# Generated by pormake.
# Topology gar, (4,6)-cn, num edge types: 1
# Building blocks:
#     Node 0, Type 0, BuildingBlock: QUQFOY_clean_sbu_3, # of connection points: 4
#     Node 1, Type 0, BuildingBlock: QUQFOY_clean_sbu_3, # of connection points: 4
#     Node 2, Type 0, BuildingBlock: QUQFOY_clean_sbu_3, # of connection points: 4
#     Node 3, Type 0, BuildingBlock: QUQFOY_clean_sbu_3, # of connection points: 4
#     Node 4, Type 0, BuildingBlock: QUQFOY_clean_sbu_3, # of connection points: 4
#     Node 5, Type 0, BuildingBlock: QUQFOY_clean_sbu_3, # of connection points: 4
#     Node 6, Type 0, BuildingBlock: QUQFOY_clean_sbu_3, # of connection points: 4
#     Node 7, Type 0, BuildingBlock: QUQFOY_clean_sbu_3, # of connection points: 4
#     Node 8, Type 0, BuildingBlock: QUQFOY_clean_sbu_3, # of connection points: 4
#     Node 9, Type 0, BuildingBlock: QUQFOY_clean_sbu_3, # of connection points: 4
#     Node 10, Type 0, BuildingBlock: QUQFOY_clean_sbu_3, # of connection points: 4
#     Node 11, Type 0, BuildingBlock: QUQFOY_clean_sbu_3, # of connection points: 4
#     Node 12, Type 0, BuildingBlock: QUQFOY_clean_sbu_3, # of connection points: 4
#     Node 13, Type 0, BuildingBlock: QUQFOY_clean_sbu_3, # of connection points: 4
#     Node 14, Type 0, BuildingBlock: QUQFOY_clean_sbu_3, # of connection points: 4
#     Node 15, Type 0, BuildingBlock: QUQFOY_clean_sbu_3, # of connection points: 4
#     Node 16, Type 0, BuildingBlock: QUQFOY_clean_sbu_3, # of connection points: 4
#     Node 17, Type 0, BuildingBlock: QUQFOY_clean_sbu_3, # of connection points: 4
#     Node 18, Type 0, BuildingBlock: QUQFOY_clean_sbu_3, # of connection points: 4
#     Node 19, Type 0, BuildingBlock: QUQFOY_clean_sbu_3, # of connection points: 4
#     Node 20, Type 0, BuildingBlock: QUQFOY_clean_sbu_3, # of connection points: 4
#     Node 21, Type 0, BuildingBlock: QUQFOY_clean_sbu_3, # of connection points: 4
#     Node 22, Type 0, BuildingBlock: QUQFOY_clean_sbu_3, # of connection points: 4
#     Node 23, Type 0, BuildingBlock: QUQFOY_clean_sbu_3, # of connection points: 4
#     Node 24, Type 1, BuildingBlock: CUKXOW_clean_sbu_0, # of connection points: 6
#     Node 25, Type 1, BuildingBlock: CUKXOW_clean_sbu_0, # of connection points: 6
#     Node 26, Type 1, BuildingBlock: CUKXOW_clean_sbu_0, # of connection points: 6
#     Node 27, Type 1, BuildingBlock: CUKXOW_clean_sbu_0, # of connection points: 6
#     Node 28, Type 1, BuildingBlock: CUKXOW_clean_sbu_0, # of connection points: 6
#     Node 29, Type 1, BuildingBlock: CUKXOW_clean_sbu_0, # of connection points: 6
#     Node 30, Type 1, BuildingBlock: CUKXOW_clean_sbu_0, # of connection points: 6
#     Node 31, Type 1, BuildingBlock: CUKXOW_clean_sbu_0, # of connection points: 6
#     Node 32, Type 1, BuildingBlock: CUKXOW_clean_sbu_0, # of connection points: 6
#     Node 33, Type 1, BuildingBlock: CUKXOW_clean_sbu_0, # of connection points: 6
#     Node 34, Type 1, BuildingBlock: CUKXOW_clean_sbu_0, # of connection points: 6
#     Node 35, Type 1, BuildingBlock: CUKXOW_clean_sbu_0, # of connection points: 6
#     Node 36, Type 1, BuildingBlock: CUKXOW_clean_sbu_0, # of connection points: 6
#     Node 37, Type 1, BuildingBlock: CUKXOW_clean_sbu_0, # of connection points: 6
#     Node 38, Type 1, BuildingBlock: CUKXOW_clean_sbu_0, # of connection points: 6
#     Node 39, Type 1, BuildingBlock: CUKXOW_clean_sbu_0, # of connection points: 6
#     Edge 40, Type (0, 1), BuildingBlock: MIFKUJ_clean_linker_0, # of connection points: 2
#     Edge 41, Type (0, 1), BuildingBlock: MIFKUJ_clean_linker_0, # of connection points: 2
#     Edge 42, Type (0, 1), BuildingBlock: MIFKUJ_clean_linker_0, # of connection points: 2
#     Edge 43, Type (0, 1), BuildingBlock: MIFKUJ_clean_linker_0, # of connection points: 2
#     Edge 44, Type (0, 1), BuildingBlock: MIFKUJ_clean_linker_0, # of connection points: 2
#     Edge 45, Type (0, 1), BuildingBlock: MIFKUJ_clean_linker_0, # of connection points: 2
#     Edge 46, Type (0, 1), BuildingBlock: MIFKUJ_clean_linker_0, # of connection points: 2
#     Edge 47, Type (0, 1), BuildingBlock: MIFKUJ_clean_linker_0, # of connection points: 2
#     Edge 48, Type (0, 1), BuildingBlock: MIFKUJ_clean_linker_0, # of connection points: 2
#     Edge 49, Type (0, 1), BuildingBlock: MIFKUJ_clean_linker_0, # of connection points: 2
#     Edge 50, Type (0, 1), BuildingBlock: MIFKUJ_clean_linker_0, # of connection points: 2
#     Edge 51, Type (0, 1), BuildingBlock: MIFKUJ_clean_linker_0, # of connection points: 2
#     Edge 52, Type (0, 1), BuildingBlock: MIFKUJ_clean_linker_0, # of connection points: 2
#     Edge 53, Type (0, 1), BuildingBlock: MIFKUJ_clean_linker_0, # of connection points: 2
#     Edge 54, Type (0, 1), BuildingBlock: MIFKUJ_clean_linker_0, # of connection points: 2
#     Edge 55, Type (0, 1), BuildingBlock: MIFKUJ_clean_linker_0, # of connection points: 2
#     Edge 56, Type (0, 1), BuildingBlock: MIFKUJ_clean_linker_0, # of connection points: 2
#     Edge 57, Type (0, 1), BuildingBlock: MIFKUJ_clean_linker_0, # of connection points: 2
#     Edge 58, Type (0, 1), BuildingBlock: MIFKUJ_clean_linker_0, # of connection points: 2
#     Edge 59, Type (0, 1), BuildingBlock: MIFKUJ_clean_linker_0, # of connection points: 2
#     Edge 60, Type (0, 1), BuildingBlock: MIFKUJ_clean_linker_0, # of connection points: 2
#     Edge 61, Type (0, 1), BuildingBlock: MIFKUJ_clean_linker_0, # of connection points: 2
#     Edge 62, Type (0, 1), BuildingBlock: MIFKUJ_clean_linker_0, # of connection points: 2
#     Edge 63, Type (0, 1), BuildingBlock: MIFKUJ_clean_linker_0, # of connection points: 2
#     Edge 64, Type (0, 1), BuildingBlock: MIFKUJ_clean_linker_0, # of connection points: 2
#     Edge 65, Type (0, 1), BuildingBlock: MIFKUJ_clean_linker_0, # of connection points: 2
#     Edge 66, Type (0, 1), BuildingBlock: MIFKUJ_clean_linker_0, # of connection points: 2
#     Edge 67, Type (0, 1), BuildingBlock: MIFKUJ_clean_linker_0, # of connection points: 2
#     Edge 68, Type (0, 1), BuildingBlock: MIFKUJ_clean_linker_0, # of connection points: 2
#     Edge 69, Type (0, 1), BuildingBlock: MIFKUJ_clean_linker_0, # of connection points: 2
#     Edge 70, Type (0, 1), BuildingBlock: MIFKUJ_clean_linker_0, # of connection points: 2
#     Edge 71, Type (0, 1), BuildingBlock: MIFKUJ_clean_linker_0, # of connection points: 2
#     Edge 72, Type (0, 1), BuildingBlock: MIFKUJ_clean_linker_0, # of connection points: 2
#     Edge 73, Type (0, 1), BuildingBlock: MIFKUJ_clean_linker_0, # of connection points: 2
#     Edge 74, Type (0, 1), BuildingBlock: MIFKUJ_clean_linker_0, # of connection points: 2
#     Edge 75, Type (0, 1), BuildingBlock: MIFKUJ_clean_linker_0, # of connection points: 2
#     Edge 76, Type (0, 1), BuildingBlock: MIFKUJ_clean_linker_0, # of connection points: 2
#     Edge 77, Type (0, 1), BuildingBlock: MIFKUJ_clean_linker_0, # of connection points: 2
#     Edge 78, Type (0, 1), BuildingBlock: MIFKUJ_clean_linker_0, # of connection points: 2
#     Edge 79, Type (0, 1), BuildingBlock: MIFKUJ_clean_linker_0, # of connection points: 2
#     Edge 80, Type (0, 1), BuildingBlock: MIFKUJ_clean_linker_0, # of connection points: 2
#     Edge 81, Type (0, 1), BuildingBlock: MIFKUJ_clean_linker_0, # of connection points: 2
#     Edge 82, Type (0, 1), BuildingBlock: MIFKUJ_clean_linker_0, # of connection points: 2
#     Edge 83, Type (0, 1), BuildingBlock: MIFKUJ_clean_linker_0, # of connection points: 2
#     Edge 84, Type (0, 1), BuildingBlock: MIFKUJ_clean_linker_0, # of connection points: 2
#     Edge 85, Type (0, 1), BuildingBlock: MIFKUJ_clean_linker_0, # of connection points: 2
#     Edge 86, Type (0, 1), BuildingBlock: MIFKUJ_clean_linker_0, # of connection points: 2
#     Edge 87, Type (0, 1), BuildingBlock: MIFKUJ_clean_linker_0, # of connection points: 2
#     Edge 88, Type (0, 1), BuildingBlock: MIFKUJ_clean_linker_0, # of connection points: 2
#     Edge 89, Type (0, 1), BuildingBlock: MIFKUJ_clean_linker_0, # of connection points: 2
#     Edge 90, Type (0, 1), BuildingBlock: MIFKUJ_clean_linker_0, # of connection points: 2
#     Edge 91, Type (0, 1), BuildingBlock: MIFKUJ_clean_linker_0, # of connection points: 2
#     Edge 92, Type (0, 1), BuildingBlock: MIFKUJ_clean_linker_0, # of connection points: 2
#     Edge 93, Type (0, 1), BuildingBlock: MIFKUJ_clean_linker_0, # of connection points: 2
#     Edge 94, Type (0, 1), BuildingBlock: MIFKUJ_clean_linker_0, # of connection points: 2
#     Edge 95, Type (0, 1), BuildingBlock: MIFKUJ_clean_linker_0, # of connection points: 2
#     Edge 96, Type (0, 1), BuildingBlock: MIFKUJ_clean_linker_0, # of connection points: 2
#     Edge 97, Type (0, 1), BuildingBlock: MIFKUJ_clean_linker_0, # of connection points: 2
#     Edge 98, Type (0, 1), BuildingBlock: MIFKUJ_clean_linker_0, # of connection points: 2
#     Edge 99, Type (0, 1), BuildingBlock: MIFKUJ_clean_linker_0, # of connection points: 2
#     Edge 100, Type (0, 1), BuildingBlock: MIFKUJ_clean_linker_0, # of connection points: 2
#     Edge 101, Type (0, 1), BuildingBlock: MIFKUJ_clean_linker_0, # of connection points: 2
#     Edge 102, Type (0, 1), BuildingBlock: MIFKUJ_clean_linker_0, # of connection points: 2
#     Edge 103, Type (0, 1), BuildingBlock: MIFKUJ_clean_linker_0, # of connection points: 2
#     Edge 104, Type (0, 1), BuildingBlock: MIFKUJ_clean_linker_0, # of connection points: 2
#     Edge 105, Type (0, 1), BuildingBlock: MIFKUJ_clean_linker_0, # of connection points: 2
#     Edge 106, Type (0, 1), BuildingBlock: MIFKUJ_clean_linker_0, # of connection points: 2
#     Edge 107, Type (0, 1), BuildingBlock: MIFKUJ_clean_linker_0, # of connection points: 2
#     Edge 108, Type (0, 1), BuildingBlock: MIFKUJ_clean_linker_0, # of connection points: 2
#     Edge 109, Type (0, 1), BuildingBlock: MIFKUJ_clean_linker_0, # of connection points: 2
#     Edge 110, Type (0, 1), BuildingBlock: MIFKUJ_clean_linker_0, # of connection points: 2
#     Edge 111, Type (0, 1), BuildingBlock: MIFKUJ_clean_linker_0, # of connection points: 2
#     Edge 112, Type (0, 1), BuildingBlock: MIFKUJ_clean_linker_0, # of connection points: 2
#     Edge 113, Type (0, 1), BuildingBlock: MIFKUJ_clean_linker_0, # of connection points: 2
#     Edge 114, Type (0, 1), BuildingBlock: MIFKUJ_clean_linker_0, # of connection points: 2
#     Edge 115, Type (0, 1), BuildingBlock: MIFKUJ_clean_linker_0, # of connection points: 2
#     Edge 116, Type (0, 1), BuildingBlock: MIFKUJ_clean_linker_0, # of connection points: 2
#     Edge 117, Type (0, 1), BuildingBlock: MIFKUJ_clean_linker_0, # of connection points: 2
#     Edge 118, Type (0, 1), BuildingBlock: MIFKUJ_clean_linker_0, # of connection points: 2
#     Edge 119, Type (0, 1), BuildingBlock: MIFKUJ_clean_linker_0, # of connection points: 2
#     Edge 120, Type (0, 1), BuildingBlock: MIFKUJ_clean_linker_0, # of connection points: 2
#     Edge 121, Type (0, 1), BuildingBlock: MIFKUJ_clean_linker_0, # of connection points: 2
#     Edge 122, Type (0, 1), BuildingBlock: MIFKUJ_clean_linker_0, # of connection points: 2
#     Edge 123, Type (0, 1), BuildingBlock: MIFKUJ_clean_linker_0, # of connection points: 2
#     Edge 124, Type (0, 1), BuildingBlock: MIFKUJ_clean_linker_0, # of connection points: 2
#     Edge 125, Type (0, 1), BuildingBlock: MIFKUJ_clean_linker_0, # of connection points: 2
#     Edge 126, Type (0, 1), BuildingBlock: MIFKUJ_clean_linker_0, # of connection points: 2
#     Edge 127, Type (0, 1), BuildingBlock: MIFKUJ_clean_linker_0, # of connection points: 2
#     Edge 128, Type (0, 1), BuildingBlock: MIFKUJ_clean_linker_0, # of connection points: 2
#     Edge 129, Type (0, 1), BuildingBlock: MIFKUJ_clean_linker_0, # of connection points: 2
#     Edge 130, Type (0, 1), BuildingBlock: MIFKUJ_clean_linker_0, # of connection points: 2
#     Edge 131, Type (0, 1), BuildingBlock: MIFKUJ_clean_linker_0, # of connection points: 2
#     Edge 132, Type (0, 1), BuildingBlock: MIFKUJ_clean_linker_0, # of connection points: 2
#     Edge 133, Type (0, 1), BuildingBlock: MIFKUJ_clean_linker_0, # of connection points: 2
#     Edge 134, Type (0, 1), BuildingBlock: MIFKUJ_clean_linker_0, # of connection points: 2
#     Edge 135, Type (0, 1), BuildingBlock: MIFKUJ_clean_linker_0, # of connection points: 2
# Relax obj value: 0.100
# Max RMSD: 0.217
# Mean RMSD: 0.117
data_MOF--net-gar--node1-QUQFOY_clean_sbu_3--node2-CUKXOW_clean_sbu_0--edge1-MIFKUJ_clean_linker_0
_symmetry_space_group_name_H-M    P1
_symmetry_Int_Tables_number       1
_symmetry_cell_setting            triclinic
loop_
_symmetry_equiv_pos_as_xyz
'x, y, z'
_cell_length_a     71.294269
_cell_length_b     70.842762
_cell_length_c     70.689571
_cell_angle_alpha  94.473766
_cell_angle_beta   95.488136
_cell_angle_gamma 99.65369
loop_
_atom_site_label
_atom_site_type_symbol
_atom_site_fract_x
_atom_site_fract_y
_atom_site_fract_z
_atom_type_partial_charge
C0 C 0.00053 0.26085 0.36831 0.0
O1 O 0.01364 0.27142 0.36109 0.0
Cd2 Cd 0.04307 0.28645 0.37864 0.0
O3 O 0.00312 0.25674 0.38552 0.0
Cd4 Cd 0.02963 0.26185 0.41222 0.0
C5 C 0.02709 0.30879 0.41774 0.0
O6 O 0.05515 0.26077 0.39281 0.0
O7 O 0.06446 0.2733 0.42155 0.0
O8 O 0.02191 0.22802 0.41673 0.0
C9 C 0.06888 0.26723 0.40553 0.0
O10 O 0.0347 0.31022 0.4022 0.0
C11 C 0.02066 0.23045 0.4345 0.0
O12 O 0.023 0.2926 0.42437 0.0
O13 O 0.02352 0.24769 0.44207 0.0
C14 C 0.96611 0.77057 0.64752 0.0
O15 O 0.98014 0.76351 0.6546 0.0
Cd16 Cd 0.0119 0.77005 0.6462 0.0
O17 O 0.96796 0.7815 0.63404 0.0
Cd18 Cd 0.99376 0.79412 0.61462 0.0
C19 C 0.0034 0.75005 0.59996 0.0
O20 O 0.01605 0.80357 0.64257 0.0
O21 O 0.02862 0.80681 0.61636 0.0
O22 O 0.98183 0.8243 0.6123 0.0
C23 C 0.03056 0.80962 0.63443 0.0
O24 O 0.01154 0.74993 0.61676 0.0
C25 C 0.98133 0.82381 0.59428 0.0
O26 O 0.9948 0.76377 0.59563 0.0
O27 O 0.98553 0.80894 0.58564 0.0
C28 C 0.48467 0.75653 0.87823 0.0
O29 O 0.49502 0.76647 0.86764 0.0
Cd30 Cd 0.52822 0.77871 0.87452 0.0
O31 O 0.49156 0.75173 0.89412 0.0
Cd32 Cd 0.52307 0.75409 0.91354 0.0
C33 C 0.52879 0.80295 0.9194 0.0
O34 O 0.5361 0.74989 0.8846 0.0
O35 O 0.55726 0.75196 0.90861 0.0
O36 O 0.50574 0.72385 0.92149 0.0
C37 C 0.55331 0.75014 0.89062 0.0
O38 O 0.53098 0.80315 0.90171 0.0
C39 C 0.51466 0.72455 0.93801 0.0
O40 O 0.52518 0.78716 0.92692 0.0
O41 O 0.52767 0.7391 0.94328 0.0
C42 C 0.4685 0.27442 0.14875 0.0
O43 O 0.48143 0.2668 0.1572 0.0
Cd44 Cd 0.51322 0.26842 0.14959 0.0
O45 O 0.47165 0.28366 0.13424 0.0
Cd46 Cd 0.49884 0.2913 0.11471 0.0
C47 C 0.50367 0.24497 0.1045 0.0
O48 O 0.52174 0.30064 0.14212 0.0
O49 O 0.53427 0.29815 0.11576 0.0
O50 O 0.49508 0.32381 0.10948 0.0
C51 C 0.53661 0.30306 0.13359 0.0
O52 O 0.51031 0.2453 0.12191 0.0
C53 C 0.49073 0.32063 0.09158 0.0
O54 O 0.49781 0.25952 0.09815 0.0
O55 O 0.48928 0.30347 0.08421 0.0
C56 C 0.964 0.76521 0.18615 0.0
O57 O 0.97578 0.75674 0.19537 0.0
Cd58 Cd 0.00703 0.75301 0.18793 0.0
O59 O 0.96822 0.77291 0.171 0.0
Cd60 Cd 0.99627 0.77704 0.15187 0.0
C61 C 0.99554 0.72869 0.1433 0.0
O62 O 0.02002 0.78404 0.17968 0.0
O63 O 0.03164 0.78329 0.15277 0.0
O64 O 0.98758 0.80767 0.14347 0.0
C65 C 0.03468 0.78574 0.1708 0.0
O66 O 0.00227 0.72876 0.16066 0.0
C67 C 0.98943 0.80474 0.12583 0.0
O68 O 0.99119 0.7439 0.1369 0.0
O69 O 0.99396 0.78879 0.12031 0.0
C70 C 0.4929 0.78119 0.34574 0.0
O71 O 0.50392 0.79074 0.33546 0.0
Cd72 Cd 0.53586 0.80544 0.34686 0.0
O73 O 0.49909 0.77767 0.36242 0.0
Cd74 Cd 0.53077 0.78238 0.38276 0.0
C75 C 0.52946 0.82989 0.38918 0.0
O76 O 0.54997 0.77874 0.35659 0.0
O77 O 0.56612 0.78933 0.38374 0.0
O78 O 0.52152 0.74923 0.38999 0.0
C79 C 0.56612 0.78315 0.36642 0.0
O80 O 0.53272 0.83066 0.37183 0.0
C81 C 0.526 0.75261 0.4079 0.0
O82 O 0.52787 0.81403 0.39667 0.0
O83 O 0.5326 0.76996 0.41422 0.0
C84 C 0.45737 0.2534 0.67669 0.0
O85 O 0.46867 0.24412 0.68551 0.0
Cd86 Cd 0.50094 0.24232 0.67948 0.0
O87 O 0.46259 0.26267 0.66276 0.0
Cd88 Cd 0.49162 0.26813 0.64514 0.0
C89 C 0.49282 0.22043 0.63384 0.0
O90 O 0.51504 0.27402 0.67368 0.0
O91 O 0.52685 0.27452 0.64675 0.0
O92 O 0.48536 0.30028 0.63962 0.0
C93 C 0.52977 0.27636 0.66481 0.0
O94 O 0.49889 0.21988 0.65129 0.0
C95 C 0.48474 0.29795 0.62156 0.0
O96 O 0.48789 0.23567 0.62803 0.0
O97 O 0.48704 0.28161 0.61438 0.0
C98 C 0.99131 0.29075 0.84747 0.0
O99 O 0.00246 0.30359 0.84041 0.0
Cd100 Cd 0.03612 0.31265 0.85047 0.0
O101 O -0.00232 0.28194 0.86109 0.0
Cd102 Cd 0.02924 0.28404 0.88055 0.0
C103 C 0.03297 0.33167 0.89508 0.0
O104 O 0.04869 0.28336 0.85385 0.0
O105 O 0.06458 0.28931 0.88176 0.0
O106 O 0.02024 0.24998 0.88563 0.0
C107 C 0.06469 0.28545 0.86396 0.0
O108 O 0.03879 0.33522 0.87905 0.0
C109 C 0.02386 0.25264 0.90368 0.0
O110 O 0.0274 0.31441 0.89857 0.0
O111 O 0.02984 0.26984 0.91084 0.0
C112 C 0.42498 0.05959 0.28199 0.0
O113 O 0.43395 0.05066 0.27059 0.0
Cd114 Cd 0.4256 0.04379 0.23696 0.0
O115 O 0.41076 0.06698 0.27564 0.0
Cd116 Cd 0.39419 0.06994 0.24315 0.0
C117 C 0.37881 0.02182 0.23756 0.0
O118 O 0.4214 0.07312 0.22427 0.0
O119 O 0.39373 0.06424 0.2082 0.0
O120 O 0.39191 0.10395 0.25088 0.0
C121 C 0.41163 0.06927 0.20809 0.0
O122 O 0.3956 0.02047 0.23348 0.0
C123 C 0.37389 0.10161 0.24662 0.0
O124 O 0.37469 0.03807 0.24292 0.0
O125 O 0.36538 0.08457 0.2411 0.0
C126 C 0.29654 0.11447 0.51005 0.0
O127 O 0.28228 0.10469 0.51637 0.0
Cd128 Cd 0.25152 0.11377 0.51633 0.0
O129 O 0.29474 0.12934 0.50149 0.0
Cd130 Cd 0.26901 0.1471 0.49206 0.0
C131 C 0.268 0.15876 0.53898 0.0
O132 O 0.24199 0.12101 0.48468 0.0
O133 O 0.23501 0.14931 0.48971 0.0
O134 O 0.2786 0.15299 0.46056 0.0
C135 C 0.22928 0.13156 0.48459 0.0
O136 O 0.2582 0.14213 0.53987 0.0
C137 C 0.28153 0.1712 0.46397 0.0
O138 O 0.27421 0.16357 0.52349 0.0
O139 O 0.2789 0.17796 0.48048 0.0
C140 C 0.10727 0.00547 0.81033 0.0
O141 O 0.09625 0.01173 0.79806 0.0
Cd142 Cd 0.10312 0.02066 0.76744 0.0
O143 O 0.12389 0.0027 0.80685 0.0
Cd144 Cd 0.14245 0.00402 0.77839 0.0
C145 C 0.14613 0.05265 0.77785 0.0
O146 O 0.11472 0.99338 0.75545 0.0
O147 O 0.14075 0.00232 0.74307 0.0
O148 O 0.14903 0.97225 0.78327 0.0
C149 C 0.12305 0.99525 0.74056 0.0
O150 O 0.12833 0.04909 0.77194 0.0
C151 C 0.16706 0.97638 0.78352 0.0
O152 O 0.15499 0.03909 0.78224 0.0
O153 O 0.17412 0.99392 0.78237 0.0
C154 C 0.25052 0.92797 0.02518 0.0
O155 O 0.23945 0.93686 0.01555 0.0
Cd156 Cd 0.20652 0.92474 0.00636 0.0
O157 O 0.24397 0.91219 0.03181 0.0
Cd158 Cd 0.21259 0.89045 0.03406 0.0
C159 C 0.21134 0.87966 0.98601 0.0
O160 O 0.19588 0.91723 0.0362 0.0
O161 O 0.1773 0.88984 0.03456 0.0
O162 O 0.22753 0.88958 0.06657 0.0
C163 C 0.17909 0.90803 0.0362 0.0
O164 O 0.20885 0.8969 0.98454 0.0
C165 C 0.22134 0.8719 0.0678 0.0
O166 O 0.21295 0.87307 0.00225 0.0
O167 O 0.21112 0.8626 0.05322 0.0
C168 C 0.26298 0.41369 0.00838 0.0
O169 O 0.25375 0.42316 0.99742 0.0
Cd170 Cd 0.22 0.42288 0.99472 0.0
O171 O 0.25428 0.40212 0.01895 0.0
Cd172 Cd 0.22044 0.39077 0.0246 0.0
C173 C 0.2045 0.37587 0.97821 0.0
O174 O 0.21264 0.42255 0.02696 0.0
O175 O 0.18879 0.39978 0.02742 0.0
O176 O 0.23221 0.3834 0.05625 0.0
C177 C 0.19496 0.41767 0.02814 0.0
O178 O 0.20521 0.39336 0.97486 0.0
C179 C 0.22172 0.36685 0.05481 0.0
O180 O 0.21058 0.37157 0.99452 0.0
O181 O 0.21073 0.36169 0.03944 0.0
C182 C 0.82737 0.13787 0.0122 0.0
O183 O 0.8161 0.12793 0.02199 0.0
Cd184 Cd 0.7846 0.13172 0.02767 0.0
O185 O 0.82226 0.15195 0.00399 0.0
Cd186 Cd 0.79242 0.16714 0.00155 0.0
C187 C 0.79293 0.17783 0.04994 0.0
O188 O 0.76938 0.13698 0.9976 0.0
O189 O 0.75752 0.1628 0.00151 0.0
O190 O 0.79393 0.17034 0.96745 0.0
C191 C 0.75464 0.14466 0.99821 0.0
O192 O 0.78839 0.15975 0.05058 0.0
C193 C 0.79398 0.1883 0.96831 0.0
O194 O 0.79599 0.18486 0.03417 0.0
O195 O 0.79434 0.19686 0.98487 0.0
C196 C 0.08655 0.50353 0.30191 0.0
O197 O 0.08006 0.51281 0.28885 0.0
Cd198 Cd 0.0881 0.51307 0.25674 0.0
O199 O 0.09908 0.49307 0.29882 0.0
Cd200 Cd 0.11746 0.48621 0.27141 0.0
C201 C 0.13489 0.53358 0.2682 0.0
O202 O 0.09072 0.48105 0.24609 0.0
O203 O 0.11855 0.48313 0.23645 0.0
O204 O 0.11976 0.45371 0.28074 0.0
C205 C 0.10057 0.48037 0.23217 0.0
O206 O 0.11886 0.53449 0.25902 0.0
C207 C 0.13781 0.45589 0.28065 0.0
O208 O 0.13763 0.51841 0.27582 0.0
O209 O 0.1462 0.47217 0.27678 0.0
C210 C 0.76949 0.93251 0.52624 0.0
O211 O 0.75898 0.94329 0.51855 0.0
Cd212 Cd 0.72475 0.93879 0.51413 0.0
O213 O 0.76216 0.91715 0.53306 0.0
Cd214 Cd 0.73 0.89916 0.53687 0.0
C215 C 0.71695 0.89447 0.48859 0.0
O216 O 0.71695 0.92727 0.5435 0.0
O217 O 0.6968 0.90112 0.54295 0.0
O218 O 0.74318 0.88769 0.56578 0.0
C219 C 0.6998 0.91933 0.54402 0.0
O220 O 0.71616 0.91232 0.48863 0.0
C221 C 0.73611 0.87011 0.56068 0.0
O222 O 0.72216 0.88727 0.50374 0.0
O223 O 0.72624 0.86621 0.5445 0.0
C224 C 0.90587 0.05655 0.26503 0.0
O225 O 0.91396 0.04917 0.25178 0.0
Cd226 Cd 0.89878 0.04038 0.2202 0.0
O227 O 0.88906 0.06034 0.26171 0.0
Cd228 Cd 0.86404 0.05903 0.23436 0.0
C229 C 0.85844 0.01055 0.23114 0.0
O230 O 0.88666 0.06852 0.21254 0.0
O231 O 0.85857 0.05658 0.19879 0.0
O232 O 0.86063 0.09007 0.24946 0.0
C233 C 0.87547 0.06491 0.19726 0.0
O234 O 0.87395 0.01258 0.22333 0.0
C235 C 0.84258 0.08768 0.24588 0.0
O236 O 0.8519 0.02515 0.23759 0.0
O237 O 0.83424 0.07161 0.23726 0.0
C238 C 0.3239 0.63829 0.51431 0.0
O239 O 0.31442 0.63006 0.52661 0.0
Cd240 Cd 0.28403 0.63567 0.53484 0.0
O241 O 0.31789 0.65161 0.50555 0.0
Cd242 Cd 0.28958 0.66876 0.50576 0.0
C243 C 0.29435 0.6826 0.55416 0.0
O244 O 0.26635 0.63903 0.50518 0.0
O245 O 0.2549 0.66536 0.5061 0.0
O246 O 0.29048 0.67083 0.47142 0.0
C247 C 0.25181 0.64716 0.50507 0.0
O248 O 0.29003 0.66483 0.5564 0.0
C249 C 0.2907 0.6888 0.47185 0.0
O250 O 0.29582 0.68825 0.53755 0.0
O251 O 0.2912 0.69778 0.48822 0.0
C252 C 0.40839 0.56527 0.77485 0.0
O253 O 0.41748 0.55827 0.76222 0.0
Cd254 Cd 0.40437 0.54797 0.73028 0.0
O255 O 0.39133 0.56811 0.77062 0.0
Cd256 Cd 0.36742 0.56518 0.74175 0.0
C257 C 0.36408 0.51668 0.7393 0.0
O258 O 0.39081 0.57461 0.72034 0.0
O259 O 0.36297 0.56221 0.70626 0.0
O260 O 0.36089 0.59621 0.75416 0.0
C261 C 0.38 0.57024 0.70485 0.0
O262 O 0.38062 0.51937 0.7335 0.0
C263 C 0.3428 0.59161 0.75136 0.0
O264 O 0.35602 0.53087 0.7439 0.0
O265 O 0.33602 0.57452 0.74425 0.0
C266 C 0.58202 0.99583 0.80367 0.0
O267 O 0.57263 0.00346 0.79109 0.0
Cd268 Cd 0.58214 0.01101 0.76069 0.0
O269 O 0.59749 0.99 0.80026 0.0
Cd270 Cd 0.61643 0.98712 0.77211 0.0
C271 C 0.62807 0.03597 0.77451 0.0
O272 O 0.5896 0.98194 0.74692 0.0
O273 O 0.61743 0.98609 0.73706 0.0
O274 O 0.62103 0.95474 0.77987 0.0
C275 C 0.59944 0.98305 0.73293 0.0
O276 O 0.61078 0.03585 0.76789 0.0
C277 C 0.63905 0.95802 0.7794 0.0
O278 O 0.63383 0.02038 0.77799 0.0
O279 O 0.64645 0.97483 0.77598 0.0
C280 C 0.78474 0.6092 0.01496 0.0
O281 O 0.77038 0.60146 0.02272 0.0
Cd282 Cd 0.73838 0.60809 0.01798 0.0
O283 O 0.78315 0.62184 0.00331 0.0
Cd284 Cd 0.75828 0.63883 0.9897 0.0
C285 C 0.74803 0.65622 0.03312 0.0
O286 O 0.73277 0.61146 0.98482 0.0
O287 O 0.7243 0.63842 0.97931 0.0
O288 O 0.76893 0.64154 0.95806 0.0
C289 C 0.71944 0.62045 0.97992 0.0
O290 O 0.73989 0.63934 0.03572 0.0
C291 C 0.7739 0.65973 0.96058 0.0
O292 O 0.75643 0.65938 0.01829 0.0
O293 O 0.77203 0.66792 0.97673 0.0
C294 C 0.93014 0.56517 0.78447 0.0
O295 O 0.93947 0.55633 0.77338 0.0
Cd296 Cd 0.92969 0.5468 0.74031 0.0
O297 O 0.9152 0.57129 0.7779 0.0
Cd298 Cd 0.89712 0.57235 0.74591 0.0
C299 C 0.88361 0.52399 0.74411 0.0
O300 O 0.923 0.57438 0.72565 0.0
O301 O 0.89453 0.56573 0.71103 0.0
O302 O 0.89568 0.60672 0.75074 0.0
C303 C 0.91238 0.57007 0.70995 0.0
O304 O 0.90065 0.52296 0.74064 0.0
C305 C 0.87754 0.60437 0.7496 0.0
O306 O 0.87849 0.54023 0.74727 0.0
O307 O 0.86855 0.58714 0.74706 0.0
C308 C 0.74972 0.42907 0.52663 0.0
O309 O 0.73851 0.43807 0.51733 0.0
Cd310 Cd 0.70603 0.42558 0.50678 0.0
O311 O 0.74349 0.41267 0.53222 0.0
Cd312 Cd 0.71222 0.38992 0.53205 0.0
C313 C 0.71356 0.3826 0.484 0.0
O314 O 0.69446 0.4156 0.53544 0.0
O315 O 0.67641 0.38793 0.52928 0.0
O316 O 0.72276 0.38719 0.56546 0.0
C317 C 0.67773 0.40591 0.53335 0.0
O318 O 0.7099 0.39956 0.48346 0.0
C319 C 0.71901 0.36896 0.56454 0.0
O320 O 0.71512 0.37512 0.49978 0.0
O321 O 0.71217 0.36021 0.54832 0.0
C322 C 0.60962 0.50328 0.31355 0.0
O323 O 0.59923 0.51053 0.30149 0.0
Cd324 Cd 0.60477 0.51814 0.27009 0.0
O325 O 0.62553 0.49874 0.30969 0.0
Cd326 Cd 0.64361 0.49877 0.2808 0.0
C327 C 0.6494 0.54749 0.27813 0.0
O328 O 0.61514 0.49008 0.25885 0.0
O329 O 0.64087 0.49591 0.24518 0.0
O330 O 0.64998 0.46634 0.28263 0.0
C331 C 0.62283 0.4908 0.24351 0.0
O332 O 0.63156 0.54487 0.27249 0.0
C333 C 0.66808 0.47085 0.28488 0.0
O334 O 0.65741 0.53359 0.28323 0.0
O335 O 0.67514 0.48868 0.28635 0.0
Tb336 Tb 0.01433 0.04993 0.01387 0.0
C337 C 0.01797 0.01897 0.98083 0.0
Tb338 Tb -0.00263 0.00739 0.01683 0.0
O339 O 0.04368 0.04533 0.02111 0.0
O340 O 0.02094 0.02755 0.03039 0.0
O341 O 0.01563 0.03694 0.98523 0.0
C342 C 0.99071 0.97021 0.02304 0.0
O343 O 0.01294 0.00498 0.99179 0.0
C344 C 0.97335 0.02844 0.00225 0.0
C345 C 0.99318 0.03822 0.04943 0.0
O346 O 0.00527 0.97862 0.01529 0.0
O347 O 0.97984 0.98261 0.02683 0.0
O348 O 0.96814 0.01289 0.01032 0.0
O349 O 0.99085 0.02976 0.00043 0.0
O350 O 0.99641 0.02046 0.04558 0.0
O351 O -0.00186 0.05212 0.03837 0.0
C352 C 0.01991 0.08706 0.00763 0.0
O353 O 0.00473 0.07779 0.01373 0.0
O354 O 0.03199 0.07553 0.00541 0.0
C355 C 0.03855 0.02951 0.02878 0.0
Tb356 Tb 0.26764 0.8009 0.26973 0.0
C357 C 0.29777 0.77375 0.27564 0.0
Tb358 Tb 0.25303 0.75726 0.26718 0.0
O359 O 0.27716 0.80193 0.30016 0.0
O360 O 0.25423 0.78114 0.28745 0.0
O361 O 0.29485 0.79101 0.27137 0.0
C362 C 0.24342 0.72009 0.27233 0.0
O363 O 0.28364 0.75894 0.27585 0.0
C364 C 0.25489 0.77208 0.23432 0.0
C365 C 0.22325 0.78419 0.26073 0.0
O366 O 0.245 0.73423 0.28553 0.0
O367 O 0.24728 0.72689 0.25639 0.0
O368 O 0.24281 0.7569 0.23696 0.0
O369 O 0.26625 0.7771 0.24937 0.0
O370 O 0.22601 0.76772 0.2674 0.0
O371 O 0.23761 0.79812 0.25846 0.0
C372 C 0.27774 0.83723 0.26208 0.0
O373 O 0.26588 0.83159 0.27421 0.0
O374 O 0.28389 0.82252 0.25453 0.0
C375 C 0.26541 0.78641 0.30255 0.0
Tb376 Tb 0.5227 0.02137 0.50219 0.0
C377 C 0.5201 0.01586 0.54563 0.0
Tb378 Tb 0.48505 0.02526 0.51809 0.0
O379 O 0.53614 0.04913 0.51776 0.0
O380 O 0.50712 0.04358 0.50746 0.0
O381 O 0.52934 0.01255 0.53058 0.0
C382 C 0.46124 0.04092 0.53852 0.0
O383 O 0.50336 0.02191 0.54408 0.0
C384 C 0.4872 0.99112 0.50282 0.0
C385 C 0.4871 0.02921 0.47447 0.0
O386 O 0.45713 0.02408 0.52886 0.0
O387 O 0.47859 0.04878 0.53653 0.0
O388 O 0.47108 0.99742 0.50303 0.0
O389 O 0.50036 0.00304 0.51241 0.0
O390 O 0.47823 0.03346 0.48954 0.0
O391 O 0.50377 0.02298 0.47611 0.0
C392 C 0.54963 0.00895 0.48338 0.0
O393 O 0.5507 0.02624 0.49146 0.0
O394 O 0.53334 0.99876 0.48588 0.0
C395 C 0.52009 0.05557 0.51716 0.0
Tb396 Tb 0.26262 0.28813 0.78573 0.0
C397 C 0.27485 0.32241 0.76105 0.0
Tb398 Tb 0.25664 0.28002 0.7421 0.0
O399 O 0.29368 0.2894 0.78656 0.0
O400 O 0.27476 0.27286 0.76479 0.0
O401 O 0.27165 0.31727 0.77828 0.0
C402 C 0.26515 0.27522 0.70651 0.0
O403 O 0.27057 0.31025 0.74535 0.0
C404 C 0.22664 0.28769 0.75776 0.0
C405 C 0.24211 0.2469 0.76626 0.0
O406 O 0.27748 0.27917 0.72157 0.0
O407 O 0.24792 0.27386 0.71147 0.0
O408 O 0.22547 0.27765 0.74134 0.0
O409 O 0.24396 0.29458 0.76314 0.0
O410 O 0.24935 0.25087 0.7501 0.0
O411 O 0.24328 0.26021 0.78087 0.0
C412 C 0.25456 0.2935 0.82157 0.0
O413 O 0.25773 0.27745 0.81348 0.0
O414 O 0.25695 0.30658 0.80982 0.0
C415 C 0.29211 0.27934 0.77009 0.0
Tb416 Tb 0.99385 0.02628 0.48705 0.0
C417 C 0.96548 0.00716 0.51392 0.0
Tb418 Tb 0.00925 0.02137 0.52875 0.0
O419 O 0.98775 0.99512 0.47966 0.0
O420 O 0.00914 0.00747 0.50114 0.0
O421 O 0.96728 0.01774 0.49928 0.0
C422 C 0.02164 0.00726 0.5604 0.0
O423 O 0.98027 0.00471 0.52582 0.0
C424 C 0.00274 0.05592 0.52293 0.0
C425 C 0.03768 0.04138 0.50233 0.0
O426 O 0.0078 0.01706 0.55895 0.0
O427 O 0.02845 0.00552 0.54413 0.0
O428 O 0.0141 0.05254 0.53728 0.0
O429 O 0.99407 0.04012 0.51455 0.0
O430 O 0.03598 0.03171 0.51759 0.0
O431 O 0.0229 0.04282 0.48992 0.0
C432 C 0.98294 0.03863 0.45386 0.0
O433 O -0.0022 0.03059 0.45736 0.0
O434 O 0.97405 0.03958 0.46899 0.0
C435 C -0.00018 0.99167 0.49335 0.0
Tb436 Tb 0.27311 0.78178 0.77877 0.0
C437 C 0.24127 0.79035 0.80379 0.0
Tb438 Tb 0.23253 0.7822 0.75906 0.0
O439 O 0.28041 0.81333 0.7846 0.0
O440 O 0.25943 0.80057 0.76303 0.0
O441 O 0.25589 0.78104 0.80265 0.0
C442 C 0.2017 0.79283 0.74182 0.0
O443 O 0.23144 0.79471 0.78826 0.0
C444 C 0.2398 0.74797 0.76549 0.0
C445 C 0.2649 0.77372 0.73355 0.0
O446 O 0.20211 0.78463 0.75765 0.0
O447 O 0.21845 0.79489 0.73586 0.0
O448 O 0.22662 0.75074 0.75252 0.0
O449 O 0.2461 0.76363 0.77542 0.0
O450 O 0.24797 0.77906 0.73412 0.0
O451 O 0.27642 0.77261 0.74919 0.0
C452 C 0.30447 0.77008 0.79338 0.0
O453 O 0.29562 0.76448 0.7765 0.0
O454 O 0.29592 0.78254 0.80188 0.0
C455 C 0.26639 0.81627 0.77271 0.0
Tb456 Tb 0.48531 0.01403 0.01275 0.0
C457 C 0.51542 0.98722 0.00844 0.0
Tb458 Tb 0.52799 0.03234 0.0139 0.0
O459 O 0.48346 0.00218 0.98281 0.0
O460 O 0.50366 0.02622 0.99337 0.0
O461 O 0.49885 0.98881 0.01498 0.0
C462 C 0.56403 0.04571 0.00802 0.0
O463 O 0.52786 0.00226 0.00475 0.0
C464 C 0.51414 0.03302 0.04725 0.0
C465 C 0.49796 0.05895 0.01444 0.0
O466 O 0.55853 0.03037 0.01636 0.0
O467 O 0.54928 0.05337 0.00294 0.0
O468 O 0.52885 0.04494 0.04344 0.0
O469 O 0.50959 0.02023 0.03342 0.0
O470 O 0.51396 0.05627 0.00743 0.0
O471 O 0.486 0.04472 0.02035 0.0
C472 C 0.44941 0.00239 0.02018 0.0
O473 O 0.45473 0.01536 0.00887 0.0
O474 O 0.46428 0.99592 0.02725 0.0
C475 C 0.49856 0.0138 0.97931 0.0
Tb476 Tb 0.2331 0.26977 0.26683 0.0
C477 C 0.26455 0.27078 0.30161 0.0
Tb478 Tb 0.275 0.28504 0.26212 0.0
O479 O 0.23799 0.24002 0.26623 0.0
O480 O 0.25471 0.26024 0.25212 0.0
O481 O 0.24624 0.27121 0.2962 0.0
C482 C 0.31171 0.28825 0.2565 0.0
O483 O 0.27818 0.27469 0.29025 0.0
C484 C 0.25504 0.31125 0.27255 0.0
C485 C 0.24406 0.28231 0.22668 0.0
O486 O 0.30149 0.27333 0.26227 0.0
O487 O 0.30137 0.30149 0.25438 0.0
O488 O 0.26997 0.31478 0.2634 0.0
O489 O 0.25347 0.29438 0.27727 0.0
O490 O 0.26232 0.28249 0.23266 0.0
O491 O 0.23017 0.2786 0.23783 0.0
C492 C 0.19653 0.26898 0.2724 0.0
O493 O 0.20763 0.28315 0.2664 0.0
O494 O 0.20592 0.25497 0.2746 0.0
C495 C 0.25311 0.24351 0.25729 0.0
Tb496 Tb 0.48494 0.52839 0.99738 0.0
C497 C 0.45596 0.50509 0.02096 0.0
Tb498 Tb 0.49962 0.51964 0.03766 0.0
O499 O 0.47908 0.49773 0.98744 0.0
O500 O 0.50086 0.5088 0.0092 0.0
O501 O 0.45785 0.51678 0.00716 0.0
C502 C 0.51098 0.50429 0.06904 0.0
O503 O 0.47058 0.50281 0.03325 0.0
C504 C 0.4926 0.55451 0.03462 0.0
C505 C 0.52863 0.54199 0.01361 0.0
O506 O 0.5001 0.51724 0.06837 0.0
O507 O 0.51533 0.49992 0.05205 0.0
O508 O 0.50557 0.55049 0.04711 0.0
O509 O 0.48356 0.53912 0.02578 0.0
O510 O 0.52667 0.53001 0.02708 0.0
O511 O 0.51384 0.54546 0.00234 0.0
C512 C 0.47678 0.54397 0.96526 0.0
O513 O 0.48893 0.53244 0.96774 0.0
O514 O 0.46892 0.54662 0.98087 0.0
C515 C 0.49174 0.49352 0.00012 0.0
Tb516 Tb 0.78309 0.28337 0.27612 0.0
C517 C 0.7557 0.29611 0.30493 0.0
Tb518 Tb 0.74148 0.28469 0.26052 0.0
O519 O 0.78967 0.31468 0.28232 0.0
O520 O 0.76873 0.30187 0.26043 0.0
O521 O 0.7718 0.28934 0.30309 0.0
C522 C 0.70864 0.2952 0.2482 0.0
O523 O 0.74286 0.29703 0.29018 0.0
C524 C 0.74864 0.25047 0.26676 0.0
C525 C 0.76845 0.27081 0.23214 0.0
O526 O 0.71015 0.28077 0.25814 0.0
O527 O 0.72554 0.30364 0.24535 0.0
O528 O 0.7353 0.25338 0.25403 0.0
O529 O 0.75588 0.26623 0.27625 0.0
O530 O 0.75334 0.27928 0.23374 0.0
O531 O 0.78041 0.26876 0.24716 0.0
C532 C 0.81651 0.27288 0.28598 0.0
O533 O 0.81329 0.28382 0.27257 0.0
O534 O 0.80104 0.26816 0.29404 0.0
C535 C 0.77608 0.31761 0.2699 0.0
Tb536 Tb 0.98014 0.52179 0.5046 0.0
C537 C 0.00648 0.48958 0.50859 0.0
Tb538 Tb 0.02379 0.53384 0.51349 0.0
O539 O 0.98088 0.5259 0.47421 0.0
O540 O 0.00444 0.51942 0.49044 0.0
O541 O 0.98906 0.49399 0.5087 0.0
C542 C 0.06017 0.54798 0.50986 0.0
O543 O 0.02194 0.50285 0.508 0.0
C544 C 0.00422 0.53129 0.54316 0.0
C545 C -0.00239 0.56592 0.50756 0.0
O546 O 0.05443 0.53746 0.52316 0.0
O547 O 0.04547 0.55056 0.49873 0.0
O548 O 0.02212 0.52947 0.54396 0.0
O549 O -0.00052 0.53663 0.52724 0.0
O550 O 0.015 0.56134 0.50784 0.0
O551 O 0.98206 0.55289 0.5086 0.0
C552 C 0.94463 0.50771 0.51114 0.0
O553 O 0.94917 0.5165 0.4963 0.0
O554 O 0.96002 0.50687 0.52214 0.0
C555 C -0.00106 0.5247 0.47462 0.0
Tb556 Tb 0.76122 0.78484 0.28658 0.0
C557 C 0.77514 0.81717 0.26086 0.0
Tb558 Tb 0.7558 0.77548 0.24271 0.0
O559 O 0.79223 0.78532 0.28916 0.0
O560 O 0.77426 0.77006 0.26599 0.0
O561 O 0.76739 0.8135 0.27685 0.0
C562 C 0.76024 0.76844 0.20611 0.0
O563 O 0.77446 0.80362 0.24662 0.0
C564 C 0.72591 0.78381 0.25811 0.0
C565 C 0.74277 0.74221 0.26843 0.0
O566 O 0.75143 0.78163 0.21292 0.0
O567 O 0.76637 0.75915 0.21985 0.0
O568 O 0.72471 0.77278 0.24233 0.0
O569 O 0.74319 0.79091 0.26327 0.0
O570 O 0.74591 0.74684 0.251 0.0
O571 O 0.74737 0.75457 0.284 0.0
C572 C 0.752 0.79182 0.32172 0.0
O573 O 0.74091 0.7815 0.30776 0.0
O574 O 0.76855 0.79793 0.31603 0.0
C575 C 0.79148 0.77645 0.27222 0.0
Tb576 Tb 0.76407 0.30287 0.76861 0.0
C577 C 0.79425 0.27605 0.77569 0.0
Tb578 Tb 0.74981 0.25886 0.76724 0.0
O579 O 0.77396 0.30418 0.79911 0.0
O580 O 0.75117 0.2833 0.7868 0.0
O581 O 0.79106 0.29249 0.76933 0.0
C582 C 0.73933 0.22303 0.7762 0.0
O583 O 0.78017 0.26176 0.77788 0.0
C584 C 0.75157 0.27217 0.73369 0.0
C585 C 0.71976 0.28549 0.75818 0.0
O586 O 0.75081 0.22804 0.76355 0.0
O587 O 0.73384 0.23818 0.78377 0.0
O588 O 0.74105 0.25597 0.73636 0.0
O589 O 0.76224 0.27846 0.74894 0.0
O590 O 0.7225 0.26889 0.76455 0.0
O591 O 0.73401 0.29995 0.75699 0.0
C592 C 0.77528 0.33939 0.76199 0.0
O593 O 0.76303 0.33361 0.77372 0.0
O594 O 0.78114 0.32465 0.75403 0.0
C595 C 0.76228 0.28877 0.80186 0.0
Tb596 Tb 0.74002 0.77574 0.76918 0.0
C597 C 0.76886 0.77418 0.80515 0.0
Tb598 Tb 0.78237 0.79168 0.76787 0.0
O599 O 0.74548 0.7463 0.76866 0.0
O600 O 0.76294 0.76702 0.75576 0.0
O601 O 0.75088 0.77523 0.79897 0.0
C602 C 0.81958 0.79415 0.76441 0.0
O603 O 0.78333 0.77899 0.79497 0.0
C604 C 0.76198 0.81749 0.77815 0.0
C605 C 0.75349 0.79008 0.7308 0.0
O606 O 0.80924 0.78082 0.77235 0.0
O607 O 0.80909 0.80652 0.7592 0.0
O608 O 0.778 0.82157 0.77082 0.0
O609 O 0.75967 0.80021 0.78179 0.0
O610 O 0.77145 0.79019 0.73784 0.0
O611 O 0.73882 0.78606 0.74087 0.0
C612 C 0.70243 0.77055 0.77105 0.0
O613 O 0.71336 0.78704 0.77048 0.0
O614 O 0.71268 0.7571 0.7704 0.0
C615 C 0.76106 0.75012 0.76055 0.0
Tb616 Tb 0.50989 0.54766 0.5159 0.0
C617 C 0.51524 0.51772 0.48168 0.0
Tb618 Tb 0.49063 0.50307 0.51397 0.0
O619 O 0.53945 0.54366 0.52601 0.0
O620 O 0.51675 0.52134 0.52124 0.0
O621 O 0.51384 0.53574 0.48739 0.0
C622 C 0.48465 0.46789 0.52569 0.0
O623 O 0.50924 0.50279 0.49124 0.0
C624 C 0.4697 0.52674 0.49882 0.0
C625 C 0.48702 0.53288 0.54992 0.0
O626 O 0.4792 0.47202 0.50861 0.0
O627 O 0.49335 0.48344 0.53586 0.0
O628 O 0.46619 0.50816 0.49427 0.0
O629 O 0.48264 0.53 0.5125 0.0
O630 O 0.48365 0.51486 0.54157 0.0
O631 O 0.4964 0.54789 0.54236 0.0
C632 C 0.51117 0.58307 0.50565 0.0
O633 O 0.51977 0.57885 0.5215 0.0
O634 O 0.50196 0.56743 0.49587 0.0
C635 C 0.53438 0.52507 0.52614 0.0
Tb636 Tb 0.0273 0.53334 0.00614 0.0
C637 C 0.02282 0.52166 0.04784 0.0
Tb638 Tb 0.98756 0.52859 0.01962 0.0
O639 O 0.03636 0.56031 0.02426 0.0
O640 O 0.00779 0.5517 0.01287 0.0
O641 O 0.0333 0.52158 0.03325 0.0
C642 C 0.95735 0.53576 0.03655 0.0
O643 O 0.00503 0.52525 0.04603 0.0
C644 C 0.99543 0.49773 0.00155 0.0
C645 C 0.99187 0.53886 0.97755 0.0
O646 O 0.9746 0.54543 0.04028 0.0
O647 O 0.95725 0.52168 0.02364 0.0
O648 O 0.97809 0.5005 0.00315 0.0
O649 O 0.00688 0.51027 0.0125 0.0
O650 O 0.9815 0.53967 0.99215 0.0
O651 O 0.00964 0.53533 0.97956 0.0
C652 C 0.05827 0.52897 0.98903 0.0
O653 O 0.05686 0.54363 0.00064 0.0
O654 O 0.0423 0.51693 0.98721 0.0
C655 C 0.01914 0.56396 0.02422 0.0
H656 H 0.03024 0.25456 0.94254 0.0
H657 H 0.02852 0.22781 0.96251 0.0
H658 H 0.01133 0.18754 0.9124 0.0
H659 H 0.01276 0.21426 0.89231 0.0
H660 H 0.99116 0.17684 0.94158 0.0
H661 H 0.05731 0.19668 0.932 0.0
H662 H 0.08739 0.21983 0.93262 0.0
H663 H 0.08901 0.23174 0.99331 0.0
H664 H 0.05878 0.20883 0.993 0.0
H665 H 0.04642 0.10359 0.98596 0.0
H666 H 0.04653 0.13345 0.97078 0.0
H667 H -0.00224 0.14399 -0.00085 0.0
H668 H -0.00251 0.11381 0.01398 0.0
H669 H 0.05029 0.17027 0.98179 0.0
H670 H 0.96851 0.16397 0.96971 0.0
H671 H 0.93947 0.13895 0.96705 0.0
H672 H 0.9709 0.09684 0.94546 0.0
H673 H 4e-05 0.1216 0.94788 0.0
C674 C 0.02597 0.24002 0.93577 0.0
C675 C 0.02178 0.2365 0.91583 0.0
C676 C 0.02502 0.22475 0.94721 0.0
C677 C 0.02001 0.20569 0.93892 0.0
C678 C 0.01523 0.20216 0.91908 0.0
C679 C 0.01613 0.21742 0.90762 0.0
C680 C 0.02059 0.18942 0.9508 0.0
C681 C 0.00405 0.17546 0.95045 0.0
C682 C 0.03748 0.18749 0.96221 0.0
C683 C 0.05569 0.2012 0.96244 0.0
C684 C 0.06401 0.20435 0.94545 0.0
C685 C 0.08109 0.2174 0.94575 0.0
C686 C 0.09008 0.22729 0.96299 0.0
C687 C 0.08202 0.2241 0.97997 0.0
C688 C 0.06492 0.21107 0.97974 0.0
C689 C 0.03589 0.11242 0.98915 0.0
C690 C 0.02171 0.10636 0.00091 0.0
C691 C 0.03597 0.12948 0.98049 0.0
C692 C 0.02193 0.14078 0.98353 0.0
C693 C 0.00847 0.13529 0.99624 0.0
C694 C 0.00831 0.11812 0.00474 0.0
C695 C 0.02087 0.15767 0.97259 0.0
C696 C 0.03732 0.17177 0.97311 0.0
C697 C 0.00402 0.1595 0.96104 0.0
C698 C 0.98646 0.14461 0.95911 0.0
C699 C 0.96918 0.14939 0.96431 0.0
C700 C 0.95271 0.13525 0.96287 0.0
C701 C 0.95335 0.11634 0.95609 0.0
C702 C 0.97043 0.1115 0.95072 0.0
C703 C 0.98693 0.12556 0.95215 0.0
H704 H 0.94063 0.10541 0.95499 0.0
H705 H 0.10331 0.2374 0.96319 0.0
H706 H 0.0444 0.77667 0.2067 0.0
H707 H 0.07647 0.77799 0.22279 0.0
H708 H 0.10093 0.80116 0.17409 0.0
H709 H 0.06873 0.79877 0.1575 0.0
H710 H 0.12016 0.77646 0.18509 0.0
H711 H 0.09989 0.82911 0.21846 0.0
H712 H 0.07869 0.84613 0.23637 0.0
H713 H 0.08315 0.80929 0.28142 0.0
H714 H 0.10419 0.79187 0.26367 0.0
H715 H 0.21307 0.80779 0.23453 0.0
H716 H 0.18086 0.80976 0.22063 0.0
H717 H 0.15689 0.76793 0.25687 0.0
H718 H 0.18926 0.76557 0.27074 0.0
H719 H 0.13836 0.80336 0.25257 0.0
H720 H 0.15923 0.75088 0.21671 0.0
H721 H 0.18276 0.73731 0.19891 0.0
H722 H 0.17889 0.77825 0.15769 0.0
H723 H 0.15573 0.7925 0.17556 0.0
C724 C 0.05662 0.78218 0.19949 0.0
C725 C 0.05411 0.78771 0.18089 0.0
C726 C 0.07498 0.78304 0.20874 0.0
C727 C 0.09122 0.79004 0.19985 0.0
C728 C 0.08868 0.79572 0.1813 0.0
C729 C 0.07029 0.79443 0.17184 0.0
C730 C 0.11079 0.79077 0.20965 0.0
C731 C 0.12414 0.78262 0.19974 0.0
C732 C 0.1161 0.79861 0.22889 0.0
C733 C 0.10348 0.80907 0.23965 0.0
C734 C 0.09624 0.82455 0.23213 0.0
C735 C 0.08427 0.83428 0.24226 0.0
C736 C 0.07954 0.82877 0.26 0.0
C737 C 0.08681 0.81353 0.26767 0.0
C738 C 0.09878 0.80374 0.25759 0.0
C739 C 0.20097 0.79921 0.2398 0.0
C740 C 0.20367 0.78653 0.25377 0.0
C741 C 0.18259 0.80034 0.23179 0.0
C742 C 0.16659 0.78899 0.23775 0.0
C743 C 0.16914 0.77684 0.25218 0.0
C744 C 0.18758 0.77545 0.26001 0.0
C745 C 0.14733 0.78897 0.228 0.0
C746 C 0.13419 0.79727 0.2379 0.0
C747 C 0.14235 0.78169 0.20866 0.0
C748 C 0.15587 0.77286 0.19759 0.0
C749 C 0.16352 0.75712 0.20394 0.0
C750 C 0.1768 0.74932 0.19385 0.0
C751 C 0.18237 0.75699 0.17722 0.0
C752 C 0.17462 0.77243 0.17062 0.0
C753 C 0.16142 0.78037 0.18073 0.0
H754 H 0.19267 0.75095 0.16943 0.0
H755 H 0.07027 0.83632 0.26782 0.0
H756 H 0.516 0.86098 0.37637 0.0
H757 H 0.50883 0.88856 0.39553 0.0
H758 H 0.53017 0.86618 0.44688 0.0
H759 H 0.53625 0.83802 0.42779 0.0
H760 H 0.5 0.87756 0.45352 0.0
H761 H 0.55497 0.90728 0.42648 0.0
H762 H 0.57545 0.91638 0.40127 0.0
H763 H 0.53275 0.94546 0.37558 0.0
H764 H 0.51191 0.93633 0.40051 0.0
H765 H 0.51479 0.96995 0.51057 0.0
H766 H 0.52153 0.94232 0.49085 0.0
H767 H 0.47404 0.94632 0.44965 0.0
H768 H 0.4669 0.97371 0.46962 0.0
H769 H 0.5172 0.94504 0.43827 0.0
H770 H 0.46253 0.91311 0.46792 0.0
H771 H 0.44569 0.90539 0.49599 0.0
H772 H 0.49336 0.88187 0.51997 0.0
H773 H 0.5106 0.88974 0.49215 0.0
C774 C 0.51932 0.86207 0.39174 0.0
C775 C 0.52669 0.84738 0.4006 0.0
C776 C 0.51532 0.87791 0.4027 0.0
C777 C 0.51919 0.87969 0.42271 0.0
C778 C 0.52696 0.86517 0.43151 0.0
C779 C 0.53051 0.84911 0.42058 0.0
C780 C 0.51435 0.89617 0.43455 0.0
C781 C 0.504 0.89229 0.4502 0.0
C782 C 0.51935 0.9155 0.43031 0.0
C783 C 0.5318 0.92094 0.41524 0.0
C784 C 0.54989 0.91548 0.41536 0.0
C785 C 0.56157 0.92067 0.40114 0.0
C786 C 0.55538 0.93144 0.3868 0.0
C787 C 0.53751 0.93709 0.38668 0.0
C788 C 0.52577 0.93193 0.40086 0.0
C789 C 0.50567 0.96476 0.49741 0.0
C790 C 0.4903 0.9738 0.49157 0.0
C791 C 0.50955 0.94907 0.48619 0.0
C792 C 0.49827 0.94239 0.46887 0.0
C793 C 0.48285 0.95134 0.46302 0.0
C794 C 0.47873 0.96683 0.47444 0.0
C795 C 0.50285 0.92619 0.45681 0.0
C796 C 0.51321 0.93021 0.44131 0.0
C797 C 0.49834 0.90707 0.46145 0.0
C798 C 0.48792 0.90221 0.47807 0.0
C799 C 0.46949 0.90648 0.47927 0.0
C800 C 0.45986 0.90203 0.49512 0.0
C801 C 0.46847 0.8932 0.50979 0.0
C802 C 0.48672 0.88874 0.50861 0.0
C803 C 0.49642 0.89318 0.49281 0.0
H804 H 0.46099 0.88976 0.52204 0.0
H805 H 0.56445 0.93545 0.37581 0.0
H806 H 0.43975 0.23091 0.7017 0.0
H807 H 0.40967 0.23312 0.71466 0.0
H808 H 0.40171 0.2794 0.68019 0.0
H809 H 0.43178 0.27699 0.66677 0.0
H810 H 0.40221 0.26156 0.7359 0.0
H811 H 0.35042 0.27937 0.67285 0.0
H812 H 0.34377 0.27234 0.63794 0.0
H813 H 0.37021 0.22232 0.64059 0.0
H814 H 0.37644 0.22862 0.67556 0.0
H815 H 0.32783 0.30075 0.77308 0.0
H816 H 0.35418 0.2953 0.75473 0.0
H817 H 0.3187 0.24441 0.72465 0.0
H818 H 0.29212 0.25027 0.74252 0.0
H819 H 0.33873 0.26204 0.70067 0.0
H820 H 0.35362 0.24212 0.76249 0.0
H821 H 0.3587 0.24524 0.79769 0.0
H822 H 0.40457 0.29288 0.79702 0.0
H823 H 0.3996 0.2902 0.76182 0.0
C824 C 0.43155 0.24145 0.69669 0.0
C825 C 0.43828 0.25387 0.68328 0.0
C826 C 0.41433 0.2427 0.70414 0.0
C827 C 0.40339 0.25643 0.69845 0.0
C828 C 0.40976 0.26853 0.68466 0.0
C829 C 0.427 0.26719 0.67705 0.0
C830 C 0.38618 0.25888 0.70809 0.0
C831 C 0.38836 0.26168 0.72812 0.0
C832 C 0.36796 0.25873 0.69801 0.0
C833 C 0.36428 0.25473 0.67689 0.0
C834 C 0.35481 0.26685 0.66602 0.0
C835 C 0.35106 0.26296 0.6462 0.0
C836 C 0.35674 0.24701 0.63703 0.0
C837 C 0.36601 0.23479 0.64769 0.0
C838 C 0.36965 0.23852 0.66753 0.0
C839 C 0.32573 0.28839 0.76258 0.0
C840 C 0.30807 0.27584 0.75929 0.0
C841 C 0.34077 0.28526 0.75211 0.0
C842 C 0.33858 0.26921 0.73852 0.0
C843 C 0.32078 0.25683 0.73505 0.0
C844 C 0.30565 0.26013 0.74534 0.0
C845 C 0.355 0.26511 0.72836 0.0
C846 C 0.35266 0.26199 0.70832 0.0
C847 C 0.37302 0.26448 0.73837 0.0
C848 C 0.37613 0.26606 0.75954 0.0
C849 C 0.36472 0.25333 0.76986 0.0
C850 C 0.36758 0.25501 0.78981 0.0
C851 C 0.38192 0.26927 0.79958 0.0
C852 C 0.39346 0.28185 0.78943 0.0
C853 C 0.39064 0.28025 0.76948 0.0
H854 H 0.38411 0.27055 0.81503 0.0
H855 H 0.35381 0.24402 0.62168 0.0
H856 H 0.98312 0.86071 0.6096 0.0
H857 H 0.98402 0.88938 0.5924 0.0
H858 H 0.97369 0.8537 0.5388 0.0
H859 H 0.97353 0.82504 0.55593 0.0
H860 H 0.00308 0.88066 0.53819 0.0
H861 H 0.93929 0.87952 0.55726 0.0
H862 H 0.91518 0.87931 0.58011 0.0
H863 H 0.94647 0.93232 0.60931 0.0
H864 H 0.97083 0.93276 0.58675 0.0
H865 H 0.96782 0.96447 0.49097 0.0
H866 H 0.9629 0.93592 0.5085 0.0
H867 H 0.02154 0.94982 0.5341 0.0
H868 H 0.02655 0.97844 0.51641 0.0
H869 H 0.96742 0.93429 0.54864 0.0
H870 H 0.03642 0.90565 0.53661 0.0
H871 H 0.05992 0.90628 0.51309 0.0
H872 H 0.01649 0.91216 0.46855 0.0
H873 H 0.99271 0.9113 0.49176 0.0
C874 C 0.98063 0.85895 0.59415 0.0
C875 C 0.97833 0.84064 0.58408 0.0
C876 C 0.98111 0.87537 0.58433 0.0
C877 C 0.97887 0.87371 0.56429 0.0
C878 C 0.97555 0.85534 0.55427 0.0
C879 C 0.97538 0.83896 0.56406 0.0
C880 C 0.98161 0.89106 0.55369 0.0
C881 C 0.99519 0.89232 0.54047 0.0
C882 C 0.97154 0.90644 0.55678 0.0
C883 C 0.95695 0.90608 0.57041 0.0
C884 C 0.94109 0.89105 0.56864 0.0
C885 C 0.92736 0.89092 0.58152 0.0
C886 C 0.92931 0.90577 0.59617 0.0
C887 C 0.94498 0.92081 0.59797 0.0
C888 C 0.95872 0.92103 0.58512 0.0
C889 C 0.97972 0.9613 0.50017 0.0
C890 C -0.00245 0.97364 0.50252 0.0
C891 C 0.97683 0.94514 0.51029 0.0
C892 C 0.99182 0.94087 0.52261 0.0
C893 C 0.00979 0.95294 0.52466 0.0
C894 C 0.01262 0.96925 0.51466 0.0
C895 C 0.98864 0.92362 0.53313 0.0
C896 C 0.97519 0.92252 0.54642 0.0
C897 C -0.00124 0.90835 0.5301 0.0
C898 C 0.01286 0.90861 0.51596 0.0
C899 C 0.03189 0.90701 0.52179 0.0
C900 C 0.04525 0.90742 0.50851 0.0
C901 C 0.03971 0.90933 0.48935 0.0
C902 C 0.02078 0.91076 0.48341 0.0
C903 C 0.00736 0.91034 0.49662 0.0
H904 H 0.05008 0.90965 0.4791 0.0
H905 H 0.91865 0.90565 0.60611 0.0
H906 H 0.4709 0.7353 0.84508 0.0
H907 H 0.43756 0.72781 0.8308 0.0
H908 H 0.42018 0.75605 0.88093 0.0
H909 H 0.45351 0.76242 0.8957 0.0
H910 H 0.39238 0.7277 0.86561 0.0
H911 H 0.43273 0.78088 0.84229 0.0
H912 H 0.46081 0.79634 0.82781 0.0
H913 H 0.44416 0.7572 0.77718 0.0
H914 H 0.41611 0.74135 0.79149 0.0
H915 H 0.32169 0.77856 0.82961 0.0
H916 H 0.34978 0.76704 0.84381 0.0
H917 H 0.35227 0.73332 0.79085 0.0
H918 H 0.32401 0.74477 0.77656 0.0
H919 H 0.38616 0.75795 0.80483 0.0
H920 H 0.34029 0.71085 0.8275 0.0
H921 H 0.31152 0.6992 0.84291 0.0
H922 H 0.33775 0.73016 0.89607 0.0
H923 H 0.36645 0.74253 0.88087 0.0
C924 C 0.45982 0.73943 0.85317 0.0
C925 C 0.46454 0.74964 0.87127 0.0
C926 C 0.44085 0.73519 0.84505 0.0
C927 C 0.42651 0.74186 0.85459 0.0
C928 C 0.43106 0.75084 0.8733 0.0
C929 C 0.45003 0.75458 0.88168 0.0
C930 C 0.40749 0.74184 0.8442 0.0
C931 C 0.39096 0.73431 0.85234 0.0
C932 C 0.40569 0.7502 0.8267 0.0
C933 C 0.42248 0.75979 0.81804 0.0
C934 C 0.43514 0.7755 0.82812 0.0
C935 C 0.45104 0.78434 0.81994 0.0
C936 C 0.4543 0.77772 0.80161 0.0
C937 C 0.44164 0.76228 0.7914 0.0
C938 C 0.42574 0.75337 0.79953 0.0
C939 C 0.32815 0.76858 0.82107 0.0
C940 C 0.32093 0.76267 0.80199 0.0
C941 C 0.34404 0.76187 0.82923 0.0
C942 C 0.35289 0.7492 0.8184 0.0
C943 C 0.34549 0.74301 0.79941 0.0
C944 C 0.32948 0.74961 0.79128 0.0
C945 C 0.37105 0.74416 0.8264 0.0
C946 C 0.38748 0.75085 0.81784 0.0
C947 C 0.37267 0.73542 0.84366 0.0
C948 C 0.35553 0.72772 0.85297 0.0
C949 C 0.33988 0.71532 0.84243 0.0
C950 C 0.32358 0.70859 0.85114 0.0
C951 C 0.32283 0.71391 0.87046 0.0
C952 C 0.33836 0.72603 0.88111 0.0
C953 C 0.35466 0.73292 0.87244 0.0
H954 H 0.3102 0.70865 0.87718 0.0
H955 H 0.46662 0.78458 0.79531 0.0
H956 H 0.5039 0.20897 0.11493 0.0
H957 H 0.50311 0.17964 0.09439 0.0
H958 H 0.5007 0.21128 0.04471 0.0
H959 H 0.50077 0.24086 0.06534 0.0
H960 H 0.4776 0.1773 0.03779 0.0
H961 H 0.54264 0.1981 0.06141 0.0
H962 H 0.57031 0.2106 0.08534 0.0
H963 H 0.55842 0.1599 0.11478 0.0
H964 H 0.53048 0.14722 0.09122 0.0
H965 H 0.50315 0.08855 0.99192 0.0
H966 H 0.50405 0.12285 0.00195 0.0
H967 H 0.4915 0.10819 0.05795 0.0
H968 H 0.4884 0.07407 0.04747 0.0
H969 H 0.52585 0.13681 0.05521 0.0
H970 H 0.45813 0.11841 0.03078 0.0
H971 H 0.43151 0.10736 0.00546 0.0
H972 H 0.45121 0.1552 0.97439 0.0
H973 H 0.47816 0.16643 -0.00052 0.0
C974 C 0.50321 0.20975 0.09964 0.0
C975 C 0.50263 0.22725 0.09175 0.0
C976 C 0.50283 0.19297 0.08791 0.0
C977 C 0.50236 0.19338 0.06806 0.0
C978 C 0.50123 0.21071 0.06002 0.0
C979 C 0.5013 0.22756 0.0718 0.0
C980 C 0.50317 0.17555 0.05602 0.0
C981 C 0.48838 0.16862 0.0413 0.0
C982 C 0.51738 0.16434 0.06047 0.0
C983 C 0.53439 0.17174 0.07456 0.0
C984 C 0.54586 0.18965 0.07304 0.0
C985 C 0.5616 0.19677 0.08654 0.0
C986 C 0.56611 0.18606 0.10158 0.0
C987 C 0.55492 0.16818 0.10311 0.0
C988 C 0.53914 0.161 0.08967 0.0
C989 C 0.49983 0.09273 0.00612 0.0
C990 C 0.49544 0.07882 0.0189 0.0
C991 C 0.50047 0.1122 0.01183 0.0
C992 C 0.49748 0.11787 0.03059 0.0
C993 C 0.49313 0.10395 0.04327 0.0
C994 C 0.49151 0.08452 0.0373 0.0
C995 C 0.49986 0.1383 0.03769 0.0
C996 C 0.51535 0.14573 0.05144 0.0
C997 C 0.48655 0.15004 0.03201 0.0
C998 C 0.47034 0.14315 0.01694 0.0
C999 C 0.45693 0.1265 0.0185 0.0
C1000 C 0.44174 0.12021 0.00419 0.0
C1001 C 0.4397 0.13053 0.98829 0.0
C1002 C 0.45282 0.14719 0.9867 0.0
C1003 C 0.46806 0.15353 0.00097 0.0
H1004 H 0.42791 0.12565 0.97723 0.0
H1005 H 0.57829 0.19161 0.11203 0.0
H1006 H 0.08524 0.30327 0.40003 0.0
H1007 H 0.11086 0.31142 0.37964 0.0
H1008 H 0.1197 0.25254 0.37616 0.0
H1009 H 0.09377 0.24431 0.39605 0.0
H1010 H 0.15454 0.28289 0.37544 0.0
H1011 H 0.08764 0.26021 0.34623 0.0
H1012 H 0.05361 0.26356 0.34344 0.0
H1013 H 0.06872 0.32132 0.32845 0.0
H1014 H 0.1029 0.31839 0.33152 0.0
H1015 H 0.17601 0.24269 0.29166 0.0
H1016 H 0.15524 0.24973 0.31581 0.0
H1017 H 0.15863 0.30762 0.29981 0.0
H1018 H 0.17954 0.30066 0.2755 0.0
H1019 H 0.1207 0.28763 0.31162 0.0
H1020 H 0.18659 0.30731 0.33223 0.0
H1021 H 0.22083 0.30514 0.33588 0.0
H1022 H 0.20891 0.25574 0.36719 0.0
H1023 H 0.17453 0.25763 0.36371 0.0
C1024 C 0.09336 0.29235 0.39566 0.0
C1025 C 0.08785 0.27324 0.39963 0.0
C1026 C 0.10788 0.29699 0.384 0.0
C1027 C 0.11703 0.28254 0.37641 0.0
C1028 C 0.11286 0.26388 0.38206 0.0
C1029 C 0.09811 0.25918 0.39339 0.0
C1030 C 0.12783 0.28555 0.35982 0.0
C1031 C 0.14726 0.28412 0.36152 0.0
C1032 C 0.11834 0.28766 0.34178 0.0
C1033 C 0.09779 0.28916 0.33929 0.0
C1034 C 0.0837 0.27365 0.34244 0.0
C1035 C 0.0644 0.27546 0.34081 0.0
C1036 C 0.05901 0.29265 0.33581 0.0
C1037 C 0.07291 0.30802 0.33235 0.0
C1038 C 0.09225 0.3063 0.33404 0.0
C1039 C 0.17177 0.25669 0.29279 0.0
C1040 C 0.17956 0.27123 0.28198 0.0
C1041 C 0.16 0.26072 0.30663 0.0
C1042 C 0.15581 0.27928 0.30974 0.0
C1043 C 0.16184 0.29325 0.29759 0.0
C1044 C 0.17373 0.28924 0.28374 0.0
C1045 C 0.14725 0.28436 0.32717 0.0
C1046 C 0.12822 0.28714 0.32561 0.0
C1047 C 0.15722 0.28382 0.34537 0.0
C1048 C 0.17793 0.28262 0.34768 0.0
C1049 C 0.19124 0.29596 0.33986 0.0
C1050 C 0.21069 0.2948 0.34192 0.0
C1051 C 0.21705 0.28034 0.35181 0.0
C1052 C 0.20396 0.267 0.35962 0.0
C1053 C 0.18449 0.26815 0.35766 0.0
H1054 H 0.23212 0.27953 0.3535 0.0
H1055 H 0.04406 0.29404 0.33459 0.0
H1056 H 0.86279 0.04144 0.16431 0.0
H1057 H 0.88099 0.03742 0.13697 0.0
H1058 H 0.92435 0.0853 0.16156 0.0
H1059 H 0.90657 0.08899 0.18906 0.0
H1060 H 0.8965 0.05784 0.1095 0.0
H1061 H 0.96761 0.07273 0.15982 0.0
H1062 H 0.97836 0.07137 0.19384 0.0
H1063 H 0.92945 0.02803 0.19818 0.0
H1064 H 0.91862 0.02886 0.16411 0.0
H1065 H 0.9754 0.0689 0.05596 0.0
H1066 H 0.95296 0.0728 0.07938 0.0
H1067 H 0.96212 0.01978 0.10155 0.0
H1068 H 0.98464 0.01563 0.07819 0.0
H1069 H 0.96195 0.04636 0.1297 0.0
H1070 H 0.92189 0.02173 0.07274 0.0
H1071 H 0.90758 0.01862 0.03925 0.0
H1072 H 0.8913 0.07407 0.0477 0.0
H1073 H 0.90581 0.07768 0.08118 0.0
C1074 C 0.87594 0.05141 0.16358 0.0
C1075 C 0.88348 0.06533 0.17886 0.0
C1076 C 0.88632 0.0491 0.148 0.0
C1077 C 0.90422 0.06077 0.14753 0.0
C1078 C 0.91076 0.07588 0.16188 0.0
C1079 C 0.90058 0.07802 0.17753 0.0
C1080 C 0.91704 0.05596 0.13332 0.0
C1081 C 0.91085 0.05541 0.11384 0.0
C1082 C 0.93547 0.05209 0.13909 0.0
C1083 C 0.94222 0.051 0.15945 0.0
C1084 C 0.95923 0.06282 0.168 0.0
C1085 C 0.96532 0.06215 0.1873 0.0
C1086 C 0.95456 0.04967 0.19818 0.0
C1087 C 0.93775 0.03773 0.18975 0.0
C1088 C 0.93163 0.03829 0.17045 0.0
C1089 C 0.97296 0.05824 0.06605 0.0
C1090 C 0.98191 0.04201 0.06531 0.0
C1091 C 0.95995 0.06041 0.07924 0.0
C1092 C 0.9557 0.04651 0.09197 0.0
C1093 C 0.96513 0.03064 0.09176 0.0
C1094 C 0.97805 0.02834 0.07845 0.0
C1095 C 0.94169 0.0488 0.10576 0.0
C1096 C 0.94765 0.04884 0.12525 0.0
C1097 C 0.92287 0.05166 0.09991 0.0
C1098 C 0.91505 0.05002 0.07948 0.0
C1099 C 0.91547 0.03337 0.06742 0.0
C1100 C 0.90722 0.03146 0.04846 0.0
C1101 C 0.89836 0.04604 0.04142 0.0
C1102 C 0.898 0.0627 0.05323 0.0
C1103 C 0.90626 0.06469 0.0722 0.0
H1104 H 0.89197 0.04454 0.02674 0.0
H1105 H 0.95927 0.04922 0.21313 0.0
H1106 H 0.2902 0.72696 0.46814 0.0
H1107 H 0.28543 0.74223 0.43857 0.0
H1108 H 0.28253 0.6877 0.40568 0.0
H1109 H 0.28764 0.67244 0.43512 0.0
H1110 H 0.30251 0.71509 0.38912 0.0
H1111 H 0.24176 0.70568 0.41352 0.0
H1112 H 0.21914 0.70796 0.43755 0.0
H1113 H 0.23192 0.76962 0.44054 0.0
H1114 H 0.25482 0.7677 0.4167 0.0
H1115 H 0.2383 0.75902 0.31435 0.0
H1116 H 0.24187 0.74051 0.34211 0.0
H1117 H 0.29983 0.77093 0.35635 0.0
H1118 H 0.29636 0.78922 0.32867 0.0
H1119 H 0.24993 0.75256 0.38043 0.0
H1120 H 0.32733 0.73851 0.37335 0.0
H1121 H 0.34788 0.73309 0.34803 0.0
H1122 H 0.29814 0.7137 0.30765 0.0
H1123 H 0.27726 0.7185 0.3328 0.0
C1124 C 0.2887 0.71825 0.45461 0.0
C1125 C 0.28924 0.69847 0.45401 0.0
C1126 C 0.28586 0.72698 0.43771 0.0
C1127 C 0.28331 0.71606 0.41987 0.0
C1128 C 0.2844 0.69643 0.41924 0.0
C1129 C 0.28731 0.68771 0.43611 0.0
C1130 C 0.27925 0.72503 0.40189 0.0
C1131 C 0.29104 0.72331 0.38725 0.0
C1132 C 0.26395 0.73533 0.39918 0.0
C1133 C 0.25013 0.73654 0.41345 0.0
C1134 C 0.23985 0.71972 0.4194 0.0
C1135 C 0.22696 0.72095 0.43297 0.0
C1136 C 0.22413 0.73892 0.4406 0.0
C1137 C 0.23414 0.75571 0.43463 0.0
C1138 C 0.24707 0.75456 0.42108 0.0
C1139 C 0.25181 0.76161 0.32337 0.0
C1140 C 0.2671 0.7754 0.31933 0.0
C1141 C 0.2538 0.75115 0.33926 0.0
C1142 C 0.27118 0.75423 0.3512 0.0
C1143 C 0.28637 0.76816 0.34722 0.0
C1144 C 0.28434 0.77867 0.33147 0.0
C1145 C 0.27353 0.74307 0.36795 0.0
C1146 C 0.26141 0.74435 0.38233 0.0
C1147 C 0.28828 0.73204 0.37024 0.0
C1148 C 0.30072 0.72906 0.35497 0.0
C1149 C 0.32076 0.73302 0.35909 0.0
C1150 C 0.33247 0.73005 0.34476 0.0
C1151 C 0.32432 0.7231 0.32625 0.0
C1152 C 0.30444 0.71912 0.322 0.0
C1153 C 0.29265 0.72197 0.33629 0.0
H1154 H 0.33342 0.72067 0.31524 0.0
H1155 H 0.21414 0.73984 0.4511 0.0
H1156 H 0.56465 0.99236 0.72212 0.0
H1157 H 0.55122 0.99663 0.69 0.0
H1158 H 0.60066 0.97985 0.66713 0.0
H1159 H 0.61463 0.97667 0.69949 0.0
H1160 H 0.59309 0.00806 0.65031 0.0
H1161 H 0.55381 0.94985 0.66233 0.0
H1162 H 0.53258 0.92807 0.67987 0.0
H1163 H 0.49088 0.96527 0.67635 0.0
H1164 H 0.51196 0.98741 0.659 0.0
H1165 H 0.54926 0.99609 0.55384 0.0
H1166 H 0.56275 0.98942 0.58519 0.0
H1167 H 0.52193 0.01815 0.61183 0.0
H1168 H 0.50861 0.02528 0.58051 0.0
H1169 H 0.52532 0.98261 0.62565 0.0
H1170 H 0.56699 0.04091 0.61342 0.0
H1171 H 0.58851 0.06031 0.59414 0.0
H1172 H 0.62617 0.01897 0.59595 0.0
H1173 H 0.60477 0.99921 0.61509 0.0
C1174 C 0.57257 0.9894 0.71022 0.0
C1175 C 0.59065 0.98409 0.71329 0.0
C1176 C 0.56482 0.99175 0.6918 0.0
C1177 C 0.5747 0.98823 0.67595 0.0
C1178 C 0.5927 0.98267 0.67904 0.0
C1179 C 0.60065 0.98076 0.69753 0.0
C1180 C 0.56662 0.99107 0.65631 0.0
C1181 C 0.57835 0.00218 0.64487 0.0
C1182 C 0.5473 0.98367 0.6491 0.0
C1183 C 0.53455 0.97038 0.65951 0.0
C1184 C 0.54017 0.95346 0.66542 0.0
C1185 C 0.52815 0.94104 0.67531 0.0
C1186 C 0.51042 0.94531 0.67927 0.0
C1187 C 0.50463 0.96199 0.6733 0.0
C1188 C 0.5166 0.97447 0.66341 0.0
C1189 C 0.54336 0.0013 0.56635 0.0
C1190 C 0.52809 0.01155 0.56465 0.0
C1191 C 0.551 0.99734 0.58427 0.0
C1192 C 0.54346 0.00345 0.60086 0.0
C1193 C 0.52797 0.01333 0.5992 0.0
C1194 C 0.52041 0.01742 0.58129 0.0
C1195 C 0.55176 -0.0004 0.61994 0.0
C1196 C 0.54007 0.98833 0.63119 0.0
C1197 C 0.57119 0.00648 0.6268 0.0
C1198 C 0.58422 0.01853 0.61558 0.0
C1199 C 0.57982 0.03591 0.60963 0.0
C1200 C 0.592 0.04699 0.59875 0.0
C1201 C 0.6087 0.04089 0.59385 0.0
C1202 C 0.61325 0.02369 0.5998 0.0
C1203 C 0.60112 0.01257 0.61069 0.0
H1204 H 0.61812 0.04948 0.58542 0.0
H1205 H 0.50113 0.93568 0.68692 0.0
H1206 H 0.19671 0.37947 0.94022 0.0
H1207 H 0.19294 0.35415 0.91423 0.0
H1208 H 0.19357 0.31166 0.95476 0.0
H1209 H 0.19783 0.33709 0.98097 0.0
H1210 H 0.22095 0.31041 0.93386 0.0
H1211 H 0.15486 0.30642 0.91835 0.0
H1212 H 0.12389 0.31741 0.91319 0.0
H1213 H 0.14363 0.3486 0.8671 0.0
H1214 H 0.17491 0.33834 0.87243 0.0
H1215 H 0.24477 0.26635 0.84606 0.0
H1216 H 0.22539 0.26932 0.87278 0.0
H1217 H 0.22167 0.32755 0.86107 0.0
H1218 H 0.24098 0.32474 0.83473 0.0
H1219 H 0.18666 0.30664 0.86888 0.0
H1220 H 0.25518 0.3196 0.89449 0.0
H1221 H 0.28672 0.30987 0.90037 0.0
H1222 H 0.26137 0.26174 0.92827 0.0
H1223 H 0.22963 0.27112 0.92235 0.0
C1224 C 0.19551 0.3647 0.94363 0.0
C1225 C 0.19806 0.36034 0.96263 0.0
C1226 C 0.19309 0.35014 0.92871 0.0
C1227 C 0.19291 0.33094 0.93252 0.0
C1228 C 0.19367 0.32637 0.9515 0.0
C1229 C 0.19624 0.34095 0.96645 0.0
C1230 C 0.19625 0.31689 0.91714 0.0
C1231 C 0.21296 0.30892 0.91981 0.0
C1232 C 0.18593 0.31493 0.89879 0.0
C1233 C 0.1672 0.32141 0.89564 0.0
C1234 C 0.15264 0.31571 0.90718 0.0
C1235 C 0.13505 0.32188 0.90428 0.0
C1236 C 0.13179 0.33369 0.88982 0.0
C1237 C 0.14614 0.33941 0.87827 0.0
C1238 C 0.16379 0.33337 0.88119 0.0
C1239 C 0.23994 0.2798 0.8494 0.0
C1240 C 0.24462 0.29544 0.83865 0.0
C1241 C 0.22872 0.28139 0.86443 0.0
C1242 C 0.22202 0.2986 0.86873 0.0
C1243 C 0.22655 0.31409 0.85783 0.0
C1244 C 0.23784 0.31258 0.843 0.0
C1245 C 0.21187 0.30154 0.88564 0.0
C1246 C 0.19396 0.30731 0.88317 0.0
C1247 C 0.22103 0.3015 0.90424 0.0
C1248 C 0.24005 0.29588 0.90775 0.0
C1249 C 0.25633 0.30686 0.90175 0.0
C1250 C 0.27423 0.30143 0.90511 0.0
C1251 C 0.27603 0.28515 0.91462 0.0
C1252 C 0.25994 0.27431 0.92085 0.0
C1253 C 0.242 0.27967 0.91749 0.0
H1254 H 0.2899 0.28097 0.91723 0.0
H1255 H 0.11812 0.33836 0.88754 0.0
H1256 H 0.8916 0.06784 0.29789 0.0
H1257 H 0.90706 0.06994 0.33056 0.0
H1258 H 0.95796 0.05523 0.30916 0.0
H1259 H 0.94258 0.05282 0.27654 0.0
H1260 H 0.94567 0.03226 0.33508 0.0
H1261 H 0.95764 0.10014 0.33013 0.0
H1262 H 0.94947 0.13168 0.32375 0.0
H1263 H 0.91218 0.12816 0.36807 0.0
H1264 H 0.91991 0.09646 0.37453 0.0
H1265 H 0.00207 0.03953 0.42253 0.0
H1266 H 0.99093 0.04773 0.39093 0.0
H1267 H 0.93907 0.0603 0.41196 0.0
H1268 H 0.95038 0.05251 0.4438 0.0
H1269 H 0.95252 0.08562 0.38648 0.0
H1270 H 0.93876 0.01715 0.3898 0.0
H1271 H 0.94654 0.98548 0.39627 0.0
H1272 H 0.98671 0.99012 0.35459 0.0
H1273 H 0.97935 0.02197 0.34807 0.0
C1274 C 0.90618 0.06532 0.30012 0.0
C1275 C 0.91578 0.05994 0.28464 0.0
C1276 C 0.91503 0.06664 0.3188 0.0
C1277 C 0.93367 0.06279 0.32225 0.0
C1278 C 0.94355 0.05822 0.30678 0.0
C1279 C 0.93472 0.05682 0.28815 0.0
C1280 C 0.94215 0.06156 0.34193 0.0
C1281 C 0.9475 0.04407 0.34622 0.0
C1282 C 0.94392 0.07676 0.35656 0.0
C1283 C 0.93921 0.09582 0.35268 0.0
C1284 C 0.94756 0.106 0.3384 0.0
C1285 C 0.94304 0.12393 0.33479 0.0
C1286 C 0.93027 0.1319 0.34546 0.0
C1287 C 0.92204 0.12197 0.35979 0.0
C1288 C 0.92651 0.10402 0.36345 0.0
C1289 C 0.98839 0.04425 0.42044 0.0
C1290 C 0.97691 0.04513 0.43541 0.0
C1291 C 0.98207 0.04894 0.40244 0.0
C1292 C 0.96406 0.0543 0.39909 0.0
C1293 C 0.95299 0.05614 0.41429 0.0
C1294 C 0.95939 0.05158 0.43238 0.0
C1295 C 0.95619 0.05644 0.37944 0.0
C1296 C 0.95083 0.07395 0.37522 0.0
C1297 C 0.95431 0.04124 0.36479 0.0
C1298 C 0.95864 0.02202 0.36859 0.0
C1299 C 0.94935 0.01148 0.38212 0.0
C1300 C 0.95367 0.99349 0.38578 0.0
C1301 C 0.96715 0.98582 0.37588 0.0
C1302 C 0.9763 0.9961 0.36226 0.0
C1303 C 0.97205 0.01411 0.35857 0.0
H1304 H 0.97048 0.97188 0.37874 0.0
H1305 H 0.9268 0.14578 0.34265 0.0
H1306 H 0.31353 0.68071 0.58875 0.0
H1307 H 0.31212 0.70004 0.61858 0.0
H1308 H 0.27635 0.73393 0.58837 0.0
H1309 H 0.27887 0.7153 0.55823 0.0
H1310 H 0.29627 0.75617 0.61544 0.0
H1311 H 0.25878 0.6938 0.61337 0.0
H1312 H 0.25047 0.65842 0.61061 0.0
H1313 H 0.29024 0.65666 0.65977 0.0
H1314 H 0.2991 0.69202 0.6626 0.0
H1315 H 0.24748 0.77753 0.69803 0.0
H1316 H 0.25622 0.76632 0.66699 0.0
H1317 H 0.3047 0.74653 0.69496 0.0
H1318 H 0.29617 0.75769 0.72607 0.0
H1319 H 0.27869 0.71843 0.66925 0.0
H1320 H 0.31356 0.7831 0.67089 0.0
H1321 H 0.31689 0.81844 0.6739 0.0
H1322 H 0.27505 0.81518 0.6253 0.0
H1323 H 0.27126 0.77978 0.62217 0.0
C1324 C 0.30577 0.69261 0.58844 0.0
C1325 C 0.29629 0.69652 0.57124 0.0
C1326 C 0.30476 0.70353 0.60553 0.0
C1327 C 0.29356 0.71808 0.60595 0.0
C1328 C 0.28497 0.72272 0.58854 0.0
C1329 C 0.28645 0.71211 0.5713 0.0
C1330 C 0.29004 0.72764 0.62458 0.0
C1331 C 0.29221 0.74783 0.6271 0.0
C1332 C 0.28474 0.71692 0.63999 0.0
C1333 C 0.27984 0.69558 0.638 0.0
C1334 C 0.26595 0.68587 0.62344 0.0
C1335 C 0.26111 0.66581 0.62189 0.0
C1336 C 0.26988 0.65529 0.63495 0.0
C1337 C 0.28352 0.66482 0.64961 0.0
C1338 C 0.28848 0.68487 0.65117 0.0
C1339 C 0.26014 0.771 0.69762 0.0
C1340 C 0.27104 0.76842 0.71462 0.0
C1341 C 0.26517 0.76471 0.67983 0.0
C1342 C 0.28114 0.75566 0.67867 0.0
C1343 C 0.29237 0.75357 0.69554 0.0
C1344 C 0.28744 0.75995 0.71333 0.0
C1345 C 0.28506 0.74672 0.66007 0.0
C1346 C 0.28284 0.72664 0.65756 0.0
C1347 C 0.28963 0.75748 0.6446 0.0
C1348 C 0.292 0.77877 0.6464 0.0
C1349 C 0.30494 0.7899 0.66094 0.0
C1350 C 0.30694 0.80995 0.66265 0.0
C1351 C 0.29615 0.81905 0.64983 0.0
C1352 C 0.28338 0.80811 0.63524 0.0
C1353 C 0.28132 0.78806 0.63348 0.0
H1354 H 0.29772 0.83457 0.65118 0.0
H1355 H 0.26607 0.63977 0.63376 0.0
H1356 H 0.60298 0.99915 0.83874 0.0
H1357 H 0.59089 0.00141 0.87002 0.0
H1358 H 0.53294 0.99104 0.84232 0.0
H1359 H 0.54505 0.98992 0.81122 0.0
H1360 H 0.53598 0.01919 0.86679 0.0
H1361 H 0.55485 0.95715 0.86932 0.0
H1362 H 0.57672 0.93364 0.86841 0.0
H1363 H 0.61343 0.96664 0.91544 0.0
H1364 H 0.5919 0.99049 0.91648 0.0
H1365 H 0.48466 0.99286 0.94559 0.0
H1366 H 0.50124 0.9893 0.91702 0.0
H1367 H 0.55203 0.02554 0.94619 0.0
H1368 H 0.53526 0.0296 0.97457 0.0
H1369 H 0.55475 0.98604 0.92302 0.0
H1370 H 0.53443 0.04781 0.91972 0.0
H1371 H 0.51067 0.06936 0.92104 0.0
H1372 H 0.47476 0.03399 0.87492 0.0
H1373 H 0.49819 0.01205 0.87354 0.0
C1374 C 0.58766 0.99708 0.83941 0.0
C1375 C 0.57494 0.99444 0.82259 0.0
C1376 C 0.58074 0.9983 0.8573 0.0
C1377 C 0.56094 0.99633 0.85865 0.0
C1378 C 0.54827 0.99281 0.84176 0.0
C1379 C 0.55519 0.99208 0.82396 0.0
C1380 C 0.55327 0.99917 0.87738 0.0
C1381 C 0.54 0.01169 0.87894 0.0
C1382 C 0.55881 0.98992 0.89357 0.0
C1383 C 0.57187 0.97572 0.89282 0.0
C1384 C 0.56768 0.95949 0.87935 0.0
C1385 C 0.57999 0.94608 0.87884 0.0
C1386 C 0.59648 0.94867 0.89182 0.0
C1387 C 0.60067 0.96467 0.90537 0.0
C1388 C 0.58841 0.97813 0.90593 0.0
C1389 C 0.49934 0.0001 0.94588 0.0
C1390 C 0.50867 0.0117 0.96221 0.0
C1391 C 0.50879 0.998 0.92961 0.0
C1392 C 0.52783 0.00714 0.92957 0.0
C1393 C 0.53734 0.01835 0.946 0.0
C1394 C 0.52774 0.02079 0.96213 0.0
C1395 C 0.53738 0.00559 0.91198 0.0
C1396 C 0.55093 0.99345 0.91075 0.0
C1397 C 0.53198 0.01496 0.89597 0.0
C1398 C 0.51795 0.02819 0.89667 0.0
C1399 C 0.52137 0.04453 0.90999 0.0
C1400 C 0.50799 0.05683 0.91073 0.0
C1401 C 0.49119 0.05302 0.89811 0.0
C1402 C 0.48777 0.03691 0.8847 0.0
C1403 C 0.5011 0.02455 0.88393 0.0
H1404 H 0.48085 0.06256 0.8987 0.0
H1405 H 0.60598 0.93826 0.89142 0.0
H1406 H 0.19516 0.33567 0.05958 0.0
H1407 H 0.19566 0.3148 0.08563 0.0
H1408 H 0.24996 0.34801 0.11042 0.0
H1409 H 0.24942 0.36918 0.08466 0.0
H1410 H 0.24604 0.30507 0.1075 0.0
H1411 H 0.21449 0.35848 0.12862 0.0
H1412 H 0.18917 0.37817 0.1249 0.0
H1413 H 0.14612 0.32766 0.12356 0.0
H1414 H 0.17123 0.30764 0.12703 0.0
H1415 H 0.26814 0.29988 0.20352 0.0
H1416 H 0.26059 0.30724 0.17106 0.0
H1417 H 0.20187 0.27971 0.17171 0.0
H1418 H 0.20924 0.27296 0.20487 0.0
H1419 H 0.20243 0.31189 0.15732 0.0
H1420 H 0.23316 0.25938 0.1438 0.0
H1421 H 0.25754 0.23864 0.14743 0.0
H1422 H 0.3003 0.28387 0.13301 0.0
H1423 H 0.27627 0.30502 0.12957 0.0
C1424 C 0.20724 0.33847 0.07055 0.0
C1425 C 0.22222 0.35408 0.07022 0.0
C1426 C 0.20749 0.32654 0.08534 0.0
C1427 C 0.22286 0.32992 0.09978 0.0
C1428 C 0.23805 0.3452 0.09925 0.0
C1429 C 0.23765 0.35732 0.08466 0.0
C1430 C 0.22277 0.31826 0.11612 0.0
C1431 C 0.23656 0.30646 0.11846 0.0
C1432 C 0.20973 0.31949 0.1298 0.0
C1433 C 0.1947 0.33155 0.12782 0.0
C1434 C 0.19962 0.35156 0.12735 0.0
C1435 C 0.18532 0.36278 0.12533 0.0
C1436 C 0.16605 0.35416 0.12392 0.0
C1437 C 0.16105 0.33431 0.1246 0.0
C1438 C 0.17531 0.32302 0.1266 0.0
C1439 C 0.25364 0.29517 0.19673 0.0
C1440 C 0.23928 0.28577 0.20669 0.0
C1441 C 0.24938 0.29924 0.17806 0.0
C1442 C 0.23077 0.29357 0.16874 0.0
C1443 C 0.21636 0.28404 0.17859 0.0
C1444 C 0.22057 0.28023 0.1975 0.0
C1445 C 0.22635 0.29919 0.1493 0.0
C1446 C 0.21164 0.30988 0.14624 0.0
C1447 C 0.23834 0.29659 0.13478 0.0
C1448 C 0.25287 0.28382 0.13647 0.0
C1449 C 0.24777 0.26495 0.14148 0.0
C1450 C 0.26154 0.25311 0.1435 0.0
C1451 C 0.28046 0.25994 0.14047 0.0
C1452 C 0.28563 0.2786 0.13534 0.0
C1453 C 0.27193 0.2905 0.1333 0.0
H1454 H 0.2911 0.25077 0.14208 0.0
H1455 H 0.15499 0.36287 0.12236 0.0
H1456 H 0.1791 0.94596 0.03291 0.0
H1457 H 0.15255 0.96333 0.03467 0.0
H1458 H 0.11517 0.91093 0.0434 0.0
H1459 H 0.14183 0.89319 0.04109 0.0
H1460 H 0.09727 0.93102 0.01932 0.0
H1461 H 0.13202 0.94565 0.08094 0.0
H1462 H 0.16046 0.95545 0.10455 0.0
H1463 H 0.17117 0.01084 0.08306 0.0
H1464 H 0.14295 0.00129 0.05913 0.0
H1465 H 0.02999 0.99477 0.04372 0.0
H1466 H 0.05083 0.97051 0.04722 0.0
H1467 H 0.09647 0.00863 0.02653 0.0
H1468 H 0.0756 0.03233 0.0222 0.0
H1469 H 0.10659 0.99197 0.06146 0.0
H1470 H 0.07365 0.97537 0.99785 0.0
H1471 H 0.04665 0.96441 0.97292 0.0
H1472 H 0.03203 0.91201 -0.00091 0.0
H1473 H 0.05907 0.92266 0.02421 0.0
C1474 C 0.16526 0.93808 0.03524 0.0
C1475 C 0.16261 0.91821 0.03702 0.0
C1476 C 0.15008 0.94807 0.03635 0.0
C1477 C 0.13193 0.93856 0.03962 0.0
C1478 C 0.12908 0.91861 0.04102 0.0
C1479 C 0.14431 0.90851 0.03972 0.0
C1480 C 0.11608 0.94964 0.04129 0.0
C1481 C 0.0991 0.94409 0.02889 0.0
C1482 C 0.11849 0.9668 0.05367 0.0
C1483 C 0.1354 0.9727 0.06817 0.0
C1484 C 0.1405 0.95988 0.08117 0.0
C1485 C 0.15658 0.9654 0.09463 0.0
C1486 C 0.16763 0.98375 0.09529 0.0
C1487 C 0.16259 0.99663 0.08253 0.0
C1488 C 0.14653 0.99119 0.06904 0.0
C1489 C 0.04438 0.99779 0.0397 0.0
C1490 C 0.05109 0.01526 0.03239 0.0
C1491 C 0.05628 0.98401 0.0418 0.0
C1492 C 0.07514 0.98778 0.03705 0.0
C1493 C 0.08196 0.00545 0.03028 0.0
C1494 C 0.07002 0.01898 0.02783 0.0
C1495 C 0.08812 0.97361 0.03913 0.0
C1496 C 0.10457 0.97862 0.05228 0.0
C1497 C 0.0851 0.95591 0.02757 0.0
C1498 C 0.06826 0.94994 0.01306 0.0
C1499 C 0.06453 0.96164 0.99846 0.0
C1500 C 0.04924 0.95545 0.98425 0.0
C1501 C 0.03751 0.93759 0.98449 0.0
C1502 C 0.04111 0.92586 -0.00107 0.0
C1503 C 0.05643 0.93196 0.01315 0.0
H1504 H 0.02568 0.93283 0.97346 0.0
H1505 H 0.18008 0.98799 0.10571 0.0
H1506 H 0.68785 0.63584 0.96926 0.0
H1507 H 0.65453 0.62269 0.97284 0.0
H1508 H 0.67212 0.57235 0.99456 0.0
H1509 H 0.7053 0.58512 0.99047 0.0
H1510 H 0.63973 0.56231 0.97252 0.0
H1511 H 0.6643 0.61046 0.02449 0.0
H1512 H 0.67956 0.64267 0.03948 0.0
H1513 H 0.63404 0.66719 0.01237 0.0
H1514 H 0.61866 0.63515 0.99698 0.0
H1515 H 0.56255 0.5312 0.02516 0.0
H1516 H 0.59444 0.54525 0.01776 0.0
H1517 H 0.57047 0.58784 0.98761 0.0
H1518 H 0.53846 0.57383 0.99484 0.0
H1519 H 0.60503 0.6024 0.01257 0.0
H1520 H 0.58 0.55227 0.96197 0.0
H1521 H 0.56528 0.51925 0.9489 0.0
H1522 H 0.61266 0.49757 0.97615 0.0
H1523 H 0.62753 0.53045 0.98962 0.0
C1524 C 0.68455 0.62185 0.97454 0.0
C1525 C 0.69917 0.61158 0.97975 0.0
C1526 C 0.66555 0.61441 0.97668 0.0
C1527 C 0.66091 0.59674 0.98436 0.0
C1528 C 0.67538 0.58605 0.98868 0.0
C1529 C 0.69435 0.59338 0.98635 0.0
C1530 C 0.64117 0.5897 0.98867 0.0
C1531 C 0.63222 0.57104 0.9814 0.0
C1532 C 0.63127 0.60118 9e-05 0.0
C1533 C 0.64044 0.62045 0.00941 0.0
C1534 C 0.65762 0.62275 0.02161 0.0
C1535 C 0.66628 0.64097 0.0302 0.0
C1536 C 0.6578 0.65698 0.02684 0.0
C1537 C 0.64061 0.65479 0.01493 0.0
C1538 C 0.63191 0.6366 0.00627 0.0
C1539 C 0.56408 0.54366 0.01711 0.0
C1540 C 0.54801 0.55133 0.01044 0.0
C1541 C 0.58227 0.55161 0.01284 0.0
C1542 C 0.58469 0.56741 0.00199 0.0
C1543 C 0.56881 0.57557 0.99594 0.0
C1544 C 0.55057 0.5675 1e-05 0.0
C1545 C 0.60376 0.57505 0.9965 0.0
C1546 C 0.61254 0.59379 0.00358 0.0
C1547 C 0.61363 0.56356 0.98517 0.0
C1548 C 0.60479 0.5438 0.97694 0.0
C1549 C 0.5872 0.54044 0.9653 0.0
C1550 C 0.57885 0.52176 0.9578 0.0
C1551 C 0.588 0.50632 0.96173 0.0
C1552 C 0.60557 0.50954 0.97313 0.0
C1553 C 0.61398 0.5282 0.98069 0.0
H1554 H 0.58151 0.49186 0.95591 0.0
H1555 H 0.66453 0.67107 0.0335 0.0
H1556 H 0.70384 0.47174 0.30345 0.0
H1557 H 0.72352 0.44653 0.30132 0.0
H1558 H 0.6797 0.41195 0.26062 0.0
H1559 H 0.65951 0.43629 0.26403 0.0
H1560 H 0.69149 0.38965 0.28197 0.0
H1561 H 0.72457 0.43915 0.24895 0.0
H1562 H 0.74095 0.47173 0.24436 0.0
H1563 H 0.78361 0.46917 0.29082 0.0
H1564 H 0.76735 0.43665 0.29585 0.0
H1565 H 0.75308 0.32943 0.2418 0.0
H1566 H 0.73505 0.35601 0.2448 0.0
H1567 H 0.7637 0.37327 0.30155 0.0
H1568 H 0.78049 0.34582 0.29919 0.0
H1569 H 0.7603 0.40386 0.27261 0.0
H1570 H 0.72601 0.35164 0.30251 0.0
H1571 H 0.7069 0.3204 0.30666 0.0
H1572 H 0.66556 0.32714 0.26089 0.0
H1573 H 0.6842 0.35889 0.25654 0.0
C1574 C 0.69844 0.45865 0.2942 0.0
C1575 C 0.68015 0.45587 0.28401 0.0
C1576 C 0.70975 0.44432 0.29281 0.0
C1577 C 0.70328 0.42734 0.28057 0.0
C1578 C 0.68501 0.42474 0.27032 0.0
C1579 C 0.67348 0.4387 0.27223 0.0
C1580 C 0.71517 0.412 0.27862 0.0
C1581 C 0.70644 0.39282 0.27956 0.0
C1582 C 0.73483 0.416 0.27585 0.0
C1583 C 0.74463 0.43555 0.2729 0.0
C1584 C 0.73737 0.44559 0.25828 0.0
C1585 C 0.74664 0.46404 0.25558 0.0
C1586 C 0.76328 0.47254 0.26733 0.0
C1587 C 0.7707 0.46258 0.28176 0.0
C1588 C 0.76148 0.44414 0.28453 0.0
C1589 C 0.75514 0.33865 0.25504 0.0
C1590 C 0.76751 0.33517 0.27052 0.0
C1591 C 0.74509 0.35394 0.25664 0.0
C1592 C 0.74788 0.36635 0.27351 0.0
C1593 C 0.76127 0.36371 0.28849 0.0
C1594 C 0.77089 0.3481 0.28709 0.0
C1595 C 0.73643 0.38177 0.27571 0.0
C1596 C 0.74528 0.40086 0.27483 0.0
C1597 C 0.71673 0.37764 0.27795 0.0
C1598 C 0.70651 0.35779 0.27927 0.0
C1599 C 0.71296 0.3465 0.29316 0.0
C1600 C 0.70219 0.32867 0.29557 0.0
C1601 C 0.6851 0.32172 0.28397 0.0
C1602 C 0.67872 0.33266 0.26993 0.0
C1603 C 0.68935 0.35059 0.26752 0.0
H1604 H 0.6768 0.30786 0.28585 0.0
H1605 H 0.77044 0.48682 0.26521 0.0
H1606 H 0.76735 0.46244 0.5146 0.0
H1607 H 0.80153 0.47431 0.51588 0.0
H1608 H 0.81351 0.42676 0.54669 0.0
H1609 H 0.77901 0.41443 0.54533 0.0
H1610 H 0.83739 0.46734 0.55921 0.0
H1611 H 0.81828 0.41922 0.50558 0.0
H1612 H 0.79706 0.40358 0.47708 0.0
H1613 H 0.80745 0.4557 0.44958 0.0
H1614 H 0.82849 0.47176 0.47806 0.0
H1615 H 0.93464 0.48356 0.53778 0.0
H1616 H 0.90232 0.46918 0.54376 0.0
H1617 H 0.87857 0.49952 0.49924 0.0
H1618 H 0.91093 0.51338 0.49286 0.0
H1619 H 0.86126 0.4641 0.49554 0.0
H1620 H 0.87869 0.51301 0.54859 0.0
H1621 H 0.89836 0.53032 0.57733 0.0
H1622 H 0.89079 0.47876 0.60594 0.0
H1623 H 0.87123 0.46106 0.57729 0.0
C1624 C 0.77714 0.45454 0.52189 0.0
C1625 C 0.77041 0.43732 0.52967 0.0
C1626 C 0.79669 0.46142 0.52264 0.0
C1627 C 0.80994 0.45133 0.53126 0.0
C1628 C 0.80341 0.43472 0.54 0.0
C1629 C 0.78373 0.42768 0.53913 0.0
C1630 C 0.83047 0.45742 0.52941 0.0
C1631 C 0.84282 0.46633 0.54541 0.0
C1632 C 0.83725 0.45643 0.51129 0.0
C1633 C 0.82483 0.44673 0.49402 0.0
C1634 C 0.81592 0.42739 0.49352 0.0
C1635 C 0.80394 0.41845 0.47736 0.0
C1636 C 0.80088 0.42866 0.46155 0.0
C1637 C 0.80983 0.44782 0.46185 0.0
C1638 C 0.8218 0.45684 0.47799 0.0
C1639 C 0.92247 0.48721 0.52939 0.0
C1640 C 0.92516 0.49955 0.51491 0.0
C1641 C 0.90403 0.47908 0.53287 0.0
C1642 C 0.88799 0.48346 0.52213 0.0
C1643 C 0.89073 0.49593 0.50771 0.0
C1644 C 0.90918 0.50385 0.50408 0.0
C1645 C 0.86834 0.4745 0.52529 0.0
C1646 C 0.85607 0.46498 0.50946 0.0
C1647 C 0.86168 0.4751 0.54357 0.0
C1648 C 0.8736 0.48567 0.56074 0.0
C1649 C 0.88133 0.50532 0.56096 0.0
C1650 C 0.8924 0.51522 0.57725 0.0
C1651 C 0.89573 0.50567 0.59348 0.0
C1652 C 0.8881 0.48616 0.5934 0.0
C1653 C 0.87702 0.47619 0.57714 0.0
H1654 H 0.90429 0.51337 0.60608 0.0
H1655 H 0.79159 0.42171 0.44905 0.0
H1656 H 0.3357 0.10062 0.23699 0.0
H1657 H 0.31831 0.12752 0.2378 0.0
H1658 H 0.37059 0.16651 0.25904 0.0
H1659 H 0.38813 0.13955 0.25842 0.0
H1660 H 0.3416 0.17432 0.27812 0.0
H1661 H 0.35253 0.16542 0.21324 0.0
H1662 H 0.35304 0.14798 0.18179 0.0
H1663 H 0.29178 0.13238 0.17602 0.0
H1664 H 0.29091 0.14951 0.20757 0.0
H1665 H 0.28145 0.2459 0.2337 0.0
H1666 H 0.30537 0.22486 0.2312 0.0
H1667 H 0.27987 0.19082 0.27317 0.0
H1668 H 0.25613 0.21188 0.27588 0.0
H1669 H 0.30033 0.18533 0.22086 0.0
H1670 H 0.31719 0.1789 0.30237 0.0
H1671 H 0.31863 0.19909 0.33267 0.0
H1672 H 0.32854 0.25007 0.30338 0.0
H1673 H 0.32772 0.23022 0.27298 0.0
C1674 C 0.34353 0.1149 0.24186 0.0
C1675 C 0.36332 0.11794 0.24759 0.0
C1676 C 0.33357 0.1303 0.24222 0.0
C1677 C 0.34318 0.14909 0.24824 0.0
C1678 C 0.36289 0.15215 0.25428 0.0
C1679 C 0.37289 0.13673 0.25389 0.0
C1680 C 0.33249 0.16541 0.24835 0.0
C1681 C 0.33266 0.17677 0.26558 0.0
C1682 C 0.32124 0.16904 0.23184 0.0
C1683 C 0.32168 0.15863 0.21287 0.0
C1684 C 0.33918 0.15813 0.20535 0.0
C1685 C 0.33953 0.14833 0.18748 0.0
C1686 C 0.32246 0.13904 0.17693 0.0
C1687 C 0.30499 0.13957 0.18421 0.0
C1688 C 0.30456 0.14935 0.20208 0.0
C1689 C 0.281 0.23391 0.24237 0.0
C1690 C 0.26704 0.23052 0.25505 0.0
C1691 C 0.29457 0.22187 0.24085 0.0
C1692 C 0.29444 0.20635 0.25206 0.0
C1693 C 0.28034 0.20283 0.26453 0.0
C1694 C 0.26673 0.21479 0.26599 0.0
C1695 C 0.3089 0.19363 0.25076 0.0
C1696 C 0.30945 0.18298 0.23333 0.0
C1697 C 0.32114 0.191 0.26695 0.0
C1698 C 0.32219 0.20303 0.28533 0.0
C1699 C 0.31981 0.19441 0.3024 0.0
C1700 C 0.32051 0.20581 0.31961 0.0
C1701 C 0.32359 0.22584 0.31995 0.0
C1702 C 0.32609 0.23455 0.3031 0.0
C1703 C 0.32552 0.22323 0.28587 0.0
H1704 H 0.32413 0.23462 0.33329 0.0
H1705 H 0.32276 0.13146 0.16309 0.0
H1706 H 0.30539 0.08167 0.52351 0.0
H1707 H 0.33693 0.0758 0.53526 0.0
H1708 H 0.36274 0.13134 0.52011 0.0
H1709 H 0.33116 0.13717 0.50783 0.0
H1710 H 0.38365 0.10566 0.51109 0.0
H1711 H 0.3586 0.12483 0.56704 0.0
H1712 H 0.33488 0.12655 0.59002 0.0
H1713 H 0.33385 0.06709 0.59874 0.0
H1714 H 0.35735 0.06491 0.57559 0.0
H1715 H 0.46721 0.07854 0.55194 0.0
H1716 H 0.44231 0.09791 0.55624 0.0
H1717 H 0.39933 0.04651 0.54752 0.0
H1718 H 0.42409 0.02704 0.54279 0.0
H1719 H 0.39214 0.08007 0.57422 0.0
H1720 H 0.41086 0.06198 0.50984 0.0
H1721 H 0.43629 0.0618 0.48851 0.0
H1722 H 0.45102 0.12334 0.49814 0.0
H1723 H 0.42575 0.12382 0.51966 0.0
C1724 C 0.31777 0.09258 0.5225 0.0
C1725 C 0.31578 0.10992 0.51483 0.0
C1726 C 0.33578 0.0893 0.52942 0.0
C1727 C 0.35209 0.1034 0.52909 0.0
C1728 C 0.35028 0.12039 0.52071 0.0
C1729 C 0.33225 0.12363 0.51361 0.0
C1730 C 0.37101 0.09989 0.53705 0.0
C1731 C 0.38567 0.10058 0.5251 0.0
C1732 C 0.3738 0.09352 0.55546 0.0
C1733 C 0.3597 0.09469 0.56949 0.0
C1734 C 0.35323 0.11208 0.57376 0.0
C1735 C 0.33983 0.11314 0.58683 0.0
C1736 C 0.33285 0.09694 0.59582 0.0
C1737 C 0.33928 0.07964 0.59177 0.0
C1738 C 0.35267 0.07849 0.5787 0.0
C1739 C 0.45251 0.07133 0.55162 0.0
C1740 C 0.44738 0.05141 0.54659 0.0
C1741 C 0.43839 0.08241 0.55419 0.0
C1742 C 0.41911 0.0736 0.55196 0.0
C1743 C 0.41422 0.05348 0.54933 0.0
C1744 C 0.42831 0.0424 0.54649 0.0
C1745 C 0.40406 0.08501 0.54788 0.0
C1746 C 0.39023 0.08582 0.56052 0.0
C1747 C 0.40218 0.09315 0.5303 0.0
C1748 C 0.41668 0.09291 0.51661 0.0
C1749 C 0.4196 0.07545 0.50748 0.0
C1750 C 0.43396 0.0753 0.49534 0.0
C1751 C 0.44533 0.09254 0.49204 0.0
C1752 C 0.44226 0.10999 0.50076 0.0
C1753 C 0.42792 0.11021 0.51294 0.0
H1754 H 0.45648 0.09239 0.48267 0.0
H1755 H 0.32248 0.09779 0.60593 0.0
H1756 H 0.68344 0.56346 0.29961 0.0
H1757 H 0.70136 0.59637 0.29971 0.0
H1758 H 0.65914 0.60814 0.25646 0.0
H1759 H 0.64103 0.57571 0.25657 0.0
H1760 H 0.69993 0.61869 0.24984 0.0
H1761 H 0.65555 0.62507 0.29754 0.0
H1762 H 0.64173 0.61708 0.32721 0.0
H1763 H 0.69715 0.63429 0.35916 0.0
H1764 H 0.71133 0.64212 0.3296 0.0
H1765 H 0.71699 0.71788 0.24306 0.0
H1766 H 0.70254 0.68472 0.2464 0.0
H1767 H 0.73483 0.68792 0.30179 0.0
H1768 H 0.74837 0.72158 0.29895 0.0
H1769 H 0.70229 0.66841 0.30391 0.0
H1770 H 0.74733 0.66424 0.25886 0.0
H1771 H 0.76333 0.6714 0.23017 0.0
H1772 H 0.71097 0.64866 0.19451 0.0
H1773 H 0.69457 0.64159 0.223 0.0
C1774 C 0.67803 0.57308 0.29012 0.0
C1775 C 0.66079 0.56702 0.27814 0.0
C1776 C 0.68823 0.59184 0.29023 0.0
C1777 C 0.68151 0.60463 0.2781 0.0
C1778 C 0.66454 0.59847 0.26591 0.0
C1779 C 0.65419 0.57995 0.26607 0.0
C1780 C 0.69195 0.62454 0.27799 0.0
C1781 C 0.70042 0.62963 0.2616 0.0
C1782 C 0.69309 0.63857 0.2936 0.0
C1783 C 0.68453 0.63394 0.31134 0.0
C1784 C 0.66481 0.62697 0.31086 0.0
C1785 C 0.65691 0.62251 0.32766 0.0
C1786 C 0.66857 0.62511 0.34505 0.0
C1787 C 0.68814 0.63224 0.34568 0.0
C1788 C 0.69612 0.6367 0.32891 0.0
C1789 C 0.72101 0.71148 0.25593 0.0
C1790 C 0.734 0.72219 0.27063 0.0
C1791 C 0.71283 0.69246 0.2578 0.0
C1792 C 0.71801 0.68349 0.2741 0.0
C1793 C 0.73068 0.69438 0.289 0.0
C1794 C 0.73847 0.7136 0.28735 0.0
C1795 C 0.71016 0.66283 0.27554 0.0
C1796 C 0.70214 0.65754 0.29218 0.0
C1797 C 0.70984 0.64847 0.26029 0.0
C1798 C 0.71969 0.65252 0.24309 0.0
C1799 C 0.7392 0.66086 0.2449 0.0
C1800 C 0.74834 0.6649 0.22868 0.0
C1801 C 0.73816 0.66053 0.21053 0.0
C1802 C 0.71883 0.65205 0.20857 0.0
C1803 C 0.70961 0.648 0.22476 0.0
H1804 H 0.74527 0.66367 0.19798 0.0
H1805 H 0.66242 0.62166 0.35804 0.0
H1806 H 0.84457 0.51928 0.74372 0.0
H1807 H 0.82232 0.4894 0.7464 0.0
H1808 H 0.86947 0.4584 0.74969 0.0
H1809 H 0.89172 0.48796 0.74681 0.0
H1810 H 0.81618 0.45247 0.72283 0.0
H1811 H 0.86137 0.42897 0.78585 0.0
H1812 H 0.88463 0.44372 0.81328 0.0
H1813 H 0.85929 0.49462 0.81477 0.0
H1814 H 0.83571 0.48006 0.78755 0.0
H1815 H 0.79732 0.35226 0.73481 0.0
H1816 H 0.81149 0.38558 0.73124 0.0
H1817 H 0.78402 0.40516 0.77901 0.0
H1818 H 0.76968 0.37178 0.78256 0.0
H1819 H 0.82331 0.41946 0.78184 0.0
H1820 H 0.76792 0.41392 0.73658 0.0
H1821 H 0.74494 0.39919 0.70899 0.0
H1822 H 0.78961 0.40675 0.67218 0.0
H1823 H 0.81297 0.42119 0.69962 0.0
C1824 C 0.85018 0.50608 0.74493 0.0
C1825 C 0.86992 0.506 0.74509 0.0
C1826 C 0.83745 0.48904 0.74637 0.0
C1827 C 0.84432 0.47179 0.74834 0.0
C1828 C 0.86394 0.47163 0.74828 0.0
C1829 C 0.87662 0.48854 0.74659 0.0
C1830 C 0.83117 0.45392 0.75096 0.0
C1831 C 0.81761 0.44526 0.73574 0.0
C1832 C 0.833 0.44472 0.76792 0.0
C1833 C 0.84687 0.45346 0.78456 0.0
C1834 C 0.8607 0.44327 0.7921 0.0
C1835 C 0.87395 0.4516 0.8076 0.0
C1836 C 0.87346 0.47011 0.81574 0.0
C1837 C 0.85969 0.4803 0.80842 0.0
C1838 C 0.8464 0.47203 0.79294 0.0
C1839 C 0.79413 0.36371 0.74439 0.0
C1840 C 0.78247 0.35953 0.75898 0.0
C1841 C 0.80216 0.38271 0.74229 0.0
C1842 C 0.79871 0.39781 0.7548 0.0
C1843 C 0.7868 0.39368 0.7692 0.0
C1844 C 0.7786 0.37467 0.77118 0.0
C1845 C 0.80855 0.41773 0.75353 0.0
C1846 C 0.82163 0.42674 0.76899 0.0
C1847 C 0.80626 0.42721 0.73678 0.0
C1848 C 0.79224 0.41854 0.72022 0.0
C1849 C 0.77289 0.4123 0.72264 0.0
C1850 C 0.75979 0.40402 0.70701 0.0
C1851 C 0.76581 0.40206 0.68884 0.0
C1852 C 0.78496 0.40834 0.68626 0.0
C1853 C 0.79814 0.41657 0.70185 0.0
H1854 H 0.75564 0.39565 0.67676 0.0
H1855 H 0.88372 0.47652 0.82774 0.0
H1856 H 0.00016 0.80568 0.08981 0.0
H1857 H -0.00125 0.83128 0.06863 0.0
H1858 H 0.97248 0.86269 0.11035 0.0
H1859 H 0.97408 0.83728 0.13176 0.0
H1860 H 0.95517 0.86079 0.07118 0.0
H1861 H 0.0176 0.8755 0.10883 0.0
H1862 H 0.04896 0.86814 0.12076 0.0
H1863 H 0.06298 0.86026 0.06327 0.0
H1864 H 0.03156 0.86729 0.05098 0.0
H1865 H 0.96728 0.95607 0.04845 0.0
H1866 H 0.9656 0.92541 0.06204 0.0
H1867 H 0.00677 0.90947 0.02551 0.0
H1868 H 0.00929 0.94096 0.01272 0.0
H1869 H 0.01609 0.90024 0.05814 0.0
H1870 H 0.95637 0.88808 0.01959 0.0
H1871 H 0.92502 0.89404 0.0059 0.0
H1872 H 0.90534 0.89475 0.06145 0.0
H1873 H 0.93666 0.88906 0.07554 0.0
C1874 C 0.99394 0.81796 0.09442 0.0
C1875 C 0.98729 0.81952 0.11249 0.0
C1876 C 0.99319 0.83257 0.08231 0.0
C1877 C 0.98561 0.84888 0.08799 0.0
C1878 C 0.97837 0.85019 0.10573 0.0
C1879 C 0.97935 0.83571 0.11796 0.0
C1880 C 0.98589 0.86499 0.07581 0.0
C1881 C 0.96844 0.86954 0.06838 0.0
C1882 C 0.00324 0.87583 0.07157 0.0
C1883 C 0.02214 0.87168 0.07898 0.0
C1884 C 0.02729 0.87201 0.09873 0.0
C1885 C 0.04509 0.86794 0.10556 0.0
C1886 C 0.05793 0.86367 0.09278 0.0
C1887 C 0.05301 0.86352 0.07315 0.0
C1888 C 0.03521 0.86756 0.06624 0.0
C1889 C 0.97578 0.94592 0.04313 0.0
C1890 C 0.98835 0.95076 0.02947 0.0
C1891 C 0.97471 0.92827 0.05081 0.0
C1892 C 0.98571 0.9148 0.04454 0.0
C1893 C -0.00196 0.91952 0.03055 0.0
C1894 C -0.00056 0.93744 0.02318 0.0
C1895 C 0.98526 0.89647 0.05363 0.0
C1896 C 0.00271 0.89142 0.06056 0.0
C1897 C 0.96786 0.88492 0.05706 0.0
C1898 C 0.94894 0.88825 0.04864 0.0
C1899 C 0.9454 0.88962 0.02891 0.0
C1900 C 0.92763 0.89294 0.02108 0.0
C1901 C 0.91321 0.89481 0.0328 0.0
C1902 C 0.91652 0.89331 0.05239 0.0
C1903 C 0.93428 0.89 0.0603 0.0
H1904 H 0.89946 0.89739 0.02671 0.0
H1905 H 0.07171 0.86052 0.09809 0.0
H1906 H 0.96456 0.25917 0.85208 0.0
H1907 H 0.93029 0.25307 0.84044 0.0
H1908 H 0.93723 0.30705 0.81543 0.0
H1909 H 0.97136 0.31311 0.82663 0.0
H1910 H 0.90602 0.30035 0.83891 0.0
H1911 H 0.9334 0.26905 0.78708 0.0
H1912 H 0.95173 0.24575 0.77342 0.0
H1913 H 0.91337 0.19926 0.79218 0.0
H1914 H 0.89496 0.22234 0.8062 0.0
H1915 H 0.82639 0.30307 0.77554 0.0
H1916 H 0.85893 0.30167 0.78851 0.0
H1917 H 0.8406 0.24399 0.80293 0.0
H1918 H 0.80764 0.2452 0.78998 0.0
H1919 H 0.87598 0.24868 0.7883 0.0
H1920 H 0.84665 0.27794 0.83727 0.0
H1921 H 0.82748 0.30005 0.85153 0.0
H1922 H 0.86849 0.34852 0.84048 0.0
H1923 H 0.88778 0.3267 0.82585 0.0
C1924 C 0.95878 0.26969 0.84404 0.0
C1925 C 0.97069 0.28661 0.84024 0.0
C1926 C 0.93924 0.26617 0.83739 0.0
C1927 C 0.93129 0.27962 0.82709 0.0
C1928 C 0.94311 0.29651 0.82337 0.0
C1929 C 0.96264 0.2999 0.82972 0.0
C1930 C 0.91059 0.27641 0.82029 0.0
C1931 C 0.89946 0.28913 0.82778 0.0
C1932 C 0.90191 0.26128 0.80632 0.0
C1933 C 0.91297 0.24744 0.7979 0.0
C1934 C 0.92899 0.25388 0.78847 0.0
C1935 C 0.93937 0.24071 0.78062 0.0
C1936 C 0.93376 0.22104 0.78199 0.0
C1937 C 0.91772 0.2145 0.79117 0.0
C1938 C 0.90731 0.22762 0.79906 0.0
C1939 C 0.82918 0.28997 0.7813 0.0
C1940 C 0.8143 0.27429 0.78186 0.0
C1941 C 0.84783 0.28923 0.78877 0.0
C1942 C 0.85207 0.27284 0.79699 0.0
C1943 C 0.83752 0.2568 0.79679 0.0
C1944 C 0.81873 0.25755 0.7894 0.0
C1945 C 0.87159 0.27304 0.80648 0.0
C1946 C 0.88245 0.25974 0.79961 0.0
C1947 C 0.87999 0.28744 0.82128 0.0
C1948 C 0.86861 0.30067 0.83033 0.0
C1949 C 0.85153 0.29331 0.83776 0.0
C1950 C 0.84064 0.3058 0.84592 0.0
C1951 C 0.84674 0.32568 0.84687 0.0
C1952 C 0.86378 0.33311 0.83971 0.0
C1953 C 0.87471 0.32069 0.83151 0.0
H1954 H 0.83829 0.33532 0.85319 0.0
H1955 H 0.9418 0.21086 0.7759 0.0
H1956 H 0.47604 0.21318 0.59664 0.0
H1957 H 0.47789 0.18571 0.5738 0.0
H1958 H 0.51119 0.16214 0.6172 0.0
H1959 H 0.50921 0.18909 0.64006 0.0
H1960 H 0.52772 0.16822 0.58114 0.0
H1961 H 0.46884 0.14036 0.60635 0.0
H1962 H 0.43507 0.13736 0.6126 0.0
H1963 H 0.41771 0.13666 0.55267 0.0
H1964 H 0.45147 0.14006 0.5461 0.0
H1965 H 0.54038 0.07576 0.54898 0.0
H1966 H 0.53389 0.10503 0.56583 0.0
H1967 H 0.48698 0.10632 0.52272 0.0
H1968 H 0.49282 0.07637 0.50656 0.0
H1969 H 0.47584 0.11462 0.55408 0.0
H1970 H 0.53208 0.13906 0.52723 0.0
H1971 H 0.56503 0.14113 0.51866 0.0
H1972 H 0.5869 0.14981 0.57801 0.0
H1973 H 0.55405 0.14752 0.58696 0.0
C1974 C 0.48357 0.20203 0.60135 0.0
C1975 C 0.49255 0.20339 0.62016 0.0
C1976 C 0.48453 0.18634 0.58832 0.0
C1977 C 0.49467 0.17196 0.59387 0.0
C1978 C 0.50329 0.17311 0.61268 0.0
C1979 C 0.50211 0.18855 0.62573 0.0
C1980 C 0.49775 0.15641 0.57992 0.0
C1981 C 0.51643 0.15639 0.57528 0.0
C1982 C 0.4828 0.14155 0.57163 0.0
C1983 C 0.4627 0.14075 0.57576 0.0
C1984 C 0.45787 0.13993 0.59454 0.0
C1985 C 0.43872 0.13806 0.59813 0.0
C1986 C 0.42426 0.13687 0.58304 0.0
C1987 C 0.42893 0.13766 0.56434 0.0
C1988 C 0.44806 0.1396 0.56069 0.0
C1989 C 0.52884 0.08245 0.54306 0.0
C1990 C 0.51716 0.07397 0.5265 0.0
C1991 C 0.52517 0.09925 0.55259 0.0
C1992 C 0.51019 0.10824 0.54535 0.0
C1993 C 0.49867 0.09979 0.52859 0.0
C1994 C 0.50205 0.08274 0.51932 0.0
C1995 C 0.50605 0.12589 0.55579 0.0
C1996 C 0.48717 0.12647 0.55968 0.0
C1997 C 0.52075 0.14153 0.56306 0.0
C1998 C 0.54057 0.14299 0.55776 0.0
C1999 C 0.5439 0.14128 0.53846 0.0
C2000 C 0.56257 0.14251 0.53353 0.0
C2001 C 0.57804 0.14556 0.54778 0.0
C2002 C 0.57489 0.14744 0.56699 0.0
C2003 C 0.55625 0.14621 0.572 0.0
H2004 H 0.59248 0.14651 0.54393 0.0
H2005 H 0.40944 0.13527 0.58582 0.0
H2006 H 0.60282 0.79975 0.3807 0.0
H2007 H 0.63195 0.7997 0.36477 0.0
H2008 H 0.59877 0.76457 0.31647 0.0
H2009 H 0.56969 0.76471 0.33213 0.0
H2010 H 0.63384 0.75274 0.32768 0.0
H2011 H 0.60898 0.81053 0.31435 0.0
H2012 H 0.59859 0.84125 0.323 0.0
H2013 H 0.6544 0.86401 0.35202 0.0
H2014 H 0.66499 0.83322 0.34409 0.0
H2015 H 0.69012 0.76252 0.25218 0.0
H2016 H 0.66439 0.7629 0.27257 0.0
H2017 H 0.70022 0.80819 0.31064 0.0
H2018 H 0.72556 0.80864 0.28952 0.0
H2019 H 0.66632 0.81474 0.30844 0.0
H2020 H 0.69267 0.75842 0.31951 0.0
H2021 H 0.70383 0.72826 0.31033 0.0
H2022 H 0.64677 0.70255 0.28649 0.0
H2023 H 0.63538 0.73275 0.29516 0.0
C2024 C 0.60179 0.7919 0.36675 0.0
C2025 C 0.58397 0.78235 0.35758 0.0
C2026 C 0.61841 0.79189 0.35769 0.0
C2027 C 0.61745 0.78217 0.33944 0.0
C2028 C 0.59979 0.7721 0.33058 0.0
C2029 C 0.58319 0.7723 0.3395 0.0
C2030 C 0.63455 0.78331 0.32895 0.0
C2031 C 0.64096 0.76625 0.32339 0.0
C2032 C 0.64409 0.80103 0.32385 0.0
C2033 C 0.63768 0.81947 0.32885 0.0
C2034 C 0.61896 0.82199 0.32282 0.0
C2035 C 0.61304 0.83942 0.3276 0.0
C2036 C 0.6258 0.85453 0.3382 0.0
C2037 C 0.64451 0.85224 0.344 0.0
C2038 C 0.65047 0.83479 0.33938 0.0
C2039 C 0.69242 0.77268 0.2648 0.0
C2040 C 0.70995 0.78522 0.26959 0.0
C2041 C 0.6778 0.77273 0.27658 0.0
C2042 C 0.68062 0.78503 0.29359 0.0
C2043 C 0.69781 0.7983 0.29781 0.0
C2044 C 0.7123 0.7985 0.2858 0.0
C2045 C 0.66559 0.7841 0.30683 0.0
C2046 C 0.65953 0.8012 0.31295 0.0
C2047 C 0.65654 0.7664 0.31263 0.0
C2048 C 0.66321 0.74797 0.30788 0.0
C2049 C 0.68253 0.74639 0.31223 0.0
C2050 C 0.6889 0.72928 0.3071 0.0
C2051 C 0.67603 0.7135 0.2978 0.0
C2052 C 0.65674 0.71479 0.29368 0.0
C2053 C 0.65032 0.73192 0.29871 0.0
H2054 H 0.68099 0.70026 0.29381 0.0
H2055 H 0.62122 0.86804 0.34183 0.0
H2056 H 0.0182 0.23093 0.47299 0.0
H2057 H 0.012 0.20313 0.4915 0.0
H2058 H 0.00749 0.16495 0.44 0.0
H2059 H 0.01342 0.19251 0.42145 0.0
H2060 H 0.97959 0.15328 0.46173 0.0
H2061 H 0.0484 0.17442 0.47072 0.0
H2062 H 0.07813 0.19787 0.48042 0.0
H2063 H 0.06277 0.20431 0.53755 0.0
H2064 H 0.03283 0.18104 0.52811 0.0
H2065 H -0.00174 0.06473 0.48645 0.0
H2066 H -0.00186 0.09605 0.47496 0.0
H2067 H 0.00617 0.12204 0.53313 0.0
H2068 H 0.00696 0.09024 0.54459 0.0
H2069 H 0.02852 0.14259 0.51267 0.0
H2070 H 0.96162 0.11585 0.50349 0.0
H2071 H 0.93326 0.09098 0.49257 0.0
H2072 H 0.94555 0.09413 0.4345 0.0
H2073 H 0.97418 0.11871 0.44508 0.0
C2074 C 0.0158 0.2166 0.46563 0.0
C2075 C 0.01637 0.21389 0.44578 0.0
C2076 C 0.01231 0.20076 0.47622 0.0
C2077 C 0.00942 0.182 0.46713 0.0
C2078 C 0.00964 0.17931 0.44729 0.0
C2079 C 0.0131 0.19509 0.43672 0.0
C2080 C 0.00662 0.16501 0.47813 0.0
C2081 C 0.99027 0.15088 0.47287 0.0
C2082 C 0.02032 0.16221 0.493 0.0
C2083 C 0.03828 0.1762 0.49866 0.0
C2084 C 0.05129 0.18097 0.48531 0.0
C2085 C 0.06819 0.19419 0.49076 0.0
C2086 C 0.0723 0.20262 0.50957 0.0
C2087 C 0.05955 0.1978 0.52298 0.0
C2088 C 0.04262 0.18459 0.51759 0.0
C2089 C -0.00053 0.07696 0.49676 0.0
C2090 C 0.00205 0.07498 0.51632 0.0
C2091 C -0.00054 0.09496 0.49021 0.0
C2092 C 0.0015 0.1114 0.50318 0.0
C2093 C 0.0043 0.10953 0.52286 0.0
C2094 C 0.00473 0.09142 0.52938 0.0
C2095 C 0.00171 0.13051 0.49592 0.0
C2096 C 0.01756 0.14509 0.50189 0.0
C2097 C 0.98759 0.13366 0.48156 0.0
C2098 C 0.97011 0.11912 0.47511 0.0
C2099 C 0.95833 0.11118 0.4884 0.0
C2100 C 0.94221 0.09711 0.48227 0.0
C2101 C 0.93763 0.09095 0.46286 0.0
C2102 C 0.94912 0.09889 0.44953 0.0
C2103 C 0.96528 0.11292 0.45559 0.0
H2104 H 0.92517 0.08003 0.45814 0.0
H2105 H 0.0854 0.21285 0.51377 0.0
H2106 H 0.57155 0.30159 0.12086 0.0
H2107 H 0.60237 0.30506 0.14061 0.0
H2108 H 0.57513 0.31788 0.19086 0.0
H2109 H 0.54458 0.31481 0.17133 0.0
H2110 H 0.61006 0.33899 0.19335 0.0
H2111 H 0.58031 0.27241 0.17784 0.0
H2112 H 0.56619 0.24359 0.156 0.0
H2113 H 0.6191 0.24567 0.13121 0.0
H2114 H 0.63344 0.27469 0.15273 0.0
H2115 H 0.67249 0.2757 0.24898 0.0
H2116 H 0.64318 0.28148 0.23102 0.0
H2117 H 0.6753 0.33091 0.20953 0.0
H2118 H 0.70461 0.32519 0.22744 0.0
H2119 H 0.63856 0.2797 0.19229 0.0
H2120 H 0.64963 0.3615 0.20177 0.0
H2121 H 0.65881 0.38888 0.22669 0.0
H2122 H 0.63729 0.3529 0.26876 0.0
H2123 H 0.62822 0.32532 0.24412 0.0
C2124 C 0.57225 0.30551 0.13606 0.0
C2125 C 0.55565 0.30763 0.14462 0.0
C2126 C 0.58982 0.30744 0.14731 0.0
C2127 C 0.59092 0.31145 0.1672 0.0
C2128 C 0.57458 0.31477 0.17554 0.0
C2129 C 0.5571 0.31287 0.16436 0.0
C2130 C 0.60846 0.31039 0.17968 0.0
C2131 C 0.61644 0.32612 0.19297 0.0
C2132 C 0.6164 0.29337 0.17956 0.0
C2133 C 0.60787 0.27583 0.16673 0.0
C2134 C 0.58889 0.26679 0.16763 0.0
C2135 C 0.58085 0.25042 0.15533 0.0
C2136 C 0.59172 0.24283 0.14218 0.0
C2137 C 0.61068 0.25158 0.14137 0.0
C2138 C 0.61877 0.26799 0.15362 0.0
C2139 C 0.67319 0.28794 0.24064 0.0
C2140 C 0.69073 0.29989 0.23938 0.0
C2141 C 0.6565 0.29125 0.23044 0.0
C2142 C 0.65711 0.30663 0.219 0.0
C2143 C 0.6745 0.31909 0.21843 0.0
C2144 C 0.69123 0.31571 0.22852 0.0
C2145 C 0.64013 0.30829 0.20597 0.0
C2146 C 0.63235 0.29268 0.19249 0.0
C2147 C 0.63203 0.32517 0.20628 0.0
C2148 C 0.63847 0.34138 0.22121 0.0
C2149 C 0.647 0.35945 0.21638 0.0
C2150 C 0.65215 0.37499 0.23043 0.0
C2151 C 0.64859 0.37263 0.24929 0.0
C2152 C 0.64001 0.35471 0.25415 0.0
C2153 C 0.63499 0.3391 0.24018 0.0
H2154 H 0.65249 0.38467 0.26015 0.0
H2155 H 0.58548 0.23016 0.13266 0.0
H2156 H 0.53996 0.83936 0.90947 0.0
H2157 H 0.54004 0.86973 0.92837 0.0
H2158 H 0.51989 0.83878 0.97478 0.0
H2159 H 0.51972 0.80825 0.95598 0.0
H2160 H 0.49892 0.86711 0.9651 0.0
H2161 H 0.56515 0.86136 0.97894 0.0
H2162 H 0.59694 0.85656 0.97062 0.0
H2163 H 0.60125 0.9065 0.93947 0.0
H2164 H 0.56937 0.91146 0.94739 0.0
H2165 H 0.50345 0.95368 0.024 0.0
H2166 H 0.50833 0.92139 0.01291 0.0
H2167 H 0.53967 0.94505 0.96831 0.0
H2168 H 0.53578 0.97725 0.98 0.0
H2169 H 0.55597 0.91864 0.98049 0.0
H2170 H 0.49021 0.92288 0.96157 0.0
H2171 H 0.45769 0.92832 0.96658 0.0
H2172 H 0.4514 0.88233 0.0029 0.0
H2173 H 0.48399 0.87678 0.99828 0.0
C2174 C 0.53567 0.83897 0.92374 0.0
C2175 C 0.52981 0.82136 0.9312 0.0
C2176 C 0.53581 0.85635 0.93455 0.0
C2177 C 0.53011 0.85646 0.95301 0.0
C2178 C 0.52439 0.83895 0.96057 0.0
C2179 C 0.52436 0.82154 0.94982 0.0
C2180 C 0.52928 0.87487 0.964 0.0
C2181 C 0.51144 0.87828 0.96882 0.0
C2182 C 0.54554 0.88957 0.96828 0.0
C2183 C 0.5648 0.8867 0.96366 0.0
C2184 C 0.57282 0.87125 0.97021 0.0
C2185 C 0.59087 0.86851 0.96559 0.0
C2186 C 0.60109 0.8812 0.9545 0.0
C2187 C 0.59331 0.89668 0.94806 0.0
C2188 C 0.57527 0.89948 0.95263 0.0
C2189 C 0.51157 0.95193 0.01199 0.0
C2190 C 0.51927 0.9679 0.00287 0.0
C2191 C 0.51426 0.93349 0.00558 0.0
C2192 C 0.52407 0.9307 0.98953 0.0
C2193 C 0.53211 0.94678 0.98074 0.0
C2194 C 0.52986 0.9652 0.98743 0.0
C2195 C 0.52549 0.91111 0.98133 0.0
C2196 C 0.54345 0.90744 0.97702 0.0
C2197 C 0.50923 0.89632 0.97705 0.0
C2198 C 0.48961 0.89957 0.97976 0.0
C2199 C 0.48193 0.91401 0.97072 0.0
C2200 C 0.46349 0.91711 0.97348 0.0
C2201 C 0.45251 0.90572 0.9851 0.0
C2202 C 0.45993 0.89117 0.99393 0.0
C2203 C 0.47839 0.88804 0.99125 0.0
H2204 H 0.43823 0.90814 0.98722 0.0
H2205 H 0.61506 0.87904 0.95093 0.0
H2206 H 0.93699 0.7911 0.64376 0.0
H2207 H 0.91167 0.79182 0.66463 0.0
H2208 H 0.92992 0.7456 0.69365 0.0
H2209 H 0.95532 0.74473 0.67287 0.0
H2210 H 0.889 0.74433 0.68887 0.0
H2211 H 0.94772 0.78725 0.71271 0.0
H2212 H 0.97529 0.81269 0.71006 0.0
H2213 H 0.93723 0.85221 0.6977 0.0
H2214 H 0.90941 0.8269 0.69998 0.0
H2215 H 0.83947 0.76485 0.76814 0.0
H2216 H 0.86554 0.75816 0.74988 0.0
H2217 H 0.86459 0.81094 0.72344 0.0
H2218 H 0.83936 0.81809 0.74233 0.0
H2219 H 0.89906 0.80646 0.7293 0.0
H2220 H 0.84061 0.76332 0.70077 0.0
H2221 H 0.81251 0.73744 0.6997 0.0
H2222 H 0.84887 0.69889 0.71962 0.0
H2223 H 0.8772 0.72453 0.7207 0.0
C2224 C 0.93532 0.78073 0.65422 0.0
C2225 C 0.94835 0.76809 0.6569 0.0
C2226 C 0.92089 0.78121 0.66615 0.0
C2227 C 0.91925 0.769 0.68084 0.0
C2228 C 0.93109 0.75519 0.68244 0.0
C2229 C 0.94562 0.75478 0.6706 0.0
C2230 C 0.90673 0.77219 0.69577 0.0
C2231 C 0.89125 0.75779 0.69791 0.0
C2232 C 0.90977 0.7898 0.70742 0.0
C2233 C 0.92648 0.80514 0.70636 0.0
C2234 C 0.94523 0.80133 0.7093 0.0
C2235 C 0.9609 0.81573 0.70788 0.0
C2236 C 0.95801 0.83404 0.70368 0.0
C2237 C 0.93945 0.83801 0.70094 0.0
C2238 C 0.92372 0.82365 0.70231 0.0
C2239 C 0.84534 0.77529 0.75891 0.0
C2240 C 0.83756 0.79202 0.75669 0.0
C2241 C 0.85995 0.77129 0.74824 0.0
C2242 C 0.86668 0.78379 0.73494 0.0
C2243 C 0.85959 0.80102 0.73354 0.0
C2244 C 0.84521 0.80515 0.74439 0.0
C2245 C 0.88069 0.77889 0.72202 0.0
C2246 C 0.89671 0.79292 0.72038 0.0
C2247 C 0.87802 0.76098 0.71074 0.0
C2248 C 0.86097 0.74584 0.7109 0.0
C2249 C 0.84258 0.74935 0.70502 0.0
C2250 C 0.82664 0.7347 0.70428 0.0
C2251 C 0.82893 0.7165 0.70945 0.0
C2252 C 0.84714 0.71296 0.71551 0.0
C2253 C 0.86314 0.72752 0.71613 0.0
H2254 H 0.81657 0.7052 0.70887 0.0
H2255 H 0.97016 0.84517 0.70258 0.0
H2256 H 0.0719 0.98751 0.81531 0.0
H2257 H 0.05791 0.98433 0.84534 0.0
H2258 H 0.11208 0.01108 0.87652 0.0
H2259 H 0.12644 0.01339 0.8463 0.0
H2260 H 0.09245 0.98487 0.8971 0.0
H2261 H 0.07951 0.03848 0.86319 0.0
H2262 H 0.06859 0.05406 0.83516 0.0
H2263 H 0.01233 0.02037 0.83328 0.0
H2264 H 0.023 0.0044 0.86116 0.0
H2265 H 0.03427 0.04478 0.95805 0.0
H2266 H 0.05069 0.03851 0.9303 0.0
H2267 H 0.03853 0.97757 0.9359 0.0
H2268 H 0.02203 0.98378 0.96407 0.0
H2269 H 0.03754 0.01966 0.89729 0.0
H2270 H 0.0763 0.95769 0.91855 0.0
H2271 H 0.08997 0.94535 0.94752 0.0
H2272 H 0.09841 0.00174 0.97746 0.0
H2273 H 0.08504 0.01447 0.94862 0.0
C2274 C 0.08092 0.99232 0.82861 0.0
C2275 C 0.10012 0.00099 0.82859 0.0
C2276 C 0.07294 0.99048 0.84574 0.0
C2277 C 0.08382 0.99792 0.86311 0.0
C2278 C 0.10341 0.00532 0.86325 0.0
C2279 C 0.11158 0.00672 0.84603 0.0
C2280 C 0.07412 0.00022 0.88056 0.0
C2281 C 0.08039 0.99239 0.89717 0.0
C2282 C 0.05862 0.01037 0.88074 0.0
C2283 C 0.0521 0.02013 0.86414 0.0
C2284 C 0.06484 0.03433 0.85673 0.0
C2285 C 0.0587 0.04323 0.84087 0.0
C2286 C 0.03979 0.03817 0.83241 0.0
C2287 C 0.02698 0.02425 0.83983 0.0
C2288 C 0.03306 0.01528 0.85566 0.0
C2289 C 0.03493 0.02999 0.95339 0.0
C2290 C 0.02682 0.01475 0.96328 0.0
C2291 C 0.0444 0.02645 0.93752 0.0
C2292 C 0.04597 0.0076 0.93112 0.0
C2293 C 0.03772 0.99226 0.94078 0.0
C2294 C 0.02823 0.99582 0.95679 0.0
C2295 C 0.05577 0.00429 0.91393 0.0
C2296 C 0.04947 0.01195 0.89726 0.0
C2297 C 0.07152 0.99447 0.91397 0.0
C2298 C 0.0795 0.98697 0.93145 0.0
C2299 C 0.08112 0.96746 0.9313 0.0
C2300 C 0.08884 0.96041 0.9477 0.0
C2301 C 0.09511 0.97277 0.96429 0.0
C2302 C 0.09358 0.99219 0.96458 0.0
C2303 C 0.08588 0.99932 0.94822 0.0
H2304 H 0.10113 0.96729 0.97695 0.0
H2305 H 0.03507 0.04507 0.82013 0.0
H2306 H 0.71529 0.33001 0.56667 0.0
H2307 H 0.72105 0.31325 0.5951 0.0
H2308 H 0.73562 0.36773 0.62958 0.0
H2309 H 0.73038 0.38453 0.60121 0.0
H2310 H 0.76008 0.34624 0.63967 0.0
H2311 H 0.69188 0.33698 0.62944 0.0
H2312 H 0.65965 0.32731 0.61191 0.0
H2313 H 0.66851 0.26885 0.60429 0.0
H2314 H 0.70092 0.27822 0.62154 0.0
H2315 H 0.75482 0.31076 0.73049 0.0
H2316 H 0.74978 0.32682 0.7017 0.0
H2317 H 0.73719 0.27172 0.6682 0.0
H2318 H 0.74202 0.25567 0.69735 0.0
H2319 H 0.71215 0.29327 0.65746 0.0
H2320 H 0.78141 0.30427 0.66934 0.0
H2321 H 0.81225 0.31538 0.68923 0.0
H2322 H 0.79968 0.37254 0.69594 0.0
H2323 H 0.76866 0.36172 0.67627 0.0
C2324 C 0.71971 0.3384 0.58032 0.0
C2325 C 0.72235 0.35861 0.58166 0.0
C2326 C 0.7229 0.3288 0.5966 0.0
C2327 C 0.72857 0.33919 0.61459 0.0
C2328 C 0.73128 0.35936 0.61591 0.0
C2329 C 0.72823 0.36896 0.59965 0.0
C2330 C 0.73199 0.32914 0.63203 0.0
C2331 C 0.74949 0.33478 0.64362 0.0
C2332 C 0.71833 0.31401 0.63716 0.0
C2333 C 0.69894 0.30836 0.62657 0.0
C2334 C 0.68704 0.3221 0.62385 0.0
C2335 C 0.66872 0.31667 0.61399 0.0
C2336 C 0.66208 0.2975 0.6069 0.0
C2337 C 0.67371 0.28371 0.60972 0.0
C2338 C 0.69205 0.28907 0.61954 0.0
C2339 C 0.75164 0.30214 0.717 0.0
C2340 C 0.74953 0.28205 0.71614 0.0
C2341 C 0.74855 0.31131 0.70047 0.0
C2342 C 0.74354 0.30055 0.68262 0.0
C2343 C 0.74119 0.28039 0.68175 0.0
C2344 C 0.74404 0.27123 0.69838 0.0
C2345 C 0.74026 0.31027 0.66497 0.0
C2346 C 0.72277 0.30461 0.65337 0.0
C2347 C 0.75381 0.32558 0.65998 0.0
C2348 C 0.77267 0.33216 0.67143 0.0
C2349 C 0.7852 0.31919 0.67511 0.0
C2350 C 0.80271 0.32544 0.68634 0.0
C2351 C 0.80791 0.34466 0.69386 0.0
C2352 C 0.79564 0.35768 0.6901 0.0
C2353 C 0.77811 0.3515 0.6789 0.0
H2354 H 0.82144 0.34946 0.7026 0.0
H2355 H 0.64788 0.29332 0.59931 0.0
H2356 H 0.45799 0.05149 0.29952 0.0
H2357 H 0.46569 0.04795 0.3332 0.0
H2358 H 0.41233 0.06453 0.34559 0.0
H2359 H 0.40454 0.06841 0.31165 0.0
H2360 H 0.442 0.07945 0.37395 0.0
H2361 H 0.41462 0.01824 0.34163 0.0
H2362 H 0.41006 0.9914 0.31631 0.0
H2363 H 0.46768 0.9828 0.33087 0.0
H2364 H 0.4727 0.00981 0.35611 0.0
H2365 H 0.45316 0.04134 0.46483 0.0
H2366 H 0.4398 0.04737 0.43316 0.0
H2367 H 0.48882 0.03116 0.40907 0.0
H2368 H 0.50207 0.02471 0.44052 0.0
H2369 H 0.4564 0.01533 0.38743 0.0
H2370 H 0.4837 0.07912 0.41859 0.0
H2371 H 0.4867 0.10485 0.44487 0.0
H2372 H 0.42697 0.10731 0.43336 0.0
H2373 H 0.42357 0.08142 0.40714 0.0
C2374 C 0.44793 0.05461 0.30938 0.0
C2375 C 0.43052 0.06001 0.30282 0.0
C2376 C 0.45236 0.05253 0.32866 0.0
C2377 C 0.43941 0.05557 0.34186 0.0
C2378 C 0.42248 0.062 0.33562 0.0
C2379 C 0.41805 0.06421 0.31623 0.0
C2380 C 0.44333 0.0509 0.36183 0.0
C2381 C 0.44486 0.06535 0.37695 0.0
C2382 C 0.44704 0.03249 0.36578 0.0
C2383 C 0.44408 0.01615 0.35068 0.0
C2384 C 0.42637 0.01072 0.33935 0.0
C2385 C 0.42369 0.99546 0.32502 0.0
C2386 C 0.43857 0.98542 0.32196 0.0
C2387 C 0.45616 0.9906 0.33325 0.0
C2388 C 0.45893 0.00587 0.34759 0.0
C2389 C 0.4611 0.03902 0.4528 0.0
C2390 C 0.47875 0.0326 0.45527 0.0
C2391 C 0.45346 0.04257 0.4347 0.0
C2392 C 0.46342 0.03995 0.41876 0.0
C2393 C 0.48089 0.0333 0.42116 0.0
C2394 C 0.48847 0.02966 0.4392 0.0
C2395 C 0.45579 0.04405 0.39948 0.0
C2396 C 0.45343 0.0294 0.38447 0.0
C2397 C 0.45113 0.06218 0.39574 0.0
C2398 C 0.45335 0.07824 0.41101 0.0
C2399 C 0.4712 0.08512 0.4217 0.0
C2400 C 0.47297 0.09972 0.43659 0.0
C2401 C 0.45703 0.10768 0.44081 0.0
C2402 C 0.43931 0.10113 0.43008 0.0
C2403 C 0.43745 0.08651 0.41519 0.0
H2404 H 0.45841 0.11893 0.45239 0.0
H2405 H 0.43647 0.97361 0.31086 0.0
H2406 H 0.76325 0.69427 0.03216 0.0
H2407 H 0.7651 0.72041 0.05738 0.0
H2408 H 0.73522 0.6807 0.09229 0.0
H2409 H 0.73298 0.65465 0.06715 0.0
H2410 H 0.72304 0.71439 0.0952 0.0
H2411 H 0.78431 0.69208 0.09713 0.0
H2412 H 0.81358 0.6858 0.08365 0.0
H2413 H 0.82846 0.74549 0.07471 0.0
H2414 H 0.79913 0.75205 0.08795 0.0
H2415 H 0.77912 0.74178 0.19116 0.0
H2416 H 0.7782 0.7304 0.15757 0.0
H2417 H 0.74408 0.77276 0.1417 0.0
H2418 H 0.74475 0.78407 0.17553 0.0
H2419 H 0.78806 0.7448 0.12498 0.0
H2420 H 0.70962 0.74983 0.10608 0.0
H2421 H 0.68064 0.75288 0.12179 0.0
H2422 H 0.70064 0.72279 0.16796 0.0
H2423 H 0.72959 0.71938 0.1524 0.0
C2424 C 0.75692 0.69114 0.04515 0.0
C2425 C 0.74815 0.67232 0.04775 0.0
C2426 C 0.75799 0.7061 0.05951 0.0
C2427 C 0.75045 0.70243 0.07673 0.0
C2428 C 0.74108 0.68384 0.07907 0.0
C2429 C 0.73993 0.66892 0.06472 0.0
C2430 C 0.75332 0.71744 0.09298 0.0
C2431 C 0.73724 0.72132 0.10153 0.0
C2432 C 0.77184 0.72645 0.10122 0.0
C2433 C 0.78943 0.7225 0.09327 0.0
C2434 C 0.79375 0.70382 0.09214 0.0
C2435 C 0.81036 0.70022 0.08458 0.0
C2436 C 0.82284 0.71522 0.07826 0.0
C2437 C 0.81876 0.73387 0.07955 0.0
C2438 C 0.80215 0.73754 0.08709 0.0
C2439 C 0.77166 0.74885 0.18049 0.0
C2440 C 0.76176 0.76356 0.18584 0.0
C2441 C 0.77127 0.74245 0.16132 0.0
C2442 C 0.76093 0.75063 0.1472 0.0
C2443 C 0.752 0.76618 0.15243 0.0
C2444 C 0.75238 0.7726 0.17169 0.0
C2445 C 0.75782 0.74123 0.1275 0.0
C2446 C 0.77383 0.73846 0.11826 0.0
C2447 C 0.73927 0.73286 0.11884 0.0
C2448 C 0.72184 0.7346 0.12821 0.0
C2449 C 0.70778 0.74385 0.11957 0.0
C2450 C 0.69138 0.74564 0.12844 0.0
C2451 C 0.68884 0.7381 0.1459 0.0
C2452 C 0.70266 0.72868 0.15448 0.0
C2453 C 0.71907 0.72683 0.14565 0.0
H2454 H 0.67614 0.73952 0.15275 0.0
H2455 H 0.83569 0.71241 0.07241 0.0
H2456 H 0.1369 0.99467 0.70584 0.0
H2457 H 0.11844 0.99191 0.67443 0.0
H2458 H 0.06601 0.98677 0.70102 0.0
H2459 H 0.08429 0.98882 0.73234 0.0
H2460 H 0.0601 0.96429 0.66891 0.0
H2461 H 0.08735 0.02994 0.68809 0.0
H2462 H 0.1128 0.05762 0.69965 0.0
H2463 H 0.14159 0.04773 0.65011 0.0
H2464 H 0.11643 0.01979 0.63839 0.0
H2465 H 0.00742 0.00727 0.59487 0.0
H2466 H 0.02346 0.00013 0.62515 0.0
H2467 H 0.07079 0.98682 0.59604 0.0
H2468 H 0.05471 0.99346 0.56576 0.0
H2469 H 0.0785 0.01755 0.62898 0.0
H2470 H 0.04708 0.95187 0.60957 0.0
H2471 H 0.01863 0.92704 0.59886 0.0
H2472 H 0.99416 0.94047 0.65035 0.0
H2473 H 0.02231 0.96565 0.66122 0.0
C2474 C 0.12143 0.99275 0.70494 0.0
C2475 C 0.11205 0.99219 0.72151 0.0
C2476 C 0.1109 0.9912 0.68702 0.0
C2477 C 0.09087 0.98949 0.68543 0.0
C2478 C 0.08144 0.9881 0.70191 0.0
C2479 C 0.09193 0.98938 0.7198 0.0
C2480 C 0.07989 0.99048 0.66677 0.0
C2481 C 0.06406 0.97599 0.66023 0.0
C2482 C 0.08497 0.00581 0.6555 0.0
C2483 C 0.10012 0.02264 0.66247 0.0
C2484 C 0.09919 0.03357 0.67974 0.0
C2485 C 0.11355 0.04932 0.68631 0.0
C2486 C 0.12883 0.0544 0.67565 0.0
C2487 C 0.12976 0.04376 0.65837 0.0
C2488 C 0.11545 0.02797 0.65175 0.0
C2489 C 0.02108 0.00249 0.59494 0.0
C2490 C 0.02995 0.00102 0.57813 0.0
C2491 C 0.03016 0.99839 0.61216 0.0
C2492 C 0.04824 0.99299 0.61268 0.0
C2493 C 0.0568 0.99094 0.59579 0.0
C2494 C 0.04762 0.99472 0.57858 0.0
C2495 C 0.05906 0.99125 0.63106 0.0
C2496 C 0.07473 0.00575 0.63761 0.0
C2497 C 0.05349 0.97624 0.64247 0.0
C2498 C 0.03675 0.96079 0.63614 0.0
C2499 C 0.03557 0.94965 0.61855 0.0
C2500 C 0.0195 0.93549 0.61245 0.0
C2501 C 0.00458 0.93221 0.62389 0.0
C2502 C 0.00572 0.94304 0.64149 0.0
C2503 C 0.02174 0.95725 0.64763 0.0
H2504 H 0.99215 0.92125 0.61915 0.0
H2505 H 0.13994 0.0666 0.68076 0.0
H2506 H 0.70948 0.34358 0.47418 0.0
H2507 H 0.71665 0.32757 0.44431 0.0
H2508 H 0.73567 0.38301 0.42454 0.0
H2509 H 0.72749 0.39883 0.45359 0.0
H2510 H 0.7168 0.36296 0.39698 0.0
H2511 H 0.7669 0.35123 0.44242 0.0
H2512 H 0.78078 0.33959 0.47168 0.0
H2513 H 0.75249 0.28195 0.45244 0.0
H2514 H 0.73825 0.29329 0.42316 0.0
H2515 H 0.78178 0.31164 0.33551 0.0
H2516 H 0.77517 0.32569 0.36653 0.0
H2517 H 0.71455 0.31127 0.3486 0.0
H2518 H 0.72112 0.29643 0.31801 0.0
H2519 H 0.75509 0.31066 0.39484 0.0
H2520 H 0.69418 0.34839 0.36384 0.0
H2521 H 0.68641 0.36768 0.33747 0.0
H2522 H 0.74604 0.38208 0.3302 0.0
H2523 H 0.75414 0.36267 0.35631 0.0
C2524 C 0.71511 0.35227 0.46337 0.0
C2525 C 0.71775 0.37245 0.46616 0.0
C2526 C 0.71936 0.34313 0.44635 0.0
C2527 C 0.72691 0.35402 0.4321 0.0
C2528 C 0.72971 0.37418 0.43511 0.0
C2529 C 0.72503 0.38325 0.45179 0.0
C2530 C 0.73157 0.34474 0.41383 0.0
C2531 C 0.72511 0.35145 0.39662 0.0
C2532 C 0.7428 0.33 0.41315 0.0
C2533 C 0.75136 0.32314 0.43071 0.0
C2534 C 0.76354 0.33609 0.4445 0.0
C2535 C 0.77148 0.32955 0.46107 0.0
C2536 C 0.76747 0.31005 0.46394 0.0
C2537 C 0.75555 0.29705 0.45021 0.0
C2538 C 0.74755 0.30353 0.43362 0.0
C2539 C 0.76705 0.3113 0.33829 0.0
C2540 C 0.75192 0.30341 0.32416 0.0
C2541 C 0.7633 0.31939 0.35597 0.0
C2542 C 0.74438 0.31986 0.35976 0.0
C2543 C 0.72927 0.31147 0.34585 0.0
C2544 C 0.73303 0.30317 0.32832 0.0
C2545 C 0.74029 0.32898 0.37823 0.0
C2546 C 0.74671 0.32209 0.39535 0.0
C2547 C 0.72971 0.34415 0.37897 0.0
C2548 C 0.72472 0.35395 0.36189 0.0
C2549 C 0.7056 0.35549 0.35644 0.0
C2550 C 0.70115 0.36649 0.34159 0.0
C2551 C 0.71574 0.37622 0.33229 0.0
C2552 C 0.73477 0.37459 0.33748 0.0
C2553 C 0.73928 0.36342 0.35216 0.0
H2554 H 0.7123 0.38492 0.32098 0.0
H2555 H 0.77364 0.30501 0.47678 0.0
H2556 H 0.39704 0.04626 0.17537 0.0
H2557 H 0.4136 0.03978 0.14733 0.0
H2558 H 0.46372 0.07953 0.17302 0.0
H2559 H 0.44748 0.08565 0.20138 0.0
H2560 H 0.44804 0.08251 0.13155 0.0
H2561 H 0.4672 0.03824 0.17585 0.0
H2562 H 0.46046 0.01211 0.19663 0.0
H2563 H 0.43069 0.97447 0.14862 0.0
H2564 H 0.43707 0.00052 0.12761 0.0
H2565 H 0.51911 0.06488 0.07251 0.0
H2566 H 0.49978 0.07149 0.09815 0.0
H2567 H 0.4635 0.01609 0.08307 0.0
H2568 H 0.48358 0.00913 0.0581 0.0
H2569 H 0.47012 0.02049 0.1187 0.0
H2570 H 0.44795 0.06101 0.07445 0.0
H2571 H 0.44526 0.08647 0.05295 0.0
H2572 H 0.4737 0.12932 0.0974 0.0
H2573 H 0.47669 0.10414 0.11913 0.0
C2574 C 0.41154 0.05371 0.17499 0.0
C2575 C 0.42099 0.06648 0.19054 0.0
C2576 C 0.42099 0.04992 0.15903 0.0
C2577 C 0.43988 0.0591 0.15823 0.0
C2578 C 0.44915 0.07228 0.17346 0.0
C2579 C 0.43987 0.07575 0.1896 0.0
C2580 C 0.45001 0.05499 0.14147 0.0
C2581 C 0.4532 0.0691 0.1288 0.0
C2582 C 0.45578 0.0371 0.13756 0.0
C2583 C 0.45228 0.02143 0.15022 0.0
C2584 C 0.45901 0.02447 0.16976 0.0
C2585 C 0.45532 0.00966 0.18158 0.0
C2586 C 0.44506 0.99167 0.17398 0.0
C2587 C 0.43857 0.98843 0.15452 0.0
C2588 C 0.44221 0.00321 0.14266 0.0
C2589 C 0.50702 0.0541 0.07469 0.0
C2590 C 0.5026 0.03659 0.06305 0.0
C2591 C 0.49579 0.05801 0.0892 0.0
C2592 C 0.47984 0.04451 0.09237 0.0
C2593 C 0.47558 0.02688 0.08085 0.0
C2594 C 0.48692 0.02294 0.06642 0.0
C2595 C 0.46853 0.0482 0.10854 0.0
C2596 C 0.46509 0.03399 0.12125 0.0
C2597 C 0.46202 0.06586 0.11219 0.0
C2598 C 0.46262 0.08065 0.0984 0.0
C2599 C 0.45394 0.07582 0.07954 0.0
C2600 C 0.45217 0.09023 0.06738 0.0
C2601 C 0.45902 0.10951 0.07393 0.0
C2602 C 0.46819 0.1144 0.09244 0.0
C2603 C 0.46995 0.10007 0.10466 0.0
H2604 H 0.45747 0.12069 0.06462 0.0
H2605 H 0.44222 0.98022 0.18315 0.0
H2606 H 0.79533 0.69567 0.9635 0.0
H2607 H 0.80024 0.71658 0.9378 0.0
H2608 H 0.76898 0.67088 0.89703 0.0
H2609 H 0.76505 0.64966 0.92249 0.0
H2610 H 0.79463 0.69009 0.88037 0.0
H2611 H 0.74734 0.70689 0.91961 0.0
H2612 H 0.73485 0.71661 0.94955 0.0
H2613 H 0.77644 0.76876 0.95713 0.0
H2614 H 0.78933 0.75922 0.92733 0.0
H2615 H 0.74355 0.76335 0.83067 0.0
H2616 H 0.7489 0.74531 0.8581 0.0
H2617 H 0.80805 0.74805 0.84821 0.0
H2618 H 0.80283 0.76593 0.82061 0.0
H2619 H 0.77096 0.75167 0.89076 0.0
H2620 H 0.82064 0.70403 0.85712 0.0
H2621 H 0.82576 0.6892 0.82568 0.0
H2622 H 0.76848 0.69318 0.80358 0.0
H2623 H 0.76294 0.7078 0.8349 0.0
C2624 C 0.78991 0.69 0.94896 0.0
C2625 C 0.77965 0.67116 0.94494 0.0
C2626 C 0.79261 0.70197 0.93433 0.0
C2627 C 0.7845 0.69549 0.91557 0.0
C2628 C 0.77531 0.67625 0.91139 0.0
C2629 C 0.77304 0.66413 0.92595 0.0
C2630 C 0.78414 0.709 0.9006 0.0
C2631 C 0.78966 0.70366 0.88271 0.0
C2632 C 0.77715 0.72647 0.90348 0.0
C2633 C 0.76944 0.73224 0.92139 0.0
C2634 C 0.7539 0.72037 0.92774 0.0
C2635 C 0.74674 0.72585 0.94467 0.0
C2636 C 0.75489 0.74326 0.95527 0.0
C2637 C 0.77018 0.75525 0.94893 0.0
C2638 C 0.77741 0.74982 0.93202 0.0
C2639 C 0.75778 0.76037 0.83447 0.0
C2640 C 0.77273 0.76598 0.82338 0.0
C2641 C 0.76081 0.75007 0.85016 0.0
C2642 C 0.7788 0.74513 0.855 0.0
C2643 C 0.79399 0.75149 0.84453 0.0
C2644 C 0.79099 0.76182 0.82884 0.0
C2645 C 0.78135 0.73269 0.87054 0.0
C2646 C 0.7763 0.73828 0.88855 0.0
C2647 C 0.78791 0.71503 0.86749 0.0
C2648 C 0.79147 0.70721 0.84832 0.0
C2649 C 0.80916 0.70178 0.84553 0.0
C2650 C 0.81211 0.69334 0.82776 0.0
C2651 C 0.7974 0.69011 0.8127 0.0
C2652 C 0.77983 0.69563 0.81528 0.0
C2653 C 0.77681 0.70406 0.83302 0.0
H2654 H 0.79969 0.68347 0.799 0.0
H2655 H 0.74932 0.74748 0.96837 0.0
H2656 H 0.85285 0.14847 0.98614 0.0
H2657 H 0.88306 0.13684 0.98228 0.0
H2658 H 0.87457 0.10306 0.02994 0.0
H2659 H 0.84485 0.11454 0.03393 0.0
H2660 H 0.9112 0.12168 0.03161 0.0
H2661 H 0.86309 0.08253 0.98346 0.0
H2662 H 0.83944 0.07859 0.95493 0.0
H2663 H 0.88252 0.10607 0.92269 0.0
H2664 H 0.90635 0.11038 0.95112 0.0
H2665 H 0.94849 0.03656 0.02707 0.0
H2666 H 0.9307 0.06312 0.02774 0.0
H2667 H 0.95586 0.08323 0.97836 0.0
H2668 H 0.97469 0.05707 0.97823 0.0
H2669 H 0.91697 0.07989 0.97362 0.0
H2670 H 0.96654 0.10815 0.01998 0.0
H2671 H 0.99047 0.11351 0.0484 0.0
H2672 H 0.94538 0.10931 0.08478 0.0
H2673 H 0.92131 0.1031 0.05666 0.0
C2674 C 0.85757 0.13873 0.99589 0.0
C2675 C 0.84636 0.13237 0.01028 0.0
C2676 C 0.87477 0.13202 0.99361 0.0
C2677 C 0.88102 0.11898 0.00576 0.0
C2678 C 0.8701 0.11313 0.02041 0.0
C2679 C 0.853 0.11968 0.02262 0.0
C2680 C 0.89856 0.11068 0.00329 0.0
C2681 C 0.9125 0.11243 0.01902 0.0
C2682 C 0.90071 0.0995 0.98644 0.0
C2683 C 0.88643 0.09691 0.96941 0.0
C2684 C 0.86747 0.08783 0.97031 0.0
C2685 C 0.85404 0.08552 0.95416 0.0
C2686 C 0.85947 0.09211 0.93702 0.0
C2687 C 0.87834 0.10099 0.93598 0.0
C2688 C 0.89181 0.10335 0.95209 0.0
C2689 C 0.95028 0.04666 0.01636 0.0
C2690 C 0.96274 0.04464 0.00242 0.0
C2691 C 0.94013 0.06188 0.01681 0.0
C2692 C 0.94174 0.07509 0.00302 0.0
C2693 C 0.95434 0.0732 0.98912 0.0
C2694 C 0.96501 0.05825 0.98901 0.0
C2695 C 0.92906 0.0898 0.00253 0.0
C2696 C 0.91604 0.08935 0.98619 0.0
C2697 C 0.92773 0.10216 0.01894 0.0
C2698 C 0.94212 0.10487 0.03608 0.0
C2699 C 0.96178 0.10796 0.03404 0.0
C2700 C 0.97536 0.11123 0.05011 0.0
C2701 C 0.96945 0.11175 0.06838 0.0
C2702 C 0.94995 0.10894 0.07061 0.0
C2703 C 0.93634 0.10539 0.05458 0.0
H2704 H 0.97997 0.11432 0.08081 0.0
H2705 H 0.84906 0.0903 0.92453 0.0
H2706 H 0.28839 0.40246 0.03508 0.0
H2707 H 0.32335 0.41178 0.03894 0.0
H2708 H 0.32019 0.44226 0.98856 0.0
H2709 H 0.28547 0.43298 0.98452 0.0
H2710 H 0.3508 0.42302 0.99072 0.0
H2711 H 0.32153 0.46564 0.03221 0.0
H2712 H 0.30209 0.47242 0.05815 0.0
H2713 H 0.33875 0.44776 0.09729 0.0
H2714 H 0.35827 0.44063 0.07149 0.0
H2715 H 0.42371 0.50232 0.99602 0.0
H2716 H 0.39322 0.48087 0.99607 0.0
H2717 H 0.41469 0.45886 0.04747 0.0
H2718 H 0.44547 0.48031 0.04758 0.0
H2719 H 0.37777 0.46736 0.04836 0.0
H2720 H 0.41096 0.43089 0.00872 0.0
H2721 H 0.43111 0.42485 0.98322 0.0
H2722 H 0.38829 0.4372 0.94131 0.0
H2723 H 0.36797 0.44359 0.96658 0.0
C2724 C 0.29518 0.41088 0.02465 0.0
C2725 C 0.28413 0.41717 0.00962 0.0
C2726 C 0.31513 0.41621 0.02691 0.0
C2727 C 0.32431 0.42786 0.01414 0.0
C2728 C 0.31339 0.43325 -0.00143 0.0
C2729 C 0.29351 0.42803 0.99635 0.0
C2730 C 0.34501 0.43593 0.01767 0.0
C2731 C 0.35674 0.43268 0.00333 0.0
C2732 C 0.35288 0.44804 0.03441 0.0
C2733 C 0.34119 0.45239 0.04989 0.0
C2734 C 0.32534 0.46154 0.04631 0.0
C2735 C 0.31433 0.46546 0.06099 0.0
C2736 C 0.31914 0.46046 0.07934 0.0
C2737 C 0.33501 0.45158 0.08306 0.0
C2738 C 0.34606 0.4476 0.06842 0.0
C2739 C 0.422 0.49304 0.00743 0.0
C2740 C 0.43706 0.49306 0.02181 0.0
C2741 C 0.40458 0.48069 0.00736 0.0
C2742 C 0.40185 0.46812 0.02162 0.0
C2743 C 0.41662 0.4684 0.03628 0.0
C2744 C 0.43415 0.48069 0.03631 0.0
C2745 C 0.38334 0.45497 0.02112 0.0
C2746 C 0.37203 0.45729 0.036 0.0
C2747 C 0.37592 0.4419 0.00494 0.0
C2748 C 0.38795 0.43781 0.98959 0.0
C2749 C 0.40587 0.43243 0.99408 0.0
C2750 C 0.41733 0.42893 0.97967 0.0
C2751 C 0.41099 0.43067 0.96067 0.0
C2752 C 0.39317 0.43585 0.95604 0.0
C2753 C 0.38165 0.43938 0.9704 0.0
H2754 H 0.41989 0.42796 0.94953 0.0
H2755 H 0.3106 0.46351 0.09069 0.0
H2756 H 0.35328 0.6275 0.77026 0.0
H2757 H 0.33314 0.6518 0.77515 0.0
H2758 H 0.28414 0.61235 0.74655 0.0
H2759 H 0.30419 0.58788 0.74163 0.0
H2760 H 0.28954 0.64837 0.73257 0.0
H2761 H 0.28594 0.62281 0.79379 0.0
H2762 H 0.30006 0.61267 0.82375 0.0
H2763 H 0.33213 0.66967 0.83869 0.0
H2764 H 0.31817 0.68017 0.80879 0.0
H2765 H 0.22621 0.7132 0.74534 0.0
H2766 H 0.24041 0.68414 0.74575 0.0
H2767 H 0.28573 0.71375 0.78806 0.0
H2768 H 0.26979 0.74167 0.78961 0.0
H2769 H 0.28091 0.68053 0.79521 0.0
H2770 H 0.28607 0.70682 0.73454 0.0
H2771 H 0.27445 0.71734 0.70385 0.0
H2772 H 0.24386 0.6603 0.68596 0.0
H2773 H 0.25468 0.64953 0.71685 0.0
C2774 C 0.33817 0.62391 0.76518 0.0
C2775 C 0.33032 0.60578 0.75551 0.0
C2776 C 0.32668 0.63779 0.76806 0.0
C2777 C 0.30714 0.63382 0.76131 0.0
C2778 C 0.29919 0.61565 0.75191 0.0
C2779 C 0.31065 0.60169 0.74915 0.0
C2780 C 0.29531 0.64906 0.76303 0.0
C2781 C 0.28732 0.65525 0.74624 0.0
C2782 C 0.29305 0.65837 0.78086 0.0
C2783 C 0.30107 0.65224 0.79905 0.0
C2784 C 0.29602 0.63317 0.80346 0.0
C2785 C 0.30396 0.62738 0.82044 0.0
C2786 C 0.31696 0.64054 0.83312 0.0
C2787 C 0.32199 0.65954 0.82888 0.0
C2788 C 0.31402 0.66543 0.81196 0.0
C2789 C 0.23906 0.71335 0.7549 0.0
C2790 C 0.24744 0.72995 0.76687 0.0
C2791 C 0.24736 0.69681 0.75495 0.0
C2792 C 0.26476 0.69689 0.76621 0.0
C2793 C 0.27253 0.71324 0.77892 0.0
C2794 C 0.26366 0.72941 0.77955 0.0
C2795 C 0.27509 0.68024 0.7646 0.0
C2796 C 0.28291 0.67373 0.78144 0.0
C2797 C 0.27755 0.67087 0.7467 0.0
C2798 C 0.271 0.67743 0.72814 0.0
C2799 C 0.27673 0.69655 0.72415 0.0
C2800 C 0.27028 0.70256 0.7067 0.0
C2801 C 0.25843 0.68952 0.69295 0.0
C2802 C 0.25299 0.67041 0.69664 0.0
C2803 C 0.25921 0.66436 0.71414 0.0
H2804 H 0.25346 0.69419 0.67944 0.0
H2805 H 0.32314 0.63601 0.84623 0.0
H2806 H 0.24147 0.61011 0.51327 0.0
H2807 H 0.20906 0.59208 0.51307 0.0
H2808 H 0.18577 0.64081 0.49431 0.0
H2809 H 0.21814 0.65917 0.49538 0.0
H2810 H 0.16665 0.62742 0.5202 0.0
H2811 H 0.18642 0.59848 0.46393 0.0
H2812 H 0.20715 0.58246 0.44444 0.0
H2813 H 0.20018 0.53433 0.47806 0.0
H2814 H 0.1796 0.5502 0.49792 0.0
H2815 H 0.0726 0.57617 0.48786 0.0
H2816 H 0.10574 0.59168 0.48614 0.0
H2817 H 0.12578 0.55411 0.52563 0.0
H2818 H 0.09255 0.53883 0.52781 0.0
H2819 H 0.14598 0.56098 0.48896 0.0
H2820 H 0.12603 0.59252 0.54551 0.0
H2821 H 0.10364 0.60907 0.56219 0.0
H2822 H 0.10958 0.65328 0.52384 0.0
H2823 H 0.1318 0.63682 0.50675 0.0
C2824 C 0.22941 0.61693 0.50903 0.0
C2825 C 0.23229 0.63602 0.50433 0.0
C2826 C 0.21089 0.60657 0.50881 0.0
C2827 C 0.19492 0.61496 0.50339 0.0
C2828 C 0.19783 0.63401 0.49856 0.0
C2829 C 0.21633 0.64449 0.49914 0.0
C2830 C 0.17516 0.60416 0.5034 0.0
C2831 C 0.16215 0.61299 0.51314 0.0
C2832 C 0.16923 0.5852 0.49442 0.0
C2833 C 0.18163 0.57562 0.48254 0.0
C2834 C 0.18944 0.58455 0.46727 0.0
C2835 C 0.20114 0.57549 0.45614 0.0
C2836 C 0.20503 0.55741 0.46005 0.0
C2837 C 0.19718 0.54835 0.47507 0.0
C2838 C 0.18548 0.55736 0.48626 0.0
C2839 C 0.08409 0.57115 0.49607 0.0
C2840 C 0.08012 0.55643 0.50805 0.0
C2841 C 0.10294 0.57998 0.49505 0.0
C2842 C 0.11807 0.57399 0.50576 0.0
C2843 C 0.11421 0.55883 0.51724 0.0
C2844 C 0.0953 0.55022 0.51854 0.0
C2845 C 0.13782 0.58431 0.50571 0.0
C2846 C 0.15069 0.5754 0.49599 0.0
C2847 C 0.14355 0.60332 0.51434 0.0
C2848 C 0.1304 0.61334 0.52474 0.0
C2849 C 0.12242 0.60568 0.54053 0.0
C2850 C 0.1098 0.61506 0.55008 0.0
C2851 C 0.10515 0.63219 0.54405 0.0
C2852 C 0.11317 0.64 0.52848 0.0
C2853 C 0.12579 0.63067 0.51888 0.0
H2854 H 0.09536 0.63943 0.55145 0.0
H2855 H 0.21409 0.55041 0.45141 0.0
H2856 H 0.62854 0.92228 0.79155 0.0
H2857 H 0.64787 0.89676 0.79388 0.0
H2858 H 0.69524 0.93382 0.77472 0.0
H2859 H 0.6762 0.95936 0.77257 0.0
H2860 H 0.686 0.89684 0.75454 0.0
H2861 H 0.6972 0.92624 0.82003 0.0
H2862 H 0.68723 0.93686 0.851 0.0
H2863 H 0.66011 0.87903 0.85679 0.0
H2864 H 0.66967 0.86816 0.82567 0.0
H2865 H 0.76552 0.85381 0.76805 0.0
H2866 H 0.74326 0.87615 0.77133 0.0
H2867 H 0.70655 0.83468 0.79908 0.0
H2868 H 0.72974 0.81271 0.79706 0.0
H2869 H 0.70624 0.87016 0.81454 0.0
H2870 H 0.69791 0.83965 0.75138 0.0
H2871 H 0.70907 0.82818 0.72135 0.0
H2872 H 0.72885 0.88649 0.71022 0.0
H2873 H 0.71844 0.89832 0.74054 0.0
C2874 C 0.64313 0.92502 0.78798 0.0
C2875 C 0.65084 0.94284 0.78186 0.0
C2876 C 0.65415 0.91045 0.78936 0.0
C2877 C 0.67298 0.91342 0.78447 0.0
C2878 C 0.68073 0.93123 0.77853 0.0
C2879 C 0.66984 0.94584 0.77737 0.0
C2880 C 0.68455 0.89785 0.78486 0.0
C2881 C 0.69055 0.89109 0.76767 0.0
C2882 C 0.68982 0.88982 0.80187 0.0
C2883 C 0.68398 0.89642 0.82047 0.0
C2884 C 0.68895 0.91583 0.82782 0.0
C2885 C 0.6834 0.9219 0.84541 0.0
C2886 C 0.673 0.90864 0.85583 0.0
C2887 C 0.66814 0.88929 0.84869 0.0
C2888 C 0.67363 0.88317 0.8311 0.0
C2889 C 0.75281 0.8495 0.77503 0.0
C2890 C 0.74899 0.83126 0.78169 0.0
C2891 C 0.74003 0.86225 0.77681 0.0
C2892 C 0.72287 0.85685 0.78482 0.0
C2893 C 0.71952 0.83904 0.79252 0.0
C2894 C 0.7326 0.82638 0.7911 0.0
C2895 C 0.70829 0.86963 0.78429 0.0
C2896 C 0.70156 0.87573 0.80136 0.0
C2897 C 0.70209 0.8769 0.76708 0.0
C2898 C 0.70749 0.86988 0.74834 0.0
C2899 C 0.70469 0.85004 0.74258 0.0
C2900 C 0.71094 0.84347 0.72552 0.0
C2901 C 0.71966 0.85661 0.71389 0.0
C2902 C 0.7221 0.87634 0.71926 0.0
C2903 C 0.71605 0.88299 0.7364 0.0
H2904 H 0.72457 0.85152 0.70074 0.0
H2905 H 0.66873 0.91336 0.86945 0.0
H2906 H 0.66228 0.90417 0.5323 0.0
H2907 H 0.63836 0.92094 0.51728 0.0
H2908 H 0.67823 0.97458 0.52817 0.0
H2909 H 0.70221 0.95797 0.54327 0.0
H2910 H 0.64196 0.97839 0.53487 0.0
H2911 H 0.67319 0.95105 0.4854 0.0
H2912 H 0.68523 0.92534 0.46721 0.0
H2913 H 0.62785 0.89422 0.45326 0.0
H2914 H 0.61546 0.91963 0.47161 0.0
H2915 H 0.58572 0.02801 0.48139 0.0
H2916 H 0.61458 0.01364 0.48483 0.0
H2917 H 0.57973 0.95703 0.47824 0.0
H2918 H 0.5509 0.97127 0.4743 0.0
H2919 H 0.61622 0.95664 0.46746 0.0
H2920 H 0.58583 0.98308 0.51968 0.0
H2921 H 0.57402 0.00944 0.53704 0.0
H2922 H 0.63098 0.04217 0.54687 0.0
H2923 H 0.64303 0.01643 0.52863 0.0
C2924 C 0.66582 0.9196 0.53186 0.0
C2925 C 0.68416 0.92976 0.53879 0.0
C2926 C 0.65222 0.9291 0.52311 0.0
C2927 C 0.65678 0.94886 0.52123 0.0
C2928 C 0.67458 0.95926 0.52932 0.0
C2929 C 0.68821 0.94978 0.538 0.0
C2930 C 0.64311 0.95861 0.51047 0.0
C2931 C 0.63658 0.97387 0.52004 0.0
C2932 C 0.63603 0.95249 0.49118 0.0
C2933 C 0.64341 0.93718 0.48005 0.0
C2934 C 0.66314 0.93865 0.4786 0.0
C2935 C 0.67003 0.92414 0.46824 0.0
C2936 C 0.65732 0.90812 0.45914 0.0
C2937 C 0.63768 0.90662 0.46034 0.0
C2938 C 0.63072 0.92109 0.47071 0.0
C2939 C 0.58428 0.01248 0.47977 0.0
C2940 C 0.56619 0.00071 0.47819 0.0
C2941 C 0.60076 0.0043 0.48174 0.0
C2942 C 0.59917 0.98435 0.48246 0.0
C2943 C 0.58121 0.97248 0.47796 0.0
C2944 C 0.56474 0.98064 0.47579 0.0
C2945 C 0.61504 0.97636 0.49191 0.0
C2946 C 0.62188 0.96135 0.48218 0.0
C2947 C 0.62247 0.9827 0.51111 0.0
C2948 C 0.61528 0.99795 0.52252 0.0
C2949 C 0.59582 0.99596 0.52538 0.0
C2950 C 0.58907 0.01079 0.53538 0.0
C2951 C 0.60172 0.02743 0.5431 0.0
C2952 C 0.62117 0.02929 0.54082 0.0
C2953 C 0.62796 0.01464 0.53055 0.0
H2954 H 0.59644 0.03887 0.55084 0.0
H2955 H 0.66269 0.89691 0.45112 0.0
H2956 H 0.32596 0.50364 0.74136 0.0
H2957 H 0.31043 0.47076 0.74482 0.0
H2958 H 0.36514 0.45217 0.74598 0.0
H2959 H 0.38053 0.48473 0.74162 0.0
H2960 H 0.34084 0.42646 0.72611 0.0
H2961 H 0.34189 0.4602 0.78752 0.0
H2962 H 0.33605 0.48588 0.81069 0.0
H2963 H 0.2755 0.47003 0.79449 0.0
H2964 H 0.28099 0.4444 0.77105 0.0
H2965 H 0.29372 0.34963 0.78912 0.0
H2966 H 0.30879 0.38261 0.78557 0.0
H2967 H 0.28933 0.37422 0.72531 0.0
H2968 H 0.27487 0.34107 0.72863 0.0
H2969 H 0.29698 0.41322 0.77576 0.0
H2970 H 0.32062 0.39952 0.70017 0.0
H2971 H 0.33017 0.37326 0.68034 0.0
H2972 H 0.34831 0.34816 0.7308 0.0
H2973 H 0.33914 0.37441 0.75093 0.0
C2974 C 0.33465 0.49252 0.74231 0.0
C2975 C 0.35448 0.4968 0.74125 0.0
C2976 C 0.32578 0.47373 0.7444 0.0
C2977 C 0.33662 0.45896 0.74598 0.0
C2978 C 0.35641 0.46324 0.74476 0.0
C2979 C 0.36522 0.48191 0.74231 0.0
C2980 C 0.32746 0.43904 0.74886 0.0
C2981 C 0.33125 0.42361 0.73696 0.0
C2982 C 0.31524 0.43515 0.76329 0.0
C2983 C 0.31187 0.45051 0.77741 0.0
C2984 C 0.32734 0.46228 0.78881 0.0
C2985 C 0.32409 0.47681 0.802 0.0
C2986 C 0.30542 0.47962 0.80402 0.0
C2987 C 0.28995 0.46786 0.79289 0.0
C2988 C 0.29312 0.45332 0.77966 0.0
C2989 C 0.29263 0.35482 0.77511 0.0
C2990 C 0.28323 0.34267 0.75913 0.0
C2991 C 0.30122 0.37371 0.77311 0.0
C2992 C 0.30047 0.38087 0.75512 0.0
C2993 C 0.29052 0.36893 0.73926 0.0
C2994 C 0.28219 0.34997 0.7412 0.0
C2995 C 0.31026 0.40071 0.75291 0.0
C2996 C 0.30656 0.41611 0.76489 0.0
C2997 C 0.32314 0.40451 0.73903 0.0
C2998 C 0.329 0.38883 0.72704 0.0
C2999 C 0.32672 0.38844 0.70703 0.0
C3000 C 0.33206 0.37355 0.69574 0.0
C3001 C 0.33978 0.35902 0.7043 0.0
C3002 C 0.34226 0.35939 0.72418 0.0
C3003 C 0.33699 0.37426 0.73554 0.0
H3004 H 0.34387 0.34749 0.69553 0.0
H3005 H 0.30293 0.49087 0.81424 0.0
H3006 H 0.16355 0.54474 0.29755 0.0
H3007 H 0.1873 0.57467 0.30189 0.0
H3008 H 0.16471 0.59047 0.24775 0.0
H3009 H 0.1407 0.56102 0.24357 0.0
H3010 H 0.20799 0.59501 0.25653 0.0
H3011 H 0.14939 0.60946 0.28205 0.0
H3012 H 0.12461 0.60421 0.30409 0.0
H3013 H 0.16801 0.61598 0.35203 0.0
H3014 H 0.19307 0.62103 0.33022 0.0
H3015 H 0.22957 0.69193 0.24406 0.0
H3016 H 0.21634 0.65849 0.24704 0.0
H3017 H 0.22958 0.66828 0.30831 0.0
H3018 H 0.24186 0.70235 0.30533 0.0
H3019 H 0.19662 0.64818 0.30156 0.0
H3020 H 0.25484 0.64029 0.27832 0.0
H3021 H 0.28127 0.64469 0.25811 0.0
H3022 H 0.24267 0.61911 0.20898 0.0
H3023 H 0.21593 0.61481 0.22882 0.0
C3024 C 0.16381 0.55453 0.28651 0.0
C3025 C 0.15025 0.55064 0.27027 0.0
C3026 C 0.17733 0.57158 0.28903 0.0
C3027 C 0.17768 0.58469 0.27512 0.0
C3028 C 0.16464 0.58046 0.25859 0.0
C3029 C 0.1509 0.5637 0.25628 0.0
C3030 C 0.19085 0.60339 0.27805 0.0
C3031 C 0.20561 0.60671 0.26634 0.0
C3032 C 0.18817 0.61826 0.29147 0.0
C3033 C 0.17309 0.61536 0.30452 0.0
C3034 C 0.15365 0.61074 0.29728 0.0
C3035 C 0.13955 0.60784 0.30973 0.0
C3036 C 0.14473 0.60969 0.32945 0.0
C3037 C 0.16402 0.61451 0.33675 0.0
C3038 C 0.17817 0.61739 0.32436 0.0
C3039 C 0.22981 0.68691 0.25815 0.0
C3040 C 0.23674 0.69963 0.27446 0.0
C3041 C 0.22241 0.6677 0.25986 0.0
C3042 C 0.22236 0.66061 0.27788 0.0
C3043 C 0.22954 0.67333 0.29424 0.0
C3044 C 0.23658 0.69275 0.29255 0.0
C3045 C 0.21356 0.64027 0.27946 0.0
C3046 C 0.19954 0.63653 0.29202 0.0
C3047 C 0.21728 0.62487 0.26712 0.0
C3048 C 0.23334 0.62731 0.25508 0.0
C3049 C 0.25195 0.6357 0.26319 0.0
C3050 C 0.267 0.63817 0.25179 0.0
C3051 C 0.26365 0.6322 0.23227 0.0
C3052 C 0.24525 0.62372 0.22411 0.0
C3053 C 0.23014 0.62123 0.23543 0.0
H3054 H 0.27532 0.63413 0.22348 0.0
H3055 H 0.1338 0.60745 0.33906 0.0
H3056 H 0.53784 0.75477 0.44617 0.0
H3057 H 0.53489 0.72849 0.4669 0.0
H3058 H 0.50647 0.68904 0.41921 0.0
H3059 H 0.5093 0.71513 0.39847 0.0
H3060 H 0.48843 0.68475 0.45163 0.0
H3061 H 0.55301 0.69049 0.4336 0.0
H3062 H 0.58561 0.70783 0.4313 0.0
H3063 H 0.59505 0.71927 0.49234 0.0
H3064 H 0.56239 0.70219 0.49497 0.0
H3065 H 0.49601 0.59158 0.47155 0.0
H3066 H 0.49812 0.62293 0.45932 0.0
H3067 H 0.53023 0.6497 0.51224 0.0
H3068 H 0.52862 0.61791 0.52442 0.0
H3069 H 0.546 0.66402 0.48269 0.0
H3070 H 0.48292 0.654 0.50094 0.0
H3071 H 0.45057 0.63627 0.50313 0.0
H3072 H 0.43781 0.63325 0.44224 0.0
H3073 H 0.4703 0.65064 0.43963 0.0
C3074 C 0.5309 0.7405 0.44013 0.0
C3075 C 0.52384 0.737 0.42067 0.0
C3076 C 0.52929 0.72551 0.45197 0.0
C3077 C 0.52057 0.70681 0.44455 0.0
C3078 C 0.51323 0.70338 0.42522 0.0
C3079 C 0.51492 0.71829 0.41337 0.0
C3080 C 0.51918 0.69061 0.4567 0.0
C3081 C 0.501 0.68014 0.45837 0.0
C3082 C 0.53557 0.68507 0.46605 0.0
C3083 C 0.55519 0.69528 0.46446 0.0
C3084 C 0.56198 0.69685 0.44652 0.0
C3085 C 0.58048 0.7066 0.44516 0.0
C3086 C 0.59237 0.71471 0.46166 0.0
C3087 C 0.58581 0.71302 0.47956 0.0
C3088 C 0.56732 0.7033 0.481 0.0
C3089 C 0.50345 0.60413 0.48065 0.0
C3090 C 0.5121 0.60236 0.49896 0.0
C3091 C 0.50454 0.62209 0.47368 0.0
C3092 C 0.51401 0.63876 0.48499 0.0
C3093 C 0.52274 0.63704 0.50332 0.0
C3094 C 0.52178 0.61894 0.51028 0.0
C3095 C 0.51522 0.65773 0.47714 0.0
C3096 C 0.53336 0.66878 0.4763 0.0
C3097 C 0.49877 0.66387 0.46858 0.0
C3098 C 0.47911 0.65356 0.47009 0.0
C3099 C 0.47327 0.64946 0.48799 0.0
C3100 C 0.45487 0.63946 0.48931 0.0
C3101 C 0.44211 0.63362 0.47282 0.0
C3102 C 0.44771 0.63779 0.45499 0.0
C3103 C 0.46612 0.64773 0.45359 0.0
H3104 H 0.42786 0.6259 0.47381 0.0
H3105 H 0.60669 0.72225 0.46058 0.0
H3106 H 0.56315 0.29284 0.65224 0.0
H3107 H 0.59553 0.29702 0.66876 0.0
H3108 H 0.57293 0.26957 0.71625 0.0
H3109 H 0.54047 0.26652 0.70025 0.0
H3110 H 0.59921 0.29664 0.73003 0.0
H3111 H 0.5961 0.24659 0.67938 0.0
H3112 H 0.59097 0.23145 0.64625 0.0
H3113 H 0.63524 0.27443 0.63059 0.0
H3114 H 0.64047 0.29001 0.66357 0.0
H3115 H 0.68568 0.26587 0.76683 0.0
H3116 H 0.6535 0.26702 0.75176 0.0
H3117 H 0.6775 0.30951 0.71619 0.0
H3118 H 0.70965 0.30873 0.7314 0.0
H3119 H 0.65153 0.27633 0.6964 0.0
H3120 H 0.65507 0.32479 0.7489 0.0
H3121 H 0.66047 0.33755 0.78281 0.0
H3122 H 0.6152 0.29396 0.79568 0.0
H3123 H 0.60971 0.28076 0.76188 0.0
C3124 C 0.56513 0.28779 0.66625 0.0
C3125 C 0.54932 0.2793 0.67494 0.0
C3126 C 0.58367 0.29004 0.67564 0.0
C3127 C 0.58686 0.28321 0.69363 0.0
C3128 C 0.57097 0.27496 0.7024 0.0
C3129 C 0.55239 0.27318 0.69323 0.0
C3130 C 0.60665 0.28461 0.70335 0.0
C3131 C 0.61053 0.29194 0.72267 0.0
C3132 C 0.62169 0.27887 0.69378 0.0
C3133 C 0.61851 0.26959 0.6739 0.0
C3134 C 0.60463 0.25291 0.66884 0.0
C3135 C 0.60173 0.24424 0.65009 0.0
C3136 C 0.61273 0.25202 0.63631 0.0
C3137 C 0.6267 0.26846 0.64127 0.0
C3138 C 0.62965 0.27721 0.65998 0.0
C3139 C 0.68407 0.27563 0.75597 0.0
C3140 C 0.70018 0.28729 0.75039 0.0
C3141 C 0.6657 0.27628 0.7474 0.0
C3142 C 0.66315 0.28837 0.7329 0.0
C3143 C 0.67918 0.30013 0.72739 0.0
C3144 C 0.69751 0.29975 0.73619 0.0
C3145 C 0.64383 0.28813 0.72293 0.0
C3146 C 0.64012 0.28103 0.70362 0.0
C3147 C 0.62888 0.29371 0.73257 0.0
C3148 C 0.63211 0.30167 0.75289 0.0
C3149 C 0.64638 0.31781 0.75899 0.0
C3150 C 0.64943 0.32515 0.77819 0.0
C3151 C 0.63822 0.31654 0.7914 0.0
C3152 C 0.62389 0.3006 0.78544 0.0
C3153 C 0.62079 0.2932 0.76626 0.0
H3154 H 0.6406 0.32224 0.80626 0.0
H3155 H 0.61047 0.24527 0.62181 0.0
H3156 H 0.01408 0.3299 0.92696 0.0
H3157 H 0.0094 0.35672 0.9489 0.0
H3158 H 0.04391 0.39651 0.91757 0.0
H3159 H 0.04856 0.36978 0.89541 0.0
H3160 H 0.05114 0.40405 0.95854 0.0
H3161 H -0.00175 0.39123 0.90803 0.0
H3162 H 0.97113 0.37046 0.88815 0.0
H3163 H 0.94344 0.35815 0.93825 0.0
H3164 H 0.97055 0.37865 0.95846 0.0
H3165 H 0.01616 0.49288 0.97191 0.0
H3166 H 0.02579 0.46318 0.95934 0.0
H3167 H 0.99239 0.43156 0.99806 0.0
H3168 H 0.98411 0.46174 0.01179 0.0
H3169 H 0.98502 0.41758 0.95771 0.0
H3170 H 0.03471 0.43605 0.00752 0.0
H3171 H 0.06209 0.45498 0.02836 0.0
H3172 H 0.09705 0.45438 0.98228 0.0
H3173 H 0.06951 0.43682 0.96062 0.0
C3174 C 0.02087 0.34432 0.92484 0.0
C3175 C 0.03159 0.34771 0.90934 0.0
C3176 C 0.01815 0.35962 0.93738 0.0
C3177 C 0.02622 0.37857 0.93476 0.0
C3178 C 0.03759 0.38196 0.91982 0.0
C3179 C 0.04015 0.36668 0.90713 0.0
C3180 C 0.0218 0.39497 0.9468 0.0
C3181 C 0.03677 0.40727 0.95826 0.0
C3182 C 0.00287 0.3985 0.94692 0.0
C3183 C 0.98652 0.38627 0.93477 0.0
C3184 C 0.98645 0.38395 0.91482 0.0
C3185 C 0.97107 0.37226 0.90349 0.0
C3186 C 0.95559 0.36294 0.91194 0.0
C3187 C 0.95545 0.36535 0.93173 0.0
C3188 C 0.97082 0.37701 0.94313 0.0
C3189 C 0.01177 0.47979 0.9784 0.0
C3190 C 0.00029 0.47967 0.99342 0.0
C3191 C 0.01696 0.46279 0.971 0.0
C3192 C 0.01016 0.44528 0.9781 0.0
C3193 C -0.00196 0.44501 0.99265 0.0
C3194 C 0.99325 0.46215 0.00038 0.0
C3195 C 0.01449 0.42717 0.96912 0.0
C3196 C -0.00056 0.41447 0.95818 0.0
C3197 C 0.03341 0.42333 0.9696 0.0
C3198 C 0.04975 0.43532 0.98223 0.0
C3199 C 0.04799 0.44049 0.00155 0.0
C3200 C 0.0636 0.45102 0.01355 0.0
C3201 C 0.08125 0.4561 0.00658 0.0
C3202 C 0.08329 0.45072 0.98757 0.0
C3203 C 0.06762 0.44061 0.97538 0.0
H3204 H 0.09338 0.46406 0.01593 0.0
H3205 H 0.94369 0.3539 0.90314 0.0
H3206 H 0.95267 0.75425 0.21999 0.0
H3207 H 0.92232 0.75593 0.23245 0.0
H3208 H 0.90244 0.78004 0.18167 0.0
H3209 H 0.9332 0.77883 0.16915 0.0
H3210 H 0.89267 0.79845 0.21262 0.0
H3211 H 0.88621 0.73304 0.18821 0.0
H3212 H 0.89522 0.70108 0.18299 0.0
H3213 H 0.89583 0.69452 0.2429 0.0
H3214 H 0.88709 0.72658 0.24854 0.0
H3215 H 0.79581 0.78037 0.23482 0.0
H3216 H 0.82409 0.7777 0.21851 0.0
H3217 H 0.85383 0.76594 0.27114 0.0
H3218 H 0.82533 0.76858 0.28751 0.0
H3219 H 0.85667 0.7406 0.23663 0.0
H3220 H 0.86421 0.80789 0.26009 0.0
H3221 H 0.85293 0.83891 0.26363 0.0
H3222 H 0.84787 0.84068 0.20281 0.0
H3223 H 0.85882 0.80949 0.19888 0.0
C3224 C 0.94188 0.75988 0.21137 0.0
C3225 C 0.94536 0.76628 0.19348 0.0
C3226 C 0.92446 0.76076 0.21852 0.0
C3227 C 0.90995 0.76779 0.20786 0.0
C3228 C 0.91341 0.77448 0.1901 0.0
C3229 C 0.93097 0.77372 0.18295 0.0
C3230 C 0.89131 0.76817 0.21551 0.0
C3231 C 0.88465 0.78572 0.21757 0.0
C3232 C 0.88087 0.7516 0.22212 0.0
C3233 C 0.88615 0.7323 0.21882 0.0
C3234 C 0.88841 0.72485 0.2003 0.0
C3235 C 0.89345 0.7067 0.19726 0.0
C3236 C 0.89613 0.69579 0.21261 0.0
C3237 C 0.89376 0.703 0.23103 0.0
C3238 C 0.88874 0.72115 0.23416 0.0
C3239 C 0.80813 0.77668 0.24276 0.0
C3240 C 0.80824 0.77415 0.26224 0.0
C3241 C 0.82438 0.77543 0.23351 0.0
C3242 C 0.84097 0.77157 0.24364 0.0
C3243 C 0.84108 0.76884 0.2631 0.0
C3244 C 0.82488 0.77039 0.27241 0.0
C3245 C 0.85838 0.77087 0.23403 0.0
C3246 C 0.86471 0.75325 0.23156 0.0
C3247 C 0.86831 0.78728 0.2268 0.0
C3248 C 0.86218 0.80626 0.22918 0.0
C3249 C 0.86057 0.81482 0.24746 0.0
C3250 C 0.85424 0.83245 0.24954 0.0
C3251 C 0.84965 0.84174 0.23345 0.0
C3252 C 0.85142 0.83345 0.21526 0.0
C3253 C 0.8577 0.81581 0.21309 0.0
H3254 H 0.84479 0.85539 0.23509 0.0
H3255 H 0.90002 0.68174 0.21022 0.0
H3256 H 0.51882 0.35058 0.09024 0.0
H3257 H 0.51801 0.37823 0.07186 0.0
H3258 H 0.45959 0.35497 0.04905 0.0
H3259 H 0.46104 0.32634 0.06644 0.0
H3260 H 0.47752 0.37189 0.02267 0.0
H3261 H 0.47098 0.39217 0.08819 0.0
H3262 H 0.48053 0.39409 0.12288 0.0
H3263 H 0.53619 0.42475 0.11536 0.0
H3264 H 0.52688 0.42321 0.08068 0.0
H3265 H 0.46157 0.46388 0.99605 0.0
H3266 H 0.46003 0.43318 0.01001 0.0
H3267 H 0.51945 0.44938 0.03285 0.0
H3268 H 0.52089 0.48026 0.0192 0.0
H3269 H 0.49823 0.43591 0.05932 0.0
H3270 H 0.5047 0.41508 0.99367 0.0
H3271 H 0.4954 0.41226 0.9589 0.0
H3272 H 0.43944 0.38249 0.96665 0.0
H3273 H 0.44838 0.38525 0.00149 0.0
C3274 C 0.50587 0.35137 0.08118 0.0
C3275 C 0.48989 0.33665 0.07985 0.0
C3276 C 0.50535 0.36719 0.07079 0.0
C3277 C 0.4885 0.36904 0.05961 0.0
C3278 C 0.47267 0.35395 0.05775 0.0
C3279 C 0.47345 0.3377 0.06769 0.0
C3280 C 0.48744 0.38702 0.05042 0.0
C3281 C 0.48174 0.38588 0.03073 0.0
C3282 C 0.49312 0.40532 0.06088 0.0
C3283 C 0.49826 0.40748 0.08186 0.0
C3284 C 0.48521 0.3994 0.09398 0.0
C3285 C 0.49059 0.4004 0.11362 0.0
C3286 C 0.50899 0.40944 0.1213 0.0
C3287 C 0.52196 0.4177 0.10938 0.0
C3288 C 0.51659 0.41692 0.08976 0.0
C3289 C 0.47436 0.46071 0.00381 0.0
C3290 C 0.49136 0.47434 0.00668 0.0
C3291 C 0.47347 0.4432 0.01176 0.0
C3292 C 0.48967 0.43894 0.02234 0.0
C3293 C 0.50678 0.45241 0.02478 0.0
C3294 C 0.50761 0.46999 0.017 0.0
C3295 C 0.48869 0.42077 0.03152 0.0
C3296 C 0.49387 0.42191 0.05127 0.0
C3297 C 0.4824 0.40255 0.02112 0.0
C3298 C 0.47717 0.40047 0.00017 0.0
C3299 C 0.4904 0.40798 0.98795 0.0
C3300 C 0.4852 0.40638 0.96824 0.0
C3301 C 0.46683 0.39722 0.96057 0.0
C3302 C 0.45366 0.38956 0.9726 0.0
C3303 C 0.4588 0.3911 0.99233 0.0
H3304 H 0.46282 0.39604 0.94531 0.0
H3305 H 0.51315 0.41016 0.13651 0.0
H3306 H 0.99203 0.26174 0.33 0.0
H3307 H 0.9603 0.25663 0.31217 0.0
H3308 H 0.93467 0.24077 0.36279 0.0
H3309 H 0.96648 0.24559 0.38079 0.0
H3310 H 0.91444 0.22043 0.32802 0.0
H3311 H 0.94041 0.28566 0.35545 0.0
H3312 H 0.96526 0.31486 0.36113 0.0
H3313 H 0.96218 0.32018 0.30085 0.0
H3314 H 0.9375 0.29082 0.29481 0.0
H3315 H 0.82553 0.25307 0.31595 0.0
H3316 H 0.85667 0.24479 0.32598 0.0
H3317 H 0.87956 0.26996 0.27748 0.0
H3318 H 0.84857 0.27885 0.2678 0.0
H3319 H 0.90172 0.28329 0.30846 0.0
H3320 H 0.87204 0.22041 0.28116 0.0
H3321 H 0.84659 0.19166 0.27576 0.0
H3322 H 0.85574 0.18174 0.3348 0.0
H3323 H 0.88104 0.21056 0.34064 0.0
C3324 C 0.9797 0.25678 0.33729 0.0
C3325 C 0.98172 0.25448 0.35692 0.0
C3326 C 0.96159 0.25377 0.32704 0.0
C3327 C 0.94519 0.24863 0.33627 0.0
C3328 C 0.94719 0.24475 0.35544 0.0
C3329 C 0.96536 0.24763 0.36572 0.0
C3330 C 0.92621 0.2503 0.32683 0.0
C3331 C 0.91154 0.23413 0.32377 0.0
C3332 C 0.92264 0.26815 0.32103 0.0
C3333 C 0.93728 0.28595 0.32467 0.0
C3334 C 0.94514 0.29299 0.3434 0.0
C3335 C 0.95917 0.30957 0.34669 0.0
C3336 C 0.96533 0.31934 0.33136 0.0
C3337 C 0.95742 0.31258 0.31271 0.0
C3338 C 0.94341 0.29597 0.30935 0.0
C3339 C 0.8372 0.25669 0.30738 0.0
C3340 C 0.83482 0.26676 0.29125 0.0
C3341 C 0.85491 0.25178 0.313 0.0
C3342 C 0.8704 0.25656 0.30236 0.0
C3343 C 0.8678 0.26611 0.28588 0.0
C3344 C 0.85015 0.27121 0.28039 0.0
C3345 C 0.88973 0.25339 0.30947 0.0
C3346 C 0.90454 0.26941 0.31229 0.0
C3347 C 0.89331 0.23539 0.31494 0.0
C3348 C 0.87838 0.21776 0.31137 0.0
C3349 C 0.86857 0.21216 0.29302 0.0
C3350 C 0.85417 0.19584 0.28987 0.0
C3351 C 0.84955 0.18492 0.30493 0.0
C3352 C 0.85935 0.19023 0.32315 0.0
C3353 C 0.87375 0.20653 0.32638 0.0
H3354 H 0.83837 0.17234 0.3025 0.0
H3355 H 0.9762 0.33218 0.33392 0.0
H3356 H 0.9847 0.74294 0.56355 0.0
H3357 H 0.9815 0.71346 0.54194 0.0
H3358 H 0.01792 0.6901 0.58284 0.0
H3359 H 0.02119 0.71924 0.60444 0.0
H3360 H 0.00853 0.69274 0.52544 0.0
H3361 H 0.9966 0.64476 0.58688 0.0
H3362 H 0.98415 0.64582 0.61821 0.0
H3363 H 0.94771 0.68494 0.5999 0.0
H3364 H 0.95985 0.684 0.56837 0.0
H3365 H 0.0264 0.59718 0.50956 0.0
H3366 H 0.02436 0.63066 0.51855 0.0
H3367 H 0.96326 0.61496 0.51878 0.0
H3368 H 0.96515 0.58138 0.51005 0.0
H3369 H 0.97959 0.63314 0.5519 0.0
H3370 H 0.98183 0.64438 0.48654 0.0
H3371 H 0.99411 0.64313 0.45511 0.0
H3372 H 0.04785 0.67683 0.47985 0.0
H3373 H 0.036 0.67806 0.51149 0.0
C3374 C 0.99222 0.73162 0.56783 0.0
C3375 C 0.003 0.73336 0.58584 0.0
C3376 C 0.99042 0.71484 0.55545 0.0
C3377 C -0.00073 0.69957 0.56095 0.0
C3378 C 0.01079 0.70166 0.57846 0.0
C3379 C 0.01262 0.71836 0.59079 0.0
C3380 C 0.99558 0.68086 0.54918 0.0
C3381 C 0.00209 0.67968 0.53109 0.0
C3382 C 0.98687 0.66393 0.5565 0.0
C3383 C 0.97923 0.66439 0.57531 0.0
C3384 C 0.98586 0.65351 0.5895 0.0
C3385 C 0.97886 0.6541 0.60731 0.0
C3386 C 0.96513 0.66543 0.61106 0.0
C3387 C 0.95837 0.67619 0.59699 0.0
C3388 C 0.96534 0.67567 0.57916 0.0
C3389 C 0.01245 0.60087 0.51111 0.0
C3390 C 0.99598 0.58653 0.50936 0.0
C3391 C 0.0113 0.62008 0.51613 0.0
C3392 C 0.99365 0.62531 0.51934 0.0
C3393 C 0.97703 0.61121 0.51641 0.0
C3394 C 0.97815 0.59201 0.51141 0.0
C3395 C 0.99296 0.6448 0.52823 0.0
C3396 C 0.98571 0.64615 0.54595 0.0
C3397 C 0.00089 0.66179 0.52047 0.0
C3398 C 0.00805 0.66121 0.50143 0.0
C3399 C 0.99632 0.65142 0.48531 0.0
C3400 C 0.00319 0.65073 0.46745 0.0
C3401 C 0.02176 0.65987 0.46549 0.0
C3402 C 0.03347 0.66976 0.48139 0.0
C3403 C 0.02667 0.67048 0.49929 0.0
H3404 H 0.02706 0.65932 0.45165 0.0
H3405 H 0.95974 0.66586 0.62486 0.0
H3406 H 0.54784 0.75403 0.8528 0.0
H3407 H 0.57163 0.75774 0.83038 0.0
H3408 H 0.61579 0.75347 0.87526 0.0
H3409 H 0.59189 0.75033 0.8982 0.0
H3410 H 0.62762 0.78149 0.85378 0.0
H3411 H 0.59788 0.71537 0.84197 0.0
H3412 H 0.57108 0.68798 0.83529 0.0
H3413 H 0.55362 0.70918 0.78232 0.0
H3414 H 0.58017 0.73686 0.78881 0.0
H3415 H 0.68132 0.73734 0.77896 0.0
H3416 H 0.65318 0.73417 0.7962 0.0
H3417 H 0.65114 0.79441 0.79271 0.0
H3418 H 0.68006 0.79784 0.77619 0.0
H3419 H 0.61802 0.73857 0.79341 0.0
H3420 H 0.64025 0.81327 0.83534 0.0
H3421 H 0.66895 0.83855 0.84285 0.0
H3422 H 0.70504 0.79597 0.83824 0.0
H3423 H 0.67656 0.7704 0.8312 0.0
C3424 C 0.5626 0.75381 0.85798 0.0
C3425 C 0.56801 0.75177 0.87727 0.0
C3426 C 0.57617 0.75589 0.84509 0.0
C3427 C 0.5954 0.75558 0.85109 0.0
C3428 C 0.60096 0.75369 0.87037 0.0
C3429 C 0.58734 0.75181 0.88341 0.0
C3430 C 0.60957 0.75729 0.83709 0.0
C3431 C 0.62556 0.77209 0.8406 0.0
C3432 C 0.60688 0.74494 0.81995 0.0
C3433 C 0.59092 0.72828 0.81597 0.0
C3434 C 0.58824 0.71427 0.82897 0.0
C3435 C 0.57311 0.69868 0.8252 0.0
C3436 C 0.56063 0.69686 0.80842 0.0
C3437 C 0.56328 0.71062 0.79533 0.0
C3438 C 0.57838 0.72625 0.79904 0.0
C3439 C 0.67462 0.74982 0.78149 0.0
C3440 C 0.68297 0.76791 0.77663 0.0
C3441 C 0.6585 0.74798 0.79129 0.0
C3442 C 0.6504 0.76417 0.79619 0.0
C3443 C 0.6575 0.78184 0.78948 0.0
C3444 C 0.6739 0.78377 0.77994 0.0
C3445 C 0.63608 0.76277 0.81006 0.0
C3446 C 0.62002 0.74805 0.80654 0.0
C3447 C 0.63903 0.77483 0.82744 0.0
C3448 C 0.65627 0.78997 0.83251 0.0
C3449 C 0.65431 0.8093 0.83606 0.0
C3450 C 0.67054 0.82368 0.84021 0.0
C3451 C 0.68881 0.81889 0.84087 0.0
C3452 C 0.69089 0.79968 0.83764 0.0
C3453 C 0.67471 0.78523 0.83362 0.0
H3454 H 0.70135 0.83006 0.84396 0.0
H3455 H 0.54892 0.68478 0.80553 0.0
H3456 H 0.41291 0.59183 0.69674 0.0
H3457 H 0.42968 0.58729 0.66855 0.0
H3458 H 0.38324 0.54243 0.64395 0.0
H3459 H 0.36618 0.54713 0.67199 0.0
H3460 H 0.42071 0.53191 0.64838 0.0
H3461 H 0.38909 0.58068 0.6228 0.0
H3462 H 0.37922 0.6124 0.62293 0.0
H3463 H 0.43812 0.64011 0.62876 0.0
H3464 H 0.44837 0.60854 0.62895 0.0
H3465 H 0.45592 0.5106 0.56114 0.0
H3466 H 0.43717 0.51849 0.58664 0.0
H3467 H 0.47681 0.57171 0.60271 0.0
H3468 H 0.49526 0.56426 0.57645 0.0
H3469 H 0.44238 0.57843 0.60266 0.0
H3470 H 0.47482 0.53142 0.62964 0.0
H3471 H 0.48613 0.50044 0.63071 0.0
H3472 H 0.42801 0.47042 0.62453 0.0
H3473 H 0.41634 0.50121 0.62317 0.0
C3474 C 0.40608 0.58131 0.68512 0.0
C3475 C 0.38831 0.56976 0.68655 0.0
C3476 C 0.41565 0.57877 0.66904 0.0
C3477 C 0.40768 0.56451 0.65426 0.0
C3478 C 0.38956 0.55353 0.65526 0.0
C3479 C 0.37981 0.55628 0.67121 0.0
C3480 C 0.41919 0.55978 0.63884 0.0
C3481 C 0.42521 0.54192 0.63814 0.0
C3482 C 0.42564 0.57323 0.6261 0.0
C3483 C 0.4195 0.59224 0.6261 0.0
C3484 C 0.39995 0.59354 0.62432 0.0
C3485 C 0.39428 0.61149 0.62428 0.0
C3486 C 0.40803 0.62827 0.6259 0.0
C3487 C 0.42748 0.62711 0.62753 0.0
C3488 C 0.43323 0.60918 0.62758 0.0
C3489 C 0.46087 0.52386 0.57027 0.0
C3490 C 0.47719 0.53675 0.56688 0.0
C3491 C 0.45011 0.52835 0.58489 0.0
C3492 C 0.45572 0.54556 0.59683 0.0
C3493 C 0.47221 0.55833 0.5937 0.0
C3494 C 0.48281 0.55402 0.57878 0.0
C3495 C 0.44393 0.55045 0.61209 0.0
C3496 C 0.4379 0.56836 0.61285 0.0
C3497 C 0.43774 0.53717 0.62516 0.0
C3498 C 0.44471 0.51862 0.62614 0.0
C3499 C 0.46445 0.5182 0.62839 0.0
C3500 C 0.47093 0.50067 0.62906 0.0
C3501 C 0.4578 0.48347 0.62765 0.0
C3502 C 0.43816 0.48376 0.62561 0.0
C3503 C 0.43161 0.50125 0.62491 0.0
H3504 H 0.46284 0.46991 0.62816 0.0
H3505 H 0.40361 0.64215 0.62586 0.0
H3506 H 0.79631 0.22702 0.96534 0.0
H3507 H 0.79067 0.24295 0.93634 0.0
H3508 H 0.78091 0.18806 0.9026 0.0
H3509 H 0.78719 0.1722 0.93139 0.0
H3510 H 0.79956 0.21275 0.88374 0.0
H3511 H 0.74336 0.21114 0.91542 0.0
H3512 H 0.72431 0.21634 0.94208 0.0
H3513 H 0.74349 0.27733 0.94422 0.0
H3514 H 0.76286 0.27247 0.91773 0.0
H3515 H 0.73518 0.263 0.81564 0.0
H3516 H 0.73963 0.24417 0.84303 0.0
H3517 H 0.7994 0.27005 0.85216 0.0
H3518 H 0.79495 0.28899 0.82505 0.0
H3519 H 0.75284 0.2574 0.88171 0.0
H3520 H 0.82369 0.23342 0.86323 0.0
H3521 H 0.83846 0.22378 0.83464 0.0
H3522 H 0.78285 0.20734 0.80293 0.0
H3523 H 0.76776 0.21661 0.83136 0.0
C3524 C 0.79316 0.21838 0.95172 0.0
C3525 C 0.79216 0.19833 0.95071 0.0
C3526 C 0.78978 0.22748 0.93513 0.0
C3527 C 0.78498 0.2167 0.91723 0.0
C3528 C 0.78454 0.19675 0.91618 0.0
C3529 C 0.78813 0.18768 0.9327 0.0
C3530 C 0.78012 0.2261 0.89966 0.0
C3531 C 0.78938 0.22254 0.88339 0.0
C3532 C 0.76635 0.23842 0.8988 0.0
C3533 C 0.7547 0.24142 0.91472 0.0
C3534 C 0.74362 0.22565 0.92167 0.0
C3535 C 0.73275 0.22854 0.93674 0.0
C3536 C 0.73272 0.24715 0.94487 0.0
C3537 C 0.74354 0.26292 0.93792 0.0
C3538 C 0.75446 0.26011 0.92287 0.0
C3539 C 0.74925 0.26457 0.82349 0.0
C3540 C 0.76472 0.2774 0.81829 0.0
C3541 C 0.75175 0.25393 0.83917 0.0
C3542 C 0.76986 0.2557 0.8496 0.0
C3543 C 0.78533 0.26843 0.84428 0.0
C3544 C 0.78276 0.27929 0.82886 0.0
C3545 C 0.7727 0.24444 0.86619 0.0
C3546 C 0.76305 0.24764 0.8822 0.0
C3547 C 0.78559 0.23129 0.86659 0.0
C3548 C 0.79463 0.22587 0.8494 0.0
C3549 C 0.81463 0.2277 0.85017 0.0
C3550 C 0.82305 0.22227 0.834 0.0
C3551 C 0.8116 0.21489 0.81701 0.0
C3552 C 0.79171 0.21304 0.81611 0.0
C3553 C 0.78322 0.21843 0.83223 0.0
H3554 H 0.81814 0.21067 0.80452 0.0
H3555 H 0.72429 0.24936 0.95654 0.0
H3556 H 0.11865 0.48112 0.19974 0.0
H3557 H 0.10529 0.4859 0.16765 0.0
H3558 H 0.05011 0.48652 0.18773 0.0
H3559 H 0.06327 0.48139 0.21977 0.0
H3560 H 0.04621 0.4675 0.15279 0.0
H3561 H 0.08015 0.52827 0.18321 0.0
H3562 H 0.108 0.55058 0.20022 0.0
H3563 H 0.14044 0.54205 0.15309 0.0
H3564 H 0.11286 0.51943 0.13592 0.0
H3565 H 0.00501 0.51703 0.0803 0.0
H3566 H 0.01827 0.50808 0.11081 0.0
H3567 H 0.07197 0.50552 0.08821 0.0
H3568 H 0.0589 0.51453 0.05766 0.0
H3569 H 0.077 0.52479 0.12386 0.0
H3570 H 0.04217 0.46472 0.09299 0.0
H3571 H 0.01397 0.44274 0.07622 0.0
H3572 H 0.98271 0.45054 0.12439 0.0
H3573 H 0.01065 0.47281 0.14135 0.0
C3574 C 0.10361 0.48204 0.19728 0.0
C3575 C 0.09206 0.48105 0.21234 0.0
C3576 C 0.09601 0.48485 0.17894 0.0
C3577 C 0.07678 0.48694 0.17536 0.0
C3578 C 0.065 0.48504 0.19017 0.0
C3579 C 0.07256 0.48214 0.20849 0.0
C3580 C 0.06915 0.49195 0.15645 0.0
C3581 C 0.05283 0.48013 0.14655 0.0
C3582 C 0.07796 0.50826 0.14815 0.0
C3583 C 0.09451 0.522 0.15837 0.0
C3584 C 0.09327 0.53104 0.17653 0.0
C3585 C 0.109 0.54376 0.1862 0.0
C3586 C 0.126 0.54769 0.17776 0.0
C3587 C 0.12727 0.53896 0.15962 0.0
C3588 C 0.1116 0.5262 0.14991 0.0
C3589 C 0.01964 0.51456 0.08177 0.0
C3590 C 0.03085 0.51643 0.06646 0.0
C3591 C 0.02717 0.50937 0.09922 0.0
C3592 C 0.04605 0.50594 0.10172 0.0
C3593 C 0.05736 0.50805 0.08658 0.0
C3594 C 0.04982 0.51316 0.0691 0.0
C3595 C 0.05406 0.50035 0.12021 0.0
C3596 C 0.07044 0.5121 0.13005 0.0
C3597 C 0.04524 0.48405 0.12849 0.0
C3598 C 0.02845 0.47058 0.11837 0.0
C3599 C 0.02924 0.46187 0.09995 0.0
C3600 C 0.01331 0.44934 0.09042 0.0
C3601 C 0.99654 0.44528 0.09922 0.0
C3602 C 0.9957 0.45371 0.11758 0.0
C3603 C 0.01158 0.46628 0.12717 0.0
H3604 H 0.98423 0.43557 0.09182 0.0
H3605 H 0.13816 0.55754 0.18527 0.0
H3606 H 0.71955 0.90491 0.45242 0.0
H3607 H 0.71906 0.88339 0.42357 0.0
H3608 H 0.70468 0.83422 0.4552 0.0
H3609 H 0.70591 0.85564 0.48421 0.0
H3610 H 0.73411 0.83058 0.43791 0.0
H3611 H 0.67252 0.8449 0.41812 0.0
H3612 H 0.64904 0.8664 0.41286 0.0
H3613 H 0.68282 0.89469 0.37273 0.0
H3614 H 0.7065 0.87337 0.37776 0.0
H3615 H 0.71616 0.78423 0.3322 0.0
H3616 H 0.70446 0.79774 0.36079 0.0
H3617 H 0.76165 0.8278 0.38044 0.0
H3618 H 0.77334 0.81431 0.35178 0.0
H3619 H 0.70522 0.83575 0.37224 0.0
H3620 H 0.76829 0.82906 0.42845 0.0
H3621 H 0.7908 0.80681 0.43482 0.0
H3622 H 0.75077 0.76028 0.40339 0.0
H3623 H 0.72792 0.78218 0.39706 0.0
C3624 C 0.71587 0.88952 0.4531 0.0
C3625 C 0.71305 0.88191 0.47056 0.0
C3626 C 0.71549 0.87723 0.43658 0.0
C3627 C 0.71181 0.85718 0.43723 0.0
C3628 C 0.70767 0.84963 0.45441 0.0
C3629 C 0.70838 0.86188 0.47096 0.0
C3630 C 0.7146 0.84419 0.42069 0.0
C3631 C 0.72761 0.83158 0.42359 0.0
C3632 C 0.70591 0.84525 0.40205 0.0
C3633 C 0.69132 0.85758 0.39838 0.0
C3634 C 0.67493 0.85571 0.40817 0.0
C3635 C 0.66159 0.86786 0.40522 0.0
C3636 C 0.66446 0.88193 0.3925 0.0
C3637 C 0.68063 0.88381 0.38261 0.0
C3638 C 0.69396 0.87161 0.38541 0.0
C3639 C 0.72624 0.79348 0.34277 0.0
C3640 C 0.74561 0.7982 0.33989 0.0
C3641 C 0.71954 0.80127 0.359 0.0
C3642 C 0.73221 0.81368 0.37271 0.0
C3643 C 0.75169 0.81807 0.37008 0.0
C3644 C 0.75835 0.81037 0.35376 0.0
C3645 C 0.72509 0.82263 0.38952 0.0
C3646 C 0.71137 0.83451 0.38664 0.0
C3647 C 0.73285 0.82065 0.40826 0.0
C3648 C 0.74645 0.80732 0.41217 0.0
C3649 C 0.76425 0.81406 0.42298 0.0
C3650 C 0.77708 0.80151 0.42657 0.0
C3651 C 0.77224 0.78215 0.41948 0.0
C3652 C 0.75453 0.77529 0.40882 0.0
C3653 C 0.74165 0.78777 0.4052 0.0
H3654 H 0.78219 0.77246 0.42226 0.0
H3655 H 0.65413 0.89135 0.39026 0.0
H3656 H 0.39346 0.5793 0.80639 0.0
H3657 H 0.4072 0.58138 0.83979 0.0
H3658 H 0.45725 0.56155 0.82179 0.0
H3659 H 0.44381 0.55948 0.78857 0.0
H3660 H 0.43885 0.53922 0.84719 0.0
H3661 H 0.46171 0.60575 0.8407 0.0
H3662 H 0.45978 0.63902 0.83395 0.0
H3663 H 0.42272 0.64361 0.87788 0.0
H3664 H 0.42414 0.61022 0.88468 0.0
H3665 H 0.49472 0.54115 0.93344 0.0
H3666 H 0.48468 0.55011 0.9019 0.0
H3667 H 0.43775 0.57258 0.92422 0.0
H3668 H 0.44806 0.56396 0.95611 0.0
H3669 H 0.45361 0.59432 0.89714 0.0
H3670 H 0.42993 0.52777 0.90302 0.0
H3671 H 0.43249 0.49483 0.91056 0.0
H3672 H 0.47098 0.49059 0.86788 0.0
H3673 H 0.46886 0.52363 0.86028 0.0
C3674 C 0.40753 0.57569 0.80953 0.0
C3675 C 0.41742 0.56897 0.79482 0.0
C3676 C 0.41539 0.57699 0.8286 0.0
C3677 C 0.4332 0.57157 0.83318 0.0
C3678 C 0.44346 0.56576 0.8185 0.0
C3679 C 0.43571 0.56456 0.79951 0.0
C3680 C 0.4402 0.56974 0.85319 0.0
C3681 C 0.44232 0.55134 0.85806 0.0
C3682 C 0.44409 0.58546 0.86743 0.0
C3683 C 0.4428 0.60536 0.863 0.0
C3684 C 0.45291 0.61374 0.84874 0.0
C3685 C 0.45197 0.63265 0.84495 0.0
C3686 C 0.44107 0.6434 0.85543 0.0
C3687 C 0.43111 0.63525 0.86973 0.0
C3688 C 0.43196 0.61633 0.87355 0.0
C3689 C 0.48241 0.54823 0.93168 0.0
C3690 C 0.47191 0.55156 0.94703 0.0
C3691 C 0.47669 0.55332 0.91368 0.0
C3692 C 0.46021 0.56155 0.91068 0.0
C3693 C 0.45041 0.56607 0.92626 0.0
C3694 C 0.45624 0.56109 0.94439 0.0
C3695 C 0.45249 0.56395 0.89102 0.0
C3696 C 0.45011 0.5823 0.88624 0.0
C3697 C 0.44823 0.5482 0.8768 0.0
C3698 C 0.44936 0.52823 0.8812 0.0
C3699 C 0.43904 0.51986 0.89533 0.0
C3700 C 0.4404 0.50117 0.8996 0.0
C3701 C 0.45192 0.49064 0.88973 0.0
C3702 C 0.46207 0.49877 0.87553 0.0
C3703 C 0.46078 0.51747 0.87122 0.0
H3704 H 0.45296 0.47617 0.89307 0.0
H3705 H 0.4404 0.65805 0.8525 0.0
H3706 H 0.80465 0.17021 0.0857 0.0
H3707 H 0.80183 0.18811 0.11587 0.0
H3708 H 0.77896 0.23107 0.08524 0.0
H3709 H 0.78268 0.21349 0.05481 0.0
H3710 H 0.79994 0.24805 0.11612 0.0
H3711 H 0.74947 0.19385 0.1043 0.0
H3712 H 0.73457 0.15978 0.09648 0.0
H3713 H 0.76547 0.14484 0.14668 0.0
H3714 H 0.78076 0.1788 0.15469 0.0
H3715 H 0.75497 0.28025 0.1971 0.0
H3716 H 0.76032 0.26643 0.16558 0.0
H3717 H 0.79439 0.22895 0.19232 0.0
H3718 H 0.78932 0.24282 0.22383 0.0
H3719 H 0.76613 0.21015 0.16278 0.0
H3720 H 0.81647 0.26597 0.1737 0.0
H3721 H 0.82932 0.30059 0.18098 0.0
H3722 H 0.79533 0.313 0.13153 0.0
H3723 H 0.78206 0.27845 0.1241 0.0
C3724 C 0.7993 0.18364 0.08538 0.0
C3725 C 0.79375 0.19038 0.06789 0.0
C3726 C 0.79753 0.1938 0.10266 0.0
C3727 C 0.78958 0.21065 0.10292 0.0
C3728 C 0.78497 0.21801 0.08546 0.0
C3729 C 0.78713 0.208 0.06807 0.0
C3730 C 0.7855 0.22002 0.1214 0.0
C3731 C 0.7923 0.23978 0.12617 0.0
C3732 C 0.77561 0.20931 0.1347 0.0
C3733 C 0.76639 0.18886 0.13 0.0
C3734 C 0.75319 0.18329 0.11361 0.0
C3735 C 0.74466 0.16399 0.10915 0.0
C3736 C 0.74911 0.15015 0.12105 0.0
C3737 C 0.76206 0.15558 0.13747 0.0
C3738 C 0.77065 0.17485 0.14198 0.0
C3739 C 0.76365 0.26911 0.19627 0.0
C3740 C 0.7718 0.26271 0.21299 0.0
C3741 C 0.76675 0.26128 0.17824 0.0
C3742 C 0.77785 0.24674 0.17659 0.0
C3743 C 0.78583 0.2402 0.19325 0.0
C3744 C 0.78299 0.24821 0.21126 0.0
C3745 C 0.78082 0.238 0.15752 0.0
C3746 C 0.77372 0.21836 0.15265 0.0
C3747 C 0.79009 0.24889 0.14404 0.0
C3748 C 0.79812 0.26965 0.14846 0.0
C3749 C 0.8116 0.2761 0.16447 0.0
C3750 C 0.81899 0.2957 0.16861 0.0
C3751 C 0.8131 0.30899 0.15676 0.0
C3752 C 0.79985 0.30269 0.14071 0.0
C3753 C 0.79241 0.2831 0.13652 0.0
H3754 H 0.81884 0.32417 0.15998 0.0
H3755 H 0.74249 0.13522 0.11757 0.0
H3756 H 0.08846 0.47959 0.33055 0.0
H3757 H 0.07586 0.48272 0.3616 0.0
H3758 H 0.05691 0.53505 0.34732 0.0
H3759 H 0.06912 0.53194 0.31636 0.0
H3760 H 0.07601 0.53701 0.38536 0.0
H3761 H 0.02548 0.49612 0.34136 0.0
H3762 H 0.0126 0.46731 0.31905 0.0
H3763 H 0.02474 0.43098 0.36286 0.0
H3764 H 0.03793 0.45959 0.38535 0.0
H3765 H 0.98571 0.5271 0.43756 0.0
H3766 H 0.00266 0.52296 0.40932 0.0
H3767 H 0.05262 0.51529 0.44536 0.0
H3768 H 0.03563 0.51893 0.47356 0.0
H3769 H 0.0198 0.48984 0.39781 0.0
H3770 H 0.09098 0.53892 0.42386 0.0
H3771 H 0.10383 0.56725 0.44687 0.0
H3772 H 0.05006 0.58692 0.43939 0.0
H3773 H 0.03697 0.55882 0.41625 0.0
C3774 C 0.08169 0.49179 0.33409 0.0
C3775 C 0.07966 0.50543 0.32095 0.0
C3776 C 0.07452 0.49356 0.3518 0.0
C3777 C 0.06548 0.50913 0.3567 0.0
C3778 C 0.06391 0.52299 0.34382 0.0
C3779 C 0.07078 0.52109 0.32608 0.0
C3780 C 0.05675 0.51069 0.3748 0.0
C3781 C 0.06383 0.52661 0.38817 0.0
C3782 C 0.04088 0.49713 0.37844 0.0
C3783 C 0.03287 0.47997 0.36495 0.0
C3784 C 0.02554 0.48198 0.34617 0.0
C3785 C 0.01816 0.46569 0.33351 0.0
C3786 C 0.0179 0.44733 0.33952 0.0
C3787 C 0.02498 0.44521 0.35822 0.0
C3788 C 0.0324 0.46145 0.37092 0.0
C3789 C 0.00033 0.52462 0.43944 0.0
C3790 C 0.00942 0.52346 0.45771 0.0
C3791 C 0.00994 0.52217 0.42334 0.0
C3792 C 0.02885 0.51883 0.42532 0.0
C3793 C 0.03805 0.51794 0.44358 0.0
C3794 C 0.02836 0.52012 0.45965 0.0
C3795 C 0.03893 0.51624 0.40823 0.0
C3796 C 0.03214 0.5001 0.39511 0.0
C3797 C 0.05514 0.52952 0.40489 0.0
C3798 C 0.06298 0.54671 0.41844 0.0
C3799 C 0.08194 0.54935 0.42707 0.0
C3800 C 0.08926 0.56535 0.44014 0.0
C3801 C 0.07776 0.57887 0.44457 0.0
C3802 C 0.05893 0.57642 0.43596 0.0
C3803 C 0.05155 0.56044 0.4229 0.0
H3804 H 0.08345 0.59126 0.45465 0.0
H3805 H 0.01217 0.43474 0.3297 0.0
H3806 H 0.76141 0.87281 0.5925 0.0
H3807 H 0.76339 0.84882 0.6152 0.0
H3808 H 0.71824 0.80936 0.58041 0.0
H3809 H 0.71627 0.83333 0.55743 0.0
H3810 H 0.71103 0.81578 0.61776 0.0
H3811 H 0.76014 0.79608 0.58549 0.0
H3812 H 0.7892 0.79937 0.56888 0.0
H3813 H 0.82285 0.82734 0.62014 0.0
H3814 H 0.79396 0.82451 0.63701 0.0
H3815 H 0.72391 0.77146 0.70512 0.0
H3816 H 0.7194 0.77487 0.6708 0.0
H3817 H 0.76997 0.81906 0.6772 0.0
H3818 H 0.77512 0.81467 0.71102 0.0
H3819 H 0.77057 0.79737 0.64695 0.0
H3820 H 0.71883 0.82737 0.67321 0.0
H3821 H 0.68915 0.8263 0.6889 0.0
H3822 H 0.66086 0.77952 0.6484 0.0
H3823 H 0.69028 0.78049 0.6324 0.0
C3824 C 0.75212 0.85893 0.58952 0.0
C3825 C 0.7386 0.85497 0.57332 0.0
C3826 C 0.75337 0.84517 0.60239 0.0
C3827 C 0.74108 0.82728 0.59933 0.0
C3828 C 0.72794 0.82304 0.58288 0.0
C3829 C 0.72683 0.83675 0.56984 0.0
C3830 C 0.74053 0.81432 0.61467 0.0
C3831 C 0.72389 0.81123 0.6239 0.0
C3832 C 0.75729 0.80838 0.62254 0.0
C3833 C 0.77482 0.81009 0.61252 0.0
C3834 C 0.77371 0.80304 0.59321 0.0
C3835 C 0.79017 0.80481 0.58374 0.0
C3836 C 0.80786 0.81356 0.59344 0.0
C3837 C 0.80913 0.82054 0.61264 0.0
C3838 C 0.79272 0.81882 0.62218 0.0
C3839 C 0.73396 0.78192 0.69908 0.0
C3840 C 0.74981 0.79289 0.71056 0.0
C3841 C 0.73138 0.78389 0.67952 0.0
C3842 C 0.74425 0.79734 0.67139 0.0
C3843 C 0.75994 0.80843 0.68305 0.0
C3844 C 0.76282 0.80605 0.70239 0.0
C3845 C 0.74158 0.80049 0.65089 0.0
C3846 C 0.75755 0.80141 0.64055 0.0
C3847 C 0.72425 0.80458 0.64204 0.0
C3848 C 0.70675 0.80384 0.65184 0.0
C3849 C 0.70629 0.81681 0.66779 0.0
C3850 C 0.68954 0.81623 0.6767 0.0
C3851 C 0.67321 0.80275 0.66976 0.0
C3852 C 0.67354 0.7899 0.65381 0.0
C3853 C 0.69021 0.79049 0.64479 0.0
H3854 H 0.66026 0.80233 0.67669 0.0
H3855 H 0.82058 0.81492 0.58609 0.0
H3856 H 0.63939 0.38995 0.52651 0.0
H3857 H 0.61209 0.40705 0.52685 0.0
H3858 H 0.65109 0.46089 0.54127 0.0
H3859 H 0.67813 0.44407 0.5412 0.0
H3860 H 0.62217 0.45862 0.56271 0.0
H3861 H 0.62982 0.446 0.49578 0.0
H3862 H 0.6307 0.42572 0.46602 0.0
H3863 H 0.57275 0.39805 0.46868 0.0
H3864 H 0.57165 0.41801 0.49863 0.0
H3865 H 0.57277 0.53245 0.53679 0.0
H3866 H 0.59441 0.50914 0.53963 0.0
H3867 H 0.54666 0.4626 0.52405 0.0
H3868 H 0.52514 0.48591 0.5207 0.0
H3869 H 0.57612 0.45703 0.50515 0.0
H3870 H 0.56732 0.47167 0.57015 0.0
H3871 H 0.56594 0.49238 0.59949 0.0
H3872 H 0.6255 0.51638 0.60033 0.0
H3873 H 0.62718 0.496 0.57082 0.0
C3874 C 0.64208 0.40542 0.52981 0.0
C3875 C 0.66092 0.41565 0.53379 0.0
C3876 C 0.62649 0.41517 0.52994 0.0
C3877 C 0.62956 0.43528 0.53399 0.0
C3878 C 0.64835 0.44539 0.53817 0.0
C3879 C 0.66383 0.43572 0.53805 0.0
C3880 C 0.61343 0.44615 0.53378 0.0
C3881 C 0.61217 0.45835 0.55008 0.0
C3882 C 0.59997 0.44534 0.51753 0.0
C3883 C 0.60077 0.43323 0.49964 0.0
C3884 C 0.61736 0.4354 0.49017 0.0
C3885 C 0.61788 0.42402 0.47323 0.0
C3886 C 0.60183 0.41052 0.46552 0.0
C3887 C 0.5852 0.40844 0.4747 0.0
C3888 C 0.58462 0.41978 0.49166 0.0
C3889 C 0.5669 0.51724 0.53413 0.0
C3890 C 0.54724 0.51097 0.52881 0.0
C3891 C 0.57924 0.50392 0.53582 0.0
C3892 C 0.57212 0.48408 0.53234 0.0
C3893 C 0.55247 0.47781 0.52693 0.0
C3894 C 0.54015 0.49114 0.5252 0.0
C3895 C 0.58534 0.46999 0.53383 0.0
C3896 C 0.58597 0.45713 0.51786 0.0
C3897 C 0.59825 0.47018 0.55037 0.0
C3898 C 0.59734 0.48239 0.56819 0.0
C3899 C 0.5801 0.48145 0.57651 0.0
C3900 C 0.57926 0.49312 0.59319 0.0
C3901 C 0.59561 0.50571 0.60175 0.0
C3902 C 0.61284 0.50662 0.59368 0.0
C3903 C 0.61375 0.495 0.57699 0.0
H3904 H 0.59493 0.51474 0.61466 0.0
H3905 H 0.60225 0.40174 0.45238 0.0
H3906 H 0.21269 0.09564 0.46887 0.0
H3907 H 0.17914 0.08047 0.46782 0.0
H3908 H 0.1664 0.13264 0.49546 0.0
H3909 H 0.19972 0.1481 0.49578 0.0
H3910 H 0.16004 0.07178 0.49545 0.0
H3911 H 0.12017 0.13627 0.48552 0.0
H3912 H 0.12301 0.16559 0.46856 0.0
H3913 H 0.15456 0.1401 0.42774 0.0
H3914 H 0.15167 0.11053 0.44427 0.0
H3915 H 0.06963 0.051 0.52803 0.0
H3916 H 0.10147 0.06665 0.52219 0.0
H3917 H 0.08111 0.06863 0.46299 0.0
H3918 H 0.04904 0.05366 0.46891 0.0
H3919 H 0.1035 0.10066 0.47519 0.0
H3920 H 0.10791 0.03439 0.47772 0.0
H3921 H 0.10454 0.00315 0.49134 0.0
H3922 H 0.14341 0.02865 0.54032 0.0
H3923 H 0.14682 0.06011 0.5271 0.0
C3924 C 0.20264 0.10395 0.47444 0.0
C3925 C 0.20878 0.12302 0.48242 0.0
C3926 C 0.1835 0.09526 0.47388 0.0
C3927 C 0.1702 0.10542 0.48147 0.0
C3928 C 0.17627 0.12462 0.48915 0.0
C3929 C 0.19535 0.13341 0.48942 0.0
C3930 C 0.15033 0.09554 0.48258 0.0
C3931 C 0.14768 0.07807 0.4909 0.0
C3932 C 0.13416 0.10356 0.4764 0.0
C3933 C 0.13585 0.12125 0.46626 0.0
C3934 C 0.12765 0.13689 0.47288 0.0
C3935 C 0.12928 0.15356 0.46335 0.0
C3936 C 0.13901 0.15473 0.44712 0.0
C3937 C 0.14709 0.13921 0.44035 0.0
C3938 C 0.14548 0.1225 0.44981 0.0
C3939 C 0.07194 0.05476 0.51377 0.0
C3940 C 0.05689 0.05098 0.4989 0.0
C3941 C 0.09016 0.06365 0.51043 0.0
C3942 C 0.09376 0.06849 0.49206 0.0
C3943 C 0.07866 0.06499 0.47727 0.0
C3944 C 0.06036 0.05639 0.48067 0.0
C3945 C 0.1133 0.07709 0.48828 0.0
C3946 C 0.11587 0.09434 0.47956 0.0
C3947 C 0.12939 0.06858 0.49356 0.0
C3948 C 0.1275 0.04964 0.50148 0.0
C3949 C 0.11565 0.03336 0.49145 0.0
C3950 C 0.11374 0.01561 0.49909 0.0
C3951 C 0.12372 0.01392 0.5167 0.0
C3952 C 0.13567 0.02998 0.52668 0.0
C3953 C 0.13762 0.04777 0.51911 0.0
H3954 H 0.12222 0.00017 0.5226 0.0
H3955 H 0.14027 0.16765 0.43977 0.0
H3956 H 0.15461 0.93793 0.77612 0.0
H3957 H 0.17364 0.91248 0.77501 0.0
H3958 H 0.22522 0.95443 0.79069 0.0
H3959 H 0.20614 0.98027 0.79095 0.0
H3960 H 0.2313 0.92895 0.76417 0.0
H3961 H 0.20362 0.92536 0.82238 0.0
H3962 H 0.17848 0.92316 0.84411 0.0
H3963 H 0.15222 0.86785 0.81595 0.0
H3964 H 0.17697 0.86984 0.79378 0.0
H3965 H 0.28394 0.85273 0.78637 0.0
H3966 H 0.2692 0.88171 0.78906 0.0
H3967 H 0.21502 0.84826 0.76424 0.0
H3968 H 0.22971 0.81965 0.76186 0.0
H3969 H 0.21277 0.87086 0.79773 0.0
H3970 H 0.23873 0.8769 0.73769 0.0
H3971 H 0.26429 0.87897 0.71638 0.0
H3972 H 0.29495 0.92974 0.75016 0.0
H3973 H 0.26968 0.9278 0.77185 0.0
C3974 C 0.17 0.94178 0.77946 0.0
C3975 C 0.17887 0.9611 0.78385 0.0
C3976 C 0.18087 0.92717 0.77886 0.0
C3977 C 0.20085 0.93144 0.78317 0.0
C3978 C 0.20982 0.95076 0.78741 0.0
C3979 C 0.19892 0.9655 0.78766 0.0
C3980 C 0.21219 0.91563 0.7831 0.0
C3981 C 0.2275 0.91645 0.77187 0.0
C3982 C 0.20706 0.89912 0.79288 0.0
C3983 C 0.19206 0.89788 0.8062 0.0
C3984 C 0.19235 0.91284 0.82062 0.0
C3985 C 0.17818 0.9116 0.83307 0.0
C3986 C 0.16373 0.8954 0.83137 0.0
C3987 C 0.16342 0.88039 0.81724 0.0
C3988 C 0.17752 0.88157 0.80473 0.0
C3989 C 0.26895 0.85168 0.7813 0.0
C3990 C 0.25798 0.83397 0.7734 0.0
C3991 C 0.26057 0.86821 0.78282 0.0
C3992 C 0.24105 0.86714 0.77667 0.0
C3993 C 0.23013 0.84945 0.76892 0.0
C3994 C 0.23857 0.8331 0.76725 0.0
C3995 C 0.23168 0.88421 0.7788 0.0
C3996 C 0.21669 0.88354 0.79032 0.0
C3997 C 0.23724 0.90089 0.76952 0.0
C3998 C 0.25244 0.90207 0.75653 0.0
C3999 C 0.25102 0.88839 0.74069 0.0
C4000 C 0.26543 0.88956 0.72852 0.0
C4001 C 0.28126 0.90444 0.73195 0.0
C4002 C 0.28269 0.9182 0.74754 0.0
C4003 C 0.26833 0.91708 0.75978 0.0
H4004 H 0.2924 0.90533 0.72251 0.0
H4005 H 0.15279 0.89446 0.84105 0.0
H4006 H 0.26836 0.9626 0.0159 0.0
H4007 H 0.30259 0.97469 0.01795 0.0
H4008 H 0.31427 0.92349 0.04258 0.0
H4009 H 0.27979 0.91125 0.04079 0.0
H4010 H 0.33825 0.95668 0.05982 0.0
H4011 H 0.31782 0.92646 0.99651 0.0
H4012 H 0.29736 0.92 0.96575 0.0
H4013 H 0.31304 0.97902 0.95479 0.0
H4014 H 0.33339 0.98591 0.98563 0.0
H4015 H 0.43611 0.97179 0.03926 0.0
H4016 H 0.4027 0.95895 0.043 0.0
H4017 H 0.38464 0.00484 0.01314 0.0
H4018 H 0.41793 0.0173 0.00887 0.0
H4019 H 0.3641 0.97205 -0.00096 0.0
H4020 H 0.38452 0.00239 0.06287 0.0
H4021 H 0.40406 0.00876 0.09419 0.0
H4022 H 0.38841 0.94953 0.10443 0.0
H4023 H 0.36903 0.94272 0.07306 0.0
C4024 C 0.27814 0.9539 0.02188 0.0
C4025 C 0.27131 0.93582 0.02798 0.0
C4026 C 0.29773 0.96085 0.02302 0.0
C4027 C 0.31096 0.94984 0.0301 0.0
C4028 C 0.30427 0.93216 0.03698 0.0
C4029 C 0.28458 0.92518 0.03591 0.0
C4030 C 0.3317 0.95655 0.02945 0.0
C4031 C 0.34402 0.95981 0.04653 0.0
C4032 C 0.33909 0.96087 0.01211 0.0
C4033 C 0.32701 0.95673 0.99346 0.0
C4034 C 0.3168 0.93809 0.9876 0.0
C4035 C 0.30524 0.93435 0.97014 0.0
C4036 C 0.30387 0.9491 0.95834 0.0
C4037 C 0.31411 0.96761 0.96395 0.0
C4038 C 0.32567 0.97144 0.98141 0.0
C4039 C 0.42498 0.97919 0.03365 0.0
C4040 C 0.42951 0.99546 0.02369 0.0
C4041 C 0.40592 0.97192 0.03589 0.0
C4042 C 0.39114 0.98101 0.02848 0.0
C4043 C 0.39578 0.99756 0.01895 0.0
C4044 C 0.41479 0.00469 0.01653 0.0
C4045 C 0.37074 0.97269 0.0295 0.0
C4046 C 0.35844 0.96897 0.0124 0.0
C4047 C 0.36345 0.96796 0.04683 0.0
C4048 C 0.37546 0.97201 0.06552 0.0
C4049 C 0.38541 0.99067 0.0717 0.0
C4050 C 0.39643 0.99438 0.08949 0.0
C4051 C 0.39747 0.97955 0.10127 0.0
C4052 C 0.38759 0.96099 0.09527 0.0
C4053 C 0.37659 0.95721 0.0775 0.0
H4054 H 0.40584 0.98244 0.11509 0.0
H4055 H 0.29491 0.94617 0.94483 0.0
H4056 H 0.84018 0.60388 0.75527 0.0
H4057 H 0.82297 0.63088 0.75607 0.0
H4058 H 0.87428 0.66915 0.74646 0.0
H4059 H 0.89182 0.64221 0.74646 0.0
H4060 H 0.85677 0.68672 0.77091 0.0
H4061 H 0.83724 0.65329 0.70984 0.0
H4062 H 0.82555 0.62553 0.68593 0.0
H4063 H 0.77249 0.61467 0.71061 0.0
H4064 H 0.78397 0.64222 0.73484 0.0
H4065 H 0.79484 0.75608 0.74446 0.0
H4066 H 0.81824 0.73434 0.74311 0.0
H4067 H 0.78005 0.69154 0.7677 0.0
H4068 H 0.75763 0.71385 0.77094 0.0
H4069 H 0.79371 0.67914 0.73224 0.0
H4070 H 0.81562 0.71748 0.7924 0.0
H4071 H 0.82989 0.74591 0.81432 0.0
H4072 H 0.88163 0.75064 0.78722 0.0
H4073 H 0.86751 0.72231 0.76483 0.0
C4074 C 0.84782 0.61805 0.75339 0.0
C4075 C 0.86732 0.6209 0.75068 0.0
C4076 C 0.83794 0.63348 0.75373 0.0
C4077 C 0.8472 0.65202 0.75089 0.0
C4078 C 0.86679 0.65499 0.7486 0.0
C4079 C 0.87679 0.63957 0.74856 0.0
C4080 C 0.83628 0.66817 0.75028 0.0
C4081 C 0.84315 0.68525 0.76218 0.0
C4082 C 0.81855 0.6663 0.7388 0.0
C4083 C 0.81153 0.64973 0.72425 0.0
C4084 C 0.82313 0.6449 0.71025 0.0
C4085 C 0.81653 0.62922 0.69663 0.0
C4086 C 0.79831 0.61832 0.69678 0.0
C4087 C 0.78661 0.62312 0.71052 0.0
C4088 C 0.79315 0.63878 0.72419 0.0
C4089 C 0.7917 0.74221 0.74999 0.0
C4090 C 0.77466 0.7368 0.7582 0.0
C4091 C 0.80492 0.72973 0.74894 0.0
C4092 C 0.80079 0.71133 0.7552 0.0
C4093 C 0.7835 0.70572 0.76286 0.0
C4094 C 0.77069 0.71844 0.76462 0.0
C4095 C 0.81394 0.69741 0.75326 0.0
C4096 C 0.80746 0.68074 0.74078 0.0
C4097 C 0.83229 0.70006 0.76373 0.0
C4098 C 0.84038 0.71768 0.77677 0.0
C4099 C 0.82994 0.7246 0.7909 0.0
C4100 C 0.83803 0.74073 0.80348 0.0
C4101 C 0.85667 0.75008 0.80219 0.0
C4102 C 0.86721 0.74334 0.78827 0.0
C4103 C 0.85914 0.72724 0.7756 0.0
H4104 H 0.86292 0.76258 0.81195 0.0
H4105 H 0.79322 0.60618 0.68622 0.0
H4106 H 0.79355 0.5829 0.03919 0.0
H4107 H 0.82459 0.57347 0.04666 0.0
H4108 H 0.84974 0.61365 0.0094 0.0
H4109 H 0.81867 0.62301 0.0016 0.0
H4110 H 0.86004 0.58005 0.00264 0.0
H4111 H 0.85968 0.62292 0.05735 0.0
H4112 H 0.84721 0.63729 0.08537 0.0
H4113 H 0.84544 0.58447 0.11163 0.0
H4114 H 0.85764 0.56967 0.08363 0.0
H4115 H 0.95562 0.57076 0.05417 0.0
H4116 H 0.92706 0.58568 0.05488 0.0
H4117 H 0.89199 0.53249 0.0295 0.0
H4118 H 0.92047 0.51749 0.02877 0.0
H4119 H 0.88984 0.57729 0.06857 0.0
H4120 H 0.86685 0.5452 0.99017 0.0
H4121 H 0.88196 0.53438 0.96224 0.0
H4122 H 0.93442 0.57255 0.98336 0.0
H4123 H 0.91954 0.5838 0.01123 0.0
C4124 C 0.80568 0.5898 0.03261 0.0
C4125 C 0.8036 0.60366 0.01973 0.0
C4126 C 0.82344 0.58448 0.03702 0.0
C4127 C 0.83949 0.59301 0.02874 0.0
C4128 C 0.83752 0.60693 0.01597 0.0
C4129 C 0.81975 0.61224 0.01153 0.0
C4130 C 0.85807 0.58658 0.03262 0.0
C4131 C 0.86655 0.57953 0.01706 0.0
C4132 C 0.86683 0.58634 0.05143 0.0
C4133 C 0.85942 0.59513 0.06829 0.0
C4134 C 0.85647 0.61431 0.06902 0.0
C4135 C 0.84949 0.62255 0.08492 0.0
C4136 C 0.84549 0.61179 0.10025 0.0
C4137 C 0.84852 0.59278 0.09973 0.0
C4138 C 0.85549 0.58447 0.08386 0.0
C4139 C 0.94172 0.56206 0.04944 0.0
C4140 C 0.94015 0.54302 0.04142 0.0
C4141 C 0.92547 0.5706 0.04983 0.0
C4142 C 0.90755 0.56019 0.04209 0.0
C4143 C 0.90578 0.54073 0.03544 0.0
C4144 C 0.922 0.53218 0.03508 0.0
C4145 C 0.89117 0.57017 0.03864 0.0
C4146 C 0.88323 0.5779 0.05421 0.0
C4147 C 0.88319 0.57161 0.01983 0.0
C4148 C 0.89213 0.56518 0.00289 0.0
C4149 C 0.88158 0.55134 0.98881 0.0
C4150 C 0.89011 0.54512 0.97299 0.0
C4151 C 0.90916 0.55271 0.97107 0.0
C4152 C 0.9197 0.56661 0.98491 0.0
C4153 C 0.91123 0.57289 0.00073 0.0
H4154 H 0.91574 0.54786 0.95883 0.0
H4155 H 0.84009 0.61819 0.11255 0.0
H4156 H 0.13148 0.08433 0.76848 0.0
H4157 H 0.14845 0.11708 0.76815 0.0
H4158 H 0.20115 0.09992 0.78948 0.0
H4159 H 0.18426 0.06679 0.78948 0.0
H4160 H 0.16732 0.14369 0.79406 0.0
H4161 H 0.23817 0.12606 0.77026 0.0
H4162 H 0.24992 0.0999 0.75238 0.0
H4163 H 0.19436 0.08193 0.72091 0.0
H4164 H 0.18236 0.10812 0.73843 0.0
H4165 H 0.23385 0.23103 0.79918 0.0
H4166 H 0.21848 0.19819 0.80263 0.0
H4167 H 0.21303 0.18501 0.74149 0.0
H4168 H 0.22912 0.21765 0.73802 0.0
H4169 H 0.22333 0.15637 0.75741 0.0
H4170 H 0.1747 0.19471 0.7674 0.0
H4171 H 0.16129 0.22119 0.78276 0.0
H4172 H 0.16848 0.19815 0.83686 0.0
H4173 H 0.1822 0.1717 0.82189 0.0
C4174 C 0.14668 0.08744 0.77319 0.0
C4175 C 0.15651 0.07281 0.77888 0.0
C4176 C 0.15636 0.10627 0.77306 0.0
C4177 C 0.17612 0.11099 0.77861 0.0
C4178 C 0.18594 0.09658 0.78486 0.0
C4179 C 0.17625 0.07764 0.78492 0.0
C4180 C 0.18636 0.13088 0.7772 0.0
C4181 C 0.17963 0.14647 0.78612 0.0
C4182 C 0.20222 0.13457 0.76658 0.0
C4183 C 0.20934 0.11891 0.75582 0.0
C4184 C 0.22849 0.11655 0.75949 0.0
C4185 C 0.23519 0.10172 0.74942 0.0
C4186 C 0.22288 0.08922 0.73557 0.0
C4187 C 0.20386 0.09157 0.7317 0.0
C4188 C 0.1971 0.10639 0.7417 0.0
C4189 C 0.22937 0.22116 0.78645 0.0
C4190 C 0.23265 0.22699 0.7683 0.0
C4191 C 0.22049 0.20237 0.78844 0.0
C4192 C 0.21427 0.18913 0.77231 0.0
C4193 C 0.21768 0.19491 0.75418 0.0
C4194 C 0.22684 0.21361 0.7522 0.0
C4195 C 0.2043 0.16925 0.77425 0.0
C4196 C 0.21111 0.15364 0.76547 0.0
C4197 C 0.18821 0.16558 0.78462 0.0
C4198 C 0.17966 0.18133 0.79355 0.0
C4199 C 0.17352 0.19535 0.78259 0.0
C4200 C 0.16586 0.21035 0.79123 0.0
C4201 C 0.16412 0.21138 0.81079 0.0
C4202 C 0.1699 0.19735 0.82172 0.0
C4203 C 0.1776 0.18235 0.81317 0.0
H4204 H 0.15831 0.22303 0.81749 0.0
H4205 H 0.22809 0.07774 0.7278 0.0
H4206 H 0.34385 0.01784 0.25134 0.0
H4207 H 0.32124 0.98799 0.2526 0.0
H4208 H 0.35811 0.95601 0.22344 0.0
H4209 H 0.38079 0.9857 0.2221 0.0
H4210 H 0.3189 0.94314 0.21108 0.0
H4211 H 0.36168 0.95848 0.26994 0.0
H4212 H 0.37706 0.97937 0.29866 0.0
H4213 H 0.322 0.9817 0.3177 0.0
H4214 H 0.30627 0.96103 0.28889 0.0
H4215 H 0.30364 0.84941 0.23816 0.0
H4216 H 0.31526 0.88232 0.2316 0.0
H4217 H 0.27699 0.90291 0.26892 0.0
H4218 H 0.26567 0.86976 0.276 0.0
H4219 H 0.31151 0.92369 0.27629 0.0
H4220 H 0.26901 0.90326 0.21971 0.0
H4221 H 0.25426 0.88114 0.19156 0.0
H4222 H 0.30813 0.88753 0.16821 0.0
H4223 H 0.3233 0.9095 0.19635 0.0
C4224 C 0.34705 0.0045 0.24497 0.0
C4225 C 0.36424 0.00413 0.23681 0.0
C4226 C 0.3341 0.98747 0.2457 0.0
C4227 C 0.33809 0.96981 0.23822 0.0
C4228 C 0.35476 0.96951 0.22925 0.0
C4229 C 0.36777 0.98649 0.22863 0.0
C4230 C 0.32586 0.95145 0.24122 0.0
C4231 C 0.31725 0.93882 0.2253 0.0
C4232 C 0.32336 0.94609 0.2598 0.0
C4233 C 0.33279 0.95843 0.27716 0.0
C4234 C 0.35285 0.96359 0.28017 0.0
C4235 C 0.36163 0.97536 0.29648 0.0
C4236 C 0.35052 0.98191 0.30997 0.0
C4237 C 0.33059 0.97665 0.30721 0.0
C4238 C 0.32173 0.96491 0.29089 0.0
C4239 C 0.29761 0.86093 0.24488 0.0
C4240 C 0.28382 0.85712 0.25762 0.0
C4241 C 0.30413 0.87974 0.24099 0.0
C4242 C 0.29675 0.89508 0.2495 0.0
C4243 C 0.28279 0.89127 0.26211 0.0
C4244 C 0.27634 0.87238 0.26614 0.0
C4245 C 0.30471 0.91511 0.24615 0.0
C4246 C 0.31265 0.92809 0.26202 0.0
C4247 C 0.30651 0.92075 0.22751 0.0
C4248 C 0.29732 0.908 0.21022 0.0
C4249 C 0.27774 0.89991 0.20861 0.0
C4250 C 0.2693 0.88739 0.19265 0.0
C4251 C 0.28025 0.88292 0.17812 0.0
C4252 C 0.29966 0.89103 0.17948 0.0
C4253 C 0.30818 0.90356 0.19541 0.0
H4254 H 0.27369 0.87319 0.1658 0.0
H4255 H 0.35735 0.99102 0.3226 0.0
H4256 H 0.48373 0.33528 0.63348 0.0
H4257 H 0.4804 0.3616 0.61387 0.0
H4258 H 0.47591 0.32274 0.56285 0.0
H4259 H 0.47979 0.29635 0.58249 0.0
H4260 H 0.49873 0.355 0.55885 0.0
H4261 H 0.43624 0.33967 0.57775 0.0
H4262 H 0.41169 0.33255 0.59973 0.0
H4263 H 0.42983 0.38874 0.62968 0.0
H4264 H 0.45469 0.39611 0.60806 0.0
H4265 H 0.47374 0.43244 0.50531 0.0
H4266 H 0.47046 0.40086 0.51824 0.0
H4267 H 0.48559 0.42914 0.57526 0.0
H4268 H 0.48915 0.46041 0.56251 0.0
H4269 H 0.45328 0.39916 0.57157 0.0
H4270 H 0.51837 0.41205 0.55407 0.0
H4271 H 0.54216 0.41877 0.5312 0.0
H4272 H 0.51726 0.36611 0.4971 0.0
H4273 H 0.49314 0.35923 0.51962 0.0
C4274 C 0.48192 0.33228 0.61809 0.0
C4275 C 0.48195 0.3137 0.60955 0.0
C4276 C 0.47992 0.34734 0.60687 0.0
C4277 C 0.47757 0.34412 0.58684 0.0
C4278 C 0.47762 0.32557 0.57826 0.0
C4279 C 0.47979 0.3105 0.5895 0.0
C4280 C 0.47568 0.36034 0.57503 0.0
C4281 C 0.4885 0.3644 0.56136 0.0
C4282 C 0.46241 0.37272 0.57832 0.0
C4283 C 0.44743 0.36839 0.59134 0.0
C4284 C 0.43509 0.35046 0.58911 0.0
C4285 C 0.4211 0.34639 0.60149 0.0
C4286 C 0.41922 0.36017 0.61611 0.0
C4287 C 0.43131 0.37807 0.61835 0.0
C4288 C 0.44534 0.38222 0.60602 0.0
C4289 C 0.47625 0.43182 0.52058 0.0
C4290 C 0.48172 0.44879 0.53293 0.0
C4291 C 0.47442 0.41385 0.52793 0.0
C4292 C 0.47781 0.41272 0.5477 0.0
C4293 C 0.48286 0.4297 0.55998 0.0
C4294 C 0.48495 0.44755 0.55267 0.0
C4295 C 0.47661 0.39398 0.55587 0.0
C4296 C 0.46322 0.38948 0.56885 0.0
C4297 C 0.4892 0.38114 0.55182 0.0
C4298 C 0.5038 0.38525 0.53839 0.0
C4299 C 0.51786 0.402 0.5416 0.0
C4300 C 0.53142 0.40582 0.52872 0.0
C4301 C 0.53117 0.3929 0.51268 0.0
C4302 C 0.5174 0.37612 0.50951 0.0
C4303 C 0.50379 0.37225 0.52232 0.0
H4304 H 0.54166 0.39586 0.50271 0.0
H4305 H 0.40838 0.35698 0.62569 0.0
H4306 H 0.4616 0.77876 0.36547 0.0
H4307 H 0.42796 0.77237 0.35204 0.0
H4308 H 0.44504 0.76173 0.29573 0.0
H4309 H 0.47861 0.76935 0.30901 0.0
H4310 H 0.42172 0.78365 0.29288 0.0
H4311 H 0.41994 0.7251 0.32196 0.0
H4312 H 0.42464 0.70396 0.34748 0.0
H4313 H 0.38721 0.73101 0.38047 0.0
H4314 H 0.38256 0.75254 0.3553 0.0
H4315 H 0.31181 0.74007 0.27762 0.0
H4316 H 0.34491 0.73654 0.28733 0.0
H4317 H 0.3612 0.79823 0.29736 0.0
H4318 H 0.32862 0.80191 0.28691 0.0
H4319 H 0.36733 0.74579 0.31986 0.0
H4320 H 0.40516 0.81307 0.28713 0.0
H4321 H 0.40003 0.83089 0.25901 0.0
H4322 H 0.36563 0.7801 0.22848 0.0
H4323 H 0.37077 0.76191 0.2563 0.0
C4324 C 0.45809 0.77476 0.35028 0.0
C4325 C 0.47263 0.77466 0.33824 0.0
C4326 C 0.43885 0.77097 0.3426 0.0
C4327 C 0.43384 0.7664 0.32282 0.0
C4328 C 0.44845 0.76536 0.31099 0.0
C4329 C 0.46764 0.76966 0.31858 0.0
C4330 C 0.41363 0.76455 0.31421 0.0
C4331 C 0.4099 0.7752 0.29874 0.0
C4332 C 0.39808 0.7533 0.32152 0.0
C4333 C 0.40099 0.7405 0.33678 0.0
C4334 C 0.41283 0.72664 0.33472 0.0
C4335 C 0.41548 0.71458 0.34912 0.0
C4336 C 0.40625 0.71616 0.3656 0.0
C4337 C 0.39436 0.7298 0.36771 0.0
C4338 C 0.3917 0.74193 0.35337 0.0
C4339 C 0.32251 0.75287 0.28174 0.0
C4340 C 0.31766 0.77128 0.28122 0.0
C4341 C 0.34136 0.75082 0.28741 0.0
C4342 C 0.35557 0.76711 0.29289 0.0
C4343 C 0.35061 0.78545 0.29277 0.0
C4344 C 0.33192 0.78753 0.2868 0.0
C4345 C 0.37562 0.76517 0.29893 0.0
C4346 C 0.37927 0.75394 0.31391 0.0
C4347 C 0.39116 0.77539 0.2908 0.0
C4348 C 0.38825 0.78617 0.27387 0.0
C4349 C 0.39659 0.80568 0.27438 0.0
C4350 C 0.39366 0.81585 0.2585 0.0
C4351 C 0.38248 0.80664 0.24199 0.0
C4352 C 0.37425 0.78723 0.2413 0.0
C4353 C 0.37715 0.77698 0.25713 0.0
H4354 H 0.38021 0.81455 0.22972 0.0
H4355 H 0.40831 0.7068 0.37672 0.0
H4356 H 0.00335 0.69373 0.15212 0.0
H4357 H 0.00322 0.66535 0.13022 0.0
H4358 H 0.98325 0.69465 0.08308 0.0
H4359 H 0.98359 0.72332 0.10488 0.0
H4360 H 0.97687 0.6413 0.10595 0.0
H4361 H 0.00618 0.68206 0.0447 0.0
H4362 H 0.02484 0.71354 0.03962 0.0
H4363 H 0.05271 0.71877 0.09686 0.0
H4364 H 0.03441 0.68723 0.10217 0.0
H4365 H 0.98447 0.57611 0.02278 0.0
H4366 H 0.97642 0.60334 0.04223 0.0
H4367 H 0.03481 0.6173 0.06848 0.0
H4368 H 0.04268 0.58975 0.04985 0.0
H4369 H 0.01926 0.64887 0.05431 0.0
H4370 H 0.0051 0.59548 0.09144 0.0
H4371 H 0.98908 0.564 0.09939 0.0
H4372 H 0.93502 0.5833 0.095 0.0
H4373 H 0.95057 0.61464 0.08612 0.0
C4374 C -0.00124 0.69414 0.13713 0.0
C4375 C 0.99369 0.7109 0.13024 0.0
C4376 C -0.0014 0.67783 0.12464 0.0
C4377 C 0.99341 0.67796 0.10501 0.0
C4378 C 0.98752 0.69435 0.09816 0.0
C4379 C 0.9877 0.7107 0.11066 0.0
C4380 C 0.99545 0.66136 0.09171 0.0
C4381 C 0.98593 0.64294 0.09448 0.0
C4382 C 0.00752 0.66353 0.07697 0.0
C4383 C 0.01875 0.68242 0.07389 0.0
C4384 C 0.01632 0.68992 0.05617 0.0
C4385 C 0.02683 0.70777 0.05326 0.0
C4386 C 0.03989 0.71819 0.06793 0.0
C4387 C 0.04253 0.71073 0.08553 0.0
C4388 C 0.03208 0.69288 0.08851 0.0
C4389 C 0.99547 0.58483 0.03293 0.0
C4390 C 0.0141 0.58064 0.03512 0.0
C4391 C 0.99089 0.6004 0.04391 0.0
C4392 C 0.00502 0.6122 0.05683 0.0
C4393 C 0.02372 0.60831 0.05859 0.0
C4394 C 0.02818 0.59258 0.04796 0.0
C4395 C 0.00063 0.62879 0.0685 0.0
C4396 C 0.00977 0.64724 0.06544 0.0
C4397 C 0.98847 0.62654 0.08317 0.0
C4398 C 0.97899 0.60735 0.0877 0.0
C4399 C 0.98974 0.5929 0.09169 0.0
C4400 C 0.98074 0.57508 0.09645 0.0
C4401 C 0.96104 0.57163 0.09766 0.0
C4402 C 0.95028 0.58599 0.09406 0.0
C4403 C 0.95916 0.60374 0.08901 0.0
H4404 H 0.9541 0.55785 0.1014 0.0
H4405 H 0.048 0.73201 0.06565 0.0
H4406 H 0.06824 0.27296 0.82723 0.0
H4407 H 0.09771 0.27214 0.81237 0.0
H4408 H 0.13118 0.29501 0.86574 0.0
H4409 H 0.10163 0.29567 0.88087 0.0
H4410 H 0.14177 0.31473 0.83342 0.0
H4411 H 0.13189 0.25112 0.85264 0.0
H4412 H 0.11457 0.21861 0.85606 0.0
H4413 H 0.10546 0.20649 0.79508 0.0
H4414 H 0.12246 0.23904 0.79128 0.0
H4415 H 0.22703 0.30864 0.79173 0.0
H4416 H 0.2022 0.30628 0.81322 0.0
H4417 H 0.16404 0.26776 0.77037 0.0
H4418 H 0.19 0.26808 0.75007 0.0
H4419 H 0.15809 0.25557 0.80171 0.0
H4420 H 0.16143 0.32088 0.78229 0.0
H4421 H 0.17874 0.35324 0.778 0.0
H4422 H 0.19965 0.36169 0.83763 0.0
H4423 H 0.18266 0.32926 0.84209 0.0
C4424 C 0.08186 0.27774 0.83586 0.0
C4425 C 0.08262 0.28449 0.85521 0.0
C4426 C 0.09868 0.27718 0.82736 0.0
C4427 C 0.1166 0.28348 0.83798 0.0
C4428 C 0.11746 0.29014 0.85732 0.0
C4429 C 0.1006 0.29047 0.86592 0.0
C4430 C 0.1343 0.28389 0.82848 0.0
C4431 C 0.14552 0.30177 0.8267 0.0
C4432 C 0.13898 0.26702 0.81948 0.0
C4433 C 0.12826 0.24762 0.82168 0.0
C4434 C 0.12597 0.24162 0.83995 0.0
C4435 C 0.11627 0.22315 0.84196 0.0
C4436 C 0.10887 0.21051 0.8258 0.0
C4437 C 0.11115 0.21631 0.80759 0.0
C4438 C 0.12081 0.23477 0.8055 0.0
C4439 C 0.21358 0.29922 0.78723 0.0
C4440 C 0.21069 0.28811 0.76957 0.0
C4441 C 0.19911 0.29829 0.79928 0.0
C4442 C 0.18094 0.28716 0.79337 0.0
C4443 C 0.17788 0.27644 0.77538 0.0
C4444 C 0.19267 0.27677 0.76368 0.0
C4445 C 0.16517 0.28651 0.80586 0.0
C4446 C 0.15437 0.26856 0.80837 0.0
C4447 C 0.16066 0.30333 0.81527 0.0
C4448 C 0.17068 0.32282 0.81257 0.0
C4449 C 0.1697 0.32969 0.79446 0.0
C4450 C 0.17948 0.34801 0.79198 0.0
C4451 C 0.19024 0.35955 0.80754 0.0
C4452 C 0.19124 0.3528 0.82561 0.0
C4453 C 0.18147 0.33451 0.82814 0.0
H4454 H 0.19784 0.3737 0.80559 0.0
H4455 H 0.10141 0.1962 0.82738 0.0
H4456 H 0.53845 0.71411 0.96628 0.0
H4457 H 0.53201 0.6862 0.98454 0.0
H4458 H 0.47429 0.67254 0.9563 0.0
H4459 H 0.48108 0.69969 0.93724 0.0
H4460 H 0.50861 0.67534 0.00918 0.0
H4461 H 0.45775 0.62678 0.95181 0.0
H4462 H 0.44988 0.62307 0.91685 0.0
H4463 H 0.50859 0.6444 0.90981 0.0
H4464 H 0.51672 0.64856 0.94482 0.0
H4465 H 0.46335 0.56645 0.01424 0.0
H4466 H 0.46411 0.59712 0.00029 0.0
H4467 H 0.52262 0.61564 0.02538 0.0
H4468 H 0.52167 0.58522 0.03967 0.0
H4469 H 0.48484 0.61077 0.97466 0.0
H4470 H 0.53367 0.6637 0.0334 0.0
H4471 H 0.53997 0.66836 0.06852 0.0
H4472 H 0.48355 0.63778 0.07331 0.0
H4473 H 0.47682 0.63316 0.03823 0.0
C4474 C 0.5244 0.70513 0.96403 0.0
C4475 C 0.51034 0.70884 0.95021 0.0
C4476 C 0.52071 0.68923 0.97447 0.0
C4477 C 0.50281 0.67699 0.97148 0.0
C4478 C 0.48841 0.68137 0.95841 0.0
C4479 C 0.49226 0.69695 0.94762 0.0
C4480 C 0.49945 0.65943 0.98169 0.0
C4481 C 0.50361 0.66119 0.00163 0.0
C4482 C 0.49228 0.64103 0.97192 0.0
C4483 C 0.4878 0.63805 0.95089 0.0
C4484 C 0.46898 0.63059 0.94279 0.0
C4485 C 0.46447 0.62848 0.92297 0.0
C4486 C 0.47874 0.63343 0.91109 0.0
C4487 C 0.49755 0.64058 0.91903 0.0
C4488 C 0.5021 0.64291 0.93886 0.0
C4489 C 0.47625 0.57723 0.01693 0.0
C4490 C 0.49244 0.57359 0.02796 0.0
C4491 C 0.47669 0.59469 0.00897 0.0
C4492 C 0.49335 0.60877 0.01193 0.0
C4493 C 0.50945 0.60521 0.02326 0.0
C4494 C 0.50892 0.58782 0.03139 0.0
C4495 C 0.49435 0.62662 0.00217 0.0
C4496 C 0.48975 0.62491 0.98229 0.0
C4497 C 0.50099 0.64505 0.01203 0.0
C4498 C 0.50482 0.64794 0.03317 0.0
C4499 C 0.52258 0.65804 0.04194 0.0
C4500 C 0.52623 0.66066 0.06185 0.0
C4501 C 0.51219 0.65333 0.07314 0.0
C4502 C 0.49444 0.6434 0.06455 0.0
C4503 C 0.49071 0.64075 0.04465 0.0
H4504 H 0.51505 0.65536 0.08854 0.0
H4505 H 0.47521 0.63173 0.89574 0.0
H4506 H 0.06551 0.81898 0.62124 0.0
H4507 H 0.09684 0.82376 0.64017 0.0
H4508 H 0.06924 0.81848 0.6917 0.0
H4509 H 0.03805 0.8142 0.67305 0.0
H4510 H 0.10283 0.84318 0.69864 0.0
H4511 H 0.07916 0.77928 0.66826 0.0
H4512 H 0.0665 0.75513 0.64104 0.0
H4513 H 0.11779 0.77098 0.61441 0.0
H4514 H 0.13062 0.79546 0.64138 0.0
H4515 H 0.16653 0.79351 0.75406 0.0
H4516 H 0.13897 0.8035 0.7364 0.0
H4517 H 0.17264 0.81667 0.69002 0.0
H4518 H 0.20008 0.80696 0.70753 0.0
H4519 H 0.13758 0.79073 0.67996 0.0
H4520 H 0.16263 0.85215 0.71505 0.0
H4521 H 0.17381 0.87455 0.74394 0.0
H4522 H 0.11865 0.86099 0.76406 0.0
H4523 H 0.10722 0.83822 0.73547 0.0
C4524 C 0.06616 0.81929 0.63664 0.0
C4525 C 0.04938 0.81576 0.64565 0.0
C4526 C 0.08403 0.82205 0.64742 0.0
C4527 C 0.08527 0.82107 0.66727 0.0
C4528 C 0.06857 0.81921 0.67641 0.0
C4529 C 0.05076 0.81659 0.66568 0.0
C4530 C 0.10348 0.81918 0.67814 0.0
C4531 C 0.11046 0.83173 0.69461 0.0
C4532 C 0.11333 0.80417 0.67285 0.0
C4533 C 0.10574 0.78935 0.65671 0.0
C4534 C 0.08767 0.77771 0.65653 0.0
C4535 C 0.08048 0.76395 0.64116 0.0
C4536 C 0.09132 0.76156 0.62598 0.0
C4537 C 0.1094 0.77288 0.62617 0.0
C4538 C 0.11664 0.7867 0.64149 0.0
C4539 C 0.168 0.79869 0.74017 0.0
C4540 C 0.18525 0.79933 0.73202 0.0
C4541 C 0.15239 0.8045 0.7302 0.0
C4542 C 0.15394 0.81087 0.71201 0.0
C4543 C 0.17128 0.81185 0.70408 0.0
C4544 C 0.18687 0.80625 0.71406 0.0
C4545 C 0.13704 0.81479 0.70038 0.0
C4546 C 0.13018 0.80243 0.68384 0.0
C4547 C 0.1272 0.82971 0.70588 0.0
C4548 C 0.13411 0.84333 0.72316 0.0
C4549 C 0.15293 0.85377 0.72572 0.0
C4550 C 0.15931 0.86657 0.74203 0.0
C4551 C 0.14694 0.86918 0.75581 0.0
C4552 C 0.1282 0.85895 0.75336 0.0
C4553 C 0.12177 0.8461 0.7371 0.0
H4554 H 0.15184 0.87917 0.76836 0.0
H4555 H 0.08573 0.7509 0.61409 0.0
H4556 H 0.01957 0.34196 0.40394 0.0
H4557 H 0.01516 0.37128 0.42234 0.0
H4558 H 0.02372 0.3446 0.47462 0.0
H4559 H 0.02694 0.31492 0.45619 0.0
H4560 H -0.00212 0.36467 0.47837 0.0
H4561 H 0.06022 0.37767 0.45666 0.0
H4562 H 0.08355 0.3798 0.43296 0.0
H4563 H 0.05516 0.42043 0.40471 0.0
H4564 H 0.03153 0.41835 0.42811 0.0
H4565 H 0.03916 0.47424 0.51177 0.0
H4566 H 0.04273 0.44165 0.50071 0.0
H4567 H 0.98162 0.42646 0.48571 0.0
H4568 H 0.97789 0.45879 0.49726 0.0
H4569 H 0.03579 0.42688 0.4658 0.0
H4570 H 0.9668 0.3785 0.48411 0.0
H4571 H 0.94602 0.37624 0.5101 0.0
H4572 H 0.99277 0.40615 0.54994 0.0
H4573 H 0.01391 0.40836 0.52426 0.0
C4574 C 0.02039 0.34236 0.41936 0.0
C4575 C 0.02371 0.32626 0.42867 0.0
C4576 C 0.01798 0.35915 0.42987 0.0
C4577 C 0.01957 0.36035 0.44993 0.0
C4578 C 0.02246 0.34408 0.45919 0.0
C4579 C 0.02436 0.32713 0.44865 0.0
C4580 C 0.01859 0.37863 0.4613 0.0
C4581 C 0.00621 0.37827 0.47565 0.0
C4582 C 0.02974 0.39636 0.45807 0.0
C4583 C 0.04402 0.39773 0.44405 0.0
C4584 C 0.0589 0.38697 0.44534 0.0
C4585 C 0.07218 0.38818 0.43196 0.0
C4586 C 0.07082 0.40021 0.41732 0.0
C4587 C 0.0562 0.4111 0.41605 0.0
C4588 C 0.04286 0.40993 0.42937 0.0
C4589 C 0.02644 0.46383 0.50653 0.0
C4590 C 0.00826 0.46914 0.50526 0.0
C4591 C 0.0285 0.44522 0.50016 0.0
C4592 C 0.01246 0.43161 0.49232 0.0
C4593 C 0.99419 0.4366 0.49194 0.0
C4594 C 0.99209 0.45515 0.49852 0.0
C4595 C 0.01502 0.41295 0.48279 0.0
C4596 C 0.0276 0.41327 0.46866 0.0
C4597 C 0.00445 0.39516 0.4866 0.0
C4598 C 0.99189 0.39374 0.5022 0.0
C4599 C 0.97267 0.38452 0.49843 0.0
C4600 C 0.96083 0.38327 0.51311 0.0
C4601 C 0.96806 0.3911 0.53165 0.0
C4602 C 0.98717 0.40016 0.53556 0.0
C4603 C -0.00092 0.40144 0.52094 0.0
H4604 H 0.95886 0.39012 0.54299 0.0
H4605 H 0.08111 0.40112 0.40697 0.0
H4606 H 0.44184 0.29771 0.14317 0.0
H4607 H 0.41414 0.2992 0.16091 0.0
H4608 H 0.42631 0.25099 0.19066 0.0
H4609 H 0.4539 0.24936 0.17307 0.0
H4610 H 0.38713 0.2499 0.18075 0.0
H4611 H 0.44305 0.29415 0.21121 0.0
H4612 H 0.4702 0.32094 0.21202 0.0
H4613 H 0.43139 0.35885 0.19653 0.0
H4614 H 0.40401 0.33219 0.19538 0.0
H4615 H 0.33437 0.26101 0.25879 0.0
H4616 H 0.3616 0.25822 0.24074 0.0
H4617 H 0.35635 0.31191 0.21744 0.0
H4618 H 0.32979 0.3151 0.23607 0.0
H4619 H 0.39203 0.30984 0.22365 0.0
H4620 H 0.3361 0.2666 0.19266 0.0
H4621 H 0.30846 0.24008 0.19037 0.0
H4622 H 0.34603 0.20091 0.20553 0.0
H4623 H 0.37389 0.22722 0.20801 0.0
C4624 C 0.43837 0.28719 0.1532 0.0
C4625 C 0.45016 0.27359 0.15694 0.0
C4626 C 0.42262 0.28811 0.16335 0.0
C4627 C 0.41843 0.27537 0.17724 0.0
C4628 C 0.4294 0.26097 0.18004 0.0
C4629 C 0.4452 0.26014 0.17004 0.0
C4630 C 0.40369 0.27796 0.19001 0.0
C4631 C 0.38821 0.26293 0.19024 0.0
C4632 C 0.40508 0.29507 0.20215 0.0
C4633 C 0.42151 0.31114 0.20301 0.0
C4634 C 0.44032 0.30816 0.20784 0.0
C4635 C 0.45575 0.32333 0.20838 0.0
C4636 C 0.45253 0.34157 0.20428 0.0
C4637 C 0.43386 0.3447 0.19968 0.0
C4638 C 0.41839 0.32958 0.19909 0.0
C4639 C 0.33939 0.27239 0.25016 0.0
C4640 C 0.33002 0.2882 0.24869 0.0
C4641 C 0.35476 0.2707 0.2397 0.0
C4642 C 0.36064 0.2846 0.22733 0.0
C4643 C 0.35198 0.30095 0.22679 0.0
C4644 C 0.33683 0.30279 0.23745 0.0
C4645 C 0.37525 0.28184 0.21435 0.0
C4646 C 0.39081 0.29682 0.21412 0.0
C4647 C 0.37379 0.26474 0.20207 0.0
C4648 C 0.35706 0.2489 0.20064 0.0
C4649 C 0.33845 0.25235 0.1956 0.0
C4650 C 0.32276 0.23734 0.19421 0.0
C4651 C 0.3255 0.21881 0.19774 0.0
C4652 C 0.34394 0.21525 0.20273 0.0
C4653 C 0.35969 0.23019 0.2041 0.0
H4654 H 0.31334 0.20721 0.19662 0.0
H4655 H 0.46449 0.35329 0.2047 0.0
H4656 H 0.57371 0.48766 0.31911 0.0
H4657 H 0.55975 0.48657 0.34928 0.0
H4658 H 0.61493 0.51099 0.37978 0.0
H4659 H 0.6292 0.51121 0.3494 0.0
H4660 H 0.59428 0.48672 0.40114 0.0
H4661 H 0.58431 0.54023 0.36675 0.0
H4662 H 0.57486 0.55657 0.33872 0.0
H4663 H 0.51716 0.52611 0.33633 0.0
H4664 H 0.52634 0.50938 0.36419 0.0
H4665 H 0.53195 0.5449 0.46028 0.0
H4666 H 0.55028 0.54028 0.43357 0.0
H4667 H 0.54004 0.47901 0.43755 0.0
H4668 H 0.52197 0.48354 0.46481 0.0
H4669 H 0.54034 0.52291 0.40005 0.0
H4670 H 0.57841 0.46022 0.42252 0.0
H4671 H 0.59096 0.44809 0.4521 0.0
H4672 H 0.59753 0.50443 0.48178 0.0
H4673 H 0.58532 0.51697 0.45234 0.0
C4674 C 0.58294 0.49238 0.3323 0.0
C4675 C 0.60243 0.49976 0.33202 0.0
C4676 C 0.57497 0.49178 0.34951 0.0
C4677 C 0.58619 0.49919 0.36672 0.0
C4678 C 0.60599 0.5053 0.36664 0.0
C4679 C 0.61412 0.50547 0.34933 0.0
C4680 C 0.57672 0.50248 0.38419 0.0
C4681 C 0.58246 0.49458 0.40095 0.0
C4682 C 0.56169 0.51326 0.3841 0.0
C4683 C 0.55605 0.52344 0.36745 0.0
C4684 C 0.56963 0.53694 0.36017 0.0
C4685 C 0.56432 0.54627 0.34432 0.0
C4686 C 0.54543 0.54235 0.33573 0.0
C4687 C 0.53179 0.52912 0.343 0.0
C4688 C 0.53704 0.51972 0.35882 0.0
C4689 C 0.5335 0.53039 0.45553 0.0
C4690 C 0.5254 0.51458 0.46471 0.0
C4691 C 0.54404 0.52779 0.44021 0.0
C4692 C 0.54669 0.50933 0.43364 0.0
C4693 C 0.53844 0.49343 0.44258 0.0
C4694 C 0.52797 0.49604 0.45805 0.0
C4695 C 0.55758 0.50686 0.41702 0.0
C4696 C 0.5521 0.51496 0.40034 0.0
C4697 C 0.57325 0.49688 0.4175 0.0
C4698 C 0.58076 0.48948 0.43525 0.0
C4699 C 0.5826 0.47003 0.43534 0.0
C4700 C 0.58966 0.46309 0.45209 0.0
C4701 C 0.59503 0.47549 0.4688 0.0
C4702 C 0.59333 0.49484 0.46882 0.0
C4703 C 0.58632 0.50187 0.45212 0.0
H4704 H 0.60059 0.47016 0.48171 0.0
H4705 H 0.54135 0.54959 0.32346 0.0
H4706 H 0.20423 0.83706 0.07772 0.0
H4707 H 0.21092 0.82248 0.10739 0.0
H4708 H 0.25496 0.87132 0.12753 0.0
H4709 H 0.24818 0.88613 0.09801 0.0
H4710 H 0.2662 0.83521 0.13222 0.0
H4711 H 0.21544 0.86865 0.14651 0.0
H4712 H 0.18371 0.87806 0.14129 0.0
H4713 H 0.15648 0.81931 0.1421 0.0
H4714 H 0.18808 0.80953 0.14691 0.0
H4715 H 0.28027 0.80215 0.2242 0.0
H4716 H 0.27529 0.82223 0.19818 0.0
H4717 H 0.22093 0.78551 0.17925 0.0
H4718 H 0.22499 0.76694 0.20651 0.0
H4719 H 0.21616 0.81911 0.17539 0.0
H4720 H 0.26628 0.78482 0.15769 0.0
H4721 H 0.29776 0.77472 0.16229 0.0
H4722 H 0.32583 0.83373 0.16697 0.0
H4723 H 0.29451 0.84418 0.16258 0.0
C4724 C 0.21535 0.84469 0.08845 0.0
C4725 C 0.22565 0.86276 0.08552 0.0
C4726 C 0.2191 0.83638 0.10542 0.0
C4727 C 0.23335 0.84588 0.11971 0.0
C4728 C 0.24388 0.86377 0.1167 0.0
C4729 C 0.23995 0.87222 0.09985 0.0
C4730 C 0.23735 0.83699 0.13768 0.0
C4731 C 0.25536 0.83189 0.14183 0.0
C4732 C 0.22312 0.83246 0.15004 0.0
C4733 C 0.20412 0.83832 0.14693 0.0
C4734 C 0.20269 0.85771 0.14537 0.0
C4735 C 0.18473 0.86312 0.14251 0.0
C4736 C 0.16809 0.84929 0.14132 0.0
C4737 C 0.16938 0.83001 0.143 0.0
C4738 C 0.1873 0.82453 0.14581 0.0
C4739 C 0.26703 0.79882 0.21484 0.0
C4740 C 0.25284 0.78337 0.21773 0.0
C4741 C 0.26436 0.80999 0.19962 0.0
C4742 C 0.24781 0.8053 0.18642 0.0
C4743 C 0.23379 0.78957 0.18918 0.0
C4744 C 0.23621 0.77881 0.2047 0.0
C4745 C 0.24489 0.81662 0.16973 0.0
C4746 C 0.22707 0.82237 0.16586 0.0
C4747 C 0.25925 0.82156 0.1575 0.0
C4748 C 0.27807 0.81528 0.15999 0.0
C4749 C 0.27917 0.79564 0.1598 0.0
C4750 C 0.29698 0.78985 0.16235 0.0
C4751 C 0.31378 0.80358 0.16497 0.0
C4752 C 0.31281 0.82312 0.16497 0.0
C4753 C 0.29504 0.82898 0.16243 0.0
H4754 H 0.32755 0.79907 0.16696 0.0
H4755 H 0.1542 0.85351 0.13913 0.0
H4756 H 0.96338 0.55815 0.80259 0.0
H4757 H 0.97084 0.55552 0.83652 0.0
H4758 H 0.91715 0.57211 0.84772 0.0
H4759 H 0.90959 0.575 0.81358 0.0
H4760 H 0.94664 0.58774 0.87606 0.0
H4761 H 0.91924 0.5263 0.84484 0.0
H4762 H 0.91456 0.49903 0.81999 0.0
H4763 H 0.9718 0.48979 0.83553 0.0
H4764 H 0.97697 0.51729 0.86023 0.0
H4765 H 0.95736 0.54994 0.9678 0.0
H4766 H 0.94393 0.55578 0.93603 0.0
H4767 H 0.9942 0.54216 0.91246 0.0
H4768 H 0.00767 0.5362 0.94397 0.0
H4769 H 0.96093 0.52404 0.89126 0.0
H4770 H 0.98817 0.58862 0.92078 0.0
H4771 H 0.9912 0.61534 0.94606 0.0
H4772 H 0.93132 0.61714 0.93447 0.0
H4773 H 0.9279 0.59027 0.90925 0.0
C4774 C 0.95323 0.56151 0.81224 0.0
C4775 C 0.93577 0.56655 0.80532 0.0
C4776 C 0.9575 0.55995 0.83165 0.0
C4777 C 0.94436 0.56321 0.84456 0.0
C4778 C 0.92743 0.56941 0.83795 0.0
C4779 C 0.92314 0.57106 0.81845 0.0
C4780 C 0.94803 0.55896 0.86466 0.0
C4781 C 0.94945 0.57373 0.87944 0.0
C4782 C 0.9516 0.54064 0.86907 0.0
C4783 C 0.94854 0.52397 0.85431 0.0
C4784 C 0.93088 0.51856 0.84287 0.0
C4785 C 0.92813 0.50304 0.82882 0.0
C4786 C 0.94287 0.49269 0.82618 0.0
C4787 C 0.96039 0.49783 0.83759 0.0
C4788 C 0.96324 0.51338 0.85163 0.0
C4789 C 0.96558 0.54822 0.95586 0.0
C4790 C 0.98364 0.54267 0.95847 0.0
C4791 C 0.95789 0.55161 0.93773 0.0
C4792 C 0.96812 0.5495 0.92191 0.0
C4793 C 0.98606 0.54385 0.92447 0.0
C4794 C 0.99377 0.54053 0.94254 0.0
C4795 C 0.96029 0.55301 0.90256 0.0
C4796 C 0.95794 0.538 0.88791 0.0
C4797 C 0.9556 0.57098 0.89836 0.0
C4798 C 0.95775 0.58735 0.91326 0.0
C4799 C 0.97563 0.59465 0.9237 0.0
C4800 C 0.97742 0.60983 0.938 0.0
C4801 C 0.96146 0.6179 0.9419 0.0
C4802 C 0.94368 0.61086 0.93145 0.0
C4803 C 0.94181 0.59568 0.91713 0.0
H4804 H 0.96287 0.62964 0.953 0.0
H4805 H 0.94071 0.48067 0.8153 0.0
H4806 H 0.25596 0.15481 0.57433 0.0
H4807 H 0.26214 0.17892 0.60192 0.0
H4808 H 0.29651 0.21823 0.56999 0.0
H4809 H 0.29027 0.19441 0.54229 0.0
H4810 H 0.29471 0.19873 0.62368 0.0
H4811 H 0.28586 0.26296 0.58127 0.0
H4812 H 0.27097 0.26982 0.55014 0.0
H4813 H 0.22809 0.21917 0.54883 0.0
H4814 H 0.24258 0.21217 0.58003 0.0
H4815 H 0.3006 0.27518 0.69527 0.0
H4816 H 0.30793 0.26138 0.66453 0.0
H4817 H 0.24766 0.24978 0.64422 0.0
H4818 H 0.24037 0.26392 0.67463 0.0
H4819 H 0.26891 0.25887 0.61572 0.0
H4820 H 0.26909 0.21772 0.66839 0.0
H4821 H 0.28167 0.21075 0.70036 0.0
H4822 H 0.33765 0.21302 0.68207 0.0
H4823 H 0.32538 0.22023 0.65003 0.0
C4824 C 0.26492 0.16854 0.57321 0.0
C4825 C 0.27239 0.17279 0.55605 0.0
C4826 C 0.26855 0.18222 0.58901 0.0
C4827 C 0.27967 0.20034 0.58788 0.0
C4828 C 0.28776 0.20436 0.57104 0.0
C4829 C 0.2841 0.19074 0.55523 0.0
C4830 C 0.28147 0.21545 0.60384 0.0
C4831 C 0.2893 0.21199 0.62193 0.0
C4832 C 0.27445 0.23275 0.60147 0.0
C4833 C 0.26546 0.23693 0.58283 0.0
C4834 C 0.27323 0.25332 0.57434 0.0
C4835 C 0.26486 0.25723 0.55669 0.0
C4836 C 0.24865 0.24489 0.54748 0.0
C4837 C 0.2407 0.22867 0.55594 0.0
C4838 C 0.249 0.22471 0.57359 0.0
C4839 C 0.28901 0.27014 0.68401 0.0
C4840 C 0.2699 0.27028 0.68727 0.0
C4841 C 0.29321 0.2623 0.66652 0.0
C4842 C 0.27829 0.25431 0.65228 0.0
C4843 C 0.25936 0.25588 0.65505 0.0
C4844 C 0.25519 0.26382 0.67244 0.0
C4845 C 0.28171 0.24194 0.63565 0.0
C4846 C 0.27489 0.2459 0.61739 0.0
C4847 C 0.28932 0.22494 0.63794 0.0
C4848 C 0.29643 0.21981 0.65694 0.0
C4849 C 0.2841 0.21681 0.67122 0.0
C4850 C 0.29116 0.21282 0.68934 0.0
C4851 C 0.31047 0.21153 0.69326 0.0
C4852 C 0.32273 0.21412 0.67903 0.0
C4853 C 0.31574 0.21817 0.6609 0.0
H4854 H 0.31593 0.20848 0.7073 0.0
H4855 H 0.2422 0.24793 0.53381 0.0
H4856 H 0.6316 0.47836 0.20841 0.0
H4857 H 0.61138 0.47551 0.17788 0.0
H4858 H 0.56787 0.49801 0.20669 0.0
H4859 H 0.58734 0.49943 0.23714 0.0
H4860 H 0.5508 0.47242 0.18219 0.0
H4861 H 0.60178 0.52562 0.17969 0.0
H4862 H 0.63524 0.54221 0.18096 0.0
H4863 H 0.64415 0.50368 0.134 0.0
H4864 H 0.61078 0.48672 0.13261 0.0
H4865 H 0.50563 0.51516 0.1056 0.0
H4866 H 0.52342 0.50803 0.13479 0.0
H4867 H 0.55367 0.4722 0.10117 0.0
H4868 H 0.53594 0.47931 0.07192 0.0
H4869 H 0.57742 0.50072 0.12638 0.0
H4870 H 0.52062 0.45396 0.12652 0.0
H4871 H 0.48604 0.44232 0.12629 0.0
H4872 H 0.48644 0.47552 0.17983 0.0
H4873 H 0.52093 0.48771 0.18015 0.0
C4874 C 0.61767 0.48259 0.20812 0.0
C4875 C 0.61103 0.48917 0.22503 0.0
C4876 C 0.60616 0.48107 0.1907 0.0
C4877 C 0.58818 0.48687 0.18986 0.0
C4878 C 0.5816 0.49335 0.20688 0.0
C4879 C 0.5928 0.49427 0.22429 0.0
C4880 C 0.57623 0.48661 0.17139 0.0
C4881 C 0.5566 0.47881 0.17006 0.0
C4882 C 0.5838 0.49461 0.15539 0.0
C4883 C 0.60387 0.50476 0.15621 0.0
C4884 C 0.61092 0.5206 0.16973 0.0
C4885 C 0.62986 0.53009 0.17046 0.0
C4886 C 0.64183 0.52396 0.15761 0.0
C4887 C 0.63487 0.50838 0.14397 0.0
C4888 C 0.61595 0.49883 0.14321 0.0
C4889 C 0.51583 0.50549 0.10449 0.0
C4890 C 0.51955 0.49786 0.08659 0.0
C4891 C 0.52595 0.50143 0.12113 0.0
C4892 C 0.53985 0.48962 0.12007 0.0
C4893 C 0.54303 0.48139 0.10223 0.0
C4894 C 0.53287 0.48541 0.08559 0.0
C4895 C 0.55202 0.48703 0.13745 0.0
C4896 C 0.57169 0.49423 0.1385 0.0
C4897 C 0.54429 0.47924 0.15344 0.0
C4898 C 0.52347 0.47176 0.15331 0.0
C4899 C 0.51335 0.45883 0.13821 0.0
C4900 C 0.49374 0.45215 0.13806 0.0
C4901 C 0.48405 0.45814 0.15306 0.0
C4902 C 0.49396 0.47086 0.16822 0.0
C4903 C 0.51356 0.47766 0.16838 0.0
H4904 H 0.46887 0.45293 0.15293 0.0
H4905 H 0.65649 0.53133 0.15819 0.0
H4906 H 0.19392 0.84289 0.9723 0.0
H4907 H 0.19771 0.82555 0.9418 0.0
H4908 H 0.24061 0.87309 0.93097 0.0
H4909 H 0.23563 0.89079 0.96048 0.0
H4910 H 0.22103 0.86365 0.90081 0.0
H4911 H 0.24964 0.82611 0.94471 0.0
H4912 H 0.25189 0.8064 0.97182 0.0
H4913 H 0.20485 0.76431 0.94419 0.0
H4914 H 0.20218 0.78389 0.917 0.0
H4915 H 0.26011 0.78687 0.83859 0.0
H4916 H 0.25395 0.7998 0.86994 0.0
H4917 H 0.20503 0.82065 0.84409 0.0
H4918 H 0.21142 0.8082 0.81255 0.0
H4919 H 0.2274 0.79497 0.89243 0.0
H4920 H 0.20176 0.86416 0.86741 0.0
H4921 H 0.20773 0.88683 0.84312 0.0
H4922 H 0.26146 0.86904 0.83587 0.0
H4923 H 0.25613 0.84665 0.86062 0.0
C4924 C 0.20417 0.84949 0.96335 0.0
C4925 C 0.21442 0.86817 0.96861 0.0
C4926 C 0.20646 0.83955 0.94597 0.0
C4927 C 0.21959 0.84785 0.93394 0.0
C4928 C 0.23021 0.86633 0.93969 0.0
C4929 C 0.22745 0.87645 0.95664 0.0
C4930 C 0.22189 0.8379 0.91503 0.0
C4931 C 0.22239 0.84861 0.89909 0.0
C4932 C 0.22407 0.81835 0.91258 0.0
C4933 C 0.22557 0.80657 0.92893 0.0
C4934 C 0.23968 0.81272 0.94449 0.0
C4935 C 0.24105 0.80156 0.95985 0.0
C4936 C 0.22848 0.78414 0.95976 0.0
C4937 C 0.21455 0.77782 0.94426 0.0
C4938 C 0.21311 0.78894 0.92886 0.0
C4939 C 0.24793 0.79407 0.83953 0.0
C4940 C 0.23635 0.79661 0.82297 0.0
C4941 C 0.24437 0.8014 0.85754 0.0
C4942 C 0.22916 0.81143 0.85944 0.0
C4943 C 0.21706 0.81326 0.84301 0.0
C4944 C 0.22069 0.80606 0.82496 0.0
C4945 C 0.2266 0.82081 0.87843 0.0
C4946 C 0.22594 0.80998 0.89427 0.0
C4947 C 0.22533 0.84055 0.88107 0.0
C4948 C 0.2284 0.85353 0.86572 0.0
C4949 C 0.21484 0.86506 0.86063 0.0
C4950 C 0.21814 0.87791 0.8468 0.0
C4951 C 0.23494 0.87937 0.8379 0.0
C4952 C 0.24844 0.86788 0.84276 0.0
C4953 C 0.24529 0.85511 0.8567 0.0
H4954 H 0.23757 0.88951 0.82738 0.0
H4955 H 0.22957 0.77552 0.97167 0.0
H4956 H 0.94979 0.57906 0.70334 0.0
H4957 H 0.96369 0.57174 0.67388 0.0
H4958 H 0.90772 0.54592 0.64625 0.0
H4959 H 0.89366 0.55323 0.67563 0.0
H4960 H 0.93521 0.52315 0.64047 0.0
H4961 H 0.92703 0.58864 0.63449 0.0
H4962 H 0.93035 0.6231 0.64539 0.0
H4963 H 0.99156 0.62839 0.65174 0.0
H4964 H 0.9886 0.59394 0.64093 0.0
H4965 H 0.97144 0.54576 0.54417 0.0
H4966 H 0.95406 0.55096 0.57167 0.0
H4967 H 0.99391 0.52529 0.60666 0.0
H4968 H 0.01182 0.52041 0.57908 0.0
H4969 H 0.97263 0.57356 0.60743 0.0
H4970 H 0.96035 0.49935 0.63719 0.0
H4971 H 0.95493 0.46482 0.62595 0.0
H4972 H 0.93192 0.47692 0.57079 0.0
H4973 H 0.93722 0.51151 0.5816 0.0
C4974 C 0.9404 0.57195 0.69095 0.0
C4975 C 0.92061 0.56674 0.6918 0.0
C4976 C 0.94837 0.5678 0.67414 0.0
C4977 C 0.93671 0.55833 0.6579 0.0
C4978 C 0.91694 0.5532 0.65865 0.0
C4979 C 0.90892 0.55748 0.67542 0.0
C4980 C 0.94524 0.55355 0.64023 0.0
C4981 C 0.94341 0.53415 0.63324 0.0
C4982 C 0.95576 0.56794 0.63074 0.0
C4983 C 0.95759 0.58869 0.63706 0.0
C4984 C 0.9412 0.59713 0.63831 0.0
C4985 C 0.94301 0.61667 0.64444 0.0
C4986 C 0.96115 0.62791 0.64932 0.0
C4987 C 0.97752 0.61966 0.648 0.0
C4988 C 0.97578 0.60015 0.64181 0.0
C4989 C 0.97648 0.54109 0.55767 0.0
C4990 C 0.99307 0.5328 0.55957 0.0
C4991 C 0.96653 0.5441 0.57335 0.0
C4992 C 0.97274 0.53852 0.59112 0.0
C4993 C 0.98891 0.52962 0.59298 0.0
C4994 C -0.00088 0.52688 0.5773 0.0
C4995 C 0.96288 0.54315 0.60788 0.0
C4996 C 0.9645 0.56254 0.61471 0.0
C4997 C 0.95209 0.52875 0.61712 0.0
C4998 C 0.94942 0.50807 0.61017 0.0
C4999 C 0.95421 0.49465 0.62262 0.0
C5000 C 0.95117 0.47507 0.61631 0.0
C5001 C 0.9432 0.46871 0.59761 0.0
C5002 C 0.9383 0.48192 0.58517 0.0
C5003 C 0.94143 0.50153 0.59136 0.0
H5004 H 0.94075 0.45353 0.59278 0.0
H5005 H 0.96254 0.64302 0.65407 0.0
H5006 H 0.27907 0.16157 0.42565 0.0
H5007 H 0.28278 0.18346 0.40079 0.0
H5008 H 0.29895 0.23172 0.44379 0.0
H5009 H 0.29451 0.20988 0.46876 0.0
H5010 H 0.27323 0.23929 0.41922 0.0
H5011 H 0.33213 0.21773 0.41386 0.0
H5012 H 0.35416 0.19448 0.41148 0.0
H5013 H 0.32246 0.16804 0.35865 0.0
H5014 H 0.30005 0.19093 0.36089 0.0
H5015 H 0.30057 0.27396 0.32014 0.0
H5016 H 0.3094 0.26283 0.35105 0.0
H5017 H 0.24967 0.24383 0.35704 0.0
H5018 H 0.24072 0.2553 0.32645 0.0
H5019 H 0.30437 0.22801 0.36058 0.0
H5020 H 0.24154 0.24487 0.40302 0.0
H5021 H 0.22213 0.27038 0.40651 0.0
H5022 H 0.26651 0.31088 0.38747 0.0
H5023 H 0.28641 0.28576 0.3843 0.0
C5024 C 0.28374 0.1768 0.42981 0.0
C5025 C 0.28641 0.18405 0.4491 0.0
C5026 C 0.28598 0.18931 0.41559 0.0
C5027 C 0.29134 0.20924 0.42043 0.0
C5028 C 0.29479 0.21641 0.43974 0.0
C5029 C 0.29229 0.20392 0.45397 0.0
C5030 C 0.2915 0.22257 0.4053 0.0
C5031 C 0.28023 0.237 0.40648 0.0
C5032 C 0.30105 0.21994 0.38892 0.0
C5033 C 0.31443 0.20606 0.38755 0.0
C5034 C 0.32981 0.20689 0.40179 0.0
C5035 C 0.34236 0.19377 0.40047 0.0
C5036 C 0.33972 0.17979 0.38492 0.0
C5037 C 0.32451 0.17889 0.37067 0.0
C5038 C 0.3119 0.19195 0.37195 0.0
C5039 C 0.2893 0.26769 0.32819 0.0
C5040 C 0.26993 0.26561 0.32092 0.0
C5041 C 0.29438 0.26131 0.34582 0.0
C5042 C 0.2802 0.25269 0.35643 0.0
C5043 C 0.26085 0.25083 0.3493 0.0
C5044 C 0.25575 0.25734 0.33177 0.0
C5045 C 0.28553 0.24423 0.37422 0.0
C5046 C 0.29777 0.23066 0.37349 0.0
C5047 C 0.27727 0.24804 0.39121 0.0
C5048 C 0.26545 0.26335 0.39332 0.0
C5049 C 0.24726 0.25925 0.39973 0.0
C5050 C 0.23617 0.27366 0.40168 0.0
C5051 C 0.24309 0.29224 0.39722 0.0
C5052 C 0.26116 0.29647 0.3909 0.0
C5053 C 0.27235 0.28215 0.38902 0.0
H5054 H 0.23442 0.30333 0.39862 0.0
H5055 H 0.34946 0.16966 0.38392 0.0
H5056 H 0.34814 0.62264 0.53783 0.0
H5057 H 0.37497 0.6075 0.52947 0.0
H5058 H 0.36573 0.62182 0.47155 0.0
H5059 H 0.33893 0.63751 0.47997 0.0
H5060 H 0.36813 0.58066 0.47735 0.0
H5061 H 0.40298 0.64455 0.49325 0.0
H5062 H 0.41337 0.6757 0.51259 0.0
H5063 H 0.43495 0.64704 0.55914 0.0
H5064 H 0.42446 0.61567 0.54016 0.0
H5065 H 0.44882 0.53286 0.46568 0.0
H5066 H 0.42619 0.55549 0.46242 0.0
H5067 H 0.43557 0.57086 0.52338 0.0
H5068 H 0.45871 0.54956 0.52631 0.0
H5069 H 0.43453 0.6012 0.50852 0.0
H5070 H 0.39394 0.53802 0.49709 0.0
H5071 H 0.38248 0.50583 0.47997 0.0
H5072 H 0.37038 0.53148 0.42811 0.0
H5073 H 0.38197 0.56382 0.44492 0.0
C5074 C 0.35198 0.62283 0.52337 0.0
C5075 C 0.34147 0.63129 0.50956 0.0
C5076 C 0.3673 0.61417 0.51862 0.0
C5077 C 0.37228 0.61351 0.4999 0.0
C5078 C 0.36206 0.6222 0.48608 0.0
C5079 C 0.3469 0.63126 0.49094 0.0
C5080 C 0.38773 0.603 0.49498 0.0
C5081 C 0.38279 0.5853 0.48377 0.0
C5082 C 0.40667 0.60891 0.50373 0.0
C5083 C 0.41277 0.62773 0.51532 0.0
C5084 C 0.40974 0.64486 0.50769 0.0
C5085 C 0.41571 0.66256 0.51856 0.0
C5086 C 0.42478 0.66334 0.53709 0.0
C5087 C 0.42792 0.64641 0.54478 0.0
C5088 C 0.42198 0.62867 0.53396 0.0
C5089 C 0.44597 0.54118 0.47827 0.0
C5090 C 0.45552 0.53954 0.49621 0.0
C5091 C 0.433 0.55403 0.47646 0.0
C5092 C 0.42896 0.56489 0.49269 0.0
C5093 C 0.43848 0.56294 0.51056 0.0
C5094 C 0.45171 0.55063 0.51225 0.0
C5095 C 0.41482 0.57824 0.49164 0.0
C5096 C 0.42 0.59659 0.50174 0.0
C5097 C 0.39597 0.57268 0.48226 0.0
C5098 C 0.38904 0.55328 0.47218 0.0
C5099 C 0.38896 0.53677 0.48201 0.0
C5100 C 0.38243 0.51851 0.47237 0.0
C5101 C 0.37578 0.51661 0.45295 0.0
C5102 C 0.37559 0.53297 0.44314 0.0
C5103 C 0.38213 0.55126 0.45271 0.0
H5104 H 0.37072 0.50246 0.44551 0.0
H5105 H 0.4294 0.67707 0.54549 0.0
H5106 H 0.7897 0.9643 0.51356 0.0
H5107 H 0.82413 0.97224 0.51275 0.0
H5108 H 0.83157 0.92061 0.53892 0.0
H5109 H 0.79689 0.91251 0.53999 0.0
H5110 H 0.85867 0.95249 0.55413 0.0
H5111 H 0.83461 0.92032 0.49298 0.0
H5112 H 0.81299 0.91283 0.46299 0.0
H5113 H 0.83076 0.9701 0.4478 0.0
H5114 H 0.85228 0.97804 0.47784 0.0
H5115 H 0.95622 0.97504 0.53251 0.0
H5116 H 0.92412 0.95757 0.53542 0.0
H5117 H 0.89943 -0.00039 0.50491 0.0
H5118 H 0.93137 0.01657 0.50125 0.0
H5119 H 0.88222 0.96509 0.4917 0.0
H5120 H 0.90259 0.99805 0.55573 0.0
H5121 H 0.92408 0.00507 0.58587 0.0
H5122 H 0.91339 0.94529 0.59545 0.0
H5123 H 0.89208 0.93788 0.56521 0.0
C5124 C 0.79858 0.95461 0.51922 0.0
C5125 C 0.79051 0.93768 0.5267 0.0
C5126 C 0.81827 0.95916 0.51869 0.0
C5127 C 0.8303 0.94684 0.52548 0.0
C5128 C 0.82245 0.93022 0.53352 0.0
C5129 C 0.80266 0.92563 0.53407 0.0
C5130 C 0.85103 0.95145 0.52379 0.0
C5131 C 0.86393 0.95491 0.54046 0.0
C5132 C 0.8578 0.95455 0.50594 0.0
C5133 C 0.84499 0.9498 0.48773 0.0
C5134 C 0.83382 0.93136 0.48331 0.0
C5135 C 0.82159 0.92703 0.46628 0.0
C5136 C 0.82048 0.94099 0.45351 0.0
C5137 C 0.83163 0.9593 0.45771 0.0
C5138 C 0.84387 0.96372 0.47472 0.0
C5139 C 0.94391 0.98057 0.52652 0.0
C5140 C 0.94624 0.99716 0.51666 0.0
C5141 C 0.92559 0.97061 0.52823 0.0
C5142 C 0.90936 0.97738 0.52053 0.0
C5143 C 0.91175 0.99406 0.51088 0.0
C5144 C 0.93 0.00379 0.50885 0.0
C5145 C 0.88976 0.96718 0.52214 0.0
C5146 C 0.87706 0.96245 0.50537 0.0
C5147 C 0.88325 0.96287 0.53989 0.0
C5148 C 0.89591 0.96739 0.55813 0.0
C5149 C 0.90493 0.9864 0.56421 0.0
C5150 C 0.91708 0.99044 0.5813 0.0
C5151 C 0.92018 0.97562 0.59252 0.0
C5152 C 0.91106 0.95674 0.5867 0.0
C5153 C 0.89894 0.95261 0.5696 0.0
H5154 H 0.92959 0.97878 0.60575 0.0
H5155 H 0.811 0.93761 0.44034 0.0
H5156 H 0.80642 0.09106 0.23167 0.0
H5157 H 0.79036 0.11868 0.23721 0.0
H5158 H 0.83886 0.14728 0.2761 0.0
H5159 H 0.85515 0.11991 0.27046 0.0
H5160 H 0.80027 0.1482 0.28859 0.0
H5161 H 0.8378 0.1616 0.23639 0.0
H5162 H 0.84892 0.15473 0.20502 0.0
H5163 H 0.7916 0.14974 0.17779 0.0
H5164 H 0.78006 0.15619 0.20906 0.0
H5165 H 0.77429 0.24101 0.29393 0.0
H5166 H 0.79092 0.21353 0.29195 0.0
H5167 H 0.75567 0.19097 0.23926 0.0
H5168 H 0.74064 0.21951 0.24029 0.0
H5169 H 0.7893 0.18732 0.23469 0.0
H5170 H 0.75056 0.17206 0.2854 0.0
H5171 H 0.73793 0.17783 0.31622 0.0
H5172 H 0.79462 0.18478 0.34551 0.0
H5173 H 0.80761 0.17927 0.31485 0.0
C5174 C 0.81356 0.10313 0.24158 0.0
C5175 C 0.83205 0.10337 0.2506 0.0
C5176 C 0.80441 0.11889 0.24467 0.0
C5177 C 0.8135 0.13498 0.25701 0.0
C5178 C 0.83163 0.13496 0.26659 0.0
C5179 C 0.84091 0.11934 0.26329 0.0
C5180 C 0.80436 0.15214 0.2593 0.0
C5181 C 0.79799 0.15692 0.27691 0.0
C5182 C 0.80113 0.16318 0.2439 0.0
C5183 C 0.80803 0.15911 0.2251 0.0
C5184 C 0.82752 0.15878 0.22375 0.0
C5185 C 0.83391 0.15502 0.20597 0.0
C5186 C 0.82096 0.15173 0.18943 0.0
C5187 C 0.8016 0.15223 0.19062 0.0
C5188 C 0.79513 0.15593 0.20836 0.0
C5189 C 0.7705 0.23038 0.28174 0.0
C5190 C 0.75671 0.23266 0.26697 0.0
C5191 C 0.77965 0.21442 0.28082 0.0
C5192 C 0.77449 0.19999 0.26551 0.0
C5193 C 0.76005 0.20192 0.25116 0.0
C5194 C 0.75133 0.21816 0.25183 0.0
C5195 C 0.78457 0.18326 0.26391 0.0
C5196 C 0.79136 0.17861 0.24643 0.0
C5197 C 0.78786 0.17216 0.27935 0.0
C5198 C 0.78007 0.17541 0.29781 0.0
C5199 C 0.76034 0.17493 0.29841 0.0
C5200 C 0.75312 0.17814 0.31585 0.0
C5201 C 0.76547 0.18171 0.33281 0.0
C5202 C 0.78507 0.18203 0.33236 0.0
C5203 C 0.79237 0.17884 0.31496 0.0
H5204 H 0.75985 0.1842 0.3463 0.0
H5205 H 0.82594 0.14885 0.17568 0.0
H5206 H 0.72061 0.15743 0.99712 0.0
H5207 H 0.68882 0.13847 0.99791 0.0
H5208 H 0.71316 0.0867 -0.00107 0.0
H5209 H 0.74504 0.10558 0.9977 0.0
H5210 H 0.68004 0.08015 0.9763 0.0
H5211 H 0.70147 0.10771 0.03972 0.0
H5212 H 0.71511 0.13332 0.06536 0.0
H5213 H 0.66797 0.16257 0.05268 0.0
H5214 H 0.65418 0.13725 0.02677 0.0
H5215 H 0.5958 0.029 0.01301 0.0
H5216 H 0.62907 0.04386 0.01028 0.0
H5217 H 0.6101 0.09613 0.99577 0.0
H5218 H 0.57694 0.0813 0.99804 0.0
H5219 H 0.64149 0.09995 0.02677 0.0
H5220 H 0.62126 0.07115 0.96187 0.0
H5221 H 0.60806 0.04389 0.93781 0.0
H5222 H 0.65389 0.01473 0.95576 0.0
H5223 H 0.66719 0.0417 0.98017 0.0
C5224 C 0.71919 0.14201 0.9974 0.0
C5225 C 0.73531 0.13302 0.99753 0.0
C5226 C 0.70103 0.13118 0.99792 0.0
C5227 C 0.69867 0.1112 -0.00116 0.0
C5228 C 0.71467 0.10209 0.9983 0.0
C5229 C 0.73285 0.11291 0.99765 0.0
C5230 C 0.67957 0.10001 0.0009 0.0
C5231 C 0.67172 0.0843 0.9875 0.0
C5232 C 0.66871 0.10542 0.01553 0.0
C5233 C 0.67688 0.12065 0.03118 0.0
C5234 C 0.69408 0.11967 0.04231 0.0
C5235 C 0.70183 0.13412 0.0569 0.0
C5236 C 0.69243 0.14958 0.06062 0.0
C5237 C 0.67524 0.15059 0.04977 0.0
C5238 C 0.66744 0.13618 0.03514 0.0
C5239 C 0.59878 0.04361 0.00911 0.0
C5240 C 0.58391 0.05405 0.00574 0.0
C5241 C 0.61771 0.05204 0.00754 0.0
C5242 C 0.62193 0.07106 0.00285 0.0
C5243 C 0.60706 0.08144 -0.00056 0.0
C5244 C 0.58817 0.07294 0.00068 0.0
C5245 C 0.64189 0.08047 0.00194 0.0
C5246 C 0.64989 0.09578 0.01565 0.0
C5247 C 0.65296 0.07446 0.98783 0.0
C5248 C 0.64509 0.05835 0.973 0.0
C5249 C 0.62842 0.05885 0.96082 0.0
C5250 C 0.62094 0.04346 0.94709 0.0
C5251 C 0.6301 0.02756 0.9453 0.0
C5252 C 0.64679 0.02704 0.95719 0.0
C5253 C 0.65432 0.04238 0.97096 0.0
H5254 H 0.62428 0.01565 0.93466 0.0
H5255 H 0.69846 0.16076 0.07192 0.0
H5256 H 0.17543 0.45584 0.27682 0.0
H5257 H 0.19258 0.42888 0.2786 0.0
H5258 H 0.14201 0.39292 0.29312 0.0
H5259 H 0.12452 0.41993 0.29118 0.0
H5260 H 0.17937 0.38908 0.31469 0.0
H5261 H 0.14812 0.38598 0.25103 0.0
H5262 H 0.13855 0.39919 0.22105 0.0
H5263 H 0.19759 0.4152 0.21203 0.0
H5264 H 0.20753 0.40236 0.24213 0.0
H5265 H 0.2249 0.30711 0.29429 0.0
H5266 H 0.20192 0.32891 0.29792 0.0
H5267 H 0.23512 0.36941 0.266 0.0
H5268 H 0.25686 0.34689 0.26088 0.0
H5269 H 0.20087 0.36703 0.25336 0.0
H5270 H 0.23251 0.37255 0.31838 0.0
H5271 H 0.24222 0.35974 0.34857 0.0
H5272 H 0.18326 0.33973 0.35559 0.0
H5273 H 0.17322 0.35202 0.32521 0.0
C5274 C 0.16796 0.44229 0.28062 0.0
C5275 C 0.14855 0.43999 0.28371 0.0
C5276 C 0.17781 0.4269 0.28164 0.0
C5277 C 0.16852 0.40891 0.28588 0.0
C5278 C 0.14941 0.40672 0.28986 0.0
C5279 C 0.13944 0.42213 0.28866 0.0
C5280 C 0.17857 0.39224 0.28461 0.0
C5281 C 0.1839 0.384 0.30128 0.0
C5282 C 0.18449 0.38575 0.26712 0.0
C5283 C 0.17856 0.39334 0.24892 0.0
C5284 C 0.15907 0.39246 0.24274 0.0
C5285 C 0.15357 0.39986 0.22571 0.0
C5286 C 0.16745 0.40807 0.21466 0.0
C5287 C 0.18685 0.40885 0.2206 0.0
C5288 C 0.19242 0.4015 0.23764 0.0
C5289 C 0.22703 0.32054 0.2878 0.0
C5290 C 0.24228 0.32506 0.27677 0.0
C5291 C 0.21408 0.33317 0.29016 0.0
C5292 C 0.21668 0.35093 0.28224 0.0
C5293 C 0.23254 0.35574 0.27205 0.0
C5294 C 0.24508 0.34291 0.26922 0.0
C5295 C 0.20275 0.36438 0.28366 0.0
C5296 C 0.19641 0.37193 0.26687 0.0
C5297 C 0.19606 0.37024 0.30109 0.0
C5298 C 0.20213 0.36305 0.31944 0.0
C5299 C 0.22163 0.36531 0.3263 0.0
C5300 C 0.22719 0.35813 0.34344 0.0
C5301 C 0.21337 0.34889 0.35397 0.0
C5302 C 0.19395 0.3469 0.34742 0.0
C5303 C 0.18832 0.35392 0.33022 0.0
H5304 H 0.2177 0.3433 0.3672 0.0
H5305 H 0.16317 0.41378 0.20148 0.0
H5306 H 0.20352 0.45667 0.03364 0.0
H5307 H 0.18324 0.47951 0.02335 0.0
H5308 H 0.13723 0.43241 0.00333 0.0
H5309 H 0.15726 0.40948 0.01388 0.0
H5310 H 0.14784 0.46074 0.97597 0.0
H5311 H 0.13069 0.45578 0.04016 0.0
H5312 H 0.13729 0.4568 0.07516 0.0
H5313 H 0.16558 0.51559 0.07771 0.0
H5314 H 0.15936 0.51482 0.04267 0.0
H5315 H 0.06247 0.49729 0.96709 0.0
H5316 H 0.09125 0.48332 0.96758 0.0
H5317 H 0.12354 0.53481 -0.00028 0.0
H5318 H 0.09444 0.54882 -0.00062 0.0
H5319 H 0.12425 0.50709 0.02004 0.0
H5320 H 0.13612 0.51345 0.95541 0.0
H5321 H 0.12833 0.51193 0.92053 0.0
H5322 H 0.10956 0.45086 0.91801 0.0
H5323 H 0.117 0.45201 0.95289 0.0
C5324 C 0.18897 0.45123 0.02733 0.0
C5325 C 0.18193 0.43135 0.02455 0.0
C5326 C 0.17748 0.46424 0.02141 0.0
C5327 C 0.15891 0.45753 0.01245 0.0
C5328 C 0.15163 0.43775 0.01011 0.0
C5329 C 0.16301 0.42473 0.01631 0.0
C5330 C 0.14715 0.47119 0.00525 0.0
C5331 C 0.14254 0.47089 0.98549 0.0
C5332 C 0.14091 0.48471 0.01777 0.0
C5333 C 0.1448 0.48515 0.0388 0.0
C5334 C 0.13851 0.46885 0.04817 0.0
C5335 C 0.14213 0.4694 0.06801 0.0
C5336 C 0.15191 0.48622 0.07864 0.0
C5337 C 0.15805 0.50255 0.06945 0.0
C5338 C 0.15447 0.50207 0.04961 0.0
C5339 C 0.07587 0.50593 0.97361 0.0
C5340 C 0.07624 0.52387 0.98366 0.0
C5341 C 0.09241 0.49792 0.97388 0.0
C5342 C 0.10954 0.50777 0.98418 0.0
C5343 C 0.11041 0.52682 0.99195 0.0
C5344 C 0.09381 0.53484 0.99172 0.0
C5345 C 0.12463 0.49684 0.99047 0.0
C5346 C 0.12987 0.49745 0.01024 0.0
C5347 C 0.13142 0.48365 0.97787 0.0
C5348 C 0.12708 0.48285 0.95682 0.0
C5349 C 0.13024 0.4997 0.94744 0.0
C5350 C 0.1259 0.4989 0.92765 0.0
C5351 C 0.11845 0.48132 0.91706 0.0
C5352 C 0.11535 0.46447 0.92623 0.0
C5353 C 0.11968 0.46519 0.94601 0.0
H5354 H 0.11508 0.48073 0.90174 0.0
H5355 H 0.15469 0.48663 0.09401 0.0
H5356 H 0.86202 0.97678 0.21158 0.0
H5357 H 0.84712 0.94417 0.21683 0.0
H5358 H 0.81819 0.96711 0.26183 0.0
H5359 H 0.8328 -0.00013 0.25648 0.0
H5360 H 0.83858 0.9358 0.27107 0.0
H5361 H 0.79227 0.95169 0.22325 0.0
H5362 H 0.78187 0.96292 0.19246 0.0
H5363 H 0.80277 0.91701 0.16249 0.0
H5364 H 0.81356 0.90567 0.19314 0.0
H5365 H 0.77549 0.85004 0.28421 0.0
H5366 H 0.78962 0.88295 0.2793 0.0
H5367 H 0.80956 0.8623 0.22714 0.0
H5368 H 0.79535 0.82943 0.2318 0.0
H5369 H 0.79366 0.89287 0.2217 0.0
H5370 H 0.84042 0.87669 0.26732 0.0
H5371 H 0.85272 0.86482 0.29709 0.0
H5372 H 0.83383 0.91018 0.33002 0.0
H5373 H 0.82115 0.92216 0.30041 0.0
C5374 C 0.85239 0.97491 0.22252 0.0
C5375 C 0.84856 0.99091 0.23359 0.0
C5376 C 0.84389 0.95628 0.22548 0.0
C5377 C 0.83158 0.95328 0.23971 0.0
C5378 C 0.82768 0.96918 0.25079 0.0
C5379 C 0.83594 0.98786 0.24763 0.0
C5380 C 0.823 0.93349 0.24312 0.0
C5381 C 0.82851 0.92647 0.26043 0.0
C5382 C 0.81043 0.92119 0.22893 0.0
C5383 C 0.80389 0.92795 0.21049 0.0
C5384 C 0.79481 0.94409 0.2101 0.0
C5385 C 0.78881 0.95046 0.19268 0.0
C5386 C 0.7917 0.94072 0.17553 0.0
C5387 C 0.80056 0.92456 0.17578 0.0
C5388 C 0.8066 0.91815 0.19318 0.0
C5389 C 0.78296 0.85248 0.27173 0.0
C5390 C 0.7842 0.83709 0.25836 0.0
C5391 C 0.79109 0.8713 0.26898 0.0
C5392 C 0.80077 0.87509 0.25291 0.0
C5393 C 0.80212 0.85974 0.23961 0.0
C5394 C 0.79398 0.84093 0.24233 0.0
C5395 C 0.80914 0.89509 0.24973 0.0
C5396 C 0.80365 0.90216 0.23242 0.0
C5397 C 0.82201 0.90732 0.2638 0.0
C5398 C 0.82965 0.9002 0.28165 0.0
C5399 C 0.83874 0.88404 0.28091 0.0
C5400 C 0.84581 0.87731 0.29775 0.0
C5401 C 0.84401 0.88671 0.31544 0.0
C5402 C 0.83518 0.90289 0.31631 0.0
C5403 C 0.82807 0.90968 0.2995 0.0
H5404 H 0.84949 0.88148 0.32847 0.0
H5405 H 0.78704 0.94566 0.16205 0.0
H5406 H 0.61937 0.07203 0.77676 0.0
H5407 H 0.64136 0.10264 0.77962 0.0
H5408 H 0.68941 0.07278 0.78175 0.0
H5409 H 0.66737 0.04192 0.77944 0.0
H5410 H 0.69777 0.10501 0.80564 0.0
H5411 H 0.67335 0.0892 0.74027 0.0
H5412 H 0.64888 0.07914 0.71264 0.0
H5413 H 0.624 0.1292 0.7253 0.0
H5414 H 0.64817 0.13941 0.75318 0.0
H5415 H 0.75093 0.1901 0.76296 0.0
H5416 H 0.73534 0.15687 0.7657 0.0
H5417 H 0.69441 0.17808 0.79909 0.0
H5418 H 0.71015 0.21119 0.79688 0.0
H5419 H 0.68584 0.14898 0.75622 0.0
H5420 H 0.70962 0.16072 0.82554 0.0
H5421 H 0.73662 0.17069 0.85083 0.0
H5422 H 0.76563 0.12747 0.82714 0.0
H5423 H 0.73891 0.11751 0.8015 0.0
C5424 C 0.63461 0.07193 0.77795 0.0
C5425 C 0.64161 0.05451 0.77763 0.0
C5426 C 0.64718 0.08946 0.77955 0.0
C5427 C 0.66703 0.09 0.78047 0.0
C5428 C 0.67414 0.0727 0.78095 0.0
C5429 C 0.66153 0.05509 0.77959 0.0
C5430 C 0.6801 0.10862 0.78008 0.0
C5431 C 0.69522 0.11451 0.79473 0.0
C5432 C 0.67701 0.12102 0.76573 0.0
C5433 C 0.66249 0.11499 0.74891 0.0
C5434 C 0.66258 0.09799 0.73724 0.0
C5435 C 0.64878 0.09227 0.72152 0.0
C5436 C 0.63487 0.1035 0.71724 0.0
C5437 C 0.63477 0.1205 0.72864 0.0
C5438 C 0.64853 0.12628 0.74439 0.0
C5439 C 0.73885 0.18761 0.77121 0.0
C5440 C 0.73166 0.20313 0.77966 0.0
C5441 C 0.73002 0.1687 0.77278 0.0
C5442 C 0.71388 0.16514 0.78271 0.0
C5443 C 0.70703 0.18061 0.79159 0.0
C5444 C 0.71599 0.19947 0.79027 0.0
C5445 C 0.70285 0.14549 0.78209 0.0
C5446 C 0.68827 0.13939 0.76709 0.0
C5447 C 0.70662 0.13288 0.79589 0.0
C5448 C 0.72242 0.13856 0.81151 0.0
C5449 C 0.72185 0.15349 0.82563 0.0
C5450 C 0.73707 0.15911 0.84004 0.0
C5451 C 0.75287 0.14977 0.84055 0.0
C5452 C 0.75341 0.13473 0.8267 0.0
C5453 C 0.73823 0.12909 0.81224 0.0
H5454 H 0.76465 0.15415 0.85171 0.0
H5455 H 0.62419 0.09905 0.70507 0.0
loop_
_geom_bond_atom_site_label_1
_geom_bond_atom_site_label_2
_geom_bond_distance
_geom_bond_site_symmetry_2
_ccdc_geom_bond_type
C0 O1 1.306 . S
C0 O3 1.160 . S
O1 C0 1.306 . S
O1 Cd2 2.228 1_655 S
Cd2 O1 2.228 1_455 S
Cd2 O6 2.273 . S
Cd2 O10 2.277 . S
O3 C0 1.160 . S
O3 Cd4 2.203 1_655 S
Cd4 O3 2.203 1_455 S
Cd4 O6 2.411 . S
Cd4 O7 2.333 . S
Cd4 O8 2.352 . S
Cd4 O12 2.277 . S
Cd4 O13 2.356 . S
C5 O10 1.209 . S
C5 O12 1.226 . S
O6 Cd2 2.273 . S
O6 Cd4 2.411 . S
O6 C9 1.320 . S
O7 Cd4 2.333 . S
O7 C9 1.214 . S
O8 Cd4 2.352 . S
O8 C11 1.258 . S
C9 O6 1.320 . S
C9 O7 1.214 . S
O10 Cd2 2.277 . S
O10 C5 1.209 . S
C11 O8 1.258 . S
C11 O13 1.282 . S
O12 Cd4 2.277 . S
O12 C5 1.226 . S
O13 Cd4 2.356 . S
O13 C11 1.282 . S
C14 O15 1.306 . S
C14 O17 1.160 . S
O15 C14 1.306 . S
O15 Cd16 2.228 1_655 S
Cd16 O15 2.228 1_455 S
Cd16 O20 2.273 . S
Cd16 O24 2.278 1_455 S
O17 C14 1.160 . S
O17 Cd18 2.152 1_655 S
Cd18 O17 2.152 1_455 S
Cd18 O20 2.436 . S
Cd18 O21 2.385 . S
Cd18 O22 2.345 . S
Cd18 O26 2.279 1_455 S
Cd18 O27 2.361 . S
C19 O24 1.214 . S
C19 O26 1.226 . S
O20 Cd16 2.273 . S
O20 Cd18 2.436 . S
O20 C23 1.320 . S
O21 Cd18 2.385 . S
O21 C23 1.214 . S
O22 Cd18 2.345 . S
O22 C25 1.258 . S
C23 O20 1.320 . S
C23 O21 1.214 . S
O24 Cd16 2.278 1_655 S
O24 C19 1.214 . S
C25 O22 1.258 . S
C25 O27 1.282 . S
O26 Cd18 2.279 1_655 S
O26 C19 1.226 . S
O27 Cd18 2.361 . S
O27 C25 1.282 . S
C28 O29 1.306 . S
C28 O31 1.160 . S
O29 C28 1.306 . S
O29 Cd30 2.228 . S
Cd30 O29 2.228 . S
Cd30 O34 2.273 . S
Cd30 O38 2.277 . S
O31 C28 1.160 . S
O31 Cd32 2.203 . S
Cd32 O31 2.203 . S
Cd32 O34 2.411 . S
Cd32 O35 2.333 . S
Cd32 O36 2.352 . S
Cd32 O40 2.277 . S
Cd32 O41 2.356 . S
C33 O38 1.209 . S
C33 O40 1.226 . S
O34 Cd30 2.273 . S
O34 Cd32 2.411 . S
O34 C37 1.320 . S
O35 Cd32 2.333 . S
O35 C37 1.214 . S
O36 Cd32 2.352 . S
O36 C39 1.258 . S
C37 O34 1.320 . S
C37 O35 1.214 . S
O38 Cd30 2.277 . S
O38 C33 1.209 . S
C39 O36 1.258 . S
C39 O41 1.282 . S
O40 Cd32 2.277 . S
O40 C33 1.226 . S
O41 Cd32 2.356 . S
O41 C39 1.282 . S
C42 O43 1.306 . S
C42 O45 1.160 . S
O43 C42 1.306 . S
O43 Cd44 2.228 . S
Cd44 O43 2.228 . S
Cd44 O48 2.273 . S
Cd44 O52 2.277 . S
O45 C42 1.160 . S
O45 Cd46 2.203 . S
Cd46 O45 2.203 . S
Cd46 O48 2.411 . S
Cd46 O49 2.333 . S
Cd46 O50 2.352 . S
Cd46 O54 2.277 . S
Cd46 O55 2.356 . S
C47 O52 1.209 . S
C47 O54 1.226 . S
O48 Cd44 2.273 . S
O48 Cd46 2.411 . S
O48 C51 1.320 . S
O49 Cd46 2.333 . S
O49 C51 1.214 . S
O50 Cd46 2.352 . S
O50 C53 1.258 . S
C51 O48 1.320 . S
C51 O49 1.214 . S
O52 Cd44 2.277 . S
O52 C47 1.209 . S
C53 O50 1.258 . S
C53 O55 1.282 . S
O54 Cd46 2.277 . S
O54 C47 1.226 . S
O55 Cd46 2.356 . S
O55 C53 1.282 . S
C56 O57 1.306 . S
C56 O59 1.160 . S
O57 C56 1.306 . S
O57 Cd58 2.228 1_655 S
Cd58 O57 2.228 1_455 S
Cd58 O62 2.273 . S
Cd58 O66 2.277 . S
O59 C56 1.160 . S
O59 Cd60 2.203 1_655 S
Cd60 O59 2.203 1_455 S
Cd60 O62 2.411 . S
Cd60 O63 2.333 . S
Cd60 O64 2.352 . S
Cd60 O68 2.277 . S
Cd60 O69 2.356 . S
C61 O66 1.209 . S
C61 O68 1.226 . S
O62 Cd58 2.273 . S
O62 Cd60 2.411 . S
O62 C65 1.320 . S
O63 Cd60 2.333 . S
O63 C65 1.214 . S
O64 Cd60 2.352 . S
O64 C67 1.258 . S
C65 O62 1.320 . S
C65 O63 1.214 . S
O66 Cd58 2.277 . S
O66 C61 1.209 . S
C67 O64 1.258 . S
C67 O69 1.282 . S
O68 Cd60 2.277 . S
O68 C61 1.226 . S
O69 Cd60 2.356 . S
O69 C67 1.282 . S
C70 O71 1.306 . S
C70 O73 1.160 . S
O71 C70 1.306 . S
O71 Cd72 2.228 . S
Cd72 O71 2.228 . S
Cd72 O76 2.273 . S
Cd72 O80 2.277 . S
O73 C70 1.160 . S
O73 Cd74 2.203 . S
Cd74 O73 2.203 . S
Cd74 O76 2.411 . S
Cd74 O77 2.333 . S
Cd74 O78 2.352 . S
Cd74 O82 2.277 . S
Cd74 O83 2.356 . S
C75 O80 1.209 . S
C75 O82 1.226 . S
O76 Cd72 2.273 . S
O76 Cd74 2.411 . S
O76 C79 1.320 . S
O77 Cd74 2.333 . S
O77 C79 1.214 . S
O78 Cd74 2.352 . S
O78 C81 1.258 . S
C79 O76 1.320 . S
C79 O77 1.214 . S
O80 Cd72 2.277 . S
O80 C75 1.209 . S
C81 O78 1.258 . S
C81 O83 1.282 . S
O82 Cd74 2.277 . S
O82 C75 1.226 . S
O83 Cd74 2.356 . S
O83 C81 1.282 . S
C84 O85 1.306 . S
C84 O87 1.160 . S
O85 C84 1.306 . S
O85 Cd86 2.228 . S
Cd86 O85 2.228 . S
Cd86 O90 2.273 . S
Cd86 O94 2.277 . S
O87 C84 1.160 . S
O87 Cd88 2.203 . S
Cd88 O87 2.203 . S
Cd88 O90 2.411 . S
Cd88 O91 2.333 . S
Cd88 O92 2.352 . S
Cd88 O96 2.277 . S
Cd88 O97 2.356 . S
C89 O94 1.209 . S
C89 O96 1.226 . S
O90 Cd86 2.273 . S
O90 Cd88 2.411 . S
O90 C93 1.320 . S
O91 Cd88 2.333 . S
O91 C93 1.214 . S
O92 Cd88 2.352 . S
O92 C95 1.258 . S
C93 O90 1.320 . S
C93 O91 1.214 . S
O94 Cd86 2.277 . S
O94 C89 1.209 . S
C95 O92 1.258 . S
C95 O97 1.282 . S
O96 Cd88 2.277 . S
O96 C89 1.226 . S
O97 Cd88 2.356 . S
O97 C95 1.282 . S
C98 O99 1.306 . S
C98 O101 1.160 . S
O99 C98 1.306 . S
O99 Cd100 2.228 1_655 S
Cd100 O99 2.228 1_455 S
Cd100 O104 2.273 . S
Cd100 O108 2.277 . S
O101 C98 1.160 . S
O101 Cd102 2.203 1_655 S
Cd102 O101 2.203 1_455 S
Cd102 O104 2.411 . S
Cd102 O105 2.333 . S
Cd102 O106 2.352 . S
Cd102 O110 2.277 . S
Cd102 O111 2.356 . S
C103 O108 1.209 . S
C103 O110 1.226 . S
O104 Cd100 2.273 . S
O104 Cd102 2.411 . S
O104 C107 1.320 . S
O105 Cd102 2.333 . S
O105 C107 1.214 . S
O106 Cd102 2.352 . S
O106 C109 1.258 . S
C107 O104 1.320 . S
C107 O105 1.214 . S
O108 Cd100 2.277 . S
O108 C103 1.209 . S
C109 O106 1.258 . S
C109 O111 1.282 . S
O110 Cd102 2.277 . S
O110 C103 1.226 . S
O111 Cd102 2.356 . S
O111 C109 1.282 . S
C112 O113 1.306 . S
C112 O115 1.160 . S
O113 C112 1.306 . S
O113 Cd114 2.228 . S
Cd114 O113 2.228 . S
Cd114 O118 2.273 . S
Cd114 O122 2.277 . S
O115 C112 1.160 . S
O115 Cd116 2.203 . S
Cd116 O115 2.203 . S
Cd116 O118 2.411 . S
Cd116 O119 2.333 . S
Cd116 O120 2.352 . S
Cd116 O124 2.277 . S
Cd116 O125 2.356 . S
C117 O122 1.209 . S
C117 O124 1.226 . S
O118 Cd114 2.273 . S
O118 Cd116 2.411 . S
O118 C121 1.320 . S
O119 Cd116 2.333 . S
O119 C121 1.214 . S
O120 Cd116 2.352 . S
O120 C123 1.258 . S
C121 O118 1.320 . S
C121 O119 1.214 . S
O122 Cd114 2.277 . S
O122 C117 1.209 . S
C123 O120 1.258 . S
C123 O125 1.282 . S
O124 Cd116 2.277 . S
O124 C117 1.226 . S
O125 Cd116 2.356 . S
O125 C123 1.282 . S
C126 O127 1.306 . S
C126 O129 1.160 . S
O127 C126 1.306 . S
O127 Cd128 2.228 . S
Cd128 O127 2.228 . S
Cd128 O132 2.273 . S
Cd128 O136 2.277 . S
O129 C126 1.160 . S
O129 Cd130 2.203 . S
Cd130 O129 2.203 . S
Cd130 O132 2.411 . S
Cd130 O133 2.333 . S
Cd130 O134 2.352 . S
Cd130 O138 2.277 . S
Cd130 O139 2.356 . S
C131 O136 1.209 . S
C131 O138 1.226 . S
O132 Cd128 2.273 . S
O132 Cd130 2.411 . S
O132 C135 1.320 . S
O133 Cd130 2.333 . S
O133 C135 1.214 . S
O134 Cd130 2.352 . S
O134 C137 1.258 . S
C135 O132 1.320 . S
C135 O133 1.214 . S
O136 Cd128 2.277 . S
O136 C131 1.209 . S
C137 O134 1.258 . S
C137 O139 1.282 . S
O138 Cd130 2.277 . S
O138 C131 1.226 . S
O139 Cd130 2.356 . S
O139 C137 1.282 . S
C140 O141 1.306 . S
C140 O143 1.143 1_545 S
O141 C140 1.306 . S
O141 Cd142 2.228 . S
Cd142 O141 2.228 . S
Cd142 O146 2.273 1_545 S
Cd142 O150 2.277 . S
O143 C140 1.143 1_565 S
O143 Cd144 2.204 . S
Cd144 O143 2.204 . S
Cd144 O146 2.411 . S
Cd144 O147 2.333 . S
Cd144 O148 2.352 . S
Cd144 O152 2.277 1_565 S
Cd144 O153 2.356 . S
C145 O150 1.209 . S
C145 O152 1.226 . S
O146 Cd142 2.273 1_565 S
O146 Cd144 2.411 . S
O146 C149 1.320 . S
O147 Cd144 2.333 . S
O147 C149 1.214 . S
O148 Cd144 2.352 . S
O148 C151 1.258 . S
C149 O146 1.320 . S
C149 O147 1.214 . S
O150 Cd142 2.277 . S
O150 C145 1.209 . S
C151 O148 1.258 . S
C151 O153 1.282 . S
O152 Cd144 2.277 1_545 S
O152 C145 1.226 . S
O153 Cd144 2.356 . S
O153 C151 1.282 . S
C154 O155 1.306 . S
C154 O157 1.160 . S
O155 C154 1.306 . S
O155 Cd156 2.228 . S
Cd156 O155 2.228 . S
Cd156 O160 2.273 . S
Cd156 O164 2.277 1_554 S
O157 C154 1.160 . S
O157 Cd158 2.203 . S
Cd158 O157 2.203 . S
Cd158 O160 2.411 . S
Cd158 O161 2.333 . S
Cd158 O162 2.352 . S
Cd158 O166 2.277 . S
Cd158 O167 2.356 . S
C159 O164 1.209 . S
C159 O166 1.226 1_556 S
O160 Cd156 2.273 . S
O160 Cd158 2.411 . S
O160 C163 1.320 . S
O161 Cd158 2.333 . S
O161 C163 1.214 . S
O162 Cd158 2.352 . S
O162 C165 1.258 . S
C163 O160 1.320 . S
C163 O161 1.214 . S
O164 Cd156 2.277 1_556 S
O164 C159 1.209 . S
C165 O162 1.258 . S
C165 O167 1.282 . S
O166 Cd158 2.277 . S
O166 C159 1.226 1_554 S
O167 Cd158 2.356 . S
O167 C165 1.282 . S
C168 O169 1.306 . S
C168 O171 1.160 . S
O169 C168 1.306 . S
O169 Cd170 2.228 1_554 S
Cd170 O169 2.228 1_556 S
Cd170 O174 2.273 1_556 S
Cd170 O178 2.277 . S
O171 C168 1.160 . S
O171 Cd172 2.203 . S
Cd172 O171 2.203 . S
Cd172 O174 2.411 . S
Cd172 O175 2.333 . S
Cd172 O176 2.352 . S
Cd172 O180 2.324 . S
Cd172 O181 2.356 . S
C173 O178 1.209 . S
C173 O180 1.178 1_556 S
O174 Cd170 2.273 1_554 S
O174 Cd172 2.411 . S
O174 C177 1.320 . S
O175 Cd172 2.333 . S
O175 C177 1.214 . S
O176 Cd172 2.352 . S
O176 C179 1.258 . S
C177 O174 1.320 . S
C177 O175 1.214 . S
O178 Cd170 2.277 . S
O178 C173 1.209 . S
C179 O176 1.258 . S
C179 O181 1.282 . S
O180 Cd172 2.324 . S
O180 C173 1.178 1_554 S
O181 Cd172 2.356 . S
O181 C179 1.282 . S
C182 O183 1.306 . S
C182 O185 1.153 1_554 S
O183 C182 1.306 . S
O183 Cd184 2.228 . S
Cd184 O183 2.228 . S
Cd184 O188 2.232 1_554 S
Cd184 O192 2.277 . S
O185 C182 1.153 1_556 S
O185 Cd186 2.203 . S
Cd186 O185 2.203 . S
Cd186 O188 2.420 . S
Cd186 O189 2.333 . S
Cd186 O190 2.352 . S
Cd186 O194 2.277 1_556 S
Cd186 O195 2.356 . S
C187 O192 1.209 . S
C187 O194 1.226 . S
O188 Cd184 2.232 1_556 S
O188 Cd186 2.420 . S
O188 C191 1.324 . S
O189 Cd186 2.333 . S
O189 C191 1.214 . S
O190 Cd186 2.352 . S
O190 C193 1.258 . S
C191 O188 1.324 . S
C191 O189 1.214 . S
O192 Cd184 2.277 . S
O192 C187 1.209 . S
C193 O190 1.258 . S
C193 O195 1.282 . S
O194 Cd186 2.277 1_554 S
O194 C187 1.226 . S
O195 Cd186 2.356 . S
O195 C193 1.282 . S
C196 O197 1.306 . S
C196 O199 1.160 . S
O197 C196 1.306 . S
O197 Cd198 2.228 . S
Cd198 O197 2.228 . S
Cd198 O202 2.273 . S
Cd198 O206 2.277 . S
O199 C196 1.160 . S
O199 Cd200 2.203 . S
Cd200 O199 2.203 . S
Cd200 O202 2.411 . S
Cd200 O203 2.333 . S
Cd200 O204 2.352 . S
Cd200 O208 2.277 . S
Cd200 O209 2.356 . S
C201 O206 1.209 . S
C201 O208 1.226 . S
O202 Cd198 2.273 . S
O202 Cd200 2.411 . S
O202 C205 1.320 . S
O203 Cd200 2.333 . S
O203 C205 1.214 . S
O204 Cd200 2.352 . S
O204 C207 1.258 . S
C205 O202 1.320 . S
C205 O203 1.214 . S
O206 Cd198 2.277 . S
O206 C201 1.209 . S
C207 O204 1.258 . S
C207 O209 1.282 . S
O208 Cd200 2.277 . S
O208 C201 1.226 . S
O209 Cd200 2.356 . S
O209 C207 1.282 . S
C210 O211 1.306 . S
C210 O213 1.160 . S
O211 C210 1.306 . S
O211 Cd212 2.228 . S
Cd212 O211 2.228 . S
Cd212 O216 2.273 . S
Cd212 O220 2.277 . S
O213 C210 1.160 . S
O213 Cd214 2.203 . S
Cd214 O213 2.203 . S
Cd214 O216 2.411 . S
Cd214 O217 2.333 . S
Cd214 O218 2.352 . S
Cd214 O222 2.277 . S
Cd214 O223 2.356 . S
C215 O220 1.209 . S
C215 O222 1.226 . S
O216 Cd212 2.273 . S
O216 Cd214 2.411 . S
O216 C219 1.320 . S
O217 Cd214 2.333 . S
O217 C219 1.214 . S
O218 Cd214 2.352 . S
O218 C221 1.258 . S
C219 O216 1.320 . S
C219 O217 1.214 . S
O220 Cd212 2.277 . S
O220 C215 1.209 . S
C221 O218 1.258 . S
C221 O223 1.282 . S
O222 Cd214 2.277 . S
O222 C215 1.226 . S
O223 Cd214 2.356 . S
O223 C221 1.282 . S
C224 O225 1.306 . S
C224 O227 1.160 . S
O225 C224 1.306 . S
O225 Cd226 2.228 . S
Cd226 O225 2.228 . S
Cd226 O230 2.273 . S
Cd226 O234 2.277 . S
O227 C224 1.160 . S
O227 Cd228 2.203 . S
Cd228 O227 2.203 . S
Cd228 O230 2.411 . S
Cd228 O231 2.333 . S
Cd228 O232 2.352 . S
Cd228 O236 2.277 . S
Cd228 O237 2.356 . S
C229 O234 1.209 . S
C229 O236 1.226 . S
O230 Cd226 2.273 . S
O230 Cd228 2.411 . S
O230 C233 1.320 . S
O231 Cd228 2.333 . S
O231 C233 1.214 . S
O232 Cd228 2.352 . S
O232 C235 1.258 . S
C233 O230 1.320 . S
C233 O231 1.214 . S
O234 Cd226 2.277 . S
O234 C229 1.209 . S
C235 O232 1.258 . S
C235 O237 1.282 . S
O236 Cd228 2.277 . S
O236 C229 1.226 . S
O237 Cd228 2.356 . S
O237 C235 1.282 . S
C238 O239 1.306 . S
C238 O241 1.160 . S
O239 C238 1.306 . S
O239 Cd240 2.228 . S
Cd240 O239 2.228 . S
Cd240 O244 2.273 . S
Cd240 O248 2.277 . S
O241 C238 1.160 . S
O241 Cd242 2.203 . S
Cd242 O241 2.203 . S
Cd242 O244 2.411 . S
Cd242 O245 2.333 . S
Cd242 O246 2.352 . S
Cd242 O250 2.277 . S
Cd242 O251 2.356 . S
C243 O248 1.209 . S
C243 O250 1.226 . S
O244 Cd240 2.273 . S
O244 Cd242 2.411 . S
O244 C247 1.320 . S
O245 Cd242 2.333 . S
O245 C247 1.214 . S
O246 Cd242 2.352 . S
O246 C249 1.258 . S
C247 O244 1.320 . S
C247 O245 1.214 . S
O248 Cd240 2.277 . S
O248 C243 1.209 . S
C249 O246 1.258 . S
C249 O251 1.282 . S
O250 Cd242 2.277 . S
O250 C243 1.226 . S
O251 Cd242 2.356 . S
O251 C249 1.282 . S
C252 O253 1.306 . S
C252 O255 1.160 . S
O253 C252 1.306 . S
O253 Cd254 2.228 . S
Cd254 O253 2.228 . S
Cd254 O258 2.273 . S
Cd254 O262 2.277 . S
O255 C252 1.160 . S
O255 Cd256 2.203 . S
Cd256 O255 2.203 . S
Cd256 O258 2.411 . S
Cd256 O259 2.333 . S
Cd256 O260 2.352 . S
Cd256 O264 2.277 . S
Cd256 O265 2.356 . S
C257 O262 1.209 . S
C257 O264 1.226 . S
O258 Cd254 2.273 . S
O258 Cd256 2.411 . S
O258 C261 1.320 . S
O259 Cd256 2.333 . S
O259 C261 1.214 . S
O260 Cd256 2.352 . S
O260 C263 1.258 . S
C261 O258 1.320 . S
C261 O259 1.214 . S
O262 Cd254 2.277 . S
O262 C257 1.209 . S
C263 O260 1.258 . S
C263 O265 1.282 . S
O264 Cd256 2.277 . S
O264 C257 1.226 . S
O265 Cd256 2.356 . S
O265 C263 1.282 . S
C266 O267 1.306 . S
C266 O269 1.160 . S
O267 C266 1.306 . S
O267 Cd268 2.228 . S
Cd268 O267 2.228 . S
Cd268 O272 2.273 . S
Cd268 O276 2.277 . S
O269 C266 1.160 . S
O269 Cd270 2.203 . S
Cd270 O269 2.203 . S
Cd270 O272 2.411 . S
Cd270 O273 2.333 . S
Cd270 O274 2.352 1_545 S
Cd270 O278 2.277 . S
Cd270 O279 2.356 1_545 S
C271 O276 1.209 . S
C271 O278 1.226 . S
O272 Cd268 2.273 . S
O272 Cd270 2.411 . S
O272 C275 1.320 . S
O273 Cd270 2.333 . S
O273 C275 1.214 . S
O274 Cd270 2.352 1_565 S
O274 C277 1.258 . S
C275 O272 1.320 . S
C275 O273 1.214 . S
O276 Cd268 2.277 . S
O276 C271 1.209 . S
C277 O274 1.258 . S
C277 O279 1.282 . S
O278 Cd270 2.277 . S
O278 C271 1.226 . S
O279 Cd270 2.356 1_565 S
O279 C277 1.282 . S
C280 O281 1.306 . S
C280 O283 1.160 . S
O281 C280 1.306 . S
O281 Cd282 2.228 . S
Cd282 O281 2.228 . S
Cd282 O286 2.273 . S
Cd282 O290 2.277 . S
O283 C280 1.160 . S
O283 Cd284 2.203 . S
Cd284 O283 2.203 . S
Cd284 O286 2.411 . S
Cd284 O287 2.333 . S
Cd284 O288 2.352 1_554 S
Cd284 O292 2.277 . S
Cd284 O293 2.356 1_554 S
C285 O290 1.209 . S
C285 O292 1.226 . S
O286 Cd282 2.273 . S
O286 Cd284 2.411 . S
O286 C289 1.320 . S
O287 Cd284 2.333 . S
O287 C289 1.214 . S
O288 Cd284 2.352 1_556 S
O288 C291 1.258 . S
C289 O286 1.320 . S
C289 O287 1.214 . S
O290 Cd282 2.277 . S
O290 C285 1.209 . S
C291 O288 1.258 . S
C291 O293 1.282 . S
O292 Cd284 2.277 . S
O292 C285 1.226 . S
O293 Cd284 2.356 1_556 S
O293 C291 1.282 . S
C294 O295 1.306 . S
C294 O297 1.160 . S
O295 C294 1.306 . S
O295 Cd296 2.228 . S
Cd296 O295 2.228 . S
Cd296 O300 2.273 . S
Cd296 O304 2.277 . S
O297 C294 1.160 . S
O297 Cd298 2.203 . S
Cd298 O297 2.203 . S
Cd298 O300 2.411 . S
Cd298 O301 2.333 . S
Cd298 O302 2.352 . S
Cd298 O306 2.277 . S
Cd298 O307 2.356 . S
C299 O304 1.209 . S
C299 O306 1.226 . S
O300 Cd296 2.273 . S
O300 Cd298 2.411 . S
O300 C303 1.320 . S
O301 Cd298 2.333 . S
O301 C303 1.214 . S
O302 Cd298 2.352 . S
O302 C305 1.258 . S
C303 O300 1.320 . S
C303 O301 1.214 . S
O304 Cd296 2.277 . S
O304 C299 1.209 . S
C305 O302 1.258 . S
C305 O307 1.282 . S
O306 Cd298 2.277 . S
O306 C299 1.226 . S
O307 Cd298 2.356 . S
O307 C305 1.282 . S
C308 O309 1.306 . S
C308 O311 1.160 . S
O309 C308 1.306 . S
O309 Cd310 2.228 . S
Cd310 O309 2.228 . S
Cd310 O314 2.273 . S
Cd310 O318 2.277 . S
O311 C308 1.160 . S
O311 Cd312 2.203 . S
Cd312 O311 2.203 . S
Cd312 O314 2.411 . S
Cd312 O315 2.333 . S
Cd312 O316 2.352 . S
Cd312 O320 2.277 . S
Cd312 O321 2.356 . S
C313 O318 1.209 . S
C313 O320 1.226 . S
O314 Cd310 2.273 . S
O314 Cd312 2.411 . S
O314 C317 1.320 . S
O315 Cd312 2.333 . S
O315 C317 1.214 . S
O316 Cd312 2.352 . S
O316 C319 1.258 . S
C317 O314 1.320 . S
C317 O315 1.214 . S
O318 Cd310 2.277 . S
O318 C313 1.209 . S
C319 O316 1.258 . S
C319 O321 1.282 . S
O320 Cd312 2.277 . S
O320 C313 1.226 . S
O321 Cd312 2.356 . S
O321 C319 1.282 . S
C322 O323 1.306 . S
C322 O325 1.160 . S
O323 C322 1.306 . S
O323 Cd324 2.228 . S
Cd324 O323 2.228 . S
Cd324 O328 2.273 . S
Cd324 O332 2.277 . S
O325 C322 1.160 . S
O325 Cd326 2.203 . S
Cd326 O325 2.203 . S
Cd326 O328 2.411 . S
Cd326 O329 2.333 . S
Cd326 O330 2.352 . S
Cd326 O334 2.277 . S
Cd326 O335 2.356 . S
C327 O332 1.209 . S
C327 O334 1.226 . S
O328 Cd324 2.273 . S
O328 Cd326 2.411 . S
O328 C331 1.320 . S
O329 Cd326 2.333 . S
O329 C331 1.214 . S
O330 Cd326 2.352 . S
O330 C333 1.258 . S
C331 O328 1.320 . S
C331 O329 1.214 . S
O332 Cd324 2.277 . S
O332 C327 1.209 . S
C333 O330 1.258 . S
C333 O335 1.282 . S
O334 Cd326 2.277 . S
O334 C327 1.226 . S
O335 Cd326 2.356 . S
O335 C333 1.282 . S
Tb336 O339 2.453 . S
Tb336 O340 2.596 . S
Tb336 O341 2.374 1_554 S
Tb336 O349 2.343 1_455 S
Tb336 O351 2.353 . S
Tb336 O353 2.427 . S
Tb336 O354 2.513 1_554 S
C337 O341 1.251 . S
C337 O343 1.263 . S
Tb338 O340 2.343 1_655 S
Tb338 O343 2.353 1_654 S
Tb338 O346 2.427 1_645 S
Tb338 O347 2.513 1_645 S
Tb338 O348 2.453 . S
Tb338 O349 2.596 . S
Tb338 O350 2.374 . S
O339 Tb336 2.453 . S
O339 C355 1.245 . S
O340 Tb336 2.596 . S
O340 Tb338 2.343 1_455 S
O340 C355 1.259 . S
O341 Tb336 2.374 1_556 S
O341 C337 1.251 . S
C342 O346 1.275 . S
C342 O347 1.246 . S
O343 C337 1.263 . S
O343 Tb338 2.353 1_456 S
C344 O348 1.245 . S
C344 O349 1.259 . S
C345 O350 1.248 1_455 S
C345 O351 1.273 . S
O346 Tb338 2.427 1_465 S
O346 C342 1.275 . S
O347 Tb338 2.513 1_465 S
O347 C342 1.246 . S
O348 Tb338 2.453 . S
O348 C344 1.245 . S
O349 Tb336 2.343 1_655 S
O349 Tb338 2.596 . S
O349 C344 1.259 . S
O350 Tb338 2.374 . S
O350 C345 1.248 1_655 S
O351 Tb336 2.353 . S
O351 C345 1.273 . S
C352 O353 1.275 . S
C352 O354 1.246 1_554 S
O353 Tb336 2.427 . S
O353 C352 1.275 . S
O354 Tb336 2.513 1_556 S
O354 C352 1.246 1_556 S
C355 O339 1.245 . S
C355 O340 1.259 . S
Tb356 O359 2.453 . S
Tb356 O360 2.596 . S
Tb356 O361 2.374 . S
Tb356 O369 2.343 . S
Tb356 O371 2.353 . S
Tb356 O373 2.427 . S
Tb356 O374 2.513 . S
C357 O361 1.251 . S
C357 O363 1.263 . S
Tb358 O360 2.343 . S
Tb358 O363 2.353 . S
Tb358 O366 2.427 . S
Tb358 O367 2.513 . S
Tb358 O368 2.453 . S
Tb358 O369 2.596 . S
Tb358 O370 2.374 . S
O359 Tb356 2.453 . S
O359 C375 1.245 . S
O360 Tb356 2.596 . S
O360 Tb358 2.343 . S
O360 C375 1.259 . S
O361 Tb356 2.374 . S
O361 C357 1.251 . S
C362 O366 1.275 . S
C362 O367 1.246 . S
O363 C357 1.263 . S
O363 Tb358 2.353 . S
C364 O368 1.245 . S
C364 O369 1.259 . S
C365 O370 1.250 . S
C365 O371 1.263 . S
O366 Tb358 2.427 . S
O366 C362 1.275 . S
O367 Tb358 2.513 . S
O367 C362 1.246 . S
O368 Tb358 2.453 . S
O368 C364 1.245 . S
O369 Tb356 2.343 . S
O369 Tb358 2.596 . S
O369 C364 1.259 . S
O370 Tb358 2.374 . S
O370 C365 1.250 . S
O371 Tb356 2.353 . S
O371 C365 1.263 . S
C372 O373 1.275 . S
C372 O374 1.246 . S
O373 Tb356 2.427 . S
O373 C372 1.275 . S
O374 Tb356 2.513 . S
O374 C372 1.246 . S
C375 O359 1.245 . S
C375 O360 1.259 . S
Tb376 O379 2.453 . S
Tb376 O380 2.596 . S
Tb376 O381 2.374 . S
Tb376 O389 2.343 . S
Tb376 O391 2.353 . S
Tb376 O393 2.427 . S
Tb376 O394 2.513 . S
C377 O381 1.251 . S
C377 O383 1.263 . S
Tb378 O380 2.343 . S
Tb378 O383 2.353 . S
Tb378 O386 2.427 . S
Tb378 O387 2.513 . S
Tb378 O388 2.453 1_545 S
Tb378 O389 2.596 . S
Tb378 O390 2.374 . S
O379 Tb376 2.453 . S
O379 C395 1.245 . S
O380 Tb376 2.596 . S
O380 Tb378 2.343 . S
O380 C395 1.259 . S
O381 Tb376 2.374 . S
O381 C377 1.251 . S
C382 O386 1.275 . S
C382 O387 1.246 . S
O383 C377 1.263 . S
O383 Tb378 2.353 . S
C384 O388 1.245 . S
C384 O389 1.259 1_565 S
C385 O390 1.250 . S
C385 O391 1.263 . S
O386 Tb378 2.427 . S
O386 C382 1.275 . S
O387 Tb378 2.513 . S
O387 C382 1.246 . S
O388 Tb378 2.453 1_565 S
O388 C384 1.245 . S
O389 Tb376 2.343 . S
O389 Tb378 2.596 . S
O389 C384 1.259 1_545 S
O390 Tb378 2.374 . S
O390 C385 1.250 . S
O391 Tb376 2.353 . S
O391 C385 1.263 . S
C392 O393 1.275 . S
C392 O394 1.246 . S
O393 Tb376 2.427 . S
O393 C392 1.275 . S
O394 Tb376 2.513 . S
O394 C392 1.246 . S
C395 O379 1.245 . S
C395 O380 1.259 . S
Tb396 O399 2.453 . S
Tb396 O400 2.596 . S
Tb396 O401 2.374 . S
Tb396 O409 2.343 . S
Tb396 O411 2.353 . S
Tb396 O413 2.427 . S
Tb396 O414 2.513 . S
C397 O401 1.251 . S
C397 O403 1.263 . S
Tb398 O400 2.343 . S
Tb398 O403 2.353 . S
Tb398 O406 2.427 . S
Tb398 O407 2.513 . S
Tb398 O408 2.453 . S
Tb398 O409 2.596 . S
Tb398 O410 2.374 . S
O399 Tb396 2.453 . S
O399 C415 1.245 . S
O400 Tb396 2.596 . S
O400 Tb398 2.343 . S
O400 C415 1.259 . S
O401 Tb396 2.374 . S
O401 C397 1.251 . S
C402 O406 1.275 . S
C402 O407 1.246 . S
O403 C397 1.263 . S
O403 Tb398 2.353 . S
C404 O408 1.245 . S
C404 O409 1.259 . S
C405 O410 1.250 . S
C405 O411 1.263 . S
O406 Tb398 2.427 . S
O406 C402 1.275 . S
O407 Tb398 2.513 . S
O407 C402 1.246 . S
O408 Tb398 2.453 . S
O408 C404 1.245 . S
O409 Tb396 2.343 . S
O409 Tb398 2.596 . S
O409 C404 1.259 . S
O410 Tb398 2.374 . S
O410 C405 1.250 . S
O411 Tb396 2.353 . S
O411 C405 1.263 . S
C412 O413 1.275 . S
C412 O414 1.246 . S
O413 Tb396 2.427 . S
O413 C412 1.275 . S
O414 Tb396 2.513 . S
O414 C412 1.246 . S
C415 O399 1.245 . S
C415 O400 1.259 . S
Tb416 O419 2.453 1_545 S
Tb416 O420 2.596 . S
Tb416 O421 2.374 1_455 S
Tb416 O429 2.343 . S
Tb416 O431 2.353 . S
Tb416 O433 2.427 . S
Tb416 O434 2.513 1_455 S
C417 O421 1.251 . S
C417 O423 1.263 . S
Tb418 O420 2.343 . S
Tb418 O423 2.353 1_455 S
Tb418 O426 2.427 . S
Tb418 O427 2.513 . S
Tb418 O428 2.453 . S
Tb418 O429 2.596 . S
Tb418 O430 2.374 . S
O419 Tb416 2.453 1_565 S
O419 C435 1.245 . S
O420 Tb416 2.596 . S
O420 Tb418 2.343 . S
O420 C435 1.259 1_545 S
O421 Tb416 2.374 1_655 S
O421 C417 1.251 . S
C422 O426 1.275 . S
C422 O427 1.246 . S
O423 C417 1.263 . S
O423 Tb418 2.353 1_655 S
C424 O428 1.245 . S
C424 O429 1.259 . S
C425 O430 1.250 . S
C425 O431 1.263 . S
O426 Tb418 2.427 . S
O426 C422 1.275 . S
O427 Tb418 2.513 . S
O427 C422 1.246 . S
O428 Tb418 2.453 . S
O428 C424 1.245 . S
O429 Tb416 2.343 . S
O429 Tb418 2.596 . S
O429 C424 1.259 . S
O430 Tb418 2.374 . S
O430 C425 1.250 . S
O431 Tb416 2.353 . S
O431 C425 1.263 . S
C432 O433 1.275 1_655 S
C432 O434 1.246 . S
O433 Tb416 2.427 . S
O433 C432 1.275 1_455 S
O434 Tb416 2.513 1_655 S
O434 C432 1.246 . S
C435 O419 1.245 . S
C435 O420 1.259 1_565 S
Tb436 O439 2.453 . S
Tb436 O440 2.596 . S
Tb436 O441 2.374 . S
Tb436 O449 2.343 . S
Tb436 O451 2.353 . S
Tb436 O453 2.427 . S
Tb436 O454 2.513 . S
C437 O441 1.251 . S
C437 O443 1.263 . S
Tb438 O440 2.343 . S
Tb438 O443 2.353 . S
Tb438 O446 2.427 . S
Tb438 O447 2.513 . S
Tb438 O448 2.453 . S
Tb438 O449 2.596 . S
Tb438 O450 2.374 . S
O439 Tb436 2.453 . S
O439 C455 1.245 . S
O440 Tb436 2.596 . S
O440 Tb438 2.343 . S
O440 C455 1.259 . S
O441 Tb436 2.374 . S
O441 C437 1.251 . S
C442 O446 1.275 . S
C442 O447 1.246 . S
O443 C437 1.263 . S
O443 Tb438 2.353 . S
C444 O448 1.245 . S
C444 O449 1.259 . S
C445 O450 1.250 . S
C445 O451 1.263 . S
O446 Tb438 2.427 . S
O446 C442 1.275 . S
O447 Tb438 2.513 . S
O447 C442 1.246 . S
O448 Tb438 2.453 . S
O448 C444 1.245 . S
O449 Tb436 2.343 . S
O449 Tb438 2.596 . S
O449 C444 1.259 . S
O450 Tb438 2.374 . S
O450 C445 1.250 . S
O451 Tb436 2.353 . S
O451 C445 1.263 . S
C452 O453 1.275 . S
C452 O454 1.246 . S
O453 Tb436 2.427 . S
O453 C452 1.275 . S
O454 Tb436 2.513 . S
O454 C452 1.246 . S
C455 O439 1.245 . S
C455 O440 1.259 . S
Tb456 O459 2.453 . S
Tb456 O460 2.596 . S
Tb456 O461 2.374 1_545 S
Tb456 O469 2.343 1_556 S
Tb456 O471 2.353 1_556 S
Tb456 O473 2.427 1_556 S
Tb456 O474 2.532 1_556 S
C457 O461 1.251 1_554 S
C457 O463 1.259 1_565 S
Tb458 O460 2.343 1_554 S
Tb458 O463 2.365 . S
Tb458 O466 2.427 . S
Tb458 O467 2.513 . S
Tb458 O468 2.453 . S
Tb458 O469 2.596 . S
Tb458 O470 2.374 . S
O459 Tb456 2.453 . S
O459 C475 1.245 . S
O460 Tb456 2.596 . S
O460 Tb458 2.343 1_556 S
O460 C475 1.259 . S
O461 Tb456 2.374 1_565 S
O461 C457 1.251 1_556 S
C462 O466 1.275 . S
C462 O467 1.246 . S
O463 C457 1.259 1_545 S
O463 Tb458 2.365 . S
C464 O468 1.245 . S
C464 O469 1.259 . S
C465 O470 1.250 . S
C465 O471 1.263 . S
O466 Tb458 2.427 . S
O466 C462 1.275 . S
O467 Tb458 2.513 . S
O467 C462 1.246 . S
O468 Tb458 2.453 . S
O468 C464 1.245 . S
O469 Tb456 2.343 1_554 S
O469 Tb458 2.596 . S
O469 C464 1.259 . S
O470 Tb458 2.374 . S
O470 C465 1.250 . S
O471 Tb456 2.353 1_554 S
O471 C465 1.263 . S
C472 O473 1.275 . S
C472 O474 1.269 . S
O473 Tb456 2.427 1_554 S
O473 C472 1.275 . S
O474 Tb456 2.532 1_554 S
O474 C472 1.269 . S
C475 O459 1.245 . S
C475 O460 1.259 . S
Tb476 O479 2.453 . S
Tb476 O480 2.596 . S
Tb476 O481 2.374 . S
Tb476 O489 2.343 . S
Tb476 O491 2.353 . S
Tb476 O493 2.427 . S
Tb476 O494 2.513 . S
C477 O481 1.251 . S
C477 O483 1.263 . S
Tb478 O480 2.343 . S
Tb478 O483 2.353 . S
Tb478 O486 2.427 . S
Tb478 O487 2.513 . S
Tb478 O488 2.453 . S
Tb478 O489 2.596 . S
Tb478 O490 2.374 . S
O479 Tb476 2.453 . S
O479 C495 1.245 . S
O480 Tb476 2.596 . S
O480 Tb478 2.343 . S
O480 C495 1.259 . S
O481 Tb476 2.374 . S
O481 C477 1.251 . S
C482 O486 1.275 . S
C482 O487 1.246 . S
O483 C477 1.263 . S
O483 Tb478 2.353 . S
C484 O488 1.245 . S
C484 O489 1.259 . S
C485 O490 1.250 . S
C485 O491 1.263 . S
O486 Tb478 2.427 . S
O486 C482 1.275 . S
O487 Tb478 2.513 . S
O487 C482 1.246 . S
O488 Tb478 2.453 . S
O488 C484 1.245 . S
O489 Tb476 2.343 . S
O489 Tb478 2.596 . S
O489 C484 1.259 . S
O490 Tb478 2.374 . S
O490 C485 1.250 . S
O491 Tb476 2.353 . S
O491 C485 1.263 . S
C492 O493 1.275 . S
C492 O494 1.246 . S
O493 Tb476 2.427 . S
O493 C492 1.275 . S
O494 Tb476 2.513 . S
O494 C492 1.246 . S
C495 O479 1.245 . S
C495 O480 1.259 . S
Tb496 O499 2.453 1_556 S
Tb496 O500 2.596 1_556 S
Tb496 O501 2.374 1_556 S
Tb496 O509 2.343 1_556 S
Tb496 O511 2.353 . S
Tb496 O513 2.427 . S
Tb496 O514 2.513 . S
C497 O501 1.251 . S
C497 O503 1.263 . S
Tb498 O500 2.343 . S
Tb498 O503 2.353 . S
Tb498 O506 2.427 . S
Tb498 O507 2.513 . S
Tb498 O508 2.453 . S
Tb498 O509 2.596 . S
Tb498 O510 2.374 . S
O499 Tb496 2.453 1_554 S
O499 C515 1.245 . S
O500 Tb496 2.596 1_554 S
O500 Tb498 2.343 . S
O500 C515 1.259 . S
O501 Tb496 2.374 1_554 S
O501 C497 1.251 . S
C502 O506 1.275 . S
C502 O507 1.246 . S
O503 C497 1.263 . S
O503 Tb498 2.353 . S
C504 O508 1.245 . S
C504 O509 1.259 . S
C505 O510 1.250 . S
C505 O511 1.263 1_554 S
O506 Tb498 2.427 . S
O506 C502 1.275 . S
O507 Tb498 2.513 . S
O507 C502 1.246 . S
O508 Tb498 2.453 . S
O508 C504 1.245 . S
O509 Tb496 2.343 1_554 S
O509 Tb498 2.596 . S
O509 C504 1.259 . S
O510 Tb498 2.374 . S
O510 C505 1.250 . S
O511 Tb496 2.353 . S
O511 C505 1.263 1_556 S
C512 O513 1.275 . S
C512 O514 1.246 . S
O513 Tb496 2.427 . S
O513 C512 1.275 . S
O514 Tb496 2.513 . S
O514 C512 1.246 . S
C515 O499 1.245 . S
C515 O500 1.259 . S
Tb516 O519 2.453 . S
Tb516 O520 2.596 . S
Tb516 O521 2.374 . S
Tb516 O529 2.343 . S
Tb516 O531 2.353 . S
Tb516 O533 2.427 . S
Tb516 O534 2.513 . S
C517 O521 1.251 . S
C517 O523 1.263 . S
Tb518 O520 2.343 . S
Tb518 O523 2.353 . S
Tb518 O526 2.427 . S
Tb518 O527 2.513 . S
Tb518 O528 2.453 . S
Tb518 O529 2.596 . S
Tb518 O530 2.374 . S
O519 Tb516 2.453 . S
O519 C535 1.245 . S
O520 Tb516 2.596 . S
O520 Tb518 2.343 . S
O520 C535 1.259 . S
O521 Tb516 2.374 . S
O521 C517 1.251 . S
C522 O526 1.275 . S
C522 O527 1.246 . S
O523 C517 1.263 . S
O523 Tb518 2.353 . S
C524 O528 1.245 . S
C524 O529 1.259 . S
C525 O530 1.250 . S
C525 O531 1.263 . S
O526 Tb518 2.427 . S
O526 C522 1.275 . S
O527 Tb518 2.513 . S
O527 C522 1.246 . S
O528 Tb518 2.453 . S
O528 C524 1.245 . S
O529 Tb516 2.343 . S
O529 Tb518 2.596 . S
O529 C524 1.259 . S
O530 Tb518 2.374 . S
O530 C525 1.250 . S
O531 Tb516 2.353 . S
O531 C525 1.263 . S
C532 O533 1.275 . S
C532 O534 1.246 . S
O533 Tb516 2.427 . S
O533 C532 1.275 . S
O534 Tb516 2.513 . S
O534 C532 1.246 . S
C535 O519 1.245 . S
C535 O520 1.259 . S
Tb536 O539 2.432 1_655 S
Tb536 O540 2.596 1_655 S
Tb536 O541 2.374 . S
Tb536 O549 2.343 . S
Tb536 O551 2.353 . S
Tb536 O553 2.427 . S
Tb536 O554 2.513 . S
C537 O541 1.251 1_455 S
C537 O543 1.263 . S
Tb538 O540 2.343 . S
Tb538 O543 2.353 . S
Tb538 O546 2.427 . S
Tb538 O547 2.513 . S
Tb538 O548 2.453 . S
Tb538 O549 2.596 1_455 S
Tb538 O550 2.374 . S
O539 Tb536 2.432 1_455 S
O539 C555 1.279 . S
O540 Tb536 2.596 1_455 S
O540 Tb538 2.343 . S
O540 C555 1.259 . S
O541 Tb536 2.374 . S
O541 C537 1.251 1_655 S
C542 O546 1.275 . S
C542 O547 1.246 . S
O543 C537 1.263 . S
O543 Tb538 2.353 . S
C544 O548 1.245 1_655 S
C544 O549 1.259 . S
C545 O550 1.250 . S
C545 O551 1.263 1_455 S
O546 Tb538 2.427 . S
O546 C542 1.275 . S
O547 Tb538 2.513 . S
O547 C542 1.246 . S
O548 Tb538 2.453 . S
O548 C544 1.245 1_455 S
O549 Tb536 2.343 . S
O549 Tb538 2.596 1_655 S
O549 C544 1.259 . S
O550 Tb538 2.374 . S
O550 C545 1.250 . S
O551 Tb536 2.353 . S
O551 C545 1.263 1_655 S
C552 O553 1.275 . S
C552 O554 1.246 . S
O553 Tb536 2.427 . S
O553 C552 1.275 . S
O554 Tb536 2.513 . S
O554 C552 1.246 . S
C555 O539 1.279 . S
C555 O540 1.259 . S
Tb556 O559 2.453 . S
Tb556 O560 2.596 . S
Tb556 O561 2.374 . S
Tb556 O569 2.343 . S
Tb556 O571 2.353 . S
Tb556 O573 2.427 . S
Tb556 O574 2.513 . S
C557 O561 1.251 . S
C557 O563 1.263 . S
Tb558 O560 2.343 . S
Tb558 O563 2.353 . S
Tb558 O566 2.427 . S
Tb558 O567 2.513 . S
Tb558 O568 2.453 . S
Tb558 O569 2.596 . S
Tb558 O570 2.374 . S
O559 Tb556 2.453 . S
O559 C575 1.245 . S
O560 Tb556 2.596 . S
O560 Tb558 2.343 . S
O560 C575 1.259 . S
O561 Tb556 2.374 . S
O561 C557 1.251 . S
C562 O566 1.275 . S
C562 O567 1.246 . S
O563 C557 1.263 . S
O563 Tb558 2.353 . S
C564 O568 1.245 . S
C564 O569 1.259 . S
C565 O570 1.250 . S
C565 O571 1.263 . S
O566 Tb558 2.427 . S
O566 C562 1.275 . S
O567 Tb558 2.513 . S
O567 C562 1.246 . S
O568 Tb558 2.453 . S
O568 C564 1.245 . S
O569 Tb556 2.343 . S
O569 Tb558 2.596 . S
O569 C564 1.259 . S
O570 Tb558 2.374 . S
O570 C565 1.250 . S
O571 Tb556 2.353 . S
O571 C565 1.263 . S
C572 O573 1.275 . S
C572 O574 1.246 . S
O573 Tb556 2.427 . S
O573 C572 1.275 . S
O574 Tb556 2.513 . S
O574 C572 1.246 . S
C575 O559 1.245 . S
C575 O560 1.259 . S
Tb576 O579 2.453 . S
Tb576 O580 2.596 . S
Tb576 O581 2.374 . S
Tb576 O589 2.343 . S
Tb576 O591 2.353 . S
Tb576 O593 2.427 . S
Tb576 O594 2.513 . S
C577 O581 1.251 . S
C577 O583 1.263 . S
Tb578 O580 2.343 . S
Tb578 O583 2.353 . S
Tb578 O586 2.427 . S
Tb578 O587 2.513 . S
Tb578 O588 2.453 . S
Tb578 O589 2.596 . S
Tb578 O590 2.374 . S
O579 Tb576 2.453 . S
O579 C595 1.245 . S
O580 Tb576 2.596 . S
O580 Tb578 2.343 . S
O580 C595 1.259 . S
O581 Tb576 2.374 . S
O581 C577 1.251 . S
C582 O586 1.275 . S
C582 O587 1.246 . S
O583 C577 1.263 . S
O583 Tb578 2.353 . S
C584 O588 1.245 . S
C584 O589 1.259 . S
C585 O590 1.250 . S
C585 O591 1.263 . S
O586 Tb578 2.427 . S
O586 C582 1.275 . S
O587 Tb578 2.513 . S
O587 C582 1.246 . S
O588 Tb578 2.453 . S
O588 C584 1.245 . S
O589 Tb576 2.343 . S
O589 Tb578 2.596 . S
O589 C584 1.259 . S
O590 Tb578 2.374 . S
O590 C585 1.250 . S
O591 Tb576 2.353 . S
O591 C585 1.263 . S
C592 O593 1.275 . S
C592 O594 1.246 . S
O593 Tb576 2.427 . S
O593 C592 1.275 . S
O594 Tb576 2.513 . S
O594 C592 1.246 . S
C595 O579 1.245 . S
C595 O580 1.259 . S
Tb596 O599 2.453 . S
Tb596 O600 2.596 . S
Tb596 O601 2.374 . S
Tb596 O609 2.343 . S
Tb596 O611 2.353 . S
Tb596 O613 2.427 . S
Tb596 O614 2.513 . S
C597 O601 1.251 . S
C597 O603 1.263 . S
Tb598 O600 2.343 . S
Tb598 O603 2.353 . S
Tb598 O606 2.427 . S
Tb598 O607 2.513 . S
Tb598 O608 2.453 . S
Tb598 O609 2.596 . S
Tb598 O610 2.374 . S
O599 Tb596 2.453 . S
O599 C615 1.245 . S
O600 Tb596 2.596 . S
O600 Tb598 2.343 . S
O600 C615 1.259 . S
O601 Tb596 2.374 . S
O601 C597 1.251 . S
C602 O606 1.275 . S
C602 O607 1.246 . S
O603 C597 1.263 . S
O603 Tb598 2.353 . S
C604 O608 1.245 . S
C604 O609 1.259 . S
C605 O610 1.250 . S
C605 O611 1.263 . S
O606 Tb598 2.427 . S
O606 C602 1.275 . S
O607 Tb598 2.513 . S
O607 C602 1.246 . S
O608 Tb598 2.453 . S
O608 C604 1.245 . S
O609 Tb596 2.343 . S
O609 Tb598 2.596 . S
O609 C604 1.259 . S
O610 Tb598 2.374 . S
O610 C605 1.250 . S
O611 Tb596 2.353 . S
O611 C605 1.263 . S
C612 O613 1.275 . S
C612 O614 1.246 . S
O613 Tb596 2.427 . S
O613 C612 1.275 . S
O614 Tb596 2.513 . S
O614 C612 1.246 . S
C615 O599 1.245 . S
C615 O600 1.259 . S
Tb616 O619 2.453 . S
Tb616 O620 2.596 . S
Tb616 O621 2.374 . S
Tb616 O629 2.343 . S
Tb616 O631 2.353 . S
Tb616 O633 2.427 . S
Tb616 O634 2.513 . S
C617 O621 1.251 . S
C617 O623 1.263 . S
Tb618 O620 2.343 . S
Tb618 O623 2.353 . S
Tb618 O626 2.427 . S
Tb618 O627 2.513 . S
Tb618 O628 2.453 . S
Tb618 O629 2.596 . S
Tb618 O630 2.374 . S
O619 Tb616 2.453 . S
O619 C635 1.245 . S
O620 Tb616 2.596 . S
O620 Tb618 2.343 . S
O620 C635 1.259 . S
O621 Tb616 2.374 . S
O621 C617 1.251 . S
C622 O626 1.275 . S
C622 O627 1.246 . S
O623 C617 1.263 . S
O623 Tb618 2.353 . S
C624 O628 1.245 . S
C624 O629 1.259 . S
C625 O630 1.250 . S
C625 O631 1.263 . S
O626 Tb618 2.427 . S
O626 C622 1.275 . S
O627 Tb618 2.513 . S
O627 C622 1.246 . S
O628 Tb618 2.453 . S
O628 C624 1.245 . S
O629 Tb616 2.343 . S
O629 Tb618 2.596 . S
O629 C624 1.259 . S
O630 Tb618 2.374 . S
O630 C625 1.250 . S
O631 Tb616 2.353 . S
O631 C625 1.263 . S
C632 O633 1.275 . S
C632 O634 1.246 . S
O633 Tb616 2.427 . S
O633 C632 1.275 . S
O634 Tb616 2.513 . S
O634 C632 1.246 . S
C635 O619 1.245 . S
C635 O620 1.259 . S
Tb636 O639 2.453 . S
Tb636 O640 2.596 . S
Tb636 O641 2.374 . S
Tb636 O649 2.343 . S
Tb636 O651 2.353 1_554 S
Tb636 O653 2.427 1_554 S
Tb636 O654 2.513 . S
C637 O641 1.251 . S
C637 O643 1.263 1_455 S
Tb638 O640 2.343 1_655 S
Tb638 O643 2.353 . S
Tb638 O646 2.427 . S
Tb638 O647 2.513 . S
Tb638 O648 2.453 . S
Tb638 O649 2.596 1_655 S
Tb638 O650 2.374 1_554 S
O639 Tb636 2.453 . S
O639 C655 1.245 . S
O640 Tb636 2.596 . S
O640 Tb638 2.343 1_455 S
O640 C655 1.259 . S
O641 Tb636 2.374 . S
O641 C637 1.251 . S
C642 O646 1.275 . S
C642 O647 1.246 . S
O643 C637 1.263 1_655 S
O643 Tb638 2.353 . S
C644 O648 1.203 1_455 S
C644 O649 1.277 . S
C645 O650 1.234 1_455 S
C645 O651 1.279 . S
O646 Tb638 2.427 . S
O646 C642 1.275 . S
O647 Tb638 2.513 . S
O647 C642 1.246 . S
O648 Tb638 2.453 . S
O648 C644 1.203 1_655 S
O649 Tb636 2.343 . S
O649 Tb638 2.596 1_455 S
O649 C644 1.277 . S
O650 Tb638 2.374 1_556 S
O650 C645 1.234 1_655 S
O651 Tb636 2.353 1_556 S
O651 C645 1.279 . S
C652 O653 1.275 1_554 S
C652 O654 1.246 . S
O653 Tb636 2.427 1_556 S
O653 C652 1.275 1_556 S
O654 Tb636 2.513 . S
O654 C652 1.246 . S
C655 O639 1.245 . S
C655 O640 1.259 . S
H656 C674 0.951 . S
H657 C676 0.951 . S
H658 C678 0.950 . S
H659 C679 0.950 . S
H660 C681 0.950 . S
H661 C684 0.950 . S
H662 C685 0.950 . S
H663 C687 0.950 1_554 S
H664 C688 0.950 . S
H665 C689 0.951 . S
H666 C691 0.951 . S
H667 C693 0.950 1_554 S
H668 C694 0.950 . S
H669 C696 0.950 . S
H670 C699 0.950 . S
H671 C700 0.950 . S
H672 C702 0.950 . S
H673 C703 0.950 . S
C674 H656 0.951 . S
C674 C675 1.366 . S
C674 C676 1.388 . S
C675 C674 1.366 . S
C675 C679 1.385 . S
C676 H657 0.951 . S
C676 C674 1.388 . S
C676 C677 1.366 . S
C677 C676 1.366 . S
C677 C678 1.414 . S
C677 C680 1.499 . S
C678 H658 0.950 . S
C678 C677 1.414 . S
C678 C679 1.374 . S
C679 H659 0.950 . S
C679 C675 1.385 . S
C679 C678 1.374 . S
C680 C677 1.499 . S
C680 C681 1.373 1_455 S
C680 C682 1.389 . S
C681 H660 0.950 . S
C681 C680 1.373 1_655 S
C681 C697 1.377 . S
C682 C680 1.389 . S
C682 C683 1.524 . S
C682 C696 1.377 . S
C683 C682 1.524 . S
C683 C684 1.397 . S
C683 C688 1.363 . S
C684 H661 0.950 . S
C684 C683 1.397 . S
C684 C685 1.334 . S
C685 H662 0.950 . S
C685 C684 1.334 . S
C685 C686 1.287 . S
C686 C685 1.287 . S
C686 C687 1.524 . S
C686 H705 0.913 . S
C687 H663 0.950 1_556 S
C687 C686 1.524 . S
C687 C688 1.415 . S
C688 H664 0.950 . S
C688 C683 1.363 . S
C688 C687 1.415 . S
C689 H665 0.951 . S
C689 C690 1.366 1_556 S
C689 C691 1.388 . S
C690 C689 1.366 1_554 S
C690 C694 1.384 . S
C691 H666 0.951 . S
C691 C689 1.388 . S
C691 C692 1.366 . S
C692 C691 1.366 . S
C692 C693 1.414 . S
C692 C695 1.499 . S
C693 H667 0.950 1_556 S
C693 C692 1.414 . S
C693 C694 1.374 1_556 S
C694 H668 0.950 . S
C694 C690 1.384 . S
C694 C693 1.374 1_554 S
C695 C692 1.499 . S
C695 C696 1.373 . S
C695 C697 1.389 1_455 S
C696 H669 0.950 . S
C696 C682 1.377 . S
C696 C695 1.373 . S
C697 C681 1.377 . S
C697 C695 1.389 1_655 S
C697 C698 1.524 . S
C698 C697 1.524 . S
C698 C699 1.397 . S
C698 C703 1.363 . S
C699 H670 0.950 . S
C699 C698 1.397 . S
C699 C700 1.334 . S
C700 H671 0.950 . S
C700 C699 1.334 . S
C700 C701 1.287 . S
C701 C700 1.287 . S
C701 C702 1.524 . S
C701 H704 0.999 . S
C702 H672 0.950 . S
C702 C701 1.524 . S
C702 C703 1.415 . S
C703 H673 0.950 . S
C703 C698 1.363 . S
C703 C702 1.415 . S
H704 C701 0.999 . S
H705 C686 0.913 . S
H706 C724 0.951 . S
H707 C726 0.951 . S
H708 C728 0.950 . S
H709 C729 0.950 . S
H710 C731 0.950 . S
H711 C734 0.950 . S
H712 C735 0.950 . S
H713 C737 0.950 . S
H714 C738 0.950 . S
H715 C739 0.951 . S
H716 C741 0.951 . S
H717 C743 0.950 . S
H718 C744 0.950 . S
H719 C746 0.950 . S
H720 C749 0.950 . S
H721 C750 0.950 . S
H722 C752 0.950 . S
H723 C753 0.950 . S
C724 H706 0.951 . S
C724 C725 1.366 . S
C724 C726 1.388 . S
C725 C724 1.366 . S
C725 C729 1.385 . S
C726 H707 0.951 . S
C726 C724 1.388 . S
C726 C727 1.366 . S
C727 C726 1.366 . S
C727 C728 1.414 . S
C727 C730 1.499 . S
C728 H708 0.950 . S
C728 C727 1.414 . S
C728 C729 1.374 . S
C729 H709 0.950 . S
C729 C725 1.385 . S
C729 C728 1.374 . S
C730 C727 1.499 . S
C730 C731 1.373 . S
C730 C732 1.389 . S
C731 H710 0.950 . S
C731 C730 1.373 . S
C731 C747 1.377 . S
C732 C730 1.389 . S
C732 C733 1.524 . S
C732 C746 1.377 . S
C733 C732 1.524 . S
C733 C734 1.397 . S
C733 C738 1.363 . S
C734 H711 0.950 . S
C734 C733 1.397 . S
C734 C735 1.334 . S
C735 H712 0.950 . S
C735 C734 1.334 . S
C735 C736 1.287 . S
C736 C735 1.287 . S
C736 C737 1.524 . S
C736 H755 0.913 . S
C737 H713 0.950 . S
C737 C736 1.524 . S
C737 C738 1.415 . S
C738 H714 0.950 . S
C738 C733 1.363 . S
C738 C737 1.415 . S
C739 H715 0.951 . S
C739 C740 1.366 . S
C739 C741 1.388 . S
C740 C739 1.366 . S
C740 C744 1.385 . S
C741 H716 0.951 . S
C741 C739 1.388 . S
C741 C742 1.366 . S
C742 C741 1.366 . S
C742 C743 1.414 . S
C742 C745 1.499 . S
C743 H717 0.950 . S
C743 C742 1.414 . S
C743 C744 1.374 . S
C744 H718 0.950 . S
C744 C740 1.385 . S
C744 C743 1.374 . S
C745 C742 1.499 . S
C745 C746 1.373 . S
C745 C747 1.389 . S
C746 H719 0.950 . S
C746 C732 1.377 . S
C746 C745 1.373 . S
C747 C731 1.377 . S
C747 C745 1.389 . S
C747 C748 1.524 . S
C748 C747 1.524 . S
C748 C749 1.397 . S
C748 C753 1.363 . S
C749 H720 0.950 . S
C749 C748 1.397 . S
C749 C750 1.334 . S
C750 H721 0.950 . S
C750 C749 1.334 . S
C750 C751 1.287 . S
C751 C750 1.287 . S
C751 C752 1.524 . S
C751 H754 0.999 . S
C752 H722 0.950 . S
C752 C751 1.524 . S
C752 C753 1.415 . S
C753 H723 0.950 . S
C753 C748 1.363 . S
C753 C752 1.415 . S
H754 C751 0.999 . S
H755 C736 0.913 . S
H756 C774 0.951 . S
H757 C776 0.951 . S
H758 C778 0.950 . S
H759 C779 0.950 . S
H760 C781 0.950 . S
H761 C784 0.950 . S
H762 C785 0.950 . S
H763 C787 0.950 . S
H764 C788 0.950 . S
H765 C789 0.951 . S
H766 C791 0.951 . S
H767 C793 0.950 . S
H768 C794 0.950 . S
H769 C796 0.950 . S
H770 C799 0.950 . S
H771 C800 0.950 . S
H772 C802 0.950 . S
H773 C803 0.950 . S
C774 H756 0.951 . S
C774 C775 1.366 . S
C774 C776 1.388 . S
C775 C774 1.366 . S
C775 C779 1.385 . S
C776 H757 0.951 . S
C776 C774 1.388 . S
C776 C777 1.366 . S
C777 C776 1.366 . S
C777 C778 1.414 . S
C777 C780 1.499 . S
C778 H758 0.950 . S
C778 C777 1.414 . S
C778 C779 1.374 . S
C779 H759 0.950 . S
C779 C775 1.385 . S
C779 C778 1.374 . S
C780 C777 1.499 . S
C780 C781 1.373 . S
C780 C782 1.389 . S
C781 H760 0.950 . S
C781 C780 1.373 . S
C781 C797 1.377 . S
C782 C780 1.389 . S
C782 C783 1.524 . S
C782 C796 1.377 . S
C783 C782 1.524 . S
C783 C784 1.397 . S
C783 C788 1.363 . S
C784 H761 0.950 . S
C784 C783 1.397 . S
C784 C785 1.334 . S
C785 H762 0.950 . S
C785 C784 1.334 . S
C785 C786 1.287 . S
C786 C785 1.287 . S
C786 C787 1.524 . S
C786 H805 0.913 . S
C787 H763 0.950 . S
C787 C786 1.524 . S
C787 C788 1.415 . S
C788 H764 0.950 . S
C788 C783 1.363 . S
C788 C787 1.415 . S
C789 H765 0.951 . S
C789 C790 1.366 . S
C789 C791 1.388 . S
C790 C789 1.366 . S
C790 C794 1.385 . S
C791 H766 0.951 . S
C791 C789 1.388 . S
C791 C792 1.366 . S
C792 C791 1.366 . S
C792 C793 1.414 . S
C792 C795 1.499 . S
C793 H767 0.950 . S
C793 C792 1.414 . S
C793 C794 1.374 . S
C794 H768 0.950 . S
C794 C790 1.385 . S
C794 C793 1.374 . S
C795 C792 1.499 . S
C795 C796 1.373 . S
C795 C797 1.389 . S
C796 H769 0.950 . S
C796 C782 1.377 . S
C796 C795 1.373 . S
C797 C781 1.377 . S
C797 C795 1.389 . S
C797 C798 1.524 . S
C798 C797 1.524 . S
C798 C799 1.397 . S
C798 C803 1.363 . S
C799 H770 0.950 . S
C799 C798 1.397 . S
C799 C800 1.334 . S
C800 H771 0.950 . S
C800 C799 1.334 . S
C800 C801 1.287 . S
C801 C800 1.287 . S
C801 C802 1.524 . S
C801 H804 0.999 . S
C802 H772 0.950 . S
C802 C801 1.524 . S
C802 C803 1.415 . S
C803 H773 0.950 . S
C803 C798 1.363 . S
C803 C802 1.415 . S
H804 C801 0.999 . S
H805 C786 0.913 . S
H806 C824 0.951 . S
H807 C826 0.951 . S
H808 C828 0.950 . S
H809 C829 0.950 . S
H810 C831 0.950 . S
H811 C834 0.950 . S
H812 C835 0.950 . S
H813 C837 0.950 . S
H814 C838 0.950 . S
H815 C839 0.951 . S
H816 C841 0.951 . S
H817 C843 0.950 . S
H818 C844 0.950 . S
H819 C846 0.950 . S
H820 C849 0.950 . S
H821 C850 0.950 . S
H822 C852 0.950 . S
H823 C853 0.950 . S
C824 H806 0.951 . S
C824 C825 1.366 . S
C824 C826 1.388 . S
C825 C824 1.366 . S
C825 C829 1.385 . S
C826 H807 0.951 . S
C826 C824 1.388 . S
C826 C827 1.366 . S
C827 C826 1.366 . S
C827 C828 1.414 . S
C827 C830 1.499 . S
C828 H808 0.950 . S
C828 C827 1.414 . S
C828 C829 1.374 . S
C829 H809 0.950 . S
C829 C825 1.385 . S
C829 C828 1.374 . S
C830 C827 1.499 . S
C830 C831 1.373 . S
C830 C832 1.389 . S
C831 H810 0.950 . S
C831 C830 1.373 . S
C831 C847 1.377 . S
C832 C830 1.389 . S
C832 C833 1.524 . S
C832 C846 1.377 . S
C833 C832 1.524 . S
C833 C834 1.397 . S
C833 C838 1.363 . S
C834 H811 0.950 . S
C834 C833 1.397 . S
C834 C835 1.334 . S
C835 H812 0.950 . S
C835 C834 1.334 . S
C835 C836 1.287 . S
C836 C835 1.287 . S
C836 C837 1.524 . S
C836 H855 0.913 . S
C837 H813 0.950 . S
C837 C836 1.524 . S
C837 C838 1.415 . S
C838 H814 0.950 . S
C838 C833 1.363 . S
C838 C837 1.415 . S
C839 H815 0.951 . S
C839 C840 1.366 . S
C839 C841 1.388 . S
C840 C839 1.366 . S
C840 C844 1.385 . S
C841 H816 0.951 . S
C841 C839 1.388 . S
C841 C842 1.366 . S
C842 C841 1.366 . S
C842 C843 1.414 . S
C842 C845 1.499 . S
C843 H817 0.950 . S
C843 C842 1.414 . S
C843 C844 1.374 . S
C844 H818 0.950 . S
C844 C840 1.385 . S
C844 C843 1.374 . S
C845 C842 1.499 . S
C845 C846 1.373 . S
C845 C847 1.389 . S
C846 H819 0.950 . S
C846 C832 1.377 . S
C846 C845 1.373 . S
C847 C831 1.377 . S
C847 C845 1.389 . S
C847 C848 1.524 . S
C848 C847 1.524 . S
C848 C849 1.397 . S
C848 C853 1.363 . S
C849 H820 0.950 . S
C849 C848 1.397 . S
C849 C850 1.334 . S
C850 H821 0.950 . S
C850 C849 1.334 . S
C850 C851 1.287 . S
C851 C850 1.287 . S
C851 C852 1.524 . S
C851 H854 0.999 . S
C852 H822 0.950 . S
C852 C851 1.524 . S
C852 C853 1.415 . S
C853 H823 0.950 . S
C853 C848 1.363 . S
C853 C852 1.415 . S
H854 C851 0.999 . S
H855 C836 0.913 . S
H856 C874 0.951 . S
H857 C876 0.951 . S
H858 C878 0.950 . S
H859 C879 0.950 . S
H860 C881 0.950 . S
H861 C884 0.950 . S
H862 C885 0.950 . S
H863 C887 0.950 1_455 S
H864 C888 0.950 . S
H865 C889 0.951 1_655 S
H866 C891 0.951 1_655 S
H867 C893 0.950 . S
H868 C894 0.950 . S
H869 C896 0.950 . S
H870 C899 0.950 . S
H871 C900 0.950 . S
H872 C902 0.950 . S
H873 C903 0.950 . S
C874 H856 0.951 . S
C874 C875 1.366 . S
C874 C876 1.388 . S
C875 C874 1.366 . S
C875 C879 1.385 1_455 S
C876 H857 0.951 . S
C876 C874 1.388 . S
C876 C877 1.366 . S
C877 C876 1.366 . S
C877 C878 1.414 1_455 S
C877 C880 1.499 . S
C878 H858 0.950 . S
C878 C877 1.414 1_655 S
C878 C879 1.374 . S
C879 H859 0.950 . S
C879 C875 1.385 1_655 S
C879 C878 1.374 . S
C880 C877 1.499 . S
C880 C881 1.373 . S
C880 C882 1.389 . S
C881 H860 0.950 . S
C881 C880 1.373 . S
C881 C897 1.377 . S
C882 C880 1.389 . S
C882 C883 1.524 1_455 S
C882 C896 1.377 . S
C883 C882 1.524 1_655 S
C883 C884 1.397 . S
C883 C888 1.363 1_655 S
C884 H861 0.950 . S
C884 C883 1.397 . S
C884 C885 1.334 . S
C885 H862 0.950 . S
C885 C884 1.334 . S
C885 C886 1.287 . S
C886 C885 1.287 . S
C886 C887 1.524 . S
C886 H905 0.913 . S
C887 H863 0.950 1_655 S
C887 C886 1.524 . S
C887 C888 1.415 1_655 S
C888 H864 0.950 . S
C888 C883 1.363 1_455 S
C888 C887 1.415 1_455 S
C889 H865 0.951 1_455 S
C889 C890 1.366 . S
C889 C891 1.388 . S
C890 C889 1.366 . S
C890 C894 1.385 . S
C891 H866 0.951 1_455 S
C891 C889 1.388 . S
C891 C892 1.366 . S
C892 C891 1.366 . S
C892 C893 1.414 . S
C892 C895 1.499 . S
C893 H867 0.950 . S
C893 C892 1.414 . S
C893 C894 1.374 . S
C894 H868 0.950 . S
C894 C890 1.385 . S
C894 C893 1.374 . S
C895 C892 1.499 . S
C895 C896 1.373 . S
C895 C897 1.389 . S
C896 H869 0.950 . S
C896 C882 1.377 . S
C896 C895 1.373 . S
C897 C881 1.377 . S
C897 C895 1.389 . S
C897 C898 1.524 . S
C898 C897 1.524 . S
C898 C899 1.397 . S
C898 C903 1.363 . S
C899 H870 0.950 . S
C899 C898 1.397 . S
C899 C900 1.334 . S
C900 H871 0.950 . S
C900 C899 1.334 . S
C900 C901 1.287 . S
C901 C900 1.287 . S
C901 C902 1.524 . S
C901 H904 0.999 . S
C902 H872 0.950 . S
C902 C901 1.524 . S
C902 C903 1.415 . S
C903 H873 0.950 . S
C903 C898 1.363 . S
C903 C902 1.415 . S
H904 C901 0.999 . S
H905 C886 0.913 . S
H906 C924 0.951 . S
H907 C926 0.951 . S
H908 C928 0.950 . S
H909 C929 0.950 . S
H910 C931 0.950 . S
H911 C934 0.950 . S
H912 C935 0.950 . S
H913 C937 0.950 . S
H914 C938 0.950 . S
H915 C939 0.951 . S
H916 C941 0.951 . S
H917 C943 0.950 . S
H918 C944 0.950 . S
H919 C946 0.950 . S
H920 C949 0.950 . S
H921 C950 0.950 . S
H922 C952 0.950 . S
H923 C953 0.950 . S
C924 H906 0.951 . S
C924 C925 1.366 . S
C924 C926 1.388 . S
C925 C924 1.366 . S
C925 C929 1.385 . S
C926 H907 0.951 . S
C926 C924 1.388 . S
C926 C927 1.366 . S
C927 C926 1.366 . S
C927 C928 1.414 . S
C927 C930 1.499 . S
C928 H908 0.950 . S
C928 C927 1.414 . S
C928 C929 1.374 . S
C929 H909 0.950 . S
C929 C925 1.385 . S
C929 C928 1.374 . S
C930 C927 1.499 . S
C930 C931 1.373 . S
C930 C932 1.389 . S
C931 H910 0.950 . S
C931 C930 1.373 . S
C931 C947 1.377 . S
C932 C930 1.389 . S
C932 C933 1.524 . S
C932 C946 1.377 . S
C933 C932 1.524 . S
C933 C934 1.397 . S
C933 C938 1.363 . S
C934 H911 0.950 . S
C934 C933 1.397 . S
C934 C935 1.334 . S
C935 H912 0.950 . S
C935 C934 1.334 . S
C935 C936 1.287 . S
C936 C935 1.287 . S
C936 C937 1.524 . S
C936 H955 0.913 . S
C937 H913 0.950 . S
C937 C936 1.524 . S
C937 C938 1.415 . S
C938 H914 0.950 . S
C938 C933 1.363 . S
C938 C937 1.415 . S
C939 H915 0.951 . S
C939 C940 1.366 . S
C939 C941 1.388 . S
C940 C939 1.366 . S
C940 C944 1.385 . S
C941 H916 0.951 . S
C941 C939 1.388 . S
C941 C942 1.366 . S
C942 C941 1.366 . S
C942 C943 1.414 . S
C942 C945 1.499 . S
C943 H917 0.950 . S
C943 C942 1.414 . S
C943 C944 1.374 . S
C944 H918 0.950 . S
C944 C940 1.385 . S
C944 C943 1.374 . S
C945 C942 1.499 . S
C945 C946 1.373 . S
C945 C947 1.389 . S
C946 H919 0.950 . S
C946 C932 1.377 . S
C946 C945 1.373 . S
C947 C931 1.377 . S
C947 C945 1.389 . S
C947 C948 1.524 . S
C948 C947 1.524 . S
C948 C949 1.397 . S
C948 C953 1.363 . S
C949 H920 0.950 . S
C949 C948 1.397 . S
C949 C950 1.334 . S
C950 H921 0.950 . S
C950 C949 1.334 . S
C950 C951 1.287 . S
C951 C950 1.287 . S
C951 C952 1.524 . S
C951 H954 0.999 . S
C952 H922 0.950 . S
C952 C951 1.524 . S
C952 C953 1.415 . S
C953 H923 0.950 . S
C953 C948 1.363 . S
C953 C952 1.415 . S
H954 C951 0.999 . S
H955 C936 0.913 . S
H956 C974 0.951 . S
H957 C976 0.951 . S
H958 C978 0.950 . S
H959 C979 0.950 . S
H960 C981 0.950 . S
H961 C984 0.950 . S
H962 C985 0.950 . S
H963 C987 0.950 . S
H964 C988 0.950 . S
H965 C989 0.951 . S
H966 C991 0.951 . S
H967 C993 0.950 . S
H968 C994 0.950 . S
H969 C996 0.950 . S
H970 C999 0.950 . S
H971 C1000 0.950 . S
H972 C1002 0.950 . S
H973 C1003 0.950 . S
C974 H956 0.951 . S
C974 C975 1.366 . S
C974 C976 1.388 . S
C975 C974 1.366 . S
C975 C979 1.385 . S
C976 H957 0.951 . S
C976 C974 1.388 . S
C976 C977 1.366 . S
C977 C976 1.366 . S
C977 C978 1.414 . S
C977 C980 1.499 . S
C978 H958 0.950 . S
C978 C977 1.414 . S
C978 C979 1.374 . S
C979 H959 0.950 . S
C979 C975 1.385 . S
C979 C978 1.374 . S
C980 C977 1.499 . S
C980 C981 1.373 . S
C980 C982 1.389 . S
C981 H960 0.950 . S
C981 C980 1.373 . S
C981 C997 1.377 . S
C982 C980 1.389 . S
C982 C983 1.524 . S
C982 C996 1.377 . S
C983 C982 1.524 . S
C983 C984 1.397 . S
C983 C988 1.363 . S
C984 H961 0.950 . S
C984 C983 1.397 . S
C984 C985 1.334 . S
C985 H962 0.950 . S
C985 C984 1.334 . S
C985 C986 1.287 . S
C986 C985 1.287 . S
C986 C987 1.524 . S
C986 H1005 0.913 . S
C987 H963 0.950 . S
C987 C986 1.524 . S
C987 C988 1.415 . S
C988 H964 0.950 . S
C988 C983 1.363 . S
C988 C987 1.415 . S
C989 H965 0.951 . S
C989 C990 1.366 . S
C989 C991 1.388 . S
C990 C989 1.366 . S
C990 C994 1.385 . S
C991 H966 0.951 . S
C991 C989 1.388 . S
C991 C992 1.366 . S
C992 C991 1.366 . S
C992 C993 1.414 . S
C992 C995 1.499 . S
C993 H967 0.950 . S
C993 C992 1.414 . S
C993 C994 1.374 . S
C994 H968 0.950 . S
C994 C990 1.385 . S
C994 C993 1.374 . S
C995 C992 1.499 . S
C995 C996 1.373 . S
C995 C997 1.389 . S
C996 H969 0.950 . S
C996 C982 1.377 . S
C996 C995 1.373 . S
C997 C981 1.377 . S
C997 C995 1.389 . S
C997 C998 1.524 . S
C998 C997 1.524 . S
C998 C999 1.397 . S
C998 C1003 1.363 . S
C999 H970 0.950 . S
C999 C998 1.397 . S
C999 C1000 1.334 . S
C1000 H971 0.950 . S
C1000 C999 1.334 . S
C1000 C1001 1.287 . S
C1001 C1000 1.287 . S
C1001 C1002 1.524 . S
C1001 H1004 0.999 . S
C1002 H972 0.950 . S
C1002 C1001 1.524 . S
C1002 C1003 1.415 . S
C1003 H973 0.950 . S
C1003 C998 1.363 . S
C1003 C1002 1.415 . S
H1004 C1001 0.999 . S
H1005 C986 0.913 . S
H1006 C1024 0.951 . S
H1007 C1026 0.951 . S
H1008 C1028 0.950 . S
H1009 C1029 0.950 . S
H1010 C1031 0.950 . S
H1011 C1034 0.950 . S
H1012 C1035 0.950 . S
H1013 C1037 0.950 . S
H1014 C1038 0.950 . S
H1015 C1039 0.951 . S
H1016 C1041 0.951 . S
H1017 C1043 0.950 . S
H1018 C1044 0.950 . S
H1019 C1046 0.950 . S
H1020 C1049 0.950 . S
H1021 C1050 0.950 . S
H1022 C1052 0.950 . S
H1023 C1053 0.950 . S
C1024 H1006 0.951 . S
C1024 C1025 1.366 . S
C1024 C1026 1.388 . S
C1025 C1024 1.366 . S
C1025 C1029 1.385 . S
C1026 H1007 0.951 . S
C1026 C1024 1.388 . S
C1026 C1027 1.366 . S
C1027 C1026 1.366 . S
C1027 C1028 1.414 . S
C1027 C1030 1.499 . S
C1028 H1008 0.950 . S
C1028 C1027 1.414 . S
C1028 C1029 1.374 . S
C1029 H1009 0.950 . S
C1029 C1025 1.385 . S
C1029 C1028 1.374 . S
C1030 C1027 1.499 . S
C1030 C1031 1.373 . S
C1030 C1032 1.389 . S
C1031 H1010 0.950 . S
C1031 C1030 1.373 . S
C1031 C1047 1.377 . S
C1032 C1030 1.389 . S
C1032 C1033 1.524 . S
C1032 C1046 1.377 . S
C1033 C1032 1.524 . S
C1033 C1034 1.397 . S
C1033 C1038 1.363 . S
C1034 H1011 0.950 . S
C1034 C1033 1.397 . S
C1034 C1035 1.334 . S
C1035 H1012 0.950 . S
C1035 C1034 1.334 . S
C1035 C1036 1.287 . S
C1036 C1035 1.287 . S
C1036 C1037 1.524 . S
C1036 H1055 0.913 . S
C1037 H1013 0.950 . S
C1037 C1036 1.524 . S
C1037 C1038 1.415 . S
C1038 H1014 0.950 . S
C1038 C1033 1.363 . S
C1038 C1037 1.415 . S
C1039 H1015 0.951 . S
C1039 C1040 1.366 . S
C1039 C1041 1.388 . S
C1040 C1039 1.366 . S
C1040 C1044 1.385 . S
C1041 H1016 0.951 . S
C1041 C1039 1.388 . S
C1041 C1042 1.366 . S
C1042 C1041 1.366 . S
C1042 C1043 1.414 . S
C1042 C1045 1.499 . S
C1043 H1017 0.950 . S
C1043 C1042 1.414 . S
C1043 C1044 1.374 . S
C1044 H1018 0.950 . S
C1044 C1040 1.385 . S
C1044 C1043 1.374 . S
C1045 C1042 1.499 . S
C1045 C1046 1.373 . S
C1045 C1047 1.389 . S
C1046 H1019 0.950 . S
C1046 C1032 1.377 . S
C1046 C1045 1.373 . S
C1047 C1031 1.377 . S
C1047 C1045 1.389 . S
C1047 C1048 1.524 . S
C1048 C1047 1.524 . S
C1048 C1049 1.397 . S
C1048 C1053 1.363 . S
C1049 H1020 0.950 . S
C1049 C1048 1.397 . S
C1049 C1050 1.334 . S
C1050 H1021 0.950 . S
C1050 C1049 1.334 . S
C1050 C1051 1.287 . S
C1051 C1050 1.287 . S
C1051 C1052 1.524 . S
C1051 H1054 0.999 . S
C1052 H1022 0.950 . S
C1052 C1051 1.524 . S
C1052 C1053 1.415 . S
C1053 H1023 0.950 . S
C1053 C1048 1.363 . S
C1053 C1052 1.415 . S
H1054 C1051 0.999 . S
H1055 C1036 0.913 . S
H1056 C1074 0.951 . S
H1057 C1076 0.951 . S
H1058 C1078 0.950 . S
H1059 C1079 0.950 . S
H1060 C1081 0.950 . S
H1061 C1084 0.950 . S
H1062 C1085 0.950 . S
H1063 C1087 0.950 1_455 S
H1064 C1088 0.950 . S
H1065 C1089 0.951 . S
H1066 C1091 0.951 . S
H1067 C1093 0.950 . S
H1068 C1094 0.950 . S
H1069 C1096 0.950 . S
H1070 C1099 0.950 . S
H1071 C1100 0.950 . S
H1072 C1102 0.950 . S
H1073 C1103 0.950 . S
C1074 H1056 0.951 . S
C1074 C1075 1.366 . S
C1074 C1076 1.388 . S
C1075 C1074 1.366 . S
C1075 C1079 1.385 . S
C1076 H1057 0.951 . S
C1076 C1074 1.388 . S
C1076 C1077 1.366 . S
C1077 C1076 1.366 . S
C1077 C1078 1.414 . S
C1077 C1080 1.499 . S
C1078 H1058 0.950 . S
C1078 C1077 1.414 . S
C1078 C1079 1.374 . S
C1079 H1059 0.950 . S
C1079 C1075 1.385 . S
C1079 C1078 1.374 . S
C1080 C1077 1.499 . S
C1080 C1081 1.373 . S
C1080 C1082 1.389 . S
C1081 H1060 0.950 . S
C1081 C1080 1.373 . S
C1081 C1097 1.377 . S
C1082 C1080 1.389 . S
C1082 C1083 1.524 . S
C1082 C1096 1.377 . S
C1083 C1082 1.524 . S
C1083 C1084 1.397 . S
C1083 C1088 1.363 . S
C1084 H1061 0.950 . S
C1084 C1083 1.397 . S
C1084 C1085 1.334 . S
C1085 H1062 0.950 . S
C1085 C1084 1.334 . S
C1085 C1086 1.253 1_655 S
C1086 C1085 1.253 1_455 S
C1086 C1087 1.531 1_455 S
C1086 H1105 0.941 . S
C1087 H1063 0.950 1_655 S
C1087 C1086 1.531 1_655 S
C1087 C1088 1.415 . S
C1088 H1064 0.950 . S
C1088 C1083 1.363 . S
C1088 C1087 1.415 . S
C1089 H1065 0.951 . S
C1089 C1090 1.366 . S
C1089 C1091 1.388 . S
C1090 C1089 1.366 . S
C1090 C1094 1.385 . S
C1091 H1066 0.951 . S
C1091 C1089 1.388 . S
C1091 C1092 1.366 . S
C1092 C1091 1.366 . S
C1092 C1093 1.414 . S
C1092 C1095 1.499 . S
C1093 H1067 0.950 . S
C1093 C1092 1.414 . S
C1093 C1094 1.374 . S
C1094 H1068 0.950 . S
C1094 C1090 1.385 . S
C1094 C1093 1.374 . S
C1095 C1092 1.499 . S
C1095 C1096 1.373 . S
C1095 C1097 1.389 . S
C1096 H1069 0.950 . S
C1096 C1082 1.377 . S
C1096 C1095 1.373 . S
C1097 C1081 1.377 . S
C1097 C1095 1.389 . S
C1097 C1098 1.524 . S
C1098 C1097 1.524 . S
C1098 C1099 1.397 . S
C1098 C1103 1.363 . S
C1099 H1070 0.950 . S
C1099 C1098 1.397 . S
C1099 C1100 1.334 . S
C1100 H1071 0.950 . S
C1100 C1099 1.334 . S
C1100 C1101 1.287 . S
C1101 C1100 1.287 . S
C1101 C1102 1.524 . S
C1101 H1104 0.999 . S
C1102 H1072 0.950 . S
C1102 C1101 1.524 . S
C1102 C1103 1.415 . S
C1103 H1073 0.950 . S
C1103 C1098 1.363 . S
C1103 C1102 1.415 . S
H1104 C1101 0.999 . S
H1105 C1086 0.941 . S
H1106 C1124 0.951 . S
H1107 C1126 0.951 . S
H1108 C1128 0.950 . S
H1109 C1129 0.950 . S
H1110 C1131 0.950 . S
H1111 C1134 0.950 . S
H1112 C1135 0.950 . S
H1113 C1137 0.950 . S
H1114 C1138 0.950 . S
H1115 C1139 0.951 . S
H1116 C1141 0.951 . S
H1117 C1143 0.950 . S
H1118 C1144 0.950 . S
H1119 C1146 0.950 . S
H1120 C1149 0.950 . S
H1121 C1150 0.950 . S
H1122 C1152 0.950 . S
H1123 C1153 0.950 . S
C1124 H1106 0.951 . S
C1124 C1125 1.366 . S
C1124 C1126 1.388 . S
C1125 C1124 1.366 . S
C1125 C1129 1.385 . S
C1126 H1107 0.951 . S
C1126 C1124 1.388 . S
C1126 C1127 1.366 . S
C1127 C1126 1.366 . S
C1127 C1128 1.414 . S
C1127 C1130 1.499 . S
C1128 H1108 0.950 . S
C1128 C1127 1.414 . S
C1128 C1129 1.374 . S
C1129 H1109 0.950 . S
C1129 C1125 1.385 . S
C1129 C1128 1.374 . S
C1130 C1127 1.499 . S
C1130 C1131 1.373 . S
C1130 C1132 1.389 . S
C1131 H1110 0.950 . S
C1131 C1130 1.373 . S
C1131 C1147 1.377 . S
C1132 C1130 1.389 . S
C1132 C1133 1.524 . S
C1132 C1146 1.377 . S
C1133 C1132 1.524 . S
C1133 C1134 1.397 . S
C1133 C1138 1.363 . S
C1134 H1111 0.950 . S
C1134 C1133 1.397 . S
C1134 C1135 1.334 . S
C1135 H1112 0.950 . S
C1135 C1134 1.334 . S
C1135 C1136 1.287 . S
C1136 C1135 1.287 . S
C1136 C1137 1.524 . S
C1136 H1155 0.913 . S
C1137 H1113 0.950 . S
C1137 C1136 1.524 . S
C1137 C1138 1.415 . S
C1138 H1114 0.950 . S
C1138 C1133 1.363 . S
C1138 C1137 1.415 . S
C1139 H1115 0.951 . S
C1139 C1140 1.366 . S
C1139 C1141 1.388 . S
C1140 C1139 1.366 . S
C1140 C1144 1.385 . S
C1141 H1116 0.951 . S
C1141 C1139 1.388 . S
C1141 C1142 1.366 . S
C1142 C1141 1.366 . S
C1142 C1143 1.414 . S
C1142 C1145 1.499 . S
C1143 H1117 0.950 . S
C1143 C1142 1.414 . S
C1143 C1144 1.374 . S
C1144 H1118 0.950 . S
C1144 C1140 1.385 . S
C1144 C1143 1.374 . S
C1145 C1142 1.499 . S
C1145 C1146 1.373 . S
C1145 C1147 1.389 . S
C1146 H1119 0.950 . S
C1146 C1132 1.377 . S
C1146 C1145 1.373 . S
C1147 C1131 1.377 . S
C1147 C1145 1.389 . S
C1147 C1148 1.524 . S
C1148 C1147 1.524 . S
C1148 C1149 1.397 . S
C1148 C1153 1.363 . S
C1149 H1120 0.950 . S
C1149 C1148 1.397 . S
C1149 C1150 1.334 . S
C1150 H1121 0.950 . S
C1150 C1149 1.334 . S
C1150 C1151 1.287 . S
C1151 C1150 1.287 . S
C1151 C1152 1.524 . S
C1151 H1154 0.999 . S
C1152 H1122 0.950 . S
C1152 C1151 1.524 . S
C1152 C1153 1.415 . S
C1153 H1123 0.950 . S
C1153 C1148 1.363 . S
C1153 C1152 1.415 . S
H1154 C1151 0.999 . S
H1155 C1136 0.913 . S
H1156 C1174 0.951 . S
H1157 C1176 0.951 . S
H1158 C1178 0.950 1_565 S
H1159 C1179 0.950 1_565 S
H1160 C1181 0.950 . S
H1161 C1184 0.950 . S
H1162 C1185 0.950 . S
H1163 C1187 0.950 . S
H1164 C1188 0.950 . S
H1165 C1189 0.951 . S
H1166 C1191 0.951 . S
H1167 C1193 0.950 . S
H1168 C1194 0.950 . S
H1169 C1196 0.950 . S
H1170 C1199 0.950 . S
H1171 C1200 0.950 . S
H1172 C1202 0.950 . S
H1173 C1203 0.950 . S
C1174 H1156 0.951 . S
C1174 C1175 1.366 . S
C1174 C1176 1.388 . S
C1175 C1174 1.366 . S
C1175 C1179 1.385 . S
C1176 H1157 0.951 . S
C1176 C1174 1.388 . S
C1176 C1177 1.366 . S
C1177 C1176 1.366 . S
C1177 C1178 1.414 . S
C1177 C1180 1.499 . S
C1178 H1158 0.950 1_545 S
C1178 C1177 1.414 . S
C1178 C1179 1.374 . S
C1179 H1159 0.950 1_545 S
C1179 C1175 1.385 . S
C1179 C1178 1.374 . S
C1180 C1177 1.499 . S
C1180 C1181 1.373 . S
C1180 C1182 1.389 . S
C1181 H1160 0.950 . S
C1181 C1180 1.373 . S
C1181 C1197 1.377 . S
C1182 C1180 1.389 . S
C1182 C1183 1.524 . S
C1182 C1196 1.377 . S
C1183 C1182 1.524 . S
C1183 C1184 1.397 1_545 S
C1183 C1188 1.363 . S
C1184 H1161 0.950 . S
C1184 C1183 1.397 1_565 S
C1184 C1185 1.334 . S
C1185 H1162 0.950 . S
C1185 C1184 1.334 . S
C1185 C1186 1.287 . S
C1186 C1185 1.287 . S
C1186 C1187 1.524 1_565 S
C1186 H1205 0.913 . S
C1187 H1163 0.950 . S
C1187 C1186 1.524 1_545 S
C1187 C1188 1.415 . S
C1188 H1164 0.950 . S
C1188 C1183 1.363 . S
C1188 C1187 1.415 . S
C1189 H1165 0.951 . S
C1189 C1190 1.366 . S
C1189 C1191 1.388 . S
C1190 C1189 1.366 . S
C1190 C1194 1.385 . S
C1191 H1166 0.951 . S
C1191 C1189 1.388 . S
C1191 C1192 1.366 . S
C1192 C1191 1.366 . S
C1192 C1193 1.414 . S
C1192 C1195 1.499 . S
C1193 H1167 0.950 . S
C1193 C1192 1.414 . S
C1193 C1194 1.374 . S
C1194 H1168 0.950 . S
C1194 C1190 1.385 . S
C1194 C1193 1.374 . S
C1195 C1192 1.499 . S
C1195 C1196 1.373 . S
C1195 C1197 1.389 . S
C1196 H1169 0.950 . S
C1196 C1182 1.377 . S
C1196 C1195 1.373 . S
C1197 C1181 1.377 . S
C1197 C1195 1.389 . S
C1197 C1198 1.524 . S
C1198 C1197 1.524 . S
C1198 C1199 1.397 . S
C1198 C1203 1.363 . S
C1199 H1170 0.950 . S
C1199 C1198 1.397 . S
C1199 C1200 1.334 . S
C1200 H1171 0.950 . S
C1200 C1199 1.334 . S
C1200 C1201 1.287 . S
C1201 C1200 1.287 . S
C1201 C1202 1.524 . S
C1201 H1204 0.999 . S
C1202 H1172 0.950 . S
C1202 C1201 1.524 . S
C1202 C1203 1.415 . S
C1203 H1173 0.950 . S
C1203 C1198 1.363 . S
C1203 C1202 1.415 . S
H1204 C1201 0.999 . S
H1205 C1186 0.913 . S
H1206 C1224 0.951 . S
H1207 C1226 0.951 . S
H1208 C1228 0.950 . S
H1209 C1229 0.950 . S
H1210 C1231 0.950 . S
H1211 C1234 0.950 . S
H1212 C1235 0.950 . S
H1213 C1237 0.950 . S
H1214 C1238 0.950 . S
H1215 C1239 0.951 . S
H1216 C1241 0.951 . S
H1217 C1243 0.950 . S
H1218 C1244 0.950 . S
H1219 C1246 0.950 . S
H1220 C1249 0.950 . S
H1221 C1250 0.950 . S
H1222 C1252 0.950 . S
H1223 C1253 0.950 . S
C1224 H1206 0.951 . S
C1224 C1225 1.366 . S
C1224 C1226 1.388 . S
C1225 C1224 1.366 . S
C1225 C1229 1.385 . S
C1226 H1207 0.951 . S
C1226 C1224 1.388 . S
C1226 C1227 1.366 . S
C1227 C1226 1.366 . S
C1227 C1228 1.414 . S
C1227 C1230 1.499 . S
C1228 H1208 0.950 . S
C1228 C1227 1.414 . S
C1228 C1229 1.374 . S
C1229 H1209 0.950 . S
C1229 C1225 1.385 . S
C1229 C1228 1.374 . S
C1230 C1227 1.499 . S
C1230 C1231 1.373 . S
C1230 C1232 1.389 . S
C1231 H1210 0.950 . S
C1231 C1230 1.373 . S
C1231 C1247 1.377 . S
C1232 C1230 1.389 . S
C1232 C1233 1.524 . S
C1232 C1246 1.377 . S
C1233 C1232 1.524 . S
C1233 C1234 1.397 . S
C1233 C1238 1.363 . S
C1234 H1211 0.950 . S
C1234 C1233 1.397 . S
C1234 C1235 1.334 . S
C1235 H1212 0.950 . S
C1235 C1234 1.334 . S
C1235 C1236 1.287 . S
C1236 C1235 1.287 . S
C1236 C1237 1.524 . S
C1236 H1255 0.913 . S
C1237 H1213 0.950 . S
C1237 C1236 1.524 . S
C1237 C1238 1.415 . S
C1238 H1214 0.950 . S
C1238 C1233 1.363 . S
C1238 C1237 1.415 . S
C1239 H1215 0.951 . S
C1239 C1240 1.366 . S
C1239 C1241 1.388 . S
C1240 C1239 1.366 . S
C1240 C1244 1.385 . S
C1241 H1216 0.951 . S
C1241 C1239 1.388 . S
C1241 C1242 1.366 . S
C1242 C1241 1.366 . S
C1242 C1243 1.414 . S
C1242 C1245 1.499 . S
C1243 H1217 0.950 . S
C1243 C1242 1.414 . S
C1243 C1244 1.374 . S
C1244 H1218 0.950 . S
C1244 C1240 1.385 . S
C1244 C1243 1.374 . S
C1245 C1242 1.499 . S
C1245 C1246 1.373 . S
C1245 C1247 1.389 . S
C1246 H1219 0.950 . S
C1246 C1232 1.377 . S
C1246 C1245 1.373 . S
C1247 C1231 1.377 . S
C1247 C1245 1.389 . S
C1247 C1248 1.524 . S
C1248 C1247 1.524 . S
C1248 C1249 1.397 . S
C1248 C1253 1.363 . S
C1249 H1220 0.950 . S
C1249 C1248 1.397 . S
C1249 C1250 1.334 . S
C1250 H1221 0.950 . S
C1250 C1249 1.334 . S
C1250 C1251 1.287 . S
C1251 C1250 1.287 . S
C1251 C1252 1.524 . S
C1251 H1254 0.999 . S
C1252 H1222 0.950 . S
C1252 C1251 1.524 . S
C1252 C1253 1.415 . S
C1253 H1223 0.950 . S
C1253 C1248 1.363 . S
C1253 C1252 1.415 . S
H1254 C1251 0.999 . S
H1255 C1236 0.913 . S
H1256 C1274 0.951 . S
H1257 C1276 0.951 . S
H1258 C1278 0.950 . S
H1259 C1279 0.950 . S
H1260 C1281 0.950 . S
H1261 C1284 0.950 . S
H1262 C1285 0.950 . S
H1263 C1287 0.950 . S
H1264 C1288 0.950 . S
H1265 C1289 0.952 1_455 S
H1266 C1291 0.951 . S
H1267 C1293 0.950 . S
H1268 C1294 0.950 . S
H1269 C1296 0.950 . S
H1270 C1299 0.950 1_545 S
H1271 C1300 0.950 . S
H1272 C1302 0.950 . S
H1273 C1303 0.950 . S
C1274 H1256 0.951 . S
C1274 C1275 1.366 . S
C1274 C1276 1.388 . S
C1275 C1274 1.366 . S
C1275 C1279 1.385 . S
C1276 H1257 0.951 . S
C1276 C1274 1.388 . S
C1276 C1277 1.366 . S
C1277 C1276 1.366 . S
C1277 C1278 1.414 . S
C1277 C1280 1.499 . S
C1278 H1258 0.950 . S
C1278 C1277 1.414 . S
C1278 C1279 1.374 . S
C1279 H1259 0.950 . S
C1279 C1275 1.385 . S
C1279 C1278 1.374 . S
C1280 C1277 1.499 . S
C1280 C1281 1.373 . S
C1280 C1282 1.389 . S
C1281 H1260 0.950 . S
C1281 C1280 1.373 . S
C1281 C1297 1.377 . S
C1282 C1280 1.389 . S
C1282 C1283 1.524 . S
C1282 C1296 1.377 . S
C1283 C1282 1.524 . S
C1283 C1284 1.397 . S
C1283 C1288 1.363 . S
C1284 H1261 0.950 . S
C1284 C1283 1.397 . S
C1284 C1285 1.334 . S
C1285 H1262 0.950 . S
C1285 C1284 1.334 . S
C1285 C1286 1.287 . S
C1286 C1285 1.287 . S
C1286 C1287 1.524 . S
C1286 H1305 0.913 . S
C1287 H1263 0.950 . S
C1287 C1286 1.524 . S
C1287 C1288 1.415 . S
C1288 H1264 0.950 . S
C1288 C1283 1.363 . S
C1288 C1287 1.415 . S
C1289 H1265 0.952 1_655 S
C1289 C1290 1.365 . S
C1289 C1291 1.387 . S
C1290 C1289 1.365 . S
C1290 C1294 1.385 . S
C1291 H1266 0.951 . S
C1291 C1289 1.387 . S
C1291 C1292 1.366 . S
C1292 C1291 1.366 . S
C1292 C1293 1.414 . S
C1292 C1295 1.499 . S
C1293 H1267 0.950 . S
C1293 C1292 1.414 . S
C1293 C1294 1.374 . S
C1294 H1268 0.950 . S
C1294 C1290 1.385 . S
C1294 C1293 1.374 . S
C1295 C1292 1.499 . S
C1295 C1296 1.373 . S
C1295 C1297 1.389 . S
C1296 H1269 0.950 . S
C1296 C1282 1.377 . S
C1296 C1295 1.373 . S
C1297 C1281 1.377 . S
C1297 C1295 1.389 . S
C1297 C1298 1.524 . S
C1298 C1297 1.524 . S
C1298 C1299 1.397 1_545 S
C1298 C1303 1.363 . S
C1299 H1270 0.950 1_565 S
C1299 C1298 1.397 1_565 S
C1299 C1300 1.334 . S
C1300 H1271 0.950 . S
C1300 C1299 1.334 . S
C1300 C1301 1.287 . S
C1301 C1300 1.287 . S
C1301 C1302 1.524 . S
C1301 H1304 0.999 . S
C1302 H1272 0.950 . S
C1302 C1301 1.524 . S
C1302 C1303 1.415 1_565 S
C1303 H1273 0.950 . S
C1303 C1298 1.363 . S
C1303 C1302 1.415 1_545 S
H1304 C1301 0.999 . S
H1305 C1286 0.913 . S
H1306 C1324 0.951 . S
H1307 C1326 0.951 . S
H1308 C1328 0.950 . S
H1309 C1329 0.950 . S
H1310 C1331 0.950 . S
H1311 C1334 0.950 . S
H1312 C1335 0.950 . S
H1313 C1337 0.950 . S
H1314 C1338 0.950 . S
H1315 C1339 0.951 . S
H1316 C1341 0.951 . S
H1317 C1343 0.950 . S
H1318 C1344 0.950 . S
H1319 C1346 0.950 . S
H1320 C1349 0.950 . S
H1321 C1350 0.950 . S
H1322 C1352 0.950 . S
H1323 C1353 0.950 . S
C1324 H1306 0.951 . S
C1324 C1325 1.366 . S
C1324 C1326 1.388 . S
C1325 C1324 1.366 . S
C1325 C1329 1.385 . S
C1326 H1307 0.951 . S
C1326 C1324 1.388 . S
C1326 C1327 1.366 . S
C1327 C1326 1.366 . S
C1327 C1328 1.414 . S
C1327 C1330 1.499 . S
C1328 H1308 0.950 . S
C1328 C1327 1.414 . S
C1328 C1329 1.374 . S
C1329 H1309 0.950 . S
C1329 C1325 1.385 . S
C1329 C1328 1.374 . S
C1330 C1327 1.499 . S
C1330 C1331 1.373 . S
C1330 C1332 1.389 . S
C1331 H1310 0.950 . S
C1331 C1330 1.373 . S
C1331 C1347 1.377 . S
C1332 C1330 1.389 . S
C1332 C1333 1.524 . S
C1332 C1346 1.377 . S
C1333 C1332 1.524 . S
C1333 C1334 1.397 . S
C1333 C1338 1.363 . S
C1334 H1311 0.950 . S
C1334 C1333 1.397 . S
C1334 C1335 1.334 . S
C1335 H1312 0.950 . S
C1335 C1334 1.334 . S
C1335 C1336 1.287 . S
C1336 C1335 1.287 . S
C1336 C1337 1.524 . S
C1336 H1355 0.913 . S
C1337 H1313 0.950 . S
C1337 C1336 1.524 . S
C1337 C1338 1.415 . S
C1338 H1314 0.950 . S
C1338 C1333 1.363 . S
C1338 C1337 1.415 . S
C1339 H1315 0.951 . S
C1339 C1340 1.366 . S
C1339 C1341 1.388 . S
C1340 C1339 1.366 . S
C1340 C1344 1.385 . S
C1341 H1316 0.951 . S
C1341 C1339 1.388 . S
C1341 C1342 1.366 . S
C1342 C1341 1.366 . S
C1342 C1343 1.414 . S
C1342 C1345 1.499 . S
C1343 H1317 0.950 . S
C1343 C1342 1.414 . S
C1343 C1344 1.374 . S
C1344 H1318 0.950 . S
C1344 C1340 1.385 . S
C1344 C1343 1.374 . S
C1345 C1342 1.499 . S
C1345 C1346 1.373 . S
C1345 C1347 1.389 . S
C1346 H1319 0.950 . S
C1346 C1332 1.377 . S
C1346 C1345 1.373 . S
C1347 C1331 1.377 . S
C1347 C1345 1.389 . S
C1347 C1348 1.524 . S
C1348 C1347 1.524 . S
C1348 C1349 1.397 . S
C1348 C1353 1.363 . S
C1349 H1320 0.950 . S
C1349 C1348 1.397 . S
C1349 C1350 1.334 . S
C1350 H1321 0.950 . S
C1350 C1349 1.334 . S
C1350 C1351 1.287 . S
C1351 C1350 1.287 . S
C1351 C1352 1.524 . S
C1351 H1354 0.999 . S
C1352 H1322 0.950 . S
C1352 C1351 1.524 . S
C1352 C1353 1.415 . S
C1353 H1323 0.950 . S
C1353 C1348 1.363 . S
C1353 C1352 1.415 . S
H1354 C1351 0.999 . S
H1355 C1336 0.913 . S
H1356 C1374 0.951 . S
H1357 C1376 0.951 . S
H1358 C1378 0.950 . S
H1359 C1379 0.950 . S
H1360 C1381 0.950 . S
H1361 C1384 0.950 . S
H1362 C1385 0.950 . S
H1363 C1387 0.950 . S
H1364 C1388 0.950 . S
H1365 C1389 0.951 . S
H1366 C1391 0.951 . S
H1367 C1393 0.950 . S
H1368 C1394 0.950 . S
H1369 C1396 0.950 . S
H1370 C1399 0.950 . S
H1371 C1400 0.950 . S
H1372 C1402 0.950 . S
H1373 C1403 0.950 . S
C1374 H1356 0.951 . S
C1374 C1375 1.366 . S
C1374 C1376 1.388 . S
C1375 C1374 1.366 . S
C1375 C1379 1.385 . S
C1376 H1357 0.951 . S
C1376 C1374 1.388 . S
C1376 C1377 1.366 . S
C1377 C1376 1.366 . S
C1377 C1378 1.414 . S
C1377 C1380 1.499 . S
C1378 H1358 0.950 . S
C1378 C1377 1.414 . S
C1378 C1379 1.374 . S
C1379 H1359 0.950 . S
C1379 C1375 1.385 . S
C1379 C1378 1.374 . S
C1380 C1377 1.499 . S
C1380 C1381 1.373 . S
C1380 C1382 1.389 . S
C1381 H1360 0.950 . S
C1381 C1380 1.373 . S
C1381 C1397 1.377 . S
C1382 C1380 1.389 . S
C1382 C1383 1.524 1_545 S
C1382 C1396 1.377 . S
C1383 C1382 1.524 1_565 S
C1383 C1384 1.397 . S
C1383 C1388 1.363 . S
C1384 H1361 0.950 . S
C1384 C1383 1.397 . S
C1384 C1385 1.334 . S
C1385 H1362 0.950 . S
C1385 C1384 1.334 . S
C1385 C1386 1.287 . S
C1386 C1385 1.287 . S
C1386 C1387 1.524 . S
C1386 H1405 0.913 . S
C1387 H1363 0.950 . S
C1387 C1386 1.524 . S
C1387 C1388 1.415 . S
C1388 H1364 0.950 . S
C1388 C1383 1.363 . S
C1388 C1387 1.415 . S
C1389 H1365 0.951 . S
C1389 C1390 1.366 . S
C1389 C1391 1.388 . S
C1390 C1389 1.366 . S
C1390 C1394 1.385 . S
C1391 H1366 0.951 . S
C1391 C1389 1.388 . S
C1391 C1392 1.366 . S
C1392 C1391 1.366 . S
C1392 C1393 1.414 . S
C1392 C1395 1.499 . S
C1393 H1367 0.950 . S
C1393 C1392 1.414 . S
C1393 C1394 1.374 . S
C1394 H1368 0.950 . S
C1394 C1390 1.385 . S
C1394 C1393 1.374 . S
C1395 C1392 1.499 . S
C1395 C1396 1.373 . S
C1395 C1397 1.389 . S
C1396 H1369 0.950 . S
C1396 C1382 1.377 . S
C1396 C1395 1.373 . S
C1397 C1381 1.377 . S
C1397 C1395 1.389 . S
C1397 C1398 1.524 . S
C1398 C1397 1.524 . S
C1398 C1399 1.397 . S
C1398 C1403 1.363 . S
C1399 H1370 0.950 . S
C1399 C1398 1.397 . S
C1399 C1400 1.334 . S
C1400 H1371 0.950 . S
C1400 C1399 1.334 . S
C1400 C1401 1.287 . S
C1401 C1400 1.287 . S
C1401 C1402 1.524 . S
C1401 H1404 0.999 . S
C1402 H1372 0.950 . S
C1402 C1401 1.524 . S
C1402 C1403 1.415 . S
C1403 H1373 0.950 . S
C1403 C1398 1.363 . S
C1403 C1402 1.415 . S
H1404 C1401 0.999 . S
H1405 C1386 0.913 . S
H1406 C1424 0.951 . S
H1407 C1426 0.951 . S
H1408 C1428 0.950 . S
H1409 C1429 0.950 . S
H1410 C1431 0.950 . S
H1411 C1434 0.950 . S
H1412 C1435 0.950 . S
H1413 C1437 0.950 . S
H1414 C1438 0.950 . S
H1415 C1439 0.951 . S
H1416 C1441 0.951 . S
H1417 C1443 0.950 . S
H1418 C1444 0.950 . S
H1419 C1446 0.950 . S
H1420 C1449 0.950 . S
H1421 C1450 0.950 . S
H1422 C1452 0.950 . S
H1423 C1453 0.950 . S
C1424 H1406 0.951 . S
C1424 C1425 1.366 . S
C1424 C1426 1.388 . S
C1425 C1424 1.366 . S
C1425 C1429 1.385 . S
C1426 H1407 0.951 . S
C1426 C1424 1.388 . S
C1426 C1427 1.366 . S
C1427 C1426 1.366 . S
C1427 C1428 1.414 . S
C1427 C1430 1.499 . S
C1428 H1408 0.950 . S
C1428 C1427 1.414 . S
C1428 C1429 1.374 . S
C1429 H1409 0.950 . S
C1429 C1425 1.385 . S
C1429 C1428 1.374 . S
C1430 C1427 1.499 . S
C1430 C1431 1.373 . S
C1430 C1432 1.389 . S
C1431 H1410 0.950 . S
C1431 C1430 1.373 . S
C1431 C1447 1.377 . S
C1432 C1430 1.389 . S
C1432 C1433 1.524 . S
C1432 C1446 1.377 . S
C1433 C1432 1.524 . S
C1433 C1434 1.397 . S
C1433 C1438 1.363 . S
C1434 H1411 0.950 . S
C1434 C1433 1.397 . S
C1434 C1435 1.334 . S
C1435 H1412 0.950 . S
C1435 C1434 1.334 . S
C1435 C1436 1.287 . S
C1436 C1435 1.287 . S
C1436 C1437 1.524 . S
C1436 H1455 0.913 . S
C1437 H1413 0.950 . S
C1437 C1436 1.524 . S
C1437 C1438 1.415 . S
C1438 H1414 0.950 . S
C1438 C1433 1.363 . S
C1438 C1437 1.415 . S
C1439 H1415 0.951 . S
C1439 C1440 1.366 . S
C1439 C1441 1.388 . S
C1440 C1439 1.366 . S
C1440 C1444 1.385 . S
C1441 H1416 0.951 . S
C1441 C1439 1.388 . S
C1441 C1442 1.366 . S
C1442 C1441 1.366 . S
C1442 C1443 1.414 . S
C1442 C1445 1.499 . S
C1443 H1417 0.950 . S
C1443 C1442 1.414 . S
C1443 C1444 1.374 . S
C1444 H1418 0.950 . S
C1444 C1440 1.385 . S
C1444 C1443 1.374 . S
C1445 C1442 1.499 . S
C1445 C1446 1.373 . S
C1445 C1447 1.389 . S
C1446 H1419 0.950 . S
C1446 C1432 1.377 . S
C1446 C1445 1.373 . S
C1447 C1431 1.377 . S
C1447 C1445 1.389 . S
C1447 C1448 1.524 . S
C1448 C1447 1.524 . S
C1448 C1449 1.397 . S
C1448 C1453 1.363 . S
C1449 H1420 0.950 . S
C1449 C1448 1.397 . S
C1449 C1450 1.334 . S
C1450 H1421 0.950 . S
C1450 C1449 1.334 . S
C1450 C1451 1.287 . S
C1451 C1450 1.287 . S
C1451 C1452 1.524 . S
C1451 H1454 0.999 . S
C1452 H1422 0.950 . S
C1452 C1451 1.524 . S
C1452 C1453 1.415 . S
C1453 H1423 0.950 . S
C1453 C1448 1.363 . S
C1453 C1452 1.415 . S
H1454 C1451 0.999 . S
H1455 C1436 0.913 . S
H1456 C1474 0.951 . S
H1457 C1476 0.951 . S
H1458 C1478 0.950 . S
H1459 C1479 0.950 . S
H1460 C1481 0.950 . S
H1461 C1484 0.950 . S
H1462 C1485 0.950 . S
H1463 C1487 0.950 . S
H1464 C1488 0.950 . S
H1465 C1489 0.951 . S
H1466 C1491 0.951 . S
H1467 C1493 0.950 . S
H1468 C1494 0.950 . S
H1469 C1496 0.950 . S
H1470 C1499 0.950 . S
H1471 C1500 0.950 . S
H1472 C1502 0.935 1_554 S
H1473 C1503 0.950 . S
C1474 H1456 0.951 . S
C1474 C1475 1.366 . S
C1474 C1476 1.388 . S
C1475 C1474 1.366 . S
C1475 C1479 1.385 . S
C1476 H1457 0.951 . S
C1476 C1474 1.388 . S
C1476 C1477 1.366 . S
C1477 C1476 1.366 . S
C1477 C1478 1.414 . S
C1477 C1480 1.499 . S
C1478 H1458 0.950 . S
C1478 C1477 1.414 . S
C1478 C1479 1.374 . S
C1479 H1459 0.950 . S
C1479 C1475 1.385 . S
C1479 C1478 1.374 . S
C1480 C1477 1.499 . S
C1480 C1481 1.373 . S
C1480 C1482 1.389 . S
C1481 H1460 0.950 . S
C1481 C1480 1.373 . S
C1481 C1497 1.377 . S
C1482 C1480 1.389 . S
C1482 C1483 1.524 . S
C1482 C1496 1.377 . S
C1483 C1482 1.524 . S
C1483 C1484 1.397 . S
C1483 C1488 1.363 1_565 S
C1484 H1461 0.950 . S
C1484 C1483 1.397 . S
C1484 C1485 1.334 . S
C1485 H1462 0.950 . S
C1485 C1484 1.334 . S
C1485 C1486 1.287 1_565 S
C1486 C1485 1.287 1_545 S
C1486 C1487 1.524 . S
C1486 H1505 0.913 . S
C1487 H1463 0.950 . S
C1487 C1486 1.524 . S
C1487 C1488 1.415 . S
C1488 H1464 0.950 . S
C1488 C1483 1.363 1_545 S
C1488 C1487 1.415 . S
C1489 H1465 0.951 . S
C1489 C1490 1.366 1_565 S
C1489 C1491 1.388 . S
C1490 C1489 1.366 1_545 S
C1490 C1494 1.385 . S
C1491 H1466 0.951 . S
C1491 C1489 1.388 . S
C1491 C1492 1.366 . S
C1492 C1491 1.366 . S
C1492 C1493 1.414 1_565 S
C1492 C1495 1.499 . S
C1493 H1467 0.950 . S
C1493 C1492 1.414 1_545 S
C1493 C1494 1.374 . S
C1494 H1468 0.950 . S
C1494 C1490 1.385 . S
C1494 C1493 1.374 . S
C1495 C1492 1.499 . S
C1495 C1496 1.373 . S
C1495 C1497 1.389 . S
C1496 H1469 0.950 . S
C1496 C1482 1.377 . S
C1496 C1495 1.373 . S
C1497 C1481 1.377 . S
C1497 C1495 1.389 . S
C1497 C1498 1.524 . S
C1498 C1497 1.524 . S
C1498 C1499 1.397 1_554 S
C1498 C1503 1.363 . S
C1499 H1470 0.950 . S
C1499 C1498 1.397 1_556 S
C1499 C1500 1.334 . S
C1500 H1471 0.950 . S
C1500 C1499 1.334 . S
C1500 C1501 1.287 . S
C1501 C1500 1.287 . S
C1501 C1502 1.568 . S
C1501 H1504 0.999 . S
C1502 H1472 0.935 1_556 S
C1502 C1501 1.568 . S
C1502 C1503 1.390 1_556 S
C1503 H1473 0.950 . S
C1503 C1498 1.363 . S
C1503 C1502 1.390 1_554 S
H1504 C1501 0.999 . S
H1505 C1486 0.913 . S
H1506 C1524 0.951 . S
H1507 C1526 0.951 . S
H1508 C1528 0.950 . S
H1509 C1529 0.950 . S
H1510 C1531 0.957 . S
H1511 C1534 0.950 . S
H1512 C1535 0.950 . S
H1513 C1537 0.950 . S
H1514 C1538 0.950 1_556 S
H1515 C1539 0.951 . S
H1516 C1541 0.951 . S
H1517 C1543 0.950 . S
H1518 C1544 0.950 . S
H1519 C1546 0.950 . S
H1520 C1549 0.950 . S
H1521 C1550 0.950 . S
H1522 C1552 0.935 1_554 S
H1523 C1553 0.950 . S
C1524 H1506 0.951 . S
C1524 C1525 1.366 1_556 S
C1524 C1526 1.388 . S
C1525 C1524 1.366 1_554 S
C1525 C1529 1.385 . S
C1526 H1507 0.951 . S
C1526 C1524 1.388 . S
C1526 C1527 1.366 1_556 S
C1527 C1526 1.366 1_554 S
C1527 C1528 1.414 . S
C1527 C1530 1.499 . S
C1528 H1508 0.950 . S
C1528 C1527 1.414 . S
C1528 C1529 1.374 . S
C1529 H1509 0.950 . S
C1529 C1525 1.385 . S
C1529 C1528 1.374 . S
C1530 C1527 1.499 . S
C1530 C1531 1.373 . S
C1530 C1532 1.389 . S
C1531 H1510 0.957 . S
C1531 C1530 1.373 . S
C1531 C1547 1.377 . S
C1532 C1530 1.389 . S
C1532 C1533 1.524 . S
C1532 C1546 1.377 . S
C1533 C1532 1.524 . S
C1533 C1534 1.397 . S
C1533 C1538 1.363 . S
C1534 H1511 0.950 . S
C1534 C1533 1.397 . S
C1534 C1535 1.334 . S
C1535 H1512 0.950 . S
C1535 C1534 1.334 . S
C1535 C1536 1.287 . S
C1536 C1535 1.287 . S
C1536 C1537 1.524 . S
C1536 H1555 0.913 . S
C1537 H1513 0.950 . S
C1537 C1536 1.524 . S
C1537 C1538 1.415 . S
C1538 H1514 0.950 1_554 S
C1538 C1533 1.363 . S
C1538 C1537 1.415 . S
C1539 H1515 0.951 . S
C1539 C1540 1.366 . S
C1539 C1541 1.388 . S
C1540 C1539 1.366 . S
C1540 C1544 1.385 1_554 S
C1541 H1516 0.951 . S
C1541 C1539 1.388 . S
C1541 C1542 1.366 . S
C1542 C1541 1.366 . S
C1542 C1543 1.414 1_554 S
C1542 C1545 1.499 . S
C1543 H1517 0.950 . S
C1543 C1542 1.414 1_556 S
C1543 C1544 1.374 . S
C1544 H1518 0.950 . S
C1544 C1540 1.385 1_556 S
C1544 C1543 1.374 . S
C1545 C1542 1.499 . S
C1545 C1546 1.373 . S
C1545 C1547 1.389 . S
C1546 H1519 0.950 . S
C1546 C1532 1.377 . S
C1546 C1545 1.373 . S
C1547 C1531 1.377 . S
C1547 C1545 1.389 . S
C1547 C1548 1.524 1_554 S
C1548 C1547 1.524 1_556 S
C1548 C1549 1.397 . S
C1548 C1553 1.363 1_556 S
C1549 H1520 0.950 . S
C1549 C1548 1.397 . S
C1549 C1550 1.334 . S
C1550 H1521 0.950 . S
C1550 C1549 1.334 . S
C1550 C1551 1.287 . S
C1551 C1550 1.287 . S
C1551 C1552 1.547 . S
C1551 H1554 0.999 . S
C1552 H1522 0.935 1_556 S
C1552 C1551 1.547 . S
C1552 C1553 1.409 1_556 S
C1553 H1523 0.950 . S
C1553 C1548 1.363 1_554 S
C1553 C1552 1.409 1_554 S
H1554 C1551 0.999 . S
H1555 C1536 0.913 . S
H1556 C1574 0.951 . S
H1557 C1576 0.951 . S
H1558 C1578 0.950 . S
H1559 C1579 0.950 . S
H1560 C1581 0.950 . S
H1561 C1584 0.950 . S
H1562 C1585 0.950 . S
H1563 C1587 0.950 . S
H1564 C1588 0.950 . S
H1565 C1589 0.951 . S
H1566 C1591 0.951 . S
H1567 C1593 0.950 . S
H1568 C1594 0.950 . S
H1569 C1596 0.950 . S
H1570 C1599 0.950 . S
H1571 C1600 0.950 . S
H1572 C1602 0.950 . S
H1573 C1603 0.950 . S
C1574 H1556 0.951 . S
C1574 C1575 1.366 . S
C1574 C1576 1.388 . S
C1575 C1574 1.366 . S
C1575 C1579 1.385 . S
C1576 H1557 0.951 . S
C1576 C1574 1.388 . S
C1576 C1577 1.366 . S
C1577 C1576 1.366 . S
C1577 C1578 1.414 . S
C1577 C1580 1.499 . S
C1578 H1558 0.950 . S
C1578 C1577 1.414 . S
C1578 C1579 1.374 . S
C1579 H1559 0.950 . S
C1579 C1575 1.385 . S
C1579 C1578 1.374 . S
C1580 C1577 1.499 . S
C1580 C1581 1.373 . S
C1580 C1582 1.389 . S
C1581 H1560 0.950 . S
C1581 C1580 1.373 . S
C1581 C1597 1.377 . S
C1582 C1580 1.389 . S
C1582 C1583 1.524 . S
C1582 C1596 1.377 . S
C1583 C1582 1.524 . S
C1583 C1584 1.397 . S
C1583 C1588 1.363 . S
C1584 H1561 0.950 . S
C1584 C1583 1.397 . S
C1584 C1585 1.334 . S
C1585 H1562 0.950 . S
C1585 C1584 1.334 . S
C1585 C1586 1.287 . S
C1586 C1585 1.287 . S
C1586 C1587 1.524 . S
C1586 H1605 0.913 . S
C1587 H1563 0.950 . S
C1587 C1586 1.524 . S
C1587 C1588 1.415 . S
C1588 H1564 0.950 . S
C1588 C1583 1.363 . S
C1588 C1587 1.415 . S
C1589 H1565 0.951 . S
C1589 C1590 1.366 . S
C1589 C1591 1.388 . S
C1590 C1589 1.366 . S
C1590 C1594 1.385 . S
C1591 H1566 0.951 . S
C1591 C1589 1.388 . S
C1591 C1592 1.366 . S
C1592 C1591 1.366 . S
C1592 C1593 1.414 . S
C1592 C1595 1.499 . S
C1593 H1567 0.950 . S
C1593 C1592 1.414 . S
C1593 C1594 1.374 . S
C1594 H1568 0.950 . S
C1594 C1590 1.385 . S
C1594 C1593 1.374 . S
C1595 C1592 1.499 . S
C1595 C1596 1.373 . S
C1595 C1597 1.389 . S
C1596 H1569 0.950 . S
C1596 C1582 1.377 . S
C1596 C1595 1.373 . S
C1597 C1581 1.377 . S
C1597 C1595 1.389 . S
C1597 C1598 1.524 . S
C1598 C1597 1.524 . S
C1598 C1599 1.397 . S
C1598 C1603 1.363 . S
C1599 H1570 0.950 . S
C1599 C1598 1.397 . S
C1599 C1600 1.334 . S
C1600 H1571 0.950 . S
C1600 C1599 1.334 . S
C1600 C1601 1.287 . S
C1601 C1600 1.287 . S
C1601 C1602 1.524 . S
C1601 H1604 0.999 . S
C1602 H1572 0.950 . S
C1602 C1601 1.524 . S
C1602 C1603 1.415 . S
C1603 H1573 0.950 . S
C1603 C1598 1.363 . S
C1603 C1602 1.415 . S
H1604 C1601 0.999 . S
H1605 C1586 0.913 . S
H1606 C1624 0.951 . S
H1607 C1626 0.951 . S
H1608 C1628 0.950 . S
H1609 C1629 0.950 . S
H1610 C1631 0.950 . S
H1611 C1634 0.950 . S
H1612 C1635 0.950 . S
H1613 C1637 0.950 . S
H1614 C1638 0.950 . S
H1615 C1639 0.951 . S
H1616 C1641 0.951 . S
H1617 C1643 0.950 . S
H1618 C1644 0.950 . S
H1619 C1646 0.950 . S
H1620 C1649 0.950 . S
H1621 C1650 0.950 . S
H1622 C1652 0.950 . S
H1623 C1653 0.950 . S
C1624 H1606 0.951 . S
C1624 C1625 1.366 . S
C1624 C1626 1.388 . S
C1625 C1624 1.366 . S
C1625 C1629 1.385 . S
C1626 H1607 0.951 . S
C1626 C1624 1.388 . S
C1626 C1627 1.366 . S
C1627 C1626 1.366 . S
C1627 C1628 1.414 . S
C1627 C1630 1.499 . S
C1628 H1608 0.950 . S
C1628 C1627 1.414 . S
C1628 C1629 1.374 . S
C1629 H1609 0.950 . S
C1629 C1625 1.385 . S
C1629 C1628 1.374 . S
C1630 C1627 1.499 . S
C1630 C1631 1.373 . S
C1630 C1632 1.389 . S
C1631 H1610 0.950 . S
C1631 C1630 1.373 . S
C1631 C1647 1.377 . S
C1632 C1630 1.389 . S
C1632 C1633 1.524 . S
C1632 C1646 1.377 . S
C1633 C1632 1.524 . S
C1633 C1634 1.397 . S
C1633 C1638 1.363 . S
C1634 H1611 0.950 . S
C1634 C1633 1.397 . S
C1634 C1635 1.334 . S
C1635 H1612 0.950 . S
C1635 C1634 1.334 . S
C1635 C1636 1.287 . S
C1636 C1635 1.287 . S
C1636 C1637 1.524 . S
C1636 H1655 0.913 . S
C1637 H1613 0.950 . S
C1637 C1636 1.524 . S
C1637 C1638 1.415 . S
C1638 H1614 0.950 . S
C1638 C1633 1.363 . S
C1638 C1637 1.415 . S
C1639 H1615 0.951 . S
C1639 C1640 1.366 . S
C1639 C1641 1.388 . S
C1640 C1639 1.366 . S
C1640 C1644 1.385 . S
C1641 H1616 0.951 . S
C1641 C1639 1.388 . S
C1641 C1642 1.366 . S
C1642 C1641 1.366 . S
C1642 C1643 1.414 . S
C1642 C1645 1.499 . S
C1643 H1617 0.950 . S
C1643 C1642 1.414 . S
C1643 C1644 1.374 . S
C1644 H1618 0.950 . S
C1644 C1640 1.385 . S
C1644 C1643 1.374 . S
C1645 C1642 1.499 . S
C1645 C1646 1.373 . S
C1645 C1647 1.389 . S
C1646 H1619 0.950 . S
C1646 C1632 1.377 . S
C1646 C1645 1.373 . S
C1647 C1631 1.377 . S
C1647 C1645 1.389 . S
C1647 C1648 1.524 . S
C1648 C1647 1.524 . S
C1648 C1649 1.397 . S
C1648 C1653 1.363 . S
C1649 H1620 0.950 . S
C1649 C1648 1.397 . S
C1649 C1650 1.334 . S
C1650 H1621 0.950 . S
C1650 C1649 1.334 . S
C1650 C1651 1.287 . S
C1651 C1650 1.287 . S
C1651 C1652 1.524 . S
C1651 H1654 0.999 . S
C1652 H1622 0.950 . S
C1652 C1651 1.524 . S
C1652 C1653 1.415 . S
C1653 H1623 0.950 . S
C1653 C1648 1.363 . S
C1653 C1652 1.415 . S
H1654 C1651 0.999 . S
H1655 C1636 0.913 . S
H1656 C1674 0.951 . S
H1657 C1676 0.951 . S
H1658 C1678 0.950 . S
H1659 C1679 0.950 . S
H1660 C1681 0.950 . S
H1661 C1684 0.950 . S
H1662 C1685 0.950 . S
H1663 C1687 0.950 . S
H1664 C1688 0.950 . S
H1665 C1689 0.951 . S
H1666 C1691 0.951 . S
H1667 C1693 0.950 . S
H1668 C1694 0.950 . S
H1669 C1696 0.950 . S
H1670 C1699 0.950 . S
H1671 C1700 0.950 . S
H1672 C1702 0.950 . S
H1673 C1703 0.950 . S
C1674 H1656 0.951 . S
C1674 C1675 1.366 . S
C1674 C1676 1.388 . S
C1675 C1674 1.366 . S
C1675 C1679 1.385 . S
C1676 H1657 0.951 . S
C1676 C1674 1.388 . S
C1676 C1677 1.366 . S
C1677 C1676 1.366 . S
C1677 C1678 1.414 . S
C1677 C1680 1.499 . S
C1678 H1658 0.950 . S
C1678 C1677 1.414 . S
C1678 C1679 1.374 . S
C1679 H1659 0.950 . S
C1679 C1675 1.385 . S
C1679 C1678 1.374 . S
C1680 C1677 1.499 . S
C1680 C1681 1.373 . S
C1680 C1682 1.389 . S
C1681 H1660 0.950 . S
C1681 C1680 1.373 . S
C1681 C1697 1.377 . S
C1682 C1680 1.389 . S
C1682 C1683 1.524 . S
C1682 C1696 1.377 . S
C1683 C1682 1.524 . S
C1683 C1684 1.397 . S
C1683 C1688 1.363 . S
C1684 H1661 0.950 . S
C1684 C1683 1.397 . S
C1684 C1685 1.334 . S
C1685 H1662 0.950 . S
C1685 C1684 1.334 . S
C1685 C1686 1.287 . S
C1686 C1685 1.287 . S
C1686 C1687 1.524 . S
C1686 H1705 0.913 . S
C1687 H1663 0.950 . S
C1687 C1686 1.524 . S
C1687 C1688 1.415 . S
C1688 H1664 0.950 . S
C1688 C1683 1.363 . S
C1688 C1687 1.415 . S
C1689 H1665 0.951 . S
C1689 C1690 1.366 . S
C1689 C1691 1.388 . S
C1690 C1689 1.366 . S
C1690 C1694 1.385 . S
C1691 H1666 0.951 . S
C1691 C1689 1.388 . S
C1691 C1692 1.366 . S
C1692 C1691 1.366 . S
C1692 C1693 1.414 . S
C1692 C1695 1.499 . S
C1693 H1667 0.950 . S
C1693 C1692 1.414 . S
C1693 C1694 1.374 . S
C1694 H1668 0.950 . S
C1694 C1690 1.385 . S
C1694 C1693 1.374 . S
C1695 C1692 1.499 . S
C1695 C1696 1.373 . S
C1695 C1697 1.389 . S
C1696 H1669 0.950 . S
C1696 C1682 1.377 . S
C1696 C1695 1.373 . S
C1697 C1681 1.377 . S
C1697 C1695 1.389 . S
C1697 C1698 1.524 . S
C1698 C1697 1.524 . S
C1698 C1699 1.397 . S
C1698 C1703 1.363 . S
C1699 H1670 0.950 . S
C1699 C1698 1.397 . S
C1699 C1700 1.334 . S
C1700 H1671 0.950 . S
C1700 C1699 1.334 . S
C1700 C1701 1.287 . S
C1701 C1700 1.287 . S
C1701 C1702 1.524 . S
C1701 H1704 0.999 . S
C1702 H1672 0.950 . S
C1702 C1701 1.524 . S
C1702 C1703 1.415 . S
C1703 H1673 0.950 . S
C1703 C1698 1.363 . S
C1703 C1702 1.415 . S
H1704 C1701 0.999 . S
H1705 C1686 0.913 . S
H1706 C1724 0.951 . S
H1707 C1726 0.951 . S
H1708 C1728 0.950 . S
H1709 C1729 0.950 . S
H1710 C1731 0.950 . S
H1711 C1734 0.950 . S
H1712 C1735 0.950 . S
H1713 C1737 0.950 . S
H1714 C1738 0.950 . S
H1715 C1739 0.951 . S
H1716 C1741 0.951 . S
H1717 C1743 0.950 . S
H1718 C1744 0.950 . S
H1719 C1746 0.950 . S
H1720 C1749 0.950 . S
H1721 C1750 0.950 . S
H1722 C1752 0.950 . S
H1723 C1753 0.950 . S
C1724 H1706 0.951 . S
C1724 C1725 1.366 . S
C1724 C1726 1.388 . S
C1725 C1724 1.366 . S
C1725 C1729 1.385 . S
C1726 H1707 0.951 . S
C1726 C1724 1.388 . S
C1726 C1727 1.366 . S
C1727 C1726 1.366 . S
C1727 C1728 1.414 . S
C1727 C1730 1.499 . S
C1728 H1708 0.950 . S
C1728 C1727 1.414 . S
C1728 C1729 1.374 . S
C1729 H1709 0.950 . S
C1729 C1725 1.385 . S
C1729 C1728 1.374 . S
C1730 C1727 1.499 . S
C1730 C1731 1.373 . S
C1730 C1732 1.389 . S
C1731 H1710 0.950 . S
C1731 C1730 1.373 . S
C1731 C1747 1.377 . S
C1732 C1730 1.389 . S
C1732 C1733 1.524 . S
C1732 C1746 1.377 . S
C1733 C1732 1.524 . S
C1733 C1734 1.397 . S
C1733 C1738 1.363 . S
C1734 H1711 0.950 . S
C1734 C1733 1.397 . S
C1734 C1735 1.334 . S
C1735 H1712 0.950 . S
C1735 C1734 1.334 . S
C1735 C1736 1.287 . S
C1736 C1735 1.287 . S
C1736 C1737 1.524 . S
C1736 H1755 0.913 . S
C1737 H1713 0.950 . S
C1737 C1736 1.524 . S
C1737 C1738 1.415 . S
C1738 H1714 0.950 . S
C1738 C1733 1.363 . S
C1738 C1737 1.415 . S
C1739 H1715 0.951 . S
C1739 C1740 1.366 . S
C1739 C1741 1.388 . S
C1740 C1739 1.366 . S
C1740 C1744 1.385 . S
C1741 H1716 0.951 . S
C1741 C1739 1.388 . S
C1741 C1742 1.366 . S
C1742 C1741 1.366 . S
C1742 C1743 1.414 . S
C1742 C1745 1.499 . S
C1743 H1717 0.950 . S
C1743 C1742 1.414 . S
C1743 C1744 1.374 . S
C1744 H1718 0.950 . S
C1744 C1740 1.385 . S
C1744 C1743 1.374 . S
C1745 C1742 1.499 . S
C1745 C1746 1.373 . S
C1745 C1747 1.389 . S
C1746 H1719 0.950 . S
C1746 C1732 1.377 . S
C1746 C1745 1.373 . S
C1747 C1731 1.377 . S
C1747 C1745 1.389 . S
C1747 C1748 1.524 . S
C1748 C1747 1.524 . S
C1748 C1749 1.397 . S
C1748 C1753 1.363 . S
C1749 H1720 0.950 . S
C1749 C1748 1.397 . S
C1749 C1750 1.334 . S
C1750 H1721 0.950 . S
C1750 C1749 1.334 . S
C1750 C1751 1.287 . S
C1751 C1750 1.287 . S
C1751 C1752 1.524 . S
C1751 H1754 0.999 . S
C1752 H1722 0.950 . S
C1752 C1751 1.524 . S
C1752 C1753 1.415 . S
C1753 H1723 0.950 . S
C1753 C1748 1.363 . S
C1753 C1752 1.415 . S
H1754 C1751 0.999 . S
H1755 C1736 0.913 . S
H1756 C1774 0.951 . S
H1757 C1776 0.951 . S
H1758 C1778 0.950 . S
H1759 C1779 0.950 . S
H1760 C1781 0.950 . S
H1761 C1784 0.950 . S
H1762 C1785 0.950 . S
H1763 C1787 0.950 . S
H1764 C1788 0.950 . S
H1765 C1789 0.951 . S
H1766 C1791 0.951 . S
H1767 C1793 0.950 . S
H1768 C1794 0.950 . S
H1769 C1796 0.950 . S
H1770 C1799 0.950 . S
H1771 C1800 0.950 . S
H1772 C1802 0.950 . S
H1773 C1803 0.950 . S
C1774 H1756 0.951 . S
C1774 C1775 1.366 . S
C1774 C1776 1.388 . S
C1775 C1774 1.366 . S
C1775 C1779 1.385 . S
C1776 H1757 0.951 . S
C1776 C1774 1.388 . S
C1776 C1777 1.366 . S
C1777 C1776 1.366 . S
C1777 C1778 1.414 . S
C1777 C1780 1.499 . S
C1778 H1758 0.950 . S
C1778 C1777 1.414 . S
C1778 C1779 1.374 . S
C1779 H1759 0.950 . S
C1779 C1775 1.385 . S
C1779 C1778 1.374 . S
C1780 C1777 1.499 . S
C1780 C1781 1.373 . S
C1780 C1782 1.389 . S
C1781 H1760 0.950 . S
C1781 C1780 1.373 . S
C1781 C1797 1.377 . S
C1782 C1780 1.389 . S
C1782 C1783 1.524 . S
C1782 C1796 1.377 . S
C1783 C1782 1.524 . S
C1783 C1784 1.397 . S
C1783 C1788 1.363 . S
C1784 H1761 0.950 . S
C1784 C1783 1.397 . S
C1784 C1785 1.334 . S
C1785 H1762 0.950 . S
C1785 C1784 1.334 . S
C1785 C1786 1.287 . S
C1786 C1785 1.287 . S
C1786 C1787 1.524 . S
C1786 H1805 0.913 . S
C1787 H1763 0.950 . S
C1787 C1786 1.524 . S
C1787 C1788 1.415 . S
C1788 H1764 0.950 . S
C1788 C1783 1.363 . S
C1788 C1787 1.415 . S
C1789 H1765 0.951 . S
C1789 C1790 1.366 . S
C1789 C1791 1.388 . S
C1790 C1789 1.366 . S
C1790 C1794 1.385 . S
C1791 H1766 0.951 . S
C1791 C1789 1.388 . S
C1791 C1792 1.366 . S
C1792 C1791 1.366 . S
C1792 C1793 1.414 . S
C1792 C1795 1.499 . S
C1793 H1767 0.950 . S
C1793 C1792 1.414 . S
C1793 C1794 1.374 . S
C1794 H1768 0.950 . S
C1794 C1790 1.385 . S
C1794 C1793 1.374 . S
C1795 C1792 1.499 . S
C1795 C1796 1.373 . S
C1795 C1797 1.389 . S
C1796 H1769 0.950 . S
C1796 C1782 1.377 . S
C1796 C1795 1.373 . S
C1797 C1781 1.377 . S
C1797 C1795 1.389 . S
C1797 C1798 1.524 . S
C1798 C1797 1.524 . S
C1798 C1799 1.397 . S
C1798 C1803 1.363 . S
C1799 H1770 0.950 . S
C1799 C1798 1.397 . S
C1799 C1800 1.334 . S
C1800 H1771 0.950 . S
C1800 C1799 1.334 . S
C1800 C1801 1.287 . S
C1801 C1800 1.287 . S
C1801 C1802 1.524 . S
C1801 H1804 0.999 . S
C1802 H1772 0.950 . S
C1802 C1801 1.524 . S
C1802 C1803 1.415 . S
C1803 H1773 0.950 . S
C1803 C1798 1.363 . S
C1803 C1802 1.415 . S
H1804 C1801 0.999 . S
H1805 C1786 0.913 . S
H1806 C1824 0.951 . S
H1807 C1826 0.951 . S
H1808 C1828 0.950 . S
H1809 C1829 0.950 . S
H1810 C1831 0.950 . S
H1811 C1834 0.950 . S
H1812 C1835 0.950 . S
H1813 C1837 0.950 . S
H1814 C1838 0.950 . S
H1815 C1839 0.951 . S
H1816 C1841 0.951 . S
H1817 C1843 0.950 . S
H1818 C1844 0.950 . S
H1819 C1846 0.950 . S
H1820 C1849 0.950 . S
H1821 C1850 0.950 . S
H1822 C1852 0.950 . S
H1823 C1853 0.950 . S
C1824 H1806 0.951 . S
C1824 C1825 1.366 . S
C1824 C1826 1.388 . S
C1825 C1824 1.366 . S
C1825 C1829 1.385 . S
C1826 H1807 0.951 . S
C1826 C1824 1.388 . S
C1826 C1827 1.366 . S
C1827 C1826 1.366 . S
C1827 C1828 1.414 . S
C1827 C1830 1.499 . S
C1828 H1808 0.950 . S
C1828 C1827 1.414 . S
C1828 C1829 1.374 . S
C1829 H1809 0.950 . S
C1829 C1825 1.385 . S
C1829 C1828 1.374 . S
C1830 C1827 1.499 . S
C1830 C1831 1.373 . S
C1830 C1832 1.389 . S
C1831 H1810 0.950 . S
C1831 C1830 1.373 . S
C1831 C1847 1.377 . S
C1832 C1830 1.389 . S
C1832 C1833 1.524 . S
C1832 C1846 1.377 . S
C1833 C1832 1.524 . S
C1833 C1834 1.397 . S
C1833 C1838 1.363 . S
C1834 H1811 0.950 . S
C1834 C1833 1.397 . S
C1834 C1835 1.334 . S
C1835 H1812 0.950 . S
C1835 C1834 1.334 . S
C1835 C1836 1.287 . S
C1836 C1835 1.287 . S
C1836 C1837 1.524 . S
C1836 H1855 0.913 . S
C1837 H1813 0.950 . S
C1837 C1836 1.524 . S
C1837 C1838 1.415 . S
C1838 H1814 0.950 . S
C1838 C1833 1.363 . S
C1838 C1837 1.415 . S
C1839 H1815 0.951 . S
C1839 C1840 1.366 . S
C1839 C1841 1.388 . S
C1840 C1839 1.366 . S
C1840 C1844 1.385 . S
C1841 H1816 0.951 . S
C1841 C1839 1.388 . S
C1841 C1842 1.366 . S
C1842 C1841 1.366 . S
C1842 C1843 1.414 . S
C1842 C1845 1.499 . S
C1843 H1817 0.950 . S
C1843 C1842 1.414 . S
C1843 C1844 1.374 . S
C1844 H1818 0.950 . S
C1844 C1840 1.385 . S
C1844 C1843 1.374 . S
C1845 C1842 1.499 . S
C1845 C1846 1.373 . S
C1845 C1847 1.389 . S
C1846 H1819 0.950 . S
C1846 C1832 1.377 . S
C1846 C1845 1.373 . S
C1847 C1831 1.377 . S
C1847 C1845 1.389 . S
C1847 C1848 1.524 . S
C1848 C1847 1.524 . S
C1848 C1849 1.397 . S
C1848 C1853 1.363 . S
C1849 H1820 0.950 . S
C1849 C1848 1.397 . S
C1849 C1850 1.334 . S
C1850 H1821 0.950 . S
C1850 C1849 1.334 . S
C1850 C1851 1.287 . S
C1851 C1850 1.287 . S
C1851 C1852 1.524 . S
C1851 H1854 0.999 . S
C1852 H1822 0.950 . S
C1852 C1851 1.524 . S
C1852 C1853 1.415 . S
C1853 H1823 0.950 . S
C1853 C1848 1.363 . S
C1853 C1852 1.415 . S
H1854 C1851 0.999 . S
H1855 C1836 0.913 . S
H1856 C1874 0.951 . S
H1857 C1876 0.951 . S
H1858 C1878 0.950 . S
H1859 C1879 0.950 . S
H1860 C1881 0.950 . S
H1861 C1884 0.950 . S
H1862 C1885 0.950 . S
H1863 C1887 0.950 . S
H1864 C1888 0.950 . S
H1865 C1889 0.951 . S
H1866 C1891 0.951 . S
H1867 C1893 0.950 . S
H1868 C1894 0.950 . S
H1869 C1896 0.950 . S
H1870 C1899 0.950 . S
H1871 C1900 0.950 . S
H1872 C1902 0.950 . S
H1873 C1903 0.950 . S
C1874 H1856 0.951 . S
C1874 C1875 1.366 . S
C1874 C1876 1.388 . S
C1875 C1874 1.366 . S
C1875 C1879 1.385 . S
C1876 H1857 0.951 . S
C1876 C1874 1.388 . S
C1876 C1877 1.366 . S
C1877 C1876 1.366 . S
C1877 C1878 1.414 . S
C1877 C1880 1.499 . S
C1878 H1858 0.950 . S
C1878 C1877 1.414 . S
C1878 C1879 1.374 . S
C1879 H1859 0.950 . S
C1879 C1875 1.385 . S
C1879 C1878 1.374 . S
C1880 C1877 1.499 . S
C1880 C1881 1.373 1_455 S
C1880 C1882 1.389 . S
C1881 H1860 0.950 . S
C1881 C1880 1.373 1_655 S
C1881 C1897 1.377 . S
C1882 C1880 1.389 . S
C1882 C1883 1.524 . S
C1882 C1896 1.377 . S
C1883 C1882 1.524 . S
C1883 C1884 1.397 . S
C1883 C1888 1.363 . S
C1884 H1861 0.950 . S
C1884 C1883 1.397 . S
C1884 C1885 1.334 . S
C1885 H1862 0.950 . S
C1885 C1884 1.334 . S
C1885 C1886 1.287 . S
C1886 C1885 1.287 . S
C1886 C1887 1.524 . S
C1886 H1905 0.913 . S
C1887 H1863 0.950 . S
C1887 C1886 1.524 . S
C1887 C1888 1.415 . S
C1888 H1864 0.950 . S
C1888 C1883 1.363 . S
C1888 C1887 1.415 . S
C1889 H1865 0.951 . S
C1889 C1890 1.366 . S
C1889 C1891 1.388 . S
C1890 C1889 1.366 . S
C1890 C1894 1.385 . S
C1891 H1866 0.951 . S
C1891 C1889 1.388 . S
C1891 C1892 1.366 . S
C1892 C1891 1.366 . S
C1892 C1893 1.414 . S
C1892 C1895 1.499 . S
C1893 H1867 0.950 . S
C1893 C1892 1.414 . S
C1893 C1894 1.374 . S
C1894 H1868 0.950 . S
C1894 C1890 1.385 . S
C1894 C1893 1.374 . S
C1895 C1892 1.499 . S
C1895 C1896 1.373 . S
C1895 C1897 1.389 1_455 S
C1896 H1869 0.950 . S
C1896 C1882 1.377 . S
C1896 C1895 1.373 . S
C1897 C1881 1.377 . S
C1897 C1895 1.389 1_655 S
C1897 C1898 1.524 . S
C1898 C1897 1.524 . S
C1898 C1899 1.397 . S
C1898 C1903 1.363 . S
C1899 H1870 0.950 . S
C1899 C1898 1.397 . S
C1899 C1900 1.334 . S
C1900 H1871 0.950 . S
C1900 C1899 1.334 . S
C1900 C1901 1.287 . S
C1901 C1900 1.287 . S
C1901 C1902 1.524 . S
C1901 H1904 0.999 . S
C1902 H1872 0.950 . S
C1902 C1901 1.524 . S
C1902 C1903 1.415 . S
C1903 H1873 0.950 . S
C1903 C1898 1.363 . S
C1903 C1902 1.415 . S
H1904 C1901 0.999 . S
H1905 C1886 0.913 . S
H1906 C1924 0.951 . S
H1907 C1926 0.951 . S
H1908 C1928 0.950 . S
H1909 C1929 0.950 . S
H1910 C1931 0.950 . S
H1911 C1934 0.950 . S
H1912 C1935 0.950 . S
H1913 C1937 0.950 . S
H1914 C1938 0.950 . S
H1915 C1939 0.951 . S
H1916 C1941 0.951 . S
H1917 C1943 0.950 . S
H1918 C1944 0.950 . S
H1919 C1946 0.950 . S
H1920 C1949 0.950 . S
H1921 C1950 0.950 . S
H1922 C1952 0.950 . S
H1923 C1953 0.950 . S
C1924 H1906 0.951 . S
C1924 C1925 1.366 . S
C1924 C1926 1.388 . S
C1925 C1924 1.366 . S
C1925 C1929 1.385 . S
C1926 H1907 0.951 . S
C1926 C1924 1.388 . S
C1926 C1927 1.366 . S
C1927 C1926 1.366 . S
C1927 C1928 1.414 . S
C1927 C1930 1.499 . S
C1928 H1908 0.950 . S
C1928 C1927 1.414 . S
C1928 C1929 1.374 . S
C1929 H1909 0.950 . S
C1929 C1925 1.385 . S
C1929 C1928 1.374 . S
C1930 C1927 1.499 . S
C1930 C1931 1.373 . S
C1930 C1932 1.389 . S
C1931 H1910 0.950 . S
C1931 C1930 1.373 . S
C1931 C1947 1.377 . S
C1932 C1930 1.389 . S
C1932 C1933 1.524 . S
C1932 C1946 1.377 . S
C1933 C1932 1.524 . S
C1933 C1934 1.397 . S
C1933 C1938 1.363 . S
C1934 H1911 0.950 . S
C1934 C1933 1.397 . S
C1934 C1935 1.334 . S
C1935 H1912 0.950 . S
C1935 C1934 1.334 . S
C1935 C1936 1.287 . S
C1936 C1935 1.287 . S
C1936 C1937 1.524 . S
C1936 H1955 0.913 . S
C1937 H1913 0.950 . S
C1937 C1936 1.524 . S
C1937 C1938 1.415 . S
C1938 H1914 0.950 . S
C1938 C1933 1.363 . S
C1938 C1937 1.415 . S
C1939 H1915 0.951 . S
C1939 C1940 1.366 . S
C1939 C1941 1.388 . S
C1940 C1939 1.366 . S
C1940 C1944 1.385 . S
C1941 H1916 0.951 . S
C1941 C1939 1.388 . S
C1941 C1942 1.366 . S
C1942 C1941 1.366 . S
C1942 C1943 1.414 . S
C1942 C1945 1.499 . S
C1943 H1917 0.950 . S
C1943 C1942 1.414 . S
C1943 C1944 1.374 . S
C1944 H1918 0.950 . S
C1944 C1940 1.385 . S
C1944 C1943 1.374 . S
C1945 C1942 1.499 . S
C1945 C1946 1.373 . S
C1945 C1947 1.389 . S
C1946 H1919 0.950 . S
C1946 C1932 1.377 . S
C1946 C1945 1.373 . S
C1947 C1931 1.377 . S
C1947 C1945 1.389 . S
C1947 C1948 1.524 . S
C1948 C1947 1.524 . S
C1948 C1949 1.397 . S
C1948 C1953 1.363 . S
C1949 H1920 0.950 . S
C1949 C1948 1.397 . S
C1949 C1950 1.334 . S
C1950 H1921 0.950 . S
C1950 C1949 1.334 . S
C1950 C1951 1.287 . S
C1951 C1950 1.287 . S
C1951 C1952 1.524 . S
C1951 H1954 0.999 . S
C1952 H1922 0.950 . S
C1952 C1951 1.524 . S
C1952 C1953 1.415 . S
C1953 H1923 0.950 . S
C1953 C1948 1.363 . S
C1953 C1952 1.415 . S
H1954 C1951 0.999 . S
H1955 C1936 0.913 . S
H1956 C1974 0.951 . S
H1957 C1976 0.951 . S
H1958 C1978 0.950 . S
H1959 C1979 0.950 . S
H1960 C1981 0.950 . S
H1961 C1984 0.950 . S
H1962 C1985 0.950 . S
H1963 C1987 0.950 . S
H1964 C1988 0.950 . S
H1965 C1989 0.951 . S
H1966 C1991 0.951 . S
H1967 C1993 0.950 . S
H1968 C1994 0.950 . S
H1969 C1996 0.950 . S
H1970 C1999 0.950 . S
H1971 C2000 0.950 . S
H1972 C2002 0.950 . S
H1973 C2003 0.950 . S
C1974 H1956 0.951 . S
C1974 C1975 1.366 . S
C1974 C1976 1.388 . S
C1975 C1974 1.366 . S
C1975 C1979 1.385 . S
C1976 H1957 0.951 . S
C1976 C1974 1.388 . S
C1976 C1977 1.366 . S
C1977 C1976 1.366 . S
C1977 C1978 1.414 . S
C1977 C1980 1.499 . S
C1978 H1958 0.950 . S
C1978 C1977 1.414 . S
C1978 C1979 1.374 . S
C1979 H1959 0.950 . S
C1979 C1975 1.385 . S
C1979 C1978 1.374 . S
C1980 C1977 1.499 . S
C1980 C1981 1.373 . S
C1980 C1982 1.389 . S
C1981 H1960 0.950 . S
C1981 C1980 1.373 . S
C1981 C1997 1.377 . S
C1982 C1980 1.389 . S
C1982 C1983 1.524 . S
C1982 C1996 1.377 . S
C1983 C1982 1.524 . S
C1983 C1984 1.397 . S
C1983 C1988 1.363 . S
C1984 H1961 0.950 . S
C1984 C1983 1.397 . S
C1984 C1985 1.334 . S
C1985 H1962 0.950 . S
C1985 C1984 1.334 . S
C1985 C1986 1.287 . S
C1986 C1985 1.287 . S
C1986 C1987 1.524 . S
C1986 H2005 0.913 . S
C1987 H1963 0.950 . S
C1987 C1986 1.524 . S
C1987 C1988 1.415 . S
C1988 H1964 0.950 . S
C1988 C1983 1.363 . S
C1988 C1987 1.415 . S
C1989 H1965 0.951 . S
C1989 C1990 1.366 . S
C1989 C1991 1.388 . S
C1990 C1989 1.366 . S
C1990 C1994 1.385 . S
C1991 H1966 0.951 . S
C1991 C1989 1.388 . S
C1991 C1992 1.366 . S
C1992 C1991 1.366 . S
C1992 C1993 1.414 . S
C1992 C1995 1.499 . S
C1993 H1967 0.950 . S
C1993 C1992 1.414 . S
C1993 C1994 1.374 . S
C1994 H1968 0.950 . S
C1994 C1990 1.385 . S
C1994 C1993 1.374 . S
C1995 C1992 1.499 . S
C1995 C1996 1.373 . S
C1995 C1997 1.389 . S
C1996 H1969 0.950 . S
C1996 C1982 1.377 . S
C1996 C1995 1.373 . S
C1997 C1981 1.377 . S
C1997 C1995 1.389 . S
C1997 C1998 1.524 . S
C1998 C1997 1.524 . S
C1998 C1999 1.397 . S
C1998 C2003 1.363 . S
C1999 H1970 0.950 . S
C1999 C1998 1.397 . S
C1999 C2000 1.334 . S
C2000 H1971 0.950 . S
C2000 C1999 1.334 . S
C2000 C2001 1.287 . S
C2001 C2000 1.287 . S
C2001 C2002 1.524 . S
C2001 H2004 0.999 . S
C2002 H1972 0.950 . S
C2002 C2001 1.524 . S
C2002 C2003 1.415 . S
C2003 H1973 0.950 . S
C2003 C1998 1.363 . S
C2003 C2002 1.415 . S
H2004 C2001 0.999 . S
H2005 C1986 0.913 . S
H2006 C2024 0.951 . S
H2007 C2026 0.951 . S
H2008 C2028 0.950 . S
H2009 C2029 0.950 . S
H2010 C2031 0.950 . S
H2011 C2034 0.950 . S
H2012 C2035 0.950 . S
H2013 C2037 0.950 . S
H2014 C2038 0.950 . S
H2015 C2039 0.951 . S
H2016 C2041 0.951 . S
H2017 C2043 0.950 . S
H2018 C2044 0.950 . S
H2019 C2046 0.950 . S
H2020 C2049 0.950 . S
H2021 C2050 0.950 . S
H2022 C2052 0.950 . S
H2023 C2053 0.950 . S
C2024 H2006 0.951 . S
C2024 C2025 1.366 . S
C2024 C2026 1.388 . S
C2025 C2024 1.366 . S
C2025 C2029 1.385 . S
C2026 H2007 0.951 . S
C2026 C2024 1.388 . S
C2026 C2027 1.366 . S
C2027 C2026 1.366 . S
C2027 C2028 1.414 . S
C2027 C2030 1.499 . S
C2028 H2008 0.950 . S
C2028 C2027 1.414 . S
C2028 C2029 1.374 . S
C2029 H2009 0.950 . S
C2029 C2025 1.385 . S
C2029 C2028 1.374 . S
C2030 C2027 1.499 . S
C2030 C2031 1.373 . S
C2030 C2032 1.389 . S
C2031 H2010 0.950 . S
C2031 C2030 1.373 . S
C2031 C2047 1.377 . S
C2032 C2030 1.389 . S
C2032 C2033 1.524 . S
C2032 C2046 1.377 . S
C2033 C2032 1.524 . S
C2033 C2034 1.397 . S
C2033 C2038 1.363 . S
C2034 H2011 0.950 . S
C2034 C2033 1.397 . S
C2034 C2035 1.334 . S
C2035 H2012 0.950 . S
C2035 C2034 1.334 . S
C2035 C2036 1.287 . S
C2036 C2035 1.287 . S
C2036 C2037 1.524 . S
C2036 H2055 0.913 . S
C2037 H2013 0.950 . S
C2037 C2036 1.524 . S
C2037 C2038 1.415 . S
C2038 H2014 0.950 . S
C2038 C2033 1.363 . S
C2038 C2037 1.415 . S
C2039 H2015 0.951 . S
C2039 C2040 1.366 . S
C2039 C2041 1.388 . S
C2040 C2039 1.366 . S
C2040 C2044 1.385 . S
C2041 H2016 0.951 . S
C2041 C2039 1.388 . S
C2041 C2042 1.366 . S
C2042 C2041 1.366 . S
C2042 C2043 1.414 . S
C2042 C2045 1.499 . S
C2043 H2017 0.950 . S
C2043 C2042 1.414 . S
C2043 C2044 1.374 . S
C2044 H2018 0.950 . S
C2044 C2040 1.385 . S
C2044 C2043 1.374 . S
C2045 C2042 1.499 . S
C2045 C2046 1.373 . S
C2045 C2047 1.389 . S
C2046 H2019 0.950 . S
C2046 C2032 1.377 . S
C2046 C2045 1.373 . S
C2047 C2031 1.377 . S
C2047 C2045 1.389 . S
C2047 C2048 1.524 . S
C2048 C2047 1.524 . S
C2048 C2049 1.397 . S
C2048 C2053 1.363 . S
C2049 H2020 0.950 . S
C2049 C2048 1.397 . S
C2049 C2050 1.334 . S
C2050 H2021 0.950 . S
C2050 C2049 1.334 . S
C2050 C2051 1.287 . S
C2051 C2050 1.287 . S
C2051 C2052 1.524 . S
C2051 H2054 0.999 . S
C2052 H2022 0.950 . S
C2052 C2051 1.524 . S
C2052 C2053 1.415 . S
C2053 H2023 0.950 . S
C2053 C2048 1.363 . S
C2053 C2052 1.415 . S
H2054 C2051 0.999 . S
H2055 C2036 0.913 . S
H2056 C2074 0.951 . S
H2057 C2076 0.951 . S
H2058 C2078 0.950 . S
H2059 C2079 0.950 . S
H2060 C2081 0.950 . S
H2061 C2084 0.950 . S
H2062 C2085 0.950 . S
H2063 C2087 0.950 . S
H2064 C2088 0.950 . S
H2065 C2089 0.951 . S
H2066 C2091 0.951 . S
H2067 C2093 0.950 . S
H2068 C2094 0.950 . S
H2069 C2096 0.950 . S
H2070 C2099 0.950 . S
H2071 C2100 0.950 . S
H2072 C2102 0.950 . S
H2073 C2103 0.950 . S
C2074 H2056 0.951 . S
C2074 C2075 1.366 . S
C2074 C2076 1.388 . S
C2075 C2074 1.366 . S
C2075 C2079 1.385 . S
C2076 H2057 0.951 . S
C2076 C2074 1.388 . S
C2076 C2077 1.366 . S
C2077 C2076 1.366 . S
C2077 C2078 1.414 . S
C2077 C2080 1.499 . S
C2078 H2058 0.950 . S
C2078 C2077 1.414 . S
C2078 C2079 1.374 . S
C2079 H2059 0.950 . S
C2079 C2075 1.385 . S
C2079 C2078 1.374 . S
C2080 C2077 1.499 . S
C2080 C2081 1.373 1_455 S
C2080 C2082 1.389 . S
C2081 H2060 0.950 . S
C2081 C2080 1.373 1_655 S
C2081 C2097 1.377 . S
C2082 C2080 1.389 . S
C2082 C2083 1.524 . S
C2082 C2096 1.377 . S
C2083 C2082 1.524 . S
C2083 C2084 1.397 . S
C2083 C2088 1.363 . S
C2084 H2061 0.950 . S
C2084 C2083 1.397 . S
C2084 C2085 1.334 . S
C2085 H2062 0.950 . S
C2085 C2084 1.334 . S
C2085 C2086 1.287 . S
C2086 C2085 1.287 . S
C2086 C2087 1.524 . S
C2086 H2105 0.913 . S
C2087 H2063 0.950 . S
C2087 C2086 1.524 . S
C2087 C2088 1.415 . S
C2088 H2064 0.950 . S
C2088 C2083 1.363 . S
C2088 C2087 1.415 . S
C2089 H2065 0.951 . S
C2089 C2090 1.366 . S
C2089 C2091 1.388 . S
C2090 C2089 1.366 . S
C2090 C2094 1.385 . S
C2091 H2066 0.951 . S
C2091 C2089 1.388 . S
C2091 C2092 1.366 . S
C2092 C2091 1.366 . S
C2092 C2093 1.414 . S
C2092 C2095 1.499 . S
C2093 H2067 0.950 . S
C2093 C2092 1.414 . S
C2093 C2094 1.374 . S
C2094 H2068 0.950 . S
C2094 C2090 1.385 . S
C2094 C2093 1.374 . S
C2095 C2092 1.499 . S
C2095 C2096 1.373 . S
C2095 C2097 1.389 1_455 S
C2096 H2069 0.950 . S
C2096 C2082 1.377 . S
C2096 C2095 1.373 . S
C2097 C2081 1.377 . S
C2097 C2095 1.389 1_655 S
C2097 C2098 1.524 . S
C2098 C2097 1.524 . S
C2098 C2099 1.397 . S
C2098 C2103 1.363 . S
C2099 H2070 0.950 . S
C2099 C2098 1.397 . S
C2099 C2100 1.334 . S
C2100 H2071 0.950 . S
C2100 C2099 1.334 . S
C2100 C2101 1.287 . S
C2101 C2100 1.287 . S
C2101 C2102 1.524 . S
C2101 H2104 0.999 . S
C2102 H2072 0.950 . S
C2102 C2101 1.524 . S
C2102 C2103 1.415 . S
C2103 H2073 0.950 . S
C2103 C2098 1.363 . S
C2103 C2102 1.415 . S
H2104 C2101 0.999 . S
H2105 C2086 0.913 . S
H2106 C2124 0.951 . S
H2107 C2126 0.951 . S
H2108 C2128 0.950 . S
H2109 C2129 0.950 . S
H2110 C2131 0.950 . S
H2111 C2134 0.950 . S
H2112 C2135 0.950 . S
H2113 C2137 0.950 . S
H2114 C2138 0.950 . S
H2115 C2139 0.951 . S
H2116 C2141 0.951 . S
H2117 C2143 0.950 . S
H2118 C2144 0.950 . S
H2119 C2146 0.950 . S
H2120 C2149 0.950 . S
H2121 C2150 0.950 . S
H2122 C2152 0.950 . S
H2123 C2153 0.950 . S
C2124 H2106 0.951 . S
C2124 C2125 1.366 . S
C2124 C2126 1.388 . S
C2125 C2124 1.366 . S
C2125 C2129 1.385 . S
C2126 H2107 0.951 . S
C2126 C2124 1.388 . S
C2126 C2127 1.366 . S
C2127 C2126 1.366 . S
C2127 C2128 1.414 . S
C2127 C2130 1.499 . S
C2128 H2108 0.950 . S
C2128 C2127 1.414 . S
C2128 C2129 1.374 . S
C2129 H2109 0.950 . S
C2129 C2125 1.385 . S
C2129 C2128 1.374 . S
C2130 C2127 1.499 . S
C2130 C2131 1.373 . S
C2130 C2132 1.389 . S
C2131 H2110 0.950 . S
C2131 C2130 1.373 . S
C2131 C2147 1.377 . S
C2132 C2130 1.389 . S
C2132 C2133 1.524 . S
C2132 C2146 1.377 . S
C2133 C2132 1.524 . S
C2133 C2134 1.397 . S
C2133 C2138 1.363 . S
C2134 H2111 0.950 . S
C2134 C2133 1.397 . S
C2134 C2135 1.334 . S
C2135 H2112 0.950 . S
C2135 C2134 1.334 . S
C2135 C2136 1.287 . S
C2136 C2135 1.287 . S
C2136 C2137 1.524 . S
C2136 H2155 0.913 . S
C2137 H2113 0.950 . S
C2137 C2136 1.524 . S
C2137 C2138 1.415 . S
C2138 H2114 0.950 . S
C2138 C2133 1.363 . S
C2138 C2137 1.415 . S
C2139 H2115 0.951 . S
C2139 C2140 1.366 . S
C2139 C2141 1.388 . S
C2140 C2139 1.366 . S
C2140 C2144 1.385 . S
C2141 H2116 0.951 . S
C2141 C2139 1.388 . S
C2141 C2142 1.366 . S
C2142 C2141 1.366 . S
C2142 C2143 1.414 . S
C2142 C2145 1.499 . S
C2143 H2117 0.950 . S
C2143 C2142 1.414 . S
C2143 C2144 1.374 . S
C2144 H2118 0.950 . S
C2144 C2140 1.385 . S
C2144 C2143 1.374 . S
C2145 C2142 1.499 . S
C2145 C2146 1.373 . S
C2145 C2147 1.389 . S
C2146 H2119 0.950 . S
C2146 C2132 1.377 . S
C2146 C2145 1.373 . S
C2147 C2131 1.377 . S
C2147 C2145 1.389 . S
C2147 C2148 1.524 . S
C2148 C2147 1.524 . S
C2148 C2149 1.397 . S
C2148 C2153 1.363 . S
C2149 H2120 0.950 . S
C2149 C2148 1.397 . S
C2149 C2150 1.334 . S
C2150 H2121 0.950 . S
C2150 C2149 1.334 . S
C2150 C2151 1.287 . S
C2151 C2150 1.287 . S
C2151 C2152 1.524 . S
C2151 H2154 0.999 . S
C2152 H2122 0.950 . S
C2152 C2151 1.524 . S
C2152 C2153 1.415 . S
C2153 H2123 0.950 . S
C2153 C2148 1.363 . S
C2153 C2152 1.415 . S
H2154 C2151 0.999 . S
H2155 C2136 0.913 . S
H2156 C2174 0.951 . S
H2157 C2176 0.951 . S
H2158 C2178 0.950 . S
H2159 C2179 0.950 . S
H2160 C2181 0.950 . S
H2161 C2184 0.950 . S
H2162 C2185 0.950 . S
H2163 C2187 0.950 . S
H2164 C2188 0.950 . S
H2165 C2189 0.951 . S
H2166 C2191 0.951 . S
H2167 C2193 0.950 . S
H2168 C2194 0.950 . S
H2169 C2196 0.950 . S
H2170 C2199 0.950 . S
H2171 C2200 0.950 . S
H2172 C2202 0.950 . S
H2173 C2203 0.950 . S
C2174 H2156 0.951 . S
C2174 C2175 1.366 . S
C2174 C2176 1.388 . S
C2175 C2174 1.366 . S
C2175 C2179 1.385 . S
C2176 H2157 0.951 . S
C2176 C2174 1.388 . S
C2176 C2177 1.366 . S
C2177 C2176 1.366 . S
C2177 C2178 1.414 . S
C2177 C2180 1.499 . S
C2178 H2158 0.950 . S
C2178 C2177 1.414 . S
C2178 C2179 1.374 . S
C2179 H2159 0.950 . S
C2179 C2175 1.385 . S
C2179 C2178 1.374 . S
C2180 C2177 1.499 . S
C2180 C2181 1.373 . S
C2180 C2182 1.389 . S
C2181 H2160 0.950 . S
C2181 C2180 1.373 . S
C2181 C2197 1.377 . S
C2182 C2180 1.389 . S
C2182 C2183 1.524 . S
C2182 C2196 1.377 . S
C2183 C2182 1.524 . S
C2183 C2184 1.397 . S
C2183 C2188 1.363 . S
C2184 H2161 0.950 . S
C2184 C2183 1.397 . S
C2184 C2185 1.334 . S
C2185 H2162 0.950 . S
C2185 C2184 1.334 . S
C2185 C2186 1.287 . S
C2186 C2185 1.287 . S
C2186 C2187 1.524 . S
C2186 H2205 0.913 . S
C2187 H2163 0.950 . S
C2187 C2186 1.524 . S
C2187 C2188 1.415 . S
C2188 H2164 0.950 . S
C2188 C2183 1.363 . S
C2188 C2187 1.415 . S
C2189 H2165 0.951 . S
C2189 C2190 1.366 1_554 S
C2189 C2191 1.388 1_554 S
C2190 C2189 1.366 1_556 S
C2190 C2194 1.385 . S
C2191 H2166 0.951 . S
C2191 C2189 1.388 1_556 S
C2191 C2192 1.366 . S
C2192 C2191 1.366 . S
C2192 C2193 1.414 . S
C2192 C2195 1.499 . S
C2193 H2167 0.950 . S
C2193 C2192 1.414 . S
C2193 C2194 1.374 . S
C2194 H2168 0.950 . S
C2194 C2190 1.385 . S
C2194 C2193 1.374 . S
C2195 C2192 1.499 . S
C2195 C2196 1.373 . S
C2195 C2197 1.389 . S
C2196 H2169 0.950 . S
C2196 C2182 1.377 . S
C2196 C2195 1.373 . S
C2197 C2181 1.377 . S
C2197 C2195 1.389 . S
C2197 C2198 1.524 . S
C2198 C2197 1.524 . S
C2198 C2199 1.397 . S
C2198 C2203 1.363 . S
C2199 H2170 0.950 . S
C2199 C2198 1.397 . S
C2199 C2200 1.334 . S
C2200 H2171 0.950 . S
C2200 C2199 1.334 . S
C2200 C2201 1.287 1_556 S
C2201 C2200 1.287 1_554 S
C2201 C2202 1.524 . S
C2201 H2204 0.999 . S
C2202 H2172 0.950 . S
C2202 C2201 1.524 . S
C2202 C2203 1.415 1_554 S
C2203 H2173 0.950 . S
C2203 C2198 1.363 . S
C2203 C2202 1.415 1_556 S
H2204 C2201 0.999 . S
H2205 C2186 0.913 . S
H2206 C2224 0.951 . S
H2207 C2226 0.951 . S
H2208 C2228 0.950 . S
H2209 C2229 0.950 . S
H2210 C2231 0.950 . S
H2211 C2234 0.950 . S
H2212 C2235 0.950 . S
H2213 C2237 0.950 . S
H2214 C2238 0.950 . S
H2215 C2239 0.951 . S
H2216 C2241 0.951 . S
H2217 C2243 0.950 . S
H2218 C2244 0.950 . S
H2219 C2246 0.950 . S
H2220 C2249 0.950 . S
H2221 C2250 0.950 . S
H2222 C2252 0.950 . S
H2223 C2253 0.950 . S
C2224 H2206 0.951 . S
C2224 C2225 1.366 . S
C2224 C2226 1.388 . S
C2225 C2224 1.366 . S
C2225 C2229 1.385 . S
C2226 H2207 0.951 . S
C2226 C2224 1.388 . S
C2226 C2227 1.366 . S
C2227 C2226 1.366 . S
C2227 C2228 1.414 . S
C2227 C2230 1.499 . S
C2228 H2208 0.950 . S
C2228 C2227 1.414 . S
C2228 C2229 1.374 . S
C2229 H2209 0.950 . S
C2229 C2225 1.385 . S
C2229 C2228 1.374 . S
C2230 C2227 1.499 . S
C2230 C2231 1.373 . S
C2230 C2232 1.389 . S
C2231 H2210 0.950 . S
C2231 C2230 1.373 . S
C2231 C2247 1.377 . S
C2232 C2230 1.389 . S
C2232 C2233 1.524 . S
C2232 C2246 1.377 . S
C2233 C2232 1.524 . S
C2233 C2234 1.397 . S
C2233 C2238 1.363 . S
C2234 H2211 0.950 . S
C2234 C2233 1.397 . S
C2234 C2235 1.334 . S
C2235 H2212 0.950 . S
C2235 C2234 1.334 . S
C2235 C2236 1.287 . S
C2236 C2235 1.287 . S
C2236 C2237 1.524 . S
C2236 H2255 0.913 . S
C2237 H2213 0.950 . S
C2237 C2236 1.524 . S
C2237 C2238 1.415 . S
C2238 H2214 0.950 . S
C2238 C2233 1.363 . S
C2238 C2237 1.415 . S
C2239 H2215 0.951 . S
C2239 C2240 1.366 . S
C2239 C2241 1.388 . S
C2240 C2239 1.366 . S
C2240 C2244 1.385 . S
C2241 H2216 0.951 . S
C2241 C2239 1.388 . S
C2241 C2242 1.366 . S
C2242 C2241 1.366 . S
C2242 C2243 1.414 . S
C2242 C2245 1.499 . S
C2243 H2217 0.950 . S
C2243 C2242 1.414 . S
C2243 C2244 1.374 . S
C2244 H2218 0.950 . S
C2244 C2240 1.385 . S
C2244 C2243 1.374 . S
C2245 C2242 1.499 . S
C2245 C2246 1.373 . S
C2245 C2247 1.389 . S
C2246 H2219 0.950 . S
C2246 C2232 1.377 . S
C2246 C2245 1.373 . S
C2247 C2231 1.377 . S
C2247 C2245 1.389 . S
C2247 C2248 1.524 . S
C2248 C2247 1.524 . S
C2248 C2249 1.397 . S
C2248 C2253 1.363 . S
C2249 H2220 0.950 . S
C2249 C2248 1.397 . S
C2249 C2250 1.334 . S
C2250 H2221 0.950 . S
C2250 C2249 1.334 . S
C2250 C2251 1.287 . S
C2251 C2250 1.287 . S
C2251 C2252 1.524 . S
C2251 H2254 0.999 . S
C2252 H2222 0.950 . S
C2252 C2251 1.524 . S
C2252 C2253 1.415 . S
C2253 H2223 0.950 . S
C2253 C2248 1.363 . S
C2253 C2252 1.415 . S
H2254 C2251 0.999 . S
H2255 C2236 0.913 . S
H2256 C2274 0.951 . S
H2257 C2276 0.951 . S
H2258 C2278 0.950 . S
H2259 C2279 0.950 . S
H2260 C2281 0.950 . S
H2261 C2284 0.950 . S
H2262 C2285 0.950 . S
H2263 C2287 0.928 1_655 S
H2264 C2288 0.959 . S
H2265 C2289 0.951 . S
H2266 C2291 0.951 . S
H2267 C2293 0.950 1_565 S
H2268 C2294 0.950 1_565 S
H2269 C2296 0.950 . S
H2270 C2299 0.950 . S
H2271 C2300 0.950 . S
H2272 C2302 0.949 1_545 S
H2273 C2303 0.950 . S
C2274 H2256 0.951 . S
C2274 C2275 1.366 1_565 S
C2274 C2276 1.388 . S
C2275 C2274 1.366 1_545 S
C2275 C2279 1.385 . S
C2276 H2257 0.951 . S
C2276 C2274 1.388 . S
C2276 C2277 1.366 1_565 S
C2277 C2276 1.366 1_545 S
C2277 C2278 1.414 . S
C2277 C2280 1.499 . S
C2278 H2258 0.950 . S
C2278 C2277 1.414 . S
C2278 C2279 1.374 . S
C2279 H2259 0.950 . S
C2279 C2275 1.385 . S
C2279 C2278 1.374 . S
C2280 C2277 1.499 . S
C2280 C2281 1.373 . S
C2280 C2282 1.389 . S
C2281 H2260 0.950 . S
C2281 C2280 1.373 . S
C2281 C2297 1.377 . S
C2282 C2280 1.389 . S
C2282 C2283 1.524 . S
C2282 C2296 1.377 . S
C2283 C2282 1.524 . S
C2283 C2284 1.397 . S
C2283 C2288 1.363 . S
C2284 H2261 0.950 . S
C2284 C2283 1.397 . S
C2284 C2285 1.334 . S
C2285 H2262 0.950 . S
C2285 C2284 1.334 . S
C2285 C2286 1.287 . S
C2286 C2285 1.287 . S
C2286 C2287 1.524 . S
C2286 H2305 0.913 . S
C2287 H2263 0.928 1_455 S
C2287 C2286 1.524 . S
C2287 C2288 1.415 . S
C2288 H2264 0.959 . S
C2288 C2283 1.363 . S
C2288 C2287 1.415 . S
C2289 H2265 0.951 . S
C2289 C2290 1.366 . S
C2289 C2291 1.388 . S
C2290 C2289 1.366 . S
C2290 C2294 1.385 . S
C2291 H2266 0.951 . S
C2291 C2289 1.388 . S
C2291 C2292 1.366 . S
C2292 C2291 1.366 . S
C2292 C2293 1.414 . S
C2292 C2295 1.499 . S
C2293 H2267 0.950 1_545 S
C2293 C2292 1.414 . S
C2293 C2294 1.374 . S
C2294 H2268 0.950 1_545 S
C2294 C2290 1.385 . S
C2294 C2293 1.374 . S
C2295 C2292 1.499 . S
C2295 C2296 1.373 . S
C2295 C2297 1.389 . S
C2296 H2269 0.950 . S
C2296 C2282 1.377 . S
C2296 C2295 1.373 . S
C2297 C2281 1.377 . S
C2297 C2295 1.389 . S
C2297 C2298 1.524 1_545 S
C2298 C2297 1.524 1_565 S
C2298 C2299 1.397 . S
C2298 C2303 1.363 1_565 S
C2299 H2270 0.950 . S
C2299 C2298 1.397 . S
C2299 C2300 1.334 . S
C2300 H2271 0.950 . S
C2300 C2299 1.334 . S
C2300 C2301 1.287 . S
C2301 C2300 1.287 . S
C2301 C2302 1.526 . S
C2301 H2304 0.999 . S
C2302 H2272 0.949 1_565 S
C2302 C2301 1.526 . S
C2302 C2303 1.413 1_565 S
C2303 H2273 0.950 . S
C2303 C2298 1.363 1_545 S
C2303 C2302 1.413 1_545 S
H2304 C2301 0.999 . S
H2305 C2286 0.913 . S
H2306 C2324 0.951 . S
H2307 C2326 0.951 . S
H2308 C2328 0.950 . S
H2309 C2329 0.950 . S
H2310 C2331 0.950 . S
H2311 C2334 0.950 . S
H2312 C2335 0.950 . S
H2313 C2337 0.950 . S
H2314 C2338 0.950 . S
H2315 C2339 0.951 . S
H2316 C2341 0.951 . S
H2317 C2343 0.950 . S
H2318 C2344 0.950 . S
H2319 C2346 0.950 . S
H2320 C2349 0.950 . S
H2321 C2350 0.950 . S
H2322 C2352 0.950 . S
H2323 C2353 0.950 . S
C2324 H2306 0.951 . S
C2324 C2325 1.366 . S
C2324 C2326 1.388 . S
C2325 C2324 1.366 . S
C2325 C2329 1.385 . S
C2326 H2307 0.951 . S
C2326 C2324 1.388 . S
C2326 C2327 1.366 . S
C2327 C2326 1.366 . S
C2327 C2328 1.414 . S
C2327 C2330 1.499 . S
C2328 H2308 0.950 . S
C2328 C2327 1.414 . S
C2328 C2329 1.374 . S
C2329 H2309 0.950 . S
C2329 C2325 1.385 . S
C2329 C2328 1.374 . S
C2330 C2327 1.499 . S
C2330 C2331 1.373 . S
C2330 C2332 1.389 . S
C2331 H2310 0.950 . S
C2331 C2330 1.373 . S
C2331 C2347 1.377 . S
C2332 C2330 1.389 . S
C2332 C2333 1.524 . S
C2332 C2346 1.377 . S
C2333 C2332 1.524 . S
C2333 C2334 1.397 . S
C2333 C2338 1.363 . S
C2334 H2311 0.950 . S
C2334 C2333 1.397 . S
C2334 C2335 1.334 . S
C2335 H2312 0.950 . S
C2335 C2334 1.334 . S
C2335 C2336 1.287 . S
C2336 C2335 1.287 . S
C2336 C2337 1.524 . S
C2336 H2355 0.913 . S
C2337 H2313 0.950 . S
C2337 C2336 1.524 . S
C2337 C2338 1.415 . S
C2338 H2314 0.950 . S
C2338 C2333 1.363 . S
C2338 C2337 1.415 . S
C2339 H2315 0.951 . S
C2339 C2340 1.366 . S
C2339 C2341 1.388 . S
C2340 C2339 1.366 . S
C2340 C2344 1.385 . S
C2341 H2316 0.951 . S
C2341 C2339 1.388 . S
C2341 C2342 1.366 . S
C2342 C2341 1.366 . S
C2342 C2343 1.414 . S
C2342 C2345 1.499 . S
C2343 H2317 0.950 . S
C2343 C2342 1.414 . S
C2343 C2344 1.374 . S
C2344 H2318 0.950 . S
C2344 C2340 1.385 . S
C2344 C2343 1.374 . S
C2345 C2342 1.499 . S
C2345 C2346 1.373 . S
C2345 C2347 1.389 . S
C2346 H2319 0.950 . S
C2346 C2332 1.377 . S
C2346 C2345 1.373 . S
C2347 C2331 1.377 . S
C2347 C2345 1.389 . S
C2347 C2348 1.524 . S
C2348 C2347 1.524 . S
C2348 C2349 1.397 . S
C2348 C2353 1.363 . S
C2349 H2320 0.950 . S
C2349 C2348 1.397 . S
C2349 C2350 1.334 . S
C2350 H2321 0.950 . S
C2350 C2349 1.334 . S
C2350 C2351 1.287 . S
C2351 C2350 1.287 . S
C2351 C2352 1.524 . S
C2351 H2354 0.999 . S
C2352 H2322 0.950 . S
C2352 C2351 1.524 . S
C2352 C2353 1.415 . S
C2353 H2323 0.950 . S
C2353 C2348 1.363 . S
C2353 C2352 1.415 . S
H2354 C2351 0.999 . S
H2355 C2336 0.913 . S
H2356 C2374 0.951 . S
H2357 C2376 0.951 . S
H2358 C2378 0.950 . S
H2359 C2379 0.950 . S
H2360 C2381 0.950 . S
H2361 C2384 0.956 1_565 S
H2362 C2385 0.950 . S
H2363 C2387 0.950 . S
H2364 C2388 0.950 . S
H2365 C2389 0.951 . S
H2366 C2391 0.951 . S
H2367 C2393 0.950 . S
H2368 C2394 0.950 . S
H2369 C2396 0.950 . S
H2370 C2399 0.950 . S
H2371 C2400 0.950 . S
H2372 C2402 0.950 . S
H2373 C2403 0.950 . S
C2374 H2356 0.951 . S
C2374 C2375 1.366 . S
C2374 C2376 1.388 . S
C2375 C2374 1.366 . S
C2375 C2379 1.385 . S
C2376 H2357 0.951 . S
C2376 C2374 1.388 . S
C2376 C2377 1.366 . S
C2377 C2376 1.366 . S
C2377 C2378 1.414 . S
C2377 C2380 1.499 . S
C2378 H2358 0.950 . S
C2378 C2377 1.414 . S
C2378 C2379 1.374 . S
C2379 H2359 0.950 . S
C2379 C2375 1.385 . S
C2379 C2378 1.374 . S
C2380 C2377 1.499 . S
C2380 C2381 1.373 . S
C2380 C2382 1.389 . S
C2381 H2360 0.950 . S
C2381 C2380 1.373 . S
C2381 C2397 1.377 . S
C2382 C2380 1.389 . S
C2382 C2383 1.524 . S
C2382 C2396 1.377 . S
C2383 C2382 1.524 . S
C2383 C2384 1.418 . S
C2383 C2388 1.363 . S
C2384 H2361 0.956 1_545 S
C2384 C2383 1.418 . S
C2384 C2385 1.312 1_545 S
C2385 H2362 0.950 . S
C2385 C2384 1.312 1_565 S
C2385 C2386 1.287 . S
C2386 C2385 1.287 . S
C2386 C2387 1.524 1_565 S
C2386 H2405 0.913 . S
C2387 H2363 0.950 . S
C2387 C2386 1.524 1_545 S
C2387 C2388 1.415 . S
C2388 H2364 0.950 . S
C2388 C2383 1.363 . S
C2388 C2387 1.415 . S
C2389 H2365 0.951 . S
C2389 C2390 1.366 . S
C2389 C2391 1.388 . S
C2390 C2389 1.366 . S
C2390 C2394 1.385 . S
C2391 H2366 0.951 . S
C2391 C2389 1.388 . S
C2391 C2392 1.366 . S
C2392 C2391 1.366 . S
C2392 C2393 1.414 . S
C2392 C2395 1.499 . S
C2393 H2367 0.950 . S
C2393 C2392 1.414 . S
C2393 C2394 1.374 . S
C2394 H2368 0.950 . S
C2394 C2390 1.385 . S
C2394 C2393 1.374 . S
C2395 C2392 1.499 . S
C2395 C2396 1.373 . S
C2395 C2397 1.389 . S
C2396 H2369 0.950 . S
C2396 C2382 1.377 . S
C2396 C2395 1.373 . S
C2397 C2381 1.377 . S
C2397 C2395 1.389 . S
C2397 C2398 1.524 . S
C2398 C2397 1.524 . S
C2398 C2399 1.397 . S
C2398 C2403 1.363 . S
C2399 H2370 0.950 . S
C2399 C2398 1.397 . S
C2399 C2400 1.334 . S
C2400 H2371 0.950 . S
C2400 C2399 1.334 . S
C2400 C2401 1.287 . S
C2401 C2400 1.287 . S
C2401 C2402 1.524 . S
C2401 H2404 0.999 . S
C2402 H2372 0.950 . S
C2402 C2401 1.524 . S
C2402 C2403 1.415 . S
C2403 H2373 0.950 . S
C2403 C2398 1.363 . S
C2403 C2402 1.415 . S
H2404 C2401 0.999 . S
H2405 C2386 0.913 . S
H2406 C2424 0.951 . S
H2407 C2426 0.951 . S
H2408 C2428 0.950 . S
H2409 C2429 0.950 . S
H2410 C2431 0.950 . S
H2411 C2434 0.950 . S
H2412 C2435 0.950 . S
H2413 C2437 0.950 . S
H2414 C2438 0.950 . S
H2415 C2439 0.951 . S
H2416 C2441 0.951 . S
H2417 C2443 0.950 . S
H2418 C2444 0.950 . S
H2419 C2446 0.950 . S
H2420 C2449 0.950 . S
H2421 C2450 0.950 . S
H2422 C2452 0.950 . S
H2423 C2453 0.950 . S
C2424 H2406 0.951 . S
C2424 C2425 1.366 . S
C2424 C2426 1.388 . S
C2425 C2424 1.366 . S
C2425 C2429 1.385 . S
C2426 H2407 0.951 . S
C2426 C2424 1.388 . S
C2426 C2427 1.366 . S
C2427 C2426 1.366 . S
C2427 C2428 1.414 . S
C2427 C2430 1.499 . S
C2428 H2408 0.950 . S
C2428 C2427 1.414 . S
C2428 C2429 1.374 . S
C2429 H2409 0.950 . S
C2429 C2425 1.385 . S
C2429 C2428 1.374 . S
C2430 C2427 1.499 . S
C2430 C2431 1.373 . S
C2430 C2432 1.389 . S
C2431 H2410 0.950 . S
C2431 C2430 1.373 . S
C2431 C2447 1.377 . S
C2432 C2430 1.389 . S
C2432 C2433 1.524 . S
C2432 C2446 1.377 . S
C2433 C2432 1.524 . S
C2433 C2434 1.397 . S
C2433 C2438 1.363 . S
C2434 H2411 0.950 . S
C2434 C2433 1.397 . S
C2434 C2435 1.334 . S
C2435 H2412 0.950 . S
C2435 C2434 1.334 . S
C2435 C2436 1.287 . S
C2436 C2435 1.287 . S
C2436 C2437 1.524 . S
C2436 H2455 0.913 . S
C2437 H2413 0.950 . S
C2437 C2436 1.524 . S
C2437 C2438 1.415 . S
C2438 H2414 0.950 . S
C2438 C2433 1.363 . S
C2438 C2437 1.415 . S
C2439 H2415 0.951 . S
C2439 C2440 1.366 . S
C2439 C2441 1.388 . S
C2440 C2439 1.366 . S
C2440 C2444 1.385 . S
C2441 H2416 0.951 . S
C2441 C2439 1.388 . S
C2441 C2442 1.366 . S
C2442 C2441 1.366 . S
C2442 C2443 1.414 . S
C2442 C2445 1.499 . S
C2443 H2417 0.950 . S
C2443 C2442 1.414 . S
C2443 C2444 1.374 . S
C2444 H2418 0.950 . S
C2444 C2440 1.385 . S
C2444 C2443 1.374 . S
C2445 C2442 1.499 . S
C2445 C2446 1.373 . S
C2445 C2447 1.389 . S
C2446 H2419 0.950 . S
C2446 C2432 1.377 . S
C2446 C2445 1.373 . S
C2447 C2431 1.377 . S
C2447 C2445 1.389 . S
C2447 C2448 1.524 . S
C2448 C2447 1.524 . S
C2448 C2449 1.397 . S
C2448 C2453 1.363 . S
C2449 H2420 0.950 . S
C2449 C2448 1.397 . S
C2449 C2450 1.334 . S
C2450 H2421 0.950 . S
C2450 C2449 1.334 . S
C2450 C2451 1.287 . S
C2451 C2450 1.287 . S
C2451 C2452 1.524 . S
C2451 H2454 0.999 . S
C2452 H2422 0.950 . S
C2452 C2451 1.524 . S
C2452 C2453 1.415 . S
C2453 H2423 0.950 . S
C2453 C2448 1.363 . S
C2453 C2452 1.415 . S
H2454 C2451 0.999 . S
H2455 C2436 0.913 . S
H2456 C2474 0.951 . S
H2457 C2476 0.951 . S
H2458 C2478 0.950 . S
H2459 C2479 0.953 . S
H2460 C2481 0.950 . S
H2461 C2484 0.950 . S
H2462 C2485 0.950 . S
H2463 C2487 0.950 . S
H2464 C2488 0.950 . S
H2465 C2489 0.951 . S
H2466 C2491 0.951 . S
H2467 C2493 0.950 . S
H2468 C2494 0.950 . S
H2469 C2496 0.950 . S
H2470 C2499 0.950 . S
H2471 C2500 0.950 . S
H2472 C2502 0.950 . S
H2473 C2503 0.950 . S
C2474 H2456 0.951 . S
C2474 C2475 1.366 . S
C2474 C2476 1.388 1_565 S
C2475 C2474 1.366 . S
C2475 C2479 1.398 . S
C2476 H2457 0.951 . S
C2476 C2474 1.388 1_545 S
C2476 C2477 1.366 . S
C2477 C2476 1.366 . S
C2477 C2478 1.414 . S
C2477 C2480 1.499 . S
C2478 H2458 0.950 . S
C2478 C2477 1.414 . S
C2478 C2479 1.360 1_545 S
C2479 H2459 0.953 . S
C2479 C2475 1.398 . S
C2479 C2478 1.360 1_565 S
C2480 C2477 1.499 . S
C2480 C2481 1.373 1_545 S
C2480 C2482 1.389 . S
C2481 H2460 0.950 . S
C2481 C2480 1.373 1_565 S
C2481 C2497 1.377 . S
C2482 C2480 1.389 . S
C2482 C2483 1.524 . S
C2482 C2496 1.377 . S
C2483 C2482 1.524 . S
C2483 C2484 1.397 . S
C2483 C2488 1.363 . S
C2484 H2461 0.950 . S
C2484 C2483 1.397 . S
C2484 C2485 1.334 . S
C2485 H2462 0.950 . S
C2485 C2484 1.334 . S
C2485 C2486 1.287 . S
C2486 C2485 1.287 . S
C2486 C2487 1.524 . S
C2486 H2505 0.913 . S
C2487 H2463 0.950 . S
C2487 C2486 1.524 . S
C2487 C2488 1.415 . S
C2488 H2464 0.950 . S
C2488 C2483 1.363 . S
C2488 C2487 1.415 . S
C2489 H2465 0.951 . S
C2489 C2490 1.366 . S
C2489 C2491 1.388 . S
C2490 C2489 1.366 . S
C2490 C2494 1.385 . S
C2491 H2466 0.951 . S
C2491 C2489 1.388 . S
C2491 C2492 1.366 . S
C2492 C2491 1.366 . S
C2492 C2493 1.414 . S
C2492 C2495 1.499 . S
C2493 H2467 0.950 . S
C2493 C2492 1.414 . S
C2493 C2494 1.374 . S
C2494 H2468 0.950 . S
C2494 C2490 1.385 . S
C2494 C2493 1.374 . S
C2495 C2492 1.499 . S
C2495 C2496 1.373 . S
C2495 C2497 1.389 1_545 S
C2496 H2469 0.950 . S
C2496 C2482 1.377 . S
C2496 C2495 1.373 . S
C2497 C2481 1.377 . S
C2497 C2495 1.389 1_565 S
C2497 C2498 1.524 . S
C2498 C2497 1.524 . S
C2498 C2499 1.397 . S
C2498 C2503 1.363 . S
C2499 H2470 0.950 . S
C2499 C2498 1.397 . S
C2499 C2500 1.334 . S
C2500 H2471 0.950 . S
C2500 C2499 1.334 . S
C2500 C2501 1.263 1_455 S
C2501 C2500 1.263 1_655 S
C2501 C2502 1.534 . S
C2501 H2504 1.019 . S
C2502 H2472 0.950 . S
C2502 C2501 1.534 . S
C2502 C2503 1.415 1_655 S
C2503 H2473 0.950 . S
C2503 C2498 1.363 . S
C2503 C2502 1.415 1_455 S
H2504 C2501 1.019 . S
H2505 C2486 0.913 . S
H2506 C2524 0.951 . S
H2507 C2526 0.951 . S
H2508 C2528 0.950 . S
H2509 C2529 0.950 . S
H2510 C2531 0.950 . S
H2511 C2534 0.950 . S
H2512 C2535 0.950 . S
H2513 C2537 0.950 . S
H2514 C2538 0.950 . S
H2515 C2539 0.951 . S
H2516 C2541 0.951 . S
H2517 C2543 0.950 . S
H2518 C2544 0.950 . S
H2519 C2546 0.950 . S
H2520 C2549 0.950 . S
H2521 C2550 0.950 . S
H2522 C2552 0.950 . S
H2523 C2553 0.950 . S
C2524 H2506 0.951 . S
C2524 C2525 1.366 . S
C2524 C2526 1.388 . S
C2525 C2524 1.366 . S
C2525 C2529 1.385 . S
C2526 H2507 0.951 . S
C2526 C2524 1.388 . S
C2526 C2527 1.366 . S
C2527 C2526 1.366 . S
C2527 C2528 1.414 . S
C2527 C2530 1.499 . S
C2528 H2508 0.950 . S
C2528 C2527 1.414 . S
C2528 C2529 1.374 . S
C2529 H2509 0.950 . S
C2529 C2525 1.385 . S
C2529 C2528 1.374 . S
C2530 C2527 1.499 . S
C2530 C2531 1.373 . S
C2530 C2532 1.389 . S
C2531 H2510 0.950 . S
C2531 C2530 1.373 . S
C2531 C2547 1.377 . S
C2532 C2530 1.389 . S
C2532 C2533 1.524 . S
C2532 C2546 1.377 . S
C2533 C2532 1.524 . S
C2533 C2534 1.397 . S
C2533 C2538 1.363 . S
C2534 H2511 0.950 . S
C2534 C2533 1.397 . S
C2534 C2535 1.334 . S
C2535 H2512 0.950 . S
C2535 C2534 1.334 . S
C2535 C2536 1.287 . S
C2536 C2535 1.287 . S
C2536 C2537 1.524 . S
C2536 H2555 0.913 . S
C2537 H2513 0.950 . S
C2537 C2536 1.524 . S
C2537 C2538 1.415 . S
C2538 H2514 0.950 . S
C2538 C2533 1.363 . S
C2538 C2537 1.415 . S
C2539 H2515 0.951 . S
C2539 C2540 1.366 . S
C2539 C2541 1.388 . S
C2540 C2539 1.366 . S
C2540 C2544 1.385 . S
C2541 H2516 0.951 . S
C2541 C2539 1.388 . S
C2541 C2542 1.366 . S
C2542 C2541 1.366 . S
C2542 C2543 1.414 . S
C2542 C2545 1.499 . S
C2543 H2517 0.950 . S
C2543 C2542 1.414 . S
C2543 C2544 1.374 . S
C2544 H2518 0.950 . S
C2544 C2540 1.385 . S
C2544 C2543 1.374 . S
C2545 C2542 1.499 . S
C2545 C2546 1.373 . S
C2545 C2547 1.389 . S
C2546 H2519 0.950 . S
C2546 C2532 1.377 . S
C2546 C2545 1.373 . S
C2547 C2531 1.377 . S
C2547 C2545 1.389 . S
C2547 C2548 1.524 . S
C2548 C2547 1.524 . S
C2548 C2549 1.397 . S
C2548 C2553 1.363 . S
C2549 H2520 0.950 . S
C2549 C2548 1.397 . S
C2549 C2550 1.334 . S
C2550 H2521 0.950 . S
C2550 C2549 1.334 . S
C2550 C2551 1.287 . S
C2551 C2550 1.287 . S
C2551 C2552 1.524 . S
C2551 H2554 0.999 . S
C2552 H2522 0.950 . S
C2552 C2551 1.524 . S
C2552 C2553 1.415 . S
C2553 H2523 0.950 . S
C2553 C2548 1.363 . S
C2553 C2552 1.415 . S
H2554 C2551 0.999 . S
H2555 C2536 0.913 . S
H2556 C2574 0.951 . S
H2557 C2576 0.951 . S
H2558 C2578 0.950 . S
H2559 C2579 0.950 . S
H2560 C2581 0.950 . S
H2561 C2584 0.979 . S
H2562 C2585 0.950 . S
H2563 C2587 0.950 . S
H2564 C2588 0.950 . S
H2565 C2589 0.951 . S
H2566 C2591 0.951 . S
H2567 C2593 0.950 . S
H2568 C2594 0.950 . S
H2569 C2596 0.950 . S
H2570 C2599 0.950 . S
H2571 C2600 0.950 . S
H2572 C2602 0.950 . S
H2573 C2603 0.950 . S
C2574 H2556 0.951 . S
C2574 C2575 1.366 . S
C2574 C2576 1.388 . S
C2575 C2574 1.366 . S
C2575 C2579 1.385 . S
C2576 H2557 0.951 . S
C2576 C2574 1.388 . S
C2576 C2577 1.366 . S
C2577 C2576 1.366 . S
C2577 C2578 1.414 . S
C2577 C2580 1.499 . S
C2578 H2558 0.950 . S
C2578 C2577 1.414 . S
C2578 C2579 1.374 . S
C2579 H2559 0.950 . S
C2579 C2575 1.385 . S
C2579 C2578 1.374 . S
C2580 C2577 1.499 . S
C2580 C2581 1.373 . S
C2580 C2582 1.389 . S
C2581 H2560 0.950 . S
C2581 C2580 1.373 . S
C2581 C2597 1.377 . S
C2582 C2580 1.389 . S
C2582 C2583 1.524 1_545 S
C2582 C2596 1.377 . S
C2583 C2582 1.524 1_565 S
C2583 C2584 1.399 1_565 S
C2583 C2588 1.363 . S
C2584 H2561 0.979 . S
C2584 C2583 1.399 1_545 S
C2584 C2585 1.304 1_545 S
C2585 H2562 0.950 . S
C2585 C2584 1.304 1_565 S
C2585 C2586 1.287 . S
C2586 C2585 1.287 . S
C2586 C2587 1.524 . S
C2586 H2605 0.913 . S
C2587 H2563 0.950 . S
C2587 C2586 1.524 . S
C2587 C2588 1.415 . S
C2588 H2564 0.950 . S
C2588 C2583 1.363 . S
C2588 C2587 1.415 . S
C2589 H2565 0.951 . S
C2589 C2590 1.366 . S
C2589 C2591 1.388 . S
C2590 C2589 1.366 . S
C2590 C2594 1.385 . S
C2591 H2566 0.951 . S
C2591 C2589 1.388 . S
C2591 C2592 1.366 . S
C2592 C2591 1.366 . S
C2592 C2593 1.414 . S
C2592 C2595 1.499 . S
C2593 H2567 0.950 . S
C2593 C2592 1.414 . S
C2593 C2594 1.374 . S
C2594 H2568 0.950 . S
C2594 C2590 1.385 . S
C2594 C2593 1.374 . S
C2595 C2592 1.499 . S
C2595 C2596 1.373 . S
C2595 C2597 1.389 . S
C2596 H2569 0.950 . S
C2596 C2582 1.377 . S
C2596 C2595 1.373 . S
C2597 C2581 1.377 . S
C2597 C2595 1.389 . S
C2597 C2598 1.524 . S
C2598 C2597 1.524 . S
C2598 C2599 1.397 . S
C2598 C2603 1.363 . S
C2599 H2570 0.950 . S
C2599 C2598 1.397 . S
C2599 C2600 1.334 . S
C2600 H2571 0.950 . S
C2600 C2599 1.334 . S
C2600 C2601 1.287 . S
C2601 C2600 1.287 . S
C2601 C2602 1.524 . S
C2601 H2604 0.999 . S
C2602 H2572 0.950 . S
C2602 C2601 1.524 . S
C2602 C2603 1.415 . S
C2603 H2573 0.950 . S
C2603 C2598 1.363 . S
C2603 C2602 1.415 . S
H2604 C2601 0.999 . S
H2605 C2586 0.913 . S
H2606 C2624 0.951 . S
H2607 C2626 0.951 . S
H2608 C2628 0.950 . S
H2609 C2629 0.950 . S
H2610 C2631 0.950 . S
H2611 C2634 0.950 . S
H2612 C2635 0.950 . S
H2613 C2637 0.950 . S
H2614 C2638 0.950 . S
H2615 C2639 0.951 . S
H2616 C2641 0.951 . S
H2617 C2643 0.950 . S
H2618 C2644 0.950 . S
H2619 C2646 0.950 . S
H2620 C2649 0.950 . S
H2621 C2650 0.950 . S
H2622 C2652 0.950 . S
H2623 C2653 0.950 . S
C2624 H2606 0.951 . S
C2624 C2625 1.366 . S
C2624 C2626 1.388 . S
C2625 C2624 1.366 . S
C2625 C2629 1.385 . S
C2626 H2607 0.951 . S
C2626 C2624 1.388 . S
C2626 C2627 1.366 . S
C2627 C2626 1.366 . S
C2627 C2628 1.414 . S
C2627 C2630 1.499 . S
C2628 H2608 0.950 . S
C2628 C2627 1.414 . S
C2628 C2629 1.374 . S
C2629 H2609 0.950 . S
C2629 C2625 1.385 . S
C2629 C2628 1.374 . S
C2630 C2627 1.499 . S
C2630 C2631 1.373 . S
C2630 C2632 1.389 . S
C2631 H2610 0.950 . S
C2631 C2630 1.373 . S
C2631 C2647 1.377 . S
C2632 C2630 1.389 . S
C2632 C2633 1.524 . S
C2632 C2646 1.377 . S
C2633 C2632 1.524 . S
C2633 C2634 1.397 . S
C2633 C2638 1.363 . S
C2634 H2611 0.950 . S
C2634 C2633 1.397 . S
C2634 C2635 1.334 . S
C2635 H2612 0.950 . S
C2635 C2634 1.334 . S
C2635 C2636 1.287 . S
C2636 C2635 1.287 . S
C2636 C2637 1.524 . S
C2636 H2655 0.913 . S
C2637 H2613 0.950 . S
C2637 C2636 1.524 . S
C2637 C2638 1.415 . S
C2638 H2614 0.950 . S
C2638 C2633 1.363 . S
C2638 C2637 1.415 . S
C2639 H2615 0.951 . S
C2639 C2640 1.366 . S
C2639 C2641 1.388 . S
C2640 C2639 1.366 . S
C2640 C2644 1.385 . S
C2641 H2616 0.951 . S
C2641 C2639 1.388 . S
C2641 C2642 1.366 . S
C2642 C2641 1.366 . S
C2642 C2643 1.414 . S
C2642 C2645 1.499 . S
C2643 H2617 0.950 . S
C2643 C2642 1.414 . S
C2643 C2644 1.374 . S
C2644 H2618 0.950 . S
C2644 C2640 1.385 . S
C2644 C2643 1.374 . S
C2645 C2642 1.499 . S
C2645 C2646 1.373 . S
C2645 C2647 1.389 . S
C2646 H2619 0.950 . S
C2646 C2632 1.377 . S
C2646 C2645 1.373 . S
C2647 C2631 1.377 . S
C2647 C2645 1.389 . S
C2647 C2648 1.524 . S
C2648 C2647 1.524 . S
C2648 C2649 1.397 . S
C2648 C2653 1.363 . S
C2649 H2620 0.950 . S
C2649 C2648 1.397 . S
C2649 C2650 1.334 . S
C2650 H2621 0.950 . S
C2650 C2649 1.334 . S
C2650 C2651 1.287 . S
C2651 C2650 1.287 . S
C2651 C2652 1.524 . S
C2651 H2654 0.999 . S
C2652 H2622 0.950 . S
C2652 C2651 1.524 . S
C2652 C2653 1.415 . S
C2653 H2623 0.950 . S
C2653 C2648 1.363 . S
C2653 C2652 1.415 . S
H2654 C2651 0.999 . S
H2655 C2636 0.913 . S
H2656 C2674 0.949 . S
H2657 C2676 0.950 . S
H2658 C2678 0.950 . S
H2659 C2679 0.950 . S
H2660 C2681 0.950 . S
H2661 C2684 0.950 . S
H2662 C2685 0.950 . S
H2663 C2687 0.950 . S
H2664 C2688 0.950 . S
H2665 C2689 0.951 . S
H2666 C2691 0.951 . S
H2667 C2693 0.955 . S
H2668 C2694 0.970 . S
H2669 C2696 0.950 . S
H2670 C2699 0.950 . S
H2671 C2700 0.950 . S
H2672 C2702 0.950 . S
H2673 C2703 0.950 . S
C2674 H2656 0.949 . S
C2674 C2675 1.367 1_556 S
C2674 C2676 1.388 . S
C2675 C2674 1.367 1_554 S
C2675 C2679 1.385 . S
C2676 H2657 0.950 . S
C2676 C2674 1.388 . S
C2676 C2677 1.366 1_556 S
C2677 C2676 1.366 1_554 S
C2677 C2678 1.414 . S
C2677 C2680 1.499 . S
C2678 H2658 0.950 . S
C2678 C2677 1.414 . S
C2678 C2679 1.374 . S
C2679 H2659 0.950 . S
C2679 C2675 1.385 . S
C2679 C2678 1.374 . S
C2680 C2677 1.499 . S
C2680 C2681 1.373 . S
C2680 C2682 1.389 1_554 S
C2681 H2660 0.950 . S
C2681 C2680 1.373 . S
C2681 C2697 1.377 . S
C2682 C2680 1.389 1_556 S
C2682 C2683 1.524 . S
C2682 C2696 1.377 . S
C2683 C2682 1.524 . S
C2683 C2684 1.397 . S
C2683 C2688 1.363 . S
C2684 H2661 0.950 . S
C2684 C2683 1.397 . S
C2684 C2685 1.334 . S
C2685 H2662 0.950 . S
C2685 C2684 1.334 . S
C2685 C2686 1.287 . S
C2686 C2685 1.287 . S
C2686 C2687 1.524 . S
C2686 H2705 0.913 . S
C2687 H2663 0.950 . S
C2687 C2686 1.524 . S
C2687 C2688 1.415 . S
C2688 H2664 0.950 . S
C2688 C2683 1.363 . S
C2688 C2687 1.415 . S
C2689 H2665 0.951 . S
C2689 C2690 1.366 . S
C2689 C2691 1.388 . S
C2690 C2689 1.366 . S
C2690 C2694 1.385 . S
C2691 H2666 0.951 . S
C2691 C2689 1.388 . S
C2691 C2692 1.366 . S
C2692 C2691 1.366 . S
C2692 C2693 1.414 . S
C2692 C2695 1.499 . S
C2693 H2667 0.955 . S
C2693 C2692 1.414 . S
C2693 C2694 1.374 . S
C2694 H2668 0.970 . S
C2694 C2690 1.385 . S
C2694 C2693 1.374 . S
C2695 C2692 1.499 . S
C2695 C2696 1.373 1_554 S
C2695 C2697 1.389 . S
C2696 H2669 0.950 . S
C2696 C2682 1.377 . S
C2696 C2695 1.373 1_556 S
C2697 C2681 1.377 . S
C2697 C2695 1.389 . S
C2697 C2698 1.524 . S
C2698 C2697 1.524 . S
C2698 C2699 1.397 . S
C2698 C2703 1.363 . S
C2699 H2670 0.950 . S
C2699 C2698 1.397 . S
C2699 C2700 1.334 . S
C2700 H2671 0.950 . S
C2700 C2699 1.334 . S
C2700 C2701 1.287 . S
C2701 C2700 1.287 . S
C2701 C2702 1.524 . S
C2701 H2704 0.999 . S
C2702 H2672 0.950 . S
C2702 C2701 1.524 . S
C2702 C2703 1.415 . S
C2703 H2673 0.950 . S
C2703 C2698 1.363 . S
C2703 C2702 1.415 . S
H2704 C2701 0.999 . S
H2705 C2686 0.913 . S
H2706 C2724 0.951 . S
H2707 C2726 0.951 . S
H2708 C2728 0.950 . S
H2709 C2729 0.950 . S
H2710 C2731 0.950 1_556 S
H2711 C2734 0.950 . S
H2712 C2735 0.950 . S
H2713 C2737 0.950 . S
H2714 C2738 0.950 . S
H2715 C2739 0.951 . S
H2716 C2741 0.951 . S
H2717 C2743 0.950 . S
H2718 C2744 0.950 . S
H2719 C2746 0.950 . S
H2720 C2749 0.950 . S
H2721 C2750 0.950 . S
H2722 C2752 0.950 . S
H2723 C2753 0.950 . S
C2724 H2706 0.951 . S
C2724 C2725 1.366 . S
C2724 C2726 1.388 . S
C2725 C2724 1.366 . S
C2725 C2729 1.385 . S
C2726 H2707 0.951 . S
C2726 C2724 1.388 . S
C2726 C2727 1.366 . S
C2727 C2726 1.366 . S
C2727 C2728 1.414 . S
C2727 C2730 1.499 . S
C2728 H2708 0.950 . S
C2728 C2727 1.414 . S
C2728 C2729 1.374 . S
C2729 H2709 0.950 . S
C2729 C2725 1.385 . S
C2729 C2728 1.374 . S
C2730 C2727 1.499 . S
C2730 C2731 1.373 . S
C2730 C2732 1.389 . S
C2731 H2710 0.950 1_554 S
C2731 C2730 1.373 . S
C2731 C2747 1.377 . S
C2732 C2730 1.389 . S
C2732 C2733 1.524 . S
C2732 C2746 1.377 . S
C2733 C2732 1.524 . S
C2733 C2734 1.397 . S
C2733 C2738 1.363 . S
C2734 H2711 0.950 . S
C2734 C2733 1.397 . S
C2734 C2735 1.334 . S
C2735 H2712 0.950 . S
C2735 C2734 1.334 . S
C2735 C2736 1.287 . S
C2736 C2735 1.287 . S
C2736 C2737 1.524 . S
C2736 H2755 0.913 . S
C2737 H2713 0.950 . S
C2737 C2736 1.524 . S
C2737 C2738 1.415 . S
C2738 H2714 0.950 . S
C2738 C2733 1.363 . S
C2738 C2737 1.415 . S
C2739 H2715 0.951 . S
C2739 C2740 1.366 . S
C2739 C2741 1.388 . S
C2740 C2739 1.366 . S
C2740 C2744 1.385 . S
C2741 H2716 0.951 . S
C2741 C2739 1.388 . S
C2741 C2742 1.366 . S
C2742 C2741 1.366 . S
C2742 C2743 1.414 . S
C2742 C2745 1.499 . S
C2743 H2717 0.950 . S
C2743 C2742 1.414 . S
C2743 C2744 1.374 . S
C2744 H2718 0.950 . S
C2744 C2740 1.385 . S
C2744 C2743 1.374 . S
C2745 C2742 1.499 . S
C2745 C2746 1.373 . S
C2745 C2747 1.389 . S
C2746 H2719 0.950 . S
C2746 C2732 1.377 . S
C2746 C2745 1.373 . S
C2747 C2731 1.377 . S
C2747 C2745 1.389 . S
C2747 C2748 1.524 1_554 S
C2748 C2747 1.524 1_556 S
C2748 C2749 1.397 . S
C2748 C2753 1.363 . S
C2749 H2720 0.950 . S
C2749 C2748 1.397 . S
C2749 C2750 1.334 . S
C2750 H2721 0.950 . S
C2750 C2749 1.334 . S
C2750 C2751 1.287 . S
C2751 C2750 1.287 . S
C2751 C2752 1.524 . S
C2751 H2754 0.999 . S
C2752 H2722 0.950 . S
C2752 C2751 1.524 . S
C2752 C2753 1.415 . S
C2753 H2723 0.950 . S
C2753 C2748 1.363 . S
C2753 C2752 1.415 . S
H2754 C2751 0.999 . S
H2755 C2736 0.913 . S
H2756 C2774 0.951 . S
H2757 C2776 0.951 . S
H2758 C2778 0.950 . S
H2759 C2779 0.950 . S
H2760 C2781 0.950 . S
H2761 C2784 0.950 . S
H2762 C2785 0.950 . S
H2763 C2787 0.950 . S
H2764 C2788 0.950 . S
H2765 C2789 0.951 . S
H2766 C2791 0.951 . S
H2767 C2793 0.950 . S
H2768 C2794 0.950 . S
H2769 C2796 0.950 . S
H2770 C2799 0.950 . S
H2771 C2800 0.950 . S
H2772 C2802 0.950 . S
H2773 C2803 0.950 . S
C2774 H2756 0.951 . S
C2774 C2775 1.366 . S
C2774 C2776 1.388 . S
C2775 C2774 1.366 . S
C2775 C2779 1.385 . S
C2776 H2757 0.951 . S
C2776 C2774 1.388 . S
C2776 C2777 1.366 . S
C2777 C2776 1.366 . S
C2777 C2778 1.414 . S
C2777 C2780 1.499 . S
C2778 H2758 0.950 . S
C2778 C2777 1.414 . S
C2778 C2779 1.374 . S
C2779 H2759 0.950 . S
C2779 C2775 1.385 . S
C2779 C2778 1.374 . S
C2780 C2777 1.499 . S
C2780 C2781 1.373 . S
C2780 C2782 1.389 . S
C2781 H2760 0.950 . S
C2781 C2780 1.373 . S
C2781 C2797 1.377 . S
C2782 C2780 1.389 . S
C2782 C2783 1.524 . S
C2782 C2796 1.377 . S
C2783 C2782 1.524 . S
C2783 C2784 1.397 . S
C2783 C2788 1.363 . S
C2784 H2761 0.950 . S
C2784 C2783 1.397 . S
C2784 C2785 1.334 . S
C2785 H2762 0.950 . S
C2785 C2784 1.334 . S
C2785 C2786 1.287 . S
C2786 C2785 1.287 . S
C2786 C2787 1.524 . S
C2786 H2805 0.913 . S
C2787 H2763 0.950 . S
C2787 C2786 1.524 . S
C2787 C2788 1.415 . S
C2788 H2764 0.950 . S
C2788 C2783 1.363 . S
C2788 C2787 1.415 . S
C2789 H2765 0.951 . S
C2789 C2790 1.366 . S
C2789 C2791 1.388 . S
C2790 C2789 1.366 . S
C2790 C2794 1.385 . S
C2791 H2766 0.951 . S
C2791 C2789 1.388 . S
C2791 C2792 1.366 . S
C2792 C2791 1.366 . S
C2792 C2793 1.414 . S
C2792 C2795 1.499 . S
C2793 H2767 0.950 . S
C2793 C2792 1.414 . S
C2793 C2794 1.374 . S
C2794 H2768 0.950 . S
C2794 C2790 1.385 . S
C2794 C2793 1.374 . S
C2795 C2792 1.499 . S
C2795 C2796 1.373 . S
C2795 C2797 1.389 . S
C2796 H2769 0.950 . S
C2796 C2782 1.377 . S
C2796 C2795 1.373 . S
C2797 C2781 1.377 . S
C2797 C2795 1.389 . S
C2797 C2798 1.524 . S
C2798 C2797 1.524 . S
C2798 C2799 1.397 . S
C2798 C2803 1.363 . S
C2799 H2770 0.950 . S
C2799 C2798 1.397 . S
C2799 C2800 1.334 . S
C2800 H2771 0.950 . S
C2800 C2799 1.334 . S
C2800 C2801 1.287 . S
C2801 C2800 1.287 . S
C2801 C2802 1.524 . S
C2801 H2804 0.999 . S
C2802 H2772 0.950 . S
C2802 C2801 1.524 . S
C2802 C2803 1.415 . S
C2803 H2773 0.950 . S
C2803 C2798 1.363 . S
C2803 C2802 1.415 . S
H2804 C2801 0.999 . S
H2805 C2786 0.913 . S
H2806 C2824 0.951 . S
H2807 C2826 0.951 . S
H2808 C2828 0.950 . S
H2809 C2829 0.950 . S
H2810 C2831 0.950 . S
H2811 C2834 0.950 . S
H2812 C2835 0.950 . S
H2813 C2837 0.950 . S
H2814 C2838 0.950 . S
H2815 C2839 0.951 . S
H2816 C2841 0.951 . S
H2817 C2843 0.950 . S
H2818 C2844 0.950 . S
H2819 C2846 0.950 . S
H2820 C2849 0.950 . S
H2821 C2850 0.950 . S
H2822 C2852 0.950 . S
H2823 C2853 0.950 . S
C2824 H2806 0.951 . S
C2824 C2825 1.366 . S
C2824 C2826 1.388 . S
C2825 C2824 1.366 . S
C2825 C2829 1.385 . S
C2826 H2807 0.951 . S
C2826 C2824 1.388 . S
C2826 C2827 1.366 . S
C2827 C2826 1.366 . S
C2827 C2828 1.414 . S
C2827 C2830 1.499 . S
C2828 H2808 0.950 . S
C2828 C2827 1.414 . S
C2828 C2829 1.374 . S
C2829 H2809 0.950 . S
C2829 C2825 1.385 . S
C2829 C2828 1.374 . S
C2830 C2827 1.499 . S
C2830 C2831 1.373 . S
C2830 C2832 1.389 . S
C2831 H2810 0.950 . S
C2831 C2830 1.373 . S
C2831 C2847 1.377 . S
C2832 C2830 1.389 . S
C2832 C2833 1.524 . S
C2832 C2846 1.377 . S
C2833 C2832 1.524 . S
C2833 C2834 1.397 . S
C2833 C2838 1.363 . S
C2834 H2811 0.950 . S
C2834 C2833 1.397 . S
C2834 C2835 1.334 . S
C2835 H2812 0.950 . S
C2835 C2834 1.334 . S
C2835 C2836 1.287 . S
C2836 C2835 1.287 . S
C2836 C2837 1.524 . S
C2836 H2855 0.913 . S
C2837 H2813 0.950 . S
C2837 C2836 1.524 . S
C2837 C2838 1.415 . S
C2838 H2814 0.950 . S
C2838 C2833 1.363 . S
C2838 C2837 1.415 . S
C2839 H2815 0.951 . S
C2839 C2840 1.366 . S
C2839 C2841 1.388 . S
C2840 C2839 1.366 . S
C2840 C2844 1.385 . S
C2841 H2816 0.951 . S
C2841 C2839 1.388 . S
C2841 C2842 1.366 . S
C2842 C2841 1.366 . S
C2842 C2843 1.414 . S
C2842 C2845 1.499 . S
C2843 H2817 0.950 . S
C2843 C2842 1.414 . S
C2843 C2844 1.374 . S
C2844 H2818 0.950 . S
C2844 C2840 1.385 . S
C2844 C2843 1.374 . S
C2845 C2842 1.499 . S
C2845 C2846 1.373 . S
C2845 C2847 1.389 . S
C2846 H2819 0.950 . S
C2846 C2832 1.377 . S
C2846 C2845 1.373 . S
C2847 C2831 1.377 . S
C2847 C2845 1.389 . S
C2847 C2848 1.524 . S
C2848 C2847 1.524 . S
C2848 C2849 1.397 . S
C2848 C2853 1.363 . S
C2849 H2820 0.950 . S
C2849 C2848 1.397 . S
C2849 C2850 1.334 . S
C2850 H2821 0.950 . S
C2850 C2849 1.334 . S
C2850 C2851 1.287 . S
C2851 C2850 1.287 . S
C2851 C2852 1.524 . S
C2851 H2854 0.999 . S
C2852 H2822 0.950 . S
C2852 C2851 1.524 . S
C2852 C2853 1.415 . S
C2853 H2823 0.950 . S
C2853 C2848 1.363 . S
C2853 C2852 1.415 . S
H2854 C2851 0.999 . S
H2855 C2836 0.913 . S
H2856 C2874 0.951 . S
H2857 C2876 0.951 . S
H2858 C2878 0.950 . S
H2859 C2879 0.950 . S
H2860 C2881 0.950 . S
H2861 C2884 0.950 . S
H2862 C2885 0.950 . S
H2863 C2887 0.950 . S
H2864 C2888 0.950 . S
H2865 C2889 0.951 . S
H2866 C2891 0.951 . S
H2867 C2893 0.950 . S
H2868 C2894 0.950 . S
H2869 C2896 0.950 . S
H2870 C2899 0.950 . S
H2871 C2900 0.950 . S
H2872 C2902 0.950 . S
H2873 C2903 0.950 . S
C2874 H2856 0.951 . S
C2874 C2875 1.366 . S
C2874 C2876 1.388 . S
C2875 C2874 1.366 . S
C2875 C2879 1.385 . S
C2876 H2857 0.951 . S
C2876 C2874 1.388 . S
C2876 C2877 1.366 . S
C2877 C2876 1.366 . S
C2877 C2878 1.414 . S
C2877 C2880 1.499 . S
C2878 H2858 0.950 . S
C2878 C2877 1.414 . S
C2878 C2879 1.374 . S
C2879 H2859 0.950 . S
C2879 C2875 1.385 . S
C2879 C2878 1.374 . S
C2880 C2877 1.499 . S
C2880 C2881 1.373 . S
C2880 C2882 1.389 . S
C2881 H2860 0.950 . S
C2881 C2880 1.373 . S
C2881 C2897 1.377 . S
C2882 C2880 1.389 . S
C2882 C2883 1.524 . S
C2882 C2896 1.377 . S
C2883 C2882 1.524 . S
C2883 C2884 1.397 . S
C2883 C2888 1.363 . S
C2884 H2861 0.950 . S
C2884 C2883 1.397 . S
C2884 C2885 1.334 . S
C2885 H2862 0.950 . S
C2885 C2884 1.334 . S
C2885 C2886 1.287 . S
C2886 C2885 1.287 . S
C2886 C2887 1.524 . S
C2886 H2905 0.913 . S
C2887 H2863 0.950 . S
C2887 C2886 1.524 . S
C2887 C2888 1.415 . S
C2888 H2864 0.950 . S
C2888 C2883 1.363 . S
C2888 C2887 1.415 . S
C2889 H2865 0.951 . S
C2889 C2890 1.366 . S
C2889 C2891 1.388 . S
C2890 C2889 1.366 . S
C2890 C2894 1.385 . S
C2891 H2866 0.951 . S
C2891 C2889 1.388 . S
C2891 C2892 1.366 . S
C2892 C2891 1.366 . S
C2892 C2893 1.414 . S
C2892 C2895 1.499 . S
C2893 H2867 0.950 . S
C2893 C2892 1.414 . S
C2893 C2894 1.374 . S
C2894 H2868 0.950 . S
C2894 C2890 1.385 . S
C2894 C2893 1.374 . S
C2895 C2892 1.499 . S
C2895 C2896 1.373 . S
C2895 C2897 1.389 . S
C2896 H2869 0.950 . S
C2896 C2882 1.377 . S
C2896 C2895 1.373 . S
C2897 C2881 1.377 . S
C2897 C2895 1.389 . S
C2897 C2898 1.524 . S
C2898 C2897 1.524 . S
C2898 C2899 1.397 . S
C2898 C2903 1.363 . S
C2899 H2870 0.950 . S
C2899 C2898 1.397 . S
C2899 C2900 1.334 . S
C2900 H2871 0.950 . S
C2900 C2899 1.334 . S
C2900 C2901 1.287 . S
C2901 C2900 1.287 . S
C2901 C2902 1.524 . S
C2901 H2904 0.999 . S
C2902 H2872 0.950 . S
C2902 C2901 1.524 . S
C2902 C2903 1.415 . S
C2903 H2873 0.950 . S
C2903 C2898 1.363 . S
C2903 C2902 1.415 . S
H2904 C2901 0.999 . S
H2905 C2886 0.913 . S
H2906 C2924 0.951 . S
H2907 C2926 0.951 . S
H2908 C2928 0.950 . S
H2909 C2929 0.950 . S
H2910 C2931 0.950 . S
H2911 C2934 0.950 . S
H2912 C2935 0.950 . S
H2913 C2937 0.950 . S
H2914 C2938 0.950 . S
H2915 C2939 0.951 . S
H2916 C2941 0.951 . S
H2917 C2943 0.950 . S
H2918 C2944 0.950 . S
H2919 C2946 0.950 . S
H2920 C2949 0.950 . S
H2921 C2950 0.950 . S
H2922 C2952 0.950 . S
H2923 C2953 0.942 1_565 S
C2924 H2906 0.951 . S
C2924 C2925 1.366 . S
C2924 C2926 1.388 . S
C2925 C2924 1.366 . S
C2925 C2929 1.385 . S
C2926 H2907 0.951 . S
C2926 C2924 1.388 . S
C2926 C2927 1.366 . S
C2927 C2926 1.366 . S
C2927 C2928 1.414 . S
C2927 C2930 1.499 . S
C2928 H2908 0.950 . S
C2928 C2927 1.414 . S
C2928 C2929 1.374 . S
C2929 H2909 0.950 . S
C2929 C2925 1.385 . S
C2929 C2928 1.374 . S
C2930 C2927 1.499 . S
C2930 C2931 1.373 . S
C2930 C2932 1.389 . S
C2931 H2910 0.950 . S
C2931 C2930 1.373 . S
C2931 C2947 1.377 . S
C2932 C2930 1.389 . S
C2932 C2933 1.524 . S
C2932 C2946 1.377 . S
C2933 C2932 1.524 . S
C2933 C2934 1.397 . S
C2933 C2938 1.363 . S
C2934 H2911 0.950 . S
C2934 C2933 1.397 . S
C2934 C2935 1.334 . S
C2935 H2912 0.950 . S
C2935 C2934 1.334 . S
C2935 C2936 1.287 . S
C2936 C2935 1.287 . S
C2936 C2937 1.524 . S
C2936 H2955 0.913 . S
C2937 H2913 0.950 . S
C2937 C2936 1.524 . S
C2937 C2938 1.415 . S
C2938 H2914 0.950 . S
C2938 C2933 1.363 . S
C2938 C2937 1.415 . S
C2939 H2915 0.951 . S
C2939 C2940 1.366 1_545 S
C2939 C2941 1.388 1_545 S
C2940 C2939 1.366 1_565 S
C2940 C2944 1.385 . S
C2941 H2916 0.951 . S
C2941 C2939 1.388 1_565 S
C2941 C2942 1.366 . S
C2942 C2941 1.366 . S
C2942 C2943 1.414 . S
C2942 C2945 1.499 . S
C2943 H2917 0.950 . S
C2943 C2942 1.414 . S
C2943 C2944 1.374 . S
C2944 H2918 0.950 . S
C2944 C2940 1.385 . S
C2944 C2943 1.374 . S
C2945 C2942 1.499 . S
C2945 C2946 1.373 . S
C2945 C2947 1.389 . S
C2946 H2919 0.950 . S
C2946 C2932 1.377 . S
C2946 C2945 1.373 . S
C2947 C2931 1.377 . S
C2947 C2945 1.389 . S
C2947 C2948 1.524 . S
C2948 C2947 1.524 . S
C2948 C2949 1.397 . S
C2948 C2953 1.340 1_565 S
C2949 H2920 0.950 . S
C2949 C2948 1.397 . S
C2949 C2950 1.334 1_565 S
C2950 H2921 0.950 . S
C2950 C2949 1.334 1_545 S
C2950 C2951 1.287 . S
C2951 C2950 1.287 . S
C2951 C2952 1.524 . S
C2951 H2954 0.999 . S
C2952 H2922 0.950 . S
C2952 C2951 1.524 . S
C2952 C2953 1.448 . S
C2953 H2923 0.942 1_545 S
C2953 C2948 1.340 1_545 S
C2953 C2952 1.448 . S
H2954 C2951 0.999 . S
H2955 C2936 0.913 . S
H2956 C2974 0.951 . S
H2957 C2976 0.951 . S
H2958 C2978 0.950 . S
H2959 C2979 0.950 . S
H2960 C2981 0.950 . S
H2961 C2984 0.950 . S
H2962 C2985 0.950 . S
H2963 C2987 0.950 . S
H2964 C2988 0.950 . S
H2965 C2989 0.951 . S
H2966 C2991 0.951 . S
H2967 C2993 0.950 . S
H2968 C2994 0.950 . S
H2969 C2996 0.950 . S
H2970 C2999 0.950 . S
H2971 C3000 0.950 . S
H2972 C3002 0.950 . S
H2973 C3003 0.950 . S
C2974 H2956 0.951 . S
C2974 C2975 1.366 . S
C2974 C2976 1.388 . S
C2975 C2974 1.366 . S
C2975 C2979 1.385 . S
C2976 H2957 0.951 . S
C2976 C2974 1.388 . S
C2976 C2977 1.366 . S
C2977 C2976 1.366 . S
C2977 C2978 1.414 . S
C2977 C2980 1.499 . S
C2978 H2958 0.950 . S
C2978 C2977 1.414 . S
C2978 C2979 1.374 . S
C2979 H2959 0.950 . S
C2979 C2975 1.385 . S
C2979 C2978 1.374 . S
C2980 C2977 1.499 . S
C2980 C2981 1.373 . S
C2980 C2982 1.389 . S
C2981 H2960 0.950 . S
C2981 C2980 1.373 . S
C2981 C2997 1.377 . S
C2982 C2980 1.389 . S
C2982 C2983 1.524 . S
C2982 C2996 1.377 . S
C2983 C2982 1.524 . S
C2983 C2984 1.397 . S
C2983 C2988 1.363 . S
C2984 H2961 0.950 . S
C2984 C2983 1.397 . S
C2984 C2985 1.334 . S
C2985 H2962 0.950 . S
C2985 C2984 1.334 . S
C2985 C2986 1.287 . S
C2986 C2985 1.287 . S
C2986 C2987 1.524 . S
C2986 H3005 0.913 . S
C2987 H2963 0.950 . S
C2987 C2986 1.524 . S
C2987 C2988 1.415 . S
C2988 H2964 0.950 . S
C2988 C2983 1.363 . S
C2988 C2987 1.415 . S
C2989 H2965 0.951 . S
C2989 C2990 1.366 . S
C2989 C2991 1.388 . S
C2990 C2989 1.366 . S
C2990 C2994 1.385 . S
C2991 H2966 0.951 . S
C2991 C2989 1.388 . S
C2991 C2992 1.366 . S
C2992 C2991 1.366 . S
C2992 C2993 1.414 . S
C2992 C2995 1.499 . S
C2993 H2967 0.950 . S
C2993 C2992 1.414 . S
C2993 C2994 1.374 . S
C2994 H2968 0.950 . S
C2994 C2990 1.385 . S
C2994 C2993 1.374 . S
C2995 C2992 1.499 . S
C2995 C2996 1.373 . S
C2995 C2997 1.389 . S
C2996 H2969 0.950 . S
C2996 C2982 1.377 . S
C2996 C2995 1.373 . S
C2997 C2981 1.377 . S
C2997 C2995 1.389 . S
C2997 C2998 1.524 . S
C2998 C2997 1.524 . S
C2998 C2999 1.397 . S
C2998 C3003 1.363 . S
C2999 H2970 0.950 . S
C2999 C2998 1.397 . S
C2999 C3000 1.334 . S
C3000 H2971 0.950 . S
C3000 C2999 1.334 . S
C3000 C3001 1.287 . S
C3001 C3000 1.287 . S
C3001 C3002 1.524 . S
C3001 H3004 0.999 . S
C3002 H2972 0.950 . S
C3002 C3001 1.524 . S
C3002 C3003 1.415 . S
C3003 H2973 0.950 . S
C3003 C2998 1.363 . S
C3003 C3002 1.415 . S
H3004 C3001 0.999 . S
H3005 C2986 0.913 . S
H3006 C3024 0.951 . S
H3007 C3026 0.951 . S
H3008 C3028 0.950 . S
H3009 C3029 0.950 . S
H3010 C3031 0.950 . S
H3011 C3034 0.950 . S
H3012 C3035 0.950 . S
H3013 C3037 0.950 . S
H3014 C3038 0.950 . S
H3015 C3039 0.951 . S
H3016 C3041 0.951 . S
H3017 C3043 0.950 . S
H3018 C3044 0.950 . S
H3019 C3046 0.950 . S
H3020 C3049 0.950 . S
H3021 C3050 0.950 . S
H3022 C3052 0.950 . S
H3023 C3053 0.950 . S
C3024 H3006 0.951 . S
C3024 C3025 1.366 . S
C3024 C3026 1.388 . S
C3025 C3024 1.366 . S
C3025 C3029 1.385 . S
C3026 H3007 0.951 . S
C3026 C3024 1.388 . S
C3026 C3027 1.366 . S
C3027 C3026 1.366 . S
C3027 C3028 1.414 . S
C3027 C3030 1.499 . S
C3028 H3008 0.950 . S
C3028 C3027 1.414 . S
C3028 C3029 1.374 . S
C3029 H3009 0.950 . S
C3029 C3025 1.385 . S
C3029 C3028 1.374 . S
C3030 C3027 1.499 . S
C3030 C3031 1.373 . S
C3030 C3032 1.389 . S
C3031 H3010 0.950 . S
C3031 C3030 1.373 . S
C3031 C3047 1.377 . S
C3032 C3030 1.389 . S
C3032 C3033 1.524 . S
C3032 C3046 1.377 . S
C3033 C3032 1.524 . S
C3033 C3034 1.397 . S
C3033 C3038 1.363 . S
C3034 H3011 0.950 . S
C3034 C3033 1.397 . S
C3034 C3035 1.334 . S
C3035 H3012 0.950 . S
C3035 C3034 1.334 . S
C3035 C3036 1.287 . S
C3036 C3035 1.287 . S
C3036 C3037 1.524 . S
C3036 H3055 0.913 . S
C3037 H3013 0.950 . S
C3037 C3036 1.524 . S
C3037 C3038 1.415 . S
C3038 H3014 0.950 . S
C3038 C3033 1.363 . S
C3038 C3037 1.415 . S
C3039 H3015 0.951 . S
C3039 C3040 1.366 . S
C3039 C3041 1.388 . S
C3040 C3039 1.366 . S
C3040 C3044 1.385 . S
C3041 H3016 0.951 . S
C3041 C3039 1.388 . S
C3041 C3042 1.366 . S
C3042 C3041 1.366 . S
C3042 C3043 1.414 . S
C3042 C3045 1.499 . S
C3043 H3017 0.950 . S
C3043 C3042 1.414 . S
C3043 C3044 1.374 . S
C3044 H3018 0.950 . S
C3044 C3040 1.385 . S
C3044 C3043 1.374 . S
C3045 C3042 1.499 . S
C3045 C3046 1.373 . S
C3045 C3047 1.389 . S
C3046 H3019 0.950 . S
C3046 C3032 1.377 . S
C3046 C3045 1.373 . S
C3047 C3031 1.377 . S
C3047 C3045 1.389 . S
C3047 C3048 1.524 . S
C3048 C3047 1.524 . S
C3048 C3049 1.397 . S
C3048 C3053 1.363 . S
C3049 H3020 0.950 . S
C3049 C3048 1.397 . S
C3049 C3050 1.334 . S
C3050 H3021 0.950 . S
C3050 C3049 1.334 . S
C3050 C3051 1.287 . S
C3051 C3050 1.287 . S
C3051 C3052 1.524 . S
C3051 H3054 0.999 . S
C3052 H3022 0.950 . S
C3052 C3051 1.524 . S
C3052 C3053 1.415 . S
C3053 H3023 0.950 . S
C3053 C3048 1.363 . S
C3053 C3052 1.415 . S
H3054 C3051 0.999 . S
H3055 C3036 0.913 . S
H3056 C3074 0.951 . S
H3057 C3076 0.951 . S
H3058 C3078 0.950 . S
H3059 C3079 0.950 . S
H3060 C3081 0.950 . S
H3061 C3084 0.950 . S
H3062 C3085 0.950 . S
H3063 C3087 0.950 . S
H3064 C3088 0.950 . S
H3065 C3089 0.951 . S
H3066 C3091 0.951 . S
H3067 C3093 0.950 . S
H3068 C3094 0.950 . S
H3069 C3096 0.950 . S
H3070 C3099 0.950 . S
H3071 C3100 0.950 . S
H3072 C3102 0.950 . S
H3073 C3103 0.950 . S
C3074 H3056 0.951 . S
C3074 C3075 1.366 . S
C3074 C3076 1.388 . S
C3075 C3074 1.366 . S
C3075 C3079 1.385 . S
C3076 H3057 0.951 . S
C3076 C3074 1.388 . S
C3076 C3077 1.366 . S
C3077 C3076 1.366 . S
C3077 C3078 1.414 . S
C3077 C3080 1.499 . S
C3078 H3058 0.950 . S
C3078 C3077 1.414 . S
C3078 C3079 1.374 . S
C3079 H3059 0.950 . S
C3079 C3075 1.385 . S
C3079 C3078 1.374 . S
C3080 C3077 1.499 . S
C3080 C3081 1.373 . S
C3080 C3082 1.389 . S
C3081 H3060 0.950 . S
C3081 C3080 1.373 . S
C3081 C3097 1.377 . S
C3082 C3080 1.389 . S
C3082 C3083 1.524 . S
C3082 C3096 1.377 . S
C3083 C3082 1.524 . S
C3083 C3084 1.397 . S
C3083 C3088 1.363 . S
C3084 H3061 0.950 . S
C3084 C3083 1.397 . S
C3084 C3085 1.334 . S
C3085 H3062 0.950 . S
C3085 C3084 1.334 . S
C3085 C3086 1.287 . S
C3086 C3085 1.287 . S
C3086 C3087 1.524 . S
C3086 H3105 0.913 . S
C3087 H3063 0.950 . S
C3087 C3086 1.524 . S
C3087 C3088 1.415 . S
C3088 H3064 0.950 . S
C3088 C3083 1.363 . S
C3088 C3087 1.415 . S
C3089 H3065 0.951 . S
C3089 C3090 1.366 . S
C3089 C3091 1.388 . S
C3090 C3089 1.366 . S
C3090 C3094 1.385 . S
C3091 H3066 0.951 . S
C3091 C3089 1.388 . S
C3091 C3092 1.366 . S
C3092 C3091 1.366 . S
C3092 C3093 1.414 . S
C3092 C3095 1.499 . S
C3093 H3067 0.950 . S
C3093 C3092 1.414 . S
C3093 C3094 1.374 . S
C3094 H3068 0.950 . S
C3094 C3090 1.385 . S
C3094 C3093 1.374 . S
C3095 C3092 1.499 . S
C3095 C3096 1.373 . S
C3095 C3097 1.389 . S
C3096 H3069 0.950 . S
C3096 C3082 1.377 . S
C3096 C3095 1.373 . S
C3097 C3081 1.377 . S
C3097 C3095 1.389 . S
C3097 C3098 1.524 . S
C3098 C3097 1.524 . S
C3098 C3099 1.397 . S
C3098 C3103 1.363 . S
C3099 H3070 0.950 . S
C3099 C3098 1.397 . S
C3099 C3100 1.334 . S
C3100 H3071 0.950 . S
C3100 C3099 1.334 . S
C3100 C3101 1.287 . S
C3101 C3100 1.287 . S
C3101 C3102 1.524 . S
C3101 H3104 0.999 . S
C3102 H3072 0.950 . S
C3102 C3101 1.524 . S
C3102 C3103 1.415 . S
C3103 H3073 0.950 . S
C3103 C3098 1.363 . S
C3103 C3102 1.415 . S
H3104 C3101 0.999 . S
H3105 C3086 0.913 . S
H3106 C3124 0.951 . S
H3107 C3126 0.951 . S
H3108 C3128 0.950 . S
H3109 C3129 0.950 . S
H3110 C3131 0.950 . S
H3111 C3134 0.950 . S
H3112 C3135 0.950 . S
H3113 C3137 0.950 . S
H3114 C3138 0.950 . S
H3115 C3139 0.951 . S
H3116 C3141 0.951 . S
H3117 C3143 0.950 . S
H3118 C3144 0.950 . S
H3119 C3146 0.950 . S
H3120 C3149 0.950 . S
H3121 C3150 0.950 . S
H3122 C3152 0.950 . S
H3123 C3153 0.950 . S
C3124 H3106 0.951 . S
C3124 C3125 1.366 . S
C3124 C3126 1.388 . S
C3125 C3124 1.366 . S
C3125 C3129 1.385 . S
C3126 H3107 0.951 . S
C3126 C3124 1.388 . S
C3126 C3127 1.366 . S
C3127 C3126 1.366 . S
C3127 C3128 1.414 . S
C3127 C3130 1.499 . S
C3128 H3108 0.950 . S
C3128 C3127 1.414 . S
C3128 C3129 1.374 . S
C3129 H3109 0.950 . S
C3129 C3125 1.385 . S
C3129 C3128 1.374 . S
C3130 C3127 1.499 . S
C3130 C3131 1.373 . S
C3130 C3132 1.389 . S
C3131 H3110 0.950 . S
C3131 C3130 1.373 . S
C3131 C3147 1.377 . S
C3132 C3130 1.389 . S
C3132 C3133 1.524 . S
C3132 C3146 1.377 . S
C3133 C3132 1.524 . S
C3133 C3134 1.397 . S
C3133 C3138 1.363 . S
C3134 H3111 0.950 . S
C3134 C3133 1.397 . S
C3134 C3135 1.334 . S
C3135 H3112 0.950 . S
C3135 C3134 1.334 . S
C3135 C3136 1.287 . S
C3136 C3135 1.287 . S
C3136 C3137 1.524 . S
C3136 H3155 0.913 . S
C3137 H3113 0.950 . S
C3137 C3136 1.524 . S
C3137 C3138 1.415 . S
C3138 H3114 0.950 . S
C3138 C3133 1.363 . S
C3138 C3137 1.415 . S
C3139 H3115 0.951 . S
C3139 C3140 1.366 . S
C3139 C3141 1.388 . S
C3140 C3139 1.366 . S
C3140 C3144 1.385 . S
C3141 H3116 0.951 . S
C3141 C3139 1.388 . S
C3141 C3142 1.366 . S
C3142 C3141 1.366 . S
C3142 C3143 1.414 . S
C3142 C3145 1.499 . S
C3143 H3117 0.950 . S
C3143 C3142 1.414 . S
C3143 C3144 1.374 . S
C3144 H3118 0.950 . S
C3144 C3140 1.385 . S
C3144 C3143 1.374 . S
C3145 C3142 1.499 . S
C3145 C3146 1.373 . S
C3145 C3147 1.389 . S
C3146 H3119 0.950 . S
C3146 C3132 1.377 . S
C3146 C3145 1.373 . S
C3147 C3131 1.377 . S
C3147 C3145 1.389 . S
C3147 C3148 1.524 . S
C3148 C3147 1.524 . S
C3148 C3149 1.397 . S
C3148 C3153 1.363 . S
C3149 H3120 0.950 . S
C3149 C3148 1.397 . S
C3149 C3150 1.334 . S
C3150 H3121 0.950 . S
C3150 C3149 1.334 . S
C3150 C3151 1.287 . S
C3151 C3150 1.287 . S
C3151 C3152 1.524 . S
C3151 H3154 0.999 . S
C3152 H3122 0.950 . S
C3152 C3151 1.524 . S
C3152 C3153 1.415 . S
C3153 H3123 0.950 . S
C3153 C3148 1.363 . S
C3153 C3152 1.415 . S
H3154 C3151 0.999 . S
H3155 C3136 0.913 . S
H3156 C3174 0.951 . S
H3157 C3176 0.951 . S
H3158 C3178 0.950 . S
H3159 C3179 0.950 . S
H3160 C3181 0.950 . S
H3161 C3184 0.950 1_455 S
H3162 C3185 0.950 . S
H3163 C3187 0.950 . S
H3164 C3188 0.950 . S
H3165 C3189 0.951 . S
H3166 C3191 0.951 . S
H3167 C3193 0.950 . S
H3168 C3194 0.950 . S
H3169 C3196 0.950 . S
H3170 C3199 0.950 . S
H3171 C3200 0.950 . S
H3172 C3202 0.950 . S
H3173 C3203 0.950 . S
C3174 H3156 0.951 . S
C3174 C3175 1.366 1_655 S
C3174 C3176 1.388 . S
C3175 C3174 1.366 1_455 S
C3175 C3179 1.385 . S
C3176 H3157 0.951 . S
C3176 C3174 1.388 . S
C3176 C3177 1.366 1_655 S
C3177 C3176 1.366 1_455 S
C3177 C3178 1.414 . S
C3177 C3180 1.499 . S
C3178 H3158 0.950 . S
C3178 C3177 1.414 . S
C3178 C3179 1.374 . S
C3179 H3159 0.950 . S
C3179 C3175 1.385 . S
C3179 C3178 1.374 . S
C3180 C3177 1.499 . S
C3180 C3181 1.373 . S
C3180 C3182 1.389 1_455 S
C3181 H3160 0.950 . S
C3181 C3180 1.373 . S
C3181 C3197 1.377 . S
C3182 C3180 1.389 1_655 S
C3182 C3183 1.524 . S
C3182 C3196 1.377 . S
C3183 C3182 1.524 . S
C3183 C3184 1.397 . S
C3183 C3188 1.363 . S
C3184 H3161 0.950 1_655 S
C3184 C3183 1.397 . S
C3184 C3185 1.334 . S
C3185 H3162 0.950 . S
C3185 C3184 1.334 . S
C3185 C3186 1.287 . S
C3186 C3185 1.287 . S
C3186 C3187 1.524 . S
C3186 H3205 0.913 . S
C3187 H3163 0.950 . S
C3187 C3186 1.524 . S
C3187 C3188 1.415 . S
C3188 H3164 0.950 . S
C3188 C3183 1.363 . S
C3188 C3187 1.415 . S
C3189 H3165 0.951 . S
C3189 C3190 1.366 . S
C3189 C3191 1.388 . S
C3190 C3189 1.366 . S
C3190 C3194 1.385 1_455 S
C3191 H3166 0.951 . S
C3191 C3189 1.388 . S
C3191 C3192 1.366 . S
C3192 C3191 1.366 . S
C3192 C3193 1.414 1_455 S
C3192 C3195 1.499 . S
C3193 H3167 0.950 . S
C3193 C3192 1.414 1_655 S
C3193 C3194 1.374 . S
C3194 H3168 0.950 . S
C3194 C3190 1.385 1_655 S
C3194 C3193 1.374 . S
C3195 C3192 1.499 . S
C3195 C3196 1.373 1_455 S
C3195 C3197 1.389 . S
C3196 H3169 0.950 . S
C3196 C3182 1.377 . S
C3196 C3195 1.373 1_655 S
C3197 C3181 1.377 . S
C3197 C3195 1.389 . S
C3197 C3198 1.524 . S
C3198 C3197 1.524 . S
C3198 C3199 1.397 1_556 S
C3198 C3203 1.363 . S
C3199 H3170 0.950 . S
C3199 C3198 1.397 1_554 S
C3199 C3200 1.334 . S
C3200 H3171 0.950 . S
C3200 C3199 1.334 . S
C3200 C3201 1.287 . S
C3201 C3200 1.287 . S
C3201 C3202 1.524 . S
C3201 H3204 0.999 . S
C3202 H3172 0.950 . S
C3202 C3201 1.524 . S
C3202 C3203 1.415 1_554 S
C3203 H3173 0.950 . S
C3203 C3198 1.363 . S
C3203 C3202 1.415 1_556 S
H3204 C3201 0.999 . S
H3205 C3186 0.913 . S
H3206 C3224 0.951 . S
H3207 C3226 0.951 . S
H3208 C3228 0.950 . S
H3209 C3229 0.950 . S
H3210 C3231 0.950 . S
H3211 C3234 0.950 . S
H3212 C3235 0.950 . S
H3213 C3237 0.950 . S
H3214 C3238 0.950 . S
H3215 C3239 0.951 . S
H3216 C3241 0.951 . S
H3217 C3243 0.950 . S
H3218 C3244 0.950 . S
H3219 C3246 0.950 . S
H3220 C3249 0.950 . S
H3221 C3250 0.950 . S
H3222 C3252 0.950 . S
H3223 C3253 0.950 . S
C3224 H3206 0.951 . S
C3224 C3225 1.366 . S
C3224 C3226 1.388 . S
C3225 C3224 1.366 . S
C3225 C3229 1.385 . S
C3226 H3207 0.951 . S
C3226 C3224 1.388 . S
C3226 C3227 1.366 . S
C3227 C3226 1.366 . S
C3227 C3228 1.414 . S
C3227 C3230 1.499 . S
C3228 H3208 0.950 . S
C3228 C3227 1.414 . S
C3228 C3229 1.374 . S
C3229 H3209 0.950 . S
C3229 C3225 1.385 . S
C3229 C3228 1.374 . S
C3230 C3227 1.499 . S
C3230 C3231 1.373 . S
C3230 C3232 1.389 . S
C3231 H3210 0.950 . S
C3231 C3230 1.373 . S
C3231 C3247 1.377 . S
C3232 C3230 1.389 . S
C3232 C3233 1.524 . S
C3232 C3246 1.377 . S
C3233 C3232 1.524 . S
C3233 C3234 1.397 . S
C3233 C3238 1.363 . S
C3234 H3211 0.950 . S
C3234 C3233 1.397 . S
C3234 C3235 1.334 . S
C3235 H3212 0.950 . S
C3235 C3234 1.334 . S
C3235 C3236 1.287 . S
C3236 C3235 1.287 . S
C3236 C3237 1.524 . S
C3236 H3255 0.913 . S
C3237 H3213 0.950 . S
C3237 C3236 1.524 . S
C3237 C3238 1.415 . S
C3238 H3214 0.950 . S
C3238 C3233 1.363 . S
C3238 C3237 1.415 . S
C3239 H3215 0.951 . S
C3239 C3240 1.366 . S
C3239 C3241 1.388 . S
C3240 C3239 1.366 . S
C3240 C3244 1.385 . S
C3241 H3216 0.951 . S
C3241 C3239 1.388 . S
C3241 C3242 1.366 . S
C3242 C3241 1.366 . S
C3242 C3243 1.414 . S
C3242 C3245 1.499 . S
C3243 H3217 0.950 . S
C3243 C3242 1.414 . S
C3243 C3244 1.374 . S
C3244 H3218 0.950 . S
C3244 C3240 1.385 . S
C3244 C3243 1.374 . S
C3245 C3242 1.499 . S
C3245 C3246 1.373 . S
C3245 C3247 1.389 . S
C3246 H3219 0.950 . S
C3246 C3232 1.377 . S
C3246 C3245 1.373 . S
C3247 C3231 1.377 . S
C3247 C3245 1.389 . S
C3247 C3248 1.524 . S
C3248 C3247 1.524 . S
C3248 C3249 1.397 . S
C3248 C3253 1.363 . S
C3249 H3220 0.950 . S
C3249 C3248 1.397 . S
C3249 C3250 1.334 . S
C3250 H3221 0.950 . S
C3250 C3249 1.334 . S
C3250 C3251 1.287 . S
C3251 C3250 1.287 . S
C3251 C3252 1.524 . S
C3251 H3254 0.999 . S
C3252 H3222 0.950 . S
C3252 C3251 1.524 . S
C3252 C3253 1.415 . S
C3253 H3223 0.950 . S
C3253 C3248 1.363 . S
C3253 C3252 1.415 . S
H3254 C3251 0.999 . S
H3255 C3236 0.913 . S
H3256 C3274 0.951 . S
H3257 C3276 0.951 . S
H3258 C3278 0.950 . S
H3259 C3279 0.950 . S
H3260 C3281 0.950 . S
H3261 C3284 0.950 . S
H3262 C3285 0.950 . S
H3263 C3287 0.950 . S
H3264 C3288 0.950 . S
H3265 C3289 0.951 . S
H3266 C3291 0.951 . S
H3267 C3293 0.950 . S
H3268 C3294 0.950 . S
H3269 C3296 0.950 . S
H3270 C3299 0.950 . S
H3271 C3300 0.950 . S
H3272 C3302 0.972 . S
H3273 C3303 0.950 . S
C3274 H3256 0.951 . S
C3274 C3275 1.366 . S
C3274 C3276 1.388 . S
C3275 C3274 1.366 . S
C3275 C3279 1.385 . S
C3276 H3257 0.951 . S
C3276 C3274 1.388 . S
C3276 C3277 1.366 . S
C3277 C3276 1.366 . S
C3277 C3278 1.414 . S
C3277 C3280 1.499 . S
C3278 H3258 0.950 . S
C3278 C3277 1.414 . S
C3278 C3279 1.374 . S
C3279 H3259 0.950 . S
C3279 C3275 1.385 . S
C3279 C3278 1.374 . S
C3280 C3277 1.499 . S
C3280 C3281 1.373 . S
C3280 C3282 1.389 . S
C3281 H3260 0.950 . S
C3281 C3280 1.373 . S
C3281 C3297 1.377 . S
C3282 C3280 1.389 . S
C3282 C3283 1.524 . S
C3282 C3296 1.377 . S
C3283 C3282 1.524 . S
C3283 C3284 1.397 . S
C3283 C3288 1.363 . S
C3284 H3261 0.950 . S
C3284 C3283 1.397 . S
C3284 C3285 1.334 . S
C3285 H3262 0.950 . S
C3285 C3284 1.334 . S
C3285 C3286 1.287 . S
C3286 C3285 1.287 . S
C3286 C3287 1.524 . S
C3286 H3305 0.913 . S
C3287 H3263 0.950 . S
C3287 C3286 1.524 . S
C3287 C3288 1.415 . S
C3288 H3264 0.950 . S
C3288 C3283 1.363 . S
C3288 C3287 1.415 . S
C3289 H3265 0.951 . S
C3289 C3290 1.366 . S
C3289 C3291 1.388 . S
C3290 C3289 1.366 . S
C3290 C3294 1.385 . S
C3291 H3266 0.951 . S
C3291 C3289 1.388 . S
C3291 C3292 1.366 . S
C3292 C3291 1.366 . S
C3292 C3293 1.414 . S
C3292 C3295 1.499 . S
C3293 H3267 0.950 . S
C3293 C3292 1.414 . S
C3293 C3294 1.374 . S
C3294 H3268 0.950 . S
C3294 C3290 1.385 . S
C3294 C3293 1.374 . S
C3295 C3292 1.499 . S
C3295 C3296 1.373 . S
C3295 C3297 1.389 . S
C3296 H3269 0.950 . S
C3296 C3282 1.377 . S
C3296 C3295 1.373 . S
C3297 C3281 1.377 . S
C3297 C3295 1.389 . S
C3297 C3298 1.524 . S
C3298 C3297 1.524 . S
C3298 C3299 1.397 . S
C3298 C3303 1.363 . S
C3299 H3270 0.950 . S
C3299 C3298 1.397 . S
C3299 C3300 1.334 . S
C3300 H3271 0.950 . S
C3300 C3299 1.334 . S
C3300 C3301 1.287 . S
C3301 C3300 1.287 . S
C3301 C3302 1.524 . S
C3301 H3304 0.999 1_554 S
C3302 H3272 0.972 . S
C3302 C3301 1.524 . S
C3302 C3303 1.415 . S
C3303 H3273 0.950 . S
C3303 C3298 1.363 . S
C3303 C3302 1.415 . S
H3304 C3301 0.999 1_556 S
H3305 C3286 0.913 . S
H3306 C3324 0.951 . S
H3307 C3326 0.951 . S
H3308 C3328 0.950 . S
H3309 C3329 0.950 . S
H3310 C3331 0.950 . S
H3311 C3334 0.950 . S
H3312 C3335 0.950 . S
H3313 C3337 0.950 . S
H3314 C3338 0.950 . S
H3315 C3339 0.951 . S
H3316 C3341 0.951 . S
H3317 C3343 0.950 . S
H3318 C3344 0.950 . S
H3319 C3346 0.950 . S
H3320 C3349 0.950 . S
H3321 C3350 0.950 . S
H3322 C3352 0.950 . S
H3323 C3353 0.950 . S
C3324 H3306 0.951 . S
C3324 C3325 1.366 . S
C3324 C3326 1.388 . S
C3325 C3324 1.366 . S
C3325 C3329 1.385 . S
C3326 H3307 0.951 . S
C3326 C3324 1.388 . S
C3326 C3327 1.366 . S
C3327 C3326 1.366 . S
C3327 C3328 1.414 . S
C3327 C3330 1.499 . S
C3328 H3308 0.950 . S
C3328 C3327 1.414 . S
C3328 C3329 1.374 . S
C3329 H3309 0.950 . S
C3329 C3325 1.385 . S
C3329 C3328 1.374 . S
C3330 C3327 1.499 . S
C3330 C3331 1.373 . S
C3330 C3332 1.389 . S
C3331 H3310 0.950 . S
C3331 C3330 1.373 . S
C3331 C3347 1.377 . S
C3332 C3330 1.389 . S
C3332 C3333 1.524 . S
C3332 C3346 1.377 . S
C3333 C3332 1.524 . S
C3333 C3334 1.397 . S
C3333 C3338 1.363 . S
C3334 H3311 0.950 . S
C3334 C3333 1.397 . S
C3334 C3335 1.334 . S
C3335 H3312 0.950 . S
C3335 C3334 1.334 . S
C3335 C3336 1.287 . S
C3336 C3335 1.287 . S
C3336 C3337 1.524 . S
C3336 H3355 0.913 . S
C3337 H3313 0.950 . S
C3337 C3336 1.524 . S
C3337 C3338 1.415 . S
C3338 H3314 0.950 . S
C3338 C3333 1.363 . S
C3338 C3337 1.415 . S
C3339 H3315 0.951 . S
C3339 C3340 1.366 . S
C3339 C3341 1.388 . S
C3340 C3339 1.366 . S
C3340 C3344 1.385 . S
C3341 H3316 0.951 . S
C3341 C3339 1.388 . S
C3341 C3342 1.366 . S
C3342 C3341 1.366 . S
C3342 C3343 1.414 . S
C3342 C3345 1.499 . S
C3343 H3317 0.950 . S
C3343 C3342 1.414 . S
C3343 C3344 1.374 . S
C3344 H3318 0.950 . S
C3344 C3340 1.385 . S
C3344 C3343 1.374 . S
C3345 C3342 1.499 . S
C3345 C3346 1.373 . S
C3345 C3347 1.389 . S
C3346 H3319 0.950 . S
C3346 C3332 1.377 . S
C3346 C3345 1.373 . S
C3347 C3331 1.377 . S
C3347 C3345 1.389 . S
C3347 C3348 1.524 . S
C3348 C3347 1.524 . S
C3348 C3349 1.397 . S
C3348 C3353 1.363 . S
C3349 H3320 0.950 . S
C3349 C3348 1.397 . S
C3349 C3350 1.334 . S
C3350 H3321 0.950 . S
C3350 C3349 1.334 . S
C3350 C3351 1.287 . S
C3351 C3350 1.287 . S
C3351 C3352 1.524 . S
C3351 H3354 0.999 . S
C3352 H3322 0.950 . S
C3352 C3351 1.524 . S
C3352 C3353 1.415 . S
C3353 H3323 0.950 . S
C3353 C3348 1.363 . S
C3353 C3352 1.415 . S
H3354 C3351 0.999 . S
H3355 C3336 0.913 . S
H3356 C3374 0.951 . S
H3357 C3376 0.951 . S
H3358 C3378 0.950 . S
H3359 C3379 0.950 . S
H3360 C3381 0.950 . S
H3361 C3384 0.950 . S
H3362 C3385 0.952 . S
H3363 C3387 0.950 . S
H3364 C3388 0.950 . S
H3365 C3389 0.951 . S
H3366 C3391 0.951 . S
H3367 C3393 0.950 . S
H3368 C3394 0.950 . S
H3369 C3396 0.950 . S
H3370 C3399 0.950 . S
H3371 C3400 0.950 . S
H3372 C3402 0.950 . S
H3373 C3403 0.950 . S
C3374 H3356 0.951 . S
C3374 C3375 1.366 . S
C3374 C3376 1.388 . S
C3375 C3374 1.366 . S
C3375 C3379 1.385 1_655 S
C3376 H3357 0.951 . S
C3376 C3374 1.388 . S
C3376 C3377 1.366 . S
C3377 C3376 1.366 . S
C3377 C3378 1.414 1_655 S
C3377 C3380 1.499 . S
C3378 H3358 0.950 . S
C3378 C3377 1.414 1_455 S
C3378 C3379 1.374 . S
C3379 H3359 0.950 . S
C3379 C3375 1.385 1_455 S
C3379 C3378 1.374 . S
C3380 C3377 1.499 . S
C3380 C3381 1.373 1_655 S
C3380 C3382 1.389 . S
C3381 H3360 0.950 . S
C3381 C3380 1.373 1_455 S
C3381 C3397 1.377 . S
C3382 C3380 1.389 . S
C3382 C3383 1.524 . S
C3382 C3396 1.377 . S
C3383 C3382 1.524 . S
C3383 C3384 1.397 1_655 S
C3383 C3388 1.363 . S
C3384 H3361 0.950 . S
C3384 C3383 1.397 1_455 S
C3384 C3385 1.335 . S
C3385 H3362 0.952 . S
C3385 C3384 1.335 . S
C3385 C3386 1.284 1_455 S
C3386 C3385 1.284 1_655 S
C3386 C3387 1.524 . S
C3386 H3405 0.913 . S
C3387 H3363 0.950 . S
C3387 C3386 1.524 . S
C3387 C3388 1.415 . S
C3388 H3364 0.950 . S
C3388 C3383 1.363 . S
C3388 C3387 1.415 . S
C3389 H3365 0.951 . S
C3389 C3390 1.366 1_455 S
C3389 C3391 1.388 . S
C3390 C3389 1.366 1_655 S
C3390 C3394 1.384 . S
C3391 H3366 0.951 . S
C3391 C3389 1.388 . S
C3391 C3392 1.366 1_455 S
C3392 C3391 1.366 1_655 S
C3392 C3393 1.414 . S
C3392 C3395 1.499 . S
C3393 H3367 0.950 . S
C3393 C3392 1.414 . S
C3393 C3394 1.374 . S
C3394 H3368 0.950 . S
C3394 C3390 1.384 . S
C3394 C3393 1.374 . S
C3395 C3392 1.499 . S
C3395 C3396 1.373 . S
C3395 C3397 1.389 1_655 S
C3396 H3369 0.950 . S
C3396 C3382 1.377 . S
C3396 C3395 1.373 . S
C3397 C3381 1.377 . S
C3397 C3395 1.389 1_455 S
C3397 C3398 1.524 . S
C3398 C3397 1.524 . S
C3398 C3399 1.397 1_455 S
C3398 C3403 1.363 . S
C3399 H3370 0.950 . S
C3399 C3398 1.397 1_655 S
C3399 C3400 1.334 . S
C3400 H3371 0.950 . S
C3400 C3399 1.334 . S
C3400 C3401 1.287 1_655 S
C3401 C3400 1.287 1_455 S
C3401 C3402 1.524 . S
C3401 H3404 0.999 . S
C3402 H3372 0.950 . S
C3402 C3401 1.524 . S
C3402 C3403 1.415 . S
C3403 H3373 0.950 . S
C3403 C3398 1.363 . S
C3403 C3402 1.415 . S
H3404 C3401 0.999 . S
H3405 C3386 0.913 . S
H3406 C3424 0.951 . S
H3407 C3426 0.951 . S
H3408 C3428 0.950 . S
H3409 C3429 0.950 . S
H3410 C3431 0.950 . S
H3411 C3434 0.950 . S
H3412 C3435 0.950 . S
H3413 C3437 0.950 . S
H3414 C3438 0.950 . S
H3415 C3439 0.951 . S
H3416 C3441 0.951 . S
H3417 C3443 0.950 . S
H3418 C3444 0.950 . S
H3419 C3446 0.950 . S
H3420 C3449 0.950 . S
H3421 C3450 0.950 . S
H3422 C3452 0.950 . S
H3423 C3453 0.950 . S
C3424 H3406 0.951 . S
C3424 C3425 1.366 . S
C3424 C3426 1.388 . S
C3425 C3424 1.366 . S
C3425 C3429 1.385 . S
C3426 H3407 0.951 . S
C3426 C3424 1.388 . S
C3426 C3427 1.366 . S
C3427 C3426 1.366 . S
C3427 C3428 1.414 . S
C3427 C3430 1.499 . S
C3428 H3408 0.950 . S
C3428 C3427 1.414 . S
C3428 C3429 1.374 . S
C3429 H3409 0.950 . S
C3429 C3425 1.385 . S
C3429 C3428 1.374 . S
C3430 C3427 1.499 . S
C3430 C3431 1.373 . S
C3430 C3432 1.389 . S
C3431 H3410 0.950 . S
C3431 C3430 1.373 . S
C3431 C3447 1.377 . S
C3432 C3430 1.389 . S
C3432 C3433 1.524 . S
C3432 C3446 1.377 . S
C3433 C3432 1.524 . S
C3433 C3434 1.397 . S
C3433 C3438 1.363 . S
C3434 H3411 0.950 . S
C3434 C3433 1.397 . S
C3434 C3435 1.334 . S
C3435 H3412 0.950 . S
C3435 C3434 1.334 . S
C3435 C3436 1.287 . S
C3436 C3435 1.287 . S
C3436 C3437 1.524 . S
C3436 H3455 0.913 . S
C3437 H3413 0.950 . S
C3437 C3436 1.524 . S
C3437 C3438 1.415 . S
C3438 H3414 0.950 . S
C3438 C3433 1.363 . S
C3438 C3437 1.415 . S
C3439 H3415 0.951 . S
C3439 C3440 1.366 . S
C3439 C3441 1.388 . S
C3440 C3439 1.366 . S
C3440 C3444 1.385 . S
C3441 H3416 0.951 . S
C3441 C3439 1.388 . S
C3441 C3442 1.366 . S
C3442 C3441 1.366 . S
C3442 C3443 1.414 . S
C3442 C3445 1.499 . S
C3443 H3417 0.950 . S
C3443 C3442 1.414 . S
C3443 C3444 1.374 . S
C3444 H3418 0.950 . S
C3444 C3440 1.385 . S
C3444 C3443 1.374 . S
C3445 C3442 1.499 . S
C3445 C3446 1.373 . S
C3445 C3447 1.389 . S
C3446 H3419 0.950 . S
C3446 C3432 1.377 . S
C3446 C3445 1.373 . S
C3447 C3431 1.377 . S
C3447 C3445 1.389 . S
C3447 C3448 1.524 . S
C3448 C3447 1.524 . S
C3448 C3449 1.397 . S
C3448 C3453 1.363 . S
C3449 H3420 0.950 . S
C3449 C3448 1.397 . S
C3449 C3450 1.334 . S
C3450 H3421 0.950 . S
C3450 C3449 1.334 . S
C3450 C3451 1.287 . S
C3451 C3450 1.287 . S
C3451 C3452 1.524 . S
C3451 H3454 0.999 . S
C3452 H3422 0.950 . S
C3452 C3451 1.524 . S
C3452 C3453 1.415 . S
C3453 H3423 0.950 . S
C3453 C3448 1.363 . S
C3453 C3452 1.415 . S
H3454 C3451 0.999 . S
H3455 C3436 0.913 . S
H3456 C3474 0.951 . S
H3457 C3476 0.951 . S
H3458 C3478 0.950 . S
H3459 C3479 0.950 . S
H3460 C3481 0.950 . S
H3461 C3484 0.950 . S
H3462 C3485 0.950 . S
H3463 C3487 0.950 . S
H3464 C3488 0.950 . S
H3465 C3489 0.951 . S
H3466 C3491 0.951 . S
H3467 C3493 0.950 . S
H3468 C3494 0.950 . S
H3469 C3496 0.950 . S
H3470 C3499 0.950 . S
H3471 C3500 0.950 . S
H3472 C3502 0.950 . S
H3473 C3503 0.950 . S
C3474 H3456 0.951 . S
C3474 C3475 1.366 . S
C3474 C3476 1.388 . S
C3475 C3474 1.366 . S
C3475 C3479 1.385 . S
C3476 H3457 0.951 . S
C3476 C3474 1.388 . S
C3476 C3477 1.366 . S
C3477 C3476 1.366 . S
C3477 C3478 1.414 . S
C3477 C3480 1.499 . S
C3478 H3458 0.950 . S
C3478 C3477 1.414 . S
C3478 C3479 1.374 . S
C3479 H3459 0.950 . S
C3479 C3475 1.385 . S
C3479 C3478 1.374 . S
C3480 C3477 1.499 . S
C3480 C3481 1.373 . S
C3480 C3482 1.389 . S
C3481 H3460 0.950 . S
C3481 C3480 1.373 . S
C3481 C3497 1.377 . S
C3482 C3480 1.389 . S
C3482 C3483 1.524 . S
C3482 C3496 1.377 . S
C3483 C3482 1.524 . S
C3483 C3484 1.397 . S
C3483 C3488 1.363 . S
C3484 H3461 0.950 . S
C3484 C3483 1.397 . S
C3484 C3485 1.334 . S
C3485 H3462 0.950 . S
C3485 C3484 1.334 . S
C3485 C3486 1.287 . S
C3486 C3485 1.287 . S
C3486 C3487 1.524 . S
C3486 H3505 0.913 . S
C3487 H3463 0.950 . S
C3487 C3486 1.524 . S
C3487 C3488 1.415 . S
C3488 H3464 0.950 . S
C3488 C3483 1.363 . S
C3488 C3487 1.415 . S
C3489 H3465 0.951 . S
C3489 C3490 1.366 . S
C3489 C3491 1.388 . S
C3490 C3489 1.366 . S
C3490 C3494 1.385 . S
C3491 H3466 0.951 . S
C3491 C3489 1.388 . S
C3491 C3492 1.366 . S
C3492 C3491 1.366 . S
C3492 C3493 1.414 . S
C3492 C3495 1.499 . S
C3493 H3467 0.950 . S
C3493 C3492 1.414 . S
C3493 C3494 1.374 . S
C3494 H3468 0.950 . S
C3494 C3490 1.385 . S
C3494 C3493 1.374 . S
C3495 C3492 1.499 . S
C3495 C3496 1.373 . S
C3495 C3497 1.389 . S
C3496 H3469 0.950 . S
C3496 C3482 1.377 . S
C3496 C3495 1.373 . S
C3497 C3481 1.377 . S
C3497 C3495 1.389 . S
C3497 C3498 1.524 . S
C3498 C3497 1.524 . S
C3498 C3499 1.397 . S
C3498 C3503 1.363 . S
C3499 H3470 0.950 . S
C3499 C3498 1.397 . S
C3499 C3500 1.334 . S
C3500 H3471 0.950 . S
C3500 C3499 1.334 . S
C3500 C3501 1.287 . S
C3501 C3500 1.287 . S
C3501 C3502 1.524 . S
C3501 H3504 0.999 . S
C3502 H3472 0.950 . S
C3502 C3501 1.524 . S
C3502 C3503 1.415 . S
C3503 H3473 0.950 . S
C3503 C3498 1.363 . S
C3503 C3502 1.415 . S
H3504 C3501 0.999 . S
H3505 C3486 0.913 . S
H3506 C3524 0.951 . S
H3507 C3526 0.951 . S
H3508 C3528 0.950 . S
H3509 C3529 0.950 . S
H3510 C3531 0.950 . S
H3511 C3534 0.950 . S
H3512 C3535 0.950 . S
H3513 C3537 0.950 . S
H3514 C3538 0.950 . S
H3515 C3539 0.951 . S
H3516 C3541 0.951 . S
H3517 C3543 0.950 . S
H3518 C3544 0.950 . S
H3519 C3546 0.950 . S
H3520 C3549 0.950 . S
H3521 C3550 0.950 . S
H3522 C3552 0.950 . S
H3523 C3553 0.950 . S
C3524 H3506 0.951 . S
C3524 C3525 1.366 . S
C3524 C3526 1.388 . S
C3525 C3524 1.366 . S
C3525 C3529 1.385 . S
C3526 H3507 0.951 . S
C3526 C3524 1.388 . S
C3526 C3527 1.366 . S
C3527 C3526 1.366 . S
C3527 C3528 1.414 . S
C3527 C3530 1.499 . S
C3528 H3508 0.950 . S
C3528 C3527 1.414 . S
C3528 C3529 1.374 . S
C3529 H3509 0.950 . S
C3529 C3525 1.385 . S
C3529 C3528 1.374 . S
C3530 C3527 1.499 . S
C3530 C3531 1.373 . S
C3530 C3532 1.389 . S
C3531 H3510 0.950 . S
C3531 C3530 1.373 . S
C3531 C3547 1.377 . S
C3532 C3530 1.389 . S
C3532 C3533 1.524 . S
C3532 C3546 1.377 . S
C3533 C3532 1.524 . S
C3533 C3534 1.397 . S
C3533 C3538 1.363 . S
C3534 H3511 0.950 . S
C3534 C3533 1.397 . S
C3534 C3535 1.334 . S
C3535 H3512 0.950 . S
C3535 C3534 1.334 . S
C3535 C3536 1.287 . S
C3536 C3535 1.287 . S
C3536 C3537 1.524 . S
C3536 H3555 0.913 . S
C3537 H3513 0.950 . S
C3537 C3536 1.524 . S
C3537 C3538 1.415 . S
C3538 H3514 0.950 . S
C3538 C3533 1.363 . S
C3538 C3537 1.415 . S
C3539 H3515 0.951 . S
C3539 C3540 1.366 . S
C3539 C3541 1.388 . S
C3540 C3539 1.366 . S
C3540 C3544 1.385 . S
C3541 H3516 0.951 . S
C3541 C3539 1.388 . S
C3541 C3542 1.366 . S
C3542 C3541 1.366 . S
C3542 C3543 1.414 . S
C3542 C3545 1.499 . S
C3543 H3517 0.950 . S
C3543 C3542 1.414 . S
C3543 C3544 1.374 . S
C3544 H3518 0.950 . S
C3544 C3540 1.385 . S
C3544 C3543 1.374 . S
C3545 C3542 1.499 . S
C3545 C3546 1.373 . S
C3545 C3547 1.389 . S
C3546 H3519 0.950 . S
C3546 C3532 1.377 . S
C3546 C3545 1.373 . S
C3547 C3531 1.377 . S
C3547 C3545 1.389 . S
C3547 C3548 1.524 . S
C3548 C3547 1.524 . S
C3548 C3549 1.397 . S
C3548 C3553 1.363 . S
C3549 H3520 0.950 . S
C3549 C3548 1.397 . S
C3549 C3550 1.334 . S
C3550 H3521 0.950 . S
C3550 C3549 1.334 . S
C3550 C3551 1.287 . S
C3551 C3550 1.287 . S
C3551 C3552 1.524 . S
C3551 H3554 0.999 . S
C3552 H3522 0.950 . S
C3552 C3551 1.524 . S
C3552 C3553 1.415 . S
C3553 H3523 0.950 . S
C3553 C3548 1.363 . S
C3553 C3552 1.415 . S
H3554 C3551 0.999 . S
H3555 C3536 0.913 . S
H3556 C3574 0.951 . S
H3557 C3576 0.951 . S
H3558 C3578 0.950 . S
H3559 C3579 0.950 . S
H3560 C3581 0.950 . S
H3561 C3584 0.950 . S
H3562 C3585 0.950 . S
H3563 C3587 0.950 . S
H3564 C3588 0.950 . S
H3565 C3589 0.951 1_655 S
H3566 C3591 0.951 . S
H3567 C3593 0.950 . S
H3568 C3594 0.950 . S
H3569 C3596 0.950 . S
H3570 C3599 0.950 . S
H3571 C3600 0.950 . S
H3572 C3602 0.950 . S
H3573 C3603 0.950 . S
C3574 H3556 0.951 . S
C3574 C3575 1.366 . S
C3574 C3576 1.388 . S
C3575 C3574 1.366 . S
C3575 C3579 1.385 . S
C3576 H3557 0.951 . S
C3576 C3574 1.388 . S
C3576 C3577 1.366 . S
C3577 C3576 1.366 . S
C3577 C3578 1.414 . S
C3577 C3580 1.499 . S
C3578 H3558 0.950 . S
C3578 C3577 1.414 . S
C3578 C3579 1.374 . S
C3579 H3559 0.950 . S
C3579 C3575 1.385 . S
C3579 C3578 1.374 . S
C3580 C3577 1.499 . S
C3580 C3581 1.373 . S
C3580 C3582 1.389 . S
C3581 H3560 0.950 . S
C3581 C3580 1.373 . S
C3581 C3597 1.377 . S
C3582 C3580 1.389 . S
C3582 C3583 1.524 . S
C3582 C3596 1.377 . S
C3583 C3582 1.524 . S
C3583 C3584 1.397 . S
C3583 C3588 1.363 . S
C3584 H3561 0.950 . S
C3584 C3583 1.397 . S
C3584 C3585 1.334 . S
C3585 H3562 0.950 . S
C3585 C3584 1.334 . S
C3585 C3586 1.287 . S
C3586 C3585 1.287 . S
C3586 C3587 1.524 . S
C3586 H3605 0.913 . S
C3587 H3563 0.950 . S
C3587 C3586 1.524 . S
C3587 C3588 1.415 . S
C3588 H3564 0.950 . S
C3588 C3583 1.363 . S
C3588 C3587 1.415 . S
C3589 H3565 0.951 1_455 S
C3589 C3590 1.366 . S
C3589 C3591 1.388 . S
C3590 C3589 1.366 . S
C3590 C3594 1.385 . S
C3591 H3566 0.951 . S
C3591 C3589 1.388 . S
C3591 C3592 1.366 . S
C3592 C3591 1.366 . S
C3592 C3593 1.414 . S
C3592 C3595 1.499 . S
C3593 H3567 0.950 . S
C3593 C3592 1.414 . S
C3593 C3594 1.374 . S
C3594 H3568 0.950 . S
C3594 C3590 1.385 . S
C3594 C3593 1.374 . S
C3595 C3592 1.499 . S
C3595 C3596 1.373 . S
C3595 C3597 1.389 . S
C3596 H3569 0.950 . S
C3596 C3582 1.377 . S
C3596 C3595 1.373 . S
C3597 C3581 1.377 . S
C3597 C3595 1.389 . S
C3597 C3598 1.524 . S
C3598 C3597 1.524 . S
C3598 C3599 1.397 . S
C3598 C3603 1.363 . S
C3599 H3570 0.950 . S
C3599 C3598 1.397 . S
C3599 C3600 1.334 . S
C3600 H3571 0.950 . S
C3600 C3599 1.334 . S
C3600 C3601 1.287 1_455 S
C3601 C3600 1.287 1_655 S
C3601 C3602 1.524 . S
C3601 H3604 0.999 . S
C3602 H3572 0.950 . S
C3602 C3601 1.524 . S
C3602 C3603 1.415 1_655 S
C3603 H3573 0.950 . S
C3603 C3598 1.363 . S
C3603 C3602 1.415 1_455 S
H3604 C3601 0.999 . S
H3605 C3586 0.913 . S
H3606 C3624 0.951 . S
H3607 C3626 0.951 . S
H3608 C3628 0.950 . S
H3609 C3629 0.950 . S
H3610 C3631 0.950 . S
H3611 C3634 0.950 . S
H3612 C3635 0.950 . S
H3613 C3637 0.950 . S
H3614 C3638 0.950 . S
H3615 C3639 0.951 . S
H3616 C3641 0.951 . S
H3617 C3643 0.950 . S
H3618 C3644 0.950 . S
H3619 C3646 0.950 . S
H3620 C3649 0.950 . S
H3621 C3650 0.950 . S
H3622 C3652 0.950 . S
H3623 C3653 0.950 . S
C3624 H3606 0.951 . S
C3624 C3625 1.366 . S
C3624 C3626 1.388 . S
C3625 C3624 1.366 . S
C3625 C3629 1.385 . S
C3626 H3607 0.951 . S
C3626 C3624 1.388 . S
C3626 C3627 1.366 . S
C3627 C3626 1.366 . S
C3627 C3628 1.414 . S
C3627 C3630 1.499 . S
C3628 H3608 0.950 . S
C3628 C3627 1.414 . S
C3628 C3629 1.374 . S
C3629 H3609 0.950 . S
C3629 C3625 1.385 . S
C3629 C3628 1.374 . S
C3630 C3627 1.499 . S
C3630 C3631 1.373 . S
C3630 C3632 1.389 . S
C3631 H3610 0.950 . S
C3631 C3630 1.373 . S
C3631 C3647 1.377 . S
C3632 C3630 1.389 . S
C3632 C3633 1.524 . S
C3632 C3646 1.377 . S
C3633 C3632 1.524 . S
C3633 C3634 1.397 . S
C3633 C3638 1.363 . S
C3634 H3611 0.950 . S
C3634 C3633 1.397 . S
C3634 C3635 1.334 . S
C3635 H3612 0.950 . S
C3635 C3634 1.334 . S
C3635 C3636 1.287 . S
C3636 C3635 1.287 . S
C3636 C3637 1.524 . S
C3636 H3655 0.913 . S
C3637 H3613 0.950 . S
C3637 C3636 1.524 . S
C3637 C3638 1.415 . S
C3638 H3614 0.950 . S
C3638 C3633 1.363 . S
C3638 C3637 1.415 . S
C3639 H3615 0.951 . S
C3639 C3640 1.366 . S
C3639 C3641 1.388 . S
C3640 C3639 1.366 . S
C3640 C3644 1.385 . S
C3641 H3616 0.951 . S
C3641 C3639 1.388 . S
C3641 C3642 1.366 . S
C3642 C3641 1.366 . S
C3642 C3643 1.414 . S
C3642 C3645 1.499 . S
C3643 H3617 0.950 . S
C3643 C3642 1.414 . S
C3643 C3644 1.374 . S
C3644 H3618 0.950 . S
C3644 C3640 1.385 . S
C3644 C3643 1.374 . S
C3645 C3642 1.499 . S
C3645 C3646 1.373 . S
C3645 C3647 1.389 . S
C3646 H3619 0.950 . S
C3646 C3632 1.377 . S
C3646 C3645 1.373 . S
C3647 C3631 1.377 . S
C3647 C3645 1.389 . S
C3647 C3648 1.524 . S
C3648 C3647 1.524 . S
C3648 C3649 1.397 . S
C3648 C3653 1.363 . S
C3649 H3620 0.950 . S
C3649 C3648 1.397 . S
C3649 C3650 1.334 . S
C3650 H3621 0.950 . S
C3650 C3649 1.334 . S
C3650 C3651 1.287 . S
C3651 C3650 1.287 . S
C3651 C3652 1.524 . S
C3651 H3654 0.999 . S
C3652 H3622 0.950 . S
C3652 C3651 1.524 . S
C3652 C3653 1.415 . S
C3653 H3623 0.950 . S
C3653 C3648 1.363 . S
C3653 C3652 1.415 . S
H3654 C3651 0.999 . S
H3655 C3636 0.913 . S
H3656 C3674 0.951 . S
H3657 C3676 0.951 . S
H3658 C3678 0.950 . S
H3659 C3679 0.950 . S
H3660 C3681 0.950 . S
H3661 C3684 0.950 . S
H3662 C3685 0.950 . S
H3663 C3687 0.950 . S
H3664 C3688 0.950 . S
H3665 C3689 0.951 . S
H3666 C3691 0.951 . S
H3667 C3693 0.950 . S
H3668 C3694 0.950 . S
H3669 C3696 0.950 . S
H3670 C3699 0.950 . S
H3671 C3700 0.950 . S
H3672 C3702 0.950 . S
H3673 C3703 0.950 . S
C3674 H3656 0.951 . S
C3674 C3675 1.366 . S
C3674 C3676 1.388 . S
C3675 C3674 1.366 . S
C3675 C3679 1.385 . S
C3676 H3657 0.951 . S
C3676 C3674 1.388 . S
C3676 C3677 1.366 . S
C3677 C3676 1.366 . S
C3677 C3678 1.414 . S
C3677 C3680 1.499 . S
C3678 H3658 0.950 . S
C3678 C3677 1.414 . S
C3678 C3679 1.374 . S
C3679 H3659 0.950 . S
C3679 C3675 1.385 . S
C3679 C3678 1.374 . S
C3680 C3677 1.499 . S
C3680 C3681 1.373 . S
C3680 C3682 1.389 . S
C3681 H3660 0.950 . S
C3681 C3680 1.373 . S
C3681 C3697 1.377 . S
C3682 C3680 1.389 . S
C3682 C3683 1.524 . S
C3682 C3696 1.377 . S
C3683 C3682 1.524 . S
C3683 C3684 1.397 . S
C3683 C3688 1.363 . S
C3684 H3661 0.950 . S
C3684 C3683 1.397 . S
C3684 C3685 1.334 . S
C3685 H3662 0.950 . S
C3685 C3684 1.334 . S
C3685 C3686 1.287 . S
C3686 C3685 1.287 . S
C3686 C3687 1.524 . S
C3686 H3705 0.913 . S
C3687 H3663 0.950 . S
C3687 C3686 1.524 . S
C3687 C3688 1.415 . S
C3688 H3664 0.950 . S
C3688 C3683 1.363 . S
C3688 C3687 1.415 . S
C3689 H3665 0.951 . S
C3689 C3690 1.366 . S
C3689 C3691 1.388 . S
C3690 C3689 1.366 . S
C3690 C3694 1.385 . S
C3691 H3666 0.951 . S
C3691 C3689 1.388 . S
C3691 C3692 1.366 . S
C3692 C3691 1.366 . S
C3692 C3693 1.414 . S
C3692 C3695 1.499 . S
C3693 H3667 0.950 . S
C3693 C3692 1.414 . S
C3693 C3694 1.374 . S
C3694 H3668 0.950 . S
C3694 C3690 1.385 . S
C3694 C3693 1.374 . S
C3695 C3692 1.499 . S
C3695 C3696 1.373 . S
C3695 C3697 1.389 . S
C3696 H3669 0.950 . S
C3696 C3682 1.377 . S
C3696 C3695 1.373 . S
C3697 C3681 1.377 . S
C3697 C3695 1.389 . S
C3697 C3698 1.524 . S
C3698 C3697 1.524 . S
C3698 C3699 1.397 . S
C3698 C3703 1.363 . S
C3699 H3670 0.950 . S
C3699 C3698 1.397 . S
C3699 C3700 1.334 . S
C3700 H3671 0.950 . S
C3700 C3699 1.334 . S
C3700 C3701 1.287 . S
C3701 C3700 1.287 . S
C3701 C3702 1.524 . S
C3701 H3704 0.999 . S
C3702 H3672 0.950 . S
C3702 C3701 1.524 . S
C3702 C3703 1.415 . S
C3703 H3673 0.950 . S
C3703 C3698 1.363 . S
C3703 C3702 1.415 . S
H3704 C3701 0.999 . S
H3705 C3686 0.913 . S
H3706 C3724 0.951 . S
H3707 C3726 0.951 . S
H3708 C3728 0.950 . S
H3709 C3729 0.950 . S
H3710 C3731 0.950 . S
H3711 C3734 0.950 . S
H3712 C3735 0.950 . S
H3713 C3737 0.950 . S
H3714 C3738 0.950 . S
H3715 C3739 0.951 . S
H3716 C3741 0.951 . S
H3717 C3743 0.950 . S
H3718 C3744 0.950 . S
H3719 C3746 0.950 . S
H3720 C3749 0.950 . S
H3721 C3750 0.950 . S
H3722 C3752 0.950 . S
H3723 C3753 0.950 . S
C3724 H3706 0.951 . S
C3724 C3725 1.366 . S
C3724 C3726 1.388 . S
C3725 C3724 1.366 . S
C3725 C3729 1.385 . S
C3726 H3707 0.951 . S
C3726 C3724 1.388 . S
C3726 C3727 1.366 . S
C3727 C3726 1.366 . S
C3727 C3728 1.414 . S
C3727 C3730 1.499 . S
C3728 H3708 0.950 . S
C3728 C3727 1.414 . S
C3728 C3729 1.374 . S
C3729 H3709 0.950 . S
C3729 C3725 1.385 . S
C3729 C3728 1.374 . S
C3730 C3727 1.499 . S
C3730 C3731 1.373 . S
C3730 C3732 1.389 . S
C3731 H3710 0.950 . S
C3731 C3730 1.373 . S
C3731 C3747 1.377 . S
C3732 C3730 1.389 . S
C3732 C3733 1.524 . S
C3732 C3746 1.377 . S
C3733 C3732 1.524 . S
C3733 C3734 1.397 . S
C3733 C3738 1.363 . S
C3734 H3711 0.950 . S
C3734 C3733 1.397 . S
C3734 C3735 1.334 . S
C3735 H3712 0.950 . S
C3735 C3734 1.334 . S
C3735 C3736 1.287 . S
C3736 C3735 1.287 . S
C3736 C3737 1.524 . S
C3736 H3755 0.913 . S
C3737 H3713 0.950 . S
C3737 C3736 1.524 . S
C3737 C3738 1.415 . S
C3738 H3714 0.950 . S
C3738 C3733 1.363 . S
C3738 C3737 1.415 . S
C3739 H3715 0.951 . S
C3739 C3740 1.366 . S
C3739 C3741 1.388 . S
C3740 C3739 1.366 . S
C3740 C3744 1.385 . S
C3741 H3716 0.951 . S
C3741 C3739 1.388 . S
C3741 C3742 1.366 . S
C3742 C3741 1.366 . S
C3742 C3743 1.414 . S
C3742 C3745 1.499 . S
C3743 H3717 0.950 . S
C3743 C3742 1.414 . S
C3743 C3744 1.374 . S
C3744 H3718 0.950 . S
C3744 C3740 1.385 . S
C3744 C3743 1.374 . S
C3745 C3742 1.499 . S
C3745 C3746 1.373 . S
C3745 C3747 1.389 . S
C3746 H3719 0.950 . S
C3746 C3732 1.377 . S
C3746 C3745 1.373 . S
C3747 C3731 1.377 . S
C3747 C3745 1.389 . S
C3747 C3748 1.524 . S
C3748 C3747 1.524 . S
C3748 C3749 1.397 . S
C3748 C3753 1.363 . S
C3749 H3720 0.950 . S
C3749 C3748 1.397 . S
C3749 C3750 1.334 . S
C3750 H3721 0.950 . S
C3750 C3749 1.334 . S
C3750 C3751 1.287 . S
C3751 C3750 1.287 . S
C3751 C3752 1.524 . S
C3751 H3754 0.999 . S
C3752 H3722 0.950 . S
C3752 C3751 1.524 . S
C3752 C3753 1.415 . S
C3753 H3723 0.950 . S
C3753 C3748 1.363 . S
C3753 C3752 1.415 . S
H3754 C3751 0.999 . S
H3755 C3736 0.913 . S
H3756 C3774 0.951 . S
H3757 C3776 0.951 . S
H3758 C3778 0.950 . S
H3759 C3779 0.950 . S
H3760 C3781 0.950 . S
H3761 C3784 0.950 . S
H3762 C3785 0.950 . S
H3763 C3787 0.950 . S
H3764 C3788 0.950 . S
H3765 C3789 0.951 . S
H3766 C3791 0.951 . S
H3767 C3793 0.950 . S
H3768 C3794 0.950 . S
H3769 C3796 0.950 . S
H3770 C3799 0.950 . S
H3771 C3800 0.950 . S
H3772 C3802 0.950 . S
H3773 C3803 0.950 . S
C3774 H3756 0.951 . S
C3774 C3775 1.366 . S
C3774 C3776 1.388 . S
C3775 C3774 1.366 . S
C3775 C3779 1.385 . S
C3776 H3757 0.951 . S
C3776 C3774 1.388 . S
C3776 C3777 1.366 . S
C3777 C3776 1.366 . S
C3777 C3778 1.414 . S
C3777 C3780 1.499 . S
C3778 H3758 0.950 . S
C3778 C3777 1.414 . S
C3778 C3779 1.374 . S
C3779 H3759 0.950 . S
C3779 C3775 1.385 . S
C3779 C3778 1.374 . S
C3780 C3777 1.499 . S
C3780 C3781 1.373 . S
C3780 C3782 1.389 . S
C3781 H3760 0.950 . S
C3781 C3780 1.373 . S
C3781 C3797 1.377 . S
C3782 C3780 1.389 . S
C3782 C3783 1.524 . S
C3782 C3796 1.377 . S
C3783 C3782 1.524 . S
C3783 C3784 1.397 . S
C3783 C3788 1.363 . S
C3784 H3761 0.950 . S
C3784 C3783 1.397 . S
C3784 C3785 1.334 . S
C3785 H3762 0.950 . S
C3785 C3784 1.334 . S
C3785 C3786 1.287 . S
C3786 C3785 1.287 . S
C3786 C3787 1.524 . S
C3786 H3805 0.913 . S
C3787 H3763 0.950 . S
C3787 C3786 1.524 . S
C3787 C3788 1.415 . S
C3788 H3764 0.950 . S
C3788 C3783 1.363 . S
C3788 C3787 1.415 . S
C3789 H3765 0.951 . S
C3789 C3790 1.366 . S
C3789 C3791 1.388 . S
C3790 C3789 1.366 . S
C3790 C3794 1.385 . S
C3791 H3766 0.951 . S
C3791 C3789 1.388 . S
C3791 C3792 1.366 . S
C3792 C3791 1.366 . S
C3792 C3793 1.414 . S
C3792 C3795 1.499 . S
C3793 H3767 0.950 . S
C3793 C3792 1.414 . S
C3793 C3794 1.374 . S
C3794 H3768 0.950 . S
C3794 C3790 1.385 . S
C3794 C3793 1.374 . S
C3795 C3792 1.499 . S
C3795 C3796 1.373 . S
C3795 C3797 1.389 . S
C3796 H3769 0.950 . S
C3796 C3782 1.377 . S
C3796 C3795 1.373 . S
C3797 C3781 1.377 . S
C3797 C3795 1.389 . S
C3797 C3798 1.524 . S
C3798 C3797 1.524 . S
C3798 C3799 1.397 . S
C3798 C3803 1.363 . S
C3799 H3770 0.950 . S
C3799 C3798 1.397 . S
C3799 C3800 1.334 . S
C3800 H3771 0.950 . S
C3800 C3799 1.334 . S
C3800 C3801 1.287 . S
C3801 C3800 1.287 . S
C3801 C3802 1.524 . S
C3801 H3804 0.999 . S
C3802 H3772 0.950 . S
C3802 C3801 1.524 . S
C3802 C3803 1.415 . S
C3803 H3773 0.950 . S
C3803 C3798 1.363 . S
C3803 C3802 1.415 . S
H3804 C3801 0.999 . S
H3805 C3786 0.913 . S
H3806 C3824 0.951 . S
H3807 C3826 0.951 . S
H3808 C3828 0.950 . S
H3809 C3829 0.950 . S
H3810 C3831 0.950 . S
H3811 C3834 0.950 . S
H3812 C3835 0.950 . S
H3813 C3837 0.950 . S
H3814 C3838 0.950 . S
H3815 C3839 0.951 . S
H3816 C3841 0.951 . S
H3817 C3843 0.950 . S
H3818 C3844 0.950 . S
H3819 C3846 0.950 . S
H3820 C3849 0.950 . S
H3821 C3850 0.950 . S
H3822 C3852 0.950 . S
H3823 C3853 0.950 . S
C3824 H3806 0.951 . S
C3824 C3825 1.366 . S
C3824 C3826 1.388 . S
C3825 C3824 1.366 . S
C3825 C3829 1.385 . S
C3826 H3807 0.951 . S
C3826 C3824 1.388 . S
C3826 C3827 1.366 . S
C3827 C3826 1.366 . S
C3827 C3828 1.414 . S
C3827 C3830 1.499 . S
C3828 H3808 0.950 . S
C3828 C3827 1.414 . S
C3828 C3829 1.374 . S
C3829 H3809 0.950 . S
C3829 C3825 1.385 . S
C3829 C3828 1.374 . S
C3830 C3827 1.499 . S
C3830 C3831 1.373 . S
C3830 C3832 1.389 . S
C3831 H3810 0.950 . S
C3831 C3830 1.373 . S
C3831 C3847 1.377 . S
C3832 C3830 1.389 . S
C3832 C3833 1.524 . S
C3832 C3846 1.377 . S
C3833 C3832 1.524 . S
C3833 C3834 1.397 . S
C3833 C3838 1.363 . S
C3834 H3811 0.950 . S
C3834 C3833 1.397 . S
C3834 C3835 1.334 . S
C3835 H3812 0.950 . S
C3835 C3834 1.334 . S
C3835 C3836 1.287 . S
C3836 C3835 1.287 . S
C3836 C3837 1.524 . S
C3836 H3855 0.913 . S
C3837 H3813 0.950 . S
C3837 C3836 1.524 . S
C3837 C3838 1.415 . S
C3838 H3814 0.950 . S
C3838 C3833 1.363 . S
C3838 C3837 1.415 . S
C3839 H3815 0.951 . S
C3839 C3840 1.366 . S
C3839 C3841 1.388 . S
C3840 C3839 1.366 . S
C3840 C3844 1.385 . S
C3841 H3816 0.951 . S
C3841 C3839 1.388 . S
C3841 C3842 1.366 . S
C3842 C3841 1.366 . S
C3842 C3843 1.414 . S
C3842 C3845 1.499 . S
C3843 H3817 0.950 . S
C3843 C3842 1.414 . S
C3843 C3844 1.374 . S
C3844 H3818 0.950 . S
C3844 C3840 1.385 . S
C3844 C3843 1.374 . S
C3845 C3842 1.499 . S
C3845 C3846 1.373 . S
C3845 C3847 1.389 . S
C3846 H3819 0.950 . S
C3846 C3832 1.377 . S
C3846 C3845 1.373 . S
C3847 C3831 1.377 . S
C3847 C3845 1.389 . S
C3847 C3848 1.524 . S
C3848 C3847 1.524 . S
C3848 C3849 1.397 . S
C3848 C3853 1.363 . S
C3849 H3820 0.950 . S
C3849 C3848 1.397 . S
C3849 C3850 1.334 . S
C3850 H3821 0.950 . S
C3850 C3849 1.334 . S
C3850 C3851 1.287 . S
C3851 C3850 1.287 . S
C3851 C3852 1.524 . S
C3851 H3854 0.999 . S
C3852 H3822 0.950 . S
C3852 C3851 1.524 . S
C3852 C3853 1.415 . S
C3853 H3823 0.950 . S
C3853 C3848 1.363 . S
C3853 C3852 1.415 . S
H3854 C3851 0.999 . S
H3855 C3836 0.913 . S
H3856 C3874 0.951 . S
H3857 C3876 0.951 . S
H3858 C3878 0.950 . S
H3859 C3879 0.950 . S
H3860 C3881 0.950 . S
H3861 C3884 0.950 . S
H3862 C3885 0.950 . S
H3863 C3887 0.950 . S
H3864 C3888 0.950 . S
H3865 C3889 0.951 . S
H3866 C3891 0.951 . S
H3867 C3893 0.950 . S
H3868 C3894 0.950 . S
H3869 C3896 0.950 . S
H3870 C3899 0.950 . S
H3871 C3900 0.950 . S
H3872 C3902 0.950 . S
H3873 C3903 0.950 . S
C3874 H3856 0.951 . S
C3874 C3875 1.366 . S
C3874 C3876 1.388 . S
C3875 C3874 1.366 . S
C3875 C3879 1.385 . S
C3876 H3857 0.951 . S
C3876 C3874 1.388 . S
C3876 C3877 1.366 . S
C3877 C3876 1.366 . S
C3877 C3878 1.414 . S
C3877 C3880 1.499 . S
C3878 H3858 0.950 . S
C3878 C3877 1.414 . S
C3878 C3879 1.374 . S
C3879 H3859 0.950 . S
C3879 C3875 1.385 . S
C3879 C3878 1.374 . S
C3880 C3877 1.499 . S
C3880 C3881 1.373 . S
C3880 C3882 1.389 . S
C3881 H3860 0.950 . S
C3881 C3880 1.373 . S
C3881 C3897 1.377 . S
C3882 C3880 1.389 . S
C3882 C3883 1.524 . S
C3882 C3896 1.377 . S
C3883 C3882 1.524 . S
C3883 C3884 1.397 . S
C3883 C3888 1.363 . S
C3884 H3861 0.950 . S
C3884 C3883 1.397 . S
C3884 C3885 1.334 . S
C3885 H3862 0.950 . S
C3885 C3884 1.334 . S
C3885 C3886 1.287 . S
C3886 C3885 1.287 . S
C3886 C3887 1.524 . S
C3886 H3905 0.913 . S
C3887 H3863 0.950 . S
C3887 C3886 1.524 . S
C3887 C3888 1.415 . S
C3888 H3864 0.950 . S
C3888 C3883 1.363 . S
C3888 C3887 1.415 . S
C3889 H3865 0.951 . S
C3889 C3890 1.366 . S
C3889 C3891 1.388 . S
C3890 C3889 1.366 . S
C3890 C3894 1.385 . S
C3891 H3866 0.951 . S
C3891 C3889 1.388 . S
C3891 C3892 1.366 . S
C3892 C3891 1.366 . S
C3892 C3893 1.414 . S
C3892 C3895 1.499 . S
C3893 H3867 0.950 . S
C3893 C3892 1.414 . S
C3893 C3894 1.374 . S
C3894 H3868 0.950 . S
C3894 C3890 1.385 . S
C3894 C3893 1.374 . S
C3895 C3892 1.499 . S
C3895 C3896 1.373 . S
C3895 C3897 1.389 . S
C3896 H3869 0.950 . S
C3896 C3882 1.377 . S
C3896 C3895 1.373 . S
C3897 C3881 1.377 . S
C3897 C3895 1.389 . S
C3897 C3898 1.524 . S
C3898 C3897 1.524 . S
C3898 C3899 1.397 . S
C3898 C3903 1.363 . S
C3899 H3870 0.950 . S
C3899 C3898 1.397 . S
C3899 C3900 1.334 . S
C3900 H3871 0.950 . S
C3900 C3899 1.334 . S
C3900 C3901 1.287 . S
C3901 C3900 1.287 . S
C3901 C3902 1.524 . S
C3901 H3904 0.999 . S
C3902 H3872 0.950 . S
C3902 C3901 1.524 . S
C3902 C3903 1.415 . S
C3903 H3873 0.950 . S
C3903 C3898 1.363 . S
C3903 C3902 1.415 . S
H3904 C3901 0.999 . S
H3905 C3886 0.913 . S
H3906 C3924 0.951 . S
H3907 C3926 0.951 . S
H3908 C3928 0.950 . S
H3909 C3929 0.950 . S
H3910 C3931 0.950 . S
H3911 C3934 0.950 . S
H3912 C3935 0.950 . S
H3913 C3937 0.950 . S
H3914 C3938 0.950 . S
H3915 C3939 0.951 . S
H3916 C3941 0.951 . S
H3917 C3943 0.950 . S
H3918 C3944 0.950 . S
H3919 C3946 0.950 . S
H3920 C3949 0.950 . S
H3921 C3950 0.950 . S
H3922 C3952 0.950 . S
H3923 C3953 0.950 . S
C3924 H3906 0.951 . S
C3924 C3925 1.366 . S
C3924 C3926 1.388 . S
C3925 C3924 1.366 . S
C3925 C3929 1.385 . S
C3926 H3907 0.951 . S
C3926 C3924 1.388 . S
C3926 C3927 1.366 . S
C3927 C3926 1.366 . S
C3927 C3928 1.414 . S
C3927 C3930 1.499 . S
C3928 H3908 0.950 . S
C3928 C3927 1.414 . S
C3928 C3929 1.374 . S
C3929 H3909 0.950 . S
C3929 C3925 1.385 . S
C3929 C3928 1.374 . S
C3930 C3927 1.499 . S
C3930 C3931 1.373 . S
C3930 C3932 1.389 . S
C3931 H3910 0.950 . S
C3931 C3930 1.373 . S
C3931 C3947 1.377 . S
C3932 C3930 1.389 . S
C3932 C3933 1.524 . S
C3932 C3946 1.377 . S
C3933 C3932 1.524 . S
C3933 C3934 1.397 . S
C3933 C3938 1.363 . S
C3934 H3911 0.950 . S
C3934 C3933 1.397 . S
C3934 C3935 1.334 . S
C3935 H3912 0.950 . S
C3935 C3934 1.334 . S
C3935 C3936 1.287 . S
C3936 C3935 1.287 . S
C3936 C3937 1.524 . S
C3936 H3955 0.913 . S
C3937 H3913 0.950 . S
C3937 C3936 1.524 . S
C3937 C3938 1.415 . S
C3938 H3914 0.950 . S
C3938 C3933 1.363 . S
C3938 C3937 1.415 . S
C3939 H3915 0.951 . S
C3939 C3940 1.366 . S
C3939 C3941 1.388 . S
C3940 C3939 1.366 . S
C3940 C3944 1.385 . S
C3941 H3916 0.951 . S
C3941 C3939 1.388 . S
C3941 C3942 1.366 . S
C3942 C3941 1.366 . S
C3942 C3943 1.414 . S
C3942 C3945 1.499 . S
C3943 H3917 0.950 . S
C3943 C3942 1.414 . S
C3943 C3944 1.374 . S
C3944 H3918 0.950 . S
C3944 C3940 1.385 . S
C3944 C3943 1.374 . S
C3945 C3942 1.499 . S
C3945 C3946 1.373 . S
C3945 C3947 1.389 . S
C3946 H3919 0.950 . S
C3946 C3932 1.377 . S
C3946 C3945 1.373 . S
C3947 C3931 1.377 . S
C3947 C3945 1.389 . S
C3947 C3948 1.524 . S
C3948 C3947 1.524 . S
C3948 C3949 1.397 . S
C3948 C3953 1.363 . S
C3949 H3920 0.950 . S
C3949 C3948 1.397 . S
C3949 C3950 1.334 . S
C3950 H3921 0.950 . S
C3950 C3949 1.334 . S
C3950 C3951 1.287 . S
C3951 C3950 1.287 . S
C3951 C3952 1.524 . S
C3951 H3954 0.999 . S
C3952 H3922 0.950 . S
C3952 C3951 1.524 . S
C3952 C3953 1.415 . S
C3953 H3923 0.950 . S
C3953 C3948 1.363 . S
C3953 C3952 1.415 . S
H3954 C3951 0.999 . S
H3955 C3936 0.913 . S
H3956 C3974 0.951 . S
H3957 C3976 0.951 . S
H3958 C3978 0.950 . S
H3959 C3979 0.950 . S
H3960 C3981 0.950 . S
H3961 C3984 0.950 . S
H3962 C3985 0.950 . S
H3963 C3987 0.950 . S
H3964 C3988 0.950 . S
H3965 C3989 0.951 . S
H3966 C3991 0.951 . S
H3967 C3993 0.950 . S
H3968 C3994 0.950 . S
H3969 C3996 0.950 . S
H3970 C3999 0.950 . S
H3971 C4000 0.950 . S
H3972 C4002 0.950 . S
H3973 C4003 0.950 . S
C3974 H3956 0.951 . S
C3974 C3975 1.366 . S
C3974 C3976 1.388 . S
C3975 C3974 1.366 . S
C3975 C3979 1.385 . S
C3976 H3957 0.951 . S
C3976 C3974 1.388 . S
C3976 C3977 1.366 . S
C3977 C3976 1.366 . S
C3977 C3978 1.414 . S
C3977 C3980 1.499 . S
C3978 H3958 0.950 . S
C3978 C3977 1.414 . S
C3978 C3979 1.374 . S
C3979 H3959 0.950 . S
C3979 C3975 1.385 . S
C3979 C3978 1.374 . S
C3980 C3977 1.499 . S
C3980 C3981 1.373 . S
C3980 C3982 1.389 . S
C3981 H3960 0.950 . S
C3981 C3980 1.373 . S
C3981 C3997 1.377 . S
C3982 C3980 1.389 . S
C3982 C3983 1.524 . S
C3982 C3996 1.377 . S
C3983 C3982 1.524 . S
C3983 C3984 1.397 . S
C3983 C3988 1.363 . S
C3984 H3961 0.950 . S
C3984 C3983 1.397 . S
C3984 C3985 1.334 . S
C3985 H3962 0.950 . S
C3985 C3984 1.334 . S
C3985 C3986 1.287 . S
C3986 C3985 1.287 . S
C3986 C3987 1.524 . S
C3986 H4005 0.913 . S
C3987 H3963 0.950 . S
C3987 C3986 1.524 . S
C3987 C3988 1.415 . S
C3988 H3964 0.950 . S
C3988 C3983 1.363 . S
C3988 C3987 1.415 . S
C3989 H3965 0.951 . S
C3989 C3990 1.366 . S
C3989 C3991 1.388 . S
C3990 C3989 1.366 . S
C3990 C3994 1.385 . S
C3991 H3966 0.951 . S
C3991 C3989 1.388 . S
C3991 C3992 1.366 . S
C3992 C3991 1.366 . S
C3992 C3993 1.414 . S
C3992 C3995 1.499 . S
C3993 H3967 0.950 . S
C3993 C3992 1.414 . S
C3993 C3994 1.374 . S
C3994 H3968 0.950 . S
C3994 C3990 1.385 . S
C3994 C3993 1.374 . S
C3995 C3992 1.499 . S
C3995 C3996 1.373 . S
C3995 C3997 1.389 . S
C3996 H3969 0.950 . S
C3996 C3982 1.377 . S
C3996 C3995 1.373 . S
C3997 C3981 1.377 . S
C3997 C3995 1.389 . S
C3997 C3998 1.524 . S
C3998 C3997 1.524 . S
C3998 C3999 1.397 . S
C3998 C4003 1.363 . S
C3999 H3970 0.950 . S
C3999 C3998 1.397 . S
C3999 C4000 1.334 . S
C4000 H3971 0.950 . S
C4000 C3999 1.334 . S
C4000 C4001 1.287 . S
C4001 C4000 1.287 . S
C4001 C4002 1.524 . S
C4001 H4004 0.999 . S
C4002 H3972 0.950 . S
C4002 C4001 1.524 . S
C4002 C4003 1.415 . S
C4003 H3973 0.950 . S
C4003 C3998 1.363 . S
C4003 C4002 1.415 . S
H4004 C4001 0.999 . S
H4005 C3986 0.913 . S
H4006 C4024 0.951 . S
H4007 C4026 0.951 . S
H4008 C4028 0.950 . S
H4009 C4029 0.950 . S
H4010 C4031 0.950 . S
H4011 C4034 0.950 . S
H4012 C4035 0.950 . S
H4013 C4037 0.950 1_545 S
H4014 C4038 0.950 1_544 S
H4015 C4039 0.951 . S
H4016 C4041 0.951 . S
H4017 C4043 0.950 . S
H4018 C4044 0.950 . S
H4019 C4046 0.950 . S
H4020 C4049 0.950 . S
H4021 C4050 0.950 . S
H4022 C4052 0.950 . S
H4023 C4053 0.950 . S
C4024 H4006 0.951 . S
C4024 C4025 1.366 . S
C4024 C4026 1.388 . S
C4025 C4024 1.366 . S
C4025 C4029 1.385 . S
C4026 H4007 0.951 . S
C4026 C4024 1.388 . S
C4026 C4027 1.366 . S
C4027 C4026 1.366 . S
C4027 C4028 1.414 . S
C4027 C4030 1.499 . S
C4028 H4008 0.950 . S
C4028 C4027 1.414 . S
C4028 C4029 1.374 . S
C4029 H4009 0.950 . S
C4029 C4025 1.385 . S
C4029 C4028 1.374 . S
C4030 C4027 1.499 . S
C4030 C4031 1.373 . S
C4030 C4032 1.389 . S
C4031 H4010 0.950 . S
C4031 C4030 1.373 . S
C4031 C4047 1.377 . S
C4032 C4030 1.389 . S
C4032 C4033 1.524 1_554 S
C4032 C4046 1.377 . S
C4033 C4032 1.524 1_556 S
C4033 C4034 1.397 . S
C4033 C4038 1.363 . S
C4034 H4011 0.950 . S
C4034 C4033 1.397 . S
C4034 C4035 1.334 . S
C4035 H4012 0.950 . S
C4035 C4034 1.334 . S
C4035 C4036 1.287 . S
C4036 C4035 1.287 . S
C4036 C4037 1.524 . S
C4036 H4055 0.913 . S
C4037 H4013 0.950 1_565 S
C4037 C4036 1.524 . S
C4037 C4038 1.415 . S
C4038 H4014 0.950 1_566 S
C4038 C4033 1.363 . S
C4038 C4037 1.415 . S
C4039 H4015 0.951 . S
C4039 C4040 1.366 1_565 S
C4039 C4041 1.388 . S
C4040 C4039 1.366 1_545 S
C4040 C4044 1.385 . S
C4041 H4016 0.951 . S
C4041 C4039 1.388 . S
C4041 C4042 1.366 . S
C4042 C4041 1.366 . S
C4042 C4043 1.414 1_565 S
C4042 C4045 1.499 . S
C4043 H4017 0.950 . S
C4043 C4042 1.414 1_545 S
C4043 C4044 1.374 . S
C4044 H4018 0.950 . S
C4044 C4040 1.385 . S
C4044 C4043 1.374 . S
C4045 C4042 1.499 . S
C4045 C4046 1.373 . S
C4045 C4047 1.389 . S
C4046 H4019 0.950 . S
C4046 C4032 1.377 . S
C4046 C4045 1.373 . S
C4047 C4031 1.377 . S
C4047 C4045 1.389 . S
C4047 C4048 1.524 . S
C4048 C4047 1.524 . S
C4048 C4049 1.397 . S
C4048 C4053 1.363 . S
C4049 H4020 0.950 . S
C4049 C4048 1.397 . S
C4049 C4050 1.334 . S
C4050 H4021 0.950 . S
C4050 C4049 1.334 . S
C4050 C4051 1.287 . S
C4051 C4050 1.287 . S
C4051 C4052 1.524 . S
C4051 H4054 0.999 . S
C4052 H4022 0.950 . S
C4052 C4051 1.524 . S
C4052 C4053 1.415 . S
C4053 H4023 0.950 . S
C4053 C4048 1.363 . S
C4053 C4052 1.415 . S
H4054 C4051 0.999 . S
H4055 C4036 0.913 . S
H4056 C4074 0.951 . S
H4057 C4076 0.951 . S
H4058 C4078 0.950 . S
H4059 C4079 0.950 . S
H4060 C4081 0.950 . S
H4061 C4084 0.950 . S
H4062 C4085 0.950 . S
H4063 C4087 0.950 . S
H4064 C4088 0.950 . S
H4065 C4089 0.951 . S
H4066 C4091 0.951 . S
H4067 C4093 0.950 . S
H4068 C4094 0.950 . S
H4069 C4096 0.950 . S
H4070 C4099 0.950 . S
H4071 C4100 0.950 . S
H4072 C4102 0.950 . S
H4073 C4103 0.950 . S
C4074 H4056 0.951 . S
C4074 C4075 1.366 . S
C4074 C4076 1.388 . S
C4075 C4074 1.366 . S
C4075 C4079 1.385 . S
C4076 H4057 0.951 . S
C4076 C4074 1.388 . S
C4076 C4077 1.366 . S
C4077 C4076 1.366 . S
C4077 C4078 1.414 . S
C4077 C4080 1.499 . S
C4078 H4058 0.950 . S
C4078 C4077 1.414 . S
C4078 C4079 1.374 . S
C4079 H4059 0.950 . S
C4079 C4075 1.385 . S
C4079 C4078 1.374 . S
C4080 C4077 1.499 . S
C4080 C4081 1.373 . S
C4080 C4082 1.389 . S
C4081 H4060 0.950 . S
C4081 C4080 1.373 . S
C4081 C4097 1.377 . S
C4082 C4080 1.389 . S
C4082 C4083 1.524 . S
C4082 C4096 1.377 . S
C4083 C4082 1.524 . S
C4083 C4084 1.397 . S
C4083 C4088 1.363 . S
C4084 H4061 0.950 . S
C4084 C4083 1.397 . S
C4084 C4085 1.334 . S
C4085 H4062 0.950 . S
C4085 C4084 1.334 . S
C4085 C4086 1.287 . S
C4086 C4085 1.287 . S
C4086 C4087 1.524 . S
C4086 H4105 0.913 . S
C4087 H4063 0.950 . S
C4087 C4086 1.524 . S
C4087 C4088 1.415 . S
C4088 H4064 0.950 . S
C4088 C4083 1.363 . S
C4088 C4087 1.415 . S
C4089 H4065 0.951 . S
C4089 C4090 1.366 . S
C4089 C4091 1.388 . S
C4090 C4089 1.366 . S
C4090 C4094 1.385 . S
C4091 H4066 0.951 . S
C4091 C4089 1.388 . S
C4091 C4092 1.366 . S
C4092 C4091 1.366 . S
C4092 C4093 1.414 . S
C4092 C4095 1.499 . S
C4093 H4067 0.950 . S
C4093 C4092 1.414 . S
C4093 C4094 1.374 . S
C4094 H4068 0.950 . S
C4094 C4090 1.385 . S
C4094 C4093 1.374 . S
C4095 C4092 1.499 . S
C4095 C4096 1.373 . S
C4095 C4097 1.389 . S
C4096 H4069 0.950 . S
C4096 C4082 1.377 . S
C4096 C4095 1.373 . S
C4097 C4081 1.377 . S
C4097 C4095 1.389 . S
C4097 C4098 1.524 . S
C4098 C4097 1.524 . S
C4098 C4099 1.397 . S
C4098 C4103 1.363 . S
C4099 H4070 0.950 . S
C4099 C4098 1.397 . S
C4099 C4100 1.334 . S
C4100 H4071 0.950 . S
C4100 C4099 1.334 . S
C4100 C4101 1.287 . S
C4101 C4100 1.287 . S
C4101 C4102 1.524 . S
C4101 H4104 0.999 . S
C4102 H4072 0.950 . S
C4102 C4101 1.524 . S
C4102 C4103 1.415 . S
C4103 H4073 0.950 . S
C4103 C4098 1.363 . S
C4103 C4102 1.415 . S
H4104 C4101 0.999 . S
H4105 C4086 0.913 . S
H4106 C4124 0.951 . S
H4107 C4126 0.951 . S
H4108 C4128 0.950 . S
H4109 C4129 0.950 . S
H4110 C4131 0.950 1_556 S
H4111 C4134 0.950 . S
H4112 C4135 0.950 . S
H4113 C4137 0.950 . S
H4114 C4138 0.950 . S
H4115 C4139 0.951 . S
H4116 C4141 0.951 1_556 S
H4117 C4143 0.950 . S
H4118 C4144 0.950 . S
H4119 C4146 0.950 . S
H4120 C4149 0.950 . S
H4121 C4150 0.950 . S
H4122 C4152 0.950 . S
H4123 C4153 0.950 . S
C4124 H4106 0.951 . S
C4124 C4125 1.366 . S
C4124 C4126 1.388 . S
C4125 C4124 1.366 . S
C4125 C4129 1.385 1_554 S
C4126 H4107 0.951 . S
C4126 C4124 1.388 . S
C4126 C4127 1.366 . S
C4127 C4126 1.366 . S
C4127 C4128 1.414 1_554 S
C4127 C4130 1.499 . S
C4128 H4108 0.950 . S
C4128 C4127 1.414 1_556 S
C4128 C4129 1.374 . S
C4129 H4109 0.950 . S
C4129 C4125 1.385 1_556 S
C4129 C4128 1.374 . S
C4130 C4127 1.499 . S
C4130 C4131 1.373 . S
C4130 C4132 1.389 . S
C4131 H4110 0.950 1_554 S
C4131 C4130 1.373 . S
C4131 C4147 1.377 . S
C4132 C4130 1.389 . S
C4132 C4133 1.524 . S
C4132 C4146 1.377 . S
C4133 C4132 1.524 . S
C4133 C4134 1.397 . S
C4133 C4138 1.363 . S
C4134 H4111 0.950 . S
C4134 C4133 1.397 . S
C4134 C4135 1.334 . S
C4135 H4112 0.950 . S
C4135 C4134 1.334 . S
C4135 C4136 1.287 . S
C4136 C4135 1.287 . S
C4136 C4137 1.524 . S
C4136 H4155 0.913 . S
C4137 H4113 0.950 . S
C4137 C4136 1.524 . S
C4137 C4138 1.415 . S
C4138 H4114 0.950 . S
C4138 C4133 1.363 . S
C4138 C4137 1.415 . S
C4139 H4115 0.951 . S
C4139 C4140 1.366 . S
C4139 C4141 1.388 . S
C4140 C4139 1.366 . S
C4140 C4144 1.385 . S
C4141 H4116 0.951 1_554 S
C4141 C4139 1.388 . S
C4141 C4142 1.366 . S
C4142 C4141 1.366 . S
C4142 C4143 1.414 . S
C4142 C4145 1.499 . S
C4143 H4117 0.950 . S
C4143 C4142 1.414 . S
C4143 C4144 1.374 . S
C4144 H4118 0.950 . S
C4144 C4140 1.385 . S
C4144 C4143 1.374 . S
C4145 C4142 1.499 . S
C4145 C4146 1.373 . S
C4145 C4147 1.389 . S
C4146 H4119 0.950 . S
C4146 C4132 1.377 . S
C4146 C4145 1.373 . S
C4147 C4131 1.377 . S
C4147 C4145 1.389 . S
C4147 C4148 1.524 1_554 S
C4148 C4147 1.524 1_556 S
C4148 C4149 1.397 1_556 S
C4148 C4153 1.363 . S
C4149 H4120 0.950 . S
C4149 C4148 1.397 1_554 S
C4149 C4150 1.334 1_554 S
C4150 H4121 0.950 . S
C4150 C4149 1.334 1_556 S
C4150 C4151 1.287 . S
C4151 C4150 1.287 . S
C4151 C4152 1.524 . S
C4151 H4154 0.999 . S
C4152 H4122 0.950 . S
C4152 C4151 1.524 . S
C4152 C4153 1.415 . S
C4153 H4123 0.950 . S
C4153 C4148 1.363 . S
C4153 C4152 1.415 . S
H4154 C4151 0.999 . S
H4155 C4136 0.913 . S
H4156 C4174 0.951 . S
H4157 C4176 0.951 . S
H4158 C4178 0.950 . S
H4159 C4179 0.950 . S
H4160 C4181 0.950 . S
H4161 C4184 0.950 . S
H4162 C4185 0.950 . S
H4163 C4187 0.950 . S
H4164 C4188 0.950 . S
H4165 C4189 0.951 . S
H4166 C4191 0.951 . S
H4167 C4193 0.950 . S
H4168 C4194 0.950 . S
H4169 C4196 0.950 . S
H4170 C4199 0.950 . S
H4171 C4200 0.950 . S
H4172 C4202 0.950 . S
H4173 C4203 0.950 . S
C4174 H4156 0.951 . S
C4174 C4175 1.366 . S
C4174 C4176 1.388 . S
C4175 C4174 1.366 . S
C4175 C4179 1.385 . S
C4176 H4157 0.951 . S
C4176 C4174 1.388 . S
C4176 C4177 1.366 . S
C4177 C4176 1.366 . S
C4177 C4178 1.414 . S
C4177 C4180 1.499 . S
C4178 H4158 0.950 . S
C4178 C4177 1.414 . S
C4178 C4179 1.374 . S
C4179 H4159 0.950 . S
C4179 C4175 1.385 . S
C4179 C4178 1.374 . S
C4180 C4177 1.499 . S
C4180 C4181 1.373 . S
C4180 C4182 1.389 . S
C4181 H4160 0.950 . S
C4181 C4180 1.373 . S
C4181 C4197 1.377 . S
C4182 C4180 1.389 . S
C4182 C4183 1.524 . S
C4182 C4196 1.377 . S
C4183 C4182 1.524 . S
C4183 C4184 1.397 . S
C4183 C4188 1.363 . S
C4184 H4161 0.950 . S
C4184 C4183 1.397 . S
C4184 C4185 1.334 . S
C4185 H4162 0.950 . S
C4185 C4184 1.334 . S
C4185 C4186 1.287 . S
C4186 C4185 1.287 . S
C4186 C4187 1.524 . S
C4186 H4205 0.913 . S
C4187 H4163 0.950 . S
C4187 C4186 1.524 . S
C4187 C4188 1.415 . S
C4188 H4164 0.950 . S
C4188 C4183 1.363 . S
C4188 C4187 1.415 . S
C4189 H4165 0.951 . S
C4189 C4190 1.366 . S
C4189 C4191 1.388 . S
C4190 C4189 1.366 . S
C4190 C4194 1.385 . S
C4191 H4166 0.951 . S
C4191 C4189 1.388 . S
C4191 C4192 1.366 . S
C4192 C4191 1.366 . S
C4192 C4193 1.414 . S
C4192 C4195 1.499 . S
C4193 H4167 0.950 . S
C4193 C4192 1.414 . S
C4193 C4194 1.374 . S
C4194 H4168 0.950 . S
C4194 C4190 1.385 . S
C4194 C4193 1.374 . S
C4195 C4192 1.499 . S
C4195 C4196 1.373 . S
C4195 C4197 1.389 . S
C4196 H4169 0.950 . S
C4196 C4182 1.377 . S
C4196 C4195 1.373 . S
C4197 C4181 1.377 . S
C4197 C4195 1.389 . S
C4197 C4198 1.524 . S
C4198 C4197 1.524 . S
C4198 C4199 1.397 . S
C4198 C4203 1.363 . S
C4199 H4170 0.950 . S
C4199 C4198 1.397 . S
C4199 C4200 1.334 . S
C4200 H4171 0.950 . S
C4200 C4199 1.334 . S
C4200 C4201 1.287 . S
C4201 C4200 1.287 . S
C4201 C4202 1.524 . S
C4201 H4204 0.999 . S
C4202 H4172 0.950 . S
C4202 C4201 1.524 . S
C4202 C4203 1.415 . S
C4203 H4173 0.950 . S
C4203 C4198 1.363 . S
C4203 C4202 1.415 . S
H4204 C4201 0.999 . S
H4205 C4186 0.913 . S
H4206 C4224 0.951 1_545 S
H4207 C4226 0.951 . S
H4208 C4228 0.950 . S
H4209 C4229 0.950 . S
H4210 C4231 0.950 . S
H4211 C4234 0.950 . S
H4212 C4235 0.950 . S
H4213 C4237 0.950 . S
H4214 C4238 0.950 . S
H4215 C4239 0.951 . S
H4216 C4241 0.951 . S
H4217 C4243 0.950 . S
H4218 C4244 0.950 . S
H4219 C4246 0.950 . S
H4220 C4249 0.950 . S
H4221 C4250 0.950 . S
H4222 C4252 0.950 . S
H4223 C4253 0.950 . S
C4224 H4206 0.951 1_565 S
C4224 C4225 1.366 . S
C4224 C4226 1.388 . S
C4225 C4224 1.366 . S
C4225 C4229 1.385 . S
C4226 H4207 0.951 . S
C4226 C4224 1.388 . S
C4226 C4227 1.366 . S
C4227 C4226 1.366 . S
C4227 C4228 1.414 . S
C4227 C4230 1.499 . S
C4228 H4208 0.950 . S
C4228 C4227 1.414 . S
C4228 C4229 1.374 . S
C4229 H4209 0.950 . S
C4229 C4225 1.385 . S
C4229 C4228 1.374 . S
C4230 C4227 1.499 . S
C4230 C4231 1.373 . S
C4230 C4232 1.389 . S
C4231 H4210 0.950 . S
C4231 C4230 1.373 . S
C4231 C4247 1.377 . S
C4232 C4230 1.389 . S
C4232 C4233 1.524 . S
C4232 C4246 1.377 . S
C4233 C4232 1.524 . S
C4233 C4234 1.397 . S
C4233 C4238 1.363 . S
C4234 H4211 0.950 . S
C4234 C4233 1.397 . S
C4234 C4235 1.334 . S
C4235 H4212 0.950 . S
C4235 C4234 1.334 . S
C4235 C4236 1.287 . S
C4236 C4235 1.287 . S
C4236 C4237 1.524 . S
C4236 H4255 0.913 . S
C4237 H4213 0.950 . S
C4237 C4236 1.524 . S
C4237 C4238 1.415 . S
C4238 H4214 0.950 . S
C4238 C4233 1.363 . S
C4238 C4237 1.415 . S
C4239 H4215 0.951 . S
C4239 C4240 1.366 . S
C4239 C4241 1.388 . S
C4240 C4239 1.366 . S
C4240 C4244 1.385 . S
C4241 H4216 0.951 . S
C4241 C4239 1.388 . S
C4241 C4242 1.366 . S
C4242 C4241 1.366 . S
C4242 C4243 1.414 . S
C4242 C4245 1.499 . S
C4243 H4217 0.950 . S
C4243 C4242 1.414 . S
C4243 C4244 1.374 . S
C4244 H4218 0.950 . S
C4244 C4240 1.385 . S
C4244 C4243 1.374 . S
C4245 C4242 1.499 . S
C4245 C4246 1.373 . S
C4245 C4247 1.389 . S
C4246 H4219 0.950 . S
C4246 C4232 1.377 . S
C4246 C4245 1.373 . S
C4247 C4231 1.377 . S
C4247 C4245 1.389 . S
C4247 C4248 1.524 . S
C4248 C4247 1.524 . S
C4248 C4249 1.397 . S
C4248 C4253 1.363 . S
C4249 H4220 0.950 . S
C4249 C4248 1.397 . S
C4249 C4250 1.334 . S
C4250 H4221 0.950 . S
C4250 C4249 1.334 . S
C4250 C4251 1.287 . S
C4251 C4250 1.287 . S
C4251 C4252 1.524 . S
C4251 H4254 0.999 . S
C4252 H4222 0.950 . S
C4252 C4251 1.524 . S
C4252 C4253 1.415 . S
C4253 H4223 0.950 . S
C4253 C4248 1.363 . S
C4253 C4252 1.415 . S
H4254 C4251 0.999 . S
H4255 C4236 0.913 . S
H4256 C4274 0.951 . S
H4257 C4276 0.951 . S
H4258 C4278 0.950 . S
H4259 C4279 0.950 . S
H4260 C4281 0.950 . S
H4261 C4284 0.950 . S
H4262 C4285 0.950 . S
H4263 C4287 0.950 . S
H4264 C4288 0.950 . S
H4265 C4289 0.951 . S
H4266 C4291 0.951 . S
H4267 C4293 0.950 . S
H4268 C4294 0.950 . S
H4269 C4296 0.950 . S
H4270 C4299 0.950 . S
H4271 C4300 0.950 . S
H4272 C4302 0.950 . S
H4273 C4303 0.950 . S
C4274 H4256 0.951 . S
C4274 C4275 1.366 . S
C4274 C4276 1.388 . S
C4275 C4274 1.366 . S
C4275 C4279 1.385 . S
C4276 H4257 0.951 . S
C4276 C4274 1.388 . S
C4276 C4277 1.366 . S
C4277 C4276 1.366 . S
C4277 C4278 1.414 . S
C4277 C4280 1.499 . S
C4278 H4258 0.950 . S
C4278 C4277 1.414 . S
C4278 C4279 1.374 . S
C4279 H4259 0.950 . S
C4279 C4275 1.385 . S
C4279 C4278 1.374 . S
C4280 C4277 1.499 . S
C4280 C4281 1.373 . S
C4280 C4282 1.389 . S
C4281 H4260 0.950 . S
C4281 C4280 1.373 . S
C4281 C4297 1.377 . S
C4282 C4280 1.389 . S
C4282 C4283 1.524 . S
C4282 C4296 1.377 . S
C4283 C4282 1.524 . S
C4283 C4284 1.397 . S
C4283 C4288 1.363 . S
C4284 H4261 0.950 . S
C4284 C4283 1.397 . S
C4284 C4285 1.334 . S
C4285 H4262 0.950 . S
C4285 C4284 1.334 . S
C4285 C4286 1.287 . S
C4286 C4285 1.287 . S
C4286 C4287 1.524 . S
C4286 H4305 0.913 . S
C4287 H4263 0.950 . S
C4287 C4286 1.524 . S
C4287 C4288 1.415 . S
C4288 H4264 0.950 . S
C4288 C4283 1.363 . S
C4288 C4287 1.415 . S
C4289 H4265 0.951 . S
C4289 C4290 1.366 . S
C4289 C4291 1.388 . S
C4290 C4289 1.366 . S
C4290 C4294 1.385 . S
C4291 H4266 0.951 . S
C4291 C4289 1.388 . S
C4291 C4292 1.366 . S
C4292 C4291 1.366 . S
C4292 C4293 1.414 . S
C4292 C4295 1.499 . S
C4293 H4267 0.950 . S
C4293 C4292 1.414 . S
C4293 C4294 1.374 . S
C4294 H4268 0.950 . S
C4294 C4290 1.385 . S
C4294 C4293 1.374 . S
C4295 C4292 1.499 . S
C4295 C4296 1.373 . S
C4295 C4297 1.389 . S
C4296 H4269 0.950 . S
C4296 C4282 1.377 . S
C4296 C4295 1.373 . S
C4297 C4281 1.377 . S
C4297 C4295 1.389 . S
C4297 C4298 1.524 . S
C4298 C4297 1.524 . S
C4298 C4299 1.397 . S
C4298 C4303 1.363 . S
C4299 H4270 0.950 . S
C4299 C4298 1.397 . S
C4299 C4300 1.334 . S
C4300 H4271 0.950 . S
C4300 C4299 1.334 . S
C4300 C4301 1.287 . S
C4301 C4300 1.287 . S
C4301 C4302 1.524 . S
C4301 H4304 0.999 . S
C4302 H4272 0.950 . S
C4302 C4301 1.524 . S
C4302 C4303 1.415 . S
C4303 H4273 0.950 . S
C4303 C4298 1.363 . S
C4303 C4302 1.415 . S
H4304 C4301 0.999 . S
H4305 C4286 0.913 . S
H4306 C4324 0.951 . S
H4307 C4326 0.951 . S
H4308 C4328 0.950 . S
H4309 C4329 0.950 . S
H4310 C4331 0.950 . S
H4311 C4334 0.950 . S
H4312 C4335 0.950 . S
H4313 C4337 0.950 . S
H4314 C4338 0.950 . S
H4315 C4339 0.951 . S
H4316 C4341 0.951 . S
H4317 C4343 0.950 . S
H4318 C4344 0.950 . S
H4319 C4346 0.950 . S
H4320 C4349 0.950 . S
H4321 C4350 0.950 . S
H4322 C4352 0.950 . S
H4323 C4353 0.950 . S
C4324 H4306 0.951 . S
C4324 C4325 1.366 . S
C4324 C4326 1.388 . S
C4325 C4324 1.366 . S
C4325 C4329 1.385 . S
C4326 H4307 0.951 . S
C4326 C4324 1.388 . S
C4326 C4327 1.366 . S
C4327 C4326 1.366 . S
C4327 C4328 1.414 . S
C4327 C4330 1.499 . S
C4328 H4308 0.950 . S
C4328 C4327 1.414 . S
C4328 C4329 1.374 . S
C4329 H4309 0.950 . S
C4329 C4325 1.385 . S
C4329 C4328 1.374 . S
C4330 C4327 1.499 . S
C4330 C4331 1.373 . S
C4330 C4332 1.389 . S
C4331 H4310 0.950 . S
C4331 C4330 1.373 . S
C4331 C4347 1.377 . S
C4332 C4330 1.389 . S
C4332 C4333 1.524 . S
C4332 C4346 1.377 . S
C4333 C4332 1.524 . S
C4333 C4334 1.397 . S
C4333 C4338 1.363 . S
C4334 H4311 0.950 . S
C4334 C4333 1.397 . S
C4334 C4335 1.334 . S
C4335 H4312 0.950 . S
C4335 C4334 1.334 . S
C4335 C4336 1.287 . S
C4336 C4335 1.287 . S
C4336 C4337 1.524 . S
C4336 H4355 0.913 . S
C4337 H4313 0.950 . S
C4337 C4336 1.524 . S
C4337 C4338 1.415 . S
C4338 H4314 0.950 . S
C4338 C4333 1.363 . S
C4338 C4337 1.415 . S
C4339 H4315 0.951 . S
C4339 C4340 1.366 . S
C4339 C4341 1.388 . S
C4340 C4339 1.366 . S
C4340 C4344 1.385 . S
C4341 H4316 0.951 . S
C4341 C4339 1.388 . S
C4341 C4342 1.366 . S
C4342 C4341 1.366 . S
C4342 C4343 1.414 . S
C4342 C4345 1.499 . S
C4343 H4317 0.950 . S
C4343 C4342 1.414 . S
C4343 C4344 1.374 . S
C4344 H4318 0.950 . S
C4344 C4340 1.385 . S
C4344 C4343 1.374 . S
C4345 C4342 1.499 . S
C4345 C4346 1.373 . S
C4345 C4347 1.389 . S
C4346 H4319 0.950 . S
C4346 C4332 1.377 . S
C4346 C4345 1.373 . S
C4347 C4331 1.377 . S
C4347 C4345 1.389 . S
C4347 C4348 1.524 . S
C4348 C4347 1.524 . S
C4348 C4349 1.397 . S
C4348 C4353 1.363 . S
C4349 H4320 0.950 . S
C4349 C4348 1.397 . S
C4349 C4350 1.334 . S
C4350 H4321 0.950 . S
C4350 C4349 1.334 . S
C4350 C4351 1.287 . S
C4351 C4350 1.287 . S
C4351 C4352 1.524 . S
C4351 H4354 0.999 . S
C4352 H4322 0.950 . S
C4352 C4351 1.524 . S
C4352 C4353 1.415 . S
C4353 H4323 0.950 . S
C4353 C4348 1.363 . S
C4353 C4352 1.415 . S
H4354 C4351 0.999 . S
H4355 C4336 0.913 . S
H4356 C4374 0.951 . S
H4357 C4376 0.951 . S
H4358 C4378 0.950 . S
H4359 C4379 0.950 . S
H4360 C4381 0.950 . S
H4361 C4384 0.950 1_655 S
H4362 C4385 0.950 1_655 S
H4363 C4387 0.950 . S
H4364 C4388 0.950 . S
H4365 C4389 0.951 . S
H4366 C4391 0.951 . S
H4367 C4393 0.950 . S
H4368 C4394 0.950 . S
H4369 C4396 0.950 . S
H4370 C4399 0.950 . S
H4371 C4400 0.950 . S
H4372 C4402 0.950 . S
H4373 C4403 0.950 . S
C4374 H4356 0.951 . S
C4374 C4375 1.366 . S
C4374 C4376 1.388 . S
C4375 C4374 1.366 . S
C4375 C4379 1.385 1_455 S
C4376 H4357 0.951 . S
C4376 C4374 1.388 . S
C4376 C4377 1.366 . S
C4377 C4376 1.366 . S
C4377 C4378 1.414 1_455 S
C4377 C4380 1.499 . S
C4378 H4358 0.950 . S
C4378 C4377 1.414 1_655 S
C4378 C4379 1.374 . S
C4379 H4359 0.950 . S
C4379 C4375 1.385 1_655 S
C4379 C4378 1.374 . S
C4380 C4377 1.499 . S
C4380 C4381 1.373 1_455 S
C4380 C4382 1.389 . S
C4381 H4360 0.950 . S
C4381 C4380 1.373 1_655 S
C4381 C4397 1.364 1_655 S
C4382 C4380 1.389 . S
C4382 C4383 1.524 . S
C4382 C4396 1.377 . S
C4383 C4382 1.524 . S
C4383 C4384 1.397 . S
C4383 C4388 1.363 . S
C4384 H4361 0.950 1_455 S
C4384 C4383 1.397 . S
C4384 C4385 1.334 . S
C4385 H4362 0.950 1_455 S
C4385 C4384 1.334 . S
C4385 C4386 1.287 . S
C4386 C4385 1.287 . S
C4386 C4387 1.524 . S
C4386 H4405 0.913 . S
C4387 H4363 0.950 . S
C4387 C4386 1.524 . S
C4387 C4388 1.415 . S
C4388 H4364 0.950 . S
C4388 C4383 1.363 . S
C4388 C4387 1.415 . S
C4389 H4365 0.951 . S
C4389 C4390 1.366 1_655 S
C4389 C4391 1.388 . S
C4390 C4389 1.366 1_455 S
C4390 C4394 1.385 . S
C4391 H4366 0.951 . S
C4391 C4389 1.388 . S
C4391 C4392 1.366 1_655 S
C4392 C4391 1.366 1_455 S
C4392 C4393 1.414 . S
C4392 C4395 1.499 . S
C4393 H4367 0.950 . S
C4393 C4392 1.414 . S
C4393 C4394 1.374 . S
C4394 H4368 0.950 . S
C4394 C4390 1.385 . S
C4394 C4393 1.374 . S
C4395 C4392 1.499 . S
C4395 C4396 1.373 . S
C4395 C4397 1.411 . S
C4396 H4369 0.950 . S
C4396 C4382 1.377 . S
C4396 C4395 1.373 . S
C4397 C4381 1.364 1_455 S
C4397 C4395 1.411 . S
C4397 C4398 1.519 1_455 S
C4398 C4397 1.519 1_655 S
C4398 C4399 1.397 1_655 S
C4398 C4403 1.363 . S
C4399 H4370 0.950 . S
C4399 C4398 1.397 1_455 S
C4399 C4400 1.334 . S
C4400 H4371 0.950 . S
C4400 C4399 1.334 . S
C4400 C4401 1.287 1_455 S
C4401 C4400 1.287 1_655 S
C4401 C4402 1.524 . S
C4401 H4404 0.999 . S
C4402 H4372 0.950 . S
C4402 C4401 1.524 . S
C4402 C4403 1.415 . S
C4403 H4373 0.950 . S
C4403 C4398 1.363 . S
C4403 C4402 1.415 . S
H4404 C4401 0.999 . S
H4405 C4386 0.913 . S
H4406 C4424 0.951 . S
H4407 C4426 0.951 . S
H4408 C4428 0.950 . S
H4409 C4429 0.950 . S
H4410 C4431 0.950 . S
H4411 C4434 0.950 . S
H4412 C4435 0.950 . S
H4413 C4437 0.950 . S
H4414 C4438 0.950 . S
H4415 C4439 0.951 . S
H4416 C4441 0.951 . S
H4417 C4443 0.950 . S
H4418 C4444 0.950 . S
H4419 C4446 0.950 . S
H4420 C4449 0.950 . S
H4421 C4450 0.950 . S
H4422 C4452 0.950 . S
H4423 C4453 0.950 . S
C4424 H4406 0.951 . S
C4424 C4425 1.366 . S
C4424 C4426 1.388 . S
C4425 C4424 1.366 . S
C4425 C4429 1.385 . S
C4426 H4407 0.951 . S
C4426 C4424 1.388 . S
C4426 C4427 1.366 . S
C4427 C4426 1.366 . S
C4427 C4428 1.414 . S
C4427 C4430 1.499 . S
C4428 H4408 0.950 . S
C4428 C4427 1.414 . S
C4428 C4429 1.374 . S
C4429 H4409 0.950 . S
C4429 C4425 1.385 . S
C4429 C4428 1.374 . S
C4430 C4427 1.499 . S
C4430 C4431 1.373 . S
C4430 C4432 1.389 . S
C4431 H4410 0.950 . S
C4431 C4430 1.373 . S
C4431 C4447 1.377 . S
C4432 C4430 1.389 . S
C4432 C4433 1.524 . S
C4432 C4446 1.377 . S
C4433 C4432 1.524 . S
C4433 C4434 1.397 . S
C4433 C4438 1.363 . S
C4434 H4411 0.950 . S
C4434 C4433 1.397 . S
C4434 C4435 1.334 . S
C4435 H4412 0.950 . S
C4435 C4434 1.334 . S
C4435 C4436 1.287 . S
C4436 C4435 1.287 . S
C4436 C4437 1.524 . S
C4436 H4455 0.913 . S
C4437 H4413 0.950 . S
C4437 C4436 1.524 . S
C4437 C4438 1.415 . S
C4438 H4414 0.950 . S
C4438 C4433 1.363 . S
C4438 C4437 1.415 . S
C4439 H4415 0.951 . S
C4439 C4440 1.366 . S
C4439 C4441 1.388 . S
C4440 C4439 1.366 . S
C4440 C4444 1.385 . S
C4441 H4416 0.951 . S
C4441 C4439 1.388 . S
C4441 C4442 1.366 . S
C4442 C4441 1.366 . S
C4442 C4443 1.414 . S
C4442 C4445 1.499 . S
C4443 H4417 0.950 . S
C4443 C4442 1.414 . S
C4443 C4444 1.374 . S
C4444 H4418 0.950 . S
C4444 C4440 1.385 . S
C4444 C4443 1.374 . S
C4445 C4442 1.499 . S
C4445 C4446 1.373 . S
C4445 C4447 1.389 . S
C4446 H4419 0.950 . S
C4446 C4432 1.377 . S
C4446 C4445 1.373 . S
C4447 C4431 1.377 . S
C4447 C4445 1.389 . S
C4447 C4448 1.524 . S
C4448 C4447 1.524 . S
C4448 C4449 1.397 . S
C4448 C4453 1.363 . S
C4449 H4420 0.950 . S
C4449 C4448 1.397 . S
C4449 C4450 1.334 . S
C4450 H4421 0.950 . S
C4450 C4449 1.334 . S
C4450 C4451 1.287 . S
C4451 C4450 1.287 . S
C4451 C4452 1.524 . S
C4451 H4454 0.999 . S
C4452 H4422 0.950 . S
C4452 C4451 1.524 . S
C4452 C4453 1.415 . S
C4453 H4423 0.950 . S
C4453 C4448 1.363 . S
C4453 C4452 1.415 . S
H4454 C4451 0.999 . S
H4455 C4436 0.913 . S
H4456 C4474 0.951 . S
H4457 C4476 0.951 . S
H4458 C4478 0.950 . S
H4459 C4479 0.950 . S
H4460 C4481 0.950 . S
H4461 C4484 0.950 . S
H4462 C4485 0.950 . S
H4463 C4487 0.950 . S
H4464 C4488 0.950 . S
H4465 C4489 0.951 . S
H4466 C4491 0.951 . S
H4467 C4493 0.950 . S
H4468 C4494 0.950 . S
H4469 C4496 0.950 . S
H4470 C4499 0.950 1_556 S
H4471 C4500 0.950 . S
H4472 C4502 0.950 . S
H4473 C4503 0.950 . S
C4474 H4456 0.951 . S
C4474 C4475 1.366 . S
C4474 C4476 1.388 . S
C4475 C4474 1.366 . S
C4475 C4479 1.385 . S
C4476 H4457 0.951 . S
C4476 C4474 1.388 . S
C4476 C4477 1.366 . S
C4477 C4476 1.366 . S
C4477 C4478 1.414 . S
C4477 C4480 1.499 . S
C4478 H4458 0.950 . S
C4478 C4477 1.414 . S
C4478 C4479 1.374 . S
C4479 H4459 0.950 . S
C4479 C4475 1.385 . S
C4479 C4478 1.374 . S
C4480 C4477 1.499 . S
C4480 C4481 1.373 . S
C4480 C4482 1.389 . S
C4481 H4460 0.950 . S
C4481 C4480 1.373 . S
C4481 C4497 1.377 . S
C4482 C4480 1.389 . S
C4482 C4483 1.524 . S
C4482 C4496 1.377 . S
C4483 C4482 1.524 . S
C4483 C4484 1.397 . S
C4483 C4488 1.363 . S
C4484 H4461 0.950 . S
C4484 C4483 1.397 . S
C4484 C4485 1.334 . S
C4485 H4462 0.950 . S
C4485 C4484 1.334 . S
C4485 C4486 1.287 . S
C4486 C4485 1.287 . S
C4486 C4487 1.524 . S
C4486 H4505 0.913 . S
C4487 H4463 0.950 . S
C4487 C4486 1.524 . S
C4487 C4488 1.415 . S
C4488 H4464 0.950 . S
C4488 C4483 1.363 . S
C4488 C4487 1.415 . S
C4489 H4465 0.951 . S
C4489 C4490 1.366 . S
C4489 C4491 1.388 . S
C4490 C4489 1.366 . S
C4490 C4494 1.385 . S
C4491 H4466 0.951 . S
C4491 C4489 1.388 . S
C4491 C4492 1.366 . S
C4492 C4491 1.366 . S
C4492 C4493 1.414 . S
C4492 C4495 1.499 . S
C4493 H4467 0.950 . S
C4493 C4492 1.414 . S
C4493 C4494 1.374 . S
C4494 H4468 0.950 . S
C4494 C4490 1.385 . S
C4494 C4493 1.374 . S
C4495 C4492 1.499 . S
C4495 C4496 1.373 . S
C4495 C4497 1.389 . S
C4496 H4469 0.950 . S
C4496 C4482 1.377 . S
C4496 C4495 1.373 . S
C4497 C4481 1.377 . S
C4497 C4495 1.389 . S
C4497 C4498 1.524 . S
C4498 C4497 1.524 . S
C4498 C4499 1.397 1_556 S
C4498 C4503 1.363 . S
C4499 H4470 0.950 1_554 S
C4499 C4498 1.397 1_554 S
C4499 C4500 1.334 . S
C4500 H4471 0.950 . S
C4500 C4499 1.334 . S
C4500 C4501 1.287 . S
C4501 C4500 1.287 . S
C4501 C4502 1.524 . S
C4501 H4504 0.999 . S
C4502 H4472 0.950 . S
C4502 C4501 1.524 . S
C4502 C4503 1.415 1_554 S
C4503 H4473 0.950 . S
C4503 C4498 1.363 . S
C4503 C4502 1.415 1_556 S
H4504 C4501 0.999 . S
H4505 C4486 0.913 . S
H4506 C4524 0.951 . S
H4507 C4526 0.951 . S
H4508 C4528 0.950 . S
H4509 C4529 0.950 . S
H4510 C4531 0.950 . S
H4511 C4534 0.950 . S
H4512 C4535 0.950 . S
H4513 C4537 0.950 . S
H4514 C4538 0.950 . S
H4515 C4539 0.951 . S
H4516 C4541 0.951 . S
H4517 C4543 0.950 . S
H4518 C4544 0.950 . S
H4519 C4546 0.950 . S
H4520 C4549 0.950 . S
H4521 C4550 0.950 . S
H4522 C4552 0.950 . S
H4523 C4553 0.950 . S
C4524 H4506 0.951 . S
C4524 C4525 1.366 . S
C4524 C4526 1.388 . S
C4525 C4524 1.366 . S
C4525 C4529 1.385 . S
C4526 H4507 0.951 . S
C4526 C4524 1.388 . S
C4526 C4527 1.366 . S
C4527 C4526 1.366 . S
C4527 C4528 1.414 . S
C4527 C4530 1.499 . S
C4528 H4508 0.950 . S
C4528 C4527 1.414 . S
C4528 C4529 1.374 . S
C4529 H4509 0.950 . S
C4529 C4525 1.385 . S
C4529 C4528 1.374 . S
C4530 C4527 1.499 . S
C4530 C4531 1.373 . S
C4530 C4532 1.389 . S
C4531 H4510 0.950 . S
C4531 C4530 1.373 . S
C4531 C4547 1.377 . S
C4532 C4530 1.389 . S
C4532 C4533 1.524 . S
C4532 C4546 1.377 . S
C4533 C4532 1.524 . S
C4533 C4534 1.397 . S
C4533 C4538 1.363 . S
C4534 H4511 0.950 . S
C4534 C4533 1.397 . S
C4534 C4535 1.334 . S
C4535 H4512 0.950 . S
C4535 C4534 1.334 . S
C4535 C4536 1.287 . S
C4536 C4535 1.287 . S
C4536 C4537 1.524 . S
C4536 H4555 0.913 . S
C4537 H4513 0.950 . S
C4537 C4536 1.524 . S
C4537 C4538 1.415 . S
C4538 H4514 0.950 . S
C4538 C4533 1.363 . S
C4538 C4537 1.415 . S
C4539 H4515 0.951 . S
C4539 C4540 1.366 . S
C4539 C4541 1.388 . S
C4540 C4539 1.366 . S
C4540 C4544 1.385 . S
C4541 H4516 0.951 . S
C4541 C4539 1.388 . S
C4541 C4542 1.366 . S
C4542 C4541 1.366 . S
C4542 C4543 1.414 . S
C4542 C4545 1.499 . S
C4543 H4517 0.950 . S
C4543 C4542 1.414 . S
C4543 C4544 1.374 . S
C4544 H4518 0.950 . S
C4544 C4540 1.385 . S
C4544 C4543 1.374 . S
C4545 C4542 1.499 . S
C4545 C4546 1.373 . S
C4545 C4547 1.389 . S
C4546 H4519 0.950 . S
C4546 C4532 1.377 . S
C4546 C4545 1.373 . S
C4547 C4531 1.377 . S
C4547 C4545 1.389 . S
C4547 C4548 1.524 . S
C4548 C4547 1.524 . S
C4548 C4549 1.397 . S
C4548 C4553 1.363 . S
C4549 H4520 0.950 . S
C4549 C4548 1.397 . S
C4549 C4550 1.334 . S
C4550 H4521 0.950 . S
C4550 C4549 1.334 . S
C4550 C4551 1.287 . S
C4551 C4550 1.287 . S
C4551 C4552 1.524 . S
C4551 H4554 0.999 . S
C4552 H4522 0.950 . S
C4552 C4551 1.524 . S
C4552 C4553 1.415 . S
C4553 H4523 0.950 . S
C4553 C4548 1.363 . S
C4553 C4552 1.415 . S
H4554 C4551 0.999 . S
H4555 C4536 0.913 . S
H4556 C4574 0.976 . S
H4557 C4576 0.956 . S
H4558 C4578 0.950 . S
H4559 C4579 0.950 . S
H4560 C4581 0.950 . S
H4561 C4584 0.950 . S
H4562 C4585 0.950 . S
H4563 C4587 0.950 . S
H4564 C4588 0.950 . S
H4565 C4589 0.951 . S
H4566 C4591 0.951 . S
H4567 C4593 0.950 1_655 S
H4568 C4594 0.950 1_655 S
H4569 C4596 0.950 . S
H4570 C4599 0.950 . S
H4571 C4600 0.950 . S
H4572 C4602 0.950 . S
H4573 C4603 0.950 . S
C4574 H4556 0.976 . S
C4574 C4575 1.366 . S
C4574 C4576 1.388 . S
C4575 C4574 1.366 . S
C4575 C4579 1.385 . S
C4576 H4557 0.956 . S
C4576 C4574 1.388 . S
C4576 C4577 1.366 . S
C4577 C4576 1.366 . S
C4577 C4578 1.414 . S
C4577 C4580 1.499 . S
C4578 H4558 0.950 . S
C4578 C4577 1.414 . S
C4578 C4579 1.374 . S
C4579 H4559 0.950 . S
C4579 C4575 1.385 . S
C4579 C4578 1.374 . S
C4580 C4577 1.499 . S
C4580 C4581 1.373 . S
C4580 C4582 1.389 . S
C4581 H4560 0.950 . S
C4581 C4580 1.373 . S
C4581 C4597 1.377 . S
C4582 C4580 1.389 . S
C4582 C4583 1.524 . S
C4582 C4596 1.377 . S
C4583 C4582 1.524 . S
C4583 C4584 1.397 . S
C4583 C4588 1.363 . S
C4584 H4561 0.950 . S
C4584 C4583 1.397 . S
C4584 C4585 1.334 . S
C4585 H4562 0.950 . S
C4585 C4584 1.334 . S
C4585 C4586 1.287 . S
C4586 C4585 1.287 . S
C4586 C4587 1.524 . S
C4586 H4605 0.913 . S
C4587 H4563 0.950 . S
C4587 C4586 1.524 . S
C4587 C4588 1.415 . S
C4588 H4564 0.950 . S
C4588 C4583 1.363 . S
C4588 C4587 1.415 . S
C4589 H4565 0.951 . S
C4589 C4590 1.366 . S
C4589 C4591 1.388 . S
C4590 C4589 1.366 . S
C4590 C4594 1.385 . S
C4591 H4566 0.951 . S
C4591 C4589 1.388 . S
C4591 C4592 1.366 . S
C4592 C4591 1.366 . S
C4592 C4593 1.414 . S
C4592 C4595 1.499 . S
C4593 H4567 0.950 1_455 S
C4593 C4592 1.414 . S
C4593 C4594 1.374 . S
C4594 H4568 0.950 1_455 S
C4594 C4590 1.385 . S
C4594 C4593 1.374 . S
C4595 C4592 1.499 . S
C4595 C4596 1.373 . S
C4595 C4597 1.389 . S
C4596 H4569 0.950 . S
C4596 C4582 1.377 . S
C4596 C4595 1.373 . S
C4597 C4581 1.377 . S
C4597 C4595 1.389 . S
C4597 C4598 1.524 . S
C4598 C4597 1.524 . S
C4598 C4599 1.397 1_455 S
C4598 C4603 1.363 . S
C4599 H4570 0.950 . S
C4599 C4598 1.397 1_655 S
C4599 C4600 1.334 . S
C4600 H4571 0.950 . S
C4600 C4599 1.334 . S
C4600 C4601 1.287 . S
C4601 C4600 1.287 . S
C4601 C4602 1.524 1_655 S
C4601 H4604 0.999 . S
C4602 H4572 0.950 . S
C4602 C4601 1.524 1_455 S
C4602 C4603 1.415 . S
C4603 H4573 0.950 . S
C4603 C4598 1.363 . S
C4603 C4602 1.415 . S
H4604 C4601 0.999 . S
H4605 C4586 0.913 . S
H4606 C4624 0.951 . S
H4607 C4626 0.951 . S
H4608 C4628 0.950 . S
H4609 C4629 0.950 . S
H4610 C4631 0.950 . S
H4611 C4634 0.950 . S
H4612 C4635 0.950 . S
H4613 C4637 0.950 . S
H4614 C4638 0.950 . S
H4615 C4639 0.951 . S
H4616 C4641 0.951 . S
H4617 C4643 0.950 . S
H4618 C4644 0.950 . S
H4619 C4646 0.950 . S
H4620 C4649 0.950 . S
H4621 C4650 0.950 . S
H4622 C4652 0.950 . S
H4623 C4653 0.950 . S
C4624 H4606 0.951 . S
C4624 C4625 1.366 . S
C4624 C4626 1.388 . S
C4625 C4624 1.366 . S
C4625 C4629 1.385 . S
C4626 H4607 0.951 . S
C4626 C4624 1.388 . S
C4626 C4627 1.366 . S
C4627 C4626 1.366 . S
C4627 C4628 1.414 . S
C4627 C4630 1.499 . S
C4628 H4608 0.950 . S
C4628 C4627 1.414 . S
C4628 C4629 1.374 . S
C4629 H4609 0.950 . S
C4629 C4625 1.385 . S
C4629 C4628 1.374 . S
C4630 C4627 1.499 . S
C4630 C4631 1.373 . S
C4630 C4632 1.389 . S
C4631 H4610 0.950 . S
C4631 C4630 1.373 . S
C4631 C4647 1.377 . S
C4632 C4630 1.389 . S
C4632 C4633 1.524 . S
C4632 C4646 1.377 . S
C4633 C4632 1.524 . S
C4633 C4634 1.397 . S
C4633 C4638 1.363 . S
C4634 H4611 0.950 . S
C4634 C4633 1.397 . S
C4634 C4635 1.334 . S
C4635 H4612 0.950 . S
C4635 C4634 1.334 . S
C4635 C4636 1.287 . S
C4636 C4635 1.287 . S
C4636 C4637 1.524 . S
C4636 H4655 0.913 . S
C4637 H4613 0.950 . S
C4637 C4636 1.524 . S
C4637 C4638 1.415 . S
C4638 H4614 0.950 . S
C4638 C4633 1.363 . S
C4638 C4637 1.415 . S
C4639 H4615 0.951 . S
C4639 C4640 1.366 . S
C4639 C4641 1.388 . S
C4640 C4639 1.366 . S
C4640 C4644 1.385 . S
C4641 H4616 0.951 . S
C4641 C4639 1.388 . S
C4641 C4642 1.366 . S
C4642 C4641 1.366 . S
C4642 C4643 1.414 . S
C4642 C4645 1.499 . S
C4643 H4617 0.950 . S
C4643 C4642 1.414 . S
C4643 C4644 1.374 . S
C4644 H4618 0.950 . S
C4644 C4640 1.385 . S
C4644 C4643 1.374 . S
C4645 C4642 1.499 . S
C4645 C4646 1.373 . S
C4645 C4647 1.389 . S
C4646 H4619 0.950 . S
C4646 C4632 1.377 . S
C4646 C4645 1.373 . S
C4647 C4631 1.377 . S
C4647 C4645 1.389 . S
C4647 C4648 1.524 . S
C4648 C4647 1.524 . S
C4648 C4649 1.397 . S
C4648 C4653 1.363 . S
C4649 H4620 0.950 . S
C4649 C4648 1.397 . S
C4649 C4650 1.334 . S
C4650 H4621 0.950 . S
C4650 C4649 1.334 . S
C4650 C4651 1.287 . S
C4651 C4650 1.287 . S
C4651 C4652 1.524 . S
C4651 H4654 0.999 . S
C4652 H4622 0.950 . S
C4652 C4651 1.524 . S
C4652 C4653 1.415 . S
C4653 H4623 0.950 . S
C4653 C4648 1.363 . S
C4653 C4652 1.415 . S
H4654 C4651 0.999 . S
H4655 C4636 0.913 . S
H4656 C4674 0.951 . S
H4657 C4676 0.951 . S
H4658 C4678 0.950 . S
H4659 C4679 0.950 . S
H4660 C4681 0.950 . S
H4661 C4684 0.950 . S
H4662 C4685 0.950 . S
H4663 C4687 0.950 . S
H4664 C4688 0.950 . S
H4665 C4689 0.951 . S
H4666 C4691 0.951 . S
H4667 C4693 0.950 . S
H4668 C4694 0.950 . S
H4669 C4696 0.950 . S
H4670 C4699 0.950 . S
H4671 C4700 0.950 . S
H4672 C4702 0.950 . S
H4673 C4703 0.950 . S
C4674 H4656 0.951 . S
C4674 C4675 1.366 . S
C4674 C4676 1.388 . S
C4675 C4674 1.366 . S
C4675 C4679 1.385 . S
C4676 H4657 0.951 . S
C4676 C4674 1.388 . S
C4676 C4677 1.366 . S
C4677 C4676 1.366 . S
C4677 C4678 1.414 . S
C4677 C4680 1.499 . S
C4678 H4658 0.950 . S
C4678 C4677 1.414 . S
C4678 C4679 1.374 . S
C4679 H4659 0.950 . S
C4679 C4675 1.385 . S
C4679 C4678 1.374 . S
C4680 C4677 1.499 . S
C4680 C4681 1.373 . S
C4680 C4682 1.389 . S
C4681 H4660 0.950 . S
C4681 C4680 1.373 . S
C4681 C4697 1.377 . S
C4682 C4680 1.389 . S
C4682 C4683 1.524 . S
C4682 C4696 1.377 . S
C4683 C4682 1.524 . S
C4683 C4684 1.397 . S
C4683 C4688 1.363 . S
C4684 H4661 0.950 . S
C4684 C4683 1.397 . S
C4684 C4685 1.334 . S
C4685 H4662 0.950 . S
C4685 C4684 1.334 . S
C4685 C4686 1.287 . S
C4686 C4685 1.287 . S
C4686 C4687 1.524 . S
C4686 H4705 0.913 . S
C4687 H4663 0.950 . S
C4687 C4686 1.524 . S
C4687 C4688 1.415 . S
C4688 H4664 0.950 . S
C4688 C4683 1.363 . S
C4688 C4687 1.415 . S
C4689 H4665 0.951 . S
C4689 C4690 1.366 . S
C4689 C4691 1.388 . S
C4690 C4689 1.366 . S
C4690 C4694 1.385 . S
C4691 H4666 0.951 . S
C4691 C4689 1.388 . S
C4691 C4692 1.366 . S
C4692 C4691 1.366 . S
C4692 C4693 1.414 . S
C4692 C4695 1.499 . S
C4693 H4667 0.950 . S
C4693 C4692 1.414 . S
C4693 C4694 1.374 . S
C4694 H4668 0.950 . S
C4694 C4690 1.385 . S
C4694 C4693 1.374 . S
C4695 C4692 1.499 . S
C4695 C4696 1.373 . S
C4695 C4697 1.389 . S
C4696 H4669 0.950 . S
C4696 C4682 1.377 . S
C4696 C4695 1.373 . S
C4697 C4681 1.377 . S
C4697 C4695 1.389 . S
C4697 C4698 1.524 . S
C4698 C4697 1.524 . S
C4698 C4699 1.397 . S
C4698 C4703 1.363 . S
C4699 H4670 0.950 . S
C4699 C4698 1.397 . S
C4699 C4700 1.334 . S
C4700 H4671 0.950 . S
C4700 C4699 1.334 . S
C4700 C4701 1.287 . S
C4701 C4700 1.287 . S
C4701 C4702 1.524 . S
C4701 H4704 0.999 . S
C4702 H4672 0.950 . S
C4702 C4701 1.524 . S
C4702 C4703 1.415 . S
C4703 H4673 0.950 . S
C4703 C4698 1.363 . S
C4703 C4702 1.415 . S
H4704 C4701 0.999 . S
H4705 C4686 0.913 . S
H4706 C4724 0.951 . S
H4707 C4726 0.951 . S
H4708 C4728 0.950 . S
H4709 C4729 0.950 . S
H4710 C4731 0.950 . S
H4711 C4734 0.950 . S
H4712 C4735 0.950 . S
H4713 C4737 0.950 . S
H4714 C4738 0.950 . S
H4715 C4739 0.951 . S
H4716 C4741 0.951 . S
H4717 C4743 0.950 . S
H4718 C4744 0.950 . S
H4719 C4746 0.950 . S
H4720 C4749 0.950 . S
H4721 C4750 0.950 . S
H4722 C4752 0.950 . S
H4723 C4753 0.950 . S
C4724 H4706 0.951 . S
C4724 C4725 1.366 . S
C4724 C4726 1.388 . S
C4725 C4724 1.366 . S
C4725 C4729 1.385 . S
C4726 H4707 0.951 . S
C4726 C4724 1.388 . S
C4726 C4727 1.366 . S
C4727 C4726 1.366 . S
C4727 C4728 1.414 . S
C4727 C4730 1.499 . S
C4728 H4708 0.950 . S
C4728 C4727 1.414 . S
C4728 C4729 1.374 . S
C4729 H4709 0.950 . S
C4729 C4725 1.385 . S
C4729 C4728 1.374 . S
C4730 C4727 1.499 . S
C4730 C4731 1.373 . S
C4730 C4732 1.389 . S
C4731 H4710 0.950 . S
C4731 C4730 1.373 . S
C4731 C4747 1.377 . S
C4732 C4730 1.389 . S
C4732 C4733 1.524 . S
C4732 C4746 1.377 . S
C4733 C4732 1.524 . S
C4733 C4734 1.397 . S
C4733 C4738 1.363 . S
C4734 H4711 0.950 . S
C4734 C4733 1.397 . S
C4734 C4735 1.334 . S
C4735 H4712 0.950 . S
C4735 C4734 1.334 . S
C4735 C4736 1.287 . S
C4736 C4735 1.287 . S
C4736 C4737 1.524 . S
C4736 H4755 0.913 . S
C4737 H4713 0.950 . S
C4737 C4736 1.524 . S
C4737 C4738 1.415 . S
C4738 H4714 0.950 . S
C4738 C4733 1.363 . S
C4738 C4737 1.415 . S
C4739 H4715 0.951 . S
C4739 C4740 1.366 . S
C4739 C4741 1.388 . S
C4740 C4739 1.366 . S
C4740 C4744 1.385 . S
C4741 H4716 0.951 . S
C4741 C4739 1.388 . S
C4741 C4742 1.366 . S
C4742 C4741 1.366 . S
C4742 C4743 1.414 . S
C4742 C4745 1.499 . S
C4743 H4717 0.950 . S
C4743 C4742 1.414 . S
C4743 C4744 1.374 . S
C4744 H4718 0.950 . S
C4744 C4740 1.385 . S
C4744 C4743 1.374 . S
C4745 C4742 1.499 . S
C4745 C4746 1.373 . S
C4745 C4747 1.389 . S
C4746 H4719 0.950 . S
C4746 C4732 1.377 . S
C4746 C4745 1.373 . S
C4747 C4731 1.377 . S
C4747 C4745 1.389 . S
C4747 C4748 1.524 . S
C4748 C4747 1.524 . S
C4748 C4749 1.397 . S
C4748 C4753 1.363 . S
C4749 H4720 0.950 . S
C4749 C4748 1.397 . S
C4749 C4750 1.334 . S
C4750 H4721 0.950 . S
C4750 C4749 1.334 . S
C4750 C4751 1.287 . S
C4751 C4750 1.287 . S
C4751 C4752 1.524 . S
C4751 H4754 0.999 . S
C4752 H4722 0.950 . S
C4752 C4751 1.524 . S
C4752 C4753 1.415 . S
C4753 H4723 0.950 . S
C4753 C4748 1.363 . S
C4753 C4752 1.415 . S
H4754 C4751 0.999 . S
H4755 C4736 0.913 . S
H4756 C4774 0.951 . S
H4757 C4776 0.951 . S
H4758 C4778 0.950 . S
H4759 C4779 0.950 . S
H4760 C4781 0.950 . S
H4761 C4784 0.950 . S
H4762 C4785 0.950 . S
H4763 C4787 0.950 . S
H4764 C4788 0.950 . S
H4765 C4789 0.951 . S
H4766 C4791 0.951 . S
H4767 C4793 0.950 1_455 S
H4768 C4794 0.950 . S
H4769 C4796 0.950 . S
H4770 C4799 0.950 . S
H4771 C4800 0.950 . S
H4772 C4802 0.950 . S
H4773 C4803 0.950 . S
C4774 H4756 0.951 . S
C4774 C4775 1.366 . S
C4774 C4776 1.388 . S
C4775 C4774 1.366 . S
C4775 C4779 1.385 . S
C4776 H4757 0.951 . S
C4776 C4774 1.388 . S
C4776 C4777 1.366 . S
C4777 C4776 1.366 . S
C4777 C4778 1.414 . S
C4777 C4780 1.499 . S
C4778 H4758 0.950 . S
C4778 C4777 1.414 . S
C4778 C4779 1.374 . S
C4779 H4759 0.950 . S
C4779 C4775 1.385 . S
C4779 C4778 1.374 . S
C4780 C4777 1.499 . S
C4780 C4781 1.373 . S
C4780 C4782 1.389 . S
C4781 H4760 0.950 . S
C4781 C4780 1.373 . S
C4781 C4797 1.377 . S
C4782 C4780 1.389 . S
C4782 C4783 1.524 . S
C4782 C4796 1.377 . S
C4783 C4782 1.524 . S
C4783 C4784 1.397 . S
C4783 C4788 1.363 . S
C4784 H4761 0.950 . S
C4784 C4783 1.397 . S
C4784 C4785 1.334 . S
C4785 H4762 0.950 . S
C4785 C4784 1.334 . S
C4785 C4786 1.287 . S
C4786 C4785 1.287 . S
C4786 C4787 1.524 . S
C4786 H4805 0.913 . S
C4787 H4763 0.950 . S
C4787 C4786 1.524 . S
C4787 C4788 1.415 . S
C4788 H4764 0.950 . S
C4788 C4783 1.363 . S
C4788 C4787 1.415 . S
C4789 H4765 0.951 . S
C4789 C4790 1.366 . S
C4789 C4791 1.388 . S
C4790 C4789 1.366 . S
C4790 C4794 1.385 1_655 S
C4791 H4766 0.951 . S
C4791 C4789 1.388 . S
C4791 C4792 1.366 . S
C4792 C4791 1.366 . S
C4792 C4793 1.414 . S
C4792 C4795 1.499 . S
C4793 H4767 0.950 1_655 S
C4793 C4792 1.414 . S
C4793 C4794 1.374 1_655 S
C4794 H4768 0.950 . S
C4794 C4790 1.385 1_455 S
C4794 C4793 1.374 1_455 S
C4795 C4792 1.499 . S
C4795 C4796 1.373 . S
C4795 C4797 1.389 . S
C4796 H4769 0.950 . S
C4796 C4782 1.377 . S
C4796 C4795 1.373 . S
C4797 C4781 1.377 . S
C4797 C4795 1.389 . S
C4797 C4798 1.524 . S
C4798 C4797 1.524 . S
C4798 C4799 1.397 . S
C4798 C4803 1.363 . S
C4799 H4770 0.950 . S
C4799 C4798 1.397 . S
C4799 C4800 1.334 . S
C4800 H4771 0.950 . S
C4800 C4799 1.334 . S
C4800 C4801 1.287 . S
C4801 C4800 1.287 . S
C4801 C4802 1.524 . S
C4801 H4804 0.999 . S
C4802 H4772 0.950 . S
C4802 C4801 1.524 . S
C4802 C4803 1.415 . S
C4803 H4773 0.950 . S
C4803 C4798 1.363 . S
C4803 C4802 1.415 . S
H4804 C4801 0.999 . S
H4805 C4786 0.913 . S
H4806 C4824 0.951 . S
H4807 C4826 0.951 . S
H4808 C4828 0.950 . S
H4809 C4829 0.950 . S
H4810 C4831 0.950 . S
H4811 C4834 0.950 . S
H4812 C4835 0.950 . S
H4813 C4837 0.950 . S
H4814 C4838 0.950 . S
H4815 C4839 0.951 . S
H4816 C4841 0.951 . S
H4817 C4843 0.950 . S
H4818 C4844 0.950 . S
H4819 C4846 0.950 . S
H4820 C4849 0.950 . S
H4821 C4850 0.950 . S
H4822 C4852 0.950 . S
H4823 C4853 0.950 . S
C4824 H4806 0.951 . S
C4824 C4825 1.366 . S
C4824 C4826 1.388 . S
C4825 C4824 1.366 . S
C4825 C4829 1.385 . S
C4826 H4807 0.951 . S
C4826 C4824 1.388 . S
C4826 C4827 1.366 . S
C4827 C4826 1.366 . S
C4827 C4828 1.414 . S
C4827 C4830 1.499 . S
C4828 H4808 0.950 . S
C4828 C4827 1.414 . S
C4828 C4829 1.374 . S
C4829 H4809 0.950 . S
C4829 C4825 1.385 . S
C4829 C4828 1.374 . S
C4830 C4827 1.499 . S
C4830 C4831 1.373 . S
C4830 C4832 1.389 . S
C4831 H4810 0.950 . S
C4831 C4830 1.373 . S
C4831 C4847 1.377 . S
C4832 C4830 1.389 . S
C4832 C4833 1.524 . S
C4832 C4846 1.377 . S
C4833 C4832 1.524 . S
C4833 C4834 1.397 . S
C4833 C4838 1.363 . S
C4834 H4811 0.950 . S
C4834 C4833 1.397 . S
C4834 C4835 1.334 . S
C4835 H4812 0.950 . S
C4835 C4834 1.334 . S
C4835 C4836 1.287 . S
C4836 C4835 1.287 . S
C4836 C4837 1.524 . S
C4836 H4855 0.913 . S
C4837 H4813 0.950 . S
C4837 C4836 1.524 . S
C4837 C4838 1.415 . S
C4838 H4814 0.950 . S
C4838 C4833 1.363 . S
C4838 C4837 1.415 . S
C4839 H4815 0.951 . S
C4839 C4840 1.366 . S
C4839 C4841 1.388 . S
C4840 C4839 1.366 . S
C4840 C4844 1.385 . S
C4841 H4816 0.951 . S
C4841 C4839 1.388 . S
C4841 C4842 1.366 . S
C4842 C4841 1.366 . S
C4842 C4843 1.414 . S
C4842 C4845 1.499 . S
C4843 H4817 0.950 . S
C4843 C4842 1.414 . S
C4843 C4844 1.374 . S
C4844 H4818 0.950 . S
C4844 C4840 1.385 . S
C4844 C4843 1.374 . S
C4845 C4842 1.499 . S
C4845 C4846 1.373 . S
C4845 C4847 1.389 . S
C4846 H4819 0.950 . S
C4846 C4832 1.377 . S
C4846 C4845 1.373 . S
C4847 C4831 1.377 . S
C4847 C4845 1.389 . S
C4847 C4848 1.524 . S
C4848 C4847 1.524 . S
C4848 C4849 1.397 . S
C4848 C4853 1.363 . S
C4849 H4820 0.950 . S
C4849 C4848 1.397 . S
C4849 C4850 1.334 . S
C4850 H4821 0.950 . S
C4850 C4849 1.334 . S
C4850 C4851 1.287 . S
C4851 C4850 1.287 . S
C4851 C4852 1.524 . S
C4851 H4854 0.999 . S
C4852 H4822 0.950 . S
C4852 C4851 1.524 . S
C4852 C4853 1.415 . S
C4853 H4823 0.950 . S
C4853 C4848 1.363 . S
C4853 C4852 1.415 . S
H4854 C4851 0.999 . S
H4855 C4836 0.913 . S
H4856 C4874 0.951 . S
H4857 C4876 0.951 . S
H4858 C4878 0.950 . S
H4859 C4879 0.950 . S
H4860 C4881 0.950 . S
H4861 C4884 0.950 . S
H4862 C4885 0.950 . S
H4863 C4887 0.950 . S
H4864 C4888 0.950 . S
H4865 C4889 0.951 . S
H4866 C4891 0.951 . S
H4867 C4893 0.950 . S
H4868 C4894 0.950 . S
H4869 C4896 0.950 . S
H4870 C4899 0.950 . S
H4871 C4900 0.950 . S
H4872 C4902 0.950 . S
H4873 C4903 0.950 . S
C4874 H4856 0.951 . S
C4874 C4875 1.366 . S
C4874 C4876 1.388 . S
C4875 C4874 1.366 . S
C4875 C4879 1.385 . S
C4876 H4857 0.951 . S
C4876 C4874 1.388 . S
C4876 C4877 1.366 . S
C4877 C4876 1.366 . S
C4877 C4878 1.414 . S
C4877 C4880 1.499 . S
C4878 H4858 0.950 . S
C4878 C4877 1.414 . S
C4878 C4879 1.374 . S
C4879 H4859 0.950 . S
C4879 C4875 1.385 . S
C4879 C4878 1.374 . S
C4880 C4877 1.499 . S
C4880 C4881 1.373 . S
C4880 C4882 1.389 . S
C4881 H4860 0.950 . S
C4881 C4880 1.373 . S
C4881 C4897 1.377 . S
C4882 C4880 1.389 . S
C4882 C4883 1.524 . S
C4882 C4896 1.377 . S
C4883 C4882 1.524 . S
C4883 C4884 1.397 . S
C4883 C4888 1.363 . S
C4884 H4861 0.950 . S
C4884 C4883 1.397 . S
C4884 C4885 1.334 . S
C4885 H4862 0.950 . S
C4885 C4884 1.334 . S
C4885 C4886 1.287 . S
C4886 C4885 1.287 . S
C4886 C4887 1.524 . S
C4886 H4905 0.913 . S
C4887 H4863 0.950 . S
C4887 C4886 1.524 . S
C4887 C4888 1.415 . S
C4888 H4864 0.950 . S
C4888 C4883 1.363 . S
C4888 C4887 1.415 . S
C4889 H4865 0.951 . S
C4889 C4890 1.366 . S
C4889 C4891 1.388 . S
C4890 C4889 1.366 . S
C4890 C4894 1.385 . S
C4891 H4866 0.951 . S
C4891 C4889 1.388 . S
C4891 C4892 1.366 . S
C4892 C4891 1.366 . S
C4892 C4893 1.414 . S
C4892 C4895 1.499 . S
C4893 H4867 0.950 . S
C4893 C4892 1.414 . S
C4893 C4894 1.374 . S
C4894 H4868 0.950 . S
C4894 C4890 1.385 . S
C4894 C4893 1.374 . S
C4895 C4892 1.499 . S
C4895 C4896 1.373 . S
C4895 C4897 1.389 . S
C4896 H4869 0.950 . S
C4896 C4882 1.377 . S
C4896 C4895 1.373 . S
C4897 C4881 1.377 . S
C4897 C4895 1.389 . S
C4897 C4898 1.524 . S
C4898 C4897 1.524 . S
C4898 C4899 1.397 . S
C4898 C4903 1.363 . S
C4899 H4870 0.950 . S
C4899 C4898 1.397 . S
C4899 C4900 1.334 . S
C4900 H4871 0.950 . S
C4900 C4899 1.334 . S
C4900 C4901 1.287 . S
C4901 C4900 1.287 . S
C4901 C4902 1.524 . S
C4901 H4904 0.999 . S
C4902 H4872 0.950 . S
C4902 C4901 1.524 . S
C4902 C4903 1.415 . S
C4903 H4873 0.950 . S
C4903 C4898 1.363 . S
C4903 C4902 1.415 . S
H4904 C4901 0.999 . S
H4905 C4886 0.913 . S
H4906 C4924 0.951 . S
H4907 C4926 0.951 . S
H4908 C4928 0.950 . S
H4909 C4929 0.950 . S
H4910 C4931 0.950 . S
H4911 C4934 0.950 . S
H4912 C4935 0.950 . S
H4913 C4937 0.950 . S
H4914 C4938 0.950 . S
H4915 C4939 0.951 . S
H4916 C4941 0.951 . S
H4917 C4943 0.950 . S
H4918 C4944 0.950 . S
H4919 C4946 0.950 . S
H4920 C4949 0.950 . S
H4921 C4950 0.950 . S
H4922 C4952 0.950 . S
H4923 C4953 0.950 . S
C4924 H4906 0.951 . S
C4924 C4925 1.366 . S
C4924 C4926 1.388 . S
C4925 C4924 1.366 . S
C4925 C4929 1.385 . S
C4926 H4907 0.951 . S
C4926 C4924 1.388 . S
C4926 C4927 1.366 . S
C4927 C4926 1.366 . S
C4927 C4928 1.414 . S
C4927 C4930 1.499 . S
C4928 H4908 0.950 . S
C4928 C4927 1.414 . S
C4928 C4929 1.374 . S
C4929 H4909 0.950 . S
C4929 C4925 1.385 . S
C4929 C4928 1.374 . S
C4930 C4927 1.499 . S
C4930 C4931 1.373 . S
C4930 C4932 1.389 . S
C4931 H4910 0.950 . S
C4931 C4930 1.373 . S
C4931 C4947 1.377 . S
C4932 C4930 1.389 . S
C4932 C4933 1.524 . S
C4932 C4946 1.377 . S
C4933 C4932 1.524 . S
C4933 C4934 1.397 . S
C4933 C4938 1.363 . S
C4934 H4911 0.950 . S
C4934 C4933 1.397 . S
C4934 C4935 1.334 . S
C4935 H4912 0.950 . S
C4935 C4934 1.334 . S
C4935 C4936 1.287 . S
C4936 C4935 1.287 . S
C4936 C4937 1.524 . S
C4936 H4955 0.913 . S
C4937 H4913 0.950 . S
C4937 C4936 1.524 . S
C4937 C4938 1.415 . S
C4938 H4914 0.950 . S
C4938 C4933 1.363 . S
C4938 C4937 1.415 . S
C4939 H4915 0.951 . S
C4939 C4940 1.366 . S
C4939 C4941 1.388 . S
C4940 C4939 1.366 . S
C4940 C4944 1.385 . S
C4941 H4916 0.951 . S
C4941 C4939 1.388 . S
C4941 C4942 1.366 . S
C4942 C4941 1.366 . S
C4942 C4943 1.414 . S
C4942 C4945 1.499 . S
C4943 H4917 0.950 . S
C4943 C4942 1.414 . S
C4943 C4944 1.374 . S
C4944 H4918 0.950 . S
C4944 C4940 1.385 . S
C4944 C4943 1.374 . S
C4945 C4942 1.499 . S
C4945 C4946 1.373 . S
C4945 C4947 1.389 . S
C4946 H4919 0.950 . S
C4946 C4932 1.377 . S
C4946 C4945 1.373 . S
C4947 C4931 1.377 . S
C4947 C4945 1.389 . S
C4947 C4948 1.524 . S
C4948 C4947 1.524 . S
C4948 C4949 1.397 . S
C4948 C4953 1.363 . S
C4949 H4920 0.950 . S
C4949 C4948 1.397 . S
C4949 C4950 1.334 . S
C4950 H4921 0.950 . S
C4950 C4949 1.334 . S
C4950 C4951 1.287 . S
C4951 C4950 1.287 . S
C4951 C4952 1.524 . S
C4951 H4954 0.999 . S
C4952 H4922 0.950 . S
C4952 C4951 1.524 . S
C4952 C4953 1.415 . S
C4953 H4923 0.950 . S
C4953 C4948 1.363 . S
C4953 C4952 1.415 . S
H4954 C4951 0.999 . S
H4955 C4936 0.913 . S
H4956 C4974 0.951 . S
H4957 C4976 0.951 . S
H4958 C4978 0.950 . S
H4959 C4979 0.950 . S
H4960 C4981 0.950 . S
H4961 C4984 0.950 . S
H4962 C4985 0.950 . S
H4963 C4987 0.950 . S
H4964 C4988 0.950 . S
H4965 C4989 0.951 . S
H4966 C4991 0.951 . S
H4967 C4993 0.950 . S
H4968 C4994 0.950 1_455 S
H4969 C4996 0.950 . S
H4970 C4999 0.950 . S
H4971 C5000 0.950 . S
H4972 C5002 0.950 . S
H4973 C5003 0.950 . S
C4974 H4956 0.951 . S
C4974 C4975 1.366 . S
C4974 C4976 1.388 . S
C4975 C4974 1.366 . S
C4975 C4979 1.385 . S
C4976 H4957 0.951 . S
C4976 C4974 1.388 . S
C4976 C4977 1.366 . S
C4977 C4976 1.366 . S
C4977 C4978 1.414 . S
C4977 C4980 1.499 . S
C4978 H4958 0.950 . S
C4978 C4977 1.414 . S
C4978 C4979 1.374 . S
C4979 H4959 0.950 . S
C4979 C4975 1.385 . S
C4979 C4978 1.374 . S
C4980 C4977 1.499 . S
C4980 C4981 1.373 . S
C4980 C4982 1.389 . S
C4981 H4960 0.950 . S
C4981 C4980 1.373 . S
C4981 C4997 1.377 . S
C4982 C4980 1.389 . S
C4982 C4983 1.524 . S
C4982 C4996 1.377 . S
C4983 C4982 1.524 . S
C4983 C4984 1.397 . S
C4983 C4988 1.363 . S
C4984 H4961 0.950 . S
C4984 C4983 1.397 . S
C4984 C4985 1.334 . S
C4985 H4962 0.950 . S
C4985 C4984 1.334 . S
C4985 C4986 1.287 . S
C4986 C4985 1.287 . S
C4986 C4987 1.524 . S
C4986 H5005 0.913 . S
C4987 H4963 0.950 . S
C4987 C4986 1.524 . S
C4987 C4988 1.415 . S
C4988 H4964 0.950 . S
C4988 C4983 1.363 . S
C4988 C4987 1.415 . S
C4989 H4965 0.951 . S
C4989 C4990 1.366 . S
C4989 C4991 1.388 . S
C4990 C4989 1.366 . S
C4990 C4994 1.385 . S
C4991 H4966 0.951 . S
C4991 C4989 1.388 . S
C4991 C4992 1.366 . S
C4992 C4991 1.366 . S
C4992 C4993 1.414 . S
C4992 C4995 1.499 . S
C4993 H4967 0.950 . S
C4993 C4992 1.414 . S
C4993 C4994 1.374 . S
C4994 H4968 0.950 1_655 S
C4994 C4990 1.385 . S
C4994 C4993 1.374 . S
C4995 C4992 1.499 . S
C4995 C4996 1.373 . S
C4995 C4997 1.389 . S
C4996 H4969 0.950 . S
C4996 C4982 1.377 . S
C4996 C4995 1.373 . S
C4997 C4981 1.377 . S
C4997 C4995 1.389 . S
C4997 C4998 1.524 . S
C4998 C4997 1.524 . S
C4998 C4999 1.397 . S
C4998 C5003 1.363 . S
C4999 H4970 0.950 . S
C4999 C4998 1.397 . S
C4999 C5000 1.334 . S
C5000 H4971 0.950 . S
C5000 C4999 1.334 . S
C5000 C5001 1.287 . S
C5001 C5000 1.287 . S
C5001 C5002 1.524 . S
C5001 H5004 0.999 . S
C5002 H4972 0.950 . S
C5002 C5001 1.524 . S
C5002 C5003 1.415 . S
C5003 H4973 0.950 . S
C5003 C4998 1.363 . S
C5003 C5002 1.415 . S
H5004 C5001 0.999 . S
H5005 C4986 0.913 . S
H5006 C5024 0.951 . S
H5007 C5026 0.951 . S
H5008 C5028 0.950 . S
H5009 C5029 0.950 . S
H5010 C5031 0.950 . S
H5011 C5034 0.950 . S
H5012 C5035 0.950 . S
H5013 C5037 0.950 . S
H5014 C5038 0.950 . S
H5015 C5039 0.951 . S
H5016 C5041 0.951 . S
H5017 C5043 0.950 . S
H5018 C5044 0.950 . S
H5019 C5046 0.950 . S
H5020 C5049 0.950 . S
H5021 C5050 0.950 . S
H5022 C5052 0.950 . S
H5023 C5053 0.950 . S
C5024 H5006 0.951 . S
C5024 C5025 1.366 . S
C5024 C5026 1.388 . S
C5025 C5024 1.366 . S
C5025 C5029 1.385 . S
C5026 H5007 0.951 . S
C5026 C5024 1.388 . S
C5026 C5027 1.366 . S
C5027 C5026 1.366 . S
C5027 C5028 1.414 . S
C5027 C5030 1.499 . S
C5028 H5008 0.950 . S
C5028 C5027 1.414 . S
C5028 C5029 1.374 . S
C5029 H5009 0.950 . S
C5029 C5025 1.385 . S
C5029 C5028 1.374 . S
C5030 C5027 1.499 . S
C5030 C5031 1.373 . S
C5030 C5032 1.389 . S
C5031 H5010 0.950 . S
C5031 C5030 1.373 . S
C5031 C5047 1.377 . S
C5032 C5030 1.389 . S
C5032 C5033 1.524 . S
C5032 C5046 1.377 . S
C5033 C5032 1.524 . S
C5033 C5034 1.397 . S
C5033 C5038 1.363 . S
C5034 H5011 0.950 . S
C5034 C5033 1.397 . S
C5034 C5035 1.334 . S
C5035 H5012 0.950 . S
C5035 C5034 1.334 . S
C5035 C5036 1.287 . S
C5036 C5035 1.287 . S
C5036 C5037 1.524 . S
C5036 H5055 0.913 . S
C5037 H5013 0.950 . S
C5037 C5036 1.524 . S
C5037 C5038 1.415 . S
C5038 H5014 0.950 . S
C5038 C5033 1.363 . S
C5038 C5037 1.415 . S
C5039 H5015 0.951 . S
C5039 C5040 1.366 . S
C5039 C5041 1.388 . S
C5040 C5039 1.366 . S
C5040 C5044 1.385 . S
C5041 H5016 0.951 . S
C5041 C5039 1.388 . S
C5041 C5042 1.366 . S
C5042 C5041 1.366 . S
C5042 C5043 1.414 . S
C5042 C5045 1.499 . S
C5043 H5017 0.950 . S
C5043 C5042 1.414 . S
C5043 C5044 1.374 . S
C5044 H5018 0.950 . S
C5044 C5040 1.385 . S
C5044 C5043 1.374 . S
C5045 C5042 1.499 . S
C5045 C5046 1.373 . S
C5045 C5047 1.389 . S
C5046 H5019 0.950 . S
C5046 C5032 1.377 . S
C5046 C5045 1.373 . S
C5047 C5031 1.377 . S
C5047 C5045 1.389 . S
C5047 C5048 1.524 . S
C5048 C5047 1.524 . S
C5048 C5049 1.397 . S
C5048 C5053 1.363 . S
C5049 H5020 0.950 . S
C5049 C5048 1.397 . S
C5049 C5050 1.334 . S
C5050 H5021 0.950 . S
C5050 C5049 1.334 . S
C5050 C5051 1.287 . S
C5051 C5050 1.287 . S
C5051 C5052 1.524 . S
C5051 H5054 0.999 . S
C5052 H5022 0.950 . S
C5052 C5051 1.524 . S
C5052 C5053 1.415 . S
C5053 H5023 0.950 . S
C5053 C5048 1.363 . S
C5053 C5052 1.415 . S
H5054 C5051 0.999 . S
H5055 C5036 0.913 . S
H5056 C5074 0.951 . S
H5057 C5076 0.951 . S
H5058 C5078 0.950 . S
H5059 C5079 0.950 . S
H5060 C5081 0.950 . S
H5061 C5084 0.950 . S
H5062 C5085 0.950 . S
H5063 C5087 0.950 . S
H5064 C5088 0.950 . S
H5065 C5089 0.951 . S
H5066 C5091 0.951 . S
H5067 C5093 0.950 . S
H5068 C5094 0.950 . S
H5069 C5096 0.950 . S
H5070 C5099 0.950 . S
H5071 C5100 0.950 . S
H5072 C5102 0.950 . S
H5073 C5103 0.950 . S
C5074 H5056 0.951 . S
C5074 C5075 1.366 . S
C5074 C5076 1.388 . S
C5075 C5074 1.366 . S
C5075 C5079 1.385 . S
C5076 H5057 0.951 . S
C5076 C5074 1.388 . S
C5076 C5077 1.366 . S
C5077 C5076 1.366 . S
C5077 C5078 1.414 . S
C5077 C5080 1.499 . S
C5078 H5058 0.950 . S
C5078 C5077 1.414 . S
C5078 C5079 1.374 . S
C5079 H5059 0.950 . S
C5079 C5075 1.385 . S
C5079 C5078 1.374 . S
C5080 C5077 1.499 . S
C5080 C5081 1.373 . S
C5080 C5082 1.389 . S
C5081 H5060 0.950 . S
C5081 C5080 1.373 . S
C5081 C5097 1.377 . S
C5082 C5080 1.389 . S
C5082 C5083 1.524 . S
C5082 C5096 1.377 . S
C5083 C5082 1.524 . S
C5083 C5084 1.397 . S
C5083 C5088 1.363 . S
C5084 H5061 0.950 . S
C5084 C5083 1.397 . S
C5084 C5085 1.334 . S
C5085 H5062 0.950 . S
C5085 C5084 1.334 . S
C5085 C5086 1.287 . S
C5086 C5085 1.287 . S
C5086 C5087 1.524 . S
C5086 H5105 0.913 . S
C5087 H5063 0.950 . S
C5087 C5086 1.524 . S
C5087 C5088 1.415 . S
C5088 H5064 0.950 . S
C5088 C5083 1.363 . S
C5088 C5087 1.415 . S
C5089 H5065 0.951 . S
C5089 C5090 1.366 . S
C5089 C5091 1.388 . S
C5090 C5089 1.366 . S
C5090 C5094 1.385 . S
C5091 H5066 0.951 . S
C5091 C5089 1.388 . S
C5091 C5092 1.366 . S
C5092 C5091 1.366 . S
C5092 C5093 1.414 . S
C5092 C5095 1.499 . S
C5093 H5067 0.950 . S
C5093 C5092 1.414 . S
C5093 C5094 1.374 . S
C5094 H5068 0.950 . S
C5094 C5090 1.385 . S
C5094 C5093 1.374 . S
C5095 C5092 1.499 . S
C5095 C5096 1.373 . S
C5095 C5097 1.389 . S
C5096 H5069 0.950 . S
C5096 C5082 1.377 . S
C5096 C5095 1.373 . S
C5097 C5081 1.377 . S
C5097 C5095 1.389 . S
C5097 C5098 1.524 . S
C5098 C5097 1.524 . S
C5098 C5099 1.397 . S
C5098 C5103 1.363 . S
C5099 H5070 0.950 . S
C5099 C5098 1.397 . S
C5099 C5100 1.334 . S
C5100 H5071 0.950 . S
C5100 C5099 1.334 . S
C5100 C5101 1.287 . S
C5101 C5100 1.287 . S
C5101 C5102 1.524 . S
C5101 H5104 0.999 . S
C5102 H5072 0.950 . S
C5102 C5101 1.524 . S
C5102 C5103 1.415 . S
C5103 H5073 0.950 . S
C5103 C5098 1.363 . S
C5103 C5102 1.415 . S
H5104 C5101 0.999 . S
H5105 C5086 0.913 . S
H5106 C5124 0.951 . S
H5107 C5126 0.951 . S
H5108 C5128 0.950 . S
H5109 C5129 0.950 . S
H5110 C5131 0.950 . S
H5111 C5134 0.950 . S
H5112 C5135 0.950 . S
H5113 C5137 0.950 1_545 S
H5114 C5138 0.964 . S
H5115 C5139 0.951 . S
H5116 C5141 0.951 . S
H5117 C5143 0.947 1_545 S
H5118 C5144 0.950 . S
H5119 C5146 0.950 . S
H5120 C5149 0.950 . S
H5121 C5150 0.950 . S
H5122 C5152 0.950 . S
H5123 C5153 0.950 . S
C5124 H5106 0.951 . S
C5124 C5125 1.366 . S
C5124 C5126 1.388 . S
C5125 C5124 1.366 . S
C5125 C5129 1.385 . S
C5126 H5107 0.951 . S
C5126 C5124 1.388 . S
C5126 C5127 1.366 . S
C5127 C5126 1.366 . S
C5127 C5128 1.414 . S
C5127 C5130 1.499 . S
C5128 H5108 0.950 . S
C5128 C5127 1.414 . S
C5128 C5129 1.374 . S
C5129 H5109 0.950 . S
C5129 C5125 1.385 . S
C5129 C5128 1.374 . S
C5130 C5127 1.499 . S
C5130 C5131 1.373 . S
C5130 C5132 1.389 . S
C5131 H5110 0.950 . S
C5131 C5130 1.373 . S
C5131 C5147 1.377 . S
C5132 C5130 1.389 . S
C5132 C5133 1.524 . S
C5132 C5146 1.377 . S
C5133 C5132 1.524 . S
C5133 C5134 1.397 . S
C5133 C5138 1.363 . S
C5134 H5111 0.950 . S
C5134 C5133 1.397 . S
C5134 C5135 1.334 . S
C5135 H5112 0.950 . S
C5135 C5134 1.334 . S
C5135 C5136 1.287 . S
C5136 C5135 1.287 . S
C5136 C5137 1.524 . S
C5136 H5155 0.913 . S
C5137 H5113 0.950 1_565 S
C5137 C5136 1.524 . S
C5137 C5138 1.415 . S
C5138 H5114 0.964 . S
C5138 C5133 1.363 . S
C5138 C5137 1.415 . S
C5139 H5115 0.951 . S
C5139 C5140 1.395 . S
C5139 C5141 1.388 . S
C5140 C5139 1.395 . S
C5140 C5144 1.366 1_565 S
C5141 H5116 0.951 . S
C5141 C5139 1.388 . S
C5141 C5142 1.366 . S
C5142 C5141 1.366 . S
C5142 C5143 1.420 . S
C5142 C5145 1.499 . S
C5143 H5117 0.947 1_565 S
C5143 C5142 1.420 . S
C5143 C5144 1.372 1_565 S
C5144 H5118 0.950 . S
C5144 C5140 1.366 1_545 S
C5144 C5143 1.372 1_545 S
C5145 C5142 1.499 . S
C5145 C5146 1.373 . S
C5145 C5147 1.389 . S
C5146 H5119 0.950 . S
C5146 C5132 1.377 . S
C5146 C5145 1.373 . S
C5147 C5131 1.377 . S
C5147 C5145 1.389 . S
C5147 C5148 1.524 . S
C5148 C5147 1.524 . S
C5148 C5149 1.397 . S
C5148 C5153 1.363 . S
C5149 H5120 0.950 . S
C5149 C5148 1.397 . S
C5149 C5150 1.334 . S
C5150 H5121 0.950 . S
C5150 C5149 1.334 . S
C5150 C5151 1.287 . S
C5151 C5150 1.287 . S
C5151 C5152 1.524 . S
C5151 H5154 0.999 . S
C5152 H5122 0.950 . S
C5152 C5151 1.524 . S
C5152 C5153 1.415 . S
C5153 H5123 0.950 . S
C5153 C5148 1.363 . S
C5153 C5152 1.415 . S
H5154 C5151 0.999 . S
H5155 C5136 0.913 . S
H5156 C5174 0.951 . S
H5157 C5176 0.951 . S
H5158 C5178 0.950 . S
H5159 C5179 0.950 . S
H5160 C5181 0.950 . S
H5161 C5184 0.950 . S
H5162 C5185 0.950 . S
H5163 C5187 0.950 . S
H5164 C5188 0.950 . S
H5165 C5189 0.951 . S
H5166 C5191 0.951 . S
H5167 C5193 0.950 . S
H5168 C5194 0.950 . S
H5169 C5196 0.950 . S
H5170 C5199 0.950 . S
H5171 C5200 0.950 . S
H5172 C5202 0.950 . S
H5173 C5203 0.950 . S
C5174 H5156 0.951 . S
C5174 C5175 1.366 . S
C5174 C5176 1.388 . S
C5175 C5174 1.366 . S
C5175 C5179 1.385 . S
C5176 H5157 0.951 . S
C5176 C5174 1.388 . S
C5176 C5177 1.366 . S
C5177 C5176 1.366 . S
C5177 C5178 1.414 . S
C5177 C5180 1.499 . S
C5178 H5158 0.950 . S
C5178 C5177 1.414 . S
C5178 C5179 1.374 . S
C5179 H5159 0.950 . S
C5179 C5175 1.385 . S
C5179 C5178 1.374 . S
C5180 C5177 1.499 . S
C5180 C5181 1.373 . S
C5180 C5182 1.389 . S
C5181 H5160 0.950 . S
C5181 C5180 1.373 . S
C5181 C5197 1.377 . S
C5182 C5180 1.389 . S
C5182 C5183 1.524 . S
C5182 C5196 1.377 . S
C5183 C5182 1.524 . S
C5183 C5184 1.397 . S
C5183 C5188 1.363 . S
C5184 H5161 0.950 . S
C5184 C5183 1.397 . S
C5184 C5185 1.334 . S
C5185 H5162 0.950 . S
C5185 C5184 1.334 . S
C5185 C5186 1.287 . S
C5186 C5185 1.287 . S
C5186 C5187 1.524 . S
C5186 H5205 0.913 . S
C5187 H5163 0.950 . S
C5187 C5186 1.524 . S
C5187 C5188 1.415 . S
C5188 H5164 0.950 . S
C5188 C5183 1.363 . S
C5188 C5187 1.415 . S
C5189 H5165 0.951 . S
C5189 C5190 1.366 . S
C5189 C5191 1.388 . S
C5190 C5189 1.366 . S
C5190 C5194 1.385 . S
C5191 H5166 0.951 . S
C5191 C5189 1.388 . S
C5191 C5192 1.366 . S
C5192 C5191 1.366 . S
C5192 C5193 1.414 . S
C5192 C5195 1.499 . S
C5193 H5167 0.950 . S
C5193 C5192 1.414 . S
C5193 C5194 1.374 . S
C5194 H5168 0.950 . S
C5194 C5190 1.385 . S
C5194 C5193 1.374 . S
C5195 C5192 1.499 . S
C5195 C5196 1.373 . S
C5195 C5197 1.389 . S
C5196 H5169 0.950 . S
C5196 C5182 1.377 . S
C5196 C5195 1.373 . S
C5197 C5181 1.377 . S
C5197 C5195 1.389 . S
C5197 C5198 1.524 . S
C5198 C5197 1.524 . S
C5198 C5199 1.397 . S
C5198 C5203 1.363 . S
C5199 H5170 0.950 . S
C5199 C5198 1.397 . S
C5199 C5200 1.334 . S
C5200 H5171 0.950 . S
C5200 C5199 1.334 . S
C5200 C5201 1.287 . S
C5201 C5200 1.287 . S
C5201 C5202 1.524 . S
C5201 H5204 0.999 . S
C5202 H5172 0.950 . S
C5202 C5201 1.524 . S
C5202 C5203 1.415 . S
C5203 H5173 0.950 . S
C5203 C5198 1.363 . S
C5203 C5202 1.415 . S
H5204 C5201 0.999 . S
H5205 C5186 0.913 . S
H5206 C5224 0.951 . S
H5207 C5226 0.951 . S
H5208 C5228 0.950 . S
H5209 C5229 0.950 . S
H5210 C5231 0.950 . S
H5211 C5234 0.950 . S
H5212 C5235 0.950 . S
H5213 C5237 0.950 . S
H5214 C5238 0.950 1_556 S
H5215 C5239 0.951 . S
H5216 C5241 0.951 . S
H5217 C5243 0.950 . S
H5218 C5244 0.950 . S
H5219 C5246 0.950 . S
H5220 C5249 0.950 . S
H5221 C5250 0.950 . S
H5222 C5252 0.950 . S
H5223 C5253 0.950 1_554 S
C5224 H5206 0.951 . S
C5224 C5225 1.366 . S
C5224 C5226 1.388 . S
C5225 C5224 1.366 . S
C5225 C5229 1.385 1_556 S
C5226 H5207 0.951 . S
C5226 C5224 1.388 . S
C5226 C5227 1.366 1_556 S
C5227 C5226 1.366 1_554 S
C5227 C5228 1.414 . S
C5227 C5230 1.499 . S
C5228 H5208 0.950 . S
C5228 C5227 1.414 . S
C5228 C5229 1.374 . S
C5229 H5209 0.950 . S
C5229 C5225 1.385 1_554 S
C5229 C5228 1.374 . S
C5230 C5227 1.499 . S
C5230 C5231 1.373 1_554 S
C5230 C5232 1.389 . S
C5231 H5210 0.950 . S
C5231 C5230 1.373 1_556 S
C5231 C5247 1.377 . S
C5232 C5230 1.389 . S
C5232 C5233 1.524 . S
C5232 C5246 1.377 . S
C5233 C5232 1.524 . S
C5233 C5234 1.397 . S
C5233 C5238 1.363 . S
C5234 H5211 0.950 . S
C5234 C5233 1.397 . S
C5234 C5235 1.334 . S
C5235 H5212 0.950 . S
C5235 C5234 1.334 . S
C5235 C5236 1.287 . S
C5236 C5235 1.287 . S
C5236 C5237 1.524 . S
C5236 H5255 0.913 . S
C5237 H5213 0.950 . S
C5237 C5236 1.524 . S
C5237 C5238 1.415 . S
C5238 H5214 0.950 1_554 S
C5238 C5233 1.363 . S
C5238 C5237 1.415 . S
C5239 H5215 0.951 . S
C5239 C5240 1.366 . S
C5239 C5241 1.388 . S
C5240 C5239 1.366 . S
C5240 C5244 1.385 1_554 S
C5241 H5216 0.951 . S
C5241 C5239 1.388 . S
C5241 C5242 1.366 . S
C5242 C5241 1.366 . S
C5242 C5243 1.414 1_554 S
C5242 C5245 1.499 . S
C5243 H5217 0.950 . S
C5243 C5242 1.414 1_556 S
C5243 C5244 1.374 . S
C5244 H5218 0.950 . S
C5244 C5240 1.385 1_556 S
C5244 C5243 1.374 . S
C5245 C5242 1.499 . S
C5245 C5246 1.373 . S
C5245 C5247 1.389 1_554 S
C5246 H5219 0.950 . S
C5246 C5232 1.377 . S
C5246 C5245 1.373 . S
C5247 C5231 1.377 . S
C5247 C5245 1.389 1_556 S
C5247 C5248 1.524 . S
C5248 C5247 1.524 . S
C5248 C5249 1.397 . S
C5248 C5253 1.363 . S
C5249 H5220 0.950 . S
C5249 C5248 1.397 . S
C5249 C5250 1.334 . S
C5250 H5221 0.950 . S
C5250 C5249 1.334 . S
C5250 C5251 1.287 . S
C5251 C5250 1.287 . S
C5251 C5252 1.524 . S
C5251 H5254 0.997 1_545 S
C5252 H5222 0.950 . S
C5252 C5251 1.524 . S
C5252 C5253 1.415 . S
C5253 H5223 0.950 1_556 S
C5253 C5248 1.363 . S
C5253 C5252 1.415 . S
H5254 C5251 0.997 1_565 S
H5255 C5236 0.913 . S
H5256 C5274 0.951 . S
H5257 C5276 0.951 . S
H5258 C5278 0.950 . S
H5259 C5279 0.950 . S
H5260 C5281 0.950 . S
H5261 C5284 0.950 . S
H5262 C5285 0.950 . S
H5263 C5287 0.950 . S
H5264 C5288 0.950 . S
H5265 C5289 0.951 . S
H5266 C5291 0.951 . S
H5267 C5293 0.950 . S
H5268 C5294 0.950 . S
H5269 C5296 0.950 . S
H5270 C5299 0.950 . S
H5271 C5300 0.950 . S
H5272 C5302 0.950 . S
H5273 C5303 0.950 . S
C5274 H5256 0.951 . S
C5274 C5275 1.366 . S
C5274 C5276 1.388 . S
C5275 C5274 1.366 . S
C5275 C5279 1.385 . S
C5276 H5257 0.951 . S
C5276 C5274 1.388 . S
C5276 C5277 1.366 . S
C5277 C5276 1.366 . S
C5277 C5278 1.414 . S
C5277 C5280 1.499 . S
C5278 H5258 0.950 . S
C5278 C5277 1.414 . S
C5278 C5279 1.374 . S
C5279 H5259 0.950 . S
C5279 C5275 1.385 . S
C5279 C5278 1.374 . S
C5280 C5277 1.499 . S
C5280 C5281 1.373 . S
C5280 C5282 1.389 . S
C5281 H5260 0.950 . S
C5281 C5280 1.373 . S
C5281 C5297 1.377 . S
C5282 C5280 1.389 . S
C5282 C5283 1.524 . S
C5282 C5296 1.377 . S
C5283 C5282 1.524 . S
C5283 C5284 1.397 . S
C5283 C5288 1.363 . S
C5284 H5261 0.950 . S
C5284 C5283 1.397 . S
C5284 C5285 1.334 . S
C5285 H5262 0.950 . S
C5285 C5284 1.334 . S
C5285 C5286 1.287 . S
C5286 C5285 1.287 . S
C5286 C5287 1.524 . S
C5286 H5305 0.913 . S
C5287 H5263 0.950 . S
C5287 C5286 1.524 . S
C5287 C5288 1.415 . S
C5288 H5264 0.950 . S
C5288 C5283 1.363 . S
C5288 C5287 1.415 . S
C5289 H5265 0.951 . S
C5289 C5290 1.366 . S
C5289 C5291 1.388 . S
C5290 C5289 1.366 . S
C5290 C5294 1.385 . S
C5291 H5266 0.951 . S
C5291 C5289 1.388 . S
C5291 C5292 1.366 . S
C5292 C5291 1.366 . S
C5292 C5293 1.414 . S
C5292 C5295 1.499 . S
C5293 H5267 0.950 . S
C5293 C5292 1.414 . S
C5293 C5294 1.374 . S
C5294 H5268 0.950 . S
C5294 C5290 1.385 . S
C5294 C5293 1.374 . S
C5295 C5292 1.499 . S
C5295 C5296 1.373 . S
C5295 C5297 1.389 . S
C5296 H5269 0.950 . S
C5296 C5282 1.377 . S
C5296 C5295 1.373 . S
C5297 C5281 1.377 . S
C5297 C5295 1.389 . S
C5297 C5298 1.524 . S
C5298 C5297 1.524 . S
C5298 C5299 1.397 . S
C5298 C5303 1.363 . S
C5299 H5270 0.950 . S
C5299 C5298 1.397 . S
C5299 C5300 1.334 . S
C5300 H5271 0.950 . S
C5300 C5299 1.334 . S
C5300 C5301 1.287 . S
C5301 C5300 1.287 . S
C5301 C5302 1.524 . S
C5301 H5304 0.999 . S
C5302 H5272 0.950 . S
C5302 C5301 1.524 . S
C5302 C5303 1.415 . S
C5303 H5273 0.950 . S
C5303 C5298 1.363 . S
C5303 C5302 1.415 . S
H5304 C5301 0.999 . S
H5305 C5286 0.913 . S
H5306 C5324 0.951 . S
H5307 C5326 0.951 . S
H5308 C5328 0.950 . S
H5309 C5329 0.950 . S
H5310 C5331 0.950 . S
H5311 C5334 0.950 . S
H5312 C5335 0.950 . S
H5313 C5337 0.950 . S
H5314 C5338 0.950 . S
H5315 C5339 0.951 . S
H5316 C5341 0.951 . S
H5317 C5343 0.950 . S
H5318 C5344 0.950 . S
H5319 C5346 0.950 . S
H5320 C5349 0.950 . S
H5321 C5350 0.950 . S
H5322 C5352 0.950 . S
H5323 C5353 0.950 . S
C5324 H5306 0.951 . S
C5324 C5325 1.366 . S
C5324 C5326 1.388 . S
C5325 C5324 1.366 . S
C5325 C5329 1.385 . S
C5326 H5307 0.951 . S
C5326 C5324 1.388 . S
C5326 C5327 1.366 . S
C5327 C5326 1.366 . S
C5327 C5328 1.414 . S
C5327 C5330 1.499 . S
C5328 H5308 0.950 . S
C5328 C5327 1.414 . S
C5328 C5329 1.374 . S
C5329 H5309 0.950 . S
C5329 C5325 1.385 . S
C5329 C5328 1.374 . S
C5330 C5327 1.499 . S
C5330 C5331 1.373 1_554 S
C5330 C5332 1.389 . S
C5331 H5310 0.950 . S
C5331 C5330 1.373 1_556 S
C5331 C5347 1.377 . S
C5332 C5330 1.389 . S
C5332 C5333 1.524 . S
C5332 C5346 1.377 . S
C5333 C5332 1.524 . S
C5333 C5334 1.397 . S
C5333 C5338 1.363 . S
C5334 H5311 0.950 . S
C5334 C5333 1.397 . S
C5334 C5335 1.334 . S
C5335 H5312 0.950 . S
C5335 C5334 1.334 . S
C5335 C5336 1.287 . S
C5336 C5335 1.287 . S
C5336 C5337 1.524 . S
C5336 H5355 0.913 . S
C5337 H5313 0.950 . S
C5337 C5336 1.524 . S
C5337 C5338 1.415 . S
C5338 H5314 0.950 . S
C5338 C5333 1.363 . S
C5338 C5337 1.415 . S
C5339 H5315 0.951 . S
C5339 C5340 1.366 1_556 S
C5339 C5341 1.388 . S
C5340 C5339 1.366 1_554 S
C5340 C5344 1.385 . S
C5341 H5316 0.951 . S
C5341 C5339 1.388 . S
C5341 C5342 1.366 1_556 S
C5342 C5341 1.366 1_554 S
C5342 C5343 1.414 . S
C5342 C5345 1.499 . S
C5343 H5317 0.950 . S
C5343 C5342 1.414 . S
C5343 C5344 1.374 . S
C5344 H5318 0.950 . S
C5344 C5340 1.385 . S
C5344 C5343 1.374 . S
C5345 C5342 1.499 . S
C5345 C5346 1.373 . S
C5345 C5347 1.389 1_554 S
C5346 H5319 0.950 . S
C5346 C5332 1.377 . S
C5346 C5345 1.373 . S
C5347 C5331 1.377 . S
C5347 C5345 1.389 1_556 S
C5347 C5348 1.524 . S
C5348 C5347 1.524 . S
C5348 C5349 1.397 . S
C5348 C5353 1.363 . S
C5349 H5320 0.950 . S
C5349 C5348 1.397 . S
C5349 C5350 1.334 . S
C5350 H5321 0.950 . S
C5350 C5349 1.334 . S
C5350 C5351 1.287 . S
C5351 C5350 1.287 . S
C5351 C5352 1.524 . S
C5351 H5354 0.999 . S
C5352 H5322 0.950 . S
C5352 C5351 1.524 . S
C5352 C5353 1.415 . S
C5353 H5323 0.950 . S
C5353 C5348 1.363 . S
C5353 C5352 1.415 . S
H5354 C5351 0.999 . S
H5355 C5336 0.913 . S
H5356 C5374 0.951 . S
H5357 C5376 0.951 . S
H5358 C5378 0.950 . S
H5359 C5379 0.950 . S
H5360 C5381 0.950 . S
H5361 C5384 0.950 . S
H5362 C5385 0.950 . S
H5363 C5387 0.950 . S
H5364 C5388 0.950 . S
H5365 C5389 0.951 . S
H5366 C5391 0.951 . S
H5367 C5393 0.950 . S
H5368 C5394 0.950 . S
H5369 C5396 0.950 . S
H5370 C5399 0.950 . S
H5371 C5400 0.950 . S
H5372 C5402 0.950 . S
H5373 C5403 0.950 . S
C5374 H5356 0.951 . S
C5374 C5375 1.366 . S
C5374 C5376 1.388 . S
C5375 C5374 1.366 . S
C5375 C5379 1.385 . S
C5376 H5357 0.951 . S
C5376 C5374 1.388 . S
C5376 C5377 1.366 . S
C5377 C5376 1.366 . S
C5377 C5378 1.414 . S
C5377 C5380 1.499 . S
C5378 H5358 0.950 . S
C5378 C5377 1.414 . S
C5378 C5379 1.374 . S
C5379 H5359 0.950 . S
C5379 C5375 1.385 . S
C5379 C5378 1.374 . S
C5380 C5377 1.499 . S
C5380 C5381 1.373 . S
C5380 C5382 1.389 . S
C5381 H5360 0.950 . S
C5381 C5380 1.373 . S
C5381 C5397 1.377 . S
C5382 C5380 1.389 . S
C5382 C5383 1.524 . S
C5382 C5396 1.377 . S
C5383 C5382 1.524 . S
C5383 C5384 1.397 . S
C5383 C5388 1.363 . S
C5384 H5361 0.950 . S
C5384 C5383 1.397 . S
C5384 C5385 1.334 . S
C5385 H5362 0.950 . S
C5385 C5384 1.334 . S
C5385 C5386 1.287 . S
C5386 C5385 1.287 . S
C5386 C5387 1.524 . S
C5386 H5405 0.913 . S
C5387 H5363 0.950 . S
C5387 C5386 1.524 . S
C5387 C5388 1.415 . S
C5388 H5364 0.950 . S
C5388 C5383 1.363 . S
C5388 C5387 1.415 . S
C5389 H5365 0.951 . S
C5389 C5390 1.366 . S
C5389 C5391 1.388 . S
C5390 C5389 1.366 . S
C5390 C5394 1.385 . S
C5391 H5366 0.951 . S
C5391 C5389 1.388 . S
C5391 C5392 1.366 . S
C5392 C5391 1.366 . S
C5392 C5393 1.414 . S
C5392 C5395 1.499 . S
C5393 H5367 0.950 . S
C5393 C5392 1.414 . S
C5393 C5394 1.374 . S
C5394 H5368 0.950 . S
C5394 C5390 1.385 . S
C5394 C5393 1.374 . S
C5395 C5392 1.499 . S
C5395 C5396 1.373 . S
C5395 C5397 1.389 . S
C5396 H5369 0.950 . S
C5396 C5382 1.377 . S
C5396 C5395 1.373 . S
C5397 C5381 1.377 . S
C5397 C5395 1.389 . S
C5397 C5398 1.524 . S
C5398 C5397 1.524 . S
C5398 C5399 1.397 . S
C5398 C5403 1.363 . S
C5399 H5370 0.950 . S
C5399 C5398 1.397 . S
C5399 C5400 1.334 . S
C5400 H5371 0.950 . S
C5400 C5399 1.334 . S
C5400 C5401 1.287 . S
C5401 C5400 1.287 . S
C5401 C5402 1.524 . S
C5401 H5404 0.999 . S
C5402 H5372 0.950 . S
C5402 C5401 1.524 . S
C5402 C5403 1.415 . S
C5403 H5373 0.950 . S
C5403 C5398 1.363 . S
C5403 C5402 1.415 . S
H5404 C5401 0.999 . S
H5405 C5386 0.913 . S
H5406 C5424 0.951 . S
H5407 C5426 0.951 . S
H5408 C5428 0.950 . S
H5409 C5429 0.950 . S
H5410 C5431 0.950 . S
H5411 C5434 0.950 . S
H5412 C5435 0.950 . S
H5413 C5437 0.950 . S
H5414 C5438 0.950 . S
H5415 C5439 0.951 . S
H5416 C5441 0.951 . S
H5417 C5443 0.950 . S
H5418 C5444 0.950 . S
H5419 C5446 0.950 . S
H5420 C5449 0.950 . S
H5421 C5450 0.950 . S
H5422 C5452 0.950 . S
H5423 C5453 0.950 . S
C5424 H5406 0.951 . S
C5424 C5425 1.366 . S
C5424 C5426 1.388 . S
C5425 C5424 1.366 . S
C5425 C5429 1.385 . S
C5426 H5407 0.951 . S
C5426 C5424 1.388 . S
C5426 C5427 1.366 . S
C5427 C5426 1.366 . S
C5427 C5428 1.414 . S
C5427 C5430 1.499 . S
C5428 H5408 0.950 . S
C5428 C5427 1.414 . S
C5428 C5429 1.374 . S
C5429 H5409 0.950 . S
C5429 C5425 1.385 . S
C5429 C5428 1.374 . S
C5430 C5427 1.499 . S
C5430 C5431 1.373 . S
C5430 C5432 1.389 . S
C5431 H5410 0.950 . S
C5431 C5430 1.373 . S
C5431 C5447 1.377 . S
C5432 C5430 1.389 . S
C5432 C5433 1.524 . S
C5432 C5446 1.377 . S
C5433 C5432 1.524 . S
C5433 C5434 1.397 . S
C5433 C5438 1.363 . S
C5434 H5411 0.950 . S
C5434 C5433 1.397 . S
C5434 C5435 1.334 . S
C5435 H5412 0.950 . S
C5435 C5434 1.334 . S
C5435 C5436 1.287 . S
C5436 C5435 1.287 . S
C5436 C5437 1.524 . S
C5436 H5455 0.913 . S
C5437 H5413 0.950 . S
C5437 C5436 1.524 . S
C5437 C5438 1.415 . S
C5438 H5414 0.950 . S
C5438 C5433 1.363 . S
C5438 C5437 1.415 . S
C5439 H5415 0.951 . S
C5439 C5440 1.366 . S
C5439 C5441 1.388 . S
C5440 C5439 1.366 . S
C5440 C5444 1.385 . S
C5441 H5416 0.951 . S
C5441 C5439 1.388 . S
C5441 C5442 1.366 . S
C5442 C5441 1.366 . S
C5442 C5443 1.414 . S
C5442 C5445 1.499 . S
C5443 H5417 0.950 . S
C5443 C5442 1.414 . S
C5443 C5444 1.374 . S
C5444 H5418 0.950 . S
C5444 C5440 1.385 . S
C5444 C5443 1.374 . S
C5445 C5442 1.499 . S
C5445 C5446 1.373 . S
C5445 C5447 1.389 . S
C5446 H5419 0.950 . S
C5446 C5432 1.377 . S
C5446 C5445 1.373 . S
C5447 C5431 1.377 . S
C5447 C5445 1.389 . S
C5447 C5448 1.524 . S
C5448 C5447 1.524 . S
C5448 C5449 1.397 . S
C5448 C5453 1.363 . S
C5449 H5420 0.950 . S
C5449 C5448 1.397 . S
C5449 C5450 1.334 . S
C5450 H5421 0.950 . S
C5450 C5449 1.334 . S
C5450 C5451 1.287 . S
C5451 C5450 1.287 . S
C5451 C5452 1.524 . S
C5451 H5454 0.999 . S
C5452 H5422 0.950 . S
C5452 C5451 1.524 . S
C5452 C5453 1.415 . S
C5453 H5423 0.950 . S
C5453 C5448 1.363 . S
C5453 C5452 1.415 . S
H5454 C5451 0.999 . S
H5455 C5436 0.913 . S
C675 C109 1.134 . S
C690 C352 1.110 . S
C725 C65 1.193 . S
C740 C365 1.180 . S
C775 C75 1.252 . S
C790 C384 1.233 . S
C840 C415 1.988 . S
C825 C84 2.029 . S
C875 C25 1.776 . S
C890 C435 1.754 . S
C940 C452 0.690 . S
C925 C28 0.689 . S
C990 C465 1.505 . S
C975 C47 1.511 . S
C1025 C9 0.916 . S
C1040 C492 0.900 . S
C1090 C345 1.169 1_655 S
C1075 C233 1.194 . S
C1125 C249 1.334 . S
C1140 C375 1.319 . S
C1190 C377 1.712 . S
C1175 C275 1.756 . S
C1240 C412 0.751 . S
C1225 C173 0.750 . S
C1275 C224 1.074 . S
C1290 C432 1.076 . S
C1340 C445 1.795 . S
C1325 C243 1.798 . S
C1390 C475 1.155 . S
C1375 C266 1.172 . S
C1440 C485 1.067 . S
C1425 C179 1.082 . S
C1490 C355 1.584 . S
C1475 C163 1.616 . S
C1525 C289 1.854 . S
C1540 C505 1.835 . S
C1590 C535 1.543 . S
C1575 C333 1.549 . S
C1640 C552 1.044 . S
C1625 C308 1.056 . S
C1675 C123 1.990 . S
C1690 C495 1.968 . S
C1725 C126 1.220 . S
C1740 C382 1.203 . S
C1775 C327 1.933 . S
C1790 C565 1.918 . S
C1840 C592 0.870 . S
C1825 C299 0.880 . S
C1890 C342 1.130 . S
C1875 C67 1.156 . S
C1940 C577 1.203 . S
C1925 C98 1.211 . S
C1975 C89 1.282 . S
C1990 C395 1.263 . S
C2025 C79 2.075 . S
C2040 C564 2.035 . S
C2090 C424 1.782 . S
C2075 C11 1.808 . S
C2125 C51 0.717 . S
C2140 C522 0.718 . S
C2190 C457 1.538 1_556 S
C2175 C33 1.544 . S
C2240 C602 0.911 . S
C2225 C14 0.932 . S
C2290 C337 1.166 . S
C2275 C140 1.175 . S
C2340 C584 1.337 . S
C2325 C319 1.360 . S
C2375 C112 1.762 . S
C2390 C385 1.732 . S
C2425 C285 0.780 . S
C2440 C562 0.780 . S
C2475 C149 1.125 . S
C2490 C422 1.112 . S
C2540 C517 1.834 . S
C2525 C313 1.839 . S
C2575 C121 1.253 . S
C2590 C464 1.222 . S
C2625 C291 1.121 . S
C2640 C597 1.104 . S
C2675 C182 1.625 . S
C2690 C344 1.599 . S
C2725 C168 1.858 . S
C2740 C497 1.851 . S
C2775 C263 1.605 . S
C2790 C444 1.592 . S
C2825 C247 1.118 . S
C2840 C542 1.099 . S
C2890 C604 1.973 . S
C2875 C277 2.000 . S
C2925 C219 1.268 . S
C2940 C392 1.232 1_565 S
C2990 C397 1.959 . S
C2975 C257 1.975 . S
C3040 C362 0.882 . S
C3025 C201 0.892 . S
C3075 C81 1.134 . S
C3090 C632 1.110 . S
C3140 C585 1.180 . S
C3125 C93 1.193 . S
C3175 C103 1.252 . S
C3190 C644 1.253 1_556 S
C3225 C56 2.029 . S
C3240 C575 1.988 . S
C3275 C53 1.776 . S
C3290 C515 1.754 . S
C3340 C532 0.689 . S
C3325 C0 0.689 . S
C3390 C545 1.506 1_655 S
C3375 C19 1.510 . S
C3440 C612 0.900 . S
C3425 C37 0.916 . S
C3490 C625 1.178 . S
C3475 C261 1.195 . S
C3525 C193 1.333 . S
C3540 C595 1.322 . S
C3590 C637 1.712 . S
C3575 C205 1.756 . S
C3640 C572 0.751 . S
C3625 C215 0.751 . S
C3690 C512 1.075 . S
C3675 C252 1.073 . S
C3725 C187 1.798 . S
C3740 C525 1.790 . S
C3790 C555 1.154 . S
C3775 C196 1.173 . S
C3825 C221 1.082 . S
C3840 C605 1.066 . S
C3890 C635 1.584 . S
C3875 C317 1.615 . S
C3925 C135 1.854 . S
C3940 C425 1.836 . S
C3990 C455 1.544 . S
C3975 C151 1.552 . S
C4040 C472 1.044 . S
C4025 C154 1.056 . S
C4090 C615 1.968 . S
C4075 C305 1.989 . S
C4125 C280 1.219 . S
C4140 C642 1.204 . S
C4190 C405 1.917 . S
C4175 C145 1.930 . S
C4240 C372 0.869 . S
C4225 C117 0.880 1_565 S
C4275 C95 1.156 . S
C4290 C622 1.129 . S
C4340 C357 1.203 . S
C4325 C70 1.210 . S
C4375 C61 1.282 . S
C4390 C655 1.263 . S
C4425 C107 2.075 . S
C4440 C404 2.035 . S
C4475 C39 1.808 . S
C4490 C504 1.782 1_556 S
C4540 C442 0.719 . S
C4525 C23 0.712 . S
C4575 C5 1.544 . S
C4590 C537 1.538 . S
C4625 C42 0.926 . S
C4640 C482 0.911 . S
C4690 C617 1.166 . S
C4675 C322 1.175 . S
C4725 C165 1.360 . S
C4740 C364 1.337 . S
C4790 C645 1.728 1_655 S
C4775 C294 1.762 . S
C4825 C131 0.781 . S
C4840 C402 0.780 . S
C4875 C331 1.125 . S
C4890 C502 1.114 . S
C4940 C437 1.834 . S
C4925 C159 1.839 . S
C4975 C303 1.253 . S
C4990 C544 1.222 . S
C5040 C477 1.105 . S
C5025 C137 1.120 . S
C5090 C624 1.599 . S
C5075 C238 1.625 . S
C5140 C417 1.839 1_565 S
C5125 C210 1.858 . S
C5175 C235 1.605 . S
C5190 C524 1.592 . S
C5240 C462 1.098 . S
C5225 C191 1.118 . S
C5275 C207 2.000 . S
C5290 C484 1.973 . S
C5325 C177 1.267 . S
C5340 C652 1.230 . S
C5390 C557 1.959 . S
C5375 C229 1.975 1_565 S
C5440 C582 0.881 . S
C5425 C271 0.892 . S
