# Generated by pormake.
# Topology ssb, (4,4)-cn, num edge types: 1
# Building blocks:
#     Node 0, Type 0, BuildingBlock: ESEHIV_clean_sbu_0, # of connection points: 4
#     Node 1, Type 0, BuildingBlock: ESEHIV_clean_sbu_0, # of connection points: 4
#     Node 2, Type 0, BuildingBlock: ESEHIV_clean_sbu_0, # of connection points: 4
#     Node 3, Type 0, BuildingBlock: ESEHIV_clean_sbu_0, # of connection points: 4
#     Node 4, Type 0, BuildingBlock: ESEHIV_clean_sbu_0, # of connection points: 4
#     Node 5, Type 0, BuildingBlock: ESEHIV_clean_sbu_0, # of connection points: 4
#     Node 6, Type 0, BuildingBlock: ESEHIV_clean_sbu_0, # of connection points: 4
#     Node 7, Type 0, BuildingBlock: ESEHIV_clean_sbu_0, # of connection points: 4
#     Node 8, Type 1, BuildingBlock: NAWXER_clean_sbu_0, # of connection points: 4
#     Node 9, Type 1, BuildingBlock: NAWXER_clean_sbu_0, # of connection points: 4
#     Node 10, Type 1, BuildingBlock: NAWXER_clean_sbu_0, # of connection points: 4
#     Node 11, Type 1, BuildingBlock: NAWXER_clean_sbu_0, # of connection points: 4
#     Node 12, Type 1, BuildingBlock: NAWXER_clean_sbu_0, # of connection points: 4
#     Node 13, Type 1, BuildingBlock: NAWXER_clean_sbu_0, # of connection points: 4
#     Node 14, Type 1, BuildingBlock: NAWXER_clean_sbu_0, # of connection points: 4
#     Node 15, Type 1, BuildingBlock: NAWXER_clean_sbu_0, # of connection points: 4
#     Edge 16, Type (0, 1), BuildingBlock: XIVTED_clean_linker_0, # of connection points: 2
#     Edge 17, Type (0, 1), BuildingBlock: XIVTED_clean_linker_0, # of connection points: 2
#     Edge 18, Type (0, 1), BuildingBlock: XIVTED_clean_linker_0, # of connection points: 2
#     Edge 19, Type (0, 1), BuildingBlock: XIVTED_clean_linker_0, # of connection points: 2
#     Edge 20, Type (0, 1), BuildingBlock: XIVTED_clean_linker_0, # of connection points: 2
#     Edge 21, Type (0, 1), BuildingBlock: XIVTED_clean_linker_0, # of connection points: 2
#     Edge 22, Type (0, 1), BuildingBlock: XIVTED_clean_linker_0, # of connection points: 2
#     Edge 23, Type (0, 1), BuildingBlock: XIVTED_clean_linker_0, # of connection points: 2
#     Edge 24, Type (0, 1), BuildingBlock: XIVTED_clean_linker_0, # of connection points: 2
#     Edge 25, Type (0, 1), BuildingBlock: XIVTED_clean_linker_0, # of connection points: 2
#     Edge 26, Type (0, 1), BuildingBlock: XIVTED_clean_linker_0, # of connection points: 2
#     Edge 27, Type (0, 1), BuildingBlock: XIVTED_clean_linker_0, # of connection points: 2
#     Edge 28, Type (0, 1), BuildingBlock: XIVTED_clean_linker_0, # of connection points: 2
#     Edge 29, Type (0, 1), BuildingBlock: XIVTED_clean_linker_0, # of connection points: 2
#     Edge 30, Type (0, 1), BuildingBlock: XIVTED_clean_linker_0, # of connection points: 2
#     Edge 31, Type (0, 1), BuildingBlock: XIVTED_clean_linker_0, # of connection points: 2
#     Edge 32, Type (0, 1), BuildingBlock: XIVTED_clean_linker_0, # of connection points: 2
#     Edge 33, Type (0, 1), BuildingBlock: XIVTED_clean_linker_0, # of connection points: 2
#     Edge 34, Type (0, 1), BuildingBlock: XIVTED_clean_linker_0, # of connection points: 2
#     Edge 35, Type (0, 1), BuildingBlock: XIVTED_clean_linker_0, # of connection points: 2
#     Edge 36, Type (0, 1), BuildingBlock: XIVTED_clean_linker_0, # of connection points: 2
#     Edge 37, Type (0, 1), BuildingBlock: XIVTED_clean_linker_0, # of connection points: 2
#     Edge 38, Type (0, 1), BuildingBlock: XIVTED_clean_linker_0, # of connection points: 2
#     Edge 39, Type (0, 1), BuildingBlock: XIVTED_clean_linker_0, # of connection points: 2
#     Edge 40, Type (0, 1), BuildingBlock: XIVTED_clean_linker_0, # of connection points: 2
#     Edge 41, Type (0, 1), BuildingBlock: XIVTED_clean_linker_0, # of connection points: 2
#     Edge 42, Type (0, 1), BuildingBlock: XIVTED_clean_linker_0, # of connection points: 2
#     Edge 43, Type (0, 1), BuildingBlock: XIVTED_clean_linker_0, # of connection points: 2
#     Edge 44, Type (0, 1), BuildingBlock: XIVTED_clean_linker_0, # of connection points: 2
#     Edge 45, Type (0, 1), BuildingBlock: XIVTED_clean_linker_0, # of connection points: 2
#     Edge 46, Type (0, 1), BuildingBlock: XIVTED_clean_linker_0, # of connection points: 2
#     Edge 47, Type (0, 1), BuildingBlock: XIVTED_clean_linker_0, # of connection points: 2
# Relax obj value: 0.002
# Max RMSD: 0.102
# Mean RMSD: 0.051
data_MOF--net-ssb--node1-ESEHIV_clean_sbu_0--node2-NAWXER_clean_sbu_0--edge1-XIVTED_clean_linker_0
_symmetry_space_group_name_H-M    P1
_symmetry_Int_Tables_number       1
_symmetry_cell_setting            triclinic
loop_
_symmetry_equiv_pos_as_xyz
'x, y, z'
_cell_length_a     46.509523
_cell_length_b     46.520139
_cell_length_c     39.512946
_cell_angle_alpha  89.914914
_cell_angle_beta   89.842326
_cell_angle_gamma 90.032496
loop_
_atom_site_label
_atom_site_type_symbol
_atom_site_fract_x
_atom_site_fract_y
_atom_site_fract_z
_atom_type_partial_charge
Cu0 Cu 0.2757 0.26061 0.27695 0.0
N1 N 0.27206 0.22049 0.27826 0.0
N2 N 0.27976 0.17658 0.29959 0.0
C3 C 0.2853 0.20492 0.30231 0.0
C4 C 0.26216 0.1742 0.27256 0.0
C5 C 0.25755 0.20137 0.25929 0.0
O6 O 0.2589 0.27292 0.32006 0.0
C7 C 0.32531 0.25257 0.24359 0.0
O8 O 0.30612 0.23909 0.22513 0.0
H9 H 0.29815 0.21452 0.3221 0.0
H10 H 0.24447 0.20674 0.23763 0.0
N11 N 0.25685 0.27943 0.24115 0.0
N12 N 0.24739 0.31439 0.20349 0.0
C13 C 0.26523 0.30494 0.22811 0.0
C14 C 0.23281 0.27237 0.22421 0.0
C15 C 0.22693 0.29385 0.20102 0.0
C16 C 0.23368 0.2627 0.32466 0.0
O17 O 0.22164 0.24839 0.29981 0.0
H18 H 0.28379 0.3166 0.23721 0.0
H19 H 0.22023 0.25318 0.22862 0.0
O20 O 0.31682 0.26634 0.2697 0.0
H21 H 0.25323 0.15431 0.26306 0.0
H22 H 0.20901 0.29416 0.18361 0.0
Cu23 Cu 0.81383 0.29187 0.27223 0.0
N24 N 0.79543 0.27751 0.23352 0.0
N25 N 0.76123 0.2729 0.19393 0.0
C26 C 0.77009 0.28738 0.22166 0.0
C27 C 0.78201 0.25318 0.18816 0.0
C28 C 0.80301 0.25608 0.21253 0.0
O29 O 0.80815 0.33332 0.27048 0.0
C30 C 0.80975 0.24494 0.31236 0.0
O31 O 0.82323 0.23544 0.28535 0.0
H32 H 0.75807 0.30444 0.23376 0.0
H33 H 0.82218 0.24315 0.21494 0.0
N34 N 0.85391 0.28756 0.27354 0.0
N35 N 0.89778 0.29366 0.2954 0.0
C36 C 0.86956 0.29974 0.29822 0.0
C37 C 0.87288 0.27321 0.25409 0.0
C38 C 0.90003 0.27682 0.2677 0.0
C39 C 0.82311 0.3442 0.24655 0.0
O40 O 0.83822 0.32701 0.22707 0.0
H41 H 0.86011 0.31219 0.31853 0.0
H42 H 0.86748 0.26086 0.23188 0.0
O43 O 0.80063 0.27083 0.31226 0.0
H44 H 0.78212 0.23766 0.16778 0.0
H45 H 0.91982 0.26771 0.25802 0.0
Cu46 Cu 0.76787 0.79811 0.28202 0.0
N47 N 0.78378 0.78442 0.24172 0.0
N48 N 0.78902 0.75502 0.19732 0.0
C49 C 0.77539 0.75974 0.22696 0.0
C50 C 0.80696 0.77767 0.19338 0.0
C51 C 0.80358 0.79585 0.22078 0.0
O52 O 0.73175 0.77684 0.28466 0.0
C53 C 0.81652 0.80918 0.32039 0.0
O54 O 0.81968 0.82829 0.29615 0.0
H55 H 0.7597 0.74536 0.23806 0.0
H56 H 0.81447 0.81609 0.22489 0.0
N57 N 0.76002 0.83749 0.2795 0.0
N58 N 0.74925 0.88184 0.29702 0.0
C59 C 0.75426 0.8544 0.30628 0.0
C60 C 0.75889 0.85486 0.25227 0.0
C61 C 0.75239 0.88236 0.26305 0.0
C62 C 0.70734 0.78899 0.28734 0.0
O63 O 0.70588 0.81469 0.30087 0.0
H64 H 0.75391 0.84666 0.33213 0.0
H65 H 0.76248 0.84802 0.22645 0.0
O66 O 0.79488 0.79229 0.31934 0.0
H67 H 0.82113 0.78114 0.17199 0.0
H68 H 0.74978 0.90115 0.24717 0.0
Cu69 Cu 0.27322 0.79404 0.27674 0.0
N70 N 0.29092 0.81401 0.24102 0.0
N71 N 0.3246 0.82459 0.20219 0.0
C72 C 0.31614 0.80624 0.22685 0.0
C73 C 0.30379 0.84481 0.20091 0.0
C74 C 0.28304 0.83822 0.22485 0.0
O75 O 0.28771 0.75472 0.2738 0.0
C76 C 0.26475 0.83731 0.32312 0.0
O77 O 0.24837 0.84573 0.29796 0.0
H78 H 0.32828 0.78768 0.23504 0.0
H79 H 0.26367 0.85028 0.23011 0.0
N80 N 0.23319 0.79113 0.27283 0.0
N81 N 0.18824 0.78045 0.28877 0.0
C82 C 0.21643 0.77868 0.29648 0.0
C83 C 0.21508 0.80109 0.24905 0.0
C84 C 0.18728 0.79461 0.2589 0.0
C85 C 0.27843 0.74161 0.24767 0.0
O86 O 0.26114 0.75518 0.22687 0.0
H87 H 0.22483 0.76948 0.3196 0.0
H88 H 0.22158 0.81261 0.22649 0.0
O89 O 0.27969 0.81448 0.3194 0.0
H90 H 0.30337 0.86294 0.18372 0.0
H91 H 0.1679 0.80011 0.24525 0.0
Cu92 Cu 0.29635 0.7649 0.77545 0.0
N93 N 0.33297 0.74851 0.77896 0.0
N94 N 0.3759 0.74076 0.80265 0.0
C95 C 0.35195 0.75708 0.8025 0.0
C96 C 0.3719 0.72102 0.77813 0.0
C97 C 0.34539 0.72593 0.7634 0.0
O98 O 0.27919 0.75596 0.81962 0.0
C99 C 0.31963 0.81098 0.74113 0.0
O100 O 0.33321 0.78935 0.72696 0.0
H101 H 0.3477 0.7744 0.82009 0.0
H102 H 0.33586 0.71362 0.74319 0.0
N103 N 0.27424 0.74971 0.74013 0.0
N104 N 0.23945 0.74683 0.70112 0.0
C105 C 0.25335 0.76393 0.72338 0.0
C106 C 0.27366 0.72272 0.72803 0.0
C107 C 0.25236 0.7209 0.70395 0.0
C108 C 0.25836 0.7384 0.82363 0.0
O109 O 0.24312 0.7307 0.79723 0.0
H110 H 0.24769 0.78605 0.72857 0.0
H111 H 0.2869 0.70526 0.73702 0.0
O112 O 0.30174 0.80568 0.76492 0.0
H113 H 0.38699 0.70425 0.77139 0.0
H114 H 0.24656 0.70173 0.69009 0.0
Cu115 Cu 0.30391 0.31318 0.77443 0.0
N116 N 0.32226 0.349 0.77478 0.0
N117 N 0.33715 0.39011 0.79802 0.0
C118 C 0.32501 0.36426 0.80346 0.0
C119 C 0.34222 0.39146 0.76444 0.0
C120 C 0.33332 0.36579 0.75013 0.0
O121 O 0.31265 0.29878 0.8198 0.0
C122 C 0.25721 0.33415 0.73918 0.0
O123 O 0.2785 0.3448 0.72126 0.0
H124 H 0.31702 0.35705 0.82776 0.0
H125 H 0.33417 0.36017 0.7236 0.0
N126 N 0.31787 0.28848 0.74066 0.0
N127 N 0.32108 0.25077 0.70555 0.0
C128 C 0.30558 0.26373 0.73021 0.0
C129 C 0.34181 0.29145 0.72184 0.0
C130 C 0.34389 0.26827 0.70027 0.0
C131 C 0.33554 0.28435 0.82483 0.0
O132 O 0.34964 0.27402 0.79873 0.0
H133 H 0.28594 0.25518 0.741 0.0
H134 H 0.35682 0.30912 0.72384 0.0
O135 O 0.26305 0.31908 0.76526 0.0
H136 H 0.35139 0.40972 0.75126 0.0
H137 H 0.36085 0.26474 0.68194 0.0
Cu138 Cu 0.76226 0.28683 0.77768 0.0
N139 N 0.78143 0.30386 0.74097 0.0
N140 N 0.8166 0.31091 0.70294 0.0
C141 C 0.80704 0.29474 0.72908 0.0
C142 C 0.79603 0.33104 0.69824 0.0
C143 C 0.77436 0.32661 0.72168 0.0
O144 O 0.76982 0.24575 0.77394 0.0
C145 C 0.76115 0.33177 0.82136 0.0
O146 O 0.74707 0.34149 0.79495 0.0
H147 H 0.8187 0.27689 0.74002 0.0
H148 H 0.75501 0.33924 0.72457 0.0
N149 N 0.7221 0.28872 0.77657 0.0
N150 N 0.67783 0.27913 0.79562 0.0
C151 C 0.70624 0.27526 0.80022 0.0
C152 C 0.70312 0.30168 0.75591 0.0
C153 C 0.67568 0.29592 0.7678 0.0
C154 C 0.75774 0.23588 0.74742 0.0
O155 O 0.74435 0.25373 0.72708 0.0
H156 H 0.71564 0.26346 0.82107 0.0
H157 H 0.70875 0.31447 0.73401 0.0
O158 O 0.77251 0.30681 0.81958 0.0
H159 H 0.79647 0.34774 0.67915 0.0
H160 H 0.65577 0.30354 0.75686 0.0
Cu161 Cu 0.77985 0.77796 0.77539 0.0
N162 N 0.76889 0.73983 0.78233 0.0
N163 N 0.77275 0.69557 0.80401 0.0
C164 C 0.78652 0.72024 0.79625 0.0
C165 C 0.74521 0.69988 0.79437 0.0
C166 C 0.74286 0.72731 0.78123 0.0
O167 O 0.76839 0.79715 0.81752 0.0
C168 C 0.82546 0.75952 0.73888 0.0
O169 O 0.80357 0.74598 0.72526 0.0
H170 H 0.80885 0.72465 0.80178 0.0
H171 H 0.72326 0.73789 0.7735 0.0
N172 N 0.76252 0.79496 0.73775 0.0
N173 N 0.75737 0.82573 0.69461 0.0
C174 C 0.77296 0.81849 0.72209 0.0
C175 C 0.73959 0.78675 0.71948 0.0
C176 C 0.73627 0.80579 0.69293 0.0
C177 C 0.74816 0.81566 0.81879 0.0
O178 O 0.73863 0.82697 0.79051 0.0
H179 H 0.79158 0.83016 0.73103 0.0
H180 H 0.72645 0.76811 0.7247 0.0
O181 O 0.8207 0.77647 0.76369 0.0
H182 H 0.7276 0.68505 0.79847 0.0
H183 H 0.71988 0.80466 0.67361 0.0
C184 C 1.00653 0.29307 0.58288 0.0
C185 C 0.0963 0.2813 0.51709 0.0
O186 O 0.01767 0.31661 0.57222 0.0
Zn187 Zn 0.05404 0.33123 0.54412 0.0
O188 O 0.01933 0.26944 0.57678 0.0
Zn189 Zn 0.05206 0.28527 0.5513 0.0
O190 O 0.07608 0.30779 0.58874 0.0
O191 O 0.07543 0.35413 0.57683 0.0
O192 O 0.08177 0.26108 0.53069 0.0
O193 O 0.08802 0.30737 0.52073 0.0
O194 O 0.03551 0.34835 0.50435 0.0
O195 O 0.0321 0.30103 0.50657 0.0
C196 C 0.08365 0.33357 0.59579 0.0
C197 C 0.0272 0.32478 0.49123 0.0
C198 C 0.75049 0.0817 0.5823 0.0
C199 C 0.73941 0.02943 0.47518 0.0
O200 O 0.77422 0.07326 0.56915 0.0
Zn201 Zn 0.78915 0.05036 0.52596 0.0
O202 O 0.72693 0.07635 0.56722 0.0
Zn203 Zn 0.74306 0.05595 0.52855 0.0
O204 O 0.75893 0.01788 0.55137 0.0
O205 O 0.80614 0.01583 0.54668 0.0
O206 O 0.71892 0.03935 0.49315 0.0
O207 O 0.76546 0.0325 0.48492 0.0
O208 O 0.81198 0.07929 0.50224 0.0
O209 O 0.76556 0.08917 0.50201 0.0
C210 C 0.7826 1.00467 0.55679 0.0
C211 C 0.79137 0.09574 0.49356 0.0
C212 C 0.9858 0.74868 0.57401 0.0
C213 C 0.04463 0.74857 0.47003 0.0
O214 O 0.99491 0.77343 0.56457 0.0
Zn215 Zn 0.02015 0.79269 0.52557 0.0
O216 O 0.99232 0.72652 0.55667 0.0
Zn217 Zn 0.01526 0.74609 0.52207 0.0
O218 O 0.05074 0.76023 0.55074 0.0
O219 O 0.0536 0.80749 0.55145 0.0
O220 O 0.03458 0.72619 0.48445 0.0
O221 O 0.04035 0.77331 0.48322 0.0
O222 O 0.99132 0.81674 0.50231 0.0
O223 O 0.98307 0.77025 0.49685 0.0
C224 C 0.06353 0.78311 0.56045 0.0
C225 C 0.97586 0.79631 0.49081 0.0
C226 C 0.28668 0.06404 0.5843 0.0
C227 C 0.27227 0.97608 0.51546 0.0
O228 O 0.3096 0.05191 0.57343 0.0
Zn229 Zn 0.32311 0.01617 0.54422 0.0
O230 O 0.26237 0.05288 0.57733 0.0
Zn231 Zn 0.27671 0.01972 0.55086 0.0
O232 O 0.29795 0.99407 0.58783 0.0
O233 O 0.3445 0.99283 0.5769 0.0
O234 O 0.25204 0.99089 0.52863 0.0
O235 O 0.29842 0.98369 0.52005 0.0
O236 O 0.3408 0.03532 0.50469 0.0
O237 O 0.29357 0.03982 0.50696 0.0
C238 C 0.32323 0.98515 0.59522 0.0
C239 C 0.31744 0.04441 0.49171 0.0
C240 C 0.50671 0.8109 0.06551 0.0
C241 C 0.59593 0.81033 0.99766 0.0
O242 O 0.51983 0.83261 0.05327 0.0
Zn243 Zn 0.55128 0.81155 0.03201 0.0
O244 O 0.51701 0.78565 0.06048 0.0
Zn245 Zn 0.55319 0.76582 0.03505 0.0
O246 O 0.5733 0.74742 0.07241 0.0
O247 O 0.57319 0.79478 0.07554 0.0
O248 O 0.58774 0.78511 1.00669 0.0
O249 O 0.58117 0.83199 1.00679 0.0
O250 O 0.5288 0.78908 0.99292 0.0
O251 O 0.53384 0.74246 1.00103 0.0
C252 C 0.58004 0.77028 0.08811 0.0
C253 C 0.52358 0.76316 0.9838 0.0
C254 C 0.30385 0.57716 0.09679 0.0
C255 C 0.31856 0.52051 0.99391 0.0
O256 O 0.32762 0.56979 0.08344 0.0
Zn257 Zn 0.31171 0.54808 0.04597 0.0
O258 O 0.2802 0.56907 0.08308 0.0
Zn259 Zn 0.26653 0.54456 0.03977 0.0
O260 O 0.24614 0.51203 0.06001 0.0
O261 O 0.29259 0.51124 0.07047 0.0
O262 O 0.29191 0.52461 1.00077 0.0
O263 O 0.33771 0.52998 1.01392 0.0
O264 O 0.2921 0.58161 1.01569 0.0
O265 O 0.24551 0.57304 1.01344 0.0
C266 C 0.2676 0.49985 0.0738 0.0
C267 C 0.26694 0.5886 1.0052 0.0
C268 C 0.54887 0.24779 0.99 0.0
C269 C 0.49633 0.24943 0.09817 0.0
O270 O 0.54336 0.27281 1.00178 0.0
Zn271 Zn 0.52427 0.29315 0.04437 0.0
O272 O 0.5422 0.22548 1.00709 0.0
Zn273 Zn 0.52402 0.24609 0.04481 0.0
O274 O 0.489 0.26568 1.01955 0.0
O275 O 0.49203 0.31296 1.02103 0.0
O276 O 0.50453 0.22698 0.08245 0.0
O277 O 0.50264 0.27427 0.08626 0.0
O278 O 0.55796 0.31211 0.06592 0.0
O279 O 0.56022 0.26487 0.06787 0.0
C280 C 0.47876 0.2903 1.01163 0.0
C281 C 0.57136 0.28934 0.07453 0.0
C282 C 0.77662 0.57407 0.06138 0.0
C283 C 0.77224 0.4805 1.00251 0.0
O284 O 0.80098 0.56299 0.05383 0.0
Zn285 Zn 0.81871 0.52578 0.03085 0.0
O286 O 0.75365 0.5604 0.05435 0.0
Zn287 Zn 0.77217 0.52686 0.03312 0.0
O288 O 0.79228 0.50688 0.07511 0.0
O289 O 0.83937 0.50814 0.06832 0.0
O290 O 0.75074 0.49508 1.01283 0.0
O291 O 0.79774 0.4898 1.00805 0.0
O292 O 0.83847 0.54315 0.99213 0.0
O293 O 0.79103 0.54521 0.98911 0.0
C294 C 0.81753 0.50111 0.08599 0.0
C295 C 0.81579 0.55025 0.97618 0.0
H296 H 0.23886 0.30271 0.37625 0.0
H297 H 0.11138 0.23082 0.48536 0.0
H298 H 0.19342 0.22557 0.34794 0.0
H299 H 0.13829 0.31896 0.49774 0.0
H300 H 0.149 0.22458 0.44236 0.0
H301 H 0.20921 0.30526 0.42805 0.0
C302 C 0.22292 0.28622 0.38109 0.0
C303 C 0.21832 0.26416 0.35755 0.0
C304 C 0.14684 0.2452 0.45479 0.0
C305 C 0.18474 0.26666 0.41658 0.0
C306 C 0.12548 0.24869 0.47948 0.0
C307 C 0.12145 0.27552 0.49491 0.0
C308 C 0.16445 0.26861 0.44566 0.0
C309 C 0.14038 0.29797 0.48618 0.0
C310 C 0.20598 0.28768 0.41052 0.0
C311 C 0.19741 0.24326 0.36508 0.0
N312 N 0.1609 0.29409 0.46203 0.0
N313 N 0.18143 0.24505 0.39379 0.0
H314 H 0.84506 0.20043 0.32671 0.0
H315 H 0.75409 0.13996 0.48124 0.0
H316 H 0.77218 0.24651 0.36708 0.0
H317 H 0.83935 0.11005 0.45629 0.0
H318 H 0.75988 0.17927 0.44064 0.0
H319 H 0.84276 0.16736 0.37423 0.0
C320 C 0.82848 0.20362 0.34565 0.0
C321 C 0.80855 0.22615 0.34267 0.0
C322 C 0.77744 0.16432 0.44433 0.0
C323 C 0.80579 0.18796 0.39753 0.0
C324 C 0.77417 0.14179 0.46746 0.0
C325 C 0.79621 0.12146 0.47201 0.0
C326 C 0.80279 0.16639 0.42518 0.0
C327 C 0.82178 0.12512 0.4536 0.0
C328 C 0.82733 0.18475 0.37297 0.0
C329 C 0.78789 0.22939 0.36834 0.0
N330 N 0.82421 0.14691 0.43073 0.0
N331 N 0.7868 0.21024 0.39454 0.0
H332 H 0.82199 0.76907 0.37153 0.0
H333 H 0.96088 0.84466 0.45392 0.0
H334 H 0.85983 0.84734 0.33305 0.0
H335 H 0.93192 0.75911 0.47909 0.0
H336 H 0.92023 0.84919 0.41454 0.0
H337 H 0.85873 0.76794 0.41596 0.0
C338 C 0.83791 0.78605 0.37246 0.0
C339 C 0.83789 0.80818 0.34831 0.0
C340 C 0.92273 0.82951 0.4289 0.0
C341 C 0.87995 0.80717 0.39922 0.0
C342 C 0.94583 0.82702 0.45151 0.0
C343 C 0.94999 0.80141 0.46965 0.0
C344 C 0.90355 0.80633 0.42468 0.0
C345 C 0.9298 0.77916 0.46539 0.0
C346 C 0.85891 0.78541 0.39782 0.0
C347 C 0.85908 0.82969 0.3509 0.0
N348 N 0.90762 0.78211 0.44337 0.0
N349 N 0.87921 0.82862 0.37578 0.0
H350 H 0.30157 0.8341 0.37791 0.0
H351 H 0.22439 0.96425 0.47671 0.0
H352 H 0.22654 0.87884 0.34134 0.0
H353 H 0.30842 0.93162 0.50208 0.0
H354 H 0.22054 0.92719 0.43266 0.0
H355 H 0.30058 0.86437 0.42888 0.0
C356 C 0.28484 0.85011 0.38065 0.0
C357 C 0.26435 0.85411 0.35509 0.0
C358 C 0.23968 0.92797 0.44817 0.0
C359 C 0.26287 0.88862 0.41337 0.0
C360 C 0.24174 0.94897 0.47349 0.0
C361 C 0.26684 0.9512 0.49289 0.0
C362 C 0.26278 0.90897 0.44246 0.0
C363 C 0.28879 0.93091 0.48744 0.0
C364 C 0.28426 0.8674 0.40972 0.0
C365 C 0.24304 0.87517 0.36011 0.0
N366 N 0.28634 0.91082 0.46268 0.0
N367 N 0.24291 0.8916 0.38851 0.0
H368 H 0.22211 0.79985 0.67899 0.0
H369 H 0.08381 0.73359 0.58748 0.0
H370 H 0.1991 0.70998 0.67712 0.0
H371 H 0.10254 0.82446 0.58324 0.0
H372 H 0.12612 0.72613 0.62143 0.0
H373 H 0.17904 0.81068 0.64533 0.0
C374 C 0.20807 0.7824 0.67164 0.0
C375 C 0.21448 0.75386 0.6809 0.0
C376 C 0.12121 0.7478 0.61322 0.0
C377 C 0.16524 0.76617 0.64229 0.0
C378 C 0.09685 0.75215 0.59364 0.0
C379 C 0.08946 0.77977 0.58216 0.0
C380 C 0.13882 0.77114 0.62174 0.0
C381 C 0.10737 0.8028 0.59147 0.0
C382 C 0.18355 0.78863 0.6523 0.0
C383 C 0.19556 0.73219 0.67029 0.0
N384 N 0.13133 0.79797 0.61069 0.0
N385 N 0.17197 0.73882 0.65172 0.0
H386 H 0.35991 0.21472 0.67686 0.0
H387 H 0.2441 0.09972 0.6107 0.0
H388 H 0.26912 0.22429 0.69641 0.0
H389 H 0.33626 0.09064 0.60282 0.0
H390 H 0.25138 0.14534 0.64132 0.0
H391 H 0.35032 0.16952 0.64836 0.0
C392 C 0.33787 0.20745 0.67501 0.0
C393 C 0.31533 0.2236 0.689 0.0
C394 C 0.26992 0.13321 0.6329 0.0
C395 C 0.30403 0.1711 0.65635 0.0
C396 C 0.26578 0.10717 0.61545 0.0
C397 C 0.28956 0.09121 0.604 0.0
C398 C 0.29801 0.14332 0.6388 0.0
C399 C 0.31716 0.10203 0.61093 0.0
C400 C 0.33238 0.18139 0.65885 0.0
C401 C 0.28723 0.21252 0.68625 0.0
N402 N 0.32054 0.12724 0.62766 0.0
N403 N 0.28235 0.18703 0.67014 0.0
H404 H 0.84616 0.35247 0.66911 0.0
H405 H 0.97519 0.24852 0.61158 0.0
H406 H 0.84903 0.26245 0.69533 0.0
H407 H 0.9737 0.34035 0.5958 0.0
H408 H 0.92846 0.2521 0.64061 0.0
H409 H 0.89202 0.34732 0.63978 0.0
C410 C 0.85628 0.33155 0.66855 0.0
C411 C 0.84356 0.3079 0.68487 0.0
C412 C 0.93846 0.27142 0.63079 0.0
C413 C 0.89663 0.30183 0.65137 0.0
C414 C 0.96514 0.26939 0.61423 0.0
C415 C 0.97853 0.29415 0.60121 0.0
C416 C 0.92503 0.29838 0.63419 0.0
C417 C 0.96438 0.32062 0.6054 0.0
C418 C 0.88267 0.32863 0.65193 0.0
C419 C 0.85812 0.28139 0.68354 0.0
N420 N 0.93853 0.32199 0.62138 0.0
N421 N 0.88381 0.27906 0.6671 0.0
H422 H 0.71792 0.85239 0.65495 0.0
H423 H 0.82672 0.97344 0.58644 0.0
H424 H 0.80749 0.85477 0.68309 0.0
H425 H 0.73532 0.97179 0.56774 0.0
H426 H 0.82183 0.92816 0.61843 0.0
H427 H 0.7256 0.8942 0.619 0.0
C428 C 0.73928 0.86151 0.65341 0.0
C429 C 0.76201 0.84998 0.67233 0.0
C430 C 0.80294 0.93777 0.60715 0.0
C431 C 0.771 0.89844 0.63125 0.0
C432 C 0.80574 0.96353 0.58885 0.0
C433 C 0.78139 0.97659 0.57461 0.0
C434 C 0.77564 0.92501 0.61093 0.0
C435 C 0.75471 0.96278 0.57853 0.0
C436 C 0.74366 0.88559 0.63297 0.0
C437 C 0.78919 0.86315 0.66947 0.0
N438 N 0.75259 0.93792 0.59627 0.0
N439 N 0.79292 0.8867 0.6494 0.0
H440 H 0.87147 0.79708 0.73714 0.0
H441 H 0.95336 0.70286 0.59673 0.0
H442 H 0.84434 0.71291 0.70455 0.0
H443 H 0.97493 0.79085 0.62023 0.0
H444 H 0.9185 0.70315 0.64338 0.0
H445 H 0.91492 0.79209 0.70198 0.0
C446 C 0.87496 0.77736 0.72319 0.0
C447 C 0.85417 0.75554 0.72341 0.0
C448 C 0.93108 0.72231 0.63849 0.0
C449 C 0.90343 0.74972 0.68304 0.0
C450 C 0.95102 0.7221 0.61189 0.0
C451 C 0.96683 0.74696 0.60421 0.0
C452 C 0.92695 0.74753 0.65758 0.0
C453 C 0.96295 0.77128 0.62487 0.0
C454 C 0.89961 0.77456 0.70294 0.0
C455 C 0.85965 0.73045 0.70471 0.0
N456 N 0.94328 0.77102 0.65036 0.0
N457 N 0.88356 0.72834 0.68512 0.0
H458 H 0.36429 0.82988 0.70249 0.0
H459 H 0.28466 0.97338 0.64553 0.0
H460 H 0.28434 0.85851 0.74656 0.0
H461 H 0.36849 0.94862 0.60875 0.0
H462 H 0.28635 0.93423 0.68656 0.0
H463 H 0.36834 0.87543 0.6723 0.0
C464 C 0.34768 0.84591 0.70611 0.0
C465 C 0.32377 0.84022 0.72689 0.0
C466 C 0.30455 0.9375 0.66985 0.0
C467 C 0.32819 0.89258 0.69191 0.0
C468 C 0.30363 0.9599 0.64633 0.0
C469 C 0.32638 0.96418 0.62335 0.0
C470 C 0.32828 0.9189 0.67032 0.0
C471 C 0.35045 0.94613 0.62588 0.0
C472 C 0.35005 0.87198 0.68883 0.0
C473 C 0.30311 0.86194 0.7308 0.0
N474 N 0.3506 0.92407 0.64862 0.0
N475 N 0.30561 0.88702 0.71311 0.0
H476 H 0.20942 0.30055 0.75148 0.0
H477 H 0.11678 0.38127 0.60909 0.0
H478 H 0.23754 0.3763 0.69766 0.0
H479 H 0.09726 0.29633 0.64678 0.0
H480 H 0.15556 0.38491 0.65074 0.0
H481 H 0.16282 0.30387 0.72253 0.0
C482 C 0.2056 0.31816 0.73411 0.0
C483 C 0.22747 0.33797 0.72665 0.0
C484 C 0.14253 0.36562 0.65015 0.0
C485 C 0.17444 0.34188 0.69346 0.0
C486 C 0.12029 0.36361 0.62648 0.0
C487 C 0.10398 0.33832 0.62411 0.0
C488 C 0.1484 0.34225 0.6717 0.0
C489 C 0.10954 0.3161 0.64737 0.0
C490 C 0.17909 0.31997 0.71745 0.0
C491 C 0.22141 0.36032 0.70382 0.0
N492 N 0.13141 0.31847 0.66995 0.0
N493 N 0.1956 0.36155 0.6879 0.0
H494 H 0.71073 0.20337 0.73807 0.0
H495 H 0.79759 0.09514 0.62032 0.0
H496 H 0.80318 0.20048 0.73315 0.0
H497 H 0.70546 0.10615 0.61743 0.0
H498 H 0.79966 0.12597 0.67007 0.0
H499 H 0.70833 0.15952 0.7043 0.0
C500 C 0.73057 0.19276 0.73087 0.0
C501 C 0.75719 0.20528 0.73848 0.0
C502 C 0.77896 0.12143 0.6588 0.0
C503 C 0.75467 0.15588 0.69857 0.0
C504 C 0.7777 0.10385 0.63027 0.0
C505 C 0.7513 0.09835 0.61426 0.0
C506 C 0.75364 0.13372 0.67154 0.0
C507 C 0.7263 0.11002 0.62866 0.0
C508 C 0.7292 0.16795 0.71125 0.0
C509 C 0.78228 0.19116 0.72814 0.0
N510 N 0.72813 0.12737 0.65628 0.0
N511 N 0.78041 0.16741 0.70812 0.0
H512 H 0.89982 0.34178 0.33414 0.0
H513 H 0.02709 0.28047 0.44692 0.0
H514 H 0.94635 0.2641 0.31085 0.0
H515 H 0.99325 0.36601 0.4605 0.0
H516 H 0.99896 0.27553 0.39549 0.0
H517 H 0.93465 0.35246 0.3787 0.0
C518 C 0.91745 0.32703 0.33829 0.0
C519 C 0.91996 0.30179 0.31899 0.0
C520 C 0.99779 0.29552 0.40942 0.0
C521 C 0.95996 0.31395 0.36994 0.0
C522 C 0.0138 0.29835 0.43893 0.0
C523 C 0.01227 0.32361 0.45823 0.0
C524 C 0.97963 0.31795 0.39918 0.0
C525 C 0.99499 0.34617 0.44638 0.0
C526 C 0.93743 0.33325 0.3636 0.0
C527 C 0.94357 0.28379 0.32501 0.0
N528 N 0.97898 0.34266 0.41779 0.0
N529 N 0.96243 0.29004 0.3502 0.0
H530 H 0.71758 0.8799 0.35458 0.0
H531 H 0.77066 0.03132 0.41738 0.0
H532 H 0.7654 0.93756 0.29009 0.0
H533 H 0.69746 0.98927 0.46272 0.0
H534 H 0.76845 0.99776 0.36998 0.0
H535 H 0.70955 0.91938 0.39447 0.0
C536 C 0.72628 0.90094 0.34879 0.0
C537 C 0.74244 0.90545 0.31919 0.0
C538 C 0.7525 0.99614 0.38992 0.0
C539 C 0.73338 0.95065 0.36466 0.0
C540 C 0.75375 0.01529 0.41695 0.0
C541 C 0.7342 0.01299 0.44391 0.0
C542 C 0.73204 0.97397 0.39025 0.0
C543 C 0.71277 0.99184 0.44225 0.0
C544 C 0.72148 0.9235 0.37139 0.0
C545 C 0.75281 0.93321 0.31259 0.0
N546 N 0.71259 0.97272 0.41614 0.0
N547 N 0.74848 0.95467 0.3354 0.0
H548 H 0.1346 0.80348 0.29108 0.0
H549 H 0.08353 0.70737 0.44911 0.0
H550 H 0.18737 0.73701 0.33497 0.0
H551 H 0.04457 0.78755 0.4193 0.0
H552 H 0.11659 0.71131 0.4004 0.0
H553 H 0.09621 0.79108 0.33077 0.0
C554 C 0.13801 0.78601 0.30872 0.0
C555 C 0.16443 0.77152 0.30989 0.0
C556 C 0.1005 0.72779 0.40435 0.0
C557 C 0.12053 0.7573 0.35576 0.0
C558 C 0.08155 0.72541 0.43193 0.0
C559 C 0.0615 0.74727 0.4383 0.0
C560 C 0.09898 0.75196 0.38293 0.0
C561 C 0.05994 0.77037 0.41548 0.0
C562 C 0.11612 0.77903 0.33157 0.0
C563 C 0.16758 0.74915 0.3336 0.0
N564 N 0.07846 0.77215 0.38898 0.0
N565 N 0.14598 0.74283 0.35573 0.0
H566 H 0.32822 0.17612 0.33802 0.0
H567 H 0.27506 0.04119 0.4454 0.0
H568 H 0.25284 0.12613 0.31414 0.0
H569 H 0.35678 0.0822 0.46323 0.0
H570 H 0.26883 0.07024 0.39477 0.0
H571 H 0.34103 0.1408 0.38136 0.0
C572 C 0.31439 0.15767 0.34177 0.0
C573 C 0.28915 0.15434 0.32263 0.0
C574 C 0.2883 0.07281 0.40941 0.0
C575 C 0.30387 0.11366 0.37218 0.0
C576 C 0.29188 0.05622 0.43842 0.0
C577 C 0.31637 0.05948 0.45872 0.0
C578 C 0.30915 0.09333 0.40066 0.0
C579 C 0.33759 0.07903 0.44824 0.0
C580 C 0.32185 0.13741 0.36641 0.0
C581 C 0.27247 0.12963 0.32815 0.0
N582 N 0.3333 0.09558 0.42013 0.0
N583 N 0.27996 0.11046 0.35261 0.0
H584 H 0.70914 0.85803 0.83317 0.0
H585 H 0.63785 0.77054 0.98482 0.0
H586 H 0.74709 0.78154 0.87572 0.0
H587 H 0.61301 0.85741 0.96015 0.0
H588 H 0.67838 0.77466 0.94565 0.0
H589 H 0.67482 0.8592 0.88018 0.0
C590 C 0.7106 0.84175 0.85271 0.0
C591 C 0.73105 0.8196 0.85034 0.0
C592 C 0.66426 0.79295 0.94899 0.0
C593 C 0.69127 0.82048 0.90403 0.0
C594 C 0.64099 0.79058 0.97131 0.0
C595 C 0.62182 0.81362 0.97573 0.0
C596 C 0.6683 0.8184 0.93041 0.0
C597 C 0.62719 0.83909 0.95759 0.0
C598 C 0.69091 0.8424 0.87954 0.0
C599 C 0.73182 0.79909 0.87647 0.0
N600 N 0.6497 0.84068 0.93548 0.0
N601 N 0.71198 0.79979 0.90189 0.0
H602 H 0.21489 0.70182 0.84247 0.0
H603 H 0.3066 0.6304 0.99078 0.0
H604 H 0.2959 0.73584 0.87727 0.0
H605 H 0.21957 0.60491 0.96797 0.0
H606 H 0.30208 0.67028 0.95094 0.0
H607 H 0.21481 0.66805 0.88998 0.0
C608 C 0.23245 0.70255 0.8604 0.0
C609 C 0.25551 0.7217 0.85565 0.0
C610 C 0.28386 0.65615 0.95479 0.0
C611 C 0.25578 0.68256 0.90996 0.0
C612 C 0.28644 0.63325 0.97753 0.0
C613 C 0.26348 0.61406 0.98268 0.0
C614 C 0.25821 0.65989 0.93661 0.0
C615 C 0.23786 0.61908 0.96483 0.0
C616 C 0.23241 0.68315 0.88751 0.0
C617 C 0.27763 0.72156 0.87982 0.0
N618 N 0.23602 0.6413 0.9424 0.0
N619 N 0.27739 0.70208 0.9056 0.0
H620 H 0.33607 0.32721 0.87279 0.0
H621 H 0.44707 0.24447 0.99126 0.0
H622 H 0.36942 0.24264 0.85173 0.0
H623 H 0.45091 0.33689 0.98143 0.0
H624 H 0.40841 0.24323 0.95033 0.0
H625 H 0.36819 0.33036 0.92212 0.0
C626 C 0.34957 0.30903 0.87901 0.0
C627 C 0.35 0.28452 0.8582 0.0
C628 C 0.41752 0.26383 0.95726 0.0
C629 C 0.38655 0.28802 0.91441 0.0
C630 C 0.43968 0.26467 0.98077 0.0
C631 C 0.45276 0.29087 0.98965 0.0
C632 C 0.40781 0.28935 0.9424 0.0
C633 C 0.44168 0.3162 0.97523 0.0
C634 C 0.36809 0.31101 0.9069 0.0
C635 C 0.36831 0.26184 0.86713 0.0
N636 N 0.41987 0.31482 0.95211 0.0
N637 N 0.38574 0.26411 0.89454 0.0
H638 H 0.72107 0.37073 0.84001 0.0
H639 H 0.81268 0.43961 0.98818 0.0
H640 H 0.80071 0.33306 0.87384 0.0
H641 H 0.72395 0.46126 0.96934 0.0
H642 H 0.80871 0.39971 0.94828 0.0
H643 H 0.72172 0.40305 0.88827 0.0
C644 C 0.73873 0.36918 0.85775 0.0
C645 C 0.76107 0.34932 0.85265 0.0
C646 C 0.79 0.41293 0.95318 0.0
C647 C 0.76201 0.38671 0.90826 0.0
C648 C 0.79222 0.43579 0.97594 0.0
C649 C 0.76864 0.45404 0.98195 0.0
C650 C 0.76412 0.40841 0.93585 0.0
C651 C 0.74268 0.44785 0.9655 0.0
C652 C 0.73898 0.38762 0.88546 0.0
C653 C 0.78312 0.34808 0.87677 0.0
N654 N 0.74124 0.42582 0.9429 0.0
N655 N 0.78326 0.36685 0.90333 0.0
H656 H 0.73342 0.23306 0.15597 0.0
H657 H 0.60145 0.33515 0.10325 0.0
H658 H 0.72756 0.32103 0.18978 0.0
H659 H 0.60692 0.24393 0.08426 0.0
H660 H 0.64856 0.33263 0.13191 0.0
H661 H 0.68832 0.23889 0.12597 0.0
C662 C 0.72282 0.25373 0.15692 0.0
C663 C 0.73454 0.27654 0.17555 0.0
C664 C 0.6393 0.31326 0.12138 0.0
C665 C 0.68206 0.28339 0.14121 0.0
C666 C 0.61248 0.3147 0.10497 0.0
C667 C 0.6 0.28973 0.0914 0.0
C668 C 0.65374 0.28672 0.12388 0.0
C669 C 0.61536 0.26381 0.09443 0.0
C670 C 0.6968 0.25703 0.13989 0.0
C671 C 0.71926 0.30271 0.1761 0.0
N672 N 0.64119 0.26305 0.1102 0.0
N673 N 0.69384 0.30544 0.15919 0.0
H674 H 0.74157 0.72103 0.19103 0.0
H675 H 0.82066 0.61226 0.06513 0.0
H676 H 0.82769 0.733 0.15262 0.0
H677 H 0.73233 0.60101 0.0962 0.0
H678 H 0.82236 0.65743 0.09567 0.0
H679 H 0.73673 0.67816 0.15572 0.0
C680 C 0.75951 0.71466 0.17526 0.0
C681 C 0.78525 0.73061 0.17514 0.0
C682 C 0.80251 0.64527 0.0958 0.0
C683 C 0.77965 0.68156 0.1343 0.0
C684 C 0.8015 0.61932 0.07835 0.0
C685 C 0.77634 0.60258 0.07826 0.0
C686 C 0.77825 0.65476 0.11372 0.0
C687 C 0.75217 0.61316 0.0956 0.0
C688 C 0.75662 0.69025 0.15491 0.0
C689 C 0.80745 0.72158 0.15352 0.0
N690 N 0.75379 0.6385 0.1129 0.0
N691 N 0.80419 0.69762 0.13421 0.0
H692 H 0.35558 0.77665 0.18738 0.0
H693 H 0.47646 0.86047 0.08036 0.0
H694 H 0.35307 0.86823 0.17012 0.0
H695 H 0.47513 0.76865 0.09617 0.0
H696 H 0.43173 0.86438 0.11323 0.0
H697 H 0.39975 0.77393 0.15431 0.0
C698 C 0.36435 0.79627 0.17683 0.0
C699 C 0.35049 0.82275 0.18184 0.0
C700 C 0.44126 0.8434 0.10946 0.0
C701 C 0.40134 0.81972 0.14333 0.0
C702 C 0.46683 0.84115 0.09071 0.0
C703 C 0.47968 0.81418 0.08542 0.0
C704 C 0.42846 0.81852 0.12308 0.0
C705 C 0.46613 0.78991 0.09948 0.0
C706 C 0.38959 0.79467 0.1577 0.0
C707 C 0.36278 0.84731 0.16679 0.0
N708 N 0.4414 0.79268 0.11758 0.0
N709 N 0.38751 0.84522 0.14834 0.0
H710 H 0.20451 0.34322 0.17067 0.0
H711 H 0.30933 0.46943 0.10695 0.0
H712 H 0.29533 0.34684 0.19235 0.0
H713 H 0.21847 0.46777 0.08518 0.0
H714 H 0.3042 0.42449 0.13823 0.0
H715 H 0.20888 0.38827 0.139 0.0
C716 C 0.22541 0.35331 0.16871 0.0
C717 C 0.24958 0.34099 0.18442 0.0
C718 C 0.28533 0.4339 0.12666 0.0
C719 C 0.25466 0.393 0.14822 0.0
C720 C 0.28823 0.45966 0.10874 0.0
C721 C 0.26429 0.47256 0.09329 0.0
C722 C 0.25826 0.42065 0.12932 0.0
C723 C 0.23754 0.45871 0.09663 0.0
C724 C 0.22784 0.37919 0.15071 0.0
C725 C 0.27599 0.35551 0.1812 0.0
N726 N 0.23526 0.43354 0.11422 0.0
N727 N 0.27778 0.38059 0.16352 0.0
H728 H 0.35156 0.2051 0.22002 0.0
H729 H 0.48193 0.29287 0.14144 0.0
H730 H 0.36774 0.2941 0.24334 0.0
H731 H 0.46732 0.20251 0.12371 0.0
H732 H 0.44505 0.29215 0.18542 0.0
H733 H 0.39828 0.20208 0.1923 0.0
C734 C 0.3653 0.22393 0.21977 0.0
C735 C 0.35577 0.24997 0.23368 0.0
C736 C 0.45016 0.27237 0.1723 0.0
C737 C 0.40916 0.24688 0.20119 0.0
C738 C 0.47123 0.27273 0.14709 0.0
C739 C 0.47746 0.24776 0.12842 0.0
C740 C 0.43495 0.24692 0.17882 0.0
C741 C 0.46312 0.2223 0.13722 0.0
C742 C 0.39197 0.2222 0.20387 0.0
C743 C 0.37439 0.27363 0.23293 0.0
N744 N 0.44226 0.22264 0.16145 0.0
N745 N 0.40006 0.27169 0.21632 0.0
H746 H 0.7772 0.38121 0.2428 0.0
H747 H 0.8666 0.47971 0.11565 0.0
H748 H 0.86896 0.3761 0.22873 0.0
H749 H 0.77475 0.48604 0.12998 0.0
H750 H 0.86915 0.44842 0.16538 0.0
H751 H 0.77703 0.42672 0.21112 0.0
C752 C 0.79739 0.39025 0.23413 0.0
C753 C 0.82308 0.37495 0.23797 0.0
C754 C 0.84847 0.45697 0.15789 0.0
C755 C 0.8231 0.42618 0.20113 0.0
C756 C 0.84704 0.47481 0.12944 0.0
C757 C 0.82039 0.48506 0.11821 0.0
C758 C 0.82305 0.44919 0.17506 0.0
C759 C 0.79575 0.47823 0.13733 0.0
C760 C 0.79732 0.41601 0.21572 0.0
C761 C 0.84866 0.38724 0.2259 0.0
N762 N 0.79762 0.46044 0.16449 0.0
N763 N 0.84799 0.41188 0.20756 0.0
H764 H 0.70559 0.74187 0.24506 0.0
H765 H 0.5813 0.81186 0.1363 0.0
H766 H 0.65469 0.81406 0.27857 0.0
H767 H 0.61295 0.72656 0.11519 0.0
H768 H 0.60769 0.81176 0.18937 0.0
H769 H 0.67113 0.73368 0.19935 0.0
C770 C 0.68688 0.75562 0.24335 0.0
C771 C 0.68338 0.77906 0.26545 0.0
C772 C 0.60875 0.79291 0.17337 0.0
C773 C 0.64409 0.76998 0.21283 0.0
C774 C 0.5938 0.79303 0.14287 0.0
C775 C 0.59511 0.76928 0.12109 0.0
C776 C 0.62566 0.76905 0.18213 0.0
C777 C 0.61141 0.74535 0.13121 0.0
C778 C 0.66725 0.75096 0.21712 0.0
C779 C 0.65856 0.79597 0.26198 0.0
N780 N 0.62639 0.74599 0.16084 0.0
N781 N 0.6402 0.7914 0.23586 0.0
H782 H 0.33173 0.72007 0.23241 0.0
H783 H 0.25813 0.5874 0.13831 0.0
H784 H 0.24234 0.69689 0.24061 0.0
H785 H 0.34731 0.61014 0.12407 0.0
H786 H 0.25482 0.62228 0.18395 0.0
H787 H 0.34084 0.67494 0.20163 0.0
C788 C 0.31431 0.70489 0.22892 0.0
C789 C 0.28632 0.71186 0.23927 0.0
C790 C 0.27524 0.61956 0.17114 0.0
C791 C 0.29623 0.66097 0.20342 0.0
C792 C 0.27713 0.59961 0.14495 0.0
C793 C 0.30293 0.59608 0.12697 0.0
C794 C 0.29922 0.63654 0.17935 0.0
C795 C 0.32693 0.61229 0.13711 0.0
C796 C 0.31939 0.67936 0.21099 0.0
C797 C 0.26426 0.69206 0.23325 0.0
N798 N 0.3244 0.63212 0.16233 0.0
N799 N 0.26962 0.6677 0.21549 0.0
H800 H 0.39678 0.78989 0.82924 0.0
H801 H 0.5042 0.71161 0.95744 0.0
H802 H 0.40946 0.69812 0.82851 0.0
H803 H 0.4995 0.80347 0.94268 0.0
H804 H 0.47014 0.70525 0.91052 0.0
H805 H 0.43476 0.79452 0.87119 0.0
C806 C 0.40763 0.77069 0.83794 0.0
C807 C 0.39982 0.74358 0.82554 0.0
C808 C 0.47679 0.72674 0.91749 0.0
C809 C 0.44354 0.74862 0.87381 0.0
C810 C 0.49621 0.73039 0.94425 0.0
C811 C 0.50463 0.75812 0.95422 0.0
C812 C 0.46566 0.75101 0.90079 0.0
C813 C 0.49358 0.78167 0.93616 0.0
C814 C 0.42945 0.77332 0.86181 0.0
C815 C 0.41495 0.71943 0.83732 0.0
N816 N 0.47464 0.77756 0.91059 0.0
N817 N 0.43594 0.72247 0.86107 0.0
H818 H 0.32273 0.44625 0.79268 0.0
H819 H 0.36474 0.48489 0.98342 0.0
H820 H 0.35896 0.38365 0.86068 0.0
H821 H 0.28994 0.51989 0.934 0.0
H822 H 0.37415 0.45527 0.93298 0.0
H823 H 0.32228 0.48154 0.83911 0.0
C824 C 0.33121 0.44024 0.81719 0.0
C825 C 0.34082 0.41214 0.82309 0.0
C826 C 0.3559 0.46973 0.93317 0.0
C827 C 0.34057 0.45207 0.87586 0.0
C828 C 0.3506 0.48665 0.96178 0.0
C829 C 0.32641 0.50461 0.96289 0.0
C830 C 0.33729 0.47145 0.90529 0.0
C831 C 0.30866 0.50605 0.93426 0.0
C832 C 0.33076 0.46019 0.84363 0.0
C833 C 0.35126 0.40514 0.85536 0.0
N834 N 0.31447 0.48973 0.90659 0.0
N835 N 0.35087 0.42497 0.8806 0.0
H836 H 0.67834 0.23168 0.83579 0.0
H837 H 0.53996 0.28363 0.93738 0.0
H838 H 0.62576 0.30393 0.80679 0.0
H839 H 0.58902 0.20893 0.96619 0.0
H840 H 0.56752 0.28696 0.88512 0.0
H841 H 0.643 0.21904 0.8792 0.0
C842 C 0.65928 0.24482 0.83841 0.0
C843 C 0.65529 0.26926 0.81797 0.0
C844 C 0.57216 0.26959 0.90254 0.0
C845 C 0.61457 0.25471 0.86754 0.0
C846 C 0.55641 0.26767 0.93243 0.0
C847 C 0.56249 0.24616 0.95628 0.0
C848 C 0.59461 0.25013 0.89651 0.0
C849 C 0.58372 0.22585 0.94843 0.0
C850 C 0.63902 0.23745 0.8631 0.0
C851 C 0.6298 0.28498 0.82193 0.0
N852 N 0.59941 0.22861 0.91938 0.0
N853 N 0.61062 0.27764 0.8465 0.0
H854 H 0.82019 0.69486 0.84465 0.0
H855 H 0.77943 0.54354 0.92363 0.0
H856 H 0.75156 0.64109 0.80725 0.0
H857 H 0.85326 0.59253 0.95539 0.0
H858 H 0.77337 0.57584 0.8756 0.0
H859 H 0.83651 0.65538 0.88003 0.0
C860 C 0.80871 0.67469 0.84335 0.0
C861 C 0.78412 0.67157 0.82299 0.0
C862 C 0.79122 0.57936 0.89264 0.0
C863 C 0.80273 0.62615 0.86417 0.0
C864 C 0.79474 0.56086 0.92001 0.0
C865 C 0.81673 0.5656 0.94356 0.0
C866 C 0.80948 0.6032 0.8891 0.0
C867 C 0.83607 0.58817 0.9377 0.0
C868 C 0.81809 0.65209 0.86379 0.0
C869 C 0.77019 0.6448 0.82297 0.0
N870 N 0.83166 0.60654 0.91133 0.0
N871 N 0.77952 0.62326 0.84347 0.0
loop_
_geom_bond_atom_site_label_1
_geom_bond_atom_site_label_2
_geom_bond_distance
_geom_bond_site_symmetry_2
_ccdc_geom_bond_type
Cu0 N1 1.999 . S
Cu0 O6 1.974 . S
Cu0 N11 1.985 . S
Cu0 O20 1.959 . S
N1 Cu0 1.999 . S
N1 C3 1.263 . S
N1 C5 1.389 . S
N2 C3 1.358 . S
N2 C4 1.400 . S
C3 N1 1.263 . S
C3 N2 1.358 . S
C3 H9 0.930 . S
C4 N2 1.400 . S
C4 C5 1.351 . S
C4 H21 0.930 . S
C5 N1 1.389 . S
C5 C4 1.351 . S
C5 H10 0.930 . S
O6 Cu0 1.974 . S
O6 C16 1.282 . S
C7 O8 1.261 . S
C7 O20 1.251 . S
O8 C7 1.261 . S
H9 C3 0.930 . S
H10 C5 0.930 . S
N11 Cu0 1.985 . S
N11 C13 1.335 . S
N11 C14 1.390 . S
N12 C13 1.345 . S
N12 C15 1.336 . S
C13 N11 1.335 . S
C13 N12 1.345 . S
C13 H18 0.930 . S
C14 N11 1.390 . S
C14 C15 1.346 . S
C14 H19 0.930 . S
C15 N12 1.336 . S
C15 C14 1.346 . S
C15 H22 0.929 . S
C16 O6 1.282 . S
C16 O17 1.216 . S
O17 C16 1.216 . S
H18 C13 0.930 . S
H19 C14 0.930 . S
O20 Cu0 1.959 . S
O20 C7 1.251 . S
H21 C4 0.930 . S
H22 C15 0.929 . S
Cu23 N24 1.999 . S
Cu23 O29 1.974 . S
Cu23 N34 1.985 . S
Cu23 O43 1.959 . S
N24 Cu23 1.999 . S
N24 C26 1.263 . S
N24 C28 1.389 . S
N25 C26 1.358 . S
N25 C27 1.400 . S
C26 N24 1.263 . S
C26 N25 1.358 . S
C26 H32 0.930 . S
C27 N25 1.400 . S
C27 C28 1.351 . S
C27 H44 0.930 . S
C28 N24 1.389 . S
C28 C27 1.351 . S
C28 H33 0.930 . S
O29 Cu23 1.974 . S
O29 C39 1.282 . S
C30 O31 1.261 . S
C30 O43 1.251 . S
O31 C30 1.261 . S
H32 C26 0.930 . S
H33 C28 0.930 . S
N34 Cu23 1.985 . S
N34 C36 1.335 . S
N34 C37 1.390 . S
N35 C36 1.345 . S
N35 C38 1.336 . S
C36 N34 1.335 . S
C36 N35 1.345 . S
C36 H41 0.930 . S
C37 N34 1.390 . S
C37 C38 1.346 . S
C37 H42 0.930 . S
C38 N35 1.336 . S
C38 C37 1.346 . S
C38 H45 0.929 . S
C39 O29 1.282 . S
C39 O40 1.216 . S
O40 C39 1.216 . S
H41 C36 0.930 . S
H42 C37 0.930 . S
O43 Cu23 1.959 . S
O43 C30 1.251 . S
H44 C27 0.930 . S
H45 C38 0.929 . S
Cu46 N47 1.999 . S
Cu46 O52 1.974 . S
Cu46 N57 1.985 . S
Cu46 O66 1.959 . S
N47 Cu46 1.999 . S
N47 C49 1.263 . S
N47 C51 1.389 . S
N48 C49 1.358 . S
N48 C50 1.400 . S
C49 N47 1.263 . S
C49 N48 1.358 . S
C49 H55 0.930 . S
C50 N48 1.400 . S
C50 C51 1.351 . S
C50 H67 0.930 . S
C51 N47 1.389 . S
C51 C50 1.351 . S
C51 H56 0.930 . S
O52 Cu46 1.974 . S
O52 C62 1.282 . S
C53 O54 1.261 . S
C53 O66 1.251 . S
O54 C53 1.261 . S
H55 C49 0.930 . S
H56 C51 0.930 . S
N57 Cu46 1.985 . S
N57 C59 1.335 . S
N57 C60 1.390 . S
N58 C59 1.345 . S
N58 C61 1.336 . S
C59 N57 1.335 . S
C59 N58 1.345 . S
C59 H64 0.930 . S
C60 N57 1.390 . S
C60 C61 1.346 . S
C60 H65 0.930 . S
C61 N58 1.336 . S
C61 C60 1.346 . S
C61 H68 0.929 . S
C62 O52 1.282 . S
C62 O63 1.216 . S
O63 C62 1.216 . S
H64 C59 0.930 . S
H65 C60 0.930 . S
O66 Cu46 1.959 . S
O66 C53 1.251 . S
H67 C50 0.930 . S
H68 C61 0.929 . S
Cu69 N70 1.999 . S
Cu69 O75 1.974 . S
Cu69 N80 1.985 . S
Cu69 O89 1.959 . S
N70 Cu69 1.999 . S
N70 C72 1.263 . S
N70 C74 1.389 . S
N71 C72 1.358 . S
N71 C73 1.400 . S
C72 N70 1.263 . S
C72 N71 1.358 . S
C72 H78 0.930 . S
C73 N71 1.400 . S
C73 C74 1.351 . S
C73 H90 0.930 . S
C74 N70 1.389 . S
C74 C73 1.351 . S
C74 H79 0.930 . S
O75 Cu69 1.974 . S
O75 C85 1.282 . S
C76 O77 1.261 . S
C76 O89 1.251 . S
O77 C76 1.261 . S
H78 C72 0.930 . S
H79 C74 0.930 . S
N80 Cu69 1.985 . S
N80 C82 1.335 . S
N80 C83 1.390 . S
N81 C82 1.345 . S
N81 C84 1.336 . S
C82 N80 1.335 . S
C82 N81 1.345 . S
C82 H87 0.930 . S
C83 N80 1.390 . S
C83 C84 1.346 . S
C83 H88 0.930 . S
C84 N81 1.336 . S
C84 C83 1.346 . S
C84 H91 0.929 . S
C85 O75 1.282 . S
C85 O86 1.216 . S
O86 C85 1.216 . S
H87 C82 0.930 . S
H88 C83 0.930 . S
O89 Cu69 1.959 . S
O89 C76 1.251 . S
H90 C73 0.930 . S
H91 C84 0.929 . S
Cu92 N93 1.999 . S
Cu92 O98 1.974 . S
Cu92 N103 1.985 . S
Cu92 O112 1.959 . S
N93 Cu92 1.999 . S
N93 C95 1.263 . S
N93 C97 1.389 . S
N94 C95 1.358 . S
N94 C96 1.400 . S
C95 N93 1.263 . S
C95 N94 1.358 . S
C95 H101 0.930 . S
C96 N94 1.400 . S
C96 C97 1.351 . S
C96 H113 0.930 . S
C97 N93 1.389 . S
C97 C96 1.351 . S
C97 H102 0.930 . S
O98 Cu92 1.974 . S
O98 C108 1.282 . S
C99 O100 1.261 . S
C99 O112 1.251 . S
O100 C99 1.261 . S
H101 C95 0.930 . S
H102 C97 0.930 . S
N103 Cu92 1.985 . S
N103 C105 1.335 . S
N103 C106 1.390 . S
N104 C105 1.345 . S
N104 C107 1.336 . S
C105 N103 1.335 . S
C105 N104 1.345 . S
C105 H110 0.930 . S
C106 N103 1.390 . S
C106 C107 1.346 . S
C106 H111 0.930 . S
C107 N104 1.336 . S
C107 C106 1.346 . S
C107 H114 0.929 . S
C108 O98 1.282 . S
C108 O109 1.216 . S
O109 C108 1.216 . S
H110 C105 0.930 . S
H111 C106 0.930 . S
O112 Cu92 1.959 . S
O112 C99 1.251 . S
H113 C96 0.930 . S
H114 C107 0.929 . S
Cu115 N116 1.999 . S
Cu115 O121 1.974 . S
Cu115 N126 1.985 . S
Cu115 O135 1.959 . S
N116 Cu115 1.999 . S
N116 C118 1.263 . S
N116 C120 1.389 . S
N117 C118 1.358 . S
N117 C119 1.400 . S
C118 N116 1.263 . S
C118 N117 1.358 . S
C118 H124 0.930 . S
C119 N117 1.400 . S
C119 C120 1.351 . S
C119 H136 0.930 . S
C120 N116 1.389 . S
C120 C119 1.351 . S
C120 H125 0.930 . S
O121 Cu115 1.974 . S
O121 C131 1.282 . S
C122 O123 1.261 . S
C122 O135 1.251 . S
O123 C122 1.261 . S
H124 C118 0.930 . S
H125 C120 0.930 . S
N126 Cu115 1.985 . S
N126 C128 1.335 . S
N126 C129 1.390 . S
N127 C128 1.345 . S
N127 C130 1.336 . S
C128 N126 1.335 . S
C128 N127 1.345 . S
C128 H133 0.930 . S
C129 N126 1.390 . S
C129 C130 1.346 . S
C129 H134 0.930 . S
C130 N127 1.336 . S
C130 C129 1.346 . S
C130 H137 0.929 . S
C131 O121 1.282 . S
C131 O132 1.216 . S
O132 C131 1.216 . S
H133 C128 0.930 . S
H134 C129 0.930 . S
O135 Cu115 1.959 . S
O135 C122 1.251 . S
H136 C119 0.930 . S
H137 C130 0.929 . S
Cu138 N139 1.999 . S
Cu138 O144 1.974 . S
Cu138 N149 1.985 . S
Cu138 O158 1.959 . S
N139 Cu138 1.999 . S
N139 C141 1.263 . S
N139 C143 1.389 . S
N140 C141 1.358 . S
N140 C142 1.400 . S
C141 N139 1.263 . S
C141 N140 1.358 . S
C141 H147 0.930 . S
C142 N140 1.400 . S
C142 C143 1.351 . S
C142 H159 0.930 . S
C143 N139 1.389 . S
C143 C142 1.351 . S
C143 H148 0.930 . S
O144 Cu138 1.974 . S
O144 C154 1.282 . S
C145 O146 1.261 . S
C145 O158 1.251 . S
O146 C145 1.261 . S
H147 C141 0.930 . S
H148 C143 0.930 . S
N149 Cu138 1.985 . S
N149 C151 1.335 . S
N149 C152 1.390 . S
N150 C151 1.345 . S
N150 C153 1.336 . S
C151 N149 1.335 . S
C151 N150 1.345 . S
C151 H156 0.930 . S
C152 N149 1.390 . S
C152 C153 1.346 . S
C152 H157 0.930 . S
C153 N150 1.336 . S
C153 C152 1.346 . S
C153 H160 0.929 . S
C154 O144 1.282 . S
C154 O155 1.216 . S
O155 C154 1.216 . S
H156 C151 0.930 . S
H157 C152 0.930 . S
O158 Cu138 1.959 . S
O158 C145 1.251 . S
H159 C142 0.930 . S
H160 C153 0.929 . S
Cu161 N162 1.999 . S
Cu161 O167 1.974 . S
Cu161 N172 1.985 . S
Cu161 O181 1.959 . S
N162 Cu161 1.999 . S
N162 C164 1.263 . S
N162 C166 1.389 . S
N163 C164 1.358 . S
N163 C165 1.400 . S
C164 N162 1.263 . S
C164 N163 1.358 . S
C164 H170 0.930 . S
C165 N163 1.400 . S
C165 C166 1.351 . S
C165 H182 0.930 . S
C166 N162 1.389 . S
C166 C165 1.351 . S
C166 H171 0.930 . S
O167 Cu161 1.974 . S
O167 C177 1.282 . S
C168 O169 1.261 . S
C168 O181 1.251 . S
O169 C168 1.261 . S
H170 C164 0.930 . S
H171 C166 0.930 . S
N172 Cu161 1.985 . S
N172 C174 1.335 . S
N172 C175 1.390 . S
N173 C174 1.345 . S
N173 C176 1.336 . S
C174 N172 1.335 . S
C174 N173 1.345 . S
C174 H179 0.930 . S
C175 N172 1.390 . S
C175 C176 1.346 . S
C175 H180 0.930 . S
C176 N173 1.336 . S
C176 C175 1.346 . S
C176 H183 0.929 . S
C177 O167 1.282 . S
C177 O178 1.216 . S
O178 C177 1.216 . S
H179 C174 0.930 . S
H180 C175 0.930 . S
O181 Cu161 1.959 . S
O181 C168 1.251 . S
H182 C165 0.930 . S
H183 C176 0.929 . S
C184 O186 1.247 . S
C184 O188 1.258 . S
C185 O192 1.247 . S
C185 O193 1.258 . S
O186 C184 1.247 . S
O186 Zn187 2.028 . S
Zn187 O186 2.028 . S
Zn187 O191 2.035 . S
Zn187 O193 2.035 . S
Zn187 O194 2.028 . S
O188 C184 1.258 . S
O188 Zn189 2.035 . S
Zn189 O188 2.035 . S
Zn189 O190 2.028 . S
Zn189 O192 2.028 . S
Zn189 O195 2.035 . S
O190 Zn189 2.028 . S
O190 C196 1.247 . S
O191 Zn187 2.035 . S
O191 C196 1.258 . S
O192 C185 1.247 . S
O192 Zn189 2.028 . S
O193 C185 1.258 . S
O193 Zn187 2.035 . S
O194 Zn187 2.028 . S
O194 C197 1.247 . S
O195 Zn189 2.035 . S
O195 C197 1.258 . S
C196 O190 1.247 . S
C196 O191 1.258 . S
C197 O194 1.247 . S
C197 O195 1.258 . S
C198 O200 1.247 . S
C198 O202 1.258 . S
C199 O206 1.247 . S
C199 O207 1.258 . S
O200 C198 1.247 . S
O200 Zn201 2.028 . S
Zn201 O200 2.028 . S
Zn201 O205 2.035 . S
Zn201 O207 2.035 . S
Zn201 O208 2.028 . S
O202 C198 1.258 . S
O202 Zn203 2.035 . S
Zn203 O202 2.035 . S
Zn203 O204 2.028 . S
Zn203 O206 2.028 . S
Zn203 O209 2.035 . S
O204 Zn203 2.028 . S
O204 C210 1.247 . S
O205 Zn201 2.035 . S
O205 C210 1.258 . S
O206 C199 1.247 . S
O206 Zn203 2.028 . S
O207 C199 1.258 . S
O207 Zn201 2.035 . S
O208 Zn201 2.028 . S
O208 C211 1.247 . S
O209 Zn203 2.035 . S
O209 C211 1.258 . S
C210 O204 1.247 . S
C210 O205 1.258 . S
C211 O208 1.247 . S
C211 O209 1.258 . S
C212 O214 1.247 . S
C212 O216 1.258 . S
C213 O220 1.247 . S
C213 O221 1.258 . S
O214 C212 1.247 . S
O214 Zn215 2.028 1_655 S
Zn215 O214 2.028 1_455 S
Zn215 O219 2.035 . S
Zn215 O221 2.035 . S
Zn215 O222 2.028 1_455 S
O216 C212 1.258 . S
O216 Zn217 2.035 1_655 S
Zn217 O216 2.035 1_455 S
Zn217 O218 2.028 . S
Zn217 O220 2.028 . S
Zn217 O223 2.035 1_455 S
O218 Zn217 2.028 . S
O218 C224 1.247 . S
O219 Zn215 2.035 . S
O219 C224 1.258 . S
O220 C213 1.247 . S
O220 Zn217 2.028 . S
O221 C213 1.258 . S
O221 Zn215 2.035 . S
O222 Zn215 2.028 1_655 S
O222 C225 1.247 . S
O223 Zn217 2.035 1_655 S
O223 C225 1.258 . S
C224 O218 1.247 . S
C224 O219 1.258 . S
C225 O222 1.247 . S
C225 O223 1.258 . S
C226 O228 1.247 . S
C226 O230 1.258 . S
C227 O234 1.247 . S
C227 O235 1.258 . S
O228 C226 1.247 . S
O228 Zn229 2.028 . S
Zn229 O228 2.028 . S
Zn229 O233 2.035 1_545 S
Zn229 O235 2.035 1_545 S
Zn229 O236 2.028 . S
O230 C226 1.258 . S
O230 Zn231 2.035 . S
Zn231 O230 2.035 . S
Zn231 O232 2.028 1_545 S
Zn231 O234 2.028 1_545 S
Zn231 O237 2.035 . S
O232 Zn231 2.028 1_565 S
O232 C238 1.247 . S
O233 Zn229 2.035 1_565 S
O233 C238 1.258 . S
O234 C227 1.247 . S
O234 Zn231 2.028 1_565 S
O235 C227 1.258 . S
O235 Zn229 2.035 1_565 S
O236 Zn229 2.028 . S
O236 C239 1.247 . S
O237 Zn231 2.035 . S
O237 C239 1.258 . S
C238 O232 1.247 . S
C238 O233 1.258 . S
C239 O236 1.247 . S
C239 O237 1.258 . S
C240 O242 1.247 . S
C240 O244 1.258 . S
C241 O248 1.247 . S
C241 O249 1.258 . S
O242 C240 1.247 . S
O242 Zn243 2.028 . S
Zn243 O242 2.028 . S
Zn243 O247 2.035 . S
Zn243 O249 2.035 1_554 S
Zn243 O250 2.028 1_554 S
O244 C240 1.258 . S
O244 Zn245 2.035 . S
Zn245 O244 2.035 . S
Zn245 O246 2.028 . S
Zn245 O248 2.028 1_554 S
Zn245 O251 2.035 1_554 S
O246 Zn245 2.028 . S
O246 C252 1.247 . S
O247 Zn243 2.035 . S
O247 C252 1.258 . S
O248 C241 1.247 . S
O248 Zn245 2.028 1_556 S
O249 C241 1.258 . S
O249 Zn243 2.035 1_556 S
O250 Zn243 2.028 1_556 S
O250 C253 1.247 . S
O251 Zn245 2.035 1_556 S
O251 C253 1.258 . S
C252 O246 1.247 . S
C252 O247 1.258 . S
C253 O250 1.247 . S
C253 O251 1.258 . S
C254 O256 1.247 . S
C254 O258 1.258 . S
C255 O262 1.247 . S
C255 O263 1.258 . S
O256 C254 1.247 . S
O256 Zn257 2.028 . S
Zn257 O256 2.028 . S
Zn257 O261 2.035 . S
Zn257 O263 2.035 1_554 S
Zn257 O264 2.028 1_554 S
O258 C254 1.258 . S
O258 Zn259 2.035 . S
Zn259 O258 2.035 . S
Zn259 O260 2.028 . S
Zn259 O262 2.028 1_554 S
Zn259 O265 2.035 1_554 S
O260 Zn259 2.028 . S
O260 C266 1.247 . S
O261 Zn257 2.035 . S
O261 C266 1.258 . S
O262 C255 1.247 . S
O262 Zn259 2.028 1_556 S
O263 C255 1.258 . S
O263 Zn257 2.035 1_556 S
O264 Zn257 2.028 1_556 S
O264 C267 1.247 . S
O265 Zn259 2.035 1_556 S
O265 C267 1.258 . S
C266 O260 1.247 . S
C266 O261 1.258 . S
C267 O264 1.247 . S
C267 O265 1.258 . S
C268 O270 1.247 . S
C268 O272 1.258 . S
C269 O276 1.247 . S
C269 O277 1.258 . S
O270 C268 1.247 . S
O270 Zn271 2.028 1_556 S
Zn271 O270 2.028 1_554 S
Zn271 O275 2.035 1_554 S
Zn271 O277 2.035 . S
Zn271 O278 2.028 . S
O272 C268 1.258 . S
O272 Zn273 2.035 1_556 S
Zn273 O272 2.035 1_554 S
Zn273 O274 2.028 1_554 S
Zn273 O276 2.028 . S
Zn273 O279 2.035 . S
O274 Zn273 2.028 1_556 S
O274 C280 1.247 . S
O275 Zn271 2.035 1_556 S
O275 C280 1.258 . S
O276 C269 1.247 . S
O276 Zn273 2.028 . S
O277 C269 1.258 . S
O277 Zn271 2.035 . S
O278 Zn271 2.028 . S
O278 C281 1.247 . S
O279 Zn273 2.035 . S
O279 C281 1.258 . S
C280 O274 1.247 . S
C280 O275 1.258 . S
C281 O278 1.247 . S
C281 O279 1.258 . S
C282 O284 1.247 . S
C282 O286 1.258 . S
C283 O290 1.247 . S
C283 O291 1.258 . S
O284 C282 1.247 . S
O284 Zn285 2.028 . S
Zn285 O284 2.028 . S
Zn285 O289 2.035 . S
Zn285 O291 2.035 1_554 S
Zn285 O292 2.028 1_554 S
O286 C282 1.258 . S
O286 Zn287 2.035 . S
Zn287 O286 2.035 . S
Zn287 O288 2.028 . S
Zn287 O290 2.028 1_554 S
Zn287 O293 2.035 1_554 S
O288 Zn287 2.028 . S
O288 C294 1.247 . S
O289 Zn285 2.035 . S
O289 C294 1.258 . S
O290 C283 1.247 . S
O290 Zn287 2.028 1_556 S
O291 C283 1.258 . S
O291 Zn285 2.035 1_556 S
O292 Zn285 2.028 1_556 S
O292 C295 1.247 . S
O293 Zn287 2.035 1_556 S
O293 C295 1.258 . S
C294 O288 1.247 . S
C294 O289 1.258 . S
C295 O292 1.247 . S
C295 O293 1.258 . S
H296 C302 0.930 . S
H297 C306 0.930 . S
H298 C311 0.929 . S
H299 C309 0.929 . S
H300 C304 0.929 . S
H301 C310 0.929 . S
C302 H296 0.930 . S
C302 C303 1.367 . S
C302 C310 1.378 . S
C303 C302 1.367 . S
C303 C311 1.433 . S
C304 H300 0.929 . S
C304 C306 1.378 . S
C304 C308 1.350 . S
C305 C308 1.463 . S
C305 C310 1.350 . S
C305 N313 1.427 . S
C306 H297 0.930 . S
C306 C304 1.378 . S
C306 C307 1.367 . S
C307 C306 1.367 . S
C307 C309 1.433 . S
C308 C304 1.350 . S
C308 C305 1.463 . S
C308 N312 1.427 . S
C309 H299 0.929 . S
C309 C307 1.433 . S
C309 N312 1.384 . S
C310 H301 0.929 . S
C310 C302 1.378 . S
C310 C305 1.350 . S
C311 H298 0.929 . S
C311 C303 1.433 . S
C311 N313 1.384 . S
N312 C308 1.427 . S
N312 C309 1.384 . S
N313 C305 1.427 . S
N313 C311 1.384 . S
H314 C320 0.930 . S
H315 C324 0.930 . S
H316 C329 0.929 . S
H317 C327 0.929 . S
H318 C322 0.929 . S
H319 C328 0.929 . S
C320 H314 0.930 . S
C320 C321 1.367 . S
C320 C328 1.378 . S
C321 C320 1.367 . S
C321 C329 1.433 . S
C322 H318 0.929 . S
C322 C324 1.378 . S
C322 C326 1.350 . S
C323 C326 1.463 . S
C323 C328 1.350 . S
C323 N331 1.427 . S
C324 H315 0.930 . S
C324 C322 1.378 . S
C324 C325 1.367 . S
C325 C324 1.367 . S
C325 C327 1.433 . S
C326 C322 1.350 . S
C326 C323 1.463 . S
C326 N330 1.427 . S
C327 H317 0.929 . S
C327 C325 1.433 . S
C327 N330 1.384 . S
C328 H319 0.929 . S
C328 C320 1.378 . S
C328 C323 1.350 . S
C329 H316 0.929 . S
C329 C321 1.433 . S
C329 N331 1.384 . S
N330 C326 1.427 . S
N330 C327 1.384 . S
N331 C323 1.427 . S
N331 C329 1.384 . S
H332 C338 0.930 . S
H333 C342 0.930 . S
H334 C347 0.929 . S
H335 C345 0.929 . S
H336 C340 0.929 . S
H337 C346 0.929 . S
C338 H332 0.930 . S
C338 C339 1.367 . S
C338 C346 1.378 . S
C339 C338 1.367 . S
C339 C347 1.433 . S
C340 H336 0.929 . S
C340 C342 1.378 . S
C340 C344 1.350 . S
C341 C344 1.463 . S
C341 C346 1.350 . S
C341 N349 1.427 . S
C342 H333 0.930 . S
C342 C340 1.378 . S
C342 C343 1.367 . S
C343 C342 1.367 . S
C343 C345 1.433 . S
C344 C340 1.350 . S
C344 C341 1.463 . S
C344 N348 1.427 . S
C345 H335 0.929 . S
C345 C343 1.433 . S
C345 N348 1.384 . S
C346 H337 0.929 . S
C346 C338 1.378 . S
C346 C341 1.350 . S
C347 H334 0.929 . S
C347 C339 1.433 . S
C347 N349 1.384 . S
N348 C344 1.427 . S
N348 C345 1.384 . S
N349 C341 1.427 . S
N349 C347 1.384 . S
H350 C356 0.930 . S
H351 C360 0.930 . S
H352 C365 0.929 . S
H353 C363 0.929 . S
H354 C358 0.929 . S
H355 C364 0.929 . S
C356 H350 0.930 . S
C356 C357 1.367 . S
C356 C364 1.378 . S
C357 C356 1.367 . S
C357 C365 1.433 . S
C358 H354 0.929 . S
C358 C360 1.378 . S
C358 C362 1.350 . S
C359 C362 1.463 . S
C359 C364 1.350 . S
C359 N367 1.427 . S
C360 H351 0.930 . S
C360 C358 1.378 . S
C360 C361 1.367 . S
C361 C360 1.367 . S
C361 C363 1.433 . S
C362 C358 1.350 . S
C362 C359 1.463 . S
C362 N366 1.427 . S
C363 H353 0.929 . S
C363 C361 1.433 . S
C363 N366 1.384 . S
C364 H355 0.929 . S
C364 C356 1.378 . S
C364 C359 1.350 . S
C365 H352 0.929 . S
C365 C357 1.433 . S
C365 N367 1.384 . S
N366 C362 1.427 . S
N366 C363 1.384 . S
N367 C359 1.427 . S
N367 C365 1.384 . S
H368 C374 0.930 . S
H369 C378 0.930 . S
H370 C383 0.929 . S
H371 C381 0.929 . S
H372 C376 0.929 . S
H373 C382 0.929 . S
C374 H368 0.930 . S
C374 C375 1.367 . S
C374 C382 1.378 . S
C375 C374 1.367 . S
C375 C383 1.433 . S
C376 H372 0.929 . S
C376 C378 1.378 . S
C376 C380 1.350 . S
C377 C380 1.463 . S
C377 C382 1.350 . S
C377 N385 1.427 . S
C378 H369 0.930 . S
C378 C376 1.378 . S
C378 C379 1.367 . S
C379 C378 1.367 . S
C379 C381 1.433 . S
C380 C376 1.350 . S
C380 C377 1.463 . S
C380 N384 1.427 . S
C381 H371 0.929 . S
C381 C379 1.433 . S
C381 N384 1.384 . S
C382 H373 0.929 . S
C382 C374 1.378 . S
C382 C377 1.350 . S
C383 H370 0.929 . S
C383 C375 1.433 . S
C383 N385 1.384 . S
N384 C380 1.427 . S
N384 C381 1.384 . S
N385 C377 1.427 . S
N385 C383 1.384 . S
H386 C392 0.930 . S
H387 C396 0.930 . S
H388 C401 0.929 . S
H389 C399 0.929 . S
H390 C394 0.929 . S
H391 C400 0.929 . S
C392 H386 0.930 . S
C392 C393 1.367 . S
C392 C400 1.378 . S
C393 C392 1.367 . S
C393 C401 1.433 . S
C394 H390 0.929 . S
C394 C396 1.378 . S
C394 C398 1.350 . S
C395 C398 1.463 . S
C395 C400 1.350 . S
C395 N403 1.427 . S
C396 H387 0.930 . S
C396 C394 1.378 . S
C396 C397 1.367 . S
C397 C396 1.367 . S
C397 C399 1.433 . S
C398 C394 1.350 . S
C398 C395 1.463 . S
C398 N402 1.427 . S
C399 H389 0.929 . S
C399 C397 1.433 . S
C399 N402 1.384 . S
C400 H391 0.929 . S
C400 C392 1.378 . S
C400 C395 1.350 . S
C401 H388 0.929 . S
C401 C393 1.433 . S
C401 N403 1.384 . S
N402 C398 1.427 . S
N402 C399 1.384 . S
N403 C395 1.427 . S
N403 C401 1.384 . S
H404 C410 0.930 . S
H405 C414 0.930 . S
H406 C419 0.929 . S
H407 C417 0.929 . S
H408 C412 0.929 . S
H409 C418 0.929 . S
C410 H404 0.930 . S
C410 C411 1.367 . S
C410 C418 1.378 . S
C411 C410 1.367 . S
C411 C419 1.433 . S
C412 H408 0.929 . S
C412 C414 1.378 . S
C412 C416 1.350 . S
C413 C416 1.463 . S
C413 C418 1.350 . S
C413 N421 1.427 . S
C414 H405 0.930 . S
C414 C412 1.378 . S
C414 C415 1.367 . S
C415 C414 1.367 . S
C415 C417 1.433 . S
C416 C412 1.350 . S
C416 C413 1.463 . S
C416 N420 1.427 . S
C417 H407 0.929 . S
C417 C415 1.433 . S
C417 N420 1.384 . S
C418 H409 0.929 . S
C418 C410 1.378 . S
C418 C413 1.350 . S
C419 H406 0.929 . S
C419 C411 1.433 . S
C419 N421 1.384 . S
N420 C416 1.427 . S
N420 C417 1.384 . S
N421 C413 1.427 . S
N421 C419 1.384 . S
H422 C428 0.930 . S
H423 C432 0.930 . S
H424 C437 0.929 . S
H425 C435 0.929 . S
H426 C430 0.929 . S
H427 C436 0.929 . S
C428 H422 0.930 . S
C428 C429 1.367 . S
C428 C436 1.378 . S
C429 C428 1.367 . S
C429 C437 1.433 . S
C430 H426 0.929 . S
C430 C432 1.378 . S
C430 C434 1.350 . S
C431 C434 1.463 . S
C431 C436 1.350 . S
C431 N439 1.427 . S
C432 H423 0.930 . S
C432 C430 1.378 . S
C432 C433 1.367 . S
C433 C432 1.367 . S
C433 C435 1.433 . S
C434 C430 1.350 . S
C434 C431 1.463 . S
C434 N438 1.427 . S
C435 H425 0.929 . S
C435 C433 1.433 . S
C435 N438 1.384 . S
C436 H427 0.929 . S
C436 C428 1.378 . S
C436 C431 1.350 . S
C437 H424 0.929 . S
C437 C429 1.433 . S
C437 N439 1.384 . S
N438 C434 1.427 . S
N438 C435 1.384 . S
N439 C431 1.427 . S
N439 C437 1.384 . S
H440 C446 0.930 . S
H441 C450 0.930 . S
H442 C455 0.929 . S
H443 C453 0.929 . S
H444 C448 0.929 . S
H445 C454 0.929 . S
C446 H440 0.930 . S
C446 C447 1.367 . S
C446 C454 1.378 . S
C447 C446 1.367 . S
C447 C455 1.433 . S
C448 H444 0.929 . S
C448 C450 1.378 . S
C448 C452 1.350 . S
C449 C452 1.463 . S
C449 C454 1.350 . S
C449 N457 1.427 . S
C450 H441 0.930 . S
C450 C448 1.378 . S
C450 C451 1.367 . S
C451 C450 1.367 . S
C451 C453 1.433 . S
C452 C448 1.350 . S
C452 C449 1.463 . S
C452 N456 1.427 . S
C453 H443 0.929 . S
C453 C451 1.433 . S
C453 N456 1.384 . S
C454 H445 0.929 . S
C454 C446 1.378 . S
C454 C449 1.350 . S
C455 H442 0.929 . S
C455 C447 1.433 . S
C455 N457 1.384 . S
N456 C452 1.427 . S
N456 C453 1.384 . S
N457 C449 1.427 . S
N457 C455 1.384 . S
H458 C464 0.930 . S
H459 C468 0.930 . S
H460 C473 0.929 . S
H461 C471 0.929 . S
H462 C466 0.929 . S
H463 C472 0.929 . S
C464 H458 0.930 . S
C464 C465 1.367 . S
C464 C472 1.378 . S
C465 C464 1.367 . S
C465 C473 1.433 . S
C466 H462 0.929 . S
C466 C468 1.378 . S
C466 C470 1.350 . S
C467 C470 1.463 . S
C467 C472 1.350 . S
C467 N475 1.427 . S
C468 H459 0.930 . S
C468 C466 1.378 . S
C468 C469 1.367 . S
C469 C468 1.367 . S
C469 C471 1.433 . S
C470 C466 1.350 . S
C470 C467 1.463 . S
C470 N474 1.427 . S
C471 H461 0.929 . S
C471 C469 1.433 . S
C471 N474 1.384 . S
C472 H463 0.929 . S
C472 C464 1.378 . S
C472 C467 1.350 . S
C473 H460 0.929 . S
C473 C465 1.433 . S
C473 N475 1.384 . S
N474 C470 1.427 . S
N474 C471 1.384 . S
N475 C467 1.427 . S
N475 C473 1.384 . S
H476 C482 0.930 . S
H477 C486 0.930 . S
H478 C491 0.929 . S
H479 C489 0.929 . S
H480 C484 0.929 . S
H481 C490 0.929 . S
C482 H476 0.930 . S
C482 C483 1.367 . S
C482 C490 1.378 . S
C483 C482 1.367 . S
C483 C491 1.433 . S
C484 H480 0.929 . S
C484 C486 1.378 . S
C484 C488 1.350 . S
C485 C488 1.463 . S
C485 C490 1.350 . S
C485 N493 1.427 . S
C486 H477 0.930 . S
C486 C484 1.378 . S
C486 C487 1.367 . S
C487 C486 1.367 . S
C487 C489 1.433 . S
C488 C484 1.350 . S
C488 C485 1.463 . S
C488 N492 1.427 . S
C489 H479 0.929 . S
C489 C487 1.433 . S
C489 N492 1.384 . S
C490 H481 0.929 . S
C490 C482 1.378 . S
C490 C485 1.350 . S
C491 H478 0.929 . S
C491 C483 1.433 . S
C491 N493 1.384 . S
N492 C488 1.427 . S
N492 C489 1.384 . S
N493 C485 1.427 . S
N493 C491 1.384 . S
H494 C500 0.930 . S
H495 C504 0.930 . S
H496 C509 0.929 . S
H497 C507 0.929 . S
H498 C502 0.929 . S
H499 C508 0.929 . S
C500 H494 0.930 . S
C500 C501 1.367 . S
C500 C508 1.378 . S
C501 C500 1.367 . S
C501 C509 1.433 . S
C502 H498 0.929 . S
C502 C504 1.378 . S
C502 C506 1.350 . S
C503 C506 1.463 . S
C503 C508 1.350 . S
C503 N511 1.427 . S
C504 H495 0.930 . S
C504 C502 1.378 . S
C504 C505 1.367 . S
C505 C504 1.367 . S
C505 C507 1.433 . S
C506 C502 1.350 . S
C506 C503 1.463 . S
C506 N510 1.427 . S
C507 H497 0.929 . S
C507 C505 1.433 . S
C507 N510 1.384 . S
C508 H499 0.929 . S
C508 C500 1.378 . S
C508 C503 1.350 . S
C509 H496 0.929 . S
C509 C501 1.433 . S
C509 N511 1.384 . S
N510 C506 1.427 . S
N510 C507 1.384 . S
N511 C503 1.427 . S
N511 C509 1.384 . S
H512 C518 0.930 . S
H513 C522 0.930 . S
H514 C527 0.929 . S
H515 C525 0.929 . S
H516 C520 0.929 . S
H517 C526 0.929 . S
C518 H512 0.930 . S
C518 C519 1.367 . S
C518 C526 1.378 . S
C519 C518 1.367 . S
C519 C527 1.433 . S
C520 H516 0.929 . S
C520 C522 1.378 . S
C520 C524 1.350 . S
C521 C524 1.463 . S
C521 C526 1.350 . S
C521 N529 1.427 . S
C522 H513 0.930 . S
C522 C520 1.378 . S
C522 C523 1.367 . S
C523 C522 1.367 . S
C523 C525 1.433 . S
C524 C520 1.350 . S
C524 C521 1.463 . S
C524 N528 1.427 . S
C525 H515 0.929 . S
C525 C523 1.433 . S
C525 N528 1.384 . S
C526 H517 0.929 . S
C526 C518 1.378 . S
C526 C521 1.350 . S
C527 H514 0.929 . S
C527 C519 1.433 . S
C527 N529 1.384 . S
N528 C524 1.427 . S
N528 C525 1.384 . S
N529 C521 1.427 . S
N529 C527 1.384 . S
H530 C536 0.930 . S
H531 C540 0.930 . S
H532 C545 0.929 . S
H533 C543 0.929 . S
H534 C538 0.929 . S
H535 C544 0.929 . S
C536 H530 0.930 . S
C536 C537 1.367 . S
C536 C544 1.378 . S
C537 C536 1.367 . S
C537 C545 1.433 . S
C538 H534 0.929 . S
C538 C540 1.378 . S
C538 C542 1.350 . S
C539 C542 1.463 . S
C539 C544 1.350 . S
C539 N547 1.427 . S
C540 H531 0.930 . S
C540 C538 1.378 . S
C540 C541 1.367 . S
C541 C540 1.367 . S
C541 C543 1.433 . S
C542 C538 1.350 . S
C542 C539 1.463 . S
C542 N546 1.427 . S
C543 H533 0.929 . S
C543 C541 1.433 . S
C543 N546 1.384 . S
C544 H535 0.929 . S
C544 C536 1.378 . S
C544 C539 1.350 . S
C545 H532 0.929 . S
C545 C537 1.433 . S
C545 N547 1.384 . S
N546 C542 1.427 . S
N546 C543 1.384 . S
N547 C539 1.427 . S
N547 C545 1.384 . S
H548 C554 0.930 . S
H549 C558 0.930 . S
H550 C563 0.929 . S
H551 C561 0.929 . S
H552 C556 0.929 . S
H553 C562 0.929 . S
C554 H548 0.930 . S
C554 C555 1.367 . S
C554 C562 1.378 . S
C555 C554 1.367 . S
C555 C563 1.433 . S
C556 H552 0.929 . S
C556 C558 1.378 . S
C556 C560 1.350 . S
C557 C560 1.463 . S
C557 C562 1.350 . S
C557 N565 1.427 . S
C558 H549 0.930 . S
C558 C556 1.378 . S
C558 C559 1.367 . S
C559 C558 1.367 . S
C559 C561 1.433 . S
C560 C556 1.350 . S
C560 C557 1.463 . S
C560 N564 1.427 . S
C561 H551 0.929 . S
C561 C559 1.433 . S
C561 N564 1.384 . S
C562 H553 0.929 . S
C562 C554 1.378 . S
C562 C557 1.350 . S
C563 H550 0.929 . S
C563 C555 1.433 . S
C563 N565 1.384 . S
N564 C560 1.427 . S
N564 C561 1.384 . S
N565 C557 1.427 . S
N565 C563 1.384 . S
H566 C572 0.930 . S
H567 C576 0.930 . S
H568 C581 0.929 . S
H569 C579 0.929 . S
H570 C574 0.929 . S
H571 C580 0.929 . S
C572 H566 0.930 . S
C572 C573 1.367 . S
C572 C580 1.378 . S
C573 C572 1.367 . S
C573 C581 1.433 . S
C574 H570 0.929 . S
C574 C576 1.378 . S
C574 C578 1.350 . S
C575 C578 1.463 . S
C575 C580 1.350 . S
C575 N583 1.427 . S
C576 H567 0.930 . S
C576 C574 1.378 . S
C576 C577 1.367 . S
C577 C576 1.367 . S
C577 C579 1.433 . S
C578 C574 1.350 . S
C578 C575 1.463 . S
C578 N582 1.427 . S
C579 H569 0.929 . S
C579 C577 1.433 . S
C579 N582 1.384 . S
C580 H571 0.929 . S
C580 C572 1.378 . S
C580 C575 1.350 . S
C581 H568 0.929 . S
C581 C573 1.433 . S
C581 N583 1.384 . S
N582 C578 1.427 . S
N582 C579 1.384 . S
N583 C575 1.427 . S
N583 C581 1.384 . S
H584 C590 0.930 . S
H585 C594 0.930 . S
H586 C599 0.929 . S
H587 C597 0.929 . S
H588 C592 0.929 . S
H589 C598 0.929 . S
C590 H584 0.930 . S
C590 C591 1.367 . S
C590 C598 1.378 . S
C591 C590 1.367 . S
C591 C599 1.433 . S
C592 H588 0.929 . S
C592 C594 1.378 . S
C592 C596 1.350 . S
C593 C596 1.463 . S
C593 C598 1.350 . S
C593 N601 1.427 . S
C594 H585 0.930 . S
C594 C592 1.378 . S
C594 C595 1.367 . S
C595 C594 1.367 . S
C595 C597 1.433 . S
C596 C592 1.350 . S
C596 C593 1.463 . S
C596 N600 1.427 . S
C597 H587 0.929 . S
C597 C595 1.433 . S
C597 N600 1.384 . S
C598 H589 0.929 . S
C598 C590 1.378 . S
C598 C593 1.350 . S
C599 H586 0.929 . S
C599 C591 1.433 . S
C599 N601 1.384 . S
N600 C596 1.427 . S
N600 C597 1.384 . S
N601 C593 1.427 . S
N601 C599 1.384 . S
H602 C608 0.930 . S
H603 C612 0.930 . S
H604 C617 0.929 . S
H605 C615 0.929 . S
H606 C610 0.929 . S
H607 C616 0.929 . S
C608 H602 0.930 . S
C608 C609 1.367 . S
C608 C616 1.378 . S
C609 C608 1.367 . S
C609 C617 1.433 . S
C610 H606 0.929 . S
C610 C612 1.378 . S
C610 C614 1.350 . S
C611 C614 1.463 . S
C611 C616 1.350 . S
C611 N619 1.427 . S
C612 H603 0.930 . S
C612 C610 1.378 . S
C612 C613 1.367 . S
C613 C612 1.367 . S
C613 C615 1.433 . S
C614 C610 1.350 . S
C614 C611 1.463 . S
C614 N618 1.427 . S
C615 H605 0.929 . S
C615 C613 1.433 . S
C615 N618 1.384 . S
C616 H607 0.929 . S
C616 C608 1.378 . S
C616 C611 1.350 . S
C617 H604 0.929 . S
C617 C609 1.433 . S
C617 N619 1.384 . S
N618 C614 1.427 . S
N618 C615 1.384 . S
N619 C611 1.427 . S
N619 C617 1.384 . S
H620 C626 0.930 . S
H621 C630 0.930 . S
H622 C635 0.929 . S
H623 C633 0.929 . S
H624 C628 0.929 . S
H625 C634 0.929 . S
C626 H620 0.930 . S
C626 C627 1.367 . S
C626 C634 1.378 . S
C627 C626 1.367 . S
C627 C635 1.433 . S
C628 H624 0.929 . S
C628 C630 1.378 . S
C628 C632 1.350 . S
C629 C632 1.463 . S
C629 C634 1.350 . S
C629 N637 1.427 . S
C630 H621 0.930 . S
C630 C628 1.378 . S
C630 C631 1.367 . S
C631 C630 1.367 . S
C631 C633 1.433 . S
C632 C628 1.350 . S
C632 C629 1.463 . S
C632 N636 1.427 . S
C633 H623 0.929 . S
C633 C631 1.433 . S
C633 N636 1.384 . S
C634 H625 0.929 . S
C634 C626 1.378 . S
C634 C629 1.350 . S
C635 H622 0.929 . S
C635 C627 1.433 . S
C635 N637 1.384 . S
N636 C632 1.427 . S
N636 C633 1.384 . S
N637 C629 1.427 . S
N637 C635 1.384 . S
H638 C644 0.930 . S
H639 C648 0.930 . S
H640 C653 0.929 . S
H641 C651 0.929 . S
H642 C646 0.929 . S
H643 C652 0.929 . S
C644 H638 0.930 . S
C644 C645 1.367 . S
C644 C652 1.378 . S
C645 C644 1.367 . S
C645 C653 1.433 . S
C646 H642 0.929 . S
C646 C648 1.378 . S
C646 C650 1.350 . S
C647 C650 1.463 . S
C647 C652 1.350 . S
C647 N655 1.427 . S
C648 H639 0.930 . S
C648 C646 1.378 . S
C648 C649 1.367 . S
C649 C648 1.367 . S
C649 C651 1.433 . S
C650 C646 1.350 . S
C650 C647 1.463 . S
C650 N654 1.427 . S
C651 H641 0.929 . S
C651 C649 1.433 . S
C651 N654 1.384 . S
C652 H643 0.929 . S
C652 C644 1.378 . S
C652 C647 1.350 . S
C653 H640 0.929 . S
C653 C645 1.433 . S
C653 N655 1.384 . S
N654 C650 1.427 . S
N654 C651 1.384 . S
N655 C647 1.427 . S
N655 C653 1.384 . S
H656 C662 0.930 . S
H657 C666 0.930 . S
H658 C671 0.929 . S
H659 C669 0.929 . S
H660 C664 0.929 . S
H661 C670 0.929 . S
C662 H656 0.930 . S
C662 C663 1.367 . S
C662 C670 1.378 . S
C663 C662 1.367 . S
C663 C671 1.433 . S
C664 H660 0.929 . S
C664 C666 1.378 . S
C664 C668 1.350 . S
C665 C668 1.463 . S
C665 C670 1.350 . S
C665 N673 1.427 . S
C666 H657 0.930 . S
C666 C664 1.378 . S
C666 C667 1.367 . S
C667 C666 1.367 . S
C667 C669 1.433 . S
C668 C664 1.350 . S
C668 C665 1.463 . S
C668 N672 1.427 . S
C669 H659 0.929 . S
C669 C667 1.433 . S
C669 N672 1.384 . S
C670 H661 0.929 . S
C670 C662 1.378 . S
C670 C665 1.350 . S
C671 H658 0.929 . S
C671 C663 1.433 . S
C671 N673 1.384 . S
N672 C668 1.427 . S
N672 C669 1.384 . S
N673 C665 1.427 . S
N673 C671 1.384 . S
H674 C680 0.930 . S
H675 C684 0.930 . S
H676 C689 0.929 . S
H677 C687 0.929 . S
H678 C682 0.929 . S
H679 C688 0.929 . S
C680 H674 0.930 . S
C680 C681 1.367 . S
C680 C688 1.378 . S
C681 C680 1.367 . S
C681 C689 1.433 . S
C682 H678 0.929 . S
C682 C684 1.378 . S
C682 C686 1.350 . S
C683 C686 1.463 . S
C683 C688 1.350 . S
C683 N691 1.427 . S
C684 H675 0.930 . S
C684 C682 1.378 . S
C684 C685 1.367 . S
C685 C684 1.367 . S
C685 C687 1.433 . S
C686 C682 1.350 . S
C686 C683 1.463 . S
C686 N690 1.427 . S
C687 H677 0.929 . S
C687 C685 1.433 . S
C687 N690 1.384 . S
C688 H679 0.929 . S
C688 C680 1.378 . S
C688 C683 1.350 . S
C689 H676 0.929 . S
C689 C681 1.433 . S
C689 N691 1.384 . S
N690 C686 1.427 . S
N690 C687 1.384 . S
N691 C683 1.427 . S
N691 C689 1.384 . S
H692 C698 0.930 . S
H693 C702 0.930 . S
H694 C707 0.929 . S
H695 C705 0.929 . S
H696 C700 0.929 . S
H697 C706 0.929 . S
C698 H692 0.930 . S
C698 C699 1.367 . S
C698 C706 1.378 . S
C699 C698 1.367 . S
C699 C707 1.433 . S
C700 H696 0.929 . S
C700 C702 1.378 . S
C700 C704 1.350 . S
C701 C704 1.463 . S
C701 C706 1.350 . S
C701 N709 1.427 . S
C702 H693 0.930 . S
C702 C700 1.378 . S
C702 C703 1.367 . S
C703 C702 1.367 . S
C703 C705 1.433 . S
C704 C700 1.350 . S
C704 C701 1.463 . S
C704 N708 1.427 . S
C705 H695 0.929 . S
C705 C703 1.433 . S
C705 N708 1.384 . S
C706 H697 0.929 . S
C706 C698 1.378 . S
C706 C701 1.350 . S
C707 H694 0.929 . S
C707 C699 1.433 . S
C707 N709 1.384 . S
N708 C704 1.427 . S
N708 C705 1.384 . S
N709 C701 1.427 . S
N709 C707 1.384 . S
H710 C716 0.930 . S
H711 C720 0.930 . S
H712 C725 0.929 . S
H713 C723 0.929 . S
H714 C718 0.929 . S
H715 C724 0.929 . S
C716 H710 0.930 . S
C716 C717 1.367 . S
C716 C724 1.378 . S
C717 C716 1.367 . S
C717 C725 1.433 . S
C718 H714 0.929 . S
C718 C720 1.378 . S
C718 C722 1.350 . S
C719 C722 1.463 . S
C719 C724 1.350 . S
C719 N727 1.427 . S
C720 H711 0.930 . S
C720 C718 1.378 . S
C720 C721 1.367 . S
C721 C720 1.367 . S
C721 C723 1.433 . S
C722 C718 1.350 . S
C722 C719 1.463 . S
C722 N726 1.427 . S
C723 H713 0.929 . S
C723 C721 1.433 . S
C723 N726 1.384 . S
C724 H715 0.929 . S
C724 C716 1.378 . S
C724 C719 1.350 . S
C725 H712 0.929 . S
C725 C717 1.433 . S
C725 N727 1.384 . S
N726 C722 1.427 . S
N726 C723 1.384 . S
N727 C719 1.427 . S
N727 C725 1.384 . S
H728 C734 0.930 . S
H729 C738 0.930 . S
H730 C743 0.929 . S
H731 C741 0.929 . S
H732 C736 0.929 . S
H733 C742 0.929 . S
C734 H728 0.930 . S
C734 C735 1.367 . S
C734 C742 1.378 . S
C735 C734 1.367 . S
C735 C743 1.433 . S
C736 H732 0.929 . S
C736 C738 1.378 . S
C736 C740 1.350 . S
C737 C740 1.463 . S
C737 C742 1.350 . S
C737 N745 1.427 . S
C738 H729 0.930 . S
C738 C736 1.378 . S
C738 C739 1.367 . S
C739 C738 1.367 . S
C739 C741 1.433 . S
C740 C736 1.350 . S
C740 C737 1.463 . S
C740 N744 1.427 . S
C741 H731 0.929 . S
C741 C739 1.433 . S
C741 N744 1.384 . S
C742 H733 0.929 . S
C742 C734 1.378 . S
C742 C737 1.350 . S
C743 H730 0.929 . S
C743 C735 1.433 . S
C743 N745 1.384 . S
N744 C740 1.427 . S
N744 C741 1.384 . S
N745 C737 1.427 . S
N745 C743 1.384 . S
H746 C752 0.930 . S
H747 C756 0.930 . S
H748 C761 0.929 . S
H749 C759 0.929 . S
H750 C754 0.929 . S
H751 C760 0.929 . S
C752 H746 0.930 . S
C752 C753 1.367 . S
C752 C760 1.378 . S
C753 C752 1.367 . S
C753 C761 1.433 . S
C754 H750 0.929 . S
C754 C756 1.378 . S
C754 C758 1.350 . S
C755 C758 1.463 . S
C755 C760 1.350 . S
C755 N763 1.427 . S
C756 H747 0.930 . S
C756 C754 1.378 . S
C756 C757 1.367 . S
C757 C756 1.367 . S
C757 C759 1.433 . S
C758 C754 1.350 . S
C758 C755 1.463 . S
C758 N762 1.427 . S
C759 H749 0.929 . S
C759 C757 1.433 . S
C759 N762 1.384 . S
C760 H751 0.929 . S
C760 C752 1.378 . S
C760 C755 1.350 . S
C761 H748 0.929 . S
C761 C753 1.433 . S
C761 N763 1.384 . S
N762 C758 1.427 . S
N762 C759 1.384 . S
N763 C755 1.427 . S
N763 C761 1.384 . S
H764 C770 0.930 . S
H765 C774 0.930 . S
H766 C779 0.929 . S
H767 C777 0.929 . S
H768 C772 0.929 . S
H769 C778 0.929 . S
C770 H764 0.930 . S
C770 C771 1.367 . S
C770 C778 1.378 . S
C771 C770 1.367 . S
C771 C779 1.433 . S
C772 H768 0.929 . S
C772 C774 1.378 . S
C772 C776 1.350 . S
C773 C776 1.463 . S
C773 C778 1.350 . S
C773 N781 1.427 . S
C774 H765 0.930 . S
C774 C772 1.378 . S
C774 C775 1.367 . S
C775 C774 1.367 . S
C775 C777 1.433 . S
C776 C772 1.350 . S
C776 C773 1.463 . S
C776 N780 1.427 . S
C777 H767 0.929 . S
C777 C775 1.433 . S
C777 N780 1.384 . S
C778 H769 0.929 . S
C778 C770 1.378 . S
C778 C773 1.350 . S
C779 H766 0.929 . S
C779 C771 1.433 . S
C779 N781 1.384 . S
N780 C776 1.427 . S
N780 C777 1.384 . S
N781 C773 1.427 . S
N781 C779 1.384 . S
H782 C788 0.930 . S
H783 C792 0.930 . S
H784 C797 0.929 . S
H785 C795 0.929 . S
H786 C790 0.929 . S
H787 C796 0.929 . S
C788 H782 0.930 . S
C788 C789 1.367 . S
C788 C796 1.378 . S
C789 C788 1.367 . S
C789 C797 1.433 . S
C790 H786 0.929 . S
C790 C792 1.378 . S
C790 C794 1.350 . S
C791 C794 1.463 . S
C791 C796 1.350 . S
C791 N799 1.427 . S
C792 H783 0.930 . S
C792 C790 1.378 . S
C792 C793 1.367 . S
C793 C792 1.367 . S
C793 C795 1.433 . S
C794 C790 1.350 . S
C794 C791 1.463 . S
C794 N798 1.427 . S
C795 H785 0.929 . S
C795 C793 1.433 . S
C795 N798 1.384 . S
C796 H787 0.929 . S
C796 C788 1.378 . S
C796 C791 1.350 . S
C797 H784 0.929 . S
C797 C789 1.433 . S
C797 N799 1.384 . S
N798 C794 1.427 . S
N798 C795 1.384 . S
N799 C791 1.427 . S
N799 C797 1.384 . S
H800 C806 0.930 . S
H801 C810 0.930 . S
H802 C815 0.929 . S
H803 C813 0.929 . S
H804 C808 0.929 . S
H805 C814 0.929 . S
C806 H800 0.930 . S
C806 C807 1.367 . S
C806 C814 1.378 . S
C807 C806 1.367 . S
C807 C815 1.433 . S
C808 H804 0.929 . S
C808 C810 1.378 . S
C808 C812 1.350 . S
C809 C812 1.463 . S
C809 C814 1.350 . S
C809 N817 1.427 . S
C810 H801 0.930 . S
C810 C808 1.378 . S
C810 C811 1.367 . S
C811 C810 1.367 . S
C811 C813 1.433 . S
C812 C808 1.350 . S
C812 C809 1.463 . S
C812 N816 1.427 . S
C813 H803 0.929 . S
C813 C811 1.433 . S
C813 N816 1.384 . S
C814 H805 0.929 . S
C814 C806 1.378 . S
C814 C809 1.350 . S
C815 H802 0.929 . S
C815 C807 1.433 . S
C815 N817 1.384 . S
N816 C812 1.427 . S
N816 C813 1.384 . S
N817 C809 1.427 . S
N817 C815 1.384 . S
H818 C824 0.930 . S
H819 C828 0.930 . S
H820 C833 0.929 . S
H821 C831 0.929 . S
H822 C826 0.929 . S
H823 C832 0.929 . S
C824 H818 0.930 . S
C824 C825 1.367 . S
C824 C832 1.378 . S
C825 C824 1.367 . S
C825 C833 1.433 . S
C826 H822 0.929 . S
C826 C828 1.378 . S
C826 C830 1.350 . S
C827 C830 1.463 . S
C827 C832 1.350 . S
C827 N835 1.427 . S
C828 H819 0.930 . S
C828 C826 1.378 . S
C828 C829 1.367 . S
C829 C828 1.367 . S
C829 C831 1.433 . S
C830 C826 1.350 . S
C830 C827 1.463 . S
C830 N834 1.427 . S
C831 H821 0.929 . S
C831 C829 1.433 . S
C831 N834 1.384 . S
C832 H823 0.929 . S
C832 C824 1.378 . S
C832 C827 1.350 . S
C833 H820 0.929 . S
C833 C825 1.433 . S
C833 N835 1.384 . S
N834 C830 1.427 . S
N834 C831 1.384 . S
N835 C827 1.427 . S
N835 C833 1.384 . S
H836 C842 0.930 . S
H837 C846 0.930 . S
H838 C851 0.929 . S
H839 C849 0.929 . S
H840 C844 0.929 . S
H841 C850 0.929 . S
C842 H836 0.930 . S
C842 C843 1.367 . S
C842 C850 1.378 . S
C843 C842 1.367 . S
C843 C851 1.433 . S
C844 H840 0.929 . S
C844 C846 1.378 . S
C844 C848 1.350 . S
C845 C848 1.463 . S
C845 C850 1.350 . S
C845 N853 1.427 . S
C846 H837 0.930 . S
C846 C844 1.378 . S
C846 C847 1.367 . S
C847 C846 1.367 . S
C847 C849 1.433 . S
C848 C844 1.350 . S
C848 C845 1.463 . S
C848 N852 1.427 . S
C849 H839 0.929 . S
C849 C847 1.433 . S
C849 N852 1.384 . S
C850 H841 0.929 . S
C850 C842 1.378 . S
C850 C845 1.350 . S
C851 H838 0.929 . S
C851 C843 1.433 . S
C851 N853 1.384 . S
N852 C848 1.427 . S
N852 C849 1.384 . S
N853 C845 1.427 . S
N853 C851 1.384 . S
H854 C860 0.930 . S
H855 C864 0.930 . S
H856 C869 0.929 . S
H857 C867 0.929 . S
H858 C862 0.929 . S
H859 C868 0.929 . S
C860 H854 0.930 . S
C860 C861 1.367 . S
C860 C868 1.378 . S
C861 C860 1.367 . S
C861 C869 1.433 . S
C862 H858 0.929 . S
C862 C864 1.378 . S
C862 C866 1.350 . S
C863 C866 1.463 . S
C863 C868 1.350 . S
C863 N871 1.427 . S
C864 H855 0.930 . S
C864 C862 1.378 . S
C864 C865 1.367 . S
C865 C864 1.367 . S
C865 C867 1.433 . S
C866 C862 1.350 . S
C866 C863 1.463 . S
C866 N870 1.427 . S
C867 H857 0.929 . S
C867 C865 1.433 . S
C867 N870 1.384 . S
C868 H859 0.929 . S
C868 C860 1.378 . S
C868 C863 1.350 . S
C869 H856 0.929 . S
C869 C861 1.433 . S
C869 N871 1.384 . S
N870 C866 1.427 . S
N870 C867 1.384 . S
N871 C863 1.427 . S
N871 C869 1.384 . S
C307 C185 1.573 . S
C303 C16 1.574 . S
C325 C211 1.580 . S
C321 C30 1.587 . S
C343 C225 1.583 . S
C339 C53 1.590 . S
C361 C227 1.610 . S
C357 C76 1.622 . S
C375 N104 1.434 . S
C379 C224 1.465 . S
C397 C226 1.498 . S
C393 N127 1.456 . S
C415 C184 1.466 1_655 S
C411 N140 1.432 . S
C433 C210 1.462 1_565 S
C429 N173 1.421 . S
C451 C212 1.585 . S
C447 C168 1.589 . S
C469 C238 1.586 . S
C465 C99 1.591 . S
C487 C196 1.578 . S
C483 C122 1.581 . S
C505 C198 1.558 . S
C501 C154 1.554 . S
C523 C197 1.474 1_655 S
C519 N35 1.436 . S
C541 C199 1.464 1_565 S
C537 N58 1.426 . S
C559 C213 1.472 . S
C555 N81 1.433 . S
C577 C239 1.488 . S
C573 N2 1.454 . S
C595 C241 1.566 . S
C591 C177 1.568 . S
C609 C108 1.585 . S
C613 C267 1.572 . S
C627 C131 1.581 . S
C631 C280 1.573 . S
C645 C145 1.608 . S
C649 C283 1.600 . S
C663 N25 1.440 . S
C667 C281 1.466 . S
C681 N48 1.465 . S
C685 C282 1.498 . S
C699 N71 1.444 . S
C703 C240 1.476 . S
C721 C266 1.480 . S
C717 N12 1.442 . S
C739 C269 1.579 . S
C735 C7 1.585 . S
C753 C39 1.582 . S
C757 C294 1.584 . S
C771 C62 1.571 . S
C775 C252 1.575 . S
C789 C85 1.564 . S
C793 C254 1.565 . S
C811 C253 1.474 . S
C807 N94 1.429 . S
C829 C255 1.468 . S
C825 N117 1.430 . S
C843 N150 1.441 . S
C847 C268 1.475 . S
C865 C295 1.483 . S
C861 N163 1.446 . S
