# Generated by pormake.
# Topology cor, (4,6)-cn, num edge types: 1
# Building blocks:
#     Node 0, Type 0, BuildingBlock: QUQFOY_clean_sbu_3, # of connection points: 4
#     Node 1, Type 0, BuildingBlock: QUQFOY_clean_sbu_3, # of connection points: 4
#     Node 2, Type 0, BuildingBlock: QUQFOY_clean_sbu_3, # of connection points: 4
#     Node 3, Type 0, BuildingBlock: QUQFOY_clean_sbu_3, # of connection points: 4
#     Node 4, Type 0, BuildingBlock: QUQFOY_clean_sbu_3, # of connection points: 4
#     Node 5, Type 0, BuildingBlock: QUQFOY_clean_sbu_3, # of connection points: 4
#     Node 6, Type 0, BuildingBlock: QUQFOY_clean_sbu_3, # of connection points: 4
#     Node 7, Type 0, BuildingBlock: QUQFOY_clean_sbu_3, # of connection points: 4
#     Node 8, Type 0, BuildingBlock: QUQFOY_clean_sbu_3, # of connection points: 4
#     Node 9, Type 0, BuildingBlock: QUQFOY_clean_sbu_3, # of connection points: 4
#     Node 10, Type 0, BuildingBlock: QUQFOY_clean_sbu_3, # of connection points: 4
#     Node 11, Type 0, BuildingBlock: QUQFOY_clean_sbu_3, # of connection points: 4
#     Node 12, Type 0, BuildingBlock: QUQFOY_clean_sbu_3, # of connection points: 4
#     Node 13, Type 0, BuildingBlock: QUQFOY_clean_sbu_3, # of connection points: 4
#     Node 14, Type 0, BuildingBlock: QUQFOY_clean_sbu_3, # of connection points: 4
#     Node 15, Type 0, BuildingBlock: QUQFOY_clean_sbu_3, # of connection points: 4
#     Node 16, Type 0, BuildingBlock: QUQFOY_clean_sbu_3, # of connection points: 4
#     Node 17, Type 0, BuildingBlock: QUQFOY_clean_sbu_3, # of connection points: 4
#     Node 18, Type 1, BuildingBlock: MIDCAF_clean_sbu_0, # of connection points: 6
#     Node 19, Type 1, BuildingBlock: MIDCAF_clean_sbu_0, # of connection points: 6
#     Node 20, Type 1, BuildingBlock: MIDCAF_clean_sbu_0, # of connection points: 6
#     Node 21, Type 1, BuildingBlock: MIDCAF_clean_sbu_0, # of connection points: 6
#     Node 22, Type 1, BuildingBlock: MIDCAF_clean_sbu_0, # of connection points: 6
#     Node 23, Type 1, BuildingBlock: MIDCAF_clean_sbu_0, # of connection points: 6
#     Node 24, Type 1, BuildingBlock: MIDCAF_clean_sbu_0, # of connection points: 6
#     Node 25, Type 1, BuildingBlock: MIDCAF_clean_sbu_0, # of connection points: 6
#     Node 26, Type 1, BuildingBlock: MIDCAF_clean_sbu_0, # of connection points: 6
#     Node 27, Type 1, BuildingBlock: MIDCAF_clean_sbu_0, # of connection points: 6
#     Node 28, Type 1, BuildingBlock: MIDCAF_clean_sbu_0, # of connection points: 6
#     Node 29, Type 1, BuildingBlock: MIDCAF_clean_sbu_0, # of connection points: 6
#     Edge 30, Type (0, 1), None
#     Edge 31, Type (0, 1), None
#     Edge 32, Type (0, 1), None
#     Edge 33, Type (0, 1), None
#     Edge 34, Type (0, 1), None
#     Edge 35, Type (0, 1), None
#     Edge 36, Type (0, 1), None
#     Edge 37, Type (0, 1), None
#     Edge 38, Type (0, 1), None
#     Edge 39, Type (0, 1), None
#     Edge 40, Type (0, 1), None
#     Edge 41, Type (0, 1), None
#     Edge 42, Type (0, 1), None
#     Edge 43, Type (0, 1), None
#     Edge 44, Type (0, 1), None
#     Edge 45, Type (0, 1), None
#     Edge 46, Type (0, 1), None
#     Edge 47, Type (0, 1), None
#     Edge 48, Type (0, 1), None
#     Edge 49, Type (0, 1), None
#     Edge 50, Type (0, 1), None
#     Edge 51, Type (0, 1), None
#     Edge 52, Type (0, 1), None
#     Edge 53, Type (0, 1), None
#     Edge 54, Type (0, 1), None
#     Edge 55, Type (0, 1), None
#     Edge 56, Type (0, 1), None
#     Edge 57, Type (0, 1), None
#     Edge 58, Type (0, 1), None
#     Edge 59, Type (0, 1), None
#     Edge 60, Type (0, 1), None
#     Edge 61, Type (0, 1), None
#     Edge 62, Type (0, 1), None
#     Edge 63, Type (0, 1), None
#     Edge 64, Type (0, 1), None
#     Edge 65, Type (0, 1), None
#     Edge 66, Type (0, 1), None
#     Edge 67, Type (0, 1), None
#     Edge 68, Type (0, 1), None
#     Edge 69, Type (0, 1), None
#     Edge 70, Type (0, 1), None
#     Edge 71, Type (0, 1), None
#     Edge 72, Type (0, 1), None
#     Edge 73, Type (0, 1), None
#     Edge 74, Type (0, 1), None
#     Edge 75, Type (0, 1), None
#     Edge 76, Type (0, 1), None
#     Edge 77, Type (0, 1), None
#     Edge 78, Type (0, 1), None
#     Edge 79, Type (0, 1), None
#     Edge 80, Type (0, 1), None
#     Edge 81, Type (0, 1), None
#     Edge 82, Type (0, 1), None
#     Edge 83, Type (0, 1), None
#     Edge 84, Type (0, 1), None
#     Edge 85, Type (0, 1), None
#     Edge 86, Type (0, 1), None
#     Edge 87, Type (0, 1), None
#     Edge 88, Type (0, 1), None
#     Edge 89, Type (0, 1), None
#     Edge 90, Type (0, 1), None
#     Edge 91, Type (0, 1), None
#     Edge 92, Type (0, 1), None
#     Edge 93, Type (0, 1), None
#     Edge 94, Type (0, 1), None
#     Edge 95, Type (0, 1), None
#     Edge 96, Type (0, 1), None
#     Edge 97, Type (0, 1), None
#     Edge 98, Type (0, 1), None
#     Edge 99, Type (0, 1), None
#     Edge 100, Type (0, 1), None
#     Edge 101, Type (0, 1), None
# Relax obj value: 0.107
# Max RMSD: 0.162
# Mean RMSD: 0.109
data_MOF--net-cor--node1-QUQFOY_clean_sbu_3--node2-MIDCAF_clean_sbu_0--edge1-none
_symmetry_space_group_name_H-M    P1
_symmetry_Int_Tables_number       1
_symmetry_cell_setting            triclinic
loop_
_symmetry_equiv_pos_as_xyz
'x, y, z'
_cell_length_a     18.877338
_cell_length_b     19.227934
_cell_length_c     41.924777
_cell_angle_alpha  91.930027
_cell_angle_beta   88.100423
_cell_angle_gamma 119.43771
loop_
_atom_site_label
_atom_site_type_symbol
_atom_site_fract_x
_atom_site_fract_y
_atom_site_fract_z
_atom_type_partial_charge
C0 C 0.54632 0.82379 0.33865 0.0
O1 O 0.59609 0.80052 0.32873 0.0
Cd2 Cd 0.73451 0.87397 0.30897 0.0
O3 O 0.56308 0.8966 0.33692 0.0
Cd4 Cd 0.67485 0.02623 0.3156 0.0
C5 C 0.7867 0.03014 0.36466 0.0
O6 O 0.72359 0.96133 0.27392 0.0
O7 O 0.79984 0.0867 0.28396 0.0
O8 O 0.59525 0.04807 0.27581 0.0
C9 C 0.78934 0.02505 0.26817 0.0
O10 O 0.76214 -0.01527 0.34063 0.0
C11 C 0.61204 0.11573 0.28767 0.0
O12 O 0.76233 0.08084 0.36722 0.0
O13 O 0.64652 0.13406 0.31456 0.0
C14 C 0.83676 0.53247 0.27107 0.0
O15 O 0.78201 0.5531 0.27071 0.0
Cd16 Cd 0.78147 0.66705 0.2956 0.0
O17 O 0.90347 0.57426 0.28574 0.0
Cd18 Cd -0.01132 0.70107 0.31539 0.0
C19 C -0.02611 0.79613 0.2635 0.0
O20 O 0.86192 0.68525 0.34093 0.0
O21 O -0.02862 0.77136 0.36309 0.0
O22 O 0.04986 0.63511 0.34325 0.0
C23 C 0.89505 0.74165 0.36124 0.0
O24 O 0.9118 0.74202 0.27674 0.0
C25 C 0.12167 0.69226 0.33861 0.0
O26 O 0.04056 0.80061 0.27041 0.0
O27 O 0.13031 0.75257 0.3239 0.0
C28 C 0.24494 0.42281 0.33682 0.0
O29 O 0.17786 0.38471 0.32233 0.0
Cd30 Cd 0.10912 0.26253 0.2917 0.0
O31 O 0.29528 0.39656 0.33654 0.0
Cd32 Cd 0.29296 0.27457 0.30952 0.0
C33 C 0.11683 0.1254 0.34283 0.0
O34 O 0.21065 0.25632 0.26169 0.0
O35 O 0.2541 0.17398 0.26649 0.0
O36 O 0.42793 0.36033 0.2847 0.0
C37 C 0.20519 0.19014 0.25276 0.0
O38 O 0.08765 0.15798 0.32566 0.0
C39 C 0.46375 0.32986 0.29915 0.0
O40 O 0.1942 0.15667 0.34579 0.0
O41 O 0.42157 0.27657 0.31949 0.0
C42 C 0.39606 0.13863 0.79098 0.0
O43 O 0.35607 0.16889 0.80482 0.0
Cd44 Cd 0.22159 0.11144 0.82598 0.0
O45 O 0.36822 0.063 0.78844 0.0
Cd46 Cd 0.24671 0.9334 0.80712 0.0
C47 C 0.13409 0.95864 0.7677 0.0
O48 O 0.21465 0.00277 0.85231 0.0
O49 O 0.12502 0.8816 0.84137 0.0
O50 O 0.33067 0.88747 0.83461 0.0
C51 C 0.14293 0.94605 0.85654 0.0
O52 O 0.17612 0.00691 0.78914 0.0
C53 C 0.29847 0.81968 0.82054 0.0
O54 O 0.1499 0.90309 0.76038 0.0
O55 O 0.2457 0.80661 0.79973 0.0
C56 C 0.8109 0.25204 0.77099 0.0
O57 O 0.80181 0.18171 0.77162 0.0
Cd58 Cd 0.8773 0.1284 0.801 0.0
O59 O 0.86811 0.30909 0.78636 0.0
Cd60 Cd -0.01596 0.31553 0.814 0.0
C61 C 0.03839 0.21385 0.76316 0.0
O62 O 0.90615 0.19766 0.85034 0.0
O63 O 0.03572 0.2546 0.85041 0.0
O64 O 0.01493 0.42615 0.8537 0.0
C65 C -0.0311 0.2003 0.86186 0.0
O66 O 0.02341 0.18179 0.79003 0.0
C67 C 0.08472 0.4709 0.84144 0.0
O68 O 0.02946 0.27516 0.76174 0.0
O69 O 0.10013 0.44731 0.81473 0.0
C70 C 0.5037 0.66125 0.83416 0.0
O71 O 0.52127 0.7327 0.82854 0.0
Cd72 Cd 0.64182 0.84034 0.80711 0.0
O73 O 0.55182 0.63441 0.82652 0.0
Cd74 Cd 0.69012 0.67687 0.8037 0.0
C75 C 0.7615 0.79976 0.85961 0.0
O76 O 0.68597 0.77707 0.76895 0.0
O77 O 0.7922 0.76515 0.7642 0.0
O78 O 0.62752 0.54873 0.77554 0.0
C79 C 0.75757 0.80494 0.75758 0.0
O80 O 0.71931 0.8139 0.8411 0.0
C81 C 0.67815 0.52873 0.78489 0.0
O82 O 0.76679 0.73713 0.85435 0.0
O83 O 0.73577 0.5785 0.8023 0.0
C84 C 0.21299 0.15715 0.672 0.0
O85 O 0.26276 0.13388 0.66209 0.0
Cd86 Cd 0.40119 0.20734 0.64231 0.0
O87 O 0.22974 0.22996 0.67026 0.0
Cd88 Cd 0.3415 0.35957 0.64892 0.0
C89 C 0.4533 0.3635 0.69798 0.0
O90 O 0.39028 0.29469 0.60725 0.0
O91 O 0.4665 0.42006 0.61729 0.0
O92 O 0.26191 0.38141 0.60913 0.0
C93 C 0.45602 0.35841 0.60149 0.0
O94 O 0.42877 0.31812 0.67394 0.0
C95 C 0.27869 0.44907 0.62099 0.0
O96 O 0.42895 0.41421 0.70054 0.0
O97 O 0.31316 0.46739 0.64788 0.0
C98 C 0.50342 0.86581 0.60442 0.0
O99 O 0.44864 0.88642 0.60407 0.0
Cd100 Cd 0.44811 0.00036 0.62897 0.0
O101 O 0.57013 0.90762 0.61908 0.0
Cd102 Cd 0.65532 0.03441 0.64874 0.0
C103 C 0.64051 0.12945 0.59685 0.0
O104 O 0.52858 0.01858 0.67429 0.0
O105 O 0.63806 0.10474 0.69644 0.0
O106 O 0.71649 -0.03159 0.67657 0.0
C107 C 0.56172 0.07501 0.6946 0.0
O108 O 0.57842 0.07536 0.61009 0.0
C109 C 0.78831 0.02554 0.67191 0.0
O110 O 0.70718 0.13393 0.60375 0.0
O111 O 0.79695 0.08587 0.65721 0.0
C112 C 0.91165 0.75615 0.67016 0.0
O113 O 0.84458 0.71805 0.65566 0.0
Cd114 Cd 0.77583 0.59588 0.62503 0.0
O115 O -0.03802 0.7299 0.66989 0.0
Cd116 Cd -0.04034 0.60789 0.64288 0.0
C117 C 0.7835 0.45877 0.67619 0.0
O118 O 0.87736 0.58962 0.59504 0.0
O119 O 0.92076 0.50725 0.59987 0.0
O120 O 0.09461 0.69365 0.61803 0.0
C121 C 0.87189 0.52343 0.58613 0.0
O122 O 0.75435 0.49137 0.65901 0.0
C123 C 0.13046 0.66319 0.63248 0.0
O124 O 0.86087 0.49002 0.67915 0.0
O125 O 0.0883 0.60992 0.65283 0.0
C126 C 0.06274 0.47197 0.1243 0.0
O127 O 0.02275 0.50222 0.13815 0.0
Cd128 Cd 0.8883 0.44473 0.15933 0.0
O129 O 0.03493 0.39635 0.12176 0.0
Cd130 Cd 0.91348 0.26674 0.14045 0.0
C131 C 0.80084 0.29198 0.10104 0.0
O132 O 0.88148 0.33612 0.18566 0.0
O133 O 0.79188 0.21492 0.17475 0.0
O134 O -0.00253 0.22082 0.16791 0.0
C135 C 0.80979 0.27938 0.18992 0.0
O136 O 0.84285 0.34022 0.12249 0.0
C137 C -0.03478 0.15302 0.15385 0.0
O138 O 0.81664 0.23642 0.09372 0.0
O139 O 0.91244 0.13995 0.13305 0.0
C140 C 0.47751 0.58531 0.10432 0.0
O141 O 0.46838 0.51496 0.10496 0.0
Cd142 Cd 0.54384 0.46159 0.13432 0.0
O143 O 0.53475 0.64236 0.11968 0.0
Cd144 Cd 0.65068 0.64881 0.14733 0.0
C145 C 0.70503 0.54716 0.0965 0.0
O146 O 0.57282 0.53089 0.18365 0.0
O147 O 0.70239 0.58787 0.18372 0.0
O148 O 0.68157 0.75939 0.18704 0.0
C149 C 0.63558 0.53354 0.19516 0.0
O150 O 0.68996 0.51508 0.12336 0.0
C151 C 0.75135 0.80417 0.17478 0.0
O152 O 0.69615 0.60849 0.09507 0.0
O153 O 0.76676 0.7806 0.14806 0.0
C154 C 0.17037 -0.00542 0.16745 0.0
O155 O 0.18796 0.06602 0.16183 0.0
Cd156 Cd 0.3086 0.17368 0.14043 0.0
O157 O 0.21851 -0.03226 0.15982 0.0
Cd158 Cd 0.35686 0.01029 0.137 0.0
C159 C 0.42822 0.13303 0.19294 0.0
O160 O 0.35294 0.11064 0.10224 0.0
O161 O 0.45912 0.09864 0.09751 0.0
O162 O 0.29423 0.88211 0.10885 0.0
C163 C 0.42458 0.13853 0.09091 0.0
O164 O 0.38606 0.1472 0.17443 0.0
C165 C 0.34482 0.86208 0.11822 0.0
O166 O 0.43347 0.07038 0.18767 0.0
O167 O 0.40243 0.91184 0.13563 0.0
C168 C 0.87971 0.49055 1.00532 0.0
O169 O 0.92948 0.46727 0.9954 0.0
Cd170 Cd 0.06788 0.54072 0.97563 0.0
O171 O 0.89646 0.56335 1.00357 0.0
Cd172 Cd 0.00818 0.69297 0.98224 0.0
C173 C 0.11998 0.69687 1.0313 0.0
O174 O 0.05694 0.62805 0.94057 0.0
O175 O 0.13318 0.75343 0.95061 0.0
O176 O 0.92854 0.71476 0.94246 0.0
C177 C 0.12268 0.69177 0.93482 0.0
O178 O 0.09545 0.6515 1.00726 0.0
C179 C 0.94533 0.78243 0.95431 0.0
O180 O 0.09563 0.74758 1.03387 0.0
O181 O -0.02017 0.80079 0.98119 0.0
C182 C 0.17004 0.19913 0.93773 0.0
O183 O 0.11527 0.21974 0.93739 0.0
Cd184 Cd 0.11474 0.33367 0.9623 0.0
O185 O 0.23675 0.24092 0.9524 0.0
Cd186 Cd 0.32195 0.36769 0.98207 0.0
C187 C 0.30716 0.4628 0.93018 0.0
O188 O 0.19521 0.35188 1.00762 0.0
O189 O 0.30468 0.43802 1.02977 0.0
O190 O 0.38316 0.3017 1.00991 0.0
C191 C 0.22835 0.40831 1.02793 0.0
O192 O 0.24505 0.40872 0.94342 0.0
C193 C 0.45497 0.35885 1.00524 0.0
O194 O 0.37381 0.46725 0.93709 0.0
O195 O 0.46357 0.41916 0.99055 0.0
C196 C 0.57834 0.08951 1.00349 0.0
O197 O 0.51127 0.05142 0.98899 0.0
Cd198 Cd 0.44251 0.92923 0.95836 0.0
O199 O 0.62865 0.06324 1.00323 0.0
Cd200 Cd 0.62631 0.94122 0.97621 0.0
C201 C 0.45016 0.7921 1.00952 0.0
O202 O 0.54404 0.92299 0.92837 0.0
O203 O 0.58746 0.84063 0.93318 0.0
O204 O 0.76127 0.02703 0.95141 0.0
C205 C 0.53857 0.8568 0.91945 0.0
O206 O 0.42102 0.8247 0.99234 0.0
C207 C 0.79711 -0.00344 0.96585 0.0
O208 O 0.52753 0.82335 1.01248 0.0
O209 O 0.75493 0.94324 0.98618 0.0
C210 C 0.72953 0.80526 0.45763 0.0
O211 O 0.68953 0.83552 0.47148 0.0
Cd212 Cd 0.55506 0.77806 0.49264 0.0
O213 O 0.70169 0.72963 0.45509 0.0
Cd214 Cd 0.58018 0.60003 0.47378 0.0
C215 C 0.46743 0.62519 0.4344 0.0
O216 O 0.54823 0.66946 0.51899 0.0
O217 O 0.45863 0.54825 0.50811 0.0
O218 O 0.66417 0.55408 0.50121 0.0
C219 C 0.47654 0.61273 0.52326 0.0
O220 O 0.5095 0.67348 0.45582 0.0
C221 C 0.63189 0.48627 0.48715 0.0
O222 O 0.48324 0.56965 0.42707 0.0
O223 O 0.57908 0.47321 0.46636 0.0
C224 C 0.14435 0.9184 0.43756 0.0
O225 O 0.13486 0.84793 0.43833 0.0
Cd226 Cd 0.21014 0.7942 0.46759 0.0
O227 O 0.20196 -0.02447 0.45274 0.0
Cd228 Cd 0.31797 -0.01772 0.48053 0.0
C229 C 0.37223 0.8804 0.42998 0.0
O230 O 0.23969 0.86422 0.51676 0.0
O231 O 0.36926 0.92136 0.51715 0.0
O232 O 0.34844 0.09253 0.52033 0.0
C233 C 0.30231 0.86688 0.52842 0.0
O234 O 0.35641 0.84826 0.45684 0.0
C235 C 0.41813 0.13767 0.50808 0.0
O236 O 0.36442 0.94232 0.42845 0.0
O237 O 0.43367 0.11444 0.48131 0.0
C238 C 0.83701 0.32788 0.50082 0.0
O239 O 0.8546 0.39933 0.49521 0.0
Cd240 Cd -0.02479 0.507 0.47381 0.0
O241 O 0.88514 0.30103 0.49318 0.0
Cd242 Cd 0.02345 0.34351 0.47038 0.0
C243 C 0.09492 0.46633 0.52626 0.0
O244 O 0.01932 0.44374 0.43562 0.0
O245 O 0.12554 0.43181 0.43087 0.0
O246 O -0.03911 0.21537 0.4422 0.0
C247 C 0.09092 0.47162 0.42426 0.0
O248 O 0.05268 0.4804 0.50775 0.0
C249 C 0.01152 0.19539 0.45156 0.0
O250 O 0.10018 0.40368 0.52103 0.0
O251 O 0.06911 0.24516 0.46897 0.0
Zn252 Zn 0.93694 0.91335 0.15794 0.0
Zn253 Zn -0.01584 0.0021 0.26474 0.0
Zn254 Zn -0.02239 -0.00623 0.21381 0.0
C255 C -0.03046 0.86426 0.2523 0.0
C256 C 0.12582 0.12035 0.24456 0.0
O257 O 0.02469 0.09756 0.18737 0.0
O258 O 0.93211 0.01817 0.15238 0.0
C259 C 0.82129 0.85227 0.1952 0.0
O260 O 0.01606 0.90991 0.23014 0.0
O261 O 0.9228 0.88343 0.26751 0.0
O262 O 0.1046 0.05936 0.26112 0.0
O263 O 0.07427 0.11945 0.22483 0.0
O264 O 0.8761 0.8335 0.19241 0.0
O265 O 0.84408 0.92516 0.20342 0.0
O266 O 0.05253 0.93821 0.20048 0.0
O267 O 0.04355 0.92626 0.1481 0.0
C268 C 0.08483 0.93906 0.17278 0.0
O269 O 0.85925 -0.02749 0.23473 0.0
O270 O 0.92671 0.06442 0.27109 0.0
C271 C -0.02177 0.08779 0.16405 0.0
C272 C 0.86141 0.02211 0.25647 0.0
Zn273 Zn 0.86604 0.93027 0.35838 0.0
Zn274 Zn -0.02977 -0.0292 0.45786 0.0
Zn275 Zn -0.04931 -0.03556 0.40631 0.0
C276 C 0.00062 0.11592 0.44443 0.0
C277 C 0.81423 0.86124 0.44911 0.0
O278 O 0.87911 0.83375 0.39533 0.0
O279 O 0.8522 0.82684 0.34414 0.0
C280 C 0.05356 0.05129 0.35812 0.0
O281 O 0.94574 0.06805 0.4252 0.0
O282 O 0.04115 0.09141 0.45922 0.0
O283 O 0.8506 0.92433 0.46584 0.0
O284 O 0.85189 0.85117 0.42488 0.0
O285 O -0.01887 0.02725 0.349 0.0
O286 O 0.06529 0.01621 0.38118 0.0
O287 O 0.89476 0.04255 0.39615 0.0
O288 O 0.78485 0.93001 0.3924 0.0
C289 C 0.81792 0.00464 0.39079 0.0
O290 O 0.07409 -0.02147 0.41159 0.0
O291 O 0.01531 0.8957 0.45077 0.0
C292 C 0.86322 0.79587 0.36814 0.0
C293 C 0.07321 0.92704 0.43078 0.0
Zn294 Zn 0.02028 -0.02054 0.95937 0.0
Zn295 Zn 0.94531 -0.01668 0.85527 0.0
Zn296 Zn -0.03009 -0.0076 0.9064 0.0
C297 C -0.03262 0.12546 0.86985 0.0
C298 C 0.81989 0.86798 0.87824 0.0
O299 O 0.91381 0.86876 0.92507 0.0
O300 O 0.03914 0.90094 0.93313 0.0
C301 C 0.13942 0.11393 0.93568 0.0
O302 O 0.93251 0.0839 0.89496 0.0
O303 O 0.00024 0.09961 0.84957 0.0
O304 O 0.82779 0.93416 0.87076 0.0
O305 O 0.87976 0.86907 0.89186 0.0
O306 O 0.11613 0.08253 0.96261 0.0
O307 O 0.10206 0.07415 0.91042 0.0
O308 O 0.91169 0.04833 0.92983 0.0
O309 O 0.90754 -0.02757 0.96915 0.0
C310 C 0.87861 0.01124 0.95569 0.0
O311 O 0.08619 0.01837 0.8854 0.0
O312 O 0.00971 0.92342 0.85152 0.0
C313 C -0.03432 0.84821 0.93321 0.0
C314 C 0.07699 -0.03737 0.86543 0.0
Zn315 Zn 0.94693 0.02723 0.76606 0.0
Zn316 Zn -0.02203 -0.0096 0.66255 0.0
Zn317 Zn -0.02692 -0.01151 0.71385 0.0
C318 C 0.93603 0.83971 0.67922 0.0
C319 C 0.12893 0.09522 0.67853 0.0
O320 O 0.04686 0.12 0.7274 0.0
O321 O 0.93036 0.10798 0.74014 0.0
C322 C 0.81118 0.89115 0.75416 0.0
O323 O -0.01205 0.88257 0.70068 0.0
O324 O 0.90646 0.87238 0.6626 0.0
O325 O 0.09903 0.03459 0.6603 0.0
O326 O 0.08233 0.10246 0.69982 0.0
O327 O 0.85001 0.92772 0.77873 0.0
O328 O 0.84058 0.92068 0.7265 0.0
O329 O 0.02229 0.92257 0.73259 0.0
O330 O 0.05355 0.01997 0.76842 0.0
C331 C 0.06691 -0.03348 0.75532 0.0
O332 O 0.85572 -0.03168 0.69934 0.0
O333 O 0.92452 0.05924 0.66351 0.0
C334 C 0.00565 0.15399 0.73722 0.0
C335 C 0.85932 0.01891 0.67931 0.0
Zn336 Zn 0.65081 0.33542 0.59808 0.0
Zn337 Zn 0.60358 0.24658 0.49127 0.0
Zn338 Zn 0.64432 0.32713 0.54715 0.0
C339 C 0.75148 0.27235 0.50614 0.0
C340 C 0.488 0.18567 0.52854 0.0
O341 O 0.52596 0.30591 0.56806 0.0
O342 O 0.59338 0.39776 0.60444 0.0
C343 C 0.79251 0.45366 0.57792 0.0
O344 O 0.71916 0.2715 0.53383 0.0
O345 O 0.71022 0.25952 0.48144 0.0
O346 O 0.54276 0.16684 0.52577 0.0
O347 O 0.51083 0.25858 0.53675 0.0
O348 O 0.77125 0.39265 0.59448 0.0
O349 O 0.74099 0.45279 0.55818 0.0
O350 O 0.68272 0.24324 0.56349 0.0
O351 O 0.58942 0.21675 0.60084 0.0
C352 C 0.63618 0.19759 0.58564 0.0
O353 O 0.69139 0.43083 0.52066 0.0
O354 O 0.59877 0.35142 0.48569 0.0
C355 C 0.52811 0.35549 0.58981 0.0
C356 C 0.64491 0.42104 0.49734 0.0
Zn357 Zn 0.63672 0.30409 0.79119 0.0
Zn358 Zn 0.5327 0.26364 0.6917 0.0
Zn359 Zn 0.61721 0.29778 0.73965 0.0
C360 C 0.4845 0.33797 0.72411 0.0
C361 C 0.72019 0.38467 0.69148 0.0
O362 O 0.74058 0.31196 0.74497 0.0
O363 O 0.68164 0.22886 0.78405 0.0
C364 C 0.48075 0.19461 0.78245 0.0
O365 O 0.56132 0.3759 0.72948 0.0
O366 O 0.45146 0.26334 0.72569 0.0
O367 O 0.64778 0.36065 0.68233 0.0
O368 O 0.73187 0.34958 0.71454 0.0
O369 O 0.51711 0.25772 0.79916 0.0
O370 O 0.51841 0.18451 0.75822 0.0
O371 O 0.61228 0.40138 0.75855 0.0
O372 O 0.70774 0.42471 0.79253 0.0
C373 C 0.66721 0.44925 0.77776 0.0
O374 O 0.54568 0.16709 0.72867 0.0
O375 O 0.51893 0.16022 0.67748 0.0
C376 C 0.73965 0.26038 0.76412 0.0
C377 C 0.52988 0.12923 0.70149 0.0
Zn378 Zn 0.68694 0.3128 0.29274 0.0
Zn379 Zn 0.61217 0.31664 0.18861 0.0
Zn380 Zn 0.63666 0.32568 0.23974 0.0
C381 C 0.63411 0.45872 0.20316 0.0
C382 C 0.48668 0.20126 0.21156 0.0
O383 O 0.58055 0.20205 0.25841 0.0
O384 O 0.70587 0.23429 0.26653 0.0
C385 C 0.80611 0.44726 0.26904 0.0
O386 O 0.59924 0.41716 0.22827 0.0
O387 O 0.66704 0.43291 0.18289 0.0
O388 O 0.49463 0.26744 0.20405 0.0
O389 O 0.54652 0.20232 0.22519 0.0
O390 O 0.78274 0.4159 0.29598 0.0
O391 O 0.7688 0.40746 0.24378 0.0
O392 O 0.57837 0.38159 0.26314 0.0
O393 O 0.57417 0.30572 0.30249 0.0
C394 C 0.54526 0.34452 0.289 0.0
O395 O 0.753 0.35166 0.21878 0.0
O396 O 0.67657 0.25674 0.18488 0.0
C397 C 0.63242 0.18154 0.26658 0.0
C398 C 0.74383 0.29593 0.19881 0.0
Zn399 Zn 0.61384 0.36071 0.09946 0.0
Zn400 Zn 0.64466 0.32378 0.99588 0.0
Zn401 Zn 0.63994 0.32195 1.04718 0.0
C402 C 0.60275 0.17308 1.01255 0.0
C403 C 0.79566 0.42864 1.01185 0.0
O404 O 0.71368 0.45344 0.06073 0.0
O405 O 0.5971 0.44125 0.07346 0.0
C406 C 0.47824 0.22475 0.08757 0.0
O407 O 0.65474 0.21597 1.03399 0.0
O408 O 0.57315 0.20574 0.99594 0.0
O409 O 0.76573 0.36801 0.99362 0.0
O410 O 0.74912 0.43591 1.03316 0.0
O411 O 0.51704 0.2612 0.11216 0.0
O412 O 0.50761 0.2544 1.05993 0.0
O413 O 0.68911 0.25598 0.0659 0.0
O414 O 0.72039 0.35338 0.10174 0.0
C415 C 0.73371 0.2999 0.08865 0.0
O416 O 0.52251 0.30175 1.03269 0.0
O417 O 0.59118 0.39258 0.99681 0.0
C418 C 0.67238 0.48734 0.07055 0.0
C419 C 0.52602 0.35225 1.01263 0.0
Zn420 Zn 0.31749 0.6688 0.93142 0.0
Zn421 Zn 0.2703 0.58005 0.8246 0.0
Zn422 Zn 0.31096 0.66047 0.88049 0.0
C423 C 0.41816 0.60574 0.83947 0.0
C424 C 0.15466 0.51899 0.86186 0.0
O425 O 0.19261 0.63922 0.9014 0.0
O426 O 0.26005 0.73114 0.93775 0.0
C427 C 0.45919 0.78703 0.91125 0.0
O428 O 0.38584 0.60488 0.86717 0.0
O429 O 0.37692 0.59295 0.81478 0.0
O430 O 0.20947 0.50021 0.85907 0.0
O431 O 0.17744 0.59187 0.87009 0.0
O432 O 0.43794 0.72603 0.92781 0.0
O433 O 0.40765 0.78615 0.89151 0.0
O434 O 0.34938 0.57659 0.89683 0.0
O435 O 0.25611 0.55014 0.93419 0.0
C436 C 0.30286 0.53095 0.91898 0.0
O437 O 0.35801 0.76425 0.85404 0.0
O438 O 0.26544 0.68486 0.81905 0.0
C439 C 0.19476 0.68883 0.92313 0.0
C440 C 0.31153 0.75447 0.83072 0.0
Zn441 Zn 0.30338 0.63743 0.12451 0.0
Zn442 Zn 0.19937 0.59697 1.02502 0.0
Zn443 Zn 0.28388 0.63112 0.07297 0.0
C444 C 0.15118 0.67133 1.05743 0.0
C445 C 0.38685 0.71799 1.0248 0.0
O446 O 0.40724 0.64529 0.0783 0.0
O447 O 0.34826 0.56218 0.11737 0.0
C448 C 0.14742 0.52798 0.11576 0.0
O449 O 0.228 0.70925 0.0628 0.0
O450 O 0.11812 0.5967 1.05901 0.0
O451 O 0.31445 0.69397 1.01565 0.0
O452 O 0.39853 0.68291 1.04787 0.0
O453 O 0.18377 0.59109 0.13247 0.0
O454 O 0.18509 0.51786 0.09154 0.0
O455 O 0.27895 0.73472 0.09187 0.0
O456 O 0.3744 0.75804 0.12586 0.0
C457 C 0.33387 0.78258 0.11109 0.0
O458 O 0.21235 0.50042 0.062 0.0
O459 O 0.18557 0.49354 1.0108 0.0
C460 C 0.40629 0.59369 0.09745 0.0
C461 C 0.19653 0.46255 1.03481 0.0
Zn462 Zn 0.35364 0.64614 0.62607 0.0
Zn463 Zn 0.2789 0.64997 0.52192 0.0
Zn464 Zn 0.30337 0.65904 0.57305 0.0
C465 C 0.30079 0.79204 0.53642 0.0
C466 C 0.15339 0.53461 0.54485 0.0
O467 O 0.24725 0.53541 0.59172 0.0
O468 O 0.37256 0.56762 0.59986 0.0
C469 C 0.47279 0.78061 0.60238 0.0
O470 O 0.26597 0.75052 0.56155 0.0
O471 O 0.33371 0.76621 0.51616 0.0
O472 O 0.16133 0.60078 0.53733 0.0
O473 O 0.21323 0.5357 0.55851 0.0
O474 O 0.44943 0.74923 0.62931 0.0
O475 O 0.43551 0.74082 0.57712 0.0
O476 O 0.24507 0.71493 0.59646 0.0
O477 O 0.24087 0.63906 0.6358 0.0
C478 C 0.21196 0.67785 0.62232 0.0
O479 O 0.41974 0.68501 0.55211 0.0
O480 O 0.34333 0.59008 0.51821 0.0
C481 C 0.29911 0.51488 0.5999 0.0
C482 C 0.41059 0.62928 0.53214 0.0
Zn483 Zn 0.31128 0.65707 0.32925 0.0
Zn484 Zn 0.28034 0.69387 0.4328 0.0
Zn485 Zn 0.30647 0.65514 0.38055 0.0
C486 C 0.40023 0.63306 0.42203 0.0
C487 C 0.14453 0.55783 0.42085 0.0
O488 O 0.1891 0.63507 0.36606 0.0
O489 O 0.25788 0.72596 0.33022 0.0
C490 C 0.46226 0.76187 0.34518 0.0
O491 O 0.35564 0.58917 0.39928 0.0
O492 O 0.38687 0.68649 0.43515 0.0
O493 O 0.18334 0.59437 0.44542 0.0
O494 O 0.17396 0.58738 0.3932 0.0
O495 O 0.43234 0.70125 0.32694 0.0
O496 O 0.4157 0.76909 0.36649 0.0
O497 O 0.32127 0.54921 0.36736 0.0
O498 O 0.23974 0.53905 0.3293 0.0
C499 C 0.26933 0.50636 0.34589 0.0
O500 O 0.38039 0.78658 0.39413 0.0
O501 O 0.264 0.7748 0.40691 0.0
C502 C 0.1927 0.68566 0.34603 0.0
C503 C 0.33933 0.82068 0.404 0.0
loop_
_geom_bond_atom_site_label_1
_geom_bond_atom_site_label_2
_geom_bond_distance
_geom_bond_site_symmetry_2
_ccdc_geom_bond_type
C0 O1 1.306 . S
C0 O3 1.160 . S
O1 C0 1.306 . S
O1 Cd2 2.228 . S
Cd2 O1 2.228 . S
Cd2 O6 2.273 . S
Cd2 O10 2.277 . S
O3 C0 1.160 . S
O3 Cd4 2.203 1_565 S
Cd4 O3 2.203 1_545 S
Cd4 O6 2.411 1_545 S
Cd4 O7 2.333 . S
Cd4 O8 2.352 . S
Cd4 O12 2.277 . S
Cd4 O13 2.356 . S
C5 O10 1.209 1_545 S
C5 O12 1.226 . S
O6 Cd2 2.273 . S
O6 Cd4 2.411 1_565 S
O6 C9 1.320 1_565 S
O7 Cd4 2.333 . S
O7 C9 1.214 . S
O8 Cd4 2.352 . S
O8 C11 1.258 . S
C9 O6 1.320 1_545 S
C9 O7 1.214 . S
O10 Cd2 2.277 . S
O10 C5 1.209 1_565 S
C11 O8 1.258 . S
C11 O13 1.282 . S
O12 Cd4 2.277 . S
O12 C5 1.226 . S
O13 Cd4 2.356 . S
O13 C11 1.282 . S
C14 O15 1.306 . S
C14 O17 1.160 . S
O15 C14 1.306 . S
O15 Cd16 2.228 . S
Cd16 O15 2.228 . S
Cd16 O20 2.273 . S
Cd16 O24 2.277 . S
O17 C14 1.160 . S
O17 Cd18 2.203 1_655 S
Cd18 O17 2.203 1_455 S
Cd18 O20 2.411 1_455 S
Cd18 O21 2.333 . S
Cd18 O22 2.352 . S
Cd18 O26 2.277 . S
Cd18 O27 2.356 . S
C19 O24 1.209 1_455 S
C19 O26 1.226 . S
O20 Cd16 2.273 . S
O20 Cd18 2.411 1_655 S
O20 C23 1.320 1_655 S
O21 Cd18 2.333 . S
O21 C23 1.214 . S
O22 Cd18 2.352 . S
O22 C25 1.258 . S
C23 O20 1.320 1_455 S
C23 O21 1.214 . S
O24 Cd16 2.277 . S
O24 C19 1.209 1_655 S
C25 O22 1.258 . S
C25 O27 1.282 . S
O26 Cd18 2.277 . S
O26 C19 1.226 . S
O27 Cd18 2.356 . S
O27 C25 1.282 . S
C28 O29 1.306 . S
C28 O31 1.160 . S
O29 C28 1.306 . S
O29 Cd30 2.228 . S
Cd30 O29 2.228 . S
Cd30 O34 2.273 . S
Cd30 O38 2.277 . S
O31 C28 1.160 . S
O31 Cd32 2.203 . S
Cd32 O31 2.203 . S
Cd32 O34 2.411 . S
Cd32 O35 2.333 . S
Cd32 O36 2.352 . S
Cd32 O40 2.277 . S
Cd32 O41 2.356 . S
C33 O38 1.209 . S
C33 O40 1.226 . S
O34 Cd30 2.273 . S
O34 Cd32 2.411 . S
O34 C37 1.320 . S
O35 Cd32 2.333 . S
O35 C37 1.214 . S
O36 Cd32 2.352 . S
O36 C39 1.258 . S
C37 O34 1.320 . S
C37 O35 1.214 . S
O38 Cd30 2.277 . S
O38 C33 1.209 . S
C39 O36 1.258 . S
C39 O41 1.282 . S
O40 Cd32 2.277 . S
O40 C33 1.226 . S
O41 Cd32 2.356 . S
O41 C39 1.282 . S
C42 O43 1.306 . S
C42 O45 1.160 . S
O43 C42 1.306 . S
O43 Cd44 2.228 . S
Cd44 O43 2.228 . S
Cd44 O48 2.273 . S
Cd44 O52 2.277 . S
O45 C42 1.160 . S
O45 Cd46 2.203 1_545 S
Cd46 O45 2.203 1_565 S
Cd46 O48 2.411 1_565 S
Cd46 O49 2.333 . S
Cd46 O50 2.352 . S
Cd46 O54 2.277 . S
Cd46 O55 2.356 . S
C47 O52 1.209 . S
C47 O54 1.226 1_545 S
O48 Cd44 2.273 . S
O48 Cd46 2.411 1_545 S
O48 C51 1.320 . S
O49 Cd46 2.333 . S
O49 C51 1.214 1_565 S
O50 Cd46 2.352 . S
O50 C53 1.258 . S
C51 O48 1.320 . S
C51 O49 1.214 1_545 S
O52 Cd44 2.277 . S
O52 C47 1.209 . S
C53 O50 1.258 . S
C53 O55 1.282 . S
O54 Cd46 2.277 . S
O54 C47 1.226 1_565 S
O55 Cd46 2.356 . S
O55 C53 1.282 . S
C56 O57 1.306 . S
C56 O59 1.160 . S
O57 C56 1.306 . S
O57 Cd58 2.228 . S
Cd58 O57 2.228 . S
Cd58 O62 2.273 . S
Cd58 O66 2.277 . S
O59 C56 1.160 . S
O59 Cd60 2.203 1_655 S
Cd60 O59 2.203 1_455 S
Cd60 O62 2.411 1_455 S
Cd60 O63 2.333 . S
Cd60 O64 2.352 . S
Cd60 O68 2.277 . S
Cd60 O69 2.356 . S
C61 O66 1.209 1_455 S
C61 O68 1.226 . S
O62 Cd58 2.273 . S
O62 Cd60 2.411 1_655 S
O62 C65 1.320 1_655 S
O63 Cd60 2.333 . S
O63 C65 1.214 . S
O64 Cd60 2.352 . S
O64 C67 1.258 . S
C65 O62 1.320 1_455 S
C65 O63 1.214 . S
O66 Cd58 2.277 . S
O66 C61 1.209 1_655 S
C67 O64 1.258 . S
C67 O69 1.282 . S
O68 Cd60 2.277 . S
O68 C61 1.226 . S
O69 Cd60 2.356 . S
O69 C67 1.282 . S
C70 O71 1.306 . S
C70 O73 1.160 . S
O71 C70 1.306 . S
O71 Cd72 2.228 . S
Cd72 O71 2.228 . S
Cd72 O76 2.273 . S
Cd72 O80 2.277 . S
O73 C70 1.160 . S
O73 Cd74 2.203 . S
Cd74 O73 2.203 . S
Cd74 O76 2.411 . S
Cd74 O77 2.333 . S
Cd74 O78 2.352 . S
Cd74 O82 2.277 . S
Cd74 O83 2.356 . S
C75 O80 1.209 . S
C75 O82 1.226 . S
O76 Cd72 2.273 . S
O76 Cd74 2.411 . S
O76 C79 1.320 . S
O77 Cd74 2.333 . S
O77 C79 1.214 . S
O78 Cd74 2.352 . S
O78 C81 1.258 . S
C79 O76 1.320 . S
C79 O77 1.214 . S
O80 Cd72 2.277 . S
O80 C75 1.209 . S
C81 O78 1.258 . S
C81 O83 1.282 . S
O82 Cd74 2.277 . S
O82 C75 1.226 . S
O83 Cd74 2.356 . S
O83 C81 1.282 . S
C84 O85 1.306 . S
C84 O87 1.160 . S
O85 C84 1.306 . S
O85 Cd86 2.228 . S
Cd86 O85 2.228 . S
Cd86 O90 2.273 . S
Cd86 O94 2.277 . S
O87 C84 1.160 . S
O87 Cd88 2.203 . S
Cd88 O87 2.203 . S
Cd88 O90 2.411 . S
Cd88 O91 2.333 . S
Cd88 O92 2.352 . S
Cd88 O96 2.277 . S
Cd88 O97 2.356 . S
C89 O94 1.209 . S
C89 O96 1.226 . S
O90 Cd86 2.273 . S
O90 Cd88 2.411 . S
O90 C93 1.320 . S
O91 Cd88 2.333 . S
O91 C93 1.214 . S
O92 Cd88 2.352 . S
O92 C95 1.258 . S
C93 O90 1.320 . S
C93 O91 1.214 . S
O94 Cd86 2.277 . S
O94 C89 1.209 . S
C95 O92 1.258 . S
C95 O97 1.282 . S
O96 Cd88 2.277 . S
O96 C89 1.226 . S
O97 Cd88 2.356 . S
O97 C95 1.282 . S
C98 O99 1.306 . S
C98 O101 1.160 . S
O99 C98 1.306 . S
O99 Cd100 2.228 1_565 S
Cd100 O99 2.228 1_545 S
Cd100 O104 2.273 . S
Cd100 O108 2.277 . S
O101 C98 1.160 . S
O101 Cd102 2.203 1_565 S
Cd102 O101 2.203 1_545 S
Cd102 O104 2.411 . S
Cd102 O105 2.333 . S
Cd102 O106 2.351 1_545 S
Cd102 O110 2.277 . S
Cd102 O111 2.356 . S
C103 O108 1.209 . S
C103 O110 1.226 . S
O104 Cd100 2.273 . S
O104 Cd102 2.411 . S
O104 C107 1.320 . S
O105 Cd102 2.333 . S
O105 C107 1.214 . S
O106 Cd102 2.351 1_565 S
O106 C109 1.258 1_565 S
C107 O104 1.320 . S
C107 O105 1.214 . S
O108 Cd100 2.277 . S
O108 C103 1.209 . S
C109 O106 1.258 1_545 S
C109 O111 1.282 . S
O110 Cd102 2.277 . S
O110 C103 1.226 . S
O111 Cd102 2.356 . S
O111 C109 1.282 . S
C112 O113 1.306 . S
C112 O115 1.160 1_655 S
O113 C112 1.306 . S
O113 Cd114 2.228 . S
Cd114 O113 2.228 . S
Cd114 O118 2.273 . S
Cd114 O122 2.277 . S
O115 C112 1.160 1_455 S
O115 Cd116 2.203 1_455 S
Cd116 O115 2.203 1_655 S
Cd116 O118 2.411 . S
Cd116 O119 2.333 . S
Cd116 O120 2.352 1_655 S
Cd116 O124 2.277 . S
Cd116 O125 2.356 1_655 S
C117 O122 1.209 . S
C117 O124 1.226 . S
O118 Cd114 2.273 . S
O118 Cd116 2.411 . S
O118 C121 1.320 . S
O119 Cd116 2.333 . S
O119 C121 1.214 . S
O120 Cd116 2.352 1_455 S
O120 C123 1.258 . S
C121 O118 1.320 . S
C121 O119 1.214 . S
O122 Cd114 2.277 . S
O122 C117 1.209 . S
C123 O120 1.258 . S
C123 O125 1.282 . S
O124 Cd116 2.277 . S
O124 C117 1.226 . S
O125 Cd116 2.356 1_455 S
O125 C123 1.282 . S
C126 O127 1.306 . S
C126 O129 1.160 . S
O127 C126 1.306 . S
O127 Cd128 2.228 1_455 S
Cd128 O127 2.228 1_655 S
Cd128 O132 2.273 . S
Cd128 O136 2.277 . S
O129 C126 1.160 . S
O129 Cd130 2.203 1_455 S
Cd130 O129 2.203 1_655 S
Cd130 O132 2.411 . S
Cd130 O133 2.333 . S
Cd130 O134 2.352 1_655 S
Cd130 O138 2.277 . S
Cd130 O139 2.356 . S
C131 O136 1.209 . S
C131 O138 1.226 . S
O132 Cd128 2.273 . S
O132 Cd130 2.411 . S
O132 C135 1.320 . S
O133 Cd130 2.333 . S
O133 C135 1.214 . S
O134 Cd130 2.352 1_455 S
O134 C137 1.258 1_455 S
C135 O132 1.320 . S
C135 O133 1.214 . S
O136 Cd128 2.277 . S
O136 C131 1.209 . S
C137 O134 1.258 1_655 S
C137 O139 1.282 . S
O138 Cd130 2.277 . S
O138 C131 1.226 . S
O139 Cd130 2.356 . S
O139 C137 1.282 . S
C140 O141 1.306 . S
C140 O143 1.160 . S
O141 C140 1.306 . S
O141 Cd142 2.228 . S
Cd142 O141 2.228 . S
Cd142 O146 2.273 . S
Cd142 O150 2.277 . S
O143 C140 1.160 . S
O143 Cd144 2.203 . S
Cd144 O143 2.203 . S
Cd144 O146 2.411 . S
Cd144 O147 2.333 . S
Cd144 O148 2.352 . S
Cd144 O152 2.277 . S
Cd144 O153 2.356 . S
C145 O150 1.209 . S
C145 O152 1.226 . S
O146 Cd142 2.273 . S
O146 Cd144 2.411 . S
O146 C149 1.320 . S
O147 Cd144 2.333 . S
O147 C149 1.214 . S
O148 Cd144 2.352 . S
O148 C151 1.258 . S
C149 O146 1.320 . S
C149 O147 1.214 . S
O150 Cd142 2.277 . S
O150 C145 1.209 . S
C151 O148 1.258 . S
C151 O153 1.282 . S
O152 Cd144 2.277 . S
O152 C145 1.226 . S
O153 Cd144 2.356 . S
O153 C151 1.282 . S
C154 O155 1.306 . S
C154 O157 1.160 . S
O155 C154 1.306 . S
O155 Cd156 2.228 . S
Cd156 O155 2.228 . S
Cd156 O160 2.273 . S
Cd156 O164 2.277 . S
O157 C154 1.160 . S
O157 Cd158 2.203 . S
Cd158 O157 2.203 . S
Cd158 O160 2.411 . S
Cd158 O161 2.333 . S
Cd158 O162 2.352 1_545 S
Cd158 O166 2.277 . S
Cd158 O167 2.356 1_545 S
C159 O164 1.209 . S
C159 O166 1.226 . S
O160 Cd156 2.273 . S
O160 Cd158 2.411 . S
O160 C163 1.320 . S
O161 Cd158 2.333 . S
O161 C163 1.214 . S
O162 Cd158 2.352 1_565 S
O162 C165 1.258 . S
C163 O160 1.320 . S
C163 O161 1.214 . S
O164 Cd156 2.277 . S
O164 C159 1.209 . S
C165 O162 1.258 . S
C165 O167 1.282 . S
O166 Cd158 2.277 . S
O166 C159 1.226 . S
O167 Cd158 2.356 1_565 S
O167 C165 1.282 . S
C168 O169 1.306 . S
C168 O171 1.160 . S
O169 C168 1.306 . S
O169 Cd170 2.228 1_655 S
Cd170 O169 2.228 1_455 S
Cd170 O174 2.273 . S
Cd170 O178 2.277 . S
O171 C168 1.160 . S
O171 Cd172 2.203 1_655 S
Cd172 O171 2.203 1_455 S
Cd172 O174 2.411 . S
Cd172 O175 2.333 . S
Cd172 O176 2.352 . S
Cd172 O180 2.277 . S
Cd172 O181 2.356 . S
C173 O178 1.209 . S
C173 O180 1.226 . S
O174 Cd170 2.273 . S
O174 Cd172 2.411 . S
O174 C177 1.320 . S
O175 Cd172 2.333 . S
O175 C177 1.214 . S
O176 Cd172 2.352 . S
O176 C179 1.258 . S
C177 O174 1.320 . S
C177 O175 1.214 . S
O178 Cd170 2.277 . S
O178 C173 1.209 . S
C179 O176 1.258 . S
C179 O181 1.282 . S
O180 Cd172 2.277 . S
O180 C173 1.226 . S
O181 Cd172 2.356 . S
O181 C179 1.282 . S
C182 O183 1.306 . S
C182 O185 1.160 . S
O183 C182 1.306 . S
O183 Cd184 2.228 . S
Cd184 O183 2.228 . S
Cd184 O188 2.273 . S
Cd184 O192 2.277 . S
O185 C182 1.160 . S
O185 Cd186 2.203 . S
Cd186 O185 2.203 . S
Cd186 O188 2.411 . S
Cd186 O189 2.333 . S
Cd186 O190 2.352 . S
Cd186 O194 2.277 . S
Cd186 O195 2.356 . S
C187 O192 1.209 . S
C187 O194 1.226 . S
O188 Cd184 2.273 . S
O188 Cd186 2.411 . S
O188 C191 1.320 . S
O189 Cd186 2.333 . S
O189 C191 1.214 . S
O190 Cd186 2.352 . S
O190 C193 1.258 . S
C191 O188 1.320 . S
C191 O189 1.214 . S
O192 Cd184 2.277 . S
O192 C187 1.209 . S
C193 O190 1.258 . S
C193 O195 1.282 . S
O194 Cd186 2.277 . S
O194 C187 1.226 . S
O195 Cd186 2.356 . S
O195 C193 1.282 . S
C196 O197 1.306 . S
C196 O199 1.160 . S
O197 C196 1.306 . S
O197 Cd198 2.228 1_545 S
Cd198 O197 2.228 1_565 S
Cd198 O202 2.273 . S
Cd198 O206 2.277 . S
O199 C196 1.160 . S
O199 Cd200 2.203 1_545 S
Cd200 O199 2.203 1_565 S
Cd200 O202 2.411 . S
Cd200 O203 2.333 . S
Cd200 O204 2.352 1_565 S
Cd200 O208 2.277 . S
Cd200 O209 2.356 . S
C201 O206 1.209 . S
C201 O208 1.226 . S
O202 Cd198 2.273 . S
O202 Cd200 2.411 . S
O202 C205 1.320 . S
O203 Cd200 2.333 . S
O203 C205 1.214 . S
O204 Cd200 2.352 1_545 S
O204 C207 1.258 . S
C205 O202 1.320 . S
C205 O203 1.214 . S
O206 Cd198 2.277 . S
O206 C201 1.209 . S
C207 O204 1.258 . S
C207 O209 1.282 1_545 S
O208 Cd200 2.277 . S
O208 C201 1.226 . S
O209 Cd200 2.356 . S
O209 C207 1.282 1_565 S
C210 O211 1.306 . S
C210 O213 1.160 . S
O211 C210 1.306 . S
O211 Cd212 2.228 . S
Cd212 O211 2.228 . S
Cd212 O216 2.273 . S
Cd212 O220 2.277 . S
O213 C210 1.160 . S
O213 Cd214 2.203 . S
Cd214 O213 2.203 . S
Cd214 O216 2.411 . S
Cd214 O217 2.333 . S
Cd214 O218 2.352 . S
Cd214 O222 2.277 . S
Cd214 O223 2.356 . S
C215 O220 1.209 . S
C215 O222 1.226 . S
O216 Cd212 2.273 . S
O216 Cd214 2.411 . S
O216 C219 1.320 . S
O217 Cd214 2.333 . S
O217 C219 1.214 . S
O218 Cd214 2.352 . S
O218 C221 1.258 . S
C219 O216 1.320 . S
C219 O217 1.214 . S
O220 Cd212 2.277 . S
O220 C215 1.209 . S
C221 O218 1.258 . S
C221 O223 1.282 . S
O222 Cd214 2.277 . S
O222 C215 1.226 . S
O223 Cd214 2.356 . S
O223 C221 1.282 . S
C224 O225 1.306 . S
C224 O227 1.160 1_565 S
O225 C224 1.306 . S
O225 Cd226 2.228 . S
Cd226 O225 2.228 . S
Cd226 O230 2.273 . S
Cd226 O234 2.277 . S
O227 C224 1.160 1_545 S
O227 Cd228 2.203 1_545 S
Cd228 O227 2.203 1_565 S
Cd228 O230 2.411 . S
Cd228 O231 2.333 . S
Cd228 O232 2.352 1_565 S
Cd228 O236 2.277 . S
Cd228 O237 2.356 1_565 S
C229 O234 1.209 . S
C229 O236 1.226 . S
O230 Cd226 2.273 . S
O230 Cd228 2.411 . S
O230 C233 1.320 . S
O231 Cd228 2.333 . S
O231 C233 1.214 . S
O232 Cd228 2.352 1_545 S
O232 C235 1.258 . S
C233 O230 1.320 . S
C233 O231 1.214 . S
O234 Cd226 2.277 . S
O234 C229 1.209 . S
C235 O232 1.258 . S
C235 O237 1.282 . S
O236 Cd228 2.277 . S
O236 C229 1.226 . S
O237 Cd228 2.356 1_545 S
O237 C235 1.282 . S
C238 O239 1.306 . S
C238 O241 1.160 . S
O239 C238 1.306 . S
O239 Cd240 2.228 1_655 S
Cd240 O239 2.228 1_455 S
Cd240 O244 2.273 . S
Cd240 O248 2.277 . S
O241 C238 1.160 . S
O241 Cd242 2.203 1_655 S
Cd242 O241 2.203 1_455 S
Cd242 O244 2.411 . S
Cd242 O245 2.333 . S
Cd242 O246 2.352 1_455 S
Cd242 O250 2.277 . S
Cd242 O251 2.356 . S
C243 O248 1.209 . S
C243 O250 1.226 . S
O244 Cd240 2.273 . S
O244 Cd242 2.411 . S
O244 C247 1.320 . S
O245 Cd242 2.333 . S
O245 C247 1.214 . S
O246 Cd242 2.352 1_655 S
O246 C249 1.258 1_655 S
C247 O244 1.320 . S
C247 O245 1.214 . S
O248 Cd240 2.277 . S
O248 C243 1.209 . S
C249 O246 1.258 1_455 S
C249 O251 1.282 . S
O250 Cd242 2.277 . S
O250 C243 1.226 . S
O251 Cd242 2.356 . S
O251 C249 1.282 . S
Zn252 O258 1.920 1_455 S
Zn252 O264 1.898 1_445 S
Zn252 O267 1.905 . S
Zn253 O261 1.905 1_445 S
Zn253 O262 1.898 . S
Zn253 O270 1.920 1_455 S
Zn254 O257 2.080 . S
Zn254 O260 2.114 1_545 S
Zn254 O263 2.120 . S
Zn254 O265 2.120 1_445 S
Zn254 O266 2.114 . S
Zn254 O269 2.080 1_455 S
C255 O260 1.166 1_655 S
C255 O261 1.182 . S
C256 O262 1.167 . S
C256 O263 1.299 . S
O257 Zn254 2.080 . S
O257 C271 1.305 1_455 S
O258 Zn252 1.920 1_655 S
O258 C271 1.234 . S
C259 O264 1.167 . S
C259 O265 1.299 . S
O260 Zn254 2.114 1_565 S
O260 C255 1.166 1_455 S
O261 Zn253 1.905 1_665 S
O261 C255 1.182 . S
O262 Zn253 1.898 . S
O262 C256 1.167 . S
O263 Zn254 2.120 . S
O263 C256 1.299 . S
O264 Zn252 1.898 1_665 S
O264 C259 1.167 . S
O265 Zn254 2.120 1_665 S
O265 C259 1.299 . S
O266 Zn254 2.114 . S
O266 C268 1.166 . S
O267 Zn252 1.905 . S
O267 C268 1.182 . S
C268 O266 1.166 . S
C268 O267 1.182 . S
O269 Zn254 2.080 1_655 S
O269 C272 1.305 . S
O270 Zn253 1.920 1_655 S
O270 C272 1.234 . S
C271 O257 1.305 1_655 S
C271 O258 1.234 . S
C272 O269 1.305 . S
C272 O270 1.234 . S
Zn273 O279 1.920 1_545 S
Zn273 O285 1.898 . S
Zn273 O288 1.905 1_445 S
Zn274 O282 1.905 . S
Zn274 O283 1.898 1_445 S
Zn274 O291 1.920 1_545 S
Zn275 O278 2.084 1_445 S
Zn275 O281 2.114 . S
Zn275 O284 2.120 1_445 S
Zn275 O286 2.120 . S
Zn275 O287 2.114 1_455 S
Zn275 O290 2.080 . S
C276 O281 1.166 . S
C276 O282 1.182 . S
C277 O283 1.167 . S
C277 O284 1.299 . S
O278 Zn275 2.084 1_665 S
O278 C292 1.297 1_655 S
O279 Zn273 1.920 1_565 S
O279 C292 1.234 . S
C280 O285 1.167 . S
C280 O286 1.299 . S
O281 Zn275 2.114 . S
O281 C276 1.166 . S
O282 Zn274 1.905 . S
O282 C276 1.182 . S
O283 Zn274 1.898 1_665 S
O283 C277 1.167 . S
O284 Zn275 2.120 1_665 S
O284 C277 1.299 . S
O285 Zn273 1.898 . S
O285 C280 1.167 . S
O286 Zn275 2.120 . S
O286 C280 1.299 . S
O287 Zn275 2.114 1_655 S
O287 C289 1.166 1_545 S
O288 Zn273 1.905 1_665 S
O288 C289 1.182 . S
C289 O287 1.166 1_565 S
C289 O288 1.182 . S
O290 Zn275 2.080 . S
O290 C293 1.305 1_545 S
O291 Zn274 1.920 1_565 S
O291 C293 1.234 . S
C292 O278 1.297 1_455 S
C292 O279 1.234 . S
C293 O290 1.305 1_565 S
C293 O291 1.234 . S
Zn294 O300 1.920 1_545 S
Zn294 O306 1.898 . S
Zn294 O309 1.905 1_445 S
Zn295 O303 1.905 . S
Zn295 O304 1.898 1_445 S
Zn295 O312 1.920 1_545 S
Zn296 O299 2.080 1_545 S
Zn296 O302 2.114 . S
Zn296 O305 2.120 1_445 S
Zn296 O307 2.120 . S
Zn296 O308 2.114 1_455 S
Zn296 O311 2.080 . S
C297 O302 1.166 . S
C297 O303 1.182 . S
C298 O304 1.167 . S
C298 O305 1.299 . S
O299 Zn296 2.080 1_565 S
O299 C313 1.305 . S
O300 Zn294 1.920 1_565 S
O300 C313 1.234 . S
C301 O306 1.167 . S
C301 O307 1.299 . S
O302 Zn296 2.114 . S
O302 C297 1.166 . S
O303 Zn295 1.905 . S
O303 C297 1.182 . S
O304 Zn295 1.898 1_665 S
O304 C298 1.167 . S
O305 Zn296 2.120 1_665 S
O305 C298 1.299 . S
O306 Zn294 1.898 . S
O306 C301 1.167 . S
O307 Zn296 2.120 . S
O307 C301 1.299 . S
O308 Zn296 2.114 1_655 S
O308 C310 1.166 1_545 S
O309 Zn294 1.905 1_665 S
O309 C310 1.182 . S
C310 O308 1.166 1_565 S
C310 O309 1.182 . S
O311 Zn296 2.080 . S
O311 C314 1.305 . S
O312 Zn295 1.920 1_565 S
O312 C314 1.234 1_565 S
C313 O299 1.305 . S
C313 O300 1.234 . S
C314 O311 1.305 . S
C314 O312 1.234 1_545 S
Zn315 O321 1.920 1_455 S
Zn315 O327 1.898 1_445 S
Zn315 O330 1.905 . S
Zn316 O324 1.905 1_445 S
Zn316 O325 1.898 . S
Zn316 O333 1.920 1_455 S
Zn317 O320 2.080 . S
Zn317 O323 2.114 1_545 S
Zn317 O326 2.120 . S
Zn317 O328 2.120 1_445 S
Zn317 O329 2.114 . S
Zn317 O332 2.080 1_455 S
C318 O323 1.166 1_655 S
C318 O324 1.182 . S
C319 O325 1.167 . S
C319 O326 1.299 . S
O320 Zn317 2.080 . S
O320 C334 1.305 1_455 S
O321 Zn315 1.920 1_655 S
O321 C334 1.234 . S
C322 O327 1.167 . S
C322 O328 1.299 . S
O323 Zn317 2.114 1_565 S
O323 C318 1.166 1_455 S
O324 Zn316 1.905 1_665 S
O324 C318 1.182 . S
O325 Zn316 1.898 . S
O325 C319 1.167 . S
O326 Zn317 2.120 . S
O326 C319 1.299 . S
O327 Zn315 1.898 1_665 S
O327 C322 1.167 . S
O328 Zn317 2.120 1_665 S
O328 C322 1.299 . S
O329 Zn317 2.114 . S
O329 C331 1.166 . S
O330 Zn315 1.905 . S
O330 C331 1.182 . S
C331 O329 1.166 . S
C331 O330 1.182 . S
O332 Zn317 2.080 1_655 S
O332 C335 1.305 . S
O333 Zn316 1.920 1_655 S
O333 C335 1.234 . S
C334 O320 1.305 1_655 S
C334 O321 1.234 . S
C335 O332 1.305 . S
C335 O333 1.234 . S
Zn336 O342 1.920 . S
Zn336 O348 1.898 . S
Zn336 O351 1.905 . S
Zn337 O345 1.905 . S
Zn337 O346 1.898 . S
Zn337 O354 1.920 . S
Zn338 O341 2.080 . S
Zn338 O344 2.114 . S
Zn338 O347 2.120 . S
Zn338 O349 2.120 . S
Zn338 O350 2.114 . S
Zn338 O353 2.080 . S
C339 O344 1.166 . S
C339 O345 1.182 . S
C340 O346 1.167 . S
C340 O347 1.299 . S
O341 Zn338 2.080 . S
O341 C355 1.305 . S
O342 Zn336 1.920 . S
O342 C355 1.234 . S
C343 O348 1.167 . S
C343 O349 1.299 . S
O344 Zn338 2.114 . S
O344 C339 1.166 . S
O345 Zn337 1.905 . S
O345 C339 1.182 . S
O346 Zn337 1.898 . S
O346 C340 1.167 . S
O347 Zn338 2.120 . S
O347 C340 1.299 . S
O348 Zn336 1.898 . S
O348 C343 1.167 . S
O349 Zn338 2.120 . S
O349 C343 1.299 . S
O350 Zn338 2.114 . S
O350 C352 1.166 . S
O351 Zn336 1.905 . S
O351 C352 1.182 . S
C352 O350 1.166 . S
C352 O351 1.182 . S
O353 Zn338 2.080 . S
O353 C356 1.305 . S
O354 Zn337 1.920 . S
O354 C356 1.234 . S
C355 O341 1.305 . S
C355 O342 1.234 . S
C356 O353 1.305 . S
C356 O354 1.234 . S
Zn357 O363 1.920 . S
Zn357 O369 1.898 . S
Zn357 O372 1.905 . S
Zn358 O366 1.905 . S
Zn358 O367 1.898 . S
Zn358 O375 1.920 . S
Zn359 O362 2.080 . S
Zn359 O365 2.114 . S
Zn359 O368 2.120 . S
Zn359 O370 2.120 . S
Zn359 O371 2.114 . S
Zn359 O374 2.080 . S
C360 O365 1.166 . S
C360 O366 1.182 . S
C361 O367 1.167 . S
C361 O368 1.299 . S
O362 Zn359 2.080 . S
O362 C376 1.305 . S
O363 Zn357 1.920 . S
O363 C376 1.234 . S
C364 O369 1.167 . S
C364 O370 1.299 . S
O365 Zn359 2.114 . S
O365 C360 1.166 . S
O366 Zn358 1.905 . S
O366 C360 1.182 . S
O367 Zn358 1.898 . S
O367 C361 1.167 . S
O368 Zn359 2.120 . S
O368 C361 1.299 . S
O369 Zn357 1.898 . S
O369 C364 1.167 . S
O370 Zn359 2.120 . S
O370 C364 1.299 . S
O371 Zn359 2.114 . S
O371 C373 1.166 . S
O372 Zn357 1.905 . S
O372 C373 1.182 . S
C373 O371 1.166 . S
C373 O372 1.182 . S
O374 Zn359 2.080 . S
O374 C377 1.305 . S
O375 Zn358 1.920 . S
O375 C377 1.234 . S
C376 O362 1.305 . S
C376 O363 1.234 . S
C377 O374 1.305 . S
C377 O375 1.234 . S
Zn378 O384 1.920 . S
Zn378 O390 1.898 . S
Zn378 O393 1.905 . S
Zn379 O387 1.905 . S
Zn379 O388 1.898 . S
Zn379 O396 1.920 . S
Zn380 O383 2.080 . S
Zn380 O386 2.114 . S
Zn380 O389 2.120 . S
Zn380 O391 2.120 . S
Zn380 O392 2.114 . S
Zn380 O395 2.080 . S
C381 O386 1.166 . S
C381 O387 1.182 . S
C382 O388 1.167 . S
C382 O389 1.299 . S
O383 Zn380 2.080 . S
O383 C397 1.305 . S
O384 Zn378 1.920 . S
O384 C397 1.234 . S
C385 O390 1.167 . S
C385 O391 1.299 . S
O386 Zn380 2.114 . S
O386 C381 1.166 . S
O387 Zn379 1.905 . S
O387 C381 1.182 . S
O388 Zn379 1.898 . S
O388 C382 1.167 . S
O389 Zn380 2.120 . S
O389 C382 1.299 . S
O390 Zn378 1.898 . S
O390 C385 1.167 . S
O391 Zn380 2.120 . S
O391 C385 1.299 . S
O392 Zn380 2.114 . S
O392 C394 1.166 . S
O393 Zn378 1.905 . S
O393 C394 1.182 . S
C394 O392 1.166 . S
C394 O393 1.182 . S
O395 Zn380 2.080 . S
O395 C398 1.305 . S
O396 Zn379 1.920 . S
O396 C398 1.234 . S
C397 O383 1.305 . S
C397 O384 1.234 . S
C398 O395 1.305 . S
C398 O396 1.234 . S
Zn399 O405 1.920 . S
Zn399 O411 1.898 . S
Zn399 O414 1.905 . S
Zn400 O408 1.905 . S
Zn400 O409 1.898 . S
Zn400 O417 1.920 . S
Zn401 O404 2.080 1_556 S
Zn401 O407 2.114 . S
Zn401 O410 2.120 . S
Zn401 O412 2.120 1_556 S
Zn401 O413 2.114 1_556 S
Zn401 O416 2.080 . S
C402 O407 1.166 . S
C402 O408 1.182 . S
C403 O409 1.167 . S
C403 O410 1.299 . S
O404 Zn401 2.080 1_554 S
O404 C418 1.305 . S
O405 Zn399 1.920 . S
O405 C418 1.234 . S
C406 O411 1.167 . S
C406 O412 1.299 . S
O407 Zn401 2.114 . S
O407 C402 1.166 . S
O408 Zn400 1.905 . S
O408 C402 1.182 . S
O409 Zn400 1.898 . S
O409 C403 1.167 . S
O410 Zn401 2.120 . S
O410 C403 1.299 . S
O411 Zn399 1.898 . S
O411 C406 1.167 . S
O412 Zn401 2.120 1_554 S
O412 C406 1.299 . S
O413 Zn401 2.114 1_554 S
O413 C415 1.166 . S
O414 Zn399 1.905 . S
O414 C415 1.182 . S
C415 O413 1.166 . S
C415 O414 1.182 . S
O416 Zn401 2.080 . S
O416 C419 1.305 . S
O417 Zn400 1.920 . S
O417 C419 1.234 . S
C418 O404 1.305 . S
C418 O405 1.234 . S
C419 O416 1.305 . S
C419 O417 1.234 . S
Zn420 O426 1.920 . S
Zn420 O432 1.898 . S
Zn420 O435 1.905 . S
Zn421 O429 1.905 . S
Zn421 O430 1.898 . S
Zn421 O438 1.920 . S
Zn422 O425 2.080 . S
Zn422 O428 2.114 . S
Zn422 O431 2.120 . S
Zn422 O433 2.120 . S
Zn422 O434 2.114 . S
Zn422 O437 2.080 . S
C423 O428 1.166 . S
C423 O429 1.182 . S
C424 O430 1.167 . S
C424 O431 1.299 . S
O425 Zn422 2.080 . S
O425 C439 1.305 . S
O426 Zn420 1.920 . S
O426 C439 1.234 . S
C427 O432 1.167 . S
C427 O433 1.299 . S
O428 Zn422 2.114 . S
O428 C423 1.166 . S
O429 Zn421 1.905 . S
O429 C423 1.182 . S
O430 Zn421 1.898 . S
O430 C424 1.167 . S
O431 Zn422 2.120 . S
O431 C424 1.299 . S
O432 Zn420 1.898 . S
O432 C427 1.167 . S
O433 Zn422 2.120 . S
O433 C427 1.299 . S
O434 Zn422 2.114 . S
O434 C436 1.166 . S
O435 Zn420 1.905 . S
O435 C436 1.182 . S
C436 O434 1.166 . S
C436 O435 1.182 . S
O437 Zn422 2.080 . S
O437 C440 1.305 . S
O438 Zn421 1.920 . S
O438 C440 1.234 . S
C439 O425 1.305 . S
C439 O426 1.234 . S
C440 O437 1.305 . S
C440 O438 1.234 . S
Zn441 O447 1.920 . S
Zn441 O453 1.898 . S
Zn441 O456 1.905 . S
Zn442 O450 1.905 . S
Zn442 O451 1.898 . S
Zn442 O459 1.920 . S
Zn443 O446 2.080 . S
Zn443 O449 2.114 1_554 S
Zn443 O452 2.120 1_554 S
Zn443 O454 2.120 . S
Zn443 O455 2.114 . S
Zn443 O458 2.080 1_554 S
C444 O449 1.166 . S
C444 O450 1.182 . S
C445 O451 1.167 . S
C445 O452 1.299 . S
O446 Zn443 2.080 . S
O446 C460 1.305 . S
O447 Zn441 1.920 . S
O447 C460 1.234 . S
C448 O453 1.167 . S
C448 O454 1.299 . S
O449 Zn443 2.114 1_556 S
O449 C444 1.166 . S
O450 Zn442 1.905 . S
O450 C444 1.182 . S
O451 Zn442 1.898 . S
O451 C445 1.167 . S
O452 Zn443 2.120 1_556 S
O452 C445 1.299 . S
O453 Zn441 1.898 . S
O453 C448 1.167 . S
O454 Zn443 2.120 . S
O454 C448 1.299 . S
O455 Zn443 2.114 . S
O455 C457 1.166 . S
O456 Zn441 1.905 . S
O456 C457 1.182 . S
C457 O455 1.166 . S
C457 O456 1.182 . S
O458 Zn443 2.080 1_556 S
O458 C461 1.305 . S
O459 Zn442 1.920 . S
O459 C461 1.234 . S
C460 O446 1.305 . S
C460 O447 1.234 . S
C461 O458 1.305 . S
C461 O459 1.234 . S
Zn462 O468 1.920 . S
Zn462 O474 1.898 . S
Zn462 O477 1.905 . S
Zn463 O471 1.905 . S
Zn463 O472 1.898 . S
Zn463 O480 1.920 . S
Zn464 O467 2.080 . S
Zn464 O470 2.114 . S
Zn464 O473 2.120 . S
Zn464 O475 2.120 . S
Zn464 O476 2.114 . S
Zn464 O479 2.080 . S
C465 O470 1.166 . S
C465 O471 1.182 . S
C466 O472 1.167 . S
C466 O473 1.299 . S
O467 Zn464 2.080 . S
O467 C481 1.305 . S
O468 Zn462 1.920 . S
O468 C481 1.234 . S
C469 O474 1.167 . S
C469 O475 1.299 . S
O470 Zn464 2.114 . S
O470 C465 1.166 . S
O471 Zn463 1.905 . S
O471 C465 1.182 . S
O472 Zn463 1.898 . S
O472 C466 1.167 . S
O473 Zn464 2.120 . S
O473 C466 1.299 . S
O474 Zn462 1.898 . S
O474 C469 1.167 . S
O475 Zn464 2.120 . S
O475 C469 1.299 . S
O476 Zn464 2.114 . S
O476 C478 1.166 . S
O477 Zn462 1.905 . S
O477 C478 1.182 . S
C478 O476 1.166 . S
C478 O477 1.182 . S
O479 Zn464 2.080 . S
O479 C482 1.305 . S
O480 Zn463 1.920 . S
O480 C482 1.234 . S
C481 O467 1.305 . S
C481 O468 1.234 . S
C482 O479 1.305 . S
C482 O480 1.234 . S
Zn483 O489 1.920 . S
Zn483 O495 1.898 . S
Zn483 O498 1.905 . S
Zn484 O492 1.905 . S
Zn484 O493 1.898 . S
Zn484 O501 1.920 . S
Zn485 O488 2.080 . S
Zn485 O491 2.114 . S
Zn485 O494 2.120 . S
Zn485 O496 2.120 . S
Zn485 O497 2.114 . S
Zn485 O500 2.080 . S
C486 O491 1.166 . S
C486 O492 1.182 . S
C487 O493 1.167 . S
C487 O494 1.299 . S
O488 Zn485 2.080 . S
O488 C502 1.305 . S
O489 Zn483 1.920 . S
O489 C502 1.234 . S
C490 O495 1.167 . S
C490 O496 1.299 . S
O491 Zn485 2.114 . S
O491 C486 1.166 . S
O492 Zn484 1.905 . S
O492 C486 1.182 . S
O493 Zn484 1.898 . S
O493 C487 1.167 . S
O494 Zn485 2.120 . S
O494 C487 1.299 . S
O495 Zn483 1.898 . S
O495 C490 1.167 . S
O496 Zn485 2.120 . S
O496 C490 1.299 . S
O497 Zn485 2.114 . S
O497 C499 1.166 . S
O498 Zn483 1.905 . S
O498 C499 1.182 . S
C499 O497 1.166 . S
C499 O498 1.182 . S
O500 Zn485 2.080 . S
O500 C503 1.305 . S
O501 Zn484 1.920 . S
O501 C503 1.234 . S
C502 O488 1.305 . S
C502 O489 1.234 . S
C503 O500 1.305 . S
C503 O501 1.234 . S
C37 C256 1.193 . S
C9 C272 1.165 . S
C255 C19 1.134 1_655 S
C280 C33 1.115 . S
C5 C289 1.187 1_545 S
C292 C23 1.163 . S
C75 C298 1.149 . S
C314 C51 1.109 . S
C297 C65 1.232 . S
C79 C322 1.217 . S
C331 C47 1.132 . S
C334 C61 1.116 1_655 S
C343 C121 1.193 . S
C355 C93 1.164 . S
C352 C103 1.134 . S
C117 C361 1.115 . S
C360 C89 1.187 . S
C107 C377 1.163 . S
C382 C159 1.149 . S
C398 C135 1.109 . S
C149 C381 1.232 . S
C406 C163 1.217 . S
C415 C131 1.132 . S
C145 C418 1.116 . S
C205 C427 1.193 . S
C439 C177 1.165 . S
C436 C187 1.134 . S
C201 C445 1.115 . S
C444 C173 1.186 . S
C191 C461 1.163 . S
C466 C243 1.149 . S
C482 C219 1.109 . S
C233 C465 1.232 . S
C487 C247 1.217 . S
C486 C215 1.132 . S
C503 C229 1.116 . S
C268 C154 1.674 . S
C137 C271 1.535 . S
C259 C151 1.605 . S
C249 C276 1.678 . S
C210 C277 1.558 . S
C293 C224 1.718 . S
C310 C207 1.535 1_565 S
C313 C179 1.680 . S
C182 C301 1.586 . S
C318 C112 1.679 . S
C84 C319 1.705 . S
C109 C335 1.576 . S
C238 C339 1.674 . S
C221 C356 1.536 . S
C340 C235 1.605 . S
C373 C81 1.678 . S
C364 C42 1.558 . S
C56 C376 1.718 . S
C394 C39 1.535 . S
C397 C11 1.680 . S
C14 C385 1.586 . S
C402 C196 1.679 . S
C403 C168 1.706 . S
C419 C193 1.576 . S
C423 C70 1.674 . S
C440 C53 1.535 . S
C67 C424 1.605 . S
C165 C457 1.679 . S
C126 C448 1.558 . S
C460 C140 1.718 . S
C123 C478 1.535 . S
C95 C481 1.680 . S
C469 C98 1.586 . S
C499 C28 1.679 . S
C490 C0 1.705 . S
C25 C502 1.576 . S
