# Generated by pormake.
# Topology gar, (4,6)-cn, num edge types: 1
# Building blocks:
#     Node 0, Type 0, BuildingBlock: QUQFOY_clean_sbu_3, # of connection points: 4
#     Node 1, Type 0, BuildingBlock: QUQFOY_clean_sbu_3, # of connection points: 4
#     Node 2, Type 0, BuildingBlock: QUQFOY_clean_sbu_3, # of connection points: 4
#     Node 3, Type 0, BuildingBlock: QUQFOY_clean_sbu_3, # of connection points: 4
#     Node 4, Type 0, BuildingBlock: QUQFOY_clean_sbu_3, # of connection points: 4
#     Node 5, Type 0, BuildingBlock: QUQFOY_clean_sbu_3, # of connection points: 4
#     Node 6, Type 0, BuildingBlock: QUQFOY_clean_sbu_3, # of connection points: 4
#     Node 7, Type 0, BuildingBlock: QUQFOY_clean_sbu_3, # of connection points: 4
#     Node 8, Type 0, BuildingBlock: QUQFOY_clean_sbu_3, # of connection points: 4
#     Node 9, Type 0, BuildingBlock: QUQFOY_clean_sbu_3, # of connection points: 4
#     Node 10, Type 0, BuildingBlock: QUQFOY_clean_sbu_3, # of connection points: 4
#     Node 11, Type 0, BuildingBlock: QUQFOY_clean_sbu_3, # of connection points: 4
#     Node 12, Type 0, BuildingBlock: QUQFOY_clean_sbu_3, # of connection points: 4
#     Node 13, Type 0, BuildingBlock: QUQFOY_clean_sbu_3, # of connection points: 4
#     Node 14, Type 0, BuildingBlock: QUQFOY_clean_sbu_3, # of connection points: 4
#     Node 15, Type 0, BuildingBlock: QUQFOY_clean_sbu_3, # of connection points: 4
#     Node 16, Type 0, BuildingBlock: QUQFOY_clean_sbu_3, # of connection points: 4
#     Node 17, Type 0, BuildingBlock: QUQFOY_clean_sbu_3, # of connection points: 4
#     Node 18, Type 0, BuildingBlock: QUQFOY_clean_sbu_3, # of connection points: 4
#     Node 19, Type 0, BuildingBlock: QUQFOY_clean_sbu_3, # of connection points: 4
#     Node 20, Type 0, BuildingBlock: QUQFOY_clean_sbu_3, # of connection points: 4
#     Node 21, Type 0, BuildingBlock: QUQFOY_clean_sbu_3, # of connection points: 4
#     Node 22, Type 0, BuildingBlock: QUQFOY_clean_sbu_3, # of connection points: 4
#     Node 23, Type 0, BuildingBlock: QUQFOY_clean_sbu_3, # of connection points: 4
#     Node 24, Type 1, BuildingBlock: GEDQOX_clean_sbu_0, # of connection points: 6
#     Node 25, Type 1, BuildingBlock: GEDQOX_clean_sbu_0, # of connection points: 6
#     Node 26, Type 1, BuildingBlock: GEDQOX_clean_sbu_0, # of connection points: 6
#     Node 27, Type 1, BuildingBlock: GEDQOX_clean_sbu_0, # of connection points: 6
#     Node 28, Type 1, BuildingBlock: GEDQOX_clean_sbu_0, # of connection points: 6
#     Node 29, Type 1, BuildingBlock: GEDQOX_clean_sbu_0, # of connection points: 6
#     Node 30, Type 1, BuildingBlock: GEDQOX_clean_sbu_0, # of connection points: 6
#     Node 31, Type 1, BuildingBlock: GEDQOX_clean_sbu_0, # of connection points: 6
#     Node 32, Type 1, BuildingBlock: GEDQOX_clean_sbu_0, # of connection points: 6
#     Node 33, Type 1, BuildingBlock: GEDQOX_clean_sbu_0, # of connection points: 6
#     Node 34, Type 1, BuildingBlock: GEDQOX_clean_sbu_0, # of connection points: 6
#     Node 35, Type 1, BuildingBlock: GEDQOX_clean_sbu_0, # of connection points: 6
#     Node 36, Type 1, BuildingBlock: GEDQOX_clean_sbu_0, # of connection points: 6
#     Node 37, Type 1, BuildingBlock: GEDQOX_clean_sbu_0, # of connection points: 6
#     Node 38, Type 1, BuildingBlock: GEDQOX_clean_sbu_0, # of connection points: 6
#     Node 39, Type 1, BuildingBlock: GEDQOX_clean_sbu_0, # of connection points: 6
#     Edge 40, Type (0, 1), BuildingBlock: XIVTED_clean_linker_0, # of connection points: 2
#     Edge 41, Type (0, 1), BuildingBlock: XIVTED_clean_linker_0, # of connection points: 2
#     Edge 42, Type (0, 1), BuildingBlock: XIVTED_clean_linker_0, # of connection points: 2
#     Edge 43, Type (0, 1), BuildingBlock: XIVTED_clean_linker_0, # of connection points: 2
#     Edge 44, Type (0, 1), BuildingBlock: XIVTED_clean_linker_0, # of connection points: 2
#     Edge 45, Type (0, 1), BuildingBlock: XIVTED_clean_linker_0, # of connection points: 2
#     Edge 46, Type (0, 1), BuildingBlock: XIVTED_clean_linker_0, # of connection points: 2
#     Edge 47, Type (0, 1), BuildingBlock: XIVTED_clean_linker_0, # of connection points: 2
#     Edge 48, Type (0, 1), BuildingBlock: XIVTED_clean_linker_0, # of connection points: 2
#     Edge 49, Type (0, 1), BuildingBlock: XIVTED_clean_linker_0, # of connection points: 2
#     Edge 50, Type (0, 1), BuildingBlock: XIVTED_clean_linker_0, # of connection points: 2
#     Edge 51, Type (0, 1), BuildingBlock: XIVTED_clean_linker_0, # of connection points: 2
#     Edge 52, Type (0, 1), BuildingBlock: XIVTED_clean_linker_0, # of connection points: 2
#     Edge 53, Type (0, 1), BuildingBlock: XIVTED_clean_linker_0, # of connection points: 2
#     Edge 54, Type (0, 1), BuildingBlock: XIVTED_clean_linker_0, # of connection points: 2
#     Edge 55, Type (0, 1), BuildingBlock: XIVTED_clean_linker_0, # of connection points: 2
#     Edge 56, Type (0, 1), BuildingBlock: XIVTED_clean_linker_0, # of connection points: 2
#     Edge 57, Type (0, 1), BuildingBlock: XIVTED_clean_linker_0, # of connection points: 2
#     Edge 58, Type (0, 1), BuildingBlock: XIVTED_clean_linker_0, # of connection points: 2
#     Edge 59, Type (0, 1), BuildingBlock: XIVTED_clean_linker_0, # of connection points: 2
#     Edge 60, Type (0, 1), BuildingBlock: XIVTED_clean_linker_0, # of connection points: 2
#     Edge 61, Type (0, 1), BuildingBlock: XIVTED_clean_linker_0, # of connection points: 2
#     Edge 62, Type (0, 1), BuildingBlock: XIVTED_clean_linker_0, # of connection points: 2
#     Edge 63, Type (0, 1), BuildingBlock: XIVTED_clean_linker_0, # of connection points: 2
#     Edge 64, Type (0, 1), BuildingBlock: XIVTED_clean_linker_0, # of connection points: 2
#     Edge 65, Type (0, 1), BuildingBlock: XIVTED_clean_linker_0, # of connection points: 2
#     Edge 66, Type (0, 1), BuildingBlock: XIVTED_clean_linker_0, # of connection points: 2
#     Edge 67, Type (0, 1), BuildingBlock: XIVTED_clean_linker_0, # of connection points: 2
#     Edge 68, Type (0, 1), BuildingBlock: XIVTED_clean_linker_0, # of connection points: 2
#     Edge 69, Type (0, 1), BuildingBlock: XIVTED_clean_linker_0, # of connection points: 2
#     Edge 70, Type (0, 1), BuildingBlock: XIVTED_clean_linker_0, # of connection points: 2
#     Edge 71, Type (0, 1), BuildingBlock: XIVTED_clean_linker_0, # of connection points: 2
#     Edge 72, Type (0, 1), BuildingBlock: XIVTED_clean_linker_0, # of connection points: 2
#     Edge 73, Type (0, 1), BuildingBlock: XIVTED_clean_linker_0, # of connection points: 2
#     Edge 74, Type (0, 1), BuildingBlock: XIVTED_clean_linker_0, # of connection points: 2
#     Edge 75, Type (0, 1), BuildingBlock: XIVTED_clean_linker_0, # of connection points: 2
#     Edge 76, Type (0, 1), BuildingBlock: XIVTED_clean_linker_0, # of connection points: 2
#     Edge 77, Type (0, 1), BuildingBlock: XIVTED_clean_linker_0, # of connection points: 2
#     Edge 78, Type (0, 1), BuildingBlock: XIVTED_clean_linker_0, # of connection points: 2
#     Edge 79, Type (0, 1), BuildingBlock: XIVTED_clean_linker_0, # of connection points: 2
#     Edge 80, Type (0, 1), BuildingBlock: XIVTED_clean_linker_0, # of connection points: 2
#     Edge 81, Type (0, 1), BuildingBlock: XIVTED_clean_linker_0, # of connection points: 2
#     Edge 82, Type (0, 1), BuildingBlock: XIVTED_clean_linker_0, # of connection points: 2
#     Edge 83, Type (0, 1), BuildingBlock: XIVTED_clean_linker_0, # of connection points: 2
#     Edge 84, Type (0, 1), BuildingBlock: XIVTED_clean_linker_0, # of connection points: 2
#     Edge 85, Type (0, 1), BuildingBlock: XIVTED_clean_linker_0, # of connection points: 2
#     Edge 86, Type (0, 1), BuildingBlock: XIVTED_clean_linker_0, # of connection points: 2
#     Edge 87, Type (0, 1), BuildingBlock: XIVTED_clean_linker_0, # of connection points: 2
#     Edge 88, Type (0, 1), BuildingBlock: XIVTED_clean_linker_0, # of connection points: 2
#     Edge 89, Type (0, 1), BuildingBlock: XIVTED_clean_linker_0, # of connection points: 2
#     Edge 90, Type (0, 1), BuildingBlock: XIVTED_clean_linker_0, # of connection points: 2
#     Edge 91, Type (0, 1), BuildingBlock: XIVTED_clean_linker_0, # of connection points: 2
#     Edge 92, Type (0, 1), BuildingBlock: XIVTED_clean_linker_0, # of connection points: 2
#     Edge 93, Type (0, 1), BuildingBlock: XIVTED_clean_linker_0, # of connection points: 2
#     Edge 94, Type (0, 1), BuildingBlock: XIVTED_clean_linker_0, # of connection points: 2
#     Edge 95, Type (0, 1), BuildingBlock: XIVTED_clean_linker_0, # of connection points: 2
#     Edge 96, Type (0, 1), BuildingBlock: XIVTED_clean_linker_0, # of connection points: 2
#     Edge 97, Type (0, 1), BuildingBlock: XIVTED_clean_linker_0, # of connection points: 2
#     Edge 98, Type (0, 1), BuildingBlock: XIVTED_clean_linker_0, # of connection points: 2
#     Edge 99, Type (0, 1), BuildingBlock: XIVTED_clean_linker_0, # of connection points: 2
#     Edge 100, Type (0, 1), BuildingBlock: XIVTED_clean_linker_0, # of connection points: 2
#     Edge 101, Type (0, 1), BuildingBlock: XIVTED_clean_linker_0, # of connection points: 2
#     Edge 102, Type (0, 1), BuildingBlock: XIVTED_clean_linker_0, # of connection points: 2
#     Edge 103, Type (0, 1), BuildingBlock: XIVTED_clean_linker_0, # of connection points: 2
#     Edge 104, Type (0, 1), BuildingBlock: XIVTED_clean_linker_0, # of connection points: 2
#     Edge 105, Type (0, 1), BuildingBlock: XIVTED_clean_linker_0, # of connection points: 2
#     Edge 106, Type (0, 1), BuildingBlock: XIVTED_clean_linker_0, # of connection points: 2
#     Edge 107, Type (0, 1), BuildingBlock: XIVTED_clean_linker_0, # of connection points: 2
#     Edge 108, Type (0, 1), BuildingBlock: XIVTED_clean_linker_0, # of connection points: 2
#     Edge 109, Type (0, 1), BuildingBlock: XIVTED_clean_linker_0, # of connection points: 2
#     Edge 110, Type (0, 1), BuildingBlock: XIVTED_clean_linker_0, # of connection points: 2
#     Edge 111, Type (0, 1), BuildingBlock: XIVTED_clean_linker_0, # of connection points: 2
#     Edge 112, Type (0, 1), BuildingBlock: XIVTED_clean_linker_0, # of connection points: 2
#     Edge 113, Type (0, 1), BuildingBlock: XIVTED_clean_linker_0, # of connection points: 2
#     Edge 114, Type (0, 1), BuildingBlock: XIVTED_clean_linker_0, # of connection points: 2
#     Edge 115, Type (0, 1), BuildingBlock: XIVTED_clean_linker_0, # of connection points: 2
#     Edge 116, Type (0, 1), BuildingBlock: XIVTED_clean_linker_0, # of connection points: 2
#     Edge 117, Type (0, 1), BuildingBlock: XIVTED_clean_linker_0, # of connection points: 2
#     Edge 118, Type (0, 1), BuildingBlock: XIVTED_clean_linker_0, # of connection points: 2
#     Edge 119, Type (0, 1), BuildingBlock: XIVTED_clean_linker_0, # of connection points: 2
#     Edge 120, Type (0, 1), BuildingBlock: XIVTED_clean_linker_0, # of connection points: 2
#     Edge 121, Type (0, 1), BuildingBlock: XIVTED_clean_linker_0, # of connection points: 2
#     Edge 122, Type (0, 1), BuildingBlock: XIVTED_clean_linker_0, # of connection points: 2
#     Edge 123, Type (0, 1), BuildingBlock: XIVTED_clean_linker_0, # of connection points: 2
#     Edge 124, Type (0, 1), BuildingBlock: XIVTED_clean_linker_0, # of connection points: 2
#     Edge 125, Type (0, 1), BuildingBlock: XIVTED_clean_linker_0, # of connection points: 2
#     Edge 126, Type (0, 1), BuildingBlock: XIVTED_clean_linker_0, # of connection points: 2
#     Edge 127, Type (0, 1), BuildingBlock: XIVTED_clean_linker_0, # of connection points: 2
#     Edge 128, Type (0, 1), BuildingBlock: XIVTED_clean_linker_0, # of connection points: 2
#     Edge 129, Type (0, 1), BuildingBlock: XIVTED_clean_linker_0, # of connection points: 2
#     Edge 130, Type (0, 1), BuildingBlock: XIVTED_clean_linker_0, # of connection points: 2
#     Edge 131, Type (0, 1), BuildingBlock: XIVTED_clean_linker_0, # of connection points: 2
#     Edge 132, Type (0, 1), BuildingBlock: XIVTED_clean_linker_0, # of connection points: 2
#     Edge 133, Type (0, 1), BuildingBlock: XIVTED_clean_linker_0, # of connection points: 2
#     Edge 134, Type (0, 1), BuildingBlock: XIVTED_clean_linker_0, # of connection points: 2
#     Edge 135, Type (0, 1), BuildingBlock: XIVTED_clean_linker_0, # of connection points: 2
# Relax obj value: 0.268
# Max RMSD: 0.443
# Mean RMSD: 0.171
data_MOF--net-gar--node1-QUQFOY_clean_sbu_3--node2-GEDQOX_clean_sbu_0--edge1-XIVTED_clean_linker_0
_symmetry_space_group_name_H-M    P1
_symmetry_Int_Tables_number       1
_symmetry_cell_setting            triclinic
loop_
_symmetry_equiv_pos_as_xyz
'x, y, z'
_cell_length_a     61.092435
_cell_length_b     59.695211
_cell_length_c     53.892556
_cell_angle_alpha  98.675644
_cell_angle_beta   96.898099
_cell_angle_gamma 99.214006
loop_
_atom_site_label
_atom_site_type_symbol
_atom_site_fract_x
_atom_site_fract_y
_atom_site_fract_z
_atom_type_partial_charge
C0 C 0.07794 0.40748 0.45025 0.0
O1 O 0.09375 0.41694 0.43987 0.0
Cd2 Cd 0.13041 0.40773 0.44368 0.0
O3 O 0.08097 0.39202 0.46366 0.0
Cd4 Cd 0.11209 0.37262 0.47848 0.0
C5 C 0.14057 0.42606 0.50721 0.0
O6 O 0.12048 0.36649 0.43617 0.0
O7 O 0.14321 0.35443 0.46252 0.0
O8 O 0.08247 0.34061 0.4811 0.0
C9 C 0.13622 0.35547 0.43965 0.0
O10 O 0.14579 0.42961 0.48581 0.0
C11 C 0.09156 0.33686 0.50219 0.0
O12 O 0.12874 0.40701 0.50905 0.0
O13 O 0.11012 0.34974 0.51208 0.0
C14 C 0.95933 0.76519 0.72401 0.0
O15 O 0.96029 0.74423 0.72485 0.0
Cd16 Cd 0.98472 0.72328 0.70432 0.0
O17 O 0.96926 0.77558 0.70827 0.0
Cd18 Cd 0.99319 0.76562 0.67476 0.0
C19 C 0.96847 0.71274 0.64047 0.0
O20 O 1.01706 0.75206 0.70615 0.0
O21 O 0.02854 0.75104 0.66986 0.0
O22 O 1.01234 0.80565 0.67789 0.0
C23 C 0.03176 0.74756 0.69252 0.0
O24 O 0.97107 0.70501 0.66114 0.0
C25 C 1.00546 0.80726 0.65516 0.0
O26 O 0.97341 0.73428 0.6404 0.0
O27 O 0.99241 0.78979 0.64184 0.0
C28 C 0.5789 0.91095 0.96141 0.0
O29 O 0.59432 0.92521 0.95536 0.0
Cd30 Cd 0.63305 0.92236 0.96151 0.0
O31 O 0.58345 0.89383 0.97139 0.0
Cd32 Cd 0.61693 0.8776 0.98521 0.0
C33 C 0.63633 0.92953 0.02521 0.0
O34 O 0.62772 0.88174 0.94462 0.0
O35 O 0.6492 0.86433 0.96642 0.0
O36 O 0.61784 0.85002 0.01381 0.0
C37 C 0.64363 0.87065 0.94547 0.0
O38 O 0.64188 0.93891 0.00668 0.0
C39 C 0.59957 0.83691 1.00334 0.0
O40 O 0.62788 0.90825 0.02157 0.0
O41 O 0.5895 0.8423 0.98365 0.0
C42 C 0.47004 0.26461 0.21509 0.0
O43 O 0.46819 0.24314 0.21538 0.0
Cd44 Cd 0.49188 0.21973 0.19531 0.0
O45 O 0.48252 0.27404 0.20082 0.0
Cd46 Cd 0.50706 0.26176 0.16985 0.0
C47 C 0.48083 0.21153 0.13143 0.0
O48 O 0.52783 0.24467 0.20159 0.0
O49 O 0.54104 0.24527 0.16627 0.0
O50 O 0.52745 0.30162 0.17455 0.0
C51 C 0.54293 0.24031 0.18837 0.0
O52 O 0.4816 0.20197 0.15097 0.0
C53 C 0.52209 0.30327 0.15147 0.0
O54 O 0.48629 0.2333 0.13379 0.0
O55 O 0.50983 0.28578 0.13729 0.0
C56 C 1.00921 0.811 0.28988 0.0
O57 O 0.02107 0.80031 0.30328 0.0
Cd58 Cd 0.05895 0.79451 0.29636 0.0
O59 O 1.01725 0.81964 0.27189 0.0
Cd60 Cd 0.05332 0.8204 0.25263 0.0
C61 C 0.04986 0.76198 0.23833 0.0
O62 O 0.08465 0.82798 0.29019 0.0
O63 O 0.09363 0.82081 0.25265 0.0
O64 O 0.05241 0.85884 0.24076 0.0
C65 C 0.10003 0.82599 0.27638 0.0
O66 O 0.05718 0.76278 0.26161 0.0
C67 C 0.04802 0.85136 0.217 0.0
O68 O 0.04495 0.77988 0.23041 0.0
O69 O 0.04636 0.82981 0.20999 0.0
C70 C 0.51289 0.84184 0.35778 0.0
O71 O 0.52597 0.85486 0.3472 0.0
Cd72 Cd 0.566 0.86633 0.36062 0.0
O73 O 0.52116 0.8328 0.376 0.0
Cd74 Cd 0.56163 0.83667 0.39866 0.0
C75 C 0.56494 0.89406 0.41907 0.0
O76 O 0.58724 0.83555 0.36467 0.0
O77 O 0.60269 0.84839 0.40323 0.0
O78 O 0.55597 0.7968 0.40868 0.0
C79 C 0.60523 0.84169 0.38049 0.0
O80 O 0.57077 0.89687 0.39771 0.0
C81 C 0.56216 0.80345 0.43243 0.0
O82 O 0.55903 0.87383 0.42358 0.0
O83 O 0.56719 0.82504 0.44006 0.0
C84 C 0.50204 0.30991 0.78331 0.0
O85 O 0.51487 0.30173 0.79839 0.0
Cd86 Cd 0.54541 0.29831 0.77467 0.0
O87 O 0.5094 0.31576 0.76358 0.0
Cd88 Cd 0.54754 0.3155 0.74713 0.0
C89 C 0.53947 0.25849 0.72875 0.0
O90 O 0.58049 0.32473 0.78423 0.0
O91 O 0.58598 0.30625 0.74881 0.0
O92 O 0.54991 0.35492 0.73654 0.0
C93 C 0.59433 0.3169 0.77094 0.0
O94 O 0.54494 0.25964 0.75242 0.0
C95 C 0.54621 0.3481 0.71267 0.0
O96 O 0.53706 0.27691 0.72046 0.0
O97 O 0.54404 0.32659 0.70511 0.0
C98 C 1.01146 0.34436 0.85975 0.0
O99 O 0.02384 0.35585 0.84705 0.0
Cd100 Cd 0.06319 0.37021 0.86121 0.0
O101 O 0.02041 0.33794 0.87958 0.0
Cd102 Cd 0.06064 0.34232 0.90284 0.0
C103 C 0.06128 0.3997 0.91969 0.0
O104 O 0.0858 0.34117 0.86887 0.0
O105 O 0.10148 0.3545 0.90738 0.0
O106 O 0.0573 0.30204 0.91058 0.0
C107 C 0.10385 0.34787 0.88454 0.0
O108 O 0.06369 0.40109 0.89683 0.0
C109 C 0.06024 0.30732 0.93465 0.0
O110 O 0.05929 0.38032 0.92712 0.0
O111 O 0.06267 0.3286 0.94377 0.0
C112 C 0.49987 0.13854 0.37482 0.0
O113 O 0.5106 0.12696 0.36047 0.0
Cd114 Cd 0.49991 0.11467 0.31576 0.0
O115 O 0.48343 0.14702 0.36553 0.0
Cd116 Cd 0.46519 0.14927 0.32174 0.0
C117 C 0.4447 0.09247 0.31736 0.0
O118 O 0.49728 0.14867 0.29834 0.0
O119 O 0.4646 0.14094 0.27582 0.0
O120 O 0.4611 0.18998 0.33212 0.0
C121 C 0.48567 0.14456 0.27651 0.0
O122 O 0.46378 0.08848 0.31255 0.0
C123 C 0.44051 0.18614 0.32243 0.0
O124 O 0.44129 0.11301 0.32243 0.0
O125 O 0.43157 0.16534 0.31357 0.0
C126 C 0.28397 0.09531 0.47704 0.0
O127 O 0.26717 0.0853 0.48553 0.0
Cd128 Cd 0.23325 0.09885 0.49345 0.0
O129 O 0.28407 0.11495 0.47037 0.0
Cd130 Cd 0.25892 0.14357 0.46935 0.0
C131 C 0.25924 0.14865 0.53374 0.0
O132 O 0.22323 0.11763 0.45938 0.0
O133 O 0.22172 0.15333 0.47028 0.0
O134 O 0.26495 0.15887 0.43062 0.0
C135 C 0.21128 0.13272 0.4645 0.0
O136 O 0.24587 0.12937 0.53064 0.0
C137 C 0.27412 0.17894 0.44237 0.0
O138 O 0.26694 0.15625 0.51506 0.0
O139 O 0.27734 0.18193 0.46645 0.0
C140 C 0.15464 0.0726 0.88373 0.0
O141 O 0.14514 0.08218 0.86703 0.0
Cd142 Cd 0.15616 0.08833 0.82748 0.0
O143 O 0.17273 0.06481 0.87987 0.0
Cd144 Cd 0.19676 0.06159 0.84107 0.0
C145 C 0.20977 0.12214 0.84095 0.0
O146 O 0.16356 0.05282 0.8072 0.0
O147 O 0.19453 0.06448 0.79458 0.0
O148 O 0.19826 0.0193 0.84274 0.0
C149 C 0.17367 0.05679 0.78876 0.0
O150 O 0.18873 0.11923 0.83365 0.0
C151 C 0.2191 0.01971 0.84263 0.0
O152 O 0.21846 0.10491 0.84673 0.0
O153 O 0.2304 0.03964 0.84276 0.0
C154 C 0.262 0.96796 0.06074 0.0
O155 O 0.2475 0.97223 0.04395 0.0
Cd156 Cd 0.20968 0.95267 0.03488 0.0
O157 O 0.257 0.95224 0.07383 0.0
Cd158 Cd 0.22422 0.92363 0.07854 0.0
C159 C 0.22341 0.90047 0.015 0.0
O160 O 0.20555 0.9556 0.07896 0.0
O161 O 0.18403 0.92603 0.08621 0.0
O162 O 0.24664 0.92717 0.12014 0.0
C163 C 0.18717 0.94745 0.08534 0.0
O164 O 0.21463 0.91702 0.00847 0.0
C165 C 0.24138 0.90615 0.12228 0.0
O166 O 0.22815 0.89933 0.0384 0.0
O167 O 0.2276 0.89319 0.10428 0.0
C168 C 0.37131 0.56366 0.15233 0.0
O169 O 0.35658 0.5724 0.14025 0.0
Cd170 Cd 0.3165 0.56537 0.13682 0.0
O171 O 0.36574 0.548 0.16532 0.0
Cd172 Cd 0.32977 0.52517 0.17185 0.0
C173 C 0.30984 0.5098 0.10743 0.0
O174 O 0.30994 0.55653 0.17704 0.0
O175 O 0.28977 0.52339 0.17559 0.0
O176 O 0.33658 0.51098 0.21205 0.0
C177 C 0.29063 0.54485 0.17641 0.0
O178 O 0.30594 0.5298 0.10517 0.0
C179 C 0.3375 0.49078 0.20105 0.0
O180 O 0.3187 0.50575 0.12849 0.0
O181 O 0.33566 0.48719 0.17704 0.0
C182 C 0.90152 0.19188 0.07615 0.0
O183 O 0.8882 0.18164 0.08891 0.0
Cd184 Cd 0.85362 0.19054 0.09849 0.0
O185 O 0.89788 0.21045 0.06851 0.0
Cd186 Cd 0.86618 0.23376 0.07018 0.0
C187 C 0.86443 0.24551 0.13404 0.0
O188 O 0.83917 0.19839 0.05871 0.0
O189 O 0.82475 0.22872 0.06598 0.0
O190 O 0.8722 0.23931 0.02745 0.0
C191 C 0.82175 0.20717 0.05862 0.0
O192 O 0.85817 0.22382 0.13174 0.0
C193 C 0.86779 0.25948 0.02932 0.0
O194 O 0.86995 0.25449 0.1151 0.0
O195 O 0.86483 0.26883 0.05113 0.0
C196 C 0.1098 0.52778 0.34175 0.0
O197 O 0.09916 0.53527 0.32393 0.0
Cd198 Cd 0.10332 0.53225 0.27997 0.0
O199 O 0.12542 0.51642 0.33753 0.0
Cd200 Cd 0.14408 0.50314 0.30029 0.0
C201 C 0.159 0.55804 0.28796 0.0
O202 O 0.11068 0.49489 0.2688 0.0
O203 O 0.14099 0.49162 0.25357 0.0
O204 O 0.15127 0.46628 0.31222 0.0
C205 C 0.12013 0.49166 0.24925 0.0
O206 O 0.13852 0.55787 0.27963 0.0
C207 C 0.17252 0.47227 0.31605 0.0
O208 O 0.16492 0.54133 0.29771 0.0
O209 O 0.18035 0.49243 0.31267 0.0
C210 C 0.87971 0.0518 0.66492 0.0
O211 O 0.86742 0.06395 0.65421 0.0
Cd212 Cd 0.827 0.05791 0.64786 0.0
O213 O 0.87124 0.03513 0.67507 0.0
Cd214 Cd 0.83466 1.01573 0.68242 0.0
C215 C 0.81877 1.00178 0.6175 0.0
O216 O 0.81757 0.04912 0.68725 0.0
O217 O 0.79586 0.01746 0.68851 0.0
O218 O 0.84791 1.00557 0.72314 0.0
C219 C 0.79793 0.03882 0.68791 0.0
O220 O 0.817 0.02249 0.61566 0.0
C221 C 0.84201 0.98398 0.71506 0.0
O222 O 0.82525 0.99639 0.63879 0.0
O223 O 0.83309 0.97764 0.69201 0.0
C224 C 0.95174 0.08535 0.35589 0.0
O225 O 0.96017 0.07301 0.33961 0.0
Cd226 Cd 0.94761 0.06002 0.29598 0.0
O227 O 0.93422 0.09369 0.349 0.0
Cd228 Cd 0.90925 0.09299 0.30523 0.0
C229 C 0.89452 0.03169 0.30259 0.0
O230 O 0.94267 0.09504 0.28252 0.0
O231 O 0.91218 0.08849 0.25692 0.0
O232 O 0.90799 0.1359 0.31841 0.0
C233 C 0.93348 0.09228 0.25974 0.0
O234 O 0.91431 0.03178 0.29733 0.0
C235 C 0.88705 0.13516 0.31263 0.0
O236 O 0.88745 0.05096 0.30681 0.0
O237 O 0.87586 0.115 0.30391 0.0
C238 C 0.39442 0.69138 0.577 0.0
O239 O 0.37928 0.6814 0.58785 0.0
Cd240 Cd 0.34543 0.69324 0.59554 0.0
O241 O 0.3929 0.7108 0.57016 0.0
Cd242 Cd 0.36326 0.73666 0.57066 0.0
C243 C 0.36059 0.7469 0.63394 0.0
O244 O 0.33343 0.70376 0.5562 0.0
O245 O 0.32224 0.73546 0.56734 0.0
O246 O 0.37152 0.74349 0.52903 0.0
C247 C 0.31723 0.71434 0.55752 0.0
O248 O 0.35205 0.72557 0.63037 0.0
C249 C 0.36904 0.76437 0.53201 0.0
O250 O 0.36776 0.7561 0.61586 0.0
O251 O 0.36595 0.77322 0.55395 0.0
C252 C 0.4512 0.58647 0.85594 0.0
O253 O 0.46019 0.57485 0.83965 0.0
Cd254 Cd 0.44626 0.56266 0.79633 0.0
O255 O 0.43328 0.59407 0.84888 0.0
Cd256 Cd 0.40892 0.59293 0.80446 0.0
C257 C 0.3941 0.53226 0.80223 0.0
O258 O 0.44222 0.59755 0.78114 0.0
O259 O 0.41178 0.58419 0.75613 0.0
O260 O 0.40725 0.63575 0.81684 0.0
C261 C 0.4327 0.59189 0.75841 0.0
O262 O 0.41387 0.53272 0.79681 0.0
C263 C 0.38631 0.63493 0.81097 0.0
O264 O 0.38688 0.55139 0.80671 0.0
O265 O 0.37522 0.61472 0.8023 0.0
C266 C 0.6066 1.01066 0.84817 0.0
O267 O 0.59514 0.01712 0.83018 0.0
Cd268 Cd 0.60417 0.0195 0.78849 0.0
O269 O 0.62471 1.00327 0.84485 0.0
Cd270 Cd 0.64776 0.99527 0.8101 0.0
C271 C 0.65807 0.05219 0.80488 0.0
O272 O 0.61756 0.98569 0.77448 0.0
O273 O 0.6506 0.99081 0.76428 0.0
O274 O 0.65313 0.95752 0.82018 0.0
C275 C 0.62962 0.98752 0.75707 0.0
O276 O 0.63752 0.04948 0.79516 0.0
C277 C 0.67425 0.96299 0.82672 0.0
O278 O 0.66605 0.03585 0.8134 0.0
O279 O 0.68317 0.98342 0.82524 0.0
C280 C 0.77703 0.58304 0.99082 0.0
O281 O 0.75983 0.57501 1.00011 0.0
Cd282 Cd 0.72416 0.58689 1.00163 0.0
O283 O 0.77749 0.60071 0.97997 0.0
Cd284 Cd 0.7516 0.62796 0.97161 0.0
C285 C 0.74439 0.64087 0.03503 0.0
O286 O 0.71833 0.59906 0.962 0.0
O287 O 0.71287 0.6326 0.95696 0.0
O288 O 0.76656 0.64176 0.93522 0.0
C289 C 0.70437 0.61204 0.95792 0.0
O290 O 0.73259 0.62118 0.03485 0.0
C291 C 0.77065 0.66282 0.94606 0.0
O292 O 0.75277 0.64564 0.01552 0.0
O293 O 0.7668 0.66707 0.96876 0.0
C294 C 1.00074 0.6427 0.87172 0.0
O295 O 1.01231 0.63149 0.85811 0.0
Cd296 Cd 1.00054 0.61485 0.81449 0.0
O297 O 0.98321 0.64897 0.86157 0.0
Cd298 Cd 0.96314 0.64736 0.81735 0.0
C299 C 0.94624 0.59141 0.82069 0.0
O300 O 0.99336 0.64449 0.79155 0.0
O301 O 0.95959 0.63291 0.77209 0.0
O302 O 0.96001 0.68846 0.82286 0.0
C303 C 0.98038 0.63677 0.77078 0.0
O304 O 0.96586 0.58858 0.81676 0.0
C305 C 0.93904 0.68458 0.81498 0.0
O306 O 0.94086 0.61128 0.82256 0.0
O307 O 0.92939 0.66362 0.80935 0.0
C308 C 0.77018 0.4751 0.56722 0.0
O309 O 0.75568 0.48188 0.55256 0.0
Cd310 Cd 0.71822 0.46272 0.54147 0.0
O311 O 0.76515 0.45702 0.57694 0.0
Cd312 Cd 0.73192 0.42677 0.57838 0.0
C313 C 0.72931 0.40996 0.51405 0.0
O314 O 0.71459 0.45981 0.58443 0.0
O315 O 0.69173 0.42914 0.58595 0.0
O316 O 0.75822 0.42406 0.61568 0.0
C317 C 0.69558 0.45097 0.5886 0.0
O318 O 0.72322 0.42909 0.51191 0.0
C319 C 0.74747 0.40535 0.61994 0.0
O320 O 0.73307 0.40439 0.53588 0.0
O321 O 0.72947 0.39649 0.60494 0.0
C322 C 0.65531 0.57396 0.38497 0.0
O323 O 0.64629 0.58416 0.36856 0.0
Cd324 Cd 0.6557 0.58857 0.32793 0.0
O325 O 0.67242 0.56461 0.38033 0.0
Cd326 Cd 0.6957 0.56104 0.34057 0.0
C327 C 0.70954 0.6215 0.33976 0.0
O328 O 0.66172 0.55246 0.30757 0.0
O329 O 0.69223 0.5635 0.29377 0.0
O330 O 0.69786 0.51878 0.34218 0.0
C331 C 0.67129 0.55608 0.28865 0.0
O332 O 0.6885 0.61884 0.33267 0.0
C333 C 0.71866 0.51946 0.34145 0.0
O334 O 0.71799 0.6042 0.34574 0.0
O335 O 0.72959 0.53948 0.34127 0.0
Nd336 Nd 0.06437 0.09565 0.08523 0.0
Nd337 Nd 0.03417 0.05661 0.06593 0.0
C338 C 0.08363 0.13967 0.09793 0.0
C339 C 0.08265 0.1577 0.08199 0.0
C340 C 0.08931 0.18117 0.09229 0.0
C341 C 0.0874 0.19795 0.07683 0.0
C342 C 0.07865 0.19155 0.05079 0.0
C343 C 0.07202 0.16791 0.0407 0.0
C344 C 0.07412 0.15126 0.05605 0.0
C345 C 0.07735 0.07377 0.04148 0.0
C346 C 0.01858 0.09952 0.04835 0.0
C347 C 1.01554 1.01265 0.05045 0.0
C348 C 1.01848 0.99204 0.06198 0.0
C349 C 0.03987 0.98645 0.06744 0.0
C350 C 0.04307 0.96947 0.08211 0.0
C351 C 0.02502 0.95767 0.09164 0.0
C352 C 1.00342 0.96225 0.08493 0.0
C353 C 1.0002 0.97931 0.07031 0.0
C354 C 0.02015 0.07866 0.10878 0.0
C355 C 0.07915 0.0532 0.10464 0.0
O356 O 0.06465 0.13137 0.10479 0.0
O357 O 0.0943 0.1234 0.08993 0.0
O358 O 0.09003 0.08077 0.0631 0.0
O359 O 0.05742 0.07686 0.04353 0.0
O360 O 0.03458 0.10959 0.06698 0.0
O361 O 1.0159 0.07721 0.04055 0.0
O362 O 0.03261 0.02277 0.04131 0.0
O363 O 1.0058 0.02747 0.06327 0.0
O364 O 1.00786 0.07094 0.08697 0.0
O365 O 0.04039 0.07591 0.10758 0.0
O366 O 0.06339 0.04287 0.08583 0.0
O367 O 0.082 0.07562 0.11185 0.0
H368 H 0.09592 0.18652 0.11225 0.0
H369 H 0.09295 0.21591 0.08528 0.0
H370 H 0.06477 0.16217 0.02098 0.0
H371 H 0.06877 0.13323 0.04767 0.0
H372 H 0.05435 0.99579 0.06128 0.0
H373 H 0.05982 0.96597 0.08655 0.0
H374 H 0.98918 0.95341 0.09199 0.0
H375 H 0.98356 0.98325 0.0664 0.0
Nd376 Nd 0.30633 0.85763 0.3395 0.0
Nd377 Nd 0.30327 0.80471 0.3098 0.0
C378 C 0.29725 0.89768 0.35861 0.0
C379 C 0.30538 0.92067 0.35291 0.0
C380 C 0.3073 0.92339 0.32777 0.0
C381 C 0.31905 0.94375 0.32261 0.0
C382 C 0.32922 0.96179 0.34249 0.0
C383 C 0.32613 0.95964 0.36753 0.0
C384 C 0.31434 0.93916 0.3727 0.0
C385 C 0.34842 0.84954 0.32947 0.0
C386 C 0.29951 0.84663 0.2769 0.0
C387 C 0.31083 0.76438 0.28876 0.0
C388 C 0.29668 0.74145 0.28133 0.0
C389 C 0.30618 0.72172 0.28261 0.0
C390 C 0.29243 0.70005 0.27926 0.0
C391 C 0.26894 0.69785 0.27468 0.0
C392 C 0.25959 0.71765 0.27253 0.0
C393 C 0.27333 0.73924 0.27585 0.0
C394 C 0.26115 0.81302 0.31999 0.0
C395 C 0.31638 0.81809 0.37203 0.0
O396 O 0.28375 0.88317 0.3403 0.0
O397 O 0.31266 0.88825 0.37005 0.0
O398 O 0.34469 0.86935 0.34 0.0
O399 O 0.32985 0.83591 0.32358 0.0
O400 O 0.2989 0.86114 0.29783 0.0
O401 O 0.30314 0.82528 0.27684 0.0
O402 O 0.31494 0.77197 0.31325 0.0
O403 O 0.30601 0.78018 0.27558 0.0
O404 O 0.26466 0.79324 0.30923 0.0
O405 O 0.27987 0.82629 0.32578 0.0
O406 O 0.31881 0.8051 0.35072 0.0
O407 O 0.30771 0.83709 0.37231 0.0
H408 H 0.30064 0.90939 0.31212 0.0
H409 H 0.32088 0.94507 0.30311 0.0
H410 H 0.3339 0.97324 0.38323 0.0
H411 H 0.31323 0.93733 0.39223 0.0
H412 H 0.32418 0.72316 0.28702 0.0
H413 H 0.30015 0.6851 0.28073 0.0
H414 H 0.24159 0.71667 0.26943 0.0
H415 H 0.26565 0.75431 0.27507 0.0
Nd416 Nd 0.56978 0.08596 0.57373 0.0
Nd417 Nd 0.52779 0.06183 0.57951 0.0
C418 C 0.6083 0.10403 0.56118 0.0
C419 C 0.62988 0.09731 0.56816 0.0
C420 C 0.65014 0.11242 0.56912 0.0
C421 C 0.67024 0.10713 0.58009 0.0
C422 C 0.67015 0.08677 0.59037 0.0
C423 C 0.64974 0.07151 0.58864 0.0
C424 C 0.62987 0.0767 0.57761 0.0
C425 C 0.57347 0.06477 0.61615 0.0
C426 C 0.55475 0.0331 0.54505 0.0
C427 C 0.48801 0.04494 0.59006 0.0
C428 C 0.46661 0.04972 0.57864 0.0
C429 C 0.44606 0.03646 0.58078 0.0
C430 C 0.42611 0.04036 0.56774 0.0
C431 C 0.42658 0.05739 0.55217 0.0
C432 C 0.44737 0.07053 0.55024 0.0
C433 C 0.46707 0.06688 0.5635 0.0
C434 C 0.52534 0.08285 0.53703 0.0
C435 C 0.54318 0.11386 0.60895 0.0
O436 O 0.59346 0.08835 0.54565 0.0
O437 O 0.59997 0.11337 0.58052 0.0
O438 O 0.58361 0.08518 0.61498 0.0
O439 O 0.56186 0.05558 0.59509 0.0
O440 O 0.56422 0.05384 0.54238 0.0
O441 O 0.54237 0.03086 0.56317 0.0
O442 O 0.50139 0.06258 0.60445 0.0
O443 O 0.4984 0.03351 0.57413 0.0
O444 O 0.51506 0.0624 0.53765 0.0
O445 O 0.53601 0.09206 0.55845 0.0
O446 O 0.53488 0.09299 0.61236 0.0
O447 O 0.55421 0.1162 0.58977 0.0
H448 H 0.65032 0.12858 0.56225 0.0
H449 H 0.68572 0.11915 0.58101 0.0
H450 H 0.64886 0.05599 0.5969 0.0
H451 H 0.61427 0.06509 0.57758 0.0
H452 H 0.44546 0.02303 0.59226 0.0
H453 H 0.41038 0.03011 0.5699 0.0
H454 H 0.44856 0.08341 0.53806 0.0
H455 H 0.48281 0.07723 0.56152 0.0
Nd456 Nd 0.30937 0.33189 0.84957 0.0
Nd457 Nd 0.29172 0.32585 0.80193 0.0
C458 C 0.31776 0.33572 0.8995 0.0
C459 C 0.31437 0.35273 0.9207 0.0
C460 C 0.30608 0.34525 0.94174 0.0
C461 C 0.30192 0.3612 0.96158 0.0
C462 C 0.30612 0.38494 0.96075 0.0
C463 C 0.31428 0.39231 0.93946 0.0
C464 C 0.31822 0.37634 0.91954 0.0
C465 C 0.32244 0.37262 0.83075 0.0
C466 C 0.25867 0.34225 0.83754 0.0
C467 C 0.28218 0.32147 0.75193 0.0
C468 C 0.28261 0.30357 0.73012 0.0
C469 C 0.26344 0.29622 0.71182 0.0
C470 C 0.26277 0.2781 0.69194 0.0
C471 C 0.28134 0.26713 0.68993 0.0
C472 C 0.30072 0.2748 0.70798 0.0
C473 C 0.30131 0.29279 0.72805 0.0
C474 C 0.27884 0.28514 0.82094 0.0
C475 C 0.3426 0.31602 0.81433 0.0
O476 O 0.29953 0.32343 0.88587 0.0
O477 O 0.33276 0.34265 0.88569 0.0
O478 O 0.33558 0.36219 0.84356 0.0
O479 O 0.30256 0.36117 0.8271 0.0
O480 O 0.2724 0.33444 0.85341 0.0
O481 O 0.26456 0.34506 0.81547 0.0
O482 O 0.30142 0.33212 0.76485 0.0
O483 O 0.26729 0.31625 0.76647 0.0
O484 O 0.26566 0.2956 0.80828 0.0
O485 O 0.29868 0.29659 0.82431 0.0
O486 O 0.32915 0.32435 0.7986 0.0
O487 O 0.33618 0.31243 0.83595 0.0
H488 H 0.30267 0.32705 0.94274 0.0
H489 H 0.29529 0.3549 0.97749 0.0
H490 H 0.318 0.41045 0.93832 0.0
H491 H 0.3243 0.3825 0.90327 0.0
H492 H 0.24885 0.30429 0.71314 0.0
H493 H 0.24773 0.27269 0.67808 0.0
H494 H 0.3152 0.26653 0.70692 0.0
H495 H 0.31623 0.29798 0.7421 0.0
Nd496 Nd 0.05187 0.09747 0.58986 0.0
Nd497 Nd 0.0565 0.05007 0.56659 0.0
C498 C 0.03785 0.13588 0.60655 0.0
C499 C 0.03601 0.15701 0.59633 0.0
C500 C 0.03585 0.17748 0.61282 0.0
C501 C 0.03735 0.19834 0.60376 0.0
C502 C 0.03906 0.19899 0.57806 0.0
C503 C 0.03826 0.17822 0.56142 0.0
C504 C 0.03683 0.15741 0.5705 0.0
C505 C 0.08912 0.09712 0.5659 0.0
C506 C 0.02961 0.07765 0.53 0.0
C507 C 0.06795 1.01007 0.55095 0.0
C508 C 0.06699 0.9892 0.56243 0.0
C509 C 0.06653 0.96778 0.54741 0.0
C510 C 0.06254 0.94757 0.55766 0.0
C511 C 0.05889 0.94851 0.58308 0.0
C512 C 0.06007 0.97016 0.59822 0.0
C513 C 0.06399 0.99029 0.58795 0.0
C514 C 0.01954 0.05164 0.59074 0.0
C515 C 0.08107 0.07069 0.62544 0.0
O516 O 0.02429 0.11709 0.59465 0.0
O517 O 0.05837 0.13267 0.61234 0.0
O518 O 0.08831 0.1113 0.58631 0.0
O519 O 0.0702 0.08475 0.55775 0.0
O520 O 0.02777 0.09107 0.5513 0.0
O521 O 0.04329 0.06261 0.53037 0.0
O522 O 0.08246 0.02817 0.56295 0.0
O523 O 0.04838 1.01502 0.54365 0.0
O524 O 0.01948 0.03751 0.57003 0.0
O525 O 0.03878 0.06308 0.59881 0.0
O526 O 0.08114 0.05629 0.60426 0.0
O527 O 0.06833 0.08663 0.62585 0.0
H528 H 0.03536 0.17745 0.63284 0.0
H529 H 0.03771 0.21403 0.61698 0.0
H530 H 0.03988 0.17816 0.54162 0.0
H531 H 0.03727 0.14178 0.55756 0.0
H532 H 0.0686 0.96664 0.5276 0.0
H533 H 0.06197 0.93118 0.54559 0.0
H534 H 0.05699 0.97152 0.61772 0.0
H535 H 0.06386 1.00667 0.59971 0.0
Nd536 Nd 0.3238 0.83951 0.83333 0.0
Nd537 Nd 0.27725 0.8128 0.827 0.0
C538 C 0.36615 0.8568 0.83186 0.0
C539 C 0.38454 0.87249 0.84887 0.0
C540 C 0.40444 0.87981 0.83966 0.0
C541 C 0.42342 0.89145 0.85646 0.0
C542 C 0.42273 0.89581 0.88273 0.0
C543 C 0.4023 0.88967 0.89167 0.0
C544 C 0.38331 0.87811 0.87483 0.0
C545 C 0.30577 0.84221 0.87806 0.0
C546 C 0.31698 0.78222 0.82873 0.0
C547 C 0.23503 0.79475 0.82754 0.0
C548 C 0.21756 0.77723 0.81099 0.0
C549 C 0.2038 0.76131 0.82161 0.0
C550 C 0.18513 0.74683 0.80661 0.0
C551 C 0.17971 0.74838 0.78084 0.0
C552 C 0.19458 0.7632 0.76995 0.0
C553 C 0.2134 0.77735 0.78483 0.0
C554 C 0.29552 0.8088 0.78265 0.0
C555 C 0.28444 0.87008 0.83083 0.0
O556 O 0.35964 0.83731 0.83933 0.0
O557 O 0.34945 0.86575 0.82263 0.0
O558 O 0.32049 0.85837 0.87304 0.0
O559 O 0.30313 0.82445 0.86132 0.0
O560 O 0.3296 0.80137 0.82511 0.0
O561 O 0.29618 0.78262 0.83337 0.0
O562 O 0.24127 0.81359 0.81863 0.0
O563 O 0.25175 0.78753 0.83947 0.0
O564 O 0.2811 0.79291 0.78861 0.0
O565 O 0.29801 0.82721 0.79856 0.0
O566 O 0.27187 0.85121 0.83526 0.0
O567 O 0.30499 0.86927 0.82566 0.0
H568 H 0.40563 0.87549 0.81966 0.0
H569 H 0.43897 0.89571 0.84902 0.0
H570 H 0.40124 0.89301 0.91178 0.0
H571 H 0.36798 0.87257 0.88221 0.0
H572 H 0.20695 0.76073 0.8417 0.0
H573 H 0.17439 0.73521 0.81551 0.0
H574 H 0.191 0.76513 0.7503 0.0
H575 H 0.224 0.78923 0.77606 0.0
Nd576 Nd 0.52717 0.06394 0.05768 0.0
Nd577 Nd 0.57734 0.07494 0.07925 0.0
C578 C 0.48446 0.06486 0.04377 0.0
C579 C 0.46251 0.05724 0.05107 0.0
C580 C 0.44847 0.07336 0.05548 0.0
C581 C 0.42725 0.06657 0.06178 0.0
C582 C 0.41965 0.04346 0.06359 0.0
C583 C 0.43401 0.02744 0.0598 0.0
C584 C 0.45532 0.03429 0.05366 0.0
C585 C 0.54321 0.02916 0.07868 0.0
C586 C 0.54338 0.0903 0.1164 0.0
C587 C 0.62009 0.07441 0.09306 0.0
C588 C 0.64013 0.08434 0.08358 0.0
C589 C 0.66138 0.08249 0.09506 0.0
C590 C 0.68048 0.09353 0.08699 0.0
C591 C 0.67841 0.1066 0.06746 0.0
C592 C 0.65701 0.10777 0.05553 0.0
C593 C 0.63798 0.09667 0.06352 0.0
C594 C 0.56176 0.11027 0.05907 0.0
C595 C 0.56111 0.05078 0.01948 0.0
O596 O 0.49789 0.08124 0.05997 0.0
O597 O 0.49474 0.04903 0.0334 0.0
O598 O 0.52708 0.02546 0.05976 0.0
O599 O 0.54848 0.05036 0.08703 0.0
O600 O 0.52908 0.08828 0.09546 0.0
O601 O 0.56218 0.08202 0.11602 0.0
O602 O 0.60672 0.0577 0.07718 0.0
O603 O 0.60946 0.0895 0.10417 0.0
O604 O 0.57835 0.11346 0.07741 0.0
O605 O 0.55601 0.08909 0.05044 0.0
O606 O 0.57579 0.05219 0.04005 0.0
O607 O 0.54217 0.05856 0.02088 0.0
H608 H 0.45387 0.0912 0.0538 0.0
H609 H 0.41669 0.07936 0.06496 0.0
H610 H 0.42853 1.00946 0.06075 0.0
H611 H 0.46597 0.02157 0.05057 0.0
H612 H 0.66318 0.073 0.11059 0.0
H613 H 0.69682 0.09258 0.09665 0.0
H614 H 0.65501 0.11755 0.04029 0.0
H615 H 0.62156 0.09812 0.05445 0.0
Nd616 Nd 0.29569 0.32099 0.30386 0.0
Nd617 Nd 0.3307 0.35235 0.3488 0.0
C618 C 0.26686 0.29736 0.26542 0.0
C619 C 0.24243 0.29239 0.26638 0.0
C620 C 0.23001 0.31028 0.26591 0.0
C621 C 0.21139 0.31027 0.27858 0.0
C622 C 0.20473 0.29226 0.29166 0.0
C623 C 0.21479 0.27264 0.28839 0.0
C624 C 0.23339 0.27262 0.27563 0.0
C625 C 0.28986 0.31281 0.35196 0.0
C626 C 0.28192 0.36641 0.33477 0.0
C627 C 0.36143 0.36804 0.38844 0.0
C628 C 0.38557 0.37095 0.38586 0.0
C629 C 0.39858 0.35598 0.39551 0.0
C630 C 0.41666 0.35022 0.38375 0.0
C631 C 0.42157 0.35877 0.3616 0.0
C632 C 0.4108 0.37662 0.35482 0.0
C633 C 0.39331 0.38291 0.36712 0.0
C634 C 0.33656 0.36746 0.3035 0.0
C635 C 0.34556 0.30787 0.31525 0.0
O636 O 0.27569 0.31908 0.26614 0.0
O637 O 0.27904 0.28742 0.28065 0.0
O638 O 0.27365 0.31267 0.33404 0.0
O639 O 0.30831 0.31749 0.34398 0.0
O640 O 0.2799 0.35282 0.31256 0.0
O641 O 0.29827 0.36693 0.35358 0.0
O642 O 0.35097 0.34658 0.38352 0.0
O643 O 0.3499 0.38169 0.37772 0.0
O644 O 0.34875 0.37675 0.32493 0.0
O645 O 0.32284 0.35067 0.30688 0.0
O646 O 0.35028 0.32455 0.3352 0.0
O647 O 0.32672 0.30428 0.2991 0.0
H648 H 0.23616 0.3256 0.2585 0.0
H649 H 0.2039 0.32559 0.28047 0.0
H650 H 0.20955 0.25818 0.29761 0.0
H651 H 0.24224 0.25828 0.27578 0.0
H652 H 0.39332 0.34682 0.41029 0.0
H653 H 0.42538 0.33751 0.39076 0.0
H654 H 0.41401 0.38422 0.33834 0.0
H655 H 0.38417 0.39515 0.35968 0.0
Nd656 Nd 0.54897 0.60162 0.09122 0.0
Nd657 Nd 0.55277 0.55035 0.06715 0.0
C658 C 0.53446 0.63852 0.11069 0.0
C659 C 0.53363 0.66006 0.1008 0.0
C660 C 0.53178 0.65983 0.07454 0.0
C661 C 0.53516 0.68044 0.06511 0.0
C662 C 0.54067 0.70169 0.08176 0.0
C663 C 0.54149 0.70189 0.10803 0.0
C664 C 0.53803 0.6812 0.11746 0.0
C665 C 0.58162 0.6025 0.05991 0.0
C666 C 0.528 0.58053 0.03138 0.0
C667 C 0.56475 0.51075 0.05106 0.0
C668 C 0.56553 0.48981 0.06201 0.0
C669 C 0.56866 0.46962 0.047 0.0
C670 C 0.56714 0.44906 0.05669 0.0
C671 C 0.56237 0.44841 0.08153 0.0
C672 C 0.55991 0.46893 0.09671 0.0
C673 C 0.56143 0.48944 0.087 0.0
C674 C 0.51565 0.5556 0.08965 0.0
C675 C 0.57824 0.57252 0.12615 0.0
O676 O 0.5209 0.62004 0.09771 0.0
O677 O 0.55479 0.63496 0.11745 0.0
O678 O 0.57671 0.62103 0.07214 0.0
O679 O 0.56971 0.58536 0.0653 0.0
O680 O 0.52497 0.59345 0.0526 0.0
O681 O 0.54163 0.56535 0.03186 0.0
O682 O 0.57914 0.52915 0.06256 0.0
O683 O 0.54458 0.51497 0.04509 0.0
O684 O 0.51513 0.54047 0.06948 0.0
O685 O 0.53526 0.56617 0.09783 0.0
O686 O 0.5736 0.55479 0.10707 0.0
O687 O 0.57051 0.59196 0.12497 0.0
H688 H 0.52883 0.6437 0.06132 0.0
H689 H 0.53472 0.67962 0.04484 0.0
H690 H 0.54549 0.718 0.12132 0.0
H691 H 0.53976 0.6817 0.13779 0.0
H692 H 0.57178 0.46965 0.02763 0.0
H693 H 0.5694 0.43362 0.04463 0.0
H694 H 0.55591 0.46899 0.11576 0.0
H695 H 0.55875 0.50487 0.09876 0.0
Nd696 Nd 0.82647 0.34138 0.33069 0.0
Nd697 Nd 0.7807 0.31441 0.32765 0.0
C698 C 0.86851 0.35869 0.32785 0.0
C699 C 0.88642 0.3767 0.34263 0.0
C700 C 0.90657 0.38181 0.33306 0.0
C701 C 0.92544 0.39504 0.34885 0.0
C702 C 0.92441 0.40322 0.37451 0.0
C703 C 0.90366 0.39951 0.38346 0.0
C704 C 0.88477 0.38633 0.36759 0.0
C705 C 0.80946 0.3477 0.37595 0.0
C706 C 0.82058 0.28424 0.32934 0.0
C707 C 0.73897 0.29695 0.33149 0.0
C708 C 0.72178 0.27724 0.31893 0.0
C709 C 0.70047 0.27503 0.32627 0.0
C710 C 0.68256 0.2595 0.31131 0.0
C711 C 0.68571 0.24599 0.28868 0.0
C712 C 0.70753 0.24704 0.28248 0.0
C713 C 0.72546 0.26262 0.29751 0.0
C714 C 0.79764 0.30789 0.28248 0.0
C715 C 0.78661 0.37133 0.32798 0.0
O716 O 0.86259 0.3413 0.33919 0.0
O717 O 0.85146 0.36525 0.31573 0.0
O718 O 0.82283 0.36337 0.36822 0.0
O719 O 0.80725 0.32869 0.36116 0.0
O720 O 0.83277 0.30325 0.32472 0.0
O721 O 0.7999 0.28458 0.33438 0.0
O722 O 0.74436 0.3123 0.31729 0.0
O723 O 0.7563 0.29266 0.34553 0.0
O724 O 0.78427 0.29229 0.29034 0.0
O725 O 0.79997 0.32706 0.29708 0.0
O726 O 0.77452 0.3526 0.33334 0.0
O727 O 0.80709 0.37066 0.32245 0.0
H728 H 0.90811 0.37438 0.31386 0.0
H729 H 0.9412 0.39734 0.34143 0.0
H730 H 0.90232 0.40579 0.40305 0.0
H731 H 0.86926 0.38252 0.37525 0.0
H732 H 0.69738 0.28632 0.3427 0.0
H733 H 0.66598 0.25944 0.31652 0.0
H734 H 0.71054 0.23668 0.26536 0.0
H735 H 0.74191 0.26416 0.29163 0.0
Nd736 Nd 0.02793 0.56714 0.54859 0.0
Nd737 Nd 0.07627 0.57729 0.57797 0.0
C738 C 0.98557 0.56672 0.53156 0.0
C739 C 0.96484 0.56186 0.54226 0.0
C740 C 0.94465 0.56497 0.52927 0.0
C741 C 0.92467 0.55924 0.53888 0.0
C742 C 0.92471 0.55034 0.56164 0.0
C743 C 0.94517 0.54789 0.57495 0.0
C744 C 0.96511 0.5536 0.56529 0.0
C745 C 0.04721 0.52944 0.5553 0.0
C746 C 0.03621 0.57571 0.6113 0.0
C747 C 0.11841 0.57719 0.59545 0.0
C748 C 0.1398 0.58698 0.58828 0.0
C749 C 0.14228 0.58654 0.56264 0.0
C750 C 0.16128 0.59926 0.55612 0.0
C751 C 0.17786 0.6128 0.57515 0.0
C752 C 0.1758 0.61237 0.60076 0.0
C753 C 0.1569 0.59949 0.60727 0.0
C754 C 0.05771 0.61555 0.57137 0.0
C755 C 0.06771 0.56988 0.51501 0.0
O756 O 0.99946 0.58545 0.54292 0.0
O757 O 0.99549 0.54909 0.52635 0.0
O758 O 0.03381 0.53052 0.53508 0.0
O759 O 0.04839 0.54718 0.57164 0.0
O760 O 0.023 0.57642 0.59025 0.0
O761 O 0.0569 0.57189 0.61102 0.0
O762 O 0.1058 0.56007 0.57929 0.0
O763 O 0.10712 0.59243 0.60494 0.0
O764 O 0.07236 0.61477 0.59061 0.0
O765 O 0.05577 0.59746 0.55529 0.0
O766 O 0.08123 0.56884 0.53579 0.0
O767 O 0.04697 0.57335 0.51577 0.0
H768 H 0.94426 0.57136 0.51147 0.0
H769 H 0.90913 0.56098 0.528 0.0
H770 H 0.94572 0.54129 0.59262 0.0
H771 H 0.98067 0.55115 0.57553 0.0
H772 H 0.12915 0.57718 0.54764 0.0
H773 H 0.16248 0.59942 0.53625 0.0
H774 H 0.18855 0.62246 0.61575 0.0
H775 H 0.15519 0.60009 0.62713 0.0
Nd776 Nd 0.81305 0.83022 0.35042 0.0
Nd777 Nd 0.79684 0.82434 0.30236 0.0
C778 C 0.82062 0.83334 0.40039 0.0
C779 C 0.81829 0.85049 0.42203 0.0
C780 C 0.81065 0.84314 0.44345 0.0
C781 C 0.80786 0.85923 0.46395 0.0
C782 C 0.8128 0.883 0.46343 0.0
C783 C 0.82024 0.89026 0.44174 0.0
C784 C 0.82284 0.87414 0.42117 0.0
C785 C 0.82618 0.87159 0.33269 0.0
C786 C 0.7618 0.83878 0.33664 0.0
C787 C 0.78926 0.82044 0.25221 0.0
C788 C 0.78276 0.80169 0.23028 0.0
C789 C 0.7929 0.80337 0.20852 0.0
C790 C 0.78763 0.78546 0.18772 0.0
C791 C 0.77197 0.76554 0.18824 0.0
C792 C 0.76181 0.76394 0.21015 0.0
C793 C 0.76724 0.78183 0.23105 0.0
C794 C 0.78334 0.78312 0.3202 0.0
C795 C 0.84825 0.81764 0.31659 0.0
O796 O 0.80196 0.82243 0.38646 0.0
O797 O 0.83614 0.83943 0.38686 0.0
O798 O 0.83899 0.86161 0.34649 0.0
O799 O 0.80653 0.85959 0.32781 0.0
O800 O 0.77569 0.83177 0.3531 0.0
O801 O 0.76802 0.84167 0.31471 0.0
O802 O 0.80903 0.82187 0.26502 0.0
O803 O 0.7742 0.82388 0.26682 0.0
O804 O 0.77075 0.79314 0.30627 0.0
O805 O 0.80306 0.79494 0.32491 0.0
O806 O 0.83525 0.8272 0.30169 0.0
O807 O 0.84072 0.81176 0.3369 0.0
H808 H 0.80674 0.82493 0.44426 0.0
H809 H 0.80169 0.85301 0.48014 0.0
H810 H 0.82447 0.9084 0.44079 0.0
H811 H 0.82849 0.88019 0.40463 0.0
H812 H 0.8051 0.81848 0.20773 0.0
H813 H 0.79613 0.78709 0.1714 0.0
H814 H 0.74953 0.74897 0.2111 0.0
H815 H 0.75937 0.7801 0.24781 0.0
Nd816 Nd 0.80471 0.35083 0.83788 0.0
Nd817 Nd 0.79818 0.30515 0.80934 0.0
C818 C 0.80699 0.39147 0.86656 0.0
C819 C 0.81704 0.41508 0.86433 0.0
C820 C 0.81303 0.42349 0.84151 0.0
C821 C 0.82525 0.4445 0.83842 0.0
C822 C 0.84188 0.45727 0.85793 0.0
C823 C 0.8452 0.44931 0.88109 0.0
C824 C 0.8328 0.42843 0.88429 0.0
C825 C 0.84449 0.34035 0.82301 0.0
C826 C 0.79747 0.34706 0.77809 0.0
C827 C 0.79485 0.26422 0.78076 0.0
C828 C 0.78058 0.24188 0.78081 0.0
C829 C 0.789 0.22137 0.77602 0.0
C830 C 0.77601 0.20032 0.77802 0.0
C831 C 0.7544 0.19948 0.78484 0.0
C832 C 0.74605 0.22011 0.78945 0.0
C833 C 0.75899 0.24105 0.78748 0.0
C834 C 0.75824 0.31546 0.82403 0.0
C835 C 0.80743 0.30943 0.86943 0.0
O836 O 0.78946 0.38126 0.85008 0.0
O837 O 0.82125 0.37786 0.87053 0.0
O838 O 0.83759 0.35956 0.82119 0.0
O839 O 0.83012 0.32712 0.83153 0.0
O840 O 0.79297 0.35863 0.79899 0.0
O841 O 0.80494 0.32755 0.77853 0.0
O842 O 0.81001 0.27189 0.8007 0.0
O843 O 0.78456 0.28033 0.77383 0.0
O844 O 0.76527 0.29633 0.8256 0.0
O845 O 0.77266 0.32883 0.81571 0.0
O846 O 0.81095 0.29763 0.84812 0.0
O847 O 0.79992 0.3289 0.86926 0.0
H848 H 0.80113 0.41344 0.82568 0.0
H849 H 0.8225 0.45015 0.8203 0.0
H850 H 0.85779 0.45895 0.8965 0.0
H851 H 0.8362 0.42224 0.902 0.0
H852 H 0.8057 0.2217 0.77106 0.0
H853 H 0.78284 0.18471 0.77413 0.0
H854 H 0.72966 0.22018 0.79518 0.0
H855 H 0.75221 0.25666 0.79157 0.0
Nd856 Nd 0.79596 0.81848 0.80964 0.0
Nd857 Nd 0.82171 0.83683 0.86131 0.0
C858 C 0.76714 0.81297 0.7678 0.0
C859 C 0.74286 0.81358 0.76686 0.0
C860 C 0.73566 0.83488 0.77103 0.0
C861 C 0.71584 0.83656 0.7811 0.0
C862 C 0.70292 0.81695 0.78716 0.0
C863 C 0.70811 0.79523 0.77881 0.0
C864 C 0.72787 0.79353 0.7686 0.0
C865 C 0.79226 0.7875 0.842 0.0
C866 C 0.77419 0.85097 0.85266 0.0
C867 C 0.85101 0.84354 0.9029 0.0
C868 C 0.87562 0.84624 0.90328 0.0
C869 C 0.88599 0.82695 0.90418 0.0
C870 C 0.90532 0.82545 0.89301 0.0
C871 C 0.91441 0.84317 0.88062 0.0
C872 C 0.90659 0.86414 0.8843 0.0
C873 C 0.88734 0.86569 0.89556 0.0
C874 C 0.82717 0.86676 0.82781 0.0
C875 C 0.84359 0.80461 0.81792 0.0
O876 O 0.78091 0.83246 0.77696 0.0
O877 O 0.77374 0.79567 0.77693 0.0
O878 O 0.79356 0.78223 0.81811 0.0
O879 O 0.79154 0.80868 0.84836 0.0
O880 O 0.77459 0.84269 0.82863 0.0
O881 O 0.78937 0.84817 0.87089 0.0
O882 O 0.83947 0.82314 0.89256 0.0
O883 O 0.8417 0.86005 0.8953 0.0
O884 O 0.82551 0.87296 0.85144 0.0
O885 O 0.82697 0.84542 0.82252 0.0
O886 O 0.84304 0.81264 0.84205 0.0
O887 O 0.82841 0.80758 0.79976 0.0
H888 H 0.74652 0.85064 0.76933 0.0
H889 H 0.71227 0.85359 0.78698 0.0
H890 H 0.69808 0.77972 0.78247 0.0
H891 H 0.73257 0.77674 0.76482 0.0
H892 H 0.87765 0.81188 0.91053 0.0
H893 H 0.91102 0.8091 0.89103 0.0
H894 H 0.91386 0.87854 0.87606 0.0
H895 H 0.88029 0.88121 0.8954 0.0
Nd896 Nd 0.56321 0.59733 0.58289 0.0
Nd897 Nd 0.53429 0.55499 0.56906 0.0
C898 C 0.58861 0.63866 0.59681 0.0
C899 C 0.58663 0.65949 0.58539 0.0
C900 C 0.56542 0.665 0.57862 0.0
C901 C 0.56283 0.68159 0.56328 0.0
C902 C 0.58142 0.69328 0.55452 0.0
C903 C 0.60283 0.68872 0.56243 0.0
C904 C 0.60538 0.67185 0.57757 0.0
C905 C 0.56481 0.57886 0.53264 0.0
C906 C 0.51436 0.59946 0.55563 0.0
C907 C 0.50967 0.51352 0.55317 0.0
C908 C 0.51263 0.49209 0.56292 0.0
C909 C 0.53419 0.48688 0.56808 0.0
C910 C 0.53786 0.46976 0.58234 0.0
C911 C 0.52003 0.45729 0.5916 0.0
C912 C 0.49822 0.46146 0.5851 0.0
C913 C 0.49458 0.47882 0.57103 0.0
C914 C 0.53151 0.57356 0.61909 0.0
C915 C 0.58245 0.55285 0.59785 0.0
O916 O 0.57244 0.63114 0.60899 0.0
O917 O 0.59444 0.62195 0.58203 0.0
O918 O 0.56061 0.5991 0.54035 0.0
O919 O 0.56512 0.56775 0.55097 0.0
O920 O 0.53175 0.61117 0.5715 0.0
O921 O 0.51252 0.57702 0.54854 0.0
O922 O 0.52527 0.52234 0.54101 0.0
O923 O 0.50375 0.52919 0.56928 0.0
O924 O 0.53472 0.5529 0.61137 0.0
O925 O 0.53234 0.58476 0.60085 0.0
O926 O 0.56525 0.54112 0.58179 0.0
O927 O 0.58454 0.57539 0.60442 0.0
H928 H 0.55063 0.65587 0.58438 0.0
H929 H 0.54618 0.68499 0.55787 0.0
H930 H 0.61747 0.69741 0.55594 0.0
H931 H 0.62187 0.66777 0.58226 0.0
H932 H 0.54849 0.49671 0.56211 0.0
H933 H 0.55478 0.46666 0.5867 0.0
H934 H 0.48417 0.45213 0.59203 0.0
H935 H 0.47785 0.48264 0.56756 0.0
Nd936 Nd 0.07223 0.59489 0.06741 0.0
Nd937 Nd 0.02266 0.57033 0.07838 0.0
C938 C 0.10689 0.61664 0.05109 0.0
C939 C 0.12942 0.61084 0.05362 0.0
C940 C 0.14835 0.62823 0.06184 0.0
C941 C 0.16871 0.6227 0.0716 0.0
C942 C 0.1703 0.59972 0.07352 0.0
C943 C 0.15166 0.58227 0.06345 0.0
C944 C 0.13149 0.58777 0.05359 0.0
C945 C 0.07647 0.56769 0.10456 0.0
C946 C 0.04956 0.54247 0.03751 0.0
C947 C 0.98752 0.5469 0.09245 0.0
C948 C 0.96447 0.54059 0.07886 0.0
C949 C 0.94627 0.5418 0.09222 0.0
C950 C 0.92481 0.54076 0.07915 0.0
C951 C 0.92133 0.53866 0.05253 0.0
C952 C 0.9394 0.53607 0.03918 0.0
C953 C 0.96078 0.53712 0.05221 0.0
C954 C 0.01933 0.59627 0.03971 0.0
C955 C 0.04658 0.62123 0.10976 0.0
O956 O 0.09118 0.60142 0.03586 0.0
O957 O 0.10067 0.62404 0.07286 0.0
O958 O 0.09335 0.57884 0.09633 0.0
O959 O 0.05871 0.57164 0.09308 0.0
O960 O 0.06526 0.56092 0.03906 0.0
O961 O 0.03287 0.5416 0.05116 0.0
O962 O 0.99429 0.56907 0.10041 0.0
O963 O 1.00259 0.53692 0.08193 0.0
O964 O 1.00202 0.58491 0.04697 0.0
O965 O 0.03645 0.59318 0.05298 0.0
O966 O 0.03336 0.60154 0.11055 0.0
O967 O 0.06018 0.62362 0.09257 0.0
H968 H 0.14699 0.64616 0.06231 0.0
H969 H 0.18286 0.63653 0.07878 0.0
H970 H 0.15198 0.56443 0.06493 0.0
H971 H 0.11703 0.57402 0.04787 0.0
H972 H 0.94886 0.54482 0.11278 0.0
H973 H 0.91125 0.54302 0.08999 0.0
H974 H 0.93718 0.53413 0.01867 0.0
H975 H 0.97463 0.53642 0.04147 0.0
H976 H 0.06225 0.26153 0.92116 0.0
H977 H 0.06744 0.23453 0.06285 0.0
H978 H 0.06194 0.31316 0.98636 0.0
H979 H 0.08406 0.18911 1.00042 0.0
H980 H 0.06256 0.26255 0.03482 0.0
H981 H 0.0667 0.23352 0.94941 0.0
C982 C 0.06297 0.26696 0.94139 0.0
C983 C 0.06173 0.28977 0.95137 0.0
C984 C 0.06729 0.24644 0.02729 0.0
C985 C 0.06686 0.25774 0.9839 0.0
C986 C 0.07025 0.23044 0.04335 0.0
C987 C 0.07615 0.20923 0.03413 0.0
C988 C 0.07008 0.24124 1.00167 0.0
C989 C 0.0791 0.20493 0.00843 0.0
C990 C 0.06562 0.25097 0.95754 0.0
C991 C 0.06285 0.29579 0.9778 0.0
N992 N 0.07597 0.2207 0.99317 0.0
N993 N 0.06532 0.27989 0.99311 0.0
H994 H 0.13659 0.84366 0.25613 0.0
H995 H 0.22414 0.7872 0.33163 0.0
H996 H 0.11875 0.81296 0.32 0.0
H997 H 0.24592 0.85127 0.30679 0.0
H998 H 0.1852 0.79336 0.32476 0.0
H999 H 0.1763 0.84394 0.2709 0.0
C1000 C 0.14105 0.83719 0.27342 0.0
C1001 C 0.12425 0.8284 0.28691 0.0
C1002 C 0.19851 0.80629 0.32125 0.0
C1003 C 0.1698 0.82803 0.30351 0.0
C1004 C 0.22076 0.80283 0.32524 0.0
C1005 C 0.23837 0.81895 0.32023 0.0
C1006 C 0.19362 0.82559 0.31116 0.0
C1007 C 0.23293 0.83865 0.31142 0.0
C1008 C 0.16374 0.83741 0.28186 0.0
C1009 C 0.1311 0.82012 0.30914 0.0
N1010 N 0.21103 0.8412 0.30669 0.0
N1011 N 0.15325 0.81973 0.31647 0.0
H1012 H 0.54993 0.89452 0.46508 0.0
H1013 H 0.57687 0.03208 0.50376 0.0
H1014 H 0.57896 0.93986 0.41765 0.0
H1015 H 0.53915 0.98746 0.54576 0.0
H1016 H 0.58036 0.9983 0.47377 0.0
H1017 H 0.5484 0.92814 0.49646 0.0
C1018 C 0.55606 0.91153 0.46127 0.0
C1019 C 0.56454 0.91432 0.4386 0.0
C1020 C 0.57134 0.99588 0.48956 0.0
C1021 C 0.56283 0.95296 0.47456 0.0
C1022 C 0.56937 1.01517 0.50675 0.0
C1023 C 0.55762 1.01263 0.5273 0.0
C1024 C 0.56158 0.9738 0.49293 0.0
C1025 C 0.54829 0.99026 0.53017 0.0
C1026 C 0.55513 0.93073 0.4792 0.0
C1027 C 0.57222 0.93684 0.43478 0.0
N1028 N 0.55046 0.97172 0.51317 0.0
N1029 N 0.57118 0.95525 0.45256 0.0
H1030 H 0.46921 0.3247 0.75352 0.0
H1031 H 0.37533 0.30099 0.84382 0.0
H1032 H 0.48103 0.29836 0.82325 0.0
H1033 H 0.36266 0.32537 0.77301 0.0
H1034 H 0.41389 0.29961 0.83638 0.0
H1035 H 0.43036 0.32533 0.76038 0.0
C1036 C 0.46372 0.31915 0.77035 0.0
C1037 C 0.47859 0.3115 0.78784 0.0
C1038 C 0.40268 0.30517 0.82239 0.0
C1039 C 0.4338 0.31204 0.79575 0.0
C1040 C 0.38056 0.30589 0.82659 0.0
C1041 C 0.36558 0.31329 0.80903 0.0
C1042 C 0.41007 0.31197 0.80046 0.0
C1043 C 0.37351 0.31951 0.7871 0.0
C1044 C 0.44145 0.31945 0.77421 0.0
C1045 C 0.47031 0.30444 0.80923 0.0
N1046 N 0.39514 0.31879 0.78351 0.0
N1047 N 0.44858 0.30487 0.81255 0.0
H1048 H 0.99368 0.81516 0.60706 0.0
H1049 H 0.07273 0.93947 0.63038 0.0
H1050 H 0.03456 0.84663 0.67859 0.0
H1051 H 0.03024 0.90879 0.5596 0.0
H1052 H 0.05976 0.90517 0.64803 0.0
H1053 H 1.00742 0.84902 0.58911 0.0
C1054 C 1.00548 0.82923 0.61903 0.0
C1055 C 1.01295 0.82807 0.64439 0.0
C1056 C 0.05333 0.9059 0.6286 0.0
C1057 C 0.02888 0.86688 0.6239 0.0
C1058 C 0.0607 0.92551 0.61853 0.0
C1059 C 0.05254 0.92707 0.59347 0.0
C1060 C 0.03764 0.88768 0.61356 0.0
C1061 C 0.03721 0.90827 0.5789 0.0
C1062 C 1.01337 0.84856 0.60874 0.0
C1063 C 0.02831 0.84681 0.65897 0.0
N1064 N 0.0302 0.88943 0.58918 0.0
N1065 N 0.03578 0.86542 0.64851 0.0
H1066 H 0.5625 0.94331 0.93716 0.0
H1067 H 0.43587 0.87934 0.9256 0.0
H1068 H 0.54149 0.88469 0.97246 0.0
H1069 H 0.45786 0.92999 0.88028 0.0
H1070 H 0.47317 0.88758 0.95046 0.0
H1071 H 0.52322 0.94459 0.92354 0.0
C1072 C 0.54965 0.93084 0.94227 0.0
C1073 C 0.55531 0.91357 0.95556 0.0
C1074 C 0.46976 0.89716 0.93534 0.0
C1075 C 0.51036 0.91501 0.94004 0.0
C1076 C 0.44839 0.89262 0.92127 0.0
C1077 C 0.44384 0.90384 0.90066 0.0
C1078 C 0.48671 0.91297 0.9287 0.0
C1079 C 0.46081 0.92067 0.89573 0.0
C1080 C 0.52723 0.93161 0.93449 0.0
C1081 C 0.53792 0.89808 0.96191 0.0
N1082 N 0.48161 0.92454 0.90947 0.0
N1083 N 0.51623 0.89902 0.95386 0.0
H1084 H 0.49585 0.22562 0.08945 0.0
H1085 H 0.57163 0.15593 0.07873 0.0
H1086 H 0.46767 0.16461 0.11689 0.0
H1087 H 0.51938 0.10424 0.03235 0.0
H1088 H 0.54482 0.182 0.08332 0.0
H1089 H 0.51254 0.20162 0.05891 0.0
C1090 C 0.49218 0.2071 0.0883 0.0
C1091 C 0.48106 0.19719 0.1065 0.0
C1092 C 0.53933 0.16511 0.07164 0.0
C1093 C 0.49988 0.16985 0.07137 0.0
C1094 C 0.55458 0.15021 0.06912 0.0
C1095 C 0.54737 0.12759 0.05607 0.0
C1096 C 0.51666 0.1571 0.06164 0.0
C1097 C 0.5252 0.12121 0.04362 0.0
C1098 C 0.50182 0.19347 0.07087 0.0
C1099 C 0.47667 0.17304 0.10372 0.0
N1100 N 0.51024 0.13555 0.04764 0.0
N1101 N 0.48664 0.16018 0.08694 0.0
H1102 H 0.1238 0.35689 0.38991 0.0
H1103 H 0.21137 0.28181 0.33933 0.0
H1104 H 0.16886 0.32844 0.43927 0.0
H1105 H 0.16724 0.31242 0.2913 0.0
H1106 H 0.19339 0.29498 0.37543 0.0
H1107 H 0.13767 0.33805 0.35339 0.0
C1108 C 0.13668 0.34667 0.3931 0.0
C1109 C 0.14528 0.34432 0.41774 0.0
C1110 C 0.18743 0.29856 0.35695 0.0
C1111 C 0.16121 0.3225 0.37573 0.0
C1112 C 0.1975 0.29079 0.33619 0.0
C1113 C 0.19085 0.29607 0.31218 0.0
C1114 C 0.17059 0.31175 0.35372 0.0
C1115 C 0.17308 0.30818 0.30949 0.0
C1116 C 0.14455 0.33584 0.37215 0.0
C1117 C 0.16187 0.33079 0.42062 0.0
N1118 N 0.16371 0.31577 0.33005 0.0
N1119 N 0.16936 0.32041 0.39982 0.0
H1120 H 0.97909 0.09393 0.26149 0.0
H1121 H 0.97731 0.08491 0.11056 0.0
H1122 H 0.91913 0.08776 0.20803 0.0
H1123 H 0.03696 0.08199 0.16061 0.0
H1124 H 0.95695 0.08852 0.1467 0.0
H1125 H 1.00104 0.09176 0.22613 0.0
C1126 C 0.97046 0.09216 0.24234 0.0
C1127 C 0.94702 0.09104 0.23798 0.0
C1128 C 0.97449 0.08716 0.14999 0.0
C1129 C 0.97244 0.08863 0.19697 0.0
C1130 C 0.98628 0.08515 0.12923 0.0
C1131 C 1.00907 0.08303 0.13223 0.0
C1132 C 0.9853 0.0872 0.17452 0.0
C1133 C 0.01952 0.08361 0.15717 0.0
C1134 C 0.9831 0.09089 0.22209 0.0
C1135 C 0.93704 0.08869 0.21256 0.0
N1136 N 1.00758 0.08557 0.17725 0.0
N1137 N 0.94972 0.08763 0.19323 0.0
H1138 H 0.35425 0.80525 0.52965 0.0
H1139 H 0.33689 0.78149 0.378 0.0
H1140 H 0.37654 0.75002 0.48379 0.0
H1141 H 0.31653 0.8396 0.42131 0.0
H1142 H 0.35279 0.77116 0.41714 0.0
H1143 H 0.34273 0.82012 0.49103 0.0
C1144 C 0.35717 0.79653 0.51154 0.0
C1145 C 0.36626 0.77627 0.50994 0.0
C1146 C 0.34489 0.78621 0.41821 0.0
C1147 C 0.35276 0.79293 0.46573 0.0
C1148 C 0.33564 0.79211 0.39576 0.0
C1149 C 0.32518 0.81145 0.39624 0.0
C1150 C 0.3437 0.79961 0.44158 0.0
C1151 C 0.32432 0.82449 0.41999 0.0
C1152 C 0.35041 0.80493 0.4895 0.0
C1153 C 0.3695 0.76561 0.48596 0.0
N1154 N 0.33341 0.81829 0.44175 0.0
N1155 N 0.36258 0.77394 0.46485 0.0
H1156 H 0.58568 0.98231 0.7351 0.0
H1157 H 0.61302 0.07516 0.64813 0.0
H1158 H 0.65326 1.00872 0.7244 0.0
H1159 H 0.55208 0.02454 0.62823 0.0
H1160 H 0.62653 0.05343 0.67985 0.0
H1161 H 0.57145 0.99913 0.69882 0.0
C1162 C 0.59752 0.9913 0.7249 0.0
C1163 C 0.62071 0.99413 0.73287 0.0
C1164 C 0.61023 0.04701 0.66851 0.0
C1165 C 0.60453 1.01386 0.69192 0.0
C1166 C 0.60242 0.05949 0.65052 0.0
C1167 C 0.58136 0.05165 0.63559 0.0
C1168 C 0.59672 0.02675 0.67207 0.0
C1169 C 0.56842 0.03113 0.63939 0.0
C1170 C 0.58937 1.0009 0.70426 0.0
C1171 C 0.63526 1.00605 0.71899 0.0
N1172 N 0.5762 0.01946 0.6575 0.0
N1173 N 0.62694 1.01576 0.69951 0.0
H1174 H 0.29651 0.51166 0.05715 0.0
H1175 H 0.31504 0.38364 0.01144 0.0
H1176 H 0.31192 0.46462 0.10749 0.0
H1177 H 0.29004 0.42536 0.95952 0.0
H1178 H 0.31196 0.41283 0.04681 0.0
H1179 H 0.2921 0.48014 0.02097 0.0
C1180 C 0.29875 0.49471 0.06062 0.0
C1181 C 0.30489 0.49086 0.08536 0.0
C1182 C 0.30698 0.41558 0.0277 0.0
C1183 C 0.29997 0.4549 0.04423 0.0
C1184 C 0.30859 0.39879 0.00743 0.0
C1185 C 0.30289 0.40204 0.9824 0.0
C1186 C 0.29981 0.43596 0.02301 0.0
C1187 C 0.29504 0.42232 0.97849 0.0
C1188 C 0.29625 0.47674 0.03999 0.0
C1189 C 0.30749 0.46853 0.08877 0.0
N1190 N 0.2939 0.43862 0.9986 0.0
N1191 N 0.30519 0.45149 0.06846 0.0
H1192 H 0.9354 0.09875 0.40138 0.0
H1193 H 0.03701 0.06015 0.48261 0.0
H1194 H 0.99374 0.07928 0.3723 0.0
H1195 H 0.99477 0.10141 0.52018 0.0
H1196 H 1.01802 0.06448 0.44182 0.0
H1197 H 0.95394 0.09855 0.44486 0.0
C1198 C 0.95211 0.09475 0.40405 0.0
C1199 C 0.96282 0.08877 0.38292 0.0
C1200 C 1.01283 0.07268 0.45891 0.0
C1201 C 0.98389 0.08813 0.43242 0.0
C1202 C 0.02367 0.07011 0.48235 0.0
C1203 C 1.01757 0.08041 0.50506 0.0
C1204 C 0.99541 0.08547 0.45773 0.0
C1205 C 1.0001 0.09319 0.5032 0.0
C1206 C 0.96264 0.09454 0.42885 0.0
C1207 C 0.9845 0.08367 0.38771 0.0
N1208 N 0.98953 0.09527 0.47997 0.0
N1209 N 0.99407 0.08327 0.41166 0.0
H1210 H 0.35501 0.79223 0.64465 0.0
H1211 H 0.30847 0.76811 0.77055 0.0
H1212 H 0.36263 0.73304 0.67966 0.0
H1213 H 0.31651 0.83648 0.75211 0.0
H1214 H 0.33024 0.75656 0.73775 0.0
H1215 H 0.3437 0.81079 0.68396 0.0
C1216 C 0.35497 0.78345 0.66083 0.0
C1217 C 0.3595 0.76093 0.6588 0.0
C1218 C 0.32753 0.77419 0.74084 0.0
C1219 C 0.34629 0.7818 0.70344 0.0
C1220 C 0.31497 0.78079 0.75959 0.0
C1221 C 0.31053 0.80324 0.76392 0.0
C1222 C 0.33539 0.78993 0.72559 0.0
C1223 C 0.31956 0.81898 0.74926 0.0
C1224 C 0.34837 0.79398 0.68318 0.0
C1225 C 0.35899 0.75026 0.68023 0.0
N1226 N 0.33128 0.81191 0.73035 0.0
N1227 N 0.35222 0.76063 0.70141 0.0
H1228 H 0.62931 1.00546 0.89372 0.0
H1229 H 0.53522 0.04527 0.97314 0.0
H1230 H 0.5669 0.02121 0.86048 0.0
H1231 H 0.59965 0.03577 0.00828 0.0
H1232 H 0.54534 0.03255 0.93162 0.0
H1233 H 0.61749 1.01252 0.93566 0.0
C1234 C 0.61306 1.01019 0.89517 0.0
C1235 C 0.59917 1.01292 0.8735 0.0
C1236 C 0.55726 0.03315 0.94839 0.0
C1237 C 0.58559 0.02107 0.92143 0.0
C1238 C 0.55148 0.04043 0.97216 0.0
C1239 C 0.56666 0.0418 0.99428 0.0
C1240 C 0.57843 0.02721 0.94659 0.0
C1241 C 0.58744 0.03512 0.99175 0.0
C1242 C 0.60636 1.01428 0.91914 0.0
C1243 C 0.57829 0.01908 0.8766 0.0
N1244 N 0.59276 0.02823 0.96832 0.0
N1245 N 0.57221 0.02302 0.90006 0.0
H1246 H 0.36037 0.45564 0.19148 0.0
H1247 H 0.29949 0.37737 0.27735 0.0
H1248 H 0.31652 0.48184 0.24118 0.0
H1249 H 0.37135 0.38587 0.28195 0.0
H1250 H 0.29954 0.40689 0.25001 0.0
H1251 H 0.35929 0.42165 0.21246 0.0
C1252 C 0.35064 0.45424 0.2069 0.0
C1253 C 0.33877 0.47158 0.21498 0.0
C1254 C 0.31516 0.40175 0.25652 0.0
C1255 C 0.3366 0.43261 0.23782 0.0
C1256 C 0.31512 0.38477 0.27173 0.0
C1257 C 0.33544 0.37923 0.28159 0.0
C1258 C 0.33559 0.4126 0.25077 0.0
C1259 C 0.35537 0.38968 0.27443 0.0
C1260 C 0.34995 0.43491 0.21865 0.0
C1261 C 0.32619 0.46897 0.23478 0.0
N1262 N 0.35499 0.40596 0.25938 0.0
N1263 N 0.3252 0.44964 0.24539 0.0
H1264 H 0.19489 0.9941 0.09106 0.0
H1265 H 0.07134 1.00928 0.11375 0.0
H1266 H 0.14408 0.93683 0.09724 0.0
H1267 H 0.12481 0.06555 0.11291 0.0
H1268 H 0.09833 0.98294 0.1133 0.0
H1269 H 0.17011 0.02047 0.10307 0.0
C1270 C 0.17844 0.98699 0.09493 0.0
C1271 C 0.17153 0.96308 0.09286 0.0
C1272 C 0.10426 1.0011 0.1137 0.0
C1273 C 0.1428 0.9936 0.10683 0.0
C1274 C 0.0889 1.01614 0.1141 0.0
C1275 C 0.09585 0.03954 0.11313 0.0
C1276 C 0.12674 1.00952 0.112 0.0
C1277 C 0.11876 0.04768 0.11386 0.0
C1278 C 0.1643 1.00219 0.10197 0.0
C1279 C 0.15007 0.95509 0.09842 0.0
N1280 N 0.13332 0.03262 0.11279 0.0
N1281 N 0.13637 0.97031 0.10494 0.0
H1282 H 0.68346 0.57206 0.97058 0.0
H1283 H 0.6002 0.63869 0.03999 0.0
H1284 H 0.67311 0.63999 0.95967 0.0
H1285 H 0.59655 0.56542 0.03558 0.0
H1286 H 0.62564 0.6385 0.00848 0.0
H1287 H 0.64978 0.56759 0.99106 0.0
C1288 C 0.67383 0.58582 0.97196 0.0
C1289 C 0.68138 0.60666 0.96396 0.0
C1290 C 0.61917 0.62239 0.01418 0.0
C1291 C 0.64313 0.60177 0.98764 0.0
C1292 C 0.60479 0.62253 0.03232 0.0
C1293 C 0.59659 0.60209 0.04055 0.0
C1294 C 0.62569 0.60168 1.00447 0.0
C1295 C 0.60277 0.58157 0.02982 0.0
C1296 C 0.65464 0.58328 0.98373 0.0
C1297 C 0.66813 0.6238 0.96597 0.0
N1298 N 0.61724 0.58191 0.0125 0.0
N1299 N 0.64989 0.62114 0.97805 0.0
H1300 H 0.69892 0.47501 0.34427 0.0
H1301 H 0.80684 0.41525 0.3221 0.0
H1302 H 0.76241 0.5138 0.33531 0.0
H1303 H 0.7446 0.37896 0.33785 0.0
H1304 H 0.79113 0.45096 0.32569 0.0
H1305 H 0.71531 0.43994 0.34101 0.0
C1306 C 0.71636 0.4763 0.34168 0.0
C1307 C 0.72914 0.49782 0.34017 0.0
C1308 C 0.78087 0.4352 0.32833 0.0
C1309 C 0.74834 0.45686 0.33615 0.0
C1310 C 0.78986 0.41463 0.32621 0.0
C1311 C 0.77717 0.39362 0.32952 0.0
C1312 C 0.75882 0.43513 0.33377 0.0
C1313 C 0.75522 0.39442 0.33499 0.0
C1314 C 0.72577 0.45607 0.33979 0.0
C1315 C 0.75173 0.49787 0.33671 0.0
N1316 N 0.74688 0.41455 0.33686 0.0
N1317 N 0.76048 0.47791 0.33478 0.0
H1318 H 0.78398 0.51909 0.56035 0.0
H1319 H 0.9128 0.51069 0.58028 0.0
H1320 H 0.80864 0.46172 0.58687 0.0
H1321 H 0.88775 0.57085 0.56229 0.0
H1322 H 0.87557 0.49447 0.58827 0.0
H1323 H 0.82227 0.54003 0.56587 0.0
C1324 C 0.79748 0.51092 0.56746 0.0
C1325 C 0.79318 0.48847 0.57274 0.0
C1326 C 0.87829 0.51136 0.58294 0.0
C1327 C 0.83714 0.51236 0.57902 0.0
C1328 C 0.89957 0.52071 0.57852 0.0
C1329 C 0.90326 0.54201 0.57024 0.0
C1330 C 0.86057 0.52335 0.57886 0.0
C1331 C 0.88548 0.55413 0.56806 0.0
C1332 C 0.81936 0.52295 0.57073 0.0
C1333 C 0.81127 0.47893 0.58235 0.0
N1334 N 0.86483 0.54449 0.57203 0.0
N1335 N 0.83255 0.49082 0.58485 0.0
H1336 H 0.4509 0.23075 0.3479 0.0
H1337 H 0.34186 0.26848 0.2796 0.0
H1338 H 0.40066 0.18419 0.29253 0.0
H1339 H 0.3845 0.30888 0.3463 0.0
H1340 H 0.36582 0.23922 0.28011 0.0
H1341 H 0.42881 0.26121 0.34442 0.0
C1342 C 0.43529 0.22698 0.33492 0.0
C1343 C 0.42754 0.20489 0.32062 0.0
C1344 C 0.36997 0.2546 0.2945 0.0
C1345 C 0.40246 0.23979 0.31596 0.0
C1346 C 0.35638 0.27139 0.29412 0.0
C1347 C 0.36116 0.29126 0.31289 0.0
C1348 C 0.38842 0.25773 0.31378 0.0
C1349 C 0.38014 0.29394 0.33135 0.0
C1350 C 0.42271 0.24438 0.33284 0.0
C1351 C 0.40717 0.20095 0.30407 0.0
N1352 N 0.39292 0.27734 0.33141 0.0
N1353 N 0.39538 0.21824 0.30212 0.0
H1354 H 0.28975 0.05257 0.48644 0.0
H1355 H 0.41651 0.09872 0.54274 0.0
H1356 H 0.3263 0.11724 0.47443 0.0
H1357 H 0.38887 0.02589 0.52894 0.0
H1358 H 0.383 0.10549 0.51811 0.0
H1359 H 0.3253 0.0415 0.50106 0.0
C1360 C 0.30525 0.06424 0.48634 0.0
C1361 C 0.30501 0.08604 0.47959 0.0
C1362 C 0.38433 0.08798 0.52025 0.0
C1363 C 0.3456 0.07365 0.49677 0.0
C1364 C 0.40353 0.08406 0.53432 0.0
C1365 C 0.4057 0.06163 0.53786 0.0
C1366 C 0.36685 0.06947 0.50995 0.0
C1367 C 0.38787 0.0435 0.52705 0.0
C1368 C 0.32552 0.05791 0.49474 0.0
C1369 C 0.32562 0.10036 0.47965 0.0
N1370 N 0.3691 0.04784 0.51371 0.0
N1371 N 0.34506 0.0941 0.48862 0.0
H1372 H 0.69331 0.6611 0.33736 0.0
H1373 H 0.80747 0.75041 0.33772 0.0
H1374 H 0.75656 0.63746 0.34319 0.0
H1375 H 0.74035 0.76072 0.31461 0.0
H1376 H 0.79165 0.71101 0.3442 0.0
H1377 H 0.71242 0.69898 0.33423 0.0
C1378 C 0.71135 0.66373 0.33807 0.0
C1379 C 0.72305 0.64542 0.34037 0.0
C1380 C 0.78046 0.72197 0.33773 0.0
C1381 C 0.74569 0.69027 0.33664 0.0
C1382 C 0.78949 0.74455 0.33411 0.0
C1383 C 0.77531 0.75918 0.32552 0.0
C1384 C 0.75703 0.714 0.3331 0.0
C1385 C 0.75213 0.75035 0.32114 0.0
C1386 C 0.72236 0.6857 0.33621 0.0
C1387 C 0.74661 0.65075 0.34145 0.0
N1388 N 0.74391 0.72873 0.32501 0.0
N1389 N 0.75711 0.67257 0.33948 0.0
H1390 H 0.90107 0.58844 0.82188 0.0
H1391 H 0.88743 0.46703 0.8683 0.0
H1392 H 0.95444 0.54927 0.82894 0.0
H1393 H 0.8307 0.49364 0.83661 0.0
H1394 H 0.91252 0.49968 0.85863 0.0
H1395 H 0.87512 0.55599 0.83105 0.0
C1396 C 0.90732 0.57301 0.82525 0.0
C1397 C 0.92998 0.57158 0.82466 0.0
C1398 C 0.89459 0.49842 0.85381 0.0
C1399 C 0.90048 0.53464 0.83544 0.0
C1400 C 0.88027 0.47992 0.85955 0.0
C1401 C 0.85698 0.47773 0.85334 0.0
C1402 C 0.88557 0.515 0.84198 0.0
C1403 C 0.84858 0.4947 0.84161 0.0
C1404 C 0.89249 0.55452 0.83044 0.0
C1405 C 0.93712 0.55114 0.82912 0.0
N1406 N 0.86289 0.51272 0.83638 0.0
N1407 N 0.92246 0.53356 0.83451 0.0
H1408 H 0.02803 0.83944 0.1675 0.0
H1409 H 0.05707 0.96521 0.13349 0.0
H1410 H 0.06041 0.89845 0.22373 0.0
H1411 H 1.00192 0.9141 0.09134 0.0
H1412 H 0.06283 0.93943 0.16408 0.0
H1413 H 0.02246 0.86508 0.13675 0.0
C1414 C 0.03404 0.85779 0.17337 0.0
C1415 C 0.04469 0.86682 0.19826 0.0
C1416 C 0.04948 0.93387 0.14813 0.0
C1417 C 0.03857 0.89621 0.16302 0.0
C1418 C 0.04628 0.94848 0.13057 0.0
C1419 C 0.029 0.94176 0.1098 0.0
C1420 C 0.03556 0.91218 0.14472 0.0
C1421 C 1.01535 0.91999 0.10714 0.0
C1422 C 0.03076 0.8724 0.15583 0.0
C1423 C 0.05204 0.89076 0.20479 0.0
N1424 N 0.01901 0.90591 0.12429 0.0
N1425 N 0.04899 0.90461 0.18724 0.0
H1426 H 0.97804 0.31915 0.88028 0.0
H1427 H 0.87853 0.36717 0.80631 0.0
H1428 H 0.9876 0.36142 0.82281 0.0
H1429 H 0.86592 0.30998 0.84601 0.0
H1430 H 0.91874 0.36626 0.81373 0.0
H1431 H 0.93725 0.31632 0.86968 0.0
C1432 C 0.97165 0.32767 0.86532 0.0
C1433 C 0.98648 0.34054 0.85247 0.0
C1434 C 0.9072 0.35378 0.82068 0.0
C1435 C 0.93967 0.33765 0.84049 0.0
C1436 C 0.8842 0.35429 0.81642 0.0
C1437 C 0.86875 0.33862 0.82548 0.0
C1438 C 0.91503 0.33769 0.8345 0.0
C1439 C 0.87717 0.32235 0.83856 0.0
C1440 C 0.94831 0.32605 0.85929 0.0
C1441 C 0.97701 0.35125 0.83329 0.0
N1442 N 0.89969 0.32245 0.84288 0.0
N1443 N 0.95439 0.34973 0.8281 0.0
H1444 H 0.53513 0.2523 0.67703 0.0
H1445 H 0.53051 0.11605 0.6563 0.0
H1446 H 0.53907 0.2148 0.73947 0.0
H1447 H 0.54987 0.15857 0.6017 0.0
H1448 H 0.52766 0.15084 0.6856 0.0
H1449 H 0.53425 0.21668 0.64769 0.0
C1450 C 0.53563 0.23654 0.68459 0.0
C1451 C 0.53729 0.23658 0.71081 0.0
C1452 C 0.53248 0.15248 0.66717 0.0
C1453 C 0.53628 0.19568 0.67719 0.0
C1454 C 0.53403 0.13267 0.65042 0.0
C1455 C 0.54053 0.13445 0.62657 0.0
C1456 C 0.53713 0.17414 0.65983 0.0
C1457 C 0.54494 0.1564 0.61996 0.0
C1458 C 0.53523 0.21622 0.6678 0.0
C1459 C 0.5379 0.21559 0.71943 0.0
N1460 N 0.54311 0.17536 0.63645 0.0
N1461 N 0.5374 0.19595 0.70265 0.0
H1462 H 0.64499 0.84892 0.41223 0.0
H1463 H 0.72449 0.84226 0.30378 0.0
H1464 H 0.61822 0.8348 0.33257 0.0
H1465 H 0.74635 0.84046 0.38245 0.0
H1466 H 0.68626 0.84324 0.31357 0.0
H1467 H 0.68263 0.84938 0.40131 0.0
C1468 C 0.64698 0.84592 0.39236 0.0
C1469 C 0.62821 0.84176 0.37333 0.0
C1470 C 0.69946 0.84272 0.32868 0.0
C1471 C 0.67183 0.84241 0.36056 0.0
C1472 C 0.72136 0.84232 0.32314 0.0
C1473 C 0.73882 0.84132 0.3423 0.0
C1474 C 0.69494 0.84237 0.35363 0.0
C1475 C 0.73356 0.84121 0.367 0.0
C1476 C 0.66859 0.84616 0.38613 0.0
C1477 C 0.63209 0.838 0.34792 0.0
N1478 N 0.71226 0.84176 0.3719 0.0
N1479 N 0.65342 0.83848 0.34228 0.0
H1480 H 0.05398 0.30409 0.48377 0.0
H1481 H 0.06772 0.23834 0.60202 0.0
H1482 H 0.10588 0.32691 0.54859 0.0
H1483 H 0.02135 0.21034 0.53329 0.0
H1484 H 0.07826 0.2735 0.58505 0.0
H1485 H 0.03859 0.27203 0.50372 0.0
C1486 C 0.06206 0.30243 0.50225 0.0
C1487 C 0.08134 0.31808 0.51446 0.0
C1488 C 0.06565 0.25975 0.57374 0.0
C1489 C 0.06382 0.28152 0.53738 0.0
C1490 C 0.05946 0.23973 0.58352 0.0
C1491 C 0.04368 0.22131 0.56901 0.0
C1492 C 0.05601 0.26142 0.54924 0.0
C1493 C 0.03382 0.22399 0.54498 0.0
C1494 C 0.05328 0.28413 0.51362 0.0
C1495 C 0.09109 0.31516 0.53842 0.0
N1496 N 0.04024 0.24362 0.53578 0.0
N1497 N 0.08226 0.29719 0.54904 0.0
H1498 H 0.54884 0.22328 0.2324 0.0
H1499 H 0.67979 0.24403 0.2372 0.0
H1500 H 0.58223 0.23853 0.16914 0.0
H1501 H 0.64611 0.22146 0.29747 0.0
H1502 H 0.64434 0.2338 0.20877 0.0
H1503 H 0.58361 0.21501 0.25324 0.0
C1504 C 0.56346 0.22465 0.22278 0.0
C1505 C 0.56285 0.23214 0.19931 0.0
C1506 C 0.64473 0.23061 0.22806 0.0
C1507 C 0.60274 0.22286 0.2231 0.0
C1508 C 0.66509 0.23626 0.24432 0.0
C1509 C 0.66587 0.2341 0.26999 0.0
C1510 C 0.62498 0.22305 0.23762 0.0
C1511 C 0.64615 0.22406 0.27803 0.0
C1512 C 0.5833 0.21983 0.23464 0.0
C1513 C 0.5821 0.23317 0.18745 0.0
N1514 N 0.62642 0.21936 0.26205 0.0
N1515 N 0.60141 0.22901 0.1997 0.0
H1516 H 0.61497 0.91611 0.06386 0.0
H1517 H 0.53577 0.98328 0.05933 0.0
H1518 H 0.64758 0.97676 0.03905 0.0
H1519 H 0.58431 0.03716 0.10821 0.0
H1520 H 0.56374 0.95816 0.05925 0.0
H1521 H 0.59345 0.93998 0.08838 0.0
C1522 C 0.61842 0.93456 0.0644 0.0
C1523 C 0.63242 0.9443 0.0484 0.0
C1524 C 0.56808 0.97532 0.07048 0.0
C1525 C 0.60807 0.97151 0.07676 0.0
C1526 C 0.55219 0.98967 0.07043 0.0
C1527 C 0.55803 1.01251 0.08315 0.0
C1528 C 0.59004 0.98411 0.0828 0.0
C1529 C 0.57947 0.01985 0.09747 0.0
C1530 C 0.606 0.94809 0.07836 0.0
C1531 C 0.63647 0.9684 0.05046 0.0
N1532 N 0.59508 1.00598 0.09612 0.0
N1533 N 0.62385 0.98117 0.06383 0.0
H1534 H 0.95309 0.81045 0.73026 0.0
H1535 H 0.94621 0.81517 0.87723 0.0
H1536 H 0.94724 0.75049 0.76675 0.0
H1537 H 0.91086 0.85756 0.83452 0.0
H1538 H 0.95758 0.79764 0.8379 0.0
H1539 H 0.94577 0.83327 0.76944 0.0
C1540 C 0.94999 0.80202 0.74627 0.0
C1541 C 0.95083 0.7785 0.74513 0.0
C1542 C 0.9477 0.81115 0.83738 0.0
C1543 C 0.94355 0.80463 0.79001 0.0
C1544 C 0.94128 0.82123 0.85981 0.0
C1545 C 0.9272 0.83762 0.8593 0.0
C1546 C 0.94025 0.81771 0.81435 0.0
C1547 C 0.92175 0.84508 0.83607 0.0
C1548 C 0.94604 0.81508 0.7686 0.0
C1549 C 0.9468 0.76853 0.76658 0.0
N1550 N 0.92806 0.83486 0.81445 0.0
N1551 N 0.94367 0.78171 0.78819 0.0
H1552 H 0.11238 0.07944 0.89015 0.0
H1553 H 0.11909 0.06463 0.03629 0.0
H1554 H 0.17016 0.06083 0.93072 0.0
H1555 H 0.05952 0.07542 0.99168 0.0
H1556 H 0.13784 0.06262 0.9985 0.0
H1557 H 0.09332 0.0777 0.92701 0.0
C1558 C 0.12123 0.07496 0.90681 0.0
C1559 C 0.14324 0.0704 0.90697 0.0
C1560 C 0.12064 0.06526 0.99682 0.0
C1561 C 0.12085 0.0684 0.95018 0.0
C1562 C 0.10981 0.06639 0.01847 0.0
C1563 C 0.08754 0.0702 0.01738 0.0
C1564 C 0.10933 0.06814 0.97357 0.0
C1565 C 0.07657 0.07234 0.9936 0.0
C1566 C 0.11012 0.07392 0.92801 0.0
C1567 C 0.15333 0.06451 0.92943 0.0
N1568 N 0.08759 0.07145 0.97283 0.0
N1569 N 0.14215 0.06383 0.95007 0.0
H1570 H 0.72191 0.37901 0.64675 0.0
H1571 H 0.81863 0.34404 0.73557 0.0
H1572 H 0.79054 0.40788 0.64282 0.0
H1573 H 0.7622 0.36734 0.76543 0.0
H1574 H 0.80706 0.35733 0.69551 0.0
H1575 H 0.73481 0.36375 0.68468 0.0
C1576 C 0.7397 0.38189 0.65369 0.0
C1577 C 0.75519 0.39483 0.64179 0.0
C1578 C 0.79732 0.35946 0.71095 0.0
C1579 C 0.76998 0.37704 0.68461 0.0
C1580 C 0.80384 0.35188 0.73365 0.0
C1581 C 0.79144 0.35482 0.75382 0.0
C1582 C 0.77787 0.36918 0.70828 0.0
C1583 C 0.77237 0.36501 0.75044 0.0
C1584 C 0.747 0.37327 0.67531 0.0
C1585 C 0.77807 0.39814 0.65162 0.0
N1586 N 0.76602 0.37158 0.72802 0.0
N1587 N 0.78484 0.38916 0.67242 0.0
H1588 H 0.54029 0.14074 0.40369 0.0
H1589 H 0.48768 0.07531 0.50219 0.0
H1590 H 0.46965 0.13502 0.40805 0.0
H1591 H 0.55288 0.1186 0.52405 0.0
H1592 H 0.48119 0.09486 0.46583 0.0
H1593 H 0.54635 0.13162 0.44659 0.0
C1594 C 0.52616 0.13812 0.41395 0.0
C1595 C 0.50445 0.13865 0.40238 0.0
C1596 C 0.4968 0.10025 0.47875 0.0
C1597 C 0.51114 0.12742 0.45087 0.0
C1598 C 0.50059 0.089 0.49932 0.0
C1599 C 0.52089 0.09533 0.51593 0.0
C1600 C 0.51371 0.11746 0.47437 0.0
C1601 C 0.53702 0.11328 0.51158 0.0
C1602 C 0.52962 0.1329 0.43836 0.0
C1603 C 0.48667 0.13495 0.41639 0.0
N1604 N 0.53326 0.12348 0.49089 0.0
N1605 N 0.49032 0.12894 0.4397 0.0
H1606 H 0.76079 0.68663 0.03857 0.0
H1607 H 0.76418 0.71877 0.18791 0.0
H1608 H 0.73619 0.63647 0.08335 0.0
H1609 H 0.76718 0.76891 0.13781 0.0
H1610 H 0.75645 0.68796 0.15081 0.0
H1611 H 0.76652 0.7166 0.0759 0.0
C1612 C 0.75663 0.68188 0.05629 0.0
C1613 C 0.748 0.65896 0.05783 0.0
C1614 C 0.75872 0.70572 0.14802 0.0
C1615 C 0.75457 0.69334 0.10074 0.0
C1616 C 0.76303 0.72334 0.16916 0.0
C1617 C 0.76648 0.74653 0.16603 0.0
C1618 C 0.75808 0.71136 0.12363 0.0
C1619 C 0.76512 0.75134 0.14124 0.0
C1620 C 0.75981 0.69906 0.07758 0.0
C1621 C 0.74283 0.65392 0.08131 0.0
N1622 N 0.76116 0.73393 0.12104 0.0
N1623 N 0.7463 0.67098 0.10193 0.0
H1624 H 0.18333 0.08825 0.75761 0.0
H1625 H 0.0905 0.03096 0.64037 0.0
H1626 H 0.13502 0.02881 0.76323 0.0
H1627 H 0.10316 0.10462 0.66472 0.0
H1628 H 0.11317 0.02706 0.67991 0.0
H1629 H 0.16072 0.09183 0.71786 0.0
C1630 C 0.16814 0.07576 0.75031 0.0
C1631 C 0.16108 0.05814 0.76373 0.0
C1632 C 0.11098 0.04404 0.67652 0.0
C1633 C 0.1354 0.06197 0.7181 0.0
C1634 C 0.09813 0.04631 0.65396 0.0
C1635 C 0.09485 0.06816 0.64927 0.0
C1636 C 0.12129 0.0638 0.69416 0.0
C1637 C 0.10512 0.08745 0.66764 0.0
C1638 C 0.1552 0.07794 0.72776 0.0
C1639 C 0.14107 0.04263 0.7535 0.0
N1640 N 0.11811 0.08486 0.68911 0.0
N1641 N 0.12907 0.04473 0.73118 0.0
H1642 H 0.72678 0.41923 0.46573 0.0
H1643 H 0.78777 0.31973 0.40553 0.0
H1644 H 0.74656 0.36954 0.51037 0.0
H1645 H 0.79753 0.38897 0.3895 0.0
H1646 H 0.76455 0.33163 0.43808 0.0
H1647 H 0.74346 0.40127 0.43082 0.0
C1648 C 0.73426 0.40428 0.46813 0.0
C1649 C 0.73547 0.39615 0.49132 0.0
C1650 C 0.77177 0.34407 0.42728 0.0
C1651 C 0.75473 0.37544 0.45105 0.0
C1652 C 0.78493 0.33732 0.40876 0.0
C1653 C 0.79478 0.35347 0.39506 0.0
C1654 C 0.76795 0.36688 0.43138 0.0
C1655 C 0.79053 0.37602 0.39984 0.0
C1656 C 0.7439 0.39411 0.44815 0.0
C1657 C 0.74534 0.37654 0.49297 0.0
N1658 N 0.77738 0.38198 0.41742 0.0
N1659 N 0.75477 0.36694 0.47317 0.0
H1660 H 0.46557 0.14064 0.22778 0.0
H1661 H 0.5659 0.09543 0.16507 0.0
H1662 H 0.52864 0.13811 0.27194 0.0
H1663 H 0.50671 0.10998 0.12272 0.0
H1664 H 0.55347 0.11155 0.20454 0.0
H1665 H 0.48118 0.13004 0.18907 0.0
C1666 C 0.48278 0.13798 0.22931 0.0
C1667 C 0.49578 0.14012 0.2531 0.0
C1668 C 0.54333 0.11131 0.18655 0.0
C1669 C 0.51378 0.12772 0.20877 0.0
C1670 C 0.5504 0.10209 0.16404 0.0
C1671 C 0.53723 0.1011 0.14054 0.0
C1672 C 0.52294 0.11946 0.18548 0.0
C1673 C 0.51734 0.11011 0.14035 0.0
C1674 C 0.49172 0.13194 0.20719 0.0
C1675 C 0.51804 0.13661 0.25395 0.0
N1676 N 0.51077 0.11873 0.16242 0.0
N1677 N 0.52629 0.13035 0.23208 0.0
H1678 H 0.77769 0.70913 0.96405 0.0
H1679 H 0.7953 0.7428 0.82898 0.0
H1680 H 0.77914 0.66 0.89697 0.0
H1681 H 0.78731 0.79239 0.89279 0.0
H1682 H 0.79301 0.7131 0.85522 0.0
H1683 H 0.78504 0.74041 0.93998 0.0
C1684 C 0.77981 0.70491 0.94432 0.0
C1685 C 0.77767 0.68186 0.93244 0.0
C1686 C 0.79176 0.73043 0.86361 0.0
C1687 C 0.78595 0.71764 0.90481 0.0
C1688 C 0.79303 0.74745 0.84861 0.0
C1689 C 0.79123 0.77005 0.85868 0.0
C1690 C 0.78865 0.73593 0.889 0.0
C1691 C 0.78857 0.77511 0.88428 0.0
C1692 C 0.78391 0.72281 0.93059 0.0
C1693 C 0.78058 0.67747 0.90688 0.0
N1694 N 0.78725 0.75809 0.8986 0.0
N1695 N 0.78445 0.69519 0.8939 0.0
H1696 H 0.94151 0.20946 0.06037 0.0
H1697 H 0.97379 0.08386 0.03172 0.0
H1698 H 0.90134 0.14605 0.07063 0.0
H1699 H 0.02378 0.146 0.05016 0.0
H1700 H 0.94451 0.10746 0.03301 0.0
H1701 H 0.96976 0.18719 0.04575 0.0
C1702 C 0.93861 0.19096 0.05951 0.0
C1703 C 0.91925 0.1797 0.06722 0.0
C1704 C 0.96191 0.11593 0.03622 0.0
C1705 C 0.95086 0.1542 0.04979 0.0
C1706 C 0.97861 0.10246 0.03515 0.0
C1707 C 1.00123 0.11297 0.0411 0.0
C1708 C 0.96789 0.14005 0.04314 0.0
C1709 C 1.0065 0.1372 0.0457 0.0
C1710 C 0.95463 0.17828 0.05109 0.0
C1711 C 0.9162 0.15561 0.06542 0.0
N1712 N 0.98997 0.14995 0.04698 0.0
N1713 N 0.93175 0.14376 0.05691 0.0
H1714 H 0.38651 0.58482 0.11471 0.0
H1715 H 0.51361 0.57179 0.13929 0.0
H1716 H 0.40936 0.55389 0.17826 0.0
H1717 H 0.47301 0.55005 0.06575 0.0
H1718 H 0.47966 0.57802 0.15795 0.0
H1719 H 0.42333 0.58616 0.10124 0.0
C1720 C 0.39939 0.57882 0.12623 0.0
C1721 C 0.39473 0.56892 0.1475 0.0
C1722 C 0.47837 0.57203 0.13774 0.0
C1723 C 0.43686 0.57069 0.13218 0.0
C1724 C 0.49758 0.56852 0.12712 0.0
C1725 C 0.49587 0.56022 0.10106 0.0
C1726 C 0.45768 0.56795 0.12192 0.0
C1727 C 0.47487 0.55624 0.08597 0.0
C1728 C 0.42032 0.5795 0.11839 0.0
C1729 C 0.41218 0.56144 0.16161 0.0
N1730 N 0.45655 0.56032 0.09661 0.0
N1731 N 0.43255 0.56235 0.1536 0.0
H1732 H 0.40727 0.68066 0.82255 0.0
H1733 H 0.2952 0.73683 0.82635 0.0
H1734 H 0.34107 0.63916 0.80603 0.0
H1735 H 0.36069 0.77614 0.8258 0.0
H1736 H 0.31128 0.70131 0.82196 0.0
H1737 H 0.39048 0.71549 0.82682 0.0
C1738 C 0.38917 0.67874 0.81985 0.0
C1739 C 0.37575 0.65654 0.81385 0.0
C1740 C 0.32216 0.7177 0.82283 0.0
C1741 C 0.35604 0.69717 0.81901 0.0
C1742 C 0.31296 0.73814 0.82545 0.0
C1743 C 0.32645 0.75993 0.82658 0.0
C1744 C 0.34525 0.7187 0.82159 0.0
C1745 C 0.34941 0.76003 0.82508 0.0
C1746 C 0.37953 0.69882 0.82227 0.0
C1747 C 0.35229 0.65567 0.81061 0.0
N1748 N 0.35795 0.74002 0.82282 0.0
N1749 N 0.3433 0.67547 0.81332 0.0
H1750 H 0.28023 0.72933 0.57311 0.0
H1751 H 0.20508 0.60312 0.53971 0.0
H1752 H 0.30189 0.66999 0.53411 0.0
H1753 H 0.19265 0.65813 0.59495 0.0
H1754 H 0.23674 0.62947 0.52996 0.0
H1755 H 0.24374 0.70544 0.5731 0.0
C1756 C 0.27717 0.71138 0.56417 0.0
C1757 C 0.29415 0.70147 0.55398 0.0
C1758 C 0.22698 0.63576 0.5441 0.0
C1759 C 0.2527 0.67416 0.55402 0.0
C1760 C 0.20897 0.62078 0.54963 0.0
C1761 C 0.19657 0.62845 0.56841 0.0
C1762 C 0.23239 0.65855 0.55731 0.0
C1763 C 0.20216 0.65147 0.58072 0.0
C1764 C 0.25642 0.69775 0.56429 0.0
C1765 C 0.28931 0.67818 0.54252 0.0
N1766 N 0.21974 0.66571 0.57502 0.0
N1767 N 0.26907 0.66523 0.54306 0.0
H1768 H 0.66038 0.91702 0.82677 0.0
H1769 H 0.78213 0.89486 0.87948 0.0
H1770 H 0.71894 0.97083 0.84658 0.0
H1771 H 0.72976 0.84189 0.83599 0.0
H1772 H 0.7566 0.92275 0.87746 0.0
H1773 H 0.68329 0.88941 0.83928 0.0
C1774 C 0.67803 0.92307 0.83385 0.0
C1775 C 0.68779 0.94627 0.83533 0.0
C1776 C 0.75053 0.9049 0.86881 0.0
C1777 C 0.71407 0.91461 0.84987 0.0
C1778 C 0.76496 0.88895 0.87028 0.0
C1779 C 0.75781 0.86607 0.85791 0.0
C1780 C 0.72879 0.89776 0.85509 0.0
C1781 C 0.73566 0.85939 0.8457 0.0
C1782 C 0.69109 0.90725 0.84099 0.0
C1783 C 0.71074 0.95307 0.84487 0.0
N1784 N 0.72194 0.87513 0.84444 0.0
N1785 N 0.72312 0.93732 0.85169 0.0
H1786 H 0.75436 0.01688 0.67679 0.0
H1787 H 0.70391 0.11717 0.62285 0.0
H1788 H 0.79673 0.08255 0.67849 0.0
H1789 H 0.68315 0.04502 0.59029 0.0
H1790 H 0.73503 0.1074 0.6499 0.0
H1791 H 0.72353 0.0302 0.65376 0.0
C1792 C 0.75709 0.03426 0.67274 0.0
C1793 C 0.77824 0.04851 0.67918 0.0
C1794 C 0.72362 0.09383 0.63672 0.0
C1795 C 0.74308 0.06371 0.65274 0.0
C1796 C 0.70602 0.09936 0.62111 0.0
C1797 C 0.69071 0.08184 0.60444 0.0
C1798 C 0.72556 0.07066 0.63589 0.0
C1799 C 0.69415 0.05903 0.60327 0.0
C1800 C 0.73954 0.04175 0.65941 0.0
C1801 C 0.78072 0.07095 0.67362 0.0
N1802 N 0.71104 0.05409 0.619 0.0
N1803 N 0.76332 0.07786 0.66048 0.0
H1804 H 0.40873 0.49117 0.79833 0.0
H1805 H 0.29798 0.40672 0.81827 0.0
H1806 H 0.34963 0.51919 0.81233 0.0
H1807 H 0.3653 0.39328 0.8303 0.0
H1808 H 0.31343 0.4459 0.81094 0.0
H1809 H 0.39014 0.45381 0.80418 0.0
C1810 C 0.39172 0.48963 0.80252 0.0
C1811 C 0.38101 0.50895 0.80483 0.0
C1812 C 0.32475 0.43432 0.81518 0.0
C1813 C 0.35904 0.4648 0.81168 0.0
C1814 C 0.31593 0.41185 0.81923 0.0
C1815 C 0.33029 0.39641 0.82495 0.0
C1816 C 0.34812 0.44134 0.81635 0.0
C1817 C 0.35343 0.40433 0.82605 0.0
C1818 C 0.38105 0.46798 0.80598 0.0
C1819 C 0.35878 0.50508 0.81035 0.0
N1820 N 0.36145 0.42587 0.82171 0.0
N1821 N 0.34856 0.48355 0.81352 0.0
H1822 H 0.20351 0.56826 0.30883 0.0
H1823 H 0.22932 0.67944 0.24332 0.0
H1824 H 0.1537 0.59262 0.26109 0.0
H1825 H 0.27455 0.66516 0.30449 0.0
H1826 H 0.2032 0.64457 0.24559 0.0
H1827 H 0.23146 0.60095 0.3038 0.0
C1828 C 0.19844 0.58045 0.2973 0.0
C1829 C 0.17618 0.57775 0.28548 0.0
C1830 C 0.21889 0.64901 0.25844 0.0
C1831 C 0.20809 0.61498 0.27948 0.0
C1832 C 0.2338 0.66894 0.25718 0.0
C1833 C 0.25409 0.67539 0.27389 0.0
C1834 C 0.22429 0.63532 0.27648 0.0
C1835 C 0.2592 0.6608 0.29109 0.0
C1836 C 0.2144 0.59908 0.29445 0.0
C1837 C 0.17059 0.59406 0.27072 0.0
N1838 N 0.24434 0.64151 0.29204 0.0
N1839 N 0.18644 0.61193 0.26813 0.0
H1840 H 0.58325 0.81322 0.48139 0.0
H1841 H 0.55026 0.68641 0.51182 0.0
H1842 H 0.54645 0.75658 0.42471 0.0
H1843 H 0.60538 0.7366 0.55551 0.0
H1844 H 0.54519 0.71289 0.48186 0.0
H1845 H 0.58797 0.78646 0.5109 0.0
C1846 C 0.57605 0.79514 0.47516 0.0
C1847 C 0.56441 0.78715 0.45048 0.0
C1848 C 0.5584 0.71809 0.49798 0.0
C1849 C 0.56973 0.75636 0.48438 0.0
C1850 C 0.56122 0.70307 0.51519 0.0
C1851 C 0.57824 0.70934 0.53628 0.0
C1852 C 0.57247 0.73974 0.50204 0.0
C1853 C 0.59214 0.73102 0.53948 0.0
C1854 C 0.57887 0.77986 0.49201 0.0
C1855 C 0.55557 0.7635 0.44351 0.0
N1856 N 0.58885 0.74549 0.52266 0.0
N1857 N 0.5583 0.74895 0.46042 0.0
H1858 H 0.62269 0.34977 0.80769 0.0
H1859 H 0.72283 0.27939 0.81503 0.0
H1860 H 0.62089 0.28604 0.75712 0.0
H1861 H 0.73781 0.35342 0.82289 0.0
H1862 H 0.68303 0.28044 0.80359 0.0
H1863 H 0.66273 0.35047 0.82266 0.0
C1864 C 0.63064 0.33589 0.79986 0.0
C1865 C 0.6184 0.31786 0.78103 0.0
C1866 C 0.695 0.29647 0.80806 0.0
C1867 C 0.6639 0.31829 0.79849 0.0
C1868 C 0.71775 0.29593 0.81475 0.0
C1869 C 0.73379 0.31637 0.81992 0.0
C1870 C 0.68796 0.31763 0.80707 0.0
C1871 C 0.72604 0.33726 0.81904 0.0
C1872 C 0.65347 0.33637 0.80832 0.0
C1873 C 0.62963 0.30036 0.77151 0.0
N1874 N 0.70368 0.33739 0.81285 0.0
N1875 N 0.65156 0.30089 0.78049 0.0
H1876 H 0.07967 0.41215 0.96972 0.0
H1877 H 1.01548 0.51269 0.00588 0.0
H1878 H 0.03978 0.43471 0.90997 0.0
H1879 H 0.08695 0.52451 0.0296 0.0
H1880 H 1.01851 0.4777 0.97672 0.0
H1881 H 0.07722 0.44749 0.99873 0.0
C1882 C 0.07035 0.42449 0.96279 0.0
C1883 C 0.06001 0.42068 0.93746 0.0
C1884 C 0.03345 0.48802 0.98838 0.0
C1885 C 0.05664 0.46039 0.97046 0.0
C1886 C 0.03175 0.50783 0.00499 0.0
C1887 C 0.05103 0.52146 0.01995 0.0
C1888 C 0.05442 0.48144 0.9875 0.0
C1889 C 0.07175 0.51451 0.01816 0.0
C1890 C 0.06904 0.44457 0.97924 0.0
C1891 C 0.04813 0.43717 0.92933 0.0
N1892 N 0.07289 0.49476 1.00242 0.0
N1893 N 0.0465 0.45621 0.94589 0.0
H1894 H 0.98684 0.79521 0.32714 0.0
H1895 H 0.8699 0.83143 0.27803 0.0
H1896 H 0.97738 0.82981 0.263 0.0
H1897 H 0.88038 0.8001 0.3445 0.0
H1898 H 0.90875 0.83014 0.27167 0.0
H1899 H 0.94797 0.79634 0.33339 0.0
C1900 C 0.97668 0.80314 0.31438 0.0
C1901 C 0.98565 0.81246 0.29449 0.0
C1902 C 0.90258 0.82349 0.28763 0.0
C1903 C 0.94064 0.81368 0.30154 0.0
C1904 C 0.8803 0.82415 0.29125 0.0
C1905 C 0.87166 0.81583 0.31185 0.0
C1906 C 0.91658 0.8144 0.30467 0.0
C1907 C 0.88615 0.80669 0.32833 0.0
C1908 C 0.95437 0.80374 0.31797 0.0
C1909 C 0.97139 0.82244 0.27863 0.0
N1910 N 0.90778 0.80624 0.3244 0.0
N1911 N 0.94972 0.82273 0.28246 0.0
H1912 H 0.54819 0.34383 0.17704 0.0
H1913 H 0.53995 0.40638 0.0557 0.0
H1914 H 0.5131 0.31093 0.10293 0.0
H1915 H 0.57582 0.43993 0.12925 0.0
H1916 H 0.53166 0.3707 0.07236 0.0
H1917 H 0.55976 0.3788 0.15976 0.0
C1918 C 0.54296 0.34395 0.15714 0.0
C1919 C 0.5296 0.32447 0.14143 0.0
C1920 C 0.54144 0.38582 0.08486 0.0
C1921 C 0.54277 0.36436 0.12153 0.0
C1922 C 0.54635 0.40618 0.07528 0.0
C1923 C 0.5586 0.42623 0.09109 0.0
C1924 C 0.54876 0.38543 0.11049 0.0
C1925 C 0.56607 0.42499 0.11646 0.0
C1926 C 0.54958 0.3639 0.14728 0.0
C1927 C 0.52334 0.32556 0.11577 0.0
N1928 N 0.56097 0.40496 0.12539 0.0
N1929 N 0.52993 0.34517 0.10666 0.0
H1930 H 0.0652 0.43899 0.42205 0.0
H1931 H 0.93566 0.39263 0.42139 0.0
H1932 H 0.03941 0.38991 0.46744 0.0
H1933 H 0.9614 0.43345 0.36808 0.0
H1934 H 0.97301 0.40005 0.44602 0.0
H1935 H 0.02713 0.44498 0.40963 0.0
C1936 C 0.05158 0.42964 0.42965 0.0
C1937 C 0.05546 0.41351 0.44537 0.0
C1938 C 0.97042 0.40775 0.42919 0.0
C1939 C 1.01184 0.42034 0.43119 0.0
C1940 C 0.94902 0.40372 0.41522 0.0
C1941 C 0.94548 0.41216 0.39239 0.0
C1942 C 0.98841 0.4202 0.42021 0.0
C1943 C 0.96351 0.42622 0.38527 0.0
C1944 C 0.02984 0.43311 0.42256 0.0
C1945 C 0.03718 0.40221 0.45493 0.0
N1946 N 0.9843 0.42951 0.39892 0.0
N1947 N 1.01612 0.40561 0.44741 0.0
H1948 H 0.98366 0.7207 0.59612 0.0
H1949 H 0.04098 0.62601 0.61485 0.0
H1950 H 0.95122 0.66664 0.63118 0.0
H1951 H 0.03202 0.63311 0.53596 0.0
H1952 H 1.00905 0.64466 0.62108 0.0
H1953 H 0.99967 0.69213 0.57004 0.0
C1954 C 0.97885 0.70269 0.5974 0.0
C1955 C 0.96692 0.69615 0.61671 0.0
C1956 C 1.01389 0.64194 0.60231 0.0
C1957 C 0.98546 0.66378 0.58735 0.0
C1958 C 0.03228 0.63155 0.5988 0.0
C1959 C 0.03907 0.62801 0.57484 0.0
C1960 C 1.00269 0.6498 0.58201 0.0
C1961 C 0.02719 0.63563 0.55472 0.0
C1962 C 0.98814 0.68641 0.58254 0.0
C1963 C 0.96103 0.67253 0.61718 0.0
N1964 N 1.00974 0.64673 0.55886 0.0
N1965 N 0.97116 0.65727 0.60355 0.0
H1966 H 0.63753 0.88589 0.90052 0.0
H1967 H 0.70016 0.79447 0.82751 0.0
H1968 H 0.66875 0.83669 0.9364 0.0
H1969 H 0.67325 0.84702 0.79317 0.0
H1970 H 0.68458 0.80645 0.86576 0.0
H1971 H 0.64809 0.87003 0.86024 0.0
C1972 C 0.64676 0.87181 0.89996 0.0
C1973 C 0.65228 0.86259 0.92188 0.0
C1974 C 0.68174 0.81512 0.84973 0.0
C1975 C 0.66413 0.84406 0.87559 0.0
C1976 C 0.6903 0.80802 0.8276 0.0
C1977 C 0.68819 0.81987 0.80702 0.0
C1978 C 0.67081 0.83411 0.85131 0.0
C1979 C 0.67558 0.8376 0.80865 0.0
C1980 C 0.65267 0.86268 0.87688 0.0
C1981 C 0.66427 0.84439 0.92 0.0
N1982 N 0.66753 0.84429 0.8305 0.0
N1983 N 0.66972 0.83565 0.89721 0.0
H1984 H 0.42329 0.56193 0.7123 0.0
H1985 H 0.52783 0.61483 0.649 0.0
H1986 H 0.47324 0.61822 0.75471 0.0
H1987 H 0.5019 0.5419 0.63624 0.0
H1988 H 0.50368 0.62027 0.68241 0.0
H1989 H 0.44713 0.55821 0.67863 0.0
C1990 C 0.4391 0.57372 0.71445 0.0
C1991 C 0.44613 0.59042 0.73658 0.0
C1992 C 0.50332 0.6031 0.67225 0.0
C1993 C 0.47356 0.58648 0.69757 0.0
C1994 C 0.51711 0.59998 0.65314 0.0
C1995 C 0.51723 0.57783 0.63979 0.0
C1996 C 0.48887 0.58405 0.67757 0.0
C1997 C 0.50272 0.55929 0.64606 0.0
C1998 C 0.4528 0.5715 0.69523 0.0
C1999 C 0.46704 0.60504 0.73813 0.0
N2000 N 0.48911 0.56283 0.66412 0.0
N2001 N 0.47983 0.60288 0.71896 0.0
H2002 H 0.87325 0.24316 0.98079 0.0
H2003 H 0.80764 0.33166 0.91817 0.0
H2004 H 0.85 0.29851 0.02533 0.0
H2005 H 0.8252 0.27125 0.87615 0.0
H2006 H 0.82442 0.32141 0.95764 0.0
H2007 H 0.85853 0.25578 0.94223 0.0
C2008 C 0.86536 0.25823 0.98249 0.0
C2009 C 0.8628 0.26974 0.00637 0.0
C2010 C 0.82448 0.31038 0.93976 0.0
C2011 C 0.84543 0.28407 0.96209 0.0
C2012 C 0.81477 0.31613 0.91723 0.0
C2013 C 0.81495 0.30229 0.89376 0.0
C2014 C 0.83454 0.29073 0.93878 0.0
C2015 C 0.82461 0.28246 0.89374 0.0
C2016 C 0.85677 0.26532 0.96041 0.0
C2017 C 0.85238 0.28914 0.00732 0.0
N2018 N 0.83406 0.27736 0.91582 0.0
N2019 N 0.84391 0.2956 0.98549 0.0
H2020 H 0.13806 0.48992 0.20508 0.0
H2021 H 0.04622 0.5504 0.13451 0.0
H2022 H 0.07909 0.50383 0.2369 0.0
H2023 H 0.11266 0.54869 0.11576 0.0
H2024 H 0.05385 0.52681 0.16744 0.0
H2025 H 0.12441 0.50401 0.16704 0.0
C2026 C 0.12206 0.49562 0.20393 0.0
C2027 C 0.1099 0.496 0.22442 0.0
C2028 C 0.0666 0.53144 0.15587 0.0
C2029 C 0.09422 0.51254 0.18087 0.0
C2030 C 0.06223 0.5448 0.1371 0.0
C2031 C 0.07893 0.55164 0.12265 0.0
C2032 C 0.08766 0.52471 0.15975 0.0
C2033 C 0.09939 0.544 0.12668 0.0
C2034 C 0.1143 0.50379 0.18221 0.0
C2035 C 0.08914 0.50342 0.22166 0.0
N2036 N 0.10318 0.53106 0.14482 0.0
N2037 N 0.08208 0.51169 0.20044 0.0
H2038 H 0.81928 0.95595 0.61545 0.0
H2039 H 0.79809 0.92435 0.46404 0.0
H2040 H 0.80832 1.0061 0.56743 0.0
H2041 H 0.82328 0.88091 0.51377 0.0
H2042 H 0.79699 0.95302 0.50127 0.0
H2043 H 0.81528 0.92663 0.57789 0.0
C2044 C 0.81592 0.96082 0.59699 0.0
C2045 C 0.81438 0.98364 0.59463 0.0
C2046 C 0.80264 0.93715 0.50396 0.0
C2047 C 0.80985 0.94995 0.55136 0.0
C2048 C 0.8034 0.92081 0.48274 0.0
C2049 C 0.81087 0.90016 0.48573 0.0
C2050 C 0.80929 0.93274 0.52832 0.0
C2051 C 0.81711 0.89637 0.51046 0.0
C2052 C 0.81367 0.94402 0.57551 0.0
C2053 C 0.80977 0.98876 0.57015 0.0
N2054 N 0.81622 0.91251 0.53074 0.0
N2055 N 0.80779 0.97205 0.54941 0.0
H2056 H 0.4343 0.59951 0.90118 0.0
H2057 H 0.53759 0.56492 0.98437 0.0
H2058 H 0.49327 0.58085 0.87293 0.0
H2059 H 0.49188 0.60238 0.02063 0.0
H2060 H 0.5189 0.56874 0.94322 0.0
H2061 H 0.45266 0.59981 0.94486 0.0
C2062 C 0.4511 0.59576 0.90407 0.0
C2063 C 0.46205 0.58991 0.8831 0.0
C2064 C 0.51287 0.57623 0.96009 0.0
C2065 C 0.48298 0.5899 0.93289 0.0
C2066 C 0.52355 0.57395 0.98375 0.0
C2067 C 0.51637 0.58328 0.00621 0.0
C2068 C 0.49452 0.58775 0.95843 0.0
C2069 C 0.49807 0.59492 1.00387 0.0
C2070 C 0.46153 0.59585 0.92899 0.0
C2071 C 0.48384 0.58515 0.88819 0.0
N2072 N 0.48767 0.59671 0.98044 0.0
N2073 N 0.49334 0.58507 0.91227 0.0
H2074 H 0.8558 0.28999 0.14288 0.0
H2075 H 0.80912 0.26659 0.26886 0.0
H2076 H 0.86722 0.23322 0.18061 0.0
H2077 H 0.81815 0.3353 0.25135 0.0
H2078 H 0.83043 0.25491 0.23554 0.0
H2079 H 0.84318 0.30843 0.18143 0.0
C2080 C 0.85629 0.28173 0.15946 0.0
C2081 C 0.86233 0.25987 0.1584 0.0
C2082 C 0.82797 0.27263 0.23893 0.0
C2083 C 0.84754 0.28057 0.20215 0.0
C2084 C 0.81564 0.27928 0.25793 0.0
C2085 C 0.81168 0.30191 0.26275 0.0
C2086 C 0.83616 0.2885 0.22399 0.0
C2087 C 0.8208 0.31766 0.24814 0.0
C2088 C 0.84894 0.29219 0.18137 0.0
C2089 C 0.86242 0.24989 0.18037 0.0
N2090 N 0.83236 0.31057 0.22906 0.0
N2091 N 0.85485 0.26012 0.20108 0.0
H2092 H 0.13129 0.51972 0.38678 0.0
H2093 H 0.04736 0.57666 0.46952 0.0
H2094 H 0.07565 0.54866 0.35617 0.0
H2095 H 0.10513 0.55276 0.50325 0.0
H2096 H 0.05801 0.56627 0.42785 0.0
H2097 H 0.12216 0.53086 0.42955 0.0
C2098 C 0.11713 0.5283 0.389 0.0
C2099 C 0.10425 0.53327 0.36778 0.0
C2100 C 0.06847 0.56338 0.44433 0.0
C2101 C 0.09383 0.54614 0.41659 0.0
C2102 C 0.06241 0.56937 0.4682 0.0
C2103 C 0.07537 0.56561 0.48997 0.0
C2104 C 0.0876 0.55338 0.44201 0.0
C2105 C 0.09471 0.55611 0.48699 0.0
C2106 C 0.112 0.53473 0.41342 0.0
C2107 C 0.08614 0.54449 0.37186 0.0
N2108 N 0.10019 0.55019 0.46342 0.0
N2109 N 0.08151 0.55051 0.39569 0.0
H2110 H 0.85436 0.99176 0.7666 0.0
H2111 H 0.82982 0.8578 0.77697 0.0
H2112 H 0.83422 0.93718 0.70156 0.0
H2113 H 0.83581 0.91331 0.84015 0.0
H2114 H 0.83699 0.8864 0.74919 0.0
H2115 H 0.85376 0.96277 0.79423 0.0
C2116 C 0.85005 0.97369 0.75813 0.0
C2117 C 0.84409 0.96686 0.73182 0.0
C2118 C 0.83684 0.89227 0.76919 0.0
C2119 C 0.84327 0.93367 0.76319 0.0
C2120 C 0.83276 0.87601 0.78498 0.0
C2121 C 0.83212 0.88331 0.81078 0.0
C2122 C 0.84043 0.91589 0.77944 0.0
C2123 C 0.83605 0.90701 0.82033 0.0
C2124 C 0.84962 0.95715 0.77387 0.0
C2125 C 0.83871 0.9432 0.72182 0.0
N2126 N 0.84001 0.92245 0.80464 0.0
N2127 N 0.83829 0.92744 0.73752 0.0
H2128 H 0.65133 0.43818 0.59504 0.0
H2129 H 0.62816 0.56777 0.60755 0.0
H2130 H 0.70213 0.49779 0.59643 0.0
H2131 H 0.57691 0.50845 0.60509 0.0
H2132 H 0.65653 0.54299 0.60978 0.0
H2133 H 0.6245 0.46394 0.60367 0.0
C2134 C 0.65686 0.45663 0.59726 0.0
C2135 C 0.67894 0.46578 0.59474 0.0
C2136 C 0.63909 0.53544 0.60914 0.0
C2137 C 0.64847 0.49538 0.60475 0.0
C2138 C 0.62295 0.54967 0.60818 0.0
C2139 C 0.60017 0.54008 0.60584 0.0
C2140 C 0.63232 0.51151 0.60773 0.0
C2141 C 0.5943 0.51644 0.60643 0.0
C2142 C 0.64158 0.47136 0.60225 0.0
C2143 C 0.68523 0.48989 0.59797 0.0
N2144 N 0.61019 0.50293 0.607 0.0
N2145 N 0.67009 0.50378 0.60265 0.0
H2146 H 0.18666 0.08956 0.46251 0.0
H2147 H 0.12197 0.13482 0.57172 0.0
H2148 H 0.18637 0.16186 0.48666 0.0
H2149 H 0.09523 0.06951 0.52288 0.0
H2150 H 0.14894 0.14323 0.54299 0.0
H2151 H 0.1549 0.08007 0.48533 0.0
C2152 C 0.17965 0.10341 0.47215 0.0
C2153 C 0.18937 0.12654 0.47301 0.0
C2154 C 0.13712 0.12708 0.5385 0.0
C2155 C 0.15365 0.1158 0.49944 0.0
C2156 C 0.12189 0.12217 0.555 0.0
C2157 C 0.1064 0.10145 0.54958 0.0
C2158 C 0.13715 0.11097 0.51667 0.0
C2159 C 0.10696 0.0857 0.52762 0.0
C2160 C 0.16162 0.09797 0.48519 0.0
C2161 C 0.1796 0.14379 0.48572 0.0
N2162 N 0.12226 0.0907 0.51196 0.0
N2163 N 0.16255 0.13807 0.49883 0.0
H2164 H 0.19843 0.97551 0.84505 0.0
H2165 H 0.30561 0.91385 0.8258 0.0
H2166 H 0.26288 1.0133 0.83766 0.0
H2167 H 0.24233 0.87832 0.83976 0.0
H2168 H 0.29052 0.94988 0.82902 0.0
H2169 H 0.21417 0.94006 0.8423 0.0
C2170 C 0.21595 0.9765 0.84292 0.0
C2171 C 0.22919 0.99785 0.84169 0.0
C2172 C 0.27989 0.93422 0.83138 0.0
C2173 C 0.24763 0.95644 0.83827 0.0
C2174 C 0.28853 0.91347 0.82949 0.0
C2175 C 0.27538 0.89258 0.83243 0.0
C2176 C 0.25772 0.93448 0.83619 0.0
C2177 C 0.25331 0.8937 0.83728 0.0
C2178 C 0.22497 0.95605 0.84132 0.0
C2179 C 0.25185 0.99751 0.83882 0.0
N2180 N 0.24531 0.91402 0.83893 0.0
N2181 N 0.26022 0.97734 0.83716 0.0
H2182 H 0.29856 0.96185 0.09211 0.0
H2183 H 0.38187 0.05674 0.04277 0.0
H2184 H 0.27781 1.00456 0.03899 0.0
H2185 H 0.40421 1.01237 0.09305 0.0
H2186 H 0.34322 0.04117 0.04593 0.0
H2187 H 0.33692 0.98307 0.09684 0.0
C2188 C 0.30204 0.97575 0.08154 0.0
C2189 C 0.28501 0.98127 0.06489 0.0
C2190 C 0.35655 0.03494 0.05645 0.0
C2191 C 0.32876 1.00559 0.07028 0.0
C2192 C 0.37866 0.04398 0.05483 0.0
C2193 C 0.3963 0.03572 0.06754 0.0
C2194 C 0.352 0.01739 0.07073 0.0
C2195 C 0.39109 0.01891 0.08256 0.0
C2196 C 0.32392 0.98786 0.08428 0.0
C2197 C 0.29044 0.99953 0.05182 0.0
N2198 N 0.36936 1.01013 0.08358 0.0
N2199 N 0.31186 1.01095 0.0547 0.0
H2200 H 0.89706 0.68134 0.78898 0.0
H2201 H 0.88375 0.80684 0.84579 0.0
H2202 H 0.95226 0.73078 0.8338 0.0
H2203 H 0.84142 0.76896 0.77808 0.0
H2204 H 0.90855 0.77869 0.84236 0.0
H2205 H 0.87587 0.71247 0.78512 0.0
C2206 C 0.90474 0.69875 0.798 0.0
C2207 C 0.92638 0.70344 0.81201 0.0
C2208 C 0.89425 0.77686 0.82779 0.0
C2209 C 0.90217 0.73907 0.80767 0.0
C2210 C 0.88006 0.79288 0.82984 0.0
C2211 C 0.8606 0.79028 0.8123 0.0
C2212 C 0.88889 0.75784 0.80806 0.0
C2213 C 0.85639 0.77173 0.79194 0.0
C2214 C 0.89269 0.71652 0.79559 0.0
C2215 C 0.93558 0.72636 0.823 0.0
N2216 N 0.87027 0.75595 0.79058 0.0
N2217 N 0.92331 0.74327 0.82089 0.0
H2218 H 0.78185 0.54545 0.01299 0.0
H2219 H 0.91446 0.5639 0.01495 0.0
H2220 H 0.81869 0.59705 0.97799 0.0
H2221 H 0.87877 0.52043 0.05966 0.0
H2222 H 0.87882 0.57149 0.99554 0.0
H2223 H 0.81641 0.53151 0.02428 0.0
C2224 C 0.79715 0.55374 0.00743 0.0
C2225 C 0.79737 0.57269 0.99478 0.0
C2226 C 0.87875 0.56012 0.00942 0.0
C2227 C 0.8371 0.55677 0.00782 0.0
C2228 C 0.89909 0.55562 0.02038 0.0
C2229 C 0.89959 0.54152 0.03902 0.0
C2230 C 0.85874 0.55046 0.01711 0.0
C2231 C 0.87916 0.53161 0.04561 0.0
C2232 C 0.81691 0.54576 0.01396 0.0
C2233 C 0.81773 0.58253 0.98791 0.0
N2234 N 0.85956 0.53636 0.03474 0.0
N2235 N 0.83682 0.57457 0.99472 0.0
H2236 H 0.25652 0.13814 0.84346 0.0
H2237 H 0.23595 0.26396 0.81924 0.0
H2238 H 0.19332 0.16182 0.83977 0.0
H2239 H 0.30326 0.25129 0.835 0.0
H2240 H 0.22137 0.22542 0.82594 0.0
H2241 H 0.27517 0.1776 0.84031 0.0
C2242 C 0.24655 0.15149 0.84228 0.0
C2243 C 0.22309 0.14618 0.84178 0.0
C2244 C 0.23937 0.23083 0.82808 0.0
C2245 C 0.24442 0.19157 0.83786 0.0
C2246 C 0.2478 0.25307 0.82418 0.0
C2247 C 0.27098 0.26125 0.82649 0.0
C2248 C 0.25401 0.21586 0.83423 0.0
C2249 C 0.28527 0.24595 0.83306 0.0
C2250 C 0.25723 0.17407 0.84037 0.0
C2251 C 0.2113 0.16452 0.84003 0.0
N2252 N 0.27659 0.22402 0.83654 0.0
N2253 N 0.22193 0.18592 0.83804 0.0
H2254 H 0.44325 0.04621 0.30222 0.0
H2255 H 0.33247 1.00777 0.36158 0.0
H2256 H 0.40504 0.09467 0.33558 0.0
H2257 H 0.36156 0.96097 0.31184 0.0
H2258 H 0.35975 0.03993 0.35389 0.0
H2259 H 0.41411 1.01459 0.30692 0.0
C2260 C 0.42869 0.05021 0.31041 0.0
C2261 C 0.42662 0.07313 0.31855 0.0
C2262 C 0.36001 0.02263 0.34452 0.0
C2263 C 0.39331 0.03704 0.3242 0.0
C2264 C 0.34454 1.0043 0.34899 0.0
C2265 C 0.3447 0.98172 0.33724 0.0
C2266 C 0.37593 0.01825 0.32847 0.0
C2267 C 0.36063 0.97815 0.321 0.0
C2268 C 0.41204 0.03216 0.31306 0.0
C2269 C 0.40734 0.07727 0.329 0.0
N2270 N 0.37567 0.99619 0.31723 0.0
N2271 N 0.39152 0.0594 0.3317 0.0
H2272 H 0.52771 0.33715 0.66271 0.0
H2273 H 0.55183 0.46509 0.63366 0.0
H2274 H 0.55792 0.39538 0.72099 0.0
H2275 H 0.49836 0.41292 0.58998 0.0
H2276 H 0.55883 0.43865 0.66316 0.0
H2277 H 0.52147 0.36357 0.63308 0.0
C2278 C 0.53319 0.3555 0.66924 0.0
C2279 C 0.54337 0.36407 0.69441 0.0
C2280 C 0.54558 0.433 0.64712 0.0
C2281 C 0.53635 0.39438 0.66045 0.0
C2282 C 0.54166 0.448 0.63019 0.0
C2283 C 0.52451 0.44114 0.60929 0.0
C2284 C 0.53252 0.41081 0.64292 0.0
C2285 C 0.51167 0.41891 0.6059 0.0
C2286 C 0.52949 0.37055 0.65234 0.0
C2287 C 0.54998 0.38803 0.7018 0.0
N2288 N 0.51604 0.40447 0.62243 0.0
N2289 N 0.54647 0.40235 0.68487 0.0
H2290 H 0.49094 0.86451 0.32503 0.0
H2291 H 0.36452 0.80963 0.33641 0.0
H2292 H 0.47765 0.81382 0.37314 0.0
H2293 H 0.38501 0.87833 0.32193 0.0
H2294 H 0.40433 0.80511 0.34169 0.0
H2295 H 0.45083 0.86367 0.3153 0.0
C2296 C 0.47963 0.85295 0.33341 0.0
C2297 C 0.48799 0.8393 0.35013 0.0
C2298 C 0.4 0.82103 0.33703 0.0
C2299 C 0.44137 0.83824 0.33873 0.0
C2300 C 0.37729 0.82351 0.33371 0.0
C2301 C 0.37141 0.84433 0.32845 0.0
C2302 C 0.41683 0.83931 0.3345 0.0
C2303 C 0.38873 0.86194 0.32579 0.0
C2304 C 0.45661 0.85258 0.32785 0.0
C2305 C 0.47214 0.82473 0.36024 0.0
N2306 N 0.41048 0.85901 0.3287 0.0
N2307 N 0.44963 0.82459 0.35441 0.0
H2308 H 0.07778 0.73081 0.23958 0.0
H2309 H 1.01038 0.63436 0.12923 0.0
H2310 H 0.01914 0.74451 0.19559 0.0
H2311 H 0.08201 0.65414 0.13384 0.0
H2312 H 1.01035 0.66883 0.1608 0.0
H2313 H 0.0767 0.69617 0.20811 0.0
C2314 C 0.06454 0.72637 0.22344 0.0
C2315 C 0.04852 0.7405 0.2201 0.0
C2316 C 0.02601 0.6655 0.15483 0.0
C2317 C 0.04701 0.70085 0.18453 0.0
C2318 C 0.02608 0.64589 0.13702 0.0
C2319 C 0.04623 0.64154 0.12897 0.0
C2320 C 0.04632 0.68031 0.1652 0.0
C2321 C 0.06612 0.65701 0.13949 0.0
C2322 C 0.06404 0.70675 0.2055 0.0
C2323 C 0.03183 0.73408 0.19874 0.0
N2324 N 0.06572 0.6756 0.15733 0.0
N2325 N 0.03135 0.71454 0.18183 0.0
H2326 H 0.14396 0.35578 0.91582 0.0
H2327 H 0.22133 0.34673 0.80556 0.0
H2328 H 0.11611 0.34038 0.83644 0.0
H2329 H 0.24425 0.34467 0.88392 0.0
H2330 H 0.18356 0.34869 0.81627 0.0
H2331 H 0.18136 0.35586 0.90423 0.0
C2332 C 0.14566 0.35245 0.89589 0.0
C2333 C 0.12669 0.348 0.87711 0.0
C2334 C 0.1969 0.34791 0.83111 0.0
C2335 C 0.16994 0.3482 0.8636 0.0
C2336 C 0.21853 0.34695 0.82505 0.0
C2337 C 0.2361 0.34555 0.84385 0.0
C2338 C 0.1928 0.34774 0.85623 0.0
C2339 C 0.23131 0.34569 0.86874 0.0
C2340 C 0.16712 0.35246 0.88928 0.0
C2341 C 0.13017 0.3438 0.8516 0.0
N2342 N 0.21024 0.34679 0.87416 0.0
N2343 N 0.15133 0.34406 0.8456 0.0
H2344 H 0.56079 0.80541 0.98571 0.0
H2345 H 0.57569 0.7369 0.10175 0.0
H2346 H 0.61682 0.82306 0.04639 0.0
H2347 H 0.5219 0.71526 0.03875 0.0
H2348 H 0.5893 0.77023 0.08306 0.0
H2349 H 0.5451 0.77337 0.0056 0.0
C2350 C 0.56983 0.8025 1.00315 0.0
C2351 C 0.59017 0.8169 0.01437 0.0
C2352 C 0.57444 0.75828 0.07336 0.0
C2353 C 0.57225 0.78045 0.03732 0.0
C2354 C 0.56651 0.73934 0.08417 0.0
C2355 C 0.5476 0.72322 0.07181 0.0
C2356 C 0.56344 0.76119 0.04995 0.0
C2357 C 0.53668 0.72711 0.0488 0.0
C2358 C 0.56084 0.78426 0.01453 0.0
C2359 C 0.60112 0.81239 0.03702 0.0
N2360 N 0.5448 0.74565 0.03857 0.0
N2361 N 0.59202 0.7946 0.04773 0.0
H2362 H 0.03935 0.73388 0.73814 0.0
H2363 H 0.16807 0.73088 0.72955 0.0
H2364 H 0.06948 0.74214 0.67085 0.0
H2365 H 0.13963 0.74187 0.7991 0.0
H2366 H 0.13022 0.72322 0.7056 0.0
H2367 H 0.07409 0.72482 0.7579 0.0
C2368 C 0.05325 0.7336 0.72743 0.0
C2369 C 0.05176 0.73932 0.70306 0.0
C2370 C 0.13236 0.72685 0.72614 0.0
C2371 C 0.09158 0.729 0.72561 0.0
C2372 C 0.15394 0.73131 0.73985 0.0
C2373 C 0.15721 0.73767 0.76644 0.0
C2374 C 0.11396 0.7285 0.73914 0.0
C2375 C 0.13816 0.73712 0.77872 0.0
C2376 C 0.07305 0.72836 0.7387 0.0
C2377 C 0.0701 0.73819 0.68985 0.0
N2378 N 0.11742 0.73299 0.76495 0.0
N2379 N 0.08945 0.7335 0.70147 0.0
H2380 H 0.12619 0.42681 0.55377 0.0
H2381 H 0.06687 0.51816 0.51396 0.0
H2382 H 0.15507 0.47174 0.50588 0.0
H2383 H 0.07061 0.51314 0.59332 0.0
H2384 H 0.09945 0.49967 0.51162 0.0
H2385 H 0.10861 0.45784 0.57279 0.0
C2386 C 0.12972 0.44348 0.54801 0.0
C2387 C 0.1411 0.44626 0.52715 0.0
C2388 C 0.09332 0.50279 0.52965 0.0
C2389 C 0.12075 0.48143 0.54852 0.0
C2390 C 0.0745 0.51299 0.53088 0.0
C2391 C 0.06596 0.51688 0.5538 0.0
C2392 C 0.10325 0.49564 0.55124 0.0
C2393 C 0.07667 0.51014 0.57525 0.0
C2394 C 0.11954 0.46116 0.55884 0.0
C2395 C 0.14563 0.46845 0.52112 0.0
N2396 N 0.09458 0.49931 0.57336 0.0
N2397 N 0.13462 0.48493 0.53095 0.0
H2398 H 0.47363 0.31174 0.22343 0.0
H2399 H 0.42747 0.31337 0.35598 0.0
H2400 H 0.44688 0.25104 0.25238 0.0
H2401 H 0.44467 0.37519 0.32433 0.0
H2402 H 0.43903 0.29137 0.3201 0.0
H2403 H 0.46481 0.33575 0.26059 0.0
C2404 C 0.46559 0.30343 0.23735 0.0
C2405 C 0.46108 0.27927 0.23474 0.0
C2406 C 0.44018 0.30975 0.321 0.0
C2407 C 0.45146 0.3067 0.2776 0.0
C2408 C 0.43384 0.32261 0.34183 0.0
C2409 C 0.43402 0.34637 0.34313 0.0
C2410 C 0.44696 0.32053 0.30114 0.0
C2411 C 0.443 0.35683 0.32386 0.0
C2412 C 0.46075 0.31717 0.25867 0.0
C2413 C 0.45072 0.26954 0.2535 0.0
N2414 N 0.44878 0.34382 0.30352 0.0
N2415 N 0.44645 0.28327 0.27417 0.0
H2416 H 0.65651 0.54409 0.42123 0.0
H2417 H 0.56527 0.6023 0.4932 0.0
H2418 H 0.62892 0.60296 0.40369 0.0
H2419 H 0.59345 0.54749 0.52091 0.0
H2420 H 0.58807 0.60034 0.45921 0.0
H2421 H 0.63446 0.54325 0.45707 0.0
C2422 C 0.64613 0.55696 0.42495 0.0
C2423 C 0.6447 0.57357 0.40901 0.0
C2424 C 0.58937 0.58856 0.47253 0.0
C2425 C 0.61906 0.57249 0.44992 0.0
C2426 C 0.57613 0.58961 0.49204 0.0
C2427 C 0.5772 0.57503 0.51016 0.0
C2428 C 0.60421 0.5728 0.47063 0.0
C2429 C 0.59184 0.55901 0.50736 0.0
C2430 C 0.63338 0.55637 0.44535 0.0
C2431 C 0.63067 0.58962 0.41496 0.0
N2432 N 0.60478 0.55837 0.48812 0.0
N2433 N 0.61858 0.58858 0.43452 0.0
H2434 H 0.26864 0.93068 0.16486 0.0
H2435 H 0.28333 0.82052 0.22974 0.0
H2436 H 0.23688 0.86131 0.13018 0.0
H2437 H 0.30351 0.89094 0.26844 0.0
H2438 H 0.27034 0.83461 0.19105 0.0
H2439 H 0.28511 0.91587 0.20116 0.0
C2440 C 0.26511 0.91231 0.16487 0.0
C2441 C 0.25123 0.89724 0.14448 0.0
C2442 C 0.27775 0.84694 0.208 0.0
C2443 C 0.27024 0.88008 0.18604 0.0
C2444 C 0.28534 0.83892 0.23002 0.0
C2445 C 0.29437 0.85457 0.25244 0.0
C2446 C 0.27941 0.87077 0.20838 0.0
C2447 C 0.29642 0.87823 0.25172 0.0
C2448 C 0.27455 0.90385 0.18562 0.0
C2449 C 0.24736 0.87358 0.14555 0.0
N2450 N 0.28894 0.88557 0.23014 0.0
N2451 N 0.25681 0.86572 0.16598 0.0
H2452 H 0.97259 0.64962 0.90707 0.0
H2453 H 0.05421 0.61471 0.017 0.0
H2454 H 0.04004 0.63932 0.89995 0.0
H2455 H 0.98248 0.60662 0.0136 0.0
H2456 H 0.0515 0.63245 0.97874 0.0
H2457 H 0.97852 0.64344 0.95109 0.0
C2458 C 0.98884 0.64667 0.91493 0.0
C2459 C 1.00575 0.6447 0.89967 0.0
C2460 C 0.03639 0.62701 0.98654 0.0
C2461 C 1.01254 0.63734 0.94993 0.0
C2462 C 0.03795 0.61689 0.00834 0.0
C2463 C 0.01853 0.60896 0.01821 0.0
C2464 C 1.01526 0.62938 0.97476 0.0
C2465 C 0.99785 0.61232 0.0064 0.0
C2466 C 0.99214 0.64292 0.94 0.0
C2467 C 0.02644 0.64072 0.91091 0.0
N2468 N 0.99674 0.62217 0.98524 0.0
N2469 N 0.02917 0.63693 0.93525 0.0
H2470 H 0.23847 0.14466 0.57561 0.0
H2471 H 0.31273 0.26022 0.65879 0.0
H2472 H 0.29283 0.18609 0.54956 0.0
H2473 H 0.24772 0.22985 0.67376 0.0
H2474 H 0.30963 0.22895 0.62273 0.0
H2475 H 0.24581 0.17161 0.6159 0.0
C2476 C 0.25211 0.15925 0.57847 0.0
C2477 C 0.2649 0.16328 0.5591 0.0
C2478 C 0.29611 0.22908 0.63401 0.0
C2479 C 0.27334 0.19409 0.60505 0.0
C2480 C 0.29792 0.24683 0.65461 0.0
C2481 C 0.28035 0.24768 0.66904 0.0
C2482 C 0.2767 0.21199 0.62801 0.0
C2483 C 0.26147 0.22999 0.66281 0.0
C2484 C 0.25621 0.17466 0.60141 0.0
C2485 C 0.28238 0.18247 0.56386 0.0
N2486 N 0.26011 0.21288 0.6427 0.0
N2487 N 0.28602 0.19722 0.58632 0.0
H2488 H 0.63044 0.5304 0.26628 0.0
H2489 H 0.60674 0.60642 0.16082 0.0
H2490 H 0.68176 0.58476 0.2547 0.0
H2491 H 0.58172 0.53321 0.14598 0.0
H2492 H 0.63008 0.60189 0.19963 0.0
H2493 H 0.60807 0.5339 0.22634 0.0
C2494 C 0.63704 0.543 0.2553 0.0
C2495 C 0.65811 0.55717 0.26379 0.0
C2496 C 0.61946 0.58685 0.18784 0.0
C2497 C 0.63226 0.56174 0.21847 0.0
C2498 C 0.60605 0.58942 0.16577 0.0
C2499 C 0.59224 0.57017 0.15002 0.0
C2500 C 0.61862 0.56496 0.19472 0.0
C2501 C 0.59216 0.54852 0.15742 0.0
C2502 C 0.62428 0.54497 0.23252 0.0
C2503 C 0.66574 0.5733 0.24879 0.0
N2504 N 0.60492 0.54655 0.17932 0.0
N2505 N 0.65274 0.57536 0.22709 0.0
H2506 H 0.25957 0.87931 0.02197 0.0
H2507 H 0.26105 0.82632 0.87782 0.0
H2508 H 0.20834 0.88815 0.96365 0.0
H2509 H 0.32014 0.86651 0.92565 0.0
H2510 H 0.23863 0.8365 0.9116 0.0
H2511 H 0.2788 0.86141 0.98902 0.0
C2512 C 0.25198 0.87689 1.0023 0.0
C2513 C 0.23228 0.88531 0.99559 0.0
C2514 C 0.25656 0.84274 0.91473 0.0
C2515 C 0.25421 0.86464 0.95788 0.0
C2516 C 0.26935 0.83682 0.89563 0.0
C2517 C 0.29246 0.84552 0.89908 0.0
C2518 C 0.26715 0.8568 0.93767 0.0
C2519 C 0.30237 0.85943 0.92231 0.0
C2520 C 0.26311 0.86686 0.98354 0.0
C2521 C 0.22349 0.88196 0.96968 0.0
N2522 N 0.28971 0.86451 0.9408 0.0
N2523 N 0.23452 0.87189 0.95174 0.0
H2524 H 0.95626 0.6209 0.72377 0.0
H2525 H 0.06019 0.58556 0.65941 0.0
H2526 H 0.02365 0.63306 0.76418 0.0
H2527 H 0.9937 0.58052 0.61881 0.0
H2528 H 0.04695 0.60055 0.69868 0.0
H2529 H 0.96972 0.60448 0.68556 0.0
C2530 C 0.97394 0.62021 0.72457 0.0
C2531 C 0.98886 0.62835 0.7472 0.0
C2532 C 0.03526 0.59599 0.68118 0.0
C2533 C 1.00441 0.60933 0.70347 0.0
C2534 C 0.04275 0.58725 0.65879 0.0
C2535 C 0.02804 0.58172 0.63576 0.0
C2536 C 1.0129 0.59915 0.68049 0.0
C2537 C 1.00568 0.58451 0.63607 0.0
C2538 C 0.98162 0.61077 0.70273 0.0
C2539 C 1.01159 0.62704 0.7471 0.0
N2540 N 0.99885 0.59309 0.65802 0.0
N2541 N 0.01868 0.61761 0.72557 0.0
H2542 H 0.25509 0.18264 0.39512 0.0
H2543 H 0.32127 0.30605 0.38942 0.0
H2544 H 0.30231 0.22031 0.45966 0.0
H2545 H 0.25228 0.28243 0.355 0.0
H2546 H 0.31829 0.27362 0.41277 0.0
H2547 H 0.25841 0.21732 0.37571 0.0
C2548 C 0.26644 0.19809 0.40501 0.0
C2549 C 0.27845 0.19865 0.429 0.0
C2550 C 0.30376 0.27583 0.40038 0.0
C2551 C 0.2822 0.23827 0.40702 0.0
C2552 C 0.30539 0.29435 0.38721 0.0
C2553 C 0.28702 0.29687 0.37022 0.0
C2554 C 0.28381 0.25954 0.39597 0.0
C2555 C 0.26686 0.28115 0.36789 0.0
C2556 C 0.2681 0.21791 0.39408 0.0
C2557 C 0.29274 0.21922 0.44112 0.0
N2558 N 0.26592 0.2629 0.38025 0.0
N2559 N 0.29432 0.23826 0.42993 0.0
H2560 H 0.43439 0.70705 0.5602 0.0
H2561 H 0.4693 0.58209 0.5466 0.0
H2562 H 0.39504 0.64603 0.57739 0.0
H2563 H 0.51708 0.64469 0.55143 0.0
H2564 H 0.43923 0.60477 0.54747 0.0
H2565 H 0.46285 0.68402 0.54845 0.0
C2566 C 0.43172 0.68891 0.56152 0.0
C2567 C 0.41242 0.6786 0.57015 0.0
C2568 C 0.45628 0.61351 0.54796 0.0
C2569 C 0.44445 0.65214 0.55616 0.0
C2570 C 0.47338 0.60051 0.54713 0.0
C2571 C 0.49571 0.61159 0.54931 0.0
C2572 C 0.46158 0.6377 0.55083 0.0
C2573 C 0.50009 0.63557 0.55018 0.0
C2574 C 0.44788 0.67578 0.55473 0.0
C2575 C 0.40975 0.65492 0.57124 0.0
N2576 N 0.48323 0.64788 0.55123 0.0
N2577 N 0.4255 0.64258 0.56433 0.0
H2578 H 0.90716 0.08983 0.65576 0.0
H2579 H 0.98319 0.01781 0.58696 0.0
H2580 H 0.90595 0.01908 0.66518 0.0
H2581 H 1.01311 0.08613 0.62683 0.0
H2582 H 0.95145 0.01886 0.6107 0.0
H2583 H 0.94393 0.09051 0.64144 0.0
C2584 C 0.91482 0.07464 0.65531 0.0
C2585 C 0.90348 0.05433 0.6615 0.0
C2586 C 0.96508 0.03354 0.6143 0.0
C2587 C 0.9448 0.05485 0.64456 0.0
C2588 C 0.98301 0.03301 0.60069 0.0
C2589 C 1.00059 0.05195 0.60497 0.0
C2590 C 0.96451 0.05337 0.63168 0.0
C2591 C 0.99973 0.07124 0.62303 0.0
C2592 C 0.93571 0.07506 0.64718 0.0
C2593 C 0.91411 0.0351 0.6606 0.0
N2594 N 0.98173 0.07164 0.63553 0.0
N2595 N 0.93397 0.03565 0.65166 0.0
H2596 H 0.8419 0.13922 0.30784 0.0
H2597 H 0.8643 0.2785 0.32613 0.0
H2598 H 0.90793 0.18107 0.32393 0.0
H2599 H 0.79929 0.23881 0.32803 0.0
H2600 H 0.87987 0.24293 0.32248 0.0
H2601 H 0.82563 0.17461 0.31231 0.0
C2602 C 0.85306 0.15577 0.31231 0.0
C2603 C 0.8765 0.15678 0.31553 0.0
C2604 C 0.8622 0.24189 0.32375 0.0
C2605 C 0.85768 0.198 0.32046 0.0
C2606 C 0.85319 0.26236 0.32583 0.0
C2607 C 0.83028 0.26209 0.32759 0.0
C2608 C 0.84835 0.22043 0.323 0.0
C2609 C 0.81702 0.24023 0.32695 0.0
C2610 C 0.84368 0.1761 0.31491 0.0
C2611 C 0.88983 0.17908 0.32131 0.0
N2612 N 0.82614 0.2205 0.3246 0.0
N2613 N 0.88034 0.19851 0.32342 0.0
H2614 H 0.78108 0.22056 0.0606 0.0
H2615 H 0.71795 0.09295 0.05933 0.0
H2616 H 0.81181 0.16039 0.04731 0.0
H2617 H 0.68442 0.15141 0.06087 0.0
H2618 H 0.7521 0.11715 0.05232 0.0
H2619 H 0.74482 0.19536 0.05791 0.0
C2620 C 0.78014 0.20206 0.05688 0.0
C2621 C 0.79945 0.19251 0.05452 0.0
C2622 C 0.7372 0.12463 0.05389 0.0
C2623 C 0.75826 0.16368 0.05155 0.0
C2624 C 0.71779 0.11085 0.05801 0.0
C2625 C 0.69848 0.12028 0.06081 0.0
C2626 C 0.73731 0.14804 0.0529 0.0
C2627 C 0.69897 0.14347 0.05865 0.0
C2628 C 0.75947 0.18769 0.05532 0.0
C2629 C 0.79734 0.16846 0.04952 0.0
N2630 N 0.71818 0.15665 0.05509 0.0
N2631 N 0.77713 0.15486 0.04847 0.0
H2632 H 0.16199 0.42556 0.3142 0.0
H2633 H 0.28759 0.41051 0.3616 0.0
H2634 H 0.21746 0.48277 0.33421 0.0
H2635 H 0.23797 0.35662 0.31425 0.0
H2636 H 0.26008 0.4365 0.36078 0.0
H2637 H 0.18787 0.39937 0.32313 0.0
C2638 C 0.17956 0.43264 0.32071 0.0
C2639 C 0.1876 0.45637 0.32323 0.0
C2640 C 0.25521 0.41889 0.35084 0.0
C2641 C 0.21726 0.42653 0.33368 0.0
C2642 C 0.27082 0.40406 0.35146 0.0
C2643 C 0.26507 0.38149 0.33782 0.0
C2644 C 0.23365 0.4109 0.33687 0.0
C2645 C 0.24315 0.37399 0.3248 0.0
C2646 C 0.19432 0.41769 0.32574 0.0
C2647 C 0.21056 0.46458 0.33178 0.0
N2648 N 0.22827 0.38864 0.32462 0.0
N2649 N 0.22459 0.44969 0.33666 0.0
H2650 H 0.25072 0.51982 0.15111 0.0
H2651 H 0.19607 0.625 0.11719 0.0
H2652 H 0.28577 0.5897 0.17784 0.0
H2653 H 0.18921 0.56099 0.06483 0.0
H2654 H 0.22463 0.61241 0.14499 0.0
H2655 H 0.22172 0.53447 0.12634 0.0
C2656 C 0.25206 0.53828 0.15227 0.0
C2657 C 0.27076 0.5536 0.16638 0.0
C2658 C 0.21687 0.60127 0.12732 0.0
C2659 C 0.2378 0.57032 0.13797 0.0
C2660 C 0.20077 0.6085 0.11125 0.0
C2661 C 0.19001 0.59397 0.08861 0.0
C2662 C 0.22187 0.57921 0.12094 0.0
C2663 C 0.19659 0.57258 0.08231 0.0
C2664 C 0.23565 0.54657 0.13789 0.0
C2665 C 0.27165 0.57734 0.16706 0.0
N2666 N 0.21188 0.56573 0.09855 0.0
N2667 N 0.2554 0.58503 0.15292 0.0
H2668 H 0.84988 0.01903 0.31228 0.0
H2669 H 0.86908 0.89272 0.33401 0.0
H2670 H 0.90908 0.99059 0.29988 0.0
H2671 H 0.80167 0.90515 0.31837 0.0
H2672 H 0.88348 0.93107 0.32622 0.0
H2673 H 0.83134 0.98046 0.31847 0.0
C2674 C 0.859 1.00488 0.31072 0.0
C2675 C 0.88129 1.00854 0.30548 0.0
C2676 C 0.8655 0.92559 0.32438 0.0
C2677 C 0.86016 0.9642 0.31299 0.0
C2678 C 0.85719 0.90352 0.32891 0.0
C2679 C 0.83402 0.89534 0.32682 0.0
C2680 C 0.85076 0.94038 0.31797 0.0
C2681 C 0.81964 0.9105 0.32008 0.0
C2682 C 0.84835 0.98278 0.31425 0.0
C2683 C 0.89201 0.98917 0.30383 0.0
N2684 N 0.82821 0.93227 0.31608 0.0
N2685 N 0.88154 0.96832 0.30771 0.0
H2686 H 0.70394 0.06423 0.81893 0.0
H2687 H 0.70937 0.18476 0.76964 0.0
H2688 H 0.64613 0.09059 0.78944 0.0
H2689 H 0.76775 0.16376 0.80605 0.0
H2690 H 0.68634 0.1495 0.77607 0.0
H2691 H 0.72798 0.1 0.81434 0.0
C2692 C 0.69627 0.07756 0.81171 0.0
C2693 C 0.67295 0.07431 0.80449 0.0
C2694 C 0.70419 0.15254 0.7827 0.0
C2695 C 0.70035 0.1151 0.79896 0.0
C2696 C 0.71736 0.17275 0.77909 0.0
C2697 C 0.74053 0.17735 0.78747 0.0
C2698 C 0.71418 0.13663 0.79475 0.0
C2699 C 0.74998 0.16086 0.7991 0.0
C2700 C 0.71002 0.09793 0.80901 0.0
C2701 C 0.66399 0.09219 0.79518 0.0
N2702 N 0.73676 0.14123 0.80245 0.0
N2703 N 0.67768 0.11168 0.7926 0.0
loop_
_geom_bond_atom_site_label_1
_geom_bond_atom_site_label_2
_geom_bond_distance
_geom_bond_site_symmetry_2
_ccdc_geom_bond_type
C0 O1 1.306 . S
C0 O3 1.160 . S
O1 C0 1.306 . S
O1 Cd2 2.228 . S
Cd2 O1 2.228 . S
Cd2 O6 2.273 . S
Cd2 O10 2.277 . S
O3 C0 1.160 . S
O3 Cd4 2.203 . S
Cd4 O3 2.203 . S
Cd4 O6 2.411 . S
Cd4 O7 2.333 . S
Cd4 O8 2.352 . S
Cd4 O12 2.277 . S
Cd4 O13 2.356 . S
C5 O10 1.209 . S
C5 O12 1.226 . S
O6 Cd2 2.273 . S
O6 Cd4 2.411 . S
O6 C9 1.320 . S
O7 Cd4 2.333 . S
O7 C9 1.214 . S
O8 Cd4 2.352 . S
O8 C11 1.258 . S
C9 O6 1.320 . S
C9 O7 1.214 . S
O10 Cd2 2.277 . S
O10 C5 1.209 . S
C11 O8 1.258 . S
C11 O13 1.282 . S
O12 Cd4 2.277 . S
O12 C5 1.226 . S
O13 Cd4 2.356 . S
O13 C11 1.282 . S
C14 O15 1.306 . S
C14 O17 1.160 . S
O15 C14 1.306 . S
O15 Cd16 2.228 1_655 S
Cd16 O15 2.228 1_455 S
Cd16 O20 2.273 . S
Cd16 O24 2.277 1_455 S
O17 C14 1.160 . S
O17 Cd18 2.166 1_655 S
Cd18 O17 2.166 1_455 S
Cd18 O20 2.429 . S
Cd18 O21 2.370 . S
Cd18 O22 2.346 . S
Cd18 O26 2.279 1_455 S
Cd18 O27 2.359 . S
C19 O24 1.209 . S
C19 O26 1.226 . S
O20 Cd16 2.273 . S
O20 Cd18 2.429 . S
O20 C23 1.320 . S
O21 Cd18 2.370 . S
O21 C23 1.214 . S
O22 Cd18 2.346 . S
O22 C25 1.258 . S
C23 O20 1.320 . S
C23 O21 1.214 . S
O24 Cd16 2.277 1_655 S
O24 C19 1.209 . S
C25 O22 1.258 . S
C25 O27 1.282 . S
O26 Cd18 2.279 1_655 S
O26 C19 1.226 . S
O27 Cd18 2.359 . S
O27 C25 1.282 . S
C28 O29 1.306 . S
C28 O31 1.160 . S
O29 C28 1.306 . S
O29 Cd30 2.228 . S
Cd30 O29 2.228 . S
Cd30 O34 2.273 . S
Cd30 O38 2.284 . S
O31 C28 1.160 . S
O31 Cd32 2.203 1_556 S
Cd32 O31 2.203 1_554 S
Cd32 O34 2.411 1_554 S
Cd32 O35 2.333 . S
Cd32 O36 2.352 1_554 S
Cd32 O40 2.277 . S
Cd32 O41 2.356 . S
C33 O38 1.202 1_554 S
C33 O40 1.226 . S
O34 Cd30 2.273 . S
O34 Cd32 2.411 1_556 S
O34 C37 1.320 . S
O35 Cd32 2.333 . S
O35 C37 1.214 1_554 S
O36 Cd32 2.352 1_556 S
O36 C39 1.258 1_556 S
C37 O34 1.320 . S
C37 O35 1.214 1_556 S
O38 Cd30 2.284 . S
O38 C33 1.202 1_556 S
C39 O36 1.258 1_554 S
C39 O41 1.282 . S
O40 Cd32 2.277 . S
O40 C33 1.226 . S
O41 Cd32 2.356 . S
O41 C39 1.282 . S
C42 O43 1.306 . S
C42 O45 1.160 . S
O43 C42 1.306 . S
O43 Cd44 2.228 . S
Cd44 O43 2.228 . S
Cd44 O48 2.273 . S
Cd44 O52 2.277 . S
O45 C42 1.160 . S
O45 Cd46 2.203 . S
Cd46 O45 2.203 . S
Cd46 O48 2.411 . S
Cd46 O49 2.333 . S
Cd46 O50 2.352 . S
Cd46 O54 2.277 . S
Cd46 O55 2.356 . S
C47 O52 1.209 . S
C47 O54 1.226 . S
O48 Cd44 2.273 . S
O48 Cd46 2.411 . S
O48 C51 1.320 . S
O49 Cd46 2.333 . S
O49 C51 1.214 . S
O50 Cd46 2.352 . S
O50 C53 1.258 . S
C51 O48 1.320 . S
C51 O49 1.214 . S
O52 Cd44 2.277 . S
O52 C47 1.209 . S
C53 O50 1.258 . S
C53 O55 1.282 . S
O54 Cd46 2.277 . S
O54 C47 1.226 . S
O55 Cd46 2.356 . S
O55 C53 1.282 . S
C56 O57 1.306 1_655 S
C56 O59 1.160 . S
O57 C56 1.306 1_455 S
O57 Cd58 2.228 . S
Cd58 O57 2.228 . S
Cd58 O62 2.273 . S
Cd58 O66 2.277 . S
O59 C56 1.160 . S
O59 Cd60 2.203 1_655 S
Cd60 O59 2.203 1_455 S
Cd60 O62 2.411 . S
Cd60 O63 2.333 . S
Cd60 O64 2.352 . S
Cd60 O68 2.277 . S
Cd60 O69 2.356 . S
C61 O66 1.209 . S
C61 O68 1.226 . S
O62 Cd58 2.273 . S
O62 Cd60 2.411 . S
O62 C65 1.320 . S
O63 Cd60 2.333 . S
O63 C65 1.214 . S
O64 Cd60 2.352 . S
O64 C67 1.258 . S
C65 O62 1.320 . S
C65 O63 1.214 . S
O66 Cd58 2.277 . S
O66 C61 1.209 . S
C67 O64 1.258 . S
C67 O69 1.282 . S
O68 Cd60 2.277 . S
O68 C61 1.226 . S
O69 Cd60 2.356 . S
O69 C67 1.282 . S
C70 O71 1.306 . S
C70 O73 1.160 . S
O71 C70 1.306 . S
O71 Cd72 2.228 . S
Cd72 O71 2.228 . S
Cd72 O76 2.273 . S
Cd72 O80 2.277 . S
O73 C70 1.160 . S
O73 Cd74 2.203 . S
Cd74 O73 2.203 . S
Cd74 O76 2.411 . S
Cd74 O77 2.333 . S
Cd74 O78 2.352 . S
Cd74 O82 2.277 . S
Cd74 O83 2.356 . S
C75 O80 1.209 . S
C75 O82 1.226 . S
O76 Cd72 2.273 . S
O76 Cd74 2.411 . S
O76 C79 1.320 . S
O77 Cd74 2.333 . S
O77 C79 1.214 . S
O78 Cd74 2.352 . S
O78 C81 1.258 . S
C79 O76 1.320 . S
C79 O77 1.214 . S
O80 Cd72 2.277 . S
O80 C75 1.209 . S
C81 O78 1.258 . S
C81 O83 1.282 . S
O82 Cd74 2.277 . S
O82 C75 1.226 . S
O83 Cd74 2.356 . S
O83 C81 1.282 . S
C84 O85 1.306 . S
C84 O87 1.160 . S
O85 C84 1.306 . S
O85 Cd86 2.228 . S
Cd86 O85 2.228 . S
Cd86 O90 2.273 . S
Cd86 O94 2.277 . S
O87 C84 1.160 . S
O87 Cd88 2.203 . S
Cd88 O87 2.203 . S
Cd88 O90 2.411 . S
Cd88 O91 2.333 . S
Cd88 O92 2.352 . S
Cd88 O96 2.277 . S
Cd88 O97 2.356 . S
C89 O94 1.209 . S
C89 O96 1.226 . S
O90 Cd86 2.273 . S
O90 Cd88 2.411 . S
O90 C93 1.320 . S
O91 Cd88 2.333 . S
O91 C93 1.214 . S
O92 Cd88 2.352 . S
O92 C95 1.258 . S
C93 O90 1.320 . S
C93 O91 1.214 . S
O94 Cd86 2.277 . S
O94 C89 1.209 . S
C95 O92 1.258 . S
C95 O97 1.282 . S
O96 Cd88 2.277 . S
O96 C89 1.226 . S
O97 Cd88 2.356 . S
O97 C95 1.282 . S
C98 O99 1.306 1_655 S
C98 O101 1.160 1_655 S
O99 C98 1.306 1_455 S
O99 Cd100 2.228 . S
Cd100 O99 2.228 . S
Cd100 O104 2.273 . S
Cd100 O108 2.277 . S
O101 C98 1.160 1_455 S
O101 Cd102 2.203 . S
Cd102 O101 2.203 . S
Cd102 O104 2.411 . S
Cd102 O105 2.333 . S
Cd102 O106 2.352 . S
Cd102 O110 2.277 . S
Cd102 O111 2.356 . S
C103 O108 1.209 . S
C103 O110 1.226 . S
O104 Cd100 2.273 . S
O104 Cd102 2.411 . S
O104 C107 1.320 . S
O105 Cd102 2.333 . S
O105 C107 1.214 . S
O106 Cd102 2.352 . S
O106 C109 1.258 . S
C107 O104 1.320 . S
C107 O105 1.214 . S
O108 Cd100 2.277 . S
O108 C103 1.209 . S
C109 O106 1.258 . S
C109 O111 1.282 . S
O110 Cd102 2.277 . S
O110 C103 1.226 . S
O111 Cd102 2.356 . S
O111 C109 1.282 . S
C112 O113 1.306 . S
C112 O115 1.160 . S
O113 C112 1.306 . S
O113 Cd114 2.228 . S
Cd114 O113 2.228 . S
Cd114 O118 2.273 . S
Cd114 O122 2.277 . S
O115 C112 1.160 . S
O115 Cd116 2.203 . S
Cd116 O115 2.203 . S
Cd116 O118 2.411 . S
Cd116 O119 2.333 . S
Cd116 O120 2.352 . S
Cd116 O124 2.277 . S
Cd116 O125 2.356 . S
C117 O122 1.209 . S
C117 O124 1.226 . S
O118 Cd114 2.273 . S
O118 Cd116 2.411 . S
O118 C121 1.320 . S
O119 Cd116 2.333 . S
O119 C121 1.214 . S
O120 Cd116 2.352 . S
O120 C123 1.258 . S
C121 O118 1.320 . S
C121 O119 1.214 . S
O122 Cd114 2.277 . S
O122 C117 1.209 . S
C123 O120 1.258 . S
C123 O125 1.282 . S
O124 Cd116 2.277 . S
O124 C117 1.226 . S
O125 Cd116 2.356 . S
O125 C123 1.282 . S
C126 O127 1.306 . S
C126 O129 1.160 . S
O127 C126 1.306 . S
O127 Cd128 2.228 . S
Cd128 O127 2.228 . S
Cd128 O132 2.273 . S
Cd128 O136 2.277 . S
O129 C126 1.160 . S
O129 Cd130 2.203 . S
Cd130 O129 2.203 . S
Cd130 O132 2.411 . S
Cd130 O133 2.333 . S
Cd130 O134 2.352 . S
Cd130 O138 2.277 . S
Cd130 O139 2.356 . S
C131 O136 1.209 . S
C131 O138 1.226 . S
O132 Cd128 2.273 . S
O132 Cd130 2.411 . S
O132 C135 1.320 . S
O133 Cd130 2.333 . S
O133 C135 1.214 . S
O134 Cd130 2.352 . S
O134 C137 1.258 . S
C135 O132 1.320 . S
C135 O133 1.214 . S
O136 Cd128 2.277 . S
O136 C131 1.209 . S
C137 O134 1.258 . S
C137 O139 1.282 . S
O138 Cd130 2.277 . S
O138 C131 1.226 . S
O139 Cd130 2.356 . S
O139 C137 1.282 . S
C140 O141 1.306 . S
C140 O143 1.160 . S
O141 C140 1.306 . S
O141 Cd142 2.228 . S
Cd142 O141 2.228 . S
Cd142 O146 2.273 . S
Cd142 O150 2.277 . S
O143 C140 1.160 . S
O143 Cd144 2.203 . S
Cd144 O143 2.203 . S
Cd144 O146 2.411 . S
Cd144 O147 2.333 . S
Cd144 O148 2.352 1_545 S
Cd144 O152 2.277 . S
Cd144 O153 2.356 . S
C145 O150 1.209 . S
C145 O152 1.226 . S
O146 Cd142 2.273 . S
O146 Cd144 2.411 . S
O146 C149 1.320 . S
O147 Cd144 2.333 . S
O147 C149 1.214 . S
O148 Cd144 2.352 1_565 S
O148 C151 1.258 . S
C149 O146 1.320 . S
C149 O147 1.214 . S
O150 Cd142 2.277 . S
O150 C145 1.209 . S
C151 O148 1.258 . S
C151 O153 1.282 1_565 S
O152 Cd144 2.277 . S
O152 C145 1.226 . S
O153 Cd144 2.356 . S
O153 C151 1.282 1_545 S
C154 O155 1.306 . S
C154 O157 1.160 . S
O155 C154 1.306 . S
O155 Cd156 2.228 . S
Cd156 O155 2.228 . S
Cd156 O160 2.273 . S
Cd156 O164 2.277 . S
O157 C154 1.160 . S
O157 Cd158 2.203 . S
Cd158 O157 2.203 . S
Cd158 O160 2.411 . S
Cd158 O161 2.333 . S
Cd158 O162 2.352 . S
Cd158 O166 2.277 . S
Cd158 O167 2.356 . S
C159 O164 1.209 . S
C159 O166 1.226 . S
O160 Cd156 2.273 . S
O160 Cd158 2.411 . S
O160 C163 1.320 . S
O161 Cd158 2.333 . S
O161 C163 1.214 . S
O162 Cd158 2.352 . S
O162 C165 1.258 . S
C163 O160 1.320 . S
C163 O161 1.214 . S
O164 Cd156 2.277 . S
O164 C159 1.209 . S
C165 O162 1.258 . S
C165 O167 1.282 . S
O166 Cd158 2.277 . S
O166 C159 1.226 . S
O167 Cd158 2.356 . S
O167 C165 1.282 . S
C168 O169 1.306 . S
C168 O171 1.160 . S
O169 C168 1.306 . S
O169 Cd170 2.228 . S
Cd170 O169 2.228 . S
Cd170 O174 2.273 . S
Cd170 O178 2.277 . S
O171 C168 1.160 . S
O171 Cd172 2.203 . S
Cd172 O171 2.203 . S
Cd172 O174 2.411 . S
Cd172 O175 2.333 . S
Cd172 O176 2.352 . S
Cd172 O180 2.277 . S
Cd172 O181 2.356 . S
C173 O178 1.209 . S
C173 O180 1.226 . S
O174 Cd170 2.273 . S
O174 Cd172 2.411 . S
O174 C177 1.320 . S
O175 Cd172 2.333 . S
O175 C177 1.214 . S
O176 Cd172 2.352 . S
O176 C179 1.258 . S
C177 O174 1.320 . S
C177 O175 1.214 . S
O178 Cd170 2.277 . S
O178 C173 1.209 . S
C179 O176 1.258 . S
C179 O181 1.282 . S
O180 Cd172 2.277 . S
O180 C173 1.226 . S
O181 Cd172 2.356 . S
O181 C179 1.282 . S
C182 O183 1.306 . S
C182 O185 1.160 . S
O183 C182 1.306 . S
O183 Cd184 2.228 . S
Cd184 O183 2.228 . S
Cd184 O188 2.273 . S
Cd184 O192 2.277 . S
O185 C182 1.160 . S
O185 Cd186 2.203 . S
Cd186 O185 2.203 . S
Cd186 O188 2.411 . S
Cd186 O189 2.333 . S
Cd186 O190 2.352 . S
Cd186 O194 2.277 . S
Cd186 O195 2.356 . S
C187 O192 1.209 . S
C187 O194 1.226 . S
O188 Cd184 2.273 . S
O188 Cd186 2.411 . S
O188 C191 1.320 . S
O189 Cd186 2.333 . S
O189 C191 1.214 . S
O190 Cd186 2.352 . S
O190 C193 1.258 . S
C191 O188 1.320 . S
C191 O189 1.214 . S
O192 Cd184 2.277 . S
O192 C187 1.209 . S
C193 O190 1.258 . S
C193 O195 1.282 . S
O194 Cd186 2.277 . S
O194 C187 1.226 . S
O195 Cd186 2.356 . S
O195 C193 1.282 . S
C196 O197 1.306 . S
C196 O199 1.160 . S
O197 C196 1.306 . S
O197 Cd198 2.228 . S
Cd198 O197 2.228 . S
Cd198 O202 2.273 . S
Cd198 O206 2.277 . S
O199 C196 1.160 . S
O199 Cd200 2.203 . S
Cd200 O199 2.203 . S
Cd200 O202 2.411 . S
Cd200 O203 2.333 . S
Cd200 O204 2.352 . S
Cd200 O208 2.277 . S
Cd200 O209 2.356 . S
C201 O206 1.209 . S
C201 O208 1.226 . S
O202 Cd198 2.273 . S
O202 Cd200 2.411 . S
O202 C205 1.320 . S
O203 Cd200 2.333 . S
O203 C205 1.214 . S
O204 Cd200 2.352 . S
O204 C207 1.258 . S
C205 O202 1.320 . S
C205 O203 1.214 . S
O206 Cd198 2.277 . S
O206 C201 1.209 . S
C207 O204 1.258 . S
C207 O209 1.282 . S
O208 Cd200 2.277 . S
O208 C201 1.226 . S
O209 Cd200 2.356 . S
O209 C207 1.282 . S
C210 O211 1.306 . S
C210 O213 1.160 1_545 S
O211 C210 1.306 . S
O211 Cd212 2.228 . S
Cd212 O211 2.228 . S
Cd212 O216 2.273 . S
Cd212 O220 2.277 1_545 S
O213 C210 1.160 1_565 S
O213 Cd214 2.203 . S
Cd214 O213 2.203 . S
Cd214 O216 2.411 1_565 S
Cd214 O217 2.333 . S
Cd214 O218 2.352 . S
Cd214 O222 2.277 . S
Cd214 O223 2.356 . S
C215 O220 1.209 . S
C215 O222 1.226 . S
O216 Cd212 2.273 . S
O216 Cd214 2.411 1_545 S
O216 C219 1.320 1_545 S
O217 Cd214 2.333 . S
O217 C219 1.214 . S
O218 Cd214 2.352 . S
O218 C221 1.258 . S
C219 O216 1.320 1_565 S
C219 O217 1.214 . S
O220 Cd212 2.277 1_565 S
O220 C215 1.209 . S
C221 O218 1.258 . S
C221 O223 1.282 . S
O222 Cd214 2.277 . S
O222 C215 1.226 . S
O223 Cd214 2.356 . S
O223 C221 1.282 . S
C224 O225 1.306 . S
C224 O227 1.160 . S
O225 C224 1.306 . S
O225 Cd226 2.228 . S
Cd226 O225 2.228 . S
Cd226 O230 2.273 . S
Cd226 O234 2.277 . S
O227 C224 1.160 . S
O227 Cd228 2.203 . S
Cd228 O227 2.203 . S
Cd228 O230 2.411 . S
Cd228 O231 2.333 . S
Cd228 O232 2.352 . S
Cd228 O236 2.277 . S
Cd228 O237 2.356 . S
C229 O234 1.209 . S
C229 O236 1.226 . S
O230 Cd226 2.273 . S
O230 Cd228 2.411 . S
O230 C233 1.320 . S
O231 Cd228 2.333 . S
O231 C233 1.214 . S
O232 Cd228 2.352 . S
O232 C235 1.258 . S
C233 O230 1.320 . S
C233 O231 1.214 . S
O234 Cd226 2.277 . S
O234 C229 1.209 . S
C235 O232 1.258 . S
C235 O237 1.282 . S
O236 Cd228 2.277 . S
O236 C229 1.226 . S
O237 Cd228 2.356 . S
O237 C235 1.282 . S
C238 O239 1.306 . S
C238 O241 1.160 . S
O239 C238 1.306 . S
O239 Cd240 2.228 . S
Cd240 O239 2.228 . S
Cd240 O244 2.273 . S
Cd240 O248 2.277 . S
O241 C238 1.160 . S
O241 Cd242 2.203 . S
Cd242 O241 2.203 . S
Cd242 O244 2.411 . S
Cd242 O245 2.333 . S
Cd242 O246 2.352 . S
Cd242 O250 2.277 . S
Cd242 O251 2.356 . S
C243 O248 1.209 . S
C243 O250 1.226 . S
O244 Cd240 2.273 . S
O244 Cd242 2.411 . S
O244 C247 1.320 . S
O245 Cd242 2.333 . S
O245 C247 1.214 . S
O246 Cd242 2.352 . S
O246 C249 1.258 . S
C247 O244 1.320 . S
C247 O245 1.214 . S
O248 Cd240 2.277 . S
O248 C243 1.209 . S
C249 O246 1.258 . S
C249 O251 1.282 . S
O250 Cd242 2.277 . S
O250 C243 1.226 . S
O251 Cd242 2.356 . S
O251 C249 1.282 . S
C252 O253 1.306 . S
C252 O255 1.160 . S
O253 C252 1.306 . S
O253 Cd254 2.228 . S
Cd254 O253 2.228 . S
Cd254 O258 2.273 . S
Cd254 O262 2.277 . S
O255 C252 1.160 . S
O255 Cd256 2.203 . S
Cd256 O255 2.203 . S
Cd256 O258 2.411 . S
Cd256 O259 2.333 . S
Cd256 O260 2.352 . S
Cd256 O264 2.277 . S
Cd256 O265 2.356 . S
C257 O262 1.209 . S
C257 O264 1.226 . S
O258 Cd254 2.273 . S
O258 Cd256 2.411 . S
O258 C261 1.320 . S
O259 Cd256 2.333 . S
O259 C261 1.214 . S
O260 Cd256 2.352 . S
O260 C263 1.258 . S
C261 O258 1.320 . S
C261 O259 1.214 . S
O262 Cd254 2.277 . S
O262 C257 1.209 . S
C263 O260 1.258 . S
C263 O265 1.282 . S
O264 Cd256 2.277 . S
O264 C257 1.226 . S
O265 Cd256 2.356 . S
O265 C263 1.282 . S
C266 O267 1.306 . S
C266 O269 1.160 . S
O267 C266 1.306 . S
O267 Cd268 2.228 . S
Cd268 O267 2.228 . S
Cd268 O272 2.273 1_545 S
Cd268 O276 2.277 . S
O269 C266 1.160 . S
O269 Cd270 2.203 1_545 S
Cd270 O269 2.203 1_565 S
Cd270 O272 2.411 . S
Cd270 O273 2.333 . S
Cd270 O274 2.352 . S
Cd270 O278 2.277 1_565 S
Cd270 O279 2.356 . S
C271 O276 1.209 . S
C271 O278 1.226 . S
O272 Cd268 2.273 1_565 S
O272 Cd270 2.411 . S
O272 C275 1.320 . S
O273 Cd270 2.333 . S
O273 C275 1.214 . S
O274 Cd270 2.352 . S
O274 C277 1.258 . S
C275 O272 1.320 . S
C275 O273 1.214 . S
O276 Cd268 2.277 . S
O276 C271 1.209 . S
C277 O274 1.258 . S
C277 O279 1.282 . S
O278 Cd270 2.277 1_545 S
O278 C271 1.226 . S
O279 Cd270 2.356 . S
O279 C277 1.282 . S
C280 O281 1.306 . S
C280 O283 1.163 . S
O281 C280 1.306 . S
O281 Cd282 2.228 . S
Cd282 O281 2.228 . S
Cd282 O286 2.273 1_554 S
Cd282 O290 2.277 . S
O283 C280 1.163 . S
O283 Cd284 2.204 1_554 S
Cd284 O283 2.204 1_556 S
Cd284 O286 2.411 . S
Cd284 O287 2.333 . S
Cd284 O288 2.352 . S
Cd284 O292 2.277 1_556 S
Cd284 O293 2.356 . S
C285 O290 1.209 . S
C285 O292 1.226 . S
O286 Cd282 2.273 1_556 S
O286 Cd284 2.411 . S
O286 C289 1.320 . S
O287 Cd284 2.333 . S
O287 C289 1.214 . S
O288 Cd284 2.352 . S
O288 C291 1.258 . S
C289 O286 1.320 . S
C289 O287 1.214 . S
O290 Cd282 2.277 . S
O290 C285 1.209 . S
C291 O288 1.258 . S
C291 O293 1.282 . S
O292 Cd284 2.277 1_554 S
O292 C285 1.226 . S
O293 Cd284 2.356 . S
O293 C291 1.282 . S
C294 O295 1.306 . S
C294 O297 1.160 . S
O295 C294 1.306 . S
O295 Cd296 2.228 . S
Cd296 O295 2.228 . S
Cd296 O300 2.273 . S
Cd296 O304 2.277 . S
O297 C294 1.160 . S
O297 Cd298 2.203 . S
Cd298 O297 2.203 . S
Cd298 O300 2.411 . S
Cd298 O301 2.333 . S
Cd298 O302 2.352 . S
Cd298 O306 2.277 . S
Cd298 O307 2.356 . S
C299 O304 1.209 . S
C299 O306 1.226 . S
O300 Cd296 2.273 . S
O300 Cd298 2.411 . S
O300 C303 1.320 . S
O301 Cd298 2.333 . S
O301 C303 1.214 . S
O302 Cd298 2.352 . S
O302 C305 1.258 . S
C303 O300 1.320 . S
C303 O301 1.214 . S
O304 Cd296 2.277 . S
O304 C299 1.209 . S
C305 O302 1.258 . S
C305 O307 1.282 . S
O306 Cd298 2.277 . S
O306 C299 1.226 . S
O307 Cd298 2.356 . S
O307 C305 1.282 . S
C308 O309 1.306 . S
C308 O311 1.160 . S
O309 C308 1.306 . S
O309 Cd310 2.228 . S
Cd310 O309 2.228 . S
Cd310 O314 2.273 . S
Cd310 O318 2.277 . S
O311 C308 1.160 . S
O311 Cd312 2.203 . S
Cd312 O311 2.203 . S
Cd312 O314 2.411 . S
Cd312 O315 2.333 . S
Cd312 O316 2.352 . S
Cd312 O320 2.277 . S
Cd312 O321 2.356 . S
C313 O318 1.209 . S
C313 O320 1.226 . S
O314 Cd310 2.273 . S
O314 Cd312 2.411 . S
O314 C317 1.320 . S
O315 Cd312 2.333 . S
O315 C317 1.214 . S
O316 Cd312 2.352 . S
O316 C319 1.258 . S
C317 O314 1.320 . S
C317 O315 1.214 . S
O318 Cd310 2.277 . S
O318 C313 1.209 . S
C319 O316 1.258 . S
C319 O321 1.282 . S
O320 Cd312 2.277 . S
O320 C313 1.226 . S
O321 Cd312 2.356 . S
O321 C319 1.282 . S
C322 O323 1.306 . S
C322 O325 1.160 . S
O323 C322 1.306 . S
O323 Cd324 2.228 . S
Cd324 O323 2.228 . S
Cd324 O328 2.273 . S
Cd324 O332 2.277 . S
O325 C322 1.160 . S
O325 Cd326 2.203 . S
Cd326 O325 2.203 . S
Cd326 O328 2.411 . S
Cd326 O329 2.333 . S
Cd326 O330 2.352 . S
Cd326 O334 2.277 . S
Cd326 O335 2.356 . S
C327 O332 1.209 . S
C327 O334 1.226 . S
O328 Cd324 2.273 . S
O328 Cd326 2.411 . S
O328 C331 1.320 . S
O329 Cd326 2.333 . S
O329 C331 1.214 . S
O330 Cd326 2.352 . S
O330 C333 1.258 . S
C331 O328 1.320 . S
C331 O329 1.214 . S
O332 Cd324 2.277 . S
O332 C327 1.209 . S
C333 O330 1.258 . S
C333 O335 1.282 . S
O334 Cd326 2.277 . S
O334 C327 1.226 . S
O335 Cd326 2.356 . S
O335 C333 1.282 . S
Nd336 C338 2.836 . S
Nd336 O356 2.500 . S
Nd336 O357 2.492 . S
Nd336 O358 2.487 . S
Nd336 O359 2.682 . S
Nd336 O360 2.410 . S
Nd336 O365 2.414 . S
Nd336 O367 2.424 . S
Nd337 C347 2.836 1_545 S
Nd337 O359 2.414 . S
Nd337 O361 2.424 1_455 S
Nd337 O362 2.500 1_545 S
Nd337 O363 2.468 1_545 S
Nd337 O364 2.487 . S
Nd337 O365 2.682 . S
Nd337 O366 2.410 . S
C338 Nd336 2.836 . S
C338 C339 1.498 . S
C338 O356 1.258 . S
C338 O357 1.239 . S
C339 C338 1.498 . S
C339 C340 1.366 . S
C339 C344 1.407 . S
C340 C339 1.366 . S
C340 C341 1.392 . S
C340 H368 0.930 . S
C341 C340 1.392 . S
C341 C342 1.398 . S
C341 H369 0.929 . S
C342 C341 1.398 . S
C342 C343 1.352 . S
C343 C342 1.352 . S
C343 C344 1.384 . S
C343 H370 0.930 . S
C344 C339 1.407 . S
C344 C343 1.384 . S
C344 H371 0.929 . S
C345 O358 1.241 . S
C345 O359 1.273 . S
C346 O360 1.265 . S
C346 O361 1.266 1_455 S
C347 Nd337 2.836 1_565 S
C347 C348 1.498 . S
C347 O362 1.258 . S
C347 O363 1.252 . S
C348 C347 1.498 . S
C348 C349 1.366 . S
C348 C353 1.407 . S
C349 C348 1.366 . S
C349 C350 1.392 . S
C349 H372 0.930 . S
C350 C349 1.392 . S
C350 C351 1.398 . S
C350 H373 0.929 . S
C351 C350 1.398 . S
C351 C352 1.352 . S
C352 C351 1.352 . S
C352 C353 1.384 . S
C352 H374 0.930 . S
C353 C348 1.407 . S
C353 C352 1.384 . S
C353 H375 0.929 . S
C354 O364 1.241 . S
C354 O365 1.273 . S
C355 O366 1.251 . S
C355 O367 1.268 . S
O356 Nd336 2.500 . S
O356 C338 1.258 . S
O357 Nd336 2.492 . S
O357 C338 1.239 . S
O358 Nd336 2.487 . S
O358 C345 1.241 . S
O359 Nd336 2.682 . S
O359 Nd337 2.414 . S
O359 C345 1.273 . S
O360 Nd336 2.410 . S
O360 C346 1.265 . S
O361 Nd337 2.424 1_655 S
O361 C346 1.266 1_655 S
O362 Nd337 2.500 1_565 S
O362 C347 1.258 . S
O363 Nd337 2.468 1_565 S
O363 C347 1.252 . S
O364 Nd337 2.487 . S
O364 C354 1.241 . S
O365 Nd336 2.414 . S
O365 Nd337 2.682 . S
O365 C354 1.273 . S
O366 Nd337 2.410 . S
O366 C355 1.251 . S
O367 Nd336 2.424 . S
O367 C355 1.268 . S
H368 C340 0.930 . S
H369 C341 0.929 . S
H370 C343 0.930 . S
H371 C344 0.929 . S
H372 C349 0.930 . S
H373 C350 0.929 . S
H374 C352 0.930 . S
H375 C353 0.929 . S
Nd376 C378 2.836 . S
Nd376 O396 2.500 . S
Nd376 O397 2.492 . S
Nd376 O398 2.487 . S
Nd376 O399 2.682 . S
Nd376 O400 2.410 . S
Nd376 O405 2.414 . S
Nd376 O407 2.424 . S
Nd377 C387 2.836 . S
Nd377 O399 2.414 . S
Nd377 O401 2.424 . S
Nd377 O402 2.500 . S
Nd377 O403 2.492 . S
Nd377 O404 2.487 . S
Nd377 O405 2.682 . S
Nd377 O406 2.410 . S
C378 Nd376 2.836 . S
C378 C379 1.498 . S
C378 O396 1.258 . S
C378 O397 1.239 . S
C379 C378 1.498 . S
C379 C380 1.366 . S
C379 C384 1.407 . S
C380 C379 1.366 . S
C380 C381 1.392 . S
C380 H408 0.930 . S
C381 C380 1.392 . S
C381 C382 1.398 . S
C381 H409 0.929 . S
C382 C381 1.398 . S
C382 C383 1.352 . S
C383 C382 1.352 . S
C383 C384 1.384 . S
C383 H410 0.930 . S
C384 C379 1.407 . S
C384 C383 1.384 . S
C384 H411 0.929 . S
C385 O398 1.241 . S
C385 O399 1.273 . S
C386 O400 1.251 . S
C386 O401 1.268 . S
C387 Nd377 2.836 . S
C387 C388 1.498 . S
C387 O402 1.258 . S
C387 O403 1.239 . S
C388 C387 1.498 . S
C388 C389 1.366 . S
C388 C393 1.407 . S
C389 C388 1.366 . S
C389 C390 1.392 . S
C389 H412 0.930 . S
C390 C389 1.392 . S
C390 C391 1.398 . S
C390 H413 0.929 . S
C391 C390 1.398 . S
C391 C392 1.352 . S
C392 C391 1.352 . S
C392 C393 1.384 . S
C392 H414 0.930 . S
C393 C388 1.407 . S
C393 C392 1.384 . S
C393 H415 0.929 . S
C394 O404 1.241 . S
C394 O405 1.273 . S
C395 O406 1.251 . S
C395 O407 1.268 . S
O396 Nd376 2.500 . S
O396 C378 1.258 . S
O397 Nd376 2.492 . S
O397 C378 1.239 . S
O398 Nd376 2.487 . S
O398 C385 1.241 . S
O399 Nd376 2.682 . S
O399 Nd377 2.414 . S
O399 C385 1.273 . S
O400 Nd376 2.410 . S
O400 C386 1.251 . S
O401 Nd377 2.424 . S
O401 C386 1.268 . S
O402 Nd377 2.500 . S
O402 C387 1.258 . S
O403 Nd377 2.492 . S
O403 C387 1.239 . S
O404 Nd377 2.487 . S
O404 C394 1.241 . S
O405 Nd376 2.414 . S
O405 Nd377 2.682 . S
O405 C394 1.273 . S
O406 Nd377 2.410 . S
O406 C395 1.251 . S
O407 Nd376 2.424 . S
O407 C395 1.268 . S
H408 C380 0.930 . S
H409 C381 0.929 . S
H410 C383 0.930 . S
H411 C384 0.929 . S
H412 C389 0.930 . S
H413 C390 0.929 . S
H414 C392 0.930 . S
H415 C393 0.929 . S
Nd416 C418 2.836 . S
Nd416 O436 2.500 . S
Nd416 O437 2.492 . S
Nd416 O438 2.487 . S
Nd416 O439 2.682 . S
Nd416 O440 2.410 . S
Nd416 O445 2.414 . S
Nd416 O447 2.424 . S
Nd417 C427 2.836 . S
Nd417 O439 2.414 . S
Nd417 O441 2.424 . S
Nd417 O442 2.500 . S
Nd417 O443 2.492 . S
Nd417 O444 2.487 . S
Nd417 O445 2.682 . S
Nd417 O446 2.410 . S
C418 Nd416 2.836 . S
C418 C419 1.498 . S
C418 O436 1.258 . S
C418 O437 1.239 . S
C419 C418 1.498 . S
C419 C420 1.366 . S
C419 C424 1.407 . S
C420 C419 1.366 . S
C420 C421 1.392 . S
C420 H448 0.930 . S
C421 C420 1.392 . S
C421 C422 1.398 . S
C421 H449 0.929 . S
C422 C421 1.398 . S
C422 C423 1.352 . S
C423 C422 1.352 . S
C423 C424 1.384 . S
C423 H450 0.930 . S
C424 C419 1.407 . S
C424 C423 1.384 . S
C424 H451 0.929 . S
C425 O438 1.241 . S
C425 O439 1.273 . S
C426 O440 1.251 . S
C426 O441 1.268 . S
C427 Nd417 2.836 . S
C427 C428 1.498 . S
C427 O442 1.258 . S
C427 O443 1.239 . S
C428 C427 1.498 . S
C428 C429 1.366 . S
C428 C433 1.407 . S
C429 C428 1.366 . S
C429 C430 1.392 . S
C429 H452 0.930 . S
C430 C429 1.392 . S
C430 C431 1.398 . S
C430 H453 0.929 . S
C431 C430 1.398 . S
C431 C432 1.352 . S
C432 C431 1.352 . S
C432 C433 1.384 . S
C432 H454 0.930 . S
C433 C428 1.407 . S
C433 C432 1.384 . S
C433 H455 0.929 . S
C434 O444 1.241 . S
C434 O445 1.273 . S
C435 O446 1.251 . S
C435 O447 1.268 . S
O436 Nd416 2.500 . S
O436 C418 1.258 . S
O437 Nd416 2.492 . S
O437 C418 1.239 . S
O438 Nd416 2.487 . S
O438 C425 1.241 . S
O439 Nd416 2.682 . S
O439 Nd417 2.414 . S
O439 C425 1.273 . S
O440 Nd416 2.410 . S
O440 C426 1.251 . S
O441 Nd417 2.424 . S
O441 C426 1.268 . S
O442 Nd417 2.500 . S
O442 C427 1.258 . S
O443 Nd417 2.492 . S
O443 C427 1.239 . S
O444 Nd417 2.487 . S
O444 C434 1.241 . S
O445 Nd416 2.414 . S
O445 Nd417 2.682 . S
O445 C434 1.273 . S
O446 Nd417 2.410 . S
O446 C435 1.251 . S
O447 Nd416 2.424 . S
O447 C435 1.268 . S
H448 C420 0.930 . S
H449 C421 0.929 . S
H450 C423 0.930 . S
H451 C424 0.929 . S
H452 C429 0.930 . S
H453 C430 0.929 . S
H454 C432 0.930 . S
H455 C433 0.929 . S
Nd456 C458 2.836 . S
Nd456 O476 2.500 . S
Nd456 O477 2.492 . S
Nd456 O478 2.487 . S
Nd456 O479 2.682 . S
Nd456 O480 2.410 . S
Nd456 O485 2.414 . S
Nd456 O487 2.424 . S
Nd457 C467 2.836 . S
Nd457 O479 2.414 . S
Nd457 O481 2.424 . S
Nd457 O482 2.500 . S
Nd457 O483 2.492 . S
Nd457 O484 2.487 . S
Nd457 O485 2.682 . S
Nd457 O486 2.410 . S
C458 Nd456 2.836 . S
C458 C459 1.498 . S
C458 O476 1.258 . S
C458 O477 1.239 . S
C459 C458 1.498 . S
C459 C460 1.366 . S
C459 C464 1.407 . S
C460 C459 1.366 . S
C460 C461 1.392 . S
C460 H488 0.930 . S
C461 C460 1.392 . S
C461 C462 1.398 . S
C461 H489 0.929 . S
C462 C461 1.398 . S
C462 C463 1.352 . S
C463 C462 1.352 . S
C463 C464 1.384 . S
C463 H490 0.930 . S
C464 C459 1.407 . S
C464 C463 1.384 . S
C464 H491 0.929 . S
C465 O478 1.241 . S
C465 O479 1.273 . S
C466 O480 1.251 . S
C466 O481 1.268 . S
C467 Nd457 2.836 . S
C467 C468 1.498 . S
C467 O482 1.258 . S
C467 O483 1.239 . S
C468 C467 1.498 . S
C468 C469 1.366 . S
C468 C473 1.407 . S
C469 C468 1.366 . S
C469 C470 1.392 . S
C469 H492 0.930 . S
C470 C469 1.392 . S
C470 C471 1.398 . S
C470 H493 0.929 . S
C471 C470 1.398 . S
C471 C472 1.352 . S
C472 C471 1.352 . S
C472 C473 1.384 . S
C472 H494 0.930 . S
C473 C468 1.407 . S
C473 C472 1.384 . S
C473 H495 0.929 . S
C474 O484 1.241 . S
C474 O485 1.273 . S
C475 O486 1.251 . S
C475 O487 1.268 . S
O476 Nd456 2.500 . S
O476 C458 1.258 . S
O477 Nd456 2.492 . S
O477 C458 1.239 . S
O478 Nd456 2.487 . S
O478 C465 1.241 . S
O479 Nd456 2.682 . S
O479 Nd457 2.414 . S
O479 C465 1.273 . S
O480 Nd456 2.410 . S
O480 C466 1.251 . S
O481 Nd457 2.424 . S
O481 C466 1.268 . S
O482 Nd457 2.500 . S
O482 C467 1.258 . S
O483 Nd457 2.492 . S
O483 C467 1.239 . S
O484 Nd457 2.487 . S
O484 C474 1.241 . S
O485 Nd456 2.414 . S
O485 Nd457 2.682 . S
O485 C474 1.273 . S
O486 Nd457 2.410 . S
O486 C475 1.251 . S
O487 Nd456 2.424 . S
O487 C475 1.268 . S
H488 C460 0.930 . S
H489 C461 0.929 . S
H490 C463 0.930 . S
H491 C464 0.929 . S
H492 C469 0.930 . S
H493 C470 0.929 . S
H494 C472 0.930 . S
H495 C473 0.929 . S
Nd496 C498 2.836 . S
Nd496 O516 2.500 . S
Nd496 O517 2.492 . S
Nd496 O518 2.487 . S
Nd496 O519 2.682 . S
Nd496 O520 2.410 . S
Nd496 O525 2.414 . S
Nd496 O527 2.424 . S
Nd497 C507 2.836 1_545 S
Nd497 O519 2.414 . S
Nd497 O521 2.424 . S
Nd497 O522 2.500 . S
Nd497 O523 2.492 1_545 S
Nd497 O524 2.487 1_455 S
Nd497 O525 2.682 . S
Nd497 O526 2.410 . S
C498 Nd496 2.836 . S
C498 C499 1.498 . S
C498 O516 1.258 . S
C498 O517 1.239 . S
C499 C498 1.498 . S
C499 C500 1.366 . S
C499 C504 1.407 . S
C500 C499 1.366 . S
C500 C501 1.392 1_455 S
C500 H528 0.930 1_455 S
C501 C500 1.392 1_655 S
C501 C502 1.398 1_655 S
C501 H529 0.929 . S
C502 C501 1.398 1_455 S
C502 C503 1.352 . S
C503 C502 1.352 . S
C503 C504 1.384 . S
C503 H530 0.930 . S
C504 C499 1.407 . S
C504 C503 1.384 . S
C504 H531 0.929 . S
C505 O518 1.241 . S
C505 O519 1.273 . S
C506 O520 1.251 . S
C506 O521 1.268 . S
C507 Nd497 2.836 1_565 S
C507 C508 1.498 . S
C507 O522 1.258 1_565 S
C507 O523 1.239 . S
C508 C507 1.498 . S
C508 C509 1.366 . S
C508 C513 1.407 . S
C509 C508 1.366 . S
C509 C510 1.392 . S
C509 H532 0.930 . S
C510 C509 1.392 . S
C510 C511 1.398 . S
C510 H533 0.929 . S
C511 C510 1.398 . S
C511 C512 1.352 . S
C512 C511 1.352 . S
C512 C513 1.384 . S
C512 H534 0.930 . S
C513 C508 1.407 . S
C513 C512 1.384 . S
C513 H535 0.929 . S
C514 O524 1.241 . S
C514 O525 1.273 1_655 S
C515 O526 1.251 . S
C515 O527 1.268 . S
O516 Nd496 2.500 . S
O516 C498 1.258 . S
O517 Nd496 2.492 . S
O517 C498 1.239 . S
O518 Nd496 2.487 . S
O518 C505 1.241 . S
O519 Nd496 2.682 . S
O519 Nd497 2.414 . S
O519 C505 1.273 . S
O520 Nd496 2.410 . S
O520 C506 1.251 . S
O521 Nd497 2.424 . S
O521 C506 1.268 . S
O522 Nd497 2.500 . S
O522 C507 1.258 1_545 S
O523 Nd497 2.492 1_565 S
O523 C507 1.239 . S
O524 Nd497 2.487 1_655 S
O524 C514 1.241 . S
O525 Nd496 2.414 . S
O525 Nd497 2.682 . S
O525 C514 1.273 1_455 S
O526 Nd497 2.410 . S
O526 C515 1.251 . S
O527 Nd496 2.424 . S
O527 C515 1.268 . S
H528 C500 0.930 1_655 S
H529 C501 0.929 . S
H530 C503 0.930 . S
H531 C504 0.929 . S
H532 C509 0.930 . S
H533 C510 0.929 . S
H534 C512 0.930 . S
H535 C513 0.929 . S
Nd536 C538 2.836 . S
Nd536 O556 2.500 . S
Nd536 O557 2.492 . S
Nd536 O558 2.487 . S
Nd536 O559 2.682 . S
Nd536 O560 2.410 . S
Nd536 O565 2.414 . S
Nd536 O567 2.424 . S
Nd537 C547 2.836 . S
Nd537 O559 2.414 . S
Nd537 O561 2.424 . S
Nd537 O562 2.500 . S
Nd537 O563 2.492 . S
Nd537 O564 2.487 . S
Nd537 O565 2.682 . S
Nd537 O566 2.410 . S
C538 Nd536 2.836 . S
C538 C539 1.498 . S
C538 O556 1.258 . S
C538 O557 1.239 . S
C539 C538 1.498 . S
C539 C540 1.366 . S
C539 C544 1.407 . S
C540 C539 1.366 . S
C540 C541 1.392 . S
C540 H568 0.930 . S
C541 C540 1.392 . S
C541 C542 1.398 . S
C541 H569 0.929 . S
C542 C541 1.398 . S
C542 C543 1.352 . S
C543 C542 1.352 . S
C543 C544 1.384 . S
C543 H570 0.930 . S
C544 C539 1.407 . S
C544 C543 1.384 . S
C544 H571 0.929 . S
C545 O558 1.241 . S
C545 O559 1.273 . S
C546 O560 1.251 . S
C546 O561 1.268 . S
C547 Nd537 2.836 . S
C547 C548 1.498 . S
C547 O562 1.258 . S
C547 O563 1.239 . S
C548 C547 1.498 . S
C548 C549 1.366 . S
C548 C553 1.407 . S
C549 C548 1.366 . S
C549 C550 1.392 . S
C549 H572 0.930 . S
C550 C549 1.392 . S
C550 C551 1.398 . S
C550 H573 0.929 . S
C551 C550 1.398 . S
C551 C552 1.352 . S
C552 C551 1.352 . S
C552 C553 1.384 . S
C552 H574 0.930 . S
C553 C548 1.407 . S
C553 C552 1.384 . S
C553 H575 0.929 . S
C554 O564 1.241 . S
C554 O565 1.273 . S
C555 O566 1.251 . S
C555 O567 1.268 . S
O556 Nd536 2.500 . S
O556 C538 1.258 . S
O557 Nd536 2.492 . S
O557 C538 1.239 . S
O558 Nd536 2.487 . S
O558 C545 1.241 . S
O559 Nd536 2.682 . S
O559 Nd537 2.414 . S
O559 C545 1.273 . S
O560 Nd536 2.410 . S
O560 C546 1.251 . S
O561 Nd537 2.424 . S
O561 C546 1.268 . S
O562 Nd537 2.500 . S
O562 C547 1.258 . S
O563 Nd537 2.492 . S
O563 C547 1.239 . S
O564 Nd537 2.487 . S
O564 C554 1.241 . S
O565 Nd536 2.414 . S
O565 Nd537 2.682 . S
O565 C554 1.273 . S
O566 Nd537 2.410 . S
O566 C555 1.251 . S
O567 Nd536 2.424 . S
O567 C555 1.268 . S
H568 C540 0.930 . S
H569 C541 0.929 . S
H570 C543 0.930 . S
H571 C544 0.929 . S
H572 C549 0.930 . S
H573 C550 0.929 . S
H574 C552 0.930 . S
H575 C553 0.929 . S
Nd576 C578 2.836 . S
Nd576 O596 2.500 . S
Nd576 O597 2.492 . S
Nd576 O598 2.487 . S
Nd576 O599 2.682 . S
Nd576 O600 2.410 . S
Nd576 O605 2.414 . S
Nd576 O607 2.424 . S
Nd577 C587 2.836 . S
Nd577 O599 2.414 . S
Nd577 O601 2.424 . S
Nd577 O602 2.500 . S
Nd577 O603 2.492 . S
Nd577 O604 2.487 . S
Nd577 O605 2.682 . S
Nd577 O606 2.410 . S
C578 Nd576 2.836 . S
C578 C579 1.498 . S
C578 O596 1.258 . S
C578 O597 1.239 . S
C579 C578 1.498 . S
C579 C580 1.366 . S
C579 C584 1.407 . S
C580 C579 1.366 . S
C580 C581 1.392 . S
C580 H608 0.930 . S
C581 C580 1.392 . S
C581 C582 1.398 . S
C581 H609 0.929 . S
C582 C581 1.398 . S
C582 C583 1.331 1_545 S
C583 C582 1.331 1_565 S
C583 C584 1.382 1_565 S
C583 H610 0.954 . S
C584 C579 1.407 . S
C584 C583 1.382 1_545 S
C584 H611 0.929 1_545 S
C585 O598 1.241 . S
C585 O599 1.273 . S
C586 O600 1.251 . S
C586 O601 1.268 . S
C587 Nd577 2.836 . S
C587 C588 1.498 . S
C587 O602 1.258 . S
C587 O603 1.239 . S
C588 C587 1.498 . S
C588 C589 1.366 . S
C588 C593 1.407 . S
C589 C588 1.366 . S
C589 C590 1.392 . S
C589 H612 0.930 . S
C590 C589 1.392 . S
C590 C591 1.398 . S
C590 H613 0.929 . S
C591 C590 1.398 . S
C591 C592 1.352 . S
C592 C591 1.352 . S
C592 C593 1.384 . S
C592 H614 0.930 . S
C593 C588 1.407 . S
C593 C592 1.384 . S
C593 H615 0.929 . S
C594 O604 1.241 . S
C594 O605 1.273 . S
C595 O606 1.251 . S
C595 O607 1.268 . S
O596 Nd576 2.500 . S
O596 C578 1.258 . S
O597 Nd576 2.492 . S
O597 C578 1.239 . S
O598 Nd576 2.487 . S
O598 C585 1.241 . S
O599 Nd576 2.682 . S
O599 Nd577 2.414 . S
O599 C585 1.273 . S
O600 Nd576 2.410 . S
O600 C586 1.251 . S
O601 Nd577 2.424 . S
O601 C586 1.268 . S
O602 Nd577 2.500 . S
O602 C587 1.258 . S
O603 Nd577 2.492 . S
O603 C587 1.239 . S
O604 Nd577 2.487 . S
O604 C594 1.241 . S
O605 Nd576 2.414 . S
O605 Nd577 2.682 . S
O605 C594 1.273 . S
O606 Nd577 2.410 . S
O606 C595 1.251 . S
O607 Nd576 2.424 . S
O607 C595 1.268 . S
H608 C580 0.930 . S
H609 C581 0.929 . S
H610 C583 0.954 . S
H611 C584 0.929 1_565 S
H612 C589 0.930 . S
H613 C590 0.929 . S
H614 C592 0.930 . S
H615 C593 0.929 . S
Nd616 C618 2.836 . S
Nd616 O636 2.500 . S
Nd616 O637 2.492 . S
Nd616 O638 2.487 . S
Nd616 O639 2.682 . S
Nd616 O640 2.410 . S
Nd616 O645 2.414 . S
Nd616 O647 2.424 . S
Nd617 C627 2.836 . S
Nd617 O639 2.414 . S
Nd617 O641 2.424 . S
Nd617 O642 2.500 . S
Nd617 O643 2.492 . S
Nd617 O644 2.487 . S
Nd617 O645 2.682 . S
Nd617 O646 2.410 . S
C618 Nd616 2.836 . S
C618 C619 1.498 . S
C618 O636 1.258 . S
C618 O637 1.239 . S
C619 C618 1.498 . S
C619 C620 1.366 . S
C619 C624 1.407 . S
C620 C619 1.366 . S
C620 C621 1.392 . S
C620 H648 0.930 . S
C621 C620 1.392 . S
C621 C622 1.398 . S
C621 H649 0.929 . S
C622 C621 1.398 . S
C622 C623 1.352 . S
C623 C622 1.352 . S
C623 C624 1.384 . S
C623 H650 0.930 . S
C624 C619 1.407 . S
C624 C623 1.384 . S
C624 H651 0.929 . S
C625 O638 1.241 . S
C625 O639 1.273 . S
C626 O640 1.251 . S
C626 O641 1.268 . S
C627 Nd617 2.836 . S
C627 C628 1.498 . S
C627 O642 1.258 . S
C627 O643 1.239 . S
C628 C627 1.498 . S
C628 C629 1.366 . S
C628 C633 1.407 . S
C629 C628 1.366 . S
C629 C630 1.392 . S
C629 H652 0.930 . S
C630 C629 1.392 . S
C630 C631 1.398 . S
C630 H653 0.929 . S
C631 C630 1.398 . S
C631 C632 1.352 . S
C632 C631 1.352 . S
C632 C633 1.384 . S
C632 H654 0.930 . S
C633 C628 1.407 . S
C633 C632 1.384 . S
C633 H655 0.929 . S
C634 O644 1.241 . S
C634 O645 1.273 . S
C635 O646 1.251 . S
C635 O647 1.268 . S
O636 Nd616 2.500 . S
O636 C618 1.258 . S
O637 Nd616 2.492 . S
O637 C618 1.239 . S
O638 Nd616 2.487 . S
O638 C625 1.241 . S
O639 Nd616 2.682 . S
O639 Nd617 2.414 . S
O639 C625 1.273 . S
O640 Nd616 2.410 . S
O640 C626 1.251 . S
O641 Nd617 2.424 . S
O641 C626 1.268 . S
O642 Nd617 2.500 . S
O642 C627 1.258 . S
O643 Nd617 2.492 . S
O643 C627 1.239 . S
O644 Nd617 2.487 . S
O644 C634 1.241 . S
O645 Nd616 2.414 . S
O645 Nd617 2.682 . S
O645 C634 1.273 . S
O646 Nd617 2.410 . S
O646 C635 1.251 . S
O647 Nd616 2.424 . S
O647 C635 1.268 . S
H648 C620 0.930 . S
H649 C621 0.929 . S
H650 C623 0.930 . S
H651 C624 0.929 . S
H652 C629 0.930 . S
H653 C630 0.929 . S
H654 C632 0.930 . S
H655 C633 0.929 . S
Nd656 C658 2.836 . S
Nd656 O676 2.500 . S
Nd656 O677 2.492 . S
Nd656 O678 2.487 . S
Nd656 O679 2.682 . S
Nd656 O680 2.410 . S
Nd656 O685 2.414 . S
Nd656 O687 2.424 . S
Nd657 C667 2.836 . S
Nd657 O679 2.414 . S
Nd657 O681 2.424 . S
Nd657 O682 2.500 . S
Nd657 O683 2.492 . S
Nd657 O684 2.487 . S
Nd657 O685 2.682 . S
Nd657 O686 2.410 . S
C658 Nd656 2.836 . S
C658 C659 1.498 . S
C658 O676 1.258 . S
C658 O677 1.239 . S
C659 C658 1.498 . S
C659 C660 1.366 . S
C659 C664 1.407 . S
C660 C659 1.366 . S
C660 C661 1.392 . S
C660 H688 0.930 . S
C661 C660 1.392 . S
C661 C662 1.398 . S
C661 H689 0.929 . S
C662 C661 1.398 . S
C662 C663 1.352 . S
C663 C662 1.352 . S
C663 C664 1.384 . S
C663 H690 0.930 . S
C664 C659 1.407 . S
C664 C663 1.384 . S
C664 H691 0.929 . S
C665 O678 1.241 . S
C665 O679 1.273 . S
C666 O680 1.251 . S
C666 O681 1.268 . S
C667 Nd657 2.836 . S
C667 C668 1.498 . S
C667 O682 1.258 . S
C667 O683 1.239 . S
C668 C667 1.498 . S
C668 C669 1.366 . S
C668 C673 1.407 . S
C669 C668 1.366 . S
C669 C670 1.392 . S
C669 H692 0.930 . S
C670 C669 1.392 . S
C670 C671 1.398 . S
C670 H693 0.929 . S
C671 C670 1.398 . S
C671 C672 1.352 . S
C672 C671 1.352 . S
C672 C673 1.384 . S
C672 H694 0.930 . S
C673 C668 1.407 . S
C673 C672 1.384 . S
C673 H695 0.929 . S
C674 O684 1.241 . S
C674 O685 1.273 . S
C675 O686 1.251 . S
C675 O687 1.268 . S
O676 Nd656 2.500 . S
O676 C658 1.258 . S
O677 Nd656 2.492 . S
O677 C658 1.239 . S
O678 Nd656 2.487 . S
O678 C665 1.241 . S
O679 Nd656 2.682 . S
O679 Nd657 2.414 . S
O679 C665 1.273 . S
O680 Nd656 2.410 . S
O680 C666 1.251 . S
O681 Nd657 2.424 . S
O681 C666 1.268 . S
O682 Nd657 2.500 . S
O682 C667 1.258 . S
O683 Nd657 2.492 . S
O683 C667 1.239 . S
O684 Nd657 2.487 . S
O684 C674 1.241 . S
O685 Nd656 2.414 . S
O685 Nd657 2.682 . S
O685 C674 1.273 . S
O686 Nd657 2.410 . S
O686 C675 1.251 . S
O687 Nd656 2.424 . S
O687 C675 1.268 . S
H688 C660 0.930 . S
H689 C661 0.929 . S
H690 C663 0.930 . S
H691 C664 0.929 . S
H692 C669 0.930 . S
H693 C670 0.929 . S
H694 C672 0.930 . S
H695 C673 0.929 . S
Nd696 C698 2.836 . S
Nd696 O716 2.500 . S
Nd696 O717 2.492 . S
Nd696 O718 2.487 . S
Nd696 O719 2.682 . S
Nd696 O720 2.410 . S
Nd696 O725 2.414 . S
Nd696 O727 2.424 . S
Nd697 C707 2.836 . S
Nd697 O719 2.414 . S
Nd697 O721 2.424 . S
Nd697 O722 2.500 . S
Nd697 O723 2.492 . S
Nd697 O724 2.487 . S
Nd697 O725 2.682 . S
Nd697 O726 2.410 . S
C698 Nd696 2.836 . S
C698 C699 1.498 . S
C698 O716 1.258 . S
C698 O717 1.239 . S
C699 C698 1.498 . S
C699 C700 1.366 . S
C699 C704 1.407 . S
C700 C699 1.366 . S
C700 C701 1.392 . S
C700 H728 0.930 . S
C701 C700 1.392 . S
C701 C702 1.398 . S
C701 H729 0.929 . S
C702 C701 1.398 . S
C702 C703 1.352 . S
C703 C702 1.352 . S
C703 C704 1.384 . S
C703 H730 0.930 . S
C704 C699 1.407 . S
C704 C703 1.384 . S
C704 H731 0.929 . S
C705 O718 1.241 . S
C705 O719 1.273 . S
C706 O720 1.251 . S
C706 O721 1.268 . S
C707 Nd697 2.836 . S
C707 C708 1.498 . S
C707 O722 1.258 . S
C707 O723 1.239 . S
C708 C707 1.498 . S
C708 C709 1.366 . S
C708 C713 1.407 . S
C709 C708 1.366 . S
C709 C710 1.392 . S
C709 H732 0.930 . S
C710 C709 1.392 . S
C710 C711 1.398 . S
C710 H733 0.929 . S
C711 C710 1.398 . S
C711 C712 1.352 . S
C712 C711 1.352 . S
C712 C713 1.384 . S
C712 H734 0.930 . S
C713 C708 1.407 . S
C713 C712 1.384 . S
C713 H735 0.929 . S
C714 O724 1.241 . S
C714 O725 1.273 . S
C715 O726 1.251 . S
C715 O727 1.268 . S
O716 Nd696 2.500 . S
O716 C698 1.258 . S
O717 Nd696 2.492 . S
O717 C698 1.239 . S
O718 Nd696 2.487 . S
O718 C705 1.241 . S
O719 Nd696 2.682 . S
O719 Nd697 2.414 . S
O719 C705 1.273 . S
O720 Nd696 2.410 . S
O720 C706 1.251 . S
O721 Nd697 2.424 . S
O721 C706 1.268 . S
O722 Nd697 2.500 . S
O722 C707 1.258 . S
O723 Nd697 2.492 . S
O723 C707 1.239 . S
O724 Nd697 2.487 . S
O724 C714 1.241 . S
O725 Nd696 2.414 . S
O725 Nd697 2.682 . S
O725 C714 1.273 . S
O726 Nd697 2.410 . S
O726 C715 1.251 . S
O727 Nd696 2.424 . S
O727 C715 1.268 . S
H728 C700 0.930 . S
H729 C701 0.929 . S
H730 C703 0.930 . S
H731 C704 0.929 . S
H732 C709 0.930 . S
H733 C710 0.929 . S
H734 C712 0.930 . S
H735 C713 0.929 . S
Nd736 C738 2.836 1_455 S
Nd736 O756 2.500 1_455 S
Nd736 O757 2.492 1_455 S
Nd736 O758 2.487 . S
Nd736 O759 2.682 . S
Nd736 O760 2.410 . S
Nd736 O765 2.414 . S
Nd736 O767 2.424 . S
Nd737 C747 2.836 . S
Nd737 O759 2.414 . S
Nd737 O761 2.424 . S
Nd737 O762 2.500 . S
Nd737 O763 2.492 . S
Nd737 O764 2.487 . S
Nd737 O765 2.682 . S
Nd737 O766 2.410 . S
C738 Nd736 2.836 1_655 S
C738 C739 1.498 . S
C738 O756 1.258 . S
C738 O757 1.239 . S
C739 C738 1.498 . S
C739 C740 1.366 . S
C739 C744 1.407 . S
C740 C739 1.366 . S
C740 C741 1.392 . S
C740 H768 0.930 . S
C741 C740 1.392 . S
C741 C742 1.398 . S
C741 H769 0.929 . S
C742 C741 1.398 . S
C742 C743 1.352 . S
C743 C742 1.352 . S
C743 C744 1.384 . S
C743 H770 0.930 . S
C744 C739 1.407 . S
C744 C743 1.384 . S
C744 H771 0.929 . S
C745 O758 1.241 . S
C745 O759 1.273 . S
C746 O760 1.251 . S
C746 O761 1.268 . S
C747 Nd737 2.836 . S
C747 C748 1.498 . S
C747 O762 1.258 . S
C747 O763 1.239 . S
C748 C747 1.498 . S
C748 C749 1.366 . S
C748 C753 1.407 . S
C749 C748 1.366 . S
C749 C750 1.392 . S
C749 H772 0.930 . S
C750 C749 1.392 . S
C750 C751 1.398 . S
C750 H773 0.929 . S
C751 C750 1.398 . S
C751 C752 1.352 . S
C752 C751 1.352 . S
C752 C753 1.384 . S
C752 H774 0.930 . S
C753 C748 1.407 . S
C753 C752 1.384 . S
C753 H775 0.929 . S
C754 O764 1.241 . S
C754 O765 1.273 . S
C755 O766 1.251 . S
C755 O767 1.268 . S
O756 Nd736 2.500 1_655 S
O756 C738 1.258 . S
O757 Nd736 2.492 1_655 S
O757 C738 1.239 . S
O758 Nd736 2.487 . S
O758 C745 1.241 . S
O759 Nd736 2.682 . S
O759 Nd737 2.414 . S
O759 C745 1.273 . S
O760 Nd736 2.410 . S
O760 C746 1.251 . S
O761 Nd737 2.424 . S
O761 C746 1.268 . S
O762 Nd737 2.500 . S
O762 C747 1.258 . S
O763 Nd737 2.492 . S
O763 C747 1.239 . S
O764 Nd737 2.487 . S
O764 C754 1.241 . S
O765 Nd736 2.414 . S
O765 Nd737 2.682 . S
O765 C754 1.273 . S
O766 Nd737 2.410 . S
O766 C755 1.251 . S
O767 Nd736 2.424 . S
O767 C755 1.268 . S
H768 C740 0.930 . S
H769 C741 0.929 . S
H770 C743 0.930 . S
H771 C744 0.929 . S
H772 C749 0.930 . S
H773 C750 0.929 . S
H774 C752 0.930 . S
H775 C753 0.929 . S
Nd776 C778 2.836 . S
Nd776 O796 2.500 . S
Nd776 O797 2.492 . S
Nd776 O798 2.487 . S
Nd776 O799 2.682 . S
Nd776 O800 2.410 . S
Nd776 O805 2.414 . S
Nd776 O807 2.424 . S
Nd777 C787 2.836 . S
Nd777 O799 2.414 . S
Nd777 O801 2.424 . S
Nd777 O802 2.500 . S
Nd777 O803 2.492 . S
Nd777 O804 2.487 . S
Nd777 O805 2.682 . S
Nd777 O806 2.410 . S
C778 Nd776 2.836 . S
C778 C779 1.498 . S
C778 O796 1.258 . S
C778 O797 1.239 . S
C779 C778 1.498 . S
C779 C780 1.366 . S
C779 C784 1.407 . S
C780 C779 1.366 . S
C780 C781 1.392 . S
C780 H808 0.930 . S
C781 C780 1.392 . S
C781 C782 1.398 . S
C781 H809 0.929 . S
C782 C781 1.398 . S
C782 C783 1.352 . S
C783 C782 1.352 . S
C783 C784 1.384 . S
C783 H810 0.930 . S
C784 C779 1.407 . S
C784 C783 1.384 . S
C784 H811 0.929 . S
C785 O798 1.241 . S
C785 O799 1.273 . S
C786 O800 1.251 . S
C786 O801 1.268 . S
C787 Nd777 2.836 . S
C787 C788 1.498 . S
C787 O802 1.258 . S
C787 O803 1.239 . S
C788 C787 1.498 . S
C788 C789 1.366 . S
C788 C793 1.407 . S
C789 C788 1.366 . S
C789 C790 1.392 . S
C789 H812 0.930 . S
C790 C789 1.392 . S
C790 C791 1.398 . S
C790 H813 0.929 . S
C791 C790 1.398 . S
C791 C792 1.352 . S
C792 C791 1.352 . S
C792 C793 1.384 . S
C792 H814 0.930 . S
C793 C788 1.407 . S
C793 C792 1.384 . S
C793 H815 0.929 . S
C794 O804 1.241 . S
C794 O805 1.273 . S
C795 O806 1.251 . S
C795 O807 1.268 . S
O796 Nd776 2.500 . S
O796 C778 1.258 . S
O797 Nd776 2.492 . S
O797 C778 1.239 . S
O798 Nd776 2.487 . S
O798 C785 1.241 . S
O799 Nd776 2.682 . S
O799 Nd777 2.414 . S
O799 C785 1.273 . S
O800 Nd776 2.410 . S
O800 C786 1.251 . S
O801 Nd777 2.424 . S
O801 C786 1.268 . S
O802 Nd777 2.500 . S
O802 C787 1.258 . S
O803 Nd777 2.492 . S
O803 C787 1.239 . S
O804 Nd777 2.487 . S
O804 C794 1.241 . S
O805 Nd776 2.414 . S
O805 Nd777 2.682 . S
O805 C794 1.273 . S
O806 Nd777 2.410 . S
O806 C795 1.251 . S
O807 Nd776 2.424 . S
O807 C795 1.268 . S
H808 C780 0.930 . S
H809 C781 0.929 . S
H810 C783 0.930 . S
H811 C784 0.929 . S
H812 C789 0.930 . S
H813 C790 0.929 . S
H814 C792 0.930 . S
H815 C793 0.929 . S
Nd816 C818 2.836 . S
Nd816 O836 2.500 . S
Nd816 O837 2.492 . S
Nd816 O838 2.487 . S
Nd816 O839 2.682 . S
Nd816 O840 2.410 . S
Nd816 O845 2.414 . S
Nd816 O847 2.424 . S
Nd817 C827 2.836 . S
Nd817 O839 2.414 . S
Nd817 O841 2.424 . S
Nd817 O842 2.500 . S
Nd817 O843 2.492 . S
Nd817 O844 2.487 . S
Nd817 O845 2.682 . S
Nd817 O846 2.410 . S
C818 Nd816 2.836 . S
C818 C819 1.498 . S
C818 O836 1.258 . S
C818 O837 1.239 . S
C819 C818 1.498 . S
C819 C820 1.366 . S
C819 C824 1.407 . S
C820 C819 1.366 . S
C820 C821 1.392 . S
C820 H848 0.930 . S
C821 C820 1.392 . S
C821 C822 1.398 . S
C821 H849 0.929 . S
C822 C821 1.398 . S
C822 C823 1.352 . S
C823 C822 1.352 . S
C823 C824 1.384 . S
C823 H850 0.930 . S
C824 C819 1.407 . S
C824 C823 1.384 . S
C824 H851 0.929 . S
C825 O838 1.241 . S
C825 O839 1.273 . S
C826 O840 1.251 . S
C826 O841 1.268 . S
C827 Nd817 2.836 . S
C827 C828 1.498 . S
C827 O842 1.258 . S
C827 O843 1.239 . S
C828 C827 1.498 . S
C828 C829 1.366 . S
C828 C833 1.407 . S
C829 C828 1.366 . S
C829 C830 1.392 . S
C829 H852 0.930 . S
C830 C829 1.392 . S
C830 C831 1.398 . S
C830 H853 0.929 . S
C831 C830 1.398 . S
C831 C832 1.352 . S
C832 C831 1.352 . S
C832 C833 1.384 . S
C832 H854 0.930 . S
C833 C828 1.407 . S
C833 C832 1.384 . S
C833 H855 0.929 . S
C834 O844 1.241 . S
C834 O845 1.273 . S
C835 O846 1.251 . S
C835 O847 1.268 . S
O836 Nd816 2.500 . S
O836 C818 1.258 . S
O837 Nd816 2.492 . S
O837 C818 1.239 . S
O838 Nd816 2.487 . S
O838 C825 1.241 . S
O839 Nd816 2.682 . S
O839 Nd817 2.414 . S
O839 C825 1.273 . S
O840 Nd816 2.410 . S
O840 C826 1.251 . S
O841 Nd817 2.424 . S
O841 C826 1.268 . S
O842 Nd817 2.500 . S
O842 C827 1.258 . S
O843 Nd817 2.492 . S
O843 C827 1.239 . S
O844 Nd817 2.487 . S
O844 C834 1.241 . S
O845 Nd816 2.414 . S
O845 Nd817 2.682 . S
O845 C834 1.273 . S
O846 Nd817 2.410 . S
O846 C835 1.251 . S
O847 Nd816 2.424 . S
O847 C835 1.268 . S
H848 C820 0.930 . S
H849 C821 0.929 . S
H850 C823 0.930 . S
H851 C824 0.929 . S
H852 C829 0.930 . S
H853 C830 0.929 . S
H854 C832 0.930 . S
H855 C833 0.929 . S
Nd856 C858 2.836 . S
Nd856 O876 2.500 . S
Nd856 O877 2.492 . S
Nd856 O878 2.487 . S
Nd856 O879 2.682 . S
Nd856 O880 2.410 . S
Nd856 O885 2.414 . S
Nd856 O887 2.424 . S
Nd857 C867 2.836 . S
Nd857 O879 2.414 . S
Nd857 O881 2.424 . S
Nd857 O882 2.500 . S
Nd857 O883 2.492 . S
Nd857 O884 2.487 . S
Nd857 O885 2.682 . S
Nd857 O886 2.410 . S
C858 Nd856 2.836 . S
C858 C859 1.498 . S
C858 O876 1.258 . S
C858 O877 1.239 . S
C859 C858 1.498 . S
C859 C860 1.366 . S
C859 C864 1.407 . S
C860 C859 1.366 . S
C860 C861 1.392 . S
C860 H888 0.930 . S
C861 C860 1.392 . S
C861 C862 1.398 . S
C861 H889 0.929 . S
C862 C861 1.398 . S
C862 C863 1.352 . S
C863 C862 1.352 . S
C863 C864 1.384 . S
C863 H890 0.930 . S
C864 C859 1.407 . S
C864 C863 1.384 . S
C864 H891 0.929 . S
C865 O878 1.241 . S
C865 O879 1.273 . S
C866 O880 1.251 . S
C866 O881 1.268 . S
C867 Nd857 2.836 . S
C867 C868 1.498 . S
C867 O882 1.258 . S
C867 O883 1.239 . S
C868 C867 1.498 . S
C868 C869 1.366 . S
C868 C873 1.407 . S
C869 C868 1.366 . S
C869 C870 1.392 . S
C869 H892 0.930 . S
C870 C869 1.392 . S
C870 C871 1.398 . S
C870 H893 0.929 . S
C871 C870 1.398 . S
C871 C872 1.352 . S
C872 C871 1.352 . S
C872 C873 1.384 . S
C872 H894 0.930 . S
C873 C868 1.407 . S
C873 C872 1.384 . S
C873 H895 0.929 . S
C874 O884 1.241 . S
C874 O885 1.273 . S
C875 O886 1.251 . S
C875 O887 1.268 . S
O876 Nd856 2.500 . S
O876 C858 1.258 . S
O877 Nd856 2.492 . S
O877 C858 1.239 . S
O878 Nd856 2.487 . S
O878 C865 1.241 . S
O879 Nd856 2.682 . S
O879 Nd857 2.414 . S
O879 C865 1.273 . S
O880 Nd856 2.410 . S
O880 C866 1.251 . S
O881 Nd857 2.424 . S
O881 C866 1.268 . S
O882 Nd857 2.500 . S
O882 C867 1.258 . S
O883 Nd857 2.492 . S
O883 C867 1.239 . S
O884 Nd857 2.487 . S
O884 C874 1.241 . S
O885 Nd856 2.414 . S
O885 Nd857 2.682 . S
O885 C874 1.273 . S
O886 Nd857 2.410 . S
O886 C875 1.251 . S
O887 Nd856 2.424 . S
O887 C875 1.268 . S
H888 C860 0.930 . S
H889 C861 0.929 . S
H890 C863 0.930 . S
H891 C864 0.929 . S
H892 C869 0.930 . S
H893 C870 0.929 . S
H894 C872 0.930 . S
H895 C873 0.929 . S
Nd896 C898 2.836 . S
Nd896 O916 2.500 . S
Nd896 O917 2.492 . S
Nd896 O918 2.487 . S
Nd896 O919 2.682 . S
Nd896 O920 2.410 . S
Nd896 O925 2.414 . S
Nd896 O927 2.424 . S
Nd897 C907 2.836 . S
Nd897 O919 2.414 . S
Nd897 O921 2.424 . S
Nd897 O922 2.500 . S
Nd897 O923 2.492 . S
Nd897 O924 2.487 . S
Nd897 O925 2.682 . S
Nd897 O926 2.410 . S
C898 Nd896 2.836 . S
C898 C899 1.498 . S
C898 O916 1.258 . S
C898 O917 1.239 . S
C899 C898 1.498 . S
C899 C900 1.366 . S
C899 C904 1.407 . S
C900 C899 1.366 . S
C900 C901 1.392 . S
C900 H928 0.930 . S
C901 C900 1.392 . S
C901 C902 1.398 . S
C901 H929 0.929 . S
C902 C901 1.398 . S
C902 C903 1.352 . S
C903 C902 1.352 . S
C903 C904 1.384 . S
C903 H930 0.930 . S
C904 C899 1.407 . S
C904 C903 1.384 . S
C904 H931 0.929 . S
C905 O918 1.241 . S
C905 O919 1.273 . S
C906 O920 1.251 . S
C906 O921 1.268 . S
C907 Nd897 2.836 . S
C907 C908 1.498 . S
C907 O922 1.258 . S
C907 O923 1.239 . S
C908 C907 1.498 . S
C908 C909 1.366 . S
C908 C913 1.407 . S
C909 C908 1.366 . S
C909 C910 1.392 . S
C909 H932 0.930 . S
C910 C909 1.392 . S
C910 C911 1.398 . S
C910 H933 0.929 . S
C911 C910 1.398 . S
C911 C912 1.352 . S
C912 C911 1.352 . S
C912 C913 1.384 . S
C912 H934 0.930 . S
C913 C908 1.407 . S
C913 C912 1.384 . S
C913 H935 0.929 . S
C914 O924 1.241 . S
C914 O925 1.273 . S
C915 O926 1.251 . S
C915 O927 1.268 . S
O916 Nd896 2.500 . S
O916 C898 1.258 . S
O917 Nd896 2.492 . S
O917 C898 1.239 . S
O918 Nd896 2.487 . S
O918 C905 1.241 . S
O919 Nd896 2.682 . S
O919 Nd897 2.414 . S
O919 C905 1.273 . S
O920 Nd896 2.410 . S
O920 C906 1.251 . S
O921 Nd897 2.424 . S
O921 C906 1.268 . S
O922 Nd897 2.500 . S
O922 C907 1.258 . S
O923 Nd897 2.492 . S
O923 C907 1.239 . S
O924 Nd897 2.487 . S
O924 C914 1.241 . S
O925 Nd896 2.414 . S
O925 Nd897 2.682 . S
O925 C914 1.273 . S
O926 Nd897 2.410 . S
O926 C915 1.251 . S
O927 Nd896 2.424 . S
O927 C915 1.268 . S
H928 C900 0.930 . S
H929 C901 0.929 . S
H930 C903 0.930 . S
H931 C904 0.929 . S
H932 C909 0.930 . S
H933 C910 0.929 . S
H934 C912 0.930 . S
H935 C913 0.929 . S
Nd936 C938 2.836 . S
Nd936 O956 2.500 . S
Nd936 O957 2.492 . S
Nd936 O958 2.487 . S
Nd936 O959 2.682 . S
Nd936 O960 2.410 . S
Nd936 O965 2.414 . S
Nd936 O967 2.424 . S
Nd937 C947 2.828 1_455 S
Nd937 O959 2.420 . S
Nd937 O961 2.430 . S
Nd937 O962 2.493 1_455 S
Nd937 O963 2.484 1_455 S
Nd937 O964 2.488 . S
Nd937 O965 2.690 . S
Nd937 O966 2.411 . S
C938 Nd936 2.836 . S
C938 C939 1.498 . S
C938 O956 1.258 . S
C938 O957 1.239 . S
C939 C938 1.498 . S
C939 C940 1.366 . S
C939 C944 1.407 . S
C940 C939 1.366 . S
C940 C941 1.392 . S
C940 H968 0.930 . S
C941 C940 1.392 . S
C941 C942 1.398 . S
C941 H969 0.929 . S
C942 C941 1.398 . S
C942 C943 1.352 . S
C943 C942 1.352 . S
C943 C944 1.384 . S
C943 H970 0.930 . S
C944 C939 1.407 . S
C944 C943 1.384 . S
C944 H971 0.929 . S
C945 O958 1.241 . S
C945 O959 1.273 . S
C946 O960 1.251 . S
C946 O961 1.268 . S
C947 Nd937 2.828 1_655 S
C947 C948 1.498 . S
C947 O962 1.258 . S
C947 O963 1.239 . S
C948 C947 1.498 . S
C948 C949 1.366 . S
C948 C953 1.407 . S
C949 C948 1.366 . S
C949 C950 1.392 . S
C949 H972 0.930 . S
C950 C949 1.392 . S
C950 C951 1.398 . S
C950 H973 0.929 . S
C951 C950 1.398 . S
C951 C952 1.352 . S
C952 C951 1.352 . S
C952 C953 1.384 . S
C952 H974 0.930 . S
C953 C948 1.407 . S
C953 C952 1.384 . S
C953 H975 0.929 . S
C954 O964 1.241 . S
C954 O965 1.273 . S
C955 O966 1.251 . S
C955 O967 1.268 . S
O956 Nd936 2.500 . S
O956 C938 1.258 . S
O957 Nd936 2.492 . S
O957 C938 1.239 . S
O958 Nd936 2.487 . S
O958 C945 1.241 . S
O959 Nd936 2.682 . S
O959 Nd937 2.420 . S
O959 C945 1.273 . S
O960 Nd936 2.410 . S
O960 C946 1.251 . S
O961 Nd937 2.430 . S
O961 C946 1.268 . S
O962 Nd937 2.493 1_655 S
O962 C947 1.258 . S
O963 Nd937 2.484 1_655 S
O963 C947 1.239 . S
O964 Nd937 2.488 . S
O964 C954 1.241 . S
O965 Nd936 2.414 . S
O965 Nd937 2.690 . S
O965 C954 1.273 . S
O966 Nd937 2.411 . S
O966 C955 1.251 . S
O967 Nd936 2.424 . S
O967 C955 1.268 . S
H968 C940 0.930 . S
H969 C941 0.929 . S
H970 C943 0.930 . S
H971 C944 0.929 . S
H972 C949 0.930 . S
H973 C950 0.929 . S
H974 C952 0.930 . S
H975 C953 0.929 . S
H976 C982 0.930 . S
H977 C986 0.930 . S
H978 C991 0.929 . S
H979 C989 0.929 . S
H980 C984 0.929 . S
H981 C990 0.929 . S
C982 H976 0.930 . S
C982 C983 1.367 . S
C982 C990 1.378 . S
C983 C982 1.367 . S
C983 C991 1.433 . S
C984 H980 0.929 . S
C984 C986 1.378 . S
C984 C988 1.350 . S
C985 C988 1.463 1_556 S
C985 C990 1.350 . S
C985 N993 1.427 . S
C986 H977 0.930 . S
C986 C984 1.378 . S
C986 C987 1.367 . S
C987 C986 1.367 . S
C987 C989 1.433 . S
C988 C984 1.350 . S
C988 C985 1.463 1_554 S
C988 N992 1.427 . S
C989 H979 0.929 . S
C989 C987 1.433 . S
C989 N992 1.384 . S
C990 H981 0.929 . S
C990 C982 1.378 . S
C990 C985 1.350 . S
C991 H978 0.929 . S
C991 C983 1.433 . S
C991 N993 1.384 . S
N992 C988 1.427 . S
N992 C989 1.384 . S
N993 C985 1.427 . S
N993 C991 1.384 . S
H994 C1000 0.930 . S
H995 C1004 0.930 . S
H996 C1009 0.929 . S
H997 C1007 0.929 . S
H998 C1002 0.929 . S
H999 C1008 0.929 . S
C1000 H994 0.930 . S
C1000 C1001 1.367 . S
C1000 C1008 1.378 . S
C1001 C1000 1.367 . S
C1001 C1009 1.433 . S
C1002 H998 0.929 . S
C1002 C1004 1.378 . S
C1002 C1006 1.350 . S
C1003 C1006 1.463 . S
C1003 C1008 1.350 . S
C1003 N1011 1.427 . S
C1004 H995 0.930 . S
C1004 C1002 1.378 . S
C1004 C1005 1.367 . S
C1005 C1004 1.367 . S
C1005 C1007 1.433 . S
C1006 C1002 1.350 . S
C1006 C1003 1.463 . S
C1006 N1010 1.427 . S
C1007 H997 0.929 . S
C1007 C1005 1.433 . S
C1007 N1010 1.384 . S
C1008 H999 0.929 . S
C1008 C1000 1.378 . S
C1008 C1003 1.350 . S
C1009 H996 0.929 . S
C1009 C1001 1.433 . S
C1009 N1011 1.384 . S
N1010 C1006 1.427 . S
N1010 C1007 1.384 . S
N1011 C1003 1.427 . S
N1011 C1009 1.384 . S
H1012 C1018 0.930 . S
H1013 C1022 0.930 1_545 S
H1014 C1027 0.929 . S
H1015 C1025 0.929 . S
H1016 C1020 0.929 . S
H1017 C1026 0.929 . S
C1018 H1012 0.930 . S
C1018 C1019 1.367 . S
C1018 C1026 1.378 . S
C1019 C1018 1.367 . S
C1019 C1027 1.433 . S
C1020 H1016 0.929 . S
C1020 C1022 1.378 . S
C1020 C1024 1.350 . S
C1021 C1024 1.463 . S
C1021 C1026 1.350 . S
C1021 N1029 1.427 . S
C1022 H1013 0.930 1_565 S
C1022 C1020 1.378 . S
C1022 C1023 1.367 . S
C1023 C1022 1.367 . S
C1023 C1025 1.433 . S
C1024 C1020 1.350 . S
C1024 C1021 1.463 . S
C1024 N1028 1.427 . S
C1025 H1015 0.929 . S
C1025 C1023 1.433 . S
C1025 N1028 1.384 . S
C1026 H1017 0.929 . S
C1026 C1018 1.378 . S
C1026 C1021 1.350 . S
C1027 H1014 0.929 . S
C1027 C1019 1.433 . S
C1027 N1029 1.384 . S
N1028 C1024 1.427 . S
N1028 C1025 1.384 . S
N1029 C1021 1.427 . S
N1029 C1027 1.384 . S
H1030 C1036 0.930 . S
H1031 C1040 0.930 . S
H1032 C1045 0.929 . S
H1033 C1043 0.929 . S
H1034 C1038 0.929 . S
H1035 C1044 0.929 . S
C1036 H1030 0.930 . S
C1036 C1037 1.367 . S
C1036 C1044 1.378 . S
C1037 C1036 1.367 . S
C1037 C1045 1.433 . S
C1038 H1034 0.929 . S
C1038 C1040 1.378 . S
C1038 C1042 1.350 . S
C1039 C1042 1.463 . S
C1039 C1044 1.350 . S
C1039 N1047 1.427 . S
C1040 H1031 0.930 . S
C1040 C1038 1.378 . S
C1040 C1041 1.367 . S
C1041 C1040 1.367 . S
C1041 C1043 1.433 . S
C1042 C1038 1.350 . S
C1042 C1039 1.463 . S
C1042 N1046 1.427 . S
C1043 H1033 0.929 . S
C1043 C1041 1.433 . S
C1043 N1046 1.384 . S
C1044 H1035 0.929 . S
C1044 C1036 1.378 . S
C1044 C1039 1.350 . S
C1045 H1032 0.929 . S
C1045 C1037 1.433 . S
C1045 N1047 1.384 . S
N1046 C1042 1.427 . S
N1046 C1043 1.384 . S
N1047 C1039 1.427 . S
N1047 C1045 1.384 . S
H1048 C1054 0.930 . S
H1049 C1058 0.930 . S
H1050 C1063 0.929 . S
H1051 C1061 0.929 . S
H1052 C1056 0.929 . S
H1053 C1062 0.929 1_655 S
C1054 H1048 0.930 . S
C1054 C1055 1.367 1_655 S
C1054 C1062 1.378 1_655 S
C1055 C1054 1.367 1_455 S
C1055 C1063 1.433 . S
C1056 H1052 0.929 . S
C1056 C1058 1.378 . S
C1056 C1060 1.350 . S
C1057 C1060 1.463 . S
C1057 C1062 1.350 . S
C1057 N1065 1.427 . S
C1058 H1049 0.930 . S
C1058 C1056 1.378 . S
C1058 C1059 1.367 . S
C1059 C1058 1.367 . S
C1059 C1061 1.433 . S
C1060 C1056 1.350 . S
C1060 C1057 1.463 . S
C1060 N1064 1.427 . S
C1061 H1051 0.929 . S
C1061 C1059 1.433 . S
C1061 N1064 1.384 . S
C1062 H1053 0.929 1_455 S
C1062 C1054 1.378 1_455 S
C1062 C1057 1.350 . S
C1063 H1050 0.929 . S
C1063 C1055 1.433 . S
C1063 N1065 1.384 . S
N1064 C1060 1.427 . S
N1064 C1061 1.384 . S
N1065 C1057 1.427 . S
N1065 C1063 1.384 . S
H1066 C1072 0.930 . S
H1067 C1076 0.930 . S
H1068 C1081 0.929 . S
H1069 C1079 0.929 . S
H1070 C1074 0.929 . S
H1071 C1080 0.929 . S
C1072 H1066 0.930 . S
C1072 C1073 1.367 . S
C1072 C1080 1.378 . S
C1073 C1072 1.367 . S
C1073 C1081 1.433 . S
C1074 H1070 0.929 . S
C1074 C1076 1.378 . S
C1074 C1078 1.350 . S
C1075 C1078 1.463 . S
C1075 C1080 1.350 . S
C1075 N1083 1.427 . S
C1076 H1067 0.930 . S
C1076 C1074 1.378 . S
C1076 C1077 1.367 . S
C1077 C1076 1.367 . S
C1077 C1079 1.433 . S
C1078 C1074 1.350 . S
C1078 C1075 1.463 . S
C1078 N1082 1.427 . S
C1079 H1069 0.929 . S
C1079 C1077 1.433 . S
C1079 N1082 1.384 . S
C1080 H1071 0.929 . S
C1080 C1072 1.378 . S
C1080 C1075 1.350 . S
C1081 H1068 0.929 . S
C1081 C1073 1.433 . S
C1081 N1083 1.384 . S
N1082 C1078 1.427 . S
N1082 C1079 1.384 . S
N1083 C1075 1.427 . S
N1083 C1081 1.384 . S
H1084 C1090 0.930 . S
H1085 C1094 0.930 . S
H1086 C1099 0.929 . S
H1087 C1097 0.929 . S
H1088 C1092 0.929 . S
H1089 C1098 0.929 . S
C1090 H1084 0.930 . S
C1090 C1091 1.367 . S
C1090 C1098 1.378 . S
C1091 C1090 1.367 . S
C1091 C1099 1.433 . S
C1092 H1088 0.929 . S
C1092 C1094 1.378 . S
C1092 C1096 1.350 . S
C1093 C1096 1.463 . S
C1093 C1098 1.350 . S
C1093 N1101 1.427 . S
C1094 H1085 0.930 . S
C1094 C1092 1.378 . S
C1094 C1095 1.367 . S
C1095 C1094 1.367 . S
C1095 C1097 1.433 . S
C1096 C1092 1.350 . S
C1096 C1093 1.463 . S
C1096 N1100 1.427 . S
C1097 H1087 0.929 . S
C1097 C1095 1.433 . S
C1097 N1100 1.384 . S
C1098 H1089 0.929 . S
C1098 C1090 1.378 . S
C1098 C1093 1.350 . S
C1099 H1086 0.929 . S
C1099 C1091 1.433 . S
C1099 N1101 1.384 . S
N1100 C1096 1.427 . S
N1100 C1097 1.384 . S
N1101 C1093 1.427 . S
N1101 C1099 1.384 . S
H1102 C1108 0.930 . S
H1103 C1112 0.930 . S
H1104 C1117 0.929 . S
H1105 C1115 0.929 . S
H1106 C1110 0.929 . S
H1107 C1116 0.929 . S
C1108 H1102 0.930 . S
C1108 C1109 1.367 . S
C1108 C1116 1.378 . S
C1109 C1108 1.367 . S
C1109 C1117 1.433 . S
C1110 H1106 0.929 . S
C1110 C1112 1.378 . S
C1110 C1114 1.350 . S
C1111 C1114 1.463 . S
C1111 C1116 1.350 . S
C1111 N1119 1.427 . S
C1112 H1103 0.930 . S
C1112 C1110 1.378 . S
C1112 C1113 1.367 . S
C1113 C1112 1.367 . S
C1113 C1115 1.433 . S
C1114 C1110 1.350 . S
C1114 C1111 1.463 . S
C1114 N1118 1.427 . S
C1115 H1105 0.929 . S
C1115 C1113 1.433 . S
C1115 N1118 1.384 . S
C1116 H1107 0.929 . S
C1116 C1108 1.378 . S
C1116 C1111 1.350 . S
C1117 H1104 0.929 . S
C1117 C1109 1.433 . S
C1117 N1119 1.384 . S
N1118 C1114 1.427 . S
N1118 C1115 1.384 . S
N1119 C1111 1.427 . S
N1119 C1117 1.384 . S
H1120 C1126 0.930 . S
H1121 C1130 0.930 . S
H1122 C1135 0.929 . S
H1123 C1133 0.929 . S
H1124 C1128 0.929 . S
H1125 C1134 0.929 . S
C1126 H1120 0.930 . S
C1126 C1127 1.367 . S
C1126 C1134 1.378 . S
C1127 C1126 1.367 . S
C1127 C1135 1.433 . S
C1128 H1124 0.929 . S
C1128 C1130 1.378 . S
C1128 C1132 1.350 . S
C1129 C1132 1.463 . S
C1129 C1134 1.350 . S
C1129 N1137 1.427 . S
C1130 H1121 0.930 . S
C1130 C1128 1.378 . S
C1130 C1131 1.367 1_655 S
C1131 C1130 1.367 1_455 S
C1131 C1133 1.433 . S
C1132 C1128 1.350 . S
C1132 C1129 1.463 . S
C1132 N1136 1.427 1_655 S
C1133 H1123 0.929 . S
C1133 C1131 1.433 . S
C1133 N1136 1.384 . S
C1134 H1125 0.929 . S
C1134 C1126 1.378 . S
C1134 C1129 1.350 . S
C1135 H1122 0.929 . S
C1135 C1127 1.433 . S
C1135 N1137 1.384 . S
N1136 C1132 1.427 1_455 S
N1136 C1133 1.384 . S
N1137 C1129 1.427 . S
N1137 C1135 1.384 . S
H1138 C1144 0.930 . S
H1139 C1148 0.930 . S
H1140 C1153 0.929 . S
H1141 C1151 0.929 . S
H1142 C1146 0.929 . S
H1143 C1152 0.929 . S
C1144 H1138 0.930 . S
C1144 C1145 1.367 . S
C1144 C1152 1.378 . S
C1145 C1144 1.367 . S
C1145 C1153 1.433 . S
C1146 H1142 0.929 . S
C1146 C1148 1.378 . S
C1146 C1150 1.350 . S
C1147 C1150 1.463 . S
C1147 C1152 1.350 . S
C1147 N1155 1.427 . S
C1148 H1139 0.930 . S
C1148 C1146 1.378 . S
C1148 C1149 1.367 . S
C1149 C1148 1.367 . S
C1149 C1151 1.433 . S
C1150 C1146 1.350 . S
C1150 C1147 1.463 . S
C1150 N1154 1.427 . S
C1151 H1141 0.929 . S
C1151 C1149 1.433 . S
C1151 N1154 1.384 . S
C1152 H1143 0.929 . S
C1152 C1144 1.378 . S
C1152 C1147 1.350 . S
C1153 H1140 0.929 . S
C1153 C1145 1.433 . S
C1153 N1155 1.384 . S
N1154 C1150 1.427 . S
N1154 C1151 1.384 . S
N1155 C1147 1.427 . S
N1155 C1153 1.384 . S
H1156 C1162 0.930 . S
H1157 C1166 0.930 . S
H1158 C1171 0.929 . S
H1159 C1169 0.929 . S
H1160 C1164 0.929 . S
H1161 C1170 0.929 . S
C1162 H1156 0.930 . S
C1162 C1163 1.367 1_565 S
C1162 C1170 1.378 . S
C1163 C1162 1.367 1_545 S
C1163 C1171 1.433 . S
C1164 H1160 0.929 . S
C1164 C1166 1.378 . S
C1164 C1168 1.350 . S
C1165 C1168 1.463 . S
C1165 C1170 1.350 1_545 S
C1165 N1173 1.427 . S
C1166 H1157 0.930 . S
C1166 C1164 1.378 . S
C1166 C1167 1.367 . S
C1167 C1166 1.367 . S
C1167 C1169 1.433 . S
C1168 C1164 1.350 . S
C1168 C1165 1.463 . S
C1168 N1172 1.427 . S
C1169 H1159 0.929 . S
C1169 C1167 1.433 . S
C1169 N1172 1.384 . S
C1170 H1161 0.929 . S
C1170 C1162 1.378 . S
C1170 C1165 1.350 1_565 S
C1171 H1158 0.929 . S
C1171 C1163 1.433 . S
C1171 N1173 1.384 . S
N1172 C1168 1.427 . S
N1172 C1169 1.384 . S
N1173 C1165 1.427 . S
N1173 C1171 1.384 . S
H1174 C1180 0.930 . S
H1175 C1184 0.930 . S
H1176 C1189 0.929 . S
H1177 C1187 0.929 . S
H1178 C1182 0.929 . S
H1179 C1188 0.929 . S
C1180 H1174 0.930 . S
C1180 C1181 1.367 . S
C1180 C1188 1.378 . S
C1181 C1180 1.367 . S
C1181 C1189 1.433 . S
C1182 H1178 0.929 . S
C1182 C1184 1.378 . S
C1182 C1186 1.350 . S
C1183 C1186 1.463 . S
C1183 C1188 1.350 . S
C1183 N1191 1.427 . S
C1184 H1175 0.930 . S
C1184 C1182 1.378 . S
C1184 C1185 1.367 1_554 S
C1185 C1184 1.367 1_556 S
C1185 C1187 1.433 . S
C1186 C1182 1.350 . S
C1186 C1183 1.463 . S
C1186 N1190 1.411 1_554 S
C1187 H1177 0.929 . S
C1187 C1185 1.433 . S
C1187 N1190 1.394 . S
C1188 H1179 0.929 . S
C1188 C1180 1.378 . S
C1188 C1183 1.350 . S
C1189 H1176 0.929 . S
C1189 C1181 1.433 . S
C1189 N1191 1.384 . S
N1190 C1186 1.411 1_556 S
N1190 C1187 1.394 . S
N1191 C1183 1.427 . S
N1191 C1189 1.384 . S
H1192 C1198 0.930 . S
H1193 C1202 0.930 1_455 S
H1194 C1207 0.929 . S
H1195 C1205 0.929 . S
H1196 C1200 0.929 . S
H1197 C1206 0.929 . S
C1198 H1192 0.930 . S
C1198 C1199 1.367 . S
C1198 C1206 1.378 . S
C1199 C1198 1.367 . S
C1199 C1207 1.433 . S
C1200 H1196 0.929 . S
C1200 C1202 1.378 . S
C1200 C1204 1.350 . S
C1201 C1204 1.463 . S
C1201 C1206 1.350 . S
C1201 N1209 1.427 . S
C1202 H1193 0.930 1_655 S
C1202 C1200 1.378 . S
C1202 C1203 1.367 . S
C1203 C1202 1.367 . S
C1203 C1205 1.433 . S
C1204 C1200 1.350 . S
C1204 C1201 1.463 . S
C1204 N1208 1.427 . S
C1205 H1195 0.929 . S
C1205 C1203 1.433 . S
C1205 N1208 1.384 . S
C1206 H1197 0.929 . S
C1206 C1198 1.378 . S
C1206 C1201 1.350 . S
C1207 H1194 0.929 . S
C1207 C1199 1.433 . S
C1207 N1209 1.384 . S
N1208 C1204 1.427 . S
N1208 C1205 1.384 . S
N1209 C1201 1.427 . S
N1209 C1207 1.384 . S
H1210 C1216 0.930 . S
H1211 C1220 0.930 . S
H1212 C1225 0.929 . S
H1213 C1223 0.929 . S
H1214 C1218 0.929 . S
H1215 C1224 0.929 . S
C1216 H1210 0.930 . S
C1216 C1217 1.367 . S
C1216 C1224 1.378 . S
C1217 C1216 1.367 . S
C1217 C1225 1.433 . S
C1218 H1214 0.929 . S
C1218 C1220 1.378 . S
C1218 C1222 1.350 . S
C1219 C1222 1.463 . S
C1219 C1224 1.350 . S
C1219 N1227 1.427 . S
C1220 H1211 0.930 . S
C1220 C1218 1.378 . S
C1220 C1221 1.367 . S
C1221 C1220 1.367 . S
C1221 C1223 1.433 . S
C1222 C1218 1.350 . S
C1222 C1219 1.463 . S
C1222 N1226 1.427 . S
C1223 H1213 0.929 . S
C1223 C1221 1.433 . S
C1223 N1226 1.384 . S
C1224 H1215 0.929 . S
C1224 C1216 1.378 . S
C1224 C1219 1.350 . S
C1225 H1212 0.929 . S
C1225 C1217 1.433 . S
C1225 N1227 1.384 . S
N1226 C1222 1.427 . S
N1226 C1223 1.384 . S
N1227 C1219 1.427 . S
N1227 C1225 1.384 . S
H1228 C1234 0.930 . S
H1229 C1238 0.930 . S
H1230 C1243 0.929 1_565 S
H1231 C1241 0.929 1_554 S
H1232 C1236 0.929 . S
H1233 C1242 0.929 . S
C1234 H1228 0.930 . S
C1234 C1235 1.367 . S
C1234 C1242 1.378 . S
C1235 C1234 1.367 . S
C1235 C1243 1.433 . S
C1236 H1232 0.929 . S
C1236 C1238 1.378 . S
C1236 C1240 1.350 . S
C1237 C1240 1.463 . S
C1237 C1242 1.350 . S
C1237 N1245 1.427 . S
C1238 H1229 0.930 . S
C1238 C1236 1.378 . S
C1238 C1239 1.367 . S
C1239 C1238 1.367 . S
C1239 C1241 1.433 . S
C1240 C1236 1.350 . S
C1240 C1237 1.463 . S
C1240 N1244 1.427 . S
C1241 H1231 0.929 1_556 S
C1241 C1239 1.433 . S
C1241 N1244 1.384 . S
C1242 H1233 0.929 . S
C1242 C1234 1.378 . S
C1242 C1237 1.350 . S
C1243 H1230 0.929 1_545 S
C1243 C1235 1.433 . S
C1243 N1245 1.384 . S
N1244 C1240 1.427 . S
N1244 C1241 1.384 . S
N1245 C1237 1.427 . S
N1245 C1243 1.384 . S
H1246 C1252 0.930 . S
H1247 C1256 0.930 . S
H1248 C1261 0.929 . S
H1249 C1259 0.929 . S
H1250 C1254 0.929 . S
H1251 C1260 0.929 . S
C1252 H1246 0.930 . S
C1252 C1253 1.367 . S
C1252 C1260 1.378 . S
C1253 C1252 1.367 . S
C1253 C1261 1.433 . S
C1254 H1250 0.929 . S
C1254 C1256 1.378 . S
C1254 C1258 1.350 . S
C1255 C1258 1.463 . S
C1255 C1260 1.350 . S
C1255 N1263 1.427 . S
C1256 H1247 0.930 . S
C1256 C1254 1.378 . S
C1256 C1257 1.367 . S
C1257 C1256 1.367 . S
C1257 C1259 1.433 . S
C1258 C1254 1.350 . S
C1258 C1255 1.463 . S
C1258 N1262 1.427 . S
C1259 H1249 0.929 . S
C1259 C1257 1.433 . S
C1259 N1262 1.384 . S
C1260 H1251 0.929 . S
C1260 C1252 1.378 . S
C1260 C1255 1.350 . S
C1261 H1248 0.929 . S
C1261 C1253 1.433 . S
C1261 N1263 1.384 . S
N1262 C1258 1.427 . S
N1262 C1259 1.384 . S
N1263 C1255 1.427 . S
N1263 C1261 1.384 . S
H1264 C1270 0.930 . S
H1265 C1274 0.930 . S
H1266 C1279 0.929 . S
H1267 C1277 0.929 . S
H1268 C1272 0.929 . S
H1269 C1278 0.929 . S
C1270 H1264 0.930 . S
C1270 C1271 1.367 . S
C1270 C1278 1.378 . S
C1271 C1270 1.367 . S
C1271 C1279 1.433 . S
C1272 H1268 0.929 . S
C1272 C1274 1.378 1_565 S
C1272 C1276 1.350 . S
C1273 C1276 1.463 . S
C1273 C1278 1.350 . S
C1273 N1281 1.427 . S
C1274 H1265 0.930 . S
C1274 C1272 1.378 1_545 S
C1274 C1275 1.367 . S
C1275 C1274 1.367 . S
C1275 C1277 1.433 . S
C1276 C1272 1.350 . S
C1276 C1273 1.463 . S
C1276 N1280 1.427 1_565 S
C1277 H1267 0.929 . S
C1277 C1275 1.433 . S
C1277 N1280 1.384 . S
C1278 H1269 0.929 . S
C1278 C1270 1.378 . S
C1278 C1273 1.350 . S
C1279 H1266 0.929 . S
C1279 C1271 1.433 . S
C1279 N1281 1.384 . S
N1280 C1276 1.427 1_545 S
N1280 C1277 1.384 . S
N1281 C1273 1.427 . S
N1281 C1279 1.384 . S
H1282 C1288 0.930 1_556 S
H1283 C1292 0.930 . S
H1284 C1297 0.929 . S
H1285 C1295 0.929 . S
H1286 C1290 0.929 . S
H1287 C1296 0.929 . S
C1288 H1282 0.930 1_554 S
C1288 C1289 1.368 . S
C1288 C1296 1.379 . S
C1289 C1288 1.368 . S
C1289 C1297 1.437 . S
C1290 H1286 0.929 . S
C1290 C1292 1.378 . S
C1290 C1294 1.350 . S
C1291 C1294 1.463 . S
C1291 C1296 1.350 . S
C1291 N1299 1.427 . S
C1292 H1283 0.930 . S
C1292 C1290 1.378 . S
C1292 C1293 1.367 . S
C1293 C1292 1.367 . S
C1293 C1295 1.433 . S
C1294 C1290 1.350 . S
C1294 C1291 1.463 . S
C1294 N1298 1.427 . S
C1295 H1285 0.929 . S
C1295 C1293 1.433 . S
C1295 N1298 1.384 . S
C1296 H1287 0.929 . S
C1296 C1288 1.379 . S
C1296 C1291 1.350 . S
C1297 H1284 0.929 . S
C1297 C1289 1.437 . S
C1297 N1299 1.384 . S
N1298 C1294 1.427 . S
N1298 C1295 1.384 . S
N1299 C1291 1.427 . S
N1299 C1297 1.384 . S
H1300 C1306 0.930 . S
H1301 C1310 0.930 . S
H1302 C1315 0.929 . S
H1303 C1313 0.929 . S
H1304 C1308 0.929 . S
H1305 C1314 0.929 . S
C1306 H1300 0.930 . S
C1306 C1307 1.367 . S
C1306 C1314 1.378 . S
C1307 C1306 1.367 . S
C1307 C1315 1.433 . S
C1308 H1304 0.929 . S
C1308 C1310 1.378 . S
C1308 C1312 1.350 . S
C1309 C1312 1.463 . S
C1309 C1314 1.350 . S
C1309 N1317 1.427 . S
C1310 H1301 0.930 . S
C1310 C1308 1.378 . S
C1310 C1311 1.367 . S
C1311 C1310 1.367 . S
C1311 C1313 1.433 . S
C1312 C1308 1.350 . S
C1312 C1309 1.463 . S
C1312 N1316 1.427 . S
C1313 H1303 0.929 . S
C1313 C1311 1.433 . S
C1313 N1316 1.384 . S
C1314 H1305 0.929 . S
C1314 C1306 1.378 . S
C1314 C1309 1.350 . S
C1315 H1302 0.929 . S
C1315 C1307 1.433 . S
C1315 N1317 1.384 . S
N1316 C1312 1.427 . S
N1316 C1313 1.384 . S
N1317 C1309 1.427 . S
N1317 C1315 1.384 . S
H1318 C1324 0.930 . S
H1319 C1328 0.930 . S
H1320 C1333 0.929 . S
H1321 C1331 0.929 . S
H1322 C1326 0.929 . S
H1323 C1332 0.929 . S
C1324 H1318 0.930 . S
C1324 C1325 1.367 . S
C1324 C1332 1.378 . S
C1325 C1324 1.367 . S
C1325 C1333 1.433 . S
C1326 H1322 0.929 . S
C1326 C1328 1.378 . S
C1326 C1330 1.350 . S
C1327 C1330 1.463 . S
C1327 C1332 1.350 . S
C1327 N1335 1.427 . S
C1328 H1319 0.930 . S
C1328 C1326 1.378 . S
C1328 C1329 1.367 . S
C1329 C1328 1.367 . S
C1329 C1331 1.433 . S
C1330 C1326 1.350 . S
C1330 C1327 1.463 . S
C1330 N1334 1.427 . S
C1331 H1321 0.929 . S
C1331 C1329 1.433 . S
C1331 N1334 1.384 . S
C1332 H1323 0.929 . S
C1332 C1324 1.378 . S
C1332 C1327 1.350 . S
C1333 H1320 0.929 . S
C1333 C1325 1.433 . S
C1333 N1335 1.384 . S
N1334 C1330 1.427 . S
N1334 C1331 1.384 . S
N1335 C1327 1.427 . S
N1335 C1333 1.384 . S
H1336 C1342 0.930 . S
H1337 C1346 0.930 . S
H1338 C1351 0.929 . S
H1339 C1349 0.929 . S
H1340 C1344 0.929 . S
H1341 C1350 0.929 . S
C1342 H1336 0.930 . S
C1342 C1343 1.367 . S
C1342 C1350 1.378 . S
C1343 C1342 1.367 . S
C1343 C1351 1.433 . S
C1344 H1340 0.929 . S
C1344 C1346 1.378 . S
C1344 C1348 1.350 . S
C1345 C1348 1.463 . S
C1345 C1350 1.350 . S
C1345 N1353 1.427 . S
C1346 H1337 0.930 . S
C1346 C1344 1.378 . S
C1346 C1347 1.367 . S
C1347 C1346 1.367 . S
C1347 C1349 1.433 . S
C1348 C1344 1.350 . S
C1348 C1345 1.463 . S
C1348 N1352 1.427 . S
C1349 H1339 0.929 . S
C1349 C1347 1.433 . S
C1349 N1352 1.384 . S
C1350 H1341 0.929 . S
C1350 C1342 1.378 . S
C1350 C1345 1.350 . S
C1351 H1338 0.929 . S
C1351 C1343 1.433 . S
C1351 N1353 1.384 . S
N1352 C1348 1.427 . S
N1352 C1349 1.384 . S
N1353 C1345 1.427 . S
N1353 C1351 1.384 . S
H1354 C1360 0.930 . S
H1355 C1364 0.930 . S
H1356 C1369 0.929 . S
H1357 C1367 0.929 . S
H1358 C1362 0.929 . S
H1359 C1368 0.929 . S
C1360 H1354 0.930 . S
C1360 C1361 1.367 . S
C1360 C1368 1.378 . S
C1361 C1360 1.367 . S
C1361 C1369 1.433 . S
C1362 H1358 0.929 . S
C1362 C1364 1.378 . S
C1362 C1366 1.350 . S
C1363 C1366 1.463 . S
C1363 C1368 1.350 . S
C1363 N1371 1.427 . S
C1364 H1355 0.930 . S
C1364 C1362 1.378 . S
C1364 C1365 1.367 . S
C1365 C1364 1.367 . S
C1365 C1367 1.433 . S
C1366 C1362 1.350 . S
C1366 C1363 1.463 . S
C1366 N1370 1.427 . S
C1367 H1357 0.929 . S
C1367 C1365 1.433 . S
C1367 N1370 1.384 . S
C1368 H1359 0.929 . S
C1368 C1360 1.378 . S
C1368 C1363 1.350 . S
C1369 H1356 0.929 . S
C1369 C1361 1.433 . S
C1369 N1371 1.384 . S
N1370 C1366 1.427 . S
N1370 C1367 1.384 . S
N1371 C1363 1.427 . S
N1371 C1369 1.384 . S
H1372 C1378 0.930 . S
H1373 C1382 0.930 . S
H1374 C1387 0.929 . S
H1375 C1385 0.929 . S
H1376 C1380 0.929 . S
H1377 C1386 0.929 . S
C1378 H1372 0.930 . S
C1378 C1379 1.367 . S
C1378 C1386 1.378 . S
C1379 C1378 1.367 . S
C1379 C1387 1.433 . S
C1380 H1376 0.929 . S
C1380 C1382 1.378 . S
C1380 C1384 1.350 . S
C1381 C1384 1.463 . S
C1381 C1386 1.350 . S
C1381 N1389 1.427 . S
C1382 H1373 0.930 . S
C1382 C1380 1.378 . S
C1382 C1383 1.367 . S
C1383 C1382 1.367 . S
C1383 C1385 1.433 . S
C1384 C1380 1.350 . S
C1384 C1381 1.463 . S
C1384 N1388 1.427 . S
C1385 H1375 0.929 . S
C1385 C1383 1.433 . S
C1385 N1388 1.384 . S
C1386 H1377 0.929 . S
C1386 C1378 1.378 . S
C1386 C1381 1.350 . S
C1387 H1374 0.929 . S
C1387 C1379 1.433 . S
C1387 N1389 1.384 . S
N1388 C1384 1.427 . S
N1388 C1385 1.384 . S
N1389 C1381 1.427 . S
N1389 C1387 1.384 . S
H1390 C1396 0.930 . S
H1391 C1400 0.930 . S
H1392 C1405 0.929 . S
H1393 C1403 0.929 . S
H1394 C1398 0.929 . S
H1395 C1404 0.929 . S
C1396 H1390 0.930 . S
C1396 C1397 1.367 . S
C1396 C1404 1.378 . S
C1397 C1396 1.367 . S
C1397 C1405 1.433 . S
C1398 H1394 0.929 . S
C1398 C1400 1.378 . S
C1398 C1402 1.350 . S
C1399 C1402 1.463 . S
C1399 C1404 1.350 . S
C1399 N1407 1.427 . S
C1400 H1391 0.930 . S
C1400 C1398 1.378 . S
C1400 C1401 1.367 . S
C1401 C1400 1.367 . S
C1401 C1403 1.433 . S
C1402 C1398 1.350 . S
C1402 C1399 1.463 . S
C1402 N1406 1.427 . S
C1403 H1393 0.929 . S
C1403 C1401 1.433 . S
C1403 N1406 1.384 . S
C1404 H1395 0.929 . S
C1404 C1396 1.378 . S
C1404 C1399 1.350 . S
C1405 H1392 0.929 . S
C1405 C1397 1.433 . S
C1405 N1407 1.384 . S
N1406 C1402 1.427 . S
N1406 C1403 1.384 . S
N1407 C1399 1.427 . S
N1407 C1405 1.384 . S
H1408 C1414 0.930 . S
H1409 C1418 0.930 . S
H1410 C1423 0.929 . S
H1411 C1421 0.929 . S
H1412 C1416 0.929 . S
H1413 C1422 0.929 . S
C1414 H1408 0.930 . S
C1414 C1415 1.367 . S
C1414 C1422 1.378 . S
C1415 C1414 1.367 . S
C1415 C1423 1.433 . S
C1416 H1412 0.929 . S
C1416 C1418 1.378 . S
C1416 C1420 1.350 . S
C1417 C1420 1.463 . S
C1417 C1422 1.350 . S
C1417 N1425 1.427 . S
C1418 H1409 0.930 . S
C1418 C1416 1.378 . S
C1418 C1419 1.367 . S
C1419 C1418 1.367 . S
C1419 C1421 1.433 . S
C1420 C1416 1.350 . S
C1420 C1417 1.463 . S
C1420 N1424 1.427 . S
C1421 H1411 0.929 . S
C1421 C1419 1.433 . S
C1421 N1424 1.384 . S
C1422 H1413 0.929 . S
C1422 C1414 1.378 . S
C1422 C1417 1.350 . S
C1423 H1410 0.929 . S
C1423 C1415 1.433 . S
C1423 N1425 1.384 . S
N1424 C1420 1.427 . S
N1424 C1421 1.384 . S
N1425 C1417 1.427 . S
N1425 C1423 1.384 . S
H1426 C1432 0.930 . S
H1427 C1436 0.930 . S
H1428 C1441 0.929 . S
H1429 C1439 0.929 . S
H1430 C1434 0.929 . S
H1431 C1440 0.929 . S
C1432 H1426 0.930 . S
C1432 C1433 1.367 . S
C1432 C1440 1.378 . S
C1433 C1432 1.367 . S
C1433 C1441 1.433 . S
C1434 H1430 0.929 . S
C1434 C1436 1.378 . S
C1434 C1438 1.350 . S
C1435 C1438 1.463 . S
C1435 C1440 1.350 . S
C1435 N1443 1.427 . S
C1436 H1427 0.930 . S
C1436 C1434 1.378 . S
C1436 C1437 1.367 . S
C1437 C1436 1.367 . S
C1437 C1439 1.433 . S
C1438 C1434 1.350 . S
C1438 C1435 1.463 . S
C1438 N1442 1.427 . S
C1439 H1429 0.929 . S
C1439 C1437 1.433 . S
C1439 N1442 1.384 . S
C1440 H1431 0.929 . S
C1440 C1432 1.378 . S
C1440 C1435 1.350 . S
C1441 H1428 0.929 . S
C1441 C1433 1.433 . S
C1441 N1443 1.384 . S
N1442 C1438 1.427 . S
N1442 C1439 1.384 . S
N1443 C1435 1.427 . S
N1443 C1441 1.384 . S
H1444 C1450 0.930 . S
H1445 C1454 0.930 . S
H1446 C1459 0.929 . S
H1447 C1457 0.929 . S
H1448 C1452 0.929 . S
H1449 C1458 0.929 . S
C1450 H1444 0.930 . S
C1450 C1451 1.367 . S
C1450 C1458 1.378 . S
C1451 C1450 1.367 . S
C1451 C1459 1.433 . S
C1452 H1448 0.929 . S
C1452 C1454 1.378 . S
C1452 C1456 1.350 . S
C1453 C1456 1.463 . S
C1453 C1458 1.350 . S
C1453 N1461 1.427 . S
C1454 H1445 0.930 . S
C1454 C1452 1.378 . S
C1454 C1455 1.367 . S
C1455 C1454 1.367 . S
C1455 C1457 1.433 . S
C1456 C1452 1.350 . S
C1456 C1453 1.463 . S
C1456 N1460 1.427 . S
C1457 H1447 0.929 . S
C1457 C1455 1.433 . S
C1457 N1460 1.384 . S
C1458 H1449 0.929 . S
C1458 C1450 1.378 . S
C1458 C1453 1.350 . S
C1459 H1446 0.929 . S
C1459 C1451 1.433 . S
C1459 N1461 1.384 . S
N1460 C1456 1.427 . S
N1460 C1457 1.384 . S
N1461 C1453 1.427 . S
N1461 C1459 1.384 . S
H1462 C1468 0.930 . S
H1463 C1472 0.930 . S
H1464 C1477 0.929 . S
H1465 C1475 0.929 . S
H1466 C1470 0.929 . S
H1467 C1476 0.929 . S
C1468 H1462 0.930 . S
C1468 C1469 1.367 . S
C1468 C1476 1.378 . S
C1469 C1468 1.367 . S
C1469 C1477 1.433 . S
C1470 H1466 0.929 . S
C1470 C1472 1.378 . S
C1470 C1474 1.350 . S
C1471 C1474 1.463 . S
C1471 C1476 1.350 . S
C1471 N1479 1.427 . S
C1472 H1463 0.930 . S
C1472 C1470 1.378 . S
C1472 C1473 1.367 . S
C1473 C1472 1.367 . S
C1473 C1475 1.433 . S
C1474 C1470 1.350 . S
C1474 C1471 1.463 . S
C1474 N1478 1.427 . S
C1475 H1465 0.929 . S
C1475 C1473 1.433 . S
C1475 N1478 1.384 . S
C1476 H1467 0.929 . S
C1476 C1468 1.378 . S
C1476 C1471 1.350 . S
C1477 H1464 0.929 . S
C1477 C1469 1.433 . S
C1477 N1479 1.384 . S
N1478 C1474 1.427 . S
N1478 C1475 1.384 . S
N1479 C1471 1.427 . S
N1479 C1477 1.384 . S
H1480 C1486 0.930 . S
H1481 C1490 0.930 . S
H1482 C1495 0.929 . S
H1483 C1493 0.929 . S
H1484 C1488 0.929 . S
H1485 C1494 0.929 . S
C1486 H1480 0.930 . S
C1486 C1487 1.367 . S
C1486 C1494 1.378 . S
C1487 C1486 1.367 . S
C1487 C1495 1.433 . S
C1488 H1484 0.929 . S
C1488 C1490 1.378 . S
C1488 C1492 1.350 . S
C1489 C1492 1.463 . S
C1489 C1494 1.350 . S
C1489 N1497 1.427 . S
C1490 H1481 0.930 . S
C1490 C1488 1.378 . S
C1490 C1491 1.367 . S
C1491 C1490 1.367 . S
C1491 C1493 1.433 . S
C1492 C1488 1.350 . S
C1492 C1489 1.463 . S
C1492 N1496 1.427 . S
C1493 H1483 0.929 . S
C1493 C1491 1.433 . S
C1493 N1496 1.384 . S
C1494 H1485 0.929 . S
C1494 C1486 1.378 . S
C1494 C1489 1.350 . S
C1495 H1482 0.929 . S
C1495 C1487 1.433 . S
C1495 N1497 1.384 . S
N1496 C1492 1.427 . S
N1496 C1493 1.384 . S
N1497 C1489 1.427 . S
N1497 C1495 1.384 . S
H1498 C1504 0.930 . S
H1499 C1508 0.930 . S
H1500 C1513 0.929 . S
H1501 C1511 0.929 . S
H1502 C1506 0.929 . S
H1503 C1512 0.929 . S
C1504 H1498 0.930 . S
C1504 C1505 1.367 . S
C1504 C1512 1.378 . S
C1505 C1504 1.367 . S
C1505 C1513 1.433 . S
C1506 H1502 0.929 . S
C1506 C1508 1.378 . S
C1506 C1510 1.350 . S
C1507 C1510 1.463 . S
C1507 C1512 1.350 . S
C1507 N1515 1.427 . S
C1508 H1499 0.930 . S
C1508 C1506 1.378 . S
C1508 C1509 1.367 . S
C1509 C1508 1.367 . S
C1509 C1511 1.433 . S
C1510 C1506 1.350 . S
C1510 C1507 1.463 . S
C1510 N1514 1.427 . S
C1511 H1501 0.929 . S
C1511 C1509 1.433 . S
C1511 N1514 1.384 . S
C1512 H1503 0.929 . S
C1512 C1504 1.378 . S
C1512 C1507 1.350 . S
C1513 H1500 0.929 . S
C1513 C1505 1.433 . S
C1513 N1515 1.384 . S
N1514 C1510 1.427 . S
N1514 C1511 1.384 . S
N1515 C1507 1.427 . S
N1515 C1513 1.384 . S
H1516 C1522 0.930 . S
H1517 C1526 0.930 . S
H1518 C1531 0.929 1_556 S
H1519 C1529 0.929 . S
H1520 C1524 0.929 . S
H1521 C1530 0.929 . S
C1522 H1516 0.930 . S
C1522 C1523 1.367 . S
C1522 C1530 1.378 . S
C1523 C1522 1.367 . S
C1523 C1531 1.433 . S
C1524 H1520 0.929 . S
C1524 C1526 1.378 1_565 S
C1524 C1528 1.350 . S
C1525 C1528 1.463 . S
C1525 C1530 1.350 . S
C1525 N1533 1.427 . S
C1526 H1517 0.930 . S
C1526 C1524 1.378 1_545 S
C1526 C1527 1.367 . S
C1527 C1526 1.367 . S
C1527 C1529 1.433 . S
C1528 C1524 1.350 . S
C1528 C1525 1.463 . S
C1528 N1532 1.427 . S
C1529 H1519 0.929 . S
C1529 C1527 1.433 . S
C1529 N1532 1.384 1_545 S
C1530 H1521 0.929 . S
C1530 C1522 1.378 . S
C1530 C1525 1.350 . S
C1531 H1518 0.929 1_554 S
C1531 C1523 1.433 . S
C1531 N1533 1.384 . S
N1532 C1528 1.427 . S
N1532 C1529 1.384 1_565 S
N1533 C1525 1.427 . S
N1533 C1531 1.384 . S
H1534 C1540 0.930 . S
H1535 C1544 0.930 . S
H1536 C1549 0.929 . S
H1537 C1547 0.929 . S
H1538 C1542 0.929 . S
H1539 C1548 0.929 . S
C1540 H1534 0.930 . S
C1540 C1541 1.367 . S
C1540 C1548 1.378 . S
C1541 C1540 1.367 . S
C1541 C1549 1.433 . S
C1542 H1538 0.929 . S
C1542 C1544 1.378 . S
C1542 C1546 1.350 . S
C1543 C1546 1.463 . S
C1543 C1548 1.350 . S
C1543 N1551 1.427 . S
C1544 H1535 0.930 . S
C1544 C1542 1.378 . S
C1544 C1545 1.367 . S
C1545 C1544 1.367 . S
C1545 C1547 1.433 . S
C1546 C1542 1.350 . S
C1546 C1543 1.463 . S
C1546 N1550 1.427 . S
C1547 H1537 0.929 . S
C1547 C1545 1.433 . S
C1547 N1550 1.384 . S
C1548 H1539 0.929 . S
C1548 C1540 1.378 . S
C1548 C1543 1.350 . S
C1549 H1536 0.929 . S
C1549 C1541 1.433 . S
C1549 N1551 1.384 . S
N1550 C1546 1.427 . S
N1550 C1547 1.384 . S
N1551 C1543 1.427 . S
N1551 C1549 1.384 . S
H1552 C1558 0.930 . S
H1553 C1562 0.930 . S
H1554 C1567 0.929 . S
H1555 C1565 0.929 . S
H1556 C1560 0.929 . S
H1557 C1566 0.929 . S
C1558 H1552 0.930 . S
C1558 C1559 1.367 . S
C1558 C1566 1.378 . S
C1559 C1558 1.367 . S
C1559 C1567 1.433 . S
C1560 H1556 0.929 . S
C1560 C1562 1.378 . S
C1560 C1564 1.350 . S
C1561 C1564 1.463 . S
C1561 C1566 1.350 . S
C1561 N1569 1.427 . S
C1562 H1553 0.930 . S
C1562 C1560 1.378 . S
C1562 C1563 1.381 . S
C1563 C1562 1.381 . S
C1563 C1565 1.458 . S
C1564 C1560 1.350 . S
C1564 C1561 1.463 . S
C1564 N1568 1.427 . S
C1565 H1555 0.929 . S
C1565 C1563 1.458 . S
C1565 N1568 1.384 . S
C1566 H1557 0.929 . S
C1566 C1558 1.378 . S
C1566 C1561 1.350 . S
C1567 H1554 0.929 . S
C1567 C1559 1.433 . S
C1567 N1569 1.384 . S
N1568 C1564 1.427 . S
N1568 C1565 1.384 . S
N1569 C1561 1.427 . S
N1569 C1567 1.384 . S
H1570 C1576 0.930 . S
H1571 C1580 0.930 . S
H1572 C1585 0.929 . S
H1573 C1583 0.929 . S
H1574 C1578 0.929 . S
H1575 C1584 0.929 . S
C1576 H1570 0.930 . S
C1576 C1577 1.367 . S
C1576 C1584 1.378 . S
C1577 C1576 1.367 . S
C1577 C1585 1.433 . S
C1578 H1574 0.929 . S
C1578 C1580 1.378 . S
C1578 C1582 1.350 . S
C1579 C1582 1.463 . S
C1579 C1584 1.350 . S
C1579 N1587 1.427 . S
C1580 H1571 0.930 . S
C1580 C1578 1.378 . S
C1580 C1581 1.367 . S
C1581 C1580 1.367 . S
C1581 C1583 1.433 . S
C1582 C1578 1.350 . S
C1582 C1579 1.463 . S
C1582 N1586 1.427 . S
C1583 H1573 0.929 . S
C1583 C1581 1.433 . S
C1583 N1586 1.384 . S
C1584 H1575 0.929 . S
C1584 C1576 1.378 . S
C1584 C1579 1.350 . S
C1585 H1572 0.929 . S
C1585 C1577 1.433 . S
C1585 N1587 1.384 . S
N1586 C1582 1.427 . S
N1586 C1583 1.384 . S
N1587 C1579 1.427 . S
N1587 C1585 1.384 . S
H1588 C1594 0.930 . S
H1589 C1598 0.930 . S
H1590 C1603 0.929 . S
H1591 C1601 0.929 . S
H1592 C1596 0.929 . S
H1593 C1602 0.929 . S
C1594 H1588 0.930 . S
C1594 C1595 1.367 . S
C1594 C1602 1.378 . S
C1595 C1594 1.367 . S
C1595 C1603 1.433 . S
C1596 H1592 0.929 . S
C1596 C1598 1.378 . S
C1596 C1600 1.350 . S
C1597 C1600 1.463 . S
C1597 C1602 1.350 . S
C1597 N1605 1.427 . S
C1598 H1589 0.930 . S
C1598 C1596 1.378 . S
C1598 C1599 1.367 . S
C1599 C1598 1.367 . S
C1599 C1601 1.433 . S
C1600 C1596 1.350 . S
C1600 C1597 1.463 . S
C1600 N1604 1.427 . S
C1601 H1591 0.929 . S
C1601 C1599 1.433 . S
C1601 N1604 1.384 . S
C1602 H1593 0.929 . S
C1602 C1594 1.378 . S
C1602 C1597 1.350 . S
C1603 H1590 0.929 . S
C1603 C1595 1.433 . S
C1603 N1605 1.384 . S
N1604 C1600 1.427 . S
N1604 C1601 1.384 . S
N1605 C1597 1.427 . S
N1605 C1603 1.384 . S
H1606 C1612 0.930 . S
H1607 C1616 0.930 . S
H1608 C1621 0.929 . S
H1609 C1619 0.929 . S
H1610 C1614 0.929 . S
H1611 C1620 0.929 . S
C1612 H1606 0.930 . S
C1612 C1613 1.367 . S
C1612 C1620 1.378 . S
C1613 C1612 1.367 . S
C1613 C1621 1.433 . S
C1614 H1610 0.929 . S
C1614 C1616 1.378 . S
C1614 C1618 1.350 . S
C1615 C1618 1.463 . S
C1615 C1620 1.350 . S
C1615 N1623 1.427 . S
C1616 H1607 0.930 . S
C1616 C1614 1.378 . S
C1616 C1617 1.367 . S
C1617 C1616 1.367 . S
C1617 C1619 1.433 . S
C1618 C1614 1.350 . S
C1618 C1615 1.463 . S
C1618 N1622 1.427 . S
C1619 H1609 0.929 . S
C1619 C1617 1.433 . S
C1619 N1622 1.384 . S
C1620 H1611 0.929 . S
C1620 C1612 1.378 . S
C1620 C1615 1.350 . S
C1621 H1608 0.929 . S
C1621 C1613 1.433 . S
C1621 N1623 1.384 . S
N1622 C1618 1.427 . S
N1622 C1619 1.384 . S
N1623 C1615 1.427 . S
N1623 C1621 1.384 . S
H1624 C1630 0.930 . S
H1625 C1634 0.930 . S
H1626 C1639 0.929 . S
H1627 C1637 0.929 . S
H1628 C1632 0.929 . S
H1629 C1638 0.929 . S
C1630 H1624 0.930 . S
C1630 C1631 1.367 . S
C1630 C1638 1.378 . S
C1631 C1630 1.367 . S
C1631 C1639 1.433 . S
C1632 H1628 0.929 . S
C1632 C1634 1.378 . S
C1632 C1636 1.350 . S
C1633 C1636 1.463 . S
C1633 C1638 1.350 . S
C1633 N1641 1.427 . S
C1634 H1625 0.930 . S
C1634 C1632 1.378 . S
C1634 C1635 1.367 . S
C1635 C1634 1.367 . S
C1635 C1637 1.433 . S
C1636 C1632 1.350 . S
C1636 C1633 1.463 . S
C1636 N1640 1.427 . S
C1637 H1627 0.929 . S
C1637 C1635 1.433 . S
C1637 N1640 1.384 . S
C1638 H1629 0.929 . S
C1638 C1630 1.378 . S
C1638 C1633 1.350 . S
C1639 H1626 0.929 . S
C1639 C1631 1.433 . S
C1639 N1641 1.384 . S
N1640 C1636 1.427 . S
N1640 C1637 1.384 . S
N1641 C1633 1.427 . S
N1641 C1639 1.384 . S
H1642 C1648 0.930 . S
H1643 C1652 0.930 . S
H1644 C1657 0.929 . S
H1645 C1655 0.929 . S
H1646 C1650 0.929 . S
H1647 C1656 0.929 . S
C1648 H1642 0.930 . S
C1648 C1649 1.367 . S
C1648 C1656 1.378 . S
C1649 C1648 1.367 . S
C1649 C1657 1.433 . S
C1650 H1646 0.929 . S
C1650 C1652 1.378 . S
C1650 C1654 1.350 . S
C1651 C1654 1.463 . S
C1651 C1656 1.350 . S
C1651 N1659 1.427 . S
C1652 H1643 0.930 . S
C1652 C1650 1.378 . S
C1652 C1653 1.367 . S
C1653 C1652 1.367 . S
C1653 C1655 1.433 . S
C1654 C1650 1.350 . S
C1654 C1651 1.463 . S
C1654 N1658 1.427 . S
C1655 H1645 0.929 . S
C1655 C1653 1.433 . S
C1655 N1658 1.384 . S
C1656 H1647 0.929 . S
C1656 C1648 1.378 . S
C1656 C1651 1.350 . S
C1657 H1644 0.929 . S
C1657 C1649 1.433 . S
C1657 N1659 1.384 . S
N1658 C1654 1.427 . S
N1658 C1655 1.384 . S
N1659 C1651 1.427 . S
N1659 C1657 1.384 . S
H1660 C1666 0.930 . S
H1661 C1670 0.930 . S
H1662 C1675 0.929 . S
H1663 C1673 0.929 . S
H1664 C1668 0.929 . S
H1665 C1674 0.929 . S
C1666 H1660 0.930 . S
C1666 C1667 1.367 . S
C1666 C1674 1.378 . S
C1667 C1666 1.367 . S
C1667 C1675 1.433 . S
C1668 H1664 0.929 . S
C1668 C1670 1.378 . S
C1668 C1672 1.350 . S
C1669 C1672 1.463 . S
C1669 C1674 1.350 . S
C1669 N1677 1.427 . S
C1670 H1661 0.930 . S
C1670 C1668 1.378 . S
C1670 C1671 1.367 . S
C1671 C1670 1.367 . S
C1671 C1673 1.433 . S
C1672 C1668 1.350 . S
C1672 C1669 1.463 . S
C1672 N1676 1.427 . S
C1673 H1663 0.929 . S
C1673 C1671 1.433 . S
C1673 N1676 1.384 . S
C1674 H1665 0.929 . S
C1674 C1666 1.378 . S
C1674 C1669 1.350 . S
C1675 H1662 0.929 . S
C1675 C1667 1.433 . S
C1675 N1677 1.384 . S
N1676 C1672 1.427 . S
N1676 C1673 1.384 . S
N1677 C1669 1.427 . S
N1677 C1675 1.384 . S
H1678 C1684 0.930 . S
H1679 C1688 0.930 . S
H1680 C1693 0.929 . S
H1681 C1691 0.929 . S
H1682 C1686 0.929 . S
H1683 C1692 0.929 . S
C1684 H1678 0.930 . S
C1684 C1685 1.367 . S
C1684 C1692 1.378 . S
C1685 C1684 1.367 . S
C1685 C1693 1.433 . S
C1686 H1682 0.929 . S
C1686 C1688 1.378 . S
C1686 C1690 1.350 . S
C1687 C1690 1.463 . S
C1687 C1692 1.350 . S
C1687 N1695 1.427 . S
C1688 H1679 0.930 . S
C1688 C1686 1.378 . S
C1688 C1689 1.367 . S
C1689 C1688 1.367 . S
C1689 C1691 1.433 . S
C1690 C1686 1.350 . S
C1690 C1687 1.463 . S
C1690 N1694 1.427 . S
C1691 H1681 0.929 . S
C1691 C1689 1.433 . S
C1691 N1694 1.384 . S
C1692 H1683 0.929 . S
C1692 C1684 1.378 . S
C1692 C1687 1.350 . S
C1693 H1680 0.929 . S
C1693 C1685 1.433 . S
C1693 N1695 1.384 . S
N1694 C1690 1.427 . S
N1694 C1691 1.384 . S
N1695 C1687 1.427 . S
N1695 C1693 1.384 . S
H1696 C1702 0.930 . S
H1697 C1706 0.930 . S
H1698 C1711 0.929 . S
H1699 C1709 0.929 . S
H1700 C1704 0.929 . S
H1701 C1710 0.929 . S
C1702 H1696 0.930 . S
C1702 C1703 1.367 . S
C1702 C1710 1.378 . S
C1703 C1702 1.367 . S
C1703 C1711 1.433 . S
C1704 H1700 0.929 . S
C1704 C1706 1.378 . S
C1704 C1708 1.350 . S
C1705 C1708 1.463 . S
C1705 C1710 1.350 . S
C1705 N1713 1.427 . S
C1706 H1697 0.930 . S
C1706 C1704 1.378 . S
C1706 C1707 1.367 . S
C1707 C1706 1.367 . S
C1707 C1709 1.433 . S
C1708 C1704 1.350 . S
C1708 C1705 1.463 . S
C1708 N1712 1.427 . S
C1709 H1699 0.929 . S
C1709 C1707 1.433 . S
C1709 N1712 1.384 . S
C1710 H1701 0.929 . S
C1710 C1702 1.378 . S
C1710 C1705 1.350 . S
C1711 H1698 0.929 . S
C1711 C1703 1.433 . S
C1711 N1713 1.384 . S
N1712 C1708 1.427 . S
N1712 C1709 1.384 . S
N1713 C1705 1.427 . S
N1713 C1711 1.384 . S
H1714 C1720 0.930 . S
H1715 C1724 0.930 . S
H1716 C1729 0.929 . S
H1717 C1727 0.929 . S
H1718 C1722 0.929 . S
H1719 C1728 0.929 . S
C1720 H1714 0.930 . S
C1720 C1721 1.367 . S
C1720 C1728 1.378 . S
C1721 C1720 1.367 . S
C1721 C1729 1.433 . S
C1722 H1718 0.929 . S
C1722 C1724 1.378 . S
C1722 C1726 1.350 . S
C1723 C1726 1.463 . S
C1723 C1728 1.350 . S
C1723 N1731 1.427 . S
C1724 H1715 0.930 . S
C1724 C1722 1.378 . S
C1724 C1725 1.367 . S
C1725 C1724 1.367 . S
C1725 C1727 1.433 . S
C1726 C1722 1.350 . S
C1726 C1723 1.463 . S
C1726 N1730 1.427 . S
C1727 H1717 0.929 . S
C1727 C1725 1.433 . S
C1727 N1730 1.384 . S
C1728 H1719 0.929 . S
C1728 C1720 1.378 . S
C1728 C1723 1.350 . S
C1729 H1716 0.929 . S
C1729 C1721 1.433 . S
C1729 N1731 1.384 . S
N1730 C1726 1.427 . S
N1730 C1727 1.384 . S
N1731 C1723 1.427 . S
N1731 C1729 1.384 . S
H1732 C1738 0.930 . S
H1733 C1742 0.930 . S
H1734 C1747 0.929 . S
H1735 C1745 0.929 . S
H1736 C1740 0.929 . S
H1737 C1746 0.929 . S
C1738 H1732 0.930 . S
C1738 C1739 1.367 . S
C1738 C1746 1.378 . S
C1739 C1738 1.367 . S
C1739 C1747 1.433 . S
C1740 H1736 0.929 . S
C1740 C1742 1.378 . S
C1740 C1744 1.350 . S
C1741 C1744 1.463 . S
C1741 C1746 1.350 . S
C1741 N1749 1.427 . S
C1742 H1733 0.930 . S
C1742 C1740 1.378 . S
C1742 C1743 1.367 . S
C1743 C1742 1.367 . S
C1743 C1745 1.433 . S
C1744 C1740 1.350 . S
C1744 C1741 1.463 . S
C1744 N1748 1.427 . S
C1745 H1735 0.929 . S
C1745 C1743 1.433 . S
C1745 N1748 1.384 . S
C1746 H1737 0.929 . S
C1746 C1738 1.378 . S
C1746 C1741 1.350 . S
C1747 H1734 0.929 . S
C1747 C1739 1.433 . S
C1747 N1749 1.384 . S
N1748 C1744 1.427 . S
N1748 C1745 1.384 . S
N1749 C1741 1.427 . S
N1749 C1747 1.384 . S
H1750 C1756 0.930 . S
H1751 C1760 0.930 . S
H1752 C1765 0.929 . S
H1753 C1763 0.929 . S
H1754 C1758 0.929 . S
H1755 C1764 0.929 . S
C1756 H1750 0.930 . S
C1756 C1757 1.367 . S
C1756 C1764 1.378 . S
C1757 C1756 1.367 . S
C1757 C1765 1.433 . S
C1758 H1754 0.929 . S
C1758 C1760 1.378 . S
C1758 C1762 1.350 . S
C1759 C1762 1.463 . S
C1759 C1764 1.350 . S
C1759 N1767 1.427 . S
C1760 H1751 0.930 . S
C1760 C1758 1.378 . S
C1760 C1761 1.367 . S
C1761 C1760 1.367 . S
C1761 C1763 1.433 . S
C1762 C1758 1.350 . S
C1762 C1759 1.463 . S
C1762 N1766 1.427 . S
C1763 H1753 0.929 . S
C1763 C1761 1.433 . S
C1763 N1766 1.384 . S
C1764 H1755 0.929 . S
C1764 C1756 1.378 . S
C1764 C1759 1.350 . S
C1765 H1752 0.929 . S
C1765 C1757 1.433 . S
C1765 N1767 1.384 . S
N1766 C1762 1.427 . S
N1766 C1763 1.384 . S
N1767 C1759 1.427 . S
N1767 C1765 1.384 . S
H1768 C1774 0.930 . S
H1769 C1778 0.930 . S
H1770 C1783 0.929 . S
H1771 C1781 0.929 . S
H1772 C1776 0.929 . S
H1773 C1782 0.929 . S
C1774 H1768 0.930 . S
C1774 C1775 1.367 . S
C1774 C1782 1.378 . S
C1775 C1774 1.367 . S
C1775 C1783 1.433 . S
C1776 H1772 0.929 . S
C1776 C1778 1.378 . S
C1776 C1780 1.350 . S
C1777 C1780 1.463 . S
C1777 C1782 1.350 . S
C1777 N1785 1.427 . S
C1778 H1769 0.930 . S
C1778 C1776 1.378 . S
C1778 C1779 1.367 . S
C1779 C1778 1.367 . S
C1779 C1781 1.433 . S
C1780 C1776 1.350 . S
C1780 C1777 1.463 . S
C1780 N1784 1.427 . S
C1781 H1771 0.929 . S
C1781 C1779 1.433 . S
C1781 N1784 1.384 . S
C1782 H1773 0.929 . S
C1782 C1774 1.378 . S
C1782 C1777 1.350 . S
C1783 H1770 0.929 . S
C1783 C1775 1.433 . S
C1783 N1785 1.384 . S
N1784 C1780 1.427 . S
N1784 C1781 1.384 . S
N1785 C1777 1.427 . S
N1785 C1783 1.384 . S
H1786 C1792 0.930 . S
H1787 C1796 0.930 . S
H1788 C1801 0.929 . S
H1789 C1799 0.929 . S
H1790 C1794 0.929 . S
H1791 C1800 0.929 . S
C1792 H1786 0.930 . S
C1792 C1793 1.367 1_565 S
C1792 C1800 1.378 . S
C1793 C1792 1.367 1_545 S
C1793 C1801 1.433 . S
C1794 H1790 0.929 . S
C1794 C1796 1.378 . S
C1794 C1798 1.350 . S
C1795 C1798 1.463 . S
C1795 C1800 1.350 1_545 S
C1795 N1803 1.427 . S
C1796 H1787 0.930 . S
C1796 C1794 1.378 . S
C1796 C1797 1.367 . S
C1797 C1796 1.367 . S
C1797 C1799 1.433 1_545 S
C1798 C1794 1.350 . S
C1798 C1795 1.463 . S
C1798 N1802 1.427 1_545 S
C1799 H1789 0.929 . S
C1799 C1797 1.433 1_565 S
C1799 N1802 1.384 . S
C1800 H1791 0.929 . S
C1800 C1792 1.378 . S
C1800 C1795 1.350 1_565 S
C1801 H1788 0.929 . S
C1801 C1793 1.433 . S
C1801 N1803 1.384 . S
N1802 C1798 1.427 1_565 S
N1802 C1799 1.384 . S
N1803 C1795 1.427 . S
N1803 C1801 1.384 . S
H1804 C1810 0.930 . S
H1805 C1814 0.930 . S
H1806 C1819 0.929 . S
H1807 C1817 0.929 . S
H1808 C1812 0.929 . S
H1809 C1818 0.929 . S
C1810 H1804 0.930 . S
C1810 C1811 1.367 . S
C1810 C1818 1.378 . S
C1811 C1810 1.367 . S
C1811 C1819 1.433 . S
C1812 H1808 0.929 . S
C1812 C1814 1.378 . S
C1812 C1816 1.350 . S
C1813 C1816 1.463 . S
C1813 C1818 1.350 . S
C1813 N1821 1.427 . S
C1814 H1805 0.930 . S
C1814 C1812 1.378 . S
C1814 C1815 1.367 . S
C1815 C1814 1.367 . S
C1815 C1817 1.433 . S
C1816 C1812 1.350 . S
C1816 C1813 1.463 . S
C1816 N1820 1.427 . S
C1817 H1807 0.929 . S
C1817 C1815 1.433 . S
C1817 N1820 1.384 . S
C1818 H1809 0.929 . S
C1818 C1810 1.378 . S
C1818 C1813 1.350 . S
C1819 H1806 0.929 . S
C1819 C1811 1.433 . S
C1819 N1821 1.384 . S
N1820 C1816 1.427 . S
N1820 C1817 1.384 . S
N1821 C1813 1.427 . S
N1821 C1819 1.384 . S
H1822 C1828 0.930 . S
H1823 C1832 0.930 . S
H1824 C1837 0.929 . S
H1825 C1835 0.929 . S
H1826 C1830 0.929 . S
H1827 C1836 0.929 . S
C1828 H1822 0.930 . S
C1828 C1829 1.367 . S
C1828 C1836 1.378 . S
C1829 C1828 1.367 . S
C1829 C1837 1.433 . S
C1830 H1826 0.929 . S
C1830 C1832 1.378 . S
C1830 C1834 1.350 . S
C1831 C1834 1.463 . S
C1831 C1836 1.350 . S
C1831 N1839 1.427 . S
C1832 H1823 0.930 . S
C1832 C1830 1.378 . S
C1832 C1833 1.367 . S
C1833 C1832 1.367 . S
C1833 C1835 1.433 . S
C1834 C1830 1.350 . S
C1834 C1831 1.463 . S
C1834 N1838 1.427 . S
C1835 H1825 0.929 . S
C1835 C1833 1.433 . S
C1835 N1838 1.384 . S
C1836 H1827 0.929 . S
C1836 C1828 1.378 . S
C1836 C1831 1.350 . S
C1837 H1824 0.929 . S
C1837 C1829 1.433 . S
C1837 N1839 1.384 . S
N1838 C1834 1.427 . S
N1838 C1835 1.384 . S
N1839 C1831 1.427 . S
N1839 C1837 1.384 . S
H1840 C1846 0.930 . S
H1841 C1850 0.930 . S
H1842 C1855 0.929 . S
H1843 C1853 0.929 . S
H1844 C1848 0.929 . S
H1845 C1854 0.929 . S
C1846 H1840 0.930 . S
C1846 C1847 1.367 . S
C1846 C1854 1.378 . S
C1847 C1846 1.367 . S
C1847 C1855 1.433 . S
C1848 H1844 0.929 . S
C1848 C1850 1.378 . S
C1848 C1852 1.350 . S
C1849 C1852 1.463 . S
C1849 C1854 1.350 . S
C1849 N1857 1.427 . S
C1850 H1841 0.930 . S
C1850 C1848 1.378 . S
C1850 C1851 1.367 . S
C1851 C1850 1.367 . S
C1851 C1853 1.433 . S
C1852 C1848 1.350 . S
C1852 C1849 1.463 . S
C1852 N1856 1.427 . S
C1853 H1843 0.929 . S
C1853 C1851 1.433 . S
C1853 N1856 1.384 . S
C1854 H1845 0.929 . S
C1854 C1846 1.378 . S
C1854 C1849 1.350 . S
C1855 H1842 0.929 . S
C1855 C1847 1.433 . S
C1855 N1857 1.384 . S
N1856 C1852 1.427 . S
N1856 C1853 1.384 . S
N1857 C1849 1.427 . S
N1857 C1855 1.384 . S
H1858 C1864 0.930 . S
H1859 C1868 0.930 . S
H1860 C1873 0.929 . S
H1861 C1871 0.929 . S
H1862 C1866 0.929 . S
H1863 C1872 0.929 . S
C1864 H1858 0.930 . S
C1864 C1865 1.367 . S
C1864 C1872 1.378 . S
C1865 C1864 1.367 . S
C1865 C1873 1.433 . S
C1866 H1862 0.929 . S
C1866 C1868 1.378 . S
C1866 C1870 1.350 . S
C1867 C1870 1.463 . S
C1867 C1872 1.350 . S
C1867 N1875 1.427 . S
C1868 H1859 0.930 . S
C1868 C1866 1.378 . S
C1868 C1869 1.367 . S
C1869 C1868 1.367 . S
C1869 C1871 1.433 . S
C1870 C1866 1.350 . S
C1870 C1867 1.463 . S
C1870 N1874 1.427 . S
C1871 H1861 0.929 . S
C1871 C1869 1.433 . S
C1871 N1874 1.384 . S
C1872 H1863 0.929 . S
C1872 C1864 1.378 . S
C1872 C1867 1.350 . S
C1873 H1860 0.929 . S
C1873 C1865 1.433 . S
C1873 N1875 1.384 . S
N1874 C1870 1.427 . S
N1874 C1871 1.384 . S
N1875 C1867 1.427 . S
N1875 C1873 1.384 . S
H1876 C1882 0.930 . S
H1877 C1886 0.930 . S
H1878 C1891 0.929 . S
H1879 C1889 0.929 . S
H1880 C1884 0.929 . S
H1881 C1890 0.929 1_554 S
C1882 H1876 0.930 . S
C1882 C1883 1.367 . S
C1882 C1890 1.378 . S
C1883 C1882 1.367 . S
C1883 C1891 1.433 . S
C1884 H1880 0.929 . S
C1884 C1886 1.378 1_556 S
C1884 C1888 1.350 1_556 S
C1885 C1888 1.463 1_556 S
C1885 C1890 1.350 . S
C1885 N1893 1.427 . S
C1886 H1877 0.930 . S
C1886 C1884 1.378 1_554 S
C1886 C1887 1.367 . S
C1887 C1886 1.367 . S
C1887 C1889 1.433 . S
C1888 C1884 1.350 1_554 S
C1888 C1885 1.463 1_554 S
C1888 N1892 1.427 . S
C1889 H1879 0.929 . S
C1889 C1887 1.433 . S
C1889 N1892 1.384 . S
C1890 H1881 0.929 1_556 S
C1890 C1882 1.378 . S
C1890 C1885 1.350 . S
C1891 H1878 0.929 . S
C1891 C1883 1.433 . S
C1891 N1893 1.384 . S
N1892 C1888 1.427 . S
N1892 C1889 1.384 . S
N1893 C1885 1.427 . S
N1893 C1891 1.384 . S
H1894 C1900 0.930 . S
H1895 C1904 0.930 . S
H1896 C1909 0.929 . S
H1897 C1907 0.929 . S
H1898 C1902 0.929 . S
H1899 C1908 0.929 . S
C1900 H1894 0.930 . S
C1900 C1901 1.367 . S
C1900 C1908 1.378 . S
C1901 C1900 1.367 . S
C1901 C1909 1.433 . S
C1902 H1898 0.929 . S
C1902 C1904 1.378 . S
C1902 C1906 1.350 . S
C1903 C1906 1.463 . S
C1903 C1908 1.350 . S
C1903 N1911 1.427 . S
C1904 H1895 0.930 . S
C1904 C1902 1.378 . S
C1904 C1905 1.367 . S
C1905 C1904 1.367 . S
C1905 C1907 1.433 . S
C1906 C1902 1.350 . S
C1906 C1903 1.463 . S
C1906 N1910 1.427 . S
C1907 H1897 0.929 . S
C1907 C1905 1.433 . S
C1907 N1910 1.384 . S
C1908 H1899 0.929 . S
C1908 C1900 1.378 . S
C1908 C1903 1.350 . S
C1909 H1896 0.929 . S
C1909 C1901 1.433 . S
C1909 N1911 1.384 . S
N1910 C1906 1.427 . S
N1910 C1907 1.384 . S
N1911 C1903 1.427 . S
N1911 C1909 1.384 . S
H1912 C1918 0.930 . S
H1913 C1922 0.930 . S
H1914 C1927 0.929 . S
H1915 C1925 0.929 . S
H1916 C1920 0.929 . S
H1917 C1926 0.929 . S
C1918 H1912 0.930 . S
C1918 C1919 1.367 . S
C1918 C1926 1.378 . S
C1919 C1918 1.367 . S
C1919 C1927 1.433 . S
C1920 H1916 0.929 . S
C1920 C1922 1.378 . S
C1920 C1924 1.350 . S
C1921 C1924 1.463 . S
C1921 C1926 1.350 . S
C1921 N1929 1.427 . S
C1922 H1913 0.930 . S
C1922 C1920 1.378 . S
C1922 C1923 1.367 . S
C1923 C1922 1.367 . S
C1923 C1925 1.433 . S
C1924 C1920 1.350 . S
C1924 C1921 1.463 . S
C1924 N1928 1.427 . S
C1925 H1915 0.929 . S
C1925 C1923 1.433 . S
C1925 N1928 1.384 . S
C1926 H1917 0.929 . S
C1926 C1918 1.378 . S
C1926 C1921 1.350 . S
C1927 H1914 0.929 . S
C1927 C1919 1.433 . S
C1927 N1929 1.384 . S
N1928 C1924 1.427 . S
N1928 C1925 1.384 . S
N1929 C1921 1.427 . S
N1929 C1927 1.384 . S
H1930 C1936 0.930 . S
H1931 C1940 0.930 . S
H1932 C1945 0.929 . S
H1933 C1943 0.929 . S
H1934 C1938 0.929 . S
H1935 C1944 0.929 . S
C1936 H1930 0.930 . S
C1936 C1937 1.367 . S
C1936 C1944 1.378 1_455 S
C1937 C1936 1.367 . S
C1937 C1945 1.433 . S
C1938 H1934 0.929 . S
C1938 C1940 1.378 . S
C1938 C1942 1.350 . S
C1939 C1942 1.463 . S
C1939 C1944 1.350 . S
C1939 N1947 1.427 . S
C1940 H1931 0.930 . S
C1940 C1938 1.378 . S
C1940 C1941 1.367 . S
C1941 C1940 1.367 . S
C1941 C1943 1.433 . S
C1942 C1938 1.350 . S
C1942 C1939 1.463 . S
C1942 N1946 1.427 . S
C1943 H1933 0.929 . S
C1943 C1941 1.433 . S
C1943 N1946 1.384 . S
C1944 H1935 0.929 . S
C1944 C1936 1.378 1_655 S
C1944 C1939 1.350 . S
C1945 H1932 0.929 . S
C1945 C1937 1.433 . S
C1945 N1947 1.384 1_455 S
N1946 C1942 1.427 . S
N1946 C1943 1.384 . S
N1947 C1939 1.427 . S
N1947 C1945 1.384 1_655 S
H1948 C1954 0.930 . S
H1949 C1958 0.930 1_655 S
H1950 C1963 0.929 . S
H1951 C1961 0.929 . S
H1952 C1956 0.929 . S
H1953 C1962 0.929 . S
C1954 H1948 0.930 . S
C1954 C1955 1.367 1_455 S
C1954 C1962 1.378 . S
C1955 C1954 1.367 1_655 S
C1955 C1963 1.433 . S
C1956 H1952 0.929 . S
C1956 C1958 1.378 1_655 S
C1956 C1960 1.350 1_655 S
C1957 C1960 1.463 . S
C1957 C1962 1.350 . S
C1957 N1965 1.427 1_455 S
C1958 H1949 0.930 1_455 S
C1958 C1956 1.378 1_455 S
C1958 C1959 1.367 . S
C1959 C1958 1.367 . S
C1959 C1961 1.433 . S
C1960 C1956 1.350 1_455 S
C1960 C1957 1.463 . S
C1960 N1964 1.427 . S
C1961 H1951 0.929 . S
C1961 C1959 1.433 . S
C1961 N1964 1.384 . S
C1962 H1953 0.929 . S
C1962 C1954 1.378 . S
C1962 C1957 1.350 . S
C1963 H1950 0.929 . S
C1963 C1955 1.433 . S
C1963 N1965 1.384 . S
N1964 C1960 1.427 . S
N1964 C1961 1.384 . S
N1965 C1957 1.427 1_655 S
N1965 C1963 1.384 . S
H1966 C1972 0.930 . S
H1967 C1976 0.930 . S
H1968 C1981 0.929 . S
H1969 C1979 0.929 . S
H1970 C1974 0.929 . S
H1971 C1980 0.929 . S
C1972 H1966 0.930 . S
C1972 C1973 1.367 . S
C1972 C1980 1.378 . S
C1973 C1972 1.367 . S
C1973 C1981 1.433 . S
C1974 H1970 0.929 . S
C1974 C1976 1.378 . S
C1974 C1978 1.350 . S
C1975 C1978 1.463 . S
C1975 C1980 1.350 . S
C1975 N1983 1.427 . S
C1976 H1967 0.930 . S
C1976 C1974 1.378 . S
C1976 C1977 1.367 . S
C1977 C1976 1.367 . S
C1977 C1979 1.433 . S
C1978 C1974 1.350 . S
C1978 C1975 1.463 . S
C1978 N1982 1.427 . S
C1979 H1969 0.929 . S
C1979 C1977 1.433 . S
C1979 N1982 1.384 . S
C1980 H1971 0.929 . S
C1980 C1972 1.378 . S
C1980 C1975 1.350 . S
C1981 H1968 0.929 . S
C1981 C1973 1.433 . S
C1981 N1983 1.384 . S
N1982 C1978 1.427 . S
N1982 C1979 1.384 . S
N1983 C1975 1.427 . S
N1983 C1981 1.384 . S
H1984 C1990 0.930 . S
H1985 C1994 0.930 . S
H1986 C1999 0.929 . S
H1987 C1997 0.929 . S
H1988 C1992 0.929 . S
H1989 C1998 0.929 . S
C1990 H1984 0.930 . S
C1990 C1991 1.367 . S
C1990 C1998 1.378 . S
C1991 C1990 1.367 . S
C1991 C1999 1.433 . S
C1992 H1988 0.929 . S
C1992 C1994 1.378 . S
C1992 C1996 1.350 . S
C1993 C1996 1.463 . S
C1993 C1998 1.350 . S
C1993 N2001 1.427 . S
C1994 H1985 0.930 . S
C1994 C1992 1.378 . S
C1994 C1995 1.367 . S
C1995 C1994 1.367 . S
C1995 C1997 1.433 . S
C1996 C1992 1.350 . S
C1996 C1993 1.463 . S
C1996 N2000 1.427 . S
C1997 H1987 0.929 . S
C1997 C1995 1.433 . S
C1997 N2000 1.384 . S
C1998 H1989 0.929 . S
C1998 C1990 1.378 . S
C1998 C1993 1.350 . S
C1999 H1986 0.929 . S
C1999 C1991 1.433 . S
C1999 N2001 1.384 . S
N2000 C1996 1.427 . S
N2000 C1997 1.384 . S
N2001 C1993 1.427 . S
N2001 C1999 1.384 . S
H2002 C2008 0.930 . S
H2003 C2012 0.930 . S
H2004 C2017 0.929 . S
H2005 C2015 0.929 . S
H2006 C2010 0.929 . S
H2007 C2016 0.929 . S
C2008 H2002 0.930 . S
C2008 C2009 1.367 . S
C2008 C2016 1.378 . S
C2009 C2008 1.367 . S
C2009 C2017 1.433 . S
C2010 H2006 0.929 . S
C2010 C2012 1.378 . S
C2010 C2014 1.350 . S
C2011 C2014 1.463 . S
C2011 C2016 1.350 . S
C2011 N2019 1.427 . S
C2012 H2003 0.930 . S
C2012 C2010 1.378 . S
C2012 C2013 1.367 . S
C2013 C2012 1.367 . S
C2013 C2015 1.433 . S
C2014 C2010 1.350 . S
C2014 C2011 1.463 . S
C2014 N2018 1.427 . S
C2015 H2005 0.929 . S
C2015 C2013 1.433 . S
C2015 N2018 1.384 . S
C2016 H2007 0.929 . S
C2016 C2008 1.378 . S
C2016 C2011 1.350 . S
C2017 H2004 0.929 . S
C2017 C2009 1.433 . S
C2017 N2019 1.384 . S
N2018 C2014 1.427 . S
N2018 C2015 1.384 . S
N2019 C2011 1.427 . S
N2019 C2017 1.384 . S
H2020 C2026 0.930 . S
H2021 C2030 0.930 . S
H2022 C2035 0.929 . S
H2023 C2033 0.929 . S
H2024 C2028 0.929 . S
H2025 C2034 0.929 . S
C2026 H2020 0.930 . S
C2026 C2027 1.367 . S
C2026 C2034 1.378 . S
C2027 C2026 1.367 . S
C2027 C2035 1.433 . S
C2028 H2024 0.929 . S
C2028 C2030 1.378 . S
C2028 C2032 1.350 . S
C2029 C2032 1.463 . S
C2029 C2034 1.350 . S
C2029 N2037 1.427 . S
C2030 H2021 0.930 . S
C2030 C2028 1.378 . S
C2030 C2031 1.367 . S
C2031 C2030 1.367 . S
C2031 C2033 1.433 . S
C2032 C2028 1.350 . S
C2032 C2029 1.463 . S
C2032 N2036 1.427 . S
C2033 H2023 0.929 . S
C2033 C2031 1.433 . S
C2033 N2036 1.384 . S
C2034 H2025 0.929 . S
C2034 C2026 1.378 . S
C2034 C2029 1.350 . S
C2035 H2022 0.929 . S
C2035 C2027 1.433 . S
C2035 N2037 1.384 . S
N2036 C2032 1.427 . S
N2036 C2033 1.384 . S
N2037 C2029 1.427 . S
N2037 C2035 1.384 . S
H2038 C2044 0.930 . S
H2039 C2048 0.930 . S
H2040 C2053 0.929 . S
H2041 C2051 0.929 . S
H2042 C2046 0.929 . S
H2043 C2052 0.929 . S
C2044 H2038 0.930 . S
C2044 C2045 1.367 . S
C2044 C2052 1.378 . S
C2045 C2044 1.367 . S
C2045 C2053 1.433 . S
C2046 H2042 0.929 . S
C2046 C2048 1.378 . S
C2046 C2050 1.350 . S
C2047 C2050 1.463 . S
C2047 C2052 1.350 . S
C2047 N2055 1.427 . S
C2048 H2039 0.930 . S
C2048 C2046 1.378 . S
C2048 C2049 1.367 . S
C2049 C2048 1.367 . S
C2049 C2051 1.433 . S
C2050 C2046 1.350 . S
C2050 C2047 1.463 . S
C2050 N2054 1.427 . S
C2051 H2041 0.929 . S
C2051 C2049 1.433 . S
C2051 N2054 1.384 . S
C2052 H2043 0.929 . S
C2052 C2044 1.378 . S
C2052 C2047 1.350 . S
C2053 H2040 0.929 . S
C2053 C2045 1.433 . S
C2053 N2055 1.384 . S
N2054 C2050 1.427 . S
N2054 C2051 1.384 . S
N2055 C2047 1.427 . S
N2055 C2053 1.384 . S
H2056 C2062 0.930 . S
H2057 C2066 0.930 . S
H2058 C2071 0.929 . S
H2059 C2069 0.929 . S
H2060 C2064 0.929 . S
H2061 C2070 0.929 . S
C2062 H2056 0.930 . S
C2062 C2063 1.367 . S
C2062 C2070 1.378 . S
C2063 C2062 1.367 . S
C2063 C2071 1.433 . S
C2064 H2060 0.929 . S
C2064 C2066 1.378 . S
C2064 C2068 1.350 . S
C2065 C2068 1.463 . S
C2065 C2070 1.350 . S
C2065 N2073 1.427 . S
C2066 H2057 0.930 . S
C2066 C2064 1.378 . S
C2066 C2067 1.367 . S
C2067 C2066 1.367 . S
C2067 C2069 1.433 . S
C2068 C2064 1.350 . S
C2068 C2065 1.463 . S
C2068 N2072 1.427 . S
C2069 H2059 0.929 . S
C2069 C2067 1.433 . S
C2069 N2072 1.384 . S
C2070 H2061 0.929 . S
C2070 C2062 1.378 . S
C2070 C2065 1.350 . S
C2071 H2058 0.929 . S
C2071 C2063 1.433 . S
C2071 N2073 1.384 . S
N2072 C2068 1.427 . S
N2072 C2069 1.384 . S
N2073 C2065 1.427 . S
N2073 C2071 1.384 . S
H2074 C2080 0.930 . S
H2075 C2084 0.930 . S
H2076 C2089 0.929 . S
H2077 C2087 0.929 . S
H2078 C2082 0.929 . S
H2079 C2088 0.929 . S
C2080 H2074 0.930 . S
C2080 C2081 1.367 . S
C2080 C2088 1.378 . S
C2081 C2080 1.367 . S
C2081 C2089 1.433 . S
C2082 H2078 0.929 . S
C2082 C2084 1.378 . S
C2082 C2086 1.350 . S
C2083 C2086 1.463 . S
C2083 C2088 1.350 . S
C2083 N2091 1.427 . S
C2084 H2075 0.930 . S
C2084 C2082 1.378 . S
C2084 C2085 1.367 . S
C2085 C2084 1.367 . S
C2085 C2087 1.433 . S
C2086 C2082 1.350 . S
C2086 C2083 1.463 . S
C2086 N2090 1.427 . S
C2087 H2077 0.929 . S
C2087 C2085 1.433 . S
C2087 N2090 1.384 . S
C2088 H2079 0.929 . S
C2088 C2080 1.378 . S
C2088 C2083 1.350 . S
C2089 H2076 0.929 . S
C2089 C2081 1.433 . S
C2089 N2091 1.384 . S
N2090 C2086 1.427 . S
N2090 C2087 1.384 . S
N2091 C2083 1.427 . S
N2091 C2089 1.384 . S
H2092 C2098 0.930 . S
H2093 C2102 0.930 . S
H2094 C2107 0.929 . S
H2095 C2105 0.929 . S
H2096 C2100 0.929 . S
H2097 C2106 0.929 . S
C2098 H2092 0.930 . S
C2098 C2099 1.367 . S
C2098 C2106 1.378 . S
C2099 C2098 1.367 . S
C2099 C2107 1.433 . S
C2100 H2096 0.929 . S
C2100 C2102 1.378 . S
C2100 C2104 1.350 . S
C2101 C2104 1.463 . S
C2101 C2106 1.350 . S
C2101 N2109 1.427 . S
C2102 H2093 0.930 . S
C2102 C2100 1.378 . S
C2102 C2103 1.367 . S
C2103 C2102 1.367 . S
C2103 C2105 1.433 . S
C2104 C2100 1.350 . S
C2104 C2101 1.463 . S
C2104 N2108 1.427 . S
C2105 H2095 0.929 . S
C2105 C2103 1.433 . S
C2105 N2108 1.384 . S
C2106 H2097 0.929 . S
C2106 C2098 1.378 . S
C2106 C2101 1.350 . S
C2107 H2094 0.929 . S
C2107 C2099 1.433 . S
C2107 N2109 1.384 . S
N2108 C2104 1.427 . S
N2108 C2105 1.384 . S
N2109 C2101 1.427 . S
N2109 C2107 1.384 . S
H2110 C2116 0.930 . S
H2111 C2120 0.930 . S
H2112 C2125 0.929 . S
H2113 C2123 0.929 . S
H2114 C2118 0.929 . S
H2115 C2124 0.929 . S
C2116 H2110 0.930 . S
C2116 C2117 1.367 . S
C2116 C2124 1.378 . S
C2117 C2116 1.367 . S
C2117 C2125 1.433 . S
C2118 H2114 0.929 . S
C2118 C2120 1.378 . S
C2118 C2122 1.350 . S
C2119 C2122 1.463 . S
C2119 C2124 1.350 . S
C2119 N2127 1.427 . S
C2120 H2111 0.930 . S
C2120 C2118 1.378 . S
C2120 C2121 1.367 . S
C2121 C2120 1.367 . S
C2121 C2123 1.433 . S
C2122 C2118 1.350 . S
C2122 C2119 1.463 . S
C2122 N2126 1.427 . S
C2123 H2113 0.929 . S
C2123 C2121 1.433 . S
C2123 N2126 1.384 . S
C2124 H2115 0.929 . S
C2124 C2116 1.378 . S
C2124 C2119 1.350 . S
C2125 H2112 0.929 . S
C2125 C2117 1.433 . S
C2125 N2127 1.384 . S
N2126 C2122 1.427 . S
N2126 C2123 1.384 . S
N2127 C2119 1.427 . S
N2127 C2125 1.384 . S
H2128 C2134 0.930 . S
H2129 C2138 0.930 . S
H2130 C2143 0.929 . S
H2131 C2141 0.929 . S
H2132 C2136 0.929 . S
H2133 C2142 0.929 . S
C2134 H2128 0.930 . S
C2134 C2135 1.367 . S
C2134 C2142 1.378 . S
C2135 C2134 1.367 . S
C2135 C2143 1.433 . S
C2136 H2132 0.929 . S
C2136 C2138 1.378 . S
C2136 C2140 1.350 . S
C2137 C2140 1.463 . S
C2137 C2142 1.350 . S
C2137 N2145 1.427 . S
C2138 H2129 0.930 . S
C2138 C2136 1.378 . S
C2138 C2139 1.367 . S
C2139 C2138 1.367 . S
C2139 C2141 1.433 . S
C2140 C2136 1.350 . S
C2140 C2137 1.463 . S
C2140 N2144 1.427 . S
C2141 H2131 0.929 . S
C2141 C2139 1.433 . S
C2141 N2144 1.384 . S
C2142 H2133 0.929 . S
C2142 C2134 1.378 . S
C2142 C2137 1.350 . S
C2143 H2130 0.929 . S
C2143 C2135 1.433 . S
C2143 N2145 1.384 . S
N2144 C2140 1.427 . S
N2144 C2141 1.384 . S
N2145 C2137 1.427 . S
N2145 C2143 1.384 . S
H2146 C2152 0.930 . S
H2147 C2156 0.930 . S
H2148 C2161 0.929 . S
H2149 C2159 0.929 . S
H2150 C2154 0.929 . S
H2151 C2160 0.929 . S
C2152 H2146 0.930 . S
C2152 C2153 1.367 . S
C2152 C2160 1.378 . S
C2153 C2152 1.367 . S
C2153 C2161 1.433 . S
C2154 H2150 0.929 . S
C2154 C2156 1.378 . S
C2154 C2158 1.350 . S
C2155 C2158 1.463 . S
C2155 C2160 1.350 . S
C2155 N2163 1.427 . S
C2156 H2147 0.930 . S
C2156 C2154 1.378 . S
C2156 C2157 1.367 . S
C2157 C2156 1.367 . S
C2157 C2159 1.433 . S
C2158 C2154 1.350 . S
C2158 C2155 1.463 . S
C2158 N2162 1.427 . S
C2159 H2149 0.929 . S
C2159 C2157 1.433 . S
C2159 N2162 1.384 . S
C2160 H2151 0.929 . S
C2160 C2152 1.378 . S
C2160 C2155 1.350 . S
C2161 H2148 0.929 . S
C2161 C2153 1.433 . S
C2161 N2163 1.384 . S
N2162 C2158 1.427 . S
N2162 C2159 1.384 . S
N2163 C2155 1.427 . S
N2163 C2161 1.384 . S
H2164 C2170 0.930 . S
H2165 C2174 0.930 . S
H2166 C2179 0.929 . S
H2167 C2177 0.929 . S
H2168 C2172 0.929 . S
H2169 C2178 0.929 . S
C2170 H2164 0.930 . S
C2170 C2171 1.367 . S
C2170 C2178 1.378 . S
C2171 C2170 1.367 . S
C2171 C2179 1.433 . S
C2172 H2168 0.929 . S
C2172 C2174 1.378 . S
C2172 C2176 1.350 . S
C2173 C2176 1.463 . S
C2173 C2178 1.350 . S
C2173 N2181 1.427 . S
C2174 H2165 0.930 . S
C2174 C2172 1.378 . S
C2174 C2175 1.367 . S
C2175 C2174 1.367 . S
C2175 C2177 1.433 . S
C2176 C2172 1.350 . S
C2176 C2173 1.463 . S
C2176 N2180 1.427 . S
C2177 H2167 0.929 . S
C2177 C2175 1.433 . S
C2177 N2180 1.384 . S
C2178 H2169 0.929 . S
C2178 C2170 1.378 . S
C2178 C2173 1.350 . S
C2179 H2166 0.929 . S
C2179 C2171 1.433 . S
C2179 N2181 1.384 . S
N2180 C2176 1.427 . S
N2180 C2177 1.384 . S
N2181 C2173 1.427 . S
N2181 C2179 1.384 . S
H2182 C2188 0.930 . S
H2183 C2192 0.930 . S
H2184 C2197 0.929 . S
H2185 C2195 0.929 . S
H2186 C2190 0.929 . S
H2187 C2196 0.929 . S
C2188 H2182 0.930 . S
C2188 C2189 1.367 . S
C2188 C2196 1.378 . S
C2189 C2188 1.367 . S
C2189 C2197 1.433 . S
C2190 H2186 0.929 . S
C2190 C2192 1.378 . S
C2190 C2194 1.350 1_545 S
C2191 C2194 1.463 . S
C2191 C2196 1.350 . S
C2191 N2199 1.427 . S
C2192 H2183 0.930 . S
C2192 C2190 1.378 . S
C2192 C2193 1.367 . S
C2193 C2192 1.367 . S
C2193 C2195 1.433 1_545 S
C2194 C2190 1.350 1_565 S
C2194 C2191 1.463 . S
C2194 N2198 1.427 . S
C2195 H2185 0.929 . S
C2195 C2193 1.433 1_565 S
C2195 N2198 1.384 . S
C2196 H2187 0.929 . S
C2196 C2188 1.378 . S
C2196 C2191 1.350 . S
C2197 H2184 0.929 . S
C2197 C2189 1.433 . S
C2197 N2199 1.384 . S
N2198 C2194 1.427 . S
N2198 C2195 1.384 . S
N2199 C2191 1.427 . S
N2199 C2197 1.384 . S
H2200 C2206 0.930 . S
H2201 C2210 0.930 . S
H2202 C2215 0.929 . S
H2203 C2213 0.929 . S
H2204 C2208 0.929 . S
H2205 C2214 0.929 . S
C2206 H2200 0.930 . S
C2206 C2207 1.367 . S
C2206 C2214 1.378 . S
C2207 C2206 1.367 . S
C2207 C2215 1.433 . S
C2208 H2204 0.929 . S
C2208 C2210 1.378 . S
C2208 C2212 1.350 . S
C2209 C2212 1.463 . S
C2209 C2214 1.350 . S
C2209 N2217 1.427 . S
C2210 H2201 0.930 . S
C2210 C2208 1.378 . S
C2210 C2211 1.367 . S
C2211 C2210 1.367 . S
C2211 C2213 1.433 . S
C2212 C2208 1.350 . S
C2212 C2209 1.463 . S
C2212 N2216 1.427 . S
C2213 H2203 0.929 . S
C2213 C2211 1.433 . S
C2213 N2216 1.384 . S
C2214 H2205 0.929 . S
C2214 C2206 1.378 . S
C2214 C2209 1.350 . S
C2215 H2202 0.929 . S
C2215 C2207 1.433 . S
C2215 N2217 1.384 . S
N2216 C2212 1.427 . S
N2216 C2213 1.384 . S
N2217 C2209 1.427 . S
N2217 C2215 1.384 . S
H2218 C2224 0.930 . S
H2219 C2228 0.930 . S
H2220 C2233 0.929 1_556 S
H2221 C2231 0.929 . S
H2222 C2226 0.929 . S
H2223 C2232 0.929 . S
C2224 H2218 0.930 . S
C2224 C2225 1.367 . S
C2224 C2232 1.378 . S
C2225 C2224 1.367 . S
C2225 C2233 1.433 . S
C2226 H2222 0.929 . S
C2226 C2228 1.378 . S
C2226 C2230 1.350 . S
C2227 C2230 1.463 . S
C2227 C2232 1.350 . S
C2227 N2235 1.427 . S
C2228 H2219 0.930 . S
C2228 C2226 1.378 . S
C2228 C2229 1.367 . S
C2229 C2228 1.367 . S
C2229 C2231 1.433 . S
C2230 C2226 1.350 . S
C2230 C2227 1.463 . S
C2230 N2234 1.427 . S
C2231 H2221 0.929 . S
C2231 C2229 1.433 . S
C2231 N2234 1.384 . S
C2232 H2223 0.929 . S
C2232 C2224 1.378 . S
C2232 C2227 1.350 . S
C2233 H2220 0.929 1_554 S
C2233 C2225 1.433 . S
C2233 N2235 1.384 . S
N2234 C2230 1.427 . S
N2234 C2231 1.384 . S
N2235 C2227 1.427 . S
N2235 C2233 1.384 . S
H2236 C2242 0.930 . S
H2237 C2246 0.930 . S
H2238 C2251 0.929 . S
H2239 C2249 0.929 . S
H2240 C2244 0.929 . S
H2241 C2250 0.929 . S
C2242 H2236 0.930 . S
C2242 C2243 1.367 . S
C2242 C2250 1.378 . S
C2243 C2242 1.367 . S
C2243 C2251 1.433 . S
C2244 H2240 0.929 . S
C2244 C2246 1.378 . S
C2244 C2248 1.350 . S
C2245 C2248 1.463 . S
C2245 C2250 1.350 . S
C2245 N2253 1.427 . S
C2246 H2237 0.930 . S
C2246 C2244 1.378 . S
C2246 C2247 1.367 . S
C2247 C2246 1.367 . S
C2247 C2249 1.433 . S
C2248 C2244 1.350 . S
C2248 C2245 1.463 . S
C2248 N2252 1.427 . S
C2249 H2239 0.929 . S
C2249 C2247 1.433 . S
C2249 N2252 1.384 . S
C2250 H2241 0.929 . S
C2250 C2242 1.378 . S
C2250 C2245 1.350 . S
C2251 H2238 0.929 . S
C2251 C2243 1.433 . S
C2251 N2253 1.384 . S
N2252 C2248 1.427 . S
N2252 C2249 1.384 . S
N2253 C2245 1.427 . S
N2253 C2251 1.384 . S
H2254 C2260 0.930 . S
H2255 C2264 0.930 . S
H2256 C2269 0.929 . S
H2257 C2267 0.929 . S
H2258 C2262 0.929 . S
H2259 C2268 0.929 . S
C2260 H2254 0.930 . S
C2260 C2261 1.367 . S
C2260 C2268 1.378 . S
C2261 C2260 1.367 . S
C2261 C2269 1.433 . S
C2262 H2258 0.929 . S
C2262 C2264 1.378 1_545 S
C2262 C2266 1.350 . S
C2263 C2266 1.463 . S
C2263 C2268 1.350 . S
C2263 N2271 1.427 . S
C2264 H2255 0.930 . S
C2264 C2262 1.378 1_565 S
C2264 C2265 1.367 . S
C2265 C2264 1.367 . S
C2265 C2267 1.433 . S
C2266 C2262 1.350 . S
C2266 C2263 1.463 . S
C2266 N2270 1.427 1_545 S
C2267 H2257 0.929 . S
C2267 C2265 1.433 . S
C2267 N2270 1.384 . S
C2268 H2259 0.929 . S
C2268 C2260 1.378 . S
C2268 C2263 1.350 . S
C2269 H2256 0.929 . S
C2269 C2261 1.433 . S
C2269 N2271 1.384 . S
N2270 C2266 1.427 1_565 S
N2270 C2267 1.384 . S
N2271 C2263 1.427 . S
N2271 C2269 1.384 . S
H2272 C2278 0.930 . S
H2273 C2282 0.930 . S
H2274 C2287 0.929 . S
H2275 C2285 0.929 . S
H2276 C2280 0.929 . S
H2277 C2286 0.929 . S
C2278 H2272 0.930 . S
C2278 C2279 1.367 . S
C2278 C2286 1.378 . S
C2279 C2278 1.367 . S
C2279 C2287 1.433 . S
C2280 H2276 0.929 . S
C2280 C2282 1.378 . S
C2280 C2284 1.350 . S
C2281 C2284 1.463 . S
C2281 C2286 1.350 . S
C2281 N2289 1.427 . S
C2282 H2273 0.930 . S
C2282 C2280 1.378 . S
C2282 C2283 1.367 . S
C2283 C2282 1.367 . S
C2283 C2285 1.433 . S
C2284 C2280 1.350 . S
C2284 C2281 1.463 . S
C2284 N2288 1.427 . S
C2285 H2275 0.929 . S
C2285 C2283 1.433 . S
C2285 N2288 1.384 . S
C2286 H2277 0.929 . S
C2286 C2278 1.378 . S
C2286 C2281 1.350 . S
C2287 H2274 0.929 . S
C2287 C2279 1.433 . S
C2287 N2289 1.384 . S
N2288 C2284 1.427 . S
N2288 C2285 1.384 . S
N2289 C2281 1.427 . S
N2289 C2287 1.384 . S
H2290 C2296 0.930 . S
H2291 C2300 0.930 . S
H2292 C2305 0.929 . S
H2293 C2303 0.929 . S
H2294 C2298 0.929 . S
H2295 C2304 0.929 . S
C2296 H2290 0.930 . S
C2296 C2297 1.367 . S
C2296 C2304 1.378 . S
C2297 C2296 1.367 . S
C2297 C2305 1.433 . S
C2298 H2294 0.929 . S
C2298 C2300 1.378 . S
C2298 C2302 1.350 . S
C2299 C2302 1.463 . S
C2299 C2304 1.350 . S
C2299 N2307 1.427 . S
C2300 H2291 0.930 . S
C2300 C2298 1.378 . S
C2300 C2301 1.367 . S
C2301 C2300 1.367 . S
C2301 C2303 1.433 . S
C2302 C2298 1.350 . S
C2302 C2299 1.463 . S
C2302 N2306 1.427 . S
C2303 H2293 0.929 . S
C2303 C2301 1.433 . S
C2303 N2306 1.384 . S
C2304 H2295 0.929 . S
C2304 C2296 1.378 . S
C2304 C2299 1.350 . S
C2305 H2292 0.929 . S
C2305 C2297 1.433 . S
C2305 N2307 1.384 . S
N2306 C2302 1.427 . S
N2306 C2303 1.384 . S
N2307 C2299 1.427 . S
N2307 C2305 1.384 . S
H2308 C2314 0.930 . S
H2309 C2318 0.930 1_655 S
H2310 C2323 0.924 1_655 S
H2311 C2321 0.929 . S
H2312 C2316 0.929 1_655 S
H2313 C2322 0.929 . S
C2314 H2308 0.930 . S
C2314 C2315 1.367 . S
C2314 C2322 1.378 . S
C2315 C2314 1.367 . S
C2315 C2323 1.437 . S
C2316 H2312 0.929 1_455 S
C2316 C2318 1.378 . S
C2316 C2320 1.350 . S
C2317 C2320 1.463 . S
C2317 C2322 1.350 . S
C2317 N2325 1.427 . S
C2318 H2309 0.930 1_455 S
C2318 C2316 1.378 . S
C2318 C2319 1.367 . S
C2319 C2318 1.367 . S
C2319 C2321 1.433 . S
C2320 C2316 1.350 . S
C2320 C2317 1.463 . S
C2320 N2324 1.427 . S
C2321 H2311 0.929 . S
C2321 C2319 1.433 . S
C2321 N2324 1.384 . S
C2322 H2313 0.929 . S
C2322 C2314 1.378 . S
C2322 C2317 1.350 . S
C2323 H2310 0.924 1_455 S
C2323 C2315 1.437 . S
C2323 N2325 1.385 . S
N2324 C2320 1.427 . S
N2324 C2321 1.384 . S
N2325 C2317 1.427 . S
N2325 C2323 1.385 . S
H2326 C2332 0.930 . S
H2327 C2336 0.930 . S
H2328 C2341 0.929 . S
H2329 C2339 0.929 . S
H2330 C2334 0.929 . S
H2331 C2340 0.929 . S
C2332 H2326 0.930 . S
C2332 C2333 1.367 . S
C2332 C2340 1.378 . S
C2333 C2332 1.367 . S
C2333 C2341 1.433 . S
C2334 H2330 0.929 . S
C2334 C2336 1.378 . S
C2334 C2338 1.350 . S
C2335 C2338 1.463 . S
C2335 C2340 1.350 . S
C2335 N2343 1.427 . S
C2336 H2327 0.930 . S
C2336 C2334 1.378 . S
C2336 C2337 1.367 . S
C2337 C2336 1.367 . S
C2337 C2339 1.433 . S
C2338 C2334 1.350 . S
C2338 C2335 1.463 . S
C2338 N2342 1.427 . S
C2339 H2329 0.929 . S
C2339 C2337 1.433 . S
C2339 N2342 1.384 . S
C2340 H2331 0.929 . S
C2340 C2332 1.378 . S
C2340 C2335 1.350 . S
C2341 H2328 0.929 . S
C2341 C2333 1.433 . S
C2341 N2343 1.384 . S
N2342 C2338 1.427 . S
N2342 C2339 1.384 . S
N2343 C2335 1.427 . S
N2343 C2341 1.384 . S
H2344 C2350 0.930 . S
H2345 C2354 0.930 . S
H2346 C2359 0.929 1_556 S
H2347 C2357 0.929 . S
H2348 C2352 0.929 . S
H2349 C2358 0.929 . S
C2350 H2344 0.930 . S
C2350 C2351 1.367 . S
C2350 C2358 1.378 . S
C2351 C2350 1.367 . S
C2351 C2359 1.433 . S
C2352 H2348 0.929 . S
C2352 C2354 1.378 . S
C2352 C2356 1.350 . S
C2353 C2356 1.463 . S
C2353 C2358 1.350 . S
C2353 N2361 1.427 . S
C2354 H2345 0.930 . S
C2354 C2352 1.378 . S
C2354 C2355 1.367 . S
C2355 C2354 1.367 . S
C2355 C2357 1.433 . S
C2356 C2352 1.350 . S
C2356 C2353 1.463 . S
C2356 N2360 1.427 . S
C2357 H2347 0.929 . S
C2357 C2355 1.433 . S
C2357 N2360 1.384 . S
C2358 H2349 0.929 . S
C2358 C2350 1.378 . S
C2358 C2353 1.350 . S
C2359 H2346 0.929 1_554 S
C2359 C2351 1.433 . S
C2359 N2361 1.384 . S
N2360 C2356 1.427 . S
N2360 C2357 1.384 . S
N2361 C2353 1.427 . S
N2361 C2359 1.384 . S
H2362 C2368 0.930 . S
H2363 C2372 0.930 . S
H2364 C2377 0.929 . S
H2365 C2375 0.929 . S
H2366 C2370 0.929 . S
H2367 C2376 0.929 . S
C2368 H2362 0.930 . S
C2368 C2369 1.367 . S
C2368 C2376 1.378 . S
C2369 C2368 1.367 . S
C2369 C2377 1.433 . S
C2370 H2366 0.929 . S
C2370 C2372 1.378 . S
C2370 C2374 1.350 . S
C2371 C2374 1.463 . S
C2371 C2376 1.350 . S
C2371 N2379 1.427 . S
C2372 H2363 0.930 . S
C2372 C2370 1.378 . S
C2372 C2373 1.367 . S
C2373 C2372 1.367 . S
C2373 C2375 1.433 . S
C2374 C2370 1.350 . S
C2374 C2371 1.463 . S
C2374 N2378 1.427 . S
C2375 H2365 0.929 . S
C2375 C2373 1.433 . S
C2375 N2378 1.384 . S
C2376 H2367 0.929 . S
C2376 C2368 1.378 . S
C2376 C2371 1.350 . S
C2377 H2364 0.929 . S
C2377 C2369 1.433 . S
C2377 N2379 1.384 . S
N2378 C2374 1.427 . S
N2378 C2375 1.384 . S
N2379 C2371 1.427 . S
N2379 C2377 1.384 . S
H2380 C2386 0.930 . S
H2381 C2390 0.930 . S
H2382 C2395 0.929 . S
H2383 C2393 0.929 . S
H2384 C2388 0.929 . S
H2385 C2394 0.929 . S
C2386 H2380 0.930 . S
C2386 C2387 1.367 . S
C2386 C2394 1.378 . S
C2387 C2386 1.367 . S
C2387 C2395 1.433 . S
C2388 H2384 0.929 . S
C2388 C2390 1.378 . S
C2388 C2392 1.350 . S
C2389 C2392 1.463 . S
C2389 C2394 1.350 . S
C2389 N2397 1.427 . S
C2390 H2381 0.930 . S
C2390 C2388 1.378 . S
C2390 C2391 1.367 . S
C2391 C2390 1.367 . S
C2391 C2393 1.433 . S
C2392 C2388 1.350 . S
C2392 C2389 1.463 . S
C2392 N2396 1.427 . S
C2393 H2383 0.929 . S
C2393 C2391 1.433 . S
C2393 N2396 1.384 . S
C2394 H2385 0.929 . S
C2394 C2386 1.378 . S
C2394 C2389 1.350 . S
C2395 H2382 0.929 . S
C2395 C2387 1.433 . S
C2395 N2397 1.384 . S
N2396 C2392 1.427 . S
N2396 C2393 1.384 . S
N2397 C2389 1.427 . S
N2397 C2395 1.384 . S
H2398 C2404 0.930 . S
H2399 C2408 0.930 . S
H2400 C2413 0.929 . S
H2401 C2411 0.929 . S
H2402 C2406 0.929 . S
H2403 C2412 0.929 . S
C2404 H2398 0.930 . S
C2404 C2405 1.367 . S
C2404 C2412 1.378 . S
C2405 C2404 1.367 . S
C2405 C2413 1.433 . S
C2406 H2402 0.929 . S
C2406 C2408 1.378 . S
C2406 C2410 1.350 . S
C2407 C2410 1.463 . S
C2407 C2412 1.350 . S
C2407 N2415 1.427 . S
C2408 H2399 0.930 . S
C2408 C2406 1.378 . S
C2408 C2409 1.367 . S
C2409 C2408 1.367 . S
C2409 C2411 1.433 . S
C2410 C2406 1.350 . S
C2410 C2407 1.463 . S
C2410 N2414 1.427 . S
C2411 H2401 0.929 . S
C2411 C2409 1.433 . S
C2411 N2414 1.384 . S
C2412 H2403 0.929 . S
C2412 C2404 1.378 . S
C2412 C2407 1.350 . S
C2413 H2400 0.929 . S
C2413 C2405 1.433 . S
C2413 N2415 1.384 . S
N2414 C2410 1.427 . S
N2414 C2411 1.384 . S
N2415 C2407 1.427 . S
N2415 C2413 1.384 . S
H2416 C2422 0.930 . S
H2417 C2426 0.930 . S
H2418 C2431 0.929 . S
H2419 C2429 0.929 . S
H2420 C2424 0.929 . S
H2421 C2430 0.929 . S
C2422 H2416 0.930 . S
C2422 C2423 1.367 . S
C2422 C2430 1.378 . S
C2423 C2422 1.367 . S
C2423 C2431 1.433 . S
C2424 H2420 0.929 . S
C2424 C2426 1.378 . S
C2424 C2428 1.350 . S
C2425 C2428 1.463 . S
C2425 C2430 1.350 . S
C2425 N2433 1.427 . S
C2426 H2417 0.930 . S
C2426 C2424 1.378 . S
C2426 C2427 1.367 . S
C2427 C2426 1.367 . S
C2427 C2429 1.433 . S
C2428 C2424 1.350 . S
C2428 C2425 1.463 . S
C2428 N2432 1.427 . S
C2429 H2419 0.929 . S
C2429 C2427 1.433 . S
C2429 N2432 1.384 . S
C2430 H2421 0.929 . S
C2430 C2422 1.378 . S
C2430 C2425 1.350 . S
C2431 H2418 0.929 . S
C2431 C2423 1.433 . S
C2431 N2433 1.384 . S
N2432 C2428 1.427 . S
N2432 C2429 1.384 . S
N2433 C2425 1.427 . S
N2433 C2431 1.384 . S
H2434 C2440 0.930 . S
H2435 C2444 0.930 . S
H2436 C2449 0.929 . S
H2437 C2447 0.929 . S
H2438 C2442 0.929 . S
H2439 C2448 0.929 . S
C2440 H2434 0.930 . S
C2440 C2441 1.367 . S
C2440 C2448 1.378 . S
C2441 C2440 1.367 . S
C2441 C2449 1.433 . S
C2442 H2438 0.929 . S
C2442 C2444 1.378 . S
C2442 C2446 1.350 . S
C2443 C2446 1.463 . S
C2443 C2448 1.350 . S
C2443 N2451 1.427 . S
C2444 H2435 0.930 . S
C2444 C2442 1.378 . S
C2444 C2445 1.367 . S
C2445 C2444 1.367 . S
C2445 C2447 1.433 . S
C2446 C2442 1.350 . S
C2446 C2443 1.463 . S
C2446 N2450 1.427 . S
C2447 H2437 0.929 . S
C2447 C2445 1.433 . S
C2447 N2450 1.384 . S
C2448 H2439 0.929 . S
C2448 C2440 1.378 . S
C2448 C2443 1.350 . S
C2449 H2436 0.929 . S
C2449 C2441 1.433 . S
C2449 N2451 1.384 . S
N2450 C2446 1.427 . S
N2450 C2447 1.384 . S
N2451 C2443 1.427 . S
N2451 C2449 1.384 . S
H2452 C2458 0.930 . S
H2453 C2462 0.930 . S
H2454 C2467 0.911 1_455 S
H2455 C2465 0.952 1_554 S
H2456 C2460 0.929 . S
H2457 C2466 0.929 . S
C2458 H2452 0.930 . S
C2458 C2459 1.367 . S
C2458 C2466 1.378 . S
C2459 C2458 1.367 . S
C2459 C2467 1.433 . S
C2460 H2456 0.929 . S
C2460 C2462 1.378 . S
C2460 C2464 1.350 . S
C2461 C2464 1.463 1_655 S
C2461 C2466 1.350 . S
C2461 N2469 1.427 1_655 S
C2462 H2453 0.930 . S
C2462 C2460 1.378 . S
C2462 C2463 1.367 . S
C2463 C2462 1.367 . S
C2463 C2465 1.433 . S
C2464 C2460 1.350 . S
C2464 C2461 1.463 1_455 S
C2464 N2468 1.427 1_455 S
C2465 H2455 0.952 1_556 S
C2465 C2463 1.433 . S
C2465 N2468 1.384 1_455 S
C2466 H2457 0.929 . S
C2466 C2458 1.378 . S
C2466 C2461 1.350 . S
C2467 H2454 0.911 1_655 S
C2467 C2459 1.433 . S
C2467 N2469 1.384 1_655 S
N2468 C2464 1.427 1_655 S
N2468 C2465 1.384 1_655 S
N2469 C2461 1.427 1_455 S
N2469 C2467 1.384 1_455 S
H2470 C2476 0.930 . S
H2471 C2480 0.930 . S
H2472 C2485 0.929 . S
H2473 C2483 0.929 . S
H2474 C2478 0.929 . S
H2475 C2484 0.929 . S
C2476 H2470 0.930 . S
C2476 C2477 1.367 . S
C2476 C2484 1.378 . S
C2477 C2476 1.367 . S
C2477 C2485 1.433 . S
C2478 H2474 0.929 . S
C2478 C2480 1.378 . S
C2478 C2482 1.350 . S
C2479 C2482 1.463 . S
C2479 C2484 1.350 . S
C2479 N2487 1.427 . S
C2480 H2471 0.930 . S
C2480 C2478 1.378 . S
C2480 C2481 1.367 . S
C2481 C2480 1.367 . S
C2481 C2483 1.433 . S
C2482 C2478 1.350 . S
C2482 C2479 1.463 . S
C2482 N2486 1.427 . S
C2483 H2473 0.929 . S
C2483 C2481 1.433 . S
C2483 N2486 1.384 . S
C2484 H2475 0.929 . S
C2484 C2476 1.378 . S
C2484 C2479 1.350 . S
C2485 H2472 0.929 . S
C2485 C2477 1.433 . S
C2485 N2487 1.384 . S
N2486 C2482 1.427 . S
N2486 C2483 1.384 . S
N2487 C2479 1.427 . S
N2487 C2485 1.384 . S
H2488 C2494 0.930 . S
H2489 C2498 0.930 . S
H2490 C2503 0.929 . S
H2491 C2501 0.929 . S
H2492 C2496 0.929 . S
H2493 C2502 0.929 . S
C2494 H2488 0.930 . S
C2494 C2495 1.367 . S
C2494 C2502 1.378 . S
C2495 C2494 1.367 . S
C2495 C2503 1.433 . S
C2496 H2492 0.929 . S
C2496 C2498 1.378 . S
C2496 C2500 1.350 . S
C2497 C2500 1.463 . S
C2497 C2502 1.350 . S
C2497 N2505 1.427 . S
C2498 H2489 0.930 . S
C2498 C2496 1.378 . S
C2498 C2499 1.367 . S
C2499 C2498 1.367 . S
C2499 C2501 1.433 . S
C2500 C2496 1.350 . S
C2500 C2497 1.463 . S
C2500 N2504 1.427 . S
C2501 H2491 0.929 . S
C2501 C2499 1.433 . S
C2501 N2504 1.384 . S
C2502 H2493 0.929 . S
C2502 C2494 1.378 . S
C2502 C2497 1.350 . S
C2503 H2490 0.929 . S
C2503 C2495 1.433 . S
C2503 N2505 1.384 . S
N2504 C2500 1.427 . S
N2504 C2501 1.384 . S
N2505 C2497 1.427 . S
N2505 C2503 1.384 . S
H2506 C2512 0.930 1_554 S
H2507 C2516 0.930 . S
H2508 C2521 0.929 . S
H2509 C2519 0.929 . S
H2510 C2514 0.929 . S
H2511 C2520 0.929 . S
C2512 H2506 0.930 1_556 S
C2512 C2513 1.367 . S
C2512 C2520 1.378 . S
C2513 C2512 1.367 . S
C2513 C2521 1.433 . S
C2514 H2510 0.929 . S
C2514 C2516 1.378 . S
C2514 C2518 1.350 . S
C2515 C2518 1.463 . S
C2515 C2520 1.350 . S
C2515 N2523 1.427 . S
C2516 H2507 0.930 . S
C2516 C2514 1.378 . S
C2516 C2517 1.367 . S
C2517 C2516 1.367 . S
C2517 C2519 1.433 . S
C2518 C2514 1.350 . S
C2518 C2515 1.463 . S
C2518 N2522 1.427 . S
C2519 H2509 0.929 . S
C2519 C2517 1.433 . S
C2519 N2522 1.384 . S
C2520 H2511 0.929 . S
C2520 C2512 1.378 . S
C2520 C2515 1.350 . S
C2521 H2508 0.929 . S
C2521 C2513 1.433 . S
C2521 N2523 1.384 . S
N2522 C2518 1.427 . S
N2522 C2519 1.384 . S
N2523 C2515 1.427 . S
N2523 C2521 1.384 . S
H2524 C2530 0.930 . S
H2525 C2534 0.930 . S
H2526 C2539 0.929 . S
H2527 C2537 0.929 . S
H2528 C2532 0.929 . S
H2529 C2538 0.929 . S
C2530 H2524 0.930 . S
C2530 C2531 1.367 . S
C2530 C2538 1.378 . S
C2531 C2530 1.367 . S
C2531 C2539 1.433 . S
C2532 H2528 0.929 . S
C2532 C2534 1.378 . S
C2532 C2536 1.350 1_455 S
C2533 C2536 1.463 . S
C2533 C2538 1.350 . S
C2533 N2541 1.427 . S
C2534 H2525 0.930 . S
C2534 C2532 1.378 . S
C2534 C2535 1.367 . S
C2535 C2534 1.367 . S
C2535 C2537 1.433 1_455 S
C2536 C2532 1.350 1_655 S
C2536 C2533 1.463 . S
C2536 N2540 1.427 . S
C2537 H2527 0.929 . S
C2537 C2535 1.433 1_655 S
C2537 N2540 1.384 . S
C2538 H2529 0.929 . S
C2538 C2530 1.378 . S
C2538 C2533 1.350 . S
C2539 H2526 0.929 . S
C2539 C2531 1.433 . S
C2539 N2541 1.384 . S
N2540 C2536 1.427 . S
N2540 C2537 1.384 . S
N2541 C2533 1.427 . S
N2541 C2539 1.384 . S
H2542 C2548 0.930 . S
H2543 C2552 0.930 . S
H2544 C2557 0.929 . S
H2545 C2555 0.929 . S
H2546 C2550 0.929 . S
H2547 C2556 0.929 . S
C2548 H2542 0.930 . S
C2548 C2549 1.367 . S
C2548 C2556 1.378 . S
C2549 C2548 1.367 . S
C2549 C2557 1.433 . S
C2550 H2546 0.929 . S
C2550 C2552 1.378 . S
C2550 C2554 1.350 . S
C2551 C2554 1.463 . S
C2551 C2556 1.350 . S
C2551 N2559 1.427 . S
C2552 H2543 0.930 . S
C2552 C2550 1.378 . S
C2552 C2553 1.367 . S
C2553 C2552 1.367 . S
C2553 C2555 1.433 . S
C2554 C2550 1.350 . S
C2554 C2551 1.463 . S
C2554 N2558 1.427 . S
C2555 H2545 0.929 . S
C2555 C2553 1.433 . S
C2555 N2558 1.384 . S
C2556 H2547 0.929 . S
C2556 C2548 1.378 . S
C2556 C2551 1.350 . S
C2557 H2544 0.929 . S
C2557 C2549 1.433 . S
C2557 N2559 1.384 . S
N2558 C2554 1.427 . S
N2558 C2555 1.384 . S
N2559 C2551 1.427 . S
N2559 C2557 1.384 . S
H2560 C2566 0.930 . S
H2561 C2570 0.930 . S
H2562 C2575 0.929 . S
H2563 C2573 0.929 . S
H2564 C2568 0.929 . S
H2565 C2574 0.929 . S
C2566 H2560 0.930 . S
C2566 C2567 1.367 . S
C2566 C2574 1.378 . S
C2567 C2566 1.367 . S
C2567 C2575 1.433 . S
C2568 H2564 0.929 . S
C2568 C2570 1.378 . S
C2568 C2572 1.350 . S
C2569 C2572 1.463 . S
C2569 C2574 1.350 . S
C2569 N2577 1.427 . S
C2570 H2561 0.930 . S
C2570 C2568 1.378 . S
C2570 C2571 1.367 . S
C2571 C2570 1.367 . S
C2571 C2573 1.433 . S
C2572 C2568 1.350 . S
C2572 C2569 1.463 . S
C2572 N2576 1.427 . S
C2573 H2563 0.929 . S
C2573 C2571 1.433 . S
C2573 N2576 1.384 . S
C2574 H2565 0.929 . S
C2574 C2566 1.378 . S
C2574 C2569 1.350 . S
C2575 H2562 0.929 . S
C2575 C2567 1.433 . S
C2575 N2577 1.384 . S
N2576 C2572 1.427 . S
N2576 C2573 1.384 . S
N2577 C2569 1.427 . S
N2577 C2575 1.384 . S
H2578 C2584 0.930 . S
H2579 C2588 0.930 . S
H2580 C2593 0.929 . S
H2581 C2591 0.929 . S
H2582 C2586 0.929 . S
H2583 C2592 0.929 . S
C2584 H2578 0.930 . S
C2584 C2585 1.367 . S
C2584 C2592 1.378 . S
C2585 C2584 1.367 . S
C2585 C2593 1.433 1_545 S
C2586 H2582 0.929 . S
C2586 C2588 1.378 . S
C2586 C2590 1.350 . S
C2587 C2590 1.463 . S
C2587 C2592 1.350 . S
C2587 N2595 1.427 . S
C2588 H2579 0.930 . S
C2588 C2586 1.378 . S
C2588 C2589 1.367 . S
C2589 C2588 1.367 . S
C2589 C2591 1.433 . S
C2590 C2586 1.350 . S
C2590 C2587 1.463 . S
C2590 N2594 1.427 . S
C2591 H2581 0.929 . S
C2591 C2589 1.433 . S
C2591 N2594 1.384 . S
C2592 H2583 0.929 . S
C2592 C2584 1.378 . S
C2592 C2587 1.350 . S
C2593 H2580 0.929 . S
C2593 C2585 1.433 1_565 S
C2593 N2595 1.384 1_565 S
N2594 C2590 1.427 . S
N2594 C2591 1.384 . S
N2595 C2587 1.427 . S
N2595 C2593 1.384 1_545 S
H2596 C2602 0.930 . S
H2597 C2606 0.930 . S
H2598 C2611 0.929 . S
H2599 C2609 0.929 . S
H2600 C2604 0.929 . S
H2601 C2610 0.929 . S
C2602 H2596 0.930 . S
C2602 C2603 1.367 . S
C2602 C2610 1.378 . S
C2603 C2602 1.367 . S
C2603 C2611 1.433 . S
C2604 H2600 0.929 . S
C2604 C2606 1.378 . S
C2604 C2608 1.350 . S
C2605 C2608 1.463 . S
C2605 C2610 1.350 . S
C2605 N2613 1.427 . S
C2606 H2597 0.930 . S
C2606 C2604 1.378 . S
C2606 C2607 1.367 . S
C2607 C2606 1.367 . S
C2607 C2609 1.433 . S
C2608 C2604 1.350 . S
C2608 C2605 1.463 . S
C2608 N2612 1.427 . S
C2609 H2599 0.929 . S
C2609 C2607 1.433 . S
C2609 N2612 1.384 . S
C2610 H2601 0.929 . S
C2610 C2602 1.378 . S
C2610 C2605 1.350 . S
C2611 H2598 0.929 . S
C2611 C2603 1.433 . S
C2611 N2613 1.384 . S
N2612 C2608 1.427 . S
N2612 C2609 1.384 . S
N2613 C2605 1.427 . S
N2613 C2611 1.384 . S
H2614 C2620 0.930 . S
H2615 C2624 0.930 . S
H2616 C2629 0.929 . S
H2617 C2627 0.929 . S
H2618 C2622 0.929 . S
H2619 C2628 0.929 . S
C2620 H2614 0.930 . S
C2620 C2621 1.367 . S
C2620 C2628 1.378 . S
C2621 C2620 1.367 . S
C2621 C2629 1.433 . S
C2622 H2618 0.929 . S
C2622 C2624 1.378 . S
C2622 C2626 1.350 . S
C2623 C2626 1.463 . S
C2623 C2628 1.350 . S
C2623 N2631 1.427 . S
C2624 H2615 0.930 . S
C2624 C2622 1.378 . S
C2624 C2625 1.367 . S
C2625 C2624 1.367 . S
C2625 C2627 1.433 . S
C2626 C2622 1.350 . S
C2626 C2623 1.463 . S
C2626 N2630 1.427 . S
C2627 H2617 0.929 . S
C2627 C2625 1.433 . S
C2627 N2630 1.384 . S
C2628 H2619 0.929 . S
C2628 C2620 1.378 . S
C2628 C2623 1.350 . S
C2629 H2616 0.929 . S
C2629 C2621 1.433 . S
C2629 N2631 1.384 . S
N2630 C2626 1.427 . S
N2630 C2627 1.384 . S
N2631 C2623 1.427 . S
N2631 C2629 1.384 . S
H2632 C2638 0.930 . S
H2633 C2642 0.930 . S
H2634 C2647 0.929 . S
H2635 C2645 0.929 . S
H2636 C2640 0.929 . S
H2637 C2646 0.929 . S
C2638 H2632 0.930 . S
C2638 C2639 1.367 . S
C2638 C2646 1.378 . S
C2639 C2638 1.367 . S
C2639 C2647 1.433 . S
C2640 H2636 0.929 . S
C2640 C2642 1.378 . S
C2640 C2644 1.350 . S
C2641 C2644 1.463 . S
C2641 C2646 1.350 . S
C2641 N2649 1.427 . S
C2642 H2633 0.930 . S
C2642 C2640 1.378 . S
C2642 C2643 1.367 . S
C2643 C2642 1.367 . S
C2643 C2645 1.433 . S
C2644 C2640 1.350 . S
C2644 C2641 1.463 . S
C2644 N2648 1.427 . S
C2645 H2635 0.929 . S
C2645 C2643 1.433 . S
C2645 N2648 1.384 . S
C2646 H2637 0.929 . S
C2646 C2638 1.378 . S
C2646 C2641 1.350 . S
C2647 H2634 0.929 . S
C2647 C2639 1.433 . S
C2647 N2649 1.384 . S
N2648 C2644 1.427 . S
N2648 C2645 1.384 . S
N2649 C2641 1.427 . S
N2649 C2647 1.384 . S
H2650 C2656 0.930 . S
H2651 C2660 0.930 . S
H2652 C2665 0.929 . S
H2653 C2663 0.929 . S
H2654 C2658 0.929 . S
H2655 C2664 0.929 . S
C2656 H2650 0.930 . S
C2656 C2657 1.367 . S
C2656 C2664 1.378 . S
C2657 C2656 1.367 . S
C2657 C2665 1.433 . S
C2658 H2654 0.929 . S
C2658 C2660 1.378 . S
C2658 C2662 1.350 . S
C2659 C2662 1.463 . S
C2659 C2664 1.350 . S
C2659 N2667 1.427 . S
C2660 H2651 0.930 . S
C2660 C2658 1.378 . S
C2660 C2661 1.367 . S
C2661 C2660 1.367 . S
C2661 C2663 1.433 . S
C2662 C2658 1.350 . S
C2662 C2659 1.463 . S
C2662 N2666 1.427 . S
C2663 H2653 0.929 . S
C2663 C2661 1.433 . S
C2663 N2666 1.384 . S
C2664 H2655 0.929 . S
C2664 C2656 1.378 . S
C2664 C2659 1.350 . S
C2665 H2652 0.929 . S
C2665 C2657 1.433 . S
C2665 N2667 1.384 . S
N2666 C2662 1.427 . S
N2666 C2663 1.384 . S
N2667 C2659 1.427 . S
N2667 C2665 1.384 . S
H2668 C2674 0.930 . S
H2669 C2678 0.930 . S
H2670 C2683 0.911 1_545 S
H2671 C2681 0.929 . S
H2672 C2676 0.929 . S
H2673 C2682 0.929 . S
C2674 H2668 0.930 . S
C2674 C2675 1.367 . S
C2674 C2682 1.378 . S
C2675 C2674 1.367 . S
C2675 C2683 1.433 . S
C2676 H2672 0.929 . S
C2676 C2678 1.378 . S
C2676 C2680 1.350 . S
C2677 C2680 1.463 . S
C2677 C2682 1.350 . S
C2677 N2685 1.427 . S
C2678 H2669 0.930 . S
C2678 C2676 1.378 . S
C2678 C2679 1.367 . S
C2679 C2678 1.367 . S
C2679 C2681 1.433 . S
C2680 C2676 1.350 . S
C2680 C2677 1.463 . S
C2680 N2684 1.427 . S
C2681 H2671 0.929 . S
C2681 C2679 1.433 . S
C2681 N2684 1.384 . S
C2682 H2673 0.929 . S
C2682 C2674 1.378 . S
C2682 C2677 1.350 . S
C2683 H2670 0.911 1_565 S
C2683 C2675 1.433 . S
C2683 N2685 1.384 . S
N2684 C2680 1.427 . S
N2684 C2681 1.384 . S
N2685 C2677 1.427 . S
N2685 C2683 1.384 . S
H2686 C2692 0.930 . S
H2687 C2696 0.930 . S
H2688 C2701 0.929 . S
H2689 C2699 0.929 . S
H2690 C2694 0.929 . S
H2691 C2700 0.929 . S
C2692 H2686 0.930 . S
C2692 C2693 1.367 . S
C2692 C2700 1.378 . S
C2693 C2692 1.367 . S
C2693 C2701 1.433 . S
C2694 H2690 0.929 . S
C2694 C2696 1.378 . S
C2694 C2698 1.350 . S
C2695 C2698 1.463 . S
C2695 C2700 1.350 . S
C2695 N2703 1.427 . S
C2696 H2687 0.930 . S
C2696 C2694 1.378 . S
C2696 C2697 1.367 . S
C2697 C2696 1.367 . S
C2697 C2699 1.433 . S
C2698 C2694 1.350 . S
C2698 C2695 1.463 . S
C2698 N2702 1.427 . S
C2699 H2689 0.929 . S
C2699 C2697 1.433 . S
C2699 N2702 1.384 . S
C2700 H2691 0.929 . S
C2700 C2692 1.378 . S
C2700 C2695 1.350 . S
C2701 H2688 0.929 . S
C2701 C2693 1.433 . S
C2701 N2703 1.384 . S
N2702 C2698 1.427 . S
N2702 C2699 1.384 . S
N2703 C2695 1.427 . S
N2703 C2701 1.384 . S
C983 C109 1.353 . S
C987 C342 1.311 . S
C1001 C65 1.980 . S
C1005 C394 1.854 . S
C1019 C75 1.360 . S
C1023 C426 1.368 1_565 S
C1041 C475 2.542 . S
C1037 C84 2.556 . S
C1055 C25 1.042 . S
C1059 C511 1.021 . S
C1077 C542 0.473 . S
C1073 C28 0.416 . S
C1095 C594 0.378 . S
C1091 C47 0.388 . S
C1109 C9 1.720 . S
C1113 C622 1.594 . S
C1131 C354 1.995 . S
C1127 C233 2.177 . S
C1145 C249 1.649 . S
C1149 C395 1.691 . S
C1167 C425 1.865 . S
C1163 C275 2.016 1_545 S
C1185 C462 0.637 . S
C1181 C173 0.605 . S
C1199 C224 1.889 . S
C1203 C506 1.915 1_655 S
C1221 C554 1.943 . S
C1217 C243 1.965 . S
C1239 C595 1.622 1_556 S
C1235 C266 1.586 . S
C1257 C634 1.643 . S
C1253 C179 1.766 . S
C1275 C355 2.332 . S
C1271 C163 2.332 . S
C1289 C289 1.668 1_554 S
C1293 C665 1.584 . S
C1311 C715 2.411 . S
C1307 C333 2.407 . S
C1329 C742 0.984 . S
C1325 C308 0.993 . S
C1343 C123 2.559 . S
C1347 C635 2.570 . S
C1361 C126 1.328 . S
C1365 C431 1.288 . S
C1379 C327 2.572 . S
C1383 C794 2.468 . S
C1401 C822 1.222 . S
C1397 C299 1.276 . S
C1419 C351 1.276 . S
C1415 C67 1.322 . S
C1437 C825 1.873 . S
C1433 C98 2.017 . S
C1451 C89 1.397 . S
C1455 C435 1.410 . S
C1469 C79 2.571 . S
C1473 C786 2.592 . S
C1491 C502 1.003 . S
C1487 C11 1.031 . S
C1505 C51 0.535 . S
C1509 C711 0.573 . S
C1527 C585 0.415 . S
C1523 C33 0.417 . S
C1545 C871 1.511 . S
C1541 C14 1.584 . S
C1563 C345 1.938 1_556 S
C1559 C140 2.111 . S
C1581 C826 1.734 . S
C1577 C319 1.715 . S
C1595 C112 1.983 . S
C1599 C434 1.891 . S
C1613 C285 0.524 . S
C1617 C791 0.555 . S
C1631 C149 1.939 . S
C1635 C515 1.938 . S
C1653 C705 1.978 . S
C1649 C313 2.004 . S
C1667 C121 1.717 . S
C1671 C586 1.718 . S
C1685 C291 1.759 . S
C1689 C865 1.649 . S
C1703 C182 2.302 . S
C1707 C346 2.312 1_655 S
C1721 C168 1.699 . S
C1725 C674 1.681 . S
C1739 C263 2.464 . S
C1743 C546 2.463 . S
C1757 C247 1.042 . S
C1761 C751 1.037 . S
C1779 C866 2.519 . S
C1775 C277 2.514 . S
C1793 C219 1.402 1_545 S
C1797 C422 1.315 . S
C1815 C465 2.494 . S
C1811 C257 2.606 . S
C1833 C391 1.220 . S
C1829 C201 1.274 . S
C1847 C81 1.344 . S
C1851 C902 1.300 . S
C1869 C834 1.863 . S
C1865 C93 1.997 . S
C1883 C103 1.391 . S
C1887 C946 1.399 . S
C1901 C56 2.562 . S
C1905 C795 2.550 . S
C1919 C53 1.031 . S
C1923 C671 1.003 . S
C1941 C702 0.558 . S
C1937 C0 0.523 . S
C1959 C754 0.400 . S
C1955 C19 0.364 . S
C1977 C862 1.444 . S
C1973 C37 1.554 . S
C1995 C914 1.991 . S
C1991 C261 2.161 . S
C2009 C193 1.672 1_556 S
C2013 C835 1.709 . S
C2031 C945 1.875 . S
C2027 C205 2.008 . S
C2049 C782 0.620 . S
C2045 C215 0.580 . S
C2067 C666 1.941 1_556 S
C2063 C252 1.909 . S
C2081 C187 1.997 . S
C2085 C714 1.966 . S
C2103 C755 1.633 . S
C2099 C196 1.599 . S
C2117 C221 1.775 . S
C2121 C874 1.639 . S
C2139 C915 2.329 . S
C2135 C317 2.330 . S
C2153 C135 1.694 . S
C2157 C505 1.620 . S
C2175 C555 2.399 . S
C2171 C151 2.397 . S
C2193 C582 1.004 . S
C2189 C154 1.004 . S
C2211 C875 2.546 . S
C2207 C305 2.534 . S
C2225 C280 1.256 . S
C2229 C951 1.214 . S
C2247 C474 2.463 . S
C2243 C145 2.576 . S
C2265 C382 1.229 . S
C2261 C117 1.282 . S
C2279 C95 1.320 . S
C2283 C911 1.274 . S
C2301 C385 1.893 . S
C2297 C70 2.026 . S
C2315 C61 1.411 . S
C2319 C955 1.426 . S
C2333 C107 2.578 . S
C2337 C466 2.599 . S
C2351 C39 1.034 . S
C2355 C662 1.001 . S
C2373 C551 0.535 . S
C2369 C23 0.499 . S
C2387 C5 0.426 . S
C2391 C745 0.377 . S
C2405 C42 1.522 . S
C2409 C631 1.456 . S
C2427 C905 1.953 . S
C2423 C322 2.102 . S
C2441 C165 1.712 . S
C2445 C386 1.733 . S
C2463 C954 1.920 1_556 S
C2459 C294 2.007 . S
C2477 C131 0.603 . S
C2481 C471 0.638 . S
C2495 C331 1.965 . S
C2499 C675 1.961 . S
C2517 C545 2.003 . S
C2513 C159 2.033 1_556 S
C2531 C303 1.701 . S
C2535 C746 1.704 . S
C2553 C625 1.618 . S
C2549 C137 1.734 . S
C2571 C906 2.327 . S
C2567 C238 2.304 . S
C2589 C514 1.677 . S
C2585 C210 1.705 . S
C2603 C235 2.457 . S
C2607 C706 2.459 . S
C2625 C591 1.050 . S
C2621 C191 1.057 . S
C2639 C207 2.511 . S
C2643 C626 2.514 . S
C2657 C177 1.385 . S
C2661 C942 1.291 . S
C2679 C785 2.494 . S
C2675 C229 2.606 1_565 S
C2697 C831 1.215 . S
C2693 C271 1.269 . S
