# Generated by pormake.
# Topology sit, (3,6)-cn, num edge types: 1
# Building blocks:
#     Node 0, Type 0, BuildingBlock: WUSLED_clean_sbu_0, # of connection points: 3
#     Node 1, Type 0, BuildingBlock: WUSLED_clean_sbu_0, # of connection points: 3
#     Node 2, Type 0, BuildingBlock: WUSLED_clean_sbu_0, # of connection points: 3
#     Node 3, Type 0, BuildingBlock: WUSLED_clean_sbu_0, # of connection points: 3
#     Node 4, Type 1, BuildingBlock: MIDCAF_clean_sbu_0, # of connection points: 6
#     Node 5, Type 1, BuildingBlock: MIDCAF_clean_sbu_0, # of connection points: 6
#     Edge 6, Type (0, 1), BuildingBlock: AJUNOK_clean_linker_0, # of connection points: 2
#     Edge 7, Type (0, 1), BuildingBlock: AJUNOK_clean_linker_0, # of connection points: 2
#     Edge 8, Type (0, 1), BuildingBlock: AJUNOK_clean_linker_0, # of connection points: 2
#     Edge 9, Type (0, 1), BuildingBlock: AJUNOK_clean_linker_0, # of connection points: 2
#     Edge 10, Type (0, 1), BuildingBlock: AJUNOK_clean_linker_0, # of connection points: 2
#     Edge 11, Type (0, 1), BuildingBlock: AJUNOK_clean_linker_0, # of connection points: 2
#     Edge 12, Type (0, 1), BuildingBlock: AJUNOK_clean_linker_0, # of connection points: 2
#     Edge 13, Type (0, 1), BuildingBlock: AJUNOK_clean_linker_0, # of connection points: 2
#     Edge 14, Type (0, 1), BuildingBlock: AJUNOK_clean_linker_0, # of connection points: 2
#     Edge 15, Type (0, 1), BuildingBlock: AJUNOK_clean_linker_0, # of connection points: 2
#     Edge 16, Type (0, 1), BuildingBlock: AJUNOK_clean_linker_0, # of connection points: 2
#     Edge 17, Type (0, 1), BuildingBlock: AJUNOK_clean_linker_0, # of connection points: 2
# Relax obj value: 0.107
# Max RMSD: 0.192
# Mean RMSD: 0.104
data_MOF--net-sit--node1-WUSLED_clean_sbu_0--node2-MIDCAF_clean_sbu_0--edge1-AJUNOK_clean_linker_0
_symmetry_space_group_name_H-M    P1
_symmetry_Int_Tables_number       1
_symmetry_cell_setting            triclinic
loop_
_symmetry_equiv_pos_as_xyz
'x, y, z'
_cell_length_a     24.464383
_cell_length_b     29.243805
_cell_length_c     37.91661
_cell_angle_alpha  90.074141
_cell_angle_beta   89.170398
_cell_angle_gamma 84.72237
loop_
_atom_site_label
_atom_site_type_symbol
_atom_site_fract_x
_atom_site_fract_y
_atom_site_fract_z
_atom_type_partial_charge
C0 C 0.91226 0.42337 0.00915 0.0
C1 C 0.92793 0.45373 0.983 0.0
C2 C 0.83246 0.47245 0.96789 0.0
C3 C 0.8883 0.47805 0.96246 0.0
C4 C 0.81669 0.444 -0.00463 0.0
C5 C 0.85645 0.41939 0.0158 0.0
U6 U 0.06151 0.38972 0.02195 0.0
O7 O 0.11107 0.36988 0.06845 0.0
O8 O 0.10905 0.32221 0.02381 0.0
C9 C 0.12465 0.32812 0.05642 0.0
C10 C 0.95441 0.39358 0.02732 0.0
C11 C 0.1154 0.29081 0.08127 0.0
C12 C 0.05715 0.2356 0.10613 0.0
C13 C 0.06718 0.26826 0.08045 0.0
C14 C 0.14393 0.24692 0.13326 0.0
C15 C 0.09495 0.22516 0.13324 0.0
C16 C 0.15409 0.27929 0.10744 0.0
C17 C 0.15707 0.46223 0.96747 0.0
C18 C 0.24376 0.49464 0.97711 0.0
C19 C 0.2203 0.47098 0.91842 0.0
C20 C 0.17048 0.45777 0.93144 0.0
C21 C 0.25762 0.48917 0.94116 0.0
C22 C 0.19399 0.48118 -0.0098 0.0
C23 C 0.10317 0.44946 0.98013 0.0
O24 O -0.01648 0.36454 0.00642 0.0
O25 O -0.01544 0.41459 0.04949 0.0
O26 O 0.09033 0.45785 0.01345 0.0
O27 O 0.08868 0.40975 0.96904 0.0
H28 H 0.97096 0.45727 0.97761 0.0
H29 H 0.90129 0.49994 0.94149 0.0
H30 H 0.77381 0.43895 -0.00021 0.0
H31 H 0.84373 0.39608 0.03587 0.0
H32 H 0.01897 0.2196 0.1055 0.0
H33 H 0.03659 0.27679 0.06055 0.0
H34 H 0.17316 0.24081 0.15429 0.0
H35 H 0.19137 0.29654 0.10863 0.0
H36 H 0.27134 0.50945 -0.00493 0.0
H37 H 0.23004 0.46627 0.89061 0.0
H38 H 0.14235 0.44398 0.91328 0.0
H39 H 0.18449 0.48584 0.01802 0.0
C40 C 0.8767 0.74863 0.01034 0.0
C41 C 0.88429 0.73991 0.97405 0.0
C42 C 0.80035 0.70134 0.97268 0.0
C43 C 0.84624 0.71703 0.95538 0.0
C44 C 0.79375 0.70885 0.00927 0.0
C45 C 0.83157 0.73238 0.02791 0.0
U46 U 0.02252 0.77366 0.02319 0.0
O47 O 0.06084 0.83858 0.02694 0.0
O48 O 0.07166 0.78779 0.06952 0.0
C49 C 0.08038 0.82915 0.0585 0.0
C50 C 0.91586 0.7745 0.02968 0.0
C51 C 0.07283 0.8661 0.0851 0.0
C52 C 0.02092 0.93271 0.11173 0.0
C53 C 0.02649 0.89831 0.08577 0.0
C54 C 0.108 0.90327 0.13625 0.0
C55 C 0.06133 0.93515 0.13759 0.0
C56 C 0.11366 0.86922 0.11028 0.0
C57 C 0.12851 0.70329 0.96487 0.0
C58 C 0.2148 0.7264 0.94186 0.0
C59 C 0.19896 0.64576 0.94294 0.0
C60 C 0.14703 0.65719 0.95813 0.0
C61 C 0.23256 0.68046 0.93394 0.0
C62 C 0.16328 0.73775 0.95737 0.0
C63 C 0.07219 0.71495 0.97821 0.0
O64 O 0.94984 0.74992 0.05031 0.0
O65 O 0.94001 0.80467 0.01072 0.0
O66 O 0.0489 0.75543 0.96904 0.0
O67 O 0.06313 0.70478 0.0114 0.0
H68 H 0.91909 0.75167 0.95986 0.0
H69 H 0.85186 0.7132 0.92712 0.0
H70 H 0.75885 0.69715 0.02337 0.0
H71 H 0.82524 0.73833 0.05594 0.0
H72 H -0.01514 0.95713 0.11174 0.0
H73 H -0.00545 0.89671 0.06644 0.0
H74 H 0.13952 0.90376 0.15598 0.0
H75 H 0.1498 0.84483 0.11013 0.0
H76 H 0.24054 0.75357 0.93551 0.0
H77 H 0.21209 0.61011 0.9371 0.0
H78 H 0.12084 0.63013 0.96391 0.0
H79 H 0.1502 0.77351 0.96275 0.0
C80 C 0.40453 0.93417 0.51258 0.0
C81 C 0.42113 0.9658 0.48768 0.0
C82 C 0.32611 0.98583 0.47178 0.0
C83 C 0.38219 0.99147 0.46742 0.0
C84 C 0.30945 0.95612 0.49818 0.0
C85 C 0.34849 0.93028 0.51835 0.0
U86 U 0.55276 0.89199 0.52208 0.0
O87 O 0.60358 0.86874 0.56706 0.0
O88 O 0.59384 0.82167 0.52289 0.0
C89 C 0.6126 0.82653 0.55485 0.0
C90 C 0.44576 0.90232 0.52974 0.0
C91 C 0.60255 0.78973 0.57999 0.0
C92 C 0.55129 0.76086 0.62923 0.0
C93 C 0.55739 0.79415 0.60338 0.0
C94 C 0.63358 0.71692 0.60733 0.0
C95 C 0.59011 0.72246 0.63209 0.0
C96 C 0.63984 0.7504 0.58159 0.0
C97 C 0.65269 0.95845 0.46566 0.0
C98 C 0.74095 0.98937 0.47285 0.0
C99 C 0.71432 0.96408 0.41527 0.0
C100 C 0.66473 0.95206 0.42957 0.0
C101 C 0.75263 0.98333 0.43667 0.0
C102 C 0.69138 0.97717 0.48723 0.0
C103 C 0.5981 0.94875 0.47943 0.0
O104 O 0.47143 0.87208 0.50816 0.0
O105 O 0.47903 0.92127 0.55113 0.0
O106 O 0.57945 0.91043 0.46866 0.0
O107 O 0.58747 0.95766 0.51296 0.0
H108 H 0.46435 0.96919 0.48289 0.0
H109 H 0.39595 1.01436 0.44739 0.0
H110 H 0.26645 0.95094 0.50181 0.0
H111 H 0.33504 0.9059 0.53737 0.0
H112 H 0.51752 0.76626 0.64801 0.0
H113 H 0.5278 0.82404 0.60237 0.0
H114 H 0.66351 0.68729 0.60843 0.0
H115 H 0.67461 0.74614 0.56348 0.0
H116 H 0.76986 1.00416 0.4899 0.0
H117 H 0.7228 0.95805 0.38745 0.0
H118 H 0.63549 0.93812 0.41229 0.0
H119 H 0.6832 0.98298 0.5151 0.0
C120 C 0.36698 0.25915 0.50938 0.0
C121 C 0.37368 0.2474 0.47351 0.0
C122 C 0.28559 0.21505 0.47401 0.0
C123 C 0.33328 0.22583 0.45598 0.0
C124 C 0.28036 0.22461 0.51039 0.0
C125 C 0.32056 0.24679 0.52786 0.0
U126 U 0.51555 0.27601 0.52041 0.0
O127 O 0.55955 0.33825 0.52225 0.0
O128 O 0.56669 0.28904 0.56598 0.0
C129 C 0.57846 0.32922 0.55401 0.0
C130 C 0.40865 0.28367 0.52746 0.0
C131 C 0.57155 0.36728 0.57958 0.0
C132 C 0.51379 0.42428 0.61318 0.0
C133 C 0.51981 0.39041 0.58689 0.0
C134 C 0.61134 0.41305 0.62435 0.0
C135 C 0.55938 0.43545 0.63263 0.0
C136 C 0.61732 0.37939 0.598 0.0
C137 C 0.61345 0.19569 0.46355 0.0
C138 C 0.71271 0.19105 0.46734 0.0
C139 C 0.67011 0.1569 0.41761 0.0
C140 C 0.61833 0.17089 0.43185 0.0
C141 C 0.71767 0.16729 0.43505 0.0
C142 C 0.66085 0.20533 0.48147 0.0
C143 C 0.55866 0.21251 0.47671 0.0
O144 O 0.44089 0.25856 0.54879 0.0
O145 O 0.43524 0.31097 0.50727 0.0
O146 O 0.54094 0.25416 0.46663 0.0
O147 O 0.54866 0.20475 0.51021 0.0
H148 H 0.40972 0.25567 0.45876 0.0
H149 H 0.33856 0.21901 0.428 0.0
H150 H 0.24481 0.21555 0.52525 0.0
H151 H 0.31516 0.25468 0.55568 0.0
H152 H 0.47321 0.44076 0.61907 0.0
H153 H 0.48395 0.38147 0.57291 0.0
H154 H 0.64701 0.41976 0.63944 0.0
H155 H 0.65754 0.36174 0.59278 0.0
H156 H 0.74888 0.20018 0.48088 0.0
H157 H 0.67309 0.13876 0.39261 0.0
H158 H 0.58206 0.16321 0.41774 0.0
H159 H 0.6577 0.22471 0.50591 0.0
Zn160 Zn 0.02345 0.17971 0.33921 0.0
Zn161 Zn 0.06203 1.00049 0.3432 0.0
Zn162 Zn 0.04545 0.08996 0.33993 0.0
C163 C 0.0538 1.0242 0.27181 0.0
C164 C 0.96213 1.02167 0.37532 0.0
O165 O 0.10824 0.1188 0.37301 0.0
O166 O 0.08115 0.19311 0.37282 0.0
C167 C 0.04764 0.15348 0.26979 0.0
O168 O 0.05407 1.06516 0.28441 0.0
O169 O 0.05463 0.99003 0.29213 0.0
O170 O -0.00166 0.98809 0.37353 0.0
O171 O 0.97218 1.06128 0.36316 0.0
O172 O 0.03494 0.18875 0.28839 0.0
O173 O 0.05316 0.11331 0.28408 0.0
O174 O 0.96321 0.10983 0.36405 0.0
O175 O 0.94743 0.18504 0.35707 0.0
C176 C 0.932 0.14756 0.36796 0.0
O177 O 0.11985 1.07095 0.37173 0.0
O178 O 0.13594 0.99586 0.36377 0.0
C179 C 0.11349 0.16007 0.38357 0.0
C180 C 0.14985 1.03289 0.37643 0.0
Zn181 Zn 0.54107 0.67325 0.83695 0.0
Zn182 Zn 0.56287 0.49546 0.84263 0.0
Zn183 Zn 0.55307 0.58325 0.83833 0.0
C184 C 0.55253 0.51583 0.77132 0.0
C185 C 0.46763 0.52196 0.87838 0.0
O186 O 0.6199 0.6088 0.87021 0.0
O187 O 0.59646 0.68368 0.87291 0.0
C188 C 0.56535 0.64383 0.76808 0.0
O189 O 0.55845 0.55653 0.78297 0.0
O190 O 0.54957 0.483 0.7926 0.0
O191 O 0.50187 0.48709 0.87603 0.0
O192 O 0.47837 0.56024 0.86416 0.0
O193 O 0.56076 0.6798 0.78668 0.0
O194 O 0.56141 0.60415 0.78221 0.0
O195 O 0.47207 0.60847 0.86175 0.0
O196 O 0.46303 0.6832 0.85125 0.0
C197 C 0.44358 0.64781 0.86323 0.0
O198 O 0.62679 0.56058 0.86964 0.0
O199 O 0.63832 0.48556 0.86037 0.0
C200 C 0.62786 0.64911 0.88185 0.0
C201 C 0.65473 0.52137 0.87354 0.0
C202 C 0.02841 0.2079 0.18076 0.0
C203 C 0.07986 0.19737 0.16418 0.0
C204 C 0.0167 0.18998 0.21392 0.0
C205 C 0.05563 0.16045 0.23165 0.0
H206 H -0.00171 0.2328 0.1693 0.0
H207 H 0.97798 0.20152 0.22674 0.0
S208 S 0.19356 0.11728 0.19796 0.0
N209 N 0.16781 0.15128 0.16635 0.0
N210 N 0.14579 0.11838 0.22929 0.0
C211 C 0.10555 0.14677 0.21441 0.0
C212 C 0.1177 0.16514 0.18054 0.0
C213 C 0.09845 0.99119 0.17935 0.0
C214 C 0.05384 0.96807 0.1677 0.0
C215 C 0.09648 1.01406 0.21202 0.0
C216 C 0.04958 1.01515 0.23383 0.0
H217 H 0.13639 0.98919 0.16411 0.0
H218 H 0.13334 1.02752 0.22148 0.0
S219 S 0.92031 0.96382 0.21476 0.0
N220 N 0.96014 0.95051 0.18004 0.0
N221 N 0.95641 0.99435 0.24088 0.0
C222 C 0.00345 0.99522 0.22145 0.0
C223 C 0.00545 0.97164 0.18843 0.0
C224 C 0.53733 0.67578 0.67396 0.0
C225 C 0.58772 0.69136 0.66303 0.0
C226 C 0.53151 0.65509 0.70706 0.0
C227 C 0.57588 0.64932 0.73018 0.0
H228 H 0.50141 0.68199 0.65767 0.0
H229 H 0.49116 0.64681 0.71566 0.0
S230 S 0.71738 0.67972 0.71327 0.0
N231 N 0.6838 0.69591 0.67725 0.0
N232 N 0.67237 0.6571 0.73926 0.0
C233 C 0.62718 0.66159 0.71867 0.0
C234 C 0.63331 0.68246 0.68505 0.0
C235 C 0.51116 0.45543 0.6897 0.0
C236 C 0.55174 0.46479 0.66479 0.0
C237 C 0.50949 0.4752 0.72332 0.0
C238 C 0.54798 0.50544 0.73341 0.0
H239 H 0.48265 0.43022 0.6841 0.0
H240 H 0.47945 0.46483 0.74228 0.0
S241 S 0.65788 0.54624 0.67666 0.0
N242 N 0.62759 0.51053 0.6512 0.0
N243 N 0.62491 0.54698 0.71503 0.0
C244 C 0.58627 0.51786 0.7081 0.0
C245 C 0.58812 0.49759 0.67366 0.0
C246 C 0.31461 0.52692 0.89625 0.0
C247 C 0.31157 0.50083 0.9273 0.0
C248 C 0.36543 0.535 0.88106 0.0
C249 C 0.41479 0.51745 0.89653 0.0
H250 H 0.27743 0.54068 0.88337 0.0
H251 H 0.36609 0.55417 0.85665 0.0
S252 S 0.42943 0.44762 0.97793 0.0
N253 N 0.36248 0.45768 0.97293 0.0
N254 N 0.45785 0.47367 0.9447 0.0
C255 C 0.41237 0.49208 0.92783 0.0
C256 C 0.36078 0.48379 0.94327 0.0
C257 C 0.70156 0.69839 0.95782 0.0
C258 C 0.75674 0.68174 0.95195 0.0
C259 C 0.66009 0.68596 0.93569 0.0
C260 C 0.67196 0.65622 0.90688 0.0
H261 H 0.69049 0.72299 0.97869 0.0
H262 H 0.61844 0.7008 0.94061 0.0
S263 S 0.80903 0.60119 0.88079 0.0
N264 N 0.82044 0.63133 0.91637 0.0
N265 N 0.74241 0.60993 0.87371 0.0
C266 C 0.72647 0.63808 0.90121 0.0
C267 C 0.76886 0.65039 0.924 0.0
C268 C 0.74431 0.51913 0.95386 0.0
C269 C 0.79125 0.49139 0.94237 0.0
C270 C 0.70142 0.53182 0.9306 0.0
C271 C 0.70398 0.51638 0.89544 0.0
H272 H 0.74008 0.52984 0.9812 0.0
H273 H 0.66491 0.55168 0.94062 0.0
S274 S 0.81924 0.44583 0.85196 0.0
N275 N 0.83906 0.45139 0.89308 0.0
N276 N 0.75801 0.4745 0.84969 0.0
C277 C 0.75151 0.49026 0.88337 0.0
C278 C 0.79537 0.47802 0.90677 0.0
C279 C 0.32747 0.64052 0.92968 0.0
C280 C 0.28497 0.66943 0.91467 0.0
C281 C 0.37875 0.63271 0.91253 0.0
C282 C 0.38841 0.65274 0.87959 0.0
H283 H 0.32155 0.62503 0.95523 0.0
H284 H 0.41133 0.61176 0.92545 0.0
S285 S 0.28886 0.72799 0.82819 0.0
N286 N 0.25483 0.71621 0.86449 0.0
N287 N 0.35073 0.70087 0.83201 0.0
C288 C 0.34569 0.68062 0.864 0.0
C289 C 0.29393 0.68895 0.88154 0.0
C290 C 0.85509 0.97972 0.4373 0.0
C291 C 0.80539 0.99584 0.42145 0.0
C292 C 0.90566 0.98864 0.42229 0.0
C293 C 0.90829 1.01461 0.39126 0.0
H294 H 0.85492 0.95913 0.46102 0.0
H295 H 0.94303 0.97514 0.4351 0.0
S296 S 0.79027 1.06439 0.33934 0.0
N297 N 0.76198 1.03949 0.37321 0.0
N298 N 0.85729 1.0553 0.3446 0.0
C299 C 0.85905 1.03115 0.37522 0.0
C300 C 0.80752 1.02204 0.39045 0.0
C301 C 0.2511 0.16232 0.42846 0.0
C302 C 0.2401 0.19717 0.45404 0.0
C303 C 0.20965 0.14906 0.40638 0.0
C304 C 0.15576 0.17006 0.40924 0.0
H305 H 0.29238 0.14592 0.42491 0.0
H306 H 0.22033 0.12367 0.38607 0.0
S307 S 0.10479 0.2616 0.47257 0.0
N308 N 0.17078 0.25171 0.48107 0.0
N309 N 0.09291 0.22578 0.44051 0.0
C310 C 0.14387 0.20377 0.4354 0.0
C311 C 0.1859 0.21745 0.45768 0.0
C312 C 0.23674 1.03091 0.45781 0.0
C313 C 0.2856 1.00591 0.44612 0.0
C314 C 0.19407 1.04331 0.4343 0.0
C315 C 0.19885 1.03047 0.39858 0.0
H316 H 0.2307 1.03931 0.48551 0.0
H317 H 0.15597 1.0605 0.44451 0.0
S318 S 0.31923 0.96763 0.35441 0.0
N319 N 0.33724 0.97131 0.39605 0.0
N320 N 0.25678 0.9941 0.35218 0.0
C321 C 0.24832 1.00754 0.38631 0.0
C322 C 0.29187 0.99545 0.41001 0.0
C323 C 0.78038 0.17593 0.38388 0.0
C324 C 0.77194 0.15789 0.41765 0.0
C325 C 0.83235 0.17149 0.36778 0.0
C326 C 0.87737 0.14809 0.38459 0.0
H327 H 0.74689 0.19488 0.37026 0.0
H328 H 0.83746 0.18676 0.34205 0.0
S329 S 0.87682 0.09431 0.47296 0.0
N330 N 0.81253 0.11531 0.46724 0.0
N331 N 0.91073 0.10704 0.4368 0.0
C332 C 0.86948 0.12922 0.41808 0.0
C333 C 0.81655 0.1341 0.43467 0.0
loop_
_geom_bond_atom_site_label_1
_geom_bond_atom_site_label_2
_geom_bond_distance
_geom_bond_site_symmetry_2
_ccdc_geom_bond_type
C0 C1 1.264 . S
C0 C5 1.479 . S
C0 C10 1.465 1_656 S
C1 C0 1.264 . S
C1 C3 1.339 . S
C1 H28 0.931 . S
C2 C3 1.395 . S
C2 C4 1.320 . S
C3 C1 1.339 . S
C3 C2 1.395 . S
C3 H29 0.929 . S
C4 C2 1.320 . S
C4 C5 1.405 . S
C4 H30 0.930 . S
C5 C0 1.479 . S
C5 C4 1.405 . S
C5 H31 0.931 1_556 S
U6 O7 2.454 . S
U6 O8 2.458 . S
U6 C9 2.984 . S
U6 C10 2.847 . S
U6 C23 2.882 . S
U6 O24 2.441 . S
U6 O25 2.420 . S
U6 O26 2.455 . S
U6 O27 2.449 . S
O7 U6 2.454 . S
O7 C9 1.353 . S
O8 U6 2.458 . S
O8 C9 1.286 . S
C9 U6 2.984 . S
C9 O7 1.353 . S
C9 O8 1.286 . S
C9 C11 1.363 . S
C10 C0 1.465 1_454 S
C10 U6 2.847 . S
C10 O24 1.249 . S
C10 O25 1.202 . S
C11 C9 1.363 . S
C11 C13 1.408 . S
C11 C16 1.342 . S
C12 C13 1.310 . S
C12 C15 1.461 . S
C12 H32 0.932 . S
C13 C11 1.408 . S
C13 C12 1.310 . S
C13 H33 0.930 . S
C14 C15 1.474 . S
C14 C16 1.285 . S
C14 H34 0.929 . S
C15 C12 1.461 . S
C15 C14 1.474 . S
C16 C11 1.342 . S
C16 C14 1.285 . S
C16 H35 0.930 . S
C17 C20 1.424 . S
C17 C22 1.245 1_556 S
C17 C23 1.428 1_556 S
C18 C21 1.260 . S
C18 C22 1.477 1_556 S
C18 H36 0.932 . S
C19 C20 1.384 . S
C19 C21 1.479 . S
C19 H37 0.929 . S
C20 C17 1.424 . S
C20 C19 1.384 . S
C20 H38 0.928 . S
C21 C18 1.260 . S
C21 C19 1.479 . S
C22 C17 1.245 1_554 S
C22 C18 1.477 1_554 S
C22 H39 0.932 . S
C23 U6 2.882 . S
C23 C17 1.428 1_554 S
C23 O26 1.301 . S
C23 O27 1.282 . S
O24 U6 2.441 . S
O24 C10 1.249 . S
O25 U6 2.420 . S
O25 C10 1.202 . S
O26 U6 2.455 . S
O26 C23 1.301 . S
O27 U6 2.449 . S
O27 C23 1.282 . S
H28 C1 0.931 . S
H29 C3 0.929 . S
H30 C4 0.930 . S
H31 C5 0.931 1_554 S
H32 C12 0.932 . S
H33 C13 0.930 . S
H34 C14 0.929 . S
H35 C16 0.930 . S
H36 C18 0.932 . S
H37 C19 0.929 . S
H38 C20 0.928 . S
H39 C22 0.932 . S
C40 C41 1.264 . S
C40 C45 1.479 . S
C40 C50 1.465 . S
C41 C40 1.264 . S
C41 C43 1.339 . S
C41 H68 0.931 . S
C42 C43 1.395 . S
C42 C44 1.320 . S
C43 C41 1.339 . S
C43 C42 1.395 . S
C43 H69 0.929 . S
C44 C42 1.320 . S
C44 C45 1.405 . S
C44 H70 0.930 . S
C45 C40 1.479 . S
C45 C44 1.405 . S
C45 H71 0.931 1_556 S
U46 O47 2.454 . S
U46 O48 2.458 1_655 S
U46 C49 2.984 . S
U46 C50 2.847 1_554 S
U46 C63 2.882 1_654 S
U46 O64 2.441 . S
U46 O65 2.420 1_554 S
U46 O66 2.455 1_655 S
U46 O67 2.449 1_654 S
O47 U46 2.454 . S
O47 C49 1.353 . S
O48 U46 2.458 1_455 S
O48 C49 1.286 1_455 S
C49 U46 2.984 . S
C49 O47 1.353 . S
C49 O48 1.286 1_655 S
C49 C51 1.363 . S
C50 C40 1.465 . S
C50 U46 2.847 1_556 S
C50 O64 1.249 1_556 S
C50 O65 1.202 . S
C51 C49 1.363 . S
C51 C53 1.408 . S
C51 C56 1.342 1_655 S
C52 C53 1.310 . S
C52 C55 1.461 . S
C52 H72 0.932 . S
C53 C51 1.408 . S
C53 C52 1.310 . S
C53 H73 0.930 . S
C54 C55 1.474 1_455 S
C54 C56 1.285 . S
C54 H74 0.929 . S
C55 C52 1.461 . S
C55 C54 1.474 1_655 S
C56 C51 1.342 1_455 S
C56 C54 1.285 . S
C56 H75 0.930 . S
C57 C60 1.424 . S
C57 C62 1.245 . S
C57 C63 1.428 . S
C58 C61 1.260 . S
C58 C62 1.477 . S
C58 H76 0.932 . S
C59 C60 1.384 . S
C59 C61 1.479 . S
C59 H77 0.929 . S
C60 C57 1.424 . S
C60 C59 1.384 . S
C60 H78 0.928 . S
C61 C58 1.260 . S
C61 C59 1.479 . S
C62 C57 1.245 . S
C62 C58 1.477 . S
C62 H79 0.932 . S
C63 U46 2.882 1_456 S
C63 C57 1.428 . S
C63 O66 1.301 1_556 S
C63 O67 1.282 . S
O64 U46 2.441 . S
O64 C50 1.249 1_554 S
O65 U46 2.420 1_556 S
O65 C50 1.202 . S
O66 U46 2.455 1_455 S
O66 C63 1.301 1_554 S
O67 U46 2.449 1_456 S
O67 C63 1.282 . S
H68 C41 0.931 . S
H69 C43 0.929 . S
H70 C44 0.930 . S
H71 C45 0.931 1_554 S
H72 C52 0.932 . S
H73 C53 0.930 . S
H74 C54 0.929 . S
H75 C56 0.930 . S
H76 C58 0.932 . S
H77 C59 0.929 . S
H78 C60 0.928 . S
H79 C62 0.932 . S
C80 C81 1.264 . S
C80 C85 1.479 . S
C80 C90 1.465 . S
C81 C80 1.264 . S
C81 C83 1.339 . S
C81 H108 0.931 . S
C82 C83 1.395 . S
C82 C84 1.320 . S
C83 C81 1.339 . S
C83 C82 1.395 . S
C83 H109 0.929 . S
C84 C82 1.320 . S
C84 C85 1.405 . S
C84 H110 0.930 . S
C85 C80 1.479 . S
C85 C84 1.405 . S
C85 H111 0.931 . S
U86 O87 2.454 . S
U86 O88 2.458 . S
U86 C89 2.984 . S
U86 C90 2.847 . S
U86 C103 2.882 . S
U86 O104 2.441 . S
U86 O105 2.420 . S
U86 O106 2.455 . S
U86 O107 2.449 . S
O87 U86 2.454 . S
O87 C89 1.353 . S
O88 U86 2.458 . S
O88 C89 1.286 . S
C89 U86 2.984 . S
C89 O87 1.353 . S
C89 O88 1.286 . S
C89 C91 1.363 . S
C90 C80 1.465 . S
C90 U86 2.847 . S
C90 O104 1.249 . S
C90 O105 1.202 . S
C91 C89 1.363 . S
C91 C93 1.408 . S
C91 C96 1.342 . S
C92 C93 1.310 . S
C92 C95 1.461 . S
C92 H112 0.932 . S
C93 C91 1.408 . S
C93 C92 1.310 . S
C93 H113 0.930 . S
C94 C95 1.474 . S
C94 C96 1.285 . S
C94 H114 0.929 . S
C95 C92 1.461 . S
C95 C94 1.474 . S
C96 C91 1.342 . S
C96 C94 1.285 . S
C96 H115 0.930 . S
C97 C100 1.424 . S
C97 C102 1.245 . S
C97 C103 1.428 . S
C98 C101 1.260 . S
C98 C102 1.477 . S
C98 H116 0.932 . S
C99 C100 1.384 . S
C99 C101 1.479 . S
C99 H117 0.929 . S
C100 C97 1.424 . S
C100 C99 1.384 . S
C100 H118 0.928 . S
C101 C98 1.260 . S
C101 C99 1.479 . S
C102 C97 1.245 . S
C102 C98 1.477 . S
C102 H119 0.932 . S
C103 U86 2.882 . S
C103 C97 1.428 . S
C103 O106 1.301 . S
C103 O107 1.282 . S
O104 U86 2.441 . S
O104 C90 1.249 . S
O105 U86 2.420 . S
O105 C90 1.202 . S
O106 U86 2.455 . S
O106 C103 1.301 . S
O107 U86 2.449 . S
O107 C103 1.282 . S
H108 C81 0.931 . S
H109 C83 0.929 . S
H110 C84 0.930 . S
H111 C85 0.931 . S
H112 C92 0.932 . S
H113 C93 0.930 . S
H114 C94 0.929 . S
H115 C96 0.930 . S
H116 C98 0.932 . S
H117 C99 0.929 . S
H118 C100 0.928 . S
H119 C102 0.932 . S
C120 C121 1.264 . S
C120 C125 1.479 . S
C120 C130 1.465 . S
C121 C120 1.264 . S
C121 C123 1.339 . S
C121 H148 0.931 . S
C122 C123 1.395 . S
C122 C124 1.320 . S
C123 C121 1.339 . S
C123 C122 1.395 . S
C123 H149 0.929 . S
C124 C122 1.320 . S
C124 C125 1.405 . S
C124 H150 0.930 . S
C125 C120 1.479 . S
C125 C124 1.405 . S
C125 H151 0.931 . S
U126 O127 2.454 . S
U126 O128 2.458 . S
U126 C129 2.984 . S
U126 C130 2.847 . S
U126 C143 2.882 . S
U126 O144 2.441 . S
U126 O145 2.420 . S
U126 O146 2.455 . S
U126 O147 2.449 . S
O127 U126 2.454 . S
O127 C129 1.353 . S
O128 U126 2.458 . S
O128 C129 1.286 . S
C129 U126 2.984 . S
C129 O127 1.353 . S
C129 O128 1.286 . S
C129 C131 1.363 . S
C130 C120 1.465 . S
C130 U126 2.847 . S
C130 O144 1.249 . S
C130 O145 1.202 . S
C131 C129 1.363 . S
C131 C133 1.408 . S
C131 C136 1.342 . S
C132 C133 1.310 . S
C132 C135 1.461 . S
C132 H152 0.932 . S
C133 C131 1.408 . S
C133 C132 1.310 . S
C133 H153 0.930 . S
C134 C135 1.474 . S
C134 C136 1.285 . S
C134 H154 0.929 . S
C135 C132 1.461 . S
C135 C134 1.474 . S
C136 C131 1.342 . S
C136 C134 1.285 . S
C136 H155 0.930 . S
C137 C140 1.424 . S
C137 C142 1.245 . S
C137 C143 1.428 . S
C138 C141 1.260 . S
C138 C142 1.477 . S
C138 H156 0.932 . S
C139 C140 1.384 . S
C139 C141 1.479 . S
C139 H157 0.929 . S
C140 C137 1.424 . S
C140 C139 1.384 . S
C140 H158 0.928 . S
C141 C138 1.260 . S
C141 C139 1.479 . S
C142 C137 1.245 . S
C142 C138 1.477 . S
C142 H159 0.932 . S
C143 U126 2.882 . S
C143 C137 1.428 . S
C143 O146 1.301 . S
C143 O147 1.282 . S
O144 U126 2.441 . S
O144 C130 1.249 . S
O145 U126 2.420 . S
O145 C130 1.202 . S
O146 U126 2.455 . S
O146 C143 1.301 . S
O147 U126 2.449 . S
O147 C143 1.282 . S
H148 C121 0.931 . S
H149 C123 0.929 . S
H150 C124 0.930 . S
H151 C125 0.931 . S
H152 C132 0.932 . S
H153 C133 0.930 . S
H154 C134 0.929 . S
H155 C136 0.930 . S
H156 C138 0.932 . S
H157 C139 0.929 . S
H158 C140 0.928 . S
H159 C142 0.932 . S
Zn160 O166 1.920 . S
Zn160 O172 1.898 . S
Zn160 O175 1.905 1_455 S
Zn161 O169 1.905 . S
Zn161 O170 1.898 . S
Zn161 O178 1.920 . S
Zn162 O165 2.080 . S
Zn162 O168 2.114 1_545 S
Zn162 O171 2.120 1_545 S
Zn162 O173 2.120 . S
Zn162 O174 2.114 1_455 S
Zn162 O177 2.080 1_545 S
C163 O168 1.166 . S
C163 O169 1.182 . S
C164 O170 1.167 . S
C164 O171 1.299 . S
O165 Zn162 2.080 . S
O165 C179 1.305 . S
O166 Zn160 1.920 . S
O166 C179 1.234 . S
C167 O172 1.167 . S
C167 O173 1.299 . S
O168 Zn162 2.114 1_565 S
O168 C163 1.166 . S
O169 Zn161 1.905 . S
O169 C163 1.182 . S
O170 Zn161 1.898 . S
O170 C164 1.167 . S
O171 Zn162 2.120 1_565 S
O171 C164 1.299 . S
O172 Zn160 1.898 . S
O172 C167 1.167 . S
O173 Zn162 2.120 . S
O173 C167 1.299 . S
O174 Zn162 2.114 1_655 S
O174 C176 1.166 . S
O175 Zn160 1.905 1_655 S
O175 C176 1.182 . S
C176 O174 1.166 . S
C176 O175 1.182 . S
O177 Zn162 2.080 1_565 S
O177 C180 1.305 . S
O178 Zn161 1.920 . S
O178 C180 1.234 . S
C179 O165 1.305 . S
C179 O166 1.234 . S
C180 O177 1.305 . S
C180 O178 1.234 . S
Zn181 O187 1.920 . S
Zn181 O193 1.898 . S
Zn181 O196 1.905 . S
Zn182 O190 1.905 . S
Zn182 O191 1.898 . S
Zn182 O199 1.920 . S
Zn183 O186 2.080 . S
Zn183 O189 2.114 . S
Zn183 O192 2.120 . S
Zn183 O194 2.120 . S
Zn183 O195 2.114 . S
Zn183 O198 2.080 . S
C184 O189 1.166 . S
C184 O190 1.182 . S
C185 O191 1.167 . S
C185 O192 1.299 . S
O186 Zn183 2.080 . S
O186 C200 1.305 . S
O187 Zn181 1.920 . S
O187 C200 1.234 . S
C188 O193 1.167 . S
C188 O194 1.299 . S
O189 Zn183 2.114 . S
O189 C184 1.166 . S
O190 Zn182 1.905 . S
O190 C184 1.182 . S
O191 Zn182 1.898 . S
O191 C185 1.167 . S
O192 Zn183 2.120 . S
O192 C185 1.299 . S
O193 Zn181 1.898 . S
O193 C188 1.167 . S
O194 Zn183 2.120 . S
O194 C188 1.299 . S
O195 Zn183 2.114 . S
O195 C197 1.166 . S
O196 Zn181 1.905 . S
O196 C197 1.182 . S
C197 O195 1.166 . S
C197 O196 1.182 . S
O198 Zn183 2.080 . S
O198 C201 1.305 . S
O199 Zn182 1.920 . S
O199 C201 1.234 . S
C200 O186 1.305 . S
C200 O187 1.234 . S
C201 O198 1.305 . S
C201 O199 1.234 . S
C202 C203 1.369 . S
C202 C204 1.419 . S
C202 H206 0.930 . S
C203 C202 1.369 . S
C203 C212 1.429 . S
C204 C202 1.419 . S
C204 C205 1.363 . S
C204 H207 0.929 . S
C205 C204 1.363 . S
C205 C211 1.428 . S
H206 C202 0.930 . S
H207 C204 0.929 . S
S208 N209 1.613 1_565 S
S208 N210 1.610 1_565 S
N209 S208 1.613 1_545 S
N209 C212 1.350 . S
N210 S208 1.610 1_545 S
N210 C211 1.351 . S
C211 C205 1.428 . S
C211 N210 1.351 . S
C211 C212 1.434 . S
C212 C203 1.429 . S
C212 N209 1.350 . S
C212 C211 1.434 . S
C213 C214 1.369 . S
C213 C215 1.419 . S
C213 H217 0.930 . S
C214 C213 1.369 . S
C214 C223 1.429 1_455 S
C215 C213 1.419 . S
C215 C216 1.363 . S
C215 H218 0.929 . S
C216 C215 1.363 . S
C216 C222 1.428 . S
H217 C213 0.930 . S
H218 C215 0.929 . S
S219 N220 1.613 . S
S219 N221 1.610 . S
N220 S219 1.613 . S
N220 C223 1.350 . S
N221 S219 1.610 . S
N221 C222 1.351 1_655 S
C222 C216 1.428 . S
C222 N221 1.351 1_455 S
C222 C223 1.434 1_455 S
C223 C214 1.429 1_655 S
C223 N220 1.350 . S
C223 C222 1.434 1_655 S
C224 C225 1.369 . S
C224 C226 1.419 . S
C224 H228 0.930 . S
C225 C224 1.369 . S
C225 C234 1.429 . S
C226 C224 1.419 . S
C226 C227 1.363 . S
C226 H229 0.929 . S
C227 C226 1.363 . S
C227 C233 1.428 . S
H228 C224 0.930 . S
H229 C226 0.929 . S
S230 N231 1.613 . S
S230 N232 1.610 . S
N231 S230 1.613 . S
N231 C234 1.350 . S
N232 S230 1.610 . S
N232 C233 1.351 . S
C233 C227 1.428 . S
C233 N232 1.351 . S
C233 C234 1.434 . S
C234 C225 1.429 . S
C234 N231 1.350 . S
C234 C233 1.434 . S
C235 C236 1.369 . S
C235 C237 1.419 . S
C235 H239 0.930 . S
C236 C235 1.369 . S
C236 C245 1.429 . S
C237 C235 1.419 . S
C237 C238 1.363 . S
C237 H240 0.929 . S
C238 C237 1.363 . S
C238 C244 1.428 . S
H239 C235 0.930 . S
H240 C237 0.929 . S
S241 N242 1.613 . S
S241 N243 1.610 . S
N242 S241 1.613 . S
N242 C245 1.350 . S
N243 S241 1.610 . S
N243 C244 1.351 . S
C244 C238 1.428 . S
C244 N243 1.351 . S
C244 C245 1.434 . S
C245 C236 1.429 . S
C245 N242 1.350 . S
C245 C244 1.434 . S
C246 C247 1.369 . S
C246 C248 1.419 . S
C246 H250 0.930 . S
C247 C246 1.369 . S
C247 C256 1.429 . S
C248 C246 1.419 . S
C248 C249 1.363 . S
C248 H251 0.929 . S
C249 C248 1.363 . S
C249 C255 1.428 . S
H250 C246 0.930 . S
H251 C248 0.929 . S
S252 N253 1.613 . S
S252 N254 1.610 . S
N253 S252 1.613 . S
N253 C256 1.350 . S
N254 S252 1.610 . S
N254 C255 1.351 . S
C255 C249 1.428 . S
C255 N254 1.351 . S
C255 C256 1.434 . S
C256 C247 1.429 . S
C256 N253 1.350 . S
C256 C255 1.434 . S
C257 C258 1.369 . S
C257 C259 1.419 . S
C257 H261 0.930 . S
C258 C257 1.369 . S
C258 C267 1.429 . S
C259 C257 1.419 . S
C259 C260 1.363 . S
C259 H262 0.929 . S
C260 C259 1.363 . S
C260 C266 1.428 . S
H261 C257 0.930 . S
H262 C259 0.929 . S
S263 N264 1.613 . S
S263 N265 1.610 . S
N264 S263 1.613 . S
N264 C267 1.350 . S
N265 S263 1.610 . S
N265 C266 1.351 . S
C266 C260 1.428 . S
C266 N265 1.351 . S
C266 C267 1.434 . S
C267 C258 1.429 . S
C267 N264 1.350 . S
C267 C266 1.434 . S
C268 C269 1.369 . S
C268 C270 1.419 . S
C268 H272 0.930 . S
C269 C268 1.369 . S
C269 C278 1.429 . S
C270 C268 1.419 . S
C270 C271 1.363 . S
C270 H273 0.929 . S
C271 C270 1.363 . S
C271 C277 1.428 . S
H272 C268 0.930 . S
H273 C270 0.929 . S
S274 N275 1.613 . S
S274 N276 1.610 . S
N275 S274 1.613 . S
N275 C278 1.350 . S
N276 S274 1.610 . S
N276 C277 1.351 . S
C277 C271 1.428 . S
C277 N276 1.351 . S
C277 C278 1.434 . S
C278 C269 1.429 . S
C278 N275 1.350 . S
C278 C277 1.434 . S
C279 C280 1.369 . S
C279 C281 1.419 . S
C279 H283 0.930 . S
C280 C279 1.369 . S
C280 C289 1.429 . S
C281 C279 1.419 . S
C281 C282 1.363 . S
C281 H284 0.929 . S
C282 C281 1.363 . S
C282 C288 1.428 . S
H283 C279 0.930 . S
H284 C281 0.929 . S
S285 N286 1.613 . S
S285 N287 1.610 . S
N286 S285 1.613 . S
N286 C289 1.350 . S
N287 S285 1.610 . S
N287 C288 1.351 . S
C288 C282 1.428 . S
C288 N287 1.351 . S
C288 C289 1.434 . S
C289 C280 1.429 . S
C289 N286 1.350 . S
C289 C288 1.434 . S
C290 C291 1.369 . S
C290 C292 1.419 . S
C290 H294 0.930 . S
C291 C290 1.369 . S
C291 C300 1.429 . S
C292 C290 1.419 . S
C292 C293 1.363 . S
C292 H295 0.929 1_655 S
C293 C292 1.363 . S
C293 C299 1.428 . S
H294 C290 0.930 . S
H295 C292 0.929 1_455 S
S296 N297 1.613 . S
S296 N298 1.610 . S
N297 S296 1.613 . S
N297 C300 1.350 . S
N298 S296 1.610 . S
N298 C299 1.351 . S
C299 C293 1.428 . S
C299 N298 1.351 . S
C299 C300 1.434 . S
C300 C291 1.429 . S
C300 N297 1.350 . S
C300 C299 1.434 . S
C301 C302 1.369 . S
C301 C303 1.419 . S
C301 H305 0.930 . S
C302 C301 1.369 . S
C302 C311 1.429 . S
C303 C301 1.419 . S
C303 C304 1.363 . S
C303 H306 0.929 . S
C304 C303 1.363 . S
C304 C310 1.428 . S
H305 C301 0.930 . S
H306 C303 0.929 . S
S307 N308 1.613 . S
S307 N309 1.610 . S
N308 S307 1.613 . S
N308 C311 1.350 . S
N309 S307 1.610 . S
N309 C310 1.351 . S
C310 C304 1.428 . S
C310 N309 1.351 . S
C310 C311 1.434 . S
C311 C302 1.429 . S
C311 N308 1.350 . S
C311 C310 1.434 . S
C312 C313 1.369 . S
C312 C314 1.419 . S
C312 H316 0.930 . S
C313 C312 1.369 . S
C313 C322 1.429 . S
C314 C312 1.419 . S
C314 C315 1.363 . S
C314 H317 0.929 . S
C315 C314 1.363 . S
C315 C321 1.428 . S
H316 C312 0.930 . S
H317 C314 0.929 . S
S318 N319 1.613 . S
S318 N320 1.610 . S
N319 S318 1.613 . S
N319 C322 1.350 . S
N320 S318 1.610 . S
N320 C321 1.351 . S
C321 C315 1.428 . S
C321 N320 1.351 . S
C321 C322 1.434 . S
C322 C313 1.429 . S
C322 N319 1.350 . S
C322 C321 1.434 . S
C323 C324 1.369 . S
C323 C325 1.419 . S
C323 H327 0.930 . S
C324 C323 1.369 . S
C324 C333 1.429 . S
C325 C323 1.419 . S
C325 C326 1.363 . S
C325 H328 0.929 . S
C326 C325 1.363 . S
C326 C332 1.428 . S
H327 C323 0.930 . S
H328 C325 0.929 . S
S329 N330 1.613 . S
S329 N331 1.610 . S
N330 S329 1.613 . S
N330 C333 1.350 . S
N331 S329 1.610 . S
N331 C332 1.351 . S
C332 C326 1.428 . S
C332 N331 1.351 . S
C332 C333 1.434 . S
C333 C324 1.429 . S
C333 N330 1.350 . S
C333 C332 1.434 . S
C205 C167 1.554 . S
C203 C15 1.581 . S
C216 C163 1.539 . S
C214 C55 1.575 1_455 S
C227 C188 1.548 . S
C225 C95 1.578 . S
C236 C135 1.575 . S
C238 C184 1.543 . S
C247 C21 1.326 . S
C249 C185 1.149 . S
C260 C200 1.171 . S
C258 C42 1.427 . S
C269 C2 1.677 . S
C271 C201 1.534 . S
C282 C197 1.556 . S
C280 C61 1.732 . S
C293 C164 1.156 1_655 S
C291 C101 1.319 . S
C302 C122 1.433 . S
C304 C179 1.160 . S
C315 C180 1.532 . S
C313 C82 1.678 . S
C326 C176 1.561 . S
C324 C141 1.733 . S
