# Generated by pormake.
# Topology apo, (3,6)-cn, num edge types: 1
# Building blocks:
#     Node 0, Type 0, BuildingBlock: OLANEW_clean_sbu_2, # of connection points: 3
#     Node 1, Type 0, BuildingBlock: OLANEW_clean_sbu_2, # of connection points: 3
#     Node 2, Type 0, BuildingBlock: OLANEW_clean_sbu_2, # of connection points: 3
#     Node 3, Type 0, BuildingBlock: OLANEW_clean_sbu_2, # of connection points: 3
#     Node 4, Type 0, BuildingBlock: OLANEW_clean_sbu_2, # of connection points: 3
#     Node 5, Type 0, BuildingBlock: OLANEW_clean_sbu_2, # of connection points: 3
#     Node 6, Type 0, BuildingBlock: OLANEW_clean_sbu_2, # of connection points: 3
#     Node 7, Type 0, BuildingBlock: OLANEW_clean_sbu_2, # of connection points: 3
#     Node 8, Type 1, BuildingBlock: KUMBOL_clean_sbu_1, # of connection points: 6
#     Node 9, Type 1, BuildingBlock: KUMBOL_clean_sbu_1, # of connection points: 6
#     Node 10, Type 1, BuildingBlock: KUMBOL_clean_sbu_1, # of connection points: 6
#     Node 11, Type 1, BuildingBlock: KUMBOL_clean_sbu_1, # of connection points: 6
#     Edge 12, Type (0, 1), BuildingBlock: EZIPEK_clean_linker_0, # of connection points: 2
#     Edge 13, Type (0, 1), BuildingBlock: EZIPEK_clean_linker_0, # of connection points: 2
#     Edge 14, Type (0, 1), BuildingBlock: EZIPEK_clean_linker_0, # of connection points: 2
#     Edge 15, Type (0, 1), BuildingBlock: EZIPEK_clean_linker_0, # of connection points: 2
#     Edge 16, Type (0, 1), BuildingBlock: EZIPEK_clean_linker_0, # of connection points: 2
#     Edge 17, Type (0, 1), BuildingBlock: EZIPEK_clean_linker_0, # of connection points: 2
#     Edge 18, Type (0, 1), BuildingBlock: EZIPEK_clean_linker_0, # of connection points: 2
#     Edge 19, Type (0, 1), BuildingBlock: EZIPEK_clean_linker_0, # of connection points: 2
#     Edge 20, Type (0, 1), BuildingBlock: EZIPEK_clean_linker_0, # of connection points: 2
#     Edge 21, Type (0, 1), BuildingBlock: EZIPEK_clean_linker_0, # of connection points: 2
#     Edge 22, Type (0, 1), BuildingBlock: EZIPEK_clean_linker_0, # of connection points: 2
#     Edge 23, Type (0, 1), BuildingBlock: EZIPEK_clean_linker_0, # of connection points: 2
#     Edge 24, Type (0, 1), BuildingBlock: EZIPEK_clean_linker_0, # of connection points: 2
#     Edge 25, Type (0, 1), BuildingBlock: EZIPEK_clean_linker_0, # of connection points: 2
#     Edge 26, Type (0, 1), BuildingBlock: EZIPEK_clean_linker_0, # of connection points: 2
#     Edge 27, Type (0, 1), BuildingBlock: EZIPEK_clean_linker_0, # of connection points: 2
#     Edge 28, Type (0, 1), BuildingBlock: EZIPEK_clean_linker_0, # of connection points: 2
#     Edge 29, Type (0, 1), BuildingBlock: EZIPEK_clean_linker_0, # of connection points: 2
#     Edge 30, Type (0, 1), BuildingBlock: EZIPEK_clean_linker_0, # of connection points: 2
#     Edge 31, Type (0, 1), BuildingBlock: EZIPEK_clean_linker_0, # of connection points: 2
#     Edge 32, Type (0, 1), BuildingBlock: EZIPEK_clean_linker_0, # of connection points: 2
#     Edge 33, Type (0, 1), BuildingBlock: EZIPEK_clean_linker_0, # of connection points: 2
#     Edge 34, Type (0, 1), BuildingBlock: EZIPEK_clean_linker_0, # of connection points: 2
#     Edge 35, Type (0, 1), BuildingBlock: EZIPEK_clean_linker_0, # of connection points: 2
# Relax obj value: 0.031
# Max RMSD: 0.243
# Mean RMSD: 0.144
data_MOF--net-apo--node1-OLANEW_clean_sbu_2--node2-KUMBOL_clean_sbu_1--edge1-EZIPEK_clean_linker_0
_symmetry_space_group_name_H-M    P1
_symmetry_Int_Tables_number       1
_symmetry_cell_setting            triclinic
loop_
_symmetry_equiv_pos_as_xyz
'x, y, z'
_cell_length_a     21.854055
_cell_length_b     32.933171
_cell_length_c     44.070291
_cell_angle_alpha  88.438156
_cell_angle_beta   89.962994
_cell_angle_gamma 90.273278
loop_
_atom_site_label
_atom_site_type_symbol
_atom_site_fract_x
_atom_site_fract_y
_atom_site_fract_z
_atom_type_partial_charge
O0 O 0.32663 0.40593 0.34197 0.0
Cd1 Cd 0.29944 0.34594 0.37347 0.0
O2 O 0.38721 0.43163 0.37684 0.0
Cd3 Cd 0.36966 0.38971 0.4151 0.0
O4 O 0.37356 0.38968 0.46467 0.0
C5 C 0.42485 0.38735 0.47818 0.0
O6 O 0.47465 0.38043 0.46247 0.0
C7 C 0.36402 0.43312 0.35041 0.0
C8 C 0.22893 0.28862 0.34304 0.0
O9 O 0.20368 0.31598 0.3589 0.0
O10 O 0.28746 0.28848 0.34121 0.0
O11 O 0.28535 0.14411 0.94644 0.0
Cd12 Cd 0.31636 0.13725 0.89285 0.0
O13 O 0.27039 0.07783 0.95047 0.0
Cd14 Cd 0.28699 0.06404 0.90306 0.0
O15 O 0.25769 0.03292 0.86246 0.0
C16 C 0.20001 0.03115 0.85917 0.0
O17 O 0.16466 0.04965 0.87849 0.0
C18 C 0.2704 0.11262 0.96225 0.0
C19 C 0.36476 0.20486 0.86102 0.0
O20 O 0.39943 0.18109 0.87674 0.0
O21 O 0.30707 0.19759 0.86105 0.0
O22 O 0.75511 0.07495 0.67481 0.0
Cd23 Cd 0.66726 0.11613 0.65756 0.0
O24 O 0.77715 0.06908 0.62668 0.0
Cd25 Cd 0.82019 0.05217 0.58371 0.0
O26 O 0.82399 0.05861 0.53375 0.0
C27 C 0.84477 0.09125 0.52141 0.0
O28 O 0.86737 0.11956 0.53866 0.0
C29 C 0.78817 0.0596 0.65434 0.0
C30 C 0.64326 0.19153 0.68259 0.0
O31 O 0.6216 0.15879 0.6949 0.0
O32 O 0.6786 0.1886 0.65953 0.0
O33 O 0.75172 0.33398 0.05177 0.0
Cd34 Cd 0.74533 0.3381 0.10729 0.0
O35 O 0.78029 0.39813 0.0464 0.0
Cd36 Cd 0.77108 0.4128 0.09414 0.0
O37 O 0.7344 0.44644 0.132 0.0
C38 C 0.70667 0.4792 0.12495 0.0
O39 O 0.70355 0.49107 0.0963 0.0
C40 C 0.76781 0.36412 0.03485 0.0
C41 C 0.81757 0.28296 0.14049 0.0
O42 O 0.83915 0.31742 0.13131 0.0
O43 O 0.76229 0.27403 0.13349 0.0
O44 O 0.74745 0.58355 0.65281 0.0
Cd45 Cd 0.79799 0.63278 0.61775 0.0
O46 O 0.68992 0.55445 0.6183 0.0
Cd47 Cd 0.72341 0.58828 0.57849 0.0
O48 O 0.72765 0.58892 0.52906 0.0
C49 C 0.70476 0.55755 0.51718 0.0
O50 O 0.68109 0.5288 0.53487 0.0
C51 C 0.70723 0.55736 0.64566 0.0
C52 C 0.85239 0.69836 0.64697 0.0
O53 O 0.79812 0.70131 0.63618 0.0
O54 O 0.88082 0.66474 0.64423 0.0
O55 O 0.8389 0.91062 0.1558 0.0
Cd56 Cd 0.76595 0.86903 0.12677 0.0
O57 O 0.82457 0.96317 0.12463 0.0
Cd58 Cd 0.77873 0.93113 0.08812 0.0
O59 O 0.76707 0.92032 0.03954 0.0
C60 C 0.80612 0.93712 0.02176 0.0
O61 O 0.85038 0.95907 0.0332 0.0
C62 C 0.84827 0.94793 0.14871 0.0
C63 C 0.69321 0.81177 0.15885 0.0
O64 O 0.74407 0.80149 0.14685 0.0
O65 O 0.67711 0.84909 0.15654 0.0
O66 O 0.16795 0.88862 0.33672 0.0
Cd67 Cd 0.19999 0.82936 0.36736 0.0
O68 O 0.2297 0.92988 0.3608 0.0
Cd69 Cd 0.25155 0.88469 0.3962 0.0
O70 O 0.23395 0.85806 0.44134 0.0
C71 C 0.19728 0.87789 0.45767 0.0
O72 O 0.17353 0.91179 0.44669 0.0
C73 C 0.19076 0.92382 0.33995 0.0
C74 C 0.28957 0.7836 0.33955 0.0
O75 O 0.23269 0.77592 0.3355 0.0
O76 O 0.30451 0.81311 0.35644 0.0
O77 O 0.27931 0.5757 0.84749 0.0
Cd78 Cd 0.19946 0.61862 0.8693 0.0
O79 O 0.30417 0.54983 0.8925 0.0
Cd80 Cd 0.2504 0.59187 0.91888 0.0
O81 O 0.25134 0.62917 0.95903 0.0
C82 C 0.30016 0.62539 0.97447 0.0
O83 O 0.34348 0.60139 0.96483 0.0
C84 C 0.31035 0.55083 0.86383 0.0
C85 C 0.15963 0.68566 0.83442 0.0
O86 O 0.20297 0.68925 0.85376 0.0
O87 O 0.13629 0.65035 0.83077 0.0
C88 C 0.83968 0.06439 0.26946 0.0
C89 C 0.8455 0.00794 0.3057 0.0
C90 C 0.87068 0.0437 0.29236 0.0
C91 C 0.78984 0.99263 0.29479 0.0
C92 C 0.78285 0.04989 0.25904 0.0
C93 C 0.75863 0.01353 0.27146 0.0
N94 N 0.8639 0.09971 0.25826 0.0
C95 C 0.83146 0.12365 0.23836 0.0
C96 C 0.7513 0.073 0.23705 0.0
C97 C 0.77538 0.11033 0.22696 0.0
Gd98 Gd 0.10085 0.13066 0.21563 0.0
Gd99 Gd 0.95897 0.11974 0.27782 0.0
N100 N 0.92426 0.05939 0.3024 0.0
C101 C 0.87635 0.98912 0.33003 0.0
C102 C 0.95254 0.04243 0.32731 0.0
C103 C 0.92975 0.00675 0.34111 0.0
H104 H 0.99257 0.0566 0.33678 0.0
H105 H 0.95298 0.99318 0.36053 0.0
H106 H 0.06647 0.22358 0.18956 0.0
H107 H 0.84881 0.15306 0.23131 0.0
H108 H 0.10577 0.29393 0.1939 0.0
H109 H 0.8585 0.96164 0.34091 0.0
H110 H 0.77006 0.96502 0.30457 0.0
H111 H 0.21627 0.06836 0.23994 0.0
H112 H 0.70756 0.06288 0.22841 0.0
H113 H 0.75048 0.12906 0.21067 0.0
H114 H 0.29081 0.27821 0.25174 0.0
H115 H 0.71523 0.00175 0.26361 0.0
H116 H 0.35793 0.14292 0.27571 0.0
H117 H 0.31577 0.07494 0.26523 0.0
N118 N 0.19866 0.13215 0.23839 0.0
C119 C 0.22307 0.16983 0.24205 0.0
C120 C 0.23252 0.09831 0.24539 0.0
C121 C 0.31354 0.1403 0.26499 0.0
C122 C 0.28976 0.10187 0.25925 0.0
C123 C 0.28069 0.1749 0.25593 0.0
H124 H 0.34781 0.21865 0.27096 0.0
N125 N 0.13665 0.19773 0.21705 0.0
C126 C 0.1914 0.20352 0.23092 0.0
C127 C 0.18372 0.27583 0.22093 0.0
C128 C 0.21581 0.24292 0.2338 0.0
C129 C 0.10762 0.22917 0.20239 0.0
C130 C 0.12995 0.26883 0.20468 0.0
O131 O 0.94796 0.08738 0.23339 0.0
O132 O 0.04478 0.0727 0.21404 0.0
O133 O 0.09345 0.14216 0.16685 0.0
O134 O 0.17348 0.11274 0.18524 0.0
O135 O 0.03507 0.07516 0.28604 0.0
O136 O 0.10999 0.07577 0.24784 0.0
O137 O 0.07794 0.17736 0.25029 0.0
O138 O 0.05201 0.1412 0.29274 0.0
O139 O 0.95248 0.13257 0.32568 0.0
O140 O 0.89452 0.16483 0.2938 0.0
O141 O 0.00678 0.15088 0.20069 0.0
O142 O 0.96235 0.17384 0.24472 0.0
C143 C 0.98549 0.06557 0.21704 0.0
C144 C 0.08531 0.06139 0.27346 0.0
C145 C 0.14689 0.09796 0.13501 0.0
C146 C 0.17518 0.08609 0.0825 0.0
C147 C 0.12919 0.03193 0.11347 0.0
C148 C 0.1262 0.05767 0.13811 0.0
C149 C 0.15372 0.04597 0.0858 0.0
C150 C 0.17125 0.11213 0.10714 0.0
C151 C 0.14548 0.12525 0.1608 0.0
C152 C 0.27169 0.24813 0.24893 0.0
C153 C 0.30411 0.2142 0.2599 0.0
H154 H 0.20088 0.30659 0.22273 0.0
C155 C 0.08403 0.17 0.27938 0.0
C156 C 0.9669 0.17348 0.21483 0.0
C157 C 0.85231 0.14444 0.34196 0.0
C158 C 0.81369 0.12367 0.3921 0.0
C159 C 0.74571 0.12463 0.34855 0.0
C160 C 0.79374 0.13791 0.32977 0.0
C161 C 0.75553 0.11747 0.37955 0.0
C162 C 0.86183 0.1374 0.37327 0.0
C163 C 0.90492 0.15561 0.32228 0.0
H164 H 0.11291 1.00092 0.11591 0.0
H165 H 0.10802 0.04616 0.15955 0.0
H166 H 0.15628 0.02554 0.06699 0.0
H167 H 0.18793 0.14312 0.1047 0.0
H168 H 0.7008 0.11956 0.33898 0.0
H169 H 0.78511 0.14253 0.30573 0.0
H170 H 0.71789 0.10697 0.39377 0.0
H171 H 0.90686 0.14197 0.38296 0.0
C172 C 0.70655 0.46528 0.78635 0.0
C173 C 0.6802 0.52058 0.81877 0.0
C174 C 0.66817 0.48154 0.80766 0.0
C175 C 0.72809 0.54411 0.8061 0.0
C176 C 0.75716 0.48766 0.77496 0.0
C177 C 0.76643 0.52769 0.78414 0.0
N178 N 0.69705 0.42632 0.77851 0.0
C179 C 0.73993 0.40643 0.76205 0.0
C180 C 0.79835 0.46847 0.75574 0.0
C181 C 0.7904 0.42735 0.74981 0.0
Gd182 Gd 0.45546 0.41452 0.73974 0.0
Gd183 Gd 0.60717 0.39419 0.79642 0.0
N184 N 0.62234 0.45789 0.81936 0.0
C185 C 0.64576 0.53394 0.84326 0.0
C186 C 0.59398 0.46897 0.84556 0.0
C187 C 0.60371 0.50752 0.85729 0.0
H188 H 0.5634 0.44828 0.85759 0.0
H189 H 0.57922 0.51662 0.87732 0.0
H190 H 0.4091 0.32231 0.71803 0.0
H191 H 0.73492 0.3744 0.75844 0.0
H192 H 0.32095 0.27594 0.72609 0.0
H193 H 0.65358 0.56367 0.85251 0.0
H194 H 0.73734 0.5744 0.81399 0.0
H195 H 0.40494 0.50714 0.75645 0.0
H196 H 0.8378 0.48459 0.7465 0.0
H197 H 0.82338 0.41166 0.7361 0.0
H198 H 0.17998 0.35372 0.78435 0.0
H199 H 0.80456 0.54558 0.77535 0.0
H200 H 0.22811 0.49425 0.79781 0.0
H201 H 0.31473 0.53783 0.78076 0.0
N202 N 0.37036 0.44686 0.76086 0.0
C203 C 0.32134 0.42294 0.76786 0.0
C204 C 0.36743 0.48791 0.76409 0.0
C205 C 0.26752 0.48067 0.78722 0.0
C206 C 0.31633 0.50537 0.77762 0.0
C207 C 0.26897 0.43902 0.78176 0.0
H208 H 0.17861 0.42507 0.79962 0.0
N209 N 0.37164 0.36932 0.74406 0.0
C210 C 0.32179 0.38297 0.75898 0.0
C211 C 0.27086 0.31843 0.7528 0.0
C212 C 0.27035 0.35772 0.76417 0.0
C213 C 0.37034 0.33222 0.73084 0.0
C214 C 0.32068 0.30589 0.7356 0.0
O215 O 0.6193 0.42032 0.74835 0.0
O216 O 0.53341 0.45898 0.74423 0.0
O217 O 0.47762 0.41501 0.69072 0.0
O218 O 0.39658 0.44567 0.70791 0.0
O219 O 0.51702 0.41768 0.81471 0.0
O220 O 0.48732 0.45783 0.77495 0.0
O221 O 0.44762 0.3596 0.7715 0.0
O222 O 0.53077 0.34913 0.8043 0.0
O223 O 0.629 0.37763 0.84306 0.0
O224 O 0.67673 0.34853 0.80716 0.0
O225 O 0.51745 0.36362 0.7254 0.0
O226 O 0.60085 0.35009 0.75769 0.0
C227 C 0.58879 0.45019 0.73516 0.0
C228 C 0.48408 0.44796 0.80389 0.0
C229 C 0.41173 0.45217 0.65406 0.0
C230 C 0.40685 0.44585 0.59915 0.0
C231 C 0.35559 0.50169 0.62319 0.0
C232 C 0.37561 0.48735 0.6515 0.0
C233 C 0.37094 0.48102 0.59713 0.0
C234 C 0.42789 0.43159 0.62768 0.0
C235 C 0.42918 0.43662 0.68449 0.0
C236 C 0.21962 0.37282 0.77978 0.0
C237 C 0.2189 0.41342 0.78853 0.0
H238 H 0.23235 0.29803 0.75641 0.0
C239 C 0.47631 0.33996 0.79365 0.0
C240 C 0.56754 0.34345 0.73304 0.0
C241 C 0.72981 0.35841 0.85383 0.0
C242 C 0.77869 0.36228 0.90346 0.0
C243 C 0.83805 0.37467 0.85752 0.0
C244 C 0.78602 0.36803 0.83985 0.0
C245 C 0.83446 0.37204 0.88919 0.0
C246 C 0.72674 0.35505 0.88566 0.0
C247 C 0.67301 0.35338 0.83623 0.0
H248 H 0.32773 0.52874 0.62147 0.0
H249 H 0.36257 0.50376 0.67146 0.0
H250 H 0.35461 0.49236 0.5753 0.0
H251 H 0.45534 0.40429 0.6293 0.0
H252 H 0.88116 0.3823 0.84664 0.0
H253 H 0.78979 0.37074 0.81541 0.0
H254 H 0.87494 0.37792 0.90258 0.0
H255 H 0.6835 0.34782 0.89669 0.0
C256 C 0.80045 0.89137 0.74453 0.0
C257 C 0.7615 0.82229 0.74907 0.0
C258 C 0.8086 0.85096 0.75331 0.0
C259 C 0.70704 0.83449 0.73468 0.0
C260 C 0.74419 0.9042 0.73196 0.0
C261 C 0.69838 0.87537 0.72616 0.0
N262 N 0.84526 0.91863 0.75088 0.0
C263 C 0.83337 0.95937 0.74904 0.0
C264 C 0.73444 0.94582 0.72703 0.0
C265 C 0.7786 0.97356 0.73636 0.0
Gd266 Gd 0.08304 0.89335 0.71036 0.0
Gd267 Gd 0.93675 0.89056 0.77038 0.0
N268 N 0.86157 0.84008 0.76736 0.0
C269 C 0.76984 0.78251 0.76029 0.0
C270 C 0.86856 0.80213 0.77994 0.0
C271 C 0.82313 0.7726 0.7763 0.0
H272 H 0.9096 0.79449 0.79246 0.0
H273 H 0.82933 0.74222 0.78574 0.0
H274 H 0.0659 0.98652 0.68094 0.0
H275 H 0.86643 0.98119 0.75694 0.0
H276 H 0.11645 0.05394 0.68378 0.0
H277 H 0.73473 0.75957 0.75751 0.0
H278 H 0.67055 0.81281 0.73093 0.0
H279 H 0.18888 0.82397 0.73488 0.0
H280 H 0.69191 0.95691 0.71736 0.0
H281 H 0.77044 0.00587 0.73388 0.0
H282 H 0.29523 0.02792 0.74464 0.0
H283 H 0.65521 0.88461 0.71613 0.0
H284 H 0.33941 0.88937 0.77201 0.0
H285 H 0.28788 0.82428 0.76138 0.0
N286 N 0.18112 0.88858 0.73275 0.0
C287 C 0.21084 0.92452 0.73646 0.0
C288 C 0.20954 0.85275 0.74025 0.0
C289 C 0.29532 0.88952 0.76077 0.0
C290 C 0.26631 0.85272 0.75488 0.0
C291 C 0.26831 0.926 0.75096 0.0
H292 H 0.34142 0.96539 0.76595 0.0
N293 N 0.13038 0.95726 0.70994 0.0
C294 C 0.18511 0.95982 0.72438 0.0
C295 C 0.18973 0.03177 0.7124 0.0
C296 C 0.21564 0.99739 0.72661 0.0
C297 C 0.10725 0.98982 0.6941 0.0
C298 C 0.13589 0.0278 0.69558 0.0
O299 O 0.92634 0.85209 0.72848 0.0
O300 O 0.02328 0.83747 0.70919 0.0
O301 O 0.07504 0.9025 0.66148 0.0
O302 O 0.15163 0.86931 0.68017 0.0
O303 O 0.00369 0.83947 0.7801 0.0
O304 O 0.08529 0.841 0.74526 0.0
O305 O 0.06998 0.94226 0.7446 0.0
O306 O 0.03357 0.90427 0.78451 0.0
O307 O 0.90897 0.87228 0.81612 0.0
O308 O 0.91548 0.93603 0.80366 0.0
O309 O 0.99245 0.91968 0.69472 0.0
O310 O 0.95559 0.9448 0.73919 0.0
C311 C 0.96386 0.83122 0.71137 0.0
C312 C 0.05589 0.8255 0.76926 0.0
C313 C 0.11509 0.84993 0.6325 0.0
C314 C 0.12536 0.83013 0.57996 0.0
C315 C 0.08244 0.78281 0.61752 0.0
C316 C 0.09014 0.81157 0.63995 0.0
C317 C 0.10008 0.79195 0.5876 0.0
C318 C 0.13262 0.85909 0.60248 0.0
C319 C 0.12291 0.88077 0.65564 0.0
C320 C 0.27139 0.99925 0.74235 0.0
C321 C 0.29766 0.96363 0.75451 0.0
H322 H 0.21178 0.06122 0.71356 0.0
C323 C 0.06687 0.93437 0.77378 0.0
C324 C 0.95597 0.94398 0.70939 0.0
C325 C 0.8442 0.9167 0.84204 0.0
C326 C 0.79419 0.92579 0.89085 0.0
C327 C 0.73457 0.92794 0.84441 0.0
C328 C 0.78741 0.92102 0.8275 0.0
C329 C 0.73783 0.93039 0.87596 0.0
C330 C 0.84735 0.91898 0.8738 0.0
C331 C 0.90046 0.90926 0.82472 0.0
H332 H 0.06284 0.75337 0.62334 0.0
H333 H 0.07664 0.80386 0.66303 0.0
H334 H 0.094 0.76938 0.57043 0.0
H335 H 0.15188 0.88868 0.59659 0.0
H336 H 0.69095 0.93136 0.83303 0.0
H337 H 0.78372 0.91901 0.8032 0.0
H338 H 0.6965 0.93576 0.8888 0.0
H339 H 0.89099 0.91551 0.88526 0.0
C340 C 0.69839 0.68055 0.26762 0.0
C341 C 0.68873 0.73463 0.30344 0.0
C342 C 0.66642 0.69861 0.29071 0.0
C343 C 0.74251 0.75276 0.29185 0.0
C344 C 0.75351 0.69782 0.25659 0.0
C345 C 0.77475 0.73444 0.26843 0.0
N346 N 0.67681 0.64514 0.25673 0.0
C347 C 0.71095 0.62333 0.23707 0.0
C348 C 0.78645 0.67713 0.23461 0.0
C349 C 0.76554 0.63936 0.22517 0.0
Gd350 Gd 0.4396 0.61837 0.21778 0.0
Gd351 Gd 0.58365 0.62098 0.27663 0.0
N352 N 0.61457 0.68028 0.30138 0.0
C353 C 0.65676 0.75107 0.32768 0.0
C354 C 0.58519 0.69504 0.32614 0.0
C355 C 0.60517 0.73091 0.33929 0.0
H356 H 0.54679 0.67893 0.33621 0.0
H357 H 0.58114 0.74272 0.35861 0.0
H358 H 0.46178 0.53025 0.18501 0.0
H359 H 0.69583 0.59369 0.23037 0.0
H360 H 0.41937 0.46018 0.18761 0.0
H361 H 0.67233 0.77874 0.33803 0.0
H362 H 0.76 0.78064 0.30114 0.0
H363 H 0.33134 0.67893 0.24893 0.0
H364 H 0.82897 0.68939 0.22553 0.0
H365 H 0.79165 0.62246 0.20894 0.0
H366 H 0.24793 0.46968 0.25537 0.0
H367 H 0.81672 0.74838 0.26007 0.0
H368 H 0.19356 0.602 0.28866 0.0
H369 H 0.23718 0.67055 0.27888 0.0
N370 N 0.34598 0.61531 0.24466 0.0
C371 C 0.32027 0.57769 0.24789 0.0
C372 C 0.31508 0.64861 0.25431 0.0
C373 C 0.23595 0.60538 0.27606 0.0
C374 C 0.26059 0.64409 0.27073 0.0
C375 C 0.26504 0.57164 0.26405 0.0
H376 H 0.19832 0.52705 0.28002 0.0
N377 N 0.39972 0.55234 0.21757 0.0
C378 C 0.34777 0.54532 0.23383 0.0
C379 C 0.34876 0.47499 0.21963 0.0
C380 C 0.32152 0.50617 0.23582 0.0
C381 C 0.4234 0.52313 0.19972 0.0
C382 C 0.39923 0.48372 0.20102 0.0
O383 O 0.59258 0.65687 0.23231 0.0
O384 O 0.49494 0.67694 0.21783 0.0
O385 O 0.44367 0.61708 0.16847 0.0
O386 O 0.36239 0.63849 0.19059 0.0
O387 O 0.4982 0.65383 0.29164 0.0
O388 O 0.43914 0.67114 0.24946 0.0
O389 O 0.46689 0.56572 0.24913 0.0
O390 O 0.49245 0.59668 0.29259 0.0
O391 O 0.62771 0.61038 0.32039 0.0
O392 O 0.62196 0.56148 0.28784 0.0
O393 O 0.52993 0.59878 0.19846 0.0
O394 O 0.585 0.57357 0.23992 0.0
C395 C 0.55474 0.6826 0.21894 0.0
C396 C 0.45439 0.67511 0.27822 0.0
C397 C 0.38525 0.66688 0.14245 0.0
C398 C 0.35911 0.68947 0.0911 0.0
C399 C 0.38764 0.73871 0.12867 0.0
C400 C 0.39595 0.70733 0.15028 0.0
C401 C 0.36877 0.72993 0.09922 0.0
C402 C 0.36743 0.6581 0.11285 0.0
C403 C 0.39006 0.63343 0.16493 0.0
C404 C 0.26838 0.49966 0.25323 0.0
C405 C 0.24014 0.53234 0.26727 0.0
H406 H 0.33004 0.44446 0.22059 0.0
C407 C 0.46423 0.56746 0.27875 0.0
C408 C 0.5735 0.57618 0.21052 0.0
C409 C 0.67062 0.54534 0.33644 0.0
C410 C 0.70049 0.52809 0.38844 0.0
C411 C 0.72261 0.48174 0.34806 0.0
C412 C 0.6952 0.50841 0.32701 0.0
C413 C 0.72516 0.49143 0.3787 0.0
C414 C 0.67376 0.55513 0.36723 0.0
C415 C 0.63911 0.57267 0.31462 0.0
H416 H 0.39551 0.76991 0.1348 0.0
H417 H 0.41001 0.71459 0.17308 0.0
H418 H 0.36218 0.75451 0.08272 0.0
H419 H 0.35938 0.62683 0.10674 0.0
H420 H 0.74144 0.45333 0.34066 0.0
H421 H 0.69301 0.50009 0.30342 0.0
H422 H 0.74587 0.47026 0.39485 0.0
H423 H 0.65426 0.58326 0.37494 0.0
C424 C 0.14006 0.99167 0.33819 0.0
C425 C 0.16578 0.95901 0.32238 0.0
C426 C 0.13374 0.99122 0.27417 0.0
C427 C 0.11549 0.0265 0.28982 0.0
N428 N 0.11596 0.0627 0.33714 0.0
N429 N 0.19701 0.93089 0.27492 0.0
C430 C 0.12309 0.02747 0.32191 0.0
C431 C 0.1657 0.95975 0.29021 0.0
N432 N 0.12848 0.98792 0.36866 0.0
N433 N 0.11736 0.98625 0.2446 0.0
H434 H 0.22116 0.90756 0.28594 0.0
H435 H 0.20372 0.9324 0.2515 0.0
H436 H 0.09065 0.00698 0.23243 0.0
H437 H 0.12433 0.95934 0.23323 0.0
H438 H 0.10343 0.00928 0.38043 0.0
H439 H 0.13749 0.96159 0.38152 0.0
H440 H 0.12834 0.0656 0.35982 0.0
H441 H 0.10297 0.08996 0.32681 0.0
C442 C 0.35541 0.4821 0.85502 0.0
C443 C 0.35754 0.52482 0.85007 0.0
C444 C 0.45146 0.51774 0.82035 0.0
C445 C 0.44843 0.47473 0.82465 0.0
N446 N 0.41313 0.41995 0.85807 0.0
N447 N 0.41593 0.58422 0.83474 0.0
C448 C 0.40537 0.45797 0.84568 0.0
C449 C 0.40795 0.54298 0.83457 0.0
N450 N 0.30439 0.46414 0.86742 0.0
N451 N 0.49722 0.53448 0.80314 0.0
H452 H 0.38581 0.6037 0.84543 0.0
H453 H 0.45486 0.59915 0.82651 0.0
H454 H 0.53559 0.51776 0.79788 0.0
H455 H 0.4974 0.56425 0.79457 0.0
H456 H 0.2978 0.43276 0.86827 0.0
H457 H 0.26612 0.48057 0.87396 0.0
H458 H 0.38592 0.40831 0.87572 0.0
H459 H 0.45048 0.40172 0.85347 0.0
C460 C 0.64997 0.54634 0.6947 0.0
C461 C 0.67948 0.52991 0.66923 0.0
C462 C 0.64487 0.4616 0.68543 0.0
C463 C 0.62078 0.47753 0.71253 0.0
N464 N 0.61466 0.53414 0.74585 0.0
N465 N 0.71627 0.47081 0.64373 0.0
C466 C 0.62728 0.51969 0.71794 0.0
C467 C 0.6802 0.48717 0.66555 0.0
N468 N 0.64118 0.58731 0.69628 0.0
N469 N 0.63175 0.42259 0.67786 0.0
H470 H 0.74415 0.48837 0.62928 0.0
H471 H 0.7233 0.43968 0.64204 0.0
H472 H 0.60459 0.40335 0.69135 0.0
H473 H 0.64262 0.4107 0.65688 0.0
H474 H 0.61408 0.60034 0.71284 0.0
H475 H 0.6557 0.60803 0.67946 0.0
H476 H 0.62454 0.5637 0.75223 0.0
H477 H 0.60154 0.51487 0.76359 0.0
C478 C 0.93134 1.00078 0.15159 0.0
C479 C 0.88977 0.97396 0.167 0.0
C480 C 0.92757 0.9996 0.21531 0.0
C481 C 0.95789 0.03199 0.19962 0.0
N482 N 0.98202 0.06601 0.15181 0.0
N483 N 0.84305 0.95211 0.21464 0.0
C484 C 0.9583 0.03324 0.16745 0.0
C485 C 0.88671 0.97417 0.19925 0.0
N486 N 0.94723 0.99436 0.12211 0.0
N487 N 0.93938 0.99224 0.24534 0.0
H488 H 0.80977 0.93486 0.20396 0.0
H489 H 0.83622 0.95421 0.23794 0.0
H490 H 0.97114 0.00932 0.25729 0.0
H491 H 0.92285 0.96669 0.25725 0.0
H492 H 0.98133 0.01107 0.11081 0.0
H493 H 0.93207 0.96923 0.11027 0.0
H494 H 0.97721 0.0702 0.1284 0.0
H495 H 0.00206 0.09055 0.16244 0.0
C496 C 0.82577 0.98783 0.66071 0.0
C497 C 0.83668 0.03013 0.66323 0.0
C498 C 0.92765 0.01622 0.69436 0.0
C499 C 0.91747 0.97372 0.69172 0.0
N500 N 0.86035 0.91872 0.67007 0.0
N501 N 0.90372 0.0848 0.67653 0.0
C502 C 0.86812 0.95949 0.67374 0.0
C503 C 0.88945 0.04432 0.67828 0.0
N504 N 0.77273 0.97482 0.64759 0.0
N505 N 0.97292 0.02987 0.71288 0.0
H506 H 0.87669 0.10599 0.66475 0.0
H507 H 0.94474 0.09695 0.68422 0.0
H508 H 0.00432 0.01059 0.72343 0.0
H509 H 0.97767 0.05998 0.7191 0.0
H510 H 0.75749 0.94483 0.64845 0.0
H511 H 0.7416 0.99455 0.63708 0.0
H512 H 0.8306 0.90633 0.65435 0.0
H513 H 0.88555 0.89692 0.68203 0.0
C514 C 0.69032 0.54481 0.15119 0.0
C515 C 0.67558 0.50311 0.14838 0.0
C516 C 0.59976 0.50817 0.18908 0.0
C517 C 0.60979 0.55081 0.18966 0.0
N518 N 0.65907 0.61077 0.16818 0.0
N519 N 0.60873 0.44649 0.16082 0.0
C520 C 0.65333 0.56945 0.16972 0.0
C521 C 0.6287 0.48498 0.1665 0.0
N522 N 0.74136 0.56052 0.13716 0.0
N523 N 0.56174 0.48976 0.20981 0.0
H524 H 0.62735 0.42867 0.14398 0.0
H525 H 0.5699 0.43346 0.17083 0.0
H526 H 0.53486 0.50618 0.22444 0.0
H527 H 0.55893 0.45841 0.21336 0.0
H528 H 0.7583 0.58955 0.14099 0.0
H529 H 0.7704 0.54318 0.12397 0.0
H530 H 0.68433 0.62633 0.15148 0.0
H531 H 0.63545 0.62979 0.18249 0.0
C532 C 0.42824 0.45975 0.30747 0.0
C533 C 0.38272 0.46683 0.32947 0.0
C534 C 0.38663 0.53991 0.31674 0.0
C535 C 0.43674 0.53311 0.29696 0.0
N536 N 0.51598 0.48772 0.28118 0.0
N537 N 0.32099 0.51347 0.35727 0.0
C538 C 0.46011 0.49327 0.29412 0.0
C539 C 0.36261 0.50694 0.33477 0.0
N540 N 0.44211 0.42097 0.29971 0.0
N541 N 0.36092 0.57755 0.31766 0.0
H542 H 0.29954 0.48983 0.36948 0.0
H543 H 0.30993 0.54214 0.36493 0.0
H544 H 0.37655 0.60201 0.30431 0.0
H545 H 0.32102 0.58389 0.32947 0.0
H546 H 0.47043 0.41442 0.28146 0.0
H547 H 0.42106 0.39544 0.30967 0.0
H548 H 0.53831 0.45984 0.28112 0.0
H549 H 0.54322 0.51199 0.27391 0.0
C550 C 0.13013 0.02553 0.81471 0.0
C551 C 0.17183 0.00666 0.83517 0.0
C552 C 0.15046 0.94082 0.81264 0.0
C553 C 0.10325 0.95906 0.79492 0.0
N554 N 0.03871 0.01698 0.78478 0.0
N555 N 0.21523 0.94513 0.85697 0.0
C556 C 0.09074 0.00103 0.79729 0.0
C557 C 0.18074 0.96397 0.83493 0.0
N558 N 0.12865 0.06692 0.81165 0.0
N559 N 0.16717 0.9016 0.80788 0.0
H560 H 0.23779 0.9607 0.87397 0.0
H561 H 0.2173 0.91369 0.86002 0.0
H562 H 0.1455 0.88347 0.79213 0.0
H563 H 0.20574 0.88816 0.81763 0.0
H564 H 0.10332 0.08213 0.79489 0.0
H565 H 0.15759 0.08581 0.82381 0.0
H566 H 0.02455 0.04671 0.78799 0.0
H567 H 0.0059 0.99903 0.77439 0.0
C568 C 0.19033 0.12759 0.00106 0.0
C569 C 0.25095 0.11535 0.99441 0.0
C570 C 0.26576 0.09363 0.04767 0.0
C571 C 0.20265 0.10031 0.05314 0.0
N572 N 0.1039 0.12323 0.03579 0.0
N573 N 0.34752 0.08755 0.01069 0.0
C574 C 0.16482 0.11776 0.03014 0.0
C575 C 0.28924 0.09903 0.01767 0.0
N576 N 0.15711 0.14825 0.97943 0.0
N577 N 0.3031 0.08234 0.07129 0.0
H578 H 0.36723 0.09351 0.98945 0.0
H579 H 0.37564 0.07085 0.02537 0.0
H580 H 0.28705 0.07751 0.0934 0.0
H581 H 0.3505 0.08065 0.06966 0.0
H582 H 0.11484 0.16145 0.9835 0.0
H583 H 0.17398 0.15506 0.95774 0.0
H584 H 0.072 0.13121 0.01919 0.0
H585 H 0.08423 0.11767 0.05708 0.0
C586 C 0.46325 0.43234 0.51936 0.0
C587 C 0.42888 0.39777 0.51065 0.0
C588 C 0.38653 0.3906 0.56208 0.0
C589 C 0.42162 0.42472 0.57076 0.0
N590 N 0.50499 0.47109 0.56062 0.0
N591 N 0.36999 0.33833 0.52514 0.0
C592 C 0.46411 0.4431 0.55033 0.0
C593 C 0.39437 0.37505 0.53253 0.0
N594 N 0.49137 0.4567 0.49787 0.0
N595 N 0.34369 0.37428 0.58152 0.0
H596 H 0.37551 0.326 0.50375 0.0
H597 H 0.34934 0.31847 0.54087 0.0
H598 H 0.33774 0.38418 0.6036 0.0
H599 H 0.31158 0.35263 0.57521 0.0
H600 H 0.51094 0.4847 0.50263 0.0
H601 H 0.49057 0.45101 0.47474 0.0
H602 H 0.54102 0.48279 0.54754 0.0
H603 H 0.50645 0.47957 0.58326 0.0
C604 C 0.7317 0.38885 0.98376 0.0
C605 C 0.76763 0.3611 0.00129 0.0
C606 C 0.80307 0.32997 0.95451 0.0
C607 C 0.77397 0.36129 0.93717 0.0
N608 N 0.7184 0.42454 0.93553 0.0
N609 N 0.84388 0.30832 0.00343 0.0
C610 C 0.7403 0.39183 0.95185 0.0
C611 C 0.80482 0.33225 0.98672 0.0
N612 N 0.68757 0.41128 0.99745 0.0
N613 N 0.82762 0.2975 0.94025 0.0
H614 H 0.84705 0.30935 0.027 0.0
H615 H 0.87684 0.28994 0.99376 0.0
H616 H 0.82688 0.29471 0.91673 0.0
H617 H 0.84369 0.2717 0.95182 0.0
H618 H 0.65588 0.42887 0.98539 0.0
H619 H 0.67825 0.40898 0.02065 0.0
H620 H 0.69933 0.44981 0.94557 0.0
H621 H 0.7243 0.42828 0.91213 0.0
C622 C 0.86468 0.0731 0.46698 0.0
C623 C 0.83757 0.09932 0.48819 0.0
C624 C 0.80217 0.14397 0.44629 0.0
C625 C 0.82386 0.11574 0.42514 0.0
N626 N 0.86853 0.0507 0.41496 0.0
N627 N 0.76997 0.15536 0.49789 0.0
C628 C 0.85318 0.0795 0.43537 0.0
C629 C 0.80362 0.13369 0.47782 0.0
N630 N 0.90333 0.04307 0.47693 0.0
N631 N 0.78134 0.18105 0.43628 0.0
H632 H 0.76784 0.14812 0.52105 0.0
H633 H 0.73926 0.17798 0.49122 0.0
H634 H 0.77923 0.1896 0.41333 0.0
H635 H 0.77137 0.20463 0.45075 0.0
H636 H 0.9296 0.02576 0.46245 0.0
H637 H 0.9133 0.03771 0.49983 0.0
H638 H 0.88382 0.02179 0.42125 0.0
H639 H 0.86155 0.05455 0.39165 0.0
C640 C 0.79439 0.96953 0.96995 0.0
C641 C 0.80087 0.93371 0.98833 0.0
C642 C 0.79792 0.89238 0.94281 0.0
C643 C 0.79732 0.92843 0.92443 0.0
N644 N 0.80427 0.00141 0.91993 0.0
N645 N 0.81836 0.86147 0.99232 0.0
C646 C 0.79825 0.96707 0.93785 0.0
C647 C 0.80495 0.89517 0.97481 0.0
N648 N 0.78186 0.00569 0.98313 0.0
N649 N 0.79049 0.85551 0.92973 0.0
H650 H 0.82431 0.86226 0.01577 0.0
H651 H 0.82869 0.83337 0.98339 0.0
H652 H 0.78651 0.85223 0.90633 0.0
H653 H 0.78354 0.82851 0.94212 0.0
H654 H 0.77028 0.03198 0.97083 0.0
H655 H 0.77719 0.00862 0.00652 0.0
H656 H 0.81224 0.03011 0.92851 0.0
H657 H 0.80638 1.00085 0.89629 0.0
C658 C 0.75912 0.55347 0.467 0.0
C659 C 0.70365 0.55317 0.48382 0.0
C660 C 0.64655 0.53454 0.43838 0.0
C661 C 0.70128 0.53774 0.42113 0.0
N662 N 0.80723 0.55798 0.41743 0.0
N663 N 0.59321 0.55252 0.48423 0.0
C664 C 0.75688 0.54961 0.43498 0.0
C665 C 0.6469 0.54631 0.46913 0.0
N666 N 0.8141 0.55525 0.4817 0.0
N667 N 0.59471 0.51892 0.42571 0.0
H668 H 0.59153 0.5621 0.50658 0.0
H669 H 0.55055 0.55213 0.47371 0.0
H670 H 0.59248 0.50999 0.40321 0.0
H671 H 0.55551 0.51157 0.43819 0.0
H672 H 0.85594 0.55099 0.47095 0.0
H673 H 0.81799 0.55738 0.50518 0.0
H674 H 0.84711 0.57096 0.42584 0.0
H675 H 0.80735 0.55529 0.3939 0.0
C676 C 0.26866 0.64197 0.02776 0.0
C677 C 0.30952 0.64759 0.00291 0.0
C678 C 0.38167 0.68343 0.03538 0.0
C679 C 0.33985 0.67918 0.0599 0.0
N680 N 0.23755 0.66406 0.07744 0.0
N681 N 0.39605 0.68329 0.98089 0.0
C682 C 0.28126 0.66163 0.05538 0.0
C683 C 0.36326 0.67143 0.00605 0.0
N684 N 0.22004 0.6159 0.02575 0.0
N685 N 0.44002 0.69686 0.0403 0.0
H686 H 0.38292 0.67586 0.95896 0.0
H687 H 0.43228 0.70393 0.98148 0.0
H688 H 0.45578 0.70561 0.06147 0.0
H689 H 0.47435 0.69612 0.02391 0.0
H690 H 0.1931 0.60712 0.04432 0.0
H691 H 0.20953 0.60022 0.0062 0.0
H692 H 0.19219 0.65528 0.0743 0.0
H693 H 0.24522 0.6786 0.09785 0.0
C694 C 0.22487 0.85697 0.5113 0.0
C695 C 0.17967 0.86278 0.48847 0.0
C696 C 0.09874 0.84881 0.52596 0.0
C697 C 0.144 0.84012 0.54821 0.0
N698 N 0.2498 0.8283 0.561 0.0
N699 N 0.07469 0.8556 0.47244 0.0
C700 C 0.20704 0.84185 0.54053 0.0
C701 C 0.11685 0.85623 0.49534 0.0
N702 N 0.28432 0.86784 0.50559 0.0
N703 N 0.0386 0.85137 0.53424 0.0
H704 H 0.08637 0.85985 0.44961 0.0
H705 H 0.02925 0.84688 0.47572 0.0
H706 H 0.02339 0.84598 0.55644 0.0
H707 H 0.00446 0.86213 0.51968 0.0
H708 H 0.31787 0.86859 0.52234 0.0
H709 H 0.29925 0.87959 0.48465 0.0
H710 H 0.29584 0.82474 0.55562 0.0
H711 H 0.23843 0.81718 0.58268 0.0
C712 C 0.20381 0.21559 0.33195 0.0
C713 C 0.19126 0.25768 0.32753 0.0
C714 C 0.10042 0.24035 0.29805 0.0
C715 C 0.11859 0.19919 0.29811 0.0
N716 N 0.19209 0.14788 0.31261 0.0
N717 N 0.13383 0.31008 0.30084 0.0
C718 C 0.17143 0.18676 0.31451 0.0
C719 C 0.14124 0.27011 0.30903 0.0
N720 N 0.24473 0.20295 0.35362 0.0
N721 N 0.04275 0.25078 0.2891 0.0
H722 H 0.16411 0.33282 0.3073 0.0
H723 H 0.10138 0.31986 0.28496 0.0
H724 H 0.00999 0.22897 0.28377 0.0
H725 H 0.02543 0.28007 0.2908 0.0
H726 H 0.25101 0.17254 0.35988 0.0
H727 H 0.26788 0.22289 0.36761 0.0
H728 H 0.23356 0.13805 0.32175 0.0
H729 H 0.17072 0.12646 0.29924 0.0
C730 C 0.43687 0.23156 0.82052 0.0
C731 C 0.39103 0.23917 0.8425 0.0
C732 C 0.39226 0.31139 0.82723 0.0
C733 C 0.44412 0.30477 0.80857 0.0
N734 N 0.51818 0.25859 0.78834 0.0
N735 N 0.33132 0.28743 0.87002 0.0
C736 C 0.46721 0.26483 0.80554 0.0
C737 C 0.36993 0.27933 0.84654 0.0
N738 N 0.44928 0.1925 0.81281 0.0
N739 N 0.36406 0.34827 0.8266 0.0
H740 H 0.31514 0.26511 0.88527 0.0
H741 H 0.32002 0.31676 0.87621 0.0
H742 H 0.38058 0.37318 0.81406 0.0
H743 H 0.32178 0.35335 0.83672 0.0
H744 H 0.47734 0.18508 0.7947 0.0
H745 H 0.42682 0.16735 0.82255 0.0
H746 H 0.54169 0.23117 0.78824 0.0
H747 H 0.53918 0.28157 0.77537 0.0
C748 C 0.56309 0.24505 0.68921 0.0
C749 C 0.62456 0.23207 0.69321 0.0
C750 C 0.65117 0.29902 0.71242 0.0
C751 C 0.58839 0.30951 0.71303 0.0
N752 N 0.49658 0.3028 0.68299 0.0
N753 N 0.72756 0.2462 0.70963 0.0
C754 C 0.54691 0.28554 0.69622 0.0
C755 C 0.66896 0.25912 0.70474 0.0
N756 N 0.51994 0.21898 0.6784 0.0
N757 N 0.69387 0.32886 0.71562 0.0
H758 H 0.74231 0.21713 0.70444 0.0
H759 H 0.76008 0.26315 0.72112 0.0
H760 H 0.68104 0.35924 0.71668 0.0
H761 H 0.74067 0.32457 0.71272 0.0
H762 H 0.47322 0.22511 0.67897 0.0
H763 H 0.53016 0.19016 0.67069 0.0
H764 H 0.46716 0.28736 0.66868 0.0
H765 H 0.49005 0.33404 0.68163 0.0
C766 C 0.86356 0.21392 0.15097 0.0
C767 C 0.85509 0.25472 0.15958 0.0
C768 C 0.92503 0.24348 0.2024 0.0
C769 C 0.92798 0.20149 0.19596 0.0
N770 N 0.8884 0.14538 0.16749 0.0
N771 N 0.86666 0.30548 0.19774 0.0
C772 C 0.89404 0.18629 0.17113 0.0
C773 C 0.88259 0.26869 0.18654 0.0
N774 N 0.84467 0.2018 0.12307 0.0
N775 N 0.96496 0.25997 0.22247 0.0
H776 H 0.83429 0.32446 0.18742 0.0
H777 H 0.88072 0.31514 0.21896 0.0
H778 H 0.99921 0.24309 0.23308 0.0
H779 H 0.96886 0.2911 0.2257 0.0
H780 H 0.85554 0.17361 0.1144 0.0
H781 H 0.82347 0.22128 0.10731 0.0
H782 H 0.85913 0.13264 0.15166 0.0
H783 H 0.9076 0.12401 0.18242 0.0
C784 C 0.88933 0.72928 0.69489 0.0
C785 C 0.88114 0.73254 0.66306 0.0
C786 C 0.92765 0.80073 0.66253 0.0
C787 C 0.93782 0.79667 0.69433 0.0
N788 N 0.9455 0.75201 0.73836 0.0
N789 N 0.90149 0.76783 0.61551 0.0
C790 C 0.92346 0.75952 0.70985 0.0
C791 C 0.90269 0.76737 0.64653 0.0
N792 N 0.86288 0.69785 0.71111 0.0
N793 N 0.94155 0.83652 0.64764 0.0
H794 H 0.88295 0.74417 0.60315 0.0
H795 H 0.9228 0.79004 0.60191 0.0
H796 H 0.96405 0.86034 0.65806 0.0
H797 H 0.92855 0.84342 0.62539 0.0
H798 H 0.86147 0.69652 0.73475 0.0
H799 H 0.83759 0.67491 0.70102 0.0
H800 H 0.94285 0.7237 0.74943 0.0
H801 H 0.97125 0.7732 0.74989 0.0
C802 C 0.62142 0.75212 0.15615 0.0
C803 C 0.65285 0.78085 0.17396 0.0
C804 C 0.60599 0.75097 0.22005 0.0
C805 C 0.58208 0.71874 0.20287 0.0
N806 N 0.5655 0.68837 0.1544 0.0
N807 N 0.67849 0.80671 0.22299 0.0
C808 C 0.58884 0.71946 0.17079 0.0
C809 C 0.64559 0.78029 0.20594 0.0
N810 N 0.62127 0.75686 0.12522 0.0
N811 N 0.58904 0.75433 0.24969 0.0
H812 H 0.70772 0.82873 0.21348 0.0
H813 H 0.6802 0.80507 0.24659 0.0
H814 H 0.56102 0.73302 0.26082 0.0
H815 H 0.59853 0.77972 0.26248 0.0
H816 H 0.5941 0.73976 0.11093 0.0
H817 H 0.64478 0.78029 0.11378 0.0
H818 H 0.57512 0.68415 0.13158 0.0
H819 H 0.53886 0.66521 0.16412 0.0
C820 C 0.36592 0.72727 0.34227 0.0
C821 C 0.33686 0.75856 0.32517 0.0
C822 C 0.39875 0.74206 0.28102 0.0
C823 C 0.41953 0.70574 0.29612 0.0
N824 N 0.41545 0.66233 0.34199 0.0
N825 N 0.32084 0.794 0.27736 0.0
C826 C 0.40191 0.69812 0.32713 0.0
C827 C 0.35175 0.76535 0.29426 0.0
N828 N 0.35901 0.72518 0.37312 0.0
N829 N 0.42582 0.7557 0.25469 0.0
H830 H 0.28817 0.81311 0.28657 0.0
H831 H 0.3245 0.79671 0.25381 0.0
H832 H 0.46304 0.7415 0.24499 0.0
H833 H 0.41638 0.78386 0.24445 0.0
H834 H 0.38523 0.70626 0.38723 0.0
H835 H 0.33105 0.74491 0.38493 0.0
H836 H 0.39549 0.65346 0.36262 0.0
H837 H 0.44225 0.63953 0.33341 0.0
C838 C 0.10722 0.75334 0.83386 0.0
C839 C 0.13507 0.72177 0.81767 0.0
C840 C 0.10701 0.75603 0.76957 0.0
C841 C 0.08419 0.7898 0.78574 0.0
N842 N 0.07784 0.82378 0.8338 0.0
N843 N 0.17278 0.6969 0.77036 0.0
C844 C 0.08852 0.78935 0.81804 0.0
C845 C 0.13832 0.72427 0.78559 0.0
N846 N 0.09645 0.74849 0.86432 0.0
N847 N 0.09627 0.75283 0.7392 0.0
H848 H 0.19636 0.67326 0.78131 0.0
H849 H 0.18274 0.69996 0.74729 0.0
H850 H 0.07217 0.77421 0.72637 0.0
H851 H 0.10566 0.72672 0.72725 0.0
H852 H 0.06983 0.76851 0.87654 0.0
H853 H 0.10898 0.72253 0.87685 0.0
H854 H 0.08722 0.8261 0.85686 0.0
H855 H 0.06617 0.85144 0.82356 0.0
loop_
_geom_bond_atom_site_label_1
_geom_bond_atom_site_label_2
_geom_bond_distance
_geom_bond_site_symmetry_2
_ccdc_geom_bond_type
O0 Cd1 2.300 . S
O0 C7 1.275 . S
Cd1 O0 2.300 . S
Cd1 O9 2.381 . S
Cd1 O10 2.378 . S
O2 Cd3 2.385 . S
O2 C7 1.255 . S
Cd3 O2 2.385 . S
Cd3 O4 2.317 . S
O4 Cd3 2.317 . S
O4 C5 1.232 . S
C5 O4 1.232 . S
C5 O6 1.218 . S
O6 C5 1.218 . S
C7 O0 1.275 . S
C7 O2 1.255 . S
C8 O9 1.258 . S
C8 O10 1.256 . S
O9 Cd1 2.381 . S
O9 C8 1.258 . S
O10 Cd1 2.378 . S
O10 C8 1.256 . S
O11 Cd12 2.300 . S
O11 C18 1.275 . S
Cd12 O11 2.300 . S
Cd12 O20 2.381 . S
Cd12 O21 2.378 . S
O13 Cd14 2.385 . S
O13 C18 1.255 . S
Cd14 O13 2.385 . S
Cd14 O15 2.317 . S
O15 Cd14 2.317 . S
O15 C16 1.232 . S
C16 O15 1.232 . S
C16 O17 1.218 . S
O17 C16 1.218 . S
C18 O11 1.275 . S
C18 O13 1.255 . S
C19 O20 1.258 . S
C19 O21 1.256 . S
O20 Cd12 2.381 . S
O20 C19 1.258 . S
O21 Cd12 2.378 . S
O21 C19 1.256 . S
O22 Cd23 2.300 . S
O22 C29 1.275 . S
Cd23 O22 2.300 . S
Cd23 O31 2.381 . S
Cd23 O32 2.378 . S
O24 Cd25 2.385 . S
O24 C29 1.255 . S
Cd25 O24 2.385 . S
Cd25 O26 2.317 . S
O26 Cd25 2.317 . S
O26 C27 1.232 . S
C27 O26 1.232 . S
C27 O28 1.218 . S
O28 C27 1.218 . S
C29 O22 1.275 . S
C29 O24 1.255 . S
C30 O31 1.258 . S
C30 O32 1.256 . S
O31 Cd23 2.381 . S
O31 C30 1.258 . S
O32 Cd23 2.378 . S
O32 C30 1.256 . S
O33 Cd34 2.300 . S
O33 C40 1.275 . S
Cd34 O33 2.300 . S
Cd34 O42 2.381 . S
Cd34 O43 2.378 . S
O35 Cd36 2.385 . S
O35 C40 1.255 . S
Cd36 O35 2.385 . S
Cd36 O37 2.317 . S
O37 Cd36 2.317 . S
O37 C38 1.232 . S
C38 O37 1.232 . S
C38 O39 1.218 . S
O39 C38 1.218 . S
C40 O33 1.275 . S
C40 O35 1.255 . S
C41 O42 1.258 . S
C41 O43 1.256 . S
O42 Cd34 2.381 . S
O42 C41 1.258 . S
O43 Cd34 2.378 . S
O43 C41 1.256 . S
O44 Cd45 2.300 . S
O44 C51 1.275 . S
Cd45 O44 2.300 . S
Cd45 O53 2.381 . S
Cd45 O54 2.378 . S
O46 Cd47 2.385 . S
O46 C51 1.255 . S
Cd47 O46 2.385 . S
Cd47 O48 2.317 . S
O48 Cd47 2.317 . S
O48 C49 1.232 . S
C49 O48 1.232 . S
C49 O50 1.218 . S
O50 C49 1.218 . S
C51 O44 1.275 . S
C51 O46 1.255 . S
C52 O53 1.258 . S
C52 O54 1.256 . S
O53 Cd45 2.381 . S
O53 C52 1.258 . S
O54 Cd45 2.378 . S
O54 C52 1.256 . S
O55 Cd56 2.300 . S
O55 C62 1.275 . S
Cd56 O55 2.300 . S
Cd56 O64 2.381 . S
Cd56 O65 2.378 . S
O57 Cd58 2.385 . S
O57 C62 1.255 . S
Cd58 O57 2.385 . S
Cd58 O59 2.317 . S
O59 Cd58 2.317 . S
O59 C60 1.232 . S
C60 O59 1.232 . S
C60 O61 1.218 . S
O61 C60 1.218 . S
C62 O55 1.275 . S
C62 O57 1.255 . S
C63 O64 1.258 . S
C63 O65 1.256 . S
O64 Cd56 2.381 . S
O64 C63 1.258 . S
O65 Cd56 2.378 . S
O65 C63 1.256 . S
O66 Cd67 2.300 . S
O66 C73 1.275 . S
Cd67 O66 2.300 . S
Cd67 O75 2.381 . S
Cd67 O76 2.378 . S
O68 Cd69 2.385 . S
O68 C73 1.255 . S
Cd69 O68 2.385 . S
Cd69 O70 2.317 . S
O70 Cd69 2.317 . S
O70 C71 1.232 . S
C71 O70 1.232 . S
C71 O72 1.218 . S
O72 C71 1.218 . S
C73 O66 1.275 . S
C73 O68 1.255 . S
C74 O75 1.258 . S
C74 O76 1.256 . S
O75 Cd67 2.381 . S
O75 C74 1.258 . S
O76 Cd67 2.378 . S
O76 C74 1.256 . S
O77 Cd78 2.300 . S
O77 C84 1.275 . S
Cd78 O77 2.300 . S
Cd78 O86 2.381 . S
Cd78 O87 2.378 . S
O79 Cd80 2.385 . S
O79 C84 1.255 . S
Cd80 O79 2.385 . S
Cd80 O81 2.317 . S
O81 Cd80 2.317 . S
O81 C82 1.232 . S
C82 O81 1.232 . S
C82 O83 1.218 . S
O83 C82 1.218 . S
C84 O77 1.275 . S
C84 O79 1.255 . S
C85 O86 1.258 . S
C85 O87 1.256 . S
O86 Cd78 2.381 . S
O86 C85 1.258 . S
O87 Cd78 2.378 . S
O87 C85 1.256 . S
C88 C90 1.422 . S
C88 C92 1.415 . S
C88 N94 1.369 . S
C89 C90 1.421 . S
C89 C91 1.417 . S
C89 C101 1.422 1_545 S
C90 C88 1.422 . S
C90 C89 1.421 . S
C90 N100 1.359 . S
C91 C89 1.417 . S
C91 C93 1.329 . S
C91 H110 0.930 1_545 S
C92 C88 1.415 . S
C92 C93 1.437 . S
C92 C96 1.413 . S
C93 C91 1.329 . S
C93 C92 1.437 . S
C93 H115 0.929 . S
N94 C88 1.369 . S
N94 C95 1.338 . S
N94 Gd99 2.622 . S
C95 N94 1.338 . S
C95 C97 1.378 . S
C95 H107 0.929 . S
C96 C92 1.413 . S
C96 C97 1.348 . S
C96 H112 0.931 . S
C97 C95 1.378 . S
C97 C96 1.348 . S
C97 H113 0.930 . S
Gd98 N118 2.622 . S
Gd98 N125 2.570 . S
Gd98 O132 2.353 . S
Gd98 O133 2.468 . S
Gd98 O134 2.427 . S
Gd98 O136 2.388 . S
Gd98 O137 2.386 . S
Gd98 O141 2.307 . S
Gd98 C151 2.805 . S
Gd99 N94 2.622 . S
Gd99 N100 2.570 . S
Gd99 O131 2.386 . S
Gd99 O135 2.307 1_655 S
Gd99 O138 2.353 1_655 S
Gd99 O139 2.468 . S
Gd99 O140 2.427 . S
Gd99 O142 2.388 . S
Gd99 C163 2.805 . S
N100 C90 1.359 . S
N100 Gd99 2.570 . S
N100 C102 1.343 . S
C101 C89 1.422 1_565 S
C101 C103 1.321 . S
C101 H109 0.931 . S
C102 N100 1.343 . S
C102 C103 1.390 1_545 S
C102 H104 0.931 . S
C103 C101 1.321 . S
C103 C102 1.390 1_565 S
C103 H105 0.930 . S
H104 C102 0.931 . S
H105 C103 0.930 . S
H106 C129 0.931 . S
H107 C95 0.929 . S
H108 C130 0.930 . S
H109 C101 0.931 . S
H110 C91 0.930 1_565 S
H111 C120 0.929 . S
H112 C96 0.931 . S
H113 C97 0.930 . S
H114 C152 0.930 . S
H115 C93 0.929 . S
H116 C121 0.931 . S
H117 C122 0.930 . S
N118 Gd98 2.622 . S
N118 C119 1.369 . S
N118 C120 1.338 . S
C119 N118 1.369 . S
C119 C123 1.415 . S
C119 C126 1.422 . S
C120 H111 0.929 . S
C120 N118 1.338 . S
C120 C122 1.378 . S
C121 H116 0.931 . S
C121 C122 1.348 . S
C121 C123 1.413 . S
C122 H117 0.930 . S
C122 C120 1.378 . S
C122 C121 1.348 . S
C123 C119 1.415 . S
C123 C121 1.413 . S
C123 C153 1.437 . S
H124 C153 0.929 . S
N125 Gd98 2.570 . S
N125 C126 1.359 . S
N125 C129 1.343 . S
C126 C119 1.422 . S
C126 N125 1.359 . S
C126 C128 1.421 . S
C127 C128 1.422 . S
C127 C130 1.321 . S
C127 H154 0.931 . S
C128 C126 1.421 . S
C128 C127 1.422 . S
C128 C152 1.417 . S
C129 H106 0.931 . S
C129 N125 1.343 . S
C129 C130 1.390 . S
C130 H108 0.930 . S
C130 C127 1.321 . S
C130 C129 1.390 . S
O131 Gd99 2.386 . S
O131 C143 1.265 . S
O132 Gd98 2.353 . S
O132 C143 1.242 1_455 S
O133 Gd98 2.468 . S
O133 C151 1.263 . S
O134 Gd98 2.427 . S
O134 C151 1.252 . S
O135 Gd99 2.307 1_455 S
O135 C144 1.261 . S
O136 Gd98 2.388 . S
O136 C144 1.252 . S
O137 Gd98 2.386 . S
O137 C155 1.265 . S
O138 Gd99 2.353 1_455 S
O138 C155 1.242 . S
O139 Gd99 2.468 . S
O139 C163 1.263 . S
O140 Gd99 2.427 . S
O140 C163 1.252 . S
O141 Gd98 2.307 . S
O141 C156 1.261 1_455 S
O142 Gd99 2.388 . S
O142 C156 1.252 . S
C143 O131 1.265 . S
C143 O132 1.242 1_655 S
C144 O135 1.261 . S
C144 O136 1.252 . S
C145 C148 1.394 . S
C145 C150 1.370 . S
C145 C151 1.500 . S
C146 C149 1.383 . S
C146 C150 1.395 . S
C147 C148 1.396 . S
C147 C149 1.365 . S
C147 H164 0.929 . S
C148 C145 1.394 . S
C148 C147 1.396 . S
C148 H165 0.930 . S
C149 C146 1.383 . S
C149 C147 1.365 . S
C149 H166 0.931 . S
C150 C145 1.370 . S
C150 C146 1.395 . S
C150 H167 0.930 . S
C151 Gd98 2.805 . S
C151 O133 1.263 . S
C151 O134 1.252 . S
C151 C145 1.500 . S
C152 H114 0.930 . S
C152 C128 1.417 . S
C152 C153 1.329 . S
C153 C123 1.437 . S
C153 H124 0.929 . S
C153 C152 1.329 . S
H154 C127 0.931 . S
C155 O137 1.265 . S
C155 O138 1.242 . S
C156 O141 1.261 1_655 S
C156 O142 1.252 . S
C157 C160 1.394 . S
C157 C162 1.370 . S
C157 C163 1.500 . S
C158 C161 1.383 . S
C158 C162 1.395 . S
C159 C160 1.396 . S
C159 C161 1.365 . S
C159 H168 0.929 . S
C160 C157 1.394 . S
C160 C159 1.396 . S
C160 H169 0.930 . S
C161 C158 1.383 . S
C161 C159 1.365 . S
C161 H170 0.931 . S
C162 C157 1.370 . S
C162 C158 1.395 . S
C162 H171 0.930 . S
C163 Gd99 2.805 . S
C163 O139 1.263 . S
C163 O140 1.252 . S
C163 C157 1.500 . S
H164 C147 0.929 . S
H165 C148 0.930 . S
H166 C149 0.931 . S
H167 C150 0.930 . S
H168 C159 0.929 . S
H169 C160 0.930 . S
H170 C161 0.931 . S
H171 C162 0.930 . S
C172 C174 1.422 . S
C172 C176 1.415 . S
C172 N178 1.369 . S
C173 C174 1.421 . S
C173 C175 1.417 . S
C173 C185 1.422 . S
C174 C172 1.422 . S
C174 C173 1.421 . S
C174 N184 1.359 . S
C175 C173 1.417 . S
C175 C177 1.329 . S
C175 H194 0.930 . S
C176 C172 1.415 . S
C176 C177 1.437 . S
C176 C180 1.413 . S
C177 C175 1.329 . S
C177 C176 1.437 . S
C177 H199 0.929 . S
N178 C172 1.369 . S
N178 C179 1.338 . S
N178 Gd183 2.622 . S
C179 N178 1.338 . S
C179 C181 1.378 . S
C179 H191 0.929 . S
C180 C176 1.413 . S
C180 C181 1.348 . S
C180 H196 0.931 . S
C181 C179 1.378 . S
C181 C180 1.348 . S
C181 H197 0.930 . S
Gd182 N202 2.622 . S
Gd182 N209 2.570 . S
Gd182 O216 2.353 . S
Gd182 O217 2.468 . S
Gd182 O218 2.427 . S
Gd182 O220 2.388 . S
Gd182 O221 2.386 . S
Gd182 O225 2.307 . S
Gd182 C235 2.805 . S
Gd183 N178 2.622 . S
Gd183 N184 2.570 . S
Gd183 O215 2.386 . S
Gd183 O219 2.307 . S
Gd183 O222 2.353 . S
Gd183 O223 2.468 . S
Gd183 O224 2.427 . S
Gd183 O226 2.388 . S
Gd183 C247 2.805 . S
N184 C174 1.359 . S
N184 Gd183 2.570 . S
N184 C186 1.343 . S
C185 C173 1.422 . S
C185 C187 1.321 . S
C185 H193 0.931 . S
C186 N184 1.343 . S
C186 C187 1.390 . S
C186 H188 0.931 . S
C187 C185 1.321 . S
C187 C186 1.390 . S
C187 H189 0.930 . S
H188 C186 0.931 . S
H189 C187 0.930 . S
H190 C213 0.931 . S
H191 C179 0.929 . S
H192 C214 0.930 . S
H193 C185 0.931 . S
H194 C175 0.930 . S
H195 C204 0.929 . S
H196 C180 0.931 . S
H197 C181 0.930 . S
H198 C236 0.930 . S
H199 C177 0.929 . S
H200 C205 0.931 . S
H201 C206 0.930 . S
N202 Gd182 2.622 . S
N202 C203 1.369 . S
N202 C204 1.338 . S
C203 N202 1.369 . S
C203 C207 1.415 . S
C203 C210 1.422 . S
C204 H195 0.929 . S
C204 N202 1.338 . S
C204 C206 1.378 . S
C205 H200 0.931 . S
C205 C206 1.348 . S
C205 C207 1.413 . S
C206 H201 0.930 . S
C206 C204 1.378 . S
C206 C205 1.348 . S
C207 C203 1.415 . S
C207 C205 1.413 . S
C207 C237 1.437 . S
H208 C237 0.929 . S
N209 Gd182 2.570 . S
N209 C210 1.359 . S
N209 C213 1.343 . S
C210 C203 1.422 . S
C210 N209 1.359 . S
C210 C212 1.421 . S
C211 C212 1.422 . S
C211 C214 1.321 . S
C211 H238 0.931 . S
C212 C210 1.421 . S
C212 C211 1.422 . S
C212 C236 1.417 . S
C213 H190 0.931 . S
C213 N209 1.343 . S
C213 C214 1.390 . S
C214 H192 0.930 . S
C214 C211 1.321 . S
C214 C213 1.390 . S
O215 Gd183 2.386 . S
O215 C227 1.265 . S
O216 Gd182 2.353 . S
O216 C227 1.242 . S
O217 Gd182 2.468 . S
O217 C235 1.263 . S
O218 Gd182 2.427 . S
O218 C235 1.252 . S
O219 Gd183 2.307 . S
O219 C228 1.261 . S
O220 Gd182 2.388 . S
O220 C228 1.252 . S
O221 Gd182 2.386 . S
O221 C239 1.265 . S
O222 Gd183 2.353 . S
O222 C239 1.242 . S
O223 Gd183 2.468 . S
O223 C247 1.263 . S
O224 Gd183 2.427 . S
O224 C247 1.252 . S
O225 Gd182 2.307 . S
O225 C240 1.261 . S
O226 Gd183 2.388 . S
O226 C240 1.252 . S
C227 O215 1.265 . S
C227 O216 1.242 . S
C228 O219 1.261 . S
C228 O220 1.252 . S
C229 C232 1.394 . S
C229 C234 1.370 . S
C229 C235 1.500 . S
C230 C233 1.383 . S
C230 C234 1.395 . S
C231 C232 1.396 . S
C231 C233 1.365 . S
C231 H248 0.929 . S
C232 C229 1.394 . S
C232 C231 1.396 . S
C232 H249 0.930 . S
C233 C230 1.383 . S
C233 C231 1.365 . S
C233 H250 0.931 . S
C234 C229 1.370 . S
C234 C230 1.395 . S
C234 H251 0.930 . S
C235 Gd182 2.805 . S
C235 O217 1.263 . S
C235 O218 1.252 . S
C235 C229 1.500 . S
C236 H198 0.930 . S
C236 C212 1.417 . S
C236 C237 1.329 . S
C237 C207 1.437 . S
C237 H208 0.929 . S
C237 C236 1.329 . S
H238 C211 0.931 . S
C239 O221 1.265 . S
C239 O222 1.242 . S
C240 O225 1.261 . S
C240 O226 1.252 . S
C241 C244 1.394 . S
C241 C246 1.370 . S
C241 C247 1.500 . S
C242 C245 1.383 . S
C242 C246 1.395 . S
C243 C244 1.396 . S
C243 C245 1.365 . S
C243 H252 0.929 . S
C244 C241 1.394 . S
C244 C243 1.396 . S
C244 H253 0.930 . S
C245 C242 1.383 . S
C245 C243 1.365 . S
C245 H254 0.931 . S
C246 C241 1.370 . S
C246 C242 1.395 . S
C246 H255 0.930 . S
C247 Gd183 2.805 . S
C247 O223 1.263 . S
C247 O224 1.252 . S
C247 C241 1.500 . S
H248 C231 0.929 . S
H249 C232 0.930 . S
H250 C233 0.931 . S
H251 C234 0.930 . S
H252 C243 0.929 . S
H253 C244 0.930 . S
H254 C245 0.931 . S
H255 C246 0.930 . S
C256 C258 1.422 . S
C256 C260 1.415 . S
C256 N262 1.369 . S
C257 C258 1.421 . S
C257 C259 1.417 . S
C257 C269 1.422 . S
C258 C256 1.422 . S
C258 C257 1.421 . S
C258 N268 1.359 . S
C259 C257 1.417 . S
C259 C261 1.329 . S
C259 H278 0.930 . S
C260 C256 1.415 . S
C260 C261 1.437 . S
C260 C264 1.413 . S
C261 C259 1.329 . S
C261 C260 1.437 . S
C261 H283 0.929 . S
N262 C256 1.369 . S
N262 C263 1.338 . S
N262 Gd267 2.622 . S
C263 N262 1.338 . S
C263 C265 1.378 . S
C263 H275 0.929 . S
C264 C260 1.413 . S
C264 C265 1.348 . S
C264 H280 0.931 . S
C265 C263 1.378 . S
C265 C264 1.348 . S
C265 H281 0.930 . S
Gd266 N286 2.622 . S
Gd266 N293 2.570 . S
Gd266 O300 2.341 1_455 S
Gd266 O301 2.468 . S
Gd266 O302 2.427 . S
Gd266 O304 2.388 . S
Gd266 O305 2.386 . S
Gd266 O309 2.307 . S
Gd266 C319 2.805 . S
Gd267 N262 2.622 . S
Gd267 N268 2.570 . S
Gd267 O299 2.386 . S
Gd267 O303 2.307 1_655 S
Gd267 O306 2.353 1_655 S
Gd267 O307 2.468 . S
Gd267 O308 2.427 . S
Gd267 O310 2.388 . S
Gd267 C331 2.805 . S
N268 C258 1.359 . S
N268 Gd267 2.570 . S
N268 C270 1.343 . S
C269 C257 1.422 . S
C269 C271 1.321 . S
C269 H277 0.931 . S
C270 N268 1.343 . S
C270 C271 1.390 . S
C270 H272 0.931 . S
C271 C269 1.321 . S
C271 C270 1.390 . S
C271 H273 0.930 . S
H272 C270 0.931 . S
H273 C271 0.930 . S
H274 C297 0.931 . S
H275 C263 0.929 . S
H276 C298 0.930 . S
H277 C269 0.931 . S
H278 C259 0.930 . S
H279 C288 0.929 . S
H280 C264 0.931 . S
H281 C265 0.930 . S
H282 C320 0.930 . S
H283 C261 0.929 . S
H284 C289 0.931 . S
H285 C290 0.930 . S
N286 Gd266 2.622 . S
N286 C287 1.369 . S
N286 C288 1.338 . S
C287 N286 1.369 . S
C287 C291 1.415 . S
C287 C294 1.422 . S
C288 H279 0.929 . S
C288 N286 1.338 . S
C288 C290 1.378 . S
C289 H284 0.931 . S
C289 C290 1.348 . S
C289 C291 1.413 . S
C290 H285 0.930 . S
C290 C288 1.378 . S
C290 C289 1.348 . S
C291 C287 1.415 . S
C291 C289 1.413 . S
C291 C321 1.437 . S
H292 C321 0.929 . S
N293 Gd266 2.570 . S
N293 C294 1.359 . S
N293 C297 1.322 1_565 S
C294 C287 1.422 . S
C294 N293 1.359 . S
C294 C296 1.421 1_565 S
C295 C296 1.422 . S
C295 C298 1.321 . S
C295 H322 0.931 . S
C296 C294 1.421 1_545 S
C296 C295 1.422 . S
C296 C320 1.417 . S
C297 H274 0.931 . S
C297 N293 1.322 1_545 S
C297 C298 1.412 . S
C298 H276 0.930 . S
C298 C295 1.321 . S
C298 C297 1.412 . S
O299 Gd267 2.386 . S
O299 C311 1.265 . S
O300 Gd266 2.341 1_655 S
O300 C311 1.257 . S
O301 Gd266 2.468 . S
O301 C319 1.263 . S
O302 Gd266 2.427 . S
O302 C319 1.252 . S
O303 Gd267 2.307 1_455 S
O303 C312 1.261 . S
O304 Gd266 2.388 . S
O304 C312 1.252 . S
O305 Gd266 2.386 . S
O305 C323 1.265 . S
O306 Gd267 2.353 1_455 S
O306 C323 1.242 . S
O307 Gd267 2.468 . S
O307 C331 1.263 . S
O308 Gd267 2.427 . S
O308 C331 1.252 . S
O309 Gd266 2.307 . S
O309 C324 1.261 1_455 S
O310 Gd267 2.388 . S
O310 C324 1.252 . S
C311 O299 1.265 . S
C311 O300 1.257 . S
C312 O303 1.261 . S
C312 O304 1.252 . S
C313 C316 1.394 . S
C313 C318 1.370 . S
C313 C319 1.500 . S
C314 C317 1.383 . S
C314 C318 1.395 . S
C315 C316 1.396 . S
C315 C317 1.365 . S
C315 H332 0.929 . S
C316 C313 1.394 . S
C316 C315 1.396 . S
C316 H333 0.930 . S
C317 C314 1.383 . S
C317 C315 1.365 . S
C317 H334 0.931 . S
C318 C313 1.370 . S
C318 C314 1.395 . S
C318 H335 0.930 . S
C319 Gd266 2.805 . S
C319 O301 1.263 . S
C319 O302 1.252 . S
C319 C313 1.500 . S
C320 H282 0.930 . S
C320 C296 1.417 . S
C320 C321 1.329 1_545 S
C321 C291 1.437 . S
C321 H292 0.929 . S
C321 C320 1.329 1_565 S
H322 C295 0.931 . S
C323 O305 1.265 . S
C323 O306 1.242 . S
C324 O309 1.261 1_655 S
C324 O310 1.252 . S
C325 C328 1.394 . S
C325 C330 1.370 . S
C325 C331 1.500 . S
C326 C329 1.383 . S
C326 C330 1.395 . S
C327 C328 1.396 . S
C327 C329 1.365 . S
C327 H336 0.929 . S
C328 C325 1.394 . S
C328 C327 1.396 . S
C328 H337 0.930 . S
C329 C326 1.383 . S
C329 C327 1.365 . S
C329 H338 0.931 . S
C330 C325 1.370 . S
C330 C326 1.395 . S
C330 H339 0.930 . S
C331 Gd267 2.805 . S
C331 O307 1.263 . S
C331 O308 1.252 . S
C331 C325 1.500 . S
H332 C315 0.929 . S
H333 C316 0.930 . S
H334 C317 0.931 . S
H335 C318 0.930 . S
H336 C327 0.929 . S
H337 C328 0.930 . S
H338 C329 0.931 . S
H339 C330 0.930 . S
C340 C342 1.422 . S
C340 C344 1.415 . S
C340 N346 1.369 . S
C341 C342 1.421 . S
C341 C343 1.417 . S
C341 C353 1.422 . S
C342 C340 1.422 . S
C342 C341 1.421 . S
C342 N352 1.359 . S
C343 C341 1.417 . S
C343 C345 1.329 . S
C343 H362 0.930 . S
C344 C340 1.415 . S
C344 C345 1.437 . S
C344 C348 1.413 . S
C345 C343 1.329 . S
C345 C344 1.437 . S
C345 H367 0.929 . S
N346 C340 1.369 . S
N346 C347 1.338 . S
N346 Gd351 2.622 . S
C347 N346 1.338 . S
C347 C349 1.378 . S
C347 H359 0.929 . S
C348 C344 1.413 . S
C348 C349 1.348 . S
C348 H364 0.931 . S
C349 C347 1.378 . S
C349 C348 1.348 . S
C349 H365 0.930 . S
Gd350 N370 2.622 . S
Gd350 N377 2.570 . S
Gd350 O384 2.353 . S
Gd350 O385 2.468 . S
Gd350 O386 2.427 . S
Gd350 O388 2.388 . S
Gd350 O389 2.386 . S
Gd350 O393 2.307 . S
Gd350 C403 2.805 . S
Gd351 N346 2.622 . S
Gd351 N352 2.570 . S
Gd351 O383 2.386 . S
Gd351 O387 2.307 . S
Gd351 O390 2.353 . S
Gd351 O391 2.468 . S
Gd351 O392 2.427 . S
Gd351 O394 2.388 . S
Gd351 C415 2.805 . S
N352 C342 1.359 . S
N352 Gd351 2.570 . S
N352 C354 1.343 . S
C353 C341 1.422 . S
C353 C355 1.321 . S
C353 H361 0.931 . S
C354 N352 1.343 . S
C354 C355 1.390 . S
C354 H356 0.931 . S
C355 C353 1.321 . S
C355 C354 1.390 . S
C355 H357 0.930 . S
H356 C354 0.931 . S
H357 C355 0.930 . S
H358 C381 0.931 . S
H359 C347 0.929 . S
H360 C382 0.930 . S
H361 C353 0.931 . S
H362 C343 0.930 . S
H363 C372 0.929 . S
H364 C348 0.931 . S
H365 C349 0.930 . S
H366 C404 0.930 . S
H367 C345 0.929 . S
H368 C373 0.931 . S
H369 C374 0.930 . S
N370 Gd350 2.622 . S
N370 C371 1.369 . S
N370 C372 1.338 . S
C371 N370 1.369 . S
C371 C375 1.415 . S
C371 C378 1.422 . S
C372 H363 0.929 . S
C372 N370 1.338 . S
C372 C374 1.378 . S
C373 H368 0.931 . S
C373 C374 1.348 . S
C373 C375 1.413 . S
C374 H369 0.930 . S
C374 C372 1.378 . S
C374 C373 1.348 . S
C375 C371 1.415 . S
C375 C373 1.413 . S
C375 C405 1.437 . S
H376 C405 0.929 . S
N377 Gd350 2.570 . S
N377 C378 1.359 . S
N377 C381 1.343 . S
C378 C371 1.422 . S
C378 N377 1.359 . S
C378 C380 1.421 . S
C379 C380 1.422 . S
C379 C382 1.321 . S
C379 H406 0.931 . S
C380 C378 1.421 . S
C380 C379 1.422 . S
C380 C404 1.417 . S
C381 H358 0.931 . S
C381 N377 1.343 . S
C381 C382 1.390 . S
C382 H360 0.930 . S
C382 C379 1.321 . S
C382 C381 1.390 . S
O383 Gd351 2.386 . S
O383 C395 1.265 . S
O384 Gd350 2.353 . S
O384 C395 1.242 . S
O385 Gd350 2.468 . S
O385 C403 1.263 . S
O386 Gd350 2.427 . S
O386 C403 1.252 . S
O387 Gd351 2.307 . S
O387 C396 1.261 . S
O388 Gd350 2.388 . S
O388 C396 1.252 . S
O389 Gd350 2.386 . S
O389 C407 1.265 . S
O390 Gd351 2.353 . S
O390 C407 1.242 . S
O391 Gd351 2.468 . S
O391 C415 1.263 . S
O392 Gd351 2.427 . S
O392 C415 1.252 . S
O393 Gd350 2.307 . S
O393 C408 1.261 . S
O394 Gd351 2.388 . S
O394 C408 1.252 . S
C395 O383 1.265 . S
C395 O384 1.242 . S
C396 O387 1.261 . S
C396 O388 1.252 . S
C397 C400 1.394 . S
C397 C402 1.370 . S
C397 C403 1.500 . S
C398 C401 1.383 . S
C398 C402 1.395 . S
C399 C400 1.396 . S
C399 C401 1.365 . S
C399 H416 0.929 . S
C400 C397 1.394 . S
C400 C399 1.396 . S
C400 H417 0.930 . S
C401 C398 1.383 . S
C401 C399 1.365 . S
C401 H418 0.931 . S
C402 C397 1.370 . S
C402 C398 1.395 . S
C402 H419 0.930 . S
C403 Gd350 2.805 . S
C403 O385 1.263 . S
C403 O386 1.252 . S
C403 C397 1.500 . S
C404 H366 0.930 . S
C404 C380 1.417 . S
C404 C405 1.329 . S
C405 C375 1.437 . S
C405 H376 0.929 . S
C405 C404 1.329 . S
H406 C379 0.931 . S
C407 O389 1.265 . S
C407 O390 1.242 . S
C408 O393 1.261 . S
C408 O394 1.252 . S
C409 C412 1.394 . S
C409 C414 1.370 . S
C409 C415 1.500 . S
C410 C413 1.383 . S
C410 C414 1.395 . S
C411 C412 1.396 . S
C411 C413 1.365 . S
C411 H420 0.929 . S
C412 C409 1.394 . S
C412 C411 1.396 . S
C412 H421 0.930 . S
C413 C410 1.383 . S
C413 C411 1.365 . S
C413 H422 0.931 . S
C414 C409 1.370 . S
C414 C410 1.395 . S
C414 H423 0.930 . S
C415 Gd351 2.805 . S
C415 O391 1.263 . S
C415 O392 1.252 . S
C415 C409 1.500 . S
H416 C399 0.929 . S
H417 C400 0.930 . S
H418 C401 0.931 . S
H419 C402 0.930 . S
H420 C411 0.929 . S
H421 C412 0.930 . S
H422 C413 0.931 . S
H423 C414 0.930 . S
C424 C425 1.363 . S
C424 C430 1.379 1_565 S
C424 N432 1.356 . S
C425 C424 1.363 . S
C425 C431 1.363 . S
C426 C427 1.363 1_565 S
C426 C431 1.379 . S
C426 N433 1.356 . S
C427 C426 1.363 1_545 S
C427 C430 1.363 . S
N428 C430 1.356 . S
N428 H440 0.984 . S
N428 H441 0.985 . S
N429 C431 1.356 . S
N429 H434 0.984 . S
N429 H435 0.985 . S
C430 C424 1.379 1_545 S
C430 C427 1.363 . S
C430 N428 1.356 . S
C431 C425 1.363 . S
C431 C426 1.379 . S
C431 N429 1.356 . S
N432 C424 1.356 . S
N432 H438 0.984 . S
N432 H439 0.984 . S
N433 C426 1.356 . S
N433 H436 0.984 1_565 S
N433 H437 0.985 . S
H434 N429 0.984 . S
H435 N429 0.985 . S
H436 N433 0.984 1_545 S
H437 N433 0.985 . S
H438 N432 0.984 . S
H439 N432 0.984 . S
H440 N428 0.984 . S
H441 N428 0.985 . S
C442 C443 1.363 . S
C442 C448 1.379 . S
C442 N450 1.356 . S
C443 C442 1.363 . S
C443 C449 1.363 . S
C444 C445 1.363 . S
C444 C449 1.379 . S
C444 N451 1.356 . S
C445 C444 1.363 . S
C445 C448 1.363 . S
N446 C448 1.356 . S
N446 H458 0.984 . S
N446 H459 0.985 . S
N447 C449 1.356 . S
N447 H452 0.984 . S
N447 H453 0.985 . S
C448 C442 1.379 . S
C448 C445 1.363 . S
C448 N446 1.356 . S
C449 C443 1.363 . S
C449 C444 1.379 . S
C449 N447 1.356 . S
N450 C442 1.356 . S
N450 H456 0.984 . S
N450 H457 0.984 . S
N451 C444 1.356 . S
N451 H454 0.984 . S
N451 H455 0.985 . S
H452 N447 0.984 . S
H453 N447 0.985 . S
H454 N451 0.984 . S
H455 N451 0.985 . S
H456 N450 0.984 . S
H457 N450 0.984 . S
H458 N446 0.984 . S
H459 N446 0.985 . S
C460 C461 1.363 . S
C460 C466 1.379 . S
C460 N468 1.356 . S
C461 C460 1.363 . S
C461 C467 1.363 . S
C462 C463 1.363 . S
C462 C467 1.379 . S
C462 N469 1.356 . S
C463 C462 1.363 . S
C463 C466 1.363 . S
N464 C466 1.356 . S
N464 H476 0.984 . S
N464 H477 0.985 . S
N465 C467 1.356 . S
N465 H470 0.984 . S
N465 H471 0.985 . S
C466 C460 1.379 . S
C466 C463 1.363 . S
C466 N464 1.356 . S
C467 C461 1.363 . S
C467 C462 1.379 . S
C467 N465 1.356 . S
N468 C460 1.356 . S
N468 H474 0.984 . S
N468 H475 0.984 . S
N469 C462 1.356 . S
N469 H472 0.984 . S
N469 H473 0.985 . S
H470 N465 0.984 . S
H471 N465 0.985 . S
H472 N469 0.984 . S
H473 N469 0.985 . S
H474 N468 0.984 . S
H475 N468 0.984 . S
H476 N464 0.984 . S
H477 N464 0.985 . S
C478 C479 1.363 . S
C478 C484 1.379 . S
C478 N486 1.356 . S
C479 C478 1.363 . S
C479 C485 1.363 . S
C480 C481 1.363 . S
C480 C485 1.379 1_545 S
C480 N487 1.356 . S
C481 C480 1.363 . S
C481 C484 1.363 1_545 S
N482 C484 1.356 1_445 S
N482 H494 0.984 1_545 S
N482 H495 0.985 . S
N483 C485 1.356 . S
N483 H488 0.984 . S
N483 H489 0.985 . S
C484 C478 1.379 . S
C484 C481 1.363 1_565 S
C484 N482 1.356 1_665 S
C485 C479 1.363 . S
C485 C480 1.379 1_565 S
C485 N483 1.356 . S
N486 C478 1.356 . S
N486 H492 0.984 . S
N486 H493 0.984 . S
N487 C480 1.356 . S
N487 H490 0.984 . S
N487 H491 0.985 . S
H488 N483 0.984 . S
H489 N483 0.985 . S
H490 N487 0.984 . S
H491 N487 0.985 . S
H492 N486 0.984 . S
H493 N486 0.984 . S
H494 N482 0.984 1_565 S
H495 N482 0.985 . S
C496 C497 1.363 . S
C496 C502 1.379 . S
C496 N504 1.356 . S
C497 C496 1.363 . S
C497 C503 1.363 . S
C498 C499 1.363 1_545 S
C498 C503 1.379 . S
C498 N505 1.356 1_655 S
C499 C498 1.363 1_565 S
C499 C502 1.363 1_565 S
N500 C502 1.356 1_565 S
N500 H512 0.984 . S
N500 H513 0.985 . S
N501 C503 1.356 . S
N501 H506 0.984 . S
N501 H507 0.985 . S
C502 C496 1.379 . S
C502 C499 1.363 1_545 S
C502 N500 1.356 1_545 S
C503 C497 1.363 . S
C503 C498 1.379 . S
C503 N501 1.356 . S
N504 C496 1.356 . S
N504 H510 0.984 . S
N504 H511 0.984 . S
N505 C498 1.356 1_455 S
N505 H508 0.984 1_545 S
N505 H509 0.985 . S
H506 N501 0.984 . S
H507 N501 0.985 . S
H508 N505 0.984 1_565 S
H509 N505 0.985 . S
H510 N504 0.984 . S
H511 N504 0.984 . S
H512 N500 0.984 . S
H513 N500 0.985 . S
C514 C515 1.363 . S
C514 C520 1.379 . S
C514 N522 1.356 . S
C515 C514 1.363 . S
C515 C521 1.363 . S
C516 C517 1.363 . S
C516 C521 1.379 . S
C516 N523 1.356 . S
C517 C516 1.363 . S
C517 C520 1.363 . S
N518 C520 1.356 . S
N518 H530 0.984 . S
N518 H531 0.985 . S
N519 C521 1.356 . S
N519 H524 0.984 . S
N519 H525 0.985 . S
C520 C514 1.379 . S
C520 C517 1.363 . S
C520 N518 1.356 . S
C521 C515 1.363 . S
C521 C516 1.379 . S
C521 N519 1.356 . S
N522 C514 1.356 . S
N522 H528 0.984 . S
N522 H529 0.984 . S
N523 C516 1.356 . S
N523 H526 0.984 . S
N523 H527 0.985 . S
H524 N519 0.984 . S
H525 N519 0.985 . S
H526 N523 0.984 . S
H527 N523 0.985 . S
H528 N522 0.984 . S
H529 N522 0.984 . S
H530 N518 0.984 . S
H531 N518 0.985 . S
C532 C533 1.363 . S
C532 C538 1.379 . S
C532 N540 1.356 . S
C533 C532 1.363 . S
C533 C539 1.363 . S
C534 C535 1.363 . S
C534 C539 1.379 . S
C534 N541 1.356 . S
C535 C534 1.363 . S
C535 C538 1.363 . S
N536 C538 1.356 . S
N536 H548 0.984 . S
N536 H549 0.985 . S
N537 C539 1.356 . S
N537 H542 0.984 . S
N537 H543 0.985 . S
C538 C532 1.379 . S
C538 C535 1.363 . S
C538 N536 1.356 . S
C539 C533 1.363 . S
C539 C534 1.379 . S
C539 N537 1.356 . S
N540 C532 1.356 . S
N540 H546 0.984 . S
N540 H547 0.984 . S
N541 C534 1.356 . S
N541 H544 0.984 . S
N541 H545 0.985 . S
H542 N537 0.984 . S
H543 N537 0.985 . S
H544 N541 0.984 . S
H545 N541 0.985 . S
H546 N540 0.984 . S
H547 N540 0.984 . S
H548 N536 0.984 . S
H549 N536 0.985 . S
C550 C551 1.363 . S
C550 C556 1.379 . S
C550 N558 1.356 . S
C551 C550 1.363 . S
C551 C557 1.363 1_545 S
C552 C553 1.363 . S
C552 C557 1.379 . S
C552 N559 1.356 . S
C553 C552 1.363 . S
C553 C556 1.363 1_565 S
N554 C556 1.356 . S
N554 H566 0.984 . S
N554 H567 0.985 . S
N555 C557 1.356 . S
N555 H560 0.984 . S
N555 H561 0.985 . S
C556 C550 1.379 . S
C556 C553 1.363 1_545 S
C556 N554 1.356 . S
C557 C551 1.363 1_565 S
C557 C552 1.379 . S
C557 N555 1.356 . S
N558 C550 1.356 . S
N558 H564 0.984 . S
N558 H565 0.984 . S
N559 C552 1.356 . S
N559 H562 0.984 . S
N559 H563 0.985 . S
H560 N555 0.984 . S
H561 N555 0.985 . S
H562 N559 0.984 . S
H563 N559 0.985 . S
H564 N558 0.984 . S
H565 N558 0.984 . S
H566 N554 0.984 . S
H567 N554 0.985 . S
C568 C569 1.363 . S
C568 C574 1.379 1_556 S
C568 N576 1.356 . S
C569 C568 1.363 . S
C569 C575 1.363 1_556 S
C570 C571 1.363 . S
C570 C575 1.379 . S
C570 N577 1.356 . S
C571 C570 1.363 . S
C571 C574 1.363 . S
N572 C574 1.356 . S
N572 H584 0.984 . S
N572 H585 0.985 . S
N573 C575 1.356 1_556 S
N573 H578 0.984 . S
N573 H579 0.985 1_556 S
C574 C568 1.379 1_554 S
C574 C571 1.363 . S
C574 N572 1.356 . S
C575 C569 1.363 1_554 S
C575 C570 1.379 . S
C575 N573 1.356 1_554 S
N576 C568 1.356 . S
N576 H582 0.984 . S
N576 H583 0.984 . S
N577 C570 1.356 . S
N577 H580 0.984 . S
N577 H581 0.985 . S
H578 N573 0.984 . S
H579 N573 0.985 1_554 S
H580 N577 0.984 . S
H581 N577 0.985 . S
H582 N576 0.984 . S
H583 N576 0.984 . S
H584 N572 0.984 . S
H585 N572 0.985 . S
C586 C587 1.363 . S
C586 C592 1.379 . S
C586 N594 1.356 . S
C587 C586 1.363 . S
C587 C593 1.363 . S
C588 C589 1.363 . S
C588 C593 1.379 . S
C588 N595 1.356 . S
C589 C588 1.363 . S
C589 C592 1.363 . S
N590 C592 1.356 . S
N590 H602 0.984 . S
N590 H603 0.985 . S
N591 C593 1.356 . S
N591 H596 0.984 . S
N591 H597 0.985 . S
C592 C586 1.379 . S
C592 C589 1.363 . S
C592 N590 1.356 . S
C593 C587 1.363 . S
C593 C588 1.379 . S
C593 N591 1.356 . S
N594 C586 1.356 . S
N594 H600 0.984 . S
N594 H601 0.984 . S
N595 C588 1.356 . S
N595 H598 0.984 . S
N595 H599 0.985 . S
H596 N591 0.984 . S
H597 N591 0.985 . S
H598 N595 0.984 . S
H599 N595 0.985 . S
H600 N594 0.984 . S
H601 N594 0.984 . S
H602 N590 0.984 . S
H603 N590 0.985 . S
C604 C605 1.363 . S
C604 C610 1.379 1_554 S
C604 N612 1.356 . S
C605 C604 1.363 . S
C605 C611 1.363 1_554 S
C606 C607 1.363 . S
C606 C611 1.379 . S
C606 N613 1.356 . S
C607 C606 1.363 . S
C607 C610 1.363 . S
N608 C610 1.356 . S
N608 H620 0.984 . S
N608 H621 0.985 . S
N609 C611 1.356 1_554 S
N609 H614 0.984 . S
N609 H615 0.985 1_554 S
C610 C604 1.379 1_556 S
C610 C607 1.363 . S
C610 N608 1.356 . S
C611 C605 1.363 1_556 S
C611 C606 1.379 . S
C611 N609 1.356 1_556 S
N612 C604 1.356 . S
N612 H618 0.984 . S
N612 H619 0.984 . S
N613 C606 1.356 . S
N613 H616 0.984 . S
N613 H617 0.985 . S
H614 N609 0.984 . S
H615 N609 0.985 1_556 S
H616 N613 0.984 . S
H617 N613 0.985 . S
H618 N612 0.984 . S
H619 N612 0.984 . S
H620 N608 0.984 . S
H621 N608 0.985 . S
C622 C623 1.363 . S
C622 C628 1.379 . S
C622 N630 1.356 . S
C623 C622 1.363 . S
C623 C629 1.363 . S
C624 C625 1.363 . S
C624 C629 1.379 . S
C624 N631 1.356 . S
C625 C624 1.363 . S
C625 C628 1.363 . S
N626 C628 1.356 . S
N626 H638 0.984 . S
N626 H639 0.985 . S
N627 C629 1.356 . S
N627 H632 0.984 . S
N627 H633 0.985 . S
C628 C622 1.379 . S
C628 C625 1.363 . S
C628 N626 1.356 . S
C629 C623 1.363 . S
C629 C624 1.379 . S
C629 N627 1.356 . S
N630 C622 1.356 . S
N630 H636 0.984 . S
N630 H637 0.984 . S
N631 C624 1.356 . S
N631 H634 0.984 . S
N631 H635 0.985 . S
H632 N627 0.984 . S
H633 N627 0.985 . S
H634 N631 0.984 . S
H635 N631 0.985 . S
H636 N630 0.984 . S
H637 N630 0.984 . S
H638 N626 0.984 . S
H639 N626 0.985 . S
C640 C641 1.363 1_556 S
C640 C646 1.379 . S
C640 N648 1.356 1_556 S
C641 C640 1.363 1_554 S
C641 C647 1.371 . S
C642 C643 1.363 . S
C642 C647 1.355 1_556 S
C642 N649 1.356 . S
C643 C642 1.363 . S
C643 C646 1.363 . S
N644 C646 1.356 . S
N644 H656 0.984 . S
N644 H657 0.985 . S
N645 C647 1.377 . S
N645 H650 0.984 . S
N645 H651 0.985 . S
C646 C640 1.379 . S
C646 C643 1.363 . S
C646 N644 1.356 . S
C647 C641 1.371 . S
C647 C642 1.355 1_554 S
C647 N645 1.377 . S
N648 C640 1.356 1_554 S
N648 H654 0.984 1_554 S
N648 H655 0.984 . S
N649 C642 1.356 . S
N649 H652 0.984 . S
N649 H653 0.985 . S
H650 N645 0.984 . S
H651 N645 0.985 . S
H652 N649 0.984 . S
H653 N649 0.985 . S
H654 N648 0.984 1_556 S
H655 N648 0.984 . S
H656 N644 0.984 . S
H657 N644 0.985 . S
C658 C659 1.363 . S
C658 C664 1.379 . S
C658 N666 1.356 . S
C659 C658 1.363 . S
C659 C665 1.363 . S
C660 C661 1.363 . S
C660 C665 1.379 . S
C660 N667 1.356 . S
C661 C660 1.363 . S
C661 C664 1.363 . S
N662 C664 1.356 . S
N662 H674 0.984 . S
N662 H675 0.985 . S
N663 C665 1.356 . S
N663 H668 0.984 . S
N663 H669 0.985 . S
C664 C658 1.379 . S
C664 C661 1.363 . S
C664 N662 1.356 . S
C665 C659 1.363 . S
C665 C660 1.379 . S
C665 N663 1.356 . S
N666 C658 1.356 . S
N666 H672 0.984 . S
N666 H673 0.984 . S
N667 C660 1.356 . S
N667 H670 0.984 . S
N667 H671 0.985 . S
H668 N663 0.984 . S
H669 N663 0.985 . S
H670 N667 0.984 . S
H671 N667 0.985 . S
H672 N666 0.984 . S
H673 N666 0.984 . S
H674 N662 0.984 . S
H675 N662 0.985 . S
C676 C677 1.363 1_554 S
C676 C682 1.379 . S
C676 N684 1.356 1_554 S
C677 C676 1.363 1_556 S
C677 C683 1.363 . S
C678 C679 1.363 . S
C678 C683 1.379 1_554 S
C678 N685 1.356 . S
C679 C678 1.363 . S
C679 C682 1.363 . S
N680 C682 1.356 . S
N680 H692 0.984 . S
N680 H693 0.985 . S
N681 C683 1.356 . S
N681 H686 0.984 . S
N681 H687 0.985 . S
C682 C676 1.379 . S
C682 C679 1.363 . S
C682 N680 1.356 . S
C683 C677 1.363 . S
C683 C678 1.379 1_556 S
C683 N681 1.356 . S
N684 C676 1.356 1_556 S
N684 H690 0.982 1_556 S
N684 H691 0.984 . S
N685 C678 1.356 . S
N685 H688 0.984 . S
N685 H689 0.985 . S
H686 N681 0.984 . S
H687 N681 0.985 . S
H688 N685 0.984 . S
H689 N685 0.985 . S
H690 N684 0.982 1_554 S
H691 N684 0.984 . S
H692 N680 0.984 . S
H693 N680 0.985 . S
C694 C695 1.363 . S
C694 C700 1.379 . S
C694 N702 1.356 . S
C695 C694 1.363 . S
C695 C701 1.363 . S
C696 C697 1.363 . S
C696 C701 1.379 . S
C696 N703 1.356 . S
C697 C696 1.363 . S
C697 C700 1.363 . S
N698 C700 1.356 . S
N698 H710 0.984 . S
N698 H711 0.985 . S
N699 C701 1.356 . S
N699 H704 0.984 . S
N699 H705 0.985 . S
C700 C694 1.379 . S
C700 C697 1.363 . S
C700 N698 1.356 . S
C701 C695 1.363 . S
C701 C696 1.379 . S
C701 N699 1.356 . S
N702 C694 1.356 . S
N702 H708 0.984 . S
N702 H709 0.984 . S
N703 C696 1.356 . S
N703 H706 0.984 . S
N703 H707 0.985 . S
H704 N699 0.984 . S
H705 N699 0.985 . S
H706 N703 0.984 . S
H707 N703 0.985 . S
H708 N702 0.984 . S
H709 N702 0.984 . S
H710 N698 0.984 . S
H711 N698 0.985 . S
C712 C713 1.363 . S
C712 C718 1.379 . S
C712 N720 1.356 . S
C713 C712 1.363 . S
C713 C719 1.363 . S
C714 C715 1.363 . S
C714 C719 1.379 . S
C714 N721 1.356 . S
C715 C714 1.363 . S
C715 C718 1.363 . S
N716 C718 1.356 . S
N716 H728 0.984 . S
N716 H729 0.985 . S
N717 C719 1.356 . S
N717 H722 0.984 . S
N717 H723 0.985 . S
C718 C712 1.379 . S
C718 C715 1.363 . S
C718 N716 1.356 . S
C719 C713 1.363 . S
C719 C714 1.379 . S
C719 N717 1.356 . S
N720 C712 1.356 . S
N720 H726 0.984 . S
N720 H727 0.984 . S
N721 C714 1.356 . S
N721 H724 0.984 . S
N721 H725 0.985 . S
H722 N717 0.984 . S
H723 N717 0.985 . S
H724 N721 0.984 . S
H725 N721 0.985 . S
H726 N720 0.984 . S
H727 N720 0.984 . S
H728 N716 0.984 . S
H729 N716 0.985 . S
C730 C731 1.363 . S
C730 C736 1.379 . S
C730 N738 1.356 . S
C731 C730 1.363 . S
C731 C737 1.363 . S
C732 C733 1.363 . S
C732 C737 1.379 . S
C732 N739 1.356 . S
C733 C732 1.363 . S
C733 C736 1.363 . S
N734 C736 1.356 . S
N734 H746 0.984 . S
N734 H747 0.985 . S
N735 C737 1.356 . S
N735 H740 0.984 . S
N735 H741 0.985 . S
C736 C730 1.379 . S
C736 C733 1.363 . S
C736 N734 1.356 . S
C737 C731 1.363 . S
C737 C732 1.379 . S
C737 N735 1.356 . S
N738 C730 1.356 . S
N738 H744 0.984 . S
N738 H745 0.984 . S
N739 C732 1.356 . S
N739 H742 0.984 . S
N739 H743 0.985 . S
H740 N735 0.984 . S
H741 N735 0.985 . S
H742 N739 0.984 . S
H743 N739 0.985 . S
H744 N738 0.984 . S
H745 N738 0.984 . S
H746 N734 0.984 . S
H747 N734 0.985 . S
C748 C749 1.363 . S
C748 C754 1.379 . S
C748 N756 1.356 . S
C749 C748 1.363 . S
C749 C755 1.363 . S
C750 C751 1.363 . S
C750 C755 1.379 . S
C750 N757 1.356 . S
C751 C750 1.363 . S
C751 C754 1.363 . S
N752 C754 1.356 . S
N752 H764 0.984 . S
N752 H765 0.985 . S
N753 C755 1.356 . S
N753 H758 0.984 . S
N753 H759 0.985 . S
C754 C748 1.379 . S
C754 C751 1.363 . S
C754 N752 1.356 . S
C755 C749 1.363 . S
C755 C750 1.379 . S
C755 N753 1.356 . S
N756 C748 1.356 . S
N756 H762 0.984 . S
N756 H763 0.984 . S
N757 C750 1.356 . S
N757 H760 0.984 . S
N757 H761 0.985 . S
H758 N753 0.984 . S
H759 N753 0.985 . S
H760 N757 0.984 . S
H761 N757 0.985 . S
H762 N756 0.984 . S
H763 N756 0.984 . S
H764 N752 0.984 . S
H765 N752 0.985 . S
C766 C767 1.363 . S
C766 C772 1.379 . S
C766 N774 1.356 . S
C767 C766 1.363 . S
C767 C773 1.363 . S
C768 C769 1.363 . S
C768 C773 1.379 . S
C768 N775 1.356 1_655 S
C769 C768 1.363 . S
C769 C772 1.363 . S
N770 C772 1.356 . S
N770 H782 0.984 . S
N770 H783 0.985 . S
N771 C773 1.356 . S
N771 H776 0.984 . S
N771 H777 0.985 1_655 S
C772 C766 1.379 . S
C772 C769 1.363 . S
C772 N770 1.356 . S
C773 C767 1.363 . S
C773 C768 1.379 . S
C773 N771 1.356 . S
N774 C766 1.356 . S
N774 H780 0.984 . S
N774 H781 0.984 . S
N775 C768 1.356 1_455 S
N775 H778 0.984 . S
N775 H779 0.985 . S
H776 N771 0.984 . S
H777 N771 0.985 1_455 S
H778 N775 0.984 . S
H779 N775 0.985 . S
H780 N774 0.984 . S
H781 N774 0.984 . S
H782 N770 0.984 . S
H783 N770 0.985 . S
C784 C785 1.363 . S
C784 C790 1.379 . S
C784 N792 1.356 . S
C785 C784 1.363 . S
C785 C791 1.363 . S
C786 C787 1.363 . S
C786 C791 1.379 . S
C786 N793 1.356 . S
C787 C786 1.363 . S
C787 C790 1.363 . S
N788 C790 1.356 . S
N788 H800 0.984 . S
N788 H801 0.985 . S
N789 C791 1.356 . S
N789 H794 0.984 . S
N789 H795 0.985 . S
C790 C784 1.379 . S
C790 C787 1.363 . S
C790 N788 1.356 . S
C791 C785 1.363 . S
C791 C786 1.379 . S
C791 N789 1.356 . S
N792 C784 1.356 . S
N792 H798 0.984 . S
N792 H799 0.984 . S
N793 C786 1.356 . S
N793 H796 0.984 . S
N793 H797 0.985 . S
H794 N789 0.984 . S
H795 N789 0.985 . S
H796 N793 0.984 . S
H797 N793 0.985 . S
H798 N792 0.984 . S
H799 N792 0.984 . S
H800 N788 0.984 . S
H801 N788 0.985 . S
C802 C803 1.363 . S
C802 C808 1.379 . S
C802 N810 1.356 . S
C803 C802 1.363 . S
C803 C809 1.363 . S
C804 C805 1.363 . S
C804 C809 1.379 . S
C804 N811 1.356 . S
C805 C804 1.363 . S
C805 C808 1.363 . S
N806 C808 1.356 . S
N806 H818 0.984 . S
N806 H819 0.985 . S
N807 C809 1.356 . S
N807 H812 0.984 . S
N807 H813 0.985 . S
C808 C802 1.379 . S
C808 C805 1.363 . S
C808 N806 1.356 . S
C809 C803 1.363 . S
C809 C804 1.379 . S
C809 N807 1.356 . S
N810 C802 1.356 . S
N810 H816 0.984 . S
N810 H817 0.984 . S
N811 C804 1.356 . S
N811 H814 0.984 . S
N811 H815 0.985 . S
H812 N807 0.984 . S
H813 N807 0.985 . S
H814 N811 0.984 . S
H815 N811 0.985 . S
H816 N810 0.984 . S
H817 N810 0.984 . S
H818 N806 0.984 . S
H819 N806 0.985 . S
C820 C821 1.363 . S
C820 C826 1.379 . S
C820 N828 1.356 . S
C821 C820 1.363 . S
C821 C827 1.363 . S
C822 C823 1.363 . S
C822 C827 1.379 . S
C822 N829 1.356 . S
C823 C822 1.363 . S
C823 C826 1.363 . S
N824 C826 1.356 . S
N824 H836 0.984 . S
N824 H837 0.985 . S
N825 C827 1.356 . S
N825 H830 0.984 . S
N825 H831 0.985 . S
C826 C820 1.379 . S
C826 C823 1.363 . S
C826 N824 1.356 . S
C827 C821 1.363 . S
C827 C822 1.379 . S
C827 N825 1.356 . S
N828 C820 1.356 . S
N828 H834 0.984 . S
N828 H835 0.984 . S
N829 C822 1.356 . S
N829 H832 0.984 . S
N829 H833 0.985 . S
H830 N825 0.984 . S
H831 N825 0.985 . S
H832 N829 0.984 . S
H833 N829 0.985 . S
H834 N828 0.984 . S
H835 N828 0.984 . S
H836 N824 0.984 . S
H837 N824 0.985 . S
C838 C839 1.363 . S
C838 C844 1.379 . S
C838 N846 1.356 . S
C839 C838 1.363 . S
C839 C845 1.363 . S
C840 C841 1.363 . S
C840 C845 1.379 . S
C840 N847 1.356 . S
C841 C840 1.363 . S
C841 C844 1.363 . S
N842 C844 1.356 . S
N842 H854 0.984 . S
N842 H855 0.985 . S
N843 C845 1.356 . S
N843 H848 0.984 . S
N843 H849 0.985 . S
C844 C838 1.379 . S
C844 C841 1.363 . S
C844 N842 1.356 . S
C845 C839 1.363 . S
C845 C840 1.379 . S
C845 N843 1.356 . S
N846 C838 1.356 . S
N846 H852 0.984 . S
N846 H853 0.984 . S
N847 C840 1.356 . S
N847 H850 0.984 . S
N847 H851 0.985 . S
H848 N843 0.984 . S
H849 N843 0.985 . S
H850 N847 0.984 . S
H851 N847 0.985 . S
H852 N846 0.984 . S
H853 N846 0.984 . S
H854 N842 0.984 . S
H855 N842 0.985 . S
C425 C73 1.608 . S
C427 C144 1.651 . S
C445 C228 1.742 . S
C443 C84 1.734 . S
C463 C227 1.644 . S
C461 C51 1.603 . S
C479 C62 1.732 . S
C481 C143 1.751 . S
C499 C324 1.645 . S
C497 C29 1.581 . S
C517 C408 1.632 . S
C515 C38 1.529 . S
C533 C7 1.564 . S
C535 C407 1.645 . S
C551 C16 1.552 . S
C553 C323 1.612 . S
C571 C146 1.490 . S
C569 C18 1.677 . S
C589 C230 1.485 . S
C587 C5 1.396 . S
C607 C242 1.417 . S
C605 C40 1.669 . S
C625 C158 1.436 . S
C623 C27 1.414 . S
C643 C326 1.317 . S
C641 C60 1.366 . S
C659 C49 1.376 . S
C661 C410 1.360 . S
C679 C398 1.320 . S
C677 C82 1.363 . S
C695 C71 1.368 . S
C697 C314 1.333 . S
C715 C155 1.626 . S
C713 C8 1.597 . S
C733 C239 1.567 . S
C731 C19 1.556 . S
C749 C30 1.601 . S
C751 C240 1.604 . S
C769 C156 1.551 . S
C767 C41 1.545 . S
C787 C311 1.440 . S
C785 C52 1.440 . S
C803 C63 1.542 . S
C805 C395 1.541 . S
C821 C74 1.428 . S
C823 C396 1.393 . S
C839 C85 1.530 . S
C841 C312 1.490 . S
