# Generated by pormake.
# Topology iac, (4,6)-cn, num edge types: 1
# Building blocks:
#     Node 0, Type 0, BuildingBlock: NAHDIM_clean_sbu_0, # of connection points: 4
#     Node 1, Type 0, BuildingBlock: NAHDIM_clean_sbu_0, # of connection points: 4
#     Node 2, Type 0, BuildingBlock: NAHDIM_clean_sbu_0, # of connection points: 4
#     Node 3, Type 0, BuildingBlock: NAHDIM_clean_sbu_0, # of connection points: 4
#     Node 4, Type 0, BuildingBlock: NAHDIM_clean_sbu_0, # of connection points: 4
#     Node 5, Type 0, BuildingBlock: NAHDIM_clean_sbu_0, # of connection points: 4
#     Node 6, Type 0, BuildingBlock: NAHDIM_clean_sbu_0, # of connection points: 4
#     Node 7, Type 0, BuildingBlock: NAHDIM_clean_sbu_0, # of connection points: 4
#     Node 8, Type 0, BuildingBlock: NAHDIM_clean_sbu_0, # of connection points: 4
#     Node 9, Type 0, BuildingBlock: NAHDIM_clean_sbu_0, # of connection points: 4
#     Node 10, Type 0, BuildingBlock: NAHDIM_clean_sbu_0, # of connection points: 4
#     Node 11, Type 0, BuildingBlock: NAHDIM_clean_sbu_0, # of connection points: 4
#     Node 12, Type 0, BuildingBlock: NAHDIM_clean_sbu_0, # of connection points: 4
#     Node 13, Type 0, BuildingBlock: NAHDIM_clean_sbu_0, # of connection points: 4
#     Node 14, Type 0, BuildingBlock: NAHDIM_clean_sbu_0, # of connection points: 4
#     Node 15, Type 0, BuildingBlock: NAHDIM_clean_sbu_0, # of connection points: 4
#     Node 16, Type 0, BuildingBlock: NAHDIM_clean_sbu_0, # of connection points: 4
#     Node 17, Type 0, BuildingBlock: NAHDIM_clean_sbu_0, # of connection points: 4
#     Node 18, Type 0, BuildingBlock: NAHDIM_clean_sbu_0, # of connection points: 4
#     Node 19, Type 0, BuildingBlock: NAHDIM_clean_sbu_0, # of connection points: 4
#     Node 20, Type 0, BuildingBlock: NAHDIM_clean_sbu_0, # of connection points: 4
#     Node 21, Type 0, BuildingBlock: NAHDIM_clean_sbu_0, # of connection points: 4
#     Node 22, Type 0, BuildingBlock: NAHDIM_clean_sbu_0, # of connection points: 4
#     Node 23, Type 0, BuildingBlock: NAHDIM_clean_sbu_0, # of connection points: 4
#     Node 24, Type 1, BuildingBlock: VOLQOD_clean_sbu_1, # of connection points: 6
#     Node 25, Type 1, BuildingBlock: VOLQOD_clean_sbu_1, # of connection points: 6
#     Node 26, Type 1, BuildingBlock: VOLQOD_clean_sbu_1, # of connection points: 6
#     Node 27, Type 1, BuildingBlock: VOLQOD_clean_sbu_1, # of connection points: 6
#     Node 28, Type 1, BuildingBlock: VOLQOD_clean_sbu_1, # of connection points: 6
#     Node 29, Type 1, BuildingBlock: VOLQOD_clean_sbu_1, # of connection points: 6
#     Node 30, Type 1, BuildingBlock: VOLQOD_clean_sbu_1, # of connection points: 6
#     Node 31, Type 1, BuildingBlock: VOLQOD_clean_sbu_1, # of connection points: 6
#     Node 32, Type 1, BuildingBlock: VOLQOD_clean_sbu_1, # of connection points: 6
#     Node 33, Type 1, BuildingBlock: VOLQOD_clean_sbu_1, # of connection points: 6
#     Node 34, Type 1, BuildingBlock: VOLQOD_clean_sbu_1, # of connection points: 6
#     Node 35, Type 1, BuildingBlock: VOLQOD_clean_sbu_1, # of connection points: 6
#     Node 36, Type 1, BuildingBlock: VOLQOD_clean_sbu_1, # of connection points: 6
#     Node 37, Type 1, BuildingBlock: VOLQOD_clean_sbu_1, # of connection points: 6
#     Node 38, Type 1, BuildingBlock: VOLQOD_clean_sbu_1, # of connection points: 6
#     Node 39, Type 1, BuildingBlock: VOLQOD_clean_sbu_1, # of connection points: 6
#     Edge 40, Type (0, 1), BuildingBlock: UVAHIK_clean_linker_0, # of connection points: 2
#     Edge 41, Type (0, 1), BuildingBlock: UVAHIK_clean_linker_0, # of connection points: 2
#     Edge 42, Type (0, 1), BuildingBlock: UVAHIK_clean_linker_0, # of connection points: 2
#     Edge 43, Type (0, 1), BuildingBlock: UVAHIK_clean_linker_0, # of connection points: 2
#     Edge 44, Type (0, 1), BuildingBlock: UVAHIK_clean_linker_0, # of connection points: 2
#     Edge 45, Type (0, 1), BuildingBlock: UVAHIK_clean_linker_0, # of connection points: 2
#     Edge 46, Type (0, 1), BuildingBlock: UVAHIK_clean_linker_0, # of connection points: 2
#     Edge 47, Type (0, 1), BuildingBlock: UVAHIK_clean_linker_0, # of connection points: 2
#     Edge 48, Type (0, 1), BuildingBlock: UVAHIK_clean_linker_0, # of connection points: 2
#     Edge 49, Type (0, 1), BuildingBlock: UVAHIK_clean_linker_0, # of connection points: 2
#     Edge 50, Type (0, 1), BuildingBlock: UVAHIK_clean_linker_0, # of connection points: 2
#     Edge 51, Type (0, 1), BuildingBlock: UVAHIK_clean_linker_0, # of connection points: 2
#     Edge 52, Type (0, 1), BuildingBlock: UVAHIK_clean_linker_0, # of connection points: 2
#     Edge 53, Type (0, 1), BuildingBlock: UVAHIK_clean_linker_0, # of connection points: 2
#     Edge 54, Type (0, 1), BuildingBlock: UVAHIK_clean_linker_0, # of connection points: 2
#     Edge 55, Type (0, 1), BuildingBlock: UVAHIK_clean_linker_0, # of connection points: 2
#     Edge 56, Type (0, 1), BuildingBlock: UVAHIK_clean_linker_0, # of connection points: 2
#     Edge 57, Type (0, 1), BuildingBlock: UVAHIK_clean_linker_0, # of connection points: 2
#     Edge 58, Type (0, 1), BuildingBlock: UVAHIK_clean_linker_0, # of connection points: 2
#     Edge 59, Type (0, 1), BuildingBlock: UVAHIK_clean_linker_0, # of connection points: 2
#     Edge 60, Type (0, 1), BuildingBlock: UVAHIK_clean_linker_0, # of connection points: 2
#     Edge 61, Type (0, 1), BuildingBlock: UVAHIK_clean_linker_0, # of connection points: 2
#     Edge 62, Type (0, 1), BuildingBlock: UVAHIK_clean_linker_0, # of connection points: 2
#     Edge 63, Type (0, 1), BuildingBlock: UVAHIK_clean_linker_0, # of connection points: 2
#     Edge 64, Type (0, 1), BuildingBlock: UVAHIK_clean_linker_0, # of connection points: 2
#     Edge 65, Type (0, 1), BuildingBlock: UVAHIK_clean_linker_0, # of connection points: 2
#     Edge 66, Type (0, 1), BuildingBlock: UVAHIK_clean_linker_0, # of connection points: 2
#     Edge 67, Type (0, 1), BuildingBlock: UVAHIK_clean_linker_0, # of connection points: 2
#     Edge 68, Type (0, 1), BuildingBlock: UVAHIK_clean_linker_0, # of connection points: 2
#     Edge 69, Type (0, 1), BuildingBlock: UVAHIK_clean_linker_0, # of connection points: 2
#     Edge 70, Type (0, 1), BuildingBlock: UVAHIK_clean_linker_0, # of connection points: 2
#     Edge 71, Type (0, 1), BuildingBlock: UVAHIK_clean_linker_0, # of connection points: 2
#     Edge 72, Type (0, 1), BuildingBlock: UVAHIK_clean_linker_0, # of connection points: 2
#     Edge 73, Type (0, 1), BuildingBlock: UVAHIK_clean_linker_0, # of connection points: 2
#     Edge 74, Type (0, 1), BuildingBlock: UVAHIK_clean_linker_0, # of connection points: 2
#     Edge 75, Type (0, 1), BuildingBlock: UVAHIK_clean_linker_0, # of connection points: 2
#     Edge 76, Type (0, 1), BuildingBlock: UVAHIK_clean_linker_0, # of connection points: 2
#     Edge 77, Type (0, 1), BuildingBlock: UVAHIK_clean_linker_0, # of connection points: 2
#     Edge 78, Type (0, 1), BuildingBlock: UVAHIK_clean_linker_0, # of connection points: 2
#     Edge 79, Type (0, 1), BuildingBlock: UVAHIK_clean_linker_0, # of connection points: 2
#     Edge 80, Type (0, 1), BuildingBlock: UVAHIK_clean_linker_0, # of connection points: 2
#     Edge 81, Type (0, 1), BuildingBlock: UVAHIK_clean_linker_0, # of connection points: 2
#     Edge 82, Type (0, 1), BuildingBlock: UVAHIK_clean_linker_0, # of connection points: 2
#     Edge 83, Type (0, 1), BuildingBlock: UVAHIK_clean_linker_0, # of connection points: 2
#     Edge 84, Type (0, 1), BuildingBlock: UVAHIK_clean_linker_0, # of connection points: 2
#     Edge 85, Type (0, 1), BuildingBlock: UVAHIK_clean_linker_0, # of connection points: 2
#     Edge 86, Type (0, 1), BuildingBlock: UVAHIK_clean_linker_0, # of connection points: 2
#     Edge 87, Type (0, 1), BuildingBlock: UVAHIK_clean_linker_0, # of connection points: 2
#     Edge 88, Type (0, 1), BuildingBlock: UVAHIK_clean_linker_0, # of connection points: 2
#     Edge 89, Type (0, 1), BuildingBlock: UVAHIK_clean_linker_0, # of connection points: 2
#     Edge 90, Type (0, 1), BuildingBlock: UVAHIK_clean_linker_0, # of connection points: 2
#     Edge 91, Type (0, 1), BuildingBlock: UVAHIK_clean_linker_0, # of connection points: 2
#     Edge 92, Type (0, 1), BuildingBlock: UVAHIK_clean_linker_0, # of connection points: 2
#     Edge 93, Type (0, 1), BuildingBlock: UVAHIK_clean_linker_0, # of connection points: 2
#     Edge 94, Type (0, 1), BuildingBlock: UVAHIK_clean_linker_0, # of connection points: 2
#     Edge 95, Type (0, 1), BuildingBlock: UVAHIK_clean_linker_0, # of connection points: 2
#     Edge 96, Type (0, 1), BuildingBlock: UVAHIK_clean_linker_0, # of connection points: 2
#     Edge 97, Type (0, 1), BuildingBlock: UVAHIK_clean_linker_0, # of connection points: 2
#     Edge 98, Type (0, 1), BuildingBlock: UVAHIK_clean_linker_0, # of connection points: 2
#     Edge 99, Type (0, 1), BuildingBlock: UVAHIK_clean_linker_0, # of connection points: 2
#     Edge 100, Type (0, 1), BuildingBlock: UVAHIK_clean_linker_0, # of connection points: 2
#     Edge 101, Type (0, 1), BuildingBlock: UVAHIK_clean_linker_0, # of connection points: 2
#     Edge 102, Type (0, 1), BuildingBlock: UVAHIK_clean_linker_0, # of connection points: 2
#     Edge 103, Type (0, 1), BuildingBlock: UVAHIK_clean_linker_0, # of connection points: 2
#     Edge 104, Type (0, 1), BuildingBlock: UVAHIK_clean_linker_0, # of connection points: 2
#     Edge 105, Type (0, 1), BuildingBlock: UVAHIK_clean_linker_0, # of connection points: 2
#     Edge 106, Type (0, 1), BuildingBlock: UVAHIK_clean_linker_0, # of connection points: 2
#     Edge 107, Type (0, 1), BuildingBlock: UVAHIK_clean_linker_0, # of connection points: 2
#     Edge 108, Type (0, 1), BuildingBlock: UVAHIK_clean_linker_0, # of connection points: 2
#     Edge 109, Type (0, 1), BuildingBlock: UVAHIK_clean_linker_0, # of connection points: 2
#     Edge 110, Type (0, 1), BuildingBlock: UVAHIK_clean_linker_0, # of connection points: 2
#     Edge 111, Type (0, 1), BuildingBlock: UVAHIK_clean_linker_0, # of connection points: 2
#     Edge 112, Type (0, 1), BuildingBlock: UVAHIK_clean_linker_0, # of connection points: 2
#     Edge 113, Type (0, 1), BuildingBlock: UVAHIK_clean_linker_0, # of connection points: 2
#     Edge 114, Type (0, 1), BuildingBlock: UVAHIK_clean_linker_0, # of connection points: 2
#     Edge 115, Type (0, 1), BuildingBlock: UVAHIK_clean_linker_0, # of connection points: 2
#     Edge 116, Type (0, 1), BuildingBlock: UVAHIK_clean_linker_0, # of connection points: 2
#     Edge 117, Type (0, 1), BuildingBlock: UVAHIK_clean_linker_0, # of connection points: 2
#     Edge 118, Type (0, 1), BuildingBlock: UVAHIK_clean_linker_0, # of connection points: 2
#     Edge 119, Type (0, 1), BuildingBlock: UVAHIK_clean_linker_0, # of connection points: 2
#     Edge 120, Type (0, 1), BuildingBlock: UVAHIK_clean_linker_0, # of connection points: 2
#     Edge 121, Type (0, 1), BuildingBlock: UVAHIK_clean_linker_0, # of connection points: 2
#     Edge 122, Type (0, 1), BuildingBlock: UVAHIK_clean_linker_0, # of connection points: 2
#     Edge 123, Type (0, 1), BuildingBlock: UVAHIK_clean_linker_0, # of connection points: 2
#     Edge 124, Type (0, 1), BuildingBlock: UVAHIK_clean_linker_0, # of connection points: 2
#     Edge 125, Type (0, 1), BuildingBlock: UVAHIK_clean_linker_0, # of connection points: 2
#     Edge 126, Type (0, 1), BuildingBlock: UVAHIK_clean_linker_0, # of connection points: 2
#     Edge 127, Type (0, 1), BuildingBlock: UVAHIK_clean_linker_0, # of connection points: 2
#     Edge 128, Type (0, 1), BuildingBlock: UVAHIK_clean_linker_0, # of connection points: 2
#     Edge 129, Type (0, 1), BuildingBlock: UVAHIK_clean_linker_0, # of connection points: 2
#     Edge 130, Type (0, 1), BuildingBlock: UVAHIK_clean_linker_0, # of connection points: 2
#     Edge 131, Type (0, 1), BuildingBlock: UVAHIK_clean_linker_0, # of connection points: 2
#     Edge 132, Type (0, 1), BuildingBlock: UVAHIK_clean_linker_0, # of connection points: 2
#     Edge 133, Type (0, 1), BuildingBlock: UVAHIK_clean_linker_0, # of connection points: 2
#     Edge 134, Type (0, 1), BuildingBlock: UVAHIK_clean_linker_0, # of connection points: 2
#     Edge 135, Type (0, 1), BuildingBlock: UVAHIK_clean_linker_0, # of connection points: 2
# Relax obj value: 0.316
# Max RMSD: 0.291
# Mean RMSD: 0.182
data_MOF--net-iac--node1-NAHDIM_clean_sbu_0--node2-VOLQOD_clean_sbu_1--edge1-UVAHIK_clean_linker_0
_symmetry_space_group_name_H-M    P1
_symmetry_Int_Tables_number       1
_symmetry_cell_setting            triclinic
loop_
_symmetry_equiv_pos_as_xyz
'x, y, z'
_cell_length_a     70.641668
_cell_length_b     69.186434
_cell_length_c     67.627789
_cell_angle_alpha  90.065396
_cell_angle_beta   90.398649
_cell_angle_gamma 91.027327
loop_
_atom_site_label
_atom_site_type_symbol
_atom_site_fract_x
_atom_site_fract_y
_atom_site_fract_z
_atom_type_partial_charge
C0 C 0.96667 0.25586 0.1394 0.0
O1 O 0.97237 0.27396 0.13781 0.0
O2 O 0.00412 0.22433 0.10041 0.0
Zn3 Zn 0.00198 0.24627 0.11943 0.0
O4 O 0.00267 0.2711 0.10413 0.0
C5 C 0.02459 0.26184 0.15039 0.0
O6 O 0.01068 0.27417 0.1502 0.0
O7 O 0.97704 0.24246 0.133 0.0
C8 C 0.01889 0.27793 0.09959 0.0
O9 O 0.03407 0.26834 0.10462 0.0
C10 C 0.01884 0.21821 0.09193 0.0
O11 O 0.03539 0.22638 0.09578 0.0
O12 O 0.02364 0.24727 0.13893 0.0
C13 C 0.03992 0.69617 0.39587 0.0
O14 O 0.04403 0.69798 0.41476 0.0
O15 O 0.00093 0.701 0.43188 0.0
Zn16 Zn 0.00651 0.7162 0.40736 0.0
O17 O 0.01814 0.74194 0.41421 0.0
C18 C 0.96852 0.7093 0.39222 0.0
O19 O 0.96992 0.69259 0.40128 0.0
O20 O 0.02419 0.70229 0.38948 0.0
C21 C 0.01866 0.7547 0.40072 0.0
O22 O 0.01205 0.75032 0.38303 0.0
C23 C 0.00994 0.7032 0.44808 0.0
O24 O 0.02399 0.71586 0.44919 0.0
O25 O 0.98235 0.72124 0.39284 0.0
C26 C 0.45841 0.77787 0.69498 0.0
O27 O 0.46394 0.79551 0.69037 0.0
O28 O 0.49106 0.7452 0.65548 0.0
Zn29 Zn 0.49392 0.76511 0.67691 0.0
O30 O 0.49921 0.79083 0.66404 0.0
C31 C 0.52836 0.74702 0.69023 0.0
O32 O 0.5242 0.73457 0.67611 0.0
O33 O 0.46932 0.76385 0.69167 0.0
C34 C 0.51488 0.79151 0.6549 0.0
O35 O 0.52504 0.77581 0.65403 0.0
C36 C 0.47654 0.74654 0.6444 0.0
O37 O 0.46507 0.76105 0.64703 0.0
O38 O 0.51664 0.76015 0.69425 0.0
C39 C 0.55974 0.24016 0.82098 0.0
O40 O 0.55269 0.25758 0.82013 0.0
O41 O 0.54334 0.21814 0.87939 0.0
Zn42 Zn 0.53639 0.23476 0.85629 0.0
O43 O 0.53764 0.26264 0.86444 0.0
C44 C 0.49725 0.23054 0.86205 0.0
O45 O 0.50295 0.23571 0.87984 0.0
O46 O 0.5544 0.22867 0.83454 0.0
C47 C 0.52712 0.27494 0.85606 0.0
O48 O 0.51666 0.26957 0.84081 0.0
C49 C 0.54372 0.22354 0.89737 0.0
O50 O 0.5395 0.24141 0.90189 0.0
O51 O 0.5095 0.22853 0.84856 0.0
C52 C 0.14653 0.01101 0.25183 0.0
O53 O 0.13874 0.0179 0.26787 0.0
O54 O 0.11096 0.0452 0.22027 0.0
Zn55 Zn 0.13551 0.04765 0.23539 0.0
O56 O 0.12939 0.05637 0.26278 0.0
C57 C 0.15051 0.0783 0.20979 0.0
O58 O 0.13376 0.07785 0.20122 0.0
O59 O 0.14718 0.02137 0.23633 0.0
C60 C 0.11789 0.06996 0.26576 0.0
O61 O 0.11049 0.07894 0.25052 0.0
C62 C 0.0991 0.03321 0.2276 0.0
O63 O 0.10367 0.02393 0.24383 0.0
O64 O 0.15394 0.06667 0.22381 0.0
C65 C 0.25832 0.95012 0.53475 0.0
O66 O 0.26218 0.93872 0.5497 0.0
O67 O 0.27784 0.90428 0.53255 0.0
Zn68 Zn 0.28624 0.92712 0.51603 0.0
O69 O 0.28672 0.91814 0.48791 0.0
C70 C 0.32266 0.92888 0.53629 0.0
O71 O 0.31691 0.91267 0.54458 0.0
O72 O 0.2672 0.94811 0.51863 0.0
C73 C 0.29799 0.90491 0.48297 0.0
O74 O 0.31036 0.89873 0.49601 0.0
C75 C 0.26616 0.89207 0.52506 0.0
O76 O 0.25995 0.89468 0.50692 0.0
O77 O 0.31191 0.93727 0.524 0.0
C78 C 0.34926 0.01342 0.74935 0.0
O79 O 0.35718 0.00744 0.76582 0.0
O80 O 0.39309 0.98588 0.722 0.0
Zn81 Zn 0.36731 0.98002 0.73287 0.0
O82 O 0.37126 0.97138 0.7608 0.0
C83 C 0.33875 0.96387 0.70714 0.0
O84 O 0.33485 0.98216 0.70436 0.0
O85 O 0.35202 0.00425 0.73339 0.0
C86 C 0.38481 0.96054 0.76573 0.0
O87 O 0.39517 0.95281 0.75184 0.0
C88 C 0.40359 -0.0033 0.73282 0.0
O89 O 0.39666 0.00376 0.74924 0.0
O90 O 0.35288 0.95948 0.71787 0.0
C91 C 0.23916 0.08332 0.03591 0.0
O92 O 0.23239 0.09312 0.02091 0.0
O93 O 0.21187 0.12171 0.06987 0.0
Zn94 Zn 0.20568 0.09724 0.05477 0.0
O95 O 0.19673 0.10503 0.02771 0.0
C96 C 0.18779 0.0628 0.07071 0.0
O97 O 0.20447 0.05534 0.06759 0.0
O98 O 0.22996 0.08265 0.05198 0.0
C99 C 0.18581 0.11916 0.02483 0.0
O100 O 0.17864 0.12809 0.04013 0.0
C101 C 0.22187 0.13407 0.06045 0.0
O102 O 0.22705 0.13004 0.04231 0.0
O103 O 0.18539 0.08067 0.06729 0.0
C104 C 0.75022 0.42705 -0.0032 0.0
O105 O 0.75515 0.41199 0.98631 0.0
O106 O 0.76887 0.39617 0.04341 0.0
Zn107 Zn 0.77991 0.41468 0.02348 0.0
O108 O 0.7912 0.39928 0.0014 0.0
C109 C 0.80192 0.44923 0.02917 0.0
O110 O 0.79064 0.45518 0.015 0.0
O111 O 0.75884 0.43086 0.01292 0.0
C112 C 0.7989 0.38313 0.0047 0.0
O113 O 0.80023 0.37683 0.02297 0.0
C114 C 0.75678 0.3837 0.03719 0.0
O115 O 0.75207 0.3836 0.01837 0.0
O116 O 0.79993 0.43206 0.03564 0.0
C117 C 0.83694 0.5136 0.24492 0.0
O118 O 0.83328 0.50317 0.26071 0.0
O119 O 0.89191 0.48825 0.22847 0.0
Zn120 Zn 0.86759 0.48825 0.24377 0.0
O121 O 0.87372 0.49116 0.27259 0.0
C122 C 0.85605 0.44879 0.23143 0.0
O123 O 0.87217 0.44789 0.22193 0.0
O124 O 0.8516 0.51008 0.23488 0.0
C125 C 0.88445 0.47862 0.28018 0.0
O126 O 0.89079 0.46468 0.26894 0.0
C127 C 0.90494 0.49984 0.2344 0.0
O128 O 0.90177 0.51093 0.24977 0.0
O129 O 0.85203 0.46404 0.24082 0.0
C130 C 0.74154 0.55291 0.53482 0.0
O131 O 0.72566 0.54646 0.52678 0.0
O132 O 0.73561 0.61641 0.53663 0.0
Zn133 Zn 0.7288 0.59125 0.52323 0.0
O134 O 0.73402 0.59515 0.49446 0.0
C135 C 0.68858 0.59518 0.52105 0.0
O136 O 0.69341 0.61152 0.51244 0.0
O137 O 0.74541 0.57091 0.53455 0.0
C138 C 0.72395 0.58873 0.48019 0.0
O139 O 0.70959 0.57697 0.48381 0.0
C140 C 0.73436 0.63253 0.52772 0.0
O141 O 0.7276 0.63303 0.5096 0.0
O142 O 0.70146 0.58411 0.52728 0.0
C143 C 0.63619 0.48057 0.75204 0.0
O144 O 0.62321 0.48473 0.76512 0.0
O145 O 0.60351 0.5122 0.71436 0.0
Zn146 Zn 0.62514 0.51643 0.73323 0.0
O147 O 0.61522 0.52622 0.75893 0.0
C148 C 0.64053 0.54964 0.71153 0.0
O149 O 0.6233 0.55157 0.70445 0.0
O150 O 0.63888 0.49177 0.73743 0.0
C151 C 0.60436 0.54065 0.75939 0.0
O152 O 0.5997 0.5492 0.74277 0.0
C153 C 0.58827 0.50446 0.72071 0.0
O154 O 0.58725 0.49926 0.73935 0.0
O155 O 0.64402 0.53582 0.72325 0.0
C156 C 0.02147 0.7786 0.87159 0.0
O157 O 0.03097 0.77433 0.88772 0.0
O158 O 0.00723 0.74292 0.90759 0.0
Zn159 Zn 0.98961 0.75833 0.89048 0.0
O160 O 0.97369 0.77453 0.90836 0.0
C161 C 0.97961 0.73264 0.8593 0.0
O162 O -0.00214 0.73448 0.85602 0.0
O163 O 0.00395 0.77426 0.8705 0.0
C164 C 0.96673 0.76634 0.92356 0.0
O165 O 0.96927 0.74775 0.92621 0.0
C166 C 0.01371 0.75026 0.92357 0.0
O167 O 0.00993 0.76829 0.92793 0.0
O168 O 0.97267 0.74075 0.87442 0.0
C169 C 0.98235 0.27377 0.64916 0.0
O170 O 0.9907 0.28132 0.63363 0.0
O171 O 0.99052 0.2125 0.63401 0.0
Zn172 Zn 0.00156 0.23903 0.63746 0.0
O173 O 0.0054 0.25005 0.61037 0.0
C174 C 0.04077 0.22979 0.64736 0.0
O175 O 0.04181 0.22244 0.62949 0.0
O176 O 0.9844 0.25596 0.65307 0.0
C177 C 0.01882 0.26137 0.60525 0.0
O178 O 0.03197 0.26626 0.61824 0.0
C179 C 0.97655 0.20996 0.62233 0.0
O180 O 0.96869 0.22512 0.61421 0.0
O181 O 0.02553 0.23744 0.65297 0.0
C182 C 0.529 0.25764 0.38598 0.0
O183 O 0.53258 0.26766 0.40214 0.0
O184 O 0.4913 0.23567 0.42378 0.0
Zn185 Zn 0.49084 0.2547 0.40146 0.0
O186 O 0.49226 0.28156 0.41258 0.0
C187 C 0.45216 0.26076 0.38951 0.0
O188 O 0.4515 0.27047 0.40619 0.0
O189 O 0.5125 0.25059 0.38311 0.0
C190 C 0.48882 0.29591 0.4015 0.0
O191 O 0.4852 0.29294 0.38264 0.0
C192 C 0.47915 0.22206 0.42576 0.0
O193 O 0.46557 0.21989 0.41254 0.0
O194 O 0.4672 0.25205 0.38504 0.0
C195 C 0.45346 0.75171 0.15803 0.0
O196 O 0.4563 0.733 0.15752 0.0
O197 O 0.48873 0.72748 0.12862 0.0
Zn198 Zn 0.48886 0.75535 0.1363 0.0
O199 O 0.49061 0.77099 0.11162 0.0
C200 C 0.51199 0.74885 0.16925 0.0
O201 O 0.49861 0.73569 0.17193 0.0
O202 O 0.46533 0.76316 0.15003 0.0
C203 C 0.50445 0.78186 0.10677 0.0
O204 O 0.51936 0.78324 0.11844 0.0
C205 C 0.50398 0.72215 0.12059 0.0
O206 O 0.51777 0.73492 0.11818 0.0
O207 O 0.51089 0.76004 0.15443 0.0
C208 C 0.91745 0.05478 0.74508 0.0
O209 O 0.9326 0.0505 0.75545 0.0
O210 O 0.93166 0.00439 0.71688 0.0
Zn211 Zn 0.91541 0.01356 0.73902 0.0
O212 O 0.92827 0.00941 0.76507 0.0
C213 C 0.88171 -0.00404 0.72283 0.0
O214 O 0.88657 0.00618 0.70725 0.0
O215 O 0.90831 0.04135 0.73618 0.0
C216 C 0.93338 0.99263 0.77019 0.0
O217 O 0.93038 0.97803 0.75805 0.0
C218 C 0.94937 0.00168 0.71814 0.0
O219 O 0.95851 0.00653 0.73444 0.0
O220 O 0.8918 -0.00282 0.73843 0.0
C221 C 0.84263 0.13572 0.49621 0.0
O222 O 0.841 0.15012 0.4837 0.0
O223 O 0.81882 0.17679 0.53273 0.0
Zn224 Zn 0.81118 0.15355 0.51634 0.0
O225 O 0.80022 0.16138 0.49019 0.0
C226 C 0.77574 0.14648 0.53563 0.0
O227 O 0.77272 0.16436 0.53007 0.0
O228 O 0.83234 0.13521 0.51154 0.0
C229 C 0.79575 0.14833 0.47769 0.0
O230 O 0.79823 0.13011 0.48233 0.0
C231 C 0.81128 0.19303 0.52937 0.0
O232 O 0.80001 0.1948 0.51398 0.0
O233 O 0.79133 0.13873 0.5313 0.0
C234 C 0.61402 0.94861 0.28155 0.0
O235 O 0.6029 0.95432 0.29583 0.0
O236 O 0.58526 0.99074 0.24986 0.0
Zn237 Zn 0.60829 0.98711 0.26675 0.0
O238 O 0.60428 0.99518 0.29482 0.0
C239 C 0.63144 0.00377 0.2365 0.0
O240 O 0.62014 0.99335 0.22505 0.0
O241 O 0.6172 0.9598 0.26701 0.0
C242 C 0.5893 0.00223 0.30189 0.0
O243 O 0.57488 0.00566 0.29012 0.0
C244 C 0.57092 0.97955 0.24803 0.0
O245 O 0.56995 0.96354 0.25844 0.0
O246 O 0.62907 0.00339 0.25512 0.0
C247 C 0.69965 0.88563 0.99144 0.0
O248 O 0.70926 0.8852 0.97489 0.0
O249 O 0.73931 0.85279 0.02933 0.0
Zn250 Zn 0.73358 0.86964 0.00615 0.0
O251 O 0.73832 0.85484 0.98123 0.0
C252 C 0.74705 0.90511 0.02201 0.0
O253 O 0.73424 0.90062 0.03531 0.0
O254 O 0.70688 0.87858 0.00703 0.0
C255 C 0.75408 0.8561 0.97236 0.0
O256 O 0.76745 0.86764 0.97945 0.0
C257 C 0.75639 0.84915 0.03377 0.0
O258 O 0.7701 0.85667 0.02307 0.0
O259 O 0.74975 0.89359 0.0077 0.0
C260 C 0.30257 0.63413 0.9741 0.0
O261 O 0.28985 0.63325 0.95984 0.0
O262 O 0.26763 0.6646 0.01878 0.0
Zn263 Zn 0.27168 0.65076 0.99319 0.0
O264 O 0.26384 0.66705 0.97017 0.0
C265 C 0.25969 0.61505 0.00876 0.0
O266 O 0.27331 0.61975 0.0213 0.0
O267 O 0.2984 0.64237 0.99025 0.0
C268 C 0.2469 0.66654 0.96373 0.0
O269 O 0.23438 0.65515 0.97234 0.0
C270 C 0.26324 0.68225 0.02033 0.0
O271 O 0.26242 0.69306 0.0044 0.0
O272 O 0.25606 0.62642 0.99453 0.0
C273 C 0.1485 0.44538 0.78842 0.0
O274 O 0.13124 0.4457 0.7955 0.0
O275 O 0.11767 0.46658 0.74241 0.0
Zn276 Zn 0.13402 0.47596 0.76486 0.0
O277 O 0.11692 0.48195 0.78738 0.0
C278 C 0.15473 0.50269 0.73983 0.0
O279 O 0.15339 0.48864 0.72679 0.0
O280 O 0.15293 0.45661 0.77427 0.0
C281 C 0.10145 0.49084 0.78545 0.0
O282 O 0.0964 0.4973 0.76796 0.0
C283 C 0.10497 0.45352 0.74451 0.0
O284 O 0.1037 0.44427 0.76142 0.0
O285 O 0.1476 0.50031 0.75687 0.0
C286 C 0.18766 0.37278 0.51091 0.0
O287 O 0.1968 0.37081 0.49419 0.0
O288 O 0.22331 0.33533 0.5486 0.0
Zn289 Zn 0.21962 0.35277 0.5253 0.0
O290 O 0.22185 0.33916 0.49925 0.0
C291 C 0.23947 0.38444 0.54263 0.0
O292 O 0.22861 0.37962 0.5576 0.0
O293 O 0.19439 0.36541 0.52659 0.0
C294 C 0.23766 0.33701 0.49077 0.0
O295 O 0.2533 0.34249 0.49995 0.0
C296 C 0.23971 0.32957 0.55332 0.0
O297 O 0.25415 0.33414 0.54202 0.0
O298 O 0.23857 0.37446 0.52686 0.0
C299 C 0.40715 0.59034 0.21976 0.0
O300 O 0.4222 0.58884 0.23115 0.0
O301 O 0.42934 0.5383 0.19959 0.0
Zn302 Zn 0.41021 0.54914 0.21811 0.0
O303 O 0.41957 0.55024 0.24605 0.0
C304 C 0.37984 0.52726 0.20068 0.0
O305 O 0.38654 0.53532 0.18453 0.0
O306 O 0.40074 0.57536 0.21092 0.0
C307 C 0.42374 0.53533 0.25597 0.0
O308 O 0.42288 0.51828 0.2474 0.0
C309 C 0.44652 0.53473 0.20367 0.0
O310 O 0.45375 0.54028 0.22074 0.0
O311 O 0.38776 0.5311 0.21718 0.0
O312 O 0.98629 0.02085 0.01587 0.0
Zn313 Zn 0.98422 0.9919 0.01411 0.0
O314 O 0.96386 0.98204 0.03083 0.0
Zn315 Zn 0.97371 0.96295 0.04962 0.0
Zn316 Zn 0.95235 0.00321 0.04523 0.0
Zn317 Zn 0.94483 0.97023 0.01392 0.0
O318 O 0.96273 0.93607 0.04422 0.0
O319 O 0.94246 0.94213 0.01986 0.0
O320 O 0.00903 0.98177 0.02311 0.0
O321 O 0.00235 0.96219 0.04821 0.0
O322 O 0.96883 0.97114 0.07774 0.0
O323 O 0.95854 0.0011 0.07411 0.0
O324 O 0.92391 0.00352 0.04188 0.0
O325 O 0.9804 0.98512 0.98545 0.0
O326 O 0.91957 0.982 0.01784 0.0
O327 O 0.95146 0.97224 0.98525 0.0
C328 C 0.97669 0.03351 0.02481 0.0
C329 C 0.9502 0.93036 0.03174 0.0
C330 C 0.96421 0.98736 0.08505 0.0
C331 C 0.01428 0.97046 0.03683 0.0
C332 C 0.91314 0.99458 0.02963 0.0
C333 C 0.96627 0.97784 0.97615 0.0
O334 O 0.96299 0.02876 0.03605 0.0
O335 O 0.22371 0.74268 0.22745 0.0
Zn336 Zn 0.22944 0.74445 0.25658 0.0
O337 O 0.23704 0.77079 0.26394 0.0
Zn338 Zn 0.26144 0.77025 0.27752 0.0
Zn339 Zn 0.239 0.78681 0.2402 0.0
Zn340 Zn 0.21852 0.78166 0.28169 0.0
O341 O 0.26038 0.78069 0.30508 0.0
O342 O 0.23058 0.78993 0.30751 0.0
O343 O 0.25077 0.72607 0.26119 0.0
O344 O 0.2723 0.74367 0.27748 0.0
O345 O 0.28056 0.78621 0.26299 0.0
O346 O 0.26594 0.79554 0.23558 0.0
O347 O 0.22288 0.81031 0.24227 0.0
O348 O 0.20634 0.73553 0.27161 0.0
O349 O 0.20723 0.80566 0.27026 0.0
O350 O 0.19786 0.7622 0.28736 0.0
C351 C 0.22523 0.75458 0.21318 0.0
C352 C 0.24718 0.78852 0.31477 0.0
C353 C 0.28076 0.7947 0.24633 0.0
C354 C 0.26684 0.72774 0.26972 0.0
C355 C 0.21071 0.81565 0.25486 0.0
C356 C 0.19505 0.74449 0.28283 0.0
O357 O 0.23088 0.77193 0.21604 0.0
O358 O 0.56256 0.97831 0.56172 0.0
Zn359 Zn 0.55258 0.00255 0.54996 0.0
O360 O 0.56061 0.02481 0.56573 0.0
Zn361 Zn 0.53842 0.03764 0.57619 0.0
Zn362 Zn 0.57738 0.01664 0.5874 0.0
Zn363 Zn 0.57393 0.04287 0.54881 0.0
O364 O 0.53402 0.06356 0.56359 0.0
O365 O 0.55906 0.06675 0.54427 0.0
O366 O 0.5243 -0.00095 0.55026 0.0
O367 O 0.51484 0.02169 0.57104 0.0
O368 O 0.54076 0.04082 0.60543 0.0
O369 O 0.56631 0.02429 0.61369 0.0
O370 O 0.60334 0.0297 0.58551 0.0
O371 O 0.56115 0.00457 0.52174 0.0
O372 O 0.5988 0.05034 0.56077 0.0
O373 O 0.578 0.03192 0.52173 0.0
C374 C 0.57251 0.97422 0.57685 0.0
C375 C 0.54355 0.07307 0.55088 0.0
C376 C 0.55206 0.03428 0.61845 0.0
C377 C 0.51126 0.00718 0.55995 0.0
C378 C 0.60903 0.04368 0.57465 0.0
C379 C 0.5715 0.01698 0.51283 0.0
O380 O 0.57935 0.98743 0.58811 0.0
O381 O 0.24517 0.22699 0.8461 0.0
Zn382 Zn 0.25841 0.24388 0.82579 0.0
O383 O 0.24875 0.23787 0.79916 0.0
Zn384 Zn 0.26965 0.23235 0.78154 0.0
Zn385 Zn 0.23145 0.21563 0.79997 0.0
Zn386 Zn 0.23514 0.25969 0.78877 0.0
O387 O 0.26966 0.24897 0.75709 0.0
O388 O 0.24625 0.26894 0.76329 0.0
O389 O 0.28671 0.24007 0.82728 0.0
O390 O 0.29437 0.2355 0.79582 0.0
O391 O 0.2684 0.20478 0.77268 0.0
O392 O 0.24267 0.19246 0.78686 0.0
O393 O 0.20695 0.22097 0.78599 0.0
O394 O 0.25347 0.27177 0.83311 0.0
O395 O 0.20841 0.25268 0.78151 0.0
O396 O 0.23552 0.2815 0.80793 0.0
C397 C 0.23212 0.21406 0.84469 0.0
C398 C 0.2594 0.26312 0.75213 0.0
C399 C 0.25725 0.19056 0.77613 0.0
C400 C 0.29908 0.2376 0.81391 0.0
C401 C 0.19953 0.23659 0.7801 0.0
C402 C 0.2436 0.28453 0.82452 0.0
O403 O 0.2255 0.20871 0.82796 0.0
O404 O 0.02924 0.00817 0.44469 0.0
Zn405 Zn 0.01649 0.98959 0.46334 0.0
O406 O 0.02382 0.99544 0.49062 0.0
Zn407 Zn 0.03973 0.97543 0.50152 0.0
Zn408 Zn 0.03732 0.02038 0.49163 0.0
Zn409 Zn 0.00102 -0.004 0.50631 0.0
O410 O 0.02963 0.96465 0.52714 0.0
O411 O 0.00075 0.97654 0.52804 0.0
O412 O 0.02389 0.96232 0.45633 0.0
O413 O 0.0413 0.95355 0.48225 0.0
O414 O 0.06565 0.98587 0.50778 0.0
O415 O 0.06374 0.01752 0.50275 0.0
O416 O 0.02318 0.03943 0.5083 0.0
O417 O 0.98833 0.99315 0.45906 0.0
O418 O -0.00123 0.02189 0.51918 0.0
O419 O 0.97772 0.99287 0.48985 0.0
C420 C 0.03751 0.02452 0.44713 0.0
C421 C 0.0135 0.96584 0.53523 0.0
C422 C 0.07301 0.00279 0.50813 0.0
C423 C 0.03415 0.95003 0.46525 0.0
C424 C 0.00815 0.03775 0.51851 0.0
C425 C 0.97472 0.99333 0.47131 0.0
O426 O 0.04071 0.03137 0.46434 0.0
O427 O 0.24945 0.76163 0.7306 0.0
Zn428 Zn 0.22256 0.76682 0.73745 0.0
O429 O 0.20562 0.75284 0.71943 0.0
Zn430 Zn 0.19023 0.77143 0.70526 0.0
Zn431 Zn 0.22015 0.73744 0.70062 0.0
Zn432 Zn 0.18901 0.73627 0.73481 0.0
O433 O 0.16333 0.7715 0.71508 0.0
O434 O 0.16221 0.74534 0.73403 0.0
O435 O 0.22009 0.79546 0.7348 0.0
O436 O 0.20091 0.79831 0.70889 0.0
O437 O 0.1912 0.76688 0.67606 0.0
O438 O 0.21531 0.74695 0.67276 0.0
O439 O 0.21278 0.70896 0.70245 0.0
O440 O 0.21905 0.75895 0.76575 0.0
O441 O 0.19049 0.70901 0.72551 0.0
O442 O 0.1966 0.73625 0.76349 0.0
C443 C 0.25779 0.75106 0.71811 0.0
C444 C 0.15424 0.75989 0.72628 0.0
C445 C 0.20292 0.758 0.66525 0.0
C446 C 0.21197 0.80578 0.72183 0.0
C447 C 0.20061 0.70006 0.71311 0.0
C448 C 0.2084 0.7462 0.77373 0.0
O449 O 0.24847 0.74051 0.70585 0.0
O450 O 0.49766 0.01654 0.05162 0.0
Zn451 Zn 0.50076 0.01842 0.02205 0.0
O452 O 0.47952 0.00572 0.00823 0.0
Zn453 Zn 0.48928 0.98699 0.98966 0.0
Zn454 Zn 0.46276 0.99292 0.0272 0.0
Zn455 Zn 0.46531 0.02449 0.99332 0.0
O456 O 0.47926 0.99047 0.96224 0.0
O457 O 0.46113 0.0161 0.96509 0.0
O458 O 0.52538 0.00563 0.0152 0.0
O459 O 0.51751 0.98737 0.98928 0.0
O460 O 0.4816 0.9603 -0.00224 0.0
O461 O 0.46197 0.96409 0.02288 0.0
O462 O 0.43634 0.00355 0.02607 0.0
O463 O 0.50332 0.04643 0.01393 0.0
O464 O 0.43955 0.02764 0.00462 0.0
O465 O 0.47891 0.05007 0.99347 0.0
C466 C 0.48599 0.00715 0.06242 0.0
C467 C 0.46777 0.00242 0.9548 0.0
C468 C 0.47061 0.95326 0.01081 0.0
C469 C 0.5299 0.99442 0.00111 0.0
C470 C 0.4296 0.01794 0.01683 0.0
C471 C 0.49359 0.05683 0.00226 0.0
O472 O 0.47238 -0.00272 0.05487 0.0
O473 O 0.21587 0.30297 0.23261 0.0
Zn474 Zn 0.24096 0.29445 0.24272 0.0
O475 O 0.26117 0.30669 0.22788 0.0
Zn476 Zn 0.27873 0.28703 0.2191 0.0
Zn477 Zn 0.25102 0.32008 0.20486 0.0
Zn478 Zn 0.27398 0.32485 0.24533 0.0
O479 O 0.30354 0.28882 0.23393 0.0
O480 O 0.30037 0.31612 0.25079 0.0
O481 O 0.24097 0.26586 0.2391 0.0
O482 O 0.2674 0.26029 0.22273 0.0
O483 O 0.28284 0.28844 0.18986 0.0
O484 O 0.25856 0.30604 0.18001 0.0
O485 O 0.26078 0.34784 0.20394 0.0
O486 O 0.24257 0.30048 0.27164 0.0
O487 O 0.27509 0.35114 0.23318 0.0
O488 O 0.26188 0.32611 0.2722 0.0
C489 C 0.21047 0.31251 0.21759 0.0
C490 C 0.31007 0.30154 0.24593 0.0
C491 C 0.27208 0.2947 0.17619 0.0
C492 C 0.25216 0.25425 0.23075 0.0
C493 C 0.26972 0.35814 0.21671 0.0
C494 C 0.2507 0.31434 0.28093 0.0
O495 O 0.22235 0.31983 0.2055 0.0
O496 O 0.50901 0.51268 0.94148 0.0
Zn497 Zn 0.49745 0.49576 0.96247 0.0
O498 O 0.51161 0.49887 0.98718 0.0
Zn499 Zn 0.52442 0.47525 0.99407 0.0
Zn500 Zn 0.53017 0.52001 0.98496 0.0
Zn501 Zn 0.49405 0.50412 0.0081 0.0
O502 O 0.51983 0.46747 0.02254 0.0
O503 O 0.49341 0.48331 0.02848 0.0
O504 O 0.49771 0.46794 0.95332 0.0
O505 O 0.51561 0.45387 0.97613 0.0
O506 O 0.55234 0.47843 0.99016 0.0
O507 O 0.55677 0.51012 0.9868 0.0
O508 O 0.52667 0.5401 0.0061 0.0
O509 O 0.47044 0.50456 0.96534 0.0
O510 O 0.50185 0.52833 0.02235 0.0
O511 O 0.46815 0.50889 -0.00229 0.0
C512 C 0.52029 0.52725 0.94212 0.0
C513 C 0.50569 0.47098 0.03347 0.0
C514 C 0.56324 0.4931 0.98797 0.0
C515 C 0.50548 0.45297 0.96048 0.0
C516 C 0.51474 0.5412 0.02006 0.0
C517 C 0.46087 0.50917 0.98047 0.0
O518 O 0.52843 0.53245 0.95818 0.0
O519 O 0.77637 0.22936 0.23227 0.0
Zn520 Zn 0.75286 0.23438 0.24737 0.0
O521 O 0.7306 0.22637 0.23209 0.0
Zn522 Zn 0.71443 0.24866 0.22775 0.0
Zn523 Zn 0.73826 0.21534 0.20658 0.0
Zn524 Zn 0.71682 0.20714 0.24733 0.0
O525 O 0.68954 0.24578 0.24206 0.0
O526 O 0.6906 0.21576 0.25347 0.0
O527 O 0.7533 0.26285 0.25197 0.0
O528 O 0.72755 0.27334 0.23675 0.0
O529 O 0.70952 0.25245 0.1988 0.0
O530 O 0.72759 0.23092 0.18399 0.0
O531 O 0.72957 0.18736 0.20387 0.0
O532 O 0.7548 0.22103 0.27361 0.0
O533 O 0.7158 0.18202 0.23289 0.0
O534 O 0.72914 0.20214 0.27359 0.0
C535 C 0.77998 0.22248 0.21531 0.0
C536 C 0.68195 0.23159 0.25123 0.0
C537 C 0.71619 0.24497 0.18317 0.0
C538 C 0.7428 0.27659 0.24642 0.0
C539 C 0.72118 0.17613 0.21604 0.0
C540 C 0.74412 0.20858 0.28201 0.0
O541 O 0.76681 0.21637 0.20379 0.0
O542 O 0.98587 0.48388 0.57594 0.0
Zn543 Zn 0.98528 0.49142 0.54752 0.0
O544 O 0.96488 0.47769 0.5337 0.0
Zn545 Zn 0.9753 0.46462 0.51082 0.0
Zn546 Zn 0.95286 0.45871 0.55141 0.0
Zn547 Zn 0.94643 0.49632 0.52477 0.0
O548 O 0.96288 0.47298 0.48575 0.0
O549 O 0.9412 0.49372 0.49543 0.0
O550 O 0.0106 0.48442 0.53653 0.0
O551 O 0.00345 0.46839 0.50899 0.0
O552 O 0.97125 0.436 0.51285 0.0
O553 O 0.95549 0.4317 0.5408 0.0
O554 O 0.9251 0.46425 0.55505 0.0
O555 O 0.98281 0.52023 0.54573 0.0
O556 O 0.92203 0.49219 0.53915 0.0
O557 O 0.95552 0.52358 0.52979 0.0
C558 C 0.97787 0.47063 0.58608 0.0
C559 C 0.94925 0.48416 0.48186 0.0
C560 C 0.96327 0.42494 0.52539 0.0
C561 C 0.01563 0.47573 0.52088 0.0
C562 C 0.91529 0.47871 0.54995 0.0
C563 C 0.97014 0.53089 0.53824 0.0
O564 O 0.96534 0.45934 0.5785 0.0
O565 O 0.74177 0.73017 0.31554 0.0
Zn566 Zn 0.75163 0.75028 0.29643 0.0
O567 O 0.74692 0.74194 0.26919 0.0
Zn568 Zn 0.77048 0.73648 0.25561 0.0
Zn569 Zn 0.73015 0.71928 0.26875 0.0
Zn570 Zn 0.73477 0.76249 0.25536 0.0
O571 O 0.77352 0.75167 0.23017 0.0
O572 O 0.74666 0.76772 0.22939 0.0
O573 O 0.77976 0.75203 0.30143 0.0
O574 O 0.79274 0.74156 0.27363 0.0
O575 O 0.77056 0.70861 0.24748 0.0
O576 O 0.74099 0.69814 0.2521 0.0
O577 O 0.70394 0.72554 0.25917 0.0
O578 O 0.74006 0.77648 0.30209 0.0
O579 O 0.7075 0.75619 0.25021 0.0
O580 O 0.7353 0.78655 0.27128 0.0
C581 C 0.73284 0.71417 0.31311 0.0
C582 C 0.76211 0.76292 0.22143 0.0
C583 C 0.75771 0.69554 0.24581 0.0
C584 C 0.79427 0.74776 0.29133 0.0
C585 C 0.69717 0.74112 0.25235 0.0
C586 C 0.7359 0.78973 0.28979 0.0
O587 O 0.72767 0.70837 0.29601 0.0
O588 O 0.78478 0.26065 0.72584 0.0
Zn589 Zn 0.78485 0.25534 0.75496 0.0
O590 O 0.79258 0.27829 0.76996 0.0
Zn591 Zn 0.81655 0.27391 0.78369 0.0
Zn592 Zn 0.79543 0.30022 0.75185 0.0
Zn593 Zn 0.77325 0.28363 0.78943 0.0
O594 O 0.81452 0.27884 0.81299 0.0
O595 O 0.78406 0.28501 0.81691 0.0
O596 O 0.80325 0.23398 0.75943 0.0
O597 O 0.82546 0.24673 0.77913 0.0
O598 O 0.8367 0.29207 0.77352 0.0
O599 O 0.82144 0.31225 0.75384 0.0
O600 O 0.77609 0.32046 0.75732 0.0
O601 O 0.75876 0.2458 0.76229 0.0
O602 O 0.76115 0.30908 0.78376 0.0
O603 O 0.75228 0.26375 0.78854 0.0
C604 C 0.78835 0.27555 0.71542 0.0
C605 C 0.80065 0.28304 0.82402 0.0
C606 C 0.83657 0.30689 0.76237 0.0
C607 C 0.81871 0.23259 0.76908 0.0
C608 C 0.76349 0.32202 0.77059 0.0
C609 C 0.74792 0.25021 0.7765 0.0
O610 O 0.7927 0.29173 0.72338 0.0
O611 O 0.7342 0.76331 0.73886 0.0
Zn612 Zn 0.75982 0.75357 0.74568 0.0
O613 O 0.77859 0.76421 0.72758 0.0
Zn614 Zn 0.79115 0.74299 0.71447 0.0
Zn615 Zn 0.76636 0.78083 0.70789 0.0
Zn616 Zn 0.79734 0.77887 0.74268 0.0
O617 O 0.81784 0.73979 0.72437 0.0
O618 O 0.82305 0.76698 0.74117 0.0
O619 O 0.75715 0.72483 0.7428 0.0
O620 O 0.77692 0.71793 0.71858 0.0
O621 O 0.79145 0.74723 0.68525 0.0
O622 O 0.772 0.77164 0.68019 0.0
O623 O 0.77608 0.80846 0.71039 0.0
O624 O 0.76519 0.76061 0.77399 0.0
O625 O 0.79839 0.80634 0.73361 0.0
O626 O 0.7907 0.77954 0.77149 0.0
C627 C 0.72726 0.77309 0.72474 0.0
C628 C 0.82881 0.751 0.73428 0.0
C629 C 0.7827 0.75849 0.67361 0.0
C630 C 0.76411 0.71281 0.73073 0.0
C631 C 0.789 0.8162 0.72118 0.0
C632 C 0.77787 0.77147 0.78187 0.0
O633 O 0.73779 0.78038 0.71132 0.0
O634 O 0.44503 0.57114 0.52011 0.0
Zn635 Zn 0.45293 0.54696 0.50633 0.0
O636 O 0.44197 0.52419 0.51911 0.0
Zn637 Zn 0.462 0.50644 0.52618 0.0
Zn638 Zn 0.42843 0.53173 0.54306 0.0
Zn639 Zn 0.4248 0.51141 0.50052 0.0
O640 O 0.46036 0.48184 0.51066 0.0
O641 O 0.43381 0.48484 0.49331 0.0
O642 O 0.48123 0.54679 0.50801 0.0
O643 O 0.48769 0.51857 0.52177 0.0
O644 O 0.46101 0.49977 0.55482 0.0
O645 O 0.44038 0.52011 0.56753 0.0
O646 O 0.40116 0.52242 0.54177 0.0
O647 O 0.44566 0.54848 0.47755 0.0
O648 O 0.3989 0.50894 0.51197 0.0
O649 O 0.42337 0.52562 0.47481 0.0
C650 C 0.43612 0.57447 0.53602 0.0
C651 C 0.44828 0.47521 0.49826 0.0
C652 C 0.45255 0.50688 0.5696 0.0
C653 C 0.49309 0.53469 0.51452 0.0
C654 C 0.39152 0.51373 0.52835 0.0
C655 C 0.43316 0.53937 0.46739 0.0
O656 O 0.42917 0.56073 0.54639 0.0
O657 O 0.02629 0.48239 0.02506 0.0
Zn658 Zn 0.022 0.50977 0.01697 0.0
O659 O 0.03803 0.52761 0.03215 0.0
Zn660 Zn 0.02235 0.54663 0.0457 0.0
Zn661 Zn 0.05333 0.51329 0.05135 0.0
Zn662 Zn 0.05468 0.54074 0.01385 0.0
O663 O 0.02914 0.57411 0.03757 0.0
O664 O 0.0522 0.56924 0.0161 0.0
O665 O 0.99494 0.51504 0.02193 0.0
O666 O 0.99432 0.54128 0.0408 0.0
O667 O 0.02569 0.54401 0.07503 0.0
O668 O 0.04615 0.52033 0.07924 0.0
O669 O 0.08145 0.51771 0.0473 0.0
O670 O 0.026 0.51175 0.98764 0.0
O671 O 0.08158 0.5343 0.01922 0.0
O672 O 0.04892 0.53389 0.98567 0.0
C673 C 0.03717 0.47458 0.03767 0.0
C674 C 0.04162 0.58059 0.02564 0.0
C675 C 0.03503 0.53285 0.08629 0.0
C676 C 0.9858 0.52777 0.03126 0.0
C677 C 0.09032 0.52567 0.03304 0.0
C678 C 0.03722 0.52221 0.97743 0.0
O679 O 0.04835 0.48467 0.04853 0.0
C680 C -0.001 0.19392 0.07366 0.0
C681 C 0.01703 0.20169 0.07814 0.0
C682 C -0.00302 0.17773 0.06156 0.0
C683 C 0.02245 0.13481 0.04674 0.0
H684 H 0.9776 0.12677 0.01409 0.0
C685 C 0.00067 0.05948 0.01715 0.0
C686 C 0.98232 0.05411 0.02324 0.0
C687 C 0.00673 0.0788 0.01804 0.0
C688 C 0.99029 0.12887 0.023 0.0
H689 H 0.04711 0.19895 0.07282 0.0
H690 H 0.04356 0.17046 0.05151 0.0
H691 H 0.9857 0.15918 0.02612 0.0
H692 H 0.95557 0.06486 0.03383 0.0
H693 H 0.96608 0.09855 0.03518 0.0
H694 H 0.02663 0.10435 0.04416 0.0
C695 C 0.031 0.17691 0.05756 0.0
C696 C 0.9949 0.14738 0.02993 0.0
C697 C 0.03303 0.19323 0.06972 0.0
C698 C 0.96983 0.06854 0.02916 0.0
C699 C 0.97579 0.08785 0.02977 0.0
C700 C 0.01792 0.11632 0.03965 0.0
C701 C 0.01294 0.16887 0.05355 0.0
C702 C 0.01055 0.15038 0.04261 0.0
C703 C 0.99444 0.0931 0.02469 0.0
C704 C 0.00137 0.11308 0.02841 0.0
H705 H 0.98635 0.20009 0.07983 0.0
H706 H 0.9829 0.17172 0.05913 0.0
H707 H 0.03452 0.13659 0.05658 0.0
H708 H 0.01063 0.04867 0.01252 0.0
H709 H 0.02115 0.08252 0.01399 0.0
C710 C 0.05028 0.68888 0.36142 0.0
C711 C 0.05466 0.6906 0.38166 0.0
C712 C 0.06471 0.68765 0.34751 0.0
C713 C 0.11704 0.68391 0.34132 0.0
H714 H 0.10916 0.72387 0.3021 0.0
C715 C 0.16361 0.74485 0.29937 0.0
C716 C 0.17823 0.73426 0.29082 0.0
C717 C 0.14779 0.7354 0.30721 0.0
C718 C 0.11152 0.71254 0.31283 0.0
H719 H 0.07745 0.69042 0.40332 0.0
H720 H 0.1026 0.68874 0.37908 0.0
H721 H 0.08273 0.71262 0.32203 0.0
H722 H 0.18769 0.7054 0.28375 0.0
H723 H 0.15997 0.68883 0.29784 0.0
H724 H 0.14622 0.68485 0.33277 0.0
C725 C 0.08806 0.68816 0.3739 0.0
C726 C 0.09633 0.7059 0.32412 0.0
C727 C 0.07362 0.68927 0.38782 0.0
C728 C 0.17663 0.71396 0.29021 0.0
C729 C 0.16083 0.70447 0.2983 0.0
C730 C 0.13228 0.69055 0.32994 0.0
C731 C 0.08379 0.68823 0.35355 0.0
C732 C 0.09904 0.69201 0.33899 0.0
C733 C 0.14626 0.71514 0.30682 0.0
C734 C 0.12975 0.70546 0.31613 0.0
H735 H 0.03577 0.68953 0.35623 0.0
H736 H 0.06097 0.68728 0.33195 0.0
H737 H 0.11952 0.67304 0.35251 0.0
H738 H 0.16435 0.76049 0.30006 0.0
H739 H 0.13691 0.74398 0.31398 0.0
C740 C 0.51106 0.82629 0.6454 0.0
C741 C 0.52222 0.8097 0.64617 0.0
C742 C 0.51833 0.84347 0.63737 0.0
C743 C 0.53369 0.87333 0.60821 0.0
H744 H 0.58431 0.89142 0.62242 0.0
C745 C 0.56651 0.93916 0.57005 0.0
C746 C 0.57337 0.95369 0.58292 0.0
C747 C 0.56296 0.92048 0.57699 0.0
C748 C 0.57018 0.88651 0.61832 0.0
H749 H 0.54978 0.79817 0.63919 0.0
H750 H 0.56238 0.82813 0.62524 0.0
H751 H 0.57172 0.86137 0.63671 0.0
H752 H 0.58346 0.95954 0.61275 0.0
H753 H 0.57727 0.9268 0.62485 0.0
H754 H 0.53196 0.8985 0.59006 0.0
C755 C 0.54808 0.82787 0.63092 0.0
C756 C 0.56301 0.8693 0.6264 0.0
C757 C 0.54078 0.81068 0.63879 0.0
C758 C 0.57816 0.94869 0.60245 0.0
C759 C 0.5746 0.92994 0.6094 0.0
C760 C 0.54089 0.89041 0.60003 0.0
C761 C 0.53693 0.84444 0.63011 0.0
C762 C 0.54465 0.8626 0.6215 0.0
C763 C 0.56622 0.91589 0.59692 0.0
C764 C 0.55919 0.89722 0.60502 0.0
H765 H 0.49673 0.826 0.65101 0.0
H766 H 0.50947 0.85609 0.63707 0.0
H767 H 0.51957 0.86843 0.60402 0.0
H768 H 0.56291 0.94243 0.55484 0.0
H769 H 0.55691 0.90981 0.56693 0.0
C770 C 0.47045 0.22538 0.83808 0.0
C771 C 0.47681 0.22879 0.85752 0.0
C772 C 0.45112 0.22524 0.83363 0.0
C773 C 0.40361 0.22104 0.85589 0.0
H774 H 0.38813 0.24958 0.80936 0.0
C775 C 0.32539 0.23879 0.83911 0.0
C776 C 0.31937 0.23665 0.81935 0.0
C777 C 0.34457 0.2375 0.84408 0.0
C778 C 0.39222 0.24138 0.82229 0.0
H779 H 0.46786 0.23413 0.88765 0.0
H780 H 0.43417 0.234 0.87984 0.0
H781 H 0.42166 0.24697 0.81727 0.0
H782 H 0.32884 0.23138 0.78935 0.0
H783 H 0.36209 0.22897 0.79806 0.0
H784 H 0.37412 0.21548 0.8609 0.0
C785 C 0.4441 0.2313 0.86807 0.0
C786 C 0.41143 0.23985 0.82679 0.0
C787 C 0.46343 0.23148 0.87251 0.0
C788 C 0.33295 0.23322 0.80471 0.0
C789 C 0.35206 0.23192 0.80967 0.0
C790 C 0.38437 0.22254 0.85136 0.0
C791 C 0.43776 0.22847 0.84853 0.0
C792 C 0.41734 0.22965 0.84361 0.0
C793 C 0.3581 0.23406 0.82939 0.0
C794 C 0.37848 0.2327 0.83449 0.0
H795 H 0.48041 0.22318 0.82621 0.0
H796 H 0.44662 0.22273 0.81848 0.0
H797 H 0.40776 0.21293 0.86885 0.0
H798 H 0.3153 0.24146 0.85074 0.0
H799 H 0.34883 0.23941 0.85938 0.0
C800 C 0.0346 0.77878 0.42314 0.0
C801 C 0.02503 0.77463 0.40533 0.0
C802 C 0.03914 0.79785 0.42829 0.0
C803 C 0.04159 0.84825 0.40888 0.0
H804 H 0.03198 0.86123 0.46365 0.0
C805 C 0.02885 0.92584 0.43794 0.0
C806 C 0.03706 0.93079 0.45631 0.0
C807 C 0.03028 0.90706 0.43051 0.0
C808 C 0.03499 0.8578 0.44836 0.0
H809 H 0.01332 0.7871 0.3786 0.0
H810 H 0.0207 0.8204 0.38784 0.0
H811 H 0.02938 0.82777 0.45299 0.0
H812 H 0.05404 0.92011 0.48075 0.0
H813 H 0.05642 0.88748 0.46778 0.0
H814 H 0.04647 0.87861 0.40427 0.0
C815 C 0.02506 0.80895 0.39768 0.0
C816 C 0.03357 0.83859 0.44224 0.0
C817 C 0.02072 0.78985 0.39243 0.0
C818 C 0.04738 0.91679 0.46665 0.0
C819 C 0.04872 0.89806 0.45927 0.0
C820 C 0.04284 0.86755 0.41499 0.0
C821 C 0.034 0.81321 0.41585 0.0
C822 C 0.03675 0.83357 0.42241 0.0
C823 C 0.03986 0.8929 0.44134 0.0
C824 C 0.03947 0.87248 0.43479 0.0
H825 H 0.03832 0.76731 0.43327 0.0
H826 H 0.04642 0.80058 0.44219 0.0
H827 H 0.04436 0.84486 0.39354 0.0
H828 H 0.02087 0.9363 0.42956 0.0
H829 H 0.02322 0.90342 0.41669 0.0
C830 C 0.42683 0.78877 0.70713 0.0
C831 C 0.43862 0.77381 0.70096 0.0
C832 C 0.40765 0.78504 0.71092 0.0
C833 C 0.36887 0.75335 0.69552 0.0
H834 H 0.34368 0.77043 0.74299 0.0
C835 C 0.28912 0.73755 0.70798 0.0
C836 C 0.27874 0.75197 0.71741 0.0
C837 C 0.30892 0.7389 0.70722 0.0
C838 C 0.35039 0.76578 0.7295 0.0
H839 H 0.4396 0.74312 0.6943 0.0
H840 H 0.40611 0.73679 0.70056 0.0
H841 H 0.3777 0.77588 0.73954 0.0
H842 H 0.28098 0.77926 0.7332 0.0
H843 H 0.31512 0.782 0.73119 0.0
H844 H 0.34163 0.74401 0.68497 0.0
C845 C 0.41174 0.75134 0.70255 0.0
C846 C 0.36991 0.76883 0.72762 0.0
C847 C 0.43094 0.75498 0.6991 0.0
C848 C 0.28854 0.76775 0.72601 0.0
C849 C 0.30822 0.76926 0.72497 0.0
C850 C 0.3493 0.7506 0.69722 0.0
C851 C 0.39988 0.76636 0.70827 0.0
C852 C 0.3793 0.7627 0.71059 0.0
C853 C 0.31873 0.75486 0.7156 0.0
C854 C 0.33975 0.75688 0.71419 0.0
H855 H 0.43233 0.80341 0.70869 0.0
H856 H 0.39874 0.79689 0.71525 0.0
H857 H 0.37578 0.74865 0.68214 0.0
H858 H 0.28198 0.72516 0.70131 0.0
H859 H 0.3165 0.72735 0.70014 0.0
C860 C 0.53834 0.21155 0.93181 0.0
C861 C 0.54609 0.20888 0.91295 0.0
C862 C 0.5371 0.19606 0.94506 0.0
C863 C 0.53061 0.14424 0.94103 0.0
H864 H 0.53241 0.14424 -0.00161 0.0
C865 C 0.51803 0.0837 0.0039 0.0
C866 C 0.50025 0.07663 -0.00267 0.0
C867 C 0.52538 0.1012 -0.00337 0.0
C868 C 0.53199 0.14409 0.98237 0.0
H869 H 0.56061 0.18875 0.89399 0.0
H870 H 0.55875 0.16191 0.91718 0.0
H871 H 0.54481 0.1724 0.98003 0.0
H872 H 0.47565 0.08318 0.97924 0.0
H873 H 0.48855 0.11345 0.96657 0.0
H874 H 0.51747 0.11632 0.9432 0.0
C875 C 0.55315 0.17574 0.92155 0.0
C876 C 0.539 0.16013 0.97191 0.0
C877 C 0.55422 0.1911 0.90829 0.0
C878 C 0.48949 0.08801 0.98441 0.0
C879 C 0.49685 0.10536 0.97713 0.0
C880 C 0.52349 0.12843 0.95141 0.0
C881 C 0.54372 0.17778 0.93963 0.0
C882 C 0.53822 0.16038 0.95112 0.0
C883 C 0.51509 0.11177 0.98264 0.0
C884 C 0.52382 0.12831 0.97214 0.0
H885 H 0.53203 0.22515 0.93582 0.0
H886 H 0.52972 0.19805 0.95888 0.0
H887 H 0.5295 0.14409 0.92505 0.0
H888 H 0.52663 0.07532 0.01393 0.0
H889 H 0.53948 0.10592 0.00108 0.0
C890 C 0.04386 0.28388 0.1722 0.0
C891 C 0.04239 0.26677 0.16101 0.0
C892 C 0.06131 0.29009 0.17993 0.0
C893 C 0.11211 0.28556 0.17046 0.0
H894 H 0.1183 0.30926 0.22215 0.0
C895 C 0.18348 0.319 0.19438 0.0
C896 C 0.18996 0.31292 0.21301 0.0
C897 C 0.16454 0.31605 0.18886 0.0
C898 C 0.11678 0.30268 0.20767 0.0
H899 H 0.05787 0.24221 0.15008 0.0
H900 H 0.0883 0.25291 0.16383 0.0
H901 H 0.08719 0.2968 0.2118 0.0
H902 H 0.1813 0.30036 0.24103 0.0
H903 H 0.14845 0.29513 0.23135 0.0
H904 H 0.14171 0.29091 0.16648 0.0
C905 C 0.076 0.26172 0.16627 0.0
C906 C 0.09896 0.29565 0.20171 0.0
C907 C 0.05855 0.2555 0.15855 0.0
C908 C 0.17683 0.30509 0.22649 0.0
C909 C 0.15793 0.30218 0.22099 0.0
C910 C 0.12988 0.2926 0.17639 0.0
C911 C 0.07765 0.27931 0.17664 0.0
C912 C 0.09649 0.28684 0.18311 0.0
C913 C 0.15171 0.30704 0.2019 0.0
C914 C 0.13246 0.30112 0.19511 0.0
H915 H 0.03167 0.29289 0.1744 0.0
H916 H 0.06213 0.30374 0.18777 0.0
H917 H 0.1106 0.27915 0.1559 0.0
H918 H 0.19319 0.32517 0.18368 0.0
H919 H 0.16006 0.32027 0.17416 0.0
C920 C 0.07051 0.01206 0.22253 0.0
C921 C 0.08082 0.02895 0.21769 0.0
C922 C 0.05375 0.00729 0.21249 0.0
C923 C 0.01513 0.02616 0.1825 0.0
H924 H 0.01637 0.97698 0.15508 0.0
C925 C 0.97218 0.01065 0.11212 0.0
C926 C 0.96889 0.99146 0.10599 0.0
C927 C 0.98135 0.0146 0.13004 0.0
C928 C 0.01536 0.99051 0.16302 0.0
H929 H 0.08129 0.0545 0.19916 0.0
H930 H 0.0517 0.04626 0.18176 0.0
H931 H 0.04137 0.98551 0.17842 0.0
H932 H 0.97044 0.96146 0.11492 0.0
H933 H 0.98553 0.96835 0.14672 0.0
H934 H 0.98911 0.03124 0.1672 0.0
C935 C 0.05672 0.03672 0.19329 0.0
C936 C 0.02984 0.99544 0.1763 0.0
C937 C 0.07369 0.04134 0.20311 0.0
C938 C 0.97308 0.97639 0.11911 0.0
C939 C 0.98191 0.98036 0.13726 0.0
C940 C 0.00039 0.02108 0.16949 0.0
C941 C 0.0468 0.0195 0.19768 0.0
C942 C 0.03014 0.01351 0.1857 0.0
C943 C 0.98712 -0.00054 0.14245 0.0
C944 C 0.00063 0.00344 0.15906 0.0
H945 H 0.07564 0.00222 0.23372 0.0
H946 H 0.04631 0.99394 0.21611 0.0
H947 H 0.01499 0.0401 0.1898 0.0
H948 H 0.96911 0.02263 0.10239 0.0
H949 H 0.98515 0.02949 0.13333 0.0
C950 C 0.30721 0.87964 0.45849 0.0
C951 C 0.29501 0.89446 0.46412 0.0
C952 C 0.30305 0.86823 0.4419 0.0
C953 C 0.2725 0.86561 0.39693 0.0
H954 H 0.28018 0.81043 0.40179 0.0
C955 C 0.23922 0.81122 0.34218 0.0
C956 C 0.25179 0.79799 0.33386 0.0
C957 C 0.24467 0.82228 0.3586 0.0
C958 C 0.27807 0.82582 0.40022 0.0
H959 H 0.26918 0.90931 0.45641 0.0
H960 H 0.26175 0.88926 0.42785 0.0
H961 H 0.29031 0.83201 0.42858 0.0
H962 H 0.2795 0.78523 0.33695 0.0
H963 H 0.28886 0.80442 0.36582 0.0
H964 H 0.25988 0.85931 0.36875 0.0
C965 C 0.27471 0.88659 0.43597 0.0
C966 C 0.28397 0.83821 0.41547 0.0
C967 C 0.27894 0.89808 0.45243 0.0
C968 C 0.26952 0.79534 0.34296 0.0
C969 C 0.27488 0.80628 0.35951 0.0
C970 C 0.26644 0.85321 0.38179 0.0
C971 C 0.28654 0.87133 0.43068 0.0
C972 C 0.28117 0.85825 0.41405 0.0
C973 C 0.26268 0.8202 0.36715 0.0
C974 C 0.26908 0.8332 0.38334 0.0
H975 H 0.31976 0.87657 0.46715 0.0
H976 H 0.31266 0.85684 0.43802 0.0
H977 H 0.27045 0.88099 0.39516 0.0
H978 H 0.22546 0.81361 0.33556 0.0
H979 H 0.2349 0.83273 0.36441 0.0
C980 C 0.43502 0.01265 0.73971 0.0
C981 C 0.42352 0.00073 0.72757 0.0
C982 C 0.45385 0.01658 0.73471 0.0
C983 C 0.49254 -7e-05 0.70249 0.0
H984 H 0.50762 0.05408 0.70106 0.0
C985 C 0.53228 0.04859 0.64484 0.0
C986 C 0.54659 0.03583 0.63942 0.0
C987 C 0.52305 0.04639 0.66285 0.0
C988 C 0.50377 0.03886 0.70164 0.0
H989 H 0.42284 0.98328 0.7009 0.0
H990 H 0.45554 0.99036 0.69202 0.0
H991 H 0.47868 0.04435 0.71811 0.0
H992 H 0.56424 0.01249 0.64971 0.0
H993 H 0.54811 0.00872 0.68131 0.0
H994 H 0.51665 0.99456 0.68467 0.0
C995 C 0.45012 -0.00356 0.70557 0.0
C996 C 0.48725 0.03327 0.7115 0.0
C997 C 0.43131 0.99255 0.71053 0.0
C998 C 0.55309 0.0224 0.65337 0.0
C999 C 0.54379 0.02017 0.67144 0.0
C1000 C 0.509 0.00552 0.6926 0.0
C1001 C 0.46157 0.00858 0.71754 0.0
C1002 C 0.481 0.01387 0.71114 0.0
C1003 C 0.52794 0.03138 0.67581 0.0
C1004 C 0.51426 0.02517 0.69119 0.0
H1005 H 0.42946 0.01908 0.75302 0.0
H1006 H 0.46235 0.02592 0.74424 0.0
H1007 H 0.48828 0.98481 0.70238 0.0
H1008 H 0.52717 0.0593 0.63452 0.0
H1009 H 0.5109 0.0553 0.66566 0.0
C1010 C 0.17552 0.14537 0.00179 0.0
C1011 C 0.1843 0.12754 0.00479 0.0
C1012 C 0.17683 0.15473 0.98353 0.0
C1013 C 0.19072 0.14787 0.93105 0.0
H1014 H 0.20534 0.20208 0.93436 0.0
C1015 C 0.23252 0.20874 0.88141 0.0
C1016 C 0.22427 0.20505 0.86279 0.0
C1017 C 0.22518 0.19991 0.89836 0.0
C1018 C 0.20134 0.18694 0.93319 0.0
H1019 H 0.2003 0.10496 0.9906 0.0
H1020 H 0.20275 0.12131 0.95898 0.0
H1021 H 0.19602 0.1848 0.9642 0.0
H1022 H 0.20152 0.18954 0.84746 0.0
H1023 H 0.18863 0.17445 0.877 0.0
H1024 H 0.19693 0.14975 0.90022 0.0
C1025 C 0.19474 0.12806 0.97061 0.0
C1026 C 0.19572 0.1771 0.95025 0.0
C1027 C 0.19342 0.11872 0.98882 0.0
C1028 C 0.20836 0.19258 0.86154 0.0
C1029 C 0.20098 0.18385 0.87848 0.0
C1030 C 0.1964 0.15769 0.91401 0.0
C1031 C 0.18691 0.14641 0.9679 0.0
C1032 C 0.19066 0.15736 0.94943 0.0
C1033 C 0.20938 0.18729 0.89707 0.0
C1034 C 0.20208 0.17726 0.91494 0.0
H1035 H 0.1683 0.1525 0.01377 0.0
H1036 H 0.17037 0.16871 0.98179 0.0
H1037 H 0.18672 0.13273 0.92988 0.0
H1038 H 0.2448 0.21824 0.88289 0.0
H1039 H 0.23216 0.20266 0.91241 0.0
C1040 C 0.09544 0.08546 0.28923 0.0
C1041 C 0.11117 0.07375 0.286 0.0
C1042 C 0.08747 0.0867 0.30804 0.0
C1043 C 0.0654 0.0712 0.3432 0.0
H1044 H 0.09447 0.06778 0.39189 0.0
C1045 C 0.03944 0.02884 0.41049 0.0
C1046 C 0.04391 0.03554 0.4296 0.0
C1047 C 0.04631 0.03857 0.39391 0.0
C1048 C 0.08607 0.06908 0.37851 0.0
H1049 H 0.13169 0.05524 0.30018 0.0
H1050 H 0.11774 0.05725 0.3328 0.0
H1051 H 0.11029 0.07723 0.36136 0.0
H1052 H 0.05862 0.05814 0.44627 0.0
H1053 H 0.07068 0.07511 0.41719 0.0
H1054 H 0.0413 0.06253 0.36023 0.0
C1055 C 0.11158 0.06559 0.32092 0.0
C1056 C 0.09517 0.07432 0.361 0.0
C1057 C 0.11949 0.0643 0.30215 0.0
C1058 C 0.05498 0.05253 0.43175 0.0
C1059 C 0.06193 0.06224 0.41512 0.0
C1060 C 0.05632 0.06595 0.3607 0.0
C1061 C 0.09516 0.07634 0.32396 0.0
C1062 C 0.08505 0.07476 0.34304 0.0
C1063 C 0.05785 0.05521 0.39604 0.0
C1064 C 0.06669 0.06415 0.37838 0.0
H1065 H 0.08878 0.09302 0.27709 0.0
H1066 H 0.07493 0.09526 0.31 0.0
H1067 H 0.05721 0.07129 0.3296 0.0
H1068 H 0.0309 0.01585 0.40828 0.0
H1069 H 0.04315 0.03261 0.37941 0.0
C1070 C 0.24911 0.86015 0.52743 0.0
C1071 C 0.25904 0.87548 0.53674 0.0
C1072 C 0.24165 0.84484 0.53855 0.0
C1073 C 0.23717 0.80963 0.56643 0.0
H1074 H 0.20873 0.82394 0.61288 0.0
C1075 C 0.22132 0.76065 0.63383 0.0
C1076 C 0.20453 0.76392 0.64429 0.0
C1077 C 0.22541 0.77123 0.61672 0.0
C1078 C 0.21637 0.81967 0.59979 0.0
H1079 H 0.26922 0.88663 0.56493 0.0
H1080 H 0.25594 0.85999 0.58437 0.0
H1081 H 0.22199 0.84908 0.5917 0.0
H1082 H 0.17772 0.77876 0.64346 0.0
H1083 H 0.18483 0.79702 0.61359 0.0
H1084 H 0.23191 0.78013 0.57494 0.0
C1085 C 0.25395 0.85987 0.56847 0.0
C1086 C 0.22417 0.83408 0.58783 0.0
C1087 C 0.26162 0.87505 0.55734 0.0
C1088 C 0.19094 0.77616 0.63597 0.0
C1089 C 0.19503 0.7867 0.6189 0.0
C1090 C 0.22952 0.79514 0.57858 0.0
C1091 C 0.24376 0.84472 0.55919 0.0
C1092 C 0.23484 0.82923 0.5712 0.0
C1093 C 0.21275 0.78516 0.6098 0.0
C1094 C 0.21916 0.80005 0.59547 0.0
H1095 H 0.24698 0.86004 0.51156 0.0
H1096 H 0.23379 0.83336 0.53107 0.0
H1097 H 0.24537 0.80554 0.55366 0.0
H1098 H 0.23205 0.75124 0.63974 0.0
H1099 H 0.23917 0.7697 0.60998 0.0
C1100 C 0.38172 0.97138 0.80074 0.0
C1101 C 0.39133 0.96051 0.78653 0.0
C1102 C 0.3897 0.9746 0.81939 0.0
C1103 C 0.42557 0.9587 0.855 0.0
H1104 H 0.42766 0.0129 0.86984 0.0
C1105 C 0.46919 0.98541 0.92218 0.0
C1106 C 0.46074 -0.00079 0.93441 0.0
C1107 C 0.46128 0.98078 0.90377 0.0
C1108 C 0.42701 -0.00232 0.86607 0.0
H1109 H 0.41614 0.94324 0.78127 0.0
H1110 H 0.42999 0.94874 0.81404 0.0
H1111 H 0.41156 0.0031 0.83941 0.0
H1112 H 0.43765 0.01935 0.93664 0.0
H1113 H 0.42368 0.01103 0.90473 0.0
H1114 H 0.44077 0.95321 0.88181 0.0
C1115 C 0.41635 0.95486 0.81062 0.0
C1116 C 0.41779 0.99208 0.84864 0.0
C1117 C 0.40842 0.95174 0.79186 0.0
C1118 C 0.44458 0.00874 0.92754 0.0
C1119 C 0.43659 0.00399 0.9092 0.0
C1120 C 0.43467 0.96428 0.87256 0.0
C1121 C 0.40735 0.96688 0.82428 0.0
C1122 C 0.41693 0.97254 0.84297 0.0
C1123 C 0.44468 0.98974 0.89723 0.0
C1124 C 0.43547 0.98385 0.87831 0.0
H1125 H 0.36844 0.97821 0.79719 0.0
H1126 H 0.38231 0.98362 0.82981 0.0
H1127 H 0.42502 0.94354 0.85099 0.0
H1128 H 0.48174 0.97791 0.92698 0.0
H1129 H 0.4681 0.97005 0.89473 0.0
C1130 C 0.23713 0.16684 0.05819 0.0
C1131 C 0.22802 0.15254 0.06964 0.0
C1132 C 0.24367 0.18405 0.06685 0.0
C1133 C 0.25891 0.2041 0.11458 0.0
H1134 H 0.25035 0.25404 0.09037 0.0
C1135 C 0.28699 0.27172 0.15269 0.0
C1136 C 0.27261 0.28494 0.15671 0.0
C1137 C 0.28446 0.25778 0.13792 0.0
C1138 C 0.25295 0.24018 0.0972 0.0
H1139 H 0.21832 0.14522 0.09909 0.0
H1140 H 0.2298 0.17531 0.11425 0.0
H1141 H 0.23874 0.22454 0.0739 0.0
H1142 H 0.2455 0.29556 0.14655 0.0
H1143 H 0.2411 0.2712 0.12091 0.0
H1144 H 0.27257 0.21956 0.13814 0.0
C1145 C 0.23199 0.1731 0.09858 0.0
C1146 C 0.24637 0.22332 0.08777 0.0
C1147 C 0.22533 0.15593 0.08989 0.0
C1148 C 0.25679 0.28549 0.14398 0.0
C1149 C 0.25425 0.2715 0.12923 0.0
C1150 C 0.26559 0.22088 0.12391 0.0
C1151 C 0.24135 0.18726 0.08717 0.0
C1152 C 0.24902 0.20514 0.09656 0.0
C1153 C 0.26755 0.25682 0.12689 0.0
C1154 C 0.26248 0.23913 0.11547 0.0
H1155 H 0.23937 0.1647 0.04251 0.0
H1156 H 0.25092 0.19465 0.05772 0.0
H1157 H 0.26139 0.19028 0.12156 0.0
H1158 H 0.29951 0.2711 0.16198 0.0
H1159 H 0.29519 0.24694 0.13607 0.0
C1160 C 0.15313 0.05794 0.07644 0.0
C1161 C 0.17118 0.05002 0.07439 0.0
C1162 C 0.137 0.04604 0.07589 0.0
C1163 C 0.11824 -0.00415 0.07696 0.0
H1164 H 0.08334 0.01559 0.03767 0.0
C1165 C 0.04783 0.97459 0.02661 0.0
C1166 C 0.03471 0.96983 0.0414 0.0
C1167 C 0.06637 0.97988 0.03165 0.0
C1168 C 0.09303 0.00975 0.04852 0.0
H1169 H 0.18655 0.02323 0.07205 0.0
H1170 H 0.15826 0.00245 0.07094 0.0
H1171 H 0.11113 0.03468 0.0469 0.0
H1172 H 0.03119 0.96474 0.07281 0.0
H1173 H 0.06367 0.97427 0.08164 0.0
H1174 H 0.0998 0.97082 0.07847 0.0
C1175 C 0.15664 0.01787 0.07295 0.0
C1176 C 0.10879 0.02085 0.05405 0.0
C1177 C 0.17283 0.0298 0.07351 0.0
C1178 C 0.04102 0.96836 0.0611 0.0
C1179 C 0.05961 0.97382 0.06617 0.0
C1180 C 0.10222 0.98475 0.07154 0.0
C1181 C 0.13857 0.02598 0.07328 0.0
C1182 C 0.12155 0.01409 0.06834 0.0
C1183 C 0.07208 0.98069 0.05157 0.0
C1184 C 0.08956 0.99158 0.05714 0.0
H1185 H 0.15137 0.07344 0.07743 0.0
H1186 H 0.12321 0.05262 0.07656 0.0
H1187 H 0.12791 0.99031 0.08799 0.0
H1188 H 0.04342 0.97558 0.01128 0.0
H1189 H 0.07586 0.98468 0.02006 0.0
C1190 C 0.71964 0.43039 0.97857 0.0
C1191 C 0.73364 0.43842 0.99105 0.0
C1192 C 0.70283 0.44018 0.97511 0.0
C1193 C 0.6733 0.47704 -0.00132 0.0
H1194 H 0.64258 0.46901 0.95154 0.0
C1195 C 0.59685 0.50519 0.99006 0.0
C1196 C 0.58376 0.49014 0.98601 0.0
C1197 C 0.61628 0.50208 0.98839 0.0
C1198 C 0.65111 0.47148 0.96471 0.0
H1199 H 0.74176 0.46356 0.00852 0.0
H1200 H 0.71276 0.48102 0.00186 0.0
H1201 H 0.67541 0.45854 0.95194 0.0
H1202 H 0.58065 0.46029 0.97645 0.0
H1203 H 0.61451 0.45503 0.97323 0.0
H1204 H 0.64885 0.48991 0.01139 0.0
C1205 C 0.71439 0.46686 0.99532 0.0
C1206 C 0.66984 0.46538 0.96503 0.0
C1207 C 0.73105 0.45691 -0.00094 0.0
C1208 C 0.59041 0.47211 0.97983 0.0
C1209 C 0.60975 0.46914 0.97779 0.0
C1210 C 0.65468 0.48341 -0.00177 0.0
C1211 C 0.69982 0.45836 0.98379 0.0
C1212 C 0.68098 0.46752 0.98225 0.0
C1213 C 0.62284 0.48404 0.98221 0.0
C1214 C 0.64328 0.48015 0.98147 0.0
H1215 H 0.72124 0.41612 0.97224 0.0
H1216 H 0.69188 0.43301 0.96639 0.0
H1217 H 0.68128 0.47869 0.01232 0.0
H1218 H 0.59211 0.51923 0.99485 0.0
H1219 H 0.62618 0.51374 0.99191 0.0
C1220 C 0.82594 0.43323 0.24294 0.0
C1221 C 0.84281 0.43202 0.23212 0.0
C1222 C 0.81371 0.41728 0.24453 0.0
C1223 C 0.81337 0.36431 0.24148 0.0
H1224 H 0.7588 0.36977 0.24096 0.0
C1225 C 0.74385 0.31134 0.23622 0.0
C1226 C 0.75007 0.2966 0.24885 0.0
C1227 C 0.75362 0.32908 0.23551 0.0
C1228 C 0.774 0.36801 0.24107 0.0
H1229 H 0.85982 0.41325 0.21403 0.0
H1230 H 0.8383 0.38535 0.21662 0.0
H1231 H 0.77922 0.39799 0.23503 0.0
H1232 H 0.77022 0.2895 0.27197 0.0
H1233 H 0.78689 0.32057 0.27111 0.0
H1234 H 0.80825 0.33431 0.247 0.0
C1235 C 0.83471 0.39861 0.22413 0.0
C1236 C 0.7857 0.38419 0.23782 0.0
C1237 C 0.84699 0.41461 0.22255 0.0
C1238 C 0.76524 0.30049 0.26188 0.0
C1239 C 0.77489 0.31823 0.26127 0.0
C1240 C 0.80171 0.34817 0.2447 0.0
C1241 C 0.81803 0.39973 0.23531 0.0
C1242 C 0.80552 0.38251 0.23803 0.0
C1243 C 0.76968 0.33241 0.24752 0.0
C1244 C 0.78189 0.34984 0.24462 0.0
H1245 H 0.82226 0.44643 0.25051 0.0
H1246 H 0.80113 0.41856 0.25346 0.0
H1247 H 0.82857 0.36256 0.24199 0.0
H1248 H 0.73223 0.30877 0.22596 0.0
H1249 H 0.74926 0.3397 0.22473 0.0
C1250 C 0.75328 0.51937 0.54115 0.0
C1251 C 0.75529 0.53949 0.54359 0.0
C1252 C 0.76732 0.50703 0.54815 0.0
C1253 C 0.81098 0.50618 0.57962 0.0
H1254 H 0.82981 0.47223 0.53886 0.0
C1255 C 0.88817 0.49832 0.56068 0.0
C1256 C 0.89556 0.4801 0.55653 0.0
C1257 C 0.86909 0.5002 0.56513 0.0
C1258 C 0.82448 0.4812 0.55065 0.0
H1259 H 0.77305 0.56235 0.55619 0.0
H1260 H 0.79745 0.54108 0.56798 0.0
H1261 H 0.79829 0.48564 0.53547 0.0
H1262 H 0.88907 0.44944 0.55427 0.0
H1263 H 0.85514 0.45289 0.56126 0.0
H1264 H 0.83797 0.50311 0.5938 0.0
C1265 C 0.78503 0.53467 0.56095 0.0
C1266 C 0.80641 0.48889 0.54874 0.0
C1267 C 0.77111 0.54693 0.55393 0.0
C1268 C 0.88365 0.46364 0.55751 0.0
C1269 C 0.86434 0.46559 0.56148 0.0
C1270 C 0.82911 0.49867 0.5814 0.0
C1271 C 0.78351 0.51461 0.55783 0.0
C1272 C 0.79991 0.50231 0.56266 0.0
C1273 C 0.85692 0.48394 0.56511 0.0
C1274 C 0.83633 0.48691 0.56643 0.0
H1275 H 0.74117 0.51321 0.53334 0.0
H1276 H 0.76572 0.49163 0.54561 0.0
H1277 H 0.80617 0.5161 0.59084 0.0
H1278 H 0.89711 0.5112 0.56011 0.0
H1279 H 0.86365 0.51455 0.56759 0.0
C1280 C 0.15972 0.10911 0.1926 0.0
C1281 C 0.16444 0.09385 0.20528 0.0
C1282 C 0.17176 0.12529 0.19098 0.0
C1283 C 0.21951 0.14524 0.20471 0.0
H1284 H 0.19187 0.19254 0.21241 0.0
C1285 C 0.23014 0.22682 0.23861 0.0
C1286 C 0.24599 0.23386 0.22827 0.0
C1287 C 0.22208 0.20886 0.23392 0.0
C1288 C 0.1998 0.17945 0.2103 0.0
H1289 H 0.18619 0.08283 0.22488 0.0
H1290 H 0.2069 0.11106 0.22232 0.0
H1291 H 0.1746 0.16265 0.20534 0.0
H1292 H 0.26653 0.22704 0.20568 0.0
H1293 H 0.25234 0.1955 0.1975 0.0
H1294 H 0.2447 0.16215 0.21054 0.0
C1295 C 0.19403 0.11058 0.21353 0.0
C1296 C 0.18992 0.16236 0.20592 0.0
C1297 C 0.18203 0.09444 0.21514 0.0
C1298 C 0.25432 0.222 0.21395 0.0
C1299 C 0.2462 0.20397 0.20923 0.0
C1300 C 0.22943 0.16243 0.20907 0.0
C1301 C 0.18871 0.12648 0.20199 0.0
C1302 C 0.1996 0.14496 0.20352 0.0
C1303 C 0.22964 0.19753 0.21875 0.0
C1304 C 0.21959 0.17958 0.21243 0.0
H1305 H 0.14636 0.109 0.18465 0.0
H1306 H 0.16744 0.13719 0.18169 0.0
H1307 H 0.22737 0.13209 0.20275 0.0
H1308 H 0.2235 0.23547 0.24988 0.0
H1309 H 0.20961 0.20403 0.24187 0.0
C1310 C 0.34779 0.95427 0.5314 0.0
C1311 C 0.34166 0.93715 0.54072 0.0
C1312 C 0.36588 0.96191 0.53509 0.0
C1313 C 0.41322 0.94814 0.55222 0.0
H1314 H 0.42133 0.00362 0.55604 0.0
C1315 C 0.47724 0.00711 0.57027 0.0
C1316 C 0.49167 -0.00068 0.55865 0.0
C1317 C 0.45884 -0.00058 0.56933 0.0
C1318 C 0.4193 0.98809 0.55521 0.0
H1319 H 0.34961 0.91477 0.56147 0.0
H1320 H 0.38121 0.92826 0.56806 0.0
H1321 H 0.38921 0.99047 0.55301 0.0
H1322 H 0.49801 0.97737 0.53683 0.0
H1323 H 0.46587 0.96419 0.53497 0.0
H1324 H 0.4433 0.94575 0.55463 0.0
C1325 C 0.37207 0.93562 0.5577 0.0
C1326 C 0.40091 0.98057 0.55326 0.0
C1327 C 0.35394 0.92795 0.554 0.0
C1328 C 0.48726 0.9837 0.54603 0.0
C1329 C 0.46886 0.97603 0.54506 0.0
C1330 C 0.43161 0.95566 0.55418 0.0
C1331 C 0.37825 0.95265 0.54822 0.0
C1332 C 0.39768 0.96053 0.55152 0.0
C1333 C 0.45445 0.98378 0.55672 0.0
C1334 C 0.43487 0.97573 0.5555 0.0
H1335 H 0.33871 0.96171 0.52105 0.0
H1336 H 0.3703 0.97488 0.52731 0.0
H1337 H 0.41122 0.93265 0.55075 0.0
H1338 H 0.48015 0.01908 0.58024 0.0
H1339 H 0.4481 0.00557 0.57867 0.0
C1340 C 0.81215 0.53743 0.25321 0.0
C1341 C 0.82461 0.52969 0.23935 0.0
C1342 C 0.80151 0.55359 0.24849 0.0
C1343 C 0.80252 0.59535 0.21474 0.0
H1344 H 0.75561 0.60617 0.24162 0.0
C1345 C 0.74866 0.66238 0.23362 0.0
C1346 C 0.76271 0.67649 0.23769 0.0
C1347 C 0.75367 0.64371 0.22804 0.0
C1348 C 0.76846 0.60334 0.23357 0.0
H1349 H 0.83489 0.53196 0.20929 0.0
H1350 H 0.81582 0.5598 0.20078 0.0
H1351 H 0.76793 0.57367 0.2423 0.0
H1352 H 0.793 0.68234 0.2382 0.0
H1353 H 0.80172 0.64986 0.22926 0.0
H1354 H 0.80293 0.62495 0.2058 0.0
C1355 C 0.81469 0.55381 0.21552 0.0
C1356 C 0.77571 0.58472 0.23425 0.0
C1357 C 0.82558 0.53783 0.22037 0.0
C1358 C 0.78181 0.67183 0.23517 0.0
C1359 C 0.78681 0.65316 0.22984 0.0
C1360 C 0.79511 0.61388 0.21377 0.0
C1361 C 0.80285 0.56217 0.22967 0.0
C1362 C 0.79326 0.58072 0.22562 0.0
C1363 C 0.77284 0.63874 0.22663 0.0
C1364 C 0.77846 0.61832 0.22395 0.0
H1365 H 0.81114 0.53147 0.26798 0.0
H1366 H 0.79285 0.55979 0.25993 0.0
H1367 H 0.81609 0.5929 0.20791 0.0
H1368 H 0.7338 0.6656 0.23519 0.0
H1369 H 0.74254 0.63305 0.22533 0.0
C1370 C 0.64633 0.45144 0.7712 0.0
C1371 C 0.64849 0.46373 0.7548 0.0
C1372 C 0.65868 0.43612 0.77415 0.0
C1373 C 0.70642 0.4203 0.76103 0.0
H1374 H 0.68781 0.36917 0.77529 0.0
C1375 C 0.75255 0.35293 0.75546 0.0
C1376 C 0.75095 0.33891 0.7704 0.0
C1377 C 0.74024 0.36848 0.75486 0.0
C1378 C 0.69325 0.38344 0.77159 0.0
H1379 H 0.66506 0.46931 0.72841 0.0
H1380 H 0.68642 0.4426 0.73351 0.0
H1381 H 0.66558 0.3956 0.77183 0.0
H1382 H 0.73532 0.33043 0.79664 0.0
H1383 H 0.71399 0.35769 0.79566 0.0
H1384 H 0.73405 0.4082 0.76068 0.0
C1385 C 0.67538 0.44496 0.74424 0.0
C1386 C 0.68052 0.39855 0.76959 0.0
C1387 C 0.66304 0.46019 0.74126 0.0
C1388 C 0.73691 0.34093 0.78488 0.0
C1389 C 0.72461 0.35649 0.78427 0.0
C1390 C 0.71914 0.40524 0.76306 0.0
C1391 C 0.67345 0.43288 0.76079 0.0
C1392 C 0.68696 0.41706 0.76403 0.0
C1393 C 0.72607 0.37037 0.76919 0.0
C1394 C 0.71267 0.38659 0.76812 0.0
H1395 H 0.63526 0.4538 0.7819 0.0
H1396 H 0.65692 0.42707 0.78709 0.0
H1397 H 0.71183 0.43453 0.7571 0.0
H1398 H 0.76315 0.3518 0.74404 0.0
H1399 H 0.74157 0.37879 0.74289 0.0
C1400 C 0.96146 0.77253 0.95942 0.0
C1401 C 0.95892 0.77812 0.93961 0.0
C1402 C 0.95646 0.78493 0.97477 0.0
C1403 C 0.9279 0.82578 0.98872 0.0
H1404 H 0.97232 0.84652 0.01588 0.0
C1405 C 0.93255 0.90353 0.01478 0.0
C1406 C 0.94574 0.90949 0.02929 0.0
C1407 C 0.9306 0.88412 0.00958 0.0
C1408 C 0.95959 0.8406 0.00904 0.0
H1409 H 0.94828 0.80041 0.92025 0.0
H1410 H 0.93891 0.82184 0.94718 0.0
H1411 H 0.97496 0.81779 0.99541 0.0
H1412 H 0.96592 0.89945 0.05112 0.0
H1413 H 0.96211 0.86531 0.04244 0.0
H1414 H 0.91246 0.84856 0.00209 0.0
C1415 C 0.94493 0.80796 0.95076 0.0
C1416 C 0.96118 0.82417 -0.0028 0.0
C1417 C 0.95037 0.7958 0.9354 0.0
C1418 C 0.9558 0.89536 0.03969 0.0
C1419 C 0.9537 0.8758 0.03461 0.0
C1420 C 0.92618 0.84194 0.00093 0.0
C1421 C 0.94838 0.80282 0.97052 0.0
C1422 C 0.94554 0.81719 0.98629 0.0
C1423 C 0.94162 0.87003 0.01893 0.0
C1424 C 0.94223 0.85018 0.01041 0.0
H1425 H 0.9682 0.75903 0.96305 0.0
H1426 H 0.95934 0.78079 0.98993 0.0
H1427 H 0.91563 0.82046 0.98054 0.0
H1428 H 0.92439 0.91396 0.00656 0.0
H1429 H 0.92133 0.88047 -0.00272 0.0
C1430 C 0.96714 0.27964 0.68171 0.0
C1431 C 0.97129 0.28603 0.6625 0.0
C1432 C 0.95642 0.29093 0.69432 0.0
C1433 C 0.918 0.32374 0.6926 0.0
H1434 H 0.927 0.32649 0.74918 0.0
C1435 C 0.85533 0.33138 0.74305 0.0
C1436 C 0.85479 0.31626 0.75693 0.0
C1437 C 0.87242 0.33691 0.73424 0.0
C1438 C 0.92431 0.32602 0.7334 0.0
H1439 H 0.96789 0.30946 0.64156 0.0
H1440 H 0.94849 0.32901 0.66355 0.0
H1441 H 0.95277 0.31786 0.72714 0.0
H1442 H 0.87204 0.29681 0.77424 0.0
H1443 H 0.9015 0.30592 0.75859 0.0
H1444 H 0.88924 0.33008 0.69875 0.0
C1445 C 0.95382 0.31535 0.66884 0.0
C1446 C 0.93907 0.32114 0.72081 0.0
C1447 C 0.96484 0.30415 0.65628 0.0
C1448 C 0.8719 0.30831 0.76339 0.0
C1449 C 0.88892 0.31372 0.75449 0.0
C1450 C 0.90319 0.32839 0.70518 0.0
C1451 C 0.94942 0.30875 0.68792 0.0
C1452 C 0.93575 0.319 0.70042 0.0
C1453 C 0.88922 0.32732 0.73904 0.0
C1454 C 0.90592 0.32852 0.72582 0.0
H1455 H 0.97205 0.26581 0.68698 0.0
H1456 H 0.95294 0.28533 0.70883 0.0
H1457 H 0.91505 0.32213 0.67693 0.0
H1458 H 0.84243 0.33809 0.73802 0.0
H1459 H 0.87225 0.34779 0.72274 0.0
C1460 C 0.47048 0.19079 0.44227 0.0
C1461 C 0.48108 0.20817 0.44219 0.0
C1462 C 0.4737 0.17687 0.45679 0.0
C1463 C 0.49613 0.168 0.50542 0.0
H1464 H 0.50768 0.11797 0.48305 0.0
C1465 C 0.54372 0.09843 0.5247 0.0
C1466 C 0.53558 0.09068 0.54194 0.0
C1467 C 0.53497 0.11334 0.51454 0.0
C1468 C 0.50435 0.13183 0.4895 0.0
H1469 H 0.50252 0.2251 0.45795 0.0
H1470 H 0.50811 0.20078 0.48326 0.0
H1471 H 0.4946 0.14298 0.46188 0.0
H1472 H 0.51241 0.09331 0.56264 0.0
H1473 H 0.4973 0.11991 0.5449 0.0
H1474 H 0.5064 0.15677 0.53301 0.0
C1475 C 0.49732 0.19794 0.47212 0.0
C1476 C 0.49672 0.14607 0.47745 0.0
C1477 C 0.49423 0.21178 0.45751 0.0
C1478 C 0.51899 0.09892 0.54936 0.0
C1479 C 0.51035 0.11411 0.53927 0.0
C1480 C 0.50355 0.1536 0.51757 0.0
C1481 C 0.48743 0.18016 0.47161 0.0
C1482 C 0.49294 0.16444 0.48517 0.0
C1483 C 0.51804 0.12103 0.5215 0.0
C1484 C 0.50817 0.1356 0.50954 0.0
H1485 H 0.46016 0.18764 0.43074 0.0
H1486 H 0.4658 0.16331 0.45617 0.0
H1487 H 0.49325 0.18204 0.51172 0.0
H1488 H 0.55649 0.09249 0.51857 0.0
H1489 H 0.54126 0.11866 0.50098 0.0
C1490 C 0.54277 0.76399 0.17998 0.0
C1491 C 0.52885 0.74942 0.18223 0.0
C1492 C 0.55947 0.76356 0.1911 0.0
C1493 C 0.59061 0.72924 0.2147 0.0
H1494 H 0.61488 0.775 0.23717 0.0
C1495 C 0.66436 0.72666 0.25169 0.0
C1496 C 0.6769 0.74193 0.24694 0.0
C1497 C 0.6452 0.72763 0.24658 0.0
C1498 C 0.60833 0.76212 0.23086 0.0
H1499 H 0.52117 0.72339 0.19841 0.0
H1500 H 0.55046 0.7226 0.21771 0.0
H1501 H 0.58294 0.77702 0.22343 0.0
H1502 H 0.67917 0.77018 0.23311 0.0
H1503 H 0.646 0.77163 0.2238 0.0
H1504 H 0.61617 0.71447 0.22136 0.0
C1505 C 0.54844 0.73428 0.20728 0.0
C1506 C 0.59004 0.76328 0.22307 0.0
C1507 C 0.53167 0.73478 0.19628 0.0
C1508 C 0.66988 0.75819 0.23707 0.0
C1509 C 0.6508 0.7591 0.23187 0.0
C1510 C 0.60894 0.72811 0.22235 0.0
C1511 C 0.5626 0.74849 0.20456 0.0
C1512 C 0.58114 0.74692 0.21464 0.0
C1513 C 0.63824 0.74384 0.23654 0.0
C1514 C 0.61813 0.74461 0.23019 0.0
H1515 H 0.54097 0.77549 0.16931 0.0
H1516 H 0.57024 0.77461 0.18858 0.0
H1517 H 0.58415 0.71646 0.20806 0.0
H1518 H 0.6693 0.71399 0.25943 0.0
H1519 H 0.63583 0.71572 0.25057 0.0
C1520 C 0.98121 0.17428 0.62297 0.0
C1521 C 0.9719 0.19031 0.61502 0.0
C1522 C 0.97989 0.15633 0.61361 0.0
C1523 C 0.97443 0.13783 0.56366 0.0
H1524 H 0.97742 0.08794 0.58947 0.0
C1525 C 0.00995 0.07283 0.52769 0.0
C1526 C 0.00115 0.05456 0.52963 0.0
C1527 C 0.00313 0.08871 0.538 0.0
C1528 C 0.97636 0.10174 0.58201 0.0
H1529 H 0.95247 0.19969 0.59211 0.0
H1530 H 0.95011 0.16825 0.57581 0.0
H1531 H 0.96911 0.11642 0.60874 0.0
H1532 H 0.97828 0.03867 0.54398 0.0
H1533 H 0.96647 0.06644 0.56201 0.0
H1534 H 0.98206 0.12327 0.53704 0.0
C1535 C 0.95869 0.1697 0.58908 0.0
C1536 C 0.97171 0.11803 0.59306 0.0
C1537 C 0.95998 0.18766 0.59849 0.0
C1538 C 0.98541 0.05254 0.54215 0.0
C1539 C 0.97866 0.06841 0.55254 0.0
C1540 C 0.97914 0.12158 0.55265 0.0
C1541 C 0.96922 0.15406 0.59612 0.0
C1542 C 0.97111 0.13631 0.58407 0.0
C1543 C 0.98743 0.08665 0.55054 0.0
C1544 C 0.98058 0.10346 0.56181 0.0
H1545 H 0.99039 0.17581 0.63579 0.0
H1546 H 0.98825 0.1446 0.61935 0.0
H1547 H 0.9743 0.15174 0.55634 0.0
H1548 H 0.02209 0.0749 0.51817 0.0
H1549 H 0.01034 0.10256 0.5364 0.0
C1550 C 0.56237 0.2618 0.37414 0.0
C1551 C 0.54371 0.25518 0.3708 0.0
C1552 C 0.57612 0.25967 0.35957 0.0
C1553 C 0.58669 0.23135 0.31473 0.0
H1554 H 0.62455 0.27176 0.30654 0.0
C1555 C 0.65426 0.25183 0.26067 0.0
C1556 C 0.66348 0.23399 0.26107 0.0
C1557 C 0.63805 0.25466 0.27199 0.0
C1558 C 0.61392 0.26045 0.30842 0.0
H1559 H 0.5248 0.24125 0.34947 0.0
H1560 H 0.54866 0.23782 0.32404 0.0
H1561 H 0.59954 0.27657 0.33056 0.0
H1562 H 0.66234 0.20486 0.27301 0.0
H1563 H 0.63438 0.20988 0.29284 0.0
H1564 H 0.60092 0.21533 0.29241 0.0
C1565 C 0.55279 0.24436 0.33801 0.0
C1566 C 0.59975 0.26309 0.32242 0.0
C1567 C 0.53909 0.24641 0.35259 0.0
C1568 C 0.65565 0.21881 0.27235 0.0
C1569 C 0.6395 0.22165 0.28366 0.0
C1570 C 0.60081 0.22874 0.30069 0.0
C1571 C 0.57147 0.25094 0.34133 0.0
C1572 C 0.5861 0.24848 0.3259 0.0
C1573 C 0.63073 0.23971 0.28393 0.0
C1574 C 0.61474 0.24315 0.29755 0.0
H1575 H 0.56639 0.26858 0.38803 0.0
H1576 H 0.59045 0.26463 0.36272 0.0
H1577 H 0.57649 0.21973 0.31714 0.0
H1578 H 0.65985 0.2638 0.25207 0.0
H1579 H 0.63142 0.26865 0.27163 0.0
C1580 C 0.51465 0.81062 0.08688 0.0
C1581 C 0.5025 0.79456 0.0894 0.0
C1582 C 0.51082 0.8243 0.07229 0.0
C1583 C 0.46977 0.84368 0.04662 0.0
H1584 H 0.50788 0.87556 0.02081 0.0
C1585 C 0.46034 0.92381 0.02961 0.0
C1586 C 0.46957 0.93204 0.01325 0.0
C1587 C 0.4622 0.9042 0.0338 0.0
C1588 C 0.49698 0.86659 0.02755 0.0
H1589 H 0.47783 0.77926 0.07752 0.0
H1590 H 0.47133 0.803 0.05193 0.0
H1591 H 0.51706 0.84554 0.03672 0.0
H1592 H 0.48663 0.9258 0.98748 0.0
H1593 H 0.48973 0.89154 0.99479 0.0
H1594 H 0.44978 0.86497 0.03787 0.0
C1595 C 0.48352 0.80529 0.06151 0.0
C1596 C 0.5023 0.84952 0.03685 0.0
C1597 C 0.48728 0.79168 0.07614 0.0
C1598 C 0.47953 0.91997 0.00036 0.0
C1599 C 0.48138 0.90035 0.00456 0.0
C1600 C 0.46446 0.86074 0.0373 0.0
C1601 C 0.49485 0.82208 0.05989 0.0
C1602 C 0.48886 0.83822 0.04704 0.0
C1603 C 0.47328 0.89242 0.02169 0.0
C1604 C 0.47811 0.87269 0.02825 0.0
H1605 H 0.52651 0.81319 0.09683 0.0
H1606 H 0.51975 0.83717 0.07153 0.0
H1607 H 0.45907 0.83539 0.05446 0.0
H1608 H 0.4525 0.93268 0.03979 0.0
H1609 H 0.45591 0.89856 0.04722 0.0
C1610 C 0.94734 0.72279 0.84719 0.0
C1611 C 0.96685 0.72481 0.84371 0.0
C1612 C 0.93478 0.71913 0.83154 0.0
C1613 C 0.91081 0.70734 0.79592 0.0
H1614 H 0.91883 0.74568 0.75486 0.0
C1615 C 0.86145 0.75792 0.74717 0.0
C1616 C 0.848 0.74457 0.73968 0.0
C1617 C 0.87852 0.75158 0.75513 0.0
C1618 C 0.91652 0.73472 0.76605 0.0
H1619 H 0.98866 0.72297 0.82136 0.0
H1620 H 0.96665 0.7167 0.79402 0.0
H1621 H 0.9439 0.73966 0.77892 0.0
H1622 H 0.84235 0.71419 0.73363 0.0
H1623 H 0.87217 0.70311 0.74787 0.0
H1624 H 0.88299 0.70327 0.78372 0.0
C1625 C 0.9611 0.7181 0.80883 0.0
C1626 C 0.93092 0.73114 0.77974 0.0
C1627 C 0.97368 0.72162 0.82452 0.0
C1628 C 0.85243 0.72483 0.73931 0.0
C1629 C 0.86944 0.71846 0.74752 0.0
C1630 C 0.89645 0.71083 0.78213 0.0
C1631 C 0.94148 0.71751 0.81209 0.0
C1632 C 0.92793 0.71797 0.79528 0.0
C1633 C 0.88243 0.73175 0.75593 0.0
C1634 C 0.89892 0.7251 0.76756 0.0
H1635 H 0.94164 0.72504 0.86182 0.0
H1636 H 0.91973 0.71889 0.83452 0.0
H1637 H 0.90819 0.697 0.80764 0.0
H1638 H 0.8585 0.77322 0.74757 0.0
H1639 H 0.88817 0.76216 0.76168 0.0
C1640 C 0.94347 0.00493 0.80342 0.0
C1641 C 0.94183 0.98952 0.78994 0.0
C1642 C 0.9502 0.00183 0.82256 0.0
C1643 C 0.95377 0.96336 0.85951 0.0
H1644 H 0.98182 0.00296 0.88858 0.0
C1645 C 0.98317 0.98163 0.94384 0.0
C1646 C 0.96681 0.97625 0.95436 0.0
C1647 C 0.98326 0.98093 0.92318 0.0
C1648 C 0.97427 0.99158 0.88064 0.0
H1649 H 0.94676 0.95894 0.78566 0.0
H1650 H 0.95877 0.95358 0.8191 0.0
H1651 H 0.97745 0.00625 0.85301 0.0
H1652 H 0.93785 0.9655 0.95142 0.0
H1653 H 0.9379 0.96469 0.91556 0.0
H1654 H 0.95057 0.94869 0.88713 0.0
C1655 C 0.95452 0.96799 0.81494 0.0
C1656 C 0.97157 0.99359 0.86028 0.0
C1657 C 0.94771 0.97108 0.79577 0.0
C1658 C 0.95071 0.96974 0.94381 0.0
C1659 C 0.95079 0.96911 0.92321 0.0
C1660 C 0.95656 0.9613 0.87984 0.0
C1661 C 0.95555 0.98328 0.82864 0.0
C1662 C 0.96082 0.97978 0.8496 0.0
C1663 C 0.96699 0.97488 0.91264 0.0
C1664 C 0.96636 0.97566 0.89073 0.0
H1665 H 0.93909 0.01933 0.79939 0.0
H1666 H 0.95053 0.01388 0.83281 0.0
H1667 H 0.94533 0.9525 0.85177 0.0
H1668 H -0.00414 0.98658 0.95152 0.0
H1669 H -0.00397 0.98526 0.91547 0.0
C1670 C 0.82384 0.20646 0.56138 0.0
C1671 C 0.8123 0.20847 0.54452 0.0
C1672 C 0.82236 0.2193 0.57723 0.0
C1673 C 0.78638 0.24776 0.60081 0.0
H1674 H 0.82769 0.26455 0.63516 0.0
C1675 C 0.79981 0.2862 0.68209 0.0
C1676 C 0.78879 0.2735 0.69368 0.0
C1677 C 0.80216 0.28266 0.66189 0.0
C1678 C 0.81601 0.26026 0.62556 0.0
H1679 H 0.79115 0.22637 0.53049 0.0
H1680 H 0.78852 0.24867 0.55826 0.0
H1681 H 0.8346 0.25087 0.60267 0.0
H1682 H 0.77074 0.2478 0.69302 0.0
H1683 H 0.77459 0.24184 0.65778 0.0
H1684 H 0.76783 0.25632 0.62403 0.0
C1685 C 0.79858 0.23707 0.55924 0.0
C1686 C 0.81997 0.2523 0.60706 0.0
C1687 C 0.80016 0.22433 0.54332 0.0
C1688 C 0.77938 0.2578 0.6845 0.0
C1689 C 0.78149 0.25445 0.6643 0.0
C1690 C 0.78244 0.25551 0.61936 0.0
C1691 C 0.80924 0.23433 0.57658 0.0
C1692 C 0.8052 0.24554 0.59471 0.0
C1693 C 0.79323 0.26658 0.65289 0.0
C1694 C 0.79723 0.26137 0.63211 0.0
H1695 H 0.8334 0.19446 0.56273 0.0
H1696 H 0.83068 0.21674 0.59046 0.0
H1697 H 0.7747 0.24251 0.5917 0.0
H1698 H 0.80728 0.29838 0.68878 0.0
H1699 H 0.81123 0.29226 0.65338 0.0
C1700 C 0.60251 -0.0011 0.33602 0.0
C1701 C 0.58783 0.00502 0.32349 0.0
C1702 C 0.60085 0.00039 0.35649 0.0
C1703 C 0.57623 0.02589 0.39587 0.0
H1704 H 0.59033 0.98168 0.42765 0.0
C1705 C 0.56862 -0.00191 0.48126 0.0
C1706 C 0.57493 0.01478 0.4914 0.0
C1707 C 0.57055 -0.00328 0.46077 0.0
C1708 C 0.58626 0.99409 0.41896 0.0
H1709 H 0.56007 0.0179 0.32261 0.0
H1710 H 0.55724 0.0206 0.35854 0.0
H1711 H 0.59249 0.97994 0.39168 0.0
H1712 H 0.58859 0.04294 0.48797 0.0
H1713 H 0.59196 0.04047 0.45224 0.0
H1714 H 0.56991 0.04 0.42317 0.0
C1715 C 0.57001 0.01467 0.35241 0.0
C1716 C 0.58764 0.99317 0.39841 0.0
C1717 C 0.57161 0.01306 0.33187 0.0
C1718 C 0.58356 0.02988 0.48064 0.0
C1719 C 0.58537 0.02855 0.46015 0.0
C1720 C 0.57497 0.02687 0.41644 0.0
C1721 C 0.58454 0.00812 0.3649 0.0
C1722 C 0.58269 0.00907 0.38667 0.0
C1723 C 0.57871 0.01205 0.44999 0.0
C1724 C 0.58001 0.01099 0.42818 0.0
H1725 H 0.61522 0.99266 0.33007 0.0
H1726 H 0.61239 0.9955 0.36575 0.0
H1727 H 0.57242 0.03839 0.38717 0.0
H1728 H 0.5619 0.9862 0.48909 0.0
H1729 H 0.5652 0.98387 0.45328 0.0
C1730 C 0.74591 0.82835 0.06189 0.0
C1731 C 0.76071 0.83679 0.05096 0.0
C1732 C 0.74981 0.8171 0.07844 0.0
C1733 C 0.7855 0.81005 0.11695 0.0
H1734 H 0.75265 0.76633 0.12957 0.0
C1735 C 0.78405 0.76843 0.19268 0.0
C1736 C 0.76591 0.76946 0.20104 0.0
C1737 C 0.78698 0.7741 0.17302 0.0
C1738 C 0.7621 0.77834 0.12611 0.0
H1739 H 0.79124 0.8398 0.04861 0.0
H1740 H 0.79805 0.82004 0.07769 0.0
H1741 H 0.75134 0.78054 0.09661 0.0
H1742 H 0.73667 0.77715 0.19535 0.0
H1743 H 0.74179 0.78662 0.16126 0.0
H1744 H 0.79574 0.8081 0.14684 0.0
C1745 C 0.78344 0.82226 0.07343 0.0
C1746 C 0.76128 0.78655 0.10734 0.0
C1747 C 0.77953 0.83352 0.05678 0.0
C1748 C 0.75085 0.77624 0.18944 0.0
C1749 C 0.75371 0.78152 0.16986 0.0
C1750 C 0.78642 0.80169 0.13576 0.0
C1751 C 0.7686 0.81399 0.08446 0.0
C1752 C 0.77235 0.80302 0.10284 0.0
C1753 C 0.77173 0.78042 0.16145 0.0
C1754 C 0.77415 0.7863 0.14067 0.0
H1755 H 0.73126 0.8306 0.05784 0.0
H1756 H 0.73804 0.81127 0.08685 0.0
H1757 H 0.79417 0.82276 0.11394 0.0
H1758 H 0.79591 0.76328 0.20129 0.0
H1759 H 0.80102 0.77327 0.16678 0.0
C1760 C 0.94874 0.98504 0.6854 0.0
C1761 C 0.95914 0.9917 0.70191 0.0
C1762 C 0.95765 0.9752 0.6702 0.0
C1763 C 0.00328 0.97111 0.6463 0.0
H1764 H 0.97649 0.93083 0.61689 0.0
C1765 C 0.02545 0.95373 0.56775 0.0
C1766 C 0.01021 0.95702 0.55478 0.0
C1767 C 0.02215 0.95027 0.58781 0.0
C1768 C 0.98428 0.94187 0.62508 0.0
H1769 H 0.98703 0.99303 0.71553 0.0
H1770 H 0.00269 0.97592 0.68869 0.0
H1771 H 0.96506 0.94047 0.64937 0.0
H1772 H 0.97961 0.95702 0.55206 0.0
H1773 H 0.97386 0.95094 0.58686 0.0
H1774 H 0.02184 0.97334 0.62158 0.0
C1775 C 0.98762 0.97836 0.68762 0.0
C1776 C 0.97771 0.94746 0.64361 0.0
C1777 C 0.97866 0.98818 0.70294 0.0
C1778 C 0.99164 0.95474 0.56177 0.0
C1779 C 0.98835 0.95109 0.58172 0.0
C1780 C 0.00988 0.96551 0.62779 0.0
C1781 C 0.97718 0.97178 0.67108 0.0
C1782 C 0.9866 0.96279 0.65394 0.0
C1783 C 0.00357 0.9498 0.59512 0.0
C1784 C -0.00011 0.9515 0.61658 0.0
H1785 H 0.93368 0.98747 0.68413 0.0
H1786 H 0.94928 0.97073 0.65746 0.0
H1787 H 0.01041 0.98301 0.65387 0.0
H1788 H 0.03993 0.95533 0.56275 0.0
H1789 H 0.03413 0.94913 0.5978 0.0
C1790 C 0.783 0.17257 0.45393 0.0
C1791 C 0.78895 0.15367 0.4578 0.0
C1792 C 0.77724 0.17782 0.43492 0.0
C1793 C 0.75571 0.18048 0.39556 0.0
H1794 H 0.78899 0.16837 0.35203 0.0
C1795 C 0.73545 0.19179 0.3135 0.0
C1796 C 0.74904 0.20163 0.30201 0.0
C1797 C 0.73997 0.18551 0.33254 0.0
C1798 C 0.7796 0.17185 0.36406 0.0
H1799 H 0.79341 0.12541 0.44489 0.0
H1800 H 0.78358 0.13471 0.41157 0.0
H1801 H 0.79716 0.158 0.38554 0.0
H1802 H 0.77808 0.21238 0.30137 0.0
H1803 H 0.78601 0.20113 0.33458 0.0
H1804 H 0.73815 0.19433 0.37407 0.0
C1805 C 0.78335 0.1454 0.42329 0.0
C1806 C 0.78418 0.1658 0.38316 0.0
C1807 C 0.78887 0.14007 0.44235 0.0
C1808 C 0.76729 0.20488 0.30987 0.0
C1809 C 0.77187 0.19836 0.32882 0.0
C1810 C 0.75099 0.1863 0.37641 0.0
C1811 C 0.77757 0.16434 0.41939 0.0
C1812 C 0.77234 0.17018 0.39909 0.0
C1813 C 0.75822 0.18872 0.34034 0.0
C1814 C 0.76297 0.18215 0.36053 0.0
H1815 H 0.78287 0.18335 0.46556 0.0
H1816 H 0.77296 0.19255 0.43225 0.0
H1817 H 0.74631 0.18394 0.4076 0.0
H1818 H 0.72125 0.1891 0.30789 0.0
H1819 H 0.72924 0.17799 0.34111 0.0
C1820 C 0.54126 0.9711 0.22891 0.0
C1821 C 0.5564 0.98399 0.23293 0.0
C1822 C 0.52874 0.97468 0.21324 0.0
C1823 C 0.51448 0.01263 0.17706 0.0
H1824 H 0.50487 0.96884 0.14238 0.0
C1825 C 0.50246 0.01902 0.09317 0.0
C1826 C 0.48896 0.00669 0.0841 0.0
C1827 C 0.50645 0.01735 0.11335 0.0
C1828 C 0.50712 0.98116 0.15207 0.0
H1829 H 0.56975 0.01118 0.22425 0.0
H1830 H 0.54837 0.01712 0.19692 0.0
H1831 H 0.51927 0.96369 0.1747 0.0
H1832 H 0.46855 0.98342 0.08928 0.0
H1833 H 0.47574 0.98042 0.12446 0.0
H1834 H 0.50324 0.03018 0.15384 0.0
C1835 C 0.54586 0.00442 0.20593 0.0
C1836 C 0.51532 0.97821 0.17064 0.0
C1837 C 0.55828 0.00089 0.22154 0.0
C1838 C 0.47907 0.99312 0.09578 0.0
C1839 C 0.48321 0.99133 0.11592 0.0
C1840 C 0.50644 0.01559 0.15841 0.0
C1841 C 0.53115 0.9912 0.20133 0.0
C1842 C 0.51959 0.99398 0.18314 0.0
C1843 C 0.49715 0.00322 0.12482 0.0
C1844 C 0.50313 -7e-05 0.14555 0.0
H1845 H 0.53936 0.95802 0.2375 0.0
H1846 H 0.51741 0.96433 0.21024 0.0
H1847 H 0.51722 0.02504 0.18649 0.0
H1848 H 0.51028 0.02967 0.08462 0.0
H1849 H 0.5174 0.02658 0.11979 0.0
C1850 C 0.77402 0.84717 0.94342 0.0
C1851 C 0.75727 0.84468 0.95426 0.0
C1852 C 0.77682 0.83665 0.92608 0.0
C1853 C 0.7502 0.81066 0.88703 0.0
H1854 H 0.79967 0.7918 0.87285 0.0
C1855 C 0.76169 0.76907 0.81466 0.0
C1856 C 0.77702 0.7758 0.80327 0.0
C1857 C 0.75993 0.77481 0.83436 0.0
C1858 C 0.78579 0.79703 0.87662 0.0
H1859 H 0.7305 0.82885 0.9557 0.0
H1860 H 0.7355 0.81033 0.92561 0.0
H1861 H 0.79523 0.80709 0.90503 0.0
H1862 H 0.803 0.79306 0.80394 0.0
H1863 H 0.79982 0.80312 0.83822 0.0
H1864 H 0.7408 0.80087 0.85857 0.0
C1865 C 0.74634 0.82066 0.93031 0.0
C1866 C 0.78325 0.80582 0.895 0.0
C1867 C 0.74351 0.83122 0.94759 0.0
C1868 C 0.79097 0.78768 0.81226 0.0
C1869 C 0.78922 0.79335 0.83196 0.0
C1870 C 0.75272 0.80182 0.86871 0.0
C1871 C 0.76295 0.82337 0.91926 0.0
C1872 C 0.76548 0.81295 0.9003 0.0
C1873 C 0.77348 0.78731 0.84308 0.0
C1874 C 0.77058 0.79513 0.86321 0.0
H1875 H 0.78489 0.85744 0.94815 0.0
H1876 H 0.78966 0.83927 0.91776 0.0
H1877 H 0.73639 0.81626 0.89051 0.0
H1878 H 0.75075 0.75982 0.80824 0.0
H1879 H 0.74777 0.76972 0.84267 0.0
C1880 C 0.7703 0.9291 0.00843 0.0
C1881 C 0.75859 0.923 0.02398 0.0
C1882 C 0.78223 0.94523 0.01069 0.0
C1883 C 0.80939 0.96951 0.04882 0.0
H1884 H 0.82383 0.00275 0.00512 0.0
C1885 C 0.88331 0.00367 0.04694 0.0
C1886 C 0.89255 -0.0023 0.02971 0.0
C1887 C 0.86351 0.00297 0.04787 0.0
C1888 C 0.81982 0.99379 0.01759 0.0
H1889 H 0.74954 0.92951 0.05382 0.0
H1890 H 0.77075 0.9576 0.05789 0.0
H1891 H 0.7938 0.98473 0.00372 0.0
H1892 H 0.88848 0.98826 -0.00063 0.0
H1893 H 0.85424 0.987 0.00096 0.0
H1894 H 0.836 0.97731 0.06201 0.0
C1895 C 0.77059 0.94988 0.04394 0.0
C1896 C 0.80267 0.98348 0.01677 0.0
C1897 C 0.7585 0.93381 0.0416 0.0
C1898 C 0.88172 0.9927 0.01294 0.0
C1899 C 0.86205 0.99221 0.01379 0.0
C1900 C 0.82657 0.97977 0.04961 0.0
C1901 C 0.7828 0.95554 0.02861 0.0
C1902 C 0.79782 0.97043 0.03188 0.0
C1903 C 0.85273 -0.00343 0.03149 0.0
C1904 C 0.83244 0.99113 0.03348 0.0
H1905 H 0.7706 0.92115 0.99462 0.0
H1906 H 0.7917 0.94902 -0.00128 0.0
H1907 H 0.80606 0.95953 0.06067 0.0
H1908 H 0.89134 0.00767 0.06007 0.0
H1909 H 0.85669 0.00653 0.06167 0.0
C1910 C 0.32524 0.61455 0.95449 0.0
C1911 C 0.32024 0.6232 0.97248 0.0
C1912 C 0.34079 0.60239 0.95353 0.0
C1913 C 0.38361 0.58765 0.98157 0.0
H1914 H 0.3778 0.54011 0.95143 0.0
C1915 C 0.43219 0.52424 0.9947 0.0
C1916 C 0.442 0.51783 0.97797 0.0
C1917 C 0.41655 0.53605 0.99261 0.0
C1918 C 0.37961 0.5534 0.95978 0.0
H1919 H 0.32792 0.6263 0.00345 0.0
H1920 H 0.35466 0.60485 0.00192 0.0
H1921 H 0.35289 0.56422 0.95017 0.0
H1922 H 0.44202 0.51742 0.94587 0.0
H1923 H 0.4143 0.53791 0.94228 0.0
H1924 H 0.41 0.57651 0.99168 0.0
C1925 C 0.34687 0.60769 0.98842 0.0
C1926 C 0.36545 0.56726 0.95899 0.0
C1927 C 0.33145 0.61996 0.98933 0.0
C1928 C 0.43483 0.52218 0.95905 0.0
C1929 C 0.419 0.53391 0.95697 0.0
C1930 C 0.39758 0.57372 0.98255 0.0
C1931 C 0.35157 0.59853 0.97057 0.0
C1932 C 0.36719 0.58445 0.9701 0.0
C1933 C 0.41024 0.54153 0.97376 0.0
C1934 C 0.39559 0.55638 0.97188 0.0
H1935 H 0.31692 0.61686 0.94121 0.0
H1936 H 0.34422 0.59585 0.93948 0.0
H1937 H 0.38565 0.60089 0.98993 0.0
H1938 H 0.43715 0.52101 0.0095 0.0
H1939 H 0.40977 0.54148 0.00577 0.0
C1940 C 0.17081 0.52491 0.71556 0.0
C1941 C 0.16391 0.52138 0.7347 0.0
C1942 C 0.1788 0.54294 0.71073 0.0
C1943 C 0.19866 0.5877 0.73373 0.0
H1944 H 0.18085 0.61316 0.6862 0.0
C1945 C 0.19059 0.66883 0.72832 0.0
C1946 C 0.19902 0.67873 0.71242 0.0
C1947 C 0.18979 0.64874 0.72863 0.0
C1948 C 0.18624 0.60607 0.6993 0.0
H1949 H 0.16022 0.5339 0.76383 0.0
H1950 H 0.17383 0.56519 0.7554 0.0
H1951 H 0.17327 0.57886 0.69147 0.0
H1952 H 0.21285 0.67527 0.68413 0.0
H1953 H 0.21086 0.6397 0.68447 0.0
H1954 H 0.21058 0.61517 0.74212 0.0
C1955 C 0.17341 0.55402 0.74416 0.0
C1956 C 0.18194 0.58647 0.70233 0.0
C1957 C 0.16543 0.5361 0.74896 0.0
C1958 C 0.20631 0.66802 0.69659 0.0
C1959 C 0.20518 0.64776 0.69675 0.0
C1960 C 0.20279 0.60724 0.73078 0.0
C1961 C 0.18012 0.55771 0.72499 0.0
C1962 C 0.18751 0.57729 0.71995 0.0
C1963 C 0.19715 0.63803 0.71295 0.0
C1964 C 0.19606 0.61673 0.71389 0.0
H1965 H 0.16986 0.51383 0.70424 0.0
H1966 H 0.18392 0.54534 0.69586 0.0
H1967 H 0.20355 0.58092 0.74722 0.0
H1968 H 0.1849 0.67659 0.74081 0.0
H1969 H 0.18331 0.64153 0.74116 0.0
C1970 C 0.16086 0.38955 0.4943 0.0
C1971 C 0.17065 0.3848 0.51172 0.0
C1972 C 0.14522 0.40159 0.49499 0.0
C1973 C 0.10998 0.42106 0.52987 0.0
H1974 H 0.10014 0.45673 0.48693 0.0
C1975 C 0.04883 0.47386 0.53364 0.0
C1976 C 0.03588 0.47162 0.51789 0.0
C1977 C 0.06696 0.46628 0.53231 0.0
C1978 C 0.10279 0.44686 0.49902 0.0
H1979 H 0.17196 0.38909 0.54347 0.0
H1980 H 0.1451 0.41054 0.54463 0.0
H1981 H 0.12839 0.43687 0.48613 0.0
H1982 H 0.03235 0.46127 0.48775 0.0
H1983 H 0.06416 0.44829 0.4854 0.0
H1984 H 0.08447 0.43121 0.5428 0.0
C1985 C 0.14909 0.40458 0.53048 0.0
C1986 C 0.11886 0.43537 0.49852 0.0
C1987 C 0.16454 0.39231 0.52982 0.0
C1988 C 0.04196 0.4631 0.5002 0.0
C1989 C 0.06018 0.45573 0.4988 0.0
C1990 C 0.09411 0.43273 0.53049 0.0
C1991 C 0.1392 0.40936 0.51307 0.0
C1992 C 0.12254 0.42216 0.51385 0.0
C1993 C 0.07255 0.4566 0.51513 0.0
C1994 C 0.09028 0.4456 0.515 0.0
H1995 H 0.16523 0.3839 0.48014 0.0
H1996 H 0.13774 0.40462 0.48134 0.0
H1997 H 0.11208 0.41081 0.54173 0.0
H1998 H 0.04465 0.48041 0.54746 0.0
H1999 H 0.07636 0.46732 0.54501 0.0
C2000 C 0.85598 0.9785 0.70388 0.0
C2001 C 0.8659 0.9817 0.72171 0.0
C2002 C 0.84244 0.96356 0.70237 0.0
C2003 C 0.81441 0.92824 0.73232 0.0
H2004 H 0.82084 0.89441 0.68718 0.0
C2005 C 0.80232 0.84672 0.73557 0.0
C2006 C 0.79304 0.83718 0.71982 0.0
C2007 C 0.8066 0.86641 0.73445 0.0
C2008 C 0.81856 0.9039 0.69965 0.0
H2009 H 0.86876 0.97236 0.75219 0.0
H2010 H 0.84551 0.94626 0.74949 0.0
H2011 H 0.83661 0.92606 0.68774 0.0
H2012 H 0.78078 0.84083 0.6906 0.0
H2013 H 0.7888 0.87543 0.68845 0.0
H2014 H 0.79729 0.90553 0.74471 0.0
C2015 C 0.84792 0.95537 0.73671 0.0
C2016 C 0.82756 0.92205 0.69999 0.0
C2017 C 0.86141 0.97026 0.73822 0.0
C2018 C 0.78794 0.84782 0.70296 0.0
C2019 C 0.79252 0.86756 0.70171 0.0
C2020 C 0.80554 0.91006 0.73204 0.0
C2021 C 0.83854 0.95158 0.71867 0.0
C2022 C 0.82614 0.93413 0.71665 0.0
C2023 C 0.80191 0.87699 0.71747 0.0
C2024 C 0.80809 0.89747 0.71602 0.0
H2025 H 0.85904 0.98715 0.69091 0.0
H2026 H 0.8353 0.96114 0.68833 0.0
H2027 H 0.81268 0.93739 0.74517 0.0
H2028 H 0.80633 0.83897 0.74882 0.0
H2029 H 0.8141 0.87325 0.74669 0.0
C2030 C 0.74304 0.14315 0.54921 0.0
C2031 C 0.76095 0.13526 0.54615 0.0
C2032 C 0.7287 0.1322 0.55815 0.0
C2033 C 0.71369 0.08172 0.56573 0.0
H2034 H 0.67478 0.10576 0.59701 0.0
C2035 C 0.64311 0.04249 0.58542 0.0
C2036 C 0.62767 0.05297 0.57824 0.0
C2037 C 0.66107 0.05133 0.58691 0.0
C2038 C 0.68566 0.09879 0.58849 0.0
H2039 H 0.77812 0.10993 0.55075 0.0
H2040 H 0.75311 0.09088 0.56657 0.0
H2041 H 0.70387 0.1238 0.5896 0.0
H2042 H 0.61855 0.08107 0.56811 0.0
H2043 H 0.64962 0.09648 0.57103 0.0
H2044 H 0.69512 0.05693 0.56413 0.0
C2045 C 0.75007 0.10543 0.56178 0.0
C2046 C 0.70224 0.10914 0.58413 0.0
C2047 C 0.7644 0.11638 0.55276 0.0
C2048 C 0.63025 0.0726 0.57352 0.0
C2049 C 0.64799 0.08148 0.57538 0.0
C2050 C 0.69715 0.07131 0.57024 0.0
C2051 C 0.73197 0.11313 0.56433 0.0
C2052 C 0.7161 0.101 0.57202 0.0
C2053 C 0.66365 0.07088 0.58173 0.0
C2054 C 0.68269 0.08004 0.58099 0.0
H2055 H 0.73991 0.15765 0.54429 0.0
H2056 H 0.71484 0.13848 0.55955 0.0
H2057 H 0.724 0.07504 0.55625 0.0
H2058 H 0.64146 0.02733 0.58913 0.0
H2059 H 0.67298 0.04288 0.5918 0.0
C2060 C 0.18205 0.435 0.79291 0.0
C2061 C 0.16277 0.43278 0.79753 0.0
C2062 C 0.19549 0.42311 0.80171 0.0
C2063 C 0.20193 0.38684 0.84204 0.0
H2064 H 0.2374 0.36468 0.80532 0.0
C2065 C 0.22388 0.30851 0.84119 0.0
C2066 C 0.24146 0.30362 0.83339 0.0
C2067 C 0.21928 0.32787 0.84367 0.0
C2068 C 0.22802 0.37105 0.81602 0.0
H2069 H 0.14249 0.4166 0.81521 0.0
H2070 H 0.16572 0.39545 0.82993 0.0
H2071 H 0.21912 0.39231 0.79531 0.0
H2072 H 0.26859 0.31457 0.82336 0.0
H2073 H 0.26057 0.34864 0.82763 0.0
H2074 H 0.20994 0.36447 0.86218 0.0
C2075 C 0.17062 0.40668 0.81997 0.0
C2076 C 0.21745 0.38694 0.81023 0.0
C2077 C 0.15724 0.41866 0.81132 0.0
C2078 C 0.25504 0.31815 0.82968 0.0
C2079 C 0.2504 0.33757 0.83199 0.0
C2080 C 0.21241 0.37082 0.84777 0.0
C2081 C 0.18991 0.40865 0.81517 0.0
C2082 C 0.20371 0.3945 0.82286 0.0
C2083 C 0.23212 0.3426 0.83802 0.0
C2084 C 0.22498 0.3623 0.83449 0.0
H2085 H 0.18678 0.44593 0.78252 0.0
H2086 H 0.21024 0.42516 0.79784 0.0
H2087 H 0.1918 0.39265 0.85231 0.0
H2088 H 0.21315 0.29743 0.84382 0.0
H2089 H 0.20502 0.33125 0.84814 0.0
C2090 C 0.40034 0.62292 0.23389 0.0
C2091 C 0.3952 0.60762 0.22114 0.0
C2092 C 0.38737 0.63727 0.23839 0.0
C2093 C 0.34088 0.65749 0.22387 0.0
H2094 H 0.33743 0.66938 0.2798 0.0
C2095 C 0.27653 0.69599 0.25555 0.0
C2096 C 0.28061 0.71196 0.26784 0.0
C2097 C 0.29071 0.68308 0.2506 0.0
C2098 C 0.33831 0.66631 0.26412 0.0
H2099 H 0.37291 0.5962 0.20195 0.0
H2100 H 0.35032 0.62103 0.20993 0.0
H2101 H 0.36279 0.64895 0.26804 0.0
H2102 H 0.3025 0.72606 0.28568 0.0
H2103 H 0.32716 0.70342 0.27712 0.0
H2104 H 0.31622 0.67462 0.22003 0.0
C2105 C 0.36435 0.62205 0.21643 0.0
C2106 C 0.35291 0.65472 0.25735 0.0
C2107 C 0.37732 0.60775 0.21189 0.0
C2108 C 0.29887 0.71395 0.27613 0.0
C2109 C 0.31302 0.70097 0.27124 0.0
C2110 C 0.32625 0.669 0.23066 0.0
C2111 C 0.36901 0.63661 0.23023 0.0
C2112 C 0.3543 0.65008 0.23715 0.0
C2113 C 0.30923 0.68577 0.25793 0.0
C2114 C 0.32473 0.67342 0.25087 0.0
H2115 H 0.41406 0.62334 0.24115 0.0
H2116 H 0.39153 0.64855 0.24874 0.0
H2117 H 0.3417 0.65442 0.20819 0.0
H2118 H 0.26262 0.69395 0.24895 0.0
H2119 H 0.2873 0.67125 0.24061 0.0
C2120 C 0.45448 0.73152 0.61945 0.0
C2121 C 0.47175 0.7312 0.62989 0.0
C2122 C 0.44928 0.71632 0.60681 0.0
C2123 C 0.43689 0.67602 0.59318 0.0
H2124 H 0.47367 0.65174 0.55937 0.0
C2125 C 0.42847 0.59845 0.56248 0.0
C2126 C 0.43564 0.59454 0.54358 0.0
C2127 C 0.43069 0.61685 0.57082 0.0
C2128 C 0.46314 0.65851 0.56851 0.0
H2129 H 0.49734 0.71497 0.63487 0.0
H2130 H 0.48824 0.68844 0.61283 0.0
H2131 H 0.48257 0.6809 0.57766 0.0
H2132 H 0.44958 0.60729 0.51807 0.0
H2133 H 0.45327 0.63935 0.53259 0.0
H2134 H 0.41751 0.65347 0.58415 0.0
C2135 C 0.47877 0.70049 0.61432 0.0
C2136 C 0.46832 0.67508 0.57916 0.0
C2137 C 0.48394 0.71564 0.62703 0.0
C2138 C 0.44405 0.60972 0.53275 0.0
C2139 C 0.44627 0.62809 0.54109 0.0
C2140 C 0.43172 0.65938 0.58257 0.0
C2141 C 0.46129 0.70056 0.60427 0.0
C2142 C 0.45534 0.68386 0.59182 0.0
C2143 C 0.44011 0.6317 0.56042 0.0
C2144 C 0.44487 0.65031 0.57032 0.0
H2145 H 0.44478 0.74332 0.62129 0.0
H2146 H 0.43582 0.71686 0.59908 0.0
H2147 H 0.42662 0.68239 0.60294 0.0
H2148 H 0.42189 0.58711 0.57123 0.0
H2149 H 0.42589 0.61914 0.5858 0.0
C2150 C 0.58577 0.24902 0.79757 0.0
C2151 C 0.57595 0.23487 0.80851 0.0
C2152 C 0.60314 0.2448 0.78895 0.0
C2153 C 0.63899 0.23148 0.76888 0.0
H2154 H 0.67141 0.20777 0.80816 0.0
C2155 C 0.72031 0.2321 0.76156 0.0
C2156 C 0.72914 0.24068 0.77816 0.0
C2157 C 0.70142 0.22579 0.76246 0.0
C2158 C 0.6625 0.21418 0.79693 0.0
H2159 H 0.57559 0.20469 0.81726 0.0
H2160 H 0.60578 0.19733 0.80206 0.0
H2161 H 0.63732 0.20754 0.81296 0.0
H2162 H 0.72558 0.24819 0.80904 0.0
H2163 H 0.6928 0.237 0.81067 0.0
H2164 H 0.66444 0.23917 0.75353 0.0
C2165 C 0.6003 0.21178 0.80053 0.0
C2166 C 0.64294 0.21391 0.79956 0.0
C2167 C 0.58299 0.216 0.8092 0.0
C2168 C 0.71913 0.24174 0.79598 0.0
C2169 C 0.70039 0.23519 0.79695 0.0
C2170 C 0.65859 0.23167 0.76621 0.0
C2171 C 0.61093 0.22634 0.79104 0.0
C2172 C 0.63103 0.2232 0.78595 0.0
C2173 C 0.69119 0.22764 0.78007 0.0
C2174 C 0.67055 0.22368 0.78062 0.0
H2175 H 0.58067 0.26366 0.79668 0.0
H2176 H 0.61103 0.25639 0.78184 0.0
H2177 H 0.63013 0.23856 0.75805 0.0
H2178 H 0.72768 0.23114 0.7476 0.0
H2179 H 0.69464 0.21995 0.74927 0.0
C2180 C 0.03836 0.3068 0.09011 0.0
C2181 C 0.02082 0.29692 0.08992 0.0
C2182 C 0.04011 0.32521 0.0819 0.0
C2183 C 0.0113 0.36715 0.06778 0.0
H2184 H 0.05815 0.38459 0.04345 0.0
C2185 C 0.02047 0.44272 0.0331 0.0
C2186 C 0.03613 0.45342 0.0404 0.0
C2187 C 0.01873 0.42295 0.0369 0.0
C2188 C 0.04501 0.37986 0.05021 0.0
H2189 H 0.99151 0.29824 0.08041 0.0
H2190 H 0.99469 0.33016 0.06543 0.0
H2191 H 0.0545 0.3509 0.05364 0.0
H2192 H 0.06259 0.45165 0.05673 0.0
H2193 H 0.05963 0.41697 0.06309 0.0
H2194 H 0.00181 0.39615 0.0641 0.0
C2195 C 0.00698 0.32393 0.07243 0.0
C2196 C 0.04292 0.36062 0.05615 0.0
C2197 C 0.00517 0.3056 0.08091 0.0
C2198 C 0.05033 0.44381 0.05099 0.0
C2199 C 0.0487 0.42398 0.05453 0.0
C2200 C 0.0133 0.3863 0.06158 0.0
C2201 C 0.02443 0.33407 0.07305 0.0
C2202 C 0.02614 0.35411 0.06529 0.0
C2203 C 0.03274 0.41346 0.04779 0.0
C2204 C 0.03026 0.39287 0.05301 0.0
H2205 H 0.05065 0.30053 0.09709 0.0
H2206 H 0.05367 0.33269 0.08302 0.0
H2207 H -0.00168 0.36278 0.07508 0.0
H2208 H 0.00928 0.44969 0.02491 0.0
H2209 H 0.00635 0.41509 0.03145 0.0
C2210 C 0.93529 0.70166 0.38117 0.0
C2211 C 0.95094 0.71446 0.38166 0.0
C2212 C 0.91863 0.70677 0.37139 0.0
C2213 C 0.90029 0.73949 0.33309 0.0
H2214 H 0.85182 0.72743 0.35711 0.0
C2215 C 0.81505 0.75338 0.32104 0.0
C2216 C 0.81314 0.74823 0.30099 0.0
C2217 C 0.83235 0.75138 0.33085 0.0
C2218 C 0.86524 0.73111 0.35031 0.0
H2219 H 0.9614 0.74267 0.37226 0.0
H2220 H 0.93232 0.75159 0.35537 0.0
H2221 H 0.88094 0.71934 0.37448 0.0
H2222 H 0.82822 0.73788 0.2753 0.0
H2223 H 0.85832 0.73429 0.29247 0.0
H2224 H 0.88456 0.75139 0.30897 0.0
C2225 C 0.93298 0.73753 0.36234 0.0
C2226 C 0.88191 0.72623 0.36014 0.0
C2227 C 0.94962 0.73244 0.37212 0.0
C2228 C 0.82916 0.74195 0.29075 0.0
C2229 C 0.84646 0.73996 0.30057 0.0
C2230 C 0.8836 0.74435 0.32323 0.0
C2231 C 0.9173 0.72477 0.3619 0.0
C2232 C 0.89961 0.73026 0.35159 0.0
C2233 C 0.84812 0.74423 0.32083 0.0
C2234 C 0.8659 0.74012 0.3317 0.0
H2235 H 0.93587 0.68769 0.38834 0.0
H2236 H 0.90685 0.69653 0.37109 0.0
H2237 H 0.91371 0.74264 0.32605 0.0
H2238 H 0.80304 0.75838 0.32935 0.0
H2239 H 0.8333 0.75511 0.34639 0.0
C2240 C 0.51311 0.30795 0.85597 0.0
C2241 C 0.52481 0.29424 0.86499 0.0
C2242 C 0.50942 0.32543 0.86546 0.0
C2243 C 0.5077 0.34639 0.91508 0.0
H2244 H 0.51102 0.39599 0.88857 0.0
C2245 C 0.5126 0.41785 0.95763 0.0
C2246 C 0.50387 0.4343 0.94984 0.0
C2247 C 0.51272 0.40063 0.94694 0.0
C2248 C 0.50968 0.38223 0.89609 0.0
H2249 H 0.54228 0.28837 0.89075 0.0
H2250 H 0.53584 0.31882 0.90724 0.0
H2251 H 0.51671 0.36637 0.86997 0.0
H2252 H 0.4878 0.44532 0.92495 0.0
H2253 H 0.48783 0.41504 0.90633 0.0
H2254 H 0.50074 0.36209 0.94119 0.0
C2255 C 0.52938 0.31596 0.89294 0.0
C2256 C 0.51302 0.3653 0.88545 0.0
C2257 C 0.53318 0.29859 0.88341 0.0
C2258 C 0.4947 0.43293 0.93135 0.0
C2259 C 0.49482 0.41563 0.92063 0.0
C2260 C 0.50424 0.36326 0.92566 0.0
C2261 C 0.51723 0.3294 0.88421 0.0
C2262 C 0.51245 0.34728 0.89497 0.0
C2263 C 0.50406 0.39938 0.92821 0.0
C2264 C 0.50559 0.3814 0.9164 0.0
H2265 H 0.50646 0.30502 0.84177 0.0
H2266 H 0.49999 0.33555 0.85843 0.0
H2267 H 0.50676 0.33263 0.92268 0.0
H2268 H 0.51981 0.41835 0.97182 0.0
H2269 H 0.52021 0.38849 0.95311 0.0
C2270 C 0.93893 0.264 0.16045 0.0
C2271 C 0.948 0.25099 0.14787 0.0
C2272 C 0.92122 0.25928 0.16836 0.0
C2273 C 0.87822 0.23206 0.15856 0.0
H2274 H 0.87024 0.23353 0.21519 0.0
C2275 C 0.80557 0.21198 0.19224 0.0
C2276 C 0.7998 0.22305 0.20846 0.0
C2277 C 0.82418 0.21352 0.18537 0.0
C2278 C 0.87211 0.2333 0.19932 0.0
H2279 H 0.94565 0.22297 0.1335 0.0
H2280 H 0.91443 0.21502 0.14692 0.0
H2281 H 0.90159 0.24081 0.202 0.0
H2282 H 0.80897 0.24446 0.23014 0.0
H2283 H 0.8409 0.24773 0.21778 0.0
H2284 H 0.84867 0.22549 0.15563 0.0
C2285 C 0.92115 0.22872 0.15081 0.0
C2286 C 0.8901 0.23737 0.19183 0.0
C2287 C 0.93901 0.23325 0.14323 0.0
C2288 C 0.813 0.23554 0.21775 0.0
C2289 C 0.83143 0.23732 0.21071 0.0
C2290 C 0.86012 0.22836 0.16601 0.0
C2291 C 0.91216 0.24166 0.16347 0.0
C2292 C 0.89325 0.23688 0.17141 0.0
C2293 C 0.83729 0.2264 0.19439 0.0
C2294 C 0.85678 0.22908 0.18649 0.0
H2295 H 0.94556 0.27775 0.1643 0.0
H2296 H 0.91444 0.2695 0.17805 0.0
H2297 H 0.88036 0.23171 0.14272 0.0
H2298 H 0.79571 0.20216 0.18485 0.0
H2299 H 0.82824 0.20462 0.17298 0.0
C2300 C 0.01807 0.68831 0.48075 0.0
C2301 C 0.00516 0.69075 0.46509 0.0
C2302 C 0.01421 0.6749 0.49573 0.0
C2303 C 0.00843 0.63402 0.51199 0.0
H2304 H 0.95799 0.62385 0.5322 0.0
C2305 C 0.98952 0.56063 0.54638 0.0
C2306 C 0.97303 0.55213 0.53816 0.0
C2307 C 0.99328 0.5804 0.54411 0.0
C2308 C 0.97218 0.62653 0.52676 0.0
H2309 H 0.97761 0.68204 0.45344 0.0
H2310 H 0.97088 0.65878 0.47948 0.0
H2311 H 0.96507 0.65452 0.51575 0.0
H2312 H 0.94699 0.55798 0.5222 0.0
H2313 H 0.9537 0.59219 0.51789 0.0
H2314 H 0.01527 0.60564 0.52173 0.0
C2315 C 0.98396 0.66718 0.48028 0.0
C2316 C 0.97623 0.6441 0.51742 0.0
C2317 C 0.98791 0.68036 0.46524 0.0
C2318 C 0.95988 0.56401 0.52863 0.0
C2319 C 0.96366 0.58372 0.52632 0.0
C2320 C 0.00436 0.61642 0.52122 0.0
C2321 C -0.00275 0.66397 0.49541 0.0
C2322 C 0.99417 0.64766 0.50923 0.0
C2323 C 0.98064 0.59206 0.53356 0.0
C2324 C 0.98596 0.61216 0.52796 0.0
H2325 H 0.03147 0.69618 0.48104 0.0
H2326 H 0.02466 0.67272 0.50727 0.0
H2327 H 0.02234 0.63631 0.50568 0.0
H2328 H -0.00014 0.55193 0.554 0.0
H2329 H 0.00636 0.58645 0.55008 0.0
C2330 C 0.55363 0.76435 0.70988 0.0
C2331 C 0.54795 0.7485 0.69809 0.0
C2332 C 0.57275 0.76761 0.71445 0.0
C2333 C 0.61988 0.75698 0.69481 0.0
H2334 H 0.63792 0.77704 0.7452 0.0
C2335 C 0.69764 0.78127 0.70594 0.0
C2336 C 0.70639 0.77437 0.72321 0.0
C2337 C 0.67794 0.77999 0.70369 0.0
C2338 C 0.6331 0.77141 0.73105 0.0
H2339 H 0.55776 0.72292 0.68296 0.0
H2340 H 0.59105 0.72841 0.69126 0.0
H2341 H 0.60434 0.76918 0.74072 0.0
H2342 H 0.70118 0.76169 0.75208 0.0
H2343 H 0.66706 0.75934 0.74806 0.0
H2344 H 0.64865 0.75872 0.68527 0.0
C2345 C 0.58077 0.7386 0.69655 0.0
C2346 C 0.61385 0.76703 0.72844 0.0
C2347 C 0.56166 0.73535 0.69195 0.0
C2348 C 0.69495 0.76707 0.73853 0.0
C2349 C 0.67532 0.76583 0.73629 0.0
C2350 C 0.6391 0.76136 0.6974 0.0
C2351 C 0.58659 0.75505 0.70736 0.0
C2352 C 0.60704 0.75963 0.71033 0.0
C2353 C 0.66661 0.77187 0.71868 0.0
C2354 C 0.64597 0.76851 0.71559 0.0
H2355 H 0.54344 0.77478 0.71485 0.0
H2356 H 0.57675 0.78046 0.72274 0.0
H2357 H 0.61506 0.75162 0.68055 0.0
H2358 H 0.70601 0.78702 0.69388 0.0
H2359 H 0.67161 0.78505 0.69006 0.0
C2360 C 0.55452 0.49427 0.71454 0.0
C2361 C 0.57185 0.50157 0.70733 0.0
C2362 C 0.53898 0.4917 0.70183 0.0
C2363 C 0.52702 0.48576 0.64911 0.0
H2364 H 0.47759 0.50461 0.66351 0.0
C2365 C 0.459 0.51459 0.60515 0.0
C2366 C 0.459 0.50122 0.58952 0.0
C2367 C 0.46939 0.51102 0.6224 0.0
C2368 C 0.49129 0.49919 0.65933 0.0
H2369 H 0.58646 0.51195 0.68118 0.0
H2370 H 0.55941 0.50752 0.6591 0.0
H2371 H 0.50358 0.506 0.68763 0.0
H2372 H 0.46782 0.4727 0.58051 0.0
H2373 H 0.48537 0.46619 0.61082 0.0
H2374 H 0.51527 0.47985 0.62061 0.0
C2375 C 0.55787 0.50357 0.67451 0.0
C2376 C 0.50611 0.49986 0.67317 0.0
C2377 C 0.57334 0.50622 0.68719 0.0
C2378 C 0.46787 0.4834 0.59222 0.0
C2379 C 0.478 0.47973 0.60953 0.0
C2380 C 0.51228 0.48509 0.63533 0.0
C2381 C 0.54055 0.49624 0.68167 0.0
C2382 C 0.52424 0.4936 0.66799 0.0
C2383 C 0.47974 0.49392 0.62435 0.0
C2384 C 0.49434 0.49216 0.64011 0.0
H2385 H 0.55292 0.49059 0.73 0.0
H2386 H 0.52582 0.48595 0.70771 0.0
H2387 H 0.54077 0.48057 0.64479 0.0
H2388 H 0.45228 0.52844 0.60345 0.0
H2389 H 0.47045 0.52229 0.63349 0.0
C2390 C 0.80859 0.35116 0.99102 0.0
C2391 C 0.80454 0.37076 0.98799 0.0
C2392 C 0.81207 0.33904 0.97494 0.0
C2393 C 0.8245 0.33886 0.92198 0.0
H2394 H 0.79361 0.29197 0.91949 0.0
C2395 C 0.82251 0.29099 0.85237 0.0
C2396 C 0.80404 0.28743 0.84518 0.0
C2397 C 0.82545 0.29787 0.87161 0.0
C2398 C 0.80244 0.30493 0.92006 0.0
H2399 H 0.80177 0.39321 0.96584 0.0
H2400 H 0.80793 0.3721 0.93786 0.0
H2401 H 0.79422 0.31135 0.94972 0.0
H2402 H 0.77429 0.28707 0.85299 0.0
H2403 H 0.77945 0.29898 0.88649 0.0
H2404 H 0.83208 0.33291 0.89204 0.0
C2405 C 0.80846 0.3661 0.95263 0.0
C2406 C 0.80291 0.31593 0.9374 0.0
C2407 C 0.8048 0.37817 0.96866 0.0
C2408 C 0.78869 0.28978 0.85802 0.0
C2409 C 0.79165 0.29648 0.87728 0.0
C2410 C 0.82414 0.32778 0.9047 0.0
C2411 C 0.81178 0.34634 0.95558 0.0
C2412 C 0.81353 0.33329 0.93833 0.0
C2413 C 0.81001 0.3011 0.88409 0.0
C2414 C 0.8127 0.31099 0.90339 0.0
H2415 H 0.8085 0.34502 0.00574 0.0
H2416 H 0.81472 0.32389 0.97763 0.0
H2417 H 0.83294 0.35208 0.92237 0.0
H2418 H 0.83466 0.28928 0.84287 0.0
H2419 H 0.83977 0.30115 0.87656 0.0
C2420 C 0.92565 0.49202 0.20568 0.0
C2421 C 0.9231 0.50154 0.22379 0.0
C2422 C 0.94237 0.49475 0.19506 0.0
C2423 C 0.98108 0.53035 0.18873 0.0
H2424 H 0.00092 0.49028 0.15502 0.0
C2425 C 0.03637 0.51709 0.11963 0.0
C2426 C 0.0304 0.53242 0.1076 0.0
C2427 C 0.02826 0.51406 0.13821 0.0
C2428 C -0.00409 0.50158 0.16464 0.0
H2429 H 0.93644 0.52068 0.24541 0.0
H2430 H 0.9657 0.52521 0.227 0.0
H2431 H 0.97693 0.48202 0.17934 0.0
H2432 H 0.01276 0.55778 0.10655 0.0
H2433 H -0.00148 0.55238 0.13858 0.0
H2434 H -9e-05 0.54996 0.17385 0.0
C2435 C 0.95464 0.51594 0.22082 0.0
C2436 C 0.98191 0.49688 0.17838 0.0
C2437 C 0.93788 0.51329 0.23139 0.0
C2438 C 0.01755 0.5457 0.11532 0.0
C2439 C 0.00945 0.54267 0.13383 0.0
C2440 C 0.99515 0.53504 0.17505 0.0
C2441 C 0.95696 0.50696 0.20237 0.0
C2442 C 0.97386 0.51132 0.19009 0.0
C2443 C 0.01407 0.52633 0.1451 0.0
C2444 C 0.00224 0.52084 0.16236 0.0
H2445 H 0.91453 0.48287 0.19943 0.0
H2446 H 0.94354 0.48783 0.18076 0.0
H2447 H 0.97516 0.54187 0.19746 0.0
H2448 H 0.04638 0.50668 0.11423 0.0
H2449 H 0.0324 0.50157 0.14673 0.0
C2450 C 0.71365 0.59316 0.44492 0.0
C2451 C 0.72653 0.59728 0.46035 0.0
C2452 C 0.71457 0.60353 0.42719 0.0
C2453 C 0.74518 0.63778 0.39865 0.0
H2454 H 0.6973 0.65631 0.37842 0.0
C2455 C 0.74064 0.70371 0.34756 0.0
C2456 C 0.72993 0.70112 0.33014 0.0
C2457 C 0.73969 0.69 0.36266 0.0
C2458 C 0.71075 0.6511 0.38383 0.0
H2459 H 0.75107 0.61479 0.46888 0.0
H2460 H 0.75244 0.63297 0.43837 0.0
H2461 H 0.6975 0.63279 0.40531 0.0
H2462 H 0.70912 0.68261 0.31532 0.0
H2463 H 0.70725 0.65884 0.34195 0.0
H2464 H 0.7584 0.65667 0.37761 0.0
C2465 C 0.74176 0.62163 0.43971 0.0
C2466 C 0.71089 0.63753 0.39912 0.0
C2467 C 0.7409 0.61124 0.45732 0.0
C2468 C 0.7176 0.68498 0.32854 0.0
C2469 C 0.71648 0.6714 0.34376 0.0
C2470 C 0.74503 0.65149 0.38355 0.0
C2471 C 0.72837 0.61822 0.42459 0.0
C2472 C 0.72813 0.63094 0.40691 0.0
C2473 C 0.72784 0.67357 0.36075 0.0
C2474 C 0.72783 0.65848 0.3762 0.0
H2475 H 0.70246 0.58243 0.44677 0.0
H2476 H 0.70423 0.60033 0.41569 0.0
H2477 H 0.7587 0.63273 0.40401 0.0
H2478 H 0.75029 0.71595 0.34925 0.0
H2479 H 0.7484 0.69212 0.37576 0.0
C2480 C 0.60216 0.53839 0.79611 0.0
C2481 C 0.59624 0.54694 0.77835 0.0
C2482 C 0.59365 0.54321 0.81392 0.0
C2483 C 0.57852 0.56087 0.85117 0.0
H2484 H 0.52367 0.5576 0.85071 0.0
C2485 C 0.53817 0.55306 0.92367 0.0
C2486 C 0.52527 0.53734 0.92354 0.0
C2487 C 0.54498 0.56072 0.90594 0.0
C2488 C 0.53898 0.55871 0.85107 0.0
H2489 H 0.57721 0.56779 0.76541 0.0
H2490 H 0.56224 0.57618 0.79669 0.0
H2491 H 0.54074 0.55879 0.81951 0.0
H2492 H 0.50833 0.51832 0.90466 0.0
H2493 H 0.52048 0.53133 0.87388 0.0
H2494 H 0.57691 0.55936 0.88262 0.0
C2495 C 0.57342 0.56567 0.79673 0.0
C2496 C 0.54876 0.55959 0.8332 0.0
C2497 C 0.58203 0.5609 0.77886 0.0
C2498 C 0.51836 0.53033 0.90532 0.0
C2499 C 0.52521 0.53794 0.88762 0.0
C2500 C 0.56877 0.55993 0.86901 0.0
C2501 C 0.579 0.55668 0.81441 0.0
C2502 C 0.56865 0.55987 0.83308 0.0
C2503 C 0.53906 0.55279 0.88773 0.0
C2504 C 0.54892 0.55805 0.86914 0.0
H2505 H 0.6131 0.52762 0.79624 0.0
H2506 H 0.59806 0.53578 0.82722 0.0
H2507 H 0.59386 0.56142 0.85152 0.0
H2508 H 0.5436 0.55898 0.93746 0.0
H2509 H 0.55541 0.57238 0.9065 0.0
C2510 C 0.73577 0.35488 0.04354 0.0
C2511 C 0.7486 0.36905 0.05071 0.0
C2512 C 0.72841 0.34069 0.05616 0.0
C2513 C 0.7211 0.32957 0.109 0.0
H2514 H 0.72034 0.27612 0.09159 0.0
C2515 C 0.69982 0.26988 0.1628 0.0
C2516 C 0.71295 0.25489 0.16409 0.0
C2517 C 0.6998 0.28226 0.14652 0.0
C2518 C 0.7204 0.29099 0.09663 0.0
H2519 H 0.76362 0.37955 0.07677 0.0
H2520 H 0.75091 0.35473 0.09874 0.0
H2521 H 0.72965 0.30167 0.06854 0.0
H2522 H 0.73513 0.24004 0.14843 0.0
H2523 H 0.73529 0.26181 0.12024 0.0
H2524 H 0.71279 0.31896 0.1373 0.0
C2525 C 0.74635 0.35471 0.08341 0.0
C2526 C 0.72558 0.30563 0.0834 0.0
C2527 C 0.75374 0.36887 0.0708 0.0
C2528 C 0.72487 0.25149 0.14795 0.0
C2529 C 0.72492 0.26397 0.13171 0.0
C2530 C 0.71594 0.31497 0.1222 0.0
C2531 C 0.73366 0.34043 0.07622 0.0
C2532 C 0.72639 0.32505 0.08959 0.0
C2533 C 0.71296 0.27999 0.13124 0.0
C2534 C 0.71588 0.29546 0.1163 0.0
H2535 H 0.73149 0.35464 0.02813 0.0
H2536 H 0.71853 0.32999 0.05023 0.0
H2537 H 0.72132 0.34441 0.11413 0.0
H2538 H 0.69024 0.27272 0.17486 0.0
H2539 H 0.69007 0.29419 0.14636 0.0
C2540 C 0.90322 0.46694 0.30907 0.0
C2541 C 0.89003 0.47985 0.30123 0.0
C2542 C 0.90863 0.46809 0.32891 0.0
C2543 C 0.91013 0.5011 0.3718 0.0
H2544 H 0.91789 0.45355 0.40082 0.0
C2545 C 0.92763 0.49787 0.45595 0.0
C2546 C 0.94222 0.48527 0.46124 0.0
C2547 C 0.92049 0.49803 0.4366 0.0
C2548 C 0.91588 0.46695 0.39286 0.0
H2549 H 0.8721 0.50408 0.30806 0.0
H2550 H 0.88135 0.50588 0.34286 0.0
H2551 H 0.90646 0.45208 0.3668 0.0
H2552 H 0.96102 0.46326 0.45019 0.0
H2553 H 0.94858 0.46359 0.41664 0.0
H2554 H 0.91956 0.51591 0.39805 0.0
C2555 C 0.88771 0.49505 0.33357 0.0
C2556 C 0.90938 0.46611 0.37337 0.0
C2557 C 0.88234 0.49395 0.31366 0.0
C2558 C 0.94973 0.47311 0.4467 0.0
C2559 C 0.94253 0.47319 0.42747 0.0
C2560 C 0.91655 0.50193 0.39139 0.0
C2561 C 0.9009 0.4821 0.34141 0.0
C2562 C 0.90671 0.48316 0.36251 0.0
C2563 C 0.92772 0.48548 0.42227 0.0
C2564 C 0.91977 0.48484 0.40198 0.0
H2565 H 0.9095 0.456 0.29985 0.0
H2566 H 0.91908 0.45812 0.33439 0.0
H2567 H 0.90837 0.51449 0.36377 0.0
H2568 H 0.92156 0.50744 0.46679 0.0
H2569 H 0.90903 0.50762 0.43296 0.0
C2570 C 0.73499 0.66858 0.53105 0.0
C2571 C 0.74138 0.65044 0.5373 0.0
C2572 C 0.74161 0.68549 0.54034 0.0
C2573 C 0.78053 0.70573 0.57011 0.0
H2574 H 0.7426 0.73454 0.5982 0.0
C2575 C 0.79452 0.7395 0.64501 0.0
C2576 C 0.78316 0.7544 0.65214 0.0
C2577 C 0.7921 0.73254 0.62581 0.0
C2578 C 0.75344 0.72718 0.59002 0.0
H2579 H 0.76008 0.63574 0.55768 0.0
H2580 H 0.77187 0.66527 0.57362 0.0
H2581 H 0.73275 0.7107 0.57356 0.0
H2582 H 0.7618 0.77514 0.64396 0.0
H2583 H 0.75783 0.76319 0.61019 0.0
H2584 H 0.80125 0.72174 0.58685 0.0
C2585 C 0.7617 0.6664 0.56162 0.0
C2586 C 0.74774 0.71342 0.57597 0.0
C2587 C 0.75481 0.64951 0.55266 0.0
C2588 C 0.77061 0.76346 0.63901 0.0
C2589 C 0.76825 0.75653 0.61968 0.0
C2590 C 0.78626 0.7197 0.58391 0.0
C2591 C 0.75506 0.68449 0.55566 0.0
C2592 C 0.76121 0.70197 0.56665 0.0
C2593 C 0.77835 0.7404 0.61318 0.0
C2594 C 0.77275 0.72984 0.59482 0.0
H2595 H 0.72464 0.66968 0.51923 0.0
H2596 H 0.73622 0.69931 0.53562 0.0
H2597 H 0.79116 0.69719 0.56284 0.0
H2598 H 0.8045 0.73232 0.65463 0.0
H2599 H 0.80006 0.72001 0.62149 0.0
C2600 C 0.66331 0.57107 0.5302 0.0
C2601 C 0.66848 0.58912 0.52216 0.0
C2602 C 0.64437 0.56493 0.53025 0.0
C2603 C 0.59558 0.58269 0.52603 0.0
H2604 H 0.58358 0.53004 0.50985 0.0
C2605 C 0.51963 0.55791 0.50704 0.0
C2606 C 0.51348 0.53995 0.51456 0.0
C2607 C 0.53867 0.56348 0.5082 0.0
C2608 C 0.58673 0.54471 0.51461 0.0
H2609 H 0.65784 0.61501 0.50818 0.0
H2610 H 0.62485 0.60422 0.50814 0.0
H2611 H 0.6166 0.5408 0.51224 0.0
H2612 H 0.52262 0.51357 0.52881 0.0
H2613 H 0.5559 0.52338 0.53088 0.0
H2614 H 0.56573 0.58664 0.52829 0.0
C2615 C 0.63539 0.59491 0.51458 0.0
C2616 C 0.60562 0.55086 0.516 0.0
C2617 C 0.65431 0.60104 0.51452 0.0
C2618 C 0.52689 0.5275 0.52285 0.0
C2619 C 0.54596 0.53308 0.52399 0.0
C2620 C 0.57671 0.57654 0.52463 0.0
C2621 C 0.63024 0.57673 0.5223 0.0
C2622 C 0.61024 0.56996 0.5216 0.0
C2623 C 0.552 0.55122 0.51688 0.0
C2624 C 0.57208 0.55754 0.51876 0.0
H2625 H 0.6739 0.56157 0.53625 0.0
H2626 H 0.64079 0.55095 0.53653 0.0
H2627 H 0.59871 0.59739 0.5307 0.0
H2628 H 0.50971 0.56783 0.50047 0.0
H2629 H 0.54297 0.57741 0.50228 0.0
C2630 C 0.22827 0.96081 0.55016 0.0
C2631 C 0.24231 0.96349 0.5358 0.0
C2632 C 0.21182 0.97166 0.54957 0.0
C2633 C 0.17899 -0.0013 0.54882 0.0
H2634 H 0.15837 0.0045 0.4959 0.0
C2635 C 0.1046 0.01973 0.50666 0.0
C2636 C 0.09288 0.00511 0.51461 0.0
C2637 C 0.12394 0.02042 0.51128 0.0
C2638 C 0.16409 0.00339 0.51076 0.0
H2639 H 0.25091 0.98069 0.51053 0.0
H2640 H 0.22251 0.0002 0.50993 0.0
H2641 H 0.19108 0.99503 0.50018 0.0
H2642 H 0.09179 0.98058 0.53452 0.0
H2643 H 0.12541 0.98209 0.54293 0.0
H2644 H 0.15126 0.00551 0.55918 0.0
C2645 C 0.22384 0.98923 0.52123 0.0
C2646 C 0.18289 -0.002 0.51327 0.0
C2647 C 0.24017 0.97812 0.52162 0.0
C2648 C 0.10056 0.99191 0.52807 0.0
C2649 C 0.11973 0.99287 0.53302 0.0
C2650 C 0.16007 0.00375 0.54628 0.0
C2651 C 0.20916 0.98569 0.53479 0.0
C2652 C 0.19042 0.99493 0.53233 0.0
C2653 C 0.13167 0.00683 0.52432 0.0
C2654 C 0.15234 0.00555 0.52721 0.0
H2655 H 0.22951 0.94962 0.56126 0.0
H2656 H 0.20079 0.96825 0.5601 0.0
H2657 H 0.18441 -0.00302 0.56372 0.0
H2658 H 0.099 0.03005 0.49621 0.0
H2659 H 0.13293 0.03126 0.50436 0.0
C2660 C 0.30568 0.9535 0.69857 0.0
C2661 C 0.32472 0.94872 0.70172 0.0
C2662 C 0.29166 0.93901 0.69783 0.0
C2663 C 0.28434 0.89009 0.71743 0.0
H2664 H 0.23692 0.89145 0.68827 0.0
C2665 C 0.21878 0.83482 0.70111 0.0
C2666 C 0.21811 0.82614 0.71987 0.0
C2667 C 0.22912 0.85199 0.69831 0.0
C2668 C 0.25012 0.89086 0.69648 0.0
H2669 H 0.3443 0.9251 0.70439 0.0
H2670 H 0.31997 0.89979 0.70231 0.0
H2671 H 0.26174 0.9156 0.68148 0.0
H2672 H 0.22569 0.82964 0.75078 0.0
H2673 H 0.24297 0.86004 0.74609 0.0
H2674 H 0.27324 0.86512 0.73193 0.0
C2675 C 0.31573 0.91472 0.70123 0.0
C2676 C 0.26428 0.90474 0.69266 0.0
C2677 C 0.3297 0.92919 0.70227 0.0
C2678 C 0.22624 0.8359 0.73611 0.0
C2679 C 0.23627 0.85321 0.73337 0.0
C2680 C 0.27031 0.87623 0.72113 0.0
C2681 C 0.29649 0.91951 0.69998 0.0
C2682 C 0.28158 0.90445 0.70308 0.0
C2683 C 0.23871 0.86087 0.71428 0.0
C2684 C 0.253 0.87646 0.71079 0.0
H2685 H 0.30142 0.96845 0.69807 0.0
H2686 H 0.27699 0.94322 0.69688 0.0
H2687 H 0.29729 0.88965 0.72606 0.0
H2688 H 0.21267 0.82758 0.68831 0.0
H2689 H 0.23071 0.85747 0.68341 0.0
C2690 C 0.2696 0.07865 0.01826 0.0
C2691 C 0.25799 0.07455 0.03455 0.0
C2692 C 0.28794 0.07161 0.01751 0.0
C2693 C 0.31931 0.03439 0.036 0.0
H2694 H 0.35888 0.07176 0.02305 0.0
C2695 C 0.39907 0.01557 0.03557 0.0
C2696 C 0.40978 0.02357 0.02006 0.0
C2697 C 0.38043 0.02132 0.03861 0.0
C2698 C 0.34799 0.06109 0.02648 0.0
H2699 H 0.25621 0.05924 0.0625 0.0
H2700 H 0.28837 0.04672 0.06101 0.0
H2701 H 0.32628 0.0822 0.02555 0.0
H2702 H 0.40917 0.04349 0.99528 0.0
H2703 H 0.37675 0.05312 0.00029 0.0
H2704 H 0.341 0.01315 0.03642 0.0
C2705 C 0.28321 0.05549 0.04892 0.0
C2706 C 0.32935 0.06709 0.02796 0.0
C2707 C 0.26488 0.06271 0.04979 0.0
C2708 C 0.40141 0.03719 0.00751 0.0
C2709 C 0.38282 0.04282 0.01046 0.0
C2710 C 0.33801 0.02831 0.03433 0.0
C2711 C 0.29499 0.06018 0.03293 0.0
C2712 C 0.31481 0.05377 0.03246 0.0
C2713 C 0.37216 0.03511 0.02613 0.0
C2714 C 0.3525 0.04157 0.02926 0.0
H2715 H 0.26471 0.08768 0.00626 0.0
H2716 H 0.29668 0.07521 0.00489 0.0
H2717 H 0.3083 0.02384 0.03943 0.0
H2718 H 0.40514 0.00506 0.04551 0.0
H2719 H 0.37262 0.01522 0.0509 0.0
C2720 C 0.65089 0.5821 0.69875 0.0
C2721 C 0.65531 0.56461 0.70807 0.0
C2722 C 0.66427 0.59721 0.69808 0.0
C2723 C 0.7151 0.60983 0.70636 0.0
H2724 H 0.69515 0.65881 0.72371 0.0
C2725 C 0.74105 0.68755 0.74231 0.0
C2726 C 0.75532 0.69331 0.72907 0.0
C2727 C 0.73033 0.67077 0.73881 0.0
C2728 C 0.70096 0.64519 0.71897 0.0
H2729 H 0.67762 0.54874 0.72275 0.0
H2730 H 0.70076 0.57509 0.72177 0.0
H2731 H 0.67355 0.63179 0.7172 0.0
H2732 H 0.77035 0.68525 0.70249 0.0
H2733 H 0.75152 0.65592 0.69639 0.0
H2734 H 0.74262 0.62324 0.70875 0.0
C2735 C 0.68706 0.57717 0.7149 0.0
C2736 C 0.68855 0.6298 0.71491 0.0
C2737 C 0.67371 0.56211 0.7156 0.0
C2738 C 0.75944 0.68124 0.71296 0.0
C2739 C 0.74866 0.66443 0.70946 0.0
C2740 C 0.72755 0.6253 0.71039 0.0
C2741 C 0.68231 0.59507 0.70666 0.0
C2742 C 0.69548 0.61187 0.70881 0.0
C2743 C 0.73361 0.65939 0.722 0.0
C2744 C 0.7206 0.64303 0.71705 0.0
H2745 H 0.63689 0.58442 0.69268 0.0
H2746 H 0.66032 0.61077 0.69135 0.0
H2747 H 0.72084 0.59621 0.70154 0.0
H2748 H 0.73763 0.69638 0.75498 0.0
H2749 H 0.7191 0.66696 0.749 0.0
C2750 C 0.83039 0.4552 0.05073 0.0
C2751 C 0.81798 0.4616 0.0359 0.0
C2752 C 0.84697 0.46568 0.05513 0.0
C2753 C 0.87364 0.51171 0.04552 0.0
H2754 H 0.91663 0.4777 0.04391 0.0
C2755 C 0.95581 0.51183 0.01992 0.0
C2756 C 0.965 0.52538 0.03236 0.0
C2757 C 0.93693 0.50674 0.02289 0.0
C2758 C 0.90475 0.48738 0.04452 0.0
H2759 H 0.8125 0.48474 0.0151 0.0
H2760 H 0.8416 0.50273 0.02244 0.0
H2761 H 0.8849 0.46393 0.0465 0.0
H2762 H 0.96111 0.54526 0.05678 0.0
H2763 H 0.92767 0.53634 0.06183 0.0
H2764 H 0.89384 0.53514 0.04265 0.0
C2765 C 0.83846 0.48976 0.03084 0.0
C2766 C 0.88658 0.47952 0.04624 0.0
C2767 C 0.82184 0.47933 0.02651 0.0
C2768 C 0.95443 0.53474 0.04699 0.0
C2769 C 0.93536 0.52965 0.04991 0.0
C2770 C 0.89196 0.51962 0.04391 0.0
C2771 C 0.85152 0.4827 0.04471 0.0
C2772 C 0.87076 0.49153 0.04623 0.0
C2773 C 0.92672 0.51509 0.03831 0.0
C2774 C 0.90758 0.50743 0.04277 0.0
H2775 H 0.82767 0.44173 0.05844 0.0
H2776 H 0.8566 0.46005 0.06615 0.0
H2777 H 0.86171 0.52133 0.04565 0.0
H2778 H 0.96342 0.50455 0.00831 0.0
H2779 H 0.93043 0.49577 0.01348 0.0
C2780 C 0.33438 0.04085 0.76705 0.0
C2781 C 0.33673 0.03024 0.74956 0.0
C2782 C 0.32238 0.0566 0.76742 0.0
C2783 C 0.30082 0.09279 0.73525 0.0
H2784 H 0.2717 0.10322 0.78235 0.0
C2785 C 0.25044 0.15504 0.77247 0.0
C2786 C 0.26201 0.17127 0.76841 0.0
C2787 C 0.25607 0.13657 0.76691 0.0
C2788 C 0.27941 0.10039 0.7689 0.0
H2789 H 0.32823 0.02772 0.71874 0.0
H2790 H 0.30713 0.05526 0.71945 0.0
H2791 H 0.28796 0.0727 0.77931 0.0
H2792 H 0.28806 0.18095 0.75437 0.0
H2793 H 0.298 0.14886 0.7451 0.0
H2794 H 0.29236 0.12057 0.72491 0.0
C2795 C 0.31472 0.05146 0.73281 0.0
C2796 C 0.28896 0.083 0.7673 0.0
C2797 C 0.32679 0.03569 0.73243 0.0
C2798 C 0.27883 0.16876 0.75782 0.0
C2799 C 0.28447 0.15033 0.75232 0.0
C2800 C 0.2912 0.11017 0.73682 0.0
C2801 C 0.3124 0.06207 0.75032 0.0
C2802 C 0.30024 0.07928 0.75074 0.0
C2803 C 0.27338 0.134 0.75721 0.0
C2804 C 0.28087 0.11439 0.75393 0.0
H2805 H 0.34188 0.03706 0.78048 0.0
H2806 H 0.32119 0.06473 0.78104 0.0
H2807 H 0.30942 0.09036 0.72232 0.0
H2808 H 0.23729 0.1565 0.78043 0.0
H2809 H 0.24709 0.12427 0.77062 0.0
C2810 C 0.15026 0.97865 0.26765 0.0
C2811 C 0.15318 0.9909 0.25135 0.0
C2812 C 0.15565 0.95936 0.26686 0.0
C2813 C 0.18736 0.92633 0.24138 0.0
H2814 H 0.15296 0.88658 0.26103 0.0
C2815 C 0.20473 0.84566 0.23527 0.0
C2816 C 0.20146 0.8345 0.2523 0.0
C2817 C 0.19749 0.86425 0.23373 0.0
C2818 C 0.16278 0.89752 0.25563 0.0
H2819 H 0.16433 0.99261 0.22156 0.0
H2820 H 0.17381 0.95891 0.22026 0.0
H2821 H 0.14354 0.92033 0.26155 0.0
H2822 H 0.18747 0.83388 0.28079 0.0
H2823 H 0.17514 0.86635 0.27822 0.0
H2824 H 0.20677 0.90364 0.23581 0.0
C2825 C 0.16738 0.96427 0.23364 0.0
C2826 C 0.15738 0.91683 0.25593 0.0
C2827 C 0.1619 0.98355 0.23438 0.0
C2828 C 0.19025 0.84206 0.26744 0.0
C2829 C 0.18308 0.86067 0.26593 0.0
C2830 C 0.1928 0.90704 0.24115 0.0
C2831 C 0.16417 0.95196 0.24981 0.0
C2832 C 0.16968 0.93143 0.24895 0.0
C2833 C 0.18689 0.8721 0.24921 0.0
C2834 C 0.18062 0.89243 0.2484 0.0
H2835 H 0.1436 0.98387 0.28095 0.0
H2836 H 0.15326 0.95026 0.27966 0.0
H2837 H 0.19721 0.93731 0.23611 0.0
H2838 H 0.21319 0.84022 0.22326 0.0
H2839 H 0.20039 0.87257 0.2205 0.0
C2840 C 0.49338 0.31922 0.42946 0.0
C2841 C 0.48666 0.31528 0.41025 0.0
C2842 C 0.48994 0.33701 0.43838 0.0
C2843 C 0.45597 0.3758 0.43819 0.0
H2844 H 0.49515 0.40531 0.46579 0.0
C2845 C 0.4424 0.45131 0.47097 0.0
C2846 C 0.45169 0.45637 0.48872 0.0
C2847 C 0.44668 0.43414 0.46122 0.0
C2848 C 0.48397 0.39711 0.45842 0.0
H2849 H 0.47139 0.32699 0.38515 0.0
H2850 H 0.4652 0.35802 0.4009 0.0
H2851 H 0.50322 0.37551 0.44877 0.0
H2852 H 0.47225 0.44708 0.51054 0.0
H2853 H 0.47921 0.41684 0.49394 0.0
H2854 H 0.43657 0.39697 0.44822 0.0
C2855 C 0.47314 0.34732 0.40899 0.0
C2856 C 0.48865 0.38012 0.44858 0.0
C2857 C 0.4768 0.32963 0.39996 0.0
C2858 C 0.46496 0.44367 0.49679 0.0
C2859 C 0.46906 0.42639 0.48718 0.0
C2860 C 0.45123 0.39266 0.44822 0.0
C2861 C 0.47951 0.35108 0.42835 0.0
C2862 C 0.4747 0.36933 0.43837 0.0
C2863 C 0.46017 0.42153 0.46913 0.0
C2864 C 0.46517 0.40354 0.45848 0.0
H2865 H 0.50105 0.30844 0.43773 0.0
H2866 H 0.49492 0.33953 0.45337 0.0
H2867 H 0.44491 0.36757 0.43064 0.0
H2868 H 0.43221 0.46088 0.4643 0.0
H2869 H 0.43973 0.43102 0.44723 0.0
C2870 C 0.4338 0.7797 0.16801 0.0
C2871 C 0.4367 0.75963 0.16786 0.0
C2872 C 0.41804 0.78734 0.1773 0.0
C2873 C 0.37751 0.79772 0.18737 0.0
H2874 H 0.36123 0.77598 0.23736 0.0
C2875 C 0.30181 0.80165 0.2176 0.0
C2876 C 0.29927 0.80069 0.23816 0.0
C2877 C 0.32002 0.80189 0.2097 0.0
C2878 C 0.36575 0.78252 0.2236 0.0
H2879 H 0.4253 0.73185 0.17728 0.0
H2880 H 0.39765 0.74521 0.1934 0.0
H2881 H 0.39026 0.76491 0.22242 0.0
H2882 H 0.31365 0.80181 0.2666 0.0
H2883 H 0.3454 0.80271 0.25281 0.0
H2884 H 0.35282 0.81523 0.18852 0.0
C2885 C 0.40773 0.75503 0.18652 0.0
C2886 C 0.38224 0.77592 0.21489 0.0
C2887 C 0.42349 0.74737 0.17719 0.0
C2888 C 0.31518 0.80219 0.25068 0.0
C2889 C 0.33337 0.8026 0.24279 0.0
C2890 C 0.36096 0.80434 0.1961 0.0
C2891 C 0.40487 0.7751 0.18668 0.0
C2892 C 0.38809 0.78317 0.19651 0.0
C2893 C 0.33596 0.80134 0.22225 0.0
C2894 C 0.35475 0.79656 0.21416 0.0
H2895 H 0.44373 0.78957 0.16097 0.0
H2896 H 0.41629 0.80287 0.17735 0.0
H2897 H 0.38166 0.80353 0.17314 0.0
H2898 H 0.28981 0.80057 0.20757 0.0
H2899 H 0.32153 0.8009 0.19381 0.0
C2900 C 0.03182 0.72094 0.93269 0.0
C2901 C 0.02249 0.73774 0.93849 0.0
C2902 C 0.03796 0.70778 0.94688 0.0
C2903 C 0.02295 0.68754 0.99222 0.0
H2904 H 0.07212 0.6636 0.99382 0.0
C2905 C 0.03289 0.61511 0.03232 0.0
C2906 C 0.04328 0.60157 0.02158 0.0
C2907 C 0.03341 0.63467 0.02702 0.0
C2908 C 0.05828 0.67007 0.99353 0.0
H2909 H 0.01271 0.75431 0.96356 0.0
H2910 H 0.0229 0.73082 0.98835 0.0
H2911 H 0.06776 0.69299 0.97449 0.0
H2912 H 0.06293 0.59812 -0.00269 0.0
H2913 H 0.06325 0.63164 0.98769 0.0
H2914 H 0.01289 0.66391 0.00972 0.0
C2915 C 0.02576 0.72812 0.97288 0.0
C2916 C 0.05588 0.68696 0.9826 0.0
C2917 C 0.02001 0.74152 0.95872 0.0
C2918 C 0.05473 0.60811 0.00596 0.0
C2919 C 0.05508 0.6275 0.00054 0.0
C2920 C 0.02522 0.67042 0.00282 0.0
C2921 C 0.0345 0.71102 0.96702 0.0
C2922 C 0.03806 0.69549 0.98141 0.0
C2923 C 0.04419 0.64103 0.01075 0.0
C2924 C 0.04276 0.66108 0.00301 0.0
H2925 H 0.03389 0.71773 0.91718 0.0
H2926 H 0.04451 0.69456 0.94203 0.0
H2927 H 0.00903 0.69383 0.99137 0.0
H2928 H 0.02407 0.61055 0.04456 0.0
H2929 H 0.02506 0.64472 0.03541 0.0
C2930 C 0.05442 0.23394 0.6812 0.0
C2931 C 0.05697 0.2291 0.66121 0.0
C2932 C 0.06957 0.23355 0.69447 0.0
C2933 C 0.12084 0.23805 0.69707 0.0
H2934 H 0.1147 0.21566 0.74929 0.0
C2935 C 0.17104 0.21823 0.76742 0.0
C2936 C 0.18123 0.23579 0.76938 0.0
C2937 C 0.15516 0.21697 0.75504 0.0
C2938 C 0.11661 0.22188 0.73473 0.0
H2939 H 0.07739 0.21997 0.63946 0.0
H2940 H 0.10406 0.21948 0.66278 0.0
H2941 H 0.08872 0.21331 0.72525 0.0
H2942 H 0.18217 0.26599 0.76062 0.0
H2943 H 0.15448 0.2637 0.73908 0.0
H2944 H 0.14868 0.24672 0.70655 0.0
C2945 C 0.09025 0.22356 0.66807 0.0
C2946 C 0.10176 0.22063 0.72104 0.0
C2947 C 0.07501 0.22377 0.65477 0.0
C2948 C 0.17471 0.25223 0.75941 0.0
C2949 C 0.15894 0.25091 0.74694 0.0
C2950 C 0.13562 0.23946 0.71081 0.0
C2951 C 0.08763 0.22844 0.68803 0.0
C2952 C 0.10371 0.2288 0.70213 0.0
C2953 C 0.14927 0.23318 0.74432 0.0
C2954 C 0.1336 0.23149 0.7298 0.0
H2955 H 0.04069 0.23808 0.68666 0.0
H2956 H 0.06721 0.23761 0.70972 0.0
H2957 H 0.12265 0.2446 0.68264 0.0
H2958 H 0.17567 0.20532 0.77493 0.0
H2959 H 0.14794 0.20312 0.75325 0.0
C2960 C 0.52196 0.69717 0.10233 0.0
C2961 C 0.50607 0.70216 0.11347 0.0
C2962 C 0.52364 0.67853 0.09477 0.0
C2963 C 0.49448 0.63611 0.08082 0.0
H2964 H 0.54311 0.61129 0.07663 0.0
C2965 C 0.50132 0.56002 0.04809 0.0
C2966 C 0.51528 0.55805 0.03352 0.0
C2967 C 0.50098 0.57647 0.05998 0.0
C2968 C 0.52946 0.6181 0.07766 0.0
H2969 H 0.47977 0.69137 0.12604 0.0
H2970 H 0.48285 0.65866 0.11311 0.0
H2971 H 0.54091 0.64209 0.09409 0.0
H2972 H 0.54023 0.57153 0.02055 0.0
H2973 H 0.53955 0.60035 0.04136 0.0
H2974 H 0.48306 0.61221 0.06429 0.0
C2975 C 0.49384 0.66929 0.10988 0.0
C2976 C 0.52819 0.63572 0.08761 0.0
C2977 C 0.4921 0.68799 0.11735 0.0
C2978 C 0.52926 0.57263 0.03158 0.0
C2979 C 0.52895 0.58907 0.04357 0.0
C2980 C 0.49574 0.61846 0.07099 0.0
C2981 C 0.50951 0.66442 0.0983 0.0
C2982 C 0.51072 0.64503 0.08908 0.0
C2983 C 0.51461 0.59127 0.05765 0.0
C2984 C 0.51326 0.6094 0.06913 0.0
H2985 H 0.53296 0.70778 0.09906 0.0
H2986 H 0.53575 0.67535 0.08567 0.0
H2987 H 0.48087 0.64305 0.08136 0.0
H2988 H 0.4904 0.54902 0.05009 0.0
H2989 H 0.48992 0.5777 0.07091 0.0
C2990 C 0.05128 0.78803 0.85395 0.0
C2991 C 0.0316 0.78476 0.85351 0.0
C2992 C 0.06133 0.79041 0.83636 0.0
C2993 C 0.05852 0.77402 0.78537 0.0
H2994 H 0.10412 0.8055 0.77973 0.0
C2995 C 0.1289 0.784 0.73235 0.0
C2996 C 0.135 0.76476 0.73291 0.0
C2997 C 0.11273 0.7894 0.74267 0.0
C2998 C 0.09122 0.79688 0.78084 0.0
H2999 H 0.00684 0.78287 0.83433 0.0
H3000 H 0.02442 0.78702 0.8037 0.0
H3001 H 0.08275 0.81151 0.80719 0.0
H3002 H 0.128 0.73582 0.74312 0.0
H3003 H 0.09978 0.74518 0.76088 0.0
H3004 H 0.06742 0.75884 0.75952 0.0
C3005 C 0.03208 0.78752 0.81763 0.0
C3006 C 0.07909 0.8002 0.79667 0.0
C3007 C 0.02202 0.78523 0.8352 0.0
C3008 C 0.12373 0.75077 0.74251 0.0
C3009 C 0.10749 0.75613 0.75261 0.0
C3010 C 0.0707 0.77062 0.76962 0.0
C3011 C 0.0519 0.78952 0.81799 0.0
C3012 C 0.06293 0.78842 0.79945 0.0
C3013 C 0.10225 0.77561 0.75345 0.0
C3014 C 0.08748 0.78161 0.76755 0.0
H3015 H 0.05908 0.78781 0.86779 0.0
H3016 H 0.07661 0.79179 0.83714 0.0
H3017 H 0.04625 0.7646 0.78717 0.0
H3018 H 0.13728 0.79512 0.72507 0.0
H3019 H 0.10889 0.80448 0.74292 0.0
C3020 C 0.027 0.28941 0.58351 0.0
C3021 C 0.01714 0.27187 0.58635 0.0
C3022 C 0.02208 0.30159 0.56793 0.0
C3023 C 0.97895 0.31296 0.54107 0.0
H3024 H 0.01122 0.35379 0.5201 0.0
C3025 C 0.95713 0.39123 0.53732 0.0
C3026 C 0.96504 0.40378 0.52319 0.0
C3027 C 0.96171 0.37171 0.53744 0.0
C3028 C 0.00195 0.34229 0.52535 0.0
H3029 H -0.00394 0.25216 0.57375 0.0
H3030 H 0.98772 0.27326 0.54633 0.0
H3031 H 0.02539 0.32455 0.53305 0.0
H3032 H 0.98263 0.4053 0.49698 0.0
H3033 H 0.99059 0.37115 0.49725 0.0
H3034 H 0.95557 0.33099 0.53404 0.0
C3035 C -0.00115 0.27789 0.55646 0.0
C3036 C 0.01012 0.32562 0.53299 0.0
C3037 C 0.00367 0.2658 0.57214 0.0
C3038 C 0.97643 0.39607 0.50823 0.0
C3039 C 0.98106 0.37652 0.50838 0.0
C3040 C 0.9708 0.32957 0.53336 0.0
C3041 C 0.0073 0.29635 0.55479 0.0
C3042 C -0.00124 0.31124 0.54188 0.0
C3043 C 0.9743 0.3643 0.52342 0.0
C3044 C 0.98228 0.34484 0.5264 0.0
H3045 H 0.03752 0.29445 0.59415 0.0
H3046 H 0.02883 0.31574 0.5672 0.0
H3047 H 0.96973 0.30223 0.54784 0.0
H3048 H 0.94819 0.39665 0.54896 0.0
H3049 H 0.95638 0.36275 0.54936 0.0
C3050 C 0.43646 0.25048 0.35787 0.0
C3051 C 0.43706 0.26269 0.37452 0.0
C3052 C 0.42374 0.25388 0.34241 0.0
C3053 C 0.3989 0.29331 0.31888 0.0
H3054 H 0.36571 0.25372 0.29636 0.0
C3055 C 0.33454 0.31136 0.27097 0.0
C3056 C 0.32827 0.29833 0.25626 0.0
C3057 C 0.34993 0.307 0.28304 0.0
C3058 C 0.37518 0.26486 0.30216 0.0
H3059 H 0.42443 0.28762 0.38832 0.0
H3060 H 0.40232 0.29363 0.36121 0.0
H3061 H 0.38765 0.24536 0.32293 0.0
H3062 H 0.33413 0.27108 0.24181 0.0
H3063 H 0.36139 0.26368 0.26266 0.0
H3064 H 0.38667 0.31282 0.29814 0.0
C3065 C 0.41174 0.28149 0.36015 0.0
C3066 C 0.38762 0.26007 0.31747 0.0
C3067 C 0.42426 0.27794 0.37572 0.0
C3068 C 0.33851 0.28137 0.2531 0.0
C3069 C 0.35403 0.27705 0.26515 0.0
C3070 C 0.38666 0.29805 0.30343 0.0
C3071 C 0.41161 0.2697 0.34323 0.0
C3072 C 0.39927 0.27436 0.32623 0.0
C3073 C 0.35958 0.28957 0.28062 0.0
C3074 C 0.37434 0.28399 0.29518 0.0
H3075 H 0.44614 0.23859 0.35657 0.0
H3076 H 0.42388 0.2446 0.32951 0.0
H3077 H 0.40805 0.3045 0.32515 0.0
H3078 H 0.32704 0.32458 0.27382 0.0
H3079 H 0.35364 0.3169 0.29492 0.0
C3080 C 0.42496 0.55487 0.28703 0.0
C3081 C 0.42767 0.53715 0.27737 0.0
C3082 C 0.42688 0.55629 0.30752 0.0
C3083 C 0.4248 0.52582 0.35209 0.0
H3084 H 0.44361 0.57237 0.37814 0.0
C3085 C 0.44611 0.55249 0.43568 0.0
C3086 C 0.43133 0.54323 0.446 0.0
C3087 C 0.44575 0.55328 0.41504 0.0
C3088 C 0.43844 0.55922 0.37111 0.0
H3089 H 0.43547 0.50725 0.28148 0.0
H3090 H 0.43932 0.50982 0.31726 0.0
H3091 H 0.44494 0.56991 0.34222 0.0
H3092 H 0.40393 0.52885 0.44291 0.0
H3093 H 0.40299 0.53082 0.407 0.0
H3094 H 0.41887 0.51484 0.3809 0.0
C3095 C 0.4352 0.52251 0.30904 0.0
C3096 C 0.43903 0.55787 0.3505 0.0
C3097 C 0.43311 0.52105 0.28853 0.0
C3098 C 0.41565 0.53587 0.43536 0.0
C3099 C 0.41519 0.53685 0.41477 0.0
C3100 C 0.42435 0.52711 0.37265 0.0
C3101 C 0.43172 0.54005 0.31882 0.0
C3102 C 0.43211 0.54119 0.34075 0.0
C3103 C 0.43051 0.54501 0.40433 0.0
C3104 C 0.43101 0.54387 0.38241 0.0
H3105 H 0.42074 0.56756 0.27886 0.0
H3106 H 0.42387 0.56996 0.31455 0.0
H3107 H 0.4191 0.51287 0.34509 0.0
H3108 H 0.45843 0.55824 0.44347 0.0
H3109 H 0.45783 0.55958 0.40748 0.0
C3110 C 0.25466 0.67731 0.05571 0.0
C3111 C 0.25767 0.68997 0.03977 0.0
C3112 C 0.24874 0.68429 0.07394 0.0
C3113 C 0.22709 0.72657 0.09811 0.0
H3114 H 0.24869 0.70386 0.14536 0.0
C3115 C 0.22494 0.76022 0.17658 0.0
C3116 C 0.22271 0.74751 0.19265 0.0
C3117 C 0.22601 0.75308 0.1573 0.0
C3118 C 0.2423 0.71014 0.13231 0.0
H3119 H 0.2569 0.71993 0.03047 0.0
H3120 H 0.24711 0.73226 0.0626 0.0
H3121 H 0.25796 0.69204 0.11308 0.0
H3122 H 0.21835 0.71743 0.20088 0.0
H3123 H 0.22024 0.70503 0.16724 0.0
H3124 H 0.2119 0.74514 0.11761 0.0
C3125 C 0.24892 0.71685 0.06084 0.0
C3126 C 0.24762 0.70338 0.11379 0.0
C3127 C 0.25469 0.70982 0.04248 0.0
C3128 C 0.22024 0.72763 0.18888 0.0
C3129 C 0.22141 0.7205 0.16963 0.0
C3130 C 0.22188 0.73347 0.11671 0.0
C3131 C 0.24589 0.70415 0.07679 0.0
C3132 C 0.24008 0.71148 0.09645 0.0
C3133 C 0.22495 0.73309 0.15375 0.0
C3134 C 0.22944 0.72529 0.13398 0.0
H3135 H 0.2566 0.66189 0.05406 0.0
H3136 H 0.24618 0.67404 0.08576 0.0
H3137 H 0.22082 0.73296 0.08506 0.0
H3138 H 0.22677 0.77563 0.17895 0.0
H3139 H 0.22878 0.76311 0.14534 0.0
C3140 C 0.09341 0.48388 0.82057 0.0
C3141 C 0.08921 0.49346 0.80282 0.0
C3142 C 0.08231 0.48654 0.83724 0.0
C3143 C 0.05244 0.52192 0.86058 0.0
H3144 H 0.0431 0.47978 0.89723 0.0
C3145 C 0.02583 0.50626 0.94607 0.0
C3146 C 0.03715 0.5204 0.95564 0.0
C3147 C 0.02699 0.50367 0.92561 0.0
C3148 C 0.0452 0.49168 0.88705 0.0
H3149 H 0.06981 0.51306 0.78849 0.0
H3150 H 0.05042 0.5179 0.81792 0.0
H3151 H 0.05439 0.47282 0.86409 0.0
H3152 H 0.05785 0.54352 0.95107 0.0
H3153 H 0.06005 0.5388 0.91561 0.0
H3154 H 0.04376 0.54083 0.88377 0.0
C3155 C 0.06235 0.50832 0.81881 0.0
C3156 C 0.05186 0.4877 0.86813 0.0
C3157 C 0.07343 0.50553 0.802 0.0
C3158 C 0.04901 0.53241 0.94422 0.0
C3159 C 0.05012 0.52985 0.92382 0.0
C3160 C 0.04578 0.52591 0.87953 0.0
C3161 C 0.06677 0.4989 0.83661 0.0
C3162 C 0.05623 0.50282 0.85499 0.0
C3163 C 0.03941 0.51521 0.91434 0.0
C3164 C 0.04277 0.51088 0.89319 0.0
H3165 H 0.10542 0.47441 0.82168 0.0
H3166 H 0.08628 0.47934 0.85083 0.0
H3167 H 0.05571 0.53387 0.85078 0.0
H3168 H 0.01644 0.49686 0.95442 0.0
H3169 H 0.01844 0.49238 0.91868 0.0
C3170 C 0.26052 0.31216 0.57731 0.0
C3171 C 0.24279 0.3198 0.57245 0.0
C3172 C 0.26379 0.30433 0.59606 0.0
C3173 C 0.23868 0.28717 0.64117 0.0
H3174 H 0.28642 0.29936 0.66747 0.0
C3175 C 0.24693 0.28376 0.72494 0.0
C3176 C 0.26104 0.27142 0.73204 0.0
C3177 C 0.2465 0.28919 0.70512 0.0
C3178 C 0.27311 0.29574 0.66019 0.0
H3179 H 0.2145 0.32498 0.58331 0.0
H3180 H 0.22028 0.3119 0.61599 0.0
H3181 H 0.28175 0.30869 0.63291 0.0
H3182 H 0.28652 0.25619 0.72414 0.0
H3183 H 0.28592 0.26618 0.68937 0.0
H3184 H 0.2298 0.275 0.66873 0.0
C3185 C 0.23159 0.31146 0.60528 0.0
C3186 C 0.27044 0.30096 0.64039 0.0
C3187 C 0.22828 0.31908 0.58653 0.0
C3188 C 0.27542 0.26564 0.71911 0.0
C3189 C 0.27511 0.27134 0.69925 0.0
C3190 C 0.24126 0.28225 0.66096 0.0
C3191 C 0.24942 0.30412 0.61036 0.0
C3192 C 0.25305 0.29702 0.63075 0.0
C3193 C 0.26029 0.28265 0.69203 0.0
C3194 C 0.25836 0.28677 0.67071 0.0
H3195 H 0.27196 0.31243 0.56673 0.0
H3196 H 0.27759 0.29854 0.59937 0.0
H3197 H 0.2253 0.28345 0.6341 0.0
H3198 H 0.23567 0.28856 0.73445 0.0
H3199 H 0.23508 0.29815 0.69988 0.0
C3200 C 0.47683 0.51944 0.19294 0.0
C3201 C 0.45731 0.52225 0.19023 0.0
C3202 C 0.48662 0.50699 0.18042 0.0
C3203 C 0.479 0.46695 0.14474 0.0
H3204 H 0.52042 0.49027 0.11545 0.0
C3205 C 0.48712 0.46074 0.06271 0.0
C3206 C 0.50482 0.46339 0.05377 0.0
C3207 C 0.48573 0.45962 0.08321 0.0
C3208 C 0.50931 0.48315 0.12384 0.0
H3209 H 0.43273 0.51397 0.17248 0.0
H3210 H 0.44969 0.49246 0.15086 0.0
H3211 H 0.50944 0.50575 0.14549 0.0
H3212 H 0.53512 0.46495 0.05894 0.0
H3213 H 0.53268 0.46326 0.09501 0.0
H3214 H 0.47798 0.44508 0.12232 0.0
C3215 C 0.45745 0.49968 0.1627 0.0
C3216 C 0.50298 0.4921 0.14104 0.0
C3217 C 0.44777 0.51225 0.17495 0.0
C3218 C 0.52129 0.46284 0.06551 0.0
C3219 C 0.51989 0.46202 0.08613 0.0
C3220 C 0.48536 0.45797 0.12759 0.0
C3221 C 0.47694 0.4969 0.16527 0.0
C3222 C 0.48704 0.48469 0.15094 0.0
C3223 C 0.50203 0.46142 0.09519 0.0
C3224 C 0.49981 0.46664 0.11631 0.0
H3225 H 0.48454 0.52691 0.20464 0.0
H3226 H 0.50169 0.5052 0.1826 0.0
H3227 H 0.46691 0.46073 0.15237 0.0
H3228 H 0.47423 0.46107 0.05394 0.0
H3229 H 0.47174 0.45929 0.08965 0.0
C3230 C 0.22424 0.67477 0.93655 0.0
C3231 C 0.24162 0.67812 0.94629 0.0
C3232 C 0.21978 0.68493 0.91934 0.0
C3233 C 0.24302 0.71147 0.87869 0.0
H3234 H 0.19169 0.72604 0.86552 0.0
C3235 C 0.22546 0.75051 0.80608 0.0
C3236 C 0.21046 0.74213 0.79509 0.0
C3237 C 0.22841 0.7453 0.82578 0.0
C3238 C 0.20608 0.72202 0.86903 0.0
H3239 H 0.26759 0.69534 0.94617 0.0
H3240 H 0.25964 0.71335 0.91644 0.0
H3241 H 0.19853 0.71223 0.89798 0.0
H3242 H 0.18629 0.72235 0.79648 0.0
H3243 H 0.19149 0.71327 0.83086 0.0
H3244 H 0.25053 0.7211 0.84972 0.0
C3245 C 0.24965 0.70253 0.92177 0.0
C3246 C 0.21 0.71407 0.88757 0.0
C3247 C 0.25417 0.69227 0.93886 0.0
C3248 C 0.19803 0.72902 0.80449 0.0
C3249 C 0.20092 0.72391 0.82423 0.0
C3250 C 0.23912 0.71953 0.86025 0.0
C3251 C 0.23254 0.69876 0.91161 0.0
C3252 C 0.22848 0.70847 0.89251 0.0
C3253 C 0.21636 0.7317 0.83494 0.0
C3254 C 0.22059 0.72466 0.85514 0.0
H3255 H 0.21428 0.66394 0.9419 0.0
H3256 H 0.20659 0.68148 0.91177 0.0
H3257 H 0.25734 0.707 0.88184 0.0
H3258 H 0.23525 0.76072 0.79933 0.0
H3259 H 0.2403 0.75169 0.83379 0.0
C3260 C 0.07604 0.4365 0.73075 0.0
C3261 C 0.08984 0.45137 0.72943 0.0
C3262 C 0.06055 0.436 0.7177 0.0
C3263 C 0.03101 0.46823 0.68992 0.0
H3264 H 0.02122 0.42721 0.65191 0.0
C3265 C -0.00428 0.48196 0.61589 0.0
C3266 C 0.98456 0.46759 0.60658 0.0
C3267 C 0.00441 0.47841 0.63402 0.0
C3268 C 0.0234 0.43856 0.66276 0.0
H3269 H 0.09849 0.47698 0.71304 0.0
H3270 H 0.07138 0.47623 0.69067 0.0
H3271 H 0.04533 0.423 0.67768 0.0
H3272 H 0.97292 0.43851 0.6095 0.0
H3273 H 0.98818 0.4323 0.64146 0.0
H3274 H 0.00953 0.48403 0.67496 0.0
C3275 C 0.07258 0.46501 0.70175 0.0
C3276 C 0.03725 0.43616 0.67742 0.0
C3277 C 0.08815 0.46533 0.71448 0.0
C3278 C 0.98146 0.44988 0.61632 0.0
C3279 C 0.99028 0.44627 0.63453 0.0
C3280 C 0.01706 0.47054 0.6755 0.0
C3281 C 0.05851 0.45056 0.70347 0.0
C3282 C 0.04164 0.45131 0.69055 0.0
C3283 C 0.00217 0.46039 0.64336 0.0
C3284 C 0.01368 0.4561 0.66121 0.0
H3285 H 0.07699 0.42552 0.7421 0.0
H3286 H 0.04985 0.42468 0.71916 0.0
H3287 H 0.03403 0.47999 0.70013 0.0
H3288 H -0.00167 0.49581 0.60885 0.0
H3289 H 0.01368 0.48953 0.64021 0.0
C3290 C 0.2554 0.32675 0.46072 0.0
C3291 C 0.23816 0.33109 0.4698 0.0
C3292 C 0.25608 0.32322 0.44039 0.0
C3293 C 0.23234 0.33666 0.39497 0.0
H3294 H 0.2583 0.29364 0.37114 0.0
C3295 C 0.24092 0.30032 0.31343 0.0
C3296 C 0.24789 0.31615 0.30247 0.0
C3297 C 0.23933 0.30156 0.33395 0.0
C3298 C 0.25096 0.30567 0.37765 0.0
H3299 H 0.208 0.33454 0.46482 0.0
H3300 H 0.20931 0.32866 0.42929 0.0
H3301 H 0.2563 0.29596 0.40724 0.0
H3302 H 0.25828 0.3458 0.30438 0.0
H3303 H 0.25506 0.34806 0.34029 0.0
H3304 H 0.2273 0.34658 0.36544 0.0
C3305 C 0.22225 0.32798 0.43794 0.0
C3306 C 0.24991 0.30704 0.39822 0.0
C3307 C 0.22152 0.33122 0.45828 0.0
C3308 C 0.25287 0.33336 0.31242 0.0
C3309 C 0.25099 0.33469 0.33292 0.0
C3310 C 0.23366 0.33546 0.37444 0.0
C3311 C 0.23957 0.32426 0.42878 0.0
C3312 C 0.24053 0.32252 0.40704 0.0
C3313 C 0.24439 0.31873 0.34386 0.0
C3314 C 0.24294 0.31994 0.3656 0.0
H3315 H 0.26844 0.3265 0.46924 0.0
H3316 H 0.26962 0.32044 0.43362 0.0
H3317 H 0.22519 0.34883 0.40146 0.0
H3318 H 0.23705 0.28682 0.30621 0.0
H3319 H 0.23407 0.28912 0.34208 0.0
C3320 C 0.26062 0.40897 0.52661 0.0
C3321 C 0.25196 0.40172 0.54377 0.0
C3322 C 0.27225 0.42542 0.52751 0.0
C3323 C 0.3037 0.45204 0.56057 0.0
H3324 H 0.30243 0.49042 0.51884 0.0
C3325 C 0.36442 0.5076 0.55147 0.0
C3326 C 0.3717 0.50774 0.53217 0.0
C3327 C 0.34662 0.49928 0.55524 0.0
C3328 C 0.30291 0.47988 0.53065 0.0
H3329 H 0.24865 0.40607 0.57533 0.0
H3330 H 0.26938 0.43476 0.57692 0.0
H3331 H 0.27702 0.46617 0.52111 0.0
H3332 H 0.36546 0.50056 0.50152 0.0
H3333 H 0.33472 0.48599 0.50809 0.0
H3334 H 0.33011 0.46499 0.56945 0.0
C3335 C 0.26699 0.4277 0.56279 0.0
C3336 C 0.28839 0.46603 0.53194 0.0
C3337 C 0.25515 0.41131 0.56186 0.0
C3338 C 0.36035 0.50054 0.51659 0.0
C3339 C 0.3426 0.49235 0.52033 0.0
C3340 C 0.3183 0.46584 0.55922 0.0
C3341 C 0.27562 0.43491 0.5456 0.0
C3342 C 0.28902 0.45156 0.54646 0.0
C3343 C 0.33574 0.49113 0.53975 0.0
C3344 C 0.31841 0.47944 0.54378 0.0
H3345 H 0.2584 0.40194 0.51243 0.0
H3346 H 0.27899 0.43047 0.51408 0.0
H3347 H 0.30456 0.44099 0.57186 0.0
H3348 H 0.3728 0.51311 0.56378 0.0
H3349 H 0.3416 0.49871 0.57033 0.0
C3350 C 0.85291 0.10195 0.50262 0.0
C3351 C 0.85435 0.11891 0.49129 0.0
C3352 C 0.86295 0.08557 0.49741 0.0
C3353 C 0.88911 0.06282 0.45627 0.0
H3354 H 0.91231 0.03449 0.49919 0.0
C3355 C 0.95362 0.01311 0.4502 0.0
C3356 C 0.95561 -0.0012 0.46476 0.0
C3357 C 0.9373 0.02426 0.44954 0.0
C3358 C 0.90558 0.0419 0.48699 0.0
H3359 H 0.86753 0.13198 0.46558 0.0
H3360 H 0.88564 0.10349 0.45684 0.0
H3361 H 0.89286 0.06193 0.50659 0.0
H3362 H 0.94112 0.98275 0.48777 0.0
H3363 H 0.91237 0.00165 0.4861 0.0
H3364 H 0.9027 0.04304 0.43667 0.0
C3365 C 0.87637 0.10275 0.46951 0.0
C3366 C 0.89444 0.05775 0.49126 0.0
C3367 C 0.86617 0.11915 0.47465 0.0
C3368 C 0.94 0.99388 0.47657 0.0
C3369 C 0.92363 0.00482 0.47573 0.0
C3370 C 0.90041 0.04694 0.45197 0.0
C3371 C 0.87487 0.08577 0.48086 0.0
C3372 C 0.88617 0.0685 0.47599 0.0
C3373 C 0.92273 0.02104 0.46329 0.0
C3374 C 0.90884 0.03638 0.46732 0.0
H3375 H 0.84375 0.10116 0.51539 0.0
H3376 H 0.8612 0.07266 0.5063 0.0
H3377 H 0.88274 0.07067 0.44416 0.0
H3378 H 0.96546 0.01723 0.44092 0.0
H3379 H 0.93701 0.03659 0.4397 0.0
C3380 C 0.64601 0.02086 0.20751 0.0
C3381 C 0.64605 0.01668 0.22786 0.0
C3382 C 0.65878 0.03452 0.19978 0.0
C3383 C 0.70236 0.06315 0.21193 0.0
H3384 H 0.67729 0.10475 0.18437 0.0
C3385 C 0.71809 0.14193 0.22651 0.0
C3386 C 0.71814 0.15555 0.21116 0.0
C3387 C 0.71403 0.12255 0.22262 0.0
C3388 C 0.6847 0.09307 0.19152 0.0
H3389 H 0.66014 0.0227 0.25585 0.0
H3390 H 0.68225 0.04646 0.24247 0.0
H3391 H 0.66092 0.07369 0.18844 0.0
H3392 H 0.71459 0.15962 0.1796 0.0
H3393 H 0.70668 0.12542 0.17283 0.0
H3394 H 0.72555 0.08307 0.21633 0.0
C3395 C 0.6725 0.03916 0.23241 0.0
C3396 C 0.67533 0.07527 0.19388 0.0
C3397 C 0.65967 0.02568 0.24013 0.0
C3398 C 0.71461 0.14934 0.19167 0.0
C3399 C 0.71012 0.12987 0.18781 0.0
C3400 C 0.71169 0.08094 0.20963 0.0
C3401 C 0.67196 0.04403 0.21224 0.0
C3402 C 0.68368 0.06052 0.20505 0.0
C3403 C 0.70965 0.11637 0.20333 0.0
C3404 C 0.70252 0.09635 0.20034 0.0
H3405 H 0.6357 0.01409 0.19767 0.0
H3406 H 0.65809 0.03796 0.18418 0.0
H3407 H 0.70929 0.05189 0.22024 0.0
H3408 H 0.72094 0.14629 0.24165 0.0
H3409 H 0.71347 0.11254 0.23492 0.0
C3410 C 0.67491 0.90239 0.0109 0.0
C3411 C 0.68187 0.89643 0.99252 0.0
C3412 C 0.65916 0.91422 0.0119 0.0
C3413 C 0.63082 0.9477 0.98128 0.0
H3414 H 0.59465 0.94164 0.0238 0.0
C3415 C 0.5558 0.97958 0.98167 0.0
C3416 C 0.54956 0.98779 -0.00057 0.0
C3417 C 0.57334 0.97068 0.9808 0.0
C3418 C 0.60479 0.94365 0.012 0.0
H3419 H 0.67742 0.89755 0.9608 0.0
H3420 H 0.64944 0.91757 0.96254 0.0
H3421 H 0.62159 0.92025 0.02212 0.0
H3422 H 0.55714 0.99392 0.02997 0.0
H3423 H 0.58776 0.97804 0.02849 0.0
H3424 H 0.61342 0.97066 0.9708 0.0
C3425 C 0.6565 0.91365 0.97618 0.0
C3426 C 0.62024 0.93141 0.01102 0.0
C3427 C 0.67242 0.90202 0.97517 0.0
C3428 C 0.56159 0.98775 0.01607 0.0
C3429 C 0.57902 0.97857 0.01527 0.0
C3430 C 0.61521 0.95977 0.98212 0.0
C3431 C 0.64985 0.92015 0.99455 0.0
C3432 C 0.63342 0.93323 0.99561 0.0
C3433 C 0.58484 0.96961 -0.00226 0.0
C3434 C 0.60206 0.95781 -0.00253 0.0
H3435 H 0.682 0.89847 0.02453 0.0
H3436 H 0.65462 0.91914 0.02628 0.0
H3437 H 0.64088 0.94979 0.96943 0.0
H3438 H 0.54686 0.97948 0.96858 0.0
H3439 H 0.57748 0.9638 0.96713 0.0
C3440 C 0.35614 0.50544 0.21703 0.0
C3441 C 0.36379 0.51329 0.19963 0.0
C3442 C 0.34168 0.49147 0.21612 0.0
C3443 C 0.32292 0.45331 0.18387 0.0
H3444 H 0.28341 0.45056 0.22335 0.0
C3445 C 0.27497 0.38542 0.19273 0.0
C3446 C 0.27478 0.3785 0.21227 0.0
C3447 C 0.28176 0.40412 0.18865 0.0
C3448 C 0.29431 0.45118 0.21216 0.0
H3449 H 0.3619 0.51303 0.16758 0.0
H3450 H 0.3366 0.4885 0.16601 0.0
H3451 H 0.30321 0.47971 0.22077 0.0
H3452 H 0.28052 0.3861 0.24291 0.0
H3453 H 0.29227 0.41849 0.23581 0.0
H3454 H 0.31454 0.42447 0.1758 0.0
C3455 C 0.3419 0.49313 0.18035 0.0
C3456 C 0.30565 0.46784 0.21071 0.0
C3457 C 0.35634 0.5072 0.18127 0.0
C3458 C 0.2806 0.39093 0.22768 0.0
C3459 C 0.28718 0.40959 0.22363 0.0
C3460 C 0.31156 0.43664 0.18531 0.0
C3461 C 0.33455 0.48499 0.19777 0.0
C3462 C 0.3205 0.46881 0.19702 0.0
C3463 C 0.2882 0.41627 0.20406 0.0
C3464 C 0.29758 0.43516 0.19994 0.0
H3465 H 0.36154 0.50983 0.23142 0.0
H3466 H 0.33654 0.48527 0.22981 0.0
H3467 H 0.33434 0.45357 0.17325 0.0
H3468 H 0.27056 0.37618 0.18055 0.0
H3469 H 0.28231 0.40896 0.17343 0.0
C3470 C 0.2486 0.58775 0.03025 0.0
C3471 C 0.24774 0.59767 0.01213 0.0
C3472 C 0.23579 0.57267 0.03428 0.0
C3473 C 0.19984 0.53973 0.01155 0.0
H3474 H 0.17067 0.55046 0.05854 0.0
C3475 C 0.12045 0.52976 0.01458 0.0
C3476 C 0.1112 0.52538 0.03238 0.0
C3477 C 0.14008 0.53152 0.014 0.0
C3478 C 0.17891 0.54679 0.04567 0.0
H3479 H 0.23366 0.59878 0.98357 0.0
H3480 H 0.21135 0.57251 0.99058 0.0
H3481 H 0.20105 0.56681 0.05373 0.0
H3482 H 0.11533 0.51827 0.06331 0.0
H3483 H 0.14993 0.5216 0.06233 0.0
H3484 H 0.17719 0.5205 0.00298 0.0
C3485 C 0.22193 0.57632 0.00166 0.0
C3486 C 0.19633 0.55621 0.04289 0.0
C3487 C 0.23458 0.5915 -0.00229 0.0
C3488 C 0.12209 0.52178 0.04941 0.0
C3489 C 0.14185 0.5237 0.04886 0.0
C3490 C 0.18248 0.53024 0.01438 0.0
C3491 C 0.22208 0.56708 0.02016 0.0
C3492 C 0.20647 0.5535 0.02533 0.0
C3493 C 0.151 0.529 0.03121 0.0
C3494 C 0.17138 0.53447 0.03095 0.0
H3495 H 0.25866 0.59212 0.04163 0.0
H3496 H 0.23624 0.56573 0.04862 0.0
H3497 H 0.20757 0.53713 -0.00195 0.0
H3498 H 0.11249 0.53241 0.00113 0.0
H3499 H 0.1466 0.53591 0.00023 0.0
C3500 C 0.63866 0.92608 0.26962 0.0
C3501 C 0.62505 0.93079 0.28379 0.0
C3502 C 0.65067 0.9106 0.27268 0.0
C3503 C 0.67087 0.88024 0.31208 0.0
H3504 H 0.68624 0.84945 0.26724 0.0
C3505 C 0.71578 0.80943 0.31204 0.0
C3506 C 0.72885 0.80848 0.29652 0.0
C3507 C 0.70426 0.82561 0.31392 0.0
C3508 C 0.68218 0.85804 0.27988 0.0
H3509 H 0.61296 0.92252 0.31202 0.0
H3510 H 0.63375 0.8951 0.31715 0.0
H3511 H 0.662 0.87353 0.26283 0.0
H3512 H 0.74193 0.82438 0.2725 0.0
H3513 H 0.72213 0.85262 0.27599 0.0
H3514 H 0.69105 0.86419 0.32912 0.0
C3515 C 0.63533 0.90367 0.30386 0.0
C3516 C 0.6683 0.87184 0.27736 0.0
C3517 C 0.62332 0.91926 0.30082 0.0
C3518 C 0.73181 0.82473 0.28446 0.0
C3519 C 0.72043 0.84081 0.28638 0.0
C3520 C 0.68471 0.86618 0.31465 0.0
C3521 C 0.64929 0.89932 0.28991 0.0
C3522 C 0.66275 0.88341 0.29329 0.0
C3523 C 0.70583 0.84089 0.30033 0.0
C3524 C 0.69075 0.8553 0.29843 0.0
H3525 H 0.64046 0.93471 0.25639 0.0
H3526 H 0.66144 0.90786 0.26176 0.0
H3527 H 0.66698 0.889 0.32464 0.0
H3528 H 0.71318 0.79701 0.32144 0.0
H3529 H 0.6931 0.82541 0.32483 0.0
C3530 C 0.89309 0.07879 0.73522 0.0
C3531 C 0.90985 0.07455 0.74553 0.0
C3532 C 0.88486 0.09687 0.73709 0.0
C3533 C 0.88246 0.1379 0.77144 0.0
H3534 H 0.85771 0.16281 0.72717 0.0
C3535 C 0.84711 0.2127 0.77723 0.0
C3536 C 0.82955 0.21453 0.76755 0.0
C3537 C 0.85787 0.19613 0.77462 0.0
C3538 C 0.86444 0.15594 0.73971 0.0
H3539 H 0.9315 0.08624 0.76531 0.0
H3540 H 0.91719 0.11794 0.76842 0.0
H3541 H 0.87553 0.13347 0.72166 0.0
H3542 H 0.80934 0.20011 0.74791 0.0
H3543 H 0.82801 0.17125 0.74353 0.0
H3544 H 0.8712 0.16033 0.78951 0.0
C3545 C 0.91028 0.10714 0.75912 0.0
C3546 C 0.87466 0.13916 0.73654 0.0
C3547 C 0.91855 0.08902 0.75723 0.0
C3548 C 0.82283 0.19925 0.75554 0.0
C3549 C 0.83359 0.18275 0.75289 0.0
C3550 C 0.87225 0.15473 0.7746 0.0
C3551 C 0.8932 0.11115 0.7493 0.0
C3552 C 0.88358 0.1298 0.75241 0.0
C3553 C 0.85132 0.1811 0.76221 0.0
C3554 C 0.86292 0.16377 0.75881 0.0
H3555 H 0.88602 0.06797 0.72608 0.0
H3556 H 0.87159 0.09942 0.7295 0.0
H3557 H 0.88895 0.13089 0.78402 0.0
H3558 H 0.85273 0.22419 0.78657 0.0
H3559 H 0.87153 0.1953 0.78192 0.0
loop_
_geom_bond_atom_site_label_1
_geom_bond_atom_site_label_2
_geom_bond_distance
_geom_bond_site_symmetry_2
_ccdc_geom_bond_type
C0 O1 1.160 . S
C0 O7 1.185 . S
O1 C0 1.160 . S
O2 Zn3 1.899 . S
O2 C10 1.284 . S
Zn3 O2 1.899 . S
Zn3 O4 2.032 1_455 S
Zn3 O7 2.086 1_455 S
Zn3 O12 1.977 . S
O4 Zn3 2.032 1_655 S
O4 C8 1.278 1_655 S
C5 O6 1.203 . S
C5 O12 1.267 . S
O6 C5 1.203 . S
O7 C0 1.185 . S
O7 Zn3 2.086 1_655 S
C8 O4 1.278 1_455 S
C8 O9 1.211 . S
O9 C8 1.211 . S
C10 O2 1.284 . S
C10 O11 1.273 . S
O11 C10 1.273 . S
O12 Zn3 1.977 . S
O12 C5 1.267 . S
C13 O14 1.160 . S
C13 O20 1.185 . S
O14 C13 1.160 . S
O15 Zn16 1.899 . S
O15 C23 1.284 . S
Zn16 O15 1.899 . S
Zn16 O17 2.032 . S
Zn16 O20 2.086 . S
Zn16 O25 1.977 1_455 S
O17 Zn16 2.032 . S
O17 C21 1.278 . S
C18 O19 1.203 . S
C18 O25 1.267 . S
O19 C18 1.203 . S
O20 C13 1.185 . S
O20 Zn16 2.086 . S
C21 O17 1.278 . S
C21 O22 1.211 1_455 S
O22 C21 1.211 1_655 S
C23 O15 1.284 . S
C23 O24 1.252 1_455 S
O24 C23 1.252 1_655 S
O25 Zn16 1.977 1_655 S
O25 C18 1.267 . S
C26 O27 1.160 . S
C26 O33 1.185 . S
O27 C26 1.160 . S
O28 Zn29 1.899 . S
O28 C36 1.284 . S
Zn29 O28 1.899 . S
Zn29 O30 2.032 . S
Zn29 O33 2.086 . S
Zn29 O38 1.977 . S
O30 Zn29 2.032 . S
O30 C34 1.278 . S
C31 O32 1.203 . S
C31 O38 1.267 . S
O32 C31 1.203 . S
O33 C26 1.185 . S
O33 Zn29 2.086 . S
C34 O30 1.278 . S
C34 O35 1.211 . S
O35 C34 1.211 . S
C36 O28 1.284 . S
C36 O37 1.273 . S
O37 C36 1.273 . S
O38 Zn29 1.977 . S
O38 C31 1.267 . S
C39 O40 1.160 . S
C39 O46 1.185 . S
O40 C39 1.160 . S
O41 Zn42 1.899 . S
O41 C49 1.284 . S
Zn42 O41 1.899 . S
Zn42 O43 2.032 . S
Zn42 O46 2.086 . S
Zn42 O51 1.977 . S
O43 Zn42 2.032 . S
O43 C47 1.278 . S
C44 O45 1.203 . S
C44 O51 1.267 . S
O45 C44 1.203 . S
O46 C39 1.185 . S
O46 Zn42 2.086 . S
C47 O43 1.278 . S
C47 O48 1.211 . S
O48 C47 1.211 . S
C49 O41 1.284 . S
C49 O50 1.273 . S
O50 C49 1.273 . S
O51 Zn42 1.977 . S
O51 C44 1.267 . S
C52 O53 1.160 . S
C52 O59 1.185 . S
O53 C52 1.160 . S
O54 Zn55 1.899 . S
O54 C62 1.284 . S
Zn55 O54 1.899 . S
Zn55 O56 2.032 . S
Zn55 O59 2.086 1_545 S
Zn55 O64 1.977 . S
O56 Zn55 2.032 . S
O56 C60 1.278 . S
C57 O58 1.203 . S
C57 O64 1.267 . S
O58 C57 1.203 . S
O59 C52 1.185 . S
O59 Zn55 2.086 1_565 S
C60 O56 1.278 . S
C60 O61 1.211 . S
O61 C60 1.211 . S
C62 O54 1.284 . S
C62 O63 1.273 . S
O63 C62 1.273 . S
O64 Zn55 1.977 . S
O64 C57 1.267 . S
C65 O66 1.160 . S
C65 O72 1.185 . S
O66 C65 1.160 . S
O67 Zn68 1.899 . S
O67 C75 1.284 . S
Zn68 O67 1.899 . S
Zn68 O69 2.032 . S
Zn68 O72 2.086 . S
Zn68 O77 1.977 . S
O69 Zn68 2.032 . S
O69 C73 1.278 . S
C70 O71 1.203 . S
C70 O77 1.267 . S
O71 C70 1.203 . S
O72 C65 1.185 . S
O72 Zn68 2.086 . S
C73 O69 1.278 . S
C73 O74 1.211 . S
O74 C73 1.211 . S
C75 O67 1.284 . S
C75 O76 1.273 . S
O76 C75 1.273 . S
O77 Zn68 1.977 . S
O77 C70 1.267 . S
C78 O79 1.160 . S
C78 O85 1.185 . S
O79 C78 1.160 . S
O80 Zn81 1.899 . S
O80 C88 1.285 1_545 S
Zn81 O80 1.899 . S
Zn81 O82 2.032 . S
Zn81 O85 2.086 . S
Zn81 O90 1.977 1_545 S
O82 Zn81 2.032 . S
O82 C86 1.278 1_545 S
C83 O84 1.203 . S
C83 O90 1.267 . S
O84 C83 1.203 . S
O85 C78 1.185 . S
O85 Zn81 2.086 . S
C86 O82 1.278 1_565 S
C86 O87 1.211 . S
O87 C86 1.211 . S
C88 O80 1.285 1_565 S
C88 O89 1.272 . S
O89 C88 1.272 . S
O90 Zn81 1.977 1_565 S
O90 C83 1.267 . S
C91 O92 1.160 . S
C91 O98 1.185 . S
O92 C91 1.160 . S
O93 Zn94 1.899 . S
O93 C101 1.284 . S
Zn94 O93 1.899 . S
Zn94 O95 2.032 1_554 S
Zn94 O98 2.086 . S
Zn94 O103 1.977 . S
O95 Zn94 2.032 1_556 S
O95 C99 1.278 . S
C96 O97 1.203 . S
C96 O103 1.267 . S
O97 C96 1.203 . S
O98 C91 1.185 . S
O98 Zn94 2.086 . S
C99 O95 1.278 . S
C99 O100 1.211 . S
O100 C99 1.211 . S
C101 O93 1.284 . S
C101 O102 1.273 . S
O102 C101 1.273 . S
O103 Zn94 1.977 . S
O103 C96 1.267 . S
C104 O105 1.160 . S
C104 O111 1.185 . S
O105 C104 1.160 . S
O106 Zn107 1.899 . S
O106 C114 1.284 . S
Zn107 O106 1.899 . S
Zn107 O108 2.032 1_554 S
Zn107 O111 2.086 . S
Zn107 O116 1.977 . S
O108 Zn107 2.032 1_556 S
O108 C112 1.278 . S
C109 O110 1.203 . S
C109 O116 1.267 . S
O110 C109 1.203 . S
O111 C104 1.185 . S
O111 Zn107 2.086 . S
C112 O108 1.278 . S
C112 O113 1.211 . S
O113 C112 1.211 . S
C114 O106 1.284 . S
C114 O115 1.273 . S
O115 C114 1.273 . S
O116 Zn107 1.977 . S
O116 C109 1.267 . S
C117 O118 1.160 . S
C117 O124 1.185 . S
O118 C117 1.160 . S
O119 Zn120 1.899 . S
O119 C127 1.284 . S
Zn120 O119 1.899 . S
Zn120 O121 2.032 . S
Zn120 O124 2.086 . S
Zn120 O129 1.977 . S
O121 Zn120 2.032 . S
O121 C125 1.278 . S
C122 O123 1.203 . S
C122 O129 1.267 . S
O123 C122 1.203 . S
O124 C117 1.185 . S
O124 Zn120 2.086 . S
C125 O121 1.278 . S
C125 O126 1.211 . S
O126 C125 1.211 . S
C127 O119 1.284 . S
C127 O128 1.273 . S
O128 C127 1.273 . S
O129 Zn120 1.977 . S
O129 C122 1.267 . S
C130 O131 1.160 . S
C130 O137 1.185 . S
O131 C130 1.160 . S
O132 Zn133 1.899 . S
O132 C140 1.284 . S
Zn133 O132 1.899 . S
Zn133 O134 2.032 . S
Zn133 O137 2.086 . S
Zn133 O142 1.977 . S
O134 Zn133 2.032 . S
O134 C138 1.278 . S
C135 O136 1.203 . S
C135 O142 1.267 . S
O136 C135 1.203 . S
O137 C130 1.185 . S
O137 Zn133 2.086 . S
C138 O134 1.278 . S
C138 O139 1.211 . S
O139 C138 1.211 . S
C140 O132 1.284 . S
C140 O141 1.273 . S
O141 C140 1.273 . S
O142 Zn133 1.977 . S
O142 C135 1.267 . S
C143 O144 1.160 . S
C143 O150 1.185 . S
O144 C143 1.160 . S
O145 Zn146 1.899 . S
O145 C153 1.284 . S
Zn146 O145 1.899 . S
Zn146 O147 2.032 . S
Zn146 O150 2.086 . S
Zn146 O155 1.977 . S
O147 Zn146 2.032 . S
O147 C151 1.278 . S
C148 O149 1.203 . S
C148 O155 1.267 . S
O149 C148 1.203 . S
O150 C143 1.185 . S
O150 Zn146 2.086 . S
C151 O147 1.278 . S
C151 O152 1.211 . S
O152 C151 1.211 . S
C153 O145 1.284 . S
C153 O154 1.273 . S
O154 C153 1.273 . S
O155 Zn146 1.977 . S
O155 C148 1.267 . S
C156 O157 1.160 . S
C156 O163 1.185 . S
O157 C156 1.160 . S
O158 Zn159 1.899 . S
O158 C166 1.284 . S
Zn159 O158 1.899 . S
Zn159 O160 2.032 . S
Zn159 O163 2.086 . S
Zn159 O168 1.977 1_455 S
O160 Zn159 2.032 . S
O160 C164 1.278 . S
C161 O162 1.203 . S
C161 O168 1.267 . S
O162 C161 1.203 . S
O163 C156 1.185 . S
O163 Zn159 2.086 . S
C164 O160 1.278 . S
C164 O165 1.211 1_455 S
O165 C164 1.211 1_655 S
C166 O158 1.284 . S
C166 O167 1.273 1_455 S
O167 C166 1.273 1_655 S
O168 Zn159 1.977 1_655 S
O168 C161 1.267 . S
C169 O170 1.160 . S
C169 O176 1.185 . S
O170 C169 1.160 . S
O171 Zn172 1.899 . S
O171 C179 1.284 . S
Zn172 O171 1.899 . S
Zn172 O173 2.032 1_455 S
Zn172 O176 2.086 1_455 S
Zn172 O181 1.977 . S
O173 Zn172 2.032 1_655 S
O173 C177 1.278 1_655 S
C174 O175 1.203 . S
C174 O181 1.267 . S
O175 C174 1.203 . S
O176 C169 1.185 . S
O176 Zn172 2.086 1_655 S
C177 O173 1.278 1_455 S
C177 O178 1.211 . S
O178 C177 1.211 . S
C179 O171 1.284 . S
C179 O180 1.273 . S
O180 C179 1.273 . S
O181 Zn172 1.977 . S
O181 C174 1.267 . S
C182 O183 1.160 . S
C182 O189 1.185 . S
O183 C182 1.160 . S
O184 Zn185 1.899 . S
O184 C192 1.284 . S
Zn185 O184 1.899 . S
Zn185 O186 2.032 . S
Zn185 O189 2.086 . S
Zn185 O194 1.977 . S
O186 Zn185 2.032 . S
O186 C190 1.278 . S
C187 O188 1.203 . S
C187 O194 1.267 . S
O188 C187 1.203 . S
O189 C182 1.185 . S
O189 Zn185 2.086 . S
C190 O186 1.278 . S
C190 O191 1.211 . S
O191 C190 1.211 . S
C192 O184 1.284 . S
C192 O193 1.273 . S
O193 C192 1.273 . S
O194 Zn185 1.977 . S
O194 C187 1.267 . S
C195 O196 1.160 . S
C195 O202 1.185 . S
O196 C195 1.160 . S
O197 Zn198 1.899 . S
O197 C205 1.284 . S
Zn198 O197 1.899 . S
Zn198 O199 2.032 . S
Zn198 O202 2.086 . S
Zn198 O207 1.977 . S
O199 Zn198 2.032 . S
O199 C203 1.278 . S
C200 O201 1.203 . S
C200 O207 1.267 . S
O201 C200 1.203 . S
O202 C195 1.185 . S
O202 Zn198 2.086 . S
C203 O199 1.278 . S
C203 O204 1.211 . S
O204 C203 1.211 . S
C205 O197 1.284 . S
C205 O206 1.273 . S
O206 C205 1.273 . S
O207 Zn198 1.977 . S
O207 C200 1.267 . S
C208 O209 1.160 . S
C208 O215 1.185 . S
O209 C208 1.160 . S
O210 Zn211 1.899 . S
O210 C218 1.284 . S
Zn211 O210 1.899 . S
Zn211 O212 2.032 . S
Zn211 O215 2.086 . S
Zn211 O220 1.953 1_545 S
O212 Zn211 2.032 . S
O212 C216 1.278 . S
C213 O214 1.203 . S
C213 O220 1.296 . S
O214 C213 1.203 . S
O215 C208 1.185 . S
O215 Zn211 2.086 . S
C216 O212 1.278 . S
C216 O217 1.211 1_545 S
O217 C216 1.211 1_565 S
C218 O210 1.284 . S
C218 O219 1.273 . S
O219 C218 1.273 . S
O220 Zn211 1.953 1_565 S
O220 C213 1.296 . S
C221 O222 1.160 . S
C221 O228 1.185 . S
O222 C221 1.160 . S
O223 Zn224 1.899 . S
O223 C231 1.284 . S
Zn224 O223 1.899 . S
Zn224 O225 2.032 . S
Zn224 O228 2.086 . S
Zn224 O233 1.977 . S
O225 Zn224 2.032 . S
O225 C229 1.278 . S
C226 O227 1.203 . S
C226 O233 1.267 . S
O227 C226 1.203 . S
O228 C221 1.185 . S
O228 Zn224 2.086 . S
C229 O225 1.278 . S
C229 O230 1.211 . S
O230 C229 1.211 . S
C231 O223 1.284 . S
C231 O232 1.273 . S
O232 C231 1.273 . S
O233 Zn224 1.977 . S
O233 C226 1.267 . S
C234 O235 1.160 . S
C234 O241 1.185 . S
O235 C234 1.160 . S
O236 Zn237 1.899 . S
O236 C244 1.284 1_565 S
Zn237 O236 1.899 . S
Zn237 O238 2.032 . S
Zn237 O241 2.086 . S
Zn237 O246 1.977 1_565 S
O238 Zn237 2.032 . S
O238 C242 1.278 1_565 S
C239 O240 1.203 . S
C239 O246 1.267 . S
O240 C239 1.203 . S
O241 C234 1.185 . S
O241 Zn237 2.086 . S
C242 O238 1.278 1_545 S
C242 O243 1.211 . S
O243 C242 1.211 . S
C244 O236 1.284 1_545 S
C244 O245 1.273 . S
O245 C244 1.273 . S
O246 Zn237 1.977 1_545 S
O246 C239 1.267 . S
C247 O248 1.160 . S
C247 O254 1.185 . S
O248 C247 1.160 . S
O249 Zn250 1.899 . S
O249 C257 1.284 . S
Zn250 O249 1.899 . S
Zn250 O251 2.032 1_554 S
Zn250 O254 2.086 . S
Zn250 O259 1.977 . S
O251 Zn250 2.032 1_556 S
O251 C255 1.278 . S
C252 O253 1.203 . S
C252 O259 1.267 . S
O253 C252 1.203 . S
O254 C247 1.185 . S
O254 Zn250 2.086 . S
C255 O251 1.278 . S
C255 O256 1.211 . S
O256 C255 1.211 . S
C257 O249 1.284 . S
C257 O258 1.273 . S
O258 C257 1.273 . S
O259 Zn250 1.977 . S
O259 C252 1.267 . S
C260 O261 1.160 . S
C260 O267 1.196 . S
O261 C260 1.160 . S
O262 Zn263 1.899 . S
O262 C270 1.284 . S
Zn263 O262 1.899 . S
Zn263 O264 2.032 1_554 S
Zn263 O267 2.092 . S
Zn263 O272 1.985 . S
O264 Zn263 2.032 1_556 S
O264 C268 1.278 . S
C265 O266 1.203 . S
C265 O272 1.282 . S
O266 C265 1.203 . S
O267 C260 1.196 . S
O267 Zn263 2.092 . S
C268 O264 1.278 . S
C268 O269 1.211 . S
O269 C268 1.211 . S
C270 O262 1.284 . S
C270 O271 1.273 . S
O271 C270 1.273 . S
O272 Zn263 1.985 . S
O272 C265 1.282 . S
C273 O274 1.160 . S
C273 O280 1.185 . S
O274 C273 1.160 . S
O275 Zn276 1.899 . S
O275 C283 1.284 . S
Zn276 O275 1.899 . S
Zn276 O277 2.032 . S
Zn276 O280 2.086 . S
Zn276 O285 1.977 . S
O277 Zn276 2.032 . S
O277 C281 1.278 . S
C278 O279 1.203 . S
C278 O285 1.267 . S
O279 C278 1.203 . S
O280 C273 1.185 . S
O280 Zn276 2.086 . S
C281 O277 1.278 . S
C281 O282 1.211 . S
O282 C281 1.211 . S
C283 O275 1.284 . S
C283 O284 1.273 . S
O284 C283 1.273 . S
O285 Zn276 1.977 . S
O285 C278 1.267 . S
C286 O287 1.160 . S
C286 O293 1.185 . S
O287 C286 1.160 . S
O288 Zn289 1.899 . S
O288 C296 1.284 . S
Zn289 O288 1.899 . S
Zn289 O290 2.032 . S
Zn289 O293 2.086 . S
Zn289 O298 1.977 . S
O290 Zn289 2.032 . S
O290 C294 1.278 . S
C291 O292 1.203 . S
C291 O298 1.267 . S
O292 C291 1.203 . S
O293 C286 1.185 . S
O293 Zn289 2.086 . S
C294 O290 1.278 . S
C294 O295 1.211 . S
O295 C294 1.211 . S
C296 O288 1.284 . S
C296 O297 1.273 . S
O297 C296 1.273 . S
O298 Zn289 1.977 . S
O298 C291 1.267 . S
C299 O300 1.160 . S
C299 O306 1.185 . S
O300 C299 1.160 . S
O301 Zn302 1.899 . S
O301 C309 1.284 . S
Zn302 O301 1.899 . S
Zn302 O303 2.032 . S
Zn302 O306 2.086 . S
Zn302 O311 1.977 . S
O303 Zn302 2.032 . S
O303 C307 1.278 . S
C304 O305 1.203 . S
C304 O311 1.267 . S
O305 C304 1.203 . S
O306 C299 1.185 . S
O306 Zn302 2.086 . S
C307 O303 1.278 . S
C307 O308 1.211 . S
O308 C307 1.211 . S
C309 O301 1.284 . S
C309 O310 1.273 . S
O310 C309 1.273 . S
O311 Zn302 1.977 . S
O311 C304 1.267 . S
O312 Zn313 1.953 . S
O312 C328 1.225 1_455 S
Zn313 O312 1.953 . S
Zn313 O314 1.949 . S
Zn313 O320 1.919 . S
Zn313 O325 1.913 1_454 S
O314 Zn313 1.949 . S
O314 Zn315 1.923 1_545 S
O314 Zn316 1.950 1_455 S
O314 Zn317 1.945 1_444 S
Zn315 O314 1.923 1_565 S
Zn315 O318 1.933 . S
Zn315 O321 1.941 1_565 S
Zn315 O322 1.965 . S
Zn316 O314 1.950 1_655 S
Zn316 O323 1.916 1_655 S
Zn316 O324 1.906 1_545 S
Zn316 O334 1.953 . S
Zn317 O314 1.945 1_666 S
Zn317 O319 1.933 1_655 S
Zn317 O326 1.977 1_556 S
Zn317 O327 1.910 1_565 S
O318 Zn315 1.933 . S
O318 C329 1.226 . S
O319 Zn317 1.933 1_455 S
O319 C329 1.305 1_556 S
O320 Zn313 1.919 . S
O320 C331 1.253 . S
O321 Zn315 1.941 1_545 S
O321 C331 1.283 . S
O322 Zn315 1.965 . S
O322 C330 1.303 1_565 S
O323 Zn316 1.916 1_455 S
O323 C330 1.287 . S
O324 Zn316 1.906 1_565 S
O324 C332 1.304 . S
O325 Zn313 1.913 1_656 S
O325 C333 1.329 . S
O326 Zn317 1.977 1_554 S
O326 C332 1.272 . S
O327 Zn317 1.910 1_545 S
O327 C333 1.231 . S
C328 O312 1.225 1_655 S
C328 O334 1.298 . S
C329 O318 1.226 . S
C329 O319 1.305 1_554 S
C330 O322 1.303 1_545 S
C330 O323 1.287 . S
C331 O320 1.253 . S
C331 O321 1.283 . S
C332 O324 1.304 . S
C332 O326 1.272 . S
C333 O325 1.329 . S
C333 O327 1.231 . S
O334 Zn316 1.953 . S
O334 C328 1.298 . S
O335 Zn336 1.953 . S
O335 C351 1.225 . S
Zn336 O335 1.953 . S
Zn336 O337 1.949 . S
Zn336 O343 1.919 . S
Zn336 O348 1.924 . S
O337 Zn336 1.949 . S
O337 Zn338 1.923 . S
O337 Zn339 1.950 . S
O337 Zn340 1.945 . S
Zn338 O337 1.923 . S
Zn338 O341 1.933 . S
Zn338 O344 1.941 . S
Zn338 O345 1.965 . S
Zn339 O337 1.950 . S
Zn339 O346 1.938 . S
Zn339 O347 1.906 . S
Zn339 O357 1.953 . S
Zn340 O337 1.945 . S
Zn340 O342 1.932 . S
Zn340 O349 1.977 . S
Zn340 O350 1.910 . S
O341 Zn338 1.933 . S
O341 C352 1.226 . S
O342 Zn340 1.932 . S
O342 C352 1.307 . S
O343 Zn336 1.919 . S
O343 C354 1.253 . S
O344 Zn338 1.941 . S
O344 C354 1.283 . S
O345 Zn338 1.965 . S
O345 C353 1.303 . S
O346 Zn339 1.938 . S
O346 C353 1.247 . S
O347 Zn339 1.906 . S
O347 C355 1.304 . S
O348 Zn336 1.924 . S
O348 C356 1.311 . S
O349 Zn340 1.977 . S
O349 C355 1.272 . S
O350 Zn340 1.910 . S
O350 C356 1.231 . S
C351 O335 1.225 . S
C351 O357 1.298 . S
C352 O341 1.226 . S
C352 O342 1.307 . S
C353 O345 1.303 . S
C353 O346 1.247 . S
C354 O343 1.253 . S
C354 O344 1.283 . S
C355 O347 1.304 . S
C355 O349 1.272 . S
C356 O348 1.311 . S
C356 O350 1.231 . S
O357 Zn339 1.953 . S
O357 C351 1.298 . S
O358 Zn359 1.953 . S
O358 C374 1.225 . S
Zn359 O358 1.953 . S
Zn359 O360 1.949 1_565 S
Zn359 O366 1.919 . S
Zn359 O371 1.924 . S
O360 Zn359 1.949 1_545 S
O360 Zn361 1.923 . S
O360 Zn362 1.950 . S
O360 Zn363 1.945 . S
Zn361 O360 1.923 . S
Zn361 O364 1.933 . S
Zn361 O367 1.941 . S
Zn361 O368 1.965 . S
Zn362 O360 1.950 . S
Zn362 O369 1.938 . S
Zn362 O370 1.906 . S
Zn362 O380 1.953 1_545 S
Zn363 O360 1.945 . S
Zn363 O365 1.932 . S
Zn363 O372 1.977 . S
Zn363 O373 1.910 . S
O364 Zn361 1.933 . S
O364 C375 1.226 . S
O365 Zn363 1.932 . S
O365 C375 1.307 . S
O366 Zn359 1.919 . S
O366 C377 1.275 . S
O367 Zn361 1.941 . S
O367 C377 1.263 1_545 S
O368 Zn361 1.965 . S
O368 C376 1.303 . S
O369 Zn362 1.938 . S
O369 C376 1.247 . S
O370 Zn362 1.906 . S
O370 C378 1.304 . S
O371 Zn359 1.924 . S
O371 C379 1.311 . S
O372 Zn363 1.977 . S
O372 C378 1.272 . S
O373 Zn363 1.910 . S
O373 C379 1.231 1_545 S
C374 O358 1.225 . S
C374 O380 1.298 . S
C375 O364 1.226 . S
C375 O365 1.307 . S
C376 O368 1.303 . S
C376 O369 1.247 . S
C377 O366 1.275 . S
C377 O367 1.263 1_565 S
C378 O370 1.304 . S
C378 O372 1.272 . S
C379 O371 1.311 . S
C379 O373 1.231 1_565 S
O380 Zn362 1.953 1_565 S
O380 C374 1.298 . S
O381 Zn382 1.953 . S
O381 C397 1.225 . S
Zn382 O381 1.953 . S
Zn382 O383 1.949 . S
Zn382 O389 1.919 . S
Zn382 O394 1.924 . S
O383 Zn382 1.949 . S
O383 Zn384 1.923 . S
O383 Zn385 1.950 . S
O383 Zn386 1.945 . S
Zn384 O383 1.923 . S
Zn384 O387 1.933 . S
Zn384 O390 1.941 . S
Zn384 O391 1.965 . S
Zn385 O383 1.950 . S
Zn385 O392 1.938 . S
Zn385 O393 1.906 . S
Zn385 O403 1.953 . S
Zn386 O383 1.945 . S
Zn386 O388 1.932 . S
Zn386 O395 1.977 . S
Zn386 O396 1.910 . S
O387 Zn384 1.933 . S
O387 C398 1.226 . S
O388 Zn386 1.932 . S
O388 C398 1.307 . S
O389 Zn382 1.919 . S
O389 C400 1.253 . S
O390 Zn384 1.941 . S
O390 C400 1.283 . S
O391 Zn384 1.965 . S
O391 C399 1.303 . S
O392 Zn385 1.938 . S
O392 C399 1.247 . S
O393 Zn385 1.906 . S
O393 C401 1.304 . S
O394 Zn382 1.924 . S
O394 C402 1.311 . S
O395 Zn386 1.977 . S
O395 C401 1.272 . S
O396 Zn386 1.910 . S
O396 C402 1.231 . S
C397 O381 1.225 . S
C397 O403 1.298 . S
C398 O387 1.226 . S
C398 O388 1.307 . S
C399 O391 1.303 . S
C399 O392 1.247 . S
C400 O389 1.253 . S
C400 O390 1.283 . S
C401 O393 1.304 . S
C401 O395 1.272 . S
C402 O394 1.311 . S
C402 O396 1.231 . S
O403 Zn385 1.953 . S
O403 C397 1.298 . S
O404 Zn405 1.953 . S
O404 C420 1.225 . S
Zn405 O404 1.953 . S
Zn405 O406 1.949 . S
Zn405 O412 1.919 1_445 S
Zn405 O417 1.924 1_455 S
O406 Zn405 1.949 . S
O406 Zn407 1.923 1_545 S
O406 Zn408 1.950 . S
O406 Zn409 1.945 1_455 S
Zn407 O406 1.923 1_565 S
Zn407 O410 1.933 . S
Zn407 O413 1.941 . S
Zn407 O414 1.965 . S
Zn408 O406 1.950 . S
Zn408 O415 1.938 . S
Zn408 O416 1.906 . S
Zn408 O426 1.953 . S
Zn409 O406 1.945 1_655 S
Zn409 O411 1.932 . S
Zn409 O418 1.977 1_655 S
Zn409 O419 1.910 . S
O410 Zn407 1.933 . S
O410 C421 1.226 1_455 S
O411 Zn409 1.932 . S
O411 C421 1.307 1_545 S
O412 Zn405 1.919 1_665 S
O412 C423 1.253 1_655 S
O413 Zn407 1.941 . S
O413 C423 1.283 . S
O414 Zn407 1.965 . S
O414 C422 1.317 . S
O415 Zn408 1.938 . S
O415 C422 1.223 1_545 S
O416 Zn408 1.906 . S
O416 C424 1.304 . S
O417 Zn405 1.924 1_655 S
O417 C425 1.311 . S
O418 Zn409 1.977 1_455 S
O418 C424 1.272 . S
O419 Zn409 1.910 . S
O419 C425 1.231 . S
C420 O404 1.225 . S
C420 O426 1.298 . S
C421 O410 1.226 1_655 S
C421 O411 1.307 1_565 S
C422 O414 1.317 . S
C422 O415 1.223 1_565 S
C423 O412 1.253 1_455 S
C423 O413 1.283 . S
C424 O416 1.304 . S
C424 O418 1.272 . S
C425 O417 1.311 . S
C425 O419 1.231 . S
O426 Zn408 1.953 . S
O426 C420 1.298 . S
O427 Zn428 1.953 . S
O427 C443 1.225 . S
Zn428 O427 1.953 . S
Zn428 O429 1.949 . S
Zn428 O435 1.919 . S
Zn428 O440 1.924 . S
O429 Zn428 1.949 . S
O429 Zn430 1.923 . S
O429 Zn431 1.950 . S
O429 Zn432 1.945 . S
Zn430 O429 1.923 . S
Zn430 O433 1.933 . S
Zn430 O436 1.941 . S
Zn430 O437 1.965 . S
Zn431 O429 1.950 . S
Zn431 O438 1.938 . S
Zn431 O439 1.906 . S
Zn431 O449 1.953 . S
Zn432 O429 1.945 . S
Zn432 O434 1.932 . S
Zn432 O441 1.977 . S
Zn432 O442 1.910 . S
O433 Zn430 1.933 . S
O433 C444 1.226 . S
O434 Zn432 1.932 . S
O434 C444 1.307 . S
O435 Zn428 1.919 . S
O435 C446 1.253 . S
O436 Zn430 1.941 . S
O436 C446 1.283 . S
O437 Zn430 1.965 . S
O437 C445 1.303 . S
O438 Zn431 1.938 . S
O438 C445 1.247 . S
O439 Zn431 1.906 . S
O439 C447 1.304 . S
O440 Zn428 1.924 . S
O440 C448 1.311 . S
O441 Zn432 1.977 . S
O441 C447 1.272 . S
O442 Zn432 1.910 . S
O442 C448 1.231 . S
C443 O427 1.225 . S
C443 O449 1.298 . S
C444 O433 1.226 . S
C444 O434 1.307 . S
C445 O437 1.303 . S
C445 O438 1.247 . S
C446 O435 1.253 . S
C446 O436 1.283 . S
C447 O439 1.304 . S
C447 O441 1.272 . S
C448 O440 1.311 . S
C448 O442 1.231 . S
O449 Zn431 1.953 . S
O449 C443 1.298 . S
O450 Zn451 1.953 . S
O450 C466 1.225 . S
Zn451 O450 1.953 . S
Zn451 O452 1.949 . S
Zn451 O458 1.919 . S
Zn451 O463 1.924 . S
O452 Zn451 1.949 . S
O452 Zn453 1.923 1_545 S
O452 Zn454 1.950 . S
O452 Zn455 1.945 1_554 S
Zn453 O452 1.923 1_565 S
Zn453 O456 1.933 1_554 S
Zn453 O459 1.937 1_554 S
Zn453 O460 1.965 . S
Zn454 O452 1.950 . S
Zn454 O461 1.938 1_545 S
Zn454 O462 1.906 . S
Zn454 O472 1.953 . S
Zn455 O452 1.945 1_556 S
Zn455 O457 1.932 . S
Zn455 O464 1.977 1_556 S
Zn455 O465 1.910 . S
O456 Zn453 1.933 1_556 S
O456 C467 1.226 . S
O457 Zn455 1.932 . S
O457 C467 1.307 1_545 S
O458 Zn451 1.919 . S
O458 C469 1.253 1_544 S
O459 Zn453 1.937 1_556 S
O459 C469 1.286 . S
O460 Zn453 1.965 . S
O460 C468 1.303 . S
O461 Zn454 1.938 1_565 S
O461 C468 1.247 . S
O462 Zn454 1.906 . S
O462 C470 1.304 . S
O463 Zn451 1.924 . S
O463 C471 1.311 . S
O464 Zn455 1.977 1_554 S
O464 C470 1.272 . S
O465 Zn455 1.910 . S
O465 C471 1.231 1_556 S
C466 O450 1.225 . S
C466 O472 1.298 . S
C467 O456 1.226 . S
C467 O457 1.307 1_565 S
C468 O460 1.303 . S
C468 O461 1.247 . S
C469 O458 1.253 1_566 S
C469 O459 1.286 . S
C470 O462 1.304 . S
C470 O464 1.272 . S
C471 O463 1.311 . S
C471 O465 1.231 1_554 S
O472 Zn454 1.953 . S
O472 C466 1.298 . S
O473 Zn474 1.953 . S
O473 C489 1.225 . S
Zn474 O473 1.953 . S
Zn474 O475 1.949 . S
Zn474 O481 1.919 . S
Zn474 O486 1.924 . S
O475 Zn474 1.949 . S
O475 Zn476 1.923 . S
O475 Zn477 1.950 . S
O475 Zn478 1.945 . S
Zn476 O475 1.923 . S
Zn476 O479 1.933 . S
Zn476 O482 1.941 . S
Zn476 O483 1.965 . S
Zn477 O475 1.950 . S
Zn477 O484 1.938 . S
Zn477 O485 1.906 . S
Zn477 O495 1.953 . S
Zn478 O475 1.945 . S
Zn478 O480 1.932 . S
Zn478 O487 1.977 . S
Zn478 O488 1.910 . S
O479 Zn476 1.933 . S
O479 C490 1.226 . S
O480 Zn478 1.932 . S
O480 C490 1.307 . S
O481 Zn474 1.919 . S
O481 C492 1.253 . S
O482 Zn476 1.941 . S
O482 C492 1.283 . S
O483 Zn476 1.965 . S
O483 C491 1.303 . S
O484 Zn477 1.938 . S
O484 C491 1.247 . S
O485 Zn477 1.906 . S
O485 C493 1.304 . S
O486 Zn474 1.924 . S
O486 C494 1.311 . S
O487 Zn478 1.977 . S
O487 C493 1.272 . S
O488 Zn478 1.910 . S
O488 C494 1.231 . S
C489 O473 1.225 . S
C489 O495 1.298 . S
C490 O479 1.226 . S
C490 O480 1.307 . S
C491 O483 1.303 . S
C491 O484 1.247 . S
C492 O481 1.253 . S
C492 O482 1.283 . S
C493 O485 1.304 . S
C493 O487 1.272 . S
C494 O486 1.311 . S
C494 O488 1.231 . S
O495 Zn477 1.953 . S
O495 C489 1.298 . S
O496 Zn497 1.953 . S
O496 C512 1.225 . S
Zn497 O496 1.953 . S
Zn497 O498 1.949 1_556 S
Zn497 O504 1.919 . S
Zn497 O509 1.924 . S
O498 Zn497 1.949 1_554 S
O498 Zn499 1.923 . S
O498 Zn500 1.950 . S
O498 Zn501 1.945 . S
Zn499 O498 1.923 . S
Zn499 O502 1.933 . S
Zn499 O505 1.941 . S
Zn499 O506 1.965 . S
Zn500 O498 1.950 . S
Zn500 O507 1.938 . S
Zn500 O508 1.906 . S
Zn500 O518 1.953 1_554 S
Zn501 O498 1.945 . S
Zn501 O503 1.932 . S
Zn501 O510 1.977 . S
Zn501 O511 1.910 . S
O502 Zn499 1.933 . S
O502 C513 1.226 . S
O503 Zn501 1.932 . S
O503 C513 1.307 . S
O504 Zn497 1.919 . S
O504 C515 1.253 1_556 S
O505 Zn499 1.941 . S
O505 C515 1.283 . S
O506 Zn499 1.965 . S
O506 C514 1.303 . S
O507 Zn500 1.938 . S
O507 C514 1.247 . S
O508 Zn500 1.906 . S
O508 C516 1.304 . S
O509 Zn497 1.924 . S
O509 C517 1.311 . S
O510 Zn501 1.977 . S
O510 C516 1.272 . S
O511 Zn501 1.910 . S
O511 C517 1.231 1_554 S
C512 O496 1.225 . S
C512 O518 1.298 . S
C513 O502 1.226 . S
C513 O503 1.307 . S
C514 O506 1.303 . S
C514 O507 1.247 . S
C515 O504 1.253 1_554 S
C515 O505 1.283 . S
C516 O508 1.304 . S
C516 O510 1.272 . S
C517 O509 1.311 . S
C517 O511 1.231 1_556 S
O518 Zn500 1.953 1_556 S
O518 C512 1.298 . S
O519 Zn520 1.953 . S
O519 C535 1.225 . S
Zn520 O519 1.953 . S
Zn520 O521 1.949 . S
Zn520 O527 1.919 . S
Zn520 O532 1.924 . S
O521 Zn520 1.949 . S
O521 Zn522 1.923 . S
O521 Zn523 1.950 . S
O521 Zn524 1.945 . S
Zn522 O521 1.923 . S
Zn522 O525 1.933 . S
Zn522 O528 1.941 . S
Zn522 O529 1.965 . S
Zn523 O521 1.950 . S
Zn523 O530 1.938 . S
Zn523 O531 1.906 . S
Zn523 O541 1.953 . S
Zn524 O521 1.945 . S
Zn524 O526 1.932 . S
Zn524 O533 1.977 . S
Zn524 O534 1.910 . S
O525 Zn522 1.933 . S
O525 C536 1.226 . S
O526 Zn524 1.932 . S
O526 C536 1.307 . S
O527 Zn520 1.919 . S
O527 C538 1.253 . S
O528 Zn522 1.941 . S
O528 C538 1.283 . S
O529 Zn522 1.965 . S
O529 C537 1.303 . S
O530 Zn523 1.938 . S
O530 C537 1.247 . S
O531 Zn523 1.906 . S
O531 C539 1.304 . S
O532 Zn520 1.924 . S
O532 C540 1.311 . S
O533 Zn524 1.977 . S
O533 C539 1.272 . S
O534 Zn524 1.910 . S
O534 C540 1.231 . S
C535 O519 1.225 . S
C535 O541 1.298 . S
C536 O525 1.226 . S
C536 O526 1.307 . S
C537 O529 1.303 . S
C537 O530 1.247 . S
C538 O527 1.253 . S
C538 O528 1.283 . S
C539 O531 1.304 . S
C539 O533 1.272 . S
C540 O532 1.311 . S
C540 O534 1.231 . S
O541 Zn523 1.953 . S
O541 C535 1.298 . S
O542 Zn543 1.953 . S
O542 C558 1.225 . S
Zn543 O542 1.953 . S
Zn543 O544 1.937 1_455 S
Zn543 O550 1.919 . S
Zn543 O555 1.924 . S
O544 Zn543 1.937 1_655 S
O544 Zn545 1.921 1_655 S
O544 Zn546 1.957 . S
O544 Zn547 1.950 . S
Zn545 O544 1.921 1_455 S
Zn545 O548 1.921 1_455 S
Zn545 O551 1.970 . S
Zn545 O552 1.956 1_455 S
Zn546 O544 1.957 . S
Zn546 O553 1.938 . S
Zn546 O554 1.906 . S
Zn546 O564 1.940 1_655 S
Zn547 O544 1.950 . S
Zn547 O549 1.932 . S
Zn547 O556 1.977 . S
Zn547 O557 1.909 . S
O548 Zn545 1.921 1_655 S
O548 C559 1.226 . S
O549 Zn547 1.932 . S
O549 C559 1.307 . S
O550 Zn543 1.919 . S
O550 C561 1.253 . S
O551 Zn545 1.970 . S
O551 C561 1.283 . S
O552 Zn545 1.956 1_655 S
O552 C560 1.303 . S
O553 Zn546 1.938 . S
O553 C560 1.247 . S
O554 Zn546 1.906 . S
O554 C562 1.304 . S
O555 Zn543 1.924 . S
O555 C563 1.311 . S
O556 Zn547 1.977 . S
O556 C562 1.272 . S
O557 Zn547 1.909 . S
O557 C563 1.234 1_655 S
C558 O542 1.225 . S
C558 O564 1.324 . S
C559 O548 1.226 . S
C559 O549 1.307 . S
C560 O552 1.303 . S
C560 O553 1.247 . S
C561 O550 1.253 . S
C561 O551 1.283 . S
C562 O554 1.304 . S
C562 O556 1.272 . S
C563 O555 1.311 . S
C563 O557 1.234 1_455 S
O564 Zn546 1.940 1_455 S
O564 C558 1.324 . S
O565 Zn566 1.953 . S
O565 C581 1.225 . S
Zn566 O565 1.953 . S
Zn566 O567 1.949 . S
Zn566 O573 1.919 . S
Zn566 O578 1.924 . S
O567 Zn566 1.949 . S
O567 Zn568 1.923 . S
O567 Zn569 1.950 . S
O567 Zn570 1.945 . S
Zn568 O567 1.923 . S
Zn568 O571 1.933 . S
Zn568 O574 1.941 . S
Zn568 O575 1.965 . S
Zn569 O567 1.950 . S
Zn569 O576 1.938 . S
Zn569 O577 1.906 . S
Zn569 O587 1.953 . S
Zn570 O567 1.945 . S
Zn570 O572 1.932 . S
Zn570 O579 1.977 . S
Zn570 O580 1.910 . S
O571 Zn568 1.933 . S
O571 C582 1.226 . S
O572 Zn570 1.932 . S
O572 C582 1.307 . S
O573 Zn566 1.919 . S
O573 C584 1.253 . S
O574 Zn568 1.941 . S
O574 C584 1.283 . S
O575 Zn568 1.965 . S
O575 C583 1.303 . S
O576 Zn569 1.938 . S
O576 C583 1.247 . S
O577 Zn569 1.906 . S
O577 C585 1.304 . S
O578 Zn566 1.924 . S
O578 C586 1.311 . S
O579 Zn570 1.977 . S
O579 C585 1.272 . S
O580 Zn570 1.910 . S
O580 C586 1.231 . S
C581 O565 1.225 . S
C581 O587 1.298 . S
C582 O571 1.226 . S
C582 O572 1.307 . S
C583 O575 1.303 . S
C583 O576 1.247 . S
C584 O573 1.253 . S
C584 O574 1.283 . S
C585 O577 1.304 . S
C585 O579 1.272 . S
C586 O578 1.311 . S
C586 O580 1.231 . S
O587 Zn569 1.953 . S
O587 C581 1.298 . S
O588 Zn589 1.953 . S
O588 C604 1.225 . S
Zn589 O588 1.953 . S
Zn589 O590 1.949 . S
Zn589 O596 1.919 . S
Zn589 O601 1.924 . S
O590 Zn589 1.949 . S
O590 Zn591 1.923 . S
O590 Zn592 1.950 . S
O590 Zn593 1.945 . S
Zn591 O590 1.923 . S
Zn591 O594 1.933 . S
Zn591 O597 1.941 . S
Zn591 O598 1.965 . S
Zn592 O590 1.950 . S
Zn592 O599 1.938 . S
Zn592 O600 1.906 . S
Zn592 O610 1.953 . S
Zn593 O590 1.945 . S
Zn593 O595 1.932 . S
Zn593 O602 1.977 . S
Zn593 O603 1.910 . S
O594 Zn591 1.933 . S
O594 C605 1.226 . S
O595 Zn593 1.932 . S
O595 C605 1.307 . S
O596 Zn589 1.919 . S
O596 C607 1.253 . S
O597 Zn591 1.941 . S
O597 C607 1.283 . S
O598 Zn591 1.965 . S
O598 C606 1.303 . S
O599 Zn592 1.938 . S
O599 C606 1.247 . S
O600 Zn592 1.906 . S
O600 C608 1.304 . S
O601 Zn589 1.924 . S
O601 C609 1.311 . S
O602 Zn593 1.977 . S
O602 C608 1.272 . S
O603 Zn593 1.910 . S
O603 C609 1.231 . S
C604 O588 1.225 . S
C604 O610 1.298 . S
C605 O594 1.226 . S
C605 O595 1.307 . S
C606 O598 1.303 . S
C606 O599 1.247 . S
C607 O596 1.253 . S
C607 O597 1.283 . S
C608 O600 1.304 . S
C608 O602 1.272 . S
C609 O601 1.311 . S
C609 O603 1.231 . S
O610 Zn592 1.953 . S
O610 C604 1.298 . S
O611 Zn612 1.953 . S
O611 C627 1.225 . S
Zn612 O611 1.953 . S
Zn612 O613 1.949 . S
Zn612 O619 1.919 . S
Zn612 O624 1.924 . S
O613 Zn612 1.949 . S
O613 Zn614 1.923 . S
O613 Zn615 1.950 . S
O613 Zn616 1.945 . S
Zn614 O613 1.923 . S
Zn614 O617 1.933 . S
Zn614 O620 1.941 . S
Zn614 O621 1.965 . S
Zn615 O613 1.950 . S
Zn615 O622 1.938 . S
Zn615 O623 1.906 . S
Zn615 O633 1.953 . S
Zn616 O613 1.945 . S
Zn616 O618 1.932 . S
Zn616 O625 1.977 . S
Zn616 O626 1.910 . S
O617 Zn614 1.933 . S
O617 C628 1.226 . S
O618 Zn616 1.932 . S
O618 C628 1.307 . S
O619 Zn612 1.919 . S
O619 C630 1.253 . S
O620 Zn614 1.941 . S
O620 C630 1.283 . S
O621 Zn614 1.965 . S
O621 C629 1.303 . S
O622 Zn615 1.938 . S
O622 C629 1.247 . S
O623 Zn615 1.906 . S
O623 C631 1.304 . S
O624 Zn612 1.924 . S
O624 C632 1.311 . S
O625 Zn616 1.977 . S
O625 C631 1.272 . S
O626 Zn616 1.910 . S
O626 C632 1.231 . S
C627 O611 1.225 . S
C627 O633 1.298 . S
C628 O617 1.226 . S
C628 O618 1.307 . S
C629 O621 1.303 . S
C629 O622 1.247 . S
C630 O619 1.253 . S
C630 O620 1.283 . S
C631 O623 1.304 . S
C631 O625 1.272 . S
C632 O624 1.311 . S
C632 O626 1.231 . S
O633 Zn615 1.953 . S
O633 C627 1.298 . S
O634 Zn635 1.953 . S
O634 C650 1.225 . S
Zn635 O634 1.953 . S
Zn635 O636 1.949 . S
Zn635 O642 1.919 . S
Zn635 O647 1.924 . S
O636 Zn635 1.949 . S
O636 Zn637 1.923 . S
O636 Zn638 1.950 . S
O636 Zn639 1.945 . S
Zn637 O636 1.923 . S
Zn637 O640 1.933 . S
Zn637 O643 1.941 . S
Zn637 O644 1.965 . S
Zn638 O636 1.950 . S
Zn638 O645 1.938 . S
Zn638 O646 1.906 . S
Zn638 O656 1.953 . S
Zn639 O636 1.945 . S
Zn639 O641 1.932 . S
Zn639 O648 1.977 . S
Zn639 O649 1.910 . S
O640 Zn637 1.933 . S
O640 C651 1.226 . S
O641 Zn639 1.932 . S
O641 C651 1.307 . S
O642 Zn635 1.919 . S
O642 C653 1.253 . S
O643 Zn637 1.941 . S
O643 C653 1.283 . S
O644 Zn637 1.965 . S
O644 C652 1.303 . S
O645 Zn638 1.938 . S
O645 C652 1.247 . S
O646 Zn638 1.906 . S
O646 C654 1.304 . S
O647 Zn635 1.924 . S
O647 C655 1.311 . S
O648 Zn639 1.977 . S
O648 C654 1.272 . S
O649 Zn639 1.910 . S
O649 C655 1.231 . S
C650 O634 1.225 . S
C650 O656 1.298 . S
C651 O640 1.226 . S
C651 O641 1.307 . S
C652 O644 1.303 . S
C652 O645 1.247 . S
C653 O642 1.253 . S
C653 O643 1.283 . S
C654 O646 1.304 . S
C654 O648 1.272 . S
C655 O647 1.311 . S
C655 O649 1.231 . S
O656 Zn638 1.953 . S
O656 C650 1.298 . S
O657 Zn658 1.949 1_455 S
O657 C673 1.225 . S
Zn658 O657 1.949 1_655 S
Zn658 O659 1.944 1_655 S
Zn658 O665 1.932 . S
Zn658 O670 1.918 1_654 S
O659 Zn658 1.944 1_455 S
O659 Zn660 1.923 1_455 S
O659 Zn661 1.950 . S
O659 Zn662 1.946 1_554 S
Zn660 O659 1.923 1_655 S
Zn660 O663 1.933 . S
Zn660 O666 1.941 . S
Zn660 O667 1.965 . S
Zn661 O659 1.950 . S
Zn661 O668 1.938 . S
Zn661 O669 1.906 . S
Zn661 O679 1.953 . S
Zn662 O659 1.946 1_556 S
Zn662 O664 1.932 . S
Zn662 O671 1.978 1_556 S
Zn662 O672 1.908 . S
O663 Zn660 1.933 . S
O663 C674 1.226 . S
O664 Zn662 1.932 . S
O664 C674 1.307 1_456 S
O665 Zn658 1.932 . S
O665 C676 1.253 . S
O666 Zn660 1.941 . S
O666 C676 1.283 . S
O667 Zn660 1.965 . S
O667 C675 1.303 . S
O668 Zn661 1.938 . S
O668 C675 1.247 1_455 S
O669 Zn661 1.906 . S
O669 C677 1.304 . S
O670 Zn658 1.918 1_456 S
O670 C678 1.311 . S
O671 Zn662 1.978 1_554 S
O671 C677 1.272 . S
O672 Zn662 1.908 . S
O672 C678 1.231 . S
C673 O657 1.225 . S
C673 O679 1.298 . S
C674 O663 1.226 . S
C674 O664 1.307 1_654 S
C675 O667 1.303 . S
C675 O668 1.247 1_655 S
C676 O665 1.253 . S
C676 O666 1.283 . S
C677 O669 1.304 . S
C677 O671 1.272 . S
C678 O670 1.311 . S
C678 O672 1.231 . S
O679 Zn661 1.953 . S
O679 C673 1.298 . S
C680 C681 1.333 1_655 S
C680 C682 1.332 . S
C680 H705 0.964 . S
C681 C680 1.333 1_455 S
C681 C697 1.349 . S
C682 C680 1.332 . S
C682 C701 1.429 1_655 S
C682 H706 0.950 . S
C683 C700 1.574 . S
C683 C702 1.387 . S
C683 H707 0.949 . S
H684 C688 0.949 . S
C685 C686 1.349 . S
C685 C687 1.324 1_655 S
C685 H708 0.950 1_655 S
C686 C685 1.349 . S
C686 C698 1.349 . S
C687 C685 1.324 1_455 S
C687 C703 1.419 1_455 S
C687 H709 0.964 . S
C688 H684 0.949 . S
C688 C696 1.574 . S
C688 C704 1.368 . S
H689 C697 0.950 . S
H690 C695 0.950 . S
H691 C696 0.949 . S
H692 C698 0.950 . S
H693 C699 0.950 . S
H694 C700 0.949 . S
C695 H690 0.950 . S
C695 C697 1.327 . S
C695 C701 1.429 . S
C696 C688 1.574 . S
C696 H691 0.949 . S
C696 C702 1.348 1_655 S
C697 C681 1.349 . S
C697 H689 0.950 . S
C697 C695 1.327 . S
C698 C686 1.349 . S
C698 H692 0.950 . S
C698 C699 1.327 . S
C699 H693 0.950 . S
C699 C698 1.327 . S
C699 C703 1.429 . S
C700 C683 1.574 . S
C700 H694 0.949 . S
C700 C704 1.368 1_455 S
C701 C682 1.429 1_455 S
C701 C695 1.429 . S
C701 C702 1.528 . S
C702 C683 1.387 . S
C702 C696 1.348 1_455 S
C702 C701 1.528 . S
C703 C687 1.419 1_655 S
C703 C699 1.429 . S
C703 C704 1.523 . S
C704 C688 1.368 . S
C704 C700 1.368 1_655 S
C704 C703 1.523 . S
H705 C680 0.964 . S
H706 C682 0.950 . S
H707 C683 0.949 . S
H708 C685 0.950 1_455 S
H709 C687 0.964 . S
C710 C711 1.349 . S
C710 C712 1.327 . S
C710 H735 0.950 . S
C711 C710 1.349 . S
C711 C727 1.349 . S
C712 C710 1.327 . S
C712 C731 1.429 . S
C712 H736 0.950 . S
C713 C730 1.574 . S
C713 C732 1.368 . S
C713 H737 0.949 . S
H714 C718 0.949 . S
C715 C716 1.349 . S
C715 C717 1.327 . S
C715 H738 0.950 . S
C716 C715 1.349 . S
C716 C728 1.349 . S
C717 C715 1.327 . S
C717 C733 1.429 . S
C717 H739 0.950 . S
C718 H714 0.949 . S
C718 C726 1.574 . S
C718 C734 1.368 . S
H719 C727 0.950 . S
H720 C725 0.950 . S
H721 C726 0.949 . S
H722 C728 0.950 . S
H723 C729 0.950 . S
H724 C730 0.949 . S
C725 H720 0.950 . S
C725 C727 1.327 . S
C725 C731 1.429 . S
C726 C718 1.574 . S
C726 H721 0.949 . S
C726 C732 1.368 . S
C727 C711 1.349 . S
C727 H719 0.950 . S
C727 C725 1.327 . S
C728 C716 1.349 . S
C728 H722 0.950 . S
C728 C729 1.327 . S
C729 H723 0.950 . S
C729 C728 1.327 . S
C729 C733 1.429 . S
C730 C713 1.574 . S
C730 H724 0.949 . S
C730 C734 1.368 . S
C731 C712 1.429 . S
C731 C725 1.429 . S
C731 C732 1.523 . S
C732 C713 1.368 . S
C732 C726 1.368 . S
C732 C731 1.523 . S
C733 C717 1.429 . S
C733 C729 1.429 . S
C733 C734 1.523 . S
C734 C718 1.368 . S
C734 C730 1.368 . S
C734 C733 1.523 . S
H735 C710 0.950 . S
H736 C712 0.950 . S
H737 C713 0.949 . S
H738 C715 0.950 . S
H739 C717 0.950 . S
C740 C741 1.349 . S
C740 C742 1.327 . S
C740 H765 0.950 . S
C741 C740 1.349 . S
C741 C757 1.349 . S
C742 C740 1.327 . S
C742 C761 1.429 . S
C742 H766 0.950 . S
C743 C760 1.574 . S
C743 C762 1.368 . S
C743 H767 0.949 . S
H744 C748 0.949 . S
C745 C746 1.349 . S
C745 C747 1.327 . S
C745 H768 0.950 . S
C746 C745 1.349 . S
C746 C758 1.349 . S
C747 C745 1.327 . S
C747 C763 1.429 . S
C747 H769 0.950 . S
C748 H744 0.949 . S
C748 C756 1.574 . S
C748 C764 1.368 . S
H749 C757 0.950 . S
H750 C755 0.950 . S
H751 C756 0.949 . S
H752 C758 0.950 . S
H753 C759 0.950 . S
H754 C760 0.949 . S
C755 H750 0.950 . S
C755 C757 1.327 . S
C755 C761 1.429 . S
C756 C748 1.574 . S
C756 H751 0.949 . S
C756 C762 1.368 . S
C757 C741 1.349 . S
C757 H749 0.950 . S
C757 C755 1.327 . S
C758 C746 1.349 . S
C758 H752 0.950 . S
C758 C759 1.327 . S
C759 H753 0.950 . S
C759 C758 1.327 . S
C759 C763 1.429 . S
C760 C743 1.574 . S
C760 H754 0.949 . S
C760 C764 1.368 . S
C761 C742 1.429 . S
C761 C755 1.429 . S
C761 C762 1.523 . S
C762 C743 1.368 . S
C762 C756 1.368 . S
C762 C761 1.523 . S
C763 C747 1.429 . S
C763 C759 1.429 . S
C763 C764 1.523 . S
C764 C748 1.368 . S
C764 C760 1.368 . S
C764 C763 1.523 . S
H765 C740 0.950 . S
H766 C742 0.950 . S
H767 C743 0.949 . S
H768 C745 0.950 . S
H769 C747 0.950 . S
C770 C771 1.349 . S
C770 C772 1.327 . S
C770 H795 0.950 . S
C771 C770 1.349 . S
C771 C787 1.349 . S
C772 C770 1.327 . S
C772 C791 1.429 . S
C772 H796 0.950 . S
C773 C790 1.574 . S
C773 C792 1.368 . S
C773 H797 0.949 . S
H774 C778 0.949 . S
C775 C776 1.349 . S
C775 C777 1.327 . S
C775 H798 0.950 . S
C776 C775 1.349 . S
C776 C788 1.349 . S
C777 C775 1.327 . S
C777 C793 1.429 . S
C777 H799 0.950 . S
C778 H774 0.949 . S
C778 C786 1.574 . S
C778 C794 1.368 . S
H779 C787 0.950 . S
H780 C785 0.950 . S
H781 C786 0.949 . S
H782 C788 0.950 . S
H783 C789 0.950 . S
H784 C790 0.949 . S
C785 H780 0.950 . S
C785 C787 1.327 . S
C785 C791 1.429 . S
C786 C778 1.574 . S
C786 H781 0.949 . S
C786 C792 1.368 . S
C787 C771 1.349 . S
C787 H779 0.950 . S
C787 C785 1.327 . S
C788 C776 1.349 . S
C788 H782 0.950 . S
C788 C789 1.327 . S
C789 H783 0.950 . S
C789 C788 1.327 . S
C789 C793 1.429 . S
C790 C773 1.574 . S
C790 H784 0.949 . S
C790 C794 1.368 . S
C791 C772 1.429 . S
C791 C785 1.429 . S
C791 C792 1.523 . S
C792 C773 1.368 . S
C792 C786 1.368 . S
C792 C791 1.523 . S
C793 C777 1.429 . S
C793 C789 1.429 . S
C793 C794 1.523 . S
C794 C778 1.368 . S
C794 C790 1.368 . S
C794 C793 1.523 . S
H795 C770 0.950 . S
H796 C772 0.950 . S
H797 C773 0.949 . S
H798 C775 0.950 . S
H799 C777 0.950 . S
C800 C801 1.349 . S
C800 C802 1.327 . S
C800 H825 0.950 . S
C801 C800 1.349 . S
C801 C817 1.349 1_455 S
C802 C800 1.327 . S
C802 C821 1.429 . S
C802 H826 0.950 . S
C803 C820 1.574 . S
C803 C822 1.368 1_655 S
C803 H827 0.949 . S
H804 C808 0.949 . S
C805 C806 1.349 . S
C805 C807 1.327 . S
C805 H828 0.950 . S
C806 C805 1.349 . S
C806 C818 1.349 1_655 S
C807 C805 1.327 . S
C807 C823 1.437 . S
C807 H829 0.950 . S
C808 H804 0.949 . S
C808 C816 1.574 . S
C808 C824 1.368 . S
H809 C817 0.950 . S
H810 C815 0.950 . S
H811 C816 0.949 . S
H812 C818 0.950 . S
H813 C819 0.950 . S
H814 C820 0.949 . S
C815 H810 0.950 . S
C815 C817 1.327 . S
C815 C821 1.429 1_655 S
C816 C808 1.574 . S
C816 H811 0.949 . S
C816 C822 1.368 . S
C817 C801 1.349 1_655 S
C817 H809 0.950 . S
C817 C815 1.327 . S
C818 C806 1.349 1_455 S
C818 H812 0.950 . S
C818 C819 1.327 . S
C819 H813 0.950 . S
C819 C818 1.327 . S
C819 C823 1.422 1_455 S
C820 C803 1.574 . S
C820 H814 0.949 . S
C820 C824 1.368 1_655 S
C821 C802 1.429 . S
C821 C815 1.429 1_455 S
C821 C822 1.523 . S
C822 C803 1.368 1_455 S
C822 C816 1.368 . S
C822 C821 1.523 . S
C823 C807 1.437 . S
C823 C819 1.422 1_655 S
C823 C824 1.522 1_655 S
C824 C808 1.368 . S
C824 C820 1.368 1_455 S
C824 C823 1.522 1_455 S
H825 C800 0.950 . S
H826 C802 0.950 . S
H827 C803 0.949 . S
H828 C805 0.950 . S
H829 C807 0.950 . S
C830 C831 1.349 . S
C830 C832 1.327 . S
C830 H855 0.950 . S
C831 C830 1.349 . S
C831 C847 1.349 . S
C832 C830 1.327 . S
C832 C851 1.429 . S
C832 H856 0.950 . S
C833 C850 1.574 . S
C833 C852 1.368 . S
C833 H857 0.949 . S
H834 C838 0.949 . S
C835 C836 1.349 . S
C835 C837 1.327 . S
C835 H858 0.950 . S
C836 C835 1.349 . S
C836 C848 1.349 . S
C837 C835 1.327 . S
C837 C853 1.429 . S
C837 H859 0.950 . S
C838 H834 0.949 . S
C838 C846 1.574 . S
C838 C854 1.368 . S
H839 C847 0.950 . S
H840 C845 0.950 . S
H841 C846 0.949 . S
H842 C848 0.950 . S
H843 C849 0.950 . S
H844 C850 0.949 . S
C845 H840 0.950 . S
C845 C847 1.327 . S
C845 C851 1.429 . S
C846 C838 1.574 . S
C846 H841 0.949 . S
C846 C852 1.368 . S
C847 C831 1.349 . S
C847 H839 0.950 . S
C847 C845 1.327 . S
C848 C836 1.349 . S
C848 H842 0.950 . S
C848 C849 1.327 . S
C849 H843 0.950 . S
C849 C848 1.327 . S
C849 C853 1.429 . S
C850 C833 1.574 . S
C850 H844 0.949 . S
C850 C854 1.368 . S
C851 C832 1.429 . S
C851 C845 1.429 . S
C851 C852 1.523 . S
C852 C833 1.368 . S
C852 C846 1.368 . S
C852 C851 1.523 . S
C853 C837 1.429 . S
C853 C849 1.429 . S
C853 C854 1.523 . S
C854 C838 1.368 . S
C854 C850 1.368 . S
C854 C853 1.523 . S
H855 C830 0.950 . S
H856 C832 0.950 . S
H857 C833 0.949 . S
H858 C835 0.950 . S
H859 C837 0.950 . S
C860 C861 1.349 . S
C860 C862 1.327 . S
C860 H885 0.950 . S
C861 C860 1.349 . S
C861 C877 1.349 . S
C862 C860 1.327 . S
C862 C881 1.429 . S
C862 H886 0.950 . S
C863 C880 1.574 . S
C863 C882 1.368 . S
C863 H887 0.949 . S
H864 C868 0.949 . S
C865 C866 1.349 1_556 S
C865 C867 1.327 . S
C865 H888 0.950 . S
C866 C865 1.349 1_554 S
C866 C878 1.349 . S
C867 C865 1.327 . S
C867 C883 1.429 . S
C867 H889 0.950 . S
C868 H864 0.949 . S
C868 C876 1.574 . S
C868 C884 1.368 . S
H869 C877 0.950 . S
H870 C875 0.950 . S
H871 C876 0.949 . S
H872 C878 0.950 . S
H873 C879 0.950 . S
H874 C880 0.949 . S
C875 H870 0.950 . S
C875 C877 1.327 . S
C875 C881 1.429 . S
C876 C868 1.574 . S
C876 H871 0.949 . S
C876 C882 1.368 . S
C877 C861 1.349 . S
C877 H869 0.950 . S
C877 C875 1.327 . S
C878 C866 1.349 . S
C878 H872 0.950 . S
C878 C879 1.327 . S
C879 H873 0.950 . S
C879 C878 1.327 . S
C879 C883 1.429 1_554 S
C880 C863 1.574 . S
C880 H874 0.949 . S
C880 C884 1.368 . S
C881 C862 1.429 . S
C881 C875 1.429 . S
C881 C882 1.523 . S
C882 C863 1.368 . S
C882 C876 1.368 . S
C882 C881 1.523 . S
C883 C867 1.429 . S
C883 C879 1.429 1_556 S
C883 C884 1.523 . S
C884 C868 1.368 . S
C884 C880 1.368 . S
C884 C883 1.523 . S
H885 C860 0.950 . S
H886 C862 0.950 . S
H887 C863 0.949 . S
H888 C865 0.950 . S
H889 C867 0.950 . S
C890 C891 1.349 . S
C890 C892 1.327 . S
C890 H915 0.950 . S
C891 C890 1.349 . S
C891 C907 1.349 . S
C892 C890 1.327 . S
C892 C911 1.429 . S
C892 H916 0.950 . S
C893 C910 1.574 . S
C893 C912 1.368 . S
C893 H917 0.949 . S
H894 C898 0.949 . S
C895 C896 1.349 . S
C895 C897 1.327 . S
C895 H918 0.950 . S
C896 C895 1.349 . S
C896 C908 1.349 . S
C897 C895 1.327 . S
C897 C913 1.429 . S
C897 H919 0.950 . S
C898 H894 0.949 . S
C898 C906 1.574 . S
C898 C914 1.368 . S
H899 C907 0.950 . S
H900 C905 0.950 . S
H901 C906 0.949 . S
H902 C908 0.950 . S
H903 C909 0.950 . S
H904 C910 0.949 . S
C905 H900 0.950 . S
C905 C907 1.327 . S
C905 C911 1.429 . S
C906 C898 1.574 . S
C906 H901 0.949 . S
C906 C912 1.368 . S
C907 C891 1.349 . S
C907 H899 0.950 . S
C907 C905 1.327 . S
C908 C896 1.349 . S
C908 H902 0.950 . S
C908 C909 1.327 . S
C909 H903 0.950 . S
C909 C908 1.327 . S
C909 C913 1.429 . S
C910 C893 1.574 . S
C910 H904 0.949 . S
C910 C914 1.368 . S
C911 C892 1.429 . S
C911 C905 1.429 . S
C911 C912 1.523 . S
C912 C893 1.368 . S
C912 C906 1.368 . S
C912 C911 1.523 . S
C913 C897 1.429 . S
C913 C909 1.429 . S
C913 C914 1.523 . S
C914 C898 1.368 . S
C914 C910 1.368 . S
C914 C913 1.523 . S
H915 C890 0.950 . S
H916 C892 0.950 . S
H917 C893 0.949 . S
H918 C895 0.950 . S
H919 C897 0.950 . S
C920 C921 1.349 . S
C920 C922 1.327 . S
C920 H945 0.950 1_545 S
C921 C920 1.349 . S
C921 C937 1.349 . S
C922 C920 1.327 . S
C922 C941 1.429 . S
C922 H946 0.950 1_545 S
C923 C940 1.574 . S
C923 C942 1.368 . S
C923 H947 0.949 . S
H924 C928 0.949 . S
C925 C926 1.349 . S
C925 C927 1.327 . S
C925 H948 0.950 . S
C926 C925 1.349 . S
C926 C938 1.349 1_545 S
C927 C925 1.327 . S
C927 C943 1.429 . S
C927 H949 0.950 . S
C928 H924 0.949 . S
C928 C936 1.573 1_565 S
C928 C944 1.368 1_565 S
H929 C937 0.950 . S
H930 C935 0.950 . S
H931 C936 0.940 1_565 S
H932 C938 0.950 . S
H933 C939 0.950 . S
H934 C940 0.949 . S
C935 H930 0.950 . S
C935 C937 1.327 . S
C935 C941 1.429 . S
C936 C928 1.573 1_545 S
C936 H931 0.940 1_545 S
C936 C942 1.379 . S
C937 C921 1.349 . S
C937 H929 0.950 . S
C937 C935 1.327 . S
C938 C926 1.349 1_565 S
C938 H932 0.950 . S
C938 C939 1.327 . S
C939 H933 0.950 . S
C939 C938 1.327 . S
C939 C943 1.429 1_565 S
C940 C923 1.574 . S
C940 H934 0.949 . S
C940 C944 1.368 . S
C941 C922 1.429 . S
C941 C935 1.429 . S
C941 C942 1.523 . S
C942 C923 1.368 . S
C942 C936 1.379 . S
C942 C941 1.523 . S
C943 C927 1.429 . S
C943 C939 1.429 1_545 S
C943 C944 1.523 . S
C944 C928 1.368 1_545 S
C944 C940 1.368 . S
C944 C943 1.523 . S
H945 C920 0.950 1_565 S
H946 C922 0.950 1_565 S
H947 C923 0.949 . S
H948 C925 0.950 . S
H949 C927 0.950 . S
C950 C951 1.349 . S
C950 C952 1.327 . S
C950 H975 0.950 . S
C951 C950 1.349 . S
C951 C967 1.349 . S
C952 C950 1.327 . S
C952 C971 1.429 . S
C952 H976 0.950 . S
C953 C970 1.574 . S
C953 C972 1.368 . S
C953 H977 0.949 . S
H954 C958 0.949 . S
C955 C956 1.349 . S
C955 C957 1.327 . S
C955 H978 0.950 . S
C956 C955 1.349 . S
C956 C968 1.349 . S
C957 C955 1.327 . S
C957 C973 1.429 . S
C957 H979 0.950 . S
C958 H954 0.949 . S
C958 C966 1.574 . S
C958 C974 1.368 . S
H959 C967 0.950 . S
H960 C965 0.950 . S
H961 C966 0.949 . S
H962 C968 0.950 . S
H963 C969 0.950 . S
H964 C970 0.949 . S
C965 H960 0.950 . S
C965 C967 1.327 . S
C965 C971 1.429 . S
C966 C958 1.574 . S
C966 H961 0.949 . S
C966 C972 1.368 . S
C967 C951 1.349 . S
C967 H959 0.950 . S
C967 C965 1.327 . S
C968 C956 1.349 . S
C968 H962 0.950 . S
C968 C969 1.327 . S
C969 H963 0.950 . S
C969 C968 1.327 . S
C969 C973 1.429 . S
C970 C953 1.574 . S
C970 H964 0.949 . S
C970 C974 1.368 . S
C971 C952 1.429 . S
C971 C965 1.429 . S
C971 C972 1.523 . S
C972 C953 1.368 . S
C972 C966 1.368 . S
C972 C971 1.523 . S
C973 C957 1.429 . S
C973 C969 1.429 . S
C973 C974 1.523 . S
C974 C958 1.368 . S
C974 C970 1.368 . S
C974 C973 1.523 . S
H975 C950 0.950 . S
H976 C952 0.950 . S
H977 C953 0.949 . S
H978 C955 0.950 . S
H979 C957 0.950 . S
C980 C981 1.350 . S
C980 C982 1.327 . S
C980 H1005 0.950 . S
C981 C980 1.350 . S
C981 C997 1.349 . S
C982 C980 1.327 . S
C982 C1001 1.429 . S
C982 H1006 0.950 . S
C983 C1000 1.574 . S
C983 C1002 1.368 . S
C983 H1007 0.949 . S
H984 C988 0.949 . S
C985 C986 1.349 . S
C985 C987 1.327 . S
C985 H1008 0.950 . S
C986 C985 1.349 . S
C986 C998 1.349 . S
C987 C985 1.327 . S
C987 C1003 1.429 . S
C987 H1009 0.950 . S
C988 H984 0.949 . S
C988 C996 1.574 . S
C988 C1004 1.368 . S
H989 C997 0.949 1_565 S
H990 C995 0.950 . S
H991 C996 0.949 . S
H992 C998 0.950 . S
H993 C999 0.950 . S
H994 C1000 0.949 . S
C995 H990 0.950 . S
C995 C997 1.328 . S
C995 C1001 1.429 . S
C996 C988 1.574 . S
C996 H991 0.949 . S
C996 C1002 1.368 . S
C997 C981 1.349 . S
C997 H989 0.949 1_545 S
C997 C995 1.328 . S
C998 C986 1.349 . S
C998 H992 0.950 . S
C998 C999 1.327 . S
C999 H993 0.950 . S
C999 C998 1.327 . S
C999 C1003 1.429 . S
C1000 C983 1.574 . S
C1000 H994 0.949 . S
C1000 C1004 1.368 . S
C1001 C982 1.429 . S
C1001 C995 1.429 . S
C1001 C1002 1.523 . S
C1002 C983 1.368 . S
C1002 C996 1.368 . S
C1002 C1001 1.523 . S
C1003 C987 1.429 . S
C1003 C999 1.429 . S
C1003 C1004 1.523 . S
C1004 C988 1.368 . S
C1004 C1000 1.368 . S
C1004 C1003 1.523 . S
H1005 C980 0.950 . S
H1006 C982 0.950 . S
H1007 C983 0.949 . S
H1008 C985 0.950 . S
H1009 C987 0.950 . S
C1010 C1011 1.349 . S
C1010 C1012 1.327 . S
C1010 H1035 0.950 . S
C1011 C1010 1.349 . S
C1011 C1027 1.349 . S
C1012 C1010 1.327 . S
C1012 C1031 1.429 . S
C1012 H1036 0.950 . S
C1013 C1030 1.574 . S
C1013 C1032 1.368 . S
C1013 H1037 0.949 . S
H1014 C1018 0.949 . S
C1015 C1016 1.349 . S
C1015 C1017 1.327 . S
C1015 H1038 0.950 . S
C1016 C1015 1.349 . S
C1016 C1028 1.349 . S
C1017 C1015 1.327 . S
C1017 C1033 1.429 . S
C1017 H1039 0.950 . S
C1018 H1014 0.949 . S
C1018 C1026 1.574 . S
C1018 C1034 1.368 . S
H1019 C1027 0.950 . S
H1020 C1025 0.950 . S
H1021 C1026 0.949 . S
H1022 C1028 0.950 . S
H1023 C1029 0.950 . S
H1024 C1030 0.949 . S
C1025 H1020 0.950 . S
C1025 C1027 1.327 . S
C1025 C1031 1.429 . S
C1026 C1018 1.574 . S
C1026 H1021 0.949 . S
C1026 C1032 1.368 . S
C1027 C1011 1.349 . S
C1027 H1019 0.950 . S
C1027 C1025 1.327 . S
C1028 C1016 1.349 . S
C1028 H1022 0.950 . S
C1028 C1029 1.327 . S
C1029 H1023 0.950 . S
C1029 C1028 1.327 . S
C1029 C1033 1.429 . S
C1030 C1013 1.574 . S
C1030 H1024 0.949 . S
C1030 C1034 1.368 . S
C1031 C1012 1.429 . S
C1031 C1025 1.429 . S
C1031 C1032 1.523 . S
C1032 C1013 1.368 . S
C1032 C1026 1.368 . S
C1032 C1031 1.523 . S
C1033 C1017 1.429 . S
C1033 C1029 1.429 . S
C1033 C1034 1.523 . S
C1034 C1018 1.368 . S
C1034 C1030 1.368 . S
C1034 C1033 1.523 . S
H1035 C1010 0.950 . S
H1036 C1012 0.950 . S
H1037 C1013 0.949 . S
H1038 C1015 0.950 . S
H1039 C1017 0.950 . S
C1040 C1041 1.349 . S
C1040 C1042 1.327 . S
C1040 H1065 0.950 . S
C1041 C1040 1.349 . S
C1041 C1057 1.349 . S
C1042 C1040 1.327 . S
C1042 C1061 1.429 . S
C1042 H1066 0.950 . S
C1043 C1060 1.574 . S
C1043 C1062 1.368 . S
C1043 H1067 0.949 1_545 S
H1044 C1048 0.949 . S
C1045 C1046 1.349 . S
C1045 C1047 1.327 . S
C1045 H1068 0.950 . S
C1046 C1045 1.349 . S
C1046 C1058 1.349 . S
C1047 C1045 1.327 . S
C1047 C1063 1.429 . S
C1047 H1069 0.950 . S
C1048 H1044 0.949 . S
C1048 C1056 1.574 . S
C1048 C1064 1.368 . S
H1049 C1057 0.950 1_565 S
H1050 C1055 0.950 1_565 S
H1051 C1056 0.949 . S
H1052 C1058 0.950 . S
H1053 C1059 0.950 . S
H1054 C1060 0.954 . S
C1055 H1050 0.950 1_545 S
C1055 C1057 1.327 . S
C1055 C1061 1.429 . S
C1056 C1048 1.574 . S
C1056 H1051 0.949 . S
C1056 C1062 1.368 . S
C1057 C1041 1.349 . S
C1057 H1049 0.950 1_545 S
C1057 C1055 1.327 . S
C1058 C1046 1.349 . S
C1058 H1052 0.950 . S
C1058 C1059 1.327 . S
C1059 H1053 0.950 . S
C1059 C1058 1.327 . S
C1059 C1063 1.429 . S
C1060 C1043 1.574 . S
C1060 H1054 0.954 . S
C1060 C1064 1.368 . S
C1061 C1042 1.429 . S
C1061 C1055 1.429 . S
C1061 C1062 1.523 . S
C1062 C1043 1.368 . S
C1062 C1056 1.368 . S
C1062 C1061 1.523 . S
C1063 C1047 1.429 . S
C1063 C1059 1.429 . S
C1063 C1064 1.523 . S
C1064 C1048 1.368 . S
C1064 C1060 1.368 . S
C1064 C1063 1.523 . S
H1065 C1040 0.950 . S
H1066 C1042 0.950 . S
H1067 C1043 0.949 1_565 S
H1068 C1045 0.950 . S
H1069 C1047 0.950 . S
C1070 C1071 1.349 . S
C1070 C1072 1.327 . S
C1070 H1095 0.950 . S
C1071 C1070 1.349 . S
C1071 C1087 1.349 . S
C1072 C1070 1.327 . S
C1072 C1091 1.429 . S
C1072 H1096 0.950 . S
C1073 C1090 1.574 . S
C1073 C1092 1.368 . S
C1073 H1097 0.949 . S
H1074 C1078 0.949 . S
C1075 C1076 1.349 . S
C1075 C1077 1.327 . S
C1075 H1098 0.950 . S
C1076 C1075 1.349 . S
C1076 C1088 1.349 . S
C1077 C1075 1.327 . S
C1077 C1093 1.429 . S
C1077 H1099 0.950 . S
C1078 H1074 0.949 . S
C1078 C1086 1.574 . S
C1078 C1094 1.368 . S
H1079 C1087 0.950 . S
H1080 C1085 0.950 . S
H1081 C1086 0.949 . S
H1082 C1088 0.950 . S
H1083 C1089 0.950 . S
H1084 C1090 0.949 . S
C1085 H1080 0.950 . S
C1085 C1087 1.327 . S
C1085 C1091 1.429 . S
C1086 C1078 1.574 . S
C1086 H1081 0.949 . S
C1086 C1092 1.368 . S
C1087 C1071 1.349 . S
C1087 H1079 0.950 . S
C1087 C1085 1.327 . S
C1088 C1076 1.349 . S
C1088 H1082 0.950 . S
C1088 C1089 1.327 . S
C1089 H1083 0.950 . S
C1089 C1088 1.327 . S
C1089 C1093 1.429 . S
C1090 C1073 1.574 . S
C1090 H1084 0.949 . S
C1090 C1094 1.368 . S
C1091 C1072 1.429 . S
C1091 C1085 1.429 . S
C1091 C1092 1.523 . S
C1092 C1073 1.368 . S
C1092 C1086 1.368 . S
C1092 C1091 1.523 . S
C1093 C1077 1.429 . S
C1093 C1089 1.429 . S
C1093 C1094 1.523 . S
C1094 C1078 1.368 . S
C1094 C1090 1.368 . S
C1094 C1093 1.523 . S
H1095 C1070 0.950 . S
H1096 C1072 0.950 . S
H1097 C1073 0.949 . S
H1098 C1075 0.950 . S
H1099 C1077 0.950 . S
C1100 C1101 1.349 . S
C1100 C1102 1.327 . S
C1100 H1125 0.950 . S
C1101 C1100 1.349 . S
C1101 C1117 1.349 1_545 S
C1102 C1100 1.327 . S
C1102 C1121 1.403 1_545 S
C1102 H1126 0.950 . S
C1103 C1120 1.574 . S
C1103 C1122 1.368 . S
C1103 H1127 0.949 . S
H1104 C1108 0.949 . S
C1105 C1106 1.349 . S
C1105 C1107 1.327 . S
C1105 H1128 0.950 . S
C1106 C1105 1.349 . S
C1106 C1118 1.349 1_565 S
C1107 C1105 1.327 . S
C1107 C1123 1.429 . S
C1107 H1129 0.950 . S
C1108 H1104 0.949 . S
C1108 C1116 1.574 . S
C1108 C1124 1.368 1_545 S
H1109 C1117 0.950 . S
H1110 C1115 0.950 . S
H1111 C1116 0.949 . S
H1112 C1118 0.950 . S
H1113 C1119 0.950 . S
H1114 C1120 0.949 . S
C1115 H1110 0.950 . S
C1115 C1117 1.327 . S
C1115 C1121 1.452 . S
C1116 C1108 1.574 . S
C1116 H1111 0.949 . S
C1116 C1122 1.368 1_545 S
C1117 C1101 1.349 1_565 S
C1117 H1109 0.950 . S
C1117 C1115 1.327 . S
C1118 C1106 1.349 1_545 S
C1118 H1112 0.950 . S
C1118 C1119 1.327 . S
C1119 H1113 0.950 . S
C1119 C1118 1.327 . S
C1119 C1123 1.429 1_545 S
C1120 C1103 1.574 . S
C1120 H1114 0.949 . S
C1120 C1124 1.368 . S
C1121 C1102 1.403 1_565 S
C1121 C1115 1.452 . S
C1121 C1122 1.526 . S
C1122 C1103 1.368 . S
C1122 C1116 1.368 1_565 S
C1122 C1121 1.526 . S
C1123 C1107 1.429 . S
C1123 C1119 1.429 1_565 S
C1123 C1124 1.523 . S
C1124 C1108 1.368 1_565 S
C1124 C1120 1.368 . S
C1124 C1123 1.523 . S
H1125 C1100 0.950 . S
H1126 C1102 0.950 . S
H1127 C1103 0.949 . S
H1128 C1105 0.950 . S
H1129 C1107 0.950 . S
C1130 C1131 1.349 . S
C1130 C1132 1.327 . S
C1130 H1155 0.950 . S
C1131 C1130 1.349 . S
C1131 C1147 1.349 . S
C1132 C1130 1.327 . S
C1132 C1151 1.429 . S
C1132 H1156 0.950 . S
C1133 C1150 1.574 . S
C1133 C1152 1.368 . S
C1133 H1157 0.949 . S
H1134 C1138 0.949 . S
C1135 C1136 1.349 . S
C1135 C1137 1.327 . S
C1135 H1158 0.950 . S
C1136 C1135 1.349 . S
C1136 C1148 1.349 . S
C1137 C1135 1.327 . S
C1137 C1153 1.429 . S
C1137 H1159 0.950 . S
C1138 H1134 0.949 . S
C1138 C1146 1.574 . S
C1138 C1154 1.368 . S
H1139 C1147 0.950 . S
H1140 C1145 0.950 . S
H1141 C1146 0.949 . S
H1142 C1148 0.950 . S
H1143 C1149 0.950 . S
H1144 C1150 0.949 . S
C1145 H1140 0.950 . S
C1145 C1147 1.327 . S
C1145 C1151 1.429 . S
C1146 C1138 1.574 . S
C1146 H1141 0.949 . S
C1146 C1152 1.368 . S
C1147 C1131 1.349 . S
C1147 H1139 0.950 . S
C1147 C1145 1.327 . S
C1148 C1136 1.349 . S
C1148 H1142 0.950 . S
C1148 C1149 1.327 . S
C1149 H1143 0.950 . S
C1149 C1148 1.327 . S
C1149 C1153 1.429 . S
C1150 C1133 1.574 . S
C1150 H1144 0.949 . S
C1150 C1154 1.368 . S
C1151 C1132 1.429 . S
C1151 C1145 1.429 . S
C1151 C1152 1.523 . S
C1152 C1133 1.368 . S
C1152 C1146 1.368 . S
C1152 C1151 1.523 . S
C1153 C1137 1.429 . S
C1153 C1149 1.429 . S
C1153 C1154 1.523 . S
C1154 C1138 1.368 . S
C1154 C1150 1.368 . S
C1154 C1153 1.523 . S
H1155 C1130 0.950 . S
H1156 C1132 0.950 . S
H1157 C1133 0.949 . S
H1158 C1135 0.950 . S
H1159 C1137 0.950 . S
C1160 C1161 1.349 1_556 S
C1160 C1162 1.327 . S
C1160 H1185 0.950 . S
C1161 C1160 1.349 1_554 S
C1161 C1177 1.349 . S
C1162 C1160 1.327 . S
C1162 C1181 1.429 1_556 S
C1162 H1186 0.950 . S
C1163 C1180 1.574 . S
C1163 C1182 1.368 . S
C1163 H1187 0.949 . S
H1164 C1168 0.949 . S
C1165 C1166 1.349 . S
C1165 C1167 1.327 . S
C1165 H1188 0.950 . S
C1166 C1165 1.349 . S
C1166 C1178 1.349 1_554 S
C1167 C1165 1.327 . S
C1167 C1183 1.429 . S
C1167 H1189 0.950 . S
C1168 H1164 0.949 . S
C1168 C1176 1.574 . S
C1168 C1184 1.368 1_556 S
H1169 C1177 0.950 . S
H1170 C1175 0.950 . S
H1171 C1176 0.949 . S
H1172 C1178 0.950 . S
H1173 C1179 0.950 . S
H1174 C1180 0.949 . S
C1175 H1170 0.950 . S
C1175 C1177 1.327 . S
C1175 C1181 1.429 . S
C1176 C1168 1.574 . S
C1176 H1171 0.949 . S
C1176 C1182 1.368 1_556 S
C1177 C1161 1.349 . S
C1177 H1169 0.950 . S
C1177 C1175 1.327 . S
C1178 C1166 1.349 1_556 S
C1178 H1172 0.950 . S
C1178 C1179 1.327 . S
C1179 H1173 0.950 . S
C1179 C1178 1.327 . S
C1179 C1183 1.429 1_556 S
C1180 C1163 1.574 . S
C1180 H1174 0.949 . S
C1180 C1184 1.368 . S
C1181 C1162 1.429 1_554 S
C1181 C1175 1.429 . S
C1181 C1182 1.523 . S
C1182 C1163 1.368 . S
C1182 C1176 1.368 1_554 S
C1182 C1181 1.523 . S
C1183 C1167 1.429 . S
C1183 C1179 1.429 1_554 S
C1183 C1184 1.523 . S
C1184 C1168 1.368 1_554 S
C1184 C1180 1.368 . S
C1184 C1183 1.523 . S
H1185 C1160 0.950 . S
H1186 C1162 0.950 . S
H1187 C1163 0.949 . S
H1188 C1165 0.950 . S
H1189 C1167 0.950 . S
C1190 C1191 1.349 1_556 S
C1190 C1192 1.327 . S
C1190 H1215 0.950 . S
C1191 C1190 1.349 1_554 S
C1191 C1207 1.349 . S
C1192 C1190 1.327 . S
C1192 C1211 1.429 1_556 S
C1192 H1216 0.950 . S
C1193 C1210 1.574 . S
C1193 C1212 1.368 . S
C1193 H1217 0.949 . S
H1194 C1198 0.949 . S
C1195 C1196 1.349 . S
C1195 C1197 1.327 . S
C1195 H1218 0.950 . S
C1196 C1195 1.349 . S
C1196 C1208 1.349 . S
C1197 C1195 1.327 . S
C1197 C1213 1.429 . S
C1197 H1219 0.950 . S
C1198 H1194 0.949 . S
C1198 C1206 1.574 . S
C1198 C1214 1.368 1_556 S
H1199 C1207 0.950 . S
H1200 C1205 0.950 . S
H1201 C1206 0.949 . S
H1202 C1208 0.950 1_556 S
H1203 C1209 0.950 1_556 S
H1204 C1210 0.949 . S
C1205 H1200 0.950 . S
C1205 C1207 1.327 . S
C1205 C1211 1.429 . S
C1206 C1198 1.574 . S
C1206 H1201 0.949 . S
C1206 C1212 1.368 1_556 S
C1207 C1191 1.349 . S
C1207 H1199 0.950 . S
C1207 C1205 1.327 . S
C1208 C1196 1.349 . S
C1208 H1202 0.950 1_554 S
C1208 C1209 1.327 . S
C1209 H1203 0.950 1_554 S
C1209 C1208 1.327 . S
C1209 C1213 1.429 . S
C1210 C1193 1.574 . S
C1210 H1204 0.949 . S
C1210 C1214 1.368 . S
C1211 C1192 1.429 1_554 S
C1211 C1205 1.429 . S
C1211 C1212 1.523 . S
C1212 C1193 1.368 . S
C1212 C1206 1.368 1_554 S
C1212 C1211 1.523 . S
C1213 C1197 1.429 . S
C1213 C1209 1.429 . S
C1213 C1214 1.523 . S
C1214 C1198 1.368 1_554 S
C1214 C1210 1.368 . S
C1214 C1213 1.523 . S
H1215 C1190 0.950 . S
H1216 C1192 0.950 . S
H1217 C1193 0.949 . S
H1218 C1195 0.950 . S
H1219 C1197 0.950 . S
C1220 C1221 1.349 . S
C1220 C1222 1.327 . S
C1220 H1245 0.950 . S
C1221 C1220 1.349 . S
C1221 C1237 1.349 . S
C1222 C1220 1.327 . S
C1222 C1241 1.429 . S
C1222 H1246 0.950 . S
C1223 C1240 1.574 . S
C1223 C1242 1.368 . S
C1223 H1247 0.949 . S
H1224 C1228 0.949 . S
C1225 C1226 1.349 . S
C1225 C1227 1.327 . S
C1225 H1248 0.950 . S
C1226 C1225 1.349 . S
C1226 C1238 1.349 . S
C1227 C1225 1.327 . S
C1227 C1243 1.429 . S
C1227 H1249 0.950 . S
C1228 H1224 0.949 . S
C1228 C1236 1.574 . S
C1228 C1244 1.368 . S
H1229 C1237 0.950 . S
H1230 C1235 0.950 . S
H1231 C1236 0.949 . S
H1232 C1238 0.950 . S
H1233 C1239 0.950 . S
H1234 C1240 0.949 . S
C1235 H1230 0.950 . S
C1235 C1237 1.327 . S
C1235 C1241 1.429 . S
C1236 C1228 1.574 . S
C1236 H1231 0.949 . S
C1236 C1242 1.368 . S
C1237 C1221 1.349 . S
C1237 H1229 0.950 . S
C1237 C1235 1.327 . S
C1238 C1226 1.349 . S
C1238 H1232 0.950 . S
C1238 C1239 1.327 . S
C1239 H1233 0.950 . S
C1239 C1238 1.327 . S
C1239 C1243 1.429 . S
C1240 C1223 1.574 . S
C1240 H1234 0.949 . S
C1240 C1244 1.368 . S
C1241 C1222 1.429 . S
C1241 C1235 1.429 . S
C1241 C1242 1.523 . S
C1242 C1223 1.368 . S
C1242 C1236 1.368 . S
C1242 C1241 1.523 . S
C1243 C1227 1.429 . S
C1243 C1239 1.429 . S
C1243 C1244 1.523 . S
C1244 C1228 1.368 . S
C1244 C1240 1.368 . S
C1244 C1243 1.523 . S
H1245 C1220 0.950 . S
H1246 C1222 0.950 . S
H1247 C1223 0.949 . S
H1248 C1225 0.950 . S
H1249 C1227 0.950 . S
C1250 C1251 1.349 . S
C1250 C1252 1.327 . S
C1250 H1275 0.950 . S
C1251 C1250 1.349 . S
C1251 C1267 1.349 . S
C1252 C1250 1.327 . S
C1252 C1271 1.429 . S
C1252 H1276 0.950 . S
C1253 C1270 1.574 . S
C1253 C1272 1.368 . S
C1253 H1277 0.949 . S
H1254 C1258 0.949 . S
C1255 C1256 1.349 . S
C1255 C1257 1.327 . S
C1255 H1278 0.950 . S
C1256 C1255 1.349 . S
C1256 C1268 1.349 . S
C1257 C1255 1.327 . S
C1257 C1273 1.429 . S
C1257 H1279 0.950 . S
C1258 H1254 0.949 . S
C1258 C1266 1.574 . S
C1258 C1274 1.368 . S
H1259 C1267 0.950 . S
H1260 C1265 0.950 . S
H1261 C1266 0.949 . S
H1262 C1268 0.950 . S
H1263 C1269 0.950 . S
H1264 C1270 0.949 . S
C1265 H1260 0.950 . S
C1265 C1267 1.327 . S
C1265 C1271 1.429 . S
C1266 C1258 1.574 . S
C1266 H1261 0.949 . S
C1266 C1272 1.368 . S
C1267 C1251 1.349 . S
C1267 H1259 0.950 . S
C1267 C1265 1.327 . S
C1268 C1256 1.349 . S
C1268 H1262 0.950 . S
C1268 C1269 1.327 . S
C1269 H1263 0.950 . S
C1269 C1268 1.327 . S
C1269 C1273 1.429 . S
C1270 C1253 1.574 . S
C1270 H1264 0.949 . S
C1270 C1274 1.368 . S
C1271 C1252 1.429 . S
C1271 C1265 1.429 . S
C1271 C1272 1.523 . S
C1272 C1253 1.368 . S
C1272 C1266 1.368 . S
C1272 C1271 1.523 . S
C1273 C1257 1.429 . S
C1273 C1269 1.429 . S
C1273 C1274 1.523 . S
C1274 C1258 1.368 . S
C1274 C1270 1.368 . S
C1274 C1273 1.523 . S
H1275 C1250 0.950 . S
H1276 C1252 0.950 . S
H1277 C1253 0.949 . S
H1278 C1255 0.950 . S
H1279 C1257 0.950 . S
C1280 C1281 1.349 . S
C1280 C1282 1.327 . S
C1280 H1305 0.950 . S
C1281 C1280 1.349 . S
C1281 C1297 1.349 . S
C1282 C1280 1.327 . S
C1282 C1301 1.429 . S
C1282 H1306 0.950 . S
C1283 C1300 1.574 . S
C1283 C1302 1.368 . S
C1283 H1307 0.949 . S
H1284 C1288 0.949 . S
C1285 C1286 1.349 . S
C1285 C1287 1.327 . S
C1285 H1308 0.950 . S
C1286 C1285 1.349 . S
C1286 C1298 1.349 . S
C1287 C1285 1.327 . S
C1287 C1303 1.429 . S
C1287 H1309 0.950 . S
C1288 H1284 0.949 . S
C1288 C1296 1.574 . S
C1288 C1304 1.368 . S
H1289 C1297 0.950 . S
H1290 C1295 0.950 . S
H1291 C1296 0.949 . S
H1292 C1298 0.950 . S
H1293 C1299 0.950 . S
H1294 C1300 0.949 . S
C1295 H1290 0.950 . S
C1295 C1297 1.327 . S
C1295 C1301 1.429 . S
C1296 C1288 1.574 . S
C1296 H1291 0.949 . S
C1296 C1302 1.368 . S
C1297 C1281 1.349 . S
C1297 H1289 0.950 . S
C1297 C1295 1.327 . S
C1298 C1286 1.349 . S
C1298 H1292 0.950 . S
C1298 C1299 1.327 . S
C1299 H1293 0.950 . S
C1299 C1298 1.327 . S
C1299 C1303 1.429 . S
C1300 C1283 1.574 . S
C1300 H1294 0.949 . S
C1300 C1304 1.368 . S
C1301 C1282 1.429 . S
C1301 C1295 1.429 . S
C1301 C1302 1.523 . S
C1302 C1283 1.368 . S
C1302 C1296 1.368 . S
C1302 C1301 1.523 . S
C1303 C1287 1.429 . S
C1303 C1299 1.429 . S
C1303 C1304 1.523 . S
C1304 C1288 1.368 . S
C1304 C1300 1.368 . S
C1304 C1303 1.523 . S
H1305 C1280 0.950 . S
H1306 C1282 0.950 . S
H1307 C1283 0.949 . S
H1308 C1285 0.950 . S
H1309 C1287 0.950 . S
C1310 C1311 1.349 . S
C1310 C1312 1.327 . S
C1310 H1335 0.950 . S
C1311 C1310 1.349 . S
C1311 C1327 1.349 . S
C1312 C1310 1.327 . S
C1312 C1331 1.429 . S
C1312 H1336 0.950 . S
C1313 C1330 1.574 . S
C1313 C1332 1.368 . S
C1313 H1337 0.949 . S
H1314 C1318 0.949 . S
C1315 C1316 1.342 1_565 S
C1315 C1317 1.327 . S
C1315 H1338 0.950 . S
C1316 C1315 1.342 1_545 S
C1316 C1328 1.351 . S
C1317 C1315 1.327 . S
C1317 C1333 1.429 . S
C1317 H1339 0.950 . S
C1318 H1314 0.949 . S
C1318 C1326 1.574 . S
C1318 C1334 1.368 . S
H1319 C1327 0.950 . S
H1320 C1325 0.950 . S
H1321 C1326 0.949 . S
H1322 C1328 0.950 . S
H1323 C1329 0.950 . S
H1324 C1330 0.949 . S
C1325 H1320 0.950 . S
C1325 C1327 1.327 . S
C1325 C1331 1.429 . S
C1326 C1318 1.574 . S
C1326 H1321 0.949 . S
C1326 C1332 1.368 . S
C1327 C1311 1.349 . S
C1327 H1319 0.950 . S
C1327 C1325 1.327 . S
C1328 C1316 1.351 . S
C1328 H1322 0.950 . S
C1328 C1329 1.327 1_545 S
C1329 H1323 0.950 . S
C1329 C1328 1.327 1_565 S
C1329 C1333 1.429 . S
C1330 C1313 1.574 . S
C1330 H1324 0.949 . S
C1330 C1334 1.368 . S
C1331 C1312 1.429 . S
C1331 C1325 1.429 . S
C1331 C1332 1.523 . S
C1332 C1313 1.368 . S
C1332 C1326 1.368 . S
C1332 C1331 1.523 . S
C1333 C1317 1.429 . S
C1333 C1329 1.429 . S
C1333 C1334 1.523 . S
C1334 C1318 1.368 . S
C1334 C1330 1.368 . S
C1334 C1333 1.523 . S
H1335 C1310 0.950 . S
H1336 C1312 0.950 . S
H1337 C1313 0.949 . S
H1338 C1315 0.950 . S
H1339 C1317 0.950 . S
C1340 C1341 1.349 . S
C1340 C1342 1.327 . S
C1340 H1365 0.950 . S
C1341 C1340 1.349 . S
C1341 C1357 1.349 . S
C1342 C1340 1.327 . S
C1342 C1361 1.429 . S
C1342 H1366 0.950 . S
C1343 C1360 1.574 . S
C1343 C1362 1.368 . S
C1343 H1367 0.949 . S
H1344 C1348 0.949 . S
C1345 C1346 1.349 . S
C1345 C1347 1.327 . S
C1345 H1368 0.950 . S
C1346 C1345 1.349 . S
C1346 C1358 1.349 . S
C1347 C1345 1.327 . S
C1347 C1363 1.429 . S
C1347 H1369 0.950 . S
C1348 H1344 0.949 . S
C1348 C1356 1.574 . S
C1348 C1364 1.368 . S
H1349 C1357 0.950 . S
H1350 C1355 0.950 . S
H1351 C1356 0.949 . S
H1352 C1358 0.950 . S
H1353 C1359 0.950 . S
H1354 C1360 0.949 . S
C1355 H1350 0.950 . S
C1355 C1357 1.327 . S
C1355 C1361 1.429 . S
C1356 C1348 1.574 . S
C1356 H1351 0.949 . S
C1356 C1362 1.368 . S
C1357 C1341 1.349 . S
C1357 H1349 0.950 . S
C1357 C1355 1.327 . S
C1358 C1346 1.349 . S
C1358 H1352 0.950 . S
C1358 C1359 1.327 . S
C1359 H1353 0.950 . S
C1359 C1358 1.327 . S
C1359 C1363 1.429 . S
C1360 C1343 1.574 . S
C1360 H1354 0.949 . S
C1360 C1364 1.368 . S
C1361 C1342 1.429 . S
C1361 C1355 1.429 . S
C1361 C1362 1.523 . S
C1362 C1343 1.368 . S
C1362 C1356 1.368 . S
C1362 C1361 1.523 . S
C1363 C1347 1.429 . S
C1363 C1359 1.429 . S
C1363 C1364 1.523 . S
C1364 C1348 1.368 . S
C1364 C1360 1.368 . S
C1364 C1363 1.523 . S
H1365 C1340 0.950 . S
H1366 C1342 0.950 . S
H1367 C1343 0.949 . S
H1368 C1345 0.950 . S
H1369 C1347 0.950 . S
C1370 C1371 1.349 . S
C1370 C1372 1.327 . S
C1370 H1395 0.950 . S
C1371 C1370 1.349 . S
C1371 C1387 1.349 . S
C1372 C1370 1.327 . S
C1372 C1391 1.429 . S
C1372 H1396 0.950 . S
C1373 C1390 1.574 . S
C1373 C1392 1.368 . S
C1373 H1397 0.949 . S
H1374 C1378 0.949 . S
C1375 C1376 1.349 . S
C1375 C1377 1.327 . S
C1375 H1398 0.950 . S
C1376 C1375 1.349 . S
C1376 C1388 1.349 . S
C1377 C1375 1.327 . S
C1377 C1393 1.429 . S
C1377 H1399 0.950 . S
C1378 H1374 0.949 . S
C1378 C1386 1.574 . S
C1378 C1394 1.368 . S
H1379 C1387 0.950 . S
H1380 C1385 0.950 . S
H1381 C1386 0.949 . S
H1382 C1388 0.950 . S
H1383 C1389 0.950 . S
H1384 C1390 0.949 . S
C1385 H1380 0.950 . S
C1385 C1387 1.327 . S
C1385 C1391 1.429 . S
C1386 C1378 1.574 . S
C1386 H1381 0.949 . S
C1386 C1392 1.368 . S
C1387 C1371 1.349 . S
C1387 H1379 0.950 . S
C1387 C1385 1.327 . S
C1388 C1376 1.349 . S
C1388 H1382 0.950 . S
C1388 C1389 1.327 . S
C1389 H1383 0.950 . S
C1389 C1388 1.327 . S
C1389 C1393 1.429 . S
C1390 C1373 1.574 . S
C1390 H1384 0.949 . S
C1390 C1394 1.368 . S
C1391 C1372 1.429 . S
C1391 C1385 1.429 . S
C1391 C1392 1.523 . S
C1392 C1373 1.368 . S
C1392 C1386 1.368 . S
C1392 C1391 1.523 . S
C1393 C1377 1.429 . S
C1393 C1389 1.429 . S
C1393 C1394 1.523 . S
C1394 C1378 1.368 . S
C1394 C1390 1.368 . S
C1394 C1393 1.523 . S
H1395 C1370 0.950 . S
H1396 C1372 0.950 . S
H1397 C1373 0.949 . S
H1398 C1375 0.950 . S
H1399 C1377 0.950 . S
C1400 C1401 1.349 . S
C1400 C1402 1.327 . S
C1400 H1425 0.950 . S
C1401 C1400 1.349 . S
C1401 C1417 1.349 . S
C1402 C1400 1.327 . S
C1402 C1421 1.429 . S
C1402 H1426 0.950 . S
C1403 C1420 1.574 . S
C1403 C1422 1.368 . S
C1403 H1427 0.949 . S
H1404 C1408 0.949 . S
C1405 C1406 1.349 . S
C1405 C1407 1.327 . S
C1405 H1428 0.950 . S
C1406 C1405 1.349 . S
C1406 C1418 1.349 1_556 S
C1407 C1405 1.327 . S
C1407 C1423 1.429 . S
C1407 H1429 0.950 . S
C1408 H1404 0.949 . S
C1408 C1416 1.574 . S
C1408 C1424 1.368 . S
H1409 C1417 0.948 . S
H1410 C1415 0.950 . S
H1411 C1416 0.949 . S
H1412 C1418 0.950 . S
H1413 C1419 0.950 1_554 S
H1414 C1420 0.949 . S
C1415 H1410 0.950 . S
C1415 C1417 1.327 . S
C1415 C1421 1.429 . S
C1416 C1408 1.574 . S
C1416 H1411 0.949 . S
C1416 C1422 1.368 . S
C1417 C1401 1.349 . S
C1417 H1409 0.948 . S
C1417 C1415 1.327 . S
C1418 C1406 1.349 1_554 S
C1418 H1412 0.950 . S
C1418 C1419 1.327 1_554 S
C1419 H1413 0.950 1_556 S
C1419 C1418 1.327 1_556 S
C1419 C1423 1.429 . S
C1420 C1403 1.574 . S
C1420 H1414 0.949 . S
C1420 C1424 1.368 . S
C1421 C1402 1.429 . S
C1421 C1415 1.429 . S
C1421 C1422 1.523 . S
C1422 C1403 1.368 . S
C1422 C1416 1.368 . S
C1422 C1421 1.523 . S
C1423 C1407 1.429 . S
C1423 C1419 1.429 . S
C1423 C1424 1.523 . S
C1424 C1408 1.368 . S
C1424 C1420 1.368 . S
C1424 C1423 1.523 . S
H1425 C1400 0.950 . S
H1426 C1402 0.950 . S
H1427 C1403 0.949 . S
H1428 C1405 0.950 . S
H1429 C1407 0.950 . S
C1430 C1431 1.349 . S
C1430 C1432 1.327 . S
C1430 H1455 0.950 . S
C1431 C1430 1.349 . S
C1431 C1447 1.349 . S
C1432 C1430 1.327 . S
C1432 C1451 1.429 . S
C1432 H1456 0.950 . S
C1433 C1450 1.574 . S
C1433 C1452 1.368 . S
C1433 H1457 0.949 . S
H1434 C1438 0.949 . S
C1435 C1436 1.349 . S
C1435 C1437 1.327 . S
C1435 H1458 0.950 . S
C1436 C1435 1.349 . S
C1436 C1448 1.349 . S
C1437 C1435 1.327 . S
C1437 C1453 1.429 . S
C1437 H1459 0.950 . S
C1438 H1434 0.949 . S
C1438 C1446 1.574 . S
C1438 C1454 1.368 . S
H1439 C1447 0.950 . S
H1440 C1445 0.950 . S
H1441 C1446 0.949 . S
H1442 C1448 0.950 . S
H1443 C1449 0.950 . S
H1444 C1450 0.949 . S
C1445 H1440 0.950 . S
C1445 C1447 1.327 . S
C1445 C1451 1.429 . S
C1446 C1438 1.574 . S
C1446 H1441 0.949 . S
C1446 C1452 1.368 . S
C1447 C1431 1.349 . S
C1447 H1439 0.950 . S
C1447 C1445 1.327 . S
C1448 C1436 1.349 . S
C1448 H1442 0.950 . S
C1448 C1449 1.327 . S
C1449 H1443 0.950 . S
C1449 C1448 1.327 . S
C1449 C1453 1.429 . S
C1450 C1433 1.574 . S
C1450 H1444 0.949 . S
C1450 C1454 1.368 . S
C1451 C1432 1.429 . S
C1451 C1445 1.429 . S
C1451 C1452 1.523 . S
C1452 C1433 1.368 . S
C1452 C1446 1.368 . S
C1452 C1451 1.523 . S
C1453 C1437 1.429 . S
C1453 C1449 1.429 . S
C1453 C1454 1.523 . S
C1454 C1438 1.368 . S
C1454 C1450 1.368 . S
C1454 C1453 1.523 . S
H1455 C1430 0.950 . S
H1456 C1432 0.950 . S
H1457 C1433 0.949 . S
H1458 C1435 0.950 . S
H1459 C1437 0.950 . S
C1460 C1461 1.349 . S
C1460 C1462 1.327 . S
C1460 H1485 0.950 . S
C1461 C1460 1.349 . S
C1461 C1477 1.349 . S
C1462 C1460 1.327 . S
C1462 C1481 1.429 . S
C1462 H1486 0.950 . S
C1463 C1480 1.574 . S
C1463 C1482 1.368 . S
C1463 H1487 0.949 . S
H1464 C1468 0.949 . S
C1465 C1466 1.349 . S
C1465 C1467 1.327 . S
C1465 H1488 0.950 . S
C1466 C1465 1.349 . S
C1466 C1478 1.349 . S
C1467 C1465 1.327 . S
C1467 C1483 1.429 . S
C1467 H1489 0.950 . S
C1468 H1464 0.949 . S
C1468 C1476 1.574 . S
C1468 C1484 1.368 . S
H1469 C1477 0.950 . S
H1470 C1475 0.950 . S
H1471 C1476 0.949 . S
H1472 C1478 0.950 . S
H1473 C1479 0.950 . S
H1474 C1480 0.949 . S
C1475 H1470 0.950 . S
C1475 C1477 1.327 . S
C1475 C1481 1.429 . S
C1476 C1468 1.574 . S
C1476 H1471 0.949 . S
C1476 C1482 1.368 . S
C1477 C1461 1.349 . S
C1477 H1469 0.950 . S
C1477 C1475 1.327 . S
C1478 C1466 1.349 . S
C1478 H1472 0.950 . S
C1478 C1479 1.327 . S
C1479 H1473 0.950 . S
C1479 C1478 1.327 . S
C1479 C1483 1.429 . S
C1480 C1463 1.574 . S
C1480 H1474 0.949 . S
C1480 C1484 1.368 . S
C1481 C1462 1.429 . S
C1481 C1475 1.429 . S
C1481 C1482 1.523 . S
C1482 C1463 1.368 . S
C1482 C1476 1.368 . S
C1482 C1481 1.523 . S
C1483 C1467 1.429 . S
C1483 C1479 1.429 . S
C1483 C1484 1.523 . S
C1484 C1468 1.368 . S
C1484 C1480 1.368 . S
C1484 C1483 1.523 . S
H1485 C1460 0.950 . S
H1486 C1462 0.950 . S
H1487 C1463 0.949 . S
H1488 C1465 0.950 . S
H1489 C1467 0.950 . S
C1490 C1491 1.349 . S
C1490 C1492 1.327 . S
C1490 H1515 0.950 . S
C1491 C1490 1.349 . S
C1491 C1507 1.349 . S
C1492 C1490 1.327 . S
C1492 C1511 1.429 . S
C1492 H1516 0.950 . S
C1493 C1510 1.574 . S
C1493 C1512 1.368 . S
C1493 H1517 0.949 . S
H1494 C1498 0.949 . S
C1495 C1496 1.349 . S
C1495 C1497 1.327 . S
C1495 H1518 0.950 . S
C1496 C1495 1.349 . S
C1496 C1508 1.349 . S
C1497 C1495 1.327 . S
C1497 C1513 1.429 . S
C1497 H1519 0.950 . S
C1498 H1494 0.949 . S
C1498 C1506 1.574 . S
C1498 C1514 1.368 . S
H1499 C1507 0.950 . S
H1500 C1505 0.950 . S
H1501 C1506 0.949 . S
H1502 C1508 0.950 . S
H1503 C1509 0.950 . S
H1504 C1510 0.949 . S
C1505 H1500 0.950 . S
C1505 C1507 1.327 . S
C1505 C1511 1.429 . S
C1506 C1498 1.574 . S
C1506 H1501 0.949 . S
C1506 C1512 1.368 . S
C1507 C1491 1.349 . S
C1507 H1499 0.950 . S
C1507 C1505 1.327 . S
C1508 C1496 1.349 . S
C1508 H1502 0.950 . S
C1508 C1509 1.327 . S
C1509 H1503 0.950 . S
C1509 C1508 1.327 . S
C1509 C1513 1.429 . S
C1510 C1493 1.574 . S
C1510 H1504 0.949 . S
C1510 C1514 1.368 . S
C1511 C1492 1.429 . S
C1511 C1505 1.429 . S
C1511 C1512 1.523 . S
C1512 C1493 1.368 . S
C1512 C1506 1.368 . S
C1512 C1511 1.523 . S
C1513 C1497 1.429 . S
C1513 C1509 1.429 . S
C1513 C1514 1.523 . S
C1514 C1498 1.368 . S
C1514 C1510 1.368 . S
C1514 C1513 1.523 . S
H1515 C1490 0.950 . S
H1516 C1492 0.950 . S
H1517 C1493 0.949 . S
H1518 C1495 0.950 . S
H1519 C1497 0.950 . S
C1520 C1521 1.349 . S
C1520 C1522 1.327 . S
C1520 H1545 0.950 . S
C1521 C1520 1.349 . S
C1521 C1537 1.349 . S
C1522 C1520 1.327 . S
C1522 C1541 1.429 . S
C1522 H1546 0.950 . S
C1523 C1540 1.574 . S
C1523 C1542 1.368 . S
C1523 H1547 0.949 . S
H1524 C1528 0.949 . S
C1525 C1526 1.349 . S
C1525 C1527 1.327 . S
C1525 H1548 0.950 . S
C1526 C1525 1.349 . S
C1526 C1538 1.349 . S
C1527 C1525 1.327 . S
C1527 C1543 1.429 . S
C1527 H1549 0.950 . S
C1528 H1524 0.949 . S
C1528 C1536 1.574 . S
C1528 C1544 1.368 . S
H1529 C1537 0.950 . S
H1530 C1535 0.950 . S
H1531 C1536 0.949 . S
H1532 C1538 0.950 . S
H1533 C1539 0.950 . S
H1534 C1540 0.949 . S
C1535 H1530 0.950 . S
C1535 C1537 1.327 . S
C1535 C1541 1.429 . S
C1536 C1528 1.574 . S
C1536 H1531 0.949 . S
C1536 C1542 1.368 . S
C1537 C1521 1.349 . S
C1537 H1529 0.950 . S
C1537 C1535 1.327 . S
C1538 C1526 1.349 . S
C1538 H1532 0.950 . S
C1538 C1539 1.327 . S
C1539 H1533 0.950 . S
C1539 C1538 1.327 . S
C1539 C1543 1.429 . S
C1540 C1523 1.574 . S
C1540 H1534 0.949 . S
C1540 C1544 1.368 . S
C1541 C1522 1.429 . S
C1541 C1535 1.429 . S
C1541 C1542 1.523 . S
C1542 C1523 1.368 . S
C1542 C1536 1.368 . S
C1542 C1541 1.523 . S
C1543 C1527 1.429 . S
C1543 C1539 1.429 . S
C1543 C1544 1.523 . S
C1544 C1528 1.368 . S
C1544 C1540 1.368 . S
C1544 C1543 1.523 . S
H1545 C1520 0.950 . S
H1546 C1522 0.950 . S
H1547 C1523 0.949 . S
H1548 C1525 0.950 . S
H1549 C1527 0.950 . S
C1550 C1551 1.349 . S
C1550 C1552 1.327 . S
C1550 H1575 0.950 . S
C1551 C1550 1.349 . S
C1551 C1567 1.349 . S
C1552 C1550 1.327 . S
C1552 C1571 1.429 . S
C1552 H1576 0.950 . S
C1553 C1570 1.574 . S
C1553 C1572 1.368 . S
C1553 H1577 0.949 . S
H1554 C1558 0.949 . S
C1555 C1556 1.349 . S
C1555 C1557 1.327 . S
C1555 H1578 0.950 . S
C1556 C1555 1.349 . S
C1556 C1568 1.349 . S
C1557 C1555 1.327 . S
C1557 C1573 1.429 . S
C1557 H1579 0.950 . S
C1558 H1554 0.949 . S
C1558 C1566 1.574 . S
C1558 C1574 1.368 . S
H1559 C1567 0.950 . S
H1560 C1565 0.950 . S
H1561 C1566 0.949 . S
H1562 C1568 0.950 . S
H1563 C1569 0.950 . S
H1564 C1570 0.949 . S
C1565 H1560 0.950 . S
C1565 C1567 1.327 . S
C1565 C1571 1.429 . S
C1566 C1558 1.574 . S
C1566 H1561 0.949 . S
C1566 C1572 1.368 . S
C1567 C1551 1.349 . S
C1567 H1559 0.950 . S
C1567 C1565 1.327 . S
C1568 C1556 1.349 . S
C1568 H1562 0.950 . S
C1568 C1569 1.327 . S
C1569 H1563 0.950 . S
C1569 C1568 1.327 . S
C1569 C1573 1.429 . S
C1570 C1553 1.574 . S
C1570 H1564 0.949 . S
C1570 C1574 1.368 . S
C1571 C1552 1.429 . S
C1571 C1565 1.429 . S
C1571 C1572 1.523 . S
C1572 C1553 1.368 . S
C1572 C1566 1.368 . S
C1572 C1571 1.523 . S
C1573 C1557 1.429 . S
C1573 C1569 1.429 . S
C1573 C1574 1.523 . S
C1574 C1558 1.368 . S
C1574 C1570 1.368 . S
C1574 C1573 1.523 . S
H1575 C1550 0.950 . S
H1576 C1552 0.950 . S
H1577 C1553 0.949 . S
H1578 C1555 0.950 . S
H1579 C1557 0.950 . S
C1580 C1581 1.349 . S
C1580 C1582 1.327 . S
C1580 H1605 0.950 . S
C1581 C1580 1.349 . S
C1581 C1597 1.349 . S
C1582 C1580 1.327 . S
C1582 C1601 1.429 . S
C1582 H1606 0.950 . S
C1583 C1600 1.574 . S
C1583 C1602 1.368 . S
C1583 H1607 0.949 . S
H1584 C1588 0.949 . S
C1585 C1586 1.349 . S
C1585 C1587 1.327 . S
C1585 H1608 0.950 . S
C1586 C1585 1.349 . S
C1586 C1598 1.349 . S
C1587 C1585 1.327 . S
C1587 C1603 1.429 . S
C1587 H1609 0.950 . S
C1588 H1584 0.949 . S
C1588 C1596 1.574 . S
C1588 C1604 1.368 . S
H1589 C1597 0.950 . S
H1590 C1595 0.950 . S
H1591 C1596 0.949 . S
H1592 C1598 0.950 . S
H1593 C1599 0.950 . S
H1594 C1600 0.949 . S
C1595 H1590 0.950 . S
C1595 C1597 1.327 . S
C1595 C1601 1.429 . S
C1596 C1588 1.574 . S
C1596 H1591 0.949 . S
C1596 C1602 1.368 . S
C1597 C1581 1.349 . S
C1597 H1589 0.950 . S
C1597 C1595 1.327 . S
C1598 C1586 1.349 . S
C1598 H1592 0.950 . S
C1598 C1599 1.327 . S
C1599 H1593 0.950 . S
C1599 C1598 1.327 . S
C1599 C1603 1.429 . S
C1600 C1583 1.574 . S
C1600 H1594 0.949 . S
C1600 C1604 1.368 . S
C1601 C1582 1.429 . S
C1601 C1595 1.429 . S
C1601 C1602 1.523 . S
C1602 C1583 1.368 . S
C1602 C1596 1.368 . S
C1602 C1601 1.523 . S
C1603 C1587 1.429 . S
C1603 C1599 1.429 . S
C1603 C1604 1.523 . S
C1604 C1588 1.368 . S
C1604 C1600 1.368 . S
C1604 C1603 1.523 . S
H1605 C1580 0.950 . S
H1606 C1582 0.950 . S
H1607 C1583 0.949 . S
H1608 C1585 0.950 . S
H1609 C1587 0.950 . S
C1610 C1611 1.349 . S
C1610 C1612 1.327 . S
C1610 H1635 0.950 . S
C1611 C1610 1.349 . S
C1611 C1627 1.349 . S
C1612 C1610 1.327 . S
C1612 C1631 1.429 . S
C1612 H1636 0.950 . S
C1613 C1630 1.574 . S
C1613 C1632 1.368 . S
C1613 H1637 0.949 . S
H1614 C1618 0.949 . S
C1615 C1616 1.349 . S
C1615 C1617 1.327 . S
C1615 H1638 0.950 . S
C1616 C1615 1.349 . S
C1616 C1628 1.349 . S
C1617 C1615 1.327 . S
C1617 C1633 1.429 . S
C1617 H1639 0.950 . S
C1618 H1614 0.949 . S
C1618 C1626 1.574 . S
C1618 C1634 1.368 . S
H1619 C1627 0.950 . S
H1620 C1625 0.950 . S
H1621 C1626 0.949 . S
H1622 C1628 0.950 . S
H1623 C1629 0.950 . S
H1624 C1630 0.949 . S
C1625 H1620 0.950 . S
C1625 C1627 1.327 . S
C1625 C1631 1.429 . S
C1626 C1618 1.574 . S
C1626 H1621 0.949 . S
C1626 C1632 1.368 . S
C1627 C1611 1.349 . S
C1627 H1619 0.950 . S
C1627 C1625 1.327 . S
C1628 C1616 1.349 . S
C1628 H1622 0.950 . S
C1628 C1629 1.327 . S
C1629 H1623 0.950 . S
C1629 C1628 1.327 . S
C1629 C1633 1.429 . S
C1630 C1613 1.574 . S
C1630 H1624 0.949 . S
C1630 C1634 1.368 . S
C1631 C1612 1.429 . S
C1631 C1625 1.429 . S
C1631 C1632 1.523 . S
C1632 C1613 1.368 . S
C1632 C1626 1.368 . S
C1632 C1631 1.523 . S
C1633 C1617 1.429 . S
C1633 C1629 1.429 . S
C1633 C1634 1.523 . S
C1634 C1618 1.368 . S
C1634 C1630 1.368 . S
C1634 C1633 1.523 . S
H1635 C1610 0.950 . S
H1636 C1612 0.950 . S
H1637 C1613 0.949 . S
H1638 C1615 0.950 . S
H1639 C1617 0.950 . S
C1640 C1641 1.349 . S
C1640 C1642 1.327 . S
C1640 H1665 0.950 . S
C1641 C1640 1.349 . S
C1641 C1657 1.349 . S
C1642 C1640 1.327 . S
C1642 C1661 1.429 . S
C1642 H1666 0.950 . S
C1643 C1660 1.574 . S
C1643 C1662 1.368 . S
C1643 H1667 0.967 . S
H1644 C1648 0.949 . S
C1645 C1646 1.349 . S
C1645 C1647 1.327 . S
C1645 H1668 0.950 . S
C1646 C1645 1.349 . S
C1646 C1658 1.349 . S
C1647 C1645 1.327 . S
C1647 C1663 1.429 . S
C1647 H1669 0.950 . S
C1648 H1644 0.949 . S
C1648 C1656 1.574 . S
C1648 C1664 1.368 . S
H1649 C1657 0.950 1_565 S
H1650 C1655 0.950 1_565 S
H1651 C1656 0.949 . S
H1652 C1658 0.950 . S
H1653 C1659 0.950 . S
H1654 C1660 0.949 . S
C1655 H1650 0.950 1_545 S
C1655 C1657 1.327 . S
C1655 C1661 1.429 . S
C1656 C1648 1.574 . S
C1656 H1651 0.949 . S
C1656 C1662 1.368 . S
C1657 C1641 1.349 . S
C1657 H1649 0.950 1_545 S
C1657 C1655 1.327 . S
C1658 C1646 1.349 . S
C1658 H1652 0.950 . S
C1658 C1659 1.327 . S
C1659 H1653 0.950 . S
C1659 C1658 1.327 . S
C1659 C1663 1.429 . S
C1660 C1643 1.574 . S
C1660 H1654 0.949 . S
C1660 C1664 1.368 . S
C1661 C1642 1.429 . S
C1661 C1655 1.429 . S
C1661 C1662 1.523 . S
C1662 C1643 1.368 . S
C1662 C1656 1.368 . S
C1662 C1661 1.523 . S
C1663 C1647 1.429 . S
C1663 C1659 1.429 . S
C1663 C1664 1.523 . S
C1664 C1648 1.368 . S
C1664 C1660 1.368 . S
C1664 C1663 1.523 . S
H1665 C1640 0.950 . S
H1666 C1642 0.950 . S
H1667 C1643 0.967 . S
H1668 C1645 0.950 . S
H1669 C1647 0.950 . S
C1670 C1671 1.349 . S
C1670 C1672 1.327 . S
C1670 H1695 0.950 . S
C1671 C1670 1.349 . S
C1671 C1687 1.349 . S
C1672 C1670 1.327 . S
C1672 C1691 1.429 . S
C1672 H1696 0.950 . S
C1673 C1690 1.574 . S
C1673 C1692 1.368 . S
C1673 H1697 0.949 . S
H1674 C1678 0.949 . S
C1675 C1676 1.349 . S
C1675 C1677 1.327 . S
C1675 H1698 0.950 . S
C1676 C1675 1.349 . S
C1676 C1688 1.349 . S
C1677 C1675 1.327 . S
C1677 C1693 1.429 . S
C1677 H1699 0.950 . S
C1678 H1674 0.949 . S
C1678 C1686 1.574 . S
C1678 C1694 1.368 . S
H1679 C1687 0.950 . S
H1680 C1685 0.950 . S
H1681 C1686 0.949 . S
H1682 C1688 0.950 . S
H1683 C1689 0.950 . S
H1684 C1690 0.949 . S
C1685 H1680 0.950 . S
C1685 C1687 1.327 . S
C1685 C1691 1.429 . S
C1686 C1678 1.574 . S
C1686 H1681 0.949 . S
C1686 C1692 1.368 . S
C1687 C1671 1.349 . S
C1687 H1679 0.950 . S
C1687 C1685 1.327 . S
C1688 C1676 1.349 . S
C1688 H1682 0.950 . S
C1688 C1689 1.327 . S
C1689 H1683 0.950 . S
C1689 C1688 1.327 . S
C1689 C1693 1.429 . S
C1690 C1673 1.574 . S
C1690 H1684 0.949 . S
C1690 C1694 1.368 . S
C1691 C1672 1.429 . S
C1691 C1685 1.429 . S
C1691 C1692 1.523 . S
C1692 C1673 1.368 . S
C1692 C1686 1.368 . S
C1692 C1691 1.523 . S
C1693 C1677 1.429 . S
C1693 C1689 1.429 . S
C1693 C1694 1.523 . S
C1694 C1678 1.368 . S
C1694 C1690 1.368 . S
C1694 C1693 1.523 . S
H1695 C1670 0.950 . S
H1696 C1672 0.950 . S
H1697 C1673 0.949 . S
H1698 C1675 0.950 . S
H1699 C1677 0.950 . S
C1700 C1701 1.350 . S
C1700 C1702 1.327 . S
C1700 H1725 0.950 . S
C1701 C1700 1.350 . S
C1701 C1717 1.348 1_565 S
C1702 C1700 1.327 . S
C1702 C1721 1.429 . S
C1702 H1726 0.950 . S
C1703 C1720 1.574 . S
C1703 C1722 1.368 1_545 S
C1703 H1727 0.949 . S
H1704 C1708 0.949 . S
C1705 C1706 1.349 1_545 S
C1705 C1707 1.327 . S
C1705 H1728 0.950 . S
C1706 C1705 1.349 1_565 S
C1706 C1718 1.349 . S
C1707 C1705 1.327 . S
C1707 C1723 1.429 1_545 S
C1707 H1729 0.950 . S
C1708 H1704 0.949 . S
C1708 C1716 1.574 . S
C1708 C1724 1.368 . S
H1709 C1717 0.950 . S
H1710 C1715 0.950 . S
H1711 C1716 0.949 . S
H1712 C1718 0.950 . S
H1713 C1719 0.950 . S
H1714 C1720 0.949 . S
C1715 H1710 0.950 . S
C1715 C1717 1.327 . S
C1715 C1721 1.429 1_545 S
C1716 C1708 1.574 . S
C1716 H1711 0.949 . S
C1716 C1722 1.368 . S
C1717 C1701 1.348 1_545 S
C1717 H1709 0.950 . S
C1717 C1715 1.327 . S
C1718 C1706 1.349 . S
C1718 H1712 0.950 . S
C1718 C1719 1.327 . S
C1719 H1713 0.950 . S
C1719 C1718 1.327 . S
C1719 C1723 1.429 . S
C1720 C1703 1.574 . S
C1720 H1714 0.949 . S
C1720 C1724 1.368 1_545 S
C1721 C1702 1.429 . S
C1721 C1715 1.429 1_565 S
C1721 C1722 1.523 . S
C1722 C1703 1.368 1_565 S
C1722 C1716 1.368 . S
C1722 C1721 1.523 . S
C1723 C1707 1.429 1_565 S
C1723 C1719 1.429 . S
C1723 C1724 1.523 . S
C1724 C1708 1.368 . S
C1724 C1720 1.368 1_565 S
C1724 C1723 1.523 . S
H1725 C1700 0.950 . S
H1726 C1702 0.950 . S
H1727 C1703 0.949 . S
H1728 C1705 0.950 . S
H1729 C1707 0.950 . S
C1730 C1731 1.349 . S
C1730 C1732 1.327 . S
C1730 H1755 0.950 . S
C1731 C1730 1.349 . S
C1731 C1747 1.349 . S
C1732 C1730 1.327 . S
C1732 C1751 1.429 . S
C1732 H1756 0.950 . S
C1733 C1750 1.574 . S
C1733 C1752 1.368 . S
C1733 H1757 0.949 . S
H1734 C1738 0.949 . S
C1735 C1736 1.349 . S
C1735 C1737 1.327 . S
C1735 H1758 0.950 . S
C1736 C1735 1.349 . S
C1736 C1748 1.349 . S
C1737 C1735 1.327 . S
C1737 C1753 1.429 . S
C1737 H1759 0.950 . S
C1738 H1734 0.949 . S
C1738 C1746 1.574 . S
C1738 C1754 1.368 . S
H1739 C1747 0.950 . S
H1740 C1745 0.950 . S
H1741 C1746 0.949 . S
H1742 C1748 0.950 . S
H1743 C1749 0.950 . S
H1744 C1750 0.949 . S
C1745 H1740 0.950 . S
C1745 C1747 1.327 . S
C1745 C1751 1.429 . S
C1746 C1738 1.574 . S
C1746 H1741 0.949 . S
C1746 C1752 1.368 . S
C1747 C1731 1.349 . S
C1747 H1739 0.950 . S
C1747 C1745 1.327 . S
C1748 C1736 1.349 . S
C1748 H1742 0.950 . S
C1748 C1749 1.327 . S
C1749 H1743 0.950 . S
C1749 C1748 1.327 . S
C1749 C1753 1.429 . S
C1750 C1733 1.574 . S
C1750 H1744 0.949 . S
C1750 C1754 1.368 . S
C1751 C1732 1.429 . S
C1751 C1745 1.429 . S
C1751 C1752 1.523 . S
C1752 C1733 1.368 . S
C1752 C1746 1.368 . S
C1752 C1751 1.523 . S
C1753 C1737 1.429 . S
C1753 C1749 1.429 . S
C1753 C1754 1.523 . S
C1754 C1738 1.368 . S
C1754 C1750 1.368 . S
C1754 C1753 1.523 . S
H1755 C1730 0.950 . S
H1756 C1732 0.950 . S
H1757 C1733 0.949 . S
H1758 C1735 0.950 . S
H1759 C1737 0.950 . S
C1760 C1761 1.349 . S
C1760 C1762 1.320 1_545 S
C1760 H1785 0.950 1_545 S
C1761 C1760 1.349 . S
C1761 C1777 1.349 . S
C1762 C1760 1.320 1_565 S
C1762 C1781 1.398 1_565 S
C1762 H1786 0.990 . S
C1763 C1780 1.574 . S
C1763 C1782 1.368 . S
C1763 H1787 0.949 . S
H1764 C1768 0.949 . S
C1765 C1766 1.349 1_545 S
C1765 C1767 1.327 . S
C1765 H1788 0.950 1_655 S
C1766 C1765 1.349 1_565 S
C1766 C1778 1.349 . S
C1767 C1765 1.327 . S
C1767 C1783 1.429 . S
C1767 H1789 0.950 . S
C1768 H1764 0.949 . S
C1768 C1776 1.574 . S
C1768 C1784 1.368 1_565 S
H1769 C1777 0.950 . S
H1770 C1775 0.950 . S
H1771 C1776 0.949 . S
H1772 C1778 0.950 . S
H1773 C1779 0.950 . S
H1774 C1780 0.949 . S
C1775 H1770 0.950 . S
C1775 C1777 1.327 . S
C1775 C1781 1.429 . S
C1776 C1768 1.574 . S
C1776 H1771 0.949 . S
C1776 C1782 1.368 1_565 S
C1777 C1761 1.349 . S
C1777 H1769 0.950 . S
C1777 C1775 1.327 . S
C1778 C1766 1.349 . S
C1778 H1772 0.950 . S
C1778 C1779 1.327 . S
C1779 H1773 0.950 . S
C1779 C1778 1.327 . S
C1779 C1783 1.429 1_565 S
C1780 C1763 1.574 . S
C1780 H1774 0.949 . S
C1780 C1784 1.368 . S
C1781 C1762 1.398 1_545 S
C1781 C1775 1.429 . S
C1781 C1782 1.523 . S
C1782 C1763 1.368 . S
C1782 C1776 1.368 1_545 S
C1782 C1781 1.523 . S
C1783 C1767 1.429 . S
C1783 C1779 1.429 1_545 S
C1783 C1784 1.523 . S
C1784 C1768 1.368 1_545 S
C1784 C1780 1.368 . S
C1784 C1783 1.523 . S
H1785 C1760 0.950 1_565 S
H1786 C1762 0.990 . S
H1787 C1763 0.949 . S
H1788 C1765 0.950 1_455 S
H1789 C1767 0.950 . S
C1790 C1791 1.349 . S
C1790 C1792 1.327 . S
C1790 H1815 0.950 . S
C1791 C1790 1.349 . S
C1791 C1807 1.349 . S
C1792 C1790 1.327 . S
C1792 C1811 1.429 . S
C1792 H1816 0.950 . S
C1793 C1810 1.574 . S
C1793 C1812 1.368 . S
C1793 H1817 0.949 . S
H1794 C1798 0.949 . S
C1795 C1796 1.349 . S
C1795 C1797 1.327 . S
C1795 H1818 0.950 . S
C1796 C1795 1.349 . S
C1796 C1808 1.349 . S
C1797 C1795 1.327 . S
C1797 C1813 1.429 . S
C1797 H1819 0.950 . S
C1798 H1794 0.949 . S
C1798 C1806 1.574 . S
C1798 C1814 1.368 . S
H1799 C1807 0.950 . S
H1800 C1805 0.950 . S
H1801 C1806 0.949 . S
H1802 C1808 0.950 . S
H1803 C1809 0.950 . S
H1804 C1810 0.949 . S
C1805 H1800 0.950 . S
C1805 C1807 1.327 . S
C1805 C1811 1.429 . S
C1806 C1798 1.574 . S
C1806 H1801 0.949 . S
C1806 C1812 1.368 . S
C1807 C1791 1.349 . S
C1807 H1799 0.950 . S
C1807 C1805 1.327 . S
C1808 C1796 1.349 . S
C1808 H1802 0.950 . S
C1808 C1809 1.327 . S
C1809 H1803 0.950 . S
C1809 C1808 1.327 . S
C1809 C1813 1.429 . S
C1810 C1793 1.574 . S
C1810 H1804 0.949 . S
C1810 C1814 1.368 . S
C1811 C1792 1.429 . S
C1811 C1805 1.429 . S
C1811 C1812 1.523 . S
C1812 C1793 1.368 . S
C1812 C1806 1.368 . S
C1812 C1811 1.523 . S
C1813 C1797 1.429 . S
C1813 C1809 1.429 . S
C1813 C1814 1.523 . S
C1814 C1798 1.368 . S
C1814 C1810 1.368 . S
C1814 C1813 1.523 . S
H1815 C1790 0.950 . S
H1816 C1792 0.950 . S
H1817 C1793 0.949 . S
H1818 C1795 0.950 . S
H1819 C1797 0.950 . S
C1820 C1821 1.349 1_565 S
C1820 C1822 1.327 . S
C1820 H1845 0.950 . S
C1821 C1820 1.349 1_545 S
C1821 C1837 1.349 . S
C1822 C1820 1.327 . S
C1822 C1841 1.429 1_565 S
C1822 H1846 0.950 . S
C1823 C1840 1.574 . S
C1823 C1842 1.368 . S
C1823 H1847 0.949 . S
H1824 C1828 0.980 . S
C1825 C1826 1.349 . S
C1825 C1827 1.327 . S
C1825 H1848 0.950 . S
C1826 C1825 1.349 . S
C1826 C1838 1.349 . S
C1827 C1825 1.327 . S
C1827 C1843 1.429 . S
C1827 H1849 0.950 . S
C1828 H1824 0.980 . S
C1828 C1836 1.581 . S
C1828 C1844 1.330 1_565 S
H1829 C1837 0.950 . S
H1830 C1835 0.950 . S
H1831 C1836 0.949 . S
H1832 C1838 0.950 1_565 S
H1833 C1839 0.950 1_565 S
H1834 C1840 0.949 . S
C1835 H1830 0.950 . S
C1835 C1837 1.327 . S
C1835 C1841 1.429 . S
C1836 C1828 1.581 . S
C1836 H1831 0.949 . S
C1836 C1842 1.368 1_565 S
C1837 C1821 1.349 . S
C1837 H1829 0.950 . S
C1837 C1835 1.327 . S
C1838 C1826 1.349 . S
C1838 H1832 0.950 1_545 S
C1838 C1839 1.327 . S
C1839 H1833 0.950 1_545 S
C1839 C1838 1.327 . S
C1839 C1843 1.429 . S
C1840 C1823 1.574 . S
C1840 H1834 0.949 . S
C1840 C1844 1.368 . S
C1841 C1822 1.429 1_545 S
C1841 C1835 1.429 . S
C1841 C1842 1.523 . S
C1842 C1823 1.368 . S
C1842 C1836 1.368 1_545 S
C1842 C1841 1.523 . S
C1843 C1827 1.429 . S
C1843 C1839 1.429 . S
C1843 C1844 1.523 . S
C1844 C1828 1.330 1_545 S
C1844 C1840 1.368 . S
C1844 C1843 1.523 . S
H1845 C1820 0.950 . S
H1846 C1822 0.950 . S
H1847 C1823 0.949 . S
H1848 C1825 0.950 . S
H1849 C1827 0.950 . S
C1850 C1851 1.349 . S
C1850 C1852 1.327 . S
C1850 H1875 0.950 . S
C1851 C1850 1.349 . S
C1851 C1867 1.349 . S
C1852 C1850 1.327 . S
C1852 C1871 1.429 . S
C1852 H1876 0.950 . S
C1853 C1870 1.574 . S
C1853 C1872 1.368 . S
C1853 H1877 0.949 . S
H1854 C1858 0.949 . S
C1855 C1856 1.349 . S
C1855 C1857 1.327 . S
C1855 H1878 0.950 . S
C1856 C1855 1.349 . S
C1856 C1868 1.349 . S
C1857 C1855 1.327 . S
C1857 C1873 1.429 . S
C1857 H1879 0.950 . S
C1858 H1854 0.949 . S
C1858 C1866 1.574 . S
C1858 C1874 1.368 . S
H1859 C1867 0.950 . S
H1860 C1865 0.950 . S
H1861 C1866 0.949 . S
H1862 C1868 0.950 . S
H1863 C1869 0.950 . S
H1864 C1870 0.949 . S
C1865 H1860 0.950 . S
C1865 C1867 1.327 . S
C1865 C1871 1.429 . S
C1866 C1858 1.574 . S
C1866 H1861 0.949 . S
C1866 C1872 1.368 . S
C1867 C1851 1.349 . S
C1867 H1859 0.950 . S
C1867 C1865 1.327 . S
C1868 C1856 1.349 . S
C1868 H1862 0.950 . S
C1868 C1869 1.327 . S
C1869 H1863 0.950 . S
C1869 C1868 1.327 . S
C1869 C1873 1.429 . S
C1870 C1853 1.574 . S
C1870 H1864 0.949 . S
C1870 C1874 1.368 . S
C1871 C1852 1.429 . S
C1871 C1865 1.429 . S
C1871 C1872 1.523 . S
C1872 C1853 1.368 . S
C1872 C1866 1.368 . S
C1872 C1871 1.523 . S
C1873 C1857 1.429 . S
C1873 C1869 1.429 . S
C1873 C1874 1.523 . S
C1874 C1858 1.368 . S
C1874 C1870 1.368 . S
C1874 C1873 1.523 . S
H1875 C1850 0.950 . S
H1876 C1852 0.950 . S
H1877 C1853 0.949 . S
H1878 C1855 0.950 . S
H1879 C1857 0.950 . S
C1880 C1881 1.349 1_556 S
C1880 C1882 1.327 . S
C1880 H1905 0.950 . S
C1881 C1880 1.349 1_554 S
C1881 C1897 1.349 . S
C1882 C1880 1.327 . S
C1882 C1901 1.429 1_556 S
C1882 H1906 0.950 . S
C1883 C1900 1.574 . S
C1883 C1902 1.368 . S
C1883 H1907 0.949 . S
H1884 C1888 0.949 1_556 S
C1885 C1886 1.349 . S
C1885 C1887 1.327 . S
C1885 H1908 0.950 . S
C1886 C1885 1.349 . S
C1886 C1898 1.349 . S
C1887 C1885 1.327 . S
C1887 C1903 1.429 . S
C1887 H1909 0.950 . S
C1888 H1884 0.949 1_554 S
C1888 C1896 1.574 . S
C1888 C1904 1.368 . S
H1889 C1897 0.950 . S
H1890 C1895 0.950 . S
H1891 C1896 0.948 1_556 S
H1892 C1898 0.950 . S
H1893 C1899 0.950 1_556 S
H1894 C1900 0.949 . S
C1895 H1890 0.950 . S
C1895 C1897 1.327 . S
C1895 C1901 1.429 . S
C1896 C1888 1.574 . S
C1896 H1891 0.948 1_554 S
C1896 C1902 1.369 . S
C1897 C1881 1.349 . S
C1897 H1889 0.950 . S
C1897 C1895 1.327 . S
C1898 C1886 1.349 . S
C1898 H1892 0.950 . S
C1898 C1899 1.327 . S
C1899 H1893 0.950 1_554 S
C1899 C1898 1.327 . S
C1899 C1903 1.429 . S
C1900 C1883 1.574 . S
C1900 H1894 0.949 . S
C1900 C1904 1.368 . S
C1901 C1882 1.429 1_554 S
C1901 C1895 1.429 . S
C1901 C1902 1.523 . S
C1902 C1883 1.368 . S
C1902 C1896 1.369 . S
C1902 C1901 1.523 . S
C1903 C1887 1.429 . S
C1903 C1899 1.429 . S
C1903 C1904 1.523 . S
C1904 C1888 1.368 . S
C1904 C1900 1.368 . S
C1904 C1903 1.523 . S
H1905 C1880 0.950 . S
H1906 C1882 0.950 . S
H1907 C1883 0.949 . S
H1908 C1885 0.950 . S
H1909 C1887 0.950 . S
C1910 C1911 1.349 1_556 S
C1910 C1912 1.327 . S
C1910 H1935 0.950 . S
C1911 C1910 1.349 1_554 S
C1911 C1927 1.349 . S
C1912 C1910 1.327 . S
C1912 C1931 1.429 . S
C1912 H1936 0.950 . S
C1913 C1930 1.574 . S
C1913 C1932 1.368 1_554 S
C1913 H1937 0.949 . S
H1914 C1918 0.949 . S
C1915 C1916 1.349 1_554 S
C1915 C1917 1.327 . S
C1915 H1938 0.950 . S
C1916 C1915 1.349 1_556 S
C1916 C1928 1.349 . S
C1917 C1915 1.327 . S
C1917 C1933 1.429 1_554 S
C1917 H1939 0.950 . S
C1918 H1914 0.949 . S
C1918 C1926 1.574 . S
C1918 C1934 1.368 . S
H1919 C1927 0.950 . S
H1920 C1925 0.950 . S
H1921 C1926 0.949 . S
H1922 C1928 0.950 . S
H1923 C1929 0.950 . S
H1924 C1930 0.949 . S
C1925 H1920 0.950 . S
C1925 C1927 1.327 . S
C1925 C1931 1.429 1_554 S
C1926 C1918 1.574 . S
C1926 H1921 0.949 . S
C1926 C1932 1.368 . S
C1927 C1911 1.349 . S
C1927 H1919 0.950 . S
C1927 C1925 1.327 . S
C1928 C1916 1.349 . S
C1928 H1922 0.950 . S
C1928 C1929 1.327 . S
C1929 H1923 0.950 . S
C1929 C1928 1.327 . S
C1929 C1933 1.429 . S
C1930 C1913 1.574 . S
C1930 H1924 0.949 . S
C1930 C1934 1.368 1_554 S
C1931 C1912 1.429 . S
C1931 C1925 1.429 1_556 S
C1931 C1932 1.523 . S
C1932 C1913 1.368 1_556 S
C1932 C1926 1.368 . S
C1932 C1931 1.523 . S
C1933 C1917 1.429 1_556 S
C1933 C1929 1.429 . S
C1933 C1934 1.523 . S
C1934 C1918 1.368 . S
C1934 C1930 1.368 1_556 S
C1934 C1933 1.523 . S
H1935 C1910 0.950 . S
H1936 C1912 0.950 . S
H1937 C1913 0.949 . S
H1938 C1915 0.950 . S
H1939 C1917 0.950 . S
C1940 C1941 1.349 . S
C1940 C1942 1.327 . S
C1940 H1965 0.950 . S
C1941 C1940 1.349 . S
C1941 C1957 1.349 . S
C1942 C1940 1.327 . S
C1942 C1961 1.429 . S
C1942 H1966 0.950 . S
C1943 C1960 1.574 . S
C1943 C1962 1.368 . S
C1943 H1967 0.949 . S
H1944 C1948 0.949 . S
C1945 C1946 1.349 . S
C1945 C1947 1.327 . S
C1945 H1968 0.950 . S
C1946 C1945 1.349 . S
C1946 C1958 1.349 . S
C1947 C1945 1.327 . S
C1947 C1963 1.429 . S
C1947 H1969 0.950 . S
C1948 H1944 0.949 . S
C1948 C1956 1.574 . S
C1948 C1964 1.368 . S
H1949 C1957 0.950 . S
H1950 C1955 0.950 . S
H1951 C1956 0.949 . S
H1952 C1958 0.950 . S
H1953 C1959 0.950 . S
H1954 C1960 0.949 . S
C1955 H1950 0.950 . S
C1955 C1957 1.327 . S
C1955 C1961 1.429 . S
C1956 C1948 1.574 . S
C1956 H1951 0.949 . S
C1956 C1962 1.368 . S
C1957 C1941 1.349 . S
C1957 H1949 0.950 . S
C1957 C1955 1.327 . S
C1958 C1946 1.349 . S
C1958 H1952 0.950 . S
C1958 C1959 1.327 . S
C1959 H1953 0.950 . S
C1959 C1958 1.327 . S
C1959 C1963 1.429 . S
C1960 C1943 1.574 . S
C1960 H1954 0.949 . S
C1960 C1964 1.368 . S
C1961 C1942 1.429 . S
C1961 C1955 1.429 . S
C1961 C1962 1.523 . S
C1962 C1943 1.368 . S
C1962 C1956 1.368 . S
C1962 C1961 1.523 . S
C1963 C1947 1.429 . S
C1963 C1959 1.429 . S
C1963 C1964 1.523 . S
C1964 C1948 1.368 . S
C1964 C1960 1.368 . S
C1964 C1963 1.523 . S
H1965 C1940 0.950 . S
H1966 C1942 0.950 . S
H1967 C1943 0.949 . S
H1968 C1945 0.950 . S
H1969 C1947 0.950 . S
C1970 C1971 1.349 . S
C1970 C1972 1.327 . S
C1970 H1995 0.950 . S
C1971 C1970 1.349 . S
C1971 C1987 1.349 . S
C1972 C1970 1.327 . S
C1972 C1991 1.429 . S
C1972 H1996 0.950 . S
C1973 C1990 1.574 . S
C1973 C1992 1.368 . S
C1973 H1997 0.949 . S
H1974 C1978 0.949 . S
C1975 C1976 1.349 . S
C1975 C1977 1.327 . S
C1975 H1998 0.950 . S
C1976 C1975 1.349 . S
C1976 C1988 1.349 . S
C1977 C1975 1.327 . S
C1977 C1993 1.429 . S
C1977 H1999 0.950 . S
C1978 H1974 0.949 . S
C1978 C1986 1.574 . S
C1978 C1994 1.368 . S
H1979 C1987 0.950 . S
H1980 C1985 0.950 . S
H1981 C1986 0.949 . S
H1982 C1988 0.950 . S
H1983 C1989 0.950 . S
H1984 C1990 0.949 . S
C1985 H1980 0.950 . S
C1985 C1987 1.327 . S
C1985 C1991 1.429 . S
C1986 C1978 1.574 . S
C1986 H1981 0.949 . S
C1986 C1992 1.368 . S
C1987 C1971 1.349 . S
C1987 H1979 0.950 . S
C1987 C1985 1.327 . S
C1988 C1976 1.349 . S
C1988 H1982 0.950 . S
C1988 C1989 1.327 . S
C1989 H1983 0.950 . S
C1989 C1988 1.327 . S
C1989 C1993 1.429 . S
C1990 C1973 1.574 . S
C1990 H1984 0.949 . S
C1990 C1994 1.368 . S
C1991 C1972 1.429 . S
C1991 C1985 1.429 . S
C1991 C1992 1.523 . S
C1992 C1973 1.368 . S
C1992 C1986 1.368 . S
C1992 C1991 1.523 . S
C1993 C1977 1.429 . S
C1993 C1989 1.429 . S
C1993 C1994 1.523 . S
C1994 C1978 1.368 . S
C1994 C1990 1.368 . S
C1994 C1993 1.523 . S
H1995 C1970 0.950 . S
H1996 C1972 0.950 . S
H1997 C1973 0.949 . S
H1998 C1975 0.950 . S
H1999 C1977 0.950 . S
C2000 C2001 1.349 . S
C2000 C2002 1.327 . S
C2000 H2025 0.950 . S
C2001 C2000 1.349 . S
C2001 C2017 1.349 . S
C2002 C2000 1.327 . S
C2002 C2021 1.429 . S
C2002 H2026 0.950 . S
C2003 C2020 1.574 . S
C2003 C2022 1.368 . S
C2003 H2027 0.949 . S
H2004 C2008 0.949 . S
C2005 C2006 1.349 . S
C2005 C2007 1.327 . S
C2005 H2028 0.950 . S
C2006 C2005 1.349 . S
C2006 C2018 1.349 . S
C2007 C2005 1.327 . S
C2007 C2023 1.429 . S
C2007 H2029 0.950 . S
C2008 H2004 0.949 . S
C2008 C2016 1.574 . S
C2008 C2024 1.368 . S
H2009 C2017 0.950 . S
H2010 C2015 0.950 . S
H2011 C2016 0.949 . S
H2012 C2018 0.950 . S
H2013 C2019 0.950 . S
H2014 C2020 0.949 . S
C2015 H2010 0.950 . S
C2015 C2017 1.327 . S
C2015 C2021 1.429 . S
C2016 C2008 1.574 . S
C2016 H2011 0.949 . S
C2016 C2022 1.368 . S
C2017 C2001 1.349 . S
C2017 H2009 0.950 . S
C2017 C2015 1.327 . S
C2018 C2006 1.349 . S
C2018 H2012 0.950 . S
C2018 C2019 1.327 . S
C2019 H2013 0.950 . S
C2019 C2018 1.327 . S
C2019 C2023 1.429 . S
C2020 C2003 1.574 . S
C2020 H2014 0.949 . S
C2020 C2024 1.368 . S
C2021 C2002 1.429 . S
C2021 C2015 1.429 . S
C2021 C2022 1.523 . S
C2022 C2003 1.368 . S
C2022 C2016 1.368 . S
C2022 C2021 1.523 . S
C2023 C2007 1.429 . S
C2023 C2019 1.429 . S
C2023 C2024 1.523 . S
C2024 C2008 1.368 . S
C2024 C2020 1.368 . S
C2024 C2023 1.523 . S
H2025 C2000 0.950 . S
H2026 C2002 0.950 . S
H2027 C2003 0.949 . S
H2028 C2005 0.950 . S
H2029 C2007 0.950 . S
C2030 C2031 1.349 . S
C2030 C2032 1.327 . S
C2030 H2055 0.950 . S
C2031 C2030 1.349 . S
C2031 C2047 1.349 . S
C2032 C2030 1.327 . S
C2032 C2051 1.429 . S
C2032 H2056 0.950 . S
C2033 C2050 1.574 . S
C2033 C2052 1.368 . S
C2033 H2057 0.949 . S
H2034 C2038 0.949 . S
C2035 C2036 1.349 . S
C2035 C2037 1.327 . S
C2035 H2058 0.950 . S
C2036 C2035 1.349 . S
C2036 C2048 1.349 . S
C2037 C2035 1.327 . S
C2037 C2053 1.429 . S
C2037 H2059 0.950 . S
C2038 H2034 0.949 . S
C2038 C2046 1.574 . S
C2038 C2054 1.368 . S
H2039 C2047 0.950 . S
H2040 C2045 0.950 . S
H2041 C2046 0.949 . S
H2042 C2048 0.950 . S
H2043 C2049 0.950 . S
H2044 C2050 0.949 . S
C2045 H2040 0.950 . S
C2045 C2047 1.327 . S
C2045 C2051 1.429 . S
C2046 C2038 1.574 . S
C2046 H2041 0.949 . S
C2046 C2052 1.368 . S
C2047 C2031 1.349 . S
C2047 H2039 0.950 . S
C2047 C2045 1.327 . S
C2048 C2036 1.349 . S
C2048 H2042 0.950 . S
C2048 C2049 1.327 . S
C2049 H2043 0.950 . S
C2049 C2048 1.327 . S
C2049 C2053 1.429 . S
C2050 C2033 1.574 . S
C2050 H2044 0.949 . S
C2050 C2054 1.368 . S
C2051 C2032 1.429 . S
C2051 C2045 1.429 . S
C2051 C2052 1.523 . S
C2052 C2033 1.368 . S
C2052 C2046 1.368 . S
C2052 C2051 1.523 . S
C2053 C2037 1.429 . S
C2053 C2049 1.429 . S
C2053 C2054 1.523 . S
C2054 C2038 1.368 . S
C2054 C2050 1.368 . S
C2054 C2053 1.523 . S
H2055 C2030 0.950 . S
H2056 C2032 0.950 . S
H2057 C2033 0.949 . S
H2058 C2035 0.950 . S
H2059 C2037 0.950 . S
C2060 C2061 1.349 . S
C2060 C2062 1.327 . S
C2060 H2085 0.950 . S
C2061 C2060 1.349 . S
C2061 C2077 1.349 . S
C2062 C2060 1.327 . S
C2062 C2081 1.429 . S
C2062 H2086 0.950 . S
C2063 C2080 1.574 . S
C2063 C2082 1.368 . S
C2063 H2087 0.949 . S
H2064 C2068 0.949 . S
C2065 C2066 1.349 . S
C2065 C2067 1.327 . S
C2065 H2088 0.950 . S
C2066 C2065 1.349 . S
C2066 C2078 1.349 . S
C2067 C2065 1.327 . S
C2067 C2083 1.429 . S
C2067 H2089 0.950 . S
C2068 H2064 0.949 . S
C2068 C2076 1.574 . S
C2068 C2084 1.368 . S
H2069 C2077 0.950 . S
H2070 C2075 0.950 . S
H2071 C2076 0.949 . S
H2072 C2078 0.950 . S
H2073 C2079 0.950 . S
H2074 C2080 0.949 . S
C2075 H2070 0.950 . S
C2075 C2077 1.327 . S
C2075 C2081 1.429 . S
C2076 C2068 1.574 . S
C2076 H2071 0.949 . S
C2076 C2082 1.368 . S
C2077 C2061 1.349 . S
C2077 H2069 0.950 . S
C2077 C2075 1.327 . S
C2078 C2066 1.349 . S
C2078 H2072 0.950 . S
C2078 C2079 1.327 . S
C2079 H2073 0.950 . S
C2079 C2078 1.327 . S
C2079 C2083 1.429 . S
C2080 C2063 1.574 . S
C2080 H2074 0.949 . S
C2080 C2084 1.368 . S
C2081 C2062 1.429 . S
C2081 C2075 1.429 . S
C2081 C2082 1.523 . S
C2082 C2063 1.368 . S
C2082 C2076 1.368 . S
C2082 C2081 1.523 . S
C2083 C2067 1.429 . S
C2083 C2079 1.429 . S
C2083 C2084 1.523 . S
C2084 C2068 1.368 . S
C2084 C2080 1.368 . S
C2084 C2083 1.523 . S
H2085 C2060 0.950 . S
H2086 C2062 0.950 . S
H2087 C2063 0.949 . S
H2088 C2065 0.950 . S
H2089 C2067 0.950 . S
C2090 C2091 1.349 . S
C2090 C2092 1.327 . S
C2090 H2115 0.950 . S
C2091 C2090 1.349 . S
C2091 C2107 1.349 . S
C2092 C2090 1.327 . S
C2092 C2111 1.429 . S
C2092 H2116 0.950 . S
C2093 C2110 1.574 . S
C2093 C2112 1.368 . S
C2093 H2117 0.949 . S
H2094 C2098 0.949 . S
C2095 C2096 1.349 . S
C2095 C2097 1.327 . S
C2095 H2118 0.950 . S
C2096 C2095 1.349 . S
C2096 C2108 1.349 . S
C2097 C2095 1.327 . S
C2097 C2113 1.429 . S
C2097 H2119 0.950 . S
C2098 H2094 0.949 . S
C2098 C2106 1.574 . S
C2098 C2114 1.368 . S
H2099 C2107 0.950 . S
H2100 C2105 0.950 . S
H2101 C2106 0.949 . S
H2102 C2108 0.950 . S
H2103 C2109 0.950 . S
H2104 C2110 0.949 . S
C2105 H2100 0.950 . S
C2105 C2107 1.327 . S
C2105 C2111 1.429 . S
C2106 C2098 1.574 . S
C2106 H2101 0.949 . S
C2106 C2112 1.368 . S
C2107 C2091 1.349 . S
C2107 H2099 0.950 . S
C2107 C2105 1.327 . S
C2108 C2096 1.349 . S
C2108 H2102 0.950 . S
C2108 C2109 1.327 . S
C2109 H2103 0.950 . S
C2109 C2108 1.327 . S
C2109 C2113 1.429 . S
C2110 C2093 1.574 . S
C2110 H2104 0.949 . S
C2110 C2114 1.368 . S
C2111 C2092 1.429 . S
C2111 C2105 1.429 . S
C2111 C2112 1.523 . S
C2112 C2093 1.368 . S
C2112 C2106 1.368 . S
C2112 C2111 1.523 . S
C2113 C2097 1.429 . S
C2113 C2109 1.429 . S
C2113 C2114 1.523 . S
C2114 C2098 1.368 . S
C2114 C2110 1.368 . S
C2114 C2113 1.523 . S
H2115 C2090 0.950 . S
H2116 C2092 0.950 . S
H2117 C2093 0.949 . S
H2118 C2095 0.950 . S
H2119 C2097 0.950 . S
C2120 C2121 1.349 . S
C2120 C2122 1.327 . S
C2120 H2145 0.950 . S
C2121 C2120 1.349 . S
C2121 C2137 1.349 . S
C2122 C2120 1.327 . S
C2122 C2141 1.429 . S
C2122 H2146 0.950 . S
C2123 C2140 1.574 . S
C2123 C2142 1.368 . S
C2123 H2147 0.949 . S
H2124 C2128 0.949 . S
C2125 C2126 1.349 . S
C2125 C2127 1.327 . S
C2125 H2148 0.950 . S
C2126 C2125 1.349 . S
C2126 C2138 1.349 . S
C2127 C2125 1.327 . S
C2127 C2143 1.429 . S
C2127 H2149 0.950 . S
C2128 H2124 0.949 . S
C2128 C2136 1.574 . S
C2128 C2144 1.368 . S
H2129 C2137 0.950 . S
H2130 C2135 0.950 . S
H2131 C2136 0.949 . S
H2132 C2138 0.950 . S
H2133 C2139 0.950 . S
H2134 C2140 0.949 . S
C2135 H2130 0.950 . S
C2135 C2137 1.327 . S
C2135 C2141 1.429 . S
C2136 C2128 1.574 . S
C2136 H2131 0.949 . S
C2136 C2142 1.368 . S
C2137 C2121 1.349 . S
C2137 H2129 0.950 . S
C2137 C2135 1.327 . S
C2138 C2126 1.349 . S
C2138 H2132 0.950 . S
C2138 C2139 1.327 . S
C2139 H2133 0.950 . S
C2139 C2138 1.327 . S
C2139 C2143 1.429 . S
C2140 C2123 1.574 . S
C2140 H2134 0.949 . S
C2140 C2144 1.368 . S
C2141 C2122 1.429 . S
C2141 C2135 1.429 . S
C2141 C2142 1.523 . S
C2142 C2123 1.368 . S
C2142 C2136 1.368 . S
C2142 C2141 1.523 . S
C2143 C2127 1.429 . S
C2143 C2139 1.429 . S
C2143 C2144 1.523 . S
C2144 C2128 1.368 . S
C2144 C2140 1.368 . S
C2144 C2143 1.523 . S
H2145 C2120 0.950 . S
H2146 C2122 0.950 . S
H2147 C2123 0.949 . S
H2148 C2125 0.950 . S
H2149 C2127 0.950 . S
C2150 C2151 1.349 . S
C2150 C2152 1.327 . S
C2150 H2175 0.950 . S
C2151 C2150 1.349 . S
C2151 C2167 1.349 . S
C2152 C2150 1.327 . S
C2152 C2171 1.429 . S
C2152 H2176 0.950 . S
C2153 C2170 1.574 . S
C2153 C2172 1.368 . S
C2153 H2177 0.949 . S
H2154 C2158 0.949 . S
C2155 C2156 1.349 . S
C2155 C2157 1.327 . S
C2155 H2178 0.950 . S
C2156 C2155 1.349 . S
C2156 C2168 1.349 . S
C2157 C2155 1.327 . S
C2157 C2173 1.429 . S
C2157 H2179 0.950 . S
C2158 H2154 0.949 . S
C2158 C2166 1.574 . S
C2158 C2174 1.368 . S
H2159 C2167 0.950 . S
H2160 C2165 0.950 . S
H2161 C2166 0.949 . S
H2162 C2168 0.950 . S
H2163 C2169 0.950 . S
H2164 C2170 0.949 . S
C2165 H2160 0.950 . S
C2165 C2167 1.327 . S
C2165 C2171 1.429 . S
C2166 C2158 1.574 . S
C2166 H2161 0.949 . S
C2166 C2172 1.368 . S
C2167 C2151 1.349 . S
C2167 H2159 0.950 . S
C2167 C2165 1.327 . S
C2168 C2156 1.349 . S
C2168 H2162 0.950 . S
C2168 C2169 1.327 . S
C2169 H2163 0.950 . S
C2169 C2168 1.327 . S
C2169 C2173 1.429 . S
C2170 C2153 1.574 . S
C2170 H2164 0.949 . S
C2170 C2174 1.368 . S
C2171 C2152 1.429 . S
C2171 C2165 1.429 . S
C2171 C2172 1.523 . S
C2172 C2153 1.368 . S
C2172 C2166 1.368 . S
C2172 C2171 1.523 . S
C2173 C2157 1.429 . S
C2173 C2169 1.429 . S
C2173 C2174 1.523 . S
C2174 C2158 1.368 . S
C2174 C2170 1.368 . S
C2174 C2173 1.523 . S
H2175 C2150 0.950 . S
H2176 C2152 0.950 . S
H2177 C2153 0.949 . S
H2178 C2155 0.950 . S
H2179 C2157 0.950 . S
C2180 C2181 1.349 . S
C2180 C2182 1.327 . S
C2180 H2205 0.950 . S
C2181 C2180 1.349 . S
C2181 C2197 1.349 1_455 S
C2182 C2180 1.327 . S
C2182 C2201 1.429 . S
C2182 H2206 0.950 . S
C2183 C2200 1.574 . S
C2183 C2202 1.368 . S
C2183 H2207 0.949 1_455 S
H2184 C2188 0.949 . S
C2185 C2186 1.349 . S
C2185 C2187 1.327 . S
C2185 H2208 0.950 . S
C2186 C2185 1.349 . S
C2186 C2198 1.349 . S
C2187 C2185 1.327 . S
C2187 C2203 1.429 . S
C2187 H2209 0.968 . S
C2188 H2184 0.949 . S
C2188 C2196 1.574 . S
C2188 C2204 1.368 . S
H2189 C2197 0.950 . S
H2190 C2195 0.950 . S
H2191 C2196 0.949 . S
H2192 C2198 0.950 . S
H2193 C2199 0.950 . S
H2194 C2200 0.949 1_655 S
C2195 H2190 0.950 . S
C2195 C2197 1.327 . S
C2195 C2201 1.429 1_655 S
C2196 C2188 1.574 . S
C2196 H2191 0.949 . S
C2196 C2202 1.368 . S
C2197 C2181 1.349 1_655 S
C2197 H2189 0.950 . S
C2197 C2195 1.327 . S
C2198 C2186 1.349 . S
C2198 H2192 0.950 . S
C2198 C2199 1.327 . S
C2199 H2193 0.950 . S
C2199 C2198 1.327 . S
C2199 C2203 1.429 . S
C2200 C2183 1.574 . S
C2200 H2194 0.949 1_455 S
C2200 C2204 1.368 . S
C2201 C2182 1.429 . S
C2201 C2195 1.429 1_455 S
C2201 C2202 1.523 . S
C2202 C2183 1.368 . S
C2202 C2196 1.368 . S
C2202 C2201 1.523 . S
C2203 C2187 1.429 . S
C2203 C2199 1.429 . S
C2203 C2204 1.523 . S
C2204 C2188 1.368 . S
C2204 C2200 1.368 . S
C2204 C2203 1.523 . S
H2205 C2180 0.950 . S
H2206 C2182 0.950 . S
H2207 C2183 0.949 1_655 S
H2208 C2185 0.950 . S
H2209 C2187 0.968 . S
C2210 C2211 1.349 . S
C2210 C2212 1.327 . S
C2210 H2235 0.950 . S
C2211 C2210 1.349 . S
C2211 C2227 1.349 . S
C2212 C2210 1.327 . S
C2212 C2231 1.429 . S
C2212 H2236 0.950 . S
C2213 C2230 1.574 . S
C2213 C2232 1.368 . S
C2213 H2237 0.949 . S
H2214 C2218 0.949 . S
C2215 C2216 1.349 . S
C2215 C2217 1.327 . S
C2215 H2238 0.950 . S
C2216 C2215 1.349 . S
C2216 C2228 1.349 . S
C2217 C2215 1.327 . S
C2217 C2233 1.429 . S
C2217 H2239 0.950 . S
C2218 H2214 0.949 . S
C2218 C2226 1.574 . S
C2218 C2234 1.368 . S
H2219 C2227 0.950 . S
H2220 C2225 0.950 . S
H2221 C2226 0.949 . S
H2222 C2228 0.950 . S
H2223 C2229 0.950 . S
H2224 C2230 0.949 . S
C2225 H2220 0.950 . S
C2225 C2227 1.327 . S
C2225 C2231 1.429 . S
C2226 C2218 1.574 . S
C2226 H2221 0.949 . S
C2226 C2232 1.368 . S
C2227 C2211 1.349 . S
C2227 H2219 0.950 . S
C2227 C2225 1.327 . S
C2228 C2216 1.349 . S
C2228 H2222 0.950 . S
C2228 C2229 1.327 . S
C2229 H2223 0.950 . S
C2229 C2228 1.327 . S
C2229 C2233 1.429 . S
C2230 C2213 1.574 . S
C2230 H2224 0.949 . S
C2230 C2234 1.368 . S
C2231 C2212 1.429 . S
C2231 C2225 1.429 . S
C2231 C2232 1.523 . S
C2232 C2213 1.368 . S
C2232 C2226 1.368 . S
C2232 C2231 1.523 . S
C2233 C2217 1.429 . S
C2233 C2229 1.429 . S
C2233 C2234 1.523 . S
C2234 C2218 1.368 . S
C2234 C2230 1.368 . S
C2234 C2233 1.523 . S
H2235 C2210 0.950 . S
H2236 C2212 0.950 . S
H2237 C2213 0.949 . S
H2238 C2215 0.950 . S
H2239 C2217 0.950 . S
C2240 C2241 1.349 . S
C2240 C2242 1.327 . S
C2240 H2265 0.950 . S
C2241 C2240 1.349 . S
C2241 C2257 1.349 . S
C2242 C2240 1.327 . S
C2242 C2261 1.429 . S
C2242 H2266 0.950 . S
C2243 C2260 1.574 . S
C2243 C2262 1.368 . S
C2243 H2267 0.949 . S
H2244 C2248 0.949 . S
C2245 C2246 1.346 . S
C2245 C2247 1.313 1_554 S
C2245 H2268 0.950 . S
C2246 C2245 1.346 . S
C2246 C2258 1.355 1_554 S
C2247 C2245 1.313 1_556 S
C2247 C2263 1.456 . S
C2247 H2269 0.936 1_556 S
C2248 H2244 0.949 . S
C2248 C2256 1.574 . S
C2248 C2264 1.368 . S
H2249 C2257 0.950 . S
H2250 C2255 0.950 . S
H2251 C2256 0.949 . S
H2252 C2258 0.950 . S
H2253 C2259 0.950 . S
H2254 C2260 0.949 . S
C2255 H2250 0.950 . S
C2255 C2257 1.327 . S
C2255 C2261 1.429 . S
C2256 C2248 1.574 . S
C2256 H2251 0.949 . S
C2256 C2262 1.368 . S
C2257 C2241 1.349 . S
C2257 H2249 0.950 . S
C2257 C2255 1.327 . S
C2258 C2246 1.355 1_556 S
C2258 H2252 0.950 . S
C2258 C2259 1.327 . S
C2259 H2253 0.950 . S
C2259 C2258 1.327 . S
C2259 C2263 1.429 . S
C2260 C2243 1.574 . S
C2260 H2254 0.949 . S
C2260 C2264 1.368 . S
C2261 C2242 1.429 . S
C2261 C2255 1.429 . S
C2261 C2262 1.523 . S
C2262 C2243 1.368 . S
C2262 C2256 1.368 . S
C2262 C2261 1.523 . S
C2263 C2247 1.456 . S
C2263 C2259 1.429 . S
C2263 C2264 1.523 . S
C2264 C2248 1.368 . S
C2264 C2260 1.368 . S
C2264 C2263 1.523 . S
H2265 C2240 0.950 . S
H2266 C2242 0.950 . S
H2267 C2243 0.949 . S
H2268 C2245 0.950 . S
H2269 C2247 0.936 1_554 S
C2270 C2271 1.349 . S
C2270 C2272 1.327 . S
C2270 H2295 0.950 . S
C2271 C2270 1.349 . S
C2271 C2287 1.349 . S
C2272 C2270 1.327 . S
C2272 C2291 1.429 . S
C2272 H2296 0.950 . S
C2273 C2290 1.574 . S
C2273 C2292 1.368 . S
C2273 H2297 0.949 . S
H2274 C2278 0.949 . S
C2275 C2276 1.349 . S
C2275 C2277 1.327 . S
C2275 H2298 0.950 . S
C2276 C2275 1.349 . S
C2276 C2288 1.349 . S
C2277 C2275 1.327 . S
C2277 C2293 1.429 . S
C2277 H2299 0.950 . S
C2278 H2274 0.949 . S
C2278 C2286 1.574 . S
C2278 C2294 1.368 . S
H2279 C2287 0.950 . S
H2280 C2285 0.950 . S
H2281 C2286 0.949 . S
H2282 C2288 0.950 . S
H2283 C2289 0.950 . S
H2284 C2290 0.949 . S
C2285 H2280 0.950 . S
C2285 C2287 1.327 . S
C2285 C2291 1.429 . S
C2286 C2278 1.574 . S
C2286 H2281 0.949 . S
C2286 C2292 1.368 . S
C2287 C2271 1.349 . S
C2287 H2279 0.950 . S
C2287 C2285 1.327 . S
C2288 C2276 1.349 . S
C2288 H2282 0.950 . S
C2288 C2289 1.327 . S
C2289 H2283 0.950 . S
C2289 C2288 1.327 . S
C2289 C2293 1.429 . S
C2290 C2273 1.574 . S
C2290 H2284 0.949 . S
C2290 C2294 1.368 . S
C2291 C2272 1.429 . S
C2291 C2285 1.429 . S
C2291 C2292 1.523 . S
C2292 C2273 1.368 . S
C2292 C2286 1.368 . S
C2292 C2291 1.523 . S
C2293 C2277 1.429 . S
C2293 C2289 1.429 . S
C2293 C2294 1.523 . S
C2294 C2278 1.368 . S
C2294 C2290 1.368 . S
C2294 C2293 1.523 . S
H2295 C2270 0.950 . S
H2296 C2272 0.950 . S
H2297 C2273 0.949 . S
H2298 C2275 0.950 . S
H2299 C2277 0.950 . S
C2300 C2301 1.349 1_655 S
C2300 C2302 1.327 . S
C2300 H2325 0.950 . S
C2301 C2300 1.349 1_455 S
C2301 C2317 1.349 . S
C2302 C2300 1.327 . S
C2302 C2321 1.429 1_655 S
C2302 H2326 0.950 . S
C2303 C2320 1.574 . S
C2303 C2322 1.368 . S
C2303 H2327 0.949 . S
H2304 C2308 0.941 1_655 S
C2305 C2306 1.349 . S
C2305 C2307 1.327 . S
C2305 H2328 0.950 . S
C2306 C2305 1.349 . S
C2306 C2318 1.349 . S
C2307 C2305 1.327 . S
C2307 C2323 1.429 . S
C2307 H2329 0.950 . S
C2308 H2304 0.941 1_455 S
C2308 C2316 1.572 1_455 S
C2308 C2324 1.379 . S
H2309 C2317 0.950 . S
H2310 C2315 0.950 . S
H2311 C2316 0.949 . S
H2312 C2318 0.950 1_655 S
H2313 C2319 0.950 1_655 S
H2314 C2320 0.949 . S
C2315 H2310 0.950 . S
C2315 C2317 1.327 . S
C2315 C2321 1.429 . S
C2316 C2308 1.572 1_655 S
C2316 H2311 0.949 . S
C2316 C2322 1.368 1_655 S
C2317 C2301 1.349 . S
C2317 H2309 0.950 . S
C2317 C2315 1.327 . S
C2318 C2306 1.349 . S
C2318 H2312 0.950 1_455 S
C2318 C2319 1.327 . S
C2319 H2313 0.950 1_455 S
C2319 C2318 1.327 . S
C2319 C2323 1.429 . S
C2320 C2303 1.574 . S
C2320 H2314 0.949 . S
C2320 C2324 1.368 . S
C2321 C2302 1.429 1_455 S
C2321 C2315 1.429 . S
C2321 C2322 1.523 . S
C2322 C2303 1.368 . S
C2322 C2316 1.368 1_455 S
C2322 C2321 1.523 . S
C2323 C2307 1.429 . S
C2323 C2319 1.429 . S
C2323 C2324 1.523 . S
C2324 C2308 1.379 . S
C2324 C2320 1.368 . S
C2324 C2323 1.523 . S
H2325 C2300 0.950 . S
H2326 C2302 0.950 . S
H2327 C2303 0.949 . S
H2328 C2305 0.950 . S
H2329 C2307 0.950 . S
C2330 C2331 1.349 . S
C2330 C2332 1.327 . S
C2330 H2355 0.950 . S
C2331 C2330 1.349 . S
C2331 C2347 1.349 . S
C2332 C2330 1.327 . S
C2332 C2351 1.429 . S
C2332 H2356 0.950 . S
C2333 C2350 1.574 . S
C2333 C2352 1.368 . S
C2333 H2357 0.949 . S
H2334 C2338 0.949 . S
C2335 C2336 1.349 . S
C2335 C2337 1.327 . S
C2335 H2358 0.950 . S
C2336 C2335 1.349 . S
C2336 C2348 1.349 . S
C2337 C2335 1.327 . S
C2337 C2353 1.429 . S
C2337 H2359 0.950 . S
C2338 H2334 0.949 . S
C2338 C2346 1.574 . S
C2338 C2354 1.368 . S
H2339 C2347 0.950 . S
H2340 C2345 0.950 . S
H2341 C2346 0.949 . S
H2342 C2348 0.950 . S
H2343 C2349 0.950 . S
H2344 C2350 0.949 . S
C2345 H2340 0.950 . S
C2345 C2347 1.327 . S
C2345 C2351 1.429 . S
C2346 C2338 1.574 . S
C2346 H2341 0.949 . S
C2346 C2352 1.368 . S
C2347 C2331 1.349 . S
C2347 H2339 0.950 . S
C2347 C2345 1.327 . S
C2348 C2336 1.349 . S
C2348 H2342 0.950 . S
C2348 C2349 1.327 . S
C2349 H2343 0.950 . S
C2349 C2348 1.327 . S
C2349 C2353 1.429 . S
C2350 C2333 1.574 . S
C2350 H2344 0.949 . S
C2350 C2354 1.368 . S
C2351 C2332 1.429 . S
C2351 C2345 1.429 . S
C2351 C2352 1.523 . S
C2352 C2333 1.368 . S
C2352 C2346 1.368 . S
C2352 C2351 1.523 . S
C2353 C2337 1.429 . S
C2353 C2349 1.429 . S
C2353 C2354 1.523 . S
C2354 C2338 1.368 . S
C2354 C2350 1.368 . S
C2354 C2353 1.523 . S
H2355 C2330 0.950 . S
H2356 C2332 0.950 . S
H2357 C2333 0.949 . S
H2358 C2335 0.950 . S
H2359 C2337 0.950 . S
C2360 C2361 1.349 . S
C2360 C2362 1.327 . S
C2360 H2385 0.950 . S
C2361 C2360 1.349 . S
C2361 C2377 1.349 . S
C2362 C2360 1.327 . S
C2362 C2381 1.429 . S
C2362 H2386 0.950 . S
C2363 C2380 1.574 . S
C2363 C2382 1.368 . S
C2363 H2387 0.949 . S
H2364 C2368 0.949 . S
C2365 C2366 1.349 . S
C2365 C2367 1.327 . S
C2365 H2388 0.950 . S
C2366 C2365 1.349 . S
C2366 C2378 1.349 . S
C2367 C2365 1.327 . S
C2367 C2383 1.429 . S
C2367 H2389 0.950 . S
C2368 H2364 0.949 . S
C2368 C2376 1.574 . S
C2368 C2384 1.368 . S
H2369 C2377 0.950 . S
H2370 C2375 0.950 . S
H2371 C2376 0.949 . S
H2372 C2378 0.950 . S
H2373 C2379 0.950 . S
H2374 C2380 0.949 . S
C2375 H2370 0.950 . S
C2375 C2377 1.327 . S
C2375 C2381 1.429 . S
C2376 C2368 1.574 . S
C2376 H2371 0.949 . S
C2376 C2382 1.368 . S
C2377 C2361 1.349 . S
C2377 H2369 0.950 . S
C2377 C2375 1.327 . S
C2378 C2366 1.349 . S
C2378 H2372 0.950 . S
C2378 C2379 1.327 . S
C2379 H2373 0.950 . S
C2379 C2378 1.327 . S
C2379 C2383 1.429 . S
C2380 C2363 1.574 . S
C2380 H2374 0.949 . S
C2380 C2384 1.368 . S
C2381 C2362 1.429 . S
C2381 C2375 1.429 . S
C2381 C2382 1.523 . S
C2382 C2363 1.368 . S
C2382 C2376 1.368 . S
C2382 C2381 1.523 . S
C2383 C2367 1.429 . S
C2383 C2379 1.429 . S
C2383 C2384 1.523 . S
C2384 C2368 1.368 . S
C2384 C2380 1.368 . S
C2384 C2383 1.523 . S
H2385 C2360 0.950 . S
H2386 C2362 0.950 . S
H2387 C2363 0.949 . S
H2388 C2365 0.950 . S
H2389 C2367 0.950 . S
C2390 C2391 1.349 . S
C2390 C2392 1.327 . S
C2390 H2415 0.950 . S
C2391 C2390 1.349 . S
C2391 C2407 1.349 . S
C2392 C2390 1.327 . S
C2392 C2411 1.429 . S
C2392 H2416 0.950 . S
C2393 C2410 1.574 . S
C2393 C2412 1.368 . S
C2393 H2417 0.949 . S
H2394 C2398 0.949 . S
C2395 C2396 1.349 . S
C2395 C2397 1.327 . S
C2395 H2418 0.950 . S
C2396 C2395 1.349 . S
C2396 C2408 1.349 . S
C2397 C2395 1.327 . S
C2397 C2413 1.429 . S
C2397 H2419 0.950 . S
C2398 H2394 0.949 . S
C2398 C2406 1.574 . S
C2398 C2414 1.368 . S
H2399 C2407 0.950 . S
H2400 C2405 0.950 . S
H2401 C2406 0.949 . S
H2402 C2408 0.950 . S
H2403 C2409 0.950 . S
H2404 C2410 0.949 . S
C2405 H2400 0.950 . S
C2405 C2407 1.327 . S
C2405 C2411 1.429 . S
C2406 C2398 1.574 . S
C2406 H2401 0.949 . S
C2406 C2412 1.368 . S
C2407 C2391 1.349 . S
C2407 H2399 0.950 . S
C2407 C2405 1.327 . S
C2408 C2396 1.349 . S
C2408 H2402 0.950 . S
C2408 C2409 1.327 . S
C2409 H2403 0.950 . S
C2409 C2408 1.327 . S
C2409 C2413 1.429 . S
C2410 C2393 1.574 . S
C2410 H2404 0.949 . S
C2410 C2414 1.368 . S
C2411 C2392 1.429 . S
C2411 C2405 1.429 . S
C2411 C2412 1.523 . S
C2412 C2393 1.368 . S
C2412 C2406 1.368 . S
C2412 C2411 1.523 . S
C2413 C2397 1.429 . S
C2413 C2409 1.429 . S
C2413 C2414 1.523 . S
C2414 C2398 1.368 . S
C2414 C2410 1.368 . S
C2414 C2413 1.523 . S
H2415 C2390 0.950 . S
H2416 C2392 0.950 . S
H2417 C2393 0.949 . S
H2418 C2395 0.950 . S
H2419 C2397 0.950 . S
C2420 C2421 1.349 . S
C2420 C2422 1.327 . S
C2420 H2445 0.950 . S
C2421 C2420 1.349 . S
C2421 C2437 1.349 . S
C2422 C2420 1.327 . S
C2422 C2441 1.429 . S
C2422 H2446 0.950 . S
C2423 C2440 1.574 . S
C2423 C2442 1.368 . S
C2423 H2447 0.949 . S
H2424 C2428 0.949 . S
C2425 C2426 1.349 . S
C2425 C2427 1.327 . S
C2425 H2448 0.949 . S
C2426 C2425 1.349 . S
C2426 C2438 1.349 . S
C2427 C2425 1.327 . S
C2427 C2443 1.429 . S
C2427 H2449 0.950 . S
C2428 H2424 0.949 . S
C2428 C2436 1.574 . S
C2428 C2444 1.368 . S
H2429 C2437 0.950 . S
H2430 C2435 0.950 . S
H2431 C2436 0.949 . S
H2432 C2438 0.950 . S
H2433 C2439 0.950 . S
H2434 C2440 0.949 . S
C2435 H2430 0.950 . S
C2435 C2437 1.327 . S
C2435 C2441 1.429 . S
C2436 C2428 1.574 . S
C2436 H2431 0.949 . S
C2436 C2442 1.368 . S
C2437 C2421 1.349 . S
C2437 H2429 0.950 . S
C2437 C2435 1.327 . S
C2438 C2426 1.349 . S
C2438 H2432 0.950 . S
C2438 C2439 1.327 . S
C2439 H2433 0.950 . S
C2439 C2438 1.327 . S
C2439 C2443 1.429 . S
C2440 C2423 1.574 . S
C2440 H2434 0.949 . S
C2440 C2444 1.368 . S
C2441 C2422 1.429 . S
C2441 C2435 1.429 . S
C2441 C2442 1.523 . S
C2442 C2423 1.368 . S
C2442 C2436 1.368 . S
C2442 C2441 1.523 . S
C2443 C2427 1.429 . S
C2443 C2439 1.429 . S
C2443 C2444 1.523 . S
C2444 C2428 1.368 . S
C2444 C2440 1.368 . S
C2444 C2443 1.523 . S
H2445 C2420 0.950 . S
H2446 C2422 0.950 . S
H2447 C2423 0.949 . S
H2448 C2425 0.949 . S
H2449 C2427 0.950 . S
C2450 C2451 1.349 . S
C2450 C2452 1.327 . S
C2450 H2475 0.950 . S
C2451 C2450 1.349 . S
C2451 C2467 1.349 . S
C2452 C2450 1.327 . S
C2452 C2471 1.429 . S
C2452 H2476 0.950 . S
C2453 C2470 1.574 . S
C2453 C2472 1.368 . S
C2453 H2477 0.949 . S
H2454 C2458 0.949 . S
C2455 C2456 1.349 . S
C2455 C2457 1.327 . S
C2455 H2478 0.950 . S
C2456 C2455 1.349 . S
C2456 C2468 1.349 . S
C2457 C2455 1.327 . S
C2457 C2473 1.429 . S
C2457 H2479 0.950 . S
C2458 H2454 0.949 . S
C2458 C2466 1.574 . S
C2458 C2474 1.368 . S
H2459 C2467 0.950 . S
H2460 C2465 0.950 . S
H2461 C2466 0.949 . S
H2462 C2468 0.950 . S
H2463 C2469 0.950 . S
H2464 C2470 0.949 . S
C2465 H2460 0.950 . S
C2465 C2467 1.327 . S
C2465 C2471 1.429 . S
C2466 C2458 1.574 . S
C2466 H2461 0.949 . S
C2466 C2472 1.368 . S
C2467 C2451 1.349 . S
C2467 H2459 0.950 . S
C2467 C2465 1.327 . S
C2468 C2456 1.349 . S
C2468 H2462 0.950 . S
C2468 C2469 1.327 . S
C2469 H2463 0.950 . S
C2469 C2468 1.327 . S
C2469 C2473 1.429 . S
C2470 C2453 1.574 . S
C2470 H2464 0.949 . S
C2470 C2474 1.368 . S
C2471 C2452 1.429 . S
C2471 C2465 1.429 . S
C2471 C2472 1.523 . S
C2472 C2453 1.368 . S
C2472 C2466 1.368 . S
C2472 C2471 1.523 . S
C2473 C2457 1.429 . S
C2473 C2469 1.429 . S
C2473 C2474 1.523 . S
C2474 C2458 1.368 . S
C2474 C2470 1.368 . S
C2474 C2473 1.523 . S
H2475 C2450 0.950 . S
H2476 C2452 0.950 . S
H2477 C2453 0.949 . S
H2478 C2455 0.950 . S
H2479 C2457 0.950 . S
C2480 C2481 1.349 . S
C2480 C2482 1.327 . S
C2480 H2505 0.950 . S
C2481 C2480 1.349 . S
C2481 C2497 1.349 . S
C2482 C2480 1.327 . S
C2482 C2501 1.429 . S
C2482 H2506 0.950 . S
C2483 C2500 1.574 . S
C2483 C2502 1.368 . S
C2483 H2507 0.949 . S
H2484 C2488 0.949 . S
C2485 C2486 1.349 . S
C2485 C2487 1.327 . S
C2485 H2508 0.950 . S
C2486 C2485 1.349 . S
C2486 C2498 1.349 . S
C2487 C2485 1.327 . S
C2487 C2503 1.429 . S
C2487 H2509 0.950 . S
C2488 H2484 0.949 . S
C2488 C2496 1.574 . S
C2488 C2504 1.368 . S
H2489 C2497 0.950 . S
H2490 C2495 0.950 . S
H2491 C2496 0.949 . S
H2492 C2498 0.950 . S
H2493 C2499 0.950 . S
H2494 C2500 0.949 . S
C2495 H2490 0.950 . S
C2495 C2497 1.327 . S
C2495 C2501 1.429 . S
C2496 C2488 1.574 . S
C2496 H2491 0.949 . S
C2496 C2502 1.368 . S
C2497 C2481 1.349 . S
C2497 H2489 0.950 . S
C2497 C2495 1.327 . S
C2498 C2486 1.349 . S
C2498 H2492 0.950 . S
C2498 C2499 1.327 . S
C2499 H2493 0.950 . S
C2499 C2498 1.327 . S
C2499 C2503 1.429 . S
C2500 C2483 1.574 . S
C2500 H2494 0.949 . S
C2500 C2504 1.368 . S
C2501 C2482 1.429 . S
C2501 C2495 1.429 . S
C2501 C2502 1.523 . S
C2502 C2483 1.368 . S
C2502 C2496 1.368 . S
C2502 C2501 1.523 . S
C2503 C2487 1.429 . S
C2503 C2499 1.429 . S
C2503 C2504 1.523 . S
C2504 C2488 1.368 . S
C2504 C2500 1.368 . S
C2504 C2503 1.523 . S
H2505 C2480 0.950 . S
H2506 C2482 0.950 . S
H2507 C2483 0.949 . S
H2508 C2485 0.950 . S
H2509 C2487 0.950 . S
C2510 C2511 1.349 . S
C2510 C2512 1.327 . S
C2510 H2535 0.950 . S
C2511 C2510 1.349 . S
C2511 C2527 1.349 . S
C2512 C2510 1.327 . S
C2512 C2531 1.429 . S
C2512 H2536 0.950 . S
C2513 C2530 1.574 . S
C2513 C2532 1.368 . S
C2513 H2537 0.949 . S
H2514 C2518 0.949 . S
C2515 C2516 1.349 . S
C2515 C2517 1.327 . S
C2515 H2538 0.950 . S
C2516 C2515 1.349 . S
C2516 C2528 1.349 . S
C2517 C2515 1.327 . S
C2517 C2533 1.429 . S
C2517 H2539 0.950 . S
C2518 H2514 0.949 . S
C2518 C2526 1.574 . S
C2518 C2534 1.368 . S
H2519 C2527 0.950 . S
H2520 C2525 0.950 . S
H2521 C2526 0.949 . S
H2522 C2528 0.950 . S
H2523 C2529 0.950 . S
H2524 C2530 0.949 . S
C2525 H2520 0.950 . S
C2525 C2527 1.327 . S
C2525 C2531 1.429 . S
C2526 C2518 1.574 . S
C2526 H2521 0.949 . S
C2526 C2532 1.368 . S
C2527 C2511 1.349 . S
C2527 H2519 0.950 . S
C2527 C2525 1.327 . S
C2528 C2516 1.349 . S
C2528 H2522 0.950 . S
C2528 C2529 1.327 . S
C2529 H2523 0.950 . S
C2529 C2528 1.327 . S
C2529 C2533 1.429 . S
C2530 C2513 1.574 . S
C2530 H2524 0.949 . S
C2530 C2534 1.368 . S
C2531 C2512 1.429 . S
C2531 C2525 1.429 . S
C2531 C2532 1.523 . S
C2532 C2513 1.368 . S
C2532 C2526 1.368 . S
C2532 C2531 1.523 . S
C2533 C2517 1.429 . S
C2533 C2529 1.429 . S
C2533 C2534 1.523 . S
C2534 C2518 1.368 . S
C2534 C2530 1.368 . S
C2534 C2533 1.523 . S
H2535 C2510 0.950 . S
H2536 C2512 0.950 . S
H2537 C2513 0.949 . S
H2538 C2515 0.950 . S
H2539 C2517 0.950 . S
C2540 C2541 1.349 . S
C2540 C2542 1.327 . S
C2540 H2565 0.950 . S
C2541 C2540 1.349 . S
C2541 C2557 1.349 . S
C2542 C2540 1.327 . S
C2542 C2561 1.429 . S
C2542 H2566 0.950 . S
C2543 C2560 1.574 . S
C2543 C2562 1.368 . S
C2543 H2567 0.949 . S
H2544 C2548 0.949 . S
C2545 C2546 1.349 . S
C2545 C2547 1.327 . S
C2545 H2568 0.950 . S
C2546 C2545 1.349 . S
C2546 C2558 1.349 . S
C2547 C2545 1.327 . S
C2547 C2563 1.429 . S
C2547 H2569 0.950 . S
C2548 H2544 0.949 . S
C2548 C2556 1.574 . S
C2548 C2564 1.368 . S
H2549 C2557 0.950 . S
H2550 C2555 0.950 . S
H2551 C2556 0.949 . S
H2552 C2558 0.950 . S
H2553 C2559 0.950 . S
H2554 C2560 0.949 . S
C2555 H2550 0.950 . S
C2555 C2557 1.327 . S
C2555 C2561 1.429 . S
C2556 C2548 1.574 . S
C2556 H2551 0.949 . S
C2556 C2562 1.368 . S
C2557 C2541 1.349 . S
C2557 H2549 0.950 . S
C2557 C2555 1.327 . S
C2558 C2546 1.349 . S
C2558 H2552 0.950 . S
C2558 C2559 1.327 . S
C2559 H2553 0.950 . S
C2559 C2558 1.327 . S
C2559 C2563 1.429 . S
C2560 C2543 1.574 . S
C2560 H2554 0.949 . S
C2560 C2564 1.368 . S
C2561 C2542 1.429 . S
C2561 C2555 1.429 . S
C2561 C2562 1.523 . S
C2562 C2543 1.368 . S
C2562 C2556 1.368 . S
C2562 C2561 1.523 . S
C2563 C2547 1.429 . S
C2563 C2559 1.429 . S
C2563 C2564 1.523 . S
C2564 C2548 1.368 . S
C2564 C2560 1.368 . S
C2564 C2563 1.523 . S
H2565 C2540 0.950 . S
H2566 C2542 0.950 . S
H2567 C2543 0.949 . S
H2568 C2545 0.950 . S
H2569 C2547 0.950 . S
C2570 C2571 1.349 . S
C2570 C2572 1.327 . S
C2570 H2595 0.950 . S
C2571 C2570 1.349 . S
C2571 C2587 1.349 . S
C2572 C2570 1.327 . S
C2572 C2591 1.429 . S
C2572 H2596 0.950 . S
C2573 C2590 1.574 . S
C2573 C2592 1.368 . S
C2573 H2597 0.949 . S
H2574 C2578 0.949 . S
C2575 C2576 1.349 . S
C2575 C2577 1.327 . S
C2575 H2598 0.950 . S
C2576 C2575 1.349 . S
C2576 C2588 1.349 . S
C2577 C2575 1.327 . S
C2577 C2593 1.429 . S
C2577 H2599 0.950 . S
C2578 H2574 0.949 . S
C2578 C2586 1.574 . S
C2578 C2594 1.368 . S
H2579 C2587 0.950 . S
H2580 C2585 0.950 . S
H2581 C2586 0.949 . S
H2582 C2588 0.950 . S
H2583 C2589 0.950 . S
H2584 C2590 0.949 . S
C2585 H2580 0.950 . S
C2585 C2587 1.327 . S
C2585 C2591 1.429 . S
C2586 C2578 1.574 . S
C2586 H2581 0.949 . S
C2586 C2592 1.368 . S
C2587 C2571 1.349 . S
C2587 H2579 0.950 . S
C2587 C2585 1.327 . S
C2588 C2576 1.349 . S
C2588 H2582 0.950 . S
C2588 C2589 1.327 . S
C2589 H2583 0.950 . S
C2589 C2588 1.327 . S
C2589 C2593 1.429 . S
C2590 C2573 1.574 . S
C2590 H2584 0.949 . S
C2590 C2594 1.368 . S
C2591 C2572 1.429 . S
C2591 C2585 1.429 . S
C2591 C2592 1.523 . S
C2592 C2573 1.368 . S
C2592 C2586 1.368 . S
C2592 C2591 1.523 . S
C2593 C2577 1.429 . S
C2593 C2589 1.429 . S
C2593 C2594 1.523 . S
C2594 C2578 1.368 . S
C2594 C2590 1.368 . S
C2594 C2593 1.523 . S
H2595 C2570 0.950 . S
H2596 C2572 0.950 . S
H2597 C2573 0.949 . S
H2598 C2575 0.950 . S
H2599 C2577 0.950 . S
C2600 C2601 1.349 . S
C2600 C2602 1.327 . S
C2600 H2625 0.950 . S
C2601 C2600 1.349 . S
C2601 C2617 1.349 . S
C2602 C2600 1.327 . S
C2602 C2621 1.429 . S
C2602 H2626 0.950 . S
C2603 C2620 1.574 . S
C2603 C2622 1.368 . S
C2603 H2627 0.949 . S
H2604 C2608 0.949 . S
C2605 C2606 1.349 . S
C2605 C2607 1.327 . S
C2605 H2628 0.950 . S
C2606 C2605 1.349 . S
C2606 C2618 1.349 . S
C2607 C2605 1.327 . S
C2607 C2623 1.429 . S
C2607 H2629 0.950 . S
C2608 H2604 0.949 . S
C2608 C2616 1.574 . S
C2608 C2624 1.368 . S
H2609 C2617 0.950 . S
H2610 C2615 0.950 . S
H2611 C2616 0.949 . S
H2612 C2618 0.950 . S
H2613 C2619 0.950 . S
H2614 C2620 0.949 . S
C2615 H2610 0.950 . S
C2615 C2617 1.327 . S
C2615 C2621 1.429 . S
C2616 C2608 1.574 . S
C2616 H2611 0.949 . S
C2616 C2622 1.368 . S
C2617 C2601 1.349 . S
C2617 H2609 0.950 . S
C2617 C2615 1.327 . S
C2618 C2606 1.349 . S
C2618 H2612 0.950 . S
C2618 C2619 1.327 . S
C2619 H2613 0.950 . S
C2619 C2618 1.327 . S
C2619 C2623 1.429 . S
C2620 C2603 1.574 . S
C2620 H2614 0.949 . S
C2620 C2624 1.368 . S
C2621 C2602 1.429 . S
C2621 C2615 1.429 . S
C2621 C2622 1.523 . S
C2622 C2603 1.368 . S
C2622 C2616 1.368 . S
C2622 C2621 1.523 . S
C2623 C2607 1.429 . S
C2623 C2619 1.429 . S
C2623 C2624 1.523 . S
C2624 C2608 1.368 . S
C2624 C2620 1.368 . S
C2624 C2623 1.523 . S
H2625 C2600 0.950 . S
H2626 C2602 0.950 . S
H2627 C2603 0.949 . S
H2628 C2605 0.950 . S
H2629 C2607 0.950 . S
C2630 C2631 1.349 . S
C2630 C2632 1.327 . S
C2630 H2655 0.950 . S
C2631 C2630 1.349 . S
C2631 C2647 1.349 . S
C2632 C2630 1.327 . S
C2632 C2651 1.429 . S
C2632 H2656 0.950 . S
C2633 C2650 1.574 . S
C2633 C2652 1.368 . S
C2633 H2657 0.949 . S
H2634 C2638 0.949 . S
C2635 C2636 1.349 . S
C2635 C2637 1.327 . S
C2635 H2658 0.950 1_565 S
C2636 C2635 1.349 . S
C2636 C2648 1.349 . S
C2637 C2635 1.327 . S
C2637 C2653 1.429 . S
C2637 H2659 0.950 . S
C2638 H2634 0.949 . S
C2638 C2646 1.574 . S
C2638 C2654 1.368 . S
H2639 C2647 0.950 . S
H2640 C2645 0.950 . S
H2641 C2646 0.949 . S
H2642 C2648 0.950 . S
H2643 C2649 0.950 . S
H2644 C2650 0.949 . S
C2645 H2640 0.950 . S
C2645 C2647 1.327 . S
C2645 C2651 1.429 . S
C2646 C2638 1.574 . S
C2646 H2641 0.949 . S
C2646 C2652 1.368 . S
C2647 C2631 1.349 . S
C2647 H2639 0.950 . S
C2647 C2645 1.327 . S
C2648 C2636 1.349 . S
C2648 H2642 0.950 . S
C2648 C2649 1.327 . S
C2649 H2643 0.950 . S
C2649 C2648 1.327 . S
C2649 C2653 1.429 . S
C2650 C2633 1.574 . S
C2650 H2644 0.949 . S
C2650 C2654 1.368 . S
C2651 C2632 1.429 . S
C2651 C2645 1.429 . S
C2651 C2652 1.523 . S
C2652 C2633 1.368 . S
C2652 C2646 1.368 . S
C2652 C2651 1.523 . S
C2653 C2637 1.429 . S
C2653 C2649 1.429 . S
C2653 C2654 1.523 . S
C2654 C2638 1.368 . S
C2654 C2650 1.368 . S
C2654 C2653 1.523 . S
H2655 C2630 0.950 . S
H2656 C2632 0.950 . S
H2657 C2633 0.949 . S
H2658 C2635 0.950 1_545 S
H2659 C2637 0.950 . S
C2660 C2661 1.349 . S
C2660 C2662 1.327 . S
C2660 H2685 0.950 . S
C2661 C2660 1.349 . S
C2661 C2677 1.349 . S
C2662 C2660 1.327 . S
C2662 C2681 1.429 . S
C2662 H2686 0.950 . S
C2663 C2680 1.574 . S
C2663 C2682 1.368 . S
C2663 H2687 0.949 . S
H2664 C2668 0.949 . S
C2665 C2666 1.349 . S
C2665 C2667 1.327 . S
C2665 H2688 0.950 . S
C2666 C2665 1.349 . S
C2666 C2678 1.349 . S
C2667 C2665 1.327 . S
C2667 C2683 1.429 . S
C2667 H2689 0.950 . S
C2668 H2664 0.949 . S
C2668 C2676 1.574 . S
C2668 C2684 1.368 . S
H2669 C2677 0.950 . S
H2670 C2675 0.950 . S
H2671 C2676 0.949 . S
H2672 C2678 0.950 . S
H2673 C2679 0.950 . S
H2674 C2680 0.949 . S
C2675 H2670 0.950 . S
C2675 C2677 1.327 . S
C2675 C2681 1.429 . S
C2676 C2668 1.574 . S
C2676 H2671 0.949 . S
C2676 C2682 1.368 . S
C2677 C2661 1.349 . S
C2677 H2669 0.950 . S
C2677 C2675 1.327 . S
C2678 C2666 1.349 . S
C2678 H2672 0.950 . S
C2678 C2679 1.327 . S
C2679 H2673 0.950 . S
C2679 C2678 1.327 . S
C2679 C2683 1.429 . S
C2680 C2663 1.574 . S
C2680 H2674 0.949 . S
C2680 C2684 1.368 . S
C2681 C2662 1.429 . S
C2681 C2675 1.429 . S
C2681 C2682 1.523 . S
C2682 C2663 1.368 . S
C2682 C2676 1.368 . S
C2682 C2681 1.523 . S
C2683 C2667 1.429 . S
C2683 C2679 1.429 . S
C2683 C2684 1.523 . S
C2684 C2668 1.368 . S
C2684 C2680 1.368 . S
C2684 C2683 1.523 . S
H2685 C2660 0.950 . S
H2686 C2662 0.950 . S
H2687 C2663 0.949 . S
H2688 C2665 0.950 . S
H2689 C2667 0.950 . S
C2690 C2691 1.349 1_556 S
C2690 C2692 1.327 . S
C2690 H2715 0.950 . S
C2691 C2690 1.349 1_554 S
C2691 C2707 1.349 . S
C2692 C2690 1.327 . S
C2692 C2711 1.429 1_556 S
C2692 H2716 0.950 . S
C2693 C2710 1.574 . S
C2693 C2712 1.368 . S
C2693 H2717 0.949 . S
H2694 C2698 0.951 1_556 S
C2695 C2696 1.349 . S
C2695 C2697 1.327 . S
C2695 H2718 0.950 . S
C2696 C2695 1.349 . S
C2696 C2708 1.349 . S
C2697 C2695 1.327 . S
C2697 C2713 1.429 . S
C2697 H2719 0.950 . S
C2698 H2694 0.951 1_554 S
C2698 C2706 1.574 1_554 S
C2698 C2714 1.366 . S
H2699 C2707 0.950 . S
H2700 C2705 0.950 . S
H2701 C2706 0.949 . S
H2702 C2708 0.950 1_556 S
H2703 C2709 0.950 1_556 S
H2704 C2710 0.949 . S
C2705 H2700 0.950 . S
C2705 C2707 1.327 . S
C2705 C2711 1.429 . S
C2706 C2698 1.574 1_556 S
C2706 H2701 0.949 . S
C2706 C2712 1.368 1_556 S
C2707 C2691 1.349 . S
C2707 H2699 0.950 . S
C2707 C2705 1.327 . S
C2708 C2696 1.349 . S
C2708 H2702 0.950 1_554 S
C2708 C2709 1.327 . S
C2709 H2703 0.950 1_554 S
C2709 C2708 1.327 . S
C2709 C2713 1.429 . S
C2710 C2693 1.574 . S
C2710 H2704 0.949 . S
C2710 C2714 1.368 . S
C2711 C2692 1.429 1_554 S
C2711 C2705 1.429 . S
C2711 C2712 1.523 . S
C2712 C2693 1.368 . S
C2712 C2706 1.368 1_554 S
C2712 C2711 1.523 . S
C2713 C2697 1.429 . S
C2713 C2709 1.429 . S
C2713 C2714 1.523 . S
C2714 C2698 1.366 . S
C2714 C2710 1.368 . S
C2714 C2713 1.523 . S
H2715 C2690 0.950 . S
H2716 C2692 0.950 . S
H2717 C2693 0.949 . S
H2718 C2695 0.950 . S
H2719 C2697 0.950 . S
C2720 C2721 1.349 . S
C2720 C2722 1.327 . S
C2720 H2745 0.950 . S
C2721 C2720 1.349 . S
C2721 C2737 1.349 . S
C2722 C2720 1.327 . S
C2722 C2741 1.429 . S
C2722 H2746 0.950 . S
C2723 C2740 1.574 . S
C2723 C2742 1.368 . S
C2723 H2747 0.949 . S
H2724 C2728 0.949 . S
C2725 C2726 1.349 . S
C2725 C2727 1.327 . S
C2725 H2748 0.950 . S
C2726 C2725 1.349 . S
C2726 C2738 1.349 . S
C2727 C2725 1.327 . S
C2727 C2743 1.429 . S
C2727 H2749 0.950 . S
C2728 H2724 0.949 . S
C2728 C2736 1.574 . S
C2728 C2744 1.368 . S
H2729 C2737 0.950 . S
H2730 C2735 0.950 . S
H2731 C2736 0.949 . S
H2732 C2738 0.950 . S
H2733 C2739 0.950 . S
H2734 C2740 0.949 . S
C2735 H2730 0.950 . S
C2735 C2737 1.327 . S
C2735 C2741 1.429 . S
C2736 C2728 1.574 . S
C2736 H2731 0.949 . S
C2736 C2742 1.368 . S
C2737 C2721 1.349 . S
C2737 H2729 0.950 . S
C2737 C2735 1.327 . S
C2738 C2726 1.349 . S
C2738 H2732 0.950 . S
C2738 C2739 1.327 . S
C2739 H2733 0.950 . S
C2739 C2738 1.327 . S
C2739 C2743 1.429 . S
C2740 C2723 1.574 . S
C2740 H2734 0.949 . S
C2740 C2744 1.368 . S
C2741 C2722 1.429 . S
C2741 C2735 1.429 . S
C2741 C2742 1.523 . S
C2742 C2723 1.368 . S
C2742 C2736 1.368 . S
C2742 C2741 1.523 . S
C2743 C2727 1.429 . S
C2743 C2739 1.429 . S
C2743 C2744 1.523 . S
C2744 C2728 1.368 . S
C2744 C2740 1.368 . S
C2744 C2743 1.523 . S
H2745 C2720 0.950 . S
H2746 C2722 0.950 . S
H2747 C2723 0.949 . S
H2748 C2725 0.950 . S
H2749 C2727 0.950 . S
C2750 C2751 1.349 1_556 S
C2750 C2752 1.327 . S
C2750 H2775 0.950 . S
C2751 C2750 1.349 1_554 S
C2751 C2767 1.349 . S
C2752 C2750 1.327 . S
C2752 C2771 1.429 1_556 S
C2752 H2776 0.950 . S
C2753 C2770 1.574 . S
C2753 C2772 1.368 . S
C2753 H2777 0.949 . S
H2754 C2758 0.949 . S
C2755 C2756 1.349 . S
C2755 C2757 1.327 . S
C2755 H2778 0.950 . S
C2756 C2755 1.349 . S
C2756 C2768 1.349 1_554 S
C2757 C2755 1.327 . S
C2757 C2773 1.429 . S
C2757 H2779 0.950 . S
C2758 H2754 0.949 . S
C2758 C2766 1.574 . S
C2758 C2774 1.368 1_556 S
H2759 C2767 0.950 . S
H2760 C2765 0.950 . S
H2761 C2766 0.949 . S
H2762 C2768 0.950 . S
H2763 C2769 0.950 . S
H2764 C2770 0.949 . S
C2765 H2760 0.950 . S
C2765 C2767 1.327 . S
C2765 C2771 1.429 . S
C2766 C2758 1.574 . S
C2766 H2761 0.949 . S
C2766 C2772 1.368 1_556 S
C2767 C2751 1.349 . S
C2767 H2759 0.950 . S
C2767 C2765 1.327 . S
C2768 C2756 1.349 1_556 S
C2768 H2762 0.950 . S
C2768 C2769 1.327 . S
C2769 H2763 0.950 . S
C2769 C2768 1.327 . S
C2769 C2773 1.429 1_556 S
C2770 C2753 1.574 . S
C2770 H2764 0.949 . S
C2770 C2774 1.368 . S
C2771 C2752 1.429 1_554 S
C2771 C2765 1.429 . S
C2771 C2772 1.523 . S
C2772 C2753 1.368 . S
C2772 C2766 1.368 1_554 S
C2772 C2771 1.523 . S
C2773 C2757 1.429 . S
C2773 C2769 1.429 1_554 S
C2773 C2774 1.523 . S
C2774 C2758 1.368 1_554 S
C2774 C2770 1.368 . S
C2774 C2773 1.523 . S
H2775 C2750 0.950 . S
H2776 C2752 0.950 . S
H2777 C2753 0.949 . S
H2778 C2755 0.950 . S
H2779 C2757 0.950 . S
C2780 C2781 1.349 . S
C2780 C2782 1.327 . S
C2780 H2805 0.950 . S
C2781 C2780 1.349 . S
C2781 C2797 1.349 . S
C2782 C2780 1.327 . S
C2782 C2801 1.429 . S
C2782 H2806 0.950 . S
C2783 C2800 1.574 . S
C2783 C2802 1.368 . S
C2783 H2807 0.949 . S
H2784 C2788 0.949 . S
C2785 C2786 1.349 . S
C2785 C2787 1.327 . S
C2785 H2808 0.950 . S
C2786 C2785 1.349 . S
C2786 C2798 1.349 . S
C2787 C2785 1.327 . S
C2787 C2803 1.429 . S
C2787 H2809 0.950 . S
C2788 H2784 0.949 . S
C2788 C2796 1.574 . S
C2788 C2804 1.368 . S
H2789 C2797 0.950 . S
H2790 C2795 0.950 . S
H2791 C2796 0.949 . S
H2792 C2798 0.950 . S
H2793 C2799 0.950 . S
H2794 C2800 0.949 . S
C2795 H2790 0.950 . S
C2795 C2797 1.327 . S
C2795 C2801 1.429 . S
C2796 C2788 1.574 . S
C2796 H2791 0.949 . S
C2796 C2802 1.368 . S
C2797 C2781 1.349 . S
C2797 H2789 0.950 . S
C2797 C2795 1.327 . S
C2798 C2786 1.349 . S
C2798 H2792 0.950 . S
C2798 C2799 1.327 . S
C2799 H2793 0.950 . S
C2799 C2798 1.327 . S
C2799 C2803 1.429 . S
C2800 C2783 1.574 . S
C2800 H2794 0.949 . S
C2800 C2804 1.368 . S
C2801 C2782 1.429 . S
C2801 C2795 1.429 . S
C2801 C2802 1.523 . S
C2802 C2783 1.368 . S
C2802 C2796 1.368 . S
C2802 C2801 1.523 . S
C2803 C2787 1.429 . S
C2803 C2799 1.429 . S
C2803 C2804 1.523 . S
C2804 C2788 1.368 . S
C2804 C2800 1.368 . S
C2804 C2803 1.523 . S
H2805 C2780 0.950 . S
H2806 C2782 0.950 . S
H2807 C2783 0.949 . S
H2808 C2785 0.950 . S
H2809 C2787 0.950 . S
C2810 C2811 1.349 . S
C2810 C2812 1.327 . S
C2810 H2835 0.950 . S
C2811 C2810 1.349 . S
C2811 C2827 1.349 . S
C2812 C2810 1.327 . S
C2812 C2831 1.429 . S
C2812 H2836 0.950 . S
C2813 C2830 1.574 . S
C2813 C2832 1.368 . S
C2813 H2837 0.949 . S
H2814 C2818 0.949 . S
C2815 C2816 1.349 . S
C2815 C2817 1.327 . S
C2815 H2838 0.950 . S
C2816 C2815 1.349 . S
C2816 C2828 1.349 . S
C2817 C2815 1.327 . S
C2817 C2833 1.429 . S
C2817 H2839 0.950 . S
C2818 H2814 0.949 . S
C2818 C2826 1.574 . S
C2818 C2834 1.368 . S
H2819 C2827 0.950 . S
H2820 C2825 0.950 . S
H2821 C2826 0.949 . S
H2822 C2828 0.950 . S
H2823 C2829 0.950 . S
H2824 C2830 0.949 . S
C2825 H2820 0.950 . S
C2825 C2827 1.327 . S
C2825 C2831 1.429 . S
C2826 C2818 1.574 . S
C2826 H2821 0.949 . S
C2826 C2832 1.368 . S
C2827 C2811 1.349 . S
C2827 H2819 0.950 . S
C2827 C2825 1.327 . S
C2828 C2816 1.349 . S
C2828 H2822 0.950 . S
C2828 C2829 1.327 . S
C2829 H2823 0.950 . S
C2829 C2828 1.327 . S
C2829 C2833 1.429 . S
C2830 C2813 1.574 . S
C2830 H2824 0.949 . S
C2830 C2834 1.368 . S
C2831 C2812 1.429 . S
C2831 C2825 1.429 . S
C2831 C2832 1.523 . S
C2832 C2813 1.368 . S
C2832 C2826 1.368 . S
C2832 C2831 1.523 . S
C2833 C2817 1.429 . S
C2833 C2829 1.429 . S
C2833 C2834 1.523 . S
C2834 C2818 1.368 . S
C2834 C2830 1.368 . S
C2834 C2833 1.523 . S
H2835 C2810 0.950 . S
H2836 C2812 0.950 . S
H2837 C2813 0.949 . S
H2838 C2815 0.950 . S
H2839 C2817 0.950 . S
C2840 C2841 1.349 . S
C2840 C2842 1.327 . S
C2840 H2865 0.950 . S
C2841 C2840 1.349 . S
C2841 C2857 1.349 . S
C2842 C2840 1.327 . S
C2842 C2861 1.429 . S
C2842 H2866 0.950 . S
C2843 C2860 1.574 . S
C2843 C2862 1.368 . S
C2843 H2867 0.949 . S
H2844 C2848 0.949 . S
C2845 C2846 1.349 . S
C2845 C2847 1.327 . S
C2845 H2868 0.950 . S
C2846 C2845 1.349 . S
C2846 C2858 1.349 . S
C2847 C2845 1.327 . S
C2847 C2863 1.429 . S
C2847 H2869 0.950 . S
C2848 H2844 0.949 . S
C2848 C2856 1.574 . S
C2848 C2864 1.368 . S
H2849 C2857 0.950 . S
H2850 C2855 0.950 . S
H2851 C2856 0.949 . S
H2852 C2858 0.950 . S
H2853 C2859 0.950 . S
H2854 C2860 0.949 . S
C2855 H2850 0.950 . S
C2855 C2857 1.327 . S
C2855 C2861 1.429 . S
C2856 C2848 1.574 . S
C2856 H2851 0.949 . S
C2856 C2862 1.368 . S
C2857 C2841 1.349 . S
C2857 H2849 0.950 . S
C2857 C2855 1.327 . S
C2858 C2846 1.349 . S
C2858 H2852 0.950 . S
C2858 C2859 1.327 . S
C2859 H2853 0.950 . S
C2859 C2858 1.327 . S
C2859 C2863 1.429 . S
C2860 C2843 1.574 . S
C2860 H2854 0.949 . S
C2860 C2864 1.368 . S
C2861 C2842 1.429 . S
C2861 C2855 1.429 . S
C2861 C2862 1.523 . S
C2862 C2843 1.368 . S
C2862 C2856 1.368 . S
C2862 C2861 1.523 . S
C2863 C2847 1.429 . S
C2863 C2859 1.429 . S
C2863 C2864 1.523 . S
C2864 C2848 1.368 . S
C2864 C2860 1.368 . S
C2864 C2863 1.523 . S
H2865 C2840 0.950 . S
H2866 C2842 0.950 . S
H2867 C2843 0.949 . S
H2868 C2845 0.950 . S
H2869 C2847 0.950 . S
C2870 C2871 1.349 . S
C2870 C2872 1.327 . S
C2870 H2895 0.950 . S
C2871 C2870 1.349 . S
C2871 C2887 1.349 . S
C2872 C2870 1.327 . S
C2872 C2891 1.429 . S
C2872 H2896 0.950 . S
C2873 C2890 1.574 . S
C2873 C2892 1.368 . S
C2873 H2897 0.949 . S
H2874 C2878 0.949 . S
C2875 C2876 1.349 . S
C2875 C2877 1.327 . S
C2875 H2898 0.950 . S
C2876 C2875 1.349 . S
C2876 C2888 1.349 . S
C2877 C2875 1.327 . S
C2877 C2893 1.429 . S
C2877 H2899 0.950 . S
C2878 H2874 0.949 . S
C2878 C2886 1.574 . S
C2878 C2894 1.368 . S
H2879 C2887 0.950 . S
H2880 C2885 0.950 . S
H2881 C2886 0.949 . S
H2882 C2888 0.950 . S
H2883 C2889 0.950 . S
H2884 C2890 0.949 . S
C2885 H2880 0.950 . S
C2885 C2887 1.327 . S
C2885 C2891 1.429 . S
C2886 C2878 1.574 . S
C2886 H2881 0.949 . S
C2886 C2892 1.368 . S
C2887 C2871 1.349 . S
C2887 H2879 0.950 . S
C2887 C2885 1.327 . S
C2888 C2876 1.349 . S
C2888 H2882 0.950 . S
C2888 C2889 1.327 . S
C2889 H2883 0.950 . S
C2889 C2888 1.327 . S
C2889 C2893 1.429 . S
C2890 C2873 1.574 . S
C2890 H2884 0.949 . S
C2890 C2894 1.368 . S
C2891 C2872 1.429 . S
C2891 C2885 1.429 . S
C2891 C2892 1.523 . S
C2892 C2873 1.368 . S
C2892 C2886 1.368 . S
C2892 C2891 1.523 . S
C2893 C2877 1.429 . S
C2893 C2889 1.429 . S
C2893 C2894 1.523 . S
C2894 C2878 1.368 . S
C2894 C2890 1.368 . S
C2894 C2893 1.523 . S
H2895 C2870 0.950 . S
H2896 C2872 0.950 . S
H2897 C2873 0.949 . S
H2898 C2875 0.950 . S
H2899 C2877 0.950 . S
C2900 C2901 1.349 . S
C2900 C2902 1.327 . S
C2900 H2925 0.950 . S
C2901 C2900 1.349 . S
C2901 C2917 1.349 1_455 S
C2902 C2900 1.327 . S
C2902 C2921 1.429 . S
C2902 H2926 0.950 . S
C2903 C2920 1.574 . S
C2903 C2922 1.356 1_655 S
C2903 H2927 0.949 . S
H2904 C2908 0.949 . S
C2905 C2906 1.337 1_554 S
C2905 C2907 1.306 1_554 S
C2905 H2928 0.986 . S
C2906 C2905 1.337 1_556 S
C2906 C2918 1.349 1_655 S
C2907 C2905 1.306 1_556 S
C2907 C2923 1.429 . S
C2907 H2929 0.950 . S
C2908 H2904 0.949 . S
C2908 C2916 1.574 . S
C2908 C2924 1.368 1_455 S
H2909 C2917 0.950 . S
H2910 C2915 0.950 . S
H2911 C2916 0.949 . S
H2912 C2918 0.950 . S
H2913 C2919 0.950 . S
H2914 C2920 0.949 . S
C2915 H2910 0.950 . S
C2915 C2917 1.327 . S
C2915 C2921 1.429 1_655 S
C2916 C2908 1.574 . S
C2916 H2911 0.949 . S
C2916 C2922 1.380 . S
C2917 C2901 1.349 1_655 S
C2917 H2909 0.950 . S
C2917 C2915 1.327 . S
C2918 C2906 1.349 1_455 S
C2918 H2912 0.950 . S
C2918 C2919 1.327 . S
C2919 H2913 0.950 . S
C2919 C2918 1.327 . S
C2919 C2923 1.429 1_455 S
C2920 C2903 1.574 . S
C2920 H2914 0.949 . S
C2920 C2924 1.368 . S
C2921 C2902 1.429 . S
C2921 C2915 1.429 1_455 S
C2921 C2922 1.524 . S
C2922 C2903 1.356 1_455 S
C2922 C2916 1.380 . S
C2922 C2921 1.524 . S
C2923 C2907 1.429 . S
C2923 C2919 1.429 1_655 S
C2923 C2924 1.523 . S
C2924 C2908 1.368 1_655 S
C2924 C2920 1.368 . S
C2924 C2923 1.523 . S
H2925 C2900 0.950 . S
H2926 C2902 0.950 . S
H2927 C2903 0.949 . S
H2928 C2905 0.986 . S
H2929 C2907 0.950 . S
C2930 C2931 1.349 . S
C2930 C2932 1.327 . S
C2930 H2955 0.950 . S
C2931 C2930 1.349 . S
C2931 C2947 1.349 . S
C2932 C2930 1.327 . S
C2932 C2951 1.429 . S
C2932 H2956 0.950 . S
C2933 C2950 1.574 . S
C2933 C2952 1.368 . S
C2933 H2957 0.949 . S
H2934 C2938 0.949 . S
C2935 C2936 1.349 . S
C2935 C2937 1.327 . S
C2935 H2958 0.950 . S
C2936 C2935 1.349 . S
C2936 C2948 1.349 . S
C2937 C2935 1.327 . S
C2937 C2953 1.429 . S
C2937 H2959 0.950 . S
C2938 H2934 0.949 . S
C2938 C2946 1.574 . S
C2938 C2954 1.368 . S
H2939 C2947 0.950 . S
H2940 C2945 0.950 . S
H2941 C2946 0.949 . S
H2942 C2948 0.950 . S
H2943 C2949 0.950 . S
H2944 C2950 0.949 . S
C2945 H2940 0.950 . S
C2945 C2947 1.327 . S
C2945 C2951 1.429 . S
C2946 C2938 1.574 . S
C2946 H2941 0.949 . S
C2946 C2952 1.368 . S
C2947 C2931 1.349 . S
C2947 H2939 0.950 . S
C2947 C2945 1.327 . S
C2948 C2936 1.349 . S
C2948 H2942 0.950 . S
C2948 C2949 1.327 . S
C2949 H2943 0.950 . S
C2949 C2948 1.327 . S
C2949 C2953 1.429 . S
C2950 C2933 1.574 . S
C2950 H2944 0.949 . S
C2950 C2954 1.368 . S
C2951 C2932 1.429 . S
C2951 C2945 1.429 . S
C2951 C2952 1.523 . S
C2952 C2933 1.368 . S
C2952 C2946 1.368 . S
C2952 C2951 1.523 . S
C2953 C2937 1.429 . S
C2953 C2949 1.429 . S
C2953 C2954 1.523 . S
C2954 C2938 1.368 . S
C2954 C2950 1.368 . S
C2954 C2953 1.523 . S
H2955 C2930 0.950 . S
H2956 C2932 0.950 . S
H2957 C2933 0.949 . S
H2958 C2935 0.950 . S
H2959 C2937 0.950 . S
C2960 C2961 1.349 . S
C2960 C2962 1.327 . S
C2960 H2985 0.950 . S
C2961 C2960 1.349 . S
C2961 C2977 1.349 . S
C2962 C2960 1.327 . S
C2962 C2981 1.429 . S
C2962 H2986 0.950 . S
C2963 C2980 1.574 . S
C2963 C2982 1.368 . S
C2963 H2987 0.949 . S
H2964 C2968 0.949 . S
C2965 C2966 1.349 . S
C2965 C2967 1.327 . S
C2965 H2988 0.950 . S
C2966 C2965 1.349 . S
C2966 C2978 1.349 . S
C2967 C2965 1.327 . S
C2967 C2983 1.429 . S
C2967 H2989 0.950 . S
C2968 H2964 0.949 . S
C2968 C2976 1.574 . S
C2968 C2984 1.368 . S
H2969 C2977 0.950 . S
H2970 C2975 0.950 . S
H2971 C2976 0.949 . S
H2972 C2978 0.950 . S
H2973 C2979 0.950 . S
H2974 C2980 0.949 . S
C2975 H2970 0.950 . S
C2975 C2977 1.327 . S
C2975 C2981 1.429 . S
C2976 C2968 1.574 . S
C2976 H2971 0.949 . S
C2976 C2982 1.368 . S
C2977 C2961 1.349 . S
C2977 H2969 0.950 . S
C2977 C2975 1.327 . S
C2978 C2966 1.349 . S
C2978 H2972 0.950 . S
C2978 C2979 1.327 . S
C2979 H2973 0.950 . S
C2979 C2978 1.327 . S
C2979 C2983 1.429 . S
C2980 C2963 1.574 . S
C2980 H2974 0.949 . S
C2980 C2984 1.368 . S
C2981 C2962 1.429 . S
C2981 C2975 1.429 . S
C2981 C2982 1.523 . S
C2982 C2963 1.368 . S
C2982 C2976 1.368 . S
C2982 C2981 1.523 . S
C2983 C2967 1.429 . S
C2983 C2979 1.429 . S
C2983 C2984 1.523 . S
C2984 C2968 1.368 . S
C2984 C2980 1.368 . S
C2984 C2983 1.523 . S
H2985 C2960 0.950 . S
H2986 C2962 0.950 . S
H2987 C2963 0.949 . S
H2988 C2965 0.950 . S
H2989 C2967 0.950 . S
C2990 C2991 1.349 . S
C2990 C2992 1.327 . S
C2990 H3015 0.950 . S
C2991 C2990 1.349 . S
C2991 C3007 1.349 . S
C2992 C2990 1.327 . S
C2992 C3011 1.429 . S
C2992 H3016 0.950 . S
C2993 C3010 1.574 . S
C2993 C3012 1.368 . S
C2993 H3017 0.949 . S
H2994 C2998 0.949 . S
C2995 C2996 1.349 . S
C2995 C2997 1.327 . S
C2995 H3018 0.950 . S
C2996 C2995 1.349 . S
C2996 C3008 1.349 . S
C2997 C2995 1.327 . S
C2997 C3013 1.429 . S
C2997 H3019 0.950 . S
C2998 H2994 0.949 . S
C2998 C3006 1.574 . S
C2998 C3014 1.368 . S
H2999 C3007 0.950 . S
H3000 C3005 0.950 . S
H3001 C3006 0.949 . S
H3002 C3008 0.950 . S
H3003 C3009 0.950 . S
H3004 C3010 0.949 . S
C3005 H3000 0.950 . S
C3005 C3007 1.327 . S
C3005 C3011 1.429 . S
C3006 C2998 1.574 . S
C3006 H3001 0.949 . S
C3006 C3012 1.368 . S
C3007 C2991 1.349 . S
C3007 H2999 0.950 . S
C3007 C3005 1.327 . S
C3008 C2996 1.349 . S
C3008 H3002 0.950 . S
C3008 C3009 1.327 . S
C3009 H3003 0.950 . S
C3009 C3008 1.327 . S
C3009 C3013 1.429 . S
C3010 C2993 1.574 . S
C3010 H3004 0.949 . S
C3010 C3014 1.368 . S
C3011 C2992 1.429 . S
C3011 C3005 1.429 . S
C3011 C3012 1.523 . S
C3012 C2993 1.368 . S
C3012 C3006 1.368 . S
C3012 C3011 1.523 . S
C3013 C2997 1.429 . S
C3013 C3009 1.429 . S
C3013 C3014 1.523 . S
C3014 C2998 1.368 . S
C3014 C3010 1.368 . S
C3014 C3013 1.523 . S
H3015 C2990 0.950 . S
H3016 C2992 0.950 . S
H3017 C2993 0.949 . S
H3018 C2995 0.950 . S
H3019 C2997 0.950 . S
C3020 C3021 1.349 . S
C3020 C3022 1.322 1_455 S
C3020 H3045 0.950 1_455 S
C3021 C3020 1.349 . S
C3021 C3037 1.349 . S
C3022 C3020 1.322 1_655 S
C3022 C3041 1.422 1_655 S
C3022 H3046 0.965 . S
C3023 C3040 1.574 . S
C3023 C3042 1.377 . S
C3023 H3047 0.949 . S
H3024 C3028 0.949 . S
C3025 C3026 1.349 . S
C3025 C3027 1.327 . S
C3025 H3048 0.959 . S
C3026 C3025 1.349 . S
C3026 C3038 1.349 . S
C3027 C3025 1.327 . S
C3027 C3043 1.429 . S
C3027 H3049 0.950 1_655 S
C3028 H3024 0.949 . S
C3028 C3036 1.574 . S
C3028 C3044 1.368 . S
H3029 C3037 0.950 . S
H3030 C3035 0.950 . S
H3031 C3036 0.949 . S
H3032 C3038 0.950 . S
H3033 C3039 0.950 . S
H3034 C3040 0.949 . S
C3035 H3030 0.950 . S
C3035 C3037 1.327 . S
C3035 C3041 1.429 . S
C3036 C3028 1.574 . S
C3036 H3031 0.949 . S
C3036 C3042 1.358 1_655 S
C3037 C3021 1.349 . S
C3037 H3029 0.950 . S
C3037 C3035 1.327 . S
C3038 C3026 1.349 . S
C3038 H3032 0.950 . S
C3038 C3039 1.327 . S
C3039 H3033 0.950 . S
C3039 C3038 1.327 . S
C3039 C3043 1.429 . S
C3040 C3023 1.574 . S
C3040 H3034 0.949 . S
C3040 C3044 1.368 1_455 S
C3041 C3022 1.422 1_455 S
C3041 C3035 1.429 . S
C3041 C3042 1.528 . S
C3042 C3023 1.377 . S
C3042 C3036 1.358 1_455 S
C3042 C3041 1.528 . S
C3043 C3027 1.429 . S
C3043 C3039 1.429 . S
C3043 C3044 1.523 . S
C3044 C3028 1.368 . S
C3044 C3040 1.368 1_655 S
C3044 C3043 1.523 . S
H3045 C3020 0.950 1_655 S
H3046 C3022 0.965 . S
H3047 C3023 0.949 . S
H3048 C3025 0.959 . S
H3049 C3027 0.950 1_455 S
C3050 C3051 1.349 . S
C3050 C3052 1.327 . S
C3050 H3075 0.950 . S
C3051 C3050 1.349 . S
C3051 C3067 1.349 . S
C3052 C3050 1.327 . S
C3052 C3071 1.429 . S
C3052 H3076 0.950 . S
C3053 C3070 1.574 . S
C3053 C3072 1.368 . S
C3053 H3077 0.949 . S
H3054 C3058 0.949 . S
C3055 C3056 1.349 . S
C3055 C3057 1.327 . S
C3055 H3078 0.950 . S
C3056 C3055 1.349 . S
C3056 C3068 1.349 . S
C3057 C3055 1.327 . S
C3057 C3073 1.429 . S
C3057 H3079 0.950 . S
C3058 H3054 0.949 . S
C3058 C3066 1.574 . S
C3058 C3074 1.368 . S
H3059 C3067 0.950 . S
H3060 C3065 0.950 . S
H3061 C3066 0.949 . S
H3062 C3068 0.950 . S
H3063 C3069 0.950 . S
H3064 C3070 0.949 . S
C3065 H3060 0.950 . S
C3065 C3067 1.327 . S
C3065 C3071 1.429 . S
C3066 C3058 1.574 . S
C3066 H3061 0.949 . S
C3066 C3072 1.368 . S
C3067 C3051 1.349 . S
C3067 H3059 0.950 . S
C3067 C3065 1.327 . S
C3068 C3056 1.349 . S
C3068 H3062 0.950 . S
C3068 C3069 1.327 . S
C3069 H3063 0.950 . S
C3069 C3068 1.327 . S
C3069 C3073 1.429 . S
C3070 C3053 1.574 . S
C3070 H3064 0.949 . S
C3070 C3074 1.368 . S
C3071 C3052 1.429 . S
C3071 C3065 1.429 . S
C3071 C3072 1.523 . S
C3072 C3053 1.368 . S
C3072 C3066 1.368 . S
C3072 C3071 1.523 . S
C3073 C3057 1.429 . S
C3073 C3069 1.429 . S
C3073 C3074 1.523 . S
C3074 C3058 1.368 . S
C3074 C3070 1.368 . S
C3074 C3073 1.523 . S
H3075 C3050 0.950 . S
H3076 C3052 0.950 . S
H3077 C3053 0.949 . S
H3078 C3055 0.950 . S
H3079 C3057 0.950 . S
C3080 C3081 1.349 . S
C3080 C3082 1.327 . S
C3080 H3105 0.950 . S
C3081 C3080 1.349 . S
C3081 C3097 1.349 . S
C3082 C3080 1.327 . S
C3082 C3101 1.429 . S
C3082 H3106 0.950 . S
C3083 C3100 1.574 . S
C3083 C3102 1.368 . S
C3083 H3107 0.949 . S
H3084 C3088 0.949 . S
C3085 C3086 1.349 . S
C3085 C3087 1.327 . S
C3085 H3108 0.950 . S
C3086 C3085 1.349 . S
C3086 C3098 1.349 . S
C3087 C3085 1.327 . S
C3087 C3103 1.429 . S
C3087 H3109 0.950 . S
C3088 H3084 0.949 . S
C3088 C3096 1.574 . S
C3088 C3104 1.368 . S
H3089 C3097 0.950 . S
H3090 C3095 0.950 . S
H3091 C3096 0.949 . S
H3092 C3098 0.950 . S
H3093 C3099 0.950 . S
H3094 C3100 0.949 . S
C3095 H3090 0.950 . S
C3095 C3097 1.327 . S
C3095 C3101 1.429 . S
C3096 C3088 1.574 . S
C3096 H3091 0.949 . S
C3096 C3102 1.368 . S
C3097 C3081 1.349 . S
C3097 H3089 0.950 . S
C3097 C3095 1.327 . S
C3098 C3086 1.349 . S
C3098 H3092 0.950 . S
C3098 C3099 1.327 . S
C3099 H3093 0.950 . S
C3099 C3098 1.327 . S
C3099 C3103 1.429 . S
C3100 C3083 1.574 . S
C3100 H3094 0.949 . S
C3100 C3104 1.368 . S
C3101 C3082 1.429 . S
C3101 C3095 1.429 . S
C3101 C3102 1.523 . S
C3102 C3083 1.368 . S
C3102 C3096 1.368 . S
C3102 C3101 1.523 . S
C3103 C3087 1.429 . S
C3103 C3099 1.429 . S
C3103 C3104 1.523 . S
C3104 C3088 1.368 . S
C3104 C3100 1.368 . S
C3104 C3103 1.523 . S
H3105 C3080 0.950 . S
H3106 C3082 0.950 . S
H3107 C3083 0.949 . S
H3108 C3085 0.950 . S
H3109 C3087 0.950 . S
C3110 C3111 1.349 . S
C3110 C3112 1.327 . S
C3110 H3135 0.950 . S
C3111 C3110 1.349 . S
C3111 C3127 1.349 . S
C3112 C3110 1.327 . S
C3112 C3131 1.429 . S
C3112 H3136 0.950 . S
C3113 C3130 1.574 . S
C3113 C3132 1.368 . S
C3113 H3137 0.949 . S
H3114 C3118 0.949 . S
C3115 C3116 1.349 . S
C3115 C3117 1.327 . S
C3115 H3138 0.950 . S
C3116 C3115 1.349 . S
C3116 C3128 1.349 . S
C3117 C3115 1.327 . S
C3117 C3133 1.429 . S
C3117 H3139 0.950 . S
C3118 H3114 0.949 . S
C3118 C3126 1.574 . S
C3118 C3134 1.368 . S
H3119 C3127 0.950 . S
H3120 C3125 0.950 . S
H3121 C3126 0.949 . S
H3122 C3128 0.950 . S
H3123 C3129 0.950 . S
H3124 C3130 0.949 . S
C3125 H3120 0.950 . S
C3125 C3127 1.327 . S
C3125 C3131 1.429 . S
C3126 C3118 1.574 . S
C3126 H3121 0.949 . S
C3126 C3132 1.368 . S
C3127 C3111 1.349 . S
C3127 H3119 0.950 . S
C3127 C3125 1.327 . S
C3128 C3116 1.349 . S
C3128 H3122 0.950 . S
C3128 C3129 1.327 . S
C3129 H3123 0.950 . S
C3129 C3128 1.327 . S
C3129 C3133 1.429 . S
C3130 C3113 1.574 . S
C3130 H3124 0.949 . S
C3130 C3134 1.368 . S
C3131 C3112 1.429 . S
C3131 C3125 1.429 . S
C3131 C3132 1.523 . S
C3132 C3113 1.368 . S
C3132 C3126 1.368 . S
C3132 C3131 1.523 . S
C3133 C3117 1.429 . S
C3133 C3129 1.429 . S
C3133 C3134 1.523 . S
C3134 C3118 1.368 . S
C3134 C3130 1.368 . S
C3134 C3133 1.523 . S
H3135 C3110 0.950 . S
H3136 C3112 0.950 . S
H3137 C3113 0.949 . S
H3138 C3115 0.950 . S
H3139 C3117 0.950 . S
C3140 C3141 1.349 . S
C3140 C3142 1.327 . S
C3140 H3165 0.950 . S
C3141 C3140 1.349 . S
C3141 C3157 1.349 . S
C3142 C3140 1.327 . S
C3142 C3161 1.429 . S
C3142 H3166 0.950 . S
C3143 C3160 1.574 . S
C3143 C3162 1.368 . S
C3143 H3167 0.949 . S
H3144 C3148 0.949 . S
C3145 C3146 1.349 . S
C3145 C3147 1.327 . S
C3145 H3168 0.950 . S
C3146 C3145 1.349 . S
C3146 C3158 1.349 . S
C3147 C3145 1.327 . S
C3147 C3163 1.429 . S
C3147 H3169 0.950 . S
C3148 H3144 0.949 . S
C3148 C3156 1.574 . S
C3148 C3164 1.368 . S
H3149 C3157 0.950 . S
H3150 C3155 0.950 . S
H3151 C3156 0.949 . S
H3152 C3158 0.950 . S
H3153 C3159 0.950 . S
H3154 C3160 0.949 . S
C3155 H3150 0.950 . S
C3155 C3157 1.327 . S
C3155 C3161 1.429 . S
C3156 C3148 1.574 . S
C3156 H3151 0.949 . S
C3156 C3162 1.368 . S
C3157 C3141 1.349 . S
C3157 H3149 0.950 . S
C3157 C3155 1.327 . S
C3158 C3146 1.349 . S
C3158 H3152 0.950 . S
C3158 C3159 1.327 . S
C3159 H3153 0.950 . S
C3159 C3158 1.327 . S
C3159 C3163 1.429 . S
C3160 C3143 1.574 . S
C3160 H3154 0.949 . S
C3160 C3164 1.368 . S
C3161 C3142 1.429 . S
C3161 C3155 1.429 . S
C3161 C3162 1.523 . S
C3162 C3143 1.368 . S
C3162 C3156 1.368 . S
C3162 C3161 1.523 . S
C3163 C3147 1.429 . S
C3163 C3159 1.429 . S
C3163 C3164 1.523 . S
C3164 C3148 1.368 . S
C3164 C3160 1.368 . S
C3164 C3163 1.523 . S
H3165 C3140 0.950 . S
H3166 C3142 0.950 . S
H3167 C3143 0.949 . S
H3168 C3145 0.950 . S
H3169 C3147 0.950 . S
C3170 C3171 1.349 . S
C3170 C3172 1.327 . S
C3170 H3195 0.950 . S
C3171 C3170 1.349 . S
C3171 C3187 1.349 . S
C3172 C3170 1.327 . S
C3172 C3191 1.429 . S
C3172 H3196 0.950 . S
C3173 C3190 1.574 . S
C3173 C3192 1.368 . S
C3173 H3197 0.949 . S
H3174 C3178 0.949 . S
C3175 C3176 1.349 . S
C3175 C3177 1.327 . S
C3175 H3198 0.950 . S
C3176 C3175 1.349 . S
C3176 C3188 1.349 . S
C3177 C3175 1.327 . S
C3177 C3193 1.429 . S
C3177 H3199 0.950 . S
C3178 H3174 0.949 . S
C3178 C3186 1.574 . S
C3178 C3194 1.368 . S
H3179 C3187 0.950 . S
H3180 C3185 0.950 . S
H3181 C3186 0.949 . S
H3182 C3188 0.950 . S
H3183 C3189 0.950 . S
H3184 C3190 0.949 . S
C3185 H3180 0.950 . S
C3185 C3187 1.327 . S
C3185 C3191 1.429 . S
C3186 C3178 1.574 . S
C3186 H3181 0.949 . S
C3186 C3192 1.368 . S
C3187 C3171 1.349 . S
C3187 H3179 0.950 . S
C3187 C3185 1.327 . S
C3188 C3176 1.349 . S
C3188 H3182 0.950 . S
C3188 C3189 1.327 . S
C3189 H3183 0.950 . S
C3189 C3188 1.327 . S
C3189 C3193 1.429 . S
C3190 C3173 1.574 . S
C3190 H3184 0.949 . S
C3190 C3194 1.368 . S
C3191 C3172 1.429 . S
C3191 C3185 1.429 . S
C3191 C3192 1.523 . S
C3192 C3173 1.368 . S
C3192 C3186 1.368 . S
C3192 C3191 1.523 . S
C3193 C3177 1.429 . S
C3193 C3189 1.429 . S
C3193 C3194 1.523 . S
C3194 C3178 1.368 . S
C3194 C3190 1.368 . S
C3194 C3193 1.523 . S
H3195 C3170 0.950 . S
H3196 C3172 0.950 . S
H3197 C3173 0.949 . S
H3198 C3175 0.950 . S
H3199 C3177 0.950 . S
C3200 C3201 1.349 . S
C3200 C3202 1.327 . S
C3200 H3225 0.950 . S
C3201 C3200 1.349 . S
C3201 C3217 1.349 . S
C3202 C3200 1.327 . S
C3202 C3221 1.429 . S
C3202 H3226 0.950 . S
C3203 C3220 1.574 . S
C3203 C3222 1.368 . S
C3203 H3227 0.949 . S
H3204 C3208 0.949 . S
C3205 C3206 1.349 . S
C3205 C3207 1.327 . S
C3205 H3228 0.950 . S
C3206 C3205 1.349 . S
C3206 C3218 1.349 . S
C3207 C3205 1.327 . S
C3207 C3223 1.429 . S
C3207 H3229 0.950 . S
C3208 H3204 0.949 . S
C3208 C3216 1.574 . S
C3208 C3224 1.368 . S
H3209 C3217 0.950 . S
H3210 C3215 0.950 . S
H3211 C3216 0.949 . S
H3212 C3218 0.950 . S
H3213 C3219 0.950 . S
H3214 C3220 0.949 . S
C3215 H3210 0.950 . S
C3215 C3217 1.327 . S
C3215 C3221 1.429 . S
C3216 C3208 1.574 . S
C3216 H3211 0.949 . S
C3216 C3222 1.368 . S
C3217 C3201 1.349 . S
C3217 H3209 0.950 . S
C3217 C3215 1.327 . S
C3218 C3206 1.349 . S
C3218 H3212 0.950 . S
C3218 C3219 1.327 . S
C3219 H3213 0.950 . S
C3219 C3218 1.327 . S
C3219 C3223 1.429 . S
C3220 C3203 1.574 . S
C3220 H3214 0.949 . S
C3220 C3224 1.368 . S
C3221 C3202 1.429 . S
C3221 C3215 1.429 . S
C3221 C3222 1.523 . S
C3222 C3203 1.368 . S
C3222 C3216 1.368 . S
C3222 C3221 1.523 . S
C3223 C3207 1.429 . S
C3223 C3219 1.429 . S
C3223 C3224 1.523 . S
C3224 C3208 1.368 . S
C3224 C3220 1.368 . S
C3224 C3223 1.523 . S
H3225 C3200 0.950 . S
H3226 C3202 0.950 . S
H3227 C3203 0.949 . S
H3228 C3205 0.950 . S
H3229 C3207 0.950 . S
C3230 C3231 1.349 . S
C3230 C3232 1.327 . S
C3230 H3255 0.950 . S
C3231 C3230 1.349 . S
C3231 C3247 1.349 . S
C3232 C3230 1.327 . S
C3232 C3251 1.429 . S
C3232 H3256 0.950 . S
C3233 C3250 1.574 . S
C3233 C3252 1.368 . S
C3233 H3257 0.949 . S
H3234 C3238 0.949 . S
C3235 C3236 1.349 . S
C3235 C3237 1.327 . S
C3235 H3258 0.950 . S
C3236 C3235 1.349 . S
C3236 C3248 1.349 . S
C3237 C3235 1.327 . S
C3237 C3253 1.429 . S
C3237 H3259 0.950 . S
C3238 H3234 0.949 . S
C3238 C3246 1.574 . S
C3238 C3254 1.368 . S
H3239 C3247 0.950 . S
H3240 C3245 0.950 . S
H3241 C3246 0.949 . S
H3242 C3248 0.950 . S
H3243 C3249 0.950 . S
H3244 C3250 0.949 . S
C3245 H3240 0.950 . S
C3245 C3247 1.327 . S
C3245 C3251 1.429 . S
C3246 C3238 1.574 . S
C3246 H3241 0.949 . S
C3246 C3252 1.368 . S
C3247 C3231 1.349 . S
C3247 H3239 0.950 . S
C3247 C3245 1.327 . S
C3248 C3236 1.349 . S
C3248 H3242 0.950 . S
C3248 C3249 1.327 . S
C3249 H3243 0.950 . S
C3249 C3248 1.327 . S
C3249 C3253 1.429 . S
C3250 C3233 1.574 . S
C3250 H3244 0.949 . S
C3250 C3254 1.368 . S
C3251 C3232 1.429 . S
C3251 C3245 1.429 . S
C3251 C3252 1.523 . S
C3252 C3233 1.368 . S
C3252 C3246 1.368 . S
C3252 C3251 1.523 . S
C3253 C3237 1.429 . S
C3253 C3249 1.429 . S
C3253 C3254 1.523 . S
C3254 C3238 1.368 . S
C3254 C3250 1.368 . S
C3254 C3253 1.523 . S
H3255 C3230 0.950 . S
H3256 C3232 0.950 . S
H3257 C3233 0.949 . S
H3258 C3235 0.950 . S
H3259 C3237 0.950 . S
C3260 C3261 1.349 . S
C3260 C3262 1.327 . S
C3260 H3285 0.950 . S
C3261 C3260 1.349 . S
C3261 C3277 1.349 . S
C3262 C3260 1.327 . S
C3262 C3281 1.429 . S
C3262 H3286 0.950 . S
C3263 C3280 1.574 . S
C3263 C3282 1.368 . S
C3263 H3287 0.949 . S
H3264 C3268 0.949 . S
C3265 C3266 1.349 . S
C3265 C3267 1.327 . S
C3265 H3288 0.950 . S
C3266 C3265 1.349 . S
C3266 C3278 1.349 . S
C3267 C3265 1.327 . S
C3267 C3283 1.429 . S
C3267 H3289 0.950 . S
C3268 H3264 0.949 . S
C3268 C3276 1.574 . S
C3268 C3284 1.368 . S
H3269 C3277 0.950 . S
H3270 C3275 0.950 . S
H3271 C3276 0.949 . S
H3272 C3278 0.950 . S
H3273 C3279 0.950 . S
H3274 C3280 0.949 . S
C3275 H3270 0.950 . S
C3275 C3277 1.327 . S
C3275 C3281 1.429 . S
C3276 C3268 1.574 . S
C3276 H3271 0.949 . S
C3276 C3282 1.368 . S
C3277 C3261 1.349 . S
C3277 H3269 0.950 . S
C3277 C3275 1.327 . S
C3278 C3266 1.349 . S
C3278 H3272 0.950 . S
C3278 C3279 1.327 . S
C3279 H3273 0.950 . S
C3279 C3278 1.327 . S
C3279 C3283 1.429 . S
C3280 C3263 1.574 . S
C3280 H3274 0.949 . S
C3280 C3284 1.368 . S
C3281 C3262 1.429 . S
C3281 C3275 1.429 . S
C3281 C3282 1.523 . S
C3282 C3263 1.368 . S
C3282 C3276 1.368 . S
C3282 C3281 1.523 . S
C3283 C3267 1.429 . S
C3283 C3279 1.429 . S
C3283 C3284 1.523 . S
C3284 C3268 1.368 . S
C3284 C3280 1.368 . S
C3284 C3283 1.523 . S
H3285 C3260 0.950 . S
H3286 C3262 0.950 . S
H3287 C3263 0.949 . S
H3288 C3265 0.950 . S
H3289 C3267 0.950 . S
C3290 C3291 1.349 . S
C3290 C3292 1.327 . S
C3290 H3315 0.950 . S
C3291 C3290 1.349 . S
C3291 C3307 1.349 . S
C3292 C3290 1.327 . S
C3292 C3311 1.429 . S
C3292 H3316 0.950 . S
C3293 C3310 1.574 . S
C3293 C3312 1.368 . S
C3293 H3317 0.949 . S
H3294 C3298 0.949 . S
C3295 C3296 1.349 . S
C3295 C3297 1.327 . S
C3295 H3318 0.950 . S
C3296 C3295 1.349 . S
C3296 C3308 1.349 . S
C3297 C3295 1.327 . S
C3297 C3313 1.429 . S
C3297 H3319 0.950 . S
C3298 H3294 0.949 . S
C3298 C3306 1.574 . S
C3298 C3314 1.368 . S
H3299 C3307 0.950 . S
H3300 C3305 0.950 . S
H3301 C3306 0.949 . S
H3302 C3308 0.950 . S
H3303 C3309 0.950 . S
H3304 C3310 0.949 . S
C3305 H3300 0.950 . S
C3305 C3307 1.327 . S
C3305 C3311 1.429 . S
C3306 C3298 1.574 . S
C3306 H3301 0.949 . S
C3306 C3312 1.368 . S
C3307 C3291 1.349 . S
C3307 H3299 0.950 . S
C3307 C3305 1.327 . S
C3308 C3296 1.349 . S
C3308 H3302 0.950 . S
C3308 C3309 1.327 . S
C3309 H3303 0.950 . S
C3309 C3308 1.327 . S
C3309 C3313 1.429 . S
C3310 C3293 1.574 . S
C3310 H3304 0.949 . S
C3310 C3314 1.368 . S
C3311 C3292 1.429 . S
C3311 C3305 1.429 . S
C3311 C3312 1.523 . S
C3312 C3293 1.368 . S
C3312 C3306 1.368 . S
C3312 C3311 1.523 . S
C3313 C3297 1.429 . S
C3313 C3309 1.429 . S
C3313 C3314 1.523 . S
C3314 C3298 1.368 . S
C3314 C3310 1.368 . S
C3314 C3313 1.523 . S
H3315 C3290 0.950 . S
H3316 C3292 0.950 . S
H3317 C3293 0.949 . S
H3318 C3295 0.950 . S
H3319 C3297 0.950 . S
C3320 C3321 1.349 . S
C3320 C3322 1.327 . S
C3320 H3345 0.950 . S
C3321 C3320 1.349 . S
C3321 C3337 1.349 . S
C3322 C3320 1.327 . S
C3322 C3341 1.429 . S
C3322 H3346 0.950 . S
C3323 C3340 1.574 . S
C3323 C3342 1.368 . S
C3323 H3347 0.949 . S
H3324 C3328 0.949 . S
C3325 C3326 1.349 . S
C3325 C3327 1.327 . S
C3325 H3348 0.950 . S
C3326 C3325 1.349 . S
C3326 C3338 1.349 . S
C3327 C3325 1.327 . S
C3327 C3343 1.429 . S
C3327 H3349 0.950 . S
C3328 H3324 0.949 . S
C3328 C3336 1.574 . S
C3328 C3344 1.368 . S
H3329 C3337 0.950 . S
H3330 C3335 0.950 . S
H3331 C3336 0.949 . S
H3332 C3338 0.950 . S
H3333 C3339 0.950 . S
H3334 C3340 0.949 . S
C3335 H3330 0.950 . S
C3335 C3337 1.327 . S
C3335 C3341 1.429 . S
C3336 C3328 1.574 . S
C3336 H3331 0.949 . S
C3336 C3342 1.368 . S
C3337 C3321 1.349 . S
C3337 H3329 0.950 . S
C3337 C3335 1.327 . S
C3338 C3326 1.349 . S
C3338 H3332 0.950 . S
C3338 C3339 1.327 . S
C3339 H3333 0.950 . S
C3339 C3338 1.327 . S
C3339 C3343 1.429 . S
C3340 C3323 1.574 . S
C3340 H3334 0.949 . S
C3340 C3344 1.368 . S
C3341 C3322 1.429 . S
C3341 C3335 1.429 . S
C3341 C3342 1.523 . S
C3342 C3323 1.368 . S
C3342 C3336 1.368 . S
C3342 C3341 1.523 . S
C3343 C3327 1.429 . S
C3343 C3339 1.429 . S
C3343 C3344 1.523 . S
C3344 C3328 1.368 . S
C3344 C3340 1.368 . S
C3344 C3343 1.523 . S
H3345 C3320 0.950 . S
H3346 C3322 0.950 . S
H3347 C3323 0.949 . S
H3348 C3325 0.950 . S
H3349 C3327 0.950 . S
C3350 C3351 1.349 . S
C3350 C3352 1.327 . S
C3350 H3375 0.950 . S
C3351 C3350 1.349 . S
C3351 C3367 1.349 . S
C3352 C3350 1.327 . S
C3352 C3371 1.429 . S
C3352 H3376 0.950 . S
C3353 C3370 1.574 . S
C3353 C3372 1.368 . S
C3353 H3377 0.949 . S
H3354 C3358 0.949 . S
C3355 C3356 1.349 . S
C3355 C3357 1.327 . S
C3355 H3378 0.950 . S
C3356 C3355 1.349 . S
C3356 C3368 1.349 . S
C3357 C3355 1.327 . S
C3357 C3373 1.429 . S
C3357 H3379 0.950 . S
C3358 H3354 0.949 . S
C3358 C3366 1.574 . S
C3358 C3374 1.368 . S
H3359 C3367 0.950 . S
H3360 C3365 0.950 . S
H3361 C3366 0.949 . S
H3362 C3368 0.950 . S
H3363 C3369 0.950 . S
H3364 C3370 0.949 . S
C3365 H3360 0.950 . S
C3365 C3367 1.327 . S
C3365 C3371 1.429 . S
C3366 C3358 1.574 . S
C3366 H3361 0.949 . S
C3366 C3372 1.368 . S
C3367 C3351 1.349 . S
C3367 H3359 0.950 . S
C3367 C3365 1.327 . S
C3368 C3356 1.349 . S
C3368 H3362 0.950 . S
C3368 C3369 1.327 . S
C3369 H3363 0.950 . S
C3369 C3368 1.327 . S
C3369 C3373 1.429 . S
C3370 C3353 1.574 . S
C3370 H3364 0.949 . S
C3370 C3374 1.368 . S
C3371 C3352 1.429 . S
C3371 C3365 1.429 . S
C3371 C3372 1.523 . S
C3372 C3353 1.368 . S
C3372 C3366 1.368 . S
C3372 C3371 1.523 . S
C3373 C3357 1.429 . S
C3373 C3369 1.429 . S
C3373 C3374 1.523 . S
C3374 C3358 1.368 . S
C3374 C3370 1.368 . S
C3374 C3373 1.523 . S
H3375 C3350 0.950 . S
H3376 C3352 0.950 . S
H3377 C3353 0.949 . S
H3378 C3355 0.950 . S
H3379 C3357 0.950 . S
C3380 C3381 1.349 . S
C3380 C3382 1.327 . S
C3380 H3405 0.950 . S
C3381 C3380 1.349 . S
C3381 C3397 1.349 . S
C3382 C3380 1.327 . S
C3382 C3401 1.429 . S
C3382 H3406 0.950 . S
C3383 C3400 1.574 . S
C3383 C3402 1.368 . S
C3383 H3407 0.949 . S
H3384 C3388 0.949 . S
C3385 C3386 1.349 . S
C3385 C3387 1.327 . S
C3385 H3408 0.950 . S
C3386 C3385 1.349 . S
C3386 C3398 1.349 . S
C3387 C3385 1.327 . S
C3387 C3403 1.429 . S
C3387 H3409 0.950 . S
C3388 H3384 0.949 . S
C3388 C3396 1.574 . S
C3388 C3404 1.368 . S
H3389 C3397 0.950 . S
H3390 C3395 0.950 . S
H3391 C3396 0.949 . S
H3392 C3398 0.950 . S
H3393 C3399 0.950 . S
H3394 C3400 0.949 . S
C3395 H3390 0.950 . S
C3395 C3397 1.327 . S
C3395 C3401 1.429 . S
C3396 C3388 1.574 . S
C3396 H3391 0.949 . S
C3396 C3402 1.368 . S
C3397 C3381 1.349 . S
C3397 H3389 0.950 . S
C3397 C3395 1.327 . S
C3398 C3386 1.349 . S
C3398 H3392 0.950 . S
C3398 C3399 1.327 . S
C3399 H3393 0.950 . S
C3399 C3398 1.327 . S
C3399 C3403 1.429 . S
C3400 C3383 1.574 . S
C3400 H3394 0.949 . S
C3400 C3404 1.368 . S
C3401 C3382 1.429 . S
C3401 C3395 1.429 . S
C3401 C3402 1.523 . S
C3402 C3383 1.368 . S
C3402 C3396 1.368 . S
C3402 C3401 1.523 . S
C3403 C3387 1.429 . S
C3403 C3399 1.429 . S
C3403 C3404 1.523 . S
C3404 C3388 1.368 . S
C3404 C3400 1.368 . S
C3404 C3403 1.523 . S
H3405 C3380 0.950 . S
H3406 C3382 0.950 . S
H3407 C3383 0.949 . S
H3408 C3385 0.950 . S
H3409 C3387 0.950 . S
C3410 C3411 1.349 . S
C3410 C3412 1.327 . S
C3410 H3435 0.950 . S
C3411 C3410 1.349 . S
C3411 C3427 1.349 1_554 S
C3412 C3410 1.327 . S
C3412 C3431 1.429 1_554 S
C3412 H3436 0.950 . S
C3413 C3430 1.574 . S
C3413 C3432 1.368 . S
C3413 H3437 0.949 . S
H3414 C3418 0.949 . S
C3415 C3416 1.349 . S
C3415 C3417 1.327 . S
C3415 H3438 0.950 . S
C3416 C3415 1.349 . S
C3416 C3428 1.349 1_556 S
C3417 C3415 1.327 . S
C3417 C3433 1.429 . S
C3417 H3439 0.950 . S
C3418 H3414 0.949 . S
C3418 C3426 1.574 . S
C3418 C3434 1.368 1_554 S
H3419 C3427 0.950 . S
H3420 C3425 0.950 . S
H3421 C3426 0.949 . S
H3422 C3428 0.950 . S
H3423 C3429 0.950 . S
H3424 C3430 0.949 . S
C3425 H3420 0.950 . S
C3425 C3427 1.327 . S
C3425 C3431 1.429 . S
C3426 C3418 1.574 . S
C3426 H3421 0.949 . S
C3426 C3432 1.368 1_554 S
C3427 C3411 1.349 1_556 S
C3427 H3419 0.950 . S
C3427 C3425 1.327 . S
C3428 C3416 1.349 1_554 S
C3428 H3422 0.950 . S
C3428 C3429 1.327 . S
C3429 H3423 0.950 . S
C3429 C3428 1.327 . S
C3429 C3433 1.429 1_554 S
C3430 C3413 1.574 . S
C3430 H3424 0.949 . S
C3430 C3434 1.368 . S
C3431 C3412 1.429 1_556 S
C3431 C3425 1.429 . S
C3431 C3432 1.523 . S
C3432 C3413 1.368 . S
C3432 C3426 1.368 1_556 S
C3432 C3431 1.523 . S
C3433 C3417 1.429 . S
C3433 C3429 1.429 1_556 S
C3433 C3434 1.523 . S
C3434 C3418 1.368 1_556 S
C3434 C3430 1.368 . S
C3434 C3433 1.523 . S
H3435 C3410 0.950 . S
H3436 C3412 0.950 . S
H3437 C3413 0.949 . S
H3438 C3415 0.950 . S
H3439 C3417 0.950 . S
C3440 C3441 1.349 . S
C3440 C3442 1.327 . S
C3440 H3465 0.950 . S
C3441 C3440 1.349 . S
C3441 C3457 1.349 . S
C3442 C3440 1.327 . S
C3442 C3461 1.429 . S
C3442 H3466 0.950 . S
C3443 C3460 1.574 . S
C3443 C3462 1.368 . S
C3443 H3467 0.949 . S
H3444 C3448 0.949 . S
C3445 C3446 1.349 . S
C3445 C3447 1.327 . S
C3445 H3468 0.950 . S
C3446 C3445 1.349 . S
C3446 C3458 1.349 . S
C3447 C3445 1.327 . S
C3447 C3463 1.429 . S
C3447 H3469 0.950 . S
C3448 H3444 0.949 . S
C3448 C3456 1.574 . S
C3448 C3464 1.368 . S
H3449 C3457 0.950 . S
H3450 C3455 0.950 . S
H3451 C3456 0.949 . S
H3452 C3458 0.950 . S
H3453 C3459 0.950 . S
H3454 C3460 0.949 . S
C3455 H3450 0.950 . S
C3455 C3457 1.327 . S
C3455 C3461 1.429 . S
C3456 C3448 1.574 . S
C3456 H3451 0.949 . S
C3456 C3462 1.368 . S
C3457 C3441 1.349 . S
C3457 H3449 0.950 . S
C3457 C3455 1.327 . S
C3458 C3446 1.349 . S
C3458 H3452 0.950 . S
C3458 C3459 1.327 . S
C3459 H3453 0.950 . S
C3459 C3458 1.327 . S
C3459 C3463 1.429 . S
C3460 C3443 1.574 . S
C3460 H3454 0.949 . S
C3460 C3464 1.368 . S
C3461 C3442 1.429 . S
C3461 C3455 1.429 . S
C3461 C3462 1.523 . S
C3462 C3443 1.368 . S
C3462 C3456 1.368 . S
C3462 C3461 1.523 . S
C3463 C3447 1.429 . S
C3463 C3459 1.429 . S
C3463 C3464 1.523 . S
C3464 C3448 1.368 . S
C3464 C3460 1.368 . S
C3464 C3463 1.523 . S
H3465 C3440 0.950 . S
H3466 C3442 0.950 . S
H3467 C3443 0.949 . S
H3468 C3445 0.950 . S
H3469 C3447 0.950 . S
C3470 C3471 1.349 . S
C3470 C3472 1.327 . S
C3470 H3495 0.950 . S
C3471 C3470 1.349 . S
C3471 C3487 1.349 1_554 S
C3472 C3470 1.327 . S
C3472 C3491 1.429 . S
C3472 H3496 0.950 . S
C3473 C3490 1.574 1_556 S
C3473 C3492 1.368 1_556 S
C3473 H3497 0.949 . S
H3474 C3478 0.949 . S
C3475 C3476 1.349 . S
C3475 C3477 1.327 . S
C3475 H3498 0.950 . S
C3476 C3475 1.349 . S
C3476 C3488 1.349 . S
C3477 C3475 1.327 . S
C3477 C3493 1.429 . S
C3477 H3499 0.950 1_554 S
C3478 H3474 0.949 . S
C3478 C3486 1.574 . S
C3478 C3494 1.368 . S
H3479 C3487 0.950 . S
H3480 C3485 0.950 . S
H3481 C3486 0.949 . S
H3482 C3488 0.950 . S
H3483 C3489 0.950 . S
H3484 C3490 0.949 1_556 S
C3485 H3480 0.950 . S
C3485 C3487 1.327 . S
C3485 C3491 1.429 1_556 S
C3486 C3478 1.574 . S
C3486 H3481 0.949 . S
C3486 C3492 1.368 . S
C3487 C3471 1.349 1_556 S
C3487 H3479 0.950 . S
C3487 C3485 1.327 . S
C3488 C3476 1.349 . S
C3488 H3482 0.950 . S
C3488 C3489 1.327 . S
C3489 H3483 0.950 . S
C3489 C3488 1.327 . S
C3489 C3493 1.429 . S
C3490 C3473 1.574 1_554 S
C3490 H3484 0.949 1_554 S
C3490 C3494 1.368 . S
C3491 C3472 1.429 . S
C3491 C3485 1.429 1_554 S
C3491 C3492 1.523 . S
C3492 C3473 1.368 1_554 S
C3492 C3486 1.368 . S
C3492 C3491 1.523 . S
C3493 C3477 1.429 . S
C3493 C3489 1.429 . S
C3493 C3494 1.523 . S
C3494 C3478 1.368 . S
C3494 C3490 1.368 . S
C3494 C3493 1.523 . S
H3495 C3470 0.950 . S
H3496 C3472 0.950 . S
H3497 C3473 0.949 . S
H3498 C3475 0.950 . S
H3499 C3477 0.950 1_556 S
C3500 C3501 1.349 . S
C3500 C3502 1.327 . S
C3500 H3525 0.950 . S
C3501 C3500 1.349 . S
C3501 C3517 1.349 . S
C3502 C3500 1.327 . S
C3502 C3521 1.429 . S
C3502 H3526 0.950 . S
C3503 C3520 1.574 . S
C3503 C3522 1.368 . S
C3503 H3527 0.949 . S
H3504 C3508 0.949 . S
C3505 C3506 1.349 . S
C3505 C3507 1.327 . S
C3505 H3528 0.950 . S
C3506 C3505 1.349 . S
C3506 C3518 1.349 . S
C3507 C3505 1.327 . S
C3507 C3523 1.429 . S
C3507 H3529 0.950 . S
C3508 H3504 0.949 . S
C3508 C3516 1.574 . S
C3508 C3524 1.368 . S
H3509 C3517 0.950 . S
H3510 C3515 0.950 . S
H3511 C3516 0.949 . S
H3512 C3518 0.950 . S
H3513 C3519 0.950 . S
H3514 C3520 0.949 . S
C3515 H3510 0.950 . S
C3515 C3517 1.327 . S
C3515 C3521 1.429 . S
C3516 C3508 1.574 . S
C3516 H3511 0.949 . S
C3516 C3522 1.368 . S
C3517 C3501 1.349 . S
C3517 H3509 0.950 . S
C3517 C3515 1.327 . S
C3518 C3506 1.349 . S
C3518 H3512 0.950 . S
C3518 C3519 1.327 . S
C3519 H3513 0.950 . S
C3519 C3518 1.327 . S
C3519 C3523 1.429 . S
C3520 C3503 1.574 . S
C3520 H3514 0.949 . S
C3520 C3524 1.368 . S
C3521 C3502 1.429 . S
C3521 C3515 1.429 . S
C3521 C3522 1.523 . S
C3522 C3503 1.368 . S
C3522 C3516 1.368 . S
C3522 C3521 1.523 . S
C3523 C3507 1.429 . S
C3523 C3519 1.429 . S
C3523 C3524 1.523 . S
C3524 C3508 1.368 . S
C3524 C3520 1.368 . S
C3524 C3523 1.523 . S
H3525 C3500 0.950 . S
H3526 C3502 0.950 . S
H3527 C3503 0.949 . S
H3528 C3505 0.950 . S
H3529 C3507 0.950 . S
C3530 C3531 1.349 . S
C3530 C3532 1.327 . S
C3530 H3555 0.950 . S
C3531 C3530 1.349 . S
C3531 C3547 1.349 . S
C3532 C3530 1.327 . S
C3532 C3551 1.429 . S
C3532 H3556 0.950 . S
C3533 C3550 1.574 . S
C3533 C3552 1.368 . S
C3533 H3557 0.949 . S
H3534 C3538 0.949 . S
C3535 C3536 1.349 . S
C3535 C3537 1.327 . S
C3535 H3558 0.950 . S
C3536 C3535 1.349 . S
C3536 C3548 1.349 . S
C3537 C3535 1.327 . S
C3537 C3553 1.429 . S
C3537 H3559 0.950 . S
C3538 H3534 0.949 . S
C3538 C3546 1.574 . S
C3538 C3554 1.368 . S
H3539 C3547 0.950 . S
H3540 C3545 0.950 . S
H3541 C3546 0.949 . S
H3542 C3548 0.950 . S
H3543 C3549 0.950 . S
H3544 C3550 0.949 . S
C3545 H3540 0.950 . S
C3545 C3547 1.327 . S
C3545 C3551 1.429 . S
C3546 C3538 1.574 . S
C3546 H3541 0.949 . S
C3546 C3552 1.368 . S
C3547 C3531 1.349 . S
C3547 H3539 0.950 . S
C3547 C3545 1.327 . S
C3548 C3536 1.349 . S
C3548 H3542 0.950 . S
C3548 C3549 1.327 . S
C3549 H3543 0.950 . S
C3549 C3548 1.327 . S
C3549 C3553 1.429 . S
C3550 C3533 1.574 . S
C3550 H3544 0.949 . S
C3550 C3554 1.368 . S
C3551 C3532 1.429 . S
C3551 C3545 1.429 . S
C3551 C3552 1.523 . S
C3552 C3533 1.368 . S
C3552 C3546 1.368 . S
C3552 C3551 1.523 . S
C3553 C3537 1.429 . S
C3553 C3549 1.429 . S
C3553 C3554 1.523 . S
C3554 C3538 1.368 . S
C3554 C3550 1.368 . S
C3554 C3553 1.523 . S
H3555 C3530 0.950 . S
H3556 C3532 0.950 . S
H3557 C3533 0.949 . S
H3558 C3535 0.950 . S
H3559 C3537 0.950 . S
C686 C328 0.931 . S
C681 C10 0.939 . S
C711 C13 1.093 . S
C716 C356 1.065 . S
C741 C34 0.933 . S
C746 C374 0.946 . S
C776 C400 1.128 . S
C771 C44 1.203 . S
C801 C21 1.242 . S
C806 C423 1.179 1_655 S
C836 C443 0.838 . S
C831 C26 0.831 . S
C866 C471 1.160 . S
C861 C49 1.224 . S
C891 C5 0.889 . S
C896 C489 0.892 . S
C921 C62 1.164 . S
C926 C330 1.168 . S
C951 C73 0.802 . S
C956 C352 0.805 . S
C986 C376 1.192 . S
C981 C88 1.188 1_545 S
C1016 C397 0.860 . S
C1011 C99 0.856 . S
C1041 C60 0.873 . S
C1046 C420 0.877 . S
C1076 C445 1.172 . S
C1071 C75 1.169 . S
C1106 C467 0.805 . S
C1101 C86 0.802 1_545 S
C1136 C491 1.175 . S
C1131 C101 1.171 . S
C1166 C331 0.726 . S
C1161 C96 0.719 . S
C1196 C514 0.940 . S
C1191 C104 0.919 . S
C1221 C122 0.677 . S
C1226 C538 0.697 . S
C1256 C562 0.903 . S
C1251 C130 0.898 . S
C1281 C57 0.646 . S
C1286 C492 0.676 . S
C1316 C377 0.747 1_545 S
C1311 C70 0.750 . S
C1341 C117 0.840 . S
C1346 C583 0.851 . S
C1376 C608 0.820 . S
C1371 C143 0.816 . S
C1401 C164 1.055 . S
C1406 C329 1.062 1_556 S
C1436 C606 0.869 . S
C1431 C169 0.861 . S
C1461 C192 1.071 . S
C1466 C375 1.063 . S
C1491 C200 0.862 . S
C1496 C585 0.862 . S
C1526 C424 0.891 . S
C1521 C179 0.908 . S
C1556 C536 0.951 . S
C1551 C182 0.946 . S
C1586 C468 0.982 . S
C1581 C203 0.971 . S
C1616 C628 1.019 . S
C1611 C161 1.010 . S
C1646 C333 0.765 . S
C1641 C216 0.769 . S
C1671 C231 1.233 . S
C1676 C604 1.215 . S
C1706 C379 0.786 . S
C1701 C242 0.796 1_565 S
C1731 C257 1.204 . S
C1736 C582 1.186 . S
C1761 C218 1.231 . S
C1766 C421 1.212 . S
C1791 C229 0.776 . S
C1796 C540 0.771 . S
C1826 C466 1.203 . S
C1821 C244 1.221 . S
C1851 C255 0.769 . S
C1856 C632 0.766 . S
C1881 C252 1.234 . S
C1886 C332 1.230 . S
C1911 C260 1.066 . S
C1916 C517 1.028 . S
C1941 C278 1.177 . S
C1946 C447 1.171 . S
C1971 C286 1.069 . S
C1976 C561 1.009 . S
C2006 C631 1.150 . S
C2001 C213 1.155 . S
C2036 C378 1.243 . S
C2031 C226 1.248 . S
C2066 C402 0.952 . S
C2061 C273 0.982 . S
C2096 C354 0.956 . S
C2091 C299 1.008 . S
C2121 C36 0.939 . S
C2126 C650 0.931 . S
C2156 C609 1.065 . S
C2151 C39 1.093 . S
C2186 C673 0.946 . S
C2181 C8 0.933 . S
C2211 C18 1.203 . S
C2216 C584 1.128 . S
C2241 C47 1.242 . S
C2246 C515 1.178 . S
C2276 C535 0.838 . S
C2271 C0 0.831 . S
C2306 C563 1.160 . S
C2301 C23 1.224 . S
C2336 C627 0.892 . S
C2331 C31 0.889 . S
C2366 C652 1.168 . S
C2361 C153 1.163 . S
C2391 C112 0.802 . S
C2396 C605 0.805 . S
C2421 C127 1.188 . S
C2426 C675 1.192 . S
C2456 C581 0.860 . S
C2451 C138 0.856 . S
C2486 C512 0.877 . S
C2481 C151 0.873 . S
C2511 C114 1.169 . S
C2516 C537 1.172 . S
C2546 C559 0.805 . S
C2541 C125 0.807 . S
C2571 C140 1.171 . S
C2576 C629 1.175 . S
C2606 C653 0.726 . S
C2601 C135 0.719 . S
C2636 C422 0.953 . S
C2631 C65 0.918 . S
C2666 C446 0.697 . S
C2661 C83 0.677 . S
C2691 C91 0.893 . S
C2696 C470 0.903 . S
C2726 C630 0.676 . S
C2721 C148 0.646 . S
C2751 C109 0.749 . S
C2756 C676 0.750 . S
C2786 C399 0.851 . S
C2781 C78 0.840 . S
C2816 C355 0.820 . S
C2811 C52 0.816 . S
C2841 C190 1.055 . S
C2846 C651 1.062 . S
C2876 C353 0.869 . S
C2871 C195 0.861 . S
C2906 C674 1.063 1_556 S
C2901 C166 1.071 . S
C2931 C174 0.862 . S
C2936 C401 0.863 . S
C2961 C205 0.907 . S
C2966 C516 0.891 . S
C2991 C156 0.946 . S
C2996 C444 0.951 . S
C3021 C177 0.971 . S
C3026 C560 0.980 . S
C3051 C187 1.010 . S
C3056 C490 1.019 . S
C3086 C655 0.766 . S
C3081 C307 0.769 . S
C3111 C270 1.233 . S
C3116 C351 1.215 . S
C3146 C678 0.787 . S
C3141 C281 0.794 . S
C3171 C296 1.204 . S
C3176 C398 1.187 . S
C3201 C309 1.231 . S
C3206 C513 1.211 . S
C3236 C448 0.771 . S
C3231 C268 0.776 . S
C3261 C283 1.222 . S
C3266 C558 1.201 . S
C3296 C494 0.766 . S
C3291 C294 0.769 . S
C3326 C654 1.230 . S
C3321 C291 1.234 . S
C3356 C425 1.028 . S
C3351 C221 1.066 . S
C3381 C239 1.177 . S
C3386 C539 1.165 . S
C3416 C469 1.015 . S
C3411 C247 1.070 . S
C3446 C493 1.150 . S
C3441 C304 1.155 . S
C3471 C265 1.248 . S
C3476 C677 1.243 . S
C3506 C586 0.952 . S
C3501 C234 0.987 . S
C3536 C607 0.956 . S
C3531 C208 1.008 . S
