# Generated by pormake.
# Topology pyr, (3,6)-cn, num edge types: 1
# Building blocks:
#     Node 0, Type 0, BuildingBlock: WUSLED_clean_sbu_0, # of connection points: 3
#     Node 1, Type 0, BuildingBlock: WUSLED_clean_sbu_0, # of connection points: 3
#     Node 2, Type 0, BuildingBlock: WUSLED_clean_sbu_0, # of connection points: 3
#     Node 3, Type 0, BuildingBlock: WUSLED_clean_sbu_0, # of connection points: 3
#     Node 4, Type 0, BuildingBlock: WUSLED_clean_sbu_0, # of connection points: 3
#     Node 5, Type 0, BuildingBlock: WUSLED_clean_sbu_0, # of connection points: 3
#     Node 6, Type 0, BuildingBlock: WUSLED_clean_sbu_0, # of connection points: 3
#     Node 7, Type 0, BuildingBlock: WUSLED_clean_sbu_0, # of connection points: 3
#     Node 8, Type 1, BuildingBlock: PAMTUU_clean_sbu_0, # of connection points: 6
#     Node 9, Type 1, BuildingBlock: PAMTUU_clean_sbu_0, # of connection points: 6
#     Node 10, Type 1, BuildingBlock: PAMTUU_clean_sbu_0, # of connection points: 6
#     Node 11, Type 1, BuildingBlock: PAMTUU_clean_sbu_0, # of connection points: 6
#     Edge 12, Type (0, 1), BuildingBlock: XIVTED_clean_linker_0, # of connection points: 2
#     Edge 13, Type (0, 1), BuildingBlock: XIVTED_clean_linker_0, # of connection points: 2
#     Edge 14, Type (0, 1), BuildingBlock: XIVTED_clean_linker_0, # of connection points: 2
#     Edge 15, Type (0, 1), BuildingBlock: XIVTED_clean_linker_0, # of connection points: 2
#     Edge 16, Type (0, 1), BuildingBlock: XIVTED_clean_linker_0, # of connection points: 2
#     Edge 17, Type (0, 1), BuildingBlock: XIVTED_clean_linker_0, # of connection points: 2
#     Edge 18, Type (0, 1), BuildingBlock: XIVTED_clean_linker_0, # of connection points: 2
#     Edge 19, Type (0, 1), BuildingBlock: XIVTED_clean_linker_0, # of connection points: 2
#     Edge 20, Type (0, 1), BuildingBlock: XIVTED_clean_linker_0, # of connection points: 2
#     Edge 21, Type (0, 1), BuildingBlock: XIVTED_clean_linker_0, # of connection points: 2
#     Edge 22, Type (0, 1), BuildingBlock: XIVTED_clean_linker_0, # of connection points: 2
#     Edge 23, Type (0, 1), BuildingBlock: XIVTED_clean_linker_0, # of connection points: 2
#     Edge 24, Type (0, 1), BuildingBlock: XIVTED_clean_linker_0, # of connection points: 2
#     Edge 25, Type (0, 1), BuildingBlock: XIVTED_clean_linker_0, # of connection points: 2
#     Edge 26, Type (0, 1), BuildingBlock: XIVTED_clean_linker_0, # of connection points: 2
#     Edge 27, Type (0, 1), BuildingBlock: XIVTED_clean_linker_0, # of connection points: 2
#     Edge 28, Type (0, 1), BuildingBlock: XIVTED_clean_linker_0, # of connection points: 2
#     Edge 29, Type (0, 1), BuildingBlock: XIVTED_clean_linker_0, # of connection points: 2
#     Edge 30, Type (0, 1), BuildingBlock: XIVTED_clean_linker_0, # of connection points: 2
#     Edge 31, Type (0, 1), BuildingBlock: XIVTED_clean_linker_0, # of connection points: 2
#     Edge 32, Type (0, 1), BuildingBlock: XIVTED_clean_linker_0, # of connection points: 2
#     Edge 33, Type (0, 1), BuildingBlock: XIVTED_clean_linker_0, # of connection points: 2
#     Edge 34, Type (0, 1), BuildingBlock: XIVTED_clean_linker_0, # of connection points: 2
#     Edge 35, Type (0, 1), BuildingBlock: XIVTED_clean_linker_0, # of connection points: 2
# Relax obj value: 0.075
# Max RMSD: 0.121
# Mean RMSD: 0.048
data_MOF--net-pyr--node1-WUSLED_clean_sbu_0--node2-PAMTUU_clean_sbu_0--edge1-XIVTED_clean_linker_0
_symmetry_space_group_name_H-M    P1
_symmetry_Int_Tables_number       1
_symmetry_cell_setting            triclinic
loop_
_symmetry_equiv_pos_as_xyz
'x, y, z'
_cell_length_a     49.550558
_cell_length_b     51.16609
_cell_length_c     49.693624
_cell_angle_alpha  90.216097
_cell_angle_beta   89.713821
_cell_angle_gamma 99.778662
loop_
_atom_site_label
_atom_site_type_symbol
_atom_site_fract_x
_atom_site_fract_y
_atom_site_fract_z
_atom_type_partial_charge
C0 C 0.28608 0.29135 0.13922 0.0
C1 C 0.25955 0.28582 0.15015 0.0
C2 C 0.24938 0.32679 0.13177 0.0
C3 C 0.24129 0.30324 0.14627 0.0
C4 C 0.27616 0.33248 0.12122 0.0
C5 C 0.2944 0.31481 0.12493 0.0
U6 U 0.30183 0.24111 0.18532 0.0
O7 O 0.31182 0.2013 0.18141 0.0
O8 O 0.33968 0.23224 0.20341 0.0
C9 C 0.3358 0.20825 0.19298 0.0
C10 C 0.30533 0.27343 0.14489 0.0
C11 C 0.35887 0.20118 0.178 0.0
C12 C 0.37848 0.18911 0.13603 0.0
C13 C 0.35864 0.20022 0.14977 0.0
C14 C 0.40041 0.18256 0.17847 0.0
C15 C 0.39886 0.17922 0.15042 0.0
C16 C 0.38035 0.19329 0.19221 0.0
C17 C 0.25248 0.22571 0.24211 0.0
C18 C 0.25691 0.18916 0.27144 0.0
C19 C 0.22037 0.21481 0.27838 0.0
C20 C 0.22973 0.23067 0.25658 0.0
C21 C 0.23386 0.19394 0.28589 0.0
C22 C 0.26621 0.20504 0.24954 0.0
C23 C 0.26122 0.2415 0.21861 0.0
O24 O 0.31946 0.27927 0.16707 0.0
O25 O 0.29484 0.24811 0.1426 0.0
O26 O 0.25879 0.22796 0.196 0.0
O27 O 0.28483 0.25745 0.22123 0.0
H28 H 0.25291 0.26798 0.16174 0.0
H29 H 0.22072 0.29802 0.15431 0.0
H30 H 0.2831 0.35069 0.11033 0.0
H31 H 0.31503 0.31957 0.11694 0.0
H32 H 0.37672 0.18668 0.11441 0.0
H33 H 0.34233 0.20667 0.13846 0.0
H34 H 0.41633 0.17561 0.18993 0.0
H35 H 0.38093 0.19431 0.21398 0.0
H36 H 0.26758 0.17317 0.27697 0.0
H37 H 0.20216 0.21843 0.28889 0.0
H38 H 0.21896 0.24649 0.25074 0.0
H39 H 0.28384 0.20106 0.23824 0.0
C40 C 0.15514 0.81509 0.67622 0.0
C41 C 0.15902 0.84056 0.68791 0.0
C42 C 0.12361 0.85283 0.65911 0.0
C43 C 0.14335 0.85933 0.67939 0.0
C44 C 0.1186 0.82674 0.64899 0.0
C45 C 0.13427 0.80812 0.65741 0.0
U46 U 0.20646 0.79009 0.7214 0.0
O47 O 0.21555 0.75018 0.72998 0.0
O48 O 0.24732 0.78095 0.71277 0.0
C49 C 0.24092 0.75637 0.72123 0.0
C50 C 0.17389 0.7963 0.68162 0.0
C51 C 0.25246 0.73617 0.70595 0.0
C52 C 0.26471 0.71637 0.66404 0.0
C53 C 0.25016 0.73355 0.6779 0.0
C54 C 0.28329 0.70404 0.70622 0.0
C55 C 0.28197 0.70179 0.67801 0.0
C56 C 0.26862 0.72092 0.71996 0.0
C57 C 0.22335 0.82526 0.78741 0.0
C58 C 0.26316 0.81759 0.81228 0.0
C59 C 0.23995 0.8542 0.82429 0.0
C60 C 0.22086 0.84676 0.80411 0.0
C61 C 0.26151 0.84007 0.82791 0.0
C62 C 0.24409 0.81019 0.79194 0.0
C63 C 0.20669 0.82112 0.76328 0.0
O64 O 0.20002 0.80679 0.68191 0.0
O65 O 0.16665 0.77917 0.70111 0.0
O66 O 0.19044 0.79806 0.76142 0.0
O67 O 0.2203 0.82835 0.74104 0.0
H68 H 0.17491 0.84625 0.70275 0.0
H69 H 0.1477 0.87926 0.68755 0.0
H70 H 0.10314 0.82096 0.63378 0.0
H71 H 0.13079 0.78852 0.64842 0.0
H72 H 0.26281 0.71488 0.64237 0.0
H73 H 0.23778 0.74524 0.66672 0.0
H74 H 0.29663 0.6937 0.71777 0.0
H75 H 0.27083 0.72289 0.7416 0.0
H76 H 0.28016 0.80696 0.81459 0.0
H77 H 0.23888 0.8719 0.83602 0.0
H78 H 0.20514 0.85867 0.80053 0.0
H79 H 0.2464 0.79374 0.77882 0.0
C80 C 0.6338 0.40296 0.79294 0.0
C81 C 0.64805 0.42724 0.78314 0.0
C82 C 0.61427 0.42804 0.7465 0.0
C83 C 0.63839 0.43963 0.76045 0.0
C84 C 0.60048 0.40351 0.75673 0.0
C85 C 0.60991 0.3915 0.77946 0.0
U86 U 0.66681 0.37103 0.85892 0.0
O87 O 0.63804 0.34811 0.88835 0.0
O88 O 0.66319 0.32727 0.86147 0.0
C89 C 0.64427 0.32534 0.88033 0.0
C90 C 0.64293 0.38863 0.81671 0.0
C91 C 0.6336 0.29955 0.89395 0.0
C92 C 0.59739 0.26084 0.89941 0.0
C93 C 0.60761 0.28544 0.88737 0.0
C94 C 0.63895 0.26383 0.9252 0.0
C95 C 0.61288 0.24932 0.9185 0.0
C96 C 0.64912 0.2885 0.9131 0.0
C97 C 0.73731 0.40833 0.89434 0.0
C98 C 0.77122 0.40273 0.92862 0.0
C99 C 0.77694 0.44293 0.90239 0.0
C100 C 0.75262 0.43336 0.88866 0.0
C101 C 0.78682 0.42797 0.92277 0.0
C102 C 0.74682 0.39297 0.91449 0.0
C103 C 0.71232 0.39932 0.87788 0.0
O104 O 0.66198 0.37371 0.81458 0.0
O105 O 0.63748 0.39483 0.84161 0.0
O106 O 0.68787 0.40179 0.88687 0.0
O107 O 0.71211 0.38059 0.85968 0.0
H108 H 0.66661 0.4367 0.79303 0.0
H109 H 0.64999 0.45845 0.7542 0.0
H110 H 0.58241 0.39282 0.74717 0.0
H111 H 0.59845 0.37278 0.7864 0.0
H112 H 0.5771 0.25105 0.89382 0.0
H113 H 0.59512 0.29343 0.8727 0.0
H114 H 0.65192 0.25595 0.93942 0.0
H115 H 0.66924 0.29889 0.91862 0.0
H116 H 0.77762 0.3905 0.94427 0.0
H117 H 0.78822 0.46201 0.8964 0.0
H118 H 0.74592 0.44555 0.87309 0.0
H119 H 0.73548 0.37353 0.9193 0.0
C120 C 0.80307 0.64494 0.39248 0.0
C121 C 0.79463 0.66101 0.41284 0.0
C122 C 0.75392 0.62727 0.42248 0.0
C123 C 0.77035 0.65224 0.42771 0.0
C124 C 0.76268 0.61164 0.40181 0.0
C125 C 0.78682 0.62026 0.3873 0.0
U126 U 0.87418 0.67925 0.35585 0.0
O127 O 0.90203 0.65414 0.33802 0.0
O128 O 0.87866 0.67645 0.31129 0.0
C129 C 0.8967 0.66049 0.31323 0.0
C130 C 0.828 0.65272 0.37547 0.0
C131 C 0.90726 0.64719 0.28939 0.0
C132 C 0.90815 0.60852 0.26021 0.0
C133 C 0.89805 0.62037 0.28309 0.0
C134 C 0.93671 0.65016 0.24936 0.0
C135 C 0.92776 0.62313 0.24262 0.0
C136 C 0.92677 0.66181 0.27228 0.0
C137 C 0.90774 0.74978 0.39117 0.0
C138 C 0.93667 0.79342 0.39266 0.0
C139 C 0.90748 0.77848 0.43058 0.0
C140 C 0.89814 0.75431 0.41713 0.0
C141 C 0.9269 0.79861 0.41853 0.0
C142 C 0.92705 0.76957 0.37919 0.0
C143 C 0.89851 0.72486 0.37584 0.0
O144 O 0.82883 0.67137 0.35722 0.0
O145 O 0.85223 0.64941 0.38412 0.0
O146 O 0.90313 0.70187 0.38475 0.0
O147 O 0.87961 0.72325 0.35717 0.0
H148 H 0.80674 0.68021 0.41726 0.0
H149 H 0.76468 0.66492 0.44349 0.0
H150 H 0.75067 0.59271 0.39632 0.0
H151 H 0.79269 0.60755 0.37159 0.0
H152 H 0.90056 0.58773 0.25672 0.0
H153 H 0.88294 0.60852 0.29584 0.0
H154 H 0.95113 0.6629 0.23682 0.0
H155 H 0.9343 0.68254 0.27654 0.0
H156 H 0.95211 0.8076 0.38266 0.0
H157 H 0.89901 0.78144 0.45025 0.0
H158 H 0.88327 0.73934 0.42688 0.0
H159 H 0.93496 0.7665 0.35927 0.0
C160 C 0.74776 0.74402 0.90174 0.0
C161 C 0.76627 0.73996 0.88128 0.0
C162 C 0.78745 0.71216 0.91107 0.0
C163 C 0.78593 0.7241 0.88588 0.0
C164 C 0.76837 0.71566 0.93127 0.0
C165 C 0.74866 0.73162 0.92663 0.0
U166 U 0.73337 0.79629 0.85743 0.0
O167 O 0.6966 0.81004 0.84258 0.0
O168 O 0.72856 0.8376 0.86384 0.0
C169 C 0.70411 0.83385 0.85291 0.0
C170 C 0.72997 0.76359 0.8976 0.0
C171 C 0.68342 0.84396 0.86867 0.0
C172 C 0.65467 0.84293 0.90829 0.0
C173 C 0.67327 0.83171 0.89273 0.0
C174 C 0.65634 0.87828 0.87548 0.0
C175 C 0.64617 0.86633 0.89971 0.0
C176 C 0.67484 0.86711 0.86006 0.0
C177 C 0.7781 0.81023 0.79771 0.0
C178 C 0.78116 0.85317 0.77676 0.0
C179 C 0.8044 0.81946 0.75702 0.0
C180 C 0.79425 0.80195 0.77738 0.0
C181 C 0.79847 0.84534 0.75705 0.0
C182 C 0.77087 0.83558 0.79699 0.0
C183 C 0.77006 0.79313 0.82056 0.0
O184 O 0.74303 0.78815 0.89925 0.0
O185 O 0.71387 0.75913 0.87649 0.0
O186 O 0.74514 0.77944 0.81927 0.0
O187 O 0.77599 0.80483 0.84387 0.0
H188 H 0.76601 0.74968 0.86199 0.0
H189 H 0.80021 0.72154 0.86989 0.0
H190 H 0.76937 0.70693 0.95098 0.0
H191 H 0.73476 0.73497 0.94267 0.0
H192 H 0.64705 0.83349 0.92695 0.0
H193 H 0.68004 0.81382 0.89959 0.0
H194 H 0.65057 0.89669 0.86881 0.0
H195 H 0.68287 0.87685 0.84166 0.0
H196 H 0.77633 0.87305 0.77696 0.0
H197 H 0.81804 0.81323 0.74211 0.0
H198 H 0.79979 0.78236 0.77781 0.0
H199 H 0.75814 0.84207 0.8126 0.0
C200 C 0.79652 0.24634 0.26722 0.0
C201 C 0.80205 0.22032 0.26588 0.0
C202 C 0.77412 0.21277 0.22607 0.0
C203 C 0.79067 0.20346 0.2453 0.0
C204 C 0.7704 0.23926 0.22629 0.0
C205 C 0.78161 0.25603 0.24686 0.0
U206 U 0.83188 0.26077 0.33454 0.0
O207 O 0.84487 0.29944 0.35435 0.0
O208 O 0.81353 0.2694 0.37309 0.0
C209 C 0.82581 0.29427 0.37303 0.0
C210 C 0.80223 0.26217 0.2915 0.0
C211 C 0.80715 0.31367 0.37596 0.0
C212 C 0.76612 0.3305 0.36243 0.0
C213 C 0.78585 0.31439 0.35746 0.0
C214 C 0.78945 0.34614 0.40367 0.0
C215 C 0.76759 0.34612 0.38583 0.0
C216 C 0.80911 0.33004 0.39874 0.0
C217 C 0.88163 0.21257 0.35463 0.0
C218 C 0.90272 0.20715 0.39778 0.0
C219 C 0.90849 0.17766 0.36067 0.0
C220 C 0.89282 0.19125 0.34436 0.0
C221 C 0.91344 0.18523 0.38766 0.0
C222 C 0.88683 0.22072 0.38135 0.0
C223 C 0.86319 0.22435 0.33722 0.0
O224 O 0.79288 0.24992 0.31369 0.0
O225 O 0.8271 0.27579 0.29369 0.0
O226 O 0.87198 0.24846 0.32824 0.0
O227 O 0.83724 0.22018 0.3443 0.0
H228 H 0.81345 0.21259 0.28168 0.0
H229 H 0.79309 0.1828 0.24548 0.0
H230 H 0.75707 0.24635 0.21179 0.0
H231 H 0.77704 0.27598 0.2479 0.0
H232 H 0.7492 0.33003 0.3486 0.0
H233 H 0.78393 0.30179 0.33976 0.0
H234 H 0.7907 0.35784 0.42197 0.0
H235 H 0.82528 0.32964 0.41324 0.0
H236 H 0.90638 0.21362 0.41841 0.0
H237 H 0.91586 0.16059 0.35232 0.0
H238 H 0.88877 0.18458 0.32382 0.0
H239 H 0.87822 0.23716 0.38957 0.0
C240 C 0.30329 0.63952 0.16365 0.0
C241 C 0.28862 0.6569 0.15054 0.0
C242 C 0.25371 0.6195 0.13547 0.0
C243 C 0.26432 0.64703 0.13643 0.0
C244 C 0.26868 0.60241 0.149 0.0
C245 C 0.29309 0.61224 0.16253 0.0
U246 U 0.37386 0.67432 0.20136 0.0
O247 O 0.37708 0.67022 0.2458 0.0
O248 O 0.40004 0.64742 0.21876 0.0
C249 C 0.39388 0.65301 0.24364 0.0
C250 C 0.32843 0.64876 0.17976 0.0
C251 C 0.40521 0.64069 0.26761 0.0
C252 C 0.41301 0.60148 0.29289 0.0
C253 C 0.40285 0.61301 0.27007 0.0
C254 C 0.42912 0.64509 0.31096 0.0
C255 C 0.42649 0.61723 0.31395 0.0
C256 C 0.4184 0.65652 0.28844 0.0
C257 C 0.4086 0.74489 0.16684 0.0
C258 C 0.44059 0.78672 0.16225 0.0
C259 C 0.40391 0.77584 0.13025 0.0
C260 C 0.39471 0.75173 0.14399 0.0
C261 C 0.42714 0.79395 0.13911 0.0
C262 C 0.43162 0.76266 0.17561 0.0
C263 C 0.40004 0.71999 0.18265 0.0
O264 O 0.35283 0.64501 0.17179 0.0
O265 O 0.32871 0.66721 0.1983 0.0
O266 O 0.38032 0.7183 0.20067 0.0
O267 O 0.40457 0.69691 0.17366 0.0
H268 H 0.29593 0.67808 0.15113 0.0
H269 H 0.25412 0.66115 0.12614 0.0
H270 H 0.26145 0.58128 0.14984 0.0
H271 H 0.30381 0.59838 0.17271 0.0
H272 H 0.40977 0.58007 0.29403 0.0
H273 H 0.39264 0.60017 0.2545 0.0
H274 H 0.43979 0.6584 0.32584 0.0
H275 H 0.42081 0.67792 0.28713 0.0
H276 H 0.45794 0.79976 0.17068 0.0
H277 H 0.39286 0.77997 0.1125 0.0
H278 H 0.37682 0.73848 0.13672 0.0
H279 H 0.44269 0.75804 0.19323 0.0
C280 C 0.1338 0.2986 0.66334 0.0
C281 C 0.15245 0.28725 0.64758 0.0
C282 C 0.11645 0.24962 0.63548 0.0
C283 C 0.14382 0.26318 0.63364 0.0
C284 C 0.09812 0.26135 0.6515 0.0
C285 C 0.10662 0.28545 0.66489 0.0
U286 U 0.16943 0.36768 0.69894 0.0
O287 O 0.14413 0.39544 0.71663 0.0
O288 O 0.16609 0.37175 0.74336 0.0
C289 C 0.14978 0.38941 0.74142 0.0
C290 C 0.14164 0.32278 0.68023 0.0
C291 C 0.13862 0.40178 0.76556 0.0
C292 C 0.11416 0.39757 0.80876 0.0
C293 C 0.12478 0.38601 0.78609 0.0
C294 C 0.13154 0.44111 0.79128 0.0
C295 C 0.11753 0.42545 0.81212 0.0
C296 C 0.1416 0.42947 0.76832 0.0
C297 C 0.24074 0.40047 0.6607 0.0
C298 C 0.27525 0.43698 0.64448 0.0
C299 C 0.28081 0.3918 0.63537 0.0
C300 C 0.25614 0.38253 0.64928 0.0
C301 C 0.29094 0.41927 0.63281 0.0
C302 C 0.25055 0.42772 0.65797 0.0
C303 C 0.21531 0.39183 0.67678 0.0
O304 O 0.1616 0.32387 0.69773 0.0
O305 O 0.13768 0.34613 0.67172 0.0
O306 O 0.19117 0.39644 0.6692 0.0
O307 O 0.21447 0.37343 0.69532 0.0
H308 H 0.17363 0.29686 0.64616 0.0
H309 H 0.15871 0.25535 0.62137 0.0
H310 H 0.07716 0.25171 0.65446 0.0
H311 H 0.09188 0.29354 0.6772 0.0
H312 H 0.103 0.38439 0.82348 0.0
H313 H 0.12179 0.36459 0.78445 0.0
H314 H 0.13528 0.46251 0.79271 0.0
H315 H 0.15223 0.44222 0.75289 0.0
H316 H 0.28222 0.45818 0.64381 0.0
H317 H 0.29177 0.37733 0.62647 0.0
H318 H 0.24913 0.36137 0.6511 0.0
H319 H 0.23929 0.44201 0.66685 0.0
Tb320 Tb 0.04534 0.02451 0.50759 0.0
Tb321 Tb 0.99556 0.02269 0.54789 0.0
C322 C 0.9958 0.97742 0.50588 0.0
C323 C 0.09933 0.04204 0.45685 0.0
C324 C 0.12776 0.0776 0.4204 0.0
C325 C 0.1155 0.05226 0.41178 0.0
C326 C 0.10157 0.03449 0.43001 0.0
C327 C 0.11048 0.06774 0.46539 0.0
C328 C 0.12489 0.08543 0.44721 0.0
C329 C 0.08347 0.02319 0.47482 0.0
O330 O 0.02545 0.05617 0.49331 0.0
O331 O 0.98327 0.04021 0.51116 0.0
O332 O 1.01738 0.06306 0.55092 0.0
O333 O 0.05954 0.05668 0.53644 0.0
O334 O 0.95334 1.01524 0.55451 0.0
O335 O 0.98156 0.03233 0.58572 0.0
O336 O 0.02591 1.00556 0.5706 0.0
O337 O 0.04823 0.99226 0.53425 0.0
O338 O 1.01185 0.99533 0.49172 0.0
O339 O 0.98998 0.98252 0.53095 0.0
C340 C 0.99909 0.05621 0.49492 0.0
O341 O 0.0874 0.02693 0.5006 0.0
O342 O 0.05768 1.01752 0.46855 0.0
C343 C 0.04382 0.07119 0.54903 0.0
C344 C 0.94344 1.00275 0.59875 0.0
C345 C 0.91819 0.96591 0.63562 0.0
C346 C 0.91726 0.99295 0.63931 0.0
C347 C 0.92992 1.01133 0.62088 0.0
C348 C 0.94532 0.97589 0.59543 0.0
C349 C 0.93257 0.95745 0.61381 0.0
C350 C 0.9564 0.02213 0.57975 0.0
C351 C 0.04258 0.99103 0.55989 0.0
H352 H 0.11686 0.0461 0.391 0.0
H353 H 0.09233 1.01489 0.42313 0.0
H354 H 0.10822 0.07406 0.486 0.0
H355 H 0.13428 0.10492 0.45422 0.0
H356 H 0.90597 0.99978 0.65589 0.0
H357 H 0.92886 0.03215 0.62369 0.0
H358 H 0.95634 0.96922 0.57855 0.0
H359 H 0.93364 0.93665 0.61085 0.0
Tb360 Tb 0.54298 0.02528 0.05023 0.0
Tb361 Tb 0.49687 1.01637 1.00415 0.0
C362 C 0.54895 0.98956 0.99943 0.0
C363 C 0.59831 0.05713 0.09503 0.0
C364 C 0.63776 0.098 0.1146 0.0
C365 C 0.64567 0.07509 0.10381 0.0
C366 C 0.62602 0.05477 0.09411 0.0
C367 C 0.59042 0.0806 0.10452 0.0
C368 C 0.61012 0.10095 0.11432 0.0
C369 C 0.5782 0.03452 0.0866 0.0
O370 O 0.55031 0.06271 0.02731 0.0
O371 O 0.52537 0.05069 0.98894 0.0
O372 O 0.49174 0.04999 0.028 0.0
O373 O 0.50456 0.03293 0.06653 0.0
O374 O 0.48279 1.01277 0.96457 0.0
O375 O 0.45479 1.01367 0.99831 0.0
O376 O 0.48488 0.98317 0.03276 0.0
O377 O 0.52396 0.98459 0.05781 0.0
O378 O 0.56045 1.00301 1.01995 0.0
O379 O 0.52423 0.99068 0.99101 0.0
C380 C 0.54303 0.06789 1.0026 0.0
O381 O 0.55247 0.03606 0.09019 0.0
O382 O 0.58286 0.02472 0.06321 0.0
C383 C 0.49111 0.04891 0.05402 0.0
C384 C 0.43909 0.98703 0.96186 0.0
C385 C 0.40395 0.94519 0.93856 0.0
C386 C 0.39451 0.96877 0.94479 0.0
C387 C 0.41206 0.98964 0.95649 0.0
C388 C 0.44823 0.96291 0.9569 0.0
C389 C 0.43061 0.94198 0.94506 0.0
C390 C 0.4573 1.00983 0.97253 0.0
C391 C 0.49957 0.97253 0.05055 0.0
H392 H 0.66683 0.07225 0.10417 0.0
H393 H 0.63239 0.03684 0.08663 0.0
H394 H 0.56912 0.083 0.10504 0.0
H395 H 0.6037 0.11864 0.12238 0.0
H396 H 0.37392 0.97137 0.93955 0.0
H397 H 0.40479 1.00807 0.96064 0.0
H398 H 0.46906 0.96057 0.96141 0.0
H399 H 0.43805 0.92385 0.9399 0.0
Tb400 Tb 0.5285 0.49631 0.51499 0.0
Tb401 Tb 0.51837 0.5508 0.5456 0.0
C402 C 0.50035 0.54032 0.48392 0.0
C403 C 0.56958 0.45136 0.47974 0.0
C404 C 0.61578 0.43501 0.4557 0.0
C405 C 0.59177 0.43487 0.44083 0.0
C406 C 0.56883 0.4429 0.45278 0.0
C407 C 0.59422 0.45265 0.49418 0.0
C408 C 0.61701 0.44435 0.4823 0.0
C409 C 0.54415 0.45663 0.49313 0.0
O410 O 0.56741 0.52362 0.51286 0.0
O411 O 0.55686 0.56443 0.52402 0.0
O412 O 0.54666 0.53247 0.57081 0.0
O413 O 0.53075 0.48989 0.55853 0.0
O414 O 0.51188 0.5904 0.54717 0.0
O415 O 0.51085 0.56703 0.58325 0.0
O416 O 0.48105 0.52195 0.55239 0.0
O417 O 0.48622 0.4842 0.52854 0.0
O418 O 0.51165 0.51869 0.4829 0.0
O419 O 0.49902 0.55362 0.5065 0.0
C420 C 0.57373 0.54964 0.51378 0.0
O421 O 0.54574 0.46189 0.51873 0.0
O422 O 0.52965 0.47182 0.48074 0.0
C423 C 0.54365 0.5069 0.57591 0.0
C424 C 0.47934 0.59681 0.58124 0.0
C425 C 0.43038 0.61314 0.59927 0.0
C426 C 0.45031 0.60805 0.6177 0.0
C427 C 0.47443 0.60002 0.60878 0.0
C428 C 0.45923 0.60128 0.56269 0.0
C429 C 0.43505 0.60945 0.57163 0.0
C430 C 0.5055 0.58881 0.57267 0.0
C431 C 0.47187 0.49755 0.54426 0.0
H432 H 0.59038 0.42744 0.42035 0.0
H433 H 0.55017 0.44164 0.44123 0.0
H434 H 0.59567 0.45919 0.51496 0.0
H435 H 0.63534 0.44445 0.49413 0.0
H436 H 0.44765 0.61095 0.63908 0.0
H437 H 0.48949 0.59656 0.62349 0.0
H438 H 0.46219 0.59862 0.54131 0.0
H439 H 0.41999 0.61281 0.55689 0.0
Tb440 Tb 0.0205 0.55199 1.01172 0.0
Tb441 Tb 0.02174 0.49707 0.04244 0.0
C442 C 0.04584 0.50503 0.98265 0.0
C443 C 0.99103 0.60441 0.97869 0.0
C444 C 0.94478 0.6239 0.96062 0.0
C445 C 0.96767 0.62436 0.94371 0.0
C446 C 0.99065 0.6148 0.95275 0.0
C447 C 0.96789 0.60305 0.99541 0.0
C448 C 0.94498 0.61292 0.98649 0.0
C449 C 1.01512 0.59373 0.98726 0.0
O450 O 0.97838 0.53033 1.00868 0.0
O451 O 0.98445 0.48802 1.01877 0.0
O452 O 0.99471 0.51768 0.06701 0.0
O453 O 1.01185 0.55987 0.05407 0.0
O454 O 0.0193 0.45576 0.04332 0.0
O455 O 0.02521 0.47911 0.07978 0.0
O456 O 0.06054 0.52209 0.05347 0.0
O457 O 0.06255 0.55849 0.02602 0.0
O458 O 0.03678 0.52772 0.98099 0.0
O459 O 0.04446 0.49172 1.00538 0.0
C460 C 0.96947 0.50456 1.00899 0.0
O461 O 0.01914 0.59272 1.01305 0.0
O462 O 0.01858 0.57198 0.97521 0.0
C463 C 0.99821 0.54338 0.07151 0.0
C464 C 0.05011 0.44448 0.07567 0.0
C465 C 0.09735 0.42461 0.09055 0.0
C466 C 0.07919 0.43122 0.11026 0.0
C467 C 0.0557 0.44087 0.10285 0.0
C468 C 0.06857 0.43861 0.05588 0.0
C469 C 0.09188 0.42853 0.06326 0.0
C470 C 0.02607 0.45619 0.06865 0.0
C471 C 0.07338 0.54497 0.04428 0.0
H472 H 0.96785 0.63211 0.92345 0.0
H473 H 1.00812 0.61537 0.93943 0.0
H474 H 0.96755 0.59451 1.01536 0.0
H475 H 0.92771 0.61245 1.00004 0.0
H476 H 0.08315 0.42907 0.13147 0.0
H477 H 0.04202 0.44586 0.1184 0.0
H478 H 0.06505 0.44175 0.03472 0.0
H479 H 0.1053 0.4234 0.04756 0.0
H480 H 0.22703 0.14 0.28714 0.0
H481 H 0.12959 0.13077 0.41415 0.0
H482 H 0.21511 0.20837 0.3342 0.0
H483 H 0.16436 0.06418 0.38443 0.0
H484 H 0.15886 0.15961 0.38298 0.0
H485 H 0.20276 0.11128 0.32161 0.0
C486 C 0.21974 0.14891 0.30498 0.0
C487 C 0.22275 0.17648 0.3079 0.0
C488 C 0.16012 0.13869 0.38344 0.0
C489 C 0.19468 0.14408 0.34669 0.0
C490 C 0.1435 0.12232 0.40115 0.0
C491 C 0.14466 0.0952 0.40166 0.0
C492 C 0.17768 0.12765 0.36619 0.0
C493 C 0.16261 0.08498 0.38424 0.0
C494 C 0.20578 0.13258 0.32448 0.0
C495 C 0.21267 0.18714 0.3311 0.0
N496 N 0.17843 0.10128 0.36703 0.0
N497 N 0.19874 0.17085 0.34958 0.0
H498 H 0.27854 0.82322 0.87612 0.0
H499 H 0.39611 0.95039 0.88601 0.0
H500 H 0.2968 0.88381 0.81555 0.0
H501 H 0.37371 0.89775 0.95296 0.0
H502 H 0.36373 0.9217 0.85776 0.0
H503 H 0.31694 0.84629 0.9032 0.0
C504 C 0.29088 0.84125 0.86859 0.0
C505 C 0.28482 0.852 0.84399 0.0
C506 C 0.36598 0.91613 0.87852 0.0
C507 C 0.32812 0.87792 0.87401 0.0
C508 C 0.38448 0.93241 0.89448 0.0
C509 C 0.38722 0.92604 0.92146 0.0
C510 C 0.34999 0.89353 0.88986 0.0
C511 C 0.3719 0.90289 0.93201 0.0
C512 C 0.3126 0.85433 0.88388 0.0
C513 C 0.30099 0.87523 0.83465 0.0
N514 N 0.35354 0.88737 0.91611 0.0
N515 N 0.32192 0.88749 0.84976 0.0
H516 H 0.56256 0.41699 0.7215 0.0
H517 H 0.5856 0.53098 0.60936 0.0
H518 H 0.64028 0.46971 0.71316 0.0
H519 H 0.52645 0.45925 0.60146 0.0
H520 H 0.60311 0.51281 0.65047 0.0
H521 H 0.54683 0.43573 0.68117 0.0
C522 C 0.57681 0.4322 0.7115 0.0
C523 C 0.60354 0.44089 0.72161 0.0
C524 C 0.58627 0.50107 0.63975 0.0
C525 C 0.58412 0.46386 0.67452 0.0
C526 C 0.57614 0.51151 0.61627 0.0
C527 C 0.55442 0.49672 0.60161 0.0
C528 C 0.57429 0.47581 0.64925 0.0
C529 C 0.54325 0.47146 0.61177 0.0
C530 C 0.56736 0.4432 0.68818 0.0
C531 C 0.6196 0.46188 0.7071 0.0
N532 N 0.55308 0.46202 0.63483 0.0
N533 N 0.60967 0.47255 0.68465 0.0
H534 H 0.97528 0.64052 0.21201 0.0
H535 H 0.96118 0.51772 0.10905 0.0
H536 H 0.90614 0.57629 0.21452 0.0
H537 H 1.0102 0.59399 0.09259 0.0
H538 H 0.94409 0.53627 0.15035 0.0
H539 H 0.99102 0.62159 0.17127 0.0
C540 C 0.96297 0.62265 0.20428 0.0
C541 C 0.93865 0.61065 0.21752 0.0
C542 C 0.95854 0.54896 0.13766 0.0
C543 C 0.95807 0.58782 0.17013 0.0
C544 C 0.9684 0.53834 0.114 0.0
C545 C 0.98718 0.55422 0.09691 0.0
C546 C 0.96779 0.57564 0.1448 0.0
C547 C 0.99567 0.58086 0.10478 0.0
C548 C 0.97239 0.61163 0.18078 0.0
C549 C 0.925 0.58665 0.20596 0.0
N550 N 0.98612 0.59057 0.12801 0.0
N551 N 0.93489 0.57614 0.18326 0.0
H552 H 0.42371 0.18617 0.10086 0.0
H553 H 0.47871 0.04858 0.10747 0.0
H554 H 0.41141 0.13291 0.1688 0.0
H555 H 0.47415 0.09257 0.03403 0.0
H556 H 0.45822 0.08191 0.1318 0.0
H557 H 0.44722 0.15447 0.07722 0.0
C558 C 0.4262 0.16796 0.11086 0.0
C559 C 0.41583 0.1622 0.13685 0.0
C560 C 0.46172 0.08421 0.11035 0.0
C561 C 0.44243 0.12613 0.11017 0.0
C562 C 0.47337 0.06524 0.09654 0.0
C563 C 0.478 0.06793 0.06886 0.0
C564 C 0.45502 0.10597 0.09628 0.0
C565 C 0.47072 0.08975 0.05544 0.0
C566 C 0.43954 0.14993 0.09741 0.0
C567 C 0.41964 0.13842 0.14902 0.0
N568 N 0.45961 0.10806 0.06935 0.0
N569 N 0.43259 0.1212 0.13551 0.0
H570 H 0.10189 0.89367 0.68311 0.0
H571 H 0.07045 0.95358 0.54082 0.0
H572 H 0.11591 0.85961 0.60574 0.0
H573 H 0.04087 0.98303 0.61504 0.0
H574 H 0.08924 0.92065 0.5658 0.0
H575 H 0.08139 0.92804 0.66008 0.0
C576 C 0.10058 0.89336 0.66137 0.0
C577 C 0.11035 0.87354 0.64634 0.0
C578 C 0.07866 0.93421 0.5768 0.0
C579 C 0.08719 0.91263 0.62007 0.0
C580 C 0.06792 0.95322 0.56249 0.0
C581 C 0.05404 0.97124 0.57586 0.0
C582 C 0.07574 0.93303 0.60486 0.0
C583 C 0.05142 0.9695 0.60397 0.0
C584 C 0.08881 0.91287 0.64829 0.0
C585 C 0.10815 0.87407 0.61823 0.0
N586 N 0.06227 0.9507 0.61764 0.0
N587 N 0.0969 0.89325 0.60611 0.0
H588 H 0.82478 0.40062 0.94631 0.0
H589 H 0.93209 0.53158 0.98528 0.0
H590 H 0.81017 0.48045 0.93298 0.0
H591 H 0.94347 0.45242 1.00625 0.0
H592 H 0.88776 0.51304 0.96546 0.0
H593 H 0.86795 0.41895 0.96824 0.0
C594 C 0.83032 0.42194 0.948 0.0
C595 C 0.81329 0.43876 0.93728 0.0
C596 C 0.89988 0.4997 0.97449 0.0
C597 C 0.86375 0.46006 0.96217 0.0
C598 C 0.92529 0.51032 0.98589 0.0
C599 C 0.94179 0.49366 0.99762 0.0
C600 C 0.89064 0.47211 0.97464 0.0
C601 C 0.93165 0.46618 0.99753 0.0
C602 C 0.85529 0.43243 0.96042 0.0
C603 C 0.82245 0.46635 0.94006 0.0
N604 N 0.90692 0.45634 0.98623 0.0
N605 N 0.84688 0.47599 0.95199 0.0
H606 H 0.71641 0.65563 0.44602 0.0
H607 H 0.61313 0.5245 0.49156 0.0
H608 H 0.73131 0.5755 0.43521 0.0
H609 H 0.59691 0.60312 0.50887 0.0
H610 H 0.6564 0.54383 0.47091 0.0
H611 H 0.67346 0.63795 0.46949 0.0
C612 C 0.71093 0.6344 0.44857 0.0
C613 C 0.72787 0.61722 0.43806 0.0
C614 C 0.64356 0.557 0.4793 0.0
C615 C 0.67801 0.59674 0.46478 0.0
C616 C 0.61864 0.54591 0.49124 0.0
C617 C 0.60102 0.56208 0.50225 0.0
C618 C 0.65143 0.58468 0.47807 0.0
C619 C 0.6097 0.58975 0.50082 0.0
C620 C 0.68617 0.6243 0.46188 0.0
C621 C 0.71904 0.5898 0.44206 0.0
N622 N 0.63418 0.60015 0.48895 0.0
N623 N 0.69493 0.58058 0.45485 0.0
H624 H 0.24274 0.35458 0.08603 0.0
H625 H 0.10047 0.38932 0.13113 0.0
H626 H 0.21062 0.33981 0.16659 0.0
H627 H 0.14881 0.43256 0.06786 0.0
H628 H 0.1395 0.36872 0.14299 0.0
H629 H 0.20747 0.3814 0.07741 0.0
C630 C 0.22857 0.35729 0.10205 0.0
C631 C 0.22955 0.3448 0.12702 0.0
C632 C 0.1416 0.3829 0.12667 0.0
C633 C 0.18887 0.37484 0.11702 0.0
C634 C 0.11938 0.3948 0.11994 0.0
C635 C 0.12134 0.41276 0.09846 0.0
C636 C 0.16581 0.38864 0.11155 0.0
C637 C 0.14621 0.4185 0.08427 0.0
C638 C 0.20838 0.37248 0.09704 0.0
C639 C 0.21029 0.3486 0.14684 0.0
N640 N 0.16746 0.40627 0.09094 0.0
N641 N 0.19052 0.36308 0.14131 0.0
H642 H 0.57688 0.20662 0.89699 0.0
H643 H 0.58044 0.10919 0.02351 0.0
H644 H 0.62374 0.22945 0.96889 0.0
H645 H 0.52977 0.08843 0.95376 0.0
H646 H 0.59686 0.15285 1.00369 0.0
H647 H 0.55962 0.16372 0.91736 0.0
C648 C 0.58353 0.20296 0.91711 0.0
C649 C 0.60204 0.22239 0.93097 0.0
C650 C 0.58218 0.13876 0.99266 0.0
C651 C 0.5824 0.172 0.95448 0.0
C652 C 0.57278 0.11366 1.00398 0.0
C653 C 0.55376 0.09464 0.99034 0.0
C654 C 0.57259 0.1453 0.96735 0.0
C655 C 0.54459 0.10208 0.9651 0.0
C656 C 0.57371 0.17809 0.9287 0.0
C657 C 0.61 0.21543 0.9569 0.0
N658 N 0.55405 0.12661 0.95452 0.0
N659 N 0.60025 0.19103 0.96765 0.0
H660 H 0.93089 0.81029 0.47346 0.0
H661 H 1.00037 0.96236 0.45323 0.0
H662 H 0.94579 0.84792 0.3958 0.0
H663 H 0.96742 0.93195 0.52962 0.0
H664 H 0.98396 0.9192 0.43275 0.0
H665 H 0.94679 0.85318 0.49495 0.0
C666 C 0.93729 0.82735 0.46075 0.0
C667 C 0.93681 0.82486 0.43245 0.0
C668 C 0.98017 0.92192 0.45397 0.0
C669 C 0.95596 0.87441 0.4574 0.0
C670 C 0.98956 0.94667 0.46576 0.0
C671 C 0.98507 0.95109 0.49326 0.0
C672 C 0.96631 0.90103 0.4697 0.0
C673 C 0.97113 0.92968 0.50833 0.0
C674 C 0.94661 0.85193 0.47319 0.0
C675 C 0.94615 0.84811 0.41754 0.0
N676 N 0.96233 0.90563 0.4964 0.0
N677 N 0.95535 0.87162 0.43012 0.0
H678 H 0.30794 0.71205 0.62906 0.0
H679 H 0.39917 0.5982 0.6444 0.0
H680 H 0.29786 0.655 0.69376 0.0
H681 H 0.40469 0.65122 0.57649 0.0
H682 H 0.36075 0.61752 0.66181 0.0
H683 H 0.34119 0.68822 0.60807 0.0
C684 C 0.31233 0.69432 0.63873 0.0
C685 C 0.30006 0.68578 0.66346 0.0
C686 C 0.37021 0.6248 0.64299 0.0
C687 C 0.33893 0.6587 0.63969 0.0
C688 C 0.39231 0.61387 0.63309 0.0
C689 C 0.40544 0.62318 0.60898 0.0
C690 C 0.3611 0.64531 0.62878 0.0
C691 C 0.39517 0.64321 0.59501 0.0
C692 C 0.33159 0.68084 0.6268 0.0
C693 C 0.30713 0.66282 0.67506 0.0
N694 N 0.37379 0.6537 0.6052 0.0
N695 N 0.32621 0.65027 0.66323 0.0
H696 H 0.82536 0.89461 0.76911 0.0
H697 H 0.88435 0.92091 0.62089 0.0
H698 H 0.80505 0.83965 0.70318 0.0
H699 H 0.91524 0.96772 0.69013 0.0
H700 H 0.85324 0.89184 0.65018 0.0
H701 H 0.85507 0.92425 0.7391 0.0
C702 C 0.8268 0.88909 0.74814 0.0
C703 C 0.81292 0.86481 0.73838 0.0
C704 C 0.86696 0.90836 0.65898 0.0
C705 C 0.84716 0.89795 0.70445 0.0
C706 C 0.88486 0.92472 0.64236 0.0
C707 C 0.90217 0.94657 0.65332 0.0
C708 C 0.86645 0.91416 0.68654 0.0
C709 C 0.90186 0.95112 0.68107 0.0
C710 C 0.84398 0.90578 0.73117 0.0
C711 C 0.8157 0.8582 0.71132 0.0
N712 N 0.88404 0.93504 0.69683 0.0
N713 N 0.83273 0.87471 0.6952 0.0
H714 H 0.72392 0.18958 0.24049 0.0
H715 H 0.69003 0.1182 0.09903 0.0
H716 H 0.78242 0.19503 0.17543 0.0
H717 H 0.63133 0.12 0.1633 0.0
H718 H 0.72485 0.1455 0.12645 0.0
H719 H 0.69019 0.16212 0.21242 0.0
C720 C 0.72959 0.18451 0.22027 0.0
C721 C 0.75564 0.19405 0.20999 0.0
C722 C 0.70426 0.14013 0.13436 0.0
C723 C 0.71752 0.16337 0.17775 0.0
C724 C 0.68448 0.12465 0.11878 0.0
C725 C 0.6579 0.11711 0.12897 0.0
C726 C 0.69721 0.1479 0.16018 0.0
C727 C 0.6515 0.12585 0.15455 0.0
C728 C 0.71042 0.1691 0.20422 0.0
C729 C 0.76237 0.18761 0.18379 0.0
N730 N 0.67113 0.14074 0.16935 0.0
N731 N 0.74324 0.17254 0.16835 0.0
H732 H 0.44233 0.56738 0.32013 0.0
H733 H 0.48219 0.58784 0.47688 0.0
H734 H 0.43615 0.63819 0.36578 0.0
H735 H 0.49282 0.51766 0.43256 0.0
H736 H 0.46476 0.60571 0.43624 0.0
H737 H 0.45931 0.54826 0.3604 0.0
C738 C 0.44431 0.5791 0.33839 0.0
C739 C 0.43749 0.60487 0.33877 0.0
C740 C 0.4708 0.58636 0.43528 0.0
C741 C 0.45794 0.58267 0.38567 0.0
C742 C 0.48078 0.57599 0.45868 0.0
C743 C 0.48907 0.55094 0.4586 0.0
C744 C 0.46872 0.57175 0.4111 0.0
C745 C 0.48676 0.53697 0.43392 0.0
C746 C 0.45436 0.56805 0.36152 0.0
C747 C 0.44137 0.61863 0.36358 0.0
N748 N 0.47681 0.54747 0.41136 0.0
N749 N 0.45122 0.60747 0.38566 0.0
H750 H 0.10251 0.47553 0.8188 0.0
H751 H 0.06171 0.45612 0.97578 0.0
H752 H 0.10767 0.40445 0.86379 0.0
H753 H 0.05578 0.52745 0.93188 0.0
H754 H 0.07862 0.43729 0.93489 0.0
H755 H 0.08624 0.49503 0.85945 0.0
C756 C 0.10046 0.46385 0.83701 0.0
C757 C 0.10681 0.43792 0.83714 0.0
C758 C 0.07374 0.45711 0.93414 0.0
C759 C 0.08717 0.46054 0.88447 0.0
C760 C 0.06409 0.468 0.95765 0.0
C761 C 0.05728 0.49364 0.9577 0.0
C762 C 0.07686 0.47181 0.91008 0.0
C763 C 0.06073 0.50769 0.93316 0.0
C764 C 0.09083 0.47511 0.86038 0.0
C765 C 0.10281 0.42416 0.86187 0.0
N766 N 0.07023 0.49668 0.91055 0.0
N767 N 0.09335 0.43553 0.8842 0.0
H768 H 0.60195 0.88651 0.88311 0.0
H769 H 0.58359 0.96003 1.02202 0.0
H770 H 0.64946 0.87641 0.95373 0.0
H771 H 0.54736 0.97702 0.94664 0.0
H772 H 0.60499 0.92611 0.99928 0.0
H773 H 0.57726 0.91555 0.90862 0.0
C774 C 0.60688 0.8902 0.90415 0.0
C775 C 0.62792 0.87948 0.91633 0.0
C776 C 0.59248 0.9374 0.98775 0.0
C777 C 0.60003 0.91271 0.94556 0.0
C778 C 0.58053 0.95681 1.0006 0.0
C779 C 0.56386 0.97112 0.98597 0.0
C780 C 0.5877 0.93266 0.96022 0.0
C781 C 0.55997 0.96614 0.95852 0.0
C782 C 0.5929 0.90681 0.91868 0.0
C783 C 0.63332 0.8844 0.94371 0.0
N784 N 0.57189 0.94729 0.94647 0.0
N785 N 0.6196 0.90102 0.95745 0.0
H786 H 0.90268 0.17125 0.44044 0.0
H787 H 1.01767 0.07902 0.44743 0.0
H788 H 0.95797 0.16211 0.37492 0.0
H789 H 0.9537 0.07776 0.50689 0.0
H790 H 0.99837 0.11233 0.42216 0.0
H791 H 0.92446 0.14088 0.46733 0.0
C792 C 0.91961 0.16316 0.4318 0.0
C793 C 0.92834 0.16913 0.40526 0.0
C794 C 0.98856 0.1048 0.44074 0.0
C795 C 0.95291 0.13388 0.43574 0.0
C796 C 0.99957 0.08581 0.45513 0.0
C797 C 0.98713 0.07558 0.4791 0.0
C798 C 0.96522 0.1139 0.45066 0.0
C799 C 0.96368 0.08494 0.48826 0.0
C800 C 0.93182 0.14557 0.44707 0.0
C801 C 0.95019 0.15773 0.39508 0.0
N802 N 0.95353 0.10369 0.47406 0.0
N803 N 0.9616 0.14056 0.41028 0.0
H804 H 0.23668 0.56894 0.11387 0.0
H805 H 0.09698 0.59748 0.04925 0.0
H806 H 0.20937 0.64447 0.12267 0.0
H807 H 0.11169 0.51868 0.06691 0.0
H808 H 0.14053 0.61588 0.07101 0.0
H809 H 0.19355 0.5512 0.09237 0.0
C810 C 0.22182 0.58198 0.11167 0.0
C811 C 0.22731 0.60853 0.12082 0.0
C812 C 0.1343 0.59457 0.07 0.0
C813 C 0.17743 0.58798 0.09456 0.0
C814 C 0.1095 0.58401 0.05739 0.0
C815 C 0.10061 0.55642 0.05605 0.0
C816 C 0.15077 0.57747 0.08097 0.0
C817 C 0.11762 0.54005 0.06742 0.0
C818 C 0.19706 0.57168 0.09899 0.0
C819 C 0.20687 0.62411 0.11593 0.0
N820 N 0.14185 0.55077 0.07917 0.0
N821 N 0.18309 0.61368 0.10314 0.0
H822 H 0.33767 0.39603 0.62738 0.0
H823 H 0.4273 0.52112 0.55387 0.0
H824 H 0.30596 0.46639 0.60473 0.0
H825 H 0.45394 0.44541 0.55916 0.0
H826 H 0.38348 0.50162 0.57424 0.0
H827 H 0.38063 0.41369 0.60433 0.0
C828 C 0.33942 0.41505 0.6175 0.0
C829 C 0.31761 0.42956 0.61835 0.0
C830 C 0.39877 0.48914 0.57086 0.0
C831 C 0.36765 0.45029 0.59216 0.0
C832 C 0.42385 0.50029 0.55915 0.0
C833 C 0.44432 0.48485 0.55446 0.0
C834 C 0.39403 0.46234 0.57861 0.0
C835 C 0.43862 0.45796 0.56194 0.0
C836 C 0.36421 0.42521 0.60442 0.0
C837 C 0.32196 0.45444 0.6054 0.0
N838 N 0.41418 0.44764 0.57383 0.0
N839 N 0.3463 0.46394 0.59309 0.0
H840 H 0.78455 0.66519 0.93792 0.0
H841 H 0.94611 0.66935 0.93186 0.0
H842 H 0.84132 0.72583 0.89726 0.0
H843 H 0.89003 0.60568 0.96905 0.0
H844 H 0.90746 0.68936 0.91773 0.0
H845 H 0.8226 0.64233 0.94881 0.0
C846 C 0.80502 0.67363 0.93128 0.0
C847 C 0.80985 0.69738 0.91671 0.0
C848 C 0.90355 0.67097 0.9289 0.0
C849 C 0.85325 0.67142 0.92889 0.0
C850 C 0.92562 0.65941 0.93682 0.0
C851 C 0.92127 0.63576 0.95158 0.0
C852 C 0.87691 0.65892 0.93598 0.0
C853 C 0.8943 0.62411 0.95797 0.0
C854 C 0.82666 0.66055 0.93736 0.0
C855 C 0.83664 0.70737 0.90825 0.0
N856 N 0.87308 0.63588 0.95018 0.0
N857 N 0.85737 0.69437 0.91457 0.0
H858 H 0.39871 0.82426 0.10605 0.0
H859 H 0.52434 0.94503 0.08808 0.0
H860 H 0.47955 0.82468 0.1386 0.0
H861 H 0.44974 0.93919 0.0424 0.0
H862 H 0.50688 0.9022 0.10864 0.0
H863 H 0.41583 0.86649 0.08404 0.0
C864 C 0.42002 0.83284 0.10868 0.0
C865 C 0.43734 0.82015 0.12479 0.0
C866 C 0.49427 0.91018 0.0941 0.0
C867 C 0.45704 0.8698 0.09973 0.0
C868 C 0.50424 0.93483 0.08227 0.0
C869 C 0.48859 0.9461 0.06327 0.0
C870 C 0.46822 0.89631 0.08719 0.0
C871 C 0.46264 0.93154 0.05688 0.0
C872 C 0.42974 0.85731 0.09612 0.0
C873 C 0.46475 0.83333 0.12729 0.0
N874 N 0.45331 0.90757 0.06879 0.0
N875 N 0.47353 0.8572 0.11516 0.0
H876 H 0.14639 0.21033 0.62024 0.0
H877 H 1.01547 0.10818 0.56977 0.0
H878 H 0.06417 0.22808 0.61775 0.0
H879 H 0.09813 0.09509 0.55556 0.0
H880 H 0.03341 0.15106 0.58977 0.0
H881 H 0.12973 0.16782 0.59833 0.0
C882 C 0.12493 0.20564 0.61509 0.0
C883 C 0.10687 0.2234 0.62133 0.0
C884 C 0.04772 0.13892 0.58226 0.0
C885 C 0.08746 0.17375 0.59664 0.0
C886 C 0.03747 0.11425 0.57081 0.0
C887 C 0.05527 0.09772 0.56085 0.0
C888 C 0.07613 0.14744 0.58413 0.0
C889 C 0.08358 0.10704 0.56287 0.0
C890 C 0.1154 0.18108 0.60269 0.0
C891 C 0.07911 0.21529 0.61429 0.0
N892 N 0.09312 0.13117 0.57435 0.0
N893 N 0.07038 0.19123 0.6026 0.0
H894 H 0.76059 0.39692 0.37405 0.0
H895 H 0.62627 0.38622 0.46714 0.0
H896 H 0.72335 0.32621 0.41574 0.0
H897 H 0.65585 0.4553 0.41941 0.0
H898 H 0.66277 0.3646 0.44884 0.0
H899 H 0.72336 0.41946 0.39031 0.0
C900 C 0.7444 0.38617 0.38644 0.0
C901 C 0.74475 0.35975 0.39358 0.0
C902 C 0.66142 0.38449 0.44228 0.0
C903 C 0.70258 0.38518 0.41239 0.0
C904 C 0.64063 0.3968 0.4528 0.0
C905 C 0.63822 0.42244 0.44469 0.0
C906 C 0.68015 0.39802 0.42363 0.0
C907 C 0.65715 0.43542 0.42601 0.0
C908 C 0.72326 0.39897 0.39575 0.0
C909 C 0.72361 0.34659 0.40979 0.0
N910 N 0.67746 0.42309 0.41613 0.0
N911 N 0.70345 0.35944 0.41871 0.0
loop_
_geom_bond_atom_site_label_1
_geom_bond_atom_site_label_2
_geom_bond_distance
_geom_bond_site_symmetry_2
_ccdc_geom_bond_type
C0 C1 1.264 . S
C0 C5 1.479 . S
C0 C10 1.465 . S
C1 C0 1.264 . S
C1 C3 1.339 . S
C1 H28 0.931 . S
C2 C3 1.395 . S
C2 C4 1.320 . S
C3 C1 1.339 . S
C3 C2 1.395 . S
C3 H29 0.929 . S
C4 C2 1.320 . S
C4 C5 1.405 . S
C4 H30 0.930 . S
C5 C0 1.479 . S
C5 C4 1.405 . S
C5 H31 0.931 . S
U6 O7 2.454 . S
U6 O8 2.458 . S
U6 C9 2.984 . S
U6 C10 2.847 . S
U6 C23 2.882 . S
U6 O24 2.441 . S
U6 O25 2.420 . S
U6 O26 2.455 . S
U6 O27 2.449 . S
O7 U6 2.454 . S
O7 C9 1.353 . S
O8 U6 2.458 . S
O8 C9 1.286 . S
C9 U6 2.984 . S
C9 O7 1.353 . S
C9 O8 1.286 . S
C9 C11 1.363 . S
C10 C0 1.465 . S
C10 U6 2.847 . S
C10 O24 1.249 . S
C10 O25 1.202 . S
C11 C9 1.363 . S
C11 C13 1.408 . S
C11 C16 1.342 . S
C12 C13 1.310 . S
C12 C15 1.461 . S
C12 H32 0.932 . S
C13 C11 1.408 . S
C13 C12 1.310 . S
C13 H33 0.930 . S
C14 C15 1.474 . S
C14 C16 1.285 . S
C14 H34 0.929 . S
C15 C12 1.461 . S
C15 C14 1.474 . S
C16 C11 1.342 . S
C16 C14 1.285 . S
C16 H35 0.930 . S
C17 C20 1.424 . S
C17 C22 1.245 . S
C17 C23 1.428 . S
C18 C21 1.260 . S
C18 C22 1.477 . S
C18 H36 0.932 . S
C19 C20 1.384 . S
C19 C21 1.479 . S
C19 H37 0.929 . S
C20 C17 1.424 . S
C20 C19 1.384 . S
C20 H38 0.928 . S
C21 C18 1.260 . S
C21 C19 1.479 . S
C22 C17 1.245 . S
C22 C18 1.477 . S
C22 H39 0.932 . S
C23 U6 2.882 . S
C23 C17 1.428 . S
C23 O26 1.301 . S
C23 O27 1.282 . S
O24 U6 2.441 . S
O24 C10 1.249 . S
O25 U6 2.420 . S
O25 C10 1.202 . S
O26 U6 2.455 . S
O26 C23 1.301 . S
O27 U6 2.449 . S
O27 C23 1.282 . S
H28 C1 0.931 . S
H29 C3 0.929 . S
H30 C4 0.930 . S
H31 C5 0.931 . S
H32 C12 0.932 . S
H33 C13 0.930 . S
H34 C14 0.929 . S
H35 C16 0.930 . S
H36 C18 0.932 . S
H37 C19 0.929 . S
H38 C20 0.928 . S
H39 C22 0.932 . S
C40 C41 1.264 . S
C40 C45 1.479 . S
C40 C50 1.465 . S
C41 C40 1.264 . S
C41 C43 1.339 . S
C41 H68 0.931 . S
C42 C43 1.395 . S
C42 C44 1.320 . S
C43 C41 1.339 . S
C43 C42 1.395 . S
C43 H69 0.929 . S
C44 C42 1.320 . S
C44 C45 1.405 . S
C44 H70 0.930 . S
C45 C40 1.479 . S
C45 C44 1.405 . S
C45 H71 0.931 . S
U46 O47 2.454 . S
U46 O48 2.458 . S
U46 C49 2.984 . S
U46 C50 2.847 . S
U46 C63 2.882 . S
U46 O64 2.441 . S
U46 O65 2.420 . S
U46 O66 2.455 . S
U46 O67 2.449 . S
O47 U46 2.454 . S
O47 C49 1.353 . S
O48 U46 2.458 . S
O48 C49 1.286 . S
C49 U46 2.984 . S
C49 O47 1.353 . S
C49 O48 1.286 . S
C49 C51 1.363 . S
C50 C40 1.465 . S
C50 U46 2.847 . S
C50 O64 1.249 . S
C50 O65 1.202 . S
C51 C49 1.363 . S
C51 C53 1.408 . S
C51 C56 1.342 . S
C52 C53 1.310 . S
C52 C55 1.461 . S
C52 H72 0.932 . S
C53 C51 1.408 . S
C53 C52 1.310 . S
C53 H73 0.930 . S
C54 C55 1.474 . S
C54 C56 1.285 . S
C54 H74 0.929 . S
C55 C52 1.461 . S
C55 C54 1.474 . S
C56 C51 1.342 . S
C56 C54 1.285 . S
C56 H75 0.930 . S
C57 C60 1.424 . S
C57 C62 1.245 . S
C57 C63 1.428 . S
C58 C61 1.260 . S
C58 C62 1.477 . S
C58 H76 0.932 . S
C59 C60 1.384 . S
C59 C61 1.479 . S
C59 H77 0.929 . S
C60 C57 1.424 . S
C60 C59 1.384 . S
C60 H78 0.928 . S
C61 C58 1.260 . S
C61 C59 1.479 . S
C62 C57 1.245 . S
C62 C58 1.477 . S
C62 H79 0.932 . S
C63 U46 2.882 . S
C63 C57 1.428 . S
C63 O66 1.301 . S
C63 O67 1.282 . S
O64 U46 2.441 . S
O64 C50 1.249 . S
O65 U46 2.420 . S
O65 C50 1.202 . S
O66 U46 2.455 . S
O66 C63 1.301 . S
O67 U46 2.449 . S
O67 C63 1.282 . S
H68 C41 0.931 . S
H69 C43 0.929 . S
H70 C44 0.930 . S
H71 C45 0.931 . S
H72 C52 0.932 . S
H73 C53 0.930 . S
H74 C54 0.929 . S
H75 C56 0.930 . S
H76 C58 0.932 . S
H77 C59 0.929 . S
H78 C60 0.928 . S
H79 C62 0.932 . S
C80 C81 1.264 . S
C80 C85 1.479 . S
C80 C90 1.465 . S
C81 C80 1.264 . S
C81 C83 1.339 . S
C81 H108 0.931 . S
C82 C83 1.395 . S
C82 C84 1.320 . S
C83 C81 1.339 . S
C83 C82 1.395 . S
C83 H109 0.929 . S
C84 C82 1.320 . S
C84 C85 1.405 . S
C84 H110 0.930 . S
C85 C80 1.479 . S
C85 C84 1.405 . S
C85 H111 0.931 . S
U86 O87 2.454 . S
U86 O88 2.458 . S
U86 C89 2.984 . S
U86 C90 2.847 . S
U86 C103 2.882 . S
U86 O104 2.441 . S
U86 O105 2.420 . S
U86 O106 2.455 . S
U86 O107 2.449 . S
O87 U86 2.454 . S
O87 C89 1.353 . S
O88 U86 2.458 . S
O88 C89 1.286 . S
C89 U86 2.984 . S
C89 O87 1.353 . S
C89 O88 1.286 . S
C89 C91 1.363 . S
C90 C80 1.465 . S
C90 U86 2.847 . S
C90 O104 1.249 . S
C90 O105 1.202 . S
C91 C89 1.363 . S
C91 C93 1.408 . S
C91 C96 1.342 . S
C92 C93 1.310 . S
C92 C95 1.461 . S
C92 H112 0.932 . S
C93 C91 1.408 . S
C93 C92 1.310 . S
C93 H113 0.930 . S
C94 C95 1.474 . S
C94 C96 1.285 . S
C94 H114 0.929 . S
C95 C92 1.461 . S
C95 C94 1.474 . S
C96 C91 1.342 . S
C96 C94 1.285 . S
C96 H115 0.930 . S
C97 C100 1.424 . S
C97 C102 1.245 . S
C97 C103 1.428 . S
C98 C101 1.260 . S
C98 C102 1.477 . S
C98 H116 0.932 . S
C99 C100 1.384 . S
C99 C101 1.479 . S
C99 H117 0.929 . S
C100 C97 1.424 . S
C100 C99 1.384 . S
C100 H118 0.928 . S
C101 C98 1.260 . S
C101 C99 1.479 . S
C102 C97 1.245 . S
C102 C98 1.477 . S
C102 H119 0.932 . S
C103 U86 2.882 . S
C103 C97 1.428 . S
C103 O106 1.301 . S
C103 O107 1.282 . S
O104 U86 2.441 . S
O104 C90 1.249 . S
O105 U86 2.420 . S
O105 C90 1.202 . S
O106 U86 2.455 . S
O106 C103 1.301 . S
O107 U86 2.449 . S
O107 C103 1.282 . S
H108 C81 0.931 . S
H109 C83 0.929 . S
H110 C84 0.930 . S
H111 C85 0.931 . S
H112 C92 0.932 . S
H113 C93 0.930 . S
H114 C94 0.929 . S
H115 C96 0.930 . S
H116 C98 0.932 . S
H117 C99 0.929 . S
H118 C100 0.928 . S
H119 C102 0.932 . S
C120 C121 1.264 . S
C120 C125 1.479 . S
C120 C130 1.465 . S
C121 C120 1.264 . S
C121 C123 1.339 . S
C121 H148 0.931 . S
C122 C123 1.395 . S
C122 C124 1.320 . S
C123 C121 1.339 . S
C123 C122 1.395 . S
C123 H149 0.929 . S
C124 C122 1.320 . S
C124 C125 1.405 . S
C124 H150 0.930 . S
C125 C120 1.479 . S
C125 C124 1.405 . S
C125 H151 0.931 . S
U126 O127 2.454 . S
U126 O128 2.458 . S
U126 C129 2.984 . S
U126 C130 2.847 . S
U126 C143 2.882 . S
U126 O144 2.441 . S
U126 O145 2.420 . S
U126 O146 2.455 . S
U126 O147 2.449 . S
O127 U126 2.454 . S
O127 C129 1.353 . S
O128 U126 2.458 . S
O128 C129 1.286 . S
C129 U126 2.984 . S
C129 O127 1.353 . S
C129 O128 1.286 . S
C129 C131 1.363 . S
C130 C120 1.465 . S
C130 U126 2.847 . S
C130 O144 1.249 . S
C130 O145 1.202 . S
C131 C129 1.363 . S
C131 C133 1.408 . S
C131 C136 1.342 . S
C132 C133 1.310 . S
C132 C135 1.461 . S
C132 H152 0.932 . S
C133 C131 1.408 . S
C133 C132 1.310 . S
C133 H153 0.930 . S
C134 C135 1.474 . S
C134 C136 1.285 . S
C134 H154 0.929 . S
C135 C132 1.461 . S
C135 C134 1.474 . S
C136 C131 1.342 . S
C136 C134 1.285 . S
C136 H155 0.930 . S
C137 C140 1.424 . S
C137 C142 1.245 . S
C137 C143 1.428 . S
C138 C141 1.260 . S
C138 C142 1.477 . S
C138 H156 0.932 . S
C139 C140 1.384 . S
C139 C141 1.479 . S
C139 H157 0.929 . S
C140 C137 1.424 . S
C140 C139 1.384 . S
C140 H158 0.928 . S
C141 C138 1.260 . S
C141 C139 1.479 . S
C142 C137 1.245 . S
C142 C138 1.477 . S
C142 H159 0.932 . S
C143 U126 2.882 . S
C143 C137 1.428 . S
C143 O146 1.301 . S
C143 O147 1.282 . S
O144 U126 2.441 . S
O144 C130 1.249 . S
O145 U126 2.420 . S
O145 C130 1.202 . S
O146 U126 2.455 . S
O146 C143 1.301 . S
O147 U126 2.449 . S
O147 C143 1.282 . S
H148 C121 0.931 . S
H149 C123 0.929 . S
H150 C124 0.930 . S
H151 C125 0.931 . S
H152 C132 0.932 . S
H153 C133 0.930 . S
H154 C134 0.929 . S
H155 C136 0.930 . S
H156 C138 0.932 . S
H157 C139 0.929 . S
H158 C140 0.928 . S
H159 C142 0.932 . S
C160 C161 1.264 . S
C160 C165 1.479 . S
C160 C170 1.465 . S
C161 C160 1.264 . S
C161 C163 1.339 . S
C161 H188 0.931 . S
C162 C163 1.395 . S
C162 C164 1.320 . S
C163 C161 1.339 . S
C163 C162 1.395 . S
C163 H189 0.929 . S
C164 C162 1.320 . S
C164 C165 1.405 . S
C164 H190 0.930 . S
C165 C160 1.479 . S
C165 C164 1.405 . S
C165 H191 0.931 . S
U166 O167 2.454 . S
U166 O168 2.458 . S
U166 C169 2.984 . S
U166 C170 2.847 . S
U166 C183 2.882 . S
U166 O184 2.441 . S
U166 O185 2.420 . S
U166 O186 2.455 . S
U166 O187 2.449 . S
O167 U166 2.454 . S
O167 C169 1.353 . S
O168 U166 2.458 . S
O168 C169 1.286 . S
C169 U166 2.984 . S
C169 O167 1.353 . S
C169 O168 1.286 . S
C169 C171 1.363 . S
C170 C160 1.465 . S
C170 U166 2.847 . S
C170 O184 1.249 . S
C170 O185 1.202 . S
C171 C169 1.363 . S
C171 C173 1.408 . S
C171 C176 1.342 . S
C172 C173 1.310 . S
C172 C175 1.461 . S
C172 H192 0.932 . S
C173 C171 1.408 . S
C173 C172 1.310 . S
C173 H193 0.930 . S
C174 C175 1.474 . S
C174 C176 1.285 . S
C174 H194 0.929 . S
C175 C172 1.461 . S
C175 C174 1.474 . S
C176 C171 1.342 . S
C176 C174 1.285 . S
C176 H195 0.930 . S
C177 C180 1.424 . S
C177 C182 1.245 . S
C177 C183 1.428 . S
C178 C181 1.260 . S
C178 C182 1.477 . S
C178 H196 0.932 . S
C179 C180 1.384 . S
C179 C181 1.479 . S
C179 H197 0.929 . S
C180 C177 1.424 . S
C180 C179 1.384 . S
C180 H198 0.928 . S
C181 C178 1.260 . S
C181 C179 1.479 . S
C182 C177 1.245 . S
C182 C178 1.477 . S
C182 H199 0.932 . S
C183 U166 2.882 . S
C183 C177 1.428 . S
C183 O186 1.301 . S
C183 O187 1.282 . S
O184 U166 2.441 . S
O184 C170 1.249 . S
O185 U166 2.420 . S
O185 C170 1.202 . S
O186 U166 2.455 . S
O186 C183 1.301 . S
O187 U166 2.449 . S
O187 C183 1.282 . S
H188 C161 0.931 . S
H189 C163 0.929 . S
H190 C164 0.930 . S
H191 C165 0.931 . S
H192 C172 0.932 . S
H193 C173 0.930 . S
H194 C174 0.929 . S
H195 C176 0.930 . S
H196 C178 0.932 . S
H197 C179 0.929 . S
H198 C180 0.928 . S
H199 C182 0.932 . S
C200 C201 1.264 . S
C200 C205 1.479 . S
C200 C210 1.465 . S
C201 C200 1.264 . S
C201 C203 1.339 . S
C201 H228 0.931 . S
C202 C203 1.395 . S
C202 C204 1.320 . S
C203 C201 1.339 . S
C203 C202 1.395 . S
C203 H229 0.929 . S
C204 C202 1.320 . S
C204 C205 1.405 . S
C204 H230 0.930 . S
C205 C200 1.479 . S
C205 C204 1.405 . S
C205 H231 0.931 . S
U206 O207 2.454 . S
U206 O208 2.458 . S
U206 C209 2.984 . S
U206 C210 2.847 . S
U206 C223 2.882 . S
U206 O224 2.441 . S
U206 O225 2.420 . S
U206 O226 2.455 . S
U206 O227 2.449 . S
O207 U206 2.454 . S
O207 C209 1.353 . S
O208 U206 2.458 . S
O208 C209 1.286 . S
C209 U206 2.984 . S
C209 O207 1.353 . S
C209 O208 1.286 . S
C209 C211 1.363 . S
C210 C200 1.465 . S
C210 U206 2.847 . S
C210 O224 1.249 . S
C210 O225 1.202 . S
C211 C209 1.363 . S
C211 C213 1.408 . S
C211 C216 1.342 . S
C212 C213 1.310 . S
C212 C215 1.461 . S
C212 H232 0.932 . S
C213 C211 1.408 . S
C213 C212 1.310 . S
C213 H233 0.930 . S
C214 C215 1.474 . S
C214 C216 1.285 . S
C214 H234 0.929 . S
C215 C212 1.461 . S
C215 C214 1.474 . S
C216 C211 1.342 . S
C216 C214 1.285 . S
C216 H235 0.930 . S
C217 C220 1.424 . S
C217 C222 1.245 . S
C217 C223 1.428 . S
C218 C221 1.260 . S
C218 C222 1.477 . S
C218 H236 0.932 . S
C219 C220 1.384 . S
C219 C221 1.479 . S
C219 H237 0.929 . S
C220 C217 1.424 . S
C220 C219 1.384 . S
C220 H238 0.928 . S
C221 C218 1.260 . S
C221 C219 1.479 . S
C222 C217 1.245 . S
C222 C218 1.477 . S
C222 H239 0.932 . S
C223 U206 2.882 . S
C223 C217 1.428 . S
C223 O226 1.301 . S
C223 O227 1.282 . S
O224 U206 2.441 . S
O224 C210 1.249 . S
O225 U206 2.420 . S
O225 C210 1.202 . S
O226 U206 2.455 . S
O226 C223 1.301 . S
O227 U206 2.449 . S
O227 C223 1.282 . S
H228 C201 0.931 . S
H229 C203 0.929 . S
H230 C204 0.930 . S
H231 C205 0.931 . S
H232 C212 0.932 . S
H233 C213 0.930 . S
H234 C214 0.929 . S
H235 C216 0.930 . S
H236 C218 0.932 . S
H237 C219 0.929 . S
H238 C220 0.928 . S
H239 C222 0.932 . S
C240 C241 1.264 . S
C240 C245 1.479 . S
C240 C250 1.465 . S
C241 C240 1.264 . S
C241 C243 1.339 . S
C241 H268 0.931 . S
C242 C243 1.395 . S
C242 C244 1.320 . S
C243 C241 1.339 . S
C243 C242 1.395 . S
C243 H269 0.929 . S
C244 C242 1.320 . S
C244 C245 1.405 . S
C244 H270 0.930 . S
C245 C240 1.479 . S
C245 C244 1.405 . S
C245 H271 0.931 . S
U246 O247 2.454 . S
U246 O248 2.458 . S
U246 C249 2.984 . S
U246 C250 2.847 . S
U246 C263 2.882 . S
U246 O264 2.441 . S
U246 O265 2.420 . S
U246 O266 2.455 . S
U246 O267 2.449 . S
O247 U246 2.454 . S
O247 C249 1.353 . S
O248 U246 2.458 . S
O248 C249 1.286 . S
C249 U246 2.984 . S
C249 O247 1.353 . S
C249 O248 1.286 . S
C249 C251 1.363 . S
C250 C240 1.465 . S
C250 U246 2.847 . S
C250 O264 1.249 . S
C250 O265 1.202 . S
C251 C249 1.363 . S
C251 C253 1.408 . S
C251 C256 1.342 . S
C252 C253 1.310 . S
C252 C255 1.461 . S
C252 H272 0.932 . S
C253 C251 1.408 . S
C253 C252 1.310 . S
C253 H273 0.930 . S
C254 C255 1.474 . S
C254 C256 1.285 . S
C254 H274 0.929 . S
C255 C252 1.461 . S
C255 C254 1.474 . S
C256 C251 1.342 . S
C256 C254 1.285 . S
C256 H275 0.930 . S
C257 C260 1.424 . S
C257 C262 1.245 . S
C257 C263 1.428 . S
C258 C261 1.260 . S
C258 C262 1.477 . S
C258 H276 0.932 . S
C259 C260 1.384 . S
C259 C261 1.479 . S
C259 H277 0.929 . S
C260 C257 1.424 . S
C260 C259 1.384 . S
C260 H278 0.928 . S
C261 C258 1.260 . S
C261 C259 1.479 . S
C262 C257 1.245 . S
C262 C258 1.477 . S
C262 H279 0.932 . S
C263 U246 2.882 . S
C263 C257 1.428 . S
C263 O266 1.301 . S
C263 O267 1.282 . S
O264 U246 2.441 . S
O264 C250 1.249 . S
O265 U246 2.420 . S
O265 C250 1.202 . S
O266 U246 2.455 . S
O266 C263 1.301 . S
O267 U246 2.449 . S
O267 C263 1.282 . S
H268 C241 0.931 . S
H269 C243 0.929 . S
H270 C244 0.930 . S
H271 C245 0.931 . S
H272 C252 0.932 . S
H273 C253 0.930 . S
H274 C254 0.929 . S
H275 C256 0.930 . S
H276 C258 0.932 . S
H277 C259 0.929 . S
H278 C260 0.928 . S
H279 C262 0.932 . S
C280 C281 1.264 . S
C280 C285 1.479 . S
C280 C290 1.465 . S
C281 C280 1.264 . S
C281 C283 1.339 . S
C281 H308 0.931 . S
C282 C283 1.395 . S
C282 C284 1.320 . S
C283 C281 1.339 . S
C283 C282 1.395 . S
C283 H309 0.929 . S
C284 C282 1.320 . S
C284 C285 1.405 . S
C284 H310 0.930 . S
C285 C280 1.479 . S
C285 C284 1.405 . S
C285 H311 0.931 . S
U286 O287 2.454 . S
U286 O288 2.458 . S
U286 C289 2.984 . S
U286 C290 2.847 . S
U286 C303 2.882 . S
U286 O304 2.441 . S
U286 O305 2.420 . S
U286 O306 2.455 . S
U286 O307 2.449 . S
O287 U286 2.454 . S
O287 C289 1.353 . S
O288 U286 2.458 . S
O288 C289 1.286 . S
C289 U286 2.984 . S
C289 O287 1.353 . S
C289 O288 1.286 . S
C289 C291 1.363 . S
C290 C280 1.465 . S
C290 U286 2.847 . S
C290 O304 1.249 . S
C290 O305 1.202 . S
C291 C289 1.363 . S
C291 C293 1.408 . S
C291 C296 1.342 . S
C292 C293 1.310 . S
C292 C295 1.461 . S
C292 H312 0.932 . S
C293 C291 1.408 . S
C293 C292 1.310 . S
C293 H313 0.930 . S
C294 C295 1.474 . S
C294 C296 1.285 . S
C294 H314 0.929 . S
C295 C292 1.461 . S
C295 C294 1.474 . S
C296 C291 1.342 . S
C296 C294 1.285 . S
C296 H315 0.930 . S
C297 C300 1.424 . S
C297 C302 1.245 . S
C297 C303 1.428 . S
C298 C301 1.260 . S
C298 C302 1.477 . S
C298 H316 0.932 . S
C299 C300 1.384 . S
C299 C301 1.479 . S
C299 H317 0.929 . S
C300 C297 1.424 . S
C300 C299 1.384 . S
C300 H318 0.928 . S
C301 C298 1.260 . S
C301 C299 1.479 . S
C302 C297 1.245 . S
C302 C298 1.477 . S
C302 H319 0.932 . S
C303 U286 2.882 . S
C303 C297 1.428 . S
C303 O306 1.301 . S
C303 O307 1.282 . S
O304 U286 2.441 . S
O304 C290 1.249 . S
O305 U286 2.420 . S
O305 C290 1.202 . S
O306 U286 2.455 . S
O306 C303 1.301 . S
O307 U286 2.449 . S
O307 C303 1.282 . S
H308 C281 0.931 . S
H309 C283 0.929 . S
H310 C284 0.930 . S
H311 C285 0.931 . S
H312 C292 0.932 . S
H313 C293 0.930 . S
H314 C294 0.929 . S
H315 C296 0.930 . S
H316 C298 0.932 . S
H317 C299 0.929 . S
H318 C300 0.928 . S
H319 C302 0.932 . S
Tb320 C329 2.764 . S
Tb320 O330 2.325 1_455 S
Tb320 O333 2.303 . S
Tb320 O337 2.322 1_545 S
Tb320 O338 2.349 1_545 S
Tb320 O341 2.415 . S
Tb320 O342 2.399 . S
Tb321 O331 2.322 . S
Tb321 O332 2.349 . S
Tb321 O334 2.415 1_545 S
Tb321 O335 2.399 1_545 S
Tb321 O336 2.325 1_645 S
Tb321 O339 2.303 1_545 S
Tb321 C350 2.764 1_545 S
C322 O338 1.261 1_655 S
C322 O339 1.257 . S
C323 C326 1.358 . S
C323 C327 1.332 . S
C323 C329 1.504 . S
C324 C325 1.373 . S
C324 C328 1.308 . S
C325 C324 1.373 . S
C325 C326 1.429 . S
C325 H352 0.932 . S
C326 C323 1.358 . S
C326 C325 1.429 . S
C326 H353 0.930 . S
C327 C323 1.332 . S
C327 C328 1.394 . S
C327 H354 0.932 . S
C328 C324 1.308 . S
C328 C327 1.394 . S
C328 H355 0.929 . S
C329 Tb320 2.764 . S
C329 C323 1.504 . S
C329 O341 1.239 . S
C329 O342 1.263 . S
O330 Tb320 2.325 1_655 S
O330 C340 1.236 . S
O331 Tb321 2.322 . S
O331 C340 1.257 . S
O332 Tb321 2.349 . S
O332 C343 1.261 1_655 S
O333 Tb320 2.303 . S
O333 C343 1.257 . S
O334 Tb321 2.415 1_565 S
O334 C350 1.239 . S
O335 Tb321 2.399 1_565 S
O335 C350 1.263 . S
O336 Tb321 2.325 1_465 S
O336 C351 1.236 . S
O337 Tb320 2.322 1_565 S
O337 C351 1.257 . S
O338 Tb320 2.349 1_565 S
O338 C322 1.261 1_455 S
O339 Tb321 2.303 1_565 S
O339 C322 1.257 . S
C340 O330 1.236 . S
C340 O331 1.257 . S
O341 Tb320 2.415 . S
O341 C329 1.239 . S
O342 Tb320 2.399 . S
O342 C329 1.263 . S
C343 O332 1.261 1_455 S
C343 O333 1.257 . S
C344 C347 1.358 . S
C344 C348 1.332 . S
C344 C350 1.504 . S
C345 C346 1.373 . S
C345 C349 1.308 . S
C346 C345 1.373 . S
C346 C347 1.429 . S
C346 H356 0.932 . S
C347 C344 1.358 . S
C347 C346 1.429 . S
C347 H357 0.930 . S
C348 C344 1.332 . S
C348 C349 1.394 . S
C348 H358 0.932 . S
C349 C345 1.308 . S
C349 C348 1.394 . S
C349 H359 0.929 . S
C350 Tb321 2.764 1_565 S
C350 O334 1.239 . S
C350 O335 1.263 . S
C350 C344 1.504 . S
C351 O336 1.236 . S
C351 O337 1.257 . S
H352 C325 0.932 . S
H353 C326 0.930 . S
H354 C327 0.932 . S
H355 C328 0.929 . S
H356 C346 0.932 . S
H357 C347 0.930 . S
H358 C348 0.932 . S
H359 C349 0.929 . S
Tb360 C369 2.764 . S
Tb360 O370 2.325 . S
Tb360 O373 2.303 . S
Tb360 O377 2.322 1_545 S
Tb360 O378 2.349 1_545 S
Tb360 O381 2.415 . S
Tb360 O382 2.399 . S
Tb361 O371 2.289 1_565 S
Tb361 O372 2.325 1_566 S
Tb361 O374 2.449 . S
Tb361 O375 2.410 . S
Tb361 O376 2.354 1_556 S
Tb361 O379 2.322 . S
Tb361 C390 2.790 . S
C362 O378 1.261 1_556 S
C362 O379 1.257 . S
C363 C366 1.358 . S
C363 C367 1.332 . S
C363 C369 1.504 . S
C364 C365 1.373 . S
C364 C368 1.308 . S
C365 C364 1.373 . S
C365 C366 1.429 . S
C365 H392 0.932 . S
C366 C363 1.358 . S
C366 C365 1.429 . S
C366 H393 0.930 . S
C367 C363 1.332 . S
C367 C368 1.394 . S
C367 H394 0.932 . S
C368 C364 1.308 . S
C368 C367 1.394 . S
C368 H395 0.929 . S
C369 Tb360 2.764 . S
C369 C363 1.504 . S
C369 O381 1.239 . S
C369 O382 1.263 . S
O370 Tb360 2.325 . S
O370 C380 1.236 1_554 S
O371 Tb361 2.289 1_545 S
O371 C380 1.257 . S
O372 Tb361 2.325 1_544 S
O372 C383 1.261 . S
O373 Tb360 2.303 . S
O373 C383 1.257 . S
O374 Tb361 2.449 . S
O374 C390 1.239 . S
O375 Tb361 2.410 . S
O375 C390 1.263 . S
O376 Tb361 2.354 1_554 S
O376 C391 1.236 . S
O377 Tb360 2.322 1_565 S
O377 C391 1.257 . S
O378 Tb360 2.349 1_565 S
O378 C362 1.261 1_554 S
O379 Tb361 2.322 . S
O379 C362 1.257 . S
C380 O370 1.236 1_556 S
C380 O371 1.257 . S
O381 Tb360 2.415 . S
O381 C369 1.239 . S
O382 Tb360 2.399 . S
O382 C369 1.263 . S
C383 O372 1.261 . S
C383 O373 1.257 . S
C384 C387 1.358 . S
C384 C388 1.332 . S
C384 C390 1.504 . S
C385 C386 1.373 . S
C385 C389 1.308 . S
C386 C385 1.373 . S
C386 C387 1.429 . S
C386 H396 0.932 . S
C387 C384 1.358 . S
C387 C386 1.429 . S
C387 H397 0.930 . S
C388 C384 1.332 . S
C388 C389 1.394 . S
C388 H398 0.932 . S
C389 C385 1.308 . S
C389 C388 1.394 . S
C389 H399 0.929 . S
C390 Tb361 2.790 . S
C390 O374 1.239 . S
C390 O375 1.263 . S
C390 C384 1.504 . S
C391 O376 1.236 . S
C391 O377 1.257 . S
H392 C365 0.932 . S
H393 C366 0.930 . S
H394 C367 0.932 . S
H395 C368 0.929 . S
H396 C386 0.932 . S
H397 C387 0.930 . S
H398 C388 0.932 . S
H399 C389 0.929 . S
Tb400 C409 2.764 . S
Tb400 O410 2.325 . S
Tb400 O413 2.303 . S
Tb400 O417 2.322 . S
Tb400 O418 2.349 . S
Tb400 O421 2.415 . S
Tb400 O422 2.399 . S
Tb401 O411 2.322 . S
Tb401 O412 2.349 . S
Tb401 O414 2.415 . S
Tb401 O415 2.399 . S
Tb401 O416 2.325 . S
Tb401 O419 2.303 . S
Tb401 C430 2.764 . S
C402 O418 1.261 . S
C402 O419 1.257 . S
C403 C406 1.358 . S
C403 C407 1.332 . S
C403 C409 1.504 . S
C404 C405 1.373 . S
C404 C408 1.308 . S
C405 C404 1.373 . S
C405 C406 1.429 . S
C405 H432 0.932 . S
C406 C403 1.358 . S
C406 C405 1.429 . S
C406 H433 0.930 . S
C407 C403 1.332 . S
C407 C408 1.394 . S
C407 H434 0.932 . S
C408 C404 1.308 . S
C408 C407 1.394 . S
C408 H435 0.929 . S
C409 Tb400 2.764 . S
C409 C403 1.504 . S
C409 O421 1.239 . S
C409 O422 1.263 . S
O410 Tb400 2.325 . S
O410 C420 1.236 . S
O411 Tb401 2.322 . S
O411 C420 1.257 . S
O412 Tb401 2.349 . S
O412 C423 1.261 . S
O413 Tb400 2.303 . S
O413 C423 1.257 . S
O414 Tb401 2.415 . S
O414 C430 1.239 . S
O415 Tb401 2.399 . S
O415 C430 1.263 . S
O416 Tb401 2.325 . S
O416 C431 1.236 . S
O417 Tb400 2.322 . S
O417 C431 1.257 . S
O418 Tb400 2.349 . S
O418 C402 1.261 . S
O419 Tb401 2.303 . S
O419 C402 1.257 . S
C420 O410 1.236 . S
C420 O411 1.257 . S
O421 Tb400 2.415 . S
O421 C409 1.239 . S
O422 Tb400 2.399 . S
O422 C409 1.263 . S
C423 O412 1.261 . S
C423 O413 1.257 . S
C424 C427 1.358 . S
C424 C428 1.332 . S
C424 C430 1.504 . S
C425 C426 1.373 . S
C425 C429 1.308 . S
C426 C425 1.373 . S
C426 C427 1.429 . S
C426 H436 0.932 . S
C427 C424 1.358 . S
C427 C426 1.429 . S
C427 H437 0.930 . S
C428 C424 1.332 . S
C428 C429 1.394 . S
C428 H438 0.932 . S
C429 C425 1.308 . S
C429 C428 1.394 . S
C429 H439 0.929 . S
C430 Tb401 2.764 . S
C430 O414 1.239 . S
C430 O415 1.263 . S
C430 C424 1.504 . S
C431 O416 1.236 . S
C431 O417 1.257 . S
H432 C405 0.932 . S
H433 C406 0.930 . S
H434 C407 0.932 . S
H435 C408 0.929 . S
H436 C426 0.932 . S
H437 C427 0.930 . S
H438 C428 0.932 . S
H439 C429 0.929 . S
Tb440 C449 2.764 1_455 S
Tb440 O450 2.325 1_455 S
Tb440 O453 2.303 1_456 S
Tb440 O457 2.322 1_556 S
Tb440 O458 2.349 . S
Tb440 O461 2.415 1_455 S
Tb440 O462 2.399 1_455 S
Tb441 O451 2.322 1_455 S
Tb441 O452 2.349 1_455 S
Tb441 O454 2.415 . S
Tb441 O455 2.399 . S
Tb441 O456 2.325 . S
Tb441 O459 2.303 1_554 S
Tb441 C470 2.764 . S
C442 O458 1.261 . S
C442 O459 1.257 . S
C443 C446 1.358 . S
C443 C447 1.332 . S
C443 C449 1.504 . S
C444 C445 1.373 . S
C444 C448 1.308 . S
C445 C444 1.373 . S
C445 C446 1.429 . S
C445 H472 0.932 . S
C446 C443 1.358 . S
C446 C445 1.429 . S
C446 H473 0.930 . S
C447 C443 1.332 . S
C447 C448 1.394 . S
C447 H474 0.932 . S
C448 C444 1.308 . S
C448 C447 1.394 . S
C448 H475 0.929 . S
C449 Tb440 2.764 1_655 S
C449 C443 1.504 . S
C449 O461 1.239 . S
C449 O462 1.263 . S
O450 Tb440 2.325 1_655 S
O450 C460 1.236 . S
O451 Tb441 2.322 1_655 S
O451 C460 1.257 1_554 S
O452 Tb441 2.349 1_655 S
O452 C463 1.261 . S
O453 Tb440 2.303 1_654 S
O453 C463 1.257 . S
O454 Tb441 2.415 . S
O454 C470 1.239 . S
O455 Tb441 2.399 . S
O455 C470 1.263 . S
O456 Tb441 2.325 . S
O456 C471 1.236 . S
O457 Tb440 2.322 1_554 S
O457 C471 1.257 . S
O458 Tb440 2.349 . S
O458 C442 1.261 . S
O459 Tb441 2.303 1_556 S
O459 C442 1.257 . S
C460 O450 1.236 . S
C460 O451 1.257 1_556 S
O461 Tb440 2.415 1_655 S
O461 C449 1.239 . S
O462 Tb440 2.399 1_655 S
O462 C449 1.263 . S
C463 O452 1.261 . S
C463 O453 1.257 . S
C464 C467 1.358 . S
C464 C468 1.332 . S
C464 C470 1.504 . S
C465 C466 1.373 . S
C465 C469 1.308 . S
C466 C465 1.373 . S
C466 C467 1.429 . S
C466 H476 0.932 . S
C467 C464 1.358 . S
C467 C466 1.429 . S
C467 H477 0.930 . S
C468 C464 1.332 . S
C468 C469 1.394 . S
C468 H478 0.932 . S
C469 C465 1.308 . S
C469 C468 1.394 . S
C469 H479 0.929 . S
C470 Tb441 2.764 . S
C470 O454 1.239 . S
C470 O455 1.263 . S
C470 C464 1.504 . S
C471 O456 1.236 . S
C471 O457 1.257 . S
H472 C445 0.932 . S
H473 C446 0.930 . S
H474 C447 0.932 . S
H475 C448 0.929 . S
H476 C466 0.932 . S
H477 C467 0.930 . S
H478 C468 0.932 . S
H479 C469 0.929 . S
H480 C486 0.930 . S
H481 C490 0.930 . S
H482 C495 0.929 . S
H483 C493 0.929 . S
H484 C488 0.929 . S
H485 C494 0.929 . S
C486 H480 0.930 . S
C486 C487 1.367 . S
C486 C494 1.378 . S
C487 C486 1.367 . S
C487 C495 1.433 . S
C488 H484 0.929 . S
C488 C490 1.378 . S
C488 C492 1.350 . S
C489 C492 1.463 . S
C489 C494 1.350 . S
C489 N497 1.427 . S
C490 H481 0.930 . S
C490 C488 1.378 . S
C490 C491 1.367 . S
C491 C490 1.367 . S
C491 C493 1.433 . S
C492 C488 1.350 . S
C492 C489 1.463 . S
C492 N496 1.427 . S
C493 H483 0.929 . S
C493 C491 1.433 . S
C493 N496 1.384 . S
C494 H485 0.929 . S
C494 C486 1.378 . S
C494 C489 1.350 . S
C495 H482 0.929 . S
C495 C487 1.433 . S
C495 N497 1.384 . S
N496 C492 1.427 . S
N496 C493 1.384 . S
N497 C489 1.427 . S
N497 C495 1.384 . S
H498 C504 0.930 . S
H499 C508 0.930 . S
H500 C513 0.929 . S
H501 C511 0.929 . S
H502 C506 0.929 . S
H503 C512 0.929 . S
C504 H498 0.930 . S
C504 C505 1.367 . S
C504 C512 1.378 . S
C505 C504 1.367 . S
C505 C513 1.433 . S
C506 H502 0.929 . S
C506 C508 1.378 . S
C506 C510 1.350 . S
C507 C510 1.463 . S
C507 C512 1.350 . S
C507 N515 1.427 . S
C508 H499 0.930 . S
C508 C506 1.378 . S
C508 C509 1.367 . S
C509 C508 1.367 . S
C509 C511 1.433 . S
C510 C506 1.350 . S
C510 C507 1.463 . S
C510 N514 1.427 . S
C511 H501 0.929 . S
C511 C509 1.433 . S
C511 N514 1.384 . S
C512 H503 0.929 . S
C512 C504 1.378 . S
C512 C507 1.350 . S
C513 H500 0.929 . S
C513 C505 1.433 . S
C513 N515 1.384 . S
N514 C510 1.427 . S
N514 C511 1.384 . S
N515 C507 1.427 . S
N515 C513 1.384 . S
H516 C522 0.930 . S
H517 C526 0.930 . S
H518 C531 0.929 . S
H519 C529 0.929 . S
H520 C524 0.929 . S
H521 C530 0.929 . S
C522 H516 0.930 . S
C522 C523 1.367 . S
C522 C530 1.378 . S
C523 C522 1.367 . S
C523 C531 1.433 . S
C524 H520 0.929 . S
C524 C526 1.378 . S
C524 C528 1.350 . S
C525 C528 1.463 . S
C525 C530 1.350 . S
C525 N533 1.427 . S
C526 H517 0.930 . S
C526 C524 1.378 . S
C526 C527 1.367 . S
C527 C526 1.367 . S
C527 C529 1.433 . S
C528 C524 1.350 . S
C528 C525 1.463 . S
C528 N532 1.427 . S
C529 H519 0.929 . S
C529 C527 1.433 . S
C529 N532 1.384 . S
C530 H521 0.929 . S
C530 C522 1.378 . S
C530 C525 1.350 . S
C531 H518 0.929 . S
C531 C523 1.433 . S
C531 N533 1.384 . S
N532 C528 1.427 . S
N532 C529 1.384 . S
N533 C525 1.427 . S
N533 C531 1.384 . S
H534 C540 0.930 . S
H535 C544 0.930 . S
H536 C549 0.929 . S
H537 C547 0.941 . S
H538 C542 0.929 . S
H539 C548 0.929 . S
C540 H534 0.930 . S
C540 C541 1.367 . S
C540 C548 1.378 . S
C541 C540 1.367 . S
C541 C549 1.433 . S
C542 H538 0.929 . S
C542 C544 1.378 . S
C542 C546 1.350 . S
C543 C546 1.463 . S
C543 C548 1.350 . S
C543 N551 1.427 . S
C544 H535 0.930 . S
C544 C542 1.378 . S
C544 C545 1.367 . S
C545 C544 1.367 . S
C545 C547 1.433 . S
C546 C542 1.350 . S
C546 C543 1.463 . S
C546 N550 1.427 . S
C547 H537 0.941 . S
C547 C545 1.433 . S
C547 N550 1.384 . S
C548 H539 0.929 . S
C548 C540 1.378 . S
C548 C543 1.350 . S
C549 H536 0.929 . S
C549 C541 1.433 . S
C549 N551 1.384 . S
N550 C546 1.427 . S
N550 C547 1.384 . S
N551 C543 1.427 . S
N551 C549 1.384 . S
H552 C558 0.930 . S
H553 C562 0.930 . S
H554 C567 0.929 . S
H555 C565 0.929 . S
H556 C560 0.929 . S
H557 C566 0.929 . S
C558 H552 0.930 . S
C558 C559 1.367 . S
C558 C566 1.378 . S
C559 C558 1.367 . S
C559 C567 1.433 . S
C560 H556 0.929 . S
C560 C562 1.378 . S
C560 C564 1.350 . S
C561 C564 1.463 . S
C561 C566 1.350 . S
C561 N569 1.427 . S
C562 H553 0.930 . S
C562 C560 1.378 . S
C562 C563 1.367 . S
C563 C562 1.367 . S
C563 C565 1.433 . S
C564 C560 1.350 . S
C564 C561 1.463 . S
C564 N568 1.427 . S
C565 H555 0.929 . S
C565 C563 1.433 . S
C565 N568 1.384 . S
C566 H557 0.929 . S
C566 C558 1.378 . S
C566 C561 1.350 . S
C567 H554 0.929 . S
C567 C559 1.433 . S
C567 N569 1.384 . S
N568 C564 1.427 . S
N568 C565 1.384 . S
N569 C561 1.427 . S
N569 C567 1.384 . S
H570 C576 0.930 . S
H571 C580 0.930 . S
H572 C585 0.929 . S
H573 C583 0.929 . S
H574 C578 0.929 . S
H575 C584 0.929 . S
C576 H570 0.930 . S
C576 C577 1.367 . S
C576 C584 1.378 . S
C577 C576 1.367 . S
C577 C585 1.433 . S
C578 H574 0.929 . S
C578 C580 1.378 . S
C578 C582 1.350 . S
C579 C582 1.463 . S
C579 C584 1.350 . S
C579 N587 1.427 . S
C580 H571 0.930 . S
C580 C578 1.378 . S
C580 C581 1.367 . S
C581 C580 1.367 . S
C581 C583 1.433 . S
C582 C578 1.350 . S
C582 C579 1.463 . S
C582 N586 1.427 . S
C583 H573 0.929 . S
C583 C581 1.433 . S
C583 N586 1.384 . S
C584 H575 0.929 . S
C584 C576 1.378 . S
C584 C579 1.350 . S
C585 H572 0.929 . S
C585 C577 1.433 . S
C585 N587 1.384 . S
N586 C582 1.427 . S
N586 C583 1.384 . S
N587 C579 1.427 . S
N587 C585 1.384 . S
H588 C594 0.930 . S
H589 C598 0.930 . S
H590 C603 0.929 . S
H591 C601 0.929 . S
H592 C596 0.929 . S
H593 C602 0.929 . S
C594 H588 0.930 . S
C594 C595 1.367 . S
C594 C602 1.378 . S
C595 C594 1.367 . S
C595 C603 1.433 . S
C596 H592 0.929 . S
C596 C598 1.378 . S
C596 C600 1.350 . S
C597 C600 1.463 . S
C597 C602 1.350 . S
C597 N605 1.427 . S
C598 H589 0.930 . S
C598 C596 1.378 . S
C598 C599 1.367 . S
C599 C598 1.367 . S
C599 C601 1.433 . S
C600 C596 1.350 . S
C600 C597 1.463 . S
C600 N604 1.427 . S
C601 H591 0.929 . S
C601 C599 1.433 . S
C601 N604 1.384 . S
C602 H593 0.929 . S
C602 C594 1.378 . S
C602 C597 1.350 . S
C603 H590 0.929 . S
C603 C595 1.433 . S
C603 N605 1.384 . S
N604 C600 1.427 . S
N604 C601 1.384 . S
N605 C597 1.427 . S
N605 C603 1.384 . S
H606 C612 0.930 . S
H607 C616 0.930 . S
H608 C621 0.929 . S
H609 C619 0.929 . S
H610 C614 0.929 . S
H611 C620 0.929 . S
C612 H606 0.930 . S
C612 C613 1.367 . S
C612 C620 1.378 . S
C613 C612 1.367 . S
C613 C621 1.433 . S
C614 H610 0.929 . S
C614 C616 1.378 . S
C614 C618 1.350 . S
C615 C618 1.463 . S
C615 C620 1.350 . S
C615 N623 1.427 . S
C616 H607 0.930 . S
C616 C614 1.378 . S
C616 C617 1.367 . S
C617 C616 1.367 . S
C617 C619 1.433 . S
C618 C614 1.350 . S
C618 C615 1.463 . S
C618 N622 1.427 . S
C619 H609 0.929 . S
C619 C617 1.433 . S
C619 N622 1.384 . S
C620 H611 0.929 . S
C620 C612 1.378 . S
C620 C615 1.350 . S
C621 H608 0.929 . S
C621 C613 1.433 . S
C621 N623 1.384 . S
N622 C618 1.427 . S
N622 C619 1.384 . S
N623 C615 1.427 . S
N623 C621 1.384 . S
H624 C630 0.930 . S
H625 C634 0.930 . S
H626 C639 0.929 . S
H627 C637 0.929 . S
H628 C632 0.929 . S
H629 C638 0.929 . S
C630 H624 0.930 . S
C630 C631 1.367 . S
C630 C638 1.378 . S
C631 C630 1.367 . S
C631 C639 1.433 . S
C632 H628 0.929 . S
C632 C634 1.378 . S
C632 C636 1.350 . S
C633 C636 1.463 . S
C633 C638 1.350 . S
C633 N641 1.427 . S
C634 H625 0.930 . S
C634 C632 1.378 . S
C634 C635 1.367 . S
C635 C634 1.367 . S
C635 C637 1.433 . S
C636 C632 1.350 . S
C636 C633 1.463 . S
C636 N640 1.427 . S
C637 H627 0.929 . S
C637 C635 1.433 . S
C637 N640 1.384 . S
C638 H629 0.929 . S
C638 C630 1.378 . S
C638 C633 1.350 . S
C639 H626 0.929 . S
C639 C631 1.433 . S
C639 N641 1.384 . S
N640 C636 1.427 . S
N640 C637 1.384 . S
N641 C633 1.427 . S
N641 C639 1.384 . S
H642 C648 0.930 . S
H643 C652 0.930 1_554 S
H644 C657 0.929 . S
H645 C655 0.929 . S
H646 C650 0.929 . S
H647 C656 0.929 . S
C648 H642 0.930 . S
C648 C649 1.367 . S
C648 C656 1.378 . S
C649 C648 1.367 . S
C649 C657 1.433 . S
C650 H646 0.929 . S
C650 C652 1.378 . S
C650 C654 1.350 . S
C651 C654 1.463 . S
C651 C656 1.350 . S
C651 N659 1.427 . S
C652 H643 0.930 1_556 S
C652 C650 1.378 . S
C652 C653 1.367 . S
C653 C652 1.367 . S
C653 C655 1.433 . S
C654 C650 1.350 . S
C654 C651 1.463 . S
C654 N658 1.427 . S
C655 H645 0.929 . S
C655 C653 1.433 . S
C655 N658 1.384 . S
C656 H647 0.929 . S
C656 C648 1.378 . S
C656 C651 1.350 . S
C657 H644 0.929 . S
C657 C649 1.433 . S
C657 N659 1.384 . S
N658 C654 1.427 . S
N658 C655 1.384 . S
N659 C651 1.427 . S
N659 C657 1.384 . S
H660 C666 0.930 . S
H661 C670 0.930 . S
H662 C675 0.929 . S
H663 C673 0.929 . S
H664 C668 0.929 . S
H665 C674 0.929 . S
C666 H660 0.930 . S
C666 C667 1.367 . S
C666 C674 1.378 . S
C667 C666 1.367 . S
C667 C675 1.433 . S
C668 H664 0.929 . S
C668 C670 1.378 . S
C668 C672 1.350 . S
C669 C672 1.463 . S
C669 C674 1.350 . S
C669 N677 1.427 . S
C670 H661 0.930 . S
C670 C668 1.378 . S
C670 C671 1.367 . S
C671 C670 1.367 . S
C671 C673 1.433 . S
C672 C668 1.350 . S
C672 C669 1.463 . S
C672 N676 1.427 . S
C673 H663 0.929 . S
C673 C671 1.433 . S
C673 N676 1.384 . S
C674 H665 0.929 . S
C674 C666 1.378 . S
C674 C669 1.350 . S
C675 H662 0.929 . S
C675 C667 1.433 . S
C675 N677 1.384 . S
N676 C672 1.427 . S
N676 C673 1.384 . S
N677 C669 1.427 . S
N677 C675 1.384 . S
H678 C684 0.930 . S
H679 C688 0.930 . S
H680 C693 0.929 . S
H681 C691 0.929 . S
H682 C686 0.929 . S
H683 C692 0.929 . S
C684 H678 0.930 . S
C684 C685 1.367 . S
C684 C692 1.378 . S
C685 C684 1.367 . S
C685 C693 1.433 . S
C686 H682 0.929 . S
C686 C688 1.378 . S
C686 C690 1.350 . S
C687 C690 1.463 . S
C687 C692 1.350 . S
C687 N695 1.427 . S
C688 H679 0.930 . S
C688 C686 1.378 . S
C688 C689 1.367 . S
C689 C688 1.367 . S
C689 C691 1.433 . S
C690 C686 1.350 . S
C690 C687 1.463 . S
C690 N694 1.427 . S
C691 H681 0.929 . S
C691 C689 1.433 . S
C691 N694 1.384 . S
C692 H683 0.929 . S
C692 C684 1.378 . S
C692 C687 1.350 . S
C693 H680 0.929 . S
C693 C685 1.433 . S
C693 N695 1.384 . S
N694 C690 1.427 . S
N694 C691 1.384 . S
N695 C687 1.427 . S
N695 C693 1.384 . S
H696 C702 0.930 . S
H697 C706 0.930 . S
H698 C711 0.929 . S
H699 C709 0.929 . S
H700 C704 0.929 . S
H701 C710 0.929 . S
C702 H696 0.930 . S
C702 C703 1.367 . S
C702 C710 1.378 . S
C703 C702 1.367 . S
C703 C711 1.433 . S
C704 H700 0.929 . S
C704 C706 1.378 . S
C704 C708 1.350 . S
C705 C708 1.463 . S
C705 C710 1.350 . S
C705 N713 1.427 . S
C706 H697 0.930 . S
C706 C704 1.378 . S
C706 C707 1.367 . S
C707 C706 1.367 . S
C707 C709 1.433 . S
C708 C704 1.350 . S
C708 C705 1.463 . S
C708 N712 1.427 . S
C709 H699 0.929 . S
C709 C707 1.433 . S
C709 N712 1.384 . S
C710 H701 0.929 . S
C710 C702 1.378 . S
C710 C705 1.350 . S
C711 H698 0.929 . S
C711 C703 1.433 . S
C711 N713 1.384 . S
N712 C708 1.427 . S
N712 C709 1.384 . S
N713 C705 1.427 . S
N713 C711 1.384 . S
H714 C720 0.930 . S
H715 C724 0.930 . S
H716 C729 0.929 . S
H717 C727 0.929 . S
H718 C722 0.929 . S
H719 C728 0.929 . S
C720 H714 0.930 . S
C720 C721 1.367 . S
C720 C728 1.378 . S
C721 C720 1.367 . S
C721 C729 1.433 . S
C722 H718 0.929 . S
C722 C724 1.378 . S
C722 C726 1.350 . S
C723 C726 1.463 . S
C723 C728 1.350 . S
C723 N731 1.427 . S
C724 H715 0.930 . S
C724 C722 1.378 . S
C724 C725 1.367 . S
C725 C724 1.367 . S
C725 C727 1.433 . S
C726 C722 1.350 . S
C726 C723 1.463 . S
C726 N730 1.427 . S
C727 H717 0.929 . S
C727 C725 1.433 . S
C727 N730 1.384 . S
C728 H719 0.929 . S
C728 C720 1.378 . S
C728 C723 1.350 . S
C729 H716 0.929 . S
C729 C721 1.433 . S
C729 N731 1.384 . S
N730 C726 1.427 . S
N730 C727 1.384 . S
N731 C723 1.427 . S
N731 C729 1.384 . S
H732 C738 0.930 . S
H733 C742 0.930 . S
H734 C747 0.929 . S
H735 C745 0.929 . S
H736 C740 0.929 . S
H737 C746 0.929 . S
C738 H732 0.930 . S
C738 C739 1.367 . S
C738 C746 1.378 . S
C739 C738 1.367 . S
C739 C747 1.433 . S
C740 H736 0.929 . S
C740 C742 1.378 . S
C740 C744 1.350 . S
C741 C744 1.463 . S
C741 C746 1.350 . S
C741 N749 1.427 . S
C742 H733 0.930 . S
C742 C740 1.378 . S
C742 C743 1.367 . S
C743 C742 1.367 . S
C743 C745 1.433 . S
C744 C740 1.350 . S
C744 C741 1.463 . S
C744 N748 1.427 . S
C745 H735 0.929 . S
C745 C743 1.433 . S
C745 N748 1.384 . S
C746 H737 0.929 . S
C746 C738 1.378 . S
C746 C741 1.350 . S
C747 H734 0.929 . S
C747 C739 1.433 . S
C747 N749 1.384 . S
N748 C744 1.427 . S
N748 C745 1.384 . S
N749 C741 1.427 . S
N749 C747 1.384 . S
H750 C756 0.930 . S
H751 C760 0.930 . S
H752 C765 0.929 . S
H753 C763 0.929 . S
H754 C758 0.929 . S
H755 C764 0.929 . S
C756 H750 0.930 . S
C756 C757 1.367 . S
C756 C764 1.378 . S
C757 C756 1.367 . S
C757 C765 1.433 . S
C758 H754 0.929 . S
C758 C760 1.378 . S
C758 C762 1.350 . S
C759 C762 1.463 . S
C759 C764 1.350 . S
C759 N767 1.427 . S
C760 H751 0.930 . S
C760 C758 1.378 . S
C760 C761 1.367 . S
C761 C760 1.367 . S
C761 C763 1.433 . S
C762 C758 1.350 . S
C762 C759 1.463 . S
C762 N766 1.427 . S
C763 H753 0.929 . S
C763 C761 1.433 . S
C763 N766 1.384 . S
C764 H755 0.929 . S
C764 C756 1.378 . S
C764 C759 1.350 . S
C765 H752 0.929 . S
C765 C757 1.433 . S
C765 N767 1.384 . S
N766 C762 1.427 . S
N766 C763 1.384 . S
N767 C759 1.427 . S
N767 C765 1.384 . S
H768 C774 0.930 . S
H769 C778 0.939 . S
H770 C783 0.929 . S
H771 C781 0.929 . S
H772 C776 0.929 . S
H773 C782 0.929 . S
C774 H768 0.930 . S
C774 C775 1.367 . S
C774 C782 1.378 . S
C775 C774 1.367 . S
C775 C783 1.433 . S
C776 H772 0.929 . S
C776 C778 1.378 . S
C776 C780 1.350 . S
C777 C780 1.463 . S
C777 C782 1.350 . S
C777 N785 1.427 . S
C778 H769 0.939 . S
C778 C776 1.378 . S
C778 C779 1.367 . S
C779 C778 1.367 . S
C779 C781 1.433 . S
C780 C776 1.350 . S
C780 C777 1.463 . S
C780 N784 1.427 . S
C781 H771 0.929 . S
C781 C779 1.433 . S
C781 N784 1.384 . S
C782 H773 0.929 . S
C782 C774 1.378 . S
C782 C777 1.350 . S
C783 H770 0.929 . S
C783 C775 1.433 . S
C783 N785 1.384 . S
N784 C780 1.427 . S
N784 C781 1.384 . S
N785 C777 1.427 . S
N785 C783 1.384 . S
H786 C792 0.930 . S
H787 C796 0.930 . S
H788 C801 0.929 . S
H789 C799 0.929 . S
H790 C794 0.929 . S
H791 C800 0.929 . S
C792 H786 0.930 . S
C792 C793 1.367 . S
C792 C800 1.378 . S
C793 C792 1.367 . S
C793 C801 1.433 . S
C794 H790 0.929 . S
C794 C796 1.378 . S
C794 C798 1.350 . S
C795 C798 1.463 . S
C795 C800 1.350 . S
C795 N803 1.427 . S
C796 H787 0.930 . S
C796 C794 1.378 . S
C796 C797 1.367 . S
C797 C796 1.367 . S
C797 C799 1.433 . S
C798 C794 1.350 . S
C798 C795 1.463 . S
C798 N802 1.427 . S
C799 H789 0.929 . S
C799 C797 1.433 . S
C799 N802 1.384 . S
C800 H791 0.929 . S
C800 C792 1.378 . S
C800 C795 1.350 . S
C801 H788 0.929 . S
C801 C793 1.433 . S
C801 N803 1.384 . S
N802 C798 1.427 . S
N802 C799 1.384 . S
N803 C795 1.427 . S
N803 C801 1.384 . S
H804 C810 0.930 . S
H805 C814 0.930 . S
H806 C819 0.929 . S
H807 C817 0.929 . S
H808 C812 0.929 . S
H809 C818 0.929 . S
C810 H804 0.930 . S
C810 C811 1.367 . S
C810 C818 1.378 . S
C811 C810 1.367 . S
C811 C819 1.433 . S
C812 H808 0.929 . S
C812 C814 1.378 . S
C812 C816 1.350 . S
C813 C816 1.463 . S
C813 C818 1.350 . S
C813 N821 1.427 . S
C814 H805 0.930 . S
C814 C812 1.378 . S
C814 C815 1.367 . S
C815 C814 1.367 . S
C815 C817 1.433 . S
C816 C812 1.350 . S
C816 C813 1.463 . S
C816 N820 1.427 . S
C817 H807 0.929 . S
C817 C815 1.433 . S
C817 N820 1.384 . S
C818 H809 0.929 . S
C818 C810 1.378 . S
C818 C813 1.350 . S
C819 H806 0.929 . S
C819 C811 1.433 . S
C819 N821 1.384 . S
N820 C816 1.427 . S
N820 C817 1.384 . S
N821 C813 1.427 . S
N821 C819 1.384 . S
H822 C828 0.930 . S
H823 C832 0.930 . S
H824 C837 0.929 . S
H825 C835 0.929 . S
H826 C830 0.929 . S
H827 C836 0.929 . S
C828 H822 0.930 . S
C828 C829 1.367 . S
C828 C836 1.378 . S
C829 C828 1.367 . S
C829 C837 1.433 . S
C830 H826 0.929 . S
C830 C832 1.378 . S
C830 C834 1.350 . S
C831 C834 1.463 . S
C831 C836 1.350 . S
C831 N839 1.427 . S
C832 H823 0.930 . S
C832 C830 1.378 . S
C832 C833 1.367 . S
C833 C832 1.367 . S
C833 C835 1.433 . S
C834 C830 1.350 . S
C834 C831 1.463 . S
C834 N838 1.427 . S
C835 H825 0.929 . S
C835 C833 1.433 . S
C835 N838 1.384 . S
C836 H827 0.929 . S
C836 C828 1.378 . S
C836 C831 1.350 . S
C837 H824 0.929 . S
C837 C829 1.433 . S
C837 N839 1.384 . S
N838 C834 1.427 . S
N838 C835 1.384 . S
N839 C831 1.427 . S
N839 C837 1.384 . S
H840 C846 0.930 . S
H841 C850 0.930 . S
H842 C855 0.929 . S
H843 C853 0.929 . S
H844 C848 0.929 . S
H845 C854 0.929 . S
C846 H840 0.930 . S
C846 C847 1.367 . S
C846 C854 1.378 . S
C847 C846 1.367 . S
C847 C855 1.433 . S
C848 H844 0.929 . S
C848 C850 1.378 . S
C848 C852 1.350 . S
C849 C852 1.463 . S
C849 C854 1.350 . S
C849 N857 1.427 . S
C850 H841 0.930 . S
C850 C848 1.378 . S
C850 C851 1.367 . S
C851 C850 1.367 . S
C851 C853 1.433 . S
C852 C848 1.350 . S
C852 C849 1.463 . S
C852 N856 1.427 . S
C853 H843 0.929 . S
C853 C851 1.433 . S
C853 N856 1.384 . S
C854 H845 0.929 . S
C854 C846 1.378 . S
C854 C849 1.350 . S
C855 H842 0.929 . S
C855 C847 1.433 . S
C855 N857 1.384 . S
N856 C852 1.427 . S
N856 C853 1.384 . S
N857 C849 1.427 . S
N857 C855 1.384 . S
H858 C864 0.930 . S
H859 C868 0.930 . S
H860 C873 0.929 . S
H861 C871 0.929 . S
H862 C866 0.929 . S
H863 C872 0.929 . S
C864 H858 0.930 . S
C864 C865 1.367 . S
C864 C872 1.378 . S
C865 C864 1.367 . S
C865 C873 1.433 . S
C866 H862 0.929 . S
C866 C868 1.378 . S
C866 C870 1.350 . S
C867 C870 1.463 . S
C867 C872 1.350 . S
C867 N875 1.427 . S
C868 H859 0.930 . S
C868 C866 1.378 . S
C868 C869 1.367 . S
C869 C868 1.367 . S
C869 C871 1.433 . S
C870 C866 1.350 . S
C870 C867 1.463 . S
C870 N874 1.427 . S
C871 H861 0.929 . S
C871 C869 1.433 . S
C871 N874 1.384 . S
C872 H863 0.929 . S
C872 C864 1.378 . S
C872 C867 1.350 . S
C873 H860 0.929 . S
C873 C865 1.433 . S
C873 N875 1.384 . S
N874 C870 1.427 . S
N874 C871 1.384 . S
N875 C867 1.427 . S
N875 C873 1.384 . S
H876 C882 0.930 . S
H877 C886 0.930 . S
H878 C891 0.929 . S
H879 C889 0.929 . S
H880 C884 0.929 . S
H881 C890 0.929 . S
C882 H876 0.930 . S
C882 C883 1.367 . S
C882 C890 1.378 . S
C883 C882 1.367 . S
C883 C891 1.433 . S
C884 H880 0.929 . S
C884 C886 1.378 . S
C884 C888 1.350 . S
C885 C888 1.463 . S
C885 C890 1.350 . S
C885 N893 1.427 . S
C886 H877 0.930 . S
C886 C884 1.378 . S
C886 C887 1.367 . S
C887 C886 1.367 . S
C887 C889 1.433 . S
C888 C884 1.350 . S
C888 C885 1.463 . S
C888 N892 1.427 . S
C889 H879 0.929 . S
C889 C887 1.433 . S
C889 N892 1.384 . S
C890 H881 0.929 . S
C890 C882 1.378 . S
C890 C885 1.350 . S
C891 H878 0.929 . S
C891 C883 1.433 . S
C891 N893 1.384 . S
N892 C888 1.427 . S
N892 C889 1.384 . S
N893 C885 1.427 . S
N893 C891 1.384 . S
H894 C900 0.930 . S
H895 C904 0.930 . S
H896 C909 0.929 . S
H897 C907 0.929 . S
H898 C902 0.929 . S
H899 C908 0.929 . S
C900 H894 0.930 . S
C900 C901 1.367 . S
C900 C908 1.378 . S
C901 C900 1.367 . S
C901 C909 1.433 . S
C902 H898 0.929 . S
C902 C904 1.378 . S
C902 C906 1.350 . S
C903 C906 1.463 . S
C903 C908 1.350 . S
C903 N911 1.427 . S
C904 H895 0.930 . S
C904 C902 1.378 . S
C904 C905 1.367 . S
C905 C904 1.367 . S
C905 C907 1.433 . S
C906 C902 1.350 . S
C906 C903 1.463 . S
C906 N910 1.427 . S
C907 H897 0.929 . S
C907 C905 1.433 . S
C907 N910 1.384 . S
C908 H899 0.929 . S
C908 C900 1.378 . S
C908 C903 1.350 . S
C909 H896 0.929 . S
C909 C901 1.433 . S
C909 N911 1.384 . S
N910 C906 1.427 . S
N910 C907 1.384 . S
N911 C903 1.427 . S
N911 C909 1.384 . S
C487 C21 0.946 . S
C491 C324 0.987 . S
C505 C61 1.335 . S
C509 C385 1.350 . S
C527 C423 2.454 . S
C523 C82 2.515 . S
C541 C135 2.343 . S
C545 C463 2.291 . S
C563 C383 1.370 . S
C559 C15 1.335 . S
C581 C351 2.286 . S
C577 C42 2.245 . S
C599 C460 1.735 . S
C595 C101 1.743 . S
C617 C420 1.802 . S
C613 C122 1.815 . S
C631 C2 1.124 . S
C635 C465 1.159 . S
C653 C380 2.339 . S
C649 C95 2.336 . S
C667 C141 2.204 . S
C671 C322 2.168 . S
C685 C55 1.629 . S
C689 C425 1.687 . S
C707 C345 0.991 . S
C703 C181 0.995 . S
C721 C202 1.291 . S
C725 C364 1.330 . S
C739 C255 2.522 . S
C743 C402 2.457 . S
C757 C295 2.313 . S
C761 C442 2.265 . S
C775 C175 1.309 . S
C779 C362 1.337 . S
C797 C340 2.282 . S
C793 C221 2.238 . S
C815 C471 1.663 . S
C811 C242 1.662 . S
C833 C431 1.873 . S
C829 C301 1.877 . S
C847 C162 1.152 . S
C851 C444 1.144 . S
C869 C391 2.384 . S
C865 C261 2.344 . S
C887 C343 2.148 . S
C883 C282 2.187 . S
C901 C215 1.652 . S
C905 C404 1.710 . S
