# Generated by pormake.
# Topology sit, (3,6)-cn, num edge types: 1
# Building blocks:
#     Node 0, Type 0, BuildingBlock: OLANEW_clean_sbu_2, # of connection points: 3
#     Node 1, Type 0, BuildingBlock: OLANEW_clean_sbu_2, # of connection points: 3
#     Node 2, Type 0, BuildingBlock: OLANEW_clean_sbu_2, # of connection points: 3
#     Node 3, Type 0, BuildingBlock: OLANEW_clean_sbu_2, # of connection points: 3
#     Node 4, Type 1, BuildingBlock: MIDCAF_clean_sbu_0, # of connection points: 6
#     Node 5, Type 1, BuildingBlock: MIDCAF_clean_sbu_0, # of connection points: 6
#     Edge 6, Type (0, 1), BuildingBlock: TEMPAE_clean_linker_10, # of connection points: 2
#     Edge 7, Type (0, 1), BuildingBlock: TEMPAE_clean_linker_10, # of connection points: 2
#     Edge 8, Type (0, 1), BuildingBlock: TEMPAE_clean_linker_10, # of connection points: 2
#     Edge 9, Type (0, 1), BuildingBlock: TEMPAE_clean_linker_10, # of connection points: 2
#     Edge 10, Type (0, 1), BuildingBlock: TEMPAE_clean_linker_10, # of connection points: 2
#     Edge 11, Type (0, 1), BuildingBlock: TEMPAE_clean_linker_10, # of connection points: 2
#     Edge 12, Type (0, 1), BuildingBlock: TEMPAE_clean_linker_10, # of connection points: 2
#     Edge 13, Type (0, 1), BuildingBlock: TEMPAE_clean_linker_10, # of connection points: 2
#     Edge 14, Type (0, 1), BuildingBlock: TEMPAE_clean_linker_10, # of connection points: 2
#     Edge 15, Type (0, 1), BuildingBlock: TEMPAE_clean_linker_10, # of connection points: 2
#     Edge 16, Type (0, 1), BuildingBlock: TEMPAE_clean_linker_10, # of connection points: 2
#     Edge 17, Type (0, 1), BuildingBlock: TEMPAE_clean_linker_10, # of connection points: 2
# Relax obj value: 0.079
# Max RMSD: 0.184
# Mean RMSD: 0.109
data_MOF--net-sit--node1-OLANEW_clean_sbu_2--node2-MIDCAF_clean_sbu_0--edge1-TEMPAE_clean_linker_10
_symmetry_space_group_name_H-M    P1
_symmetry_Int_Tables_number       1
_symmetry_cell_setting            triclinic
loop_
_symmetry_equiv_pos_as_xyz
'x, y, z'
_cell_length_a     22.597407
_cell_length_b     35.878031
_cell_length_c     39.728737
_cell_angle_alpha  90.109829
_cell_angle_beta   83.488583
_cell_angle_gamma 84.05152
loop_
_atom_site_label
_atom_site_type_symbol
_atom_site_fract_x
_atom_site_fract_y
_atom_site_fract_z
_atom_type_partial_charge
O0 O 0.2097 0.26329 0.01032 0.0
Cd1 Cd 0.13327 0.21893 0.01783 0.0
O2 O 0.14513 0.31031 0.0301 0.0
Cd3 Cd 0.11292 0.37004 0.0331 0.0
O4 O 0.05914 0.41792 0.01453 0.0
C5 C 0.04105 0.41013 0.9865 0.0
O6 O 0.05878 0.37699 0.9726 0.0
C7 C 0.19714 0.29826 0.01631 0.0
C8 C 0.1299 0.17237 0.07415 0.0
O9 O 0.16378 0.16246 0.04683 0.0
O10 O 0.09955 0.20468 0.07507 0.0
O11 O 0.06664 0.66438 0.06984 0.0
Cd12 Cd 0.98136 0.71085 0.08927 0.0
O13 O 0.10245 0.70273 0.03141 0.0
Cd14 Cd 0.01588 0.73577 0.03336 0.0
O15 O 0.93098 0.72717 0.01497 0.0
C16 C 0.91598 0.69406 0.01814 0.0
O17 O 0.94986 0.66919 0.0336 0.0
C18 C 0.10796 0.67198 0.0472 0.0
C19 C 0.00932 0.77058 0.12816 0.0
O20 O 0.99292 0.74046 0.14194 0.0
O21 O 0.01352 0.7724 0.09579 0.0
O22 O 0.76876 0.72592 0.48698 0.0
Cd23 Cd 0.74448 0.66077 0.49306 0.0
O24 O 0.68421 0.75815 0.50762 0.0
Cd25 Cd 0.62356 0.81003 0.51331 0.0
O26 O 0.54875 0.85016 0.50285 0.0
C27 C 0.54625 0.88573 0.50409 0.0
O28 O 0.5917 0.90164 0.51345 0.0
C29 C 0.7378 0.75729 0.49366 0.0
C30 C 0.69904 0.63568 0.55621 0.0
O31 O 0.75478 0.63989 0.54955 0.0
O32 O 0.66429 0.64457 0.53349 0.0
O33 O 0.62824 0.21281 0.5293 0.0
Cd34 Cd 0.54659 0.26397 0.53901 0.0
O35 O 0.58203 0.17139 0.56018 0.0
Cd36 Cd 0.49994 0.20885 0.56971 0.0
O37 O 0.41844 0.20234 0.54717 0.0
C38 C 0.40085 0.16992 0.55067 0.0
O39 O 0.42901 0.14564 0.56962 0.0
C40 C 0.62754 0.17986 0.54112 0.0
C41 C 0.55632 0.3155 0.59045 0.0
O42 O 0.5298 0.2859 0.5965 0.0
O43 O 0.57949 0.32047 0.56003 0.0
Zn44 Zn 0.02815 0.07106 0.36056 0.0
Zn45 Zn 0.1211 0.9354 0.36975 0.0
Zn46 Zn 0.07186 0.00362 0.36511 0.0
C47 C 0.10273 0.94447 0.30212 0.0
C48 C 0.00823 0.94147 0.409 0.0
O49 O 0.12838 0.03924 0.38981 0.0
O50 O 0.07032 0.09289 0.39611 0.0
C51 C 0.07628 0.04915 0.29586 0.0
O52 O 0.08368 0.97789 0.31327 0.0
O53 O 0.12233 0.91994 0.32195 0.0
O54 O 0.05619 0.91984 0.40341 0.0
O55 O 0.00408 0.97408 0.3955 0.0
O56 O 0.06025 0.07871 0.31315 0.0
O57 O 0.07747 0.01695 0.3102 0.0
O58 O 0.98093 0.01232 0.39342 0.0
O59 O 0.94214 0.06494 0.37225 0.0
C60 C 0.93611 0.0372 0.39136 0.0
O61 O 0.15584 1.00252 0.39036 0.0
O62 O 0.1974 0.94382 0.38596 0.0
C63 C 0.11737 0.07295 0.40186 0.0
C64 C 0.19899 0.97731 0.39507 0.0
Zn65 Zn 0.50426 0.58866 0.857 0.0
Zn66 Zn 0.61462 0.45288 0.86722 0.0
Zn67 Zn 0.55916 0.52045 0.86132 0.0
C68 C 0.59554 0.46113 0.79913 0.0
C69 C 0.50367 0.45486 0.90656 0.0
O70 O 0.61303 0.55991 0.88288 0.0
O71 O 0.55528 0.6139 0.88634 0.0
C72 C 0.54542 0.56371 0.79081 0.0
O73 O 0.57307 0.49407 0.81003 0.0
O74 O 0.61738 0.43764 0.81918 0.0
O75 O 0.55259 0.43429 0.90053 0.0
O76 O 0.49716 0.48757 0.89326 0.0
O77 O 0.52134 0.59256 0.80728 0.0
O78 O 0.55937 0.53321 0.80659 0.0
O79 O 0.46995 0.52481 0.89194 0.0
O80 O 0.42353 0.57853 0.87705 0.0
C81 C 0.42293 0.5487 0.8938 0.0
O82 O 0.64361 0.52421 0.88455 0.0
O83 O 0.68823 0.46625 0.88396 0.0
C84 C 0.60306 0.59466 0.89207 0.0
C85 C 0.68802 0.50063 0.89054 0.0
C86 C 0.16165 0.11308 0.10394 0.0
C87 C 0.12491 0.14712 0.10364 0.0
C88 C 0.15774 0.08955 0.13224 0.0
C89 C 0.11608 0.10033 0.16079 0.0
C90 C 0.07755 0.13402 0.16009 0.0
C91 C 0.08257 0.15699 0.13163 0.0
C92 C 0.19945 0.05384 0.13203 0.0
C93 C 0.03221 0.14652 0.18993 0.0
C94 C 0.06636 0.03934 0.23452 0.0
C95 C 0.09686 0.05328 0.25975 0.0
C96 C 0.07595 0.05186 0.20097 0.0
C97 C 0.11651 0.07907 0.19295 0.0
C98 C 0.15107 0.09052 0.21791 0.0
C99 C 0.14051 0.07762 0.25104 0.0
C100 C 0.0388 0.03847 0.17505 0.0
C101 C 0.19525 0.11911 0.21053 0.0
H102 H 0.19419 0.10508 0.08229 0.0
H103 H 0.0535 0.18298 0.1315 0.0
H104 H 0.2324 0.05657 0.15034 0.0
H105 H 0.17407 0.02993 0.14021 0.0
H106 H 0.22429 0.04726 0.1066 0.0
H107 H 0.0028 0.17202 0.18444 0.0
H108 H 0.0037 0.12382 0.19729 0.0
H109 H 0.05574 0.15264 0.21204 0.0
H110 H 0.03179 0.0211 0.24146 0.0
H111 H 0.16396 0.08838 0.27074 0.0
H112 H 0.06544 0.03443 0.14984 0.0
H113 H 0.00061 0.05993 0.17244 0.0
H114 H 0.02059 0.01174 0.18266 0.0
H115 H 0.22428 0.11208 0.18648 0.0
H116 H 0.22414 0.1211 0.23117 0.0
H117 H 0.17053 0.14708 0.20757 0.0
C118 C 0.04513 0.83414 0.13414 0.0
C119 C 0.02267 0.80228 0.14916 0.0
C120 C 0.05909 0.8638 0.15408 0.0
C121 C 0.05031 0.86151 0.18983 0.0
C122 C 0.02625 0.82984 0.20506 0.0
C123 C 0.01292 0.80066 0.18458 0.0
C124 C 0.08462 0.89707 0.13694 0.0
C125 C 0.01578 0.82631 0.24312 0.0
C126 C 0.13951 0.90546 0.25102 0.0
C127 C 0.09631 0.93233 0.26735 0.0
C128 C 0.12713 0.88462 0.22325 0.0
C129 C 0.06982 0.89054 0.21184 0.0
C130 C 0.02826 0.9203 0.22608 0.0
C131 C 0.04202 0.94088 0.25383 0.0
C132 C 0.17327 0.85372 0.20849 0.0
C133 C 0.967 0.92796 0.2144 0.0
H134 H 0.0526 0.83571 0.10677 0.0
H135 H 0.99516 0.77635 0.19644 0.0
H136 H 0.06003 0.92361 0.14764 0.0
H137 H 0.13203 0.89726 0.14168 0.0
H138 H 0.08274 0.89654 0.10913 0.0
H139 H 0.99404 0.80081 0.25092 0.0
H140 H 0.05911 0.82517 0.25391 0.0
H141 H 0.98709 0.85122 0.25436 0.0
H142 H 0.18162 0.89891 0.26147 0.0
H143 H 0.00819 0.96122 0.26677 0.0
H144 H 0.17647 0.85338 0.18043 0.0
H145 H 0.1596 0.82625 0.21739 0.0
H146 H 0.21831 0.85669 0.21621 0.0
H147 H 0.96941 0.92541 0.18644 0.0
H148 H 0.94561 0.95635 0.22244 0.0
H149 H 0.93794 0.90699 0.22557 0.0
C150 C 0.62733 0.59874 0.59111 0.0
C151 C 0.67577 0.62043 0.589 0.0
C152 C 0.60519 0.58383 0.62215 0.0
C153 C 0.63064 0.59211 0.65189 0.0
C154 C 0.68001 0.61368 0.64976 0.0
C155 C 0.70259 0.62706 0.61822 0.0
C156 C 0.55432 0.55953 0.62321 0.0
C157 C 0.7078 0.62366 0.68096 0.0
C158 C 0.53545 0.59782 0.73685 0.0
C159 C 0.56126 0.56702 0.75376 0.0
C160 C 0.55627 0.60551 0.70328 0.0
C161 C 0.60283 0.58112 0.68567 0.0
C162 C 0.62616 0.54848 0.70173 0.0
C163 C 0.60638 0.54247 0.73592 0.0
C164 C 0.53083 0.641 0.68741 0.0
C165 C 0.67411 0.52084 0.68354 0.0
H166 H 0.60726 0.59299 0.56837 0.0
H167 H 0.74015 0.64374 0.61658 0.0
H168 H 0.56529 0.53329 0.637 0.0
H169 H 0.51335 0.57441 0.63718 0.0
H170 H 0.54422 0.55216 0.59745 0.0
H171 H 0.74608 0.64054 0.67495 0.0
H172 H 0.67364 0.63988 0.69909 0.0
H173 H 0.7238 0.59781 0.69389 0.0
H174 H 0.50056 0.61702 0.75037 0.0
H175 H 0.62825 0.51948 0.74897 0.0
H176 H 0.51476 0.63453 0.66293 0.0
H177 H 0.56648 0.65996 0.68204 0.0
H178 H 0.49313 0.65619 0.70404 0.0
H179 H 0.66707 0.5174 0.65656 0.0
H180 H 0.67522 0.49293 0.6957 0.0
H181 H 0.71845 0.53129 0.68429 0.0
C182 C 0.59065 0.37482 0.61167 0.0
C183 C 0.56001 0.34296 0.61792 0.0
C184 C 0.59615 0.40006 0.63802 0.0
C185 C 0.57054 0.39317 0.67131 0.0
C186 C 0.53779 0.3618 0.67747 0.0
C187 C 0.53298 0.33712 0.65075 0.0
C188 C 0.6309 0.43341 0.63047 0.0
C189 C 0.50957 0.35349 0.7126 0.0
C190 C 0.63723 0.42069 0.74948 0.0
C191 C 0.59425 0.44905 0.76364 0.0
C192 C 0.63217 0.40407 0.71818 0.0
C193 C 0.58277 0.41606 0.70054 0.0
C194 C 0.54159 0.44662 0.71346 0.0
C195 C 0.54757 0.46263 0.74509 0.0
C196 C 0.67756 0.37191 0.70518 0.0
C197 C 0.48904 0.46079 0.69508 0.0
H198 H 0.61124 0.37974 0.5863 0.0
H199 H 0.50874 0.31283 0.65579 0.0
H200 H 0.60436 0.45946 0.64089 0.0
H201 H 0.67254 0.43005 0.643 0.0
H202 H 0.6432 0.43683 0.60287 0.0
H203 H 0.48225 0.32946 0.71274 0.0
H204 H 0.5451 0.34691 0.72946 0.0
H205 H 0.48056 0.37844 0.72349 0.0
H206 H 0.67385 0.41043 0.76357 0.0
H207 H 0.51421 0.48455 0.75597 0.0
H208 H 0.694 0.37601 0.67821 0.0
H209 H 0.65606 0.34542 0.70671 0.0
H210 H 0.7166 0.36868 0.71999 0.0
H211 H 0.50277 0.46261 0.66748 0.0
H212 H 0.46847 0.4888 0.70476 0.0
H213 H 0.4545 0.44086 0.69863 0.0
C214 C 0.24326 0.35856 0.02058 0.0
C215 C 0.24003 0.32477 0.00339 0.0
C216 C 0.28213 0.38449 0.00738 0.0
C217 C 0.31888 0.37614 0.97646 0.0
C218 C 0.3158 0.34199 0.95911 0.0
C219 C 0.2767 0.31666 0.97289 0.0
C220 C 0.28458 0.42045 0.02673 0.0
C221 C 0.35408 0.33207 0.92598 0.0
C222 C 0.3947 0.448 0.92164 0.0
C223 C 0.45423 0.43997 0.92821 0.0
C224 C 0.34894 0.42929 0.93893 0.0
C225 C 0.36351 0.40167 0.96298 0.0
C226 C 0.42303 0.39525 0.97113 0.0
C227 C 0.46766 0.41437 0.95355 0.0
C228 C 0.2859 0.43732 0.9298 0.0
C229 C 0.44039 0.36647 0.99692 0.0
H230 H 0.21614 0.36448 0.04463 0.0
H231 H 0.27408 0.29066 0.95944 0.0
H232 H 0.32926 0.42061 0.03574 0.0
H233 H 0.27849 0.44491 0.00996 0.0
H234 H 0.24985 0.42408 0.04897 0.0
H235 H 0.34453 0.30513 0.915 0.0
H236 H 0.3465 0.35453 0.90732 0.0
H237 H 0.40215 0.32987 0.92991 0.0
H238 H 0.38434 0.46731 0.90168 0.0
H239 H 0.51367 0.40835 0.95888 0.0
H240 H 0.25306 0.43947 0.95287 0.0
H241 H 0.27537 0.41386 0.91402 0.0
H242 H 0.28006 0.46368 0.91535 0.0
H243 H 0.40909 0.37025 0.02057 0.0
H244 H 0.48672 0.36805 0.00325 0.0
H245 H 0.43747 0.33795 0.98679 0.0
C246 C 0.83804 0.70542 0.97823 0.0
C247 C 0.86487 0.68242 0.00197 0.0
C248 C 0.79333 0.69304 0.96044 0.0
C249 C 0.77457 0.65704 0.96692 0.0
C250 C 0.79999 0.63425 0.9917 0.0
C251 C 0.84512 0.6471 0.00876 0.0
C252 C 0.76763 0.71793 0.93392 0.0
C253 C 0.7805 0.59591 -0.00042 0.0
C254 C 0.62693 0.63395 0.93935 0.0
C255 C 0.64657 0.61179 0.9104 0.0
C256 C 0.66811 0.64905 0.95802 0.0
C257 C 0.7301 0.64246 0.94687 0.0
C258 C 0.74989 0.621 0.91699 0.0
C259 C 0.70776 0.60565 0.89924 0.0
C260 C 0.64544 0.67129 0.99002 0.0
C261 C 0.81553 0.61404 0.90394 0.0
H262 H 0.85325 0.73267 0.97275 0.0
H263 H 0.86547 0.62921 0.02717 0.0
H264 H 0.77845 0.70411 0.90864 0.0
H265 H 0.71812 0.72232 0.93913 0.0
H266 H 0.78534 0.74571 0.93284 0.0
H267 H 0.80215 0.58254 0.0209 0.0
H268 H 0.7312 0.59784 0.00603 0.0
H269 H 0.79191 0.5775 0.97685 0.0
H270 H 0.57942 0.63858 0.94791 0.0
H271 H 0.72251 0.58916 0.87638 0.0
H272 H 0.66123 0.69956 0.98847 0.0
H273 H 0.66373 0.65718 0.01202 0.0
H274 H 0.59577 0.67448 0.99482 0.0
H275 H 0.83569 0.64095 0.90147 0.0
H276 H 0.82304 0.59935 0.87895 0.0
H277 H 0.83956 0.5968 0.92228 0.0
C278 C 0.98446 0.47352 0.98053 0.0
C279 C 0.99481 0.43525 0.97194 0.0
C280 C 0.93773 0.4965 0.968 0.0
C281 C 0.89938 0.48032 0.94758 0.0
C282 C 0.91064 0.44179 0.93843 0.0
C283 C 0.95868 0.42001 0.95027 0.0
C284 C 0.929 0.53757 0.97757 0.0
C285 C 0.87066 0.423 0.91705 0.0
C286 C 0.7362 0.50574 0.94245 0.0
C287 C 0.73744 0.51193 0.90768 0.0
C288 C 0.78958 0.50054 0.95749 0.0
C289 C 0.84488 0.50188 0.93707 0.0
C290 C 0.84521 0.51411 0.90321 0.0
C291 C 0.79129 0.51809 0.88854 0.0
C292 C 0.78708 0.48866 0.99397 0.0
C293 C 0.90308 0.51855 0.88143 0.0
H294 H 0.01272 0.48551 0.99707 0.0
H295 H 0.96637 0.39046 0.94359 0.0
H296 H 0.90151 0.54133 0.00253 0.0
H297 H 0.97268 0.54831 0.98014 0.0
H298 H 0.90612 0.55479 0.95876 0.0
H299 H 0.88461 0.39253 0.91327 0.0
H300 H 0.8237 0.42659 0.92924 0.0
H301 H 0.87138 0.43615 0.89179 0.0
H302 H 0.69423 0.50093 0.95709 0.0
H303 H 0.79196 0.52297 0.86158 0.0
H304 H 0.81845 0.50338 0.00741 0.0
H305 H 0.80097 0.45811 0.99496 0.0
H306 H 0.7413 0.49445 0.00759 0.0
H307 H 0.93457 0.53149 0.89627 0.0
H308 H 0.89541 0.53604 0.85898 0.0
H309 H 0.92461 0.49058 0.87236 0.0
C310 C 0.21142 0.65484 0.01946 0.0
C311 C 0.15802 0.64343 0.03543 0.0
C312 C 0.25439 0.62915 0.0014 0.0
C313 C 0.24315 0.59115 -0.00132 0.0
C314 C 0.1915 0.57885 0.01705 0.0
C315 C 0.14953 0.6052 0.03543 0.0
C316 C 0.30963 0.64343 0.98296 0.0
C317 C 0.17778 0.53867 0.01512 0.0
C318 C 0.3142 0.55971 0.91224 0.0
C319 C 0.37135 0.54554 0.91945 0.0
C320 C 0.2685 0.57005 0.93841 0.0
C321 C 0.28094 0.5668 0.97249 0.0
C322 C 0.33591 0.5476 0.97976 0.0
C323 C 0.38078 0.53708 0.95298 0.0
C324 C 0.20953 0.58883 0.92944 0.0
C325 C 0.35014 0.5422 0.0157 0.0
H326 H 0.21836 0.6843 0.01973 0.0
H327 H 0.10813 0.59624 0.04769 0.0
H328 H 0.35037 0.62514 0.9878 0.0
H329 H 0.30678 0.6429 0.95526 0.0
H330 H 0.31486 0.67258 0.99069 0.0
H331 H 0.14848 0.53119 0.03794 0.0
H332 H 0.15377 0.53495 0.99268 0.0
H333 H 0.2192 0.51888 0.01236 0.0
H334 H 0.30674 0.5657 0.88622 0.0
H335 H 0.42497 0.52585 0.95858 0.0
H336 H 0.2081 0.61957 0.93336 0.0
H337 H 0.17161 0.57897 0.94603 0.0
H338 H 0.2032 0.58341 0.90261 0.0
H339 H 0.3657 0.5683 0.02494 0.0
H340 H 0.38616 0.51894 0.01735 0.0
H341 H 0.3099 0.53629 0.03273 0.0
C342 C 0.80353 0.79151 0.45304 0.0
C343 C 0.76392 0.79208 0.48285 0.0
C344 C 0.83356 0.82271 0.4434 0.0
C345 C 0.8245 0.85526 0.46436 0.0
C346 C 0.7824 0.8567 0.49374 0.0
C347 C 0.75259 0.82496 0.5027 0.0
C348 C 0.8774 0.82003 0.41159 0.0
C349 C 0.77135 0.89083 0.51672 0.0
C350 C 0.96751 0.90127 0.45477 0.0
C351 C 0.95673 0.92728 0.42937 0.0
C352 C 0.9224 0.8803 0.46912 0.0
C353 C 0.86527 0.88509 0.4574 0.0
C354 C 0.85241 0.91404 0.43425 0.0
C355 C 0.8985 0.93495 0.42047 0.0
C356 C 0.93781 0.85046 0.49439 0.0
C357 C 0.79182 0.9206 0.42158 0.0
H358 H 0.81191 0.76626 0.43745 0.0
H359 H 0.72272 0.82533 0.52608 0.0
H360 H 0.86863 0.8447 0.3954 0.0
H361 H 0.92368 0.81997 0.41844 0.0
H362 H 0.87507 0.79422 0.39651 0.0
H363 H 0.729 0.89079 0.53393 0.0
H364 H 0.80882 0.89121 0.53247 0.0
H365 H 0.76951 0.91697 0.50184 0.0
H366 H 0.01236 0.89577 0.4621 0.0
H367 H 0.89001 0.9551 0.40083 0.0
H368 H 0.94211 0.82246 0.4819 0.0
H369 H 0.90175 0.85081 0.51583 0.0
H370 H 0.98064 0.8541 0.50463 0.0
H371 H 0.78878 0.8995 0.40156 0.0
H372 H 0.78453 0.94895 0.41059 0.0
H373 H 0.75537 0.9174 0.44222 0.0
C374 C 0.33161 0.12361 0.53718 0.0
C375 C 0.3549 0.15791 0.53052 0.0
C376 C 0.29205 0.11009 0.5165 0.0
C377 C 0.27568 0.13127 0.48839 0.0
C378 C 0.29828 0.1662 0.4818 0.0
C379 C 0.33737 0.17924 0.5031 0.0
C380 C 0.26804 0.07304 0.52461 0.0
C381 C 0.28231 0.18932 0.45178 0.0
C382 C 0.22006 0.07902 0.41701 0.0
C383 C 0.15811 0.08806 0.42357 0.0
C384 C 0.25902 0.09305 0.43781 0.0
C385 C 0.23516 0.1167 0.46575 0.0
C386 C 0.17253 0.1261 0.4723 0.0
C387 C 0.13473 0.11185 0.45093 0.0
C388 C 0.32558 0.08234 0.43008 0.0
C389 C 0.14541 0.15082 0.50207 0.0
H390 H 0.34477 0.10705 0.55842 0.0
H391 H 0.35555 0.20566 0.49766 0.0
H392 H 0.219 0.07766 0.53206 0.0
H393 H 0.27544 0.05458 0.50182 0.0
H394 H 0.28932 0.05834 0.54545 0.0
H395 H 0.30316 0.21607 0.45038 0.0
H396 H 0.29724 0.17307 0.428 0.0
H397 H 0.23302 0.19581 0.45313 0.0
H398 H 0.23807 0.06146 0.39527 0.0
H399 H 0.08668 0.11879 0.45599 0.0
H400 H 0.34232 0.0659 0.45128 0.0
H401 H 0.34951 0.10786 0.42768 0.0
H402 H 0.33706 0.06534 0.4064 0.0
H403 H 0.15768 0.13788 0.526 0.0
H404 H 0.0958 0.15552 0.50356 0.0
H405 H 0.16357 0.1784 0.50027 0.0
C406 C 0.48893 0.9479 0.49359 0.0
C407 C 0.49387 0.90854 0.49264 0.0
C408 C 0.44078 0.9692 0.48072 0.0
C409 C 0.3972 0.9506 0.46631 0.0
C410 C 0.40127 0.91093 0.46616 0.0
C411 C 0.44924 0.89051 0.47942 0.0
C412 C 0.43708 0.01142 0.48195 0.0
C413 C 0.35588 0.88982 0.45101 0.0
C414 C 0.24115 0.98615 0.44884 0.0
C415 C 0.24896 0.98549 0.41341 0.0
C416 C 0.2906 0.97902 0.46721 0.0
C417 C 0.34871 0.97163 0.44948 0.0
C418 C 0.35698 0.97592 0.41387 0.0
C419 C 0.30672 0.98224 0.39617 0.0
C420 C 0.27964 0.97446 0.50508 0.0
C421 C 0.41812 0.9689 0.39397 0.0
H422 H 0.523 0.96207 0.50399 0.0
H423 H 0.45239 0.86016 0.47867 0.0
H424 H 0.44096 0.02249 0.45583 0.0
H425 H 0.39291 0.02315 0.49481 0.0
H426 H 0.47285 0.02162 0.49546 0.0
H427 H 0.36453 0.85901 0.45391 0.0
H428 H 0.31009 0.89903 0.46322 0.0
H429 H 0.35676 0.89592 0.42359 0.0
H430 H 0.19618 0.98833 0.46203 0.0
H431 H 0.31237 0.98156 0.36869 0.0
H432 H 0.31573 0.98514 0.51791 0.0
H433 H 0.27926 0.94425 0.51093 0.0
H434 H 0.23584 0.98923 0.51572 0.0
H435 H 0.4522 0.98156 0.407 0.0
H436 H 0.41847 0.98035 0.36799 0.0
H437 H 0.4314 0.93825 0.39183 0.0
C438 C 0.73007 0.15949 0.51261 0.0
C439 C 0.6752 0.15005 0.52844 0.0
C440 C 0.77099 0.13246 0.49465 0.0
C441 C 0.75617 0.09519 0.49193 0.0
C442 C 0.70269 0.08489 0.5098 0.0
C443 C 0.66296 0.11244 0.52807 0.0
C444 C 0.82836 0.14445 0.47667 0.0
C445 C 0.68503 0.0456 0.50754 0.0
C446 C 0.82823 0.05676 0.40735 0.0
C447 C 0.88222 0.03888 0.41617 0.0
C448 C 0.7832 0.07161 0.43233 0.0
C449 C 0.79316 0.06907 0.46685 0.0
C450 C 0.84438 0.04695 0.47595 0.0
C451 C 0.88834 0.03175 0.45035 0.0
C452 C 0.72812 0.09369 0.42152 0.0
C453 C 0.85627 0.04293 0.51243 0.0
H454 H 0.74003 0.1884 0.51308 0.0
H455 H 0.6205 0.10487 0.54017 0.0
H456 H 0.86717 0.12465 0.48194 0.0
H457 H 0.8263 0.14405 0.4489 0.0
H458 H 0.8363 0.17312 0.4844 0.0
H459 H 0.65031 0.03996 0.52849 0.0
H460 H 0.66649 0.04196 0.48319 0.0
H461 H 0.7243 0.0244 0.50806 0.0
H462 H 0.82327 0.06188 0.38086 0.0
H463 H 0.93012 0.01786 0.45724 0.0
H464 H 0.73195 0.1241 0.42438 0.0
H465 H 0.68734 0.08719 0.43776 0.0
H466 H 0.72246 0.08783 0.39467 0.0
H467 H 0.87491 0.06846 0.5206 0.0
H468 H 0.88912 0.01835 0.51581 0.0
H469 H 0.81439 0.04006 0.52926 0.0
loop_
_geom_bond_atom_site_label_1
_geom_bond_atom_site_label_2
_geom_bond_distance
_geom_bond_site_symmetry_2
_ccdc_geom_bond_type
O0 Cd1 2.300 . S
O0 C7 1.275 . S
Cd1 O0 2.300 . S
Cd1 O9 2.381 . S
Cd1 O10 2.378 . S
O2 Cd3 2.385 . S
O2 C7 1.255 . S
Cd3 O2 2.385 . S
Cd3 O4 2.317 . S
O4 Cd3 2.317 . S
O4 C5 1.232 1_554 S
C5 O4 1.232 1_556 S
C5 O6 1.218 . S
O6 C5 1.218 . S
C7 O0 1.275 . S
C7 O2 1.255 . S
C8 O9 1.258 . S
C8 O10 1.256 . S
O9 Cd1 2.381 . S
O9 C8 1.258 . S
O10 Cd1 2.378 . S
O10 C8 1.256 . S
O11 Cd12 2.300 . S
O11 C18 1.275 . S
Cd12 O11 2.300 . S
Cd12 O20 2.381 . S
Cd12 O21 2.378 1_455 S
O13 Cd14 2.385 1_455 S
O13 C18 1.255 1_556 S
Cd14 O13 2.385 1_655 S
Cd14 O15 2.317 1_556 S
O15 Cd14 2.317 1_554 S
O15 C16 1.232 1_554 S
C16 O15 1.232 1_556 S
C16 O17 1.218 . S
O17 C16 1.218 . S
C18 O11 1.275 . S
C18 O13 1.255 1_554 S
C19 O20 1.258 . S
C19 O21 1.256 1_455 S
O20 Cd12 2.381 . S
O20 C19 1.258 . S
O21 Cd12 2.378 1_655 S
O21 C19 1.256 1_655 S
O22 Cd23 2.300 . S
O22 C29 1.275 . S
Cd23 O22 2.300 . S
Cd23 O31 2.381 . S
Cd23 O32 2.378 . S
O24 Cd25 2.385 . S
O24 C29 1.255 . S
Cd25 O24 2.385 . S
Cd25 O26 2.317 . S
O26 Cd25 2.317 . S
O26 C27 1.232 . S
C27 O26 1.232 . S
C27 O28 1.218 . S
O28 C27 1.218 . S
C29 O22 1.275 . S
C29 O24 1.255 . S
C30 O31 1.258 . S
C30 O32 1.256 . S
O31 Cd23 2.381 . S
O31 C30 1.258 . S
O32 Cd23 2.378 . S
O32 C30 1.256 . S
O33 Cd34 2.300 . S
O33 C40 1.275 . S
Cd34 O33 2.300 . S
Cd34 O42 2.381 . S
Cd34 O43 2.378 . S
O35 Cd36 2.385 . S
O35 C40 1.255 . S
Cd36 O35 2.385 . S
Cd36 O37 2.317 . S
O37 Cd36 2.317 . S
O37 C38 1.232 . S
C38 O37 1.232 . S
C38 O39 1.218 . S
O39 C38 1.218 . S
C40 O33 1.275 . S
C40 O35 1.255 . S
C41 O42 1.258 . S
C41 O43 1.256 . S
O42 Cd34 2.381 . S
O42 C41 1.258 . S
O43 Cd34 2.378 . S
O43 C41 1.256 . S
Zn44 O50 1.920 . S
Zn44 O56 1.898 . S
Zn44 O59 1.905 1_455 S
Zn45 O53 1.905 . S
Zn45 O54 1.898 . S
Zn45 O62 1.920 . S
Zn46 O49 2.080 . S
Zn46 O52 2.114 1_545 S
Zn46 O55 2.120 1_545 S
Zn46 O57 2.120 . S
Zn46 O58 2.114 1_455 S
Zn46 O61 2.080 1_545 S
C47 O52 1.166 . S
C47 O53 1.182 . S
C48 O54 1.167 . S
C48 O55 1.299 . S
O49 Zn46 2.080 . S
O49 C63 1.305 . S
O50 Zn44 1.920 . S
O50 C63 1.234 . S
C51 O56 1.167 . S
C51 O57 1.299 . S
O52 Zn46 2.114 1_565 S
O52 C47 1.166 . S
O53 Zn45 1.905 . S
O53 C47 1.182 . S
O54 Zn45 1.898 . S
O54 C48 1.167 . S
O55 Zn46 2.120 1_565 S
O55 C48 1.299 . S
O56 Zn44 1.898 . S
O56 C51 1.167 . S
O57 Zn46 2.120 . S
O57 C51 1.299 . S
O58 Zn46 2.114 1_655 S
O58 C60 1.166 . S
O59 Zn44 1.905 1_655 S
O59 C60 1.182 . S
C60 O58 1.166 . S
C60 O59 1.182 . S
O61 Zn46 2.080 1_565 S
O61 C64 1.305 . S
O62 Zn45 1.920 . S
O62 C64 1.234 . S
C63 O49 1.305 . S
C63 O50 1.234 . S
C64 O61 1.305 . S
C64 O62 1.234 . S
Zn65 O71 1.920 . S
Zn65 O77 1.898 . S
Zn65 O80 1.905 . S
Zn66 O74 1.905 . S
Zn66 O75 1.898 . S
Zn66 O83 1.920 . S
Zn67 O70 2.080 . S
Zn67 O73 2.114 . S
Zn67 O76 2.120 . S
Zn67 O78 2.120 . S
Zn67 O79 2.114 . S
Zn67 O82 2.080 . S
C68 O73 1.166 . S
C68 O74 1.182 . S
C69 O75 1.167 . S
C69 O76 1.299 . S
O70 Zn67 2.080 . S
O70 C84 1.305 . S
O71 Zn65 1.920 . S
O71 C84 1.234 . S
C72 O77 1.167 . S
C72 O78 1.299 . S
O73 Zn67 2.114 . S
O73 C68 1.166 . S
O74 Zn66 1.905 . S
O74 C68 1.182 . S
O75 Zn66 1.898 . S
O75 C69 1.167 . S
O76 Zn67 2.120 . S
O76 C69 1.299 . S
O77 Zn65 1.898 . S
O77 C72 1.167 . S
O78 Zn67 2.120 . S
O78 C72 1.299 . S
O79 Zn67 2.114 . S
O79 C81 1.166 . S
O80 Zn65 1.905 . S
O80 C81 1.182 . S
C81 O79 1.166 . S
C81 O80 1.182 . S
O82 Zn67 2.080 . S
O82 C85 1.305 . S
O83 Zn66 1.920 . S
O83 C85 1.234 . S
C84 O70 1.305 . S
C84 O71 1.234 . S
C85 O82 1.305 . S
C85 O83 1.234 . S
C86 C87 1.391 . S
C86 C88 1.394 . S
C86 H102 0.931 . S
C87 C86 1.391 . S
C87 C91 1.376 . S
C88 C86 1.394 . S
C88 C89 1.369 . S
C88 C92 1.531 . S
C89 C88 1.369 . S
C89 C90 1.410 . S
C89 C97 1.503 . S
C90 C89 1.410 . S
C90 C91 1.392 . S
C90 C93 1.511 . S
C91 C87 1.376 . S
C91 C90 1.392 . S
C91 H103 0.929 . S
C92 C88 1.531 . S
C92 H104 0.960 . S
C92 H105 0.962 . S
C92 H106 0.960 . S
C93 C90 1.511 . S
C93 H107 0.961 . S
C93 H108 0.961 . S
C93 H109 0.961 . S
C94 C95 1.370 . S
C94 C96 1.363 . S
C94 H110 0.931 . S
C95 C94 1.370 . S
C95 C99 1.408 . S
C96 C94 1.363 . S
C96 C97 1.370 . S
C96 C100 1.524 . S
C97 C89 1.503 . S
C97 C96 1.370 . S
C97 C98 1.403 . S
C98 C97 1.403 . S
C98 C99 1.404 . S
C98 C101 1.539 . S
C99 C95 1.408 . S
C99 C98 1.404 . S
C99 H111 0.930 . S
C100 C96 1.524 . S
C100 H112 0.956 . S
C100 H113 0.961 . S
C100 H114 0.961 1_455 S
C101 C98 1.539 . S
C101 H115 0.958 . S
C101 H116 0.961 . S
C101 H117 0.960 . S
H102 C86 0.931 . S
H103 C91 0.929 . S
H104 C92 0.960 . S
H105 C92 0.962 . S
H106 C92 0.960 . S
H107 C93 0.961 . S
H108 C93 0.961 . S
H109 C93 0.961 . S
H110 C94 0.931 . S
H111 C99 0.930 . S
H112 C100 0.956 . S
H113 C100 0.961 . S
H114 C100 0.961 1_655 S
H115 C101 0.958 . S
H116 C101 0.961 . S
H117 C101 0.960 . S
C118 C119 1.391 . S
C118 C120 1.394 . S
C118 H134 0.931 . S
C119 C118 1.391 . S
C119 C123 1.376 1_455 S
C120 C118 1.394 . S
C120 C121 1.369 . S
C120 C124 1.531 . S
C121 C120 1.369 . S
C121 C122 1.410 1_455 S
C121 C129 1.503 . S
C122 C121 1.410 1_655 S
C122 C123 1.392 . S
C122 C125 1.511 . S
C123 C119 1.376 1_655 S
C123 C122 1.392 . S
C123 H135 0.929 . S
C124 C120 1.531 . S
C124 H136 0.960 . S
C124 H137 0.962 . S
C124 H138 0.960 . S
C125 C122 1.511 . S
C125 H139 0.961 . S
C125 H140 0.961 . S
C125 H141 0.961 . S
C126 C127 1.370 . S
C126 C128 1.363 . S
C126 H142 0.931 . S
C127 C126 1.370 . S
C127 C131 1.408 . S
C128 C126 1.363 . S
C128 C129 1.370 . S
C128 C132 1.524 . S
C129 C121 1.503 . S
C129 C128 1.370 . S
C129 C130 1.403 . S
C130 C129 1.403 . S
C130 C131 1.404 . S
C130 C133 1.539 . S
C131 C127 1.408 . S
C131 C130 1.404 . S
C131 H143 0.930 . S
C132 C128 1.524 . S
C132 H144 0.956 . S
C132 H145 0.961 1_455 S
C132 H146 0.961 . S
C133 C130 1.539 . S
C133 H147 0.958 . S
C133 H148 0.961 . S
C133 H149 0.960 . S
H134 C118 0.931 . S
H135 C123 0.929 . S
H136 C124 0.960 . S
H137 C124 0.962 . S
H138 C124 0.960 . S
H139 C125 0.961 . S
H140 C125 0.961 . S
H141 C125 0.961 . S
H142 C126 0.931 . S
H143 C131 0.930 . S
H144 C132 0.956 . S
H145 C132 0.961 1_655 S
H146 C132 0.961 . S
H147 C133 0.958 . S
H148 C133 0.961 . S
H149 C133 0.960 . S
C150 C151 1.391 . S
C150 C152 1.394 . S
C150 H166 0.931 . S
C151 C150 1.391 . S
C151 C155 1.376 . S
C152 C150 1.394 . S
C152 C153 1.369 . S
C152 C156 1.531 . S
C153 C152 1.369 . S
C153 C154 1.410 . S
C153 C161 1.503 . S
C154 C153 1.410 . S
C154 C155 1.392 . S
C154 C157 1.511 . S
C155 C151 1.376 . S
C155 C154 1.392 . S
C155 H167 0.929 . S
C156 C152 1.531 . S
C156 H168 0.960 . S
C156 H169 0.962 . S
C156 H170 0.960 . S
C157 C154 1.511 . S
C157 H171 0.961 . S
C157 H172 0.961 . S
C157 H173 0.961 . S
C158 C159 1.370 . S
C158 C160 1.363 . S
C158 H174 0.931 . S
C159 C158 1.370 . S
C159 C163 1.408 . S
C160 C158 1.363 . S
C160 C161 1.370 . S
C160 C164 1.524 . S
C161 C153 1.503 . S
C161 C160 1.370 . S
C161 C162 1.403 . S
C162 C161 1.403 . S
C162 C163 1.404 . S
C162 C165 1.539 . S
C163 C159 1.408 . S
C163 C162 1.404 . S
C163 H175 0.930 . S
C164 C160 1.524 . S
C164 H176 0.956 . S
C164 H177 0.961 . S
C164 H178 0.961 . S
C165 C162 1.539 . S
C165 H179 0.958 . S
C165 H180 0.961 . S
C165 H181 0.960 . S
H166 C150 0.931 . S
H167 C155 0.929 . S
H168 C156 0.960 . S
H169 C156 0.962 . S
H170 C156 0.960 . S
H171 C157 0.961 . S
H172 C157 0.961 . S
H173 C157 0.961 . S
H174 C158 0.931 . S
H175 C163 0.930 . S
H176 C164 0.956 . S
H177 C164 0.961 . S
H178 C164 0.961 . S
H179 C165 0.958 . S
H180 C165 0.961 . S
H181 C165 0.960 . S
C182 C183 1.391 . S
C182 C184 1.394 . S
C182 H198 0.931 . S
C183 C182 1.391 . S
C183 C187 1.376 . S
C184 C182 1.394 . S
C184 C185 1.369 . S
C184 C188 1.531 . S
C185 C184 1.369 . S
C185 C186 1.410 . S
C185 C193 1.503 . S
C186 C185 1.410 . S
C186 C187 1.392 . S
C186 C189 1.511 . S
C187 C183 1.376 . S
C187 C186 1.392 . S
C187 H199 0.929 . S
C188 C184 1.531 . S
C188 H200 0.960 . S
C188 H201 0.962 . S
C188 H202 0.960 . S
C189 C186 1.511 . S
C189 H203 0.961 . S
C189 H204 0.961 . S
C189 H205 0.961 . S
C190 C191 1.370 . S
C190 C192 1.363 . S
C190 H206 0.931 . S
C191 C190 1.370 . S
C191 C195 1.408 . S
C192 C190 1.363 . S
C192 C193 1.370 . S
C192 C196 1.524 . S
C193 C185 1.503 . S
C193 C192 1.370 . S
C193 C194 1.403 . S
C194 C193 1.403 . S
C194 C195 1.404 . S
C194 C197 1.539 . S
C195 C191 1.408 . S
C195 C194 1.404 . S
C195 H207 0.930 . S
C196 C192 1.524 . S
C196 H208 0.956 . S
C196 H209 0.961 . S
C196 H210 0.961 . S
C197 C194 1.539 . S
C197 H211 0.958 . S
C197 H212 0.961 . S
C197 H213 0.960 . S
H198 C182 0.931 . S
H199 C187 0.929 . S
H200 C188 0.960 . S
H201 C188 0.962 . S
H202 C188 0.960 . S
H203 C189 0.961 . S
H204 C189 0.961 . S
H205 C189 0.961 . S
H206 C190 0.931 . S
H207 C195 0.930 . S
H208 C196 0.956 . S
H209 C196 0.961 . S
H210 C196 0.961 . S
H211 C197 0.958 . S
H212 C197 0.961 . S
H213 C197 0.960 . S
C214 C215 1.391 1_554 S
C214 C216 1.394 . S
C214 H230 0.931 . S
C215 C214 1.391 1_556 S
C215 C219 1.376 . S
C216 C214 1.394 . S
C216 C217 1.369 1_554 S
C216 C220 1.531 . S
C217 C216 1.369 1_556 S
C217 C218 1.410 . S
C217 C225 1.503 . S
C218 C217 1.410 . S
C218 C219 1.392 . S
C218 C221 1.511 . S
C219 C215 1.376 . S
C219 C218 1.392 . S
C219 H231 0.929 . S
C220 C216 1.531 . S
C220 H232 0.960 . S
C220 H233 0.962 . S
C220 H234 0.960 . S
C221 C218 1.511 . S
C221 H235 0.961 . S
C221 H236 0.961 . S
C221 H237 0.961 . S
C222 C223 1.370 . S
C222 C224 1.363 . S
C222 H238 0.931 . S
C223 C222 1.370 . S
C223 C227 1.408 . S
C224 C222 1.363 . S
C224 C225 1.370 . S
C224 C228 1.524 . S
C225 C217 1.503 . S
C225 C224 1.370 . S
C225 C226 1.403 . S
C226 C225 1.403 . S
C226 C227 1.404 . S
C226 C229 1.539 1_556 S
C227 C223 1.408 . S
C227 C226 1.404 . S
C227 H239 0.930 . S
C228 C224 1.524 . S
C228 H240 0.956 . S
C228 H241 0.961 . S
C228 H242 0.961 . S
C229 C226 1.539 1_554 S
C229 H243 0.958 . S
C229 H244 0.961 . S
C229 H245 0.960 . S
H230 C214 0.931 . S
H231 C219 0.929 . S
H232 C220 0.960 . S
H233 C220 0.962 . S
H234 C220 0.960 . S
H235 C221 0.961 . S
H236 C221 0.961 . S
H237 C221 0.961 . S
H238 C222 0.931 . S
H239 C227 0.930 . S
H240 C228 0.956 . S
H241 C228 0.961 . S
H242 C228 0.961 . S
H243 C229 0.958 . S
H244 C229 0.961 . S
H245 C229 0.960 . S
C246 C247 1.391 . S
C246 C248 1.394 . S
C246 H262 0.931 . S
C247 C246 1.391 . S
C247 C251 1.376 . S
C248 C246 1.394 . S
C248 C249 1.369 . S
C248 C252 1.531 . S
C249 C248 1.369 . S
C249 C250 1.410 . S
C249 C257 1.503 . S
C250 C249 1.410 . S
C250 C251 1.392 . S
C250 C253 1.511 . S
C251 C247 1.376 . S
C251 C250 1.392 . S
C251 H263 0.929 . S
C252 C248 1.531 . S
C252 H264 0.960 . S
C252 H265 0.962 . S
C252 H266 0.960 . S
C253 C250 1.511 . S
C253 H267 0.961 . S
C253 H268 0.961 . S
C253 H269 0.961 . S
C254 C255 1.370 . S
C254 C256 1.363 . S
C254 H270 0.931 . S
C255 C254 1.370 . S
C255 C259 1.408 . S
C256 C254 1.363 . S
C256 C257 1.370 . S
C256 C260 1.524 1_556 S
C257 C249 1.503 . S
C257 C256 1.370 . S
C257 C258 1.403 . S
C258 C257 1.403 . S
C258 C259 1.404 . S
C258 C261 1.539 . S
C259 C255 1.408 . S
C259 C258 1.404 . S
C259 H271 0.930 . S
C260 C256 1.524 1_554 S
C260 H272 0.956 . S
C260 H273 0.961 . S
C260 H274 0.961 . S
C261 C258 1.539 . S
C261 H275 0.958 . S
C261 H276 0.961 . S
C261 H277 0.960 . S
H262 C246 0.931 . S
H263 C251 0.929 . S
H264 C252 0.960 . S
H265 C252 0.962 . S
H266 C252 0.960 . S
H267 C253 0.961 . S
H268 C253 0.961 . S
H269 C253 0.961 . S
H270 C254 0.931 . S
H271 C259 0.930 . S
H272 C260 0.956 . S
H273 C260 0.961 . S
H274 C260 0.961 . S
H275 C261 0.958 . S
H276 C261 0.961 . S
H277 C261 0.960 . S
C278 C279 1.391 . S
C278 C280 1.394 . S
C278 H294 0.931 1_556 S
C279 C278 1.391 . S
C279 C283 1.376 . S
C280 C278 1.394 . S
C280 C281 1.369 . S
C280 C284 1.531 . S
C281 C280 1.369 . S
C281 C282 1.410 . S
C281 C289 1.503 . S
C282 C281 1.410 . S
C282 C283 1.392 . S
C282 C285 1.511 . S
C283 C279 1.376 . S
C283 C282 1.392 . S
C283 H295 0.929 . S
C284 C280 1.531 . S
C284 H296 0.960 . S
C284 H297 0.962 1_556 S
C284 H298 0.953 1_556 S
C285 C282 1.511 . S
C285 H299 0.961 . S
C285 H300 0.961 . S
C285 H301 0.961 . S
C286 C287 1.370 . S
C286 C288 1.363 . S
C286 H302 0.931 . S
C287 C286 1.370 . S
C287 C291 1.408 . S
C288 C286 1.363 . S
C288 C289 1.370 . S
C288 C292 1.524 . S
C289 C281 1.503 . S
C289 C288 1.370 . S
C289 C290 1.403 . S
C290 C289 1.403 . S
C290 C291 1.404 . S
C290 C293 1.539 . S
C291 C287 1.408 . S
C291 C290 1.404 . S
C291 H303 0.930 . S
C292 C288 1.524 . S
C292 H304 0.956 . S
C292 H305 0.961 . S
C292 H306 0.961 . S
C293 C290 1.539 . S
C293 H307 0.958 . S
C293 H308 0.961 . S
C293 H309 0.960 . S
H294 C278 0.931 1_554 S
H295 C283 0.929 . S
H296 C284 0.960 . S
H297 C284 0.962 1_554 S
H298 C284 0.953 1_554 S
H299 C285 0.961 . S
H300 C285 0.961 . S
H301 C285 0.961 . S
H302 C286 0.931 . S
H303 C291 0.930 . S
H304 C292 0.956 . S
H305 C292 0.961 . S
H306 C292 0.961 . S
H307 C293 0.958 . S
H308 C293 0.961 . S
H309 C293 0.960 . S
C310 C311 1.391 1_554 S
C310 C312 1.394 1_554 S
C310 H326 0.931 . S
C311 C310 1.391 1_556 S
C311 C315 1.376 . S
C312 C310 1.394 1_556 S
C312 C313 1.369 . S
C312 C316 1.531 . S
C313 C312 1.369 . S
C313 C314 1.410 . S
C313 C321 1.503 . S
C314 C313 1.410 . S
C314 C315 1.392 . S
C314 C317 1.511 . S
C315 C311 1.376 . S
C315 C314 1.392 . S
C315 H327 0.929 . S
C316 C312 1.531 . S
C316 H328 0.960 . S
C316 H329 0.962 . S
C316 H330 0.960 1_556 S
C317 C314 1.511 . S
C317 H331 0.961 . S
C317 H332 0.961 . S
C317 H333 0.961 . S
C318 C319 1.370 . S
C318 C320 1.363 . S
C318 H334 0.931 . S
C319 C318 1.370 . S
C319 C323 1.408 . S
C320 C318 1.363 . S
C320 C321 1.370 . S
C320 C324 1.524 . S
C321 C313 1.503 . S
C321 C320 1.370 . S
C321 C322 1.403 . S
C322 C321 1.403 . S
C322 C323 1.404 . S
C322 C325 1.539 1_556 S
C323 C319 1.408 . S
C323 C322 1.404 . S
C323 H335 0.930 . S
C324 C320 1.524 . S
C324 H336 0.956 . S
C324 H337 0.961 . S
C324 H338 0.961 . S
C325 C322 1.539 1_554 S
C325 H339 0.958 . S
C325 H340 0.961 . S
C325 H341 0.960 . S
H326 C310 0.931 . S
H327 C315 0.929 . S
H328 C316 0.960 . S
H329 C316 0.962 . S
H330 C316 0.960 1_554 S
H331 C317 0.961 . S
H332 C317 0.961 . S
H333 C317 0.961 . S
H334 C318 0.931 . S
H335 C323 0.930 . S
H336 C324 0.956 . S
H337 C324 0.961 . S
H338 C324 0.961 . S
H339 C325 0.958 . S
H340 C325 0.961 . S
H341 C325 0.960 . S
C342 C343 1.391 . S
C342 C344 1.394 . S
C342 H358 0.931 . S
C343 C342 1.391 . S
C343 C347 1.376 . S
C344 C342 1.394 . S
C344 C345 1.369 . S
C344 C348 1.531 . S
C345 C344 1.369 . S
C345 C346 1.410 . S
C345 C353 1.503 . S
C346 C345 1.410 . S
C346 C347 1.392 . S
C346 C349 1.511 . S
C347 C343 1.376 . S
C347 C346 1.392 . S
C347 H359 0.929 . S
C348 C344 1.531 . S
C348 H360 0.960 . S
C348 H361 0.962 . S
C348 H362 0.960 . S
C349 C346 1.511 . S
C349 H363 0.961 . S
C349 H364 0.961 . S
C349 H365 0.961 . S
C350 C351 1.370 . S
C350 C352 1.363 . S
C350 H366 0.931 . S
C351 C350 1.370 . S
C351 C355 1.408 . S
C352 C350 1.363 . S
C352 C353 1.370 . S
C352 C356 1.524 . S
C353 C345 1.503 . S
C353 C352 1.370 . S
C353 C354 1.403 . S
C354 C353 1.403 . S
C354 C355 1.404 . S
C354 C357 1.539 . S
C355 C351 1.408 . S
C355 C354 1.404 . S
C355 H367 0.930 . S
C356 C352 1.524 . S
C356 H368 0.956 . S
C356 H369 0.961 . S
C356 H370 0.961 . S
C357 C354 1.539 . S
C357 H371 0.958 . S
C357 H372 0.961 . S
C357 H373 0.960 . S
H358 C342 0.931 . S
H359 C347 0.929 . S
H360 C348 0.960 . S
H361 C348 0.962 . S
H362 C348 0.960 . S
H363 C349 0.961 . S
H364 C349 0.961 . S
H365 C349 0.961 . S
H366 C350 0.931 . S
H367 C355 0.930 . S
H368 C356 0.956 . S
H369 C356 0.961 . S
H370 C356 0.961 . S
H371 C357 0.958 . S
H372 C357 0.961 . S
H373 C357 0.960 . S
C374 C375 1.391 . S
C374 C376 1.394 . S
C374 H390 0.931 . S
C375 C374 1.391 . S
C375 C379 1.376 . S
C376 C374 1.394 . S
C376 C377 1.369 . S
C376 C380 1.531 . S
C377 C376 1.369 . S
C377 C378 1.410 . S
C377 C385 1.503 . S
C378 C377 1.410 . S
C378 C379 1.392 . S
C378 C381 1.511 . S
C379 C375 1.376 . S
C379 C378 1.392 . S
C379 H391 0.929 . S
C380 C376 1.531 . S
C380 H392 0.960 . S
C380 H393 0.962 . S
C380 H394 0.960 . S
C381 C378 1.511 . S
C381 H395 0.961 . S
C381 H396 0.961 . S
C381 H397 0.961 . S
C382 C383 1.370 . S
C382 C384 1.363 . S
C382 H398 0.931 . S
C383 C382 1.370 . S
C383 C387 1.408 . S
C384 C382 1.363 . S
C384 C385 1.370 . S
C384 C388 1.524 . S
C385 C377 1.503 . S
C385 C384 1.370 . S
C385 C386 1.403 . S
C386 C385 1.403 . S
C386 C387 1.404 . S
C386 C389 1.539 . S
C387 C383 1.408 . S
C387 C386 1.404 . S
C387 H399 0.930 . S
C388 C384 1.524 . S
C388 H400 0.956 . S
C388 H401 0.961 . S
C388 H402 0.961 . S
C389 C386 1.539 . S
C389 H403 0.958 . S
C389 H404 0.961 . S
C389 H405 0.960 . S
H390 C374 0.931 . S
H391 C379 0.929 . S
H392 C380 0.960 . S
H393 C380 0.962 . S
H394 C380 0.960 . S
H395 C381 0.961 . S
H396 C381 0.961 . S
H397 C381 0.961 . S
H398 C382 0.931 . S
H399 C387 0.930 . S
H400 C388 0.956 . S
H401 C388 0.961 . S
H402 C388 0.961 . S
H403 C389 0.958 . S
H404 C389 0.961 . S
H405 C389 0.960 . S
C406 C407 1.391 . S
C406 C408 1.394 . S
C406 H422 0.931 . S
C407 C406 1.391 . S
C407 C411 1.376 . S
C408 C406 1.394 . S
C408 C409 1.369 . S
C408 C412 1.531 . S
C409 C408 1.369 . S
C409 C410 1.410 . S
C409 C417 1.503 . S
C410 C409 1.410 . S
C410 C411 1.392 . S
C410 C413 1.511 . S
C411 C407 1.376 . S
C411 C410 1.392 . S
C411 H423 0.929 . S
C412 C408 1.531 . S
C412 H424 0.960 . S
C412 H425 0.962 . S
C412 H426 0.960 . S
C413 C410 1.511 . S
C413 H427 0.961 . S
C413 H428 0.961 . S
C413 H429 0.961 . S
C414 C415 1.370 . S
C414 C416 1.363 . S
C414 H430 0.931 . S
C415 C414 1.370 . S
C415 C419 1.408 . S
C416 C414 1.363 . S
C416 C417 1.370 . S
C416 C420 1.524 . S
C417 C409 1.503 . S
C417 C416 1.370 . S
C417 C418 1.403 . S
C418 C417 1.403 . S
C418 C419 1.404 . S
C418 C421 1.539 . S
C419 C415 1.408 . S
C419 C418 1.404 . S
C419 H431 0.930 . S
C420 C416 1.524 . S
C420 H432 0.956 . S
C420 H433 0.961 . S
C420 H434 0.961 . S
C421 C418 1.539 . S
C421 H435 0.958 . S
C421 H436 0.961 . S
C421 H437 0.960 . S
H422 C406 0.931 . S
H423 C411 0.929 . S
H424 C412 0.960 . S
H425 C412 0.962 . S
H426 C412 0.960 . S
H427 C413 0.961 . S
H428 C413 0.961 . S
H429 C413 0.961 . S
H430 C414 0.931 . S
H431 C419 0.930 . S
H432 C420 0.956 . S
H433 C420 0.961 . S
H434 C420 0.961 . S
H435 C421 0.958 . S
H436 C421 0.961 . S
H437 C421 0.960 . S
C438 C439 1.391 . S
C438 C440 1.394 . S
C438 H454 0.931 . S
C439 C438 1.391 . S
C439 C443 1.376 . S
C440 C438 1.394 . S
C440 C441 1.369 . S
C440 C444 1.531 . S
C441 C440 1.369 . S
C441 C442 1.410 . S
C441 C449 1.503 . S
C442 C441 1.410 . S
C442 C443 1.392 . S
C442 C445 1.511 . S
C443 C439 1.376 . S
C443 C442 1.392 . S
C443 H455 0.929 . S
C444 C440 1.531 . S
C444 H456 0.960 . S
C444 H457 0.962 . S
C444 H458 0.960 . S
C445 C442 1.511 . S
C445 H459 0.961 . S
C445 H460 0.961 . S
C445 H461 0.961 . S
C446 C447 1.370 . S
C446 C448 1.363 . S
C446 H462 0.931 . S
C447 C446 1.370 . S
C447 C451 1.408 . S
C448 C446 1.363 . S
C448 C449 1.370 . S
C448 C452 1.524 . S
C449 C441 1.503 . S
C449 C448 1.370 . S
C449 C450 1.403 . S
C450 C449 1.403 . S
C450 C451 1.404 . S
C450 C453 1.539 . S
C451 C447 1.408 . S
C451 C450 1.404 . S
C451 H463 0.930 . S
C452 C448 1.524 . S
C452 H464 0.956 . S
C452 H465 0.961 . S
C452 H466 0.961 . S
C453 C450 1.539 . S
C453 H467 0.958 . S
C453 H468 0.961 . S
C453 H469 0.960 . S
H454 C438 0.931 . S
H455 C443 0.929 . S
H456 C444 0.960 . S
H457 C444 0.962 . S
H458 C444 0.960 . S
H459 C445 0.961 . S
H460 C445 0.961 . S
H461 C445 0.961 . S
H462 C446 0.931 . S
H463 C451 0.930 . S
H464 C452 0.956 . S
H465 C452 0.961 . S
H466 C452 0.961 . S
H467 C453 0.958 . S
H468 C453 0.961 . S
H469 C453 0.960 . S
C95 C51 1.450 . S
C87 C8 1.539 . S
C127 C47 1.418 . S
C119 C19 1.506 . S
C159 C72 1.459 . S
C151 C30 1.548 . S
C183 C41 1.510 . S
C191 C68 1.415 . S
C215 C7 1.198 1_556 S
C223 C69 1.117 . S
C255 C84 1.095 . S
C247 C16 1.080 . S
C279 C5 1.416 1_655 S
C287 C85 1.580 . S
C319 C81 1.640 . S
C311 C18 1.762 1_556 S
C351 C48 1.109 1_655 S
C343 C29 1.266 . S
C375 C38 1.175 . S
C383 C63 1.098 . S
C415 C64 1.555 . S
C407 C27 1.488 . S
C447 C60 1.647 . S
C439 C40 1.771 . S
