# Generated by pormake.
# Topology ocu, (6,8)-cn, num edge types: 1
# Building blocks:
#     Node 0, Type 0, BuildingBlock: HISSIN_clean_sbu_0, # of connection points: 6
#     Node 1, Type 0, BuildingBlock: HISSIN_clean_sbu_0, # of connection points: 6
#     Node 2, Type 0, BuildingBlock: HISSIN_clean_sbu_0, # of connection points: 6
#     Node 3, Type 0, BuildingBlock: HISSIN_clean_sbu_0, # of connection points: 6
#     Node 4, Type 0, BuildingBlock: HISSIN_clean_sbu_0, # of connection points: 6
#     Node 5, Type 0, BuildingBlock: HISSIN_clean_sbu_0, # of connection points: 6
#     Node 6, Type 0, BuildingBlock: HISSIN_clean_sbu_0, # of connection points: 6
#     Node 7, Type 0, BuildingBlock: HISSIN_clean_sbu_0, # of connection points: 6
#     Node 8, Type 1, BuildingBlock: TAGTUT_clean_sbu_1, # of connection points: 8
#     Node 9, Type 1, BuildingBlock: TAGTUT_clean_sbu_1, # of connection points: 8
#     Node 10, Type 1, BuildingBlock: TAGTUT_clean_sbu_1, # of connection points: 8
#     Node 11, Type 1, BuildingBlock: TAGTUT_clean_sbu_1, # of connection points: 8
#     Node 12, Type 1, BuildingBlock: TAGTUT_clean_sbu_1, # of connection points: 8
#     Node 13, Type 1, BuildingBlock: TAGTUT_clean_sbu_1, # of connection points: 8
#     Edge 14, Type (0, 1), None
#     Edge 15, Type (0, 1), None
#     Edge 16, Type (0, 1), None
#     Edge 17, Type (0, 1), None
#     Edge 18, Type (0, 1), None
#     Edge 19, Type (0, 1), None
#     Edge 20, Type (0, 1), None
#     Edge 21, Type (0, 1), None
#     Edge 22, Type (0, 1), None
#     Edge 23, Type (0, 1), None
#     Edge 24, Type (0, 1), None
#     Edge 25, Type (0, 1), None
#     Edge 26, Type (0, 1), None
#     Edge 27, Type (0, 1), None
#     Edge 28, Type (0, 1), None
#     Edge 29, Type (0, 1), None
#     Edge 30, Type (0, 1), None
#     Edge 31, Type (0, 1), None
#     Edge 32, Type (0, 1), None
#     Edge 33, Type (0, 1), None
#     Edge 34, Type (0, 1), None
#     Edge 35, Type (0, 1), None
#     Edge 36, Type (0, 1), None
#     Edge 37, Type (0, 1), None
#     Edge 38, Type (0, 1), None
#     Edge 39, Type (0, 1), None
#     Edge 40, Type (0, 1), None
#     Edge 41, Type (0, 1), None
#     Edge 42, Type (0, 1), None
#     Edge 43, Type (0, 1), None
#     Edge 44, Type (0, 1), None
#     Edge 45, Type (0, 1), None
#     Edge 46, Type (0, 1), None
#     Edge 47, Type (0, 1), None
#     Edge 48, Type (0, 1), None
#     Edge 49, Type (0, 1), None
#     Edge 50, Type (0, 1), None
#     Edge 51, Type (0, 1), None
#     Edge 52, Type (0, 1), None
#     Edge 53, Type (0, 1), None
#     Edge 54, Type (0, 1), None
#     Edge 55, Type (0, 1), None
#     Edge 56, Type (0, 1), None
#     Edge 57, Type (0, 1), None
#     Edge 58, Type (0, 1), None
#     Edge 59, Type (0, 1), None
#     Edge 60, Type (0, 1), None
#     Edge 61, Type (0, 1), None
# Relax obj value: 0.271
# Max RMSD: 0.235
# Mean RMSD: 0.161
data_MOF--net-ocu--node1-HISSIN_clean_sbu_0--node2-TAGTUT_clean_sbu_1--edge1-none
_symmetry_space_group_name_H-M    P1
_symmetry_Int_Tables_number       1
_symmetry_cell_setting            triclinic
loop_
_symmetry_equiv_pos_as_xyz
'x, y, z'
_cell_length_a     22.090819
_cell_length_b     22.768373
_cell_length_c     20.891517
_cell_angle_alpha  105.67478
_cell_angle_beta   75.918713
_cell_angle_gamma 126.20896
loop_
_atom_site_label
_atom_site_type_symbol
_atom_site_fract_x
_atom_site_fract_y
_atom_site_fract_z
_atom_type_partial_charge
Eu0 Eu 0.3584 0.27975 0.33803 0.0
Eu1 Eu 0.20998 0.17042 0.25643 0.0
C2 C 0.19564 0.14531 0.40146 0.0
C3 C 0.48894 0.28485 0.42438 0.0
C4 C 0.46852 0.21528 0.38675 0.0
C5 C 0.53087 0.26159 0.50599 0.0
C6 C 0.4781 0.16885 0.40911 0.0
C7 C 0.52149 0.30814 0.4836 0.0
C8 C 0.50735 0.19066 0.46979 0.0
C9 C 0.46883 0.32897 0.40564 0.0
O10 O 0.19986 0.26065 0.32783 0.0
O11 O 0.31251 0.35174 0.37009 0.0
C12 C 0.2423 0.32548 0.36411 0.0
O13 O 0.39833 0.33956 0.25141 0.0
O14 O 0.09065 0.11939 0.25241 0.0
O15 O 0.1641 0.13241 0.16059 0.0
O16 O 0.30865 0.24025 0.18608 0.0
C17 C 0.37272 0.30489 0.19301 0.0
O18 O 0.36864 0.18963 0.26652 0.0
O19 O 0.25594 0.09849 0.22437 0.0
O20 O 0.17001 0.11063 0.34307 0.0
O21 O 0.47769 0.33066 0.3421 0.0
O22 O 0.40423 0.31775 0.4339 0.0
O23 O 0.25973 0.20992 0.40838 0.0
C24 C 0.07922 0.16513 0.17018 0.0
C25 C 0.0996 0.23468 0.20781 0.0
C26 C 0.0372 0.18832 0.08859 0.0
C27 C 0.08996 0.28108 0.18546 0.0
C28 C 0.04664 0.14181 0.11097 0.0
C29 C 0.06071 0.25925 0.12478 0.0
C30 C 0.09946 0.1211 0.18887 0.0
C31 C 0.32618 0.12478 0.23027 0.0
H32 H 0.44439 0.19618 0.34038 0.0
H33 H 0.55335 0.27981 0.55341 0.0
H34 H 0.46374 0.11652 0.37867 0.0
H35 H 0.5371 0.36111 0.51374 0.0
H36 H 0.12373 0.2538 0.25418 0.0
H37 H 1.0147 0.17008 1.04118 0.0
H38 H 0.10432 0.33341 0.21589 0.0
H39 H 0.03106 0.08885 0.08083 0.0
Eu40 Eu 0.83522 0.1921 0.26709 0.0
Eu41 Eu 0.73292 0.25814 0.32766 0.0
C42 C 0.86325 0.30431 0.40501 0.0
C43 C 0.91419 0.11252 0.31506 0.0
C44 C 0.89478 0.13856 0.38059 0.0
C45 C 0.92972 0.03571 0.36069 0.0
C46 C 0.89421 0.1146 0.43608 0.0
C47 C 0.93111 0.06056 0.30565 0.0
C48 C 0.91062 0.06193 0.42657 0.0
C49 C 0.91003 0.13558 0.25745 0.0
O50 O 0.82211 0.3289 0.25136 0.0
O51 O 0.87869 0.26903 0.19257 0.0
C52 C 0.86427 0.31914 0.19933 0.0
O53 O 0.76985 0.15354 0.18021 0.0
O54 O 0.72524 0.35357 0.35782 0.0
O55 O 0.62583 0.24395 0.33245 0.0
O56 O 0.67562 0.15922 0.24924 0.0
C57 C 0.70526 0.14633 0.1893 0.0
O58 O 0.74626 0.12145 0.34355 0.0
O59 O 0.68917 0.18092 0.40202 0.0
O60 O 0.79839 0.29659 0.41446 0.0
O61 O 0.84315 0.09682 0.23685 0.0
O62 O 0.94236 0.20648 0.26258 0.0
O63 O 0.89271 0.29165 0.3449 0.0
C64 C 0.65397 0.33775 0.27975 0.0
C65 C 0.67316 0.31152 0.21422 0.0
C66 C 0.63852 0.4146 0.23409 0.0
C67 C 0.67372 0.33546 0.15871 0.0
C68 C 0.63714 0.38978 0.28914 0.0
C69 C 0.65748 0.38826 0.1682 0.0
C70 C 0.65828 0.31484 0.3374 0.0
C71 C 0.70381 0.13098 0.3954 0.0
H72 H 0.87729 0.17549 0.38843 0.0
H73 H 0.94253 -0.00523 0.35147 0.0
H74 H 0.87756 0.13449 0.48573 0.0
H75 H 0.94362 0.03794 0.25562 0.0
H76 H 0.69047 0.27445 0.20638 0.0
H77 H 0.6258 0.4556 0.24329 0.0
H78 H 0.69022 0.31544 0.10905 0.0
H79 H 0.62472 0.41247 0.33916 0.0
Eu80 Eu 0.83034 0.78245 0.25164 0.0
Eu81 Eu 0.73779 0.66755 0.34304 0.0
C82 C 0.6533 0.64653 0.22832 0.0
C83 C 0.80056 0.8636 0.15499 0.0
C84 C 0.77197 0.90163 0.20147 0.0
C85 C 0.69165 0.80214 0.0936 0.0
C86 C 0.70585 0.89214 0.19268 0.0
C87 C 0.75851 0.81253 0.10171 0.0
C88 C 0.66626 0.84407 0.13746 0.0
C89 C 0.8636 0.86477 0.16998 0.0
O90 O 0.79022 0.61916 0.2558 0.0
O91 O 0.89238 0.72646 0.22394 0.0
C92 C 0.85898 0.65637 0.22555 0.0
O93 O 0.92734 0.81817 0.30613 0.0
O94 O 0.68621 0.55709 0.36339 0.0
O95 O 0.70883 0.64694 0.44594 0.0
O96 O 0.84475 0.76196 0.39276 0.0
C97 C 0.91483 0.80345 0.36637 0.0
O98 O 0.77787 0.83085 0.33882 0.0
O99 O 0.67576 0.72356 0.37077 0.0
O100 O 0.64077 0.63184 0.28858 0.0
O101 O 0.88188 0.89289 0.23124 0.0
O102 O 0.85942 0.80303 0.14872 0.0
O103 O 0.72338 0.688 0.20193 0.0
C104 C 0.76753 0.58618 0.43953 0.0
C105 C 0.79601 0.54807 0.393 0.0
C106 C 0.87643 0.64737 0.50086 0.0
C107 C 0.86204 0.55736 0.40175 0.0
C108 C 0.80963 0.63715 0.49281 0.0
C109 C 0.9017 0.60537 0.45694 0.0
C110 C 0.70455 0.58515 0.42463 0.0
C111 C 0.70911 0.79363 0.36909 0.0
H112 H 0.80074 0.93925 0.24463 0.0
H113 H 0.66401 0.76663 0.04916 0.0
H114 H 0.68892 0.92684 0.22606 0.0
H115 H 0.77749 0.78069 0.06595 0.0
H116 H 0.76723 0.51056 0.34982 0.0
H117 H 0.90412 0.68283 0.54529 0.0
H118 H 0.87887 0.5226 0.36832 0.0
H119 H 0.79075 0.66905 0.52862 0.0
Eu120 Eu 0.35036 0.72055 0.27976 0.0
Eu121 Eu 0.21749 0.7294 0.31521 0.0
C122 C 0.20965 0.61889 0.1939 0.0
C123 C 0.35851 0.58554 0.23804 0.0
C124 C 0.32598 0.56938 0.17998 0.0
C125 C 0.25668 0.46272 0.26056 0.0
C126 C 0.26266 0.50024 0.16196 0.0
C127 C 0.31867 0.53329 0.28179 0.0
C128 C 0.24434 0.44376 0.19279 0.0
C129 C 0.41848 0.66219 0.25977 0.0
O130 O 0.15459 0.62955 0.36088 0.0
O131 O 0.26934 0.65199 0.36246 0.0
C132 C 0.19634 0.61755 0.38205 0.0
O133 O 0.39507 0.83094 0.34246 0.0
O134 O 0.12823 0.74265 0.37602 0.0
O135 O 0.162 0.76272 0.27274 0.0
O136 O 0.28536 0.78323 0.40521 0.0
C137 C 0.35832 0.8312 0.40095 0.0
O138 O 0.41331 0.82048 0.23424 0.0
O139 O 0.29857 0.79802 0.23256 0.0
O140 O 0.1728 0.6191 0.25235 0.0
O141 O 0.43965 0.70738 0.21892 0.0
O142 O 0.4058 0.68712 0.32214 0.0
O143 O 0.28261 0.66681 0.18971 0.0
C144 C 0.20945 0.86442 0.3567 0.0
C145 C 0.24205 0.88062 0.41473 0.0
C146 C 0.31135 -0.01285 0.334 0.0
C147 C 0.30545 0.94975 0.43264 0.0
C148 C 0.24929 0.91659 0.31287 0.0
C149 C 0.32376 0.00619 0.40177 0.0
C150 C 0.1494 0.78776 0.33509 0.0
C151 C 0.37159 0.83248 0.21304 0.0
H152 H 0.35116 0.60873 0.14627 0.0
H153 H 0.2332 0.41984 0.28995 0.0
H154 H 0.24654 0.48858 0.11286 0.0
H155 H 0.33632 0.5461 0.33056 0.0
H156 H 0.21687 0.84135 0.44851 0.0
H157 H 0.33483 0.02999 0.30456 0.0
H158 H 0.32161 0.96144 0.48172 0.0
H159 H 0.23158 0.90373 0.26412 0.0
Eu160 Eu 0.33522 0.6921 0.76709 0.0
Eu161 Eu 0.23292 0.75814 0.82766 0.0
C162 C 0.36325 0.80431 0.90501 0.0
C163 C 0.41419 0.61252 0.81506 0.0
C164 C 0.39478 0.63856 0.88059 0.0
C165 C 0.42972 0.53571 0.86069 0.0
C166 C 0.39421 0.6146 0.93608 0.0
C167 C 0.43111 0.56056 0.80565 0.0
C168 C 0.41062 0.56193 0.92657 0.0
C169 C 0.41003 0.63558 0.75745 0.0
O170 O 0.32211 0.8289 0.75136 0.0
O171 O 0.37869 0.76903 0.69257 0.0
C172 C 0.36427 0.81914 0.69933 0.0
O173 O 0.26985 0.65354 0.68021 0.0
O174 O 0.22524 0.85357 0.85782 0.0
O175 O 0.12583 0.74395 0.83245 0.0
O176 O 0.17562 0.65922 0.74924 0.0
C177 C 0.20526 0.64633 0.6893 0.0
O178 O 0.24626 0.62145 0.84355 0.0
O179 O 0.18917 0.68092 0.90202 0.0
O180 O 0.29839 0.79659 0.91446 0.0
O181 O 0.34315 0.59682 0.73685 0.0
O182 O 0.44236 0.70648 0.76258 0.0
O183 O 0.39271 0.79165 0.8449 0.0
C184 C 0.15397 0.83775 0.77975 0.0
C185 C 0.17316 0.81152 0.71422 0.0
C186 C 0.13852 0.9146 0.73409 0.0
C187 C 0.17372 0.83546 0.65871 0.0
C188 C 0.13714 0.88978 0.78914 0.0
C189 C 0.15748 0.88826 0.6682 0.0
C190 C 0.15828 0.81484 0.8374 0.0
C191 C 0.20381 0.63098 0.8954 0.0
H192 H 0.37729 0.67549 0.88843 0.0
H193 H 0.44253 0.49477 0.85147 0.0
H194 H 0.37756 0.63449 0.98573 0.0
H195 H 0.44362 0.53794 0.75562 0.0
H196 H 0.19047 0.77445 0.70638 0.0
H197 H 0.1258 0.9556 0.74329 0.0
H198 H 0.19022 0.81544 0.60905 0.0
H199 H 0.12472 0.91247 0.83916 0.0
Eu200 Eu 0.33034 0.28245 0.75164 0.0
Eu201 Eu 0.23779 0.16755 0.84304 0.0
C202 C 0.1533 0.14653 0.72832 0.0
C203 C 0.30056 0.3636 0.65499 0.0
C204 C 0.27196 0.40163 0.70147 0.0
C205 C 0.19165 0.30214 0.5936 0.0
C206 C 0.20585 0.39214 0.69268 0.0
C207 C 0.25851 0.31253 0.60171 0.0
C208 C 0.16626 0.34407 0.63746 0.0
C209 C 0.3636 0.36477 0.66998 0.0
O210 O 0.29022 0.11916 0.7558 0.0
O211 O 0.39238 0.22646 0.72394 0.0
C212 C 0.35898 0.15637 0.72555 0.0
O213 O 0.42734 0.31817 0.80613 0.0
O214 O 0.18621 0.05709 0.86339 0.0
O215 O 0.20883 0.14694 0.94594 0.0
O216 O 0.34475 0.26196 0.89276 0.0
C217 C 0.41483 0.30345 0.86637 0.0
O218 O 0.27787 0.33085 0.83882 0.0
O219 O 0.17576 0.22356 0.87077 0.0
O220 O 0.14077 0.13184 0.78858 0.0
O221 O 0.38188 0.39289 0.73124 0.0
O222 O 0.35942 0.30303 0.64872 0.0
O223 O 0.22338 0.188 0.70193 0.0
C224 C 0.26753 0.08618 0.93953 0.0
C225 C 0.29601 0.04807 0.893 0.0
C226 C 0.37643 0.14737 1.00086 0.0
C227 C 0.36204 0.05736 0.90175 0.0
C228 C 0.30963 0.13715 0.99281 0.0
C229 C 0.4017 0.10537 0.95694 0.0
C230 C 0.20455 0.08515 0.92463 0.0
C231 C 0.20911 0.29363 0.86909 0.0
H232 H 0.30074 0.43925 0.74463 0.0
H233 H 0.16401 0.26663 0.54916 0.0
H234 H 0.18892 0.42684 0.72606 0.0
H235 H 0.27749 0.28069 0.56594 0.0
H236 H 0.26723 0.01056 0.84982 0.0
H237 H 0.40412 0.18283 1.04529 0.0
H238 H 0.37887 0.0226 0.86832 0.0
H239 H 0.29076 0.16905 1.02862 0.0
Eu240 Eu 0.85036 0.22055 0.77976 0.0
Eu241 Eu 0.71749 0.2294 0.81521 0.0
C242 C 0.70965 0.11889 0.6939 0.0
C243 C 0.85851 0.08554 0.73804 0.0
C244 C 0.82598 0.06938 0.67998 0.0
C245 C 0.75668 0.96272 0.76056 0.0
C246 C 0.76266 0.00024 0.66196 0.0
C247 C 0.81867 0.03329 0.78179 0.0
C248 C 0.74434 0.94376 0.69279 0.0
C249 C 0.91848 0.16219 0.75977 0.0
O250 O 0.65459 0.12955 0.86088 0.0
O251 O 0.76934 0.15199 0.86246 0.0
C252 C 0.69634 0.11755 0.88205 0.0
O253 O 0.89507 0.33094 0.84246 0.0
O254 O 0.62823 0.24265 0.87602 0.0
O255 O 0.662 0.26272 0.77274 0.0
O256 O 0.78536 0.28323 0.90521 0.0
C257 C 0.85832 0.3312 0.90095 0.0
O258 O 0.91331 0.32048 0.73424 0.0
O259 O 0.79857 0.29802 0.73256 0.0
O260 O 0.6728 0.1191 0.75235 0.0
O261 O 0.93965 0.20738 0.71892 0.0
O262 O 0.9058 0.18712 0.82214 0.0
O263 O 0.78261 0.16681 0.68971 0.0
C264 C 0.70945 0.36442 0.8567 0.0
C265 C 0.74205 0.38062 0.91473 0.0
C266 C 0.81135 0.48715 0.834 0.0
C267 C 0.80545 0.44975 0.93264 0.0
C268 C 0.74929 0.41659 0.81287 0.0
C269 C 0.82376 0.50619 0.90177 0.0
C270 C 0.6494 0.28776 0.83509 0.0
C271 C 0.87159 0.33248 0.71304 0.0
H272 H 0.85116 0.10873 0.64627 0.0
H273 H 0.7332 0.91984 0.78995 0.0
H274 H 0.74654 -0.01142 0.61286 0.0
H275 H 0.83632 0.0461 0.83056 0.0
H276 H 0.71687 0.34135 0.94851 0.0
H277 H 0.83483 0.52999 0.80456 0.0
H278 H 0.82161 0.46144 0.98172 0.0
H279 H 0.73158 0.40373 0.76412 0.0
Eu280 Eu 0.8584 0.77974 0.83803 0.0
Eu281 Eu 0.70998 0.67042 0.75642 0.0
C282 C 0.69563 0.64531 0.90146 0.0
C283 C 0.98894 0.78485 0.92438 0.0
C284 C 0.96852 0.71528 0.88675 0.0
C285 C 0.03087 0.76159 1.00599 0.0
C286 C 0.9781 0.66885 0.90911 0.0
C287 C 1.02149 0.80814 0.9836 0.0
C288 C 1.00735 0.69066 0.96979 0.0
C289 C 0.96883 0.82897 0.90564 0.0
O290 O 0.69986 0.76065 0.82783 0.0
O291 O 0.81251 0.85174 0.87009 0.0
C292 C 0.7423 0.82548 0.86411 0.0
O293 O 0.89833 0.83956 0.75141 0.0
O294 O 0.59064 0.61939 0.75241 0.0
O295 O 0.6641 0.63241 0.66059 0.0
O296 O 0.80865 0.74025 0.68608 0.0
C297 C 0.87272 0.80489 0.69301 0.0
O298 O 0.86864 0.68963 0.76652 0.0
O299 O 0.75594 0.59849 0.72437 0.0
O300 O 0.67001 0.61063 0.84307 0.0
O301 O 0.97769 0.83066 0.8421 0.0
O302 O 0.90423 0.81775 0.9339 0.0
O303 O 0.75973 0.70992 0.90838 0.0
C304 C 0.57922 0.66513 0.67018 0.0
C305 C 0.5996 0.73468 0.70781 0.0
C306 C 0.5372 0.68832 0.5886 0.0
C307 C 0.58996 0.78108 0.68546 0.0
C308 C 0.54664 0.64181 0.61097 0.0
C309 C 0.56071 0.75925 0.62478 0.0
C310 C 0.59946 0.6211 0.68887 0.0
C311 C 0.82618 0.62478 0.73027 0.0
H312 H 0.94439 0.69618 0.84038 0.0
H313 H 0.05335 0.77981 0.05341 0.0
H314 H 0.96374 0.61653 0.87867 0.0
H315 H 0.0371 0.86111 1.01374 0.0
H316 H 0.62373 0.7538 0.75418 0.0
H317 H 0.5147 0.67008 0.54118 0.0
H318 H 0.60432 0.83341 0.71589 0.0
H319 H 0.53106 0.58885 0.58083 0.0
C320 C 0.77861 0.90547 0.65187 0.0
C321 C 0.90181 0.02784 0.48244 0.0
C322 C 0.9767 0.84649 0.41117 0.0
Mg323 Mg 0.93069 0.03874 0.63512 0.0
O324 O 0.95053 -0.01792 0.56676 0.0
Mg325 Mg 0.86587 0.88127 0.52244 0.0
Mg326 Mg 0.03413 -0.02486 0.54727 0.0
O327 O 0.1177 0.96817 0.5278 0.0
Mg328 Mg 0.13739 0.91128 0.4596 0.0
Mg329 Mg 0.20237 0.06891 0.57211 0.0
C330 C 0.09143 0.10353 0.68351 0.0
C331 C 0.16233 0.10857 0.46054 0.0
O332 O 0.76889 0.8837 0.59009 0.0
O333 O 0.84344 0.93271 0.66699 0.0
O334 O 0.88132 0.96043 0.46627 0.0
O335 O 0.91823 0.06556 0.54226 0.0
O336 O 1.03028 0.10166 0.69825 0.0
O337 O 0.1019 0.06942 0.62784 0.0
C338 C 0.906 0.84164 0.63395 0.0
O339 O 0.97365 0.89881 0.6291 0.0
O340 O 0.86037 0.81925 0.59217 0.0
O341 O 0.29926 0.06632 0.50445 0.0
O342 O 0.22466 0.01724 0.42758 0.0
O343 O 0.18681 -0.01026 0.6284 0.0
C344 C 0.28951 0.0445 0.44268 0.0
O345 O 0.14983 0.88454 0.5525 0.0
O346 O 0.03777 0.84821 0.39651 0.0
C347 C 0.16627 0.92231 0.6123 0.0
O348 O 0.9664 0.88094 0.46666 0.0
O349 O 0.09464 0.05147 0.46544 0.0
O350 O 0.20797 0.1309 0.50229 0.0
C351 C 0.36707 0.09084 0.18706 0.0
C352 C 0.44142 0.08643 0.98532 0.0
C353 C 0.40878 0.83084 0.95933 0.0
Mg354 Mg 0.52228 0.12455 0.10728 0.0
O355 O 0.47985 0.02446 0.09915 0.0
Mg356 Mg 0.37596 0.95357 0.07042 0.0
Mg357 Mg 0.53403 -0.02511 0.04753 0.0
O358 O 0.58822 0.92536 0.9958 0.0
Mg359 Mg 0.54598 0.82523 0.98693 0.0
Mg360 Mg 0.69213 -0.00373 1.02434 0.0
C361 C 0.65986 0.11935 0.13476 0.0
C362 C 0.66516 0.07144 0.93354 0.0
O363 O 0.33273 0.02556 0.15153 0.0
O364 O 0.43943 0.13362 0.18228 0.0
O365 O 0.39908 0.0203 0.99642 0.0
O366 O 0.49752 0.13707 1.01858 0.0
O367 O 0.62585 0.15105 0.1389 0.0
O368 O 0.63658 0.05472 0.10153 0.0
C369 C 0.40283 0.87856 0.16153 0.0
O370 O 0.4697 0.90191 0.1315 0.0
O371 O 0.35914 0.89083 0.14617 0.0
O372 O 0.73558 0.92458 0.94297 0.0
O373 O 0.62902 0.81653 0.91199 0.0
O374 O 0.66901 0.9292 0.09797 0.0
C375 C 0.70135 0.85937 0.90731 0.0
O376 O 0.5706 0.81242 0.07559 0.0
O377 O 0.44298 0.79919 0.95462 0.0
C378 C 0.62664 0.86301 0.10895 0.0
O379 O 0.43143 0.89485 0.99377 0.0
O380 O 0.59826 0.04792 0.96355 0.0
O381 O 0.70893 0.05926 0.94887 0.0
C382 C 0.89847 0.61965 0.18895 0.0
C383 C 1.00762 0.6392 1.00011 0.0
C384 C 0.8995 0.34762 0.95488 0.0
Mg385 Mg 0.05016 0.63342 0.12141 0.0
O386 O 0.99091 0.5303 0.11084 0.0
Mg387 Mg 0.89467 0.47993 0.07189 0.0
Mg388 Mg 0.03407 0.47502 0.04738 0.0
O389 O 0.07714 0.41969 0.98389 0.0
Mg390 Mg 1.01788 0.31653 0.97319 0.0
Mg391 Mg 0.17338 0.47002 1.02275 0.0
C392 C 0.16857 0.60235 0.13983 0.0
C393 C 0.17146 0.58169 0.94616 0.0
O394 O 0.86071 0.55298 0.15724 0.0
O395 O 0.97093 0.65901 0.18452 0.0
O396 O 0.94573 0.5763 1.00878 0.0
O397 O 0.06369 0.66676 1.03155 0.0
O398 O 0.14664 0.64547 0.14799 0.0
O399 O 0.13259 0.53599 0.10772 0.0
C400 C 0.89661 0.36839 0.14857 0.0
O401 O 0.96137 0.38729 0.11664 0.0
O402 O 0.86078 0.39437 0.1404 0.0
O403 O 0.20735 0.39703 0.93732 0.0
O404 O 0.09713 0.29095 0.9101 0.0
O405 O 0.12234 0.37359 0.08577 0.0
C406 C 0.1696 0.33034 0.90565 0.0
O407 O 1.00435 0.28317 0.06304 0.0
O408 O 0.92138 0.30442 0.94656 0.0
C409 C 0.06044 0.31071 0.09445 0.0
O410 O 0.93552 0.41388 0.98719 0.0
O411 O 0.10671 0.56277 0.97811 0.0
O412 O 0.20729 0.5557 0.95432 0.0
C413 C 0.27861 0.40546 0.15187 0.0
C414 C 0.40181 0.52784 0.98244 0.0
C415 C 0.4767 0.34649 0.91117 0.0
Mg416 Mg 0.43069 0.53874 0.13512 0.0
O417 O 0.45053 0.48208 0.06676 0.0
Mg418 Mg 0.36587 0.38127 1.02244 0.0
Mg419 Mg 0.53413 0.47514 0.04727 0.0
O420 O 0.6177 0.46817 1.0278 0.0
Mg421 Mg 0.63739 0.41128 0.9596 0.0
Mg422 Mg 0.70237 0.56891 0.07211 0.0
C423 C 0.59143 0.60353 0.18351 0.0
C424 C 0.66233 0.60857 0.96054 0.0
O425 O 0.26889 0.3837 0.09009 0.0
O426 O 0.34344 0.43271 0.16699 0.0
O427 O 0.38132 0.46043 0.96627 0.0
O428 O 0.41823 0.56556 1.04226 0.0
O429 O 0.53028 0.60166 0.19825 0.0
O430 O 0.6019 0.56942 0.12784 0.0
C431 C 0.40601 0.34164 0.13395 0.0
O432 O 0.47365 0.39881 0.1291 0.0
O433 O 0.36037 0.31925 0.09217 0.0
O434 O 0.79926 0.56632 1.00445 0.0
O435 O 0.72466 0.51724 0.92758 0.0
O436 O 0.68681 0.48974 0.1284 0.0
C437 C 0.78951 0.5445 0.94268 0.0
O438 O 0.64983 0.38454 0.0525 0.0
O439 O 0.53777 0.34821 0.89651 0.0
C440 C 0.66627 0.42231 0.1123 0.0
O441 O 0.4664 0.38094 0.96666 0.0
O442 O 0.59464 0.55147 0.96544 0.0
O443 O 0.70797 0.6309 1.00229 0.0
C444 C 0.86707 0.59084 0.68706 0.0
C445 C 0.94142 0.58643 0.48532 0.0
C446 C 0.90878 0.33084 0.45933 0.0
Mg447 Mg 1.02228 0.62455 0.60728 0.0
O448 O 0.97985 0.52446 0.59915 0.0
Mg449 Mg 0.87596 0.45357 0.57042 0.0
Mg450 Mg 0.03403 0.47489 0.54753 0.0
O451 O 0.08822 0.42536 0.4958 0.0
Mg452 Mg 0.04599 0.32523 0.48693 0.0
Mg453 Mg 0.19213 0.49627 0.52434 0.0
C454 C 0.15986 0.61935 0.63476 0.0
C455 C 0.16516 0.57144 0.43354 0.0
O456 O 0.83273 0.52556 0.65153 0.0
O457 O 0.93943 0.63362 0.68229 0.0
O458 O 0.89908 0.5203 0.49642 0.0
O459 O 0.99752 0.63707 0.51858 0.0
O460 O 0.12585 0.65105 0.6389 0.0
O461 O 0.13658 0.55472 0.60153 0.0
C462 C 0.90283 0.37856 0.66153 0.0
O463 O 0.9697 0.40191 0.6315 0.0
O464 O 0.85914 0.39083 0.64617 0.0
O465 O 0.23558 0.42458 0.44297 0.0
O466 O 0.12902 0.31653 0.41199 0.0
O467 O 0.16901 0.4292 0.59797 0.0
C468 C 0.20135 0.35937 0.40731 0.0
O469 O 0.0706 0.31242 0.57559 0.0
O470 O 0.94298 0.2992 0.45462 0.0
C471 C 0.12664 0.36301 0.60895 0.0
O472 O 0.93143 0.39485 0.49377 0.0
O473 O 0.09826 0.54792 0.46355 0.0
O474 O 0.20893 0.55926 0.44887 0.0
C475 C 0.39847 0.11965 0.68895 0.0
C476 C 0.50762 0.1392 0.50011 0.0
C477 C 0.3995 0.84762 0.45488 0.0
Mg478 Mg 0.55016 0.13342 0.62141 0.0
O479 O 0.49091 0.0303 0.61084 0.0
Mg480 Mg 0.39467 -0.02007 0.57189 0.0
Mg481 Mg 0.53407 -0.02498 0.54738 0.0
O482 O 0.57714 0.91969 0.48389 0.0
Mg483 Mg 0.51788 0.81653 0.47319 0.0
Mg484 Mg 0.67338 0.97002 0.52275 0.0
C485 C 0.66857 0.10235 0.63983 0.0
C486 C 0.67146 0.08169 0.44616 0.0
O487 O 0.36071 0.05298 0.65724 0.0
O488 O 0.47093 0.15901 0.68452 0.0
O489 O 0.44573 0.0763 0.50878 0.0
O490 O 0.56369 0.16676 0.53155 0.0
O491 O 0.64664 0.14547 0.64799 0.0
O492 O 0.63259 0.03599 0.60772 0.0
C493 C 0.39661 0.86839 0.64858 0.0
O494 O 0.46137 0.88729 0.61664 0.0
O495 O 0.36078 0.89437 0.6404 0.0
O496 O 0.70735 0.89703 0.43732 0.0
O497 O 0.59713 0.79095 0.4101 0.0
O498 O 0.62234 0.87359 0.58577 0.0
C499 C 0.6696 0.83034 0.40565 0.0
O500 O 0.50435 0.78317 0.56304 0.0
O501 O 0.42138 0.80442 0.44656 0.0
C502 C 0.56044 0.81071 0.59445 0.0
O503 O 0.43552 0.91388 0.48719 0.0
O504 O 0.60671 0.06277 0.47811 0.0
O505 O 0.70729 0.0557 0.45432 0.0
loop_
_geom_bond_atom_site_label_1
_geom_bond_atom_site_label_2
_geom_bond_distance
_geom_bond_site_symmetry_2
_ccdc_geom_bond_type
Eu0 C9 2.828 . S
Eu0 O11 2.392 . S
Eu0 O13 2.418 . S
Eu0 O18 2.373 . S
Eu0 O21 2.488 . S
Eu0 O22 2.471 . S
Eu0 O23 2.349 . S
Eu1 O10 2.373 . S
Eu1 O14 2.488 . S
Eu1 O15 2.471 . S
Eu1 O16 2.349 . S
Eu1 O19 2.392 . S
Eu1 O20 2.418 . S
Eu1 C30 2.828 . S
C2 O20 1.244 . S
C2 O23 1.265 . S
C3 C4 1.379 . S
C3 C7 1.373 . S
C3 C9 1.505 . S
C4 C3 1.379 . S
C4 C6 1.369 . S
C4 H32 0.930 . S
C5 C7 1.383 . S
C5 C8 1.382 . S
C5 H33 0.930 . S
C6 C4 1.369 . S
C6 C8 1.392 . S
C6 H34 0.930 . S
C7 C3 1.373 . S
C7 C5 1.383 . S
C7 H35 0.931 . S
C8 C5 1.382 . S
C8 C6 1.392 . S
C9 Eu0 2.828 . S
C9 C3 1.505 . S
C9 O21 1.249 . S
C9 O22 1.244 . S
O10 Eu1 2.373 . S
O10 C12 1.258 . S
O11 Eu0 2.392 . S
O11 C12 1.242 . S
C12 O10 1.258 . S
C12 O11 1.242 . S
O13 Eu0 2.418 . S
O13 C17 1.244 . S
O14 Eu1 2.488 . S
O14 C30 1.249 . S
O15 Eu1 2.471 . S
O15 C30 1.244 . S
O16 Eu1 2.349 . S
O16 C17 1.265 . S
C17 O13 1.244 . S
C17 O16 1.265 . S
O18 Eu0 2.373 . S
O18 C31 1.258 . S
O19 Eu1 2.392 . S
O19 C31 1.242 . S
O20 Eu1 2.418 . S
O20 C2 1.244 . S
O21 Eu0 2.488 . S
O21 C9 1.249 . S
O22 Eu0 2.471 . S
O22 C9 1.244 . S
O23 Eu0 2.349 . S
O23 C2 1.265 . S
C24 C25 1.379 . S
C24 C28 1.373 1_455 S
C24 C30 1.505 . S
C25 C24 1.379 . S
C25 C27 1.369 . S
C25 H36 0.930 . S
C26 C28 1.383 . S
C26 C29 1.382 . S
C26 H37 0.930 . S
C27 C25 1.369 . S
C27 C29 1.392 1_455 S
C27 H38 0.930 . S
C28 C24 1.373 1_655 S
C28 C26 1.383 . S
C28 H39 0.931 . S
C29 C26 1.382 . S
C29 C27 1.392 1_655 S
C30 Eu1 2.828 . S
C30 O14 1.249 . S
C30 O15 1.244 . S
C30 C24 1.505 . S
C31 O18 1.258 . S
C31 O19 1.242 . S
H32 C4 0.930 . S
H33 C5 0.930 . S
H34 C6 0.930 . S
H35 C7 0.931 . S
H36 C25 0.930 . S
H37 C26 0.930 . S
H38 C27 0.930 . S
H39 C28 0.931 . S
Eu40 C49 2.828 . S
Eu40 O51 2.392 . S
Eu40 O53 2.418 . S
Eu40 O58 2.373 . S
Eu40 O61 2.488 . S
Eu40 O62 2.471 . S
Eu40 O63 2.349 . S
Eu41 O50 2.373 . S
Eu41 O54 2.488 . S
Eu41 O55 2.471 . S
Eu41 O56 2.349 . S
Eu41 O59 2.392 . S
Eu41 O60 2.418 . S
Eu41 C70 2.828 . S
C42 O60 1.244 . S
C42 O63 1.265 . S
C43 C44 1.379 . S
C43 C47 1.373 . S
C43 C49 1.505 . S
C44 C43 1.379 . S
C44 C46 1.369 . S
C44 H72 0.930 . S
C45 C47 1.383 1_565 S
C45 C48 1.382 1_565 S
C45 H73 0.930 . S
C46 C44 1.369 . S
C46 C48 1.392 . S
C46 H74 0.930 . S
C47 C43 1.373 . S
C47 C45 1.383 1_545 S
C47 H75 0.931 1_545 S
C48 C45 1.382 1_545 S
C48 C46 1.392 . S
C49 Eu40 2.828 . S
C49 C43 1.505 . S
C49 O61 1.249 . S
C49 O62 1.244 . S
O50 Eu41 2.373 . S
O50 C52 1.258 . S
O51 Eu40 2.392 . S
O51 C52 1.242 . S
C52 O50 1.258 . S
C52 O51 1.242 . S
O53 Eu40 2.418 . S
O53 C57 1.244 . S
O54 Eu41 2.488 . S
O54 C70 1.249 . S
O55 Eu41 2.471 . S
O55 C70 1.244 . S
O56 Eu41 2.349 . S
O56 C57 1.265 . S
C57 O53 1.244 . S
C57 O56 1.265 . S
O58 Eu40 2.373 . S
O58 C71 1.258 . S
O59 Eu41 2.392 . S
O59 C71 1.242 . S
O60 Eu41 2.418 . S
O60 C42 1.244 . S
O61 Eu40 2.488 . S
O61 C49 1.249 . S
O62 Eu40 2.471 . S
O62 C49 1.244 . S
O63 Eu40 2.349 . S
O63 C42 1.265 . S
C64 C65 1.379 . S
C64 C68 1.373 . S
C64 C70 1.505 . S
C65 C64 1.379 . S
C65 C67 1.369 . S
C65 H76 0.930 . S
C66 C68 1.383 . S
C66 C69 1.382 . S
C66 H77 0.930 . S
C67 C65 1.369 . S
C67 C69 1.392 . S
C67 H78 0.930 . S
C68 C64 1.373 . S
C68 C66 1.383 . S
C68 H79 0.931 . S
C69 C66 1.382 . S
C69 C67 1.392 . S
C70 Eu41 2.828 . S
C70 O54 1.249 . S
C70 O55 1.244 . S
C70 C64 1.505 . S
C71 O58 1.258 . S
C71 O59 1.242 . S
H72 C44 0.930 . S
H73 C45 0.930 . S
H74 C46 0.930 . S
H75 C47 0.931 1_565 S
H76 C65 0.930 . S
H77 C66 0.930 . S
H78 C67 0.930 . S
H79 C68 0.931 . S
Eu80 C89 2.828 . S
Eu80 O91 2.392 . S
Eu80 O93 2.418 . S
Eu80 O98 2.373 . S
Eu80 O101 2.488 . S
Eu80 O102 2.471 . S
Eu80 O103 2.349 . S
Eu81 O90 2.373 . S
Eu81 O94 2.488 . S
Eu81 O95 2.471 . S
Eu81 O96 2.349 . S
Eu81 O99 2.392 . S
Eu81 O100 2.418 . S
Eu81 C110 2.828 . S
C82 O100 1.244 . S
C82 O103 1.265 . S
C83 C84 1.379 . S
C83 C87 1.373 1_565 S
C83 C89 1.505 . S
C84 C83 1.379 . S
C84 C86 1.369 . S
C84 H112 0.930 . S
C85 C87 1.383 . S
C85 C88 1.382 . S
C85 H113 0.930 . S
C86 C84 1.369 . S
C86 C88 1.392 1_565 S
C86 H114 0.930 . S
C87 C83 1.373 1_545 S
C87 C85 1.383 . S
C87 H115 0.931 . S
C88 C85 1.382 . S
C88 C86 1.392 1_545 S
C89 Eu80 2.828 . S
C89 C83 1.505 . S
C89 O101 1.249 . S
C89 O102 1.244 . S
O90 Eu81 2.373 . S
O90 C92 1.258 . S
O91 Eu80 2.392 . S
O91 C92 1.242 . S
C92 O90 1.258 . S
C92 O91 1.242 . S
O93 Eu80 2.418 . S
O93 C97 1.244 . S
O94 Eu81 2.488 . S
O94 C110 1.249 . S
O95 Eu81 2.471 . S
O95 C110 1.244 . S
O96 Eu81 2.349 . S
O96 C97 1.265 . S
C97 O93 1.244 . S
C97 O96 1.265 . S
O98 Eu80 2.373 . S
O98 C111 1.258 . S
O99 Eu81 2.392 . S
O99 C111 1.242 . S
O100 Eu81 2.418 . S
O100 C82 1.244 . S
O101 Eu80 2.488 . S
O101 C89 1.249 . S
O102 Eu80 2.471 . S
O102 C89 1.244 . S
O103 Eu80 2.349 . S
O103 C82 1.265 . S
C104 C105 1.379 . S
C104 C108 1.373 . S
C104 C110 1.505 . S
C105 C104 1.379 . S
C105 C107 1.369 . S
C105 H116 0.930 . S
C106 C108 1.383 . S
C106 C109 1.382 . S
C106 H117 0.930 . S
C107 C105 1.369 . S
C107 C109 1.392 . S
C107 H118 0.930 . S
C108 C104 1.373 . S
C108 C106 1.383 . S
C108 H119 0.931 . S
C109 C106 1.382 . S
C109 C107 1.392 . S
C110 Eu81 2.828 . S
C110 O94 1.249 . S
C110 O95 1.244 . S
C110 C104 1.505 . S
C111 O98 1.258 . S
C111 O99 1.242 . S
H112 C84 0.930 . S
H113 C85 0.930 . S
H114 C86 0.930 . S
H115 C87 0.931 . S
H116 C105 0.930 . S
H117 C106 0.930 . S
H118 C107 0.930 . S
H119 C108 0.931 . S
Eu120 C129 2.828 . S
Eu120 O131 2.392 . S
Eu120 O133 2.418 . S
Eu120 O138 2.373 . S
Eu120 O141 2.488 . S
Eu120 O142 2.471 . S
Eu120 O143 2.349 . S
Eu121 O130 2.373 . S
Eu121 O134 2.488 . S
Eu121 O135 2.471 . S
Eu121 O136 2.349 . S
Eu121 O139 2.392 . S
Eu121 O140 2.418 . S
Eu121 C150 2.828 . S
C122 O140 1.244 . S
C122 O143 1.265 . S
C123 C124 1.379 . S
C123 C127 1.373 . S
C123 C129 1.505 . S
C124 C123 1.379 . S
C124 C126 1.369 . S
C124 H152 0.930 . S
C125 C127 1.383 . S
C125 C128 1.382 . S
C125 H153 0.930 . S
C126 C124 1.369 . S
C126 C128 1.392 . S
C126 H154 0.930 1_554 S
C127 C123 1.373 . S
C127 C125 1.383 . S
C127 H155 0.931 . S
C128 C125 1.382 . S
C128 C126 1.392 . S
C129 Eu120 2.828 . S
C129 C123 1.505 . S
C129 O141 1.249 . S
C129 O142 1.244 . S
O130 Eu121 2.373 . S
O130 C132 1.258 . S
O131 Eu120 2.392 . S
O131 C132 1.242 . S
C132 O130 1.258 . S
C132 O131 1.242 . S
O133 Eu120 2.418 . S
O133 C137 1.244 . S
O134 Eu121 2.488 . S
O134 C150 1.249 . S
O135 Eu121 2.471 . S
O135 C150 1.244 . S
O136 Eu121 2.349 . S
O136 C137 1.265 . S
C137 O133 1.244 . S
C137 O136 1.265 . S
O138 Eu120 2.373 . S
O138 C151 1.258 . S
O139 Eu121 2.392 . S
O139 C151 1.242 . S
O140 Eu121 2.418 . S
O140 C122 1.244 . S
O141 Eu120 2.488 . S
O141 C129 1.249 . S
O142 Eu120 2.471 . S
O142 C129 1.244 . S
O143 Eu120 2.349 . S
O143 C122 1.265 . S
C144 C145 1.379 . S
C144 C148 1.373 . S
C144 C150 1.505 . S
C145 C144 1.379 . S
C145 C147 1.369 . S
C145 H156 0.930 . S
C146 C148 1.383 . S
C146 C149 1.382 . S
C146 H157 0.930 1_455 S
C147 C145 1.369 . S
C147 C149 1.392 . S
C147 H158 0.930 . S
C148 C144 1.373 . S
C148 C146 1.383 . S
C148 H159 0.931 . S
C149 C146 1.382 . S
C149 C147 1.392 . S
C150 Eu121 2.828 . S
C150 O134 1.249 . S
C150 O135 1.244 . S
C150 C144 1.505 . S
C151 O138 1.258 . S
C151 O139 1.242 . S
H152 C124 0.930 . S
H153 C125 0.930 . S
H154 C126 0.930 1_556 S
H155 C127 0.931 . S
H156 C145 0.930 . S
H157 C146 0.930 1_655 S
H158 C147 0.930 . S
H159 C148 0.931 . S
Eu160 C169 2.828 . S
Eu160 O171 2.392 . S
Eu160 O173 2.418 . S
Eu160 O178 2.373 . S
Eu160 O181 2.488 . S
Eu160 O182 2.471 . S
Eu160 O183 2.349 . S
Eu161 O170 2.373 . S
Eu161 O174 2.488 . S
Eu161 O175 2.471 . S
Eu161 O176 2.349 . S
Eu161 O179 2.392 . S
Eu161 O180 2.418 . S
Eu161 C190 2.828 . S
C162 O180 1.244 . S
C162 O183 1.265 . S
C163 C164 1.379 . S
C163 C167 1.373 . S
C163 C169 1.505 . S
C164 C163 1.379 . S
C164 C166 1.369 . S
C164 H192 0.930 . S
C165 C167 1.383 . S
C165 C168 1.382 . S
C165 H193 0.930 . S
C166 C164 1.369 . S
C166 C168 1.392 . S
C166 H194 0.930 . S
C167 C163 1.373 . S
C167 C165 1.383 . S
C167 H195 0.931 . S
C168 C165 1.382 . S
C168 C166 1.392 . S
C169 Eu160 2.828 . S
C169 C163 1.505 . S
C169 O181 1.249 . S
C169 O182 1.244 . S
O170 Eu161 2.373 . S
O170 C172 1.258 . S
O171 Eu160 2.392 . S
O171 C172 1.242 . S
C172 O170 1.258 . S
C172 O171 1.242 . S
O173 Eu160 2.418 . S
O173 C177 1.244 . S
O174 Eu161 2.488 . S
O174 C190 1.249 . S
O175 Eu161 2.471 . S
O175 C190 1.244 . S
O176 Eu161 2.349 . S
O176 C177 1.265 . S
C177 O173 1.244 . S
C177 O176 1.265 . S
O178 Eu160 2.373 . S
O178 C191 1.258 . S
O179 Eu161 2.392 . S
O179 C191 1.242 . S
O180 Eu161 2.418 . S
O180 C162 1.244 . S
O181 Eu160 2.488 . S
O181 C169 1.249 . S
O182 Eu160 2.471 . S
O182 C169 1.244 . S
O183 Eu160 2.349 . S
O183 C162 1.265 . S
C184 C185 1.379 . S
C184 C188 1.373 . S
C184 C190 1.505 . S
C185 C184 1.379 . S
C185 C187 1.369 . S
C185 H196 0.930 . S
C186 C188 1.383 1_545 S
C186 C189 1.382 1_545 S
C186 H197 0.930 . S
C187 C185 1.369 . S
C187 C189 1.392 . S
C187 H198 0.930 . S
C188 C184 1.373 . S
C188 C186 1.383 1_565 S
C188 H199 0.931 1_565 S
C189 C186 1.382 1_565 S
C189 C187 1.392 . S
C190 Eu161 2.828 . S
C190 O174 1.249 . S
C190 O175 1.244 . S
C190 C184 1.505 . S
C191 O178 1.258 . S
C191 O179 1.242 . S
H192 C164 0.930 . S
H193 C165 0.930 . S
H194 C166 0.930 . S
H195 C167 0.931 . S
H196 C185 0.930 . S
H197 C186 0.930 . S
H198 C187 0.930 . S
H199 C188 0.931 1_545 S
Eu200 C209 2.828 . S
Eu200 O211 2.392 . S
Eu200 O213 2.418 . S
Eu200 O218 2.373 . S
Eu200 O221 2.488 . S
Eu200 O222 2.471 . S
Eu200 O223 2.349 . S
Eu201 O210 2.373 . S
Eu201 O214 2.488 . S
Eu201 O215 2.471 . S
Eu201 O216 2.349 . S
Eu201 O219 2.392 . S
Eu201 O220 2.418 . S
Eu201 C230 2.828 . S
C202 O220 1.244 . S
C202 O223 1.265 . S
C203 C204 1.379 . S
C203 C207 1.373 . S
C203 C209 1.505 . S
C204 C203 1.379 . S
C204 C206 1.369 . S
C204 H232 0.930 . S
C205 C207 1.383 . S
C205 C208 1.382 . S
C205 H233 0.930 . S
C206 C204 1.369 . S
C206 C208 1.392 . S
C206 H234 0.930 . S
C207 C203 1.373 . S
C207 C205 1.383 . S
C207 H235 0.931 . S
C208 C205 1.382 . S
C208 C206 1.392 . S
C209 Eu200 2.828 . S
C209 C203 1.505 . S
C209 O221 1.249 . S
C209 O222 1.244 . S
O210 Eu201 2.373 . S
O210 C212 1.258 . S
O211 Eu200 2.392 . S
O211 C212 1.242 . S
C212 O210 1.258 . S
C212 O211 1.242 . S
O213 Eu200 2.418 . S
O213 C217 1.244 . S
O214 Eu201 2.488 . S
O214 C230 1.249 . S
O215 Eu201 2.471 . S
O215 C230 1.244 . S
O216 Eu201 2.349 . S
O216 C217 1.265 . S
C217 O213 1.244 . S
C217 O216 1.265 . S
O218 Eu200 2.373 . S
O218 C231 1.258 . S
O219 Eu201 2.392 . S
O219 C231 1.242 . S
O220 Eu201 2.418 . S
O220 C202 1.244 . S
O221 Eu200 2.488 . S
O221 C209 1.249 . S
O222 Eu200 2.471 . S
O222 C209 1.244 . S
O223 Eu200 2.349 . S
O223 C202 1.265 . S
C224 C225 1.379 . S
C224 C228 1.373 1_545 S
C224 C230 1.505 . S
C225 C224 1.379 . S
C225 C227 1.369 . S
C225 H236 0.930 . S
C226 C228 1.383 . S
C226 C229 1.382 . S
C226 H237 0.930 . S
C227 C225 1.369 . S
C227 C229 1.392 1_545 S
C227 H238 0.930 . S
C228 C224 1.373 1_565 S
C228 C226 1.383 . S
C228 H239 0.931 . S
C229 C226 1.382 . S
C229 C227 1.392 1_565 S
C230 Eu201 2.828 . S
C230 O214 1.249 . S
C230 O215 1.244 . S
C230 C224 1.505 . S
C231 O218 1.258 . S
C231 O219 1.242 . S
H232 C204 0.930 . S
H233 C205 0.930 . S
H234 C206 0.930 . S
H235 C207 0.931 . S
H236 C225 0.930 . S
H237 C226 0.930 . S
H238 C227 0.930 . S
H239 C228 0.931 . S
Eu240 C249 2.828 . S
Eu240 O251 2.392 . S
Eu240 O253 2.418 . S
Eu240 O258 2.373 . S
Eu240 O261 2.488 . S
Eu240 O262 2.471 . S
Eu240 O263 2.349 . S
Eu241 O250 2.373 . S
Eu241 O254 2.488 . S
Eu241 O255 2.471 . S
Eu241 O256 2.349 . S
Eu241 O259 2.392 . S
Eu241 O260 2.418 . S
Eu241 C270 2.828 . S
C242 O260 1.244 . S
C242 O263 1.265 . S
C243 C244 1.379 . S
C243 C247 1.373 . S
C243 C249 1.505 . S
C244 C243 1.379 . S
C244 C246 1.369 . S
C244 H272 0.930 . S
C245 C247 1.385 . S
C245 C248 1.383 . S
C245 H273 0.928 1_655 S
C246 C244 1.369 . S
C246 C248 1.392 . S
C246 H274 0.930 . S
C247 C243 1.373 . S
C247 C245 1.385 . S
C247 H275 0.931 . S
C248 C245 1.383 . S
C248 C246 1.392 . S
C249 Eu240 2.828 . S
C249 C243 1.505 . S
C249 O261 1.249 . S
C249 O262 1.244 . S
O250 Eu241 2.373 . S
O250 C252 1.258 . S
O251 Eu240 2.392 . S
O251 C252 1.242 . S
C252 O250 1.258 . S
C252 O251 1.242 . S
O253 Eu240 2.418 . S
O253 C257 1.244 . S
O254 Eu241 2.488 . S
O254 C270 1.249 . S
O255 Eu241 2.471 . S
O255 C270 1.244 . S
O256 Eu241 2.349 . S
O256 C257 1.265 . S
C257 O253 1.244 . S
C257 O256 1.265 . S
O258 Eu240 2.373 . S
O258 C271 1.258 . S
O259 Eu241 2.392 . S
O259 C271 1.242 . S
O260 Eu241 2.418 . S
O260 C242 1.244 . S
O261 Eu240 2.488 . S
O261 C249 1.249 . S
O262 Eu240 2.471 . S
O262 C249 1.244 . S
O263 Eu240 2.349 . S
O263 C242 1.265 . S
C264 C265 1.379 . S
C264 C268 1.373 . S
C264 C270 1.505 . S
C265 C264 1.379 . S
C265 C267 1.369 . S
C265 H276 0.930 . S
C266 C268 1.383 . S
C266 C269 1.382 . S
C266 H277 0.930 . S
C267 C265 1.369 . S
C267 C269 1.392 . S
C267 H278 0.930 1_556 S
C268 C264 1.373 . S
C268 C266 1.383 . S
C268 H279 0.931 . S
C269 C266 1.382 . S
C269 C267 1.392 . S
C270 Eu241 2.828 . S
C270 O254 1.249 . S
C270 O255 1.244 . S
C270 C264 1.505 . S
C271 O258 1.258 . S
C271 O259 1.242 . S
H272 C244 0.930 . S
H273 C245 0.928 1_455 S
H274 C246 0.930 . S
H275 C247 0.931 . S
H276 C265 0.930 . S
H277 C266 0.930 . S
H278 C267 0.930 1_554 S
H279 C268 0.931 . S
Eu280 C289 2.828 . S
Eu280 O291 2.392 . S
Eu280 O293 2.418 . S
Eu280 O298 2.373 . S
Eu280 O301 2.488 . S
Eu280 O302 2.471 . S
Eu280 O303 2.349 . S
Eu281 O290 2.373 . S
Eu281 O294 2.488 . S
Eu281 O295 2.471 . S
Eu281 O296 2.349 . S
Eu281 O299 2.392 . S
Eu281 O300 2.418 . S
Eu281 C310 2.828 . S
C282 O300 1.244 . S
C282 O303 1.265 . S
C283 C284 1.379 . S
C283 C287 1.373 1_655 S
C283 C289 1.505 . S
C284 C283 1.379 . S
C284 C286 1.369 . S
C284 H312 0.930 . S
C285 C287 1.383 . S
C285 C288 1.382 . S
C285 H313 0.930 . S
C286 C284 1.369 . S
C286 C288 1.392 1_655 S
C286 H314 0.930 . S
C287 C283 1.373 1_455 S
C287 C285 1.383 . S
C287 H315 0.931 . S
C288 C285 1.382 . S
C288 C286 1.392 1_455 S
C289 Eu280 2.828 . S
C289 C283 1.505 . S
C289 O301 1.249 . S
C289 O302 1.244 . S
O290 Eu281 2.373 . S
O290 C292 1.258 . S
O291 Eu280 2.392 . S
O291 C292 1.242 . S
C292 O290 1.258 . S
C292 O291 1.242 . S
O293 Eu280 2.418 . S
O293 C297 1.244 . S
O294 Eu281 2.488 . S
O294 C310 1.249 . S
O295 Eu281 2.471 . S
O295 C310 1.244 . S
O296 Eu281 2.349 . S
O296 C297 1.265 . S
C297 O293 1.244 . S
C297 O296 1.265 . S
O298 Eu280 2.373 . S
O298 C311 1.258 . S
O299 Eu281 2.392 . S
O299 C311 1.242 . S
O300 Eu281 2.418 . S
O300 C282 1.244 . S
O301 Eu280 2.488 . S
O301 C289 1.249 . S
O302 Eu280 2.471 . S
O302 C289 1.244 . S
O303 Eu280 2.349 . S
O303 C282 1.265 . S
C304 C305 1.379 . S
C304 C308 1.373 . S
C304 C310 1.505 . S
C305 C304 1.379 . S
C305 C307 1.369 . S
C305 H316 0.930 . S
C306 C308 1.383 . S
C306 C309 1.382 . S
C306 H317 0.930 . S
C307 C305 1.369 . S
C307 C309 1.392 . S
C307 H318 0.930 . S
C308 C304 1.373 . S
C308 C306 1.383 . S
C308 H319 0.931 . S
C309 C306 1.382 . S
C309 C307 1.392 . S
C310 Eu281 2.828 . S
C310 O294 1.249 . S
C310 O295 1.244 . S
C310 C304 1.505 . S
C311 O298 1.258 . S
C311 O299 1.242 . S
H312 C284 0.930 . S
H313 C285 0.930 . S
H314 C286 0.930 . S
H315 C287 0.931 . S
H316 C305 0.930 . S
H317 C306 0.930 . S
H318 C307 0.930 . S
H319 C308 0.931 . S
C320 O332 1.241 . S
C320 O333 1.280 . S
C321 O334 1.277 . S
C321 O335 1.245 . S
C322 O346 1.247 . S
C322 O348 1.289 . S
Mg323 O324 1.926 1_455 S
Mg323 O333 1.984 1_455 S
Mg323 O335 1.988 1_455 S
Mg323 O336 2.061 . S
O324 Mg323 1.926 1_655 S
O324 Mg325 1.986 1_545 S
O324 Mg326 1.933 1_655 S
Mg325 O324 1.986 1_565 S
Mg325 O332 2.042 1_565 S
Mg325 O334 2.041 1_565 S
Mg325 O340 2.038 . S
Mg325 O348 2.238 . S
Mg326 O324 1.933 1_455 S
Mg326 O327 1.900 1_545 S
Mg326 O337 2.105 . S
Mg326 O339 2.069 1_445 S
Mg326 O348 2.108 1_445 S
Mg326 O349 2.088 . S
O327 Mg326 1.900 1_565 S
O327 Mg328 1.926 1_455 S
O327 Mg329 1.986 1_565 S
Mg328 O327 1.926 1_655 S
Mg328 O342 1.984 1_655 S
Mg328 O345 1.988 1_655 S
Mg328 O346 2.061 . S
Mg329 O327 1.986 1_545 S
Mg329 O337 2.238 . S
Mg329 O341 2.042 1_545 S
Mg329 O343 2.041 1_545 S
Mg329 O350 2.038 . S
C330 O336 1.247 . S
C330 O337 1.289 . S
C331 O349 1.245 . S
C331 O350 1.274 . S
O332 C320 1.241 . S
O332 Mg325 2.042 1_545 S
O333 C320 1.280 . S
O333 Mg323 1.984 1_655 S
O334 C321 1.277 . S
O334 Mg325 2.041 1_545 S
O335 C321 1.245 . S
O335 Mg323 1.988 1_655 S
O336 Mg323 2.061 . S
O336 C330 1.247 . S
O337 Mg326 2.105 . S
O337 Mg329 2.238 . S
O337 C330 1.289 . S
C338 O339 1.245 . S
C338 O340 1.274 . S
O339 Mg326 2.069 1_665 S
O339 C338 1.245 . S
O340 Mg325 2.038 . S
O340 C338 1.274 . S
O341 Mg329 2.042 1_565 S
O341 C344 1.241 . S
O342 Mg328 1.984 1_455 S
O342 C344 1.280 . S
O343 Mg329 2.041 1_565 S
O343 C347 1.277 . S
C344 O341 1.241 . S
C344 O342 1.280 . S
O345 Mg328 1.988 1_455 S
O345 C347 1.245 . S
O346 C322 1.247 . S
O346 Mg328 2.061 . S
C347 O343 1.277 . S
C347 O345 1.245 . S
O348 C322 1.289 . S
O348 Mg325 2.238 . S
O348 Mg326 2.108 1_665 S
O349 Mg326 2.088 . S
O349 C331 1.245 . S
O350 Mg329 2.038 . S
O350 C331 1.274 . S
C351 O363 1.241 . S
C351 O364 1.280 . S
C352 O365 1.277 . S
C352 O366 1.245 . S
C353 O377 1.247 . S
C353 O379 1.289 . S
Mg354 O355 1.926 . S
Mg354 O364 1.984 . S
Mg354 O366 1.988 1_554 S
Mg354 O367 2.061 . S
O355 Mg354 1.926 . S
O355 Mg356 1.986 1_545 S
O355 Mg357 1.934 . S
Mg356 O355 1.986 1_565 S
Mg356 O363 2.042 1_565 S
Mg356 O365 2.041 1_564 S
Mg356 O371 2.038 . S
Mg356 O379 2.238 1_554 S
Mg357 O355 1.934 . S
Mg357 O358 1.900 1_544 S
Mg357 O368 2.105 . S
Mg357 O370 2.069 1_545 S
Mg357 O379 2.108 1_544 S
Mg357 O380 2.089 1_554 S
O358 Mg357 1.900 1_566 S
O358 Mg359 1.926 . S
O358 Mg360 1.986 1_565 S
Mg359 O358 1.926 . S
Mg359 O373 1.984 . S
Mg359 O376 1.988 1_556 S
Mg359 O377 2.061 . S
Mg360 O358 1.986 1_545 S
Mg360 O368 2.238 1_556 S
Mg360 O372 2.042 1_545 S
Mg360 O374 2.041 1_546 S
Mg360 O381 2.038 . S
C361 O367 1.247 . S
C361 O368 1.289 . S
C362 O380 1.245 . S
C362 O381 1.274 . S
O363 C351 1.241 . S
O363 Mg356 2.042 1_545 S
O364 C351 1.280 . S
O364 Mg354 1.984 . S
O365 C352 1.277 . S
O365 Mg356 2.041 1_546 S
O366 C352 1.245 . S
O366 Mg354 1.988 1_556 S
O367 Mg354 2.061 . S
O367 C361 1.247 . S
O368 Mg357 2.105 . S
O368 Mg360 2.238 1_554 S
O368 C361 1.289 . S
C369 O370 1.245 . S
C369 O371 1.274 . S
O370 Mg357 2.069 1_565 S
O370 C369 1.245 . S
O371 Mg356 2.038 . S
O371 C369 1.274 . S
O372 Mg360 2.042 1_565 S
O372 C375 1.241 . S
O373 Mg359 1.984 . S
O373 C375 1.280 . S
O374 Mg360 2.041 1_564 S
O374 C378 1.277 . S
C375 O372 1.241 . S
C375 O373 1.280 . S
O376 Mg359 1.988 1_554 S
O376 C378 1.245 . S
O377 C353 1.247 . S
O377 Mg359 2.061 . S
C378 O374 1.277 . S
C378 O376 1.245 . S
O379 C353 1.289 . S
O379 Mg356 2.238 1_556 S
O379 Mg357 2.108 1_566 S
O380 Mg357 2.089 1_556 S
O380 C362 1.245 . S
O381 Mg360 2.038 . S
O381 C362 1.274 . S
C382 O394 1.241 . S
C382 O395 1.280 . S
C383 O396 1.277 . S
C383 O397 1.245 . S
C384 O408 1.247 . S
C384 O410 1.289 . S
Mg385 O386 1.926 1_455 S
Mg385 O395 1.984 1_455 S
Mg385 O397 1.988 1_454 S
Mg385 O398 2.061 . S
O386 Mg385 1.926 1_655 S
O386 Mg387 1.986 . S
O386 Mg388 1.917 1_655 S
Mg387 O386 1.986 . S
Mg387 O394 2.042 . S
Mg387 O396 2.041 1_554 S
Mg387 O402 2.038 . S
Mg387 O410 2.238 1_554 S
Mg388 O386 1.917 1_455 S
Mg388 O389 1.917 1_554 S
Mg388 O399 2.106 . S
Mg388 O401 2.079 1_455 S
Mg388 O410 2.106 1_454 S
Mg388 O411 2.079 1_554 S
O389 Mg388 1.917 1_556 S
O389 Mg390 1.926 1_455 S
O389 Mg391 1.986 . S
Mg390 O389 1.926 1_655 S
Mg390 O404 1.984 1_655 S
Mg390 O407 1.988 1_656 S
Mg390 O408 2.061 . S
Mg391 O389 1.986 . S
Mg391 O399 2.238 1_556 S
Mg391 O403 2.042 . S
Mg391 O405 2.041 1_556 S
Mg391 O412 2.038 . S
C392 O398 1.247 . S
C392 O399 1.289 . S
C393 O411 1.245 . S
C393 O412 1.274 . S
O394 C382 1.241 . S
O394 Mg387 2.042 . S
O395 C382 1.280 . S
O395 Mg385 1.984 1_655 S
O396 C383 1.277 . S
O396 Mg387 2.041 1_556 S
O397 C383 1.245 . S
O397 Mg385 1.988 1_656 S
O398 Mg385 2.061 . S
O398 C392 1.247 . S
O399 Mg388 2.106 . S
O399 Mg391 2.238 1_554 S
O399 C392 1.289 . S
C400 O401 1.245 . S
C400 O402 1.274 . S
O401 Mg388 2.079 1_655 S
O401 C400 1.245 . S
O402 Mg387 2.038 . S
O402 C400 1.274 . S
O403 Mg391 2.042 . S
O403 C406 1.241 . S
O404 Mg390 1.984 1_455 S
O404 C406 1.280 . S
O405 Mg391 2.041 1_554 S
O405 C409 1.277 . S
C406 O403 1.241 . S
C406 O404 1.280 . S
O407 Mg390 1.988 1_454 S
O407 C409 1.245 . S
O408 C384 1.247 . S
O408 Mg390 2.061 . S
C409 O405 1.277 . S
C409 O407 1.245 . S
O410 C384 1.289 . S
O410 Mg387 2.238 1_556 S
O410 Mg388 2.106 1_656 S
O411 Mg388 2.079 1_556 S
O411 C393 1.245 . S
O412 Mg391 2.038 . S
O412 C393 1.274 . S
C413 O425 1.241 . S
C413 O426 1.280 . S
C414 O427 1.277 . S
C414 O428 1.245 . S
C415 O439 1.247 . S
C415 O441 1.289 . S
Mg416 O417 1.926 . S
Mg416 O426 1.984 . S
Mg416 O428 1.988 1_554 S
Mg416 O429 2.061 . S
O417 Mg416 1.926 . S
O417 Mg418 1.986 . S
O417 Mg419 1.917 . S
Mg418 O417 1.986 . S
Mg418 O425 2.042 . S
Mg418 O427 2.041 1_554 S
Mg418 O433 2.038 . S
Mg418 O441 2.238 1_554 S
Mg419 O417 1.917 . S
Mg419 O420 1.917 1_554 S
Mg419 O430 2.106 . S
Mg419 O432 2.079 . S
Mg419 O441 2.106 1_554 S
Mg419 O442 2.079 1_554 S
O420 Mg419 1.917 1_556 S
O420 Mg421 1.926 . S
O420 Mg422 1.986 . S
Mg421 O420 1.926 . S
Mg421 O435 1.984 . S
Mg421 O438 1.988 1_556 S
Mg421 O439 2.061 . S
Mg422 O420 1.986 . S
Mg422 O430 2.238 1_556 S
Mg422 O434 2.042 . S
Mg422 O436 2.041 1_556 S
Mg422 O443 2.038 . S
C423 O429 1.247 . S
C423 O430 1.289 . S
C424 O442 1.245 . S
C424 O443 1.274 . S
O425 C413 1.241 . S
O425 Mg418 2.042 . S
O426 C413 1.280 . S
O426 Mg416 1.984 . S
O427 C414 1.277 . S
O427 Mg418 2.041 1_556 S
O428 C414 1.245 . S
O428 Mg416 1.988 1_556 S
O429 Mg416 2.061 . S
O429 C423 1.247 . S
O430 Mg419 2.106 . S
O430 Mg422 2.238 1_554 S
O430 C423 1.289 . S
C431 O432 1.245 . S
C431 O433 1.274 . S
O432 Mg419 2.079 . S
O432 C431 1.245 . S
O433 Mg418 2.038 . S
O433 C431 1.274 . S
O434 Mg422 2.042 . S
O434 C437 1.241 . S
O435 Mg421 1.984 . S
O435 C437 1.280 . S
O436 Mg422 2.041 1_554 S
O436 C440 1.277 . S
C437 O434 1.241 . S
C437 O435 1.280 . S
O438 Mg421 1.988 1_554 S
O438 C440 1.245 . S
O439 C415 1.247 . S
O439 Mg421 2.061 . S
C440 O436 1.277 . S
C440 O438 1.245 . S
O441 C415 1.289 . S
O441 Mg418 2.238 1_556 S
O441 Mg419 2.106 1_556 S
O442 Mg419 2.079 1_556 S
O442 C424 1.245 . S
O443 Mg422 2.038 . S
O443 C424 1.274 . S
C444 O456 1.241 . S
C444 O457 1.280 . S
C445 O458 1.277 . S
C445 O459 1.245 . S
C446 O470 1.247 . S
C446 O472 1.289 . S
Mg447 O448 1.926 1_455 S
Mg447 O457 1.984 1_455 S
Mg447 O459 1.988 1_455 S
Mg447 O460 2.061 . S
O448 Mg447 1.926 1_655 S
O448 Mg449 1.986 . S
O448 Mg450 1.917 1_655 S
Mg449 O448 1.986 . S
Mg449 O456 2.042 . S
Mg449 O458 2.041 . S
Mg449 O464 2.038 . S
Mg449 O472 2.238 . S
Mg450 O448 1.917 1_455 S
Mg450 O451 1.917 . S
Mg450 O461 2.106 . S
Mg450 O463 2.079 1_455 S
Mg450 O472 2.106 1_455 S
Mg450 O473 2.079 . S
O451 Mg450 1.917 . S
O451 Mg452 1.926 1_455 S
O451 Mg453 1.986 . S
Mg452 O451 1.926 1_655 S
Mg452 O466 1.984 1_655 S
Mg452 O469 1.988 1_655 S
Mg452 O470 2.061 . S
Mg453 O451 1.986 . S
Mg453 O461 2.238 . S
Mg453 O465 2.042 . S
Mg453 O467 2.041 . S
Mg453 O474 2.038 . S
C454 O460 1.247 . S
C454 O461 1.289 . S
C455 O473 1.245 . S
C455 O474 1.274 . S
O456 C444 1.241 . S
O456 Mg449 2.042 . S
O457 C444 1.280 . S
O457 Mg447 1.984 1_655 S
O458 C445 1.277 . S
O458 Mg449 2.041 . S
O459 C445 1.245 . S
O459 Mg447 1.988 1_655 S
O460 Mg447 2.061 . S
O460 C454 1.247 . S
O461 Mg450 2.106 . S
O461 Mg453 2.238 . S
O461 C454 1.289 . S
C462 O463 1.245 . S
C462 O464 1.274 . S
O463 Mg450 2.079 1_655 S
O463 C462 1.245 . S
O464 Mg449 2.038 . S
O464 C462 1.274 . S
O465 Mg453 2.042 . S
O465 C468 1.241 . S
O466 Mg452 1.984 1_455 S
O466 C468 1.280 . S
O467 Mg453 2.041 . S
O467 C471 1.277 . S
C468 O465 1.241 . S
C468 O466 1.280 . S
O469 Mg452 1.988 1_455 S
O469 C471 1.245 . S
O470 C446 1.247 . S
O470 Mg452 2.061 . S
C471 O467 1.277 . S
C471 O469 1.245 . S
O472 C446 1.289 . S
O472 Mg449 2.238 . S
O472 Mg450 2.106 1_655 S
O473 Mg450 2.079 . S
O473 C455 1.245 . S
O474 Mg453 2.038 . S
O474 C455 1.274 . S
C475 O487 1.241 . S
C475 O488 1.280 . S
C476 O489 1.277 . S
C476 O490 1.245 . S
C477 O501 1.247 . S
C477 O503 1.289 . S
Mg478 O479 1.926 . S
Mg478 O488 1.984 . S
Mg478 O490 1.988 . S
Mg478 O491 2.061 . S
O479 Mg478 1.926 . S
O479 Mg480 1.986 1_545 S
O479 Mg481 1.934 . S
Mg480 O479 1.986 1_565 S
Mg480 O487 2.042 1_565 S
Mg480 O489 2.041 1_565 S
Mg480 O495 2.038 . S
Mg480 O503 2.238 . S
Mg481 O479 1.934 . S
Mg481 O482 1.900 1_545 S
Mg481 O492 2.105 . S
Mg481 O494 2.069 1_545 S
Mg481 O503 2.108 1_545 S
Mg481 O504 2.089 . S
O482 Mg481 1.900 1_565 S
O482 Mg483 1.926 . S
O482 Mg484 1.986 1_565 S
Mg483 O482 1.926 . S
Mg483 O497 1.984 . S
Mg483 O500 1.988 . S
Mg483 O501 2.061 . S
Mg484 O482 1.986 1_545 S
Mg484 O492 2.238 . S
Mg484 O496 2.042 1_545 S
Mg484 O498 2.041 1_545 S
Mg484 O505 2.038 . S
C485 O491 1.247 . S
C485 O492 1.289 . S
C486 O504 1.245 . S
C486 O505 1.274 . S
O487 C475 1.241 . S
O487 Mg480 2.042 1_545 S
O488 C475 1.280 . S
O488 Mg478 1.984 . S
O489 C476 1.277 . S
O489 Mg480 2.041 1_545 S
O490 C476 1.245 . S
O490 Mg478 1.988 . S
O491 Mg478 2.061 . S
O491 C485 1.247 . S
O492 Mg481 2.105 . S
O492 Mg484 2.238 . S
O492 C485 1.289 . S
C493 O494 1.245 . S
C493 O495 1.274 . S
O494 Mg481 2.069 1_565 S
O494 C493 1.245 . S
O495 Mg480 2.038 . S
O495 C493 1.274 . S
O496 Mg484 2.042 1_565 S
O496 C499 1.241 . S
O497 Mg483 1.984 . S
O497 C499 1.280 . S
O498 Mg484 2.041 1_565 S
O498 C502 1.277 . S
C499 O496 1.241 . S
C499 O497 1.280 . S
O500 Mg483 1.988 . S
O500 C502 1.245 . S
O501 C477 1.247 . S
O501 Mg483 2.061 . S
C502 O498 1.277 . S
C502 O500 1.245 . S
O503 C477 1.289 . S
O503 Mg480 2.238 . S
O503 Mg481 2.108 1_565 S
O504 Mg481 2.089 . S
O504 C486 1.245 . S
O505 Mg484 2.038 . S
O505 C486 1.274 . S
C331 C2 2.787 . S
C321 C48 2.140 . S
C322 C97 2.109 . S
C149 C344 2.685 . S
C189 C347 2.140 . S
C330 C202 2.109 . S
C248 C320 2.685 . S
C297 C338 2.787 . S
C351 C31 3.824 . S
C52 C400 2.248 . S
C378 C88 2.719 1_565 S
C392 C122 1.613 . S
C162 C353 2.065 . S
C406 C231 3.855 . S
C252 C362 2.491 . S
C288 C383 2.255 1_455 S
C29 C409 2.255 1_655 S
C191 C393 2.249 . S
C352 C229 2.720 1_545 S
C384 C257 1.613 . S
C292 C375 3.824 . S
C92 C382 3.855 . S
C369 C151 2.491 . S
C57 C361 2.064 . S
C282 C424 2.787 . S
C168 C414 2.140 . S
C415 C217 2.109 . S
C437 C269 2.685 . S
C69 C440 2.139 . S
C423 C82 2.109 . S
C128 C413 2.685 . S
C17 C431 2.787 . S
C311 C444 3.824 . S
C493 C172 2.249 . S
C208 C471 2.719 . S
C242 C485 1.612 . S
C446 C42 2.065 . S
C111 C499 3.855 . S
C455 C132 2.491 . S
C476 C8 2.255 . S
C502 C309 2.255 . S
C71 C486 2.248 . S
C109 C445 2.720 . S
C477 C137 1.613 . S
C12 C468 3.824 . S
C212 C475 3.855 . S
C462 C271 2.491 . S
C454 C177 2.065 . S
