# Generated by pormake.
# Topology gar, (4,6)-cn, num edge types: 1
# Building blocks:
#     Node 0, Type 0, BuildingBlock: QUQFOY_clean_sbu_1, # of connection points: 4
#     Node 1, Type 0, BuildingBlock: QUQFOY_clean_sbu_1, # of connection points: 4
#     Node 2, Type 0, BuildingBlock: QUQFOY_clean_sbu_1, # of connection points: 4
#     Node 3, Type 0, BuildingBlock: QUQFOY_clean_sbu_1, # of connection points: 4
#     Node 4, Type 0, BuildingBlock: QUQFOY_clean_sbu_1, # of connection points: 4
#     Node 5, Type 0, BuildingBlock: QUQFOY_clean_sbu_1, # of connection points: 4
#     Node 6, Type 0, BuildingBlock: QUQFOY_clean_sbu_1, # of connection points: 4
#     Node 7, Type 0, BuildingBlock: QUQFOY_clean_sbu_1, # of connection points: 4
#     Node 8, Type 0, BuildingBlock: QUQFOY_clean_sbu_1, # of connection points: 4
#     Node 9, Type 0, BuildingBlock: QUQFOY_clean_sbu_1, # of connection points: 4
#     Node 10, Type 0, BuildingBlock: QUQFOY_clean_sbu_1, # of connection points: 4
#     Node 11, Type 0, BuildingBlock: QUQFOY_clean_sbu_1, # of connection points: 4
#     Node 12, Type 0, BuildingBlock: QUQFOY_clean_sbu_1, # of connection points: 4
#     Node 13, Type 0, BuildingBlock: QUQFOY_clean_sbu_1, # of connection points: 4
#     Node 14, Type 0, BuildingBlock: QUQFOY_clean_sbu_1, # of connection points: 4
#     Node 15, Type 0, BuildingBlock: QUQFOY_clean_sbu_1, # of connection points: 4
#     Node 16, Type 0, BuildingBlock: QUQFOY_clean_sbu_1, # of connection points: 4
#     Node 17, Type 0, BuildingBlock: QUQFOY_clean_sbu_1, # of connection points: 4
#     Node 18, Type 0, BuildingBlock: QUQFOY_clean_sbu_1, # of connection points: 4
#     Node 19, Type 0, BuildingBlock: QUQFOY_clean_sbu_1, # of connection points: 4
#     Node 20, Type 0, BuildingBlock: QUQFOY_clean_sbu_1, # of connection points: 4
#     Node 21, Type 0, BuildingBlock: QUQFOY_clean_sbu_1, # of connection points: 4
#     Node 22, Type 0, BuildingBlock: QUQFOY_clean_sbu_1, # of connection points: 4
#     Node 23, Type 0, BuildingBlock: QUQFOY_clean_sbu_1, # of connection points: 4
#     Node 24, Type 1, BuildingBlock: BETDAH_clean_sbu_0, # of connection points: 6
#     Node 25, Type 1, BuildingBlock: BETDAH_clean_sbu_0, # of connection points: 6
#     Node 26, Type 1, BuildingBlock: BETDAH_clean_sbu_0, # of connection points: 6
#     Node 27, Type 1, BuildingBlock: BETDAH_clean_sbu_0, # of connection points: 6
#     Node 28, Type 1, BuildingBlock: BETDAH_clean_sbu_0, # of connection points: 6
#     Node 29, Type 1, BuildingBlock: BETDAH_clean_sbu_0, # of connection points: 6
#     Node 30, Type 1, BuildingBlock: BETDAH_clean_sbu_0, # of connection points: 6
#     Node 31, Type 1, BuildingBlock: BETDAH_clean_sbu_0, # of connection points: 6
#     Node 32, Type 1, BuildingBlock: BETDAH_clean_sbu_0, # of connection points: 6
#     Node 33, Type 1, BuildingBlock: BETDAH_clean_sbu_0, # of connection points: 6
#     Node 34, Type 1, BuildingBlock: BETDAH_clean_sbu_0, # of connection points: 6
#     Node 35, Type 1, BuildingBlock: BETDAH_clean_sbu_0, # of connection points: 6
#     Node 36, Type 1, BuildingBlock: BETDAH_clean_sbu_0, # of connection points: 6
#     Node 37, Type 1, BuildingBlock: BETDAH_clean_sbu_0, # of connection points: 6
#     Node 38, Type 1, BuildingBlock: BETDAH_clean_sbu_0, # of connection points: 6
#     Node 39, Type 1, BuildingBlock: BETDAH_clean_sbu_0, # of connection points: 6
#     Edge 40, Type (0, 1), BuildingBlock: AJUNOK_clean_linker_0, # of connection points: 2
#     Edge 41, Type (0, 1), BuildingBlock: AJUNOK_clean_linker_0, # of connection points: 2
#     Edge 42, Type (0, 1), BuildingBlock: AJUNOK_clean_linker_0, # of connection points: 2
#     Edge 43, Type (0, 1), BuildingBlock: AJUNOK_clean_linker_0, # of connection points: 2
#     Edge 44, Type (0, 1), BuildingBlock: AJUNOK_clean_linker_0, # of connection points: 2
#     Edge 45, Type (0, 1), BuildingBlock: AJUNOK_clean_linker_0, # of connection points: 2
#     Edge 46, Type (0, 1), BuildingBlock: AJUNOK_clean_linker_0, # of connection points: 2
#     Edge 47, Type (0, 1), BuildingBlock: AJUNOK_clean_linker_0, # of connection points: 2
#     Edge 48, Type (0, 1), BuildingBlock: AJUNOK_clean_linker_0, # of connection points: 2
#     Edge 49, Type (0, 1), BuildingBlock: AJUNOK_clean_linker_0, # of connection points: 2
#     Edge 50, Type (0, 1), BuildingBlock: AJUNOK_clean_linker_0, # of connection points: 2
#     Edge 51, Type (0, 1), BuildingBlock: AJUNOK_clean_linker_0, # of connection points: 2
#     Edge 52, Type (0, 1), BuildingBlock: AJUNOK_clean_linker_0, # of connection points: 2
#     Edge 53, Type (0, 1), BuildingBlock: AJUNOK_clean_linker_0, # of connection points: 2
#     Edge 54, Type (0, 1), BuildingBlock: AJUNOK_clean_linker_0, # of connection points: 2
#     Edge 55, Type (0, 1), BuildingBlock: AJUNOK_clean_linker_0, # of connection points: 2
#     Edge 56, Type (0, 1), BuildingBlock: AJUNOK_clean_linker_0, # of connection points: 2
#     Edge 57, Type (0, 1), BuildingBlock: AJUNOK_clean_linker_0, # of connection points: 2
#     Edge 58, Type (0, 1), BuildingBlock: AJUNOK_clean_linker_0, # of connection points: 2
#     Edge 59, Type (0, 1), BuildingBlock: AJUNOK_clean_linker_0, # of connection points: 2
#     Edge 60, Type (0, 1), BuildingBlock: AJUNOK_clean_linker_0, # of connection points: 2
#     Edge 61, Type (0, 1), BuildingBlock: AJUNOK_clean_linker_0, # of connection points: 2
#     Edge 62, Type (0, 1), BuildingBlock: AJUNOK_clean_linker_0, # of connection points: 2
#     Edge 63, Type (0, 1), BuildingBlock: AJUNOK_clean_linker_0, # of connection points: 2
#     Edge 64, Type (0, 1), BuildingBlock: AJUNOK_clean_linker_0, # of connection points: 2
#     Edge 65, Type (0, 1), BuildingBlock: AJUNOK_clean_linker_0, # of connection points: 2
#     Edge 66, Type (0, 1), BuildingBlock: AJUNOK_clean_linker_0, # of connection points: 2
#     Edge 67, Type (0, 1), BuildingBlock: AJUNOK_clean_linker_0, # of connection points: 2
#     Edge 68, Type (0, 1), BuildingBlock: AJUNOK_clean_linker_0, # of connection points: 2
#     Edge 69, Type (0, 1), BuildingBlock: AJUNOK_clean_linker_0, # of connection points: 2
#     Edge 70, Type (0, 1), BuildingBlock: AJUNOK_clean_linker_0, # of connection points: 2
#     Edge 71, Type (0, 1), BuildingBlock: AJUNOK_clean_linker_0, # of connection points: 2
#     Edge 72, Type (0, 1), BuildingBlock: AJUNOK_clean_linker_0, # of connection points: 2
#     Edge 73, Type (0, 1), BuildingBlock: AJUNOK_clean_linker_0, # of connection points: 2
#     Edge 74, Type (0, 1), BuildingBlock: AJUNOK_clean_linker_0, # of connection points: 2
#     Edge 75, Type (0, 1), BuildingBlock: AJUNOK_clean_linker_0, # of connection points: 2
#     Edge 76, Type (0, 1), BuildingBlock: AJUNOK_clean_linker_0, # of connection points: 2
#     Edge 77, Type (0, 1), BuildingBlock: AJUNOK_clean_linker_0, # of connection points: 2
#     Edge 78, Type (0, 1), BuildingBlock: AJUNOK_clean_linker_0, # of connection points: 2
#     Edge 79, Type (0, 1), BuildingBlock: AJUNOK_clean_linker_0, # of connection points: 2
#     Edge 80, Type (0, 1), BuildingBlock: AJUNOK_clean_linker_0, # of connection points: 2
#     Edge 81, Type (0, 1), BuildingBlock: AJUNOK_clean_linker_0, # of connection points: 2
#     Edge 82, Type (0, 1), BuildingBlock: AJUNOK_clean_linker_0, # of connection points: 2
#     Edge 83, Type (0, 1), BuildingBlock: AJUNOK_clean_linker_0, # of connection points: 2
#     Edge 84, Type (0, 1), BuildingBlock: AJUNOK_clean_linker_0, # of connection points: 2
#     Edge 85, Type (0, 1), BuildingBlock: AJUNOK_clean_linker_0, # of connection points: 2
#     Edge 86, Type (0, 1), BuildingBlock: AJUNOK_clean_linker_0, # of connection points: 2
#     Edge 87, Type (0, 1), BuildingBlock: AJUNOK_clean_linker_0, # of connection points: 2
#     Edge 88, Type (0, 1), BuildingBlock: AJUNOK_clean_linker_0, # of connection points: 2
#     Edge 89, Type (0, 1), BuildingBlock: AJUNOK_clean_linker_0, # of connection points: 2
#     Edge 90, Type (0, 1), BuildingBlock: AJUNOK_clean_linker_0, # of connection points: 2
#     Edge 91, Type (0, 1), BuildingBlock: AJUNOK_clean_linker_0, # of connection points: 2
#     Edge 92, Type (0, 1), BuildingBlock: AJUNOK_clean_linker_0, # of connection points: 2
#     Edge 93, Type (0, 1), BuildingBlock: AJUNOK_clean_linker_0, # of connection points: 2
#     Edge 94, Type (0, 1), BuildingBlock: AJUNOK_clean_linker_0, # of connection points: 2
#     Edge 95, Type (0, 1), BuildingBlock: AJUNOK_clean_linker_0, # of connection points: 2
#     Edge 96, Type (0, 1), BuildingBlock: AJUNOK_clean_linker_0, # of connection points: 2
#     Edge 97, Type (0, 1), BuildingBlock: AJUNOK_clean_linker_0, # of connection points: 2
#     Edge 98, Type (0, 1), BuildingBlock: AJUNOK_clean_linker_0, # of connection points: 2
#     Edge 99, Type (0, 1), BuildingBlock: AJUNOK_clean_linker_0, # of connection points: 2
#     Edge 100, Type (0, 1), BuildingBlock: AJUNOK_clean_linker_0, # of connection points: 2
#     Edge 101, Type (0, 1), BuildingBlock: AJUNOK_clean_linker_0, # of connection points: 2
#     Edge 102, Type (0, 1), BuildingBlock: AJUNOK_clean_linker_0, # of connection points: 2
#     Edge 103, Type (0, 1), BuildingBlock: AJUNOK_clean_linker_0, # of connection points: 2
#     Edge 104, Type (0, 1), BuildingBlock: AJUNOK_clean_linker_0, # of connection points: 2
#     Edge 105, Type (0, 1), BuildingBlock: AJUNOK_clean_linker_0, # of connection points: 2
#     Edge 106, Type (0, 1), BuildingBlock: AJUNOK_clean_linker_0, # of connection points: 2
#     Edge 107, Type (0, 1), BuildingBlock: AJUNOK_clean_linker_0, # of connection points: 2
#     Edge 108, Type (0, 1), BuildingBlock: AJUNOK_clean_linker_0, # of connection points: 2
#     Edge 109, Type (0, 1), BuildingBlock: AJUNOK_clean_linker_0, # of connection points: 2
#     Edge 110, Type (0, 1), BuildingBlock: AJUNOK_clean_linker_0, # of connection points: 2
#     Edge 111, Type (0, 1), BuildingBlock: AJUNOK_clean_linker_0, # of connection points: 2
#     Edge 112, Type (0, 1), BuildingBlock: AJUNOK_clean_linker_0, # of connection points: 2
#     Edge 113, Type (0, 1), BuildingBlock: AJUNOK_clean_linker_0, # of connection points: 2
#     Edge 114, Type (0, 1), BuildingBlock: AJUNOK_clean_linker_0, # of connection points: 2
#     Edge 115, Type (0, 1), BuildingBlock: AJUNOK_clean_linker_0, # of connection points: 2
#     Edge 116, Type (0, 1), BuildingBlock: AJUNOK_clean_linker_0, # of connection points: 2
#     Edge 117, Type (0, 1), BuildingBlock: AJUNOK_clean_linker_0, # of connection points: 2
#     Edge 118, Type (0, 1), BuildingBlock: AJUNOK_clean_linker_0, # of connection points: 2
#     Edge 119, Type (0, 1), BuildingBlock: AJUNOK_clean_linker_0, # of connection points: 2
#     Edge 120, Type (0, 1), BuildingBlock: AJUNOK_clean_linker_0, # of connection points: 2
#     Edge 121, Type (0, 1), BuildingBlock: AJUNOK_clean_linker_0, # of connection points: 2
#     Edge 122, Type (0, 1), BuildingBlock: AJUNOK_clean_linker_0, # of connection points: 2
#     Edge 123, Type (0, 1), BuildingBlock: AJUNOK_clean_linker_0, # of connection points: 2
#     Edge 124, Type (0, 1), BuildingBlock: AJUNOK_clean_linker_0, # of connection points: 2
#     Edge 125, Type (0, 1), BuildingBlock: AJUNOK_clean_linker_0, # of connection points: 2
#     Edge 126, Type (0, 1), BuildingBlock: AJUNOK_clean_linker_0, # of connection points: 2
#     Edge 127, Type (0, 1), BuildingBlock: AJUNOK_clean_linker_0, # of connection points: 2
#     Edge 128, Type (0, 1), BuildingBlock: AJUNOK_clean_linker_0, # of connection points: 2
#     Edge 129, Type (0, 1), BuildingBlock: AJUNOK_clean_linker_0, # of connection points: 2
#     Edge 130, Type (0, 1), BuildingBlock: AJUNOK_clean_linker_0, # of connection points: 2
#     Edge 131, Type (0, 1), BuildingBlock: AJUNOK_clean_linker_0, # of connection points: 2
#     Edge 132, Type (0, 1), BuildingBlock: AJUNOK_clean_linker_0, # of connection points: 2
#     Edge 133, Type (0, 1), BuildingBlock: AJUNOK_clean_linker_0, # of connection points: 2
#     Edge 134, Type (0, 1), BuildingBlock: AJUNOK_clean_linker_0, # of connection points: 2
#     Edge 135, Type (0, 1), BuildingBlock: AJUNOK_clean_linker_0, # of connection points: 2
# Relax obj value: 0.260
# Max RMSD: 0.354
# Mean RMSD: 0.193
data_MOF--net-gar--node1-QUQFOY_clean_sbu_1--node2-BETDAH_clean_sbu_0--edge1-AJUNOK_clean_linker_0
_symmetry_space_group_name_H-M    P1
_symmetry_Int_Tables_number       1
_symmetry_cell_setting            triclinic
loop_
_symmetry_equiv_pos_as_xyz
'x, y, z'
_cell_length_a     49.599805
_cell_length_b     43.745638
_cell_length_c     43.852802
_cell_angle_alpha  100.59843
_cell_angle_beta   96.216279
_cell_angle_gamma 106.24744
loop_
_atom_site_label
_atom_site_type_symbol
_atom_site_fract_x
_atom_site_fract_y
_atom_site_fract_z
_atom_type_partial_charge
O0 O 0.16121 0.32135 0.42931 0.0
Cd1 Cd 0.16703 0.34611 0.39404 0.0
Cd2 Cd 0.14548 0.39018 0.4377 0.0
O3 O 0.14065 0.35164 0.45892 0.0
O4 O 0.18051 0.31522 0.3656 0.0
O5 O 0.20518 0.36744 0.38271 0.0
C6 C 0.20273 0.33899 0.36596 0.0
C7 C 0.14297 0.43758 0.4702 0.0
C8 C 0.14845 0.32633 0.4524 0.0
C9 C 0.11464 0.36058 0.37079 0.0
O10 O 0.11868 0.38121 0.39645 0.0
O11 O 0.13072 0.34303 0.36562 0.0
O12 O 0.12179 0.41142 0.46201 0.0
O13 O 0.16671 0.43694 0.46114 0.0
O14 O 0.9994 0.69257 0.6706 0.0
Cd15 Cd 1.00424 0.73512 0.70309 0.0
Cd16 Cd 0.02083 0.75694 0.65527 0.0
O17 O 0.99079 0.71478 0.63175 0.0
O18 O 0.97816 0.73026 0.73356 0.0
O19 O 0.97918 0.76309 0.70014 0.0
C20 C 0.96906 0.75214 0.72342 0.0
C21 C 0.03666 0.79898 0.63021 0.0
C22 C 0.9951 0.69058 0.64115 0.0
C23 C 0.06348 0.7558 0.70773 0.0
O24 O 0.05588 0.75116 0.67839 0.0
O25 O 0.04539 0.75635 0.72594 0.0
O26 O 0.03929 0.77068 0.62059 0.0
O27 O 0.02286 0.80309 0.65315 0.0
O28 O 0.70333 0.85996 0.90646 0.0
Cd29 Cd 0.67295 0.86622 0.93488 0.0
Cd30 Cd 0.65635 0.88977 0.88579 0.0
O31 O 0.68805 0.87785 0.86629 0.0
O32 O 0.67942 0.84348 0.96877 0.0
O33 O 0.64047 0.8256 0.93261 0.0
C34 C 0.65514 0.82182 0.95705 0.0
C35 C 0.61154 0.86615 0.85779 0.0
C36 C 0.70459 0.86458 0.87874 0.0
C37 C 0.66195 0.93278 0.94666 0.0
O38 O 0.66061 0.93171 0.91749 0.0
O39 O 0.66695 0.90965 0.95781 0.0
O40 O 0.62932 0.89001 0.85005 0.0
O41 O 0.6198 0.85498 0.88125 0.0
O42 O 0.50539 0.17841 0.16585 0.0
Cd43 Cd 0.50626 0.21945 0.19836 0.0
Cd44 Cd 0.53171 0.24982 0.15805 0.0
O45 O 0.51189 0.20551 0.12864 0.0
O46 O 0.47488 0.21381 0.22236 0.0
O47 O 0.48562 0.25215 0.19471 0.0
C48 C 0.47094 0.23955 0.21453 0.0
C49 C 0.54584 0.29001 0.13111 0.0
C50 C 0.50897 0.17921 0.1378 0.0
C51 C 0.56548 0.24977 0.22014 0.0
O52 O 0.56481 0.25524 0.19277 0.0
O53 O 0.54298 0.23582 0.22943 0.0
O54 O 0.55577 0.26581 0.12802 0.0
O55 O 0.52699 0.29127 0.14895 0.0
O56 O 0.12528 0.78405 0.13574 0.0
Cd57 Cd 0.12669 0.82726 0.16214 0.0
Cd58 Cd 0.14988 0.84998 0.11441 0.0
O59 O 0.13404 0.79784 0.09129 0.0
O60 O 0.10309 0.8105 0.1931 0.0
O61 O 0.08938 0.83799 0.16036 0.0
C62 C 0.08373 0.82151 0.18167 0.0
C63 C 0.13348 0.89457 0.09611 0.0
C64 C 0.12726 0.77563 0.10717 0.0
C65 C 0.18908 0.85422 0.17809 0.0
O66 O 0.18795 0.85685 0.14915 0.0
O67 O 0.16612 0.84851 0.18948 0.0
O68 O 0.15125 0.88193 0.08304 0.0
O69 O 0.12494 0.88259 0.11954 0.0
O70 O 0.59195 0.79173 0.43627 0.0
Cd71 Cd 0.57124 0.78645 0.47499 0.0
Cd72 Cd 0.53121 0.81198 0.4146 0.0
O73 O 0.56796 0.80515 0.39677 0.0
O74 O 0.59636 0.76771 0.50295 0.0
O75 O 0.5523 0.73986 0.48219 0.0
C76 C 0.57595 0.74062 0.49839 0.0
C77 C 0.48705 0.81285 0.3831 0.0
C78 C 0.58981 0.79849 0.40913 0.0
C79 C 0.55592 0.85193 0.48692 0.0
O80 O 0.5435 0.84427 0.4583 0.0
O81 O 0.56703 0.83233 0.49859 0.0
O82 O 0.51075 0.8361 0.38747 0.0
O83 O 0.48838 0.78832 0.39505 0.0
O84 O 0.62864 0.27186 0.62905 0.0
Cd85 Cd 0.63345 0.3121 0.6628 0.0
Cd86 Cd 0.65956 0.34593 0.6204 0.0
O87 O 0.64544 0.29633 0.59214 0.0
O88 O 0.60694 0.29292 0.69043 0.0
O89 O 0.59871 0.32811 0.66341 0.0
C90 C 0.59008 0.30834 0.68135 0.0
C91 C 0.64121 0.38955 0.60311 0.0
C92 C 0.63448 0.27017 0.60159 0.0
C93 C 0.69785 0.34094 0.6818 0.0
O94 O 0.69735 0.35146 0.65602 0.0
O95 O 0.67413 0.32792 0.69004 0.0
O96 O 0.66125 0.38025 0.59146 0.0
O97 O 0.63198 0.37535 0.62503 0.0
O98 O 0.04958 0.2333 0.94592 0.0
Cd99 Cd 0.04741 0.26872 0.91782 0.0
Cd100 Cd 0.02593 0.29613 0.97183 0.0
O101 O 0.03803 0.25661 0.98949 0.0
O102 O 0.07015 0.25801 0.88431 0.0
O103 O 0.08658 0.30272 0.9217 0.0
C104 C 0.09086 0.28401 0.89749 0.0
C105 C 0.04366 0.35225 1.00136 0.0
C106 C 0.04705 0.23402 0.9748 0.0
C107 C 0.98905 0.2846 0.90497 0.0
O108 O 0.99049 0.28993 0.93498 0.0
O109 O 1.00958 0.27666 0.8935 0.0
O110 O 0.02166 0.33159 1.00716 0.0
O111 O 0.05669 0.34096 0.98011 0.0
O112 O 0.45586 0.02411 0.27055 0.0
Cd113 Cd 0.44209 0.03824 0.31012 0.0
Cd114 Cd 0.51344 0.02764 0.33272 0.0
O115 O 0.49593 0.04981 0.30266 0.0
O116 O 0.40437 0.04236 0.3047 0.0
O117 O 0.44551 0.08364 0.31304 0.0
C118 C 0.41801 0.07258 0.30547 0.0
C119 C 0.54092 0.04826 0.37937 0.0
C120 C 0.48269 0.03133 0.27637 0.0
C121 C 0.46103 0.99616 0.34083 0.0
O122 O 0.4838 0.98879 0.33905 0.0
O123 O 0.46255 0.02618 0.34657 0.0
O124 O 0.55094 0.03438 0.35647 0.0
O125 O 0.51795 0.05577 0.37346 0.0
O126 O 0.32721 0.2208 0.5727 0.0
Cd127 Cd 0.32368 0.18514 0.53465 0.0
Cd128 Cd 0.30002 0.23127 0.50625 0.0
O129 O 0.31329 0.25926 0.55574 0.0
O130 O 0.34427 0.16025 0.55795 0.0
O131 O 0.35915 0.17945 0.51777 0.0
C132 C 0.3634 0.16525 0.54034 0.0
C133 C 0.31212 0.2505 0.45694 0.0
C134 C 0.32207 0.24781 0.57873 0.0
C135 C 0.25971 0.16299 0.51274 0.0
O136 O 0.26259 0.19048 0.50464 0.0
O137 O 0.28173 0.15522 0.52196 0.0
O138 O 0.29458 0.2599 0.47342 0.0
O139 O 0.32347 0.23077 0.46822 0.0
O140 O 0.19632 0.02513 0.73132 0.0
Cd141 Cd 0.23433 0.02326 0.76309 0.0
Cd142 Cd 0.18664 0.06401 0.81129 0.0
O143 O 0.16759 0.04787 0.759 0.0
O144 O 0.25983 0.99276 0.74097 0.0
O145 O 0.2422 0.98125 0.78115 0.0
C146 C 0.25714 0.97324 0.76026 0.0
C147 C 0.1615 0.06111 0.86257 0.0
C148 C 0.1744 0.03627 0.73205 0.0
C149 C 0.24981 0.10426 0.79613 0.0
O150 O 0.22748 0.10147 0.80999 0.0
O151 O 0.25504 0.07828 0.78077 0.0
O152 O 0.16041 0.08151 0.84473 0.0
O153 O 0.17592 0.0421 0.85188 0.0
O154 O 0.36827 0.96319 0.05928 0.0
Cd155 Cd 0.35996 0.98885 0.02798 0.0
Cd156 Cd 0.35649 0.92942 0.99425 0.0
O157 O 0.34331 0.91393 0.03223 0.0
O158 O 0.34818 0.02419 0.05296 0.0
O159 O 0.31881 0.98401 0.01514 0.0
C160 C 0.32262 1.009 0.03798 0.0
C161 C 0.34956 0.89425 0.9459 0.0
C162 C 0.35856 0.93285 0.05739 0.0
C163 C 0.41087 0.98615 1.0086 0.0
O164 O 0.39768 0.95609 1.00392 0.0
O165 O 0.39744 1.00716 1.01183 0.0
O166 O 0.36261 0.88923 0.97049 0.0
O167 O 0.33799 0.91739 0.94935 0.0
O168 O 0.36552 0.40357 0.11559 0.0
Cd169 Cd 0.36952 0.43029 0.07975 0.0
Cd170 Cd 0.38521 0.37744 0.04819 0.0
O171 O 0.36897 0.35797 0.08739 0.0
O172 O 0.34795 0.46311 0.08952 0.0
O173 O 0.33305 0.42157 0.04834 0.0
C174 C 0.3289 0.44678 0.06523 0.0
C175 C 0.36959 0.35597 0.99198 0.0
C176 C 0.36425 0.37364 0.11317 0.0
C177 C 0.43092 0.44339 0.06415 0.0
O178 O 0.42604 0.41245 0.05788 0.0
O179 O 0.41081 0.45517 0.07096 0.0
O180 O 0.3839 0.34257 1.00878 0.0
O181 O 0.36216 0.37976 1.00709 0.0
O182 O 0.83043 0.15869 0.1152 0.0
Cd183 Cd 0.81793 0.12678 0.07192 0.0
Cd184 Cd 0.81409 0.17717 0.0628 0.0
O185 O 0.85104 0.19722 0.09285 0.0
O186 O 0.83646 0.09306 0.06777 0.0
O187 O 0.84542 0.13386 0.0426 0.0
C188 C 0.85074 0.10822 0.04907 0.0
C189 C 0.80363 0.19377 0.0197 0.0
C190 C 0.84569 0.18796 0.11774 0.0
C191 C 0.76335 0.13155 0.0665 0.0
O192 O 0.77839 0.16029 0.07967 0.0
O193 O 0.77508 0.11078 0.05508 0.0
O194 O 0.80497 0.21185 0.04688 0.0
O195 O 0.8107 0.16724 0.01716 0.0
O196 O 0.20686 0.56076 0.21345 0.0
Cd197 Cd 0.23077 0.57209 0.25697 0.0
Cd198 Cd 0.18721 0.58692 0.26626 0.0
O199 O 0.17358 0.54164 0.23864 0.0
O200 O 0.26358 0.5578 0.25421 0.0
O201 O 0.22958 0.54018 0.28251 0.0
C202 C 0.25368 0.54033 0.27366 0.0
C203 C 0.18244 0.60119 0.31591 0.0
C204 C 0.18068 0.54727 0.21301 0.0
C205 C 0.23439 0.63672 0.26651 0.0
O206 O 0.20973 0.62502 0.25013 0.0
O207 O 0.24536 0.6188 0.27971 0.0
O208 O 0.16292 0.60113 0.29374 0.0
O209 O 0.20324 0.59015 0.30954 0.0
O210 O 0.86709 0.90795 0.62405 0.0
Cd211 Cd 0.87223 0.93439 0.58817 0.0
Cd212 Cd 0.88513 0.8823 0.55569 0.0
O213 O 0.86958 0.86212 0.59544 0.0
O214 O 0.84968 0.96566 0.59655 0.0
O215 O 0.83693 0.92517 0.55466 0.0
C216 C 0.83163 0.94972 0.57133 0.0
C217 C 0.86973 0.85896 0.49986 0.0
C218 C 0.86494 0.87777 0.62135 0.0
C219 C 0.9321 0.94952 0.5715 0.0
O220 O 0.92546 0.91851 0.56223 0.0
O221 O 0.91356 0.96176 0.58233 0.0
O222 O 0.88699 0.84906 0.51693 0.0
O223 O 0.85885 0.87968 0.51472 0.0
O224 O 0.97882 0.0797 0.21843 0.0
Cd225 Cd 0.94405 0.0816 0.25051 0.0
Cd226 Cd 0.99948 0.05053 0.28746 0.0
O227 O 1.01383 0.06403 0.24238 0.0
O228 O 0.91141 0.10494 0.23654 0.0
O229 O 0.9432 0.13014 0.27687 0.0
C230 C 0.92096 0.13106 0.25899 0.0
C231 C 0.02748 0.05675 0.34178 0.0
C232 C 1.00323 0.07314 0.21806 0.0
C233 C 0.93235 1.00812 0.27279 0.0
O234 O 0.9592 1.01278 0.28046 0.0
O235 O 0.92376 0.0314 0.26354 0.0
O236 O 0.02597 0.03374 0.31787 0.0
O237 O 1.01536 0.07787 0.33503 0.0
O238 O 0.32882 0.66873 0.60005 0.0
Cd239 Cd 0.31682 0.62901 0.5625 0.0
Cd240 Cd 0.30764 0.6724 0.53901 0.0
O241 O 0.34026 0.70436 0.57068 0.0
O242 O 0.34054 0.60083 0.56803 0.0
O243 O 0.3416 0.62808 0.52973 0.0
C244 C 0.35175 0.60954 0.54444 0.0
C245 C 0.29132 0.68806 0.4948 0.0
C246 C 0.33935 0.69797 0.59762 0.0
C247 C 0.26191 0.6275 0.56144 0.0
O248 O 0.27403 0.65646 0.55997 0.0
O249 O 0.27388 0.6056 0.55481 0.0
O250 O 0.30173 0.66397 0.49157 0.0
O251 O 0.2923 0.70388 0.52275 0.0
O252 O 0.48135 0.58226 0.72362 0.0
Cd253 Cd 0.44442 0.58466 0.75183 0.0
Cd254 Cd 0.50089 0.55318 0.79505 0.0
O255 O 0.51485 0.56523 0.74932 0.0
O256 O 0.4131 0.60878 0.73443 0.0
O257 O 0.44198 0.63327 0.777 0.0
C258 C 0.4213 0.63481 0.75709 0.0
C259 C 0.52881 0.55637 0.84913 0.0
C260 C 0.50529 0.57455 0.72456 0.0
C261 C 0.43278 0.5117 0.77564 0.0
O262 O 0.45929 0.51823 0.78699 0.0
O263 O 0.42412 0.53334 0.76317 0.0
O264 O 0.52567 0.53326 0.82467 0.0
O265 O 0.51834 0.57901 0.84307 0.0
O266 O 0.72316 0.0693 0.70396 0.0
Cd267 Cd 0.74393 0.08791 0.74888 0.0
Cd268 Cd 0.672 0.10005 0.74846 0.0
O269 O 0.68993 0.06436 0.73301 0.0
O270 O 0.7789 0.0798 0.76499 0.0
O271 O 0.73537 0.05156 0.77024 0.0
C272 C 0.76254 0.057 0.77561 0.0
C273 C 0.66431 0.10472 0.80025 0.0
C274 C 0.69696 0.06218 0.70602 0.0
C275 C 0.7259 0.14438 0.76145 0.0
O276 O 0.70158 0.14342 0.74798 0.0
O277 O 0.72786 0.12074 0.77319 0.0
O278 O 0.64612 0.10927 0.77982 0.0
O279 O 0.68373 0.09387 0.79077 0.0
O280 O 0.82307 0.72721 0.0835 0.0
Cd281 Cd 0.82116 0.69001 0.04706 0.0
Cd282 Cd 0.79877 0.73566 1.01251 0.0
O283 O 0.81103 0.76434 0.06135 0.0
O284 O 0.84124 0.66574 0.07182 0.0
O285 O 0.85754 0.68528 0.03223 0.0
C286 C 0.86103 0.67112 0.05504 0.0
C287 C 0.81074 0.75504 0.96356 0.0
C288 C 0.81854 0.75458 0.08609 0.0
C289 C 0.75847 0.66722 0.01811 0.0
O290 O 0.76184 0.69482 1.01026 0.0
O291 O 0.77973 0.65954 0.0298 0.0
O292 O 0.79269 0.76384 0.97958 0.0
O293 O 0.82274 0.73601 0.97515 0.0
O294 O 0.96313 0.53868 0.7822 0.0
Cd295 Cd 0.94686 0.55362 0.81963 0.0
Cd296 Cd 1.00815 0.54287 0.84019 0.0
O297 O 1.00299 0.57097 0.81039 0.0
O298 O 0.90793 0.55173 0.80527 0.0
O299 O 0.94505 0.59761 0.82315 0.0
C300 C 0.91876 0.58308 0.8099 0.0
C301 C 0.03553 0.55391 0.88635 0.0
C302 C 0.98978 0.55041 0.7853 0.0
C303 C 0.95523 0.5051 0.84925 0.0
O304 O 0.97576 0.50229 0.8353 0.0
O305 O 0.95113 0.53265 0.85674 0.0
O306 O 0.04413 0.5414 0.86148 0.0
O307 O 1.01347 0.56408 0.88373 0.0
O308 O 0.87003 0.45966 0.566 0.0
Cd309 Cd 0.86023 0.48206 0.53224 0.0
Cd310 Cd 0.86738 0.4283 0.50436 0.0
O311 O 0.85123 0.4093 0.5392 0.0
O312 O 0.84902 0.51761 0.5569 0.0
O313 O 0.81892 0.47715 0.51995 0.0
C314 C 0.82346 0.50282 0.54213 0.0
C315 C 0.86103 0.39517 0.45587 0.0
C316 C 0.86308 0.42941 0.56499 0.0
C317 C 0.91503 0.49038 0.52121 0.0
O318 O 0.90696 0.45991 0.51909 0.0
O319 O 0.89701 0.5058 0.51844 0.0
O320 O 0.87706 0.39186 0.47928 0.0
O321 O 0.84794 0.41688 0.46006 0.0
O322 O 0.69861 0.52143 0.24064 0.0
Cd323 Cd 0.73723 0.52181 0.27385 0.0
Cd324 Cd 0.68973 0.562 0.32003 0.0
O325 O 0.67128 0.54664 0.26798 0.0
O326 O 0.7617 0.48967 0.25202 0.0
O327 O 0.74782 0.48282 0.29518 0.0
C328 C 0.76121 0.47274 0.27351 0.0
C329 C 0.6655 0.55871 0.37153 0.0
C330 C 0.67736 0.53379 0.24114 0.0
C331 C 0.75173 0.60332 0.30509 0.0
O332 O 0.72891 0.60042 0.31796 0.0
O333 O 0.75784 0.57726 0.29118 0.0
O334 O 0.66139 0.57651 0.35191 0.0
O335 O 0.6825 0.54238 0.36257 0.0
Ho336 Ho 0.06551 0.04793 0.0253 0.0
Ho337 Ho 0.10975 0.08438 0.06114 0.0
C338 C 0.07641 0.12667 0.02997 0.0
C339 C 1.01192 0.0247 1.0017 0.0
C340 C 0.98973 0.04061 1.00576 0.0
C341 C 0.99213 0.06406 0.03344 0.0
C342 C 0.97083 0.07882 0.03741 0.0
C343 C 0.94716 0.07059 1.01358 0.0
C344 C 0.94531 0.0483 0.98545 0.0
C345 C 0.96656 0.03342 0.98153 0.0
C346 C 0.1065 0.05377 0.98494 0.0
C347 C 0.09912 1.00523 0.05442 0.0
C348 C 0.16416 0.10395 0.08336 0.0
C349 C 0.18549 0.08599 0.08043 0.0
C350 C 0.18184 0.06028 0.0542 0.0
C351 C 0.20286 0.04482 0.05033 0.0
C352 C 0.22802 0.05463 0.07262 0.0
C353 C 0.23111 0.07945 0.09944 0.0
C354 C 0.21004 0.09491 0.10332 0.0
C355 C 0.06799 0.08067 0.10125 0.0
O356 O 0.05778 0.09707 0.0224 0.0
O357 O 0.10121 0.1295 0.04672 0.0
O358 O 0.03118 0.03786 0.98616 0.0
O359 O 0.02304 1.01792 0.02689 0.0
O360 O 0.08785 0.02688 0.98699 0.0
O361 O 0.10356 0.0764 1.00682 0.0
O362 O 0.11605 0.03516 0.06653 0.0
O363 O 0.07595 1.00231 0.03488 0.0
O364 O 0.14468 0.09429 0.10006 0.0
O365 O 0.15324 0.10945 0.05738 0.0
O366 O 0.08862 0.10658 0.10033 0.0
O367 O 0.07025 0.05747 0.0793 0.0
H368 H 1.01026 0.07061 0.05215 0.0
H369 H 0.97225 0.09563 0.05945 0.0
H370 H 0.92683 0.04142 0.96712 0.0
H371 H 0.96464 1.01581 0.95989 0.0
H372 H 0.16306 0.05273 0.03618 0.0
H373 H 0.19996 0.02619 0.02916 0.0
H374 H 0.25017 0.0874 0.11712 0.0
H375 H 0.21324 0.11437 0.12387 0.0
Ho376 Ho 0.34686 0.82164 0.25953 0.0
Ho377 Ho 0.32197 0.8368 0.30883 0.0
C378 C 0.3589 0.89574 0.29094 0.0
C379 C 0.37322 0.81759 0.21216 0.0
C380 C 0.38535 0.84215 0.19543 0.0
C381 C 0.37633 0.86997 0.1981 0.0
C382 C 0.38545 0.89208 0.1799 0.0
C383 C 0.40153 0.8848 0.15695 0.0
C384 C 0.41316 0.85908 0.15644 0.0
C385 C 0.40529 0.8378 0.1762 0.0
C386 C 0.37754 0.81455 0.3125 0.0
C387 C 0.30743 0.76336 0.27406 0.0
C388 C 0.29824 0.83492 0.35804 0.0
C389 C 0.28993 0.80754 0.3733 0.0
C390 C 0.30757 0.78773 0.37604 0.0
C391 C 0.29878 0.76036 0.38856 0.0
C392 C 0.27219 0.75228 0.39838 0.0
C393 C 0.25407 0.77132 0.39447 0.0
C394 C 0.26289 0.79879 0.38187 0.0
C395 C 0.29166 0.84551 0.25646 0.0
O396 O 0.35281 0.87479 0.26391 0.0
O397 O 0.35151 0.88602 0.316 0.0
O398 O 0.38571 0.8237 0.2411 0.0
O399 O 0.34553 0.80875 0.20933 0.0
O400 O 0.36744 0.7925 0.2867 0.0
O401 O 0.36788 0.83837 0.31034 0.0
O402 O 0.31426 0.78312 0.30187 0.0
O403 O 0.31466 0.77422 0.24965 0.0
O404 O 0.28398 0.82957 0.32992 0.0
O405 O 0.32554 0.84831 0.35952 0.0
O406 O 0.2992 0.86526 0.28388 0.0
O407 O 0.3014 0.82152 0.25765 0.0
H408 H 0.36037 0.87329 0.212 0.0
H409 H 0.376 0.91167 0.18003 0.0
H410 H 0.42551 0.85338 0.13851 0.0
H411 H 0.41281 0.81667 0.17459 0.0
H412 H 0.32828 0.79352 0.36879 0.0
H413 H 0.31347 0.74657 0.39217 0.0
H414 H 0.23364 0.76564 0.40233 0.0
H415 H 0.24875 0.81336 0.37903 0.0
Ho416 Ho 0.62943 0.06285 0.55364 0.0
Ho417 Ho 0.56839 0.05978 0.56618 0.0
C418 C 0.58156 0.99146 0.54724 0.0
C419 C 0.67976 0.05669 0.55284 0.0
C420 C 0.694 0.03084 0.54904 0.0
C421 C 0.69709 1.01408 0.57299 0.0
C422 C 0.71538 0.99484 0.57218 0.0
C423 C 0.73083 0.99174 0.54737 0.0
C424 C 0.72589 1.00606 0.52202 0.0
C425 C 0.70769 0.02557 0.52291 0.0
C426 C 0.59317 0.06265 0.50475 0.0
C427 C 0.61399 0.13021 0.56449 0.0
C428 C 0.51836 0.06463 0.57254 0.0
C429 C 0.50244 0.08857 0.57436 0.0
C430 C 0.5068 0.11236 0.55631 0.0
C431 C 0.48774 0.13049 0.55394 0.0
C432 C 0.46406 0.12505 0.56958 0.0
C433 C 0.4616 0.10365 0.59016 0.0
C434 C 0.48059 0.08551 0.59243 0.0
C435 C 0.60739 0.06435 0.61505 0.0
O436 O 0.60902 1.00875 0.55302 0.0
O437 O 0.56133 1.00594 0.54788 0.0
O438 O 0.66357 0.05826 0.52794 0.0
O439 O 0.66925 0.06245 0.57872 0.0
O440 O 0.62025 0.07775 0.50924 0.0
O441 O 0.58688 0.04581 0.52474 0.0
O442 O 0.58683 0.11196 0.56037 0.0
O443 O 0.63508 0.11703 0.56677 0.0
O444 O 0.53833 0.06899 0.59633 0.0
O445 O 0.52551 0.055 0.54537 0.0
O446 O 0.58153 0.04493 0.61057 0.0
O447 O 0.61096 0.07934 0.59358 0.0
H448 H 0.68671 1.01729 0.59333 0.0
H449 H 0.71888 0.98403 0.592 0.0
H450 H 0.73772 1.00425 0.50275 0.0
H451 H 0.70566 0.03809 0.50405 0.0
H452 H 0.52414 0.1159 0.543 0.0
H453 H 0.49081 0.1477 0.5388 0.0
H454 H 0.44385 0.0992 0.60285 0.0
H455 H 0.47723 0.06773 0.60701 0.0
Ho456 Ho 0.31464 0.31874 0.78503 0.0
Ho457 Ho 0.36637 0.29664 0.78505 0.0
C458 C 0.35237 0.32303 0.85277 0.0
C459 C 0.26419 0.32239 0.79187 0.0
C460 C 0.24384 0.31829 0.81439 0.0
C461 C 0.23554 0.29003 0.8264 0.0
C462 C 0.21388 0.28599 0.84487 0.0
C463 C 0.20026 0.31015 0.85173 0.0
C464 C 0.21013 0.33931 0.84166 0.0
C465 C 0.23158 0.34325 0.82309 0.0
C466 C 0.35783 0.37428 0.78066 0.0
C467 C 0.32987 0.29222 0.7169 0.0
C468 C 0.41731 0.29411 0.77914 0.0
C469 C 0.4346 0.28897 0.75422 0.0
C470 C 0.44408 0.31257 0.73664 0.0
C471 C 0.4654 0.31065 0.71851 0.0
C472 C 0.47766 0.28525 0.7178 0.0
C473 C 0.46573 0.25969 0.73231 0.0
C474 C 0.44461 0.2617 0.75059 0.0
C475 C 0.32243 0.24113 0.7887 0.0
O476 O 0.32788 0.3229 0.83738 0.0
O477 O 0.37227 0.31615 0.83759 0.0
O478 O 0.28751 0.34683 0.80158 0.0
O479 O 0.26857 0.29649 0.77549 0.0
O480 O 0.33109 0.37117 0.77972 0.0
O481 O 0.36038 0.34576 0.78228 0.0
O482 O 0.35245 0.28833 0.7327 0.0
O483 O 0.31092 0.30247 0.73169 0.0
O484 O 0.39644 0.26905 0.78092 0.0
O485 O 0.41076 0.32129 0.78453 0.0
O486 O 0.34888 0.24333 0.78815 0.0
O487 O 0.32041 0.26984 0.78734 0.0
H488 H 0.24502 0.27065 0.82065 0.0
H489 H 0.20684 0.26337 0.85263 0.0
H490 H 0.20002 0.35825 0.84646 0.0
H491 H 0.23786 0.36544 0.81445 0.0
H492 H 0.43639 0.33358 0.73842 0.0
H493 H 0.47391 0.33047 0.70722 0.0
H494 H 0.4742 0.2393 0.7314 0.0
H495 H 0.4374 0.24289 0.76347 0.0
Ho496 Ho 0.0909 0.08596 0.55362 0.0
Ho497 Ho 0.10093 0.02962 0.53175 0.0
C498 C 0.07514 0.05775 0.47602 0.0
C499 C 0.08763 0.14498 0.56481 0.0
C500 C 0.09219 0.17005 0.54615 0.0
C501 C 0.1013 0.16403 0.51712 0.0
C502 C 0.10828 0.18864 0.50055 0.0
C503 C 0.10654 0.21978 0.51292 0.0
C504 C 0.09558 0.2252 0.54099 0.0
C505 C 0.08852 0.20044 0.55759 0.0
C506 C 0.04718 0.03543 0.56335 0.0
C507 C 0.11816 0.05396 0.60652 0.0
C508 C 0.10128 0.97075 0.51388 0.0
C509 C 0.09738 0.94797 0.53468 0.0
C510 C 0.0784 0.94925 0.5561 0.0
C511 C 0.07455 0.92819 0.57638 0.0
C512 C 0.09021 0.90606 0.5762 0.0
C513 C 0.11141 0.90719 0.55717 0.0
C514 C 0.11472 0.92782 0.53615 0.0
C515 C 0.1494 0.0814 0.53671 0.0
O516 O 0.07544 0.08122 0.50031 0.0
O517 O 0.08495 0.03392 0.48209 0.0
O518 O 0.06571 0.11913 0.55329 0.0
O519 O 0.11035 0.1375 0.57444 0.0
O520 O 0.05971 0.06282 0.58336 0.0
O521 O 0.05887 0.03596 0.53903 0.0
O522 O 0.10521 0.02754 0.58411 0.0
O523 O 0.11953 0.08232 0.59847 0.0
O524 O 0.12462 0.99515 0.5225 0.0
O525 O 0.07914 0.97996 0.50618 0.0
O526 O 0.14816 0.05569 0.5476 0.0
O527 O 0.12424 0.07941 0.52525 0.0
H528 H 0.10378 0.14058 0.50774 0.0
H529 H 0.11577 0.18372 0.47846 0.0
H530 H 0.09367 0.24897 0.55074 0.0
H531 H 0.08104 0.20532 0.57974 0.0
H532 H 0.06618 0.96625 0.55697 0.0
H533 H 0.05825 0.92811 0.59097 0.0
H534 H 0.12448 0.8911 0.55755 0.0
H535 H 0.13057 0.92788 0.52098 0.0
Ho536 Ho 0.36656 0.82877 0.7638 0.0
Ho537 Ho 0.31243 0.7814 0.76529 0.0
C538 C 0.36653 0.75032 0.76625 0.0
C539 C 0.41806 0.86684 0.77963 0.0
C540 C 0.44585 0.86216 0.78741 0.0
C541 C 0.46092 0.87587 0.81806 0.0
C542 C 0.48626 0.86996 0.82735 0.0
C543 C 0.49704 0.85035 0.80605 0.0
C544 C 0.48239 0.83711 0.77511 0.0
C545 C 0.45672 0.84275 0.76584 0.0
C546 C 0.33912 0.79227 0.70693 0.0
C547 C 0.31227 0.85889 0.75888 0.0
C548 C 0.26024 0.74573 0.75411 0.0
C549 C 0.23357 0.75414 0.75196 0.0
C550 C 0.22657 0.77043 0.72893 0.0
C551 C 0.20052 0.77653 0.72584 0.0
C552 C 0.1811 0.7665 0.74571 0.0
C553 C 0.18873 0.75213 0.76999 0.0
C554 C 0.21487 0.74595 0.77308 0.0
C555 C 0.34126 0.81656 0.8221 0.0
O556 O 0.38172 0.78237 0.7708 0.0
O557 O 0.33805 0.74342 0.76143 0.0
O558 O 0.40512 0.85634 0.75031 0.0
O559 O 0.40103 0.85991 0.79985 0.0
O560 O 0.35255 0.82334 0.71201 0.0
O561 O 0.34156 0.78302 0.73215 0.0
O562 O 0.29725 0.82714 0.7562 0.0
O563 O 0.34068 0.86602 0.76347 0.0
O564 O 0.27578 0.75414 0.78216 0.0
O565 O 0.27526 0.75158 0.73184 0.0
O566 O 0.32841 0.78536 0.81639 0.0
O567 O 0.33763 0.82683 0.79757 0.0
H568 H 0.45287 0.89092 0.835 0.0
H569 H 0.49771 0.88119 0.85108 0.0
H570 H 0.49073 0.82232 0.75829 0.0
H571 H 0.44537 0.83175 0.74206 0.0
H572 H 0.24078 0.77768 0.71265 0.0
H573 H 0.19494 0.78768 0.70696 0.0
H574 H 0.17384 0.74388 0.7853 0.0
H575 H 0.22009 0.73383 0.79129 0.0
Ho576 Ho 0.59266 0.04533 0.07375 0.0
Ho577 Ho 0.58578 0.07202 0.01953 0.0
C578 C 0.53281 1.01939 0.02564 0.0
C579 C 0.58888 0.02035 0.12201 0.0
C580 C 0.5656 1.00473 0.1365 0.0
C581 C 0.54191 1.0161 0.13804 0.0
C582 C 0.52273 1.00487 0.15725 0.0
C583 C 0.5276 0.98275 0.17503 0.0
C584 C 0.54879 0.96804 0.16986 0.0
C585 C 0.56792 0.97916 0.15053 0.0
C586 C 0.6189 0.02169 0.02864 0.0
C587 C 0.64483 0.09916 0.06679 0.0
C588 C 0.59436 0.1005 0.97421 0.0
C589 C 0.6212 0.11474 0.96438 0.0
C590 C 0.64234 0.09903 0.96421 0.0
C591 C 0.66492 0.10907 0.9484 0.0
C592 C 0.66552 0.13399 0.93228 0.0
C593 C 0.64864 0.1544 0.93929 0.0
C594 C 0.62566 0.14403 0.95442 0.0
C595 C 0.56031 0.0947 0.0657 0.0
O596 O 0.54561 0.02474 0.05497 0.0
O597 O 0.54626 0.0311 1.0042 0.0
O598 O 0.58974 1.0039 0.09438 0.0
O599 O 0.59371 0.05166 0.1237 0.0
O600 O 0.62886 0.02993 0.05832 0.0
O601 O 0.59461 0.02586 0.02366 0.0
O602 O 0.63226 0.0918 0.03742 0.0
O603 O 0.63184 0.0874 0.08845 0.0
O604 O 0.5917 0.11565 1.00167 0.0
O605 O 0.58595 0.0686 0.96995 0.0
O606 O 0.54966 0.0873 0.03621 0.0
O607 O 0.58484 0.09141 0.06961 0.0
H608 H 0.53954 0.03536 0.12656 0.0
H609 H 0.50655 1.01671 0.16153 0.0
H610 H 0.55269 0.95115 0.18373 0.0
H611 H 0.58582 0.96972 0.14861 0.0
H612 H 0.64 0.07729 0.97349 0.0
H613 H 0.67839 0.09362 0.94384 0.0
H614 H 0.64941 0.17425 0.92748 0.0
H615 H 0.61014 0.1572 0.95582 0.0
Ho616 Ho 0.35643 0.34006 0.29907 0.0
Ho617 Ho 0.32031 0.26946 0.26155 0.0
C618 C 0.28706 0.31516 0.29222 0.0
C619 C 0.37373 0.40241 0.31157 0.0
C620 C 0.35448 0.42215 0.31071 0.0
C621 C 0.3294 0.41038 0.28824 0.0
C622 C 0.30996 0.42765 0.28799 0.0
C623 C 0.31559 0.45726 0.30977 0.0
C624 C 0.33972 0.46831 0.33339 0.0
C625 C 0.35911 0.45057 0.33398 0.0
C626 C 0.34488 0.30138 0.34249 0.0
C627 C 0.38944 0.29196 0.27287 0.0
C628 C 0.30162 0.20723 0.24447 0.0
C629 C 0.3188 0.18614 0.25 0.0
C630 C 0.34008 0.19653 0.27681 0.0
C631 C 0.35917 0.17927 0.28083 0.0
C632 C 0.35706 0.15132 0.25827 0.0
C633 C 0.33663 0.14138 0.23084 0.0
C634 C 0.31761 0.15905 0.22655 0.0
C635 C 0.33142 0.30973 0.21945 0.0
O636 O 0.31081 0.33993 0.29759 0.0
O637 O 0.28496 0.28516 0.27805 0.0
O638 O 0.37146 0.38594 0.3336 0.0
O639 O 0.37459 0.38482 0.28433 0.0
O640 O 0.36144 0.33129 0.34842 0.0
O641 O 0.33764 0.29253 0.31233 0.0
O642 O 0.36534 0.26822 0.26982 0.0
O643 O 0.39177 0.32304 0.28277 0.0
O644 O 0.31109 0.22562 0.22531 0.0
O645 O 0.29538 0.22336 0.2696 0.0
O646 O 0.31541 0.27967 0.21246 0.0
O647 O 0.33834 0.31692 0.24937 0.0
H648 H 0.32497 0.38809 0.27041 0.0
H649 H 0.29138 0.41899 0.26956 0.0
H650 H 0.34432 0.49142 0.35011 0.0
H651 H 0.37791 0.4593 0.35206 0.0
H652 H 0.34204 0.21805 0.29472 0.0
H653 H 0.37475 0.18681 0.30227 0.0
H654 H 0.33474 0.11941 0.21353 0.0
H655 H 0.30199 0.15161 0.20518 0.0
Ho656 Ho 0.59385 0.58079 0.06035 0.0
Ho657 Ho 0.60662 0.52466 0.03467 0.0
C658 C 0.57659 0.55231 0.98265 0.0
C659 C 0.5936 0.64089 0.07068 0.0
C660 C 0.60088 0.66567 0.05191 0.0
C661 C 0.61769 0.66221 0.02851 0.0
C662 C 0.62452 0.6857 1.01062 0.0
C663 C 0.61393 0.71248 0.01522 0.0
C664 C 0.59561 0.71483 0.03719 0.0
C665 C 0.58924 0.69161 0.05558 0.0
C666 C 0.54528 0.53272 0.06214 0.0
C667 C 0.62179 0.54904 0.11325 0.0
C668 C 0.61459 0.46849 0.02284 0.0
C669 C 0.60836 0.44343 0.04105 0.0
C670 C 0.58553 0.4406 0.0578 0.0
C671 C 0.5794 0.41694 0.07533 0.0
C672 C 0.5962 0.39618 0.07655 0.0
C673 C 0.61978 0.39983 0.06107 0.0
C674 C 0.62595 0.42362 0.04341 0.0
C675 C 0.64662 0.5787 0.02663 0.0
O676 O 0.58517 0.57862 1.00634 0.0
O677 O 0.5791 0.52481 0.9892 0.0
O678 O 0.57132 0.61613 0.05752 0.0
O679 O 0.6145 0.63185 0.08304 0.0
O680 O 0.55101 0.56335 0.07445 0.0
O681 O 0.56668 0.52736 0.05113 0.0
O682 O 0.61796 0.52523 0.08783 0.0
O683 O 0.61469 0.57543 0.10879 0.0
O684 O 0.6348 0.4951 0.03722 0.0
O685 O 0.59231 0.47429 1.00932 0.0
O686 O 0.63536 0.5518 1.0057 0.0
O687 O 0.6358 0.57573 0.05133 0.0
H688 H 0.6256 0.64142 0.02413 0.0
H689 H 0.63836 0.6832 0.99344 0.0
H690 H 0.58713 0.73526 0.04096 0.0
H691 H 0.57543 0.69401 0.07279 0.0
H692 H 0.57219 0.45636 0.05697 0.0
H693 H 0.561 0.41407 0.08708 0.0
H694 H 0.63276 0.38368 0.06188 0.0
H695 H 0.64407 0.42624 0.03125 0.0
Ho696 Ho 0.86905 0.32558 0.27535 0.0
Ho697 Ho 0.81372 0.27941 0.27683 0.0
C698 C 0.86692 0.24641 0.27549 0.0
C699 C 0.92162 0.36095 0.29068 0.0
C700 C 0.94893 0.35455 0.29784 0.0
C701 C 0.96037 0.35751 0.32936 0.0
C702 C 0.98661 0.35286 0.33695 0.0
C703 C 1.00208 0.3454 0.31323 0.0
C704 C 0.99045 0.34152 0.28162 0.0
C705 C 0.96402 0.34614 0.27395 0.0
C706 C 0.8409 0.28927 0.21859 0.0
C707 C 0.81576 0.35796 0.27289 0.0
C708 C 0.76121 0.24405 0.26277 0.0
C709 C 0.73342 0.24966 0.26279 0.0
C710 C 0.71956 0.25449 0.2352 0.0
C711 C 0.69293 0.25897 0.2343 0.0
C712 C 0.67961 0.25818 0.26076 0.0
C713 C 0.6932 0.25356 0.28842 0.0
C714 C 0.72017 0.24949 0.28954 0.0
C715 C 0.84305 0.31089 0.3341 0.0
O716 O 0.88287 0.27813 0.28039 0.0
O717 O 0.83851 0.24054 0.27137 0.0
O718 O 0.90829 0.35138 0.26151 0.0
O719 O 0.90445 0.35498 0.31088 0.0
O720 O 0.8557 0.31992 0.22321 0.0
O721 O 0.8428 0.28047 0.24403 0.0
O722 O 0.8001 0.3268 0.27147 0.0
O723 O 0.84407 0.36398 0.27547 0.0
O724 O 0.77689 0.24775 0.29004 0.0
O725 O 0.7759 0.25675 0.2427 0.0
O726 O 0.82776 0.28039 0.32712 0.0
O727 O 0.84085 0.32329 0.31053 0.0
H728 H 0.9493 0.36405 0.34833 0.0
H729 H 0.99528 0.35629 0.36155 0.0
H730 H 1.00197 0.33539 0.26297 0.0
H731 H 0.95565 0.34357 0.24944 0.0
H732 H 0.72906 0.25429 0.21408 0.0
H733 H 0.68225 0.26187 0.21259 0.0
H734 H 0.68272 0.25245 0.3088 0.0
H735 H 0.73032 0.24563 0.31102 0.0
Ho736 Ho 0.09731 0.57617 0.59291 0.0
Ho737 Ho 0.08528 0.59211 0.53202 0.0
C738 C 0.03645 0.53992 0.54707 0.0
C739 C 0.09598 0.55869 0.64543 0.0
C740 C 0.07425 0.53658 0.65766 0.0
C741 C 0.04738 0.54076 0.65902 0.0
C742 C 0.02902 0.52247 0.67538 0.0
C743 C 0.03805 0.50105 0.69136 0.0
C744 C 0.06272 0.49321 0.68568 0.0
C745 C 0.08089 0.51108 0.66886 0.0
C746 C 0.11834 0.54442 0.5476 0.0
C747 C 0.14816 0.6227 0.57413 0.0
C748 C 0.08805 0.61043 0.48002 0.0
C749 C 0.11327 0.62528 0.46758 0.0
C750 C 0.13891 0.61917 0.47665 0.0
C751 C 0.16214 0.62995 0.46214 0.0
C752 C 0.15876 0.6443 0.4366 0.0
C753 C 0.13487 0.65496 0.43091 0.0
C754 C 0.11195 0.64524 0.44639 0.0
C755 C 0.06046 0.61879 0.57591 0.0
O756 O 0.05028 0.55034 0.57635 0.0
O757 O 0.04868 0.54785 0.52338 0.0
O758 O 0.10522 0.5442 0.62202 0.0
O759 O 0.09199 0.58623 0.64162 0.0
O760 O 0.13134 0.55661 0.57622 0.0
O761 O 0.09421 0.54894 0.54427 0.0
O762 O 0.13207 0.61387 0.54632 0.0
O763 O 0.13727 0.61719 0.59932 0.0
O764 O 0.08453 0.62869 0.50538 0.0
O765 O 0.08419 0.58 0.4819 0.0
O766 O 0.04888 0.60689 0.54678 0.0
O767 O 0.08592 0.61804 0.58073 0.0
H768 H 0.0414 0.55956 0.64953 0.0
H769 H 1.00999 0.52895 0.6798 0.0
H770 H 0.06983 0.47673 0.69787 0.0
H771 H 0.10118 0.5068 0.66683 0.0
H772 H 0.14016 0.60338 0.49255 0.0
H773 H 0.18045 0.62153 0.4667 0.0
H774 H 0.13213 0.66636 0.41132 0.0
H775 H 0.0925 0.65093 0.43993 0.0
Ho776 Ho 0.81233 0.81766 0.29182 0.0
Ho777 Ho 0.86404 0.79857 0.292 0.0
C778 C 0.85038 0.8252 0.35999 0.0
C779 C 0.76057 0.81869 0.29668 0.0
C780 C 0.7393 0.81696 0.31838 0.0
C781 C 0.73134 0.79164 0.33446 0.0
C782 C 0.70913 0.78993 0.35229 0.0
C783 C 0.69442 0.81344 0.3544 0.0
C784 C 0.7033 0.83923 0.33912 0.0
C785 C 0.72542 0.84099 0.32157 0.0
C786 C 0.85406 0.87473 0.28637 0.0
C787 C 0.82861 0.7945 0.22358 0.0
C788 C 0.915 0.79617 0.28685 0.0
C789 C 0.93282 0.7941 0.26217 0.0
C790 C 0.94079 0.81878 0.24544 0.0
C791 C 0.96124 0.81823 0.22586 0.0
C792 C 0.97396 0.79315 0.22299 0.0
C793 C 0.96392 0.76693 0.23726 0.0
C794 C 0.94357 0.76747 0.25677 0.0
C795 C 0.82337 0.74114 0.29659 0.0
O796 O 0.82566 0.82428 0.34452 0.0
O797 O 0.87007 0.81837 0.34442 0.0
O798 O 0.78292 0.84445 0.30402 0.0
O799 O 0.76665 0.79233 0.28441 0.0
O800 O 0.82732 0.87055 0.28705 0.0
O801 O 0.85769 0.84687 0.28843 0.0
O802 O 0.85202 0.79313 0.23985 0.0
O803 O 0.8082 0.80104 0.23835 0.0
O804 O 0.89316 0.77057 0.2842 0.0
O805 O 0.90929 0.82345 0.29621 0.0
O806 O 0.85015 0.74627 0.29629 0.0
O807 O 0.81852 0.76863 0.29487 0.0
H808 H 0.74181 0.77287 0.33274 0.0
H809 H 0.70313 0.76988 0.36398 0.0
H810 H 0.6923 0.85741 0.33944 0.0
H811 H 0.73108 0.86078 0.30947 0.0
H812 H 0.93236 0.83926 0.24866 0.0
H813 H 0.9687 0.83866 0.21498 0.0
H814 H 0.97336 0.74726 0.23517 0.0
H815 H 0.9374 0.7479 0.26903 0.0
Ho816 Ho 0.86281 0.31648 0.77061 0.0
Ho817 Ho 0.8301 0.31816 0.80999 0.0
C818 C 0.86943 0.38381 0.81232 0.0
C819 C 0.89687 0.32475 0.73026 0.0
C820 C 0.90154 0.34571 0.7084 0.0
C821 C 0.88535 0.36708 0.70693 0.0
C822 C 0.88906 0.38664 0.6854 0.0
C823 C 0.90861 0.3845 0.66493 0.0
C824 C 0.92551 0.36393 0.66709 0.0
C825 C 0.92211 0.34464 0.68917 0.0
C826 C 0.88935 0.29867 0.82055 0.0
C827 C 0.8232 0.25127 0.76951 0.0
C828 C 0.79519 0.30976 0.84961 0.0
C829 C 0.78992 0.28879 0.87159 0.0
C830 C 0.79835 0.26053 0.86709 0.0
C831 C 0.79665 0.24245 0.88991 0.0
C832 C 0.78687 0.25276 0.91751 0.0
C833 C 0.77695 0.27999 0.9214 0.0
C834 C 0.77857 0.29815 0.89836 0.0
C835 C 0.80498 0.33602 0.75864 0.0
O836 O 0.86679 0.36971 0.78275 0.0
O837 O 0.8602 0.36602 0.83178 0.0
O838 O 0.90343 0.34046 0.75953 0.0
O839 O 0.87221 0.30225 0.72412 0.0
O840 O 0.88472 0.28424 0.79128 0.0
O841 O 0.87675 0.32084 0.82302 0.0
O842 O 0.82838 0.26596 0.79911 0.0
O843 O 0.8306 0.26894 0.74934 0.0
O844 O 0.78886 0.29456 0.82014 0.0
O845 O 0.82001 0.33195 0.85626 0.0
O846 O 0.80993 0.35117 0.78774 0.0
O847 O 0.81628 0.31295 0.75768 0.0
H848 H 0.86929 0.36785 0.72169 0.0
H849 H 0.87527 0.40176 0.68322 0.0
H850 H 0.9402 0.36176 0.65086 0.0
H851 H 0.93476 0.32821 0.69055 0.0
H852 H 0.8072 0.25304 0.84657 0.0
H853 H 0.80427 0.22133 0.88675 0.0
H854 H 0.76953 0.28814 0.94287 0.0
H855 H 0.77213 0.32008 0.90196 0.0
Ho856 Ho 0.85284 0.8478 0.80669 0.0
Ho857 Ho 0.81455 0.77708 0.77146 0.0
C858 C 0.78384 0.82475 0.80512 0.0
C859 C 0.86909 0.9098 0.81617 0.0
C860 C 0.84964 0.92954 0.81675 0.0
C861 C 0.82663 0.92197 0.79193 0.0
C862 C 0.80802 0.9405 0.79269 0.0
C863 C 0.812 0.96658 0.81835 0.0
C864 C 0.83316 0.97208 0.84445 0.0
C865 C 0.85209 0.95382 0.84351 0.0
C866 C 0.84321 0.81033 0.8512 0.0
C867 C 0.88418 0.79914 0.77933 0.0
C868 C 0.79692 0.71472 0.75732 0.0
C869 C 0.81572 0.69469 0.76054 0.0
C870 C 0.83837 0.70521 0.78606 0.0
C871 C 0.85776 0.68799 0.7884 0.0
C872 C 0.85475 0.66004 0.76536 0.0
C873 C 0.83319 0.65027 0.73897 0.0
C874 C 0.81376 0.66779 0.73644 0.0
C875 C 0.82641 0.81534 0.72759 0.0
O876 O 0.80819 0.84854 0.81008 0.0
O877 O 0.78004 0.79459 0.78962 0.0
O878 O 0.86973 0.89487 0.8393 0.0
O879 O 0.86815 0.89113 0.78886 0.0
O880 O 0.86065 0.83976 0.85596 0.0
O881 O 0.83441 0.80111 0.82128 0.0
O882 O 0.85988 0.77552 0.77594 0.0
O883 O 0.88725 0.83026 0.78972 0.0
O884 O 0.80211 0.73191 0.73613 0.0
O885 O 0.79338 0.73167 0.78365 0.0
O886 O 0.80909 0.78586 0.7217 0.0
O887 O 0.83363 0.82326 0.75753 0.0
H888 H 0.82333 0.90226 0.77158 0.0
H889 H 0.79173 0.93581 0.77232 0.0
H890 H 0.83611 0.99181 0.86469 0.0
H891 H 0.86893 0.95901 0.86341 0.0
H892 H 0.84097 0.72657 0.80446 0.0
H893 H 0.87421 0.69543 0.80906 0.0
H894 H 0.83068 0.62843 0.72121 0.0
H895 H 0.79706 0.66018 0.71602 0.0
Ho896 Ho 0.57083 0.54426 0.53523 0.0
Ho897 Ho 0.61601 0.57733 0.57342 0.0
C898 C 0.58903 0.62281 0.54192 0.0
C899 C 0.51655 0.52389 0.51258 0.0
C900 C 0.49425 0.54015 0.51479 0.0
C901 C 0.49741 0.56673 0.53981 0.0
C902 C 0.47615 0.58193 0.54185 0.0
C903 C 0.45139 0.5709 0.51889 0.0
C904 C 0.44885 0.54529 0.49311 0.0
C905 C 0.47016 0.53005 0.49108 0.0
C906 C 0.60759 0.54825 0.49085 0.0
C907 C 0.60369 0.49889 0.56334 0.0
C908 C 0.66885 0.59714 0.60106 0.0
C909 C 0.69118 0.5817 0.59485 0.0
C910 C 0.6862 0.55601 0.56831 0.0
C911 C 0.70711 0.54109 0.5622 0.0
C912 C 0.73354 0.55208 0.58217 0.0
C913 C 0.7385 0.57747 0.60891 0.0
C914 C 0.71733 0.59206 0.61532 0.0
C915 C 0.57234 0.57713 0.61034 0.0
O916 O 0.56745 0.59576 0.53607 0.0
O917 O 0.61333 0.62199 0.5561 0.0
O918 O 0.53615 0.536 0.49701 0.0
O919 O 0.52737 0.51793 0.53846 0.0
O920 O 0.58227 0.52801 0.48751 0.0
O921 O 0.61484 0.56473 0.52003 0.0
O922 O 0.62147 0.52805 0.57579 0.0
O923 O 0.58033 0.4973 0.54443 0.0
O924 O 0.64808 0.58045 0.61273 0.0
O925 O 0.65944 0.60874 0.57829 0.0
O926 O 0.59377 0.60203 0.60945 0.0
O927 O 0.57438 0.55317 0.58921 0.0
H928 H 0.51607 0.57538 0.55807 0.0
H929 H 0.47864 0.60171 0.56191 0.0
H930 H 0.42983 0.53605 0.47532 0.0
H931 H 0.46758 0.50995 0.47131 0.0
H932 H 0.66632 0.54785 0.55193 0.0
H933 H 0.70308 0.52186 0.54123 0.0
H934 H 0.75891 0.58635 0.62445 0.0
H935 H 0.72153 0.61173 0.63593 0.0
Ho936 Ho 0.1263 0.56613 0.0617 0.0
Ho937 Ho 0.06535 0.56431 0.07138 0.0
C938 C 0.07658 0.49484 0.05363 0.0
C939 C 0.17635 0.55747 0.06443 0.0
C940 C 0.19173 0.53269 0.05789 0.0
C941 C 0.19952 0.51812 0.0821 0.0
C942 C 0.21868 0.49997 0.07896 0.0
C943 C 0.23078 0.49573 0.05149 0.0
C944 C 0.22134 0.50826 0.0263 0.0
C945 C 0.20232 0.5268 0.02958 0.0
C946 C 0.09222 0.56356 1.00969 0.0
C947 C 0.11188 0.63422 0.07142 0.0
C948 C 1.01596 0.57253 0.07617 0.0
C949 C 1.00211 0.59831 0.08343 0.0
C950 C 1.00393 0.62202 0.06536 0.0
C951 C 0.98452 0.63984 0.06585 0.0
C952 C 0.96323 0.63455 0.08466 0.0
C953 C 0.96357 0.61381 0.10551 0.0
C954 C 0.98285 0.5957 0.10481 0.0
C955 C 0.102 0.57153 0.12359 0.0
O956 O 0.10404 0.51215 0.05943 0.0
O957 O 0.0566 0.50973 0.05389 0.0
O958 O 0.1645 0.56661 0.041 0.0
O959 O 0.16109 0.55538 0.08682 0.0
O960 O 0.11927 0.579 0.01592 0.0
O961 O 0.08442 0.54814 0.03052 0.0
O962 O 0.08478 0.61598 0.0658 0.0
O963 O 0.1329 0.62104 0.07523 0.0
O964 O 0.03185 0.56735 0.09916 0.0
O965 O 0.02655 0.57033 0.05023 0.0
O966 O 0.07585 0.55301 0.11812 0.0
O967 O 0.10759 0.58477 0.10108 0.0
H968 H 0.19198 0.52216 0.10433 0.0
H969 H 0.22522 0.49083 0.09893 0.0
H970 H 0.22924 0.50454 1.00428 0.0
H971 H 0.19679 0.53753 1.01036 0.0
H972 H 1.01883 0.625 0.04899 0.0
H973 H 0.98468 0.65585 0.04968 0.0
H974 H 0.94732 0.6094 0.12022 0.0
H975 H 0.98117 0.57778 0.11917 0.0
C976 C 0.0828 0.21021 1.00373 0.0
C977 C 0.05445 0.20784 0.99089 0.0
C978 C 0.08981 0.18503 0.01703 0.0
C979 C 0.069 0.15538 0.01797 0.0
H980 H 0.09995 0.23173 1.00327 0.0
H981 H 0.11195 0.18861 0.02599 0.0
S982 S 0.99182 0.13588 0.98623 0.0
N983 N 1.00582 0.17256 0.97981 0.0
N984 N 1.01843 0.12601 1.00348 0.0
C985 C 0.04072 0.15288 1.00488 0.0
C986 C 0.03366 0.1786 0.9918 0.0
C987 C 0.24039 0.85025 0.18519 0.0
C988 C 0.21588 0.8529 0.19806 0.0
C989 C 0.26431 0.84616 0.20336 0.0
C990 C 0.26492 0.84438 0.23528 0.0
H991 H 0.2411 0.85115 0.16078 0.0
H992 H 0.28273 0.84516 0.19249 0.0
S993 S 0.20606 0.84728 0.28028 0.0
N994 N 0.19404 0.85159 0.24525 0.0
N995 N 0.23816 0.8439 0.27833 0.0
C996 C 0.24043 0.84617 0.24815 0.0
C997 C 0.21626 0.85036 0.22992 0.0
C998 C 0.57971 0.9011 0.53313 0.0
C999 C 0.55998 0.88647 0.50484 0.0
C1000 C 0.58639 0.93484 0.54725 0.0
C1001 C 0.57321 0.95528 0.53409 0.0
H1002 H 0.59086 0.8867 0.54387 0.0
H1003 H 0.6022 0.94508 0.56847 0.0
S1004 S 0.52087 0.93032 0.46004 0.0
N1005 N 0.52769 0.8964 0.46429 0.0
N1006 N 0.54018 0.95865 0.49086 0.0
C1007 C 0.5532 0.94097 0.5063 0.0
C1008 C 0.5466 0.907 0.49175 0.0
C1009 C 0.53794 0.30352 0.67002 0.0
C1010 C 0.5614 0.3023 0.69049 0.0
C1011 C 0.51053 0.29678 0.67826 0.0
C1012 C 0.50568 0.2886 0.70723 0.0
H1013 H 0.54073 0.30946 0.64742 0.0
H1014 H 0.49309 0.29823 0.66201 0.0
S1015 S 0.56023 0.28352 0.7695 0.0
N1016 N 0.57792 0.29269 0.74096 0.0
N1017 N 0.52694 0.28079 0.75668 0.0
C1018 C 0.52899 0.28716 0.72767 0.0
C1019 C 0.55668 0.29381 0.71925 0.0
C1020 C 0.05869 0.85842 0.6341 0.0
C1021 C 0.05109 0.82609 0.6166 0.0
C1022 C 0.07339 0.88438 0.62187 0.0
C1023 C 0.08072 0.87874 0.59168 0.0
H1024 H 0.05328 0.86372 0.65737 0.0
H1025 H 0.07832 0.90908 0.6357 0.0
S1026 S 0.06619 0.79841 0.53678 0.0
N1027 N 0.05283 0.78972 0.56811 0.0
N1028 N 0.0797 0.83853 0.54483 0.0
C1029 C 0.07397 0.84645 0.57439 0.0
C1030 C 0.05924 0.82009 0.58688 0.0
C1031 C 0.57523 0.86146 0.81236 0.0
C1032 C 0.58181 0.85454 0.84185 0.0
C1033 C 0.54714 0.8574 0.79951 0.0
C1034 C 0.52488 0.84647 0.81587 0.0
H1035 H 0.59201 0.87176 0.79989 0.0
H1036 H 0.54308 0.86505 0.77777 0.0
S1037 S 0.53033 0.82107 0.89177 0.0
N1038 N 0.56352 0.83318 0.88555 0.0
N1039 N 0.51049 0.82539 0.86108 0.0
C1040 C 0.53086 0.83707 0.84413 0.0
C1041 C 0.55946 0.84108 0.85721 0.0
C1042 C 0.50772 0.12336 0.10977 0.0
C1043 C 0.52253 0.15656 0.1217 0.0
C1044 C 0.52082 0.1028 0.09281 0.0
C1045 C 0.54924 0.11473 0.08842 0.0
H1046 H 0.48573 0.11362 0.11251 0.0
H1047 H 0.50847 0.07761 0.08236 0.0
S1048 S 0.59753 0.19934 0.11683 0.0
N1049 N 0.56742 0.20019 0.12925 0.0
N1050 N 0.59197 0.16122 0.09793 0.0
C1051 C 0.56462 0.14746 0.10146 0.0
C1052 C 0.55122 0.16849 0.11805 0.0
C1053 C 0.23757 0.35593 0.33059 0.0
C1054 C 0.22439 0.33314 0.3474 0.0
C1055 C 0.25712 0.34948 0.31144 0.0
C1056 C 0.2638 0.32002 0.30854 0.0
H1057 H 0.23253 0.37865 0.33198 0.0
H1058 H 0.26719 0.36765 0.29905 0.0
S1059 S 0.23759 0.25448 0.35104 0.0
N1060 N 0.22084 0.28134 0.3619 0.0
N1061 N 0.25758 0.26921 0.32617 0.0
C1062 C 0.25101 0.29732 0.32568 0.0
C1063 C 0.23128 0.30392 0.3451 0.0
C1064 C 0.04864 0.09394 0.18971 0.0
C1065 C 0.01955 0.07492 0.18797 0.0
C1066 C 0.06346 0.09566 0.16265 0.0
C1067 C 0.05136 0.07737 0.13099 0.0
H1068 H 0.0603 0.10847 0.21249 0.0
H1069 H 0.0852 0.11159 0.16691 0.0
S1070 S 0.97652 0.02153 0.11174 0.0
N1071 N 0.97991 0.03665 0.14987 0.0
N1072 N 1.0074 0.03812 0.10135 0.0
C1073 C 0.02264 0.05748 0.12915 0.0
C1074 C 1.00717 0.05671 0.15647 0.0
C1075 C 0.27054 0.72679 0.47416 0.0
C1076 C 0.27953 0.6988 0.46796 0.0
C1077 C 0.26441 0.74184 0.45018 0.0
C1078 C 0.26704 0.72939 0.41924 0.0
H1079 H 0.27009 0.73864 0.49799 0.0
H1080 H 0.26041 0.76512 0.45655 0.0
S1081 S 0.28099 0.65146 0.38914 0.0
N1082 N 0.28438 0.65513 0.42767 0.0
N1083 N 0.27283 0.68397 0.38225 0.0
C1084 C 0.27221 0.69916 0.41199 0.0
C1085 C 0.27852 0.68369 0.43651 0.0
C1086 C 0.6497 0.03807 0.67493 0.0
C1087 C 0.67618 0.06218 0.68047 0.0
C1088 C 0.62724 0.03915 0.65382 0.0
C1089 C 0.63074 0.06465 0.63808 0.0
H1090 H 0.64625 1.01844 0.6874 0.0
H1091 H 0.60712 1.01989 0.64979 0.0
S1092 S 0.69531 0.13591 0.64744 0.0
N1093 N 0.70458 0.11347 0.67066 0.0
N1094 N 0.66192 0.11601 0.63088 0.0
C1095 C 0.65705 0.08954 0.644 0.0
C1096 C 0.68005 0.08816 0.66527 0.0
C1097 C 0.37552 0.37038 0.93918 0.0
C1098 C 0.36457 0.34678 0.95644 0.0
C1099 C 0.37215 0.36244 0.90587 0.0
C1100 C 0.35718 0.33065 0.88819 0.0
H1101 H 0.3872 0.39521 0.95159 0.0
H1102 H 0.38109 0.38146 0.89382 0.0
S1103 S 0.32348 0.25998 0.92136 0.0
N1104 N 0.33804 0.29006 0.95276 0.0
N1105 N 0.33086 0.2756 0.89057 0.0
C1106 C 0.34594 0.30692 0.90506 0.0
C1107 C 0.34988 0.31481 0.93899 0.0
C1108 C 0.03261 0.02974 0.38932 0.0
C1109 C 0.04064 0.05744 0.37585 0.0
C1110 C 0.0437 0.03 0.42104 0.0
C1111 C 0.06365 0.05799 0.44167 0.0
H1112 H 1.01708 1.00755 0.37532 0.0
H1113 H 0.03615 1.00798 0.42963 0.0
S1114 S 0.09574 0.13541 0.41721 0.0
N1115 N 0.07244 0.11282 0.38574 0.0
N1116 N 0.09313 0.11318 0.44406 0.0
C1117 C 0.07255 0.08547 0.42817 0.0
C1118 C 0.06119 0.08524 0.39591 0.0
C1119 C 0.35884 0.72838 0.6524 0.0
C1120 C 0.34066 0.724 0.62425 0.0
C1121 C 0.35851 0.75135 0.67888 0.0
C1122 C 0.33961 0.77007 0.67803 0.0
H1123 H 0.37322 0.71388 0.65398 0.0
H1124 H 0.37302 0.75429 0.7003 0.0
S1125 S 0.28378 0.76262 0.61171 0.0
N1126 N 0.30071 0.73684 0.59788 0.0
N1127 N 0.30006 0.78004 0.6483 0.0
C1128 C 0.32048 0.76495 0.65046 0.0
C1129 C 0.32094 0.74173 0.62334 0.0
C1130 C 0.64123 0.09926 0.84632 0.0
C1131 C 0.66497 0.11348 0.83373 0.0
C1132 C 0.64257 0.10508 0.87871 0.0
C1133 C 0.66745 0.12585 0.89915 0.0
H1134 H 0.62185 0.08312 0.83114 0.0
H1135 H 0.62375 0.09387 0.88797 0.0
S1136 S 0.73565 0.16779 0.87723 0.0
N1137 N 0.71457 0.14784 0.84339 0.0
N1138 N 0.71642 0.15976 0.90497 0.0
C1139 C 0.6915 0.13988 0.88692 0.0
C1140 C 0.69038 0.13344 0.85384 0.0
C1141 C 0.35181 0.37502 0.16912 0.0
C1142 C 0.35723 0.35747 0.14091 0.0
C1143 C 0.34489 0.36057 0.19511 0.0
C1144 C 0.34271 0.32755 0.19433 0.0
H1145 H 0.35259 0.40031 0.17114 0.0
H1146 H 0.34028 0.37511 0.21549 0.0
S1147 S 0.35622 0.27069 0.12758 0.0
N1148 N 0.36094 0.30502 0.11533 0.0
N1149 N 0.34781 0.27818 0.16301 0.0
C1150 C 0.34852 0.30994 0.16657 0.0
C1151 C 0.35577 0.32466 0.14035 0.0
C1152 C 0.30231 0.05276 0.06014 0.0
C1153 C 0.29834 1.01955 0.04765 0.0
C1154 C 0.27964 0.0636 0.06902 0.0
C1155 C 0.25215 0.04163 0.06616 0.0
H1156 H 0.32296 0.07067 0.06235 0.0
H1157 H 0.28353 0.08961 0.07728 0.0
S1158 S 0.23217 0.95127 0.041 0.0
N1159 N 0.26593 0.96417 0.03688 0.0
N1160 N 0.22332 0.98447 0.05393 0.0
C1161 C 0.24832 1.00805 0.05544 0.0
C1162 C 0.27141 0.99703 0.04614 0.0
C1163 C 0.71925 0.61292 1.00197 0.0
C1164 C 0.72916 0.64572 0.01874 0.0
C1165 C 0.69259 0.59184 1.00457 0.0
C1166 C 0.67511 0.60205 0.02517 0.0
H1167 H 0.73217 0.60349 0.9866 0.0
H1168 H 0.68589 0.56701 0.99065 0.0
S1169 S 0.69293 0.68472 0.07698 0.0
N1170 N 0.71992 0.68709 0.05755 0.0
N1171 N 0.67128 0.64697 0.06438 0.0
C1172 C 0.68546 0.63445 0.04304 0.0
C1173 C 0.71202 0.65632 0.03935 0.0
C1174 C 0.77464 0.41958 0.2458 0.0
C1175 C 0.77525 0.44338 0.27346 0.0
C1176 C 0.78675 0.39263 0.2457 0.0
C1177 C 0.80156 0.38706 0.2731 0.0
H1178 H 0.76413 0.42135 0.22354 0.0
H1179 H 0.78466 0.37601 0.22338 0.0
S1180 S 0.81176 0.44207 0.35222 0.0
N1181 N 0.79335 0.45811 0.32954 0.0
N1182 N 0.81641 0.41028 0.32905 0.0
C1183 C 0.80285 0.41101 0.30073 0.0
C1184 C 0.78985 0.43787 0.30099 0.0
C1185 C 0.9602 0.52535 0.51164 0.0
C1186 C 0.94533 0.50703 0.53081 0.0
C1187 C 0.98989 0.5352 0.51681 0.0
C1188 C 1.0054 0.5273 0.54151 0.0
H1189 H 0.94888 0.53074 0.49177 0.0
H1190 H 1.00072 0.54925 0.50134 0.0
S1191 S 0.97567 0.48245 0.60019 0.0
N1192 N 0.94756 0.48299 0.57658 0.0
N1193 N 1.00369 0.50229 0.58668 0.0
C1194 C 0.99065 0.51037 0.56181 0.0
C1195 C 0.96045 0.50001 0.55634 0.0
C1196 C 0.41381 0.11194 0.27295 0.0
C1197 C 0.40264 0.09302 0.29403 0.0
C1198 C 0.39836 0.12995 0.25977 0.0
C1199 C 0.37158 0.12916 0.26755 0.0
H1200 H 0.43436 0.11248 0.26637 0.0
H1201 H 0.40751 0.14496 0.24411 0.0
S1202 S 0.33381 0.08431 0.32193 0.0
N1203 N 0.36374 0.07474 0.32204 0.0
N1204 N 0.33476 0.10904 0.29753 0.0
C1205 C 0.36027 0.11026 0.28833 0.0
C1206 C 0.37582 0.09194 0.30154 0.0
C1207 C 0.40237 0.16011 0.57858 0.0
C1208 C 0.3899 0.15648 0.54715 0.0
C1209 C 0.42712 0.15136 0.58579 0.0
C1210 C 0.44018 0.13831 0.56183 0.0
H1211 H 0.39292 0.16981 0.59779 0.0
H1212 H 0.43583 0.15436 0.61029 0.0
S1213 S 0.41493 0.12229 0.47587 0.0
N1214 N 0.39221 0.13869 0.49206 0.0
N1215 N 0.438 0.12114 0.50539 0.0
C1216 C 0.42795 0.13477 0.53035 0.0
C1217 C 0.403 0.14411 0.52307 0.0
C1218 C 0.75873 0.66564 0.30516 0.0
C1219 C 0.77014 0.63876 0.30376 0.0
C1220 C 0.77487 0.69802 0.30255 0.0
C1221 C 0.80395 0.70632 0.29868 0.0
H1222 H 0.73666 0.66155 0.30788 0.0
H1223 H 0.76434 0.71669 0.30374 0.0
S1224 S 0.8451 0.64607 0.29422 0.0
N1225 N 0.81322 0.62427 0.29826 0.0
N1226 N 0.84303 0.68304 0.29407 0.0
C1227 C 0.81549 0.67955 0.29746 0.0
C1228 C 0.799 0.64676 0.29972 0.0
C1229 C 0.90747 0.47225 0.82163 0.0
C1230 C 0.93129 0.47626 0.84418 0.0
C1231 C 0.88655 0.44204 0.81161 0.0
C1232 C 0.8891 0.41589 0.82459 0.0
H1233 H 0.90586 0.49192 0.81046 0.0
H1234 H 0.86882 0.43888 0.79331 0.0
S1235 S 0.94819 0.41417 0.8829 0.0
N1236 N 0.95701 0.45203 0.87799 0.0
N1237 N 0.91698 0.39516 0.86013 0.0
C1238 C 0.91251 0.41988 0.84754 0.0
C1239 C 0.93397 0.45027 0.85712 0.0
C1240 C 0.12053 0.9488 0.10638 0.0
C1241 C 0.12356 0.92194 0.08487 0.0
C1242 C 0.11278 0.9751 0.09643 0.0
C1243 C 0.10627 0.97577 0.06425 0.0
H1244 H 0.12497 0.95006 0.13138 0.0
H1245 H 0.11168 0.99517 0.11435 0.0
S1246 S 0.10874 0.91081 0.99779 0.0
N1247 N 0.11851 0.89808 0.02921 0.0
N1248 N 0.10249 0.94565 1.01096 0.0
C1249 C 0.10817 0.94853 0.04251 0.0
C1250 C 0.11712 0.92235 0.05262 0.0
C1251 C 0.96518 0.29429 0.85277 0.0
C1252 C 0.96361 0.28877 0.88359 0.0
C1253 C 0.94184 0.29847 0.83324 0.0
C1254 C 0.91533 0.29789 0.84319 0.0
H1255 H 0.98472 0.29548 0.8435 0.0
H1256 H 0.94464 0.30214 0.80989 0.0
S1257 S 0.89913 0.28395 0.92054 0.0
N1258 N 0.93213 0.28264 0.9221 0.0
N1259 N 0.88944 0.2908 0.88597 0.0
C1260 C 0.91364 0.29278 0.87375 0.0
C1261 C 0.93722 0.28823 0.89358 0.0
C1262 C 0.6031 0.21463 0.57285 0.0
C1263 C 0.63077 0.23665 0.58308 0.0
C1264 C 0.59812 0.18053 0.5654 0.0
C1265 C 0.62055 0.16668 0.56853 0.0
H1266 H 0.58493 0.22378 0.57239 0.0
H1267 H 0.57624 0.16492 0.55855 0.0
S1268 S 0.69721 0.21403 0.59467 0.0
N1269 N 0.68095 0.2423 0.5956 0.0
N1270 N 0.67194 0.17859 0.58197 0.0
C1271 C 0.64851 0.18861 0.5777 0.0
C1272 C 0.6535 0.22338 0.58495 0.0
C1273 C 0.62156 0.77575 0.37661 0.0
C1274 C 0.61563 0.80281 0.39392 0.0
C1275 C 0.64734 0.77924 0.36474 0.0
C1276 C 0.66846 0.8099 0.37004 0.0
H1277 H 0.60618 0.75168 0.37226 0.0
H1278 H 0.65046 0.75778 0.35076 0.0
S1279 S 0.66493 0.88751 0.41851 0.0
N1280 N 0.63395 0.86065 0.41845 0.0
N1281 N 0.68249 0.86724 0.39709 0.0
C1282 C 0.66316 0.8369 0.38863 0.0
C1283 C 0.63681 0.83334 0.40037 0.0
C1284 C 0.11145 0.29307 0.47694 0.0
C1285 C 0.13896 0.30019 0.46911 0.0
C1286 C 0.10092 0.26677 0.49082 0.0
C1287 C 0.11768 0.24698 0.49755 0.0
H1288 H 0.09769 0.30742 0.47159 0.0
H1289 H 0.07946 0.26169 0.49606 0.0
S1290 S 0.19177 0.25692 0.48327 0.0
N1291 N 0.1829 0.28606 0.46947 0.0
N1292 N 0.16365 0.23739 0.49683 0.0
C1293 C 0.14537 0.2542 0.49016 0.0
C1294 C 0.15589 0.28064 0.47561 0.0
C1295 C 0.60028 0.22605 0.24187 0.0
C1296 C 0.59305 0.25408 0.23817 0.0
C1297 C 0.62856 0.22804 0.25142 0.0
C1298 C 0.65009 0.25813 0.25766 0.0
H1299 H 0.58434 0.2022 0.23511 0.0
H1300 H 0.63388 0.20573 0.25204 0.0
S1301 S 0.64155 0.33868 0.25362 0.0
N1302 N 0.60895 0.3128 0.24286 0.0
N1303 N 0.6625 0.31661 0.26136 0.0
C1304 C 0.64296 0.28652 0.25553 0.0
C1305 C 0.6142 0.28447 0.24561 0.0
C1306 C 0.66132 0.96568 0.99955 0.0
C1307 C 0.65287 0.95801 0.96674 0.0
C1308 C 0.65053 0.98679 0.01917 0.0
C1309 C 0.6303 1.00043 1.00683 0.0
H1310 H 0.67616 0.95505 1.01021 0.0
H1311 H 0.65769 0.99183 0.04433 0.0
S1312 S 0.60035 0.98735 0.9228 0.0
N1313 N 0.62274 0.96563 0.9228 0.0
N1314 N 0.60207 1.00461 0.96004 0.0
C1315 C 0.62158 0.99295 0.97421 0.0
C1316 C 0.63297 0.97196 0.95408 0.0
C1317 C 0.93542 0.78542 0.7252 0.0
C1318 C 0.94827 0.76512 0.73887 0.0
C1319 C 0.91553 0.79773 0.73942 0.0
C1320 C 0.9079 0.79006 0.76763 0.0
H1321 H 0.94036 0.7914 0.70313 0.0
H1322 H 0.90533 0.81241 0.72776 0.0
S1323 S 0.93692 0.74097 0.81457 0.0
N1324 N 0.95315 0.74005 0.78364 0.0
N1325 N 0.91537 0.76307 0.80979 0.0
C1326 C 0.92096 0.77074 0.78201 0.0
C1327 C 0.94129 0.75829 0.76775 0.0
C1328 C 0.13085 0.08014 0.90552 0.0
C1329 C 0.14739 0.05967 0.89396 0.0
C1330 C 0.11853 0.07911 0.93431 0.0
C1331 C 0.12127 0.05725 0.95433 0.0
H1332 H 0.12719 0.09743 0.89205 0.0
H1333 H 0.10615 0.09544 0.94055 0.0
S1334 S 0.16184 0.99791 0.93663 0.0
N1335 N 0.16523 1.01664 0.90716 0.0
N1336 N 0.14224 1.01423 0.95867 0.0
C1337 C 0.13732 0.03651 0.94277 0.0
C1338 C 0.15016 0.03784 0.91387 0.0
C1339 C 0.87643 0.38594 0.58607 0.0
C1340 C 0.87693 0.41874 0.59033 0.0
C1341 C 0.8907 0.37562 0.60927 0.0
C1342 C 0.90559 0.39776 0.63732 0.0
H1343 H 0.86449 0.36795 0.56506 0.0
H1344 H 0.88805 0.34974 0.6064 0.0
S1345 S 0.91783 0.48694 0.65791 0.0
N1346 N 0.89696 0.47412 0.62322 0.0
N1347 N 0.92341 0.45395 0.6668 0.0
C1348 C 0.90834 0.43089 0.64084 0.0
C1349 C 0.89387 0.44156 0.6174 0.0
C1350 C 0.57539 0.0382 0.41805 0.0
C1351 C 0.55288 0.05097 0.41194 0.0
C1352 C 0.58715 0.0401 0.44874 0.0
C1353 C 0.57659 0.05464 0.47392 0.0
H1354 H 0.58435 0.02711 0.39912 0.0
H1355 H 0.60527 0.03124 0.45287 0.0
S1356 S 0.51472 0.08588 0.47101 0.0
N1357 N 0.51759 0.07403 0.43385 0.0
N1358 N 0.54093 0.07842 0.49191 0.0
C1359 C 0.55288 0.06519 0.46851 0.0
C1360 C 0.54066 0.06316 0.43725 0.0
C1361 C 0.79809 0.77441 0.13407 0.0
C1362 C 0.82201 0.7734 0.11947 0.0
C1363 C 0.80023 0.78224 0.16745 0.0
C1364 C 0.82633 0.78886 0.18789 0.0
H1365 H 0.77722 0.76716 0.11964 0.0
H1366 H 0.78103 0.78166 0.17725 0.0
S1367 S 0.89555 0.79031 0.16139 0.0
N1368 N 0.87261 0.78048 0.12832 0.0
N1369 N 0.87698 0.79526 0.18992 0.0
C1370 C 0.85049 0.78891 0.17329 0.0
C1371 C 0.84824 0.78112 0.13958 0.0
C1372 C 0.17446 0.04953 0.67595 0.0
C1373 C 0.15896 0.04016 0.7001 0.0
C1374 C 0.16166 0.05497 0.64706 0.0
C1375 C 0.13208 0.05099 0.63942 0.0
H1376 H 0.1972 0.05328 0.67956 0.0
H1377 H 0.17526 0.06197 0.63017 0.0
S1378 S 0.08052 0.02565 0.69267 0.0
N1379 N 0.11122 0.02725 0.71289 0.0
N1380 N 0.08761 0.03585 0.65927 0.0
C1381 C 0.1162 0.04126 0.66304 0.0
C1382 C 0.12934 0.03645 0.69285 0.0
C1383 C 0.87741 0.37863 0.40603 0.0
C1384 C 0.8567 0.37331 0.42543 0.0
C1385 C 0.87317 0.35774 0.37651 0.0
C1386 C 0.84852 0.3307 0.36617 0.0
H1387 H 0.89667 0.39925 0.4135 0.0
H1388 H 0.88924 0.36287 0.36187 0.0
S1389 S 0.78878 0.30638 0.40967 0.0
N1390 N 0.81139 0.33953 0.43339 0.0
N1391 N 0.80341 0.29965 0.37801 0.0
C1392 C 0.8281 0.32484 0.38598 0.0
C1393 C 0.83224 0.3464 0.4157 0.0
C1394 C 0.48023 0.98413 0.23429 0.0
C1395 C 0.49679 1.01272 0.25637 0.0
C1396 C 0.49141 0.97126 0.20897 0.0
C1397 C 0.51939 0.98641 0.20582 0.0
H1398 H 0.45791 0.97319 0.2351 0.0
H1399 H 0.47755 0.95129 0.19056 0.0
S1400 S 0.57279 0.05783 0.2602 0.0
N1401 N 0.54356 0.05276 0.276 0.0
N1402 N 0.56467 0.02817 0.22826 0.0
C1403 C 0.53717 1.01236 0.22977 0.0
C1404 C 0.5258 0.02565 0.25534 0.0
C1405 C 0.81348 0.74812 0.90356 0.0
C1406 C 0.81869 0.76825 0.93439 0.0
C1407 C 0.82053 0.76104 0.87652 0.0
C1408 C 0.83392 0.79481 0.8789 0.0
H1409 H 0.80349 0.72207 0.90017 0.0
H1410 H 0.81582 0.74435 0.85374 0.0
S1411 S 0.85267 0.8581 0.95419 0.0
N1412 N 0.83797 0.8238 0.96487 0.0
N1413 N 0.85186 0.84774 0.91588 0.0
C1414 C 0.83927 0.81488 0.90978 0.0
C1415 C 0.83157 0.80184 0.93683 0.0
C1416 C 0.89559 0.11925 0.0263 0.0
C1417 C 0.87391 0.09753 0.03712 0.0
C1418 C 0.91948 0.11057 0.01828 0.0
C1419 C 0.92197 0.07987 0.02053 0.0
H1420 H 0.89457 0.14341 0.02499 0.0
H1421 H 0.93612 0.12798 1.01072 0.0
S1422 S 0.87097 1.01401 0.04604 0.0
N1423 N 0.85629 0.04368 0.04839 0.0
N1424 N 0.90126 0.02774 0.0334 0.0
C1425 C 0.90031 0.05785 0.03051 0.0
C1426 C 0.87617 0.06656 0.03873 0.0
C1427 C 0.48533 0.45833 0.07187 0.0
C1428 C 0.46005 0.46571 0.06257 0.0
C1429 C 0.51278 0.4792 0.07076 0.0
C1430 C 0.51628 0.50837 0.06009 0.0
H1431 H 0.48395 0.43652 0.08076 0.0
H1432 H 0.53141 0.47291 0.07923 0.0
S1433 S 0.45722 0.53666 0.02846 0.0
N1434 N 0.44076 0.503 0.03929 0.0
N1435 N 0.49167 0.54176 0.03729 0.0
C1436 C 0.49116 0.51537 0.0497 0.0
C1437 C 0.46334 0.49426 0.05088 0.0
C1438 C 0.37938 0.66152 0.7455 0.0
C1439 C 0.40772 0.66477 0.75998 0.0
C1440 C 0.3667 0.68811 0.74805 0.0
C1441 C 0.38113 0.72131 0.76455 0.0
H1442 H 0.36633 0.63764 0.73204 0.0
H1443 H 0.34498 0.68238 0.73624 0.0
S1444 S 0.45611 0.7457 0.80691 0.0
N1445 N 0.44948 0.70619 0.7923 0.0
N1446 N 0.42688 0.75462 0.79564 0.0
C1447 C 0.4096 0.72508 0.77882 0.0
C1448 C 0.42229 0.69777 0.77698 0.0
C1449 C 0.2108 0.60133 0.54582 0.0
C1450 C 0.23352 0.62096 0.56904 0.0
C1451 C 0.18347 0.60291 0.54784 0.0
C1452 C 0.17786 0.62383 0.57335 0.0
H1453 H 0.21433 0.58615 0.52508 0.0
H1454 H 0.16659 0.58719 0.52915 0.0
S1455 S 0.23102 0.68021 0.64015 0.0
N1456 N 0.24964 0.66222 0.61807 0.0
N1457 N 0.19742 0.66404 0.62254 0.0
C1458 C 0.20039 0.64277 0.59733 0.0
C1459 C 0.22846 0.64161 0.59496 0.0
C1460 C 0.75712 1.0051 0.79295 0.0
C1461 C 0.77447 0.03632 0.79196 0.0
C1462 C 0.76904 0.98294 0.80387 0.0
C1463 C 0.79848 0.9917 0.81449 0.0
H1464 H 0.73453 0.99704 0.78359 0.0
H1465 H 0.75547 0.95838 0.80254 0.0
S1466 S 0.85233 0.07158 0.81953 0.0
N1467 N 0.82184 0.07588 0.80508 0.0
N1468 N 0.84436 0.03402 0.82509 0.0
C1469 C 0.81564 0.02352 0.81549 0.0
C1470 C 0.80357 0.04595 0.80432 0.0
C1471 C 0.80245 0.98741 0.58211 0.0
C1472 C 0.80564 0.95946 0.56295 0.0
C1473 C 0.77821 0.99724 0.57658 0.0
C1474 C 0.75594 0.97979 0.55151 0.0
H1475 H 0.81881 1.00195 0.60192 0.0
H1476 H 0.7769 1.01893 0.59212 0.0
S1477 S 0.75286 0.90494 0.49384 0.0
N1478 N 0.78377 0.9142 0.5174 0.0
N1479 N 0.73824 0.93337 0.50689 0.0
C1480 C 0.75865 0.95206 0.53166 0.0
C1481 C 0.78344 0.94171 0.53743 0.0
C1482 C 0.38916 0.45722 0.75374 0.0
C1483 C 0.41295 0.47673 0.77713 0.0
C1484 C 0.373 0.42422 0.75436 0.0
C1485 C 0.37946 0.40738 0.77789 0.0
H1486 H 0.38292 0.46738 0.7344 0.0
H1487 H 0.35478 0.41167 0.73593 0.0
S1488 S 0.43737 0.44738 0.84697 0.0
N1489 N 0.44038 0.47578 0.82627 0.0
N1490 N 0.41074 0.41547 0.82695 0.0
C1491 C 0.40287 0.4267 0.80161 0.0
C1492 C 0.41922 0.46036 0.80122 0.0
C1493 C 0.27059 0.68639 0.29577 0.0
C1494 C 0.25181 0.66918 0.26781 0.0
C1495 C 0.28964 0.71665 0.29718 0.0
C1496 C 0.29033 0.73008 0.27055 0.0
H1497 H 0.2705 0.6764 0.31663 0.0
H1498 H 0.30363 0.72967 0.31927 0.0
S1499 S 0.24713 0.69245 0.19101 0.0
N1500 N 0.23588 0.66578 0.21258 0.0
N1501 N 0.27222 0.72331 0.2149 0.0
C1502 C 0.27236 0.71247 0.24205 0.0
C1503 C 0.25269 0.68179 0.24081 0.0
C1504 C 0.5561 0.6857 0.51359 0.0
C1505 C 0.57978 0.71116 0.51035 0.0
C1506 C 0.55917 0.65771 0.52401 0.0
C1507 C 0.58614 0.65347 0.53178 0.0
H1508 H 0.53482 0.68738 0.50808 0.0
H1509 H 0.54011 0.63918 0.52599 0.0
S1510 S 0.65505 0.71076 0.52407 0.0
N1511 N 0.63128 0.7286 0.51389 0.0
N1512 N 0.63696 0.6767 0.53309 0.0
C1513 C 0.60997 0.67846 0.52808 0.0
C1514 C 0.60685 0.70695 0.51753 0.0
C1515 C 0.75286 0.35055 0.69268 0.0
C1516 C 0.72557 0.34027 0.70147 0.0
C1517 C 0.77807 0.34801 0.71014 0.0
C1518 C 0.77764 0.33473 0.73733 0.0
H1519 H 0.75487 0.36072 0.67202 0.0
H1520 H 0.79825 0.35709 0.70247 0.0
S1521 S 0.71228 0.30307 0.77077 0.0
N1522 N 0.70057 0.3154 0.73999 0.0
N1523 N 0.74694 0.31086 0.77173 0.0
C1524 C 0.75057 0.32415 0.74621 0.0
C1525 C 0.72503 0.32675 0.72867 0.0
C1526 C 0.03184 0.4046 0.02022 0.0
C1527 C 0.05241 0.38804 0.017 0.0
C1528 C 0.03964 0.43873 0.03266 0.0
C1529 C 0.06841 0.45796 0.0431 0.0
H1530 H 1.00949 0.39124 1.01204 0.0
H1531 H 0.0229 0.45017 0.0335 0.0
S1532 S 0.13036 0.42561 0.04334 0.0
N1533 N 0.10267 0.39319 0.02723 0.0
N1534 N 0.11736 0.45646 0.05155 0.0
C1535 C 0.08906 0.44123 0.04125 0.0
C1536 C 0.0811 0.40665 0.02797 0.0
C1537 C 0.03061 0.80962 0.171 0.0
C1538 C 0.0557 0.81416 0.19207 0.0
C1539 C 1.00381 0.80173 0.18058 0.0
C1540 C 1.00141 0.79803 0.21143 0.0
H1541 H 0.03168 0.81194 0.14696 0.0
H1542 H 0.98494 0.79874 0.16394 0.0
S1543 S 0.06049 0.80829 0.27568 0.0
N1544 N 0.07624 0.81466 0.24513 0.0
N1545 N 0.02613 0.80013 0.26304 0.0
C1546 C 0.02625 0.80219 0.23248 0.0
C1547 C 0.05335 0.81015 0.22282 0.0
C1548 C 0.57679 0.34578 0.136 0.0
C1549 C 0.55809 0.31676 0.11681 0.0
C1550 C 0.59081 0.37102 0.12267 0.0
C1551 C 0.58608 0.36788 0.08999 0.0
H1552 H 0.58086 0.34874 0.16133 0.0
H1553 H 0.60512 0.39297 0.13801 0.0
S1554 S 0.54054 0.29574 0.02991 0.0
N1555 N 0.53701 0.285 0.06384 0.0
N1556 N 0.56258 0.33344 0.03873 0.0
C1557 C 0.56809 0.33859 0.0706 0.0
C1558 C 0.55421 0.31268 0.08409 0.0
C1559 C 0.06384 0.33053 0.35905 0.0
C1560 C 0.08722 0.35188 0.35069 0.0
C1561 C 0.03616 0.32665 0.34498 0.0
C1562 C 0.03116 0.34424 0.32233 0.0
H1563 H 0.06694 0.31813 0.37779 0.0
H1564 H 1.01852 0.31108 0.35301 0.0
S1565 S 0.08593 0.40194 0.29167 0.0
N1566 N 0.10436 0.38951 0.31783 0.0
N1567 N 0.05205 0.38259 0.29116 0.0
C1568 C 0.05461 0.36439 0.31266 0.0
C1569 C 0.08282 0.36827 0.32707 0.0
C1570 C 1.01526 0.64389 0.63262 0.0
C1571 C 1.00992 0.6707 0.62232 0.0
C1572 C 0.03379 0.6284 0.61923 0.0
C1573 C 0.04811 0.63979 0.59576 0.0
H1574 H 1.00514 0.63492 0.65129 0.0
H1575 H 0.03623 0.60685 0.62655 0.0
S1576 S 0.0421 0.70817 0.55983 0.0
N1577 N 0.0203 0.7068 0.5858 0.0
N1578 N 0.05626 0.67866 0.56245 0.0
C1579 C 0.04337 0.66647 0.58539 0.0
C1580 C 0.02391 0.68161 0.59811 0.0
C1581 C 0.75004 0.85117 0.87412 0.0
C1582 C 0.72381 0.85239 0.85967 0.0
C1583 C 0.769 0.84137 0.85597 0.0
C1584 C 0.76203 0.83169 0.82293 0.0
H1585 H 0.75633 0.85877 0.89946 0.0
H1586 H 0.78945 0.8417 0.86786 0.0
S1587 S 0.69457 0.82606 0.77403 0.0
N1588 N 0.69083 0.84025 0.81041 0.0
N1589 N 0.72646 0.82101 0.77667 0.0
C1590 C 0.73534 0.83088 0.8083 0.0
C1591 C 0.71622 0.8415 0.82662 0.0
C1592 C 0.51494 0.54975 0.6674 0.0
C1593 C 0.52237 0.5754 0.69536 0.0
C1594 C 0.53062 0.5499 0.64101 0.0
C1595 C 0.55522 0.57593 0.63964 0.0
H1596 H 0.49658 0.52877 0.66579 0.0
H1597 H 0.523 0.52916 0.62114 0.0
S1598 S 0.5854 0.64939 0.70643 0.0
N1599 N 0.55774 0.62754 0.71907 0.0
N1600 N 0.5859 0.6284 0.67119 0.0
C1601 C 0.56289 0.60163 0.66761 0.0
C1602 C 0.54715 0.60122 0.69454 0.0
C1603 C 0.77123 0.20654 0.98091 0.0
C1604 C 0.79859 0.20619 0.99242 0.0
C1605 C 0.7673 0.2221 0.95646 0.0
C1606 C 0.79077 0.2375 0.94365 0.0
H1607 H 0.75305 0.19509 0.99099 0.0
H1608 H 0.74606 0.22205 0.94751 0.0
S1609 S 0.86663 0.24668 0.97022 0.0
N1610 N 0.84914 0.22408 0.99212 0.0
N1611 N 0.84225 0.25427 0.94652 0.0
C1612 C 0.81821 0.23801 0.95601 0.0
C1613 C 0.82201 0.22196 0.98041 0.0
C1614 C 0.17023 0.57171 0.1679 0.0
C1615 C 0.16061 0.55634 0.19198 0.0
C1616 C 0.15173 0.58146 0.14836 0.0
C1617 C 0.12276 0.57308 0.15035 0.0
H1618 H 0.19212 0.57643 0.16414 0.0
H1619 H 0.15982 0.59435 0.13087 0.0
S1620 S 0.0904 0.54885 0.21767 0.0
N1621 N 0.12281 0.54564 0.22377 0.0
N1622 N 0.08752 0.5605 0.18407 0.0
C1623 C 0.11382 0.56256 0.17677 0.0
C1624 C 0.13287 0.55445 0.198 0.0
C1625 C 0.83818 0.84497 0.44614 0.0
C1626 C 0.86478 0.84929 0.46432 0.0
C1627 C 0.83373 0.83706 0.41277 0.0
C1628 C 0.8558 0.83365 0.39575 0.0
H1629 H 0.8205 0.84749 0.45781 0.0
H1630 H 0.81268 0.83364 0.40023 0.0
S1631 S 0.93054 0.84624 0.43221 0.0
N1632 N 0.91404 0.85157 0.46258 0.0
N1633 N 0.90608 0.83758 0.40056 0.0
C1634 C 0.88273 0.8387 0.41379 0.0
C1635 C 0.8871 0.84628 0.44773 0.0
C1636 C 0.53879 0.52633 0.89347 0.0
C1637 C 0.54225 0.55589 0.88296 0.0
C1638 C 0.54971 0.52538 0.92494 0.0
C1639 C 0.56515 0.5539 0.94844 0.0
H1640 H 0.5269 0.50342 0.87729 0.0
H1641 H 0.54566 0.50178 0.93096 0.0
S1642 S 0.58397 0.63765 0.93295 0.0
N1643 N 0.56472 0.6145 0.89918 0.0
N1644 N 0.58518 0.61276 0.95684 0.0
C1645 C 0.56953 0.58352 0.93792 0.0
C1646 C 0.55821 0.58449 0.90595 0.0
C1647 C 0.86266 0.24551 0.14825 0.0
C1648 C 0.84526 0.21312 0.14474 0.0
C1649 C 0.85955 0.27105 0.17054 0.0
C1650 C 0.83889 0.26496 0.18996 0.0
H1651 H 0.87875 0.25117 0.13355 0.0
H1652 H 0.87422 0.29536 0.17349 0.0
S1653 S 0.78646 0.18504 0.18872 0.0
N1654 N 0.80532 0.17681 0.16137 0.0
N1655 N 0.80016 0.22463 0.20357 0.0
C1656 C 0.82095 0.23286 0.18616 0.0
C1657 C 0.82403 0.20691 0.16359 0.0
C1658 C 0.19085 0.64519 0.36316 0.0
C1659 C 0.18012 0.61192 0.34819 0.0
C1660 C 0.18592 0.65595 0.39347 0.0
C1661 C 0.17048 0.63341 0.40907 0.0
H1662 H 0.20211 0.66292 0.35096 0.0
H1663 H 0.19297 0.68187 0.40414 0.0
S1664 S 0.13829 0.54376 0.37867 0.0
N1665 N 0.15416 0.55682 0.35026 0.0
N1666 N 0.14462 0.57651 0.40725 0.0
C1667 C 0.16065 0.5999 0.39438 0.0
C1668 C 0.16554 0.58924 0.36374 0.0
C1669 C 0.85603 0.88033 0.67879 0.0
C1670 C 0.85641 0.86145 0.64874 0.0
C1671 C 0.8474 0.86606 0.70444 0.0
C1672 C 0.83806 0.83189 0.70155 0.0
H1673 H 0.8624 0.9067 0.68266 0.0
H1674 H 0.84733 0.88202 0.72639 0.0
S1675 S 0.83511 0.7707 0.62869 0.0
N1676 N 0.84688 0.80607 0.6187 0.0
N1677 N 0.83047 0.77959 0.66562 0.0
C1678 C 0.8385 0.81276 0.67172 0.0
C1679 C 0.84764 0.82729 0.64586 0.0
C1680 C 0.77679 0.49456 0.56074 0.0
C1681 C 0.80018 0.51495 0.55125 0.0
C1682 C 0.75533 0.50677 0.57145 0.0
C1683 C 0.75687 0.53964 0.57294 0.0
H1684 H 0.77535 0.46931 0.56037 0.0
H1685 H 0.73751 0.49056 0.57862 0.0
S1686 S 0.81314 0.60192 0.54921 0.0
N1687 N 0.82343 0.56883 0.54339 0.0
N1688 N 0.78294 0.59169 0.56296 0.0
C1689 C 0.78013 0.55999 0.56339 0.0
C1690 C 0.8019 0.54765 0.55271 0.0
C1691 C 0.22892 0.11532 0.5315 0.0
C1692 C 0.23072 0.14127 0.51591 0.0
C1693 C 0.20282 0.09661 0.53802 0.0
C1694 C 0.17678 0.10239 0.52917 0.0
H1695 H 0.24802 0.10967 0.53949 0.0
H1696 H 0.20319 0.07738 0.55034 0.0
S1697 S 0.16876 0.1652 0.4855 0.0
N1698 N 0.20334 0.17055 0.49066 0.0
N1699 N 0.15452 0.13497 0.50214 0.0
C1700 C 0.17805 0.12757 0.51283 0.0
C1701 C 0.20479 0.14698 0.50644 0.0
C1702 C 0.29786 0.94685 0.77686 0.0
C1703 C 0.27087 0.9436 0.75899 0.0
C1704 C 0.3107 0.92054 0.77603 0.0
C1705 C 0.29757 0.88757 0.75831 0.0
H1706 H 0.30971 0.97051 0.79177 0.0
H1707 H 0.33158 0.92638 0.78987 0.0
S1708 S 0.22798 0.86442 0.70419 0.0
N1709 N 0.23286 0.90328 0.72023 0.0
N1710 N 0.25554 0.85512 0.72014 0.0
C1711 C 0.2707 0.88399 0.73998 0.0
C1712 C 0.25798 0.91111 0.74001 0.0
C1713 C 0.45842 0.02306 1.00521 0.0
C1714 C 0.44208 0.99514 1.01355 0.0
C1715 C 0.48795 0.02987 1.0078 0.0
C1716 C 0.50188 1.00943 0.01962 0.0
H1717 H 0.44832 0.03927 0.99607 0.0
H1718 H 0.5 0.05169 1.00118 0.0
S1719 S 0.46925 0.93465 0.04668 0.0
N1720 N 0.44228 0.94728 0.035 0.0
N1721 N 0.49797 0.96147 0.04093 0.0
C1722 C 0.48606 0.98212 0.0289 0.0
C1723 C 0.45605 0.97462 0.02562 0.0
C1724 C 0.87623 0.60128 0.80679 0.0
C1725 C 0.90219 0.60154 0.79713 0.0
C1726 C 0.86042 0.61956 0.79505 0.0
C1727 C 0.87002 0.63785 0.77302 0.0
H1728 H 0.86856 0.58768 0.82407 0.0
H1729 H 0.84092 0.62015 0.80382 0.0
S1730 S 0.935 0.64256 0.73753 0.0
N1731 N 0.93583 0.61865 0.76252 0.0
N1732 N 0.90577 0.65333 0.74021 0.0
C1733 C 0.89532 0.63706 0.76207 0.0
C1734 C 0.91156 0.61867 0.77426 0.0
C1735 C 0.90551 0.67642 0.09155 0.0
C1736 C 0.88716 0.66203 0.06239 0.0
C1737 C 0.93042 0.66787 0.09892 0.0
C1738 C 0.93755 0.64459 0.07733 0.0
H1739 H 0.90066 0.69455 0.10862 0.0
H1740 H 0.94416 0.6795 0.12144 0.0
S1741 S 0.89495 0.59737 0.99972 0.0
N1742 N 0.87693 0.62208 1.01306 0.0
N1743 N 0.92329 0.60564 0.02696 0.0
C1744 C 0.919 0.62962 0.04857 0.0
C1745 C 0.89392 0.63846 0.04105 0.0
C1746 C 0.27738 0.16683 0.82055 0.0
C1747 C 0.26803 0.13958 0.79424 0.0
C1748 C 0.29318 0.19947 0.81851 0.0
C1749 C 0.29989 0.20804 0.78977 0.0
H1750 H 0.27306 0.16281 0.84341 0.0
H1751 H 0.30081 0.21815 0.84008 0.0
S1752 S 0.27833 0.14751 0.71275 0.0
N1753 N 0.26589 0.12523 0.73772 0.0
N1754 N 0.29432 0.18499 0.73393 0.0
C1755 C 0.28999 0.18116 0.76322 0.0
C1756 C 0.27443 0.14788 0.76537 0.0
C1757 C 0.40855 0.97724 0.32925 0.0
C1758 C 0.43454 0.97237 0.32349 0.0
C1759 C 0.38285 0.95336 0.31556 0.0
C1760 C 0.38279 0.9246 0.29543 0.0
H1761 H 0.40815 0.99876 0.34577 0.0
H1762 H 0.3632 0.95636 0.32233 0.0
S1763 S 0.44466 0.90145 0.27012 0.0
N1764 N 0.4584 0.93785 0.29394 0.0
N1765 N 0.40996 0.89299 0.26851 0.0
C1766 C 0.40835 0.92056 0.28746 0.0
C1767 C 0.43443 0.94449 0.30158 0.0
C1768 C 0.61525 0.41296 0.5622 0.0
C1769 C 0.63026 0.41657 0.59289 0.0
C1770 C 0.60547 0.43842 0.55281 0.0
C1771 C 0.61082 0.46943 0.57328 0.0
H1772 H 0.61091 0.39012 0.54519 0.0
H1773 H 0.59442 0.43404 0.52899 0.0
S1774 S 0.64863 0.49176 0.65626 0.0
N1775 N 0.64884 0.45388 0.64365 0.0
N1776 N 0.63192 0.50109 0.62635 0.0
C1777 C 0.62559 0.47298 0.60399 0.0
C1778 C 0.63484 0.44697 0.61364 0.0
C1779 C 0.43621 0.78575 0.3529 0.0
C1780 C 0.45924 0.81446 0.3657 0.0
C1781 C 0.41011 0.78642 0.33659 0.0
C1782 C 0.40501 0.81587 0.33278 0.0
H1783 H 0.43848 0.76228 0.35498 0.0
H1784 H 0.39365 0.76337 0.32668 0.0
S1785 S 0.45786 0.89837 0.3619 0.0
N1786 N 0.4748 0.87363 0.37306 0.0
N1787 N 0.42589 0.8748 0.34346 0.0
C1788 C 0.42767 0.84488 0.34581 0.0
C1789 C 0.45457 0.84418 0.36188 0.0
C1790 C 0.13574 0.72649 0.07145 0.0
C1791 C 0.12181 0.73939 0.09479 0.0
C1792 C 0.13349 0.69263 0.0642 0.0
C1793 C 0.11719 0.67048 0.07997 0.0
H1794 H 0.14904 0.74271 0.05935 0.0
H1795 H 0.1443 0.68372 0.04598 0.0
S1796 S 0.07656 0.691 0.14272 0.0
N1797 N 0.0906 0.726 0.133 0.0
N1798 N 0.08733 0.66398 0.11994 0.0
C1799 C 0.1032 0.68305 0.10302 0.0
C1800 C 0.10522 0.71693 0.11022 0.0
C1801 C 0.14281 0.31729 0.90222 0.0
C1802 C 0.11883 0.29102 0.88577 0.0
C1803 C 0.16935 0.3233 0.89165 0.0
C1804 C 0.17304 0.30294 0.86455 0.0
H1805 H 0.14111 0.33332 0.92341 0.0
H1806 H 0.18709 0.34391 0.90476 0.0
S1807 S 0.11728 0.23239 0.81198 0.0
N1808 N 0.1009 0.2455 0.84005 0.0
N1809 N 0.15045 0.25669 0.82088 0.0
C1810 C 0.14939 0.2769 0.84796 0.0
C1811 C 0.12244 0.27097 0.85837 0.0
C1812 C 0.61553 0.7758 0.96598 0.0
C1813 C 0.64477 0.79343 0.97124 0.0
C1814 C 0.60545 0.74945 0.98018 0.0
C1815 C 0.62438 0.73956 0.99952 0.0
H1816 H 0.60031 0.78274 0.95127 0.0
H1817 H 0.58281 0.73667 0.97597 0.0
S1818 S 0.70267 0.77693 0.02037 0.0
N1819 N 0.69237 0.79865 0.99707 0.0
N1820 N 0.67334 0.74907 0.02324 0.0
C1821 C 0.65354 0.75664 1.00461 0.0
C1822 C 0.66376 0.7836 0.99061 0.0
C1823 C 0.10873 0.74655 0.69773 0.0
C1824 C 0.09317 0.75891 0.7192 0.0
C1825 C 0.13726 0.74981 0.70664 0.0
C1826 C 0.1514 0.76558 0.73735 0.0
H1827 H 0.09878 0.73394 0.67375 0.0
H1828 H 0.14822 0.73934 0.68944 0.0
S1829 S 0.12075 0.80319 0.8022 0.0
N1830 N 0.09397 0.78807 0.77232 0.0
N1831 N 0.14833 0.79429 0.78923 0.0
C1832 C 0.13629 0.77812 0.75918 0.0
C1833 C 0.10696 0.77474 0.75006 0.0
C1834 C 0.11239 0.47256 0.48227 0.0
C1835 C 0.13896 0.46722 0.48824 0.0
C1836 C 0.10635 0.4986 0.50072 0.0
C1837 C 0.12641 0.51963 0.52634 0.0
H1838 H 0.09595 0.45616 0.46336 0.0
H1839 H 0.08545 0.50147 0.49558 0.0
S1840 S 0.19924 0.51608 0.55174 0.0
N1841 N 0.1859 0.48562 0.5205 0.0
N1842 N 0.174 0.53346 0.55686 0.0
C1843 C 0.15326 0.51481 0.53237 0.0
C1844 C 0.15971 0.48887 0.51284 0.0
C1845 C 0.43377 0.23789 0.24833 0.0
C1846 C 0.45123 0.25484 0.22977 0.0
C1847 C 0.41535 0.25133 0.26399 0.0
C1848 C 0.41349 0.28229 0.26185 0.0
H1849 H 0.43395 0.21369 0.25056 0.0
H1850 H 0.40188 0.23695 0.27735 0.0
S1851 S 0.45571 0.33802 0.218 0.0
N1852 N 0.46663 0.30536 0.21149 0.0
N1853 N 0.4314 0.33046 0.24087 0.0
C1854 C 0.43147 0.30025 0.24437 0.0
C1855 C 0.45037 0.28648 0.2282 0.0
C1856 C 0.62393 0.5606 0.40524 0.0
C1857 C 0.65149 0.55711 0.40276 0.0
C1858 C 0.61057 0.55813 0.43301 0.0
C1859 C 0.62388 0.55346 0.46174 0.0
H1860 H 0.61193 0.56451 0.38496 0.0
H1861 H 0.58922 0.56009 0.43187 0.0
S1862 S 0.69629 0.54336 0.47002 0.0
N1863 N 0.69118 0.54818 0.43354 0.0
N1864 N 0.66738 0.54558 0.48462 0.0
C1865 C 0.65162 0.55064 0.45987 0.0
C1866 C 0.66486 0.55195 0.43119 0.0
C1867 C 0.35644 0.88905 0.08609 0.0
C1868 C 0.37128 0.91945 0.0811 0.0
C1869 C 0.36808 0.87651 0.1093 0.0
C1870 C 0.39481 0.89406 0.12786 0.0
H1871 H 0.33536 0.87554 0.07288 0.0
H1872 H 0.35538 0.85394 0.11419 0.0
S1873 S 0.44418 0.97181 0.12064 0.0
N1874 N 0.41588 0.96476 0.09368 0.0
N1875 N 0.43701 0.94093 0.13828 0.0
C1876 C 0.41067 0.92328 0.12193 0.0
C1877 C 0.39903 0.93611 0.09819 0.0
C1878 C 0.07837 0.55817 0.92308 0.0
C1879 C 0.04917 0.55414 0.91742 0.0
C1880 C 0.09189 0.55993 0.9531 0.0
C1881 C 0.07641 0.55665 0.97794 0.0
H1882 H 0.091 0.56115 0.90454 0.0
H1883 H 0.11475 0.56445 0.95693 0.0
S1884 S 0.99825 0.53775 0.97285 0.0
N1885 N 1.00429 0.54237 0.93744 0.0
N1886 N 0.02977 0.54313 0.99346 0.0
C1887 C 0.04677 0.54929 0.97173 0.0
C1888 C 0.03308 0.54875 0.94147 0.0
C1889 C 0.3289 0.2428 0.63529 0.0
C1890 C 0.32385 0.26198 0.6137 0.0
C1891 C 0.32991 0.25262 0.66786 0.0
C1892 C 0.32567 0.28219 0.68143 0.0
H1893 H 0.33212 0.21937 0.62713 0.0
H1894 H 0.33412 0.23664 0.68269 0.0
S1895 S 0.31344 0.34334 0.6374 0.0
N1896 N 0.31558 0.31337 0.60955 0.0
N1897 N 0.31741 0.33176 0.67102 0.0
C1898 C 0.32066 0.30202 0.66069 0.0
C1899 C 0.31978 0.29201 0.62699 0.0
C1900 C 0.66195 0.56815 0.20241 0.0
C1901 C 0.66148 0.53721 0.20911 0.0
C1902 C 0.64911 0.57204 0.17258 0.0
C1903 C 0.63452 0.54528 0.14672 0.0
H1904 H 0.67305 0.59002 0.22035 0.0
H1905 H 0.65121 0.59659 0.16965 0.0
S1906 S 0.62365 0.45887 0.15192 0.0
N1907 N 0.64285 0.47925 0.18654 0.0
N1908 N 0.61899 0.48619 0.13226 0.0
C1909 C 0.63327 0.51434 0.15355 0.0
C1910 C 0.64649 0.51044 0.18378 0.0
C1911 C 0.35124 0.84339 0.91053 0.0
C1912 C 0.34966 0.87545 0.91457 0.0
C1913 C 0.3499 0.82475 0.88046 0.0
C1914 C 0.34761 0.83794 0.85376 0.0
H1915 H 0.3525 0.83225 0.93053 0.0
H1916 H 0.34982 0.79963 0.87802 0.0
S1917 S 0.34957 0.92338 0.8533 0.0
N1918 N 0.35021 0.92124 0.89048 0.0
N1919 N 0.3484 0.88675 0.83405 0.0
C1920 C 0.34868 0.87099 0.85799 0.0
C1921 C 0.34947 0.88962 0.88843 0.0
C1922 C 0.03387 0.54448 0.7679 0.0
C1923 C 1.00489 0.53051 0.76831 0.0
C1924 C 0.04692 0.52989 0.74556 0.0
C1925 C 0.03086 0.50183 0.72263 0.0
H1926 H 0.04574 0.56824 0.78269 0.0
H1927 H 0.06821 0.54343 0.74309 0.0
S1928 S 0.95979 0.44753 0.72536 0.0
N1929 N 0.96452 0.4804 0.7533 0.0
N1930 N 0.98857 0.45464 0.70865 0.0
C1931 C 1.00381 0.4845 0.72672 0.0
C1932 C 0.99081 0.49863 0.75034 0.0
C1933 C 0.32569 0.24276 0.40057 0.0
C1934 C 0.31911 0.26241 0.42668 0.0
C1935 C 0.33219 0.25399 0.37255 0.0
C1936 C 0.33313 0.28588 0.3692 0.0
H1937 H 0.32582 0.21829 0.40172 0.0
H1938 H 0.33756 0.23793 0.35394 0.0
S1939 S 0.3184 0.34777 0.43027 0.0
N1940 N 0.3141 0.31572 0.44622 0.0
N1941 N 0.32688 0.33679 0.39542 0.0
C1942 C 0.32658 0.30557 0.39515 0.0
C1943 C 0.31945 0.29397 0.42313 0.0
C1944 C 0.39257 0.58993 0.55904 0.0
C1945 C 0.37699 0.60026 0.53645 0.0
C1946 C 0.41694 0.58149 0.55323 0.0
C1947 C 0.4267 0.5827 0.52447 0.0
H1948 H 0.38603 0.58845 0.58165 0.0
H1949 H 0.42789 0.5732 0.57125 0.0
S1950 S 0.39446 0.60945 0.45779 0.0
N1951 N 0.37362 0.61242 0.48443 0.0
N1952 N 0.41958 0.59604 0.47333 0.0
C1953 C 0.41163 0.59336 0.50165 0.0
C1954 C 0.3868 0.60235 0.50773 0.0
C1955 C 0.97277 1.0038 0.58676 0.0
C1956 C 0.96135 0.97131 0.56883 0.0
C1957 C 1.00026 0.02406 0.58497 0.0
C1958 C 1.01761 1.01338 0.56444 0.0
H1959 H 0.96055 1.01362 0.6028 0.0
H1960 H 1.00788 0.04852 0.59972 0.0
S1961 S 0.99714 0.93168 0.51011 0.0
N1962 N 0.96981 0.93015 0.52883 0.0
N1963 N 0.01996 0.96856 0.52418 0.0
C1964 C 1.00596 0.9815 0.54548 0.0
C1965 C 0.9784 0.9605 0.548 0.0
C1966 C 0.9232 0.19439 0.27366 0.0
C1967 C 0.90704 0.16043 0.26392 0.0
C1968 C 0.91072 0.22114 0.27722 0.0
C1969 C 0.88068 0.21679 0.27225 0.0
H1970 H 0.9462 0.2007 0.27809 0.0
H1971 H 0.92515 0.24585 0.28409 0.0
S1972 S 0.82746 0.13327 0.24954 0.0
N1973 N 0.85813 0.12521 0.25101 0.0
N1974 N 0.8354 0.17349 0.25853 0.0
C1975 C 0.86431 0.18287 0.26345 0.0
C1976 C 0.87704 0.15573 0.25915 0.0
C1977 C 0.71859 0.09461 0.07432 0.0
C1978 C 0.73296 0.12322 0.06569 0.0
C1979 C 0.69018 0.08861 0.07788 0.0
C1980 C 0.67547 0.11062 0.07192 0.0
H1981 H 0.72949 0.07725 0.07899 0.0
H1982 H 0.67941 0.06596 0.08399 0.0
S1983 S 0.70334 0.18772 0.04645 0.0
N1984 N 0.7307 0.17337 0.05034 0.0
N1985 N 0.6765 0.16101 0.05578 0.0
C1986 C 0.68947 0.13896 0.06272 0.0
C1987 C 0.7185 0.14549 0.05975 0.0
C1988 C 0.28675 0.50877 0.26489 0.0
C1989 C 0.26955 0.52015 0.28456 0.0
C1990 C 0.30174 0.48866 0.27382 0.0
C1991 C 0.3001 0.47949 0.30271 0.0
H1992 H 0.28825 0.5149 0.24215 0.0
H1993 H 0.31463 0.47999 0.25788 0.0
S1994 S 0.26016 0.50544 0.36384 0.0
N1995 N 0.25304 0.52307 0.33502 0.0
N1996 N 0.28157 0.48445 0.35188 0.0
C1997 C 0.28379 0.4915 0.32319 0.0
C1998 C 0.26829 0.51204 0.31399 0.0
C1999 C 0.27758 0.44207 0.06812 0.0
C2000 C 0.30295 0.45657 0.0577 0.0
C2001 C 0.25392 0.45379 0.06465 0.0
C2002 C 0.25462 0.48061 0.05069 0.0
H2003 H 0.27632 0.42214 0.07992 0.0
H2004 H 0.23511 0.44214 0.07365 0.0
S2005 S 0.31598 0.52587 0.01811 0.0
N2006 N 0.32709 0.49787 0.0316 0.0
N2007 N 0.28319 0.52036 0.02537 0.0
C2008 C 0.27969 0.49443 0.03914 0.0
C2009 C 0.30371 0.48241 0.04271 0.0
C2010 C 0.92015 0.94487 0.27151 0.0
C2011 C 0.91166 0.97399 0.27536 0.0
C2012 C 0.90257 0.91352 0.27515 0.0
C2013 C 0.87497 0.90857 0.28348 0.0
H2014 H 0.94091 0.94616 0.26529 0.0
H2015 H 0.91078 0.8929 0.27113 0.0
S2016 S 0.84294 0.97653 0.30059 0.0
N2017 N 0.87353 0.99467 0.29054 0.0
N2018 N 0.84153 0.93794 0.29778 0.0
C2019 C 0.86664 0.93772 0.28825 0.0
C2020 C 0.88439 0.96939 0.28418 0.0
C2021 C 0.75016 0.19462 0.74473 0.0
C2022 C 0.75192 0.1692 0.75944 0.0
C2023 C 0.77454 0.22002 0.74507 0.0
C2024 C 0.80112 0.22045 0.76007 0.0
H2025 H 0.72977 0.19572 0.73414 0.0
H2026 H 0.77226 0.24063 0.73573 0.0
S2027 S 0.81776 0.1596 0.80072 0.0
N2028 N 0.78296 0.1459 0.78882 0.0
N2029 N 0.8287 0.19373 0.78843 0.0
C2030 C 0.80355 0.19475 0.77354 0.0
C2031 C 0.77886 0.16902 0.77354 0.0
loop_
_geom_bond_atom_site_label_1
_geom_bond_atom_site_label_2
_geom_bond_distance
_geom_bond_site_symmetry_2
_ccdc_geom_bond_type
O0 Cd1 2.223 . S
O0 C8 1.315 . S
Cd1 O0 2.223 . S
Cd1 O4 2.297 . S
Cd1 O5 2.439 . S
Cd1 O11 2.240 . S
Cd2 O3 2.240 . S
Cd2 O10 2.223 . S
Cd2 O12 2.297 . S
Cd2 O13 2.439 . S
O3 Cd2 2.240 . S
O3 C8 1.279 . S
O4 Cd1 2.297 . S
O4 C6 1.247 . S
O5 Cd1 2.439 . S
O5 C6 1.208 . S
C6 O4 1.247 . S
C6 O5 1.208 . S
C7 O12 1.247 . S
C7 O13 1.208 . S
C8 O0 1.315 . S
C8 O3 1.279 . S
C9 O10 1.315 . S
C9 O11 1.279 . S
O10 Cd2 2.223 . S
O10 C9 1.315 . S
O11 Cd1 2.240 . S
O11 C9 1.279 . S
O12 Cd2 2.297 . S
O12 C7 1.247 . S
O13 Cd2 2.439 . S
O13 C7 1.208 . S
O14 Cd15 2.223 . S
O14 C22 1.315 . S
Cd15 O14 2.223 . S
Cd15 O18 2.297 . S
Cd15 O19 2.439 . S
Cd15 O25 2.240 1_655 S
Cd16 O17 2.240 1_455 S
Cd16 O24 2.223 . S
Cd16 O26 2.297 . S
Cd16 O27 2.439 . S
O17 Cd16 2.240 1_655 S
O17 C22 1.279 . S
O18 Cd15 2.297 . S
O18 C20 1.247 . S
O19 Cd15 2.439 . S
O19 C20 1.208 . S
C20 O18 1.247 . S
C20 O19 1.208 . S
C21 O26 1.247 . S
C21 O27 1.208 . S
C22 O14 1.315 . S
C22 O17 1.279 . S
C23 O24 1.315 . S
C23 O25 1.279 . S
O24 Cd16 2.223 . S
O24 C23 1.315 . S
O25 Cd15 2.240 1_455 S
O25 C23 1.279 . S
O26 Cd16 2.297 . S
O26 C21 1.247 . S
O27 Cd16 2.439 . S
O27 C21 1.208 . S
O28 Cd29 2.223 . S
O28 C36 1.315 . S
Cd29 O28 2.223 . S
Cd29 O32 2.297 . S
Cd29 O33 2.439 . S
Cd29 O39 2.240 . S
Cd30 O31 2.240 . S
Cd30 O38 2.223 . S
Cd30 O40 2.297 . S
Cd30 O41 2.439 . S
O31 Cd30 2.240 . S
O31 C36 1.279 . S
O32 Cd29 2.297 . S
O32 C34 1.247 . S
O33 Cd29 2.439 . S
O33 C34 1.208 . S
C34 O32 1.247 . S
C34 O33 1.208 . S
C35 O40 1.247 . S
C35 O41 1.208 . S
C36 O28 1.315 . S
C36 O31 1.279 . S
C37 O38 1.315 . S
C37 O39 1.279 . S
O38 Cd30 2.223 . S
O38 C37 1.315 . S
O39 Cd29 2.240 . S
O39 C37 1.279 . S
O40 Cd30 2.297 . S
O40 C35 1.247 . S
O41 Cd30 2.439 . S
O41 C35 1.208 . S
O42 Cd43 2.223 . S
O42 C50 1.315 . S
Cd43 O42 2.223 . S
Cd43 O46 2.297 . S
Cd43 O47 2.439 . S
Cd43 O53 2.240 . S
Cd44 O45 2.240 . S
Cd44 O52 2.223 . S
Cd44 O54 2.297 . S
Cd44 O55 2.439 . S
O45 Cd44 2.240 . S
O45 C50 1.279 . S
O46 Cd43 2.297 . S
O46 C48 1.247 . S
O47 Cd43 2.439 . S
O47 C48 1.208 . S
C48 O46 1.247 . S
C48 O47 1.208 . S
C49 O54 1.247 . S
C49 O55 1.208 . S
C50 O42 1.315 . S
C50 O45 1.279 . S
C51 O52 1.315 . S
C51 O53 1.279 . S
O52 Cd44 2.223 . S
O52 C51 1.315 . S
O53 Cd43 2.240 . S
O53 C51 1.279 . S
O54 Cd44 2.297 . S
O54 C49 1.247 . S
O55 Cd44 2.439 . S
O55 C49 1.208 . S
O56 Cd57 2.223 . S
O56 C64 1.315 . S
Cd57 O56 2.223 . S
Cd57 O60 2.297 . S
Cd57 O61 2.439 . S
Cd57 O67 2.240 . S
Cd58 O59 2.240 . S
Cd58 O66 2.223 . S
Cd58 O68 2.297 . S
Cd58 O69 2.439 . S
O59 Cd58 2.240 . S
O59 C64 1.279 . S
O60 Cd57 2.297 . S
O60 C62 1.247 . S
O61 Cd57 2.439 . S
O61 C62 1.208 . S
C62 O60 1.247 . S
C62 O61 1.208 . S
C63 O68 1.247 . S
C63 O69 1.208 . S
C64 O56 1.315 . S
C64 O59 1.279 . S
C65 O66 1.315 . S
C65 O67 1.279 . S
O66 Cd58 2.223 . S
O66 C65 1.315 . S
O67 Cd57 2.240 . S
O67 C65 1.279 . S
O68 Cd58 2.297 . S
O68 C63 1.247 . S
O69 Cd58 2.439 . S
O69 C63 1.208 . S
O70 Cd71 2.223 . S
O70 C78 1.315 . S
Cd71 O70 2.223 . S
Cd71 O74 2.297 . S
Cd71 O75 2.439 . S
Cd71 O81 2.240 . S
Cd72 O73 2.240 . S
Cd72 O80 2.223 . S
Cd72 O82 2.297 . S
Cd72 O83 2.439 . S
O73 Cd72 2.240 . S
O73 C78 1.279 . S
O74 Cd71 2.297 . S
O74 C76 1.247 . S
O75 Cd71 2.439 . S
O75 C76 1.208 . S
C76 O74 1.247 . S
C76 O75 1.208 . S
C77 O82 1.247 . S
C77 O83 1.208 . S
C78 O70 1.315 . S
C78 O73 1.279 . S
C79 O80 1.315 . S
C79 O81 1.279 . S
O80 Cd72 2.223 . S
O80 C79 1.315 . S
O81 Cd71 2.240 . S
O81 C79 1.279 . S
O82 Cd72 2.297 . S
O82 C77 1.247 . S
O83 Cd72 2.439 . S
O83 C77 1.208 . S
O84 Cd85 2.223 . S
O84 C92 1.315 . S
Cd85 O84 2.223 . S
Cd85 O88 2.297 . S
Cd85 O89 2.439 . S
Cd85 O95 2.240 . S
Cd86 O87 2.240 . S
Cd86 O94 2.223 . S
Cd86 O96 2.297 . S
Cd86 O97 2.439 . S
O87 Cd86 2.240 . S
O87 C92 1.279 . S
O88 Cd85 2.297 . S
O88 C90 1.247 . S
O89 Cd85 2.439 . S
O89 C90 1.208 . S
C90 O88 1.247 . S
C90 O89 1.208 . S
C91 O96 1.247 . S
C91 O97 1.208 . S
C92 O84 1.315 . S
C92 O87 1.279 . S
C93 O94 1.315 . S
C93 O95 1.279 . S
O94 Cd86 2.223 . S
O94 C93 1.315 . S
O95 Cd85 2.240 . S
O95 C93 1.279 . S
O96 Cd86 2.297 . S
O96 C91 1.247 . S
O97 Cd86 2.439 . S
O97 C91 1.208 . S
O98 Cd99 2.223 . S
O98 C106 1.315 . S
Cd99 O98 2.223 . S
Cd99 O102 2.297 . S
Cd99 O103 2.439 . S
Cd99 O109 2.240 . S
Cd100 O101 2.240 . S
Cd100 O108 2.223 1_455 S
Cd100 O110 2.297 . S
Cd100 O111 2.439 . S
O101 Cd100 2.240 . S
O101 C106 1.279 . S
O102 Cd99 2.297 . S
O102 C104 1.247 . S
O103 Cd99 2.439 . S
O103 C104 1.208 . S
C104 O102 1.247 . S
C104 O103 1.208 . S
C105 O110 1.247 . S
C105 O111 1.208 . S
C106 O98 1.315 . S
C106 O101 1.279 . S
C107 O108 1.315 . S
C107 O109 1.279 1_655 S
O108 Cd100 2.223 1_655 S
O108 C107 1.315 . S
O109 Cd99 2.240 . S
O109 C107 1.279 1_455 S
O110 Cd100 2.297 . S
O110 C105 1.247 . S
O111 Cd100 2.439 . S
O111 C105 1.208 . S
O112 Cd113 2.223 . S
O112 C120 1.315 . S
Cd113 O112 2.223 . S
Cd113 O116 2.297 1_565 S
Cd113 O117 2.439 1_565 S
Cd113 O123 2.240 . S
Cd114 O115 2.240 1_565 S
Cd114 O122 2.223 . S
Cd114 O124 2.297 . S
Cd114 O125 2.439 1_565 S
O115 Cd114 2.240 1_545 S
O115 C120 1.279 1_545 S
O116 Cd113 2.297 1_545 S
O116 C118 1.247 . S
O117 Cd113 2.439 1_545 S
O117 C118 1.208 . S
C118 O116 1.247 . S
C118 O117 1.208 . S
C119 O124 1.247 1_545 S
C119 O125 1.208 . S
C120 O112 1.315 . S
C120 O115 1.279 1_565 S
C121 O122 1.315 . S
C121 O123 1.279 . S
O122 Cd114 2.223 . S
O122 C121 1.315 . S
O123 Cd113 2.240 . S
O123 C121 1.279 . S
O124 Cd114 2.297 . S
O124 C119 1.247 1_565 S
O125 Cd114 2.439 1_545 S
O125 C119 1.208 . S
O126 Cd127 2.223 . S
O126 C134 1.315 . S
Cd127 O126 2.223 . S
Cd127 O130 2.297 . S
Cd127 O131 2.439 . S
Cd127 O137 2.240 . S
Cd128 O129 2.240 . S
Cd128 O136 2.223 . S
Cd128 O138 2.297 . S
Cd128 O139 2.439 . S
O129 Cd128 2.240 . S
O129 C134 1.279 . S
O130 Cd127 2.297 . S
O130 C132 1.247 . S
O131 Cd127 2.439 . S
O131 C132 1.208 . S
C132 O130 1.247 . S
C132 O131 1.208 . S
C133 O138 1.247 . S
C133 O139 1.208 . S
C134 O126 1.315 . S
C134 O129 1.279 . S
C135 O136 1.315 . S
C135 O137 1.279 . S
O136 Cd128 2.223 . S
O136 C135 1.315 . S
O137 Cd127 2.240 . S
O137 C135 1.279 . S
O138 Cd128 2.297 . S
O138 C133 1.247 . S
O139 Cd128 2.439 . S
O139 C133 1.208 . S
O140 Cd141 2.223 . S
O140 C148 1.315 . S
Cd141 O140 2.223 . S
Cd141 O144 2.297 1_545 S
Cd141 O145 2.439 1_545 S
Cd141 O151 2.240 . S
Cd142 O143 2.240 1_545 S
Cd142 O150 2.223 . S
Cd142 O152 2.297 . S
Cd142 O153 2.439 . S
O143 Cd142 2.240 1_565 S
O143 C148 1.279 1_565 S
O144 Cd141 2.297 1_565 S
O144 C146 1.247 . S
O145 Cd141 2.439 1_565 S
O145 C146 1.208 . S
C146 O144 1.247 . S
C146 O145 1.208 . S
C147 O152 1.247 . S
C147 O153 1.208 . S
C148 O140 1.315 . S
C148 O143 1.279 1_545 S
C149 O150 1.315 . S
C149 O151 1.279 . S
O150 Cd142 2.223 . S
O150 C149 1.315 . S
O151 Cd141 2.240 . S
O151 C149 1.279 . S
O152 Cd142 2.297 . S
O152 C147 1.247 . S
O153 Cd142 2.439 . S
O153 C147 1.208 . S
O154 Cd155 2.223 . S
O154 C162 1.315 . S
Cd155 O154 2.223 . S
Cd155 O158 2.297 . S
Cd155 O159 2.439 1_554 S
Cd155 O165 2.241 1_554 S
Cd156 O157 2.240 1_556 S
Cd156 O164 2.223 1_556 S
Cd156 O166 2.297 . S
Cd156 O167 2.439 . S
O157 Cd156 2.240 1_554 S
O157 C162 1.279 . S
O158 Cd155 2.297 . S
O158 C160 1.247 . S
O159 Cd155 2.439 1_556 S
O159 C160 1.208 1_556 S
C160 O158 1.247 . S
C160 O159 1.208 1_554 S
C161 O166 1.247 . S
C161 O167 1.208 . S
C162 O154 1.315 . S
C162 O157 1.279 . S
C163 O164 1.315 . S
C163 O165 1.280 1_554 S
O164 Cd156 2.223 1_554 S
O164 C163 1.315 . S
O165 Cd155 2.241 1_556 S
O165 C163 1.280 1_556 S
O166 Cd156 2.297 . S
O166 C161 1.247 . S
O167 Cd156 2.439 . S
O167 C161 1.208 . S
O168 Cd169 2.223 . S
O168 C176 1.315 . S
Cd169 O168 2.223 . S
Cd169 O172 2.297 . S
Cd169 O173 2.439 . S
Cd169 O179 2.240 . S
Cd170 O171 2.240 . S
Cd170 O178 2.223 . S
Cd170 O180 2.297 1_554 S
Cd170 O181 2.439 1_554 S
O171 Cd170 2.240 . S
O171 C176 1.279 . S
O172 Cd169 2.297 . S
O172 C174 1.247 . S
O173 Cd169 2.439 . S
O173 C174 1.208 . S
C174 O172 1.247 . S
C174 O173 1.208 . S
C175 O180 1.247 . S
C175 O181 1.208 . S
C176 O168 1.315 . S
C176 O171 1.279 . S
C177 O178 1.315 . S
C177 O179 1.279 . S
O178 Cd170 2.223 . S
O178 C177 1.315 . S
O179 Cd169 2.240 . S
O179 C177 1.279 . S
O180 Cd170 2.297 1_556 S
O180 C175 1.247 . S
O181 Cd170 2.439 1_556 S
O181 C175 1.208 . S
O182 Cd183 2.223 . S
O182 C190 1.315 . S
Cd183 O182 2.223 . S
Cd183 O186 2.297 . S
Cd183 O187 2.439 . S
Cd183 O193 2.240 . S
Cd184 O185 2.240 . S
Cd184 O192 2.223 . S
Cd184 O194 2.297 1_554 S
Cd184 O195 2.439 1_554 S
O185 Cd184 2.240 . S
O185 C190 1.279 . S
O186 Cd183 2.297 . S
O186 C188 1.247 . S
O187 Cd183 2.439 . S
O187 C188 1.208 . S
C188 O186 1.247 . S
C188 O187 1.208 . S
C189 O194 1.247 . S
C189 O195 1.208 . S
C190 O182 1.315 . S
C190 O185 1.279 . S
C191 O192 1.315 . S
C191 O193 1.279 . S
O192 Cd184 2.223 . S
O192 C191 1.315 . S
O193 Cd183 2.240 . S
O193 C191 1.279 . S
O194 Cd184 2.297 1_556 S
O194 C189 1.247 . S
O195 Cd184 2.439 1_556 S
O195 C189 1.208 . S
O196 Cd197 2.223 . S
O196 C204 1.315 . S
Cd197 O196 2.223 . S
Cd197 O200 2.297 . S
Cd197 O201 2.439 . S
Cd197 O207 2.240 . S
Cd198 O199 2.240 . S
Cd198 O206 2.223 . S
Cd198 O208 2.297 . S
Cd198 O209 2.439 . S
O199 Cd198 2.240 . S
O199 C204 1.279 . S
O200 Cd197 2.297 . S
O200 C202 1.247 . S
O201 Cd197 2.439 . S
O201 C202 1.208 . S
C202 O200 1.247 . S
C202 O201 1.208 . S
C203 O208 1.247 . S
C203 O209 1.208 . S
C204 O196 1.315 . S
C204 O199 1.279 . S
C205 O206 1.315 . S
C205 O207 1.279 . S
O206 Cd198 2.223 . S
O206 C205 1.315 . S
O207 Cd197 2.240 . S
O207 C205 1.279 . S
O208 Cd198 2.297 . S
O208 C203 1.247 . S
O209 Cd198 2.439 . S
O209 C203 1.208 . S
O210 Cd211 2.223 . S
O210 C218 1.315 . S
Cd211 O210 2.223 . S
Cd211 O214 2.297 . S
Cd211 O215 2.439 . S
Cd211 O221 2.240 . S
Cd212 O213 2.240 . S
Cd212 O220 2.223 . S
Cd212 O222 2.297 . S
Cd212 O223 2.439 . S
O213 Cd212 2.240 . S
O213 C218 1.279 . S
O214 Cd211 2.297 . S
O214 C216 1.247 . S
O215 Cd211 2.439 . S
O215 C216 1.208 . S
C216 O214 1.247 . S
C216 O215 1.208 . S
C217 O222 1.247 . S
C217 O223 1.208 . S
C218 O210 1.315 . S
C218 O213 1.279 . S
C219 O220 1.315 . S
C219 O221 1.279 . S
O220 Cd212 2.223 . S
O220 C219 1.315 . S
O221 Cd211 2.240 . S
O221 C219 1.279 . S
O222 Cd212 2.297 . S
O222 C217 1.247 . S
O223 Cd212 2.439 . S
O223 C217 1.208 . S
O224 Cd225 2.223 . S
O224 C232 1.315 . S
Cd225 O224 2.223 . S
Cd225 O228 2.297 . S
Cd225 O229 2.439 . S
Cd225 O235 2.240 . S
Cd226 O227 2.240 . S
Cd226 O234 2.223 . S
Cd226 O236 2.297 1_655 S
Cd226 O237 2.439 . S
O227 Cd226 2.240 . S
O227 C232 1.279 . S
O228 Cd225 2.297 . S
O228 C230 1.247 . S
O229 Cd225 2.439 . S
O229 C230 1.208 . S
C230 O228 1.247 . S
C230 O229 1.208 . S
C231 O236 1.247 1_655 S
C231 O237 1.208 . S
C232 O224 1.315 . S
C232 O227 1.279 . S
C233 O234 1.315 . S
C233 O235 1.279 . S
O234 Cd226 2.223 . S
O234 C233 1.315 . S
O235 Cd225 2.240 . S
O235 C233 1.279 . S
O236 Cd226 2.297 1_455 S
O236 C231 1.247 1_455 S
O237 Cd226 2.439 . S
O237 C231 1.208 . S
O238 Cd239 2.223 . S
O238 C246 1.315 . S
Cd239 O238 2.223 . S
Cd239 O242 2.297 . S
Cd239 O243 2.439 . S
Cd239 O249 2.240 . S
Cd240 O241 2.240 . S
Cd240 O248 2.223 . S
Cd240 O250 2.297 . S
Cd240 O251 2.439 . S
O241 Cd240 2.240 . S
O241 C246 1.279 . S
O242 Cd239 2.297 . S
O242 C244 1.247 . S
O243 Cd239 2.439 . S
O243 C244 1.208 . S
C244 O242 1.247 . S
C244 O243 1.208 . S
C245 O250 1.247 . S
C245 O251 1.208 . S
C246 O238 1.315 . S
C246 O241 1.279 . S
C247 O248 1.315 . S
C247 O249 1.279 . S
O248 Cd240 2.223 . S
O248 C247 1.315 . S
O249 Cd239 2.240 . S
O249 C247 1.279 . S
O250 Cd240 2.297 . S
O250 C245 1.247 . S
O251 Cd240 2.439 . S
O251 C245 1.208 . S
O252 Cd253 2.223 . S
O252 C260 1.315 . S
Cd253 O252 2.223 . S
Cd253 O256 2.297 . S
Cd253 O257 2.439 . S
Cd253 O263 2.240 . S
Cd254 O255 2.240 . S
Cd254 O262 2.223 . S
Cd254 O264 2.297 . S
Cd254 O265 2.439 . S
O255 Cd254 2.240 . S
O255 C260 1.279 . S
O256 Cd253 2.297 . S
O256 C258 1.247 . S
O257 Cd253 2.439 . S
O257 C258 1.208 . S
C258 O256 1.247 . S
C258 O257 1.208 . S
C259 O264 1.247 . S
C259 O265 1.208 . S
C260 O252 1.315 . S
C260 O255 1.279 . S
C261 O262 1.315 . S
C261 O263 1.279 . S
O262 Cd254 2.223 . S
O262 C261 1.315 . S
O263 Cd253 2.240 . S
O263 C261 1.279 . S
O264 Cd254 2.297 . S
O264 C259 1.247 . S
O265 Cd254 2.439 . S
O265 C259 1.208 . S
O266 Cd267 2.223 . S
O266 C274 1.315 . S
Cd267 O266 2.223 . S
Cd267 O270 2.297 . S
Cd267 O271 2.439 . S
Cd267 O277 2.240 . S
Cd268 O269 2.240 . S
Cd268 O276 2.223 . S
Cd268 O278 2.297 . S
Cd268 O279 2.439 . S
O269 Cd268 2.240 . S
O269 C274 1.279 . S
O270 Cd267 2.297 . S
O270 C272 1.247 . S
O271 Cd267 2.439 . S
O271 C272 1.208 . S
C272 O270 1.247 . S
C272 O271 1.208 . S
C273 O278 1.247 . S
C273 O279 1.208 . S
C274 O266 1.315 . S
C274 O269 1.279 . S
C275 O276 1.315 . S
C275 O277 1.279 . S
O276 Cd268 2.223 . S
O276 C275 1.315 . S
O277 Cd267 2.240 . S
O277 C275 1.279 . S
O278 Cd268 2.297 . S
O278 C273 1.247 . S
O279 Cd268 2.439 . S
O279 C273 1.208 . S
O280 Cd281 2.223 . S
O280 C288 1.315 . S
Cd281 O280 2.223 . S
Cd281 O284 2.297 . S
Cd281 O285 2.439 . S
Cd281 O291 2.240 . S
Cd282 O283 2.240 . S
Cd282 O290 2.223 . S
Cd282 O292 2.297 1_554 S
Cd282 O293 2.439 1_554 S
O283 Cd282 2.240 . S
O283 C288 1.279 . S
O284 Cd281 2.297 . S
O284 C286 1.247 . S
O285 Cd281 2.439 . S
O285 C286 1.208 . S
C286 O284 1.247 . S
C286 O285 1.208 . S
C287 O292 1.247 . S
C287 O293 1.208 . S
C288 O280 1.315 . S
C288 O283 1.279 . S
C289 O290 1.315 . S
C289 O291 1.279 . S
O290 Cd282 2.223 . S
O290 C289 1.315 . S
O291 Cd281 2.240 . S
O291 C289 1.279 . S
O292 Cd282 2.297 1_556 S
O292 C287 1.247 . S
O293 Cd282 2.439 1_556 S
O293 C287 1.208 . S
O294 Cd295 2.223 . S
O294 C302 1.315 . S
Cd295 O294 2.223 . S
Cd295 O298 2.297 . S
Cd295 O299 2.439 . S
Cd295 O305 2.240 . S
Cd296 O297 2.240 . S
Cd296 O304 2.223 . S
Cd296 O306 2.297 1_655 S
Cd296 O307 2.439 . S
O297 Cd296 2.240 . S
O297 C302 1.279 . S
O298 Cd295 2.297 . S
O298 C300 1.247 . S
O299 Cd295 2.439 . S
O299 C300 1.208 . S
C300 O298 1.247 . S
C300 O299 1.208 . S
C301 O306 1.247 1_655 S
C301 O307 1.208 . S
C302 O294 1.315 . S
C302 O297 1.279 . S
C303 O304 1.315 . S
C303 O305 1.279 . S
O304 Cd296 2.223 . S
O304 C303 1.315 . S
O305 Cd295 2.240 . S
O305 C303 1.279 . S
O306 Cd296 2.297 1_455 S
O306 C301 1.247 1_455 S
O307 Cd296 2.439 . S
O307 C301 1.208 . S
O308 Cd309 2.223 . S
O308 C316 1.315 . S
Cd309 O308 2.223 . S
Cd309 O312 2.297 . S
Cd309 O313 2.439 . S
Cd309 O319 2.240 . S
Cd310 O311 2.240 . S
Cd310 O318 2.223 . S
Cd310 O320 2.297 . S
Cd310 O321 2.439 . S
O311 Cd310 2.240 . S
O311 C316 1.279 . S
O312 Cd309 2.297 . S
O312 C314 1.247 . S
O313 Cd309 2.439 . S
O313 C314 1.208 . S
C314 O312 1.247 . S
C314 O313 1.208 . S
C315 O320 1.247 . S
C315 O321 1.208 . S
C316 O308 1.315 . S
C316 O311 1.279 . S
C317 O318 1.315 . S
C317 O319 1.279 . S
O318 Cd310 2.223 . S
O318 C317 1.315 . S
O319 Cd309 2.240 . S
O319 C317 1.279 . S
O320 Cd310 2.297 . S
O320 C315 1.247 . S
O321 Cd310 2.439 . S
O321 C315 1.208 . S
O322 Cd323 2.223 . S
O322 C330 1.315 . S
Cd323 O322 2.223 . S
Cd323 O326 2.297 . S
Cd323 O327 2.439 . S
Cd323 O333 2.240 . S
Cd324 O325 2.240 . S
Cd324 O332 2.223 . S
Cd324 O334 2.297 . S
Cd324 O335 2.439 . S
O325 Cd324 2.240 . S
O325 C330 1.279 . S
O326 Cd323 2.297 . S
O326 C328 1.247 . S
O327 Cd323 2.439 . S
O327 C328 1.208 . S
C328 O326 1.247 . S
C328 O327 1.208 . S
C329 O334 1.247 . S
C329 O335 1.208 . S
C330 O322 1.315 . S
C330 O325 1.279 . S
C331 O332 1.315 . S
C331 O333 1.279 . S
O332 Cd324 2.223 . S
O332 C331 1.315 . S
O333 Cd323 2.240 . S
O333 C331 1.279 . S
O334 Cd324 2.297 . S
O334 C329 1.247 . S
O335 Cd324 2.439 . S
O335 C329 1.208 . S
Ho336 C339 2.811 1_455 S
Ho336 O356 2.322 . S
Ho336 O358 2.378 1_454 S
Ho336 O359 2.535 . S
Ho336 O360 2.381 1_554 S
Ho336 O361 2.669 . S
Ho336 O363 2.346 1_545 S
Ho336 O367 2.305 . S
Ho337 C348 2.811 . S
Ho337 O357 2.346 . S
Ho337 O361 2.305 . S
Ho337 O362 2.322 . S
Ho337 O364 2.378 . S
Ho337 O365 2.524 . S
Ho337 O366 2.381 . S
Ho337 O367 2.669 . S
C338 O356 1.259 . S
C338 O357 1.268 . S
C339 Ho336 2.811 1_655 S
C339 C340 1.488 1_554 S
C339 O358 1.215 1_554 S
C339 O359 1.285 1_655 S
C340 C339 1.488 1_556 S
C340 C341 1.348 1_556 S
C340 C345 1.413 . S
C341 C340 1.348 1_554 S
C341 C342 1.442 . S
C341 H368 0.930 . S
C342 C341 1.442 . S
C342 C343 1.381 1_554 S
C342 H369 0.931 . S
C343 C342 1.381 1_556 S
C343 C344 1.321 . S
C344 C343 1.321 . S
C344 C345 1.403 . S
C344 H370 0.934 . S
C345 C340 1.413 . S
C345 C344 1.403 . S
C345 H371 0.930 . S
C346 O360 1.275 . S
C346 O361 1.256 1_556 S
C347 O362 1.259 1_565 S
C347 O363 1.268 . S
C348 Ho337 2.811 . S
C348 C349 1.488 . S
C348 O364 1.215 . S
C348 O365 1.289 . S
C349 C348 1.488 . S
C349 C350 1.348 . S
C349 C354 1.413 . S
C350 C349 1.348 . S
C350 C351 1.442 . S
C350 H372 0.930 . S
C351 C350 1.442 . S
C351 C352 1.381 . S
C351 H373 0.931 1_545 S
C352 C351 1.381 . S
C352 C353 1.321 . S
C353 C352 1.321 . S
C353 C354 1.403 . S
C353 H374 0.934 . S
C354 C349 1.413 . S
C354 C353 1.403 . S
C354 H375 0.930 . S
C355 O366 1.275 . S
C355 O367 1.256 . S
O356 Ho336 2.322 . S
O356 C338 1.259 . S
O357 Ho337 2.346 . S
O357 C338 1.268 . S
O358 Ho336 2.378 1_656 S
O358 C339 1.215 1_556 S
O359 Ho336 2.535 . S
O359 C339 1.285 1_455 S
O360 Ho336 2.381 1_556 S
O360 C346 1.275 . S
O361 Ho336 2.669 . S
O361 Ho337 2.305 . S
O361 C346 1.256 1_554 S
O362 Ho337 2.322 . S
O362 C347 1.259 1_545 S
O363 Ho336 2.346 1_565 S
O363 C347 1.268 . S
O364 Ho337 2.378 . S
O364 C348 1.215 . S
O365 Ho337 2.524 . S
O365 C348 1.289 . S
O366 Ho337 2.381 . S
O366 C355 1.275 . S
O367 Ho336 2.305 . S
O367 Ho337 2.669 . S
O367 C355 1.256 . S
H368 C341 0.930 . S
H369 C342 0.931 . S
H370 C344 0.934 . S
H371 C345 0.930 . S
H372 C350 0.930 . S
H373 C351 0.931 1_565 S
H374 C353 0.934 . S
H375 C354 0.930 . S
Ho376 C379 2.811 . S
Ho376 O396 2.322 . S
Ho376 O398 2.378 . S
Ho376 O399 2.524 . S
Ho376 O400 2.381 . S
Ho376 O401 2.669 . S
Ho376 O403 2.346 . S
Ho376 O407 2.305 . S
Ho377 C388 2.811 . S
Ho377 O397 2.346 . S
Ho377 O401 2.305 . S
Ho377 O402 2.322 . S
Ho377 O404 2.378 . S
Ho377 O405 2.524 . S
Ho377 O406 2.381 . S
Ho377 O407 2.669 . S
C378 O396 1.259 . S
C378 O397 1.268 . S
C379 Ho376 2.811 . S
C379 C380 1.488 . S
C379 O398 1.215 . S
C379 O399 1.289 . S
C380 C379 1.488 . S
C380 C381 1.348 . S
C380 C385 1.413 . S
C381 C380 1.348 . S
C381 C382 1.442 . S
C381 H408 0.930 . S
C382 C381 1.442 . S
C382 C383 1.381 . S
C382 H409 0.931 . S
C383 C382 1.381 . S
C383 C384 1.321 . S
C384 C383 1.321 . S
C384 C385 1.403 . S
C384 H410 0.934 . S
C385 C380 1.413 . S
C385 C384 1.403 . S
C385 H411 0.930 . S
C386 O400 1.275 . S
C386 O401 1.256 . S
C387 O402 1.259 . S
C387 O403 1.268 . S
C388 Ho377 2.811 . S
C388 C389 1.488 . S
C388 O404 1.215 . S
C388 O405 1.289 . S
C389 C388 1.488 . S
C389 C390 1.348 . S
C389 C394 1.413 . S
C390 C389 1.348 . S
C390 C391 1.442 . S
C390 H412 0.930 . S
C391 C390 1.442 . S
C391 C392 1.381 . S
C391 H413 0.931 . S
C392 C391 1.381 . S
C392 C393 1.321 . S
C393 C392 1.321 . S
C393 C394 1.403 . S
C393 H414 0.934 . S
C394 C389 1.413 . S
C394 C393 1.403 . S
C394 H415 0.930 . S
C395 O406 1.275 . S
C395 O407 1.256 . S
O396 Ho376 2.322 . S
O396 C378 1.259 . S
O397 Ho377 2.346 . S
O397 C378 1.268 . S
O398 Ho376 2.378 . S
O398 C379 1.215 . S
O399 Ho376 2.524 . S
O399 C379 1.289 . S
O400 Ho376 2.381 . S
O400 C386 1.275 . S
O401 Ho376 2.669 . S
O401 Ho377 2.305 . S
O401 C386 1.256 . S
O402 Ho377 2.322 . S
O402 C387 1.259 . S
O403 Ho376 2.346 . S
O403 C387 1.268 . S
O404 Ho377 2.378 . S
O404 C388 1.215 . S
O405 Ho377 2.524 . S
O405 C388 1.289 . S
O406 Ho377 2.381 . S
O406 C395 1.275 . S
O407 Ho376 2.305 . S
O407 Ho377 2.669 . S
O407 C395 1.256 . S
H408 C381 0.930 . S
H409 C382 0.931 . S
H410 C384 0.934 . S
H411 C385 0.930 . S
H412 C390 0.930 . S
H413 C391 0.931 . S
H414 C393 0.934 . S
H415 C394 0.930 . S
Ho416 C419 2.811 . S
Ho416 O436 2.322 1_545 S
Ho416 O438 2.378 . S
Ho416 O439 2.524 . S
Ho416 O440 2.381 . S
Ho416 O441 2.669 . S
Ho416 O443 2.346 . S
Ho416 O447 2.305 . S
Ho417 C428 2.811 . S
Ho417 O437 2.346 1_545 S
Ho417 O441 2.305 . S
Ho417 O442 2.322 . S
Ho417 O444 2.378 . S
Ho417 O445 2.524 . S
Ho417 O446 2.381 . S
Ho417 O447 2.669 . S
C418 O436 1.259 . S
C418 O437 1.268 . S
C419 Ho416 2.811 . S
C419 C420 1.488 1_545 S
C419 O438 1.215 . S
C419 O439 1.289 . S
C420 C419 1.488 1_565 S
C420 C421 1.348 . S
C420 C425 1.413 . S
C421 C420 1.348 . S
C421 C422 1.442 . S
C421 H448 0.930 . S
C422 C421 1.442 . S
C422 C423 1.381 . S
C422 H449 0.931 . S
C423 C422 1.381 . S
C423 C424 1.321 . S
C424 C423 1.321 . S
C424 C425 1.403 . S
C424 H450 0.934 . S
C425 C420 1.413 . S
C425 C424 1.403 . S
C425 H451 0.930 . S
C426 O440 1.275 . S
C426 O441 1.256 . S
C427 O442 1.259 . S
C427 O443 1.268 . S
C428 Ho417 2.811 . S
C428 C429 1.488 . S
C428 O444 1.215 . S
C428 O445 1.289 . S
C429 C428 1.488 . S
C429 C430 1.348 . S
C429 C434 1.413 . S
C430 C429 1.348 . S
C430 C431 1.442 . S
C430 H452 0.930 . S
C431 C430 1.442 . S
C431 C432 1.381 . S
C431 H453 0.931 . S
C432 C431 1.381 . S
C432 C433 1.321 . S
C433 C432 1.321 . S
C433 C434 1.403 . S
C433 H454 0.934 . S
C434 C429 1.413 . S
C434 C433 1.403 . S
C434 H455 0.930 . S
C435 O446 1.275 . S
C435 O447 1.256 . S
O436 Ho416 2.322 1_565 S
O436 C418 1.259 . S
O437 Ho417 2.346 1_565 S
O437 C418 1.268 . S
O438 Ho416 2.378 . S
O438 C419 1.215 . S
O439 Ho416 2.524 . S
O439 C419 1.289 . S
O440 Ho416 2.381 . S
O440 C426 1.275 . S
O441 Ho416 2.669 . S
O441 Ho417 2.305 . S
O441 C426 1.256 . S
O442 Ho417 2.322 . S
O442 C427 1.259 . S
O443 Ho416 2.346 . S
O443 C427 1.268 . S
O444 Ho417 2.378 . S
O444 C428 1.215 . S
O445 Ho417 2.524 . S
O445 C428 1.289 . S
O446 Ho417 2.381 . S
O446 C435 1.275 . S
O447 Ho416 2.305 . S
O447 Ho417 2.669 . S
O447 C435 1.256 . S
H448 C421 0.930 . S
H449 C422 0.931 . S
H450 C424 0.934 . S
H451 C425 0.930 . S
H452 C430 0.930 . S
H453 C431 0.931 . S
H454 C433 0.934 . S
H455 C434 0.930 . S
Ho456 C459 2.811 . S
Ho456 O476 2.322 . S
Ho456 O478 2.378 . S
Ho456 O479 2.524 . S
Ho456 O480 2.381 . S
Ho456 O481 2.669 . S
Ho456 O483 2.346 . S
Ho456 O487 2.305 . S
Ho457 C468 2.811 . S
Ho457 O477 2.346 . S
Ho457 O481 2.305 . S
Ho457 O482 2.322 . S
Ho457 O484 2.378 . S
Ho457 O485 2.524 . S
Ho457 O486 2.381 . S
Ho457 O487 2.669 . S
C458 O476 1.259 . S
C458 O477 1.268 . S
C459 Ho456 2.811 . S
C459 C460 1.488 . S
C459 O478 1.215 . S
C459 O479 1.289 . S
C460 C459 1.488 . S
C460 C461 1.348 . S
C460 C465 1.413 . S
C461 C460 1.348 . S
C461 C462 1.442 . S
C461 H488 0.930 . S
C462 C461 1.442 . S
C462 C463 1.381 . S
C462 H489 0.931 . S
C463 C462 1.381 . S
C463 C464 1.321 . S
C464 C463 1.321 . S
C464 C465 1.403 . S
C464 H490 0.934 . S
C465 C460 1.413 . S
C465 C464 1.403 . S
C465 H491 0.930 . S
C466 O480 1.275 . S
C466 O481 1.256 . S
C467 O482 1.259 . S
C467 O483 1.268 . S
C468 Ho457 2.811 . S
C468 C469 1.488 . S
C468 O484 1.215 . S
C468 O485 1.289 . S
C469 C468 1.488 . S
C469 C470 1.348 . S
C469 C474 1.413 . S
C470 C469 1.348 . S
C470 C471 1.442 . S
C470 H492 0.930 . S
C471 C470 1.442 . S
C471 C472 1.381 . S
C471 H493 0.931 . S
C472 C471 1.381 . S
C472 C473 1.321 . S
C473 C472 1.321 . S
C473 C474 1.403 . S
C473 H494 0.934 . S
C474 C469 1.413 . S
C474 C473 1.403 . S
C474 H495 0.930 . S
C475 O486 1.275 . S
C475 O487 1.256 . S
O476 Ho456 2.322 . S
O476 C458 1.259 . S
O477 Ho457 2.346 . S
O477 C458 1.268 . S
O478 Ho456 2.378 . S
O478 C459 1.215 . S
O479 Ho456 2.524 . S
O479 C459 1.289 . S
O480 Ho456 2.381 . S
O480 C466 1.275 . S
O481 Ho456 2.669 . S
O481 Ho457 2.305 . S
O481 C466 1.256 . S
O482 Ho457 2.322 . S
O482 C467 1.259 . S
O483 Ho456 2.346 . S
O483 C467 1.268 . S
O484 Ho457 2.378 . S
O484 C468 1.215 . S
O485 Ho457 2.524 . S
O485 C468 1.289 . S
O486 Ho457 2.381 . S
O486 C475 1.275 . S
O487 Ho456 2.305 . S
O487 Ho457 2.669 . S
O487 C475 1.256 . S
H488 C461 0.930 . S
H489 C462 0.931 . S
H490 C464 0.934 . S
H491 C465 0.930 . S
H492 C470 0.930 . S
H493 C471 0.931 . S
H494 C473 0.934 . S
H495 C474 0.930 . S
Ho496 C499 2.811 . S
Ho496 O516 2.322 . S
Ho496 O518 2.378 . S
Ho496 O519 2.524 . S
Ho496 O520 2.381 . S
Ho496 O521 2.669 . S
Ho496 O523 2.346 . S
Ho496 O527 2.305 . S
Ho497 C508 2.839 . S
Ho497 O517 2.326 1_565 S
Ho497 O521 2.287 1_565 S
Ho497 O522 2.320 1_565 S
Ho497 O524 2.406 . S
Ho497 O525 2.546 . S
Ho497 O526 2.375 1_565 S
Ho497 O527 2.643 1_565 S
C498 O516 1.259 . S
C498 O517 1.268 . S
C499 Ho496 2.811 . S
C499 C500 1.488 . S
C499 O518 1.215 . S
C499 O519 1.289 . S
C500 C499 1.488 . S
C500 C501 1.348 . S
C500 C505 1.413 . S
C501 C500 1.348 . S
C501 C502 1.442 . S
C501 H528 0.930 . S
C502 C501 1.442 . S
C502 C503 1.381 . S
C502 H529 0.931 . S
C503 C502 1.381 . S
C503 C504 1.321 . S
C504 C503 1.321 . S
C504 C505 1.403 . S
C504 H530 0.934 . S
C505 C500 1.413 . S
C505 C504 1.403 . S
C505 H531 0.930 . S
C506 O520 1.275 . S
C506 O521 1.256 . S
C507 O522 1.259 . S
C507 O523 1.268 . S
C508 Ho497 2.839 . S
C508 C509 1.488 . S
C508 O524 1.215 . S
C508 O525 1.289 . S
C509 C508 1.488 . S
C509 C510 1.348 . S
C509 C514 1.413 . S
C510 C509 1.348 . S
C510 C511 1.442 . S
C510 H532 0.930 . S
C511 C510 1.442 . S
C511 C512 1.381 . S
C511 H533 0.931 . S
C512 C511 1.381 . S
C512 C513 1.321 . S
C513 C512 1.321 . S
C513 C514 1.403 . S
C513 H534 0.934 . S
C514 C509 1.413 . S
C514 C513 1.403 . S
C514 H535 0.930 . S
C515 O526 1.275 . S
C515 O527 1.256 . S
O516 Ho496 2.322 . S
O516 C498 1.259 . S
O517 Ho497 2.326 1_545 S
O517 C498 1.268 . S
O518 Ho496 2.378 . S
O518 C499 1.215 . S
O519 Ho496 2.524 . S
O519 C499 1.289 . S
O520 Ho496 2.381 . S
O520 C506 1.275 . S
O521 Ho496 2.669 . S
O521 Ho497 2.287 1_545 S
O521 C506 1.256 . S
O522 Ho497 2.320 1_545 S
O522 C507 1.259 . S
O523 Ho496 2.346 . S
O523 C507 1.268 . S
O524 Ho497 2.406 . S
O524 C508 1.215 . S
O525 Ho497 2.546 . S
O525 C508 1.289 . S
O526 Ho497 2.375 1_545 S
O526 C515 1.275 . S
O527 Ho496 2.305 . S
O527 Ho497 2.643 1_545 S
O527 C515 1.256 . S
H528 C501 0.930 . S
H529 C502 0.931 . S
H530 C504 0.934 . S
H531 C505 0.930 . S
H532 C510 0.930 . S
H533 C511 0.931 . S
H534 C513 0.934 . S
H535 C514 0.930 . S
Ho536 C539 2.811 . S
Ho536 O556 2.322 . S
Ho536 O558 2.378 . S
Ho536 O559 2.524 . S
Ho536 O560 2.381 . S
Ho536 O561 2.669 . S
Ho536 O563 2.346 . S
Ho536 O567 2.305 . S
Ho537 C548 2.811 . S
Ho537 O557 2.346 . S
Ho537 O561 2.305 . S
Ho537 O562 2.322 . S
Ho537 O564 2.378 . S
Ho537 O565 2.524 . S
Ho537 O566 2.381 . S
Ho537 O567 2.669 . S
C538 O556 1.259 . S
C538 O557 1.268 . S
C539 Ho536 2.811 . S
C539 C540 1.488 . S
C539 O558 1.215 . S
C539 O559 1.289 . S
C540 C539 1.488 . S
C540 C541 1.348 . S
C540 C545 1.413 . S
C541 C540 1.348 . S
C541 C542 1.442 . S
C541 H568 0.930 . S
C542 C541 1.442 . S
C542 C543 1.381 . S
C542 H569 0.931 . S
C543 C542 1.381 . S
C543 C544 1.321 . S
C544 C543 1.321 . S
C544 C545 1.403 . S
C544 H570 0.934 . S
C545 C540 1.413 . S
C545 C544 1.403 . S
C545 H571 0.930 . S
C546 O560 1.275 . S
C546 O561 1.256 . S
C547 O562 1.259 . S
C547 O563 1.268 . S
C548 Ho537 2.811 . S
C548 C549 1.488 . S
C548 O564 1.215 . S
C548 O565 1.289 . S
C549 C548 1.488 . S
C549 C550 1.348 . S
C549 C554 1.413 . S
C550 C549 1.348 . S
C550 C551 1.442 . S
C550 H572 0.930 . S
C551 C550 1.442 . S
C551 C552 1.381 . S
C551 H573 0.931 . S
C552 C551 1.381 . S
C552 C553 1.321 . S
C553 C552 1.321 . S
C553 C554 1.403 . S
C553 H574 0.934 . S
C554 C549 1.413 . S
C554 C553 1.403 . S
C554 H575 0.930 . S
C555 O566 1.275 . S
C555 O567 1.256 . S
O556 Ho536 2.322 . S
O556 C538 1.259 . S
O557 Ho537 2.346 . S
O557 C538 1.268 . S
O558 Ho536 2.378 . S
O558 C539 1.215 . S
O559 Ho536 2.524 . S
O559 C539 1.289 . S
O560 Ho536 2.381 . S
O560 C546 1.275 . S
O561 Ho536 2.669 . S
O561 Ho537 2.305 . S
O561 C546 1.256 . S
O562 Ho537 2.322 . S
O562 C547 1.259 . S
O563 Ho536 2.346 . S
O563 C547 1.268 . S
O564 Ho537 2.378 . S
O564 C548 1.215 . S
O565 Ho537 2.524 . S
O565 C548 1.289 . S
O566 Ho537 2.381 . S
O566 C555 1.275 . S
O567 Ho536 2.305 . S
O567 Ho537 2.669 . S
O567 C555 1.256 . S
H568 C541 0.930 . S
H569 C542 0.931 . S
H570 C544 0.934 . S
H571 C545 0.930 . S
H572 C550 0.930 . S
H573 C551 0.931 . S
H574 C553 0.934 . S
H575 C554 0.930 . S
Ho576 C579 2.811 . S
Ho576 O596 2.322 . S
Ho576 O598 2.380 1_545 S
Ho576 O599 2.524 . S
Ho576 O600 2.381 1_545 S
Ho576 O601 2.669 . S
Ho576 O603 2.346 . S
Ho576 O607 2.305 . S
Ho577 C588 2.811 . S
Ho577 O597 2.346 1_556 S
Ho577 O601 2.305 1_556 S
Ho577 O602 2.322 1_556 S
Ho577 O604 2.378 . S
Ho577 O605 2.524 . S
Ho577 O606 2.381 1_556 S
Ho577 O607 2.669 1_556 S
C578 O596 1.259 . S
C578 O597 1.268 . S
C579 Ho576 2.811 . S
C579 C580 1.495 . S
C579 O598 1.217 1_545 S
C579 O599 1.289 . S
C580 C579 1.495 . S
C580 C581 1.360 . S
C580 C585 1.393 1_545 S
C581 C580 1.360 . S
C581 C582 1.442 . S
C581 H608 0.930 . S
C582 C581 1.442 . S
C582 C583 1.381 1_545 S
C582 H609 0.931 . S
C583 C582 1.381 1_565 S
C583 C584 1.321 . S
C584 C583 1.321 . S
C584 C585 1.403 . S
C584 H610 0.934 . S
C585 C580 1.393 1_565 S
C585 C584 1.403 . S
C585 H611 0.930 . S
C586 O600 1.275 . S
C586 O601 1.256 1_565 S
C587 O602 1.259 . S
C587 O603 1.268 . S
C588 Ho577 2.811 . S
C588 C589 1.488 . S
C588 O604 1.215 . S
C588 O605 1.289 . S
C589 C588 1.488 . S
C589 C590 1.348 . S
C589 C594 1.413 . S
C590 C589 1.348 . S
C590 C591 1.442 . S
C590 H612 0.930 . S
C591 C590 1.442 . S
C591 C592 1.381 . S
C591 H613 0.931 . S
C592 C591 1.381 . S
C592 C593 1.321 . S
C593 C592 1.321 . S
C593 C594 1.403 . S
C593 H614 0.934 . S
C594 C589 1.413 . S
C594 C593 1.403 . S
C594 H615 0.930 . S
C595 O606 1.275 . S
C595 O607 1.256 . S
O596 Ho576 2.322 . S
O596 C578 1.259 . S
O597 Ho577 2.346 1_554 S
O597 C578 1.268 . S
O598 Ho576 2.380 1_565 S
O598 C579 1.217 1_565 S
O599 Ho576 2.524 . S
O599 C579 1.289 . S
O600 Ho576 2.381 1_565 S
O600 C586 1.275 . S
O601 Ho576 2.669 . S
O601 Ho577 2.305 1_554 S
O601 C586 1.256 1_545 S
O602 Ho577 2.322 1_554 S
O602 C587 1.259 . S
O603 Ho576 2.346 . S
O603 C587 1.268 . S
O604 Ho577 2.378 . S
O604 C588 1.215 . S
O605 Ho577 2.524 . S
O605 C588 1.289 . S
O606 Ho577 2.381 1_554 S
O606 C595 1.275 . S
O607 Ho576 2.305 . S
O607 Ho577 2.669 1_554 S
O607 C595 1.256 . S
H608 C581 0.930 . S
H609 C582 0.931 . S
H610 C584 0.934 . S
H611 C585 0.930 . S
H612 C590 0.930 . S
H613 C591 0.931 . S
H614 C593 0.934 . S
H615 C594 0.930 . S
Ho616 C619 2.811 . S
Ho616 O636 2.322 . S
Ho616 O638 2.378 . S
Ho616 O639 2.524 . S
Ho616 O640 2.381 . S
Ho616 O641 2.669 . S
Ho616 O643 2.346 . S
Ho616 O647 2.305 . S
Ho617 C628 2.811 . S
Ho617 O637 2.346 . S
Ho617 O641 2.305 . S
Ho617 O642 2.322 . S
Ho617 O644 2.378 . S
Ho617 O645 2.524 . S
Ho617 O646 2.381 . S
Ho617 O647 2.669 . S
C618 O636 1.259 . S
C618 O637 1.268 . S
C619 Ho616 2.811 . S
C619 C620 1.488 . S
C619 O638 1.215 . S
C619 O639 1.289 . S
C620 C619 1.488 . S
C620 C621 1.348 . S
C620 C625 1.413 . S
C621 C620 1.348 . S
C621 C622 1.442 . S
C621 H648 0.930 . S
C622 C621 1.442 . S
C622 C623 1.381 . S
C622 H649 0.931 . S
C623 C622 1.381 . S
C623 C624 1.321 . S
C624 C623 1.321 . S
C624 C625 1.403 . S
C624 H650 0.934 . S
C625 C620 1.413 . S
C625 C624 1.403 . S
C625 H651 0.930 . S
C626 O640 1.275 . S
C626 O641 1.256 . S
C627 O642 1.259 . S
C627 O643 1.268 . S
C628 Ho617 2.811 . S
C628 C629 1.488 . S
C628 O644 1.215 . S
C628 O645 1.289 . S
C629 C628 1.488 . S
C629 C630 1.348 . S
C629 C634 1.413 . S
C630 C629 1.348 . S
C630 C631 1.442 . S
C630 H652 0.930 . S
C631 C630 1.442 . S
C631 C632 1.381 . S
C631 H653 0.931 . S
C632 C631 1.381 . S
C632 C633 1.321 . S
C633 C632 1.321 . S
C633 C634 1.403 . S
C633 H654 0.934 . S
C634 C629 1.413 . S
C634 C633 1.403 . S
C634 H655 0.930 . S
C635 O646 1.275 . S
C635 O647 1.256 . S
O636 Ho616 2.322 . S
O636 C618 1.259 . S
O637 Ho617 2.346 . S
O637 C618 1.268 . S
O638 Ho616 2.378 . S
O638 C619 1.215 . S
O639 Ho616 2.524 . S
O639 C619 1.289 . S
O640 Ho616 2.381 . S
O640 C626 1.275 . S
O641 Ho616 2.669 . S
O641 Ho617 2.305 . S
O641 C626 1.256 . S
O642 Ho617 2.322 . S
O642 C627 1.259 . S
O643 Ho616 2.346 . S
O643 C627 1.268 . S
O644 Ho617 2.378 . S
O644 C628 1.215 . S
O645 Ho617 2.524 . S
O645 C628 1.289 . S
O646 Ho617 2.381 . S
O646 C635 1.275 . S
O647 Ho616 2.305 . S
O647 Ho617 2.669 . S
O647 C635 1.256 . S
H648 C621 0.930 . S
H649 C622 0.931 . S
H650 C624 0.934 . S
H651 C625 0.930 . S
H652 C630 0.930 . S
H653 C631 0.931 . S
H654 C633 0.934 . S
H655 C634 0.930 . S
Ho656 C659 2.811 . S
Ho656 O676 2.322 1_554 S
Ho656 O678 2.378 . S
Ho656 O679 2.524 . S
Ho656 O680 2.381 . S
Ho656 O681 2.669 . S
Ho656 O683 2.346 . S
Ho656 O687 2.305 . S
Ho657 C668 2.811 . S
Ho657 O677 2.346 1_554 S
Ho657 O681 2.305 . S
Ho657 O682 2.322 . S
Ho657 O684 2.378 . S
Ho657 O685 2.524 . S
Ho657 O686 2.381 . S
Ho657 O687 2.669 . S
C658 O676 1.259 . S
C658 O677 1.268 . S
C659 Ho656 2.811 . S
C659 C660 1.488 . S
C659 O678 1.215 . S
C659 O679 1.289 . S
C660 C659 1.488 . S
C660 C661 1.348 1_554 S
C660 C665 1.413 . S
C661 C660 1.348 1_556 S
C661 C662 1.442 . S
C661 H688 0.930 . S
C662 C661 1.442 . S
C662 C663 1.381 . S
C662 H689 0.931 . S
C663 C662 1.381 . S
C663 C664 1.321 1_556 S
C664 C663 1.321 1_554 S
C664 C665 1.403 . S
C664 H690 0.934 . S
C665 C660 1.413 . S
C665 C664 1.403 . S
C665 H691 0.930 . S
C666 O680 1.275 . S
C666 O681 1.256 . S
C667 O682 1.259 . S
C667 O683 1.268 . S
C668 Ho657 2.811 . S
C668 C669 1.488 . S
C668 O684 1.215 . S
C668 O685 1.289 . S
C669 C668 1.488 . S
C669 C670 1.348 . S
C669 C674 1.413 . S
C670 C669 1.348 . S
C670 C671 1.442 . S
C670 H692 0.930 . S
C671 C670 1.442 . S
C671 C672 1.381 . S
C671 H693 0.931 . S
C672 C671 1.381 . S
C672 C673 1.321 . S
C673 C672 1.321 . S
C673 C674 1.403 . S
C673 H694 0.934 . S
C674 C669 1.413 . S
C674 C673 1.403 . S
C674 H695 0.930 . S
C675 O686 1.275 . S
C675 O687 1.256 . S
O676 Ho656 2.322 1_556 S
O676 C658 1.259 . S
O677 Ho657 2.346 1_556 S
O677 C658 1.268 . S
O678 Ho656 2.378 . S
O678 C659 1.215 . S
O679 Ho656 2.524 . S
O679 C659 1.289 . S
O680 Ho656 2.381 . S
O680 C666 1.275 . S
O681 Ho656 2.669 . S
O681 Ho657 2.305 . S
O681 C666 1.256 . S
O682 Ho657 2.322 . S
O682 C667 1.259 . S
O683 Ho656 2.346 . S
O683 C667 1.268 . S
O684 Ho657 2.378 . S
O684 C668 1.215 . S
O685 Ho657 2.524 . S
O685 C668 1.289 . S
O686 Ho657 2.381 . S
O686 C675 1.275 . S
O687 Ho656 2.305 . S
O687 Ho657 2.669 . S
O687 C675 1.256 . S
H688 C661 0.930 . S
H689 C662 0.931 . S
H690 C664 0.934 . S
H691 C665 0.930 . S
H692 C670 0.930 . S
H693 C671 0.931 . S
H694 C673 0.934 . S
H695 C674 0.930 . S
Ho696 C699 2.811 . S
Ho696 O716 2.322 . S
Ho696 O718 2.378 . S
Ho696 O719 2.524 . S
Ho696 O720 2.381 . S
Ho696 O721 2.669 . S
Ho696 O723 2.346 . S
Ho696 O727 2.305 . S
Ho697 C708 2.811 . S
Ho697 O717 2.346 . S
Ho697 O721 2.305 . S
Ho697 O722 2.322 . S
Ho697 O724 2.378 . S
Ho697 O725 2.524 . S
Ho697 O726 2.381 . S
Ho697 O727 2.669 . S
C698 O716 1.259 . S
C698 O717 1.268 . S
C699 Ho696 2.811 . S
C699 C700 1.488 . S
C699 O718 1.215 . S
C699 O719 1.289 . S
C700 C699 1.488 . S
C700 C701 1.348 . S
C700 C705 1.413 . S
C701 C700 1.348 . S
C701 C702 1.442 . S
C701 H728 0.930 . S
C702 C701 1.442 . S
C702 C703 1.381 1_655 S
C702 H729 0.931 . S
C703 C702 1.381 1_455 S
C703 C704 1.321 1_455 S
C704 C703 1.321 1_655 S
C704 C705 1.403 . S
C704 H730 0.934 1_655 S
C705 C700 1.413 . S
C705 C704 1.403 . S
C705 H731 0.930 . S
C706 O720 1.275 . S
C706 O721 1.256 . S
C707 O722 1.259 . S
C707 O723 1.268 . S
C708 Ho697 2.811 . S
C708 C709 1.488 . S
C708 O724 1.215 . S
C708 O725 1.289 . S
C709 C708 1.488 . S
C709 C710 1.348 . S
C709 C714 1.413 . S
C710 C709 1.348 . S
C710 C711 1.442 . S
C710 H732 0.930 . S
C711 C710 1.442 . S
C711 C712 1.381 . S
C711 H733 0.931 . S
C712 C711 1.381 . S
C712 C713 1.321 . S
C713 C712 1.321 . S
C713 C714 1.403 . S
C713 H734 0.934 . S
C714 C709 1.413 . S
C714 C713 1.403 . S
C714 H735 0.930 . S
C715 O726 1.275 . S
C715 O727 1.256 . S
O716 Ho696 2.322 . S
O716 C698 1.259 . S
O717 Ho697 2.346 . S
O717 C698 1.268 . S
O718 Ho696 2.378 . S
O718 C699 1.215 . S
O719 Ho696 2.524 . S
O719 C699 1.289 . S
O720 Ho696 2.381 . S
O720 C706 1.275 . S
O721 Ho696 2.669 . S
O721 Ho697 2.305 . S
O721 C706 1.256 . S
O722 Ho697 2.322 . S
O722 C707 1.259 . S
O723 Ho696 2.346 . S
O723 C707 1.268 . S
O724 Ho697 2.378 . S
O724 C708 1.215 . S
O725 Ho697 2.524 . S
O725 C708 1.289 . S
O726 Ho697 2.381 . S
O726 C715 1.275 . S
O727 Ho696 2.305 . S
O727 Ho697 2.669 . S
O727 C715 1.256 . S
H728 C701 0.930 . S
H729 C702 0.931 . S
H730 C704 0.934 1_455 S
H731 C705 0.930 . S
H732 C710 0.930 . S
H733 C711 0.931 . S
H734 C713 0.934 . S
H735 C714 0.930 . S
Ho736 C739 2.811 . S
Ho736 O756 2.322 . S
Ho736 O758 2.378 . S
Ho736 O759 2.524 . S
Ho736 O760 2.381 . S
Ho736 O761 2.669 . S
Ho736 O763 2.346 . S
Ho736 O767 2.305 . S
Ho737 C748 2.811 . S
Ho737 O757 2.346 . S
Ho737 O761 2.305 . S
Ho737 O762 2.322 . S
Ho737 O764 2.378 . S
Ho737 O765 2.524 . S
Ho737 O766 2.381 . S
Ho737 O767 2.669 . S
C738 O756 1.259 . S
C738 O757 1.268 . S
C739 Ho736 2.811 . S
C739 C740 1.488 . S
C739 O758 1.215 . S
C739 O759 1.289 . S
C740 C739 1.488 . S
C740 C741 1.348 . S
C740 C745 1.413 . S
C741 C740 1.348 . S
C741 C742 1.442 1_455 S
C741 H768 0.930 . S
C742 C741 1.442 1_655 S
C742 C743 1.380 1_655 S
C742 H769 0.931 . S
C743 C742 1.380 1_455 S
C743 C744 1.324 . S
C744 C743 1.324 . S
C744 C745 1.403 . S
C744 H770 0.934 . S
C745 C740 1.413 . S
C745 C744 1.403 . S
C745 H771 0.930 . S
C746 O760 1.275 . S
C746 O761 1.256 . S
C747 O762 1.259 . S
C747 O763 1.268 . S
C748 Ho737 2.811 . S
C748 C749 1.488 . S
C748 O764 1.215 . S
C748 O765 1.289 . S
C749 C748 1.488 . S
C749 C750 1.348 . S
C749 C754 1.413 . S
C750 C749 1.348 . S
C750 C751 1.442 . S
C750 H772 0.930 . S
C751 C750 1.442 . S
C751 C752 1.381 . S
C751 H773 0.931 . S
C752 C751 1.381 . S
C752 C753 1.321 . S
C753 C752 1.321 . S
C753 C754 1.403 . S
C753 H774 0.934 . S
C754 C749 1.413 . S
C754 C753 1.403 . S
C754 H775 0.930 . S
C755 O766 1.275 . S
C755 O767 1.256 . S
O756 Ho736 2.322 . S
O756 C738 1.259 . S
O757 Ho737 2.346 . S
O757 C738 1.268 . S
O758 Ho736 2.378 . S
O758 C739 1.215 . S
O759 Ho736 2.524 . S
O759 C739 1.289 . S
O760 Ho736 2.381 . S
O760 C746 1.275 . S
O761 Ho736 2.669 . S
O761 Ho737 2.305 . S
O761 C746 1.256 . S
O762 Ho737 2.322 . S
O762 C747 1.259 . S
O763 Ho736 2.346 . S
O763 C747 1.268 . S
O764 Ho737 2.378 . S
O764 C748 1.215 . S
O765 Ho737 2.524 . S
O765 C748 1.289 . S
O766 Ho737 2.381 . S
O766 C755 1.275 . S
O767 Ho736 2.305 . S
O767 Ho737 2.669 . S
O767 C755 1.256 . S
H768 C741 0.930 . S
H769 C742 0.931 . S
H770 C744 0.934 . S
H771 C745 0.930 . S
H772 C750 0.930 . S
H773 C751 0.931 . S
H774 C753 0.934 . S
H775 C754 0.930 . S
Ho776 C779 2.811 . S
Ho776 O796 2.322 . S
Ho776 O798 2.378 . S
Ho776 O799 2.524 . S
Ho776 O800 2.381 . S
Ho776 O801 2.669 . S
Ho776 O803 2.346 . S
Ho776 O807 2.305 . S
Ho777 C788 2.811 . S
Ho777 O797 2.346 . S
Ho777 O801 2.305 . S
Ho777 O802 2.322 . S
Ho777 O804 2.378 . S
Ho777 O805 2.524 . S
Ho777 O806 2.381 . S
Ho777 O807 2.669 . S
C778 O796 1.259 . S
C778 O797 1.268 . S
C779 Ho776 2.811 . S
C779 C780 1.488 . S
C779 O798 1.215 . S
C779 O799 1.289 . S
C780 C779 1.488 . S
C780 C781 1.348 . S
C780 C785 1.413 . S
C781 C780 1.348 . S
C781 C782 1.442 . S
C781 H808 0.930 . S
C782 C781 1.442 . S
C782 C783 1.381 . S
C782 H809 0.931 . S
C783 C782 1.381 . S
C783 C784 1.321 . S
C784 C783 1.321 . S
C784 C785 1.403 . S
C784 H810 0.934 . S
C785 C780 1.413 . S
C785 C784 1.403 . S
C785 H811 0.930 . S
C786 O800 1.275 . S
C786 O801 1.256 . S
C787 O802 1.259 . S
C787 O803 1.268 . S
C788 Ho777 2.811 . S
C788 C789 1.488 . S
C788 O804 1.215 . S
C788 O805 1.289 . S
C789 C788 1.488 . S
C789 C790 1.348 . S
C789 C794 1.413 . S
C790 C789 1.348 . S
C790 C791 1.442 . S
C790 H812 0.930 . S
C791 C790 1.442 . S
C791 C792 1.381 . S
C791 H813 0.931 . S
C792 C791 1.381 . S
C792 C793 1.321 . S
C793 C792 1.321 . S
C793 C794 1.403 . S
C793 H814 0.934 . S
C794 C789 1.413 . S
C794 C793 1.403 . S
C794 H815 0.930 . S
C795 O806 1.275 . S
C795 O807 1.256 . S
O796 Ho776 2.322 . S
O796 C778 1.259 . S
O797 Ho777 2.346 . S
O797 C778 1.268 . S
O798 Ho776 2.378 . S
O798 C779 1.215 . S
O799 Ho776 2.524 . S
O799 C779 1.289 . S
O800 Ho776 2.381 . S
O800 C786 1.275 . S
O801 Ho776 2.669 . S
O801 Ho777 2.305 . S
O801 C786 1.256 . S
O802 Ho777 2.322 . S
O802 C787 1.259 . S
O803 Ho776 2.346 . S
O803 C787 1.268 . S
O804 Ho777 2.378 . S
O804 C788 1.215 . S
O805 Ho777 2.524 . S
O805 C788 1.289 . S
O806 Ho777 2.381 . S
O806 C795 1.275 . S
O807 Ho776 2.305 . S
O807 Ho777 2.669 . S
O807 C795 1.256 . S
H808 C781 0.930 . S
H809 C782 0.931 . S
H810 C784 0.934 . S
H811 C785 0.930 . S
H812 C790 0.930 . S
H813 C791 0.931 . S
H814 C793 0.934 . S
H815 C794 0.930 . S
Ho816 C819 2.811 . S
Ho816 O836 2.322 . S
Ho816 O838 2.378 . S
Ho816 O839 2.524 . S
Ho816 O840 2.381 . S
Ho816 O841 2.669 . S
Ho816 O843 2.346 . S
Ho816 O847 2.305 . S
Ho817 C828 2.811 . S
Ho817 O837 2.346 . S
Ho817 O841 2.305 . S
Ho817 O842 2.322 . S
Ho817 O844 2.378 . S
Ho817 O845 2.524 . S
Ho817 O846 2.381 . S
Ho817 O847 2.669 . S
C818 O836 1.259 . S
C818 O837 1.268 . S
C819 Ho816 2.811 . S
C819 C820 1.488 . S
C819 O838 1.215 . S
C819 O839 1.289 . S
C820 C819 1.488 . S
C820 C821 1.348 . S
C820 C825 1.413 . S
C821 C820 1.348 . S
C821 C822 1.442 . S
C821 H848 0.930 . S
C822 C821 1.442 . S
C822 C823 1.381 . S
C822 H849 0.931 . S
C823 C822 1.381 . S
C823 C824 1.321 . S
C824 C823 1.321 . S
C824 C825 1.403 . S
C824 H850 0.934 . S
C825 C820 1.413 . S
C825 C824 1.403 . S
C825 H851 0.930 . S
C826 O840 1.275 . S
C826 O841 1.256 . S
C827 O842 1.259 . S
C827 O843 1.268 . S
C828 Ho817 2.811 . S
C828 C829 1.488 . S
C828 O844 1.215 . S
C828 O845 1.289 . S
C829 C828 1.488 . S
C829 C830 1.348 . S
C829 C834 1.413 . S
C830 C829 1.348 . S
C830 C831 1.442 . S
C830 H852 0.930 . S
C831 C830 1.442 . S
C831 C832 1.381 . S
C831 H853 0.931 . S
C832 C831 1.381 . S
C832 C833 1.321 . S
C833 C832 1.321 . S
C833 C834 1.403 . S
C833 H854 0.934 . S
C834 C829 1.413 . S
C834 C833 1.403 . S
C834 H855 0.930 . S
C835 O846 1.275 . S
C835 O847 1.256 . S
O836 Ho816 2.322 . S
O836 C818 1.259 . S
O837 Ho817 2.346 . S
O837 C818 1.268 . S
O838 Ho816 2.378 . S
O838 C819 1.215 . S
O839 Ho816 2.524 . S
O839 C819 1.289 . S
O840 Ho816 2.381 . S
O840 C826 1.275 . S
O841 Ho816 2.669 . S
O841 Ho817 2.305 . S
O841 C826 1.256 . S
O842 Ho817 2.322 . S
O842 C827 1.259 . S
O843 Ho816 2.346 . S
O843 C827 1.268 . S
O844 Ho817 2.378 . S
O844 C828 1.215 . S
O845 Ho817 2.524 . S
O845 C828 1.289 . S
O846 Ho817 2.381 . S
O846 C835 1.275 . S
O847 Ho816 2.305 . S
O847 Ho817 2.669 . S
O847 C835 1.256 . S
H848 C821 0.930 . S
H849 C822 0.931 . S
H850 C824 0.934 . S
H851 C825 0.930 . S
H852 C830 0.930 . S
H853 C831 0.931 . S
H854 C833 0.934 . S
H855 C834 0.930 . S
Ho856 C859 2.811 . S
Ho856 O876 2.322 . S
Ho856 O878 2.378 . S
Ho856 O879 2.524 . S
Ho856 O880 2.381 . S
Ho856 O881 2.669 . S
Ho856 O883 2.346 . S
Ho856 O887 2.305 . S
Ho857 C868 2.811 . S
Ho857 O877 2.346 . S
Ho857 O881 2.305 . S
Ho857 O882 2.322 . S
Ho857 O884 2.378 . S
Ho857 O885 2.524 . S
Ho857 O886 2.381 . S
Ho857 O887 2.669 . S
C858 O876 1.259 . S
C858 O877 1.268 . S
C859 Ho856 2.811 . S
C859 C860 1.488 . S
C859 O878 1.215 . S
C859 O879 1.289 . S
C860 C859 1.488 . S
C860 C861 1.348 . S
C860 C865 1.413 . S
C861 C860 1.348 . S
C861 C862 1.442 . S
C861 H888 0.930 . S
C862 C861 1.442 . S
C862 C863 1.381 . S
C862 H889 0.931 . S
C863 C862 1.381 . S
C863 C864 1.321 . S
C864 C863 1.321 . S
C864 C865 1.403 . S
C864 H890 0.934 . S
C865 C860 1.413 . S
C865 C864 1.403 . S
C865 H891 0.930 . S
C866 O880 1.275 . S
C866 O881 1.256 . S
C867 O882 1.259 . S
C867 O883 1.268 . S
C868 Ho857 2.811 . S
C868 C869 1.488 . S
C868 O884 1.215 . S
C868 O885 1.289 . S
C869 C868 1.488 . S
C869 C870 1.348 . S
C869 C874 1.413 . S
C870 C869 1.348 . S
C870 C871 1.442 . S
C870 H892 0.930 . S
C871 C870 1.442 . S
C871 C872 1.381 . S
C871 H893 0.931 . S
C872 C871 1.381 . S
C872 C873 1.321 . S
C873 C872 1.321 . S
C873 C874 1.403 . S
C873 H894 0.934 . S
C874 C869 1.413 . S
C874 C873 1.403 . S
C874 H895 0.930 . S
C875 O886 1.275 . S
C875 O887 1.256 . S
O876 Ho856 2.322 . S
O876 C858 1.259 . S
O877 Ho857 2.346 . S
O877 C858 1.268 . S
O878 Ho856 2.378 . S
O878 C859 1.215 . S
O879 Ho856 2.524 . S
O879 C859 1.289 . S
O880 Ho856 2.381 . S
O880 C866 1.275 . S
O881 Ho856 2.669 . S
O881 Ho857 2.305 . S
O881 C866 1.256 . S
O882 Ho857 2.322 . S
O882 C867 1.259 . S
O883 Ho856 2.346 . S
O883 C867 1.268 . S
O884 Ho857 2.378 . S
O884 C868 1.215 . S
O885 Ho857 2.524 . S
O885 C868 1.289 . S
O886 Ho857 2.381 . S
O886 C875 1.275 . S
O887 Ho856 2.305 . S
O887 Ho857 2.669 . S
O887 C875 1.256 . S
H888 C861 0.930 . S
H889 C862 0.931 . S
H890 C864 0.934 . S
H891 C865 0.930 . S
H892 C870 0.930 . S
H893 C871 0.931 . S
H894 C873 0.934 . S
H895 C874 0.930 . S
Ho896 C899 2.811 . S
Ho896 O916 2.322 . S
Ho896 O918 2.378 . S
Ho896 O919 2.524 . S
Ho896 O920 2.381 . S
Ho896 O921 2.669 . S
Ho896 O923 2.346 . S
Ho896 O927 2.305 . S
Ho897 C908 2.811 . S
Ho897 O917 2.346 . S
Ho897 O921 2.305 . S
Ho897 O922 2.322 . S
Ho897 O924 2.378 . S
Ho897 O925 2.524 . S
Ho897 O926 2.381 . S
Ho897 O927 2.669 . S
C898 O916 1.259 . S
C898 O917 1.268 . S
C899 Ho896 2.811 . S
C899 C900 1.488 . S
C899 O918 1.215 . S
C899 O919 1.289 . S
C900 C899 1.488 . S
C900 C901 1.348 . S
C900 C905 1.413 . S
C901 C900 1.348 . S
C901 C902 1.442 . S
C901 H928 0.930 . S
C902 C901 1.442 . S
C902 C903 1.381 . S
C902 H929 0.931 . S
C903 C902 1.381 . S
C903 C904 1.321 . S
C904 C903 1.321 . S
C904 C905 1.403 . S
C904 H930 0.934 . S
C905 C900 1.413 . S
C905 C904 1.403 . S
C905 H931 0.930 . S
C906 O920 1.275 . S
C906 O921 1.256 . S
C907 O922 1.259 . S
C907 O923 1.268 . S
C908 Ho897 2.811 . S
C908 C909 1.488 . S
C908 O924 1.215 . S
C908 O925 1.289 . S
C909 C908 1.488 . S
C909 C910 1.348 . S
C909 C914 1.413 . S
C910 C909 1.348 . S
C910 C911 1.442 . S
C910 H932 0.930 . S
C911 C910 1.442 . S
C911 C912 1.381 . S
C911 H933 0.931 . S
C912 C911 1.381 . S
C912 C913 1.321 . S
C913 C912 1.321 . S
C913 C914 1.403 . S
C913 H934 0.934 . S
C914 C909 1.413 . S
C914 C913 1.403 . S
C914 H935 0.930 . S
C915 O926 1.275 . S
C915 O927 1.256 . S
O916 Ho896 2.322 . S
O916 C898 1.259 . S
O917 Ho897 2.346 . S
O917 C898 1.268 . S
O918 Ho896 2.378 . S
O918 C899 1.215 . S
O919 Ho896 2.524 . S
O919 C899 1.289 . S
O920 Ho896 2.381 . S
O920 C906 1.275 . S
O921 Ho896 2.669 . S
O921 Ho897 2.305 . S
O921 C906 1.256 . S
O922 Ho897 2.322 . S
O922 C907 1.259 . S
O923 Ho896 2.346 . S
O923 C907 1.268 . S
O924 Ho897 2.378 . S
O924 C908 1.215 . S
O925 Ho897 2.524 . S
O925 C908 1.289 . S
O926 Ho897 2.381 . S
O926 C915 1.275 . S
O927 Ho896 2.305 . S
O927 Ho897 2.669 . S
O927 C915 1.256 . S
H928 C901 0.930 . S
H929 C902 0.931 . S
H930 C904 0.934 . S
H931 C905 0.930 . S
H932 C910 0.930 . S
H933 C911 0.931 . S
H934 C913 0.934 . S
H935 C914 0.930 . S
Ho936 C939 2.811 . S
Ho936 O956 2.322 . S
Ho936 O958 2.378 . S
Ho936 O959 2.524 . S
Ho936 O960 2.381 1_554 S
Ho936 O961 2.669 . S
Ho936 O963 2.346 . S
Ho936 O967 2.305 . S
Ho937 C948 2.832 . S
Ho937 O957 2.346 . S
Ho937 O961 2.305 . S
Ho937 O962 2.322 . S
Ho937 O964 2.378 . S
Ho937 O965 2.524 . S
Ho937 O966 2.381 . S
Ho937 O967 2.669 . S
C938 O956 1.259 . S
C938 O957 1.268 . S
C939 Ho936 2.811 . S
C939 C940 1.488 . S
C939 O958 1.215 . S
C939 O959 1.289 . S
C940 C939 1.488 . S
C940 C941 1.348 . S
C940 C945 1.413 1_554 S
C941 C940 1.348 . S
C941 C942 1.442 . S
C941 H968 0.930 . S
C942 C941 1.442 . S
C942 C943 1.381 . S
C942 H969 0.931 . S
C943 C942 1.381 . S
C943 C944 1.321 1_554 S
C944 C943 1.321 1_556 S
C944 C945 1.403 . S
C944 H970 0.934 . S
C945 C940 1.413 1_556 S
C945 C944 1.403 . S
C945 H971 0.930 . S
C946 O960 1.275 . S
C946 O961 1.256 1_556 S
C947 O962 1.259 . S
C947 O963 1.268 . S
C948 Ho937 2.832 . S
C948 C949 1.468 1_455 S
C948 O964 1.225 . S
C948 O965 1.300 . S
C949 C948 1.468 1_655 S
C949 C950 1.348 . S
C949 C954 1.413 . S
C950 C949 1.348 . S
C950 C951 1.442 . S
C950 H972 0.930 . S
C951 C950 1.442 . S
C951 C952 1.381 . S
C951 H973 0.931 . S
C952 C951 1.381 . S
C952 C953 1.321 . S
C953 C952 1.321 . S
C953 C954 1.403 . S
C953 H974 0.934 . S
C954 C949 1.413 . S
C954 C953 1.403 . S
C954 H975 0.930 . S
C955 O966 1.275 . S
C955 O967 1.256 . S
O956 Ho936 2.322 . S
O956 C938 1.259 . S
O957 Ho937 2.346 . S
O957 C938 1.268 . S
O958 Ho936 2.378 . S
O958 C939 1.215 . S
O959 Ho936 2.524 . S
O959 C939 1.289 . S
O960 Ho936 2.381 1_556 S
O960 C946 1.275 . S
O961 Ho936 2.669 . S
O961 Ho937 2.305 . S
O961 C946 1.256 1_554 S
O962 Ho937 2.322 . S
O962 C947 1.259 . S
O963 Ho936 2.346 . S
O963 C947 1.268 . S
O964 Ho937 2.378 . S
O964 C948 1.225 . S
O965 Ho937 2.524 . S
O965 C948 1.300 . S
O966 Ho937 2.381 . S
O966 C955 1.275 . S
O967 Ho936 2.305 . S
O967 Ho937 2.669 . S
O967 C955 1.256 . S
H968 C941 0.930 . S
H969 C942 0.931 . S
H970 C944 0.934 . S
H971 C945 0.930 . S
H972 C950 0.930 . S
H973 C951 0.931 . S
H974 C953 0.934 . S
H975 C954 0.930 . S
C976 C977 1.369 . S
C976 C978 1.419 . S
C976 H980 0.930 . S
C977 C976 1.369 . S
C977 C986 1.429 . S
C978 C976 1.419 . S
C978 C979 1.363 1_556 S
C978 H981 0.929 1_556 S
C979 C978 1.363 1_554 S
C979 C985 1.428 1_554 S
H980 C976 0.930 . S
H981 C978 0.929 1_554 S
S982 N983 1.613 . S
S982 N984 1.601 1_655 S
N983 S982 1.613 . S
N983 C986 1.350 1_655 S
N984 S982 1.601 1_455 S
N984 C985 1.357 . S
C985 C979 1.428 1_556 S
C985 N984 1.357 . S
C985 C986 1.434 . S
C986 C977 1.429 . S
C986 N983 1.350 1_455 S
C986 C985 1.434 . S
C987 C988 1.369 . S
C987 C989 1.419 . S
C987 H991 0.930 . S
C988 C987 1.369 . S
C988 C997 1.429 . S
C989 C987 1.419 . S
C989 C990 1.363 . S
C989 H992 0.929 . S
C990 C989 1.363 . S
C990 C996 1.428 . S
H991 C987 0.930 . S
H992 C989 0.929 . S
S993 N994 1.613 . S
S993 N995 1.610 . S
N994 S993 1.613 . S
N994 C997 1.350 . S
N995 S993 1.610 . S
N995 C996 1.351 . S
C996 C990 1.428 . S
C996 N995 1.351 . S
C996 C997 1.434 . S
C997 C988 1.429 . S
C997 N994 1.350 . S
C997 C996 1.434 . S
C998 C999 1.369 . S
C998 C1000 1.419 . S
C998 H1002 0.930 . S
C999 C998 1.369 . S
C999 C1008 1.429 . S
C1000 C998 1.419 . S
C1000 C1001 1.363 . S
C1000 H1003 0.929 . S
C1001 C1000 1.363 . S
C1001 C1007 1.428 . S
H1002 C998 0.930 . S
H1003 C1000 0.929 . S
S1004 N1005 1.613 . S
S1004 N1006 1.610 . S
N1005 S1004 1.613 . S
N1005 C1008 1.350 . S
N1006 S1004 1.610 . S
N1006 C1007 1.351 . S
C1007 C1001 1.428 . S
C1007 N1006 1.351 . S
C1007 C1008 1.434 . S
C1008 C999 1.429 . S
C1008 N1005 1.350 . S
C1008 C1007 1.434 . S
C1009 C1010 1.369 . S
C1009 C1011 1.419 . S
C1009 H1013 0.930 . S
C1010 C1009 1.369 . S
C1010 C1019 1.429 . S
C1011 C1009 1.419 . S
C1011 C1012 1.363 . S
C1011 H1014 0.929 . S
C1012 C1011 1.363 . S
C1012 C1018 1.428 . S
H1013 C1009 0.930 . S
H1014 C1011 0.929 . S
S1015 N1016 1.613 . S
S1015 N1017 1.610 . S
N1016 S1015 1.613 . S
N1016 C1019 1.350 . S
N1017 S1015 1.610 . S
N1017 C1018 1.351 . S
C1018 C1012 1.428 . S
C1018 N1017 1.351 . S
C1018 C1019 1.434 . S
C1019 C1010 1.429 . S
C1019 N1016 1.350 . S
C1019 C1018 1.434 . S
C1020 C1021 1.369 . S
C1020 C1022 1.419 . S
C1020 H1024 0.930 . S
C1021 C1020 1.369 . S
C1021 C1030 1.429 . S
C1022 C1020 1.419 . S
C1022 C1023 1.363 . S
C1022 H1025 0.929 . S
C1023 C1022 1.363 . S
C1023 C1029 1.428 . S
H1024 C1020 0.930 . S
H1025 C1022 0.929 . S
S1026 N1027 1.613 . S
S1026 N1028 1.610 . S
N1027 S1026 1.613 . S
N1027 C1030 1.350 . S
N1028 S1026 1.610 . S
N1028 C1029 1.351 . S
C1029 C1023 1.428 . S
C1029 N1028 1.351 . S
C1029 C1030 1.434 . S
C1030 C1021 1.429 . S
C1030 N1027 1.350 . S
C1030 C1029 1.434 . S
C1031 C1032 1.369 . S
C1031 C1033 1.419 . S
C1031 H1035 0.930 . S
C1032 C1031 1.369 . S
C1032 C1041 1.429 . S
C1033 C1031 1.419 . S
C1033 C1034 1.363 . S
C1033 H1036 0.929 . S
C1034 C1033 1.363 . S
C1034 C1040 1.428 . S
H1035 C1031 0.930 . S
H1036 C1033 0.929 . S
S1037 N1038 1.613 . S
S1037 N1039 1.610 . S
N1038 S1037 1.613 . S
N1038 C1041 1.350 . S
N1039 S1037 1.610 . S
N1039 C1040 1.351 . S
C1040 C1034 1.428 . S
C1040 N1039 1.351 . S
C1040 C1041 1.434 . S
C1041 C1032 1.429 . S
C1041 N1038 1.350 . S
C1041 C1040 1.434 . S
C1042 C1043 1.369 . S
C1042 C1044 1.419 . S
C1042 H1046 0.930 . S
C1043 C1042 1.369 . S
C1043 C1052 1.429 . S
C1044 C1042 1.419 . S
C1044 C1045 1.363 . S
C1044 H1047 0.929 . S
C1045 C1044 1.363 . S
C1045 C1051 1.428 . S
H1046 C1042 0.930 . S
H1047 C1044 0.929 . S
S1048 N1049 1.613 . S
S1048 N1050 1.610 . S
N1049 S1048 1.613 . S
N1049 C1052 1.350 . S
N1050 S1048 1.610 . S
N1050 C1051 1.351 . S
C1051 C1045 1.428 . S
C1051 N1050 1.351 . S
C1051 C1052 1.434 . S
C1052 C1043 1.429 . S
C1052 N1049 1.350 . S
C1052 C1051 1.434 . S
C1053 C1054 1.369 . S
C1053 C1055 1.419 . S
C1053 H1057 0.930 . S
C1054 C1053 1.369 . S
C1054 C1063 1.429 . S
C1055 C1053 1.419 . S
C1055 C1056 1.363 . S
C1055 H1058 0.929 . S
C1056 C1055 1.363 . S
C1056 C1062 1.428 . S
H1057 C1053 0.930 . S
H1058 C1055 0.929 . S
S1059 N1060 1.613 . S
S1059 N1061 1.610 . S
N1060 S1059 1.613 . S
N1060 C1063 1.350 . S
N1061 S1059 1.610 . S
N1061 C1062 1.351 . S
C1062 C1056 1.428 . S
C1062 N1061 1.351 . S
C1062 C1063 1.434 . S
C1063 C1054 1.429 . S
C1063 N1060 1.350 . S
C1063 C1062 1.434 . S
C1064 C1065 1.369 . S
C1064 C1066 1.419 . S
C1064 H1068 0.930 . S
C1065 C1064 1.369 . S
C1065 C1074 1.429 1_455 S
C1066 C1064 1.419 . S
C1066 C1067 1.363 . S
C1066 H1069 0.929 . S
C1067 C1066 1.363 . S
C1067 C1073 1.428 . S
H1068 C1064 0.930 . S
H1069 C1066 0.929 . S
S1070 N1071 1.613 1_565 S
S1070 N1072 1.610 1_565 S
N1071 S1070 1.613 1_545 S
N1071 C1074 1.350 . S
N1072 S1070 1.610 1_545 S
N1072 C1073 1.351 1_655 S
C1073 C1067 1.428 . S
C1073 N1072 1.351 1_455 S
C1073 C1074 1.434 1_455 S
C1074 C1065 1.429 1_655 S
C1074 N1071 1.350 . S
C1074 C1073 1.434 1_655 S
C1075 C1076 1.369 . S
C1075 C1077 1.419 . S
C1075 H1079 0.930 . S
C1076 C1075 1.369 . S
C1076 C1085 1.429 . S
C1077 C1075 1.419 . S
C1077 C1078 1.363 . S
C1077 H1080 0.929 . S
C1078 C1077 1.363 . S
C1078 C1084 1.428 . S
H1079 C1075 0.930 . S
H1080 C1077 0.929 . S
S1081 N1082 1.613 . S
S1081 N1083 1.610 . S
N1082 S1081 1.613 . S
N1082 C1085 1.350 . S
N1083 S1081 1.610 . S
N1083 C1084 1.351 . S
C1084 C1078 1.428 . S
C1084 N1083 1.351 . S
C1084 C1085 1.434 . S
C1085 C1076 1.429 . S
C1085 N1082 1.350 . S
C1085 C1084 1.434 . S
C1086 C1087 1.369 . S
C1086 C1088 1.419 . S
C1086 H1090 0.930 . S
C1087 C1086 1.369 . S
C1087 C1096 1.429 . S
C1088 C1086 1.419 . S
C1088 C1089 1.363 . S
C1088 H1091 0.929 . S
C1089 C1088 1.363 . S
C1089 C1095 1.428 . S
H1090 C1086 0.930 . S
H1091 C1088 0.929 . S
S1092 N1093 1.613 . S
S1092 N1094 1.610 . S
N1093 S1092 1.613 . S
N1093 C1096 1.350 . S
N1094 S1092 1.610 . S
N1094 C1095 1.351 . S
C1095 C1089 1.428 . S
C1095 N1094 1.351 . S
C1095 C1096 1.434 . S
C1096 C1087 1.429 . S
C1096 N1093 1.350 . S
C1096 C1095 1.434 . S
C1097 C1098 1.369 . S
C1097 C1099 1.419 . S
C1097 H1101 0.930 . S
C1098 C1097 1.369 . S
C1098 C1107 1.429 . S
C1099 C1097 1.419 . S
C1099 C1100 1.363 . S
C1099 H1102 0.929 . S
C1100 C1099 1.363 . S
C1100 C1106 1.428 . S
H1101 C1097 0.930 . S
H1102 C1099 0.929 . S
S1103 N1104 1.613 . S
S1103 N1105 1.610 . S
N1104 S1103 1.613 . S
N1104 C1107 1.350 . S
N1105 S1103 1.610 . S
N1105 C1106 1.351 . S
C1106 C1100 1.428 . S
C1106 N1105 1.351 . S
C1106 C1107 1.434 . S
C1107 C1098 1.429 . S
C1107 N1104 1.350 . S
C1107 C1106 1.434 . S
C1108 C1109 1.369 . S
C1108 C1110 1.419 . S
C1108 H1112 0.930 1_455 S
C1109 C1108 1.369 . S
C1109 C1118 1.429 . S
C1110 C1108 1.419 . S
C1110 C1111 1.363 . S
C1110 H1113 0.929 . S
C1111 C1110 1.363 . S
C1111 C1117 1.428 . S
H1112 C1108 0.930 1_655 S
H1113 C1110 0.929 . S
S1114 N1115 1.613 . S
S1114 N1116 1.610 . S
N1115 S1114 1.613 . S
N1115 C1118 1.350 . S
N1116 S1114 1.610 . S
N1116 C1117 1.351 . S
C1117 C1111 1.428 . S
C1117 N1116 1.351 . S
C1117 C1118 1.434 . S
C1118 C1109 1.429 . S
C1118 N1115 1.350 . S
C1118 C1117 1.434 . S
C1119 C1120 1.369 . S
C1119 C1121 1.419 . S
C1119 H1123 0.930 . S
C1120 C1119 1.369 . S
C1120 C1129 1.429 . S
C1121 C1119 1.419 . S
C1121 C1122 1.363 . S
C1121 H1124 0.929 . S
C1122 C1121 1.363 . S
C1122 C1128 1.428 . S
H1123 C1119 0.930 . S
H1124 C1121 0.929 . S
S1125 N1126 1.613 . S
S1125 N1127 1.610 . S
N1126 S1125 1.613 . S
N1126 C1129 1.350 . S
N1127 S1125 1.610 . S
N1127 C1128 1.351 . S
C1128 C1122 1.428 . S
C1128 N1127 1.351 . S
C1128 C1129 1.434 . S
C1129 C1120 1.429 . S
C1129 N1126 1.350 . S
C1129 C1128 1.434 . S
C1130 C1131 1.369 . S
C1130 C1132 1.419 . S
C1130 H1134 0.930 . S
C1131 C1130 1.369 . S
C1131 C1140 1.429 . S
C1132 C1130 1.419 . S
C1132 C1133 1.363 . S
C1132 H1135 0.929 . S
C1133 C1132 1.363 . S
C1133 C1139 1.428 . S
H1134 C1130 0.930 . S
H1135 C1132 0.929 . S
S1136 N1137 1.613 . S
S1136 N1138 1.610 . S
N1137 S1136 1.613 . S
N1137 C1140 1.350 . S
N1138 S1136 1.610 . S
N1138 C1139 1.351 . S
C1139 C1133 1.428 . S
C1139 N1138 1.351 . S
C1139 C1140 1.434 . S
C1140 C1131 1.429 . S
C1140 N1137 1.350 . S
C1140 C1139 1.434 . S
C1141 C1142 1.369 . S
C1141 C1143 1.419 . S
C1141 H1145 0.930 . S
C1142 C1141 1.369 . S
C1142 C1151 1.429 . S
C1143 C1141 1.419 . S
C1143 C1144 1.363 . S
C1143 H1146 0.929 . S
C1144 C1143 1.363 . S
C1144 C1150 1.428 . S
H1145 C1141 0.930 . S
H1146 C1143 0.929 . S
S1147 N1148 1.613 . S
S1147 N1149 1.610 . S
N1148 S1147 1.613 . S
N1148 C1151 1.350 . S
N1149 S1147 1.610 . S
N1149 C1150 1.351 . S
C1150 C1144 1.428 . S
C1150 N1149 1.351 . S
C1150 C1151 1.434 . S
C1151 C1142 1.429 . S
C1151 N1148 1.350 . S
C1151 C1150 1.434 . S
C1152 C1153 1.369 1_545 S
C1152 C1154 1.419 . S
C1152 H1156 0.930 . S
C1153 C1152 1.369 1_565 S
C1153 C1162 1.429 . S
C1154 C1152 1.419 . S
C1154 C1155 1.363 . S
C1154 H1157 0.929 . S
C1155 C1154 1.363 . S
C1155 C1161 1.428 1_545 S
H1156 C1152 0.930 . S
H1157 C1154 0.929 . S
S1158 N1159 1.613 . S
S1158 N1160 1.610 . S
N1159 S1158 1.613 . S
N1159 C1162 1.350 . S
N1160 S1158 1.610 . S
N1160 C1161 1.351 . S
C1161 C1155 1.428 1_565 S
C1161 N1160 1.351 . S
C1161 C1162 1.434 . S
C1162 C1153 1.429 . S
C1162 N1159 1.350 . S
C1162 C1161 1.434 . S
C1163 C1164 1.369 . S
C1163 C1165 1.419 . S
C1163 H1167 0.930 1_554 S
C1164 C1163 1.369 . S
C1164 C1173 1.429 . S
C1165 C1163 1.419 . S
C1165 C1166 1.363 . S
C1165 H1168 0.929 1_554 S
C1166 C1165 1.363 . S
C1166 C1172 1.428 . S
H1167 C1163 0.930 1_556 S
H1168 C1165 0.929 1_556 S
S1169 N1170 1.613 . S
S1169 N1171 1.610 . S
N1170 S1169 1.613 . S
N1170 C1173 1.350 . S
N1171 S1169 1.610 . S
N1171 C1172 1.351 . S
C1172 C1166 1.428 . S
C1172 N1171 1.351 . S
C1172 C1173 1.434 . S
C1173 C1164 1.429 . S
C1173 N1170 1.350 . S
C1173 C1172 1.434 . S
C1174 C1175 1.369 . S
C1174 C1176 1.419 . S
C1174 H1178 0.930 . S
C1175 C1174 1.369 . S
C1175 C1184 1.429 . S
C1176 C1174 1.419 . S
C1176 C1177 1.363 . S
C1176 H1179 0.929 . S
C1177 C1176 1.363 . S
C1177 C1183 1.428 . S
H1178 C1174 0.930 . S
H1179 C1176 0.929 . S
S1180 N1181 1.613 . S
S1180 N1182 1.610 . S
N1181 S1180 1.613 . S
N1181 C1184 1.350 . S
N1182 S1180 1.610 . S
N1182 C1183 1.351 . S
C1183 C1177 1.428 . S
C1183 N1182 1.351 . S
C1183 C1184 1.434 . S
C1184 C1175 1.429 . S
C1184 N1181 1.350 . S
C1184 C1183 1.434 . S
C1185 C1186 1.369 . S
C1185 C1187 1.419 . S
C1185 H1189 0.930 . S
C1186 C1185 1.369 . S
C1186 C1195 1.429 . S
C1187 C1185 1.419 . S
C1187 C1188 1.363 . S
C1187 H1190 0.929 . S
C1188 C1187 1.363 . S
C1188 C1194 1.428 . S
H1189 C1185 0.930 . S
H1190 C1187 0.929 . S
S1191 N1192 1.613 . S
S1191 N1193 1.610 1_655 S
N1192 S1191 1.613 . S
N1192 C1195 1.350 . S
N1193 S1191 1.610 1_455 S
N1193 C1194 1.351 1_455 S
C1194 C1188 1.428 . S
C1194 N1193 1.351 1_655 S
C1194 C1195 1.434 . S
C1195 C1186 1.429 . S
C1195 N1192 1.350 . S
C1195 C1194 1.434 . S
C1196 C1197 1.369 . S
C1196 C1198 1.419 . S
C1196 H1200 0.930 . S
C1197 C1196 1.369 . S
C1197 C1206 1.429 . S
C1198 C1196 1.419 . S
C1198 C1199 1.363 . S
C1198 H1201 0.929 . S
C1199 C1198 1.363 . S
C1199 C1205 1.428 . S
H1200 C1196 0.930 . S
H1201 C1198 0.929 . S
S1202 N1203 1.613 . S
S1202 N1204 1.610 . S
N1203 S1202 1.613 . S
N1203 C1206 1.350 . S
N1204 S1202 1.610 . S
N1204 C1205 1.351 . S
C1205 C1199 1.428 . S
C1205 N1204 1.351 . S
C1205 C1206 1.434 . S
C1206 C1197 1.429 . S
C1206 N1203 1.350 . S
C1206 C1205 1.434 . S
C1207 C1208 1.369 . S
C1207 C1209 1.419 . S
C1207 H1211 0.930 . S
C1208 C1207 1.369 . S
C1208 C1217 1.429 . S
C1209 C1207 1.419 . S
C1209 C1210 1.363 . S
C1209 H1212 0.929 . S
C1210 C1209 1.363 . S
C1210 C1216 1.428 . S
H1211 C1207 0.930 . S
H1212 C1209 0.929 . S
S1213 N1214 1.613 . S
S1213 N1215 1.610 . S
N1214 S1213 1.613 . S
N1214 C1217 1.350 . S
N1215 S1213 1.610 . S
N1215 C1216 1.351 . S
C1216 C1210 1.428 . S
C1216 N1215 1.351 . S
C1216 C1217 1.434 . S
C1217 C1208 1.429 . S
C1217 N1214 1.350 . S
C1217 C1216 1.434 . S
C1218 C1219 1.369 . S
C1218 C1220 1.419 . S
C1218 H1222 0.930 . S
C1219 C1218 1.369 . S
C1219 C1228 1.429 . S
C1220 C1218 1.419 . S
C1220 C1221 1.363 . S
C1220 H1223 0.929 . S
C1221 C1220 1.363 . S
C1221 C1227 1.428 . S
H1222 C1218 0.930 . S
H1223 C1220 0.929 . S
S1224 N1225 1.613 . S
S1224 N1226 1.610 . S
N1225 S1224 1.613 . S
N1225 C1228 1.350 . S
N1226 S1224 1.610 . S
N1226 C1227 1.351 . S
C1227 C1221 1.428 . S
C1227 N1226 1.351 . S
C1227 C1228 1.434 . S
C1228 C1219 1.429 . S
C1228 N1225 1.350 . S
C1228 C1227 1.434 . S
C1229 C1230 1.369 . S
C1229 C1231 1.419 . S
C1229 H1233 0.930 . S
C1230 C1229 1.369 . S
C1230 C1239 1.429 . S
C1231 C1229 1.419 . S
C1231 C1232 1.363 . S
C1231 H1234 0.929 . S
C1232 C1231 1.363 . S
C1232 C1238 1.428 . S
H1233 C1229 0.930 . S
H1234 C1231 0.929 . S
S1235 N1236 1.613 . S
S1235 N1237 1.610 . S
N1236 S1235 1.613 . S
N1236 C1239 1.350 . S
N1237 S1235 1.610 . S
N1237 C1238 1.351 . S
C1238 C1232 1.428 . S
C1238 N1237 1.351 . S
C1238 C1239 1.434 . S
C1239 C1230 1.429 . S
C1239 N1236 1.350 . S
C1239 C1238 1.434 . S
C1240 C1241 1.369 . S
C1240 C1242 1.419 . S
C1240 H1244 0.930 . S
C1241 C1240 1.369 . S
C1241 C1250 1.429 . S
C1242 C1240 1.419 . S
C1242 C1243 1.363 . S
C1242 H1245 0.929 . S
C1243 C1242 1.363 . S
C1243 C1249 1.428 . S
H1244 C1240 0.930 . S
H1245 C1242 0.929 . S
S1246 N1247 1.613 1_556 S
S1246 N1248 1.610 . S
N1247 S1246 1.613 1_554 S
N1247 C1250 1.350 . S
N1248 S1246 1.610 . S
N1248 C1249 1.351 1_556 S
C1249 C1243 1.428 . S
C1249 N1248 1.351 1_554 S
C1249 C1250 1.434 . S
C1250 C1241 1.429 . S
C1250 N1247 1.350 . S
C1250 C1249 1.434 . S
C1251 C1252 1.369 . S
C1251 C1253 1.419 . S
C1251 H1255 0.930 . S
C1252 C1251 1.369 . S
C1252 C1261 1.429 . S
C1253 C1251 1.419 . S
C1253 C1254 1.363 . S
C1253 H1256 0.929 . S
C1254 C1253 1.363 . S
C1254 C1260 1.428 . S
H1255 C1251 0.930 . S
H1256 C1253 0.929 . S
S1257 N1258 1.613 . S
S1257 N1259 1.610 . S
N1258 S1257 1.613 . S
N1258 C1261 1.350 . S
N1259 S1257 1.610 . S
N1259 C1260 1.351 . S
C1260 C1254 1.428 . S
C1260 N1259 1.351 . S
C1260 C1261 1.434 . S
C1261 C1252 1.429 . S
C1261 N1258 1.350 . S
C1261 C1260 1.434 . S
C1262 C1263 1.369 . S
C1262 C1264 1.419 . S
C1262 H1266 0.930 . S
C1263 C1262 1.369 . S
C1263 C1272 1.429 . S
C1264 C1262 1.419 . S
C1264 C1265 1.363 . S
C1264 H1267 0.929 . S
C1265 C1264 1.363 . S
C1265 C1271 1.428 . S
H1266 C1262 0.930 . S
H1267 C1264 0.929 . S
S1268 N1269 1.613 . S
S1268 N1270 1.610 . S
N1269 S1268 1.613 . S
N1269 C1272 1.350 . S
N1270 S1268 1.610 . S
N1270 C1271 1.351 . S
C1271 C1265 1.428 . S
C1271 N1270 1.351 . S
C1271 C1272 1.434 . S
C1272 C1263 1.429 . S
C1272 N1269 1.350 . S
C1272 C1271 1.434 . S
C1273 C1274 1.369 . S
C1273 C1275 1.419 . S
C1273 H1277 0.930 . S
C1274 C1273 1.369 . S
C1274 C1283 1.429 . S
C1275 C1273 1.419 . S
C1275 C1276 1.363 . S
C1275 H1278 0.929 . S
C1276 C1275 1.363 . S
C1276 C1282 1.428 . S
H1277 C1273 0.930 . S
H1278 C1275 0.929 . S
S1279 N1280 1.613 . S
S1279 N1281 1.610 . S
N1280 S1279 1.613 . S
N1280 C1283 1.350 . S
N1281 S1279 1.610 . S
N1281 C1282 1.351 . S
C1282 C1276 1.428 . S
C1282 N1281 1.351 . S
C1282 C1283 1.434 . S
C1283 C1274 1.429 . S
C1283 N1280 1.350 . S
C1283 C1282 1.434 . S
C1284 C1285 1.369 . S
C1284 C1286 1.419 . S
C1284 H1288 0.930 . S
C1285 C1284 1.369 . S
C1285 C1294 1.429 . S
C1286 C1284 1.419 . S
C1286 C1287 1.363 . S
C1286 H1289 0.929 . S
C1287 C1286 1.363 . S
C1287 C1293 1.428 . S
H1288 C1284 0.930 . S
H1289 C1286 0.929 . S
S1290 N1291 1.613 . S
S1290 N1292 1.610 . S
N1291 S1290 1.613 . S
N1291 C1294 1.350 . S
N1292 S1290 1.610 . S
N1292 C1293 1.351 . S
C1293 C1287 1.428 . S
C1293 N1292 1.351 . S
C1293 C1294 1.434 . S
C1294 C1285 1.429 . S
C1294 N1291 1.350 . S
C1294 C1293 1.434 . S
C1295 C1296 1.369 . S
C1295 C1297 1.419 . S
C1295 H1299 0.930 . S
C1296 C1295 1.369 . S
C1296 C1305 1.429 . S
C1297 C1295 1.419 . S
C1297 C1298 1.363 . S
C1297 H1300 0.929 . S
C1298 C1297 1.363 . S
C1298 C1304 1.428 . S
H1299 C1295 0.930 . S
H1300 C1297 0.929 . S
S1301 N1302 1.613 . S
S1301 N1303 1.610 . S
N1302 S1301 1.613 . S
N1302 C1305 1.350 . S
N1303 S1301 1.610 . S
N1303 C1304 1.351 . S
C1304 C1298 1.428 . S
C1304 N1303 1.351 . S
C1304 C1305 1.434 . S
C1305 C1296 1.429 . S
C1305 N1302 1.350 . S
C1305 C1304 1.434 . S
C1306 C1307 1.369 . S
C1306 C1308 1.419 . S
C1306 H1310 0.930 . S
C1307 C1306 1.369 . S
C1307 C1316 1.429 . S
C1308 C1306 1.419 . S
C1308 C1309 1.363 . S
C1308 H1311 0.929 1_556 S
C1309 C1308 1.363 . S
C1309 C1315 1.428 . S
H1310 C1306 0.930 . S
H1311 C1308 0.929 1_554 S
S1312 N1313 1.613 . S
S1312 N1314 1.610 . S
N1313 S1312 1.613 . S
N1313 C1316 1.350 . S
N1314 S1312 1.610 . S
N1314 C1315 1.351 . S
C1315 C1309 1.428 . S
C1315 N1314 1.351 . S
C1315 C1316 1.434 . S
C1316 C1307 1.429 . S
C1316 N1313 1.350 . S
C1316 C1315 1.434 . S
C1317 C1318 1.369 . S
C1317 C1319 1.419 . S
C1317 H1321 0.930 . S
C1318 C1317 1.369 . S
C1318 C1327 1.429 . S
C1319 C1317 1.419 . S
C1319 C1320 1.363 . S
C1319 H1322 0.929 . S
C1320 C1319 1.363 . S
C1320 C1326 1.428 . S
H1321 C1317 0.930 . S
H1322 C1319 0.929 . S
S1323 N1324 1.613 . S
S1323 N1325 1.610 . S
N1324 S1323 1.613 . S
N1324 C1327 1.350 . S
N1325 S1323 1.610 . S
N1325 C1326 1.351 . S
C1326 C1320 1.428 . S
C1326 N1325 1.351 . S
C1326 C1327 1.434 . S
C1327 C1318 1.429 . S
C1327 N1324 1.350 . S
C1327 C1326 1.434 . S
C1328 C1329 1.369 . S
C1328 C1330 1.419 . S
C1328 H1332 0.930 . S
C1329 C1328 1.369 . S
C1329 C1338 1.429 . S
C1330 C1328 1.419 . S
C1330 C1331 1.363 . S
C1330 H1333 0.929 . S
C1331 C1330 1.363 . S
C1331 C1337 1.428 . S
H1332 C1328 0.930 . S
H1333 C1330 0.929 . S
S1334 N1335 1.613 . S
S1334 N1336 1.610 . S
N1335 S1334 1.613 . S
N1335 C1338 1.350 1_565 S
N1336 S1334 1.610 . S
N1336 C1337 1.351 1_565 S
C1337 C1331 1.428 . S
C1337 N1336 1.351 1_545 S
C1337 C1338 1.434 . S
C1338 C1329 1.429 . S
C1338 N1335 1.350 1_545 S
C1338 C1337 1.434 . S
C1339 C1340 1.369 . S
C1339 C1341 1.419 . S
C1339 H1343 0.930 . S
C1340 C1339 1.369 . S
C1340 C1349 1.429 . S
C1341 C1339 1.419 . S
C1341 C1342 1.363 . S
C1341 H1344 0.929 . S
C1342 C1341 1.363 . S
C1342 C1348 1.428 . S
H1343 C1339 0.930 . S
H1344 C1341 0.929 . S
S1345 N1346 1.613 . S
S1345 N1347 1.610 . S
N1346 S1345 1.613 . S
N1346 C1349 1.350 . S
N1347 S1345 1.610 . S
N1347 C1348 1.351 . S
C1348 C1342 1.428 . S
C1348 N1347 1.351 . S
C1348 C1349 1.434 . S
C1349 C1340 1.429 . S
C1349 N1346 1.350 . S
C1349 C1348 1.434 . S
C1350 C1351 1.369 . S
C1350 C1352 1.419 . S
C1350 H1354 0.930 1_545 S
C1351 C1350 1.369 . S
C1351 C1360 1.429 . S
C1352 C1350 1.419 . S
C1352 C1353 1.363 . S
C1352 H1355 0.929 . S
C1353 C1352 1.363 . S
C1353 C1359 1.428 . S
H1354 C1350 0.930 1_565 S
H1355 C1352 0.929 . S
S1356 N1357 1.613 . S
S1356 N1358 1.610 . S
N1357 S1356 1.613 . S
N1357 C1360 1.350 . S
N1358 S1356 1.610 . S
N1358 C1359 1.351 . S
C1359 C1353 1.428 . S
C1359 N1358 1.351 . S
C1359 C1360 1.434 . S
C1360 C1351 1.429 . S
C1360 N1357 1.350 . S
C1360 C1359 1.434 . S
C1361 C1362 1.369 . S
C1361 C1363 1.419 . S
C1361 H1365 0.930 . S
C1362 C1361 1.369 . S
C1362 C1371 1.429 . S
C1363 C1361 1.419 . S
C1363 C1364 1.363 . S
C1363 H1366 0.929 . S
C1364 C1363 1.363 . S
C1364 C1370 1.428 . S
H1365 C1361 0.930 . S
H1366 C1363 0.929 . S
S1367 N1368 1.613 . S
S1367 N1369 1.610 . S
N1368 S1367 1.613 . S
N1368 C1371 1.350 . S
N1369 S1367 1.610 . S
N1369 C1370 1.351 . S
C1370 C1364 1.428 . S
C1370 N1369 1.351 . S
C1370 C1371 1.434 . S
C1371 C1362 1.429 . S
C1371 N1368 1.350 . S
C1371 C1370 1.434 . S
C1372 C1373 1.369 . S
C1372 C1374 1.419 . S
C1372 H1376 0.930 . S
C1373 C1372 1.369 . S
C1373 C1382 1.429 . S
C1374 C1372 1.419 . S
C1374 C1375 1.363 . S
C1374 H1377 0.929 . S
C1375 C1374 1.363 . S
C1375 C1381 1.428 . S
H1376 C1372 0.930 . S
H1377 C1374 0.929 . S
S1378 N1379 1.613 . S
S1378 N1380 1.610 1_565 S
N1379 S1378 1.613 . S
N1379 C1382 1.350 1_565 S
N1380 S1378 1.610 1_545 S
N1380 C1381 1.351 . S
C1381 C1375 1.428 . S
C1381 N1380 1.351 . S
C1381 C1382 1.434 . S
C1382 C1373 1.429 . S
C1382 N1379 1.350 1_545 S
C1382 C1381 1.434 . S
C1383 C1384 1.369 . S
C1383 C1385 1.419 . S
C1383 H1387 0.930 . S
C1384 C1383 1.369 . S
C1384 C1393 1.429 . S
C1385 C1383 1.419 . S
C1385 C1386 1.363 . S
C1385 H1388 0.929 . S
C1386 C1385 1.363 . S
C1386 C1392 1.428 . S
H1387 C1383 0.930 . S
H1388 C1385 0.929 . S
S1389 N1390 1.613 . S
S1389 N1391 1.610 . S
N1390 S1389 1.613 . S
N1390 C1393 1.350 . S
N1391 S1389 1.610 . S
N1391 C1392 1.351 . S
C1392 C1386 1.428 . S
C1392 N1391 1.351 . S
C1392 C1393 1.434 . S
C1393 C1384 1.429 . S
C1393 N1390 1.350 . S
C1393 C1392 1.434 . S
C1394 C1395 1.369 . S
C1394 C1396 1.419 . S
C1394 H1398 0.930 . S
C1395 C1394 1.369 . S
C1395 C1404 1.429 1_565 S
C1396 C1394 1.419 . S
C1396 C1397 1.363 . S
C1396 H1399 0.929 . S
C1397 C1396 1.363 . S
C1397 C1403 1.428 . S
H1398 C1394 0.930 . S
H1399 C1396 0.929 . S
S1400 N1401 1.613 . S
S1400 N1402 1.610 . S
N1401 S1400 1.613 . S
N1401 C1404 1.350 . S
N1402 S1400 1.610 . S
N1402 C1403 1.351 1_545 S
C1403 C1397 1.428 . S
C1403 N1402 1.351 1_565 S
C1403 C1404 1.434 1_565 S
C1404 C1395 1.429 1_545 S
C1404 N1401 1.350 . S
C1404 C1403 1.434 1_545 S
C1405 C1406 1.369 . S
C1405 C1407 1.419 . S
C1405 H1409 0.930 . S
C1406 C1405 1.369 . S
C1406 C1415 1.429 . S
C1407 C1405 1.419 . S
C1407 C1408 1.363 . S
C1407 H1410 0.929 . S
C1408 C1407 1.363 . S
C1408 C1414 1.428 . S
H1409 C1405 0.930 . S
H1410 C1407 0.929 . S
S1411 N1412 1.613 . S
S1411 N1413 1.610 . S
N1412 S1411 1.613 . S
N1412 C1415 1.350 . S
N1413 S1411 1.610 . S
N1413 C1414 1.351 . S
C1414 C1408 1.428 . S
C1414 N1413 1.351 . S
C1414 C1415 1.434 . S
C1415 C1406 1.429 . S
C1415 N1412 1.350 . S
C1415 C1414 1.434 . S
C1416 C1417 1.369 . S
C1416 C1418 1.419 1_554 S
C1416 H1420 0.930 . S
C1417 C1416 1.369 . S
C1417 C1426 1.429 . S
C1418 C1416 1.419 1_556 S
C1418 C1419 1.363 . S
C1418 H1421 0.929 . S
C1419 C1418 1.363 . S
C1419 C1425 1.428 1_556 S
H1420 C1416 0.930 . S
H1421 C1418 0.929 . S
S1422 N1423 1.613 . S
S1422 N1424 1.610 . S
N1423 S1422 1.613 . S
N1423 C1426 1.350 . S
N1424 S1422 1.610 . S
N1424 C1425 1.351 . S
C1425 C1419 1.428 1_554 S
C1425 N1424 1.351 . S
C1425 C1426 1.434 . S
C1426 C1417 1.429 . S
C1426 N1423 1.350 . S
C1426 C1425 1.434 . S
C1427 C1428 1.369 . S
C1427 C1429 1.419 . S
C1427 H1431 0.930 . S
C1428 C1427 1.369 . S
C1428 C1437 1.429 . S
C1429 C1427 1.419 . S
C1429 C1430 1.363 . S
C1429 H1432 0.929 . S
C1430 C1429 1.363 . S
C1430 C1436 1.428 . S
H1431 C1427 0.930 . S
H1432 C1429 0.929 . S
S1433 N1434 1.613 1_556 S
S1433 N1435 1.610 1_556 S
N1434 S1433 1.613 1_554 S
N1434 C1437 1.350 . S
N1435 S1433 1.610 1_554 S
N1435 C1436 1.351 . S
C1436 C1430 1.428 . S
C1436 N1435 1.351 . S
C1436 C1437 1.434 . S
C1437 C1428 1.429 . S
C1437 N1434 1.350 . S
C1437 C1436 1.434 . S
C1438 C1439 1.369 . S
C1438 C1440 1.419 . S
C1438 H1442 0.930 . S
C1439 C1438 1.369 . S
C1439 C1448 1.429 . S
C1440 C1438 1.419 . S
C1440 C1441 1.363 . S
C1440 H1443 0.929 . S
C1441 C1440 1.363 . S
C1441 C1447 1.428 . S
H1442 C1438 0.930 . S
H1443 C1440 0.929 . S
S1444 N1445 1.613 . S
S1444 N1446 1.610 . S
N1445 S1444 1.613 . S
N1445 C1448 1.350 . S
N1446 S1444 1.610 . S
N1446 C1447 1.351 . S
C1447 C1441 1.428 . S
C1447 N1446 1.351 . S
C1447 C1448 1.434 . S
C1448 C1439 1.429 . S
C1448 N1445 1.350 . S
C1448 C1447 1.434 . S
C1449 C1450 1.369 . S
C1449 C1451 1.419 . S
C1449 H1453 0.930 . S
C1450 C1449 1.369 . S
C1450 C1459 1.429 . S
C1451 C1449 1.419 . S
C1451 C1452 1.363 . S
C1451 H1454 0.929 . S
C1452 C1451 1.363 . S
C1452 C1458 1.428 . S
H1453 C1449 0.930 . S
H1454 C1451 0.929 . S
S1455 N1456 1.613 . S
S1455 N1457 1.610 . S
N1456 S1455 1.613 . S
N1456 C1459 1.350 . S
N1457 S1455 1.610 . S
N1457 C1458 1.351 . S
C1458 C1452 1.428 . S
C1458 N1457 1.351 . S
C1458 C1459 1.434 . S
C1459 C1450 1.429 . S
C1459 N1456 1.350 . S
C1459 C1458 1.434 . S
C1460 C1461 1.369 1_565 S
C1460 C1462 1.419 . S
C1460 H1464 0.930 . S
C1461 C1460 1.369 1_545 S
C1461 C1470 1.429 . S
C1462 C1460 1.419 . S
C1462 C1463 1.363 . S
C1462 H1465 0.929 . S
C1463 C1462 1.363 . S
C1463 C1469 1.428 1_565 S
H1464 C1460 0.930 . S
H1465 C1462 0.929 . S
S1466 N1467 1.613 . S
S1466 N1468 1.610 . S
N1467 S1466 1.613 . S
N1467 C1470 1.350 . S
N1468 S1466 1.610 . S
N1468 C1469 1.351 . S
C1469 C1463 1.428 1_545 S
C1469 N1468 1.351 . S
C1469 C1470 1.434 . S
C1470 C1461 1.429 . S
C1470 N1467 1.350 . S
C1470 C1469 1.434 . S
C1471 C1472 1.369 . S
C1471 C1473 1.419 . S
C1471 H1475 0.930 . S
C1472 C1471 1.369 . S
C1472 C1481 1.429 . S
C1473 C1471 1.419 . S
C1473 C1474 1.363 . S
C1473 H1476 0.929 . S
C1474 C1473 1.363 . S
C1474 C1480 1.428 . S
H1475 C1471 0.930 . S
H1476 C1473 0.929 . S
S1477 N1478 1.613 . S
S1477 N1479 1.610 . S
N1478 S1477 1.613 . S
N1478 C1481 1.350 . S
N1479 S1477 1.610 . S
N1479 C1480 1.351 . S
C1480 C1474 1.428 . S
C1480 N1479 1.351 . S
C1480 C1481 1.434 . S
C1481 C1472 1.429 . S
C1481 N1478 1.350 . S
C1481 C1480 1.434 . S
C1482 C1483 1.369 . S
C1482 C1484 1.419 . S
C1482 H1486 0.930 . S
C1483 C1482 1.369 . S
C1483 C1492 1.429 . S
C1484 C1482 1.419 . S
C1484 C1485 1.363 . S
C1484 H1487 0.929 . S
C1485 C1484 1.363 . S
C1485 C1491 1.428 . S
H1486 C1482 0.930 . S
H1487 C1484 0.929 . S
S1488 N1489 1.613 . S
S1488 N1490 1.610 . S
N1489 S1488 1.613 . S
N1489 C1492 1.350 . S
N1490 S1488 1.610 . S
N1490 C1491 1.351 . S
C1491 C1485 1.428 . S
C1491 N1490 1.351 . S
C1491 C1492 1.434 . S
C1492 C1483 1.429 . S
C1492 N1489 1.350 . S
C1492 C1491 1.434 . S
C1493 C1494 1.369 . S
C1493 C1495 1.419 . S
C1493 H1497 0.930 . S
C1494 C1493 1.369 . S
C1494 C1503 1.429 . S
C1495 C1493 1.419 . S
C1495 C1496 1.363 . S
C1495 H1498 0.929 . S
C1496 C1495 1.363 . S
C1496 C1502 1.428 . S
H1497 C1493 0.930 . S
H1498 C1495 0.929 . S
S1499 N1500 1.613 . S
S1499 N1501 1.610 . S
N1500 S1499 1.613 . S
N1500 C1503 1.350 . S
N1501 S1499 1.610 . S
N1501 C1502 1.351 . S
C1502 C1496 1.428 . S
C1502 N1501 1.351 . S
C1502 C1503 1.434 . S
C1503 C1494 1.429 . S
C1503 N1500 1.350 . S
C1503 C1502 1.434 . S
C1504 C1505 1.369 . S
C1504 C1506 1.419 . S
C1504 H1508 0.930 . S
C1505 C1504 1.369 . S
C1505 C1514 1.429 . S
C1506 C1504 1.419 . S
C1506 C1507 1.363 . S
C1506 H1509 0.929 . S
C1507 C1506 1.363 . S
C1507 C1513 1.428 . S
H1508 C1504 0.930 . S
H1509 C1506 0.929 . S
S1510 N1511 1.613 . S
S1510 N1512 1.610 . S
N1511 S1510 1.613 . S
N1511 C1514 1.350 . S
N1512 S1510 1.610 . S
N1512 C1513 1.351 . S
C1513 C1507 1.428 . S
C1513 N1512 1.351 . S
C1513 C1514 1.434 . S
C1514 C1505 1.429 . S
C1514 N1511 1.350 . S
C1514 C1513 1.434 . S
C1515 C1516 1.369 . S
C1515 C1517 1.419 . S
C1515 H1519 0.930 . S
C1516 C1515 1.369 . S
C1516 C1525 1.429 . S
C1517 C1515 1.419 . S
C1517 C1518 1.363 . S
C1517 H1520 0.929 . S
C1518 C1517 1.363 . S
C1518 C1524 1.428 . S
H1519 C1515 0.930 . S
H1520 C1517 0.929 . S
S1521 N1522 1.613 . S
S1521 N1523 1.610 . S
N1522 S1521 1.613 . S
N1522 C1525 1.350 . S
N1523 S1521 1.610 . S
N1523 C1524 1.351 . S
C1524 C1518 1.428 . S
C1524 N1523 1.351 . S
C1524 C1525 1.434 . S
C1525 C1516 1.429 . S
C1525 N1522 1.350 . S
C1525 C1524 1.434 . S
C1526 C1527 1.369 . S
C1526 C1528 1.419 1_556 S
C1526 H1530 0.930 . S
C1527 C1526 1.369 . S
C1527 C1536 1.429 1_556 S
C1528 C1526 1.419 1_554 S
C1528 C1529 1.363 . S
C1528 H1531 0.929 . S
C1529 C1528 1.363 . S
C1529 C1535 1.428 . S
H1530 C1526 0.930 . S
H1531 C1528 0.929 . S
S1532 N1533 1.613 . S
S1532 N1534 1.610 . S
N1533 S1532 1.613 . S
N1533 C1536 1.350 . S
N1534 S1532 1.610 . S
N1534 C1535 1.351 . S
C1535 C1529 1.428 . S
C1535 N1534 1.351 . S
C1535 C1536 1.434 . S
C1536 C1527 1.429 1_554 S
C1536 N1533 1.350 . S
C1536 C1535 1.434 . S
C1537 C1538 1.373 . S
C1537 C1539 1.415 1_455 S
C1537 H1541 0.931 1_455 S
C1538 C1537 1.373 . S
C1538 C1547 1.429 . S
C1539 C1537 1.415 1_655 S
C1539 C1540 1.363 . S
C1539 H1542 0.929 . S
C1540 C1539 1.363 . S
C1540 C1546 1.428 1_655 S
H1541 C1537 0.931 1_655 S
H1542 C1539 0.929 . S
S1543 N1544 1.613 . S
S1543 N1545 1.610 . S
N1544 S1543 1.613 . S
N1544 C1547 1.350 . S
N1545 S1543 1.610 . S
N1545 C1546 1.351 . S
C1546 C1540 1.428 1_455 S
C1546 N1545 1.351 . S
C1546 C1547 1.434 . S
C1547 C1538 1.429 . S
C1547 N1544 1.350 . S
C1547 C1546 1.434 . S
C1548 C1549 1.369 . S
C1548 C1550 1.419 . S
C1548 H1552 0.930 . S
C1549 C1548 1.369 . S
C1549 C1558 1.429 . S
C1550 C1548 1.419 . S
C1550 C1551 1.363 . S
C1550 H1553 0.929 . S
C1551 C1550 1.363 . S
C1551 C1557 1.428 . S
H1552 C1548 0.930 . S
H1553 C1550 0.929 . S
S1554 N1555 1.613 . S
S1554 N1556 1.610 . S
N1555 S1554 1.613 . S
N1555 C1558 1.350 . S
N1556 S1554 1.610 . S
N1556 C1557 1.351 . S
C1557 C1551 1.428 . S
C1557 N1556 1.351 . S
C1557 C1558 1.434 . S
C1558 C1549 1.429 . S
C1558 N1555 1.350 . S
C1558 C1557 1.434 . S
C1559 C1560 1.369 . S
C1559 C1561 1.419 . S
C1559 H1563 0.930 . S
C1560 C1559 1.369 . S
C1560 C1569 1.429 . S
C1561 C1559 1.419 . S
C1561 C1562 1.363 . S
C1561 H1564 0.916 1_455 S
C1562 C1561 1.363 . S
C1562 C1568 1.428 . S
H1563 C1559 0.930 . S
H1564 C1561 0.916 1_655 S
S1565 N1566 1.613 . S
S1565 N1567 1.610 . S
N1566 S1565 1.613 . S
N1566 C1569 1.350 . S
N1567 S1565 1.610 . S
N1567 C1568 1.351 . S
C1568 C1562 1.428 . S
C1568 N1567 1.351 . S
C1568 C1569 1.434 . S
C1569 C1560 1.429 . S
C1569 N1566 1.350 . S
C1569 C1568 1.434 . S
C1570 C1571 1.369 . S
C1570 C1572 1.419 . S
C1570 H1574 0.930 . S
C1571 C1570 1.369 . S
C1571 C1580 1.429 . S
C1572 C1570 1.419 . S
C1572 C1573 1.363 . S
C1572 H1575 0.929 . S
C1573 C1572 1.363 . S
C1573 C1579 1.428 . S
H1574 C1570 0.930 . S
H1575 C1572 0.929 . S
S1576 N1577 1.613 . S
S1576 N1578 1.610 . S
N1577 S1576 1.613 . S
N1577 C1580 1.350 . S
N1578 S1576 1.610 . S
N1578 C1579 1.351 . S
C1579 C1573 1.428 . S
C1579 N1578 1.351 . S
C1579 C1580 1.434 . S
C1580 C1571 1.429 . S
C1580 N1577 1.350 . S
C1580 C1579 1.434 . S
C1581 C1582 1.369 . S
C1581 C1583 1.419 . S
C1581 H1585 0.930 . S
C1582 C1581 1.369 . S
C1582 C1591 1.429 . S
C1583 C1581 1.419 . S
C1583 C1584 1.363 . S
C1583 H1586 0.929 . S
C1584 C1583 1.363 . S
C1584 C1590 1.428 . S
H1585 C1581 0.930 . S
H1586 C1583 0.929 . S
S1587 N1588 1.613 . S
S1587 N1589 1.610 . S
N1588 S1587 1.613 . S
N1588 C1591 1.350 . S
N1589 S1587 1.610 . S
N1589 C1590 1.351 . S
C1590 C1584 1.428 . S
C1590 N1589 1.351 . S
C1590 C1591 1.434 . S
C1591 C1582 1.429 . S
C1591 N1588 1.350 . S
C1591 C1590 1.434 . S
C1592 C1593 1.369 . S
C1592 C1594 1.419 . S
C1592 H1596 0.930 . S
C1593 C1592 1.369 . S
C1593 C1602 1.429 . S
C1594 C1592 1.419 . S
C1594 C1595 1.363 . S
C1594 H1597 0.929 . S
C1595 C1594 1.363 . S
C1595 C1601 1.428 . S
H1596 C1592 0.930 . S
H1597 C1594 0.929 . S
S1598 N1599 1.613 . S
S1598 N1600 1.610 . S
N1599 S1598 1.613 . S
N1599 C1602 1.350 . S
N1600 S1598 1.610 . S
N1600 C1601 1.351 . S
C1601 C1595 1.428 . S
C1601 N1600 1.351 . S
C1601 C1602 1.434 . S
C1602 C1593 1.429 . S
C1602 N1599 1.350 . S
C1602 C1601 1.434 . S
C1603 C1604 1.369 . S
C1603 C1605 1.419 . S
C1603 H1607 0.930 . S
C1604 C1603 1.369 . S
C1604 C1613 1.429 . S
C1605 C1603 1.419 . S
C1605 C1606 1.363 . S
C1605 H1608 0.929 . S
C1606 C1605 1.363 . S
C1606 C1612 1.428 . S
H1607 C1603 0.930 . S
H1608 C1605 0.929 . S
S1609 N1610 1.613 . S
S1609 N1611 1.610 . S
N1610 S1609 1.613 . S
N1610 C1613 1.350 . S
N1611 S1609 1.610 . S
N1611 C1612 1.351 . S
C1612 C1606 1.428 . S
C1612 N1611 1.351 . S
C1612 C1613 1.434 . S
C1613 C1604 1.429 . S
C1613 N1610 1.350 . S
C1613 C1612 1.434 . S
C1614 C1615 1.369 . S
C1614 C1616 1.419 . S
C1614 H1618 0.930 . S
C1615 C1614 1.369 . S
C1615 C1624 1.429 . S
C1616 C1614 1.419 . S
C1616 C1617 1.363 . S
C1616 H1619 0.929 . S
C1617 C1616 1.363 . S
C1617 C1623 1.428 . S
H1618 C1614 0.930 . S
H1619 C1616 0.929 . S
S1620 N1621 1.613 . S
S1620 N1622 1.610 . S
N1621 S1620 1.613 . S
N1621 C1624 1.350 . S
N1622 S1620 1.610 . S
N1622 C1623 1.351 . S
C1623 C1617 1.428 . S
C1623 N1622 1.351 . S
C1623 C1624 1.434 . S
C1624 C1615 1.429 . S
C1624 N1621 1.350 . S
C1624 C1623 1.434 . S
C1625 C1626 1.369 . S
C1625 C1627 1.419 . S
C1625 H1629 0.930 . S
C1626 C1625 1.369 . S
C1626 C1635 1.429 . S
C1627 C1625 1.419 . S
C1627 C1628 1.363 . S
C1627 H1630 0.929 . S
C1628 C1627 1.363 . S
C1628 C1634 1.428 . S
H1629 C1625 0.930 . S
H1630 C1627 0.929 . S
S1631 N1632 1.613 . S
S1631 N1633 1.610 . S
N1632 S1631 1.613 . S
N1632 C1635 1.350 . S
N1633 S1631 1.610 . S
N1633 C1634 1.351 . S
C1634 C1628 1.428 . S
C1634 N1633 1.351 . S
C1634 C1635 1.434 . S
C1635 C1626 1.429 . S
C1635 N1632 1.350 . S
C1635 C1634 1.434 . S
C1636 C1637 1.369 . S
C1636 C1638 1.419 . S
C1636 H1640 0.930 . S
C1637 C1636 1.369 . S
C1637 C1646 1.429 . S
C1638 C1636 1.419 . S
C1638 C1639 1.363 . S
C1638 H1641 0.929 . S
C1639 C1638 1.363 . S
C1639 C1645 1.428 . S
H1640 C1636 0.930 . S
H1641 C1638 0.929 . S
S1642 N1643 1.613 . S
S1642 N1644 1.610 . S
N1643 S1642 1.613 . S
N1643 C1646 1.350 . S
N1644 S1642 1.610 . S
N1644 C1645 1.351 . S
C1645 C1639 1.428 . S
C1645 N1644 1.351 . S
C1645 C1646 1.434 . S
C1646 C1637 1.429 . S
C1646 N1643 1.350 . S
C1646 C1645 1.434 . S
C1647 C1648 1.369 . S
C1647 C1649 1.419 . S
C1647 H1651 0.930 . S
C1648 C1647 1.369 . S
C1648 C1657 1.429 . S
C1649 C1647 1.419 . S
C1649 C1650 1.363 . S
C1649 H1652 0.929 . S
C1650 C1649 1.363 . S
C1650 C1656 1.428 . S
H1651 C1647 0.930 . S
H1652 C1649 0.929 . S
S1653 N1654 1.613 . S
S1653 N1655 1.610 . S
N1654 S1653 1.613 . S
N1654 C1657 1.350 . S
N1655 S1653 1.610 . S
N1655 C1656 1.351 . S
C1656 C1650 1.428 . S
C1656 N1655 1.351 . S
C1656 C1657 1.434 . S
C1657 C1648 1.429 . S
C1657 N1654 1.350 . S
C1657 C1656 1.434 . S
C1658 C1659 1.369 . S
C1658 C1660 1.419 . S
C1658 H1662 0.930 . S
C1659 C1658 1.369 . S
C1659 C1668 1.429 . S
C1660 C1658 1.419 . S
C1660 C1661 1.363 . S
C1660 H1663 0.929 . S
C1661 C1660 1.363 . S
C1661 C1667 1.428 . S
H1662 C1658 0.930 . S
H1663 C1660 0.929 . S
S1664 N1665 1.613 . S
S1664 N1666 1.610 . S
N1665 S1664 1.613 . S
N1665 C1668 1.350 . S
N1666 S1664 1.610 . S
N1666 C1667 1.351 . S
C1667 C1661 1.428 . S
C1667 N1666 1.351 . S
C1667 C1668 1.434 . S
C1668 C1659 1.429 . S
C1668 N1665 1.350 . S
C1668 C1667 1.434 . S
C1669 C1670 1.369 . S
C1669 C1671 1.419 . S
C1669 H1673 0.930 . S
C1670 C1669 1.369 . S
C1670 C1679 1.429 . S
C1671 C1669 1.419 . S
C1671 C1672 1.363 . S
C1671 H1674 0.929 . S
C1672 C1671 1.363 . S
C1672 C1678 1.428 . S
H1673 C1669 0.930 . S
H1674 C1671 0.929 . S
S1675 N1676 1.613 . S
S1675 N1677 1.610 . S
N1676 S1675 1.613 . S
N1676 C1679 1.350 . S
N1677 S1675 1.610 . S
N1677 C1678 1.351 . S
C1678 C1672 1.428 . S
C1678 N1677 1.351 . S
C1678 C1679 1.434 . S
C1679 C1670 1.429 . S
C1679 N1676 1.350 . S
C1679 C1678 1.434 . S
C1680 C1681 1.369 . S
C1680 C1682 1.419 . S
C1680 H1684 0.930 . S
C1681 C1680 1.369 . S
C1681 C1690 1.429 . S
C1682 C1680 1.419 . S
C1682 C1683 1.363 . S
C1682 H1685 0.929 . S
C1683 C1682 1.363 . S
C1683 C1689 1.428 . S
H1684 C1680 0.930 . S
H1685 C1682 0.929 . S
S1686 N1687 1.613 . S
S1686 N1688 1.610 . S
N1687 S1686 1.613 . S
N1687 C1690 1.350 . S
N1688 S1686 1.610 . S
N1688 C1689 1.351 . S
C1689 C1683 1.428 . S
C1689 N1688 1.351 . S
C1689 C1690 1.434 . S
C1690 C1681 1.429 . S
C1690 N1687 1.350 . S
C1690 C1689 1.434 . S
C1691 C1692 1.369 . S
C1691 C1693 1.419 . S
C1691 H1695 0.930 . S
C1692 C1691 1.369 . S
C1692 C1701 1.429 . S
C1693 C1691 1.419 . S
C1693 C1694 1.363 . S
C1693 H1696 0.929 . S
C1694 C1693 1.363 . S
C1694 C1700 1.428 . S
H1695 C1691 0.930 . S
H1696 C1693 0.929 . S
S1697 N1698 1.613 . S
S1697 N1699 1.610 . S
N1698 S1697 1.613 . S
N1698 C1701 1.350 . S
N1699 S1697 1.610 . S
N1699 C1700 1.351 . S
C1700 C1694 1.428 . S
C1700 N1699 1.351 . S
C1700 C1701 1.434 . S
C1701 C1692 1.429 . S
C1701 N1698 1.350 . S
C1701 C1700 1.434 . S
C1702 C1703 1.369 . S
C1702 C1704 1.419 . S
C1702 H1706 0.930 . S
C1703 C1702 1.369 . S
C1703 C1712 1.429 . S
C1704 C1702 1.419 . S
C1704 C1705 1.363 . S
C1704 H1707 0.929 . S
C1705 C1704 1.363 . S
C1705 C1711 1.428 . S
H1706 C1702 0.930 . S
H1707 C1704 0.929 . S
S1708 N1709 1.613 . S
S1708 N1710 1.610 . S
N1709 S1708 1.613 . S
N1709 C1712 1.350 . S
N1710 S1708 1.610 . S
N1710 C1711 1.351 . S
C1711 C1705 1.428 . S
C1711 N1710 1.351 . S
C1711 C1712 1.434 . S
C1712 C1703 1.429 . S
C1712 N1709 1.350 . S
C1712 C1711 1.434 . S
C1713 C1714 1.369 . S
C1713 C1715 1.419 1_565 S
C1713 H1717 0.930 1_565 S
C1714 C1713 1.369 . S
C1714 C1723 1.429 . S
C1715 C1713 1.419 1_545 S
C1715 C1716 1.363 . S
C1715 H1718 0.929 . S
C1716 C1715 1.363 . S
C1716 C1722 1.428 1_545 S
H1717 C1713 0.930 1_545 S
H1718 C1715 0.929 . S
S1719 N1720 1.613 . S
S1719 N1721 1.610 . S
N1720 S1719 1.613 . S
N1720 C1723 1.350 . S
N1721 S1719 1.610 . S
N1721 C1722 1.351 . S
C1722 C1716 1.428 1_565 S
C1722 N1721 1.351 . S
C1722 C1723 1.434 . S
C1723 C1714 1.429 . S
C1723 N1720 1.350 . S
C1723 C1722 1.434 . S
C1724 C1725 1.369 . S
C1724 C1726 1.419 . S
C1724 H1728 0.930 . S
C1725 C1724 1.369 . S
C1725 C1734 1.429 . S
C1726 C1724 1.419 . S
C1726 C1727 1.363 . S
C1726 H1729 0.929 . S
C1727 C1726 1.363 . S
C1727 C1733 1.428 . S
H1728 C1724 0.930 . S
H1729 C1726 0.929 . S
S1730 N1731 1.613 . S
S1730 N1732 1.610 . S
N1731 S1730 1.613 . S
N1731 C1734 1.350 . S
N1732 S1730 1.610 . S
N1732 C1733 1.351 . S
C1733 C1727 1.428 . S
C1733 N1732 1.351 . S
C1733 C1734 1.434 . S
C1734 C1725 1.429 . S
C1734 N1731 1.350 . S
C1734 C1733 1.434 . S
C1735 C1736 1.369 . S
C1735 C1737 1.419 . S
C1735 H1739 0.930 . S
C1736 C1735 1.369 . S
C1736 C1745 1.429 . S
C1737 C1735 1.419 . S
C1737 C1738 1.363 . S
C1737 H1740 0.929 . S
C1738 C1737 1.363 . S
C1738 C1744 1.428 . S
H1739 C1735 0.930 . S
H1740 C1737 0.929 . S
S1741 N1742 1.613 . S
S1741 N1743 1.610 . S
N1742 S1741 1.613 . S
N1742 C1745 1.350 . S
N1743 S1741 1.610 . S
N1743 C1744 1.351 . S
C1744 C1738 1.428 . S
C1744 N1743 1.351 . S
C1744 C1745 1.434 . S
C1745 C1736 1.429 . S
C1745 N1742 1.350 . S
C1745 C1744 1.434 . S
C1746 C1747 1.369 . S
C1746 C1748 1.419 . S
C1746 H1750 0.930 . S
C1747 C1746 1.369 . S
C1747 C1756 1.429 . S
C1748 C1746 1.419 . S
C1748 C1749 1.363 . S
C1748 H1751 0.929 . S
C1749 C1748 1.363 . S
C1749 C1755 1.428 . S
H1750 C1746 0.930 . S
H1751 C1748 0.929 . S
S1752 N1753 1.613 . S
S1752 N1754 1.610 . S
N1753 S1752 1.613 . S
N1753 C1756 1.350 . S
N1754 S1752 1.610 . S
N1754 C1755 1.351 . S
C1755 C1749 1.428 . S
C1755 N1754 1.351 . S
C1755 C1756 1.434 . S
C1756 C1747 1.429 . S
C1756 N1753 1.350 . S
C1756 C1755 1.434 . S
C1757 C1758 1.369 . S
C1757 C1759 1.419 . S
C1757 H1761 0.930 . S
C1758 C1757 1.369 . S
C1758 C1767 1.429 . S
C1759 C1757 1.419 . S
C1759 C1760 1.363 . S
C1759 H1762 0.929 . S
C1760 C1759 1.363 . S
C1760 C1766 1.428 . S
H1761 C1757 0.930 . S
H1762 C1759 0.929 . S
S1763 N1764 1.613 . S
S1763 N1765 1.610 . S
N1764 S1763 1.613 . S
N1764 C1767 1.350 . S
N1765 S1763 1.610 . S
N1765 C1766 1.351 . S
C1766 C1760 1.428 . S
C1766 N1765 1.351 . S
C1766 C1767 1.434 . S
C1767 C1758 1.429 . S
C1767 N1764 1.350 . S
C1767 C1766 1.434 . S
C1768 C1769 1.369 . S
C1768 C1770 1.419 . S
C1768 H1772 0.930 . S
C1769 C1768 1.369 . S
C1769 C1778 1.429 . S
C1770 C1768 1.419 . S
C1770 C1771 1.363 . S
C1770 H1773 0.929 . S
C1771 C1770 1.363 . S
C1771 C1777 1.428 . S
H1772 C1768 0.930 . S
H1773 C1770 0.929 . S
S1774 N1775 1.613 . S
S1774 N1776 1.610 . S
N1775 S1774 1.613 . S
N1775 C1778 1.350 . S
N1776 S1774 1.610 . S
N1776 C1777 1.351 . S
C1777 C1771 1.428 . S
C1777 N1776 1.351 . S
C1777 C1778 1.434 . S
C1778 C1769 1.429 . S
C1778 N1775 1.350 . S
C1778 C1777 1.434 . S
C1779 C1780 1.369 . S
C1779 C1781 1.419 . S
C1779 H1783 0.930 . S
C1780 C1779 1.369 . S
C1780 C1789 1.429 . S
C1781 C1779 1.419 . S
C1781 C1782 1.363 . S
C1781 H1784 0.929 . S
C1782 C1781 1.363 . S
C1782 C1788 1.428 . S
H1783 C1779 0.930 . S
H1784 C1781 0.929 . S
S1785 N1786 1.613 . S
S1785 N1787 1.610 . S
N1786 S1785 1.613 . S
N1786 C1789 1.350 . S
N1787 S1785 1.610 . S
N1787 C1788 1.351 . S
C1788 C1782 1.428 . S
C1788 N1787 1.351 . S
C1788 C1789 1.434 . S
C1789 C1780 1.429 . S
C1789 N1786 1.350 . S
C1789 C1788 1.434 . S
C1790 C1791 1.369 . S
C1790 C1792 1.419 . S
C1790 H1794 0.930 . S
C1791 C1790 1.369 . S
C1791 C1800 1.429 . S
C1792 C1790 1.419 . S
C1792 C1793 1.363 . S
C1792 H1795 0.929 . S
C1793 C1792 1.363 . S
C1793 C1799 1.428 . S
H1794 C1790 0.930 . S
H1795 C1792 0.929 . S
S1796 N1797 1.613 . S
S1796 N1798 1.610 . S
N1797 S1796 1.613 . S
N1797 C1800 1.350 . S
N1798 S1796 1.610 . S
N1798 C1799 1.351 . S
C1799 C1793 1.428 . S
C1799 N1798 1.351 . S
C1799 C1800 1.434 . S
C1800 C1791 1.429 . S
C1800 N1797 1.350 . S
C1800 C1799 1.434 . S
C1801 C1802 1.369 . S
C1801 C1803 1.419 . S
C1801 H1805 0.930 . S
C1802 C1801 1.369 . S
C1802 C1811 1.429 . S
C1803 C1801 1.419 . S
C1803 C1804 1.363 . S
C1803 H1806 0.929 . S
C1804 C1803 1.363 . S
C1804 C1810 1.428 . S
H1805 C1801 0.930 . S
H1806 C1803 0.929 . S
S1807 N1808 1.613 . S
S1807 N1809 1.610 . S
N1808 S1807 1.613 . S
N1808 C1811 1.350 . S
N1809 S1807 1.610 . S
N1809 C1810 1.351 . S
C1810 C1804 1.428 . S
C1810 N1809 1.351 . S
C1810 C1811 1.434 . S
C1811 C1802 1.429 . S
C1811 N1808 1.350 . S
C1811 C1810 1.434 . S
C1812 C1813 1.369 . S
C1812 C1814 1.419 . S
C1812 H1816 0.930 . S
C1813 C1812 1.369 . S
C1813 C1822 1.429 . S
C1814 C1812 1.419 . S
C1814 C1815 1.363 . S
C1814 H1817 0.929 . S
C1815 C1814 1.363 . S
C1815 C1821 1.428 . S
H1816 C1812 0.930 . S
H1817 C1814 0.929 . S
S1818 N1819 1.613 . S
S1818 N1820 1.610 . S
N1819 S1818 1.613 . S
N1819 C1822 1.350 . S
N1820 S1818 1.610 . S
N1820 C1821 1.351 . S
C1821 C1815 1.428 . S
C1821 N1820 1.351 . S
C1821 C1822 1.434 . S
C1822 C1813 1.429 . S
C1822 N1819 1.350 . S
C1822 C1821 1.434 . S
C1823 C1824 1.369 . S
C1823 C1825 1.419 . S
C1823 H1827 0.930 . S
C1824 C1823 1.369 . S
C1824 C1833 1.429 . S
C1825 C1823 1.419 . S
C1825 C1826 1.363 . S
C1825 H1828 0.929 . S
C1826 C1825 1.363 . S
C1826 C1832 1.428 . S
H1827 C1823 0.930 . S
H1828 C1825 0.929 . S
S1829 N1830 1.613 . S
S1829 N1831 1.610 . S
N1830 S1829 1.613 . S
N1830 C1833 1.350 . S
N1831 S1829 1.610 . S
N1831 C1832 1.351 . S
C1832 C1826 1.428 . S
C1832 N1831 1.351 . S
C1832 C1833 1.434 . S
C1833 C1824 1.429 . S
C1833 N1830 1.350 . S
C1833 C1832 1.434 . S
C1834 C1835 1.369 . S
C1834 C1836 1.419 . S
C1834 H1838 0.930 . S
C1835 C1834 1.369 . S
C1835 C1844 1.429 . S
C1836 C1834 1.419 . S
C1836 C1837 1.363 . S
C1836 H1839 0.929 . S
C1837 C1836 1.363 . S
C1837 C1843 1.428 . S
H1838 C1834 0.930 . S
H1839 C1836 0.929 . S
S1840 N1841 1.613 . S
S1840 N1842 1.610 . S
N1841 S1840 1.613 . S
N1841 C1844 1.350 . S
N1842 S1840 1.610 . S
N1842 C1843 1.351 . S
C1843 C1837 1.428 . S
C1843 N1842 1.351 . S
C1843 C1844 1.434 . S
C1844 C1835 1.429 . S
C1844 N1841 1.350 . S
C1844 C1843 1.434 . S
C1845 C1846 1.369 . S
C1845 C1847 1.419 . S
C1845 H1849 0.930 . S
C1846 C1845 1.369 . S
C1846 C1855 1.429 . S
C1847 C1845 1.419 . S
C1847 C1848 1.363 . S
C1847 H1850 0.929 . S
C1848 C1847 1.363 . S
C1848 C1854 1.428 . S
H1849 C1845 0.930 . S
H1850 C1847 0.929 . S
S1851 N1852 1.613 . S
S1851 N1853 1.610 . S
N1852 S1851 1.613 . S
N1852 C1855 1.350 . S
N1853 S1851 1.610 . S
N1853 C1854 1.351 . S
C1854 C1848 1.428 . S
C1854 N1853 1.351 . S
C1854 C1855 1.434 . S
C1855 C1846 1.429 . S
C1855 N1852 1.350 . S
C1855 C1854 1.434 . S
C1856 C1857 1.369 . S
C1856 C1858 1.419 . S
C1856 H1860 0.930 . S
C1857 C1856 1.369 . S
C1857 C1866 1.429 . S
C1858 C1856 1.419 . S
C1858 C1859 1.363 . S
C1858 H1861 0.929 . S
C1859 C1858 1.363 . S
C1859 C1865 1.428 . S
H1860 C1856 0.930 . S
H1861 C1858 0.929 . S
S1862 N1863 1.613 . S
S1862 N1864 1.610 . S
N1863 S1862 1.613 . S
N1863 C1866 1.350 . S
N1864 S1862 1.610 . S
N1864 C1865 1.351 . S
C1865 C1859 1.428 . S
C1865 N1864 1.351 . S
C1865 C1866 1.434 . S
C1866 C1857 1.429 . S
C1866 N1863 1.350 . S
C1866 C1865 1.434 . S
C1867 C1868 1.369 . S
C1867 C1869 1.419 . S
C1867 H1871 0.930 . S
C1868 C1867 1.369 . S
C1868 C1877 1.429 . S
C1869 C1867 1.419 . S
C1869 C1870 1.363 . S
C1869 H1872 0.929 . S
C1870 C1869 1.363 . S
C1870 C1876 1.428 . S
H1871 C1867 0.930 . S
H1872 C1869 0.929 . S
S1873 N1874 1.613 . S
S1873 N1875 1.610 . S
N1874 S1873 1.613 . S
N1874 C1877 1.350 . S
N1875 S1873 1.610 . S
N1875 C1876 1.351 . S
C1876 C1870 1.428 . S
C1876 N1875 1.351 . S
C1876 C1877 1.434 . S
C1877 C1868 1.429 . S
C1877 N1874 1.350 . S
C1877 C1876 1.434 . S
C1878 C1879 1.374 . S
C1878 C1880 1.419 . S
C1878 H1882 0.930 . S
C1879 C1878 1.374 . S
C1879 C1888 1.427 1_455 S
C1880 C1878 1.419 . S
C1880 C1881 1.363 . S
C1880 H1883 0.929 . S
C1881 C1880 1.363 . S
C1881 C1887 1.428 . S
H1882 C1878 0.930 . S
H1883 C1880 0.929 . S
S1884 N1885 1.613 . S
S1884 N1886 1.610 1_656 S
N1885 S1884 1.613 . S
N1885 C1888 1.350 . S
N1886 S1884 1.610 1_454 S
N1886 C1887 1.351 1_554 S
C1887 C1881 1.428 . S
C1887 N1886 1.351 1_556 S
C1887 C1888 1.434 1_455 S
C1888 C1879 1.427 1_655 S
C1888 N1885 1.350 . S
C1888 C1887 1.434 1_655 S
C1889 C1890 1.369 . S
C1889 C1891 1.419 . S
C1889 H1893 0.930 . S
C1890 C1889 1.369 . S
C1890 C1899 1.429 . S
C1891 C1889 1.419 . S
C1891 C1892 1.363 . S
C1891 H1894 0.929 . S
C1892 C1891 1.363 . S
C1892 C1898 1.428 . S
H1893 C1889 0.930 . S
H1894 C1891 0.929 . S
S1895 N1896 1.613 . S
S1895 N1897 1.610 . S
N1896 S1895 1.613 . S
N1896 C1899 1.350 . S
N1897 S1895 1.610 . S
N1897 C1898 1.351 . S
C1898 C1892 1.428 . S
C1898 N1897 1.351 . S
C1898 C1899 1.434 . S
C1899 C1890 1.429 . S
C1899 N1896 1.350 . S
C1899 C1898 1.434 . S
C1900 C1901 1.369 . S
C1900 C1902 1.419 . S
C1900 H1904 0.930 . S
C1901 C1900 1.369 . S
C1901 C1910 1.429 . S
C1902 C1900 1.419 . S
C1902 C1903 1.363 . S
C1902 H1905 0.929 . S
C1903 C1902 1.363 . S
C1903 C1909 1.428 . S
H1904 C1900 0.930 . S
H1905 C1902 0.929 . S
S1906 N1907 1.613 . S
S1906 N1908 1.610 . S
N1907 S1906 1.613 . S
N1907 C1910 1.350 . S
N1908 S1906 1.610 . S
N1908 C1909 1.351 . S
C1909 C1903 1.428 . S
C1909 N1908 1.351 . S
C1909 C1910 1.434 . S
C1910 C1901 1.429 . S
C1910 N1907 1.350 . S
C1910 C1909 1.434 . S
C1911 C1912 1.369 . S
C1911 C1913 1.419 . S
C1911 H1915 0.930 . S
C1912 C1911 1.369 . S
C1912 C1921 1.429 . S
C1913 C1911 1.419 . S
C1913 C1914 1.363 . S
C1913 H1916 0.929 . S
C1914 C1913 1.363 . S
C1914 C1920 1.428 . S
H1915 C1911 0.930 . S
H1916 C1913 0.929 . S
S1917 N1918 1.613 . S
S1917 N1919 1.610 . S
N1918 S1917 1.613 . S
N1918 C1921 1.350 . S
N1919 S1917 1.610 . S
N1919 C1920 1.351 . S
C1920 C1914 1.428 . S
C1920 N1919 1.351 . S
C1920 C1921 1.434 . S
C1921 C1912 1.429 . S
C1921 N1918 1.350 . S
C1921 C1920 1.434 . S
C1922 C1923 1.369 1_455 S
C1922 C1924 1.419 . S
C1922 H1926 0.930 . S
C1923 C1922 1.369 1_655 S
C1923 C1932 1.429 . S
C1924 C1922 1.419 . S
C1924 C1925 1.363 1_455 S
C1924 H1927 0.929 . S
C1925 C1924 1.363 1_655 S
C1925 C1931 1.428 . S
H1926 C1922 0.930 . S
H1927 C1924 0.929 . S
S1928 N1929 1.613 . S
S1928 N1930 1.610 . S
N1929 S1928 1.613 . S
N1929 C1932 1.350 . S
N1930 S1928 1.610 . S
N1930 C1931 1.351 . S
C1931 C1925 1.428 . S
C1931 N1930 1.351 . S
C1931 C1932 1.434 . S
C1932 C1923 1.429 . S
C1932 N1929 1.350 . S
C1932 C1931 1.434 . S
C1933 C1934 1.369 . S
C1933 C1935 1.419 . S
C1933 H1937 0.930 . S
C1934 C1933 1.369 . S
C1934 C1943 1.429 . S
C1935 C1933 1.419 . S
C1935 C1936 1.363 . S
C1935 H1938 0.929 . S
C1936 C1935 1.363 . S
C1936 C1942 1.428 . S
H1937 C1933 0.930 . S
H1938 C1935 0.929 . S
S1939 N1940 1.613 . S
S1939 N1941 1.610 . S
N1940 S1939 1.613 . S
N1940 C1943 1.350 . S
N1941 S1939 1.610 . S
N1941 C1942 1.351 . S
C1942 C1936 1.428 . S
C1942 N1941 1.351 . S
C1942 C1943 1.434 . S
C1943 C1934 1.429 . S
C1943 N1940 1.350 . S
C1943 C1942 1.434 . S
C1944 C1945 1.369 . S
C1944 C1946 1.419 . S
C1944 H1948 0.930 . S
C1945 C1944 1.369 . S
C1945 C1954 1.429 . S
C1946 C1944 1.419 . S
C1946 C1947 1.363 . S
C1946 H1949 0.929 . S
C1947 C1946 1.363 . S
C1947 C1953 1.428 . S
H1948 C1944 0.930 . S
H1949 C1946 0.929 . S
S1950 N1951 1.613 . S
S1950 N1952 1.610 . S
N1951 S1950 1.613 . S
N1951 C1954 1.350 . S
N1952 S1950 1.610 . S
N1952 C1953 1.351 . S
C1953 C1947 1.428 . S
C1953 N1952 1.351 . S
C1953 C1954 1.434 . S
C1954 C1945 1.429 . S
C1954 N1951 1.350 . S
C1954 C1953 1.434 . S
C1955 C1956 1.369 . S
C1955 C1957 1.419 . S
C1955 H1959 0.930 . S
C1956 C1955 1.369 . S
C1956 C1965 1.429 . S
C1957 C1955 1.419 . S
C1957 C1958 1.363 . S
C1957 H1960 0.929 1_565 S
C1958 C1957 1.363 . S
C1958 C1964 1.428 . S
H1959 C1955 0.930 . S
H1960 C1957 0.929 1_545 S
S1961 N1962 1.613 . S
S1961 N1963 1.611 . S
N1962 S1961 1.613 . S
N1962 C1965 1.350 . S
N1963 S1961 1.611 . S
N1963 C1964 1.365 . S
C1964 C1958 1.428 . S
C1964 N1963 1.365 . S
C1964 C1965 1.434 . S
C1965 C1956 1.429 . S
C1965 N1962 1.350 . S
C1965 C1964 1.434 . S
C1966 C1967 1.369 . S
C1966 C1968 1.419 . S
C1966 H1970 0.930 . S
C1967 C1966 1.369 . S
C1967 C1976 1.429 . S
C1968 C1966 1.419 . S
C1968 C1969 1.363 . S
C1968 H1971 0.929 . S
C1969 C1968 1.363 . S
C1969 C1975 1.428 . S
H1970 C1966 0.930 . S
H1971 C1968 0.929 . S
S1972 N1973 1.613 . S
S1972 N1974 1.610 . S
N1973 S1972 1.613 . S
N1973 C1976 1.350 . S
N1974 S1972 1.610 . S
N1974 C1975 1.351 . S
C1975 C1969 1.428 . S
C1975 N1974 1.351 . S
C1975 C1976 1.434 . S
C1976 C1967 1.429 . S
C1976 N1973 1.350 . S
C1976 C1975 1.434 . S
C1977 C1978 1.369 . S
C1977 C1979 1.419 . S
C1977 H1981 0.930 . S
C1978 C1977 1.369 . S
C1978 C1987 1.429 . S
C1979 C1977 1.419 . S
C1979 C1980 1.363 . S
C1979 H1982 0.929 . S
C1980 C1979 1.363 . S
C1980 C1986 1.428 . S
H1981 C1977 0.930 . S
H1982 C1979 0.929 . S
S1983 N1984 1.613 . S
S1983 N1985 1.610 . S
N1984 S1983 1.613 . S
N1984 C1987 1.350 . S
N1985 S1983 1.610 . S
N1985 C1986 1.351 . S
C1986 C1980 1.428 . S
C1986 N1985 1.351 . S
C1986 C1987 1.434 . S
C1987 C1978 1.429 . S
C1987 N1984 1.350 . S
C1987 C1986 1.434 . S
C1988 C1989 1.369 . S
C1988 C1990 1.419 . S
C1988 H1992 0.930 . S
C1989 C1988 1.369 . S
C1989 C1998 1.429 . S
C1990 C1988 1.419 . S
C1990 C1991 1.363 . S
C1990 H1993 0.929 . S
C1991 C1990 1.363 . S
C1991 C1997 1.428 . S
H1992 C1988 0.930 . S
H1993 C1990 0.929 . S
S1994 N1995 1.613 . S
S1994 N1996 1.610 . S
N1995 S1994 1.613 . S
N1995 C1998 1.350 . S
N1996 S1994 1.610 . S
N1996 C1997 1.351 . S
C1997 C1991 1.428 . S
C1997 N1996 1.351 . S
C1997 C1998 1.434 . S
C1998 C1989 1.429 . S
C1998 N1995 1.350 . S
C1998 C1997 1.434 . S
C1999 C2000 1.369 . S
C1999 C2001 1.419 . S
C1999 H2003 0.930 . S
C2000 C1999 1.369 . S
C2000 C2009 1.429 . S
C2001 C1999 1.419 . S
C2001 C2002 1.363 . S
C2001 H2004 0.929 . S
C2002 C2001 1.363 . S
C2002 C2008 1.428 . S
H2003 C1999 0.930 . S
H2004 C2001 0.929 . S
S2005 N2006 1.617 . S
S2005 N2007 1.611 1_554 S
N2006 S2005 1.617 . S
N2006 C2009 1.350 . S
N2007 S2005 1.611 1_556 S
N2007 C2008 1.351 1_556 S
C2008 C2002 1.428 . S
C2008 N2007 1.351 1_554 S
C2008 C2009 1.434 . S
C2009 C2000 1.429 . S
C2009 N2006 1.350 . S
C2009 C2008 1.434 . S
C2010 C2011 1.369 . S
C2010 C2012 1.419 . S
C2010 H2014 0.930 . S
C2011 C2010 1.369 . S
C2011 C2020 1.429 . S
C2012 C2010 1.419 . S
C2012 C2013 1.363 . S
C2012 H2015 0.929 . S
C2013 C2012 1.363 . S
C2013 C2019 1.428 . S
H2014 C2010 0.930 . S
H2015 C2012 0.929 . S
S2016 N2017 1.613 . S
S2016 N2018 1.610 . S
N2017 S2016 1.613 . S
N2017 C2020 1.350 . S
N2018 S2016 1.610 . S
N2018 C2019 1.351 . S
C2019 C2013 1.428 . S
C2019 N2018 1.351 . S
C2019 C2020 1.434 . S
C2020 C2011 1.429 . S
C2020 N2017 1.350 . S
C2020 C2019 1.434 . S
C2021 C2022 1.369 . S
C2021 C2023 1.419 . S
C2021 H2025 0.930 . S
C2022 C2021 1.369 . S
C2022 C2031 1.429 . S
C2023 C2021 1.419 . S
C2023 C2024 1.363 . S
C2023 H2026 0.929 . S
C2024 C2023 1.363 . S
C2024 C2030 1.428 . S
H2025 C2021 0.930 . S
H2026 C2023 0.929 . S
S2027 N2028 1.613 . S
S2027 N2029 1.610 . S
N2028 S2027 1.613 . S
N2028 C2031 1.350 . S
N2029 S2027 1.610 . S
N2029 C2030 1.351 . S
C2030 C2024 1.428 . S
C2030 N2029 1.351 . S
C2030 C2031 1.434 . S
C2031 C2022 1.429 . S
C2031 N2028 1.350 . S
C2031 C2030 1.434 . S
C977 C106 2.651 . S
C979 C338 2.662 . S
C988 C65 2.238 . S
C990 C395 2.249 . S
C999 C79 1.716 . S
C1001 C418 1.633 . S
C1012 C472 1.205 . S
C1010 C90 1.203 . S
C1021 C21 1.365 . S
C1023 C512 1.397 . S
C1034 C543 0.945 . S
C1032 C35 0.951 . S
C1045 C595 1.681 . S
C1043 C50 1.627 . S
C1054 C6 2.041 . S
C1056 C618 2.080 . S
C1067 C355 2.739 . S
C1065 C232 2.729 1_455 S
C1076 C245 0.882 . S
C1078 C392 0.881 . S
C1089 C435 1.358 . S
C1087 C274 1.349 . S
C1100 C458 1.505 . S
C1098 C175 1.520 . S
C1109 C231 1.756 1_455 S
C1111 C498 1.812 . S
C1122 C546 1.541 . S
C1120 C246 1.544 . S
C1133 C592 0.524 . S
C1131 C273 0.509 . S
C1144 C635 2.393 . S
C1142 C176 2.361 . S
C1155 C352 1.662 . S
C1153 C160 1.679 . S
C1164 C289 2.003 . S
C1166 C675 2.006 . S
C1177 C707 2.735 . S
C1175 C328 2.694 . S
C1188 C738 0.935 1_655 S
C1186 C317 0.949 . S
C1197 C118 1.914 . S
C1199 C632 1.977 . S
C1208 C132 1.673 . S
C1210 C432 1.679 . S
C1219 C331 2.334 . S
C1221 C795 2.324 . S
C1232 C818 0.974 . S
C1230 C303 1.064 . S
C1243 C347 2.293 . S
C1241 C63 2.279 . S
C1254 C826 2.677 . S
C1252 C107 2.585 . S
C1263 C92 1.493 . S
C1265 C427 1.499 . S
C1274 C78 1.583 . S
C1276 C783 1.574 . S
C1287 C503 1.623 . S
C1285 C8 1.742 . S
C1296 C51 0.908 . S
C1298 C712 0.895 . S
C1309 C586 2.203 1_556 S
C1307 C37 2.006 . S
C1320 C867 1.998 . S
C1318 C20 1.987 . S
C1331 C346 2.544 . S
C1329 C147 2.475 . S
C1342 C823 0.878 . S
C1340 C316 0.908 . S
C1351 C119 1.205 . S
C1353 C426 1.267 . S
C1362 C288 1.581 . S
C1364 C787 1.607 . S
C1373 C148 2.216 . S
C1375 C507 2.176 . S
C1386 C715 1.479 . S
C1384 C315 1.394 . S
C1395 C120 0.694 . S
C1397 C583 0.693 . S
C1406 C287 2.186 . S
C1408 C866 2.197 . S
C1417 C188 1.712 . S
C1419 C343 1.618 . S
C1428 C177 2.229 . S
C1430 C666 2.286 . S
C1439 C258 2.769 . S
C1441 C538 2.813 . S
C1450 C247 0.916 . S
C1452 C747 0.947 . S
C1463 C863 1.740 . S
C1461 C272 1.766 . S
C1472 C216 1.547 . S
C1474 C423 1.531 . S
C1485 C466 2.518 . S
C1483 C261 2.483 . S
C1496 C387 0.875 . S
C1494 C205 0.901 . S
C1505 C76 2.248 . S
C1507 C898 2.283 . S
C1518 C835 2.345 . S
C1516 C93 2.335 . S
C1527 C105 1.362 . S
C1529 C938 1.322 . S
C1538 C62 1.215 . S
C1540 C792 1.224 . S
C1549 C49 1.393 . S
C1551 C672 1.408 . S
C1562 C703 1.180 . S
C1560 C9 1.243 . S
C1573 C755 1.613 . S
C1571 C22 1.560 1_455 S
C1584 C858 2.445 . S
C1582 C36 2.498 . S
C1595 C915 2.705 . S
C1593 C260 2.694 . S
C1604 C189 0.778 . S
C1606 C832 0.771 . S
C1617 C955 1.260 . S
C1615 C204 1.243 . S
C1628 C778 1.375 . S
C1626 C217 1.405 . S
C1639 C658 2.096 . S
C1637 C259 2.025 . S
C1648 C190 1.586 . S
C1650 C706 1.591 . S
C1661 C752 0.640 . S
C1659 C203 0.648 . S
C1670 C218 2.436 . S
C1672 C875 2.472 . S
C1683 C912 1.660 . S
C1681 C314 1.668 . S
C1692 C135 2.064 . S
C1694 C515 2.064 . S
C1705 C547 2.658 . S
C1703 C146 2.609 . S
C1716 C578 0.933 . S
C1714 C163 0.935 . S
C1727 C872 1.979 . S
C1725 C300 1.917 . S
C1736 C286 1.666 . S
C1738 C952 1.683 . S
C1749 C475 2.254 . S
C1747 C149 2.258 . S
C1760 C378 0.970 . S
C1758 C121 1.084 . S
C1769 C91 2.275 . S
C1771 C907 2.295 . S
C1782 C386 2.258 . S
C1780 C77 2.087 . S
C1791 C64 1.451 . S
C1793 C947 1.486 . S
C1802 C104 1.348 . S
C1804 C463 1.350 . S
C1813 C34 1.527 . S
C1815 C663 1.489 . S
C1826 C552 0.827 . S
C1824 C23 0.825 . S
C1835 C7 1.541 . S
C1837 C746 1.798 . S
C1846 C48 1.959 . S
C1848 C627 1.990 . S
C1859 C906 2.482 . S
C1857 C329 2.422 . S
C1868 C162 0.890 . S
C1870 C383 0.868 . S
C1881 C946 1.227 . S
C1879 C301 1.178 1_455 S
C1890 C134 1.594 . S
C1892 C467 1.615 . S
C1901 C330 2.156 . S
C1903 C667 2.122 . S
C1914 C555 1.455 . S
C1912 C161 1.402 . S
C1923 C302 0.632 . S
C1925 C743 0.652 1_655 S
C1936 C626 2.140 . S
C1934 C133 2.137 . S
C1947 C903 1.692 . S
C1945 C244 1.766 . S
C1958 C506 2.244 1_665 S
C1956 C219 2.178 . S
C1967 C230 2.508 . S
C1969 C698 2.536 . S
C1980 C587 0.895 . S
C1978 C191 0.877 . S
C1989 C202 1.824 . S
C1991 C623 1.808 . S
C2000 C174 1.630 . S
C2002 C943 1.626 . S
C2013 C786 2.517 . S
C2011 C233 2.468 1_565 S
C2024 C827 0.921 . S
C2022 C275 0.950 . S
