# Generated by pormake.
# Topology pth, (4,4)-cn, num edge types: 1
# Building blocks:
#     Node 0, Type 0, BuildingBlock: KUFVIS_clean_sbu_0, # of connection points: 4
#     Node 1, Type 0, BuildingBlock: KUFVIS_clean_sbu_0, # of connection points: 4
#     Node 2, Type 0, BuildingBlock: KUFVIS_clean_sbu_0, # of connection points: 4
#     Node 3, Type 1, BuildingBlock: NAWXER_clean_sbu_0, # of connection points: 4
#     Node 4, Type 1, BuildingBlock: NAWXER_clean_sbu_0, # of connection points: 4
#     Node 5, Type 1, BuildingBlock: NAWXER_clean_sbu_0, # of connection points: 4
#     Edge 6, Type (0, 1), BuildingBlock: FUNLAD_clean_linker_1, # of connection points: 2
#     Edge 7, Type (0, 1), BuildingBlock: FUNLAD_clean_linker_1, # of connection points: 2
#     Edge 8, Type (0, 1), BuildingBlock: FUNLAD_clean_linker_1, # of connection points: 2
#     Edge 9, Type (0, 1), BuildingBlock: FUNLAD_clean_linker_1, # of connection points: 2
#     Edge 10, Type (0, 1), BuildingBlock: FUNLAD_clean_linker_1, # of connection points: 2
#     Edge 11, Type (0, 1), BuildingBlock: FUNLAD_clean_linker_1, # of connection points: 2
#     Edge 12, Type (0, 1), BuildingBlock: FUNLAD_clean_linker_1, # of connection points: 2
#     Edge 13, Type (0, 1), BuildingBlock: FUNLAD_clean_linker_1, # of connection points: 2
#     Edge 14, Type (0, 1), BuildingBlock: FUNLAD_clean_linker_1, # of connection points: 2
#     Edge 15, Type (0, 1), BuildingBlock: FUNLAD_clean_linker_1, # of connection points: 2
#     Edge 16, Type (0, 1), BuildingBlock: FUNLAD_clean_linker_1, # of connection points: 2
#     Edge 17, Type (0, 1), BuildingBlock: FUNLAD_clean_linker_1, # of connection points: 2
# Relax obj value: 0.009
# Max RMSD: 0.080
# Mean RMSD: 0.046
data_MOF--net-pth--node1-KUFVIS_clean_sbu_0--node2-NAWXER_clean_sbu_0--edge1-FUNLAD_clean_linker_1
_symmetry_space_group_name_H-M    P1
_symmetry_Int_Tables_number       1
_symmetry_cell_setting            triclinic
loop_
_symmetry_equiv_pos_as_xyz
'x, y, z'
_cell_length_a     23.204471
_cell_length_b     23.369129
_cell_length_c     59.685273
_cell_angle_alpha  90.294084
_cell_angle_beta   91.948159
_cell_angle_gamma 119.45185
loop_
_atom_site_label
_atom_site_type_symbol
_atom_site_fract_x
_atom_site_fract_y
_atom_site_fract_z
_atom_type_partial_charge
Mn0 Mn 0.04492 0.10253 0.07252 0.0
Mn1 Mn 0.96759 0.16499 0.04045 0.0
C2 C 0.97712 0.04158 0.04218 0.0
C3 C 0.04245 0.04128 0.10367 0.0
C4 C 0.11354 0.20728 0.03729 0.0
O5 O 0.05403 0.17892 0.09182 0.0
O6 O 0.9945 0.21189 0.07028 0.0
C7 C 0.84747 0.11998 0.0667 0.0
N8 N 0.87579 0.12133 0.04695 0.0
C9 C 0.76928 0.05206 0.0286 0.0
C10 C 0.73892 0.05037 0.0487 0.0
C11 C 0.77821 0.08442 0.06783 0.0
C12 C 0.83847 0.08874 0.02844 0.0
H13 H 0.87754 0.14567 0.08148 0.0
C14 C 0.02866 0.21582 0.08815 0.0
O15 O 0.0983 0.08191 0.09495 0.0
O16 O 0.98937 0.03845 0.09494 0.0
N17 N 0.93863 0.12431 0.01127 0.0
C18 C 0.97578 0.12861 0.9935 0.0
C19 C 0.94407 0.09666 0.9731 0.0
C20 C 0.8746 0.06025 0.97123 0.0
C21 C 0.83741 0.05698 0.9897 0.0
C22 C 0.87172 0.09106 1.00945 0.0
H23 H 0.0292 0.1561 0.99486 0.0
O24 O 0.02135 0.0285 0.05071 0.0
O25 O 0.9737 0.08979 0.05185 0.0
O26 O 0.11575 0.16813 0.05179 0.0
O27 O 0.06132 0.2108 0.03233 0.0
C28 C 0.76772 0.0204 0.9894 0.0
C29 C 0.73368 0.01792 1.00884 0.0
H30 H 0.68554 0.02266 0.04968 0.0
H31 H 0.75517 0.08304 0.08343 0.0
H32 H 0.97314 0.09964 0.9589 0.0
H33 H 0.85038 0.03471 0.95557 0.0
H34 H 0.73984 0.99342 0.97438 0.0
H35 H 0.68012 0.98911 1.00846 0.0
Mn36 Mn 0.05999 0.10738 0.40424 0.0
Mn37 Mn 0.10118 0.25193 0.43017 0.0
C38 C 0.13621 0.14475 0.43451 0.0
C39 C 0.07651 0.0481 0.37596 0.0
C40 C 0.97215 0.12634 0.43726 0.0
O41 O 0.02754 0.15153 0.38155 0.0
O42 O 0.0632 0.24894 0.39952 0.0
C43 C 0.20938 0.34136 0.40153 0.0
N44 N 0.18782 0.31695 0.42212 0.0
C45 C 0.29355 0.3923 0.43979 0.0
C46 C 0.31694 0.41824 0.41876 0.0
C47 C 0.27473 0.39245 0.39954 0.0
C48 C 0.22834 0.34062 0.44067 0.0
H49 H 0.17687 0.32219 0.38675 0.0
C50 C 0.03538 0.20951 0.38263 0.0
O51 O 0.02048 0.02413 0.38578 0.0
O52 O 0.12224 0.10674 0.38213 0.0
N53 N 0.13895 0.26253 0.45993 0.0
C54 C 0.10788 0.23403 0.47906 0.0
C55 C 0.14317 0.25434 0.49981 0.0
C56 C 0.20948 0.30493 0.50075 0.0
C57 C 0.23969 0.33516 0.48094 0.0
C58 C 0.20228 0.31222 0.46071 0.0
H59 H 0.05666 0.19584 0.47849 0.0
O60 O 0.10465 0.08313 0.42847 0.0
O61 O 0.123 0.18324 0.42233 0.0
O62 O 0.98342 0.08882 0.42473 0.0
O63 O 1.01209 0.18793 0.43993 0.0
C64 C 0.30522 0.38764 0.48049 0.0
C65 C 0.3322 0.41606 0.45992 0.0
H66 H 0.36711 0.45807 0.41719 0.0
H67 H 0.29234 0.41231 0.38326 0.0
H68 H 0.11918 0.23134 0.51504 0.0
H69 H 0.23645 0.3207 0.51679 0.0
H70 H 0.3354 0.40636 0.49585 0.0
H71 H 0.38274 0.45612 0.45978 0.0
Mn72 Mn 0.0729 0.10509 0.7393 0.0
Mn73 Mn 0.0312 0.18854 0.77591 0.0
C74 C 0.13492 0.14812 0.77246 0.0
C75 C 0.13217 0.1045 0.70845 0.0
C76 C 0.96025 0.04022 0.77261 0.0
O77 O 1.01046 0.12458 0.72015 0.0
O78 O 0.98377 0.17657 0.74628 0.0
C79 C 0.09792 0.31472 0.75233 0.0
N80 N 0.09043 0.27977 0.77125 0.0
C81 C 0.17863 0.37434 0.7908 0.0
C82 C 0.18695 0.41141 0.77157 0.0
C83 C 0.14647 0.38143 0.75225 0.0
C84 C 0.12952 0.30804 0.78987 0.0
H85 H 0.06734 0.29179 0.73738 0.0
C86 C 0.9787 0.1531 0.72643 0.0
O87 O 0.08037 0.05112 0.71447 0.0
O88 O 0.1475 0.15801 0.71964 0.0
N89 N 0.07224 0.20456 0.80535 0.0
C90 C 0.05573 0.16275 0.82283 0.0
C91 C 0.09145 0.18518 0.84347 0.0
C92 C 0.14282 0.2506 0.84604 0.0
C93 C 0.15697 0.29345 0.82811 0.0
C94 C 0.11937 0.26844 0.808 0.0
H95 H 1.01655 0.11242 0.82091 0.0
O96 O 0.13768 0.10163 0.76149 0.0
O97 O 0.09672 0.16875 0.76352 0.0
O98 O 0.99294 0.03593 0.7564 0.0
O99 O 0.97117 0.09472 0.78163 0.0
C100 C 0.20678 0.35998 0.82941 0.0
C101 C 0.2176 0.4004 0.81076 0.0
H102 H 0.22451 0.46281 0.77141 0.0
H103 H 0.15285 0.40963 0.7373 0.0
H104 H 0.07965 0.15205 0.85731 0.0
H105 H 0.17066 0.26755 0.8619 0.0
H106 H 0.23714 0.38054 0.84465 0.0
H107 H 0.25623 0.45141 0.81193 0.0
C108 C 0.13435 0.7193 0.27188 0.0
C109 C 0.13461 0.5711 0.21331 0.0
O110 O 0.18307 0.71178 0.26685 0.0
Zn111 Zn 0.13737 0.64623 0.24273 0.0
O112 O 0.07795 0.68457 0.26164 0.0
Zn113 Zn 0.03367 0.60971 0.23593 0.0
O114 O 0.96945 0.53464 0.2526 0.0
O115 O 0.07322 0.56174 0.26104 0.0
O116 O 0.07757 0.56617 0.21565 0.0
O117 O 0.18404 0.61252 0.22539 0.0
O118 O 0.11403 0.69979 0.2184 0.0
O119 O 1.00513 0.65317 0.21404 0.0
C120 C 1.01115 0.52391 0.26347 0.0
C121 C 0.06262 0.6981 0.2091 0.0
C122 C 0.66135 0.18859 0.60666 0.0
C123 C 0.50678 0.19242 0.54988 0.0
O124 O 0.62167 0.13104 0.59833 0.0
Zn125 Zn 0.54124 0.08799 0.57333 0.0
O126 O 0.65599 0.2374 0.6001 0.0
Zn127 Zn 0.58347 0.19073 0.57841 0.0
O128 O 0.49936 0.13209 0.59832 0.0
O129 O 0.46602 0.02792 0.59027 0.0
O130 O 0.55176 0.24043 0.56139 0.0
O131 O 0.49843 0.13437 0.55257 0.0
O132 O 0.57629 0.05241 0.55146 0.0
O133 O 0.62936 0.1609 0.5536 0.0
C134 C 0.45885 0.07087 0.60104 0.0
C135 C 0.6224 0.10728 0.5451 0.0
C136 C 0.4604 0.55069 0.93048 0.0
C137 C 0.62109 0.68369 0.87497 0.0
O138 O 0.46192 0.59789 0.91953 0.0
Zn139 Zn 0.53892 0.6177 0.90229 0.0
O140 O 0.50491 0.53428 0.92761 0.0
Zn141 Zn 0.59022 0.56412 0.90787 0.0
O142 O 0.66105 0.59343 0.93058 0.0
O143 O 0.61886 0.6598 0.92736 0.0
O144 O 0.6338 0.64163 0.88426 0.0
O145 O 0.56924 0.68585 0.87986 0.0
O146 O 0.50307 0.53001 0.88204 0.0
O147 O 0.56568 0.48536 0.88985 0.0
C148 C 0.6613 0.64593 0.93644 0.0
C149 C 0.51715 0.48406 0.87888 0.0
H150 H 1.01496 0.29605 0.10178 0.0
C151 C 0.03924 0.26706 0.10503 0.0
H152 H 0.10193 0.25118 0.12761 0.0
H153 H 0.1559 0.55381 0.15293 0.0
H154 H 0.20754 0.58356 0.11704 0.0
H155 H 0.207 0.4995 0.09172 0.0
H156 H 0.15378 0.38495 0.10199 0.0
C157 C 0.07831 0.28036 0.1237 0.0
C158 C 0.08699 0.33265 0.14017 0.0
C159 C 0.12064 0.39988 0.13433 0.0
C160 C 0.12316 0.44878 0.14932 0.0
C161 C 0.15408 0.51492 0.14251 0.0
C162 C 0.18376 0.53268 0.12191 0.0
C163 C 0.1833 0.48533 0.10762 0.0
C164 C 0.15221 0.41966 0.11367 0.0
H165 H 0.19077 0.53207 0.19538 0.0
C166 C 0.14204 0.52703 0.19717 0.0
H167 H 0.04026 0.4728 0.18775 0.0
H168 H 0.02356 0.20931 0.15738 0.0
H169 H 0.97716 0.18027 0.19411 0.0
H170 H 0.9843 0.26532 0.22051 0.0
H171 H 0.03775 0.37996 0.21032 0.0
C172 C 0.08948 0.47973 0.18534 0.0
C173 C 0.09391 0.43066 0.17046 0.0
C174 C 0.06343 0.36393 0.17676 0.0
C175 C 0.05998 0.31494 0.16163 0.0
C176 C 0.02809 0.24859 0.16827 0.0
C177 C 1.00118 0.23121 0.1893 0.0
C178 C 1.00513 0.27908 0.20416 0.0
C179 C 0.03578 0.34469 0.19806 0.0
H180 H 0.87809 0.04369 0.4487 0.0
C181 C 0.9104 0.09664 0.44985 0.0
H182 H 0.92756 0.18609 0.46474 0.0
H183 H 0.60838 0.01449 0.48255 0.0
H184 H 0.59024 1.00005 0.4421 0.0
H185 H 0.68427 0.0347 0.41739 0.0
H186 H 0.79677 0.08338 0.43288 0.0
C187 C 0.89436 0.1334 0.46296 0.0
C188 C 0.83595 0.10476 0.47747 0.0
C189 C 0.77037 0.07645 0.46803 0.0
C190 C 0.71608 0.05763 0.48226 0.0
C191 C 0.65125 0.02995 0.47247 0.0
C192 C 0.64017 0.02142 0.44931 0.0
C193 C 0.69313 0.04084 0.4354 0.0
C194 C 0.75756 0.06842 0.44453 0.0
H195 H 0.7098 0.1604 0.52482 0.0
C196 C 0.6711 0.11147 0.52896 0.0
H197 H 0.63414 0.00937 0.52377 0.0
H198 H 0.9541 0.15114 0.5012 0.0
H199 H 0.97129 0.16285 0.54164 0.0
H200 H 0.87702 0.12992 0.56616 0.0
H201 H 0.76511 0.08552 0.55032 0.0
C202 C 0.67248 0.05899 0.52028 0.0
C203 C 0.72752 0.06861 0.50575 0.0
C204 C 0.7925 0.09331 0.51525 0.0
C205 C 0.84672 0.11173 0.50111 0.0
C206 C 0.91116 0.13693 0.51111 0.0
C207 C 0.9217 0.14361 0.53432 0.0
C208 C 0.86866 0.12513 0.54812 0.0
C209 C 0.80471 0.10009 0.5388 0.0
H210 H 0.88087 0.93612 0.76961 0.0
C211 C 0.90474 0.97884 0.78089 0.0
H212 H 0.90711 0.01894 0.81274 0.0
H213 H 0.62725 0.85471 0.84746 0.0
H214 H 0.63847 0.96288 0.84478 0.0
H215 H 0.73144 0.05113 0.8253 0.0
H216 H 0.81448 0.03203 0.8088 0.0
C217 C 0.88274 0.97571 0.80172 0.0
C218 C 0.82156 0.91828 0.81002 0.0
C219 C 0.7713 0.92917 0.81866 0.0
C220 C 0.71616 0.87747 0.82915 0.0
C221 C 0.66922 0.89132 0.83879 0.0
C222 C 0.67508 0.95341 0.83742 0.0
C223 C 0.72749 1.00313 0.82651 0.0
C224 C 0.7751 0.99149 0.81722 0.0
H225 H 0.72159 0.74306 0.86312 0.0
C226 C 0.67064 0.73221 0.86026 0.0
H227 H 0.60506 0.75093 0.8406 0.0
H228 H 0.91137 0.88006 0.79791 0.0
H229 H 0.89288 0.76882 0.79622 0.0
H230 H 0.78766 0.6759 0.80796 0.0
H231 H 0.70166 0.69449 0.82249 0.0
C232 C 0.65599 0.762 0.84359 0.0
C233 C 0.7095 0.81386 0.83014 0.0
C234 C 0.75634 0.80145 0.8195 0.0
C235 C 0.81425 0.85426 0.81065 0.0
C236 C 0.86414 0.84145 0.80312 0.0
C237 C 0.85451 0.77774 0.80231 0.0
C238 C 0.79549 0.72549 0.80907 0.0
C239 C 0.74684 0.73693 0.81759 0.0
H240 H 0.98814 0.96682 0.12856 0.0
C241 C 0.03651 0.99538 0.12148 0.0
H242 H 0.13304 1.00798 0.12009 0.0
H243 H 0.07948 0.85749 0.21448 0.0
H244 H 0.14181 0.9699 0.22877 0.0
H245 H 0.17263 0.06305 0.20357 0.0
H246 H 0.14081 0.04422 0.16388 0.0
C247 C 0.08454 0.98136 0.1272 0.0
C248 C 0.0702 0.92518 0.14209 0.0
C249 C 0.09052 0.93686 0.16508 0.0
C250 C 0.07388 0.88303 0.17951 0.0
C251 C 0.09248 0.89635 0.2026 0.0
C252 C 0.12787 0.9607 0.21107 0.0
C253 C 0.14512 0.01316 0.19689 0.0
C254 C 0.1266 1.00168 0.17416 0.0
H255 H 0.12321 0.78492 0.18921 0.0
C256 C 0.07259 0.75073 0.19349 0.0
H257 H 0.97241 0.72696 0.18923 0.0
H258 H 0.0262 0.88544 0.09861 0.0
H259 H 0.96376 0.77308 0.08425 0.0
H260 H 0.93475 0.67983 0.10924 0.0
H261 H 0.96803 0.69837 0.14877 0.0
C262 C 0.02357 0.7608 0.18552 0.0
C263 C 0.03822 0.81745 0.17078 0.0
C264 C 1.0177 0.80583 0.14778 0.0
C265 C 0.03407 0.85967 0.1334 0.0
C266 C 1.01422 0.84648 0.11038 0.0
C267 C 0.97861 0.78219 0.10188 0.0
C268 C 0.96231 0.72969 0.11595 0.0
C269 C 0.98166 0.74105 0.13862 0.0
H270 H 0.24198 0.17822 0.43803 0.0
C271 C 0.1992 0.1687 0.44752 0.0
H272 H 0.15604 0.1493 0.47855 0.0
H273 H 0.31965 0.06096 0.53779 0.0
H274 H 0.20641 0.97558 0.54188 0.0
H275 H 0.11572 0.97254 0.51825 0.0
H276 H 0.13737 0.05512 0.49082 0.0
C277 C 0.20121 0.16328 0.46989 0.0
C278 C 0.25833 0.16391 0.48285 0.0
C279 C 0.24486 0.11255 0.49813 0.0
C280 C 0.29753 0.11201 0.51093 0.0
C281 C 0.28205 0.06247 0.52699 0.0
C282 C 0.21709 0.01319 0.52964 0.0
C283 C 0.16607 0.01165 0.5164 0.0
C284 C 0.17941 0.06025 0.5008 0.0
H285 H 0.46047 0.24872 0.53624 0.0
C286 C 0.46112 0.20267 0.53473 0.0
H287 H 0.41868 0.10915 0.51895 0.0
H288 H 0.30422 0.27619 0.45811 0.0
H289 H 0.41809 0.355 0.45168 0.0
H290 H 0.50913 0.34364 0.46957 0.0
H291 H 0.48621 0.2542 0.49447 0.0
C292 C 0.41849 0.15549 0.52014 0.0
C293 C 0.36418 0.16014 0.50756 0.0
C294 C 0.37815 0.21022 0.49185 0.0
C295 C 0.32531 0.21388 0.48024 0.0
C296 C 0.34148 0.26816 0.46632 0.0
C297 C 0.40702 0.3144 0.46264 0.0
C298 C 0.45825 0.30819 0.47277 0.0
C299 C 0.4443 0.25681 0.4872 0.0
H300 H 0.16814 0.18265 0.80755 0.0
C301 C 0.18402 0.18439 0.79072 0.0
H302 H 0.26433 0.22387 0.76958 0.0
H303 H 0.43446 0.49441 0.82023 0.0
H304 H 0.41474 0.52572 0.78336 0.0
H305 H 0.33921 0.44195 0.75542 0.0
H306 H 0.28368 0.32666 0.76403 0.0
C307 C 0.24829 0.22248 0.78657 0.0
C308 C 0.29549 0.27224 0.80351 0.0
C309 C 0.32721 0.33989 0.79821 0.0
C310 C 0.36923 0.38845 0.81455 0.0
C311 C 0.40103 0.4555 0.80865 0.0
C312 C 0.39034 0.47424 0.7875 0.0
C313 C 0.34802 0.42708 0.77175 0.0
C314 C 0.31667 0.36076 0.77693 0.0
H315 H 0.49299 0.39498 0.85843 0.0
C316 C 0.4763 0.42953 0.86275 0.0
H317 H 0.40255 0.45674 0.85773 0.0
H318 H 0.25177 0.14719 0.81833 0.0
H319 H 0.26308 0.11655 0.85631 0.0
H320 H 0.32431 0.20135 0.88589 0.0
H321 H 0.37651 0.3171 0.87748 0.0
C322 C 0.41887 0.42173 0.85364 0.0
C323 C 0.37825 0.3697 0.83638 0.0
C324 C 0.34562 0.30225 0.84185 0.0
C325 C 0.30631 0.2534 0.82517 0.0
C326 C 0.27863 0.18636 0.83067 0.0
C327 C 0.28532 0.16808 0.85236 0.0
C328 C 0.32009 0.2158 0.86898 0.0
C329 C 0.35018 0.28215 0.86387 0.0
H330 H 0.8862 0.15377 0.718 0.0
C331 C 0.92974 0.15623 0.71079 0.0
H332 H 0.98183 0.16787 0.68148 0.0
H333 H 0.74592 0.07441 0.60998 0.0
H334 H 0.7943 1.0064 0.60112 0.0
H335 H 0.88292 1.00802 0.62558 0.0
H336 H 0.92493 0.07895 0.65867 0.0
C337 C 0.93784 0.16454 0.68861 0.0
C338 C 0.88584 0.16578 0.67327 0.0
C339 C 0.86004 0.12204 0.65436 0.0
C340 C 0.80684 0.11898 0.64077 0.0
C341 C 0.78453 0.0772 0.62137 0.0
C342 C 0.81209 0.03801 0.61599 0.0
C343 C 0.86211 0.03908 0.62972 0.0
C344 C 0.88591 0.08033 0.6487 0.0
H345 H 0.75738 0.2488 0.62501 0.0
C346 C 0.71628 0.19907 0.62251 0.0
H347 H 0.6769 0.09932 0.6302 0.0
H348 H 0.93631 0.27025 0.70324 0.0
H349 H 0.88467 0.33457 0.71346 0.0
H350 H 0.77951 0.31397 0.69476 0.0
H351 H 0.72738 0.23145 0.66501 0.0
C352 C 0.71781 0.14901 0.63306 0.0
C353 C 0.77703 0.1572 0.64663 0.0
C354 C 0.80319 0.20136 0.66544 0.0
C355 C 0.86006 0.2085 0.67783 0.0
C356 C 0.89008 0.25893 0.69458 0.0
C357 C 0.86141 0.29678 0.70043 0.0
C358 C 0.80249 0.28551 0.68979 0.0
C359 C 0.77345 0.23838 0.67253 0.0
H360 H 0.87723 0.99091 0.02565 0.0
C361 C 0.92562 0.99462 0.0261 0.0
H362 H 0.98278 0.95399 0.01424 0.0
H363 H 0.67356 0.71108 0.99526 0.0
H364 H 0.66841 0.70506 0.03577 0.0
H365 H 0.76087 0.78651 0.06015 0.0
H366 H 0.85858 0.87483 0.04421 0.0
C367 C 0.93459 0.95115 0.01403 0.0
C368 C 0.88015 0.8995 0.99949 0.0
C369 C 0.82405 0.8471 1.00915 0.0
C370 C 0.7716 0.79886 0.99511 0.0
C371 C 0.71536 0.74821 1.00515 0.0
C372 C 0.7117 0.74425 0.02838 0.0
C373 C 0.76367 0.79021 0.04211 0.0
C374 C 0.81935 0.841 0.03271 0.0
H375 H 0.74519 0.67797 0.96127 0.0
C376 C 0.71222 0.69241 0.95285 0.0
H377 H 0.69011 0.76912 0.94757 0.0
H378 H 0.98238 0.99073 0.97564 0.0
H379 H 0.98806 0.99572 0.93514 0.0
H380 H 0.89679 0.91251 0.91081 0.0
H381 H 0.79947 0.82352 0.92684 0.0
C382 C 0.72077 0.75299 0.95664 0.0
C383 C 0.77597 0.80229 0.97148 0.0
C384 C 0.83238 0.85412 0.96185 0.0
C385 C 0.88485 0.90229 0.97587 0.0
C386 C 0.94099 0.95295 0.96578 0.0
C387 C 0.9449 0.95641 0.94255 0.0
C388 C 0.89349 0.90961 0.92885 0.0
C389 C 0.83786 0.85885 0.93828 0.0
H390 H 0.11764 0.03703 0.34448 0.0
C391 C 0.08858 0.01058 0.3586 0.0
H392 H 0.04081 0.921 0.37521 0.0
H393 H 0.98022 0.71891 0.29701 0.0
H394 H 0.87165 0.68605 0.31065 0.0
H395 H 0.85579 0.75452 0.33863 0.0
H396 H 0.9486 0.85548 0.35345 0.0
C397 C 0.06847 0.94625 0.36069 0.0
C398 C 0.07904 0.90658 0.34314 0.0
C399 C 0.02369 0.84864 0.334 0.0
C400 C 0.0324 0.81057 0.31712 0.0
C401 C 0.97648 0.7512 0.3092 0.0
C402 C 0.9137 0.7314 0.31699 0.0
C403 C 0.90482 0.76982 0.33278 0.0
C404 C 0.95884 0.82771 0.34123 0.0
H405 H 0.17624 0.7766 0.30375 0.0
C406 C 0.141 0.76638 0.28979 0.0
H407 H 0.06755 0.78335 0.27492 0.0
H408 H 0.19847 1.00422 0.36072 0.0
H409 H 0.30612 0.04174 0.3453 0.0
H410 H 0.31819 0.98733 0.31168 0.0
H411 H 0.22318 0.89337 0.29393 0.0
C412 C 0.10189 0.79408 0.28924 0.0
C413 C 0.09597 0.83196 0.30848 0.0
C414 C 0.15131 0.89022 0.31747 0.0
C415 C 0.14337 0.92546 0.3356 0.0
C416 C 0.20068 0.97882 0.34588 0.0
C417 C 0.26299 1.0004 0.33735 0.0
C418 C 0.26985 0.9695 0.31852 0.0
C419 C 0.21487 0.91509 0.30862 0.0
H420 H 0.21782 0.15276 0.68708 0.0
C421 C 0.17639 0.10525 0.69108 0.0
H422 H 0.13172 1.00233 0.68573 0.0
H423 H 0.294 0.0542 0.59545 0.0
H424 H 0.18423 0.02041 0.57926 0.0
H425 H 0.0923 1.00111 0.60331 0.0
H426 H 0.10964 0.01604 0.64378 0.0
C427 C 0.17237 0.05055 0.68203 0.0
C428 C 0.22591 0.05503 0.66769 0.0
C429 C 0.21466 0.04435 0.64417 0.0
C430 C 0.26768 0.05492 0.6303 0.0
C431 C 0.25546 0.0462 0.60678 0.0
C432 C 0.19271 0.02688 0.59726 0.0
C433 C 0.14093 0.01608 0.61081 0.0
C434 C 0.15151 0.02479 0.634 0.0
H435 H 0.36935 0.99834 0.6181 0.0
C436 C 0.40225 0.05049 0.61579 0.0
H437 H 0.4222 0.14703 0.62358 0.0
H438 H 0.26223 0.07044 0.71241 0.0
H439 H 0.37157 0.10302 0.72865 0.0
H440 H 0.46381 0.12333 0.70459 0.0
H441 H 0.4471 0.1107 0.6641 0.0
C442 C 0.3893 0.09475 0.62558 0.0
C443 C 0.33172 0.0754 0.64003 0.0
C444 C 0.34223 0.08331 0.66363 0.0
C445 C 0.28923 0.07253 0.67749 0.0
C446 C 0.30103 0.07952 0.70105 0.0
C447 C 0.36348 0.09782 0.71061 0.0
C448 C 0.4154 0.10919 0.69706 0.0
C449 C 0.40518 0.10197 0.67385 0.0
H450 H 0.22003 0.25047 0.03004 0.0
C451 C 0.17444 0.25064 0.02535 0.0
H452 H 0.12843 0.28819 1.00329 0.0
H453 H 0.43108 0.52875 0.99233 0.0
H454 H 0.42251 0.56058 0.03031 0.0
H455 H 0.32715 0.48856 0.05276 0.0
H456 H 0.24012 0.3839 0.03748 0.0
C457 C 0.17415 0.28925 1.00867 0.0
C458 C 0.23386 0.33136 0.99578 0.0
C459 C 0.28395 0.39273 1.00488 0.0
C460 C 0.3383 0.43497 0.99175 0.0
C461 C 0.38822 0.49534 1.00141 0.0
C462 C 0.38398 0.51414 0.02321 0.0
C463 C 0.33032 0.47354 0.03587 0.0
C464 C 0.28074 0.41352 0.0269 0.0
H465 H 0.36966 0.52838 0.94836 0.0
C466 C 0.40622 0.51297 0.94582 0.0
H467 H 0.43458 0.44136 0.95265 0.0
H468 H 0.14657 0.21719 0.97331 0.0
H469 H 0.15434 0.18601 0.93514 0.0
H470 H 0.248 0.25954 0.91228 0.0
H471 H 0.33433 0.36478 0.9274 0.0
C472 C 0.39979 0.45865 0.9558 0.0
C473 C 0.342 0.41614 0.96944 0.0
C474 C 0.29205 0.35464 0.9604 0.0
C475 C 0.23786 0.31238 0.97354 0.0
C476 C 0.18856 0.25139 0.96401 0.0
C477 C 0.19249 0.23281 0.94214 0.0
C478 C 0.24524 0.27417 0.92928 0.0
C479 C 0.29455 0.33441 0.93819 0.0
H480 H 1.01591 0.21356 0.34624 0.0
C481 C 1.01744 0.23529 0.36255 0.0
H482 H 1.01151 0.31005 0.38035 0.0
H483 H 0.12545 0.5327 0.31132 0.0
H484 H 0.20923 0.5756 0.34149 0.0
H485 H 0.20554 0.50571 0.37284 0.0
H486 H 0.11753 0.3931 0.3744 0.0
C487 C 1.00981 0.28874 0.36394 0.0
C488 C 1.01265 0.32831 0.344 0.0
C489 C 0.06551 0.39395 0.34307 0.0
C490 C 0.06903 0.43351 0.32457 0.0
C491 C 0.12125 0.49961 0.32457 0.0
C492 C 0.16964 0.52512 0.34186 0.0
C493 C 0.16745 0.48588 0.35954 0.0
C494 C 0.11623 0.42117 0.36024 0.0
H495 H 0.94206 0.45233 0.28736 0.0
C496 C 0.98966 0.47038 0.27978 0.0
H497 H 0.07814 0.4664 0.2785 0.0
H498 H 0.90065 0.20763 0.34159 0.0
H499 H 0.82004 0.16252 0.31036 0.0
H500 H 0.83202 0.22752 0.27666 0.0
H501 H 0.92371 0.3386 0.27419 0.0
C502 C 0.03074 0.44765 0.28633 0.0
C503 C 0.02104 0.40694 0.30653 0.0
C504 C 0.96842 0.34115 0.30733 0.0
C505 C 0.96333 0.30236 0.32635 0.0
C506 C 0.90838 0.2382 0.32722 0.0
C507 C 0.86154 0.21185 0.30946 0.0
C508 C 0.86816 0.24855 0.29051 0.0
C509 C 0.92089 0.31243 0.28936 0.0
loop_
_geom_bond_atom_site_label_1
_geom_bond_atom_site_label_2
_geom_bond_distance
_geom_bond_site_symmetry_2
_ccdc_geom_bond_type
Mn0 O5 2.095 . S
Mn0 O15 2.162 . S
Mn0 O16 2.297 . S
Mn0 O24 2.385 . S
Mn0 O25 2.209 1_455 S
Mn0 O26 2.094 . S
Mn1 O6 2.121 . S
Mn1 N8 2.257 1_455 S
Mn1 N17 2.282 1_455 S
Mn1 O25 2.215 1_455 S
Mn1 O27 2.117 . S
C2 O24 1.234 1_655 S
C2 O25 1.283 . S
C3 O15 1.281 . S
C3 O16 1.236 . S
C4 O26 1.240 . S
C4 O27 1.264 . S
O5 Mn0 2.095 . S
O5 C14 1.250 . S
O6 Mn1 2.121 . S
O6 C14 1.258 . S
C7 N8 1.326 . S
C7 C11 1.460 . S
C7 H13 0.929 . S
N8 Mn1 2.257 1_655 S
N8 C7 1.326 . S
N8 C12 1.362 . S
C9 C10 1.258 . S
C9 C12 1.431 . S
C9 C29 1.449 1_554 S
C10 C9 1.258 . S
C10 C11 1.477 . S
C10 H30 0.931 . S
C11 C7 1.460 . S
C11 C10 1.477 . S
C11 H31 0.930 . S
C12 N8 1.362 . S
C12 C9 1.431 . S
C12 C22 1.476 1_554 S
H13 C7 0.929 . S
C14 O5 1.250 . S
C14 O6 1.258 . S
O15 Mn0 2.162 . S
O15 C3 1.281 . S
O16 Mn0 2.297 . S
O16 C3 1.236 . S
N17 Mn1 2.282 1_655 S
N17 C18 1.328 1_654 S
N17 C22 1.318 1_554 S
C18 N17 1.328 1_456 S
C18 C19 1.457 1_455 S
C18 H23 0.929 . S
C19 C18 1.457 1_655 S
C19 C20 1.291 . S
C19 H32 0.931 1_655 S
C20 C19 1.291 . S
C20 C21 1.373 . S
C20 H33 0.929 . S
C21 C20 1.373 . S
C21 C22 1.396 . S
C21 C28 1.403 . S
C22 C12 1.476 1_556 S
C22 N17 1.318 1_556 S
C22 C21 1.396 . S
H23 C18 0.929 . S
O24 Mn0 2.385 . S
O24 C2 1.234 1_455 S
O25 Mn0 2.209 1_655 S
O25 Mn1 2.215 1_655 S
O25 C2 1.283 . S
O26 Mn0 2.094 . S
O26 C4 1.240 . S
O27 Mn1 2.117 . S
O27 C4 1.264 . S
C28 C21 1.403 . S
C28 C29 1.399 . S
C28 H34 0.929 . S
C29 C9 1.449 1_556 S
C29 C28 1.399 . S
C29 H35 0.930 . S
H30 C10 0.931 . S
H31 C11 0.930 . S
H32 C19 0.931 1_455 S
H33 C20 0.929 . S
H34 C28 0.929 . S
H35 C29 0.930 . S
Mn36 O41 2.095 1_455 S
Mn36 O51 2.162 1_445 S
Mn36 O52 2.297 . S
Mn36 O60 2.385 . S
Mn36 O61 2.209 . S
Mn36 O62 2.094 1_455 S
Mn37 O42 2.121 . S
Mn37 N44 2.257 . S
Mn37 N53 2.282 . S
Mn37 O61 2.215 . S
Mn37 O63 2.117 1_455 S
C38 O60 1.234 . S
C38 O61 1.283 . S
C39 O51 1.281 1_455 S
C39 O52 1.236 1_565 S
C40 O62 1.240 . S
C40 O63 1.264 . S
O41 Mn36 2.095 1_655 S
O41 C50 1.250 1_655 S
O42 Mn37 2.121 . S
O42 C50 1.258 . S
C43 N44 1.326 . S
C43 C47 1.460 . S
C43 H49 0.929 . S
N44 Mn37 2.257 . S
N44 C43 1.326 . S
N44 C48 1.362 . S
C45 C46 1.258 . S
C45 C48 1.431 . S
C45 C65 1.449 . S
C46 C45 1.258 . S
C46 C47 1.477 . S
C46 H66 0.931 . S
C47 C43 1.460 . S
C47 C46 1.477 . S
C47 H67 0.930 . S
C48 N44 1.362 . S
C48 C45 1.431 . S
C48 C58 1.476 . S
H49 C43 0.929 . S
C50 O41 1.250 1_455 S
C50 O42 1.258 . S
O51 Mn36 2.162 1_665 S
O51 C39 1.281 1_655 S
O52 Mn36 2.297 . S
O52 C39 1.236 1_545 S
N53 Mn37 2.282 . S
N53 C54 1.328 . S
N53 C58 1.318 . S
C54 N53 1.328 . S
C54 C55 1.457 . S
C54 H59 0.929 . S
C55 C54 1.457 . S
C55 C56 1.291 . S
C55 H68 0.931 . S
C56 C55 1.291 . S
C56 C57 1.373 . S
C56 H69 0.929 . S
C57 C56 1.373 . S
C57 C58 1.396 . S
C57 C64 1.403 . S
C58 C48 1.476 . S
C58 N53 1.318 . S
C58 C57 1.396 . S
H59 C54 0.929 . S
O60 Mn36 2.385 . S
O60 C38 1.234 . S
O61 Mn36 2.209 . S
O61 Mn37 2.215 . S
O61 C38 1.283 . S
O62 Mn36 2.094 1_655 S
O62 C40 1.240 . S
O63 Mn37 2.117 1_655 S
O63 C40 1.264 . S
C64 C57 1.403 . S
C64 C65 1.399 . S
C64 H70 0.929 . S
C65 C45 1.449 . S
C65 C64 1.399 . S
C65 H71 0.930 . S
H66 C46 0.931 . S
H67 C47 0.930 . S
H68 C55 0.931 . S
H69 C56 0.929 . S
H70 C64 0.929 . S
H71 C65 0.930 . S
Mn72 O77 2.095 1_455 S
Mn72 O87 2.162 . S
Mn72 O88 2.297 . S
Mn72 O96 2.385 . S
Mn72 O97 2.209 . S
Mn72 O98 2.094 1_455 S
Mn73 O78 2.121 . S
Mn73 N80 2.257 1_655 S
Mn73 N89 2.282 1_655 S
Mn73 O97 2.215 1_655 S
Mn73 O99 2.117 . S
C74 O96 1.234 . S
C74 O97 1.283 . S
C75 O87 1.281 . S
C75 O88 1.236 . S
C76 O98 1.240 . S
C76 O99 1.264 . S
O77 Mn72 2.095 1_655 S
O77 C86 1.250 . S
O78 Mn73 2.121 . S
O78 C86 1.258 . S
C79 N80 1.326 1_655 S
C79 C83 1.460 1_655 S
C79 H85 0.929 . S
N80 Mn73 2.257 1_455 S
N80 C79 1.326 1_455 S
N80 C84 1.362 . S
C81 C82 1.258 . S
C81 C84 1.431 . S
C81 C101 1.449 . S
C82 C81 1.258 . S
C82 C83 1.477 . S
C82 H102 0.931 . S
C83 C79 1.460 1_455 S
C83 C82 1.477 . S
C83 H103 0.930 . S
C84 N80 1.362 . S
C84 C81 1.431 . S
C84 C94 1.476 . S
H85 C79 0.929 . S
C86 O77 1.250 . S
C86 O78 1.258 . S
O87 Mn72 2.162 . S
O87 C75 1.281 . S
O88 Mn72 2.297 . S
O88 C75 1.236 . S
N89 Mn73 2.282 1_455 S
N89 C90 1.328 . S
N89 C94 1.318 . S
C90 N89 1.328 . S
C90 C91 1.457 . S
C90 H95 0.929 . S
C91 C90 1.457 . S
C91 C92 1.291 . S
C91 H104 0.931 . S
C92 C91 1.291 . S
C92 C93 1.373 . S
C92 H105 0.929 . S
C93 C92 1.373 . S
C93 C94 1.396 . S
C93 C100 1.403 . S
C94 C84 1.476 . S
C94 N89 1.318 . S
C94 C93 1.396 . S
H95 C90 0.929 . S
O96 Mn72 2.385 . S
O96 C74 1.234 . S
O97 Mn72 2.209 . S
O97 Mn73 2.215 1_455 S
O97 C74 1.283 . S
O98 Mn72 2.094 1_655 S
O98 C76 1.240 . S
O99 Mn73 2.117 . S
O99 C76 1.264 . S
C100 C93 1.403 . S
C100 C101 1.399 . S
C100 H106 0.929 . S
C101 C81 1.449 . S
C101 C100 1.399 . S
C101 H107 0.930 . S
H102 C82 0.931 . S
H103 C83 0.930 . S
H104 C91 0.931 . S
H105 C92 0.929 . S
H106 C100 0.929 . S
H107 C101 0.930 . S
C108 O110 1.247 . S
C108 O112 1.258 1_455 S
C109 O116 1.247 1_455 S
C109 O117 1.258 . S
O110 C108 1.247 . S
O110 Zn111 2.028 . S
Zn111 O110 2.028 . S
Zn111 O115 2.035 . S
Zn111 O117 2.035 . S
Zn111 O118 2.028 . S
O112 C108 1.258 1_655 S
O112 Zn113 2.035 . S
Zn113 O112 2.035 . S
Zn113 O114 2.028 . S
Zn113 O116 2.028 . S
Zn113 O119 2.035 . S
O114 Zn113 2.028 . S
O114 C120 1.247 1_655 S
O115 Zn111 2.035 . S
O115 C120 1.258 . S
O116 C109 1.247 1_655 S
O116 Zn113 2.028 . S
O117 C109 1.258 . S
O117 Zn111 2.035 . S
O118 Zn111 2.028 . S
O118 C121 1.247 . S
O119 Zn113 2.035 . S
O119 C121 1.258 1_655 S
C120 O114 1.247 1_455 S
C120 O115 1.258 . S
C121 O118 1.247 . S
C121 O119 1.258 1_455 S
C122 O124 1.247 . S
C122 O126 1.258 . S
C123 O130 1.247 . S
C123 O131 1.258 . S
O124 C122 1.247 . S
O124 Zn125 2.028 . S
Zn125 O124 2.028 . S
Zn125 O129 2.035 . S
Zn125 O131 2.035 . S
Zn125 O132 2.028 . S
O126 C122 1.258 . S
O126 Zn127 2.035 . S
Zn127 O126 2.035 . S
Zn127 O128 2.028 . S
Zn127 O130 2.028 . S
Zn127 O133 2.035 . S
O128 Zn127 2.028 . S
O128 C134 1.247 . S
O129 Zn125 2.035 . S
O129 C134 1.258 . S
O130 C123 1.247 . S
O130 Zn127 2.028 . S
O131 C123 1.258 . S
O131 Zn125 2.035 . S
O132 Zn125 2.028 . S
O132 C135 1.247 . S
O133 Zn127 2.035 . S
O133 C135 1.258 . S
C134 O128 1.247 . S
C134 O129 1.258 . S
C135 O132 1.247 . S
C135 O133 1.258 . S
C136 O138 1.247 . S
C136 O140 1.258 . S
C137 O144 1.247 . S
C137 O145 1.258 . S
O138 C136 1.247 . S
O138 Zn139 2.028 . S
Zn139 O138 2.028 . S
Zn139 O143 2.035 . S
Zn139 O145 2.035 . S
Zn139 O146 2.028 . S
O140 C136 1.258 . S
O140 Zn141 2.035 . S
Zn141 O140 2.035 . S
Zn141 O142 2.028 . S
Zn141 O144 2.028 . S
Zn141 O147 2.035 . S
O142 Zn141 2.028 . S
O142 C148 1.247 . S
O143 Zn139 2.035 . S
O143 C148 1.258 . S
O144 C137 1.247 . S
O144 Zn141 2.028 . S
O145 C137 1.258 . S
O145 Zn139 2.035 . S
O146 Zn139 2.028 . S
O146 C149 1.247 . S
O147 Zn141 2.035 . S
O147 C149 1.258 . S
C148 O142 1.247 . S
C148 O143 1.258 . S
C149 O146 1.247 . S
C149 O147 1.258 . S
H150 C151 0.951 . S
C151 H150 0.951 . S
C151 C157 1.265 . S
H152 C157 0.950 . S
H153 C161 0.949 . S
H154 C162 0.950 . S
H155 C163 0.951 . S
H156 C164 0.951 . S
C157 C151 1.265 . S
C157 H152 0.950 . S
C157 C158 1.478 . S
C158 C157 1.478 . S
C158 C159 1.397 . S
C158 C175 1.394 1_455 S
C159 C158 1.397 . S
C159 C160 1.438 . S
C159 C164 1.429 . S
C160 C159 1.438 . S
C160 C161 1.428 . S
C160 C173 1.394 . S
C161 H153 0.949 . S
C161 C160 1.428 . S
C161 C162 1.345 . S
C162 H154 0.950 . S
C162 C161 1.345 . S
C162 C163 1.424 . S
C163 H155 0.951 . S
C163 C162 1.424 . S
C163 C164 1.347 . S
C164 H156 0.951 . S
C164 C159 1.429 . S
C164 C163 1.347 . S
H165 C166 0.951 . S
C166 H165 0.951 . S
C166 C172 1.265 . S
H167 C172 0.950 . S
H168 C176 0.949 . S
H169 C177 0.950 . S
H170 C178 0.951 . S
H171 C179 0.951 . S
C172 C166 1.265 . S
C172 H167 0.950 . S
C172 C173 1.478 . S
C173 C160 1.394 . S
C173 C172 1.478 . S
C173 C174 1.397 1_455 S
C174 C173 1.397 1_655 S
C174 C175 1.438 . S
C174 C179 1.429 . S
C175 C158 1.394 1_655 S
C175 C174 1.438 . S
C175 C176 1.428 . S
C176 H168 0.949 . S
C176 C175 1.428 . S
C176 C177 1.345 . S
C177 H169 0.950 . S
C177 C176 1.345 . S
C177 C178 1.424 . S
C178 H170 0.951 . S
C178 C177 1.424 . S
C178 C179 1.347 . S
C179 H171 0.951 . S
C179 C174 1.429 . S
C179 C178 1.347 . S
H180 C181 0.951 . S
C181 H180 0.951 . S
C181 C187 1.265 . S
H182 C187 0.950 . S
H183 C191 0.949 . S
H184 C192 0.950 . S
H185 C193 0.951 . S
H186 C194 0.951 . S
C187 C181 1.265 . S
C187 H182 0.950 . S
C187 C188 1.478 . S
C188 C187 1.478 . S
C188 C189 1.397 . S
C188 C205 1.394 . S
C189 C188 1.397 . S
C189 C190 1.438 . S
C189 C194 1.429 1_545 S
C190 C189 1.438 . S
C190 C191 1.428 . S
C190 C203 1.394 . S
C191 H183 0.949 . S
C191 C190 1.428 . S
C191 C192 1.345 1_545 S
C192 H184 0.950 . S
C192 C191 1.345 1_565 S
C192 C193 1.424 . S
C193 H185 0.951 . S
C193 C192 1.424 . S
C193 C194 1.347 . S
C194 H186 0.951 . S
C194 C189 1.429 1_565 S
C194 C193 1.347 . S
H195 C196 0.951 . S
C196 H195 0.951 . S
C196 C202 1.265 . S
H197 C202 0.950 . S
H198 C206 0.949 . S
H199 C207 0.950 . S
H200 C208 0.951 . S
H201 C209 0.951 . S
C202 C196 1.265 . S
C202 H197 0.950 . S
C202 C203 1.478 . S
C203 C190 1.394 . S
C203 C202 1.478 . S
C203 C204 1.397 . S
C204 C203 1.397 . S
C204 C205 1.438 . S
C204 C209 1.429 . S
C205 C188 1.394 . S
C205 C204 1.438 . S
C205 C206 1.428 . S
C206 H198 0.949 . S
C206 C205 1.428 . S
C206 C207 1.345 . S
C207 H199 0.950 . S
C207 C206 1.345 . S
C207 C208 1.424 . S
C208 H200 0.951 . S
C208 C207 1.424 . S
C208 C209 1.347 . S
C209 H201 0.951 . S
C209 C204 1.429 . S
C209 C208 1.347 . S
H210 C211 0.951 . S
C211 H210 0.951 . S
C211 C217 1.265 . S
H212 C217 0.950 . S
H213 C221 0.949 . S
H214 C222 0.950 . S
H215 C223 0.951 1_545 S
H216 C224 0.951 . S
C217 C211 1.265 . S
C217 H212 0.950 . S
C217 C218 1.478 . S
C218 C217 1.478 . S
C218 C219 1.397 . S
C218 C235 1.394 . S
C219 C218 1.397 . S
C219 C220 1.438 . S
C219 C224 1.429 . S
C220 C219 1.438 . S
C220 C221 1.428 . S
C220 C233 1.394 . S
C221 H213 0.949 . S
C221 C220 1.428 . S
C221 C222 1.345 . S
C222 H214 0.950 . S
C222 C221 1.345 . S
C222 C223 1.424 . S
C223 H215 0.951 1_565 S
C223 C222 1.424 . S
C223 C224 1.347 . S
C224 H216 0.951 . S
C224 C219 1.429 . S
C224 C223 1.347 . S
H225 C226 0.951 . S
C226 H225 0.951 . S
C226 C232 1.265 . S
H227 C232 0.950 . S
H228 C236 0.949 . S
H229 C237 0.950 . S
H230 C238 0.951 . S
H231 C239 0.951 . S
C232 C226 1.265 . S
C232 H227 0.950 . S
C232 C233 1.478 . S
C233 C220 1.394 . S
C233 C232 1.478 . S
C233 C234 1.397 . S
C234 C233 1.397 . S
C234 C235 1.438 . S
C234 C239 1.429 . S
C235 C218 1.394 . S
C235 C234 1.438 . S
C235 C236 1.428 . S
C236 H228 0.949 . S
C236 C235 1.428 . S
C236 C237 1.345 . S
C237 H229 0.950 . S
C237 C236 1.345 . S
C237 C238 1.424 . S
C238 H230 0.951 . S
C238 C237 1.424 . S
C238 C239 1.347 . S
C239 H231 0.951 . S
C239 C234 1.429 . S
C239 C238 1.347 . S
H240 C241 0.951 . S
C241 H240 0.951 . S
C241 C247 1.265 . S
H242 C247 0.950 . S
H243 C251 0.949 . S
H244 C252 0.950 . S
H245 C253 0.951 1_545 S
H246 C254 0.951 1_545 S
C247 C241 1.265 . S
C247 H242 0.950 . S
C247 C248 1.478 . S
C248 C247 1.478 . S
C248 C249 1.397 . S
C248 C265 1.394 . S
C249 C248 1.397 . S
C249 C250 1.438 . S
C249 C254 1.429 . S
C250 C249 1.438 . S
C250 C251 1.428 . S
C250 C263 1.394 . S
C251 H243 0.949 . S
C251 C250 1.428 . S
C251 C252 1.345 . S
C252 H244 0.950 . S
C252 C251 1.345 . S
C252 C253 1.424 . S
C253 H245 0.951 1_565 S
C253 C252 1.424 . S
C253 C254 1.347 . S
C254 H246 0.951 1_565 S
C254 C249 1.429 . S
C254 C253 1.347 . S
H255 C256 0.951 . S
C256 H255 0.951 . S
C256 C262 1.265 . S
H257 C262 0.950 1_655 S
H258 C266 0.949 . S
H259 C267 0.950 . S
H260 C268 0.951 . S
H261 C269 0.951 . S
C262 C256 1.265 . S
C262 H257 0.950 1_455 S
C262 C263 1.478 . S
C263 C250 1.394 . S
C263 C262 1.478 . S
C263 C264 1.397 . S
C264 C263 1.397 . S
C264 C265 1.438 . S
C264 C269 1.429 1_455 S
C265 C248 1.394 . S
C265 C264 1.438 . S
C265 C266 1.428 1_455 S
C266 H258 0.949 . S
C266 C265 1.428 1_655 S
C266 C267 1.345 . S
C267 H259 0.950 . S
C267 C266 1.345 . S
C267 C268 1.424 . S
C268 H260 0.951 . S
C268 C267 1.424 . S
C268 C269 1.347 . S
C269 H261 0.951 . S
C269 C264 1.429 1_655 S
C269 C268 1.347 . S
H270 C271 0.951 . S
C271 H270 0.951 . S
C271 C277 1.265 . S
H272 C277 0.950 . S
H273 C281 0.949 . S
H274 C282 0.950 . S
H275 C283 0.951 . S
H276 C284 0.951 . S
C277 C271 1.265 . S
C277 H272 0.950 . S
C277 C278 1.478 . S
C278 C277 1.478 . S
C278 C279 1.397 . S
C278 C295 1.394 . S
C279 C278 1.397 . S
C279 C280 1.438 . S
C279 C284 1.429 . S
C280 C279 1.438 . S
C280 C281 1.428 . S
C280 C293 1.394 . S
C281 H273 0.949 . S
C281 C280 1.428 . S
C281 C282 1.345 1_545 S
C282 H274 0.950 . S
C282 C281 1.345 1_565 S
C282 C283 1.424 . S
C283 H275 0.951 . S
C283 C282 1.424 . S
C283 C284 1.347 1_565 S
C284 H276 0.951 . S
C284 C279 1.429 . S
C284 C283 1.347 1_545 S
H285 C286 0.951 . S
C286 H285 0.951 . S
C286 C292 1.265 . S
H287 C292 0.950 . S
H288 C296 0.949 . S
H289 C297 0.950 . S
H290 C298 0.951 . S
H291 C299 0.951 . S
C292 C286 1.265 . S
C292 H287 0.950 . S
C292 C293 1.478 . S
C293 C280 1.394 . S
C293 C292 1.478 . S
C293 C294 1.397 . S
C294 C293 1.397 . S
C294 C295 1.438 . S
C294 C299 1.429 . S
C295 C278 1.394 . S
C295 C294 1.438 . S
C295 C296 1.428 . S
C296 H288 0.949 . S
C296 C295 1.428 . S
C296 C297 1.345 . S
C297 H289 0.950 . S
C297 C296 1.345 . S
C297 C298 1.424 . S
C298 H290 0.951 . S
C298 C297 1.424 . S
C298 C299 1.347 . S
C299 H291 0.951 . S
C299 C294 1.429 . S
C299 C298 1.347 . S
H300 C301 0.951 . S
C301 H300 0.951 . S
C301 C307 1.265 . S
H302 C307 0.950 . S
H303 C311 0.949 . S
H304 C312 0.950 . S
H305 C313 0.951 . S
H306 C314 0.951 . S
C307 C301 1.265 . S
C307 H302 0.950 . S
C307 C308 1.478 . S
C308 C307 1.478 . S
C308 C309 1.397 . S
C308 C325 1.394 . S
C309 C308 1.397 . S
C309 C310 1.438 . S
C309 C314 1.429 . S
C310 C309 1.438 . S
C310 C311 1.428 . S
C310 C323 1.394 . S
C311 H303 0.949 . S
C311 C310 1.428 . S
C311 C312 1.345 . S
C312 H304 0.950 . S
C312 C311 1.345 . S
C312 C313 1.424 . S
C313 H305 0.951 . S
C313 C312 1.424 . S
C313 C314 1.347 . S
C314 H306 0.951 . S
C314 C309 1.429 . S
C314 C313 1.347 . S
H315 C316 0.951 . S
C316 H315 0.951 . S
C316 C322 1.265 . S
H317 C322 0.950 . S
H318 C326 0.949 . S
H319 C327 0.950 . S
H320 C328 0.951 . S
H321 C329 0.951 . S
C322 C316 1.265 . S
C322 H317 0.950 . S
C322 C323 1.478 . S
C323 C310 1.394 . S
C323 C322 1.478 . S
C323 C324 1.397 . S
C324 C323 1.397 . S
C324 C325 1.438 . S
C324 C329 1.429 . S
C325 C308 1.394 . S
C325 C324 1.438 . S
C325 C326 1.428 . S
C326 H318 0.949 . S
C326 C325 1.428 . S
C326 C327 1.345 . S
C327 H319 0.950 . S
C327 C326 1.345 . S
C327 C328 1.424 . S
C328 H320 0.951 . S
C328 C327 1.424 . S
C328 C329 1.347 . S
C329 H321 0.951 . S
C329 C324 1.429 . S
C329 C328 1.347 . S
H330 C331 0.951 . S
C331 H330 0.951 . S
C331 C337 1.265 . S
H332 C337 0.950 . S
H333 C341 0.949 . S
H334 C342 0.950 . S
H335 C343 0.951 . S
H336 C344 0.951 . S
C337 C331 1.265 . S
C337 H332 0.950 . S
C337 C338 1.478 . S
C338 C337 1.478 . S
C338 C339 1.397 . S
C338 C355 1.394 . S
C339 C338 1.397 . S
C339 C340 1.438 . S
C339 C344 1.429 . S
C340 C339 1.438 . S
C340 C341 1.428 . S
C340 C353 1.394 . S
C341 H333 0.949 . S
C341 C340 1.428 . S
C341 C342 1.345 . S
C342 H334 0.950 . S
C342 C341 1.345 . S
C342 C343 1.424 . S
C343 H335 0.951 . S
C343 C342 1.424 . S
C343 C344 1.347 . S
C344 H336 0.951 . S
C344 C339 1.429 . S
C344 C343 1.347 . S
H345 C346 0.951 . S
C346 H345 0.951 . S
C346 C352 1.265 . S
H347 C352 0.950 . S
H348 C356 0.949 . S
H349 C357 0.950 . S
H350 C358 0.951 . S
H351 C359 0.951 . S
C352 C346 1.265 . S
C352 H347 0.950 . S
C352 C353 1.478 . S
C353 C340 1.394 . S
C353 C352 1.478 . S
C353 C354 1.397 . S
C354 C353 1.397 . S
C354 C355 1.438 . S
C354 C359 1.429 . S
C355 C338 1.394 . S
C355 C354 1.438 . S
C355 C356 1.428 . S
C356 H348 0.949 . S
C356 C355 1.428 . S
C356 C357 1.345 . S
C357 H349 0.950 . S
C357 C356 1.345 . S
C357 C358 1.424 . S
C358 H350 0.951 . S
C358 C357 1.424 . S
C358 C359 1.347 . S
C359 H351 0.951 . S
C359 C354 1.429 . S
C359 C358 1.347 . S
H360 C361 0.951 1_545 S
C361 H360 0.951 1_565 S
C361 C367 1.265 . S
H362 C367 0.950 . S
H363 C371 0.949 . S
H364 C372 0.950 . S
H365 C373 0.951 . S
H366 C374 0.951 . S
C367 C361 1.265 . S
C367 H362 0.950 . S
C367 C368 1.478 1_554 S
C368 C367 1.478 1_556 S
C368 C369 1.397 . S
C368 C385 1.394 . S
C369 C368 1.397 . S
C369 C370 1.438 . S
C369 C374 1.429 1_556 S
C370 C369 1.438 . S
C370 C371 1.428 . S
C370 C383 1.394 . S
C371 H363 0.949 . S
C371 C370 1.428 . S
C371 C372 1.345 1_556 S
C372 H364 0.950 . S
C372 C371 1.345 1_554 S
C372 C373 1.424 . S
C373 H365 0.951 . S
C373 C372 1.424 . S
C373 C374 1.347 . S
C374 H366 0.951 . S
C374 C369 1.429 1_554 S
C374 C373 1.347 . S
H375 C376 0.951 . S
C376 H375 0.951 . S
C376 C382 1.265 . S
H377 C382 0.950 . S
H378 C386 0.952 . S
H379 C387 0.950 . S
H380 C388 0.951 1_545 S
H381 C389 0.951 . S
C382 C376 1.265 . S
C382 H377 0.950 . S
C382 C383 1.478 . S
C383 C370 1.394 . S
C383 C382 1.478 . S
C383 C384 1.397 . S
C384 C383 1.397 . S
C384 C385 1.438 . S
C384 C389 1.429 . S
C385 C368 1.394 . S
C385 C384 1.438 . S
C385 C386 1.414 1_565 S
C386 H378 0.952 . S
C386 C385 1.414 1_545 S
C386 C387 1.355 . S
C387 H379 0.950 . S
C387 C386 1.355 . S
C387 C388 1.424 1_545 S
C388 H380 0.951 1_565 S
C388 C387 1.424 1_565 S
C388 C389 1.347 . S
C389 H381 0.951 . S
C389 C384 1.429 . S
C389 C388 1.347 . S
H390 C391 0.951 . S
C391 H390 0.951 . S
C391 C397 1.265 . S
H392 C397 0.950 . S
H393 C401 0.949 . S
H394 C402 0.950 . S
H395 C403 0.951 . S
H396 C404 0.951 . S
C397 C391 1.265 . S
C397 H392 0.950 . S
C397 C398 1.478 . S
C398 C397 1.478 . S
C398 C399 1.397 1_455 S
C398 C415 1.394 . S
C399 C398 1.397 1_655 S
C399 C400 1.438 . S
C399 C404 1.429 . S
C400 C399 1.438 . S
C400 C401 1.428 . S
C400 C413 1.394 1_655 S
C401 H393 0.949 . S
C401 C400 1.428 . S
C401 C402 1.345 . S
C402 H394 0.950 . S
C402 C401 1.345 . S
C402 C403 1.424 . S
C403 H395 0.951 . S
C403 C402 1.424 . S
C403 C404 1.347 . S
C404 H396 0.951 . S
C404 C399 1.429 . S
C404 C403 1.347 . S
H405 C406 0.951 . S
C406 H405 0.951 . S
C406 C412 1.265 . S
H407 C412 0.950 . S
H408 C416 0.949 . S
H409 C417 0.950 1_545 S
H410 C418 0.951 . S
H411 C419 0.951 . S
C412 C406 1.265 . S
C412 H407 0.950 . S
C412 C413 1.478 . S
C413 C400 1.394 1_455 S
C413 C412 1.478 . S
C413 C414 1.397 . S
C414 C413 1.397 . S
C414 C415 1.438 . S
C414 C419 1.429 . S
C415 C398 1.394 . S
C415 C414 1.438 . S
C415 C416 1.428 . S
C416 H408 0.949 . S
C416 C415 1.428 . S
C416 C417 1.345 . S
C417 H409 0.950 1_565 S
C417 C416 1.345 . S
C417 C418 1.424 . S
C418 H410 0.951 . S
C418 C417 1.424 . S
C418 C419 1.347 . S
C419 H411 0.951 . S
C419 C414 1.429 . S
C419 C418 1.347 . S
H420 C421 0.951 . S
C421 H420 0.951 . S
C421 C427 1.265 . S
H422 C427 0.950 . S
H423 C431 0.949 . S
H424 C432 0.950 . S
H425 C433 0.951 . S
H426 C434 0.951 . S
C427 C421 1.265 . S
C427 H422 0.950 . S
C427 C428 1.478 . S
C428 C427 1.478 . S
C428 C429 1.397 . S
C428 C445 1.394 . S
C429 C428 1.397 . S
C429 C430 1.438 . S
C429 C434 1.429 1_545 S
C430 C429 1.438 . S
C430 C431 1.428 . S
C430 C443 1.394 . S
C431 H423 0.949 . S
C431 C430 1.428 . S
C431 C432 1.345 1_545 S
C432 H424 0.950 . S
C432 C431 1.345 1_565 S
C432 C433 1.424 . S
C433 H425 0.951 . S
C433 C432 1.424 . S
C433 C434 1.347 . S
C434 H426 0.951 . S
C434 C429 1.429 1_565 S
C434 C433 1.347 . S
H435 C436 0.951 . S
C436 H435 0.951 . S
C436 C442 1.265 . S
H437 C442 0.950 . S
H438 C446 0.949 . S
H439 C447 0.950 . S
H440 C448 0.951 . S
H441 C449 0.951 . S
C442 C436 1.265 . S
C442 H437 0.950 . S
C442 C443 1.478 . S
C443 C430 1.394 . S
C443 C442 1.478 . S
C443 C444 1.397 . S
C444 C443 1.397 . S
C444 C445 1.438 . S
C444 C449 1.429 . S
C445 C428 1.394 . S
C445 C444 1.438 . S
C445 C446 1.428 . S
C446 H438 0.949 . S
C446 C445 1.428 . S
C446 C447 1.345 . S
C447 H439 0.950 . S
C447 C446 1.345 . S
C447 C448 1.424 . S
C448 H440 0.951 . S
C448 C447 1.424 . S
C448 C449 1.347 . S
C449 H441 0.951 . S
C449 C444 1.429 . S
C449 C448 1.347 . S
H450 C451 0.951 . S
C451 H450 0.951 . S
C451 C457 1.265 . S
H452 C457 0.950 . S
H453 C461 0.949 . S
H454 C462 0.950 . S
H455 C463 0.951 . S
H456 C464 0.951 . S
C457 C451 1.265 . S
C457 H452 0.950 . S
C457 C458 1.478 1_554 S
C458 C457 1.478 1_556 S
C458 C459 1.397 . S
C458 C475 1.394 . S
C459 C458 1.397 . S
C459 C460 1.438 . S
C459 C464 1.429 1_556 S
C460 C459 1.438 . S
C460 C461 1.428 . S
C460 C473 1.394 . S
C461 H453 0.949 . S
C461 C460 1.428 . S
C461 C462 1.345 1_556 S
C462 H454 0.950 . S
C462 C461 1.345 1_554 S
C462 C463 1.424 . S
C463 H455 0.951 . S
C463 C462 1.424 . S
C463 C464 1.347 . S
C464 H456 0.951 . S
C464 C459 1.429 1_554 S
C464 C463 1.347 . S
H465 C466 0.951 . S
C466 H465 0.951 . S
C466 C472 1.265 . S
H467 C472 0.950 . S
H468 C476 0.949 . S
H469 C477 0.950 . S
H470 C478 0.951 . S
H471 C479 0.951 . S
C472 C466 1.265 . S
C472 H467 0.950 . S
C472 C473 1.478 . S
C473 C460 1.394 . S
C473 C472 1.478 . S
C473 C474 1.397 . S
C474 C473 1.397 . S
C474 C475 1.438 . S
C474 C479 1.429 . S
C475 C458 1.394 . S
C475 C474 1.438 . S
C475 C476 1.428 . S
C476 H468 0.949 . S
C476 C475 1.428 . S
C476 C477 1.345 . S
C477 H469 0.950 . S
C477 C476 1.345 . S
C477 C478 1.424 . S
C478 H470 0.951 . S
C478 C477 1.424 . S
C478 C479 1.347 . S
C479 H471 0.951 . S
C479 C474 1.429 . S
C479 C478 1.347 . S
H480 C481 0.951 . S
C481 H480 0.951 . S
C481 C487 1.265 . S
H482 C487 0.950 1_655 S
H483 C491 0.949 . S
H484 C492 0.950 . S
H485 C493 0.951 . S
H486 C494 0.951 . S
C487 C481 1.265 . S
C487 H482 0.950 1_455 S
C487 C488 1.478 . S
C488 C487 1.478 . S
C488 C489 1.397 . S
C488 C505 1.394 . S
C489 C488 1.397 . S
C489 C490 1.438 . S
C489 C494 1.429 . S
C490 C489 1.438 . S
C490 C491 1.428 . S
C490 C503 1.394 . S
C491 H483 0.949 . S
C491 C490 1.428 . S
C491 C492 1.345 . S
C492 H484 0.950 . S
C492 C491 1.345 . S
C492 C493 1.424 . S
C493 H485 0.951 . S
C493 C492 1.424 . S
C493 C494 1.347 . S
C494 H486 0.951 . S
C494 C489 1.429 . S
C494 C493 1.347 . S
H495 C496 0.951 1_655 S
C496 H495 0.951 1_455 S
C496 C502 1.265 . S
H497 C502 0.950 . S
H498 C506 0.949 . S
H499 C507 0.950 . S
H500 C508 0.951 . S
H501 C509 0.951 . S
C502 C496 1.265 . S
C502 H497 0.950 . S
C502 C503 1.478 . S
C503 C490 1.394 . S
C503 C502 1.478 . S
C503 C504 1.397 . S
C504 C503 1.397 . S
C504 C505 1.438 . S
C504 C509 1.429 . S
C505 C488 1.394 . S
C505 C504 1.438 . S
C505 C506 1.428 1_455 S
C506 H498 0.949 . S
C506 C505 1.428 1_655 S
C506 C507 1.345 . S
C507 H499 0.950 . S
C507 C506 1.345 . S
C507 C508 1.424 . S
C508 H500 0.951 . S
C508 C507 1.424 . S
C508 C509 1.347 1_655 S
C509 H501 0.951 . S
C509 C504 1.429 . S
C509 C508 1.347 1_455 S
C166 C109 1.465 . S
C151 C14 1.381 . S
C181 C40 1.424 . S
C196 C135 1.452 . S
C211 C76 1.424 1_565 S
C226 C137 1.447 . S
C241 C3 1.418 1_565 S
C256 C121 1.419 . S
C286 C123 1.474 . S
C271 C38 1.459 . S
C301 C74 1.420 . S
C316 C149 1.439 . S
C346 C122 1.432 . S
C331 C86 1.351 . S
C361 C2 1.460 1_565 S
C376 C148 1.448 . S
C406 C108 1.419 . S
C391 C39 1.419 . S
C436 C134 1.424 . S
C421 C75 1.426 . S
C466 C136 1.455 . S
C451 C4 1.459 . S
C481 C50 1.450 . S
C496 C120 1.452 . S
