# Generated by pormake.
# Topology llk, (3,12)-cn, num edge types: 1
# Building blocks:
#     Node 0, Type 0, BuildingBlock: WUSLED_clean_sbu_0, # of connection points: 3
#     Node 1, Type 0, BuildingBlock: WUSLED_clean_sbu_0, # of connection points: 3
#     Node 2, Type 0, BuildingBlock: WUSLED_clean_sbu_0, # of connection points: 3
#     Node 3, Type 0, BuildingBlock: WUSLED_clean_sbu_0, # of connection points: 3
#     Node 4, Type 0, BuildingBlock: WUSLED_clean_sbu_0, # of connection points: 3
#     Node 5, Type 0, BuildingBlock: WUSLED_clean_sbu_0, # of connection points: 3
#     Node 6, Type 0, BuildingBlock: WUSLED_clean_sbu_0, # of connection points: 3
#     Node 7, Type 0, BuildingBlock: WUSLED_clean_sbu_0, # of connection points: 3
#     Node 8, Type 0, BuildingBlock: WUSLED_clean_sbu_0, # of connection points: 3
#     Node 9, Type 0, BuildingBlock: WUSLED_clean_sbu_0, # of connection points: 3
#     Node 10, Type 0, BuildingBlock: WUSLED_clean_sbu_0, # of connection points: 3
#     Node 11, Type 0, BuildingBlock: WUSLED_clean_sbu_0, # of connection points: 3
#     Node 12, Type 0, BuildingBlock: WUSLED_clean_sbu_0, # of connection points: 3
#     Node 13, Type 0, BuildingBlock: WUSLED_clean_sbu_0, # of connection points: 3
#     Node 14, Type 0, BuildingBlock: WUSLED_clean_sbu_0, # of connection points: 3
#     Node 15, Type 0, BuildingBlock: WUSLED_clean_sbu_0, # of connection points: 3
#     Node 16, Type 0, BuildingBlock: WUSLED_clean_sbu_0, # of connection points: 3
#     Node 17, Type 0, BuildingBlock: WUSLED_clean_sbu_0, # of connection points: 3
#     Node 18, Type 0, BuildingBlock: WUSLED_clean_sbu_0, # of connection points: 3
#     Node 19, Type 0, BuildingBlock: WUSLED_clean_sbu_0, # of connection points: 3
#     Node 20, Type 0, BuildingBlock: WUSLED_clean_sbu_0, # of connection points: 3
#     Node 21, Type 0, BuildingBlock: WUSLED_clean_sbu_0, # of connection points: 3
#     Node 22, Type 0, BuildingBlock: WUSLED_clean_sbu_0, # of connection points: 3
#     Node 23, Type 0, BuildingBlock: WUSLED_clean_sbu_0, # of connection points: 3
#     Node 24, Type 1, BuildingBlock: EZIPEK_clean_sbu_0, # of connection points: 12
#     Node 25, Type 1, BuildingBlock: EZIPEK_clean_sbu_0, # of connection points: 12
#     Node 26, Type 1, BuildingBlock: EZIPEK_clean_sbu_0, # of connection points: 12
#     Node 27, Type 1, BuildingBlock: EZIPEK_clean_sbu_0, # of connection points: 12
#     Node 28, Type 1, BuildingBlock: EZIPEK_clean_sbu_0, # of connection points: 12
#     Node 29, Type 1, BuildingBlock: EZIPEK_clean_sbu_0, # of connection points: 12
#     Edge 30, Type (0, 1), None
#     Edge 31, Type (0, 1), None
#     Edge 32, Type (0, 1), None
#     Edge 33, Type (0, 1), None
#     Edge 34, Type (0, 1), None
#     Edge 35, Type (0, 1), None
#     Edge 36, Type (0, 1), None
#     Edge 37, Type (0, 1), None
#     Edge 38, Type (0, 1), None
#     Edge 39, Type (0, 1), None
#     Edge 40, Type (0, 1), None
#     Edge 41, Type (0, 1), None
#     Edge 42, Type (0, 1), None
#     Edge 43, Type (0, 1), None
#     Edge 44, Type (0, 1), None
#     Edge 45, Type (0, 1), None
#     Edge 46, Type (0, 1), None
#     Edge 47, Type (0, 1), None
#     Edge 48, Type (0, 1), None
#     Edge 49, Type (0, 1), None
#     Edge 50, Type (0, 1), None
#     Edge 51, Type (0, 1), None
#     Edge 52, Type (0, 1), None
#     Edge 53, Type (0, 1), None
#     Edge 54, Type (0, 1), None
#     Edge 55, Type (0, 1), None
#     Edge 56, Type (0, 1), None
#     Edge 57, Type (0, 1), None
#     Edge 58, Type (0, 1), None
#     Edge 59, Type (0, 1), None
#     Edge 60, Type (0, 1), None
#     Edge 61, Type (0, 1), None
#     Edge 62, Type (0, 1), None
#     Edge 63, Type (0, 1), None
#     Edge 64, Type (0, 1), None
#     Edge 65, Type (0, 1), None
#     Edge 66, Type (0, 1), None
#     Edge 67, Type (0, 1), None
#     Edge 68, Type (0, 1), None
#     Edge 69, Type (0, 1), None
#     Edge 70, Type (0, 1), None
#     Edge 71, Type (0, 1), None
#     Edge 72, Type (0, 1), None
#     Edge 73, Type (0, 1), None
#     Edge 74, Type (0, 1), None
#     Edge 75, Type (0, 1), None
#     Edge 76, Type (0, 1), None
#     Edge 77, Type (0, 1), None
#     Edge 78, Type (0, 1), None
#     Edge 79, Type (0, 1), None
#     Edge 80, Type (0, 1), None
#     Edge 81, Type (0, 1), None
#     Edge 82, Type (0, 1), None
#     Edge 83, Type (0, 1), None
#     Edge 84, Type (0, 1), None
#     Edge 85, Type (0, 1), None
#     Edge 86, Type (0, 1), None
#     Edge 87, Type (0, 1), None
#     Edge 88, Type (0, 1), None
#     Edge 89, Type (0, 1), None
#     Edge 90, Type (0, 1), None
#     Edge 91, Type (0, 1), None
#     Edge 92, Type (0, 1), None
#     Edge 93, Type (0, 1), None
#     Edge 94, Type (0, 1), None
#     Edge 95, Type (0, 1), None
#     Edge 96, Type (0, 1), None
#     Edge 97, Type (0, 1), None
#     Edge 98, Type (0, 1), None
#     Edge 99, Type (0, 1), None
#     Edge 100, Type (0, 1), None
#     Edge 101, Type (0, 1), None
# Relax obj value: 0.099
# Max RMSD: 0.151
# Mean RMSD: 0.127
data_MOF--net-llk--node1-WUSLED_clean_sbu_0--node2-EZIPEK_clean_sbu_0--edge1-none
_symmetry_space_group_name_H-M    P1
_symmetry_Int_Tables_number       1
_symmetry_cell_setting            triclinic
loop_
_symmetry_equiv_pos_as_xyz
'x, y, z'
_cell_length_a     35.822531
_cell_length_b     35.782873
_cell_length_c     35.67807
_cell_angle_alpha  90.013708
_cell_angle_beta   89.955495
_cell_angle_gamma 90.056245
loop_
_atom_site_label
_atom_site_type_symbol
_atom_site_fract_x
_atom_site_fract_y
_atom_site_fract_z
_atom_type_partial_charge
C0 C 0.02748 0.3271 0.17711 0.0
C1 C 0.02705 0.36294 0.19356 0.0
C2 C 0.02312 0.39264 0.13179 0.0
C3 C 0.02497 0.39538 0.17115 0.0
C4 C 0.02339 0.35647 0.11576 0.0
C5 C 0.02554 0.32433 0.13806 0.0
U6 U 1.0183 0.2798 0.27179 0.0
O7 O 0.05199 0.23826 0.30281 0.0
O8 O 0.99368 0.22581 0.28855 0.0
C9 C 0.02384 0.21483 0.30643 0.0
C10 C 0.02936 0.29241 0.20008 0.0
C11 C 1.01811 0.19546 0.34319 0.0
C12 C 0.99352 0.1406 0.37548 0.0
C13 C 0.99587 0.16316 0.34355 0.0
C14 C 0.03407 0.18295 0.40904 0.0
C15 C 1.01323 0.14952 0.40843 0.0
C16 C 0.03672 0.20561 0.37659 0.0
C17 C 0.99398 0.35446 0.347 0.0
C18 C 1.01718 0.36471 0.40992 0.0
C19 C 0.97608 0.41 0.38059 0.0
C20 C 0.97316 0.38736 0.34919 0.0
C21 C 0.99962 0.3997 0.4102 0.0
C22 C 1.01456 0.34209 0.37812 0.0
C23 C 1.00044 0.33935 0.30975 0.0
O24 O 0.05662 0.29078 0.22468 0.0
O25 O 0.99738 0.28041 0.21361 0.0
O26 O 0.97512 0.31683 0.29557 0.0
O27 O 0.03504 0.3296 0.3025 0.0
H28 H 0.02831 0.36585 0.22376 0.0
H29 H 0.02481 0.42249 0.18465 0.0
H30 H 0.022 0.35268 0.08569 0.0
H31 H 0.02565 0.29715 0.12466 0.0
H32 H 0.97703 0.11525 0.37392 0.0
H33 H 0.98132 0.1544 0.31841 0.0
H34 H 0.04986 0.1905 0.43378 0.0
H35 H 0.05424 0.23028 0.37731 0.0
H36 H 0.03516 0.35627 0.43281 0.0
H37 H 0.96159 0.43657 0.38083 0.0
H38 H 0.95719 0.39718 0.32534 0.0
H39 H 0.03082 0.31661 0.37668 0.0
C40 C 0.86456 0.0206 0.32574 0.0
C41 C 0.84769 1.01296 0.36071 0.0
C42 C 0.90556 0.02817 0.39358 0.0
C43 C 0.86804 1.0166 0.39434 0.0
C44 C 0.92167 0.03682 0.35839 0.0
C45 C 0.90152 0.033 0.3251 0.0
U46 U 0.77242 0.02659 0.277 0.0
O47 O 0.74238 0.99218 0.23533 0.0
O48 O 0.75502 0.05107 0.22311 0.0
C49 C 0.73822 0.02033 0.21193 0.0
C50 C 0.84363 1.01745 0.28997 0.0
C51 C 0.70171 0.02497 0.1925 0.0
C52 C 0.66958 0.04593 0.13621 0.0
C53 C 0.70155 0.04463 0.15853 0.0
C54 C 0.63575 1.00953 0.18216 0.0
C55 C 0.63648 0.0277 0.14713 0.0
C56 C 0.66823 1.00794 0.2046 0.0
C57 C 0.70011 0.04897 0.35593 0.0
C58 C 0.63759 0.0266 0.36816 0.0
C59 C 0.67108 0.06227 0.41535 0.0
C60 C 0.70091 0.06641 0.39095 0.0
C61 C 0.64 0.041 0.40469 0.0
C62 C 0.66786 0.0303 0.34382 0.0
C63 C 0.7358 0.04325 0.33774 0.0
O64 O 0.82013 0.98929 0.2875 0.0
O65 O 0.82979 0.04897 0.27715 0.0
O66 O 0.74827 0.0691 0.31473 0.0
O67 O 0.74272 1.00881 0.32707 0.0
H68 H 0.81886 1.00393 0.36202 0.0
H69 H 0.85469 1.00962 0.42067 0.0
H70 H 0.95033 0.04625 0.35626 0.0
H71 H 0.91496 0.03967 0.29871 0.0
H72 H 0.67117 0.06044 0.10958 0.0
H73 H 0.72682 0.05795 0.14841 0.0
H74 H 0.6108 0.99501 0.19126 0.0
H75 H 0.66746 0.99251 0.23069 0.0
H76 H 0.61352 1.01047 0.35938 0.0
H77 H 0.67296 0.07443 0.4431 0.0
H78 H 0.7258 0.08074 0.40061 0.0
H79 H 0.66715 1.01647 0.3168 0.0
C80 C 1.01476 0.86879 0.32856 0.0
C81 C 1.01379 0.85324 0.36483 0.0
C82 C 1.01777 0.91547 0.3933 0.0
C83 C 1.01521 0.87631 0.39684 0.0
C84 C 1.0191 0.93066 0.35676 0.0
C85 C 1.01761 0.90766 0.32497 0.0
U86 U 0.02262 0.77312 0.28228 0.0
O87 O 0.04814 0.7562 0.22859 0.0
O88 O 0.98913 0.74347 0.23948 0.0
C89 C 1.0176 0.7398 0.2164 0.0
C90 C 1.01313 0.84507 0.29433 0.0
C91 C 0.02224 0.70399 0.19533 0.0
C92 C 0.04324 0.6743 0.13753 0.0
C93 C 0.04183 0.70532 0.16132 0.0
C94 C 1.00699 0.63836 0.18184 0.0
C95 C 0.02528 0.64054 0.14687 0.0
C96 C 1.00522 0.66992 0.20576 0.0
C97 C 0.04474 0.69778 0.35847 0.0
C98 C 0.02222 0.63502 0.37062 0.0
C99 C 0.06492 0.66507 0.41401 0.0
C100 C 0.06672 0.69614 0.39078 0.0
C101 C 0.04131 0.63512 0.40496 0.0
C102 C 0.0237 0.66651 0.34746 0.0
C103 C 0.03849 0.73466 0.34229 0.0
O104 O 0.04503 0.83061 0.28334 0.0
O105 O 0.98537 0.82106 0.2926 0.0
O106 O 1.00421 0.74195 0.33146 0.0
O107 O 0.06449 0.7487 0.32042 0.0
H108 H 1.01179 0.82324 0.36839 0.0
H109 H 1.01404 0.86344 0.42428 0.0
H110 H 0.02114 0.96055 0.35248 0.0
H111 H 1.01859 0.92037 0.29742 0.0
H112 H 0.05781 0.67719 0.1111 0.0
H113 H 0.05509 0.73105 0.15234 0.0
H114 H 0.99267 0.61293 0.18992 0.0
H115 H 0.98974 0.66797 0.23177 0.0
H116 H 1.004 0.61201 0.36314 0.0
H117 H 0.08044 0.66534 0.44009 0.0
H118 H 0.08304 0.7201 0.39963 0.0
H119 H 1.00648 0.66745 0.32252 0.0
C120 C 0.17552 0.03712 0.33553 0.0
C121 C 0.18927 0.0513 0.36987 0.0
C122 C 0.13352 0.02946 0.40295 0.0
C123 C 0.16841 0.04752 0.40333 0.0
C124 C 0.12102 1.01394 0.36877 0.0
C125 C 0.14156 1.01783 0.33571 0.0
U126 U 0.266 0.03286 0.28013 0.0
O127 O 0.29152 0.06802 0.23608 0.0
O128 O 0.27886 1.0091 0.22451 0.0
C129 C 0.29351 0.04034 0.21184 0.0
C130 C 0.19581 0.04134 0.29926 0.0
C131 C 0.32776 0.03702 0.18836 0.0
C132 C 0.35396 0.02784 0.1259 0.0
C133 C 0.32318 0.02997 0.14998 0.0
C134 C 0.39539 0.03921 0.17813 0.0
C135 C 0.39064 0.03259 0.13938 0.0
C136 C 0.36423 0.04151 0.20239 0.0
C137 C 0.34415 1.00862 0.354 0.0
C138 C 0.40597 0.03159 0.36872 0.0
C139 C 0.3742 0.98915 0.41122 0.0
C140 C 0.34433 0.98695 0.38659 0.0
C141 C 0.40441 1.01275 0.40321 0.0
C142 C 0.37565 0.0298 0.34421 0.0
C143 C 0.30797 1.01536 0.33695 0.0
O144 O 0.21924 0.06952 0.29638 0.0
O145 O 0.20887 1.01024 0.28466 0.0
O146 O 0.29335 0.98977 0.31493 0.0
O147 O 0.30073 0.04998 0.3271 0.0
H148 H 0.21579 0.06584 0.37075 0.0
H149 H 0.17883 0.05992 0.42896 0.0
H150 H 0.09454 0.99933 0.36724 0.0
H151 H 0.13051 1.00613 0.30998 0.0
H152 H 0.34876 0.02244 0.0965 0.0
H153 H 0.29545 0.02639 0.13839 0.0
H154 H 0.42308 0.04309 0.18966 0.0
H155 H 0.36861 0.04699 0.23192 0.0
H156 H 0.42934 0.0496 0.3619 0.0
H157 H 0.37292 0.97361 0.43728 0.0
H158 H 0.32005 0.97063 0.39453 0.0
H159 H 0.3757 0.04689 0.31914 0.0
C160 C 0.0233 0.72246 0.87033 0.0
C161 C 0.02217 0.68707 0.85292 0.0
C162 C 0.02193 0.65585 0.91391 0.0
C163 C 0.02151 0.65405 0.8745 0.0
C164 C 0.02286 0.69161 0.93087 0.0
C165 C 0.02355 0.72429 0.90941 0.0
U166 U 1.01445 0.76941 0.77634 0.0
O167 O 0.04567 0.81398 0.74705 0.0
O168 O 0.98581 0.82094 0.75857 0.0
C169 C 1.01572 0.83473 0.74222 0.0
C170 C 0.02359 0.75758 0.84825 0.0
C171 C 1.01014 0.85347 0.7053 0.0
C172 C 0.98379 0.90668 0.67197 0.0
C173 C 0.98608 0.88434 0.70401 0.0
C174 C 0.02796 0.86664 0.64019 0.0
C175 C 1.00538 0.89885 0.63996 0.0
C176 C 0.03053 0.84423 0.67271 0.0
C177 C 0.99811 0.69106 0.70183 0.0
C178 C 0.0234 0.67669 0.64055 0.0
C179 C 0.97961 0.63432 0.67056 0.0
C180 C 0.97637 0.65866 0.70061 0.0
C181 C 1.00448 0.64234 0.64127 0.0
C182 C 0.02043 0.701 0.67102 0.0
C183 C 1.00296 0.70838 0.73835 0.0
O184 O 0.05167 0.7616 0.82484 0.0
O185 O 0.99136 0.76721 0.83357 0.0
O186 O 0.97539 0.72856 0.75178 0.0
O187 O 0.03641 0.72154 0.74578 0.0
H188 H 0.02177 0.685 0.82263 0.0
H189 H 0.02076 0.62728 0.86036 0.0
H190 H 0.02301 0.69471 0.96106 0.0
H191 H 0.0242 0.75113 0.92348 0.0
H192 H 0.966 0.93116 0.67281 0.0
H193 H 0.97012 0.89228 0.72857 0.0
H194 H 0.0452 0.86002 0.61615 0.0
H195 H 0.04942 0.82063 0.67278 0.0
H196 H 0.04236 0.68348 0.61787 0.0
H197 H 0.96395 0.60839 0.67109 0.0
H198 H 0.95906 0.65069 0.72425 0.0
H199 H 0.03742 0.72606 0.67166 0.0
C200 C 0.17082 1.01375 0.71973 0.0
C201 C 0.18659 1.02015 0.68405 0.0
C202 C 0.1251 1.01522 0.65419 0.0
C203 C 0.16398 0.02086 0.65161 0.0
C204 C 0.10982 1.00853 0.69014 0.0
C205 C 0.13229 1.00783 0.72226 0.0
U206 U 0.26564 0.02182 0.76735 0.0
O207 O 0.29377 0.99037 0.81262 0.0
O208 O 0.2831 0.05039 0.81939 0.0
C209 C 0.29839 0.02021 0.83372 0.0
C210 C 0.19377 1.01352 0.75456 0.0
C211 C 0.33441 0.02498 0.85447 0.0
C212 C 0.36504 0.04731 0.91137 0.0
C213 C 0.33372 0.0455 0.88798 0.0
C214 C 0.39999 1.00953 0.86759 0.0
C215 C 0.3985 0.02878 0.9021 0.0
C216 C 0.36815 1.00739 0.84413 0.0
C217 C 0.34138 0.03762 0.68979 0.0
C218 C 0.40304 1.01324 0.6764 0.0
C219 C 0.37385 0.05753 0.63404 0.0
C220 C 0.34321 0.0599 0.65768 0.0
C221 C 0.40318 0.03299 0.6424 0.0
C222 C 0.37198 1.01533 0.7 0.0
C223 C 0.30474 0.03281 0.70674 0.0
O224 O 0.2168 0.98521 0.75849 0.0
O225 O 0.20896 0.04561 0.76401 0.0
O226 O 0.29115 0.06055 0.72667 0.0
O227 O 0.29694 0.99942 0.71997 0.0
H228 H 0.21634 0.02482 0.68132 0.0
H229 H 0.1769 0.0262 0.62469 0.0
H230 H 0.08016 1.00394 0.69381 0.0
H231 H 0.1194 1.00282 0.74929 0.0
H232 H 0.36265 0.06273 0.9374 0.0
H233 H 0.30827 0.05928 0.89686 0.0
H234 H 0.42513 0.99482 0.85951 0.0
H235 H 0.36967 0.99122 0.81851 0.0
H236 H 0.42567 0.99446 0.68346 0.0
H237 H 0.37386 0.07376 0.60838 0.0
H238 H 0.31975 0.07718 0.64946 0.0
H239 H 0.37087 0.99789 0.7248 0.0
C240 C 0.02388 0.17508 0.72363 0.0
C241 C 0.02162 0.19208 0.68807 0.0
C242 C 1.01752 0.131 0.65756 0.0
C243 C 1.01857 0.17027 0.65533 0.0
C244 C 0.01965 0.11438 0.69347 0.0
C245 C 0.02278 0.13611 0.72593 0.0
U246 U 1.01595 0.26909 0.77032 0.0
O247 O 0.05059 0.30034 0.81094 0.0
O248 O 0.99247 0.2863 0.8247 0.0
C249 C 0.02285 0.30431 0.83485 0.0
C250 C 0.02665 0.19758 0.75845 0.0
C251 C 1.01736 0.34133 0.85339 0.0
C252 C 0.99068 0.3753 0.90619 0.0
C253 C 0.99292 0.34315 0.88407 0.0
C254 C 0.03591 0.4061 0.86647 0.0
C255 C 1.01281 0.40689 0.89842 0.0
C256 C 0.03837 0.37349 0.84425 0.0
C257 C 0.9901 0.34284 0.6946 0.0
C258 C 1.01298 0.40543 0.68273 0.0
C259 C 0.97119 0.3752 0.63854 0.0
C260 C 0.96874 0.34431 0.6619 0.0
C261 C 0.99483 0.40503 0.64789 0.0
C262 C 1.0108 0.37417 0.70605 0.0
C263 C 0.99689 0.30603 0.7104 0.0
O264 O 0.05404 0.22204 0.75942 0.0
O265 O 0.99494 0.21115 0.77105 0.0
O266 O 0.97203 0.29225 0.73373 0.0
O267 O 0.03169 0.29906 0.71964 0.0
H268 H 0.02219 0.22225 0.68563 0.0
H269 H 1.01701 0.18415 0.62841 0.0
H270 H 1.01904 0.08431 0.69679 0.0
H271 H 0.02431 0.12236 0.75294 0.0
H272 H 0.9724 0.37488 0.93041 0.0
H273 H 0.97652 0.31895 0.89204 0.0
H274 H 0.05356 0.42981 0.85988 0.0
H275 H 0.05763 0.37303 0.82085 0.0
H276 H 0.03109 0.42843 0.6905 0.0
H277 H 0.95625 0.37481 0.61212 0.0
H278 H 0.95268 0.32027 0.65278 0.0
H279 H 0.02749 0.37329 0.73135 0.0
C280 C 0.7123 0.99668 0.87164 0.0
C281 C 0.67805 1.00663 0.85492 0.0
C282 C 0.64604 1.0023 0.91534 0.0
C283 C 0.64518 1.00933 0.87654 0.0
C284 C 0.68042 0.99147 0.93149 0.0
C285 C 0.71298 0.98877 0.90998 0.0
U286 U 0.76101 1.00892 0.7788 0.0
O287 O 0.80246 0.976 0.74685 0.0
O288 O 0.81535 0.03363 0.76369 0.0
C289 C 0.82619 1.00405 0.74471 0.0
C290 C 0.74751 0.99513 0.84973 0.0
C291 C 0.84585 1.01115 0.70846 0.0
C292 C 0.90099 0.03669 0.67765 0.0
C293 C 0.87844 0.03286 0.7094 0.0
C294 C 0.85812 0.99861 0.64188 0.0
C295 C 0.89178 1.01898 0.64363 0.0
C296 C 0.83544 0.9945 0.67411 0.0
C297 C 0.68628 0.03671 0.70476 0.0
C298 C 0.6751 1.01577 0.64122 0.0
C299 C 0.63013 0.05555 0.6729 0.0
C300 C 0.65326 0.0574 0.70398 0.0
C301 C 0.64005 0.03319 0.64219 0.0
C302 C 0.69819 1.01732 0.67269 0.0
C303 C 0.70184 0.02875 0.74145 0.0
O304 O 0.74928 0.96875 0.82414 0.0
O305 O 0.76013 0.02749 0.83769 0.0
O306 O 0.7246 0.05338 0.75647 0.0
O307 O 0.71137 0.99378 0.74721 0.0
H308 H 0.67686 1.0128 0.82522 0.0
H309 H 0.61945 1.01777 0.86309 0.0
H310 H 0.6825 0.98535 0.96115 0.0
H311 H 0.73888 0.98089 0.92349 0.0
H312 H 0.92644 0.05289 0.68014 0.0
H313 H 0.88733 0.04593 0.73531 0.0
H314 H 0.85028 0.98443 0.61624 0.0
H315 H 0.8105 0.97748 0.67242 0.0
H316 H 0.68334 0.99879 0.61747 0.0
H317 H 0.60359 0.07006 0.67367 0.0
H318 H 0.64379 0.07243 0.7286 0.0
H319 H 0.72374 1.00112 0.67306 0.0
C320 C 0.17407 0.32806 1.00101 0.0
C321 C 0.19086 0.36338 1.00626 0.0
C322 C 0.12964 0.39389 1.00766 0.0
C323 C 0.16888 0.39598 1.00948 0.0
C324 C 0.11333 0.35825 1.00219 0.0
C325 C 0.13517 0.32599 0.99896 0.0
U326 U 0.26727 0.27928 1.01105 0.0
O327 O 0.29925 0.23895 0.97659 0.0
O328 O 0.2825 0.22418 0.03388 0.0
C329 C 0.30173 0.21444 1.00401 0.0
C330 C 0.19644 0.29313 0.9983 0.0
C331 C 0.33823 0.19515 1.01081 0.0
C332 C 0.37038 0.14244 0.03975 0.0
C333 C 0.33882 0.16513 0.03612 0.0
C334 C 0.40316 0.18007 0.99414 0.0
C335 C 0.40274 0.14886 1.01823 0.0
C336 C 0.3711 0.20286 0.99025 0.0
C337 C 0.34186 0.35243 0.04042 0.0
C338 C 0.40399 0.36538 1.01699 0.0
C339 C 0.3744 0.40747 0.06136 0.0
C340 C 0.34367 0.38399 0.06337 0.0
C341 C 0.40367 0.39936 0.03655 0.0
C342 C 0.3729 0.34191 1.01877 0.0
C343 C 0.30488 0.33774 0.03257 0.0
O344 O 0.22175 0.29225 0.9716 0.0
O345 O 0.20871 0.27962 0.03026 0.0
O346 O 0.29003 0.31423 0.05665 0.0
O347 O 0.29842 0.32958 0.99727 0.0
H348 H 0.22095 0.3657 1.00807 0.0
H349 H 0.18257 0.42264 1.01369 0.0
H350 H 0.08334 0.35491 1.00046 0.0
H351 H 0.12152 0.29924 0.99501 0.0
H352 H 0.36895 0.11886 0.05876 0.0
H353 H 0.3141 0.15813 0.05221 0.0
H354 H 0.42743 0.18565 0.9769 0.0
H355 H 0.37166 0.22563 0.97028 0.0
H356 H 0.42669 0.35852 0.99812 0.0
H357 H 0.37427 0.43312 0.07751 0.0
H358 H 0.3199 0.39236 0.08022 0.0
H359 H 0.37178 0.31744 1.00089 0.0
C360 C 0.31988 0.87074 1.01701 0.0
C361 C 0.35534 0.85422 1.02104 0.0
C362 C 0.38526 0.9157 1.02084 0.0
C363 C 0.38774 0.87647 0.02291 0.0
C364 C 0.34947 0.93182 1.01682 0.0
C365 C 0.31734 0.90965 1.01494 0.0
U366 U 0.2733 0.77603 0.02361 0.0
O367 O 0.2294 0.7476 0.99076 0.0
O368 O 0.22071 0.75888 0.0507 0.0
C369 C 0.20757 0.74313 1.02013 0.0
C370 C 0.28536 0.84794 1.01549 0.0
C371 C 0.18777 0.70685 0.02493 0.0
C372 C 0.13185 0.67531 0.04732 0.0
C373 C 0.15447 0.70704 0.04553 0.0
C374 C 0.17619 0.64103 1.00955 0.0
C375 C 0.14174 0.64209 0.02864 0.0
C376 C 0.19893 0.67328 1.00745 0.0
C377 C 0.34849 0.69948 0.04239 0.0
C378 C 0.36221 0.63793 1.01748 0.0
C379 C 0.40158 0.66522 0.06563 0.0
C380 C 0.37858 0.69635 0.06709 0.0
C381 C 0.39458 0.63673 0.03955 0.0
C382 C 0.33924 0.66947 1.0187 0.0
C383 C 0.33307 0.73675 0.0369 0.0
O384 O 0.28272 0.82475 0.98703 0.0
O385 O 0.27505 0.83281 0.04743 0.0
O386 O 0.31246 0.75083 0.06392 0.0
O387 O 0.32137 0.74481 1.00295 0.0
H388 H 0.35792 0.82411 0.02283 0.0
H389 H 0.4146 0.86297 0.02602 0.0
H390 H 0.34597 0.96183 1.0151 0.0
H391 H 0.29037 0.92302 1.01195 0.0
H392 H 0.10582 0.67726 0.06261 0.0
H393 H 0.14512 0.73238 0.05928 0.0
H394 H 0.18472 0.61597 0.99489 0.0
H395 H 0.22456 0.67225 0.99136 0.0
H396 H 0.35628 0.616 0.9974 0.0
H397 H 0.42603 0.66438 0.0835 0.0
H398 H 0.38603 0.71927 0.08551 0.0
H399 H 0.31596 0.67149 0.99945 0.0
C400 C 0.71623 0.17538 1.01847 0.0
C401 C 0.68049 0.19174 1.01625 0.0
C402 C 0.65032 0.13043 0.02245 0.0
C403 C 0.64791 0.16954 1.01816 0.0
C404 C 0.68634 0.11448 0.02492 0.0
C405 C 0.71865 0.13659 0.02296 0.0
U406 U 0.76428 0.27024 0.02355 0.0
O407 O 0.80872 0.29812 0.99071 0.0
O408 O 0.8166 0.2883 0.05091 0.0
C409 C 0.83028 0.30325 1.02015 0.0
C410 C 0.75113 0.19815 1.01679 0.0
C411 C 0.85094 0.33947 0.024 0.0
C412 C 0.90875 0.37036 0.04288 0.0
C413 C 0.88577 0.3387 0.04191 0.0
C414 C 0.86201 0.4058 1.00954 0.0
C415 C 0.89773 0.40427 0.02616 0.0
C416 C 0.83892 0.3736 1.00821 0.0
C417 C 0.68716 0.34599 0.03993 0.0
C418 C 0.67367 0.40766 1.01538 0.0
C419 C 0.63128 0.378 0.05943 0.0
C420 C 0.65501 0.34756 0.06206 0.0
C421 C 0.63968 0.40741 0.03492 0.0
C422 C 0.69735 0.37671 1.01762 0.0
C423 C 0.70416 0.3094 0.03526 0.0
O424 O 0.75453 0.22075 0.98793 0.0
O425 O 0.76151 0.21381 0.04844 0.0
O426 O 0.72455 0.29624 0.06286 0.0
O427 O 0.7167 0.30125 1.00162 0.0
H428 H 0.67777 0.22171 1.013 0.0
H429 H 0.62093 0.18299 1.0161 0.0
H430 H 0.68986 0.08463 0.02836 0.0
H431 H 0.74571 0.12323 0.02497 0.0
H432 H 0.93581 0.36794 0.05623 0.0
H433 H 0.89592 0.31298 0.05427 0.0
H434 H 0.85264 0.43128 0.99618 0.0
H435 H 0.81222 0.37517 0.9941 0.0
H436 H 0.68062 0.43043 0.99661 0.0
H437 H 0.60552 0.37783 0.07536 0.0
H438 H 0.6468 0.324 0.07933 0.0
H439 H 0.72217 0.37576 1.00028 0.0
C440 C 0.86239 0.71813 1.01715 0.0
C441 C 0.8464 0.68217 1.01973 0.0
C442 C 0.90835 0.65304 1.02071 0.0
C443 C 0.86912 0.64995 1.02138 0.0
C444 C 0.92392 0.68929 1.01802 0.0
C445 C 0.90132 0.72119 1.01629 0.0
U446 U 0.76795 0.76548 0.02817 0.0
O447 O 0.7366 0.80709 0.99477 0.0
O448 O 0.75172 0.81957 0.05303 0.0
C449 C 0.73351 0.8306 0.023 0.0
C450 C 0.8392 0.75268 1.01575 0.0
C451 C 0.6971 0.85034 0.02916 0.0
C452 C 0.66555 0.90525 0.05467 0.0
C453 C 0.69706 0.88225 0.05205 0.0
C454 C 0.63177 0.86414 1.01305 0.0
C455 C 0.63266 0.89718 0.03459 0.0
C456 C 0.66376 0.84107 1.01013 0.0
C457 C 0.69347 0.69052 0.05401 0.0
C458 C 0.63095 0.67875 0.03104 0.0
C459 C 0.66103 0.63458 0.0729 0.0
C460 C 0.6919 0.65788 0.07543 0.0
C461 C 0.63134 0.64394 0.04911 0.0
C462 C 0.66219 0.70202 0.0333 0.0
C463 C 0.73034 0.70598 0.04685 0.0
O464 O 0.81415 0.75422 0.98887 0.0
O465 O 0.82628 0.76465 0.04809 0.0
O466 O 0.74486 0.72854 0.072 0.0
O467 O 0.73693 0.71574 1.01197 0.0
H468 H 0.81633 0.67902 1.02056 0.0
H469 H 0.85597 0.62277 0.02345 0.0
H470 H 0.95387 0.69332 1.01714 0.0
H471 H 0.91441 0.74844 1.01431 0.0
H472 H 0.66742 0.93028 0.07166 0.0
H473 H 0.72216 0.89042 0.0669 0.0
H474 H 0.60713 0.85721 0.99689 0.0
H475 H 0.66277 0.81679 0.99204 0.0
H476 H 0.60803 0.68652 1.01285 0.0
H477 H 0.66138 0.60818 0.08779 0.0
H478 H 0.71588 0.64872 0.09151 0.0
H479 H 0.66312 0.72727 1.01657 0.0
C480 C 0.52957 0.82613 0.67917 0.0
C481 C 0.52814 0.86193 0.69564 0.0
C482 C 0.52574 0.89161 0.6338 0.0
C483 C 0.52632 0.89437 0.6732 0.0
C484 C 0.52708 0.85546 0.61777 0.0
C485 C 0.52896 0.82336 0.64009 0.0
U486 U 0.51923 0.77831 0.77353 0.0
O487 O 0.55242 0.73612 0.80415 0.0
O488 O 0.49409 0.72427 0.78938 0.0
C489 C 0.52415 0.71274 0.80706 0.0
C490 C 0.53108 0.79143 0.70205 0.0
C491 C 0.51829 0.69251 0.84323 0.0
C492 C 0.49568 0.63589 0.8738 0.0
C493 C 0.49819 0.65887 0.8422 0.0
C494 C 0.53183 0.68036 0.90962 0.0
C495 C 0.51311 0.64572 0.90778 0.0
C496 C 0.53463 0.70346 0.87754 0.0
C497 C 0.49419 0.85339 0.8487 0.0
C498 C 0.51656 0.86547 0.91161 0.0
C499 C 0.47502 0.9094 0.88087 0.0
C500 C 0.4728 0.88599 0.84996 0.0
C501 C 0.49838 0.90016 0.91096 0.0
C502 C 0.51469 0.84212 0.88028 0.0
C503 C 0.50131 0.83766 0.8118 0.0
O504 O 0.55807 0.78963 0.72694 0.0
O505 O 0.49891 0.77952 0.71519 0.0
O506 O 0.476 0.81541 0.79715 0.0
O507 O 0.53594 0.82755 0.80519 0.0
H508 H 0.52839 0.8648 0.72587 0.0
H509 H 0.5253 0.92146 0.68669 0.0
H510 H 0.5267 0.85164 0.58767 0.0
H511 H 0.52989 0.7962 0.62668 0.0
H512 H 0.48078 0.60964 0.87121 0.0
H513 H 0.4854 0.64955 0.81631 0.0
H514 H 0.5458 0.68871 0.9352 0.0
H515 H 0.55044 0.72921 0.87929 0.0
H516 H 0.53447 0.85787 0.93485 0.0
H517 H 0.46013 0.93574 0.88035 0.0
H518 H 0.45691 0.89501 0.82575 0.0
H519 H 0.53143 0.81692 0.87957 0.0
C520 C 0.36383 0.50568 0.82954 0.0
C521 C 0.34647 0.507 0.86505 0.0
C522 C 0.40697 0.51405 0.89596 0.0
C523 C 0.36785 0.51101 0.898 0.0
C524 C 0.42386 0.51263 0.86008 0.0
C525 C 0.40263 0.50853 0.82752 0.0
U526 U 0.27163 0.51652 0.78047 0.0
O527 O 0.23946 0.48198 0.74052 0.0
O528 O 0.25673 0.53886 0.72495 0.0
C529 C 0.2376 0.50893 0.71545 0.0
C530 C 0.34202 0.50263 0.79435 0.0
C531 C 0.2016 0.51538 0.69553 0.0
C532 C 0.17117 0.53801 0.63891 0.0
C533 C 0.20277 0.53515 0.66163 0.0
C534 C 0.13516 0.50297 0.68424 0.0
C535 C 0.13714 0.52123 0.64931 0.0
C536 C 0.16723 0.49983 0.70709 0.0
C537 C 0.19864 0.54759 0.85504 0.0
C538 C 0.13525 0.52681 0.86594 0.0
C539 C 0.16761 0.56415 0.91258 0.0
C540 C 0.19834 0.56685 0.8891 0.0
C541 C 0.13677 0.54252 0.90194 0.0
C542 C 0.16639 0.52911 0.84251 0.0
C543 C 0.23501 0.53918 0.83929 0.0
O544 O 0.3163 0.47641 0.79368 0.0
O545 O 0.3305 0.53452 0.78019 0.0
O546 O 0.24964 0.56273 0.81511 0.0
O547 O 0.24056 0.50381 0.83121 0.0
H548 H 0.31637 0.50511 0.86727 0.0
H549 H 0.3538 0.51192 0.92486 0.0
H550 H 0.45384 0.51463 0.85675 0.0
H551 H 0.41664 0.50778 0.8006 0.0
H552 H 0.17376 0.5526 0.61241 0.0
H553 H 0.22873 0.54735 0.65188 0.0
H554 H 0.10948 0.48956 0.69298 0.0
H555 H 0.1654 0.48434 0.7331 0.0
H556 H 0.11138 0.51037 0.85718 0.0
H557 H 0.16878 0.57726 0.93992 0.0
H558 H 0.22314 0.58111 0.89908 0.0
H559 H 0.16645 0.51394 0.81621 0.0
C560 C 0.51477 0.36723 0.8294 0.0
C561 C 0.51625 0.35099 0.86536 0.0
C562 C 0.51961 0.41279 0.89473 0.0
C563 C 0.51856 0.37353 0.89772 0.0
C564 C 0.5184 0.42861 0.85844 0.0
C565 C 0.51601 0.40617 0.82637 0.0
U566 U 0.52319 0.2728 0.78153 0.0
O567 O 0.5461 0.25709 0.72639 0.0
O568 O 0.48824 0.24236 0.74052 0.0
C569 C 0.51556 0.2395 0.71598 0.0
C570 C 0.51222 0.34418 0.79484 0.0
C571 C 0.52062 0.20352 0.69535 0.0
C572 C 0.54264 0.17322 0.63831 0.0
C573 C 0.54086 0.20448 0.66171 0.0
C574 C 0.50543 0.13782 0.6823 0.0
C575 C 0.52432 0.13965 0.64766 0.0
C576 C 0.50335 0.1696 0.70585 0.0
C577 C 0.54995 0.19699 0.85508 0.0
C578 C 0.52618 0.1347 0.86701 0.0
C579 C 0.56977 0.16363 0.91028 0.0
C580 C 0.57226 0.19469 0.8871 0.0
C581 C 0.54515 0.13446 0.9014 0.0
C582 C 0.5284 0.16612 0.84389 0.0
C583 C 0.54297 0.23422 0.84022 0.0
O584 O 0.54398 0.33086 0.7821 0.0
O585 O 0.48505 0.31946 0.794 0.0
O586 O 0.50808 0.24149 0.8316 0.0
O587 O 0.56756 0.24868 0.817 0.0
H588 H 0.51551 0.32088 0.86842 0.0
H589 H 0.51936 0.36022 0.92495 0.0
H590 H 0.51901 0.45861 0.8545 0.0
H591 H 0.51502 0.41938 0.79906 0.0
H592 H 0.55775 0.17575 0.61214 0.0
H593 H 0.55434 0.23008 0.6527 0.0
H594 H 0.49088 0.11252 0.69034 0.0
H595 H 0.48741 0.16792 0.73159 0.0
H596 H 0.50725 0.11224 0.85963 0.0
H597 H 0.58526 0.16353 0.93638 0.0
H598 H 0.58901 0.21832 0.89604 0.0
H599 H 0.51098 0.16759 0.81912 0.0
C600 C 0.67413 0.5421 0.83403 0.0
C601 C 0.68834 0.52246 0.86528 0.0
C602 C 0.63423 0.54034 0.90309 0.0
C603 C 0.66854 0.52157 0.89956 0.0
C604 C 0.62134 0.56137 0.8722 0.0
C605 C 0.64094 0.56219 0.83827 0.0
U606 U 0.76338 0.53122 0.77851 0.0
O607 O 0.78948 0.56406 0.7331 0.0
O608 O 0.77704 0.50463 0.72428 0.0
C609 C 0.79205 0.5352 0.71037 0.0
C610 C 0.69336 0.54222 0.797 0.0
C611 C 0.82694 0.53095 0.68791 0.0
C612 C 0.85479 0.51883 0.62665 0.0
C613 C 0.82348 0.52086 0.65009 0.0
C614 C 0.89461 0.53605 0.67852 0.0
C615 C 0.8909 0.52673 0.64022 0.0
C616 C 0.86292 0.53832 0.7021 0.0
C617 C 0.84052 0.51069 0.85438 0.0
C618 C 0.90254 0.53346 0.86839 0.0
C619 C 0.87 0.49327 0.91252 0.0
C620 C 0.84021 0.49048 0.88789 0.0
C621 C 0.90061 0.51602 0.9036 0.0
C622 C 0.87231 0.53107 0.84386 0.0
C623 C 0.80462 0.51683 0.83665 0.0
O624 O 0.71706 0.56973 0.79152 0.0
O625 O 0.70602 0.50983 0.78507 0.0
O626 O 0.78996 0.4901 0.81609 0.0
O627 O 0.79787 0.55088 0.82465 0.0
H628 H 0.71427 0.5071 0.8629 0.0
H629 H 0.67913 0.50488 0.92252 0.0
H630 H 0.59517 0.57647 0.87385 0.0
H631 H 0.62964 0.57797 0.81498 0.0
H632 H 0.85046 0.51117 0.5976 0.0
H633 H 0.79619 0.51505 0.63834 0.0
H634 H 0.92184 0.54235 0.69009 0.0
H635 H 0.86647 0.54624 0.73119 0.0
H636 H 0.92624 0.55075 0.86088 0.0
H637 H 0.86845 0.47876 0.93913 0.0
H638 H 0.81569 0.47481 0.89637 0.0
H639 H 0.87273 0.54702 0.81805 0.0
C640 C 0.52955 0.21965 0.37076 0.0
C641 C 0.53131 0.18414 0.3537 0.0
C642 C 0.5247 0.15348 0.41459 0.0
C643 C 0.52896 0.15131 0.37542 0.0
C644 C 0.52239 0.18934 0.43113 0.0
C645 C 0.52483 0.22182 0.40955 0.0
U646 U 0.52218 0.26794 0.27703 0.0
O647 O 0.55516 0.31147 0.2481 0.0
O648 O 0.49601 0.32127 0.26117 0.0
C649 C 0.52621 0.33381 0.24437 0.0
C650 C 0.53152 0.25465 0.34864 0.0
C651 C 0.52053 0.35324 0.20791 0.0
C652 C 0.49456 0.40724 0.17574 0.0
C653 C 0.49735 0.38477 0.20758 0.0
C654 C 0.53663 0.3662 0.14236 0.0
C655 C 0.51487 0.39897 0.14298 0.0
C656 C 0.53966 0.34361 0.17468 0.0
C657 C 0.50088 0.19371 0.19998 0.0
C658 C 0.52604 0.17979 0.13847 0.0
C659 C 0.47841 0.14002 0.16602 0.0
C660 C 0.47651 0.16336 0.19699 0.0
C661 C 0.50458 0.14701 0.13761 0.0
C662 C 0.52436 0.2031 0.16983 0.0
C663 C 0.5069 0.20874 0.23741 0.0
O664 O 0.55948 0.25725 0.32488 0.0
O665 O 0.49965 0.26606 0.33448 0.0
O666 O 0.48066 0.22991 0.25196 0.0
O667 O 0.54109 0.21959 0.24518 0.0
H668 H 0.53458 0.18182 0.3236 0.0
H669 H 0.53082 0.12441 0.36164 0.0
H670 H 0.51876 0.19265 0.46108 0.0
H671 H 0.52299 0.24877 0.42329 0.0
H672 H 0.47719 0.43198 0.17724 0.0
H673 H 0.48231 0.39294 0.23265 0.0
H674 H 0.55268 0.35906 0.11766 0.0
H675 H 0.55778 0.31941 0.17401 0.0
H676 H 0.54611 0.18573 0.11652 0.0
H677 H 0.46096 0.11525 0.16535 0.0
H678 H 0.45824 0.15582 0.22003 0.0
H679 H 0.54333 0.22663 0.17176 0.0
C680 C 0.67396 0.51172 0.22006 0.0
C681 C 0.69035 0.5156 0.18429 0.0
C682 C 0.62877 0.51555 0.1544 0.0
C683 C 0.66798 0.51747 0.15175 0.0
C684 C 0.61289 0.51169 0.19054 0.0
C685 C 0.6351 0.50982 0.2227 0.0
U686 U 0.76804 0.51999 0.26825 0.0
O687 O 0.79746 0.48655 0.31119 0.0
O688 O 0.78422 0.54548 0.32217 0.0
C689 C 0.80062 0.51498 0.33441 0.0
C690 C 0.69662 0.51006 0.25493 0.0
C691 C 0.83609 0.51983 0.35585 0.0
C692 C 0.86468 0.53825 0.41499 0.0
C693 C 0.83363 0.53627 0.39139 0.0
C694 C 0.90278 0.5088 0.36755 0.0
C695 C 0.89969 0.52406 0.40392 0.0
C696 C 0.87117 0.50643 0.3438 0.0
C697 C 0.84308 0.54209 0.19175 0.0
C698 C 0.90455 0.51793 0.17735 0.0
C699 C 0.87447 0.56203 0.13542 0.0
C700 C 0.8443 0.56444 0.15968 0.0
C701 C 0.90388 0.53739 0.14321 0.0
C702 C 0.87399 0.52007 0.20156 0.0
C703 C 0.80656 0.53597 0.20844 0.0
O704 O 0.72056 0.48234 0.25722 0.0
O705 O 0.7106 0.54203 0.26644 0.0
O706 O 0.79276 0.56205 0.23038 0.0
O707 O 0.7993 0.50163 0.21928 0.0
H708 H 0.72042 0.51727 0.18155 0.0
H709 H 0.68134 0.52051 0.12468 0.0
H710 H 0.58294 0.51012 0.19436 0.0
H711 H 0.62177 0.50696 0.24983 0.0
H712 H 0.86083 0.55032 0.44252 0.0
H713 H 0.8071 0.54672 0.40157 0.0
H714 H 0.92914 0.49747 0.35801 0.0
H715 H 0.87398 0.49349 0.3165 0.0
H716 H 0.92728 0.49913 0.18403 0.0
H717 H 0.87392 0.5781 0.10968 0.0
H718 H 0.82057 0.5815 0.15179 0.0
H719 H 0.87333 0.50259 0.22635 0.0
C720 C 0.52528 0.67664 0.22153 0.0
C721 C 0.52375 0.69303 0.18565 0.0
C722 C 0.51857 0.63146 0.1564 0.0
C723 C 0.52052 0.67064 0.15335 0.0
C724 C 0.51977 0.6155 0.19263 0.0
C725 C 0.52309 0.63778 0.22464 0.0
U726 U 0.51854 0.7711 0.2684 0.0
O727 O 0.55362 0.80099 0.3096 0.0
O728 O 0.49534 0.78727 0.32319 0.0
C729 C 0.52604 0.80447 0.33376 0.0
C730 C 0.52842 0.69956 0.25595 0.0
C731 C 0.52113 0.8408 0.35353 0.0
C732 C 0.49707 0.87273 0.4087 0.0
C733 C 0.49879 0.84116 0.38581 0.0
C734 C 0.53859 0.90576 0.36669 0.0
C735 C 0.51764 0.90515 0.40011 0.0
C736 C 0.54054 0.87371 0.34367 0.0
C737 C 0.49238 0.84679 0.19445 0.0
C738 C 0.51536 0.9093 0.1819 0.0
C739 C 0.47014 0.88039 0.14033 0.0
C740 C 0.46883 0.84915 0.16334 0.0
C741 C 0.49484 0.90973 0.14842 0.0
C742 C 0.51432 0.87767 0.20486 0.0
C743 C 0.4994 0.80959 0.20944 0.0
O744 O 0.55601 0.72381 0.25653 0.0
O745 O 0.49688 0.71344 0.26859 0.0
O746 O 0.47461 0.79519 0.23247 0.0
O747 O 0.53422 0.80227 0.21835 0.0
H748 H 0.52512 0.72312 0.18264 0.0
H749 H 0.51969 0.68399 0.12613 0.0
H750 H 0.51833 0.58553 0.19657 0.0
H751 H 0.52398 0.62455 0.25194 0.0
H752 H 0.48034 0.87129 0.43398 0.0
H753 H 0.48364 0.81631 0.39424 0.0
H754 H 0.55489 0.93021 0.35939 0.0
H755 H 0.55809 0.87432 0.31895 0.0
H756 H 0.53441 0.93185 0.18864 0.0
H757 H 0.45353 0.88059 0.11494 0.0
H758 H 0.45178 0.82552 0.155 0.0
H759 H 0.53269 0.87618 0.22892 0.0
C760 C 0.21336 0.49971 0.37181 0.0
C761 C 0.17839 0.50699 0.35523 0.0
C762 C 0.1476 0.50428 0.41646 0.0
C763 C 0.14577 0.50917 0.37733 0.0
C764 C 0.1828 0.49633 0.43251 0.0
C765 C 0.21508 0.49414 0.41053 0.0
U766 U 0.26204 0.50922 0.27794 0.0
O767 O 0.30629 0.47725 0.24902 0.0
O768 O 0.31507 0.53653 0.26246 0.0
C769 C 0.3284 0.50651 0.24596 0.0
C770 C 0.24834 0.49871 0.34949 0.0
C771 C 0.34916 0.51227 0.21019 0.0
C772 C 0.40663 0.53371 0.18062 0.0
C773 C 0.38359 0.53079 0.2121 0.0
C774 C 0.36068 0.50109 0.14329 0.0
C775 C 0.39604 0.51828 0.14589 0.0
C776 C 0.33751 0.49786 0.17527 0.0
C777 C 0.18693 0.5305 0.20142 0.0
C778 C 0.17372 0.50793 0.13876 0.0
C779 C 0.13244 0.55268 0.16874 0.0
C780 C 0.1557 0.55378 0.19975 0.0
C781 C 0.14038 0.52847 0.13888 0.0
C782 C 0.19692 0.50871 0.17022 0.0
C783 C 0.20277 0.52391 0.23838 0.0
O784 O 0.25133 0.47112 0.32534 0.0
O785 O 0.25926 0.53096 0.33565 0.0
O786 O 0.22344 0.55037 0.25332 0.0
O787 O 0.21443 0.48979 0.24528 0.0
H788 H 0.17639 0.51139 0.32526 0.0
H789 H 0.1194 0.51535 0.3639 0.0
H790 H 0.18575 0.492 0.4624 0.0
H791 H 0.24159 0.48843 0.42396 0.0
H792 H 0.43335 0.54757 0.18382 0.0
H793 H 0.39334 0.54217 0.2385 0.0
H794 H 0.35161 0.48887 0.11707 0.0
H795 H 0.31105 0.48341 0.17289 0.0
H796 H 0.18039 0.48939 0.1157 0.0
H797 H 0.10725 0.56945 0.16889 0.0
H798 H 0.14767 0.57069 0.22366 0.0
H799 H 0.22107 0.49052 0.17118 0.0
C800 C 0.83162 0.68118 0.52546 0.0
C801 C 0.86446 0.69352 0.54372 0.0
C802 C 0.89984 0.64112 0.51796 0.0
C803 C 0.89828 0.67359 0.54005 0.0
C804 C 0.86743 0.63025 0.49833 0.0
C805 C 0.83391 0.64982 0.50212 0.0
U806 U 0.77591 0.77014 0.51788 0.0
O807 O 0.73432 0.79851 0.55369 0.0
O808 O 0.71963 0.78254 0.4961 0.0
C809 C 0.70904 0.79967 0.52694 0.0
C810 C 0.79496 0.70056 0.52966 0.0
C811 C 0.68673 0.83453 0.52228 0.0
C812 C 0.62641 0.86212 0.50698 0.0
C813 C 0.65008 0.83111 0.50894 0.0
C814 C 0.67584 0.90168 0.53055 0.0
C815 C 0.63858 0.89787 0.51825 0.0
C816 C 0.69966 0.87027 0.53271 0.0
C817 C 0.84837 0.84689 0.48848 0.0
C818 C 0.86028 0.90913 0.51193 0.0
C819 C 0.90654 0.87745 0.47362 0.0
C820 C 0.88249 0.84732 0.46944 0.0
C821 C 0.89633 0.9076 0.49651 0.0
C822 C 0.83634 0.87861 0.50814 0.0
C823 C 0.83247 0.81039 0.49614 0.0
O824 O 0.79222 0.72525 0.55684 0.0
O825 O 0.7793 0.71176 0.49827 0.0
O826 O 0.80893 0.79561 0.47207 0.0
O827 O 0.82442 0.80388 0.53146 0.0
H828 H 0.86386 0.71802 0.56151 0.0
H829 H 0.92247 0.68244 0.55594 0.0
H830 H 0.86759 0.60545 0.48096 0.0
H831 H 0.80944 0.63989 0.4873 0.0
H832 H 0.59819 0.85779 0.497 0.0
H833 H 0.63931 0.80399 0.50075 0.0
H834 H 0.68626 0.92864 0.53954 0.0
H835 H 0.72782 0.87383 0.54314 0.0
H836 H 0.85175 0.93245 0.5293 0.0
H837 H 0.93387 0.87626 0.46061 0.0
H838 H 0.89212 0.82286 0.45431 0.0
H839 H 0.81005 0.87843 0.52319 0.0
C840 C 0.81995 0.3703 0.51633 0.0
C841 C 0.8551 0.35257 0.51549 0.0
C842 C 0.88672 0.41268 0.52217 0.0
C843 C 0.88825 0.37359 0.51832 0.0
C844 C 0.85118 0.42989 0.52356 0.0
C845 C 0.8184 0.40901 0.52063 0.0
U846 U 0.77148 0.27772 0.52438 0.0
O847 O 0.72922 0.24814 0.49047 0.0
O848 O 0.71755 0.2619 0.54941 0.0
C849 C 0.70593 0.24496 0.51885 0.0
C850 C 0.78472 0.34885 0.51396 0.0
C851 C 0.68601 0.20893 0.52422 0.0
C852 C 0.62936 0.1781 0.54553 0.0
C853 C 0.65176 0.2099 0.54314 0.0
C854 C 0.6757 0.14242 0.51164 0.0
C855 C 0.64045 0.14408 0.52912 0.0
C856 C 0.69825 0.1747 0.50897 0.0
C857 C 0.8471 0.20289 0.54799 0.0
C858 C 0.86 0.14083 0.52431 0.0
C859 C 0.90332 0.17116 0.56694 0.0
C860 C 0.8796 0.20166 0.56957 0.0
C861 C 0.89456 0.14144 0.54284 0.0
C862 C 0.83633 0.1717 0.52669 0.0
C863 C 0.83089 0.23953 0.54157 0.0
O864 O 0.78253 0.32476 0.48622 0.0
O865 O 0.77248 0.33538 0.54596 0.0
O866 O 0.80859 0.25345 0.56729 0.0
O867 O 0.82064 0.24658 0.50693 0.0
H868 H 0.85688 0.32249 0.51259 0.0
H869 H 0.91488 0.35934 0.5172 0.0
H870 H 0.84833 0.45983 0.52684 0.0
H871 H 0.79171 0.42321 0.52177 0.0
H872 H 0.60266 0.18056 0.55955 0.0
H873 H 0.64162 0.2358 0.55515 0.0
H874 H 0.68512 0.11673 0.4987 0.0
H875 H 0.72465 0.17311 0.49424 0.0
H876 H 0.85258 0.1179 0.50594 0.0
H877 H 0.92941 0.1717 0.5823 0.0
H878 H 0.88821 0.22561 0.58608 0.0
H879 H 0.81121 0.17239 0.50981 0.0
C880 C 0.2149 0.67556 0.5225 0.0
C881 C 0.17896 0.69142 0.51979 0.0
C882 C 0.14954 0.6297 0.52602 0.0
C883 C 0.14665 0.66876 0.52149 0.0
C884 C 0.18575 0.61429 0.52899 0.0
C885 C 0.21777 0.63683 0.52726 0.0
U886 U 0.26297 0.77096 0.52563 0.0
O887 O 0.30873 0.79683 0.49294 0.0
O888 O 0.31478 0.78964 0.55372 0.0
C889 C 0.32987 0.80232 0.52259 0.0
C890 C 0.2496 0.69867 0.52091 0.0
C891 C 0.3528 0.83726 0.52482 0.0
C892 C 0.41429 0.86451 0.5364 0.0
C893 C 0.39009 0.83374 0.53625 0.0
C894 C 0.36431 0.90427 0.51475 0.0
C895 C 0.40213 0.9003 0.52529 0.0
C896 C 0.33993 0.87299 0.51428 0.0
C897 C 0.18246 0.84541 0.53815 0.0
C898 C 0.1687 0.90804 0.51643 0.0
C899 C 0.12342 0.87387 0.55376 0.0
C900 C 0.14805 0.84414 0.5566 0.0
C901 C 0.13308 0.90552 0.53277 0.0
C902 C 0.19328 0.87777 0.51875 0.0
C903 C 0.20241 0.81021 0.53455 0.0
O904 O 0.25352 0.72039 0.49144 0.0
O905 O 0.25921 0.71537 0.55226 0.0
O906 O 0.22226 0.79822 0.56308 0.0
O907 O 0.21643 0.80211 0.50148 0.0
H908 H 0.17589 0.72133 0.51628 0.0
H909 H 0.11952 0.68182 0.51902 0.0
H910 H 0.18965 0.58451 0.53265 0.0
H911 H 0.24498 0.62384 0.52962 0.0
H912 H 0.44289 0.86 0.54511 0.0
H913 H 0.40091 0.80668 0.54449 0.0
H914 H 0.35383 0.93123 0.5059 0.0
H915 H 0.31132 0.87664 0.50521 0.0
H916 H 0.17669 0.93243 0.50033 0.0
H917 H 0.09639 0.87169 0.56725 0.0
H918 H 0.1393 0.8192 0.57149 0.0
H919 H 0.21977 0.87892 0.50411 0.0
C920 C 0.36237 0.2143 0.51528 0.0
C921 C 0.34632 0.17845 0.519 0.0
C922 C 0.4082 0.14928 0.51952 0.0
C923 C 0.36901 0.14621 0.52099 0.0
C924 C 0.42375 0.18543 0.51549 0.0
C925 C 0.40123 0.21729 0.51344 0.0
U926 U 0.26861 0.26236 0.52753 0.0
O927 O 0.23693 0.30346 0.49388 0.0
O928 O 0.25343 0.31711 0.55153 0.0
C929 C 0.23478 0.32767 0.52161 0.0
C930 C 0.3394 0.2489 0.51375 0.0
C931 C 0.19884 0.34803 0.52804 0.0
C932 C 0.16869 0.40424 0.55225 0.0
C933 C 0.19993 0.38096 0.5494 0.0
C934 C 0.13306 0.36152 0.51391 0.0
C935 C 0.13498 0.39548 0.53391 0.0
C936 C 0.16477 0.33813 0.51077 0.0
C937 C 0.19424 0.18826 0.55579 0.0
C938 C 0.13113 0.1781 0.53378 0.0
C939 C 0.16162 0.13192 0.57309 0.0
C940 C 0.19279 0.15479 0.57588 0.0
C941 C 0.13152 0.14255 0.55037 0.0
C942 C 0.16265 0.20093 0.5363 0.0
C943 C 0.2311 0.20339 0.54807 0.0
O944 O 0.3138 0.2501 0.48741 0.0
O945 O 0.32732 0.26154 0.54617 0.0
O946 O 0.24592 0.22651 0.57253 0.0
O947 O 0.23727 0.21239 0.51291 0.0
H948 H 0.31628 0.17541 0.52056 0.0
H949 H 0.35592 0.1191 0.52408 0.0
H950 H 0.45367 0.18945 0.51384 0.0
H951 H 0.41432 0.24445 0.51053 0.0
H952 H 0.17137 0.42993 0.56812 0.0
H953 H 0.22565 0.38956 0.56288 0.0
H954 H 0.10772 0.35397 0.49919 0.0
H955 H 0.16292 0.31302 0.49393 0.0
H956 H 0.10791 0.18689 0.51647 0.0
H957 H 0.16199 0.10494 0.58691 0.0
H958 H 0.21703 0.14472 0.59099 0.0
H959 H 0.16354 0.22681 0.52056 0.0
C960 C 1.00776 0.92769 0.60982 0.0
C961 C 1.01809 0.94091 0.42681 0.0
C962 C 1.01474 0.10667 0.62347 0.0
C963 C 1.01499 0.12093 0.43905 0.0
C964 C 0.92284 0.11301 0.5353 0.0
C965 C 0.9242 0.93581 0.5061 0.0
C966 C 0.10282 0.11494 0.54146 0.0
C967 C 0.10518 0.93487 0.52745 0.0
C968 C 0.107 0.02987 0.4354 0.0
C969 C 0.92972 0.02879 0.42781 0.0
C970 C 0.09963 1.01711 0.62068 0.0
C971 C 0.91985 1.01926 0.61255 0.0
Eu972 Eu 1.01444 0.95317 0.51978 0.0
O973 O 0.98296 0.99409 0.48917 0.0
O974 O 0.04627 0.98911 0.55608 0.0
Eu975 Eu 0.94235 0.02435 0.52139 0.0
Eu976 Eu 0.0859 0.02472 0.52748 0.0
O977 O 0.97837 0.98788 0.55375 0.0
O978 O 0.04947 0.99323 0.49106 0.0
Eu979 Eu 1.01067 1.01898 0.59388 0.0
Eu980 Eu 1.01733 0.0296 0.45574 0.0
O981 O 0.97929 0.05516 0.55786 0.0
O982 O 0.98146 0.06071 0.49278 0.0
O983 O 0.04965 0.06111 0.49556 0.0
O984 O 0.04523 0.05468 0.56026 0.0
Eu985 Eu 1.01384 0.09592 0.5298 0.0
O986 O 1.01049 0.91757 0.57367 0.0
O987 O 1.01811 0.92604 0.46137 0.0
O988 O 1.01516 0.12202 0.58907 0.0
O989 O 1.01462 0.13126 0.47531 0.0
O990 O 0.91097 0.0785 0.52785 0.0
O991 O 0.91184 0.9704 0.5118 0.0
O992 O 0.11461 0.07969 0.53843 0.0
O993 O 0.11724 0.97011 0.52738 0.0
O994 O 0.07149 0.03082 0.42495 0.0
O995 O 0.966 0.0298 0.42039 0.0
O996 O 0.06327 1.01537 0.6285 0.0
O997 O 0.95527 0.02049 0.62386 0.0
O998 O 0.06798 0.12717 0.53709 0.0
O999 O 0.95825 0.12457 0.53674 0.0
O1000 O 0.06979 0.92339 0.52465 0.0
O1001 O 0.95955 0.92412 0.50839 0.0
O1002 O 1.0177 0.9775 0.41952 0.0
O1003 O 1.01611 0.08572 0.42696 0.0
O1004 O 1.00708 0.9628 0.62217 0.0
O1005 O 1.01265 0.07017 0.63036 0.0
O1006 O 0.90879 1.01856 0.57657 0.0
O1007 O 0.91486 0.02735 0.46248 0.0
O1008 O 0.11391 0.02071 0.58593 0.0
O1009 O 0.11891 0.02873 0.47123 0.0
C1010 C 0.50223 0.93769 0.11949 0.0
C1011 C 0.51168 0.11786 0.10991 0.0
C1012 C 0.50629 0.92862 0.93913 0.0
C1013 C 0.53607 0.10694 0.93026 0.0
C1014 C 0.61275 1.00788 0.94021 0.0
C1015 C 0.60548 0.02475 0.11935 0.0
C1016 C 0.42939 0.0273 0.93057 0.0
C1017 C 0.42292 0.03096 0.11247 0.0
C1018 C 0.43282 0.1198 1.01842 0.0
C1019 C 0.61633 0.10562 0.02379 0.0
C1020 C 0.41899 0.94044 0.02268 0.0
C1021 C 0.60244 0.92619 0.03295 0.0
Eu1022 Eu 0.51481 0.02597 0.09664 0.0
O1023 O 0.55141 0.0559 0.05893 0.0
O1024 O 0.48138 0.99374 0.05813 0.0
Eu1025 Eu 0.58646 1.01756 0.02867 0.0
Eu1026 Eu 0.4482 0.02845 1.02211 0.0
O1027 O 0.54644 0.98768 0.06217 0.0
O1028 O 0.48686 0.05976 0.05525 0.0
Eu1029 Eu 0.51205 0.95143 0.02805 0.0
Eu1030 Eu 0.52307 0.09428 1.02161 0.0
O1031 O 0.54881 0.98538 0.99426 0.0
O1032 O 0.55326 0.05149 0.99204 0.0
O1033 O 0.48848 0.05774 0.98789 0.0
O1034 O 0.48404 0.99087 0.99207 0.0
Eu1035 Eu 0.52018 1.01933 0.95325 0.0
O1036 O 0.50776 0.97292 0.13031 0.0
O1037 O 0.51019 0.08295 0.12295 0.0
O1038 O 0.51045 0.96332 0.92609 0.0
O1039 O 0.5303 0.07173 0.91948 0.0
O1040 O 0.62078 1.01041 0.97653 0.0
O1041 O 0.61664 0.02165 0.08388 0.0
O1042 O 0.41832 0.03011 0.9662 0.0
O1043 O 0.41427 0.03079 0.07601 0.0
O1044 O 0.46901 0.1295 1.01553 0.0
O1045 O 0.58199 0.12085 0.02366 0.0
O1046 O 0.45316 0.92524 0.02566 0.0
O1047 O 0.56637 0.91612 0.02982 0.0
O1048 O 0.46506 0.02314 0.91951 0.0
O1049 O 0.57815 1.01022 0.92562 0.0
O1050 O 0.4578 0.02959 0.12604 0.0
O1051 O 0.56972 0.02606 0.13061 0.0
O1052 O 0.51828 0.12832 0.07467 0.0
O1053 O 0.53402 0.12025 0.96514 0.0
O1054 O 0.50307 0.92472 0.08445 0.0
O1055 O 0.50802 0.9178 0.97479 0.0
O1056 O 0.61463 0.96138 0.03434 0.0
O1057 O 0.62312 0.06898 0.02478 0.0
O1058 O 0.41205 0.97696 1.02096 0.0
O1059 O 0.42036 0.0849 1.02209 0.0
C1060 C 0.02117 0.42638 0.10672 0.0
C1061 C 1.01464 0.43746 0.92688 0.0
C1062 C 0.02348 0.61008 0.11802 0.0
C1063 C 0.02167 0.62168 0.93828 0.0
C1064 C 0.93379 0.61963 0.02281 0.0
C1065 C 0.92567 0.43554 0.02362 0.0
C1066 C 0.11369 0.61118 0.0266 0.0
C1067 C 0.10479 0.42751 1.01184 0.0
C1068 C 0.10807 0.53432 0.92975 0.0
C1069 C 0.92948 0.52221 0.93177 0.0
C1070 C 0.11209 0.52302 0.10998 0.0
C1071 C 0.93203 0.53053 0.11435 0.0
Eu1072 Eu 1.01659 0.45471 1.0182 0.0
O1073 O 0.98516 0.49516 0.98735 0.0
O1074 O 0.05265 0.4876 0.05337 0.0
Eu1075 Eu 0.94835 0.52676 0.02281 0.0
Eu1076 Eu 0.09134 0.5204 1.02032 0.0
O1077 O 0.98491 0.4906 0.05457 0.0
O1078 O 0.05154 0.49146 0.98541 0.0
Eu1079 Eu 0.02081 0.51949 0.09371 0.0
Eu1080 Eu 1.01906 0.52824 0.95003 0.0
O1081 O 0.98836 0.55535 0.05771 0.0
O1082 O 0.98709 0.56002 0.99041 0.0
O1083 O 0.05389 0.55665 0.99012 0.0
O1084 O 0.05473 0.55234 0.05627 0.0
Eu1085 Eu 0.02261 0.59291 0.02627 0.0
O1086 O 1.01927 0.41898 0.07017 0.0
O1087 O 1.01117 0.426 0.96224 0.0
O1088 O 0.02425 0.62188 0.08257 0.0
O1089 O 0.02467 0.62863 0.97475 0.0
O1090 O 0.91976 0.5848 1.02028 0.0
O1091 O 0.91451 0.47144 0.02467 0.0
O1092 O 0.12486 0.57554 0.02293 0.0
O1093 O 0.11936 0.46215 1.01447 0.0
O1094 O 0.07286 0.5334 0.918 0.0
O1095 O 0.9643 0.52634 0.9194 0.0
O1096 O 0.07683 0.52315 0.12207 0.0
O1097 O 0.96662 0.52288 0.12573 0.0
O1098 O 0.07825 0.62233 0.02856 0.0
O1099 O 0.96996 0.62756 0.02659 0.0
O1100 O 0.06844 0.41984 1.01263 0.0
O1101 O 0.96114 0.42449 1.02103 0.0
O1102 O 0.01979 0.4731 0.91615 0.0
O1103 O 1.01839 0.58732 0.92321 0.0
O1104 O 0.02178 0.46099 0.12148 0.0
O1105 O 0.02154 0.57407 0.12854 0.0
O1106 O 0.92021 0.53309 0.07896 0.0
O1107 O 0.91824 0.52205 0.96747 0.0
O1108 O 0.12361 0.51969 0.07461 0.0
O1109 O 0.1201 0.52921 0.96477 0.0
C1110 C 0.51595 0.42733 0.11233 0.0
C1111 C 0.51622 0.60648 0.12282 0.0
C1112 C 0.52096 0.4379 0.92844 0.0
C1113 C 0.51454 0.61739 0.93866 0.0
C1114 C 0.60828 0.53444 0.93543 0.0
C1115 C 0.60349 0.51764 0.12083 0.0
C1116 C 0.4313 0.51836 0.9299 0.0
C1117 C 0.42384 0.51806 0.11451 0.0
C1118 C 0.42335 0.6085 0.03323 0.0
C1119 C 0.60335 0.61553 0.04054 0.0
C1120 C 0.43148 0.42818 0.02909 0.0
C1121 C 0.61133 0.43587 0.02844 0.0
Eu1122 Eu 0.51467 0.51834 0.09471 0.0
O1123 O 0.54816 0.55444 0.06054 0.0
O1124 O 0.48409 0.48614 0.05476 0.0
Eu1125 Eu 0.58901 0.52474 0.02767 0.0
Eu1126 Eu 0.44545 0.51981 0.02317 0.0
O1127 O 0.55071 0.48849 0.05713 0.0
O1128 O 0.48151 0.55278 0.0587 0.0
Eu1129 Eu 0.52 0.45082 1.02165 0.0
Eu1130 Eu 0.51485 0.59382 0.02965 0.0
O1131 O 0.55337 0.49147 0.99177 0.0
O1132 O 0.55082 0.559 0.99588 0.0
O1133 O 0.48307 0.55695 0.9937 0.0
O1134 O 0.48581 0.4894 0.99025 0.0
Eu1135 Eu 0.51912 0.52634 0.95669 0.0
O1136 O 0.51244 0.46256 0.12382 0.0
O1137 O 0.51563 0.57008 0.13033 0.0
O1138 O 0.52194 0.47438 0.921 0.0
O1139 O 0.51505 0.58196 0.92711 0.0
O1140 O 0.62081 0.53125 0.97094 0.0
O1141 O 0.6176 0.52098 0.08598 0.0
O1142 O 0.417 0.51641 0.96478 0.0
O1143 O 0.41229 0.51778 0.07871 0.0
O1144 O 0.45843 0.62087 0.03545 0.0
O1145 O 0.56819 0.62675 0.03593 0.0
O1146 O 0.46676 0.41735 0.02457 0.0
O1147 O 0.57635 0.42324 0.02589 0.0
O1148 O 0.46723 0.52319 0.92211 0.0
O1149 O 0.57266 0.53305 0.9253 0.0
O1150 O 0.45946 0.51847 0.12531 0.0
O1151 O 0.56725 0.51596 0.12885 0.0
O1152 O 0.51564 0.62123 0.0882 0.0
O1153 O 0.5152 0.62826 0.97473 0.0
O1154 O 0.5204 0.41667 0.07653 0.0
O1155 O 0.52022 0.42317 0.9631 0.0
O1156 O 0.62239 0.4714 0.02765 0.0
O1157 O 0.61608 0.58057 0.03821 0.0
O1158 O 0.41859 0.46315 0.02856 0.0
O1159 O 0.4124 0.57353 0.02628 0.0
C1160 C 1.00308 0.43322 0.61948 0.0
C1161 C 1.00816 0.42739 0.43892 0.0
C1162 C 1.01198 0.61353 0.61333 0.0
C1163 C 0.03381 0.60667 0.43344 0.0
C1164 C 0.9314 0.61404 0.52006 0.0
C1165 C 0.92091 0.43666 0.52378 0.0
C1166 C 0.1159 0.60436 0.52698 0.0
C1167 C 0.10452 0.42422 0.53281 0.0
C1168 C 0.11423 0.50859 0.44154 0.0
C1169 C 0.93082 0.52312 0.43213 0.0
C1170 C 0.10624 0.51993 0.62124 0.0
C1171 C 0.92356 0.52584 0.61372 0.0
Eu1172 Eu 1.014 0.44832 0.52832 0.0
O1173 O 0.9858 0.48784 0.49275 0.0
O1174 O 0.04771 0.48472 0.56311 0.0
Eu1175 Eu 0.94972 0.52414 0.52363 0.0
Eu1176 Eu 0.08748 0.51564 0.53025 0.0
O1177 O 0.98299 0.48958 0.55935 0.0
O1178 O 0.05046 0.48345 0.49523 0.0
Eu1179 Eu 1.01562 0.52186 0.59844 0.0
Eu1180 Eu 0.02157 0.51786 0.45478 0.0
O1181 O 0.98715 0.55595 0.5577 0.0
O1182 O 0.98926 0.55497 0.49014 0.0
O1183 O 0.05387 0.54993 0.49431 0.0
O1184 O 0.05177 0.55291 0.56122 0.0
Eu1185 Eu 0.02277 0.5916 0.52468 0.0
O1186 O 1.00486 0.42071 0.58428 0.0
O1187 O 1.00984 0.41581 0.47435 0.0
O1188 O 1.01814 0.62461 0.57822 0.0
O1189 O 0.03163 0.61923 0.46861 0.0
O1190 O 0.92008 0.57877 0.52123 0.0
O1191 O 0.91401 0.47306 0.52275 0.0
O1192 O 0.12327 0.56781 0.52776 0.0
O1193 O 0.11628 0.45957 0.53451 0.0
O1194 O 0.07962 0.51046 0.42697 0.0
O1195 O 0.96658 0.52095 0.42088 0.0
O1196 O 0.07046 0.52078 0.63245 0.0
O1197 O 0.95833 0.52474 0.62759 0.0
O1198 O 0.08132 0.61906 0.52673 0.0
O1199 O 0.9673 0.62532 0.52088 0.0
O1200 O 0.06859 0.4137 0.52976 0.0
O1201 O 0.95517 0.42141 0.52575 0.0
O1202 O 1.01248 0.46231 0.42658 0.0
O1203 O 0.02966 0.5714 0.42209 0.0
O1204 O 1.00807 0.46831 0.63095 0.0
O1205 O 1.01093 0.57839 0.62583 0.0
O1206 O 0.91527 0.52599 0.57719 0.0
O1207 O 0.91984 0.52445 0.46784 0.0
O1208 O 0.1175 0.5182 0.58568 0.0
O1209 O 0.12211 0.51045 0.47795 0.0
C1210 C 0.52388 0.92525 0.60864 0.0
C1211 C 0.51966 0.93557 0.42862 0.0
C1212 C 0.52277 0.10906 0.61904 0.0
C1213 C 0.52362 0.11959 0.43922 0.0
C1214 C 0.43386 0.11617 0.52248 0.0
C1215 C 0.42998 0.93189 0.52359 0.0
C1216 C 0.61316 0.11255 0.5279 0.0
C1217 C 0.61133 0.92974 0.51878 0.0
C1218 C 0.61123 0.03294 0.43245 0.0
C1219 C 0.43291 1.01882 0.43184 0.0
C1220 C 0.61237 0.0263 0.61302 0.0
C1221 C 0.43216 0.02672 0.61424 0.0
Eu1222 Eu 0.52108 0.95296 0.51995 0.0
O1223 O 0.48881 0.99254 0.48866 0.0
O1224 O 0.55517 0.9874 0.55561 0.0
Eu1225 Eu 0.45049 0.02354 0.52311 0.0
Eu1226 Eu 0.59329 0.02139 0.52311 0.0
O1227 O 0.48767 0.9884 0.55538 0.0
O1228 O 0.55532 0.9907 0.48752 0.0
Eu1229 Eu 0.52169 1.01838 0.5953 0.0
Eu1230 Eu 0.52211 0.02635 0.45157 0.0
O1231 O 0.48894 0.05337 0.55869 0.0
O1232 O 0.48873 0.05765 0.49113 0.0
O1233 O 0.5555 0.05614 0.49188 0.0
O1234 O 0.55528 0.05213 0.55837 0.0
Eu1235 Eu 0.52281 0.09154 0.52744 0.0
O1236 O 0.5229 0.91763 0.57211 0.0
O1237 O 0.51744 0.92394 0.46404 0.0
O1238 O 0.52369 0.12071 0.58356 0.0
O1239 O 0.52488 0.12692 0.47572 0.0
O1240 O 0.42059 0.08103 0.51979 0.0
O1241 O 0.41812 0.96753 0.52468 0.0
O1242 O 0.62528 0.07724 0.52467 0.0
O1243 O 0.62407 0.96493 0.52149 0.0
O1244 O 0.57619 0.03147 0.4203 0.0
O1245 O 0.4678 0.02395 0.42004 0.0
O1246 O 0.57704 0.02401 0.62468 0.0
O1247 O 0.46677 0.02027 0.62634 0.0
O1248 O 0.57744 0.12271 0.52981 0.0
O1249 O 0.46969 0.12486 0.52707 0.0
O1250 O 0.57528 0.92027 0.51705 0.0
O1251 O 0.46582 0.92161 0.52148 0.0
O1252 O 0.52332 0.97132 0.41779 0.0
O1253 O 0.52179 0.0851 0.42428 0.0
O1254 O 0.52357 0.95994 0.62326 0.0
O1255 O 0.52102 0.07312 0.62979 0.0
O1256 O 0.42102 0.02892 0.57861 0.0
O1257 O 0.42123 1.01798 0.46738 0.0
O1258 O 0.62453 0.02389 0.57783 0.0
O1259 O 0.62285 0.02882 0.46775 0.0
loop_
_geom_bond_atom_site_label_1
_geom_bond_atom_site_label_2
_geom_bond_distance
_geom_bond_site_symmetry_2
_ccdc_geom_bond_type
C0 C1 1.264 . S
C0 C5 1.479 . S
C0 C10 1.465 . S
C1 C0 1.264 . S
C1 C3 1.339 . S
C1 H28 0.931 . S
C2 C3 1.395 . S
C2 C4 1.320 . S
C3 C1 1.339 . S
C3 C2 1.395 . S
C3 H29 0.929 . S
C4 C2 1.320 . S
C4 C5 1.405 . S
C4 H30 0.930 1_655 S
C5 C0 1.479 . S
C5 C4 1.405 . S
C5 H31 0.931 . S
U6 O7 2.454 . S
U6 O8 2.458 . S
U6 C9 2.984 . S
U6 C10 2.847 . S
U6 C23 2.882 . S
U6 O24 2.441 . S
U6 O25 2.420 . S
U6 O26 2.455 . S
U6 O27 2.449 . S
O7 U6 2.454 . S
O7 C9 1.353 . S
O8 U6 2.458 . S
O8 C9 1.286 . S
C9 U6 2.984 . S
C9 O7 1.353 . S
C9 O8 1.286 . S
C9 C11 1.363 . S
C10 C0 1.465 . S
C10 U6 2.847 . S
C10 O24 1.249 . S
C10 O25 1.202 . S
C11 C9 1.363 . S
C11 C13 1.408 . S
C11 C16 1.342 . S
C12 C13 1.310 . S
C12 C15 1.461 1_655 S
C12 H32 0.933 . S
C13 C11 1.408 . S
C13 C12 1.310 . S
C13 H33 0.930 . S
C14 C15 1.474 . S
C14 C16 1.285 1_455 S
C14 H34 0.929 . S
C15 C12 1.461 1_455 S
C15 C14 1.474 . S
C16 C11 1.342 . S
C16 C14 1.285 1_655 S
C16 H35 0.930 . S
C17 C20 1.424 . S
C17 C22 1.245 . S
C17 C23 1.428 . S
C18 C21 1.260 . S
C18 C22 1.477 . S
C18 H36 0.932 . S
C19 C20 1.384 . S
C19 C21 1.479 . S
C19 H37 0.929 . S
C20 C17 1.424 . S
C20 C19 1.384 . S
C20 H38 0.928 . S
C21 C18 1.260 . S
C21 C19 1.479 . S
C22 C17 1.245 . S
C22 C18 1.477 . S
C22 H39 0.932 . S
C23 U6 2.882 . S
C23 C17 1.428 . S
C23 O26 1.301 . S
C23 O27 1.282 . S
O24 U6 2.441 . S
O24 C10 1.249 . S
O25 U6 2.420 . S
O25 C10 1.202 . S
O26 U6 2.455 . S
O26 C23 1.301 . S
O27 U6 2.449 . S
O27 C23 1.282 . S
H28 C1 0.931 . S
H29 C3 0.929 . S
H30 C4 0.930 1_455 S
H31 C5 0.931 . S
H32 C12 0.933 . S
H33 C13 0.930 . S
H34 C14 0.929 . S
H35 C16 0.930 . S
H36 C18 0.932 . S
H37 C19 0.929 . S
H38 C20 0.928 . S
H39 C22 0.932 . S
C40 C41 1.264 . S
C40 C45 1.479 . S
C40 C50 1.465 . S
C41 C40 1.264 . S
C41 C43 1.339 . S
C41 H68 0.931 . S
C42 C43 1.395 . S
C42 C44 1.320 . S
C43 C41 1.339 . S
C43 C42 1.395 . S
C43 H69 0.929 . S
C44 C42 1.320 . S
C44 C45 1.405 . S
C44 H70 0.927 1_545 S
C45 C40 1.479 . S
C45 C44 1.405 . S
C45 H71 0.931 . S
U46 O47 2.454 . S
U46 O48 2.458 . S
U46 C49 2.984 . S
U46 C50 2.847 . S
U46 C63 2.882 . S
U46 O64 2.441 . S
U46 O65 2.420 . S
U46 O66 2.455 . S
U46 O67 2.449 . S
O47 U46 2.454 . S
O47 C49 1.353 . S
O48 U46 2.458 . S
O48 C49 1.286 . S
C49 U46 2.984 . S
C49 O47 1.353 . S
C49 O48 1.286 . S
C49 C51 1.363 . S
C50 C40 1.465 . S
C50 U46 2.847 . S
C50 O64 1.249 . S
C50 O65 1.202 . S
C51 C49 1.363 . S
C51 C53 1.408 . S
C51 C56 1.342 . S
C52 C53 1.310 . S
C52 C55 1.461 . S
C52 H72 0.932 . S
C53 C51 1.408 . S
C53 C52 1.310 . S
C53 H73 0.930 . S
C54 C55 1.475 . S
C54 C56 1.287 . S
C54 H74 0.928 1_545 S
C55 C52 1.461 . S
C55 C54 1.475 . S
C56 C51 1.342 . S
C56 C54 1.287 . S
C56 H75 0.930 . S
C57 C60 1.424 . S
C57 C62 1.245 . S
C57 C63 1.428 . S
C58 C61 1.260 . S
C58 C62 1.477 . S
C58 H76 0.932 . S
C59 C60 1.384 . S
C59 C61 1.479 . S
C59 H77 0.929 . S
C60 C57 1.424 . S
C60 C59 1.384 . S
C60 H78 0.928 . S
C61 C58 1.260 . S
C61 C59 1.479 . S
C62 C57 1.245 . S
C62 C58 1.477 . S
C62 H79 0.932 . S
C63 U46 2.882 . S
C63 C57 1.428 . S
C63 O66 1.301 . S
C63 O67 1.282 . S
O64 U46 2.441 . S
O64 C50 1.249 . S
O65 U46 2.420 . S
O65 C50 1.202 . S
O66 U46 2.455 . S
O66 C63 1.301 . S
O67 U46 2.449 . S
O67 C63 1.282 . S
H68 C41 0.931 . S
H69 C43 0.929 . S
H70 C44 0.927 1_565 S
H71 C45 0.931 . S
H72 C52 0.932 . S
H73 C53 0.930 . S
H74 C54 0.928 1_565 S
H75 C56 0.930 . S
H76 C58 0.932 . S
H77 C59 0.929 . S
H78 C60 0.928 . S
H79 C62 0.932 . S
C80 C81 1.264 . S
C80 C85 1.479 . S
C80 C90 1.465 . S
C81 C80 1.264 . S
C81 C83 1.339 . S
C81 H108 0.931 . S
C82 C83 1.395 . S
C82 C84 1.320 . S
C83 C81 1.339 . S
C83 C82 1.395 . S
C83 H109 0.929 . S
C84 C82 1.320 . S
C84 C85 1.405 . S
C84 H110 0.930 1_655 S
C85 C80 1.479 . S
C85 C84 1.405 . S
C85 H111 0.931 . S
U86 O87 2.454 . S
U86 O88 2.458 . S
U86 C89 2.984 . S
U86 C90 2.847 . S
U86 C103 2.882 . S
U86 O104 2.441 . S
U86 O105 2.420 . S
U86 O106 2.455 . S
U86 O107 2.449 . S
O87 U86 2.454 . S
O87 C89 1.353 . S
O88 U86 2.458 . S
O88 C89 1.286 . S
C89 U86 2.984 . S
C89 O87 1.353 . S
C89 O88 1.286 . S
C89 C91 1.363 . S
C90 C80 1.465 . S
C90 U86 2.847 . S
C90 O104 1.249 . S
C90 O105 1.202 . S
C91 C89 1.363 . S
C91 C93 1.408 . S
C91 C96 1.342 . S
C92 C93 1.310 . S
C92 C95 1.460 1_655 S
C92 H112 0.932 . S
C93 C91 1.408 . S
C93 C92 1.310 . S
C93 H113 0.930 . S
C94 C95 1.474 . S
C94 C96 1.285 1_455 S
C94 H114 0.929 . S
C95 C92 1.460 1_455 S
C95 C94 1.474 . S
C96 C91 1.342 . S
C96 C94 1.285 1_655 S
C96 H115 0.931 . S
C97 C100 1.424 . S
C97 C102 1.245 . S
C97 C103 1.428 . S
C98 C101 1.260 . S
C98 C102 1.477 . S
C98 H116 0.932 . S
C99 C100 1.384 . S
C99 C101 1.479 . S
C99 H117 0.929 . S
C100 C97 1.424 . S
C100 C99 1.384 . S
C100 H118 0.928 . S
C101 C98 1.260 . S
C101 C99 1.479 . S
C102 C97 1.245 . S
C102 C98 1.477 . S
C102 H119 0.932 . S
C103 U86 2.882 . S
C103 C97 1.428 . S
C103 O106 1.301 . S
C103 O107 1.282 . S
O104 U86 2.441 . S
O104 C90 1.249 . S
O105 U86 2.420 . S
O105 C90 1.202 . S
O106 U86 2.455 . S
O106 C103 1.301 . S
O107 U86 2.449 . S
O107 C103 1.282 . S
H108 C81 0.931 . S
H109 C83 0.929 . S
H110 C84 0.930 1_455 S
H111 C85 0.931 . S
H112 C92 0.932 . S
H113 C93 0.930 . S
H114 C94 0.929 . S
H115 C96 0.931 . S
H116 C98 0.932 . S
H117 C99 0.929 . S
H118 C100 0.928 . S
H119 C102 0.932 . S
C120 C121 1.264 . S
C120 C125 1.479 . S
C120 C130 1.465 . S
C121 C120 1.264 . S
C121 C123 1.339 . S
C121 H148 0.931 . S
C122 C123 1.395 . S
C122 C124 1.320 . S
C123 C121 1.339 . S
C123 C122 1.395 . S
C123 H149 0.929 . S
C124 C122 1.320 . S
C124 C125 1.405 . S
C124 H150 0.930 1_565 S
C125 C120 1.479 . S
C125 C124 1.405 . S
C125 H151 0.931 . S
U126 O127 2.454 . S
U126 O128 2.458 . S
U126 C129 2.984 . S
U126 C130 2.847 . S
U126 C143 2.882 . S
U126 O144 2.441 . S
U126 O145 2.420 . S
U126 O146 2.455 . S
U126 O147 2.449 . S
O127 U126 2.454 . S
O127 C129 1.353 . S
O128 U126 2.458 . S
O128 C129 1.286 . S
C129 U126 2.984 . S
C129 O127 1.353 . S
C129 O128 1.286 . S
C129 C131 1.363 . S
C130 C120 1.465 . S
C130 U126 2.847 . S
C130 O144 1.249 . S
C130 O145 1.202 . S
C131 C129 1.363 . S
C131 C133 1.408 . S
C131 C136 1.342 . S
C132 C133 1.310 . S
C132 C135 1.460 1_565 S
C132 H152 0.932 . S
C133 C131 1.408 . S
C133 C132 1.310 . S
C133 H153 0.930 . S
C134 C135 1.474 . S
C134 C136 1.285 1_545 S
C134 H154 0.929 . S
C135 C132 1.460 1_545 S
C135 C134 1.474 . S
C136 C131 1.342 . S
C136 C134 1.285 1_565 S
C136 H155 0.931 . S
C137 C140 1.424 . S
C137 C142 1.245 . S
C137 C143 1.428 . S
C138 C141 1.260 . S
C138 C142 1.477 . S
C138 H156 0.932 . S
C139 C140 1.384 . S
C139 C141 1.479 . S
C139 H157 0.929 . S
C140 C137 1.424 . S
C140 C139 1.384 . S
C140 H158 0.928 . S
C141 C138 1.260 . S
C141 C139 1.479 . S
C142 C137 1.245 . S
C142 C138 1.477 . S
C142 H159 0.932 . S
C143 U126 2.882 . S
C143 C137 1.428 . S
C143 O146 1.301 . S
C143 O147 1.282 . S
O144 U126 2.441 . S
O144 C130 1.249 . S
O145 U126 2.420 . S
O145 C130 1.202 . S
O146 U126 2.455 . S
O146 C143 1.301 . S
O147 U126 2.449 . S
O147 C143 1.282 . S
H148 C121 0.931 . S
H149 C123 0.929 . S
H150 C124 0.930 1_545 S
H151 C125 0.931 . S
H152 C132 0.932 . S
H153 C133 0.930 . S
H154 C134 0.929 . S
H155 C136 0.931 . S
H156 C138 0.932 . S
H157 C139 0.929 . S
H158 C140 0.928 . S
H159 C142 0.932 . S
C160 C161 1.264 . S
C160 C165 1.479 . S
C160 C170 1.465 . S
C161 C160 1.264 . S
C161 C163 1.339 . S
C161 H188 0.931 . S
C162 C163 1.395 . S
C162 C164 1.320 . S
C163 C161 1.339 . S
C163 C162 1.395 . S
C163 H189 0.929 . S
C164 C162 1.320 . S
C164 C165 1.405 . S
C164 H190 0.930 1_655 S
C165 C160 1.479 . S
C165 C164 1.405 . S
C165 H191 0.931 . S
U166 O167 2.454 . S
U166 O168 2.458 . S
U166 C169 2.984 . S
U166 C170 2.847 . S
U166 C183 2.882 . S
U166 O184 2.441 . S
U166 O185 2.420 . S
U166 O186 2.455 . S
U166 O187 2.449 . S
O167 U166 2.454 . S
O167 C169 1.353 . S
O168 U166 2.458 . S
O168 C169 1.286 . S
C169 U166 2.984 . S
C169 O167 1.353 . S
C169 O168 1.286 . S
C169 C171 1.363 . S
C170 C160 1.465 . S
C170 U166 2.847 . S
C170 O184 1.249 . S
C170 O185 1.202 . S
C171 C169 1.363 . S
C171 C173 1.408 . S
C171 C176 1.347 . S
C172 C173 1.310 . S
C172 C175 1.461 1_655 S
C172 H192 0.933 . S
C173 C171 1.408 . S
C173 C172 1.310 . S
C173 H193 0.930 . S
C174 C175 1.474 . S
C174 C176 1.283 1_455 S
C174 H194 0.929 . S
C175 C172 1.461 1_455 S
C175 C174 1.474 . S
C176 C171 1.347 . S
C176 C174 1.283 1_655 S
C176 H195 0.929 1_655 S
C177 C180 1.424 . S
C177 C182 1.245 . S
C177 C183 1.428 . S
C178 C181 1.260 . S
C178 C182 1.477 . S
C178 H196 0.932 . S
C179 C180 1.384 . S
C179 C181 1.479 . S
C179 H197 0.929 . S
C180 C177 1.424 . S
C180 C179 1.384 . S
C180 H198 0.928 . S
C181 C178 1.260 . S
C181 C179 1.479 . S
C182 C177 1.245 . S
C182 C178 1.477 . S
C182 H199 0.932 . S
C183 U166 2.882 . S
C183 C177 1.428 . S
C183 O186 1.301 . S
C183 O187 1.282 . S
O184 U166 2.441 . S
O184 C170 1.249 . S
O185 U166 2.420 . S
O185 C170 1.202 . S
O186 U166 2.455 . S
O186 C183 1.301 . S
O187 U166 2.449 . S
O187 C183 1.282 . S
H188 C161 0.931 . S
H189 C163 0.929 . S
H190 C164 0.930 1_455 S
H191 C165 0.931 . S
H192 C172 0.933 . S
H193 C173 0.930 . S
H194 C174 0.929 . S
H195 C176 0.929 1_455 S
H196 C178 0.932 . S
H197 C179 0.929 . S
H198 C180 0.928 . S
H199 C182 0.932 . S
C200 C201 1.264 . S
C200 C205 1.479 . S
C200 C210 1.465 . S
C201 C200 1.264 . S
C201 C203 1.339 . S
C201 H228 0.931 . S
C202 C203 1.395 . S
C202 C204 1.320 . S
C203 C201 1.339 . S
C203 C202 1.395 . S
C203 H229 0.929 . S
C204 C202 1.320 . S
C204 C205 1.405 . S
C204 H230 0.928 1_545 S
C205 C200 1.479 . S
C205 C204 1.405 . S
C205 H231 0.931 . S
U206 O207 2.454 . S
U206 O208 2.458 . S
U206 C209 2.984 . S
U206 C210 2.847 . S
U206 C223 2.882 . S
U206 O224 2.441 . S
U206 O225 2.420 . S
U206 O226 2.455 . S
U206 O227 2.449 . S
O207 U206 2.454 . S
O207 C209 1.353 . S
O208 U206 2.458 . S
O208 C209 1.286 . S
C209 U206 2.984 . S
C209 O207 1.353 . S
C209 O208 1.286 . S
C209 C211 1.363 . S
C210 C200 1.465 . S
C210 U206 2.847 . S
C210 O224 1.249 . S
C210 O225 1.202 . S
C211 C209 1.363 . S
C211 C213 1.408 . S
C211 C216 1.342 . S
C212 C213 1.310 . S
C212 C215 1.461 . S
C212 H232 0.932 . S
C213 C211 1.408 . S
C213 C212 1.310 . S
C213 H233 0.930 . S
C214 C215 1.475 . S
C214 C216 1.288 . S
C214 H234 0.927 1_545 S
C215 C212 1.461 . S
C215 C214 1.475 . S
C216 C211 1.342 . S
C216 C214 1.288 . S
C216 H235 0.930 . S
C217 C220 1.424 . S
C217 C222 1.245 . S
C217 C223 1.428 . S
C218 C221 1.260 . S
C218 C222 1.477 . S
C218 H236 0.932 . S
C219 C220 1.384 . S
C219 C221 1.479 . S
C219 H237 0.929 . S
C220 C217 1.424 . S
C220 C219 1.384 . S
C220 H238 0.928 . S
C221 C218 1.260 . S
C221 C219 1.479 . S
C222 C217 1.245 . S
C222 C218 1.477 . S
C222 H239 0.932 . S
C223 U206 2.882 . S
C223 C217 1.428 . S
C223 O226 1.301 . S
C223 O227 1.282 . S
O224 U206 2.441 . S
O224 C210 1.249 . S
O225 U206 2.420 . S
O225 C210 1.202 . S
O226 U206 2.455 . S
O226 C223 1.301 . S
O227 U206 2.449 . S
O227 C223 1.282 . S
H228 C201 0.931 . S
H229 C203 0.929 . S
H230 C204 0.928 1_565 S
H231 C205 0.931 . S
H232 C212 0.932 . S
H233 C213 0.930 . S
H234 C214 0.927 1_565 S
H235 C216 0.930 . S
H236 C218 0.932 . S
H237 C219 0.929 . S
H238 C220 0.928 . S
H239 C222 0.932 . S
C240 C241 1.264 . S
C240 C245 1.479 . S
C240 C250 1.465 . S
C241 C240 1.264 . S
C241 C243 1.339 . S
C241 H268 0.931 . S
C242 C243 1.395 . S
C242 C244 1.320 . S
C243 C241 1.339 . S
C243 C242 1.395 . S
C243 H269 0.929 . S
C244 C242 1.320 . S
C244 C245 1.405 . S
C244 H270 0.930 1_655 S
C245 C240 1.479 . S
C245 C244 1.405 . S
C245 H271 0.931 . S
U246 O247 2.454 . S
U246 O248 2.458 . S
U246 C249 2.984 . S
U246 C250 2.847 . S
U246 C263 2.882 . S
U246 O264 2.441 . S
U246 O265 2.420 . S
U246 O266 2.455 . S
U246 O267 2.449 . S
O247 U246 2.454 . S
O247 C249 1.353 . S
O248 U246 2.458 . S
O248 C249 1.286 . S
C249 U246 2.984 . S
C249 O247 1.353 . S
C249 O248 1.286 . S
C249 C251 1.363 . S
C250 C240 1.465 . S
C250 U246 2.847 . S
C250 O264 1.249 . S
C250 O265 1.202 . S
C251 C249 1.363 . S
C251 C253 1.408 . S
C251 C256 1.342 . S
C252 C253 1.310 . S
C252 C255 1.459 1_655 S
C252 H272 0.933 . S
C253 C251 1.408 . S
C253 C252 1.310 . S
C253 H273 0.930 . S
C254 C255 1.475 . S
C254 C256 1.285 1_455 S
C254 H274 0.929 . S
C255 C252 1.459 1_455 S
C255 C254 1.475 . S
C256 C251 1.342 . S
C256 C254 1.285 1_655 S
C256 H275 0.930 . S
C257 C260 1.424 . S
C257 C262 1.245 . S
C257 C263 1.428 . S
C258 C261 1.260 . S
C258 C262 1.477 . S
C258 H276 0.932 . S
C259 C260 1.384 . S
C259 C261 1.479 . S
C259 H277 0.929 . S
C260 C257 1.424 . S
C260 C259 1.384 . S
C260 H278 0.928 . S
C261 C258 1.260 . S
C261 C259 1.479 . S
C262 C257 1.245 . S
C262 C258 1.477 . S
C262 H279 0.932 . S
C263 U246 2.882 . S
C263 C257 1.428 . S
C263 O266 1.301 . S
C263 O267 1.282 . S
O264 U246 2.441 . S
O264 C250 1.249 . S
O265 U246 2.420 . S
O265 C250 1.202 . S
O266 U246 2.455 . S
O266 C263 1.301 . S
O267 U246 2.449 . S
O267 C263 1.282 . S
H268 C241 0.931 . S
H269 C243 0.929 . S
H270 C244 0.930 1_455 S
H271 C245 0.931 . S
H272 C252 0.933 . S
H273 C253 0.930 . S
H274 C254 0.929 . S
H275 C256 0.930 . S
H276 C258 0.932 . S
H277 C259 0.929 . S
H278 C260 0.928 . S
H279 C262 0.932 . S
C280 C281 1.264 . S
C280 C285 1.479 . S
C280 C290 1.465 . S
C281 C280 1.264 . S
C281 C283 1.339 . S
C281 H308 0.931 . S
C282 C283 1.395 . S
C282 C284 1.320 . S
C283 C281 1.339 . S
C283 C282 1.395 . S
C283 H309 0.929 . S
C284 C282 1.320 . S
C284 C285 1.405 . S
C284 H310 0.929 . S
C285 C280 1.479 . S
C285 C284 1.405 . S
C285 H311 0.931 . S
U286 O287 2.454 . S
U286 O288 2.458 . S
U286 C289 2.984 . S
U286 C290 2.847 . S
U286 C303 2.882 . S
U286 O304 2.441 . S
U286 O305 2.420 . S
U286 O306 2.455 . S
U286 O307 2.449 . S
O287 U286 2.454 . S
O287 C289 1.353 . S
O288 U286 2.458 . S
O288 C289 1.286 . S
C289 U286 2.984 . S
C289 O287 1.353 . S
C289 O288 1.286 . S
C289 C291 1.363 . S
C290 C280 1.465 . S
C290 U286 2.847 . S
C290 O304 1.249 . S
C290 O305 1.202 . S
C291 C289 1.363 . S
C291 C293 1.408 . S
C291 C296 1.342 . S
C292 C293 1.310 . S
C292 C295 1.461 . S
C292 H312 0.932 . S
C293 C291 1.408 . S
C293 C292 1.310 . S
C293 H313 0.930 . S
C294 C295 1.475 . S
C294 C296 1.288 . S
C294 H314 0.927 1_545 S
C295 C292 1.461 . S
C295 C294 1.475 . S
C296 C291 1.342 . S
C296 C294 1.288 . S
C296 H315 0.930 . S
C297 C300 1.424 . S
C297 C302 1.245 . S
C297 C303 1.428 . S
C298 C301 1.260 . S
C298 C302 1.477 . S
C298 H316 0.932 . S
C299 C300 1.384 . S
C299 C301 1.479 . S
C299 H317 0.929 . S
C300 C297 1.424 . S
C300 C299 1.384 . S
C300 H318 0.928 . S
C301 C298 1.260 . S
C301 C299 1.479 . S
C302 C297 1.245 . S
C302 C298 1.477 . S
C302 H319 0.932 . S
C303 U286 2.882 . S
C303 C297 1.428 . S
C303 O306 1.301 . S
C303 O307 1.282 . S
O304 U286 2.441 . S
O304 C290 1.249 . S
O305 U286 2.420 . S
O305 C290 1.202 . S
O306 U286 2.455 . S
O306 C303 1.301 . S
O307 U286 2.449 . S
O307 C303 1.282 . S
H308 C281 0.931 . S
H309 C283 0.929 . S
H310 C284 0.929 . S
H311 C285 0.931 . S
H312 C292 0.932 . S
H313 C293 0.930 . S
H314 C294 0.927 1_565 S
H315 C296 0.930 . S
H316 C298 0.932 . S
H317 C299 0.929 . S
H318 C300 0.928 . S
H319 C302 0.932 . S
C320 C321 1.264 . S
C320 C325 1.479 . S
C320 C330 1.465 . S
C321 C320 1.264 . S
C321 C323 1.339 . S
C321 H348 0.931 . S
C322 C323 1.395 . S
C322 C324 1.320 . S
C323 C321 1.339 . S
C323 C322 1.395 . S
C323 H349 0.929 . S
C324 C322 1.320 . S
C324 C325 1.405 . S
C324 H350 0.929 1_554 S
C325 C320 1.479 . S
C325 C324 1.405 . S
C325 H351 0.931 . S
U326 O327 2.454 . S
U326 O328 2.458 . S
U326 C329 2.984 . S
U326 C330 2.847 . S
U326 C343 2.882 . S
U326 O344 2.441 . S
U326 O345 2.420 . S
U326 O346 2.455 . S
U326 O347 2.449 . S
O327 U326 2.454 . S
O327 C329 1.353 . S
O328 U326 2.458 . S
O328 C329 1.286 . S
C329 U326 2.984 . S
C329 O327 1.353 . S
C329 O328 1.286 . S
C329 C331 1.363 . S
C330 C320 1.465 . S
C330 U326 2.847 . S
C330 O344 1.249 . S
C330 O345 1.202 . S
C331 C329 1.363 . S
C331 C333 1.408 . S
C331 C336 1.342 . S
C332 C333 1.310 . S
C332 C335 1.461 . S
C332 H352 0.932 . S
C333 C331 1.408 . S
C333 C332 1.310 . S
C333 H353 0.930 . S
C334 C335 1.474 . S
C334 C336 1.287 . S
C334 H354 0.928 1_554 S
C335 C332 1.461 . S
C335 C334 1.474 . S
C336 C331 1.342 . S
C336 C334 1.287 . S
C336 H355 0.930 . S
C337 C340 1.424 . S
C337 C342 1.245 . S
C337 C343 1.428 . S
C338 C341 1.260 . S
C338 C342 1.477 . S
C338 H356 0.932 . S
C339 C340 1.384 . S
C339 C341 1.479 . S
C339 H357 0.929 . S
C340 C337 1.424 . S
C340 C339 1.384 . S
C340 H358 0.928 . S
C341 C338 1.260 . S
C341 C339 1.479 . S
C342 C337 1.245 . S
C342 C338 1.477 . S
C342 H359 0.932 . S
C343 U326 2.882 . S
C343 C337 1.428 . S
C343 O346 1.301 . S
C343 O347 1.282 . S
O344 U326 2.441 . S
O344 C330 1.249 . S
O345 U326 2.420 . S
O345 C330 1.202 . S
O346 U326 2.455 . S
O346 C343 1.301 . S
O347 U326 2.449 . S
O347 C343 1.282 . S
H348 C321 0.931 . S
H349 C323 0.929 . S
H350 C324 0.929 1_556 S
H351 C325 0.931 . S
H352 C332 0.932 . S
H353 C333 0.930 . S
H354 C334 0.928 1_556 S
H355 C336 0.930 . S
H356 C338 0.932 . S
H357 C339 0.929 . S
H358 C340 0.928 . S
H359 C342 0.932 . S
C360 C361 1.264 . S
C360 C365 1.479 . S
C360 C370 1.465 . S
C361 C360 1.264 . S
C361 C363 1.339 . S
C361 H388 0.931 . S
C362 C363 1.395 . S
C362 C364 1.320 . S
C363 C361 1.339 . S
C363 C362 1.395 . S
C363 H389 0.929 . S
C364 C362 1.320 . S
C364 C365 1.405 . S
C364 H390 0.924 1_554 S
C365 C360 1.479 . S
C365 C364 1.405 . S
C365 H391 0.931 . S
U366 O367 2.454 . S
U366 O368 2.458 . S
U366 C369 2.984 . S
U366 C370 2.847 . S
U366 C383 2.882 . S
U366 O384 2.441 . S
U366 O385 2.420 . S
U366 O386 2.455 . S
U366 O387 2.449 . S
O367 U366 2.454 . S
O367 C369 1.353 . S
O368 U366 2.458 . S
O368 C369 1.286 . S
C369 U366 2.984 . S
C369 O367 1.353 . S
C369 O368 1.286 . S
C369 C371 1.363 . S
C370 C360 1.465 . S
C370 U366 2.847 . S
C370 O384 1.249 . S
C370 O385 1.202 . S
C371 C369 1.363 . S
C371 C373 1.408 . S
C371 C376 1.342 . S
C372 C373 1.310 . S
C372 C375 1.461 . S
C372 H392 0.932 . S
C373 C371 1.408 . S
C373 C372 1.310 . S
C373 H393 0.930 . S
C374 C375 1.474 . S
C374 C376 1.286 . S
C374 H394 0.929 1_554 S
C375 C372 1.461 . S
C375 C374 1.474 . S
C376 C371 1.342 . S
C376 C374 1.286 . S
C376 H395 0.930 . S
C377 C380 1.424 . S
C377 C382 1.245 . S
C377 C383 1.428 . S
C378 C381 1.260 . S
C378 C382 1.477 . S
C378 H396 0.932 . S
C379 C380 1.384 . S
C379 C381 1.479 . S
C379 H397 0.929 . S
C380 C377 1.424 . S
C380 C379 1.384 . S
C380 H398 0.928 . S
C381 C378 1.260 . S
C381 C379 1.479 . S
C382 C377 1.245 . S
C382 C378 1.477 . S
C382 H399 0.932 . S
C383 U366 2.882 . S
C383 C377 1.428 . S
C383 O386 1.301 . S
C383 O387 1.282 . S
O384 U366 2.441 . S
O384 C370 1.249 . S
O385 U366 2.420 . S
O385 C370 1.202 . S
O386 U366 2.455 . S
O386 C383 1.301 . S
O387 U366 2.449 . S
O387 C383 1.282 . S
H388 C361 0.931 . S
H389 C363 0.929 . S
H390 C364 0.924 1_556 S
H391 C365 0.931 . S
H392 C372 0.932 . S
H393 C373 0.930 . S
H394 C374 0.929 1_556 S
H395 C376 0.930 . S
H396 C378 0.932 . S
H397 C379 0.929 . S
H398 C380 0.928 . S
H399 C382 0.932 . S
C400 C401 1.264 . S
C400 C405 1.479 . S
C400 C410 1.465 . S
C401 C400 1.264 . S
C401 C403 1.339 . S
C401 H428 0.931 . S
C402 C403 1.395 . S
C402 C404 1.320 . S
C403 C401 1.339 . S
C403 C402 1.395 . S
C403 H429 0.929 . S
C404 C402 1.320 . S
C404 C405 1.405 . S
C404 H430 0.926 1_554 S
C405 C400 1.479 . S
C405 C404 1.405 . S
C405 H431 0.931 . S
U406 O407 2.454 . S
U406 O408 2.458 . S
U406 C409 2.984 . S
U406 C410 2.847 . S
U406 C423 2.882 . S
U406 O424 2.441 . S
U406 O425 2.420 . S
U406 O426 2.455 . S
U406 O427 2.449 . S
O407 U406 2.454 . S
O407 C409 1.353 . S
O408 U406 2.458 . S
O408 C409 1.286 . S
C409 U406 2.984 . S
C409 O407 1.353 . S
C409 O408 1.286 . S
C409 C411 1.363 . S
C410 C400 1.465 . S
C410 U406 2.847 . S
C410 O424 1.249 . S
C410 O425 1.202 . S
C411 C409 1.363 . S
C411 C413 1.408 . S
C411 C416 1.342 . S
C412 C413 1.310 . S
C412 C415 1.461 . S
C412 H432 0.932 . S
C413 C411 1.408 . S
C413 C412 1.310 . S
C413 H433 0.930 . S
C414 C415 1.474 . S
C414 C416 1.287 . S
C414 H434 0.928 1_554 S
C415 C412 1.461 . S
C415 C414 1.474 . S
C416 C411 1.342 . S
C416 C414 1.287 . S
C416 H435 0.930 . S
C417 C420 1.424 . S
C417 C422 1.245 . S
C417 C423 1.428 . S
C418 C421 1.260 . S
C418 C422 1.477 . S
C418 H436 0.932 . S
C419 C420 1.384 . S
C419 C421 1.479 . S
C419 H437 0.929 . S
C420 C417 1.424 . S
C420 C419 1.384 . S
C420 H438 0.928 . S
C421 C418 1.260 . S
C421 C419 1.479 . S
C422 C417 1.245 . S
C422 C418 1.477 . S
C422 H439 0.932 . S
C423 U406 2.882 . S
C423 C417 1.428 . S
C423 O426 1.301 . S
C423 O427 1.282 . S
O424 U406 2.441 . S
O424 C410 1.249 . S
O425 U406 2.420 . S
O425 C410 1.202 . S
O426 U406 2.455 . S
O426 C423 1.301 . S
O427 U406 2.449 . S
O427 C423 1.282 . S
H428 C401 0.931 . S
H429 C403 0.929 . S
H430 C404 0.926 1_556 S
H431 C405 0.931 . S
H432 C412 0.932 . S
H433 C413 0.930 . S
H434 C414 0.928 1_556 S
H435 C416 0.930 . S
H436 C418 0.932 . S
H437 C419 0.929 . S
H438 C420 0.928 . S
H439 C422 0.932 . S
C440 C441 1.264 . S
C440 C445 1.479 . S
C440 C450 1.465 . S
C441 C440 1.264 . S
C441 C443 1.339 . S
C441 H468 0.931 . S
C442 C443 1.395 . S
C442 C444 1.320 . S
C443 C441 1.339 . S
C443 C442 1.395 . S
C443 H469 0.929 . S
C444 C442 1.320 . S
C444 C445 1.405 . S
C444 H470 0.924 1_554 S
C445 C440 1.479 . S
C445 C444 1.405 . S
C445 H471 0.931 . S
U446 O447 2.454 . S
U446 O448 2.458 . S
U446 C449 2.984 . S
U446 C450 2.847 . S
U446 C463 2.882 . S
U446 O464 2.441 . S
U446 O465 2.420 . S
U446 O466 2.455 . S
U446 O467 2.449 . S
O447 U446 2.454 . S
O447 C449 1.353 . S
O448 U446 2.458 . S
O448 C449 1.286 . S
C449 U446 2.984 . S
C449 O447 1.353 . S
C449 O448 1.286 . S
C449 C451 1.363 . S
C450 C440 1.465 . S
C450 U446 2.847 . S
C450 O464 1.249 . S
C450 O465 1.202 . S
C451 C449 1.363 . S
C451 C453 1.408 . S
C451 C456 1.342 . S
C452 C453 1.310 . S
C452 C455 1.462 . S
C452 H472 0.932 . S
C453 C451 1.408 . S
C453 C452 1.310 . S
C453 H473 0.930 . S
C454 C455 1.474 1_556 S
C454 C456 1.285 1_556 S
C454 H474 0.930 . S
C455 C452 1.462 . S
C455 C454 1.474 1_554 S
C456 C451 1.342 . S
C456 C454 1.285 1_554 S
C456 H475 0.930 . S
C457 C460 1.424 . S
C457 C462 1.245 . S
C457 C463 1.428 . S
C458 C461 1.260 . S
C458 C462 1.477 . S
C458 H476 0.932 . S
C459 C460 1.384 . S
C459 C461 1.479 . S
C459 H477 0.929 . S
C460 C457 1.424 . S
C460 C459 1.384 . S
C460 H478 0.928 . S
C461 C458 1.260 . S
C461 C459 1.479 . S
C462 C457 1.245 . S
C462 C458 1.477 . S
C462 H479 0.932 . S
C463 U446 2.882 . S
C463 C457 1.428 . S
C463 O466 1.301 . S
C463 O467 1.282 . S
O464 U446 2.441 . S
O464 C450 1.249 . S
O465 U446 2.420 . S
O465 C450 1.202 . S
O466 U446 2.455 . S
O466 C463 1.301 . S
O467 U446 2.449 . S
O467 C463 1.282 . S
H468 C441 0.931 . S
H469 C443 0.929 . S
H470 C444 0.924 1_556 S
H471 C445 0.931 . S
H472 C452 0.932 . S
H473 C453 0.930 . S
H474 C454 0.930 . S
H475 C456 0.930 . S
H476 C458 0.932 . S
H477 C459 0.929 . S
H478 C460 0.928 . S
H479 C462 0.932 . S
C480 C481 1.264 . S
C480 C485 1.479 . S
C480 C490 1.465 . S
C481 C480 1.264 . S
C481 C483 1.339 . S
C481 H508 0.931 . S
C482 C483 1.395 . S
C482 C484 1.320 . S
C483 C481 1.339 . S
C483 C482 1.395 . S
C483 H509 0.929 . S
C484 C482 1.320 . S
C484 C485 1.405 . S
C484 H510 0.930 . S
C485 C480 1.479 . S
C485 C484 1.405 . S
C485 H511 0.931 . S
U486 O487 2.454 . S
U486 O488 2.458 . S
U486 C489 2.984 . S
U486 C490 2.847 . S
U486 C503 2.882 . S
U486 O504 2.441 . S
U486 O505 2.420 . S
U486 O506 2.455 . S
U486 O507 2.449 . S
O487 U486 2.454 . S
O487 C489 1.353 . S
O488 U486 2.458 . S
O488 C489 1.286 . S
C489 U486 2.984 . S
C489 O487 1.353 . S
C489 O488 1.286 . S
C489 C491 1.363 . S
C490 C480 1.465 . S
C490 U486 2.847 . S
C490 O504 1.249 . S
C490 O505 1.202 . S
C491 C489 1.363 . S
C491 C493 1.408 . S
C491 C496 1.342 . S
C492 C493 1.310 . S
C492 C495 1.461 . S
C492 H512 0.932 . S
C493 C491 1.408 . S
C493 C492 1.310 . S
C493 H513 0.930 . S
C494 C495 1.474 . S
C494 C496 1.285 . S
C494 H514 0.929 . S
C495 C492 1.461 . S
C495 C494 1.474 . S
C496 C491 1.342 . S
C496 C494 1.285 . S
C496 H515 0.930 . S
C497 C500 1.424 . S
C497 C502 1.245 . S
C497 C503 1.428 . S
C498 C501 1.260 . S
C498 C502 1.477 . S
C498 H516 0.932 . S
C499 C500 1.384 . S
C499 C501 1.479 . S
C499 H517 0.929 . S
C500 C497 1.424 . S
C500 C499 1.384 . S
C500 H518 0.928 . S
C501 C498 1.260 . S
C501 C499 1.479 . S
C502 C497 1.245 . S
C502 C498 1.477 . S
C502 H519 0.932 . S
C503 U486 2.882 . S
C503 C497 1.428 . S
C503 O506 1.301 . S
C503 O507 1.282 . S
O504 U486 2.441 . S
O504 C490 1.249 . S
O505 U486 2.420 . S
O505 C490 1.202 . S
O506 U486 2.455 . S
O506 C503 1.301 . S
O507 U486 2.449 . S
O507 C503 1.282 . S
H508 C481 0.931 . S
H509 C483 0.929 . S
H510 C484 0.930 . S
H511 C485 0.931 . S
H512 C492 0.932 . S
H513 C493 0.930 . S
H514 C494 0.929 . S
H515 C496 0.930 . S
H516 C498 0.932 . S
H517 C499 0.929 . S
H518 C500 0.928 . S
H519 C502 0.932 . S
C520 C521 1.264 . S
C520 C525 1.479 . S
C520 C530 1.465 . S
C521 C520 1.264 . S
C521 C523 1.339 . S
C521 H548 0.931 . S
C522 C523 1.395 . S
C522 C524 1.320 . S
C523 C521 1.339 . S
C523 C522 1.395 . S
C523 H549 0.929 . S
C524 C522 1.320 . S
C524 C525 1.405 . S
C524 H550 0.930 . S
C525 C520 1.479 . S
C525 C524 1.405 . S
C525 H551 0.931 . S
U526 O527 2.454 . S
U526 O528 2.458 . S
U526 C529 2.984 . S
U526 C530 2.847 . S
U526 C543 2.882 . S
U526 O544 2.441 . S
U526 O545 2.420 . S
U526 O546 2.455 . S
U526 O547 2.449 . S
O527 U526 2.454 . S
O527 C529 1.353 . S
O528 U526 2.458 . S
O528 C529 1.286 . S
C529 U526 2.984 . S
C529 O527 1.353 . S
C529 O528 1.286 . S
C529 C531 1.363 . S
C530 C520 1.465 . S
C530 U526 2.847 . S
C530 O544 1.249 . S
C530 O545 1.202 . S
C531 C529 1.363 . S
C531 C533 1.408 . S
C531 C536 1.342 . S
C532 C533 1.310 . S
C532 C535 1.461 . S
C532 H552 0.932 . S
C533 C531 1.408 . S
C533 C532 1.310 . S
C533 H553 0.930 . S
C534 C535 1.474 . S
C534 C536 1.285 . S
C534 H554 0.929 . S
C535 C532 1.461 . S
C535 C534 1.474 . S
C536 C531 1.342 . S
C536 C534 1.285 . S
C536 H555 0.930 . S
C537 C540 1.424 . S
C537 C542 1.245 . S
C537 C543 1.428 . S
C538 C541 1.260 . S
C538 C542 1.477 . S
C538 H556 0.932 . S
C539 C540 1.384 . S
C539 C541 1.479 . S
C539 H557 0.929 . S
C540 C537 1.424 . S
C540 C539 1.384 . S
C540 H558 0.928 . S
C541 C538 1.260 . S
C541 C539 1.479 . S
C542 C537 1.245 . S
C542 C538 1.477 . S
C542 H559 0.932 . S
C543 U526 2.882 . S
C543 C537 1.428 . S
C543 O546 1.301 . S
C543 O547 1.282 . S
O544 U526 2.441 . S
O544 C530 1.249 . S
O545 U526 2.420 . S
O545 C530 1.202 . S
O546 U526 2.455 . S
O546 C543 1.301 . S
O547 U526 2.449 . S
O547 C543 1.282 . S
H548 C521 0.931 . S
H549 C523 0.929 . S
H550 C524 0.930 . S
H551 C525 0.931 . S
H552 C532 0.932 . S
H553 C533 0.930 . S
H554 C534 0.929 . S
H555 C536 0.930 . S
H556 C538 0.932 . S
H557 C539 0.929 . S
H558 C540 0.928 . S
H559 C542 0.932 . S
C560 C561 1.264 . S
C560 C565 1.479 . S
C560 C570 1.465 . S
C561 C560 1.264 . S
C561 C563 1.339 . S
C561 H588 0.931 . S
C562 C563 1.395 . S
C562 C564 1.320 . S
C563 C561 1.339 . S
C563 C562 1.395 . S
C563 H589 0.929 . S
C564 C562 1.320 . S
C564 C565 1.405 . S
C564 H590 0.930 . S
C565 C560 1.479 . S
C565 C564 1.405 . S
C565 H591 0.931 . S
U566 O567 2.454 . S
U566 O568 2.458 . S
U566 C569 2.984 . S
U566 C570 2.847 . S
U566 C583 2.882 . S
U566 O584 2.441 . S
U566 O585 2.420 . S
U566 O586 2.455 . S
U566 O587 2.449 . S
O567 U566 2.454 . S
O567 C569 1.353 . S
O568 U566 2.458 . S
O568 C569 1.286 . S
C569 U566 2.984 . S
C569 O567 1.353 . S
C569 O568 1.286 . S
C569 C571 1.363 . S
C570 C560 1.465 . S
C570 U566 2.847 . S
C570 O584 1.249 . S
C570 O585 1.202 . S
C571 C569 1.363 . S
C571 C573 1.408 . S
C571 C576 1.342 . S
C572 C573 1.310 . S
C572 C575 1.461 . S
C572 H592 0.932 . S
C573 C571 1.408 . S
C573 C572 1.310 . S
C573 H593 0.930 . S
C574 C575 1.474 . S
C574 C576 1.285 . S
C574 H594 0.929 . S
C575 C572 1.461 . S
C575 C574 1.474 . S
C576 C571 1.342 . S
C576 C574 1.285 . S
C576 H595 0.930 . S
C577 C580 1.424 . S
C577 C582 1.245 . S
C577 C583 1.428 . S
C578 C581 1.260 . S
C578 C582 1.477 . S
C578 H596 0.932 . S
C579 C580 1.384 . S
C579 C581 1.479 . S
C579 H597 0.929 . S
C580 C577 1.424 . S
C580 C579 1.384 . S
C580 H598 0.928 . S
C581 C578 1.260 . S
C581 C579 1.479 . S
C582 C577 1.245 . S
C582 C578 1.477 . S
C582 H599 0.932 . S
C583 U566 2.882 . S
C583 C577 1.428 . S
C583 O586 1.301 . S
C583 O587 1.282 . S
O584 U566 2.441 . S
O584 C570 1.249 . S
O585 U566 2.420 . S
O585 C570 1.202 . S
O586 U566 2.455 . S
O586 C583 1.301 . S
O587 U566 2.449 . S
O587 C583 1.282 . S
H588 C561 0.931 . S
H589 C563 0.929 . S
H590 C564 0.930 . S
H591 C565 0.931 . S
H592 C572 0.932 . S
H593 C573 0.930 . S
H594 C574 0.929 . S
H595 C576 0.930 . S
H596 C578 0.932 . S
H597 C579 0.929 . S
H598 C580 0.928 . S
H599 C582 0.932 . S
C600 C601 1.264 . S
C600 C605 1.479 . S
C600 C610 1.465 . S
C601 C600 1.264 . S
C601 C603 1.339 . S
C601 H628 0.931 . S
C602 C603 1.395 . S
C602 C604 1.320 . S
C603 C601 1.339 . S
C603 C602 1.395 . S
C603 H629 0.929 . S
C604 C602 1.320 . S
C604 C605 1.405 . S
C604 H630 0.930 . S
C605 C600 1.479 . S
C605 C604 1.405 . S
C605 H631 0.931 . S
U606 O607 2.454 . S
U606 O608 2.458 . S
U606 C609 2.984 . S
U606 C610 2.847 . S
U606 C623 2.882 . S
U606 O624 2.441 . S
U606 O625 2.420 . S
U606 O626 2.455 . S
U606 O627 2.449 . S
O607 U606 2.454 . S
O607 C609 1.353 . S
O608 U606 2.458 . S
O608 C609 1.286 . S
C609 U606 2.984 . S
C609 O607 1.353 . S
C609 O608 1.286 . S
C609 C611 1.363 . S
C610 C600 1.465 . S
C610 U606 2.847 . S
C610 O624 1.249 . S
C610 O625 1.202 . S
C611 C609 1.363 . S
C611 C613 1.408 . S
C611 C616 1.342 . S
C612 C613 1.310 . S
C612 C615 1.461 . S
C612 H632 0.932 . S
C613 C611 1.408 . S
C613 C612 1.310 . S
C613 H633 0.930 . S
C614 C615 1.474 . S
C614 C616 1.285 . S
C614 H634 0.929 . S
C615 C612 1.461 . S
C615 C614 1.474 . S
C616 C611 1.342 . S
C616 C614 1.285 . S
C616 H635 0.930 . S
C617 C620 1.424 . S
C617 C622 1.245 . S
C617 C623 1.428 . S
C618 C621 1.260 . S
C618 C622 1.477 . S
C618 H636 0.932 . S
C619 C620 1.384 . S
C619 C621 1.479 . S
C619 H637 0.929 . S
C620 C617 1.424 . S
C620 C619 1.384 . S
C620 H638 0.928 . S
C621 C618 1.260 . S
C621 C619 1.479 . S
C622 C617 1.245 . S
C622 C618 1.477 . S
C622 H639 0.932 . S
C623 U606 2.882 . S
C623 C617 1.428 . S
C623 O626 1.301 . S
C623 O627 1.282 . S
O624 U606 2.441 . S
O624 C610 1.249 . S
O625 U606 2.420 . S
O625 C610 1.202 . S
O626 U606 2.455 . S
O626 C623 1.301 . S
O627 U606 2.449 . S
O627 C623 1.282 . S
H628 C601 0.931 . S
H629 C603 0.929 . S
H630 C604 0.930 . S
H631 C605 0.931 . S
H632 C612 0.932 . S
H633 C613 0.930 . S
H634 C614 0.929 . S
H635 C616 0.930 . S
H636 C618 0.932 . S
H637 C619 0.929 . S
H638 C620 0.928 . S
H639 C622 0.932 . S
C640 C641 1.264 . S
C640 C645 1.479 . S
C640 C650 1.465 . S
C641 C640 1.264 . S
C641 C643 1.339 . S
C641 H668 0.931 . S
C642 C643 1.395 . S
C642 C644 1.320 . S
C643 C641 1.339 . S
C643 C642 1.395 . S
C643 H669 0.929 . S
C644 C642 1.320 . S
C644 C645 1.405 . S
C644 H670 0.930 . S
C645 C640 1.479 . S
C645 C644 1.405 . S
C645 H671 0.931 . S
U646 O647 2.454 . S
U646 O648 2.458 . S
U646 C649 2.984 . S
U646 C650 2.847 . S
U646 C663 2.882 . S
U646 O664 2.441 . S
U646 O665 2.420 . S
U646 O666 2.455 . S
U646 O667 2.449 . S
O647 U646 2.454 . S
O647 C649 1.353 . S
O648 U646 2.458 . S
O648 C649 1.286 . S
C649 U646 2.984 . S
C649 O647 1.353 . S
C649 O648 1.286 . S
C649 C651 1.363 . S
C650 C640 1.465 . S
C650 U646 2.847 . S
C650 O664 1.249 . S
C650 O665 1.202 . S
C651 C649 1.363 . S
C651 C653 1.408 . S
C651 C656 1.342 . S
C652 C653 1.310 . S
C652 C655 1.461 . S
C652 H672 0.932 . S
C653 C651 1.408 . S
C653 C652 1.310 . S
C653 H673 0.930 . S
C654 C655 1.474 . S
C654 C656 1.285 . S
C654 H674 0.929 . S
C655 C652 1.461 . S
C655 C654 1.474 . S
C656 C651 1.342 . S
C656 C654 1.285 . S
C656 H675 0.930 . S
C657 C660 1.424 . S
C657 C662 1.245 . S
C657 C663 1.428 . S
C658 C661 1.260 . S
C658 C662 1.477 . S
C658 H676 0.932 . S
C659 C660 1.384 . S
C659 C661 1.479 . S
C659 H677 0.929 . S
C660 C657 1.424 . S
C660 C659 1.384 . S
C660 H678 0.928 . S
C661 C658 1.260 . S
C661 C659 1.479 . S
C662 C657 1.245 . S
C662 C658 1.477 . S
C662 H679 0.932 . S
C663 U646 2.882 . S
C663 C657 1.428 . S
C663 O666 1.301 . S
C663 O667 1.282 . S
O664 U646 2.441 . S
O664 C650 1.249 . S
O665 U646 2.420 . S
O665 C650 1.202 . S
O666 U646 2.455 . S
O666 C663 1.301 . S
O667 U646 2.449 . S
O667 C663 1.282 . S
H668 C641 0.931 . S
H669 C643 0.929 . S
H670 C644 0.930 . S
H671 C645 0.931 . S
H672 C652 0.932 . S
H673 C653 0.930 . S
H674 C654 0.929 . S
H675 C656 0.930 . S
H676 C658 0.932 . S
H677 C659 0.929 . S
H678 C660 0.928 . S
H679 C662 0.932 . S
C680 C681 1.264 . S
C680 C685 1.479 . S
C680 C690 1.465 . S
C681 C680 1.264 . S
C681 C683 1.339 . S
C681 H708 0.931 . S
C682 C683 1.395 . S
C682 C684 1.320 . S
C683 C681 1.339 . S
C683 C682 1.395 . S
C683 H709 0.929 . S
C684 C682 1.320 . S
C684 C685 1.405 . S
C684 H710 0.930 . S
C685 C680 1.479 . S
C685 C684 1.405 . S
C685 H711 0.931 . S
U686 O687 2.454 . S
U686 O688 2.458 . S
U686 C689 2.984 . S
U686 C690 2.847 . S
U686 C703 2.882 . S
U686 O704 2.441 . S
U686 O705 2.420 . S
U686 O706 2.455 . S
U686 O707 2.449 . S
O687 U686 2.454 . S
O687 C689 1.353 . S
O688 U686 2.458 . S
O688 C689 1.286 . S
C689 U686 2.984 . S
C689 O687 1.353 . S
C689 O688 1.286 . S
C689 C691 1.363 . S
C690 C680 1.465 . S
C690 U686 2.847 . S
C690 O704 1.249 . S
C690 O705 1.202 . S
C691 C689 1.363 . S
C691 C693 1.408 . S
C691 C696 1.342 . S
C692 C693 1.310 . S
C692 C695 1.461 . S
C692 H712 0.932 . S
C693 C691 1.408 . S
C693 C692 1.310 . S
C693 H713 0.930 . S
C694 C695 1.474 . S
C694 C696 1.285 . S
C694 H714 0.929 . S
C695 C692 1.461 . S
C695 C694 1.474 . S
C696 C691 1.342 . S
C696 C694 1.285 . S
C696 H715 0.930 . S
C697 C700 1.424 . S
C697 C702 1.245 . S
C697 C703 1.428 . S
C698 C701 1.260 . S
C698 C702 1.477 . S
C698 H716 0.932 . S
C699 C700 1.384 . S
C699 C701 1.479 . S
C699 H717 0.929 . S
C700 C697 1.424 . S
C700 C699 1.384 . S
C700 H718 0.928 . S
C701 C698 1.260 . S
C701 C699 1.479 . S
C702 C697 1.245 . S
C702 C698 1.477 . S
C702 H719 0.932 . S
C703 U686 2.882 . S
C703 C697 1.428 . S
C703 O706 1.301 . S
C703 O707 1.282 . S
O704 U686 2.441 . S
O704 C690 1.249 . S
O705 U686 2.420 . S
O705 C690 1.202 . S
O706 U686 2.455 . S
O706 C703 1.301 . S
O707 U686 2.449 . S
O707 C703 1.282 . S
H708 C681 0.931 . S
H709 C683 0.929 . S
H710 C684 0.930 . S
H711 C685 0.931 . S
H712 C692 0.932 . S
H713 C693 0.930 . S
H714 C694 0.929 . S
H715 C696 0.930 . S
H716 C698 0.932 . S
H717 C699 0.929 . S
H718 C700 0.928 . S
H719 C702 0.932 . S
C720 C721 1.264 . S
C720 C725 1.479 . S
C720 C730 1.465 . S
C721 C720 1.264 . S
C721 C723 1.339 . S
C721 H748 0.931 . S
C722 C723 1.395 . S
C722 C724 1.320 . S
C723 C721 1.339 . S
C723 C722 1.395 . S
C723 H749 0.929 . S
C724 C722 1.320 . S
C724 C725 1.405 . S
C724 H750 0.930 . S
C725 C720 1.479 . S
C725 C724 1.405 . S
C725 H751 0.931 . S
U726 O727 2.454 . S
U726 O728 2.458 . S
U726 C729 2.984 . S
U726 C730 2.847 . S
U726 C743 2.882 . S
U726 O744 2.441 . S
U726 O745 2.420 . S
U726 O746 2.455 . S
U726 O747 2.449 . S
O727 U726 2.454 . S
O727 C729 1.353 . S
O728 U726 2.458 . S
O728 C729 1.286 . S
C729 U726 2.984 . S
C729 O727 1.353 . S
C729 O728 1.286 . S
C729 C731 1.363 . S
C730 C720 1.465 . S
C730 U726 2.847 . S
C730 O744 1.249 . S
C730 O745 1.202 . S
C731 C729 1.363 . S
C731 C733 1.408 . S
C731 C736 1.342 . S
C732 C733 1.310 . S
C732 C735 1.461 . S
C732 H752 0.932 . S
C733 C731 1.408 . S
C733 C732 1.310 . S
C733 H753 0.930 . S
C734 C735 1.474 . S
C734 C736 1.285 . S
C734 H754 0.929 . S
C735 C732 1.461 . S
C735 C734 1.474 . S
C736 C731 1.342 . S
C736 C734 1.285 . S
C736 H755 0.930 . S
C737 C740 1.424 . S
C737 C742 1.245 . S
C737 C743 1.428 . S
C738 C741 1.260 . S
C738 C742 1.477 . S
C738 H756 0.932 . S
C739 C740 1.384 . S
C739 C741 1.479 . S
C739 H757 0.929 . S
C740 C737 1.424 . S
C740 C739 1.384 . S
C740 H758 0.928 . S
C741 C738 1.260 . S
C741 C739 1.479 . S
C742 C737 1.245 . S
C742 C738 1.477 . S
C742 H759 0.932 . S
C743 U726 2.882 . S
C743 C737 1.428 . S
C743 O746 1.301 . S
C743 O747 1.282 . S
O744 U726 2.441 . S
O744 C730 1.249 . S
O745 U726 2.420 . S
O745 C730 1.202 . S
O746 U726 2.455 . S
O746 C743 1.301 . S
O747 U726 2.449 . S
O747 C743 1.282 . S
H748 C721 0.931 . S
H749 C723 0.929 . S
H750 C724 0.930 . S
H751 C725 0.931 . S
H752 C732 0.932 . S
H753 C733 0.930 . S
H754 C734 0.929 . S
H755 C736 0.930 . S
H756 C738 0.932 . S
H757 C739 0.929 . S
H758 C740 0.928 . S
H759 C742 0.932 . S
C760 C761 1.264 . S
C760 C765 1.479 . S
C760 C770 1.465 . S
C761 C760 1.264 . S
C761 C763 1.339 . S
C761 H788 0.931 . S
C762 C763 1.395 . S
C762 C764 1.320 . S
C763 C761 1.339 . S
C763 C762 1.395 . S
C763 H789 0.929 . S
C764 C762 1.320 . S
C764 C765 1.405 . S
C764 H790 0.930 . S
C765 C760 1.479 . S
C765 C764 1.405 . S
C765 H791 0.931 . S
U766 O767 2.454 . S
U766 O768 2.458 . S
U766 C769 2.984 . S
U766 C770 2.847 . S
U766 C783 2.882 . S
U766 O784 2.441 . S
U766 O785 2.420 . S
U766 O786 2.455 . S
U766 O787 2.449 . S
O767 U766 2.454 . S
O767 C769 1.353 . S
O768 U766 2.458 . S
O768 C769 1.286 . S
C769 U766 2.984 . S
C769 O767 1.353 . S
C769 O768 1.286 . S
C769 C771 1.363 . S
C770 C760 1.465 . S
C770 U766 2.847 . S
C770 O784 1.249 . S
C770 O785 1.202 . S
C771 C769 1.363 . S
C771 C773 1.408 . S
C771 C776 1.342 . S
C772 C773 1.310 . S
C772 C775 1.461 . S
C772 H792 0.932 . S
C773 C771 1.408 . S
C773 C772 1.310 . S
C773 H793 0.930 . S
C774 C775 1.474 . S
C774 C776 1.285 . S
C774 H794 0.929 . S
C775 C772 1.461 . S
C775 C774 1.474 . S
C776 C771 1.342 . S
C776 C774 1.285 . S
C776 H795 0.930 . S
C777 C780 1.424 . S
C777 C782 1.245 . S
C777 C783 1.428 . S
C778 C781 1.260 . S
C778 C782 1.477 . S
C778 H796 0.932 . S
C779 C780 1.384 . S
C779 C781 1.479 . S
C779 H797 0.929 . S
C780 C777 1.424 . S
C780 C779 1.384 . S
C780 H798 0.928 . S
C781 C778 1.260 . S
C781 C779 1.479 . S
C782 C777 1.245 . S
C782 C778 1.477 . S
C782 H799 0.932 . S
C783 U766 2.882 . S
C783 C777 1.428 . S
C783 O786 1.301 . S
C783 O787 1.282 . S
O784 U766 2.441 . S
O784 C770 1.249 . S
O785 U766 2.420 . S
O785 C770 1.202 . S
O786 U766 2.455 . S
O786 C783 1.301 . S
O787 U766 2.449 . S
O787 C783 1.282 . S
H788 C761 0.931 . S
H789 C763 0.929 . S
H790 C764 0.930 . S
H791 C765 0.931 . S
H792 C772 0.932 . S
H793 C773 0.930 . S
H794 C774 0.929 . S
H795 C776 0.930 . S
H796 C778 0.932 . S
H797 C779 0.929 . S
H798 C780 0.928 . S
H799 C782 0.932 . S
C800 C801 1.264 . S
C800 C805 1.479 . S
C800 C810 1.465 . S
C801 C800 1.264 . S
C801 C803 1.339 . S
C801 H828 0.931 . S
C802 C803 1.395 . S
C802 C804 1.320 . S
C803 C801 1.339 . S
C803 C802 1.395 . S
C803 H829 0.929 . S
C804 C802 1.320 . S
C804 C805 1.405 . S
C804 H830 0.930 . S
C805 C800 1.479 . S
C805 C804 1.405 . S
C805 H831 0.931 . S
U806 O807 2.454 . S
U806 O808 2.458 . S
U806 C809 2.984 . S
U806 C810 2.847 . S
U806 C823 2.882 . S
U806 O824 2.441 . S
U806 O825 2.420 . S
U806 O826 2.455 . S
U806 O827 2.449 . S
O807 U806 2.454 . S
O807 C809 1.353 . S
O808 U806 2.458 . S
O808 C809 1.286 . S
C809 U806 2.984 . S
C809 O807 1.353 . S
C809 O808 1.286 . S
C809 C811 1.363 . S
C810 C800 1.465 . S
C810 U806 2.847 . S
C810 O824 1.249 . S
C810 O825 1.202 . S
C811 C809 1.363 . S
C811 C813 1.408 . S
C811 C816 1.342 . S
C812 C813 1.310 . S
C812 C815 1.461 . S
C812 H832 0.932 . S
C813 C811 1.408 . S
C813 C812 1.310 . S
C813 H833 0.930 . S
C814 C815 1.474 . S
C814 C816 1.285 . S
C814 H834 0.929 . S
C815 C812 1.461 . S
C815 C814 1.474 . S
C816 C811 1.342 . S
C816 C814 1.285 . S
C816 H835 0.930 . S
C817 C820 1.424 . S
C817 C822 1.245 . S
C817 C823 1.428 . S
C818 C821 1.260 . S
C818 C822 1.477 . S
C818 H836 0.932 . S
C819 C820 1.384 . S
C819 C821 1.479 . S
C819 H837 0.929 . S
C820 C817 1.424 . S
C820 C819 1.384 . S
C820 H838 0.928 . S
C821 C818 1.260 . S
C821 C819 1.479 . S
C822 C817 1.245 . S
C822 C818 1.477 . S
C822 H839 0.932 . S
C823 U806 2.882 . S
C823 C817 1.428 . S
C823 O826 1.301 . S
C823 O827 1.282 . S
O824 U806 2.441 . S
O824 C810 1.249 . S
O825 U806 2.420 . S
O825 C810 1.202 . S
O826 U806 2.455 . S
O826 C823 1.301 . S
O827 U806 2.449 . S
O827 C823 1.282 . S
H828 C801 0.931 . S
H829 C803 0.929 . S
H830 C804 0.930 . S
H831 C805 0.931 . S
H832 C812 0.932 . S
H833 C813 0.930 . S
H834 C814 0.929 . S
H835 C816 0.930 . S
H836 C818 0.932 . S
H837 C819 0.929 . S
H838 C820 0.928 . S
H839 C822 0.932 . S
C840 C841 1.264 . S
C840 C845 1.479 . S
C840 C850 1.465 . S
C841 C840 1.264 . S
C841 C843 1.339 . S
C841 H868 0.931 . S
C842 C843 1.395 . S
C842 C844 1.320 . S
C843 C841 1.339 . S
C843 C842 1.395 . S
C843 H869 0.929 . S
C844 C842 1.320 . S
C844 C845 1.405 . S
C844 H870 0.930 . S
C845 C840 1.479 . S
C845 C844 1.405 . S
C845 H871 0.931 . S
U846 O847 2.454 . S
U846 O848 2.458 . S
U846 C849 2.984 . S
U846 C850 2.847 . S
U846 C863 2.882 . S
U846 O864 2.441 . S
U846 O865 2.420 . S
U846 O866 2.455 . S
U846 O867 2.449 . S
O847 U846 2.454 . S
O847 C849 1.353 . S
O848 U846 2.458 . S
O848 C849 1.286 . S
C849 U846 2.984 . S
C849 O847 1.353 . S
C849 O848 1.286 . S
C849 C851 1.363 . S
C850 C840 1.465 . S
C850 U846 2.847 . S
C850 O864 1.249 . S
C850 O865 1.202 . S
C851 C849 1.363 . S
C851 C853 1.408 . S
C851 C856 1.342 . S
C852 C853 1.310 . S
C852 C855 1.461 . S
C852 H872 0.932 . S
C853 C851 1.408 . S
C853 C852 1.310 . S
C853 H873 0.930 . S
C854 C855 1.474 . S
C854 C856 1.285 . S
C854 H874 0.929 . S
C855 C852 1.461 . S
C855 C854 1.474 . S
C856 C851 1.342 . S
C856 C854 1.285 . S
C856 H875 0.930 . S
C857 C860 1.424 . S
C857 C862 1.245 . S
C857 C863 1.428 . S
C858 C861 1.260 . S
C858 C862 1.477 . S
C858 H876 0.932 . S
C859 C860 1.384 . S
C859 C861 1.479 . S
C859 H877 0.929 . S
C860 C857 1.424 . S
C860 C859 1.384 . S
C860 H878 0.928 . S
C861 C858 1.260 . S
C861 C859 1.479 . S
C862 C857 1.245 . S
C862 C858 1.477 . S
C862 H879 0.932 . S
C863 U846 2.882 . S
C863 C857 1.428 . S
C863 O866 1.301 . S
C863 O867 1.282 . S
O864 U846 2.441 . S
O864 C850 1.249 . S
O865 U846 2.420 . S
O865 C850 1.202 . S
O866 U846 2.455 . S
O866 C863 1.301 . S
O867 U846 2.449 . S
O867 C863 1.282 . S
H868 C841 0.931 . S
H869 C843 0.929 . S
H870 C844 0.930 . S
H871 C845 0.931 . S
H872 C852 0.932 . S
H873 C853 0.930 . S
H874 C854 0.929 . S
H875 C856 0.930 . S
H876 C858 0.932 . S
H877 C859 0.929 . S
H878 C860 0.928 . S
H879 C862 0.932 . S
C880 C881 1.264 . S
C880 C885 1.479 . S
C880 C890 1.465 . S
C881 C880 1.264 . S
C881 C883 1.339 . S
C881 H908 0.931 . S
C882 C883 1.395 . S
C882 C884 1.320 . S
C883 C881 1.339 . S
C883 C882 1.395 . S
C883 H909 0.929 . S
C884 C882 1.320 . S
C884 C885 1.405 . S
C884 H910 0.930 . S
C885 C880 1.479 . S
C885 C884 1.405 . S
C885 H911 0.931 . S
U886 O887 2.454 . S
U886 O888 2.458 . S
U886 C889 2.984 . S
U886 C890 2.847 . S
U886 C903 2.882 . S
U886 O904 2.441 . S
U886 O905 2.420 . S
U886 O906 2.455 . S
U886 O907 2.449 . S
O887 U886 2.454 . S
O887 C889 1.353 . S
O888 U886 2.458 . S
O888 C889 1.286 . S
C889 U886 2.984 . S
C889 O887 1.353 . S
C889 O888 1.286 . S
C889 C891 1.363 . S
C890 C880 1.465 . S
C890 U886 2.847 . S
C890 O904 1.249 . S
C890 O905 1.202 . S
C891 C889 1.363 . S
C891 C893 1.408 . S
C891 C896 1.342 . S
C892 C893 1.310 . S
C892 C895 1.461 . S
C892 H912 0.932 . S
C893 C891 1.408 . S
C893 C892 1.310 . S
C893 H913 0.930 . S
C894 C895 1.474 . S
C894 C896 1.285 . S
C894 H914 0.929 . S
C895 C892 1.461 . S
C895 C894 1.474 . S
C896 C891 1.342 . S
C896 C894 1.285 . S
C896 H915 0.930 . S
C897 C900 1.424 . S
C897 C902 1.245 . S
C897 C903 1.428 . S
C898 C901 1.260 . S
C898 C902 1.477 . S
C898 H916 0.932 . S
C899 C900 1.384 . S
C899 C901 1.479 . S
C899 H917 0.929 . S
C900 C897 1.424 . S
C900 C899 1.384 . S
C900 H918 0.928 . S
C901 C898 1.260 . S
C901 C899 1.479 . S
C902 C897 1.245 . S
C902 C898 1.477 . S
C902 H919 0.932 . S
C903 U886 2.882 . S
C903 C897 1.428 . S
C903 O906 1.301 . S
C903 O907 1.282 . S
O904 U886 2.441 . S
O904 C890 1.249 . S
O905 U886 2.420 . S
O905 C890 1.202 . S
O906 U886 2.455 . S
O906 C903 1.301 . S
O907 U886 2.449 . S
O907 C903 1.282 . S
H908 C881 0.931 . S
H909 C883 0.929 . S
H910 C884 0.930 . S
H911 C885 0.931 . S
H912 C892 0.932 . S
H913 C893 0.930 . S
H914 C894 0.929 . S
H915 C896 0.930 . S
H916 C898 0.932 . S
H917 C899 0.929 . S
H918 C900 0.928 . S
H919 C902 0.932 . S
C920 C921 1.264 . S
C920 C925 1.479 . S
C920 C930 1.465 . S
C921 C920 1.264 . S
C921 C923 1.339 . S
C921 H948 0.931 . S
C922 C923 1.395 . S
C922 C924 1.320 . S
C923 C921 1.339 . S
C923 C922 1.395 . S
C923 H949 0.929 . S
C924 C922 1.320 . S
C924 C925 1.405 . S
C924 H950 0.930 . S
C925 C920 1.479 . S
C925 C924 1.405 . S
C925 H951 0.931 . S
U926 O927 2.454 . S
U926 O928 2.458 . S
U926 C929 2.984 . S
U926 C930 2.847 . S
U926 C943 2.882 . S
U926 O944 2.441 . S
U926 O945 2.420 . S
U926 O946 2.455 . S
U926 O947 2.449 . S
O927 U926 2.454 . S
O927 C929 1.353 . S
O928 U926 2.458 . S
O928 C929 1.286 . S
C929 U926 2.984 . S
C929 O927 1.353 . S
C929 O928 1.286 . S
C929 C931 1.363 . S
C930 C920 1.465 . S
C930 U926 2.847 . S
C930 O944 1.249 . S
C930 O945 1.202 . S
C931 C929 1.363 . S
C931 C933 1.408 . S
C931 C936 1.342 . S
C932 C933 1.310 . S
C932 C935 1.461 . S
C932 H952 0.932 . S
C933 C931 1.408 . S
C933 C932 1.310 . S
C933 H953 0.930 . S
C934 C935 1.474 . S
C934 C936 1.285 . S
C934 H954 0.929 . S
C935 C932 1.461 . S
C935 C934 1.474 . S
C936 C931 1.342 . S
C936 C934 1.285 . S
C936 H955 0.930 . S
C937 C940 1.424 . S
C937 C942 1.245 . S
C937 C943 1.428 . S
C938 C941 1.260 . S
C938 C942 1.477 . S
C938 H956 0.932 . S
C939 C940 1.384 . S
C939 C941 1.479 . S
C939 H957 0.929 . S
C940 C937 1.424 . S
C940 C939 1.384 . S
C940 H958 0.928 . S
C941 C938 1.260 . S
C941 C939 1.479 . S
C942 C937 1.245 . S
C942 C938 1.477 . S
C942 H959 0.932 . S
C943 U926 2.882 . S
C943 C937 1.428 . S
C943 O946 1.301 . S
C943 O947 1.282 . S
O944 U926 2.441 . S
O944 C930 1.249 . S
O945 U926 2.420 . S
O945 C930 1.202 . S
O946 U926 2.455 . S
O946 C943 1.301 . S
O947 U926 2.449 . S
O947 C943 1.282 . S
H948 C921 0.931 . S
H949 C923 0.929 . S
H950 C924 0.930 . S
H951 C925 0.931 . S
H952 C932 0.932 . S
H953 C933 0.930 . S
H954 C934 0.929 . S
H955 C936 0.930 . S
H956 C938 0.932 . S
H957 C939 0.929 . S
H958 C940 0.928 . S
H959 C942 0.932 . S
C960 O986 1.283 . S
C960 O1004 1.283 . S
C961 O987 1.283 . S
C961 O1002 1.283 . S
C962 O988 1.283 . S
C962 O1005 1.283 . S
C963 O989 1.283 . S
C963 O1003 1.283 . S
C964 O990 1.283 . S
C964 O999 1.283 . S
C965 O991 1.283 . S
C965 O1001 1.283 . S
C966 O992 1.283 . S
C966 O998 1.283 . S
C967 O993 1.283 . S
C967 O1000 1.283 . S
C968 O994 1.283 . S
C968 O1009 1.283 . S
C969 O995 1.283 . S
C969 O1007 1.283 . S
C970 O996 1.283 . S
C970 O1008 1.283 . S
C971 O997 1.283 . S
C971 O1006 1.283 . S
Eu972 O973 2.370 1_455 S
Eu972 O974 2.370 . S
Eu972 O977 2.370 1_455 S
Eu972 O978 2.370 . S
Eu972 O986 2.363 . S
Eu972 O987 2.363 . S
Eu972 O1000 2.363 . S
Eu972 O1001 2.363 1_455 S
O973 Eu972 2.370 1_655 S
O973 Eu975 2.355 1_565 S
O973 Eu980 2.358 1_665 S
O974 Eu972 2.370 . S
O974 Eu976 2.358 1_565 S
O974 Eu979 2.356 1_565 S
Eu975 O973 2.355 1_545 S
Eu975 O977 2.355 1_545 S
Eu975 O981 2.385 . S
Eu975 O982 2.385 . S
Eu975 O990 2.388 . S
Eu975 O991 2.338 1_545 S
Eu975 O1006 2.363 . S
Eu975 O1007 2.363 . S
Eu976 O974 2.358 1_545 S
Eu976 O978 2.358 1_545 S
Eu976 O983 2.382 . S
Eu976 O984 2.382 . S
Eu976 O992 2.383 . S
Eu976 O993 2.343 1_545 S
Eu976 O1008 2.363 . S
Eu976 O1009 2.363 . S
O977 Eu972 2.370 1_655 S
O977 Eu975 2.355 1_565 S
O977 Eu979 2.356 1_665 S
O978 Eu972 2.370 . S
O978 Eu976 2.358 1_565 S
O978 Eu980 2.358 1_565 S
Eu979 O974 2.356 1_545 S
Eu979 O977 2.356 1_445 S
Eu979 O981 2.384 1_455 S
Eu979 O984 2.384 . S
Eu979 O996 2.363 . S
Eu979 O997 2.363 1_455 S
Eu979 O1004 2.340 1_545 S
Eu979 O1005 2.386 . S
Eu980 O973 2.358 1_445 S
Eu980 O978 2.358 1_545 S
Eu980 O982 2.383 1_455 S
Eu980 O983 2.383 . S
Eu980 O994 2.363 . S
Eu980 O995 2.363 1_455 S
Eu980 O1002 2.342 1_545 S
Eu980 O1003 2.384 . S
O981 Eu975 2.385 . S
O981 Eu979 2.384 1_655 S
O981 Eu985 2.370 1_655 S
O982 Eu975 2.385 . S
O982 Eu980 2.383 1_655 S
O982 Eu985 2.370 1_655 S
O983 Eu976 2.382 . S
O983 Eu980 2.383 . S
O983 Eu985 2.370 . S
O984 Eu976 2.382 . S
O984 Eu979 2.384 . S
O984 Eu985 2.370 . S
Eu985 O981 2.370 1_455 S
Eu985 O982 2.370 1_455 S
Eu985 O983 2.370 . S
Eu985 O984 2.370 . S
Eu985 O988 2.363 . S
Eu985 O989 2.363 . S
Eu985 O998 2.363 . S
Eu985 O999 2.363 1_455 S
O986 C960 1.283 . S
O986 Eu972 2.363 . S
O987 C961 1.283 . S
O987 Eu972 2.363 . S
O988 C962 1.283 . S
O988 Eu985 2.363 . S
O989 C963 1.283 . S
O989 Eu985 2.363 . S
O990 C964 1.283 . S
O990 Eu975 2.388 . S
O991 C965 1.283 . S
O991 Eu975 2.338 1_565 S
O992 C966 1.283 . S
O992 Eu976 2.383 . S
O993 C967 1.283 . S
O993 Eu976 2.343 1_565 S
O994 C968 1.283 . S
O994 Eu980 2.363 . S
O995 C969 1.283 . S
O995 Eu980 2.363 1_655 S
O996 C970 1.283 . S
O996 Eu979 2.363 . S
O997 C971 1.283 . S
O997 Eu979 2.363 1_655 S
O998 C966 1.283 . S
O998 Eu985 2.363 . S
O999 C964 1.283 . S
O999 Eu985 2.363 1_655 S
O1000 C967 1.283 . S
O1000 Eu972 2.363 . S
O1001 C965 1.283 . S
O1001 Eu972 2.363 1_655 S
O1002 C961 1.283 . S
O1002 Eu980 2.342 1_565 S
O1003 C963 1.283 . S
O1003 Eu980 2.384 . S
O1004 C960 1.283 . S
O1004 Eu979 2.340 1_565 S
O1005 C962 1.283 . S
O1005 Eu979 2.386 . S
O1006 C971 1.283 . S
O1006 Eu975 2.363 . S
O1007 C969 1.283 . S
O1007 Eu975 2.363 . S
O1008 C970 1.283 . S
O1008 Eu976 2.363 . S
O1009 C968 1.283 . S
O1009 Eu976 2.363 . S
C1010 O1036 1.283 . S
C1010 O1054 1.283 . S
C1011 O1037 1.283 . S
C1011 O1052 1.283 . S
C1012 O1038 1.283 . S
C1012 O1055 1.283 . S
C1013 O1039 1.283 . S
C1013 O1053 1.283 . S
C1014 O1040 1.283 . S
C1014 O1049 1.283 . S
C1015 O1041 1.283 . S
C1015 O1051 1.283 . S
C1016 O1042 1.283 . S
C1016 O1048 1.283 . S
C1017 O1043 1.283 . S
C1017 O1050 1.283 . S
C1018 O1044 1.283 . S
C1018 O1059 1.283 . S
C1019 O1045 1.283 . S
C1019 O1057 1.283 . S
C1020 O1046 1.283 . S
C1020 O1058 1.283 . S
C1021 O1047 1.283 . S
C1021 O1056 1.283 . S
Eu1022 O1023 2.387 . S
Eu1022 O1024 2.354 1_545 S
Eu1022 O1027 2.354 1_545 S
Eu1022 O1028 2.387 . S
Eu1022 O1036 2.335 1_545 S
Eu1022 O1037 2.391 . S
Eu1022 O1050 2.363 . S
Eu1022 O1051 2.363 . S
O1023 Eu1022 2.387 . S
O1023 Eu1025 2.374 . S
O1023 Eu1030 2.377 . S
O1024 Eu1022 2.354 1_565 S
O1024 Eu1026 2.374 1_565 S
O1024 Eu1029 2.371 . S
Eu1025 O1023 2.374 . S
Eu1025 O1027 2.374 1_545 S
Eu1025 O1031 2.367 1_544 S
Eu1025 O1032 2.367 1_554 S
Eu1025 O1040 2.357 1_554 S
Eu1025 O1041 2.369 . S
Eu1025 O1056 2.363 1_545 S
Eu1025 O1057 2.363 . S
Eu1026 O1024 2.374 1_545 S
Eu1026 O1028 2.374 . S
Eu1026 O1033 2.366 1_554 S
Eu1026 O1034 2.366 1_544 S
Eu1026 O1042 2.356 1_554 S
Eu1026 O1043 2.371 . S
Eu1026 O1058 2.363 1_545 S
Eu1026 O1059 2.363 . S
O1027 Eu1022 2.354 1_565 S
O1027 Eu1025 2.374 1_565 S
O1027 Eu1029 2.371 . S
O1028 Eu1022 2.387 . S
O1028 Eu1026 2.374 . S
O1028 Eu1030 2.377 . S
Eu1029 O1024 2.371 . S
Eu1029 O1027 2.371 . S
Eu1029 O1031 2.369 1_554 S
Eu1029 O1034 2.369 1_554 S
Eu1029 O1046 2.363 . S
Eu1029 O1047 2.363 . S
Eu1029 O1054 2.365 . S
Eu1029 O1055 2.361 1_554 S
Eu1030 O1023 2.377 . S
Eu1030 O1028 2.377 . S
Eu1030 O1032 2.363 1_554 S
Eu1030 O1033 2.363 1_554 S
Eu1030 O1044 2.363 . S
Eu1030 O1045 2.363 . S
Eu1030 O1052 2.375 . S
Eu1030 O1053 2.351 1_554 S
O1031 Eu1025 2.367 1_566 S
O1031 Eu1029 2.369 1_556 S
O1031 Eu1035 2.370 1_565 S
O1032 Eu1025 2.367 1_556 S
O1032 Eu1030 2.363 1_556 S
O1032 Eu1035 2.370 . S
O1033 Eu1026 2.366 1_556 S
O1033 Eu1030 2.363 1_556 S
O1033 Eu1035 2.370 . S
O1034 Eu1026 2.366 1_566 S
O1034 Eu1029 2.369 1_556 S
O1034 Eu1035 2.370 1_565 S
Eu1035 O1031 2.370 1_545 S
Eu1035 O1032 2.370 . S
Eu1035 O1033 2.370 . S
Eu1035 O1034 2.370 1_545 S
Eu1035 O1038 2.363 1_545 S
Eu1035 O1039 2.363 . S
Eu1035 O1048 2.363 . S
Eu1035 O1049 2.363 . S
O1036 C1010 1.283 . S
O1036 Eu1022 2.335 1_565 S
O1037 C1011 1.283 . S
O1037 Eu1022 2.391 . S
O1038 C1012 1.283 . S
O1038 Eu1035 2.363 1_565 S
O1039 C1013 1.283 . S
O1039 Eu1035 2.363 . S
O1040 C1014 1.283 . S
O1040 Eu1025 2.357 1_556 S
O1041 C1015 1.283 . S
O1041 Eu1025 2.369 . S
O1042 C1016 1.283 . S
O1042 Eu1026 2.356 1_556 S
O1043 C1017 1.283 . S
O1043 Eu1026 2.371 . S
O1044 C1018 1.283 . S
O1044 Eu1030 2.363 . S
O1045 C1019 1.283 . S
O1045 Eu1030 2.363 . S
O1046 C1020 1.283 . S
O1046 Eu1029 2.363 . S
O1047 C1021 1.283 . S
O1047 Eu1029 2.363 . S
O1048 C1016 1.283 . S
O1048 Eu1035 2.363 . S
O1049 C1014 1.283 . S
O1049 Eu1035 2.363 . S
O1050 C1017 1.283 . S
O1050 Eu1022 2.363 . S
O1051 C1015 1.283 . S
O1051 Eu1022 2.363 . S
O1052 C1011 1.283 . S
O1052 Eu1030 2.375 . S
O1053 C1013 1.283 . S
O1053 Eu1030 2.351 1_556 S
O1054 C1010 1.283 . S
O1054 Eu1029 2.365 . S
O1055 C1012 1.283 . S
O1055 Eu1029 2.361 1_556 S
O1056 C1021 1.283 . S
O1056 Eu1025 2.363 1_565 S
O1057 C1019 1.283 . S
O1057 Eu1025 2.363 . S
O1058 C1020 1.283 . S
O1058 Eu1026 2.363 1_565 S
O1059 C1018 1.283 . S
O1059 Eu1026 2.363 . S
C1060 O1086 1.283 . S
C1060 O1104 1.283 . S
C1061 O1087 1.283 . S
C1061 O1102 1.283 . S
C1062 O1088 1.283 . S
C1062 O1105 1.283 . S
C1063 O1089 1.283 . S
C1063 O1103 1.283 . S
C1064 O1090 1.283 . S
C1064 O1099 1.283 . S
C1065 O1091 1.283 . S
C1065 O1101 1.283 . S
C1066 O1092 1.283 . S
C1066 O1098 1.283 . S
C1067 O1093 1.283 . S
C1067 O1100 1.283 . S
C1068 O1094 1.283 . S
C1068 O1109 1.283 . S
C1069 O1095 1.283 . S
C1069 O1107 1.283 . S
C1070 O1096 1.283 . S
C1070 O1108 1.283 . S
C1071 O1097 1.283 . S
C1071 O1106 1.283 . S
Eu1072 O1073 2.339 1_454 S
Eu1072 O1074 2.402 . S
Eu1072 O1077 2.372 1_455 S
Eu1072 O1078 2.369 1_554 S
Eu1072 O1086 2.391 . S
Eu1072 O1087 2.335 1_554 S
Eu1072 O1100 2.388 . S
Eu1072 O1101 2.338 1_455 S
O1073 Eu1072 2.339 1_656 S
O1073 Eu1075 2.356 1_556 S
O1073 Eu1080 2.354 1_655 S
O1074 Eu1072 2.402 . S
O1074 Eu1076 2.387 . S
O1074 Eu1079 2.383 . S
Eu1075 O1073 2.356 1_554 S
Eu1075 O1077 2.384 . S
Eu1075 O1081 2.384 . S
Eu1075 O1082 2.356 1_554 S
Eu1075 O1090 2.363 . S
Eu1075 O1091 2.363 . S
Eu1075 O1106 2.387 . S
Eu1075 O1107 2.339 1_554 S
Eu1076 O1074 2.387 . S
Eu1076 O1078 2.353 1_554 S
Eu1076 O1083 2.353 1_554 S
Eu1076 O1084 2.387 . S
Eu1076 O1092 2.363 . S
Eu1076 O1093 2.363 . S
Eu1076 O1108 2.392 . S
Eu1076 O1109 2.334 1_554 S
O1077 Eu1072 2.372 1_655 S
O1077 Eu1075 2.384 . S
O1077 Eu1079 2.358 1_655 S
O1078 Eu1072 2.369 1_556 S
O1078 Eu1076 2.353 1_556 S
O1078 Eu1080 2.386 . S
Eu1079 O1074 2.383 . S
Eu1079 O1077 2.358 1_455 S
Eu1079 O1081 2.358 1_455 S
Eu1079 O1084 2.383 . S
Eu1079 O1096 2.384 . S
Eu1079 O1097 2.342 1_455 S
Eu1079 O1104 2.363 . S
Eu1079 O1105 2.363 . S
Eu1080 O1073 2.354 1_455 S
Eu1080 O1078 2.386 . S
Eu1080 O1082 2.354 1_455 S
Eu1080 O1083 2.386 . S
Eu1080 O1094 2.390 . S
Eu1080 O1095 2.336 1_455 S
Eu1080 O1102 2.363 . S
Eu1080 O1103 2.363 . S
O1081 Eu1075 2.384 . S
O1081 Eu1079 2.358 1_655 S
O1081 Eu1085 2.372 1_655 S
O1082 Eu1075 2.356 1_556 S
O1082 Eu1080 2.354 1_655 S
O1082 Eu1085 2.342 1_656 S
O1083 Eu1076 2.353 1_556 S
O1083 Eu1080 2.386 . S
O1083 Eu1085 2.369 1_556 S
O1084 Eu1076 2.387 . S
O1084 Eu1079 2.383 . S
O1084 Eu1085 2.399 . S
Eu1085 O1081 2.372 1_455 S
Eu1085 O1082 2.342 1_454 S
Eu1085 O1083 2.369 1_554 S
Eu1085 O1084 2.399 . S
Eu1085 O1088 2.388 . S
Eu1085 O1089 2.338 1_554 S
Eu1085 O1098 2.386 . S
Eu1085 O1099 2.340 1_455 S
O1086 C1060 1.283 . S
O1086 Eu1072 2.391 . S
O1087 C1061 1.283 . S
O1087 Eu1072 2.335 1_556 S
O1088 C1062 1.283 . S
O1088 Eu1085 2.388 . S
O1089 C1063 1.283 . S
O1089 Eu1085 2.338 1_556 S
O1090 C1064 1.283 . S
O1090 Eu1075 2.363 . S
O1091 C1065 1.283 . S
O1091 Eu1075 2.363 . S
O1092 C1066 1.283 . S
O1092 Eu1076 2.363 . S
O1093 C1067 1.283 . S
O1093 Eu1076 2.363 . S
O1094 C1068 1.283 . S
O1094 Eu1080 2.390 . S
O1095 C1069 1.283 . S
O1095 Eu1080 2.336 1_655 S
O1096 C1070 1.283 . S
O1096 Eu1079 2.384 . S
O1097 C1071 1.283 . S
O1097 Eu1079 2.342 1_655 S
O1098 C1066 1.283 . S
O1098 Eu1085 2.386 . S
O1099 C1064 1.283 . S
O1099 Eu1085 2.340 1_655 S
O1100 C1067 1.283 . S
O1100 Eu1072 2.388 . S
O1101 C1065 1.283 . S
O1101 Eu1072 2.338 1_655 S
O1102 C1061 1.283 . S
O1102 Eu1080 2.363 . S
O1103 C1063 1.283 . S
O1103 Eu1080 2.363 . S
O1104 C1060 1.283 . S
O1104 Eu1079 2.363 . S
O1105 C1062 1.283 . S
O1105 Eu1079 2.363 . S
O1106 C1071 1.283 . S
O1106 Eu1075 2.387 . S
O1107 C1069 1.283 . S
O1107 Eu1075 2.339 1_556 S
O1108 C1070 1.283 . S
O1108 Eu1076 2.392 . S
O1109 C1068 1.283 . S
O1109 Eu1076 2.334 1_556 S
C1110 O1136 1.283 . S
C1110 O1154 1.283 . S
C1111 O1137 1.283 . S
C1111 O1152 1.283 . S
C1112 O1138 1.283 . S
C1112 O1155 1.283 . S
C1113 O1139 1.283 . S
C1113 O1153 1.283 . S
C1114 O1140 1.283 . S
C1114 O1149 1.283 . S
C1115 O1141 1.283 . S
C1115 O1151 1.283 . S
C1116 O1142 1.283 . S
C1116 O1148 1.283 . S
C1117 O1143 1.283 . S
C1117 O1150 1.283 . S
C1118 O1144 1.283 . S
C1118 O1159 1.283 . S
C1119 O1145 1.283 . S
C1119 O1157 1.283 . S
C1120 O1146 1.283 . S
C1120 O1158 1.283 . S
C1121 O1147 1.283 . S
C1121 O1156 1.283 . S
Eu1122 O1123 2.370 . S
Eu1122 O1124 2.370 . S
Eu1122 O1127 2.370 . S
Eu1122 O1128 2.370 . S
Eu1122 O1136 2.363 . S
Eu1122 O1137 2.363 . S
Eu1122 O1150 2.363 . S
Eu1122 O1151 2.363 . S
O1123 Eu1122 2.370 . S
O1123 Eu1125 2.378 . S
O1123 Eu1130 2.378 . S
O1124 Eu1122 2.370 . S
O1124 Eu1126 2.379 . S
O1124 Eu1129 2.379 . S
Eu1125 O1123 2.378 . S
Eu1125 O1127 2.378 . S
Eu1125 O1131 2.362 1_554 S
Eu1125 O1132 2.362 1_554 S
Eu1125 O1140 2.349 1_554 S
Eu1125 O1141 2.377 . S
Eu1125 O1156 2.363 . S
Eu1125 O1157 2.363 . S
Eu1126 O1124 2.379 . S
Eu1126 O1128 2.379 . S
Eu1126 O1133 2.361 1_554 S
Eu1126 O1134 2.361 1_554 S
Eu1126 O1142 2.348 1_554 S
Eu1126 O1143 2.378 . S
Eu1126 O1158 2.363 . S
Eu1126 O1159 2.363 . S
O1127 Eu1122 2.370 . S
O1127 Eu1125 2.378 . S
O1127 Eu1129 2.379 . S
O1128 Eu1122 2.370 . S
O1128 Eu1126 2.379 . S
O1128 Eu1130 2.378 . S
Eu1129 O1124 2.379 . S
Eu1129 O1127 2.379 . S
Eu1129 O1131 2.361 1_554 S
Eu1129 O1134 2.361 1_554 S
Eu1129 O1146 2.363 . S
Eu1129 O1147 2.363 . S
Eu1129 O1154 2.379 . S
Eu1129 O1155 2.347 1_554 S
Eu1130 O1123 2.378 . S
Eu1130 O1128 2.378 . S
Eu1130 O1132 2.362 1_554 S
Eu1130 O1133 2.362 1_554 S
Eu1130 O1144 2.363 . S
Eu1130 O1145 2.363 . S
Eu1130 O1152 2.376 . S
Eu1130 O1153 2.350 1_554 S
O1131 Eu1125 2.362 1_556 S
O1131 Eu1129 2.361 1_556 S
O1131 Eu1135 2.370 . S
O1132 Eu1125 2.362 1_556 S
O1132 Eu1130 2.362 1_556 S
O1132 Eu1135 2.370 . S
O1133 Eu1126 2.361 1_556 S
O1133 Eu1130 2.362 1_556 S
O1133 Eu1135 2.370 . S
O1134 Eu1126 2.361 1_556 S
O1134 Eu1129 2.361 1_556 S
O1134 Eu1135 2.370 . S
Eu1135 O1131 2.370 . S
Eu1135 O1132 2.370 . S
Eu1135 O1133 2.370 . S
Eu1135 O1134 2.370 . S
Eu1135 O1138 2.363 . S
Eu1135 O1139 2.363 . S
Eu1135 O1148 2.363 . S
Eu1135 O1149 2.363 . S
O1136 C1110 1.283 . S
O1136 Eu1122 2.363 . S
O1137 C1111 1.283 . S
O1137 Eu1122 2.363 . S
O1138 C1112 1.283 . S
O1138 Eu1135 2.363 . S
O1139 C1113 1.283 . S
O1139 Eu1135 2.363 . S
O1140 C1114 1.283 . S
O1140 Eu1125 2.349 1_556 S
O1141 C1115 1.283 . S
O1141 Eu1125 2.377 . S
O1142 C1116 1.283 . S
O1142 Eu1126 2.348 1_556 S
O1143 C1117 1.283 . S
O1143 Eu1126 2.378 . S
O1144 C1118 1.283 . S
O1144 Eu1130 2.363 . S
O1145 C1119 1.283 . S
O1145 Eu1130 2.363 . S
O1146 C1120 1.283 . S
O1146 Eu1129 2.363 . S
O1147 C1121 1.283 . S
O1147 Eu1129 2.363 . S
O1148 C1116 1.283 . S
O1148 Eu1135 2.363 . S
O1149 C1114 1.283 . S
O1149 Eu1135 2.363 . S
O1150 C1117 1.283 . S
O1150 Eu1122 2.363 . S
O1151 C1115 1.283 . S
O1151 Eu1122 2.363 . S
O1152 C1111 1.283 . S
O1152 Eu1130 2.376 . S
O1153 C1113 1.283 . S
O1153 Eu1130 2.350 1_556 S
O1154 C1110 1.283 . S
O1154 Eu1129 2.379 . S
O1155 C1112 1.283 . S
O1155 Eu1129 2.347 1_556 S
O1156 C1121 1.283 . S
O1156 Eu1125 2.363 . S
O1157 C1119 1.283 . S
O1157 Eu1125 2.363 . S
O1158 C1120 1.283 . S
O1158 Eu1126 2.363 . S
O1159 C1118 1.283 . S
O1159 Eu1126 2.363 . S
C1160 O1186 1.283 . S
C1160 O1204 1.283 . S
C1161 O1187 1.283 . S
C1161 O1202 1.283 . S
C1162 O1188 1.283 . S
C1162 O1205 1.283 . S
C1163 O1189 1.283 . S
C1163 O1203 1.283 . S
C1164 O1190 1.283 . S
C1164 O1199 1.283 . S
C1165 O1191 1.283 . S
C1165 O1201 1.283 . S
C1166 O1192 1.283 . S
C1166 O1198 1.283 . S
C1167 O1193 1.283 . S
C1167 O1200 1.283 . S
C1168 O1194 1.283 . S
C1168 O1209 1.283 . S
C1169 O1195 1.283 . S
C1169 O1207 1.283 . S
C1170 O1196 1.283 . S
C1170 O1208 1.283 . S
C1171 O1197 1.283 . S
C1171 O1206 1.283 . S
Eu1172 O1173 2.370 1_455 S
Eu1172 O1174 2.370 . S
Eu1172 O1177 2.370 1_455 S
Eu1172 O1178 2.370 . S
Eu1172 O1186 2.363 . S
Eu1172 O1187 2.363 . S
Eu1172 O1200 2.363 . S
Eu1172 O1201 2.363 1_455 S
O1173 Eu1172 2.370 1_655 S
O1173 Eu1175 2.370 . S
O1173 Eu1180 2.370 1_655 S
O1174 Eu1172 2.370 . S
O1174 Eu1176 2.370 . S
O1174 Eu1179 2.370 . S
Eu1175 O1173 2.370 . S
Eu1175 O1177 2.370 . S
Eu1175 O1181 2.370 . S
Eu1175 O1182 2.370 . S
Eu1175 O1190 2.363 . S
Eu1175 O1191 2.363 . S
Eu1175 O1206 2.363 . S
Eu1175 O1207 2.363 . S
Eu1176 O1174 2.370 . S
Eu1176 O1178 2.370 . S
Eu1176 O1183 2.370 . S
Eu1176 O1184 2.370 . S
Eu1176 O1192 2.363 . S
Eu1176 O1193 2.363 . S
Eu1176 O1208 2.363 . S
Eu1176 O1209 2.363 . S
O1177 Eu1172 2.370 1_655 S
O1177 Eu1175 2.370 . S
O1177 Eu1179 2.370 1_655 S
O1178 Eu1172 2.370 . S
O1178 Eu1176 2.370 . S
O1178 Eu1180 2.370 . S
Eu1179 O1174 2.370 . S
Eu1179 O1177 2.370 1_455 S
Eu1179 O1181 2.370 1_455 S
Eu1179 O1184 2.370 . S
Eu1179 O1196 2.363 . S
Eu1179 O1197 2.363 1_455 S
Eu1179 O1204 2.363 . S
Eu1179 O1205 2.363 . S
Eu1180 O1173 2.370 1_455 S
Eu1180 O1178 2.370 . S
Eu1180 O1182 2.370 1_455 S
Eu1180 O1183 2.370 . S
Eu1180 O1194 2.363 . S
Eu1180 O1195 2.363 1_455 S
Eu1180 O1202 2.363 . S
Eu1180 O1203 2.363 . S
O1181 Eu1175 2.370 . S
O1181 Eu1179 2.370 1_655 S
O1181 Eu1185 2.370 1_655 S
O1182 Eu1175 2.370 . S
O1182 Eu1180 2.370 1_655 S
O1182 Eu1185 2.370 1_655 S
O1183 Eu1176 2.370 . S
O1183 Eu1180 2.370 . S
O1183 Eu1185 2.370 . S
O1184 Eu1176 2.370 . S
O1184 Eu1179 2.370 . S
O1184 Eu1185 2.370 . S
Eu1185 O1181 2.370 1_455 S
Eu1185 O1182 2.370 1_455 S
Eu1185 O1183 2.370 . S
Eu1185 O1184 2.370 . S
Eu1185 O1188 2.363 . S
Eu1185 O1189 2.363 . S
Eu1185 O1198 2.363 . S
Eu1185 O1199 2.363 1_455 S
O1186 C1160 1.283 . S
O1186 Eu1172 2.363 . S
O1187 C1161 1.283 . S
O1187 Eu1172 2.363 . S
O1188 C1162 1.283 . S
O1188 Eu1185 2.363 . S
O1189 C1163 1.283 . S
O1189 Eu1185 2.363 . S
O1190 C1164 1.283 . S
O1190 Eu1175 2.363 . S
O1191 C1165 1.283 . S
O1191 Eu1175 2.363 . S
O1192 C1166 1.283 . S
O1192 Eu1176 2.363 . S
O1193 C1167 1.283 . S
O1193 Eu1176 2.363 . S
O1194 C1168 1.283 . S
O1194 Eu1180 2.363 . S
O1195 C1169 1.283 . S
O1195 Eu1180 2.363 1_655 S
O1196 C1170 1.283 . S
O1196 Eu1179 2.363 . S
O1197 C1171 1.283 . S
O1197 Eu1179 2.363 1_655 S
O1198 C1166 1.283 . S
O1198 Eu1185 2.363 . S
O1199 C1164 1.283 . S
O1199 Eu1185 2.363 1_655 S
O1200 C1167 1.283 . S
O1200 Eu1172 2.363 . S
O1201 C1165 1.283 . S
O1201 Eu1172 2.363 1_655 S
O1202 C1161 1.283 . S
O1202 Eu1180 2.363 . S
O1203 C1163 1.283 . S
O1203 Eu1180 2.363 . S
O1204 C1160 1.283 . S
O1204 Eu1179 2.363 . S
O1205 C1162 1.283 . S
O1205 Eu1179 2.363 . S
O1206 C1171 1.283 . S
O1206 Eu1175 2.363 . S
O1207 C1169 1.283 . S
O1207 Eu1175 2.363 . S
O1208 C1170 1.283 . S
O1208 Eu1176 2.363 . S
O1209 C1168 1.283 . S
O1209 Eu1176 2.363 . S
C1210 O1236 1.283 . S
C1210 O1254 1.283 . S
C1211 O1237 1.283 . S
C1211 O1252 1.283 . S
C1212 O1238 1.283 . S
C1212 O1255 1.283 . S
C1213 O1239 1.283 . S
C1213 O1253 1.283 . S
C1214 O1240 1.283 . S
C1214 O1249 1.283 . S
C1215 O1241 1.283 . S
C1215 O1251 1.283 . S
C1216 O1242 1.283 . S
C1216 O1248 1.283 . S
C1217 O1243 1.283 . S
C1217 O1250 1.283 . S
C1218 O1244 1.283 . S
C1218 O1259 1.283 . S
C1219 O1245 1.283 . S
C1219 O1257 1.283 . S
C1220 O1246 1.283 . S
C1220 O1258 1.283 . S
C1221 O1247 1.283 . S
C1221 O1256 1.283 . S
Eu1222 O1223 2.370 . S
Eu1222 O1224 2.370 . S
Eu1222 O1227 2.370 . S
Eu1222 O1228 2.370 . S
Eu1222 O1236 2.363 . S
Eu1222 O1237 2.363 . S
Eu1222 O1250 2.363 . S
Eu1222 O1251 2.363 . S
O1223 Eu1222 2.370 . S
O1223 Eu1225 2.370 1_565 S
O1223 Eu1230 2.370 1_565 S
O1224 Eu1222 2.370 . S
O1224 Eu1226 2.370 1_565 S
O1224 Eu1229 2.370 1_565 S
Eu1225 O1223 2.370 1_545 S
Eu1225 O1227 2.370 1_545 S
Eu1225 O1231 2.370 . S
Eu1225 O1232 2.370 . S
Eu1225 O1240 2.363 . S
Eu1225 O1241 2.363 1_545 S
Eu1225 O1256 2.363 . S
Eu1225 O1257 2.363 . S
Eu1226 O1224 2.370 1_545 S
Eu1226 O1228 2.370 1_545 S
Eu1226 O1233 2.370 . S
Eu1226 O1234 2.370 . S
Eu1226 O1242 2.363 . S
Eu1226 O1243 2.363 1_545 S
Eu1226 O1258 2.363 . S
Eu1226 O1259 2.363 . S
O1227 Eu1222 2.370 . S
O1227 Eu1225 2.370 1_565 S
O1227 Eu1229 2.370 1_565 S
O1228 Eu1222 2.370 . S
O1228 Eu1226 2.370 1_565 S
O1228 Eu1230 2.370 1_565 S
Eu1229 O1224 2.370 1_545 S
Eu1229 O1227 2.370 1_545 S
Eu1229 O1231 2.370 . S
Eu1229 O1234 2.370 . S
Eu1229 O1246 2.363 . S
Eu1229 O1247 2.363 . S
Eu1229 O1254 2.363 1_545 S
Eu1229 O1255 2.363 . S
Eu1230 O1223 2.370 1_545 S
Eu1230 O1228 2.370 1_545 S
Eu1230 O1232 2.370 . S
Eu1230 O1233 2.370 . S
Eu1230 O1244 2.363 . S
Eu1230 O1245 2.363 . S
Eu1230 O1252 2.363 1_545 S
Eu1230 O1253 2.363 . S
O1231 Eu1225 2.370 . S
O1231 Eu1229 2.370 . S
O1231 Eu1235 2.370 . S
O1232 Eu1225 2.370 . S
O1232 Eu1230 2.370 . S
O1232 Eu1235 2.370 . S
O1233 Eu1226 2.370 . S
O1233 Eu1230 2.370 . S
O1233 Eu1235 2.370 . S
O1234 Eu1226 2.370 . S
O1234 Eu1229 2.370 . S
O1234 Eu1235 2.370 . S
Eu1235 O1231 2.370 . S
Eu1235 O1232 2.370 . S
Eu1235 O1233 2.370 . S
Eu1235 O1234 2.370 . S
Eu1235 O1238 2.363 . S
Eu1235 O1239 2.363 . S
Eu1235 O1248 2.363 . S
Eu1235 O1249 2.363 . S
O1236 C1210 1.283 . S
O1236 Eu1222 2.363 . S
O1237 C1211 1.283 . S
O1237 Eu1222 2.363 . S
O1238 C1212 1.283 . S
O1238 Eu1235 2.363 . S
O1239 C1213 1.283 . S
O1239 Eu1235 2.363 . S
O1240 C1214 1.283 . S
O1240 Eu1225 2.363 . S
O1241 C1215 1.283 . S
O1241 Eu1225 2.363 1_565 S
O1242 C1216 1.283 . S
O1242 Eu1226 2.363 . S
O1243 C1217 1.283 . S
O1243 Eu1226 2.363 1_565 S
O1244 C1218 1.283 . S
O1244 Eu1230 2.363 . S
O1245 C1219 1.283 . S
O1245 Eu1230 2.363 . S
O1246 C1220 1.283 . S
O1246 Eu1229 2.363 . S
O1247 C1221 1.283 . S
O1247 Eu1229 2.363 . S
O1248 C1216 1.283 . S
O1248 Eu1235 2.363 . S
O1249 C1214 1.283 . S
O1249 Eu1235 2.363 . S
O1250 C1217 1.283 . S
O1250 Eu1222 2.363 . S
O1251 C1215 1.283 . S
O1251 Eu1222 2.363 . S
O1252 C1211 1.283 . S
O1252 Eu1230 2.363 1_565 S
O1253 C1213 1.283 . S
O1253 Eu1230 2.363 . S
O1254 C1210 1.283 . S
O1254 Eu1229 2.363 1_565 S
O1255 C1212 1.283 . S
O1255 Eu1229 2.363 . S
O1256 C1221 1.283 . S
O1256 Eu1225 2.363 . S
O1257 C1219 1.283 . S
O1257 Eu1225 2.363 . S
O1258 C1220 1.283 . S
O1258 Eu1226 2.363 . S
O1259 C1218 1.283 . S
O1259 Eu1226 2.363 . S
C966 C941 1.005 . S
C861 C964 1.031 . S
C965 C821 1.015 . S
C901 C967 0.997 . S
C1011 C661 1.025 . S
C1071 C701 1.005 . S
C741 C1010 1.018 . S
C1070 C781 1.017 . S
C501 C1012 1.010 . S
C1068 C541 1.027 . S
C581 C1013 1.015 . S
C621 C1069 1.018 . S
C1119 C461 1.009 . S
C381 C1118 1.018 . S
C341 C1120 1.025 . S
C1121 C421 1.015 . S
C181 C1162 1.018 1_655 S
C221 C1221 0.998 . S
C261 C1160 1.026 1_655 S
C301 C1220 1.022 . S
C1161 C21 1.017 1_455 S
C1218 C61 1.034 . S
C101 C1163 1.005 1_655 S
C1219 C141 1.009 1_545 S
C963 C15 3.697 . S
C42 C969 3.691 . S
C82 C961 3.705 1_655 S
C122 C968 3.713 1_565 S
C175 C960 3.711 . S
C970 C202 3.716 . S
C242 C962 3.697 1_655 S
C971 C295 3.694 . S
C1017 C135 3.690 . S
C2 C1060 3.696 1_655 S
C1015 C55 3.691 . S
C1062 C95 3.703 . S
C215 C1016 3.704 . S
C1061 C255 3.694 . S
C1014 C282 3.699 . S
C1063 C162 3.687 1_455 S
C1067 C322 3.692 . S
C375 C1066 3.698 . S
C1018 C335 3.702 . S
C1065 C415 3.704 . S
C455 C1021 3.700 . S
C442 C1064 3.701 . S
C1020 C362 3.699 . S
C1019 C402 3.693 . S
C1113 C495 3.704 . S
C1116 C522 3.696 . S
C562 C1112 3.699 . S
C1114 C602 3.707 . S
C1110 C655 3.704 . S
C682 C1115 3.707 . S
C722 C1111 3.703 . S
C1117 C775 3.700 . S
C1171 C615 3.688 . S
C482 C1210 3.698 . S
C1170 C535 3.691 . S
C1212 C575 3.702 . S
C1169 C695 3.702 . S
C735 C1211 3.696 . S
C1168 C762 3.700 . S
C1213 C642 3.688 . S
C1217 C815 3.689 . S
C855 C1216 3.687 . S
C1164 C802 3.705 . S
C895 C1215 3.713 . S
C1167 C935 3.693 . S
C1214 C922 3.706 . S
C1165 C842 3.690 . S
C882 C1166 3.704 . S
