# Generated by pormake.
# Topology bwt, (3,3)-cn, num edge types: 1
# Building blocks:
#     Node 0, Type 0, BuildingBlock: OLANEW_clean_sbu_2, # of connection points: 3
#     Node 1, Type 0, BuildingBlock: OLANEW_clean_sbu_2, # of connection points: 3
#     Node 2, Type 0, BuildingBlock: OLANEW_clean_sbu_2, # of connection points: 3
#     Node 3, Type 0, BuildingBlock: OLANEW_clean_sbu_2, # of connection points: 3
#     Node 4, Type 0, BuildingBlock: OLANEW_clean_sbu_2, # of connection points: 3
#     Node 5, Type 0, BuildingBlock: OLANEW_clean_sbu_2, # of connection points: 3
#     Node 6, Type 0, BuildingBlock: OLANEW_clean_sbu_2, # of connection points: 3
#     Node 7, Type 0, BuildingBlock: OLANEW_clean_sbu_2, # of connection points: 3
#     Node 8, Type 0, BuildingBlock: OLANEW_clean_sbu_2, # of connection points: 3
#     Node 9, Type 0, BuildingBlock: OLANEW_clean_sbu_2, # of connection points: 3
#     Node 10, Type 0, BuildingBlock: OLANEW_clean_sbu_2, # of connection points: 3
#     Node 11, Type 0, BuildingBlock: OLANEW_clean_sbu_2, # of connection points: 3
#     Node 12, Type 0, BuildingBlock: OLANEW_clean_sbu_2, # of connection points: 3
#     Node 13, Type 0, BuildingBlock: OLANEW_clean_sbu_2, # of connection points: 3
#     Node 14, Type 0, BuildingBlock: OLANEW_clean_sbu_2, # of connection points: 3
#     Node 15, Type 0, BuildingBlock: OLANEW_clean_sbu_2, # of connection points: 3
#     Node 16, Type 0, BuildingBlock: OLANEW_clean_sbu_2, # of connection points: 3
#     Node 17, Type 0, BuildingBlock: OLANEW_clean_sbu_2, # of connection points: 3
#     Node 18, Type 0, BuildingBlock: OLANEW_clean_sbu_2, # of connection points: 3
#     Node 19, Type 0, BuildingBlock: OLANEW_clean_sbu_2, # of connection points: 3
#     Node 20, Type 0, BuildingBlock: OLANEW_clean_sbu_2, # of connection points: 3
#     Node 21, Type 0, BuildingBlock: OLANEW_clean_sbu_2, # of connection points: 3
#     Node 22, Type 0, BuildingBlock: OLANEW_clean_sbu_2, # of connection points: 3
#     Node 23, Type 0, BuildingBlock: OLANEW_clean_sbu_2, # of connection points: 3
#     Node 24, Type 1, BuildingBlock: OLANEW_clean_sbu_2, # of connection points: 3
#     Node 25, Type 1, BuildingBlock: OLANEW_clean_sbu_2, # of connection points: 3
#     Node 26, Type 1, BuildingBlock: OLANEW_clean_sbu_2, # of connection points: 3
#     Node 27, Type 1, BuildingBlock: OLANEW_clean_sbu_2, # of connection points: 3
#     Node 28, Type 1, BuildingBlock: OLANEW_clean_sbu_2, # of connection points: 3
#     Node 29, Type 1, BuildingBlock: OLANEW_clean_sbu_2, # of connection points: 3
#     Node 30, Type 1, BuildingBlock: OLANEW_clean_sbu_2, # of connection points: 3
#     Node 31, Type 1, BuildingBlock: OLANEW_clean_sbu_2, # of connection points: 3
#     Node 32, Type 1, BuildingBlock: OLANEW_clean_sbu_2, # of connection points: 3
#     Node 33, Type 1, BuildingBlock: OLANEW_clean_sbu_2, # of connection points: 3
#     Node 34, Type 1, BuildingBlock: OLANEW_clean_sbu_2, # of connection points: 3
#     Node 35, Type 1, BuildingBlock: OLANEW_clean_sbu_2, # of connection points: 3
#     Node 36, Type 1, BuildingBlock: OLANEW_clean_sbu_2, # of connection points: 3
#     Node 37, Type 1, BuildingBlock: OLANEW_clean_sbu_2, # of connection points: 3
#     Node 38, Type 1, BuildingBlock: OLANEW_clean_sbu_2, # of connection points: 3
#     Node 39, Type 1, BuildingBlock: OLANEW_clean_sbu_2, # of connection points: 3
#     Node 40, Type 1, BuildingBlock: OLANEW_clean_sbu_2, # of connection points: 3
#     Node 41, Type 1, BuildingBlock: OLANEW_clean_sbu_2, # of connection points: 3
#     Node 42, Type 1, BuildingBlock: OLANEW_clean_sbu_2, # of connection points: 3
#     Node 43, Type 1, BuildingBlock: OLANEW_clean_sbu_2, # of connection points: 3
#     Node 44, Type 1, BuildingBlock: OLANEW_clean_sbu_2, # of connection points: 3
#     Node 45, Type 1, BuildingBlock: OLANEW_clean_sbu_2, # of connection points: 3
#     Node 46, Type 1, BuildingBlock: OLANEW_clean_sbu_2, # of connection points: 3
#     Node 47, Type 1, BuildingBlock: OLANEW_clean_sbu_2, # of connection points: 3
#     Edge 48, Type (0, 1), None
#     Edge 49, Type (0, 1), None
#     Edge 50, Type (0, 1), None
#     Edge 51, Type (0, 1), None
#     Edge 52, Type (0, 1), None
#     Edge 53, Type (0, 1), None
#     Edge 54, Type (0, 1), None
#     Edge 55, Type (0, 1), None
#     Edge 56, Type (0, 1), None
#     Edge 57, Type (0, 1), None
#     Edge 58, Type (0, 1), None
#     Edge 59, Type (0, 1), None
#     Edge 60, Type (0, 1), None
#     Edge 61, Type (0, 1), None
#     Edge 62, Type (0, 1), None
#     Edge 63, Type (0, 1), None
#     Edge 64, Type (0, 1), None
#     Edge 65, Type (0, 1), None
#     Edge 66, Type (0, 1), None
#     Edge 67, Type (0, 1), None
#     Edge 68, Type (0, 1), None
#     Edge 69, Type (0, 1), None
#     Edge 70, Type (0, 1), None
#     Edge 71, Type (0, 1), None
#     Edge 72, Type (0, 1), None
#     Edge 73, Type (0, 1), None
#     Edge 74, Type (0, 1), None
#     Edge 75, Type (0, 1), None
#     Edge 76, Type (0, 1), None
#     Edge 77, Type (0, 1), None
#     Edge 78, Type (0, 1), None
#     Edge 79, Type (0, 1), None
#     Edge 80, Type (0, 1), None
#     Edge 81, Type (0, 1), None
#     Edge 82, Type (0, 1), None
#     Edge 83, Type (0, 1), None
#     Edge 84, Type (0, 1), None
#     Edge 85, Type (0, 1), None
#     Edge 86, Type (0, 1), None
#     Edge 87, Type (0, 1), None
#     Edge 88, Type (0, 1), None
#     Edge 89, Type (0, 1), None
#     Edge 90, Type (0, 1), None
#     Edge 91, Type (0, 1), None
#     Edge 92, Type (0, 1), None
#     Edge 93, Type (0, 1), None
#     Edge 94, Type (0, 1), None
#     Edge 95, Type (0, 1), None
#     Edge 96, Type (0, 1), None
#     Edge 97, Type (0, 1), None
#     Edge 98, Type (0, 1), None
#     Edge 99, Type (0, 1), None
#     Edge 100, Type (0, 1), None
#     Edge 101, Type (0, 1), None
#     Edge 102, Type (0, 1), None
#     Edge 103, Type (0, 1), None
#     Edge 104, Type (0, 1), None
#     Edge 105, Type (0, 1), None
#     Edge 106, Type (0, 1), None
#     Edge 107, Type (0, 1), None
#     Edge 108, Type (0, 1), None
#     Edge 109, Type (0, 1), None
#     Edge 110, Type (0, 1), None
#     Edge 111, Type (0, 1), None
#     Edge 112, Type (0, 1), None
#     Edge 113, Type (0, 1), None
#     Edge 114, Type (0, 1), None
#     Edge 115, Type (0, 1), None
#     Edge 116, Type (0, 1), None
#     Edge 117, Type (0, 1), None
#     Edge 118, Type (0, 1), None
#     Edge 119, Type (0, 1), None
# Relax obj value: 0.027
# Max RMSD: 0.104
# Mean RMSD: 0.059
data_MOF--net-bwt--node1-OLANEW_clean_sbu_2--node2-OLANEW_clean_sbu_2--edge1-none
_symmetry_space_group_name_H-M    P1
_symmetry_Int_Tables_number       1
_symmetry_cell_setting            triclinic
loop_
_symmetry_equiv_pos_as_xyz
'x, y, z'
_cell_length_a     32.428514
_cell_length_b     32.428313
_cell_length_c     32.428794
_cell_angle_alpha  92.941075
_cell_angle_beta   92.941231
_cell_angle_gamma 92.941048
loop_
_atom_site_label
_atom_site_type_symbol
_atom_site_fract_x
_atom_site_fract_y
_atom_site_fract_z
_atom_type_partial_charge
O0 O 0.27671 0.45458 0.49903 0.0
Cd1 Cd 0.27071 0.49196 0.43607 0.0
O2 O 0.27548 0.5101 0.54103 0.0
Cd3 Cd 0.28054 0.55123 0.48965 0.0
O4 O 0.30811 0.58253 0.43847 0.0
C5 C 0.29042 0.58226 0.40256 0.0
O6 O 0.25327 0.56449 0.39562 0.0
C7 C 0.27637 0.47105 0.53544 0.0
C8 C 0.19917 0.46738 0.3882 0.0
O9 O 0.23335 0.45067 0.38166 0.0
O10 O 0.19858 0.49534 0.41751 0.0
O11 O 0.21231 0.49877 0.7648 0.0
Cd12 Cd 0.20035 0.4287 0.73424 0.0
O13 O 0.22715 0.47297 0.82475 0.0
Cd14 Cd 0.18271 0.42145 0.80647 0.0
O15 O 0.11744 0.40394 0.79068 0.0
C16 C 0.09921 0.42275 0.76214 0.0
O17 O 0.12045 0.44977 0.74176 0.0
C18 C 0.22876 0.50315 0.80128 0.0
C19 C 0.27977 0.41152 0.71452 0.0
O20 O 0.26673 0.40294 0.74987 0.0
O21 O 0.25432 0.42501 0.68753 0.0
O22 O 0.85442 0.96256 0.54962 0.0
Cd23 Cd 0.89386 0.97909 0.61509 0.0
O24 O 0.84941 0.89498 0.55475 0.0
Cd25 Cd 0.89674 0.89986 0.60558 0.0
O26 O 0.95034 0.91621 0.64809 0.0
C27 C 0.9469 0.9198 0.68692 0.0
O28 O 0.91066 0.9126 0.7022 0.0
C29 C 0.83979 0.92698 0.53615 0.0
C30 C 0.84319 0.0235 0.66603 0.0
O31 O 0.84268 0.98395 0.66562 0.0
O32 O 0.86847 0.04233 0.64338 0.0
O33 O 0.74834 0.0159 0.12721 0.0
Cd34 Cd 0.73929 0.99139 0.19643 0.0
O35 O 0.68699 0.04241 0.12477 0.0
Cd36 Cd 0.66945 0.01362 0.18105 0.0
O37 O 0.65745 0.96381 0.22233 0.0
C38 C 0.66678 0.92797 0.20955 0.0
O39 O 0.68223 0.92292 0.17309 0.0
C40 C 0.72125 0.03633 0.10863 0.0
C41 C 0.80094 0.94385 0.22854 0.0
O42 O 0.77027 0.92679 0.20639 0.0
O43 O 0.80312 0.98329 0.23454 0.0
O44 O 0.49888 0.27679 0.45466 0.0
Cd45 Cd 0.43592 0.27078 0.49204 0.0
O46 O 0.54088 0.27556 0.51018 0.0
Cd47 Cd 0.4895 0.28062 0.5513 0.0
O48 O 0.43833 0.30819 0.58261 0.0
C49 C 0.40241 0.2905 0.58233 0.0
O50 O 0.39548 0.25335 0.56456 0.0
C51 C 0.53529 0.27645 0.47112 0.0
C52 C 0.38805 0.19925 0.46746 0.0
O53 O 0.38151 0.23343 0.45075 0.0
O54 O 0.41736 0.19866 0.49541 0.0
O55 O 0.12706 0.74841 0.01598 0.0
Cd56 Cd 0.19629 0.73936 0.99147 0.0
O57 O 0.12463 0.68707 0.04249 0.0
Cd58 Cd 0.18091 0.66953 0.0137 0.0
O59 O 0.22219 0.65753 0.96389 0.0
C60 C 0.2094 0.66686 0.92805 0.0
O61 O 0.17294 0.68231 0.923 0.0
C62 C 0.10848 0.72131 0.03642 0.0
C63 C 0.22839 0.80101 0.94393 0.0
O64 O 0.20625 0.77034 0.92688 0.0
O65 O 0.2344 0.8032 0.98337 0.0
O66 O 0.76466 0.21239 0.49885 0.0
Cd67 Cd 0.73409 0.20043 0.42878 0.0
O68 O 0.8246 0.22722 0.47305 0.0
Cd69 Cd 0.80633 0.18279 0.42152 0.0
O70 O 0.79054 0.11752 0.40402 0.0
C71 C 0.762 0.09928 0.42282 0.0
O72 O 0.74161 0.12052 0.44984 0.0
C73 C 0.80113 0.22884 0.50322 0.0
C74 C 0.71438 0.27984 0.41159 0.0
O75 O 0.74973 0.26681 0.40302 0.0
O76 O 0.68738 0.2544 0.42508 0.0
O77 O 0.54946 0.8545 0.96263 0.0
Cd78 Cd 0.61494 0.89394 0.97917 0.0
O79 O 0.5546 0.84949 0.89506 0.0
Cd80 Cd 0.60543 0.89682 0.89993 0.0
O81 O 0.64794 0.95042 0.91629 0.0
C82 C 0.68677 0.94698 0.91987 0.0
O83 O 0.70205 0.91074 0.91268 0.0
C84 C 0.53599 0.83986 0.92706 0.0
C85 C 0.66588 0.84327 0.02357 0.0
O86 O 0.66547 0.84275 0.98402 0.0
O87 O 0.64323 0.86854 0.0424 0.0
O88 O 0.45451 0.49896 0.27686 0.0
Cd89 Cd 0.49188 0.43599 0.27086 0.0
O90 O 0.51003 0.54096 0.27563 0.0
Cd91 Cd 0.55115 0.48958 0.28069 0.0
O92 O 0.58245 0.4384 0.30826 0.0
C93 C 0.58218 0.40249 0.29057 0.0
O94 O 0.56441 0.39555 0.25342 0.0
C95 C 0.47097 0.53537 0.27652 0.0
C96 C 0.46731 0.38813 0.19932 0.0
O97 O 0.45059 0.38158 0.2335 0.0
O98 O 0.49526 0.41744 0.19873 0.0
O99 O 0.01583 0.12713 0.74849 0.0
Cd100 Cd 0.99132 0.19636 0.73944 0.0
O101 O 0.04234 0.1247 0.68715 0.0
Cd102 Cd 0.01355 0.18098 0.66961 0.0
O103 O 0.96374 0.22227 0.6576 0.0
C104 C 0.9279 0.20948 0.66693 0.0
O105 O 0.92285 0.17302 0.68238 0.0
C106 C 0.03627 0.10856 0.72139 0.0
C107 C 0.94378 0.22847 0.80108 0.0
O108 O 0.92672 0.20632 0.77042 0.0
O109 O 0.98322 0.23447 0.80327 0.0
O110 O 0.49869 0.76472 0.21245 0.0
Cd111 Cd 0.42862 0.73416 0.2005 0.0
O112 O 0.4729 0.82467 0.22729 0.0
Cd113 Cd 0.42137 0.8064 0.18285 0.0
O114 O 0.40386 0.79061 0.11759 0.0
C115 C 0.42267 0.76207 0.09935 0.0
O116 O 0.44969 0.74168 0.12059 0.0
C117 C 0.50307 0.8012 0.22891 0.0
C118 C 0.41144 0.71445 0.27991 0.0
O119 O 0.40286 0.7498 0.26687 0.0
O120 O 0.42492 0.68746 0.25447 0.0
O121 O 0.96248 0.54955 0.85456 0.0
Cd122 Cd 0.97902 0.61502 0.89401 0.0
O123 O 0.89491 0.55469 0.84956 0.0
Cd124 Cd 0.89978 0.60552 0.89689 0.0
O125 O 0.91614 0.64802 0.95049 0.0
C126 C 0.91972 0.68686 0.94705 0.0
O127 O 0.91253 0.70214 0.91081 0.0
C128 C 0.92691 0.53608 0.83993 0.0
C129 C 0.02343 0.66596 0.84334 0.0
O130 O 0.98388 0.66555 0.84282 0.0
O131 O 0.04226 0.64331 0.86861 0.0
O132 O 0.7683 0.41475 0.50267 0.0
Cd133 Cd 0.82268 0.37163 0.52913 0.0
O134 O 0.74772 0.42228 0.56585 0.0
Cd135 Cd 0.70206 0.4414 0.60934 0.0
O136 O 0.64004 0.45639 0.62598 0.0
C137 C 0.6285 0.49299 0.62287 0.0
O138 O 0.65493 0.5221 0.61228 0.0
C139 C 0.7433 0.42951 0.52771 0.0
C140 C 0.84034 0.38759 0.6136 0.0
O141 O 0.86022 0.40725 0.58694 0.0
O142 O 0.81224 0.36013 0.60055 0.0
O143 O 0.73008 0.71439 0.13825 0.0
Cd144 Cd 0.69541 0.74546 0.19657 0.0
O145 O 0.76664 0.67959 0.18189 0.0
Cd146 Cd 0.81576 0.63815 0.19769 0.0
O147 O 0.86934 0.6011 0.20905 0.0
C148 C 0.87851 0.57413 0.1817 0.0
O149 O 0.85533 0.56842 0.1473 0.0
C150 C 0.75776 0.68888 0.14495 0.0
C151 C 0.62222 0.70234 0.21357 0.0
O152 O 0.62228 0.73072 0.18751 0.0
O153 O 0.65669 0.69393 0.23146 0.0
O154 O 0.30973 0.02301 0.39022 0.0
Cd155 Cd 0.33333 0.02553 0.3198 0.0
O156 O 0.25283 0.9908 0.36331 0.0
Cd157 Cd 0.18964 0.96532 0.36783 0.0
O158 O 0.12636 0.94847 0.38265 0.0
C159 C 0.12007 0.92416 0.41141 0.0
O160 O 0.15165 0.90872 0.43106 0.0
C161 C 0.27414 0.00626 0.3949 0.0
C162 C 0.38733 0.96455 0.29942 0.0
O163 O 0.40104 5e-05 0.31496 0.0
O164 O 0.34815 0.95757 0.29384 0.0
O165 O 0.31374 0.90297 0.81478 0.0
Cd166 Cd 0.27206 0.86758 0.75705 0.0
O167 O 0.36167 0.9212 0.77274 0.0
Cd168 Cd 0.42222 0.95063 0.76125 0.0
O169 O 0.48497 0.9785 0.77292 0.0
C170 C 0.48983 0.01267 0.79404 0.0
O171 O 0.45725 0.03134 0.80622 0.0
C172 C 0.34837 0.92132 0.80902 0.0
C173 C 0.21053 0.91694 0.72742 0.0
O174 O 0.20352 0.89228 0.75618 0.0
O175 O 0.24633 0.91811 0.71241 0.0
O176 O 0.50252 0.76839 0.41481 0.0
Cd177 Cd 0.52899 0.82276 0.3717 0.0
O178 O 0.5657 0.74781 0.42235 0.0
Cd179 Cd 0.60919 0.70215 0.44147 0.0
O180 O 0.62583 0.64013 0.45646 0.0
C181 C 0.62273 0.62858 0.49305 0.0
O182 O 0.61213 0.65501 0.52216 0.0
C183 C 0.52756 0.74339 0.42957 0.0
C184 C 0.61346 0.84042 0.38766 0.0
O185 O 0.5868 0.86031 0.40732 0.0
O186 O 0.60041 0.81232 0.36019 0.0
O187 O 0.81463 0.31382 0.90304 0.0
Cd188 Cd 0.7569 0.27213 0.86766 0.0
O189 O 0.77259 0.36174 0.92127 0.0
Cd190 Cd 0.7611 0.4223 0.95071 0.0
O191 O 0.77277 0.48504 0.97858 0.0
C192 C 0.79389 0.48991 0.01274 0.0
O193 O 0.80607 0.45732 0.03141 0.0
C194 C 0.80887 0.34844 0.9214 0.0
C195 C 0.72727 0.21061 0.91702 0.0
O196 O 0.75603 0.20359 0.89235 0.0
O197 O 0.71226 0.2464 0.91818 0.0
O198 O 0.13811 0.73016 0.71446 0.0
Cd199 Cd 0.19643 0.69549 0.74553 0.0
O200 O 0.18175 0.76672 0.67966 0.0
Cd201 Cd 0.19755 0.81584 0.63822 0.0
O202 O 0.20891 0.86942 0.60117 0.0
C203 C 0.18156 0.87859 0.5742 0.0
O204 O 0.14716 0.85541 0.56849 0.0
C205 C 0.14481 0.75785 0.68895 0.0
C206 C 0.21343 0.6223 0.70241 0.0
O207 O 0.18737 0.62237 0.7308 0.0
O208 O 0.23132 0.65678 0.694 0.0
O209 O 0.39007 0.3098 0.02309 0.0
Cd210 Cd 0.31965 0.3334 0.0256 0.0
O211 O 0.36317 0.2529 0.99087 0.0
Cd212 Cd 0.36769 0.18971 0.96539 0.0
O213 O 0.38251 0.12643 0.94855 0.0
C214 C 0.41128 0.12014 0.92423 0.0
O215 O 0.43092 0.15172 0.90879 0.0
C216 C 0.39475 0.27421 0.00633 0.0
C217 C 0.29928 0.3874 0.96463 0.0
O218 O 0.31481 0.40111 0.00013 0.0
O219 O 0.29369 0.34822 0.95764 0.0
O220 O 0.41467 0.5026 0.76844 0.0
Cd221 Cd 0.37155 0.52906 0.82282 0.0
O222 O 0.4222 0.56578 0.74787 0.0
Cd223 Cd 0.44132 0.60927 0.70221 0.0
O224 O 0.45631 0.62592 0.64019 0.0
C225 C 0.4929 0.62281 0.62864 0.0
O226 O 0.52201 0.61222 0.65508 0.0
C227 C 0.42942 0.52764 0.74345 0.0
C228 C 0.3875 0.61353 0.84049 0.0
O229 O 0.40717 0.58687 0.86037 0.0
O230 O 0.36004 0.60048 0.81239 0.0
O231 O 0.9029 0.8147 0.31389 0.0
Cd232 Cd 0.86751 0.75697 0.27221 0.0
O233 O 0.92113 0.77267 0.36182 0.0
Cd234 Cd 0.95056 0.76118 0.42237 0.0
O235 O 0.97844 0.77285 0.48512 0.0
C236 C 0.0126 0.79398 0.48998 0.0
O237 O 0.03127 0.80615 0.45739 0.0
C238 C 0.92125 0.80895 0.34852 0.0
C239 C 0.91687 0.72734 0.21068 0.0
O240 O 0.8922 0.75611 0.20367 0.0
O241 O 0.91804 0.71233 0.24648 0.0
O242 O 0.71431 0.13818 0.73023 0.0
Cd243 Cd 0.74539 0.1965 0.69556 0.0
O244 O 0.67951 0.18182 0.76679 0.0
Cd245 Cd 0.63808 0.19762 0.81591 0.0
O246 O 0.60103 0.20898 0.86949 0.0
C247 C 0.57406 0.18163 0.87867 0.0
O248 O 0.56835 0.14722 0.85549 0.0
C249 C 0.6888 0.14488 0.75792 0.0
C250 C 0.70227 0.2135 0.62237 0.0
O251 O 0.73065 0.18744 0.62244 0.0
O252 O 0.69386 0.23139 0.65685 0.0
O253 O 0.02294 0.39015 0.30988 0.0
Cd254 Cd 0.02545 0.31973 0.33347 0.0
O255 O 0.99072 0.36324 0.25297 0.0
Cd256 Cd 0.96524 0.36776 0.18978 0.0
O257 O 0.9484 0.38258 0.12651 0.0
C258 C 0.92409 0.41135 0.12021 0.0
O259 O 0.90864 0.431 0.15179 0.0
C260 C 0.00618 0.39483 0.27428 0.0
C261 C 0.96448 0.29935 0.38748 0.0
O262 O -2e-05 0.31489 0.40119 0.0
O263 O 0.95749 0.29377 0.3483 0.0
O264 O 0.28737 0.40687 0.56446 0.0
Cd265 Cd 0.30203 0.36021 0.61963 0.0
O266 O 0.27797 0.45949 0.60767 0.0
Cd267 Cd 0.26541 0.52362 0.62509 0.0
O268 O 0.25044 0.58311 0.65403 0.0
C269 C 0.22301 0.58347 0.68064 0.0
O270 O 0.20401 0.54854 0.68944 0.0
C271 C 0.28006 0.44473 0.5708 0.0
C272 C 0.36789 0.31344 0.59743 0.0
O273 O 0.37433 0.34903 0.61631 0.0
O274 O 0.33047 0.29938 0.58994 0.0
O275 O 0.24748 0.57377 0.79331 0.0
Cd276 Cd 0.27732 0.63979 0.82277 0.0
O277 O 0.26733 0.54782 0.85167 0.0
Cd278 Cd 0.27535 0.49842 0.8944 0.0
O279 O 0.29188 0.45475 0.94088 0.0
C280 C 0.28789 0.41597 0.93284 0.0
O281 O 0.27319 0.40163 0.89611 0.0
C282 C 0.24872 0.54315 0.81614 0.0
C283 C 0.23404 0.65898 0.89219 0.0
O284 O 0.2677 0.64011 0.89558 0.0
O285 O 0.22165 0.6699 0.85643 0.0
O286 O 0.80194 0.95627 0.48196 0.0
Cd287 Cd 0.75351 0.96847 0.42433 0.0
O288 O 0.7883 0.89024 0.49169 0.0
Cd289 Cd 0.73504 0.88584 0.44717 0.0
O290 O 0.6701 0.87626 0.42531 0.0
C291 C 0.65786 0.84861 0.39758 0.0
O292 O 0.6849 0.82574 0.37984 0.0
C293 C 0.80927 0.92392 0.50096 0.0
C294 C 0.75649 0.05405 0.41988 0.0
O295 O 0.78018 0.03209 0.39843 0.0
O296 O 0.73017 0.03556 0.44169 0.0
O297 O 0.75955 0.03957 0.04841 0.0
Cd298 Cd 0.76373 0.04728 0.9743 0.0
O299 O 0.70186 0.07261 0.04968 0.0
Cd300 Cd 0.71164 0.10088 0.99097 0.0
O301 O 0.72922 0.14418 0.94459 0.0
C302 C 0.71293 0.17899 0.94453 0.0
O303 O 0.68498 0.1875 0.97115 0.0
C304 C 0.7283 0.05081 0.06735 0.0
C305 C 0.71387 0.98235 0.93608 0.0
O306 O 0.69898 0.01733 0.94499 0.0
O307 O 0.75257 0.97837 0.9437 0.0
O308 O 0.56431 0.28744 0.40694 0.0
Cd309 Cd 0.61948 0.3021 0.36028 0.0
O310 O 0.60752 0.27804 0.45956 0.0
Cd311 Cd 0.62494 0.26549 0.52369 0.0
O312 O 0.65388 0.25052 0.58318 0.0
C313 C 0.68049 0.22309 0.58354 0.0
O314 O 0.68929 0.20409 0.54861 0.0
C315 C 0.57066 0.28014 0.44481 0.0
C316 C 0.59728 0.36797 0.31351 0.0
O317 O 0.61616 0.37441 0.34911 0.0
O318 O 0.58979 0.33055 0.29945 0.0
O319 O 0.04827 0.75962 0.03965 0.0
Cd320 Cd 0.97415 0.76381 0.04735 0.0
O321 O 0.04953 0.70193 0.07269 0.0
Cd322 Cd 0.99082 0.71172 0.10096 0.0
O323 O 0.94444 0.72929 0.14426 0.0
C324 C 0.94438 0.71301 0.17907 0.0
O325 O 0.97101 0.68506 0.18757 0.0
C326 C 0.06721 0.72839 0.05088 0.0
C327 C 0.93594 0.71395 0.98242 0.0
O328 O 0.94484 0.69906 0.01741 0.0
O329 O 0.94355 0.75265 0.97845 0.0
O330 O 0.79316 0.24756 0.57384 0.0
Cd331 Cd 0.82262 0.2774 0.63986 0.0
O332 O 0.85153 0.26741 0.54789 0.0
Cd333 Cd 0.89425 0.27543 0.4985 0.0
O334 O 0.94073 0.29196 0.45483 0.0
C335 C 0.93269 0.28797 0.41604 0.0
O336 O 0.89596 0.27327 0.40171 0.0
C337 C 0.81599 0.2488 0.54322 0.0
C338 C 0.89204 0.23412 0.65906 0.0
O339 O 0.89544 0.26778 0.64018 0.0
O340 O 0.85628 0.22173 0.66997 0.0
O341 O 0.4818 0.80202 0.95634 0.0
Cd342 Cd 0.42418 0.75358 0.96854 0.0
O343 O 0.49154 0.78838 0.89031 0.0
Cd344 Cd 0.44702 0.73512 0.88591 0.0
O345 O 0.42516 0.67017 0.87633 0.0
C346 C 0.39743 0.65794 0.84868 0.0
O347 O 0.37969 0.68498 0.82581 0.0
C348 C 0.50081 0.80935 0.92399 0.0
C349 C 0.41973 0.75656 0.05411 0.0
O350 O 0.39827 0.78025 0.03216 0.0
O351 O 0.44153 0.73024 0.03563 0.0
O352 O 0.40679 0.56439 0.28752 0.0
Cd353 Cd 0.36013 0.61955 0.30217 0.0
O354 O 0.45941 0.60759 0.27811 0.0
Cd355 Cd 0.52354 0.62501 0.26556 0.0
O356 O 0.58303 0.65396 0.25059 0.0
C357 C 0.58339 0.68056 0.22315 0.0
O358 O 0.54846 0.68936 0.20415 0.0
C359 C 0.44465 0.57073 0.28021 0.0
C360 C 0.31336 0.59736 0.36804 0.0
O361 O 0.34895 0.61624 0.37448 0.0
O362 O 0.2993 0.58986 0.33062 0.0
O363 O 0.0395 0.04834 0.75969 0.0
Cd364 Cd 0.0472 0.97422 0.76388 0.0
O365 O 0.07254 0.0496 0.70201 0.0
Cd366 Cd 0.10081 0.99089 0.71179 0.0
O367 O 0.14411 0.94451 0.72937 0.0
C368 C 0.17892 0.94445 0.71308 0.0
O369 O 0.18743 0.97108 0.68513 0.0
C370 C 0.05073 0.06728 0.72846 0.0
C371 C 0.98227 0.93601 0.71402 0.0
O372 O 0.01726 0.94492 0.69913 0.0
O373 O 0.9783 0.94362 0.75272 0.0
O374 O 0.57369 0.79323 0.24762 0.0
Cd375 Cd 0.63971 0.82268 0.27746 0.0
O376 O 0.54774 0.85159 0.26747 0.0
Cd377 Cd 0.49835 0.89432 0.27549 0.0
O378 O 0.45468 0.9408 0.29203 0.0
C379 C 0.4159 0.93276 0.28804 0.0
O380 O 0.40156 0.89603 0.27333 0.0
C381 C 0.54307 0.81605 0.24886 0.0
C382 C 0.65891 0.8921 0.23419 0.0
O383 O 0.64003 0.8955 0.26784 0.0
O384 O 0.66982 0.85634 0.22179 0.0
O385 O 0.95619 0.48189 0.80209 0.0
Cd386 Cd 0.9684 0.42426 0.75365 0.0
O387 O 0.89017 0.49163 0.78844 0.0
Cd388 Cd 0.88576 0.4471 0.73518 0.0
O389 O 0.87618 0.42524 0.67024 0.0
C390 C 0.84853 0.39751 0.65801 0.0
O391 O 0.82566 0.37978 0.68504 0.0
C392 C 0.92385 0.50089 0.80941 0.0
C393 C 0.05397 0.41981 0.75663 0.0
O394 O 0.03202 0.39836 0.78032 0.0
O395 O 0.03549 0.44161 0.73031 0.0
O396 O 0.68742 0.47273 0.53817 0.0
Cd397 Cd 0.62245 0.50092 0.51493 0.0
O398 O 0.69726 0.45189 0.47432 0.0
Cd399 Cd 0.72528 0.41289 0.42798 0.0
O400 O 0.73668 0.35001 0.40708 0.0
C401 C 0.70694 0.32395 0.41172 0.0
O402 O 0.67228 0.33713 0.42541 0.0
C403 C 0.7084 0.453 0.51257 0.0
C404 C 0.62542 0.58481 0.50139 0.0
O405 O 0.61814 0.57199 0.53715 0.0
O406 O 0.63241 0.55819 0.47234 0.0
O407 O 0.80116 0.63961 0.11582 0.0
Cd408 Cd 0.83843 0.61004 0.05865 0.0
O409 O 0.77708 0.68538 0.07483 0.0
Cd410 Cd 0.74238 0.73895 0.05828 0.0
O411 O 0.70911 0.78662 0.02704 0.0
C412 C 0.69034 0.81431 0.04655 0.0
O413 O 0.69075 0.81513 0.0871 0.0
C414 C 0.77951 0.67059 0.11039 0.0
C415 C 0.80785 0.53147 0.02941 0.0
O416 O 0.83451 0.53619 0.06003 0.0
O417 O 0.79507 0.56378 0.01274 0.0
O418 O 0.22566 0.98278 0.44234 0.0
Cd419 Cd 0.19629 0.98919 0.51035 0.0
O420 O 0.27304 0.02974 0.46579 0.0
Cd421 Cd 0.32478 0.07492 0.46165 0.0
O422 O 0.36808 0.12852 0.47337 0.0
C423 C 0.36159 0.162 0.45605 0.0
O424 O 0.32955 0.16373 0.42986 0.0
C425 C 0.25723 0.00598 0.43613 0.0
C426 C 0.1873 0.91603 0.55116 0.0
O427 O 0.15851 0.92707 0.52619 0.0
O428 O 0.22067 0.93904 0.55638 0.0
O429 O 0.40536 0.96425 0.83768 0.0
Cd430 Cd 0.44645 0.99795 0.89633 0.0
O431 O 0.36217 0.9396 0.88098 0.0
Cd432 Cd 0.30963 0.902 0.90048 0.0
O433 O 0.27267 0.86008 0.93613 0.0
C434 C 0.24835 0.83172 0.91879 0.0
O435 O 0.24409 0.82795 0.87826 0.0
C436 C 0.37283 0.94262 0.84404 0.0
C437 C 0.42318 0.07796 0.91433 0.0
O438 O 0.45224 0.07127 0.88994 0.0
O439 O 0.40514 0.04701 0.93029 0.0
O440 O 0.53802 0.68751 0.4728 0.0
Cd441 Cd 0.51478 0.62254 0.50099 0.0
O442 O 0.47417 0.69734 0.45195 0.0
Cd443 Cd 0.42783 0.72536 0.41295 0.0
O444 O 0.40693 0.73676 0.35008 0.0
C445 C 0.41157 0.70702 0.32402 0.0
O446 O 0.42525 0.67236 0.3372 0.0
C447 C 0.51242 0.70849 0.45307 0.0
C448 C 0.50124 0.6255 0.58487 0.0
O449 O 0.537 0.61822 0.57205 0.0
O450 O 0.47219 0.6325 0.55825 0.0
O451 O 0.83753 0.40543 0.96433 0.0
Cd452 Cd 0.89618 0.44652 0.99803 0.0
O453 O 0.88083 0.36224 0.93968 0.0
Cd454 Cd 0.90033 0.3097 0.90208 0.0
O455 O 0.93598 0.27274 0.86015 0.0
C456 C 0.91864 0.24842 0.8318 0.0
O457 O 0.87811 0.24416 0.82803 0.0
C458 C 0.84389 0.3729 0.94269 0.0
C459 C 0.91418 0.42326 0.07803 0.0
O460 O 0.88979 0.45231 0.07135 0.0
O461 O 0.93014 0.40521 0.04709 0.0
O462 O 0.11568 0.80124 0.63968 0.0
Cd463 Cd 0.05851 0.83851 0.61011 0.0
O464 O 0.07468 0.77716 0.68546 0.0
Cd465 Cd 0.05813 0.74247 0.73902 0.0
O466 O 0.0269 0.7092 0.78669 0.0
C467 C 0.0464 0.69042 0.81438 0.0
O468 O 0.08695 0.69083 0.8152 0.0
C469 C 0.11024 0.77959 0.67067 0.0
C470 C 0.02926 0.80793 0.53154 0.0
O471 O 0.05989 0.8346 0.53626 0.0
O472 O 0.01259 0.79515 0.56385 0.0
O473 O 0.4422 0.22573 0.98285 0.0
Cd474 Cd 0.51022 0.19637 0.98927 0.0
O475 O 0.46564 0.27312 0.02982 0.0
Cd476 Cd 0.4615 0.32485 0.07499 0.0
O477 O 0.47322 0.36816 0.12859 0.0
C478 C 0.4559 0.36167 0.16207 0.0
O479 O 0.42971 0.32962 0.1638 0.0
C480 C 0.43599 0.2573 0.00605 0.0
C481 C 0.55102 0.18737 0.91611 0.0
O482 O 0.52606 0.15858 0.92715 0.0
O483 O 0.55624 0.22074 0.93911 0.0
O484 O 0.47265 0.53811 0.68756 0.0
Cd485 Cd 0.50084 0.51487 0.6226 0.0
O486 O 0.45181 0.47426 0.6974 0.0
Cd487 Cd 0.41281 0.42791 0.72542 0.0
O488 O 0.34993 0.40701 0.73683 0.0
C489 C 0.32387 0.41165 0.70709 0.0
O490 O 0.33705 0.42534 0.67243 0.0
C491 C 0.45292 0.5125 0.70855 0.0
C492 C 0.58472 0.50132 0.62557 0.0
O493 O 0.5719 0.53709 0.61828 0.0
O494 O 0.55811 0.47228 0.63256 0.0
O495 O 0.96418 0.83761 0.4055 0.0
Cd496 Cd 0.99789 0.89626 0.44659 0.0
O497 O 0.93954 0.88091 0.36231 0.0
Cd498 Cd 0.90193 0.9004 0.30978 0.0
O499 O 0.86 0.93606 0.27282 0.0
C500 C 0.83165 0.91871 0.2485 0.0
O501 O 0.82788 0.87818 0.24423 0.0
C502 C 0.94255 0.84397 0.37297 0.0
C503 C 0.07789 0.91426 0.42332 0.0
O504 O 0.07121 0.88987 0.45238 0.0
O505 O 0.04694 0.93022 0.40528 0.0
O506 O 0.63954 0.11575 0.80131 0.0
Cd507 Cd 0.60996 0.05858 0.83858 0.0
O508 O 0.68531 0.07475 0.77723 0.0
Cd509 Cd 0.73888 0.0582 0.74253 0.0
O510 O 0.78654 0.02697 0.70926 0.0
C511 C 0.81423 0.04647 0.69049 0.0
O512 O 0.81506 0.08702 0.6909 0.0
C513 C 0.67052 0.11031 0.77966 0.0
C514 C 0.53139 0.02933 0.808 0.0
O515 O 0.53611 0.05995 0.83466 0.0
O516 O 0.56371 0.01266 0.79522 0.0
O517 O 0.9827 0.44227 0.2258 0.0
Cd518 Cd 0.98912 0.51029 0.19644 0.0
O519 O 0.02967 0.46572 0.27319 0.0
Cd520 Cd 0.07484 0.46158 0.32493 0.0
O521 O 0.12844 0.4733 0.36823 0.0
C522 C 0.16192 0.45597 0.36174 0.0
O523 O 0.16365 0.42978 0.3297 0.0
C524 C 0.0059 0.43606 0.25738 0.0
C525 C 0.91596 0.5511 0.18744 0.0
O526 O 0.927 0.52613 0.15866 0.0
O527 O 0.93896 0.55632 0.22082 0.0
loop_
_geom_bond_atom_site_label_1
_geom_bond_atom_site_label_2
_geom_bond_distance
_geom_bond_site_symmetry_2
_ccdc_geom_bond_type
O0 Cd1 2.300 . S
O0 C7 1.275 . S
Cd1 O0 2.300 . S
Cd1 O9 2.381 . S
Cd1 O10 2.378 . S
O2 Cd3 2.385 . S
O2 C7 1.255 . S
Cd3 O2 2.385 . S
Cd3 O4 2.317 . S
O4 Cd3 2.317 . S
O4 C5 1.232 . S
C5 O4 1.232 . S
C5 O6 1.218 . S
O6 C5 1.218 . S
C7 O0 1.275 . S
C7 O2 1.255 . S
C8 O9 1.258 . S
C8 O10 1.256 . S
O9 Cd1 2.381 . S
O9 C8 1.258 . S
O10 Cd1 2.378 . S
O10 C8 1.256 . S
O11 Cd12 2.300 . S
O11 C18 1.275 . S
Cd12 O11 2.300 . S
Cd12 O20 2.381 . S
Cd12 O21 2.378 . S
O13 Cd14 2.385 . S
O13 C18 1.255 . S
Cd14 O13 2.385 . S
Cd14 O15 2.317 . S
O15 Cd14 2.317 . S
O15 C16 1.232 . S
C16 O15 1.232 . S
C16 O17 1.218 . S
O17 C16 1.218 . S
C18 O11 1.275 . S
C18 O13 1.255 . S
C19 O20 1.258 . S
C19 O21 1.256 . S
O20 Cd12 2.381 . S
O20 C19 1.258 . S
O21 Cd12 2.378 . S
O21 C19 1.256 . S
O22 Cd23 2.300 . S
O22 C29 1.275 . S
Cd23 O22 2.300 . S
Cd23 O31 2.381 1_565 S
Cd23 O32 2.378 . S
O24 Cd25 2.385 . S
O24 C29 1.255 . S
Cd25 O24 2.385 . S
Cd25 O26 2.317 . S
O26 Cd25 2.317 . S
O26 C27 1.232 . S
C27 O26 1.232 . S
C27 O28 1.218 . S
O28 C27 1.218 . S
C29 O22 1.275 . S
C29 O24 1.255 . S
C30 O31 1.258 . S
C30 O32 1.256 1_545 S
O31 Cd23 2.381 1_545 S
O31 C30 1.258 . S
O32 Cd23 2.378 . S
O32 C30 1.256 1_565 S
O33 Cd34 2.300 . S
O33 C40 1.275 . S
Cd34 O33 2.300 . S
Cd34 O42 2.381 1_545 S
Cd34 O43 2.378 . S
O35 Cd36 2.385 . S
O35 C40 1.255 . S
Cd36 O35 2.385 . S
Cd36 O37 2.317 . S
O37 Cd36 2.317 . S
O37 C38 1.232 . S
C38 O37 1.232 . S
C38 O39 1.218 . S
O39 C38 1.218 . S
C40 O33 1.275 . S
C40 O35 1.255 . S
C41 O42 1.258 . S
C41 O43 1.256 1_565 S
O42 Cd34 2.381 1_565 S
O42 C41 1.258 . S
O43 Cd34 2.378 . S
O43 C41 1.256 1_545 S
O44 Cd45 2.300 . S
O44 C51 1.275 . S
Cd45 O44 2.300 . S
Cd45 O53 2.381 . S
Cd45 O54 2.378 . S
O46 Cd47 2.385 . S
O46 C51 1.255 . S
Cd47 O46 2.385 . S
Cd47 O48 2.317 . S
O48 Cd47 2.317 . S
O48 C49 1.232 . S
C49 O48 1.232 . S
C49 O50 1.218 . S
O50 C49 1.218 . S
C51 O44 1.275 . S
C51 O46 1.255 . S
C52 O53 1.258 . S
C52 O54 1.256 . S
O53 Cd45 2.381 . S
O53 C52 1.258 . S
O54 Cd45 2.378 . S
O54 C52 1.256 . S
O55 Cd56 2.300 . S
O55 C62 1.275 . S
Cd56 O55 2.300 . S
Cd56 O64 2.381 1_554 S
Cd56 O65 2.378 . S
O57 Cd58 2.385 . S
O57 C62 1.255 . S
Cd58 O57 2.385 . S
Cd58 O59 2.317 . S
O59 Cd58 2.317 . S
O59 C60 1.232 . S
C60 O59 1.232 . S
C60 O61 1.218 . S
O61 C60 1.218 . S
C62 O55 1.275 . S
C62 O57 1.255 . S
C63 O64 1.258 . S
C63 O65 1.256 1_556 S
O64 Cd56 2.381 1_556 S
O64 C63 1.258 . S
O65 Cd56 2.378 . S
O65 C63 1.256 1_554 S
O66 Cd67 2.300 . S
O66 C73 1.275 . S
Cd67 O66 2.300 . S
Cd67 O75 2.381 . S
Cd67 O76 2.378 . S
O68 Cd69 2.385 . S
O68 C73 1.255 . S
Cd69 O68 2.385 . S
Cd69 O70 2.317 . S
O70 Cd69 2.317 . S
O70 C71 1.232 . S
C71 O70 1.232 . S
C71 O72 1.218 . S
O72 C71 1.218 . S
C73 O66 1.275 . S
C73 O68 1.255 . S
C74 O75 1.258 . S
C74 O76 1.256 . S
O75 Cd67 2.381 . S
O75 C74 1.258 . S
O76 Cd67 2.378 . S
O76 C74 1.256 . S
O77 Cd78 2.300 . S
O77 C84 1.275 . S
Cd78 O77 2.300 . S
Cd78 O86 2.381 1_556 S
Cd78 O87 2.378 . S
O79 Cd80 2.385 . S
O79 C84 1.255 . S
Cd80 O79 2.385 . S
Cd80 O81 2.317 . S
O81 Cd80 2.317 . S
O81 C82 1.232 . S
C82 O81 1.232 . S
C82 O83 1.218 . S
O83 C82 1.218 . S
C84 O77 1.275 . S
C84 O79 1.255 . S
C85 O86 1.258 . S
C85 O87 1.256 1_554 S
O86 Cd78 2.381 1_554 S
O86 C85 1.258 . S
O87 Cd78 2.378 . S
O87 C85 1.256 1_556 S
O88 Cd89 2.300 . S
O88 C95 1.275 . S
Cd89 O88 2.300 . S
Cd89 O97 2.381 . S
Cd89 O98 2.378 . S
O90 Cd91 2.385 . S
O90 C95 1.255 . S
Cd91 O90 2.385 . S
Cd91 O92 2.317 . S
O92 Cd91 2.317 . S
O92 C93 1.232 . S
C93 O92 1.232 . S
C93 O94 1.218 . S
O94 C93 1.218 . S
C95 O88 1.275 . S
C95 O90 1.255 . S
C96 O97 1.258 . S
C96 O98 1.256 . S
O97 Cd89 2.381 . S
O97 C96 1.258 . S
O98 Cd89 2.378 . S
O98 C96 1.256 . S
O99 Cd100 2.300 . S
O99 C106 1.275 . S
Cd100 O99 2.300 . S
Cd100 O108 2.381 1_455 S
Cd100 O109 2.378 . S
O101 Cd102 2.385 . S
O101 C106 1.255 . S
Cd102 O101 2.385 . S
Cd102 O103 2.317 . S
O103 Cd102 2.317 . S
O103 C104 1.232 . S
C104 O103 1.232 . S
C104 O105 1.218 . S
O105 C104 1.218 . S
C106 O99 1.275 . S
C106 O101 1.255 . S
C107 O108 1.258 . S
C107 O109 1.256 1_655 S
O108 Cd100 2.381 1_655 S
O108 C107 1.258 . S
O109 Cd100 2.378 . S
O109 C107 1.256 1_455 S
O110 Cd111 2.300 . S
O110 C117 1.275 . S
Cd111 O110 2.300 . S
Cd111 O119 2.381 . S
Cd111 O120 2.378 . S
O112 Cd113 2.385 . S
O112 C117 1.255 . S
Cd113 O112 2.385 . S
Cd113 O114 2.317 . S
O114 Cd113 2.317 . S
O114 C115 1.232 . S
C115 O114 1.232 . S
C115 O116 1.218 . S
O116 C115 1.218 . S
C117 O110 1.275 . S
C117 O112 1.255 . S
C118 O119 1.258 . S
C118 O120 1.256 . S
O119 Cd111 2.381 . S
O119 C118 1.258 . S
O120 Cd111 2.378 . S
O120 C118 1.256 . S
O121 Cd122 2.300 . S
O121 C128 1.275 . S
Cd122 O121 2.300 . S
Cd122 O130 2.381 1_655 S
Cd122 O131 2.378 . S
O123 Cd124 2.385 . S
O123 C128 1.255 . S
Cd124 O123 2.385 . S
Cd124 O125 2.317 . S
O125 Cd124 2.317 . S
O125 C126 1.232 . S
C126 O125 1.232 . S
C126 O127 1.218 . S
O127 C126 1.218 . S
C128 O121 1.275 . S
C128 O123 1.255 . S
C129 O130 1.258 . S
C129 O131 1.256 1_455 S
O130 Cd122 2.381 1_455 S
O130 C129 1.258 . S
O131 Cd122 2.378 . S
O131 C129 1.256 1_655 S
O132 Cd133 2.300 . S
O132 C139 1.275 . S
Cd133 O132 2.300 . S
Cd133 O141 2.381 . S
Cd133 O142 2.378 . S
O134 Cd135 2.385 . S
O134 C139 1.255 . S
Cd135 O134 2.385 . S
Cd135 O136 2.317 . S
O136 Cd135 2.317 . S
O136 C137 1.232 . S
C137 O136 1.232 . S
C137 O138 1.218 . S
O138 C137 1.218 . S
C139 O132 1.275 . S
C139 O134 1.255 . S
C140 O141 1.258 . S
C140 O142 1.256 . S
O141 Cd133 2.381 . S
O141 C140 1.258 . S
O142 Cd133 2.378 . S
O142 C140 1.256 . S
O143 Cd144 2.300 . S
O143 C150 1.275 . S
Cd144 O143 2.300 . S
Cd144 O152 2.381 . S
Cd144 O153 2.378 . S
O145 Cd146 2.385 . S
O145 C150 1.255 . S
Cd146 O145 2.385 . S
Cd146 O147 2.317 . S
O147 Cd146 2.317 . S
O147 C148 1.232 . S
C148 O147 1.232 . S
C148 O149 1.218 . S
O149 C148 1.218 . S
C150 O143 1.275 . S
C150 O145 1.255 . S
C151 O152 1.258 . S
C151 O153 1.256 . S
O152 Cd144 2.381 . S
O152 C151 1.258 . S
O153 Cd144 2.378 . S
O153 C151 1.256 . S
O154 Cd155 2.300 1_545 S
O154 C161 1.275 . S
Cd155 O154 2.300 1_565 S
Cd155 O163 2.381 1_565 S
Cd155 O164 2.378 . S
O156 Cd157 2.385 . S
O156 C161 1.255 1_565 S
Cd157 O156 2.385 . S
Cd157 O158 2.317 . S
O158 Cd157 2.317 . S
O158 C159 1.232 . S
C159 O158 1.232 . S
C159 O160 1.218 . S
O160 C159 1.218 . S
C161 O154 1.275 . S
C161 O156 1.255 1_545 S
C162 O163 1.258 1_565 S
C162 O164 1.256 . S
O163 Cd155 2.381 1_545 S
O163 C162 1.258 1_545 S
O164 Cd155 2.378 . S
O164 C162 1.256 . S
O165 Cd166 2.300 1_565 S
O165 C172 1.275 . S
Cd166 O165 2.300 1_545 S
Cd166 O174 2.381 1_545 S
Cd166 O175 2.378 . S
O167 Cd168 2.385 . S
O167 C172 1.255 1_545 S
Cd168 O167 2.385 . S
Cd168 O169 2.317 . S
O169 Cd168 2.317 . S
O169 C170 1.232 . S
C170 O169 1.232 . S
C170 O171 1.218 . S
O171 C170 1.218 . S
C172 O165 1.275 . S
C172 O167 1.255 1_565 S
C173 O174 1.258 1_545 S
C173 O175 1.256 . S
O174 Cd166 2.381 1_565 S
O174 C173 1.258 1_565 S
O175 Cd166 2.378 . S
O175 C173 1.256 . S
O176 Cd177 2.300 . S
O176 C183 1.275 . S
Cd177 O176 2.300 . S
Cd177 O185 2.381 . S
Cd177 O186 2.378 . S
O178 Cd179 2.385 . S
O178 C183 1.255 . S
Cd179 O178 2.385 . S
Cd179 O180 2.317 . S
O180 Cd179 2.317 . S
O180 C181 1.232 . S
C181 O180 1.232 . S
C181 O182 1.218 . S
O182 C181 1.218 . S
C183 O176 1.275 . S
C183 O178 1.255 . S
C184 O185 1.258 . S
C184 O186 1.256 . S
O185 Cd177 2.381 . S
O185 C184 1.258 . S
O186 Cd177 2.378 . S
O186 C184 1.256 . S
O187 Cd188 2.300 1_556 S
O187 C194 1.275 . S
Cd188 O187 2.300 1_554 S
Cd188 O196 2.381 1_554 S
Cd188 O197 2.378 . S
O189 Cd190 2.385 . S
O189 C194 1.255 1_554 S
Cd190 O189 2.385 . S
Cd190 O191 2.317 . S
O191 Cd190 2.317 . S
O191 C192 1.232 . S
C192 O191 1.232 . S
C192 O193 1.218 . S
O193 C192 1.218 . S
C194 O187 1.275 . S
C194 O189 1.255 1_556 S
C195 O196 1.258 1_554 S
C195 O197 1.256 . S
O196 Cd188 2.381 1_556 S
O196 C195 1.258 1_556 S
O197 Cd188 2.378 . S
O197 C195 1.256 . S
O198 Cd199 2.300 . S
O198 C205 1.275 . S
Cd199 O198 2.300 . S
Cd199 O207 2.381 . S
Cd199 O208 2.378 . S
O200 Cd201 2.385 . S
O200 C205 1.255 . S
Cd201 O200 2.385 . S
Cd201 O202 2.317 . S
O202 Cd201 2.317 . S
O202 C203 1.232 . S
C203 O202 1.232 . S
C203 O204 1.218 . S
O204 C203 1.218 . S
C205 O198 1.275 . S
C205 O200 1.255 . S
C206 O207 1.258 . S
C206 O208 1.256 . S
O207 Cd199 2.381 . S
O207 C206 1.258 . S
O208 Cd199 2.378 . S
O208 C206 1.256 . S
O209 Cd210 2.300 1_554 S
O209 C216 1.275 . S
Cd210 O209 2.300 1_556 S
Cd210 O218 2.381 1_556 S
Cd210 O219 2.378 . S
O211 Cd212 2.385 . S
O211 C216 1.255 1_556 S
Cd212 O211 2.385 . S
Cd212 O213 2.317 . S
O213 Cd212 2.317 . S
O213 C214 1.232 . S
C214 O213 1.232 . S
C214 O215 1.218 . S
O215 C214 1.218 . S
C216 O209 1.275 . S
C216 O211 1.255 1_554 S
C217 O218 1.258 1_556 S
C217 O219 1.256 . S
O218 Cd210 2.381 1_554 S
O218 C217 1.258 1_554 S
O219 Cd210 2.378 . S
O219 C217 1.256 . S
O220 Cd221 2.300 . S
O220 C227 1.275 . S
Cd221 O220 2.300 . S
Cd221 O229 2.381 . S
Cd221 O230 2.378 . S
O222 Cd223 2.385 . S
O222 C227 1.255 . S
Cd223 O222 2.385 . S
Cd223 O224 2.317 . S
O224 Cd223 2.317 . S
O224 C225 1.232 . S
C225 O224 1.232 . S
C225 O226 1.218 . S
O226 C225 1.218 . S
C227 O220 1.275 . S
C227 O222 1.255 . S
C228 O229 1.258 . S
C228 O230 1.256 . S
O229 Cd221 2.381 . S
O229 C228 1.258 . S
O230 Cd221 2.378 . S
O230 C228 1.256 . S
O231 Cd232 2.300 1_655 S
O231 C238 1.275 . S
Cd232 O231 2.300 1_455 S
Cd232 O240 2.381 1_455 S
Cd232 O241 2.378 . S
O233 Cd234 2.385 . S
O233 C238 1.255 1_455 S
Cd234 O233 2.385 . S
Cd234 O235 2.317 . S
O235 Cd234 2.317 . S
O235 C236 1.232 . S
C236 O235 1.232 . S
C236 O237 1.218 . S
O237 C236 1.218 . S
C238 O231 1.275 . S
C238 O233 1.255 1_655 S
C239 O240 1.258 1_455 S
C239 O241 1.256 . S
O240 Cd232 2.381 1_655 S
O240 C239 1.258 1_655 S
O241 Cd232 2.378 . S
O241 C239 1.256 . S
O242 Cd243 2.300 . S
O242 C249 1.275 . S
Cd243 O242 2.300 . S
Cd243 O251 2.381 . S
Cd243 O252 2.378 . S
O244 Cd245 2.385 . S
O244 C249 1.255 . S
Cd245 O244 2.385 . S
Cd245 O246 2.317 . S
O246 Cd245 2.317 . S
O246 C247 1.232 . S
C247 O246 1.232 . S
C247 O248 1.218 . S
O248 C247 1.218 . S
C249 O242 1.275 . S
C249 O244 1.255 . S
C250 O251 1.258 . S
C250 O252 1.256 . S
O251 Cd243 2.381 . S
O251 C250 1.258 . S
O252 Cd243 2.378 . S
O252 C250 1.256 . S
O253 Cd254 2.300 1_455 S
O253 C260 1.275 . S
Cd254 O253 2.300 1_655 S
Cd254 O262 2.381 1_655 S
Cd254 O263 2.378 . S
O255 Cd256 2.385 . S
O255 C260 1.255 1_655 S
Cd256 O255 2.385 . S
Cd256 O257 2.317 . S
O257 Cd256 2.317 . S
O257 C258 1.232 . S
C258 O257 1.232 . S
C258 O259 1.218 . S
O259 C258 1.218 . S
C260 O253 1.275 . S
C260 O255 1.255 1_455 S
C261 O262 1.258 1_655 S
C261 O263 1.256 . S
O262 Cd254 2.381 1_455 S
O262 C261 1.258 1_455 S
O263 Cd254 2.378 . S
O263 C261 1.256 . S
O264 Cd265 2.300 . S
O264 C271 1.275 . S
Cd265 O264 2.300 . S
Cd265 O273 2.381 . S
Cd265 O274 2.378 . S
O266 Cd267 2.385 . S
O266 C271 1.255 . S
Cd267 O266 2.385 . S
Cd267 O268 2.317 . S
O268 Cd267 2.317 . S
O268 C269 1.232 . S
C269 O268 1.232 . S
C269 O270 1.218 . S
O270 C269 1.218 . S
C271 O264 1.275 . S
C271 O266 1.255 . S
C272 O273 1.258 . S
C272 O274 1.256 . S
O273 Cd265 2.381 . S
O273 C272 1.258 . S
O274 Cd265 2.378 . S
O274 C272 1.256 . S
O275 Cd276 2.300 . S
O275 C282 1.275 . S
Cd276 O275 2.300 . S
Cd276 O284 2.381 . S
Cd276 O285 2.378 . S
O277 Cd278 2.385 . S
O277 C282 1.255 . S
Cd278 O277 2.385 . S
Cd278 O279 2.317 . S
O279 Cd278 2.317 . S
O279 C280 1.232 . S
C280 O279 1.232 . S
C280 O281 1.218 . S
O281 C280 1.218 . S
C282 O275 1.275 . S
C282 O277 1.255 . S
C283 O284 1.258 . S
C283 O285 1.256 . S
O284 Cd276 2.381 . S
O284 C283 1.258 . S
O285 Cd276 2.378 . S
O285 C283 1.256 . S
O286 Cd287 2.300 . S
O286 C293 1.290 . S
Cd287 O286 2.300 . S
Cd287 O295 2.381 . S
Cd287 O296 2.378 . S
O288 Cd289 2.385 . S
O288 C293 1.246 1_565 S
Cd289 O288 2.385 . S
Cd289 O290 2.317 . S
O290 Cd289 2.317 . S
O290 C291 1.232 . S
C291 O290 1.232 . S
C291 O292 1.218 . S
O292 C291 1.218 . S
C293 O286 1.290 . S
C293 O288 1.246 1_545 S
C294 O295 1.258 . S
C294 O296 1.256 . S
O295 Cd287 2.381 . S
O295 C294 1.258 . S
O296 Cd287 2.378 . S
O296 C294 1.256 . S
O297 Cd298 2.300 . S
O297 C304 1.297 . S
Cd298 O297 2.300 . S
Cd298 O306 2.381 . S
Cd298 O307 2.378 . S
O299 Cd300 2.385 . S
O299 C304 1.242 1_545 S
Cd300 O299 2.385 . S
Cd300 O301 2.317 . S
O301 Cd300 2.317 . S
O301 C302 1.232 . S
C302 O301 1.232 . S
C302 O303 1.218 . S
O303 C302 1.218 . S
C304 O297 1.297 . S
C304 O299 1.242 1_565 S
C305 O306 1.258 . S
C305 O307 1.256 . S
O306 Cd298 2.381 . S
O306 C305 1.258 . S
O307 Cd298 2.378 . S
O307 C305 1.256 . S
O308 Cd309 2.300 . S
O308 C315 1.275 . S
Cd309 O308 2.300 . S
Cd309 O317 2.381 . S
Cd309 O318 2.378 . S
O310 Cd311 2.385 . S
O310 C315 1.255 . S
Cd311 O310 2.385 . S
Cd311 O312 2.317 . S
O312 Cd311 2.317 . S
O312 C313 1.232 . S
C313 O312 1.232 . S
C313 O314 1.218 . S
O314 C313 1.218 . S
C315 O308 1.275 . S
C315 O310 1.255 . S
C316 O317 1.258 . S
C316 O318 1.256 . S
O317 Cd309 2.381 . S
O317 C316 1.258 . S
O318 Cd309 2.378 . S
O318 C316 1.256 . S
O319 Cd320 2.300 . S
O319 C326 1.297 . S
Cd320 O319 2.300 . S
Cd320 O328 2.381 . S
Cd320 O329 2.378 . S
O321 Cd322 2.385 . S
O321 C326 1.242 1_554 S
Cd322 O321 2.385 . S
Cd322 O323 2.317 . S
O323 Cd322 2.317 . S
O323 C324 1.232 . S
C324 O323 1.232 . S
C324 O325 1.218 . S
O325 C324 1.218 . S
C326 O319 1.297 . S
C326 O321 1.242 1_556 S
C327 O328 1.258 . S
C327 O329 1.256 . S
O328 Cd320 2.381 . S
O328 C327 1.258 . S
O329 Cd320 2.378 . S
O329 C327 1.256 . S
O330 Cd331 2.300 . S
O330 C337 1.275 . S
Cd331 O330 2.300 . S
Cd331 O339 2.381 . S
Cd331 O340 2.378 . S
O332 Cd333 2.385 . S
O332 C337 1.255 . S
Cd333 O332 2.385 . S
Cd333 O334 2.317 . S
O334 Cd333 2.317 . S
O334 C335 1.232 . S
C335 O334 1.232 . S
C335 O336 1.218 . S
O336 C335 1.218 . S
C337 O330 1.275 . S
C337 O332 1.255 . S
C338 O339 1.258 . S
C338 O340 1.256 . S
O339 Cd331 2.381 . S
O339 C338 1.258 . S
O340 Cd331 2.378 . S
O340 C338 1.256 . S
O341 Cd342 2.300 . S
O341 C348 1.290 . S
Cd342 O341 2.300 . S
Cd342 O350 2.381 . S
Cd342 O351 2.378 . S
O343 Cd344 2.385 . S
O343 C348 1.246 1_556 S
Cd344 O343 2.385 . S
Cd344 O345 2.317 . S
O345 Cd344 2.317 . S
O345 C346 1.232 . S
C346 O345 1.232 . S
C346 O347 1.218 . S
O347 C346 1.218 . S
C348 O341 1.290 . S
C348 O343 1.246 1_554 S
C349 O350 1.258 . S
C349 O351 1.256 . S
O350 Cd342 2.381 . S
O350 C349 1.258 . S
O351 Cd342 2.378 . S
O351 C349 1.256 . S
O352 Cd353 2.300 . S
O352 C359 1.275 . S
Cd353 O352 2.300 . S
Cd353 O361 2.381 . S
Cd353 O362 2.378 . S
O354 Cd355 2.385 . S
O354 C359 1.255 . S
Cd355 O354 2.385 . S
Cd355 O356 2.317 . S
O356 Cd355 2.317 . S
O356 C357 1.232 . S
C357 O356 1.232 . S
C357 O358 1.218 . S
O358 C357 1.218 . S
C359 O352 1.275 . S
C359 O354 1.255 . S
C360 O361 1.258 . S
C360 O362 1.256 . S
O361 Cd353 2.381 . S
O361 C360 1.258 . S
O362 Cd353 2.378 . S
O362 C360 1.256 . S
O363 Cd364 2.300 . S
O363 C370 1.297 . S
Cd364 O363 2.300 . S
Cd364 O372 2.381 . S
Cd364 O373 2.378 . S
O365 Cd366 2.385 . S
O365 C370 1.242 1_455 S
Cd366 O365 2.385 . S
Cd366 O367 2.317 . S
O367 Cd366 2.317 . S
O367 C368 1.232 . S
C368 O367 1.232 . S
C368 O369 1.218 . S
O369 C368 1.218 . S
C370 O363 1.297 . S
C370 O365 1.242 1_655 S
C371 O372 1.258 . S
C371 O373 1.256 . S
O372 Cd364 2.381 . S
O372 C371 1.258 . S
O373 Cd364 2.378 . S
O373 C371 1.256 . S
O374 Cd375 2.300 . S
O374 C381 1.275 . S
Cd375 O374 2.300 . S
Cd375 O383 2.381 . S
Cd375 O384 2.378 . S
O376 Cd377 2.385 . S
O376 C381 1.255 . S
Cd377 O376 2.385 . S
Cd377 O378 2.317 . S
O378 Cd377 2.317 . S
O378 C379 1.232 . S
C379 O378 1.232 . S
C379 O380 1.218 . S
O380 C379 1.218 . S
C381 O374 1.275 . S
C381 O376 1.255 . S
C382 O383 1.258 . S
C382 O384 1.256 . S
O383 Cd375 2.381 . S
O383 C382 1.258 . S
O384 Cd375 2.378 . S
O384 C382 1.256 . S
O385 Cd386 2.300 . S
O385 C392 1.290 . S
Cd386 O385 2.300 . S
Cd386 O394 2.381 . S
Cd386 O395 2.378 . S
O387 Cd388 2.385 . S
O387 C392 1.246 1_655 S
Cd388 O387 2.385 . S
Cd388 O389 2.317 . S
O389 Cd388 2.317 . S
O389 C390 1.232 . S
C390 O389 1.232 . S
C390 O391 1.218 . S
O391 C390 1.218 . S
C392 O385 1.290 . S
C392 O387 1.246 1_455 S
C393 O394 1.258 . S
C393 O395 1.256 . S
O394 Cd386 2.381 . S
O394 C393 1.258 . S
O395 Cd386 2.378 . S
O395 C393 1.256 . S
O396 Cd397 2.300 . S
O396 C403 1.275 . S
Cd397 O396 2.300 . S
Cd397 O405 2.381 . S
Cd397 O406 2.378 . S
O398 Cd399 2.385 . S
O398 C403 1.255 . S
Cd399 O398 2.385 . S
Cd399 O400 2.317 . S
O400 Cd399 2.317 . S
O400 C401 1.232 . S
C401 O400 1.232 . S
C401 O402 1.218 . S
O402 C401 1.218 . S
C403 O396 1.275 . S
C403 O398 1.255 . S
C404 O405 1.258 . S
C404 O406 1.256 . S
O405 Cd397 2.381 . S
O405 C404 1.258 . S
O406 Cd397 2.378 . S
O406 C404 1.256 . S
O407 Cd408 2.300 . S
O407 C414 1.275 . S
Cd408 O407 2.300 . S
Cd408 O416 2.381 . S
Cd408 O417 2.378 . S
O409 Cd410 2.385 . S
O409 C414 1.255 . S
Cd410 O409 2.385 . S
Cd410 O411 2.317 . S
O411 Cd410 2.317 . S
O411 C412 1.232 . S
C412 O411 1.232 . S
C412 O413 1.218 . S
O413 C412 1.218 . S
C414 O407 1.275 . S
C414 O409 1.255 . S
C415 O416 1.258 . S
C415 O417 1.256 . S
O416 Cd408 2.381 . S
O416 C415 1.258 . S
O417 Cd408 2.378 . S
O417 C415 1.256 . S
O418 Cd419 2.300 . S
O418 C425 1.275 . S
Cd419 O418 2.300 . S
Cd419 O427 2.381 . S
Cd419 O428 2.378 . S
O420 Cd421 2.385 . S
O420 C425 1.255 1_545 S
Cd421 O420 2.385 . S
Cd421 O422 2.317 . S
O422 Cd421 2.317 . S
O422 C423 1.232 . S
C423 O422 1.232 . S
C423 O424 1.218 . S
O424 C423 1.218 . S
C425 O418 1.275 . S
C425 O420 1.255 1_565 S
C426 O427 1.258 . S
C426 O428 1.256 . S
O427 Cd419 2.381 . S
O427 C426 1.258 . S
O428 Cd419 2.378 . S
O428 C426 1.256 . S
O429 Cd430 2.300 . S
O429 C436 1.275 . S
Cd430 O429 2.300 . S
Cd430 O438 2.381 . S
Cd430 O439 2.367 1_556 S
O431 Cd432 2.385 . S
O431 C436 1.255 1_565 S
Cd432 O431 2.385 . S
Cd432 O433 2.317 . S
O433 Cd432 2.317 . S
O433 C434 1.232 . S
C434 O433 1.232 . S
C434 O435 1.218 . S
O435 C434 1.218 . S
C436 O429 1.275 . S
C436 O431 1.255 1_545 S
C437 O438 1.258 . S
C437 O439 1.248 1_556 S
O438 Cd430 2.381 . S
O438 C437 1.258 . S
O439 Cd430 2.367 1_554 S
O439 C437 1.248 1_554 S
O440 Cd441 2.300 . S
O440 C447 1.275 . S
Cd441 O440 2.300 . S
Cd441 O449 2.381 . S
Cd441 O450 2.378 . S
O442 Cd443 2.385 . S
O442 C447 1.255 . S
Cd443 O442 2.385 . S
Cd443 O444 2.317 . S
O444 Cd443 2.317 . S
O444 C445 1.232 . S
C445 O444 1.232 . S
C445 O446 1.218 . S
O446 C445 1.218 . S
C447 O440 1.275 . S
C447 O442 1.255 . S
C448 O449 1.258 . S
C448 O450 1.256 . S
O449 Cd441 2.381 . S
O449 C448 1.258 . S
O450 Cd441 2.378 . S
O450 C448 1.256 . S
O451 Cd452 2.300 . S
O451 C458 1.275 . S
Cd452 O451 2.300 . S
Cd452 O460 2.381 . S
Cd452 O461 2.367 1_655 S
O453 Cd454 2.385 . S
O453 C458 1.255 1_556 S
Cd454 O453 2.385 . S
Cd454 O455 2.317 . S
O455 Cd454 2.317 . S
O455 C456 1.232 . S
C456 O455 1.232 . S
C456 O457 1.218 . S
O457 C456 1.218 . S
C458 O451 1.275 . S
C458 O453 1.255 1_554 S
C459 O460 1.258 . S
C459 O461 1.248 1_655 S
O460 Cd452 2.381 . S
O460 C459 1.258 . S
O461 Cd452 2.367 1_455 S
O461 C459 1.248 1_455 S
O462 Cd463 2.300 . S
O462 C469 1.275 . S
Cd463 O462 2.300 . S
Cd463 O471 2.381 . S
Cd463 O472 2.378 . S
O464 Cd465 2.385 . S
O464 C469 1.255 . S
Cd465 O464 2.385 . S
Cd465 O466 2.317 . S
O466 Cd465 2.317 . S
O466 C467 1.232 . S
C467 O466 1.232 . S
C467 O468 1.218 . S
O468 C467 1.218 . S
C469 O462 1.275 . S
C469 O464 1.255 . S
C470 O471 1.258 . S
C470 O472 1.256 . S
O471 Cd463 2.381 . S
O471 C470 1.258 . S
O472 Cd463 2.378 . S
O472 C470 1.256 . S
O473 Cd474 2.300 . S
O473 C480 1.275 . S
Cd474 O473 2.300 . S
Cd474 O482 2.381 . S
Cd474 O483 2.378 . S
O475 Cd476 2.385 . S
O475 C480 1.255 1_554 S
Cd476 O475 2.385 . S
Cd476 O477 2.317 . S
O477 Cd476 2.317 . S
O477 C478 1.232 . S
C478 O477 1.232 . S
C478 O479 1.218 . S
O479 C478 1.218 . S
C480 O473 1.275 . S
C480 O475 1.255 1_556 S
C481 O482 1.258 . S
C481 O483 1.256 . S
O482 Cd474 2.381 . S
O482 C481 1.258 . S
O483 Cd474 2.378 . S
O483 C481 1.256 . S
O484 Cd485 2.300 . S
O484 C491 1.275 . S
Cd485 O484 2.300 . S
Cd485 O493 2.381 . S
Cd485 O494 2.378 . S
O486 Cd487 2.385 . S
O486 C491 1.255 . S
Cd487 O486 2.385 . S
Cd487 O488 2.317 . S
O488 Cd487 2.317 . S
O488 C489 1.232 . S
C489 O488 1.232 . S
C489 O490 1.218 . S
O490 C489 1.218 . S
C491 O484 1.275 . S
C491 O486 1.255 . S
C492 O493 1.258 . S
C492 O494 1.256 . S
O493 Cd485 2.381 . S
O493 C492 1.258 . S
O494 Cd485 2.378 . S
O494 C492 1.256 . S
O495 Cd496 2.300 . S
O495 C502 1.275 . S
Cd496 O495 2.300 . S
Cd496 O504 2.381 . S
Cd496 O505 2.367 1_565 S
O497 Cd498 2.385 . S
O497 C502 1.255 1_655 S
Cd498 O497 2.385 . S
Cd498 O499 2.317 . S
O499 Cd498 2.317 . S
O499 C500 1.232 . S
C500 O499 1.232 . S
C500 O501 1.218 . S
O501 C500 1.218 . S
C502 O495 1.275 . S
C502 O497 1.255 1_455 S
C503 O504 1.258 . S
C503 O505 1.248 1_565 S
O504 Cd496 2.381 . S
O504 C503 1.258 . S
O505 Cd496 2.367 1_545 S
O505 C503 1.248 1_545 S
O506 Cd507 2.300 . S
O506 C513 1.275 . S
Cd507 O506 2.300 . S
Cd507 O515 2.381 . S
Cd507 O516 2.378 . S
O508 Cd509 2.385 . S
O508 C513 1.255 . S
Cd509 O508 2.385 . S
Cd509 O510 2.317 . S
O510 Cd509 2.317 . S
O510 C511 1.232 . S
C511 O510 1.232 . S
C511 O512 1.218 . S
O512 C511 1.218 . S
C513 O506 1.275 . S
C513 O508 1.255 . S
C514 O515 1.258 . S
C514 O516 1.256 . S
O515 Cd507 2.381 . S
O515 C514 1.258 . S
O516 Cd507 2.378 . S
O516 C514 1.256 . S
O517 Cd518 2.300 . S
O517 C524 1.275 . S
Cd518 O517 2.300 . S
Cd518 O526 2.381 . S
Cd518 O527 2.378 . S
O519 Cd520 2.385 . S
O519 C524 1.255 1_455 S
Cd520 O519 2.385 . S
Cd520 O521 2.317 . S
O521 Cd520 2.317 . S
O521 C522 1.232 . S
C522 O521 1.232 . S
C522 O523 1.218 . S
O523 C522 1.218 . S
C524 O517 1.275 . S
C524 O519 1.255 1_655 S
C525 O526 1.258 . S
C525 O527 1.256 . S
O526 Cd518 2.381 . S
O526 C525 1.258 . S
O527 Cd518 2.378 . S
O527 C525 1.256 . S
C522 C8 1.544 . S
C489 C19 1.751 . S
C511 C30 1.352 . S
C500 C41 1.776 . S
C423 C52 1.544 . S
C63 C434 1.776 . S
C401 C74 1.751 . S
C85 C412 1.352 . S
C478 C96 1.544 . S
C107 C456 1.776 . S
C118 C445 1.751 . S
C467 C129 1.352 . S
C390 C140 1.410 . S
C151 C357 1.322 . S
C379 C162 1.202 . S
C173 C368 1.368 . S
C291 C184 1.410 . S
C302 C195 1.368 . S
C206 C269 1.322 . S
C217 C280 1.203 . S
C228 C346 1.410 . S
C239 C324 1.368 . S
C313 C250 1.322 . S
C261 C335 1.202 . S
C271 C7 1.920 . S
C282 C18 2.156 . S
C29 C293 1.767 1_565 S
C40 C304 1.641 1_545 S
C315 C51 1.919 . S
C62 C326 1.641 1_554 S
C337 C73 2.156 . S
C348 C84 1.767 1_554 S
C359 C95 1.919 . S
C106 C370 1.641 1_455 S
C117 C381 2.156 . S
C128 C392 1.767 1_655 S
C139 C403 1.465 . S
C150 C414 1.638 . S
C161 C425 1.299 1_545 S
C172 C436 1.177 1_565 S
C183 C447 1.464 . S
C458 C194 1.177 1_554 S
C469 C205 1.638 . S
C480 C216 1.298 1_556 S
C491 C227 1.464 . S
C238 C502 1.177 1_655 S
C249 C513 1.638 . S
C260 C524 1.299 1_455 S
C5 C360 1.612 . S
C393 C16 1.784 . S
C27 C371 1.502 1_565 S
C382 C38 1.888 1_565 S
C49 C272 1.612 . S
C60 C283 1.888 1_554 S
C71 C294 1.784 . S
C82 C305 1.502 1_556 S
C316 C93 1.612 . S
C338 C104 1.888 1_655 S
C115 C349 1.784 . S
C126 C327 1.502 1_655 S
C492 C137 1.100 . S
C525 C148 1.113 . S
C159 C503 1.127 . S
C514 C170 1.173 . S
C181 C404 1.100 . S
C192 C415 1.173 . S
C203 C426 1.113 . S
C437 C214 1.127 . S
C448 C225 1.100 . S
C470 C236 1.173 . S
C247 C481 1.113 . S
C459 C258 1.127 . S
