# Generated by pormake.
# Topology pth, (4,4)-cn, num edge types: 1
# Building blocks:
#     Node 0, Type 0, BuildingBlock: TATPOV_clean_sbu_0, # of connection points: 4
#     Node 1, Type 0, BuildingBlock: TATPOV_clean_sbu_0, # of connection points: 4
#     Node 2, Type 0, BuildingBlock: TATPOV_clean_sbu_0, # of connection points: 4
#     Node 3, Type 1, BuildingBlock: KOZSID_clean_sbu_0, # of connection points: 4
#     Node 4, Type 1, BuildingBlock: KOZSID_clean_sbu_0, # of connection points: 4
#     Node 5, Type 1, BuildingBlock: KOZSID_clean_sbu_0, # of connection points: 4
#     Edge 6, Type (0, 1), BuildingBlock: ZUJKAS_clean_linker_0, # of connection points: 2
#     Edge 7, Type (0, 1), BuildingBlock: ZUJKAS_clean_linker_0, # of connection points: 2
#     Edge 8, Type (0, 1), BuildingBlock: ZUJKAS_clean_linker_0, # of connection points: 2
#     Edge 9, Type (0, 1), BuildingBlock: ZUJKAS_clean_linker_0, # of connection points: 2
#     Edge 10, Type (0, 1), BuildingBlock: ZUJKAS_clean_linker_0, # of connection points: 2
#     Edge 11, Type (0, 1), BuildingBlock: ZUJKAS_clean_linker_0, # of connection points: 2
#     Edge 12, Type (0, 1), BuildingBlock: ZUJKAS_clean_linker_0, # of connection points: 2
#     Edge 13, Type (0, 1), BuildingBlock: ZUJKAS_clean_linker_0, # of connection points: 2
#     Edge 14, Type (0, 1), BuildingBlock: ZUJKAS_clean_linker_0, # of connection points: 2
#     Edge 15, Type (0, 1), BuildingBlock: ZUJKAS_clean_linker_0, # of connection points: 2
#     Edge 16, Type (0, 1), BuildingBlock: ZUJKAS_clean_linker_0, # of connection points: 2
#     Edge 17, Type (0, 1), BuildingBlock: ZUJKAS_clean_linker_0, # of connection points: 2
# Relax obj value: 0.036
# Max RMSD: 0.163
# Mean RMSD: 0.080
data_MOF--net-pth--node1-TATPOV_clean_sbu_0--node2-KOZSID_clean_sbu_0--edge1-ZUJKAS_clean_linker_0
_symmetry_space_group_name_H-M    P1
_symmetry_Int_Tables_number       1
_symmetry_cell_setting            triclinic
loop_
_symmetry_equiv_pos_as_xyz
'x, y, z'
_cell_length_a     34.004887
_cell_length_b     33.669099
_cell_length_c     74.980281
_cell_angle_alpha  90.257083
_cell_angle_beta   90.071813
_cell_angle_gamma 121.04463
loop_
_atom_site_label
_atom_site_type_symbol
_atom_site_fract_x
_atom_site_fract_y
_atom_site_fract_z
_atom_type_partial_charge
Zn0 Zn 0.16698 0.04209 0.01404 0.0
Zn1 Zn 0.12621 0.08071 0.03158 0.0
O2 O 0.13115 0.04 0.0508 0.0
O3 O 0.16677 0.00999 0.0368 0.0
O4 O 0.10229 0.11619 0.04475 0.0
O5 O 0.2209 0.10421 0.00722 0.0
O6 O 0.18638 0.13495 0.02143 0.0
C7 C 0.14799 0.01381 0.05076 0.0
C8 C 0.07641 0.01526 0.00038 0.0
O9 O 0.07673 0.04127 0.01287 0.0
O10 O 0.11087 0.01081 0.99805 0.0
C11 C 0.06955 0.09957 0.05589 0.0
O12 O 0.04729 0.05492 0.05924 0.0
C13 C 0.22001 0.13968 0.01223 0.0
Zn14 Zn 0.14867 0.15157 0.33917 0.0
Zn15 Zn 0.07572 0.11266 0.36117 0.0
O16 O 0.12995 0.12781 0.37792 0.0
O17 O 0.18985 0.16063 0.36014 0.0
O18 O 0.02061 0.09096 0.37714 0.0
O19 O 0.13619 0.20139 0.33158 0.0
O20 O 0.07575 0.16729 0.34896 0.0
C21 C 0.17302 0.14642 0.37549 0.0
C22 C 0.08106 0.05501 0.33096 0.0
O23 O 0.05994 0.05771 0.34452 0.0
O24 O 0.11841 0.09016 0.32599 0.0
C25 C 0.019 0.08325 0.39378 0.0
O26 O 0.0547 0.08594 0.40177 0.0
C27 C 0.10059 0.19906 0.33791 0.0
Zn28 Zn 0.11497 0.96531 0.70858 0.0
Zn29 Zn 0.07237 0.00137 0.6907 0.0
O30 O 0.11092 0.99296 0.67151 0.0
O31 O 0.1444 0.96136 0.68586 0.0
O32 O 0.03272 0.01808 0.67651 0.0
O33 O 0.0557 0.91108 0.71746 0.0
O34 O 0.02271 0.94484 0.70443 0.0
C35 C 0.13775 0.97703 0.67158 0.0
C36 C 0.13962 0.05947 0.71953 0.0
O37 O 0.11236 0.05628 0.70717 0.0
O38 O 0.14545 0.02584 0.72267 0.0
C39 C 0.04337 0.05745 0.67032 0.0
O40 O 0.08482 0.0932 0.6731 0.0
C41 C 0.01999 0.91249 0.71408 0.0
C42 C 0.07351 0.63043 0.17011 0.0
C43 C 0.11843 0.66354 0.16577 0.0
C44 C 0.14613 0.65457 0.17597 0.0
C45 C 0.11674 0.61684 0.18596 0.0
N46 N 0.07183 0.60053 0.18255 0.0
Co47 Co 0.01748 0.54844 0.19495 0.0
N48 N 0.05835 0.53966 0.21173 0.0
C49 C 0.10481 0.56293 0.21177 0.0
C50 C 0.12328 0.54922 0.22488 0.0
C51 C 0.08648 0.51505 0.23375 0.0
C52 C 0.0475 0.50992 0.2255 0.0
N53 N 0.96312 0.49679 0.20752 0.0
C54 C 0.96135 0.47115 0.22172 0.0
C55 C 0.91648 0.43882 0.22636 0.0
C56 C 0.88882 0.44414 0.21463 0.0
C57 C 0.91825 0.47929 0.20358 0.0
N58 N 0.97677 0.55738 0.17814 0.0
C59 C 0.93042 0.53181 0.17712 0.0
C60 C 0.91214 0.54763 0.16471 0.0
C61 C 0.94894 0.58606 0.15759 0.0
C62 C 0.98762 0.59147 0.16614 0.0
N63 N 0.01813 0.50267 0.17816 0.0
C64 C 0.01861 0.43483 0.15599 0.0
C65 C 0.97762 0.43269 0.16025 0.0
C66 C 0.97819 0.46674 0.17116 0.0
C67 C 0.05944 0.47201 0.16271 0.0
C68 C 0.05841 0.50516 0.17365 0.0
N69 N 0.01674 0.59377 0.21166 0.0
C70 C 0.97581 0.62557 0.22646 0.0
C71 C 0.01639 0.66061 0.23425 0.0
C72 C 0.05699 0.66103 0.2308 0.0
C73 C 0.05639 0.62757 0.21957 0.0
C74 C 0.97675 0.59274 0.2153 0.0
H75 H 0.08846 0.62989 0.21738 0.0
H76 H 0.9448 0.56717 0.2096 0.0
H77 H 0.94575 0.46289 0.17379 0.0
H78 H 0.09071 0.53207 0.17843 0.0
C79 C 0.13023 0.59836 0.19963 0.0
C80 C 0.0337 0.63054 0.16295 0.0
C81 C 0.00106 0.47583 0.2311 0.0
C82 C 0.90489 0.49642 0.18932 0.0
H83 H 0.13012 0.69217 0.15661 0.0
H84 H 0.18326 0.67433 0.17654 0.0
H85 H 0.15922 0.56263 0.2277 0.0
H86 H 0.08817 0.49602 0.24503 0.0
H87 H 0.90501 0.41392 0.23709 0.0
H88 H 0.85167 0.42465 0.2142 0.0
H89 H 0.87624 0.53401 0.16174 0.0
H90 H 0.94748 0.60836 0.14759 0.0
H91 H 0.94511 0.40495 0.15511 0.0
H92 H 0.09213 0.47506 0.15991 0.0
H93 H 0.94354 0.62399 0.2286 0.0
H94 H 0.08921 0.687 0.23679 0.0
C95 C 0.50902 0.0365 0.5528 0.0
C96 C 0.47483 0.99252 0.55801 0.0
C97 C 0.48037 0.96178 0.54803 0.0
C98 C 0.51755 0.98866 0.53743 0.0
N99 N 0.53674 0.03472 0.5403 0.0
Co100 Co 0.59018 0.08644 0.52748 0.0
N101 N 0.59405 0.04155 0.51097 0.0
C102 C 0.56623 0.99487 0.5106 0.0
C103 C 0.5781 0.97337 0.49799 0.0
C104 C 0.61625 0.00829 0.49 0.0
C105 C 0.62548 0.04918 0.49829 0.0
N106 N 0.64403 0.13814 0.51472 0.0
C107 C 0.67115 0.13631 0.50191 0.0
C108 C 0.70659 0.18018 0.49728 0.0
C109 C 0.70216 0.2109 0.50775 0.0
C110 C 0.66447 0.18413 0.51815 0.0
N111 N 0.58573 0.1313 0.54387 0.0
C112 C 0.61324 0.17803 0.54415 0.0
C113 C 0.59953 0.19957 0.55602 0.0
C114 C 0.56036 0.16465 0.5635 0.0
C115 C 0.55256 0.12368 0.55576 0.0
N116 N 0.63333 0.08241 0.54427 0.0
C117 C 0.69771 0.07797 0.56668 0.0
C118 C 0.70077 0.12016 0.56318 0.0
C119 C 0.66855 0.12155 0.55209 0.0
C120 C 0.6614 0.03788 0.55896 0.0
C121 C 0.62982 0.04085 0.54793 0.0
N122 N 0.54706 0.09063 0.51082 0.0
C123 C 0.51988 0.13671 0.49692 0.0
C124 C 0.4805 0.09695 0.49074 0.0
C125 C 0.47584 0.05396 0.49409 0.0
C126 C 0.50928 0.05159 0.50412 0.0
C127 C 0.55262 0.13282 0.50669 0.0
H128 H 0.50337 0.01781 0.50662 0.0
H129 H 0.58171 0.16447 0.51103 0.0
H130 H 0.67337 0.15489 0.54988 0.0
H131 H 0.60312 0.00909 0.54242 0.0
C132 C 0.53184 0.97198 0.52331 0.0
C133 C 0.51159 0.07875 0.55908 0.0
C134 C 0.66619 0.09387 0.49451 0.0
C135 C 0.64908 0.20084 0.53193 0.0
H136 H 0.44766 0.98368 0.56753 0.0
H137 H 0.45854 0.9244 0.54791 0.0
H138 H 0.56198 0.93655 0.49539 0.0
H139 H 0.63595 0.00406 0.47964 0.0
H140 H 0.7335 0.18892 0.48764 0.0
H141 H 0.72458 0.24821 0.50814 0.0
H142 H 0.61499 0.23642 0.55836 0.0
H143 H 0.5391 0.169 0.57308 0.0
H144 H 0.72856 0.15233 0.56864 0.0
H145 H 0.65713 0.00421 0.56147 0.0
H146 H 0.52546 0.17085 0.49425 0.0
H147 H 0.44591 0.0222 0.48944 0.0
C148 C 0.64763 0.58809 0.83749 0.0
C149 C 0.67605 0.57324 0.83082 0.0
C150 C 0.66196 0.53101 0.83837 0.0
C151 C 0.62623 0.52265 0.84932 0.0
N152 N 0.61718 0.55714 0.84922 0.0
Co153 Co 0.56973 0.56006 0.86357 0.0
N154 N 0.56467 0.51188 0.88015 0.0
C155 C 0.57934 0.4822 0.87699 0.0
C156 C 0.57092 0.45243 0.89084 0.0
C157 C 0.54909 0.46367 0.90343 0.0
C158 C 0.54531 0.49981 0.8965 0.0
N159 N 0.52201 0.56277 0.87782 0.0
C160 C 0.50571 0.546 0.89428 0.0
C161 C 0.47142 0.55473 0.89908 0.0
C162 C 0.46563 0.57701 0.88498 0.0
C163 C 0.49666 0.58078 0.87241 0.0
N164 N 0.57481 0.6081 0.84693 0.0
C165 C 0.54357 0.62082 0.84463 0.0
C166 C 0.55633 0.65456 0.83195 0.0
C167 C 0.59809 0.6634 0.82585 0.0
C168 C 0.60849 0.63449 0.83524 0.0
N169 N 0.52185 0.51191 0.84846 0.0
C170 C 0.4524 0.44417 0.82676 0.0
C171 C 0.49224 0.48088 0.81926 0.0
C172 C 0.52655 0.51422 0.83031 0.0
C173 C 0.44821 0.44195 0.84536 0.0
C174 C 0.48319 0.47611 0.85594 0.0
N175 N 0.61753 0.60829 0.8786 0.0
C176 C 0.65098 0.68287 0.89297 0.0
C177 C 0.68766 0.67889 0.89921 0.0
C178 C 0.68805 0.63844 0.89507 0.0
C179 C 0.65276 0.60366 0.88478 0.0
C180 C 0.61634 0.64724 0.88272 0.0
H181 H 0.65415 0.57311 0.88174 0.0
H182 H 0.58881 0.65146 0.87797 0.0
H183 H 0.55688 0.54195 0.82415 0.0
H184 H 0.47872 0.47359 0.87018 0.0
C185 C 0.6066 0.48785 0.86216 0.0
C186 C 0.64846 0.6301 0.83168 0.0
C187 C 0.51806 0.51733 0.90481 0.0
C188 C 0.50714 0.60612 0.85658 0.0
H189 H 0.70413 0.59094 0.82154 0.0
H190 H 0.67743 0.51005 0.83672 0.0
H191 H 0.5805 0.42645 0.89187 0.0
H192 H 0.53647 0.44647 0.9161 0.0
H193 H 0.45198 0.54514 0.91135 0.0
H194 H 0.4423 0.58981 0.88417 0.0
H195 H 0.53828 0.67186 0.82805 0.0
H196 H 0.61834 0.68794 0.81557 0.0
H197 H 0.49717 0.48356 0.80495 0.0
H198 H 0.4178 0.41438 0.85172 0.0
H199 H 0.64944 0.71365 0.89567 0.0
H200 H 0.71529 0.63347 0.89983 0.0
H201 H 0.11269 0.19376 0.05326 0.0
H202 H 0.0972 0.24628 0.07014 0.0
H203 H 0.98559 0.12985 0.09708 0.0
H204 H 0.0014 0.07682 0.08044 0.0
H205 H 0.01918 0.25205 0.07196 0.0
H206 H 0.06291 0.21256 0.13844 0.0
H207 H 0.07696 0.1947 0.11789 0.0
H208 H 0.01936 0.16315 0.12634 0.0
C209 C 0.08479 0.17917 0.06276 0.0
C210 C 0.05848 0.13103 0.06559 0.0
C211 C 0.07596 0.20931 0.07238 0.0
C212 C 0.04073 0.19206 0.08506 0.0
C213 C 0.01359 0.14397 0.08763 0.0
H214 H 0.96003 0.34093 0.15787 0.0
H215 H 0.96167 0.2806 0.14008 0.0
C216 C 0.02251 0.1137 0.07803 0.0
C217 C 0.03284 0.22478 0.09555 0.0
H218 H 0.03593 0.2646 0.13782 0.0
C219 C 0.02272 0.25472 0.08637 0.0
C220 C 0.03747 0.22819 0.11435 0.0
C221 C 0.05016 0.19827 0.12487 0.0
C222 C 0.01726 0.28809 0.09547 0.0
C223 C 0.02264 0.29198 0.11421 0.0
C224 C 0.03181 0.26145 0.12344 0.0
C225 C 0.02053 0.32858 0.12444 0.0
C226 C 0.00559 0.3188 0.08496 0.0
C227 C 0.05326 0.37549 0.1216 0.0
C228 C 0.05239 0.41 0.1317 0.0
C229 C 0.01879 0.39824 0.14488 0.0
C230 C 0.98595 0.35116 0.14765 0.0
C231 C 0.98698 0.31665 0.13758 0.0
H232 H 0.99098 0.30371 0.07166 0.0
H233 H 0.98068 0.32472 0.09229 0.0
H234 H 0.03729 0.35293 0.08288 0.0
H235 H 0.07989 0.38538 0.11171 0.0
H236 H 0.07796 0.44593 0.12917 0.0
H237 H 0.00497 0.06887 0.42975 0.0
H238 H 0.94305 0.06609 0.44737 0.0
H239 H 0.88278 0.08271 0.39947 0.0
H240 H 0.94379 0.08461 0.38174 0.0
H241 H 0.92389 0.1355 0.45029 0.0
H242 H 0.77206 0.97658 0.42351 0.0
H243 H 0.83003 0.9899 0.41969 0.0
H244 H 0.80611 0.01681 0.40642 0.0
C245 C 0.97812 0.07115 0.42292 0.0
C246 C 0.97934 0.0769 0.40433 0.0
C247 C 0.94283 0.06967 0.43303 0.0
C248 C 0.908 0.07365 0.42472 0.0
C249 C 0.90868 0.07852 0.40613 0.0
H250 H 0.68486 0.10948 0.4591 0.0
H251 H 0.74519 0.10573 0.4424 0.0
C252 C 0.94381 0.07985 0.39602 0.0
C253 C 0.87277 0.076 0.43555 0.0
H254 H 0.7571 0.02716 0.44075 0.0
C255 C 0.88742 0.11154 0.44833 0.0
C256 C 0.82521 0.04481 0.43292 0.0
C257 C 0.80737 0.0046 0.42001 0.0
C258 C 0.85579 0.11742 0.45826 0.0
C259 C 0.8083 0.08665 0.45544 0.0
C260 C 0.79359 0.05087 0.44278 0.0
C261 C 0.77325 0.09077 0.46559 0.0
C262 C 0.87338 0.15719 0.47137 0.0
C263 C 0.76917 0.08355 0.48409 0.0
C264 C 0.73497 0.08576 0.49355 0.0
C265 C 0.70447 0.0952 0.48462 0.0
C266 C 0.70855 0.10267 0.46617 0.0
C267 C 0.7427 0.10033 0.45669 0.0
H268 H 0.91003 0.18364 0.46902 0.0
H269 H 0.85283 0.17421 0.47057 0.0
H270 H 0.87027 0.14375 0.4851 0.0
H271 H 0.79188 0.07533 0.49115 0.0
H272 H 0.73175 0.07933 0.50777 0.0
H273 H 0.94524 0.92137 0.71879 0.0
H274 H 0.87868 0.87392 0.73764 0.0
H275 H 0.92877 0.78177 0.74809 0.0
H276 H 0.99636 0.83007 0.72982 0.0
H277 H 0.80962 0.78615 0.73796 0.0
H278 H 0.91812 0.81972 0.79784 0.0
H279 H 0.94098 0.85005 0.77716 0.0
H280 H 0.93194 0.79288 0.7802 0.0
C281 C 0.94185 0.8907 0.72494 0.0
C282 C 0.97638 0.8798 0.72303 0.0
C283 C 0.9038 0.86366 0.73574 0.0
C284 C 0.89943 0.82507 0.74469 0.0
C285 C 0.93223 0.81229 0.74179 0.0
H286 H 0.65758 0.60934 0.79742 0.0
H287 H 0.71716 0.65881 0.77607 0.0
C288 C 0.97064 0.83969 0.73122 0.0
C289 C 0.86145 0.7992 0.75751 0.0
H290 H 0.83919 0.76161 0.80055 0.0
C291 C 0.81605 0.78097 0.75167 0.0
C292 C 0.86991 0.79351 0.77554 0.0
C293 C 0.91788 0.81551 0.78312 0.0
C294 C 0.77882 0.75611 0.76324 0.0
C295 C 0.78723 0.74807 0.78098 0.0
C296 C 0.83268 0.76733 0.78692 0.0
C297 C 0.74963 0.7189 0.79354 0.0
C298 C 0.73101 0.73947 0.75639 0.0
C299 C 0.74859 0.73575 0.81063 0.0
C300 C 0.71533 0.70702 0.82298 0.0
C301 C 0.68281 0.66107 0.81843 0.0
C302 C 0.68289 0.6446 0.80122 0.0
C303 C 0.71648 0.67303 0.78897 0.0
H304 H 0.73151 0.76148 0.74528 0.0
H305 H 0.71584 0.70361 0.75115 0.0
H306 H 0.70848 0.73945 0.7671 0.0
H307 H 0.77386 0.77099 0.81447 0.0
H308 H 0.71536 0.72037 0.83616 0.0
H309 H 0.1811 0.9559 0.05501 0.0
H310 H 0.16021 0.89724 0.07788 0.0
H311 H 0.07893 0.94411 0.1045 0.0
H312 H 0.09897 0.00268 0.08136 0.0
H313 H 0.16962 0.90003 0.11462 0.0
H314 H 0.98564 0.80739 0.09422 0.0
H315 H 0.0302 0.85305 0.08101 0.0
H316 H 0.01003 0.86693 0.10084 0.0
C317 C 0.15919 0.95423 0.06582 0.0
C318 C 0.14123 0.98366 0.06621 0.0
C319 C 0.14733 0.92064 0.0789 0.0
C320 C 0.11727 0.91568 0.09267 0.0
C321 C 0.10139 0.94673 0.09375 0.0
H322 H 0.01953 0.69858 0.17469 0.0
H323 H 0.03748 0.77009 0.15894 0.0
C324 C 0.11319 0.98042 0.0806 0.0
C325 C 0.10111 0.87635 0.10518 0.0
H326 H 0.00643 0.77301 0.11668 0.0
C327 C 0.13387 0.87255 0.11524 0.0
C328 C 0.05442 0.84035 0.10586 0.0
C329 C 0.01796 0.8417 0.09483 0.0
C330 C 0.12133 0.83324 0.12562 0.0
C331 C 0.075 0.79692 0.1259 0.0
C332 C 0.04192 0.8012 0.11639 0.0
C333 C 0.06111 0.75286 0.135 0.0
C334 C 0.15772 0.82995 0.13588 0.0
C335 C 0.06766 0.7195 0.12653 0.0
C336 C 0.05721 0.67884 0.1354 0.0
C337 C 0.04036 0.67129 0.15288 0.0
C338 C 0.03249 0.70399 0.16118 0.0
C339 C 0.04276 0.74463 0.15226 0.0
H340 H 0.19119 0.86319 0.13592 0.0
H341 H 0.14658 0.81969 0.14988 0.0
H342 H 0.1626 0.80269 0.12979 0.0
H343 H 0.08169 0.72539 0.11318 0.0
H344 H 0.06342 0.65386 0.12884 0.0
H345 H 0.26427 0.17653 0.37358 0.0
H346 H 0.31183 0.16926 0.39606 0.0
H347 H 0.19866 0.11231 0.43296 0.0
H348 H 0.15007 0.11825 0.41025 0.0
H349 H 0.33956 0.20449 0.4291 0.0
H350 H 0.23138 0.01235 0.43186 0.0
H351 H 0.22367 0.04588 0.41503 0.0
H352 H 0.20194 0.04237 0.43718 0.0
C353 C 0.24941 0.16276 0.3865 0.0
C354 C 0.20312 0.14748 0.39003 0.0
C355 C 0.27674 0.15865 0.39936 0.0
C356 C 0.25855 0.13934 0.41606 0.0
C357 C 0.21306 0.12622 0.42 0.0
H358 H 0.44301 0.14872 0.49997 0.0
H359 H 0.3865 0.15817 0.48328 0.0
C360 C 0.18545 0.13001 0.40705 0.0
C361 C 0.28734 0.13207 0.42896 0.0
H362 H 0.29614 0.04814 0.4508 0.0
C363 C 0.32996 0.17036 0.43395 0.0
C364 C 0.275 0.08737 0.43504 0.0
C365 C 0.23072 0.04453 0.42941 0.0
C366 C 0.36096 0.16515 0.4446 0.0
C367 C 0.34843 0.12053 0.45085 0.0
C368 C 0.30551 0.08233 0.44609 0.0
C369 C 0.38027 0.11251 0.46163 0.0
C370 C 0.40755 0.20725 0.44841 0.0
C371 C 0.39402 0.08211 0.4554 0.0
C372 C 0.42584 0.07617 0.46503 0.0
C373 C 0.44462 0.10075 0.48101 0.0
C374 C 0.42975 0.13007 0.48749 0.0
C375 C 0.39758 0.13558 0.47796 0.0
H376 H 0.41608 0.23572 0.43887 0.0
H377 H 0.40767 0.22037 0.46202 0.0
H378 H 0.43488 0.19855 0.44776 0.0
H379 H 0.38091 0.06378 0.44286 0.0
H380 H 0.43676 0.05343 0.45973 0.0
H381 H 0.14947 0.14451 0.71326 0.0
H382 H 0.19624 0.21638 0.73043 0.0
H383 H 0.23481 0.14346 0.76685 0.0
H384 H 0.18867 0.07193 0.74992 0.0
H385 H 0.20327 0.20595 0.78228 0.0
H386 H 0.34311 0.28664 0.73182 0.0
H387 H 0.28441 0.26164 0.72458 0.0
H388 H 0.30395 0.2247 0.73263 0.0
C389 C 0.16771 0.14377 0.72499 0.0
C390 C 0.16557 0.10258 0.73017 0.0
C391 C 0.19444 0.18481 0.73472 0.0
C392 C 0.21905 0.18503 0.74979 0.0
C393 C 0.21605 0.14384 0.75522 0.0
H394 H 0.40502 0.3505 0.83164 0.0
H395 H 0.34501 0.291 0.81262 0.0
C396 C 0.18975 0.10305 0.74549 0.0
C397 C 0.24908 0.22815 0.75985 0.0
H398 H 0.35581 0.32531 0.75925 0.0
C399 C 0.23638 0.23247 0.7772 0.0
C400 C 0.29201 0.26258 0.75308 0.0
C401 C 0.3071 0.25896 0.73453 0.0
C402 C 0.2662 0.26985 0.78821 0.0
C403 C 0.31027 0.30299 0.78181 0.0
C404 C 0.3221 0.29973 0.76415 0.0
C405 C 0.34566 0.33944 0.79355 0.0
C406 C 0.25034 0.27325 0.80663 0.0
C407 C 0.36693 0.38636 0.78887 0.0
C408 C 0.40157 0.42046 0.79966 0.0
C409 C 0.41558 0.40817 0.81529 0.0
C410 C 0.39436 0.36111 0.81987 0.0
C411 C 0.35996 0.32709 0.80904 0.0
H412 H 0.2123 0.25537 0.80726 0.0
H413 H 0.26155 0.25615 0.8163 0.0
H414 H 0.26508 0.30993 0.81083 0.0
H415 H 0.35664 0.39658 0.77689 0.0
H416 H 0.41707 0.45647 0.79587 0.0
H417 H 0.95597 0.98945 0.66183 0.0
H418 H 0.89916 0.9964 0.64448 0.0
H419 H 0.99488 0.14281 0.63813 0.0
H420 H 0.05253 0.13611 0.65534 0.0
H421 H 0.86057 0.04993 0.65128 0.0
H422 H 0.95395 0.09756 0.58679 0.0
H423 H 0.97004 0.07444 0.6052 0.0
H424 H 0.98558 0.13417 0.60536 0.0
C425 C 0.96515 0.0232 0.65673 0.0
C426 C 0.00896 0.06223 0.65992 0.0
C427 C 0.93253 0.02708 0.64683 0.0
C428 C 0.94296 0.06997 0.63983 0.0
C429 C 0.98642 0.10919 0.64313 0.0
H430 H 0.73773 0.12665 0.59744 0.0
H431 H 0.79762 0.12609 0.61531 0.0
C432 C 0.01923 0.10535 0.65305 0.0
C433 C 0.90784 0.07324 0.62929 0.0
H434 H 0.88435 0.0974 0.5878 0.0
C435 C 0.86577 0.06043 0.63741 0.0
C436 C 0.91456 0.0864 0.61114 0.0
C437 C 0.95828 0.09856 0.60151 0.0
C438 C 0.83019 0.06037 0.62788 0.0
C439 C 0.83717 0.07423 0.60982 0.0
C440 C 0.87923 0.08705 0.60169 0.0
C441 C 0.8009 0.0747 0.599 0.0
C442 C 0.78504 0.04433 0.6371 0.0
C443 C 0.78352 0.04668 0.5837 0.0
C444 C 0.74963 0.04728 0.57334 0.0
C445 C 0.73265 0.07616 0.57803 0.0
C446 C 0.75027 0.10426 0.59337 0.0
C447 C 0.78417 0.10365 0.60371 0.0
H448 H 0.78138 0.02409 0.6493 0.0
H449 H 0.78307 0.07501 0.64113 0.0
H450 H 0.7557 0.02262 0.62804 0.0
H451 H 0.79619 0.02427 0.57979 0.0
H452 H 0.73738 0.02577 0.56146 0.0
H453 H 0.99023 0.0022 0.00486 0.0
H454 H 0.92023 0.94828 0.98823 0.0
H455 H 0.99891 0.91161 0.95422 0.0
H456 H 0.06856 0.96471 0.97069 0.0
H457 H 0.8978 0.93985 0.95018 0.0
H458 H 0.9 0.78755 0.97685 0.0
H459 H 0.9332 0.84469 0.98665 0.0
H460 H 0.95314 0.83024 0.96687 0.0
C461 C 0.99268 0.98305 0.99371 0.0
C462 C 0.0349 0.98735 0.98925 0.0
C463 C 0.95268 0.95227 0.98425 0.0
C464 C 0.95439 0.92539 0.97026 0.0
C465 C 0.99679 0.9314 0.96522 0.0
H466 H 0.77962 0.71163 0.89669 0.0
H467 H 0.84181 0.77268 0.91452 0.0
C468 C 0.03659 0.96192 0.97463 0.0
C469 C 0.91195 0.88961 0.96123 0.0
H470 H 0.8495 0.77345 0.95244 0.0
C471 C 0.8868 0.90339 0.95081 0.0
C472 C 0.89771 0.84209 0.96218 0.0
C473 C 0.92212 0.82508 0.97387 0.0
C474 C 0.84882 0.87094 0.94064 0.0
C475 C 0.83558 0.82364 0.94115 0.0
C476 C 0.85997 0.80981 0.95199 0.0
C477 C 0.7976 0.78794 0.93006 0.0
C478 C 0.82418 0.88761 0.92893 0.0
C479 C 0.75211 0.77615 0.933 0.0
C480 C 0.71637 0.74095 0.92292 0.0
C481 C 0.72553 0.71681 0.90978 0.0
C482 C 0.77126 0.72899 0.90687 0.0
C483 C 0.80689 0.76408 0.91695 0.0
H484 H 0.84395 0.9259 0.92742 0.0
H485 H 0.81765 0.87133 0.91549 0.0
H486 H 0.79051 0.87746 0.93495 0.0
H487 H 0.74417 0.79357 0.9433 0.0
H488 H 0.68148 0.73198 0.92567 0.0
H489 H 0.11655 0.03978 0.30096 0.0
H490 H 0.09435 0.9658 0.28686 0.0
H491 H 0.98564 0.89467 0.3251 0.0
H492 H 0.00767 0.96907 0.3395 0.0
H493 H 0.09076 0.88826 0.30836 0.0
H494 H 0.9286 0.84364 0.27291 0.0
H495 H 0.97164 0.90301 0.27815 0.0
H496 H 0.93739 0.86459 0.29561 0.0
C497 C 0.08756 0.0086 0.30633 0.0
C498 C 0.06405 0.01037 0.32146 0.0
C499 C 0.07494 0.96635 0.29822 0.0
C500 C 0.03842 0.92499 0.30494 0.0
C501 C 0.01375 0.92643 0.31966 0.0
H502 H 0.95338 0.65051 0.25947 0.0
H503 H 0.95503 0.71121 0.27825 0.0
C504 C 0.02643 0.96889 0.32787 0.0
C505 C 0.02889 0.88054 0.29712 0.0
H506 H 0.95836 0.79499 0.26792 0.0
C507 C 0.06151 0.86748 0.29969 0.0
C508 C 0.99052 0.85351 0.28598 0.0
C509 C 0.95488 0.86664 0.28286 0.0
C510 C 0.05765 0.82883 0.29089 0.0
C511 C 0.02069 0.80324 0.27894 0.0
C512 C 0.98679 0.81493 0.27703 0.0
C513 C 0.01871 0.7665 0.2674 0.0
C514 C 0.0936 0.81616 0.29425 0.0
C515 C 0.05349 0.77778 0.25489 0.0
C516 C 0.05259 0.74342 0.24413 0.0
C517 C 0.01672 0.69703 0.24561 0.0
C518 C 0.98135 0.68596 0.25794 0.0
C519 C 0.9823 0.72048 0.26872 0.0
H520 H 0.11118 0.83 0.30727 0.0
H521 H 0.07826 0.77797 0.29405 0.0
H522 H 0.11993 0.83133 0.28362 0.0
H523 H 0.08136 0.81332 0.2534 0.0
H524 H 0.07977 0.75332 0.2345 0.0
H525 H 0.19206 0.94031 0.66648 0.0
H526 H 0.24819 0.95906 0.6429 0.0
H527 H 0.20355 0.04335 0.61709 0.0
H528 H 0.14732 0.02519 0.64083 0.0
H529 H 0.2425 0.95012 0.60527 0.0
H530 H 0.34115 0.1342 0.62803 0.0
H531 H 0.29597 0.08902 0.6412 0.0
H532 H 0.28202 0.11139 0.62209 0.0
C533 C 0.1936 0.9623 0.65567 0.0
C534 C 0.16559 0.98174 0.65567 0.0
C535 C 0.22569 0.97292 0.64218 0.0
C536 C 0.23057 0.00326 0.62846 0.0
C537 C 0.20079 0.02048 0.62775 0.0
H538 H 0.43122 0.05873 0.54367 0.0
H539 H 0.36065 0.04366 0.55873 0.0
C540 C 0.16848 0.00979 0.64126 0.0
C541 C 0.26904 0.01895 0.61575 0.0
H542 H 0.37353 0.11254 0.60513 0.0
C543 C 0.27089 0.98574 0.60501 0.0
C544 C 0.30621 0.06538 0.61568 0.0
C545 C 0.3067 0.10215 0.62743 0.0
C546 C 0.30952 0.99744 0.59452 0.0
C547 C 0.34695 0.04372 0.59465 0.0
C548 C 0.3446 0.07719 0.60502 0.0
C549 C 0.39026 0.05712 0.58524 0.0
C550 C 0.31088 0.95977 0.58405 0.0
C551 C 0.43056 0.0713 0.59511 0.0
C552 C 0.47073 0.08018 0.58654 0.0
C553 C 0.47115 0.07535 0.56798 0.0
C554 C 0.4314 0.06279 0.55802 0.0
C555 C 0.39121 0.05393 0.56659 0.0
H556 H 0.2832 0.92459 0.58809 0.0
H557 H 0.30642 0.96398 0.56965 0.0
H558 H 0.34449 0.96221 0.58581 0.0
H559 H 0.43045 0.07394 0.60952 0.0
H560 H 0.50104 0.08938 0.59441 0.0
H561 H 0.2355 0.22453 0.02321 0.0
H562 H 0.29141 0.30063 0.01109 0.0
H563 H 0.34095 0.23579 0.97517 0.0
H564 H 0.28665 0.16021 0.98757 0.0
H565 H 0.41049 0.31539 0.98842 0.0
H566 H 0.27248 0.34345 0.96355 0.0
H567 H 0.27327 0.33624 0.98722 0.0
H568 H 0.26048 0.28873 0.97249 0.0
C569 C 0.25865 0.22659 0.01285 0.0
C570 C 0.25629 0.18623 0.00623 0.0
C571 C 0.29038 0.27008 0.00587 0.0
C572 C 0.31968 0.27382 0.99195 0.0
C573 C 0.31861 0.23378 0.98587 0.0
H574 H 0.433 0.44213 0.90243 0.0
H575 H 0.38675 0.3899 0.9264 0.0
C576 C 0.2874 0.1905 0.99296 0.0
C577 C 0.35008 0.31863 0.98293 0.0
H578 H 0.34811 0.39949 0.95622 0.0
C579 C 0.39703 0.3342 0.98155 0.0
C580 C 0.33231 0.34294 0.97391 0.0
C581 C 0.28186 0.32693 0.97419 0.0
C582 C 0.42625 0.37186 0.97067 0.0
C583 C 0.40823 0.39548 0.96134 0.0
C584 C 0.36183 0.38146 0.96348 0.0
C585 C 0.43498 0.43025 0.94742 0.0
C586 C 0.47533 0.384 0.96839 0.0
C587 C 0.47696 0.47095 0.9513 0.0
C588 C 0.50359 0.50063 0.93753 0.0
C589 C 0.48803 0.49027 0.91983 0.0
C590 C 0.44523 0.45081 0.91607 0.0
C591 C 0.41894 0.42107 0.92974 0.0
H592 H 0.48108 0.35665 0.97372 0.0
H593 H 0.48519 0.38934 0.95411 0.0
H594 H 0.49844 0.4167 0.9757 0.0
H595 H 0.48957 0.47917 0.96489 0.0
H596 H 0.53672 0.53089 0.94059 0.0
H597 H 0.14402 0.26864 0.31364 0.0
H598 H 0.11689 0.31682 0.30101 0.0
H599 H 0.99774 0.25113 0.33491 0.0
H600 H 0.02428 0.20196 0.34749 0.0
H601 H 0.97526 0.25302 0.30022 0.0
H602 H 0.11434 0.42755 0.32069 0.0
H603 H 0.13691 0.39585 0.30996 0.0
H604 H 0.10664 0.37537 0.33074 0.0
C605 C 0.11236 0.2648 0.31863 0.0
C606 C 0.08632 0.23138 0.33158 0.0
C607 C 0.09705 0.29266 0.31147 0.0
C608 C 0.05567 0.28809 0.31722 0.0
C609 C 0.02996 0.25542 0.33039 0.0
H610 H 0.99755 0.48711 0.26687 0.0
H611 H 0.00074 0.43843 0.29052 0.0
C612 C 0.04522 0.22741 0.33757 0.0
C613 C 0.03782 0.31487 0.30833 0.0
H614 H 0.07034 0.42402 0.29468 0.0
C615 C 0.99559 0.29051 0.29929 0.0
C616 C 0.06382 0.3638 0.30741 0.0
C617 C 0.1077 0.39216 0.31789 0.0
C618 C 0.98028 0.31358 0.28835 0.0
C619 C 0.0084 0.36208 0.28614 0.0
C620 C 0.04902 0.38674 0.29618 0.0
C621 C 0.99893 0.38739 0.2723 0.0
C622 C 0.93457 0.28563 0.279 0.0
C623 C 0.99617 0.37448 0.25429 0.0
C624 C 0.99402 0.40197 0.2409 0.0
C625 C 0.99496 0.44289 0.24534 0.0
C626 C 0.99618 0.4552 0.2633 0.0
C627 C 0.99817 0.4276 0.27673 0.0
H628 H 0.91082 0.25421 0.28675 0.0
H629 H 0.91811 0.30641 0.27686 0.0
H630 H 0.93981 0.27395 0.26583 0.0
H631 H 0.99805 0.34443 0.25051 0.0
H632 H 0.99389 0.39254 0.22706 0.0
loop_
_geom_bond_atom_site_label_1
_geom_bond_atom_site_label_2
_geom_bond_distance
_geom_bond_site_symmetry_2
_ccdc_geom_bond_type
Zn0 O3 2.031 . S
Zn0 O5 2.049 1_554 S
Zn0 O10 2.067 . S
Zn1 O2 1.962 . S
Zn1 O4 1.986 . S
Zn1 O6 1.996 . S
Zn1 O9 1.943 . S
O2 Zn1 1.962 . S
O2 C7 1.254 . S
O3 Zn0 2.031 . S
O3 C7 1.269 . S
O4 Zn1 1.986 . S
O4 C11 1.262 . S
O5 Zn0 2.049 1_556 S
O5 C13 1.260 1_556 S
O6 Zn1 1.996 . S
O6 C13 1.257 . S
C7 O2 1.254 . S
C7 O3 1.269 . S
C8 O9 1.249 . S
C8 O10 1.270 . S
O9 Zn1 1.943 . S
O9 C8 1.249 . S
O10 Zn0 2.067 . S
O10 C8 1.270 . S
C11 O4 1.262 . S
C11 O12 1.232 . S
O12 C11 1.232 . S
C13 O5 1.260 1_554 S
C13 O6 1.257 . S
Zn14 O17 2.031 . S
Zn14 O19 2.049 . S
Zn14 O24 2.067 . S
Zn15 O16 1.962 . S
Zn15 O18 1.986 1_455 S
Zn15 O20 1.996 . S
Zn15 O23 1.943 . S
O16 Zn15 1.962 . S
O16 C21 1.254 . S
O17 Zn14 2.031 . S
O17 C21 1.269 . S
O18 Zn15 1.986 1_655 S
O18 C25 1.262 . S
O19 Zn14 2.049 . S
O19 C27 1.260 . S
O20 Zn15 1.996 . S
O20 C27 1.257 . S
C21 O16 1.254 . S
C21 O17 1.269 . S
C22 O23 1.249 . S
C22 O24 1.270 . S
O23 Zn15 1.943 . S
O23 C22 1.249 . S
O24 Zn14 2.067 . S
O24 C22 1.270 . S
C25 O18 1.262 . S
C25 O26 1.232 . S
O26 C25 1.232 . S
C27 O19 1.260 . S
C27 O20 1.257 . S
Zn28 O31 2.031 1_565 S
Zn28 O33 2.049 . S
Zn28 O38 2.067 1_565 S
Zn29 O30 1.962 . S
Zn29 O32 1.986 1_455 S
Zn29 O34 1.996 1_545 S
Zn29 O37 1.943 . S
O30 Zn29 1.962 . S
O30 C35 1.254 . S
O31 Zn28 2.031 1_545 S
O31 C35 1.269 . S
O32 Zn29 1.986 1_655 S
O32 C39 1.262 1_655 S
O33 Zn28 2.049 . S
O33 C41 1.260 . S
O34 Zn29 1.996 1_565 S
O34 C41 1.257 . S
C35 O30 1.254 . S
C35 O31 1.269 . S
C36 O37 1.249 . S
C36 O38 1.270 . S
O37 Zn29 1.943 . S
O37 C36 1.249 . S
O38 Zn28 2.067 1_545 S
O38 C36 1.270 . S
C39 O32 1.262 1_455 S
C39 O40 1.232 . S
O40 C39 1.232 . S
C41 O33 1.260 . S
C41 O34 1.257 . S
C42 C43 1.443 . S
C42 N46 1.376 . S
C42 C80 1.389 . S
C43 C42 1.443 . S
C43 C44 1.340 . S
C43 H83 0.951 . S
C44 C43 1.340 . S
C44 C45 1.439 . S
C44 H84 0.950 . S
C45 C44 1.439 . S
C45 N46 1.374 . S
C45 C79 1.395 . S
N46 C42 1.376 . S
N46 C45 1.374 . S
N46 Co47 2.008 . S
Co47 N46 2.008 . S
Co47 N48 1.995 . S
Co47 N53 2.008 . S
Co47 N58 1.995 . S
Co47 N63 2.282 . S
Co47 N69 2.282 . S
N48 Co47 1.995 . S
N48 C49 1.376 . S
N48 C52 1.383 . S
C49 N48 1.376 . S
C49 C50 1.446 . S
C49 C79 1.391 . S
C50 C49 1.446 . S
C50 C51 1.339 . S
C50 H85 0.949 . S
C51 C50 1.339 . S
C51 C52 1.439 . S
C51 H86 0.950 . S
C52 N48 1.383 . S
C52 C51 1.439 . S
C52 C81 1.392 . S
N53 Co47 2.008 . S
N53 C54 1.376 . S
N53 C57 1.374 1_455 S
C54 N53 1.376 . S
C54 C55 1.443 1_455 S
C54 C81 1.389 . S
C55 C54 1.443 1_655 S
C55 C56 1.340 . S
C55 H87 0.951 . S
C56 C55 1.340 . S
C56 C57 1.439 . S
C56 H88 0.950 . S
C57 N53 1.374 1_655 S
C57 C56 1.439 . S
C57 C82 1.395 . S
N58 Co47 1.995 . S
N58 C59 1.376 1_455 S
N58 C62 1.383 . S
C59 N58 1.376 1_655 S
C59 C60 1.446 . S
C59 C82 1.391 . S
C60 C59 1.446 . S
C60 C61 1.339 . S
C60 H89 0.949 . S
C61 C60 1.339 . S
C61 C62 1.439 1_655 S
C61 H90 0.950 . S
C62 N58 1.383 . S
C62 C61 1.439 1_455 S
C62 C80 1.392 . S
N63 Co47 2.282 . S
N63 C66 1.332 . S
N63 C68 1.332 . S
C64 C65 1.386 . S
C64 C67 1.388 . S
C65 C64 1.386 . S
C65 C66 1.382 . S
C65 H91 0.965 . S
C66 N63 1.332 . S
C66 C65 1.382 . S
C66 H77 0.952 . S
C67 C64 1.388 . S
C67 C68 1.382 . S
C67 H92 0.950 . S
C68 N63 1.332 . S
C68 C67 1.382 . S
C68 H78 0.948 . S
N69 Co47 2.282 . S
N69 C73 1.332 . S
N69 C74 1.332 . S
C70 C71 1.388 . S
C70 C74 1.382 . S
C70 H93 0.950 1_455 S
C71 C70 1.388 . S
C71 C72 1.386 . S
C72 C71 1.386 . S
C72 C73 1.382 . S
C72 H94 0.950 . S
C73 N69 1.332 . S
C73 C72 1.382 . S
C73 H75 0.952 . S
C74 N69 1.332 . S
C74 C70 1.382 . S
C74 H76 0.948 1_455 S
H75 C73 0.952 . S
H76 C74 0.948 1_655 S
H77 C66 0.952 . S
H78 C68 0.948 . S
C79 C45 1.395 . S
C79 C49 1.391 . S
C80 C42 1.389 . S
C80 C62 1.392 . S
C81 C52 1.392 . S
C81 C54 1.389 . S
C82 C57 1.395 . S
C82 C59 1.391 . S
H83 C43 0.951 . S
H84 C44 0.950 . S
H85 C50 0.949 . S
H86 C51 0.950 . S
H87 C55 0.951 . S
H88 C56 0.950 . S
H89 C60 0.949 . S
H90 C61 0.950 . S
H91 C65 0.965 . S
H92 C67 0.950 . S
H93 C70 0.950 1_655 S
H94 C72 0.950 . S
C95 C96 1.443 1_545 S
C95 N99 1.376 . S
C95 C133 1.389 . S
C96 C95 1.443 1_565 S
C96 C97 1.340 . S
C96 H136 0.951 . S
C97 C96 1.340 . S
C97 C98 1.439 . S
C97 H137 0.950 . S
C98 C97 1.439 . S
C98 N99 1.374 1_565 S
C98 C132 1.395 . S
N99 C95 1.376 . S
N99 C98 1.374 1_545 S
N99 Co100 2.008 . S
Co100 N99 2.008 . S
Co100 N101 1.995 . S
Co100 N106 2.008 . S
Co100 N111 1.995 . S
Co100 N116 2.282 . S
Co100 N122 2.282 . S
N101 Co100 1.995 . S
N101 C102 1.376 1_545 S
N101 C105 1.383 . S
C102 N101 1.376 1_565 S
C102 C103 1.446 . S
C102 C132 1.391 . S
C103 C102 1.446 . S
C103 C104 1.339 1_565 S
C103 H138 0.949 . S
C104 C103 1.339 1_545 S
C104 C105 1.439 . S
C104 H139 0.950 . S
C105 N101 1.383 . S
C105 C104 1.439 . S
C105 C134 1.392 . S
N106 Co100 2.008 . S
N106 C107 1.376 . S
N106 C110 1.374 . S
C107 N106 1.376 . S
C107 C108 1.443 . S
C107 C134 1.389 . S
C108 C107 1.443 . S
C108 C109 1.340 . S
C108 H140 0.951 . S
C109 C108 1.340 . S
C109 C110 1.439 . S
C109 H141 0.950 . S
C110 N106 1.374 . S
C110 C109 1.439 . S
C110 C135 1.395 . S
N111 Co100 1.995 . S
N111 C112 1.376 . S
N111 C115 1.383 . S
C112 N111 1.376 . S
C112 C113 1.446 . S
C112 C135 1.391 . S
C113 C112 1.446 . S
C113 C114 1.339 . S
C113 H142 0.949 . S
C114 C113 1.339 . S
C114 C115 1.439 . S
C114 H143 0.950 . S
C115 N111 1.383 . S
C115 C114 1.439 . S
C115 C133 1.392 . S
N116 Co100 2.282 . S
N116 C119 1.332 . S
N116 C121 1.332 . S
C117 C118 1.386 . S
C117 C120 1.388 . S
C118 C117 1.386 . S
C118 C119 1.382 . S
C118 H144 0.950 . S
C119 N116 1.332 . S
C119 C118 1.382 . S
C119 H130 0.952 . S
C120 C117 1.388 . S
C120 C121 1.382 . S
C120 H145 0.950 . S
C121 N116 1.332 . S
C121 C120 1.382 . S
C121 H131 0.948 . S
N122 Co100 2.282 . S
N122 C126 1.332 . S
N122 C127 1.332 . S
C123 C124 1.388 . S
C123 C127 1.382 . S
C123 H146 0.950 . S
C124 C123 1.388 . S
C124 C125 1.386 . S
C125 C124 1.386 . S
C125 C126 1.382 . S
C125 H147 0.950 . S
C126 N122 1.332 . S
C126 C125 1.382 . S
C126 H128 0.952 . S
C127 N122 1.332 . S
C127 C123 1.382 . S
C127 H129 0.948 . S
H128 C126 0.952 . S
H129 C127 0.948 . S
H130 C119 0.952 . S
H131 C121 0.948 . S
C132 C98 1.395 . S
C132 C102 1.391 . S
C133 C95 1.389 . S
C133 C115 1.392 . S
C134 C105 1.392 . S
C134 C107 1.389 . S
C135 C110 1.395 . S
C135 C112 1.391 . S
H136 C96 0.951 . S
H137 C97 0.950 . S
H138 C103 0.949 . S
H139 C104 0.950 . S
H140 C108 0.951 . S
H141 C109 0.950 . S
H142 C113 0.949 . S
H143 C114 0.950 . S
H144 C118 0.950 . S
H145 C120 0.950 . S
H146 C123 0.950 . S
H147 C125 0.950 . S
C148 C149 1.443 . S
C148 N152 1.376 . S
C148 C186 1.389 . S
C149 C148 1.443 . S
C149 C150 1.340 . S
C149 H189 0.951 . S
C150 C149 1.340 . S
C150 C151 1.439 . S
C150 H190 0.950 . S
C151 C150 1.439 . S
C151 N152 1.374 . S
C151 C185 1.395 . S
N152 C148 1.376 . S
N152 C151 1.374 . S
N152 Co153 2.008 . S
Co153 N152 2.008 . S
Co153 N154 1.995 . S
Co153 N159 2.008 . S
Co153 N164 1.995 . S
Co153 N169 2.282 . S
Co153 N175 2.282 . S
N154 Co153 1.995 . S
N154 C155 1.376 . S
N154 C158 1.383 . S
C155 N154 1.376 . S
C155 C156 1.446 . S
C155 C185 1.391 . S
C156 C155 1.446 . S
C156 C157 1.339 . S
C156 H191 0.949 . S
C157 C156 1.339 . S
C157 C158 1.439 . S
C157 H192 0.950 . S
C158 N154 1.383 . S
C158 C157 1.439 . S
C158 C187 1.392 . S
N159 Co153 2.008 . S
N159 C160 1.376 . S
N159 C163 1.374 . S
C160 N159 1.376 . S
C160 C161 1.443 . S
C160 C187 1.389 . S
C161 C160 1.443 . S
C161 C162 1.340 . S
C161 H193 0.951 . S
C162 C161 1.340 . S
C162 C163 1.439 . S
C162 H194 0.950 . S
C163 N159 1.374 . S
C163 C162 1.439 . S
C163 C188 1.395 . S
N164 Co153 1.995 . S
N164 C165 1.376 . S
N164 C168 1.383 . S
C165 N164 1.376 . S
C165 C166 1.446 . S
C165 C188 1.391 . S
C166 C165 1.446 . S
C166 C167 1.339 . S
C166 H195 0.949 . S
C167 C166 1.339 . S
C167 C168 1.439 . S
C167 H196 0.950 . S
C168 N164 1.383 . S
C168 C167 1.439 . S
C168 C186 1.392 . S
N169 Co153 2.282 . S
N169 C172 1.332 . S
N169 C174 1.332 . S
C170 C171 1.386 . S
C170 C173 1.388 . S
C171 C170 1.386 . S
C171 C172 1.382 . S
C171 H197 0.950 . S
C172 N169 1.332 . S
C172 C171 1.382 . S
C172 H183 0.952 . S
C173 C170 1.388 . S
C173 C174 1.382 . S
C173 H198 0.950 . S
C174 N169 1.332 . S
C174 C173 1.382 . S
C174 H184 0.948 . S
N175 Co153 2.282 . S
N175 C179 1.332 . S
N175 C180 1.332 . S
C176 C177 1.388 . S
C176 C180 1.382 . S
C176 H199 0.950 . S
C177 C176 1.388 . S
C177 C178 1.386 . S
C178 C177 1.386 . S
C178 C179 1.382 . S
C178 H200 0.950 . S
C179 N175 1.332 . S
C179 C178 1.382 . S
C179 H181 0.952 . S
C180 N175 1.332 . S
C180 C176 1.382 . S
C180 H182 0.948 . S
H181 C179 0.952 . S
H182 C180 0.948 . S
H183 C172 0.952 . S
H184 C174 0.948 . S
C185 C151 1.395 . S
C185 C155 1.391 . S
C186 C148 1.389 . S
C186 C168 1.392 . S
C187 C158 1.392 . S
C187 C160 1.389 . S
C188 C163 1.395 . S
C188 C165 1.391 . S
H189 C149 0.951 . S
H190 C150 0.950 . S
H191 C156 0.949 . S
H192 C157 0.950 . S
H193 C161 0.951 . S
H194 C162 0.950 . S
H195 C166 0.949 . S
H196 C167 0.950 . S
H197 C171 0.950 . S
H198 C173 0.950 . S
H199 C176 0.950 . S
H200 C178 0.950 . S
H201 C209 0.929 . S
H202 C211 0.930 . S
H203 C213 0.930 . S
H204 C216 0.929 . S
H205 C219 0.930 . S
H206 C221 0.960 . S
H207 C221 0.960 . S
H208 C221 0.960 . S
C209 H201 0.929 . S
C209 C210 1.377 . S
C209 C211 1.384 . S
C210 C209 1.377 . S
C210 C216 1.390 . S
C211 H202 0.930 . S
C211 C209 1.384 . S
C211 C212 1.372 . S
C212 C211 1.372 . S
C212 C213 1.400 . S
C212 C217 1.490 . S
C213 H203 0.930 . S
C213 C212 1.400 . S
C213 C216 1.386 . S
H214 C230 0.930 . S
H215 C231 0.931 . S
C216 H204 0.929 . S
C216 C210 1.390 . S
C216 C213 1.386 . S
C217 C212 1.490 . S
C217 C219 1.395 . S
C217 C220 1.403 . S
H218 C224 0.930 . S
C219 H205 0.930 . S
C219 C217 1.395 . S
C219 C222 1.403 . S
C220 C217 1.403 . S
C220 C221 1.524 . S
C220 C224 1.400 . S
C221 H206 0.960 . S
C221 H207 0.960 . S
C221 H208 0.960 . S
C221 C220 1.524 . S
C222 C219 1.403 . S
C222 C223 1.392 . S
C222 C226 1.495 . S
C223 C222 1.392 . S
C223 C224 1.385 . S
C223 C225 1.478 . S
C224 H218 0.930 . S
C224 C220 1.400 . S
C224 C223 1.385 . S
C225 C223 1.478 . S
C225 C227 1.381 . S
C225 C231 1.383 . S
C226 C222 1.495 . S
C226 H232 0.959 . S
C226 H233 0.961 . S
C226 H234 0.960 . S
C227 C225 1.381 . S
C227 C228 1.394 . S
C227 H235 0.930 . S
C228 C227 1.394 . S
C228 C229 1.383 . S
C228 H236 0.929 . S
C229 C228 1.383 . S
C229 C230 1.377 . S
C230 H214 0.930 . S
C230 C229 1.377 . S
C230 C231 1.379 . S
C231 H215 0.931 . S
C231 C225 1.383 . S
C231 C230 1.379 . S
H232 C226 0.959 . S
H233 C226 0.961 . S
H234 C226 0.960 . S
H235 C227 0.930 . S
H236 C228 0.929 . S
H237 C245 0.929 . S
H238 C247 0.930 . S
H239 C249 0.930 . S
H240 C252 0.929 . S
H241 C255 0.930 . S
H242 C257 0.960 . S
H243 C257 0.960 . S
H244 C257 0.960 . S
C245 H237 0.929 . S
C245 C246 1.377 . S
C245 C247 1.384 . S
C246 C245 1.377 . S
C246 C252 1.390 . S
C247 H238 0.930 . S
C247 C245 1.384 . S
C247 C248 1.372 . S
C248 C247 1.372 . S
C248 C249 1.400 . S
C248 C253 1.490 . S
C249 H239 0.930 . S
C249 C248 1.400 . S
C249 C252 1.386 . S
H250 C266 0.930 . S
H251 C267 0.931 . S
C252 H240 0.929 . S
C252 C246 1.390 . S
C252 C249 1.386 . S
C253 C248 1.490 . S
C253 C255 1.395 . S
C253 C256 1.403 . S
H254 C260 0.930 . S
C255 H241 0.930 . S
C255 C253 1.395 . S
C255 C258 1.403 . S
C256 C253 1.403 . S
C256 C257 1.524 . S
C256 C260 1.400 . S
C257 H242 0.960 . S
C257 H243 0.960 . S
C257 H244 0.960 . S
C257 C256 1.524 . S
C258 C255 1.403 . S
C258 C259 1.392 . S
C258 C262 1.495 . S
C259 C258 1.392 . S
C259 C260 1.385 . S
C259 C261 1.478 . S
C260 H254 0.930 . S
C260 C256 1.400 . S
C260 C259 1.385 . S
C261 C259 1.478 . S
C261 C263 1.381 . S
C261 C267 1.383 . S
C262 C258 1.495 . S
C262 H268 0.959 . S
C262 H269 0.961 . S
C262 H270 0.960 . S
C263 C261 1.381 . S
C263 C264 1.394 . S
C263 H271 0.930 . S
C264 C263 1.394 . S
C264 C265 1.383 . S
C264 H272 0.929 . S
C265 C264 1.383 . S
C265 C266 1.377 . S
C266 H250 0.930 . S
C266 C265 1.377 . S
C266 C267 1.379 . S
C267 H251 0.931 . S
C267 C261 1.383 . S
C267 C266 1.379 . S
H268 C262 0.959 . S
H269 C262 0.961 . S
H270 C262 0.960 . S
H271 C263 0.930 . S
H272 C264 0.929 . S
H273 C281 0.929 . S
H274 C283 0.930 . S
H275 C285 0.930 . S
H276 C288 0.929 . S
H277 C291 0.930 . S
H278 C293 0.960 . S
H279 C293 0.960 . S
H280 C293 0.960 . S
C281 H273 0.929 . S
C281 C282 1.377 . S
C281 C283 1.384 . S
C282 C281 1.377 . S
C282 C288 1.390 . S
C283 H274 0.930 . S
C283 C281 1.384 . S
C283 C284 1.372 . S
C284 C283 1.372 . S
C284 C285 1.400 . S
C284 C289 1.490 . S
C285 H275 0.930 . S
C285 C284 1.400 . S
C285 C288 1.386 . S
H286 C302 0.930 . S
H287 C303 0.931 . S
C288 H276 0.929 . S
C288 C282 1.390 . S
C288 C285 1.386 . S
C289 C284 1.490 . S
C289 C291 1.395 . S
C289 C292 1.403 . S
H290 C296 0.930 . S
C291 H277 0.930 . S
C291 C289 1.395 . S
C291 C294 1.403 . S
C292 C289 1.403 . S
C292 C293 1.524 . S
C292 C296 1.400 . S
C293 H278 0.960 . S
C293 H279 0.960 . S
C293 H280 0.960 . S
C293 C292 1.524 . S
C294 C291 1.403 . S
C294 C295 1.392 . S
C294 C298 1.495 . S
C295 C294 1.392 . S
C295 C296 1.385 . S
C295 C297 1.478 . S
C296 H290 0.930 . S
C296 C292 1.400 . S
C296 C295 1.385 . S
C297 C295 1.478 . S
C297 C299 1.381 . S
C297 C303 1.383 . S
C298 C294 1.495 . S
C298 H304 0.959 . S
C298 H305 0.961 . S
C298 H306 0.960 . S
C299 C297 1.381 . S
C299 C300 1.394 . S
C299 H307 0.930 . S
C300 C299 1.394 . S
C300 C301 1.383 . S
C300 H308 0.929 . S
C301 C300 1.383 . S
C301 C302 1.377 . S
C302 H286 0.930 . S
C302 C301 1.377 . S
C302 C303 1.379 . S
C303 H287 0.931 . S
C303 C297 1.383 . S
C303 C302 1.379 . S
H304 C298 0.959 . S
H305 C298 0.961 . S
H306 C298 0.960 . S
H307 C299 0.930 . S
H308 C300 0.929 . S
H309 C317 0.929 . S
H310 C319 0.930 . S
H311 C321 0.930 . S
H312 C324 0.929 1_545 S
H313 C327 0.930 . S
H314 C329 0.960 1_655 S
H315 C329 0.960 . S
H316 C329 0.960 . S
C317 H309 0.929 . S
C317 C318 1.377 . S
C317 C319 1.384 . S
C318 C317 1.377 . S
C318 C324 1.390 . S
C319 H310 0.930 . S
C319 C317 1.384 . S
C319 C320 1.372 . S
C320 C319 1.372 . S
C320 C321 1.400 . S
C320 C325 1.490 . S
C321 H311 0.930 . S
C321 C320 1.400 . S
C321 C324 1.386 . S
H322 C338 0.930 . S
H323 C339 0.931 . S
C324 H312 0.929 1_565 S
C324 C318 1.390 . S
C324 C321 1.386 . S
C325 C320 1.490 . S
C325 C327 1.395 . S
C325 C328 1.403 . S
H326 C332 0.930 . S
C327 H313 0.930 . S
C327 C325 1.395 . S
C327 C330 1.403 . S
C328 C325 1.403 . S
C328 C329 1.524 . S
C328 C332 1.400 . S
C329 H314 0.960 1_455 S
C329 H315 0.960 . S
C329 H316 0.960 . S
C329 C328 1.524 . S
C330 C327 1.403 . S
C330 C331 1.392 . S
C330 C334 1.495 . S
C331 C330 1.392 . S
C331 C332 1.385 . S
C331 C333 1.478 . S
C332 H326 0.930 . S
C332 C328 1.400 . S
C332 C331 1.385 . S
C333 C331 1.478 . S
C333 C335 1.381 . S
C333 C339 1.383 . S
C334 C330 1.495 . S
C334 H340 0.959 . S
C334 H341 0.961 . S
C334 H342 0.960 . S
C335 C333 1.381 . S
C335 C336 1.394 . S
C335 H343 0.930 . S
C336 C335 1.394 . S
C336 C337 1.383 . S
C336 H344 0.929 . S
C337 C336 1.383 . S
C337 C338 1.377 . S
C338 H322 0.930 . S
C338 C337 1.377 . S
C338 C339 1.379 . S
C339 H323 0.931 . S
C339 C333 1.383 . S
C339 C338 1.379 . S
H340 C334 0.959 . S
H341 C334 0.961 . S
H342 C334 0.960 . S
H343 C335 0.930 . S
H344 C336 0.929 . S
H345 C353 0.929 . S
H346 C355 0.930 . S
H347 C357 0.930 . S
H348 C360 0.929 . S
H349 C363 0.930 . S
H350 C365 0.960 . S
H351 C365 0.960 . S
H352 C365 0.960 . S
C353 H345 0.929 . S
C353 C354 1.377 . S
C353 C355 1.384 . S
C354 C353 1.377 . S
C354 C360 1.390 . S
C355 H346 0.930 . S
C355 C353 1.384 . S
C355 C356 1.372 . S
C356 C355 1.372 . S
C356 C357 1.400 . S
C356 C361 1.490 . S
C357 H347 0.930 . S
C357 C356 1.400 . S
C357 C360 1.386 . S
H358 C374 0.930 . S
H359 C375 0.931 . S
C360 H348 0.929 . S
C360 C354 1.390 . S
C360 C357 1.386 . S
C361 C356 1.490 . S
C361 C363 1.395 . S
C361 C364 1.403 . S
H362 C368 0.930 . S
C363 H349 0.930 . S
C363 C361 1.395 . S
C363 C366 1.403 . S
C364 C361 1.403 . S
C364 C365 1.524 . S
C364 C368 1.400 . S
C365 H350 0.960 . S
C365 H351 0.960 . S
C365 H352 0.960 . S
C365 C364 1.524 . S
C366 C363 1.403 . S
C366 C367 1.392 . S
C366 C370 1.495 . S
C367 C366 1.392 . S
C367 C368 1.385 . S
C367 C369 1.478 . S
C368 H362 0.930 . S
C368 C364 1.400 . S
C368 C367 1.385 . S
C369 C367 1.478 . S
C369 C371 1.381 . S
C369 C375 1.383 . S
C370 C366 1.495 . S
C370 H376 0.959 . S
C370 H377 0.961 . S
C370 H378 0.960 . S
C371 C369 1.381 . S
C371 C372 1.394 . S
C371 H379 0.930 . S
C372 C371 1.394 . S
C372 C373 1.383 . S
C372 H380 0.929 . S
C373 C372 1.383 . S
C373 C374 1.377 . S
C374 H358 0.930 . S
C374 C373 1.377 . S
C374 C375 1.379 . S
C375 H359 0.931 . S
C375 C369 1.383 . S
C375 C374 1.379 . S
H376 C370 0.959 . S
H377 C370 0.961 . S
H378 C370 0.960 . S
H379 C371 0.930 . S
H380 C372 0.929 . S
H381 C389 0.929 . S
H382 C391 0.930 . S
H383 C393 0.930 . S
H384 C396 0.929 . S
H385 C399 0.930 . S
H386 C401 0.960 . S
H387 C401 0.960 . S
H388 C401 0.960 . S
C389 H381 0.929 . S
C389 C390 1.377 . S
C389 C391 1.384 . S
C390 C389 1.377 . S
C390 C396 1.390 . S
C391 H382 0.930 . S
C391 C389 1.384 . S
C391 C392 1.372 . S
C392 C391 1.372 . S
C392 C393 1.400 . S
C392 C397 1.490 . S
C393 H383 0.930 . S
C393 C392 1.400 . S
C393 C396 1.386 . S
H394 C410 0.930 . S
H395 C411 0.931 . S
C396 H384 0.929 . S
C396 C390 1.390 . S
C396 C393 1.386 . S
C397 C392 1.490 . S
C397 C399 1.395 . S
C397 C400 1.403 . S
H398 C404 0.930 . S
C399 H385 0.930 . S
C399 C397 1.395 . S
C399 C402 1.403 . S
C400 C397 1.403 . S
C400 C401 1.524 . S
C400 C404 1.400 . S
C401 H386 0.960 . S
C401 H387 0.960 . S
C401 H388 0.960 . S
C401 C400 1.524 . S
C402 C399 1.403 . S
C402 C403 1.392 . S
C402 C406 1.495 . S
C403 C402 1.392 . S
C403 C404 1.385 . S
C403 C405 1.478 . S
C404 H398 0.930 . S
C404 C400 1.400 . S
C404 C403 1.385 . S
C405 C403 1.478 . S
C405 C407 1.381 . S
C405 C411 1.383 . S
C406 C402 1.495 . S
C406 H412 0.959 . S
C406 H413 0.961 . S
C406 H414 0.960 . S
C407 C405 1.381 . S
C407 C408 1.394 . S
C407 H415 0.930 . S
C408 C407 1.394 . S
C408 C409 1.383 . S
C408 H416 0.929 . S
C409 C408 1.383 . S
C409 C410 1.377 . S
C410 H394 0.930 . S
C410 C409 1.377 . S
C410 C411 1.379 . S
C411 H395 0.931 . S
C411 C405 1.383 . S
C411 C410 1.379 . S
H412 C406 0.959 . S
H413 C406 0.961 . S
H414 C406 0.960 . S
H415 C407 0.930 . S
H416 C408 0.929 . S
H417 C425 0.929 1_565 S
H418 C427 0.930 1_565 S
H419 C429 0.930 . S
H420 C432 0.929 . S
H421 C435 0.930 . S
H422 C437 0.960 . S
H423 C437 0.960 . S
H424 C437 0.960 . S
C425 H417 0.929 1_545 S
C425 C426 1.377 . S
C425 C427 1.384 . S
C426 C425 1.377 . S
C426 C432 1.390 . S
C427 H418 0.930 1_545 S
C427 C425 1.384 . S
C427 C428 1.372 . S
C428 C427 1.372 . S
C428 C429 1.400 . S
C428 C433 1.490 . S
C429 H419 0.930 . S
C429 C428 1.400 . S
C429 C432 1.386 . S
H430 C446 0.930 . S
H431 C447 0.931 . S
C432 H420 0.929 . S
C432 C426 1.390 . S
C432 C429 1.386 . S
C433 C428 1.490 . S
C433 C435 1.395 . S
C433 C436 1.403 . S
H434 C440 0.930 . S
C435 H421 0.930 . S
C435 C433 1.395 . S
C435 C438 1.403 . S
C436 C433 1.403 . S
C436 C437 1.524 . S
C436 C440 1.400 . S
C437 H422 0.960 . S
C437 H423 0.960 . S
C437 H424 0.960 . S
C437 C436 1.524 . S
C438 C435 1.403 . S
C438 C439 1.392 . S
C438 C442 1.495 . S
C439 C438 1.392 . S
C439 C440 1.385 . S
C439 C441 1.478 . S
C440 H434 0.930 . S
C440 C436 1.400 . S
C440 C439 1.385 . S
C441 C439 1.478 . S
C441 C443 1.381 . S
C441 C447 1.383 . S
C442 C438 1.495 . S
C442 H448 0.961 1_545 S
C442 H449 0.959 . S
C442 H450 0.961 1_545 S
C443 C441 1.381 . S
C443 C444 1.394 . S
C443 H451 0.930 1_545 S
C444 C443 1.394 . S
C444 C445 1.383 . S
C444 H452 0.929 . S
C445 C444 1.383 . S
C445 C446 1.377 . S
C446 H430 0.930 . S
C446 C445 1.377 . S
C446 C447 1.379 . S
C447 H431 0.931 . S
C447 C441 1.383 . S
C447 C446 1.379 . S
H448 C442 0.961 1_565 S
H449 C442 0.959 . S
H450 C442 0.961 1_565 S
H451 C443 0.930 1_565 S
H452 C444 0.929 . S
H453 C461 0.929 . S
H454 C463 0.930 1_554 S
H455 C465 0.942 . S
H456 C468 0.928 1_545 S
H457 C471 0.930 . S
H458 C473 0.960 . S
H459 C473 0.960 . S
H460 C473 0.960 . S
C461 H453 0.929 . S
C461 C462 1.377 1_655 S
C461 C463 1.384 1_554 S
C462 C461 1.377 1_455 S
C462 C468 1.390 1_554 S
C463 H454 0.930 1_556 S
C463 C461 1.384 1_556 S
C463 C464 1.372 . S
C464 C463 1.372 . S
C464 C465 1.380 1_655 S
C464 C469 1.490 . S
C465 H455 0.942 . S
C465 C464 1.380 1_455 S
C465 C468 1.394 . S
H466 C482 0.930 . S
H467 C483 0.931 . S
C468 H456 0.928 1_565 S
C468 C462 1.390 1_556 S
C468 C465 1.394 . S
C469 C464 1.490 . S
C469 C471 1.395 . S
C469 C472 1.403 . S
H470 C476 0.930 . S
C471 H457 0.930 . S
C471 C469 1.395 . S
C471 C474 1.403 . S
C472 C469 1.403 . S
C472 C473 1.524 . S
C472 C476 1.400 . S
C473 H458 0.960 . S
C473 H459 0.960 . S
C473 H460 0.960 . S
C473 C472 1.524 . S
C474 C471 1.403 . S
C474 C475 1.392 . S
C474 C478 1.495 . S
C475 C474 1.392 . S
C475 C476 1.385 . S
C475 C477 1.478 . S
C476 H470 0.930 . S
C476 C472 1.400 . S
C476 C475 1.385 . S
C477 C475 1.478 . S
C477 C479 1.381 . S
C477 C483 1.383 . S
C478 C474 1.495 . S
C478 H484 0.959 . S
C478 H485 0.961 . S
C478 H486 0.960 . S
C479 C477 1.381 . S
C479 C480 1.394 . S
C479 H487 0.930 . S
C480 C479 1.394 . S
C480 C481 1.383 . S
C480 H488 0.929 . S
C481 C480 1.383 . S
C481 C482 1.377 . S
C482 H466 0.930 . S
C482 C481 1.377 . S
C482 C483 1.379 . S
C483 H467 0.931 . S
C483 C477 1.383 . S
C483 C482 1.379 . S
H484 C478 0.959 . S
H485 C478 0.961 . S
H486 C478 0.960 . S
H487 C479 0.930 . S
H488 C480 0.929 . S
H489 C497 0.929 . S
H490 C499 0.930 . S
H491 C501 0.930 . S
H492 C504 0.929 . S
H493 C507 0.930 . S
H494 C509 0.960 . S
H495 C509 0.960 . S
H496 C509 0.960 . S
C497 H489 0.929 . S
C497 C498 1.377 . S
C497 C499 1.384 1_545 S
C498 C497 1.377 . S
C498 C504 1.390 1_545 S
C499 H490 0.930 . S
C499 C497 1.384 1_565 S
C499 C500 1.372 . S
C500 C499 1.372 . S
C500 C501 1.400 . S
C500 C505 1.490 . S
C501 H491 0.930 . S
C501 C500 1.400 . S
C501 C504 1.386 . S
H502 C518 0.930 . S
H503 C519 0.931 . S
C504 H492 0.929 . S
C504 C498 1.390 1_565 S
C504 C501 1.386 . S
C505 C500 1.490 . S
C505 C507 1.395 . S
C505 C508 1.403 1_455 S
H506 C512 0.930 1_655 S
C507 H493 0.930 . S
C507 C505 1.395 . S
C507 C510 1.403 . S
C508 C505 1.403 1_655 S
C508 C509 1.524 . S
C508 C512 1.400 1_655 S
C509 H494 0.960 . S
C509 H495 0.960 . S
C509 H496 0.960 . S
C509 C508 1.524 . S
C510 C507 1.403 . S
C510 C511 1.392 . S
C510 C514 1.495 . S
C511 C510 1.392 . S
C511 C512 1.385 . S
C511 C513 1.478 . S
C512 H506 0.930 1_455 S
C512 C508 1.400 1_455 S
C512 C511 1.385 . S
C513 C511 1.478 . S
C513 C515 1.381 . S
C513 C519 1.383 . S
C514 C510 1.495 . S
C514 H520 0.959 . S
C514 H521 0.961 . S
C514 H522 0.960 . S
C515 C513 1.381 . S
C515 C516 1.394 . S
C515 H523 0.930 . S
C516 C515 1.394 . S
C516 C517 1.383 . S
C516 H524 0.929 . S
C517 C516 1.383 . S
C517 C518 1.377 . S
C518 H502 0.930 . S
C518 C517 1.377 . S
C518 C519 1.379 . S
C519 H503 0.931 . S
C519 C513 1.383 . S
C519 C518 1.379 . S
H520 C514 0.959 . S
H521 C514 0.961 . S
H522 C514 0.960 . S
H523 C515 0.930 . S
H524 C516 0.929 . S
H525 C533 0.929 . S
H526 C535 0.930 . S
H527 C537 0.930 . S
H528 C540 0.929 1_565 S
H529 C543 0.930 . S
H530 C545 0.960 . S
H531 C545 0.960 . S
H532 C545 0.960 . S
C533 H525 0.929 . S
C533 C534 1.377 . S
C533 C535 1.384 . S
C534 C533 1.377 . S
C534 C540 1.390 . S
C535 H526 0.930 . S
C535 C533 1.384 . S
C535 C536 1.372 . S
C536 C535 1.372 . S
C536 C537 1.400 . S
C536 C541 1.490 . S
C537 H527 0.930 . S
C537 C536 1.400 . S
C537 C540 1.386 . S
H538 C554 0.930 . S
H539 C555 0.931 . S
C540 H528 0.929 1_545 S
C540 C534 1.390 . S
C540 C537 1.386 . S
C541 C536 1.490 . S
C541 C543 1.395 . S
C541 C544 1.403 . S
H542 C548 0.930 . S
C543 H529 0.930 . S
C543 C541 1.395 . S
C543 C546 1.403 . S
C544 C541 1.403 . S
C544 C545 1.524 . S
C544 C548 1.400 . S
C545 H530 0.960 . S
C545 H531 0.960 . S
C545 H532 0.960 . S
C545 C544 1.524 . S
C546 C543 1.403 . S
C546 C547 1.392 . S
C546 C550 1.495 1_545 S
C547 C546 1.392 . S
C547 C548 1.385 . S
C547 C549 1.478 . S
C548 H542 0.930 . S
C548 C544 1.400 . S
C548 C547 1.385 . S
C549 C547 1.478 . S
C549 C551 1.381 . S
C549 C555 1.383 . S
C550 C546 1.495 1_565 S
C550 H556 0.959 . S
C550 H557 0.961 . S
C550 H558 0.960 1_565 S
C551 C549 1.381 . S
C551 C552 1.394 . S
C551 H559 0.930 . S
C552 C551 1.394 . S
C552 C553 1.383 . S
C552 H560 0.929 . S
C553 C552 1.383 . S
C553 C554 1.377 . S
C554 H538 0.930 . S
C554 C553 1.377 . S
C554 C555 1.379 . S
C555 H539 0.931 . S
C555 C549 1.383 . S
C555 C554 1.379 . S
H556 C550 0.959 . S
H557 C550 0.961 . S
H558 C550 0.960 1_545 S
H559 C551 0.930 . S
H560 C552 0.929 . S
H561 C569 0.936 . S
H562 C571 0.930 . S
H563 C573 0.930 . S
H564 C576 0.929 . S
H565 C579 0.930 . S
H566 C581 0.960 . S
H567 C581 0.960 . S
H568 C581 0.960 . S
C569 H561 0.936 . S
C569 C570 1.377 . S
C569 C571 1.384 . S
C570 C569 1.377 . S
C570 C576 1.390 . S
C571 H562 0.930 . S
C571 C569 1.384 . S
C571 C572 1.372 . S
C572 C571 1.372 . S
C572 C573 1.400 . S
C572 C577 1.490 . S
C573 H563 0.930 . S
C573 C572 1.400 . S
C573 C576 1.386 . S
H574 C590 0.930 . S
H575 C591 0.931 . S
C576 H564 0.929 . S
C576 C570 1.390 . S
C576 C573 1.386 . S
C577 C572 1.490 . S
C577 C579 1.395 . S
C577 C580 1.403 . S
H578 C584 0.930 . S
C579 H565 0.930 . S
C579 C577 1.395 . S
C579 C582 1.403 . S
C580 C577 1.403 . S
C580 C581 1.524 . S
C580 C584 1.400 . S
C581 H566 0.960 . S
C581 H567 0.960 . S
C581 H568 0.960 . S
C581 C580 1.524 . S
C582 C579 1.403 . S
C582 C583 1.392 . S
C582 C586 1.495 . S
C583 C582 1.392 . S
C583 C584 1.385 . S
C583 C585 1.478 . S
C584 H578 0.930 . S
C584 C580 1.400 . S
C584 C583 1.385 . S
C585 C583 1.478 . S
C585 C587 1.381 . S
C585 C591 1.383 . S
C586 C582 1.495 . S
C586 H592 0.959 . S
C586 H593 0.961 . S
C586 H594 0.960 . S
C587 C585 1.381 . S
C587 C588 1.394 . S
C587 H595 0.930 . S
C588 C587 1.394 . S
C588 C589 1.383 . S
C588 H596 0.929 . S
C589 C588 1.383 . S
C589 C590 1.377 . S
C590 H574 0.930 . S
C590 C589 1.377 . S
C590 C591 1.379 . S
C591 H575 0.931 . S
C591 C585 1.383 . S
C591 C590 1.379 . S
H592 C586 0.959 . S
H593 C586 0.961 . S
H594 C586 0.960 . S
H595 C587 0.930 . S
H596 C588 0.929 . S
H597 C605 0.929 . S
H598 C607 0.930 . S
H599 C609 0.930 . S
H600 C612 0.929 . S
H601 C615 0.930 . S
H602 C617 0.960 . S
H603 C617 0.960 . S
H604 C617 0.960 . S
C605 H597 0.929 . S
C605 C606 1.377 . S
C605 C607 1.384 . S
C606 C605 1.377 . S
C606 C612 1.390 . S
C607 H598 0.930 . S
C607 C605 1.384 . S
C607 C608 1.372 . S
C608 C607 1.372 . S
C608 C609 1.400 . S
C608 C613 1.490 . S
C609 H599 0.930 . S
C609 C608 1.400 . S
C609 C612 1.386 . S
H610 C626 0.930 . S
H611 C627 0.931 . S
C612 H600 0.929 . S
C612 C606 1.390 . S
C612 C609 1.386 . S
C613 C608 1.490 . S
C613 C615 1.395 . S
C613 C616 1.403 . S
H614 C620 0.930 . S
C615 H601 0.930 . S
C615 C613 1.395 . S
C615 C618 1.403 . S
C616 C613 1.403 . S
C616 C617 1.524 . S
C616 C620 1.400 . S
C617 H602 0.960 . S
C617 H603 0.960 . S
C617 H604 0.960 . S
C617 C616 1.524 . S
C618 C615 1.403 . S
C618 C619 1.392 . S
C618 C622 1.495 1_455 S
C619 C618 1.392 . S
C619 C620 1.385 . S
C619 C621 1.478 . S
C620 H614 0.930 . S
C620 C616 1.400 . S
C620 C619 1.385 . S
C621 C619 1.478 . S
C621 C623 1.381 . S
C621 C627 1.383 . S
C622 C618 1.495 1_655 S
C622 H628 0.959 . S
C622 H629 0.961 . S
C622 H630 0.960 1_655 S
C623 C621 1.381 . S
C623 C624 1.394 . S
C623 H631 0.930 . S
C624 C623 1.394 . S
C624 C625 1.383 . S
C624 H632 0.929 . S
C625 C624 1.383 . S
C625 C626 1.377 . S
C626 H610 0.930 . S
C626 C625 1.377 . S
C626 C627 1.379 . S
C627 H611 0.931 . S
C627 C621 1.383 . S
C627 C626 1.379 . S
H628 C622 0.959 . S
H629 C622 0.961 . S
H630 C622 0.960 1_455 S
H631 C623 0.930 . S
H632 C624 0.929 . S
C229 C64 1.306 . S
C210 C11 1.297 . S
C246 C25 1.365 . S
C265 C134 1.376 . S
C282 C41 1.352 1_655 S
C301 C186 1.409 . S
C318 C7 1.327 1_565 S
C337 C80 1.320 . S
C373 C124 1.396 . S
C354 C21 1.399 . S
C390 C36 1.384 . S
C409 C170 1.428 . S
C445 C117 1.370 . S
C426 C39 1.361 1_655 S
C462 C8 1.378 1_565 S
C481 C177 1.417 . S
C517 C71 1.488 . S
C498 C22 1.434 . S
C553 C133 1.386 . S
C534 C35 1.392 . S
C589 C187 1.401 . S
C570 C13 1.353 1_556 S
C606 C27 1.407 . S
C625 C81 1.465 . S
