# Generated by pormake.
# Topology gar, (4,6)-cn, num edge types: 1
# Building blocks:
#     Node 0, Type 0, BuildingBlock: CEKHIL_clean_sbu_0, # of connection points: 4
#     Node 1, Type 0, BuildingBlock: CEKHIL_clean_sbu_0, # of connection points: 4
#     Node 2, Type 0, BuildingBlock: CEKHIL_clean_sbu_0, # of connection points: 4
#     Node 3, Type 0, BuildingBlock: CEKHIL_clean_sbu_0, # of connection points: 4
#     Node 4, Type 0, BuildingBlock: CEKHIL_clean_sbu_0, # of connection points: 4
#     Node 5, Type 0, BuildingBlock: CEKHIL_clean_sbu_0, # of connection points: 4
#     Node 6, Type 0, BuildingBlock: CEKHIL_clean_sbu_0, # of connection points: 4
#     Node 7, Type 0, BuildingBlock: CEKHIL_clean_sbu_0, # of connection points: 4
#     Node 8, Type 0, BuildingBlock: CEKHIL_clean_sbu_0, # of connection points: 4
#     Node 9, Type 0, BuildingBlock: CEKHIL_clean_sbu_0, # of connection points: 4
#     Node 10, Type 0, BuildingBlock: CEKHIL_clean_sbu_0, # of connection points: 4
#     Node 11, Type 0, BuildingBlock: CEKHIL_clean_sbu_0, # of connection points: 4
#     Node 12, Type 0, BuildingBlock: CEKHIL_clean_sbu_0, # of connection points: 4
#     Node 13, Type 0, BuildingBlock: CEKHIL_clean_sbu_0, # of connection points: 4
#     Node 14, Type 0, BuildingBlock: CEKHIL_clean_sbu_0, # of connection points: 4
#     Node 15, Type 0, BuildingBlock: CEKHIL_clean_sbu_0, # of connection points: 4
#     Node 16, Type 0, BuildingBlock: CEKHIL_clean_sbu_0, # of connection points: 4
#     Node 17, Type 0, BuildingBlock: CEKHIL_clean_sbu_0, # of connection points: 4
#     Node 18, Type 0, BuildingBlock: CEKHIL_clean_sbu_0, # of connection points: 4
#     Node 19, Type 0, BuildingBlock: CEKHIL_clean_sbu_0, # of connection points: 4
#     Node 20, Type 0, BuildingBlock: CEKHIL_clean_sbu_0, # of connection points: 4
#     Node 21, Type 0, BuildingBlock: CEKHIL_clean_sbu_0, # of connection points: 4
#     Node 22, Type 0, BuildingBlock: CEKHIL_clean_sbu_0, # of connection points: 4
#     Node 23, Type 0, BuildingBlock: CEKHIL_clean_sbu_0, # of connection points: 4
#     Node 24, Type 1, BuildingBlock: BETDAH_clean_sbu_0, # of connection points: 6
#     Node 25, Type 1, BuildingBlock: BETDAH_clean_sbu_0, # of connection points: 6
#     Node 26, Type 1, BuildingBlock: BETDAH_clean_sbu_0, # of connection points: 6
#     Node 27, Type 1, BuildingBlock: BETDAH_clean_sbu_0, # of connection points: 6
#     Node 28, Type 1, BuildingBlock: BETDAH_clean_sbu_0, # of connection points: 6
#     Node 29, Type 1, BuildingBlock: BETDAH_clean_sbu_0, # of connection points: 6
#     Node 30, Type 1, BuildingBlock: BETDAH_clean_sbu_0, # of connection points: 6
#     Node 31, Type 1, BuildingBlock: BETDAH_clean_sbu_0, # of connection points: 6
#     Node 32, Type 1, BuildingBlock: BETDAH_clean_sbu_0, # of connection points: 6
#     Node 33, Type 1, BuildingBlock: BETDAH_clean_sbu_0, # of connection points: 6
#     Node 34, Type 1, BuildingBlock: BETDAH_clean_sbu_0, # of connection points: 6
#     Node 35, Type 1, BuildingBlock: BETDAH_clean_sbu_0, # of connection points: 6
#     Node 36, Type 1, BuildingBlock: BETDAH_clean_sbu_0, # of connection points: 6
#     Node 37, Type 1, BuildingBlock: BETDAH_clean_sbu_0, # of connection points: 6
#     Node 38, Type 1, BuildingBlock: BETDAH_clean_sbu_0, # of connection points: 6
#     Node 39, Type 1, BuildingBlock: BETDAH_clean_sbu_0, # of connection points: 6
#     Edge 40, Type (0, 1), BuildingBlock: CIFDUS_clean_linker_0, # of connection points: 2
#     Edge 41, Type (0, 1), BuildingBlock: CIFDUS_clean_linker_0, # of connection points: 2
#     Edge 42, Type (0, 1), BuildingBlock: CIFDUS_clean_linker_0, # of connection points: 2
#     Edge 43, Type (0, 1), BuildingBlock: CIFDUS_clean_linker_0, # of connection points: 2
#     Edge 44, Type (0, 1), BuildingBlock: CIFDUS_clean_linker_0, # of connection points: 2
#     Edge 45, Type (0, 1), BuildingBlock: CIFDUS_clean_linker_0, # of connection points: 2
#     Edge 46, Type (0, 1), BuildingBlock: CIFDUS_clean_linker_0, # of connection points: 2
#     Edge 47, Type (0, 1), BuildingBlock: CIFDUS_clean_linker_0, # of connection points: 2
#     Edge 48, Type (0, 1), BuildingBlock: CIFDUS_clean_linker_0, # of connection points: 2
#     Edge 49, Type (0, 1), BuildingBlock: CIFDUS_clean_linker_0, # of connection points: 2
#     Edge 50, Type (0, 1), BuildingBlock: CIFDUS_clean_linker_0, # of connection points: 2
#     Edge 51, Type (0, 1), BuildingBlock: CIFDUS_clean_linker_0, # of connection points: 2
#     Edge 52, Type (0, 1), BuildingBlock: CIFDUS_clean_linker_0, # of connection points: 2
#     Edge 53, Type (0, 1), BuildingBlock: CIFDUS_clean_linker_0, # of connection points: 2
#     Edge 54, Type (0, 1), BuildingBlock: CIFDUS_clean_linker_0, # of connection points: 2
#     Edge 55, Type (0, 1), BuildingBlock: CIFDUS_clean_linker_0, # of connection points: 2
#     Edge 56, Type (0, 1), BuildingBlock: CIFDUS_clean_linker_0, # of connection points: 2
#     Edge 57, Type (0, 1), BuildingBlock: CIFDUS_clean_linker_0, # of connection points: 2
#     Edge 58, Type (0, 1), BuildingBlock: CIFDUS_clean_linker_0, # of connection points: 2
#     Edge 59, Type (0, 1), BuildingBlock: CIFDUS_clean_linker_0, # of connection points: 2
#     Edge 60, Type (0, 1), BuildingBlock: CIFDUS_clean_linker_0, # of connection points: 2
#     Edge 61, Type (0, 1), BuildingBlock: CIFDUS_clean_linker_0, # of connection points: 2
#     Edge 62, Type (0, 1), BuildingBlock: CIFDUS_clean_linker_0, # of connection points: 2
#     Edge 63, Type (0, 1), BuildingBlock: CIFDUS_clean_linker_0, # of connection points: 2
#     Edge 64, Type (0, 1), BuildingBlock: CIFDUS_clean_linker_0, # of connection points: 2
#     Edge 65, Type (0, 1), BuildingBlock: CIFDUS_clean_linker_0, # of connection points: 2
#     Edge 66, Type (0, 1), BuildingBlock: CIFDUS_clean_linker_0, # of connection points: 2
#     Edge 67, Type (0, 1), BuildingBlock: CIFDUS_clean_linker_0, # of connection points: 2
#     Edge 68, Type (0, 1), BuildingBlock: CIFDUS_clean_linker_0, # of connection points: 2
#     Edge 69, Type (0, 1), BuildingBlock: CIFDUS_clean_linker_0, # of connection points: 2
#     Edge 70, Type (0, 1), BuildingBlock: CIFDUS_clean_linker_0, # of connection points: 2
#     Edge 71, Type (0, 1), BuildingBlock: CIFDUS_clean_linker_0, # of connection points: 2
#     Edge 72, Type (0, 1), BuildingBlock: CIFDUS_clean_linker_0, # of connection points: 2
#     Edge 73, Type (0, 1), BuildingBlock: CIFDUS_clean_linker_0, # of connection points: 2
#     Edge 74, Type (0, 1), BuildingBlock: CIFDUS_clean_linker_0, # of connection points: 2
#     Edge 75, Type (0, 1), BuildingBlock: CIFDUS_clean_linker_0, # of connection points: 2
#     Edge 76, Type (0, 1), BuildingBlock: CIFDUS_clean_linker_0, # of connection points: 2
#     Edge 77, Type (0, 1), BuildingBlock: CIFDUS_clean_linker_0, # of connection points: 2
#     Edge 78, Type (0, 1), BuildingBlock: CIFDUS_clean_linker_0, # of connection points: 2
#     Edge 79, Type (0, 1), BuildingBlock: CIFDUS_clean_linker_0, # of connection points: 2
#     Edge 80, Type (0, 1), BuildingBlock: CIFDUS_clean_linker_0, # of connection points: 2
#     Edge 81, Type (0, 1), BuildingBlock: CIFDUS_clean_linker_0, # of connection points: 2
#     Edge 82, Type (0, 1), BuildingBlock: CIFDUS_clean_linker_0, # of connection points: 2
#     Edge 83, Type (0, 1), BuildingBlock: CIFDUS_clean_linker_0, # of connection points: 2
#     Edge 84, Type (0, 1), BuildingBlock: CIFDUS_clean_linker_0, # of connection points: 2
#     Edge 85, Type (0, 1), BuildingBlock: CIFDUS_clean_linker_0, # of connection points: 2
#     Edge 86, Type (0, 1), BuildingBlock: CIFDUS_clean_linker_0, # of connection points: 2
#     Edge 87, Type (0, 1), BuildingBlock: CIFDUS_clean_linker_0, # of connection points: 2
#     Edge 88, Type (0, 1), BuildingBlock: CIFDUS_clean_linker_0, # of connection points: 2
#     Edge 89, Type (0, 1), BuildingBlock: CIFDUS_clean_linker_0, # of connection points: 2
#     Edge 90, Type (0, 1), BuildingBlock: CIFDUS_clean_linker_0, # of connection points: 2
#     Edge 91, Type (0, 1), BuildingBlock: CIFDUS_clean_linker_0, # of connection points: 2
#     Edge 92, Type (0, 1), BuildingBlock: CIFDUS_clean_linker_0, # of connection points: 2
#     Edge 93, Type (0, 1), BuildingBlock: CIFDUS_clean_linker_0, # of connection points: 2
#     Edge 94, Type (0, 1), BuildingBlock: CIFDUS_clean_linker_0, # of connection points: 2
#     Edge 95, Type (0, 1), BuildingBlock: CIFDUS_clean_linker_0, # of connection points: 2
#     Edge 96, Type (0, 1), BuildingBlock: CIFDUS_clean_linker_0, # of connection points: 2
#     Edge 97, Type (0, 1), BuildingBlock: CIFDUS_clean_linker_0, # of connection points: 2
#     Edge 98, Type (0, 1), BuildingBlock: CIFDUS_clean_linker_0, # of connection points: 2
#     Edge 99, Type (0, 1), BuildingBlock: CIFDUS_clean_linker_0, # of connection points: 2
#     Edge 100, Type (0, 1), BuildingBlock: CIFDUS_clean_linker_0, # of connection points: 2
#     Edge 101, Type (0, 1), BuildingBlock: CIFDUS_clean_linker_0, # of connection points: 2
#     Edge 102, Type (0, 1), BuildingBlock: CIFDUS_clean_linker_0, # of connection points: 2
#     Edge 103, Type (0, 1), BuildingBlock: CIFDUS_clean_linker_0, # of connection points: 2
#     Edge 104, Type (0, 1), BuildingBlock: CIFDUS_clean_linker_0, # of connection points: 2
#     Edge 105, Type (0, 1), BuildingBlock: CIFDUS_clean_linker_0, # of connection points: 2
#     Edge 106, Type (0, 1), BuildingBlock: CIFDUS_clean_linker_0, # of connection points: 2
#     Edge 107, Type (0, 1), BuildingBlock: CIFDUS_clean_linker_0, # of connection points: 2
#     Edge 108, Type (0, 1), BuildingBlock: CIFDUS_clean_linker_0, # of connection points: 2
#     Edge 109, Type (0, 1), BuildingBlock: CIFDUS_clean_linker_0, # of connection points: 2
#     Edge 110, Type (0, 1), BuildingBlock: CIFDUS_clean_linker_0, # of connection points: 2
#     Edge 111, Type (0, 1), BuildingBlock: CIFDUS_clean_linker_0, # of connection points: 2
#     Edge 112, Type (0, 1), BuildingBlock: CIFDUS_clean_linker_0, # of connection points: 2
#     Edge 113, Type (0, 1), BuildingBlock: CIFDUS_clean_linker_0, # of connection points: 2
#     Edge 114, Type (0, 1), BuildingBlock: CIFDUS_clean_linker_0, # of connection points: 2
#     Edge 115, Type (0, 1), BuildingBlock: CIFDUS_clean_linker_0, # of connection points: 2
#     Edge 116, Type (0, 1), BuildingBlock: CIFDUS_clean_linker_0, # of connection points: 2
#     Edge 117, Type (0, 1), BuildingBlock: CIFDUS_clean_linker_0, # of connection points: 2
#     Edge 118, Type (0, 1), BuildingBlock: CIFDUS_clean_linker_0, # of connection points: 2
#     Edge 119, Type (0, 1), BuildingBlock: CIFDUS_clean_linker_0, # of connection points: 2
#     Edge 120, Type (0, 1), BuildingBlock: CIFDUS_clean_linker_0, # of connection points: 2
#     Edge 121, Type (0, 1), BuildingBlock: CIFDUS_clean_linker_0, # of connection points: 2
#     Edge 122, Type (0, 1), BuildingBlock: CIFDUS_clean_linker_0, # of connection points: 2
#     Edge 123, Type (0, 1), BuildingBlock: CIFDUS_clean_linker_0, # of connection points: 2
#     Edge 124, Type (0, 1), BuildingBlock: CIFDUS_clean_linker_0, # of connection points: 2
#     Edge 125, Type (0, 1), BuildingBlock: CIFDUS_clean_linker_0, # of connection points: 2
#     Edge 126, Type (0, 1), BuildingBlock: CIFDUS_clean_linker_0, # of connection points: 2
#     Edge 127, Type (0, 1), BuildingBlock: CIFDUS_clean_linker_0, # of connection points: 2
#     Edge 128, Type (0, 1), BuildingBlock: CIFDUS_clean_linker_0, # of connection points: 2
#     Edge 129, Type (0, 1), BuildingBlock: CIFDUS_clean_linker_0, # of connection points: 2
#     Edge 130, Type (0, 1), BuildingBlock: CIFDUS_clean_linker_0, # of connection points: 2
#     Edge 131, Type (0, 1), BuildingBlock: CIFDUS_clean_linker_0, # of connection points: 2
#     Edge 132, Type (0, 1), BuildingBlock: CIFDUS_clean_linker_0, # of connection points: 2
#     Edge 133, Type (0, 1), BuildingBlock: CIFDUS_clean_linker_0, # of connection points: 2
#     Edge 134, Type (0, 1), BuildingBlock: CIFDUS_clean_linker_0, # of connection points: 2
#     Edge 135, Type (0, 1), BuildingBlock: CIFDUS_clean_linker_0, # of connection points: 2
# Relax obj value: 0.211
# Max RMSD: 0.319
# Mean RMSD: 0.163
data_MOF--net-gar--node1-CEKHIL_clean_sbu_0--node2-BETDAH_clean_sbu_0--edge1-CIFDUS_clean_linker_0
_symmetry_space_group_name_H-M    P1
_symmetry_Int_Tables_number       1
_symmetry_cell_setting            triclinic
loop_
_symmetry_equiv_pos_as_xyz
'x, y, z'
_cell_length_a     55.472529
_cell_length_b     48.940213
_cell_length_c     48.543453
_cell_angle_alpha  98.939773
_cell_angle_beta   95.421625
_cell_angle_gamma 101.96249
loop_
_atom_site_label
_atom_site_type_symbol
_atom_site_fract_x
_atom_site_fract_y
_atom_site_fract_z
_atom_type_partial_charge
Co0 Co 0.15168 0.3765 0.40484 0.0
O1 O 0.1856 0.37413 0.41085 0.0
O2 O 0.15825 0.35228 0.37318 0.0
C3 C 0.15886 0.42364 0.41748 0.0
O4 O 0.11606 0.37397 0.39069 0.0
Co5 Co 0.12423 0.40081 0.45282 0.0
O6 O 0.09744 0.39853 0.42189 0.0
C7 C 0.13124 0.34157 0.4466 0.0
C8 C 0.18075 0.35795 0.38618 0.0
C9 C 0.09756 0.38384 0.39786 0.0
O10 O 0.14124 0.34348 0.424 0.0
O11 O 0.12525 0.36244 0.46162 0.0
O12 O 0.1612 0.41266 0.39204 0.0
O13 O 0.15392 0.40627 0.43466 0.0
Co14 Co 1.01291 0.77482 0.66994 0.0
O15 O 0.9773 0.76657 0.66489 0.0
O16 O 1.00113 0.7665 0.70437 0.0
C17 C 1.01842 0.81371 0.6501 0.0
O18 O 0.04984 0.78292 0.68317 0.0
Co19 Co 0.04327 0.77644 0.61882 0.0
O20 O 0.07141 0.79565 0.64845 0.0
C21 C 1.01722 0.72177 0.63226 0.0
C22 C 0.97901 0.76338 0.691 0.0
C23 C 0.07022 0.79301 0.67403 0.0
O24 O 1.01235 0.73376 0.65593 0.0
O25 O 0.02728 0.73516 0.61412 0.0
O26 O 1.01442 0.81578 0.67622 0.0
O27 O 1.01678 0.78842 0.63677 0.0
Co28 Co 0.64953 0.8784 0.89786 0.0
O29 O 0.68452 0.88313 0.89943 0.0
O30 O 0.65711 0.86392 0.86129 0.0
C31 C 0.65173 0.92214 0.92057 0.0
O32 O 0.61222 0.87121 0.88898 0.0
Co33 Co 0.62657 0.8844 0.95438 0.0
O34 O 0.59506 0.87828 0.92903 0.0
C35 C 0.64219 0.83204 0.93226 0.0
C36 C 0.68019 0.87233 0.87287 0.0
C37 C 0.59337 0.8718 0.90233 0.0
O38 O 0.64594 0.84006 0.9088 0.0
O39 O 0.63725 0.84777 0.95363 0.0
O40 O 0.65241 0.91786 0.89363 0.0
O41 O 0.65147 0.90068 0.93293 0.0
Co42 Co 0.5146 0.28068 0.17089 0.0
O43 O 0.47956 0.27298 0.16119 0.0
O44 O 0.49928 0.27462 0.20383 0.0
C45 C 0.52275 0.31801 0.14924 0.0
O46 O 0.55022 0.28914 0.18855 0.0
Co47 Co 0.54996 0.27965 0.12419 0.0
O48 O 0.57576 0.29896 0.15636 0.0
C49 C 0.52522 0.22644 0.14201 0.0
C50 C 0.47861 0.27235 0.18769 0.0
C51 C 0.57188 0.29768 0.18166 0.0
O52 O 0.51517 0.23951 0.16119 0.0
O53 O 0.53773 0.23835 0.12453 0.0
O54 O 0.51624 0.32137 0.17432 0.0
O55 O 0.52196 0.29233 0.13752 0.0
Co56 Co 0.12185 0.84463 0.13703 0.0
O57 O 0.08553 0.83769 0.13092 0.0
O58 O 0.10778 0.83154 0.16862 0.0
C59 C 0.12739 0.88779 0.12238 0.0
O60 O 0.15809 0.84995 0.15467 0.0
Co61 Co 0.1582 0.85184 0.09615 0.0
O62 O 0.18678 0.85646 0.12587 0.0
C63 C 0.13007 0.7938 0.09691 0.0
C64 C 0.08603 0.83077 0.15576 0.0
C65 C 0.18096 0.85376 0.15012 0.0
O66 O 0.12067 0.80385 0.11853 0.0
O67 O 0.14427 0.80992 0.08386 0.0
O68 O 0.12367 0.88524 0.14797 0.0
O69 O 0.12816 0.86441 0.10599 0.0
Co70 Co 0.54139 0.79926 0.43341 0.0
O71 O 0.57706 0.80707 0.4434 0.0
O72 O 0.55726 0.7886 0.40076 0.0
C73 C 0.53746 0.8421 0.45502 0.0
O74 O 0.50522 0.79035 0.41385 0.0
Co75 Co 0.50517 0.79517 0.47575 0.0
O76 O 0.47988 0.79902 0.44575 0.0
C77 C 0.53217 0.74987 0.46544 0.0
C78 C 0.57828 0.79789 0.41714 0.0
C79 C 0.48395 0.79435 0.4203 0.0
O80 O 0.53911 0.76032 0.44394 0.0
O81 O 0.51922 0.76149 0.48219 0.0
O82 O 0.54346 0.83819 0.42977 0.0
O83 O 0.53511 0.82023 0.46757 0.0
Co84 Co 0.62091 0.3483 0.64038 0.0
O85 O 0.58473 0.34249 0.63477 0.0
O86 O 0.60695 0.33668 0.67268 0.0
C87 C 0.62755 0.39052 0.62428 0.0
O88 O 0.65734 0.35265 0.65714 0.0
Co89 Co 0.65575 0.35242 0.59664 0.0
O90 O 0.68418 0.35476 0.62568 0.0
C91 C 0.62753 0.29587 0.60162 0.0
C92 C 0.58523 0.33606 0.65981 0.0
C93 C 0.67952 0.35396 0.65069 0.0
O94 O 0.61848 0.30714 0.6229 0.0
O95 O 0.64187 0.31043 0.58748 0.0
O96 O 0.62401 0.38929 0.65018 0.0
O97 O 0.62707 0.36641 0.60852 0.0
Co98 Co 0.03652 0.29483 0.92506 0.0
O99 O 0.07248 0.30105 0.92917 0.0
O100 O 0.04735 0.28082 0.88998 0.0
C101 C 0.03697 0.33987 0.94575 0.0
O102 O 0.99894 0.28706 0.91028 0.0
Co103 Co 1.00648 0.29584 0.97221 0.0
O104 O 0.97714 0.29608 0.94569 0.0
C105 C 0.03045 0.2483 0.96134 0.0
C106 C 0.06995 0.29018 0.90264 0.0
C107 C 0.97847 0.29052 0.91953 0.0
O108 O 0.03522 0.25682 0.93816 0.0
O109 O 1.01972 0.26185 0.97924 0.0
O110 O 0.03888 0.33326 0.91928 0.0
O111 O 0.03549 0.31918 0.95992 0.0
Co112 Co 0.45682 0.06496 0.32315 0.0
O113 O 0.45042 0.09947 0.31421 0.0
O114 O 0.42339 0.05745 0.30576 0.0
C115 C 0.47577 0.08187 0.36641 0.0
O116 O 0.45638 1.02547 0.3294 0.0
Co117 Co 0.51033 0.05612 0.33606 0.0
O118 O 0.49422 1.0163 0.33771 0.0
C119 C 0.48594 0.04644 0.27739 0.0
C120 C 0.42842 0.08415 0.30379 0.0
C121 C 0.47063 1.00875 0.33395 0.0
O122 O 0.46715 0.05508 0.28551 0.0
O123 O 0.50517 0.04608 0.29399 0.0
O124 O 0.45165 0.07563 0.36179 0.0
O125 O 0.48757 0.08069 0.34468 0.0
Co126 Co 0.30123 0.20846 0.50508 0.0
O127 O 0.33712 0.21307 0.50864 0.0
O128 O 0.31024 0.17442 0.51334 0.0
C129 C 0.29857 0.22748 0.46501 0.0
O130 O 0.26328 0.19356 0.50233 0.0
Co131 Co 0.27428 0.25696 0.50759 0.0
O132 O 0.24287 0.22767 0.49681 0.0
C133 C 0.29885 0.24664 0.56046 0.0
C134 C 0.33322 0.18722 0.51347 0.0
C135 C 0.24286 0.20194 0.49828 0.0
O136 O 0.30382 0.22414 0.54679 0.0
O137 O 0.28817 0.26333 0.54849 0.0
O138 O 0.29955 0.20102 0.46387 0.0
O139 O 0.30008 0.24182 0.49013 0.0
Co140 Co 0.20464 0.03831 0.79983 0.0
O141 O 0.20251 0.99485 0.79676 0.0
O142 O 0.23522 1.02322 0.79078 0.0
C143 C 0.18581 0.04503 0.84444 0.0
O144 O 0.22147 0.08316 0.80225 0.0
Co145 Co 0.16737 0.07388 0.80108 0.0
O146 O 0.1935 0.10961 0.80803 0.0
C147 C 0.17235 0.04595 0.74399 0.0
C148 C 0.22556 0.99704 0.79205 0.0
C149 C 0.21585 0.10823 0.80561 0.0
O150 O 0.18963 0.03486 0.75609 0.0
O151 O 0.16102 0.06171 0.759 0.0
O152 O 0.20864 0.04259 0.84286 0.0
O153 O 0.17449 0.04278 0.81925 0.0
Co154 Co 0.33936 0.96706 1.00646 0.0
O155 O 0.30714 0.96705 1.01701 0.0
O156 O 0.33817 1.00533 0.02169 0.0
C157 C 0.32637 0.93861 0.96488 0.0
O158 O 0.37461 0.97474 0.9972 0.0
Co159 Co 0.35845 0.91109 0.99404 0.0
O160 O 0.38341 0.93454 0.97566 0.0
C161 C 0.36035 0.94126 0.05254 0.0
C162 C 0.31541 0.99424 0.02485 0.0
C163 C 0.38858 0.96138 0.98337 0.0
O164 O 0.35162 0.9614 0.04458 0.0
O165 O 0.36299 0.91926 0.03611 0.0
O166 O 0.32678 0.96554 0.96724 0.0
O167 O 0.33156 0.92974 0.98784 0.0
Co168 Co 0.35296 0.41786 0.05219 0.0
O169 O 0.31689 0.40936 0.04721 0.0
O170 O 0.34115 0.45017 0.06915 0.0
C171 C 0.35602 0.40027 1.00672 0.0
O172 O 0.39017 0.4369 0.05963 0.0
Co173 Co 0.38504 0.37455 0.04368 0.0
O174 O 0.41213 0.40709 0.04056 0.0
C175 C 0.36221 0.38169 0.09664 0.0
C176 C 0.31882 0.43529 0.05989 0.0
C177 C 0.41048 0.43199 0.05117 0.0
O178 O 0.35376 0.40256 0.08925 0.0
O179 O 0.37388 0.36721 0.08058 0.0
O180 O 0.3527 0.42576 1.01394 0.0
O181 O 0.3562 0.38549 0.02662 0.0
Co182 Co 0.82331 0.16295 0.043 0.0
O183 O 0.85856 0.16862 0.04563 0.0
O184 O 0.83291 0.12958 0.05251 0.0
C185 C 0.81847 0.17833 1.00232 0.0
O186 O 0.78574 0.15018 0.04104 0.0
Co187 Co 0.7985 0.21483 0.04056 0.0
O188 O 0.76882 0.18421 0.02587 0.0
C189 C 0.82465 0.20664 0.09368 0.0
C190 C 0.85543 0.14301 0.0507 0.0
C191 C 0.76714 0.15924 0.03107 0.0
O192 O 0.82612 0.18123 0.08357 0.0
O193 O 0.81658 0.22337 0.07921 0.0
O194 O 0.82024 0.15224 1.00197 0.0
O195 O 0.82203 0.1942 0.0267 0.0
Co196 Co 0.19817 0.56855 0.2633 0.0
O197 O 0.19827 0.52973 0.26456 0.0
O198 O 0.22724 0.56055 0.24927 0.0
C199 C 0.18729 0.57892 0.30626 0.0
O200 O 0.20563 0.60957 0.25975 0.0
Co201 Co 0.15327 0.5967 0.27007 0.0
O202 O 0.18026 0.63129 0.28349 0.0
C203 C 0.15678 0.55931 0.21692 0.0
C204 C 0.2195 0.53538 0.25487 0.0
C205 C 0.2009 0.63157 0.27402 0.0
O206 O 0.17921 0.55812 0.22482 0.0
O207 O 0.1434 0.57167 0.23252 0.0
O208 O 0.21043 0.57897 0.3036 0.0
O209 O 0.17188 0.57092 0.28348 0.0
Co210 Co 0.85306 0.92093 0.55205 0.0
O211 O 0.81716 0.91154 0.54661 0.0
O212 O 0.8404 0.95329 0.56756 0.0
C213 C 0.85626 0.90355 0.50638 0.0
O214 O 0.89041 0.93973 0.56006 0.0
Co215 Co 0.8832 0.87648 0.54603 0.0
O216 O 0.91134 0.90783 0.54297 0.0
C217 C 0.8587 0.88435 0.59705 0.0
C218 C 0.81834 0.93755 0.55823 0.0
C219 C 0.91055 0.93326 0.55266 0.0
O220 O 0.85306 0.90653 0.58931 0.0
O221 O 0.86942 0.86813 0.58161 0.0
O222 O 0.85326 0.92899 0.51436 0.0
O223 O 0.85602 0.88817 0.52598 0.0
Co224 Co 0.95538 0.0909 0.28005 0.0
O225 O 0.95834 0.13472 0.28596 0.0
O226 O 0.9245 0.10529 0.26918 0.0
C227 C 0.97634 0.0876 0.32557 0.0
O228 O 0.93691 0.04657 0.27403 0.0
Co229 Co 0.99059 0.05199 0.27816 0.0
O230 O 0.9635 1.01916 0.28153 0.0
C231 C 0.98589 0.07759 0.22698 0.0
C232 C 0.93474 0.13196 0.27752 0.0
C233 C 0.94118 1.02172 0.27727 0.0
O234 O 0.96828 0.08876 0.23839 0.0
O235 O 0.99747 0.0628 0.24065 0.0
O236 O 0.9542 0.09264 0.32193 0.0
O237 O 0.98603 0.08641 0.30223 0.0
Co238 Co 0.31954 0.66358 0.54327 0.0
O239 O 0.35363 0.66258 0.54297 0.0
O240 O 0.32349 0.62571 0.54571 0.0
C241 C 0.31745 0.6869 0.50741 0.0
O242 O 0.2821 0.65736 0.54307 0.0
Co243 Co 0.30396 0.72232 0.55196 0.0
O244 O 0.27088 0.69795 0.53677 0.0
C245 C 0.3281 0.70125 0.59913 0.0
C246 C 0.34683 0.63581 0.54389 0.0
C247 C 0.26562 0.67152 0.53764 0.0
O248 O 0.32512 0.67592 0.58526 0.0
O249 O 0.32323 0.72215 0.58848 0.0
O250 O 0.31485 0.65951 0.50216 0.0
O251 O 0.32325 0.6988 0.5333 0.0
Co252 Co 0.45498 0.59051 0.77913 0.0
O253 O 0.45709 0.63404 0.78455 0.0
O254 O 0.42337 0.60388 0.76866 0.0
C255 C 0.47689 0.58857 0.8245 0.0
O256 O 0.43902 0.54537 0.7735 0.0
Co257 Co 0.49501 0.55685 0.77826 0.0
O258 O 0.4693 0.52246 0.78088 0.0
C259 C 0.4873 0.58099 0.72698 0.0
C260 C 0.43338 0.63076 0.7765 0.0
C261 C 0.44616 0.5219 0.77665 0.0
O262 O 0.46744 0.58824 0.73714 0.0
O263 O 0.50174 0.57023 0.742 0.0
O264 O 0.45417 0.59193 0.82134 0.0
O265 O 0.48633 0.58894 0.80118 0.0
Co266 Co 0.696 0.06509 0.7635 0.0
O267 O 0.69492 0.02663 0.76803 0.0
O268 O 0.72727 0.05728 0.75801 0.0
C269 C 0.67843 0.07806 0.80108 0.0
O270 O 0.70538 0.10567 0.75889 0.0
Co271 Co 0.64975 0.09097 0.75511 0.0
O272 O 0.674 0.12804 0.75911 0.0
C273 C 0.66118 0.04873 0.71083 0.0
C274 C 0.71813 0.03253 0.76382 0.0
C275 C 0.69695 0.12807 0.75899 0.0
O276 O 0.68358 0.05268 0.72259 0.0
O277 O 0.64438 0.059 0.72234 0.0
O278 O 0.70187 0.07755 0.80407 0.0
O279 O 0.66624 0.06823 0.77641 0.0
Co280 Co 0.80326 0.71244 1.00605 0.0
O281 O 0.83887 0.72244 1.00669 0.0
O282 O 0.8179 0.68304 1.018 0.0
C283 C 0.79594 0.72439 0.96272 0.0
O284 O 0.76685 0.69294 1.0075 0.0
Co285 Co 0.76988 0.75285 1.00505 0.0
O286 O 0.74084 0.72013 0.99701 0.0
C287 C 0.79902 0.75301 0.05898 0.0
C288 C 0.83919 0.69854 1.01497 0.0
C289 C 0.74466 0.69668 1.00235 0.0
O290 O 0.80714 0.73227 0.04655 0.0
O291 O 0.78427 0.76517 0.04607 0.0
O292 O 0.79926 0.69943 0.96556 0.0
O293 O 0.79704 0.74185 0.98618 0.0
Co294 Co 0.95588 0.56428 0.82565 0.0
O295 O 0.95328 0.5984 0.81228 0.0
O296 O 0.92324 0.55909 0.80709 0.0
C297 C 0.97529 0.58424 0.86838 0.0
O298 O 0.95076 0.52574 0.836 0.0
Co299 Co 1.00569 0.54871 0.8435 0.0
O300 O 0.98545 0.51169 0.84868 0.0
C301 C 0.98725 0.5441 0.78342 0.0
C302 C 0.93073 0.58454 0.80206 0.0
C303 C 0.9619 0.5072 0.84356 0.0
O304 O 0.9665 0.54915 0.78948 0.0
O305 O 1.00575 0.5456 0.80191 0.0
O306 O 0.95126 0.58038 0.86339 0.0
O307 O 0.98678 0.57812 0.84719 0.0
Co308 Co 0.83795 0.46741 0.50861 0.0
O309 O 0.80561 0.47098 0.51565 0.0
O310 O 0.83879 0.50686 0.52244 0.0
C311 C 0.8273 0.43926 0.4666 0.0
O312 O 0.87407 0.47016 0.50325 0.0
Co313 Co 0.84758 0.40582 0.5036 0.0
O314 O 0.88123 0.42588 0.49815 0.0
C315 C 0.84702 0.4398 0.55884 0.0
C316 C 0.81522 0.49782 0.52398 0.0
C317 C 0.88842 0.45268 0.49981 0.0
O318 O 0.8462 0.46183 0.54798 0.0
O319 O 0.84467 0.4149 0.54459 0.0
O320 O 0.82962 0.46649 0.46852 0.0
O321 O 0.82784 0.43009 0.49004 0.0
Co322 Co 0.70266 0.53679 0.29883 0.0
O323 O 0.69754 0.49333 0.29504 0.0
O324 O 0.73221 0.51866 0.28995 0.0
C325 C 0.68411 0.54356 0.34364 0.0
O326 O 0.72068 0.5815 0.30199 0.0
Co327 Co 0.66594 0.57378 0.30156 0.0
O328 O 0.69301 0.60849 0.30781 0.0
C329 C 0.67004 0.54599 0.24382 0.0
C330 C 0.7204 0.49308 0.29101 0.0
C331 C 0.71528 0.60673 0.30535 0.0
O332 O 0.68785 0.53502 0.25512 0.0
O333 O 0.65851 0.5607 0.25974 0.0
O334 O 0.70649 0.53974 0.34179 0.0
O335 O 0.67302 0.54232 0.31861 0.0
Ho336 Ho 0.06253 0.04754 1.01538 0.0
Ho337 Ho 0.09795 0.08055 0.04881 0.0
C338 C 0.06444 0.11337 1.01987 0.0
C339 C 1.0191 1.02585 0.98728 0.0
C340 C 0.99597 0.03338 0.99435 0.0
C341 C 0.99539 0.04758 0.02164 0.0
C342 C 0.97471 0.05784 0.02827 0.0
C343 C 0.9542 0.05412 1.00771 0.0
C344 C 0.95459 0.03948 0.98046 0.0
C345 C 0.97547 0.02927 0.97377 0.0
C346 C 0.10418 0.05123 0.98463 0.0
C347 C 0.09214 1.01291 0.04722 0.0
C348 C 0.14246 0.10351 0.07392 0.0
C349 C 0.16419 0.09299 0.0662 0.0
C350 C 0.16037 0.07022 0.04373 0.0
C351 C 0.17967 0.05781 0.03658 0.0
C352 C 0.20389 0.06908 0.05048 0.0
C353 C 0.20794 0.09253 0.07273 0.0
C354 C 0.18806 0.10419 0.08081 0.0
C355 C 0.05706 0.07619 0.07995 0.0
O356 O 0.04938 0.08873 1.0191 0.0
O357 O 0.08788 0.11577 0.02865 0.0
O358 O 0.03494 0.04636 0.98026 0.0
O359 O 0.02959 1.01335 1.00531 0.0
O360 O 0.0876 0.02878 0.98612 0.0
O361 O 0.09777 0.07129 1.0009 0.0
O362 O 0.10774 0.03787 0.0524 0.0
O363 O 0.07022 1.01067 0.03357 0.0
O364 O 0.12653 0.08569 0.08417 0.0
O365 O 0.13156 0.11383 0.05439 0.0
O366 O 0.07293 0.09933 0.07843 0.0
O367 O 0.06328 0.0563 0.06329 0.0
H368 H 1.01119 0.05126 0.03774 0.0
H369 H 0.97483 0.06881 0.04949 0.0
H370 H 0.93907 0.03666 0.96417 0.0
H371 H 0.97586 1.01881 0.9525 0.0
H372 H 0.1423 0.0618 0.03158 0.0
H373 H 0.17535 0.03924 0.0201 0.0
H374 H 0.22638 0.10206 0.08373 0.0
H375 H 0.19132 0.1219 0.09816 0.0
Ho376 Ho 0.34709 0.81758 0.26734 0.0
Ho377 Ho 0.31631 0.83076 0.31132 0.0
C378 C 0.35718 0.88069 0.29963 0.0
C379 C 0.36829 0.80532 0.22355 0.0
C380 C 0.38098 0.82458 0.20684 0.0
C381 C 0.3901 0.85327 0.21921 0.0
C382 C 0.39115 0.87418 0.20266 0.0
C383 C 0.38335 0.86617 0.17378 0.0
C384 C 0.37814 0.83745 0.16102 0.0
C385 C 0.37688 0.8166 0.1776 0.0
C386 C 0.37048 0.82012 0.31934 0.0
C387 C 0.30795 0.76604 0.28132 0.0
C388 C 0.29538 0.83276 0.35621 0.0
C389 C 0.28717 0.80903 0.37035 0.0
C390 C 0.29861 0.78598 0.36666 0.0
C391 C 0.28907 0.76148 0.37669 0.0
C392 C 0.26818 0.75983 0.39098 0.0
C393 C 0.25624 0.78256 0.394 0.0
C394 C 0.26556 0.807 0.38338 0.0
C395 C 0.2925 0.84146 0.26375 0.0
O396 O 0.35624 0.86521 0.27449 0.0
O397 O 0.34489 0.87057 0.31897 0.0
O398 O 0.37899 0.80749 0.24911 0.0
O399 O 0.34454 0.80462 0.22247 0.0
O400 O 0.38019 0.83181 0.29969 0.0
O401 O 0.34765 0.80829 0.31089 0.0
O402 O 0.3029 0.78429 0.30142 0.0
O403 O 0.32411 0.77371 0.26437 0.0
O404 O 0.28316 0.82929 0.3312 0.0
O405 O 0.31947 0.84149 0.35672 0.0
O406 O 0.28661 0.84658 0.28867 0.0
O407 O 0.31252 0.83269 0.26501 0.0
H408 H 0.3935 0.85959 0.24183 0.0
H409 H 0.39524 0.89631 0.2127 0.0
H410 H 0.37226 0.83114 0.13858 0.0
H411 H 0.36976 0.79455 0.16783 0.0
H412 H 0.31498 0.78688 0.356 0.0
H413 H 0.29907 0.74458 0.37501 0.0
H414 H 0.24059 0.78194 0.40585 0.0
H415 H 0.25612 0.82436 0.38559 0.0
Ho416 Ho 0.60781 0.07212 0.53016 0.0
Ho417 Ho 0.55056 0.06448 0.53651 0.0
C418 C 0.5695 1.00848 0.5163 0.0
C419 C 0.65396 0.06936 0.53775 0.0
C420 C 0.6708 0.04946 0.53534 0.0
C421 C 0.6723 0.03093 0.55461 0.0
C422 C 0.69147 1.01628 0.55541 0.0
C423 C 0.70961 1.02003 0.53712 0.0
C424 C 0.70717 0.0372 0.51678 0.0
C425 C 0.68803 0.05179 0.51596 0.0
C426 C 0.57892 0.0782 0.48594 0.0
C427 C 0.58732 0.12808 0.54663 0.0
C428 C 0.50447 0.06756 0.5351 0.0
C429 C 0.48889 0.08869 0.53551 0.0
C430 C 0.49124 0.10883 0.51761 0.0
C431 C 0.47442 0.12656 0.51653 0.0
C432 C 0.45497 0.12446 0.53332 0.0
C433 C 0.45346 0.1051 0.55204 0.0
C434 C 0.47016 0.08737 0.55302 0.0
C435 C 0.58201 0.06192 0.58086 0.0
O436 O 0.59262 1.02428 0.52094 0.0
O437 O 0.54965 1.01921 0.51906 0.0
O438 O 0.64346 0.07488 0.51452 0.0
O439 O 0.63924 0.06766 0.55725 0.0
O440 O 0.60216 0.09152 0.49202 0.0
O441 O 0.57305 0.06061 0.5019 0.0
O442 O 0.56443 0.11203 0.53921 0.0
O443 O 0.60724 0.11704 0.54805 0.0
O444 O 0.51878 0.06837 0.55839 0.0
O445 O 0.51518 0.06232 0.51259 0.0
O446 O 0.55982 0.0456 0.57505 0.0
O447 O 0.58545 0.07834 0.56376 0.0
H448 H 0.65939 0.02871 0.56997 0.0
H449 H 0.69287 1.0033 0.57138 0.0
H450 H 0.7206 0.04012 0.50208 0.0
H451 H 0.68741 0.06594 0.50096 0.0
H452 H 0.50562 0.11038 0.50392 0.0
H453 H 0.47608 0.1411 0.50177 0.0
H454 H 0.43908 0.1033 0.5657 0.0
H455 H 0.46806 0.07209 0.56706 0.0
Ho456 Ho 0.30594 0.32498 0.78851 0.0
Ho457 Ho 0.35347 0.30422 0.7851 0.0
C458 C 0.33964 0.32544 0.84597 0.0
C459 C 0.26138 0.33137 0.79439 0.0
C460 C 0.24008 0.32318 0.80958 0.0
C461 C 0.23765 0.30038 0.82425 0.0
C462 C 0.21737 0.29416 0.83928 0.0
C463 C 0.19929 0.31059 0.83971 0.0
C464 C 0.20207 0.33347 0.82511 0.0
C465 C 0.22225 0.33968 0.81027 0.0
C466 C 0.34232 0.37206 0.78174 0.0
C467 C 0.31775 0.30059 0.72752 0.0
C468 C 0.39849 0.29938 0.77867 0.0
C469 C 0.4182 0.30527 0.7605 0.0
C470 C 0.42195 0.32908 0.74721 0.0
C471 C 0.44116 0.33364 0.73033 0.0
C472 C 0.45688 0.31446 0.72645 0.0
C473 C 0.45251 0.29039 0.73938 0.0
C474 C 0.43349 0.28594 0.7562 0.0
C475 C 0.31706 0.25739 0.79254 0.0
O476 O 0.31688 0.32248 0.83353 0.0
O477 O 0.3582 0.3224 0.83149 0.0
O478 O 0.28141 0.3475 0.80963 0.0
O479 O 0.26618 0.3121 0.7751 0.0
O480 O 0.31903 0.37065 0.7832 0.0
O481 O 0.34529 0.34684 0.78299 0.0
O482 O 0.34061 0.30217 0.73917 0.0
O483 O 0.30035 0.30624 0.74275 0.0
O484 O 0.37861 0.28023 0.76719 0.0
O485 O 0.39341 0.32069 0.79516 0.0
O486 O 0.34038 0.25853 0.79112 0.0
O487 O 0.31426 0.28262 0.79106 0.0
H488 H 0.2514 0.28756 0.82414 0.0
H489 H 0.21565 0.27634 0.85026 0.0
H490 H 0.18874 0.34682 0.82544 0.0
H491 H 0.22405 0.35762 0.79942 0.0
H492 H 0.4102 0.34416 0.75 0.0
H493 H 0.44401 0.35247 0.72083 0.0
H494 H 0.46379 0.27482 0.73644 0.0
H495 H 0.43073 0.26725 0.76596 0.0
Ho496 Ho 0.07404 0.08582 0.54229 0.0
Ho497 Ho 0.08867 0.0368 0.51641 0.0
C498 C 0.05786 0.06585 0.47281 0.0
C499 C 0.06731 0.13625 0.5556 0.0
C500 C 0.07146 0.15972 0.5401 0.0
C501 C 0.09336 0.16627 0.52775 0.0
C502 C 0.09737 0.18889 0.51337 0.0
C503 C 0.07935 0.20499 0.51074 0.0
C504 C 0.0568 0.19722 0.52162 0.0
C505 C 0.05297 0.17484 0.5364 0.0
C506 C 0.04204 0.03752 0.54791 0.0
C507 C 0.10553 0.0581 0.58586 0.0
C508 C 0.09449 0.98571 0.50493 0.0
C509 C 0.08916 0.96415 0.52254 0.0
C510 C 0.07434 0.96832 0.54402 0.0
C511 C 0.06794 0.94761 0.56029 0.0
C512 C 0.07649 0.92246 0.55555 0.0
C513 C 0.09224 0.91889 0.53478 0.0
C514 C 0.09847 0.93963 0.51827 0.0
C515 C 0.1204 0.08511 0.50982 0.0
O516 O 0.06121 0.08665 0.49512 0.0
O517 O 0.06634 0.04283 0.47609 0.0
O518 O 0.04928 0.1147 0.54402 0.0
O519 O 0.08726 0.12861 0.56502 0.0
O520 O 0.04857 0.06008 0.5672 0.0
O521 O 0.05208 0.04225 0.52638 0.0
O522 O 0.10128 0.03654 0.56412 0.0
O523 O 0.0978 0.08124 0.58176 0.0
O524 O 0.11287 1.00724 0.5156 0.0
O525 O 0.0749 0.99357 0.49476 0.0
O526 O 0.11371 0.0621 0.49109 0.0
O527 O 0.1109 0.08054 0.53182 0.0
H528 H 0.10766 0.15433 0.52968 0.0
H529 H 0.115 0.19444 0.5054 0.0
H530 H 0.04237 0.2089 0.51931 0.0
H531 H 0.0357 0.16949 0.54515 0.0
H532 H 0.06717 0.98734 0.54776 0.0
H533 H 0.05549 0.95087 0.57578 0.0
H534 H 0.0994 0.89986 0.53098 0.0
H535 H 0.1102 0.93636 0.502 0.0
Ho536 Ho 0.35121 0.8365 0.78285 0.0
Ho537 Ho 0.30717 0.79079 0.78527 0.0
C538 C 0.3598 0.76913 0.78635 0.0
C539 C 0.39342 0.87223 0.79485 0.0
C540 C 0.4196 0.87096 0.79803 0.0
C541 C 0.43464 0.88654 0.82246 0.0
C542 C 0.45874 0.88331 0.82832 0.0
C543 C 0.46824 0.86457 0.80973 0.0
C544 C 0.45372 0.8499 0.78451 0.0
C545 C 0.4293 0.85291 0.77873 0.0
C546 C 0.33039 0.80582 0.7325 0.0
C547 C 0.29866 0.85825 0.78197 0.0
C548 C 0.26396 0.75709 0.77284 0.0
C549 C 0.23875 0.76214 0.76758 0.0
C550 C 0.23025 0.7673 0.74112 0.0
C551 C 0.20707 0.77345 0.7362 0.0
C552 C 0.19171 0.77455 0.75754 0.0
C553 C 0.19986 0.76884 0.78389 0.0
C554 C 0.22326 0.76271 0.7889 0.0
C555 C 0.32941 0.82114 0.83506 0.0
O556 O 0.36969 0.79728 0.78836 0.0
O557 O 0.33498 0.76089 0.78387 0.0
O558 O 0.38119 0.86504 0.76944 0.0
O559 O 0.38081 0.86199 0.81389 0.0
O560 O 0.33899 0.83316 0.73696 0.0
O561 O 0.33341 0.79682 0.7551 0.0
O562 O 0.28881 0.83012 0.77997 0.0
O563 O 0.32343 0.8664 0.78432 0.0
O564 O 0.27528 0.76493 0.79868 0.0
O565 O 0.27866 0.76367 0.75414 0.0
O566 O 0.32042 0.79386 0.83125 0.0
O567 O 0.32515 0.83013 0.81274 0.0
H568 H 0.42741 0.90043 0.83758 0.0
H569 H 0.46981 0.89489 0.84785 0.0
H570 H 0.46085 0.83533 0.77002 0.0
H571 H 0.41785 0.84052 0.75979 0.0
H572 H 0.2415 0.76672 0.72407 0.0
H573 H 0.20101 0.77692 0.7154 0.0
H574 H 0.18828 0.76939 0.80064 0.0
H575 H 0.2293 0.75865 0.80946 0.0
Ho576 Ho 0.58437 0.05657 0.05789 0.0
Ho577 Ho 0.57199 0.08503 1.0117 0.0
C578 C 0.53106 0.03482 1.0196 0.0
C579 C 0.58248 0.02863 0.09824 0.0
C580 C 0.56074 1.01649 0.11072 0.0
C581 C 0.54368 0.03288 0.11822 0.0
C582 C 0.52343 1.02161 0.13081 0.0
C583 C 0.51955 0.99349 0.13581 0.0
C584 C 0.53518 0.97622 0.12529 0.0
C585 C 0.55586 0.98779 0.11317 0.0
C586 C 0.60434 0.04051 1.01138 0.0
C587 C 0.62687 0.10392 0.04859 0.0
C588 C 0.57215 0.11389 0.97176 0.0
C589 C 0.59284 0.12791 0.95895 0.0
C590 C 0.61533 0.11924 0.96146 0.0
C591 C 0.63477 0.1311 0.94795 0.0
C592 C 0.63162 0.15109 0.93091 0.0
C593 C 0.60978 0.16144 0.93026 0.0
C594 C 0.59042 0.14989 0.94436 0.0
C595 C 0.54897 0.09792 0.05641 0.0
O596 O 0.54351 0.03896 0.04496 0.0
O597 O 0.54057 0.0472 0.99964 0.0
O598 O 0.58258 1.01679 0.07226 0.0
O599 O 0.58901 0.05642 0.10245 0.0
O600 O 0.61541 0.04421 0.03676 0.0
O601 O 0.58264 0.04443 1.01172 0.0
O602 O 0.61336 0.10108 0.024 0.0
O603 O 0.61755 0.09211 0.06888 0.0
O604 O 0.57216 0.1249 0.99802 0.0
O605 O 0.5678 0.0861 0.96727 0.0
O606 O 0.53909 0.09402 0.03057 0.0
O607 O 0.57155 0.09628 0.05777 0.0
H608 H 0.54642 0.05479 0.11534 0.0
H609 H 0.51214 0.03595 0.13857 0.0
H610 H 0.53235 0.95429 0.12798 0.0
H611 H 0.56833 0.97454 0.10627 0.0
H612 H 0.6173 0.102 0.97234 0.0
H613 H 0.65105 0.12211 0.94816 0.0
H614 H 0.60685 0.17647 0.91679 0.0
H615 H 0.57318 0.15699 0.94263 0.0
Ho616 Ho 0.34201 0.34056 0.30067 0.0
Ho617 Ho 0.30908 0.28038 0.26294 0.0
C618 C 0.28182 0.32627 0.29121 0.0
C619 C 0.3627 0.39321 0.31449 0.0
C620 C 0.35142 0.41606 0.30725 0.0
C621 C 0.33907 0.41308 0.27993 0.0
C622 C 0.32151 0.42875 0.27478 0.0
C623 C 0.31594 0.44745 0.29687 0.0
C624 C 0.32923 0.45182 0.3238 0.0
C625 C 0.34708 0.43629 0.32894 0.0
C626 C 0.33203 0.29902 0.33237 0.0
C627 C 0.36911 0.29321 0.27429 0.0
C628 C 0.28761 0.22816 0.24614 0.0
C629 C 0.29796 0.20396 0.25124 0.0
C630 C 0.30788 0.20322 0.27874 0.0
C631 C 0.32649 0.18874 0.28315 0.0
C632 C 0.33483 0.1742 0.26015 0.0
C633 C 0.32302 0.17204 0.23287 0.0
C634 C 0.30461 0.18697 0.2284 0.0
C635 C 0.31805 0.32316 0.23204 0.0
O636 O 0.30279 0.34606 0.29643 0.0
O637 O 0.27992 0.29925 0.28092 0.0
O638 O 0.35067 0.37895 0.33164 0.0
O639 O 0.36879 0.37678 0.29344 0.0
O640 O 0.34411 0.32488 0.34231 0.0
O641 O 0.32723 0.29724 0.30611 0.0
O642 O 0.34797 0.27369 0.2691 0.0
O643 O 0.37101 0.32053 0.28352 0.0
O644 O 0.30022 0.24351 0.23021 0.0
O645 O 0.2819 0.24358 0.26822 0.0
O646 O 0.30626 0.29733 0.22177 0.0
O647 O 0.32368 0.3239 0.25791 0.0
H648 H 0.34153 0.39713 0.26295 0.0
H649 H 0.31123 0.42502 0.25391 0.0
H650 H 0.32515 0.46641 0.34098 0.0
H651 H 0.35603 0.43844 0.35023 0.0
H652 H 0.30281 0.21575 0.29673 0.0
H653 H 0.33511 0.18988 0.30442 0.0
H654 H 0.32917 0.16044 0.215 0.0
H655 H 0.29729 0.18742 0.20701 0.0
Ho656 Ho 0.57329 0.59095 0.04169 0.0
Ho657 Ho 0.58744 0.53762 1.01503 0.0
C658 C 0.55277 0.56551 0.97405 0.0
C659 C 0.57565 0.64436 0.05455 0.0
C660 C 0.58552 0.66563 0.03816 0.0
C661 C 0.59383 0.6567 1.01254 0.0
C662 C 0.60429 0.67643 0.99687 0.0
C663 C 0.60698 0.70533 1.00698 0.0
C664 C 0.59828 0.71438 0.03233 0.0
C665 C 0.58742 0.6945 0.04786 0.0
C666 C 0.53654 0.54602 0.04645 0.0
C667 C 0.60296 0.5599 0.08526 0.0
C668 C 0.59482 0.48737 1.00327 0.0
C669 C 0.59208 0.46615 0.02136 0.0
C670 C 0.57929 0.47026 0.04466 0.0
C671 C 0.57479 0.4496 0.06123 0.0
C672 C 0.58351 0.42465 0.05517 0.0
C673 C 0.59761 0.42135 0.0327 0.0
C674 C 0.60173 0.44198 1.01572 0.0
C675 C 0.61609 0.58609 1.00482 0.0
O676 O 0.56006 0.58859 0.99411 0.0
O677 O 0.55863 0.54142 0.97898 0.0
O678 O 0.55543 0.62618 0.04207 0.0
O679 O 0.59221 0.63215 0.06538 0.0
O680 O 0.5368 0.57218 0.05668 0.0
O681 O 0.55618 0.54571 0.03555 0.0
O682 O 0.6025 0.54007 0.06262 0.0
O683 O 0.59262 0.58178 0.08211 0.0
O684 O 0.61292 0.50965 1.01255 0.0
O685 O 0.57396 0.49392 0.99487 0.0
O686 O 0.60914 0.56271 0.98666 0.0
O687 O 0.60824 0.58205 0.02777 0.0
H688 H 0.59262 0.63447 1.00492 0.0
H689 H 0.61096 0.66928 0.97735 0.0
H690 H 0.60017 0.73678 0.04018 0.0
H691 H 0.58096 0.70161 0.06752 0.0
H692 H 0.57203 0.4891 0.04951 0.0
H693 H 0.56349 0.45271 0.07795 0.0
H694 H 0.60495 0.40257 0.02784 0.0
H695 H 0.612 0.43886 0.99803 0.0
Ho696 Ho 0.85379 0.33762 0.28589 0.0
Ho697 Ho 0.80915 0.29381 0.28638 0.0
C698 C 0.86124 0.27036 0.28792 0.0
C699 C 0.89626 0.37254 0.29597 0.0
C700 C 0.92202 0.37036 0.29534 0.0
C701 C 0.93126 0.35021 0.30818 0.0
C702 C 0.95665 0.35162 0.31163 0.0
C703 C 0.97304 0.37304 0.30204 0.0
C704 C 0.96335 0.39103 0.28635 0.0
C705 C 0.93794 0.38983 0.28322 0.0
C706 C 0.83243 0.31001 0.23466 0.0
C707 C 0.80271 0.36219 0.28509 0.0
C708 C 0.76601 0.26038 0.27251 0.0
C709 C 0.74137 0.2664 0.26742 0.0
C710 C 0.72843 0.2577 0.2402 0.0
C711 C 0.70806 0.26854 0.23254 0.0
C712 C 0.70013 0.2878 0.25215 0.0
C713 C 0.71184 0.29506 0.27994 0.0
C714 C 0.73261 0.28461 0.28753 0.0
C715 C 0.83093 0.32162 0.33747 0.0
O716 O 0.87169 0.29834 0.29094 0.0
O717 O 0.83633 0.26283 0.28457 0.0
O718 O 0.88254 0.36684 0.27151 0.0
O719 O 0.8849 0.36176 0.31565 0.0
O720 O 0.84117 0.33722 0.24073 0.0
O721 O 0.83547 0.29924 0.25618 0.0
O722 O 0.79144 0.33425 0.28161 0.0
O723 O 0.82751 0.36858 0.289 0.0
O724 O 0.77719 0.26695 0.29843 0.0
O725 O 0.78071 0.26817 0.25421 0.0
O726 O 0.82122 0.29448 0.33221 0.0
O727 O 0.82755 0.33199 0.31578 0.0
H728 H 0.91914 0.33453 0.31711 0.0
H729 H 0.96347 0.33747 0.32393 0.0
H730 H 0.97557 0.4073 0.27822 0.0
H731 H 0.93089 0.40507 0.27264 0.0
H732 H 0.73498 0.24383 0.22438 0.0
H733 H 0.69886 0.26247 0.21108 0.0
H734 H 0.70563 0.30972 0.2953 0.0
H735 H 0.74242 0.29183 0.30864 0.0
Ho736 Ho 0.08072 0.54652 0.54295 0.0
Ho737 Ho 0.07309 0.58403 0.50377 0.0
C738 C 0.02762 0.53612 0.50413 0.0
C739 C 0.07586 0.51136 0.57725 0.0
C740 C 0.05564 0.50089 0.5925 0.0
C741 C 0.03632 0.51523 0.59529 0.0
C742 C 1.02156 0.51126 0.61661 0.0
C743 C 0.02635 0.49313 0.63512 0.0
C744 C 0.04285 0.47544 0.62917 0.0
C745 C 0.05774 0.47959 0.60804 0.0
C746 C 0.10219 0.53628 0.49622 0.0
C747 C 0.12618 0.59478 0.54319 0.0
C748 C 0.08159 0.61885 0.46964 0.0
C749 C 0.10595 0.6307 0.4619 0.0
C750 C 0.12449 0.61508 0.4626 0.0
C751 C 0.14744 0.62545 0.4544 0.0
C752 C 0.15184 0.65102 0.4441 0.0
C753 C 0.13418 0.66794 0.44596 0.0
C754 C 0.1113 0.65779 0.45488 0.0
C755 C 0.05238 0.59499 0.55107 0.0
O756 O 0.0395 0.53478 0.5286 0.0
O757 O 0.0382 0.5521 0.48728 0.0
O758 O 0.07166 0.5033 0.55001 0.0
O759 O 0.08608 0.53842 0.5851 0.0
O760 O 0.11181 0.53548 0.52125 0.0
O761 O 0.08085 0.54136 0.49676 0.0
O762 O 0.11393 0.5965 0.51919 0.0
O763 O 0.11577 0.57846 0.55984 0.0
O764 O 0.07916 0.62705 0.49591 0.0
O765 O 0.0732 0.59147 0.46108 0.0
O766 O 0.04237 0.59574 0.52608 0.0
O767 O 0.07352 0.58934 0.55001 0.0
H768 H 0.0344 0.53161 0.58311 0.0
H769 H 1.00892 0.52511 0.62089 0.0
H770 H 0.04657 0.46121 0.64324 0.0
H771 H 0.07243 0.46819 0.60574 0.0
H772 H 0.12088 0.59415 0.46814 0.0
H773 H 0.16047 0.61172 0.45271 0.0
H774 H 0.137 0.68744 0.43754 0.0
H775 H 0.09734 0.67034 0.45482 0.0
Ho776 Ho 0.80747 0.82203 0.28823 0.0
Ho777 Ho 0.85624 0.79979 0.28463 0.0
C778 C 0.84309 0.825 0.34582 0.0
C779 C 0.76219 0.82703 0.29209 0.0
C780 C 0.74157 0.82474 0.30931 0.0
C781 C 0.73607 0.80346 0.32566 0.0
C782 C 0.7148 0.80098 0.33956 0.0
C783 C 0.69871 0.81954 0.337 0.0
C784 C 0.70502 0.84145 0.32162 0.0
C785 C 0.72619 0.844 0.30798 0.0
C786 C 0.84594 0.86655 0.28012 0.0
C787 C 0.81992 0.79704 0.22727 0.0
C788 C 0.90136 0.79571 0.27817 0.0
C789 C 0.92059 0.80104 0.25933 0.0
C790 C 0.92322 0.82363 0.24435 0.0
C791 C 0.9421 0.82781 0.227 0.0
C792 C 0.95855 0.80938 0.22421 0.0
C793 C 0.95522 0.78639 0.23874 0.0
C794 C 0.93659 0.78239 0.25611 0.0
C795 C 0.81896 0.75422 0.29229 0.0
O796 O 0.82082 0.82562 0.3339 0.0
O797 O 0.86031 0.81693 0.33132 0.0
O798 O 0.7817 0.8476 0.30132 0.0
O799 O 0.7678 0.80375 0.28004 0.0
O800 O 0.82297 0.86771 0.28151 0.0
O801 O 0.84633 0.84081 0.28191 0.0
O802 O 0.84279 0.79799 0.2387 0.0
O803 O 0.80265 0.80338 0.24244 0.0
O804 O 0.8817 0.77566 0.26782 0.0
O805 O 0.89602 0.8175 0.29372 0.0
O806 O 0.84215 0.75453 0.29063 0.0
O807 O 0.81685 0.77978 0.29079 0.0
H808 H 0.74778 0.78844 0.3271 0.0
H809 H 0.71037 0.78389 0.35128 0.0
H810 H 0.69324 0.85633 0.31962 0.0
H811 H 0.7302 0.86067 0.29566 0.0
H812 H 0.91085 0.83806 0.24614 0.0
H813 H 0.94411 0.84581 0.21627 0.0
H814 H 0.96701 0.7713 0.23666 0.0
H815 H 0.93468 0.76459 0.26715 0.0
Ho816 Ho 0.84363 0.31185 0.75702 0.0
Ho817 Ho 0.81607 0.32125 0.80149 0.0
C818 C 0.85278 0.374 0.79186 0.0
C819 C 0.86346 0.30483 0.71144 0.0
C820 C 0.88098 0.32651 0.70149 0.0
C821 C 0.88994 0.35277 0.7197 0.0
C822 C 0.89321 0.37784 0.7089 0.0
C823 C 0.88867 0.37644 0.67986 0.0
C824 C 0.88471 0.35018 0.66165 0.0
C825 C 0.88056 0.32512 0.67249 0.0
C826 C 0.87327 0.31839 0.80667 0.0
C827 C 0.81058 0.25725 0.77249 0.0
C828 C 0.78944 0.32173 0.84216 0.0
C829 C 0.78156 0.30077 0.85947 0.0
C830 C 0.7926 0.27748 0.85866 0.0
C831 C 0.78602 0.25785 0.87584 0.0
C832 C 0.76862 0.26155 0.89449 0.0
C833 C 0.75655 0.28409 0.89415 0.0
C834 C 0.76297 0.30364 0.87653 0.0
C835 C 0.79551 0.33443 0.75324 0.0
O836 O 0.85048 0.35971 0.76598 0.0
O837 O 0.84401 0.36158 0.81191 0.0
O838 O 0.87136 0.29642 0.73418 0.0
O839 O 0.84169 0.31097 0.71243 0.0
O840 O 0.87861 0.33046 0.78558 0.0
O841 O 0.85081 0.3039 0.80143 0.0
O842 O 0.80685 0.27424 0.79441 0.0
O843 O 0.8236 0.26667 0.75341 0.0
O844 O 0.78011 0.3138 0.81578 0.0
O845 O 0.81333 0.33296 0.84563 0.0
O846 O 0.79913 0.35031 0.77772 0.0
O847 O 0.80404 0.31272 0.75526 0.0
H848 H 0.89062 0.35416 0.74221 0.0
H849 H 0.89613 0.39793 0.72317 0.0
H850 H 0.88104 0.3489 0.6391 0.0
H851 H 0.87357 0.30508 0.65818 0.0
H852 H 0.80718 0.27517 0.8458 0.0
H853 H 0.79615 0.24118 0.87616 0.0
H854 H 0.74325 0.28742 0.90858 0.0
H855 H 0.75414 0.32145 0.87697 0.0
Ho856 Ho 0.8442 0.84027 0.79705 0.0
Ho857 Ho 0.80961 0.7783 0.76869 0.0
C858 C 0.78335 0.82835 0.78794 0.0
C859 C 0.86682 0.89256 0.8048 0.0
C860 C 0.85613 0.91576 0.79791 0.0
C861 C 0.83614 0.90947 0.77634 0.0
C862 C 0.82166 0.92889 0.7732 0.0
C863 C 0.82647 0.95466 0.79216 0.0
C864 C 0.84698 0.96148 0.8133 0.0
C865 C 0.86179 0.94199 0.81619 0.0
C866 C 0.8331 0.8072 0.83682 0.0
C867 C 0.87047 0.79014 0.77541 0.0
C868 C 0.79052 0.72545 0.76163 0.0
C869 C 0.80646 0.70518 0.76219 0.0
C870 C 0.82735 0.71197 0.7828 0.0
C871 C 0.84722 0.69939 0.7791 0.0
C872 C 0.84662 0.67962 0.75477 0.0
C873 C 0.82533 0.6716 0.73469 0.0
C874 C 0.80534 0.68447 0.73832 0.0
C875 C 0.81966 0.81161 0.7289 0.0
O876 O 0.80507 0.84712 0.79218 0.0
O877 O 0.78065 0.80067 0.78078 0.0
O878 O 0.85648 0.88084 0.82449 0.0
O879 O 0.86932 0.87394 0.78328 0.0
O880 O 0.84678 0.83276 0.84194 0.0
O881 O 0.8278 0.8007 0.81034 0.0
O882 O 0.84867 0.77173 0.76883 0.0
O883 O 0.87335 0.81731 0.78599 0.0
O884 O 0.79284 0.73894 0.74046 0.0
O885 O 0.79092 0.74239 0.78555 0.0
O886 O 0.80577 0.78612 0.72403 0.0
O887 O 0.82596 0.81808 0.75529 0.0
H888 H 0.83075 0.88879 0.76302 0.0
H889 H 0.80613 0.92329 0.75652 0.0
H890 H 0.85082 0.98119 0.8283 0.0
H891 H 0.87665 0.94667 0.83356 0.0
H892 H 0.82928 0.72847 0.80096 0.0
H893 H 0.86312 0.70522 0.79533 0.0
H894 H 0.82443 0.65592 0.716 0.0
H895 H 0.78974 0.67955 0.72179 0.0
Ho896 Ho 0.56322 0.54866 0.51627 0.0
Ho897 Ho 0.59919 0.58097 0.54899 0.0
C898 C 0.56621 0.61434 0.52094 0.0
C899 C 0.51945 0.52805 0.48867 0.0
C900 C 0.49714 0.53724 0.49655 0.0
C901 C 0.49783 0.55159 0.52412 0.0
C902 C 0.47925 0.56552 0.53112 0.0
C903 C 0.45945 0.56498 0.5108 0.0
C904 C 0.45801 0.54957 0.48351 0.0
C905 C 0.47699 0.53597 0.47631 0.0
C906 C 0.60448 0.55239 0.48504 0.0
C907 C 0.59296 0.51382 0.54706 0.0
C908 C 0.64304 0.60418 0.57596 0.0
C909 C 0.66573 0.59407 0.5724 0.0
C910 C 0.66562 0.57329 0.54893 0.0
C911 C 0.68555 0.56036 0.54673 0.0
C912 C 0.70601 0.56829 0.56778 0.0
C913 C 0.70671 0.58984 0.59077 0.0
C914 C 0.68643 0.60256 0.59321 0.0
C915 C 0.55829 0.57906 0.58034 0.0
O916 O 0.55083 0.59016 0.52094 0.0
O917 O 0.58975 0.61609 0.52845 0.0
O918 O 0.53574 0.54776 0.48111 0.0
O919 O 0.52971 0.51511 0.50646 0.0
O920 O 0.58859 0.52958 0.4872 0.0
O921 O 0.59804 0.57238 0.50117 0.0
O922 O 0.60928 0.53815 0.55021 0.0
O923 O 0.57044 0.51238 0.53555 0.0
O924 O 0.62626 0.58708 0.5859 0.0
O925 O 0.6336 0.61288 0.55429 0.0
O926 O 0.57499 0.60117 0.57807 0.0
O927 O 0.56397 0.55831 0.56423 0.0
H928 H 0.51337 0.55312 0.53999 0.0
H929 H 0.48059 0.57728 0.55226 0.0
H930 H 0.44284 0.54914 0.46755 0.0
H931 H 0.47643 0.52545 0.45483 0.0
H932 H 0.64977 0.56645 0.53265 0.0
H933 H 0.68485 0.54384 0.52879 0.0
H934 H 0.72246 0.59605 0.60717 0.0
H935 H 0.68661 0.61838 0.61156 0.0
Ho936 Ho 0.10511 0.5649 0.02919 0.0
Ho937 Ho 0.04885 0.56284 0.03398 0.0
C938 C 0.0635 0.50442 1.01394 0.0
C939 C 0.1503 0.55813 0.02932 0.0
C940 C 0.16571 0.53689 0.03138 0.0
C941 C 0.17312 0.52975 0.05735 0.0
C942 C 0.19008 0.51231 0.05935 0.0
C943 C 0.19997 0.50153 0.0354 0.0
C944 C 0.19207 0.50814 1.00934 0.0
C945 C 0.17527 0.5257 1.0074 0.0
C946 C 0.07825 0.57716 0.98596 0.0
C947 C 0.0901 0.62331 0.05372 0.0
C948 C 1.00358 0.56903 0.02765 0.0
C949 C 0.98771 0.58957 0.033 0.0
C950 C 0.9822 0.60535 1.01233 0.0
C951 C 0.96375 0.62078 1.01483 0.0
C952 C 0.9503 0.62062 0.03796 0.0
C953 C 0.95669 0.60604 0.05932 0.0
C954 C 0.97515 0.59058 0.05682 0.0
C955 C 0.07341 0.54724 0.0764 0.0
O956 O 0.08716 0.51752 0.02271 0.0
O957 O 0.04556 0.51838 1.0123 0.0
O958 O 0.13458 0.55418 1.00645 0.0
O959 O 0.14145 0.56814 0.05187 0.0
O960 O 0.10122 0.5901 0.99439 0.0
O961 O 0.07142 0.55827 1.00003 0.0
O962 O 0.06641 0.60957 0.04826 0.0
O963 O 0.10871 0.61054 0.04957 0.0
O964 O 1.01305 0.5597 0.04911 0.0
O965 O 1.01892 0.57322 1.00912 0.0
O966 O 0.0498 0.53768 0.06826 0.0
O967 O 0.0823 0.567 0.06379 0.0
H968 H 0.16625 0.5381 0.07623 0.0
H969 H 0.19559 0.50741 0.07969 0.0
H970 H 0.19955 0.50054 0.99054 0.0
H971 H 0.17026 0.53116 0.98717 0.0
H972 H 0.99128 0.6047 0.99351 0.0
H973 H 0.95908 0.6315 0.99783 0.0
H974 H 0.94687 0.60584 0.07757 0.0
H975 H 0.9788 0.57846 0.07299 0.0
H976 H 1.00624 0.20461 0.9848 0.0
H977 H 0.0759 0.23668 0.95589 0.0
H978 H 0.09332 0.19944 0.97314 0.0
H979 H 0.08893 0.15758 0.99701 0.0
H980 H 1.01778 0.12268 0.02128 0.0
H981 H 1.00088 0.16073 1.00534 0.0
C982 C 1.02515 0.20323 0.98201 0.0
C983 C 0.03969 0.22344 0.96895 0.0
C984 C 0.03488 0.18121 0.99137 0.0
C985 C 0.06416 0.22125 0.96549 0.0
C986 C 0.07421 0.20004 0.97557 0.0
C987 C 0.06978 0.15844 0.99899 0.0
C988 C 0.0548 0.13745 1.01084 0.0
C989 C 0.05982 0.17993 0.98872 0.0
C990 C 0.02985 0.13861 1.01256 0.0
C991 C 1.02012 0.16039 1.00335 0.0
H992 H 0.22934 0.84673 0.14807 0.0
H993 H 0.17645 0.85983 0.20588 0.0
H994 H 0.20623 0.85743 0.24496 0.0
H995 H 0.24663 0.85115 0.26323 0.0
H996 H 0.30028 0.83626 0.20729 0.0
H997 H 0.27101 0.83987 0.16714 0.0
C998 C 0.22443 0.84933 0.16925 0.0
C999 C 0.20049 0.85369 0.17378 0.0
C1000 C 0.24179 0.84752 0.19204 0.0
C1001 C 0.19453 0.85655 0.20147 0.0
C1002 C 0.21162 0.85515 0.22398 0.0
C1003 C 0.25214 0.8488 0.2423 0.0
C1004 C 0.27582 0.84364 0.23843 0.0
C1005 C 0.2352 0.85057 0.21954 0.0
C1006 C 0.28229 0.84034 0.21099 0.0
C1007 C 0.26549 0.84241 0.18804 0.0
H1008 H 0.56418 0.88971 0.44236 0.0
H1009 H 0.51692 0.86023 0.50223 0.0
H1010 H 0.52194 0.90952 0.52656 0.0
H1011 H 0.54012 0.96147 0.53032 0.0
H1012 H 0.59033 0.98848 0.47214 0.0
H1013 H 0.58369 0.93968 0.44743 0.0
C1014 C 0.55479 0.89398 0.46064 0.0
C1015 C 0.53988 0.87141 0.47026 0.0
C1016 C 0.55839 0.92198 0.47481 0.0
C1017 C 0.52836 0.87731 0.49435 0.0
C1018 C 0.53125 0.90546 0.50821 0.0
C1019 C 0.54963 0.95647 0.51233 0.0
C1020 C 0.5658 0.97841 0.50306 0.0
C1021 C 0.54626 0.92803 0.49862 0.0
C1022 C 0.57809 0.97185 0.47981 0.0
C1023 C 0.57421 0.944 0.4656 0.0
H1024 H 0.53803 0.34297 0.64437 0.0
H1025 H 0.5816 0.31334 0.70705 0.0
H1026 H 0.54602 0.30391 0.73261 0.0
H1027 H 0.50326 0.30574 0.7386 0.0
H1028 H 0.45866 0.33498 0.67669 0.0
H1029 H 0.4939 0.34334 0.64982 0.0
C1030 C 0.53963 0.33426 0.6635 0.0
C1031 C 0.56257 0.32898 0.67377 0.0
C1032 C 0.51898 0.32911 0.67848 0.0
C1033 C 0.56431 0.31779 0.69868 0.0
C1034 C 0.54393 0.31238 0.71339 0.0
C1035 C 0.50103 0.31359 0.71904 0.0
C1036 C 0.4782 0.31964 0.70976 0.0
C1037 C 0.52128 0.31821 0.70368 0.0
C1038 C 0.47604 0.33042 0.6846 0.0
C1039 C 0.49617 0.33504 0.6691 0.0
H1040 H 0.02717 0.81171 0.59678 0.0
H1041 H 0.03386 0.87015 0.67491 0.0
H1042 H 0.0539 0.90928 0.65276 0.0
H1043 H 0.06952 0.92622 0.61091 0.0
H1044 H 0.06173 0.86634 0.53336 0.0
H1045 H 0.04295 0.82794 0.55617 0.0
C1046 C 0.03299 0.83298 0.60911 0.0
C1047 C 0.02901 0.83813 0.63738 0.0
C1048 C 0.04468 0.8549 0.5965 0.0
C1049 C 0.03658 0.8658 0.65299 0.0
C1050 C 0.04815 0.88804 0.6404 0.0
C1051 C 0.06366 0.90476 0.59904 0.0
C1052 C 0.06713 0.89912 0.57049 0.0
C1053 C 0.05231 0.88277 0.61213 0.0
C1054 C 0.05975 0.87119 0.55546 0.0
C1055 C 0.04872 0.84926 0.56837 0.0
H1056 H 0.58091 0.87628 0.84799 0.0
H1057 H 0.55018 0.84904 0.92032 0.0
H1058 H 0.50835 0.83903 0.8951 0.0
H1059 H 0.48053 0.84386 0.85521 0.0
H1060 H 0.5102 0.87461 0.78414 0.0
H1061 H 0.55261 0.87669 0.80569 0.0
C1062 C 0.56503 0.86788 0.85805 0.0
C1063 C 0.56847 0.86398 0.88612 0.0
C1064 C 0.54097 0.86277 0.84364 0.0
C1065 C 0.54787 0.85288 0.89894 0.0
C1066 C 0.52399 0.84698 0.88451 0.0
C1067 C 0.49634 0.85042 0.84427 0.0
C1068 C 0.49264 0.85934 0.81847 0.0
C1069 C 0.52034 0.85269 0.85726 0.0
C1070 C 0.51291 0.86762 0.80408 0.0
C1071 C 0.53704 0.86909 0.81653 0.0
H1072 H 0.4922 0.17982 0.11426 0.0
H1073 H 0.56219 0.20875 0.1678 0.0
H1074 H 0.57525 0.16573 0.14894 0.0
H1075 H 0.57077 0.12729 0.10821 0.0
H1076 H 0.5006 0.09881 0.05448 0.0
H1077 H 0.48325 0.13359 0.08277 0.0
C1078 C 0.50961 0.17574 0.12292 0.0
C1079 C 0.52633 0.19705 0.14209 0.0
C1080 C 0.51724 0.15141 0.11134 0.0
C1081 C 0.54906 0.19218 0.15308 0.0
C1082 C 0.55668 0.16784 0.14198 0.0
C1083 C 0.55143 0.12802 0.10347 0.0
C1084 C 0.53724 0.11154 0.07886 0.0
C1085 C 0.54161 0.14834 0.11968 0.0
C1086 C 0.51206 0.11211 0.073 0.0
C1087 C 0.5021 0.13197 0.08912 0.0
H1088 H 0.18293 0.34938 0.33071 0.0
H1089 H 0.22292 0.3475 0.41085 0.0
H1090 H 0.25824 0.33757 0.38769 0.0
H1091 H 0.27814 0.33182 0.3451 0.0
H1092 H 0.23883 0.33402 0.26492 0.0
H1093 H 0.20254 0.34226 0.2877 0.0
C1094 C 0.19928 0.34638 0.34296 0.0
C1095 C 0.20059 0.34898 0.37225 0.0
C1096 C 0.21958 0.34153 0.32965 0.0
C1097 C 0.2218 0.34556 0.3882 0.0
C1098 C 0.24191 0.34005 0.37505 0.0
C1099 C 0.26163 0.33445 0.33283 0.0
C1100 C 0.26083 0.33313 0.30383 0.0
C1101 C 0.24112 0.33857 0.34592 0.0
C1102 C 0.23952 0.3356 0.2875 0.0
C1103 C 0.21892 0.34006 0.30045 0.0
H1104 H 1.01 0.043 0.19252 0.0
H1105 H 0.98411 0.12014 0.19285 0.0
H1106 H 1.00313 0.1268 0.14969 0.0
H1107 H 0.02935 0.11171 0.11129 0.0
H1108 H 0.05184 0.03244 0.11049 0.0
H1109 H 0.03265 1.02629 0.15317 0.0
C1110 C 1.00806 0.06135 0.1833 0.0
C1111 C 0.9949 0.08093 0.19731 0.0
C1112 C 1.01905 0.06493 0.15769 0.0
C1113 C 0.99339 0.10424 0.18366 0.0
C1114 C 1.00467 0.10818 0.1586 0.0
C1115 C 0.03001 0.09286 0.12016 0.0
C1116 C 0.04274 0.07255 0.1064 0.0
C1117 C 1.01789 0.08886 0.14527 0.0
C1118 C 0.04259 0.04854 0.11934 0.0
C1119 C 0.03145 0.04501 0.14427 0.0
H1120 H 0.29073 0.66663 0.45515 0.0
H1121 H 0.32158 0.74324 0.51629 0.0
H1122 H 0.30072 0.77037 0.48856 0.0
H1123 H 0.27784 0.77391 0.44553 0.0
H1124 H 0.25478 0.70136 0.3787 0.0
H1125 H 0.26708 0.6706 0.41036 0.0
C1126 C 0.29299 0.68928 0.46212 0.0
C1127 C 0.30744 0.70283 0.48777 0.0
C1128 C 0.28172 0.70527 0.4454 0.0
C1129 C 0.31032 0.7322 0.49671 0.0
C1130 C 0.29828 0.74779 0.48101 0.0
C1131 C 0.27457 0.75114 0.43828 0.0
C1132 C 0.26518 0.73966 0.41028 0.0
C1133 C 0.28418 0.73463 0.4553 0.0
C1134 C 0.26164 0.71036 0.40054 0.0
C1135 C 0.26918 0.69301 0.41841 0.0
H1136 H 0.67242 0.08053 0.67316 0.0
H1137 H 0.63469 0.99721 0.68295 0.0
H1138 H 0.60667 0.99253 0.63946 0.0
H1139 H 0.58723 1.01704 0.60567 0.0
H1140 H 0.62146 0.10394 0.60257 0.0
H1141 H 0.65593 0.10306 0.63698 0.0
C1142 C 0.65887 0.0608 0.6648 0.0
C1143 C 0.65542 0.03918 0.68071 0.0
C1144 C 0.64131 0.05972 0.64193 0.0
C1145 C 0.63765 1.01388 0.6705 0.0
C1146 C 0.62128 1.01157 0.64615 0.0
C1147 C 0.60231 0.03562 0.61264 0.0
C1148 C 0.60189 0.06053 0.60206 0.0
C1149 C 0.62185 0.03519 0.63295 0.0
C1150 C 0.62148 0.08457 0.61077 0.0
C1151 C 0.64129 0.08403 0.63018 0.0
H1152 H 0.33396 0.34796 0.97659 0.0
H1153 H 0.3829 0.42698 0.97071 0.0
H1154 H 0.38493 0.40934 0.92106 0.0
H1155 H 0.37019 0.37257 0.87818 0.0
H1156 H 0.31705 0.29622 0.88293 0.0
H1157 H 0.3192 0.31132 0.93382 0.0
C1158 C 0.3453 0.3611 0.96446 0.0
C1159 C 0.35842 0.38864 0.97727 0.0
C1160 C 0.34551 0.35122 0.93559 0.0
C1161 C 0.37265 0.40572 0.96124 0.0
C1162 C 0.3738 0.39562 0.93286 0.0
C1163 C 0.35957 0.35904 0.89057 0.0
C1164 C 0.34391 0.33302 0.87705 0.0
C1165 C 0.36001 0.36856 0.91965 0.0
C1166 C 0.32953 0.31608 0.89305 0.0
C1167 C 0.33066 0.32481 0.9221 0.0
H1168 H 1.01483 0.05933 0.34075 0.0
H1169 H 0.96933 0.11226 0.37848 0.0
H1170 H 0.99003 0.11195 0.42526 0.0
H1171 H 1.02141 0.09656 0.45732 0.0
H1172 H 0.06401 0.03984 0.41991 0.0
H1173 H 0.04463 0.0418 0.37301 0.0
C1174 C 1.00931 0.0709 0.35908 0.0
C1175 C 0.99006 0.08609 0.35493 0.0
C1176 C 1.0211 0.06997 0.3869 0.0
C1177 C 0.98367 0.10034 0.37993 0.0
C1178 C 0.99573 0.10021 0.40716 0.0
C1179 C 0.02668 0.08463 0.43902 0.0
C1180 C 0.04495 0.0682 0.44331 0.0
C1181 C 1.01457 0.08512 0.41124 0.0
C1182 C 0.05048 0.0528 0.41838 0.0
C1183 C 0.03921 0.05393 0.39107 0.0
H1184 H 0.36431 0.74299 0.62658 0.0
H1185 H 0.30491 0.67569 0.63858 0.0
H1186 H 0.30035 0.70355 0.6836 0.0
H1187 H 0.30805 0.75081 0.71415 0.0
H1188 H 0.36151 0.82058 0.69497 0.0
H1189 H 0.37267 0.78879 0.657 0.0
C1190 C 0.35116 0.73403 0.63981 0.0
C1191 C 0.33488 0.70769 0.62953 0.0
C1192 C 0.34647 0.75146 0.66323 0.0
C1193 C 0.31782 0.69591 0.64641 0.0
C1194 C 0.31467 0.71222 0.6716 0.0
C1195 C 0.32179 0.75899 0.70125 0.0
C1196 C 0.33346 0.78799 0.70666 0.0
C1197 C 0.32778 0.74069 0.67913 0.0
C1198 C 0.3517 0.79848 0.69046 0.0
C1199 C 0.35846 0.78024 0.6692 0.0
H1200 H 0.70171 0.1133 0.84958 0.0
H1201 H 0.63024 0.08025 0.79867 0.0
H1202 H 0.61089 0.10826 0.83176 0.0
H1203 H 0.61301 0.13662 0.87731 0.0
H1204 H 0.68242 0.16481 0.9323 0.0
H1205 H 0.70429 0.14573 0.89476 0.0
C1206 C 0.68193 0.11233 0.84585 0.0
C1207 C 0.66736 0.09459 0.822 0.0
C1208 C 0.67074 0.12819 0.86528 0.0
C1209 C 0.64182 0.09366 0.81705 0.0
C1210 C 0.63074 0.10982 0.83581 0.0
C1211 C 0.63311 0.13978 0.88068 0.0
C1212 C 0.64619 0.15212 0.90727 0.0
C1213 C 0.64491 0.12667 0.86018 0.0
C1214 C 0.67213 0.15557 0.91171 0.0
C1215 C 0.68446 0.14413 0.89052 0.0
H1216 H 0.32977 0.39502 0.13487 0.0
H1217 H 0.38792 0.34937 0.12256 0.0
H1218 H 0.38156 0.33061 0.16517 0.0
H1219 H 0.35689 0.32251 0.20341 0.0
H1220 H 0.29879 0.36692 0.21761 0.0
H1221 H 0.30775 0.39081 0.17748 0.0
C1222 C 0.34128 0.38132 0.14175 0.0
C1223 C 0.35905 0.37338 0.12485 0.0
C1224 C 0.3376 0.37032 0.16688 0.0
C1225 C 0.37376 0.3556 0.13446 0.0
C1226 C 0.37027 0.34484 0.1591 0.0
C1227 C 0.347 0.33843 0.19854 0.0
C1228 C 0.32787 0.34371 0.2141 0.0
C1229 C 0.35197 0.35153 0.17517 0.0
C1230 C 0.3142 0.36321 0.20652 0.0
C1231 C 0.31913 0.37657 0.1833 0.0
H1232 H 0.27586 1.00042 0.99383 0.0
H1233 H 0.31755 1.02629 0.07653 0.0
H1234 H 0.28629 0.05215 0.09236 0.0
H1235 H 0.2461 0.06503 0.08254 0.0
H1236 H 0.20847 0.04438 0.99713 0.0
H1237 H 0.23888 1.01811 0.98263 0.0
C1238 C 0.2781 1.01204 1.01522 0.0
C1239 C 0.29855 1.01174 0.03415 0.0
C1240 C 0.26066 0.02727 0.02371 0.0
C1241 C 0.30174 0.02665 0.06177 0.0
C1242 C 0.28391 0.04123 0.07075 0.0
C1243 C 0.24478 0.05542 0.06062 0.0
C1244 C 0.22442 0.05612 0.04129 0.0
C1245 C 0.26317 0.0415 0.05187 0.0
C1246 C 0.22318 0.04326 1.01295 0.0
C1247 C 0.24078 0.02847 1.00441 0.0
H1248 H 0.69908 0.67998 0.97044 0.0
H1249 H 0.74148 0.66366 0.04271 0.0
H1250 H 0.70501 0.62998 0.05163 0.0
H1251 H 0.66064 0.60489 0.03879 0.0
H1252 H 0.62015 0.61656 0.96298 0.0
H1253 H 0.65588 0.65229 0.95561 0.0
C1254 C 0.70034 0.66889 0.98802 0.0
C1255 C 0.72299 0.67438 1.0059 0.0
C1256 C 0.67944 0.64887 0.99253 0.0
C1257 C 0.72436 0.65966 0.02848 0.0
C1258 C 0.70344 0.64052 0.0337 0.0
C1259 C 0.65964 0.61554 0.02086 0.0
C1260 C 0.63756 0.60874 1.00182 0.0
C1261 C 0.6808 0.635 1.01595 0.0
C1262 C 0.6368 0.62187 0.97813 0.0
C1263 C 0.65727 0.64219 0.97386 0.0
H1264 H 0.77107 0.48597 0.28959 0.0
H1265 H 0.69728 0.43581 0.28815 0.0
H1266 H 0.71378 0.39279 0.28579 0.0
H1267 H 0.74997 0.36713 0.28445 0.0
H1268 H 0.8236 0.41879 0.28705 0.0
H1269 H 0.80671 0.46091 0.2886 0.0
C1270 C 0.75827 0.46577 0.28866 0.0
C1271 C 0.73217 0.46564 0.28894 0.0
C1272 C 0.76821 0.44009 0.28753 0.0
C1273 C 0.71709 0.43807 0.28792 0.0
C1274 C 0.72675 0.41285 0.28657 0.0
C1275 C 0.76259 0.38743 0.28525 0.0
C1276 C 0.78892 0.38806 0.28545 0.0
C1277 C 0.75242 0.41314 0.28639 0.0
C1278 C 0.80369 0.41588 0.28675 0.0
C1279 C 0.79384 0.44074 0.28767 0.0
H1280 H 0.91127 0.49562 0.47539 0.0
H1281 H 0.92503 0.4357 0.52807 0.0
H1282 H 0.9696 0.45594 0.5335 0.0
H1283 H 1.00436 0.49117 0.52429 0.0
H1284 H 0.9917 0.55005 0.46994 0.0
H1285 H 0.94694 0.52937 0.46361 0.0
C1286 C 0.92416 0.48697 0.48781 0.0
C1287 C 0.91513 0.4642 0.50115 0.0
C1288 C 0.94982 0.49835 0.49039 0.0
C1289 C 0.93177 0.45299 0.51726 0.0
C1290 C 0.95717 0.4646 0.52049 0.0
C1291 C 0.99182 0.49933 0.51088 0.0
C1292 C 1.00116 0.52206 0.49766 0.0
C1293 C 0.96636 0.48729 0.50722 0.0
C1294 C 0.98483 0.53237 0.48017 0.0
C1295 C 0.95928 0.5207 0.4767 0.0
H1296 H 0.43104 0.13964 0.3045 0.0
H1297 H 0.38467 0.05616 0.27224 0.0
H1298 H 0.35247 0.07723 0.25214 0.0
H1299 H 0.33604 0.11936 0.24805 0.0
H1300 H 0.38118 0.20248 0.28339 0.0
H1301 H 0.41581 0.18165 0.29769 0.0
C1302 C 0.41397 0.12609 0.29284 0.0
C1303 C 0.40991 0.09656 0.29012 0.0
C1304 C 0.39548 0.13827 0.28196 0.0
C1305 C 0.3879 0.07907 0.2749 0.0
C1306 C 0.36957 0.09105 0.26335 0.0
C1307 C 0.35367 0.13274 0.25842 0.0
C1308 C 0.35638 0.16209 0.26495 0.0
C1309 C 0.37295 0.12059 0.26737 0.0
C1310 C 0.379 0.17967 0.27848 0.0
C1311 C 0.39863 0.16782 0.28666 0.0
H1312 H 0.38343 0.20795 0.5154 0.0
H1313 H 0.32893 0.13339 0.52305 0.0
H1314 H 0.36164 0.10797 0.53027 0.0
H1315 H 0.40529 0.10604 0.53296 0.0
H1316 H 0.46063 0.18013 0.52632 0.0
H1317 H 0.42804 0.20639 0.5198 0.0
C1318 C 0.37876 0.18617 0.51872 0.0
C1319 C 0.35369 0.1726 0.51857 0.0
C1320 C 0.39778 0.17149 0.52288 0.0
C1321 C 0.34799 0.14439 0.52298 0.0
C1322 C 0.36671 0.12977 0.52711 0.0
C1323 C 0.41036 0.12808 0.53055 0.0
C1324 C 0.43545 0.14105 0.53025 0.0
C1325 C 0.39161 0.14302 0.52696 0.0
C1326 C 0.44147 0.16947 0.52638 0.0
C1327 C 0.42284 0.18455 0.52278 0.0
H1328 H 0.7632 0.62177 0.28527 0.0
H1329 H 0.70953 0.65985 0.32646 0.0
H1330 H 0.73358 0.7069 0.32504 0.0
H1331 H 0.7707 0.73983 0.31235 0.0
H1332 H 0.82476 0.70173 0.27211 0.0
H1333 H 0.80049 0.6546 0.2731 0.0
C1334 C 0.75675 0.64018 0.29432 0.0
C1335 C 0.73386 0.63583 0.30611 0.0
C1336 C 0.77106 0.66846 0.29347 0.0
C1337 C 0.72662 0.66118 0.31714 0.0
C1338 C 0.74055 0.68876 0.31632 0.0
C1339 C 0.77716 0.72137 0.30345 0.0
C1340 C 0.80013 0.72558 0.29188 0.0
C1341 C 0.76287 0.69308 0.30439 0.0
C1342 C 0.80751 0.70031 0.28114 0.0
C1343 C 0.79348 0.67275 0.28174 0.0
H1344 H 0.91399 0.49365 0.85124 0.0
H1345 H 0.9745 0.45688 0.82596 0.0
H1346 H 0.94503 0.41228 0.80482 0.0
H1347 H 0.90179 0.38557 0.79005 0.0
H1348 H 0.84159 0.42239 0.81588 0.0
H1349 H 0.87124 0.46612 0.83921 0.0
C1350 C 0.92076 0.4756 0.84171 0.0
C1351 C 0.9463 0.47843 0.84012 0.0
C1352 C 0.90375 0.45075 0.82858 0.0
C1353 C 0.95495 0.455 0.82783 0.0
C1354 C 0.93807 0.42978 0.81519 0.0
C1355 C 0.89526 0.40352 0.80019 0.0
C1356 C 0.86973 0.40163 0.80039 0.0
C1357 C 0.91242 0.42786 0.81456 0.0
C1358 C 0.86125 0.42417 0.81472 0.0
C1359 C 0.87815 0.4488 0.82842 0.0
H1360 H 0.10831 0.89273 0.06948 0.0
H1361 H 0.13977 0.9424 0.15101 0.0
H1362 H 0.13334 0.9856 0.13472 0.0
H1363 H 0.11739 1.00946 0.09755 0.0
H1364 H 0.08168 0.95882 1.01791 0.0
H1365 H 0.09118 0.91626 0.03292 0.0
C1366 C 0.1141 0.91307 0.08356 0.0
C1367 C 0.12497 0.91425 0.11138 0.0
C1368 C 0.10945 0.93782 0.07431 0.0
C1369 C 0.13164 0.94079 0.12947 0.0
C1370 C 0.12789 0.96557 0.12015 0.0
C1371 C 0.11194 0.98913 0.08342 0.0
C1372 C 0.0991 0.98746 0.05644 0.0
C1373 C 0.11666 0.9644 0.09266 0.0
C1374 C 0.09165 0.96079 0.03868 0.0
C1375 C 0.09709 0.93639 0.04729 0.0
H1376 H 0.97671 0.3136 0.87205 0.0
H1377 H 0.92953 0.26759 0.92287 0.0
H1378 H 0.89246 0.27086 0.89275 0.0
H1379 H 0.87303 0.28861 0.85207 0.0
H1380 H 0.922 0.33901 0.80553 0.0
H1381 H 0.95794 0.33238 0.8335 0.0
C1382 C 0.95832 0.30388 0.87627 0.0
C1383 C 0.95603 0.28993 0.89944 0.0
C1384 C 0.93704 0.30694 0.85958 0.0
C1385 C 0.93193 0.27822 0.90501 0.0
C1386 C 0.91065 0.28022 0.88782 0.0
C1387 C 0.89154 0.29812 0.84812 0.0
C1388 C 0.89436 0.31406 0.82623 0.0
C1389 C 0.91286 0.29486 0.8651 0.0
C1390 C 0.91877 0.32641 0.82186 0.0
C1391 C 0.93964 0.32264 0.83792 0.0
H1392 H 0.58333 0.25686 0.58616 0.0
H1393 H 0.66265 0.26548 0.59945 0.0
H1394 H 0.65742 0.21445 0.58365 0.0
H1395 H 0.63053 0.16764 0.56494 0.0
H1396 H 0.55111 0.15866 0.54919 0.0
H1397 H 0.55613 0.20937 0.56652 0.0
C1398 C 0.59934 0.24737 0.58584 0.0
C1399 C 0.62332 0.2647 0.59416 0.0
C1400 C 0.59622 0.21801 0.5759 0.0
C1401 C 0.64403 0.25241 0.59321 0.0
C1402 C 0.64105 0.22329 0.58409 0.0
C1403 C 0.61427 0.1767 0.56519 0.0
C1404 C 0.59048 0.1592 0.55577 0.0
C1405 C 0.61727 0.20592 0.57511 0.0
C1406 C 0.56969 0.17151 0.55628 0.0
C1407 C 0.57252 0.20057 0.5663 0.0
H1408 H 0.58796 0.80311 0.36433 0.0
H1409 H 0.62311 0.79828 0.44593 0.0
H1410 H 0.66357 0.80382 0.42846 0.0
H1411 H 0.68915 0.8108 0.38979 0.0
H1412 H 0.65366 0.81841 0.30924 0.0
H1413 H 0.61337 0.8114 0.3265 0.0
C1414 C 0.60444 0.80295 0.37819 0.0
C1415 C 0.60252 0.79987 0.40623 0.0
C1416 C 0.62768 0.80692 0.36822 0.0
C1417 C 0.62412 0.80043 0.42416 0.0
C1418 C 0.64726 0.80364 0.4142 0.0
C1419 C 0.67254 0.81071 0.37604 0.0
C1420 C 0.67441 0.81505 0.34824 0.0
C1421 C 0.6493 0.80699 0.38624 0.0
C1422 C 0.65277 0.81532 0.33077 0.0
C1423 C 0.62968 0.81118 0.34057 0.0
H1424 H 0.10456 0.32906 0.48814 0.0
H1425 H 0.14128 0.2909 0.42272 0.0
H1426 H 0.12682 0.2443 0.4355 0.0
H1427 H 0.10392 0.2149 0.46582 0.0
H1428 H 0.0687 0.25508 0.5316 0.0
H1429 H 0.08176 0.30049 0.51715 0.0
C1430 C 0.10966 0.3107 0.47667 0.0
C1431 C 0.12422 0.31354 0.45475 0.0
C1432 C 0.10114 0.28429 0.4838 0.0
C1433 C 0.13026 0.28932 0.43993 0.0
C1434 C 0.1219 0.26269 0.44709 0.0
C1435 C 0.09914 0.23364 0.47695 0.0
C1436 C 0.08526 0.2316 0.49966 0.0
C1437 C 0.10733 0.25999 0.46906 0.0
C1438 C 0.07889 0.25592 0.51368 0.0
C1439 C 0.08663 0.28199 0.50571 0.0
H1440 H 0.61915 0.32506 0.17965 0.0
H1441 H 0.57284 0.27909 0.23174 0.0
H1442 H 0.60955 0.27626 0.26187 0.0
H1443 H 0.65461 0.27965 0.26833 0.0
H1444 H 0.70056 0.32292 0.21452 0.0
H1445 H 0.66429 0.33458 0.19041 0.0
C1446 C 0.61711 0.31497 0.19795 0.0
C1447 C 0.59343 0.30189 0.20317 0.0
C1448 C 0.63825 0.31281 0.21477 0.0
C1449 C 0.59094 0.28925 0.22718 0.0
C1450 C 0.61191 0.28744 0.24436 0.0
C1451 C 0.6566 0.29238 0.25191 0.0
C1452 C 0.67979 0.30035 0.24285 0.0
C1453 C 0.63562 0.29811 0.23764 0.0
C1454 C 0.68258 0.31659 0.22149 0.0
C1455 C 0.66192 0.32309 0.2077 0.0
H1456 H 0.61724 0.95167 0.90952 0.0
H1457 H 0.68084 0.95094 0.96747 0.0
H1458 H 0.6737 0.99159 0.99908 0.0
H1459 H 0.64676 1.02301 1.01252 0.0
H1460 H 0.57986 1.02035 0.95811 0.0
H1461 H 0.59101 0.98563 0.92225 0.0
C1462 C 0.62981 0.96111 0.92872 0.0
C1463 C 0.64967 0.94906 0.93632 0.0
C1464 C 0.62483 0.98351 0.94733 0.0
C1465 C 0.6656 0.96044 0.96143 0.0
C1466 C 0.66146 0.98347 0.97944 0.0
C1467 C 0.63479 1.01516 0.99263 0.0
C1468 C 0.61246 1.02378 0.98789 0.0
C1469 C 0.64074 0.99456 0.97296 0.0
C1470 C 0.59713 1.01373 0.96208 0.0
C1471 C 0.60344 0.99387 0.94172 0.0
H1472 H 0.97627 0.78398 0.74501 0.0
H1473 H 0.93218 0.73494 0.66862 0.0
H1474 H 0.8942 0.7345 0.69058 0.0
H1475 H 0.87348 0.75341 0.7292 0.0
H1476 H 0.91744 0.80799 0.80301 0.0
H1477 H 0.95562 0.80072 0.78467 0.0
C1478 C 0.95836 0.77263 0.73349 0.0
C1479 C 0.95684 0.75936 0.70543 0.0
C1480 C 0.93664 0.77368 0.74577 0.0
C1481 C 0.93362 0.74525 0.69033 0.0
C1482 C 0.91197 0.74505 0.70284 0.0
C1483 C 0.89142 0.76297 0.74159 0.0
C1484 C 0.89279 0.78096 0.76744 0.0
C1485 C 0.91322 0.75991 0.73025 0.0
C1486 C 0.91607 0.7939 0.78308 0.0
C1487 C 0.93786 0.78988 0.77255 0.0
H1488 H 0.13571 0.04808 0.85637 0.0
H1489 H 0.20732 0.04794 0.8992 0.0
H1490 H 0.19044 0.05094 0.9441 0.0
H1491 H 0.15475 0.05251 0.97331 0.0
H1492 H 0.08313 0.05272 0.93081 0.0
H1493 H 0.10019 0.05092 0.88587 0.0
C1494 C 0.14791 0.0488 0.87538 0.0
C1495 C 0.17353 0.04768 0.87291 0.0
C1496 C 0.13777 0.05066 0.90231 0.0
C1497 C 0.18793 0.04867 0.89899 0.0
C1498 C 0.17808 0.05042 0.92528 0.0
C1499 C 0.14273 0.05267 0.95444 0.0
C1500 C 0.1171 0.0535 0.95692 0.0
C1501 C 0.15294 0.05138 0.9276 0.0
C1502 C 0.10268 0.05279 0.93095 0.0
C1503 C 0.1126 0.05154 0.90468 0.0
H1504 H 0.82357 0.42597 0.60248 0.0
H1505 H 0.89475 0.46122 0.57887 0.0
H1506 H 0.916 0.44963 0.62041 0.0
H1507 H 0.91348 0.41794 0.65536 0.0
H1508 H 0.8422 0.38327 0.67917 0.0
H1509 H 0.82164 0.40673 0.64621 0.0
C1510 C 0.84366 0.43237 0.6074 0.0
C1511 C 0.85776 0.44404 0.58802 0.0
C1512 C 0.85566 0.42529 0.63103 0.0
C1513 C 0.88374 0.45226 0.59397 0.0
C1514 C 0.89587 0.44534 0.61746 0.0
C1515 C 0.89366 0.41683 0.6542 0.0
C1516 C 0.87918 0.39891 0.66906 0.0
C1517 C 0.88198 0.43015 0.63504 0.0
C1518 C 0.8535 0.39717 0.66765 0.0
C1519 C 0.84174 0.41032 0.64869 0.0
H1520 H 0.51826 0.11703 0.39016 0.0
H1521 H 0.46293 0.0452 0.40173 0.0
H1522 H 0.49057 0.0376 0.44086 0.0
H1523 H 0.53234 0.04825 0.4673 0.0
H1524 H 0.58681 0.12169 0.45725 0.0
H1525 H 0.5578 0.13153 0.42103 0.0
C1526 C 0.51212 0.1003 0.40192 0.0
C1527 C 0.48888 0.08183 0.39366 0.0
C1528 C 0.52807 0.09599 0.42391 0.0
C1529 C 0.48076 0.05994 0.40844 0.0
C1530 C 0.49663 0.05536 0.4304 0.0
C1531 C 0.53752 0.06686 0.45775 0.0
C1532 C 0.5614 0.08437 0.46482 0.0
C1533 C 0.52059 0.07279 0.43769 0.0
C1534 C 0.56844 0.10788 0.4518 0.0
C1535 C 0.55188 0.11361 0.43132 0.0
H1536 H 0.77046 0.74935 0.10111 0.0
H1537 H 0.8456 0.77867 0.08505 0.0
H1538 H 0.8591 0.79524 0.13566 0.0
H1539 H 0.84939 0.80099 0.18486 0.0
H1540 H 0.77398 0.77069 0.20025 0.0
H1541 H 0.76091 0.75438 0.14997 0.0
C1542 C 0.78975 0.75947 0.10879 0.0
C1543 C 0.807 0.76303 0.08952 0.0
C1544 C 0.79739 0.76849 0.13791 0.0
C1545 C 0.83203 0.77575 0.09961 0.0
C1546 C 0.83972 0.78519 0.12852 0.0
C1547 C 0.83012 0.79083 0.17716 0.0
C1548 C 0.81268 0.78736 0.19639 0.0
C1549 C 0.82258 0.7816 0.14795 0.0
C1550 C 0.78776 0.7741 0.18599 0.0
C1551 C 0.78023 0.76465 0.15718 0.0
H1552 H 0.16618 0.08682 0.71206 0.0
H1553 H 0.1561 0.99618 0.70232 0.0
H1554 H 0.13489 0.99107 0.6541 0.0
H1555 H 0.1171 1.01268 0.61369 0.0
H1556 H 0.12828 0.10393 0.62613 0.0
H1557 H 0.1508 0.10797 0.6725 0.0
C1558 C 0.15997 0.06579 0.69933 0.0
C1559 C 0.16392 0.04203 0.71167 0.0
C1560 C 0.14741 0.06299 0.67127 0.0
C1561 C 0.15465 1.01519 0.69408 0.0
C1562 C 0.14202 1.01225 0.6662 0.0
C1563 C 0.12447 0.03354 0.62637 0.0
C1564 C 0.12016 0.05804 0.61519 0.0
C1565 C 0.13795 0.036 0.65433 0.0
C1566 C 0.13039 0.08448 0.6331 0.0
C1567 C 0.14361 0.08692 0.66011 0.0
H1568 H 0.82272 0.38255 0.45808 0.0
H1569 H 0.83759 0.45541 0.41705 0.0
H1570 H 0.84365 0.42523 0.37445 0.0
H1571 H 0.84297 0.37832 0.34866 0.0
H1572 H 0.82571 0.30477 0.38824 0.0
H1573 H 0.82341 0.33545 0.43248 0.0
C1574 C 0.82728 0.3918 0.4398 0.0
C1575 C 0.82949 0.42103 0.44048 0.0
C1576 C 0.83072 0.37439 0.41551 0.0
C1577 C 0.83547 0.43286 0.41679 0.0
C1578 C 0.83914 0.4157 0.39258 0.0
C1579 C 0.83898 0.36899 0.36706 0.0
C1580 C 0.83427 0.33941 0.36532 0.0
C1581 C 0.83665 0.38648 0.39173 0.0
C1582 C 0.82937 0.32755 0.38925 0.0
C1583 C 0.82782 0.34502 0.41435 0.0
H1584 H 0.50581 1.00326 0.25749 0.0
H1585 H 0.45955 0.05809 0.23196 0.0
H1586 H 0.45778 0.03637 0.18262 0.0
H1587 H 0.47614 1.00859 0.14735 0.0
H1588 H 0.52783 0.96017 0.17473 0.0
H1589 H 0.51829 0.96979 0.22224 0.0
C1590 C 0.49541 1.0105 0.24109 0.0
C1591 C 0.48388 0.03307 0.24793 0.0
C1592 C 0.49469 0.99823 0.21308 0.0
C1593 C 0.4693 0.04132 0.22684 0.0
C1594 C 0.46806 0.02873 0.19877 0.0
C1595 C 0.48499 0.99974 0.16367 0.0
C1596 C 0.504 0.9855 0.15778 0.0
C1597 C 0.48165 1.00807 0.19164 0.0
C1598 C 0.51373 0.97211 0.17853 0.0
C1599 C 0.50876 0.97816 0.20606 0.0
H1600 H 0.80102 0.77853 0.95235 0.0
H1601 H 0.79756 0.69292 0.9112 0.0
H1602 H 0.8066 0.7098 0.86757 0.0
H1603 H 0.81849 0.74991 0.84164 0.0
H1604 H 0.82297 0.83518 0.8845 0.0
H1605 H 0.81044 0.81752 0.92619 0.0
C1606 C 0.80184 0.76345 0.93375 0.0
C1607 C 0.79848 0.73443 0.93526 0.0
C1608 C 0.80741 0.77334 0.90873 0.0
C1609 C 0.79994 0.71538 0.91082 0.0
C1610 C 0.80521 0.72505 0.88576 0.0
C1611 C 0.81626 0.76447 0.85985 0.0
C1612 C 0.82174 0.79389 0.85966 0.0
C1613 C 0.80936 0.75411 0.88447 0.0
C1614 C 0.81902 0.81244 0.88387 0.0
C1615 C 0.81185 0.80238 0.90791 0.0
H1616 H 0.85322 0.08832 0.02921 0.0
H1617 H 0.90404 0.16705 0.06812 0.0
H1618 H 0.93942 0.14618 0.05839 0.0
H1619 H 0.95563 0.10663 0.03608 0.0
H1620 H 0.90492 0.02856 0.99493 0.0
H1621 H 0.86958 0.04833 1.00758 0.0
C1622 C 0.87207 0.10055 0.03622 0.0
C1623 C 0.8762 0.12887 0.04981 0.0
C1624 C 0.89222 0.08879 0.02953 0.0
C1625 C 0.90059 0.14501 0.05798 0.0
C1626 C 0.92076 0.1332 0.0522 0.0
C1627 C 0.93683 0.09383 0.0302 0.0
C1628 C 0.93279 0.06615 1.01479 0.0
C1629 C 0.91675 0.10529 0.03754 0.0
C1630 C 0.90839 0.05 1.00666 0.0
C1631 C 0.88824 0.06119 1.01408 0.0
H1632 H 0.45571 0.43076 0.03314 0.0
H1633 H 0.41512 0.48785 0.07466 0.0
H1634 H 0.45056 0.52763 0.07742 0.0
H1635 H 0.49293 0.54663 0.06738 0.0
H1636 H 0.53289 0.49012 0.02425 0.0
H1637 H 0.4981 0.44978 0.02312 0.0
C1638 C 0.4546 0.45184 0.04297 0.0
C1639 C 0.43261 0.45607 0.05377 0.0
C1640 C 0.47506 0.47482 0.0443 0.0
C1641 C 0.43167 0.48374 0.06623 0.0
C1642 C 0.45199 0.5066 0.0678 0.0
C1643 C 0.49408 0.52545 0.05786 0.0
C1644 C 0.51569 0.52134 0.04626 0.0
C1645 C 0.47374 0.50243 0.05682 0.0
C1646 C 0.51673 0.49382 0.03375 0.0
C1647 C 0.49672 0.47076 0.03295 0.0
H1648 H 0.44674 0.69364 0.78838 0.0
H1649 H 0.38246 0.624 0.76689 0.0
H1650 H 0.35538 0.65749 0.7683 0.0
H1651 H 0.34804 0.70747 0.77549 0.0
H1652 H 0.4118 0.7777 0.79538 0.0
H1653 H 0.43928 0.74431 0.79459 0.0
C1654 C 0.42683 0.68542 0.78388 0.0
C1655 C 0.41756 0.65481 0.77741 0.0
C1656 C 0.41046 0.70565 0.78447 0.0
C1657 C 0.3912 0.64642 0.77185 0.0
C1658 C 0.37526 0.66602 0.77271 0.0
C1659 C 0.36794 0.71589 0.7798 0.0
C1660 C 0.37693 0.74645 0.78579 0.0
C1661 C 0.38436 0.69588 0.779 0.0
C1662 C 0.4033 0.7552 0.79085 0.0
C1663 C 0.41942 0.73565 0.79036 0.0
H1664 H 0.24325 0.63083 0.56499 0.0
H1665 H 0.22903 0.6817 0.50279 0.0
H1666 H 0.18443 0.66383 0.50094 0.0
H1667 H 0.14983 0.63548 0.51801 0.0
H1668 H 0.16264 0.58301 0.57907 0.0
H1669 H 0.20767 0.60077 0.58136 0.0
C1670 C 0.2303 0.63755 0.55075 0.0
C1671 C 0.23921 0.65752 0.53409 0.0
C1672 C 0.20461 0.62752 0.55013 0.0
C1673 C 0.22244 0.66644 0.5159 0.0
C1674 C 0.197 0.65632 0.51489 0.0
C1675 C 0.16241 0.62772 0.53172 0.0
C1676 C 0.15297 0.60784 0.54817 0.0
C1677 C 0.18794 0.63725 0.5322 0.0
C1678 C 0.1695 0.59853 0.56636 0.0
C1679 C 0.1952 0.6084 0.56739 0.0
H1680 H 0.7675 0.04772 0.77522 0.0
H1681 H 0.70537 0.97561 0.76427 0.0
H1682 H 0.7339 0.94515 0.77414 0.0
H1683 H 0.77643 0.93951 0.78506 0.0
H1684 H 0.83821 1.01193 0.79529 0.0
H1685 H 0.80948 0.04247 0.78751 0.0
C1686 C 0.76018 1.02526 0.77473 0.0
C1687 C 0.73457 1.01362 0.76862 0.0
C1688 C 0.77648 1.00829 0.78073 0.0
C1689 C 0.72516 0.98477 0.76872 0.0
C1690 C 0.74139 0.9675 0.77443 0.0
C1691 C 0.78356 0.96197 0.7854 0.0
C1692 C 0.80929 0.97355 0.79021 0.0
C1693 C 0.76707 0.97909 0.78034 0.0
C1694 C 0.81842 1.00271 0.79157 0.0
C1695 C 0.80207 1.02004 0.7869 0.0
H1696 H 0.81543 0.99115 0.55359 0.0
H1697 H 0.77069 0.90962 0.55968 0.0
H1698 H 0.7329 0.92781 0.55401 0.0
H1699 H 0.71249 0.96675 0.54588 0.0
H1700 H 0.75759 0.04733 0.53712 0.0
H1701 H 0.79514 0.02955 0.54465 0.0
C1702 C 0.79742 0.97754 0.55414 0.0
C1703 C 0.79583 0.94928 0.55757 0.0
C1704 C 0.77577 0.98785 0.54987 0.0
C1705 C 0.77235 0.93157 0.55738 0.0
C1706 C 0.75075 0.94192 0.554 0.0
C1707 C 0.73056 0.98041 0.54573 0.0
C1708 C 0.73217 1.00831 0.54083 0.0
C1709 C 0.7522 0.96998 0.54998 0.0
C1710 C 0.75574 1.02564 0.54042 0.0
C1711 C 0.77728 1.01558 0.54497 0.0
H1712 H 0.39489 0.50491 0.78574 0.0
H1713 H 0.45695 0.46963 0.76359 0.0
H1714 H 0.433 0.42201 0.76358 0.0
H1715 H 0.39379 0.38807 0.77053 0.0
H1716 H 0.3319 0.42388 0.79247 0.0
H1717 H 0.35578 0.4712 0.79196 0.0
C1718 C 0.40325 0.48695 0.78058 0.0
C1719 C 0.42837 0.49216 0.77461 0.0
C1720 C 0.3891 0.45851 0.7808 0.0
C1721 C 0.43806 0.4675 0.76842 0.0
C1722 C 0.42419 0.43966 0.76843 0.0
C1723 C 0.38542 0.40608 0.77531 0.0
C1724 C 0.36037 0.40111 0.7816 0.0
C1725 C 0.3996 0.43452 0.77482 0.0
C1726 C 0.35072 0.42582 0.78746 0.0
C1727 C 0.36455 0.45351 0.78717 0.0
H1728 H 0.23578 0.64732 0.24108 0.0
H1729 H 0.21063 0.67216 0.32079 0.0
H1730 H 0.24522 0.71381 0.33194 0.0
H1731 H 0.28004 0.74391 0.31774 0.0
H1732 H 0.30353 0.72259 0.23641 0.0
H1733 H 0.27253 0.6774 0.22754 0.0
C1734 C 0.23789 0.66197 0.26083 0.0
C1735 C 0.22052 0.65738 0.27986 0.0
C1736 C 0.25757 0.68582 0.26692 0.0
C1737 C 0.22344 0.67601 0.30555 0.0
C1738 C 0.24334 0.69942 0.31208 0.0
C1739 C 0.27865 0.72938 0.29814 0.0
C1740 C 0.29362 0.73672 0.27753 0.0
C1741 C 0.26017 0.70466 0.29272 0.0
C1742 C 0.29199 0.71737 0.2525 0.0
C1743 C 0.27416 0.69178 0.24735 0.0
H1744 H 0.50966 0.70872 0.49288 0.0
H1745 H 0.57533 0.73477 0.45394 0.0
H1746 H 0.59243 0.69648 0.46904 0.0
H1747 H 0.58907 0.65567 0.49409 0.0
H1748 H 0.52168 0.62701 0.52903 0.0
H1749 H 0.50504 0.66605 0.51497 0.0
C1750 C 0.52764 0.70589 0.48754 0.0
C1751 C 0.54116 0.72471 0.47232 0.0
C1752 C 0.53719 0.68341 0.49585 0.0
C1753 C 0.56438 0.72053 0.46541 0.0
C1754 C 0.57428 0.69871 0.47423 0.0
C1755 C 0.57083 0.65816 0.49878 0.0
C1756 C 0.5568 0.63874 0.51302 0.0
C1757 C 0.56096 0.68012 0.48966 0.0
C1758 C 0.53294 0.6418 0.51833 0.0
C1759 C 0.52338 0.6641 0.51022 0.0
H1760 H 0.72026 0.33099 0.6446 0.0
H1761 H 0.6842 0.37428 0.70709 0.0
H1762 H 0.717 0.37275 0.74386 0.0
H1763 H 0.75613 0.35931 0.7585 0.0
H1764 H 0.79028 0.31206 0.6971 0.0
H1765 H 0.75824 0.31491 0.65981 0.0
C1766 C 0.71971 0.34032 0.66624 0.0
C1767 C 0.69993 0.35326 0.6729 0.0
C1768 C 0.73836 0.33861 0.68753 0.0
C1769 C 0.69922 0.36447 0.70123 0.0
C1770 C 0.71801 0.36358 0.72231 0.0
C1771 C 0.75665 0.34976 0.73693 0.0
C1772 C 0.7759 0.33588 0.73055 0.0
C1773 C 0.73772 0.35079 0.71574 0.0
C1774 C 0.77587 0.32306 0.70257 0.0
C1775 C 0.75751 0.3247 0.68124 0.0
H1776 H 1.01475 0.37259 0.9819 0.0
H1777 H 0.07984 0.37452 0.93969 0.0
H1778 H 0.09497 0.42509 0.95867 0.0
H1779 H 0.0888 0.46964 0.98536 0.0
H1780 H 1.02191 0.46905 0.02393 0.0
H1781 H 1.00851 0.41757 1.00866 0.0
C1782 C 0.03235 0.38413 0.97723 0.0
C1783 C 0.04624 0.3699 0.95959 0.0
C1784 C 0.0406 0.41359 0.98751 0.0
C1785 C 0.06885 0.38509 0.95326 0.0
C1786 C 0.07752 0.41402 0.96408 0.0
C1787 C 0.07144 0.45813 0.99064 0.0
C1788 C 0.05644 0.47306 1.00583 0.0
C1789 C 0.06343 0.42862 0.98095 0.0
C1790 C 0.03376 0.45799 1.01215 0.0
C1791 C 0.02608 0.42853 1.00345 0.0
H1792 H 0.0383 0.83618 0.14005 0.0
H1793 H 0.08319 0.80936 0.20377 0.0
H1794 H 0.04809 0.80049 0.23003 0.0
H1795 H 1.00545 0.80214 0.23643 0.0
H1796 H 0.95922 0.82782 0.17325 0.0
H1797 H 0.99404 0.83584 0.14574 0.0
C1798 C 0.04028 0.82815 0.15954 0.0
C1799 C 0.06348 0.82354 0.16988 0.0
C1800 C 1.01985 0.82321 0.17491 0.0
C1801 C 0.06569 0.81324 0.19527 0.0
C1802 C 0.04559 0.80817 0.21042 0.0
C1803 C 1.00273 0.80906 0.21643 0.0
C1804 C 0.97958 0.81426 0.20703 0.0
C1805 C 1.02269 0.81334 0.20063 0.0
C1806 C 0.97685 0.82394 0.1813 0.0
C1807 C 0.99674 0.82835 0.16542 0.0
H1808 H 0.53408 0.31444 0.09681 0.0
H1809 H 0.53896 0.37418 0.17365 0.0
H1810 H 0.56118 0.41239 0.15202 0.0
H1811 H 0.57825 0.42837 0.11084 0.0
H1812 H 0.57009 0.36814 0.03341 0.0
H1813 H 0.55128 0.32999 0.05646 0.0
C1814 C 0.54001 0.33582 0.1089 0.0
C1815 C 0.53485 0.34166 0.13664 0.0
C1816 C 0.55262 0.35732 0.09647 0.0
C1817 C 0.54255 0.36938 0.15209 0.0
C1818 C 0.55538 0.39108 0.13983 0.0
C1819 C 0.5723 0.40691 0.09898 0.0
C1820 C 0.57553 0.40118 0.07041 0.0
C1821 C 0.56039 0.38524 0.11196 0.0
C1822 C 0.56828 0.37315 0.05553 0.0
C1823 C 0.55715 0.35135 0.06855 0.0
H1824 H 0.07315 0.42104 0.38039 0.0
H1825 H 0.07413 0.33221 0.36846 0.0
H1826 H 0.03714 0.321 0.33333 0.0
H1827 H 1.00303 0.33649 0.30892 0.0
H1828 H 1.00214 0.42562 0.32204 0.0
H1829 H 0.04155 0.43695 0.35235 0.0
C1830 C 0.06513 0.39931 0.37002 0.0
C1831 C 0.07561 0.37736 0.37709 0.0
C1832 C 0.04439 0.3932 0.34959 0.0
C1833 C 0.06584 0.34928 0.36328 0.0
C1834 C 0.0449 0.34292 0.34319 0.0
C1835 C 1.01169 0.35841 0.31811 0.0
C1836 C 0.99956 0.38008 0.31352 0.0
C1837 C 0.03383 0.36471 0.3365 0.0
C1838 C 1.01118 0.40849 0.32499 0.0
C1839 C 0.03352 0.41501 0.34277 0.0
H1840 H 0.0486 0.69108 0.64855 0.0
H1841 H 0.97874 0.68538 0.5987 0.0
H1842 H 0.98151 0.63994 0.57152 0.0
H1843 H 1.0084 0.60872 0.55543 0.0
H1844 H 0.08048 0.61724 0.60208 0.0
H1845 H 0.07222 0.65431 0.63755 0.0
C1846 C 0.03344 0.67899 0.63272 0.0
C1847 C 1.01336 0.691 0.62567 0.0
C1848 C 0.03596 0.65383 0.61622 0.0
C1849 C 0.99406 0.67597 0.60466 0.0
C1850 C 0.99587 0.6503 0.58888 0.0
C1851 C 1.02198 0.61816 0.57381 0.0
C1852 C 0.04517 0.61089 0.57597 0.0
C1853 C 1.01744 0.64001 0.59343 0.0
C1854 C 0.06257 0.62281 0.59994 0.0
C1855 C 0.05791 0.64409 0.6201 0.0
H1856 H 0.67986 0.83749 0.82365 0.0
H1857 H 0.72714 0.9037 0.88671 0.0
H1858 H 0.76304 0.89919 0.86262 0.0
H1859 H 0.78164 0.87314 0.82675 0.0
H1860 H 0.73535 0.80398 0.76601 0.0
H1861 H 0.6983 0.81327 0.78566 0.0
C1862 C 0.69798 0.85112 0.83179 0.0
C1863 C 0.70103 0.87065 0.85688 0.0
C1864 C 0.71867 0.84796 0.81824 0.0
C1865 C 0.72452 0.8882 0.86751 0.0
C1866 C 0.74502 0.88576 0.85373 0.0
C1867 C 0.76337 0.86071 0.81729 0.0
C1868 C 0.7611 0.83807 0.79502 0.0
C1869 C 0.7424 0.8653 0.82944 0.0
C1870 C 0.73742 0.82163 0.78323 0.0
C1871 C 0.71629 0.82677 0.79454 0.0
H1872 H 0.53486 0.58956 0.7105 0.0
H1873 H 0.45878 0.57486 0.67302 0.0
H1874 H 0.47267 0.571 0.62594 0.0
H1875 H 0.50731 0.57111 0.59379 0.0
H1876 H 0.58293 0.58731 0.63354 0.0
H1877 H 0.5685 0.59115 0.67971 0.0
C1878 C 0.52099 0.58587 0.69224 0.0
C1879 C 0.4953 0.58307 0.69675 0.0
C1880 C 0.5293 0.5835 0.66469 0.0
C1881 C 0.47849 0.57797 0.67163 0.0
C1882 C 0.48662 0.57538 0.6442 0.0
C1883 C 0.52076 0.57504 0.61241 0.0
C1884 C 0.54679 0.57799 0.60886 0.0
C1885 C 0.51208 0.57786 0.64012 0.0
C1886 C 0.56311 0.58405 0.63435 0.0
C1887 C 0.55472 0.58652 0.66126 0.0
H1888 H 0.80901 0.22958 1.00266 0.0
H1889 H 0.80079 0.14834 0.94881 0.0
H1890 H 0.77881 0.16534 0.91085 0.0
H1891 H 0.76527 0.20509 0.89284 0.0
H1892 H 0.77295 0.28474 0.94933 0.0
H1893 H 0.78951 0.26512 0.9879 0.0
C1894 C 0.80191 0.2151 0.98297 0.0
C1895 C 0.80646 0.18774 0.97848 0.0
C1896 C 0.78842 0.22436 0.96225 0.0
C1897 C 0.79771 0.16967 0.95252 0.0
C1898 C 0.7849 0.17922 0.93107 0.0
C1899 C 0.76982 0.2177 0.91386 0.0
C1900 C 0.7683 0.24635 0.91825 0.0
C1901 C 0.78041 0.2067 0.93571 0.0
C1902 C 0.77382 0.26258 0.94549 0.0
C1903 C 0.78382 0.25161 0.96741 0.0
H1904 H 0.10896 0.5368 0.19869 0.0
H1905 H 0.18064 0.55917 0.17034 0.0
H1906 H 0.16053 0.555 0.12238 0.0
H1907 H 0.12227 0.55148 0.09056 0.0
H1908 H 0.05106 0.53171 0.12026 0.0
H1909 H 0.07123 0.5285 0.1661 0.0
C1910 C 0.12014 0.54 0.18178 0.0
C1911 C 0.14604 0.54862 0.18774 0.0
C1912 C 0.10852 0.53847 0.1548 0.0
C1913 C 0.16058 0.55239 0.16595 0.0
C1914 C 0.14909 0.55029 0.13866 0.0
C1915 C 0.11134 0.54625 0.107 0.0
C1916 C 0.08549 0.54226 0.10245 0.0
C1917 C 0.12307 0.54451 0.13317 0.0
C1918 C 0.07111 0.53487 0.12354 0.0
C1919 C 0.08258 0.53304 0.14965 0.0
H1920 H 0.87011 0.85592 0.47921 0.0
H1921 H 0.83584 0.92481 0.46426 0.0
H1922 H 0.8289 0.9066 0.41416 0.0
H1923 H 0.83145 0.87099 0.37419 0.0
H1924 H 0.86831 0.80373 0.38633 0.0
H1925 H 0.87541 0.82128 0.43748 0.0
C1926 C 0.86119 0.86689 0.46491 0.0
C1927 C 0.85342 0.89169 0.47573 0.0
C1928 C 0.85765 0.85656 0.4355 0.0
C1929 C 0.84211 0.90578 0.45678 0.0
C1930 C 0.83802 0.89534 0.42797 0.0
C1931 C 0.84105 0.86014 0.38804 0.0
C1932 C 0.84903 0.83589 0.37658 0.0
C1933 C 0.84555 0.87073 0.4171 0.0
C1934 C 0.86193 0.82242 0.39469 0.0
C1935 C 0.86591 0.83243 0.42394 0.0
H1936 H 0.47663 0.54503 0.85745 0.0
H1937 H 0.51342 0.63145 0.85691 0.0
H1938 H 0.53893 0.63295 0.90152 0.0
H1939 H 0.55162 0.60998 0.94226 0.0
H1940 H 0.51724 0.52221 0.94049 0.0
H1941 H 0.49084 0.52131 0.89683 0.0
C1942 C 0.49008 0.56436 0.86706 0.0
C1943 C 0.49226 0.5884 0.85313 0.0
C1944 C 0.50558 0.5649 0.89307 0.0
C1945 C 0.51058 0.61267 0.86651 0.0
C1946 C 0.52542 0.61353 0.89237 0.0
C1947 C 0.53838 0.59054 0.93248 0.0
C1948 C 0.53689 0.56612 0.94582 0.0
C1949 C 0.52323 0.58984 0.90616 0.0
C1950 C 0.51943 0.54142 0.93162 0.0
C1951 C 0.50404 0.54089 0.90627 0.0
H1952 H 0.85117 0.25794 0.11534 0.0
H1953 H 0.81091 0.18128 0.13803 0.0
H1954 H 0.80967 0.20737 0.18527 0.0
H1955 H 0.81591 0.25349 0.21748 0.0
H1956 H 0.85122 0.3304 0.19057 0.0
H1957 H 0.85764 0.30285 0.14677 0.0
C1958 C 0.8427 0.24686 0.13097 0.0
C1959 C 0.83121 0.218 0.12363 0.0
C1960 C 0.8403 0.26226 0.15669 0.0
C1961 C 0.82024 0.20352 0.14366 0.0
C1962 C 0.81905 0.21854 0.1703 0.0
C1963 C 0.82473 0.26411 0.20179 0.0
C1964 C 0.83284 0.29383 0.20689 0.0
C1965 C 0.82813 0.24816 0.17654 0.0
C1966 C 0.84445 0.30756 0.18677 0.0
C1967 C 0.84845 0.29184 0.16197 0.0
H1968 H 0.21517 0.60635 0.35694 0.0
H1969 H 0.14141 0.58756 0.31039 0.0
H1970 H 0.12826 0.61924 0.34564 0.0
H1971 H 0.13504 0.64701 0.39137 0.0
H1972 H 0.20248 0.65385 0.44622 0.0
H1973 H 0.22144 0.6339 0.40612 0.0
C1974 C 0.19625 0.60918 0.35475 0.0
C1975 C 0.1796 0.59522 0.3306 0.0
C1976 C 0.18791 0.62597 0.37647 0.0
C1977 C 0.15496 0.59861 0.32823 0.0
C1978 C 0.1473 0.61683 0.34842 0.0
C1979 C 0.15429 0.64526 0.39438 0.0
C1980 C 0.1675 0.65217 0.42138 0.0
C1981 C 0.16345 0.63028 0.37266 0.0
C1982 C 0.19217 0.64907 0.42531 0.0
C1983 C 0.2027 0.637 0.40258 0.0
H1984 H 0.85514 0.8332 0.61323 0.0
H1985 H 0.84782 0.91831 0.64334 0.0
H1986 H 0.83737 0.90487 0.68823 0.0
H1987 H 0.82793 0.86737 0.71812 0.0
H1988 H 0.83539 0.78276 0.68587 0.0
H1989 H 0.84773 0.79744 0.64285 0.0
C1990 C 0.85147 0.849 0.62961 0.0
C1991 C 0.85237 0.87677 0.6247 0.0
C1992 C 0.84534 0.84109 0.6552 0.0
C1993 C 0.84717 0.8967 0.64629 0.0
C1994 C 0.84125 0.88902 0.67208 0.0
C1995 C 0.83312 0.85251 0.70217 0.0
C1996 C 0.83121 0.82406 0.70575 0.0
C1997 C 0.8401 0.86112 0.67681 0.0
C1998 C 0.83694 0.80482 0.68401 0.0
C1999 C 0.84394 0.81315 0.65921 0.0
H2000 H 0.7721 0.48122 0.54342 0.0
H2001 H 0.82347 0.55585 0.53033 0.0
H2002 H 0.79477 0.58535 0.54592 0.0
H2003 H 0.75337 0.58878 0.55947 0.0
H2004 H 0.70224 0.51318 0.57055 0.0
H2005 H 0.73278 0.48491 0.55982 0.0
C2006 C 0.77711 0.50398 0.54406 0.0
C2007 C 0.7996 0.51643 0.53541 0.0
C2008 C 0.76062 0.52048 0.55277 0.0
C2009 C 0.80612 0.54592 0.53683 0.0
C2010 C 0.78973 0.56269 0.54567 0.0
C2011 C 0.74932 0.56624 0.56007 0.0
C2012 C 0.7259 0.55285 0.56579 0.0
C2013 C 0.76674 0.55009 0.55321 0.0
C2014 C 0.72034 0.52366 0.56622 0.0
C2015 C 0.73767 0.50757 0.55998 0.0
H2016 H 0.23271 0.15152 0.51814 0.0
H2017 H 0.19736 0.20721 0.47611 0.0
H2018 H 0.15667 0.17662 0.47631 0.0
H2019 H 0.13056 0.13388 0.4885 0.0
H2020 H 0.16529 0.07919 0.53227 0.0
H2021 H 0.20645 0.10921 0.5313 0.0
C2022 C 0.21614 0.15681 0.50876 0.0
C2023 C 0.21831 0.18169 0.49693 0.0
C2024 C 0.19251 0.13929 0.50942 0.0
C2025 C 0.19644 0.18829 0.48531 0.0
C2026 C 0.17305 0.17078 0.48544 0.0
C2027 C 0.14717 0.12876 0.498 0.0
C2028 C 0.14495 0.10455 0.51065 0.0
C2029 C 0.17078 0.1463 0.49754 0.0
C2030 C 0.16659 0.09792 0.52268 0.0
C2031 C 0.19012 0.11502 0.522 0.0
H2032 H 0.21274 0.93498 0.79099 0.0
H2033 H 0.27543 1.00244 0.78725 0.0
H2034 H 0.30226 0.96869 0.78414 0.0
H2035 H 0.30987 0.91909 0.78263 0.0
H2036 H 0.24746 0.85082 0.78477 0.0
H2037 H 0.22028 0.88454 0.78819 0.0
C2038 C 0.23223 0.94266 0.78944 0.0
C2039 C 0.24115 0.97275 0.78949 0.0
C2040 C 0.24843 0.92223 0.78731 0.0
C2041 C 0.26698 0.98044 0.78735 0.0
C2042 C 0.28278 0.96069 0.78555 0.0
C2043 C 0.29031 0.91115 0.78372 0.0
C2044 C 0.28161 0.88103 0.78327 0.0
C2045 C 0.27403 0.93133 0.78551 0.0
C2046 C 0.2557 0.87293 0.78485 0.0
C2047 C 0.23977 0.89268 0.78691 0.0
H2048 H 0.41762 0.99574 0.02682 0.0
H2049 H 0.41672 0.95878 0.94008 0.0
H2050 H 0.46146 0.97947 0.94313 0.0
H2051 H 0.50114 1.00606 0.97183 0.0
H2052 H 0.50128 0.03745 0.06009 0.0
H2053 H 0.45647 1.02065 0.05528 0.0
C2054 C 0.42716 0.99276 1.00842 0.0
C2055 C 0.41415 0.97646 0.98311 0.0
C2056 C 0.45275 1.0032 1.01085 0.0
C2057 C 0.42661 0.97173 0.95962 0.0
C2058 C 0.45209 0.98333 0.96146 0.0
C2059 C 0.49124 1.00899 0.9899 0.0
C2060 C 0.50434 1.0226 1.01625 0.0
C2061 C 0.46543 0.99868 0.98716 0.0
C2062 C 0.49155 1.02649 0.03967 0.0
C2063 C 0.46592 1.01717 0.03693 0.0
H2064 H 0.93987 0.63761 0.79031 0.0
H2065 H 0.88461 0.55861 0.77555 0.0
H2066 H 0.85478 0.5805 0.75242 0.0
H2067 H 0.84242 0.62365 0.74451 0.0
H2068 H 0.89634 0.70352 0.76203 0.0
H2069 H 0.92908 0.67956 0.77523 0.0
C2070 C 0.92142 0.62515 0.78164 0.0
C2071 C 0.91412 0.5969 0.78523 0.0
C2072 C 0.90423 0.63796 0.76882 0.0
C2073 C 0.89039 0.58068 0.77355 0.0
C2074 C 0.87336 0.59309 0.76021 0.0
C2075 C 0.86154 0.63556 0.75006 0.0
C2076 C 0.8671 0.6651 0.75277 0.0
C2077 C 0.8798 0.62195 0.75878 0.0
C2078 C 0.89181 0.68062 0.76017 0.0
C2079 C 0.9104 0.66702 0.76793 0.0
H2080 H 0.84552 0.65178 0.03574 0.0
H2081 H 0.8855 0.7244 1.00572 0.0
H2082 H 0.92385 0.70761 1.01176 0.0
H2083 H 0.9456 0.67118 0.02363 0.0
H2084 H 0.90517 0.59815 0.05268 0.0
H2085 H 0.8676 0.61655 0.04951 0.0
C2086 C 0.86264 0.664 0.03063 0.0
C2087 C 0.86261 0.68915 0.02009 0.0
C2088 C 0.88459 0.65422 0.0341 0.0
C2089 C 0.88499 0.70488 1.01377 0.0
C2090 C 0.90694 0.6953 1.0172 0.0
C2091 C 0.92857 0.65934 0.0293 0.0
C2092 C 0.92823 0.63335 0.03838 0.0
C2093 C 0.90688 0.66981 0.02702 0.0
C2094 C 0.90609 0.61842 0.04602 0.0
C2095 C 0.8845 0.62878 0.04397 0.0
H2096 H 0.26064 0.12435 0.78002 0.0
H2097 H 0.21305 0.16024 0.83342 0.0
H2098 H 0.23697 0.20787 0.8333 0.0
H2099 H 0.27212 0.24169 0.81817 0.0
H2100 H 0.32015 0.2058 0.7655 0.0
H2101 H 0.29602 0.15811 0.76527 0.0
C2102 C 0.25558 0.14239 0.79205 0.0
C2103 C 0.23447 0.13738 0.80695 0.0
C2104 C 0.2697 0.17091 0.7918 0.0
C2105 C 0.22879 0.16223 0.82169 0.0
C2106 C 0.24263 0.19007 0.8216 0.0
C2107 C 0.2772 0.22361 0.80624 0.0
C2108 C 0.29837 0.22852 0.79146 0.0
C2109 C 0.26313 0.19508 0.80656 0.0
C2110 C 0.30423 0.20373 0.77698 0.0
C2111 C 0.29031 0.17591 0.7769 0.0
H2112 H 0.43827 0.98504 0.36492 0.0
H2113 H 0.4729 0.96861 0.29028 0.0
H2114 H 0.43852 0.92789 0.27089 0.0
H2115 H 0.39672 0.90053 0.27357 0.0
H2116 H 0.36183 0.91844 0.34813 0.0
H2117 H 0.39792 0.95584 0.36889 0.0
C2118 C 0.43876 0.97156 0.34507 0.0
C2119 C 0.45813 0.979 0.32933 0.0
C2120 C 0.41844 0.94942 0.33356 0.0
C2121 C 0.45849 0.96234 0.30314 0.0
C2122 C 0.43853 0.93966 0.29175 0.0
C2123 C 0.39691 0.91273 0.2942 0.0
C2124 C 0.3766 0.90674 0.30914 0.0
C2125 C 0.418 0.93373 0.30638 0.0
C2126 C 0.37716 0.92279 0.33599 0.0
C2127 C 0.39791 0.94391 0.34811 0.0
H2128 H 0.60248 0.3934 0.57412 0.0
H2129 H 0.64813 0.44586 0.64784 0.0
H2130 H 0.64346 0.4887 0.62944 0.0
H2131 H 0.62465 0.51149 0.59316 0.0
H2132 H 0.57496 0.45859 0.52246 0.0
H2133 H 0.58286 0.41599 0.53867 0.0
C2134 C 0.61169 0.41422 0.58596 0.0
C2135 C 0.62602 0.41641 0.61214 0.0
C2136 C 0.60802 0.43879 0.57576 0.0
C2137 C 0.63721 0.44358 0.62756 0.0
C2138 C 0.63448 0.46809 0.61704 0.0
C2139 C 0.61585 0.49062 0.58115 0.0
C2140 C 0.59949 0.48829 0.55636 0.0
C2141 C 0.61974 0.46603 0.59126 0.0
C2142 C 0.58774 0.46104 0.54145 0.0
C2143 C 0.59223 0.43662 0.55076 0.0
H2144 H 0.43434 0.79329 0.42371 0.0
H2145 H 0.48885 0.79885 0.36566 0.0
H2146 H 0.45836 0.80643 0.32981 0.0
H2147 H 0.41728 0.814 0.31548 0.0
H2148 H 0.36143 0.80716 0.3716 0.0
H2149 H 0.39131 0.79733 0.40759 0.0
C2150 C 0.43949 0.79585 0.40311 0.0
C2151 C 0.46411 0.79554 0.3976 0.0
C2152 C 0.42165 0.8001 0.38228 0.0
C2153 C 0.47023 0.7988 0.37066 0.0
C2154 C 0.45277 0.80331 0.35011 0.0
C2155 C 0.41146 0.81024 0.33554 0.0
C2156 C 0.38708 0.81156 0.34088 0.0
C2157 C 0.4286 0.80439 0.35581 0.0
C2158 C 0.37995 0.80621 0.36687 0.0
C2159 C 0.39713 0.80072 0.38747 0.0
H2160 H 0.09647 0.75047 0.11248 0.0
H2161 H 0.1532 0.76597 0.05809 0.0
H2162 H 0.14693 0.71532 0.0412 0.0
H2163 H 0.12525 0.66594 0.04114 0.0
H2164 H 0.06665 0.65001 0.09276 0.0
H2165 H 0.07393 0.70086 0.11152 0.0
C2166 C 0.10749 0.74279 0.09698 0.0
C2167 C 0.12535 0.76238 0.08678 0.0
C2168 C 0.10358 0.71326 0.08685 0.0
C2169 C 0.13927 0.75173 0.06647 0.0
C2170 C 0.13577 0.72258 0.05674 0.0
C2171 C 0.11424 0.67363 0.05666 0.0
C2172 C 0.09556 0.65418 0.06567 0.0
C2173 C 0.11802 0.70308 0.06675 0.0
C2174 C 0.08113 0.66454 0.08544 0.0
C2175 C 0.08529 0.69366 0.09618 0.0
H2176 H 0.11771 0.28939 0.92192 0.0
H2177 H 0.07069 0.29536 0.84809 0.0
H2178 H 0.10648 0.30231 0.82227 0.0
H2179 H 0.15113 0.30745 0.82068 0.0
H2180 H 0.19846 0.29939 0.89328 0.0
H2181 H 0.1626 0.29184 0.91936 0.0
C2182 C 0.11535 0.29191 0.90009 0.0
C2183 C 0.09158 0.29169 0.88685 0.0
C2184 C 0.13603 0.29539 0.88512 0.0
C2185 C 0.08872 0.29502 0.8586 0.0
C2186 C 0.1092 0.29916 0.84386 0.0
C2187 C 0.15359 0.30404 0.84223 0.0
C2188 C 0.17743 0.30417 0.85509 0.0
C2189 C 0.13293 0.29949 0.85691 0.0
C2190 C 0.18027 0.29926 0.88286 0.0
C2191 C 0.15979 0.2951 0.89782 0.0
H2192 H 0.66837 0.81102 0.96914 0.0
H2193 H 0.60809 0.7878 0.90123 0.0
H2194 H 0.59257 0.743 0.91706 0.0
H2195 H 0.59227 0.71529 0.95558 0.0
H2196 H 0.65122 0.74114 0.02513 0.0
H2197 H 0.67163 0.77992 1.00325 0.0
C2198 C 0.65254 0.79544 0.95717 0.0
C2199 C 0.63943 0.8022 0.93414 0.0
C2200 C 0.64326 0.77062 0.96712 0.0
C2201 C 0.61866 0.78245 0.91877 0.0
C2202 C 0.60957 0.75717 0.92811 0.0
C2203 C 0.6098 0.72924 0.9655 0.0
C2204 C 0.62019 0.72618 0.99199 0.0
C2205 C 0.62105 0.75177 0.95309 0.0
C2206 C 0.64288 0.74388 1.00493 0.0
C2207 C 0.65453 0.76582 0.99241 0.0
H2208 H 0.0797 0.76699 0.71773 0.0
H2209 H 0.11327 0.83095 0.67231 0.0
H2210 H 0.15387 0.83448 0.69872 0.0
H2211 H 0.18029 0.8148 0.72971 0.0
H2212 H 0.14746 0.7469 0.77093 0.0
H2213 H 0.10592 0.75014 0.75197 0.0
C2214 C 0.09582 0.78215 0.71409 0.0
C2215 C 0.09365 0.79854 0.69301 0.0
C2216 C 0.11919 0.78324 0.72852 0.0
C2217 C 0.11464 0.81793 0.68827 0.0
C2218 C 0.1378 0.81994 0.70333 0.0
C2219 C 0.164 0.8009 0.73474 0.0
C2220 C 0.16686 0.78032 0.75123 0.0
C2221 C 0.14038 0.80195 0.7227 0.0
C2222 C 0.14569 0.76293 0.75828 0.0
C2223 C 0.12197 0.76458 0.74721 0.0
H2224 H 0.12005 0.44498 0.40123 0.0
H2225 H 0.19097 0.4655 0.45315 0.0
H2226 H 0.18076 0.50768 0.47897 0.0
H2227 H 0.14877 0.53224 0.49268 0.0
H2228 H 0.07536 0.5078 0.44583 0.0
H2229 H 0.08919 0.4737 0.41174 0.0
C2230 C 0.13349 0.45939 0.41753 0.0
C2231 C 0.15628 0.45271 0.42531 0.0
C2232 C 0.12674 0.48242 0.43342 0.0
C2233 C 0.17354 0.47084 0.4467 0.0
C2234 C 0.16756 0.49466 0.46161 0.0
C2235 C 0.13602 0.51997 0.47452 0.0
C2236 C 0.11113 0.52207 0.47173 0.0
C2237 C 0.14379 0.49974 0.45605 0.0
C2238 C 0.09466 0.5064 0.44822 0.0
C2239 C 0.10252 0.48679 0.42894 0.0
H2240 H 0.46029 0.24999 0.23134 0.0
H2241 H 0.44783 0.30383 0.1714 0.0
H2242 H 0.41399 0.31669 0.19497 0.0
H2243 H 0.3888 0.31365 0.23288 0.0
H2244 H 0.3961 0.25568 0.28964 0.0
H2245 H 0.43147 0.24325 0.2673 0.0
C2246 C 0.44976 0.26408 0.22332 0.0
C2247 C 0.45619 0.27585 0.19975 0.0
C2248 C 0.42979 0.27077 0.23649 0.0
C2249 C 0.44274 0.29419 0.1893 0.0
C2250 C 0.4236 0.30176 0.20285 0.0
C2251 C 0.39813 0.2982 0.24018 0.0
C2252 C 0.39042 0.28562 0.26267 0.0
C2253 C 0.41717 0.29036 0.2265 0.0
C2254 C 0.40218 0.26552 0.27223 0.0
C2255 C 0.42219 0.25847 0.25947 0.0
H2256 H 0.64665 0.57216 0.36496 0.0
H2257 H 0.69145 0.51489 0.38745 0.0
H2258 H 0.67189 0.51177 0.43036 0.0
H2259 H 0.64118 0.52441 0.46314 0.0
H2260 H 0.59979 0.58586 0.44394 0.0
H2261 H 0.61832 0.58801 0.40005 0.0
C2262 C 0.65235 0.55893 0.3791 0.0
C2263 C 0.67108 0.5435 0.37147 0.0
C2264 C 0.64129 0.55793 0.40531 0.0
C2265 C 0.67756 0.52711 0.39148 0.0
C2266 C 0.66613 0.52525 0.41653 0.0
C2267 C 0.63617 0.53856 0.44964 0.0
C2268 C 0.61843 0.55499 0.45814 0.0
C2269 C 0.64784 0.54045 0.424 0.0
C2270 C 0.61306 0.57296 0.43924 0.0
C2271 C 0.62381 0.57412 0.41358 0.0
H2272 H 0.32997 0.91966 0.08629 0.0
H2273 H 0.40528 0.96299 0.08338 0.0
H2274 H 0.41927 0.94733 0.1265 0.0
H2275 H 0.41102 0.91172 0.15735 0.0
H2276 H 0.33596 0.86472 0.15611 0.0
H2277 H 0.3206 0.89125 0.12242 0.0
C2278 C 0.3492 0.92664 0.096 0.0
C2279 C 0.3667 0.94221 0.08229 0.0
C2280 C 0.35713 0.91613 0.11947 0.0
C2281 C 0.39167 0.95104 0.09419 0.0
C2282 C 0.39965 0.94178 0.11849 0.0
C2283 C 0.39131 0.90803 0.15012 0.0
C2284 C 0.37459 0.88615 0.15822 0.0
C2285 C 0.38277 0.92279 0.13016 0.0
C2286 C 0.34902 0.88129 0.14933 0.0
C2287 C 0.34026 0.89643 0.13024 0.0
H2288 H 1.0175 0.62037 0.89277 0.0
H2289 H 0.96194 0.54852 0.90392 0.0
H2290 H 0.99028 0.53909 0.94118 0.0
H2291 H 0.03237 0.54763 0.96528 0.0
H2292 H 0.08692 0.6224 0.95873 0.0
H2293 H 0.05772 0.63387 0.92343 0.0
C2294 C 1.01138 0.60345 0.9043 0.0
C2295 C 0.98784 0.58533 0.89623 0.0
C2296 C 0.02778 0.59813 0.92539 0.0
C2297 C 0.97989 0.56305 0.91055 0.0
C2298 C 0.99621 0.55734 0.93133 0.0
C2299 C 0.03766 0.5669 0.95672 0.0
C2300 C 0.06148 0.58441 0.96466 0.0
C2301 C 1.02044 0.57415 0.93808 0.0
C2302 C 0.06854 0.6087 0.95277 0.0
C2303 C 0.05183 0.61536 0.93292 0.0
H2304 H 0.27256 0.26885 0.59886 0.0
H2305 H 0.34082 0.24102 0.5915 0.0
H2306 H 0.35334 0.25619 0.64238 0.0
H2307 H 0.34484 0.27784 0.68907 0.0
H2308 H 0.27514 0.30296 0.69592 0.0
H2309 H 0.26323 0.28819 0.64537 0.0
C2310 C 0.29015 0.26604 0.60843 0.0
C2311 C 0.30578 0.25394 0.59145 0.0
C2312 C 0.29698 0.27434 0.63768 0.0
C2313 C 0.32839 0.25011 0.60416 0.0
C2314 C 0.33559 0.25891 0.63323 0.0
C2315 C 0.3271 0.28022 0.6795 0.0
C2316 C 0.31107 0.29185 0.69645 0.0
C2317 C 0.32007 0.27118 0.65023 0.0
C2318 C 0.28799 0.29431 0.68358 0.0
C2319 C 0.28109 0.28583 0.65457 0.0
H2320 H 0.63995 0.5763 0.2187 0.0
H2321 H 0.67908 0.51095 0.19393 0.0
H2322 H 0.66229 0.50852 0.14427 0.0
H2323 H 0.63525 0.52517 0.1064 0.0
H2324 H 0.59805 0.59157 0.13503 0.0
H2325 H 0.61495 0.59279 0.18317 0.0
C2326 C 0.64512 0.56124 0.20282 0.0
C2327 C 0.66123 0.54373 0.21154 0.0
C2328 C 0.63534 0.56003 0.174 0.0
C2329 C 0.66709 0.52493 0.18919 0.0
C2330 C 0.65724 0.5235 0.16032 0.0
C2331 C 0.6307 0.53994 0.12306 0.0
C2332 C 0.61471 0.55834 0.11564 0.0
C2333 C 0.64111 0.54092 0.15215 0.0
C2334 C 0.60986 0.57709 0.13865 0.0
C2335 C 0.61969 0.57785 0.16679 0.0
H2336 H 0.3284 0.88367 0.95694 0.0
H2337 H 0.32495 0.95307 0.91262 0.0
H2338 H 0.32844 0.92298 0.86857 0.0
H2339 H 0.33187 0.87717 0.84328 0.0
H2340 H 0.33415 0.80744 0.88741 0.0
H2341 H 0.33316 0.83839 0.93193 0.0
C2342 C 0.32847 0.89232 0.93769 0.0
C2343 C 0.32639 0.92049 0.93788 0.0
C2344 C 0.33085 0.87517 0.91284 0.0
C2345 C 0.32635 0.93135 0.91282 0.0
C2346 C 0.32856 0.91428 0.88779 0.0
C2347 C 0.33237 0.86874 0.86266 0.0
C2348 C 0.33284 0.84006 0.86226 0.0
C2349 C 0.33086 0.88622 0.88767 0.0
C2350 C 0.33367 0.82945 0.88741 0.0
C2351 C 0.3329 0.84703 0.91268 0.0
H2352 H 0.02948 0.54071 0.76204 0.0
H2353 H 0.95018 0.52591 0.73859 0.0
H2354 H 0.95476 0.50707 0.69008 0.0
H2355 H 0.98193 0.4949 0.65441 0.0
H2356 H 0.06087 0.50943 0.68014 0.0
H2357 H 0.0557 0.52801 0.72793 0.0
C2358 C 1.01313 0.53334 0.74641 0.0
C2359 C 0.98962 0.53463 0.75383 0.0
C2360 C 1.0158 0.52218 0.71906 0.0
C2361 C 0.96861 0.52529 0.73325 0.0
C2362 C 0.97116 0.51435 0.7056 0.0
C2363 C 0.99777 0.50164 0.67075 0.0
C2364 C 1.02157 0.50007 0.6642 0.0
C2365 C 0.99472 0.51254 0.69833 0.0
C2366 C 0.04223 0.50948 0.68511 0.0
C2367 C 0.03939 0.52048 0.7123 0.0
H2368 H 0.31281 0.20946 0.41359 0.0
H2369 H 0.2876 0.27823 0.46041 0.0
H2370 H 0.29327 0.30482 0.42207 0.0
H2371 H 0.30849 0.3105 0.37701 0.0
H2372 H 0.33621 0.24392 0.33073 0.0
H2373 H 0.32625 0.21435 0.36658 0.0
C2374 C 0.30817 0.23006 0.41517 0.0
C2375 C 0.2997 0.24176 0.43997 0.0
C2376 C 0.31193 0.24562 0.39303 0.0
C2377 C 0.29415 0.26868 0.44173 0.0
C2378 C 0.29742 0.28396 0.41977 0.0
C2379 C 0.31176 0.28919 0.37445 0.0
C2380 C 0.32218 0.27889 0.35071 0.0
C2381 C 0.30669 0.27289 0.39558 0.0
C2382 C 0.32705 0.25167 0.34806 0.0
C2383 C 0.32177 0.23505 0.36889 0.0
H2384 H 0.3965 0.65328 0.54891 0.0
H2385 H 0.33711 0.578 0.52898 0.0
H2386 H 0.36691 0.54921 0.51596 0.0
H2387 H 0.40981 0.54599 0.50869 0.0
H2388 H 0.46877 0.62152 0.5296 0.0
H2389 H 0.43905 0.64997 0.54344 0.0
C2390 C 0.39008 0.63051 0.54199 0.0
C2391 C 0.36472 0.61768 0.53991 0.0
C2392 C 0.40717 0.61432 0.53437 0.0
C2393 C 0.35664 0.58822 0.531 0.0
C2394 C 0.3736 0.57185 0.52332 0.0
C2395 C 0.41595 0.5687 0.51617 0.0
C2396 C 0.44118 0.58185 0.51804 0.0
C2397 C 0.39886 0.58475 0.52457 0.0
C2398 C 0.4493 0.61115 0.52805 0.0
C2399 C 0.43239 0.62733 0.53599 0.0
H2400 H 0.9498 0.93269 0.52325 0.0
H2401 H 0.92362 0.98466 0.58882 0.0
H2402 H 0.96248 1.02083 0.59438 0.0
H2403 H 1.00409 0.03785 0.58025 0.0
H2404 H 0.02827 0.98696 0.51215 0.0
H2405 H 0.99025 0.95019 0.50814 0.0
C2406 C 0.95259 0.95188 0.53886 0.0
C2407 C 0.93383 0.95578 0.55576 0.0
C2408 C 0.97477 0.97277 0.54157 0.0
C2409 C 0.93768 0.98105 0.57552 0.0
C2410 C 0.95997 1.00172 0.57876 0.0
C2411 C 1.0011 1.01859 0.56471 0.0
C2412 C 1.01923 1.01497 0.54678 0.0
C2413 C 0.9787 0.99781 0.56192 0.0
C2414 C 1.0148 0.99015 0.52639 0.0
C2415 C 0.99299 0.96915 0.52401 0.0
H2416 H 0.948 0.19486 0.29138 0.0
H2417 H 0.88404 0.12523 0.26597 0.0
H2418 H 0.85688 0.15858 0.26714 0.0
H2419 H 0.84934 0.20851 0.27515 0.0
H2420 H 0.91291 0.27866 0.29912 0.0
H2421 H 0.94039 0.24538 0.29856 0.0
C2422 C 0.92815 0.18661 0.28596 0.0
C2423 C 0.919 0.15606 0.27844 0.0
C2424 C 0.91171 0.20676 0.28643 0.0
C2425 C 0.8927 0.14764 0.27175 0.0
C2426 C 0.8767 0.16715 0.27247 0.0
C2427 C 0.86919 0.21692 0.28041 0.0
C2428 C 0.87812 0.24745 0.28744 0.0
C2429 C 0.88567 0.19696 0.27977 0.0
C2430 C 0.90444 0.25619 0.29372 0.0
C2431 C 0.92058 0.2367 0.29338 0.0
H2432 H 0.74386 0.14131 0.07313 0.0
H2433 H 0.73439 0.14132 0.98401 0.0
H2434 H 0.68949 0.12403 0.98175 0.0
H2435 H 0.65325 0.11351 1.00582 0.0
H2436 H 0.66165 0.11525 0.09542 0.0
H2437 H 0.70692 0.12796 0.09706 0.0
C2438 C 0.73189 0.13659 0.05317 0.0
C2439 C 0.74205 0.14196 0.02866 0.0
C2440 C 0.70607 0.12802 0.05235 0.0
C2441 C 0.72668 0.13675 1.00294 0.0
C2442 C 0.7011 0.1273 1.00175 0.0
C2443 C 0.66483 0.11696 0.02582 0.0
C2444 C 0.65403 0.11407 0.05056 0.0
C2445 C 0.6906 0.12383 0.02649 0.0
C2446 C 0.6695 0.11787 0.07615 0.0
C2447 C 0.69535 0.12486 0.07705 0.0
H2448 H 0.22004 0.4958 0.28726 0.0
H2449 H 0.2572 0.53352 0.22354 0.0
H2450 H 0.2906 0.50879 0.23086 0.0
H2451 H 0.31063 0.47964 0.25797 0.0
H2452 H 0.27513 0.44463 0.32396 0.0
H2453 H 0.23955 0.46553 0.31354 0.0
C2454 C 0.23514 0.49795 0.27449 0.0
C2455 C 0.23626 0.51609 0.25478 0.0
C2456 C 0.2547 0.48479 0.27972 0.0
C2457 C 0.25605 0.51937 0.23871 0.0
C2458 C 0.27519 0.50551 0.24305 0.0
C2459 C 0.29503 0.47667 0.26996 0.0
C2460 C 0.2953 0.46109 0.29176 0.0
C2461 C 0.27498 0.4888 0.26398 0.0
C2462 C 0.27524 0.45713 0.30738 0.0
C2463 C 0.25491 0.46877 0.30126 0.0
H2464 H 0.27544 0.42052 0.0243 0.0
H2465 H 0.31382 0.48009 0.09804 0.0
H2466 H 0.27979 0.50486 0.09794 0.0
H2467 H 0.24031 0.51135 0.07527 0.0
H2468 H 0.20288 0.45328 1.00009 0.0
H2469 H 0.23541 0.42647 1.00211 0.0
C2470 C 0.27613 0.43865 0.04059 0.0
C2471 C 0.29702 0.44833 0.06131 0.0
C2472 C 0.25681 0.45332 0.0399 0.0
C2473 C 0.29791 0.4722 0.08193 0.0
C2474 C 0.27849 0.48642 0.08183 0.0
C2475 C 0.23906 0.49257 0.05958 0.0
C2476 C 0.21911 0.48433 0.03761 0.0
C2477 C 0.25801 0.47742 0.06069 0.0
C2478 C 0.2181 0.46024 1.01712 0.0
C2479 C 0.23666 0.44482 1.01832 0.0
H2480 H 0.94434 0.96526 0.27867 0.0
H2481 H 0.88967 1.01608 0.27432 0.0
H2482 H 0.85676 0.97401 0.27469 0.0
H2483 H 0.8427 0.92212 0.2767 0.0
H2484 H 0.89723 0.87132 0.2811 0.0
H2485 H 0.93021 0.91323 0.28001 0.0
C2486 C 0.92525 0.9674 0.27766 0.0
C2487 C 0.92014 0.99485 0.27636 0.0
C2488 C 0.90599 0.94258 0.27783 0.0
C2489 C 0.89485 0.99604 0.27517 0.0
C2490 C 0.87579 0.97165 0.27545 0.0
C2491 C 0.86178 0.91997 0.27732 0.0
C2492 C 0.86692 0.89261 0.27877 0.0
C2493 C 0.881 0.9447 0.27682 0.0
C2494 C 0.89212 0.89126 0.27969 0.0
C2495 C 0.91118 0.91559 0.27919 0.0
H2496 H 0.74547 0.13948 0.77899 0.0
H2497 H 0.68966 0.17526 0.73865 0.0
H2498 H 0.72164 0.21715 0.7356 0.0
H2499 H 0.76504 0.2438 0.74576 0.0
H2500 H 0.82003 0.20961 0.78914 0.0
H2501 H 0.78875 0.16589 0.7889 0.0
C2502 C 0.74028 0.1564 0.7694 0.0
C2503 C 0.71532 0.15437 0.75888 0.0
C2504 C 0.75862 0.18015 0.7678 0.0
C2505 C 0.70875 0.17656 0.74701 0.0
C2506 C 0.72702 0.20028 0.74504 0.0
C2507 C 0.77017 0.22628 0.75434 0.0
C2508 C 0.79464 0.229 0.76658 0.0
C2509 C 0.75195 0.20219 0.7553 0.0
C2510 C 0.80132 0.20713 0.77879 0.0
C2511 C 0.78342 0.18252 0.77901 0.0
loop_
_geom_bond_atom_site_label_1
_geom_bond_atom_site_label_2
_geom_bond_distance
_geom_bond_site_symmetry_2
_ccdc_geom_bond_type
Co0 O1 2.216 . S
Co0 O2 2.091 . S
Co0 O4 2.004 . S
Co0 O10 2.021 . S
Co0 O12 2.137 . S
Co0 O13 2.244 . S
O1 Co0 2.216 . S
O1 C8 1.247 . S
O2 Co0 2.091 . S
O2 C8 1.261 . S
C3 O12 1.247 . S
C3 O13 1.272 . S
O4 Co0 2.004 . S
O4 C9 1.259 . S
Co5 O6 2.061 . S
Co5 O11 2.052 . S
Co5 O13 2.135 . S
O6 Co5 2.061 . S
O6 C9 1.235 . S
C7 O10 1.238 . S
C7 O11 1.241 . S
C8 O1 1.247 . S
C8 O2 1.261 . S
C9 O4 1.259 . S
C9 O6 1.235 . S
O10 Co0 2.021 . S
O10 C7 1.238 . S
O11 Co5 2.052 . S
O11 C7 1.241 . S
O12 Co0 2.137 . S
O12 C3 1.247 . S
O13 Co0 2.244 . S
O13 C3 1.272 . S
O13 Co5 2.135 . S
Co14 O15 2.216 . S
Co14 O16 2.091 . S
Co14 O18 2.004 1_655 S
Co14 O24 2.021 . S
Co14 O26 2.130 . S
Co14 O27 2.244 1_655 S
O15 Co14 2.216 . S
O15 C22 1.247 . S
O16 Co14 2.091 . S
O16 C22 1.261 . S
C17 O26 1.231 1_455 S
C17 O27 1.272 . S
O18 Co14 2.004 1_455 S
O18 C23 1.259 . S
Co19 O20 2.061 . S
Co19 O25 2.052 . S
Co19 O27 2.135 . S
O20 Co19 2.061 . S
O20 C23 1.235 . S
C21 O24 1.238 . S
C21 O25 1.241 1_655 S
C22 O15 1.247 . S
C22 O16 1.261 . S
C23 O18 1.259 . S
C23 O20 1.235 . S
O24 Co14 2.021 . S
O24 C21 1.238 . S
O25 Co19 2.052 . S
O25 C21 1.241 1_455 S
O26 Co14 2.130 . S
O26 C17 1.231 1_655 S
O27 Co14 2.244 1_455 S
O27 C17 1.272 . S
O27 Co19 2.135 . S
Co28 O29 2.216 . S
Co28 O30 2.091 . S
Co28 O32 2.004 . S
Co28 O38 2.021 . S
Co28 O40 2.137 . S
Co28 O41 2.244 . S
O29 Co28 2.216 . S
O29 C36 1.247 . S
O30 Co28 2.091 . S
O30 C36 1.261 . S
C31 O40 1.247 . S
C31 O41 1.272 . S
O32 Co28 2.004 . S
O32 C37 1.259 . S
Co33 O34 2.061 . S
Co33 O39 2.052 . S
Co33 O41 2.135 . S
O34 Co33 2.061 . S
O34 C37 1.235 . S
C35 O38 1.238 . S
C35 O39 1.241 . S
C36 O29 1.247 . S
C36 O30 1.261 . S
C37 O32 1.259 . S
C37 O34 1.235 . S
O38 Co28 2.021 . S
O38 C35 1.238 . S
O39 Co33 2.052 . S
O39 C35 1.241 . S
O40 Co28 2.137 . S
O40 C31 1.247 . S
O41 Co28 2.244 . S
O41 C31 1.272 . S
O41 Co33 2.135 . S
Co42 O43 2.216 . S
Co42 O44 2.091 . S
Co42 O46 2.004 . S
Co42 O52 2.021 . S
Co42 O54 2.137 . S
Co42 O55 2.244 . S
O43 Co42 2.216 . S
O43 C50 1.247 . S
O44 Co42 2.091 . S
O44 C50 1.261 . S
C45 O54 1.247 . S
C45 O55 1.272 . S
O46 Co42 2.004 . S
O46 C51 1.259 . S
Co47 O48 2.061 . S
Co47 O53 2.052 . S
Co47 O55 2.135 . S
O48 Co47 2.061 . S
O48 C51 1.235 . S
C49 O52 1.238 . S
C49 O53 1.241 . S
C50 O43 1.247 . S
C50 O44 1.261 . S
C51 O46 1.259 . S
C51 O48 1.235 . S
O52 Co42 2.021 . S
O52 C49 1.238 . S
O53 Co47 2.052 . S
O53 C49 1.241 . S
O54 Co42 2.137 . S
O54 C45 1.247 . S
O55 Co42 2.244 . S
O55 C45 1.272 . S
O55 Co47 2.135 . S
Co56 O57 2.216 . S
Co56 O58 2.091 . S
Co56 O60 2.004 . S
Co56 O66 2.021 . S
Co56 O68 2.137 . S
Co56 O69 2.244 . S
O57 Co56 2.216 . S
O57 C64 1.247 . S
O58 Co56 2.091 . S
O58 C64 1.261 . S
C59 O68 1.247 . S
C59 O69 1.272 . S
O60 Co56 2.004 . S
O60 C65 1.259 . S
Co61 O62 2.061 . S
Co61 O67 2.052 . S
Co61 O69 2.135 . S
O62 Co61 2.061 . S
O62 C65 1.235 . S
C63 O66 1.238 . S
C63 O67 1.241 . S
C64 O57 1.247 . S
C64 O58 1.261 . S
C65 O60 1.259 . S
C65 O62 1.235 . S
O66 Co56 2.021 . S
O66 C63 1.238 . S
O67 Co61 2.052 . S
O67 C63 1.241 . S
O68 Co56 2.137 . S
O68 C59 1.247 . S
O69 Co56 2.244 . S
O69 C59 1.272 . S
O69 Co61 2.135 . S
Co70 O71 2.216 . S
Co70 O72 2.091 . S
Co70 O74 2.004 . S
Co70 O80 2.021 . S
Co70 O82 2.137 . S
Co70 O83 2.244 . S
O71 Co70 2.216 . S
O71 C78 1.247 . S
O72 Co70 2.091 . S
O72 C78 1.261 . S
C73 O82 1.247 . S
C73 O83 1.272 . S
O74 Co70 2.004 . S
O74 C79 1.259 . S
Co75 O76 2.061 . S
Co75 O81 2.052 . S
Co75 O83 2.135 . S
O76 Co75 2.061 . S
O76 C79 1.235 . S
C77 O80 1.238 . S
C77 O81 1.241 . S
C78 O71 1.247 . S
C78 O72 1.261 . S
C79 O74 1.259 . S
C79 O76 1.235 . S
O80 Co70 2.021 . S
O80 C77 1.238 . S
O81 Co75 2.052 . S
O81 C77 1.241 . S
O82 Co70 2.137 . S
O82 C73 1.247 . S
O83 Co70 2.244 . S
O83 C73 1.272 . S
O83 Co75 2.135 . S
Co84 O85 2.216 . S
Co84 O86 2.091 . S
Co84 O88 2.004 . S
Co84 O94 2.021 . S
Co84 O96 2.137 . S
Co84 O97 2.244 . S
O85 Co84 2.216 . S
O85 C92 1.247 . S
O86 Co84 2.091 . S
O86 C92 1.261 . S
C87 O96 1.247 . S
C87 O97 1.272 . S
O88 Co84 2.004 . S
O88 C93 1.259 . S
Co89 O90 2.061 . S
Co89 O95 2.052 . S
Co89 O97 2.135 . S
O90 Co89 2.061 . S
O90 C93 1.235 . S
C91 O94 1.238 . S
C91 O95 1.241 . S
C92 O85 1.247 . S
C92 O86 1.261 . S
C93 O88 1.259 . S
C93 O90 1.235 . S
O94 Co84 2.021 . S
O94 C91 1.238 . S
O95 Co89 2.052 . S
O95 C91 1.241 . S
O96 Co84 2.137 . S
O96 C87 1.247 . S
O97 Co84 2.244 . S
O97 C87 1.272 . S
O97 Co89 2.135 . S
Co98 O99 2.216 . S
Co98 O100 2.091 . S
Co98 O102 2.004 1_455 S
Co98 O108 2.021 . S
Co98 O110 2.137 . S
Co98 O111 2.244 . S
O99 Co98 2.216 . S
O99 C106 1.247 . S
O100 Co98 2.091 . S
O100 C106 1.261 . S
C101 O110 1.247 . S
C101 O111 1.272 . S
O102 Co98 2.004 1_655 S
O102 C107 1.259 . S
Co103 O104 2.061 . S
Co103 O109 2.052 1_655 S
Co103 O111 2.135 1_655 S
O104 Co103 2.061 . S
O104 C107 1.235 . S
C105 O108 1.238 . S
C105 O109 1.241 . S
C106 O99 1.247 . S
C106 O100 1.261 . S
C107 O102 1.259 . S
C107 O104 1.235 . S
O108 Co98 2.021 . S
O108 C105 1.238 . S
O109 Co103 2.052 1_455 S
O109 C105 1.241 . S
O110 Co98 2.137 . S
O110 C101 1.247 . S
O111 Co98 2.244 . S
O111 C101 1.272 . S
O111 Co103 2.135 1_455 S
Co112 O113 2.216 . S
Co112 O114 2.091 . S
Co112 O116 2.004 1_545 S
Co112 O122 2.021 1_545 S
Co112 O124 2.137 . S
Co112 O125 2.245 . S
O113 Co112 2.216 . S
O113 C120 1.247 . S
O114 Co112 2.091 . S
O114 C120 1.261 . S
C115 O124 1.247 . S
C115 O125 1.272 . S
O116 Co112 2.004 1_565 S
O116 C121 1.259 . S
Co117 O118 2.061 . S
Co117 O123 2.052 . S
Co117 O125 2.133 1_565 S
O118 Co117 2.061 . S
O118 C121 1.235 . S
C119 O122 1.244 . S
C119 O123 1.241 . S
C120 O113 1.247 . S
C120 O114 1.261 . S
C121 O116 1.259 . S
C121 O118 1.235 . S
O122 Co112 2.021 1_565 S
O122 C119 1.244 . S
O123 Co117 2.052 . S
O123 C119 1.241 . S
O124 Co112 2.137 . S
O124 C115 1.247 . S
O125 Co112 2.245 . S
O125 C115 1.272 . S
O125 Co117 2.133 1_545 S
Co126 O127 2.216 . S
Co126 O128 2.091 . S
Co126 O130 2.004 . S
Co126 O136 2.021 . S
Co126 O138 2.137 . S
Co126 O139 2.244 . S
O127 Co126 2.216 . S
O127 C134 1.247 . S
O128 Co126 2.091 . S
O128 C134 1.261 . S
C129 O138 1.247 . S
C129 O139 1.272 . S
O130 Co126 2.004 . S
O130 C135 1.259 . S
Co131 O132 2.061 . S
Co131 O137 2.052 . S
Co131 O139 2.135 . S
O132 Co131 2.061 . S
O132 C135 1.235 . S
C133 O136 1.238 . S
C133 O137 1.241 . S
C134 O127 1.247 . S
C134 O128 1.261 . S
C135 O130 1.259 . S
C135 O132 1.235 . S
O136 Co126 2.021 . S
O136 C133 1.238 . S
O137 Co131 2.052 . S
O137 C133 1.241 . S
O138 Co126 2.137 . S
O138 C129 1.247 . S
O139 Co126 2.244 . S
O139 C129 1.272 . S
O139 Co131 2.135 . S
Co140 O141 2.216 1_545 S
Co140 O142 2.091 1_545 S
Co140 O144 2.004 . S
Co140 O150 2.021 . S
Co140 O152 2.137 . S
Co140 O153 2.244 . S
O141 Co140 2.216 1_565 S
O141 C148 1.247 . S
O142 Co140 2.091 1_565 S
O142 C148 1.261 . S
C143 O152 1.247 . S
C143 O153 1.272 . S
O144 Co140 2.004 . S
O144 C149 1.259 . S
Co145 O146 2.061 . S
Co145 O151 2.052 . S
Co145 O153 2.135 . S
O146 Co145 2.061 . S
O146 C149 1.235 . S
C147 O150 1.238 . S
C147 O151 1.241 . S
C148 O141 1.247 . S
C148 O142 1.261 . S
C149 O144 1.259 . S
C149 O146 1.235 . S
O150 Co140 2.021 . S
O150 C147 1.238 . S
O151 Co145 2.052 . S
O151 C147 1.241 . S
O152 Co140 2.137 . S
O152 C143 1.247 . S
O153 Co140 2.244 . S
O153 C143 1.272 . S
O153 Co145 2.135 . S
Co154 O155 2.216 . S
Co154 O156 2.091 1_556 S
Co154 O158 2.004 1_556 S
Co154 O164 2.021 1_556 S
Co154 O166 2.137 . S
Co154 O167 2.244 . S
O155 Co154 2.216 . S
O155 C162 1.247 1_556 S
O156 Co154 2.091 1_554 S
O156 C162 1.261 . S
C157 O166 1.247 . S
C157 O167 1.272 . S
O158 Co154 2.004 1_554 S
O158 C163 1.259 . S
Co159 O160 2.061 1_556 S
Co159 O165 2.052 1_556 S
Co159 O167 2.135 . S
O160 Co159 2.061 1_554 S
O160 C163 1.235 . S
C161 O164 1.238 . S
C161 O165 1.241 . S
C162 O155 1.247 1_554 S
C162 O156 1.261 . S
C163 O158 1.259 . S
C163 O160 1.235 . S
O164 Co154 2.021 1_554 S
O164 C161 1.238 . S
O165 Co159 2.052 1_554 S
O165 C161 1.241 . S
O166 Co154 2.137 . S
O166 C157 1.247 . S
O167 Co154 2.244 . S
O167 C157 1.272 . S
O167 Co159 2.135 . S
Co168 O169 2.216 . S
Co168 O170 2.091 . S
Co168 O172 2.004 . S
Co168 O178 2.021 . S
Co168 O180 2.137 1_554 S
Co168 O181 2.244 1_554 S
O169 Co168 2.216 . S
O169 C176 1.247 . S
O170 Co168 2.091 . S
O170 C176 1.261 . S
C171 O180 1.247 . S
C171 O181 1.272 . S
O172 Co168 2.004 . S
O172 C177 1.259 . S
Co173 O174 2.061 . S
Co173 O179 2.052 . S
Co173 O181 2.135 1_554 S
O174 Co173 2.061 . S
O174 C177 1.235 . S
C175 O178 1.238 . S
C175 O179 1.241 . S
C176 O169 1.247 . S
C176 O170 1.261 . S
C177 O172 1.259 . S
C177 O174 1.235 . S
O178 Co168 2.021 . S
O178 C175 1.238 . S
O179 Co173 2.052 . S
O179 C175 1.241 . S
O180 Co168 2.137 1_556 S
O180 C171 1.247 . S
O181 Co168 2.244 1_556 S
O181 C171 1.272 . S
O181 Co173 2.135 1_556 S
Co182 O183 2.216 . S
Co182 O184 2.091 . S
Co182 O186 2.004 . S
Co182 O192 2.021 . S
Co182 O194 2.137 1_554 S
Co182 O195 2.244 . S
O183 Co182 2.216 . S
O183 C190 1.247 . S
O184 Co182 2.091 . S
O184 C190 1.261 . S
C185 O194 1.247 . S
C185 O195 1.272 1_556 S
O186 Co182 2.004 . S
O186 C191 1.259 . S
Co187 O188 2.061 . S
Co187 O193 2.052 . S
Co187 O195 2.135 . S
O188 Co187 2.061 . S
O188 C191 1.235 . S
C189 O192 1.238 . S
C189 O193 1.241 . S
C190 O183 1.247 . S
C190 O184 1.261 . S
C191 O186 1.259 . S
C191 O188 1.235 . S
O192 Co182 2.021 . S
O192 C189 1.238 . S
O193 Co187 2.052 . S
O193 C189 1.241 . S
O194 Co182 2.137 1_556 S
O194 C185 1.247 . S
O195 Co182 2.244 . S
O195 C185 1.272 1_554 S
O195 Co187 2.135 . S
Co196 O197 2.216 . S
Co196 O198 2.091 . S
Co196 O200 2.004 . S
Co196 O206 2.021 . S
Co196 O208 2.137 . S
Co196 O209 2.244 . S
O197 Co196 2.216 . S
O197 C204 1.247 . S
O198 Co196 2.091 . S
O198 C204 1.261 . S
C199 O208 1.247 . S
C199 O209 1.272 . S
O200 Co196 2.004 . S
O200 C205 1.259 . S
Co201 O202 2.061 . S
Co201 O207 2.052 . S
Co201 O209 2.135 . S
O202 Co201 2.061 . S
O202 C205 1.235 . S
C203 O206 1.238 . S
C203 O207 1.241 . S
C204 O197 1.247 . S
C204 O198 1.261 . S
C205 O200 1.259 . S
C205 O202 1.235 . S
O206 Co196 2.021 . S
O206 C203 1.238 . S
O207 Co201 2.052 . S
O207 C203 1.241 . S
O208 Co196 2.137 . S
O208 C199 1.247 . S
O209 Co196 2.244 . S
O209 C199 1.272 . S
O209 Co201 2.135 . S
Co210 O211 2.216 . S
Co210 O212 2.091 . S
Co210 O214 2.004 . S
Co210 O220 2.021 . S
Co210 O222 2.137 . S
Co210 O223 2.244 . S
O211 Co210 2.216 . S
O211 C218 1.247 . S
O212 Co210 2.091 . S
O212 C218 1.261 . S
C213 O222 1.247 . S
C213 O223 1.272 . S
O214 Co210 2.004 . S
O214 C219 1.259 . S
Co215 O216 2.061 . S
Co215 O221 2.052 . S
Co215 O223 2.135 . S
O216 Co215 2.061 . S
O216 C219 1.235 . S
C217 O220 1.238 . S
C217 O221 1.241 . S
C218 O211 1.247 . S
C218 O212 1.261 . S
C219 O214 1.259 . S
C219 O216 1.235 . S
O220 Co210 2.021 . S
O220 C217 1.238 . S
O221 Co215 2.052 . S
O221 C217 1.241 . S
O222 Co210 2.137 . S
O222 C213 1.247 . S
O223 Co210 2.244 . S
O223 C213 1.272 . S
O223 Co215 2.135 . S
Co224 O225 2.216 . S
Co224 O226 2.091 . S
Co224 O228 2.004 . S
Co224 O234 2.021 . S
Co224 O236 2.137 . S
Co224 O237 2.244 . S
O225 Co224 2.216 . S
O225 C232 1.247 . S
O226 Co224 2.091 . S
O226 C232 1.261 . S
C227 O236 1.247 . S
C227 O237 1.272 . S
O228 Co224 2.004 . S
O228 C233 1.259 . S
Co229 O230 2.061 . S
Co229 O235 2.052 . S
Co229 O237 2.135 . S
O230 Co229 2.061 . S
O230 C233 1.235 . S
C231 O234 1.238 . S
C231 O235 1.241 . S
C232 O225 1.247 . S
C232 O226 1.261 . S
C233 O228 1.259 . S
C233 O230 1.235 . S
O234 Co224 2.021 . S
O234 C231 1.238 . S
O235 Co229 2.052 . S
O235 C231 1.241 . S
O236 Co224 2.137 . S
O236 C227 1.247 . S
O237 Co224 2.244 . S
O237 C227 1.272 . S
O237 Co229 2.135 . S
Co238 O239 2.216 . S
Co238 O240 2.091 . S
Co238 O242 2.004 . S
Co238 O248 2.021 . S
Co238 O250 2.137 . S
Co238 O251 2.244 . S
O239 Co238 2.216 . S
O239 C246 1.247 . S
O240 Co238 2.091 . S
O240 C246 1.261 . S
C241 O250 1.247 . S
C241 O251 1.272 . S
O242 Co238 2.004 . S
O242 C247 1.259 . S
Co243 O244 2.061 . S
Co243 O249 2.052 . S
Co243 O251 2.135 . S
O244 Co243 2.061 . S
O244 C247 1.235 . S
C245 O248 1.238 . S
C245 O249 1.241 . S
C246 O239 1.247 . S
C246 O240 1.261 . S
C247 O242 1.259 . S
C247 O244 1.235 . S
O248 Co238 2.021 . S
O248 C245 1.238 . S
O249 Co243 2.052 . S
O249 C245 1.241 . S
O250 Co238 2.137 . S
O250 C241 1.247 . S
O251 Co238 2.244 . S
O251 C241 1.272 . S
O251 Co243 2.135 . S
Co252 O253 2.216 . S
Co252 O254 2.091 . S
Co252 O256 2.004 . S
Co252 O262 2.021 . S
Co252 O264 2.137 . S
Co252 O265 2.244 . S
O253 Co252 2.216 . S
O253 C260 1.247 . S
O254 Co252 2.091 . S
O254 C260 1.261 . S
C255 O264 1.247 . S
C255 O265 1.272 . S
O256 Co252 2.004 . S
O256 C261 1.259 . S
Co257 O258 2.061 . S
Co257 O263 2.052 . S
Co257 O265 2.135 . S
O258 Co257 2.061 . S
O258 C261 1.235 . S
C259 O262 1.238 . S
C259 O263 1.241 . S
C260 O253 1.247 . S
C260 O254 1.261 . S
C261 O256 1.259 . S
C261 O258 1.235 . S
O262 Co252 2.021 . S
O262 C259 1.238 . S
O263 Co257 2.052 . S
O263 C259 1.241 . S
O264 Co252 2.137 . S
O264 C255 1.247 . S
O265 Co252 2.244 . S
O265 C255 1.272 . S
O265 Co257 2.135 . S
Co266 O267 2.216 . S
Co266 O268 2.091 . S
Co266 O270 2.004 . S
Co266 O276 2.021 . S
Co266 O278 2.137 . S
Co266 O279 2.244 . S
O267 Co266 2.216 . S
O267 C274 1.247 . S
O268 Co266 2.091 . S
O268 C274 1.261 . S
C269 O278 1.247 . S
C269 O279 1.272 . S
O270 Co266 2.004 . S
O270 C275 1.259 . S
Co271 O272 2.061 . S
Co271 O277 2.052 . S
Co271 O279 2.135 . S
O272 Co271 2.061 . S
O272 C275 1.235 . S
C273 O276 1.238 . S
C273 O277 1.241 . S
C274 O267 1.247 . S
C274 O268 1.261 . S
C275 O270 1.259 . S
C275 O272 1.235 . S
O276 Co266 2.021 . S
O276 C273 1.238 . S
O277 Co271 2.052 . S
O277 C273 1.241 . S
O278 Co266 2.137 . S
O278 C269 1.247 . S
O279 Co266 2.244 . S
O279 C269 1.272 . S
O279 Co271 2.135 . S
Co280 O281 2.216 . S
Co280 O282 2.093 . S
Co280 O284 2.005 1_554 S
Co280 O290 2.033 . S
Co280 O292 2.125 1_554 S
Co280 O293 2.238 1_554 S
O281 Co280 2.216 . S
O281 C288 1.247 . S
O282 Co280 2.093 . S
O282 C288 1.261 . S
C283 O292 1.247 . S
C283 O293 1.272 . S
O284 Co280 2.005 1_556 S
O284 C289 1.259 . S
Co285 O286 2.061 . S
Co285 O291 2.052 . S
Co285 O293 2.135 1_554 S
O286 Co285 2.061 . S
O286 C289 1.235 1_554 S
C287 O290 1.238 . S
C287 O291 1.241 . S
C288 O281 1.247 . S
C288 O282 1.261 . S
C289 O284 1.259 . S
C289 O286 1.235 1_556 S
O290 Co280 2.033 . S
O290 C287 1.238 . S
O291 Co285 2.052 . S
O291 C287 1.241 . S
O292 Co280 2.125 1_556 S
O292 C283 1.247 . S
O293 Co280 2.238 1_556 S
O293 C283 1.272 . S
O293 Co285 2.135 1_556 S
Co294 O295 2.216 . S
Co294 O296 2.091 . S
Co294 O298 2.004 . S
Co294 O304 2.021 . S
Co294 O306 2.137 . S
Co294 O307 2.244 . S
O295 Co294 2.216 . S
O295 C302 1.247 . S
O296 Co294 2.091 . S
O296 C302 1.261 . S
C297 O306 1.247 . S
C297 O307 1.272 . S
O298 Co294 2.004 . S
O298 C303 1.259 . S
Co299 O300 2.061 . S
Co299 O305 2.052 . S
Co299 O307 2.135 . S
O300 Co299 2.061 . S
O300 C303 1.235 . S
C301 O304 1.238 . S
C301 O305 1.241 . S
C302 O295 1.247 . S
C302 O296 1.261 . S
C303 O298 1.259 . S
C303 O300 1.235 . S
O304 Co294 2.021 . S
O304 C301 1.238 . S
O305 Co299 2.052 . S
O305 C301 1.241 . S
O306 Co294 2.137 . S
O306 C297 1.247 . S
O307 Co294 2.244 . S
O307 C297 1.272 . S
O307 Co299 2.135 . S
Co308 O309 2.216 . S
Co308 O310 2.091 . S
Co308 O312 2.004 . S
Co308 O318 2.021 . S
Co308 O320 2.137 . S
Co308 O321 2.244 . S
O309 Co308 2.216 . S
O309 C316 1.247 . S
O310 Co308 2.091 . S
O310 C316 1.261 . S
C311 O320 1.247 . S
C311 O321 1.272 . S
O312 Co308 2.004 . S
O312 C317 1.259 . S
Co313 O314 2.061 . S
Co313 O319 2.052 . S
Co313 O321 2.135 . S
O314 Co313 2.061 . S
O314 C317 1.235 . S
C315 O318 1.238 . S
C315 O319 1.241 . S
C316 O309 1.247 . S
C316 O310 1.261 . S
C317 O312 1.259 . S
C317 O314 1.235 . S
O318 Co308 2.021 . S
O318 C315 1.238 . S
O319 Co313 2.052 . S
O319 C315 1.241 . S
O320 Co308 2.137 . S
O320 C311 1.247 . S
O321 Co308 2.244 . S
O321 C311 1.272 . S
O321 Co313 2.135 . S
Co322 O323 2.216 . S
Co322 O324 2.091 . S
Co322 O326 2.004 . S
Co322 O332 2.021 . S
Co322 O334 2.137 . S
Co322 O335 2.244 . S
O323 Co322 2.216 . S
O323 C330 1.247 . S
O324 Co322 2.091 . S
O324 C330 1.261 . S
C325 O334 1.247 . S
C325 O335 1.272 . S
O326 Co322 2.004 . S
O326 C331 1.259 . S
Co327 O328 2.061 . S
Co327 O333 2.052 . S
Co327 O335 2.135 . S
O328 Co327 2.061 . S
O328 C331 1.235 . S
C329 O332 1.238 . S
C329 O333 1.241 . S
C330 O323 1.247 . S
C330 O324 1.261 . S
C331 O326 1.259 . S
C331 O328 1.235 . S
O332 Co322 2.021 . S
O332 C329 1.238 . S
O333 Co327 2.052 . S
O333 C329 1.241 . S
O334 Co322 2.137 . S
O334 C325 1.247 . S
O335 Co322 2.244 . S
O335 C325 1.272 . S
O335 Co327 2.135 . S
Ho336 C339 2.815 1_455 S
Ho336 O356 2.332 . S
Ho336 O358 2.393 1_455 S
Ho336 O359 2.516 1_456 S
Ho336 O360 2.409 . S
Ho336 O361 2.679 . S
Ho336 O363 2.336 1_546 S
Ho336 O367 2.282 1_556 S
Ho337 C348 2.811 . S
Ho337 O357 2.346 . S
Ho337 O361 2.305 1_554 S
Ho337 O362 2.322 . S
Ho337 O364 2.378 . S
Ho337 O365 2.524 . S
Ho337 O366 2.381 . S
Ho337 O367 2.669 . S
C338 O356 1.259 1_554 S
C338 O357 1.268 . S
C339 Ho336 2.815 1_655 S
C339 C340 1.488 . S
C339 O358 1.215 . S
C339 O359 1.289 1_556 S
C340 C339 1.488 . S
C340 C341 1.348 1_556 S
C340 C345 1.413 . S
C341 C340 1.348 1_554 S
C341 C342 1.442 1_554 S
C341 H368 0.930 . S
C342 C341 1.442 1_556 S
C342 C343 1.381 . S
C342 H369 0.931 1_556 S
C343 C342 1.381 . S
C343 C344 1.321 . S
C344 C343 1.321 . S
C344 C345 1.403 . S
C344 H370 0.934 . S
C345 C340 1.413 . S
C345 C344 1.403 . S
C345 H371 0.930 . S
C346 O360 1.275 . S
C346 O361 1.256 . S
C347 O362 1.259 1_565 S
C347 O363 1.268 . S
C348 Ho337 2.811 . S
C348 C349 1.488 . S
C348 O364 1.215 . S
C348 O365 1.289 . S
C349 C348 1.488 . S
C349 C350 1.348 . S
C349 C354 1.413 . S
C350 C349 1.348 . S
C350 C351 1.444 . S
C350 H372 0.930 . S
C351 C350 1.444 . S
C351 C352 1.381 . S
C351 H373 0.928 1_545 S
C352 C351 1.381 . S
C352 C353 1.321 . S
C353 C352 1.321 . S
C353 C354 1.403 . S
C353 H374 0.934 . S
C354 C349 1.413 . S
C354 C353 1.403 . S
C354 H375 0.930 . S
C355 O366 1.275 . S
C355 O367 1.256 . S
O356 Ho336 2.332 . S
O356 C338 1.259 1_556 S
O357 Ho337 2.346 . S
O357 C338 1.268 . S
O358 Ho336 2.393 1_655 S
O358 C339 1.215 . S
O359 Ho336 2.516 1_654 S
O359 C339 1.289 1_554 S
O360 Ho336 2.409 . S
O360 C346 1.275 . S
O361 Ho336 2.679 . S
O361 Ho337 2.305 1_556 S
O361 C346 1.256 . S
O362 Ho337 2.322 . S
O362 C347 1.259 1_545 S
O363 Ho336 2.336 1_564 S
O363 C347 1.268 . S
O364 Ho337 2.378 . S
O364 C348 1.215 . S
O365 Ho337 2.524 . S
O365 C348 1.289 . S
O366 Ho337 2.381 . S
O366 C355 1.275 . S
O367 Ho336 2.282 1_554 S
O367 Ho337 2.669 . S
O367 C355 1.256 . S
H368 C341 0.930 . S
H369 C342 0.931 1_554 S
H370 C344 0.934 . S
H371 C345 0.930 . S
H372 C350 0.930 . S
H373 C351 0.928 1_565 S
H374 C353 0.934 . S
H375 C354 0.930 . S
Ho376 C379 2.811 . S
Ho376 O396 2.322 . S
Ho376 O398 2.378 . S
Ho376 O399 2.524 . S
Ho376 O400 2.381 . S
Ho376 O401 2.669 . S
Ho376 O403 2.346 . S
Ho376 O407 2.305 . S
Ho377 C388 2.811 . S
Ho377 O397 2.346 . S
Ho377 O401 2.305 . S
Ho377 O402 2.322 . S
Ho377 O404 2.378 . S
Ho377 O405 2.524 . S
Ho377 O406 2.381 . S
Ho377 O407 2.669 . S
C378 O396 1.259 . S
C378 O397 1.268 . S
C379 Ho376 2.811 . S
C379 C380 1.488 . S
C379 O398 1.215 . S
C379 O399 1.289 . S
C380 C379 1.488 . S
C380 C381 1.348 . S
C380 C385 1.413 . S
C381 C380 1.348 . S
C381 C382 1.442 . S
C381 H408 0.930 . S
C382 C381 1.442 . S
C382 C383 1.381 . S
C382 H409 0.931 . S
C383 C382 1.381 . S
C383 C384 1.321 . S
C384 C383 1.321 . S
C384 C385 1.403 . S
C384 H410 0.934 . S
C385 C380 1.413 . S
C385 C384 1.403 . S
C385 H411 0.930 . S
C386 O400 1.275 . S
C386 O401 1.256 . S
C387 O402 1.259 . S
C387 O403 1.268 . S
C388 Ho377 2.811 . S
C388 C389 1.488 . S
C388 O404 1.215 . S
C388 O405 1.289 . S
C389 C388 1.488 . S
C389 C390 1.348 . S
C389 C394 1.413 . S
C390 C389 1.348 . S
C390 C391 1.442 . S
C390 H412 0.930 . S
C391 C390 1.442 . S
C391 C392 1.381 . S
C391 H413 0.931 . S
C392 C391 1.381 . S
C392 C393 1.321 . S
C393 C392 1.321 . S
C393 C394 1.403 . S
C393 H414 0.934 . S
C394 C389 1.413 . S
C394 C393 1.403 . S
C394 H415 0.930 . S
C395 O406 1.275 . S
C395 O407 1.256 . S
O396 Ho376 2.322 . S
O396 C378 1.259 . S
O397 Ho377 2.346 . S
O397 C378 1.268 . S
O398 Ho376 2.378 . S
O398 C379 1.215 . S
O399 Ho376 2.524 . S
O399 C379 1.289 . S
O400 Ho376 2.381 . S
O400 C386 1.275 . S
O401 Ho376 2.669 . S
O401 Ho377 2.305 . S
O401 C386 1.256 . S
O402 Ho377 2.322 . S
O402 C387 1.259 . S
O403 Ho376 2.346 . S
O403 C387 1.268 . S
O404 Ho377 2.378 . S
O404 C388 1.215 . S
O405 Ho377 2.524 . S
O405 C388 1.289 . S
O406 Ho377 2.381 . S
O406 C395 1.275 . S
O407 Ho376 2.305 . S
O407 Ho377 2.669 . S
O407 C395 1.256 . S
H408 C381 0.930 . S
H409 C382 0.931 . S
H410 C384 0.934 . S
H411 C385 0.930 . S
H412 C390 0.930 . S
H413 C391 0.931 . S
H414 C393 0.934 . S
H415 C394 0.930 . S
Ho416 C419 2.811 . S
Ho416 O436 2.322 1_545 S
Ho416 O438 2.378 . S
Ho416 O439 2.524 . S
Ho416 O440 2.381 . S
Ho416 O441 2.669 . S
Ho416 O443 2.346 . S
Ho416 O447 2.305 . S
Ho417 C428 2.811 . S
Ho417 O437 2.346 1_545 S
Ho417 O441 2.305 . S
Ho417 O442 2.322 . S
Ho417 O444 2.378 . S
Ho417 O445 2.524 . S
Ho417 O446 2.381 . S
Ho417 O447 2.669 . S
C418 O436 1.259 . S
C418 O437 1.268 . S
C419 Ho416 2.811 . S
C419 C420 1.488 1_545 S
C419 O438 1.215 . S
C419 O439 1.289 . S
C420 C419 1.488 1_565 S
C420 C421 1.348 . S
C420 C425 1.413 . S
C421 C420 1.348 . S
C421 C422 1.442 . S
C421 H448 0.930 . S
C422 C421 1.442 . S
C422 C423 1.381 . S
C422 H449 0.931 . S
C423 C422 1.381 . S
C423 C424 1.321 . S
C424 C423 1.321 . S
C424 C425 1.403 . S
C424 H450 0.934 . S
C425 C420 1.413 . S
C425 C424 1.403 . S
C425 H451 0.930 . S
C426 O440 1.275 . S
C426 O441 1.256 . S
C427 O442 1.259 . S
C427 O443 1.268 . S
C428 Ho417 2.811 . S
C428 C429 1.488 . S
C428 O444 1.215 . S
C428 O445 1.289 . S
C429 C428 1.488 . S
C429 C430 1.348 . S
C429 C434 1.413 . S
C430 C429 1.348 . S
C430 C431 1.442 . S
C430 H452 0.930 . S
C431 C430 1.442 . S
C431 C432 1.381 . S
C431 H453 0.931 . S
C432 C431 1.381 . S
C432 C433 1.321 . S
C433 C432 1.321 . S
C433 C434 1.403 . S
C433 H454 0.934 . S
C434 C429 1.413 . S
C434 C433 1.403 . S
C434 H455 0.930 . S
C435 O446 1.275 . S
C435 O447 1.256 . S
O436 Ho416 2.322 1_565 S
O436 C418 1.259 . S
O437 Ho417 2.346 1_565 S
O437 C418 1.268 . S
O438 Ho416 2.378 . S
O438 C419 1.215 . S
O439 Ho416 2.524 . S
O439 C419 1.289 . S
O440 Ho416 2.381 . S
O440 C426 1.275 . S
O441 Ho416 2.669 . S
O441 Ho417 2.305 . S
O441 C426 1.256 . S
O442 Ho417 2.322 . S
O442 C427 1.259 . S
O443 Ho416 2.346 . S
O443 C427 1.268 . S
O444 Ho417 2.378 . S
O444 C428 1.215 . S
O445 Ho417 2.524 . S
O445 C428 1.289 . S
O446 Ho417 2.381 . S
O446 C435 1.275 . S
O447 Ho416 2.305 . S
O447 Ho417 2.669 . S
O447 C435 1.256 . S
H448 C421 0.930 . S
H449 C422 0.931 . S
H450 C424 0.934 . S
H451 C425 0.930 . S
H452 C430 0.930 . S
H453 C431 0.931 . S
H454 C433 0.934 . S
H455 C434 0.930 . S
Ho456 C459 2.811 . S
Ho456 O476 2.322 . S
Ho456 O478 2.378 . S
Ho456 O479 2.524 . S
Ho456 O480 2.381 . S
Ho456 O481 2.669 . S
Ho456 O483 2.346 . S
Ho456 O487 2.305 . S
Ho457 C468 2.811 . S
Ho457 O477 2.346 . S
Ho457 O481 2.305 . S
Ho457 O482 2.322 . S
Ho457 O484 2.378 . S
Ho457 O485 2.524 . S
Ho457 O486 2.381 . S
Ho457 O487 2.669 . S
C458 O476 1.259 . S
C458 O477 1.268 . S
C459 Ho456 2.811 . S
C459 C460 1.488 . S
C459 O478 1.215 . S
C459 O479 1.289 . S
C460 C459 1.488 . S
C460 C461 1.348 . S
C460 C465 1.413 . S
C461 C460 1.348 . S
C461 C462 1.442 . S
C461 H488 0.930 . S
C462 C461 1.442 . S
C462 C463 1.381 . S
C462 H489 0.931 . S
C463 C462 1.381 . S
C463 C464 1.321 . S
C464 C463 1.321 . S
C464 C465 1.403 . S
C464 H490 0.934 . S
C465 C460 1.413 . S
C465 C464 1.403 . S
C465 H491 0.930 . S
C466 O480 1.275 . S
C466 O481 1.256 . S
C467 O482 1.259 . S
C467 O483 1.268 . S
C468 Ho457 2.811 . S
C468 C469 1.488 . S
C468 O484 1.215 . S
C468 O485 1.289 . S
C469 C468 1.488 . S
C469 C470 1.348 . S
C469 C474 1.413 . S
C470 C469 1.348 . S
C470 C471 1.442 . S
C470 H492 0.930 . S
C471 C470 1.442 . S
C471 C472 1.381 . S
C471 H493 0.931 . S
C472 C471 1.381 . S
C472 C473 1.321 . S
C473 C472 1.321 . S
C473 C474 1.403 . S
C473 H494 0.934 . S
C474 C469 1.413 . S
C474 C473 1.403 . S
C474 H495 0.930 . S
C475 O486 1.275 . S
C475 O487 1.256 . S
O476 Ho456 2.322 . S
O476 C458 1.259 . S
O477 Ho457 2.346 . S
O477 C458 1.268 . S
O478 Ho456 2.378 . S
O478 C459 1.215 . S
O479 Ho456 2.524 . S
O479 C459 1.289 . S
O480 Ho456 2.381 . S
O480 C466 1.275 . S
O481 Ho456 2.669 . S
O481 Ho457 2.305 . S
O481 C466 1.256 . S
O482 Ho457 2.322 . S
O482 C467 1.259 . S
O483 Ho456 2.346 . S
O483 C467 1.268 . S
O484 Ho457 2.378 . S
O484 C468 1.215 . S
O485 Ho457 2.524 . S
O485 C468 1.289 . S
O486 Ho457 2.381 . S
O486 C475 1.275 . S
O487 Ho456 2.305 . S
O487 Ho457 2.669 . S
O487 C475 1.256 . S
H488 C461 0.930 . S
H489 C462 0.931 . S
H490 C464 0.934 . S
H491 C465 0.930 . S
H492 C470 0.930 . S
H493 C471 0.931 . S
H494 C473 0.934 . S
H495 C474 0.930 . S
Ho496 C499 2.811 . S
Ho496 O516 2.322 . S
Ho496 O518 2.378 . S
Ho496 O519 2.524 . S
Ho496 O520 2.381 . S
Ho496 O521 2.669 . S
Ho496 O523 2.346 . S
Ho496 O527 2.305 . S
Ho497 C508 2.811 1_545 S
Ho497 O517 2.346 . S
Ho497 O521 2.305 . S
Ho497 O522 2.322 . S
Ho497 O524 2.378 1_545 S
Ho497 O525 2.524 1_545 S
Ho497 O526 2.381 . S
Ho497 O527 2.669 . S
C498 O516 1.259 . S
C498 O517 1.268 . S
C499 Ho496 2.811 . S
C499 C500 1.488 . S
C499 O518 1.215 . S
C499 O519 1.289 . S
C500 C499 1.488 . S
C500 C501 1.348 . S
C500 C505 1.413 . S
C501 C500 1.348 . S
C501 C502 1.442 . S
C501 H528 0.930 . S
C502 C501 1.442 . S
C502 C503 1.381 . S
C502 H529 0.931 . S
C503 C502 1.381 . S
C503 C504 1.321 . S
C504 C503 1.321 . S
C504 C505 1.403 . S
C504 H530 0.934 . S
C505 C500 1.413 . S
C505 C504 1.403 . S
C505 H531 0.930 . S
C506 O520 1.275 . S
C506 O521 1.256 . S
C507 O522 1.259 . S
C507 O523 1.268 . S
C508 Ho497 2.811 1_565 S
C508 C509 1.488 . S
C508 O524 1.215 . S
C508 O525 1.289 . S
C509 C508 1.488 . S
C509 C510 1.348 . S
C509 C514 1.413 . S
C510 C509 1.348 . S
C510 C511 1.442 . S
C510 H532 0.930 . S
C511 C510 1.442 . S
C511 C512 1.381 . S
C511 H533 0.931 . S
C512 C511 1.381 . S
C512 C513 1.321 . S
C513 C512 1.321 . S
C513 C514 1.403 . S
C513 H534 0.934 . S
C514 C509 1.413 . S
C514 C513 1.403 . S
C514 H535 0.930 . S
C515 O526 1.275 . S
C515 O527 1.256 . S
O516 Ho496 2.322 . S
O516 C498 1.259 . S
O517 Ho497 2.346 . S
O517 C498 1.268 . S
O518 Ho496 2.378 . S
O518 C499 1.215 . S
O519 Ho496 2.524 . S
O519 C499 1.289 . S
O520 Ho496 2.381 . S
O520 C506 1.275 . S
O521 Ho496 2.669 . S
O521 Ho497 2.305 . S
O521 C506 1.256 . S
O522 Ho497 2.322 . S
O522 C507 1.259 . S
O523 Ho496 2.346 . S
O523 C507 1.268 . S
O524 Ho497 2.378 1_565 S
O524 C508 1.215 . S
O525 Ho497 2.524 1_565 S
O525 C508 1.289 . S
O526 Ho497 2.381 . S
O526 C515 1.275 . S
O527 Ho496 2.305 . S
O527 Ho497 2.669 . S
O527 C515 1.256 . S
H528 C501 0.930 . S
H529 C502 0.931 . S
H530 C504 0.934 . S
H531 C505 0.930 . S
H532 C510 0.930 . S
H533 C511 0.931 . S
H534 C513 0.934 . S
H535 C514 0.930 . S
Ho536 C539 2.811 . S
Ho536 O556 2.322 . S
Ho536 O558 2.378 . S
Ho536 O559 2.524 . S
Ho536 O560 2.381 . S
Ho536 O561 2.669 . S
Ho536 O563 2.346 . S
Ho536 O567 2.305 . S
Ho537 C548 2.811 . S
Ho537 O557 2.346 . S
Ho537 O561 2.305 . S
Ho537 O562 2.322 . S
Ho537 O564 2.378 . S
Ho537 O565 2.524 . S
Ho537 O566 2.381 . S
Ho537 O567 2.669 . S
C538 O556 1.259 . S
C538 O557 1.268 . S
C539 Ho536 2.811 . S
C539 C540 1.488 . S
C539 O558 1.215 . S
C539 O559 1.289 . S
C540 C539 1.488 . S
C540 C541 1.348 . S
C540 C545 1.413 . S
C541 C540 1.348 . S
C541 C542 1.442 . S
C541 H568 0.930 . S
C542 C541 1.442 . S
C542 C543 1.381 . S
C542 H569 0.931 . S
C543 C542 1.381 . S
C543 C544 1.321 . S
C544 C543 1.321 . S
C544 C545 1.403 . S
C544 H570 0.934 . S
C545 C540 1.413 . S
C545 C544 1.403 . S
C545 H571 0.930 . S
C546 O560 1.275 . S
C546 O561 1.256 . S
C547 O562 1.259 . S
C547 O563 1.268 . S
C548 Ho537 2.811 . S
C548 C549 1.488 . S
C548 O564 1.215 . S
C548 O565 1.289 . S
C549 C548 1.488 . S
C549 C550 1.348 . S
C549 C554 1.413 . S
C550 C549 1.348 . S
C550 C551 1.442 . S
C550 H572 0.930 . S
C551 C550 1.442 . S
C551 C552 1.381 . S
C551 H573 0.931 . S
C552 C551 1.381 . S
C552 C553 1.321 . S
C553 C552 1.321 . S
C553 C554 1.403 . S
C553 H574 0.934 . S
C554 C549 1.413 . S
C554 C553 1.403 . S
C554 H575 0.930 . S
C555 O566 1.275 . S
C555 O567 1.256 . S
O556 Ho536 2.322 . S
O556 C538 1.259 . S
O557 Ho537 2.346 . S
O557 C538 1.268 . S
O558 Ho536 2.378 . S
O558 C539 1.215 . S
O559 Ho536 2.524 . S
O559 C539 1.289 . S
O560 Ho536 2.381 . S
O560 C546 1.275 . S
O561 Ho536 2.669 . S
O561 Ho537 2.305 . S
O561 C546 1.256 . S
O562 Ho537 2.322 . S
O562 C547 1.259 . S
O563 Ho536 2.346 . S
O563 C547 1.268 . S
O564 Ho537 2.378 . S
O564 C548 1.215 . S
O565 Ho537 2.524 . S
O565 C548 1.289 . S
O566 Ho537 2.381 . S
O566 C555 1.275 . S
O567 Ho536 2.305 . S
O567 Ho537 2.669 . S
O567 C555 1.256 . S
H568 C541 0.930 . S
H569 C542 0.931 . S
H570 C544 0.934 . S
H571 C545 0.930 . S
H572 C550 0.930 . S
H573 C551 0.931 . S
H574 C553 0.934 . S
H575 C554 0.930 . S
Ho576 C579 2.811 . S
Ho576 O596 2.322 . S
Ho576 O598 2.378 . S
Ho576 O599 2.524 . S
Ho576 O600 2.381 1_545 S
Ho576 O601 2.669 1_554 S
Ho576 O603 2.346 . S
Ho576 O607 2.305 . S
Ho577 C588 2.811 . S
Ho577 O597 2.346 . S
Ho577 O601 2.305 . S
Ho577 O602 2.328 . S
Ho577 O604 2.378 . S
Ho577 O605 2.524 . S
Ho577 O606 2.381 1_556 S
Ho577 O607 2.669 1_556 S
C578 O596 1.259 . S
C578 O597 1.268 1_554 S
C579 Ho576 2.811 . S
C579 C580 1.488 . S
C579 O598 1.215 . S
C579 O599 1.289 . S
C580 C579 1.488 . S
C580 C581 1.348 . S
C580 C585 1.413 1_545 S
C581 C580 1.348 . S
C581 C582 1.442 . S
C581 H608 0.930 . S
C582 C581 1.442 . S
C582 C583 1.381 1_545 S
C582 H609 0.931 . S
C583 C582 1.381 1_565 S
C583 C584 1.321 . S
C584 C583 1.321 . S
C584 C585 1.403 . S
C584 H610 0.934 . S
C585 C580 1.413 1_565 S
C585 C584 1.403 . S
C585 H611 0.930 . S
C586 O600 1.275 1_556 S
C586 O601 1.256 1_565 S
C587 O602 1.246 1_554 S
C587 O603 1.268 . S
C588 Ho577 2.811 . S
C588 C589 1.488 . S
C588 O604 1.215 . S
C588 O605 1.289 . S
C589 C588 1.488 . S
C589 C590 1.348 . S
C589 C594 1.413 . S
C590 C589 1.348 . S
C590 C591 1.442 . S
C590 H612 0.930 . S
C591 C590 1.442 . S
C591 C592 1.381 . S
C591 H613 0.931 . S
C592 C591 1.381 . S
C592 C593 1.321 . S
C593 C592 1.321 . S
C593 C594 1.403 . S
C593 H614 0.934 . S
C594 C589 1.413 . S
C594 C593 1.403 . S
C594 H615 0.930 . S
C595 O606 1.275 . S
C595 O607 1.256 . S
O596 Ho576 2.322 . S
O596 C578 1.259 . S
O597 Ho577 2.346 . S
O597 C578 1.268 1_556 S
O598 Ho576 2.378 . S
O598 C579 1.215 . S
O599 Ho576 2.524 . S
O599 C579 1.289 . S
O600 Ho576 2.381 1_565 S
O600 C586 1.275 1_554 S
O601 Ho576 2.669 1_556 S
O601 Ho577 2.305 . S
O601 C586 1.256 1_545 S
O602 Ho577 2.328 . S
O602 C587 1.246 1_556 S
O603 Ho576 2.346 . S
O603 C587 1.268 . S
O604 Ho577 2.378 . S
O604 C588 1.215 . S
O605 Ho577 2.524 . S
O605 C588 1.289 . S
O606 Ho577 2.381 1_554 S
O606 C595 1.275 . S
O607 Ho576 2.305 . S
O607 Ho577 2.669 1_554 S
O607 C595 1.256 . S
H608 C581 0.930 . S
H609 C582 0.931 . S
H610 C584 0.934 . S
H611 C585 0.930 . S
H612 C590 0.930 . S
H613 C591 0.931 . S
H614 C593 0.934 . S
H615 C594 0.930 . S
Ho616 C619 2.811 . S
Ho616 O636 2.322 . S
Ho616 O638 2.378 . S
Ho616 O639 2.524 . S
Ho616 O640 2.381 . S
Ho616 O641 2.669 . S
Ho616 O643 2.346 . S
Ho616 O647 2.305 . S
Ho617 C628 2.811 . S
Ho617 O637 2.346 . S
Ho617 O641 2.305 . S
Ho617 O642 2.322 . S
Ho617 O644 2.378 . S
Ho617 O645 2.524 . S
Ho617 O646 2.381 . S
Ho617 O647 2.669 . S
C618 O636 1.259 . S
C618 O637 1.268 . S
C619 Ho616 2.811 . S
C619 C620 1.488 . S
C619 O638 1.215 . S
C619 O639 1.289 . S
C620 C619 1.488 . S
C620 C621 1.348 . S
C620 C625 1.413 . S
C621 C620 1.348 . S
C621 C622 1.442 . S
C621 H648 0.930 . S
C622 C621 1.442 . S
C622 C623 1.381 . S
C622 H649 0.931 . S
C623 C622 1.381 . S
C623 C624 1.321 . S
C624 C623 1.321 . S
C624 C625 1.403 . S
C624 H650 0.934 . S
C625 C620 1.413 . S
C625 C624 1.403 . S
C625 H651 0.930 . S
C626 O640 1.275 . S
C626 O641 1.256 . S
C627 O642 1.259 . S
C627 O643 1.268 . S
C628 Ho617 2.811 . S
C628 C629 1.488 . S
C628 O644 1.215 . S
C628 O645 1.289 . S
C629 C628 1.488 . S
C629 C630 1.348 . S
C629 C634 1.413 . S
C630 C629 1.348 . S
C630 C631 1.442 . S
C630 H652 0.930 . S
C631 C630 1.442 . S
C631 C632 1.381 . S
C631 H653 0.931 . S
C632 C631 1.381 . S
C632 C633 1.321 . S
C633 C632 1.321 . S
C633 C634 1.403 . S
C633 H654 0.934 . S
C634 C629 1.413 . S
C634 C633 1.403 . S
C634 H655 0.930 . S
C635 O646 1.275 . S
C635 O647 1.256 . S
O636 Ho616 2.322 . S
O636 C618 1.259 . S
O637 Ho617 2.346 . S
O637 C618 1.268 . S
O638 Ho616 2.378 . S
O638 C619 1.215 . S
O639 Ho616 2.524 . S
O639 C619 1.289 . S
O640 Ho616 2.381 . S
O640 C626 1.275 . S
O641 Ho616 2.669 . S
O641 Ho617 2.305 . S
O641 C626 1.256 . S
O642 Ho617 2.322 . S
O642 C627 1.259 . S
O643 Ho616 2.346 . S
O643 C627 1.268 . S
O644 Ho617 2.378 . S
O644 C628 1.215 . S
O645 Ho617 2.524 . S
O645 C628 1.289 . S
O646 Ho617 2.381 . S
O646 C635 1.275 . S
O647 Ho616 2.305 . S
O647 Ho617 2.669 . S
O647 C635 1.256 . S
H648 C621 0.930 . S
H649 C622 0.931 . S
H650 C624 0.934 . S
H651 C625 0.930 . S
H652 C630 0.930 . S
H653 C631 0.931 . S
H654 C633 0.934 . S
H655 C634 0.930 . S
Ho656 C659 2.811 . S
Ho656 O676 2.322 1_554 S
Ho656 O678 2.378 . S
Ho656 O679 2.524 1_554 S
Ho656 O680 2.381 . S
Ho656 O681 2.669 . S
Ho656 O683 2.346 . S
Ho656 O687 2.305 . S
Ho657 C668 2.796 1_556 S
Ho657 O677 2.367 . S
Ho657 O681 2.295 1_556 S
Ho657 O682 2.299 1_556 S
Ho657 O684 2.370 1_556 S
Ho657 O685 2.505 1_556 S
Ho657 O686 2.387 . S
Ho657 O687 2.672 1_556 S
C658 O676 1.259 . S
C658 O677 1.268 . S
C659 Ho656 2.811 . S
C659 C660 1.488 1_554 S
C659 O678 1.215 . S
C659 O679 1.289 1_554 S
C660 C659 1.488 1_556 S
C660 C661 1.348 . S
C660 C665 1.413 . S
C661 C660 1.348 . S
C661 C662 1.442 . S
C661 H688 0.930 . S
C662 C661 1.442 . S
C662 C663 1.381 . S
C662 H689 0.931 . S
C663 C662 1.381 . S
C663 C664 1.321 . S
C664 C663 1.321 . S
C664 C665 1.403 . S
C664 H690 0.934 . S
C665 C660 1.413 . S
C665 C664 1.403 . S
C665 H691 0.958 . S
C666 O680 1.275 . S
C666 O681 1.256 . S
C667 O682 1.259 . S
C667 O683 1.268 . S
C668 Ho657 2.796 1_554 S
C668 C669 1.488 . S
C668 O684 1.215 . S
C668 O685 1.289 . S
C669 C668 1.488 . S
C669 C670 1.348 . S
C669 C674 1.413 . S
C670 C669 1.348 . S
C670 C671 1.442 . S
C670 H692 0.930 . S
C671 C670 1.442 . S
C671 C672 1.381 . S
C671 H693 0.931 . S
C672 C671 1.381 . S
C672 C673 1.321 . S
C673 C672 1.321 . S
C673 C674 1.403 . S
C673 H694 0.934 . S
C674 C669 1.413 . S
C674 C673 1.403 . S
C674 H695 0.930 . S
C675 O686 1.275 1_554 S
C675 O687 1.256 . S
O676 Ho656 2.322 1_556 S
O676 C658 1.259 . S
O677 Ho657 2.367 . S
O677 C658 1.268 . S
O678 Ho656 2.378 . S
O678 C659 1.215 . S
O679 Ho656 2.524 1_556 S
O679 C659 1.289 1_556 S
O680 Ho656 2.381 . S
O680 C666 1.275 . S
O681 Ho656 2.669 . S
O681 Ho657 2.295 1_554 S
O681 C666 1.256 . S
O682 Ho657 2.299 1_554 S
O682 C667 1.259 . S
O683 Ho656 2.346 . S
O683 C667 1.268 . S
O684 Ho657 2.370 1_554 S
O684 C668 1.215 . S
O685 Ho657 2.505 1_554 S
O685 C668 1.289 . S
O686 Ho657 2.387 . S
O686 C675 1.275 1_556 S
O687 Ho656 2.305 . S
O687 Ho657 2.672 1_554 S
O687 C675 1.256 . S
H688 C661 0.930 . S
H689 C662 0.931 . S
H690 C664 0.934 . S
H691 C665 0.958 . S
H692 C670 0.930 . S
H693 C671 0.931 . S
H694 C673 0.934 . S
H695 C674 0.930 . S
Ho696 C699 2.811 . S
Ho696 O716 2.322 . S
Ho696 O718 2.378 . S
Ho696 O719 2.524 . S
Ho696 O720 2.381 . S
Ho696 O721 2.669 . S
Ho696 O723 2.346 . S
Ho696 O727 2.305 . S
Ho697 C708 2.811 . S
Ho697 O717 2.346 . S
Ho697 O721 2.305 . S
Ho697 O722 2.322 . S
Ho697 O724 2.378 . S
Ho697 O725 2.524 . S
Ho697 O726 2.381 . S
Ho697 O727 2.669 . S
C698 O716 1.259 . S
C698 O717 1.268 . S
C699 Ho696 2.811 . S
C699 C700 1.488 . S
C699 O718 1.215 . S
C699 O719 1.289 . S
C700 C699 1.488 . S
C700 C701 1.348 . S
C700 C705 1.413 . S
C701 C700 1.348 . S
C701 C702 1.442 . S
C701 H728 0.930 . S
C702 C701 1.442 . S
C702 C703 1.381 . S
C702 H729 0.931 . S
C703 C702 1.381 . S
C703 C704 1.321 . S
C704 C703 1.321 . S
C704 C705 1.403 . S
C704 H730 0.934 . S
C705 C700 1.413 . S
C705 C704 1.403 . S
C705 H731 0.930 . S
C706 O720 1.275 . S
C706 O721 1.256 . S
C707 O722 1.259 . S
C707 O723 1.268 . S
C708 Ho697 2.811 . S
C708 C709 1.488 . S
C708 O724 1.215 . S
C708 O725 1.289 . S
C709 C708 1.488 . S
C709 C710 1.348 . S
C709 C714 1.413 . S
C710 C709 1.348 . S
C710 C711 1.442 . S
C710 H732 0.930 . S
C711 C710 1.442 . S
C711 C712 1.381 . S
C711 H733 0.931 . S
C712 C711 1.381 . S
C712 C713 1.321 . S
C713 C712 1.321 . S
C713 C714 1.403 . S
C713 H734 0.934 . S
C714 C709 1.413 . S
C714 C713 1.403 . S
C714 H735 0.930 . S
C715 O726 1.275 . S
C715 O727 1.256 . S
O716 Ho696 2.322 . S
O716 C698 1.259 . S
O717 Ho697 2.346 . S
O717 C698 1.268 . S
O718 Ho696 2.378 . S
O718 C699 1.215 . S
O719 Ho696 2.524 . S
O719 C699 1.289 . S
O720 Ho696 2.381 . S
O720 C706 1.275 . S
O721 Ho696 2.669 . S
O721 Ho697 2.305 . S
O721 C706 1.256 . S
O722 Ho697 2.322 . S
O722 C707 1.259 . S
O723 Ho696 2.346 . S
O723 C707 1.268 . S
O724 Ho697 2.378 . S
O724 C708 1.215 . S
O725 Ho697 2.524 . S
O725 C708 1.289 . S
O726 Ho697 2.381 . S
O726 C715 1.275 . S
O727 Ho696 2.305 . S
O727 Ho697 2.669 . S
O727 C715 1.256 . S
H728 C701 0.930 . S
H729 C702 0.931 . S
H730 C704 0.934 . S
H731 C705 0.930 . S
H732 C710 0.930 . S
H733 C711 0.931 . S
H734 C713 0.934 . S
H735 C714 0.930 . S
Ho736 C739 2.811 . S
Ho736 O756 2.322 . S
Ho736 O758 2.378 . S
Ho736 O759 2.524 . S
Ho736 O760 2.381 . S
Ho736 O761 2.669 . S
Ho736 O763 2.346 . S
Ho736 O767 2.305 . S
Ho737 C748 2.811 . S
Ho737 O757 2.346 . S
Ho737 O761 2.305 . S
Ho737 O762 2.322 . S
Ho737 O764 2.378 . S
Ho737 O765 2.524 . S
Ho737 O766 2.381 . S
Ho737 O767 2.669 . S
C738 O756 1.259 . S
C738 O757 1.268 . S
C739 Ho736 2.811 . S
C739 C740 1.488 . S
C739 O758 1.215 . S
C739 O759 1.289 . S
C740 C739 1.488 . S
C740 C741 1.308 1_455 S
C740 C745 1.413 . S
C741 C740 1.308 1_655 S
C741 C742 1.468 . S
C741 H768 0.945 . S
C742 C741 1.468 . S
C742 C743 1.381 . S
C742 H769 0.931 . S
C743 C742 1.381 . S
C743 C744 1.321 1_655 S
C744 C743 1.321 1_455 S
C744 C745 1.403 . S
C744 H770 0.934 . S
C745 C740 1.413 . S
C745 C744 1.403 . S
C745 H771 0.930 . S
C746 O760 1.275 . S
C746 O761 1.256 . S
C747 O762 1.259 . S
C747 O763 1.268 . S
C748 Ho737 2.811 . S
C748 C749 1.488 . S
C748 O764 1.215 . S
C748 O765 1.289 . S
C749 C748 1.488 . S
C749 C750 1.348 . S
C749 C754 1.413 . S
C750 C749 1.348 . S
C750 C751 1.442 . S
C750 H772 0.930 . S
C751 C750 1.442 . S
C751 C752 1.381 . S
C751 H773 0.931 . S
C752 C751 1.381 . S
C752 C753 1.321 . S
C753 C752 1.321 . S
C753 C754 1.403 . S
C753 H774 0.934 . S
C754 C749 1.413 . S
C754 C753 1.403 . S
C754 H775 0.930 . S
C755 O766 1.275 . S
C755 O767 1.256 . S
O756 Ho736 2.322 . S
O756 C738 1.259 . S
O757 Ho737 2.346 . S
O757 C738 1.268 . S
O758 Ho736 2.378 . S
O758 C739 1.215 . S
O759 Ho736 2.524 . S
O759 C739 1.289 . S
O760 Ho736 2.381 . S
O760 C746 1.275 . S
O761 Ho736 2.669 . S
O761 Ho737 2.305 . S
O761 C746 1.256 . S
O762 Ho737 2.322 . S
O762 C747 1.259 . S
O763 Ho736 2.346 . S
O763 C747 1.268 . S
O764 Ho737 2.378 . S
O764 C748 1.215 . S
O765 Ho737 2.524 . S
O765 C748 1.289 . S
O766 Ho737 2.381 . S
O766 C755 1.275 . S
O767 Ho736 2.305 . S
O767 Ho737 2.669 . S
O767 C755 1.256 . S
H768 C741 0.945 . S
H769 C742 0.931 . S
H770 C744 0.934 . S
H771 C745 0.930 . S
H772 C750 0.930 . S
H773 C751 0.931 . S
H774 C753 0.934 . S
H775 C754 0.930 . S
Ho776 C779 2.811 . S
Ho776 O796 2.322 . S
Ho776 O798 2.378 . S
Ho776 O799 2.524 . S
Ho776 O800 2.381 . S
Ho776 O801 2.669 . S
Ho776 O803 2.346 . S
Ho776 O807 2.305 . S
Ho777 C788 2.811 . S
Ho777 O797 2.346 . S
Ho777 O801 2.305 . S
Ho777 O802 2.322 . S
Ho777 O804 2.378 . S
Ho777 O805 2.524 . S
Ho777 O806 2.381 . S
Ho777 O807 2.669 . S
C778 O796 1.259 . S
C778 O797 1.268 . S
C779 Ho776 2.811 . S
C779 C780 1.488 . S
C779 O798 1.215 . S
C779 O799 1.289 . S
C780 C779 1.488 . S
C780 C781 1.348 . S
C780 C785 1.413 . S
C781 C780 1.348 . S
C781 C782 1.442 . S
C781 H808 0.930 . S
C782 C781 1.442 . S
C782 C783 1.381 . S
C782 H809 0.931 . S
C783 C782 1.381 . S
C783 C784 1.321 . S
C784 C783 1.321 . S
C784 C785 1.403 . S
C784 H810 0.934 . S
C785 C780 1.413 . S
C785 C784 1.403 . S
C785 H811 0.930 . S
C786 O800 1.275 . S
C786 O801 1.256 . S
C787 O802 1.259 . S
C787 O803 1.268 . S
C788 Ho777 2.811 . S
C788 C789 1.488 . S
C788 O804 1.215 . S
C788 O805 1.289 . S
C789 C788 1.488 . S
C789 C790 1.348 . S
C789 C794 1.413 . S
C790 C789 1.348 . S
C790 C791 1.442 . S
C790 H812 0.930 . S
C791 C790 1.442 . S
C791 C792 1.381 . S
C791 H813 0.931 . S
C792 C791 1.381 . S
C792 C793 1.321 . S
C793 C792 1.321 . S
C793 C794 1.403 . S
C793 H814 0.934 . S
C794 C789 1.413 . S
C794 C793 1.403 . S
C794 H815 0.930 . S
C795 O806 1.275 . S
C795 O807 1.256 . S
O796 Ho776 2.322 . S
O796 C778 1.259 . S
O797 Ho777 2.346 . S
O797 C778 1.268 . S
O798 Ho776 2.378 . S
O798 C779 1.215 . S
O799 Ho776 2.524 . S
O799 C779 1.289 . S
O800 Ho776 2.381 . S
O800 C786 1.275 . S
O801 Ho776 2.669 . S
O801 Ho777 2.305 . S
O801 C786 1.256 . S
O802 Ho777 2.322 . S
O802 C787 1.259 . S
O803 Ho776 2.346 . S
O803 C787 1.268 . S
O804 Ho777 2.378 . S
O804 C788 1.215 . S
O805 Ho777 2.524 . S
O805 C788 1.289 . S
O806 Ho777 2.381 . S
O806 C795 1.275 . S
O807 Ho776 2.305 . S
O807 Ho777 2.669 . S
O807 C795 1.256 . S
H808 C781 0.930 . S
H809 C782 0.931 . S
H810 C784 0.934 . S
H811 C785 0.930 . S
H812 C790 0.930 . S
H813 C791 0.931 . S
H814 C793 0.934 . S
H815 C794 0.930 . S
Ho816 C819 2.811 . S
Ho816 O836 2.322 . S
Ho816 O838 2.378 . S
Ho816 O839 2.524 . S
Ho816 O840 2.381 . S
Ho816 O841 2.669 . S
Ho816 O843 2.346 . S
Ho816 O847 2.305 . S
Ho817 C828 2.811 . S
Ho817 O837 2.346 . S
Ho817 O841 2.305 . S
Ho817 O842 2.322 . S
Ho817 O844 2.378 . S
Ho817 O845 2.524 . S
Ho817 O846 2.381 . S
Ho817 O847 2.669 . S
C818 O836 1.259 . S
C818 O837 1.268 . S
C819 Ho816 2.811 . S
C819 C820 1.488 . S
C819 O838 1.215 . S
C819 O839 1.289 . S
C820 C819 1.488 . S
C820 C821 1.348 . S
C820 C825 1.413 . S
C821 C820 1.348 . S
C821 C822 1.442 . S
C821 H848 0.930 . S
C822 C821 1.442 . S
C822 C823 1.381 . S
C822 H849 0.931 . S
C823 C822 1.381 . S
C823 C824 1.321 . S
C824 C823 1.321 . S
C824 C825 1.403 . S
C824 H850 0.934 . S
C825 C820 1.413 . S
C825 C824 1.403 . S
C825 H851 0.930 . S
C826 O840 1.275 . S
C826 O841 1.256 . S
C827 O842 1.259 . S
C827 O843 1.268 . S
C828 Ho817 2.811 . S
C828 C829 1.488 . S
C828 O844 1.215 . S
C828 O845 1.289 . S
C829 C828 1.488 . S
C829 C830 1.348 . S
C829 C834 1.413 . S
C830 C829 1.348 . S
C830 C831 1.442 . S
C830 H852 0.930 . S
C831 C830 1.442 . S
C831 C832 1.381 . S
C831 H853 0.931 . S
C832 C831 1.381 . S
C832 C833 1.321 . S
C833 C832 1.321 . S
C833 C834 1.403 . S
C833 H854 0.934 . S
C834 C829 1.413 . S
C834 C833 1.403 . S
C834 H855 0.930 . S
C835 O846 1.275 . S
C835 O847 1.256 . S
O836 Ho816 2.322 . S
O836 C818 1.259 . S
O837 Ho817 2.346 . S
O837 C818 1.268 . S
O838 Ho816 2.378 . S
O838 C819 1.215 . S
O839 Ho816 2.524 . S
O839 C819 1.289 . S
O840 Ho816 2.381 . S
O840 C826 1.275 . S
O841 Ho816 2.669 . S
O841 Ho817 2.305 . S
O841 C826 1.256 . S
O842 Ho817 2.322 . S
O842 C827 1.259 . S
O843 Ho816 2.346 . S
O843 C827 1.268 . S
O844 Ho817 2.378 . S
O844 C828 1.215 . S
O845 Ho817 2.524 . S
O845 C828 1.289 . S
O846 Ho817 2.381 . S
O846 C835 1.275 . S
O847 Ho816 2.305 . S
O847 Ho817 2.669 . S
O847 C835 1.256 . S
H848 C821 0.930 . S
H849 C822 0.931 . S
H850 C824 0.934 . S
H851 C825 0.930 . S
H852 C830 0.930 . S
H853 C831 0.931 . S
H854 C833 0.934 . S
H855 C834 0.930 . S
Ho856 C859 2.811 . S
Ho856 O876 2.322 . S
Ho856 O878 2.378 . S
Ho856 O879 2.524 . S
Ho856 O880 2.381 . S
Ho856 O881 2.669 . S
Ho856 O883 2.346 . S
Ho856 O887 2.305 . S
Ho857 C868 2.811 . S
Ho857 O877 2.346 . S
Ho857 O881 2.305 . S
Ho857 O882 2.322 . S
Ho857 O884 2.378 . S
Ho857 O885 2.524 . S
Ho857 O886 2.381 . S
Ho857 O887 2.669 . S
C858 O876 1.259 . S
C858 O877 1.268 . S
C859 Ho856 2.811 . S
C859 C860 1.488 . S
C859 O878 1.215 . S
C859 O879 1.289 . S
C860 C859 1.488 . S
C860 C861 1.348 . S
C860 C865 1.413 . S
C861 C860 1.348 . S
C861 C862 1.442 . S
C861 H888 0.930 . S
C862 C861 1.442 . S
C862 C863 1.381 . S
C862 H889 0.931 . S
C863 C862 1.381 . S
C863 C864 1.321 . S
C864 C863 1.321 . S
C864 C865 1.403 . S
C864 H890 0.934 . S
C865 C860 1.413 . S
C865 C864 1.403 . S
C865 H891 0.930 . S
C866 O880 1.275 . S
C866 O881 1.256 . S
C867 O882 1.259 . S
C867 O883 1.268 . S
C868 Ho857 2.811 . S
C868 C869 1.488 . S
C868 O884 1.215 . S
C868 O885 1.289 . S
C869 C868 1.488 . S
C869 C870 1.348 . S
C869 C874 1.413 . S
C870 C869 1.348 . S
C870 C871 1.442 . S
C870 H892 0.930 . S
C871 C870 1.442 . S
C871 C872 1.381 . S
C871 H893 0.931 . S
C872 C871 1.381 . S
C872 C873 1.321 . S
C873 C872 1.321 . S
C873 C874 1.403 . S
C873 H894 0.934 . S
C874 C869 1.413 . S
C874 C873 1.403 . S
C874 H895 0.930 . S
C875 O886 1.275 . S
C875 O887 1.256 . S
O876 Ho856 2.322 . S
O876 C858 1.259 . S
O877 Ho857 2.346 . S
O877 C858 1.268 . S
O878 Ho856 2.378 . S
O878 C859 1.215 . S
O879 Ho856 2.524 . S
O879 C859 1.289 . S
O880 Ho856 2.381 . S
O880 C866 1.275 . S
O881 Ho856 2.669 . S
O881 Ho857 2.305 . S
O881 C866 1.256 . S
O882 Ho857 2.322 . S
O882 C867 1.259 . S
O883 Ho856 2.346 . S
O883 C867 1.268 . S
O884 Ho857 2.378 . S
O884 C868 1.215 . S
O885 Ho857 2.524 . S
O885 C868 1.289 . S
O886 Ho857 2.381 . S
O886 C875 1.275 . S
O887 Ho856 2.305 . S
O887 Ho857 2.669 . S
O887 C875 1.256 . S
H888 C861 0.930 . S
H889 C862 0.931 . S
H890 C864 0.934 . S
H891 C865 0.930 . S
H892 C870 0.930 . S
H893 C871 0.931 . S
H894 C873 0.934 . S
H895 C874 0.930 . S
Ho896 C899 2.811 . S
Ho896 O916 2.322 . S
Ho896 O918 2.378 . S
Ho896 O919 2.524 . S
Ho896 O920 2.381 . S
Ho896 O921 2.669 . S
Ho896 O923 2.346 . S
Ho896 O927 2.305 . S
Ho897 C908 2.811 . S
Ho897 O917 2.346 . S
Ho897 O921 2.305 . S
Ho897 O922 2.322 . S
Ho897 O924 2.378 . S
Ho897 O925 2.524 . S
Ho897 O926 2.381 . S
Ho897 O927 2.669 . S
C898 O916 1.259 . S
C898 O917 1.268 . S
C899 Ho896 2.811 . S
C899 C900 1.488 . S
C899 O918 1.215 . S
C899 O919 1.289 . S
C900 C899 1.488 . S
C900 C901 1.348 . S
C900 C905 1.413 . S
C901 C900 1.348 . S
C901 C902 1.442 . S
C901 H928 0.930 . S
C902 C901 1.442 . S
C902 C903 1.381 . S
C902 H929 0.931 . S
C903 C902 1.381 . S
C903 C904 1.321 . S
C904 C903 1.321 . S
C904 C905 1.403 . S
C904 H930 0.934 . S
C905 C900 1.413 . S
C905 C904 1.403 . S
C905 H931 0.930 . S
C906 O920 1.275 . S
C906 O921 1.256 . S
C907 O922 1.259 . S
C907 O923 1.268 . S
C908 Ho897 2.811 . S
C908 C909 1.488 . S
C908 O924 1.215 . S
C908 O925 1.289 . S
C909 C908 1.488 . S
C909 C910 1.348 . S
C909 C914 1.413 . S
C910 C909 1.348 . S
C910 C911 1.442 . S
C910 H932 0.930 . S
C911 C910 1.442 . S
C911 C912 1.381 . S
C911 H933 0.931 . S
C912 C911 1.381 . S
C912 C913 1.321 . S
C913 C912 1.321 . S
C913 C914 1.403 . S
C913 H934 0.934 . S
C914 C909 1.413 . S
C914 C913 1.403 . S
C914 H935 0.930 . S
C915 O926 1.275 . S
C915 O927 1.256 . S
O916 Ho896 2.322 . S
O916 C898 1.259 . S
O917 Ho897 2.346 . S
O917 C898 1.268 . S
O918 Ho896 2.378 . S
O918 C899 1.215 . S
O919 Ho896 2.524 . S
O919 C899 1.289 . S
O920 Ho896 2.381 . S
O920 C906 1.275 . S
O921 Ho896 2.669 . S
O921 Ho897 2.305 . S
O921 C906 1.256 . S
O922 Ho897 2.322 . S
O922 C907 1.259 . S
O923 Ho896 2.346 . S
O923 C907 1.268 . S
O924 Ho897 2.378 . S
O924 C908 1.215 . S
O925 Ho897 2.524 . S
O925 C908 1.289 . S
O926 Ho897 2.381 . S
O926 C915 1.275 . S
O927 Ho896 2.305 . S
O927 Ho897 2.669 . S
O927 C915 1.256 . S
H928 C901 0.930 . S
H929 C902 0.931 . S
H930 C904 0.934 . S
H931 C905 0.930 . S
H932 C910 0.930 . S
H933 C911 0.931 . S
H934 C913 0.934 . S
H935 C914 0.930 . S
Ho936 C939 2.811 1_554 S
Ho936 O956 2.322 1_554 S
Ho936 O958 2.378 1_554 S
Ho936 O959 2.524 . S
Ho936 O960 2.381 1_554 S
Ho936 O961 2.669 1_554 S
Ho936 O963 2.346 . S
Ho936 O967 2.305 . S
Ho937 C948 2.811 1_455 S
Ho937 O957 2.346 . S
Ho937 O961 2.305 1_554 S
Ho937 O962 2.322 . S
Ho937 O964 2.378 1_455 S
Ho937 O965 2.524 1_455 S
Ho937 O966 2.381 . S
Ho937 O967 2.669 . S
C938 O956 1.259 1_554 S
C938 O957 1.268 . S
C939 Ho936 2.811 1_556 S
C939 C940 1.488 . S
C939 O958 1.215 . S
C939 O959 1.289 1_556 S
C940 C939 1.488 . S
C940 C941 1.348 1_556 S
C940 C945 1.413 . S
C941 C940 1.348 1_554 S
C941 C942 1.442 . S
C941 H968 0.930 . S
C942 C941 1.442 . S
C942 C943 1.381 1_554 S
C942 H969 0.931 . S
C943 C942 1.381 1_556 S
C943 C944 1.321 . S
C944 C943 1.321 . S
C944 C945 1.403 . S
C944 H970 0.934 . S
C945 C940 1.413 . S
C945 C944 1.403 . S
C945 H971 0.930 . S
C946 O960 1.275 . S
C946 O961 1.256 . S
C947 O962 1.259 . S
C947 O963 1.268 . S
C948 Ho937 2.811 1_655 S
C948 C949 1.488 . S
C948 O964 1.215 . S
C948 O965 1.289 . S
C949 C948 1.488 . S
C949 C950 1.348 . S
C949 C954 1.413 . S
C950 C949 1.348 . S
C950 C951 1.442 . S
C950 H972 0.930 . S
C951 C950 1.442 . S
C951 C952 1.381 . S
C951 H973 0.931 . S
C952 C951 1.381 . S
C952 C953 1.321 . S
C953 C952 1.321 . S
C953 C954 1.403 . S
C953 H974 0.934 . S
C954 C949 1.413 . S
C954 C953 1.403 . S
C954 H975 0.930 . S
C955 O966 1.275 . S
C955 O967 1.256 . S
O956 Ho936 2.322 1_556 S
O956 C938 1.259 1_556 S
O957 Ho937 2.346 . S
O957 C938 1.268 . S
O958 Ho936 2.378 1_556 S
O958 C939 1.215 . S
O959 Ho936 2.524 . S
O959 C939 1.289 1_554 S
O960 Ho936 2.381 1_556 S
O960 C946 1.275 . S
O961 Ho936 2.669 1_556 S
O961 Ho937 2.305 1_556 S
O961 C946 1.256 . S
O962 Ho937 2.322 . S
O962 C947 1.259 . S
O963 Ho936 2.346 . S
O963 C947 1.268 . S
O964 Ho937 2.378 1_655 S
O964 C948 1.215 . S
O965 Ho937 2.524 1_655 S
O965 C948 1.289 . S
O966 Ho937 2.381 . S
O966 C955 1.275 . S
O967 Ho936 2.305 . S
O967 Ho937 2.669 . S
O967 C955 1.256 . S
H968 C941 0.930 . S
H969 C942 0.931 . S
H970 C944 0.934 . S
H971 C945 0.930 . S
H972 C950 0.930 . S
H973 C951 0.931 . S
H974 C953 0.934 . S
H975 C954 0.930 . S
H976 C982 0.930 1_655 S
H977 C985 0.930 . S
H978 C986 0.930 1_554 S
H979 C987 0.930 1_554 S
H980 C990 0.930 . S
H981 C991 0.930 1_655 S
C982 H976 0.930 1_455 S
C982 C983 1.355 . S
C982 C984 1.415 . S
C983 C982 1.355 . S
C983 C985 1.419 . S
C984 C982 1.415 . S
C984 C989 1.425 . S
C984 C991 1.409 . S
C985 H977 0.930 . S
C985 C983 1.419 . S
C985 C986 1.362 . S
C986 H978 0.930 1_556 S
C986 C985 1.362 . S
C986 C989 1.409 . S
C987 H979 0.930 1_556 S
C987 C988 1.355 . S
C987 C989 1.415 . S
C988 C987 1.355 . S
C988 C990 1.419 . S
C989 C984 1.425 . S
C989 C986 1.409 . S
C989 C987 1.415 . S
C990 H980 0.930 . S
C990 C988 1.419 . S
C990 C991 1.362 . S
C991 H981 0.930 1_455 S
C991 C984 1.409 . S
C991 C990 1.362 . S
H992 C998 0.930 . S
H993 C1001 0.930 . S
H994 C1002 0.930 . S
H995 C1003 0.930 . S
H996 C1006 0.930 . S
H997 C1007 0.930 . S
C998 H992 0.930 . S
C998 C999 1.355 . S
C998 C1000 1.415 . S
C999 C998 1.355 . S
C999 C1001 1.419 . S
C1000 C998 1.415 . S
C1000 C1005 1.425 . S
C1000 C1007 1.409 . S
C1001 H993 0.930 . S
C1001 C999 1.419 . S
C1001 C1002 1.362 . S
C1002 H994 0.930 . S
C1002 C1001 1.362 . S
C1002 C1005 1.409 . S
C1003 H995 0.930 . S
C1003 C1004 1.355 . S
C1003 C1005 1.415 . S
C1004 C1003 1.355 . S
C1004 C1006 1.419 . S
C1005 C1000 1.425 . S
C1005 C1002 1.409 . S
C1005 C1003 1.415 . S
C1006 H996 0.930 . S
C1006 C1004 1.419 . S
C1006 C1007 1.362 . S
C1007 H997 0.930 . S
C1007 C1000 1.409 . S
C1007 C1006 1.362 . S
H1008 C1014 0.930 . S
H1009 C1017 0.930 . S
H1010 C1018 0.930 . S
H1011 C1019 0.930 . S
H1012 C1022 0.930 . S
H1013 C1023 0.930 . S
C1014 H1008 0.930 . S
C1014 C1015 1.355 . S
C1014 C1016 1.415 . S
C1015 C1014 1.355 . S
C1015 C1017 1.419 . S
C1016 C1014 1.415 . S
C1016 C1021 1.425 . S
C1016 C1023 1.409 . S
C1017 H1009 0.930 . S
C1017 C1015 1.419 . S
C1017 C1018 1.362 . S
C1018 H1010 0.930 . S
C1018 C1017 1.362 . S
C1018 C1021 1.409 . S
C1019 H1011 0.930 . S
C1019 C1020 1.355 . S
C1019 C1021 1.415 . S
C1020 C1019 1.355 . S
C1020 C1022 1.419 . S
C1021 C1016 1.425 . S
C1021 C1018 1.409 . S
C1021 C1019 1.415 . S
C1022 H1012 0.930 . S
C1022 C1020 1.419 . S
C1022 C1023 1.362 . S
C1023 H1013 0.930 . S
C1023 C1016 1.409 . S
C1023 C1022 1.362 . S
H1024 C1030 0.930 . S
H1025 C1033 0.930 . S
H1026 C1034 0.930 . S
H1027 C1035 0.930 . S
H1028 C1038 0.930 . S
H1029 C1039 0.930 . S
C1030 H1024 0.930 . S
C1030 C1031 1.355 . S
C1030 C1032 1.415 . S
C1031 C1030 1.355 . S
C1031 C1033 1.419 . S
C1032 C1030 1.415 . S
C1032 C1037 1.425 . S
C1032 C1039 1.409 . S
C1033 H1025 0.930 . S
C1033 C1031 1.419 . S
C1033 C1034 1.362 . S
C1034 H1026 0.930 . S
C1034 C1033 1.362 . S
C1034 C1037 1.409 . S
C1035 H1027 0.930 . S
C1035 C1036 1.355 . S
C1035 C1037 1.415 . S
C1036 C1035 1.355 . S
C1036 C1038 1.419 . S
C1037 C1032 1.425 . S
C1037 C1034 1.409 . S
C1037 C1035 1.415 . S
C1038 H1028 0.930 . S
C1038 C1036 1.419 . S
C1038 C1039 1.362 . S
C1039 H1029 0.930 . S
C1039 C1032 1.409 . S
C1039 C1038 1.362 . S
H1040 C1046 0.926 1_655 S
H1041 C1049 0.930 . S
H1042 C1050 0.930 . S
H1043 C1051 0.930 . S
H1044 C1054 0.930 . S
H1045 C1055 0.930 . S
C1046 H1040 0.926 1_455 S
C1046 C1047 1.355 . S
C1046 C1048 1.415 . S
C1047 C1046 1.355 . S
C1047 C1049 1.419 . S
C1048 C1046 1.415 . S
C1048 C1053 1.425 . S
C1048 C1055 1.409 . S
C1049 H1041 0.930 . S
C1049 C1047 1.419 . S
C1049 C1050 1.362 . S
C1050 H1042 0.930 . S
C1050 C1049 1.362 . S
C1050 C1053 1.409 . S
C1051 H1043 0.930 . S
C1051 C1052 1.355 . S
C1051 C1053 1.415 . S
C1052 C1051 1.355 . S
C1052 C1054 1.419 . S
C1053 C1048 1.425 . S
C1053 C1050 1.409 . S
C1053 C1051 1.415 . S
C1054 H1044 0.930 . S
C1054 C1052 1.419 . S
C1054 C1055 1.362 . S
C1055 H1045 0.930 . S
C1055 C1048 1.409 . S
C1055 C1054 1.362 . S
H1056 C1062 0.930 . S
H1057 C1065 0.930 . S
H1058 C1066 0.930 . S
H1059 C1067 0.930 . S
H1060 C1070 0.930 . S
H1061 C1071 0.930 . S
C1062 H1056 0.930 . S
C1062 C1063 1.355 . S
C1062 C1064 1.415 . S
C1063 C1062 1.355 . S
C1063 C1065 1.419 . S
C1064 C1062 1.415 . S
C1064 C1069 1.425 . S
C1064 C1071 1.409 . S
C1065 H1057 0.930 . S
C1065 C1063 1.419 . S
C1065 C1066 1.362 . S
C1066 H1058 0.930 . S
C1066 C1065 1.362 . S
C1066 C1069 1.409 . S
C1067 H1059 0.930 . S
C1067 C1068 1.355 . S
C1067 C1069 1.415 . S
C1068 C1067 1.355 . S
C1068 C1070 1.419 . S
C1069 C1064 1.425 . S
C1069 C1066 1.409 . S
C1069 C1067 1.415 . S
C1070 H1060 0.930 . S
C1070 C1068 1.419 . S
C1070 C1071 1.362 . S
C1071 H1061 0.930 . S
C1071 C1064 1.409 . S
C1071 C1070 1.362 . S
H1072 C1078 0.930 . S
H1073 C1081 0.930 . S
H1074 C1082 0.930 . S
H1075 C1083 0.930 . S
H1076 C1086 0.930 . S
H1077 C1087 0.930 . S
C1078 H1072 0.930 . S
C1078 C1079 1.355 . S
C1078 C1080 1.415 . S
C1079 C1078 1.355 . S
C1079 C1081 1.419 . S
C1080 C1078 1.415 . S
C1080 C1085 1.425 . S
C1080 C1087 1.409 . S
C1081 H1073 0.930 . S
C1081 C1079 1.419 . S
C1081 C1082 1.362 . S
C1082 H1074 0.930 . S
C1082 C1081 1.362 . S
C1082 C1085 1.409 . S
C1083 H1075 0.930 . S
C1083 C1084 1.355 . S
C1083 C1085 1.415 . S
C1084 C1083 1.355 . S
C1084 C1086 1.419 . S
C1085 C1080 1.425 . S
C1085 C1082 1.409 . S
C1085 C1083 1.415 . S
C1086 H1076 0.930 . S
C1086 C1084 1.419 . S
C1086 C1087 1.362 . S
C1087 H1077 0.930 . S
C1087 C1080 1.409 . S
C1087 C1086 1.362 . S
H1088 C1094 0.930 . S
H1089 C1097 0.930 . S
H1090 C1098 0.930 . S
H1091 C1099 0.930 . S
H1092 C1102 0.930 . S
H1093 C1103 0.930 . S
C1094 H1088 0.930 . S
C1094 C1095 1.355 . S
C1094 C1096 1.415 . S
C1095 C1094 1.355 . S
C1095 C1097 1.419 . S
C1096 C1094 1.415 . S
C1096 C1101 1.425 . S
C1096 C1103 1.409 . S
C1097 H1089 0.930 . S
C1097 C1095 1.419 . S
C1097 C1098 1.362 . S
C1098 H1090 0.930 . S
C1098 C1097 1.362 . S
C1098 C1101 1.409 . S
C1099 H1091 0.930 . S
C1099 C1100 1.355 . S
C1099 C1101 1.415 . S
C1100 C1099 1.355 . S
C1100 C1102 1.419 . S
C1101 C1096 1.425 . S
C1101 C1098 1.409 . S
C1101 C1099 1.415 . S
C1102 H1092 0.930 . S
C1102 C1100 1.419 . S
C1102 C1103 1.362 . S
C1103 H1093 0.930 . S
C1103 C1096 1.409 . S
C1103 C1102 1.362 . S
H1104 C1110 0.930 . S
H1105 C1113 0.930 . S
H1106 C1114 0.930 . S
H1107 C1115 0.930 . S
H1108 C1118 0.930 . S
H1109 C1119 0.930 . S
C1110 H1104 0.930 . S
C1110 C1111 1.355 1_455 S
C1110 C1112 1.415 . S
C1111 C1110 1.355 1_655 S
C1111 C1113 1.419 . S
C1112 C1110 1.415 . S
C1112 C1117 1.444 . S
C1112 C1119 1.409 . S
C1113 H1105 0.930 . S
C1113 C1111 1.419 . S
C1113 C1114 1.362 . S
C1114 H1106 0.930 . S
C1114 C1113 1.362 . S
C1114 C1117 1.373 1_655 S
C1115 H1107 0.930 . S
C1115 C1116 1.355 . S
C1115 C1117 1.433 . S
C1116 C1115 1.355 . S
C1116 C1118 1.419 . S
C1117 C1112 1.444 . S
C1117 C1114 1.373 1_455 S
C1117 C1115 1.433 . S
C1118 H1108 0.930 . S
C1118 C1116 1.419 . S
C1118 C1119 1.362 . S
C1119 H1109 0.930 . S
C1119 C1112 1.409 . S
C1119 C1118 1.362 . S
H1120 C1126 0.930 . S
H1121 C1129 0.930 . S
H1122 C1130 0.930 . S
H1123 C1131 0.930 . S
H1124 C1134 0.930 . S
H1125 C1135 0.930 . S
C1126 H1120 0.930 . S
C1126 C1127 1.355 . S
C1126 C1128 1.415 . S
C1127 C1126 1.355 . S
C1127 C1129 1.419 . S
C1128 C1126 1.415 . S
C1128 C1133 1.425 . S
C1128 C1135 1.409 . S
C1129 H1121 0.930 . S
C1129 C1127 1.419 . S
C1129 C1130 1.362 . S
C1130 H1122 0.930 . S
C1130 C1129 1.362 . S
C1130 C1133 1.409 . S
C1131 H1123 0.930 . S
C1131 C1132 1.355 . S
C1131 C1133 1.415 . S
C1132 C1131 1.355 . S
C1132 C1134 1.419 . S
C1133 C1128 1.425 . S
C1133 C1130 1.409 . S
C1133 C1131 1.415 . S
C1134 H1124 0.930 . S
C1134 C1132 1.419 . S
C1134 C1135 1.362 . S
C1135 H1125 0.930 . S
C1135 C1128 1.409 . S
C1135 C1134 1.362 . S
H1136 C1142 0.930 . S
H1137 C1145 0.930 . S
H1138 C1146 0.930 . S
H1139 C1147 0.930 . S
H1140 C1150 0.930 . S
H1141 C1151 0.930 . S
C1142 H1136 0.930 . S
C1142 C1143 1.355 . S
C1142 C1144 1.415 . S
C1143 C1142 1.355 . S
C1143 C1145 1.419 . S
C1144 C1142 1.415 . S
C1144 C1149 1.425 . S
C1144 C1151 1.409 . S
C1145 H1137 0.930 . S
C1145 C1143 1.419 . S
C1145 C1146 1.362 . S
C1146 H1138 0.930 . S
C1146 C1145 1.362 . S
C1146 C1149 1.409 . S
C1147 H1139 0.930 . S
C1147 C1148 1.355 . S
C1147 C1149 1.415 . S
C1148 C1147 1.355 . S
C1148 C1150 1.419 . S
C1149 C1144 1.425 . S
C1149 C1146 1.409 . S
C1149 C1147 1.415 . S
C1150 H1140 0.930 . S
C1150 C1148 1.419 . S
C1150 C1151 1.362 . S
C1151 H1141 0.930 . S
C1151 C1144 1.409 . S
C1151 C1150 1.362 . S
H1152 C1158 0.930 . S
H1153 C1161 0.930 . S
H1154 C1162 0.930 . S
H1155 C1163 0.930 . S
H1156 C1166 0.930 . S
H1157 C1167 0.930 . S
C1158 H1152 0.930 . S
C1158 C1159 1.355 . S
C1158 C1160 1.415 . S
C1159 C1158 1.355 . S
C1159 C1161 1.419 . S
C1160 C1158 1.415 . S
C1160 C1165 1.425 . S
C1160 C1167 1.409 . S
C1161 H1153 0.930 . S
C1161 C1159 1.419 . S
C1161 C1162 1.362 . S
C1162 H1154 0.930 . S
C1162 C1161 1.362 . S
C1162 C1165 1.409 . S
C1163 H1155 0.930 . S
C1163 C1164 1.355 . S
C1163 C1165 1.415 . S
C1164 C1163 1.355 . S
C1164 C1166 1.419 . S
C1165 C1160 1.425 . S
C1165 C1162 1.409 . S
C1165 C1163 1.415 . S
C1166 H1156 0.930 . S
C1166 C1164 1.419 . S
C1166 C1167 1.362 . S
C1167 H1157 0.930 . S
C1167 C1160 1.409 . S
C1167 C1166 1.362 . S
H1168 C1174 0.930 . S
H1169 C1177 0.930 . S
H1170 C1178 0.929 . S
H1171 C1179 0.930 . S
H1172 C1182 0.930 . S
H1173 C1183 0.930 . S
C1174 H1168 0.930 . S
C1174 C1175 1.355 . S
C1174 C1176 1.415 1_655 S
C1175 C1174 1.355 . S
C1175 C1177 1.419 . S
C1176 C1174 1.415 1_455 S
C1176 C1181 1.425 . S
C1176 C1183 1.409 . S
C1177 H1169 0.930 . S
C1177 C1175 1.419 . S
C1177 C1178 1.362 . S
C1178 H1170 0.929 . S
C1178 C1177 1.362 . S
C1178 C1181 1.409 1_655 S
C1179 H1171 0.930 . S
C1179 C1180 1.355 . S
C1179 C1181 1.415 . S
C1180 C1179 1.355 . S
C1180 C1182 1.419 . S
C1181 C1176 1.425 . S
C1181 C1178 1.409 1_455 S
C1181 C1179 1.415 . S
C1182 H1172 0.930 . S
C1182 C1180 1.419 . S
C1182 C1183 1.362 . S
C1183 H1173 0.930 . S
C1183 C1176 1.409 . S
C1183 C1182 1.362 . S
H1184 C1190 0.930 . S
H1185 C1193 0.930 . S
H1186 C1194 0.930 . S
H1187 C1195 0.930 . S
H1188 C1198 0.930 . S
H1189 C1199 0.930 . S
C1190 H1184 0.930 . S
C1190 C1191 1.355 . S
C1190 C1192 1.415 . S
C1191 C1190 1.355 . S
C1191 C1193 1.419 . S
C1192 C1190 1.415 . S
C1192 C1197 1.425 . S
C1192 C1199 1.409 . S
C1193 H1185 0.930 . S
C1193 C1191 1.419 . S
C1193 C1194 1.362 . S
C1194 H1186 0.930 . S
C1194 C1193 1.362 . S
C1194 C1197 1.409 . S
C1195 H1187 0.930 . S
C1195 C1196 1.355 . S
C1195 C1197 1.415 . S
C1196 C1195 1.355 . S
C1196 C1198 1.419 . S
C1197 C1192 1.425 . S
C1197 C1194 1.409 . S
C1197 C1195 1.415 . S
C1198 H1188 0.930 . S
C1198 C1196 1.419 . S
C1198 C1199 1.362 . S
C1199 H1189 0.930 . S
C1199 C1192 1.409 . S
C1199 C1198 1.362 . S
H1200 C1206 0.930 . S
H1201 C1209 0.930 . S
H1202 C1210 0.930 . S
H1203 C1211 0.930 . S
H1204 C1214 0.930 . S
H1205 C1215 0.930 . S
C1206 H1200 0.930 . S
C1206 C1207 1.355 . S
C1206 C1208 1.415 . S
C1207 C1206 1.355 . S
C1207 C1209 1.419 . S
C1208 C1206 1.415 . S
C1208 C1213 1.425 . S
C1208 C1215 1.409 . S
C1209 H1201 0.930 . S
C1209 C1207 1.419 . S
C1209 C1210 1.362 . S
C1210 H1202 0.930 . S
C1210 C1209 1.362 . S
C1210 C1213 1.409 . S
C1211 H1203 0.930 . S
C1211 C1212 1.355 . S
C1211 C1213 1.415 . S
C1212 C1211 1.355 . S
C1212 C1214 1.419 . S
C1213 C1208 1.425 . S
C1213 C1210 1.409 . S
C1213 C1211 1.415 . S
C1214 H1204 0.930 . S
C1214 C1212 1.419 . S
C1214 C1215 1.362 . S
C1215 H1205 0.930 . S
C1215 C1208 1.409 . S
C1215 C1214 1.362 . S
H1216 C1222 0.930 . S
H1217 C1225 0.930 . S
H1218 C1226 0.930 . S
H1219 C1227 0.930 . S
H1220 C1230 0.930 . S
H1221 C1231 0.930 . S
C1222 H1216 0.930 . S
C1222 C1223 1.355 . S
C1222 C1224 1.415 . S
C1223 C1222 1.355 . S
C1223 C1225 1.419 . S
C1224 C1222 1.415 . S
C1224 C1229 1.425 . S
C1224 C1231 1.409 . S
C1225 H1217 0.930 . S
C1225 C1223 1.419 . S
C1225 C1226 1.362 . S
C1226 H1218 0.930 . S
C1226 C1225 1.362 . S
C1226 C1229 1.409 . S
C1227 H1219 0.930 . S
C1227 C1228 1.355 . S
C1227 C1229 1.415 . S
C1228 C1227 1.355 . S
C1228 C1230 1.419 . S
C1229 C1224 1.425 . S
C1229 C1226 1.409 . S
C1229 C1227 1.415 . S
C1230 H1220 0.930 . S
C1230 C1228 1.419 . S
C1230 C1231 1.362 . S
C1231 H1221 0.930 . S
C1231 C1224 1.409 . S
C1231 C1230 1.362 . S
H1232 C1238 0.930 1_556 S
H1233 C1241 0.930 . S
H1234 C1242 0.930 . S
H1235 C1243 0.930 1_545 S
H1236 C1246 0.930 . S
H1237 C1247 0.930 1_556 S
C1238 H1232 0.930 1_554 S
C1238 C1239 1.355 . S
C1238 C1240 1.415 . S
C1239 C1238 1.355 . S
C1239 C1241 1.419 . S
C1240 C1238 1.415 . S
C1240 C1245 1.425 . S
C1240 C1247 1.409 . S
C1241 H1233 0.930 . S
C1241 C1239 1.419 . S
C1241 C1242 1.362 . S
C1242 H1234 0.930 . S
C1242 C1241 1.362 . S
C1242 C1245 1.409 . S
C1243 H1235 0.930 1_565 S
C1243 C1244 1.355 . S
C1243 C1245 1.415 . S
C1244 C1243 1.355 . S
C1244 C1246 1.419 . S
C1245 C1240 1.425 . S
C1245 C1242 1.409 . S
C1245 C1243 1.415 . S
C1246 H1236 0.930 . S
C1246 C1244 1.419 . S
C1246 C1247 1.362 . S
C1247 H1237 0.930 1_554 S
C1247 C1240 1.409 . S
C1247 C1246 1.362 . S
H1248 C1254 0.930 . S
H1249 C1257 0.930 . S
H1250 C1258 0.930 . S
H1251 C1259 0.930 . S
H1252 C1262 0.930 . S
H1253 C1263 0.930 . S
C1254 H1248 0.930 . S
C1254 C1255 1.350 1_556 S
C1254 C1256 1.415 . S
C1255 C1254 1.350 1_554 S
C1255 C1257 1.427 . S
C1256 C1254 1.415 . S
C1256 C1261 1.425 1_556 S
C1256 C1263 1.409 . S
C1257 H1249 0.930 . S
C1257 C1255 1.427 . S
C1257 C1258 1.362 . S
C1258 H1250 0.930 . S
C1258 C1257 1.362 . S
C1258 C1261 1.409 . S
C1259 H1251 0.930 . S
C1259 C1260 1.346 1_554 S
C1259 C1261 1.415 . S
C1260 C1259 1.346 1_556 S
C1260 C1262 1.435 . S
C1261 C1256 1.425 1_554 S
C1261 C1258 1.409 . S
C1261 C1259 1.415 . S
C1262 H1252 0.930 . S
C1262 C1260 1.435 . S
C1262 C1263 1.362 . S
C1263 H1253 0.930 . S
C1263 C1256 1.409 . S
C1263 C1262 1.362 . S
H1264 C1270 0.930 . S
H1265 C1273 0.930 . S
H1266 C1274 0.930 . S
H1267 C1275 0.930 . S
H1268 C1278 0.930 . S
H1269 C1279 0.930 . S
C1270 H1264 0.930 . S
C1270 C1271 1.355 . S
C1270 C1272 1.415 . S
C1271 C1270 1.355 . S
C1271 C1273 1.419 . S
C1272 C1270 1.415 . S
C1272 C1277 1.425 . S
C1272 C1279 1.409 . S
C1273 H1265 0.930 . S
C1273 C1271 1.419 . S
C1273 C1274 1.362 . S
C1274 H1266 0.930 . S
C1274 C1273 1.362 . S
C1274 C1277 1.409 . S
C1275 H1267 0.930 . S
C1275 C1276 1.355 . S
C1275 C1277 1.415 . S
C1276 C1275 1.355 . S
C1276 C1278 1.419 . S
C1277 C1272 1.425 . S
C1277 C1274 1.409 . S
C1277 C1275 1.415 . S
C1278 H1268 0.930 . S
C1278 C1276 1.419 . S
C1278 C1279 1.362 . S
C1279 H1269 0.930 . S
C1279 C1272 1.409 . S
C1279 C1278 1.362 . S
H1280 C1286 0.930 . S
H1281 C1289 0.930 . S
H1282 C1290 0.930 . S
H1283 C1291 0.930 . S
H1284 C1294 0.930 . S
H1285 C1295 0.930 . S
C1286 H1280 0.930 . S
C1286 C1287 1.355 . S
C1286 C1288 1.415 . S
C1287 C1286 1.355 . S
C1287 C1289 1.419 . S
C1288 C1286 1.415 . S
C1288 C1293 1.425 . S
C1288 C1295 1.409 . S
C1289 H1281 0.930 . S
C1289 C1287 1.419 . S
C1289 C1290 1.362 . S
C1290 H1282 0.930 . S
C1290 C1289 1.362 . S
C1290 C1293 1.409 . S
C1291 H1283 0.930 . S
C1291 C1292 1.355 . S
C1291 C1293 1.415 . S
C1292 C1291 1.355 . S
C1292 C1294 1.419 . S
C1293 C1288 1.425 . S
C1293 C1290 1.409 . S
C1293 C1291 1.415 . S
C1294 H1284 0.930 . S
C1294 C1292 1.419 . S
C1294 C1295 1.362 . S
C1295 H1285 0.930 . S
C1295 C1288 1.409 . S
C1295 C1294 1.362 . S
H1296 C1302 0.930 . S
H1297 C1305 0.930 . S
H1298 C1306 0.930 . S
H1299 C1307 0.930 . S
H1300 C1310 0.930 . S
H1301 C1311 0.930 . S
C1302 H1296 0.930 . S
C1302 C1303 1.355 . S
C1302 C1304 1.415 . S
C1303 C1302 1.355 . S
C1303 C1305 1.419 . S
C1304 C1302 1.415 . S
C1304 C1309 1.425 . S
C1304 C1311 1.409 . S
C1305 H1297 0.930 . S
C1305 C1303 1.419 . S
C1305 C1306 1.362 . S
C1306 H1298 0.930 . S
C1306 C1305 1.362 . S
C1306 C1309 1.409 . S
C1307 H1299 0.930 . S
C1307 C1308 1.355 . S
C1307 C1309 1.415 . S
C1308 C1307 1.355 . S
C1308 C1310 1.419 . S
C1309 C1304 1.425 . S
C1309 C1306 1.409 . S
C1309 C1307 1.415 . S
C1310 H1300 0.930 . S
C1310 C1308 1.419 . S
C1310 C1311 1.362 . S
C1311 H1301 0.930 . S
C1311 C1304 1.409 . S
C1311 C1310 1.362 . S
H1312 C1318 0.930 . S
H1313 C1321 0.930 . S
H1314 C1322 0.930 . S
H1315 C1323 0.930 . S
H1316 C1326 0.930 . S
H1317 C1327 0.930 . S
C1318 H1312 0.930 . S
C1318 C1319 1.355 . S
C1318 C1320 1.415 . S
C1319 C1318 1.355 . S
C1319 C1321 1.419 . S
C1320 C1318 1.415 . S
C1320 C1325 1.425 . S
C1320 C1327 1.409 . S
C1321 H1313 0.930 . S
C1321 C1319 1.419 . S
C1321 C1322 1.362 . S
C1322 H1314 0.930 . S
C1322 C1321 1.362 . S
C1322 C1325 1.409 . S
C1323 H1315 0.930 . S
C1323 C1324 1.355 . S
C1323 C1325 1.415 . S
C1324 C1323 1.355 . S
C1324 C1326 1.419 . S
C1325 C1320 1.425 . S
C1325 C1322 1.409 . S
C1325 C1323 1.415 . S
C1326 H1316 0.930 . S
C1326 C1324 1.419 . S
C1326 C1327 1.362 . S
C1327 H1317 0.930 . S
C1327 C1320 1.409 . S
C1327 C1326 1.362 . S
H1328 C1334 0.930 . S
H1329 C1337 0.930 . S
H1330 C1338 0.930 . S
H1331 C1339 0.930 . S
H1332 C1342 0.930 . S
H1333 C1343 0.930 . S
C1334 H1328 0.930 . S
C1334 C1335 1.355 . S
C1334 C1336 1.415 . S
C1335 C1334 1.355 . S
C1335 C1337 1.419 . S
C1336 C1334 1.415 . S
C1336 C1341 1.425 . S
C1336 C1343 1.409 . S
C1337 H1329 0.930 . S
C1337 C1335 1.419 . S
C1337 C1338 1.362 . S
C1338 H1330 0.930 . S
C1338 C1337 1.362 . S
C1338 C1341 1.409 . S
C1339 H1331 0.930 . S
C1339 C1340 1.355 . S
C1339 C1341 1.415 . S
C1340 C1339 1.355 . S
C1340 C1342 1.419 . S
C1341 C1336 1.425 . S
C1341 C1338 1.409 . S
C1341 C1339 1.415 . S
C1342 H1332 0.930 . S
C1342 C1340 1.419 . S
C1342 C1343 1.362 . S
C1343 H1333 0.930 . S
C1343 C1336 1.409 . S
C1343 C1342 1.362 . S
H1344 C1350 0.930 . S
H1345 C1353 0.930 . S
H1346 C1354 0.930 . S
H1347 C1355 0.930 . S
H1348 C1358 0.930 . S
H1349 C1359 0.930 . S
C1350 H1344 0.930 . S
C1350 C1351 1.355 . S
C1350 C1352 1.415 . S
C1351 C1350 1.355 . S
C1351 C1353 1.419 . S
C1352 C1350 1.415 . S
C1352 C1357 1.425 . S
C1352 C1359 1.409 . S
C1353 H1345 0.930 . S
C1353 C1351 1.419 . S
C1353 C1354 1.362 . S
C1354 H1346 0.930 . S
C1354 C1353 1.362 . S
C1354 C1357 1.409 . S
C1355 H1347 0.930 . S
C1355 C1356 1.355 . S
C1355 C1357 1.415 . S
C1356 C1355 1.355 . S
C1356 C1358 1.419 . S
C1357 C1352 1.425 . S
C1357 C1354 1.409 . S
C1357 C1355 1.415 . S
C1358 H1348 0.930 . S
C1358 C1356 1.419 . S
C1358 C1359 1.362 . S
C1359 H1349 0.930 . S
C1359 C1352 1.409 . S
C1359 C1358 1.362 . S
H1360 C1366 0.930 . S
H1361 C1369 0.930 . S
H1362 C1370 0.930 . S
H1363 C1371 0.930 . S
H1364 C1374 0.930 1_556 S
H1365 C1375 0.926 1_556 S
C1366 H1360 0.930 . S
C1366 C1367 1.355 . S
C1366 C1368 1.415 . S
C1367 C1366 1.355 . S
C1367 C1369 1.419 . S
C1368 C1366 1.415 . S
C1368 C1373 1.425 . S
C1368 C1375 1.409 . S
C1369 H1361 0.930 . S
C1369 C1367 1.419 . S
C1369 C1370 1.362 . S
C1370 H1362 0.930 . S
C1370 C1369 1.362 . S
C1370 C1373 1.409 . S
C1371 H1363 0.930 . S
C1371 C1372 1.355 . S
C1371 C1373 1.415 . S
C1372 C1371 1.355 . S
C1372 C1374 1.419 . S
C1373 C1368 1.425 . S
C1373 C1370 1.409 . S
C1373 C1371 1.415 . S
C1374 H1364 0.930 1_554 S
C1374 C1372 1.419 . S
C1374 C1375 1.362 . S
C1375 H1365 0.926 1_554 S
C1375 C1368 1.409 . S
C1375 C1374 1.362 . S
H1376 C1382 0.930 . S
H1377 C1385 0.930 . S
H1378 C1386 0.930 . S
H1379 C1387 0.930 . S
H1380 C1390 0.930 . S
H1381 C1391 0.930 . S
C1382 H1376 0.930 . S
C1382 C1383 1.355 . S
C1382 C1384 1.415 . S
C1383 C1382 1.355 . S
C1383 C1385 1.419 . S
C1384 C1382 1.415 . S
C1384 C1389 1.425 . S
C1384 C1391 1.409 . S
C1385 H1377 0.930 . S
C1385 C1383 1.419 . S
C1385 C1386 1.362 . S
C1386 H1378 0.930 . S
C1386 C1385 1.362 . S
C1386 C1389 1.409 . S
C1387 H1379 0.930 . S
C1387 C1388 1.355 . S
C1387 C1389 1.415 . S
C1388 C1387 1.355 . S
C1388 C1390 1.419 . S
C1389 C1384 1.425 . S
C1389 C1386 1.409 . S
C1389 C1387 1.415 . S
C1390 H1380 0.930 . S
C1390 C1388 1.419 . S
C1390 C1391 1.362 . S
C1391 H1381 0.930 . S
C1391 C1384 1.409 . S
C1391 C1390 1.362 . S
H1392 C1398 0.930 . S
H1393 C1401 0.930 . S
H1394 C1402 0.930 . S
H1395 C1403 0.930 . S
H1396 C1406 0.930 . S
H1397 C1407 0.930 . S
C1398 H1392 0.930 . S
C1398 C1399 1.355 . S
C1398 C1400 1.415 . S
C1399 C1398 1.355 . S
C1399 C1401 1.419 . S
C1400 C1398 1.415 . S
C1400 C1405 1.425 . S
C1400 C1407 1.409 . S
C1401 H1393 0.930 . S
C1401 C1399 1.419 . S
C1401 C1402 1.362 . S
C1402 H1394 0.930 . S
C1402 C1401 1.362 . S
C1402 C1405 1.409 . S
C1403 H1395 0.930 . S
C1403 C1404 1.355 . S
C1403 C1405 1.415 . S
C1404 C1403 1.355 . S
C1404 C1406 1.419 . S
C1405 C1400 1.425 . S
C1405 C1402 1.409 . S
C1405 C1403 1.415 . S
C1406 H1396 0.930 . S
C1406 C1404 1.419 . S
C1406 C1407 1.362 . S
C1407 H1397 0.930 . S
C1407 C1400 1.409 . S
C1407 C1406 1.362 . S
H1408 C1414 0.930 . S
H1409 C1417 0.930 . S
H1410 C1418 0.930 . S
H1411 C1419 0.930 . S
H1412 C1422 0.930 . S
H1413 C1423 0.930 . S
C1414 H1408 0.930 . S
C1414 C1415 1.355 . S
C1414 C1416 1.415 . S
C1415 C1414 1.355 . S
C1415 C1417 1.419 . S
C1416 C1414 1.415 . S
C1416 C1421 1.425 . S
C1416 C1423 1.409 . S
C1417 H1409 0.930 . S
C1417 C1415 1.419 . S
C1417 C1418 1.362 . S
C1418 H1410 0.930 . S
C1418 C1417 1.362 . S
C1418 C1421 1.409 . S
C1419 H1411 0.930 . S
C1419 C1420 1.355 . S
C1419 C1421 1.415 . S
C1420 C1419 1.355 . S
C1420 C1422 1.419 . S
C1421 C1416 1.425 . S
C1421 C1418 1.409 . S
C1421 C1419 1.415 . S
C1422 H1412 0.930 . S
C1422 C1420 1.419 . S
C1422 C1423 1.362 . S
C1423 H1413 0.930 . S
C1423 C1416 1.409 . S
C1423 C1422 1.362 . S
H1424 C1430 0.930 . S
H1425 C1433 0.930 . S
H1426 C1434 0.930 . S
H1427 C1435 0.930 . S
H1428 C1438 0.930 . S
H1429 C1439 0.930 . S
C1430 H1424 0.930 . S
C1430 C1431 1.355 . S
C1430 C1432 1.415 . S
C1431 C1430 1.355 . S
C1431 C1433 1.419 . S
C1432 C1430 1.415 . S
C1432 C1437 1.425 . S
C1432 C1439 1.409 . S
C1433 H1425 0.930 . S
C1433 C1431 1.419 . S
C1433 C1434 1.362 . S
C1434 H1426 0.930 . S
C1434 C1433 1.362 . S
C1434 C1437 1.409 . S
C1435 H1427 0.930 . S
C1435 C1436 1.355 . S
C1435 C1437 1.415 . S
C1436 C1435 1.355 . S
C1436 C1438 1.419 . S
C1437 C1432 1.425 . S
C1437 C1434 1.409 . S
C1437 C1435 1.415 . S
C1438 H1428 0.930 . S
C1438 C1436 1.419 . S
C1438 C1439 1.362 . S
C1439 H1429 0.930 . S
C1439 C1432 1.409 . S
C1439 C1438 1.362 . S
H1440 C1446 0.930 . S
H1441 C1449 0.930 . S
H1442 C1450 0.930 . S
H1443 C1451 0.930 . S
H1444 C1454 0.930 . S
H1445 C1455 0.930 . S
C1446 H1440 0.930 . S
C1446 C1447 1.355 . S
C1446 C1448 1.415 . S
C1447 C1446 1.355 . S
C1447 C1449 1.419 . S
C1448 C1446 1.415 . S
C1448 C1453 1.425 . S
C1448 C1455 1.409 . S
C1449 H1441 0.930 . S
C1449 C1447 1.419 . S
C1449 C1450 1.362 . S
C1450 H1442 0.930 . S
C1450 C1449 1.362 . S
C1450 C1453 1.409 . S
C1451 H1443 0.930 . S
C1451 C1452 1.355 . S
C1451 C1453 1.415 . S
C1452 C1451 1.355 . S
C1452 C1454 1.419 . S
C1453 C1448 1.425 . S
C1453 C1450 1.409 . S
C1453 C1451 1.415 . S
C1454 H1444 0.930 . S
C1454 C1452 1.419 . S
C1454 C1455 1.362 . S
C1455 H1445 0.930 . S
C1455 C1448 1.409 . S
C1455 C1454 1.362 . S
H1456 C1462 0.930 . S
H1457 C1465 0.930 . S
H1458 C1466 0.930 . S
H1459 C1467 0.928 1_554 S
H1460 C1470 0.930 . S
H1461 C1471 0.930 . S
C1462 H1456 0.930 . S
C1462 C1463 1.355 . S
C1462 C1464 1.415 . S
C1463 C1462 1.355 . S
C1463 C1465 1.419 . S
C1464 C1462 1.415 . S
C1464 C1469 1.425 . S
C1464 C1471 1.409 . S
C1465 H1457 0.930 . S
C1465 C1463 1.419 . S
C1465 C1466 1.362 . S
C1466 H1458 0.930 . S
C1466 C1465 1.362 . S
C1466 C1469 1.409 . S
C1467 H1459 0.928 1_556 S
C1467 C1468 1.355 . S
C1467 C1469 1.415 . S
C1468 C1467 1.355 . S
C1468 C1470 1.419 . S
C1469 C1464 1.425 . S
C1469 C1466 1.409 . S
C1469 C1467 1.415 . S
C1470 H1460 0.930 . S
C1470 C1468 1.419 . S
C1470 C1471 1.362 . S
C1471 H1461 0.930 . S
C1471 C1464 1.409 . S
C1471 C1470 1.362 . S
H1472 C1478 0.930 . S
H1473 C1481 0.930 . S
H1474 C1482 0.930 . S
H1475 C1483 0.930 . S
H1476 C1486 0.930 . S
H1477 C1487 0.930 . S
C1478 H1472 0.930 . S
C1478 C1479 1.355 . S
C1478 C1480 1.415 . S
C1479 C1478 1.355 . S
C1479 C1481 1.419 . S
C1480 C1478 1.415 . S
C1480 C1485 1.425 . S
C1480 C1487 1.409 . S
C1481 H1473 0.930 . S
C1481 C1479 1.419 . S
C1481 C1482 1.362 . S
C1482 H1474 0.930 . S
C1482 C1481 1.362 . S
C1482 C1485 1.409 . S
C1483 H1475 0.930 . S
C1483 C1484 1.355 . S
C1483 C1485 1.415 . S
C1484 C1483 1.355 . S
C1484 C1486 1.419 . S
C1485 C1480 1.425 . S
C1485 C1482 1.409 . S
C1485 C1483 1.415 . S
C1486 H1476 0.930 . S
C1486 C1484 1.419 . S
C1486 C1487 1.362 . S
C1487 H1477 0.930 . S
C1487 C1480 1.409 . S
C1487 C1486 1.362 . S
H1488 C1494 0.930 . S
H1489 C1497 0.930 . S
H1490 C1498 0.930 . S
H1491 C1499 0.930 . S
H1492 C1502 0.930 . S
H1493 C1503 0.930 . S
C1494 H1488 0.930 . S
C1494 C1495 1.355 . S
C1494 C1496 1.415 . S
C1495 C1494 1.355 . S
C1495 C1497 1.419 . S
C1496 C1494 1.415 . S
C1496 C1501 1.425 . S
C1496 C1503 1.409 . S
C1497 H1489 0.930 . S
C1497 C1495 1.419 . S
C1497 C1498 1.362 . S
C1498 H1490 0.930 . S
C1498 C1497 1.362 . S
C1498 C1501 1.409 . S
C1499 H1491 0.930 . S
C1499 C1500 1.355 . S
C1499 C1501 1.415 . S
C1500 C1499 1.355 . S
C1500 C1502 1.419 . S
C1501 C1496 1.425 . S
C1501 C1498 1.409 . S
C1501 C1499 1.415 . S
C1502 H1492 0.930 . S
C1502 C1500 1.419 . S
C1502 C1503 1.362 . S
C1503 H1493 0.930 . S
C1503 C1496 1.409 . S
C1503 C1502 1.362 . S
H1504 C1510 0.930 . S
H1505 C1513 0.930 . S
H1506 C1514 0.930 . S
H1507 C1515 0.930 . S
H1508 C1518 0.930 . S
H1509 C1519 0.930 . S
C1510 H1504 0.930 . S
C1510 C1511 1.355 . S
C1510 C1512 1.415 . S
C1511 C1510 1.355 . S
C1511 C1513 1.419 . S
C1512 C1510 1.415 . S
C1512 C1517 1.425 . S
C1512 C1519 1.409 . S
C1513 H1505 0.930 . S
C1513 C1511 1.419 . S
C1513 C1514 1.362 . S
C1514 H1506 0.930 . S
C1514 C1513 1.362 . S
C1514 C1517 1.409 . S
C1515 H1507 0.930 . S
C1515 C1516 1.355 . S
C1515 C1517 1.415 . S
C1516 C1515 1.355 . S
C1516 C1518 1.419 . S
C1517 C1512 1.425 . S
C1517 C1514 1.409 . S
C1517 C1515 1.415 . S
C1518 H1508 0.930 . S
C1518 C1516 1.419 . S
C1518 C1519 1.362 . S
C1519 H1509 0.930 . S
C1519 C1512 1.409 . S
C1519 C1518 1.362 . S
H1520 C1526 0.930 . S
H1521 C1529 0.930 . S
H1522 C1530 0.930 . S
H1523 C1531 0.930 1_565 S
H1524 C1534 0.930 . S
H1525 C1535 0.930 . S
C1526 H1520 0.930 . S
C1526 C1527 1.355 . S
C1526 C1528 1.415 . S
C1527 C1526 1.355 . S
C1527 C1529 1.419 1_545 S
C1528 C1526 1.415 . S
C1528 C1533 1.425 . S
C1528 C1535 1.409 . S
C1529 H1521 0.930 . S
C1529 C1527 1.419 1_565 S
C1529 C1530 1.362 . S
C1530 H1522 0.930 . S
C1530 C1529 1.362 . S
C1530 C1533 1.409 1_565 S
C1531 H1523 0.930 1_545 S
C1531 C1532 1.355 . S
C1531 C1533 1.415 . S
C1532 C1531 1.355 . S
C1532 C1534 1.419 . S
C1533 C1528 1.425 . S
C1533 C1530 1.409 1_545 S
C1533 C1531 1.415 . S
C1534 H1524 0.930 . S
C1534 C1532 1.419 . S
C1534 C1535 1.362 . S
C1535 H1525 0.930 . S
C1535 C1528 1.409 . S
C1535 C1534 1.362 . S
H1536 C1542 0.930 . S
H1537 C1545 0.930 . S
H1538 C1546 0.930 . S
H1539 C1547 0.930 . S
H1540 C1550 0.930 . S
H1541 C1551 0.930 . S
C1542 H1536 0.930 . S
C1542 C1543 1.355 . S
C1542 C1544 1.415 . S
C1543 C1542 1.355 . S
C1543 C1545 1.419 . S
C1544 C1542 1.415 . S
C1544 C1549 1.425 . S
C1544 C1551 1.409 . S
C1545 H1537 0.930 . S
C1545 C1543 1.419 . S
C1545 C1546 1.362 . S
C1546 H1538 0.930 . S
C1546 C1545 1.362 . S
C1546 C1549 1.409 . S
C1547 H1539 0.930 . S
C1547 C1548 1.355 . S
C1547 C1549 1.415 . S
C1548 C1547 1.355 . S
C1548 C1550 1.419 . S
C1549 C1544 1.425 . S
C1549 C1546 1.409 . S
C1549 C1547 1.415 . S
C1550 H1540 0.930 . S
C1550 C1548 1.419 . S
C1550 C1551 1.362 . S
C1551 H1541 0.930 . S
C1551 C1544 1.409 . S
C1551 C1550 1.362 . S
H1552 C1558 0.930 . S
H1553 C1561 0.930 . S
H1554 C1562 0.930 . S
H1555 C1563 0.930 . S
H1556 C1566 0.930 . S
H1557 C1567 0.930 . S
C1558 H1552 0.930 . S
C1558 C1559 1.355 . S
C1558 C1560 1.415 . S
C1559 C1558 1.355 . S
C1559 C1561 1.419 . S
C1560 C1558 1.415 . S
C1560 C1565 1.425 . S
C1560 C1567 1.409 . S
C1561 H1553 0.930 . S
C1561 C1559 1.419 . S
C1561 C1562 1.362 . S
C1562 H1554 0.930 . S
C1562 C1561 1.362 . S
C1562 C1565 1.409 . S
C1563 H1555 0.930 . S
C1563 C1564 1.355 . S
C1563 C1565 1.415 . S
C1564 C1563 1.355 . S
C1564 C1566 1.419 . S
C1565 C1560 1.425 . S
C1565 C1562 1.409 . S
C1565 C1563 1.415 . S
C1566 H1556 0.930 . S
C1566 C1564 1.419 . S
C1566 C1567 1.362 . S
C1567 H1557 0.930 . S
C1567 C1560 1.409 . S
C1567 C1566 1.362 . S
H1568 C1574 0.930 . S
H1569 C1577 0.930 . S
H1570 C1578 0.930 . S
H1571 C1579 0.930 . S
H1572 C1582 0.930 . S
H1573 C1583 0.930 . S
C1574 H1568 0.930 . S
C1574 C1575 1.355 . S
C1574 C1576 1.415 . S
C1575 C1574 1.355 . S
C1575 C1577 1.419 . S
C1576 C1574 1.415 . S
C1576 C1581 1.425 . S
C1576 C1583 1.409 . S
C1577 H1569 0.930 . S
C1577 C1575 1.419 . S
C1577 C1578 1.362 . S
C1578 H1570 0.930 . S
C1578 C1577 1.362 . S
C1578 C1581 1.409 . S
C1579 H1571 0.930 . S
C1579 C1580 1.355 . S
C1579 C1581 1.415 . S
C1580 C1579 1.355 . S
C1580 C1582 1.419 . S
C1581 C1576 1.425 . S
C1581 C1578 1.409 . S
C1581 C1579 1.415 . S
C1582 H1572 0.930 . S
C1582 C1580 1.419 . S
C1582 C1583 1.362 . S
C1583 H1573 0.930 . S
C1583 C1576 1.409 . S
C1583 C1582 1.362 . S
H1584 C1590 0.930 . S
H1585 C1593 0.930 . S
H1586 C1594 0.925 1_545 S
H1587 C1595 0.930 . S
H1588 C1598 0.930 . S
H1589 C1599 0.930 . S
C1590 H1584 0.930 . S
C1590 C1591 1.355 1_565 S
C1590 C1592 1.415 . S
C1591 C1590 1.355 1_545 S
C1591 C1593 1.419 . S
C1592 C1590 1.415 . S
C1592 C1597 1.425 . S
C1592 C1599 1.409 . S
C1593 H1585 0.930 . S
C1593 C1591 1.419 . S
C1593 C1594 1.362 1_545 S
C1594 H1586 0.925 1_565 S
C1594 C1593 1.362 1_565 S
C1594 C1597 1.415 . S
C1595 H1587 0.930 . S
C1595 C1596 1.355 . S
C1595 C1597 1.415 . S
C1596 C1595 1.355 . S
C1596 C1598 1.419 . S
C1597 C1592 1.425 . S
C1597 C1594 1.415 . S
C1597 C1595 1.415 . S
C1598 H1588 0.930 . S
C1598 C1596 1.419 . S
C1598 C1599 1.362 . S
C1599 H1589 0.930 . S
C1599 C1592 1.409 . S
C1599 C1598 1.362 . S
H1600 C1606 0.930 . S
H1601 C1609 0.930 . S
H1602 C1610 0.930 . S
H1603 C1611 0.930 . S
H1604 C1614 0.930 . S
H1605 C1615 0.930 . S
C1606 H1600 0.930 . S
C1606 C1607 1.355 . S
C1606 C1608 1.415 . S
C1607 C1606 1.355 . S
C1607 C1609 1.419 . S
C1608 C1606 1.415 . S
C1608 C1613 1.425 . S
C1608 C1615 1.409 . S
C1609 H1601 0.930 . S
C1609 C1607 1.419 . S
C1609 C1610 1.362 . S
C1610 H1602 0.930 . S
C1610 C1609 1.362 . S
C1610 C1613 1.409 . S
C1611 H1603 0.930 . S
C1611 C1612 1.355 . S
C1611 C1613 1.415 . S
C1612 C1611 1.355 . S
C1612 C1614 1.419 . S
C1613 C1608 1.425 . S
C1613 C1610 1.409 . S
C1613 C1611 1.415 . S
C1614 H1604 0.930 . S
C1614 C1612 1.419 . S
C1614 C1615 1.362 . S
C1615 H1605 0.930 . S
C1615 C1608 1.409 . S
C1615 C1614 1.362 . S
H1616 C1622 0.928 . S
H1617 C1625 0.930 . S
H1618 C1626 0.930 . S
H1619 C1627 0.930 . S
H1620 C1630 0.930 . S
H1621 C1631 0.930 . S
C1622 H1616 0.928 . S
C1622 C1623 1.355 . S
C1622 C1624 1.415 1_554 S
C1623 C1622 1.355 . S
C1623 C1625 1.419 . S
C1624 C1622 1.415 1_556 S
C1624 C1629 1.425 . S
C1624 C1631 1.409 . S
C1625 H1617 0.930 . S
C1625 C1623 1.419 . S
C1625 C1626 1.362 . S
C1626 H1618 0.930 . S
C1626 C1625 1.362 . S
C1626 C1629 1.409 1_554 S
C1627 H1619 0.930 . S
C1627 C1628 1.355 . S
C1627 C1629 1.415 . S
C1628 C1627 1.355 . S
C1628 C1630 1.419 . S
C1629 C1624 1.425 . S
C1629 C1626 1.409 1_556 S
C1629 C1627 1.415 . S
C1630 H1620 0.930 . S
C1630 C1628 1.419 . S
C1630 C1631 1.362 . S
C1631 H1621 0.930 . S
C1631 C1624 1.409 . S
C1631 C1630 1.362 . S
H1632 C1638 0.930 . S
H1633 C1641 0.930 . S
H1634 C1642 0.930 . S
H1635 C1643 0.930 . S
H1636 C1646 0.930 . S
H1637 C1647 0.930 . S
C1638 H1632 0.930 . S
C1638 C1639 1.355 . S
C1638 C1640 1.415 . S
C1639 C1638 1.355 . S
C1639 C1641 1.419 . S
C1640 C1638 1.415 . S
C1640 C1645 1.425 . S
C1640 C1647 1.409 . S
C1641 H1633 0.930 . S
C1641 C1639 1.419 . S
C1641 C1642 1.362 . S
C1642 H1634 0.930 . S
C1642 C1641 1.362 . S
C1642 C1645 1.409 . S
C1643 H1635 0.930 . S
C1643 C1644 1.355 . S
C1643 C1645 1.415 . S
C1644 C1643 1.355 . S
C1644 C1646 1.419 . S
C1645 C1640 1.425 . S
C1645 C1642 1.409 . S
C1645 C1643 1.415 . S
C1646 H1636 0.930 . S
C1646 C1644 1.419 . S
C1646 C1647 1.362 . S
C1647 H1637 0.930 . S
C1647 C1640 1.409 . S
C1647 C1646 1.362 . S
H1648 C1654 0.930 . S
H1649 C1657 0.930 . S
H1650 C1658 0.930 . S
H1651 C1659 0.930 . S
H1652 C1662 0.930 . S
H1653 C1663 0.930 . S
C1654 H1648 0.930 . S
C1654 C1655 1.355 . S
C1654 C1656 1.415 . S
C1655 C1654 1.355 . S
C1655 C1657 1.419 . S
C1656 C1654 1.415 . S
C1656 C1661 1.425 . S
C1656 C1663 1.409 . S
C1657 H1649 0.930 . S
C1657 C1655 1.419 . S
C1657 C1658 1.362 . S
C1658 H1650 0.930 . S
C1658 C1657 1.362 . S
C1658 C1661 1.409 . S
C1659 H1651 0.930 . S
C1659 C1660 1.355 . S
C1659 C1661 1.415 . S
C1660 C1659 1.355 . S
C1660 C1662 1.419 . S
C1661 C1656 1.425 . S
C1661 C1658 1.409 . S
C1661 C1659 1.415 . S
C1662 H1652 0.930 . S
C1662 C1660 1.419 . S
C1662 C1663 1.362 . S
C1663 H1653 0.930 . S
C1663 C1656 1.409 . S
C1663 C1662 1.362 . S
H1664 C1670 0.930 . S
H1665 C1673 0.930 . S
H1666 C1674 0.930 . S
H1667 C1675 0.930 . S
H1668 C1678 0.930 . S
H1669 C1679 0.930 . S
C1670 H1664 0.930 . S
C1670 C1671 1.355 . S
C1670 C1672 1.415 . S
C1671 C1670 1.355 . S
C1671 C1673 1.419 . S
C1672 C1670 1.415 . S
C1672 C1677 1.425 . S
C1672 C1679 1.409 . S
C1673 H1665 0.930 . S
C1673 C1671 1.419 . S
C1673 C1674 1.362 . S
C1674 H1666 0.930 . S
C1674 C1673 1.362 . S
C1674 C1677 1.409 . S
C1675 H1667 0.930 . S
C1675 C1676 1.355 . S
C1675 C1677 1.415 . S
C1676 C1675 1.355 . S
C1676 C1678 1.419 . S
C1677 C1672 1.425 . S
C1677 C1674 1.409 . S
C1677 C1675 1.415 . S
C1678 H1668 0.930 . S
C1678 C1676 1.419 . S
C1678 C1679 1.362 . S
C1679 H1669 0.930 . S
C1679 C1672 1.409 . S
C1679 C1678 1.362 . S
H1680 C1686 0.930 . S
H1681 C1689 0.930 . S
H1682 C1690 0.930 . S
H1683 C1691 0.930 . S
H1684 C1694 0.930 . S
H1685 C1695 0.930 . S
C1686 H1680 0.930 . S
C1686 C1687 1.355 . S
C1686 C1688 1.415 1_545 S
C1687 C1686 1.355 . S
C1687 C1689 1.419 1_545 S
C1688 C1686 1.415 1_565 S
C1688 C1693 1.425 . S
C1688 C1695 1.409 1_565 S
C1689 H1681 0.930 . S
C1689 C1687 1.419 1_565 S
C1689 C1690 1.362 . S
C1690 H1682 0.930 . S
C1690 C1689 1.362 . S
C1690 C1693 1.409 . S
C1691 H1683 0.930 . S
C1691 C1692 1.355 . S
C1691 C1693 1.415 . S
C1692 C1691 1.355 . S
C1692 C1694 1.419 . S
C1693 C1688 1.425 . S
C1693 C1690 1.409 . S
C1693 C1691 1.415 . S
C1694 H1684 0.930 . S
C1694 C1692 1.419 . S
C1694 C1695 1.362 1_565 S
C1695 H1685 0.930 . S
C1695 C1688 1.409 1_545 S
C1695 C1694 1.362 1_545 S
H1696 C1702 0.930 . S
H1697 C1705 0.930 . S
H1698 C1706 0.930 . S
H1699 C1707 0.930 . S
H1700 C1710 0.930 . S
H1701 C1711 0.930 . S
C1702 H1696 0.930 . S
C1702 C1703 1.355 . S
C1702 C1704 1.415 . S
C1703 C1702 1.355 . S
C1703 C1705 1.419 . S
C1704 C1702 1.415 . S
C1704 C1709 1.425 . S
C1704 C1711 1.409 . S
C1705 H1697 0.930 . S
C1705 C1703 1.419 . S
C1705 C1706 1.362 . S
C1706 H1698 0.930 . S
C1706 C1705 1.362 . S
C1706 C1709 1.409 . S
C1707 H1699 0.930 . S
C1707 C1708 1.355 . S
C1707 C1709 1.415 . S
C1708 C1707 1.355 . S
C1708 C1710 1.419 . S
C1709 C1704 1.425 . S
C1709 C1706 1.409 . S
C1709 C1707 1.415 . S
C1710 H1700 0.930 . S
C1710 C1708 1.419 . S
C1710 C1711 1.362 . S
C1711 H1701 0.930 . S
C1711 C1704 1.409 . S
C1711 C1710 1.362 . S
H1712 C1718 0.930 . S
H1713 C1721 0.930 . S
H1714 C1722 0.930 . S
H1715 C1723 0.930 . S
H1716 C1726 0.930 . S
H1717 C1727 0.930 . S
C1718 H1712 0.930 . S
C1718 C1719 1.355 . S
C1718 C1720 1.415 . S
C1719 C1718 1.355 . S
C1719 C1721 1.419 . S
C1720 C1718 1.415 . S
C1720 C1725 1.425 . S
C1720 C1727 1.409 . S
C1721 H1713 0.930 . S
C1721 C1719 1.419 . S
C1721 C1722 1.362 . S
C1722 H1714 0.930 . S
C1722 C1721 1.362 . S
C1722 C1725 1.409 . S
C1723 H1715 0.930 . S
C1723 C1724 1.355 . S
C1723 C1725 1.415 . S
C1724 C1723 1.355 . S
C1724 C1726 1.419 . S
C1725 C1720 1.425 . S
C1725 C1722 1.409 . S
C1725 C1723 1.415 . S
C1726 H1716 0.930 . S
C1726 C1724 1.419 . S
C1726 C1727 1.362 . S
C1727 H1717 0.930 . S
C1727 C1720 1.409 . S
C1727 C1726 1.362 . S
H1728 C1734 0.930 . S
H1729 C1737 0.930 . S
H1730 C1738 0.930 . S
H1731 C1739 0.930 . S
H1732 C1742 0.930 . S
H1733 C1743 0.930 . S
C1734 H1728 0.930 . S
C1734 C1735 1.355 . S
C1734 C1736 1.415 . S
C1735 C1734 1.355 . S
C1735 C1737 1.419 . S
C1736 C1734 1.415 . S
C1736 C1741 1.425 . S
C1736 C1743 1.409 . S
C1737 H1729 0.930 . S
C1737 C1735 1.419 . S
C1737 C1738 1.362 . S
C1738 H1730 0.930 . S
C1738 C1737 1.362 . S
C1738 C1741 1.409 . S
C1739 H1731 0.930 . S
C1739 C1740 1.355 . S
C1739 C1741 1.415 . S
C1740 C1739 1.355 . S
C1740 C1742 1.419 . S
C1741 C1736 1.425 . S
C1741 C1738 1.409 . S
C1741 C1739 1.415 . S
C1742 H1732 0.930 . S
C1742 C1740 1.419 . S
C1742 C1743 1.362 . S
C1743 H1733 0.930 . S
C1743 C1736 1.409 . S
C1743 C1742 1.362 . S
H1744 C1750 0.930 . S
H1745 C1753 0.930 . S
H1746 C1754 0.930 . S
H1747 C1755 0.930 . S
H1748 C1758 0.930 . S
H1749 C1759 0.930 . S
C1750 H1744 0.930 . S
C1750 C1751 1.355 . S
C1750 C1752 1.415 . S
C1751 C1750 1.355 . S
C1751 C1753 1.419 . S
C1752 C1750 1.415 . S
C1752 C1757 1.425 . S
C1752 C1759 1.409 . S
C1753 H1745 0.930 . S
C1753 C1751 1.419 . S
C1753 C1754 1.362 . S
C1754 H1746 0.930 . S
C1754 C1753 1.362 . S
C1754 C1757 1.409 . S
C1755 H1747 0.930 . S
C1755 C1756 1.355 . S
C1755 C1757 1.415 . S
C1756 C1755 1.355 . S
C1756 C1758 1.419 . S
C1757 C1752 1.425 . S
C1757 C1754 1.409 . S
C1757 C1755 1.415 . S
C1758 H1748 0.930 . S
C1758 C1756 1.419 . S
C1758 C1759 1.362 . S
C1759 H1749 0.930 . S
C1759 C1752 1.409 . S
C1759 C1758 1.362 . S
H1760 C1766 0.930 . S
H1761 C1769 0.930 . S
H1762 C1770 0.930 . S
H1763 C1771 0.930 . S
H1764 C1774 0.930 . S
H1765 C1775 0.930 . S
C1766 H1760 0.930 . S
C1766 C1767 1.355 . S
C1766 C1768 1.415 . S
C1767 C1766 1.355 . S
C1767 C1769 1.419 . S
C1768 C1766 1.415 . S
C1768 C1773 1.425 . S
C1768 C1775 1.409 . S
C1769 H1761 0.930 . S
C1769 C1767 1.419 . S
C1769 C1770 1.362 . S
C1770 H1762 0.930 . S
C1770 C1769 1.362 . S
C1770 C1773 1.409 . S
C1771 H1763 0.930 . S
C1771 C1772 1.355 . S
C1771 C1773 1.415 . S
C1772 C1771 1.355 . S
C1772 C1774 1.419 . S
C1773 C1768 1.425 . S
C1773 C1770 1.409 . S
C1773 C1771 1.415 . S
C1774 H1764 0.930 . S
C1774 C1772 1.419 . S
C1774 C1775 1.362 . S
C1775 H1765 0.930 . S
C1775 C1768 1.409 . S
C1775 C1774 1.362 . S
H1776 C1782 0.930 . S
H1777 C1785 0.930 . S
H1778 C1786 0.930 . S
H1779 C1787 0.930 . S
H1780 C1790 0.930 . S
H1781 C1791 0.930 . S
C1782 H1776 0.930 . S
C1782 C1783 1.355 . S
C1782 C1784 1.415 . S
C1783 C1782 1.355 . S
C1783 C1785 1.419 . S
C1784 C1782 1.415 . S
C1784 C1789 1.425 . S
C1784 C1791 1.409 1_556 S
C1785 H1777 0.930 . S
C1785 C1783 1.419 . S
C1785 C1786 1.362 . S
C1786 H1778 0.930 . S
C1786 C1785 1.362 . S
C1786 C1789 1.409 . S
C1787 H1779 0.930 . S
C1787 C1788 1.355 1_556 S
C1787 C1789 1.415 . S
C1788 C1787 1.355 1_554 S
C1788 C1790 1.419 . S
C1789 C1784 1.425 . S
C1789 C1786 1.409 . S
C1789 C1787 1.415 . S
C1790 H1780 0.930 . S
C1790 C1788 1.419 . S
C1790 C1791 1.362 . S
C1791 H1781 0.930 . S
C1791 C1784 1.409 1_554 S
C1791 C1790 1.362 . S
H1792 C1798 0.930 . S
H1793 C1801 0.930 . S
H1794 C1802 0.930 . S
H1795 C1803 0.930 . S
H1796 C1806 0.930 . S
H1797 C1807 0.930 . S
C1798 H1792 0.930 . S
C1798 C1799 1.355 1_655 S
C1798 C1800 1.415 . S
C1799 C1798 1.355 1_455 S
C1799 C1801 1.419 . S
C1800 C1798 1.415 . S
C1800 C1805 1.425 . S
C1800 C1807 1.409 . S
C1801 H1793 0.930 . S
C1801 C1799 1.419 . S
C1801 C1802 1.362 . S
C1802 H1794 0.930 . S
C1802 C1801 1.362 . S
C1802 C1805 1.409 1_455 S
C1803 H1795 0.930 . S
C1803 C1804 1.355 . S
C1803 C1805 1.415 . S
C1804 C1803 1.355 . S
C1804 C1806 1.419 . S
C1805 C1800 1.425 . S
C1805 C1802 1.409 1_655 S
C1805 C1803 1.415 . S
C1806 H1796 0.930 . S
C1806 C1804 1.419 . S
C1806 C1807 1.362 . S
C1807 H1797 0.930 . S
C1807 C1800 1.409 . S
C1807 C1806 1.362 . S
H1808 C1814 0.930 . S
H1809 C1817 0.930 . S
H1810 C1818 0.930 . S
H1811 C1819 0.930 . S
H1812 C1822 0.930 . S
H1813 C1823 0.930 . S
C1814 H1808 0.930 . S
C1814 C1815 1.355 . S
C1814 C1816 1.415 . S
C1815 C1814 1.355 . S
C1815 C1817 1.419 . S
C1816 C1814 1.415 . S
C1816 C1821 1.425 . S
C1816 C1823 1.409 . S
C1817 H1809 0.930 . S
C1817 C1815 1.419 . S
C1817 C1818 1.362 . S
C1818 H1810 0.930 . S
C1818 C1817 1.362 . S
C1818 C1821 1.409 . S
C1819 H1811 0.930 . S
C1819 C1820 1.355 . S
C1819 C1821 1.415 . S
C1820 C1819 1.355 . S
C1820 C1822 1.419 . S
C1821 C1816 1.425 . S
C1821 C1818 1.409 . S
C1821 C1819 1.415 . S
C1822 H1812 0.930 . S
C1822 C1820 1.419 . S
C1822 C1823 1.362 . S
C1823 H1813 0.930 . S
C1823 C1816 1.409 . S
C1823 C1822 1.362 . S
H1824 C1830 0.930 . S
H1825 C1833 0.930 . S
H1826 C1834 0.930 . S
H1827 C1835 0.930 . S
H1828 C1838 0.930 . S
H1829 C1839 0.930 . S
C1830 H1824 0.930 . S
C1830 C1831 1.355 . S
C1830 C1832 1.415 . S
C1831 C1830 1.355 . S
C1831 C1833 1.419 . S
C1832 C1830 1.415 . S
C1832 C1837 1.425 . S
C1832 C1839 1.419 . S
C1833 H1825 0.930 . S
C1833 C1831 1.419 . S
C1833 C1834 1.362 . S
C1834 H1826 0.930 . S
C1834 C1833 1.362 . S
C1834 C1837 1.409 . S
C1835 H1827 0.930 . S
C1835 C1836 1.355 . S
C1835 C1837 1.415 1_655 S
C1836 C1835 1.355 . S
C1836 C1838 1.419 . S
C1837 C1832 1.425 . S
C1837 C1834 1.409 . S
C1837 C1835 1.415 1_455 S
C1838 H1828 0.930 . S
C1838 C1836 1.419 . S
C1838 C1839 1.353 1_655 S
C1839 H1829 0.930 . S
C1839 C1832 1.419 . S
C1839 C1838 1.353 1_455 S
H1840 C1846 0.931 . S
H1841 C1849 0.930 1_655 S
H1842 C1850 0.930 . S
H1843 C1851 0.930 . S
H1844 C1854 0.930 . S
H1845 C1855 0.930 . S
C1846 H1840 0.931 . S
C1846 C1847 1.355 1_455 S
C1846 C1848 1.415 . S
C1847 C1846 1.355 1_655 S
C1847 C1849 1.419 1_655 S
C1848 C1846 1.415 . S
C1848 C1853 1.425 . S
C1848 C1855 1.409 . S
C1849 H1841 0.930 1_455 S
C1849 C1847 1.419 1_455 S
C1849 C1850 1.362 . S
C1850 H1842 0.930 . S
C1850 C1849 1.362 . S
C1850 C1853 1.409 . S
C1851 H1843 0.930 . S
C1851 C1852 1.355 . S
C1851 C1853 1.415 . S
C1852 C1851 1.355 . S
C1852 C1854 1.419 . S
C1853 C1848 1.425 . S
C1853 C1850 1.409 . S
C1853 C1851 1.415 . S
C1854 H1844 0.930 . S
C1854 C1852 1.419 . S
C1854 C1855 1.362 . S
C1855 H1845 0.930 . S
C1855 C1848 1.409 . S
C1855 C1854 1.362 . S
H1856 C1862 0.930 . S
H1857 C1865 0.930 . S
H1858 C1866 0.930 . S
H1859 C1867 0.930 . S
H1860 C1870 0.930 . S
H1861 C1871 0.930 . S
C1862 H1856 0.930 . S
C1862 C1863 1.355 . S
C1862 C1864 1.415 . S
C1863 C1862 1.355 . S
C1863 C1865 1.419 . S
C1864 C1862 1.415 . S
C1864 C1869 1.425 . S
C1864 C1871 1.409 . S
C1865 H1857 0.930 . S
C1865 C1863 1.419 . S
C1865 C1866 1.362 . S
C1866 H1858 0.930 . S
C1866 C1865 1.362 . S
C1866 C1869 1.409 . S
C1867 H1859 0.930 . S
C1867 C1868 1.355 . S
C1867 C1869 1.415 . S
C1868 C1867 1.355 . S
C1868 C1870 1.419 . S
C1869 C1864 1.425 . S
C1869 C1866 1.409 . S
C1869 C1867 1.415 . S
C1870 H1860 0.930 . S
C1870 C1868 1.419 . S
C1870 C1871 1.362 . S
C1871 H1861 0.930 . S
C1871 C1864 1.409 . S
C1871 C1870 1.362 . S
H1872 C1878 0.930 . S
H1873 C1881 0.930 . S
H1874 C1882 0.930 . S
H1875 C1883 0.930 . S
H1876 C1886 0.930 . S
H1877 C1887 0.930 . S
C1878 H1872 0.930 . S
C1878 C1879 1.355 . S
C1878 C1880 1.415 . S
C1879 C1878 1.355 . S
C1879 C1881 1.419 . S
C1880 C1878 1.415 . S
C1880 C1885 1.425 . S
C1880 C1887 1.409 . S
C1881 H1873 0.930 . S
C1881 C1879 1.419 . S
C1881 C1882 1.362 . S
C1882 H1874 0.930 . S
C1882 C1881 1.362 . S
C1882 C1885 1.409 . S
C1883 H1875 0.930 . S
C1883 C1884 1.355 . S
C1883 C1885 1.415 . S
C1884 C1883 1.355 . S
C1884 C1886 1.419 . S
C1885 C1880 1.425 . S
C1885 C1882 1.409 . S
C1885 C1883 1.415 . S
C1886 H1876 0.930 . S
C1886 C1884 1.419 . S
C1886 C1887 1.362 . S
C1887 H1877 0.930 . S
C1887 C1880 1.409 . S
C1887 C1886 1.362 . S
H1888 C1894 0.930 . S
H1889 C1897 0.930 . S
H1890 C1898 0.930 . S
H1891 C1899 0.930 . S
H1892 C1902 0.930 . S
H1893 C1903 0.930 . S
C1894 H1888 0.930 . S
C1894 C1895 1.355 . S
C1894 C1896 1.415 . S
C1895 C1894 1.355 . S
C1895 C1897 1.419 . S
C1896 C1894 1.415 . S
C1896 C1901 1.425 . S
C1896 C1903 1.409 . S
C1897 H1889 0.930 . S
C1897 C1895 1.419 . S
C1897 C1898 1.362 . S
C1898 H1890 0.930 . S
C1898 C1897 1.362 . S
C1898 C1901 1.409 . S
C1899 H1891 0.930 . S
C1899 C1900 1.355 . S
C1899 C1901 1.415 . S
C1900 C1899 1.355 . S
C1900 C1902 1.419 . S
C1901 C1896 1.425 . S
C1901 C1898 1.409 . S
C1901 C1899 1.415 . S
C1902 H1892 0.930 . S
C1902 C1900 1.419 . S
C1902 C1903 1.362 . S
C1903 H1893 0.930 . S
C1903 C1896 1.409 . S
C1903 C1902 1.362 . S
H1904 C1910 0.930 . S
H1905 C1913 0.930 . S
H1906 C1914 0.930 . S
H1907 C1915 0.930 . S
H1908 C1918 0.930 . S
H1909 C1919 0.930 . S
C1910 H1904 0.930 . S
C1910 C1911 1.355 . S
C1910 C1912 1.415 . S
C1911 C1910 1.355 . S
C1911 C1913 1.419 . S
C1912 C1910 1.415 . S
C1912 C1917 1.425 . S
C1912 C1919 1.409 . S
C1913 H1905 0.930 . S
C1913 C1911 1.419 . S
C1913 C1914 1.362 . S
C1914 H1906 0.930 . S
C1914 C1913 1.362 . S
C1914 C1917 1.409 . S
C1915 H1907 0.930 . S
C1915 C1916 1.355 . S
C1915 C1917 1.415 . S
C1916 C1915 1.355 . S
C1916 C1918 1.419 . S
C1917 C1912 1.425 . S
C1917 C1914 1.409 . S
C1917 C1915 1.415 . S
C1918 H1908 0.930 . S
C1918 C1916 1.419 . S
C1918 C1919 1.362 . S
C1919 H1909 0.930 . S
C1919 C1912 1.409 . S
C1919 C1918 1.362 . S
H1920 C1926 0.930 . S
H1921 C1929 0.930 . S
H1922 C1930 0.930 . S
H1923 C1931 0.930 . S
H1924 C1934 0.930 . S
H1925 C1935 0.930 . S
C1926 H1920 0.930 . S
C1926 C1927 1.355 . S
C1926 C1928 1.415 . S
C1927 C1926 1.355 . S
C1927 C1929 1.419 . S
C1928 C1926 1.415 . S
C1928 C1933 1.425 . S
C1928 C1935 1.409 . S
C1929 H1921 0.930 . S
C1929 C1927 1.419 . S
C1929 C1930 1.362 . S
C1930 H1922 0.930 . S
C1930 C1929 1.362 . S
C1930 C1933 1.409 . S
C1931 H1923 0.930 . S
C1931 C1932 1.355 . S
C1931 C1933 1.415 . S
C1932 C1931 1.355 . S
C1932 C1934 1.419 . S
C1933 C1928 1.425 . S
C1933 C1930 1.409 . S
C1933 C1931 1.415 . S
C1934 H1924 0.930 . S
C1934 C1932 1.419 . S
C1934 C1935 1.362 . S
C1935 H1925 0.930 . S
C1935 C1928 1.409 . S
C1935 C1934 1.362 . S
H1936 C1942 0.930 . S
H1937 C1945 0.930 . S
H1938 C1946 0.930 . S
H1939 C1947 0.930 . S
H1940 C1950 0.930 . S
H1941 C1951 0.930 . S
C1942 H1936 0.930 . S
C1942 C1943 1.355 . S
C1942 C1944 1.415 . S
C1943 C1942 1.355 . S
C1943 C1945 1.419 . S
C1944 C1942 1.415 . S
C1944 C1949 1.425 . S
C1944 C1951 1.409 . S
C1945 H1937 0.930 . S
C1945 C1943 1.419 . S
C1945 C1946 1.362 . S
C1946 H1938 0.930 . S
C1946 C1945 1.362 . S
C1946 C1949 1.409 . S
C1947 H1939 0.930 . S
C1947 C1948 1.355 . S
C1947 C1949 1.415 . S
C1948 C1947 1.355 . S
C1948 C1950 1.419 . S
C1949 C1944 1.425 . S
C1949 C1946 1.409 . S
C1949 C1947 1.415 . S
C1950 H1940 0.930 . S
C1950 C1948 1.419 . S
C1950 C1951 1.362 . S
C1951 H1941 0.930 . S
C1951 C1944 1.409 . S
C1951 C1950 1.362 . S
H1952 C1958 0.930 . S
H1953 C1961 0.930 . S
H1954 C1962 0.930 . S
H1955 C1963 0.930 . S
H1956 C1966 0.930 . S
H1957 C1967 0.930 . S
C1958 H1952 0.930 . S
C1958 C1959 1.355 . S
C1958 C1960 1.415 . S
C1959 C1958 1.355 . S
C1959 C1961 1.419 . S
C1960 C1958 1.415 . S
C1960 C1965 1.425 . S
C1960 C1967 1.409 . S
C1961 H1953 0.930 . S
C1961 C1959 1.419 . S
C1961 C1962 1.362 . S
C1962 H1954 0.930 . S
C1962 C1961 1.362 . S
C1962 C1965 1.409 . S
C1963 H1955 0.930 . S
C1963 C1964 1.355 . S
C1963 C1965 1.415 . S
C1964 C1963 1.355 . S
C1964 C1966 1.419 . S
C1965 C1960 1.425 . S
C1965 C1962 1.409 . S
C1965 C1963 1.415 . S
C1966 H1956 0.930 . S
C1966 C1964 1.419 . S
C1966 C1967 1.362 . S
C1967 H1957 0.930 . S
C1967 C1960 1.409 . S
C1967 C1966 1.362 . S
H1968 C1974 0.930 . S
H1969 C1977 0.930 . S
H1970 C1978 0.930 . S
H1971 C1979 0.930 . S
H1972 C1982 0.930 . S
H1973 C1983 0.930 . S
C1974 H1968 0.930 . S
C1974 C1975 1.355 . S
C1974 C1976 1.415 . S
C1975 C1974 1.355 . S
C1975 C1977 1.419 . S
C1976 C1974 1.415 . S
C1976 C1981 1.425 . S
C1976 C1983 1.409 . S
C1977 H1969 0.930 . S
C1977 C1975 1.419 . S
C1977 C1978 1.362 . S
C1978 H1970 0.930 . S
C1978 C1977 1.362 . S
C1978 C1981 1.409 . S
C1979 H1971 0.930 . S
C1979 C1980 1.355 . S
C1979 C1981 1.415 . S
C1980 C1979 1.355 . S
C1980 C1982 1.419 . S
C1981 C1976 1.425 . S
C1981 C1978 1.409 . S
C1981 C1979 1.415 . S
C1982 H1972 0.930 . S
C1982 C1980 1.419 . S
C1982 C1983 1.362 . S
C1983 H1973 0.930 . S
C1983 C1976 1.409 . S
C1983 C1982 1.362 . S
H1984 C1990 0.930 . S
H1985 C1993 0.930 . S
H1986 C1994 0.930 . S
H1987 C1995 0.930 . S
H1988 C1998 0.930 . S
H1989 C1999 0.930 . S
C1990 H1984 0.930 . S
C1990 C1991 1.355 . S
C1990 C1992 1.415 . S
C1991 C1990 1.355 . S
C1991 C1993 1.419 . S
C1992 C1990 1.415 . S
C1992 C1997 1.425 . S
C1992 C1999 1.409 . S
C1993 H1985 0.930 . S
C1993 C1991 1.419 . S
C1993 C1994 1.362 . S
C1994 H1986 0.930 . S
C1994 C1993 1.362 . S
C1994 C1997 1.409 . S
C1995 H1987 0.930 . S
C1995 C1996 1.355 . S
C1995 C1997 1.415 . S
C1996 C1995 1.355 . S
C1996 C1998 1.419 . S
C1997 C1992 1.425 . S
C1997 C1994 1.409 . S
C1997 C1995 1.415 . S
C1998 H1988 0.930 . S
C1998 C1996 1.419 . S
C1998 C1999 1.362 . S
C1999 H1989 0.930 . S
C1999 C1992 1.409 . S
C1999 C1998 1.362 . S
H2000 C2006 0.930 . S
H2001 C2009 0.930 . S
H2002 C2010 0.930 . S
H2003 C2011 0.930 . S
H2004 C2014 0.930 . S
H2005 C2015 0.930 . S
C2006 H2000 0.930 . S
C2006 C2007 1.355 . S
C2006 C2008 1.415 . S
C2007 C2006 1.355 . S
C2007 C2009 1.419 . S
C2008 C2006 1.415 . S
C2008 C2013 1.425 . S
C2008 C2015 1.409 . S
C2009 H2001 0.930 . S
C2009 C2007 1.419 . S
C2009 C2010 1.362 . S
C2010 H2002 0.930 . S
C2010 C2009 1.362 . S
C2010 C2013 1.409 . S
C2011 H2003 0.930 . S
C2011 C2012 1.355 . S
C2011 C2013 1.415 . S
C2012 C2011 1.355 . S
C2012 C2014 1.419 . S
C2013 C2008 1.425 . S
C2013 C2010 1.409 . S
C2013 C2011 1.415 . S
C2014 H2004 0.930 . S
C2014 C2012 1.419 . S
C2014 C2015 1.362 . S
C2015 H2005 0.930 . S
C2015 C2008 1.409 . S
C2015 C2014 1.362 . S
H2016 C2022 0.930 . S
H2017 C2025 0.930 . S
H2018 C2026 0.930 . S
H2019 C2027 0.930 . S
H2020 C2030 0.930 . S
H2021 C2031 0.930 . S
C2022 H2016 0.930 . S
C2022 C2023 1.355 . S
C2022 C2024 1.415 . S
C2023 C2022 1.355 . S
C2023 C2025 1.419 . S
C2024 C2022 1.415 . S
C2024 C2029 1.425 . S
C2024 C2031 1.409 . S
C2025 H2017 0.930 . S
C2025 C2023 1.419 . S
C2025 C2026 1.362 . S
C2026 H2018 0.930 . S
C2026 C2025 1.362 . S
C2026 C2029 1.409 . S
C2027 H2019 0.930 . S
C2027 C2028 1.355 . S
C2027 C2029 1.415 . S
C2028 C2027 1.355 . S
C2028 C2030 1.419 . S
C2029 C2024 1.425 . S
C2029 C2026 1.409 . S
C2029 C2027 1.415 . S
C2030 H2020 0.930 . S
C2030 C2028 1.419 . S
C2030 C2031 1.362 . S
C2031 H2021 0.930 . S
C2031 C2024 1.409 . S
C2031 C2030 1.362 . S
H2032 C2038 0.930 . S
H2033 C2041 0.930 . S
H2034 C2042 0.930 . S
H2035 C2043 0.930 . S
H2036 C2046 0.930 . S
H2037 C2047 0.930 . S
C2038 H2032 0.930 . S
C2038 C2039 1.355 . S
C2038 C2040 1.415 . S
C2039 C2038 1.355 . S
C2039 C2041 1.419 . S
C2040 C2038 1.415 . S
C2040 C2045 1.425 . S
C2040 C2047 1.409 . S
C2041 H2033 0.930 . S
C2041 C2039 1.419 . S
C2041 C2042 1.362 . S
C2042 H2034 0.930 . S
C2042 C2041 1.362 . S
C2042 C2045 1.409 . S
C2043 H2035 0.930 . S
C2043 C2044 1.355 . S
C2043 C2045 1.415 . S
C2044 C2043 1.355 . S
C2044 C2046 1.419 . S
C2045 C2040 1.425 . S
C2045 C2042 1.409 . S
C2045 C2043 1.415 . S
C2046 H2036 0.930 . S
C2046 C2044 1.419 . S
C2046 C2047 1.362 . S
C2047 H2037 0.930 . S
C2047 C2040 1.409 . S
C2047 C2046 1.362 . S
H2048 C2054 0.930 1_545 S
H2049 C2057 0.930 . S
H2050 C2058 0.930 . S
H2051 C2059 0.930 . S
H2052 C2062 0.930 . S
H2053 C2063 0.930 . S
C2054 H2048 0.930 1_565 S
C2054 C2055 1.355 . S
C2054 C2056 1.415 . S
C2055 C2054 1.355 . S
C2055 C2057 1.419 1_554 S
C2056 C2054 1.415 . S
C2056 C2061 1.428 . S
C2056 C2063 1.409 1_565 S
C2057 H2049 0.930 . S
C2057 C2055 1.419 1_556 S
C2057 C2058 1.362 . S
C2058 H2050 0.930 . S
C2058 C2057 1.362 . S
C2058 C2061 1.407 1_556 S
C2059 H2051 0.930 . S
C2059 C2060 1.355 1_566 S
C2059 C2061 1.414 1_556 S
C2060 C2059 1.355 1_544 S
C2060 C2062 1.419 . S
C2061 C2056 1.428 . S
C2061 C2058 1.407 1_554 S
C2061 C2059 1.414 1_554 S
C2062 H2052 0.930 . S
C2062 C2060 1.419 . S
C2062 C2063 1.362 . S
C2063 H2053 0.930 . S
C2063 C2056 1.409 1_545 S
C2063 C2062 1.362 . S
H2064 C2070 0.930 . S
H2065 C2073 0.930 . S
H2066 C2074 0.930 . S
H2067 C2075 0.930 . S
H2068 C2078 0.930 . S
H2069 C2079 0.930 . S
C2070 H2064 0.930 . S
C2070 C2071 1.355 . S
C2070 C2072 1.415 . S
C2071 C2070 1.355 . S
C2071 C2073 1.419 . S
C2072 C2070 1.415 . S
C2072 C2077 1.425 . S
C2072 C2079 1.409 . S
C2073 H2065 0.930 . S
C2073 C2071 1.419 . S
C2073 C2074 1.362 . S
C2074 H2066 0.930 . S
C2074 C2073 1.362 . S
C2074 C2077 1.409 . S
C2075 H2067 0.930 . S
C2075 C2076 1.355 . S
C2075 C2077 1.415 . S
C2076 C2075 1.355 . S
C2076 C2078 1.419 . S
C2077 C2072 1.425 . S
C2077 C2074 1.409 . S
C2077 C2075 1.415 . S
C2078 H2068 0.930 . S
C2078 C2076 1.419 . S
C2078 C2079 1.362 . S
C2079 H2069 0.930 . S
C2079 C2072 1.409 . S
C2079 C2078 1.362 . S
H2080 C2086 0.930 . S
H2081 C2089 0.930 . S
H2082 C2090 0.930 . S
H2083 C2091 0.930 . S
H2084 C2094 0.930 . S
H2085 C2095 0.930 . S
C2086 H2080 0.930 . S
C2086 C2087 1.355 . S
C2086 C2088 1.415 . S
C2087 C2086 1.355 . S
C2087 C2089 1.419 . S
C2088 C2086 1.415 . S
C2088 C2093 1.425 . S
C2088 C2095 1.409 . S
C2089 H2081 0.930 . S
C2089 C2087 1.419 . S
C2089 C2090 1.362 . S
C2090 H2082 0.930 . S
C2090 C2089 1.362 . S
C2090 C2093 1.409 . S
C2091 H2083 0.930 . S
C2091 C2092 1.355 . S
C2091 C2093 1.415 . S
C2092 C2091 1.355 . S
C2092 C2094 1.419 . S
C2093 C2088 1.425 . S
C2093 C2090 1.409 . S
C2093 C2091 1.415 . S
C2094 H2084 0.930 . S
C2094 C2092 1.419 . S
C2094 C2095 1.362 . S
C2095 H2085 0.930 . S
C2095 C2088 1.409 . S
C2095 C2094 1.362 . S
H2096 C2102 0.930 . S
H2097 C2105 0.930 . S
H2098 C2106 0.930 . S
H2099 C2107 0.930 . S
H2100 C2110 0.930 . S
H2101 C2111 0.930 . S
C2102 H2096 0.930 . S
C2102 C2103 1.355 . S
C2102 C2104 1.415 . S
C2103 C2102 1.355 . S
C2103 C2105 1.419 . S
C2104 C2102 1.415 . S
C2104 C2109 1.425 . S
C2104 C2111 1.409 . S
C2105 H2097 0.930 . S
C2105 C2103 1.419 . S
C2105 C2106 1.362 . S
C2106 H2098 0.930 . S
C2106 C2105 1.362 . S
C2106 C2109 1.409 . S
C2107 H2099 0.930 . S
C2107 C2108 1.355 . S
C2107 C2109 1.415 . S
C2108 C2107 1.355 . S
C2108 C2110 1.419 . S
C2109 C2104 1.425 . S
C2109 C2106 1.409 . S
C2109 C2107 1.415 . S
C2110 H2100 0.930 . S
C2110 C2108 1.419 . S
C2110 C2111 1.362 . S
C2111 H2101 0.930 . S
C2111 C2104 1.409 . S
C2111 C2110 1.362 . S
H2112 C2118 0.930 . S
H2113 C2121 0.930 . S
H2114 C2122 0.930 . S
H2115 C2123 0.930 . S
H2116 C2126 0.930 . S
H2117 C2127 0.930 . S
C2118 H2112 0.930 . S
C2118 C2119 1.355 . S
C2118 C2120 1.415 . S
C2119 C2118 1.355 . S
C2119 C2121 1.419 . S
C2120 C2118 1.415 . S
C2120 C2125 1.425 . S
C2120 C2127 1.409 . S
C2121 H2113 0.930 . S
C2121 C2119 1.419 . S
C2121 C2122 1.362 . S
C2122 H2114 0.930 . S
C2122 C2121 1.362 . S
C2122 C2125 1.409 . S
C2123 H2115 0.930 . S
C2123 C2124 1.355 . S
C2123 C2125 1.415 . S
C2124 C2123 1.355 . S
C2124 C2126 1.419 . S
C2125 C2120 1.425 . S
C2125 C2122 1.409 . S
C2125 C2123 1.415 . S
C2126 H2116 0.930 . S
C2126 C2124 1.419 . S
C2126 C2127 1.362 . S
C2127 H2117 0.930 . S
C2127 C2120 1.409 . S
C2127 C2126 1.362 . S
H2128 C2134 0.930 . S
H2129 C2137 0.930 . S
H2130 C2138 0.930 . S
H2131 C2139 0.930 . S
H2132 C2142 0.930 . S
H2133 C2143 0.930 . S
C2134 H2128 0.930 . S
C2134 C2135 1.355 . S
C2134 C2136 1.415 . S
C2135 C2134 1.355 . S
C2135 C2137 1.419 . S
C2136 C2134 1.415 . S
C2136 C2141 1.425 . S
C2136 C2143 1.409 . S
C2137 H2129 0.930 . S
C2137 C2135 1.419 . S
C2137 C2138 1.362 . S
C2138 H2130 0.930 . S
C2138 C2137 1.362 . S
C2138 C2141 1.409 . S
C2139 H2131 0.930 . S
C2139 C2140 1.355 . S
C2139 C2141 1.415 . S
C2140 C2139 1.355 . S
C2140 C2142 1.419 . S
C2141 C2136 1.425 . S
C2141 C2138 1.409 . S
C2141 C2139 1.415 . S
C2142 H2132 0.930 . S
C2142 C2140 1.419 . S
C2142 C2143 1.362 . S
C2143 H2133 0.930 . S
C2143 C2136 1.409 . S
C2143 C2142 1.362 . S
H2144 C2150 0.930 . S
H2145 C2153 0.930 . S
H2146 C2154 0.930 . S
H2147 C2155 0.930 . S
H2148 C2158 0.930 . S
H2149 C2159 0.930 . S
C2150 H2144 0.930 . S
C2150 C2151 1.355 . S
C2150 C2152 1.415 . S
C2151 C2150 1.355 . S
C2151 C2153 1.419 . S
C2152 C2150 1.415 . S
C2152 C2157 1.425 . S
C2152 C2159 1.409 . S
C2153 H2145 0.930 . S
C2153 C2151 1.419 . S
C2153 C2154 1.362 . S
C2154 H2146 0.930 . S
C2154 C2153 1.362 . S
C2154 C2157 1.409 . S
C2155 H2147 0.930 . S
C2155 C2156 1.355 . S
C2155 C2157 1.415 . S
C2156 C2155 1.355 . S
C2156 C2158 1.419 . S
C2157 C2152 1.425 . S
C2157 C2154 1.409 . S
C2157 C2155 1.415 . S
C2158 H2148 0.930 . S
C2158 C2156 1.419 . S
C2158 C2159 1.362 . S
C2159 H2149 0.930 . S
C2159 C2152 1.409 . S
C2159 C2158 1.362 . S
H2160 C2166 0.930 . S
H2161 C2169 0.930 . S
H2162 C2170 0.930 . S
H2163 C2171 0.930 . S
H2164 C2174 0.930 . S
H2165 C2175 0.930 . S
C2166 H2160 0.930 . S
C2166 C2167 1.355 . S
C2166 C2168 1.415 . S
C2167 C2166 1.355 . S
C2167 C2169 1.419 . S
C2168 C2166 1.415 . S
C2168 C2173 1.425 . S
C2168 C2175 1.409 . S
C2169 H2161 0.930 . S
C2169 C2167 1.419 . S
C2169 C2170 1.362 . S
C2170 H2162 0.930 . S
C2170 C2169 1.362 . S
C2170 C2173 1.409 . S
C2171 H2163 0.930 . S
C2171 C2172 1.355 . S
C2171 C2173 1.415 . S
C2172 C2171 1.355 . S
C2172 C2174 1.419 . S
C2173 C2168 1.425 . S
C2173 C2170 1.409 . S
C2173 C2171 1.415 . S
C2174 H2164 0.930 . S
C2174 C2172 1.419 . S
C2174 C2175 1.362 . S
C2175 H2165 0.930 . S
C2175 C2168 1.409 . S
C2175 C2174 1.362 . S
H2176 C2182 0.930 . S
H2177 C2185 0.930 . S
H2178 C2186 0.930 . S
H2179 C2187 0.930 . S
H2180 C2190 0.930 . S
H2181 C2191 0.930 . S
C2182 H2176 0.930 . S
C2182 C2183 1.355 . S
C2182 C2184 1.415 . S
C2183 C2182 1.355 . S
C2183 C2185 1.419 . S
C2184 C2182 1.415 . S
C2184 C2189 1.425 . S
C2184 C2191 1.409 . S
C2185 H2177 0.930 . S
C2185 C2183 1.419 . S
C2185 C2186 1.362 . S
C2186 H2178 0.930 . S
C2186 C2185 1.362 . S
C2186 C2189 1.409 . S
C2187 H2179 0.930 . S
C2187 C2188 1.355 . S
C2187 C2189 1.415 . S
C2188 C2187 1.355 . S
C2188 C2190 1.419 . S
C2189 C2184 1.425 . S
C2189 C2186 1.409 . S
C2189 C2187 1.415 . S
C2190 H2180 0.930 . S
C2190 C2188 1.419 . S
C2190 C2191 1.362 . S
C2191 H2181 0.930 . S
C2191 C2184 1.409 . S
C2191 C2190 1.362 . S
H2192 C2198 0.930 . S
H2193 C2201 0.930 . S
H2194 C2202 0.930 . S
H2195 C2203 0.930 . S
H2196 C2206 0.930 . S
H2197 C2207 0.930 . S
C2198 H2192 0.930 . S
C2198 C2199 1.355 . S
C2198 C2200 1.415 . S
C2199 C2198 1.355 . S
C2199 C2201 1.419 . S
C2200 C2198 1.415 . S
C2200 C2205 1.425 . S
C2200 C2207 1.409 . S
C2201 H2193 0.930 . S
C2201 C2199 1.419 . S
C2201 C2202 1.362 . S
C2202 H2194 0.930 . S
C2202 C2201 1.362 . S
C2202 C2205 1.409 . S
C2203 H2195 0.930 . S
C2203 C2204 1.355 . S
C2203 C2205 1.415 . S
C2204 C2203 1.355 . S
C2204 C2206 1.419 . S
C2205 C2200 1.425 . S
C2205 C2202 1.409 . S
C2205 C2203 1.415 . S
C2206 H2196 0.930 . S
C2206 C2204 1.419 . S
C2206 C2207 1.362 . S
C2207 H2197 0.930 . S
C2207 C2200 1.409 . S
C2207 C2206 1.362 . S
H2208 C2214 0.930 . S
H2209 C2217 0.930 . S
H2210 C2218 0.930 . S
H2211 C2219 0.930 . S
H2212 C2222 0.930 . S
H2213 C2223 0.930 . S
C2214 H2208 0.930 . S
C2214 C2215 1.355 . S
C2214 C2216 1.415 . S
C2215 C2214 1.355 . S
C2215 C2217 1.419 . S
C2216 C2214 1.415 . S
C2216 C2221 1.425 . S
C2216 C2223 1.409 . S
C2217 H2209 0.930 . S
C2217 C2215 1.419 . S
C2217 C2218 1.362 . S
C2218 H2210 0.930 . S
C2218 C2217 1.362 . S
C2218 C2221 1.409 . S
C2219 H2211 0.930 . S
C2219 C2220 1.355 . S
C2219 C2221 1.415 . S
C2220 C2219 1.355 . S
C2220 C2222 1.419 . S
C2221 C2216 1.425 . S
C2221 C2218 1.409 . S
C2221 C2219 1.415 . S
C2222 H2212 0.930 . S
C2222 C2220 1.419 . S
C2222 C2223 1.362 . S
C2223 H2213 0.930 . S
C2223 C2216 1.409 . S
C2223 C2222 1.362 . S
H2224 C2230 0.930 . S
H2225 C2233 0.930 . S
H2226 C2234 0.930 . S
H2227 C2235 0.930 . S
H2228 C2238 0.930 . S
H2229 C2239 0.930 . S
C2230 H2224 0.930 . S
C2230 C2231 1.355 . S
C2230 C2232 1.415 . S
C2231 C2230 1.355 . S
C2231 C2233 1.419 . S
C2232 C2230 1.415 . S
C2232 C2237 1.425 . S
C2232 C2239 1.409 . S
C2233 H2225 0.930 . S
C2233 C2231 1.419 . S
C2233 C2234 1.362 . S
C2234 H2226 0.930 . S
C2234 C2233 1.362 . S
C2234 C2237 1.409 . S
C2235 H2227 0.930 . S
C2235 C2236 1.355 . S
C2235 C2237 1.415 . S
C2236 C2235 1.355 . S
C2236 C2238 1.419 . S
C2237 C2232 1.425 . S
C2237 C2234 1.409 . S
C2237 C2235 1.415 . S
C2238 H2228 0.930 . S
C2238 C2236 1.419 . S
C2238 C2239 1.362 . S
C2239 H2229 0.930 . S
C2239 C2232 1.409 . S
C2239 C2238 1.362 . S
H2240 C2246 0.930 . S
H2241 C2249 0.930 . S
H2242 C2250 0.930 . S
H2243 C2251 0.930 . S
H2244 C2254 0.930 . S
H2245 C2255 0.930 . S
C2246 H2240 0.930 . S
C2246 C2247 1.355 . S
C2246 C2248 1.415 . S
C2247 C2246 1.355 . S
C2247 C2249 1.419 . S
C2248 C2246 1.415 . S
C2248 C2253 1.425 . S
C2248 C2255 1.409 . S
C2249 H2241 0.930 . S
C2249 C2247 1.419 . S
C2249 C2250 1.362 . S
C2250 H2242 0.930 . S
C2250 C2249 1.362 . S
C2250 C2253 1.409 . S
C2251 H2243 0.930 . S
C2251 C2252 1.355 . S
C2251 C2253 1.415 . S
C2252 C2251 1.355 . S
C2252 C2254 1.419 . S
C2253 C2248 1.425 . S
C2253 C2250 1.409 . S
C2253 C2251 1.415 . S
C2254 H2244 0.930 . S
C2254 C2252 1.419 . S
C2254 C2255 1.362 . S
C2255 H2245 0.930 . S
C2255 C2248 1.409 . S
C2255 C2254 1.362 . S
H2256 C2262 0.930 . S
H2257 C2265 0.930 . S
H2258 C2266 0.930 . S
H2259 C2267 0.930 . S
H2260 C2270 0.930 . S
H2261 C2271 0.930 . S
C2262 H2256 0.930 . S
C2262 C2263 1.355 . S
C2262 C2264 1.415 . S
C2263 C2262 1.355 . S
C2263 C2265 1.419 . S
C2264 C2262 1.415 . S
C2264 C2269 1.425 . S
C2264 C2271 1.409 . S
C2265 H2257 0.930 . S
C2265 C2263 1.419 . S
C2265 C2266 1.362 . S
C2266 H2258 0.930 . S
C2266 C2265 1.362 . S
C2266 C2269 1.409 . S
C2267 H2259 0.930 . S
C2267 C2268 1.355 . S
C2267 C2269 1.415 . S
C2268 C2267 1.355 . S
C2268 C2270 1.419 . S
C2269 C2264 1.425 . S
C2269 C2266 1.409 . S
C2269 C2267 1.415 . S
C2270 H2260 0.930 . S
C2270 C2268 1.419 . S
C2270 C2271 1.362 . S
C2271 H2261 0.930 . S
C2271 C2264 1.409 . S
C2271 C2270 1.362 . S
H2272 C2278 0.930 . S
H2273 C2281 0.930 . S
H2274 C2282 0.930 . S
H2275 C2283 0.930 . S
H2276 C2286 0.930 . S
H2277 C2287 0.930 . S
C2278 H2272 0.930 . S
C2278 C2279 1.355 . S
C2278 C2280 1.415 . S
C2279 C2278 1.355 . S
C2279 C2281 1.419 . S
C2280 C2278 1.415 . S
C2280 C2285 1.425 . S
C2280 C2287 1.409 . S
C2281 H2273 0.930 . S
C2281 C2279 1.419 . S
C2281 C2282 1.362 . S
C2282 H2274 0.930 . S
C2282 C2281 1.362 . S
C2282 C2285 1.409 . S
C2283 H2275 0.930 . S
C2283 C2284 1.355 . S
C2283 C2285 1.415 . S
C2284 C2283 1.355 . S
C2284 C2286 1.419 . S
C2285 C2280 1.425 . S
C2285 C2282 1.409 . S
C2285 C2283 1.415 . S
C2286 H2276 0.930 . S
C2286 C2284 1.419 . S
C2286 C2287 1.362 . S
C2287 H2277 0.930 . S
C2287 C2280 1.409 . S
C2287 C2286 1.362 . S
H2288 C2294 0.930 . S
H2289 C2297 0.930 . S
H2290 C2298 0.930 . S
H2291 C2299 0.930 . S
H2292 C2302 0.930 . S
H2293 C2303 0.930 . S
C2294 H2288 0.930 . S
C2294 C2295 1.355 . S
C2294 C2296 1.415 . S
C2295 C2294 1.355 . S
C2295 C2297 1.419 . S
C2296 C2294 1.415 . S
C2296 C2301 1.425 1_655 S
C2296 C2303 1.409 . S
C2297 H2289 0.930 . S
C2297 C2295 1.419 . S
C2297 C2298 1.362 1_655 S
C2298 H2290 0.930 . S
C2298 C2297 1.362 1_455 S
C2298 C2301 1.409 . S
C2299 H2291 0.930 . S
C2299 C2300 1.355 . S
C2299 C2301 1.415 . S
C2300 C2299 1.355 . S
C2300 C2302 1.419 . S
C2301 C2296 1.425 1_455 S
C2301 C2298 1.409 . S
C2301 C2299 1.415 . S
C2302 H2292 0.930 . S
C2302 C2300 1.419 . S
C2302 C2303 1.362 1_455 S
C2303 H2293 0.930 . S
C2303 C2296 1.409 . S
C2303 C2302 1.362 1_655 S
H2304 C2310 0.930 . S
H2305 C2313 0.930 . S
H2306 C2314 0.930 . S
H2307 C2315 0.930 . S
H2308 C2318 0.930 . S
H2309 C2319 0.930 . S
C2310 H2304 0.930 . S
C2310 C2311 1.355 . S
C2310 C2312 1.415 . S
C2311 C2310 1.355 . S
C2311 C2313 1.419 . S
C2312 C2310 1.415 . S
C2312 C2317 1.425 . S
C2312 C2319 1.409 . S
C2313 H2305 0.930 . S
C2313 C2311 1.419 . S
C2313 C2314 1.362 . S
C2314 H2306 0.930 . S
C2314 C2313 1.362 . S
C2314 C2317 1.409 . S
C2315 H2307 0.930 . S
C2315 C2316 1.355 . S
C2315 C2317 1.415 . S
C2316 C2315 1.355 . S
C2316 C2318 1.419 . S
C2317 C2312 1.425 . S
C2317 C2314 1.409 . S
C2317 C2315 1.415 . S
C2318 H2308 0.930 . S
C2318 C2316 1.419 . S
C2318 C2319 1.362 . S
C2319 H2309 0.930 . S
C2319 C2312 1.409 . S
C2319 C2318 1.362 . S
H2320 C2326 0.930 . S
H2321 C2329 0.930 . S
H2322 C2330 0.930 . S
H2323 C2331 0.930 . S
H2324 C2334 0.930 . S
H2325 C2335 0.930 . S
C2326 H2320 0.930 . S
C2326 C2327 1.355 . S
C2326 C2328 1.415 . S
C2327 C2326 1.355 . S
C2327 C2329 1.419 . S
C2328 C2326 1.415 . S
C2328 C2333 1.425 . S
C2328 C2335 1.409 . S
C2329 H2321 0.930 . S
C2329 C2327 1.419 . S
C2329 C2330 1.362 . S
C2330 H2322 0.930 . S
C2330 C2329 1.362 . S
C2330 C2333 1.409 . S
C2331 H2323 0.930 . S
C2331 C2332 1.355 . S
C2331 C2333 1.415 . S
C2332 C2331 1.355 . S
C2332 C2334 1.419 . S
C2333 C2328 1.425 . S
C2333 C2330 1.409 . S
C2333 C2331 1.415 . S
C2334 H2324 0.930 . S
C2334 C2332 1.419 . S
C2334 C2335 1.362 . S
C2335 H2325 0.930 . S
C2335 C2328 1.409 . S
C2335 C2334 1.362 . S
H2336 C2342 0.930 . S
H2337 C2345 0.930 . S
H2338 C2346 0.930 . S
H2339 C2347 0.930 . S
H2340 C2350 0.930 . S
H2341 C2351 0.930 . S
C2342 H2336 0.930 . S
C2342 C2343 1.355 . S
C2342 C2344 1.415 . S
C2343 C2342 1.355 . S
C2343 C2345 1.419 . S
C2344 C2342 1.415 . S
C2344 C2349 1.425 . S
C2344 C2351 1.409 . S
C2345 H2337 0.930 . S
C2345 C2343 1.419 . S
C2345 C2346 1.362 . S
C2346 H2338 0.930 . S
C2346 C2345 1.362 . S
C2346 C2349 1.409 . S
C2347 H2339 0.930 . S
C2347 C2348 1.355 . S
C2347 C2349 1.415 . S
C2348 C2347 1.355 . S
C2348 C2350 1.419 . S
C2349 C2344 1.425 . S
C2349 C2346 1.409 . S
C2349 C2347 1.415 . S
C2350 H2340 0.930 . S
C2350 C2348 1.419 . S
C2350 C2351 1.362 . S
C2351 H2341 0.930 . S
C2351 C2344 1.409 . S
C2351 C2350 1.362 . S
H2352 C2358 0.930 . S
H2353 C2361 0.930 . S
H2354 C2362 0.930 . S
H2355 C2363 0.930 . S
H2356 C2366 0.930 1_455 S
H2357 C2367 0.930 1_455 S
C2358 H2352 0.930 . S
C2358 C2359 1.355 . S
C2358 C2360 1.415 . S
C2359 C2358 1.355 . S
C2359 C2361 1.419 . S
C2360 C2358 1.415 . S
C2360 C2365 1.425 . S
C2360 C2367 1.409 . S
C2361 H2353 0.930 . S
C2361 C2359 1.419 . S
C2361 C2362 1.362 . S
C2362 H2354 0.930 . S
C2362 C2361 1.362 . S
C2362 C2365 1.409 . S
C2363 H2355 0.930 . S
C2363 C2364 1.355 . S
C2363 C2365 1.415 . S
C2364 C2363 1.355 . S
C2364 C2366 1.419 . S
C2365 C2360 1.425 . S
C2365 C2362 1.409 . S
C2365 C2363 1.415 . S
C2366 H2356 0.930 1_655 S
C2366 C2364 1.419 . S
C2366 C2367 1.362 . S
C2367 H2357 0.930 1_655 S
C2367 C2360 1.409 . S
C2367 C2366 1.362 . S
H2368 C2374 0.930 . S
H2369 C2377 0.930 . S
H2370 C2378 0.930 . S
H2371 C2379 0.930 . S
H2372 C2382 0.930 . S
H2373 C2383 0.930 . S
C2374 H2368 0.930 . S
C2374 C2375 1.355 . S
C2374 C2376 1.415 . S
C2375 C2374 1.355 . S
C2375 C2377 1.419 . S
C2376 C2374 1.415 . S
C2376 C2381 1.425 . S
C2376 C2383 1.409 . S
C2377 H2369 0.930 . S
C2377 C2375 1.419 . S
C2377 C2378 1.362 . S
C2378 H2370 0.930 . S
C2378 C2377 1.362 . S
C2378 C2381 1.409 . S
C2379 H2371 0.930 . S
C2379 C2380 1.355 . S
C2379 C2381 1.415 . S
C2380 C2379 1.355 . S
C2380 C2382 1.419 . S
C2381 C2376 1.425 . S
C2381 C2378 1.409 . S
C2381 C2379 1.415 . S
C2382 H2372 0.930 . S
C2382 C2380 1.419 . S
C2382 C2383 1.362 . S
C2383 H2373 0.930 . S
C2383 C2376 1.409 . S
C2383 C2382 1.362 . S
H2384 C2390 0.930 . S
H2385 C2393 0.930 . S
H2386 C2394 0.930 . S
H2387 C2395 0.930 . S
H2388 C2398 0.930 . S
H2389 C2399 0.930 . S
C2390 H2384 0.930 . S
C2390 C2391 1.355 . S
C2390 C2392 1.415 . S
C2391 C2390 1.355 . S
C2391 C2393 1.419 . S
C2392 C2390 1.415 . S
C2392 C2397 1.425 . S
C2392 C2399 1.409 . S
C2393 H2385 0.930 . S
C2393 C2391 1.419 . S
C2393 C2394 1.362 . S
C2394 H2386 0.930 . S
C2394 C2393 1.362 . S
C2394 C2397 1.409 . S
C2395 H2387 0.930 . S
C2395 C2396 1.355 . S
C2395 C2397 1.415 . S
C2396 C2395 1.355 . S
C2396 C2398 1.419 . S
C2397 C2392 1.425 . S
C2397 C2394 1.409 . S
C2397 C2395 1.415 . S
C2398 H2388 0.930 . S
C2398 C2396 1.419 . S
C2398 C2399 1.362 . S
C2399 H2389 0.930 . S
C2399 C2392 1.409 . S
C2399 C2398 1.362 . S
H2400 C2406 0.930 . S
H2401 C2409 0.930 . S
H2402 C2410 0.930 . S
H2403 C2411 0.930 1_545 S
H2404 C2414 0.930 . S
H2405 C2415 0.930 . S
C2406 H2400 0.930 . S
C2406 C2407 1.355 . S
C2406 C2408 1.415 . S
C2407 C2406 1.355 . S
C2407 C2409 1.419 . S
C2408 C2406 1.415 . S
C2408 C2413 1.425 . S
C2408 C2415 1.409 . S
C2409 H2401 0.930 . S
C2409 C2407 1.419 . S
C2409 C2410 1.362 . S
C2410 H2402 0.930 . S
C2410 C2409 1.362 . S
C2410 C2413 1.409 . S
C2411 H2403 0.930 1_565 S
C2411 C2412 1.364 . S
C2411 C2413 1.415 . S
C2412 C2411 1.364 . S
C2412 C2414 1.422 . S
C2413 C2408 1.425 . S
C2413 C2410 1.409 . S
C2413 C2411 1.415 . S
C2414 H2404 0.930 . S
C2414 C2412 1.422 . S
C2414 C2415 1.362 . S
C2415 H2405 0.930 . S
C2415 C2408 1.409 . S
C2415 C2414 1.362 . S
H2416 C2422 0.930 . S
H2417 C2425 0.930 . S
H2418 C2426 0.930 . S
H2419 C2427 0.930 . S
H2420 C2430 0.930 . S
H2421 C2431 0.930 . S
C2422 H2416 0.930 . S
C2422 C2423 1.355 . S
C2422 C2424 1.415 . S
C2423 C2422 1.355 . S
C2423 C2425 1.419 . S
C2424 C2422 1.415 . S
C2424 C2429 1.425 . S
C2424 C2431 1.409 . S
C2425 H2417 0.930 . S
C2425 C2423 1.419 . S
C2425 C2426 1.362 . S
C2426 H2418 0.930 . S
C2426 C2425 1.362 . S
C2426 C2429 1.409 . S
C2427 H2419 0.930 . S
C2427 C2428 1.355 . S
C2427 C2429 1.415 . S
C2428 C2427 1.355 . S
C2428 C2430 1.419 . S
C2429 C2424 1.425 . S
C2429 C2426 1.409 . S
C2429 C2427 1.415 . S
C2430 H2420 0.930 . S
C2430 C2428 1.419 . S
C2430 C2431 1.362 . S
C2431 H2421 0.930 . S
C2431 C2424 1.409 . S
C2431 C2430 1.362 . S
H2432 C2438 0.930 . S
H2433 C2441 0.930 . S
H2434 C2442 0.930 . S
H2435 C2443 0.930 . S
H2436 C2446 0.930 . S
H2437 C2447 0.930 . S
C2438 H2432 0.930 . S
C2438 C2439 1.355 . S
C2438 C2440 1.415 . S
C2439 C2438 1.355 . S
C2439 C2441 1.419 1_554 S
C2440 C2438 1.415 . S
C2440 C2445 1.425 . S
C2440 C2447 1.409 . S
C2441 H2433 0.930 . S
C2441 C2439 1.419 1_556 S
C2441 C2442 1.362 . S
C2442 H2434 0.930 . S
C2442 C2441 1.362 . S
C2442 C2445 1.409 1_556 S
C2443 H2435 0.930 . S
C2443 C2444 1.355 1_556 S
C2443 C2445 1.415 1_556 S
C2444 C2443 1.355 1_554 S
C2444 C2446 1.419 . S
C2445 C2440 1.425 . S
C2445 C2442 1.409 1_554 S
C2445 C2443 1.415 1_554 S
C2446 H2436 0.930 . S
C2446 C2444 1.419 . S
C2446 C2447 1.362 . S
C2447 H2437 0.930 . S
C2447 C2440 1.409 . S
C2447 C2446 1.362 . S
H2448 C2454 0.930 . S
H2449 C2457 0.930 . S
H2450 C2458 0.930 . S
H2451 C2459 0.930 . S
H2452 C2462 0.930 . S
H2453 C2463 0.930 . S
C2454 H2448 0.930 . S
C2454 C2455 1.355 . S
C2454 C2456 1.415 . S
C2455 C2454 1.355 . S
C2455 C2457 1.419 . S
C2456 C2454 1.415 . S
C2456 C2461 1.425 . S
C2456 C2463 1.409 . S
C2457 H2449 0.930 . S
C2457 C2455 1.419 . S
C2457 C2458 1.362 . S
C2458 H2450 0.930 . S
C2458 C2457 1.362 . S
C2458 C2461 1.409 . S
C2459 H2451 0.930 . S
C2459 C2460 1.355 . S
C2459 C2461 1.415 . S
C2460 C2459 1.355 . S
C2460 C2462 1.419 . S
C2461 C2456 1.425 . S
C2461 C2458 1.409 . S
C2461 C2459 1.415 . S
C2462 H2452 0.930 . S
C2462 C2460 1.419 . S
C2462 C2463 1.362 . S
C2463 H2453 0.930 . S
C2463 C2456 1.409 . S
C2463 C2462 1.362 . S
H2464 C2470 0.930 . S
H2465 C2473 0.930 . S
H2466 C2474 0.930 . S
H2467 C2475 0.930 . S
H2468 C2478 0.930 . S
H2469 C2479 0.930 . S
C2470 H2464 0.930 . S
C2470 C2471 1.355 1_556 S
C2470 C2472 1.415 . S
C2471 C2470 1.355 1_554 S
C2471 C2473 1.419 . S
C2472 C2470 1.415 . S
C2472 C2477 1.425 1_556 S
C2472 C2479 1.409 . S
C2473 H2465 0.930 . S
C2473 C2471 1.419 . S
C2473 C2474 1.362 . S
C2474 H2466 0.930 . S
C2474 C2473 1.362 . S
C2474 C2477 1.409 . S
C2475 H2467 0.930 . S
C2475 C2476 1.355 1_554 S
C2475 C2477 1.415 . S
C2476 C2475 1.355 1_556 S
C2476 C2478 1.419 . S
C2477 C2472 1.425 1_554 S
C2477 C2474 1.409 . S
C2477 C2475 1.415 . S
C2478 H2468 0.930 . S
C2478 C2476 1.419 . S
C2478 C2479 1.362 . S
C2479 H2469 0.930 . S
C2479 C2472 1.409 . S
C2479 C2478 1.362 . S
H2480 C2486 0.930 . S
H2481 C2489 0.930 . S
H2482 C2490 0.930 . S
H2483 C2491 0.930 . S
H2484 C2494 0.930 . S
H2485 C2495 0.930 . S
C2486 H2480 0.930 . S
C2486 C2487 1.355 . S
C2486 C2488 1.415 . S
C2487 C2486 1.355 . S
C2487 C2489 1.419 . S
C2488 C2486 1.415 . S
C2488 C2493 1.425 . S
C2488 C2495 1.409 . S
C2489 H2481 0.930 . S
C2489 C2487 1.419 . S
C2489 C2490 1.362 . S
C2490 H2482 0.930 . S
C2490 C2489 1.362 . S
C2490 C2493 1.409 . S
C2491 H2483 0.930 . S
C2491 C2492 1.355 . S
C2491 C2493 1.415 . S
C2492 C2491 1.355 . S
C2492 C2494 1.419 . S
C2493 C2488 1.425 . S
C2493 C2490 1.409 . S
C2493 C2491 1.415 . S
C2494 H2484 0.930 . S
C2494 C2492 1.419 . S
C2494 C2495 1.362 . S
C2495 H2485 0.930 . S
C2495 C2488 1.409 . S
C2495 C2494 1.362 . S
H2496 C2502 0.930 . S
H2497 C2505 0.930 . S
H2498 C2506 0.930 . S
H2499 C2507 0.930 . S
H2500 C2510 0.930 . S
H2501 C2511 0.930 . S
C2502 H2496 0.930 . S
C2502 C2503 1.355 . S
C2502 C2504 1.415 . S
C2503 C2502 1.355 . S
C2503 C2505 1.419 . S
C2504 C2502 1.415 . S
C2504 C2509 1.425 . S
C2504 C2511 1.409 . S
C2505 H2497 0.930 . S
C2505 C2503 1.419 . S
C2505 C2506 1.362 . S
C2506 H2498 0.930 . S
C2506 C2505 1.362 . S
C2506 C2509 1.409 . S
C2507 H2499 0.930 . S
C2507 C2508 1.355 . S
C2507 C2509 1.415 . S
C2508 C2507 1.355 . S
C2508 C2510 1.419 . S
C2509 C2504 1.425 . S
C2509 C2506 1.409 . S
C2509 C2507 1.415 . S
C2510 H2500 0.930 . S
C2510 C2508 1.419 . S
C2510 C2511 1.362 . S
C2511 H2501 0.930 . S
C2511 C2504 1.409 . S
C2511 C2510 1.362 . S
C983 C105 2.335 . S
C988 C338 2.293 1_556 S
C999 C65 2.190 . S
C1004 C395 2.207 . S
C1015 C73 1.332 . S
C1020 C418 1.258 . S
C1036 C472 1.387 . S
C1031 C92 1.398 . S
C1047 C17 1.483 . S
C1052 C512 1.411 . S
C1068 C543 0.721 . S
C1063 C37 0.632 . S
C1084 C595 1.443 . S
C1079 C49 1.211 . S
C1095 C8 1.909 . S
C1100 C618 1.861 . S
C1116 C355 2.509 . S
C1111 C231 2.468 . S
C1127 C241 0.662 . S
C1132 C392 0.679 . S
C1148 C435 1.295 . S
C1143 C273 1.261 . S
C1164 C458 1.420 . S
C1159 C171 1.408 . S
C1175 C227 1.987 . S
C1180 C498 1.965 . S
C1196 C546 1.448 . S
C1191 C245 1.433 . S
C1212 C592 0.604 . S
C1207 C269 0.481 . S
C1228 C635 2.135 . S
C1223 C175 2.119 . S
C1244 C352 1.523 1_565 S
C1239 C162 1.601 . S
C1255 C289 1.988 1_554 S
C1260 C675 1.993 1_556 S
C1276 C707 2.622 . S
C1271 C330 2.684 . S
C1292 C738 0.711 1_655 S
C1287 C317 0.658 . S
C1303 C120 1.601 . S
C1308 C632 1.538 . S
C1319 C134 1.634 . S
C1324 C432 1.614 . S
C1335 C331 2.232 . S
C1340 C795 2.220 . S
C1356 C818 0.755 . S
C1351 C303 0.651 . S
C1372 C347 2.332 . S
C1367 C59 2.322 . S
C1388 C826 2.226 . S
C1383 C107 2.221 . S
C1399 C91 1.344 . S
C1404 C427 1.369 . S
C1415 C78 1.443 . S
C1420 C783 1.425 . S
C1436 C503 1.482 . S
C1431 C7 1.440 . S
C1447 C51 0.670 . S
C1452 C712 0.621 . S
C1468 C586 1.537 . S
C1463 C31 1.490 . S
C1484 C867 1.868 . S
C1479 C22 1.911 . S
C1500 C346 2.527 . S
C1495 C143 2.539 . S
C1516 C823 0.599 . S
C1511 C315 0.615 . S
C1527 C115 1.334 . S
C1532 C426 1.340 . S
C1543 C287 1.441 . S
C1548 C787 1.422 . S
C1559 C147 1.872 . S
C1564 C507 1.962 . S
C1580 C715 1.448 . S
C1575 C311 1.496 . S
C1591 C119 0.609 1_545 S
C1596 C583 0.562 . S
C1607 C283 2.144 . S
C1612 C866 2.131 . S
C1623 C190 1.618 . S
C1628 C343 1.588 . S
C1639 C177 2.018 . S
C1644 C666 2.033 . S
C1655 C260 2.678 . S
C1660 C538 2.648 . S
C1671 C247 0.730 . S
C1676 C747 0.763 . S
C1692 C863 1.587 . S
C1687 C274 1.604 . S
C1703 C218 1.637 . S
C1708 C423 1.614 . S
C1724 C466 2.249 . S
C1719 C261 2.255 . S
C1740 C387 0.686 . S
C1735 C205 0.638 . S
C1751 C77 2.337 . S
C1756 C898 2.297 . S
C1772 C835 2.207 . S
C1767 C93 2.191 . S
C1783 C101 1.296 . S
C1788 C938 1.316 . S
C1799 C64 1.401 . S
C1804 C792 1.395 . S
C1815 C45 1.488 . S
C1820 C672 1.419 . S
C1836 C703 0.655 . S
C1831 C9 0.663 . S
C1852 C755 1.460 . S
C1847 C21 1.219 . S
C1868 C858 1.870 . S
C1863 C36 1.938 . S
C1884 C915 2.508 . S
C1879 C259 2.451 . S
C1895 C185 0.642 . S
C1900 C832 0.607 . S
C1916 C955 1.287 . S
C1911 C203 1.299 . S
C1932 C778 1.424 . S
C1927 C213 1.394 . S
C1948 C658 1.936 . S
C1943 C255 1.991 . S
C1959 C189 1.438 . S
C1964 C706 1.451 . S
C1980 C752 0.555 . S
C1975 C199 0.472 . S
C1991 C217 2.138 . S
C1996 C875 2.115 . S
C2012 C912 1.593 . S
C2007 C316 1.642 . S
C2023 C135 2.004 . S
C2028 C515 2.002 . S
C2044 C547 2.633 . S
C2039 C148 2.661 . S
C2060 C578 0.723 . S
C2055 C163 0.659 . S
C2076 C872 1.547 . S
C2071 C302 1.603 . S
C2087 C288 1.643 . S
C2092 C952 1.589 . S
C2108 C475 2.223 . S
C2103 C149 2.235 . S
C2124 C378 0.577 . S
C2119 C121 0.611 . S
C2135 C87 2.336 . S
C2140 C907 2.321 . S
C2156 C386 2.237 . S
C2151 C79 2.225 . S
C2167 C63 1.337 . S
C2172 C947 1.332 . S
C2183 C106 1.403 . S
C2188 C463 1.384 . S
C2199 C35 1.345 . S
C2204 C663 1.405 . S
C2220 C552 0.681 . S
C2215 C23 0.652 . S
C2231 C3 1.514 . S
C2236 C746 1.539 . S
C2247 C50 1.878 . S
C2252 C627 1.868 . S
C2268 C906 2.528 . S
C2263 C325 2.540 . S
C2279 C161 0.657 . S
C2284 C383 0.619 . S
C2300 C946 1.342 . S
C2295 C297 1.329 . S
C2311 C133 1.451 . S
C2316 C467 1.420 . S
C2327 C329 1.935 . S
C2332 C667 1.995 . S
C2348 C555 1.489 . S
C2343 C157 1.488 . S
C2359 C301 0.509 . S
C2364 C743 0.445 . S
C2380 C626 2.154 . S
C2375 C129 2.161 . S
C2396 C903 1.525 . S
C2391 C246 1.569 . S
C2412 C506 2.019 1_665 S
C2407 C219 2.030 . S
C2423 C232 2.678 . S
C2428 C698 2.650 . S
C2444 C587 0.746 . S
C2439 C191 0.764 . S
C2455 C204 1.557 . S
C2460 C623 1.545 . S
C2471 C176 1.624 . S
C2476 C943 1.624 . S
C2492 C786 2.265 . S
C2487 C233 2.257 1_565 S
C2508 C827 0.755 . S
C2503 C275 0.653 . S
