# Generated by pormake.
# Topology ssb, (4,4)-cn, num edge types: 1
# Building blocks:
#     Node 0, Type 0, BuildingBlock: NAWXER_clean_sbu_0, # of connection points: 4
#     Node 1, Type 0, BuildingBlock: NAWXER_clean_sbu_0, # of connection points: 4
#     Node 2, Type 0, BuildingBlock: NAWXER_clean_sbu_0, # of connection points: 4
#     Node 3, Type 0, BuildingBlock: NAWXER_clean_sbu_0, # of connection points: 4
#     Node 4, Type 0, BuildingBlock: NAWXER_clean_sbu_0, # of connection points: 4
#     Node 5, Type 0, BuildingBlock: NAWXER_clean_sbu_0, # of connection points: 4
#     Node 6, Type 0, BuildingBlock: NAWXER_clean_sbu_0, # of connection points: 4
#     Node 7, Type 0, BuildingBlock: NAWXER_clean_sbu_0, # of connection points: 4
#     Node 8, Type 1, BuildingBlock: KOZSID_clean_sbu_0, # of connection points: 4
#     Node 9, Type 1, BuildingBlock: KOZSID_clean_sbu_0, # of connection points: 4
#     Node 10, Type 1, BuildingBlock: KOZSID_clean_sbu_0, # of connection points: 4
#     Node 11, Type 1, BuildingBlock: KOZSID_clean_sbu_0, # of connection points: 4
#     Node 12, Type 1, BuildingBlock: KOZSID_clean_sbu_0, # of connection points: 4
#     Node 13, Type 1, BuildingBlock: KOZSID_clean_sbu_0, # of connection points: 4
#     Node 14, Type 1, BuildingBlock: KOZSID_clean_sbu_0, # of connection points: 4
#     Node 15, Type 1, BuildingBlock: KOZSID_clean_sbu_0, # of connection points: 4
#     Edge 16, Type (0, 1), BuildingBlock: ZUJKAS_clean_linker_0, # of connection points: 2
#     Edge 17, Type (0, 1), BuildingBlock: ZUJKAS_clean_linker_0, # of connection points: 2
#     Edge 18, Type (0, 1), BuildingBlock: ZUJKAS_clean_linker_0, # of connection points: 2
#     Edge 19, Type (0, 1), BuildingBlock: ZUJKAS_clean_linker_0, # of connection points: 2
#     Edge 20, Type (0, 1), BuildingBlock: ZUJKAS_clean_linker_0, # of connection points: 2
#     Edge 21, Type (0, 1), BuildingBlock: ZUJKAS_clean_linker_0, # of connection points: 2
#     Edge 22, Type (0, 1), BuildingBlock: ZUJKAS_clean_linker_0, # of connection points: 2
#     Edge 23, Type (0, 1), BuildingBlock: ZUJKAS_clean_linker_0, # of connection points: 2
#     Edge 24, Type (0, 1), BuildingBlock: ZUJKAS_clean_linker_0, # of connection points: 2
#     Edge 25, Type (0, 1), BuildingBlock: ZUJKAS_clean_linker_0, # of connection points: 2
#     Edge 26, Type (0, 1), BuildingBlock: ZUJKAS_clean_linker_0, # of connection points: 2
#     Edge 27, Type (0, 1), BuildingBlock: ZUJKAS_clean_linker_0, # of connection points: 2
#     Edge 28, Type (0, 1), BuildingBlock: ZUJKAS_clean_linker_0, # of connection points: 2
#     Edge 29, Type (0, 1), BuildingBlock: ZUJKAS_clean_linker_0, # of connection points: 2
#     Edge 30, Type (0, 1), BuildingBlock: ZUJKAS_clean_linker_0, # of connection points: 2
#     Edge 31, Type (0, 1), BuildingBlock: ZUJKAS_clean_linker_0, # of connection points: 2
#     Edge 32, Type (0, 1), BuildingBlock: ZUJKAS_clean_linker_0, # of connection points: 2
#     Edge 33, Type (0, 1), BuildingBlock: ZUJKAS_clean_linker_0, # of connection points: 2
#     Edge 34, Type (0, 1), BuildingBlock: ZUJKAS_clean_linker_0, # of connection points: 2
#     Edge 35, Type (0, 1), BuildingBlock: ZUJKAS_clean_linker_0, # of connection points: 2
#     Edge 36, Type (0, 1), BuildingBlock: ZUJKAS_clean_linker_0, # of connection points: 2
#     Edge 37, Type (0, 1), BuildingBlock: ZUJKAS_clean_linker_0, # of connection points: 2
#     Edge 38, Type (0, 1), BuildingBlock: ZUJKAS_clean_linker_0, # of connection points: 2
#     Edge 39, Type (0, 1), BuildingBlock: ZUJKAS_clean_linker_0, # of connection points: 2
#     Edge 40, Type (0, 1), BuildingBlock: ZUJKAS_clean_linker_0, # of connection points: 2
#     Edge 41, Type (0, 1), BuildingBlock: ZUJKAS_clean_linker_0, # of connection points: 2
#     Edge 42, Type (0, 1), BuildingBlock: ZUJKAS_clean_linker_0, # of connection points: 2
#     Edge 43, Type (0, 1), BuildingBlock: ZUJKAS_clean_linker_0, # of connection points: 2
#     Edge 44, Type (0, 1), BuildingBlock: ZUJKAS_clean_linker_0, # of connection points: 2
#     Edge 45, Type (0, 1), BuildingBlock: ZUJKAS_clean_linker_0, # of connection points: 2
#     Edge 46, Type (0, 1), BuildingBlock: ZUJKAS_clean_linker_0, # of connection points: 2
#     Edge 47, Type (0, 1), BuildingBlock: ZUJKAS_clean_linker_0, # of connection points: 2
# Relax obj value: 0.003
# Max RMSD: 0.024
# Mean RMSD: 0.013
data_MOF--net-ssb--node1-NAWXER_clean_sbu_0--node2-KOZSID_clean_sbu_0--edge1-ZUJKAS_clean_linker_0
_symmetry_space_group_name_H-M    P1
_symmetry_Int_Tables_number       1
_symmetry_cell_setting            triclinic
loop_
_symmetry_equiv_pos_as_xyz
'x, y, z'
_cell_length_a     67.580301
_cell_length_b     67.384764
_cell_length_c     49.323399
_cell_angle_alpha  92.022673
_cell_angle_beta   94.040579
_cell_angle_gamma 90.00773
loop_
_atom_site_label
_atom_site_type_symbol
_atom_site_fract_x
_atom_site_fract_y
_atom_site_fract_z
_atom_type_partial_charge
C0 C 0.2182 0.24326 0.27532 0.0
C1 C 0.2787 0.22978 0.22754 0.0
O2 O 0.21926 0.23362 0.2528 0.0
Zn3 Zn 0.24795 0.23598 0.25051 0.0
O4 O 0.23402 0.2509 0.28723 0.0
Zn5 Zn 0.26512 0.25269 0.2817 0.0
O6 O 0.26907 0.28147 0.27667 0.0
O7 O 0.25163 0.26686 0.24226 0.0
O8 O 0.28165 0.24028 0.24966 0.0
O9 O 0.26126 0.22355 0.22036 0.0
O10 O 0.25871 0.21892 0.28459 0.0
O11 O 0.2761 0.2385 0.31392 0.0
C12 C 0.25993 0.28257 0.25326 0.0
C13 C 0.26897 0.22134 0.30736 0.0
C14 C 0.7184 0.24464 0.21607 0.0
C15 C 0.78162 0.25161 0.27119 0.0
O16 O 0.71682 0.25386 0.23901 0.0
Zn17 Zn 0.73556 0.26354 0.27391 0.0
O18 O 0.73535 0.23858 0.20975 0.0
Zn19 Zn 0.75041 0.24801 0.24278 0.0
O20 O 0.73933 0.22997 0.27323 0.0
O21 O 0.7249 0.24941 0.30295 0.0
O22 O 0.77885 0.2433 0.24765 0.0
O23 O 0.76686 0.2595 0.28247 0.0
O24 O 0.73292 0.29208 0.27362 0.0
O25 O 0.74902 0.27952 0.23959 0.0
C26 C 0.73007 0.23216 0.29496 0.0
C27 C 0.74206 0.29459 0.25234 0.0
C28 C 0.75937 0.73424 0.22392 0.0
C29 C 0.75105 0.79639 0.28043 0.0
O30 O 0.74991 0.73221 0.24531 0.0
Zn31 Zn 0.73971 0.74974 0.27884 0.0
O32 O 0.76562 0.75146 0.21869 0.0
Zn33 Zn 0.75548 0.7661 0.25038 0.0
O34 O 0.77337 0.75395 0.28307 0.0
O35 O 0.75451 0.73794 0.30981 0.0
O36 O 0.75952 0.79494 0.25816 0.0
O37 O 0.74322 0.7808 0.2894 0.0
O38 O 0.71096 0.74659 0.27245 0.0
O39 O 0.72423 0.76355 0.24087 0.0
C40 C 0.77165 0.74376 0.30422 0.0
C41 C 0.70894 0.75577 0.2503 0.0
C42 C 0.2624 0.70857 0.2585 0.0
C43 C 0.27562 0.77423 0.29957 0.0
O44 O 0.2539 0.72241 0.2448 0.0
Zn45 Zn 0.25168 0.75425 0.24706 0.0
O46 O 0.27299 0.71294 0.28021 0.0
Zn47 Zn 0.26928 0.7412 0.27921 0.0
O48 O 0.23833 0.74421 0.28581 0.0
O49 O 0.22346 0.75846 0.25033 0.0
O50 O 0.28178 0.75766 0.30829 0.0
O51 O 0.26461 0.77472 0.27736 0.0
O52 O 0.26383 0.76192 0.21442 0.0
O53 O 0.28501 0.74853 0.24452 0.0
C54 C 0.22253 0.75098 0.27353 0.0
C55 C 0.28136 0.75623 0.22129 0.0
C56 C 0.29486 0.75704 0.75874 0.0
C57 C 0.22969 0.74564 0.71033 0.0
O58 O 0.28067 0.766 0.77005 0.0
Zn59 Zn 0.24887 0.76857 0.76414 0.0
O60 O 0.29115 0.74639 0.73715 0.0
Zn61 Zn 0.26275 0.75096 0.73405 0.0
O62 O 0.26112 0.78229 0.726 0.0
O63 O 0.2453 0.79725 0.75849 0.0
O64 O 0.24635 0.73911 0.70353 0.0
O65 O 0.229 0.75637 0.73222 0.0
O66 O 0.24033 0.7553 0.79665 0.0
O67 O 0.25443 0.73473 0.76832 0.0
C68 C 0.25399 0.79822 0.73647 0.0
C69 C 0.24629 0.73783 0.79079 0.0
C70 C 0.25625 0.25491 0.72232 0.0
C71 C 0.24374 0.31681 0.77186 0.0
O72 O 0.24656 0.25256 0.74341 0.0
Zn73 Zn 0.2348 0.27019 0.77539 0.0
O74 O 0.26132 0.27227 0.71617 0.0
Zn75 Zn 0.24998 0.28607 0.74634 0.0
O76 O 0.26832 0.27587 0.78029 0.0
O77 O 0.24956 0.26013 0.80742 0.0
O78 O 0.25286 0.31452 0.75031 0.0
O79 O 0.23647 0.30165 0.78267 0.0
O80 O 0.20645 0.26518 0.769 0.0
O81 O 0.2188 0.28185 0.7364 0.0
C82 C 0.2666 0.26624 0.80197 0.0
C83 C 0.20394 0.27363 0.74635 0.0
C84 C 0.75699 0.22108 0.74921 0.0
C85 C 0.76603 0.2845 0.80426 0.0
O86 O 0.74823 0.23618 0.73875 0.0
Zn87 Zn 0.74455 0.26744 0.74751 0.0
O88 O 0.76668 0.22332 0.77224 0.0
Zn89 Zn 0.76209 0.25211 0.77802 0.0
O90 O 0.73095 0.25327 0.78372 0.0
O91 O 0.71592 0.26976 0.75041 0.0
O92 O 0.77301 0.26757 0.81053 0.0
O93 O 0.75567 0.286 0.78161 0.0
O94 O 0.7574 0.27851 0.7171 0.0
O95 O 0.77825 0.26354 0.74606 0.0
C96 C 0.71501 0.26042 0.77227 0.0
C97 C 0.77499 0.27298 0.72406 0.0
C98 C 0.78395 0.74394 0.72227 0.0
C99 C 0.72512 0.75284 0.77434 0.0
O100 O 0.76632 0.73831 0.71515 0.0
Zn101 Zn 0.75422 0.74815 0.7476 0.0
O102 O 0.78759 0.75299 0.7454 0.0
Zn103 Zn 0.77182 0.7629 0.77973 0.0
O104 O 0.78425 0.74816 0.80905 0.0
O105 O 0.76731 0.72937 0.77798 0.0
O106 O 0.74093 0.76034 0.78648 0.0
O107 O 0.72601 0.74417 0.75113 0.0
O108 O 0.75695 0.77975 0.74462 0.0
O109 O 0.77591 0.79113 0.78008 0.0
C110 C 0.7783 0.73109 0.80021 0.0
C111 C 0.76563 0.7943 0.75809 0.0
C112 C 0.02602 0.28164 0.54351 0.0
C113 C 0.03336 0.30036 0.55146 0.0
C114 C 0.02387 0.3135 0.53465 0.0
C115 C 0.01142 0.30212 0.51735 0.0
N116 N 0.01224 0.28248 0.52217 0.0
Co117 Co 0.99727 0.26062 0.50086 0.0
N118 N 0.98319 0.28004 0.47631 0.0
C119 C 0.9852 0.30004 0.47755 0.0
C120 C 0.97324 0.30951 0.45851 0.0
C121 C 0.96277 0.29471 0.44442 0.0
C122 C 0.96895 0.27699 0.45578 0.0
N123 N 0.98271 0.23871 0.47915 0.0
C124 C 0.96888 0.23953 0.45789 0.0
C125 C 0.96241 0.22069 0.44896 0.0
C126 C 0.9725 0.20752 0.46509 0.0
C127 C 0.98446 0.21898 0.48293 0.0
N128 N 0.01093 0.24125 0.5259 0.0
C129 C 0.00833 0.22132 0.5253 0.0
C130 C 0.0194 0.21192 0.54533 0.0
C131 C 0.02977 0.2267 0.5596 0.0
C132 C 0.02448 0.24433 0.54727 0.0
N133 N 0.97516 0.26298 0.52548 0.0
C134 C 0.94202 0.26651 0.55736 0.0
C135 C 0.94897 0.2479 0.54895 0.0
C136 C 0.96545 0.24648 0.53331 0.0
C137 C 0.95229 0.2833 0.55005 0.0
C138 C 0.96864 0.28122 0.53426 0.0
N139 N 0.01929 0.25828 0.47602 0.0
C140 C 0.04324 0.23833 0.45286 0.0
C141 C 0.04992 0.25488 0.43981 0.0
C142 C 0.04112 0.27319 0.44545 0.0
C143 C 0.02608 0.27456 0.46352 0.0
C144 C 0.02801 0.24032 0.47062 0.0
H145 H 0.02021 0.28899 0.46702 0.0
H146 H 0.02351 0.22708 0.47963 0.0
H147 H 0.96996 0.23187 0.5276 0.0
H148 H 0.97559 0.29462 0.52911 0.0
C149 C 0.99856 0.30947 0.4967 0.0
C150 C 0.03296 0.26353 0.55648 0.0
C151 C 0.96075 0.25772 0.4464 0.0
C152 C 0.99622 0.21177 0.50478 0.0
H153 H 0.04453 0.30414 0.56763 0.0
H154 H 0.02587 0.32944 0.53493 0.0
H155 H 0.97221 0.32529 0.45532 0.0
H156 H 0.95177 0.29672 0.42771 0.0
H157 H 0.95123 0.21683 0.43286 0.0
H158 H 0.97086 0.19153 0.46442 0.0
H159 H 0.02007 0.19617 0.54888 0.0
H160 H 0.04017 0.2247 0.57699 0.0
H161 H 0.9418 0.23441 0.55451 0.0
H162 H 0.94748 0.29807 0.55589 0.0
H163 H 0.04948 0.22377 0.44906 0.0
H164 H 0.04598 0.28654 0.43623 0.0
C165 C 0.73415 0.03713 0.55759 0.0
C166 C 0.71591 0.04357 0.56576 0.0
C167 C 0.7018 0.03198 0.55181 0.0
C168 C 0.71212 0.01924 0.53579 0.0
N169 N 0.73201 0.02187 0.53873 0.0
Co170 Co 0.75232 0.00709 0.51794 0.0
N171 N 0.73146 0.9901 0.49722 0.0
C172 C 0.71171 0.99061 0.50023 0.0
C173 C 0.70107 0.97687 0.48408 0.0
C174 C 0.7148 0.96687 0.46992 0.0
C175 C 0.73314 0.9752 0.47812 0.0
N176 N 0.77258 0.9926 0.49676 0.0
C177 C 0.77043 0.97776 0.4773 0.0
C178 C 0.78852 0.97248 0.46748 0.0
C179 C 0.8026 0.98412 0.48138 0.0
C180 C 0.79238 0.99592 0.49872 0.0
N181 N 0.77322 0.02378 0.53902 0.0
C182 C 0.79305 0.02252 0.53705 0.0
C183 C 0.80381 0.03549 0.55429 0.0
C184 C 0.79007 0.04574 0.56811 0.0
C185 C 0.77159 0.03853 0.55831 0.0
N186 N 0.75491 0.98701 0.54641 0.0
C187 C 0.75837 0.95924 0.58778 0.0
C188 C 0.77516 0.96617 0.57607 0.0
C189 C 0.7731 0.9799 0.5555 0.0
C190 C 0.73986 0.96638 0.57837 0.0
C191 C 0.73848 0.9801 0.55787 0.0
N192 N 0.74966 0.02732 0.48972 0.0
C193 C 0.76411 0.05323 0.46477 0.0
C194 C 0.74534 0.0594 0.45484 0.0
C195 C 0.72885 0.04862 0.46153 0.0
C196 C 0.73134 0.03273 0.47877 0.0
C197 C 0.76593 0.03718 0.48189 0.0
H198 H 0.71815 0.02539 0.4834 0.0
H199 H 0.78061 0.03326 0.48891 0.0
H200 H 0.78642 0.98452 0.54729 0.0
H201 H 0.72395 0.98495 0.55178 0.0
C202 C 0.70358 0.00449 0.51802 0.0
C203 C 0.75299 0.04628 0.56797 0.0
C204 C 0.75169 0.96818 0.46742 0.0
C205 C 0.80104 0.00966 0.51787 0.0
H206 H 0.71304 0.05552 0.58017 0.0
H207 H 0.6859 0.03282 0.55308 0.0
H208 H 0.6852 0.9744 0.48278 0.0
H209 H 0.71165 0.95474 0.4553 0.0
H210 H 0.7913 0.96131 0.45191 0.0
H211 H 0.81843 0.98387 0.47927 0.0
H212 H 0.81976 0.03742 0.55635 0.0
H213 H 0.79332 0.05731 0.58356 0.0
H214 H 0.78981 0.96083 0.58246 0.0
H215 H 0.72643 0.96161 0.58703 0.0
H216 H 0.77737 0.06084 0.45953 0.0
H217 H 0.71398 0.05283 0.4543 0.0
C218 C 0.03558 0.75222 0.53863 0.0
C219 C 0.04295 0.77053 0.54845 0.0
C220 C 0.03095 0.78461 0.53685 0.0
C221 C 0.01708 0.77419 0.5205 0.0
N222 N 0.01927 0.75426 0.52124 0.0
Co223 Co 0.00353 0.73377 0.49834 0.0
N224 N 0.98597 0.75456 0.4811 0.0
C225 C 0.98686 0.77438 0.48647 0.0
C226 C 0.97184 0.78477 0.47341 0.0
C227 C 0.96036 0.77072 0.4593 0.0
C228 C 0.96919 0.7525 0.46443 0.0
N229 N 0.98837 0.71336 0.47469 0.0
C230 C 0.97182 0.71529 0.4578 0.0
C231 C 0.96597 0.69727 0.44526 0.0
C232 C 0.97902 0.68337 0.45509 0.0
C233 C 0.99211 0.69367 0.47287 0.0
N234 N 0.02039 0.71288 0.51651 0.0
C235 C 0.01867 0.69299 0.51226 0.0
C236 C 0.03212 0.68234 0.52791 0.0
C237 C 0.04324 0.69625 0.5429 0.0
C238 C 0.036 0.71467 0.5353 0.0
N239 N 0.98418 0.73146 0.52657 0.0
C240 C 0.95252 0.72926 0.56068 0.0
C241 C 0.95946 0.71226 0.5474 0.0
C242 C 0.97531 0.71364 0.5308 0.0
C243 C 0.9624 0.74719 0.55771 0.0
C244 C 0.97809 0.74795 0.54076 0.0
N245 N 0.02282 0.73615 0.46984 0.0
C246 C 0.04813 0.72177 0.4428 0.0
C247 C 0.05198 0.74014 0.43186 0.0
C248 C 0.04054 0.75633 0.43981 0.0
C249 C 0.02629 0.75406 0.45868 0.0
C250 C 0.03353 0.72009 0.46135 0.0
H251 H 0.01843 0.76713 0.46403 0.0
H252 H 0.03141 0.70565 0.46878 0.0
H253 H 0.97983 0.70017 0.52107 0.0
H254 H 0.9847 0.76214 0.53885 0.0
C255 C 1.00173 0.78267 0.50443 0.0
C256 C 0.04505 0.73338 0.54557 0.0
C257 C 0.96057 0.73358 0.45421 0.0
C258 C 0.00586 0.68495 0.49125 0.0
H259 H 0.05588 0.77349 0.56221 0.0
H260 H 0.03233 0.80057 0.5397 0.0
H261 H 0.96924 0.80062 0.47461 0.0
H262 H 0.94676 0.77358 0.44717 0.0
H263 H 0.95317 0.6944 0.4312 0.0
H264 H 0.97839 0.6675 0.45091 0.0
H265 H 0.03409 0.6664 0.52772 0.0
H266 H 0.05562 0.69319 0.55727 0.0
H267 H 0.95262 0.69793 0.54963 0.0
H268 H 0.95762 0.76079 0.56761 0.0
H269 H 0.05661 0.70871 0.43763 0.0
H270 H 0.0425 0.77082 0.43155 0.0
C271 C 0.28805 0.98041 0.56544 0.0
C272 C 0.30594 0.97266 0.57589 0.0
C273 C 0.32067 0.98307 0.5652 0.0
C274 C 0.31108 0.99638 0.54857 0.0
N275 N 0.29107 0.99532 0.54818 0.0
Co276 Co 0.27175 0.01031 0.52367 0.0
N277 N 0.29354 0.02509 0.50711 0.0
C278 C 0.31321 0.02355 0.51391 0.0
C279 C 0.3246 0.03666 0.50115 0.0
C280 C 0.31143 0.04753 0.48559 0.0
C281 C 0.29265 0.0403 0.48958 0.0
N282 N 0.25243 0.0247 0.49849 0.0
C283 C 0.25538 0.03938 0.48094 0.0
C284 C 0.23771 0.04506 0.46738 0.0
C285 C 0.22304 0.03402 0.47719 0.0
C286 C 0.23253 0.02213 0.49595 0.0
N287 N 0.24989 0.99625 0.54099 0.0
C288 C 0.23019 0.99894 0.53559 0.0
C289 C 0.21863 0.9879 0.55114 0.0
C290 C 0.2317 0.97732 0.56726 0.0
C291 C 0.25059 0.98229 0.56033 0.0
N292 N 0.27065 0.03233 0.55112 0.0
C293 C 0.2709 0.06878 0.58039 0.0
C294 C 0.25327 0.06094 0.568 0.0
C295 C 0.25343 0.04269 0.55385 0.0
C296 C 0.28803 0.05723 0.58009 0.0
C297 C 0.28755 0.03908 0.56554 0.0
N298 N 0.27296 0.98833 0.49601 0.0
C299 C 0.25693 0.96156 0.4689 0.0
C300 C 0.27519 0.95474 0.46083 0.0
C301 C 0.29222 0.96546 0.46976 0.0
C302 C 0.29077 0.98209 0.48715 0.0
C303 C 0.25615 0.97833 0.48622 0.0
H304 H 0.30434 0.98938 0.4935 0.0
H305 H 0.24179 0.9827 0.49168 0.0
H306 H 0.2396 0.03764 0.54441 0.0
H307 H 0.30119 0.03117 0.56534 0.0
C308 C 0.32044 0.00987 0.53278 0.0
C309 C 0.26863 0.97273 0.57194 0.0
C310 C 0.27441 0.04895 0.47719 0.0
C311 C 0.22303 0.01052 0.51408 0.0
H312 H 0.30826 0.96048 0.58942 0.0
H313 H 0.3365 0.9809 0.5687 0.0
H314 H 0.34056 0.03842 0.50339 0.0
H315 H 0.31524 0.05971 0.47322 0.0
H316 H 0.23557 0.05643 0.45249 0.0
H317 H 0.20724 0.03518 0.47214 0.0
H318 H 0.2026 0.9872 0.55032 0.0
H319 H 0.22769 0.96681 0.58204 0.0
H320 H 0.23948 0.06909 0.56862 0.0
H321 H 0.30198 0.0626 0.58984 0.0
H322 H 0.24328 0.95397 0.46196 0.0
H323 H 0.30672 0.96073 0.46406 0.0
C324 C 0.53214 0.77495 0.04659 0.0
C325 C 0.53828 0.79316 0.05831 0.0
C326 C 0.52887 0.80739 0.04326 0.0
C327 C 0.51746 0.79713 0.02343 0.0
N328 N 0.51893 0.77717 0.02487 0.0
Co329 Co 0.50431 0.75675 1.00042 0.0
N330 N 0.49105 0.77776 0.97766 0.0
C331 C 0.49382 0.79762 0.98081 0.0
C332 C 0.48228 0.80842 0.96281 0.0
C333 C 0.47143 0.79468 0.94719 0.0
C334 C 0.4771 0.77614 0.95646 0.0
N335 N 0.48931 0.73632 0.97644 0.0
C336 C 0.47559 0.73856 0.95532 0.0
C337 C 0.46893 0.72033 0.94419 0.0
C338 C 0.47837 0.7061 0.95919 0.0
C339 C 0.49031 0.71636 0.97842 0.0
N340 N 0.51793 0.73572 0.02282 0.0
C341 C 0.51604 0.71583 0.01875 0.0
C342 C 0.52779 0.70507 0.03657 0.0
C343 C 0.53792 0.71887 0.05298 0.0
C344 C 0.53163 0.73737 0.0443 0.0
N345 N 0.482 0.75756 0.0247 0.0
C346 C 0.44867 0.75852 0.05621 0.0
C347 C 0.45786 0.74058 0.04962 0.0
C348 C 0.47433 0.74044 0.03397 0.0
C349 C 0.45675 0.776 0.04728 0.0
C350 C 0.47333 0.7752 0.03185 0.0
N351 N 0.52654 0.75594 0.97592 0.0
C352 C 0.54778 0.73756 0.94648 0.0
C353 C 0.55767 0.7549 0.94036 0.0
C354 C 0.55169 0.77276 0.95255 0.0
C355 C 0.53623 0.77296 0.96997 0.0
C356 C 0.53253 0.73839 0.96422 0.0
H357 H 0.53242 0.78708 0.97841 0.0
H358 H 0.5258 0.72461 0.96804 0.0
H359 H 0.48045 0.72626 0.02932 0.0
H360 H 0.47874 0.78906 0.02575 0.0
C361 C 0.50594 0.80578 1.00245 0.0
C362 C 0.5395 0.75602 0.05672 0.0
C363 C 0.46825 0.75753 0.94521 0.0
C364 C 0.50297 0.70768 0.99817 0.0
H365 H 0.5486 0.7959 0.07583 0.0
H366 H 0.53035 0.82333 0.04624 0.0
H367 H 0.48136 0.82441 0.96177 0.0
H368 H 0.46027 0.79808 0.93126 0.0
H369 H 0.45832 0.71756 0.92701 0.0
H370 H 0.47675 0.69016 0.95638 0.0
H371 H 0.52894 0.68908 0.03742 0.0
H372 H 0.54883 0.71564 0.06932 0.0
H373 H 0.4521 0.7266 0.05595 0.0
H374 H 0.4504 0.79031 0.05229 0.0
H375 H 0.55155 0.72332 0.93739 0.0
H376 H 0.55905 0.78662 0.94899 0.0
C377 C 0.23434 0.53521 0.06895 0.0
C378 C 0.21677 0.54116 0.07976 0.0
C379 C 0.20172 0.53264 0.06354 0.0
C380 C 0.2109 0.52208 0.04379 0.0
N381 N 0.23094 0.52334 0.04636 0.0
Co382 Co 0.25012 0.51039 0.02201 0.0
N383 N 0.22792 0.49769 0.99834 0.0
C384 C 0.20824 0.49935 1.00136 0.0
C385 C 0.19661 0.48893 0.98192 0.0
C386 C 0.20961 0.48002 0.96544 0.0
C387 C 0.22849 0.48558 0.97588 0.0
N388 N 0.26929 0.49743 0.99765 0.0
C389 C 0.2659 0.48541 0.97522 0.0
C390 C 0.28344 0.47964 0.96419 0.0
C391 C 0.29849 0.48831 0.98025 0.0
C392 C 0.28932 0.49882 1.00005 0.0
N393 N 0.27232 0.52306 0.04564 0.0
C394 C 0.292 0.52138 0.04259 0.0
C395 C 0.30367 0.53153 0.06225 0.0
C396 C 0.29071 0.54026 0.07891 0.0
C397 C 0.27178 0.53494 0.0683 0.0
N398 N 0.25136 0.48663 0.0455 0.0
C399 C 0.2532 0.45404 0.08086 0.0
C400 C 0.27034 0.46178 0.07073 0.0
C401 C 0.26911 0.4779 0.05335 0.0
C402 C 0.2351 0.4628 0.07249 0.0
C403 C 0.23451 0.47878 0.05491 0.0
N404 N 0.24886 0.53425 0.99865 0.0
C405 C 0.26519 0.55917 0.97347 0.0
C406 C 0.24711 0.56831 0.9659 0.0
C407 C 0.22994 0.55995 0.97509 0.0
C408 C 0.23112 0.5431 0.99111 0.0
C409 C 0.26573 0.54243 0.98973 0.0
H410 H 0.21742 0.53749 0.99712 0.0
H411 H 0.28002 0.53642 0.99491 0.0
H412 H 0.28277 0.48316 0.04671 0.0
H413 H 0.2202 0.48458 0.04927 0.0
C414 C 0.20114 0.5108 0.02267 0.0
C415 C 0.25383 0.5415 0.08062 0.0
C416 C 0.24646 0.47888 0.96377 0.0
C417 C 0.29909 0.51004 0.02119 0.0
H418 H 0.215 0.55073 0.09751 0.0
H419 H 0.18596 0.53399 0.06584 0.0
H420 H 0.18058 0.48791 0.97997 0.0
H421 H 0.20566 0.4705 0.94775 0.0
H422 H 0.28518 0.4701 0.9464 0.0
H423 H 0.31424 0.48708 0.97782 0.0
H424 H 0.31971 0.53241 0.06428 0.0
H425 H 0.29473 0.54944 0.0969 0.0
H426 H 0.28479 0.45572 0.0766 0.0
H427 H 0.2213 0.45723 0.07922 0.0
H428 H 0.279 0.56508 0.96726 0.0
H429 H 0.2155 0.5662 0.96961 0.0
C430 C 0.46334 0.25786 0.96374 0.0
C431 C 0.45547 0.27663 0.95941 0.0
C432 C 0.46709 0.28971 0.9751 0.0
C433 C 0.48124 0.27826 0.98818 0.0
N434 N 0.47965 0.25866 0.98144 0.0
Co435 Co 0.49604 0.23659 0.9976 0.0
N436 N 0.51184 0.25566 0.02278 0.0
C437 C 0.50993 0.27565 0.02427 0.0
C438 C 0.52357 0.28497 0.04223 0.0
C439 C 0.53512 0.27009 0.05263 0.0
C440 C 0.52772 0.25244 0.0405 0.0
N441 N 0.51212 0.21447 0.01418 0.0
C442 C 0.52769 0.21509 0.03314 0.0
C443 C 0.5346 0.1962 0.03892 0.0
C444 C 0.52329 0.1832 0.02262 0.0
C445 C 0.51009 0.19481 0.00801 0.0
N446 N 0.48051 0.21757 0.97209 0.0
C447 C 0.48328 0.19774 0.96924 0.0
C448 C 0.46999 0.18855 0.9506 0.0
C449 C 0.45779 0.20334 0.94127 0.0
C450 C 0.46433 0.22073 0.95493 0.0
N451 N 0.516 0.23964 0.97003 0.0
C452 C 0.54594 0.24391 0.93322 0.0
C453 C 0.53971 0.22515 0.94043 0.0
C454 C 0.52482 0.22338 0.95854 0.0
C455 C 0.53659 0.26049 0.94434 0.0
C456 C 0.52184 0.25805 0.96255 0.0
N457 N 0.47605 0.23354 0.025 0.0
C458 C 0.45194 0.21327 0.0455 0.0
C459 C 0.44456 0.2298 0.05937 0.0
C460 C 0.45377 0.24813 0.05654 0.0
C461 C 0.46934 0.24965 0.03942 0.0
C462 C 0.46763 0.21542 0.02877 0.0
H463 H 0.47546 0.2641 0.03775 0.0
H464 H 0.47247 0.20223 0.01874 0.0
H465 H 0.52085 0.20865 0.96307 0.0
H466 H 0.51558 0.27131 0.97054 0.0
C467 C 0.49551 0.28532 0.00798 0.0
C468 C 0.45415 0.23967 0.95186 0.0
C469 C 0.53685 0.23314 0.04552 0.0
C470 C 0.49685 0.1879 0.98672 0.0
H471 H 0.44236 0.28047 0.94685 0.0
H472 H 0.46505 0.3056 0.9774 0.0
H473 H 0.52522 0.30074 0.04675 0.0
H474 H 0.54782 0.27214 0.06707 0.0
H475 H 0.54684 0.19226 0.05304 0.0
H476 H 0.5249 0.16722 0.02102 0.0
H477 H 0.46875 0.17285 0.94532 0.0
H478 H 0.44514 0.20146 0.92668 0.0
H479 H 0.54623 0.21181 0.93204 0.0
H480 H 0.54095 0.27536 0.93958 0.0
H481 H 0.44565 0.19865 0.04751 0.0
H482 H 0.44862 0.26142 0.06683 0.0
C483 C 0.75381 0.54251 0.04965 0.0
C484 C 0.73542 0.55126 0.05243 0.0
C485 C 0.72175 0.53949 0.03794 0.0
C486 C 0.73248 0.52434 0.027 0.0
N487 N 0.75221 0.52556 0.03377 0.0
Co488 Co 0.77321 0.50707 0.02071 0.0
N489 N 0.7531 0.49032 0.99818 0.0
C490 C 0.73322 0.49308 0.99616 0.0
C491 C 0.72303 0.4789 0.98022 0.0
C492 C 0.73718 0.46623 0.97156 0.0
C493 C 0.75535 0.47349 0.98258 0.0
N494 N 0.79422 0.48869 0.00742 0.0
C495 C 0.79271 0.47219 0.99064 0.0
C496 C 0.81122 0.46413 0.98655 0.0
C497 C 0.82483 0.47565 1.00155 0.0
C498 C 0.81398 0.49015 0.01379 0.0
N499 N 0.7933 0.52375 0.04334 0.0
C500 C 0.81309 0.52057 0.04622 0.0
C501 C 0.8232 0.53448 0.06275 0.0
C502 C 0.80908 0.54746 0.07078 0.0
C503 C 0.79108 0.54077 0.05852 0.0
N504 N 0.7701 0.48994 0.05204 0.0
C505 C 0.76561 0.46433 0.09508 0.0
C506 C 0.78443 0.46952 0.08764 0.0
C507 C 0.78631 0.48229 0.06631 0.0
C508 C 0.74911 0.47255 0.0811 0.0
C509 C 0.75167 0.4852 0.05983 0.0
N510 N 0.77631 0.52436 0.98963 0.0
C511 C 0.79689 0.54613 0.96568 0.0
C512 C 0.78011 0.55482 0.95299 0.0
C513 C 0.76154 0.54687 0.95709 0.0
C514 C 0.76001 0.53158 0.97513 0.0
C515 C 0.79465 0.53094 0.98373 0.0
H516 H 0.74544 0.52633 0.97769 0.0
H517 H 0.80794 0.52529 0.99342 0.0
H518 H 0.80104 0.48559 0.06162 0.0
H519 H 0.73848 0.49071 0.04981 0.0
C520 C 0.72453 0.50903 0.00972 0.0
C521 C 0.77236 0.55125 0.06179 0.0
C522 C 0.77421 0.46355 0.9781 0.0
C523 C 0.82185 0.50499 0.03195 0.0
H524 H 0.73221 0.56492 0.06343 0.0
H525 H 0.70591 0.5419 0.03529 0.0
H526 H 0.70715 0.47779 0.97568 0.0
H527 H 0.73436 0.453 0.95882 0.0
H528 H 0.81456 0.45119 0.97408 0.0
H529 H 0.84075 0.47362 0.00348 0.0
H530 H 0.83902 0.53529 0.06795 0.0
H531 H 0.81177 0.56051 0.08395 0.0
H532 H 0.79768 0.4637 0.09815 0.0
H533 H 0.7342 0.46879 0.08594 0.0
H534 H 0.81161 0.55169 0.9628 0.0
H535 H 0.74818 0.55276 0.94694 0.0
H536 H 0.21264 0.26077 0.32483 0.0
H537 H 0.18254 0.2621 0.34908 0.0
H538 H 0.15045 0.23138 0.28148 0.0
H539 H 0.18091 0.22951 0.25711 0.0
H540 H 0.14736 0.27918 0.33764 0.0
H541 H 0.13711 0.19777 0.34419 0.0
H542 H 0.15955 0.20853 0.33333 0.0
H543 H 0.13783 0.20627 0.31018 0.0
C544 C 0.19922 0.25428 0.31496 0.0
C545 C 0.19928 0.24493 0.28898 0.0
C546 C 0.18196 0.25508 0.32893 0.0
C547 C 0.16423 0.24658 0.31738 0.0
C548 C 0.16404 0.23765 0.29113 0.0
H549 H 0.0517 0.27219 0.39057 0.0
H550 H 0.07836 0.26996 0.35954 0.0
C551 C 0.18143 0.23673 0.27711 0.0
C552 C 0.14616 0.2473 0.33309 0.0
H553 H 0.11246 0.21829 0.36203 0.0
C554 C 0.13967 0.26586 0.34286 0.0
C555 C 0.13628 0.22991 0.34028 0.0
C556 C 0.14311 0.20947 0.3317 0.0
C557 C 0.1238 0.26752 0.35975 0.0
C558 C 0.1137 0.25016 0.36657 0.0
C559 C 0.12007 0.23161 0.35665 0.0
C560 C 0.09701 0.2509 0.38483 0.0
C561 C 0.11852 0.28783 0.37094 0.0
C562 C 0.09821 0.24038 0.40898 0.0
C563 C 0.08287 0.24148 0.42666 0.0
C564 C 0.06599 0.25316 0.4206 0.0
C565 C 0.06465 0.26337 0.39613 0.0
C566 C 0.07992 0.26213 0.37836 0.0
H567 H 0.13089 0.29858 0.36997 0.0
H568 H 0.10551 0.29358 0.35868 0.0
H569 H 0.11464 0.28718 0.39239 0.0
H570 H 0.1112 0.23157 0.41442 0.0
H571 H 0.08444 0.23353 0.44539 0.0
H572 H 0.73294 0.1934 0.27877 0.0
H573 H 0.73242 0.16445 0.30693 0.0
H574 H 0.72031 0.20208 0.37634 0.0
H575 H 0.72053 0.2313 0.34807 0.0
H576 H 0.75922 0.16017 0.35173 0.0
H577 H 0.68124 0.15535 0.3802 0.0
H578 H 0.6883 0.1695 0.35197 0.0
H579 H 0.69296 0.17921 0.38619 0.0
C580 C 0.72983 0.19553 0.29992 0.0
C581 C 0.72691 0.21464 0.31127 0.0
C582 C 0.72953 0.17896 0.31596 0.0
C583 C 0.72629 0.18114 0.34365 0.0
C584 C 0.72255 0.20009 0.35489 0.0
H585 H 0.76436 0.09501 0.46357 0.0
H586 H 0.75963 0.12496 0.43729 0.0
C587 C 0.72273 0.21675 0.33875 0.0
C588 C 0.72872 0.16376 0.36099 0.0
H589 H 0.70438 0.13332 0.40142 0.0
C590 C 0.74724 0.15428 0.36261 0.0
C591 C 0.71302 0.15613 0.37498 0.0
C592 C 0.69269 0.16543 0.37317 0.0
C593 C 0.75048 0.13727 0.37778 0.0
C594 C 0.73487 0.12978 0.39208 0.0
C595 C 0.71633 0.13923 0.39051 0.0
C596 C 0.73745 0.11184 0.4083 0.0
C597 C 0.77045 0.12722 0.37788 0.0
C598 C 0.7263 0.0947 0.40088 0.0
C599 C 0.729 0.07757 0.4158 0.0
C600 C 0.74285 0.07734 0.43843 0.0
C601 C 0.75388 0.09461 0.4459 0.0
C602 C 0.75114 0.11174 0.43101 0.0
H603 H 0.77911 0.13203 0.36093 0.0
H604 H 0.77913 0.13108 0.39729 0.0
H605 H 0.76873 0.11082 0.37627 0.0
H606 H 0.71568 0.09453 0.38336 0.0
H607 H 0.72038 0.06445 0.40946 0.0
H608 H 0.80979 0.75133 0.29377 0.0
H609 H 0.83971 0.74721 0.3233 0.0
H610 H 0.80513 0.7232 0.38467 0.0
H611 H 0.77471 0.7272 0.35487 0.0
H612 H 0.84639 0.76566 0.37597 0.0
H613 H 0.85191 0.68322 0.37785 0.0
H614 H 0.83694 0.69563 0.35182 0.0
H615 H 0.82862 0.69434 0.38545 0.0
C616 C 0.80842 0.74501 0.31344 0.0
C617 C 0.78976 0.73966 0.32196 0.0
C618 C 0.82562 0.74267 0.33031 0.0
C619 C 0.82469 0.73484 0.35612 0.0
C620 C 0.8062 0.72906 0.36466 0.0
H621 H 0.92705 0.71938 0.47426 0.0
H622 H 0.89311 0.71927 0.4525 0.0
C623 C 0.78884 0.7314 0.34766 0.0
C624 C 0.84318 0.73384 0.37417 0.0
H625 H 0.87757 0.70174 0.40166 0.0
C626 C 0.85312 0.75168 0.38179 0.0
C627 C 0.85187 0.71561 0.38185 0.0
C628 C 0.84193 0.69604 0.37378 0.0
C629 C 0.87174 0.75179 0.3963 0.0
C630 C 0.88086 0.73354 0.40297 0.0
C631 C 0.87059 0.7157 0.39633 0.0
C632 C 0.90139 0.73279 0.41578 0.0
C633 C 0.88155 0.77147 0.40424 0.0
C634 C 0.91731 0.74 0.40209 0.0
C635 C 0.93657 0.74005 0.41443 0.0
C636 C 0.94022 0.73286 0.44064 0.0
C637 C 0.92445 0.72511 0.45406 0.0
C638 C 0.90515 0.72503 0.44168 0.0
H639 H 0.87058 0.78374 0.4045 0.0
H640 H 0.88964 0.77099 0.4246 0.0
H641 H 0.89241 0.77492 0.38919 0.0
H642 H 0.91479 0.7457 0.38187 0.0
H643 H 0.94862 0.74586 0.40366 0.0
H644 H 0.27063 0.81185 0.28217 0.0
H645 H 0.27397 0.84276 0.30932 0.0
H646 H 0.29294 0.80997 0.38005 0.0
H647 H 0.29001 0.77886 0.3528 0.0
H648 H 0.25211 0.85122 0.35253 0.0
H649 H 0.33255 0.85593 0.3839 0.0
H650 H 0.32268 0.83951 0.3565 0.0
H651 H 0.32113 0.83284 0.39126 0.0
C652 C 0.27582 0.8112 0.30341 0.0
C653 C 0.27997 0.79291 0.31541 0.0
C654 C 0.27773 0.82889 0.31887 0.0
C655 C 0.2838 0.82866 0.34663 0.0
C656 C 0.28859 0.81049 0.35853 0.0
H657 H 0.25593 0.91968 0.46615 0.0
H658 H 0.25836 0.88907 0.43849 0.0
C659 C 0.28682 0.79274 0.34298 0.0
C660 C 0.28326 0.84724 0.36341 0.0
H661 H 0.31145 0.87884 0.40575 0.0
C662 C 0.26511 0.8573 0.36408 0.0
C663 C 0.30027 0.85519 0.37826 0.0
C664 C 0.32031 0.84543 0.37732 0.0
C665 C 0.26344 0.87505 0.37938 0.0
C666 C 0.2803 0.88269 0.39487 0.0
C667 C 0.29853 0.87279 0.39399 0.0
C668 C 0.27924 0.90104 0.41199 0.0
C669 C 0.24371 0.8856 0.37848 0.0
C670 C 0.29052 0.91773 0.40658 0.0
C671 C 0.28917 0.93524 0.42236 0.0
C672 C 0.27654 0.9363 0.44383 0.0
C673 C 0.26546 0.91944 0.44938 0.0
C674 C 0.26688 0.90194 0.43367 0.0
H675 H 0.23393 0.88069 0.36044 0.0
H676 H 0.23604 0.88224 0.39695 0.0
H677 H 0.24574 0.90194 0.37806 0.0
H678 H 0.30016 0.91728 0.38993 0.0
H679 H 0.2978 0.94803 0.41752 0.0
H680 H 0.22538 0.72892 0.65841 0.0
H681 H 0.19463 0.7256 0.62889 0.0
H682 H 0.1614 0.75032 0.69343 0.0
H683 H 0.19184 0.75397 0.72272 0.0
H684 H 0.15885 0.70548 0.63456 0.0
H685 H 0.14628 0.78663 0.63108 0.0
H686 H 0.16961 0.77617 0.64359 0.0
H687 H 0.1492 0.77795 0.6651 0.0
C688 C 0.2115 0.73355 0.66634 0.0
C689 C 0.21114 0.74191 0.69286 0.0
C690 C 0.19395 0.73166 0.64944 0.0
C691 C 0.17577 0.73814 0.65874 0.0
C692 C 0.1753 0.74571 0.68554 0.0
H693 H 0.05242 0.74373 0.59934 0.0
H694 H 0.08455 0.74404 0.62607 0.0
C695 C 0.19276 0.74768 0.70234 0.0
C696 C 0.15722 0.73722 0.64057 0.0
H697 H 0.11919 0.76586 0.61458 0.0
C698 C 0.15026 0.71869 0.62996 0.0
C699 C 0.14604 0.75448 0.6345 0.0
C700 C 0.15324 0.77496 0.64393 0.0
C701 C 0.13209 0.7169 0.61425 0.0
C702 C 0.12072 0.73412 0.60878 0.0
C703 C 0.12785 0.75266 0.61898 0.0
C704 C 0.10126 0.73328 0.59271 0.0
C705 C 0.12491 0.69656 0.60429 0.0
C706 C 0.10003 0.72727 0.56508 0.0
C707 C 0.08174 0.72721 0.54984 0.0
C708 C 0.06443 0.73323 0.56197 0.0
C709 C 0.06563 0.73912 0.58961 0.0
C710 C 0.08392 0.73927 0.60482 0.0
H711 H 0.13314 0.68456 0.61506 0.0
H712 H 0.10883 0.69482 0.60701 0.0
H713 H 0.12709 0.69466 0.58226 0.0
H714 H 0.11325 0.72291 0.55521 0.0
H715 H 0.08111 0.72266 0.52851 0.0
H716 H 0.27265 0.25357 0.67275 0.0
H717 H 0.27767 0.22386 0.64364 0.0
H718 H 0.25534 0.18706 0.70446 0.0
H719 H 0.25023 0.2163 0.73342 0.0
H720 H 0.29995 0.18648 0.65636 0.0
H721 H 0.21905 0.17583 0.63297 0.0
H722 H 0.22971 0.19918 0.64586 0.0
H723 H 0.22619 0.17941 0.66859 0.0
C724 C 0.26895 0.23912 0.67995 0.0
C725 C 0.26082 0.2373 0.70523 0.0
C726 C 0.27184 0.22223 0.66335 0.0
C727 C 0.26657 0.20342 0.67185 0.0
C728 C 0.25919 0.20153 0.69745 0.0
H729 H 0.28906 0.08208 0.62902 0.0
H730 H 0.28958 0.11611 0.64827 0.0
C731 C 0.2563 0.21829 0.71395 0.0
C732 C 0.26804 0.18558 0.65396 0.0
H733 H 0.23975 0.14811 0.62358 0.0
C734 C 0.28684 0.17818 0.64878 0.0
C735 C 0.25085 0.17501 0.6439 0.0
C736 C 0.23029 0.18282 0.64786 0.0
C737 C 0.28891 0.15987 0.63481 0.0
C738 C 0.27171 0.14869 0.6263 0.0
C739 C 0.25292 0.15661 0.63037 0.0
C740 C 0.27271 0.12845 0.61391 0.0
C741 C 0.30943 0.15262 0.62945 0.0
C742 C 0.2627 0.12407 0.58853 0.0
C743 C 0.26215 0.10467 0.57773 0.0
C744 C 0.27158 0.08928 0.59214 0.0
C745 C 0.2818 0.0937 0.61742 0.0
C746 C 0.28223 0.11313 0.62832 0.0
H747 H 0.32015 0.16513 0.62955 0.0
H748 H 0.31469 0.14252 0.64571 0.0
H749 H 0.30943 0.14431 0.6096 0.0
H750 H 0.25518 0.13567 0.57717 0.0
H751 H 0.25445 0.10172 0.55798 0.0
H752 H 0.77332 0.28462 0.67089 0.0
H753 H 0.80072 0.285 0.64068 0.0
H754 H 0.84153 0.26809 0.70695 0.0
H755 H 0.81442 0.26741 0.73698 0.0
H756 H 0.83732 0.30547 0.6428 0.0
H757 H 0.84889 0.22431 0.64902 0.0
H758 H 0.82709 0.23651 0.66057 0.0
H759 H 0.84991 0.23699 0.68171 0.0
C760 C 0.78817 0.2812 0.67908 0.0
C761 C 0.7916 0.27578 0.70631 0.0
C762 C 0.80381 0.28138 0.66178 0.0
C763 C 0.82311 0.27612 0.67139 0.0
C764 C 0.8267 0.27171 0.69888 0.0
H765 H 0.93608 0.29197 0.60077 0.0
H766 H 0.90669 0.29488 0.62688 0.0
C767 C 0.81114 0.27144 0.71608 0.0
C768 C 0.83951 0.27468 0.65276 0.0
H769 H 0.87405 0.24255 0.62929 0.0
C770 C 0.84528 0.2917 0.63968 0.0
C771 C 0.8497 0.25662 0.64832 0.0
C772 C 0.84349 0.23751 0.66041 0.0
C773 C 0.86135 0.29128 0.62297 0.0
C774 C 0.87215 0.27343 0.61961 0.0
C775 C 0.86597 0.2563 0.63207 0.0
C776 C 0.88989 0.27211 0.60328 0.0
C777 C 0.86644 0.3099 0.60882 0.0
C778 C 0.89054 0.25798 0.58173 0.0
C779 C 0.90741 0.25616 0.56689 0.0
C780 C 0.92408 0.26841 0.5733 0.0
C781 C 0.92342 0.28251 0.59497 0.0
C782 C 0.90656 0.28425 0.60988 0.0
H783 H 0.85358 0.32016 0.60691 0.0
H784 H 0.87867 0.31781 0.62091 0.0
H785 H 0.87139 0.30637 0.58821 0.0
H786 H 0.87793 0.24837 0.57628 0.0
H787 H 0.90729 0.2453 0.55016 0.0
H788 H 0.74135 0.8065 0.71559 0.0
H789 H 0.7415 0.83853 0.6941 0.0
H790 H 0.78725 0.85961 0.75351 0.0
H791 H 0.7873 0.82741 0.77527 0.0
H792 H 0.73629 0.87876 0.71736 0.0
H793 H 0.81035 0.86501 0.67718 0.0
H794 H 0.79561 0.84521 0.68913 0.0
H795 H 0.8081 0.86245 0.71304 0.0
C796 C 0.75135 0.81796 0.72429 0.0
C797 C 0.76445 0.81436 0.74699 0.0
C798 C 0.75136 0.83627 0.71201 0.0
C799 C 0.76452 0.85126 0.72209 0.0
C800 C 0.77713 0.84807 0.74534 0.0
H801 H 0.7856 0.95838 0.63159 0.0
H802 H 0.78777 0.9342 0.6677 0.0
C803 C 0.77707 0.82973 0.75777 0.0
C804 C 0.7655 0.86979 0.70716 0.0
H805 H 0.79308 0.89334 0.66265 0.0
C806 C 0.7488 0.88216 0.70569 0.0
C807 C 0.7819 0.87412 0.6921 0.0
C808 C 0.80002 0.86101 0.69269 0.0
C809 C 0.74781 0.89846 0.68878 0.0
C810 C 0.76377 0.90216 0.67257 0.0
C811 C 0.78087 0.89038 0.67507 0.0
C812 C 0.76233 0.91708 0.65127 0.0
C813 C 0.72956 0.91137 0.68809 0.0
C814 C 0.74759 0.91514 0.62986 0.0
C815 C 0.74638 0.92879 0.60923 0.0
C816 C 0.76 0.94457 0.60951 0.0
C817 C 0.77498 0.9463 0.63076 0.0
C818 C 0.77616 0.93261 0.65145 0.0
H819 H 0.72195 0.91063 0.70728 0.0
H820 H 0.73331 0.92711 0.68476 0.0
H821 H 0.71898 0.90606 0.67117 0.0
H822 H 0.73714 0.9029 0.62892 0.0
H823 H 0.73494 0.92683 0.59285 0.0
H824 H 0.78291 0.72387 0.67251 0.0
H825 H 0.81067 0.71812 0.64363 0.0
H826 H 0.84967 0.75058 0.70233 0.0
H827 H 0.82236 0.7561 0.7313 0.0
H828 H 0.83453 0.74546 0.62022 0.0
H829 H 0.88017 0.69938 0.69111 0.0
H830 H 0.85434 0.70453 0.69538 0.0
H831 H 0.8731 0.72252 0.70671 0.0
C832 C 0.79743 0.72968 0.67931 0.0
C833 C 0.80042 0.74032 0.70434 0.0
C834 C 0.81327 0.72639 0.66279 0.0
C835 C 0.83234 0.73357 0.67109 0.0
C836 C 0.83523 0.74444 0.69583 0.0
H837 H 0.94703 0.74765 0.61003 0.0
H838 H 0.91717 0.74748 0.63543 0.0
C839 C 0.81951 0.74769 0.71231 0.0
C840 C 0.84923 0.7304 0.65372 0.0
H841 H 0.8969 0.71336 0.65495 0.0
C842 C 0.84807 0.73819 0.62762 0.0
C843 C 0.86688 0.72087 0.6634 0.0
C844 C 0.86866 0.71117 0.69057 0.0
C845 C 0.8644 0.73749 0.61146 0.0
C846 C 0.88226 0.72859 0.62159 0.0
C847 C 0.88323 0.7203 0.64733 0.0
C848 C 0.90033 0.72833 0.60617 0.0
C849 C 0.86271 0.74694 0.58412 0.0
C850 C 0.90084 0.71738 0.5815 0.0
C851 C 0.91789 0.71745 0.56695 0.0
C852 C 0.93474 0.72848 0.5768 0.0
C853 C 0.93424 0.7392 0.60173 0.0
C854 C 0.91723 0.73904 0.61632 0.0
H855 H 0.8493 0.75641 0.58151 0.0
H856 H 0.87602 0.75614 0.5814 0.0
H857 H 0.86178 0.73513 0.56782 0.0
H858 H 0.88804 0.70882 0.57348 0.0
H859 H 0.91772 0.70919 0.54769 0.0
H860 H 0.2838 0.80962 0.7059 0.0
H861 H 0.28646 0.83989 0.6806 0.0
H862 H 0.22997 0.85951 0.70721 0.0
H863 H 0.22806 0.82977 0.73417 0.0
H864 H 0.26799 0.8529 0.64 0.0
H865 H 0.25748 0.91015 0.72048 0.0
H866 H 0.26064 0.88433 0.72796 0.0
H867 H 0.23659 0.89369 0.71643 0.0
C868 C 0.27209 0.82056 0.70674 0.0
C869 C 0.25581 0.81733 0.72233 0.0
C870 C 0.27356 0.83792 0.6921 0.0
C871 C 0.2586 0.85247 0.69205 0.0
C872 C 0.24217 0.84911 0.70746 0.0
H873 H 0.24995 0.93714 0.55914 0.0
H874 H 0.24654 0.90869 0.58798 0.0
C875 C 0.24097 0.83195 0.72278 0.0
C876 C 0.25994 0.87048 0.67486 0.0
H877 H 0.25473 0.92109 0.67489 0.0
C878 C 0.26524 0.86781 0.64786 0.0
C879 C 0.2567 0.89018 0.68479 0.0
C880 C 0.25276 0.89479 0.71408 0.0
C881 C 0.26738 0.88392 0.63077 0.0
C882 C 0.26304 0.9035 0.64019 0.0
C883 C 0.25783 0.90621 0.66723 0.0
C884 C 0.26426 0.92134 0.6227 0.0
C885 C 0.27504 0.87966 0.60314 0.0
C886 C 0.27431 0.93871 0.63274 0.0
C887 C 0.27553 0.95536 0.61653 0.0
C888 C 0.2671 0.95503 0.58961 0.0
C889 C 0.25682 0.93781 0.57967 0.0
C890 C 0.25512 0.92137 0.59611 0.0
H891 H 0.28407 0.86588 0.60294 0.0
H892 H 0.26229 0.87737 0.5879 0.0
H893 H 0.2843 0.89205 0.59682 0.0
H894 H 0.28139 0.93938 0.65315 0.0
H895 H 0.28322 0.96852 0.62501 0.0
H896 H 0.19402 0.29224 0.69914 0.0
H897 H 0.16276 0.29058 0.6714 0.0
H898 H 0.13807 0.25297 0.72944 0.0
H899 H 0.16961 0.25437 0.75744 0.0
H900 H 0.13161 0.23862 0.67582 0.0
H901 H 0.11016 0.31776 0.6841 0.0
H902 H 0.13491 0.31446 0.67378 0.0
H903 H 0.12894 0.30699 0.70692 0.0
C904 C 0.18193 0.28375 0.70626 0.0
C905 C 0.18435 0.27348 0.73063 0.0
C906 C 0.16398 0.28292 0.69039 0.0
C907 C 0.14795 0.27192 0.69852 0.0
C908 C 0.15021 0.26168 0.72288 0.0
H909 H 0.03114 0.2776 0.60881 0.0
H910 H 0.05802 0.27879 0.64519 0.0
C911 C 0.16822 0.26253 0.73889 0.0
C912 C 0.12928 0.2704 0.68071 0.0
H913 H 0.09381 0.2984 0.64737 0.0
C914 C 0.1232 0.25166 0.66985 0.0
C915 C 0.11815 0.28737 0.67317 0.0
C916 C 0.12324 0.30776 0.68531 0.0
C917 C 0.10679 0.24955 0.65079 0.0
C918 C 0.09637 0.26667 0.64204 0.0
C919 C 0.10194 0.2853 0.65379 0.0
C920 C 0.08001 0.26565 0.62023 0.0
C921 C 0.10077 0.22899 0.64021 0.0
C922 C 0.08349 0.25814 0.59405 0.0
C923 C 0.0682 0.25749 0.57338 0.0
C924 C 0.04922 0.26448 0.57848 0.0
C925 C 0.04572 0.27215 0.60452 0.0
C926 C 0.06102 0.27281 0.62522 0.0
H927 H 0.10616 0.21746 0.65448 0.0
H928 H 0.0844 0.22767 0.63677 0.0
H929 H 0.10739 0.22591 0.62054 0.0
H930 H 0.09811 0.25297 0.58951 0.0
H931 H 0.07119 0.25161 0.55335 0.0
H932 H 0.77752 0.18634 0.7602 0.0
H933 H 0.77721 0.15543 0.73211 0.0
H934 H 0.73477 0.18106 0.67418 0.0
H935 H 0.73483 0.21169 0.70201 0.0
H936 H 0.725 0.14254 0.68508 0.0
H937 H 0.80375 0.14713 0.66036 0.0
H938 H 0.79984 0.14778 0.69604 0.0
H939 H 0.79096 0.16781 0.67541 0.0
C940 C 0.76805 0.18536 0.74156 0.0
C941 C 0.75627 0.20164 0.73344 0.0
C942 C 0.768 0.1677 0.72536 0.0
C943 C 0.75618 0.16592 0.70069 0.0
C944 C 0.74408 0.18198 0.69298 0.0
H945 H 0.76365 0.08475 0.56031 0.0
H946 H 0.76445 0.11306 0.59323 0.0
C947 C 0.74417 0.19958 0.70901 0.0
C948 C 0.75628 0.1475 0.68267 0.0
H949 H 0.78572 0.11877 0.64338 0.0
C950 C 0.73832 0.13729 0.67611 0.0
C951 C 0.77355 0.14073 0.67053 0.0
C952 C 0.79311 0.15148 0.67568 0.0
C953 C 0.73717 0.12064 0.65791 0.0
C954 C 0.75449 0.1137 0.64603 0.0
C955 C 0.77245 0.12392 0.65256 0.0
C956 C 0.75415 0.09631 0.62616 0.0
C957 C 0.71723 0.11097 0.65091 0.0
C958 C 0.74831 0.07732 0.63361 0.0
C959 C 0.74787 0.06114 0.61478 0.0
C960 C 0.7533 0.06357 0.5881 0.0
C961 C 0.75933 0.08249 0.58071 0.0
C962 C 0.75982 0.09864 0.59955 0.0
H963 H 0.70483 0.12085 0.65625 0.0
H964 H 0.71528 0.10683 0.62889 0.0
H965 H 0.71624 0.09723 0.6625 0.0
H966 H 0.74423 0.07494 0.65409 0.0
H967 H 0.74337 0.04668 0.62108 0.0
H968 H 0.7911 0.26702 0.32224 0.0
H969 H 0.82308 0.26665 0.34826 0.0
H970 H 0.84918 0.23636 0.28115 0.0
H971 H 0.817 0.23668 0.25464 0.0
H972 H 0.84553 0.23155 0.36179 0.0
H973 H 0.88715 0.28437 0.30251 0.0
H974 H 0.86037 0.28328 0.30024 0.0
H975 H 0.87428 0.26424 0.28387 0.0
C976 C 0.80361 0.26036 0.31281 0.0
C977 C 0.80144 0.25188 0.28626 0.0
C978 C 0.8219 0.26016 0.32779 0.0
C979 C 0.83852 0.25162 0.3166 0.0
C980 C 0.83657 0.24326 0.29004 0.0
H981 H 0.95961 0.24478 0.39322 0.0
H982 H 0.93038 0.24211 0.36055 0.0
C983 C 0.81816 0.24339 0.27497 0.0
C984 C 0.85759 0.25099 0.33341 0.0
H985 H 0.90423 0.27094 0.3409 0.0
C986 C 0.85841 0.24006 0.35715 0.0
C987 C 0.8744 0.26202 0.3272 0.0
C988 C 0.87412 0.27427 0.30218 0.0
C989 C 0.87549 0.24006 0.37509 0.0
C990 C 0.89206 0.25169 0.36946 0.0
C991 C 0.89147 0.26214 0.34527 0.0
C992 C 0.90983 0.25365 0.3889 0.0
C993 C 0.87564 0.22751 0.39985 0.0
C994 C 0.90803 0.26139 0.41545 0.0
C995 C 0.92462 0.26281 0.43402 0.0
C996 C 0.9433 0.25668 0.42628 0.0
C997 C 0.94525 0.24945 0.39956 0.0
C998 C 0.92863 0.24796 0.38098 0.0
H999 H 0.86463 0.21523 0.397 0.0
H1000 H 0.89054 0.22106 0.40466 0.0
H1001 H 0.87168 0.23692 0.41757 0.0
H1002 H 0.89377 0.26631 0.42182 0.0
H1003 H 0.92288 0.26858 0.4545 0.0
H1004 H 0.76902 0.83242 0.2718 0.0
H1005 H 0.7693 0.86279 0.30097 0.0
H1006 H 0.73291 0.83378 0.35607 0.0
H1007 H 0.73233 0.8037 0.32711 0.0
H1008 H 0.72006 0.87143 0.34677 0.0
H1009 H 0.80123 0.8722 0.37355 0.0
H1010 H 0.7943 0.8721 0.33771 0.0
H1011 H 0.78859 0.85098 0.35703 0.0
C1012 C 0.76101 0.83253 0.29007 0.0
C1013 C 0.75072 0.81546 0.29702 0.0
C1014 C 0.76132 0.8499 0.3069 0.0
C1015 C 0.75139 0.85061 0.33111 0.0
C1016 C 0.74077 0.83372 0.33767 0.0
H1017 H 0.76668 0.93076 0.47391 0.0
H1018 H 0.76651 0.90297 0.4402 0.0
C1019 C 0.74049 0.81643 0.32098 0.0
C1020 C 0.75186 0.86875 0.34975 0.0
H1021 H 0.78285 0.89916 0.39057 0.0
C1022 C 0.73382 0.87753 0.35621 0.0
C1023 C 0.76975 0.87665 0.36254 0.0
C1024 C 0.78958 0.86744 0.35762 0.0
C1025 C 0.73315 0.89384 0.3749 0.0
C1026 C 0.75106 0.90193 0.38737 0.0
C1027 C 0.76911 0.89314 0.38095 0.0
C1028 C 0.75132 0.91906 0.40773 0.0
C1029 C 0.71319 0.90183 0.38175 0.0
C1030 C 0.74308 0.93756 0.40083 0.0
C1031 C 0.74316 0.95343 0.42013 0.0
C1032 C 0.75157 0.95122 0.44675 0.0
C1033 C 0.76005 0.93285 0.45357 0.0
C1034 C 0.75998 0.91699 0.43427 0.0
H1035 H 0.70109 0.89098 0.37613 0.0
H1036 H 0.71306 0.90575 0.4038 0.0
H1037 H 0.70996 0.91547 0.37028 0.0
H1038 H 0.73667 0.93979 0.38043 0.0
H1039 H 0.73671 0.96749 0.41426 0.0
H1040 H 0.18805 0.7716 0.26147 0.0
H1041 H 0.15781 0.77161 0.28633 0.0
H1042 H 0.18386 0.72806 0.33996 0.0
H1043 H 0.21414 0.72842 0.31593 0.0
H1044 H 0.13116 0.74318 0.29634 0.0
H1045 H 0.16864 0.77054 0.39378 0.0
H1046 H 0.18056 0.77061 0.36219 0.0
H1047 H 0.17996 0.74831 0.38123 0.0
C1048 C 0.18729 0.76202 0.27854 0.0
C1049 C 0.2036 0.75022 0.28695 0.0
C1050 C 0.17001 0.76204 0.29274 0.0
C1051 C 0.16875 0.75021 0.31547 0.0
C1052 C 0.1847 0.73779 0.32306 0.0
H1053 H 0.06415 0.71342 0.39282 0.0
H1054 H 0.09169 0.71678 0.3639 0.0
C1055 C 0.20198 0.73794 0.30916 0.0
C1056 C 0.15086 0.75073 0.33141 0.0
H1057 H 0.13635 0.75646 0.39614 0.0
C1058 C 0.13225 0.74627 0.31812 0.0
C1059 C 0.15217 0.75516 0.35977 0.0
C1060 C 0.17138 0.76164 0.37502 0.0
C1061 C 0.11505 0.74544 0.33256 0.0
C1062 C 0.1166 0.74865 0.36119 0.0
C1063 C 0.13513 0.75373 0.37428 0.0
C1064 C 0.09934 0.74676 0.37812 0.0
C1065 C 0.0954 0.74142 0.31688 0.0
C1066 C 0.09477 0.76221 0.39647 0.0
C1067 C 0.07938 0.7601 0.41368 0.0
C1068 C 0.06806 0.74251 0.4129 0.0
C1069 C 0.0726 0.72711 0.3943 0.0
C1070 C 0.08817 0.72914 0.37732 0.0
H1071 H 0.09569 0.74586 0.29543 0.0
H1072 H 0.09218 0.72526 0.31663 0.0
H1073 H 0.08314 0.74946 0.32631 0.0
H1074 H 0.10327 0.77588 0.39769 0.0
H1075 H 0.07671 0.77216 0.42805 0.0
H1076 H 0.28855 0.22002 0.35865 0.0
H1077 H 0.29079 0.19183 0.38904 0.0
H1078 H 0.25708 0.15565 0.32851 0.0
H1079 H 0.25465 0.18355 0.29833 0.0
H1080 H 0.24316 0.15244 0.37911 0.0
H1081 H 0.32476 0.14163 0.38498 0.0
H1082 H 0.31681 0.1663 0.39397 0.0
H1083 H 0.31205 0.15668 0.3597 0.0
C1084 C 0.28176 0.20602 0.35171 0.0
C1085 C 0.27147 0.20418 0.32588 0.0
C1086 C 0.28312 0.18983 0.36911 0.0
C1087 C 0.27428 0.17141 0.36108 0.0
C1088 C 0.26408 0.1696 0.3353 0.0
H1089 H 0.29012 0.05359 0.42793 0.0
H1090 H 0.29028 0.08358 0.4009 0.0
C1091 C 0.26275 0.18566 0.31796 0.0
C1092 C 0.27498 0.1541 0.37953 0.0
H1093 H 0.3064 0.1216 0.41274 0.0
C1094 C 0.25702 0.14578 0.38653 0.0
C1095 C 0.29301 0.14512 0.38905 0.0
C1096 C 0.31278 0.15272 0.38141 0.0
C1097 C 0.25656 0.12892 0.40266 0.0
C1098 C 0.27459 0.1201 0.41252 0.0
C1099 C 0.29257 0.12836 0.40545 0.0
C1100 C 0.27502 0.10203 0.42952 0.0
C1101 C 0.23671 0.12035 0.40835 0.0
C1102 C 0.26665 0.10231 0.45488 0.0
C1103 C 0.26661 0.08519 0.47034 0.0
C1104 C 0.27505 0.06739 0.46093 0.0
C1105 C 0.28362 0.06713 0.43575 0.0
C1106 C 0.28371 0.08428 0.42031 0.0
H1107 H 0.22461 0.12563 0.39397 0.0
H1108 H 0.237 0.10387 0.40703 0.0
H1109 H 0.23315 0.12502 0.42925 0.0
H1110 H 0.26014 0.11582 0.46276 0.0
H1111 H 0.25995 0.08582 0.4897 0.0
H1112 H 0.69151 0.73005 0.76395 0.0
H1113 H 0.6619 0.73015 0.78998 0.0
H1114 H 0.68663 0.77832 0.84154 0.0
H1115 H 0.71639 0.77782 0.81633 0.0
H1116 H 0.67341 0.75028 0.87122 0.0
H1117 H 0.61507 0.76677 0.79054 0.0
H1118 H 0.62944 0.74521 0.78261 0.0
H1119 H 0.64116 0.76924 0.78571 0.0
C1120 C 0.69049 0.74082 0.78061 0.0
C1121 C 0.70631 0.7539 0.78809 0.0
C1122 C 0.6735 0.74094 0.79541 0.0
C1123 C 0.67187 0.75441 0.81758 0.0
C1124 C 0.68749 0.76777 0.82457 0.0
H1125 H 0.56683 0.78248 0.90331 0.0
H1126 H 0.59447 0.78199 0.87395 0.0
C1127 C 0.70452 0.76748 0.81008 0.0
C1128 C 0.65457 0.75395 0.83467 0.0
H1129 H 0.60403 0.75727 0.83298 0.0
C1130 C 0.65824 0.75187 0.86282 0.0
C1131 C 0.63477 0.75624 0.82383 0.0
C1132 C 0.62984 0.75969 0.79406 0.0
C1133 C 0.64278 0.75201 0.8804 0.0
C1134 C 0.62293 0.75364 0.86947 0.0
C1135 C 0.61922 0.7558 0.84133 0.0
C1136 C 0.60588 0.75363 0.88702 0.0
C1137 C 0.64798 0.75101 0.91059 0.0
C1138 C 0.60288 0.73773 0.90393 0.0
C1139 C 0.58732 0.73815 0.92121 0.0
C1140 C 0.57413 0.75433 0.92163 0.0
C1141 C 0.57688 0.76997 0.90405 0.0
C1142 C 0.59257 0.76962 0.88698 0.0
H1143 H 0.66354 0.75574 0.91609 0.0
H1144 H 0.63799 0.76051 0.92237 0.0
H1145 H 0.64644 0.73545 0.91682 0.0
H1146 H 0.61265 0.725 0.9039 0.0
H1147 H 0.58587 0.72589 0.93454 0.0
H1148 H 0.22769 0.73684 0.83913 0.0
H1149 H 0.22681 0.70914 0.87032 0.0
H1150 H 0.26106 0.67331 0.81687 0.0
H1151 H 0.26194 0.70058 0.78577 0.0
H1152 H 0.21271 0.66748 0.85846 0.0
H1153 H 0.29263 0.6718 0.89279 0.0
H1154 H 0.27949 0.69218 0.87694 0.0
H1155 H 0.28728 0.67139 0.85656 0.0
C1156 C 0.23499 0.72305 0.83398 0.0
C1157 C 0.24492 0.72109 0.80984 0.0
C1158 C 0.23446 0.7072 0.85185 0.0
C1159 C 0.24409 0.68914 0.84618 0.0
C1160 C 0.25376 0.68711 0.82197 0.0
H1161 H 0.26859 0.57616 0.922 0.0
H1162 H 0.26703 0.60542 0.89393 0.0
C1163 C 0.25415 0.70279 0.80408 0.0
C1164 C 0.24414 0.67231 0.86529 0.0
H1165 H 0.27509 0.64347 0.90525 0.0
C1166 C 0.22631 0.66233 0.86892 0.0
C1167 C 0.26188 0.66543 0.8788 0.0
C1168 C 0.28142 0.67581 0.87634 0.0
C1169 C 0.22584 0.64537 0.88493 0.0
C1170 C 0.24364 0.6384 0.89842 0.0
C1171 C 0.26141 0.64862 0.89502 0.0
C1172 C 0.24431 0.62041 0.91569 0.0
C1173 C 0.20636 0.63464 0.88628 0.0
C1174 C 0.23227 0.61892 0.9377 0.0
C1175 C 0.23308 0.60207 0.95378 0.0
C1176 C 0.24618 0.58631 0.94863 0.0
C1177 C 0.25843 0.58799 0.92684 0.0
C1178 C 0.2575 0.60476 0.91065 0.0
H1179 H 0.19577 0.63809 0.86882 0.0
H1180 H 0.20851 0.61831 0.88647 0.0
H1181 H 0.19949 0.63946 0.90519 0.0
H1182 H 0.22239 0.63092 0.94274 0.0
H1183 H 0.22367 0.60158 0.97064 0.0
H1184 H 0.30461 0.27675 0.79412 0.0
H1185 H 0.33457 0.27035 0.82273 0.0
H1186 H 0.29995 0.24069 0.87939 0.0
H1187 H 0.26962 0.24681 0.85043 0.0
H1188 H 0.34359 0.2829 0.87616 0.0
H1189 H 0.34403 0.20042 0.86555 0.0
H1190 H 0.3286 0.21561 0.84329 0.0
H1191 H 0.32176 0.2114 0.87715 0.0
C1192 C 0.30325 0.2688 0.8126 0.0
C1193 C 0.28464 0.26226 0.81992 0.0
C1194 C 0.32046 0.26516 0.82897 0.0
C1195 C 0.31957 0.25485 0.85305 0.0
C1196 C 0.30104 0.24836 0.86063 0.0
H1197 H 0.41933 0.22667 0.96951 0.0
H1198 H 0.38584 0.22971 0.94693 0.0
C1199 C 0.28371 0.25198 0.84415 0.0
C1200 C 0.33815 0.25151 0.87022 0.0
H1201 H 0.37013 0.2155 0.89324 0.0
C1202 C 0.34933 0.26816 0.88001 0.0
C1203 C 0.3456 0.23226 0.87531 0.0
C1204 C 0.33451 0.21385 0.86465 0.0
C1205 C 0.36787 0.26611 0.89433 0.0
C1206 C 0.37559 0.24689 0.89868 0.0
C1207 C 0.36418 0.23021 0.88972 0.0
C1208 C 0.39581 0.24397 0.91168 0.0
C1209 C 0.37908 0.28455 0.90465 0.0
C1210 C 0.41248 0.25051 0.899 0.0
C1211 C 0.4315 0.24871 0.91177 0.0
C1212 C 0.43411 0.24038 0.93743 0.0
C1213 C 0.41754 0.23323 0.94975 0.0
C1214 C 0.3985 0.23496 0.93691 0.0
H1215 H 0.36916 0.29765 0.90582 0.0
H1216 H 0.38656 0.28235 0.9251 0.0
H1217 H 0.39063 0.28786 0.89054 0.0
H1218 H 0.41075 0.25719 0.87932 0.0
H1219 H 0.44415 0.25413 0.90188 0.0
H1220 H 0.7819 0.28699 0.85764 0.0
H1221 H 0.78403 0.31653 0.8885 0.0
H1222 H 0.75903 0.35221 0.82389 0.0
H1223 H 0.75649 0.32295 0.79335 0.0
H1224 H 0.80319 0.35249 0.88748 0.0
H1225 H 0.72224 0.36561 0.88259 0.0
H1226 H 0.7328 0.34291 0.86965 0.0
H1227 H 0.73178 0.36474 0.84956 0.0
C1228 C 0.7769 0.30114 0.85 0.0
C1229 C 0.76884 0.30244 0.82298 0.0
C1230 C 0.77811 0.31806 0.86769 0.0
C1231 C 0.77124 0.33664 0.85884 0.0
C1232 C 0.76389 0.33804 0.83161 0.0
H1233 H 0.76446 0.45834 0.92342 0.0
H1234 H 0.76435 0.42737 0.8955 0.0
C1235 C 0.76258 0.32121 0.81403 0.0
C1236 C 0.77173 0.35463 0.87777 0.0
H1237 H 0.74271 0.39207 0.90193 0.0
C1238 C 0.78992 0.36102 0.89083 0.0
C1239 C 0.75445 0.36588 0.88235 0.0
C1240 C 0.73419 0.35934 0.87053 0.0
C1241 C 0.79138 0.37855 0.90745 0.0
C1242 C 0.77417 0.39 0.91148 0.0
C1243 C 0.75596 0.38346 0.89875 0.0
C1244 C 0.77469 0.40888 0.92856 0.0
C1245 C 0.81148 0.38501 0.91991 0.0
C1246 C 0.78036 0.40892 0.95657 0.0
C1247 C 0.78029 0.42661 0.97256 0.0
C1248 C 0.77455 0.44467 0.96093 0.0
C1249 C 0.76892 0.44464 0.93293 0.0
C1250 C 0.76887 0.42694 0.91698 0.0
H1251 H 0.82371 0.37734 0.9099 0.0
H1252 H 0.81346 0.4013 0.91856 0.0
H1253 H 0.81269 0.38139 0.94174 0.0
H1254 H 0.78456 0.3952 0.96619 0.0
H1255 H 0.78457 0.42618 0.99411 0.0
H1256 H 0.71589 0.22995 0.16307 0.0
H1257 H 0.68593 0.22673 0.13196 0.0
H1258 H 0.65043 0.24875 0.19574 0.0
H1259 H 0.68006 0.25232 0.2266 0.0
H1260 H 0.65076 0.20521 0.13524 0.0
H1261 H 0.63537 0.28592 0.13449 0.0
H1262 H 0.65883 0.27605 0.14756 0.0
H1263 H 0.6379 0.27665 0.16821 0.0
C1264 C 0.70169 0.23409 0.17044 0.0
C1265 C 0.70043 0.2416 0.19725 0.0
C1266 C 0.6846 0.23223 0.15265 0.0
C1267 C 0.666 0.23791 0.16136 0.0
C1268 C 0.66467 0.24477 0.18834 0.0
H1269 H 0.54333 0.23999 0.10023 0.0
H1270 H 0.57525 0.24001 0.12743 0.0
C1271 C 0.68167 0.24671 0.20602 0.0
C1272 C 0.64786 0.23673 0.14247 0.0
H1273 H 0.60906 0.26449 0.11679 0.0
C1274 C 0.64174 0.21818 0.13094 0.0
C1275 C 0.63614 0.25371 0.13679 0.0
C1276 C 0.64248 0.27424 0.14718 0.0
C1277 C 0.62382 0.21606 0.11473 0.0
C1278 C 0.61185 0.23295 0.1098 0.0
C1279 C 0.61819 0.25153 0.12083 0.0
C1280 C 0.59254 0.23171 0.09353 0.0
C1281 C 0.6175 0.19571 0.10368 0.0
C1282 C 0.59171 0.22702 0.0655 0.0
C1283 C 0.57354 0.22714 0.05 0.0
C1284 C 0.55597 0.23198 0.0623 0.0
C1285 C 0.55675 0.23629 0.09039 0.0
C1286 C 0.57491 0.23629 0.10586 0.0
H1287 H 0.62642 0.18375 0.11352 0.0
H1288 H 0.60158 0.1931 0.10662 0.0
H1289 H 0.61942 0.19471 0.08151 0.0
H1290 H 0.60516 0.22373 0.05552 0.0
H1291 H 0.57322 0.22382 0.02831 0.0
H1292 H 0.7481 0.69605 0.23151 0.0
H1293 H 0.75176 0.66671 0.2021 0.0
H1294 H 0.78051 0.70198 0.14506 0.0
H1295 H 0.77709 0.73168 0.17482 0.0
H1296 H 0.7364 0.65938 0.14999 0.0
H1297 H 0.81864 0.65533 0.15369 0.0
H1298 H 0.80571 0.6709 0.17713 0.0
H1299 H 0.80819 0.67853 0.143 0.0
C1300 C 0.75534 0.6977 0.21281 0.0
C1301 C 0.76235 0.71639 0.20569 0.0
C1302 C 0.7574 0.68079 0.19592 0.0
C1303 C 0.7666 0.68192 0.17138 0.0
C1304 C 0.77368 0.70054 0.1641 0.0
H1305 H 0.7867 0.58729 0.04802 0.0
H1306 H 0.7854 0.61933 0.07343 0.0
C1307 C 0.77162 0.71757 0.18109 0.0
C1308 C 0.76806 0.66362 0.1534 0.0
H1309 H 0.80088 0.63155 0.12519 0.0
C1310 C 0.75053 0.65334 0.14457 0.0
C1311 C 0.78645 0.65566 0.1461 0.0
C1312 C 0.80586 0.66553 0.1556 0.0
C1313 C 0.75084 0.63547 0.12888 0.0
C1314 C 0.76924 0.62725 0.12212 0.0
C1315 C 0.78677 0.63773 0.1304 0.0
C1316 C 0.77053 0.60766 0.10694 0.0
C1317 C 0.73137 0.62568 0.11939 0.0
C1318 C 0.76299 0.59026 0.11742 0.0
C1319 C 0.76375 0.572 0.10293 0.0
C1320 C 0.77214 0.57068 0.07766 0.0
C1321 C 0.78009 0.58794 0.06742 0.0
C1322 C 0.77936 0.60623 0.08194 0.0
H1323 H 0.7189 0.63643 0.11929 0.0
H1324 H 0.73194 0.61887 0.09863 0.0
H1325 H 0.72815 0.61379 0.13345 0.0
H1326 H 0.75652 0.59078 0.1369 0.0
H1327 H 0.75769 0.55888 0.11139 0.0
H1328 H 0.31882 0.7414 0.22818 0.0
H1329 H 0.34552 0.74319 0.19756 0.0
H1330 H 0.30772 0.77627 0.14152 0.0
H1331 H 0.28067 0.77452 0.17215 0.0
H1332 H 0.34274 0.72905 0.13971 0.0
H1333 H 0.36105 0.80942 0.15566 0.0
H1334 H 0.34815 0.79583 0.17999 0.0
H1335 H 0.33539 0.8026 0.14858 0.0
C1336 C 0.31612 0.74916 0.20943 0.0
C1337 C 0.29757 0.75786 0.20267 0.0
C1338 C 0.33143 0.75013 0.19193 0.0
C1339 C 0.32864 0.75996 0.1674 0.0
C1340 C 0.31021 0.76877 0.16052 0.0
H1341 H 0.41505 0.78076 0.04723 0.0
H1342 H 0.38526 0.78106 0.07277 0.0
C1343 C 0.29477 0.7677 0.17799 0.0
C1344 C 0.345 0.76045 0.14893 0.0
H1345 H 0.38011 0.79081 0.12579 0.0
C1346 C 0.35087 0.74256 0.13652 0.0
C1347 C 0.35546 0.77811 0.14472 0.0
C1348 C 0.34986 0.79763 0.15798 0.0
C1349 C 0.36703 0.74181 0.12011 0.0
C1350 C 0.37799 0.75935 0.11665 0.0
C1351 C 0.3718 0.77735 0.12857 0.0
C1352 C 0.39615 0.75923 0.10127 0.0
C1353 C 0.37206 0.72225 0.10642 0.0
C1354 C 0.41234 0.74713 0.10906 0.0
C1355 C 0.42936 0.74688 0.09447 0.0
C1356 C 0.43067 0.75896 0.07199 0.0
C1357 C 0.41459 0.77139 0.06457 0.0
C1358 C 0.39752 0.77152 0.07908 0.0
H1359 H 0.35901 0.71214 0.10411 0.0
H1360 H 0.37751 0.72445 0.08602 0.0
H1361 H 0.38388 0.71481 0.11908 0.0
H1362 H 0.41188 0.73793 0.12658 0.0
H1363 H 0.44161 0.73742 0.10102 0.0
H1364 H 0.24482 0.28754 0.20111 0.0
H1365 H 0.24445 0.31728 0.17448 0.0
H1366 H 0.27264 0.35037 0.24301 0.0
H1367 H 0.27359 0.32024 0.26977 0.0
H1368 H 0.22682 0.35175 0.17964 0.0
H1369 H 0.30788 0.36545 0.18489 0.0
H1370 H 0.29741 0.34283 0.19621 0.0
H1371 H 0.2979 0.36503 0.21762 0.0
C1372 C 0.25101 0.30108 0.21067 0.0
C1373 C 0.25931 0.30133 0.23772 0.0
C1374 C 0.25076 0.31819 0.1953 0.0
C1375 C 0.25878 0.33619 0.20637 0.0
C1376 C 0.26679 0.33664 0.23358 0.0
H1377 H 0.23194 0.44891 0.12575 0.0
H1378 H 0.23332 0.42129 0.15667 0.0
C1379 C 0.26718 0.3194 0.24901 0.0
C1380 C 0.2583 0.35431 0.18932 0.0
H1381 H 0.28742 0.3899 0.16391 0.0
C1382 C 0.24011 0.36008 0.17629 0.0
C1383 C 0.27561 0.36515 0.1844 0.0
C1384 C 0.29584 0.35923 0.19627 0.0
C1385 C 0.23873 0.37616 0.15868 0.0
C1386 C 0.25594 0.38733 0.15432 0.0
C1387 C 0.27415 0.38157 0.16731 0.0
C1388 C 0.25546 0.40465 0.13584 0.0
C1389 C 0.21887 0.38052 0.1442 0.0
C1390 C 0.26791 0.40511 0.11416 0.0
C1391 C 0.26728 0.42107 0.0965 0.0
C1392 C 0.25415 0.43708 0.09998 0.0
C1393 C 0.24193 0.43672 0.12197 0.0
C1394 C 0.24268 0.42084 0.13973 0.0
H1395 H 0.20886 0.36739 0.14332 0.0
H1396 H 0.21158 0.39273 0.1554 0.0
H1397 H 0.22056 0.38518 0.12312 0.0
H1398 H 0.27796 0.39292 0.1106 0.0
H1399 H 0.27684 0.42066 0.07977 0.0
H1400 H 0.27855 0.21023 0.17737 0.0
H1401 H 0.30632 0.20678 0.14797 0.0
H1402 H 0.34432 0.23882 0.20835 0.0
H1403 H 0.31705 0.24195 0.23783 0.0
H1404 H 0.32747 0.23607 0.12588 0.0
H1405 H 0.37859 0.19165 0.1918 0.0
H1406 H 0.35273 0.1947 0.19792 0.0
H1407 H 0.37052 0.21367 0.20924 0.0
C1408 C 0.29291 0.21626 0.18453 0.0
C1409 C 0.29554 0.22625 0.21008 0.0
C1410 C 0.30876 0.21434 0.16767 0.0
C1411 C 0.32755 0.22223 0.17611 0.0
C1412 C 0.33017 0.23212 0.20162 0.0
H1413 H 0.43915 0.24734 0.10941 0.0
H1414 H 0.41027 0.24466 0.1365 0.0
C1415 C 0.31443 0.23401 0.21843 0.0
C1416 C 0.34424 0.22122 0.15788 0.0
H1417 H 0.39314 0.20852 0.15598 0.0
C1418 C 0.34174 0.22978 0.13229 0.0
C1419 C 0.36291 0.21304 0.16622 0.0
C1420 C 0.36631 0.20257 0.19268 0.0
C1421 C 0.35757 0.23108 0.11536 0.0
C1422 C 0.37637 0.22346 0.12412 0.0
C1423 C 0.37877 0.2145 0.14939 0.0
C1424 C 0.39383 0.22496 0.10755 0.0
C1425 C 0.35428 0.2412 0.08862 0.0
C1426 C 0.39427 0.21461 0.0824 0.0
C1427 C 0.41076 0.21609 0.06689 0.0
C1428 C 0.42717 0.22799 0.07619 0.0
C1429 C 0.4267 0.23824 0.10149 0.0
C1430 C 0.41025 0.23664 0.11707 0.0
H1431 H 0.34016 0.24968 0.08727 0.0
H1432 H 0.36672 0.25149 0.08566 0.0
H1433 H 0.35368 0.22983 0.07175 0.0
H1434 H 0.38188 0.20533 0.0748 0.0
H1435 H 0.41053 0.20814 0.0474 0.0
H1436 H 0.76504 0.30471 0.212 0.0
H1437 H 0.7672 0.33675 0.19115 0.0
H1438 H 0.72638 0.36173 0.24637 0.0
H1439 H 0.72423 0.3295 0.26779 0.0
H1440 H 0.73344 0.35607 0.16618 0.0
H1441 H 0.77293 0.40277 0.2485 0.0
H1442 H 0.77372 0.37596 0.24816 0.0
H1443 H 0.75169 0.38874 0.257 0.0
C1444 C 0.75662 0.31702 0.21997 0.0
C1445 C 0.74435 0.31454 0.24146 0.0
C1446 C 0.75791 0.33532 0.20802 0.0
C1447 C 0.74701 0.35156 0.21729 0.0
C1448 C 0.7351 0.34939 0.23919 0.0
H1449 H 0.73981 0.46557 0.13559 0.0
H1450 H 0.73389 0.43946 0.1676 0.0
C1451 C 0.73384 0.33098 0.2513 0.0
C1452 C 0.74732 0.37021 0.2025 0.0
H1453 H 0.76528 0.41768 0.2065 0.0
C1454 C 0.74019 0.36962 0.17508 0.0
C1455 C 0.75607 0.38782 0.21427 0.0
C1456 C 0.76417 0.389 0.24356 0.0
C1457 C 0.7422 0.38598 0.1588 0.0
C1458 C 0.75171 0.40328 0.17022 0.0
C1459 C 0.75806 0.40428 0.19793 0.0
C1460 C 0.75637 0.41981 0.15295 0.0
C1461 C 0.73461 0.38452 0.12927 0.0
C1462 C 0.7712 0.41739 0.13465 0.0
C1463 C 0.77458 0.43214 0.1164 0.0
C1464 C 0.76315 0.44956 0.11615 0.0
C1465 C 0.74869 0.45219 0.13515 0.0
C1466 C 0.74538 0.43742 0.15352 0.0
H1467 H 0.72418 0.37187 0.12502 0.0
H1468 H 0.72699 0.39845 0.12322 0.0
H1469 H 0.74733 0.38233 0.11644 0.0
H1470 H 0.77981 0.40383 0.13403 0.0
H1471 H 0.78565 0.42958 0.10183 0.0
H1472 H 0.67311 0.73889 0.26077 0.0
H1473 H 0.64234 0.73803 0.23091 0.0
H1474 H 0.67042 0.77315 0.17312 0.0
H1475 H 0.70093 0.77421 0.20251 0.0
H1476 H 0.61914 0.77296 0.20541 0.0
H1477 H 0.65068 0.71966 0.13158 0.0
H1478 H 0.6605 0.72257 0.16653 0.0
H1479 H 0.66615 0.74062 0.14228 0.0
C1480 C 0.67265 0.7466 0.24185 0.0
C1481 C 0.68958 0.75651 0.23402 0.0
C1482 C 0.65507 0.74608 0.22482 0.0
C1483 C 0.65422 0.75532 0.19967 0.0
C1484 C 0.67084 0.76573 0.19229 0.0
H1485 H 0.57797 0.7672 0.05408 0.0
H1486 H 0.60483 0.76678 0.09026 0.0
C1487 C 0.68829 0.76634 0.20923 0.0
C1488 C 0.63631 0.75376 0.18046 0.0
H1489 H 0.62043 0.7352 0.11734 0.0
C1490 C 0.61926 0.76452 0.18628 0.0
C1491 C 0.63661 0.74283 0.1555 0.0
C1492 C 0.65438 0.73061 0.14855 0.0
C1493 C 0.60273 0.76524 0.16727 0.0
C1494 C 0.60317 0.75457 0.14203 0.0
C1495 C 0.62009 0.74343 0.1366 0.0
C1496 C 0.58659 0.75525 0.12051 0.0
C1497 C 0.58532 0.77809 0.17393 0.0
C1498 C 0.56741 0.7488 0.12536 0.0
C1499 C 0.55207 0.74917 0.10474 0.0
C1500 C 0.5557 0.75577 0.07885 0.0
C1501 C 0.57486 0.76209 0.07393 0.0
C1502 C 0.59017 0.76182 0.09456 0.0
H1503 H 0.58934 0.7891 0.19071 0.0
H1504 H 0.57945 0.78615 0.15584 0.0
H1505 H 0.57328 0.76855 0.18048 0.0
H1506 H 0.56436 0.74325 0.14498 0.0
H1507 H 0.53738 0.74418 0.10889 0.0
H1508 H 0.23698 0.69426 0.21725 0.0
H1509 H 0.23588 0.66096 0.1965 0.0
H1510 H 0.28214 0.64242 0.25485 0.0
H1511 H 0.2835 0.67602 0.27579 0.0
H1512 H 0.29015 0.63406 0.20149 0.0
H1513 H 0.21484 0.60786 0.21926 0.0
H1514 H 0.21434 0.63226 0.20582 0.0
H1515 H 0.22672 0.62833 0.23873 0.0
C1516 C 0.24674 0.68307 0.226 0.0
C1517 C 0.2604 0.6878 0.24809 0.0
C1518 C 0.24594 0.66396 0.21426 0.0
C1519 C 0.2587 0.64916 0.22442 0.0
C1520 C 0.27203 0.65363 0.24693 0.0
H1521 H 0.24857 0.53425 0.13357 0.0
H1522 H 0.25144 0.55822 0.17254 0.0
C1523 C 0.27278 0.6728 0.25883 0.0
C1524 C 0.25949 0.62986 0.20936 0.0
H1525 H 0.22969 0.5931 0.17994 0.0
C1526 C 0.27707 0.62482 0.19727 0.0
C1527 C 0.2425 0.61771 0.20416 0.0
C1528 C 0.2236 0.6217 0.21793 0.0
C1529 C 0.27767 0.60876 0.17852 0.0
C1530 C 0.26017 0.59772 0.17148 0.0
C1531 C 0.24301 0.60181 0.18509 0.0
C1532 C 0.25891 0.58304 0.14846 0.0
C1533 C 0.29688 0.60414 0.16581 0.0
C1534 C 0.26183 0.58922 0.12215 0.0
C1535 C 0.26015 0.57565 0.10011 0.0
C1536 C 0.25541 0.55579 0.10409 0.0
C1537 C 0.25228 0.54958 0.1303 0.0
C1538 C 0.25394 0.56318 0.1524 0.0
H1539 H 0.30988 0.60943 0.17916 0.0
H1540 H 0.29846 0.58794 0.16153 0.0
H1541 H 0.2971 0.61184 0.14631 0.0
H1542 H 0.2652 0.60459 0.11863 0.0
H1543 H 0.26248 0.58064 0.07993 0.0
H1544 H 0.3123 0.78905 0.78544 0.0
H1545 H 0.34386 0.79022 0.81287 0.0
H1546 H 0.3534 0.72826 0.79257 0.0
H1547 H 0.32244 0.72753 0.76361 0.0
H1548 H 0.35285 0.7731 0.85631 0.0
H1549 H 0.40762 0.7473 0.78506 0.0
H1550 H 0.38259 0.75367 0.77358 0.0
H1551 H 0.38816 0.7294 0.78638 0.0
C1552 C 0.32144 0.77584 0.78629 0.0
C1553 C 0.31506 0.75825 0.77225 0.0
C1554 C 0.33944 0.77647 0.80208 0.0
C1555 C 0.35127 0.75939 0.80473 0.0
C1556 C 0.345 0.74184 0.7903 0.0
H1557 H 0.43063 0.74414 0.94951 0.0
H1558 H 0.40273 0.74406 0.91502 0.0
C1559 C 0.32722 0.74138 0.77383 0.0
C1560 C 0.36912 0.75962 0.82442 0.0
H1561 H 0.41786 0.74608 0.83259 0.0
C1562 C 0.36711 0.76738 0.85092 0.0
C1563 C 0.3879 0.75244 0.81755 0.0
C1564 C 0.39175 0.74545 0.789 0.0
C1565 C 0.38312 0.76799 0.87068 0.0
C1566 C 0.40155 0.75966 0.86432 0.0
C1567 C 0.40369 0.75218 0.83771 0.0
C1568 C 0.41879 0.75874 0.88487 0.0
C1569 C 0.38012 0.77808 0.89791 0.0
C1570 C 0.43749 0.76598 0.87903 0.0
C1571 C 0.45361 0.76536 0.89843 0.0
C1572 C 0.45126 0.75782 0.92419 0.0
C1573 C 0.43271 0.75026 0.92989 0.0
C1574 C 0.41672 0.75043 0.91028 0.0
H1575 H 0.36813 0.78934 0.89623 0.0
H1576 H 0.37564 0.76685 0.91222 0.0
H1577 H 0.39389 0.78554 0.90665 0.0
H1578 H 0.43958 0.7723 0.85955 0.0
H1579 H 0.46788 0.77098 0.89346 0.0
H1580 H 0.26436 0.35076 0.76279 0.0
H1581 H 0.26449 0.38213 0.78968 0.0
H1582 H 0.22038 0.3586 0.83891 0.0
H1583 H 0.22009 0.32738 0.81233 0.0
H1584 H 0.21459 0.39994 0.82239 0.0
H1585 H 0.28963 0.38337 0.87047 0.0
H1586 H 0.28657 0.38248 0.83389 0.0
H1587 H 0.27427 0.36446 0.85273 0.0
C1588 C 0.25448 0.3524 0.77909 0.0
C1589 C 0.24236 0.33654 0.78563 0.0
C1590 C 0.25463 0.37027 0.79444 0.0
C1591 C 0.24258 0.37252 0.81637 0.0
C1592 C 0.22979 0.35709 0.82206 0.0
H1593 H 0.24627 0.43886 0.96623 0.0
H1594 H 0.24536 0.41438 0.92804 0.0
C1595 C 0.22972 0.33924 0.80691 0.0
C1596 C 0.2441 0.3903 0.83479 0.0
H1597 H 0.27354 0.41177 0.88676 0.0
C1598 C 0.22756 0.40277 0.83622 0.0
C1599 C 0.26099 0.39366 0.85296 0.0
C1600 C 0.27889 0.38028 0.85272 0.0
C1601 C 0.2273 0.41834 0.85586 0.0
C1602 C 0.24405 0.42147 0.87433 0.0
C1603 C 0.26076 0.4093 0.87245 0.0
C1604 C 0.24406 0.43638 0.89701 0.0
C1605 C 0.20884 0.4308 0.8575 0.0
C1606 C 0.24364 0.45677 0.89208 0.0
C1607 C 0.24414 0.47068 0.91384 0.0
C1608 C 0.24509 0.46428 0.94064 0.0
C1609 C 0.24545 0.44395 0.94559 0.0
C1610 C 0.24498 0.43007 0.92389 0.0
H1611 H 0.19609 0.42441 0.84463 0.0
H1612 H 0.20464 0.43228 0.87884 0.0
H1613 H 0.21181 0.44591 0.8505 0.0
H1614 H 0.24321 0.4619 0.87148 0.0
H1615 H 0.24401 0.48638 0.90983 0.0
H1616 H 0.6794 0.27949 0.76092 0.0
H1617 H 0.64947 0.27797 0.78638 0.0
H1618 H 0.67789 0.23511 0.83896 0.0
H1619 H 0.70775 0.23678 0.81417 0.0
H1620 H 0.62425 0.24696 0.79746 0.0
H1621 H 0.66183 0.27779 0.89314 0.0
H1622 H 0.67282 0.27862 0.8609 0.0
H1623 H 0.67419 0.25633 0.88003 0.0
C1624 C 0.67921 0.26966 0.77781 0.0
C1625 C 0.69608 0.25843 0.78566 0.0
C1626 C 0.66211 0.26883 0.79237 0.0
C1627 C 0.66159 0.25679 0.81503 0.0
C1628 C 0.6781 0.24494 0.82207 0.0
H1629 H 0.58075 0.2231 0.93297 0.0
H1630 H 0.60779 0.22686 0.90306 0.0
C1631 C 0.69516 0.24584 0.80772 0.0
C1632 C 0.64397 0.25656 0.83158 0.0
H1633 H 0.63019 0.26269 0.89674 0.0
C1634 C 0.62548 0.25061 0.8191 0.0
C1635 C 0.64554 0.26142 0.85984 0.0
C1636 C 0.66461 0.26909 0.87423 0.0
C1637 C 0.60876 0.24864 0.83432 0.0
C1638 C 0.61053 0.25291 0.86269 0.0
C1639 C 0.62889 0.25927 0.87503 0.0
C1640 C 0.59368 0.25041 0.88016 0.0
C1641 C 0.58947 0.24139 0.82013 0.0
C1642 C 0.57679 0.26249 0.87738 0.0
C1643 C 0.56127 0.26039 0.8945 0.0
C1644 C 0.56231 0.24611 0.91472 0.0
C1645 C 0.57929 0.23404 0.91739 0.0
C1646 C 0.59483 0.23624 0.9004 0.0
H1647 H 0.59149 0.23515 0.79937 0.0
H1648 H 0.58266 0.22986 0.83209 0.0
H1649 H 0.57894 0.25399 0.81834 0.0
H1650 H 0.5757 0.27372 0.86216 0.0
H1651 H 0.54838 0.26985 0.89177 0.0
H1652 H 0.77638 0.69276 0.78131 0.0
H1653 H 0.78007 0.66289 0.80773 0.0
H1654 H 0.79396 0.69888 0.88064 0.0
H1655 H 0.79074 0.729 0.85413 0.0
H1656 H 0.81684 0.66395 0.87743 0.0
H1657 H 0.7364 0.64861 0.85702 0.0
H1658 H 0.74932 0.65095 0.82673 0.0
H1659 H 0.74748 0.67203 0.84983 0.0
C1660 C 0.78043 0.69434 0.80293 0.0
C1661 C 0.78298 0.71321 0.81577 0.0
C1662 C 0.78248 0.67727 0.81797 0.0
C1663 C 0.78681 0.67875 0.84618 0.0
C1664 C 0.79047 0.69749 0.85888 0.0
H1665 H 0.75825 0.58845 0.95676 0.0
H1666 H 0.7612 0.6188 0.93174 0.0
C1667 C 0.78863 0.71464 0.84375 0.0
C1668 C 0.78626 0.66082 0.86247 0.0
H1669 H 0.75566 0.62328 0.87804 0.0
C1670 C 0.80348 0.65505 0.8777 0.0
C1671 C 0.76868 0.64949 0.86307 0.0
C1672 C 0.74936 0.65566 0.84852 0.0
C1673 C 0.80368 0.63795 0.89319 0.0
C1674 C 0.78629 0.62622 0.89292 0.0
C1675 C 0.76903 0.6322 0.87797 0.0
C1676 C 0.78531 0.608 0.90863 0.0
C1677 C 0.82234 0.63286 0.91011 0.0
C1678 C 0.79781 0.59182 0.90378 0.0
C1679 C 0.79619 0.57444 0.91814 0.0
C1680 C 0.7818 0.57291 0.9372 0.0
C1681 C 0.76925 0.58911 0.94186 0.0
C1682 C 0.77101 0.60649 0.92773 0.0
H1683 H 0.83229 0.64594 0.91386 0.0
H1684 H 0.8188 0.62706 0.93001 0.0
H1685 H 0.83055 0.6212 0.89913 0.0
H1686 H 0.80862 0.59251 0.88864 0.0
H1687 H 0.80594 0.5621 0.91407 0.0
loop_
_geom_bond_atom_site_label_1
_geom_bond_atom_site_label_2
_geom_bond_distance
_geom_bond_site_symmetry_2
_ccdc_geom_bond_type
C0 O2 1.247 . S
C0 O4 1.258 . S
C1 O8 1.247 . S
C1 O9 1.258 . S
O2 C0 1.247 . S
O2 Zn3 2.028 . S
Zn3 O2 2.028 . S
Zn3 O7 2.035 . S
Zn3 O9 2.035 . S
Zn3 O10 2.028 . S
O4 C0 1.258 . S
O4 Zn5 2.035 . S
Zn5 O4 2.035 . S
Zn5 O6 2.028 . S
Zn5 O8 2.028 . S
Zn5 O11 2.035 . S
O6 Zn5 2.028 . S
O6 C12 1.247 . S
O7 Zn3 2.035 . S
O7 C12 1.258 . S
O8 C1 1.247 . S
O8 Zn5 2.028 . S
O9 C1 1.258 . S
O9 Zn3 2.035 . S
O10 Zn3 2.028 . S
O10 C13 1.247 . S
O11 Zn5 2.035 . S
O11 C13 1.258 . S
C12 O6 1.247 . S
C12 O7 1.258 . S
C13 O10 1.247 . S
C13 O11 1.258 . S
C14 O16 1.247 . S
C14 O18 1.258 . S
C15 O22 1.247 . S
C15 O23 1.258 . S
O16 C14 1.247 . S
O16 Zn17 2.028 . S
Zn17 O16 2.028 . S
Zn17 O21 2.035 . S
Zn17 O23 2.035 . S
Zn17 O24 2.028 . S
O18 C14 1.258 . S
O18 Zn19 2.035 . S
Zn19 O18 2.035 . S
Zn19 O20 2.028 . S
Zn19 O22 2.028 . S
Zn19 O25 2.035 . S
O20 Zn19 2.028 . S
O20 C26 1.247 . S
O21 Zn17 2.035 . S
O21 C26 1.258 . S
O22 C15 1.247 . S
O22 Zn19 2.028 . S
O23 C15 1.258 . S
O23 Zn17 2.035 . S
O24 Zn17 2.028 . S
O24 C27 1.247 . S
O25 Zn19 2.035 . S
O25 C27 1.258 . S
C26 O20 1.247 . S
C26 O21 1.258 . S
C27 O24 1.247 . S
C27 O25 1.258 . S
C28 O30 1.247 . S
C28 O32 1.258 . S
C29 O36 1.247 . S
C29 O37 1.258 . S
O30 C28 1.247 . S
O30 Zn31 2.028 . S
Zn31 O30 2.028 . S
Zn31 O35 2.035 . S
Zn31 O37 2.035 . S
Zn31 O38 2.028 . S
O32 C28 1.258 . S
O32 Zn33 2.035 . S
Zn33 O32 2.035 . S
Zn33 O34 2.028 . S
Zn33 O36 2.028 . S
Zn33 O39 2.035 . S
O34 Zn33 2.028 . S
O34 C40 1.247 . S
O35 Zn31 2.035 . S
O35 C40 1.258 . S
O36 C29 1.247 . S
O36 Zn33 2.028 . S
O37 C29 1.258 . S
O37 Zn31 2.035 . S
O38 Zn31 2.028 . S
O38 C41 1.247 . S
O39 Zn33 2.035 . S
O39 C41 1.258 . S
C40 O34 1.247 . S
C40 O35 1.258 . S
C41 O38 1.247 . S
C41 O39 1.258 . S
C42 O44 1.247 . S
C42 O46 1.258 . S
C43 O50 1.247 . S
C43 O51 1.258 . S
O44 C42 1.247 . S
O44 Zn45 2.028 . S
Zn45 O44 2.028 . S
Zn45 O49 2.035 . S
Zn45 O51 2.035 . S
Zn45 O52 2.028 . S
O46 C42 1.258 . S
O46 Zn47 2.035 . S
Zn47 O46 2.035 . S
Zn47 O48 2.028 . S
Zn47 O50 2.028 . S
Zn47 O53 2.035 . S
O48 Zn47 2.028 . S
O48 C54 1.247 . S
O49 Zn45 2.035 . S
O49 C54 1.258 . S
O50 C43 1.247 . S
O50 Zn47 2.028 . S
O51 C43 1.258 . S
O51 Zn45 2.035 . S
O52 Zn45 2.028 . S
O52 C55 1.247 . S
O53 Zn47 2.035 . S
O53 C55 1.258 . S
C54 O48 1.247 . S
C54 O49 1.258 . S
C55 O52 1.247 . S
C55 O53 1.258 . S
C56 O58 1.247 . S
C56 O60 1.258 . S
C57 O64 1.247 . S
C57 O65 1.258 . S
O58 C56 1.247 . S
O58 Zn59 2.028 . S
Zn59 O58 2.028 . S
Zn59 O63 2.035 . S
Zn59 O65 2.035 . S
Zn59 O66 2.028 . S
O60 C56 1.258 . S
O60 Zn61 2.035 . S
Zn61 O60 2.035 . S
Zn61 O62 2.028 . S
Zn61 O64 2.028 . S
Zn61 O67 2.035 . S
O62 Zn61 2.028 . S
O62 C68 1.247 . S
O63 Zn59 2.035 . S
O63 C68 1.258 . S
O64 C57 1.247 . S
O64 Zn61 2.028 . S
O65 C57 1.258 . S
O65 Zn59 2.035 . S
O66 Zn59 2.028 . S
O66 C69 1.247 . S
O67 Zn61 2.035 . S
O67 C69 1.258 . S
C68 O62 1.247 . S
C68 O63 1.258 . S
C69 O66 1.247 . S
C69 O67 1.258 . S
C70 O72 1.247 . S
C70 O74 1.258 . S
C71 O78 1.247 . S
C71 O79 1.258 . S
O72 C70 1.247 . S
O72 Zn73 2.028 . S
Zn73 O72 2.028 . S
Zn73 O77 2.035 . S
Zn73 O79 2.035 . S
Zn73 O80 2.028 . S
O74 C70 1.258 . S
O74 Zn75 2.035 . S
Zn75 O74 2.035 . S
Zn75 O76 2.028 . S
Zn75 O78 2.028 . S
Zn75 O81 2.035 . S
O76 Zn75 2.028 . S
O76 C82 1.247 . S
O77 Zn73 2.035 . S
O77 C82 1.258 . S
O78 C71 1.247 . S
O78 Zn75 2.028 . S
O79 C71 1.258 . S
O79 Zn73 2.035 . S
O80 Zn73 2.028 . S
O80 C83 1.247 . S
O81 Zn75 2.035 . S
O81 C83 1.258 . S
C82 O76 1.247 . S
C82 O77 1.258 . S
C83 O80 1.247 . S
C83 O81 1.258 . S
C84 O86 1.247 . S
C84 O88 1.258 . S
C85 O92 1.247 . S
C85 O93 1.258 . S
O86 C84 1.247 . S
O86 Zn87 2.028 . S
Zn87 O86 2.028 . S
Zn87 O91 2.035 . S
Zn87 O93 2.035 . S
Zn87 O94 2.028 . S
O88 C84 1.258 . S
O88 Zn89 2.035 . S
Zn89 O88 2.035 . S
Zn89 O90 2.028 . S
Zn89 O92 2.028 . S
Zn89 O95 2.035 . S
O90 Zn89 2.028 . S
O90 C96 1.247 . S
O91 Zn87 2.035 . S
O91 C96 1.258 . S
O92 C85 1.247 . S
O92 Zn89 2.028 . S
O93 C85 1.258 . S
O93 Zn87 2.035 . S
O94 Zn87 2.028 . S
O94 C97 1.247 . S
O95 Zn89 2.035 . S
O95 C97 1.258 . S
C96 O90 1.247 . S
C96 O91 1.258 . S
C97 O94 1.247 . S
C97 O95 1.258 . S
C98 O100 1.247 . S
C98 O102 1.258 . S
C99 O106 1.247 . S
C99 O107 1.258 . S
O100 C98 1.247 . S
O100 Zn101 2.028 . S
Zn101 O100 2.028 . S
Zn101 O105 2.035 . S
Zn101 O107 2.035 . S
Zn101 O108 2.028 . S
O102 C98 1.258 . S
O102 Zn103 2.035 . S
Zn103 O102 2.035 . S
Zn103 O104 2.028 . S
Zn103 O106 2.028 . S
Zn103 O109 2.035 . S
O104 Zn103 2.028 . S
O104 C110 1.247 . S
O105 Zn101 2.035 . S
O105 C110 1.258 . S
O106 C99 1.247 . S
O106 Zn103 2.028 . S
O107 C99 1.258 . S
O107 Zn101 2.035 . S
O108 Zn101 2.028 . S
O108 C111 1.247 . S
O109 Zn103 2.035 . S
O109 C111 1.258 . S
C110 O104 1.247 . S
C110 O105 1.258 . S
C111 O108 1.247 . S
C111 O109 1.258 . S
C112 C113 1.443 . S
C112 N116 1.376 . S
C112 C150 1.389 . S
C113 C112 1.443 . S
C113 C114 1.340 . S
C113 H153 0.951 . S
C114 C113 1.340 . S
C114 C115 1.439 . S
C114 H154 0.950 . S
C115 C114 1.439 . S
C115 N116 1.374 . S
C115 C149 1.395 . S
N116 C112 1.376 . S
N116 C115 1.374 . S
N116 Co117 2.008 . S
Co117 N116 2.008 . S
Co117 N118 1.995 1_455 S
Co117 N123 2.008 1_455 S
Co117 N128 1.995 . S
Co117 N133 2.282 1_455 S
Co117 N139 2.282 . S
N118 Co117 1.995 1_655 S
N118 C119 1.376 . S
N118 C122 1.383 . S
C119 N118 1.376 . S
C119 C120 1.446 . S
C119 C149 1.391 1_655 S
C120 C119 1.446 . S
C120 C121 1.339 . S
C120 H155 0.949 . S
C121 C120 1.339 . S
C121 C122 1.439 . S
C121 H156 0.950 . S
C122 N118 1.383 . S
C122 C121 1.439 . S
C122 C151 1.392 . S
N123 Co117 2.008 1_655 S
N123 C124 1.376 . S
N123 C127 1.374 . S
C124 N123 1.376 . S
C124 C125 1.443 . S
C124 C151 1.389 . S
C125 C124 1.443 . S
C125 C126 1.340 . S
C125 H157 0.951 . S
C126 C125 1.340 . S
C126 C127 1.439 . S
C126 H158 0.950 . S
C127 N123 1.374 . S
C127 C126 1.439 . S
C127 C152 1.389 1_655 S
N128 Co117 1.995 . S
N128 C129 1.376 . S
N128 C132 1.383 . S
C129 N128 1.376 . S
C129 C130 1.446 . S
C129 C152 1.397 . S
C130 C129 1.446 . S
C130 C131 1.339 . S
C130 H159 0.949 . S
C131 C130 1.339 . S
C131 C132 1.439 . S
C131 H160 0.950 . S
C132 N128 1.383 . S
C132 C131 1.439 . S
C132 C150 1.392 . S
N133 Co117 2.282 1_655 S
N133 C136 1.332 . S
N133 C138 1.332 . S
C134 C135 1.386 . S
C134 C137 1.388 . S
C135 C134 1.386 . S
C135 C136 1.382 . S
C135 H161 0.950 . S
C136 N133 1.332 . S
C136 C135 1.382 . S
C136 H147 0.952 . S
C137 C134 1.388 . S
C137 C138 1.382 . S
C137 H162 0.950 . S
C138 N133 1.332 . S
C138 C137 1.382 . S
C138 H148 0.948 . S
N139 Co117 2.282 . S
N139 C143 1.332 . S
N139 C144 1.332 . S
C140 C141 1.388 . S
C140 C144 1.382 . S
C140 H163 0.950 . S
C141 C140 1.388 . S
C141 C142 1.386 . S
C142 C141 1.386 . S
C142 C143 1.382 . S
C142 H164 0.950 . S
C143 N139 1.332 . S
C143 C142 1.382 . S
C143 H145 0.952 . S
C144 N139 1.332 . S
C144 C140 1.382 . S
C144 H146 0.948 . S
H145 C143 0.952 . S
H146 C144 0.948 . S
H147 C136 0.952 . S
H148 C138 0.948 . S
C149 C115 1.395 . S
C149 C119 1.391 1_455 S
C150 C112 1.389 . S
C150 C132 1.392 . S
C151 C122 1.392 . S
C151 C124 1.389 . S
C152 C127 1.389 1_455 S
C152 C129 1.397 . S
H153 C113 0.951 . S
H154 C114 0.950 . S
H155 C120 0.949 . S
H156 C121 0.950 . S
H157 C125 0.951 . S
H158 C126 0.950 . S
H159 C130 0.949 . S
H160 C131 0.950 . S
H161 C135 0.950 . S
H162 C137 0.950 . S
H163 C140 0.950 . S
H164 C142 0.950 . S
C165 C166 1.443 . S
C165 N169 1.376 . S
C165 C203 1.389 . S
C166 C165 1.443 . S
C166 C167 1.340 . S
C166 H206 0.951 . S
C167 C166 1.340 . S
C167 C168 1.439 . S
C167 H207 0.950 . S
C168 C167 1.439 . S
C168 N169 1.374 . S
C168 C202 1.395 . S
N169 C165 1.376 . S
N169 C168 1.374 . S
N169 Co170 2.008 . S
Co170 N169 2.008 . S
Co170 N171 1.995 1_545 S
Co170 N176 2.008 1_545 S
Co170 N181 1.995 . S
Co170 N186 2.282 1_545 S
Co170 N192 2.282 . S
N171 Co170 1.995 1_565 S
N171 C172 1.376 . S
N171 C175 1.383 . S
C172 N171 1.376 . S
C172 C173 1.446 . S
C172 C202 1.391 1_565 S
C173 C172 1.446 . S
C173 C174 1.339 . S
C173 H208 0.949 . S
C174 C173 1.339 . S
C174 C175 1.439 . S
C174 H209 0.950 . S
C175 N171 1.383 . S
C175 C174 1.439 . S
C175 C204 1.392 . S
N176 Co170 2.008 1_565 S
N176 C177 1.376 . S
N176 C180 1.374 . S
C177 N176 1.376 . S
C177 C178 1.443 . S
C177 C204 1.389 . S
C178 C177 1.443 . S
C178 C179 1.340 . S
C178 H210 0.951 . S
C179 C178 1.340 . S
C179 C180 1.439 . S
C179 H211 0.950 . S
C180 N176 1.374 . S
C180 C179 1.439 . S
C180 C205 1.395 . S
N181 Co170 1.995 . S
N181 C182 1.376 . S
N181 C185 1.383 . S
C182 N181 1.376 . S
C182 C183 1.446 . S
C182 C205 1.391 1_545 S
C183 C182 1.446 . S
C183 C184 1.339 . S
C183 H212 0.949 . S
C184 C183 1.339 . S
C184 C185 1.439 . S
C184 H213 0.950 . S
C185 N181 1.383 . S
C185 C184 1.439 . S
C185 C203 1.392 . S
N186 Co170 2.282 1_565 S
N186 C189 1.332 . S
N186 C191 1.332 . S
C187 C188 1.386 . S
C187 C190 1.388 . S
C188 C187 1.386 . S
C188 C189 1.382 . S
C188 H214 0.950 . S
C189 N186 1.332 . S
C189 C188 1.382 . S
C189 H200 0.952 . S
C190 C187 1.388 . S
C190 C191 1.382 . S
C190 H215 0.950 . S
C191 N186 1.332 . S
C191 C190 1.382 . S
C191 H201 0.948 . S
N192 Co170 2.282 . S
N192 C196 1.332 . S
N192 C197 1.332 . S
C193 C194 1.388 . S
C193 C197 1.382 . S
C193 H216 0.950 . S
C194 C193 1.388 . S
C194 C195 1.386 . S
C195 C194 1.386 . S
C195 C196 1.382 . S
C195 H217 0.950 . S
C196 N192 1.332 . S
C196 C195 1.382 . S
C196 H198 0.952 . S
C197 N192 1.332 . S
C197 C193 1.382 . S
C197 H199 0.948 . S
H198 C196 0.952 . S
H199 C197 0.948 . S
H200 C189 0.952 . S
H201 C191 0.948 . S
C202 C168 1.395 . S
C202 C172 1.391 1_545 S
C203 C165 1.389 . S
C203 C185 1.392 . S
C204 C175 1.392 . S
C204 C177 1.389 . S
C205 C180 1.395 . S
C205 C182 1.391 1_565 S
H206 C166 0.951 . S
H207 C167 0.950 . S
H208 C173 0.949 . S
H209 C174 0.950 . S
H210 C178 0.951 . S
H211 C179 0.950 . S
H212 C183 0.949 . S
H213 C184 0.950 . S
H214 C188 0.950 . S
H215 C190 0.950 . S
H216 C193 0.950 . S
H217 C195 0.950 . S
C218 C219 1.443 . S
C218 N222 1.376 . S
C218 C256 1.389 . S
C219 C218 1.443 . S
C219 C220 1.340 . S
C219 H259 0.951 . S
C220 C219 1.340 . S
C220 C221 1.439 . S
C220 H260 0.950 . S
C221 C220 1.439 . S
C221 N222 1.374 . S
C221 C255 1.395 . S
N222 C218 1.376 . S
N222 C221 1.374 . S
N222 Co223 2.008 . S
Co223 N222 2.008 . S
Co223 N224 1.995 1_455 S
Co223 N229 2.008 1_455 S
Co223 N234 1.995 . S
Co223 N239 2.282 1_455 S
Co223 N245 2.282 . S
N224 Co223 1.995 1_655 S
N224 C225 1.376 . S
N224 C228 1.383 . S
C225 N224 1.376 . S
C225 C226 1.446 . S
C225 C255 1.391 1_655 S
C226 C225 1.446 . S
C226 C227 1.339 . S
C226 H261 0.949 . S
C227 C226 1.339 . S
C227 C228 1.439 . S
C227 H262 0.950 . S
C228 N224 1.383 . S
C228 C227 1.439 . S
C228 C257 1.392 . S
N229 Co223 2.008 1_655 S
N229 C230 1.376 . S
N229 C233 1.374 . S
C230 N229 1.376 . S
C230 C231 1.443 . S
C230 C257 1.389 . S
C231 C230 1.443 . S
C231 C232 1.340 . S
C231 H263 0.951 . S
C232 C231 1.340 . S
C232 C233 1.439 . S
C232 H264 0.950 . S
C233 N229 1.374 . S
C233 C232 1.439 . S
C233 C258 1.417 . S
N234 Co223 1.995 . S
N234 C235 1.376 . S
N234 C238 1.383 . S
C235 N234 1.376 . S
C235 C236 1.446 . S
C235 C258 1.368 1_455 S
C236 C235 1.446 . S
C236 C237 1.339 . S
C236 H265 0.949 . S
C237 C236 1.339 . S
C237 C238 1.439 . S
C237 H266 0.950 . S
C238 N234 1.383 . S
C238 C237 1.439 . S
C238 C256 1.392 . S
N239 Co223 2.282 1_655 S
N239 C242 1.332 . S
N239 C244 1.332 . S
C240 C241 1.386 . S
C240 C243 1.388 . S
C241 C240 1.386 . S
C241 C242 1.382 . S
C241 H267 0.950 . S
C242 N239 1.332 . S
C242 C241 1.382 . S
C242 H253 0.952 . S
C243 C240 1.388 . S
C243 C244 1.382 . S
C243 H268 0.950 . S
C244 N239 1.332 . S
C244 C243 1.382 . S
C244 H254 0.948 . S
N245 Co223 2.282 . S
N245 C249 1.332 . S
N245 C250 1.332 . S
C246 C247 1.388 . S
C246 C250 1.382 . S
C246 H269 0.950 . S
C247 C246 1.388 . S
C247 C248 1.386 . S
C248 C247 1.386 . S
C248 C249 1.382 . S
C248 H270 0.950 . S
C249 N245 1.332 . S
C249 C248 1.382 . S
C249 H251 0.952 . S
C250 N245 1.332 . S
C250 C246 1.382 . S
C250 H252 0.948 . S
H251 C249 0.952 . S
H252 C250 0.948 . S
H253 C242 0.952 . S
H254 C244 0.948 . S
C255 C221 1.395 . S
C255 C225 1.391 1_455 S
C256 C218 1.389 . S
C256 C238 1.392 . S
C257 C228 1.392 . S
C257 C230 1.389 . S
C258 C233 1.417 . S
C258 C235 1.368 1_655 S
H259 C219 0.951 . S
H260 C220 0.950 . S
H261 C226 0.949 . S
H262 C227 0.950 . S
H263 C231 0.951 . S
H264 C232 0.950 . S
H265 C236 0.949 . S
H266 C237 0.950 . S
H267 C241 0.950 . S
H268 C243 0.950 . S
H269 C246 0.950 . S
H270 C248 0.950 . S
C271 C272 1.443 . S
C271 N275 1.376 . S
C271 C309 1.389 . S
C272 C271 1.443 . S
C272 C273 1.340 . S
C272 H312 0.951 . S
C273 C272 1.340 . S
C273 C274 1.439 . S
C273 H313 0.950 . S
C274 C273 1.439 . S
C274 N275 1.374 . S
C274 C308 1.395 . S
N275 C271 1.376 . S
N275 C274 1.374 . S
N275 Co276 2.008 1_565 S
Co276 N275 2.008 1_545 S
Co276 N277 1.995 . S
Co276 N282 2.008 . S
Co276 N287 1.995 1_545 S
Co276 N292 2.282 . S
Co276 N298 2.282 1_545 S
N277 Co276 1.995 . S
N277 C278 1.376 . S
N277 C281 1.383 . S
C278 N277 1.376 . S
C278 C279 1.446 . S
C278 C308 1.391 1_545 S
C279 C278 1.446 . S
C279 C280 1.339 . S
C279 H314 0.949 . S
C280 C279 1.339 . S
C280 C281 1.439 . S
C280 H315 0.950 . S
C281 N277 1.383 . S
C281 C280 1.439 . S
C281 C310 1.392 . S
N282 Co276 2.008 . S
N282 C283 1.376 . S
N282 C286 1.374 . S
C283 N282 1.376 . S
C283 C284 1.443 . S
C283 C310 1.389 . S
C284 C283 1.443 . S
C284 C285 1.340 . S
C284 H316 0.951 . S
C285 C284 1.340 . S
C285 C286 1.439 . S
C285 H317 0.950 . S
C286 N282 1.374 . S
C286 C285 1.439 . S
C286 C311 1.395 . S
N287 Co276 1.995 1_565 S
N287 C288 1.376 . S
N287 C291 1.383 . S
C288 N287 1.376 . S
C288 C289 1.446 . S
C288 C311 1.391 1_565 S
C289 C288 1.446 . S
C289 C290 1.339 . S
C289 H318 0.949 . S
C290 C289 1.339 . S
C290 C291 1.439 . S
C290 H319 0.950 . S
C291 N287 1.383 . S
C291 C290 1.439 . S
C291 C309 1.392 . S
N292 Co276 2.282 . S
N292 C295 1.332 . S
N292 C297 1.332 . S
C293 C294 1.386 . S
C293 C296 1.388 . S
C294 C293 1.386 . S
C294 C295 1.382 . S
C294 H320 0.950 . S
C295 N292 1.332 . S
C295 C294 1.382 . S
C295 H306 0.952 . S
C296 C293 1.388 . S
C296 C297 1.382 . S
C296 H321 0.950 . S
C297 N292 1.332 . S
C297 C296 1.382 . S
C297 H307 0.948 . S
N298 Co276 2.282 1_565 S
N298 C302 1.332 . S
N298 C303 1.332 . S
C299 C300 1.388 . S
C299 C303 1.382 . S
C299 H322 0.950 . S
C300 C299 1.388 . S
C300 C301 1.386 . S
C301 C300 1.386 . S
C301 C302 1.382 . S
C301 H323 0.950 . S
C302 N298 1.332 . S
C302 C301 1.382 . S
C302 H304 0.952 . S
C303 N298 1.332 . S
C303 C299 1.382 . S
C303 H305 0.948 . S
H304 C302 0.952 . S
H305 C303 0.948 . S
H306 C295 0.952 . S
H307 C297 0.948 . S
C308 C274 1.395 . S
C308 C278 1.391 1_565 S
C309 C271 1.389 . S
C309 C291 1.392 . S
C310 C281 1.392 . S
C310 C283 1.389 . S
C311 C286 1.395 . S
C311 C288 1.391 1_545 S
H312 C272 0.951 . S
H313 C273 0.950 . S
H314 C279 0.949 . S
H315 C280 0.950 . S
H316 C284 0.951 . S
H317 C285 0.950 . S
H318 C289 0.949 . S
H319 C290 0.950 . S
H320 C294 0.950 . S
H321 C296 0.950 . S
H322 C299 0.950 . S
H323 C301 0.950 . S
C324 C325 1.443 . S
C324 N328 1.376 . S
C324 C362 1.389 . S
C325 C324 1.443 . S
C325 C326 1.340 . S
C325 H365 0.951 . S
C326 C325 1.340 . S
C326 C327 1.439 . S
C326 H366 0.950 . S
C327 C326 1.439 . S
C327 N328 1.374 . S
C327 C361 1.395 1_554 S
N328 C324 1.376 . S
N328 C327 1.374 . S
N328 Co329 2.011 . S
Co329 N328 2.011 . S
Co329 N330 1.992 1_554 S
Co329 N335 2.006 1_554 S
Co329 N340 1.998 . S
Co329 N345 2.287 . S
Co329 N351 2.278 1_554 S
N330 Co329 1.992 1_556 S
N330 C331 1.376 . S
N330 C334 1.383 . S
C331 N330 1.376 . S
C331 C332 1.446 . S
C331 C361 1.391 . S
C332 C331 1.446 . S
C332 C333 1.339 . S
C332 H367 0.949 . S
C333 C332 1.339 . S
C333 C334 1.439 . S
C333 H368 0.950 . S
C334 N330 1.383 . S
C334 C333 1.439 . S
C334 C363 1.392 . S
N335 Co329 2.006 1_556 S
N335 C336 1.376 . S
N335 C339 1.374 . S
C336 N335 1.376 . S
C336 C337 1.443 . S
C336 C363 1.389 . S
C337 C336 1.443 . S
C337 C338 1.340 . S
C337 H369 0.951 . S
C338 C337 1.340 . S
C338 C339 1.439 . S
C338 H370 0.950 . S
C339 N335 1.374 . S
C339 C338 1.439 . S
C339 C364 1.395 1_556 S
N340 Co329 1.998 . S
N340 C341 1.376 . S
N340 C344 1.383 . S
C341 N340 1.376 . S
C341 C342 1.446 . S
C341 C364 1.391 . S
C342 C341 1.446 . S
C342 C343 1.339 . S
C342 H371 0.949 . S
C343 C342 1.339 . S
C343 C344 1.439 . S
C343 H372 0.950 . S
C344 N340 1.383 . S
C344 C343 1.439 . S
C344 C362 1.392 . S
N345 Co329 2.287 . S
N345 C348 1.332 . S
N345 C350 1.332 . S
C346 C347 1.386 . S
C346 C349 1.388 . S
C347 C346 1.386 . S
C347 C348 1.382 . S
C347 H373 0.950 . S
C348 N345 1.332 . S
C348 C347 1.382 . S
C348 H359 0.952 . S
C349 C346 1.388 . S
C349 C350 1.382 . S
C349 H374 0.950 . S
C350 N345 1.332 . S
C350 C349 1.382 . S
C350 H360 0.948 . S
N351 Co329 2.278 1_556 S
N351 C355 1.332 . S
N351 C356 1.332 . S
C352 C353 1.388 . S
C352 C356 1.382 . S
C352 H375 0.950 . S
C353 C352 1.388 . S
C353 C354 1.386 . S
C354 C353 1.386 . S
C354 C355 1.382 . S
C354 H376 0.950 . S
C355 N351 1.332 . S
C355 C354 1.382 . S
C355 H357 0.952 . S
C356 N351 1.332 . S
C356 C352 1.382 . S
C356 H358 0.948 . S
H357 C355 0.952 . S
H358 C356 0.948 . S
H359 C348 0.952 . S
H360 C350 0.948 . S
C361 C327 1.395 1_556 S
C361 C331 1.391 . S
C362 C324 1.389 . S
C362 C344 1.392 . S
C363 C334 1.392 . S
C363 C336 1.389 . S
C364 C339 1.395 1_554 S
C364 C341 1.391 . S
H365 C325 0.951 . S
H366 C326 0.950 . S
H367 C332 0.949 . S
H368 C333 0.950 . S
H369 C337 0.951 . S
H370 C338 0.950 . S
H371 C342 0.949 . S
H372 C343 0.950 . S
H373 C347 0.950 . S
H374 C349 0.950 . S
H375 C352 0.950 . S
H376 C354 0.950 . S
C377 C378 1.443 . S
C377 N381 1.376 . S
C377 C415 1.389 . S
C378 C377 1.443 . S
C378 C379 1.340 . S
C378 H418 0.951 . S
C379 C378 1.340 . S
C379 C380 1.439 . S
C379 H419 0.950 . S
C380 C379 1.439 . S
C380 N381 1.374 . S
C380 C414 1.395 1_554 S
N381 C377 1.376 . S
N381 C380 1.374 . S
N381 Co382 2.008 . S
Co382 N381 2.008 . S
Co382 N383 1.995 1_554 S
Co382 N388 2.008 1_554 S
Co382 N393 1.995 . S
Co382 N398 2.282 . S
Co382 N404 2.282 1_554 S
N383 Co382 1.995 1_556 S
N383 C384 1.376 . S
N383 C387 1.383 . S
C384 N383 1.376 . S
C384 C385 1.446 . S
C384 C414 1.391 . S
C385 C384 1.446 . S
C385 C386 1.339 . S
C385 H420 0.949 . S
C386 C385 1.339 . S
C386 C387 1.439 . S
C386 H421 0.950 . S
C387 N383 1.383 . S
C387 C386 1.439 . S
C387 C416 1.392 . S
N388 Co382 2.008 1_556 S
N388 C389 1.376 . S
N388 C392 1.374 . S
C389 N388 1.376 . S
C389 C390 1.443 . S
C389 C416 1.389 . S
C390 C389 1.443 . S
C390 C391 1.340 . S
C390 H422 0.951 . S
C391 C390 1.340 . S
C391 C392 1.440 . S
C391 H423 0.950 . S
C392 N388 1.374 . S
C392 C391 1.440 . S
C392 C417 1.393 1_556 S
N393 Co382 1.995 . S
N393 C394 1.376 . S
N393 C397 1.383 . S
C394 N393 1.376 . S
C394 C395 1.446 . S
C394 C417 1.391 . S
C395 C394 1.446 . S
C395 C396 1.339 . S
C395 H424 0.949 . S
C396 C395 1.339 . S
C396 C397 1.439 . S
C396 H425 0.950 . S
C397 N393 1.383 . S
C397 C396 1.439 . S
C397 C415 1.392 . S
N398 Co382 2.282 . S
N398 C401 1.332 . S
N398 C403 1.332 . S
C399 C400 1.386 . S
C399 C402 1.388 . S
C400 C399 1.386 . S
C400 C401 1.382 . S
C400 H426 0.950 . S
C401 N398 1.332 . S
C401 C400 1.382 . S
C401 H412 0.952 . S
C402 C399 1.388 . S
C402 C403 1.382 . S
C402 H427 0.950 . S
C403 N398 1.332 . S
C403 C402 1.382 . S
C403 H413 0.948 . S
N404 Co382 2.282 1_556 S
N404 C408 1.332 . S
N404 C409 1.332 . S
C405 C406 1.388 . S
C405 C409 1.382 . S
C405 H428 0.950 . S
C406 C405 1.388 . S
C406 C407 1.386 . S
C407 C406 1.386 . S
C407 C408 1.382 . S
C407 H429 0.950 . S
C408 N404 1.332 . S
C408 C407 1.382 . S
C408 H410 0.952 . S
C409 N404 1.332 . S
C409 C405 1.382 . S
C409 H411 0.948 . S
H410 C408 0.952 . S
H411 C409 0.948 . S
H412 C401 0.952 . S
H413 C403 0.948 . S
C414 C380 1.395 1_556 S
C414 C384 1.391 . S
C415 C377 1.389 . S
C415 C397 1.392 . S
C416 C387 1.392 . S
C416 C389 1.389 . S
C417 C392 1.393 1_554 S
C417 C394 1.391 . S
H418 C378 0.951 . S
H419 C379 0.950 . S
H420 C385 0.949 . S
H421 C386 0.950 . S
H422 C390 0.951 . S
H423 C391 0.950 . S
H424 C395 0.949 . S
H425 C396 0.950 . S
H426 C400 0.950 . S
H427 C402 0.950 . S
H428 C405 0.950 . S
H429 C407 0.950 . S
C430 C431 1.443 . S
C430 N434 1.369 1_556 S
C430 C468 1.389 . S
C431 C430 1.443 . S
C431 C432 1.340 . S
C431 H471 0.951 . S
C432 C431 1.340 . S
C432 C433 1.439 1_556 S
C432 H472 0.950 . S
C433 C432 1.439 1_554 S
C433 N434 1.376 . S
C433 C467 1.395 . S
N434 C430 1.369 1_554 S
N434 C433 1.376 . S
N434 Co435 2.013 . S
Co435 N434 2.013 . S
Co435 N436 1.995 . S
Co435 N441 2.008 . S
Co435 N446 1.995 1_554 S
Co435 N451 2.282 1_554 S
Co435 N457 2.282 . S
N436 Co435 1.995 . S
N436 C437 1.376 . S
N436 C440 1.383 . S
C437 N436 1.376 . S
C437 C438 1.446 . S
C437 C467 1.391 . S
C438 C437 1.446 . S
C438 C439 1.339 . S
C438 H473 0.949 . S
C439 C438 1.339 . S
C439 C440 1.439 . S
C439 H474 0.950 . S
C440 N436 1.383 . S
C440 C439 1.439 . S
C440 C469 1.392 . S
N441 Co435 2.008 . S
N441 C442 1.376 . S
N441 C445 1.374 . S
C442 N441 1.376 . S
C442 C443 1.443 . S
C442 C469 1.389 . S
C443 C442 1.443 . S
C443 C444 1.340 . S
C443 H475 0.951 . S
C444 C443 1.340 . S
C444 C445 1.439 . S
C444 H476 0.950 . S
C445 N441 1.374 . S
C445 C444 1.439 . S
C445 C470 1.395 . S
N446 Co435 1.995 1_556 S
N446 C447 1.376 . S
N446 C450 1.383 . S
C447 N446 1.376 . S
C447 C448 1.446 . S
C447 C470 1.391 1_556 S
C448 C447 1.446 . S
C448 C449 1.339 . S
C448 H477 0.949 . S
C449 C448 1.339 . S
C449 C450 1.439 . S
C449 H478 0.950 . S
C450 N446 1.383 . S
C450 C449 1.439 . S
C450 C468 1.392 . S
N451 Co435 2.282 1_556 S
N451 C454 1.332 . S
N451 C456 1.332 . S
C452 C453 1.386 . S
C452 C455 1.388 . S
C453 C452 1.386 . S
C453 C454 1.382 . S
C453 H479 0.950 . S
C454 N451 1.332 . S
C454 C453 1.382 . S
C454 H465 0.952 . S
C455 C452 1.388 . S
C455 C456 1.382 . S
C455 H480 0.950 . S
C456 N451 1.332 . S
C456 C455 1.382 . S
C456 H466 0.948 . S
N457 Co435 2.282 . S
N457 C461 1.332 . S
N457 C462 1.332 . S
C458 C459 1.388 . S
C458 C462 1.382 . S
C458 H481 0.950 . S
C459 C458 1.388 . S
C459 C460 1.386 . S
C460 C459 1.386 . S
C460 C461 1.382 . S
C460 H482 0.950 . S
C461 N457 1.332 . S
C461 C460 1.382 . S
C461 H463 0.952 . S
C462 N457 1.332 . S
C462 C458 1.382 . S
C462 H464 0.948 . S
H463 C461 0.952 . S
H464 C462 0.948 . S
H465 C454 0.952 . S
H466 C456 0.948 . S
C467 C433 1.395 . S
C467 C437 1.391 . S
C468 C430 1.389 . S
C468 C450 1.392 . S
C469 C440 1.392 . S
C469 C442 1.389 . S
C470 C445 1.395 . S
C470 C447 1.391 1_554 S
H471 C431 0.951 . S
H472 C432 0.950 . S
H473 C438 0.949 . S
H474 C439 0.950 . S
H475 C443 0.951 . S
H476 C444 0.950 . S
H477 C448 0.949 . S
H478 C449 0.950 . S
H479 C453 0.950 . S
H480 C455 0.950 . S
H481 C458 0.950 . S
H482 C460 0.950 . S
C483 C484 1.443 . S
C483 N487 1.376 . S
C483 C521 1.389 . S
C484 C483 1.443 . S
C484 C485 1.340 . S
C484 H524 0.951 . S
C485 C484 1.340 . S
C485 C486 1.439 . S
C485 H525 0.950 . S
C486 C485 1.439 . S
C486 N487 1.374 . S
C486 C520 1.395 1_554 S
N487 C483 1.376 . S
N487 C486 1.374 . S
N487 Co488 2.008 . S
Co488 N487 2.008 . S
Co488 N489 1.995 1_554 S
Co488 N494 2.008 1_554 S
Co488 N499 1.995 . S
Co488 N504 2.282 . S
Co488 N510 2.282 1_554 S
N489 Co488 1.995 1_556 S
N489 C490 1.376 . S
N489 C493 1.383 . S
C490 N489 1.376 . S
C490 C491 1.446 . S
C490 C520 1.391 . S
C491 C490 1.446 . S
C491 C492 1.339 . S
C491 H526 0.949 . S
C492 C491 1.339 . S
C492 C493 1.439 . S
C492 H527 0.950 . S
C493 N489 1.383 . S
C493 C492 1.439 . S
C493 C522 1.392 . S
N494 Co488 2.008 1_556 S
N494 C495 1.376 . S
N494 C498 1.374 1_556 S
C495 N494 1.376 . S
C495 C496 1.443 . S
C495 C522 1.389 . S
C496 C495 1.443 . S
C496 C497 1.340 . S
C496 H528 0.951 . S
C497 C496 1.340 . S
C497 C498 1.439 1_556 S
C497 H529 0.950 . S
C498 N494 1.374 1_554 S
C498 C497 1.439 1_554 S
C498 C523 1.395 . S
N499 Co488 1.995 . S
N499 C500 1.376 . S
N499 C503 1.383 . S
C500 N499 1.376 . S
C500 C501 1.446 . S
C500 C523 1.391 . S
C501 C500 1.446 . S
C501 C502 1.339 . S
C501 H530 0.949 . S
C502 C501 1.339 . S
C502 C503 1.439 . S
C502 H531 0.950 . S
C503 N499 1.383 . S
C503 C502 1.439 . S
C503 C521 1.392 . S
N504 Co488 2.282 . S
N504 C507 1.332 . S
N504 C509 1.332 . S
C505 C506 1.386 . S
C505 C508 1.388 . S
C506 C505 1.386 . S
C506 C507 1.382 . S
C506 H532 0.950 . S
C507 N504 1.332 . S
C507 C506 1.382 . S
C507 H518 0.952 . S
C508 C505 1.388 . S
C508 C509 1.382 . S
C508 H533 0.950 . S
C509 N504 1.332 . S
C509 C508 1.382 . S
C509 H519 0.948 . S
N510 Co488 2.282 1_556 S
N510 C514 1.332 . S
N510 C515 1.332 . S
C511 C512 1.388 . S
C511 C515 1.382 . S
C511 H534 0.950 . S
C512 C511 1.388 . S
C512 C513 1.386 . S
C513 C512 1.386 . S
C513 C514 1.382 . S
C513 H535 0.950 . S
C514 N510 1.332 . S
C514 C513 1.382 . S
C514 H516 0.952 . S
C515 N510 1.332 . S
C515 C511 1.382 . S
C515 H517 0.948 . S
H516 C514 0.952 . S
H517 C515 0.948 . S
H518 C507 0.952 . S
H519 C509 0.948 . S
C520 C486 1.395 1_556 S
C520 C490 1.391 . S
C521 C483 1.389 . S
C521 C503 1.392 . S
C522 C493 1.392 . S
C522 C495 1.389 . S
C523 C498 1.395 . S
C523 C500 1.391 . S
H524 C484 0.951 . S
H525 C485 0.950 . S
H526 C491 0.949 . S
H527 C492 0.950 . S
H528 C496 0.951 . S
H529 C497 0.950 . S
H530 C501 0.949 . S
H531 C502 0.950 . S
H532 C506 0.950 . S
H533 C508 0.950 . S
H534 C511 0.950 . S
H535 C513 0.950 . S
H536 C544 0.929 . S
H537 C546 0.930 . S
H538 C548 0.930 . S
H539 C551 0.929 . S
H540 C554 0.930 . S
H541 C556 0.960 . S
H542 C556 0.960 . S
H543 C556 0.960 . S
C544 H536 0.929 . S
C544 C545 1.377 . S
C544 C546 1.384 . S
C545 C544 1.377 . S
C545 C551 1.390 . S
C546 H537 0.930 . S
C546 C544 1.384 . S
C546 C547 1.372 . S
C547 C546 1.372 . S
C547 C548 1.400 . S
C547 C552 1.490 . S
C548 H538 0.930 . S
C548 C547 1.400 . S
C548 C551 1.386 . S
H549 C565 0.930 . S
H550 C566 0.931 . S
C551 H539 0.929 . S
C551 C545 1.390 . S
C551 C548 1.386 . S
C552 C547 1.490 . S
C552 C554 1.395 . S
C552 C555 1.403 . S
H553 C559 0.930 . S
C554 H540 0.930 . S
C554 C552 1.395 . S
C554 C557 1.403 . S
C555 C552 1.403 . S
C555 C556 1.524 . S
C555 C559 1.400 . S
C556 H541 0.960 . S
C556 H542 0.960 . S
C556 H543 0.960 . S
C556 C555 1.524 . S
C557 C554 1.403 . S
C557 C558 1.392 . S
C557 C561 1.495 . S
C558 C557 1.392 . S
C558 C559 1.385 . S
C558 C560 1.478 . S
C559 H553 0.930 . S
C559 C555 1.400 . S
C559 C558 1.385 . S
C560 C558 1.478 . S
C560 C562 1.381 . S
C560 C566 1.383 . S
C561 C557 1.495 . S
C561 H567 0.959 . S
C561 H568 0.961 . S
C561 H569 0.960 . S
C562 C560 1.381 . S
C562 C563 1.394 . S
C562 H570 0.930 . S
C563 C562 1.394 . S
C563 C564 1.383 . S
C563 H571 0.929 . S
C564 C563 1.383 . S
C564 C565 1.377 . S
C565 H549 0.930 . S
C565 C564 1.377 . S
C565 C566 1.379 . S
C566 H550 0.931 . S
C566 C560 1.383 . S
C566 C565 1.379 . S
H567 C561 0.959 . S
H568 C561 0.961 . S
H569 C561 0.960 . S
H570 C562 0.930 . S
H571 C563 0.929 . S
H572 C580 0.929 . S
H573 C582 0.930 . S
H574 C584 0.930 . S
H575 C587 0.929 . S
H576 C590 0.930 . S
H577 C592 0.960 . S
H578 C592 0.960 . S
H579 C592 0.960 . S
C580 H572 0.929 . S
C580 C581 1.377 . S
C580 C582 1.384 . S
C581 C580 1.377 . S
C581 C587 1.390 . S
C582 H573 0.930 . S
C582 C580 1.384 . S
C582 C583 1.372 . S
C583 C582 1.372 . S
C583 C584 1.400 . S
C583 C588 1.490 . S
C584 H574 0.930 . S
C584 C583 1.400 . S
C584 C587 1.386 . S
H585 C601 0.930 . S
H586 C602 0.931 . S
C587 H575 0.929 . S
C587 C581 1.390 . S
C587 C584 1.386 . S
C588 C583 1.490 . S
C588 C590 1.395 . S
C588 C591 1.403 . S
H589 C595 0.930 . S
C590 H576 0.930 . S
C590 C588 1.395 . S
C590 C593 1.403 . S
C591 C588 1.403 . S
C591 C592 1.524 . S
C591 C595 1.400 . S
C592 H577 0.960 . S
C592 H578 0.960 . S
C592 H579 0.960 . S
C592 C591 1.524 . S
C593 C590 1.403 . S
C593 C594 1.392 . S
C593 C597 1.495 . S
C594 C593 1.392 . S
C594 C595 1.385 . S
C594 C596 1.478 . S
C595 H589 0.930 . S
C595 C591 1.400 . S
C595 C594 1.385 . S
C596 C594 1.478 . S
C596 C598 1.381 . S
C596 C602 1.383 . S
C597 C593 1.495 . S
C597 H603 0.959 . S
C597 H604 0.961 . S
C597 H605 0.960 . S
C598 C596 1.381 . S
C598 C599 1.394 . S
C598 H606 0.930 . S
C599 C598 1.394 . S
C599 C600 1.383 . S
C599 H607 0.929 . S
C600 C599 1.383 . S
C600 C601 1.377 . S
C601 H585 0.930 . S
C601 C600 1.377 . S
C601 C602 1.379 . S
C602 H586 0.931 . S
C602 C596 1.383 . S
C602 C601 1.379 . S
H603 C597 0.959 . S
H604 C597 0.961 . S
H605 C597 0.960 . S
H606 C598 0.930 . S
H607 C599 0.929 . S
H608 C616 0.929 . S
H609 C618 0.930 . S
H610 C620 0.930 . S
H611 C623 0.929 . S
H612 C626 0.930 . S
H613 C628 0.960 . S
H614 C628 0.960 . S
H615 C628 0.960 . S
C616 H608 0.929 . S
C616 C617 1.377 . S
C616 C618 1.384 . S
C617 C616 1.377 . S
C617 C623 1.390 . S
C618 H609 0.930 . S
C618 C616 1.384 . S
C618 C619 1.372 . S
C619 C618 1.372 . S
C619 C620 1.400 . S
C619 C624 1.490 . S
C620 H610 0.930 . S
C620 C619 1.400 . S
C620 C623 1.386 . S
H621 C637 0.930 . S
H622 C638 0.931 . S
C623 H611 0.929 . S
C623 C617 1.390 . S
C623 C620 1.386 . S
C624 C619 1.490 . S
C624 C626 1.395 . S
C624 C627 1.403 . S
H625 C631 0.930 . S
C626 H612 0.930 . S
C626 C624 1.395 . S
C626 C629 1.403 . S
C627 C624 1.403 . S
C627 C628 1.524 . S
C627 C631 1.400 . S
C628 H613 0.960 . S
C628 H614 0.960 . S
C628 H615 0.960 . S
C628 C627 1.524 . S
C629 C626 1.403 . S
C629 C630 1.392 . S
C629 C633 1.495 . S
C630 C629 1.392 . S
C630 C631 1.385 . S
C630 C632 1.478 . S
C631 H625 0.930 . S
C631 C627 1.400 . S
C631 C630 1.385 . S
C632 C630 1.478 . S
C632 C634 1.381 . S
C632 C638 1.383 . S
C633 C629 1.495 . S
C633 H639 0.959 . S
C633 H640 0.961 . S
C633 H641 0.960 . S
C634 C632 1.381 . S
C634 C635 1.394 . S
C634 H642 0.930 . S
C635 C634 1.394 . S
C635 C636 1.383 . S
C635 H643 0.929 . S
C636 C635 1.383 . S
C636 C637 1.377 . S
C637 H621 0.930 . S
C637 C636 1.377 . S
C637 C638 1.379 . S
C638 H622 0.931 . S
C638 C632 1.383 . S
C638 C637 1.379 . S
H639 C633 0.959 . S
H640 C633 0.961 . S
H641 C633 0.960 . S
H642 C634 0.930 . S
H643 C635 0.929 . S
H644 C652 0.929 . S
H645 C654 0.930 . S
H646 C656 0.930 . S
H647 C659 0.929 . S
H648 C662 0.930 . S
H649 C664 0.960 . S
H650 C664 0.960 . S
H651 C664 0.960 . S
C652 H644 0.929 . S
C652 C653 1.377 . S
C652 C654 1.384 . S
C653 C652 1.377 . S
C653 C659 1.390 . S
C654 H645 0.930 . S
C654 C652 1.384 . S
C654 C655 1.372 . S
C655 C654 1.372 . S
C655 C656 1.400 . S
C655 C660 1.490 . S
C656 H646 0.930 . S
C656 C655 1.400 . S
C656 C659 1.386 . S
H657 C673 0.930 . S
H658 C674 0.931 . S
C659 H647 0.929 . S
C659 C653 1.390 . S
C659 C656 1.386 . S
C660 C655 1.490 . S
C660 C662 1.395 . S
C660 C663 1.403 . S
H661 C667 0.930 . S
C662 H648 0.930 . S
C662 C660 1.395 . S
C662 C665 1.403 . S
C663 C660 1.403 . S
C663 C664 1.524 . S
C663 C667 1.400 . S
C664 H649 0.960 . S
C664 H650 0.960 . S
C664 H651 0.960 . S
C664 C663 1.524 . S
C665 C662 1.403 . S
C665 C666 1.392 . S
C665 C669 1.495 . S
C666 C665 1.392 . S
C666 C667 1.385 . S
C666 C668 1.478 . S
C667 H661 0.930 . S
C667 C663 1.400 . S
C667 C666 1.385 . S
C668 C666 1.478 . S
C668 C670 1.381 . S
C668 C674 1.383 . S
C669 C665 1.495 . S
C669 H675 0.959 . S
C669 H676 0.961 . S
C669 H677 0.960 . S
C670 C668 1.381 . S
C670 C671 1.394 . S
C670 H678 0.930 . S
C671 C670 1.394 . S
C671 C672 1.383 . S
C671 H679 0.929 . S
C672 C671 1.383 . S
C672 C673 1.377 . S
C673 H657 0.930 . S
C673 C672 1.377 . S
C673 C674 1.379 . S
C674 H658 0.931 . S
C674 C668 1.383 . S
C674 C673 1.379 . S
H675 C669 0.959 . S
H676 C669 0.961 . S
H677 C669 0.960 . S
H678 C670 0.930 . S
H679 C671 0.929 . S
H680 C688 0.929 . S
H681 C690 0.930 . S
H682 C692 0.930 . S
H683 C695 0.929 . S
H684 C698 0.930 . S
H685 C700 0.960 . S
H686 C700 0.960 . S
H687 C700 0.960 . S
C688 H680 0.929 . S
C688 C689 1.377 . S
C688 C690 1.384 . S
C689 C688 1.377 . S
C689 C695 1.390 . S
C690 H681 0.930 . S
C690 C688 1.384 . S
C690 C691 1.372 . S
C691 C690 1.372 . S
C691 C692 1.400 . S
C691 C696 1.490 . S
C692 H682 0.930 . S
C692 C691 1.400 . S
C692 C695 1.386 . S
H693 C709 0.930 . S
H694 C710 0.931 . S
C695 H683 0.929 . S
C695 C689 1.390 . S
C695 C692 1.386 . S
C696 C691 1.490 . S
C696 C698 1.395 . S
C696 C699 1.403 . S
H697 C703 0.930 . S
C698 H684 0.930 . S
C698 C696 1.395 . S
C698 C701 1.403 . S
C699 C696 1.403 . S
C699 C700 1.524 . S
C699 C703 1.400 . S
C700 H685 0.960 . S
C700 H686 0.960 . S
C700 H687 0.960 . S
C700 C699 1.524 . S
C701 C698 1.403 . S
C701 C702 1.392 . S
C701 C705 1.495 . S
C702 C701 1.392 . S
C702 C703 1.385 . S
C702 C704 1.478 . S
C703 H697 0.930 . S
C703 C699 1.400 . S
C703 C702 1.385 . S
C704 C702 1.478 . S
C704 C706 1.381 . S
C704 C710 1.383 . S
C705 C701 1.495 . S
C705 H711 0.959 . S
C705 H712 0.961 . S
C705 H713 0.960 . S
C706 C704 1.381 . S
C706 C707 1.394 . S
C706 H714 0.930 . S
C707 C706 1.394 . S
C707 C708 1.383 . S
C707 H715 0.929 . S
C708 C707 1.383 . S
C708 C709 1.377 . S
C709 H693 0.930 . S
C709 C708 1.377 . S
C709 C710 1.379 . S
C710 H694 0.931 . S
C710 C704 1.383 . S
C710 C709 1.379 . S
H711 C705 0.959 . S
H712 C705 0.961 . S
H713 C705 0.960 . S
H714 C706 0.930 . S
H715 C707 0.929 . S
H716 C724 0.929 . S
H717 C726 0.930 . S
H718 C728 0.930 . S
H719 C731 0.929 . S
H720 C734 0.930 . S
H721 C736 0.960 . S
H722 C736 0.960 . S
H723 C736 0.960 . S
C724 H716 0.929 . S
C724 C725 1.377 . S
C724 C726 1.384 . S
C725 C724 1.377 . S
C725 C731 1.390 . S
C726 H717 0.930 . S
C726 C724 1.384 . S
C726 C727 1.372 . S
C727 C726 1.372 . S
C727 C728 1.400 . S
C727 C732 1.490 . S
C728 H718 0.930 . S
C728 C727 1.400 . S
C728 C731 1.386 . S
H729 C745 0.930 . S
H730 C746 0.931 . S
C731 H719 0.929 . S
C731 C725 1.390 . S
C731 C728 1.386 . S
C732 C727 1.490 . S
C732 C734 1.395 . S
C732 C735 1.403 . S
H733 C739 0.930 . S
C734 H720 0.930 . S
C734 C732 1.395 . S
C734 C737 1.403 . S
C735 C732 1.403 . S
C735 C736 1.524 . S
C735 C739 1.400 . S
C736 H721 0.960 . S
C736 H722 0.960 . S
C736 H723 0.960 . S
C736 C735 1.524 . S
C737 C734 1.403 . S
C737 C738 1.392 . S
C737 C741 1.495 . S
C738 C737 1.392 . S
C738 C739 1.385 . S
C738 C740 1.478 . S
C739 H733 0.930 . S
C739 C735 1.400 . S
C739 C738 1.385 . S
C740 C738 1.478 . S
C740 C742 1.381 . S
C740 C746 1.383 . S
C741 C737 1.495 . S
C741 H747 0.959 . S
C741 H748 0.961 . S
C741 H749 0.960 . S
C742 C740 1.381 . S
C742 C743 1.394 . S
C742 H750 0.930 . S
C743 C742 1.394 . S
C743 C744 1.383 . S
C743 H751 0.929 . S
C744 C743 1.383 . S
C744 C745 1.377 . S
C745 H729 0.930 . S
C745 C744 1.377 . S
C745 C746 1.379 . S
C746 H730 0.931 . S
C746 C740 1.383 . S
C746 C745 1.379 . S
H747 C741 0.959 . S
H748 C741 0.961 . S
H749 C741 0.960 . S
H750 C742 0.930 . S
H751 C743 0.929 . S
H752 C760 0.929 . S
H753 C762 0.930 . S
H754 C764 0.930 . S
H755 C767 0.929 . S
H756 C770 0.930 . S
H757 C772 0.960 . S
H758 C772 0.960 . S
H759 C772 0.960 . S
C760 H752 0.929 . S
C760 C761 1.377 . S
C760 C762 1.384 . S
C761 C760 1.377 . S
C761 C767 1.390 . S
C762 H753 0.930 . S
C762 C760 1.384 . S
C762 C763 1.372 . S
C763 C762 1.372 . S
C763 C764 1.400 . S
C763 C768 1.490 . S
C764 H754 0.930 . S
C764 C763 1.400 . S
C764 C767 1.386 . S
H765 C781 0.930 . S
H766 C782 0.931 . S
C767 H755 0.929 . S
C767 C761 1.390 . S
C767 C764 1.386 . S
C768 C763 1.490 . S
C768 C770 1.395 . S
C768 C771 1.403 . S
H769 C775 0.930 . S
C770 H756 0.930 . S
C770 C768 1.395 . S
C770 C773 1.403 . S
C771 C768 1.403 . S
C771 C772 1.524 . S
C771 C775 1.400 . S
C772 H757 0.960 . S
C772 H758 0.960 . S
C772 H759 0.960 . S
C772 C771 1.524 . S
C773 C770 1.403 . S
C773 C774 1.392 . S
C773 C777 1.495 . S
C774 C773 1.392 . S
C774 C775 1.385 . S
C774 C776 1.478 . S
C775 H769 0.930 . S
C775 C771 1.400 . S
C775 C774 1.385 . S
C776 C774 1.478 . S
C776 C778 1.381 . S
C776 C782 1.383 . S
C777 C773 1.495 . S
C777 H783 0.959 . S
C777 H784 0.961 . S
C777 H785 0.960 . S
C778 C776 1.381 . S
C778 C779 1.394 . S
C778 H786 0.930 . S
C779 C778 1.394 . S
C779 C780 1.383 . S
C779 H787 0.929 . S
C780 C779 1.383 . S
C780 C781 1.377 . S
C781 H765 0.930 . S
C781 C780 1.377 . S
C781 C782 1.379 . S
C782 H766 0.931 . S
C782 C776 1.383 . S
C782 C781 1.379 . S
H783 C777 0.959 . S
H784 C777 0.961 . S
H785 C777 0.960 . S
H786 C778 0.930 . S
H787 C779 0.929 . S
H788 C796 0.929 . S
H789 C798 0.930 . S
H790 C800 0.930 . S
H791 C803 0.929 . S
H792 C806 0.930 . S
H793 C808 0.960 . S
H794 C808 0.960 . S
H795 C808 0.960 . S
C796 H788 0.929 . S
C796 C797 1.377 . S
C796 C798 1.384 . S
C797 C796 1.377 . S
C797 C803 1.390 . S
C798 H789 0.930 . S
C798 C796 1.384 . S
C798 C799 1.372 . S
C799 C798 1.372 . S
C799 C800 1.400 . S
C799 C804 1.490 . S
C800 H790 0.930 . S
C800 C799 1.400 . S
C800 C803 1.386 . S
H801 C817 0.930 . S
H802 C818 0.931 . S
C803 H791 0.929 . S
C803 C797 1.390 . S
C803 C800 1.386 . S
C804 C799 1.490 . S
C804 C806 1.395 . S
C804 C807 1.403 . S
H805 C811 0.930 . S
C806 H792 0.930 . S
C806 C804 1.395 . S
C806 C809 1.403 . S
C807 C804 1.403 . S
C807 C808 1.524 . S
C807 C811 1.400 . S
C808 H793 0.960 . S
C808 H794 0.960 . S
C808 H795 0.960 . S
C808 C807 1.524 . S
C809 C806 1.403 . S
C809 C810 1.392 . S
C809 C813 1.495 . S
C810 C809 1.392 . S
C810 C811 1.385 . S
C810 C812 1.478 . S
C811 H805 0.930 . S
C811 C807 1.400 . S
C811 C810 1.385 . S
C812 C810 1.478 . S
C812 C814 1.381 . S
C812 C818 1.383 . S
C813 C809 1.495 . S
C813 H819 0.959 . S
C813 H820 0.961 . S
C813 H821 0.960 . S
C814 C812 1.381 . S
C814 C815 1.394 . S
C814 H822 0.930 . S
C815 C814 1.394 . S
C815 C816 1.383 . S
C815 H823 0.929 . S
C816 C815 1.383 . S
C816 C817 1.377 . S
C817 H801 0.930 . S
C817 C816 1.377 . S
C817 C818 1.379 . S
C818 H802 0.931 . S
C818 C812 1.383 . S
C818 C817 1.379 . S
H819 C813 0.959 . S
H820 C813 0.961 . S
H821 C813 0.960 . S
H822 C814 0.930 . S
H823 C815 0.929 . S
H824 C832 0.929 . S
H825 C834 0.930 . S
H826 C836 0.930 . S
H827 C839 0.929 . S
H828 C842 0.930 . S
H829 C844 0.960 . S
H830 C844 0.960 . S
H831 C844 0.960 . S
C832 H824 0.929 . S
C832 C833 1.377 . S
C832 C834 1.384 . S
C833 C832 1.377 . S
C833 C839 1.390 . S
C834 H825 0.930 . S
C834 C832 1.384 . S
C834 C835 1.372 . S
C835 C834 1.372 . S
C835 C836 1.400 . S
C835 C840 1.490 . S
C836 H826 0.930 . S
C836 C835 1.400 . S
C836 C839 1.386 . S
H837 C853 0.930 . S
H838 C854 0.931 . S
C839 H827 0.929 . S
C839 C833 1.390 . S
C839 C836 1.386 . S
C840 C835 1.490 . S
C840 C842 1.395 . S
C840 C843 1.403 . S
H841 C847 0.930 . S
C842 H828 0.930 . S
C842 C840 1.395 . S
C842 C845 1.403 . S
C843 C840 1.403 . S
C843 C844 1.524 . S
C843 C847 1.400 . S
C844 H829 0.960 . S
C844 H830 0.960 . S
C844 H831 0.960 . S
C844 C843 1.524 . S
C845 C842 1.403 . S
C845 C846 1.392 . S
C845 C849 1.495 . S
C846 C845 1.392 . S
C846 C847 1.385 . S
C846 C848 1.478 . S
C847 H841 0.930 . S
C847 C843 1.400 . S
C847 C846 1.385 . S
C848 C846 1.478 . S
C848 C850 1.381 . S
C848 C854 1.383 . S
C849 C845 1.495 . S
C849 H855 0.959 . S
C849 H856 0.961 . S
C849 H857 0.960 . S
C850 C848 1.381 . S
C850 C851 1.394 . S
C850 H858 0.930 . S
C851 C850 1.394 . S
C851 C852 1.383 . S
C851 H859 0.929 . S
C852 C851 1.383 . S
C852 C853 1.377 . S
C853 H837 0.930 . S
C853 C852 1.377 . S
C853 C854 1.379 . S
C854 H838 0.931 . S
C854 C848 1.383 . S
C854 C853 1.379 . S
H855 C849 0.959 . S
H856 C849 0.961 . S
H857 C849 0.960 . S
H858 C850 0.930 . S
H859 C851 0.929 . S
H860 C868 0.929 . S
H861 C870 0.930 . S
H862 C872 0.930 . S
H863 C875 0.929 . S
H864 C878 0.930 . S
H865 C880 0.960 . S
H866 C880 0.960 . S
H867 C880 0.960 . S
C868 H860 0.929 . S
C868 C869 1.377 . S
C868 C870 1.384 . S
C869 C868 1.377 . S
C869 C875 1.390 . S
C870 H861 0.930 . S
C870 C868 1.384 . S
C870 C871 1.372 . S
C871 C870 1.372 . S
C871 C872 1.400 . S
C871 C876 1.490 . S
C872 H862 0.930 . S
C872 C871 1.400 . S
C872 C875 1.386 . S
H873 C889 0.930 . S
H874 C890 0.931 . S
C875 H863 0.929 . S
C875 C869 1.390 . S
C875 C872 1.386 . S
C876 C871 1.490 . S
C876 C878 1.395 . S
C876 C879 1.403 . S
H877 C883 0.930 . S
C878 H864 0.930 . S
C878 C876 1.395 . S
C878 C881 1.403 . S
C879 C876 1.403 . S
C879 C880 1.524 . S
C879 C883 1.400 . S
C880 H865 0.960 . S
C880 H866 0.960 . S
C880 H867 0.960 . S
C880 C879 1.524 . S
C881 C878 1.403 . S
C881 C882 1.392 . S
C881 C885 1.495 . S
C882 C881 1.392 . S
C882 C883 1.385 . S
C882 C884 1.478 . S
C883 H877 0.930 . S
C883 C879 1.400 . S
C883 C882 1.385 . S
C884 C882 1.478 . S
C884 C886 1.381 . S
C884 C890 1.383 . S
C885 C881 1.495 . S
C885 H891 0.959 . S
C885 H892 0.961 . S
C885 H893 0.960 . S
C886 C884 1.381 . S
C886 C887 1.394 . S
C886 H894 0.930 . S
C887 C886 1.394 . S
C887 C888 1.383 . S
C887 H895 0.929 . S
C888 C887 1.383 . S
C888 C889 1.377 . S
C889 H873 0.930 . S
C889 C888 1.377 . S
C889 C890 1.379 . S
C890 H874 0.931 . S
C890 C884 1.383 . S
C890 C889 1.379 . S
H891 C885 0.959 . S
H892 C885 0.961 . S
H893 C885 0.960 . S
H894 C886 0.930 . S
H895 C887 0.929 . S
H896 C904 0.929 . S
H897 C906 0.930 . S
H898 C908 0.930 . S
H899 C911 0.929 . S
H900 C914 0.930 . S
H901 C916 0.960 . S
H902 C916 0.960 . S
H903 C916 0.960 . S
C904 H896 0.929 . S
C904 C905 1.377 . S
C904 C906 1.384 . S
C905 C904 1.377 . S
C905 C911 1.390 . S
C906 H897 0.930 . S
C906 C904 1.384 . S
C906 C907 1.372 . S
C907 C906 1.372 . S
C907 C908 1.400 . S
C907 C912 1.490 . S
C908 H898 0.930 . S
C908 C907 1.400 . S
C908 C911 1.386 . S
H909 C925 0.930 . S
H910 C926 0.931 . S
C911 H899 0.929 . S
C911 C905 1.390 . S
C911 C908 1.386 . S
C912 C907 1.490 . S
C912 C914 1.395 . S
C912 C915 1.403 . S
H913 C919 0.930 . S
C914 H900 0.930 . S
C914 C912 1.395 . S
C914 C917 1.403 . S
C915 C912 1.403 . S
C915 C916 1.524 . S
C915 C919 1.400 . S
C916 H901 0.960 . S
C916 H902 0.960 . S
C916 H903 0.960 . S
C916 C915 1.524 . S
C917 C914 1.403 . S
C917 C918 1.392 . S
C917 C921 1.495 . S
C918 C917 1.392 . S
C918 C919 1.385 . S
C918 C920 1.478 . S
C919 H913 0.930 . S
C919 C915 1.400 . S
C919 C918 1.385 . S
C920 C918 1.478 . S
C920 C922 1.381 . S
C920 C926 1.383 . S
C921 C917 1.495 . S
C921 H927 0.959 . S
C921 H928 0.961 . S
C921 H929 0.960 . S
C922 C920 1.381 . S
C922 C923 1.394 . S
C922 H930 0.930 . S
C923 C922 1.394 . S
C923 C924 1.383 . S
C923 H931 0.929 . S
C924 C923 1.383 . S
C924 C925 1.377 . S
C925 H909 0.930 . S
C925 C924 1.377 . S
C925 C926 1.379 . S
C926 H910 0.931 . S
C926 C920 1.383 . S
C926 C925 1.379 . S
H927 C921 0.959 . S
H928 C921 0.961 . S
H929 C921 0.960 . S
H930 C922 0.930 . S
H931 C923 0.929 . S
H932 C940 0.929 . S
H933 C942 0.930 . S
H934 C944 0.930 . S
H935 C947 0.929 . S
H936 C950 0.930 . S
H937 C952 0.960 . S
H938 C952 0.960 . S
H939 C952 0.960 . S
C940 H932 0.929 . S
C940 C941 1.377 . S
C940 C942 1.384 . S
C941 C940 1.377 . S
C941 C947 1.390 . S
C942 H933 0.930 . S
C942 C940 1.384 . S
C942 C943 1.372 . S
C943 C942 1.372 . S
C943 C944 1.400 . S
C943 C948 1.490 . S
C944 H934 0.930 . S
C944 C943 1.400 . S
C944 C947 1.386 . S
H945 C961 0.930 . S
H946 C962 0.931 . S
C947 H935 0.929 . S
C947 C941 1.390 . S
C947 C944 1.386 . S
C948 C943 1.490 . S
C948 C950 1.395 . S
C948 C951 1.403 . S
H949 C955 0.930 . S
C950 H936 0.930 . S
C950 C948 1.395 . S
C950 C953 1.403 . S
C951 C948 1.403 . S
C951 C952 1.524 . S
C951 C955 1.400 . S
C952 H937 0.960 . S
C952 H938 0.960 . S
C952 H939 0.960 . S
C952 C951 1.524 . S
C953 C950 1.403 . S
C953 C954 1.392 . S
C953 C957 1.495 . S
C954 C953 1.392 . S
C954 C955 1.385 . S
C954 C956 1.478 . S
C955 H949 0.930 . S
C955 C951 1.400 . S
C955 C954 1.385 . S
C956 C954 1.478 . S
C956 C958 1.381 . S
C956 C962 1.383 . S
C957 C953 1.495 . S
C957 H963 0.959 . S
C957 H964 0.961 . S
C957 H965 0.960 . S
C958 C956 1.381 . S
C958 C959 1.394 . S
C958 H966 0.930 . S
C959 C958 1.394 . S
C959 C960 1.383 . S
C959 H967 0.929 . S
C960 C959 1.383 . S
C960 C961 1.377 . S
C961 H945 0.930 . S
C961 C960 1.377 . S
C961 C962 1.379 . S
C962 H946 0.931 . S
C962 C956 1.383 . S
C962 C961 1.379 . S
H963 C957 0.959 . S
H964 C957 0.961 . S
H965 C957 0.960 . S
H966 C958 0.930 . S
H967 C959 0.929 . S
H968 C976 0.929 . S
H969 C978 0.930 . S
H970 C980 0.930 . S
H971 C983 0.929 . S
H972 C986 0.930 . S
H973 C988 0.960 . S
H974 C988 0.960 . S
H975 C988 0.960 . S
C976 H968 0.929 . S
C976 C977 1.377 . S
C976 C978 1.384 . S
C977 C976 1.377 . S
C977 C983 1.390 . S
C978 H969 0.930 . S
C978 C976 1.384 . S
C978 C979 1.372 . S
C979 C978 1.372 . S
C979 C980 1.400 . S
C979 C984 1.490 . S
C980 H970 0.930 . S
C980 C979 1.400 . S
C980 C983 1.386 . S
H981 C997 0.930 . S
H982 C998 0.931 . S
C983 H971 0.929 . S
C983 C977 1.390 . S
C983 C980 1.386 . S
C984 C979 1.490 . S
C984 C986 1.395 . S
C984 C987 1.403 . S
H985 C991 0.930 . S
C986 H972 0.930 . S
C986 C984 1.395 . S
C986 C989 1.403 . S
C987 C984 1.403 . S
C987 C988 1.524 . S
C987 C991 1.400 . S
C988 H973 0.960 . S
C988 H974 0.960 . S
C988 H975 0.960 . S
C988 C987 1.524 . S
C989 C986 1.403 . S
C989 C990 1.392 . S
C989 C993 1.495 . S
C990 C989 1.392 . S
C990 C991 1.385 . S
C990 C992 1.478 . S
C991 H985 0.930 . S
C991 C987 1.400 . S
C991 C990 1.385 . S
C992 C990 1.478 . S
C992 C994 1.381 . S
C992 C998 1.383 . S
C993 C989 1.495 . S
C993 H999 0.959 . S
C993 H1000 0.961 . S
C993 H1001 0.960 . S
C994 C992 1.381 . S
C994 C995 1.394 . S
C994 H1002 0.930 . S
C995 C994 1.394 . S
C995 C996 1.383 . S
C995 H1003 0.929 . S
C996 C995 1.383 . S
C996 C997 1.377 . S
C997 H981 0.930 . S
C997 C996 1.377 . S
C997 C998 1.379 . S
C998 H982 0.931 . S
C998 C992 1.383 . S
C998 C997 1.379 . S
H999 C993 0.959 . S
H1000 C993 0.961 . S
H1001 C993 0.960 . S
H1002 C994 0.930 . S
H1003 C995 0.929 . S
H1004 C1012 0.929 . S
H1005 C1014 0.930 . S
H1006 C1016 0.930 . S
H1007 C1019 0.929 . S
H1008 C1022 0.930 . S
H1009 C1024 0.960 . S
H1010 C1024 0.960 . S
H1011 C1024 0.960 . S
C1012 H1004 0.929 . S
C1012 C1013 1.377 . S
C1012 C1014 1.384 . S
C1013 C1012 1.377 . S
C1013 C1019 1.390 . S
C1014 H1005 0.930 . S
C1014 C1012 1.384 . S
C1014 C1015 1.372 . S
C1015 C1014 1.372 . S
C1015 C1016 1.400 . S
C1015 C1020 1.490 . S
C1016 H1006 0.930 . S
C1016 C1015 1.400 . S
C1016 C1019 1.386 . S
H1017 C1033 0.930 . S
H1018 C1034 0.931 . S
C1019 H1007 0.929 . S
C1019 C1013 1.390 . S
C1019 C1016 1.386 . S
C1020 C1015 1.490 . S
C1020 C1022 1.395 . S
C1020 C1023 1.403 . S
H1021 C1027 0.930 . S
C1022 H1008 0.930 . S
C1022 C1020 1.395 . S
C1022 C1025 1.403 . S
C1023 C1020 1.403 . S
C1023 C1024 1.524 . S
C1023 C1027 1.400 . S
C1024 H1009 0.960 . S
C1024 H1010 0.960 . S
C1024 H1011 0.960 . S
C1024 C1023 1.524 . S
C1025 C1022 1.403 . S
C1025 C1026 1.392 . S
C1025 C1029 1.495 . S
C1026 C1025 1.392 . S
C1026 C1027 1.385 . S
C1026 C1028 1.478 . S
C1027 H1021 0.930 . S
C1027 C1023 1.400 . S
C1027 C1026 1.385 . S
C1028 C1026 1.478 . S
C1028 C1030 1.381 . S
C1028 C1034 1.383 . S
C1029 C1025 1.495 . S
C1029 H1035 0.959 . S
C1029 H1036 0.961 . S
C1029 H1037 0.960 . S
C1030 C1028 1.381 . S
C1030 C1031 1.394 . S
C1030 H1038 0.930 . S
C1031 C1030 1.394 . S
C1031 C1032 1.383 . S
C1031 H1039 0.929 . S
C1032 C1031 1.383 . S
C1032 C1033 1.377 . S
C1033 H1017 0.930 . S
C1033 C1032 1.377 . S
C1033 C1034 1.379 . S
C1034 H1018 0.931 . S
C1034 C1028 1.383 . S
C1034 C1033 1.379 . S
H1035 C1029 0.959 . S
H1036 C1029 0.961 . S
H1037 C1029 0.960 . S
H1038 C1030 0.930 . S
H1039 C1031 0.929 . S
H1040 C1048 0.929 . S
H1041 C1050 0.930 . S
H1042 C1052 0.930 . S
H1043 C1055 0.929 . S
H1044 C1058 0.930 . S
H1045 C1060 0.960 . S
H1046 C1060 0.960 . S
H1047 C1060 0.960 . S
C1048 H1040 0.929 . S
C1048 C1049 1.377 . S
C1048 C1050 1.384 . S
C1049 C1048 1.377 . S
C1049 C1055 1.390 . S
C1050 H1041 0.930 . S
C1050 C1048 1.384 . S
C1050 C1051 1.372 . S
C1051 C1050 1.372 . S
C1051 C1052 1.400 . S
C1051 C1056 1.490 . S
C1052 H1042 0.930 . S
C1052 C1051 1.400 . S
C1052 C1055 1.386 . S
H1053 C1069 0.930 . S
H1054 C1070 0.931 . S
C1055 H1043 0.929 . S
C1055 C1049 1.390 . S
C1055 C1052 1.386 . S
C1056 C1051 1.490 . S
C1056 C1058 1.395 . S
C1056 C1059 1.403 . S
H1057 C1063 0.930 . S
C1058 H1044 0.930 . S
C1058 C1056 1.395 . S
C1058 C1061 1.403 . S
C1059 C1056 1.403 . S
C1059 C1060 1.524 . S
C1059 C1063 1.400 . S
C1060 H1045 0.960 . S
C1060 H1046 0.960 . S
C1060 H1047 0.960 . S
C1060 C1059 1.524 . S
C1061 C1058 1.403 . S
C1061 C1062 1.392 . S
C1061 C1065 1.495 . S
C1062 C1061 1.392 . S
C1062 C1063 1.385 . S
C1062 C1064 1.478 . S
C1063 H1057 0.930 . S
C1063 C1059 1.400 . S
C1063 C1062 1.385 . S
C1064 C1062 1.478 . S
C1064 C1066 1.381 . S
C1064 C1070 1.383 . S
C1065 C1061 1.495 . S
C1065 H1071 0.959 . S
C1065 H1072 0.961 . S
C1065 H1073 0.960 . S
C1066 C1064 1.381 . S
C1066 C1067 1.394 . S
C1066 H1074 0.930 . S
C1067 C1066 1.394 . S
C1067 C1068 1.383 . S
C1067 H1075 0.929 . S
C1068 C1067 1.383 . S
C1068 C1069 1.377 . S
C1069 H1053 0.930 . S
C1069 C1068 1.377 . S
C1069 C1070 1.379 . S
C1070 H1054 0.931 . S
C1070 C1064 1.383 . S
C1070 C1069 1.379 . S
H1071 C1065 0.959 . S
H1072 C1065 0.961 . S
H1073 C1065 0.960 . S
H1074 C1066 0.930 . S
H1075 C1067 0.929 . S
H1076 C1084 0.929 . S
H1077 C1086 0.930 . S
H1078 C1088 0.930 . S
H1079 C1091 0.929 . S
H1080 C1094 0.930 . S
H1081 C1096 0.960 . S
H1082 C1096 0.960 . S
H1083 C1096 0.960 . S
C1084 H1076 0.929 . S
C1084 C1085 1.377 . S
C1084 C1086 1.384 . S
C1085 C1084 1.377 . S
C1085 C1091 1.390 . S
C1086 H1077 0.930 . S
C1086 C1084 1.384 . S
C1086 C1087 1.372 . S
C1087 C1086 1.372 . S
C1087 C1088 1.400 . S
C1087 C1092 1.490 . S
C1088 H1078 0.930 . S
C1088 C1087 1.400 . S
C1088 C1091 1.386 . S
H1089 C1105 0.930 . S
H1090 C1106 0.931 . S
C1091 H1079 0.929 . S
C1091 C1085 1.390 . S
C1091 C1088 1.386 . S
C1092 C1087 1.490 . S
C1092 C1094 1.395 . S
C1092 C1095 1.403 . S
H1093 C1099 0.930 . S
C1094 H1080 0.930 . S
C1094 C1092 1.395 . S
C1094 C1097 1.403 . S
C1095 C1092 1.403 . S
C1095 C1096 1.524 . S
C1095 C1099 1.400 . S
C1096 H1081 0.960 . S
C1096 H1082 0.960 . S
C1096 H1083 0.960 . S
C1096 C1095 1.524 . S
C1097 C1094 1.403 . S
C1097 C1098 1.392 . S
C1097 C1101 1.495 . S
C1098 C1097 1.392 . S
C1098 C1099 1.385 . S
C1098 C1100 1.478 . S
C1099 H1093 0.930 . S
C1099 C1095 1.400 . S
C1099 C1098 1.385 . S
C1100 C1098 1.478 . S
C1100 C1102 1.381 . S
C1100 C1106 1.383 . S
C1101 C1097 1.495 . S
C1101 H1107 0.959 . S
C1101 H1108 0.961 . S
C1101 H1109 0.960 . S
C1102 C1100 1.381 . S
C1102 C1103 1.394 . S
C1102 H1110 0.930 . S
C1103 C1102 1.394 . S
C1103 C1104 1.383 . S
C1103 H1111 0.929 . S
C1104 C1103 1.383 . S
C1104 C1105 1.377 . S
C1105 H1089 0.930 . S
C1105 C1104 1.377 . S
C1105 C1106 1.379 . S
C1106 H1090 0.931 . S
C1106 C1100 1.383 . S
C1106 C1105 1.379 . S
H1107 C1101 0.959 . S
H1108 C1101 0.961 . S
H1109 C1101 0.960 . S
H1110 C1102 0.930 . S
H1111 C1103 0.929 . S
H1112 C1120 0.929 . S
H1113 C1122 0.930 . S
H1114 C1124 0.930 . S
H1115 C1127 0.929 . S
H1116 C1130 0.930 . S
H1117 C1132 0.960 . S
H1118 C1132 0.960 . S
H1119 C1132 0.960 . S
C1120 H1112 0.929 . S
C1120 C1121 1.377 . S
C1120 C1122 1.384 . S
C1121 C1120 1.377 . S
C1121 C1127 1.390 . S
C1122 H1113 0.930 . S
C1122 C1120 1.384 . S
C1122 C1123 1.372 . S
C1123 C1122 1.372 . S
C1123 C1124 1.400 . S
C1123 C1128 1.490 . S
C1124 H1114 0.930 . S
C1124 C1123 1.400 . S
C1124 C1127 1.386 . S
H1125 C1141 0.930 . S
H1126 C1142 0.931 . S
C1127 H1115 0.929 . S
C1127 C1121 1.390 . S
C1127 C1124 1.386 . S
C1128 C1123 1.490 . S
C1128 C1130 1.395 . S
C1128 C1131 1.403 . S
H1129 C1135 0.930 . S
C1130 H1116 0.930 . S
C1130 C1128 1.395 . S
C1130 C1133 1.403 . S
C1131 C1128 1.403 . S
C1131 C1132 1.524 . S
C1131 C1135 1.400 . S
C1132 H1117 0.960 . S
C1132 H1118 0.960 . S
C1132 H1119 0.960 . S
C1132 C1131 1.524 . S
C1133 C1130 1.403 . S
C1133 C1134 1.392 . S
C1133 C1137 1.495 . S
C1134 C1133 1.392 . S
C1134 C1135 1.385 . S
C1134 C1136 1.478 . S
C1135 H1129 0.930 . S
C1135 C1131 1.400 . S
C1135 C1134 1.385 . S
C1136 C1134 1.478 . S
C1136 C1138 1.381 . S
C1136 C1142 1.383 . S
C1137 C1133 1.495 . S
C1137 H1143 0.959 . S
C1137 H1144 0.961 . S
C1137 H1145 0.960 . S
C1138 C1136 1.381 . S
C1138 C1139 1.394 . S
C1138 H1146 0.930 . S
C1139 C1138 1.394 . S
C1139 C1140 1.383 . S
C1139 H1147 0.929 . S
C1140 C1139 1.383 . S
C1140 C1141 1.377 . S
C1141 H1125 0.930 . S
C1141 C1140 1.377 . S
C1141 C1142 1.379 . S
C1142 H1126 0.931 . S
C1142 C1136 1.383 . S
C1142 C1141 1.379 . S
H1143 C1137 0.959 . S
H1144 C1137 0.961 . S
H1145 C1137 0.960 . S
H1146 C1138 0.930 . S
H1147 C1139 0.929 . S
H1148 C1156 0.929 . S
H1149 C1158 0.930 . S
H1150 C1160 0.930 . S
H1151 C1163 0.929 . S
H1152 C1166 0.930 . S
H1153 C1168 0.960 . S
H1154 C1168 0.960 . S
H1155 C1168 0.960 . S
C1156 H1148 0.929 . S
C1156 C1157 1.377 . S
C1156 C1158 1.384 . S
C1157 C1156 1.377 . S
C1157 C1163 1.390 . S
C1158 H1149 0.930 . S
C1158 C1156 1.384 . S
C1158 C1159 1.372 . S
C1159 C1158 1.372 . S
C1159 C1160 1.400 . S
C1159 C1164 1.490 . S
C1160 H1150 0.930 . S
C1160 C1159 1.400 . S
C1160 C1163 1.386 . S
H1161 C1177 0.930 . S
H1162 C1178 0.931 . S
C1163 H1151 0.929 . S
C1163 C1157 1.390 . S
C1163 C1160 1.386 . S
C1164 C1159 1.490 . S
C1164 C1166 1.395 . S
C1164 C1167 1.403 . S
H1165 C1171 0.930 . S
C1166 H1152 0.930 . S
C1166 C1164 1.395 . S
C1166 C1169 1.403 . S
C1167 C1164 1.403 . S
C1167 C1168 1.524 . S
C1167 C1171 1.400 . S
C1168 H1153 0.960 . S
C1168 H1154 0.960 . S
C1168 H1155 0.960 . S
C1168 C1167 1.524 . S
C1169 C1166 1.403 . S
C1169 C1170 1.392 . S
C1169 C1173 1.495 . S
C1170 C1169 1.392 . S
C1170 C1171 1.385 . S
C1170 C1172 1.478 . S
C1171 H1165 0.930 . S
C1171 C1167 1.400 . S
C1171 C1170 1.385 . S
C1172 C1170 1.478 . S
C1172 C1174 1.381 . S
C1172 C1178 1.383 . S
C1173 C1169 1.495 . S
C1173 H1179 0.959 . S
C1173 H1180 0.961 . S
C1173 H1181 0.960 . S
C1174 C1172 1.381 . S
C1174 C1175 1.394 . S
C1174 H1182 0.930 . S
C1175 C1174 1.394 . S
C1175 C1176 1.383 . S
C1175 H1183 0.929 . S
C1176 C1175 1.383 . S
C1176 C1177 1.377 . S
C1177 H1161 0.930 . S
C1177 C1176 1.377 . S
C1177 C1178 1.379 . S
C1178 H1162 0.931 . S
C1178 C1172 1.383 . S
C1178 C1177 1.379 . S
H1179 C1173 0.959 . S
H1180 C1173 0.961 . S
H1181 C1173 0.960 . S
H1182 C1174 0.930 . S
H1183 C1175 0.929 . S
H1184 C1192 0.929 . S
H1185 C1194 0.930 . S
H1186 C1196 0.930 . S
H1187 C1199 0.929 . S
H1188 C1202 0.930 . S
H1189 C1204 0.960 . S
H1190 C1204 0.960 . S
H1191 C1204 0.960 . S
C1192 H1184 0.929 . S
C1192 C1193 1.377 . S
C1192 C1194 1.384 . S
C1193 C1192 1.377 . S
C1193 C1199 1.390 . S
C1194 H1185 0.930 . S
C1194 C1192 1.384 . S
C1194 C1195 1.372 . S
C1195 C1194 1.372 . S
C1195 C1196 1.400 . S
C1195 C1200 1.490 . S
C1196 H1186 0.930 . S
C1196 C1195 1.400 . S
C1196 C1199 1.386 . S
H1197 C1213 0.930 . S
H1198 C1214 0.931 . S
C1199 H1187 0.929 . S
C1199 C1193 1.390 . S
C1199 C1196 1.386 . S
C1200 C1195 1.490 . S
C1200 C1202 1.395 . S
C1200 C1203 1.403 . S
H1201 C1207 0.930 . S
C1202 H1188 0.930 . S
C1202 C1200 1.395 . S
C1202 C1205 1.403 . S
C1203 C1200 1.403 . S
C1203 C1204 1.524 . S
C1203 C1207 1.400 . S
C1204 H1189 0.960 . S
C1204 H1190 0.960 . S
C1204 H1191 0.960 . S
C1204 C1203 1.524 . S
C1205 C1202 1.403 . S
C1205 C1206 1.392 . S
C1205 C1209 1.495 . S
C1206 C1205 1.392 . S
C1206 C1207 1.385 . S
C1206 C1208 1.478 . S
C1207 H1201 0.930 . S
C1207 C1203 1.400 . S
C1207 C1206 1.385 . S
C1208 C1206 1.478 . S
C1208 C1210 1.381 . S
C1208 C1214 1.383 . S
C1209 C1205 1.495 . S
C1209 H1215 0.959 . S
C1209 H1216 0.961 . S
C1209 H1217 0.960 . S
C1210 C1208 1.381 . S
C1210 C1211 1.394 . S
C1210 H1218 0.930 . S
C1211 C1210 1.394 . S
C1211 C1212 1.383 . S
C1211 H1219 0.929 . S
C1212 C1211 1.383 . S
C1212 C1213 1.377 . S
C1213 H1197 0.930 . S
C1213 C1212 1.377 . S
C1213 C1214 1.379 . S
C1214 H1198 0.931 . S
C1214 C1208 1.383 . S
C1214 C1213 1.379 . S
H1215 C1209 0.959 . S
H1216 C1209 0.961 . S
H1217 C1209 0.960 . S
H1218 C1210 0.930 . S
H1219 C1211 0.929 . S
H1220 C1228 0.929 . S
H1221 C1230 0.930 . S
H1222 C1232 0.930 . S
H1223 C1235 0.929 . S
H1224 C1238 0.930 . S
H1225 C1240 0.960 . S
H1226 C1240 0.960 . S
H1227 C1240 0.960 . S
C1228 H1220 0.929 . S
C1228 C1229 1.377 . S
C1228 C1230 1.384 . S
C1229 C1228 1.377 . S
C1229 C1235 1.390 . S
C1230 H1221 0.930 . S
C1230 C1228 1.384 . S
C1230 C1231 1.372 . S
C1231 C1230 1.372 . S
C1231 C1232 1.400 . S
C1231 C1236 1.490 . S
C1232 H1222 0.930 . S
C1232 C1231 1.400 . S
C1232 C1235 1.386 . S
H1233 C1249 0.930 . S
H1234 C1250 0.931 . S
C1235 H1223 0.929 . S
C1235 C1229 1.390 . S
C1235 C1232 1.386 . S
C1236 C1231 1.490 . S
C1236 C1238 1.395 . S
C1236 C1239 1.403 . S
H1237 C1243 0.930 . S
C1238 H1224 0.930 . S
C1238 C1236 1.395 . S
C1238 C1241 1.403 . S
C1239 C1236 1.403 . S
C1239 C1240 1.524 . S
C1239 C1243 1.400 . S
C1240 H1225 0.960 . S
C1240 H1226 0.960 . S
C1240 H1227 0.960 . S
C1240 C1239 1.524 . S
C1241 C1238 1.403 . S
C1241 C1242 1.392 . S
C1241 C1245 1.495 . S
C1242 C1241 1.392 . S
C1242 C1243 1.385 . S
C1242 C1244 1.478 . S
C1243 H1237 0.930 . S
C1243 C1239 1.400 . S
C1243 C1242 1.385 . S
C1244 C1242 1.478 . S
C1244 C1246 1.381 . S
C1244 C1250 1.383 . S
C1245 C1241 1.495 . S
C1245 H1251 0.959 . S
C1245 H1252 0.961 . S
C1245 H1253 0.960 . S
C1246 C1244 1.381 . S
C1246 C1247 1.394 . S
C1246 H1254 0.930 . S
C1247 C1246 1.394 . S
C1247 C1248 1.383 . S
C1247 H1255 0.929 . S
C1248 C1247 1.383 . S
C1248 C1249 1.377 . S
C1249 H1233 0.930 . S
C1249 C1248 1.377 . S
C1249 C1250 1.379 . S
C1250 H1234 0.931 . S
C1250 C1244 1.383 . S
C1250 C1249 1.379 . S
H1251 C1245 0.959 . S
H1252 C1245 0.961 . S
H1253 C1245 0.960 . S
H1254 C1246 0.930 . S
H1255 C1247 0.929 . S
H1256 C1264 0.929 . S
H1257 C1266 0.930 . S
H1258 C1268 0.930 . S
H1259 C1271 0.929 . S
H1260 C1274 0.930 . S
H1261 C1276 0.960 . S
H1262 C1276 0.960 . S
H1263 C1276 0.960 . S
C1264 H1256 0.929 . S
C1264 C1265 1.377 . S
C1264 C1266 1.384 . S
C1265 C1264 1.377 . S
C1265 C1271 1.390 . S
C1266 H1257 0.930 . S
C1266 C1264 1.384 . S
C1266 C1267 1.372 . S
C1267 C1266 1.372 . S
C1267 C1268 1.400 . S
C1267 C1272 1.490 . S
C1268 H1258 0.930 . S
C1268 C1267 1.400 . S
C1268 C1271 1.386 . S
H1269 C1285 0.930 . S
H1270 C1286 0.931 . S
C1271 H1259 0.929 . S
C1271 C1265 1.390 . S
C1271 C1268 1.386 . S
C1272 C1267 1.490 . S
C1272 C1274 1.395 . S
C1272 C1275 1.403 . S
H1273 C1279 0.930 . S
C1274 H1260 0.930 . S
C1274 C1272 1.395 . S
C1274 C1277 1.403 . S
C1275 C1272 1.403 . S
C1275 C1276 1.524 . S
C1275 C1279 1.400 . S
C1276 H1261 0.960 . S
C1276 H1262 0.960 . S
C1276 H1263 0.960 . S
C1276 C1275 1.524 . S
C1277 C1274 1.403 . S
C1277 C1278 1.392 . S
C1277 C1281 1.495 . S
C1278 C1277 1.392 . S
C1278 C1279 1.385 . S
C1278 C1280 1.478 . S
C1279 H1273 0.930 . S
C1279 C1275 1.400 . S
C1279 C1278 1.385 . S
C1280 C1278 1.478 . S
C1280 C1282 1.381 . S
C1280 C1286 1.383 . S
C1281 C1277 1.495 . S
C1281 H1287 0.959 . S
C1281 H1288 0.961 . S
C1281 H1289 0.960 . S
C1282 C1280 1.381 . S
C1282 C1283 1.394 . S
C1282 H1290 0.930 . S
C1283 C1282 1.394 . S
C1283 C1284 1.383 . S
C1283 H1291 0.929 . S
C1284 C1283 1.383 . S
C1284 C1285 1.377 . S
C1285 H1269 0.930 . S
C1285 C1284 1.377 . S
C1285 C1286 1.379 . S
C1286 H1270 0.931 . S
C1286 C1280 1.383 . S
C1286 C1285 1.379 . S
H1287 C1281 0.959 . S
H1288 C1281 0.961 . S
H1289 C1281 0.960 . S
H1290 C1282 0.930 . S
H1291 C1283 0.929 . S
H1292 C1300 0.929 . S
H1293 C1302 0.930 . S
H1294 C1304 0.930 . S
H1295 C1307 0.929 . S
H1296 C1310 0.930 . S
H1297 C1312 0.960 . S
H1298 C1312 0.960 . S
H1299 C1312 0.960 . S
C1300 H1292 0.929 . S
C1300 C1301 1.377 . S
C1300 C1302 1.384 . S
C1301 C1300 1.377 . S
C1301 C1307 1.390 . S
C1302 H1293 0.930 . S
C1302 C1300 1.384 . S
C1302 C1303 1.372 . S
C1303 C1302 1.372 . S
C1303 C1304 1.400 . S
C1303 C1308 1.490 . S
C1304 H1294 0.930 . S
C1304 C1303 1.400 . S
C1304 C1307 1.386 . S
H1305 C1321 0.930 . S
H1306 C1322 0.931 . S
C1307 H1295 0.929 . S
C1307 C1301 1.390 . S
C1307 C1304 1.386 . S
C1308 C1303 1.490 . S
C1308 C1310 1.395 . S
C1308 C1311 1.403 . S
H1309 C1315 0.930 . S
C1310 H1296 0.930 . S
C1310 C1308 1.395 . S
C1310 C1313 1.403 . S
C1311 C1308 1.403 . S
C1311 C1312 1.524 . S
C1311 C1315 1.400 . S
C1312 H1297 0.960 . S
C1312 H1298 0.960 . S
C1312 H1299 0.960 . S
C1312 C1311 1.524 . S
C1313 C1310 1.403 . S
C1313 C1314 1.392 . S
C1313 C1317 1.495 . S
C1314 C1313 1.392 . S
C1314 C1315 1.385 . S
C1314 C1316 1.478 . S
C1315 H1309 0.930 . S
C1315 C1311 1.400 . S
C1315 C1314 1.385 . S
C1316 C1314 1.478 . S
C1316 C1318 1.381 . S
C1316 C1322 1.383 . S
C1317 C1313 1.495 . S
C1317 H1323 0.959 . S
C1317 H1324 0.961 . S
C1317 H1325 0.960 . S
C1318 C1316 1.381 . S
C1318 C1319 1.394 . S
C1318 H1326 0.930 . S
C1319 C1318 1.394 . S
C1319 C1320 1.383 . S
C1319 H1327 0.929 . S
C1320 C1319 1.383 . S
C1320 C1321 1.377 . S
C1321 H1305 0.930 . S
C1321 C1320 1.377 . S
C1321 C1322 1.379 . S
C1322 H1306 0.931 . S
C1322 C1316 1.383 . S
C1322 C1321 1.379 . S
H1323 C1317 0.959 . S
H1324 C1317 0.961 . S
H1325 C1317 0.960 . S
H1326 C1318 0.930 . S
H1327 C1319 0.929 . S
H1328 C1336 0.929 . S
H1329 C1338 0.930 . S
H1330 C1340 0.930 . S
H1331 C1343 0.929 . S
H1332 C1346 0.930 . S
H1333 C1348 0.960 . S
H1334 C1348 0.960 . S
H1335 C1348 0.960 . S
C1336 H1328 0.929 . S
C1336 C1337 1.377 . S
C1336 C1338 1.384 . S
C1337 C1336 1.377 . S
C1337 C1343 1.390 . S
C1338 H1329 0.930 . S
C1338 C1336 1.384 . S
C1338 C1339 1.372 . S
C1339 C1338 1.372 . S
C1339 C1340 1.400 . S
C1339 C1344 1.490 . S
C1340 H1330 0.930 . S
C1340 C1339 1.400 . S
C1340 C1343 1.386 . S
H1341 C1357 0.930 . S
H1342 C1358 0.931 . S
C1343 H1331 0.929 . S
C1343 C1337 1.390 . S
C1343 C1340 1.386 . S
C1344 C1339 1.490 . S
C1344 C1346 1.395 . S
C1344 C1347 1.403 . S
H1345 C1351 0.930 . S
C1346 H1332 0.930 . S
C1346 C1344 1.395 . S
C1346 C1349 1.403 . S
C1347 C1344 1.403 . S
C1347 C1348 1.524 . S
C1347 C1351 1.400 . S
C1348 H1333 0.960 . S
C1348 H1334 0.960 . S
C1348 H1335 0.960 . S
C1348 C1347 1.524 . S
C1349 C1346 1.403 . S
C1349 C1350 1.392 . S
C1349 C1353 1.495 . S
C1350 C1349 1.392 . S
C1350 C1351 1.385 . S
C1350 C1352 1.478 . S
C1351 H1345 0.930 . S
C1351 C1347 1.400 . S
C1351 C1350 1.385 . S
C1352 C1350 1.478 . S
C1352 C1354 1.381 . S
C1352 C1358 1.383 . S
C1353 C1349 1.495 . S
C1353 H1359 0.959 . S
C1353 H1360 0.961 . S
C1353 H1361 0.960 . S
C1354 C1352 1.381 . S
C1354 C1355 1.394 . S
C1354 H1362 0.930 . S
C1355 C1354 1.394 . S
C1355 C1356 1.383 . S
C1355 H1363 0.929 . S
C1356 C1355 1.383 . S
C1356 C1357 1.377 . S
C1357 H1341 0.930 . S
C1357 C1356 1.377 . S
C1357 C1358 1.379 . S
C1358 H1342 0.931 . S
C1358 C1352 1.383 . S
C1358 C1357 1.379 . S
H1359 C1353 0.959 . S
H1360 C1353 0.961 . S
H1361 C1353 0.960 . S
H1362 C1354 0.930 . S
H1363 C1355 0.929 . S
H1364 C1372 0.929 . S
H1365 C1374 0.930 . S
H1366 C1376 0.930 . S
H1367 C1379 0.929 . S
H1368 C1382 0.930 . S
H1369 C1384 0.960 . S
H1370 C1384 0.960 . S
H1371 C1384 0.960 . S
C1372 H1364 0.929 . S
C1372 C1373 1.377 . S
C1372 C1374 1.384 . S
C1373 C1372 1.377 . S
C1373 C1379 1.390 . S
C1374 H1365 0.930 . S
C1374 C1372 1.384 . S
C1374 C1375 1.372 . S
C1375 C1374 1.372 . S
C1375 C1376 1.400 . S
C1375 C1380 1.490 . S
C1376 H1366 0.930 . S
C1376 C1375 1.400 . S
C1376 C1379 1.386 . S
H1377 C1393 0.930 . S
H1378 C1394 0.931 . S
C1379 H1367 0.929 . S
C1379 C1373 1.390 . S
C1379 C1376 1.386 . S
C1380 C1375 1.490 . S
C1380 C1382 1.395 . S
C1380 C1383 1.403 . S
H1381 C1387 0.930 . S
C1382 H1368 0.930 . S
C1382 C1380 1.395 . S
C1382 C1385 1.403 . S
C1383 C1380 1.403 . S
C1383 C1384 1.524 . S
C1383 C1387 1.400 . S
C1384 H1369 0.960 . S
C1384 H1370 0.960 . S
C1384 H1371 0.960 . S
C1384 C1383 1.524 . S
C1385 C1382 1.403 . S
C1385 C1386 1.392 . S
C1385 C1389 1.495 . S
C1386 C1385 1.392 . S
C1386 C1387 1.385 . S
C1386 C1388 1.478 . S
C1387 H1381 0.930 . S
C1387 C1383 1.400 . S
C1387 C1386 1.385 . S
C1388 C1386 1.478 . S
C1388 C1390 1.381 . S
C1388 C1394 1.383 . S
C1389 C1385 1.495 . S
C1389 H1395 0.959 . S
C1389 H1396 0.961 . S
C1389 H1397 0.960 . S
C1390 C1388 1.381 . S
C1390 C1391 1.394 . S
C1390 H1398 0.930 . S
C1391 C1390 1.394 . S
C1391 C1392 1.383 . S
C1391 H1399 0.929 . S
C1392 C1391 1.383 . S
C1392 C1393 1.377 . S
C1393 H1377 0.930 . S
C1393 C1392 1.377 . S
C1393 C1394 1.379 . S
C1394 H1378 0.931 . S
C1394 C1388 1.383 . S
C1394 C1393 1.379 . S
H1395 C1389 0.959 . S
H1396 C1389 0.961 . S
H1397 C1389 0.960 . S
H1398 C1390 0.930 . S
H1399 C1391 0.929 . S
H1400 C1408 0.929 . S
H1401 C1410 0.930 . S
H1402 C1412 0.930 . S
H1403 C1415 0.929 . S
H1404 C1418 0.930 . S
H1405 C1420 0.960 . S
H1406 C1420 0.960 . S
H1407 C1420 0.960 . S
C1408 H1400 0.929 . S
C1408 C1409 1.377 . S
C1408 C1410 1.384 . S
C1409 C1408 1.377 . S
C1409 C1415 1.390 . S
C1410 H1401 0.930 . S
C1410 C1408 1.384 . S
C1410 C1411 1.372 . S
C1411 C1410 1.372 . S
C1411 C1412 1.400 . S
C1411 C1416 1.490 . S
C1412 H1402 0.930 . S
C1412 C1411 1.400 . S
C1412 C1415 1.386 . S
H1413 C1429 0.930 . S
H1414 C1430 0.931 . S
C1415 H1403 0.929 . S
C1415 C1409 1.390 . S
C1415 C1412 1.386 . S
C1416 C1411 1.490 . S
C1416 C1418 1.395 . S
C1416 C1419 1.403 . S
H1417 C1423 0.930 . S
C1418 H1404 0.930 . S
C1418 C1416 1.395 . S
C1418 C1421 1.403 . S
C1419 C1416 1.403 . S
C1419 C1420 1.524 . S
C1419 C1423 1.400 . S
C1420 H1405 0.960 . S
C1420 H1406 0.960 . S
C1420 H1407 0.960 . S
C1420 C1419 1.524 . S
C1421 C1418 1.403 . S
C1421 C1422 1.392 . S
C1421 C1425 1.495 . S
C1422 C1421 1.392 . S
C1422 C1423 1.385 . S
C1422 C1424 1.478 . S
C1423 H1417 0.930 . S
C1423 C1419 1.400 . S
C1423 C1422 1.385 . S
C1424 C1422 1.478 . S
C1424 C1426 1.381 . S
C1424 C1430 1.383 . S
C1425 C1421 1.495 . S
C1425 H1431 0.959 . S
C1425 H1432 0.961 . S
C1425 H1433 0.960 . S
C1426 C1424 1.381 . S
C1426 C1427 1.394 . S
C1426 H1434 0.930 . S
C1427 C1426 1.394 . S
C1427 C1428 1.383 . S
C1427 H1435 0.929 . S
C1428 C1427 1.383 . S
C1428 C1429 1.377 . S
C1429 H1413 0.930 . S
C1429 C1428 1.377 . S
C1429 C1430 1.379 . S
C1430 H1414 0.931 . S
C1430 C1424 1.383 . S
C1430 C1429 1.379 . S
H1431 C1425 0.959 . S
H1432 C1425 0.961 . S
H1433 C1425 0.960 . S
H1434 C1426 0.930 . S
H1435 C1427 0.929 . S
H1436 C1444 0.929 . S
H1437 C1446 0.930 . S
H1438 C1448 0.930 . S
H1439 C1451 0.929 . S
H1440 C1454 0.930 . S
H1441 C1456 0.960 . S
H1442 C1456 0.960 . S
H1443 C1456 0.960 . S
C1444 H1436 0.929 . S
C1444 C1445 1.377 . S
C1444 C1446 1.384 . S
C1445 C1444 1.377 . S
C1445 C1451 1.390 . S
C1446 H1437 0.930 . S
C1446 C1444 1.384 . S
C1446 C1447 1.372 . S
C1447 C1446 1.372 . S
C1447 C1448 1.400 . S
C1447 C1452 1.490 . S
C1448 H1438 0.930 . S
C1448 C1447 1.400 . S
C1448 C1451 1.386 . S
H1449 C1465 0.930 . S
H1450 C1466 0.931 . S
C1451 H1439 0.929 . S
C1451 C1445 1.390 . S
C1451 C1448 1.386 . S
C1452 C1447 1.490 . S
C1452 C1454 1.395 . S
C1452 C1455 1.403 . S
H1453 C1459 0.930 . S
C1454 H1440 0.930 . S
C1454 C1452 1.395 . S
C1454 C1457 1.403 . S
C1455 C1452 1.403 . S
C1455 C1456 1.524 . S
C1455 C1459 1.400 . S
C1456 H1441 0.960 . S
C1456 H1442 0.960 . S
C1456 H1443 0.960 . S
C1456 C1455 1.524 . S
C1457 C1454 1.403 . S
C1457 C1458 1.392 . S
C1457 C1461 1.495 . S
C1458 C1457 1.392 . S
C1458 C1459 1.385 . S
C1458 C1460 1.478 . S
C1459 H1453 0.930 . S
C1459 C1455 1.400 . S
C1459 C1458 1.385 . S
C1460 C1458 1.478 . S
C1460 C1462 1.381 . S
C1460 C1466 1.383 . S
C1461 C1457 1.495 . S
C1461 H1467 0.959 . S
C1461 H1468 0.961 . S
C1461 H1469 0.960 . S
C1462 C1460 1.381 . S
C1462 C1463 1.394 . S
C1462 H1470 0.930 . S
C1463 C1462 1.394 . S
C1463 C1464 1.383 . S
C1463 H1471 0.929 . S
C1464 C1463 1.383 . S
C1464 C1465 1.377 . S
C1465 H1449 0.930 . S
C1465 C1464 1.377 . S
C1465 C1466 1.379 . S
C1466 H1450 0.931 . S
C1466 C1460 1.383 . S
C1466 C1465 1.379 . S
H1467 C1461 0.959 . S
H1468 C1461 0.961 . S
H1469 C1461 0.960 . S
H1470 C1462 0.930 . S
H1471 C1463 0.929 . S
H1472 C1480 0.929 . S
H1473 C1482 0.930 . S
H1474 C1484 0.930 . S
H1475 C1487 0.929 . S
H1476 C1490 0.930 . S
H1477 C1492 0.960 . S
H1478 C1492 0.960 . S
H1479 C1492 0.960 . S
C1480 H1472 0.929 . S
C1480 C1481 1.377 . S
C1480 C1482 1.384 . S
C1481 C1480 1.377 . S
C1481 C1487 1.390 . S
C1482 H1473 0.930 . S
C1482 C1480 1.384 . S
C1482 C1483 1.372 . S
C1483 C1482 1.372 . S
C1483 C1484 1.400 . S
C1483 C1488 1.490 . S
C1484 H1474 0.930 . S
C1484 C1483 1.400 . S
C1484 C1487 1.386 . S
H1485 C1501 0.930 . S
H1486 C1502 0.931 . S
C1487 H1475 0.929 . S
C1487 C1481 1.390 . S
C1487 C1484 1.386 . S
C1488 C1483 1.490 . S
C1488 C1490 1.395 . S
C1488 C1491 1.403 . S
H1489 C1495 0.930 . S
C1490 H1476 0.930 . S
C1490 C1488 1.395 . S
C1490 C1493 1.403 . S
C1491 C1488 1.403 . S
C1491 C1492 1.524 . S
C1491 C1495 1.400 . S
C1492 H1477 0.960 . S
C1492 H1478 0.960 . S
C1492 H1479 0.960 . S
C1492 C1491 1.524 . S
C1493 C1490 1.403 . S
C1493 C1494 1.392 . S
C1493 C1497 1.495 . S
C1494 C1493 1.392 . S
C1494 C1495 1.385 . S
C1494 C1496 1.478 . S
C1495 H1489 0.930 . S
C1495 C1491 1.400 . S
C1495 C1494 1.385 . S
C1496 C1494 1.478 . S
C1496 C1498 1.381 . S
C1496 C1502 1.383 . S
C1497 C1493 1.495 . S
C1497 H1503 0.959 . S
C1497 H1504 0.961 . S
C1497 H1505 0.960 . S
C1498 C1496 1.381 . S
C1498 C1499 1.394 . S
C1498 H1506 0.930 . S
C1499 C1498 1.394 . S
C1499 C1500 1.383 . S
C1499 H1507 0.929 . S
C1500 C1499 1.383 . S
C1500 C1501 1.377 . S
C1501 H1485 0.930 . S
C1501 C1500 1.377 . S
C1501 C1502 1.379 . S
C1502 H1486 0.931 . S
C1502 C1496 1.383 . S
C1502 C1501 1.379 . S
H1503 C1497 0.959 . S
H1504 C1497 0.961 . S
H1505 C1497 0.960 . S
H1506 C1498 0.930 . S
H1507 C1499 0.929 . S
H1508 C1516 0.929 . S
H1509 C1518 0.930 . S
H1510 C1520 0.930 . S
H1511 C1523 0.929 . S
H1512 C1526 0.930 . S
H1513 C1528 0.960 . S
H1514 C1528 0.960 . S
H1515 C1528 0.960 . S
C1516 H1508 0.929 . S
C1516 C1517 1.377 . S
C1516 C1518 1.384 . S
C1517 C1516 1.377 . S
C1517 C1523 1.390 . S
C1518 H1509 0.930 . S
C1518 C1516 1.384 . S
C1518 C1519 1.372 . S
C1519 C1518 1.372 . S
C1519 C1520 1.400 . S
C1519 C1524 1.490 . S
C1520 H1510 0.930 . S
C1520 C1519 1.400 . S
C1520 C1523 1.386 . S
H1521 C1537 0.930 . S
H1522 C1538 0.931 . S
C1523 H1511 0.929 . S
C1523 C1517 1.390 . S
C1523 C1520 1.386 . S
C1524 C1519 1.490 . S
C1524 C1526 1.395 . S
C1524 C1527 1.403 . S
H1525 C1531 0.930 . S
C1526 H1512 0.930 . S
C1526 C1524 1.395 . S
C1526 C1529 1.403 . S
C1527 C1524 1.403 . S
C1527 C1528 1.524 . S
C1527 C1531 1.400 . S
C1528 H1513 0.960 . S
C1528 H1514 0.960 . S
C1528 H1515 0.960 . S
C1528 C1527 1.524 . S
C1529 C1526 1.403 . S
C1529 C1530 1.392 . S
C1529 C1533 1.495 . S
C1530 C1529 1.392 . S
C1530 C1531 1.385 . S
C1530 C1532 1.478 . S
C1531 H1525 0.930 . S
C1531 C1527 1.400 . S
C1531 C1530 1.385 . S
C1532 C1530 1.478 . S
C1532 C1534 1.381 . S
C1532 C1538 1.383 . S
C1533 C1529 1.495 . S
C1533 H1539 0.959 . S
C1533 H1540 0.961 . S
C1533 H1541 0.960 . S
C1534 C1532 1.381 . S
C1534 C1535 1.394 . S
C1534 H1542 0.930 . S
C1535 C1534 1.394 . S
C1535 C1536 1.383 . S
C1535 H1543 0.929 . S
C1536 C1535 1.383 . S
C1536 C1537 1.377 . S
C1537 H1521 0.930 . S
C1537 C1536 1.377 . S
C1537 C1538 1.379 . S
C1538 H1522 0.931 . S
C1538 C1532 1.383 . S
C1538 C1537 1.379 . S
H1539 C1533 0.959 . S
H1540 C1533 0.961 . S
H1541 C1533 0.960 . S
H1542 C1534 0.930 . S
H1543 C1535 0.929 . S
H1544 C1552 0.929 . S
H1545 C1554 0.930 . S
H1546 C1556 0.930 . S
H1547 C1559 0.929 . S
H1548 C1562 0.930 . S
H1549 C1564 0.960 . S
H1550 C1564 0.960 . S
H1551 C1564 0.960 . S
C1552 H1544 0.929 . S
C1552 C1553 1.377 . S
C1552 C1554 1.384 . S
C1553 C1552 1.377 . S
C1553 C1559 1.390 . S
C1554 H1545 0.930 . S
C1554 C1552 1.384 . S
C1554 C1555 1.372 . S
C1555 C1554 1.372 . S
C1555 C1556 1.400 . S
C1555 C1560 1.490 . S
C1556 H1546 0.930 . S
C1556 C1555 1.400 . S
C1556 C1559 1.386 . S
H1557 C1573 0.930 . S
H1558 C1574 0.931 . S
C1559 H1547 0.929 . S
C1559 C1553 1.390 . S
C1559 C1556 1.386 . S
C1560 C1555 1.490 . S
C1560 C1562 1.395 . S
C1560 C1563 1.403 . S
H1561 C1567 0.930 . S
C1562 H1548 0.930 . S
C1562 C1560 1.395 . S
C1562 C1565 1.403 . S
C1563 C1560 1.403 . S
C1563 C1564 1.524 . S
C1563 C1567 1.400 . S
C1564 H1549 0.960 . S
C1564 H1550 0.960 . S
C1564 H1551 0.960 . S
C1564 C1563 1.524 . S
C1565 C1562 1.403 . S
C1565 C1566 1.392 . S
C1565 C1569 1.495 . S
C1566 C1565 1.392 . S
C1566 C1567 1.385 . S
C1566 C1568 1.478 . S
C1567 H1561 0.930 . S
C1567 C1563 1.400 . S
C1567 C1566 1.385 . S
C1568 C1566 1.478 . S
C1568 C1570 1.381 . S
C1568 C1574 1.383 . S
C1569 C1565 1.495 . S
C1569 H1575 0.959 . S
C1569 H1576 0.961 . S
C1569 H1577 0.960 . S
C1570 C1568 1.381 . S
C1570 C1571 1.394 . S
C1570 H1578 0.930 . S
C1571 C1570 1.394 . S
C1571 C1572 1.383 . S
C1571 H1579 0.929 . S
C1572 C1571 1.383 . S
C1572 C1573 1.377 . S
C1573 H1557 0.930 . S
C1573 C1572 1.377 . S
C1573 C1574 1.379 . S
C1574 H1558 0.931 . S
C1574 C1568 1.383 . S
C1574 C1573 1.379 . S
H1575 C1569 0.959 . S
H1576 C1569 0.961 . S
H1577 C1569 0.960 . S
H1578 C1570 0.930 . S
H1579 C1571 0.929 . S
H1580 C1588 0.929 . S
H1581 C1590 0.930 . S
H1582 C1592 0.930 . S
H1583 C1595 0.929 . S
H1584 C1598 0.930 . S
H1585 C1600 0.960 . S
H1586 C1600 0.960 . S
H1587 C1600 0.960 . S
C1588 H1580 0.929 . S
C1588 C1589 1.377 . S
C1588 C1590 1.384 . S
C1589 C1588 1.377 . S
C1589 C1595 1.390 . S
C1590 H1581 0.930 . S
C1590 C1588 1.384 . S
C1590 C1591 1.372 . S
C1591 C1590 1.372 . S
C1591 C1592 1.400 . S
C1591 C1596 1.490 . S
C1592 H1582 0.930 . S
C1592 C1591 1.400 . S
C1592 C1595 1.386 . S
H1593 C1609 0.930 . S
H1594 C1610 0.931 . S
C1595 H1583 0.929 . S
C1595 C1589 1.390 . S
C1595 C1592 1.386 . S
C1596 C1591 1.490 . S
C1596 C1598 1.395 . S
C1596 C1599 1.403 . S
H1597 C1603 0.930 . S
C1598 H1584 0.930 . S
C1598 C1596 1.395 . S
C1598 C1601 1.403 . S
C1599 C1596 1.403 . S
C1599 C1600 1.524 . S
C1599 C1603 1.400 . S
C1600 H1585 0.960 . S
C1600 H1586 0.960 . S
C1600 H1587 0.960 . S
C1600 C1599 1.524 . S
C1601 C1598 1.403 . S
C1601 C1602 1.392 . S
C1601 C1605 1.495 . S
C1602 C1601 1.392 . S
C1602 C1603 1.385 . S
C1602 C1604 1.478 . S
C1603 H1597 0.930 . S
C1603 C1599 1.400 . S
C1603 C1602 1.385 . S
C1604 C1602 1.478 . S
C1604 C1606 1.381 . S
C1604 C1610 1.383 . S
C1605 C1601 1.495 . S
C1605 H1611 0.959 . S
C1605 H1612 0.961 . S
C1605 H1613 0.960 . S
C1606 C1604 1.381 . S
C1606 C1607 1.394 . S
C1606 H1614 0.930 . S
C1607 C1606 1.394 . S
C1607 C1608 1.383 . S
C1607 H1615 0.929 . S
C1608 C1607 1.383 . S
C1608 C1609 1.377 . S
C1609 H1593 0.930 . S
C1609 C1608 1.377 . S
C1609 C1610 1.379 . S
C1610 H1594 0.931 . S
C1610 C1604 1.383 . S
C1610 C1609 1.379 . S
H1611 C1605 0.959 . S
H1612 C1605 0.961 . S
H1613 C1605 0.960 . S
H1614 C1606 0.930 . S
H1615 C1607 0.929 . S
H1616 C1624 0.929 . S
H1617 C1626 0.930 . S
H1618 C1628 0.930 . S
H1619 C1631 0.929 . S
H1620 C1634 0.930 . S
H1621 C1636 0.960 . S
H1622 C1636 0.960 . S
H1623 C1636 0.960 . S
C1624 H1616 0.929 . S
C1624 C1625 1.377 . S
C1624 C1626 1.384 . S
C1625 C1624 1.377 . S
C1625 C1631 1.390 . S
C1626 H1617 0.930 . S
C1626 C1624 1.384 . S
C1626 C1627 1.372 . S
C1627 C1626 1.372 . S
C1627 C1628 1.400 . S
C1627 C1632 1.490 . S
C1628 H1618 0.930 . S
C1628 C1627 1.400 . S
C1628 C1631 1.386 . S
H1629 C1645 0.930 . S
H1630 C1646 0.931 . S
C1631 H1619 0.929 . S
C1631 C1625 1.390 . S
C1631 C1628 1.386 . S
C1632 C1627 1.490 . S
C1632 C1634 1.395 . S
C1632 C1635 1.403 . S
H1633 C1639 0.930 . S
C1634 H1620 0.930 . S
C1634 C1632 1.395 . S
C1634 C1637 1.403 . S
C1635 C1632 1.403 . S
C1635 C1636 1.524 . S
C1635 C1639 1.400 . S
C1636 H1621 0.960 . S
C1636 H1622 0.960 . S
C1636 H1623 0.960 . S
C1636 C1635 1.524 . S
C1637 C1634 1.403 . S
C1637 C1638 1.392 . S
C1637 C1641 1.495 . S
C1638 C1637 1.392 . S
C1638 C1639 1.385 . S
C1638 C1640 1.478 . S
C1639 H1633 0.930 . S
C1639 C1635 1.400 . S
C1639 C1638 1.385 . S
C1640 C1638 1.478 . S
C1640 C1642 1.381 . S
C1640 C1646 1.383 . S
C1641 C1637 1.495 . S
C1641 H1647 0.959 . S
C1641 H1648 0.961 . S
C1641 H1649 0.960 . S
C1642 C1640 1.381 . S
C1642 C1643 1.394 . S
C1642 H1650 0.930 . S
C1643 C1642 1.394 . S
C1643 C1644 1.383 . S
C1643 H1651 0.929 . S
C1644 C1643 1.383 . S
C1644 C1645 1.377 . S
C1645 H1629 0.930 . S
C1645 C1644 1.377 . S
C1645 C1646 1.379 . S
C1646 H1630 0.931 . S
C1646 C1640 1.383 . S
C1646 C1645 1.379 . S
H1647 C1641 0.959 . S
H1648 C1641 0.961 . S
H1649 C1641 0.960 . S
H1650 C1642 0.930 . S
H1651 C1643 0.929 . S
H1652 C1660 0.929 . S
H1653 C1662 0.930 . S
H1654 C1664 0.930 . S
H1655 C1667 0.929 . S
H1656 C1670 0.930 . S
H1657 C1672 0.960 . S
H1658 C1672 0.960 . S
H1659 C1672 0.960 . S
C1660 H1652 0.929 . S
C1660 C1661 1.377 . S
C1660 C1662 1.384 . S
C1661 C1660 1.377 . S
C1661 C1667 1.390 . S
C1662 H1653 0.930 . S
C1662 C1660 1.384 . S
C1662 C1663 1.372 . S
C1663 C1662 1.372 . S
C1663 C1664 1.400 . S
C1663 C1668 1.490 . S
C1664 H1654 0.930 . S
C1664 C1663 1.400 . S
C1664 C1667 1.386 . S
H1665 C1681 0.930 . S
H1666 C1682 0.931 . S
C1667 H1655 0.929 . S
C1667 C1661 1.390 . S
C1667 C1664 1.386 . S
C1668 C1663 1.490 . S
C1668 C1670 1.395 . S
C1668 C1671 1.403 . S
H1669 C1675 0.930 . S
C1670 H1656 0.930 . S
C1670 C1668 1.395 . S
C1670 C1673 1.403 . S
C1671 C1668 1.403 . S
C1671 C1672 1.524 . S
C1671 C1675 1.400 . S
C1672 H1657 0.960 . S
C1672 H1658 0.960 . S
C1672 H1659 0.960 . S
C1672 C1671 1.524 . S
C1673 C1670 1.403 . S
C1673 C1674 1.392 . S
C1673 C1677 1.495 . S
C1674 C1673 1.392 . S
C1674 C1675 1.385 . S
C1674 C1676 1.478 . S
C1675 H1669 0.930 . S
C1675 C1671 1.400 . S
C1675 C1674 1.385 . S
C1676 C1674 1.478 . S
C1676 C1678 1.381 . S
C1676 C1682 1.383 . S
C1677 C1673 1.495 . S
C1677 H1683 0.959 . S
C1677 H1684 0.961 . S
C1677 H1685 0.960 . S
C1678 C1676 1.381 . S
C1678 C1679 1.394 . S
C1678 H1686 0.930 . S
C1679 C1678 1.394 . S
C1679 C1680 1.383 . S
C1679 H1687 0.929 . S
C1680 C1679 1.383 . S
C1680 C1681 1.377 . S
C1681 H1665 0.930 . S
C1681 C1680 1.377 . S
C1681 C1682 1.379 . S
C1682 H1666 0.931 . S
C1682 C1676 1.383 . S
C1682 C1681 1.379 . S
H1683 C1677 0.959 . S
H1684 C1677 0.961 . S
H1685 C1677 0.960 . S
H1686 C1678 0.930 . S
H1687 C1679 0.929 . S
C564 C141 1.518 . S
C545 C0 1.518 . S
C600 C194 1.337 . S
C581 C26 1.349 . S
C636 C257 1.589 . S
C617 C40 1.602 . S
C672 C300 1.279 . S
C653 C43 1.288 . S
C689 C57 1.599 . S
C708 C256 1.594 . S
C744 C293 1.377 . S
C725 C70 1.377 . S
C780 C134 1.521 . S
C761 C97 1.522 . S
C816 C187 1.263 . S
C797 C111 1.262 . S
C852 C240 1.485 . S
C833 C98 1.493 . S
C888 C309 1.839 . S
C869 C68 1.837 . S
C924 C150 1.582 . S
C905 C83 1.594 . S
C960 C203 1.756 . S
C941 C84 1.756 . S
C996 C151 1.577 . S
C977 C15 1.578 . S
C1032 C204 1.847 . S
C1013 C29 1.847 . S
C1068 C247 1.496 . S
C1049 C54 1.507 . S
C1104 C310 1.728 . S
C1085 C13 1.746 . S
C1140 C353 1.469 . S
C1121 C99 1.480 . S
C1157 C69 1.721 . S
C1176 C406 1.720 . S
C1193 C82 1.642 . S
C1212 C468 1.626 . S
C1229 C85 1.711 . S
C1248 C522 1.710 . S
C1265 C14 1.560 . S
C1284 C469 1.559 . S
C1301 C28 1.800 . S
C1320 C521 1.786 . S
C1337 C55 1.557 . S
C1356 C346 1.547 . S
C1392 C399 1.634 . S
C1373 C12 1.638 . S
C1428 C459 1.453 . S
C1409 C1 1.462 . S
C1445 C27 1.393 . S
C1464 C505 1.380 . S
C1481 C41 1.629 . S
C1500 C362 1.623 . S
C1517 C42 1.353 . S
C1536 C415 1.351 . S
C1572 C363 1.545 . S
C1553 C56 1.543 . S
C1608 C416 1.438 . S
C1589 C71 1.453 . S
C1625 C96 1.540 . S
C1644 C452 1.528 . S
C1680 C512 1.311 . S
C1661 C110 1.307 . S
