# Generated by pormake.
# Topology rtl, (3,6)-cn, num edge types: 1
# Building blocks:
#     Node 0, Type 0, BuildingBlock: OLANEW_clean_sbu_2, # of connection points: 3
#     Node 1, Type 0, BuildingBlock: OLANEW_clean_sbu_2, # of connection points: 3
#     Node 2, Type 0, BuildingBlock: OLANEW_clean_sbu_2, # of connection points: 3
#     Node 3, Type 0, BuildingBlock: OLANEW_clean_sbu_2, # of connection points: 3
#     Node 4, Type 1, BuildingBlock: FUNLAD_clean_sbu_0, # of connection points: 6
#     Node 5, Type 1, BuildingBlock: FUNLAD_clean_sbu_0, # of connection points: 6
#     Edge 6, Type (0, 1), BuildingBlock: CIFDUS_clean_linker_0, # of connection points: 2
#     Edge 7, Type (0, 1), BuildingBlock: CIFDUS_clean_linker_0, # of connection points: 2
#     Edge 8, Type (0, 1), BuildingBlock: CIFDUS_clean_linker_0, # of connection points: 2
#     Edge 9, Type (0, 1), BuildingBlock: CIFDUS_clean_linker_0, # of connection points: 2
#     Edge 10, Type (0, 1), BuildingBlock: CIFDUS_clean_linker_0, # of connection points: 2
#     Edge 11, Type (0, 1), BuildingBlock: CIFDUS_clean_linker_0, # of connection points: 2
#     Edge 12, Type (0, 1), BuildingBlock: CIFDUS_clean_linker_0, # of connection points: 2
#     Edge 13, Type (0, 1), BuildingBlock: CIFDUS_clean_linker_0, # of connection points: 2
#     Edge 14, Type (0, 1), BuildingBlock: CIFDUS_clean_linker_0, # of connection points: 2
#     Edge 15, Type (0, 1), BuildingBlock: CIFDUS_clean_linker_0, # of connection points: 2
#     Edge 16, Type (0, 1), BuildingBlock: CIFDUS_clean_linker_0, # of connection points: 2
#     Edge 17, Type (0, 1), BuildingBlock: CIFDUS_clean_linker_0, # of connection points: 2
# Relax obj value: 0.014
# Max RMSD: 0.078
# Mean RMSD: 0.052
data_MOF--net-rtl--node1-OLANEW_clean_sbu_2--node2-FUNLAD_clean_sbu_0--edge1-CIFDUS_clean_linker_0
_symmetry_space_group_name_H-M    P1
_symmetry_Int_Tables_number       1
_symmetry_cell_setting            triclinic
loop_
_symmetry_equiv_pos_as_xyz
'x, y, z'
_cell_length_a     38.924665
_cell_length_b     36.668767
_cell_length_c     19.9288
_cell_angle_alpha  86.776897
_cell_angle_beta   94.057137
_cell_angle_gamma 90.122792
loop_
_atom_site_label
_atom_site_type_symbol
_atom_site_fract_x
_atom_site_fract_y
_atom_site_fract_z
_atom_type_partial_charge
O0 O 0.13307 0.79853 0.9544 0.0
Cd1 Cd 0.16137 0.76495 0.0528 0.0
O2 O 0.13781 0.85075 0.00353 0.0
Cd3 Cd 0.15333 0.82917 0.10513 0.0
O4 O 0.13629 0.84522 0.20118 0.0
C5 C 0.10547 0.83793 0.21448 0.0
O6 O 0.08659 0.81782 0.17363 0.0
C7 C 0.12908 0.83299 0.95211 0.0
C8 C 0.22602 0.73658 0.03014 0.0
O9 O 0.19819 0.7193 0.01456 0.0
O10 O 0.22338 0.76765 0.05578 0.0
O11 O 0.63501 0.70825 0.6224 0.0
Cd12 Cd 0.66403 0.73654 0.52691 0.0
O13 O 0.65257 0.65412 0.59679 0.0
Cd14 Cd 0.67305 0.67229 0.50177 0.0
O15 O 0.65838 0.66378 0.39646 0.0
C16 C 0.62959 0.67673 0.37222 0.0
O17 O 0.61227 0.69781 0.40907 0.0
C18 C 0.63652 0.67383 0.63482 0.0
C19 C 0.7233 0.77771 0.55584 0.0
O20 O 0.69382 0.7931 0.5434 0.0
O21 O 0.72467 0.74275 0.55677 0.0
O22 O 0.83306 0.15747 0.1397 0.0
Cd23 Cd 0.81112 0.18614 0.03113 0.0
O24 O 0.88153 0.18826 0.13676 0.0
Cd25 Cd 0.87103 0.20733 0.03215 0.0
O26 O 0.8818 0.18577 0.93634 0.0
C27 C 0.87058 0.15396 0.92503 0.0
O28 O 0.85092 0.13746 0.96824 0.0
C29 C 0.86234 0.16568 0.16726 0.0
C30 C 0.76707 0.2453 0.03895 0.0
O31 O 0.75529 0.21298 0.03166 0.0
O32 O 0.79982 0.2496 0.04391 0.0
O33 O 0.38498 0.29284 0.70715 0.0
Cd34 Cd 0.37428 0.23927 0.64128 0.0
O35 O 0.3647 0.32696 0.62 0.0
Cd36 Cd 0.35252 0.37561 0.55425 0.0
O37 O 0.36434 0.41 0.46624 0.0
C38 C 0.39086 0.39919 0.43936 0.0
O39 O 0.4073 0.37018 0.46678 0.0
C40 C 0.37917 0.32448 0.6794 0.0
C41 C 0.30975 0.20712 0.64908 0.0
O42 O 0.33499 0.19739 0.69106 0.0
O43 O 0.31485 0.23279 0.60454 0.0
C44 C 0.03621 0.97127 0.47797 0.0
N45 N 0.06996 0.06597 0.57133 0.0
C46 C 0.1018 0.05053 0.58133 0.0
C47 C 0.13108 0.07243 0.58696 0.0
C48 C 0.12765 0.11061 0.58193 0.0
C49 C 0.09454 0.12585 0.57048 0.0
C50 C 0.06588 0.1029 0.56556 0.0
Zn51 Zn 0.0278 0.03266 0.56827 0.0
C52 C 0.97469 0.05708 0.46302 0.0
N53 N 0.94033 0.96149 0.56446 0.0
C54 C 0.94279 0.9247 0.5599 0.0
C55 C 0.90916 0.9779 0.56684 0.0
C56 C 0.87897 0.95732 0.56489 0.0
C57 C 0.88048 0.91933 0.559 0.0
C58 C 0.91308 0.90305 0.55673 0.0
Zn59 Zn 0.98328 0.99434 0.56667 0.0
O60 O 0.05113 0.99911 0.50168 0.0
C61 C 0.03692 0.97106 0.67274 0.0
O62 O 0.00615 0.96293 0.49493 0.0
H63 H 0.90758 0.00717 0.57002 0.0
H64 H 0.1045 0.02113 0.5855 0.0
H65 H 0.96779 0.91214 0.55801 0.0
O66 O 0.04991 1.00079 0.6508 0.0
O67 O 0.00831 0.96022 0.64598 0.0
H68 H 0.04033 0.1146 0.5579 0.0
O69 O 0.9616 0.0266 0.63888 0.0
O70 O 0.00417 0.06569 0.63435 0.0
O71 O 0.95924 0.02925 0.4873 0.0
O72 O 0.00497 0.06431 0.4864 0.0
C73 C 0.97566 0.05612 0.65703 0.0
H74 H 0.15619 0.05959 0.59476 0.0
H75 H 0.09079 0.15517 0.56673 0.0
H76 H 0.85469 0.9712 0.56824 0.0
H77 H 0.91569 0.87401 0.55126 0.0
C78 C 0.46999 0.46511 0.92293 0.0
N79 N 0.56842 0.4508 0.01431 0.0
C80 C 0.55879 0.41598 0.03121 0.0
C81 C 0.58237 0.38741 0.03322 0.0
C82 C 0.61633 0.39435 0.01676 0.0
C83 C 0.62589 0.43065 0.00067 0.0
C84 C 0.60138 0.45864 -0.00019 0.0
Zn85 Zn 0.53041 0.48975 0.00757 0.0
C86 C 0.53748 0.54421 0.89245 0.0
N87 N 0.44772 0.56745 0.99181 0.0
C88 C 0.41613 0.5521 -0.0025 0.0
C89 C 0.45129 0.6043 0.98233 0.0
C90 C 0.42218 0.62711 0.97773 0.0
C91 C 0.38925 0.61169 0.98251 0.0
C92 C 0.38662 0.57367 0.99308 0.0
Zn93 Zn 0.48827 0.53122 -0.00162 0.0
O94 O 0.49913 0.45494 0.94966 0.0
C95 C 0.48289 0.47711 0.11572 0.0
O96 O 0.45893 0.49688 0.93191 0.0
H97 H 0.47664 0.61599 0.97806 0.0
H98 H 0.53249 0.4101 0.04222 0.0
H99 H 0.41367 0.52284 0.00551 0.0
O100 O 0.51094 0.46619 0.09512 0.0
O101 O 0.46706 0.50376 0.08389 0.0
H102 H 0.60851 0.48648 0.98632 0.0
O103 O 0.51843 0.56435 0.06426 0.0
O104 O 0.56102 0.52482 0.0665 0.0
O105 O 0.51099 0.55832 0.91482 0.0
O106 O 0.54971 0.51443 0.91997 0.0
C107 C 0.5491 0.55482 0.08422 0.0
H108 H 0.57393 0.36005 0.04729 0.0
H109 H 0.65172 0.43726 0.98715 0.0
H110 H 0.42535 0.65633 0.96948 0.0
H111 H 0.36192 0.5606 -0.0014 0.0
H112 H 0.25254 0.22004 0.56455 0.0
H113 H 0.29188 0.15071 0.73492 0.0
H114 H 0.23853 0.11561 0.73046 0.0
H115 H 0.18177 0.10287 0.67522 0.0
H116 H 0.14261 0.17152 0.50407 0.0
H117 H 0.19469 0.20887 0.51228 0.0
C118 C 0.24937 0.19742 0.60104 0.0
C119 C 0.27628 0.18791 0.64973 0.0
C120 C 0.2187 0.17716 0.59794 0.0
C121 C 0.27166 0.15858 0.69676 0.0
C122 C 0.24117 0.13842 0.69419 0.0
C123 C 0.18472 0.12594 0.63958 0.0
C124 C 0.15853 0.13425 0.58879 0.0
C125 C 0.21475 0.14713 0.6444 0.0
C126 C 0.16235 0.16467 0.54383 0.0
C127 C 0.19218 0.18592 0.5483 0.0
H128 H 0.23944 0.6783 0.95807 0.0
H129 H 0.28929 0.75844 0.08196 0.0
H130 H 0.34488 0.72848 0.07446 0.0
H131 H 0.37862 0.6767 0.0392 0.0
H132 H 0.32819 0.59766 0.91346 0.0
H133 H 0.2737 0.63002 0.91517 0.0
C134 C 0.26248 0.68938 0.98313 0.0
C135 C 0.26012 0.72034 0.02107 0.0
C136 C 0.29431 0.67206 0.97858 0.0
C137 C 0.29033 0.73456 0.05255 0.0
C138 C 0.32215 0.71739 0.04842 0.0
C139 C 0.35584 0.66696 0.01124 0.0
C140 C 0.35743 0.63445 0.97717 0.0
C141 C 0.32438 0.68576 0.01241 0.0
C142 C 0.32757 0.62215 0.94135 0.0
C143 C 0.29637 0.6407 0.94207 0.0
H144 H 0.73274 0.84834 0.51378 0.0
H145 H 0.78531 0.7561 0.61825 0.0
H146 H 0.83837 0.79185 0.62997 0.0
H147 H 0.86987 0.84926 0.60954 0.0
H148 H 0.81791 0.93944 0.4961 0.0
H149 H 0.76464 0.90473 0.48993 0.0
C150 C 0.75574 0.83615 0.5396 0.0
C151 C 0.75503 0.79972 0.56553 0.0
C152 C 0.78633 0.85653 0.54463 0.0
C153 C 0.78519 0.78413 0.5979 0.0
C154 C 0.81554 0.80455 0.60456 0.0
C155 C 0.84707 0.86126 0.58275 0.0
C156 C 0.84815 0.89726 0.55404 0.0
C157 C 0.81649 0.84073 0.57768 0.0
C158 C 0.81795 0.91226 0.52029 0.0
C159 C 0.78739 0.89228 0.51615 0.0
H160 H 0.69923 0.24783 -0.00175 0.0
H161 H 0.78215 0.31372 0.08059 0.0
H162 H 0.74304 0.36588 0.08059 0.0
H163 H 0.68493 0.39247 0.05833 0.0
H164 H 0.60324 0.32675 0.97024 0.0
H165 H 0.64219 0.27486 0.97191 0.0
C166 C 0.70874 0.27355 0.01647 0.0
C167 C 0.74346 0.27681 0.0398 0.0
C168 C 0.6863 0.3035 0.0154 0.0
C169 C 0.75549 0.31048 0.06243 0.0
C170 C 0.73315 0.34032 0.06243 0.0
C171 C 0.67574 0.36694 0.03881 0.0
C172 C 0.64101 0.36352 0.01504 0.0
C173 C 0.69848 0.33715 0.03896 0.0
C174 C 0.62957 0.33003 0.99036 0.0
C175 C 0.65189 0.30033 0.99085 0.0
H176 H 0.13167 0.89382 0.28597 0.0
H177 H 0.04279 0.82381 0.26381 0.0
H178 H 0.01366 0.85835 0.34452 0.0
H179 H 0.01237 0.91033 0.41727 0.0
H180 H 0.10093 0.98115 0.43622 0.0
H181 H 0.13105 0.94448 0.36071 0.0
C182 C 0.10609 0.8858 0.29936 0.0
C183 C 0.08945 0.85627 0.26882 0.0
C184 C 0.08922 0.9062 0.34471 0.0
C185 C 0.05619 0.84646 0.28648 0.0
C186 C 0.03945 0.86628 0.33247 0.0
C187 C 0.03826 0.91772 0.40493 0.0
C188 C 0.05421 0.94861 0.43213 0.0
C189 C 0.05551 0.89657 0.36111 0.0
C190 C 0.08787 0.95767 0.41578 0.0
C191 C 0.10522 0.93666 0.37268 0.0
H192 H 0.63466 0.60151 0.67068 0.0
H193 H 0.59389 0.7054 0.71948 0.0
H194 H 0.55793 0.67431 0.80085 0.0
H195 H 0.53772 0.61722 0.85745 0.0
H196 H 0.57997 0.51405 0.80864 0.0
H197 H 0.61522 0.54531 0.72696 0.0
C198 C 0.6181 0.61753 0.69929 0.0
C199 C 0.61708 0.65581 0.68889 0.0
C200 C 0.59735 0.59951 0.74534 0.0
C201 C 0.59537 0.67594 0.72661 0.0
C202 C 0.57462 0.65814 0.77286 0.0
C203 C 0.55432 0.60161 0.82823 0.0
C204 C 0.55602 0.56334 0.83864 0.0
C205 C 0.57518 0.61989 0.78223 0.0
C206 C 0.57811 0.5435 0.80138 0.0
C207 C 0.59839 0.56136 0.75488 0.0
H208 H 0.92557 0.17293 0.23119 0.0
H209 H 0.83057 0.11273 0.24356 0.0
H210 H 0.85679 0.07396 0.33715 0.0
H211 H 0.90795 0.05482 0.41081 0.0
H212 H 0.00289 0.11497 0.39542 0.0
H213 H 0.9754 0.15581 0.30722 0.0
C214 C 0.91036 0.15164 0.25475 0.0
C215 C 0.87617 0.14571 0.23007 0.0
C216 C 0.92576 0.12904 0.30744 0.0
C217 C 0.85695 0.11795 0.26147 0.0
C218 C 0.87199 0.0956 0.31475 0.0
C219 C 0.92262 0.07684 0.38809 0.0
C220 C 0.95753 0.08156 0.40934 0.0
C221 C 0.90661 0.10043 0.33723 0.0
C222 C 0.97605 0.1105 0.37985 0.0
C223 C 0.96034 0.13399 0.32945 0.0
H224 H 0.39074 0.32925 0.81365 0.0
H225 H 0.39794 0.39189 0.62548 0.0
H226 H 0.42223 0.44308 0.6852 0.0
H227 H 0.44663 0.46828 0.79102 0.0
H228 H 0.446 0.40219 0.97657 0.0
H229 H 0.41431 0.35418 0.91835 0.0
C230 C 0.39724 0.35426 0.78569 0.0
C231 C 0.39133 0.357 0.71517 0.0
C232 C 0.41285 0.38294 0.82019 0.0
C233 C 0.4004 0.38946 0.67978 0.0
C234 C 0.41502 0.41864 0.71398 0.0
C235 C 0.43898 0.44353 0.81844 0.0
C236 C 0.44821 0.43856 0.88767 0.0
C237 C 0.42187 0.4155 0.7841 0.0
C238 C 0.43893 0.40633 0.92309 0.0
C239 C 0.42092 0.37894 0.88988 0.0
H240 H 0.65331 0.62383 0.2971 0.0
H241 H 0.568 0.69787 0.30746 0.0
H242 H 0.53638 0.6683 0.21531 0.0
H243 H 0.53079 0.61773 0.13932 0.0
H244 H 0.61564 0.54264 0.13228 0.0
H245 H 0.64951 0.5764 0.21544 0.0
C246 C 0.62802 0.63391 0.2786 0.0
C247 C 0.61294 0.6628 0.30965 0.0
C248 C 0.60967 0.6163 0.22664 0.0
C249 C 0.58016 0.67552 0.2848 0.0
C250 C 0.56198 0.65853 0.23224 0.0
C251 C 0.5568 0.60895 0.15549 0.0
C252 C 0.57045 0.57744 0.13011 0.0
C253 C 0.57611 0.62827 0.20402 0.0
C254 C 0.60431 0.56659 0.15137 0.0
C255 C 0.62377 0.5859 0.19896 0.0
H256 H 0.92464 0.17161 0.85068 0.0
H257 H 0.84578 0.09015 0.87689 0.0
H258 H 0.87077 0.05305 0.79462 0.0
H259 H 0.91675 0.04229 0.71979 0.0
H260 H 0.99675 0.12294 0.69715 0.0
H261 H 0.96959 0.16169 0.77369 0.0
C262 C 0.91265 0.14596 0.83779 0.0
C263 C 0.88342 0.13365 0.86989 0.0
C264 C 0.92757 0.1244 0.79165 0.0
C265 C 0.86836 0.10021 0.85299 0.0
C266 C 0.88268 0.07892 0.80611 0.0
C267 C 0.92822 0.06837 0.7315 0.0
C268 C 0.95886 0.07955 0.70311 0.0
C269 C 0.91262 0.09047 0.77598 0.0
C270 C 0.9733 0.1135 0.71866 0.0
C271 C 0.95775 0.13577 0.7623 0.0
H272 H 0.44611 0.38156 0.37293 0.0
H273 H 0.36319 0.4598 0.36843 0.0
H274 H 0.38406 0.49083 0.26722 0.0
H275 H 0.42624 0.49568 0.18017 0.0
H276 H 0.50895 0.41686 0.18706 0.0
H277 H 0.48763 0.38615 0.28711 0.0
C278 C 0.43253 0.4054 0.34996 0.0
C279 C 0.40315 0.41833 0.37826 0.0
C280 C 0.44463 0.42303 0.29209 0.0
C281 C 0.38591 0.44928 0.34768 0.0
C282 C 0.39782 0.46702 0.28979 0.0
C283 C 0.43955 0.47177 0.20356 0.0
C284 C 0.46919 0.4587 0.17613 0.0
C285 C 0.4272 0.45414 0.26155 0.0
C286 C 0.48615 0.42765 0.2071 0.0
C287 C 0.47398 0.40999 0.2644 0.0
H288 H 0.12916 0.90576 0.92215 0.0
H289 H 0.08987 0.80442 0.84782 0.0
H290 H 0.05656 0.83819 0.75567 0.0
H291 H 0.03732 0.8971 0.69813 0.0
H292 H 0.07919 0.99757 0.77175 0.0
H293 H 0.11237 0.96356 0.86281 0.0
C294 C 0.11346 0.89096 0.88563 0.0
C295 C 0.11188 0.85265 0.89207 0.0
C296 C 0.0945 0.91047 0.83309 0.0
C297 C 0.09166 0.83393 0.84387 0.0
C298 C 0.07242 0.85324 0.79145 0.0
C299 C 0.05355 0.91142 0.7345 0.0
C300 C 0.05559 0.94975 0.72876 0.0
C301 C 0.07331 0.89158 0.78603 0.0
C302 C 0.07716 0.96805 0.7753 0.0
C303 C 0.0962 0.94865 0.8273 0.0
loop_
_geom_bond_atom_site_label_1
_geom_bond_atom_site_label_2
_geom_bond_distance
_geom_bond_site_symmetry_2
_ccdc_geom_bond_type
O0 Cd1 2.300 1_556 S
O0 C7 1.275 . S
Cd1 O0 2.300 1_554 S
Cd1 O9 2.385 . S
Cd1 O10 2.378 . S
O2 Cd3 2.385 . S
O2 C7 1.255 1_554 S
Cd3 O2 2.385 . S
Cd3 O4 2.317 . S
O4 Cd3 2.317 . S
O4 C5 1.232 . S
C5 O4 1.232 . S
C5 O6 1.218 . S
O6 C5 1.218 . S
C7 O0 1.275 . S
C7 O2 1.255 1_556 S
C8 O9 1.263 . S
C8 O10 1.256 . S
O9 Cd1 2.385 . S
O9 C8 1.263 . S
O10 Cd1 2.378 . S
O10 C8 1.256 . S
O11 Cd12 2.300 . S
O11 C18 1.275 . S
Cd12 O11 2.300 . S
Cd12 O20 2.381 . S
Cd12 O21 2.378 . S
O13 Cd14 2.385 . S
O13 C18 1.255 . S
Cd14 O13 2.385 . S
Cd14 O15 2.317 . S
O15 Cd14 2.317 . S
O15 C16 1.232 . S
C16 O15 1.232 . S
C16 O17 1.218 . S
O17 C16 1.218 . S
C18 O11 1.275 . S
C18 O13 1.255 . S
C19 O20 1.258 . S
C19 O21 1.256 . S
O20 Cd12 2.381 . S
O20 C19 1.258 . S
O21 Cd12 2.378 . S
O21 C19 1.256 . S
O22 Cd23 2.300 . S
O22 C29 1.275 . S
Cd23 O22 2.300 . S
Cd23 O31 2.381 . S
Cd23 O32 2.378 . S
O24 Cd25 2.385 . S
O24 C29 1.255 . S
Cd25 O24 2.385 . S
Cd25 O26 2.317 1_554 S
O26 Cd25 2.317 1_556 S
O26 C27 1.232 . S
C27 O26 1.232 . S
C27 O28 1.218 . S
O28 C27 1.218 . S
C29 O22 1.275 . S
C29 O24 1.255 . S
C30 O31 1.258 . S
C30 O32 1.256 . S
O31 Cd23 2.381 . S
O31 C30 1.258 . S
O32 Cd23 2.378 . S
O32 C30 1.256 . S
O33 Cd34 2.300 . S
O33 C40 1.275 . S
Cd34 O33 2.300 . S
Cd34 O42 2.381 . S
Cd34 O43 2.378 . S
O35 Cd36 2.385 . S
O35 C40 1.255 . S
Cd36 O35 2.385 . S
Cd36 O37 2.317 . S
O37 Cd36 2.317 . S
O37 C38 1.232 . S
C38 O37 1.232 . S
C38 O39 1.218 . S
O39 C38 1.218 . S
C40 O33 1.275 . S
C40 O35 1.255 . S
C41 O42 1.258 . S
C41 O43 1.256 . S
O42 Cd34 2.381 . S
O42 C41 1.258 . S
O43 Cd34 2.378 . S
O43 C41 1.256 . S
C44 O60 1.251 . S
C44 O62 1.254 . S
N45 C46 1.333 . S
N45 C50 1.307 . S
N45 Zn51 2.020 . S
C46 N45 1.333 . S
C46 C47 1.379 . S
C46 H64 0.952 . S
C47 C46 1.379 . S
C47 C48 1.390 . S
C47 H74 0.949 . S
C48 C47 1.390 . S
C48 C49 1.357 . S
C49 C48 1.357 . S
C49 C50 1.370 . S
C49 H75 0.950 . S
C50 N45 1.307 . S
C50 C49 1.370 . S
C50 H68 0.948 . S
Zn51 N45 2.020 . S
Zn51 O60 2.039 1_545 S
Zn51 O66 2.034 1_545 S
Zn51 O70 2.021 1_455 S
Zn51 O72 2.024 1_455 S
C52 O71 1.246 . S
C52 O72 1.249 . S
N53 C54 1.307 . S
N53 C55 1.333 . S
N53 Zn59 2.020 . S
C54 N53 1.307 . S
C54 C58 1.370 . S
C54 H65 0.948 . S
C55 N53 1.333 . S
C55 C56 1.379 . S
C55 H63 0.952 . S
C56 C55 1.379 . S
C56 C57 1.390 . S
C56 H76 0.949 . S
C57 C56 1.390 . S
C57 C58 1.357 . S
C58 C54 1.370 . S
C58 C57 1.357 . S
C58 H77 0.950 . S
Zn59 N53 2.020 . S
Zn59 O62 2.025 1_655 S
Zn59 O67 2.024 1_655 S
Zn59 O69 2.039 1_565 S
Zn59 O71 2.034 1_565 S
O60 C44 1.251 . S
O60 Zn51 2.039 1_565 S
C61 O66 1.246 . S
C61 O67 1.249 . S
O62 C44 1.254 . S
O62 Zn59 2.025 1_455 S
H63 C55 0.952 . S
H64 C46 0.952 . S
H65 C54 0.948 . S
O66 Zn51 2.034 1_565 S
O66 C61 1.246 . S
O67 Zn59 2.024 1_455 S
O67 C61 1.249 . S
H68 C50 0.948 . S
O69 Zn59 2.039 1_545 S
O69 C73 1.251 . S
O70 Zn51 2.021 1_655 S
O70 C73 1.260 . S
O71 C52 1.246 . S
O71 Zn59 2.034 1_545 S
O72 Zn51 2.024 1_655 S
O72 C52 1.249 . S
C73 O69 1.251 . S
C73 O70 1.260 . S
H74 C47 0.949 . S
H75 C49 0.950 . S
H76 C56 0.949 . S
H77 C58 0.950 . S
C78 O94 1.251 . S
C78 O96 1.254 . S
N79 C80 1.333 . S
N79 C84 1.307 . S
N79 Zn85 2.020 . S
C80 N79 1.333 . S
C80 C81 1.379 . S
C80 H98 0.952 1_554 S
C81 C80 1.379 . S
C81 C82 1.390 . S
C81 H108 0.944 1_554 S
C82 C81 1.390 . S
C82 C83 1.357 . S
C83 C82 1.357 . S
C83 C84 1.370 . S
C83 H109 0.950 . S
C84 N79 1.307 . S
C84 C83 1.370 . S
C84 H102 0.948 . S
Zn85 N79 2.020 . S
Zn85 O94 2.039 1_554 S
Zn85 O100 2.034 . S
Zn85 O104 2.025 . S
Zn85 O106 2.024 1_554 S
C86 O105 1.246 . S
C86 O106 1.249 . S
N87 C88 1.307 1_554 S
N87 C89 1.333 . S
N87 Zn93 2.020 . S
C88 N87 1.307 1_556 S
C88 C92 1.370 . S
C88 H99 0.948 . S
C89 N87 1.333 . S
C89 C90 1.379 . S
C89 H97 0.952 . S
C90 C89 1.379 . S
C90 C91 1.390 . S
C90 H110 0.949 . S
C91 C90 1.390 . S
C91 C92 1.357 1_554 S
C92 C88 1.370 . S
C92 C91 1.357 1_556 S
C92 H111 0.950 . S
Zn93 N87 2.020 . S
Zn93 O96 2.025 1_554 S
Zn93 O101 2.024 . S
Zn93 O103 2.039 . S
Zn93 O105 2.034 1_554 S
O94 C78 1.251 . S
O94 Zn85 2.039 1_556 S
C95 O100 1.246 . S
C95 O101 1.249 . S
O96 C78 1.254 . S
O96 Zn93 2.025 1_556 S
H97 C89 0.952 . S
H98 C80 0.952 1_556 S
H99 C88 0.948 . S
O100 Zn85 2.034 . S
O100 C95 1.246 . S
O101 Zn93 2.024 . S
O101 C95 1.249 . S
H102 C84 0.948 . S
O103 Zn93 2.039 . S
O103 C107 1.251 . S
O104 Zn85 2.025 . S
O104 C107 1.254 . S
O105 C86 1.246 . S
O105 Zn93 2.034 1_556 S
O106 Zn85 2.024 1_556 S
O106 C86 1.249 . S
C107 O103 1.251 . S
C107 O104 1.254 . S
H108 C81 0.944 1_556 S
H109 C83 0.950 . S
H110 C90 0.949 . S
H111 C92 0.950 . S
H112 C118 0.930 . S
H113 C121 0.930 . S
H114 C122 0.930 . S
H115 C123 0.930 . S
H116 C126 0.930 . S
H117 C127 0.930 . S
C118 H112 0.930 . S
C118 C119 1.355 . S
C118 C120 1.415 . S
C119 C118 1.355 . S
C119 C121 1.419 . S
C120 C118 1.415 . S
C120 C125 1.425 . S
C120 C127 1.409 . S
C121 H113 0.930 . S
C121 C119 1.419 . S
C121 C122 1.362 . S
C122 H114 0.930 . S
C122 C121 1.362 . S
C122 C125 1.409 . S
C123 H115 0.930 . S
C123 C124 1.355 . S
C123 C125 1.415 . S
C124 C123 1.355 . S
C124 C126 1.419 . S
C125 C120 1.425 . S
C125 C122 1.409 . S
C125 C123 1.415 . S
C126 H116 0.930 . S
C126 C124 1.419 . S
C126 C127 1.362 . S
C127 H117 0.930 . S
C127 C120 1.409 . S
C127 C126 1.362 . S
H128 C134 0.930 1_556 S
H129 C137 0.930 . S
H130 C138 0.930 . S
H131 C139 0.930 . S
H132 C142 0.930 . S
H133 C143 0.930 . S
C134 H128 0.930 1_554 S
C134 C135 1.355 . S
C134 C136 1.415 . S
C135 C134 1.355 . S
C135 C137 1.419 . S
C136 C134 1.415 . S
C136 C141 1.425 . S
C136 C143 1.409 1_554 S
C137 H129 0.930 . S
C137 C135 1.419 . S
C137 C138 1.362 . S
C138 H130 0.930 . S
C138 C137 1.362 . S
C138 C141 1.409 . S
C139 H131 0.930 . S
C139 C140 1.355 . S
C139 C141 1.415 . S
C140 C139 1.355 . S
C140 C142 1.419 1_554 S
C141 C136 1.425 . S
C141 C138 1.409 . S
C141 C139 1.415 . S
C142 H132 0.930 . S
C142 C140 1.419 1_556 S
C142 C143 1.362 . S
C143 H133 0.930 . S
C143 C136 1.409 1_556 S
C143 C142 1.362 . S
H144 C150 0.930 . S
H145 C153 0.930 . S
H146 C154 0.930 . S
H147 C155 0.930 . S
H148 C158 0.930 . S
H149 C159 0.930 . S
C150 H144 0.930 . S
C150 C151 1.355 . S
C150 C152 1.415 . S
C151 C150 1.355 . S
C151 C153 1.419 . S
C152 C150 1.415 . S
C152 C157 1.425 . S
C152 C159 1.409 . S
C153 H145 0.930 . S
C153 C151 1.419 . S
C153 C154 1.362 . S
C154 H146 0.930 . S
C154 C153 1.362 . S
C154 C157 1.409 . S
C155 H147 0.930 . S
C155 C156 1.355 . S
C155 C157 1.415 . S
C156 C155 1.355 . S
C156 C158 1.419 . S
C157 C152 1.425 . S
C157 C154 1.409 . S
C157 C155 1.415 . S
C158 H148 0.930 . S
C158 C156 1.419 . S
C158 C159 1.362 . S
C159 H149 0.930 . S
C159 C152 1.409 . S
C159 C158 1.362 . S
H160 C166 0.930 . S
H161 C169 0.930 . S
H162 C170 0.930 . S
H163 C171 0.930 . S
H164 C174 0.930 1_556 S
H165 C175 0.930 . S
C166 H160 0.930 . S
C166 C167 1.355 . S
C166 C168 1.415 . S
C167 C166 1.355 . S
C167 C169 1.419 . S
C168 C166 1.415 . S
C168 C173 1.425 . S
C168 C175 1.409 . S
C169 H161 0.930 . S
C169 C167 1.419 . S
C169 C170 1.362 . S
C170 H162 0.930 . S
C170 C169 1.362 . S
C170 C173 1.409 . S
C171 H163 0.930 . S
C171 C172 1.355 . S
C171 C173 1.415 . S
C172 C171 1.355 . S
C172 C174 1.419 . S
C173 C168 1.425 . S
C173 C170 1.409 . S
C173 C171 1.415 . S
C174 H164 0.930 1_554 S
C174 C172 1.419 . S
C174 C175 1.362 . S
C175 H165 0.930 . S
C175 C168 1.409 . S
C175 C174 1.362 . S
H176 C182 0.930 . S
H177 C185 0.930 . S
H178 C186 0.930 . S
H179 C187 0.930 . S
H180 C190 0.930 1_545 S
H181 C191 0.930 . S
C182 H176 0.930 . S
C182 C183 1.355 . S
C182 C184 1.415 . S
C183 C182 1.355 . S
C183 C185 1.419 . S
C184 C182 1.415 . S
C184 C189 1.425 . S
C184 C191 1.409 . S
C185 H177 0.930 . S
C185 C183 1.419 . S
C185 C186 1.362 . S
C186 H178 0.930 . S
C186 C185 1.362 . S
C186 C189 1.409 . S
C187 H179 0.930 . S
C187 C188 1.355 . S
C187 C189 1.415 . S
C188 C187 1.355 . S
C188 C190 1.419 . S
C189 C184 1.425 . S
C189 C186 1.409 . S
C189 C187 1.415 . S
C190 H180 0.930 1_565 S
C190 C188 1.419 . S
C190 C191 1.362 . S
C191 H181 0.930 . S
C191 C184 1.409 . S
C191 C190 1.362 . S
H192 C198 0.930 . S
H193 C201 0.930 . S
H194 C202 0.930 . S
H195 C203 0.930 . S
H196 C206 0.930 . S
H197 C207 0.930 . S
C198 H192 0.930 . S
C198 C199 1.355 . S
C198 C200 1.415 . S
C199 C198 1.355 . S
C199 C201 1.419 . S
C200 C198 1.415 . S
C200 C205 1.425 . S
C200 C207 1.409 . S
C201 H193 0.930 . S
C201 C199 1.419 . S
C201 C202 1.362 . S
C202 H194 0.930 . S
C202 C201 1.362 . S
C202 C205 1.409 . S
C203 H195 0.930 . S
C203 C204 1.355 . S
C203 C205 1.415 . S
C204 C203 1.355 . S
C204 C206 1.419 . S
C205 C200 1.425 . S
C205 C202 1.409 . S
C205 C203 1.415 . S
C206 H196 0.930 . S
C206 C204 1.419 . S
C206 C207 1.362 . S
C207 H197 0.930 . S
C207 C200 1.409 . S
C207 C206 1.362 . S
H208 C214 0.930 . S
H209 C217 0.930 . S
H210 C218 0.930 . S
H211 C219 0.930 . S
H212 C222 0.930 . S
H213 C223 0.930 . S
C214 H208 0.930 . S
C214 C215 1.355 . S
C214 C216 1.415 . S
C215 C214 1.355 . S
C215 C217 1.419 . S
C216 C214 1.415 . S
C216 C221 1.425 . S
C216 C223 1.409 . S
C217 H209 0.930 . S
C217 C215 1.419 . S
C217 C218 1.362 . S
C218 H210 0.930 . S
C218 C217 1.362 . S
C218 C221 1.409 . S
C219 H211 0.930 . S
C219 C220 1.355 . S
C219 C221 1.415 . S
C220 C219 1.355 . S
C220 C222 1.419 . S
C221 C216 1.425 . S
C221 C218 1.409 . S
C221 C219 1.415 . S
C222 H212 0.930 . S
C222 C220 1.419 . S
C222 C223 1.362 . S
C223 H213 0.930 . S
C223 C216 1.409 . S
C223 C222 1.362 . S
H224 C230 0.930 . S
H225 C233 0.930 . S
H226 C234 0.930 . S
H227 C235 0.930 . S
H228 C238 0.930 . S
H229 C239 0.930 . S
C230 H224 0.930 . S
C230 C231 1.355 . S
C230 C232 1.415 . S
C231 C230 1.355 . S
C231 C233 1.419 . S
C232 C230 1.415 . S
C232 C237 1.425 . S
C232 C239 1.409 . S
C233 H225 0.930 . S
C233 C231 1.419 . S
C233 C234 1.362 . S
C234 H226 0.930 . S
C234 C233 1.362 . S
C234 C237 1.409 . S
C235 H227 0.930 . S
C235 C236 1.355 . S
C235 C237 1.415 . S
C236 C235 1.355 . S
C236 C238 1.419 . S
C237 C232 1.425 . S
C237 C234 1.409 . S
C237 C235 1.415 . S
C238 H228 0.930 . S
C238 C236 1.419 . S
C238 C239 1.362 . S
C239 H229 0.930 . S
C239 C232 1.409 . S
C239 C238 1.362 . S
H240 C246 0.930 . S
H241 C249 0.930 . S
H242 C250 0.930 . S
H243 C251 0.930 . S
H244 C254 0.930 . S
H245 C255 0.930 . S
C246 H240 0.930 . S
C246 C247 1.355 . S
C246 C248 1.415 . S
C247 C246 1.355 . S
C247 C249 1.419 . S
C248 C246 1.415 . S
C248 C253 1.425 . S
C248 C255 1.409 . S
C249 H241 0.930 . S
C249 C247 1.419 . S
C249 C250 1.362 . S
C250 H242 0.930 . S
C250 C249 1.362 . S
C250 C253 1.409 . S
C251 H243 0.930 . S
C251 C252 1.355 . S
C251 C253 1.415 . S
C252 C251 1.355 . S
C252 C254 1.419 . S
C253 C248 1.425 . S
C253 C250 1.409 . S
C253 C251 1.415 . S
C254 H244 0.930 . S
C254 C252 1.419 . S
C254 C255 1.362 . S
C255 H245 0.930 . S
C255 C248 1.409 . S
C255 C254 1.362 . S
H256 C262 0.930 . S
H257 C265 0.930 . S
H258 C266 0.930 . S
H259 C267 0.930 . S
H260 C270 0.930 . S
H261 C271 0.930 . S
C262 H256 0.930 . S
C262 C263 1.355 . S
C262 C264 1.415 . S
C263 C262 1.355 . S
C263 C265 1.419 . S
C264 C262 1.415 . S
C264 C269 1.425 . S
C264 C271 1.409 . S
C265 H257 0.930 . S
C265 C263 1.419 . S
C265 C266 1.362 . S
C266 H258 0.930 . S
C266 C265 1.362 . S
C266 C269 1.409 . S
C267 H259 0.930 . S
C267 C268 1.355 . S
C267 C269 1.415 . S
C268 C267 1.355 . S
C268 C270 1.419 . S
C269 C264 1.425 . S
C269 C266 1.409 . S
C269 C267 1.415 . S
C270 H260 0.930 . S
C270 C268 1.419 . S
C270 C271 1.362 . S
C271 H261 0.930 . S
C271 C264 1.409 . S
C271 C270 1.362 . S
H272 C278 0.930 . S
H273 C281 0.930 . S
H274 C282 0.930 . S
H275 C283 0.930 . S
H276 C286 0.930 . S
H277 C287 0.930 . S
C278 H272 0.930 . S
C278 C279 1.355 . S
C278 C280 1.415 . S
C279 C278 1.355 . S
C279 C281 1.419 . S
C280 C278 1.415 . S
C280 C285 1.425 . S
C280 C287 1.409 . S
C281 H273 0.930 . S
C281 C279 1.419 . S
C281 C282 1.362 . S
C282 H274 0.930 . S
C282 C281 1.362 . S
C282 C285 1.409 . S
C283 H275 0.930 . S
C283 C284 1.355 . S
C283 C285 1.415 . S
C284 C283 1.355 . S
C284 C286 1.419 . S
C285 C280 1.425 . S
C285 C282 1.409 . S
C285 C283 1.415 . S
C286 H276 0.930 . S
C286 C284 1.419 . S
C286 C287 1.362 . S
C287 H277 0.930 . S
C287 C280 1.409 . S
C287 C286 1.362 . S
H288 C294 0.930 . S
H289 C297 0.930 . S
H290 C298 0.930 . S
H291 C299 0.930 . S
H292 C302 0.930 . S
H293 C303 0.930 . S
C294 H288 0.930 . S
C294 C295 1.355 . S
C294 C296 1.415 . S
C295 C294 1.355 . S
C295 C297 1.419 . S
C296 C294 1.415 . S
C296 C301 1.425 . S
C296 C303 1.409 . S
C297 H289 0.930 . S
C297 C295 1.419 . S
C297 C298 1.362 . S
C298 H290 0.930 . S
C298 C297 1.362 . S
C298 C301 1.409 . S
C299 H291 0.930 . S
C299 C300 1.355 . S
C299 C301 1.415 . S
C300 C299 1.355 . S
C300 C302 1.419 . S
C301 C296 1.425 . S
C301 C298 1.409 . S
C301 C299 1.415 . S
C302 H292 0.930 . S
C302 C300 1.419 . S
C302 C303 1.362 . S
C303 H293 0.930 . S
C303 C296 1.409 . S
C303 C302 1.362 . S
C124 C48 1.528 . S
C119 C41 1.509 . S
C135 C8 1.485 . S
C140 C91 1.505 . S
C151 C19 1.500 . S
C156 C57 1.528 . S
C167 C30 1.500 . S
C172 C82 1.515 . S
C188 C44 1.568 . S
C183 C5 1.398 . S
C204 C86 1.646 . S
C199 C18 1.613 . S
C215 C29 1.569 . S
C220 C52 1.561 . S
C231 C40 1.597 . S
C236 C78 1.642 . S
C252 C107 1.402 . S
C247 C16 1.238 . S
C268 C73 1.411 . S
C263 C27 1.317 . S
C284 C95 1.394 . S
C279 C38 1.100 . S
C295 C7 1.368 . S
C300 C61 1.413 . S
