# Generated by pormake.
# Topology pts, (4,4)-cn, num edge types: 1
# Building blocks:
#     Node 0, Type 0, BuildingBlock: MUDLON_clean_sbu_0, # of connection points: 4
#     Node 1, Type 0, BuildingBlock: MUDLON_clean_sbu_0, # of connection points: 4
#     Node 2, Type 1, BuildingBlock: AZAVOO_clean_sbu_0, # of connection points: 4
#     Node 3, Type 1, BuildingBlock: AZAVOO_clean_sbu_0, # of connection points: 4
#     Edge 4, Type (0, 1), BuildingBlock: XUDNAN_clean_linker_2, # of connection points: 2
#     Edge 5, Type (0, 1), BuildingBlock: XUDNAN_clean_linker_2, # of connection points: 2
#     Edge 6, Type (0, 1), BuildingBlock: XUDNAN_clean_linker_2, # of connection points: 2
#     Edge 7, Type (0, 1), BuildingBlock: XUDNAN_clean_linker_2, # of connection points: 2
#     Edge 8, Type (0, 1), BuildingBlock: XUDNAN_clean_linker_2, # of connection points: 2
#     Edge 9, Type (0, 1), BuildingBlock: XUDNAN_clean_linker_2, # of connection points: 2
#     Edge 10, Type (0, 1), BuildingBlock: XUDNAN_clean_linker_2, # of connection points: 2
#     Edge 11, Type (0, 1), BuildingBlock: XUDNAN_clean_linker_2, # of connection points: 2
# Relax obj value: 0.032
# Max RMSD: 0.087
# Mean RMSD: 0.074
data_MOF--net-pts--node1-MUDLON_clean_sbu_0--node2-AZAVOO_clean_sbu_0--edge1-XUDNAN_clean_linker_2
_symmetry_space_group_name_H-M    P1
_symmetry_Int_Tables_number       1
_symmetry_cell_setting            triclinic
loop_
_symmetry_equiv_pos_as_xyz
'x, y, z'
_cell_length_a     22.46914
_cell_length_b     23.640863
_cell_length_c     38.569565
_cell_angle_alpha  89.887762
_cell_angle_beta   97.29446
_cell_angle_gamma 89.786117
loop_
_atom_site_label
_atom_site_type_symbol
_atom_site_fract_x
_atom_site_fract_y
_atom_site_fract_z
_atom_type_partial_charge
Mg0 Mg 0.58256 0.05227 0.03069 0.0
C1 C 0.4641 0.99404 1.00671 0.0
O2 O 0.45634 0.00264 0.03947 0.0
C3 C 0.70098 0.99295 0.05442 0.0
O4 O 0.7079 0.00093 1.02148 0.0
C5 C 0.52788 0.07836 0.09474 0.0
O6 O 0.56216 0.0344 0.10406 0.0
O7 O 0.53047 0.10033 0.06479 0.0
O8 O 0.51483 0.00511 0.997 0.0
O9 O 0.63415 0.09979 0.99614 0.0
C10 C 0.63781 0.07667 0.96668 0.0
O11 O 0.60496 0.0318 0.95809 0.0
O12 O 0.65067 0.0049 0.0645 0.0
Mg13 Mg 0.08524 0.53013 0.52868 0.0
C14 C 0.14163 0.63503 0.5633 0.0
O15 O 0.11531 0.65877 0.53451 0.0
C16 C 0.09354 0.42496 0.49053 0.0
O17 O 0.04183 0.42318 0.50301 0.0
C18 C 0.02032 0.57177 0.4596 0.0
O19 O 0.0246 0.51803 0.45178 0.0
O20 O 0.03534 0.58729 0.49106 0.0
O21 O 0.14335 0.58137 0.56534 0.0
O22 O 0.03829 0.4814 0.56473 0.0
C23 C 0.07782 0.45547 0.58555 0.0
O24 O 0.13456 0.46324 0.58182 0.0
O25 O 0.12751 0.46728 0.4982 0.0
Mg26 Mg 0.15194 0.98618 0.30055 0.0
O27 O 0.06941 0.99096 0.25882 0.0
O28 O 0.98716 0.98387 0.28549 0.0
Mg29 Mg 0.0169 0.97521 0.34438 0.0
C30 C 1.01241 0.98878 0.25779 0.0
C31 C 0.20207 0.05812 0.24021 0.0
O32 O 0.1516 0.08641 0.24005 0.0
O33 O 0.13771 0.07646 0.31917 0.0
O34 O 0.05796 0.06421 0.34753 0.0
O35 O 0.14958 0.89154 0.29608 0.0
O36 O 0.10324 0.94023 0.33352 0.0
C37 C 0.09928 0.09549 0.33798 0.0
C38 C 0.11445 0.89218 0.32023 0.0
O39 O 0.21301 0.01649 0.26104 0.0
Mg40 Mg 0.01707 0.00189 0.75827 0.0
O41 O 0.09886 0.00322 0.8006 0.0
O42 O 0.18197 0.00457 0.77447 0.0
Mg43 Mg 0.15346 0.00554 0.71527 0.0
C44 C 0.15597 0.00343 0.80204 0.0
C45 C 0.96411 0.06417 0.82056 0.0
O46 O 1.01276 0.09479 0.82042 0.0
O47 O 0.02705 0.09531 0.74494 0.0
O48 O 0.10905 0.09304 0.71762 0.0
O49 O 0.02393 0.90697 0.75653 0.0
O50 O 0.06826 0.96482 0.72296 0.0
C51 C 0.06551 0.11988 0.72845 0.0
C52 C 0.05893 0.91397 0.73265 0.0
O53 O 0.9547 0.02333 0.79912 0.0
H54 H 0.50621 0.03083 0.15633 0.0
H55 H 0.43783 0.15775 0.0799 0.0
H56 H 0.34901 0.17126 0.11107 0.0
H57 H 0.36987 0.96574 0.16203 0.0
H58 H 0.38439 0.95057 0.20816 0.0
H59 H 0.44586 0.95649 0.18273 0.0
H60 H 0.49422 0.03408 0.22446 0.0
H61 H 0.43319 0.02794 0.25035 0.0
H62 H 0.45093 0.09575 0.23292 0.0
H63 H 0.2631 0.16421 0.14825 0.0
H64 H 0.18958 0.13876 0.18826 0.0
H65 H 0.31477 0.01448 0.23856 0.0
C66 C 0.47337 0.06249 0.14648 0.0
C67 C 0.47926 0.0935 0.11574 0.0
C68 C 0.43462 0.13386 0.10357 0.0
C69 C 0.38394 0.1417 0.12106 0.0
C70 C 0.37873 0.10898 0.1507 0.0
C71 C 0.42261 0.07047 0.16339 0.0
C72 C 0.40493 0.03764 0.19419 0.0
C73 C 0.40102 0.97385 0.18628 0.0
C74 C 0.4484 0.04959 0.22745 0.0
C75 C 0.34364 0.06279 0.19654 0.0
C76 C 0.32937 0.10425 0.1715 0.0
C77 C 0.27413 0.13216 0.16812 0.0
C78 C 0.23259 0.11731 0.19093 0.0
C79 C 0.2463 0.07458 0.21657 0.0
C80 C 0.30278 0.04734 0.21931 0.0
H81 H 0.15511 0.38758 0.62637 0.0
H82 H 0.96589 0.42913 0.60385 0.0
H83 H 0.94282 0.35519 0.64592 0.0
H84 H 0.13714 0.24304 0.62731 0.0
H85 H 0.19826 0.23009 0.66145 0.0
H86 H 0.19945 0.29134 0.63392 0.0
H87 H 0.21154 0.35578 0.6887 0.0
H88 H 0.21004 0.29453 0.71647 0.0
H89 H 0.15759 0.35165 0.71944 0.0
H90 H 0.94104 0.27033 0.68719 0.0
H91 H 0.95916 0.179 0.71835 0.0
H92 H 0.1495 0.19387 0.71117 0.0
C93 C 0.10877 0.38216 0.63067 0.0
C94 C 0.06229 0.41444 0.61199 0.0
C95 C 1.00225 0.40506 0.61803 0.0
C96 C 0.98884 0.36338 0.642 0.0
C97 C 0.03602 0.33178 0.65965 0.0
C98 C 0.09476 0.3408 0.65406 0.0
C99 C 0.13702 0.29796 0.67317 0.0
C100 C 0.16984 0.26358 0.64743 0.0
C101 C 0.18167 0.32672 0.70111 0.0
C102 C 0.09283 0.26201 0.68966 0.0
C103 C 0.03491 0.28268 0.68233 0.0
C104 C 0.98631 0.25426 0.69337 0.0
C105 C 0.99707 0.20254 0.71122 0.0
C106 C 0.05579 0.17943 0.71719 0.0
C107 C 0.1042 0.21061 0.70716 0.0
H108 H 0.7071 0.99086 0.12618 0.0
H109 H 0.8158 0.97124 0.04153 0.0
H110 H 0.90697 0.96666 0.0844 0.0
H111 H 0.80521 0.08061 0.17783 0.0
H112 H 0.79217 0.05065 0.2192 0.0
H113 H 0.73453 0.0473 0.18232 0.0
H114 H 0.73004 0.9383 0.18838 0.0
H115 H 0.78706 0.94134 0.22565 0.0
H116 H 0.79787 0.89715 0.18892 0.0
H117 H 0.98706 0.97288 0.13593 0.0
H118 H 0.04987 0.98038 0.19301 0.0
H119 H 0.88915 -0.00533 0.24431 0.0
C120 C 0.7499 0.98433 0.11665 0.0
C121 C 0.75415 0.98132 0.08041 0.0
C122 C 0.81123 0.97349 0.06911 0.0
C123 C 0.86339 0.97101 0.09327 0.0
C124 C 0.85779 0.97603 0.12869 0.0
C125 C 0.80246 0.98169 0.14042 0.0
C126 C 0.80905 0.9879 0.17984 0.0
C127 C 0.78374 0.04501 0.1904 0.0
C128 C 0.77925 0.9382 0.19669 0.0
C129 C 0.87675 0.98571 0.18835 0.0
C130 C 0.904 0.97895 0.15847 0.0
C131 C 0.96621 0.97755 0.15957 0.0
C132 C 1.00153 0.98219 0.19215 0.0
C133 C 0.97462 0.98794 0.22329 0.0
C134 C 0.91128 0.99003 0.22111 0.0
H135 H 0.14795 0.75026 0.56882 0.0
H136 H 0.15587 0.59662 0.63098 0.0
H137 H 0.14803 0.65323 0.68381 0.0
H138 H 0.2308 0.84278 0.63947 0.0
H139 H 0.18374 0.90255 0.62542 0.0
H140 H 0.20153 0.8508 0.59399 0.0
H141 H 0.08805 0.83621 0.57438 0.0
H142 H 0.06983 0.88703 0.60599 0.0
H143 H 0.03989 0.81644 0.60637 0.0
H144 H 0.11718 0.72427 0.72687 0.0
H145 H 0.07891 0.80577 0.75794 0.0
H146 H 0.09751 0.91324 0.66877 0.0
C147 C 0.15036 0.72868 0.59375 0.0
C148 C 0.15254 0.66905 0.59569 0.0
C149 C 0.15475 0.6423 0.62878 0.0
C150 C 0.15011 0.67412 0.65901 0.0
C151 C 0.14477 0.73271 0.65588 0.0
C152 C 0.14656 0.75987 0.62422 0.0
C153 C 0.13521 0.82271 0.62722 0.0
C154 C 0.19117 0.85671 0.62118 0.0
C155 C 0.07997 0.84165 0.60201 0.0
C156 C 0.12353 0.82618 0.66494 0.0
C157 C 0.12952 0.77395 0.68118 0.0
C158 C 0.11416 0.76571 0.7148 0.0
C159 C 0.09213 0.81205 0.73217 0.0
C160 C 0.08619 0.86585 0.71596 0.0
C161 C 0.10307 0.87291 0.68218 0.0
H162 H 0.45918 -0.00444 0.93509 0.0
H163 H 0.34922 0.97059 1.01862 0.0
H164 H 0.25867 0.96769 0.97518 0.0
H165 H 0.36142 0.08803 0.88521 0.0
H166 H 0.37534 0.0611 0.84329 0.0
H167 H 0.43246 0.05526 0.88033 0.0
H168 H 0.43769 0.94679 0.87169 0.0
H169 H 0.3812 0.95235 0.83424 0.0
H170 H 0.37004 0.90554 0.86977 0.0
H171 H 0.17924 0.97641 0.92327 0.0
H172 H 0.11732 0.98855 0.86616 0.0
H173 H 0.27912 0.00759 0.81642 0.0
C174 C 0.41627 0.98809 0.94424 0.0
C175 C 0.41144 0.98311 0.98034 0.0
C176 C 0.3542 0.9743 0.99115 0.0
C177 C 0.30241 0.97273 0.96666 0.0
C178 C 0.30857 0.97975 0.93142 0.0
C179 C 0.3641 0.9865 0.92016 0.0
C180 C 0.35815 -0.00447 0.88095 0.0
C181 C 0.38333 0.05342 0.87194 0.0
C182 C 0.38856 0.94716 0.86312 0.0
C183 C 0.29054 0.99375 0.87202 0.0
C184 C 0.26278 0.98454 0.90148 0.0
C185 C 0.20051 0.98302 0.89995 0.0
C186 C 0.1657 0.99027 0.86736 0.0
C187 C 0.19317 -0.00111 0.83664 0.0
C188 C 0.25654 0.00085 0.83926 0.0
H189 H 0.02358 0.33595 0.46752 0.0
H190 H 0.19326 0.41594 0.4554 0.0
H191 H 0.21103 0.34398 0.41097 0.0
H192 H 0.07134 0.1943 0.46069 0.0
H193 H 1.00104 0.17157 0.43721 0.0
H194 H 1.00259 0.2302 0.46695 0.0
H195 H 0.94927 0.29309 0.41711 0.0
H196 H 0.94822 0.23475 0.38708 0.0
H197 H 0.98204 0.30084 0.37707 0.0
H198 H 0.20986 0.25976 0.36848 0.0
H199 H 0.19277 0.17039 0.33533 0.0
H200 H 0.02233 0.1505 0.37578 0.0
C201 C 0.06464 0.33866 0.45564 0.0
C202 C 0.10712 0.38157 0.465 0.0
C203 C 0.16015 0.38329 0.44869 0.0
C204 C 0.17042 0.3428 0.42332 0.0
C205 C 0.12702 0.30132 0.41452 0.0
C206 C 0.07527 0.29917 0.43036 0.0
C207 C 0.03591 0.25011 0.41729 0.0
C208 C 0.02726 0.20913 0.44731 0.0
C209 C 0.97529 0.27097 0.39852 0.0
C210 C 0.07386 0.22405 0.39191 0.0
C211 C 0.12608 0.25413 0.3903 0.0
C212 C 0.1689 0.23619 0.36943 0.0
C213 C 0.15866 0.18549 0.35056 0.0
C214 C 0.10617 0.15327 0.35288 0.0
C215 C 0.06286 0.17396 0.37322 0.0
H216 H 0.66341 0.02553 0.90697 0.0
H217 H 0.72351 0.15989 0.97947 0.0
H218 H 0.81194 0.17473 0.94822 0.0
H219 H 0.80449 0.96587 0.90323 0.0
H220 H 0.79084 0.94738 0.85761 0.0
H221 H 0.72917 0.95188 0.88303 0.0
H222 H 0.6756 0.02454 0.83917 0.0
H223 H 0.7368 0.01978 0.81331 0.0
H224 H 0.71469 0.08761 0.82881 0.0
H225 H 0.898 0.16936 0.91124 0.0
H226 H 0.97225 0.14625 0.87123 0.0
H227 H 0.85546 0.01361 0.82453 0.0
C228 C 0.69436 0.05897 0.91595 0.0
C229 C 0.68624 0.09182 0.9456 0.0
C230 C 0.72847 0.13452 0.95666 0.0
C231 C 0.77891 0.14312 0.93912 0.0
C232 C 0.78635 0.10873 0.91059 0.0
C233 C 0.74489 0.06777 0.89899 0.0
C234 C 0.76459 0.03406 0.86909 0.0
C235 C 0.77276 0.97108 0.87884 0.0
C236 C 0.72029 0.042 0.83561 0.0
C237 C 0.82413 0.06186 0.86587 0.0
C238 C 0.83585 0.10507 0.88984 0.0
C239 C 0.88899 0.13588 0.89222 0.0
C240 C 0.93098 0.12232 0.86943 0.0
C241 C 0.91978 0.07809 0.8447 0.0
C242 C 0.86549 0.04768 0.84306 0.0
H243 H 0.01933 0.6875 0.46581 0.0
H244 H 1.00967 0.55255 0.38915 0.0
H245 H 0.02194 0.62221 0.34305 0.0
H246 H 0.94234 0.79855 0.4051 0.0
H247 H 0.99074 0.85312 0.42521 0.0
H248 H 0.97078 0.79396 0.45088 0.0
H249 H 0.08351 0.77269 0.46943 0.0
H250 H 0.10389 0.83105 0.4435 0.0
H251 H 0.13196 0.7611 0.43625 0.0
H252 H 0.05501 0.70318 0.30792 0.0
H253 H 0.09433 0.79178 0.28518 0.0
H254 H 0.07696 0.87457 0.38363 0.0
C255 C 0.01764 0.67278 0.43914 0.0
C256 C 1.01361 0.61448 0.43118 0.0
C257 C 1.01247 0.59696 0.39597 0.0
C258 C 0.0195 0.63625 0.36952 0.0
C259 C 0.02643 0.69307 0.37855 0.0
C260 C 0.02409 0.71152 0.41237 0.0
C261 C 0.0372 0.77418 0.41576 0.0
C262 C 0.98196 0.80688 0.42476 0.0
C263 C 0.09241 0.78536 0.44282 0.0
C264 C 0.04995 0.78748 0.37901 0.0
C265 C 0.04332 0.74024 0.35785 0.0
C266 C 0.05874 0.74087 0.32391 0.0
C267 C 0.08138 0.79115 0.31128 0.0
C268 C 0.08781 0.84003 0.33249 0.0
C269 C 0.07111 0.83815 0.36656 0.0
loop_
_geom_bond_atom_site_label_1
_geom_bond_atom_site_label_2
_geom_bond_distance
_geom_bond_site_symmetry_2
_ccdc_geom_bond_type
Mg0 O7 2.141 . S
Mg0 O8 2.048 1_554 S
Mg0 O9 2.048 1_554 S
Mg0 O12 2.141 . S
C1 O2 1.313 1_545 S
C1 O8 1.195 . S
O2 C1 1.313 1_565 S
C3 O4 1.245 1_545 S
C3 O12 1.289 . S
O4 C3 1.245 1_565 S
C5 O6 1.245 1_545 S
C5 O7 1.289 . S
O6 C5 1.245 1_565 S
O7 Mg0 2.141 . S
O7 C5 1.289 . S
O8 Mg0 2.048 1_556 S
O8 C1 1.195 . S
O9 Mg0 2.048 1_556 S
O9 C10 1.195 . S
C10 O9 1.195 . S
C10 O11 1.313 1_545 S
O11 C10 1.313 1_565 S
O12 Mg0 2.141 . S
O12 C3 1.289 . S
Mg13 O20 2.141 . S
Mg13 O21 2.048 . S
Mg13 O22 2.048 . S
Mg13 O25 2.141 . S
C14 O15 1.313 . S
C14 O21 1.195 . S
O15 C14 1.313 . S
C16 O17 1.245 . S
C16 O25 1.289 . S
O17 C16 1.245 . S
C18 O19 1.245 . S
C18 O20 1.289 . S
O19 C18 1.245 . S
O20 Mg13 2.141 . S
O20 C18 1.289 . S
O21 Mg13 2.048 . S
O21 C14 1.195 . S
O22 Mg13 2.048 . S
O22 C23 1.195 . S
C23 O22 1.195 . S
C23 O24 1.313 . S
O24 C23 1.313 . S
O25 Mg13 2.141 . S
O25 C16 1.289 . S
Mg26 O27 2.028 . S
Mg26 O33 1.986 . S
Mg26 O35 2.114 1_545 S
Mg26 O36 2.251 1_545 S
Mg26 O39 2.010 . S
O27 Mg26 2.028 . S
O27 C30 1.250 . S
O28 Mg29 2.028 . S
O28 C30 1.248 1_655 S
Mg29 O28 2.028 . S
Mg29 O34 2.032 1_655 S
Mg29 O36 2.079 1_645 S
C30 O27 1.250 . S
C30 O28 1.248 1_455 S
C31 O32 1.264 . S
C31 O39 1.249 . S
O32 C31 1.264 . S
O33 Mg26 1.986 . S
O33 C37 1.246 . S
O34 Mg29 2.032 1_455 S
O34 C37 1.259 . S
O35 Mg26 2.114 1_565 S
O35 C38 1.252 . S
O36 Mg26 2.251 1_565 S
O36 Mg29 2.079 1_465 S
O36 C38 1.273 . S
C37 O33 1.246 . S
C37 O34 1.259 . S
C38 O35 1.252 . S
C38 O36 1.273 . S
O39 Mg26 2.010 . S
O39 C31 1.249 . S
Mg40 O41 2.028 . S
Mg40 O47 1.986 . S
Mg40 O49 2.114 1_545 S
Mg40 O50 2.251 1_545 S
Mg40 O53 2.010 1_455 S
O41 Mg40 2.028 . S
O41 C44 1.250 . S
O42 Mg43 2.028 . S
O42 C44 1.248 . S
Mg43 O42 2.028 . S
Mg43 O48 2.032 . S
Mg43 O50 2.079 1_545 S
C44 O41 1.250 . S
C44 O42 1.248 . S
C45 O46 1.264 . S
C45 O53 1.249 . S
O46 C45 1.264 . S
O47 Mg40 1.986 . S
O47 C51 1.246 . S
O48 Mg43 2.032 . S
O48 C51 1.259 . S
O49 Mg40 2.114 1_565 S
O49 C52 1.252 . S
O50 Mg40 2.251 1_565 S
O50 Mg43 2.079 1_565 S
O50 C52 1.273 . S
C51 O47 1.246 . S
C51 O48 1.259 . S
C52 O49 1.252 . S
C52 O50 1.273 . S
O53 Mg40 2.010 1_655 S
O53 C45 1.249 . S
H54 C66 0.930 . S
H55 C68 0.930 . S
H56 C69 0.930 . S
H57 C73 0.959 . S
H58 C73 0.959 . S
H59 C73 0.961 . S
H60 C74 0.960 . S
H61 C74 0.961 . S
H62 C74 0.959 . S
H63 C77 0.929 . S
H64 C78 0.931 . S
H65 C80 0.930 . S
C66 H54 0.930 . S
C66 C67 1.399 . S
C66 C71 1.399 . S
C67 C66 1.399 . S
C67 C68 1.376 1_545 S
C68 H55 0.930 . S
C68 C67 1.376 1_565 S
C68 C69 1.388 . S
C69 H56 0.930 . S
C69 C68 1.388 . S
C69 C70 1.390 . S
C70 C69 1.390 . S
C70 C71 1.394 1_565 S
C70 C76 1.465 . S
C71 C66 1.399 . S
C71 C70 1.394 1_545 S
C71 C72 1.516 . S
C72 C71 1.516 . S
C72 C73 1.502 . S
C72 C74 1.561 . S
C72 C75 1.526 . S
C73 H57 0.959 . S
C73 H58 0.959 . S
C73 H59 0.961 . S
C73 C72 1.502 . S
C74 H60 0.960 . S
C74 H61 0.961 . S
C74 H62 0.959 . S
C74 C72 1.561 . S
C75 C72 1.526 . S
C75 C76 1.396 1_545 S
C75 C80 1.390 . S
C76 C70 1.465 . S
C76 C75 1.396 1_565 S
C76 C77 1.399 . S
C77 H63 0.929 . S
C77 C76 1.399 . S
C77 C78 1.385 . S
C78 H64 0.931 . S
C78 C77 1.385 . S
C78 C79 1.389 1_565 S
C79 C78 1.389 1_545 S
C79 C80 1.387 . S
C80 H65 0.930 . S
C80 C75 1.390 . S
C80 C79 1.387 . S
H81 C93 0.930 . S
H82 C95 0.930 . S
H83 C96 0.930 . S
H84 C100 0.959 . S
H85 C100 0.959 . S
H86 C100 0.961 . S
H87 C101 0.960 . S
H88 C101 0.961 . S
H89 C101 0.959 . S
H90 C104 0.929 . S
H91 C105 0.931 . S
H92 C107 0.930 . S
C93 H81 0.930 . S
C93 C94 1.399 . S
C93 C98 1.399 . S
C94 C93 1.399 . S
C94 C95 1.376 1_455 S
C95 H82 0.930 . S
C95 C94 1.376 1_655 S
C95 C96 1.388 . S
C96 H83 0.930 . S
C96 C95 1.388 . S
C96 C97 1.390 1_655 S
C97 C96 1.390 1_455 S
C97 C98 1.394 . S
C97 C103 1.465 . S
C98 C93 1.399 . S
C98 C97 1.394 . S
C98 C99 1.516 . S
C99 C98 1.516 . S
C99 C100 1.502 . S
C99 C101 1.561 . S
C99 C102 1.526 . S
C100 H84 0.959 . S
C100 H85 0.959 . S
C100 H86 0.961 . S
C100 C99 1.502 . S
C101 H87 0.960 . S
C101 H88 0.961 . S
C101 H89 0.959 . S
C101 C99 1.561 . S
C102 C99 1.526 . S
C102 C103 1.396 . S
C102 C107 1.390 . S
C103 C97 1.465 . S
C103 C102 1.396 . S
C103 C104 1.399 1_455 S
C104 H90 0.929 . S
C104 C103 1.399 1_655 S
C104 C105 1.385 . S
C105 H91 0.931 . S
C105 C104 1.385 . S
C105 C106 1.389 1_655 S
C106 C105 1.389 1_455 S
C106 C107 1.387 . S
C107 H92 0.930 . S
C107 C102 1.390 . S
C107 C106 1.387 . S
H108 C120 0.930 . S
H109 C122 0.930 . S
H110 C123 0.930 . S
H111 C127 0.959 . S
H112 C127 0.959 . S
H113 C127 0.961 . S
H114 C128 0.960 . S
H115 C128 0.961 . S
H116 C128 0.959 . S
H117 C131 0.929 . S
H118 C132 0.931 . S
H119 C134 0.930 . S
C120 H108 0.930 . S
C120 C121 1.399 . S
C120 C125 1.399 . S
C121 C120 1.399 . S
C121 C122 1.376 1_545 S
C122 H109 0.930 . S
C122 C121 1.376 1_565 S
C122 C123 1.388 . S
C123 H110 0.930 . S
C123 C122 1.388 . S
C123 C124 1.390 . S
C124 C123 1.390 . S
C124 C125 1.394 1_565 S
C124 C130 1.465 . S
C125 C120 1.399 . S
C125 C124 1.394 1_545 S
C125 C126 1.516 . S
C126 C125 1.516 . S
C126 C127 1.502 . S
C126 C128 1.561 . S
C126 C129 1.526 . S
C127 H111 0.959 . S
C127 H112 0.959 . S
C127 H113 0.961 . S
C127 C126 1.502 . S
C128 H114 0.960 . S
C128 H115 0.961 . S
C128 H116 0.959 . S
C128 C126 1.561 . S
C129 C126 1.526 . S
C129 C130 1.396 1_545 S
C129 C134 1.390 . S
C130 C124 1.465 . S
C130 C129 1.396 1_565 S
C130 C131 1.399 . S
C131 H117 0.929 . S
C131 C130 1.399 . S
C131 C132 1.385 . S
C132 H118 0.931 . S
C132 C131 1.385 . S
C132 C133 1.389 1_565 S
C133 C132 1.389 1_545 S
C133 C134 1.387 . S
C134 H119 0.930 . S
C134 C129 1.390 . S
C134 C133 1.387 . S
H135 C147 0.930 . S
H136 C149 0.930 . S
H137 C150 0.930 . S
H138 C154 0.959 . S
H139 C154 0.959 . S
H140 C154 0.961 . S
H141 C155 0.960 . S
H142 C155 0.961 . S
H143 C155 0.959 . S
H144 C158 0.929 . S
H145 C159 0.931 . S
H146 C161 0.930 . S
C147 H135 0.930 . S
C147 C148 1.399 . S
C147 C152 1.399 . S
C148 C147 1.399 . S
C148 C149 1.376 . S
C149 H136 0.930 . S
C149 C148 1.376 . S
C149 C150 1.388 . S
C150 H137 0.930 . S
C150 C149 1.388 . S
C150 C151 1.390 . S
C151 C150 1.390 . S
C151 C152 1.394 . S
C151 C157 1.465 . S
C152 C147 1.399 . S
C152 C151 1.394 . S
C152 C153 1.516 . S
C153 C152 1.516 . S
C153 C154 1.502 . S
C153 C155 1.561 1_455 S
C153 C156 1.526 . S
C154 H138 0.959 . S
C154 H139 0.959 . S
C154 H140 0.961 . S
C154 C153 1.502 . S
C155 H141 0.960 . S
C155 H142 0.961 . S
C155 H143 0.959 . S
C155 C153 1.561 1_655 S
C156 C153 1.526 . S
C156 C157 1.396 . S
C156 C161 1.390 . S
C157 C151 1.465 . S
C157 C156 1.396 . S
C157 C158 1.399 . S
C158 H144 0.929 . S
C158 C157 1.399 . S
C158 C159 1.385 . S
C159 H145 0.931 . S
C159 C158 1.385 . S
C159 C160 1.389 . S
C160 C159 1.389 . S
C160 C161 1.387 . S
C161 H146 0.930 . S
C161 C156 1.390 . S
C161 C160 1.387 . S
H162 C174 0.930 . S
H163 C176 0.930 . S
H164 C177 0.930 . S
H165 C181 0.959 . S
H166 C181 0.959 . S
H167 C181 0.961 . S
H168 C182 0.960 . S
H169 C182 0.961 . S
H170 C182 0.959 . S
H171 C185 0.929 . S
H172 C186 0.931 . S
H173 C188 0.930 . S
C174 H162 0.930 . S
C174 C175 1.399 . S
C174 C179 1.399 . S
C175 C174 1.399 . S
C175 C176 1.376 1_545 S
C176 H163 0.930 . S
C176 C175 1.376 1_565 S
C176 C177 1.388 . S
C177 H164 0.930 . S
C177 C176 1.388 . S
C177 C178 1.390 . S
C178 C177 1.390 . S
C178 C179 1.394 1_565 S
C178 C184 1.465 . S
C179 C174 1.399 . S
C179 C178 1.394 1_545 S
C179 C180 1.516 . S
C180 C179 1.516 . S
C180 C181 1.502 . S
C180 C182 1.561 . S
C180 C183 1.526 . S
C181 H165 0.959 . S
C181 H166 0.959 . S
C181 H167 0.961 . S
C181 C180 1.502 . S
C182 H168 0.960 . S
C182 H169 0.961 . S
C182 H170 0.959 . S
C182 C180 1.561 . S
C183 C180 1.526 . S
C183 C184 1.396 1_545 S
C183 C188 1.390 . S
C184 C178 1.465 . S
C184 C183 1.396 1_565 S
C184 C185 1.399 . S
C185 H171 0.929 . S
C185 C184 1.399 . S
C185 C186 1.385 . S
C186 H172 0.931 . S
C186 C185 1.385 . S
C186 C187 1.389 1_565 S
C187 C186 1.389 1_545 S
C187 C188 1.387 . S
C188 H173 0.930 . S
C188 C183 1.390 . S
C188 C187 1.387 . S
H189 C201 0.930 . S
H190 C203 0.930 . S
H191 C204 0.930 . S
H192 C208 0.959 . S
H193 C208 0.959 . S
H194 C208 0.961 . S
H195 C209 0.960 . S
H196 C209 0.961 . S
H197 C209 0.959 . S
H198 C212 0.929 . S
H199 C213 0.931 . S
H200 C215 0.930 . S
C201 H189 0.930 . S
C201 C202 1.399 . S
C201 C206 1.399 . S
C202 C201 1.399 . S
C202 C203 1.376 . S
C203 H190 0.930 . S
C203 C202 1.376 . S
C203 C204 1.388 . S
C204 H191 0.930 . S
C204 C203 1.388 . S
C204 C205 1.390 . S
C205 C204 1.390 . S
C205 C206 1.394 . S
C205 C211 1.465 . S
C206 C201 1.399 . S
C206 C205 1.394 . S
C206 C207 1.516 . S
C207 C206 1.516 . S
C207 C208 1.502 . S
C207 C209 1.561 . S
C207 C210 1.526 . S
C208 H192 0.959 . S
C208 H193 0.959 . S
C208 H194 0.961 . S
C208 C207 1.502 . S
C209 H195 0.960 . S
C209 H196 0.961 . S
C209 H197 0.959 . S
C209 C207 1.561 . S
C210 C207 1.526 . S
C210 C211 1.396 . S
C210 C215 1.390 . S
C211 C205 1.465 . S
C211 C210 1.396 . S
C211 C212 1.399 . S
C212 H198 0.929 . S
C212 C211 1.399 . S
C212 C213 1.385 . S
C213 H199 0.931 . S
C213 C212 1.385 . S
C213 C214 1.389 . S
C214 C213 1.389 . S
C214 C215 1.387 . S
C215 H200 0.930 . S
C215 C210 1.390 . S
C215 C214 1.387 . S
H216 C228 0.930 . S
H217 C230 0.930 . S
H218 C231 0.930 . S
H219 C235 0.959 . S
H220 C235 0.959 . S
H221 C235 0.961 . S
H222 C236 0.960 . S
H223 C236 0.961 . S
H224 C236 0.959 . S
H225 C239 0.929 . S
H226 C240 0.931 . S
H227 C242 0.930 . S
C228 H216 0.930 . S
C228 C229 1.399 . S
C228 C233 1.399 . S
C229 C228 1.399 . S
C229 C230 1.376 1_545 S
C230 H217 0.930 . S
C230 C229 1.376 1_565 S
C230 C231 1.388 . S
C231 H218 0.930 . S
C231 C230 1.388 . S
C231 C232 1.390 . S
C232 C231 1.390 . S
C232 C233 1.394 1_565 S
C232 C238 1.465 . S
C233 C228 1.399 . S
C233 C232 1.394 1_545 S
C233 C234 1.516 . S
C234 C233 1.516 . S
C234 C235 1.502 . S
C234 C236 1.561 . S
C234 C237 1.526 . S
C235 H219 0.959 . S
C235 H220 0.959 . S
C235 H221 0.961 . S
C235 C234 1.502 . S
C236 H222 0.960 . S
C236 H223 0.961 . S
C236 H224 0.959 . S
C236 C234 1.561 . S
C237 C234 1.526 . S
C237 C238 1.396 1_545 S
C237 C242 1.390 . S
C238 C232 1.465 . S
C238 C237 1.396 1_565 S
C238 C239 1.399 . S
C239 H225 0.929 . S
C239 C238 1.399 . S
C239 C240 1.385 . S
C240 H226 0.931 . S
C240 C239 1.385 . S
C240 C241 1.389 1_565 S
C241 C240 1.389 1_545 S
C241 C242 1.387 . S
C242 H227 0.930 . S
C242 C237 1.390 . S
C242 C241 1.387 . S
H243 C255 0.930 . S
H244 C257 0.930 . S
H245 C258 0.930 . S
H246 C262 0.959 . S
H247 C262 0.959 . S
H248 C262 0.961 . S
H249 C263 0.960 . S
H250 C263 0.961 . S
H251 C263 0.959 . S
H252 C266 0.929 . S
H253 C267 0.931 . S
H254 C269 0.930 . S
C255 H243 0.930 . S
C255 C256 1.399 . S
C255 C260 1.399 . S
C256 C255 1.399 . S
C256 C257 1.376 . S
C257 H244 0.930 . S
C257 C256 1.376 . S
C257 C258 1.388 . S
C258 H245 0.930 . S
C258 C257 1.388 . S
C258 C259 1.390 . S
C259 C258 1.390 . S
C259 C260 1.394 . S
C259 C265 1.465 . S
C260 C255 1.399 . S
C260 C259 1.394 . S
C260 C261 1.516 . S
C261 C260 1.516 . S
C261 C262 1.502 1_455 S
C261 C263 1.561 . S
C261 C264 1.526 . S
C262 H246 0.959 . S
C262 H247 0.959 . S
C262 H248 0.961 . S
C262 C261 1.502 1_655 S
C263 H249 0.960 . S
C263 H250 0.961 . S
C263 H251 0.959 . S
C263 C261 1.561 . S
C264 C261 1.526 . S
C264 C265 1.396 . S
C264 C269 1.390 . S
C265 C259 1.465 . S
C265 C264 1.396 . S
C265 C266 1.399 . S
C266 H252 0.929 . S
C266 C265 1.399 . S
C266 C267 1.385 . S
C267 H253 0.931 . S
C267 C266 1.385 . S
C267 C268 1.389 . S
C268 C267 1.389 . S
C268 C269 1.387 . S
C269 H254 0.930 . S
C269 C264 1.390 . S
C269 C268 1.387 . S
C79 C31 1.239 . S
C67 C5 1.385 . S
C106 C51 1.453 . S
C94 C23 1.479 . S
C133 C30 1.400 1_655 S
C121 C3 1.400 . S
C160 C52 1.496 . S
C148 C14 1.492 . S
C187 C44 1.473 . S
C175 C1 1.476 . S
C214 C37 1.349 . S
C202 C16 1.388 . S
C241 C45 1.310 . S
C229 C10 1.457 . S
C256 C18 1.398 . S
C268 C38 1.427 . S
