# Generated by pormake.
# Topology zzz, (3,6)-cn, num edge types: 1
# Building blocks:
#     Node 0, Type 0, BuildingBlock: OLANEW_clean_sbu_2, # of connection points: 3
#     Node 1, Type 0, BuildingBlock: OLANEW_clean_sbu_2, # of connection points: 3
#     Node 2, Type 0, BuildingBlock: OLANEW_clean_sbu_2, # of connection points: 3
#     Node 3, Type 0, BuildingBlock: OLANEW_clean_sbu_2, # of connection points: 3
#     Node 4, Type 0, BuildingBlock: OLANEW_clean_sbu_2, # of connection points: 3
#     Node 5, Type 0, BuildingBlock: OLANEW_clean_sbu_2, # of connection points: 3
#     Node 6, Type 0, BuildingBlock: OLANEW_clean_sbu_2, # of connection points: 3
#     Node 7, Type 0, BuildingBlock: OLANEW_clean_sbu_2, # of connection points: 3
#     Node 8, Type 1, BuildingBlock: CUWYAW_clean_sbu_0, # of connection points: 6
#     Node 9, Type 1, BuildingBlock: CUWYAW_clean_sbu_0, # of connection points: 6
#     Node 10, Type 1, BuildingBlock: CUWYAW_clean_sbu_0, # of connection points: 6
#     Node 11, Type 1, BuildingBlock: CUWYAW_clean_sbu_0, # of connection points: 6
#     Edge 12, Type (0, 1), BuildingBlock: CIFDUS_clean_linker_0, # of connection points: 2
#     Edge 13, Type (0, 1), BuildingBlock: CIFDUS_clean_linker_0, # of connection points: 2
#     Edge 14, Type (0, 1), BuildingBlock: CIFDUS_clean_linker_0, # of connection points: 2
#     Edge 15, Type (0, 1), BuildingBlock: CIFDUS_clean_linker_0, # of connection points: 2
#     Edge 16, Type (0, 1), BuildingBlock: CIFDUS_clean_linker_0, # of connection points: 2
#     Edge 17, Type (0, 1), BuildingBlock: CIFDUS_clean_linker_0, # of connection points: 2
#     Edge 18, Type (0, 1), BuildingBlock: CIFDUS_clean_linker_0, # of connection points: 2
#     Edge 19, Type (0, 1), BuildingBlock: CIFDUS_clean_linker_0, # of connection points: 2
#     Edge 20, Type (0, 1), BuildingBlock: CIFDUS_clean_linker_0, # of connection points: 2
#     Edge 21, Type (0, 1), BuildingBlock: CIFDUS_clean_linker_0, # of connection points: 2
#     Edge 22, Type (0, 1), BuildingBlock: CIFDUS_clean_linker_0, # of connection points: 2
#     Edge 23, Type (0, 1), BuildingBlock: CIFDUS_clean_linker_0, # of connection points: 2
#     Edge 24, Type (0, 1), BuildingBlock: CIFDUS_clean_linker_0, # of connection points: 2
#     Edge 25, Type (0, 1), BuildingBlock: CIFDUS_clean_linker_0, # of connection points: 2
#     Edge 26, Type (0, 1), BuildingBlock: CIFDUS_clean_linker_0, # of connection points: 2
#     Edge 27, Type (0, 1), BuildingBlock: CIFDUS_clean_linker_0, # of connection points: 2
#     Edge 28, Type (0, 1), BuildingBlock: CIFDUS_clean_linker_0, # of connection points: 2
#     Edge 29, Type (0, 1), BuildingBlock: CIFDUS_clean_linker_0, # of connection points: 2
#     Edge 30, Type (0, 1), BuildingBlock: CIFDUS_clean_linker_0, # of connection points: 2
#     Edge 31, Type (0, 1), BuildingBlock: CIFDUS_clean_linker_0, # of connection points: 2
#     Edge 32, Type (0, 1), BuildingBlock: CIFDUS_clean_linker_0, # of connection points: 2
#     Edge 33, Type (0, 1), BuildingBlock: CIFDUS_clean_linker_0, # of connection points: 2
#     Edge 34, Type (0, 1), BuildingBlock: CIFDUS_clean_linker_0, # of connection points: 2
#     Edge 35, Type (0, 1), BuildingBlock: CIFDUS_clean_linker_0, # of connection points: 2
# Relax obj value: 0.254
# Max RMSD: 0.172
# Mean RMSD: 0.147
data_MOF--net-zzz--node1-OLANEW_clean_sbu_2--node2-CUWYAW_clean_sbu_0--edge1-CIFDUS_clean_linker_0
_symmetry_space_group_name_H-M    P1
_symmetry_Int_Tables_number       1
_symmetry_cell_setting            triclinic
loop_
_symmetry_equiv_pos_as_xyz
'x, y, z'
_cell_length_a     49.583586
_cell_length_b     49.548992
_cell_length_c     14.212386
_cell_angle_alpha  89.65426
_cell_angle_beta   89.862972
_cell_angle_gamma 89.979907
loop_
_atom_site_label
_atom_site_type_symbol
_atom_site_fract_x
_atom_site_fract_y
_atom_site_fract_z
_atom_type_partial_charge
O0 O 0.72282 0.4234 0.25309 0.0
Cd1 Cd 0.67809 0.41024 0.30892 0.0
O2 O 0.72558 0.44356 0.38897 0.0
Cd3 Cd 0.74481 0.46778 0.49712 0.0
O4 O 0.77769 0.48225 0.58352 0.0
C5 C 0.79506 0.49711 0.54286 0.0
O6 O 0.79086 0.50463 0.45528 0.0
C7 C 0.73645 0.43723 0.31088 0.0
C8 C 0.63822 0.42062 0.17646 0.0
O9 O 0.64558 0.43884 0.23467 0.0
O10 O 0.64978 0.3975 0.18104 0.0
O11 O 0.87014 0.73267 0.14288 0.0
Cd12 Cd 0.85807 0.68659 0.18802 0.0
O13 O 0.90353 0.73096 0.24394 0.0
Cd14 Cd 0.93572 0.75203 0.31877 0.0
O15 O 0.95638 0.78942 0.35509 0.0
C16 C 0.95551 0.79756 0.43952 0.0
O17 O 0.94359 0.78236 0.50328 0.0
C18 C 0.89049 0.7437 0.18068 0.0
C19 C 0.88684 0.65041 0.07694 0.0
O20 O 0.86407 0.65997 0.05016 0.0
O21 O 0.89584 0.65757 0.15747 0.0
O22 O 0.76519 0.89407 0.12152 0.0
Cd23 Cd 0.81066 0.87857 0.16067 0.0
O24 O 0.76368 0.91603 0.25502 0.0
Cd25 Cd 0.74051 0.93849 0.35921 0.0
O26 O 0.7041 0.95444 0.42418 0.0
C27 C 0.69939 0.95076 0.51113 0.0
O28 O 0.7174 0.93815 0.56288 0.0
C29 C 0.75261 0.90943 0.17785 0.0
C30 C 0.84883 0.90939 0.06403 0.0
O31 O 0.83889 0.88795 0.02789 0.0
O32 O 0.84103 0.91602 0.14678 0.0
O33 O 0.57577 0.77156 0.18281 0.0
Cd34 Cd 0.59576 0.81624 0.20189 0.0
O35 O 0.57327 0.76825 0.33621 0.0
Cd36 Cd 0.56684 0.74631 0.46768 0.0
O37 O 0.55807 0.71265 0.56137 0.0
C38 C 0.56435 0.68968 0.52886 0.0
O39 O 0.57648 0.68841 0.44669 0.0
C40 C 0.56916 0.75805 0.25551 0.0
C41 C 0.56769 0.85494 0.09827 0.0
O42 O 0.5873 0.84174 0.06179 0.0
O43 O 0.56147 0.84995 0.18423 0.0
O44 O 0.27929 0.54715 0.15758 0.0
Cd45 Cd 0.3256 0.53922 0.10689 0.0
O46 O 0.27416 0.50343 0.17932 0.0
Cd47 Cd 0.24474 0.47128 0.20464 0.0
O48 O 0.20155 0.46948 0.17566 0.0
C49 C 0.19564 0.48059 0.09759 0.0
O50 O 0.21534 0.4897 0.04413 0.0
C51 C 0.26476 0.5273 0.18304 0.0
C52 C 0.35756 0.52861 0.26361 0.0
O53 O 0.354 0.5528 0.23366 0.0
O54 O 0.34632 0.50936 0.2184 0.0
O55 O 0.08994 0.26945 0.32874 0.0
Cd56 Cd 0.1053 0.31505 0.28979 0.0
O57 O 0.07766 0.26122 0.18337 0.0
Cd58 Cd 0.05825 0.23645 0.07593 0.0
O59 O 0.0415 0.20157 0.00359 0.0
C60 C 0.04661 0.19629 0.91797 0.0
O61 O 0.06196 0.21286 0.86913 0.0
C62 C 0.08008 0.25341 0.26845 0.0
C63 C 0.08564 0.35231 0.41957 0.0
O64 O 0.07321 0.348 0.34212 0.0
O65 O 0.10744 0.33914 0.43527 0.0
O66 O 0.21797 0.0879 0.28814 0.0
Cd67 Cd 0.17381 0.10814 0.25816 0.0
O68 O 0.23959 0.11636 0.1954 0.0
Cd69 Cd 0.27772 0.12613 0.12548 0.0
O70 O 0.31818 0.11317 0.08499 0.0
C71 C 0.3196 0.09099 0.04086 0.0
O72 O 0.29717 0.07825 0.02012 0.0
C73 C 0.23985 0.09635 0.25186 0.0
C74 C 0.13493 0.07963 0.36029 0.0
O75 O 0.14092 0.07303 0.27572 0.0
O76 O 0.14688 0.10012 0.39568 0.0
O77 O 0.51254 0.22595 0.13653 0.0
Cd78 Cd 0.50782 0.17914 0.08686 0.0
O79 O 0.4686 0.22983 0.15533 0.0
Cd80 Cd 0.43545 0.25824 0.17983 0.0
O81 O 0.42984 0.30182 0.16465 0.0
C82 C 0.42707 0.31026 0.08073 0.0
O83 O 0.42507 0.29242 0.01304 0.0
C84 C 0.49215 0.23994 0.15975 0.0
C85 C 0.50383 0.14498 0.24276 0.0
O86 O 0.52686 0.15155 0.20854 0.0
O87 O 0.48266 0.15441 0.20269 0.0
C88 C 0.99524 0.02803 0.45279 0.0
Eu89 Eu 0.99008 0.00457 0.61625 0.0
C90 C 0.00883 0.0526 0.41926 0.0
C91 C 0.0253 0.06745 0.48004 0.0
C92 C 0.03723 0.09148 0.4495 0.0
C93 C 0.03277 0.10116 0.35758 0.0
C94 C 0.01671 0.08586 0.2962 0.0
C95 C 0.00481 0.06177 0.32696 0.0
C96 C 0.94432 0.98817 0.70346 0.0
C97 C 0.99539 0.04868 0.78788 0.0
C98 C 0.99289 0.96192 0.98687 0.0
Eu99 Eu 0.99699 0.98611 0.82474 0.0
C100 C 0.98067 0.93626 0.01661 0.0
C101 C 0.98977 0.92319 0.09816 0.0
C102 C 0.97967 0.89777 0.12267 0.0
C103 C 0.9601 0.88521 0.06635 0.0
C104 C 0.95053 0.89869 0.98592 0.0
C105 C 0.96098 0.92387 0.96071 0.0
C106 C 0.0425 0.00282 0.73556 0.0
C107 C 0.99018 0.94155 0.65667 0.0
O108 O 0.0111 0.00864 0.48229 0.0
O109 O 0.97452 0.03185 0.50849 0.0
O110 O 0.94869 0.98523 0.61398 0.0
O111 O 0.96314 0.00157 0.73994 0.0
O112 O -0.00035 0.04298 0.69795 0.0
O113 O 0.98953 0.02982 0.85056 0.0
O114 O 0.97607 0.98061 0.9582 0.0
O115 O 0.01411 0.95977 0.93244 0.0
O116 O 0.03808 0.00644 0.82474 0.0
O117 O 0.02376 0.98898 0.70082 0.0
O118 O 0.98699 0.94787 0.74627 0.0
O119 O 0.9953 0.96001 0.59137 0.0
H120 H 0.02877 0.06057 0.55137 0.0
H121 H 0.04984 0.10255 0.49801 0.0
H122 H 0.0127 0.09289 0.22529 0.0
H123 H 0.99211 0.05053 0.27919 0.0
H124 H 0.0051 0.93238 0.14171 0.0
H125 H 0.98733 0.88777 0.18508 0.0
H126 H 0.93576 0.8893 0.94058 0.0
H127 H 0.95419 0.93335 0.89627 0.0
C128 C 0.45827 0.00315 0.47576 0.0
Eu129 Eu 0.48533 0.00037 0.63188 0.0
C130 C 0.43439 0.01795 0.44315 0.0
C131 C 0.42115 0.00988 0.36101 0.0
C132 C 0.39776 0.02323 0.33156 0.0
C133 C 0.38747 0.04498 0.38362 0.0
C134 C 0.40101 0.05317 0.46538 0.0
C135 C 0.42417 0.03962 0.49531 0.0
C136 C 0.49935 0.95548 0.72929 0.0
C137 C 0.44864 0.02157 0.8086 0.0
C138 C 0.53226 0.00629 0.99459 0.0
Eu139 Eu 0.5127 0.01038 0.82546 0.0
C140 C 0.55907 0.99908 0.03282 0.0
C141 C 0.58174 0.0156 0.01756 0.0
C142 C 0.60732 0.00709 0.04652 0.0
C143 C 0.61079 0.98183 0.09054 0.0
C144 C 0.58803 0.96565 0.10781 0.0
C145 C 0.56244 0.97427 0.07977 0.0
C146 C 0.5163 0.05103 0.69799 0.0
C147 C 0.54936 0.99395 0.64919 0.0
O148 O 0.47976 0.0178 0.49245 0.0
O149 O 0.4538 0.98482 0.54082 0.0
O150 O 0.50043 0.95723 0.63828 0.0
O151 O 0.48969 0.97684 0.76325 0.0
O152 O 0.44965 0.01328 0.72026 0.0
O153 O 0.47025 0.0229 0.86286 0.0
O154 O 0.51968 0.98668 0.95201 0.0
O155 O 0.5298 0.02944 0.95018 0.0
O156 O 0.53571 0.0449 0.7557 0.0
O157 O 0.49607 0.03635 0.71327 0.0
O158 O 0.54586 0.99092 0.74099 0.0
O159 O 0.52959 0.00213 0.59326 0.0
H160 H 0.42875 0.9931 0.3202 0.0
H161 H 0.38775 0.01663 0.26807 0.0
H162 H 0.3933 0.06963 0.50746 0.0
H163 H 0.43391 0.04584 0.55972 0.0
H164 H 0.57988 0.03478 0.98125 0.0
H165 H 0.62453 0.01989 0.03168 0.0
H166 H 0.59005 0.94623 0.14257 0.0
H167 H 0.5453 0.96119 0.09276 0.0
C168 C 0.49309 0.4659 0.5061 0.0
Eu169 Eu 0.4911 0.48395 0.67774 0.0
C170 C 0.49045 0.43937 0.46002 0.0
C171 C 0.51339 0.42674 0.42229 0.0
C172 C 0.51167 0.40078 0.38492 0.0
C173 C 0.48691 0.38699 0.38393 0.0
C174 C 0.46372 0.40017 0.41771 0.0
C175 C 0.46547 0.42605 0.45552 0.0
C176 C 0.52846 0.47355 0.81059 0.0
C177 C 0.46108 0.45149 0.84088 0.0
C178 C 0.48529 0.53398 0.03367 0.0
Eu179 Eu 0.48324 0.51362 0.86555 0.0
C180 C 0.49813 0.55877 0.07055 0.0
C181 C 0.48208 0.57966 0.10679 0.0
C182 C 0.49358 0.60449 0.13081 0.0
C183 C 0.52143 0.60893 0.11923 0.0
C184 C 0.53762 0.58754 0.08721 0.0
C185 C 0.52613 0.5628 0.06296 0.0
C186 C 0.44562 0.52361 0.73201 0.0
C187 C 0.51174 0.54574 0.69951 0.0
O188 O 0.47133 0.4762 0.54398 0.0
O189 O 0.51447 0.46924 0.55856 0.0
O190 O 0.51936 0.45545 0.75323 0.0
O191 O 0.51848 0.4964 0.79273 0.0
O192 O 0.46464 0.45361 0.74898 0.0
O193 O 0.46866 0.47077 0.89985 0.0
O194 O 0.50141 0.51473 0.00499 0.0
O195 O 0.46493 0.53779 0.97666 0.0
O196 O 0.4543 0.54183 0.78963 0.0
O197 O 0.45606 0.50112 0.75091 0.0
O198 O 0.51068 0.54308 0.79192 0.0
O199 O 0.5019 0.52718 0.64284 0.0
H200 H 0.53285 0.43667 0.42393 0.0
H201 H 0.52993 0.39117 0.35993 0.0
H202 H 0.44423 0.39032 0.41602 0.0
H203 H 0.4473 0.43535 0.48272 0.0
H204 H 0.46045 0.5771 0.11342 0.0
H205 H 0.48047 0.62055 0.15469 0.0
H206 H 0.5592 0.59006 0.07925 0.0
H207 H 0.53918 0.54714 0.03585 0.0
C208 C 0.03743 0.53246 0.51988 0.0
Eu209 Eu 0.01195 0.52147 0.67608 0.0
C210 C 0.0654 0.53176 0.48571 0.0
C211 C 0.08699 0.53469 0.54831 0.0
C212 C 0.11352 0.53293 0.51592 0.0
C213 C 0.11892 0.52841 0.42011 0.0
C214 C 0.09723 0.52596 0.35721 0.0
C215 C 0.07065 0.5275 0.38996 0.0
C216 C 0.98999 0.55706 0.79689 0.0
C217 C 0.05363 0.50686 0.8487 0.0
C218 C 0.96396 0.48631 0.01627 0.0
Eu219 Eu 0.99071 0.4973 0.86254 0.0
C220 C 0.93556 0.48362 0.04546 0.0
C221 C 0.92878 0.4649 0.11583 0.0
C222 C 0.90187 0.46104 0.14206 0.0
C223 C 0.88112 0.47588 0.09836 0.0
C224 C 0.88807 0.4949 0.02829 0.0
C225 C 0.91505 0.49873 0.00205 0.0
C226 C 0.011 0.46162 0.73765 0.0
C227 C 0.94916 0.51055 0.68828 0.0
O228 O 0.02641 0.50899 0.53794 0.0
O229 O 0.03191 0.5505 0.58407 0.0
O230 O 0.98766 0.55892 0.70617 0.0
O231 O 0.00506 0.53756 0.8194 0.0
O232 O 0.04985 0.51019 0.75704 0.0
O233 O 0.03325 0.50508 0.90847 0.0
O234 O 0.97239 0.51056 0.99391 0.0
O235 O 0.97293 0.46782 0.95886 0.0
O236 O 0.01414 0.4592 0.82801 0.0
O237 O 0.99641 0.48166 0.71852 0.0
O238 O 0.9525 0.50679 0.77992 0.0
O239 O 0.96975 0.51326 0.63001 0.0
H240 H 0.0833 0.53831 0.62224 0.0
H241 H 0.12984 0.53524 0.56579 0.0
H242 H 0.10082 0.52228 0.28318 0.0
H243 H 0.05418 0.52514 0.3407 0.0
H244 H 0.94432 0.45294 0.1497 0.0
H245 H 0.89729 0.44591 0.19502 0.0
H246 H 0.87268 0.50688 0.9938 0.0
H247 H 0.91984 0.51332 0.94749 0.0
H248 H 0.1201 0.08734 0.54257 0.0
H249 H 0.10689 0.035 0.30533 0.0
H250 H 0.07798 0.00604 0.40176 0.0
H251 H 0.0576 0.99474 0.55497 0.0
H252 H 0.06949 0.04785 0.79035 0.0
H253 H 0.09838 0.07696 0.69394 0.0
C254 C 0.11084 0.06965 0.51178 0.0
C255 C 0.11583 0.06326 0.417 0.0
C256 C 0.09438 0.05297 0.56775 0.0
C257 C 0.10351 0.04034 0.37819 0.0
C258 C 0.08706 0.02369 0.43337 0.0
C259 C 0.06645 0.01277 0.58475 0.0
C260 C 0.06144 0.01921 0.67922 0.0
C261 C 0.08261 0.02963 0.52846 0.0
C262 C 0.07329 0.04236 0.71785 0.0
C263 C 0.08963 0.05911 0.6626 0.0
H264 H 0.54451 0.12768 0.35615 0.0
H265 H 0.45831 0.12245 0.31774 0.0
H266 H 0.45465 0.09334 0.45631 0.0
H267 H 0.47591 0.06938 0.58837 0.0
H268 H 0.5619 0.07451 0.6278 0.0
H269 H 0.5657 0.10399 0.4894 0.0
C270 C 0.52493 0.12014 0.37797 0.0
C271 C 0.50173 0.12721 0.32651 0.0
C272 C 0.52294 0.10354 0.45812 0.0
C273 C 0.47649 0.11737 0.35609 0.0
C274 C 0.47436 0.1007 0.43533 0.0
C275 C 0.49546 0.07693 0.56636 0.0
C276 C 0.5186 0.06976 0.61751 0.0
C277 C 0.49744 0.09369 0.48682 0.0
C278 C 0.54381 0.07987 0.58941 0.0
C279 C 0.54598 0.09661 0.51019 0.0
H280 H 0.37983 0.5653 0.3816 0.0
H281 H 0.37152 0.47956 0.33762 0.0
H282 H 0.39754 0.47049 0.48005 0.0
H283 H 0.42233 0.48692 0.61782 0.0
H284 H 0.43107 0.57254 0.66086 0.0
H285 H 0.40471 0.58169 0.5189 0.0
C286 C 0.38374 0.54462 0.40299 0.0
C287 C 0.37376 0.52315 0.34894 0.0
C288 C 0.39858 0.53954 0.48518 0.0
C289 C 0.37895 0.49647 0.37793 0.0
C290 C 0.39379 0.49125 0.45945 0.0
C291 C 0.41855 0.50756 0.59568 0.0
C292 C 0.42873 0.52904 0.64894 0.0
C293 C 0.40364 0.51263 0.51367 0.0
C294 C 0.42338 0.5557 0.62077 0.0
C295 C 0.40842 0.56093 0.53951 0.0
H296 H 0.04646 0.39003 0.39363 0.0
H297 H 0.10095 0.35795 0.60264 0.0
H298 H 0.08258 0.38885 0.71971 0.0
H299 H 0.05055 0.42463 0.7635 0.0
H300 H 0.9972 0.45774 0.55326 0.0
H301 H 0.01563 0.42689 0.43582 0.0
C302 C 0.05432 0.3898 0.46479 0.0
C303 C 0.07494 0.37161 0.48946 0.0
C304 C 0.04385 0.40781 0.53154 0.0
C305 C 0.08508 0.37176 0.58175 0.0
C306 C 0.07456 0.38939 0.64884 0.0
C307 C 0.04298 0.42501 0.69195 0.0
C308 C 0.02249 0.44324 0.66696 0.0
C309 C 0.05386 0.40741 0.62466 0.0
C310 C 0.013 0.44383 0.57396 0.0
C311 C 0.02349 0.42618 0.50689 0.0
H312 H 0.86479 0.9032 0.88262 0.0
H313 H 0.87576 0.95415 0.12482 0.0
H314 H 0.9056 0.98364 0.03366 0.0
H315 H 0.92808 0.99535 0.88395 0.0
H316 H 0.9173 0.94396 0.64317 0.0
H317 H 0.88745 0.91457 0.73435 0.0
C318 C 0.87373 0.92072 0.91564 0.0
C319 C 0.86795 0.9265 0.01029 0.0
C320 C 0.89062 0.93772 0.86266 0.0
C321 C 0.87978 0.94927 0.05194 0.0
C322 C 0.89678 0.96621 0.99981 0.0
C323 C 0.91912 0.97772 0.85174 0.0
C324 C 0.92483 0.97177 0.75731 0.0
C325 C 0.90216 0.96076 0.9049 0.0
C326 C 0.913 0.94904 0.7157 0.0
C327 C 0.89608 0.93213 0.76793 0.0
H328 H 0.5736 0.86663 0.91244 0.0
H329 H 0.52733 0.8883 0.15837 0.0
H330 H 0.50147 0.92075 0.06512 0.0
H331 H 0.49171 0.94272 0.91306 0.0
H332 H 0.5385 0.92148 0.6684 0.0
H333 H 0.56404 0.88865 0.76125 0.0
C334 C 0.5579 0.87847 0.94578 0.0
C335 C 0.5524 0.875 0.04221 0.0
C336 C 0.54303 0.89698 0.89174 0.0
C337 C 0.53194 0.8905 0.0842 0.0
C338 C 0.5171 0.90904 0.03092 0.0
C339 C 0.50763 0.93098 0.88053 0.0
C340 C 0.51343 0.9346 0.78459 0.0
C341 C 0.52243 0.91239 0.93463 0.0
C342 C 0.53364 0.91892 0.74228 0.0
C343 C 0.54836 0.90029 0.79541 0.0
H344 H 0.6154 0.46901 0.13302 0.0
H345 H 0.61365 0.3845 0.06083 0.0
H346 H 0.57913 0.39346 0.9426 0.0
H347 H 0.54985 0.42529 0.85836 0.0
H348 H 0.5526 0.50995 0.92599 0.0
H349 H 0.58621 0.50095 0.04799 0.0
C350 C 0.60742 0.45254 0.0916 0.0
C351 C 0.6171 0.42613 0.1057 0.0
C352 C 0.58775 0.45786 0.02308 0.0
C353 C 0.60662 0.40503 0.05119 0.0
C354 C 0.58686 0.41012 0.9836 0.0
C355 C 0.55783 0.44175 0.89988 0.0
C356 C 0.5487 0.4682 0.884 0.0
C357 C 0.57737 0.43645 0.96871 0.0
C358 C 0.55917 0.48938 0.93791 0.0
C359 C 0.57845 0.48425 0.00729 0.0
H360 H 0.9318 0.62128 0.12134 0.0
H361 H 0.87735 0.6393 0.8927 0.0
H362 H 0.90455 0.61197 0.78662 0.0
H363 H 0.94437 0.58412 0.75718 0.0
H364 H 0.99832 0.56447 0.98491 0.0
H365 H 0.97072 0.59126 0.09331 0.0
C366 C 0.92585 0.61915 0.04838 0.0
C367 C 0.90266 0.63247 0.0149 0.0
C368 C 0.94153 0.60323 0.98763 0.0
C369 C 0.89509 0.6293 0.92037 0.0
C370 C 0.91067 0.61373 0.85949 0.0
C371 C 0.95012 0.58579 0.83054 0.0
C372 C 0.97342 0.57269 0.86317 0.0
C373 C 0.93404 0.60086 0.89212 0.0
C374 C 0.98045 0.57454 0.95848 0.0
C375 C 0.9647 0.58983 0.02025 0.0
H376 H 0.08248 0.20615 0.17093 0.0
H377 H 0.0582 0.23973 0.43722 0.0
H378 H 0.04225 0.19544 0.48949 0.0
H379 H 0.03367 0.14767 0.45737 0.0
H380 H 0.05646 0.11423 0.18902 0.0
H381 H 0.07339 0.1583 0.13781 0.0
C382 C 0.07294 0.20397 0.23916 0.0
C383 C 0.07072 0.22638 0.29892 0.0
C384 C 0.06346 0.17852 0.26818 0.0
C385 C 0.05989 0.22282 0.38959 0.0
C386 C 0.05071 0.19754 0.41942 0.0
C387 C 0.04265 0.14993 0.38809 0.0
C388 C 0.04388 0.12767 0.32725 0.0
C389 C 0.05225 0.17529 0.3591 0.0
C390 C 0.05509 0.13109 0.23698 0.0
C391 C 0.06489 0.15624 0.20782 0.0
H392 H 0.28765 0.11956 0.29319 0.0
H393 H 0.24896 0.04227 0.2627 0.0
H394 H 0.2917 0.01934 0.29651 0.0
H395 H 0.33999 0.0215 0.33646 0.0
H396 H 0.37838 0.09901 0.36764 0.0
H397 H 0.33598 0.12176 0.32935 0.0
C398 C 0.28875 0.09769 0.29241 0.0
C399 C 0.26546 0.08256 0.27366 0.0
C400 C 0.31331 0.08478 0.31164 0.0
C401 C 0.26676 0.05427 0.27646 0.0
C402 C 0.29117 0.0412 0.29535 0.0
C403 C 0.33908 0.04336 0.33376 0.0
C404 C 0.36219 0.0586 0.35486 0.0
C405 C 0.31458 0.05627 0.31297 0.0
C406 C 0.36074 0.08691 0.35242 0.0
C407 C 0.33655 0.09989 0.33053 0.0
H408 H 0.46943 0.26276 0.31131 0.0
H409 H 0.52296 0.2795 0.07918 0.0
H410 H 0.52612 0.3269 0.12752 0.0
H411 H 0.51221 0.36372 0.23355 0.0
H412 H 0.45863 0.34601 0.46588 0.0
H413 H 0.45626 0.29899 0.41802 0.0
C414 C 0.48167 0.27689 0.27119 0.0
C415 C 0.49556 0.26799 0.19112 0.0
C416 C 0.48313 0.30391 0.29887 0.0
C417 C 0.51198 0.28611 0.14088 0.0
C418 C 0.51366 0.31315 0.16823 0.0
C419 C 0.50021 0.34951 0.27413 0.0
C420 C 0.48548 0.35847 0.35285 0.0
C421 C 0.49913 0.32232 0.24679 0.0
C422 C 0.46975 0.33983 0.40396 0.0
C423 C 0.46857 0.31286 0.37723 0.0
H424 H 0.24184 0.50581 0.33743 0.0
H425 H 0.2258 0.55886 0.10302 0.0
H426 H 0.1787 0.56355 0.15433 0.0
H427 H 0.14208 0.55185 0.26571 0.0
H428 H 0.15896 0.49874 0.50004 0.0
H429 H 0.20574 0.49452 0.44858 0.0
C430 C 0.22794 0.51833 0.29761 0.0
C431 C 0.23694 0.53166 0.21607 0.0
C432 C 0.20112 0.52083 0.32744 0.0
C433 C 0.21912 0.54837 0.16598 0.0
C434 C 0.19225 0.55092 0.19503 0.0
C435 C 0.15601 0.53927 0.30507 0.0
C436 C 0.14714 0.52571 0.38677 0.0
C437 C 0.18298 0.53708 0.27541 0.0
C438 C 0.16542 0.50964 0.43764 0.0
C439 C 0.19213 0.50716 0.40816 0.0
H440 H 0.94128 0.7621 0.15688 0.0
H441 H 0.85811 0.7865 0.13586 0.0
H442 H 0.8722 0.83268 0.0962 0.0
H443 H 0.9085 0.86643 0.07416 0.0
H444 H 0.99146 0.84179 0.10602 0.0
H445 H 0.97716 0.79555 0.13897 0.0
C446 C 0.92624 0.7777 0.14616 0.0
C447 C 0.89875 0.77123 0.15255 0.0
C448 C 0.93448 0.80415 0.12618 0.0
C449 C 0.87943 0.79117 0.1325 0.0
C450 C 0.88747 0.81755 0.1103 0.0
C451 C 0.92336 0.85086 0.08826 0.0
C452 C 0.95097 0.85744 0.08821 0.0
C453 C 0.91497 0.82433 0.10804 0.0
C454 C 0.97009 0.83721 0.10686 0.0
C455 C 0.96195 0.81077 0.12505 0.0
H456 H 0.73133 0.95899 0.20954 0.0
H457 H 0.71278 0.88146 0.09011 0.0
H458 H 0.66697 0.89681 0.05397 0.0
H459 H 0.63222 0.93232 0.05722 0.0
H460 H 0.6508 0.00962 0.17914 0.0
H461 H 0.69642 0.99411 0.2159 0.0
C462 C 0.71704 0.94525 0.17773 0.0
C463 C 0.72512 0.9189 0.15489 0.0
C464 C 0.69079 0.95418 0.15782 0.0
C465 C 0.70689 0.90177 0.10904 0.0
C466 C 0.68071 0.91051 0.08871 0.0
C467 C 0.64619 0.94565 0.09273 0.0
C468 C 0.63816 0.97207 0.11556 0.0
C469 C 0.67241 0.93664 0.11315 0.0
C470 C 0.6566 0.98928 0.16014 0.0
C471 C 0.68264 0.98041 0.18133 0.0
H472 H 0.58107 0.72178 0.12041 0.0
H473 H 0.53077 0.7332 0.36469 0.0
H474 H 0.51242 0.6877 0.34712 0.0
H475 H 0.51033 0.6447 0.26064 0.0
H476 H 0.55913 0.63466 0.01124 0.0
H477 H 0.57844 0.67937 0.03282 0.0
C478 C 0.5661 0.71428 0.16983 0.0
C479 C 0.55783 0.73057 0.24518 0.0
C480 C 0.55536 0.68827 0.15837 0.0
C481 C 0.53822 0.72071 0.3081 0.0
C482 C 0.52746 0.6948 0.29737 0.0
C483 C 0.52508 0.65235 0.21076 0.0
C484 C 0.53337 0.63615 0.13482 0.0
C485 C 0.53591 0.67836 0.22276 0.0
C486 C 0.55273 0.64637 0.07142 0.0
C487 C 0.56366 0.67208 0.08319 0.0
H488 H 0.7564 0.45049 0.139 0.0
H489 H 0.77959 0.4407 0.42932 0.0
H490 H 0.82583 0.45361 0.39046 0.0
H491 H 0.85998 0.46653 0.27324 0.0
H492 H 0.83745 0.4737 0.98087 0.0
H493 H 0.79072 0.46335 0.02134 0.0
C494 C 0.7716 0.4513 0.1937 0.0
C495 C 0.7644 0.44539 0.28738 0.0
C496 C 0.7983 0.45827 0.17042 0.0
C497 C 0.78432 0.44621 0.3574 0.0
C498 C 0.81088 0.45323 0.33493 0.0
C499 C 0.84492 0.46566 0.21816 0.0
C500 C 0.85237 0.47084 0.12403 0.0
C501 C 0.81812 0.45923 0.24164 0.0
C502 C 0.83235 0.47015 0.05404 0.0
C503 C 0.8056 0.46401 0.077 0.0
H504 H 0.01761 0.15682 0.00436 0.0
H505 H 0.0534 0.17855 0.73719 0.0
H506 H 0.03913 0.13542 0.67119 0.0
H507 H 0.01851 0.09063 0.69211 0.0
H508 H 0.98348 0.06906 0.96085 0.0
H509 H 0.99537 0.11315 0.0231 0.0
C510 C 0.02214 0.15227 0.93144 0.0
C511 C 0.03664 0.17089 0.87599 0.0
C512 C 0.01405 0.12743 0.89418 0.0
C513 C 0.04233 0.16457 0.78164 0.0
C514 C 0.03418 0.1399 0.74379 0.0
C515 C 0.01312 0.09568 0.76385 0.0
C516 C 0.00013 0.07648 0.82163 0.0
C517 C 0.02028 0.12105 0.79977 0.0
C518 C 0.99353 0.08337 0.91474 0.0
C519 C 0.00035 0.1086 0.95059 0.0
H520 H 0.32894 0.05521 0.90176 0.0
H521 H 0.36923 0.10134 0.11604 0.0
H522 H 0.41274 0.08267 0.06684 0.0
H523 H 0.4394 0.05425 0.9592 0.0
H524 H 0.39875 0.01012 0.74016 0.0
H525 H 0.35534 0.02696 0.7951 0.0
C526 C 0.34724 0.06111 0.93792 0.0
C527 C 0.34592 0.07969 0.01207 0.0
C528 C 0.37213 0.05068 0.90826 0.0
C529 C 0.36979 0.08727 0.05802 0.0
C530 C 0.39464 0.07653 0.03013 0.0
C531 C 0.42102 0.04813 0.92405 0.0
C532 C 0.42235 0.03087 0.84583 0.0
C533 C 0.39607 0.05836 0.95482 0.0
C534 C 0.39835 0.02341 0.80038 0.0
C535 C 0.37348 0.03303 0.83172 0.0
H536 H 0.41752 0.33417 0.9129 0.0
H537 H 0.44351 0.35148 0.19552 0.0
H538 H 0.45473 0.39776 0.1485 0.0
H539 H 0.46073 0.43211 0.02236 0.0
H540 H 0.43462 0.41342 0.74028 0.0
H541 H 0.4197 0.36911 0.79215 0.0
C542 C 0.42535 0.34812 0.96462 0.0
C543 C 0.43004 0.33926 0.05715 0.0
C544 C 0.43187 0.37453 0.93697 0.0
C545 C 0.4399 0.35773 0.12353 0.0
C546 C 0.44638 0.3842 0.09659 0.0
C547 C 0.45141 0.41849 0.97267 0.0
C548 C 0.44913 0.42607 0.8773 0.0
C549 C 0.443 0.39266 0.0028 0.0
C550 C 0.43698 0.40811 0.81386 0.0
C551 C 0.42838 0.38268 0.84337 0.0
H552 H 0.17814 0.49419 0.92428 0.0
H553 H 0.14964 0.47592 0.20452 0.0
H554 H 0.10302 0.48332 0.15342 0.0
H555 H 0.07042 0.49464 0.02769 0.0
H556 H 0.10009 0.5116 0.74743 0.0
H557 H 0.14613 0.50529 0.8004 0.0
C558 C 0.16176 0.49181 0.97437 0.0
C559 C 0.16732 0.48434 0.0678 0.0
C560 C 0.13518 0.496 0.94455 0.0
C561 C 0.14585 0.48133 0.13178 0.0
C562 C 0.11921 0.4857 0.10271 0.0
C563 C 0.08695 0.4971 0.97832 0.0
C564 C 0.08164 0.50383 0.88363 0.0
C565 C 0.11363 0.493 0.00905 0.0
C566 C 0.1034 0.5067 0.8207 0.0
C567 C 0.12985 0.50297 0.85085 0.0
H568 H 0.95985 0.81885 0.61377 0.0
H569 H 0.97355 0.83746 0.32053 0.0
H570 H 0.98667 0.88347 0.3616 0.0
H571 H 0.99203 0.91915 0.48066 0.0
H572 H 0.97803 0.89955 0.7735 0.0
H573 H 0.96731 0.85339 0.73232 0.0
C574 C 0.96586 0.83289 0.55873 0.0
C575 C 0.96557 0.82473 0.46429 0.0
C576 C 0.97323 0.85928 0.58264 0.0
C577 C 0.97358 0.84318 0.39393 0.0
C578 C 0.98101 0.86955 0.41727 0.0
C579 C 0.98685 0.90474 0.53547 0.0
C580 C 0.98573 0.91303 0.62995 0.0
C581 C 0.98059 0.87794 0.51139 0.0
C582 C 0.97899 0.89396 0.70006 0.0
C583 C 0.97281 0.86743 0.6767 0.0
H584 H 0.65604 0.97169 0.41887 0.0
H585 H 0.6838 0.94814 0.69529 0.0
H586 H 0.63995 0.95973 0.76203 0.0
H587 H 0.5936 0.97548 0.74163 0.0
H588 H 0.56547 0.99872 0.46532 0.0
H589 H 0.60969 0.98818 0.39886 0.0
C590 C 0.65257 0.96922 0.49383 0.0
C591 C 0.6732 0.95902 0.55199 0.0
C592 C 0.62723 0.97572 0.53171 0.0
C593 C 0.6683 0.95589 0.64888 0.0
C594 C 0.64321 0.96249 0.68714 0.0
C595 C 0.59708 0.97833 0.66684 0.0
C596 C 0.57617 0.98784 0.60859 0.0
C597 C 0.6225 0.97223 0.62911 0.0
C598 C 0.58114 0.99137 0.51185 0.0
C599 C 0.60644 0.98538 0.47375 0.0
H600 H 0.5598 0.6401 0.45347 0.0
H601 H 0.54965 0.68348 0.71348 0.0
H602 H 0.53379 0.64221 0.79145 0.0
H603 H 0.52117 0.59414 0.78333 0.0
H604 H 0.52944 0.55198 0.51971 0.0
H605 H 0.54772 0.59248 0.44562 0.0
C606 C 0.55439 0.64048 0.52747 0.0
C607 C 0.556 0.66471 0.57782 0.0
C608 C 0.54481 0.61694 0.57101 0.0
C609 C 0.54854 0.66501 0.67327 0.0
C610 C 0.53948 0.64145 0.71781 0.0
C611 C 0.52719 0.59379 0.70992 0.0
C612 C 0.52393 0.57011 0.65713 0.0
C613 C 0.53729 0.61734 0.66707 0.0
C614 C 0.53159 0.57 0.56183 0.0
C615 C 0.5421 0.59313 0.51933 0.0
H616 H 0.84096 0.51391 0.45794 0.0
H617 H 0.80826 0.49079 0.72838 0.0
H618 H 0.85308 0.49422 0.79872 0.0
H619 H 0.90188 0.50094 0.78066 0.0
H620 H 0.93441 0.52241 0.50799 0.0
H621 H 0.88924 0.52238 0.44135 0.0
C622 C 0.84353 0.51001 0.53258 0.0
C623 C 0.82135 0.50212 0.58786 0.0
C624 C 0.86936 0.5114 0.57193 0.0
C625 C 0.82508 0.49685 0.68428 0.0
C626 C 0.85069 0.49873 0.72447 0.0
C627 C 0.89911 0.50578 0.70681 0.0
C628 C 0.92157 0.51147 0.6494 0.0
C629 C 0.87305 0.5055 0.66852 0.0
C630 C 0.91755 0.51772 0.5538 0.0
C631 C 0.89169 0.51778 0.51551 0.0
loop_
_geom_bond_atom_site_label_1
_geom_bond_atom_site_label_2
_geom_bond_distance
_geom_bond_site_symmetry_2
_ccdc_geom_bond_type
O0 Cd1 2.300 . S
O0 C7 1.275 . S
Cd1 O0 2.300 . S
Cd1 O9 2.381 . S
Cd1 O10 2.378 . S
O2 Cd3 2.385 . S
O2 C7 1.255 . S
Cd3 O2 2.385 . S
Cd3 O4 2.317 . S
O4 Cd3 2.317 . S
O4 C5 1.232 . S
C5 O4 1.232 . S
C5 O6 1.218 . S
O6 C5 1.218 . S
C7 O0 1.275 . S
C7 O2 1.255 . S
C8 O9 1.258 . S
C8 O10 1.256 . S
O9 Cd1 2.381 . S
O9 C8 1.258 . S
O10 Cd1 2.378 . S
O10 C8 1.256 . S
O11 Cd12 2.300 1_655 S
O11 C18 1.275 1_655 S
Cd12 O11 2.300 1_455 S
Cd12 O20 2.381 1_455 S
Cd12 O21 2.378 . S
O13 Cd14 2.385 . S
O13 C18 1.255 . S
Cd14 O13 2.385 . S
Cd14 O15 2.317 . S
O15 Cd14 2.317 . S
O15 C16 1.232 . S
C16 O15 1.232 . S
C16 O17 1.218 . S
O17 C16 1.218 . S
C18 O11 1.275 1_455 S
C18 O13 1.255 . S
C19 O20 1.258 1_455 S
C19 O21 1.256 . S
O20 Cd12 2.381 1_655 S
O20 C19 1.258 1_655 S
O21 Cd12 2.378 . S
O21 C19 1.256 . S
O22 Cd23 2.300 1_565 S
O22 C29 1.275 1_565 S
Cd23 O22 2.300 1_545 S
Cd23 O31 2.381 1_545 S
Cd23 O32 2.378 . S
O24 Cd25 2.385 . S
O24 C29 1.255 . S
Cd25 O24 2.385 . S
Cd25 O26 2.317 . S
O26 Cd25 2.317 . S
O26 C27 1.232 . S
C27 O26 1.232 . S
C27 O28 1.218 . S
O28 C27 1.218 . S
C29 O22 1.275 1_545 S
C29 O24 1.255 . S
C30 O31 1.258 1_545 S
C30 O32 1.256 . S
O31 Cd23 2.381 1_565 S
O31 C30 1.258 1_565 S
O32 Cd23 2.378 . S
O32 C30 1.256 . S
O33 Cd34 2.300 . S
O33 C40 1.275 . S
Cd34 O33 2.300 . S
Cd34 O42 2.381 . S
Cd34 O43 2.378 . S
O35 Cd36 2.385 . S
O35 C40 1.255 . S
Cd36 O35 2.385 . S
Cd36 O37 2.317 . S
O37 Cd36 2.317 . S
O37 C38 1.232 . S
C38 O37 1.232 . S
C38 O39 1.218 . S
O39 C38 1.218 . S
C40 O33 1.275 . S
C40 O35 1.255 . S
C41 O42 1.258 . S
C41 O43 1.256 . S
O42 Cd34 2.381 . S
O42 C41 1.258 . S
O43 Cd34 2.378 . S
O43 C41 1.256 . S
O44 Cd45 2.300 . S
O44 C51 1.275 . S
Cd45 O44 2.300 . S
Cd45 O53 2.381 . S
Cd45 O54 2.378 . S
O46 Cd47 2.376 1_554 S
O46 C51 1.255 . S
Cd47 O46 2.376 1_556 S
Cd47 O48 2.324 . S
O48 Cd47 2.324 . S
O48 C49 1.232 . S
C49 O48 1.232 . S
C49 O50 1.218 . S
O50 C49 1.218 . S
C51 O44 1.275 . S
C51 O46 1.255 . S
C52 O53 1.258 . S
C52 O54 1.256 . S
O53 Cd45 2.381 . S
O53 C52 1.258 . S
O54 Cd45 2.378 . S
O54 C52 1.256 . S
O55 Cd56 2.300 1_655 S
O55 C62 1.275 1_655 S
Cd56 O55 2.300 1_455 S
Cd56 O64 2.381 1_455 S
Cd56 O65 2.378 . S
O57 Cd58 2.394 . S
O57 C62 1.255 . S
Cd58 O57 2.394 . S
Cd58 O59 2.310 1_554 S
O59 Cd58 2.310 1_556 S
O59 C60 1.232 . S
C60 O59 1.232 . S
C60 O61 1.218 . S
O61 C60 1.218 . S
C62 O55 1.275 1_455 S
C62 O57 1.255 . S
C63 O64 1.258 1_455 S
C63 O65 1.256 . S
O64 Cd56 2.381 1_655 S
O64 C63 1.258 1_655 S
O65 Cd56 2.378 . S
O65 C63 1.256 . S
O66 Cd67 2.300 1_565 S
O66 C73 1.275 1_565 S
Cd67 O66 2.300 1_545 S
Cd67 O75 2.381 1_545 S
Cd67 O76 2.378 . S
O68 Cd69 2.385 1_554 S
O68 C73 1.255 . S
Cd69 O68 2.385 1_556 S
Cd69 O70 2.317 . S
O70 Cd69 2.317 . S
O70 C71 1.232 . S
C71 O70 1.232 . S
C71 O72 1.218 . S
O72 C71 1.218 . S
C73 O66 1.275 1_545 S
C73 O68 1.255 . S
C74 O75 1.258 1_545 S
C74 O76 1.256 . S
O75 Cd67 2.381 1_565 S
O75 C74 1.258 1_565 S
O76 Cd67 2.378 . S
O76 C74 1.256 . S
O77 Cd78 2.300 . S
O77 C84 1.275 . S
Cd78 O77 2.300 . S
Cd78 O86 2.381 . S
Cd78 O87 2.378 . S
O79 Cd80 2.385 1_554 S
O79 C84 1.255 . S
Cd80 O79 2.385 1_556 S
Cd80 O81 2.317 . S
O81 Cd80 2.317 . S
O81 C82 1.232 . S
C82 O81 1.232 . S
C82 O83 1.218 . S
O83 C82 1.218 . S
C84 O77 1.275 . S
C84 O79 1.255 . S
C85 O86 1.258 . S
C85 O87 1.256 . S
O86 Cd78 2.381 . S
O86 C85 1.258 . S
O87 Cd78 2.378 . S
O87 C85 1.256 . S
C88 Eu89 2.835 . S
C88 C90 1.500 . S
C88 O108 1.257 . S
C88 O109 1.260 . S
Eu89 C88 2.835 . S
Eu89 O108 2.473 . S
Eu89 O109 2.480 . S
Eu89 O110 2.430 . S
Eu89 O111 2.670 1_545 S
Eu89 O112 2.394 . S
Eu89 O117 2.355 1_655 S
Eu89 O119 2.374 1_545 S
C90 C88 1.500 . S
C90 C91 1.377 . S
C90 C95 1.377 . S
C91 C90 1.377 . S
C91 C92 1.395 . S
C91 H120 0.931 . S
C92 C91 1.395 . S
C92 C93 1.383 . S
C92 H121 0.931 . S
C93 C92 1.383 . S
C93 C94 1.394 . S
C94 C93 1.394 . S
C94 C95 1.378 . S
C94 H122 0.931 1_655 S
C95 C90 1.377 . S
C95 C94 1.378 . S
C95 H123 0.931 1_655 S
C96 O110 1.259 . S
C96 O111 1.270 1_545 S
C97 O112 1.251 1_455 S
C97 O113 1.251 . S
C98 Eu99 2.835 . S
C98 C100 1.500 . S
C98 O114 1.257 . S
C98 O115 1.260 . S
Eu99 C98 2.835 . S
Eu99 O111 2.355 1_455 S
Eu99 O113 2.374 1_565 S
Eu99 O114 2.473 . S
Eu99 O115 2.480 . S
Eu99 O116 2.430 . S
Eu99 O117 2.670 1_565 S
Eu99 O118 2.394 . S
C100 C98 1.500 . S
C100 C101 1.377 . S
C100 C105 1.377 1_556 S
C101 C100 1.377 . S
C101 C102 1.395 1_556 S
C101 H124 0.931 . S
C102 C101 1.395 1_554 S
C102 C103 1.383 . S
C102 H125 0.931 . S
C103 C102 1.383 . S
C103 C104 1.394 . S
C104 C103 1.394 . S
C104 C105 1.378 . S
C104 H126 0.931 1_455 S
C105 C100 1.377 1_554 S
C105 C104 1.378 . S
C105 H127 0.931 1_455 S
C106 O116 1.259 . S
C106 O117 1.270 1_565 S
C107 O118 1.251 1_655 S
C107 O119 1.251 . S
O108 C88 1.257 . S
O108 Eu89 2.473 . S
O109 C88 1.260 . S
O109 Eu89 2.480 . S
O110 Eu89 2.430 . S
O110 C96 1.259 . S
O111 Eu89 2.670 1_565 S
O111 C96 1.270 1_565 S
O111 Eu99 2.355 1_655 S
O112 Eu89 2.394 . S
O112 C97 1.251 1_655 S
O113 C97 1.251 . S
O113 Eu99 2.374 1_545 S
O114 C98 1.257 . S
O114 Eu99 2.473 . S
O115 C98 1.260 . S
O115 Eu99 2.480 . S
O116 Eu99 2.430 . S
O116 C106 1.259 . S
O117 Eu89 2.355 1_455 S
O117 Eu99 2.670 1_545 S
O117 C106 1.270 1_545 S
O118 Eu99 2.394 . S
O118 C107 1.251 1_455 S
O119 Eu89 2.374 1_565 S
O119 C107 1.251 . S
H120 C91 0.931 . S
H121 C92 0.931 . S
H122 C94 0.931 1_455 S
H123 C95 0.931 1_455 S
H124 C101 0.931 . S
H125 C102 0.931 . S
H126 C104 0.931 1_655 S
H127 C105 0.931 1_655 S
C128 Eu129 2.835 . S
C128 C130 1.500 . S
C128 O148 1.257 . S
C128 O149 1.260 . S
Eu129 C128 2.835 . S
Eu129 O148 2.473 . S
Eu129 O149 2.480 . S
Eu129 O150 2.430 . S
Eu129 O151 2.670 . S
Eu129 O152 2.394 . S
Eu129 O157 2.355 1_565 S
Eu129 O159 2.374 . S
C130 C128 1.500 . S
C130 C131 1.377 . S
C130 C135 1.377 . S
C131 C130 1.377 . S
C131 C132 1.395 . S
C131 H160 0.931 . S
C132 C131 1.395 . S
C132 C133 1.383 . S
C132 H161 0.931 . S
C133 C132 1.383 . S
C133 C134 1.394 . S
C134 C133 1.394 . S
C134 C135 1.378 . S
C134 H162 0.931 1_565 S
C135 C130 1.377 . S
C135 C134 1.378 . S
C135 H163 0.931 1_565 S
C136 O150 1.259 . S
C136 O151 1.270 . S
C137 O152 1.251 1_545 S
C137 O153 1.251 . S
C138 Eu139 2.835 . S
C138 C140 1.500 . S
C138 O154 1.257 . S
C138 O155 1.260 . S
Eu139 C138 2.835 . S
Eu139 O151 2.355 1_545 S
Eu139 O153 2.374 . S
Eu139 O154 2.473 . S
Eu139 O155 2.480 . S
Eu139 O156 2.430 . S
Eu139 O157 2.670 . S
Eu139 O158 2.394 . S
C140 C138 1.500 . S
C140 C141 1.377 . S
C140 C145 1.377 1_556 S
C141 C140 1.377 . S
C141 C142 1.395 1_556 S
C141 H164 0.931 . S
C142 C141 1.395 1_554 S
C142 C143 1.383 . S
C142 H165 0.931 . S
C143 C142 1.383 . S
C143 C144 1.394 . S
C144 C143 1.394 . S
C144 C145 1.378 . S
C144 H166 0.931 1_545 S
C145 C140 1.377 1_554 S
C145 C144 1.378 . S
C145 H167 0.931 1_545 S
C146 O156 1.259 . S
C146 O157 1.270 . S
C147 O158 1.251 1_565 S
C147 O159 1.251 . S
O148 C128 1.257 . S
O148 Eu129 2.473 . S
O149 C128 1.260 . S
O149 Eu129 2.480 . S
O150 Eu129 2.430 . S
O150 C136 1.259 . S
O151 Eu129 2.670 . S
O151 C136 1.270 . S
O151 Eu139 2.355 1_565 S
O152 Eu129 2.394 . S
O152 C137 1.251 1_565 S
O153 C137 1.251 . S
O153 Eu139 2.374 . S
O154 C138 1.257 . S
O154 Eu139 2.473 . S
O155 C138 1.260 . S
O155 Eu139 2.480 . S
O156 Eu139 2.430 . S
O156 C146 1.259 . S
O157 Eu129 2.355 1_545 S
O157 Eu139 2.670 . S
O157 C146 1.270 . S
O158 Eu139 2.394 . S
O158 C147 1.251 1_545 S
O159 Eu129 2.374 . S
O159 C147 1.251 . S
H160 C131 0.931 . S
H161 C132 0.931 . S
H162 C134 0.931 1_545 S
H163 C135 0.931 1_545 S
H164 C141 0.931 . S
H165 C142 0.931 . S
H166 C144 0.931 1_565 S
H167 C145 0.931 1_565 S
C168 Eu169 2.835 . S
C168 C170 1.500 . S
C168 O188 1.257 . S
C168 O189 1.260 . S
Eu169 C168 2.835 . S
Eu169 O188 2.473 . S
Eu169 O189 2.480 . S
Eu169 O190 2.430 . S
Eu169 O191 2.670 . S
Eu169 O192 2.394 . S
Eu169 O197 2.355 . S
Eu169 O199 2.374 . S
C170 C168 1.500 . S
C170 C171 1.377 . S
C170 C175 1.377 . S
C171 C170 1.377 . S
C171 C172 1.395 . S
C171 H200 0.931 . S
C172 C171 1.395 . S
C172 C173 1.383 . S
C172 H201 0.931 . S
C173 C172 1.383 . S
C173 C174 1.394 . S
C174 C173 1.394 . S
C174 C175 1.378 . S
C174 H202 0.931 . S
C175 C170 1.377 . S
C175 C174 1.378 . S
C175 H203 0.931 . S
C176 O190 1.259 . S
C176 O191 1.270 . S
C177 O192 1.251 . S
C177 O193 1.251 . S
C178 Eu179 2.835 . S
C178 C180 1.500 . S
C178 O194 1.257 . S
C178 O195 1.260 . S
Eu179 C178 2.835 . S
Eu179 O191 2.355 . S
Eu179 O193 2.374 . S
Eu179 O194 2.473 . S
Eu179 O195 2.480 . S
Eu179 O196 2.430 . S
Eu179 O197 2.670 . S
Eu179 O198 2.394 . S
C180 C178 1.500 . S
C180 C181 1.377 . S
C180 C185 1.377 1_556 S
C181 C180 1.377 . S
C181 C182 1.395 1_556 S
C181 H204 0.931 . S
C182 C181 1.395 1_554 S
C182 C183 1.383 . S
C182 H205 0.931 . S
C183 C182 1.383 . S
C183 C184 1.394 . S
C184 C183 1.394 . S
C184 C185 1.378 . S
C184 H206 0.931 . S
C185 C180 1.377 1_554 S
C185 C184 1.378 . S
C185 H207 0.931 . S
C186 O196 1.259 . S
C186 O197 1.270 . S
C187 O198 1.251 . S
C187 O199 1.251 . S
O188 C168 1.257 . S
O188 Eu169 2.473 . S
O189 C168 1.260 . S
O189 Eu169 2.480 . S
O190 Eu169 2.430 . S
O190 C176 1.259 . S
O191 Eu169 2.670 . S
O191 C176 1.270 . S
O191 Eu179 2.355 . S
O192 Eu169 2.394 . S
O192 C177 1.251 . S
O193 C177 1.251 . S
O193 Eu179 2.374 . S
O194 C178 1.257 . S
O194 Eu179 2.473 . S
O195 C178 1.260 . S
O195 Eu179 2.480 . S
O196 Eu179 2.430 . S
O196 C186 1.259 . S
O197 Eu169 2.355 . S
O197 Eu179 2.670 . S
O197 C186 1.270 . S
O198 Eu179 2.394 . S
O198 C187 1.251 . S
O199 Eu169 2.374 . S
O199 C187 1.251 . S
H200 C171 0.931 . S
H201 C172 0.931 . S
H202 C174 0.931 . S
H203 C175 0.931 . S
H204 C181 0.931 . S
H205 C182 0.931 . S
H206 C184 0.931 . S
H207 C185 0.931 . S
C208 Eu209 2.835 . S
C208 C210 1.500 . S
C208 O228 1.257 . S
C208 O229 1.260 . S
Eu209 C208 2.835 . S
Eu209 O228 2.473 . S
Eu209 O229 2.480 . S
Eu209 O230 2.430 . S
Eu209 O231 2.670 1_455 S
Eu209 O232 2.394 . S
Eu209 O237 2.355 . S
Eu209 O239 2.374 1_455 S
C210 C208 1.500 . S
C210 C211 1.377 . S
C210 C215 1.377 . S
C211 C210 1.377 . S
C211 C212 1.395 . S
C211 H240 0.931 . S
C212 C211 1.395 . S
C212 C213 1.383 . S
C212 H241 0.931 . S
C213 C212 1.383 . S
C213 C214 1.394 . S
C214 C213 1.394 . S
C214 C215 1.378 . S
C214 H242 0.931 . S
C215 C210 1.377 . S
C215 C214 1.378 . S
C215 H243 0.931 . S
C216 O230 1.268 . S
C216 O231 1.263 1_455 S
C217 O232 1.251 . S
C217 O233 1.251 . S
C218 Eu219 2.835 . S
C218 C220 1.500 . S
C218 O234 1.257 . S
C218 O235 1.260 . S
Eu219 C218 2.835 . S
Eu219 O231 2.355 . S
Eu219 O233 2.374 1_655 S
Eu219 O234 2.473 . S
Eu219 O235 2.480 . S
Eu219 O236 2.430 . S
Eu219 O237 2.670 1_655 S
Eu219 O238 2.394 . S
C220 C218 1.500 . S
C220 C221 1.377 . S
C220 C225 1.377 1_556 S
C221 C220 1.377 . S
C221 C222 1.395 1_556 S
C221 H244 0.931 . S
C222 C221 1.395 1_554 S
C222 C223 1.383 . S
C222 H245 0.931 . S
C223 C222 1.383 . S
C223 C224 1.394 . S
C224 C223 1.394 . S
C224 C225 1.378 . S
C224 H246 0.931 . S
C225 C220 1.377 1_554 S
C225 C224 1.378 . S
C225 H247 0.931 . S
C226 O236 1.263 . S
C226 O237 1.267 1_655 S
C227 O238 1.251 . S
C227 O239 1.251 . S
O228 C208 1.257 . S
O228 Eu209 2.473 . S
O229 C208 1.260 . S
O229 Eu209 2.480 . S
O230 Eu209 2.430 . S
O230 C216 1.268 . S
O231 Eu209 2.670 1_655 S
O231 C216 1.263 1_655 S
O231 Eu219 2.355 . S
O232 Eu209 2.394 . S
O232 C217 1.251 . S
O233 C217 1.251 . S
O233 Eu219 2.374 1_455 S
O234 C218 1.257 . S
O234 Eu219 2.473 . S
O235 C218 1.260 . S
O235 Eu219 2.480 . S
O236 Eu219 2.430 . S
O236 C226 1.263 . S
O237 Eu209 2.355 . S
O237 Eu219 2.670 1_455 S
O237 C226 1.267 1_455 S
O238 Eu219 2.394 . S
O238 C227 1.251 . S
O239 Eu209 2.374 1_655 S
O239 C227 1.251 . S
H240 C211 0.931 . S
H241 C212 0.931 . S
H242 C214 0.931 . S
H243 C215 0.931 . S
H244 C221 0.931 . S
H245 C222 0.931 . S
H246 C224 0.931 . S
H247 C225 0.931 . S
H248 C254 0.930 . S
H249 C257 0.930 . S
H250 C258 0.930 . S
H251 C259 0.930 . S
H252 C262 0.930 . S
H253 C263 0.930 . S
C254 H248 0.930 . S
C254 C255 1.355 1_545 S
C254 C256 1.415 . S
C255 C254 1.355 1_565 S
C255 C257 1.419 . S
C256 C254 1.415 . S
C256 C261 1.425 1_545 S
C256 C263 1.409 . S
C257 H249 0.930 . S
C257 C255 1.419 . S
C257 C258 1.362 . S
C258 H250 0.930 . S
C258 C257 1.362 . S
C258 C261 1.409 . S
C259 H251 0.930 . S
C259 C260 1.355 1_565 S
C259 C261 1.415 . S
C260 C259 1.355 1_545 S
C260 C262 1.419 . S
C261 C256 1.425 1_565 S
C261 C258 1.409 . S
C261 C259 1.415 . S
C262 H252 0.930 . S
C262 C260 1.419 . S
C262 C263 1.362 . S
C263 H253 0.930 . S
C263 C256 1.409 . S
C263 C262 1.362 . S
H264 C270 0.930 . S
H265 C273 0.930 . S
H266 C274 0.930 . S
H267 C275 0.930 . S
H268 C278 0.930 . S
H269 C279 0.930 . S
C270 H264 0.930 . S
C270 C271 1.355 . S
C270 C272 1.415 . S
C271 C270 1.355 . S
C271 C273 1.419 . S
C272 C270 1.415 . S
C272 C277 1.425 . S
C272 C279 1.409 . S
C273 H265 0.930 . S
C273 C271 1.419 . S
C273 C274 1.362 . S
C274 H266 0.930 . S
C274 C273 1.362 . S
C274 C277 1.409 . S
C275 H267 0.930 . S
C275 C276 1.355 . S
C275 C277 1.415 . S
C276 C275 1.355 . S
C276 C278 1.419 . S
C277 C272 1.425 . S
C277 C274 1.409 . S
C277 C275 1.415 . S
C278 H268 0.930 . S
C278 C276 1.419 . S
C278 C279 1.362 . S
C279 H269 0.930 . S
C279 C272 1.409 . S
C279 C278 1.362 . S
H280 C286 0.930 . S
H281 C289 0.930 . S
H282 C290 0.930 . S
H283 C291 0.930 . S
H284 C294 0.930 . S
H285 C295 0.930 . S
C286 H280 0.930 . S
C286 C287 1.355 . S
C286 C288 1.415 . S
C287 C286 1.355 . S
C287 C289 1.419 . S
C288 C286 1.415 . S
C288 C293 1.425 . S
C288 C295 1.409 . S
C289 H281 0.930 . S
C289 C287 1.419 . S
C289 C290 1.362 . S
C290 H282 0.930 . S
C290 C289 1.362 . S
C290 C293 1.409 . S
C291 H283 0.930 . S
C291 C292 1.355 . S
C291 C293 1.415 . S
C292 C291 1.355 . S
C292 C294 1.419 . S
C293 C288 1.425 . S
C293 C290 1.409 . S
C293 C291 1.415 . S
C294 H284 0.930 . S
C294 C292 1.419 . S
C294 C295 1.362 . S
C295 H285 0.930 . S
C295 C288 1.409 . S
C295 C294 1.362 . S
H296 C302 0.930 . S
H297 C305 0.930 . S
H298 C306 0.930 . S
H299 C307 0.930 . S
H300 C310 0.930 . S
H301 C311 0.930 . S
C302 H296 0.930 . S
C302 C303 1.355 . S
C302 C304 1.415 . S
C303 C302 1.355 . S
C303 C305 1.419 1_455 S
C304 C302 1.415 . S
C304 C309 1.425 1_455 S
C304 C311 1.409 . S
C305 H297 0.930 . S
C305 C303 1.419 1_655 S
C305 C306 1.362 . S
C306 H298 0.930 . S
C306 C305 1.362 . S
C306 C309 1.409 . S
C307 H299 0.930 . S
C307 C308 1.355 1_655 S
C307 C309 1.415 . S
C308 C307 1.355 1_455 S
C308 C310 1.419 . S
C309 C304 1.425 1_655 S
C309 C306 1.409 . S
C309 C307 1.415 . S
C310 H300 0.930 . S
C310 C308 1.419 . S
C310 C311 1.362 . S
C311 H301 0.930 . S
C311 C304 1.409 . S
C311 C310 1.362 . S
H312 C318 0.930 . S
H313 C321 0.930 . S
H314 C322 0.930 . S
H315 C323 0.930 . S
H316 C326 0.930 . S
H317 C327 0.930 . S
C318 H312 0.930 . S
C318 C319 1.355 1_565 S
C318 C320 1.415 . S
C319 C318 1.355 1_545 S
C319 C321 1.419 . S
C320 C318 1.415 . S
C320 C325 1.425 1_565 S
C320 C327 1.409 . S
C321 H313 0.930 . S
C321 C319 1.419 . S
C321 C322 1.362 . S
C322 H314 0.930 . S
C322 C321 1.362 . S
C322 C325 1.409 . S
C323 H315 0.930 . S
C323 C324 1.355 1_545 S
C323 C325 1.415 1_556 S
C324 C323 1.355 1_565 S
C324 C326 1.419 . S
C325 C320 1.425 1_545 S
C325 C322 1.409 . S
C325 C323 1.415 1_554 S
C326 H316 0.930 . S
C326 C324 1.419 . S
C326 C327 1.362 1_556 S
C327 H317 0.930 . S
C327 C320 1.409 . S
C327 C326 1.362 1_554 S
H328 C334 0.930 . S
H329 C337 0.930 . S
H330 C338 0.930 . S
H331 C339 0.930 . S
H332 C342 0.930 . S
H333 C343 0.930 . S
C334 H328 0.930 . S
C334 C335 1.355 . S
C334 C336 1.415 . S
C335 C334 1.355 . S
C335 C337 1.419 . S
C336 C334 1.415 . S
C336 C341 1.425 . S
C336 C343 1.409 1_554 S
C337 H329 0.930 . S
C337 C335 1.419 . S
C337 C338 1.362 . S
C338 H330 0.930 . S
C338 C337 1.362 . S
C338 C341 1.409 . S
C339 H331 0.930 . S
C339 C340 1.355 1_554 S
C339 C341 1.415 . S
C340 C339 1.355 1_556 S
C340 C342 1.419 . S
C341 C336 1.425 . S
C341 C338 1.409 . S
C341 C339 1.415 . S
C342 H332 0.930 . S
C342 C340 1.419 . S
C342 C343 1.362 . S
C343 H333 0.930 . S
C343 C336 1.409 1_556 S
C343 C342 1.362 . S
H344 C350 0.930 . S
H345 C353 0.930 . S
H346 C354 0.930 . S
H347 C355 0.930 . S
H348 C358 0.930 . S
H349 C359 0.930 . S
C350 H344 0.930 . S
C350 C351 1.355 . S
C350 C352 1.415 . S
C351 C350 1.355 . S
C351 C353 1.419 . S
C352 C350 1.415 . S
C352 C357 1.425 . S
C352 C359 1.409 . S
C353 H345 0.930 . S
C353 C351 1.419 . S
C353 C354 1.362 . S
C354 H346 0.930 . S
C354 C353 1.362 . S
C354 C357 1.409 . S
C355 H347 0.930 . S
C355 C356 1.355 . S
C355 C357 1.415 1_556 S
C356 C355 1.355 . S
C356 C358 1.419 . S
C357 C352 1.425 . S
C357 C354 1.409 . S
C357 C355 1.415 1_554 S
C358 H348 0.930 . S
C358 C356 1.419 . S
C358 C359 1.362 1_556 S
C359 H349 0.930 . S
C359 C352 1.409 . S
C359 C358 1.362 1_554 S
H360 C366 0.930 . S
H361 C369 0.930 . S
H362 C370 0.930 . S
H363 C371 0.930 . S
H364 C374 0.930 . S
H365 C375 0.930 . S
C366 H360 0.930 . S
C366 C367 1.355 1_455 S
C366 C368 1.415 . S
C367 C366 1.355 1_655 S
C367 C369 1.419 . S
C368 C366 1.415 . S
C368 C373 1.425 1_455 S
C368 C375 1.409 . S
C369 H361 0.930 . S
C369 C367 1.419 . S
C369 C370 1.362 . S
C370 H362 0.930 . S
C370 C369 1.362 . S
C370 C373 1.409 . S
C371 H363 0.930 . S
C371 C372 1.355 1_655 S
C371 C373 1.415 1_556 S
C372 C371 1.355 1_455 S
C372 C374 1.419 . S
C373 C368 1.425 1_655 S
C373 C370 1.409 . S
C373 C371 1.415 1_554 S
C374 H364 0.930 . S
C374 C372 1.419 . S
C374 C375 1.362 1_556 S
C375 H365 0.930 . S
C375 C368 1.409 . S
C375 C374 1.362 1_554 S
H376 C382 0.930 . S
H377 C385 0.930 . S
H378 C386 0.930 . S
H379 C387 0.930 . S
H380 C390 0.930 1_455 S
H381 C391 0.930 . S
C382 H376 0.930 . S
C382 C383 1.337 1_455 S
C382 C384 1.415 1_455 S
C383 C382 1.337 1_655 S
C383 C385 1.460 . S
C384 C382 1.415 1_655 S
C384 C389 1.425 . S
C384 C391 1.409 1_655 S
C385 H377 0.930 . S
C385 C383 1.460 . S
C385 C386 1.362 . S
C386 H378 0.930 . S
C386 C385 1.362 . S
C386 C389 1.409 . S
C387 H379 0.930 . S
C387 C388 1.355 . S
C387 C389 1.415 . S
C388 C387 1.355 . S
C388 C390 1.419 . S
C389 C384 1.425 . S
C389 C386 1.409 . S
C389 C387 1.415 . S
C390 H380 0.930 1_655 S
C390 C388 1.419 . S
C390 C391 1.362 1_655 S
C391 H381 0.930 . S
C391 C384 1.409 1_455 S
C391 C390 1.362 1_455 S
H392 C398 0.930 . S
H393 C401 0.930 . S
H394 C402 0.930 . S
H395 C403 0.930 . S
H396 C406 0.930 1_545 S
H397 C407 0.930 . S
C398 H392 0.930 . S
C398 C399 1.355 1_545 S
C398 C400 1.415 1_545 S
C399 C398 1.355 1_565 S
C399 C401 1.419 . S
C400 C398 1.415 1_565 S
C400 C405 1.425 . S
C400 C407 1.409 1_565 S
C401 H393 0.930 . S
C401 C399 1.419 . S
C401 C402 1.362 . S
C402 H394 0.930 . S
C402 C401 1.362 . S
C402 C405 1.409 . S
C403 H395 0.930 . S
C403 C404 1.355 . S
C403 C405 1.415 . S
C404 C403 1.355 . S
C404 C406 1.419 . S
C405 C400 1.425 . S
C405 C402 1.409 . S
C405 C403 1.415 . S
C406 H396 0.930 1_565 S
C406 C404 1.419 . S
C406 C407 1.362 1_565 S
C407 H397 0.930 . S
C407 C400 1.409 1_545 S
C407 C406 1.362 1_545 S
H408 C414 0.930 . S
H409 C417 0.930 . S
H410 C418 0.930 . S
H411 C419 0.930 . S
H412 C422 0.930 . S
H413 C423 0.930 . S
C414 H408 0.930 . S
C414 C415 1.355 . S
C414 C416 1.415 . S
C415 C414 1.355 . S
C415 C417 1.419 . S
C416 C414 1.415 . S
C416 C421 1.425 . S
C416 C423 1.409 . S
C417 H409 0.930 . S
C417 C415 1.419 . S
C417 C418 1.362 . S
C418 H410 0.930 . S
C418 C417 1.362 . S
C418 C421 1.409 . S
C419 H411 0.930 . S
C419 C420 1.355 . S
C419 C421 1.415 . S
C420 C419 1.355 . S
C420 C422 1.419 . S
C421 C416 1.425 . S
C421 C418 1.409 . S
C421 C419 1.415 . S
C422 H412 0.930 . S
C422 C420 1.419 . S
C422 C423 1.362 . S
C423 H413 0.930 . S
C423 C416 1.409 . S
C423 C422 1.362 . S
H424 C430 0.930 . S
H425 C433 0.930 . S
H426 C434 0.930 . S
H427 C435 0.930 . S
H428 C438 0.930 . S
H429 C439 0.930 . S
C430 H424 0.930 . S
C430 C431 1.355 . S
C430 C432 1.415 . S
C431 C430 1.355 . S
C431 C433 1.419 . S
C432 C430 1.415 . S
C432 C437 1.425 . S
C432 C439 1.409 . S
C433 H425 0.930 . S
C433 C431 1.419 . S
C433 C434 1.362 . S
C434 H426 0.930 . S
C434 C433 1.362 . S
C434 C437 1.409 . S
C435 H427 0.930 . S
C435 C436 1.355 . S
C435 C437 1.415 . S
C436 C435 1.355 . S
C436 C438 1.419 . S
C437 C432 1.425 . S
C437 C434 1.409 . S
C437 C435 1.415 . S
C438 H428 0.930 . S
C438 C436 1.419 . S
C438 C439 1.362 . S
C439 H429 0.930 . S
C439 C432 1.409 . S
C439 C438 1.362 . S
H440 C446 0.930 . S
H441 C449 0.930 . S
H442 C450 0.930 . S
H443 C451 0.930 . S
H444 C454 0.930 . S
H445 C455 0.930 . S
C446 H440 0.930 . S
C446 C447 1.355 1_455 S
C446 C448 1.415 . S
C447 C446 1.355 1_655 S
C447 C449 1.419 . S
C448 C446 1.415 . S
C448 C453 1.425 . S
C448 C455 1.409 . S
C449 H441 0.930 . S
C449 C447 1.419 . S
C449 C450 1.362 . S
C450 H442 0.930 . S
C450 C449 1.362 . S
C450 C453 1.409 1_655 S
C451 H443 0.930 . S
C451 C452 1.355 . S
C451 C453 1.415 . S
C452 C451 1.355 . S
C452 C454 1.419 . S
C453 C448 1.425 . S
C453 C450 1.409 1_455 S
C453 C451 1.415 . S
C454 H444 0.930 . S
C454 C452 1.419 . S
C454 C455 1.362 . S
C455 H445 0.930 . S
C455 C448 1.409 . S
C455 C454 1.362 . S
H456 C462 0.930 1_565 S
H457 C465 0.930 . S
H458 C466 0.930 . S
H459 C467 0.930 . S
H460 C470 0.930 . S
H461 C471 0.930 . S
C462 H456 0.930 1_545 S
C462 C463 1.355 1_545 S
C462 C464 1.415 . S
C463 C462 1.355 1_565 S
C463 C465 1.419 1_565 S
C464 C462 1.415 . S
C464 C469 1.425 . S
C464 C471 1.409 . S
C465 H457 0.930 . S
C465 C463 1.419 1_545 S
C465 C466 1.362 . S
C466 H458 0.930 . S
C466 C465 1.362 . S
C466 C469 1.409 . S
C467 H459 0.930 . S
C467 C468 1.355 . S
C467 C469 1.415 . S
C468 C467 1.355 . S
C468 C470 1.419 . S
C469 C464 1.425 . S
C469 C466 1.409 . S
C469 C467 1.415 . S
C470 H460 0.930 . S
C470 C468 1.419 . S
C470 C471 1.362 . S
C471 H461 0.930 . S
C471 C464 1.409 . S
C471 C470 1.362 . S
H472 C478 0.930 . S
H473 C481 0.930 . S
H474 C482 0.930 . S
H475 C483 0.930 . S
H476 C486 0.930 . S
H477 C487 0.930 . S
C478 H472 0.930 . S
C478 C479 1.355 . S
C478 C480 1.415 . S
C479 C478 1.355 . S
C479 C481 1.419 . S
C480 C478 1.415 . S
C480 C485 1.425 . S
C480 C487 1.409 . S
C481 H473 0.930 . S
C481 C479 1.419 . S
C481 C482 1.362 . S
C482 H474 0.930 . S
C482 C481 1.362 . S
C482 C485 1.409 . S
C483 H475 0.930 . S
C483 C484 1.355 . S
C483 C485 1.415 . S
C484 C483 1.355 . S
C484 C486 1.419 . S
C485 C480 1.425 . S
C485 C482 1.409 . S
C485 C483 1.415 . S
C486 H476 0.930 . S
C486 C484 1.419 . S
C486 C487 1.362 . S
C487 H477 0.930 . S
C487 C480 1.409 . S
C487 C486 1.362 . S
H488 C494 0.930 . S
H489 C497 0.930 . S
H490 C498 0.930 . S
H491 C499 0.930 . S
H492 C502 0.930 . S
H493 C503 0.930 . S
C494 H488 0.930 . S
C494 C495 1.355 . S
C494 C496 1.415 . S
C495 C494 1.355 . S
C495 C497 1.419 . S
C496 C494 1.415 . S
C496 C501 1.425 . S
C496 C503 1.409 . S
C497 H489 0.930 . S
C497 C495 1.419 . S
C497 C498 1.362 . S
C498 H490 0.930 . S
C498 C497 1.362 . S
C498 C501 1.409 . S
C499 H491 0.930 . S
C499 C500 1.355 . S
C499 C501 1.415 . S
C500 C499 1.355 . S
C500 C502 1.419 . S
C501 C496 1.425 . S
C501 C498 1.409 . S
C501 C499 1.415 . S
C502 H492 0.930 . S
C502 C500 1.419 . S
C502 C503 1.362 . S
C503 H493 0.930 . S
C503 C496 1.409 . S
C503 C502 1.362 . S
H504 C510 0.930 . S
H505 C513 0.930 . S
H506 C514 0.930 . S
H507 C515 0.930 . S
H508 C518 0.930 . S
H509 C519 0.930 . S
C510 H504 0.930 . S
C510 C511 1.346 1_455 S
C510 C512 1.415 . S
C511 C510 1.346 1_655 S
C511 C513 1.429 . S
C512 C510 1.415 . S
C512 C517 1.425 1_455 S
C512 C519 1.409 . S
C513 H505 0.930 . S
C513 C511 1.429 . S
C513 C514 1.362 . S
C514 H506 0.930 . S
C514 C513 1.362 . S
C514 C517 1.409 . S
C515 H507 0.930 . S
C515 C516 1.355 1_655 S
C515 C517 1.415 . S
C516 C515 1.355 1_455 S
C516 C518 1.419 . S
C517 C512 1.425 1_655 S
C517 C514 1.409 . S
C517 C515 1.415 . S
C518 H508 0.930 . S
C518 C516 1.419 . S
C518 C519 1.362 . S
C519 H509 0.930 . S
C519 C512 1.409 . S
C519 C518 1.362 . S
H520 C526 0.930 . S
H521 C529 0.930 . S
H522 C530 0.930 . S
H523 C531 0.948 . S
H524 C534 0.930 . S
H525 C535 0.930 . S
C526 H520 0.930 . S
C526 C527 1.358 . S
C526 C528 1.415 . S
C527 C526 1.358 . S
C527 C529 1.415 1_545 S
C528 C526 1.415 . S
C528 C533 1.425 1_545 S
C528 C535 1.409 . S
C529 H521 0.930 . S
C529 C527 1.415 1_565 S
C529 C530 1.362 . S
C530 H522 0.930 . S
C530 C529 1.362 . S
C530 C533 1.409 . S
C531 H523 0.948 . S
C531 C532 1.338 1_565 S
C531 C533 1.415 . S
C532 C531 1.338 1_545 S
C532 C534 1.419 . S
C533 C528 1.425 1_565 S
C533 C530 1.409 . S
C533 C531 1.415 . S
C534 H524 0.930 . S
C534 C532 1.419 . S
C534 C535 1.362 . S
C535 H525 0.930 . S
C535 C528 1.409 . S
C535 C534 1.362 . S
H536 C542 0.930 . S
H537 C545 0.930 . S
H538 C546 0.930 . S
H539 C547 0.930 . S
H540 C550 0.930 . S
H541 C551 0.930 . S
C542 H536 0.930 . S
C542 C543 1.355 . S
C542 C544 1.415 . S
C543 C542 1.355 . S
C543 C545 1.419 . S
C544 C542 1.415 . S
C544 C549 1.425 . S
C544 C551 1.409 . S
C545 H537 0.930 . S
C545 C543 1.419 . S
C545 C546 1.362 . S
C546 H538 0.930 . S
C546 C545 1.362 . S
C546 C549 1.409 . S
C547 H539 0.930 . S
C547 C548 1.355 . S
C547 C549 1.415 . S
C548 C547 1.355 . S
C548 C550 1.419 . S
C549 C544 1.425 . S
C549 C546 1.409 . S
C549 C547 1.415 . S
C550 H540 0.930 . S
C550 C548 1.419 . S
C550 C551 1.362 . S
C551 H541 0.930 . S
C551 C544 1.409 . S
C551 C550 1.362 . S
H552 C558 0.930 . S
H553 C561 0.930 . S
H554 C562 0.930 . S
H555 C563 0.930 . S
H556 C566 0.930 . S
H557 C567 0.930 . S
C558 H552 0.930 . S
C558 C559 1.355 . S
C558 C560 1.415 . S
C559 C558 1.355 . S
C559 C561 1.419 . S
C560 C558 1.415 . S
C560 C565 1.425 . S
C560 C567 1.409 . S
C561 H553 0.930 . S
C561 C559 1.419 . S
C561 C562 1.362 . S
C562 H554 0.930 . S
C562 C561 1.362 . S
C562 C565 1.409 . S
C563 H555 0.930 . S
C563 C564 1.355 . S
C563 C565 1.415 . S
C564 C563 1.355 . S
C564 C566 1.419 . S
C565 C560 1.425 . S
C565 C562 1.409 . S
C565 C563 1.415 . S
C566 H556 0.930 . S
C566 C564 1.419 . S
C566 C567 1.362 . S
C567 H557 0.930 . S
C567 C560 1.409 . S
C567 C566 1.362 . S
H568 C574 0.930 . S
H569 C577 0.930 . S
H570 C578 0.930 . S
H571 C579 0.930 . S
H572 C582 0.930 . S
H573 C583 0.930 . S
C574 H568 0.930 . S
C574 C575 1.355 . S
C574 C576 1.415 . S
C575 C574 1.355 . S
C575 C577 1.419 . S
C576 C574 1.415 . S
C576 C581 1.425 . S
C576 C583 1.409 . S
C577 H569 0.930 . S
C577 C575 1.419 . S
C577 C578 1.362 . S
C578 H570 0.930 . S
C578 C577 1.362 . S
C578 C581 1.409 . S
C579 H571 0.930 . S
C579 C580 1.355 . S
C579 C581 1.415 . S
C580 C579 1.355 . S
C580 C582 1.419 . S
C581 C576 1.425 . S
C581 C578 1.409 . S
C581 C579 1.415 . S
C582 H572 0.930 . S
C582 C580 1.419 . S
C582 C583 1.362 . S
C583 H573 0.930 . S
C583 C576 1.409 . S
C583 C582 1.362 . S
H584 C590 0.930 . S
H585 C593 0.930 . S
H586 C594 0.930 . S
H587 C595 0.930 . S
H588 C598 0.930 . S
H589 C599 0.930 . S
C590 H584 0.930 . S
C590 C591 1.355 1_545 S
C590 C592 1.415 . S
C591 C590 1.355 1_565 S
C591 C593 1.419 . S
C592 C590 1.415 . S
C592 C597 1.425 1_545 S
C592 C599 1.409 . S
C593 H585 0.930 . S
C593 C591 1.419 . S
C593 C594 1.362 . S
C594 H586 0.930 . S
C594 C593 1.362 . S
C594 C597 1.409 . S
C595 H587 0.930 . S
C595 C596 1.355 . S
C595 C597 1.415 . S
C596 C595 1.355 . S
C596 C598 1.419 1_565 S
C597 C592 1.425 1_565 S
C597 C594 1.409 . S
C597 C595 1.415 . S
C598 H588 0.930 . S
C598 C596 1.419 1_545 S
C598 C599 1.362 . S
C599 H589 0.930 . S
C599 C592 1.409 . S
C599 C598 1.362 . S
H600 C606 0.930 . S
H601 C609 0.930 . S
H602 C610 0.930 . S
H603 C611 0.930 . S
H604 C614 0.930 . S
H605 C615 0.930 . S
C606 H600 0.930 . S
C606 C607 1.355 . S
C606 C608 1.415 . S
C607 C606 1.355 . S
C607 C609 1.419 . S
C608 C606 1.415 . S
C608 C613 1.425 . S
C608 C615 1.409 . S
C609 H601 0.930 . S
C609 C607 1.419 . S
C609 C610 1.362 . S
C610 H602 0.930 . S
C610 C609 1.362 . S
C610 C613 1.409 . S
C611 H603 0.930 . S
C611 C612 1.355 . S
C611 C613 1.415 . S
C612 C611 1.355 . S
C612 C614 1.419 . S
C613 C608 1.425 . S
C613 C610 1.409 . S
C613 C611 1.415 . S
C614 H604 0.930 . S
C614 C612 1.419 . S
C614 C615 1.362 . S
C615 H605 0.930 . S
C615 C608 1.409 . S
C615 C614 1.362 . S
H616 C622 0.930 . S
H617 C625 0.930 . S
H618 C626 0.930 . S
H619 C627 0.930 . S
H620 C630 0.930 . S
H621 C631 0.930 . S
C622 H616 0.930 . S
C622 C623 1.355 . S
C622 C624 1.415 . S
C623 C622 1.355 . S
C623 C625 1.419 . S
C624 C622 1.415 . S
C624 C629 1.425 . S
C624 C631 1.409 . S
C625 H617 0.930 . S
C625 C623 1.419 . S
C625 C626 1.362 . S
C626 H618 0.930 . S
C626 C625 1.362 . S
C626 C629 1.409 . S
C627 H619 0.930 . S
C627 C628 1.355 . S
C627 C629 1.415 . S
C628 C627 1.355 . S
C628 C630 1.419 . S
C629 C624 1.425 . S
C629 C626 1.409 . S
C629 C627 1.415 . S
C630 H620 0.930 . S
C630 C628 1.419 . S
C630 C631 1.362 . S
C631 H621 0.930 . S
C631 C624 1.409 . S
C631 C630 1.362 . S
C255 C74 1.893 1_565 S
C260 C106 1.998 1_545 S
C276 C146 2.006 . S
C271 C85 1.885 . S
C292 C186 2.014 . S
C287 C52 1.904 . S
C308 C226 2.007 1_455 S
C303 C63 1.825 . S
C324 C96 2.005 1_565 S
C319 C30 1.835 . S
C335 C41 1.910 . S
C340 C136 2.010 . S
C351 C8 1.866 . S
C356 C176 2.022 . S
C367 C19 1.876 1_655 S
C372 C216 1.999 . S
C388 C93 0.603 . S
C383 C62 0.645 1_655 S
C404 C133 0.600 . S
C399 C73 0.659 1_565 S
C420 C173 0.626 . S
C415 C84 0.688 . S
C431 C51 0.670 . S
C436 C213 0.709 . S
C447 C18 0.745 1_655 S
C452 C103 0.691 . S
C468 C143 0.693 . S
C463 C29 0.672 1_565 S
C484 C183 0.604 . S
C479 C40 0.597 . S
C495 C7 0.580 . S
C500 C223 0.598 . S
C511 C60 1.846 1_655 S
C516 C97 2.376 . S
C527 C71 1.802 . S
C532 C137 2.349 . S
C548 C177 2.340 . S
C543 C82 1.780 . S
C564 C217 2.338 . S
C559 C49 1.718 . S
C575 C16 1.869 1_655 S
C580 C107 2.360 . S
C596 C147 2.336 . S
C591 C27 1.899 1_565 S
C612 C187 2.341 . S
C607 C38 1.817 . S
C623 C5 1.874 . S
C628 C227 2.372 . S
