# Generated by pormake.
# Topology anh, (6,3)-cn, num edge types: 1
# Building blocks:
#     Node 0, Type 0, BuildingBlock: BETDAH_clean_sbu_0, # of connection points: 6
#     Node 1, Type 0, BuildingBlock: BETDAH_clean_sbu_0, # of connection points: 6
#     Node 2, Type 0, BuildingBlock: BETDAH_clean_sbu_0, # of connection points: 6
#     Node 3, Type 1, BuildingBlock: OLANEW_clean_sbu_2, # of connection points: 3
#     Node 4, Type 1, BuildingBlock: OLANEW_clean_sbu_2, # of connection points: 3
#     Node 5, Type 1, BuildingBlock: OLANEW_clean_sbu_2, # of connection points: 3
#     Node 6, Type 1, BuildingBlock: OLANEW_clean_sbu_2, # of connection points: 3
#     Node 7, Type 1, BuildingBlock: OLANEW_clean_sbu_2, # of connection points: 3
#     Node 8, Type 1, BuildingBlock: OLANEW_clean_sbu_2, # of connection points: 3
#     Edge 9, Type (0, 1), BuildingBlock: MIFKUJ_clean_linker_0, # of connection points: 2
#     Edge 10, Type (0, 1), BuildingBlock: MIFKUJ_clean_linker_0, # of connection points: 2
#     Edge 11, Type (0, 1), BuildingBlock: MIFKUJ_clean_linker_0, # of connection points: 2
#     Edge 12, Type (0, 1), BuildingBlock: MIFKUJ_clean_linker_0, # of connection points: 2
#     Edge 13, Type (0, 1), BuildingBlock: MIFKUJ_clean_linker_0, # of connection points: 2
#     Edge 14, Type (0, 1), BuildingBlock: MIFKUJ_clean_linker_0, # of connection points: 2
#     Edge 15, Type (0, 1), BuildingBlock: MIFKUJ_clean_linker_0, # of connection points: 2
#     Edge 16, Type (0, 1), BuildingBlock: MIFKUJ_clean_linker_0, # of connection points: 2
#     Edge 17, Type (0, 1), BuildingBlock: MIFKUJ_clean_linker_0, # of connection points: 2
#     Edge 18, Type (0, 1), BuildingBlock: MIFKUJ_clean_linker_0, # of connection points: 2
#     Edge 19, Type (0, 1), BuildingBlock: MIFKUJ_clean_linker_0, # of connection points: 2
#     Edge 20, Type (0, 1), BuildingBlock: MIFKUJ_clean_linker_0, # of connection points: 2
#     Edge 21, Type (0, 1), BuildingBlock: MIFKUJ_clean_linker_0, # of connection points: 2
#     Edge 22, Type (0, 1), BuildingBlock: MIFKUJ_clean_linker_0, # of connection points: 2
#     Edge 23, Type (0, 1), BuildingBlock: MIFKUJ_clean_linker_0, # of connection points: 2
#     Edge 24, Type (0, 1), BuildingBlock: MIFKUJ_clean_linker_0, # of connection points: 2
#     Edge 25, Type (0, 1), BuildingBlock: MIFKUJ_clean_linker_0, # of connection points: 2
#     Edge 26, Type (0, 1), BuildingBlock: MIFKUJ_clean_linker_0, # of connection points: 2
# Relax obj value: 0.113
# Max RMSD: 0.157
# Mean RMSD: 0.110
data_MOF--net-anh--node1-BETDAH_clean_sbu_0--node2-OLANEW_clean_sbu_2--edge1-MIFKUJ_clean_linker_0
_symmetry_space_group_name_H-M    P1
_symmetry_Int_Tables_number       1
_symmetry_cell_setting            triclinic
loop_
_symmetry_equiv_pos_as_xyz
'x, y, z'
_cell_length_a     46.016604
_cell_length_b     50.274212
_cell_length_c     65.311979
_cell_angle_alpha  92.034791
_cell_angle_beta   89.711397
_cell_angle_gamma 128.25876
loop_
_atom_site_label
_atom_site_type_symbol
_atom_site_fract_x
_atom_site_fract_y
_atom_site_fract_z
_atom_type_partial_charge
Ho0 Ho 0.03027 0.50658 0.13619 0.0
Ho1 Ho 1.00101 0.54113 0.15745 0.0
C2 C 0.08654 0.58827 0.14781 0.0
C3 C 0.06119 0.49004 0.11144 0.0
C4 C 0.09818 0.4992 0.10996 0.0
C5 C 0.10278 0.47802 0.09852 0.0
C6 C 0.13685 0.48425 0.09878 0.0
C7 C 0.16688 0.51185 0.11045 0.0
C8 C 0.16263 0.53392 0.12121 0.0
C9 C 0.12839 0.52749 0.12109 0.0
C10 C 0.03135 0.50712 0.17744 0.0
C11 C 0.94477 0.4596 0.14672 0.0
C12 C 0.96931 0.55666 0.18222 0.0
C13 C 0.93048 0.54165 0.18632 0.0
C14 C 0.91629 0.52991 0.20587 0.0
C15 C 0.87894 0.51363 0.20968 0.0
C16 C 0.85531 0.50921 0.19404 0.0
C17 C 0.86966 0.52142 0.17458 0.0
C18 C 0.90683 0.53736 0.17071 0.0
C19 C 0.99986 0.53964 0.11604 0.0
O20 O 0.07969 0.56267 0.13619 0.0
O21 O 0.06126 0.58456 0.15991 0.0
O22 O 0.04258 0.47278 0.1274 0.0
O23 O 0.05869 0.51403 0.10791 0.0
O24 O 0.02708 0.48342 0.16587 0.0
O25 O 0.03864 0.53072 0.16666 0.0
O26 O 0.95207 0.48543 0.15819 0.0
O27 O 0.96947 0.46301 0.13415 0.0
O28 O 0.98227 0.57052 0.1645 0.0
O29 O 0.97937 0.53848 0.1874 0.0
O30 O 1.00578 0.56444 0.12728 0.0
O31 O 0.99232 0.51645 0.12725 0.0
H32 H 0.07971 0.4561 0.08986 0.0
H33 H 0.13953 0.46703 0.09022 0.0
H34 H 0.18523 0.5552 0.13046 0.0
H35 H 0.12521 0.54397 0.13014 0.0
H36 H 0.93402 0.53289 0.21812 0.0
H37 H 0.86855 0.50455 0.22483 0.0
H38 H 0.85189 0.51788 0.16217 0.0
H39 H 0.9168 0.54581 0.15542 0.0
Ho40 Ho 0.54408 0.0296 0.4977 0.0
Ho41 Ho 0.4941 0.047 0.48448 0.0
C42 C 0.45662 0.9692 0.48678 0.0
C43 C 0.5729 0.00581 0.51602 0.0
C44 C 0.56657 0.97337 0.51631 0.0
C45 C 0.58467 0.9688 0.53124 0.0
C46 C 0.57998 0.93857 0.53144 0.0
C47 C 0.55711 0.9123 0.51665 0.0
C48 C 0.53845 0.91682 0.50189 0.0
C49 C 0.54316 0.94713 0.50172 0.0
C50 C 0.54174 0.03627 0.45708 0.0
C51 C 0.58249 0.10705 0.49313 0.0
C52 C 0.46542 0.07235 0.46821 0.0
C53 C 0.47171 0.10497 0.47077 0.0
C54 C 0.50535 0.13579 0.46549 0.0
C55 C 0.51136 0.16647 0.46916 0.0
C56 C 0.48392 0.16706 0.47821 0.0
C57 C 0.45004 0.13608 0.48309 0.0
C58 C 0.44399 0.10544 0.47933 0.0
C59 C 0.49703 0.04048 0.52508 0.0
O60 O 0.48683 0.97892 0.49691 0.0
O61 O 0.45482 0.99112 0.4775 0.0
O62 O 0.58516 0.02175 0.4989 0.0
O63 O 0.54703 0.00622 0.52397 0.0
O64 O 0.57068 0.04407 0.46686 0.0
O65 O 0.51469 0.02256 0.46888 0.0
O66 O 0.55158 0.09704 0.48374 0.0
O67 O 0.58463 0.08577 0.50295 0.0
O68 O 0.45142 0.05293 0.48394 0.0
O69 O 0.49153 0.07287 0.45961 0.0
O70 O 0.46772 0.03178 0.51535 0.0
O71 O 0.5239 0.05443 0.51317 0.0
H72 H 0.60264 0.98872 0.54269 0.0
H73 H 0.59417 0.93573 0.54327 0.0
H74 H 0.52084 0.89724 0.4902 0.0
H75 H 0.52891 0.95026 0.49008 0.0
H76 H 0.52723 0.13633 0.45872 0.0
H77 H 0.53755 0.18974 0.46488 0.0
H78 H 0.42844 0.13548 0.49033 0.0
H79 H 0.41778 0.08207 0.48351 0.0
Ho80 Ho 0.5936 0.56613 0.86498 0.0
Ho81 Ho 0.53965 0.49005 0.86967 0.0
C82 C 0.50493 0.528 0.86833 0.0
C83 C 0.62581 0.62674 0.85298 0.0
C84 C 0.6126 0.64646 0.84996 0.0
C85 C 0.6286 0.67094 0.83506 0.0
C86 C 0.61484 0.68852 0.83129 0.0
C87 C 0.58478 0.68184 0.84239 0.0
C88 C 0.56894 0.65731 0.85739 0.0
C89 C 0.58269 0.63974 0.86111 0.0
C90 C 0.58098 0.54545 0.90381 0.0
C91 C 0.6295 0.52924 0.86763 0.0
C92 C 0.50599 0.42855 0.88043 0.0
C93 C 0.51169 0.40346 0.87534 0.0
C94 C 0.49415 0.3741 0.88652 0.0
C95 C 0.49849 0.34959 0.88112 0.0
C96 C 0.52034 0.35405 0.86438 0.0
C97 C 0.53851 0.384 0.85352 0.0
C98 C 0.53433 0.40853 0.85901 0.0
C99 C 0.54993 0.50995 0.83095 0.0
O100 O 0.53703 0.55336 0.86072 0.0
O101 O 0.50097 0.50215 0.87638 0.0
O102 O 0.62733 0.62 0.87193 0.0
O103 O 0.61153 0.6005 0.84032 0.0
O104 O 0.61306 0.57146 0.89777 0.0
O105 O 0.55748 0.53347 0.88949 0.0
O106 O 0.59604 0.50185 0.87244 0.0
O107 O 0.63511 0.55696 0.86178 0.0
O108 O 0.49488 0.43655 0.86514 0.0
O109 O 0.53234 0.45506 0.89153 0.0
O110 O 0.51851 0.48423 0.83765 0.0
O111 O 0.57495 0.52235 0.84455 0.0
H112 H 0.6514 0.67612 0.82614 0.0
H113 H 0.62727 0.70685 0.81941 0.0
H114 H 0.54604 0.6518 0.86635 0.0
H115 H 0.56977 0.62074 0.87261 0.0
H116 H 0.47684 0.36999 0.89928 0.0
H117 H 0.48462 0.32711 0.89002 0.0
H118 H 0.55512 0.38812 0.84039 0.0
H119 H 0.54823 0.43122 0.85027 0.0
O120 O 0.53829 0.05797 0.22731 0.0
Cd121 Cd 0.54005 0.06428 0.19023 0.0
O122 O 0.49688 0.00219 0.22785 0.0
Cd123 Cd 0.48169 0.98721 0.19544 0.0
O124 O 0.43994 0.94182 0.17653 0.0
C125 C 0.4378 0.91563 0.17879 0.0
O126 O 0.46225 0.91815 0.19085 0.0
C127 C 0.51911 0.03091 0.23723 0.0
C128 C 0.60268 0.12909 0.18007 0.0
O129 O 0.5723 0.12355 0.1847 0.0
O130 O 0.60338 0.10399 0.18007 0.0
O131 O 0.54403 0.52525 0.60182 0.0
Cd132 Cd 0.54124 0.5245 0.56434 0.0
O133 O 0.52185 0.55307 0.60755 0.0
Cd134 Cd 0.51859 0.56458 0.57604 0.0
O135 O 0.51706 0.59817 0.5564 0.0
C136 C 0.54596 0.62896 0.5562 0.0
O137 O 0.57559 0.63819 0.56646 0.0
C138 C 0.53376 0.5379 0.61426 0.0
C139 C 0.53366 0.46861 0.54706 0.0
O140 O 0.56566 0.49669 0.5514 0.0
O141 O 0.50522 0.46699 0.55074 0.0
O142 O 0.10594 0.53744 0.90116 0.0
Cd143 Cd 0.13943 0.54375 0.86943 0.0
O144 O 0.06317 0.53977 0.88823 0.0
Cd145 Cd 0.01285 0.53689 0.89023 0.0
O146 O 0.96002 0.52983 0.88959 0.0
C147 C 0.95929 0.55367 0.88453 0.0
O148 O 0.99056 0.58291 0.87998 0.0
C149 C 0.07835 0.53743 0.9036 0.0
C150 C 0.19821 0.53983 0.8721 0.0
O151 O 0.20331 0.56748 0.8767 0.0
O152 O 0.16527 0.51377 0.86688 0.0
O153 O 0.09057 0.54283 0.40522 0.0
Cd154 Cd 0.09585 0.54862 0.44256 0.0
O155 O 0.03095 0.51072 0.40959 0.0
Cd156 Cd 0.97181 0.47413 0.40243 0.0
O157 O 0.91661 0.43056 0.41108 0.0
C158 C 0.91573 0.4099 0.42226 0.0
O159 O 0.947 0.41568 0.4269 0.0
C160 C 0.05803 0.52468 0.3975 0.0
C161 C 0.15238 0.61546 0.45504 0.0
O162 O 0.15834 0.59376 0.45296 0.0
O163 O 0.11954 0.60538 0.45145 0.0
O164 O 0.45601 0.9266 0.73874 0.0
Cd165 Cd 0.44075 0.91025 0.77429 0.0
O166 O 0.47909 0.9772 0.75104 0.0
Cd167 Cd 0.50648 0.0315 0.75185 0.0
O168 O 0.52082 0.07952 0.76362 0.0
C169 C 0.49668 0.07707 0.77483 0.0
O170 O 0.46563 0.04678 0.77796 0.0
C171 C 0.4718 0.95758 0.73566 0.0
C172 C 0.4606 0.87093 0.78653 0.0
O173 O 0.42775 0.85703 0.77979 0.0
O174 O 0.484 0.90339 0.78737 0.0
O175 O 0.44538 0.34879 0.09383 0.0
Cd176 Cd 0.4215 0.31996 0.12609 0.0
O177 O 0.46537 0.39475 0.11211 0.0
Cd178 Cd 0.48413 0.44668 0.11531 0.0
O179 O 0.46671 0.47824 0.11853 0.0
C180 C 0.435 0.46264 0.12642 0.0
O181 O 0.41818 0.43152 0.13218 0.0
C182 C 0.46218 0.38054 0.09486 0.0
C183 C 0.48132 0.34262 0.15175 0.0
O184 O 0.46441 0.31432 0.14153 0.0
O185 O 0.46927 0.35963 0.15028 0.0
H186 H 0.17256 0.46304 0.11959 0.0
H187 H 0.2288 0.46889 0.12473 0.0
H188 H 0.29538 0.57509 0.11214 0.0
H189 H 0.23872 0.56941 0.10706 0.0
H190 H 0.31575 0.53594 0.09097 0.0
H191 H 0.29662 0.56188 0.15808 0.0
H192 H 0.26045 0.55432 0.18841 0.0
H193 H 0.23333 0.45703 0.19709 0.0
H194 H 0.26885 0.46374 0.1666 0.0
H195 H 0.46086 0.52639 0.11598 0.0
H196 H 0.42627 0.54881 0.11601 0.0
H197 H 0.33094 0.45473 0.13908 0.0
H198 H 0.36533 0.43275 0.13964 0.0
H199 H 0.33789 0.50558 0.15739 0.0
H200 H 0.34315 0.47364 0.08665 0.0
H201 H 0.37569 0.47784 0.05529 0.0
H202 H 0.42614 0.58357 0.05288 0.0
H203 H 0.39419 0.58004 0.08438 0.0
C204 C 0.19914 0.48759 0.11774 0.0
C205 C 0.20134 0.51575 0.11282 0.0
C206 C 0.23122 0.49095 0.12083 0.0
C207 C 0.26614 0.52246 0.11896 0.0
C208 C 0.2686 0.55061 0.11371 0.0
C209 C 0.23635 0.54736 0.11088 0.0
C210 C 0.29963 0.52519 0.12244 0.0
C211 C 0.32135 0.53023 0.10562 0.0
C212 C 0.3065 0.51737 0.1415 0.0
C213 C 0.2853 0.51328 0.15997 0.0
C214 C 0.28274 0.53876 0.16636 0.0
C215 C 0.26238 0.53464 0.1836 0.0
C216 C 0.24458 0.5052 0.19466 0.0
C217 C 0.24715 0.47983 0.18851 0.0
C218 C 0.26745 0.48381 0.17127 0.0
C219 C 0.43265 0.51069 0.12126 0.0
C220 C 0.41575 0.4777 0.12767 0.0
C221 C 0.4129 0.52348 0.1212 0.0
C222 C 0.37585 0.5033 0.12732 0.0
C223 C 0.3595 0.47084 0.13433 0.0
C224 C 0.3792 0.45821 0.13455 0.0
C225 C 0.35293 0.51469 0.12567 0.0
C226 C 0.33316 0.51234 0.14288 0.0
C227 C 0.34763 0.52463 0.1069 0.0
C228 C 0.3667 0.52668 0.08798 0.0
C229 C 0.3614 0.49783 0.0795 0.0
C230 C 0.37969 0.50007 0.0617 0.0
C231 C 0.40308 0.53098 0.05214 0.0
C232 C 0.40811 0.55967 0.06033 0.0
C233 C 0.38991 0.55756 0.07815 0.0
H234 H 0.41721 0.53267 0.03836 0.0
H235 H 0.22882 0.50206 0.208 0.0
H236 H 0.65424 0.13423 0.5021 0.0
H237 H 0.70996 0.18989 0.49315 0.0
H238 H 0.64268 0.21556 0.47026 0.0
H239 H 0.58684 0.1598 0.47887 0.0
H240 H 0.69081 0.22653 0.44261 0.0
H241 H 0.69725 0.2551 0.51385 0.0
H242 H 0.69731 0.24792 0.551 0.0
H243 H 0.79446 0.25428 0.54556 0.0
H244 H 0.79469 0.26101 0.50832 0.0
H245 H 0.84709 0.39394 0.41918 0.0
H246 H 0.7895 0.34601 0.43394 0.0
H247 H 0.84717 0.31158 0.45885 0.0
H248 H 0.90485 0.35967 0.44455 0.0
H249 H 0.8022 0.30798 0.48655 0.0
H250 H 0.79235 0.27415 0.41526 0.0
H251 H 0.79186 0.27997 0.37795 0.0
H252 H 0.70054 0.28244 0.38359 0.0
H253 H 0.70081 0.27709 0.42099 0.0
C254 C 0.65128 0.15197 0.49557 0.0
C255 C 0.61609 0.14247 0.49104 0.0
C256 C 0.6832 0.18384 0.4905 0.0
C257 C 0.68049 0.20693 0.48105 0.0
C258 C 0.64541 0.1981 0.47745 0.0
C259 C 0.61351 0.16621 0.48242 0.0
C260 C 0.71398 0.23891 0.47327 0.0
C261 C 0.7149 0.2447 0.45232 0.0
C262 C 0.74572 0.26215 0.48582 0.0
C263 C 0.74581 0.25831 0.50825 0.0
C264 C 0.71848 0.25472 0.52055 0.0
C265 C 0.71849 0.25077 0.54163 0.0
C266 C 0.74583 0.25057 0.55062 0.0
C267 C 0.77328 0.25441 0.53856 0.0
C268 C 0.77339 0.25835 0.51747 0.0
C269 C 0.84747 0.37611 0.42776 0.0
C270 C 0.88052 0.38054 0.43062 0.0
C271 C 0.81454 0.34872 0.43616 0.0
C272 C 0.81398 0.32507 0.44737 0.0
C273 C 0.84697 0.32957 0.45032 0.0
C274 C 0.8799 0.357 0.44203 0.0
C275 C 0.77905 0.29537 0.45589 0.0
C276 C 0.77791 0.28999 0.47693 0.0
C277 C 0.74707 0.27241 0.44342 0.0
C278 C 0.74689 0.27562 0.42094 0.0
C279 C 0.77237 0.27622 0.40856 0.0
C280 C 0.77209 0.27938 0.3874 0.0
C281 C 0.74626 0.28168 0.37841 0.0
C282 C 0.72058 0.28073 0.39057 0.0
C283 C 0.72077 0.27762 0.41175 0.0
H284 H 0.74609 0.28412 0.36202 0.0
H285 H 0.74578 0.2475 0.56695 0.0
H286 H 0.51211 0.65622 0.84058 0.0
H287 H 0.48778 0.68656 0.83335 0.0
H288 H 0.59902 0.77878 0.8267 0.0
H289 H 0.62364 0.74903 0.83481 0.0
H290 H 0.55778 0.79041 0.84835 0.0
H291 H 0.54312 0.73014 0.78442 0.0
H292 H 0.52061 0.67855 0.76358 0.0
H293 H 0.40866 0.63386 0.77946 0.0
H294 H 0.43056 0.68514 0.8005 0.0
H295 H 0.53019 0.89174 0.79432 0.0
H296 H 0.54783 0.85755 0.80535 0.0
H297 H 0.43275 0.76933 0.80556 0.0
H298 H 0.415 0.80322 0.79378 0.0
H299 H 0.47111 0.75247 0.78931 0.0
H300 H 0.48344 0.81298 0.85081 0.0
H301 H 0.5042 0.86281 0.873 0.0
H302 H 0.61758 0.90492 0.86386 0.0
H303 H 0.59752 0.85555 0.84139 0.0
C304 C 0.53143 0.68307 0.83784 0.0
C305 C 0.56984 0.70019 0.83819 0.0
C306 C 0.51745 0.70028 0.83351 0.0
C307 C 0.54158 0.73482 0.82922 0.0
C308 C 0.57991 0.75209 0.8299 0.0
C309 C 0.59392 0.73497 0.83433 0.0
C310 C 0.52709 0.75304 0.82372 0.0
C311 C 0.53912 0.78236 0.83532 0.0
C312 C 0.50172 0.7418 0.80717 0.0
C313 C 0.48849 0.71134 0.79413 0.0
C314 C 0.51372 0.70926 0.7835 0.0
C315 C 0.50107 0.6801 0.77165 0.0
C316 C 0.46324 0.65294 0.77022 0.0
C317 C 0.43795 0.65493 0.78057 0.0
C318 C 0.45046 0.68406 0.79242 0.0
C319 C 0.50863 0.86507 0.79674 0.0
C320 C 0.4712 0.85019 0.79325 0.0
C321 C 0.51873 0.84558 0.80317 0.0
C322 C 0.49158 0.81097 0.80667 0.0
C323 C 0.45418 0.79599 0.80303 0.0
C324 C 0.44408 0.8154 0.79633 0.0
C325 C 0.50238 0.79037 0.81371 0.0
C326 C 0.48958 0.76052 0.80243 0.0
C327 C 0.52676 0.80095 0.83071 0.0
C328 C 0.53896 0.83067 0.84427 0.0
C329 C 0.51281 0.83298 0.85341 0.0
C330 C 0.52445 0.86112 0.86606 0.0
C331 C 0.56218 0.88704 0.8698 0.0
C332 C 0.58836 0.88483 0.86094 0.0
C333 C 0.57686 0.85675 0.84826 0.0
H334 H 0.57114 0.90881 0.8796 0.0
H335 H 0.45351 0.63036 0.76106 0.0
H336 H 0.80688 0.44887 0.21246 0.0
H337 H 0.73952 0.41599 0.2146 0.0
H338 H 0.74693 0.49564 0.18545 0.0
H339 H 0.81403 0.52864 0.18352 0.0
H340 H 0.69618 0.46707 0.21724 0.0
H341 H 0.73219 0.43018 0.15837 0.0
H342 H 0.76061 0.40569 0.14335 0.0
H343 H 0.68562 0.31478 0.17601 0.0
H344 H 0.65756 0.33919 0.19176 0.0
H345 H 0.53846 0.40887 0.16017 0.0
H346 H 0.59819 0.43243 0.17581 0.0
H347 H 0.56058 0.33136 0.18667 0.0
H348 H 0.50138 0.30766 0.16959 0.0
H349 H 0.62322 0.36268 0.17235 0.0
H350 H 0.57969 0.39258 0.22706 0.0
H351 H 0.55081 0.41497 0.2445 0.0
H352 H 0.63653 0.51433 0.22345 0.0
H353 H 0.66567 0.49248 0.20563 0.0
C354 C 0.79413 0.4596 0.20693 0.0
C355 C 0.81549 0.4911 0.19763 0.0
C356 C 0.75575 0.44079 0.2081 0.0
C357 C 0.73833 0.45331 0.2 0.0
C358 C 0.75989 0.48556 0.19177 0.0
C359 C 0.79812 0.50424 0.19051 0.0
C360 C 0.69757 0.43205 0.19827 0.0
C361 C 0.68002 0.44418 0.20748 0.0
C362 C 0.67644 0.40142 0.18625 0.0
C363 C 0.69315 0.38673 0.1765 0.0
C364 C 0.72204 0.40513 0.16254 0.0
C365 C 0.73812 0.39127 0.1539 0.0
C366 C 0.72513 0.3588 0.15884 0.0
C367 C 0.69587 0.34004 0.17233 0.0
C368 C 0.67994 0.35391 0.18115 0.0
C369 C 0.54273 0.3917 0.1662 0.0
C370 C 0.51538 0.35648 0.16369 0.0
C371 C 0.57685 0.40519 0.17534 0.0
C372 C 0.58389 0.38377 0.18288 0.0
C373 C 0.55593 0.34848 0.18104 0.0
C374 C 0.5221 0.33494 0.17133 0.0
C375 C 0.62156 0.3983 0.19072 0.0
C376 C 0.63872 0.38496 0.18263 0.0
C377 C 0.64213 0.42742 0.20415 0.0
C378 C 0.6248 0.44081 0.21493 0.0
C379 C 0.59228 0.41916 0.22605 0.0
C380 C 0.57587 0.43178 0.23602 0.0
C381 C 0.5918 0.46604 0.23507 0.0
C382 C 0.62423 0.48779 0.22418 0.0
C383 C 0.64075 0.47532 0.21418 0.0
H384 H 0.57904 0.47575 0.24279 0.0
H385 H 0.73762 0.34812 0.15216 0.0
H386 H 0.38643 0.93948 0.47253 0.0
H387 H 0.33438 0.87885 0.4694 0.0
H388 H 0.40313 0.85574 0.49367 0.0
H389 H 0.45525 0.91619 0.49694 0.0
H390 H 0.36346 0.81747 0.45829 0.0
H391 H 0.3413 0.84833 0.52349 0.0
H392 H 0.33277 0.88199 0.54737 0.0
H393 H 0.23786 0.85281 0.51218 0.0
H394 H 0.24615 0.81937 0.48789 0.0
H395 H 0.22167 0.64263 0.46942 0.0
H396 H 0.2729 0.70238 0.47715 0.0
H397 H 0.20351 0.72916 0.4607 0.0
H398 H 0.1518 0.66934 0.45359 0.0
H399 H 0.24442 0.76573 0.49322 0.0
H400 H 0.26744 0.73744 0.42722 0.0
H401 H 0.27592 0.70471 0.40243 0.0
H402 H 0.36897 0.73009 0.43786 0.0
H403 H 0.36073 0.76263 0.46302 0.0
C404 C 0.39048 0.92152 0.47723 0.0
C405 C 0.42497 0.93265 0.48498 0.0
C406 C 0.36068 0.88692 0.47551 0.0
C407 C 0.36492 0.86292 0.48144 0.0
C408 C 0.39934 0.87393 0.48906 0.0
C409 C 0.42904 0.90849 0.49095 0.0
C410 C 0.33367 0.82626 0.47923 0.0
C411 C 0.33759 0.806 0.46615 0.0
C412 C 0.29972 0.81164 0.48912 0.0
C413 C 0.29457 0.83161 0.50375 0.0
C414 C 0.3188 0.84933 0.52073 0.0
C415 C 0.31397 0.86832 0.53437 0.0
C416 C 0.28485 0.86961 0.53126 0.0
C417 C 0.26043 0.85183 0.51455 0.0
C418 C 0.26517 0.83282 0.50085 0.0
C419 C 0.21726 0.66123 0.46757 0.0
C420 C 0.1828 0.65133 0.46075 0.0
C421 C 0.24661 0.69538 0.47191 0.0
C422 C 0.24225 0.72032 0.46913 0.0
C423 C 0.20754 0.71038 0.4629 0.0
C424 C 0.17804 0.67618 0.4588 0.0
C425 C 0.27408 0.75682 0.47218 0.0
C426 C 0.27029 0.7771 0.4854 0.0
C427 C 0.30811 0.77157 0.46227 0.0
C428 C 0.31323 0.75217 0.44711 0.0
C429 C 0.28955 0.73584 0.4298 0.0
C430 C 0.29433 0.71736 0.41567 0.0
C431 C 0.3229 0.71525 0.4186 0.0
C432 C 0.34681 0.73171 0.43563 0.0
C433 C 0.34212 0.75019 0.44982 0.0
H434 H 0.32656 0.70092 0.40764 0.0
H435 H 0.28115 0.88433 0.54184 0.0
H436 H 0.58103 0.36132 0.84999 0.0
H437 H 0.58334 0.31676 0.83623 0.0
H438 H 0.46817 0.24114 0.85 0.0
H439 H 0.46523 0.2854 0.86324 0.0
H440 H 0.51231 0.22286 0.86061 0.0
H441 H 0.49095 0.26717 0.8028 0.0
H442 H 0.50596 0.3126 0.78052 0.0
H443 H 0.6105 0.33551 0.76681 0.0
H444 H 0.5963 0.29049 0.78926 0.0
H445 H 0.44923 0.07969 0.79821 0.0
H446 H 0.46027 0.12939 0.81494 0.0
H447 H 0.57055 0.19302 0.79094 0.0
H448 H 0.55946 0.14325 0.77376 0.0
H449 H 0.53759 0.22135 0.78678 0.0
H450 H 0.55741 0.17393 0.84138 0.0
H451 H 0.5441 0.12944 0.86394 0.0
H452 H 0.44582 0.11366 0.88438 0.0
H453 H 0.45824 0.15773 0.86171 0.0
C454 C 0.55614 0.33522 0.85004 0.0
C455 C 0.52287 0.32699 0.85762 0.0
C456 C 0.55759 0.30981 0.84226 0.0
C457 C 0.52585 0.27574 0.84198 0.0
C458 C 0.493 0.26731 0.85017 0.0
C459 C 0.49144 0.29267 0.85781 0.0
C460 C 0.52622 0.24882 0.83241 0.0
C461 C 0.5176 0.22234 0.84445 0.0
C462 C 0.53434 0.24887 0.81148 0.0
C463 C 0.54275 0.27575 0.79788 0.0
C464 C 0.51726 0.28209 0.79516 0.0
C465 C 0.5256 0.30772 0.78249 0.0
C466 C 0.55921 0.327 0.77231 0.0
C467 C 0.58451 0.3206 0.77474 0.0
C468 C 0.57632 0.29502 0.78743 0.0
C469 C 0.47588 0.10421 0.79647 0.0
C470 C 0.50352 0.10749 0.7847 0.0
C471 C 0.48223 0.13261 0.80616 0.0
C472 C 0.51647 0.16485 0.80449 0.0
C473 C 0.544 0.16834 0.79253 0.0
C474 C 0.53762 0.13989 0.78274 0.0
C475 C 0.52287 0.19484 0.81488 0.0
C476 C 0.53279 0.22197 0.80301 0.0
C477 C 0.51625 0.19553 0.83602 0.0
C478 C 0.50862 0.16898 0.84971 0.0
C479 C 0.5328 0.1608 0.85056 0.0
C480 C 0.52544 0.13568 0.86339 0.0
C481 C 0.4941 0.11869 0.87556 0.0
C482 C 0.47008 0.12683 0.87494 0.0
C483 C 0.47729 0.15191 0.86212 0.0
H484 H 0.48845 0.09926 0.88548 0.0
H485 H 0.56562 0.34684 0.7625 0.0
H486 H 0.61128 0.90622 0.52365 0.0
H487 H 0.60483 0.85445 0.52522 0.0
H488 H 0.48833 0.79473 0.51035 0.0
H489 H 0.4943 0.8466 0.50956 0.0
H490 H 0.49888 0.76858 0.54115 0.0
H491 H 0.54975 0.80402 0.47504 0.0
H492 H 0.593 0.84346 0.44911 0.0
H493 H 0.68303 0.85642 0.48048 0.0
H494 H 0.64043 0.81743 0.50678 0.0
H495 H 0.48701 0.62032 0.53768 0.0
H496 H 0.48477 0.66455 0.52548 0.0
H497 H 0.6005 0.74033 0.54139 0.0
H498 H 0.60312 0.69641 0.55333 0.0
H499 H 0.5834 0.75337 0.50544 0.0
H500 H 0.53298 0.72397 0.57376 0.0
H501 H 0.48952 0.68468 0.59971 0.0
H502 H 0.39778 0.66007 0.56327 0.0
H503 H 0.44072 0.69894 0.53698 0.0
C504 C 0.5842 0.8821 0.52082 0.0
C505 C 0.55327 0.88062 0.51659 0.0
C506 C 0.58065 0.85248 0.52145 0.0
C507 C 0.54619 0.82064 0.51761 0.0
C508 C 0.51525 0.81901 0.51324 0.0
C509 C 0.51876 0.8487 0.51266 0.0
C510 C 0.54241 0.78919 0.51923 0.0
C511 C 0.51682 0.76491 0.53298 0.0
C512 C 0.56613 0.78454 0.5088 0.0
C513 C 0.59189 0.80795 0.49297 0.0
C514 C 0.57882 0.81546 0.4765 0.0
C515 C 0.60322 0.83771 0.46172 0.0
C516 C 0.64075 0.85248 0.46317 0.0
C517 C 0.65395 0.84497 0.47938 0.0
C518 C 0.62967 0.82275 0.49422 0.0
C519 C 0.5121 0.64634 0.53833 0.0
C520 C 0.54517 0.65486 0.54667 0.0
C521 C 0.51073 0.67161 0.53142 0.0
C522 C 0.54235 0.70582 0.5328 0.0
C523 C 0.57575 0.71413 0.54021 0.0
C524 C 0.57715 0.68896 0.5471 0.0
C525 C 0.5405 0.73331 0.52767 0.0
C526 C 0.56505 0.75682 0.5133 0.0
C527 C 0.51576 0.73723 0.53747 0.0
C528 C 0.49 0.71403 0.55331 0.0
C529 C 0.50352 0.70998 0.57122 0.0
C530 C 0.47899 0.68783 0.586 0.0
C531 C 0.44091 0.6698 0.58311 0.0
C532 C 0.42728 0.67399 0.56547 0.0
C533 C 0.45169 0.69608 0.55063 0.0
H534 H 0.42196 0.65267 0.59457 0.0
H535 H 0.6596 0.8697 0.45171 0.0
H536 H 0.70233 0.58101 0.86014 0.0
H537 H 0.75533 0.58131 0.863 0.0
H538 H 0.68348 0.47742 0.88093 0.0
H539 H 0.63006 0.47702 0.87837 0.0
H540 H 0.74565 0.51392 0.9045 0.0
H541 H 0.7187 0.49764 0.83258 0.0
H542 H 0.70579 0.50953 0.79896 0.0
H543 H 0.81223 0.60795 0.80124 0.0
H544 H 0.82559 0.59684 0.83503 0.0
H545 H 0.88871 0.49656 0.89256 0.0
H546 H 0.83072 0.48873 0.88943 0.0
H547 H 0.89157 0.59165 0.87061 0.0
H548 H 0.94929 0.59945 0.87335 0.0
H549 H 0.83176 0.55055 0.84678 0.0
H550 H 0.85732 0.56719 0.91957 0.0
H551 H 0.87059 0.55423 0.95268 0.0
H552 H 0.76648 0.45401 0.94841 0.0
H553 H 0.75288 0.46616 0.91506 0.0
C554 C 0.69759 0.5581 0.86462 0.0
C555 C 0.66169 0.52893 0.86892 0.0
C556 C 0.72807 0.55829 0.8662 0.0
C557 C 0.72355 0.52926 0.87195 0.0
C558 C 0.6878 0.50015 0.87643 0.0
C559 C 0.65721 0.49993 0.87488 0.0
C560 C 0.75625 0.52957 0.87328 0.0
C561 C 0.76414 0.52142 0.89175 0.0
C562 C 0.78085 0.53978 0.85681 0.0
C563 C 0.77301 0.5465 0.83643 0.0
C564 C 0.73926 0.52191 0.82599 0.0
C565 C 0.73187 0.5285 0.80688 0.0
C566 C 0.75814 0.5595 0.79799 0.0
C567 C 0.7919 0.58396 0.80816 0.0
C568 C 0.7994 0.57751 0.82728 0.0
C569 C 0.88975 0.51754 0.88777 0.0
C570 C 0.9238 0.54865 0.88321 0.0
C571 C 0.85653 0.51307 0.88606 0.0
C572 C 0.85661 0.53968 0.87991 0.0
C573 C 0.89059 0.57067 0.87533 0.0
C574 C 0.9237 0.57513 0.877 0.0
C575 C 0.82155 0.53551 0.87809 0.0
C576 C 0.81318 0.54289 0.85949 0.0
C577 C 0.79653 0.52452 0.89443 0.0
C578 C 0.80425 0.51747 0.91472 0.0
C579 C 0.83735 0.54231 0.92563 0.0
C580 C 0.84494 0.53512 0.94444 0.0
C581 C 0.81944 0.50328 0.95262 0.0
C582 C 0.78623 0.47863 0.94204 0.0
C583 C 0.77856 0.48566 0.92318 0.0
H584 H 0.82539 0.49774 0.96717 0.0
H585 H 0.75237 0.56456 0.7832 0.0
H586 H 0.11033 0.64539 0.17033 0.0
H587 H 0.17197 0.69982 0.17199 0.0
H588 H 0.21008 0.66138 0.12857 0.0
H589 H 0.14789 0.60659 0.12651 0.0
H590 H 0.23554 0.71542 0.18481 0.0
H591 H 0.2804 0.72925 0.10107 0.0
H592 H 0.25191 0.70902 0.06641 0.0
H593 H 0.15799 0.70092 0.08691 0.0
H594 H 0.18615 0.72154 0.12159 0.0
H595 H 0.42425 0.85489 0.18242 0.0
H596 H 0.3674 0.79847 0.17315 0.0
H597 H 0.32116 0.84301 0.14734 0.0
H598 H 0.37815 0.89975 0.15646 0.0
H599 H 0.30121 0.78528 0.12462 0.0
H600 H 0.3021 0.81931 0.19494 0.0
H601 H 0.32782 0.83975 0.2301 0.0
H602 H 0.3252 0.75368 0.23714 0.0
H603 H 0.29995 0.733 0.20189 0.0
C604 C 0.13167 0.64838 0.16104 0.0
C605 C 0.12408 0.6215 0.14831 0.0
C606 C 0.16701 0.67958 0.16207 0.0
C607 C 0.19566 0.68477 0.15038 0.0
C608 C 0.1883 0.65807 0.13757 0.0
C609 C 0.15276 0.62672 0.13648 0.0
C610 C 0.2332 0.71809 0.15207 0.0
C611 C 0.24994 0.73054 0.17161 0.0
C612 C 0.25194 0.73801 0.13489 0.0
C613 C 0.23524 0.72661 0.11396 0.0
C614 C 0.25377 0.72332 0.09814 0.0
C615 C 0.23765 0.71175 0.0785 0.0
C616 C 0.2031 0.70357 0.07448 0.0
C617 C 0.18469 0.70715 0.09006 0.0
C618 C 0.2007 0.71875 0.10971 0.0
C619 C 0.40228 0.85281 0.17447 0.0
C620 C 0.40559 0.88188 0.17043 0.0
C621 C 0.36978 0.82048 0.16918 0.0
C622 C 0.33988 0.81654 0.15981 0.0
C623 C 0.3439 0.84549 0.15458 0.0
C624 C 0.37645 0.87791 0.15988 0.0
C625 C 0.30336 0.78243 0.15735 0.0
C626 C 0.2869 0.76989 0.13774 0.0
C627 C 0.2845 0.76249 0.1745 0.0
C628 C 0.29954 0.77482 0.19571 0.0
C629 C 0.3073 0.8049 0.20393 0.0
C630 C 0.32175 0.8165 0.22388 0.0
C631 C 0.32825 0.79808 0.23582 0.0
C632 C 0.32022 0.76796 0.22786 0.0
C633 C 0.30583 0.75628 0.2079 0.0
H634 H 0.33942 0.8071 0.25127 0.0
H635 H 0.19063 0.69452 0.05929 0.0
H636 H 0.43519 0.18112 0.47514 0.0
H637 H 0.44548 0.23355 0.48536 0.0
H638 H 0.55889 0.28014 0.50181 0.0
H639 H 0.54825 0.22718 0.49268 0.0
H640 H 0.53017 0.294 0.53054 0.0
H641 H 0.53443 0.30025 0.45766 0.0
H642 H 0.51266 0.28029 0.4219 0.0
H643 H 0.41566 0.27214 0.43397 0.0
H644 H 0.4366 0.29161 0.4699 0.0
H645 H 0.58784 0.46181 0.5419 0.0
H646 H 0.58083 0.41197 0.5286 0.0
H647 H 0.46374 0.35822 0.51924 0.0
H648 H 0.47046 0.40796 0.53254 0.0
H649 H 0.49626 0.34954 0.48624 0.0
H650 H 0.49256 0.34204 0.55971 0.0
H651 H 0.51586 0.36294 0.59519 0.0
H652 H 0.61453 0.37489 0.58115 0.0
H653 H 0.59202 0.35449 0.54548 0.0
C654 C 0.46229 0.20242 0.48104 0.0
C655 C 0.49085 0.19978 0.4831 0.0
C656 C 0.46828 0.2326 0.48664 0.0
C657 C 0.50312 0.26104 0.49413 0.0
C658 C 0.5318 0.25862 0.49601 0.0
C659 C 0.52576 0.22837 0.49056 0.0
C660 C 0.5092 0.2928 0.5008 0.0
C661 C 0.52332 0.30642 0.52069 0.0
C662 C 0.49958 0.30873 0.48815 0.0
C663 C 0.48694 0.2971 0.46653 0.0
C664 C 0.50832 0.29395 0.45274 0.0
C665 C 0.49615 0.28277 0.43242 0.0
C666 C 0.46276 0.27488 0.42568 0.0
C667 C 0.4415 0.27823 0.43922 0.0
C668 C 0.45353 0.28938 0.45956 0.0
C669 C 0.5606 0.43945 0.53695 0.0
C670 C 0.52967 0.43882 0.53837 0.0
C671 C 0.55664 0.41095 0.5294 0.0
C672 C 0.52171 0.3813 0.52309 0.0
C673 C 0.49093 0.38084 0.52404 0.0
C674 C 0.49481 0.40925 0.53172 0.0
C675 C 0.51716 0.35053 0.5159 0.0
C676 C 0.50327 0.33713 0.49597 0.0
C677 C 0.52727 0.33493 0.52842 0.0
C678 C 0.54078 0.34709 0.54987 0.0
C679 C 0.51936 0.3494 0.56414 0.0
C680 C 0.5324 0.3611 0.58429 0.0
C681 C 0.5667 0.37032 0.5904 0.0
C682 C 0.58799 0.36778 0.57638 0.0
C683 C 0.5751 0.35613 0.5562 0.0
H684 H 0.57674 0.37937 0.60601 0.0
H685 H 0.45339 0.26622 0.40994 0.0
H686 H 0.43694 0.48387 0.88559 0.0
H687 H 0.38546 0.48628 0.88593 0.0
H688 H 0.45026 0.57806 0.85238 0.0
H689 H 0.50169 0.57559 0.85171 0.0
H690 H 0.37899 0.53239 0.90206 0.0
H691 H 0.39194 0.5801 0.82126 0.0
H692 H 0.41577 0.57935 0.7875 0.0
H693 H 0.39488 0.48583 0.80056 0.0
H694 H 0.37045 0.48577 0.83429 0.0
H695 H 0.26796 0.58642 0.88891 0.0
H696 H 0.31987 0.58444 0.88817 0.0
H697 H 0.252 0.48858 0.85418 0.0
H698 H 0.19979 0.49011 0.85512 0.0
H699 H 0.32392 0.53535 0.8379 0.0
H700 H 0.26666 0.48749 0.90251 0.0
H701 H 0.24253 0.487 0.93641 0.0
H702 H 0.34994 0.57703 0.95559 0.0
H703 H 0.37459 0.57832 0.92167 0.0
C704 C 0.44028 0.50454 0.87822 0.0
C705 C 0.47355 0.52947 0.86858 0.0
C706 C 0.41081 0.50596 0.87851 0.0
C707 C 0.41371 0.53217 0.86904 0.0
C708 C 0.44703 0.5573 0.85956 0.0
C709 C 0.47655 0.55592 0.85928 0.0
C710 C 0.38183 0.53306 0.86913 0.0
C711 C 0.36707 0.53313 0.88801 0.0
C712 C 0.36597 0.53385 0.85083 0.0
C713 C 0.37965 0.5331 0.83037 0.0
C714 C 0.39224 0.55928 0.81688 0.0
C715 C 0.4059 0.55902 0.79776 0.0
C716 C 0.40695 0.53262 0.79191 0.0
C717 C 0.39416 0.50632 0.80513 0.0
C718 C 0.38042 0.50643 0.82426 0.0
C719 C 0.264 0.56484 0.88133 0.0
C720 C 0.22958 0.53835 0.87215 0.0
C721 C 0.29374 0.56376 0.88092 0.0
C722 C 0.2899 0.53636 0.87112 0.0
C723 C 0.2557 0.51003 0.86178 0.0
C724 C 0.22578 0.51085 0.86245 0.0
C725 C 0.32134 0.53491 0.87083 0.0
C726 C 0.33602 0.53479 0.85193 0.0
C727 C 0.33711 0.53399 0.88909 0.0
C728 C 0.32236 0.5332 0.90949 0.0
C729 C 0.28505 0.50735 0.9139 0.0
C730 C 0.2713 0.50689 0.93313 0.0
C731 C 0.29466 0.53202 0.94813 0.0
C732 C 0.33186 0.55761 0.94394 0.0
C733 C 0.34574 0.5582 0.92473 0.0
H734 H 0.28397 0.53162 0.96301 0.0
H735 H 0.41763 0.53252 0.77713 0.0
H736 H 0.92443 0.39718 0.13547 0.0
H737 H 0.86419 0.34204 0.13952 0.0
H738 H 0.82063 0.39156 0.16402 0.0
H739 H 0.88131 0.44669 0.16086 0.0
H740 H 0.79905 0.34189 0.18636 0.0
H741 H 0.79747 0.35194 0.11411 0.0
H742 H 0.8211 0.36204 0.07897 0.0
H743 H 0.82209 0.27734 0.08119 0.0
H744 H 0.79893 0.267 0.11646 0.0
H745 H 0.61217 0.18858 0.18263 0.0
H746 H 0.66807 0.24552 0.17541 0.0
H747 H 0.72462 0.20452 0.15923 0.0
H748 H 0.66892 0.14756 0.1664 0.0
H749 H 0.73672 0.25077 0.13176 0.0
H750 H 0.73803 0.24213 0.205 0.0
H751 H 0.71331 0.23295 0.23981 0.0
H752 H 0.71153 0.31692 0.23516 0.0
H753 H 0.73592 0.32641 0.20024 0.0
C754 C 0.90193 0.39632 0.14155 0.0
C755 C 0.90764 0.42629 0.14782 0.0
C756 C 0.86738 0.36475 0.14377 0.0
C757 C 0.83754 0.36251 0.15181 0.0
C758 C 0.84313 0.39252 0.1578 0.0
C759 C 0.87784 0.42406 0.15593 0.0
C760 C 0.80108 0.32887 0.15487 0.0
C761 C 0.78512 0.32221 0.17428 0.0
C762 C 0.78304 0.30287 0.13926 0.0
C763 C 0.79675 0.30887 0.11799 0.0
C764 C 0.80296 0.3356 0.10716 0.0
C765 C 0.81624 0.34135 0.08721 0.0
C766 C 0.82317 0.32039 0.07787 0.0
C767 C 0.81674 0.29357 0.08845 0.0
C768 C 0.80349 0.28773 0.10841 0.0
C769 C 0.63646 0.19165 0.17748 0.0
C770 C 0.63612 0.16351 0.17516 0.0
C771 C 0.66841 0.22423 0.17341 0.0
C772 C 0.70059 0.22929 0.16693 0.0
C773 C 0.70009 0.20118 0.16422 0.0
C774 C 0.66826 0.16865 0.16839 0.0
C775 C 0.73505 0.26388 0.16324 0.0
C776 C 0.75057 0.27065 0.14374 0.0
C777 C 0.75245 0.29011 0.1787 0.0
C778 C 0.73805 0.28452 0.1998 0.0
C779 C 0.73195 0.25839 0.21129 0.0
C780 C 0.71812 0.2532 0.23108 0.0
C781 C 0.71063 0.2742 0.23965 0.0
C782 C 0.71716 0.30055 0.22847 0.0
C783 C 0.73097 0.30583 0.20867 0.0
H784 H 0.69994 0.27014 0.25498 0.0
H785 H 0.83346 0.32489 0.06243 0.0
H786 H 0.99006 0.48946 0.09189 0.0
H787 H 0.99996 0.48975 0.05505 0.0
H788 H 0.02523 0.58768 0.05236 0.0
H789 H 0.01638 0.58801 0.08952 0.0
H790 H 0.97452 0.53406 0.01881 0.0
H791 H 0.09422 0.59329 0.05248 0.0
H792 H 0.13724 0.59977 0.07838 0.0
H793 H 0.11652 0.50865 0.05444 0.0
H794 H 0.07285 0.50131 0.0286 0.0
H795 H 0.05649 0.57283 0.92028 0.0
H796 H 0.0396 0.57328 0.95577 0.0
H797 H 0.05277 0.49781 0.96942 0.0
H798 H 0.07148 0.49871 0.93417 0.0
H799 H 0.08376 0.5425 0.99802 0.0
H800 H 0.96501 0.4824 0.96405 0.0
H801 H 0.91988 0.47339 0.93865 0.0
H802 H 0.93491 0.56162 0.96318 0.0
H803 H 0.98064 0.57153 0.9885 0.0
C804 C 0.99765 0.51104 0.08347 0.0
C805 C 1.00298 0.53894 0.09357 0.0
C806 C 1.0031 0.51108 0.06243 0.0
C807 C 0.01339 0.53876 0.05107 0.0
C808 C 0.01718 0.56606 0.06092 0.0
C809 C 0.01229 0.56627 0.0821 0.0
C810 C 0.02252 0.5399 0.02921 0.0
C811 C 0.99863 0.53637 0.01414 0.0
C812 C 0.05348 0.54208 0.02331 0.0
C813 C 0.08005 0.54662 0.0387 0.0
C814 C 0.09859 0.57448 0.05285 0.0
C815 C 0.12314 0.57833 0.0675 0.0
C816 C 0.12962 0.55464 0.06804 0.0
C817 C 0.11149 0.527 0.05398 0.0
C818 C 0.08686 0.52299 0.03931 0.0
C819 C 0.05508 0.5559 0.93079 0.0
C820 C 0.06478 0.53539 0.92446 0.0
C821 C 0.04539 0.55614 0.9511 0.0
C822 C 0.04426 0.53517 0.96533 0.0
C823 C 0.05342 0.51425 0.95883 0.0
C824 C 0.06394 0.51463 0.93866 0.0
C825 C 0.03544 0.53615 0.98721 0.0
C826 C 0.05953 0.54017 0.00244 0.0
C827 C 1.00436 0.53402 0.99318 0.0
C828 C 0.97658 0.52791 0.97806 0.0
C829 C 0.95891 0.50003 0.96394 0.0
C830 C 0.9332 0.49476 0.94956 0.0
C831 C 0.92462 0.51698 0.94926 0.0
C832 C 0.94164 0.54447 0.9634 0.0
C833 C 0.96745 0.54992 0.97777 0.0
H834 H 0.90472 0.51286 0.93812 0.0
H835 H 0.14877 0.55777 0.07932 0.0
H836 H 0.48182 0.01731 0.43404 0.0
H837 H 0.47768 0.01772 0.39663 0.0
H838 H 0.59227 0.05942 0.39244 0.0
H839 H 0.59653 0.05904 0.42974 0.0
H840 H 0.51542 0.06864 0.36894 0.0
H841 H 0.59963 0.02094 0.35071 0.0
H842 H 0.61408 0.98619 0.3662 0.0
H843 H 0.51242 0.93236 0.39903 0.0
H844 H 0.49713 0.96643 0.38352 0.0
H845 H 0.56134 0.08739 0.26308 0.0
H846 H 0.5649 0.0894 0.30055 0.0
H847 H 0.48672 0.98024 0.30018 0.0
H848 H 0.48329 0.97791 0.26286 0.0
H849 H 0.5428 0.00328 0.32615 0.0
H850 H 0.45978 0.02826 0.31228 0.0
H851 H 0.44025 0.05919 0.29693 0.0
H852 H 0.53 0.15131 0.32834 0.0
H853 H 0.55037 0.121 0.34367 0.0
C854 C 0.50613 0.02672 0.42511 0.0
C855 C 0.53941 0.0379 0.43471 0.0
C856 C 0.50378 0.02706 0.40379 0.0
C857 C 0.53457 0.03829 0.39177 0.0
C858 C 0.56808 0.05028 0.40142 0.0
C859 C 0.57048 0.05008 0.42271 0.0
C860 C 0.53142 0.03645 0.3691 0.0
C861 C 0.52148 0.05443 0.35956 0.0
C862 C 0.53877 0.01747 0.3569 0.0
C863 C 0.54746 0.9965 0.36611 0.0
C864 C 0.58031 0.0016 0.36117 0.0
C865 C 0.58865 0.98203 0.36997 0.0
C866 C 0.56425 0.95716 0.38365 0.0
C867 C 0.53137 0.95172 0.3885 0.0
C868 C 0.52288 0.97118 0.37973 0.0
C869 C 0.54497 0.06383 0.27096 0.0
C870 C 0.52199 0.03251 0.25992 0.0
C871 C 0.54689 0.06501 0.29239 0.0
C872 C 0.52581 0.03496 0.30317 0.0
C873 C 0.50323 0.00372 0.29219 0.0
C874 C 0.50127 0.0025 0.27082 0.0
C875 C 0.52727 0.03584 0.32591 0.0
C876 C 0.53693 0.01767 0.33549 0.0
C877 C 0.51904 0.05417 0.33812 0.0
C878 C 0.50681 0.07243 0.32895 0.0
C879 C 0.47552 0.05517 0.31578 0.0
C880 C 0.46427 0.07257 0.30711 0.0
C881 C 0.48393 0.10721 0.31161 0.0
C882 C 0.51483 0.12449 0.32484 0.0
C883 C 0.52623 0.10721 0.33354 0.0
H884 H 0.47517 0.12064 0.30489 0.0
H885 H 0.57077 0.94206 0.39045 0.0
H886 H 0.51561 0.53028 0.81158 0.0
H887 H 0.51741 0.54054 0.77508 0.0
H888 H 0.59503 0.52005 0.76593 0.0
H889 H 0.5954 0.51259 0.80286 0.0
H890 H 0.61083 0.56494 0.74109 0.0
H891 H 0.49519 0.4575 0.75709 0.0
H892 H 0.43726 0.42035 0.77603 0.0
H893 H 0.40105 0.47599 0.75561 0.0
H894 H 0.45892 0.51365 0.73669 0.0
H895 H 0.56737 0.51641 0.63469 0.0
H896 H 0.57313 0.5149 0.67182 0.0
H897 H 0.51209 0.55318 0.68165 0.0
H898 H 0.50617 0.55479 0.64467 0.0
H899 H 0.48816 0.49951 0.70568 0.0
H900 H 0.60371 0.60532 0.6884 0.0
H901 H 0.66177 0.64168 0.66951 0.0
H902 H 0.6978 0.58696 0.69203 0.0
H903 H 0.63968 0.54994 0.71083 0.0
C904 C 0.53362 0.52875 0.80175 0.0
C905 C 0.55529 0.52062 0.80978 0.0
C906 C 0.53434 0.53419 0.78089 0.0
C907 C 0.55528 0.52981 0.76752 0.0
C908 C 0.57838 0.52329 0.77582 0.0
C909 C 0.57864 0.51904 0.79688 0.0
C910 C 0.55173 0.53042 0.74491 0.0
C911 C 0.58398 0.55024 0.73336 0.0
C912 C 0.51671 0.5117 0.7347 0.0
C913 C 0.48147 0.4885 0.7456 0.0
C914 C 0.47489 0.46182 0.75667 0.0
C915 C 0.44208 0.4407 0.76741 0.0
C916 C 0.41553 0.44586 0.76705 0.0
C917 C 0.42164 0.47204 0.75587 0.0
C918 C 0.4544 0.49323 0.74511 0.0
C919 C 0.55507 0.52441 0.64475 0.0
C920 C 0.53639 0.5358 0.63669 0.0
C921 C 0.55855 0.52369 0.66596 0.0
C922 C 0.54333 0.53424 0.67948 0.0
C923 C 0.52411 0.54501 0.67149 0.0
C924 C 0.52084 0.54597 0.65032 0.0
C925 C 0.54718 0.5339 0.70199 0.0
C926 C 0.51496 0.51409 0.71347 0.0
C927 C 0.58216 0.55231 0.71206 0.0
C928 C 0.61718 0.57464 0.70085 0.0
C929 C 0.62388 0.60086 0.68919 0.0
C930 C 0.65682 0.62162 0.67852 0.0
C931 C 0.68342 0.61657 0.67952 0.0
C932 C 0.67715 0.59081 0.69124 0.0
C933 C 0.64423 0.56995 0.70192 0.0
H934 H 0.70891 0.63268 0.67126 0.0
H935 H 0.3902 0.42955 0.77542 0.0
H936 H 0.43986 0.00974 0.5512 0.0
H937 H 0.44042 0.9988 0.58723 0.0
H938 H 0.55679 0.04597 0.58423 0.0
H939 H 0.55657 0.05804 0.54816 0.0
H940 H 0.45286 0.96099 0.60469 0.0
H941 H 0.59709 0.08083 0.63179 0.0
H942 H 0.64235 0.14095 0.62331 0.0
H943 H 0.55459 0.13964 0.59959 0.0
H944 H 0.5088 0.07967 0.60816 0.0
H945 H 0.48812 0.93337 0.70351 0.0
H946 H 0.49805 0.95049 0.66794 0.0
H947 H 0.48355 0.02541 0.68446 0.0
H948 H 0.47346 0.00829 0.71996 0.0
H949 H 0.53857 0.05006 0.65738 0.0
H950 H 0.4127 0.9495 0.66338 0.0
H951 H 0.36304 0.89045 0.67229 0.0
H952 H 0.4061 0.85532 0.63048 0.0
H953 H 0.45634 0.91425 0.62152 0.0
C954 C 0.46563 0.01798 0.55825 0.0
C955 C 0.49816 0.03466 0.54692 0.0
C956 C 0.46588 0.01157 0.57882 0.0
C957 C 0.49865 0.02164 0.58849 0.0
C958 C 0.53128 0.03833 0.57717 0.0
C959 C 0.53109 0.04503 0.55657 0.0
C960 C 0.49809 0.01405 0.61032 0.0
C961 C 0.47176 0.98048 0.61617 0.0
C962 C 0.52242 0.03949 0.62538 0.0
C963 C 0.54961 0.07567 0.62041 0.0
C964 C 0.58747 0.09342 0.62483 0.0
C965 C 0.6132 0.12746 0.61999 0.0
C966 C 0.60136 0.14406 0.61085 0.0
C967 C 0.56374 0.12671 0.60659 0.0
C968 C 0.53789 0.09268 0.61141 0.0
C969 C 0.48744 0.95373 0.69958 0.0
C970 C 0.48053 0.96982 0.71459 0.0
C971 C 0.49311 0.96348 0.67927 0.0
C972 C 0.49133 0.9891 0.67353 0.0
C973 C 0.4854 0.00581 0.68859 0.0
C974 C 0.4799 0.99617 0.70893 0.0
C975 C 0.49336 0.99706 0.65166 0.0
C976 C 0.51997 0.03059 0.64582 0.0
C977 C 0.46872 0.97175 0.63664 0.0
C978 C 0.43849 0.9363 0.64195 0.0
C979 C 0.41174 0.9292 0.65621 0.0
C980 C 0.38346 0.89576 0.66125 0.0
C981 C 0.38147 0.86916 0.65201 0.0
C982 C 0.40771 0.87595 0.63766 0.0
C983 C 0.43608 0.90937 0.63259 0.0
H984 H 0.35955 0.84328 0.65592 0.0
H985 H 0.62133 0.1704 0.6071 0.0
H986 H 0.51508 0.4899 0.91634 0.0
H987 H 0.49896 0.46702 0.95033 0.0
H988 H 0.60945 0.54878 0.97264 0.0
H989 H 0.62628 0.57114 0.93806 0.0
H990 H 0.58814 0.4917 0.98764 0.0
H991 H 0.5344 0.54699 0.9842 0.0
H992 H 0.49816 0.56294 0.96947 0.0
H993 H 0.39951 0.45954 0.97061 0.0
H994 H 0.43525 0.44285 0.98507 0.0
H995 H 0.52539 0.44515 0.0911 0.0
H996 H 0.54895 0.47785 0.05999 0.0
H997 H 0.45481 0.39293 0.02542 0.0
H998 H 0.43123 0.36004 0.05648 0.0
H999 H 0.47224 0.45859 0.01931 0.0
H1000 H 0.53059 0.40466 0.02047 0.0
H1001 H 0.56865 0.39135 0.03613 0.0
H1002 H 0.66129 0.49737 0.04106 0.0
H1003 H 0.62357 0.51134 0.02569 0.0
C1004 C 0.53603 0.50302 0.92845 0.0
C1005 C 0.57194 0.53232 0.9246 0.0
C1006 C 0.52666 0.49007 0.94795 0.0
C1007 C 0.55271 0.50657 0.96419 0.0
C1008 C 0.58882 0.53575 0.96037 0.0
C1009 C 0.59839 0.54853 0.94067 0.0
C1010 C 0.54206 0.49257 0.98494 0.0
C1011 C 0.5632 0.48512 0.99474 0.0
C1012 C 0.50934 0.4837 0.99419 0.0
C1013 C 0.4876 0.49363 0.9856 0.0
C1014 C 0.50503 0.5276 0.98118 0.0
C1015 C 0.48456 0.53678 0.9729 0.0
C1016 C 0.44657 0.51226 0.96907 0.0
C1017 C 0.42895 0.47851 0.97358 0.0
C1018 C 0.44929 0.46918 0.98185 0.0
C1019 C 0.50952 0.43365 0.07691 0.0
C1020 C 0.47625 0.40028 0.07619 0.0
C1021 C 0.52315 0.45223 0.05916 0.0
C1022 C 0.50355 0.43776 0.04048 0.0
C1023 C 0.47022 0.40451 0.03975 0.0
C1024 C 0.45689 0.38575 0.05742 0.0
C1025 C 0.51785 0.45714 0.0216 0.0
C1026 C 0.4974 0.46564 0.01224 0.0
C1027 C 0.55147 0.46747 0.01296 0.0
C1028 C 0.57413 0.45906 0.02217 0.0
C1029 C 0.55896 0.42515 0.02508 0.0
C1030 C 0.58049 0.41748 0.03386 0.0
C1031 C 0.61733 0.4435 0.03965 0.0
C1032 C 0.63274 0.47724 0.03661 0.0
C1033 C 0.6113 0.48505 0.02785 0.0
H1034 H 0.63396 0.43751 0.04644 0.0
H1035 H 0.43078 0.51942 0.96265 0.0
H1036 H 0.04592 0.5578 0.20364 0.0
H1037 H 0.0473 0.55912 0.24116 0.0
H1038 H 0.02059 0.46025 0.2396 0.0
H1039 H 0.01799 0.45839 0.20213 0.0
H1040 H 0.98299 0.46394 0.26865 0.0
H1041 H 0.10991 0.53315 0.24817 0.0
H1042 H 0.16478 0.57951 0.23006 0.0
H1043 H 0.16073 0.65243 0.26321 0.0
H1044 H 0.10552 0.60643 0.28133 0.0
H1045 H 0.10342 0.52712 0.36952 0.0
H1046 H 0.09637 0.522 0.33221 0.0
H1047 H 0.99436 0.50835 0.33726 0.0
H1048 H 1.00114 0.51309 0.37463 0.0
H1049 H 0.09601 0.55996 0.30638 0.0
H1050 H 0.93707 0.45958 0.29651 0.0
H1051 H 0.88444 0.41055 0.31439 0.0
H1052 H 0.95699 0.39471 0.34179 0.0
H1053 H 0.00994 0.44333 0.32385 0.0
C1054 C 0.04005 0.53626 0.21134 0.0
C1055 C 0.0319 0.50801 0.20003 0.0
C1056 C 0.04104 0.5371 0.23275 0.0
C1057 C 0.03446 0.50994 0.24321 0.0
C1058 C 0.02572 0.48148 0.23188 0.0
C1059 C 0.02446 0.48052 0.21048 0.0
C1060 C 0.03759 0.51144 0.26591 0.0
C1061 C 1.00766 0.48497 0.27691 0.0
C1062 C 0.06999 0.5386 0.27669 0.0
C1063 C 0.10338 0.56633 0.26596 0.0
C1064 C 0.12059 0.55906 0.2515 0.0
C1065 C 0.15176 0.58527 0.24125 0.0
C1066 C 0.16617 0.61889 0.24544 0.0
C1067 C 0.14951 0.62637 0.25996 0.0
C1068 C 0.11829 0.60025 0.27023 0.0
C1069 C 0.07931 0.52271 0.36268 0.0
C1070 C 0.05246 0.51985 0.37501 0.0
C1071 C 0.07537 0.5199 0.34135 0.0
C1072 C 0.04466 0.51445 0.3319 0.0
C1073 C 0.01787 0.51178 0.3442 0.0
C1074 C 0.02165 0.51429 0.36557 0.0
C1075 C 0.04137 0.51248 0.30918 0.0
C1076 C 0.07125 0.53896 0.29816 0.0
C1077 C 0.00926 0.48494 0.29838 0.0
C1078 C 0.97752 0.45532 0.309 0.0
C1079 C 0.94176 0.44555 0.30629 0.0
C1080 C 0.91187 0.41784 0.31644 0.0
C1081 C 0.91739 0.39961 0.32928 0.0
C1082 C 0.95278 0.40894 0.33191 0.0
C1083 C 0.98274 0.43659 0.32177 0.0
H1084 H 0.89423 0.3782 0.33715 0.0
H1085 H 0.1903 0.63915 0.23748 0.0
loop_
_geom_bond_atom_site_label_1
_geom_bond_atom_site_label_2
_geom_bond_distance
_geom_bond_site_symmetry_2
_ccdc_geom_bond_type
Ho0 C3 2.811 . S
Ho0 O20 2.322 . S
Ho0 O22 2.378 . S
Ho0 O23 2.524 . S
Ho0 O24 2.381 . S
Ho0 O25 2.669 . S
Ho0 O27 2.346 1_455 S
Ho0 O31 2.305 . S
Ho1 C12 2.811 . S
Ho1 O21 2.346 1_655 S
Ho1 O25 2.305 1_655 S
Ho1 O26 2.322 . S
Ho1 O28 2.378 . S
Ho1 O29 2.524 . S
Ho1 O30 2.381 1_655 S
Ho1 O31 2.669 1_655 S
C2 O20 1.259 . S
C2 O21 1.268 . S
C3 Ho0 2.811 . S
C3 C4 1.488 . S
C3 O22 1.215 . S
C3 O23 1.289 . S
C4 C3 1.488 . S
C4 C5 1.348 . S
C4 C9 1.413 . S
C5 C4 1.348 . S
C5 C6 1.442 . S
C5 H32 0.930 . S
C6 C5 1.442 . S
C6 C7 1.381 . S
C6 H33 0.931 . S
C7 C6 1.381 . S
C7 C8 1.321 . S
C8 C7 1.321 . S
C8 C9 1.403 . S
C8 H34 0.934 . S
C9 C4 1.413 . S
C9 C8 1.403 . S
C9 H35 0.930 . S
C10 O24 1.275 . S
C10 O25 1.256 . S
C11 O26 1.259 . S
C11 O27 1.268 . S
C12 Ho1 2.811 . S
C12 C13 1.488 . S
C12 O28 1.215 . S
C12 O29 1.289 . S
C13 C12 1.488 . S
C13 C14 1.348 . S
C13 C18 1.413 . S
C14 C13 1.348 . S
C14 C15 1.442 . S
C14 H36 0.930 . S
C15 C14 1.442 . S
C15 C16 1.381 . S
C15 H37 0.931 . S
C16 C15 1.381 . S
C16 C17 1.321 . S
C17 C16 1.321 . S
C17 C18 1.403 . S
C17 H38 0.934 . S
C18 C13 1.413 . S
C18 C17 1.403 . S
C18 H39 0.930 . S
C19 O30 1.275 . S
C19 O31 1.256 . S
O20 Ho0 2.322 . S
O20 C2 1.259 . S
O21 Ho1 2.346 1_455 S
O21 C2 1.268 . S
O22 Ho0 2.378 . S
O22 C3 1.215 . S
O23 Ho0 2.524 . S
O23 C3 1.289 . S
O24 Ho0 2.381 . S
O24 C10 1.275 . S
O25 Ho0 2.669 . S
O25 Ho1 2.305 1_455 S
O25 C10 1.256 . S
O26 Ho1 2.322 . S
O26 C11 1.259 . S
O27 Ho0 2.346 1_655 S
O27 C11 1.268 . S
O28 Ho1 2.378 . S
O28 C12 1.215 . S
O29 Ho1 2.524 . S
O29 C12 1.289 . S
O30 Ho1 2.381 1_455 S
O30 C19 1.275 . S
O31 Ho0 2.305 . S
O31 Ho1 2.669 1_455 S
O31 C19 1.256 . S
H32 C5 0.930 . S
H33 C6 0.931 . S
H34 C8 0.934 . S
H35 C9 0.930 . S
H36 C14 0.930 . S
H37 C15 0.931 . S
H38 C17 0.934 . S
H39 C18 0.930 . S
Ho40 C43 2.811 . S
Ho40 O60 2.322 . S
Ho40 O62 2.378 . S
Ho40 O63 2.524 . S
Ho40 O64 2.381 . S
Ho40 O65 2.669 1_565 S
Ho40 O67 2.346 1_565 S
Ho40 O71 2.305 1_565 S
Ho41 C52 2.811 . S
Ho41 O61 2.346 1_545 S
Ho41 O65 2.305 . S
Ho41 O66 2.322 . S
Ho41 O68 2.378 . S
Ho41 O69 2.524 . S
Ho41 O70 2.381 . S
Ho41 O71 2.669 . S
C42 O60 1.259 . S
C42 O61 1.268 . S
C43 Ho40 2.811 . S
C43 C44 1.488 . S
C43 O62 1.215 . S
C43 O63 1.289 . S
C44 C43 1.488 . S
C44 C45 1.348 . S
C44 C49 1.413 . S
C45 C44 1.348 . S
C45 C46 1.442 . S
C45 H72 0.930 . S
C46 C45 1.442 . S
C46 C47 1.381 . S
C46 H73 0.931 . S
C47 C46 1.381 . S
C47 C48 1.321 . S
C48 C47 1.321 . S
C48 C49 1.403 . S
C48 H74 0.934 . S
C49 C44 1.413 . S
C49 C48 1.403 . S
C49 H75 0.930 . S
C50 O64 1.275 1_545 S
C50 O65 1.256 . S
C51 O66 1.259 . S
C51 O67 1.268 . S
C52 Ho41 2.811 . S
C52 C53 1.488 . S
C52 O68 1.215 . S
C52 O69 1.289 . S
C53 C52 1.488 . S
C53 C54 1.348 . S
C53 C58 1.413 . S
C54 C53 1.348 . S
C54 C55 1.442 . S
C54 H76 0.930 . S
C55 C54 1.442 . S
C55 C56 1.381 . S
C55 H77 0.931 . S
C56 C55 1.381 . S
C56 C57 1.321 . S
C57 C56 1.321 . S
C57 C58 1.403 . S
C57 H78 0.934 . S
C58 C53 1.413 . S
C58 C57 1.403 . S
C58 H79 0.930 . S
C59 O70 1.275 . S
C59 O71 1.256 . S
O60 Ho40 2.322 . S
O60 C42 1.259 . S
O61 Ho41 2.346 1_565 S
O61 C42 1.268 . S
O62 Ho40 2.378 . S
O62 C43 1.215 . S
O63 Ho40 2.524 . S
O63 C43 1.289 . S
O64 Ho40 2.381 . S
O64 C50 1.275 1_565 S
O65 Ho40 2.669 1_545 S
O65 Ho41 2.305 . S
O65 C50 1.256 . S
O66 Ho41 2.322 . S
O66 C51 1.259 . S
O67 Ho40 2.346 1_545 S
O67 C51 1.268 . S
O68 Ho41 2.378 . S
O68 C52 1.215 . S
O69 Ho41 2.524 . S
O69 C52 1.289 . S
O70 Ho41 2.381 . S
O70 C59 1.275 . S
O71 Ho40 2.305 1_545 S
O71 Ho41 2.669 . S
O71 C59 1.256 . S
H72 C45 0.930 . S
H73 C46 0.931 . S
H74 C48 0.934 . S
H75 C49 0.930 . S
H76 C54 0.930 . S
H77 C55 0.931 . S
H78 C57 0.934 . S
H79 C58 0.930 . S
Ho80 C83 2.811 . S
Ho80 O100 2.322 . S
Ho80 O102 2.378 . S
Ho80 O103 2.524 . S
Ho80 O104 2.381 . S
Ho80 O105 2.669 . S
Ho80 O107 2.346 . S
Ho80 O111 2.305 . S
Ho81 C92 2.811 . S
Ho81 O101 2.346 . S
Ho81 O105 2.305 . S
Ho81 O106 2.322 . S
Ho81 O108 2.378 . S
Ho81 O109 2.524 . S
Ho81 O110 2.381 . S
Ho81 O111 2.669 . S
C82 O100 1.259 . S
C82 O101 1.268 . S
C83 Ho80 2.811 . S
C83 C84 1.488 . S
C83 O102 1.215 . S
C83 O103 1.289 . S
C84 C83 1.488 . S
C84 C85 1.348 . S
C84 C89 1.413 . S
C85 C84 1.348 . S
C85 C86 1.442 . S
C85 H112 0.930 . S
C86 C85 1.442 . S
C86 C87 1.381 . S
C86 H113 0.931 . S
C87 C86 1.381 . S
C87 C88 1.321 . S
C88 C87 1.321 . S
C88 C89 1.403 . S
C88 H114 0.934 . S
C89 C84 1.413 . S
C89 C88 1.403 . S
C89 H115 0.930 . S
C90 O104 1.275 . S
C90 O105 1.256 . S
C91 O106 1.259 . S
C91 O107 1.268 . S
C92 Ho81 2.811 . S
C92 C93 1.488 . S
C92 O108 1.215 . S
C92 O109 1.289 . S
C93 C92 1.488 . S
C93 C94 1.348 . S
C93 C98 1.413 . S
C94 C93 1.348 . S
C94 C95 1.442 . S
C94 H116 0.930 . S
C95 C94 1.442 . S
C95 C96 1.381 . S
C95 H117 0.931 . S
C96 C95 1.381 . S
C96 C97 1.321 . S
C97 C96 1.321 . S
C97 C98 1.403 . S
C97 H118 0.934 . S
C98 C93 1.413 . S
C98 C97 1.403 . S
C98 H119 0.930 . S
C99 O110 1.275 . S
C99 O111 1.256 . S
O100 Ho80 2.322 . S
O100 C82 1.259 . S
O101 Ho81 2.346 . S
O101 C82 1.268 . S
O102 Ho80 2.378 . S
O102 C83 1.215 . S
O103 Ho80 2.524 . S
O103 C83 1.289 . S
O104 Ho80 2.381 . S
O104 C90 1.275 . S
O105 Ho80 2.669 . S
O105 Ho81 2.305 . S
O105 C90 1.256 . S
O106 Ho81 2.322 . S
O106 C91 1.259 . S
O107 Ho80 2.346 . S
O107 C91 1.268 . S
O108 Ho81 2.378 . S
O108 C92 1.215 . S
O109 Ho81 2.524 . S
O109 C92 1.289 . S
O110 Ho81 2.381 . S
O110 C99 1.275 . S
O111 Ho80 2.305 . S
O111 Ho81 2.669 . S
O111 C99 1.256 . S
H112 C85 0.930 . S
H113 C86 0.931 . S
H114 C88 0.934 . S
H115 C89 0.930 . S
H116 C94 0.930 . S
H117 C95 0.931 . S
H118 C97 0.934 . S
H119 C98 0.930 . S
O120 Cd121 2.300 . S
O120 C127 1.275 . S
Cd121 O120 2.300 . S
Cd121 O129 2.381 . S
Cd121 O130 2.378 . S
O122 Cd123 2.396 . S
O122 C127 1.244 1_565 S
Cd123 O122 2.396 . S
Cd123 O124 2.317 . S
O124 Cd123 2.317 . S
O124 C125 1.232 . S
C125 O124 1.232 . S
C125 O126 1.218 . S
O126 C125 1.218 . S
C127 O120 1.275 . S
C127 O122 1.244 1_545 S
C128 O129 1.258 . S
C128 O130 1.256 . S
O129 Cd121 2.381 . S
O129 C128 1.258 . S
O130 Cd121 2.378 . S
O130 C128 1.256 . S
O131 Cd132 2.300 . S
O131 C138 1.275 . S
Cd132 O131 2.300 . S
Cd132 O140 2.381 . S
Cd132 O141 2.378 . S
O133 Cd134 2.385 . S
O133 C138 1.255 . S
Cd134 O133 2.385 . S
Cd134 O135 2.317 . S
O135 Cd134 2.317 . S
O135 C136 1.232 . S
C136 O135 1.232 . S
C136 O137 1.218 . S
O137 C136 1.218 . S
C138 O131 1.275 . S
C138 O133 1.255 . S
C139 O140 1.258 . S
C139 O141 1.256 . S
O140 Cd132 2.381 . S
O140 C139 1.258 . S
O141 Cd132 2.378 . S
O141 C139 1.256 . S
O142 Cd143 2.300 . S
O142 C149 1.275 . S
Cd143 O142 2.300 . S
Cd143 O151 2.381 . S
Cd143 O152 2.378 . S
O144 Cd145 2.385 1_455 S
O144 C149 1.255 . S
Cd145 O144 2.385 1_655 S
Cd145 O146 2.317 . S
O146 Cd145 2.317 . S
O146 C147 1.232 . S
C147 O146 1.232 . S
C147 O148 1.218 . S
O148 C147 1.218 . S
C149 O142 1.275 . S
C149 O144 1.255 . S
C150 O151 1.258 . S
C150 O152 1.256 . S
O151 Cd143 2.381 . S
O151 C150 1.258 . S
O152 Cd143 2.378 . S
O152 C150 1.256 . S
O153 Cd154 2.300 . S
O153 C160 1.275 1_455 S
Cd154 O153 2.300 . S
Cd154 O162 2.381 . S
Cd154 O163 2.378 . S
O155 Cd156 2.385 . S
O155 C160 1.255 . S
Cd156 O155 2.385 . S
Cd156 O157 2.317 . S
O157 Cd156 2.317 . S
O157 C158 1.232 . S
C158 O157 1.232 . S
C158 O159 1.218 . S
O159 C158 1.218 . S
C160 O153 1.275 1_655 S
C160 O155 1.255 . S
C161 O162 1.258 . S
C161 O163 1.256 . S
O162 Cd154 2.381 . S
O162 C161 1.258 . S
O163 Cd154 2.378 . S
O163 C161 1.256 . S
O164 Cd165 2.300 . S
O164 C171 1.275 1_565 S
Cd165 O164 2.300 . S
Cd165 O173 2.381 . S
Cd165 O174 2.378 . S
O166 Cd167 2.385 . S
O166 C171 1.255 . S
Cd167 O166 2.385 . S
Cd167 O168 2.317 . S
O168 Cd167 2.317 . S
O168 C169 1.232 . S
C169 O168 1.232 . S
C169 O170 1.218 . S
O170 C169 1.218 . S
C171 O164 1.275 1_545 S
C171 O166 1.255 . S
C172 O173 1.258 . S
C172 O174 1.256 . S
O173 Cd165 2.381 . S
O173 C172 1.258 . S
O174 Cd165 2.378 . S
O174 C172 1.256 . S
O175 Cd176 2.300 . S
O175 C182 1.275 . S
Cd176 O175 2.300 . S
Cd176 O184 2.381 . S
Cd176 O185 2.378 . S
O177 Cd178 2.385 . S
O177 C182 1.255 . S
Cd178 O177 2.385 . S
Cd178 O179 2.317 . S
O179 Cd178 2.317 . S
O179 C180 1.232 . S
C180 O179 1.232 . S
C180 O181 1.218 . S
O181 C180 1.218 . S
C182 O175 1.275 . S
C182 O177 1.255 . S
C183 O184 1.258 . S
C183 O185 1.256 . S
O184 Cd176 2.381 . S
O184 C183 1.258 . S
O185 Cd176 2.378 . S
O185 C183 1.256 . S
H186 C204 0.951 . S
H187 C206 0.951 . S
H188 C208 0.950 . S
H189 C209 0.950 . S
H190 C211 0.950 . S
H191 C214 0.950 . S
H192 C215 0.950 . S
H193 C217 0.950 . S
H194 C218 0.950 . S
H195 C219 0.951 . S
H196 C221 0.951 . S
H197 C223 0.950 . S
H198 C224 0.950 . S
H199 C226 0.950 . S
H200 C229 0.950 . S
H201 C230 0.950 . S
H202 C232 0.950 . S
H203 C233 0.950 . S
C204 H186 0.951 . S
C204 C205 1.366 . S
C204 C206 1.388 . S
C205 C204 1.366 . S
C205 C209 1.385 . S
C206 H187 0.951 . S
C206 C204 1.388 . S
C206 C207 1.366 . S
C207 C206 1.366 . S
C207 C208 1.414 . S
C207 C210 1.499 . S
C208 H188 0.950 . S
C208 C207 1.414 . S
C208 C209 1.374 . S
C209 H189 0.950 . S
C209 C205 1.385 . S
C209 C208 1.374 . S
C210 C207 1.499 . S
C210 C211 1.373 . S
C210 C212 1.389 . S
C211 H190 0.950 . S
C211 C210 1.373 . S
C211 C227 1.377 . S
C212 C210 1.389 . S
C212 C213 1.524 . S
C212 C226 1.377 . S
C213 C212 1.524 . S
C213 C214 1.397 . S
C213 C218 1.363 . S
C214 H191 0.950 . S
C214 C213 1.397 . S
C214 C215 1.334 . S
C215 H192 0.950 . S
C215 C214 1.334 . S
C215 C216 1.287 . S
C216 C215 1.287 . S
C216 C217 1.524 . S
C216 H235 0.913 . S
C217 H193 0.950 . S
C217 C216 1.524 . S
C217 C218 1.415 . S
C218 H194 0.950 . S
C218 C213 1.363 . S
C218 C217 1.415 . S
C219 H195 0.951 . S
C219 C220 1.366 . S
C219 C221 1.388 . S
C220 C219 1.366 . S
C220 C224 1.385 . S
C221 H196 0.951 . S
C221 C219 1.388 . S
C221 C222 1.366 . S
C222 C221 1.366 . S
C222 C223 1.414 . S
C222 C225 1.499 . S
C223 H197 0.950 . S
C223 C222 1.414 . S
C223 C224 1.374 . S
C224 H198 0.950 . S
C224 C220 1.385 . S
C224 C223 1.374 . S
C225 C222 1.499 . S
C225 C226 1.373 . S
C225 C227 1.389 . S
C226 H199 0.950 . S
C226 C212 1.377 . S
C226 C225 1.373 . S
C227 C211 1.377 . S
C227 C225 1.389 . S
C227 C228 1.524 . S
C228 C227 1.524 . S
C228 C229 1.397 . S
C228 C233 1.363 . S
C229 H200 0.950 . S
C229 C228 1.397 . S
C229 C230 1.334 . S
C230 H201 0.950 . S
C230 C229 1.334 . S
C230 C231 1.287 . S
C231 C230 1.287 . S
C231 C232 1.524 . S
C231 H234 0.999 . S
C232 H202 0.950 . S
C232 C231 1.524 . S
C232 C233 1.415 . S
C233 H203 0.950 . S
C233 C228 1.363 . S
C233 C232 1.415 . S
H234 C231 0.999 . S
H235 C216 0.913 . S
H236 C254 0.951 . S
H237 C256 0.951 . S
H238 C258 0.950 . S
H239 C259 0.950 . S
H240 C261 0.950 . S
H241 C264 0.950 . S
H242 C265 0.950 . S
H243 C267 0.950 . S
H244 C268 0.950 . S
H245 C269 0.951 . S
H246 C271 0.951 . S
H247 C273 0.950 . S
H248 C274 0.950 . S
H249 C276 0.950 . S
H250 C279 0.950 . S
H251 C280 0.950 . S
H252 C282 0.950 . S
H253 C283 0.950 . S
C254 H236 0.951 . S
C254 C255 1.366 . S
C254 C256 1.388 . S
C255 C254 1.366 . S
C255 C259 1.385 . S
C256 H237 0.951 . S
C256 C254 1.388 . S
C256 C257 1.366 . S
C257 C256 1.366 . S
C257 C258 1.414 . S
C257 C260 1.499 . S
C258 H238 0.950 . S
C258 C257 1.414 . S
C258 C259 1.374 . S
C259 H239 0.950 . S
C259 C255 1.385 . S
C259 C258 1.374 . S
C260 C257 1.499 . S
C260 C261 1.373 . S
C260 C262 1.389 . S
C261 H240 0.950 . S
C261 C260 1.373 . S
C261 C277 1.377 . S
C262 C260 1.389 . S
C262 C263 1.524 . S
C262 C276 1.377 . S
C263 C262 1.524 . S
C263 C264 1.397 . S
C263 C268 1.363 . S
C264 H241 0.950 . S
C264 C263 1.397 . S
C264 C265 1.334 . S
C265 H242 0.950 . S
C265 C264 1.334 . S
C265 C266 1.287 . S
C266 C265 1.287 . S
C266 C267 1.524 . S
C266 H285 0.913 . S
C267 H243 0.950 . S
C267 C266 1.524 . S
C267 C268 1.415 . S
C268 H244 0.950 . S
C268 C263 1.363 . S
C268 C267 1.415 . S
C269 H245 0.951 . S
C269 C270 1.366 . S
C269 C271 1.388 . S
C270 C269 1.366 . S
C270 C274 1.385 . S
C271 H246 0.951 . S
C271 C269 1.388 . S
C271 C272 1.366 . S
C272 C271 1.366 . S
C272 C273 1.414 . S
C272 C275 1.499 . S
C273 H247 0.950 . S
C273 C272 1.414 . S
C273 C274 1.374 . S
C274 H248 0.950 . S
C274 C270 1.385 . S
C274 C273 1.374 . S
C275 C272 1.499 . S
C275 C276 1.373 . S
C275 C277 1.389 . S
C276 H249 0.950 . S
C276 C262 1.377 . S
C276 C275 1.373 . S
C277 C261 1.377 . S
C277 C275 1.389 . S
C277 C278 1.524 . S
C278 C277 1.524 . S
C278 C279 1.397 . S
C278 C283 1.363 . S
C279 H250 0.950 . S
C279 C278 1.397 . S
C279 C280 1.334 . S
C280 H251 0.950 . S
C280 C279 1.334 . S
C280 C281 1.287 . S
C281 C280 1.287 . S
C281 C282 1.524 . S
C281 H284 0.999 . S
C282 H252 0.950 . S
C282 C281 1.524 . S
C282 C283 1.415 . S
C283 H253 0.950 . S
C283 C278 1.363 . S
C283 C282 1.415 . S
H284 C281 0.999 . S
H285 C266 0.913 . S
H286 C304 0.951 . S
H287 C306 0.951 . S
H288 C308 0.950 . S
H289 C309 0.950 . S
H290 C311 0.950 . S
H291 C314 0.950 . S
H292 C315 0.950 . S
H293 C317 0.950 . S
H294 C318 0.950 . S
H295 C319 0.951 . S
H296 C321 0.951 . S
H297 C323 0.950 . S
H298 C324 0.950 . S
H299 C326 0.950 . S
H300 C329 0.950 . S
H301 C330 0.950 . S
H302 C332 0.950 . S
H303 C333 0.950 . S
C304 H286 0.951 . S
C304 C305 1.366 . S
C304 C306 1.388 . S
C305 C304 1.366 . S
C305 C309 1.385 . S
C306 H287 0.951 . S
C306 C304 1.388 . S
C306 C307 1.366 . S
C307 C306 1.366 . S
C307 C308 1.414 . S
C307 C310 1.499 . S
C308 H288 0.950 . S
C308 C307 1.414 . S
C308 C309 1.374 . S
C309 H289 0.950 . S
C309 C305 1.385 . S
C309 C308 1.374 . S
C310 C307 1.499 . S
C310 C311 1.373 . S
C310 C312 1.389 . S
C311 H290 0.950 . S
C311 C310 1.373 . S
C311 C327 1.377 . S
C312 C310 1.389 . S
C312 C313 1.524 . S
C312 C326 1.377 . S
C313 C312 1.524 . S
C313 C314 1.397 . S
C313 C318 1.363 . S
C314 H291 0.950 . S
C314 C313 1.397 . S
C314 C315 1.334 . S
C315 H292 0.950 . S
C315 C314 1.334 . S
C315 C316 1.287 . S
C316 C315 1.287 . S
C316 C317 1.524 . S
C316 H335 0.913 . S
C317 H293 0.950 . S
C317 C316 1.524 . S
C317 C318 1.415 . S
C318 H294 0.950 . S
C318 C313 1.363 . S
C318 C317 1.415 . S
C319 H295 0.951 . S
C319 C320 1.366 . S
C319 C321 1.388 . S
C320 C319 1.366 . S
C320 C324 1.385 . S
C321 H296 0.951 . S
C321 C319 1.388 . S
C321 C322 1.366 . S
C322 C321 1.366 . S
C322 C323 1.414 . S
C322 C325 1.499 . S
C323 H297 0.950 . S
C323 C322 1.414 . S
C323 C324 1.374 . S
C324 H298 0.950 . S
C324 C320 1.385 . S
C324 C323 1.374 . S
C325 C322 1.499 . S
C325 C326 1.373 . S
C325 C327 1.389 . S
C326 H299 0.950 . S
C326 C312 1.377 . S
C326 C325 1.373 . S
C327 C311 1.377 . S
C327 C325 1.389 . S
C327 C328 1.524 . S
C328 C327 1.524 . S
C328 C329 1.397 . S
C328 C333 1.363 . S
C329 H300 0.950 . S
C329 C328 1.397 . S
C329 C330 1.334 . S
C330 H301 0.950 . S
C330 C329 1.334 . S
C330 C331 1.287 . S
C331 C330 1.287 . S
C331 C332 1.524 . S
C331 H334 0.999 . S
C332 H302 0.950 . S
C332 C331 1.524 . S
C332 C333 1.415 . S
C333 H303 0.950 . S
C333 C328 1.363 . S
C333 C332 1.415 . S
H334 C331 0.999 . S
H335 C316 0.913 . S
H336 C354 0.951 . S
H337 C356 0.951 . S
H338 C358 0.950 . S
H339 C359 0.950 . S
H340 C361 0.950 . S
H341 C364 0.950 . S
H342 C365 0.950 . S
H343 C367 0.950 . S
H344 C368 0.950 . S
H345 C369 0.951 . S
H346 C371 0.951 . S
H347 C373 0.950 . S
H348 C374 0.950 . S
H349 C376 0.950 . S
H350 C379 0.950 . S
H351 C380 0.950 . S
H352 C382 0.950 . S
H353 C383 0.950 . S
C354 H336 0.951 . S
C354 C355 1.366 . S
C354 C356 1.388 . S
C355 C354 1.366 . S
C355 C359 1.385 . S
C356 H337 0.951 . S
C356 C354 1.388 . S
C356 C357 1.366 . S
C357 C356 1.366 . S
C357 C358 1.414 . S
C357 C360 1.499 . S
C358 H338 0.950 . S
C358 C357 1.414 . S
C358 C359 1.374 . S
C359 H339 0.950 . S
C359 C355 1.385 . S
C359 C358 1.374 . S
C360 C357 1.499 . S
C360 C361 1.373 . S
C360 C362 1.389 . S
C361 H340 0.950 . S
C361 C360 1.373 . S
C361 C377 1.377 . S
C362 C360 1.389 . S
C362 C363 1.524 . S
C362 C376 1.377 . S
C363 C362 1.524 . S
C363 C364 1.397 . S
C363 C368 1.363 . S
C364 H341 0.950 . S
C364 C363 1.397 . S
C364 C365 1.334 . S
C365 H342 0.950 . S
C365 C364 1.334 . S
C365 C366 1.287 . S
C366 C365 1.287 . S
C366 C367 1.524 . S
C366 H385 0.913 . S
C367 H343 0.950 . S
C367 C366 1.524 . S
C367 C368 1.415 . S
C368 H344 0.950 . S
C368 C363 1.363 . S
C368 C367 1.415 . S
C369 H345 0.951 . S
C369 C370 1.366 . S
C369 C371 1.388 . S
C370 C369 1.366 . S
C370 C374 1.385 . S
C371 H346 0.951 . S
C371 C369 1.388 . S
C371 C372 1.366 . S
C372 C371 1.366 . S
C372 C373 1.414 . S
C372 C375 1.499 . S
C373 H347 0.950 . S
C373 C372 1.414 . S
C373 C374 1.374 . S
C374 H348 0.950 . S
C374 C370 1.385 . S
C374 C373 1.374 . S
C375 C372 1.499 . S
C375 C376 1.373 . S
C375 C377 1.389 . S
C376 H349 0.950 . S
C376 C362 1.377 . S
C376 C375 1.373 . S
C377 C361 1.377 . S
C377 C375 1.389 . S
C377 C378 1.524 . S
C378 C377 1.524 . S
C378 C379 1.397 . S
C378 C383 1.363 . S
C379 H350 0.950 . S
C379 C378 1.397 . S
C379 C380 1.334 . S
C380 H351 0.950 . S
C380 C379 1.334 . S
C380 C381 1.287 . S
C381 C380 1.287 . S
C381 C382 1.524 . S
C381 H384 0.999 . S
C382 H352 0.950 . S
C382 C381 1.524 . S
C382 C383 1.415 . S
C383 H353 0.950 . S
C383 C378 1.363 . S
C383 C382 1.415 . S
H384 C381 0.999 . S
H385 C366 0.913 . S
H386 C404 0.951 . S
H387 C406 0.951 . S
H388 C408 0.950 . S
H389 C409 0.950 . S
H390 C411 0.950 . S
H391 C414 0.950 . S
H392 C415 0.950 . S
H393 C417 0.950 . S
H394 C418 0.950 . S
H395 C419 0.951 . S
H396 C421 0.951 . S
H397 C423 0.950 . S
H398 C424 0.950 . S
H399 C426 0.950 . S
H400 C429 0.950 . S
H401 C430 0.950 . S
H402 C432 0.950 . S
H403 C433 0.950 . S
C404 H386 0.951 . S
C404 C405 1.366 . S
C404 C406 1.388 . S
C405 C404 1.366 . S
C405 C409 1.385 . S
C406 H387 0.951 . S
C406 C404 1.388 . S
C406 C407 1.366 . S
C407 C406 1.366 . S
C407 C408 1.414 . S
C407 C410 1.499 . S
C408 H388 0.950 . S
C408 C407 1.414 . S
C408 C409 1.374 . S
C409 H389 0.950 . S
C409 C405 1.385 . S
C409 C408 1.374 . S
C410 C407 1.499 . S
C410 C411 1.373 . S
C410 C412 1.389 . S
C411 H390 0.950 . S
C411 C410 1.373 . S
C411 C427 1.377 . S
C412 C410 1.389 . S
C412 C413 1.524 . S
C412 C426 1.377 . S
C413 C412 1.524 . S
C413 C414 1.397 . S
C413 C418 1.363 . S
C414 H391 0.950 . S
C414 C413 1.397 . S
C414 C415 1.334 . S
C415 H392 0.950 . S
C415 C414 1.334 . S
C415 C416 1.287 . S
C416 C415 1.287 . S
C416 C417 1.524 . S
C416 H435 0.913 . S
C417 H393 0.950 . S
C417 C416 1.524 . S
C417 C418 1.415 . S
C418 H394 0.950 . S
C418 C413 1.363 . S
C418 C417 1.415 . S
C419 H395 0.951 . S
C419 C420 1.366 . S
C419 C421 1.388 . S
C420 C419 1.366 . S
C420 C424 1.385 . S
C421 H396 0.951 . S
C421 C419 1.388 . S
C421 C422 1.366 . S
C422 C421 1.366 . S
C422 C423 1.414 . S
C422 C425 1.499 . S
C423 H397 0.950 . S
C423 C422 1.414 . S
C423 C424 1.374 . S
C424 H398 0.950 . S
C424 C420 1.385 . S
C424 C423 1.374 . S
C425 C422 1.499 . S
C425 C426 1.373 . S
C425 C427 1.389 . S
C426 H399 0.950 . S
C426 C412 1.377 . S
C426 C425 1.373 . S
C427 C411 1.377 . S
C427 C425 1.389 . S
C427 C428 1.524 . S
C428 C427 1.524 . S
C428 C429 1.397 . S
C428 C433 1.363 . S
C429 H400 0.950 . S
C429 C428 1.397 . S
C429 C430 1.334 . S
C430 H401 0.950 . S
C430 C429 1.334 . S
C430 C431 1.287 . S
C431 C430 1.287 . S
C431 C432 1.524 . S
C431 H434 0.999 . S
C432 H402 0.950 . S
C432 C431 1.524 . S
C432 C433 1.415 . S
C433 H403 0.950 . S
C433 C428 1.363 . S
C433 C432 1.415 . S
H434 C431 0.999 . S
H435 C416 0.913 . S
H436 C454 0.951 . S
H437 C456 0.951 . S
H438 C458 0.950 . S
H439 C459 0.950 . S
H440 C461 0.950 . S
H441 C464 0.950 . S
H442 C465 0.950 . S
H443 C467 0.950 . S
H444 C468 0.950 . S
H445 C469 0.951 . S
H446 C471 0.951 . S
H447 C473 0.950 . S
H448 C474 0.950 . S
H449 C476 0.950 . S
H450 C479 0.950 . S
H451 C480 0.950 . S
H452 C482 0.950 . S
H453 C483 0.950 . S
C454 H436 0.951 . S
C454 C455 1.366 . S
C454 C456 1.388 . S
C455 C454 1.366 . S
C455 C459 1.385 . S
C456 H437 0.951 . S
C456 C454 1.388 . S
C456 C457 1.366 . S
C457 C456 1.366 . S
C457 C458 1.414 . S
C457 C460 1.499 . S
C458 H438 0.950 . S
C458 C457 1.414 . S
C458 C459 1.374 . S
C459 H439 0.950 . S
C459 C455 1.385 . S
C459 C458 1.374 . S
C460 C457 1.499 . S
C460 C461 1.373 . S
C460 C462 1.389 . S
C461 H440 0.950 . S
C461 C460 1.373 . S
C461 C477 1.377 . S
C462 C460 1.389 . S
C462 C463 1.524 . S
C462 C476 1.377 . S
C463 C462 1.524 . S
C463 C464 1.397 . S
C463 C468 1.363 . S
C464 H441 0.950 . S
C464 C463 1.397 . S
C464 C465 1.334 . S
C465 H442 0.950 . S
C465 C464 1.334 . S
C465 C466 1.287 . S
C466 C465 1.287 . S
C466 C467 1.524 . S
C466 H485 0.913 . S
C467 H443 0.950 . S
C467 C466 1.524 . S
C467 C468 1.415 . S
C468 H444 0.950 . S
C468 C463 1.363 . S
C468 C467 1.415 . S
C469 H445 0.951 . S
C469 C470 1.366 . S
C469 C471 1.388 . S
C470 C469 1.366 . S
C470 C474 1.385 . S
C471 H446 0.951 . S
C471 C469 1.388 . S
C471 C472 1.366 . S
C472 C471 1.366 . S
C472 C473 1.414 . S
C472 C475 1.499 . S
C473 H447 0.950 . S
C473 C472 1.414 . S
C473 C474 1.374 . S
C474 H448 0.950 . S
C474 C470 1.385 . S
C474 C473 1.374 . S
C475 C472 1.499 . S
C475 C476 1.373 . S
C475 C477 1.389 . S
C476 H449 0.950 . S
C476 C462 1.377 . S
C476 C475 1.373 . S
C477 C461 1.377 . S
C477 C475 1.389 . S
C477 C478 1.524 . S
C478 C477 1.524 . S
C478 C479 1.397 . S
C478 C483 1.363 . S
C479 H450 0.950 . S
C479 C478 1.397 . S
C479 C480 1.334 . S
C480 H451 0.950 . S
C480 C479 1.334 . S
C480 C481 1.287 . S
C481 C480 1.287 . S
C481 C482 1.524 . S
C481 H484 0.999 . S
C482 H452 0.950 . S
C482 C481 1.524 . S
C482 C483 1.415 . S
C483 H453 0.950 . S
C483 C478 1.363 . S
C483 C482 1.415 . S
H484 C481 0.999 . S
H485 C466 0.913 . S
H486 C504 0.951 . S
H487 C506 0.951 . S
H488 C508 0.950 . S
H489 C509 0.950 . S
H490 C511 0.950 . S
H491 C514 0.950 . S
H492 C515 0.950 . S
H493 C517 0.950 . S
H494 C518 0.950 . S
H495 C519 0.951 . S
H496 C521 0.951 . S
H497 C523 0.950 . S
H498 C524 0.950 . S
H499 C526 0.950 . S
H500 C529 0.950 . S
H501 C530 0.950 . S
H502 C532 0.950 . S
H503 C533 0.950 . S
C504 H486 0.951 . S
C504 C505 1.366 . S
C504 C506 1.388 . S
C505 C504 1.366 . S
C505 C509 1.385 . S
C506 H487 0.951 . S
C506 C504 1.388 . S
C506 C507 1.366 . S
C507 C506 1.366 . S
C507 C508 1.414 . S
C507 C510 1.499 . S
C508 H488 0.950 . S
C508 C507 1.414 . S
C508 C509 1.374 . S
C509 H489 0.950 . S
C509 C505 1.385 . S
C509 C508 1.374 . S
C510 C507 1.499 . S
C510 C511 1.373 . S
C510 C512 1.389 . S
C511 H490 0.950 . S
C511 C510 1.373 . S
C511 C527 1.377 . S
C512 C510 1.389 . S
C512 C513 1.524 . S
C512 C526 1.377 . S
C513 C512 1.524 . S
C513 C514 1.397 . S
C513 C518 1.363 . S
C514 H491 0.950 . S
C514 C513 1.397 . S
C514 C515 1.334 . S
C515 H492 0.950 . S
C515 C514 1.334 . S
C515 C516 1.287 . S
C516 C515 1.287 . S
C516 C517 1.524 . S
C516 H535 0.913 . S
C517 H493 0.950 . S
C517 C516 1.524 . S
C517 C518 1.415 . S
C518 H494 0.950 . S
C518 C513 1.363 . S
C518 C517 1.415 . S
C519 H495 0.951 . S
C519 C520 1.366 . S
C519 C521 1.388 . S
C520 C519 1.366 . S
C520 C524 1.385 . S
C521 H496 0.951 . S
C521 C519 1.388 . S
C521 C522 1.366 . S
C522 C521 1.366 . S
C522 C523 1.414 . S
C522 C525 1.499 . S
C523 H497 0.950 . S
C523 C522 1.414 . S
C523 C524 1.374 . S
C524 H498 0.950 . S
C524 C520 1.385 . S
C524 C523 1.374 . S
C525 C522 1.499 . S
C525 C526 1.373 . S
C525 C527 1.389 . S
C526 H499 0.950 . S
C526 C512 1.377 . S
C526 C525 1.373 . S
C527 C511 1.377 . S
C527 C525 1.389 . S
C527 C528 1.524 . S
C528 C527 1.524 . S
C528 C529 1.397 . S
C528 C533 1.363 . S
C529 H500 0.950 . S
C529 C528 1.397 . S
C529 C530 1.334 . S
C530 H501 0.950 . S
C530 C529 1.334 . S
C530 C531 1.287 . S
C531 C530 1.287 . S
C531 C532 1.524 . S
C531 H534 0.999 . S
C532 H502 0.950 . S
C532 C531 1.524 . S
C532 C533 1.415 . S
C533 H503 0.950 . S
C533 C528 1.363 . S
C533 C532 1.415 . S
H534 C531 0.999 . S
H535 C516 0.913 . S
H536 C554 0.951 . S
H537 C556 0.951 . S
H538 C558 0.950 . S
H539 C559 0.950 . S
H540 C561 0.950 . S
H541 C564 0.950 . S
H542 C565 0.950 . S
H543 C567 0.950 . S
H544 C568 0.950 . S
H545 C569 0.951 . S
H546 C571 0.951 . S
H547 C573 0.950 . S
H548 C574 0.950 . S
H549 C576 0.950 . S
H550 C579 0.950 . S
H551 C580 0.950 . S
H552 C582 0.950 . S
H553 C583 0.950 . S
C554 H536 0.951 . S
C554 C555 1.366 . S
C554 C556 1.388 . S
C555 C554 1.366 . S
C555 C559 1.385 . S
C556 H537 0.951 . S
C556 C554 1.388 . S
C556 C557 1.366 . S
C557 C556 1.366 . S
C557 C558 1.414 . S
C557 C560 1.499 . S
C558 H538 0.950 . S
C558 C557 1.414 . S
C558 C559 1.374 . S
C559 H539 0.950 . S
C559 C555 1.385 . S
C559 C558 1.374 . S
C560 C557 1.499 . S
C560 C561 1.373 . S
C560 C562 1.389 . S
C561 H540 0.950 . S
C561 C560 1.373 . S
C561 C577 1.377 . S
C562 C560 1.389 . S
C562 C563 1.524 . S
C562 C576 1.377 . S
C563 C562 1.524 . S
C563 C564 1.397 . S
C563 C568 1.363 . S
C564 H541 0.950 . S
C564 C563 1.397 . S
C564 C565 1.334 . S
C565 H542 0.950 . S
C565 C564 1.334 . S
C565 C566 1.287 . S
C566 C565 1.287 . S
C566 C567 1.524 . S
C566 H585 0.913 . S
C567 H543 0.950 . S
C567 C566 1.524 . S
C567 C568 1.415 . S
C568 H544 0.950 . S
C568 C563 1.363 . S
C568 C567 1.415 . S
C569 H545 0.951 . S
C569 C570 1.366 . S
C569 C571 1.388 . S
C570 C569 1.366 . S
C570 C574 1.385 . S
C571 H546 0.951 . S
C571 C569 1.388 . S
C571 C572 1.366 . S
C572 C571 1.366 . S
C572 C573 1.414 . S
C572 C575 1.499 . S
C573 H547 0.950 . S
C573 C572 1.414 . S
C573 C574 1.374 . S
C574 H548 0.950 . S
C574 C570 1.385 . S
C574 C573 1.374 . S
C575 C572 1.499 . S
C575 C576 1.373 . S
C575 C577 1.389 . S
C576 H549 0.950 . S
C576 C562 1.377 . S
C576 C575 1.373 . S
C577 C561 1.377 . S
C577 C575 1.389 . S
C577 C578 1.524 . S
C578 C577 1.524 . S
C578 C579 1.397 . S
C578 C583 1.363 . S
C579 H550 0.950 . S
C579 C578 1.397 . S
C579 C580 1.334 . S
C580 H551 0.950 . S
C580 C579 1.334 . S
C580 C581 1.287 . S
C581 C580 1.287 . S
C581 C582 1.524 . S
C581 H584 0.999 . S
C582 H552 0.950 . S
C582 C581 1.524 . S
C582 C583 1.415 . S
C583 H553 0.950 . S
C583 C578 1.363 . S
C583 C582 1.415 . S
H584 C581 0.999 . S
H585 C566 0.913 . S
H586 C604 0.951 . S
H587 C606 0.951 . S
H588 C608 0.950 . S
H589 C609 0.950 . S
H590 C611 0.950 . S
H591 C614 0.950 . S
H592 C615 0.950 . S
H593 C617 0.950 . S
H594 C618 0.950 . S
H595 C619 0.951 . S
H596 C621 0.951 . S
H597 C623 0.950 . S
H598 C624 0.950 . S
H599 C626 0.950 . S
H600 C629 0.950 . S
H601 C630 0.950 . S
H602 C632 0.950 . S
H603 C633 0.950 . S
C604 H586 0.951 . S
C604 C605 1.366 . S
C604 C606 1.388 . S
C605 C604 1.366 . S
C605 C609 1.385 . S
C606 H587 0.951 . S
C606 C604 1.388 . S
C606 C607 1.366 . S
C607 C606 1.366 . S
C607 C608 1.414 . S
C607 C610 1.499 . S
C608 H588 0.950 . S
C608 C607 1.414 . S
C608 C609 1.374 . S
C609 H589 0.950 . S
C609 C605 1.385 . S
C609 C608 1.374 . S
C610 C607 1.499 . S
C610 C611 1.373 . S
C610 C612 1.389 . S
C611 H590 0.950 . S
C611 C610 1.373 . S
C611 C627 1.377 . S
C612 C610 1.389 . S
C612 C613 1.524 . S
C612 C626 1.377 . S
C613 C612 1.524 . S
C613 C614 1.397 . S
C613 C618 1.363 . S
C614 H591 0.950 . S
C614 C613 1.397 . S
C614 C615 1.334 . S
C615 H592 0.950 . S
C615 C614 1.334 . S
C615 C616 1.287 . S
C616 C615 1.287 . S
C616 C617 1.524 . S
C616 H635 0.913 . S
C617 H593 0.950 . S
C617 C616 1.524 . S
C617 C618 1.415 . S
C618 H594 0.950 . S
C618 C613 1.363 . S
C618 C617 1.415 . S
C619 H595 0.951 . S
C619 C620 1.366 . S
C619 C621 1.388 . S
C620 C619 1.366 . S
C620 C624 1.385 . S
C621 H596 0.951 . S
C621 C619 1.388 . S
C621 C622 1.366 . S
C622 C621 1.366 . S
C622 C623 1.414 . S
C622 C625 1.499 . S
C623 H597 0.950 . S
C623 C622 1.414 . S
C623 C624 1.374 . S
C624 H598 0.950 . S
C624 C620 1.385 . S
C624 C623 1.374 . S
C625 C622 1.499 . S
C625 C626 1.373 . S
C625 C627 1.389 . S
C626 H599 0.950 . S
C626 C612 1.377 . S
C626 C625 1.373 . S
C627 C611 1.377 . S
C627 C625 1.389 . S
C627 C628 1.524 . S
C628 C627 1.524 . S
C628 C629 1.397 . S
C628 C633 1.363 . S
C629 H600 0.950 . S
C629 C628 1.397 . S
C629 C630 1.334 . S
C630 H601 0.950 . S
C630 C629 1.334 . S
C630 C631 1.287 . S
C631 C630 1.287 . S
C631 C632 1.524 . S
C631 H634 0.999 . S
C632 H602 0.950 . S
C632 C631 1.524 . S
C632 C633 1.415 . S
C633 H603 0.950 . S
C633 C628 1.363 . S
C633 C632 1.415 . S
H634 C631 0.999 . S
H635 C616 0.913 . S
H636 C654 0.951 . S
H637 C656 0.951 . S
H638 C658 0.950 . S
H639 C659 0.950 . S
H640 C661 0.950 . S
H641 C664 0.950 . S
H642 C665 0.950 . S
H643 C667 0.950 . S
H644 C668 0.950 . S
H645 C669 0.951 . S
H646 C671 0.951 . S
H647 C673 0.950 . S
H648 C674 0.950 . S
H649 C676 0.950 . S
H650 C679 0.950 . S
H651 C680 0.950 . S
H652 C682 0.950 . S
H653 C683 0.950 . S
C654 H636 0.951 . S
C654 C655 1.366 . S
C654 C656 1.388 . S
C655 C654 1.366 . S
C655 C659 1.385 . S
C656 H637 0.951 . S
C656 C654 1.388 . S
C656 C657 1.366 . S
C657 C656 1.366 . S
C657 C658 1.414 . S
C657 C660 1.499 . S
C658 H638 0.950 . S
C658 C657 1.414 . S
C658 C659 1.374 . S
C659 H639 0.950 . S
C659 C655 1.385 . S
C659 C658 1.374 . S
C660 C657 1.499 . S
C660 C661 1.373 . S
C660 C662 1.389 . S
C661 H640 0.950 . S
C661 C660 1.373 . S
C661 C677 1.377 . S
C662 C660 1.389 . S
C662 C663 1.524 . S
C662 C676 1.377 . S
C663 C662 1.524 . S
C663 C664 1.397 . S
C663 C668 1.363 . S
C664 H641 0.950 . S
C664 C663 1.397 . S
C664 C665 1.334 . S
C665 H642 0.950 . S
C665 C664 1.334 . S
C665 C666 1.287 . S
C666 C665 1.287 . S
C666 C667 1.524 . S
C666 H685 0.913 . S
C667 H643 0.950 . S
C667 C666 1.524 . S
C667 C668 1.415 . S
C668 H644 0.950 . S
C668 C663 1.363 . S
C668 C667 1.415 . S
C669 H645 0.951 . S
C669 C670 1.366 . S
C669 C671 1.388 . S
C670 C669 1.366 . S
C670 C674 1.385 . S
C671 H646 0.951 . S
C671 C669 1.388 . S
C671 C672 1.366 . S
C672 C671 1.366 . S
C672 C673 1.414 . S
C672 C675 1.499 . S
C673 H647 0.950 . S
C673 C672 1.414 . S
C673 C674 1.374 . S
C674 H648 0.950 . S
C674 C670 1.385 . S
C674 C673 1.374 . S
C675 C672 1.499 . S
C675 C676 1.373 . S
C675 C677 1.389 . S
C676 H649 0.950 . S
C676 C662 1.377 . S
C676 C675 1.373 . S
C677 C661 1.377 . S
C677 C675 1.389 . S
C677 C678 1.524 . S
C678 C677 1.524 . S
C678 C679 1.397 . S
C678 C683 1.363 . S
C679 H650 0.950 . S
C679 C678 1.397 . S
C679 C680 1.334 . S
C680 H651 0.950 . S
C680 C679 1.334 . S
C680 C681 1.287 . S
C681 C680 1.287 . S
C681 C682 1.524 . S
C681 H684 0.999 . S
C682 H652 0.950 . S
C682 C681 1.524 . S
C682 C683 1.415 . S
C683 H653 0.950 . S
C683 C678 1.363 . S
C683 C682 1.415 . S
H684 C681 0.999 . S
H685 C666 0.913 . S
H686 C704 0.951 . S
H687 C706 0.951 . S
H688 C708 0.950 . S
H689 C709 0.950 . S
H690 C711 0.950 . S
H691 C714 0.950 . S
H692 C715 0.950 . S
H693 C717 0.950 . S
H694 C718 0.950 . S
H695 C719 0.951 . S
H696 C721 0.951 . S
H697 C723 0.950 . S
H698 C724 0.950 . S
H699 C726 0.950 . S
H700 C729 0.950 . S
H701 C730 0.950 . S
H702 C732 0.950 . S
H703 C733 0.950 . S
C704 H686 0.951 . S
C704 C705 1.366 . S
C704 C706 1.388 . S
C705 C704 1.366 . S
C705 C709 1.385 . S
C706 H687 0.951 . S
C706 C704 1.388 . S
C706 C707 1.366 . S
C707 C706 1.366 . S
C707 C708 1.414 . S
C707 C710 1.499 . S
C708 H688 0.950 . S
C708 C707 1.414 . S
C708 C709 1.374 . S
C709 H689 0.950 . S
C709 C705 1.385 . S
C709 C708 1.374 . S
C710 C707 1.499 . S
C710 C711 1.373 . S
C710 C712 1.389 . S
C711 H690 0.950 . S
C711 C710 1.373 . S
C711 C727 1.377 . S
C712 C710 1.389 . S
C712 C713 1.524 . S
C712 C726 1.377 . S
C713 C712 1.524 . S
C713 C714 1.397 . S
C713 C718 1.363 . S
C714 H691 0.950 . S
C714 C713 1.397 . S
C714 C715 1.334 . S
C715 H692 0.950 . S
C715 C714 1.334 . S
C715 C716 1.287 . S
C716 C715 1.287 . S
C716 C717 1.524 . S
C716 H735 0.913 . S
C717 H693 0.950 . S
C717 C716 1.524 . S
C717 C718 1.415 . S
C718 H694 0.950 . S
C718 C713 1.363 . S
C718 C717 1.415 . S
C719 H695 0.951 . S
C719 C720 1.366 . S
C719 C721 1.388 . S
C720 C719 1.366 . S
C720 C724 1.385 . S
C721 H696 0.951 . S
C721 C719 1.388 . S
C721 C722 1.366 . S
C722 C721 1.366 . S
C722 C723 1.414 . S
C722 C725 1.499 . S
C723 H697 0.950 . S
C723 C722 1.414 . S
C723 C724 1.374 . S
C724 H698 0.950 . S
C724 C720 1.385 . S
C724 C723 1.374 . S
C725 C722 1.499 . S
C725 C726 1.373 . S
C725 C727 1.389 . S
C726 H699 0.950 . S
C726 C712 1.377 . S
C726 C725 1.373 . S
C727 C711 1.377 . S
C727 C725 1.389 . S
C727 C728 1.524 . S
C728 C727 1.524 . S
C728 C729 1.397 . S
C728 C733 1.363 . S
C729 H700 0.950 . S
C729 C728 1.397 . S
C729 C730 1.334 . S
C730 H701 0.950 . S
C730 C729 1.334 . S
C730 C731 1.287 . S
C731 C730 1.287 . S
C731 C732 1.524 . S
C731 H734 0.999 . S
C732 H702 0.950 . S
C732 C731 1.524 . S
C732 C733 1.415 . S
C733 H703 0.950 . S
C733 C728 1.363 . S
C733 C732 1.415 . S
H734 C731 0.999 . S
H735 C716 0.913 . S
H736 C754 0.951 . S
H737 C756 0.951 . S
H738 C758 0.950 . S
H739 C759 0.950 . S
H740 C761 0.950 . S
H741 C764 0.950 . S
H742 C765 0.950 . S
H743 C767 0.950 . S
H744 C768 0.950 . S
H745 C769 0.951 . S
H746 C771 0.951 . S
H747 C773 0.950 . S
H748 C774 0.950 . S
H749 C776 0.950 . S
H750 C779 0.950 . S
H751 C780 0.950 . S
H752 C782 0.950 . S
H753 C783 0.950 . S
C754 H736 0.951 . S
C754 C755 1.366 . S
C754 C756 1.388 . S
C755 C754 1.366 . S
C755 C759 1.385 . S
C756 H737 0.951 . S
C756 C754 1.388 . S
C756 C757 1.366 . S
C757 C756 1.366 . S
C757 C758 1.414 . S
C757 C760 1.499 . S
C758 H738 0.950 . S
C758 C757 1.414 . S
C758 C759 1.374 . S
C759 H739 0.950 . S
C759 C755 1.385 . S
C759 C758 1.374 . S
C760 C757 1.499 . S
C760 C761 1.373 . S
C760 C762 1.389 . S
C761 H740 0.950 . S
C761 C760 1.373 . S
C761 C777 1.377 . S
C762 C760 1.389 . S
C762 C763 1.524 . S
C762 C776 1.377 . S
C763 C762 1.524 . S
C763 C764 1.397 . S
C763 C768 1.363 . S
C764 H741 0.950 . S
C764 C763 1.397 . S
C764 C765 1.334 . S
C765 H742 0.950 . S
C765 C764 1.334 . S
C765 C766 1.287 . S
C766 C765 1.287 . S
C766 C767 1.524 . S
C766 H785 0.913 . S
C767 H743 0.950 . S
C767 C766 1.524 . S
C767 C768 1.415 . S
C768 H744 0.950 . S
C768 C763 1.363 . S
C768 C767 1.415 . S
C769 H745 0.951 . S
C769 C770 1.366 . S
C769 C771 1.388 . S
C770 C769 1.366 . S
C770 C774 1.385 . S
C771 H746 0.951 . S
C771 C769 1.388 . S
C771 C772 1.366 . S
C772 C771 1.366 . S
C772 C773 1.414 . S
C772 C775 1.499 . S
C773 H747 0.950 . S
C773 C772 1.414 . S
C773 C774 1.374 . S
C774 H748 0.950 . S
C774 C770 1.385 . S
C774 C773 1.374 . S
C775 C772 1.499 . S
C775 C776 1.373 . S
C775 C777 1.389 . S
C776 H749 0.950 . S
C776 C762 1.377 . S
C776 C775 1.373 . S
C777 C761 1.377 . S
C777 C775 1.389 . S
C777 C778 1.524 . S
C778 C777 1.524 . S
C778 C779 1.397 . S
C778 C783 1.363 . S
C779 H750 0.950 . S
C779 C778 1.397 . S
C779 C780 1.334 . S
C780 H751 0.950 . S
C780 C779 1.334 . S
C780 C781 1.287 . S
C781 C780 1.287 . S
C781 C782 1.524 . S
C781 H784 0.999 . S
C782 H752 0.950 . S
C782 C781 1.524 . S
C782 C783 1.415 . S
C783 H753 0.950 . S
C783 C778 1.363 . S
C783 C782 1.415 . S
H784 C781 0.999 . S
H785 C766 0.913 . S
H786 C804 0.951 . S
H787 C806 0.951 . S
H788 C808 0.950 1_655 S
H789 C809 0.950 1_655 S
H790 C811 0.950 . S
H791 C814 0.950 . S
H792 C815 0.950 . S
H793 C817 0.950 . S
H794 C818 0.950 . S
H795 C819 0.951 1_655 S
H796 C821 0.951 1_655 S
H797 C823 0.950 . S
H798 C824 0.950 . S
H799 C826 0.950 . S
H800 C829 0.950 . S
H801 C830 0.950 . S
H802 C832 0.950 . S
H803 C833 0.950 . S
C804 H786 0.951 . S
C804 C805 1.366 . S
C804 C806 1.388 . S
C805 C804 1.366 . S
C805 C809 1.385 . S
C806 H787 0.951 . S
C806 C804 1.388 . S
C806 C807 1.366 . S
C807 C806 1.366 . S
C807 C808 1.414 . S
C807 C810 1.499 . S
C808 H788 0.950 1_455 S
C808 C807 1.414 . S
C808 C809 1.374 . S
C809 H789 0.950 1_455 S
C809 C805 1.385 . S
C809 C808 1.374 . S
C810 C807 1.499 . S
C810 C811 1.373 1_455 S
C810 C812 1.389 . S
C811 H790 0.950 . S
C811 C810 1.373 1_655 S
C811 C827 1.377 . S
C812 C810 1.389 . S
C812 C813 1.524 . S
C812 C826 1.377 . S
C813 C812 1.524 . S
C813 C814 1.397 . S
C813 C818 1.363 . S
C814 H791 0.950 . S
C814 C813 1.397 . S
C814 C815 1.334 . S
C815 H792 0.950 . S
C815 C814 1.334 . S
C815 C816 1.287 . S
C816 C815 1.287 . S
C816 C817 1.524 . S
C816 H835 0.913 . S
C817 H793 0.950 . S
C817 C816 1.524 . S
C817 C818 1.415 . S
C818 H794 0.950 . S
C818 C813 1.363 . S
C818 C817 1.415 . S
C819 H795 0.951 1_455 S
C819 C820 1.366 . S
C819 C821 1.388 . S
C820 C819 1.366 . S
C820 C824 1.385 . S
C821 H796 0.951 1_455 S
C821 C819 1.388 . S
C821 C822 1.366 . S
C822 C821 1.366 . S
C822 C823 1.414 . S
C822 C825 1.534 . S
C823 H797 0.950 . S
C823 C822 1.414 . S
C823 C824 1.374 . S
C824 H798 0.950 . S
C824 C820 1.385 . S
C824 C823 1.374 . S
C825 C822 1.534 . S
C825 C826 1.356 1_556 S
C825 C827 1.371 1_456 S
C826 H799 0.950 . S
C826 C812 1.377 . S
C826 C825 1.356 1_554 S
C827 C811 1.377 . S
C827 C825 1.371 1_654 S
C827 C828 1.516 1_554 S
C828 C827 1.516 1_556 S
C828 C829 1.409 . S
C828 C833 1.358 1_556 S
C829 H800 0.950 . S
C829 C828 1.409 . S
C829 C830 1.334 . S
C830 H801 0.950 . S
C830 C829 1.334 . S
C830 C831 1.287 . S
C831 C830 1.287 . S
C831 C832 1.524 . S
C831 H834 0.999 . S
C832 H802 0.950 . S
C832 C831 1.524 . S
C832 C833 1.415 1_556 S
C833 H803 0.950 . S
C833 C828 1.358 1_554 S
C833 C832 1.415 1_554 S
H834 C831 0.999 . S
H835 C816 0.913 . S
H836 C854 0.951 . S
H837 C856 0.951 . S
H838 C858 0.950 . S
H839 C859 0.950 . S
H840 C861 0.950 . S
H841 C864 0.950 1_545 S
H842 C865 0.950 . S
H843 C867 0.950 . S
H844 C868 0.950 . S
H845 C869 0.951 . S
H846 C871 0.951 . S
H847 C873 0.950 . S
H848 C874 0.950 . S
H849 C876 0.950 . S
H850 C879 0.950 . S
H851 C880 0.950 . S
H852 C882 0.950 . S
H853 C883 0.950 . S
C854 H836 0.951 . S
C854 C855 1.366 1_565 S
C854 C856 1.388 . S
C855 C854 1.366 1_545 S
C855 C859 1.385 . S
C856 H837 0.951 . S
C856 C854 1.388 . S
C856 C857 1.366 1_565 S
C857 C856 1.366 1_545 S
C857 C858 1.414 . S
C857 C860 1.499 . S
C858 H838 0.950 . S
C858 C857 1.414 . S
C858 C859 1.374 . S
C859 H839 0.950 . S
C859 C855 1.385 . S
C859 C858 1.374 . S
C860 C857 1.499 . S
C860 C861 1.373 . S
C860 C862 1.389 1_545 S
C861 H840 0.950 . S
C861 C860 1.373 . S
C861 C877 1.377 . S
C862 C860 1.389 1_565 S
C862 C863 1.524 . S
C862 C876 1.377 . S
C863 C862 1.524 . S
C863 C864 1.397 . S
C863 C868 1.363 . S
C864 H841 0.950 1_565 S
C864 C863 1.397 . S
C864 C865 1.334 . S
C865 H842 0.950 . S
C865 C864 1.334 . S
C865 C866 1.287 . S
C866 C865 1.287 . S
C866 C867 1.524 . S
C866 H885 0.913 . S
C867 H843 0.950 . S
C867 C866 1.524 . S
C867 C868 1.415 . S
C868 H844 0.950 . S
C868 C863 1.363 . S
C868 C867 1.415 . S
C869 H845 0.951 . S
C869 C870 1.366 . S
C869 C871 1.388 . S
C870 C869 1.366 . S
C870 C874 1.385 1_545 S
C871 H846 0.951 . S
C871 C869 1.388 . S
C871 C872 1.366 . S
C872 C871 1.366 . S
C872 C873 1.414 1_545 S
C872 C875 1.499 . S
C873 H847 0.950 . S
C873 C872 1.414 1_565 S
C873 C874 1.374 . S
C874 H848 0.950 . S
C874 C870 1.385 1_565 S
C874 C873 1.374 . S
C875 C872 1.499 . S
C875 C876 1.373 1_545 S
C875 C877 1.389 . S
C876 H849 0.950 . S
C876 C862 1.377 . S
C876 C875 1.373 1_565 S
C877 C861 1.377 . S
C877 C875 1.389 . S
C877 C878 1.524 . S
C878 C877 1.524 . S
C878 C879 1.397 . S
C878 C883 1.363 . S
C879 H850 0.950 . S
C879 C878 1.397 . S
C879 C880 1.334 . S
C880 H851 0.950 . S
C880 C879 1.334 . S
C880 C881 1.287 . S
C881 C880 1.287 . S
C881 C882 1.524 . S
C881 H884 0.999 . S
C882 H852 0.950 . S
C882 C881 1.524 . S
C882 C883 1.415 . S
C883 H853 0.950 . S
C883 C878 1.363 . S
C883 C882 1.415 . S
H884 C881 0.999 . S
H885 C866 0.913 . S
H886 C904 0.951 . S
H887 C906 0.951 . S
H888 C908 0.950 . S
H889 C909 0.950 . S
H890 C911 0.950 . S
H891 C914 0.950 . S
H892 C915 0.950 . S
H893 C917 0.950 . S
H894 C918 0.950 . S
H895 C919 0.951 . S
H896 C921 0.951 . S
H897 C923 0.950 . S
H898 C924 0.950 . S
H899 C926 0.950 . S
H900 C929 0.950 . S
H901 C930 0.950 . S
H902 C932 0.950 . S
H903 C933 0.950 . S
C904 H886 0.951 . S
C904 C905 1.366 . S
C904 C906 1.388 . S
C905 C904 1.366 . S
C905 C909 1.385 . S
C906 H887 0.951 . S
C906 C904 1.388 . S
C906 C907 1.366 . S
C907 C906 1.366 . S
C907 C908 1.414 . S
C907 C910 1.499 . S
C908 H888 0.950 . S
C908 C907 1.414 . S
C908 C909 1.374 . S
C909 H889 0.950 . S
C909 C905 1.385 . S
C909 C908 1.374 . S
C910 C907 1.499 . S
C910 C911 1.373 . S
C910 C912 1.389 . S
C911 H890 0.950 . S
C911 C910 1.373 . S
C911 C927 1.377 . S
C912 C910 1.389 . S
C912 C913 1.524 . S
C912 C926 1.377 . S
C913 C912 1.524 . S
C913 C914 1.397 . S
C913 C918 1.363 . S
C914 H891 0.950 . S
C914 C913 1.397 . S
C914 C915 1.334 . S
C915 H892 0.950 . S
C915 C914 1.334 . S
C915 C916 1.287 . S
C916 C915 1.287 . S
C916 C917 1.524 . S
C916 H935 0.913 . S
C917 H893 0.950 . S
C917 C916 1.524 . S
C917 C918 1.415 . S
C918 H894 0.950 . S
C918 C913 1.363 . S
C918 C917 1.415 . S
C919 H895 0.951 . S
C919 C920 1.366 . S
C919 C921 1.388 . S
C920 C919 1.366 . S
C920 C924 1.385 . S
C921 H896 0.951 . S
C921 C919 1.388 . S
C921 C922 1.366 . S
C922 C921 1.366 . S
C922 C923 1.414 . S
C922 C925 1.499 . S
C923 H897 0.950 . S
C923 C922 1.414 . S
C923 C924 1.374 . S
C924 H898 0.950 . S
C924 C920 1.385 . S
C924 C923 1.374 . S
C925 C922 1.499 . S
C925 C926 1.373 . S
C925 C927 1.389 . S
C926 H899 0.950 . S
C926 C912 1.377 . S
C926 C925 1.373 . S
C927 C911 1.377 . S
C927 C925 1.389 . S
C927 C928 1.524 . S
C928 C927 1.524 . S
C928 C929 1.397 . S
C928 C933 1.363 . S
C929 H900 0.950 . S
C929 C928 1.397 . S
C929 C930 1.334 . S
C930 H901 0.950 . S
C930 C929 1.334 . S
C930 C931 1.287 . S
C931 C930 1.287 . S
C931 C932 1.524 . S
C931 H934 0.999 . S
C932 H902 0.950 . S
C932 C931 1.524 . S
C932 C933 1.415 . S
C933 H903 0.950 . S
C933 C928 1.363 . S
C933 C932 1.415 . S
H934 C931 0.999 . S
H935 C916 0.913 . S
H936 C954 0.951 . S
H937 C956 0.951 . S
H938 C958 0.950 . S
H939 C959 0.950 . S
H940 C961 0.950 . S
H941 C964 0.950 . S
H942 C965 0.950 . S
H943 C967 0.950 . S
H944 C968 0.950 . S
H945 C969 0.951 . S
H946 C971 0.951 . S
H947 C973 0.950 . S
H948 C974 0.950 . S
H949 C976 0.950 . S
H950 C979 0.950 . S
H951 C980 0.950 . S
H952 C982 0.950 . S
H953 C983 0.950 . S
C954 H936 0.951 . S
C954 C955 1.366 . S
C954 C956 1.388 . S
C955 C954 1.366 . S
C955 C959 1.385 1_545 S
C956 H937 0.951 . S
C956 C954 1.388 . S
C956 C957 1.366 . S
C957 C956 1.366 . S
C957 C958 1.414 1_545 S
C957 C960 1.499 . S
C958 H938 0.950 . S
C958 C957 1.414 1_565 S
C958 C959 1.374 . S
C959 H939 0.950 . S
C959 C955 1.385 1_565 S
C959 C958 1.374 . S
C960 C957 1.499 . S
C960 C961 1.373 1_545 S
C960 C962 1.389 . S
C961 H940 0.950 . S
C961 C960 1.373 1_565 S
C961 C977 1.377 . S
C962 C960 1.389 . S
C962 C963 1.524 . S
C962 C976 1.377 . S
C963 C962 1.524 . S
C963 C964 1.397 . S
C963 C968 1.363 . S
C964 H941 0.950 . S
C964 C963 1.397 . S
C964 C965 1.334 . S
C965 H942 0.950 . S
C965 C964 1.334 . S
C965 C966 1.287 . S
C966 C965 1.287 . S
C966 C967 1.524 . S
C966 H985 0.913 . S
C967 H943 0.950 . S
C967 C966 1.524 . S
C967 C968 1.415 . S
C968 H944 0.950 . S
C968 C963 1.363 . S
C968 C967 1.415 . S
C969 H945 0.951 . S
C969 C970 1.366 1_565 S
C969 C971 1.388 . S
C970 C969 1.366 1_545 S
C970 C974 1.385 . S
C971 H946 0.951 . S
C971 C969 1.388 . S
C971 C972 1.366 1_565 S
C972 C971 1.366 1_545 S
C972 C973 1.414 . S
C972 C975 1.499 . S
C973 H947 0.950 . S
C973 C972 1.414 . S
C973 C974 1.374 . S
C974 H948 0.950 . S
C974 C970 1.385 . S
C974 C973 1.374 . S
C975 C972 1.499 . S
C975 C976 1.373 . S
C975 C977 1.389 1_545 S
C976 H949 0.950 . S
C976 C962 1.377 . S
C976 C975 1.373 . S
C977 C961 1.377 . S
C977 C975 1.389 1_565 S
C977 C978 1.524 . S
C978 C977 1.524 . S
C978 C979 1.397 . S
C978 C983 1.363 . S
C979 H950 0.950 . S
C979 C978 1.397 . S
C979 C980 1.334 . S
C980 H951 0.950 . S
C980 C979 1.334 . S
C980 C981 1.287 . S
C981 C980 1.287 . S
C981 C982 1.524 . S
C981 H984 0.999 . S
C982 H952 0.950 . S
C982 C981 1.524 . S
C982 C983 1.415 . S
C983 H953 0.950 . S
C983 C978 1.363 . S
C983 C982 1.415 . S
H984 C981 0.999 . S
H985 C966 0.913 . S
H986 C1004 0.951 . S
H987 C1006 0.951 . S
H988 C1008 0.950 . S
H989 C1009 0.950 . S
H990 C1011 0.950 . S
H991 C1014 0.950 . S
H992 C1015 0.950 . S
H993 C1017 0.950 . S
H994 C1018 0.950 . S
H995 C1019 0.951 . S
H996 C1021 0.951 . S
H997 C1023 0.950 . S
H998 C1024 0.950 . S
H999 C1026 0.950 . S
H1000 C1029 0.950 . S
H1001 C1030 0.950 . S
H1002 C1032 0.950 . S
H1003 C1033 0.950 1_556 S
C1004 H986 0.951 . S
C1004 C1005 1.366 . S
C1004 C1006 1.388 . S
C1005 C1004 1.366 . S
C1005 C1009 1.385 . S
C1006 H987 0.951 . S
C1006 C1004 1.388 . S
C1006 C1007 1.366 . S
C1007 C1006 1.366 . S
C1007 C1008 1.414 . S
C1007 C1010 1.499 . S
C1008 H988 0.950 . S
C1008 C1007 1.414 . S
C1008 C1009 1.374 . S
C1009 H989 0.950 . S
C1009 C1005 1.385 . S
C1009 C1008 1.374 . S
C1010 C1007 1.499 . S
C1010 C1011 1.373 . S
C1010 C1012 1.389 . S
C1011 H990 0.950 . S
C1011 C1010 1.373 . S
C1011 C1027 1.377 . S
C1012 C1010 1.389 . S
C1012 C1013 1.524 . S
C1012 C1026 1.377 . S
C1013 C1012 1.524 . S
C1013 C1014 1.397 . S
C1013 C1018 1.363 . S
C1014 H991 0.950 . S
C1014 C1013 1.397 . S
C1014 C1015 1.334 . S
C1015 H992 0.950 . S
C1015 C1014 1.334 . S
C1015 C1016 1.287 . S
C1016 C1015 1.287 . S
C1016 C1017 1.524 . S
C1016 H1035 0.913 . S
C1017 H993 0.950 . S
C1017 C1016 1.524 . S
C1017 C1018 1.415 . S
C1018 H994 0.950 . S
C1018 C1013 1.363 . S
C1018 C1017 1.415 . S
C1019 H995 0.951 . S
C1019 C1020 1.366 . S
C1019 C1021 1.388 . S
C1020 C1019 1.366 . S
C1020 C1024 1.385 . S
C1021 H996 0.951 . S
C1021 C1019 1.388 . S
C1021 C1022 1.366 . S
C1022 C1021 1.366 . S
C1022 C1023 1.414 . S
C1022 C1025 1.499 . S
C1023 H997 0.950 . S
C1023 C1022 1.414 . S
C1023 C1024 1.374 . S
C1024 H998 0.950 . S
C1024 C1020 1.385 . S
C1024 C1023 1.374 . S
C1025 C1022 1.499 . S
C1025 C1026 1.373 1_554 S
C1025 C1027 1.389 1_554 S
C1026 H999 0.950 . S
C1026 C1012 1.377 . S
C1026 C1025 1.373 1_556 S
C1027 C1011 1.377 . S
C1027 C1025 1.389 1_556 S
C1027 C1028 1.524 1_556 S
C1028 C1027 1.524 1_554 S
C1028 C1029 1.397 . S
C1028 C1033 1.363 . S
C1029 H1000 0.950 . S
C1029 C1028 1.397 . S
C1029 C1030 1.334 . S
C1030 H1001 0.950 . S
C1030 C1029 1.334 . S
C1030 C1031 1.287 . S
C1031 C1030 1.287 . S
C1031 C1032 1.524 . S
C1031 H1034 0.999 . S
C1032 H1002 0.950 . S
C1032 C1031 1.524 . S
C1032 C1033 1.415 . S
C1033 H1003 0.950 1_554 S
C1033 C1028 1.363 . S
C1033 C1032 1.415 . S
H1034 C1031 0.999 . S
H1035 C1016 0.913 . S
H1036 C1054 0.951 . S
H1037 C1056 0.951 . S
H1038 C1058 0.951 . S
H1039 C1059 0.950 . S
H1040 C1061 0.950 . S
H1041 C1064 0.950 . S
H1042 C1065 0.950 . S
H1043 C1067 0.950 . S
H1044 C1068 0.950 . S
H1045 C1069 0.951 . S
H1046 C1071 0.951 . S
H1047 C1073 0.950 . S
H1048 C1074 0.950 1_455 S
H1049 C1076 0.950 . S
H1050 C1079 0.950 . S
H1051 C1080 0.950 . S
H1052 C1082 0.950 . S
H1053 C1083 0.950 . S
C1054 H1036 0.951 . S
C1054 C1055 1.366 . S
C1054 C1056 1.388 . S
C1055 C1054 1.366 . S
C1055 C1059 1.385 . S
C1056 H1037 0.951 . S
C1056 C1054 1.388 . S
C1056 C1057 1.366 . S
C1057 C1056 1.366 . S
C1057 C1058 1.414 . S
C1057 C1060 1.499 . S
C1058 H1038 0.951 . S
C1058 C1057 1.414 . S
C1058 C1059 1.374 . S
C1059 H1039 0.950 . S
C1059 C1055 1.385 . S
C1059 C1058 1.374 . S
C1060 C1057 1.499 . S
C1060 C1061 1.373 1_455 S
C1060 C1062 1.389 . S
C1061 H1040 0.950 . S
C1061 C1060 1.373 1_655 S
C1061 C1077 1.377 . S
C1062 C1060 1.389 . S
C1062 C1063 1.524 . S
C1062 C1076 1.377 . S
C1063 C1062 1.524 . S
C1063 C1064 1.397 . S
C1063 C1068 1.363 . S
C1064 H1041 0.950 . S
C1064 C1063 1.397 . S
C1064 C1065 1.334 . S
C1065 H1042 0.950 . S
C1065 C1064 1.334 . S
C1065 C1066 1.287 . S
C1066 C1065 1.287 . S
C1066 C1067 1.524 . S
C1066 H1085 0.913 . S
C1067 H1043 0.950 . S
C1067 C1066 1.524 . S
C1067 C1068 1.415 . S
C1068 H1044 0.950 . S
C1068 C1063 1.363 . S
C1068 C1067 1.415 . S
C1069 H1045 0.951 . S
C1069 C1070 1.366 . S
C1069 C1071 1.388 . S
C1070 C1069 1.366 . S
C1070 C1074 1.385 . S
C1071 H1046 0.951 . S
C1071 C1069 1.388 . S
C1071 C1072 1.366 . S
C1072 C1071 1.366 . S
C1072 C1073 1.414 1_655 S
C1072 C1075 1.500 . S
C1073 H1047 0.950 . S
C1073 C1072 1.414 1_455 S
C1073 C1074 1.374 1_455 S
C1074 H1048 0.950 1_655 S
C1074 C1070 1.385 . S
C1074 C1073 1.374 1_655 S
C1075 C1072 1.500 . S
C1075 C1076 1.362 1_655 S
C1075 C1077 1.397 . S
C1076 H1049 0.950 . S
C1076 C1062 1.377 . S
C1076 C1075 1.362 1_455 S
C1077 C1061 1.377 . S
C1077 C1075 1.397 . S
C1077 C1078 1.524 . S
C1078 C1077 1.524 . S
C1078 C1079 1.397 . S
C1078 C1083 1.363 . S
C1079 H1050 0.950 . S
C1079 C1078 1.397 . S
C1079 C1080 1.334 . S
C1080 H1051 0.950 . S
C1080 C1079 1.334 . S
C1080 C1081 1.287 . S
C1081 C1080 1.287 . S
C1081 C1082 1.524 . S
C1081 H1084 0.999 . S
C1082 H1052 0.950 . S
C1082 C1081 1.524 . S
C1082 C1083 1.415 . S
C1083 H1053 0.950 . S
C1083 C1078 1.363 . S
C1083 C1082 1.415 . S
H1084 C1081 0.999 . S
H1085 C1066 0.913 . S
C205 C7 0.581 . S
C220 C180 0.719 . S
C255 C51 2.066 . S
C270 C158 1.789 . S
C305 C87 0.980 . S
C320 C172 0.965 . S
C355 C16 0.263 . S
C370 C183 0.260 . S
C420 C161 1.756 . S
C405 C42 1.797 . S
C470 C169 1.213 . S
C455 C96 1.423 . S
C505 C47 1.365 . S
C520 C136 1.164 . S
C555 C91 3.298 . S
C570 C147 2.948 . S
C605 C2 2.148 . S
C620 C125 1.842 . S
C670 C139 1.021 . S
C655 C56 1.032 . S
C720 C150 2.752 . S
C705 C82 2.803 . S
C755 C11 1.719 . S
C770 C128 1.682 . S
C820 C149 1.637 . S
C805 C19 1.650 . S
C855 C50 1.421 . S
C870 C127 1.403 . S
C905 C99 1.510 . S
C920 C138 1.480 . S
C970 C171 1.451 . S
C955 C59 1.471 . S
C1020 C182 1.228 . S
C1005 C90 1.264 . S
C1055 C10 1.434 . S
C1070 C160 1.403 . S
