# Generated by pormake.
# Topology nia, (6,6)-cn, num edge types: 1
# Building blocks:
#     Node 0, Type 0, BuildingBlock: VOLQOD_clean_sbu_1, # of connection points: 6
#     Node 1, Type 0, BuildingBlock: VOLQOD_clean_sbu_1, # of connection points: 6
#     Node 2, Type 1, BuildingBlock: MIDCAF_clean_sbu_0, # of connection points: 6
#     Node 3, Type 1, BuildingBlock: MIDCAF_clean_sbu_0, # of connection points: 6
#     Edge 4, Type (0, 1), BuildingBlock: TEMPAE_clean_linker_10, # of connection points: 2
#     Edge 5, Type (0, 1), BuildingBlock: TEMPAE_clean_linker_10, # of connection points: 2
#     Edge 6, Type (0, 1), BuildingBlock: TEMPAE_clean_linker_10, # of connection points: 2
#     Edge 7, Type (0, 1), BuildingBlock: TEMPAE_clean_linker_10, # of connection points: 2
#     Edge 8, Type (0, 1), BuildingBlock: TEMPAE_clean_linker_10, # of connection points: 2
#     Edge 9, Type (0, 1), BuildingBlock: TEMPAE_clean_linker_10, # of connection points: 2
#     Edge 10, Type (0, 1), BuildingBlock: TEMPAE_clean_linker_10, # of connection points: 2
#     Edge 11, Type (0, 1), BuildingBlock: TEMPAE_clean_linker_10, # of connection points: 2
#     Edge 12, Type (0, 1), BuildingBlock: TEMPAE_clean_linker_10, # of connection points: 2
#     Edge 13, Type (0, 1), BuildingBlock: TEMPAE_clean_linker_10, # of connection points: 2
#     Edge 14, Type (0, 1), BuildingBlock: TEMPAE_clean_linker_10, # of connection points: 2
#     Edge 15, Type (0, 1), BuildingBlock: TEMPAE_clean_linker_10, # of connection points: 2
# Relax obj value: 0.144
# Max RMSD: 0.235
# Mean RMSD: 0.189
data_MOF--net-nia--node1-VOLQOD_clean_sbu_1--node2-MIDCAF_clean_sbu_0--edge1-TEMPAE_clean_linker_10
_symmetry_space_group_name_H-M    P1
_symmetry_Int_Tables_number       1
_symmetry_cell_setting            triclinic
loop_
_symmetry_equiv_pos_as_xyz
'x, y, z'
_cell_length_a     23.86707
_cell_length_b     23.925497
_cell_length_c     36.131202
_cell_angle_alpha  91.855719
_cell_angle_beta   89.755464
_cell_angle_gamma 120.47748
loop_
_atom_site_label
_atom_site_type_symbol
_atom_site_fract_x
_atom_site_fract_y
_atom_site_fract_z
_atom_type_partial_charge
O0 O 0.07683 0.05436 0.94782 0.0
Zn1 Zn -0.01471 -0.00437 0.96021 0.0
O2 O 0.97486 0.97861 0.01209 0.0
Zn3 Zn 0.92102 0.88508 0.01869 0.0
Zn4 Zn 0.0605 0.0133 0.03492 0.0
Zn5 Zn 0.93308 0.02342 0.03311 0.0
O6 O 0.84015 0.86392 0.04799 0.0
O7 O 0.86058 0.963 0.06428 0.0
O8 O 0.95396 0.91519 0.92996 0.0
O9 O 0.90048 0.83504 0.96859 0.0
O10 O 0.96931 0.85655 0.05154 0.0
O11 O 0.06856 0.94318 0.05833 0.0
O12 O 0.07347 0.07718 0.07626 0.0
O13 O 0.93618 0.03608 0.943 0.0
O14 O -0.00731 0.09645 0.06775 0.0
O15 O 0.89695 0.05588 0.99422 0.0
C16 C 0.1305 0.07477 0.96479 0.0
C17 C 0.82725 0.90181 0.06698 0.0
C18 C 0.02721 0.88424 0.06445 0.0
C19 C 0.9196 0.85511 0.93597 0.0
C20 C 0.04426 0.10784 0.08466 0.0
C21 C 0.90316 0.05738 0.95919 0.0
O22 O 0.1327 0.06041 0.99821 0.0
O23 O 0.04464 0.14999 0.49593 0.0
Zn24 Zn 0.01828 0.08535 0.5366 0.0
O25 O -0.0221 -0.00381 0.51645 0.0
Zn26 Zn 0.88699 0.94583 0.53112 0.0
Zn27 Zn -0.02027 -0.00212 0.46301 0.0
Zn28 Zn 0.02651 0.95578 0.53295 0.0
O29 O 0.87183 0.86775 0.55844 0.0
O30 O 0.9691 0.87654 0.56184 0.0
O31 O 0.95513 0.09531 0.56903 0.0
O32 O 0.86443 -0.00111 0.56581 0.0
O33 O 0.82522 0.91336 0.48682 0.0
O34 O 0.89313 0.94134 0.4398 0.0
O35 O 0.03741 0.96881 0.4419 0.0
O36 O 0.0966 0.10811 0.5686 0.0
O37 O 0.06496 0.93097 0.48944 0.0
O38 O 0.09944 0.01673 0.56735 0.0
C39 C 0.03588 0.14176 0.46095 0.0
C40 C 0.9088 0.84739 0.56927 0.0
C41 C 0.83579 0.91308 0.45222 0.0
C42 C 0.8965 0.05736 0.57834 0.0
C43 C 0.06645 0.94159 0.45497 0.0
C44 C 0.12183 0.07519 0.57889 0.0
O45 O 0.01026 0.08578 0.44537 0.0
Zn46 Zn 0.29646 0.63604 0.19788 0.0
Zn47 Zn 0.30965 0.66452 0.3252 0.0
Zn48 Zn 0.30237 0.65087 0.26158 0.0
C49 C 0.42782 0.68945 0.30756 0.0
C50 C 0.21731 0.5426 0.31719 0.0
O51 O 0.24178 0.68914 0.24052 0.0
O52 O 0.21288 0.6311 0.1883 0.0
C53 C 0.41894 0.72837 0.20726 0.0
O54 O 0.40595 0.70025 0.27778 0.0
O55 O 0.38924 0.65988 0.33331 0.0
O56 O 0.22567 0.58831 0.33915 0.0
O57 O 0.24893 0.55551 0.2867 0.0
O58 O 0.37595 0.71495 0.18286 0.0
O59 O 0.40189 0.70332 0.23928 0.0
O60 O 0.257 0.54563 0.24928 0.0
O61 O 0.29785 0.55433 0.19367 0.0
C62 C 0.26846 0.51969 0.22069 0.0
O63 O 0.25906 0.71004 0.27796 0.0
O64 O 0.31767 0.7511 0.32906 0.0
C65 C 0.20589 0.66816 0.21102 0.0
C66 C 0.27937 0.75165 0.30535 0.0
Zn67 Zn 0.68275 0.3851 0.83499 0.0
Zn68 Zn 0.6217 0.27688 0.65883 0.0
Zn69 Zn 0.65178 0.33485 0.77051 0.0
C70 C 0.70264 0.41705 0.68689 0.0
C71 C 0.53676 0.26793 0.72783 0.0
O72 O 0.70187 0.29091 0.79852 0.0
O73 O 0.72696 0.34089 0.85371 0.0
C74 C 0.74273 0.48415 0.7845 0.0
O75 O 0.6924 0.40313 0.72183 0.0
O76 O 0.68048 0.37469 0.65998 0.0
O77 O 0.58652 0.27657 0.71042 0.0
O78 O 0.54648 0.28519 0.76199 0.0
O79 O 0.73775 0.47321 0.81859 0.0
O80 O 0.71251 0.4378 0.76032 0.0
O81 O 0.56016 0.30762 0.79865 0.0
O82 O 0.59477 0.35905 0.85311 0.0
C83 C 0.54855 0.32258 0.83117 0.0
O84 O 0.68729 0.26752 0.76273 0.0
O85 O 0.6434 0.26708 0.71123 0.0
C86 C 0.72765 0.30007 0.83103 0.0
C87 C 0.67606 0.24832 0.72893 0.0
C88 C 0.10783 0.85756 0.08842 0.0
C89 C 0.04558 0.84936 0.08985 0.0
C90 C 0.12699 0.82663 0.11339 0.0
C91 C 0.0835 0.78859 0.14123 0.0
C92 C 0.0213 0.78207 0.14359 0.0
C93 C 0.00254 0.81162 0.11733 0.0
C94 C 0.19324 0.83352 0.10941 0.0
C95 C 0.97488 0.74418 0.17385 0.0
C96 C 0.1169 0.65934 0.17164 0.0
C97 C 0.16265 0.69236 0.20026 0.0
C98 C 0.08706 0.68853 0.15373 0.0
C99 C 0.10181 0.75151 0.16555 0.0
C100 C 0.14218 0.78203 0.19716 0.0
C101 C 0.17335 0.75257 0.21373 0.0
C102 C 0.04505 0.65454 0.11984 0.0
C103 C 0.15678 0.84797 0.21169 0.0
H104 H 0.14111 0.88726 0.06729 0.0
H105 H 0.95487 0.80674 0.11889 0.0
H106 H 0.22222 0.85527 0.13525 0.0
H107 H 0.18795 0.78496 0.10483 0.0
H108 H 0.2208 0.86431 0.08601 0.0
H109 H 0.93066 0.74848 0.17369 0.0
H110 H 0.95968 0.69213 0.17052 0.0
H111 H -0.00055 0.76158 0.2013 0.0
H112 H 0.10783 0.61232 0.1614 0.0
H113 H 0.20941 0.77884 0.23533 0.0
H114 H 0.07108 0.6805 0.09477 0.0
H115 H -0.00098 0.65525 0.12108 0.0
H116 H 0.03314 0.60331 0.11659 0.0
H117 H 0.19564 0.886 0.19491 0.0
H118 H 0.17386 0.8568 0.24103 0.0
H119 H 0.11326 0.85314 0.20964 0.0
C120 C 0.21149 0.17201 0.61322 0.0
C121 C 0.17813 0.10501 0.60493 0.0
C122 C 0.26685 0.20091 0.63642 0.0
C123 C 0.28898 0.16178 0.65185 0.0
C124 C 0.2539 0.09383 0.64488 0.0
C125 C 0.19911 0.06632 0.62139 0.0
C126 C 0.3033 0.27361 0.64305 0.0
C127 C 0.27571 0.05042 0.66105 0.0
C128 C 0.46882 0.2332 0.67026 0.0
C129 C 0.47332 0.24305 0.70884 0.0
C130 C 0.40936 0.20842 0.65144 0.0
C131 C 0.35259 0.19223 0.67172 0.0
C132 C 0.35671 0.2028 0.71066 0.0
C133 C 0.41733 0.22877 0.72874 0.0
C134 C 0.40723 0.1986 0.60981 0.0
C135 C 0.29708 0.18559 0.73326 0.0
H136 H 0.19545 0.20223 0.60079 0.0
H137 H 0.17317 0.01439 0.61558 0.0
H138 H 0.3128 0.28606 0.67308 0.0
H139 H 0.35117 0.29515 0.62932 0.0
H140 H 0.27635 0.2963 0.63213 0.0
H141 H 0.2396 -0.00187 0.656 0.0
H142 H 0.32244 0.06083 0.64855 0.0
H143 H 0.28425 0.06022 0.69134 0.0
H144 H 0.51181 0.24475 0.65455 0.0
H145 H 0.42065 0.23718 0.75844 0.0
H146 H 0.38501 0.22419 0.59671 0.0
H147 H 0.37645 0.14624 0.60218 0.0
H148 H 0.4563 0.21653 0.59805 0.0
H149 H 0.27291 0.21153 0.72317 0.0
H150 H 0.30879 0.19789 0.76323 0.0
H151 H 0.26162 0.13285 0.72989 0.0
C152 C 0.06513 0.21329 0.11185 0.0
C153 C 0.07134 0.15849 0.1143 0.0
C154 C 0.09551 0.26479 0.13792 0.0
C155 C 0.13118 0.26024 0.1678 0.0
C156 C 0.13313 0.2027 0.17204 0.0
C157 C 0.10428 0.15287 0.14469 0.0
C158 C 0.09297 0.32573 0.132 0.0
C159 C 0.16795 0.19467 0.20437 0.0
C160 C 0.27081 0.42645 0.19119 0.0
C161 C 0.24168 0.4493 0.2164 0.0
C162 C 0.23744 0.36221 0.17766 0.0
C163 C 0.17407 0.3196 0.19047 0.0
C164 C 0.14823 0.3401 0.21971 0.0
C165 C 0.18186 0.40551 0.23182 0.0
C166 C 0.26705 0.34243 0.14656 0.0
C167 C 0.08262 0.29478 0.23574 0.0
H168 H 0.03928 0.21734 0.08843 0.0
H169 H 0.10779 0.10966 0.147 0.0
H170 H 0.07451 0.33872 0.15708 0.0
H171 H 0.14269 0.36678 0.12702 0.0
H172 H 0.06136 0.3204 0.10806 0.0
H173 H 0.1477 0.1426 0.21015 0.0
H174 H 0.2201 0.21557 0.19778 0.0
H175 H 0.16472 0.22015 0.22979 0.0
H176 H 0.31766 0.46024 0.17971 0.0
H177 H 0.15882 0.42314 0.25099 0.0
H178 H 0.23955 0.33543 0.12044 0.0
H179 H 0.26393 0.29574 0.1523 0.0
H180 H 0.31884 0.37944 0.14217 0.0
H181 H 0.04385 0.29083 0.21711 0.0
H182 H 0.07696 0.31278 0.26344 0.0
H183 H 0.07537 0.24543 0.23823 0.0
C184 C 0.89185 0.14902 0.61026 0.0
C185 C 0.86508 0.08201 0.60415 0.0
C186 C 0.86137 0.17338 0.63344 0.0
C187 C 0.80325 0.12965 0.65138 0.0
C188 C 0.77722 0.06196 0.64644 0.0
C189 C 0.80816 0.03889 0.62259 0.0
C190 C 0.89009 0.24592 0.63762 0.0
C191 C 0.71584 0.01395 0.66558 0.0
C192 C 0.7505 0.20317 0.72891 0.0
C193 C 0.70543 0.21369 0.7103 0.0
C194 C 0.78109 0.17345 0.71054 0.0
C195 C 0.76695 0.15501 0.67255 0.0
C196 C 0.72033 0.16415 0.65393 0.0
C197 C 0.68973 0.19278 0.67315 0.0
C198 C 0.82956 0.16322 0.7315 0.0
C199 C 0.70422 0.14559 0.61335 0.0
H200 H 0.93581 0.18265 0.59611 0.0
H201 H 0.78765 -0.01297 0.61835 0.0
H202 H 0.8557 0.25936 0.62601 0.0
H203 H 0.89767 0.26135 0.66734 0.0
H204 H 0.93725 0.27335 0.62327 0.0
H205 H 0.70555 0.96333 0.66174 0.0
H206 H 0.71957 0.02632 0.69568 0.0
H207 H 0.67392 0.01637 0.65443 0.0
H208 H 0.76294 0.21936 0.75758 0.0
H209 H 0.65415 0.19965 0.65874 0.0
H210 H 0.87868 0.19313 0.71978 0.0
H211 H 0.8167 0.11175 0.72849 0.0
H212 H 0.83178 0.17636 0.76145 0.0
H213 H 0.74838 0.17397 0.59665 0.0
H214 H 0.66558 0.15444 0.60327 0.0
H215 H 0.68793 0.09354 0.60833 0.0
C216 C 0.72191 0.8121 0.09032 0.0
C217 C 0.77448 0.87563 0.09417 0.0
C218 C 0.66939 0.78964 0.11462 0.0
C219 C 0.67033 0.83156 0.14358 0.0
C220 C 0.72541 0.89403 0.14914 0.0
C221 C 0.77659 0.91556 0.12415 0.0
C222 C 0.61128 0.72251 0.10799 0.0
C223 C 0.72881 0.93938 0.18028 0.0
C224 C 0.50455 0.80523 0.16607 0.0
C225 C 0.48754 0.76523 0.1965 0.0
C226 C 0.56519 0.82936 0.1496 0.0
C227 C 0.61019 0.81368 0.16427 0.0
C228 C 0.59537 0.77766 0.19683 0.0
C229 C 0.53359 0.75305 0.21236 0.0
C230 C 0.57941 0.86827 0.11511 0.0
C231 C 0.6428 0.76154 0.21396 0.0
H232 H 0.72054 0.78096 0.06743 0.0
H233 H 0.81803 0.96427 0.12782 0.0
H234 H 0.59766 0.6956 0.13404 0.0
H235 H 0.56904 0.72637 0.09888 0.0
H236 H 0.62053 0.69398 0.08651 0.0
H237 H 0.77858 0.98203 0.18417 0.0
H238 H 0.69513 0.95715 0.17413 0.0
H239 H 0.71325 0.91356 0.20667 0.0
H240 H 0.46904 0.81501 0.15392 0.0
H241 H 0.52011 0.72097 0.23536 0.0
H242 H 0.58453 0.84098 0.09118 0.0
H243 H 0.62601 0.91489 0.11848 0.0
H244 H 0.54044 0.87891 0.10845 0.0
H245 H 0.64162 0.72066 0.19786 0.0
H246 H 0.63038 0.74692 0.24311 0.0
H247 H 0.69322 0.80342 0.21331 0.0
C248 C 0.91552 0.7833 0.62031 0.0
C249 C 0.88072 0.78813 0.59066 0.0
C250 C 0.88898 0.72672 0.64074 0.0
C251 C 0.82757 0.67327 0.63016 0.0
C252 C 0.79219 0.67825 0.60033 0.0
C253 C 0.81882 0.73616 0.58133 0.0
C254 C 0.92671 0.7238 0.67332 0.0
C255 C 0.72696 0.62185 0.58788 0.0
C256 C 0.78718 0.5024 0.64877 0.0
C257 C 0.74079 0.48514 0.67655 0.0
C258 C 0.81778 0.56455 0.63445 0.0
C259 C 0.80167 0.61048 0.64848 0.0
C260 C 0.75636 0.59393 0.67746 0.0
C261 C 0.72574 0.53088 0.69085 0.0
C262 C 0.86464 0.57983 0.60293 0.0
C263 C 0.73906 0.64218 0.69359 0.0
H264 H 0.96308 0.8241 0.6278 0.0
H265 H 0.79209 0.7401 0.55834 0.0
H266 H 0.89591 0.7092 0.69832 0.0
H267 H 0.94049 0.68654 0.66763 0.0
H268 H 0.97162 0.77109 0.67952 0.0
H269 H 0.70565 0.63391 0.56433 0.0
H270 H 0.73223 0.5798 0.57928 0.0
H271 H 0.69236 0.60644 0.61115 0.0
H272 H 0.79803 0.46645 0.63744 0.0
H273 H 0.68802 0.51639 0.71134 0.0
H274 H 0.91161 0.62452 0.60975 0.0
H275 H 0.84454 0.58903 0.57772 0.0
H276 H 0.87412 0.53969 0.59642 0.0
H277 H 0.78193 0.6818 0.70872 0.0
H278 H 0.69783 0.61958 0.71304 0.0
H279 H 0.72602 0.66462 0.67136 0.0
C280 C 0.11255 0.94305 0.39262 0.0
C281 C 0.10046 0.92043 0.42888 0.0
C282 C 0.14199 0.92148 0.36679 0.0
C283 C 0.15928 0.87589 0.37742 0.0
C284 C 0.14754 0.85305 0.41398 0.0
C285 C 0.11858 0.87593 0.43937 0.0
C286 C 0.15464 0.94743 0.3282 0.0
C287 C 0.16515 0.80403 0.4262 0.0
C288 C 0.18328 0.76505 0.3109 0.0
C289 C 0.25065 0.79207 0.31381 0.0
C290 C 0.15277 0.7948 0.32919 0.0
C291 C 0.19091 0.85254 0.3508 0.0
C292 C 0.2595 0.88318 0.35069 0.0
C293 C 0.28858 0.85223 0.33232 0.0
C294 C 0.0795 0.76107 0.32828 0.0
C295 C 0.30191 0.9455 0.37271 0.0
H296 H 0.09901 0.9778 0.38433 0.0
H297 H 0.10905 0.85803 0.46723 0.0
H298 H 0.20746 0.97211 0.3225 0.0
H299 H 0.12986 0.9069 0.30739 0.0
H300 H 0.13764 0.98233 0.32425 0.0
H301 H 0.15157 0.79025 0.45535 0.0
H302 H 0.14025 0.75954 0.40807 0.0
H303 H 0.21825 0.82408 0.42352 0.0
H304 H 0.15395 0.71807 0.29693 0.0
H305 H 0.34081 0.87299 0.33447 0.0
H306 H 0.06298 0.7964 0.325 0.0
H307 H 0.06039 0.73699 0.35492 0.0
H308 H 0.0581 0.72366 0.30545 0.0
H309 H 0.28573 0.98092 0.36858 0.0
H310 H 0.35387 0.96809 0.36502 0.0
H311 H 0.29786 0.93529 0.40265 0.0
C312 C 0.24989 0.12243 0.95618 0.0
C313 C 0.19079 0.11559 0.9446 0.0
C314 C 0.3064 0.15833 0.93567 0.0
C315 C 0.30353 0.1887 0.90329 0.0
C316 C 0.24437 0.18325 0.89198 0.0
C317 C 0.18855 0.14639 0.91268 0.0
C318 C 0.36888 0.16286 0.94825 0.0
C319 C 0.23996 0.2159 0.8579 0.0
C320 C 0.46587 0.32422 0.87221 0.0
C321 C 0.48191 0.29197 0.84494 0.0
C322 C 0.40631 0.29191 0.89032 0.0
C323 C 0.36259 0.22573 0.88113 0.0
C324 C 0.37724 0.19386 0.85232 0.0
C325 C 0.43705 0.22751 0.83455 0.0
C326 C 0.39155 0.32771 0.9204 0.0
C327 C 0.33156 0.12328 0.84175 0.0
H328 H 0.25166 0.09848 0.98074 0.0
H329 H 0.14301 0.14178 0.90381 0.0
H330 H 0.38669 0.14259 0.9262 0.0
H331 H 0.40699 0.21442 0.95326 0.0
H332 H 0.36281 0.13632 0.97402 0.0
H333 H 0.19055 0.20852 0.85361 0.0
H334 H 0.27535 0.26879 0.8602 0.0
H335 H 0.2528 0.19662 0.833 0.0
H336 H 0.50081 0.3742 0.88017 0.0
H337 H 0.45018 0.20221 0.81404 0.0
H338 H 0.39158 0.30768 0.94766 0.0
H339 H 0.34245 0.32086 0.91597 0.0
H340 H 0.42769 0.38054 0.92156 0.0
H341 H 0.32877 0.09274 0.86496 0.0
H342 H 0.34761 0.10757 0.8166 0.0
H343 H 0.28178 0.11415 0.83661 0.0
C344 C 0.10427 0.25996 0.44953 0.0
C345 C 0.05602 0.19776 0.4374 0.0
C346 C 0.12602 0.31263 0.42632 0.0
C347 C 0.09772 0.3028 0.39055 0.0
C348 C 0.04787 0.24042 0.3785 0.0
C349 C 0.02806 0.18842 0.40196 0.0
C350 C 0.17991 0.37862 0.43987 0.0
C351 C 0.01602 0.2284 0.34074 0.0
C352 C 0.12405 0.45824 0.35127 0.0
C353 C 0.17874 0.4759 0.32945 0.0
C354 C 0.09412 0.39939 0.36939 0.0
C355 C 0.12061 0.35834 0.36603 0.0
C356 C 0.17335 0.37415 0.34211 0.0
C357 C 0.20198 0.43311 0.32408 0.0
C358 C 0.03666 0.38304 0.39382 0.0
C359 C 0.20265 0.33134 0.33769 0.0
H360 H 0.12618 0.26716 0.47679 0.0
H361 H -0.00966 0.14034 0.39256 0.0
H362 H 0.22152 0.39668 0.42069 0.0
H363 H 0.16266 0.41384 0.44021 0.0
H364 H 0.19749 0.37774 0.46815 0.0
H365 H 0.97242 0.1791 0.33758 0.0
H366 H 0.00147 0.2648 0.33562 0.0
H367 H 0.05118 0.23346 0.31906 0.0
H368 H 0.10625 0.49164 0.35528 0.0
H369 H 0.24498 0.44749 0.3076 0.0
H370 H 0.05154 0.38726 0.4233 0.0
H371 H -0.00281 0.33221 0.38818 0.0
H372 H 0.0171 0.41582 0.38974 0.0
H373 H 0.22814 0.33348 0.36379 0.0
H374 H 0.23803 0.34657 0.31474 0.0
H375 H 0.1642 0.28007 0.3323 0.0
C376 C 0.89621 0.10591 0.90074 0.0
C377 C 0.87338 0.08587 0.93656 0.0
C378 C 0.8714 0.13647 0.87943 0.0
C379 C 0.82188 0.14611 0.89411 0.0
C380 C 0.79648 0.1233 0.92953 0.0
C381 C 0.82307 0.09397 0.95056 0.0
C382 C 0.9 0.16075 0.8419 0.0
C383 C 0.74276 0.13187 0.94571 0.0
C384 C 0.80966 0.29053 0.86734 0.0
C385 C 0.75624 0.26187 0.84295 0.0
C386 C 0.8332 0.25361 0.8829 0.0
C387 C 0.80155 0.1862 0.87434 0.0
C388 C 0.74902 0.15737 0.84859 0.0
C389 C 0.72703 0.19585 0.83299 0.0
C390 C 0.89053 0.28639 0.90949 0.0
C391 C 0.7139 0.08554 0.83904 0.0
H392 H 0.93508 0.09965 0.88973 0.0
H393 H 0.80473 0.07772 0.97801 0.0
H394 H 0.86109 0.13996 0.82035 0.0
H395 H 0.92258 0.2143 0.84179 0.0
H396 H 0.93739 0.14805 0.83419 0.0
H397 H 0.72395 0.10558 0.9718 0.0
H398 H 0.76113 0.18418 0.95162 0.0
H399 H 0.70186 0.11424 0.92552 0.0
H400 H 0.83238 0.34181 0.87477 0.0
H401 H 0.68519 0.17376 0.81439 0.0
H402 H 0.92844 0.27489 0.90109 0.0
H403 H 0.87477 0.26792 0.93767 0.0
H404 H 0.9126 0.33997 0.91089 0.0
H405 H 0.74898 0.0694 0.83231 0.0
H406 H 0.67964 0.07237 0.81524 0.0
H407 H 0.68597 0.05842 0.86337 0.0
C408 C 0.71892 0.86723 0.4353 0.0
C409 C 0.78101 0.88002 0.42553 0.0
C410 C 0.66701 0.83713 0.40983 0.0
C411 C 0.67732 0.81828 0.37402 0.0
C412 C 0.73988 0.83108 0.36394 0.0
C413 C 0.79118 0.86225 0.38978 0.0
C414 C 0.60094 0.82498 0.42138 0.0
C415 C 0.75224 0.81052 0.32627 0.0
C416 C 0.5187 0.68307 0.33514 0.0
C417 C 0.49758 0.71777 0.31469 0.0
C418 C 0.58055 0.71435 0.35167 0.0
C419 C 0.62124 0.78209 0.34821 0.0
C420 C 0.60254 0.81601 0.32449 0.0
C421 C 0.54057 0.78314 0.30779 0.0
C422 C 0.59955 0.67605 0.37577 0.0
C423 C 0.64482 0.88814 0.31981 0.0
H424 H 0.71103 0.88144 0.46274 0.0
H425 H 0.83914 0.87178 0.38213 0.0
H426 H 0.58248 0.84616 0.40128 0.0
H427 H 0.56586 0.77201 0.4214 0.0
H428 H 0.60201 0.84599 0.44943 0.0
H429 H 0.80465 0.82831 0.32182 0.0
H430 H 0.72502 0.75678 0.32332 0.0
H431 H 0.7343 0.82874 0.30408 0.0
H432 H 0.48523 0.63225 0.34015 0.0
H433 H 0.52384 0.80985 0.29203 0.0
H434 H 0.59501 0.687 0.40533 0.0
H435 H 0.65091 0.68981 0.3712 0.0
H436 H 0.56808 0.62292 0.37039 0.0
H437 H 0.64065 0.91416 0.3447 0.0
H438 H 0.62989 0.90426 0.29514 0.0
H439 H 0.69668 0.90247 0.31718 0.0
C440 C 0.91871 0.83248 0.86777 0.0
C441 C 0.90152 0.80897 0.90376 0.0
C442 C 0.90145 0.79012 0.83667 0.0
C443 C 0.86579 0.72257 0.84162 0.0
C444 C 0.84911 0.69843 0.87787 0.0
C445 C 0.8671 0.74195 0.90848 0.0
C446 C 0.91977 0.81797 0.79864 0.0
C447 C 0.81144 0.62642 0.88438 0.0
C448 C 0.74726 0.58704 0.77952 0.0
C449 C 0.77972 0.55235 0.77522 0.0
C450 C 0.77868 0.64927 0.79627 0.0
C451 C 0.84329 0.67593 0.80939 0.0
C452 C 0.87946 0.64624 0.79863 0.0
C453 C 0.84699 0.58437 0.78125 0.0
C454 C 0.7394 0.68114 0.80534 0.0
C455 C 0.94935 0.67448 0.81074 0.0
H456 H 0.94525 0.8843 0.86367 0.0
H457 H 0.85392 0.7234 0.93608 0.0
H458 H 0.93314 0.78872 0.78018 0.0
H459 H 0.87748 0.81764 0.78578 0.0
H460 H 0.96094 0.86889 0.80002 0.0
H461 H 0.80425 0.61574 0.91429 0.0
H462 H 0.76298 0.60398 0.87061 0.0
H463 H 0.83738 0.60289 0.87213 0.0
H464 H 0.69502 0.56204 0.77505 0.0
H465 H 0.87201 0.55731 0.77791 0.0
H466 H 0.76939 0.73453 0.80309 0.0
H467 H 0.72227 0.67084 0.83428 0.0
H468 H 0.6962 0.66243 0.78671 0.0
H469 H -0.02351 0.72814 0.80935 0.0
H470 H 0.97425 0.65461 0.79344 0.0
H471 H 0.95087 0.66211 0.83993 0.0
loop_
_geom_bond_atom_site_label_1
_geom_bond_atom_site_label_2
_geom_bond_distance
_geom_bond_site_symmetry_2
_ccdc_geom_bond_type
O0 Zn1 1.953 1_545 S
O0 C16 1.225 . S
Zn1 O0 1.953 1_565 S
Zn1 O2 1.949 1_566 S
Zn1 O8 1.919 1_455 S
Zn1 O13 1.924 1_465 S
O2 Zn1 1.949 1_544 S
O2 Zn3 1.923 1_445 S
O2 Zn4 1.950 . S
O2 Zn5 1.945 1_455 S
Zn3 O2 1.923 1_665 S
Zn3 O6 1.933 . S
Zn3 O9 1.941 1_554 S
Zn3 O10 1.965 1_655 S
Zn4 O2 1.950 . S
Zn4 O11 1.938 . S
Zn4 O12 1.906 . S
Zn4 O22 1.953 1_554 S
Zn5 O2 1.945 1_655 S
Zn5 O7 1.932 1_545 S
Zn5 O14 1.977 1_655 S
Zn5 O15 1.910 1_554 S
O6 Zn3 1.933 . S
O6 C17 1.226 . S
O7 Zn5 1.932 1_565 S
O7 C17 1.307 . S
O8 Zn1 1.919 1_655 S
O8 C19 1.253 . S
O9 Zn3 1.941 1_556 S
O9 C19 1.283 . S
O10 Zn3 1.965 1_455 S
O10 C18 1.303 . S
O11 Zn4 1.938 . S
O11 C18 1.247 1_545 S
O12 Zn4 1.906 . S
O12 C20 1.304 . S
O13 Zn1 1.924 1_645 S
O13 C21 1.311 . S
O14 Zn5 1.977 1_455 S
O14 C20 1.272 . S
O15 Zn5 1.910 1_556 S
O15 C21 1.231 . S
C16 O0 1.225 . S
C16 O22 1.298 . S
C17 O6 1.226 . S
C17 O7 1.307 . S
C18 O10 1.303 . S
C18 O11 1.247 1_565 S
C19 O8 1.253 . S
C19 O9 1.283 . S
C20 O12 1.304 . S
C20 O14 1.272 . S
C21 O13 1.311 . S
C21 O15 1.231 . S
O22 Zn4 1.953 1_556 S
O22 C16 1.298 . S
O23 Zn24 1.953 . S
O23 C39 1.225 . S
Zn24 O23 1.953 . S
Zn24 O25 1.949 . S
Zn24 O31 1.919 1_455 S
Zn24 O36 1.924 . S
O25 Zn24 1.949 . S
O25 Zn26 1.923 1_445 S
O25 Zn27 1.950 . S
O25 Zn28 1.945 1_545 S
Zn26 O25 1.923 1_665 S
Zn26 O29 1.933 . S
Zn26 O32 1.941 1_565 S
Zn26 O33 1.965 . S
Zn27 O25 1.950 . S
Zn27 O34 1.938 1_445 S
Zn27 O35 1.906 1_545 S
Zn27 O45 1.953 . S
Zn28 O25 1.945 1_565 S
Zn28 O30 1.932 1_455 S
Zn28 O37 1.977 . S
Zn28 O38 1.910 1_565 S
O29 Zn26 1.933 . S
O29 C40 1.226 . S
O30 Zn28 1.932 1_655 S
O30 C40 1.307 . S
O31 Zn24 1.919 1_655 S
O31 C42 1.253 . S
O32 Zn26 1.941 1_545 S
O32 C42 1.283 . S
O33 Zn26 1.965 . S
O33 C41 1.303 . S
O34 Zn27 1.938 1_665 S
O34 C41 1.247 . S
O35 Zn27 1.906 1_565 S
O35 C43 1.304 . S
O36 Zn24 1.924 . S
O36 C44 1.311 . S
O37 Zn28 1.977 . S
O37 C43 1.272 . S
O38 Zn28 1.910 1_545 S
O38 C44 1.231 . S
C39 O23 1.225 . S
C39 O45 1.298 . S
C40 O29 1.226 . S
C40 O30 1.307 . S
C41 O33 1.303 . S
C41 O34 1.247 . S
C42 O31 1.253 . S
C42 O32 1.283 . S
C43 O35 1.304 . S
C43 O37 1.272 . S
C44 O36 1.311 . S
C44 O38 1.231 . S
O45 Zn27 1.953 . S
O45 C39 1.298 . S
Zn46 O52 1.920 . S
Zn46 O58 1.898 . S
Zn46 O61 1.905 . S
Zn47 O55 1.905 . S
Zn47 O56 1.898 . S
Zn47 O64 1.920 . S
Zn48 O51 2.080 . S
Zn48 O54 2.114 . S
Zn48 O57 2.120 . S
Zn48 O59 2.120 . S
Zn48 O60 2.114 . S
Zn48 O63 2.080 . S
C49 O54 1.166 . S
C49 O55 1.182 . S
C50 O56 1.167 . S
C50 O57 1.299 . S
O51 Zn48 2.080 . S
O51 C65 1.305 . S
O52 Zn46 1.920 . S
O52 C65 1.234 . S
C53 O58 1.167 . S
C53 O59 1.299 . S
O54 Zn48 2.114 . S
O54 C49 1.166 . S
O55 Zn47 1.905 . S
O55 C49 1.182 . S
O56 Zn47 1.898 . S
O56 C50 1.167 . S
O57 Zn48 2.120 . S
O57 C50 1.299 . S
O58 Zn46 1.898 . S
O58 C53 1.167 . S
O59 Zn48 2.120 . S
O59 C53 1.299 . S
O60 Zn48 2.114 . S
O60 C62 1.166 . S
O61 Zn46 1.905 . S
O61 C62 1.182 . S
C62 O60 1.166 . S
C62 O61 1.182 . S
O63 Zn48 2.080 . S
O63 C66 1.305 . S
O64 Zn47 1.920 . S
O64 C66 1.234 . S
C65 O51 1.305 . S
C65 O52 1.234 . S
C66 O63 1.305 . S
C66 O64 1.234 . S
Zn67 O73 1.920 . S
Zn67 O79 1.898 . S
Zn67 O82 1.905 . S
Zn68 O76 1.905 . S
Zn68 O77 1.898 . S
Zn68 O85 1.920 . S
Zn69 O72 2.080 . S
Zn69 O75 2.114 . S
Zn69 O78 2.120 . S
Zn69 O80 2.120 . S
Zn69 O81 2.114 . S
Zn69 O84 2.080 . S
C70 O75 1.166 . S
C70 O76 1.182 . S
C71 O77 1.167 . S
C71 O78 1.299 . S
O72 Zn69 2.080 . S
O72 C86 1.305 . S
O73 Zn67 1.920 . S
O73 C86 1.234 . S
C74 O79 1.167 . S
C74 O80 1.299 . S
O75 Zn69 2.114 . S
O75 C70 1.166 . S
O76 Zn68 1.905 . S
O76 C70 1.182 . S
O77 Zn68 1.898 . S
O77 C71 1.167 . S
O78 Zn69 2.120 . S
O78 C71 1.299 . S
O79 Zn67 1.898 . S
O79 C74 1.167 . S
O80 Zn69 2.120 . S
O80 C74 1.299 . S
O81 Zn69 2.114 . S
O81 C83 1.166 . S
O82 Zn67 1.905 . S
O82 C83 1.182 . S
C83 O81 1.166 . S
C83 O82 1.182 . S
O84 Zn69 2.080 . S
O84 C87 1.305 . S
O85 Zn68 1.920 . S
O85 C87 1.234 . S
C86 O72 1.305 . S
C86 O73 1.234 . S
C87 O84 1.305 . S
C87 O85 1.234 . S
C88 C89 1.391 . S
C88 C90 1.394 . S
C88 H104 0.931 . S
C89 C88 1.391 . S
C89 C93 1.376 . S
C90 C88 1.394 . S
C90 C91 1.369 . S
C90 C94 1.531 . S
C91 C90 1.369 . S
C91 C92 1.410 . S
C91 C99 1.503 . S
C92 C91 1.410 . S
C92 C93 1.392 . S
C92 C95 1.511 . S
C93 C89 1.376 . S
C93 C92 1.392 . S
C93 H105 0.929 . S
C94 C90 1.531 . S
C94 H106 0.960 . S
C94 H107 0.962 . S
C94 H108 0.960 . S
C95 C92 1.511 . S
C95 H109 0.961 1_455 S
C95 H110 0.961 . S
C95 H111 0.961 . S
C96 C97 1.370 . S
C96 C98 1.363 . S
C96 H112 0.931 . S
C97 C96 1.370 . S
C97 C101 1.408 . S
C98 C96 1.363 . S
C98 C99 1.370 . S
C98 C102 1.524 . S
C99 C91 1.503 . S
C99 C98 1.370 . S
C99 C100 1.403 . S
C100 C99 1.403 . S
C100 C101 1.404 . S
C100 C103 1.539 . S
C101 C97 1.408 . S
C101 C100 1.404 . S
C101 H113 0.930 . S
C102 C98 1.524 . S
C102 H114 0.956 . S
C102 H115 0.961 . S
C102 H116 0.961 . S
C103 C100 1.539 . S
C103 H117 0.958 . S
C103 H118 0.961 . S
C103 H119 0.960 . S
H104 C88 0.931 . S
H105 C93 0.929 . S
H106 C94 0.960 . S
H107 C94 0.962 . S
H108 C94 0.960 . S
H109 C95 0.961 1_655 S
H110 C95 0.961 . S
H111 C95 0.961 . S
H112 C96 0.931 . S
H113 C101 0.930 . S
H114 C102 0.956 . S
H115 C102 0.961 . S
H116 C102 0.961 . S
H117 C103 0.958 . S
H118 C103 0.961 . S
H119 C103 0.960 . S
C120 C121 1.391 . S
C120 C122 1.394 . S
C120 H136 0.931 . S
C121 C120 1.391 . S
C121 C125 1.376 . S
C122 C120 1.394 . S
C122 C123 1.369 . S
C122 C126 1.531 . S
C123 C122 1.369 . S
C123 C124 1.410 . S
C123 C131 1.503 . S
C124 C123 1.410 . S
C124 C125 1.392 . S
C124 C127 1.511 . S
C125 C121 1.376 . S
C125 C124 1.392 . S
C125 H137 0.929 . S
C126 C122 1.531 . S
C126 H138 0.960 . S
C126 H139 0.962 . S
C126 H140 0.960 . S
C127 C124 1.511 . S
C127 H141 0.961 . S
C127 H142 0.961 . S
C127 H143 0.961 . S
C128 C129 1.370 . S
C128 C130 1.363 . S
C128 H144 0.931 . S
C129 C128 1.370 . S
C129 C133 1.408 . S
C130 C128 1.363 . S
C130 C131 1.370 . S
C130 C134 1.524 . S
C131 C123 1.503 . S
C131 C130 1.370 . S
C131 C132 1.403 . S
C132 C131 1.403 . S
C132 C133 1.404 . S
C132 C135 1.539 . S
C133 C129 1.408 . S
C133 C132 1.404 . S
C133 H145 0.930 . S
C134 C130 1.524 . S
C134 H146 0.956 . S
C134 H147 0.961 . S
C134 H148 0.961 . S
C135 C132 1.539 . S
C135 H149 0.958 . S
C135 H150 0.961 . S
C135 H151 0.960 . S
H136 C120 0.931 . S
H137 C125 0.929 . S
H138 C126 0.960 . S
H139 C126 0.962 . S
H140 C126 0.960 . S
H141 C127 0.961 . S
H142 C127 0.961 . S
H143 C127 0.961 . S
H144 C128 0.931 . S
H145 C133 0.930 . S
H146 C134 0.956 . S
H147 C134 0.961 . S
H148 C134 0.961 . S
H149 C135 0.958 . S
H150 C135 0.961 . S
H151 C135 0.960 . S
C152 C153 1.391 . S
C152 C154 1.394 . S
C152 H168 0.931 . S
C153 C152 1.391 . S
C153 C157 1.376 . S
C154 C152 1.394 . S
C154 C155 1.369 . S
C154 C158 1.531 . S
C155 C154 1.369 . S
C155 C156 1.410 . S
C155 C163 1.503 . S
C156 C155 1.410 . S
C156 C157 1.392 . S
C156 C159 1.511 . S
C157 C153 1.376 . S
C157 C156 1.392 . S
C157 H169 0.929 . S
C158 C154 1.531 . S
C158 H170 0.960 . S
C158 H171 0.962 . S
C158 H172 0.960 . S
C159 C156 1.511 . S
C159 H173 0.961 . S
C159 H174 0.961 . S
C159 H175 0.961 . S
C160 C161 1.370 . S
C160 C162 1.363 . S
C160 H176 0.931 . S
C161 C160 1.370 . S
C161 C165 1.408 . S
C162 C160 1.363 . S
C162 C163 1.370 . S
C162 C166 1.524 . S
C163 C155 1.503 . S
C163 C162 1.370 . S
C163 C164 1.403 . S
C164 C163 1.403 . S
C164 C165 1.404 . S
C164 C167 1.539 . S
C165 C161 1.408 . S
C165 C164 1.404 . S
C165 H177 0.930 . S
C166 C162 1.524 . S
C166 H178 0.956 . S
C166 H179 0.961 . S
C166 H180 0.961 . S
C167 C164 1.539 . S
C167 H181 0.958 . S
C167 H182 0.961 . S
C167 H183 0.960 . S
H168 C152 0.931 . S
H169 C157 0.929 . S
H170 C158 0.960 . S
H171 C158 0.962 . S
H172 C158 0.960 . S
H173 C159 0.961 . S
H174 C159 0.961 . S
H175 C159 0.961 . S
H176 C160 0.931 . S
H177 C165 0.930 . S
H178 C166 0.956 . S
H179 C166 0.961 . S
H180 C166 0.961 . S
H181 C167 0.958 . S
H182 C167 0.961 . S
H183 C167 0.960 . S
C184 C185 1.391 . S
C184 C186 1.394 . S
C184 H200 0.931 . S
C185 C184 1.391 . S
C185 C189 1.376 . S
C186 C184 1.394 . S
C186 C187 1.369 . S
C186 C190 1.531 . S
C187 C186 1.369 . S
C187 C188 1.410 . S
C187 C195 1.503 . S
C188 C187 1.410 . S
C188 C189 1.392 . S
C188 C191 1.511 . S
C189 C185 1.376 . S
C189 C188 1.392 . S
C189 H201 0.929 . S
C190 C186 1.531 . S
C190 H202 0.960 . S
C190 H203 0.962 . S
C190 H204 0.960 . S
C191 C188 1.511 . S
C191 H205 0.961 . S
C191 H206 0.961 . S
C191 H207 0.961 . S
C192 C193 1.370 . S
C192 C194 1.363 . S
C192 H208 0.931 . S
C193 C192 1.370 . S
C193 C197 1.408 . S
C194 C192 1.363 . S
C194 C195 1.370 . S
C194 C198 1.524 . S
C195 C187 1.503 . S
C195 C194 1.370 . S
C195 C196 1.403 . S
C196 C195 1.403 . S
C196 C197 1.404 . S
C196 C199 1.539 . S
C197 C193 1.408 . S
C197 C196 1.404 . S
C197 H209 0.930 . S
C198 C194 1.524 . S
C198 H210 0.956 . S
C198 H211 0.961 . S
C198 H212 0.961 . S
C199 C196 1.539 . S
C199 H213 0.958 . S
C199 H214 0.961 . S
C199 H215 0.960 . S
H200 C184 0.931 . S
H201 C189 0.929 . S
H202 C190 0.960 . S
H203 C190 0.962 . S
H204 C190 0.960 . S
H205 C191 0.961 . S
H206 C191 0.961 . S
H207 C191 0.961 . S
H208 C192 0.931 . S
H209 C197 0.930 . S
H210 C198 0.956 . S
H211 C198 0.961 . S
H212 C198 0.961 . S
H213 C199 0.958 . S
H214 C199 0.961 . S
H215 C199 0.960 . S
C216 C217 1.391 . S
C216 C218 1.394 . S
C216 H232 0.931 . S
C217 C216 1.391 . S
C217 C221 1.376 . S
C218 C216 1.394 . S
C218 C219 1.369 . S
C218 C222 1.531 . S
C219 C218 1.369 . S
C219 C220 1.410 . S
C219 C227 1.503 . S
C220 C219 1.410 . S
C220 C221 1.392 . S
C220 C223 1.511 . S
C221 C217 1.376 . S
C221 C220 1.392 . S
C221 H233 0.929 . S
C222 C218 1.531 . S
C222 H234 0.960 . S
C222 H235 0.962 . S
C222 H236 0.960 . S
C223 C220 1.511 . S
C223 H237 0.961 1_565 S
C223 H238 0.961 . S
C223 H239 0.961 . S
C224 C225 1.370 . S
C224 C226 1.363 . S
C224 H240 0.931 . S
C225 C224 1.370 . S
C225 C229 1.408 . S
C226 C224 1.363 . S
C226 C227 1.370 . S
C226 C230 1.524 . S
C227 C219 1.503 . S
C227 C226 1.370 . S
C227 C228 1.403 . S
C228 C227 1.403 . S
C228 C229 1.404 . S
C228 C231 1.539 . S
C229 C225 1.408 . S
C229 C228 1.404 . S
C229 H241 0.930 . S
C230 C226 1.524 . S
C230 H242 0.956 . S
C230 H243 0.961 . S
C230 H244 0.961 . S
C231 C228 1.539 . S
C231 H245 0.958 . S
C231 H246 0.961 . S
C231 H247 0.960 . S
H232 C216 0.931 . S
H233 C221 0.929 . S
H234 C222 0.960 . S
H235 C222 0.962 . S
H236 C222 0.960 . S
H237 C223 0.961 1_545 S
H238 C223 0.961 . S
H239 C223 0.961 . S
H240 C224 0.931 . S
H241 C229 0.930 . S
H242 C230 0.956 . S
H243 C230 0.961 . S
H244 C230 0.961 . S
H245 C231 0.958 . S
H246 C231 0.961 . S
H247 C231 0.960 . S
C248 C249 1.391 . S
C248 C250 1.394 . S
C248 H264 0.931 . S
C249 C248 1.391 . S
C249 C253 1.376 . S
C250 C248 1.394 . S
C250 C251 1.369 . S
C250 C254 1.531 . S
C251 C250 1.369 . S
C251 C252 1.410 . S
C251 C259 1.503 . S
C252 C251 1.410 . S
C252 C253 1.392 . S
C252 C255 1.511 . S
C253 C249 1.376 . S
C253 C252 1.392 . S
C253 H265 0.929 . S
C254 C250 1.531 . S
C254 H266 0.960 . S
C254 H267 0.962 . S
C254 H268 0.960 . S
C255 C252 1.511 . S
C255 H269 0.961 . S
C255 H270 0.961 . S
C255 H271 0.961 . S
C256 C257 1.370 . S
C256 C258 1.363 . S
C256 H272 0.931 . S
C257 C256 1.370 . S
C257 C261 1.408 . S
C258 C256 1.363 . S
C258 C259 1.370 . S
C258 C262 1.524 . S
C259 C251 1.503 . S
C259 C258 1.370 . S
C259 C260 1.403 . S
C260 C259 1.403 . S
C260 C261 1.404 . S
C260 C263 1.539 . S
C261 C257 1.408 . S
C261 C260 1.404 . S
C261 H273 0.930 . S
C262 C258 1.524 . S
C262 H274 0.956 . S
C262 H275 0.961 . S
C262 H276 0.961 . S
C263 C260 1.539 . S
C263 H277 0.958 . S
C263 H278 0.961 . S
C263 H279 0.960 . S
H264 C248 0.931 . S
H265 C253 0.929 . S
H266 C254 0.960 . S
H267 C254 0.962 . S
H268 C254 0.960 . S
H269 C255 0.961 . S
H270 C255 0.961 . S
H271 C255 0.961 . S
H272 C256 0.931 . S
H273 C261 0.930 . S
H274 C262 0.956 . S
H275 C262 0.961 . S
H276 C262 0.961 . S
H277 C263 0.958 . S
H278 C263 0.961 . S
H279 C263 0.960 . S
C280 C281 1.391 . S
C280 C282 1.394 . S
C280 H296 0.931 . S
C281 C280 1.391 . S
C281 C285 1.376 . S
C282 C280 1.394 . S
C282 C283 1.369 . S
C282 C286 1.531 . S
C283 C282 1.369 . S
C283 C284 1.410 . S
C283 C291 1.503 . S
C284 C283 1.410 . S
C284 C285 1.392 . S
C284 C287 1.511 . S
C285 C281 1.376 . S
C285 C284 1.392 . S
C285 H297 0.929 . S
C286 C282 1.531 . S
C286 H298 0.960 . S
C286 H299 0.962 . S
C286 H300 0.960 . S
C287 C284 1.511 . S
C287 H301 0.961 . S
C287 H302 0.961 . S
C287 H303 0.961 . S
C288 C289 1.370 . S
C288 C290 1.363 . S
C288 H304 0.931 . S
C289 C288 1.370 . S
C289 C293 1.408 . S
C290 C288 1.363 . S
C290 C291 1.370 . S
C290 C294 1.524 . S
C291 C283 1.503 . S
C291 C290 1.370 . S
C291 C292 1.403 . S
C292 C291 1.403 . S
C292 C293 1.404 . S
C292 C295 1.539 . S
C293 C289 1.408 . S
C293 C292 1.404 . S
C293 H305 0.930 . S
C294 C290 1.524 . S
C294 H306 0.956 . S
C294 H307 0.961 . S
C294 H308 0.961 . S
C295 C292 1.539 . S
C295 H309 0.958 . S
C295 H310 0.961 . S
C295 H311 0.960 . S
H296 C280 0.931 . S
H297 C285 0.929 . S
H298 C286 0.960 . S
H299 C286 0.962 . S
H300 C286 0.960 . S
H301 C287 0.961 . S
H302 C287 0.961 . S
H303 C287 0.961 . S
H304 C288 0.931 . S
H305 C293 0.930 . S
H306 C294 0.956 . S
H307 C294 0.961 . S
H308 C294 0.961 . S
H309 C295 0.958 . S
H310 C295 0.961 . S
H311 C295 0.960 . S
C312 C313 1.391 . S
C312 C314 1.394 . S
C312 H328 0.931 . S
C313 C312 1.391 . S
C313 C317 1.376 . S
C314 C312 1.394 . S
C314 C315 1.369 . S
C314 C318 1.531 . S
C315 C314 1.369 . S
C315 C316 1.410 . S
C315 C323 1.503 . S
C316 C315 1.410 . S
C316 C317 1.392 . S
C316 C319 1.511 . S
C317 C313 1.376 . S
C317 C316 1.392 . S
C317 H329 0.929 . S
C318 C314 1.531 . S
C318 H330 0.960 . S
C318 H331 0.962 . S
C318 H332 0.960 . S
C319 C316 1.511 . S
C319 H333 0.961 . S
C319 H334 0.961 . S
C319 H335 0.961 . S
C320 C321 1.370 . S
C320 C322 1.363 . S
C320 H336 0.931 . S
C321 C320 1.370 . S
C321 C325 1.408 . S
C322 C320 1.363 . S
C322 C323 1.370 . S
C322 C326 1.524 . S
C323 C315 1.503 . S
C323 C322 1.370 . S
C323 C324 1.403 . S
C324 C323 1.403 . S
C324 C325 1.404 . S
C324 C327 1.539 . S
C325 C321 1.408 . S
C325 C324 1.404 . S
C325 H337 0.930 . S
C326 C322 1.524 . S
C326 H338 0.956 . S
C326 H339 0.961 . S
C326 H340 0.961 . S
C327 C324 1.539 . S
C327 H341 0.958 . S
C327 H342 0.961 . S
C327 H343 0.960 . S
H328 C312 0.931 . S
H329 C317 0.929 . S
H330 C318 0.960 . S
H331 C318 0.962 . S
H332 C318 0.960 . S
H333 C319 0.961 . S
H334 C319 0.961 . S
H335 C319 0.961 . S
H336 C320 0.931 . S
H337 C325 0.930 . S
H338 C326 0.956 . S
H339 C326 0.961 . S
H340 C326 0.961 . S
H341 C327 0.958 . S
H342 C327 0.961 . S
H343 C327 0.960 . S
C344 C345 1.391 . S
C344 C346 1.394 . S
C344 H360 0.931 . S
C345 C344 1.391 . S
C345 C349 1.376 . S
C346 C344 1.394 . S
C346 C347 1.369 . S
C346 C350 1.531 . S
C347 C346 1.369 . S
C347 C348 1.410 . S
C347 C355 1.503 . S
C348 C347 1.410 . S
C348 C349 1.392 . S
C348 C351 1.511 . S
C349 C345 1.376 . S
C349 C348 1.392 . S
C349 H361 0.929 . S
C350 C346 1.531 . S
C350 H362 0.960 . S
C350 H363 0.962 . S
C350 H364 0.960 . S
C351 C348 1.511 . S
C351 H365 0.961 1_455 S
C351 H366 0.961 . S
C351 H367 0.961 . S
C352 C353 1.370 . S
C352 C354 1.363 . S
C352 H368 0.931 . S
C353 C352 1.370 . S
C353 C357 1.408 . S
C354 C352 1.363 . S
C354 C355 1.370 . S
C354 C358 1.524 . S
C355 C347 1.503 . S
C355 C354 1.370 . S
C355 C356 1.403 . S
C356 C355 1.403 . S
C356 C357 1.404 . S
C356 C359 1.539 . S
C357 C353 1.408 . S
C357 C356 1.404 . S
C357 H369 0.930 . S
C358 C354 1.524 . S
C358 H370 0.956 . S
C358 H371 0.961 . S
C358 H372 0.961 . S
C359 C356 1.539 . S
C359 H373 0.958 . S
C359 H374 0.961 . S
C359 H375 0.960 . S
H360 C344 0.931 . S
H361 C349 0.929 . S
H362 C350 0.960 . S
H363 C350 0.962 . S
H364 C350 0.960 . S
H365 C351 0.961 1_655 S
H366 C351 0.961 . S
H367 C351 0.961 . S
H368 C352 0.931 . S
H369 C357 0.930 . S
H370 C358 0.956 . S
H371 C358 0.961 . S
H372 C358 0.961 . S
H373 C359 0.958 . S
H374 C359 0.961 . S
H375 C359 0.960 . S
C376 C377 1.391 . S
C376 C378 1.394 . S
C376 H392 0.931 . S
C377 C376 1.391 . S
C377 C381 1.376 . S
C378 C376 1.394 . S
C378 C379 1.369 . S
C378 C382 1.531 . S
C379 C378 1.369 . S
C379 C380 1.410 . S
C379 C387 1.503 . S
C380 C379 1.410 . S
C380 C381 1.392 . S
C380 C383 1.511 . S
C381 C377 1.376 . S
C381 C380 1.392 . S
C381 H393 0.929 . S
C382 C378 1.531 . S
C382 H394 0.960 . S
C382 H395 0.962 . S
C382 H396 0.960 . S
C383 C380 1.511 . S
C383 H397 0.961 1_545 S
C383 H398 0.961 . S
C383 H399 0.961 . S
C384 C385 1.370 . S
C384 C386 1.363 . S
C384 H400 0.931 . S
C385 C384 1.370 . S
C385 C389 1.408 . S
C386 C384 1.363 . S
C386 C387 1.370 . S
C386 C390 1.524 . S
C387 C379 1.503 . S
C387 C386 1.370 . S
C387 C388 1.403 . S
C388 C387 1.403 . S
C388 C389 1.404 . S
C388 C391 1.539 . S
C389 C385 1.408 . S
C389 C388 1.404 . S
C389 H401 0.930 . S
C390 C386 1.524 . S
C390 H402 0.956 . S
C390 H403 0.961 . S
C390 H404 0.961 . S
C391 C388 1.539 . S
C391 H405 0.958 . S
C391 H406 0.961 . S
C391 H407 0.960 . S
H392 C376 0.931 . S
H393 C381 0.929 . S
H394 C382 0.960 . S
H395 C382 0.962 . S
H396 C382 0.960 . S
H397 C383 0.961 1_565 S
H398 C383 0.961 . S
H399 C383 0.961 . S
H400 C384 0.931 . S
H401 C389 0.930 . S
H402 C390 0.956 . S
H403 C390 0.961 . S
H404 C390 0.961 . S
H405 C391 0.958 . S
H406 C391 0.961 . S
H407 C391 0.960 . S
C408 C409 1.391 . S
C408 C410 1.394 . S
C408 H424 0.931 . S
C409 C408 1.391 . S
C409 C413 1.376 . S
C410 C408 1.394 . S
C410 C411 1.369 . S
C410 C414 1.531 . S
C411 C410 1.369 . S
C411 C412 1.410 . S
C411 C419 1.503 . S
C412 C411 1.410 . S
C412 C413 1.392 . S
C412 C415 1.511 . S
C413 C409 1.376 . S
C413 C412 1.392 . S
C413 H425 0.929 . S
C414 C410 1.531 . S
C414 H426 0.960 . S
C414 H427 0.962 . S
C414 H428 0.960 . S
C415 C412 1.511 . S
C415 H429 0.961 . S
C415 H430 0.961 . S
C415 H431 0.961 . S
C416 C417 1.370 . S
C416 C418 1.363 . S
C416 H432 0.931 . S
C417 C416 1.370 . S
C417 C421 1.408 . S
C418 C416 1.363 . S
C418 C419 1.370 . S
C418 C422 1.524 . S
C419 C411 1.503 . S
C419 C418 1.370 . S
C419 C420 1.403 . S
C420 C419 1.403 . S
C420 C421 1.404 . S
C420 C423 1.539 . S
C421 C417 1.408 . S
C421 C420 1.404 . S
C421 H433 0.930 . S
C422 C418 1.524 . S
C422 H434 0.956 . S
C422 H435 0.961 . S
C422 H436 0.961 . S
C423 C420 1.539 . S
C423 H437 0.958 . S
C423 H438 0.961 . S
C423 H439 0.960 . S
H424 C408 0.931 . S
H425 C413 0.929 . S
H426 C414 0.960 . S
H427 C414 0.962 . S
H428 C414 0.960 . S
H429 C415 0.961 . S
H430 C415 0.961 . S
H431 C415 0.961 . S
H432 C416 0.931 . S
H433 C421 0.930 . S
H434 C422 0.956 . S
H435 C422 0.961 . S
H436 C422 0.961 . S
H437 C423 0.958 . S
H438 C423 0.961 . S
H439 C423 0.960 . S
C440 C441 1.391 . S
C440 C442 1.394 . S
C440 H456 0.931 . S
C441 C440 1.391 . S
C441 C445 1.376 . S
C442 C440 1.394 . S
C442 C443 1.369 . S
C442 C446 1.531 . S
C443 C442 1.369 . S
C443 C444 1.410 . S
C443 C451 1.503 . S
C444 C443 1.410 . S
C444 C445 1.392 . S
C444 C447 1.511 . S
C445 C441 1.376 . S
C445 C444 1.392 . S
C445 H457 0.929 . S
C446 C442 1.531 . S
C446 H458 0.960 . S
C446 H459 0.962 . S
C446 H460 0.960 . S
C447 C444 1.511 . S
C447 H461 0.961 . S
C447 H462 0.961 . S
C447 H463 0.961 . S
C448 C449 1.370 . S
C448 C450 1.363 . S
C448 H464 0.931 . S
C449 C448 1.370 . S
C449 C453 1.408 . S
C450 C448 1.363 . S
C450 C451 1.370 . S
C450 C454 1.524 . S
C451 C443 1.503 . S
C451 C450 1.370 . S
C451 C452 1.403 . S
C452 C451 1.403 . S
C452 C453 1.404 . S
C452 C455 1.539 . S
C453 C449 1.408 . S
C453 C452 1.404 . S
C453 H465 0.930 . S
C454 C450 1.524 . S
C454 H466 0.956 . S
C454 H467 0.961 . S
C454 H468 0.961 . S
C455 C452 1.539 . S
C455 H469 0.958 . S
C455 H470 0.961 . S
C455 H471 0.960 . S
H456 C440 0.931 . S
H457 C445 0.929 . S
H458 C446 0.960 . S
H459 C446 0.962 . S
H460 C446 0.960 . S
H461 C447 0.961 . S
H462 C447 0.961 . S
H463 C447 0.961 . S
H464 C448 0.931 . S
H465 C453 0.930 . S
H466 C454 0.956 . S
H467 C454 0.961 . S
H468 C454 0.961 . S
H469 C455 0.958 . S
H470 C455 0.961 . S
H471 C455 0.960 . S
C89 C18 1.447 . S
C97 C65 1.374 . S
C121 C44 1.446 . S
C129 C71 1.333 . S
C153 C20 1.457 . S
C161 C62 1.359 . S
C185 C42 1.459 . S
C193 C87 1.388 . S
C217 C17 1.453 . S
C225 C53 1.324 . S
C257 C70 1.372 . S
C249 C40 1.492 . S
C281 C43 1.413 . S
C289 C66 1.334 . S
C321 C83 1.381 . S
C313 C16 1.498 . S
C353 C50 1.356 . S
C345 C39 1.502 . S
C385 C86 1.389 . S
C377 C21 1.467 . S
C417 C49 1.424 . S
C409 C41 1.499 . S
C449 C74 1.345 . S
C441 C19 1.417 . S
