# Generated by pormake.
# Topology pyr, (3,6)-cn, num edge types: 1
# Building blocks:
#     Node 0, Type 0, BuildingBlock: WUSLED_clean_sbu_0, # of connection points: 3
#     Node 1, Type 0, BuildingBlock: WUSLED_clean_sbu_0, # of connection points: 3
#     Node 2, Type 0, BuildingBlock: WUSLED_clean_sbu_0, # of connection points: 3
#     Node 3, Type 0, BuildingBlock: WUSLED_clean_sbu_0, # of connection points: 3
#     Node 4, Type 0, BuildingBlock: WUSLED_clean_sbu_0, # of connection points: 3
#     Node 5, Type 0, BuildingBlock: WUSLED_clean_sbu_0, # of connection points: 3
#     Node 6, Type 0, BuildingBlock: WUSLED_clean_sbu_0, # of connection points: 3
#     Node 7, Type 0, BuildingBlock: WUSLED_clean_sbu_0, # of connection points: 3
#     Node 8, Type 1, BuildingBlock: MIDCAF_clean_sbu_0, # of connection points: 6
#     Node 9, Type 1, BuildingBlock: MIDCAF_clean_sbu_0, # of connection points: 6
#     Node 10, Type 1, BuildingBlock: MIDCAF_clean_sbu_0, # of connection points: 6
#     Node 11, Type 1, BuildingBlock: MIDCAF_clean_sbu_0, # of connection points: 6
#     Edge 12, Type (0, 1), BuildingBlock: EZIPEK_clean_linker_0, # of connection points: 2
#     Edge 13, Type (0, 1), BuildingBlock: EZIPEK_clean_linker_0, # of connection points: 2
#     Edge 14, Type (0, 1), BuildingBlock: EZIPEK_clean_linker_0, # of connection points: 2
#     Edge 15, Type (0, 1), BuildingBlock: EZIPEK_clean_linker_0, # of connection points: 2
#     Edge 16, Type (0, 1), BuildingBlock: EZIPEK_clean_linker_0, # of connection points: 2
#     Edge 17, Type (0, 1), BuildingBlock: EZIPEK_clean_linker_0, # of connection points: 2
#     Edge 18, Type (0, 1), BuildingBlock: EZIPEK_clean_linker_0, # of connection points: 2
#     Edge 19, Type (0, 1), BuildingBlock: EZIPEK_clean_linker_0, # of connection points: 2
#     Edge 20, Type (0, 1), BuildingBlock: EZIPEK_clean_linker_0, # of connection points: 2
#     Edge 21, Type (0, 1), BuildingBlock: EZIPEK_clean_linker_0, # of connection points: 2
#     Edge 22, Type (0, 1), BuildingBlock: EZIPEK_clean_linker_0, # of connection points: 2
#     Edge 23, Type (0, 1), BuildingBlock: EZIPEK_clean_linker_0, # of connection points: 2
#     Edge 24, Type (0, 1), BuildingBlock: EZIPEK_clean_linker_0, # of connection points: 2
#     Edge 25, Type (0, 1), BuildingBlock: EZIPEK_clean_linker_0, # of connection points: 2
#     Edge 26, Type (0, 1), BuildingBlock: EZIPEK_clean_linker_0, # of connection points: 2
#     Edge 27, Type (0, 1), BuildingBlock: EZIPEK_clean_linker_0, # of connection points: 2
#     Edge 28, Type (0, 1), BuildingBlock: EZIPEK_clean_linker_0, # of connection points: 2
#     Edge 29, Type (0, 1), BuildingBlock: EZIPEK_clean_linker_0, # of connection points: 2
#     Edge 30, Type (0, 1), BuildingBlock: EZIPEK_clean_linker_0, # of connection points: 2
#     Edge 31, Type (0, 1), BuildingBlock: EZIPEK_clean_linker_0, # of connection points: 2
#     Edge 32, Type (0, 1), BuildingBlock: EZIPEK_clean_linker_0, # of connection points: 2
#     Edge 33, Type (0, 1), BuildingBlock: EZIPEK_clean_linker_0, # of connection points: 2
#     Edge 34, Type (0, 1), BuildingBlock: EZIPEK_clean_linker_0, # of connection points: 2
#     Edge 35, Type (0, 1), BuildingBlock: EZIPEK_clean_linker_0, # of connection points: 2
# Relax obj value: 0.020
# Max RMSD: 0.063
# Mean RMSD: 0.028
data_MOF--net-pyr--node1-WUSLED_clean_sbu_0--node2-MIDCAF_clean_sbu_0--edge1-EZIPEK_clean_linker_0
_symmetry_space_group_name_H-M    P1
_symmetry_Int_Tables_number       1
_symmetry_cell_setting            triclinic
loop_
_symmetry_equiv_pos_as_xyz
'x, y, z'
_cell_length_a     36.63109
_cell_length_b     36.670465
_cell_length_c     36.68257
_cell_angle_alpha  89.523799
_cell_angle_beta   90.079541
_cell_angle_gamma 90.624111
loop_
_atom_site_label
_atom_site_type_symbol
_atom_site_fract_x
_atom_site_fract_y
_atom_site_fract_z
_atom_type_partial_charge
C0 C 0.21238 0.31673 0.16416 0.0
C1 C 0.17982 0.32562 0.18205 0.0
C2 C 0.16876 0.37407 0.13767 0.0
C3 C 0.15815 0.35415 0.16887 0.0
C4 C 0.20183 0.36584 0.12049 0.0
C5 C 0.22347 0.33738 0.13367 0.0
U6 U 0.23333 0.23486 0.22733 0.0
O7 O 0.24923 0.17931 0.21255 0.0
O8 O 0.28688 0.21339 0.2444 0.0
C9 C 0.2822 0.18283 0.2264 0.0
C10 C 0.23408 0.28493 0.17546 0.0
C11 C 0.31289 0.1714 0.20297 0.0
C12 C 0.33808 0.15681 0.14345 0.0
C13 C 0.30952 0.17005 0.16479 0.0
C14 C 0.37435 0.14709 0.19784 0.0
C15 C 0.37057 0.14488 0.15982 0.0
C16 C 0.34568 0.16008 0.21922 0.0
C17 C 0.17125 0.21451 0.31041 0.0
C18 C 0.17171 0.15836 0.34627 0.0
C19 C 0.12968 0.20641 0.36165 0.0
C20 C 0.14359 0.22783 0.33299 0.0
C21 C 0.14326 0.17132 0.36816 0.0
C22 C 0.18564 0.17982 0.31755 0.0
C23 C 0.18302 0.23641 0.27851 0.0
O24 O 0.2526 0.2881 0.20601 0.0
O25 O 0.21765 0.25309 0.1723 0.0
O26 O 0.17804 0.22103 0.24662 0.0
O27 O 0.21468 0.25341 0.28121 0.0
H28 H 0.17077 0.30993 0.20557 0.0
H29 H 0.13258 0.35997 0.1823 0.0
H30 H 0.2103 0.38075 0.09626 0.0
H31 H 0.24845 0.33086 0.11947 0.0
H32 H 0.33472 0.15551 0.11414 0.0
H33 H 0.28466 0.17876 0.15145 0.0
H34 H 0.39927 0.13822 0.21096 0.0
H35 H 0.34892 0.16083 0.24857 0.0
H36 H 0.18236 0.13125 0.35077 0.0
H37 H 0.10761 0.21676 0.37809 0.0
H38 H 0.13208 0.25448 0.32786 0.0
H39 H 0.20694 0.16904 0.30039 0.0
C40 C 0.2458 0.85197 0.67013 0.0
C41 C 0.24863 0.87406 0.63873 0.0
C42 C 0.1853 0.89211 0.64467 0.0
C43 C 0.21877 0.894 0.62623 0.0
C44 C 0.18234 0.8707 0.67647 0.0
C45 C 0.21236 0.85072 0.68911 0.0
U46 U 0.32785 0.82412 0.73101 0.0
O47 O 0.34822 0.76944 0.745 0.0
O48 O 0.38272 0.8076 0.71366 0.0
C49 C 0.37854 0.77416 0.72625 0.0
C50 C 0.27702 0.82849 0.68051 0.0
C51 C 0.38953 0.7445 0.70133 0.0
C52 C 0.43645 0.71798 0.66303 0.0
C53 C 0.42398 0.74656 0.68456 0.0
C54 C 0.38015 0.68454 0.67413 0.0
C55 C 0.41487 0.68662 0.65799 0.0
C56 C 0.36754 0.71328 0.69563 0.0
C57 C 0.3513 0.88256 0.8157 0.0
C58 C 0.40206 0.87293 0.85754 0.0
C59 C 0.36714 0.92858 0.86049 0.0
C60 C 0.3449 0.9163 0.83207 0.0
C61 C 0.39625 0.90734 0.87308 0.0
C62 C 0.37979 0.86067 0.82884 0.0
C63 C 0.32886 0.87207 0.784 0.0
O64 O 0.30967 0.84332 0.6771 0.0
O65 O 0.27366 0.80798 0.70996 0.0
O66 O 0.3112 0.84071 0.78614 0.0
O67 O 0.34385 0.878 0.75196 0.0
H68 H 0.27379 0.87526 0.62324 0.0
H69 H 0.22148 0.91022 0.60154 0.0
H70 H 0.15662 0.86881 0.69092 0.0
H71 H 0.2091 0.83376 0.71321 0.0
H72 H 0.46339 0.71997 0.65096 0.0
H73 H 0.44163 0.77006 0.68869 0.0
H74 H 0.3632 0.66044 0.67064 0.0
H75 H 0.34092 0.71072 0.70825 0.0
H76 H 0.42445 0.8562 0.86688 0.0
H77 H 0.36226 0.95518 0.87205 0.0
H78 H 0.3231 0.93358 0.82229 0.0
H79 H 0.3852 0.83457 0.81645 0.0
C80 C 0.67533 0.34226 0.73783 0.0
C81 C 0.69231 0.37534 0.72775 0.0
C82 C 0.64647 0.38476 0.68062 0.0
C83 C 0.67796 0.39645 0.69925 0.0
C84 C 0.63028 0.3511 0.6899 0.0
C85 C 0.64465 0.32999 0.71833 0.0
U86 U 0.73656 0.32963 0.82196 0.0
O87 O 0.72067 0.31404 0.87772 0.0
O88 O 0.75773 0.27922 0.84707 0.0
C89 C 0.73743 0.28257 0.87641 0.0
C90 C 0.68732 0.32176 0.77028 0.0
C91 C 0.71557 0.2502 0.88833 0.0
C92 C 0.70083 0.18515 0.88582 0.0
C93 C 0.72155 0.21531 0.8738 0.0
C94 C 0.66824 0.22394 0.92746 0.0
C95 C 0.67379 0.18938 0.9125 0.0
C96 C 0.68898 0.25397 0.91565 0.0
C97 C 0.81012 0.40246 0.84409 0.0
C98 C 0.86201 0.39782 0.88547 0.0
C99 C 0.83636 0.45695 0.87156 0.0
C100 C 0.8108 0.44045 0.84848 0.0
C101 C 0.86192 0.43578 0.89049 0.0
C102 C 0.83615 0.38121 0.86254 0.0
C103 C 0.78149 0.38606 0.82077 0.0
O104 O 0.71994 0.30724 0.76875 0.0
O105 O 0.68082 0.33768 0.8015 0.0
O106 O 0.74815 0.38735 0.8338 0.0
O107 O 0.78888 0.35478 0.8052 0.0
H108 H 0.71588 0.38533 0.74266 0.0
H109 H 0.69057 0.42252 0.69262 0.0
H110 H 0.6058 0.34186 0.67601 0.0
H111 H 0.6311 0.30464 0.72589 0.0
H112 H 0.70567 0.15859 0.87417 0.0
H113 H 0.74217 0.21126 0.85315 0.0
H114 H 0.64767 0.22768 0.94826 0.0
H115 H 0.6841 0.28023 0.92791 0.0
H116 H 0.88138 0.38104 0.90011 0.0
H117 H 0.83573 0.48622 0.87526 0.0
H118 H 0.79103 0.45735 0.8345 0.0
H119 H 0.83614 0.35183 0.85973 0.0
C120 C 0.74516 0.673 0.33519 0.0
C121 C 0.72231 0.69559 0.35567 0.0
C122 C 0.69198 0.64211 0.38194 0.0
C123 C 0.69564 0.68021 0.37873 0.0
C124 C 0.71406 0.61974 0.36059 0.0
C125 C 0.74035 0.63506 0.33737 0.0
U126 U 0.82138 0.74343 0.31514 0.0
O127 O 0.87843 0.73356 0.30003 0.0
O128 O 0.84285 0.76344 0.26242 0.0
C129 C 0.87478 0.7481 0.2674 0.0
C130 C 0.77559 0.68779 0.31309 0.0
C131 C 0.88824 0.7256 0.23729 0.0
C132 C 0.88604 0.6698 0.20192 0.0
C133 C 0.87104 0.6924 0.22848 0.0
C134 C 0.93503 0.71374 0.19204 0.0
C135 C 0.91843 0.68008 0.18393 0.0
C136 C 0.92002 0.73633 0.21857 0.0
C137 C 0.83676 0.82432 0.37928 0.0
C138 C 0.89047 0.86371 0.37556 0.0
C139 C 0.84816 0.86991 0.42583 0.0
C140 C 0.82631 0.84202 0.41132 0.0
C141 C 0.88072 0.88044 0.40841 0.0
C142 C 0.86863 0.83577 0.36108 0.0
C143 C 0.81585 0.79217 0.367 0.0
O144 O 0.76999 0.71863 0.29547 0.0
O145 O 0.8078 0.68639 0.32878 0.0
O146 O 0.83257 0.76091 0.37122 0.0
O147 O 0.7992 0.79516 0.33534 0.0
H148 H 0.72571 0.72496 0.35457 0.0
H149 H 0.67895 0.69787 0.39517 0.0
H150 H 0.71172 0.59032 0.36278 0.0
H151 H 0.75771 0.61719 0.32185 0.0
H152 H 0.873 0.64383 0.19612 0.0
H153 H 0.84658 0.6836 0.24277 0.0
H154 H 0.96011 0.722 0.17854 0.0
H155 H 0.93373 0.76177 0.22513 0.0
H156 H 0.91572 0.87126 0.362 0.0
H157 H 0.84044 0.88228 0.45137 0.0
H158 H 0.80191 0.8334 0.42581 0.0
H159 H 0.87723 0.82225 0.33643 0.0
C160 C 0.89406 0.8109 0.94891 0.0
C161 C 0.91922 0.79188 0.92762 0.0
C162 C 0.92612 0.74666 0.976 0.0
C163 C 0.93507 0.7599 0.94107 0.0
C164 C 0.90111 0.76576 0.99736 0.0
C165 C 0.88516 0.79769 0.98384 0.0
U166 U 0.88813 0.89098 0.8812 0.0
O167 O 0.84003 0.91573 0.85552 0.0
O168 O 0.87484 0.94849 0.89156 0.0
C169 C 0.84418 0.94667 0.87297 0.0
C170 C 0.87688 0.84445 0.93512 0.0
C171 C 0.81144 0.95993 0.89189 0.0
C172 C 0.75857 0.94897 0.93066 0.0
C173 C 0.79005 0.93628 0.91356 0.0
C174 C 0.76974 1.0093 0.90529 0.0
C175 C 0.74815 0.98551 0.92656 0.0
C176 C 0.80115 0.99653 0.888 0.0
C177 C 0.95959 0.8982 0.80327 0.0
C178 C 0.98853 0.94952 0.77183 0.0
C179 C 0.98377 0.89146 0.74193 0.0
C180 C 0.96582 0.87688 0.77249 0.0
C181 C 0.99797 0.92757 0.74165 0.0
C182 C 0.97035 0.93497 0.80232 0.0
C183 C 0.94279 0.8811 0.83604 0.0
O184 O 0.89643 0.8745 0.93849 0.0
O185 O 0.8607 0.84189 0.90322 0.0
O186 O 0.91041 0.86596 0.8316 0.0
O187 O 0.94601 0.89878 0.86696 0.0
H188 H 0.92652 0.80172 0.90064 0.0
H189 H 0.95437 0.74548 0.92429 0.0
H190 H 0.89394 0.7559 0.02436 0.0
H191 H 0.86584 0.81206 1.00066 0.0
H192 H 0.74229 0.93031 0.94712 0.0
H193 H 0.7976 0.90798 0.91708 0.0
H194 H 0.76213 0.03759 0.90196 0.0
H195 H 0.81735 0.0152 0.87146 0.0
H196 H 0.99434 0.97845 0.77215 0.0
H197 H 0.98525 0.87389 0.71867 0.0
H198 H 0.9566 0.8487 0.77197 0.0
H199 H 0.96467 0.95264 0.82509 0.0
C200 C 0.60333 0.16061 0.31103 0.0
C201 C 0.60269 0.18219 0.27922 0.0
C202 C 0.58525 0.12949 0.24318 0.0
C203 C 0.59393 0.16674 0.24558 0.0
C204 C 0.58442 0.10806 0.27508 0.0
C205 C 0.59358 0.12344 0.30876 0.0
U206 U 0.66715 0.16579 0.3938 0.0
O207 O 0.69377 0.21346 0.41875 0.0
O208 O 0.6559 0.17969 0.45103 0.0
C209 C 0.67562 0.20983 0.44947 0.0
C210 C 0.61521 0.17735 0.34576 0.0
C211 C 0.65755 0.24308 0.46222 0.0
C212 C 0.61664 0.29383 0.45158 0.0
C213 C 0.6326 0.26151 0.43979 0.0
C214 C 0.64988 0.28946 0.50861 0.0
C215 C 0.62526 0.30807 0.48598 0.0
C216 C 0.66595 0.25714 0.49675 0.0
C217 C 0.7443 0.09592 0.40192 0.0
C218 C 0.78681 0.09379 0.45277 0.0
C219 C 0.79858 0.05843 0.39856 0.0
C220 C 0.76629 0.07138 0.38293 0.0
C221 C 0.80916 0.06979 0.43347 0.0
C222 C 0.75459 0.10685 0.43707 0.0
C223 C 0.71177 0.11101 0.38396 0.0
O224 O 0.61024 0.15801 0.37576 0.0
O225 O 0.64708 0.19414 0.34473 0.0
O226 O 0.71645 0.14326 0.36871 0.0
O227 O 0.6809 0.10798 0.40206 0.0
H228 H 0.60986 0.21091 0.28027 0.0
H229 H 0.59481 0.18365 0.22123 0.0
H230 H 0.57795 0.07922 0.27367 0.0
H231 H 0.59375 0.10607 0.33277 0.0
H232 H 0.59773 0.3079 0.43378 0.0
H233 H 0.62578 0.25107 0.41305 0.0
H234 H 0.65687 0.30014 0.53519 0.0
H235 H 0.68518 0.2433 0.51439 0.0
H236 H 0.79483 0.10311 0.47959 0.0
H237 H 0.81571 0.04021 0.3832 0.0
H238 H 0.75882 0.0628 0.3557 0.0
H239 H 0.7381 0.12597 0.45202 0.0
C240 C 0.3053 0.60803 0.16655 0.0
C241 C 0.29705 0.61682 0.13015 0.0
C242 C 0.23906 0.58424 0.13523 0.0
C243 C 0.26418 0.60489 0.11458 0.0
C244 C 0.24737 0.57525 0.17153 0.0
C245 C 0.28036 0.58701 0.18705 0.0
U246 U 0.38609 0.67499 0.17233 0.0
O247 O 0.4112 0.70081 0.22022 0.0
O248 O 0.44375 0.66478 0.18598 0.0
C249 C 0.44217 0.68347 0.21634 0.0
C250 C 0.33922 0.62131 0.18379 0.0
C251 C 0.45613 0.66477 0.24919 0.0
C252 C 0.44603 0.6294 0.30469 0.0
C253 C 0.4323 0.64704 0.27371 0.0
C254 C 0.50763 0.64651 0.28693 0.0
C255 C 0.48375 0.62899 0.31147 0.0
C256 C 0.49386 0.66441 0.25605 0.0
C257 C 0.39561 0.75319 0.10324 0.0
C258 C 0.43754 0.80424 0.11171 0.0
C259 C 0.40556 0.79731 0.05423 0.0
C260 C 0.38837 0.76566 0.0677 0.0
C261 C 0.43008 0.81688 0.07627 0.0
C262 C 0.42051 0.77254 0.12509 0.0
C263 C 0.37658 0.72044 0.11741 0.0
O264 O 0.36924 0.61781 0.16456 0.0
O265 O 0.337 0.65313 0.1998 0.0
O266 O 0.36081 0.72415 0.14931 0.0
O267 O 0.39434 0.68965 0.11448 0.0
H268 H 0.31581 0.63324 0.11395 0.0
H269 H 0.25797 0.61237 0.08663 0.0
H270 H 0.22812 0.55961 0.1879 0.0
H271 H 0.28621 0.58009 0.21521 0.0
H272 H 0.42729 0.61569 0.32321 0.0
H273 H 0.40312 0.6467 0.26883 0.0
H274 H 0.53682 0.64617 0.29164 0.0
H275 H 0.51267 0.67783 0.23738 0.0
H276 H 0.45648 0.819 0.12901 0.0
H277 H 0.39957 0.80671 0.02682 0.0
H278 H 0.36925 0.75105 0.05046 0.0
H279 H 0.42655 0.76327 0.15254 0.0
C280 C 0.11633 0.30595 0.63789 0.0
C281 C 0.13271 0.30415 0.6033 0.0
C282 C 0.10265 0.2457 0.59266 0.0
C283 C 0.12582 0.27414 0.58071 0.0
C284 C 0.0865 0.24763 0.62722 0.0
C285 C 0.09327 0.27751 0.64964 0.0
U286 U 0.16909 0.39187 0.66759 0.0
O287 O 0.14815 0.44234 0.69189 0.0
O288 O 0.18672 0.40817 0.72235 0.0
C289 C 0.16477 0.43628 0.72311 0.0
C290 C 0.123 0.33681 0.66246 0.0
C291 C 0.14237 0.43995 0.75625 0.0
C292 C 0.11661 0.47946 0.80217 0.0
C293 C 0.13447 0.47497 0.7689 0.0
C294 C 0.11302 0.41385 0.81014 0.0
C295 C 0.10643 0.44898 0.82335 0.0
C296 C 0.13074 0.40933 0.77668 0.0
C297 C 0.25113 0.42643 0.61167 0.0
C298 C 0.29089 0.47662 0.63018 0.0
C299 C 0.30434 0.44261 0.5755 0.0
C300 C 0.27337 0.42084 0.58125 0.0
C301 C 0.31361 0.47031 0.6001 0.0
C302 C 0.25979 0.45466 0.63601 0.0
C303 C 0.22015 0.4014 0.61815 0.0
O304 O 0.15334 0.3354 0.68153 0.0
O305 O 0.1164 0.36942 0.64899 0.0
O306 O 0.18743 0.41552 0.61526 0.0
O307 O 0.22359 0.37947 0.64642 0.0
H308 H 0.15073 0.32585 0.59388 0.0
H309 H 0.13851 0.273 0.5541 0.0
H310 H 0.06858 0.22591 0.63683 0.0
H311 H 0.0805 0.27841 0.67624 0.0
H312 H 0.11201 0.50676 0.81213 0.0
H313 H 0.14319 0.4989 0.75359 0.0
H314 H 0.10562 0.39005 0.82632 0.0
H315 H 0.13639 0.38201 0.76737 0.0
H316 H 0.29767 0.49792 0.6494 0.0
H317 H 0.32155 0.43741 0.55215 0.0
H318 H 0.26711 0.39917 0.56226 0.0
H319 H 0.24288 0.45927 0.6597 0.0
Zn320 Zn 0.98342 0.06825 0.57327 0.0
Zn321 Zn 0.06817 0.98887 0.48196 0.0
Zn322 Zn 0.02682 0.03003 0.52725 0.0
C323 C 0.08198 0.06404 0.46729 0.0
C324 C 0.99357 0.97256 0.46963 0.0
O325 O 0.03165 1.00697 0.58289 0.0
O326 O 0.98816 0.03318 0.61512 0.0
C327 C 0.04186 0.11342 0.54708 0.0
O328 O 0.06259 0.06813 0.49623 0.0
O329 O 0.08686 0.03268 0.45423 0.0
O330 O 0.02508 0.96073 0.46277 0.0
O331 O 0.9894 0.99995 0.49091 0.0
O332 O 0.01686 0.11172 0.57077 0.0
O333 O 0.04805 0.08627 0.52602 0.0
O334 O 0.97024 0.02819 0.50642 0.0
O335 O 0.93975 0.06701 0.54062 0.0
C336 C 0.941 0.04597 0.5136 0.0
O337 O 0.05818 0.99129 0.56101 0.0
O338 O 0.09727 0.9665 0.52264 0.0
C339 C 0.01313 1.00982 0.61258 0.0
C340 C 0.08563 0.97059 0.55476 0.0
Zn341 Zn 0.49435 0.07098 0.9856 0.0
Zn342 Zn 0.57467 0.98805 0.06759 0.0
Zn343 Zn 0.53458 0.03087 0.02826 0.0
C344 C 0.6173 1.00868 1.0083 0.0
C345 C 0.51376 0.94718 0.05019 0.0
O346 O 0.50486 0.06796 0.06437 0.0
O347 O 0.46173 0.08647 0.02642 0.0
C348 C 0.56696 0.08919 0.97127 0.0
O349 O 0.59012 0.03038 1.00409 0.0
O350 O 0.61668 0.98462 0.03312 0.0
O351 O 0.54004 0.94608 0.07243 0.0
O352 O 0.50921 0.97542 0.02954 0.0
O353 O 0.53566 0.10309 0.96819 0.0
O354 O 0.57106 0.05921 0.98929 0.0
O355 O 0.49532 0.99418 0.9997 0.0
O356 O 0.47739 0.02985 0.95428 0.0
C357 C 0.47835 0.99871 0.96918 0.0
O358 O 0.53823 0.05939 0.0821 0.0
O359 O 0.58011 0.0246 0.10711 0.0
C360 C 0.4741 0.08387 0.05851 0.0
C361 C 0.56236 0.05398 0.10724 0.0
Zn362 Zn 0.57267 0.56601 0.56454 0.0
Zn363 Zn 0.48895 0.48363 0.48334 0.0
Zn364 Zn 0.53225 0.52552 0.52264 0.0
C365 C 0.54659 0.4405 0.50588 0.0
C366 C 0.51168 0.54383 0.44037 0.0
O367 O 0.49691 0.55835 0.55933 0.0
O368 O 0.53457 0.59897 0.58377 0.0
C369 C 0.58485 0.49319 0.58433 0.0
O370 O 0.55217 0.46873 0.52593 0.0
O371 O 0.52171 0.44049 0.48204 0.0
O372 O 0.48765 0.51889 0.44175 0.0
O373 O 0.53447 0.54802 0.4669 0.0
O374 O 0.58923 0.52497 0.59675 0.0
O375 O 0.56666 0.4881 0.5547 0.0
O376 O 0.56779 0.55748 0.48423 0.0
O377 O 0.60554 0.58177 0.52395 0.0
C378 C 0.59833 0.57391 0.49123 0.0
O379 O 0.47619 0.53046 0.5444 0.0
O380 O 0.4476 0.48399 0.51821 0.0
C381 C 0.50255 0.58687 0.57901 0.0
C382 C 0.44793 0.50949 0.54111 0.0
Zn383 Zn 0.06763 0.57761 0.99113 0.0
Zn384 Zn 0.98965 0.49679 0.07231 0.0
Zn385 Zn 0.0284 0.53593 0.0295 0.0
C386 C 0.06027 0.47307 0.081 0.0
C387 C 0.96086 0.49484 0.99913 0.0
O388 O 1.00502 0.59153 0.02936 0.0
O389 O 0.03099 0.61612 0.98051 0.0
C390 C 0.10815 0.56047 0.05239 0.0
O391 O 0.06547 0.50418 0.06515 0.0
O392 O 0.02831 0.4601 0.08403 0.0
O393 O 0.95313 0.48891 0.03222 0.0
O394 O 0.99373 0.50516 0.99131 0.0
O395 O 0.10523 0.58653 0.02986 0.0
O396 O 0.08355 0.53512 0.05357 0.0
O397 O 0.02943 0.5064 0.97672 0.0
O398 O 0.07736 0.53714 0.95653 0.0
C399 C 0.05672 0.50934 0.95467 0.0
O400 O 0.99343 0.57316 0.06016 0.0
O401 O 0.97929 0.53757 0.10711 0.0
C402 C 1.00729 0.61735 1.00539 0.0
C403 C 0.97977 0.56882 0.09226 0.0
C404 C 0.09296 0.1278 0.38657 0.0
C405 C 0.12555 0.14692 0.39584 0.0
C406 C 0.12724 0.11505 0.45512 0.0
C407 C 0.09466 0.09613 0.44569 0.0
N408 N 0.0415 0.09097 0.40735 0.0
N409 N 0.16985 0.16456 0.44113 0.0
C410 C 0.07594 0.10464 0.41292 0.0
C411 C 0.14147 0.14239 0.43092 0.0
N412 N 0.07908 0.13058 0.35203 0.0
N413 N 0.1452 0.10587 0.4865 0.0
H414 H 0.18108 0.18442 0.42382 0.0
H415 H 0.1805 0.16526 0.46743 0.0
H416 H 0.13485 0.08671 0.50507 0.0
H417 H 0.17105 0.1157 0.49332 0.0
H418 H 0.058 0.11406 0.34229 0.0
H419 H 0.09036 0.14761 0.332 0.0
H420 H 0.02479 0.09904 0.38583 0.0
H421 H 0.02819 0.07407 0.42625 0.0
C422 C 0.45568 0.93822 0.88967 0.0
C423 C 0.42167 0.92293 0.90084 0.0
C424 C 0.42837 0.9516 0.96086 0.0
C425 C 0.4619 0.96749 0.94927 0.0
N426 N 0.51249 0.96768 0.90756 0.0
N427 N 0.38036 0.9068 0.94945 0.0
C428 C 0.47721 0.95789 0.91526 0.0
C429 C 0.40967 0.92681 0.93739 0.0
N430 N 0.46639 0.93597 0.85408 0.0
N431 N 0.41336 0.96189 0.9932 0.0
H432 H 0.36628 0.88854 0.93271 0.0
H433 H 0.37214 0.90574 0.9766 0.0
H434 H 0.42645 0.97988 1.01092 0.0
H435 H 0.38717 0.95437 1.00154 0.0
H436 H 0.4886 0.95039 0.84335 0.0
H437 H 0.45168 0.9216 0.83443 0.0
H438 H 0.52659 0.95857 0.88482 0.0
H439 H 0.52879 0.98212 0.92591 0.0
C440 C 0.59965 0.43225 0.66658 0.0
C441 C 0.62823 0.40965 0.65424 0.0
C442 C 0.62668 0.43978 0.59422 0.0
C443 C 0.59762 0.46181 0.60646 0.0
N444 N 0.5502 0.47269 0.6504 0.0
N445 N 0.66373 0.38611 0.60465 0.0
C446 C 0.58218 0.45605 0.64149 0.0
C447 C 0.64005 0.41154 0.61743 0.0
N448 N 0.59003 0.43194 0.7026 0.0
N449 N 0.6427 0.44706 0.56129 0.0
H450 H 0.67439 0.36551 0.62119 0.0
H451 H 0.67039 0.38355 0.57721 0.0
H452 H 0.63357 0.46751 0.54369 0.0
H453 H 0.66639 0.43453 0.55238 0.0
H454 H 0.57256 0.4509 0.71403 0.0
H455 H 0.60154 0.41437 0.72183 0.0
H456 H 0.53551 0.4667 0.67402 0.0
H457 H 0.53638 0.48994 0.63246 0.0
C458 C 0.966 0.63296 0.17139 0.0
C459 C 0.93639 0.65426 0.15867 0.0
C460 C 0.93632 0.62107 0.10077 0.0
C461 C 0.96663 0.60055 0.1132 0.0
N462 N 0.01637 0.59379 0.15573 0.0
N463 N 0.89862 0.67449 0.10881 0.0
C464 C 0.98331 0.6086 0.14715 0.0
C465 C 0.92324 0.6502 0.1225 0.0
N466 N 0.97676 0.63497 0.20703 0.0
N467 N 0.91884 0.61154 0.06925 0.0
H468 H 0.88824 0.69581 0.12421 0.0
H469 H 0.89096 0.67547 0.08148 0.0
H470 H 0.92736 0.59021 0.05281 0.0
H471 H 0.89436 0.62298 0.06069 0.0
H472 H 0.99525 0.61703 0.21888 0.0
H473 H 0.96512 0.65273 0.22567 0.0
H474 H 0.03172 0.60154 0.17835 0.0
H475 H 0.03028 0.57645 0.13826 0.0
C476 C 0.40769 0.09179 0.13769 0.0
C477 C 0.40045 0.12978 0.13693 0.0
C478 C 0.44479 0.13828 0.08733 0.0
C479 C 0.4526 0.10037 0.08857 0.0
N480 N 0.44774 0.04266 0.12042 0.0
N481 N 0.41779 0.1903 0.11723 0.0
C482 C 0.43626 0.07771 0.11572 0.0
C483 C 0.42072 0.15337 0.11353 0.0
N484 N 0.38589 0.0688 0.15782 0.0
N485 N 0.46059 0.15993 0.06109 0.0
H486 H 0.4007 0.20222 0.13638 0.0
H487 H 0.43448 0.20914 0.10371 0.0
H488 H 0.48111 0.15081 0.04382 0.0
H489 H 0.45248 0.18651 0.0555 0.0
H490 H 0.38689 0.0405 0.15616 0.0
H491 H 0.36453 0.07787 0.17404 0.0
H492 H 0.4397 0.02611 0.14224 0.0
H493 H 0.46784 0.03099 0.10441 0.0
C494 C 0.14891 0.94897 0.63439 0.0
C495 C 0.15315 0.91103 0.62876 0.0
C496 C 0.10307 0.91181 0.58432 0.0
C497 C 0.10383 0.95043 0.58484 0.0
N498 N 0.12628 1.00656 0.61079 0.0
N499 N 0.13426 0.85556 0.59898 0.0
C500 C 0.12582 0.96928 0.61059 0.0
C501 C 0.12973 0.89208 0.60436 0.0
N502 N 0.16714 0.9654 0.66244 0.0
N503 N 0.07653 0.89413 0.56484 0.0
H504 H 0.15269 0.83997 0.61399 0.0
H505 H 0.12123 0.84104 0.57837 0.0
H506 H 0.05653 0.90806 0.55016 0.0
H507 H 0.07212 0.86605 0.56599 0.0
H508 H 0.16288 0.99222 0.6703 0.0
H509 H 0.18436 0.95106 0.67999 0.0
H510 H 0.14474 0.0221 0.62584 0.0
H511 H 0.10925 0.02225 0.59432 0.0
C512 C 0.87659 0.45224 0.95514 0.0
C513 C 0.88639 0.45344 0.91778 0.0
C514 C 0.9385 0.49364 0.93262 0.0
C515 C 0.93216 0.48707 0.97033 0.0
N516 N 0.88202 0.4823 0.01303 0.0
N517 N 0.9267 0.47501 0.87023 0.0
C518 C 0.89744 0.47254 0.98067 0.0
C519 C 0.91717 0.47443 0.90624 0.0
N520 N 0.84722 0.43179 0.96643 0.0
N521 N 0.96224 0.52067 0.92204 0.0
H522 H 0.9117 0.46133 0.85027 0.0
H523 H 0.95086 0.48666 0.86051 0.0
H524 H 0.97408 0.53867 0.94053 0.0
H525 H 0.96625 0.52864 0.89504 0.0
H526 H 0.84182 0.42626 0.99383 0.0
H527 H 0.82968 0.41823 0.94857 0.0
H528 H 0.85567 0.47465 0.02077 0.0
H529 H 0.89264 0.50325 0.02903 0.0
C530 C 0.63584 0.60559 0.39882 0.0
C531 C 0.66769 0.62488 0.40987 0.0
C532 C 0.65986 0.6006 0.47193 0.0
C533 C 0.62518 0.58573 0.46196 0.0
N534 N 0.59693 0.55393 0.4121 0.0
N535 N 0.70983 0.642 0.4576 0.0
C536 C 0.61725 0.58266 0.42428 0.0
C537 C 0.67956 0.62286 0.44666 0.0
N538 N 0.62295 0.60944 0.36407 0.0
N539 N 0.67641 0.58917 0.50339 0.0
H540 H 0.72663 0.65666 0.43971 0.0
H541 H 0.71686 0.64546 0.48489 0.0
H542 H 0.66635 0.56736 0.51894 0.0
H543 H 0.70286 0.59666 0.51086 0.0
H544 H 0.59774 0.59884 0.35586 0.0
H545 H 0.63586 0.62598 0.3446 0.0
H546 H 0.59355 0.54835 0.38449 0.0
H547 H 0.58957 0.53223 0.42916 0.0
C548 C 0.14245 0.4374 0.13442 0.0
C549 C 0.14358 0.4012 0.12103 0.0
C550 C 0.09677 0.4163 0.07567 0.0
C551 C 0.09161 0.45042 0.09272 0.0
N552 N 0.10808 0.49345 0.13943 0.0
N553 N 0.11988 0.35487 0.08077 0.0
C554 C 0.11436 0.46123 0.12217 0.0
C555 C 0.12035 0.39035 0.09199 0.0
N556 N 0.16854 0.44906 0.15844 0.0
N557 N 0.07994 0.4092 0.04314 0.0
H558 H 0.13717 0.33506 0.0915 0.0
H559 H 0.1005 0.34438 0.06278 0.0
H560 H 0.06316 0.42798 0.02993 0.0
H561 H 0.08551 0.3864 0.02743 0.0
H562 H 0.17169 0.47614 0.16625 0.0
H563 H 0.18907 0.43208 0.16826 0.0
H564 H 0.12116 0.5012 0.1634 0.0
H565 H 0.08802 0.51164 0.13099 0.0
C566 C 0.62163 0.14497 0.903 0.0
C567 C 0.65074 0.158 0.92508 0.0
C568 C 0.62778 0.12176 0.97687 0.0
C569 C 0.59876 0.10853 0.95467 0.0
N570 N 0.57432 0.099 0.89451 0.0
N571 N 0.68738 0.15122 0.9792 0.0
C572 C 0.59776 0.11741 0.91699 0.0
C573 C 0.65577 0.14374 0.96077 0.0
N574 N 0.61559 0.16017 0.86941 0.0
N575 N 0.62741 0.11559 0.01368 0.0
H576 H 0.70831 0.16729 0.96806 0.0
H577 H 0.6943 0.13868 1.0038 0.0
H578 H 0.60715 0.10039 0.02692 0.0
H579 H 0.64564 0.128 0.03164 0.0
H580 H 0.59232 0.1548 0.85394 0.0
H581 H 0.63255 0.18022 0.85801 0.0
H582 H 0.57465 0.10176 0.86623 0.0
H583 H 0.55707 0.07812 0.90391 0.0
C584 C 0.9316 0.89126 0.45291 0.0
C585 C 0.9069 0.9056 0.42676 0.0
C586 C 0.93718 0.96555 0.43049 0.0
C587 C 0.96142 0.95121 0.45704 0.0
N588 N 0.97544 0.90396 0.50079 0.0
N589 N 0.88065 0.95766 0.39654 0.0
C590 C 0.95668 0.9151 0.47047 0.0
C591 C 0.9079 0.94325 0.41744 0.0
N592 N 0.93195 0.8546 0.4601 0.0
N593 N 0.94315 0.99979 0.41658 0.0
H594 H 0.85922 0.94184 0.38622 0.0
H595 H 0.87758 0.98552 0.39199 0.0
H596 H 0.96417 0.01682 0.42572 0.0
H597 H 0.92874 1.01052 0.39457 0.0
H598 H 0.95222 0.84201 0.47548 0.0
H599 H 0.91348 0.83617 0.44856 0.0
H600 H 0.97041 0.87927 0.51417 0.0
H601 H 0.99355 0.92096 0.51483 0.0
C602 C 0.45015 0.6282 0.65635 0.0
C603 C 0.43009 0.65536 0.63742 0.0
C604 C 0.45052 0.63103 0.57874 0.0
C605 C 0.47215 0.60532 0.59784 0.0
N606 N 0.48492 0.57221 0.65307 0.0
N607 N 0.40385 0.67769 0.58149 0.0
C608 C 0.46932 0.60154 0.63617 0.0
C609 C 0.42777 0.65501 0.59879 0.0
N610 N 0.45227 0.62901 0.69355 0.0
N611 N 0.45316 0.63358 0.54164 0.0
H612 H 0.3872 0.69566 0.5956 0.0
H613 H 0.39836 0.6769 0.55368 0.0
H614 H 0.46835 0.61536 0.52629 0.0
H615 H 0.44154 0.6543 0.52611 0.0
H616 H 0.4699 0.61287 0.70883 0.0
H617 H 0.43761 0.64732 0.7093 0.0
H618 H 0.48124 0.56574 0.68051 0.0
H619 H 0.49894 0.5523 0.63871 0.0
C620 C 0.03345 0.97961 0.70988 0.0
C621 C 0.01815 0.94397 0.70883 0.0
C622 C 0.01569 0.94767 0.64242 0.0
C623 C 0.02092 0.98602 0.64447 0.0
N624 N 0.04151 0.03799 0.67921 0.0
N625 N 0.02998 0.891 0.67258 0.0
C626 C 0.03238 1.00182 0.67789 0.0
C627 C 0.0193 0.92638 0.67462 0.0
N628 N 0.05266 0.99025 0.73991 0.0
N629 N 1.00571 0.9315 0.61049 0.0
H630 H 0.03982 0.87717 0.69551 0.0
H631 H 0.03441 0.87792 0.64786 0.0
H632 H 1.00214 0.94594 0.58619 0.0
H633 H 0.99858 0.90393 0.60909 0.0
H634 H 0.06734 0.01467 0.74141 0.0
H635 H 0.05721 0.97226 0.76164 0.0
H636 H 0.0458 0.05189 0.70352 0.0
H637 H 0.04355 0.05436 0.65587 0.0
C638 C 0.60921 0.09245 0.19126 0.0
C639 C 0.58028 0.11261 0.20671 0.0
C640 C 0.54592 0.10692 0.14961 0.0
C641 C 0.571 0.08071 0.13726 0.0
N642 N 0.63504 0.06652 0.13665 0.0
N643 N 0.51968 0.13737 0.20139 0.0
C644 C 0.60527 0.0784 0.15543 0.0
C645 C 0.54825 0.11946 0.18608 0.0
N646 N 0.64034 0.08638 0.21093 0.0
N647 N 0.52396 0.12427 0.12531 0.0
H648 H 0.52032 0.14713 0.22803 0.0
H649 H 0.49437 0.13966 0.18856 0.0
H650 H 0.52811 0.12193 0.09738 0.0
H651 H 0.50744 0.14602 0.13246 0.0
H652 H 0.66017 0.06782 0.20329 0.0
H653 H 0.64559 0.09837 0.2361 0.0
H654 H 0.66154 0.06694 0.14692 0.0
H655 H 0.63405 0.06106 0.1088 0.0
C656 C 0.50386 0.57057 0.34095 0.0
C657 C 0.49797 0.6086 0.3436 0.0
C658 C 0.50726 0.60566 0.40984 0.0
C659 C 0.51283 0.56746 0.40726 0.0
N660 N 0.52585 0.51536 0.37004 0.0
N661 N 0.50249 0.66391 0.37828 0.0
C662 C 0.51407 0.55051 0.37261 0.0
C663 C 0.50267 0.62667 0.37734 0.0
N664 N 0.4985 0.55343 0.30838 0.0
N665 N 0.50365 0.62148 0.44325 0.0
H666 H 0.49822 0.68001 0.35511 0.0
H667 H 0.50961 0.6789 0.40125 0.0
H668 H 0.50666 0.6073 0.46775 0.0
H669 H 0.49508 0.64818 0.44686 0.0
H670 H 0.49775 0.52521 0.30557 0.0
H671 H 0.49271 0.56745 0.28423 0.0
H672 H 0.53076 0.50243 0.34541 0.0
H673 H 0.53444 0.50026 0.39266 0.0
C674 C 0.11877 0.46344 0.88882 0.0
C675 C 0.09314 0.45439 0.86118 0.0
C676 C 0.04309 0.46297 0.90453 0.0
C677 C 0.06789 0.48036 0.92841 0.0
N678 N 0.12894 0.48001 0.95211 0.0
N679 N 0.03084 0.44297 0.84281 0.0
C680 C 0.10581 0.47512 0.92324 0.0
C681 C 0.05525 0.45278 0.86922 0.0
N682 N 0.15535 0.46237 0.88151 0.0
N683 N 1.00943 0.45293 0.91677 0.0
H684 H 0.03889 0.43459 0.81695 0.0
H685 H 1.00269 0.44508 0.84597 0.0
H686 H 1.00248 0.45537 0.94411 0.0
H687 H 0.99114 0.43723 0.90163 0.0
H688 H 0.17543 0.47277 0.89872 0.0
H689 H 0.16577 0.45203 0.85729 0.0
H690 H 0.1567 0.47436 0.95161 0.0
H691 H 0.11922 0.48626 0.97804 0.0
C692 C 0.71665 0.01208 0.981 0.0
C693 C 0.71455 0.99853 0.94492 0.0
C694 C 0.64759 0.99866 0.94774 0.0
C695 C 0.64976 1.01111 0.98422 0.0
N696 N 0.68484 0.03909 0.03205 0.0
N697 N 0.6791 0.98723 0.89077 0.0
C698 C 0.68392 0.02088 0.99968 0.0
C699 C 0.68027 0.9947 0.9272 0.0
N700 N 0.74984 0.01518 0.99784 0.0
N701 N 0.61451 0.98863 0.9335 0.0
H702 H 0.70255 0.9835 0.8752 0.0
H703 H 0.65525 0.98766 0.87531 0.0
H704 H 0.59003 0.99189 0.94747 0.0
H705 H 0.61133 0.97525 0.90877 0.0
H706 H 0.75302 0.02069 0.02546 0.0
H707 H 0.77444 1.01024 0.98455 0.0
H708 H 0.70855 0.05008 0.04336 0.0
H709 H 0.66116 0.04621 0.04595 0.0
C710 C 0.84822 0.02725 0.47061 0.0
C711 C 0.84517 0.05926 0.4488 0.0
C712 C 0.90928 0.07475 0.46099 0.0
C713 C 0.91031 0.04637 0.48739 0.0
N714 N 0.88292 0.99389 0.51644 0.0
N715 N 0.8723 0.11342 0.42213 0.0
C716 C 0.88053 0.02174 0.49158 0.0
C717 C 0.87577 0.08273 0.44325 0.0
N718 N 0.82024 1.00229 0.47106 0.0
N719 N 0.94057 0.09377 0.45273 0.0
H720 H 0.84869 0.11937 0.40739 0.0
H721 H 0.892 0.13403 0.42055 0.0
H722 H 0.96554 0.08854 0.46538 0.0
H723 H 0.94276 0.11238 0.43125 0.0
H724 H 0.82173 0.97685 0.48369 0.0
H725 H 0.79611 1.00601 0.45642 0.0
H726 H 0.86111 0.97705 0.52389 0.0
H727 H 0.90694 0.98835 0.5307 0.0
C728 C 0.19842 0.54105 0.10035 0.0
C729 C 0.20297 0.57439 0.11929 0.0
C730 C 0.14044 0.59154 0.10336 0.0
C731 C 0.1384 0.56158 0.07925 0.0
N732 N 0.16457 0.50708 0.05459 0.0
N733 N 0.17885 0.63183 0.1392 0.0
C734 C 0.16687 0.53569 0.07815 0.0
C735 C 0.17394 0.5996 0.12126 0.0
N736 N 0.22424 0.51461 0.10373 0.0
N737 N 0.10995 0.61173 0.10969 0.0
H738 H 0.20243 0.63808 0.15396 0.0
H739 H 0.16049 0.65327 0.1378 0.0
H740 H 0.08482 0.60599 0.09745 0.0
H741 H 0.1085 0.63175 0.12958 0.0
H742 H 0.22092 0.48827 0.0938 0.0
H743 H 0.24793 0.51812 0.11919 0.0
H744 H 0.18602 0.4895 0.04936 0.0
H745 H 0.14151 0.50185 0.03874 0.0
C746 C 0.34923 0.51841 0.56639 0.0
C747 C 0.34808 0.4913 0.59417 0.0
C748 C 0.4149 0.49257 0.59783 0.0
C749 C 0.41577 0.51304 0.56502 0.0
N750 N 0.38569 0.5503 0.52042 0.0
N751 N 0.37906 0.45426 0.63886 0.0
C752 C 0.38344 0.52814 0.55047 0.0
C753 C 0.38073 0.47961 0.61136 0.0
N754 N 0.31747 0.53411 0.55508 0.0
N755 N 0.44692 0.48487 0.61525 0.0
H756 H 0.35446 0.44494 0.64998 0.0
H757 H 0.4018 0.44132 0.64973 0.0
H758 H 0.47211 0.49404 0.60533 0.0
H759 H 0.44844 0.47243 0.6408 0.0
H760 H 0.31618 0.55561 0.53646 0.0
H761 H 0.29228 0.52726 0.56667 0.0
H762 H 0.36323 0.5595 0.50575 0.0
H763 H 0.41075 0.55903 0.50975 0.0
C764 C 0.92792 0.67831 0.98032 0.0
C765 C 0.9432 0.71265 0.98997 0.0
C766 C 0.99397 0.68196 0.02083 0.0
C767 C 0.98193 0.64847 1.00589 0.0
N768 N 0.93719 0.61324 0.97297 0.0
N769 N 0.99033 0.74803 0.01955 0.0
C770 C 0.94848 0.64611 0.98653 0.0
C771 C 0.97586 0.7147 1.01079 0.0
N772 N 0.89371 0.67666 0.96545 0.0
N773 N 0.02258 0.68219 0.04478 0.0
H774 H 0.97728 0.7725 0.01354 0.0
H775 H 0.01611 0.75168 0.03099 0.0
H776 H 0.03603 0.65841 0.0526 0.0
H777 H 0.03089 0.70507 0.05933 0.0
H778 H 0.87945 0.65244 0.96083 0.0
H779 H 0.87822 0.69985 0.96023 0.0
H780 H 0.91552 0.61004 0.95487 0.0
H781 H 0.95055 0.58892 0.97896 0.0
C782 C 0.4324 0.8851 0.07066 0.0
C783 C 0.44809 0.85089 0.06268 0.0
C784 C 0.50108 0.88199 0.03526 0.0
C785 C 0.48825 0.91557 0.0488 0.0
N786 N 0.44223 0.94988 0.0799 0.0
N787 N 0.49715 0.81588 0.0375 0.0
C788 C 0.45371 0.91748 0.06608 0.0
C789 C 0.4822 0.84908 0.04453 0.0
N790 N 0.3971 0.88651 0.08255 0.0
N791 N 0.53114 0.88185 0.01323 0.0
H792 H 0.48352 0.79128 0.04279 0.0
H793 H 0.52375 0.81254 0.02827 0.0
H794 H 0.54512 0.90573 1.00581 0.0
H795 H 0.54024 0.85883 0.9997 0.0
H796 H 0.38276 0.91069 0.08532 0.0
H797 H 0.381 0.86321 0.08673 0.0
H798 H 0.41963 0.95238 0.09682 0.0
H799 H 0.45645 0.97431 0.07573 0.0
C800 C 0.11441 0.18093 0.57594 0.0
C801 C 0.09463 0.21338 0.56969 0.0
C802 C 0.04991 0.17942 0.53318 0.0
C803 C 0.06521 0.14654 0.54616 0.0
N804 N 0.11327 0.11468 0.57737 0.0
N805 N 0.0455 0.24507 0.53999 0.0
C806 C 0.09846 0.14688 0.56599 0.0
C807 C 0.06335 0.21321 0.54684 0.0
N808 N 0.14806 0.18287 0.59197 0.0
N809 N 0.02228 0.17792 0.50817 0.0
H810 H 0.05554 0.27032 0.54855 0.0
H811 H 0.02025 0.24649 0.52705 0.0
H812 H 0.01255 0.15319 0.49784 0.0
H813 H 0.01134 0.20076 0.49537 0.0
H814 H 0.16536 0.1607 0.59479 0.0
H815 H 0.16001 0.2076 0.59969 0.0
H816 H 0.13495 0.11282 0.59563 0.0
H817 H 0.10285 0.08938 0.5694 0.0
C818 C 0.57629 0.34285 0.51852 0.0
C819 C 0.60887 0.34307 0.49758 0.0
C820 C 0.60412 0.40912 0.48806 0.0
C821 C 0.57106 0.4087 0.50815 0.0
N822 N 0.5304 0.37822 0.55002 0.0
N823 N 0.65876 0.3768 0.47043 0.0
C824 C 0.55874 0.37645 0.52592 0.0
C825 C 0.62444 0.37645 0.48503 0.0
N826 N 0.56137 0.3104 0.52994 0.0
N827 N 0.61518 0.44038 0.4705 0.0
H828 H 0.67415 0.35323 0.46754 0.0
H829 H 0.67323 0.4006 0.46408 0.0
H830 H 0.6018 0.46518 0.47332 0.0
H831 H 0.63648 0.44149 0.45177 0.0
H832 H 0.53559 0.30791 0.54166 0.0
H833 H 0.57403 0.28542 0.52587 0.0
H834 H 0.52199 0.35646 0.56648 0.0
H835 H 0.51734 0.40263 0.5559 0.0
loop_
_geom_bond_atom_site_label_1
_geom_bond_atom_site_label_2
_geom_bond_distance
_geom_bond_site_symmetry_2
_ccdc_geom_bond_type
C0 C1 1.264 . S
C0 C5 1.479 . S
C0 C10 1.465 . S
C1 C0 1.264 . S
C1 C3 1.339 . S
C1 H28 0.931 . S
C2 C3 1.395 . S
C2 C4 1.320 . S
C3 C1 1.339 . S
C3 C2 1.395 . S
C3 H29 0.929 . S
C4 C2 1.320 . S
C4 C5 1.405 . S
C4 H30 0.930 . S
C5 C0 1.479 . S
C5 C4 1.405 . S
C5 H31 0.931 . S
U6 O7 2.454 . S
U6 O8 2.458 . S
U6 C9 2.984 . S
U6 C10 2.847 . S
U6 C23 2.882 . S
U6 O24 2.441 . S
U6 O25 2.420 . S
U6 O26 2.455 . S
U6 O27 2.449 . S
O7 U6 2.454 . S
O7 C9 1.353 . S
O8 U6 2.458 . S
O8 C9 1.286 . S
C9 U6 2.984 . S
C9 O7 1.353 . S
C9 O8 1.286 . S
C9 C11 1.363 . S
C10 C0 1.465 . S
C10 U6 2.847 . S
C10 O24 1.249 . S
C10 O25 1.202 . S
C11 C9 1.363 . S
C11 C13 1.408 . S
C11 C16 1.342 . S
C12 C13 1.310 . S
C12 C15 1.461 . S
C12 H32 0.932 . S
C13 C11 1.408 . S
C13 C12 1.310 . S
C13 H33 0.930 . S
C14 C15 1.474 . S
C14 C16 1.285 . S
C14 H34 0.929 . S
C15 C12 1.461 . S
C15 C14 1.474 . S
C16 C11 1.342 . S
C16 C14 1.285 . S
C16 H35 0.930 . S
C17 C20 1.424 . S
C17 C22 1.245 . S
C17 C23 1.428 . S
C18 C21 1.260 . S
C18 C22 1.477 . S
C18 H36 0.932 . S
C19 C20 1.384 . S
C19 C21 1.479 . S
C19 H37 0.929 . S
C20 C17 1.424 . S
C20 C19 1.384 . S
C20 H38 0.928 . S
C21 C18 1.260 . S
C21 C19 1.479 . S
C22 C17 1.245 . S
C22 C18 1.477 . S
C22 H39 0.932 . S
C23 U6 2.882 . S
C23 C17 1.428 . S
C23 O26 1.301 . S
C23 O27 1.282 . S
O24 U6 2.441 . S
O24 C10 1.249 . S
O25 U6 2.420 . S
O25 C10 1.202 . S
O26 U6 2.455 . S
O26 C23 1.301 . S
O27 U6 2.449 . S
O27 C23 1.282 . S
H28 C1 0.931 . S
H29 C3 0.929 . S
H30 C4 0.930 . S
H31 C5 0.931 . S
H32 C12 0.932 . S
H33 C13 0.930 . S
H34 C14 0.929 . S
H35 C16 0.930 . S
H36 C18 0.932 . S
H37 C19 0.929 . S
H38 C20 0.928 . S
H39 C22 0.932 . S
C40 C41 1.264 . S
C40 C45 1.479 . S
C40 C50 1.465 . S
C41 C40 1.264 . S
C41 C43 1.339 . S
C41 H68 0.931 . S
C42 C43 1.395 . S
C42 C44 1.320 . S
C43 C41 1.339 . S
C43 C42 1.395 . S
C43 H69 0.929 . S
C44 C42 1.320 . S
C44 C45 1.405 . S
C44 H70 0.930 . S
C45 C40 1.479 . S
C45 C44 1.405 . S
C45 H71 0.931 . S
U46 O47 2.454 . S
U46 O48 2.458 . S
U46 C49 2.984 . S
U46 C50 2.847 . S
U46 C63 2.882 . S
U46 O64 2.441 . S
U46 O65 2.420 . S
U46 O66 2.455 . S
U46 O67 2.449 . S
O47 U46 2.454 . S
O47 C49 1.353 . S
O48 U46 2.458 . S
O48 C49 1.286 . S
C49 U46 2.984 . S
C49 O47 1.353 . S
C49 O48 1.286 . S
C49 C51 1.363 . S
C50 C40 1.465 . S
C50 U46 2.847 . S
C50 O64 1.249 . S
C50 O65 1.202 . S
C51 C49 1.363 . S
C51 C53 1.408 . S
C51 C56 1.342 . S
C52 C53 1.310 . S
C52 C55 1.461 . S
C52 H72 0.932 . S
C53 C51 1.408 . S
C53 C52 1.310 . S
C53 H73 0.930 . S
C54 C55 1.474 . S
C54 C56 1.285 . S
C54 H74 0.929 . S
C55 C52 1.461 . S
C55 C54 1.474 . S
C56 C51 1.342 . S
C56 C54 1.285 . S
C56 H75 0.930 . S
C57 C60 1.424 . S
C57 C62 1.245 . S
C57 C63 1.428 . S
C58 C61 1.260 . S
C58 C62 1.477 . S
C58 H76 0.932 . S
C59 C60 1.384 . S
C59 C61 1.479 . S
C59 H77 0.929 . S
C60 C57 1.424 . S
C60 C59 1.384 . S
C60 H78 0.928 . S
C61 C58 1.260 . S
C61 C59 1.479 . S
C62 C57 1.245 . S
C62 C58 1.477 . S
C62 H79 0.932 . S
C63 U46 2.882 . S
C63 C57 1.428 . S
C63 O66 1.301 . S
C63 O67 1.282 . S
O64 U46 2.441 . S
O64 C50 1.249 . S
O65 U46 2.420 . S
O65 C50 1.202 . S
O66 U46 2.455 . S
O66 C63 1.301 . S
O67 U46 2.449 . S
O67 C63 1.282 . S
H68 C41 0.931 . S
H69 C43 0.929 . S
H70 C44 0.930 . S
H71 C45 0.931 . S
H72 C52 0.932 . S
H73 C53 0.930 . S
H74 C54 0.929 . S
H75 C56 0.930 . S
H76 C58 0.932 . S
H77 C59 0.929 . S
H78 C60 0.928 . S
H79 C62 0.932 . S
C80 C81 1.264 . S
C80 C85 1.479 . S
C80 C90 1.465 . S
C81 C80 1.264 . S
C81 C83 1.339 . S
C81 H108 0.931 . S
C82 C83 1.395 . S
C82 C84 1.320 . S
C83 C81 1.339 . S
C83 C82 1.395 . S
C83 H109 0.929 . S
C84 C82 1.320 . S
C84 C85 1.405 . S
C84 H110 0.930 . S
C85 C80 1.479 . S
C85 C84 1.405 . S
C85 H111 0.931 . S
U86 O87 2.454 . S
U86 O88 2.458 . S
U86 C89 2.984 . S
U86 C90 2.847 . S
U86 C103 2.882 . S
U86 O104 2.441 . S
U86 O105 2.420 . S
U86 O106 2.455 . S
U86 O107 2.449 . S
O87 U86 2.454 . S
O87 C89 1.353 . S
O88 U86 2.458 . S
O88 C89 1.286 . S
C89 U86 2.984 . S
C89 O87 1.353 . S
C89 O88 1.286 . S
C89 C91 1.363 . S
C90 C80 1.465 . S
C90 U86 2.847 . S
C90 O104 1.249 . S
C90 O105 1.202 . S
C91 C89 1.363 . S
C91 C93 1.408 . S
C91 C96 1.342 . S
C92 C93 1.310 . S
C92 C95 1.461 . S
C92 H112 0.932 . S
C93 C91 1.408 . S
C93 C92 1.310 . S
C93 H113 0.930 . S
C94 C95 1.474 . S
C94 C96 1.285 . S
C94 H114 0.929 . S
C95 C92 1.461 . S
C95 C94 1.474 . S
C96 C91 1.342 . S
C96 C94 1.285 . S
C96 H115 0.930 . S
C97 C100 1.424 . S
C97 C102 1.245 . S
C97 C103 1.428 . S
C98 C101 1.260 . S
C98 C102 1.477 . S
C98 H116 0.932 . S
C99 C100 1.384 . S
C99 C101 1.479 . S
C99 H117 0.929 . S
C100 C97 1.424 . S
C100 C99 1.384 . S
C100 H118 0.928 . S
C101 C98 1.260 . S
C101 C99 1.479 . S
C102 C97 1.245 . S
C102 C98 1.477 . S
C102 H119 0.932 . S
C103 U86 2.882 . S
C103 C97 1.428 . S
C103 O106 1.301 . S
C103 O107 1.282 . S
O104 U86 2.441 . S
O104 C90 1.249 . S
O105 U86 2.420 . S
O105 C90 1.202 . S
O106 U86 2.455 . S
O106 C103 1.301 . S
O107 U86 2.449 . S
O107 C103 1.282 . S
H108 C81 0.931 . S
H109 C83 0.929 . S
H110 C84 0.930 . S
H111 C85 0.931 . S
H112 C92 0.932 . S
H113 C93 0.930 . S
H114 C94 0.929 . S
H115 C96 0.930 . S
H116 C98 0.932 . S
H117 C99 0.929 . S
H118 C100 0.928 . S
H119 C102 0.932 . S
C120 C121 1.264 . S
C120 C125 1.479 . S
C120 C130 1.465 . S
C121 C120 1.264 . S
C121 C123 1.339 . S
C121 H148 0.931 . S
C122 C123 1.395 . S
C122 C124 1.320 . S
C123 C121 1.339 . S
C123 C122 1.395 . S
C123 H149 0.929 . S
C124 C122 1.320 . S
C124 C125 1.405 . S
C124 H150 0.930 . S
C125 C120 1.479 . S
C125 C124 1.405 . S
C125 H151 0.931 . S
U126 O127 2.454 . S
U126 O128 2.458 . S
U126 C129 2.984 . S
U126 C130 2.847 . S
U126 C143 2.882 . S
U126 O144 2.441 . S
U126 O145 2.420 . S
U126 O146 2.455 . S
U126 O147 2.449 . S
O127 U126 2.454 . S
O127 C129 1.353 . S
O128 U126 2.458 . S
O128 C129 1.286 . S
C129 U126 2.984 . S
C129 O127 1.353 . S
C129 O128 1.286 . S
C129 C131 1.363 . S
C130 C120 1.465 . S
C130 U126 2.847 . S
C130 O144 1.249 . S
C130 O145 1.202 . S
C131 C129 1.363 . S
C131 C133 1.408 . S
C131 C136 1.342 . S
C132 C133 1.310 . S
C132 C135 1.461 . S
C132 H152 0.932 . S
C133 C131 1.408 . S
C133 C132 1.310 . S
C133 H153 0.930 . S
C134 C135 1.474 . S
C134 C136 1.285 . S
C134 H154 0.929 . S
C135 C132 1.461 . S
C135 C134 1.474 . S
C136 C131 1.342 . S
C136 C134 1.285 . S
C136 H155 0.930 . S
C137 C140 1.424 . S
C137 C142 1.245 . S
C137 C143 1.428 . S
C138 C141 1.260 . S
C138 C142 1.477 . S
C138 H156 0.932 . S
C139 C140 1.384 . S
C139 C141 1.479 . S
C139 H157 0.929 . S
C140 C137 1.424 . S
C140 C139 1.384 . S
C140 H158 0.928 . S
C141 C138 1.260 . S
C141 C139 1.479 . S
C142 C137 1.245 . S
C142 C138 1.477 . S
C142 H159 0.932 . S
C143 U126 2.882 . S
C143 C137 1.428 . S
C143 O146 1.301 . S
C143 O147 1.282 . S
O144 U126 2.441 . S
O144 C130 1.249 . S
O145 U126 2.420 . S
O145 C130 1.202 . S
O146 U126 2.455 . S
O146 C143 1.301 . S
O147 U126 2.449 . S
O147 C143 1.282 . S
H148 C121 0.931 . S
H149 C123 0.929 . S
H150 C124 0.930 . S
H151 C125 0.931 . S
H152 C132 0.932 . S
H153 C133 0.930 . S
H154 C134 0.929 . S
H155 C136 0.930 . S
H156 C138 0.932 . S
H157 C139 0.929 . S
H158 C140 0.928 . S
H159 C142 0.932 . S
C160 C161 1.264 1_655 S
C160 C165 1.479 . S
C160 C170 1.465 . S
C161 C160 1.264 1_455 S
C161 C163 1.339 . S
C161 H188 0.931 . S
C162 C163 1.395 . S
C162 C164 1.320 1_456 S
C163 C161 1.339 . S
C163 C162 1.395 . S
C163 H189 0.929 . S
C164 C162 1.320 1_654 S
C164 C165 1.405 1_554 S
C164 H190 0.930 . S
C165 C160 1.479 . S
C165 C164 1.405 1_556 S
C165 H191 0.931 1_556 S
U166 O167 2.454 . S
U166 O168 2.458 . S
U166 C169 2.984 . S
U166 C170 2.847 . S
U166 C183 2.882 . S
U166 O184 2.441 . S
U166 O185 2.420 . S
U166 O186 2.455 . S
U166 O187 2.449 . S
O167 U166 2.454 . S
O167 C169 1.353 . S
O168 U166 2.458 . S
O168 C169 1.286 . S
C169 U166 2.984 . S
C169 O167 1.353 . S
C169 O168 1.286 . S
C169 C171 1.363 . S
C170 C160 1.465 . S
C170 U166 2.847 . S
C170 O184 1.249 . S
C170 O185 1.202 . S
C171 C169 1.363 . S
C171 C173 1.408 1_556 S
C171 C176 1.342 1_565 S
C172 C173 1.310 . S
C172 C175 1.461 1_565 S
C172 H192 0.932 . S
C173 C171 1.408 1_554 S
C173 C172 1.310 . S
C173 H193 0.930 . S
C174 C175 1.474 1_556 S
C174 C176 1.285 . S
C174 H194 0.929 . S
C175 C172 1.461 1_545 S
C175 C174 1.474 1_554 S
C176 C171 1.342 1_545 S
C176 C174 1.285 . S
C176 H195 0.930 . S
C177 C180 1.424 . S
C177 C182 1.255 . S
C177 C183 1.428 . S
C178 C181 1.260 1_655 S
C178 C182 1.472 1_545 S
C178 H196 0.932 . S
C179 C180 1.384 1_455 S
C179 C181 1.479 1_565 S
C179 H197 0.929 . S
C180 C177 1.424 . S
C180 C179 1.384 1_655 S
C180 H198 0.928 1_655 S
C181 C178 1.260 1_455 S
C181 C179 1.479 1_545 S
C182 C177 1.255 . S
C182 C178 1.472 1_565 S
C182 H199 0.927 1_565 S
C183 U166 2.882 . S
C183 C177 1.428 . S
C183 O186 1.301 . S
C183 O187 1.282 . S
O184 U166 2.441 . S
O184 C170 1.249 . S
O185 U166 2.420 . S
O185 C170 1.202 . S
O186 U166 2.455 . S
O186 C183 1.301 . S
O187 U166 2.449 . S
O187 C183 1.282 . S
H188 C161 0.931 . S
H189 C163 0.929 . S
H190 C164 0.930 . S
H191 C165 0.931 1_554 S
H192 C172 0.932 . S
H193 C173 0.930 . S
H194 C174 0.929 . S
H195 C176 0.930 . S
H196 C178 0.932 . S
H197 C179 0.929 . S
H198 C180 0.928 1_455 S
H199 C182 0.927 1_545 S
C200 C201 1.264 . S
C200 C205 1.479 . S
C200 C210 1.465 . S
C201 C200 1.264 . S
C201 C203 1.339 . S
C201 H228 0.931 . S
C202 C203 1.395 . S
C202 C204 1.320 . S
C203 C201 1.339 . S
C203 C202 1.395 . S
C203 H229 0.929 . S
C204 C202 1.320 . S
C204 C205 1.405 . S
C204 H230 0.930 . S
C205 C200 1.479 . S
C205 C204 1.405 . S
C205 H231 0.931 . S
U206 O207 2.454 . S
U206 O208 2.458 . S
U206 C209 2.984 . S
U206 C210 2.847 . S
U206 C223 2.882 . S
U206 O224 2.441 . S
U206 O225 2.420 . S
U206 O226 2.455 . S
U206 O227 2.449 . S
O207 U206 2.454 . S
O207 C209 1.353 . S
O208 U206 2.458 . S
O208 C209 1.286 . S
C209 U206 2.984 . S
C209 O207 1.353 . S
C209 O208 1.286 . S
C209 C211 1.363 . S
C210 C200 1.465 . S
C210 U206 2.847 . S
C210 O224 1.249 . S
C210 O225 1.202 . S
C211 C209 1.363 . S
C211 C213 1.408 . S
C211 C216 1.342 . S
C212 C213 1.310 . S
C212 C215 1.461 . S
C212 H232 0.932 . S
C213 C211 1.408 . S
C213 C212 1.310 . S
C213 H233 0.930 . S
C214 C215 1.474 . S
C214 C216 1.285 . S
C214 H234 0.929 . S
C215 C212 1.461 . S
C215 C214 1.474 . S
C216 C211 1.342 . S
C216 C214 1.285 . S
C216 H235 0.930 . S
C217 C220 1.424 . S
C217 C222 1.245 . S
C217 C223 1.428 . S
C218 C221 1.260 . S
C218 C222 1.477 . S
C218 H236 0.932 . S
C219 C220 1.384 . S
C219 C221 1.479 . S
C219 H237 0.929 . S
C220 C217 1.424 . S
C220 C219 1.384 . S
C220 H238 0.928 . S
C221 C218 1.260 . S
C221 C219 1.479 . S
C222 C217 1.245 . S
C222 C218 1.477 . S
C222 H239 0.932 . S
C223 U206 2.882 . S
C223 C217 1.428 . S
C223 O226 1.301 . S
C223 O227 1.282 . S
O224 U206 2.441 . S
O224 C210 1.249 . S
O225 U206 2.420 . S
O225 C210 1.202 . S
O226 U206 2.455 . S
O226 C223 1.301 . S
O227 U206 2.449 . S
O227 C223 1.282 . S
H228 C201 0.931 . S
H229 C203 0.929 . S
H230 C204 0.930 . S
H231 C205 0.931 . S
H232 C212 0.932 . S
H233 C213 0.930 . S
H234 C214 0.929 . S
H235 C216 0.930 . S
H236 C218 0.932 . S
H237 C219 0.929 . S
H238 C220 0.928 . S
H239 C222 0.932 . S
C240 C241 1.264 . S
C240 C245 1.479 . S
C240 C250 1.465 . S
C241 C240 1.264 . S
C241 C243 1.339 . S
C241 H268 0.931 . S
C242 C243 1.395 . S
C242 C244 1.320 . S
C243 C241 1.339 . S
C243 C242 1.395 . S
C243 H269 0.929 1_554 S
C244 C242 1.320 . S
C244 C245 1.405 . S
C244 H270 0.930 . S
C245 C240 1.479 . S
C245 C244 1.405 . S
C245 H271 0.931 . S
U246 O247 2.454 . S
U246 O248 2.458 . S
U246 C249 2.984 . S
U246 C250 2.847 . S
U246 C263 2.882 . S
U246 O264 2.441 . S
U246 O265 2.420 . S
U246 O266 2.455 . S
U246 O267 2.449 . S
O247 U246 2.454 . S
O247 C249 1.353 . S
O248 U246 2.458 . S
O248 C249 1.286 . S
C249 U246 2.984 . S
C249 O247 1.353 . S
C249 O248 1.286 . S
C249 C251 1.363 . S
C250 C240 1.465 . S
C250 U246 2.847 . S
C250 O264 1.249 . S
C250 O265 1.202 . S
C251 C249 1.363 . S
C251 C253 1.408 . S
C251 C256 1.342 . S
C252 C253 1.310 . S
C252 C255 1.461 . S
C252 H272 0.932 . S
C253 C251 1.408 . S
C253 C252 1.310 . S
C253 H273 0.930 . S
C254 C255 1.474 . S
C254 C256 1.285 . S
C254 H274 0.929 . S
C255 C252 1.461 . S
C255 C254 1.474 . S
C256 C251 1.342 . S
C256 C254 1.285 . S
C256 H275 0.930 . S
C257 C260 1.424 . S
C257 C262 1.245 . S
C257 C263 1.428 . S
C258 C261 1.260 . S
C258 C262 1.477 . S
C258 H276 0.932 . S
C259 C260 1.384 . S
C259 C261 1.479 . S
C259 H277 0.951 . S
C260 C257 1.424 . S
C260 C259 1.384 . S
C260 H278 0.928 . S
C261 C258 1.260 . S
C261 C259 1.479 . S
C262 C257 1.245 . S
C262 C258 1.477 . S
C262 H279 0.932 . S
C263 U246 2.882 . S
C263 C257 1.428 . S
C263 O266 1.301 . S
C263 O267 1.282 . S
O264 U246 2.441 . S
O264 C250 1.249 . S
O265 U246 2.420 . S
O265 C250 1.202 . S
O266 U246 2.455 . S
O266 C263 1.301 . S
O267 U246 2.449 . S
O267 C263 1.282 . S
H268 C241 0.931 . S
H269 C243 0.929 1_556 S
H270 C244 0.930 . S
H271 C245 0.931 . S
H272 C252 0.932 . S
H273 C253 0.930 . S
H274 C254 0.929 . S
H275 C256 0.930 . S
H276 C258 0.932 . S
H277 C259 0.951 . S
H278 C260 0.928 . S
H279 C262 0.932 . S
C280 C281 1.264 . S
C280 C285 1.479 . S
C280 C290 1.465 . S
C281 C280 1.264 . S
C281 C283 1.339 . S
C281 H308 0.931 . S
C282 C283 1.395 . S
C282 C284 1.320 . S
C283 C281 1.339 . S
C283 C282 1.395 . S
C283 H309 0.929 . S
C284 C282 1.320 . S
C284 C285 1.405 . S
C284 H310 0.930 1_455 S
C285 C280 1.479 . S
C285 C284 1.405 . S
C285 H311 0.931 . S
U286 O287 2.454 . S
U286 O288 2.458 . S
U286 C289 2.984 . S
U286 C290 2.847 . S
U286 C303 2.882 . S
U286 O304 2.441 . S
U286 O305 2.420 . S
U286 O306 2.455 . S
U286 O307 2.449 . S
O287 U286 2.454 . S
O287 C289 1.353 . S
O288 U286 2.458 . S
O288 C289 1.286 . S
C289 U286 2.984 . S
C289 O287 1.353 . S
C289 O288 1.286 . S
C289 C291 1.363 . S
C290 C280 1.465 . S
C290 U286 2.847 . S
C290 O304 1.249 . S
C290 O305 1.202 . S
C291 C289 1.363 . S
C291 C293 1.408 . S
C291 C296 1.342 . S
C292 C293 1.310 . S
C292 C295 1.461 . S
C292 H312 0.937 . S
C293 C291 1.408 . S
C293 C292 1.310 . S
C293 H313 0.930 . S
C294 C295 1.474 . S
C294 C296 1.285 . S
C294 H314 0.929 . S
C295 C292 1.461 . S
C295 C294 1.474 . S
C296 C291 1.342 . S
C296 C294 1.285 . S
C296 H315 0.930 . S
C297 C300 1.424 . S
C297 C302 1.245 . S
C297 C303 1.428 . S
C298 C301 1.260 . S
C298 C302 1.477 . S
C298 H316 0.932 . S
C299 C300 1.384 . S
C299 C301 1.479 . S
C299 H317 0.929 . S
C300 C297 1.424 . S
C300 C299 1.384 . S
C300 H318 0.928 . S
C301 C298 1.260 . S
C301 C299 1.479 . S
C302 C297 1.245 . S
C302 C298 1.477 . S
C302 H319 0.932 . S
C303 U286 2.882 . S
C303 C297 1.428 . S
C303 O306 1.301 . S
C303 O307 1.282 . S
O304 U286 2.441 . S
O304 C290 1.249 . S
O305 U286 2.420 . S
O305 C290 1.202 . S
O306 U286 2.455 . S
O306 C303 1.301 . S
O307 U286 2.449 . S
O307 C303 1.282 . S
H308 C281 0.931 . S
H309 C283 0.929 . S
H310 C284 0.930 1_655 S
H311 C285 0.931 . S
H312 C292 0.937 . S
H313 C293 0.930 . S
H314 C294 0.929 . S
H315 C296 0.930 . S
H316 C298 0.932 . S
H317 C299 0.929 . S
H318 C300 0.928 . S
H319 C302 0.932 . S
Zn320 O326 1.920 . S
Zn320 O332 1.898 . S
Zn320 O335 1.905 . S
Zn321 O329 1.905 1_565 S
Zn321 O330 1.898 . S
Zn321 O338 1.920 . S
Zn322 O325 2.080 1_455 S
Zn322 O328 2.114 . S
Zn322 O331 2.120 1_445 S
Zn322 O333 2.120 . S
Zn322 O334 2.114 1_455 S
Zn322 O337 2.080 . S
C323 O328 1.166 . S
C323 O329 1.182 . S
C324 O330 1.167 1_655 S
C324 O331 1.299 . S
O325 Zn322 2.080 1_655 S
O325 C339 1.305 . S
O326 Zn320 1.920 . S
O326 C339 1.234 . S
C327 O332 1.167 1_455 S
C327 O333 1.299 . S
O328 Zn322 2.114 . S
O328 C323 1.166 . S
O329 Zn321 1.905 1_545 S
O329 C323 1.182 . S
O330 Zn321 1.898 . S
O330 C324 1.167 1_455 S
O331 Zn322 2.120 1_665 S
O331 C324 1.299 . S
O332 Zn320 1.898 . S
O332 C327 1.167 1_655 S
O333 Zn322 2.120 . S
O333 C327 1.299 . S
O334 Zn322 2.114 1_655 S
O334 C336 1.166 . S
O335 Zn320 1.905 . S
O335 C336 1.182 . S
C336 O334 1.166 . S
C336 O335 1.182 . S
O337 Zn322 2.080 . S
O337 C340 1.305 1_545 S
O338 Zn321 1.920 . S
O338 C340 1.234 . S
C339 O325 1.305 . S
C339 O326 1.234 . S
C340 O337 1.305 1_565 S
C340 O338 1.234 . S
Zn341 O347 1.920 1_556 S
Zn341 O353 1.898 . S
Zn341 O356 1.905 . S
Zn342 O350 1.905 . S
Zn342 O351 1.898 . S
Zn342 O359 1.920 . S
Zn343 O346 2.080 . S
Zn343 O349 2.114 1_545 S
Zn343 O352 2.120 1_545 S
Zn343 O354 2.120 . S
Zn343 O355 2.114 1_544 S
Zn343 O358 2.080 . S
C344 O349 1.166 . S
C344 O350 1.182 . S
C345 O351 1.167 . S
C345 O352 1.299 . S
O346 Zn343 2.080 . S
O346 C360 1.305 . S
O347 Zn341 1.920 1_554 S
O347 C360 1.234 . S
C348 O353 1.167 . S
C348 O354 1.299 1_556 S
O349 Zn343 2.114 1_565 S
O349 C344 1.166 . S
O350 Zn342 1.905 . S
O350 C344 1.182 . S
O351 Zn342 1.898 . S
O351 C345 1.167 . S
O352 Zn343 2.120 1_565 S
O352 C345 1.299 . S
O353 Zn341 1.898 . S
O353 C348 1.167 . S
O354 Zn343 2.120 . S
O354 C348 1.299 1_554 S
O355 Zn343 2.114 1_566 S
O355 C357 1.166 . S
O356 Zn341 1.905 . S
O356 C357 1.182 1_545 S
C357 O355 1.166 . S
C357 O356 1.182 1_565 S
O358 Zn343 2.080 . S
O358 C361 1.305 . S
O359 Zn342 1.920 . S
O359 C361 1.234 1_565 S
C360 O346 1.305 . S
C360 O347 1.234 . S
C361 O358 1.305 . S
C361 O359 1.234 1_545 S
Zn362 O368 1.920 . S
Zn362 O374 1.898 . S
Zn362 O377 1.905 . S
Zn363 O371 1.905 . S
Zn363 O372 1.898 . S
Zn363 O380 1.920 . S
Zn364 O367 2.080 . S
Zn364 O370 2.114 . S
Zn364 O373 2.120 . S
Zn364 O375 2.120 . S
Zn364 O376 2.114 . S
Zn364 O379 2.080 . S
C365 O370 1.166 . S
C365 O371 1.182 . S
C366 O372 1.167 . S
C366 O373 1.299 . S
O367 Zn364 2.080 . S
O367 C381 1.305 . S
O368 Zn362 1.920 . S
O368 C381 1.234 . S
C369 O374 1.167 . S
C369 O375 1.299 . S
O370 Zn364 2.114 . S
O370 C365 1.166 . S
O371 Zn363 1.905 . S
O371 C365 1.182 . S
O372 Zn363 1.898 . S
O372 C366 1.167 . S
O373 Zn364 2.120 . S
O373 C366 1.299 . S
O374 Zn362 1.898 . S
O374 C369 1.167 . S
O375 Zn364 2.120 . S
O375 C369 1.299 . S
O376 Zn364 2.114 . S
O376 C378 1.166 . S
O377 Zn362 1.905 . S
O377 C378 1.182 . S
C378 O376 1.166 . S
C378 O377 1.182 . S
O379 Zn364 2.080 . S
O379 C382 1.305 . S
O380 Zn363 1.920 . S
O380 C382 1.234 . S
C381 O367 1.305 . S
C381 O368 1.234 . S
C382 O379 1.305 . S
C382 O380 1.234 . S
Zn383 O389 1.920 . S
Zn383 O395 1.898 . S
Zn383 O398 1.905 . S
Zn384 O392 1.905 1_655 S
Zn384 O393 1.898 . S
Zn384 O401 1.920 . S
Zn385 O388 2.080 1_554 S
Zn385 O391 2.114 . S
Zn385 O394 2.120 1_454 S
Zn385 O396 2.120 . S
Zn385 O397 2.114 1_554 S
Zn385 O400 2.080 . S
C386 O391 1.166 . S
C386 O392 1.182 . S
C387 O393 1.167 1_556 S
C387 O394 1.299 . S
O388 Zn385 2.080 1_556 S
O388 C402 1.305 . S
O389 Zn383 1.920 . S
O389 C402 1.234 . S
C390 O395 1.167 1_554 S
C390 O396 1.299 . S
O391 Zn385 2.114 . S
O391 C386 1.166 . S
O392 Zn384 1.905 1_455 S
O392 C386 1.182 . S
O393 Zn384 1.898 . S
O393 C387 1.167 1_554 S
O394 Zn385 2.120 1_656 S
O394 C387 1.299 . S
O395 Zn383 1.898 . S
O395 C390 1.167 1_556 S
O396 Zn385 2.120 . S
O396 C390 1.299 . S
O397 Zn385 2.114 1_556 S
O397 C399 1.166 . S
O398 Zn383 1.905 . S
O398 C399 1.182 . S
C399 O397 1.166 . S
C399 O398 1.182 . S
O400 Zn385 2.080 . S
O400 C403 1.305 1_455 S
O401 Zn384 1.920 . S
O401 C403 1.234 . S
C402 O388 1.305 . S
C402 O389 1.234 . S
C403 O400 1.305 1_655 S
C403 O401 1.234 . S
C404 C405 1.363 . S
C404 C410 1.379 . S
C404 N412 1.356 . S
C405 C404 1.363 . S
C405 C411 1.363 . S
C406 C407 1.363 . S
C406 C411 1.379 . S
C406 N413 1.356 . S
C407 C406 1.363 . S
C407 C410 1.363 . S
N408 C410 1.356 . S
N408 H420 0.984 . S
N408 H421 0.985 . S
N409 C411 1.356 . S
N409 H414 0.984 . S
N409 H415 0.985 . S
C410 C404 1.379 . S
C410 C407 1.363 . S
C410 N408 1.356 . S
C411 C405 1.363 . S
C411 C406 1.379 . S
C411 N409 1.356 . S
N412 C404 1.356 . S
N412 H418 0.984 . S
N412 H419 0.984 . S
N413 C406 1.356 . S
N413 H416 0.984 . S
N413 H417 0.985 . S
H414 N409 0.984 . S
H415 N409 0.985 . S
H416 N413 0.984 . S
H417 N413 0.985 . S
H418 N412 0.984 . S
H419 N412 0.984 . S
H420 N408 0.984 . S
H421 N408 0.985 . S
C422 C423 1.363 . S
C422 C428 1.379 . S
C422 N430 1.356 . S
C423 C422 1.363 . S
C423 C429 1.363 . S
C424 C425 1.363 . S
C424 C429 1.379 . S
C424 N431 1.356 . S
C425 C424 1.363 . S
C425 C428 1.363 . S
N426 C428 1.356 . S
N426 H438 0.984 . S
N426 H439 0.985 . S
N427 C429 1.356 . S
N427 H432 0.984 . S
N427 H433 0.985 . S
C428 C422 1.379 . S
C428 C425 1.363 . S
C428 N426 1.356 . S
C429 C423 1.363 . S
C429 C424 1.379 . S
C429 N427 1.356 . S
N430 C422 1.356 . S
N430 H436 0.984 . S
N430 H437 0.984 . S
N431 C424 1.356 . S
N431 H434 0.984 . S
N431 H435 0.985 . S
H432 N427 0.984 . S
H433 N427 0.985 . S
H434 N431 0.984 . S
H435 N431 0.985 . S
H436 N430 0.984 . S
H437 N430 0.984 . S
H438 N426 0.984 . S
H439 N426 0.985 . S
C440 C441 1.363 . S
C440 C446 1.379 . S
C440 N448 1.356 . S
C441 C440 1.363 . S
C441 C447 1.363 . S
C442 C443 1.363 . S
C442 C447 1.379 . S
C442 N449 1.356 . S
C443 C442 1.363 . S
C443 C446 1.363 . S
N444 C446 1.356 . S
N444 H456 0.984 . S
N444 H457 0.985 . S
N445 C447 1.356 . S
N445 H450 0.984 . S
N445 H451 0.985 . S
C446 C440 1.379 . S
C446 C443 1.363 . S
C446 N444 1.356 . S
C447 C441 1.363 . S
C447 C442 1.379 . S
C447 N445 1.356 . S
N448 C440 1.356 . S
N448 H454 0.984 . S
N448 H455 0.984 . S
N449 C442 1.356 . S
N449 H452 0.984 . S
N449 H453 0.985 . S
H450 N445 0.984 . S
H451 N445 0.985 . S
H452 N449 0.984 . S
H453 N449 0.985 . S
H454 N448 0.984 . S
H455 N448 0.984 . S
H456 N444 0.984 . S
H457 N444 0.985 . S
C458 C459 1.363 . S
C458 C464 1.379 . S
C458 N466 1.356 . S
C459 C458 1.363 . S
C459 C465 1.363 . S
C460 C461 1.363 . S
C460 C465 1.379 . S
C460 N467 1.356 . S
C461 C460 1.363 . S
C461 C464 1.363 . S
N462 C464 1.356 . S
N462 H474 0.984 . S
N462 H475 0.985 . S
N463 C465 1.356 . S
N463 H468 0.984 . S
N463 H469 0.985 . S
C464 C458 1.379 . S
C464 C461 1.363 . S
C464 N462 1.356 . S
C465 C459 1.363 . S
C465 C460 1.379 . S
C465 N463 1.356 . S
N466 C458 1.356 . S
N466 H472 0.984 . S
N466 H473 0.984 . S
N467 C460 1.356 . S
N467 H470 0.984 . S
N467 H471 0.985 . S
H468 N463 0.984 . S
H469 N463 0.985 . S
H470 N467 0.984 . S
H471 N467 0.985 . S
H472 N466 0.984 . S
H473 N466 0.984 . S
H474 N462 0.984 . S
H475 N462 0.985 . S
C476 C477 1.363 . S
C476 C482 1.379 . S
C476 N484 1.356 . S
C477 C476 1.363 . S
C477 C483 1.363 . S
C478 C479 1.363 . S
C478 C483 1.379 . S
C478 N485 1.356 . S
C479 C478 1.363 . S
C479 C482 1.363 . S
N480 C482 1.356 . S
N480 H492 0.984 1_545 S
N480 H493 0.985 . S
N481 C483 1.356 . S
N481 H486 0.984 . S
N481 H487 0.985 . S
C482 C476 1.379 . S
C482 C479 1.363 . S
C482 N480 1.356 . S
C483 C477 1.363 . S
C483 C478 1.379 . S
C483 N481 1.356 . S
N484 C476 1.356 . S
N484 H490 0.984 . S
N484 H491 0.984 . S
N485 C478 1.356 . S
N485 H488 0.984 . S
N485 H489 0.985 . S
H486 N481 0.984 . S
H487 N481 0.985 . S
H488 N485 0.984 . S
H489 N485 0.985 . S
H490 N484 0.984 . S
H491 N484 0.984 . S
H492 N480 0.984 1_565 S
H493 N480 0.985 . S
C494 C495 1.363 . S
C494 C500 1.379 . S
C494 N502 1.356 . S
C495 C494 1.363 . S
C495 C501 1.363 . S
C496 C497 1.363 . S
C496 C501 1.379 . S
C496 N503 1.356 . S
C497 C496 1.363 . S
C497 C500 1.363 . S
N498 C500 1.356 1_545 S
N498 H510 0.984 . S
N498 H511 0.985 . S
N499 C501 1.356 . S
N499 H504 0.984 . S
N499 H505 0.985 . S
C500 C494 1.379 . S
C500 C497 1.363 . S
C500 N498 1.356 1_565 S
C501 C495 1.363 . S
C501 C496 1.379 . S
C501 N499 1.356 . S
N502 C494 1.356 . S
N502 H508 0.984 1_565 S
N502 H509 0.984 . S
N503 C496 1.356 . S
N503 H506 0.984 . S
N503 H507 0.985 . S
H504 N499 0.984 . S
H505 N499 0.985 . S
H506 N503 0.984 . S
H507 N503 0.985 . S
H508 N502 0.984 1_545 S
H509 N502 0.984 . S
H510 N498 0.984 . S
H511 N498 0.985 . S
C512 C513 1.363 . S
C512 C518 1.379 . S
C512 N520 1.356 . S
C513 C512 1.363 . S
C513 C519 1.363 . S
C514 C515 1.363 . S
C514 C519 1.379 . S
C514 N521 1.356 . S
C515 C514 1.363 . S
C515 C518 1.363 . S
N516 C518 1.356 1_554 S
N516 H528 0.984 . S
N516 H529 0.985 . S
N517 C519 1.356 . S
N517 H522 0.984 . S
N517 H523 0.985 . S
C518 C512 1.379 . S
C518 C515 1.363 . S
C518 N516 1.356 1_556 S
C519 C513 1.363 . S
C519 C514 1.379 . S
C519 N517 1.356 . S
N520 C512 1.356 . S
N520 H526 0.984 . S
N520 H527 0.984 . S
N521 C514 1.356 . S
N521 H524 0.984 . S
N521 H525 0.985 . S
H522 N517 0.984 . S
H523 N517 0.985 . S
H524 N521 0.984 . S
H525 N521 0.985 . S
H526 N520 0.984 . S
H527 N520 0.984 . S
H528 N516 0.984 . S
H529 N516 0.985 . S
C530 C531 1.363 . S
C530 C536 1.379 . S
C530 N538 1.356 . S
C531 C530 1.363 . S
C531 C537 1.363 . S
C532 C533 1.363 . S
C532 C537 1.379 . S
C532 N539 1.356 . S
C533 C532 1.363 . S
C533 C536 1.363 . S
N534 C536 1.356 . S
N534 H546 0.984 . S
N534 H547 0.985 . S
N535 C537 1.356 . S
N535 H540 0.984 . S
N535 H541 0.985 . S
C536 C530 1.379 . S
C536 C533 1.363 . S
C536 N534 1.356 . S
C537 C531 1.363 . S
C537 C532 1.379 . S
C537 N535 1.356 . S
N538 C530 1.356 . S
N538 H544 0.984 . S
N538 H545 0.984 . S
N539 C532 1.356 . S
N539 H542 0.984 . S
N539 H543 0.985 . S
H540 N535 0.984 . S
H541 N535 0.985 . S
H542 N539 0.984 . S
H543 N539 0.985 . S
H544 N538 0.984 . S
H545 N538 0.984 . S
H546 N534 0.984 . S
H547 N534 0.985 . S
C548 C549 1.363 . S
C548 C554 1.379 . S
C548 N556 1.356 . S
C549 C548 1.363 . S
C549 C555 1.363 . S
C550 C551 1.363 . S
C550 C555 1.379 . S
C550 N557 1.356 . S
C551 C550 1.363 . S
C551 C554 1.363 . S
N552 C554 1.356 . S
N552 H564 0.984 . S
N552 H565 0.985 . S
N553 C555 1.356 . S
N553 H558 0.984 . S
N553 H559 0.985 . S
C554 C548 1.379 . S
C554 C551 1.363 . S
C554 N552 1.356 . S
C555 C549 1.363 . S
C555 C550 1.379 . S
C555 N553 1.356 . S
N556 C548 1.356 . S
N556 H562 0.984 . S
N556 H563 0.984 . S
N557 C550 1.356 . S
N557 H560 0.984 . S
N557 H561 0.985 1_554 S
H558 N553 0.984 . S
H559 N553 0.985 . S
H560 N557 0.984 . S
H561 N557 0.985 1_556 S
H562 N556 0.984 . S
H563 N556 0.984 . S
H564 N552 0.984 . S
H565 N552 0.985 . S
C566 C567 1.363 . S
C566 C572 1.379 . S
C566 N574 1.356 . S
C567 C566 1.363 . S
C567 C573 1.363 . S
C568 C569 1.363 . S
C568 C573 1.379 . S
C568 N575 1.356 1_556 S
C569 C568 1.363 . S
C569 C572 1.363 . S
N570 C572 1.356 . S
N570 H582 0.984 . S
N570 H583 0.985 . S
N571 C573 1.356 . S
N571 H576 0.984 . S
N571 H577 0.985 . S
C572 C566 1.379 . S
C572 C569 1.363 . S
C572 N570 1.356 . S
C573 C567 1.363 . S
C573 C568 1.379 . S
C573 N571 1.356 . S
N574 C566 1.356 . S
N574 H580 0.984 . S
N574 H581 0.984 . S
N575 C568 1.356 1_554 S
N575 H578 0.984 . S
N575 H579 0.985 . S
H576 N571 0.984 . S
H577 N571 0.985 . S
H578 N575 0.984 . S
H579 N575 0.985 . S
H580 N574 0.984 . S
H581 N574 0.984 . S
H582 N570 0.984 . S
H583 N570 0.985 . S
C584 C585 1.363 . S
C584 C590 1.379 . S
C584 N592 1.356 . S
C585 C584 1.363 . S
C585 C591 1.363 . S
C586 C587 1.363 . S
C586 C591 1.379 . S
C586 N593 1.356 . S
C587 C586 1.363 . S
C587 C590 1.363 . S
N588 C590 1.356 1_455 S
N588 H600 0.984 . S
N588 H601 0.985 . S
N589 C591 1.356 . S
N589 H594 0.984 . S
N589 H595 0.985 . S
C590 C584 1.379 . S
C590 C587 1.363 . S
C590 N588 1.356 1_655 S
C591 C585 1.363 . S
C591 C586 1.379 . S
C591 N589 1.356 . S
N592 C584 1.356 . S
N592 H598 0.984 1_655 S
N592 H599 0.984 . S
N593 C586 1.356 . S
N593 H596 0.984 . S
N593 H597 0.985 . S
H594 N589 0.984 . S
H595 N589 0.985 . S
H596 N593 0.984 . S
H597 N593 0.985 . S
H598 N592 0.984 1_455 S
H599 N592 0.984 . S
H600 N588 0.984 . S
H601 N588 0.985 . S
C602 C603 1.363 . S
C602 C608 1.379 . S
C602 N610 1.356 . S
C603 C602 1.363 . S
C603 C609 1.363 . S
C604 C605 1.363 . S
C604 C609 1.379 . S
C604 N611 1.356 . S
C605 C604 1.363 . S
C605 C608 1.363 . S
N606 C608 1.356 . S
N606 H618 0.984 . S
N606 H619 0.985 . S
N607 C609 1.356 . S
N607 H612 0.984 . S
N607 H613 0.985 . S
C608 C602 1.379 . S
C608 C605 1.363 . S
C608 N606 1.356 . S
C609 C603 1.363 . S
C609 C604 1.379 . S
C609 N607 1.356 . S
N610 C602 1.356 . S
N610 H616 0.984 . S
N610 H617 0.984 . S
N611 C604 1.356 . S
N611 H614 0.984 . S
N611 H615 0.985 . S
H612 N607 0.984 . S
H613 N607 0.985 . S
H614 N611 0.984 . S
H615 N611 0.985 . S
H616 N610 0.984 . S
H617 N610 0.984 . S
H618 N606 0.984 . S
H619 N606 0.985 . S
C620 C621 1.363 1_655 S
C620 C626 1.379 . S
C620 N628 1.356 . S
C621 C620 1.363 1_455 S
C621 C627 1.363 1_545 S
C622 C623 1.363 1_465 S
C622 C627 1.379 . S
C622 N629 1.356 . S
C623 C622 1.363 1_645 S
C623 C626 1.363 . S
N624 C626 1.356 . S
N624 H636 0.984 . S
N624 H637 0.985 . S
N625 C627 1.356 . S
N625 H630 0.984 . S
N625 H631 0.985 . S
C626 C620 1.379 . S
C626 C623 1.363 . S
C626 N624 1.356 . S
C627 C621 1.363 1_565 S
C627 C622 1.379 . S
C627 N625 1.356 . S
N628 C620 1.356 . S
N628 H634 0.984 . S
N628 H635 0.984 . S
N629 C622 1.356 . S
N629 H632 0.984 . S
N629 H633 0.985 . S
H630 N625 0.984 . S
H631 N625 0.985 . S
H632 N629 0.984 . S
H633 N629 0.985 . S
H634 N628 0.984 . S
H635 N628 0.984 . S
H636 N624 0.984 . S
H637 N624 0.985 . S
C638 C639 1.363 1_565 S
C638 C644 1.379 . S
C638 N646 1.356 . S
C639 C638 1.363 1_545 S
C639 C645 1.363 . S
C640 C641 1.363 . S
C640 C645 1.379 . S
C640 N647 1.356 . S
C641 C640 1.363 . S
C641 C644 1.363 1_545 S
N642 C644 1.356 . S
N642 H654 0.984 . S
N642 H655 0.985 . S
N643 C645 1.356 . S
N643 H648 0.984 . S
N643 H649 0.985 . S
C644 C638 1.379 . S
C644 C641 1.363 1_565 S
C644 N642 1.356 . S
C645 C639 1.363 . S
C645 C640 1.379 . S
C645 N643 1.356 . S
N646 C638 1.356 . S
N646 H652 0.984 . S
N646 H653 0.984 . S
N647 C640 1.356 . S
N647 H650 0.984 . S
N647 H651 0.985 . S
H648 N643 0.984 . S
H649 N643 0.985 . S
H650 N647 0.984 . S
H651 N647 0.985 . S
H652 N646 0.984 . S
H653 N646 0.984 . S
H654 N642 0.984 . S
H655 N642 0.985 . S
C656 C657 1.363 . S
C656 C662 1.379 . S
C656 N664 1.356 . S
C657 C656 1.363 . S
C657 C663 1.363 . S
C658 C659 1.363 . S
C658 C663 1.379 . S
C658 N665 1.356 . S
C659 C658 1.363 . S
C659 C662 1.363 . S
N660 C662 1.356 . S
N660 H672 0.984 . S
N660 H673 0.985 . S
N661 C663 1.356 . S
N661 H666 0.984 . S
N661 H667 0.985 . S
C662 C656 1.379 . S
C662 C659 1.363 . S
C662 N660 1.356 . S
C663 C657 1.363 . S
C663 C658 1.379 . S
C663 N661 1.356 . S
N664 C656 1.356 . S
N664 H670 0.984 . S
N664 H671 0.984 . S
N665 C658 1.356 . S
N665 H668 0.984 . S
N665 H669 0.985 . S
H666 N661 0.984 . S
H667 N661 0.985 . S
H668 N665 0.984 . S
H669 N665 0.985 . S
H670 N664 0.984 . S
H671 N664 0.984 . S
H672 N660 0.984 . S
H673 N660 0.985 . S
C674 C675 1.363 . S
C674 C680 1.379 . S
C674 N682 1.356 . S
C675 C674 1.363 . S
C675 C681 1.363 . S
C676 C677 1.363 . S
C676 C681 1.379 . S
C676 N683 1.356 . S
C677 C676 1.363 . S
C677 C680 1.363 . S
N678 C680 1.356 . S
N678 H690 0.984 . S
N678 H691 0.985 . S
N679 C681 1.356 . S
N679 H684 0.984 . S
N679 H685 0.985 1_455 S
C680 C674 1.379 . S
C680 C677 1.363 . S
C680 N678 1.356 . S
C681 C675 1.363 . S
C681 C676 1.379 . S
C681 N679 1.356 . S
N682 C674 1.356 . S
N682 H688 0.984 . S
N682 H689 0.984 . S
N683 C676 1.356 . S
N683 H686 0.984 . S
N683 H687 0.985 . S
H684 N679 0.984 . S
H685 N679 0.985 1_655 S
H686 N683 0.984 . S
H687 N683 0.985 . S
H688 N682 0.984 . S
H689 N682 0.984 . S
H690 N678 0.984 . S
H691 N678 0.985 . S
C692 C693 1.363 . S
C692 C698 1.380 . S
C692 N700 1.356 . S
C693 C692 1.363 . S
C693 C699 1.358 1_544 S
C694 C695 1.363 1_556 S
C694 C699 1.383 . S
C694 N701 1.356 . S
C695 C694 1.363 1_554 S
C695 C698 1.362 1_565 S
N696 C698 1.356 1_565 S
N696 H708 0.984 1_565 S
N696 H709 0.985 . S
N697 C699 1.356 1_545 S
N697 H702 0.989 . S
N697 H703 0.981 1_545 S
C698 C692 1.380 . S
C698 C695 1.362 1_545 S
C698 N696 1.356 1_545 S
C699 C693 1.358 1_566 S
C699 C694 1.383 . S
C699 N697 1.356 1_565 S
N700 C692 1.356 . S
N700 H706 0.984 . S
N700 H707 0.984 . S
N701 C694 1.356 . S
N701 H704 0.984 . S
N701 H705 0.985 . S
H702 N697 0.989 . S
H703 N697 0.981 1_565 S
H704 N701 0.984 . S
H705 N701 0.985 . S
H706 N700 0.984 . S
H707 N700 0.984 . S
H708 N696 0.984 1_545 S
H709 N696 0.985 . S
C710 C711 1.363 . S
C710 C716 1.379 . S
C710 N718 1.356 1_545 S
C711 C710 1.363 . S
C711 C717 1.363 . S
C712 C713 1.363 . S
C712 C717 1.379 . S
C712 N719 1.356 . S
C713 C712 1.363 . S
C713 C716 1.363 . S
N714 C716 1.356 1_565 S
N714 H726 0.984 . S
N714 H727 0.985 1_565 S
N715 C717 1.356 . S
N715 H720 0.984 . S
N715 H721 0.985 . S
C716 C710 1.379 . S
C716 C713 1.363 . S
C716 N714 1.356 1_545 S
C717 C711 1.363 . S
C717 C712 1.379 . S
C717 N715 1.356 . S
N718 C710 1.356 1_565 S
N718 H724 0.984 . S
N718 H725 0.984 . S
N719 C712 1.356 . S
N719 H722 0.984 . S
N719 H723 0.985 . S
H720 N715 0.984 . S
H721 N715 0.985 . S
H722 N719 0.984 . S
H723 N719 0.985 . S
H724 N718 0.984 . S
H725 N718 0.984 . S
H726 N714 0.984 . S
H727 N714 0.985 1_545 S
C728 C729 1.363 . S
C728 C734 1.379 . S
C728 N736 1.356 . S
C729 C728 1.363 . S
C729 C735 1.363 . S
C730 C731 1.363 . S
C730 C735 1.379 . S
C730 N737 1.356 . S
C731 C730 1.363 . S
C731 C734 1.363 . S
N732 C734 1.356 . S
N732 H744 0.984 . S
N732 H745 0.985 . S
N733 C735 1.356 . S
N733 H738 0.984 . S
N733 H739 0.985 . S
C734 C728 1.379 . S
C734 C731 1.363 . S
C734 N732 1.356 . S
C735 C729 1.363 . S
C735 C730 1.379 . S
C735 N733 1.356 . S
N736 C728 1.356 . S
N736 H742 0.984 . S
N736 H743 0.984 . S
N737 C730 1.356 . S
N737 H740 0.984 . S
N737 H741 0.985 . S
H738 N733 0.984 . S
H739 N733 0.985 . S
H740 N737 0.984 . S
H741 N737 0.985 . S
H742 N736 0.984 . S
H743 N736 0.984 . S
H744 N732 0.984 . S
H745 N732 0.985 . S
C746 C747 1.363 . S
C746 C752 1.379 . S
C746 N754 1.356 . S
C747 C746 1.363 . S
C747 C753 1.363 . S
C748 C749 1.363 . S
C748 C753 1.379 . S
C748 N755 1.356 . S
C749 C748 1.363 . S
C749 C752 1.363 . S
N750 C752 1.356 . S
N750 H762 0.984 . S
N750 H763 0.985 . S
N751 C753 1.356 . S
N751 H756 0.984 . S
N751 H757 0.985 . S
C752 C746 1.379 . S
C752 C749 1.363 . S
C752 N750 1.356 . S
C753 C747 1.363 . S
C753 C748 1.379 . S
C753 N751 1.356 . S
N754 C746 1.356 . S
N754 H760 0.984 . S
N754 H761 0.984 . S
N755 C748 1.356 . S
N755 H758 0.984 . S
N755 H759 0.985 . S
H756 N751 0.984 . S
H757 N751 0.985 . S
H758 N755 0.984 . S
H759 N755 0.985 . S
H760 N754 0.984 . S
H761 N754 0.984 . S
H762 N750 0.984 . S
H763 N750 0.985 . S
C764 C765 1.363 . S
C764 C770 1.379 . S
C764 N772 1.356 1_455 S
C765 C764 1.363 . S
C765 C771 1.363 1_556 S
C766 C767 1.363 1_554 S
C766 C771 1.379 . S
C766 N773 1.356 . S
C767 C766 1.363 1_556 S
C767 C770 1.363 . S
N768 C770 1.356 1_655 S
N768 H780 0.984 . S
N768 H781 0.985 . S
N769 C771 1.356 . S
N769 H774 0.984 . S
N769 H775 0.985 . S
C770 C764 1.379 . S
C770 C767 1.363 . S
C770 N768 1.356 1_455 S
C771 C765 1.363 1_554 S
C771 C766 1.379 . S
C771 N769 1.356 . S
N772 C764 1.356 1_655 S
N772 H778 0.984 . S
N772 H779 0.977 1_655 S
N773 C766 1.356 . S
N773 H776 0.984 . S
N773 H777 0.985 . S
H774 N769 0.984 . S
H775 N769 0.985 . S
H776 N773 0.984 . S
H777 N773 0.985 . S
H778 N772 0.984 . S
H779 N772 0.977 1_455 S
H780 N768 0.984 . S
H781 N768 0.985 . S
C782 C783 1.363 . S
C782 C788 1.379 . S
C782 N790 1.356 . S
C783 C782 1.363 . S
C783 C789 1.363 . S
C784 C785 1.363 . S
C784 C789 1.379 . S
C784 N791 1.356 . S
C785 C784 1.363 . S
C785 C788 1.363 . S
N786 C788 1.356 . S
N786 H798 0.984 . S
N786 H799 0.985 . S
N787 C789 1.356 . S
N787 H792 0.984 . S
N787 H793 0.985 . S
C788 C782 1.379 . S
C788 C785 1.363 . S
C788 N786 1.356 . S
C789 C783 1.363 . S
C789 C784 1.379 . S
C789 N787 1.356 . S
N790 C782 1.356 . S
N790 H796 0.984 . S
N790 H797 0.984 . S
N791 C784 1.356 . S
N791 H794 0.984 . S
N791 H795 0.985 . S
H792 N787 0.984 . S
H793 N787 0.985 . S
H794 N791 0.984 . S
H795 N791 0.985 . S
H796 N790 0.984 . S
H797 N790 0.984 . S
H798 N786 0.984 . S
H799 N786 0.985 . S
C800 C801 1.363 . S
C800 C806 1.379 . S
C800 N808 1.356 . S
C801 C800 1.363 . S
C801 C807 1.363 . S
C802 C803 1.363 . S
C802 C807 1.379 . S
C802 N809 1.356 1_455 S
C803 C802 1.363 . S
C803 C806 1.363 . S
N804 C806 1.356 . S
N804 H816 0.984 . S
N804 H817 0.985 . S
N805 C807 1.356 1_655 S
N805 H810 0.984 . S
N805 H811 0.985 . S
C806 C800 1.379 . S
C806 C803 1.363 . S
C806 N804 1.356 . S
C807 C801 1.363 . S
C807 C802 1.379 . S
C807 N805 1.356 1_455 S
N808 C800 1.356 . S
N808 H814 0.984 . S
N808 H815 0.984 . S
N809 C802 1.356 1_655 S
N809 H812 0.984 . S
N809 H813 0.985 . S
H810 N805 0.984 . S
H811 N805 0.985 . S
H812 N809 0.984 . S
H813 N809 0.985 . S
H814 N808 0.984 . S
H815 N808 0.984 . S
H816 N804 0.984 . S
H817 N804 0.985 . S
C818 C819 1.363 . S
C818 C824 1.379 . S
C818 N826 1.356 . S
C819 C818 1.363 . S
C819 C825 1.363 . S
C820 C821 1.363 . S
C820 C825 1.379 . S
C820 N827 1.356 . S
C821 C820 1.363 . S
C821 C824 1.363 . S
N822 C824 1.356 . S
N822 H834 0.984 . S
N822 H835 0.985 . S
N823 C825 1.356 . S
N823 H828 0.984 . S
N823 H829 0.985 . S
C824 C818 1.379 . S
C824 C821 1.363 . S
C824 N822 1.356 . S
C825 C819 1.363 . S
C825 C820 1.379 . S
C825 N823 1.356 . S
N826 C818 1.356 . S
N826 H832 0.984 . S
N826 H833 0.984 . S
N827 C820 1.356 . S
N827 H830 0.984 . S
N827 H831 0.985 . S
H828 N823 0.984 . S
H829 N823 0.985 . S
H830 N827 0.984 . S
H831 N827 0.985 . S
H832 N826 0.984 . S
H833 N826 0.984 . S
H834 N822 0.984 . S
H835 N822 0.985 . S
C405 C21 1.555 . S
C407 C323 1.467 . S
C423 C61 1.523 . S
C425 C357 1.429 . S
C443 C369 1.356 . S
C441 C82 1.439 . S
C459 C135 1.520 . S
C461 C403 1.430 . S
C479 C360 1.433 . S
C477 C15 1.534 . S
C497 C340 1.444 . S
C495 C42 1.518 . S
C515 C387 1.404 . S
C513 C101 1.486 . S
C533 C378 1.394 . S
C531 C122 1.474 . S
C549 C2 1.550 . S
C551 C386 1.450 . S
C569 C348 1.378 . S
C567 C95 1.466 . S
C585 C141 1.515 . S
C587 C324 1.415 . S
C603 C55 1.507 . S
C605 C381 1.406 . S
C623 C339 1.803 . S
C621 C181 1.765 . S
C639 C202 1.734 . S
C641 C361 1.763 . S
C657 C255 1.828 . S
C659 C366 1.787 . S
C675 C295 1.844 . S
C677 C399 1.787 . S
C693 C175 1.833 . S
C695 C344 1.804 . S
C713 C336 1.820 . S
C711 C221 1.778 . S
C731 C390 1.770 . S
C729 C242 1.733 . S
C749 C382 1.796 . S
C747 C301 1.930 . S
C765 C162 1.721 . S
C767 C402 1.751 . S
C785 C345 1.796 . S
C783 C261 1.750 . S
C803 C327 1.777 . S
C801 C282 1.885 . S
C819 C215 1.848 . S
C821 C365 1.811 . S
