# Generated by pormake.
# Topology ctn, (3,4)-cn, num edge types: 1
# Building blocks:
#     Node 0, Type 0, BuildingBlock: OLANEW_clean_sbu_2, # of connection points: 3
#     Node 1, Type 0, BuildingBlock: OLANEW_clean_sbu_2, # of connection points: 3
#     Node 2, Type 0, BuildingBlock: OLANEW_clean_sbu_2, # of connection points: 3
#     Node 3, Type 0, BuildingBlock: OLANEW_clean_sbu_2, # of connection points: 3
#     Node 4, Type 0, BuildingBlock: OLANEW_clean_sbu_2, # of connection points: 3
#     Node 5, Type 0, BuildingBlock: OLANEW_clean_sbu_2, # of connection points: 3
#     Node 6, Type 0, BuildingBlock: OLANEW_clean_sbu_2, # of connection points: 3
#     Node 7, Type 0, BuildingBlock: OLANEW_clean_sbu_2, # of connection points: 3
#     Node 8, Type 0, BuildingBlock: OLANEW_clean_sbu_2, # of connection points: 3
#     Node 9, Type 0, BuildingBlock: OLANEW_clean_sbu_2, # of connection points: 3
#     Node 10, Type 0, BuildingBlock: OLANEW_clean_sbu_2, # of connection points: 3
#     Node 11, Type 0, BuildingBlock: OLANEW_clean_sbu_2, # of connection points: 3
#     Node 12, Type 0, BuildingBlock: OLANEW_clean_sbu_2, # of connection points: 3
#     Node 13, Type 0, BuildingBlock: OLANEW_clean_sbu_2, # of connection points: 3
#     Node 14, Type 0, BuildingBlock: OLANEW_clean_sbu_2, # of connection points: 3
#     Node 15, Type 0, BuildingBlock: OLANEW_clean_sbu_2, # of connection points: 3
#     Node 16, Type 1, BuildingBlock: TATPOV_clean_sbu_0, # of connection points: 4
#     Node 17, Type 1, BuildingBlock: TATPOV_clean_sbu_0, # of connection points: 4
#     Node 18, Type 1, BuildingBlock: TATPOV_clean_sbu_0, # of connection points: 4
#     Node 19, Type 1, BuildingBlock: TATPOV_clean_sbu_0, # of connection points: 4
#     Node 20, Type 1, BuildingBlock: TATPOV_clean_sbu_0, # of connection points: 4
#     Node 21, Type 1, BuildingBlock: TATPOV_clean_sbu_0, # of connection points: 4
#     Node 22, Type 1, BuildingBlock: TATPOV_clean_sbu_0, # of connection points: 4
#     Node 23, Type 1, BuildingBlock: TATPOV_clean_sbu_0, # of connection points: 4
#     Node 24, Type 1, BuildingBlock: TATPOV_clean_sbu_0, # of connection points: 4
#     Node 25, Type 1, BuildingBlock: TATPOV_clean_sbu_0, # of connection points: 4
#     Node 26, Type 1, BuildingBlock: TATPOV_clean_sbu_0, # of connection points: 4
#     Node 27, Type 1, BuildingBlock: TATPOV_clean_sbu_0, # of connection points: 4
#     Edge 28, Type (0, 1), None
#     Edge 29, Type (0, 1), None
#     Edge 30, Type (0, 1), None
#     Edge 31, Type (0, 1), None
#     Edge 32, Type (0, 1), None
#     Edge 33, Type (0, 1), None
#     Edge 34, Type (0, 1), None
#     Edge 35, Type (0, 1), None
#     Edge 36, Type (0, 1), None
#     Edge 37, Type (0, 1), None
#     Edge 38, Type (0, 1), None
#     Edge 39, Type (0, 1), None
#     Edge 40, Type (0, 1), None
#     Edge 41, Type (0, 1), None
#     Edge 42, Type (0, 1), None
#     Edge 43, Type (0, 1), None
#     Edge 44, Type (0, 1), None
#     Edge 45, Type (0, 1), None
#     Edge 46, Type (0, 1), None
#     Edge 47, Type (0, 1), None
#     Edge 48, Type (0, 1), None
#     Edge 49, Type (0, 1), None
#     Edge 50, Type (0, 1), None
#     Edge 51, Type (0, 1), None
#     Edge 52, Type (0, 1), None
#     Edge 53, Type (0, 1), None
#     Edge 54, Type (0, 1), None
#     Edge 55, Type (0, 1), None
#     Edge 56, Type (0, 1), None
#     Edge 57, Type (0, 1), None
#     Edge 58, Type (0, 1), None
#     Edge 59, Type (0, 1), None
#     Edge 60, Type (0, 1), None
#     Edge 61, Type (0, 1), None
#     Edge 62, Type (0, 1), None
#     Edge 63, Type (0, 1), None
#     Edge 64, Type (0, 1), None
#     Edge 65, Type (0, 1), None
#     Edge 66, Type (0, 1), None
#     Edge 67, Type (0, 1), None
#     Edge 68, Type (0, 1), None
#     Edge 69, Type (0, 1), None
#     Edge 70, Type (0, 1), None
#     Edge 71, Type (0, 1), None
#     Edge 72, Type (0, 1), None
#     Edge 73, Type (0, 1), None
#     Edge 74, Type (0, 1), None
#     Edge 75, Type (0, 1), None
# Relax obj value: 0.077
# Max RMSD: 0.168
# Mean RMSD: 0.090
data_MOF--net-ctn--node1-OLANEW_clean_sbu_2--node2-TATPOV_clean_sbu_0--edge1-none
_symmetry_space_group_name_H-M    P1
_symmetry_Int_Tables_number       1
_symmetry_cell_setting            triclinic
loop_
_symmetry_equiv_pos_as_xyz
'x, y, z'
_cell_length_a     26.882737
_cell_length_b     27.420195
_cell_length_c     25.773198
_cell_angle_alpha  91.924041
_cell_angle_beta   98.890503
_cell_angle_gamma 99.808345
loop_
_atom_site_label
_atom_site_type_symbol
_atom_site_fract_x
_atom_site_fract_y
_atom_site_fract_z
_atom_type_partial_charge
O0 O 0.11763 0.13564 0.98967 0.0
Cd1 Cd 0.1035 0.04529 0.00066 0.0
O2 O 0.04576 0.1315 0.02008 0.0
Cd3 Cd 0.97714 0.1455 0.05051 0.0
O4 O 0.92316 0.11663 0.10332 0.0
C5 C 0.88473 0.08246 0.08788 0.0
O6 O 0.87455 0.06609 0.03825 0.0
C7 C 0.08208 0.15724 0.00122 0.0
C8 C 0.18461 0.99268 0.01864 0.0
O9 O 0.16715 1.00339 0.97208 0.0
O10 O 0.16569 0.00877 0.05718 0.0
O11 O 0.34743 0.82759 0.37875 0.0
Cd12 Cd 0.25805 0.80278 0.33608 0.0
O13 O 0.36437 0.75186 0.38465 0.0
Cd14 Cd 0.28573 0.71697 0.3557 0.0
O15 O 0.21565 0.6624 0.34382 0.0
C16 C 0.21955 0.618 0.33227 0.0
O17 O 0.26427 0.60771 0.32595 0.0
C18 C 0.37894 0.79845 0.39111 0.0
C19 C 0.25876 0.81211 0.22917 0.0
O20 O 0.24863 0.8475 0.25719 0.0
O21 O 0.26587 0.77205 0.25106 0.0
O22 O 0.93934 0.51487 0.26268 0.0
Cd23 Cd 0.86973 0.55635 0.22372 0.0
O24 O 0.98885 0.52533 0.20205 0.0
Cd25 Cd 0.05169 0.50287 0.16877 0.0
O26 O 0.06643 0.46303 0.1003 0.0
C27 C 0.06464 0.41642 0.09597 0.0
O28 O 0.05881 0.38968 0.13665 0.0
C29 C 0.97936 0.508 0.2451 0.0
C30 C 0.85745 0.58011 0.11851 0.0
O31 O 0.8712 0.61449 0.15534 0.0
O32 O 0.85173 0.53496 0.13111 0.0
O33 O 0.73763 0.88687 0.14321 0.0
Cd34 Cd 0.66602 0.82132 0.10349 0.0
O35 O 0.72314 0.8474 0.21282 0.0
Cd36 Cd 0.72043 0.83398 0.29563 0.0
O37 O 0.67107 0.82253 0.35579 0.0
C38 C 0.63869 0.85143 0.35093 0.0
O39 O 0.64037 0.8835 0.31421 0.0
C40 C 0.7468 0.88445 0.19278 0.0
C41 C 0.69213 0.73017 0.0796 0.0
O42 O 0.68559 0.76129 0.04426 0.0
O43 O 0.68696 0.74209 0.12669 0.0
O44 O 0.19239 0.93223 0.43092 0.0
Cd45 Cd 0.1352 0.85267 0.42189 0.0
O46 O 0.12611 0.96818 0.43107 0.0
Cd47 Cd 0.07583 0.02251 0.42922 0.0
O48 O 0.99461 0.02004 0.40019 0.0
C49 C 0.98019 0.02246 0.35117 0.0
O50 O 0.01455 0.03018 0.31985 0.0
C51 C 0.17418 0.97174 0.43398 0.0
C52 C 0.07877 0.83511 0.50372 0.0
O53 O 0.12635 0.83225 0.50971 0.0
O54 O 0.05764 0.84767 0.45935 0.0
O55 O 0.24646 0.73278 0.93273 0.0
Cd56 Cd 0.20344 0.69291 0.84748 0.0
O57 O 0.21036 0.79594 0.91062 0.0
Cd58 Cd 0.1862 0.86761 0.90596 0.0
O59 O 0.13573 0.87256 0.83195 0.0
C60 C 0.14231 0.84437 0.79431 0.0
O61 O 0.17961 0.81878 0.8017 0.0
C62 C 0.23876 0.77593 0.94431 0.0
C63 C 0.25126 0.61667 0.81814 0.0
O64 O 0.26144 0.6595 0.7999 0.0
O65 O 0.21841 0.60993 0.84944 0.0
O66 O 0.05377 0.47244 0.51625 0.0
Cd67 Cd 0.03524 0.49927 0.60075 0.0
O68 O 0.1293 0.51827 0.51587 0.0
Cd69 Cd 0.12267 0.55536 0.58982 0.0
O70 O 0.09182 0.61561 0.62271 0.0
C71 C 0.04867 0.62173 0.59847 0.0
O72 O 0.02519 0.5903 0.55918 0.0
C73 C 0.09236 0.4853 0.49384 0.0
C74 C 0.94078 0.44188 0.60394 0.0
O75 O 0.94335 0.48585 0.58798 0.0
O76 O 0.98244 0.42668 0.62104 0.0
O77 O 0.84147 0.71257 0.83836 0.0
Cd78 Cd 0.8425 0.78414 0.78339 0.0
O79 O 0.76957 0.72746 0.86123 0.0
Cd80 Cd 0.75537 0.78856 0.81227 0.0
O81 O 0.70853 0.84623 0.80189 0.0
C82 C 0.66074 0.83295 0.80115 0.0
O83 O 0.64177 0.78565 0.80234 0.0
C84 C 0.80554 0.70245 0.86512 0.0
C85 C 0.90442 0.78055 0.70693 0.0
O86 O 0.92321 0.79933 0.75346 0.0
O87 O 0.85627 0.76373 0.69621 0.0
O88 O 0.34147 0.21257 0.33837 0.0
Cd89 Cd 0.34249 0.28414 0.28339 0.0
O90 O 0.26955 0.22745 0.36123 0.0
Cd91 Cd 0.25535 0.28855 0.31227 0.0
O92 O 0.20851 0.34622 0.30188 0.0
C93 C 0.16072 0.33294 0.30114 0.0
O94 O 0.14175 0.28564 0.30232 0.0
C95 C 0.30553 0.20244 0.36512 0.0
C96 C 0.4044 0.28055 0.20693 0.0
O97 O 0.4232 0.29933 0.25346 0.0
O98 O 0.35626 0.26373 0.19622 0.0
O99 O 0.43934 0.01485 0.76269 0.0
Cd100 Cd 0.3697 0.05628 0.72371 0.0
O101 O 0.48884 0.02531 0.70205 0.0
Cd102 Cd 0.55168 1.00286 0.66877 0.0
O103 O 0.56642 0.96303 0.60029 0.0
C104 C 0.56462 0.91641 0.59596 0.0
O105 O 0.5588 0.88967 0.63664 0.0
C106 C 0.47935 0.00799 0.74511 0.0
C107 C 0.35745 0.08009 0.61851 0.0
O108 O 0.37113 0.11446 0.65536 0.0
O109 O 0.35177 0.03493 0.63108 0.0
O110 O 0.23762 0.38687 0.64321 0.0
Cd111 Cd 0.16601 0.3213 0.6035 0.0
O112 O 0.22314 0.34739 0.71282 0.0
Cd113 Cd 0.22044 0.33397 0.79563 0.0
O114 O 0.17108 0.32253 0.85579 0.0
C115 C 0.1387 0.35143 0.85094 0.0
O116 O 0.14038 0.3835 0.81422 0.0
C117 C 0.24679 0.38444 0.69278 0.0
C118 C 0.19213 0.23015 0.5796 0.0
O119 O 0.18559 0.26128 0.54427 0.0
O120 O 0.18696 0.24208 0.6267 0.0
O121 O 0.84745 0.32759 0.87876 0.0
Cd122 Cd 0.75806 0.30278 0.83609 0.0
O123 O 0.86438 0.25186 0.88467 0.0
Cd124 Cd 0.78574 0.21698 0.85572 0.0
O125 O 0.71566 0.16241 0.84384 0.0
C126 C 0.71955 0.11801 0.83227 0.0
O127 O 0.76428 0.10772 0.82595 0.0
C128 C 0.87895 0.29845 0.89112 0.0
C129 C 0.75877 0.31211 0.72919 0.0
O130 O 0.74864 0.3475 0.7572 0.0
O131 O 0.76588 0.27205 0.75108 0.0
O132 O 0.61761 0.63563 0.48969 0.0
Cd133 Cd 0.60348 0.54528 0.50072 0.0
O134 O 0.54574 0.6315 0.52009 0.0
Cd135 Cd 0.47711 0.64551 0.55051 0.0
O136 O 0.42314 0.61664 0.60332 0.0
C137 C 0.38471 0.58246 0.58788 0.0
O138 O 0.37454 0.56608 0.53825 0.0
C139 C 0.58206 0.65724 0.50123 0.0
C140 C 0.68459 0.49267 0.51866 0.0
O141 O 0.6671 0.50336 0.47211 0.0
O142 O 0.66569 0.50878 0.55721 0.0
O143 O 0.69239 0.43224 0.93093 0.0
Cd144 Cd 0.63518 0.35268 0.9219 0.0
O145 O 0.62611 0.46819 0.93107 0.0
Cd146 Cd 0.57583 0.52252 0.92921 0.0
O147 O 0.49461 0.52004 0.90018 0.0
C148 C 0.48019 0.52246 0.85116 0.0
O149 O 0.51454 0.53019 0.81984 0.0
C150 C 0.67418 0.47175 0.93398 0.0
C151 C 0.57876 0.33512 0.00373 0.0
O152 O 0.62634 0.33227 0.00972 0.0
O153 O 0.55763 0.34768 0.95935 0.0
O154 O 0.74646 0.23279 0.43273 0.0
Cd155 Cd 0.70346 0.19292 0.34747 0.0
O156 O 0.71035 0.29594 0.41062 0.0
Cd157 Cd 0.68618 0.36761 0.40598 0.0
O158 O 0.63571 0.37256 0.33197 0.0
C159 C 0.64229 0.34438 0.29432 0.0
O160 O 0.6796 0.31878 0.30171 0.0
C161 C 0.73876 0.27593 0.44431 0.0
C162 C 0.75128 0.11668 0.31813 0.0
O163 O 0.76146 0.15951 0.29989 0.0
O164 O 0.71842 0.10994 0.34943 0.0
O165 O 0.55379 0.97245 0.01626 0.0
Cd166 Cd 0.53525 0.99928 0.10075 0.0
O167 O 0.62931 0.01829 0.01587 0.0
Cd168 Cd 0.62267 0.05538 0.08982 0.0
O169 O 0.59182 0.11563 0.12271 0.0
C170 C 0.54867 0.12174 0.09848 0.0
O171 O 0.52518 0.09031 0.05919 0.0
C172 C 0.59237 0.98532 0.99385 0.0
C173 C 0.44079 0.94189 0.10394 0.0
O174 O 0.44336 0.98585 0.08798 0.0
O175 O 0.48245 0.92669 0.12104 0.0
Zn176 Zn 0.32718 0.81211 0.09477 0.0
Zn177 Zn 0.27536 0.88661 0.0809 0.0
O178 O 0.26069 0.85791 0.15206 0.0
O179 O 0.29534 0.79052 0.15699 0.0
O180 O 0.23151 0.94037 0.07084 0.0
O181 O 0.39231 0.86259 0.10631 0.0
O182 O 0.34967 0.92348 0.08732 0.0
C183 C 0.26995 0.81951 0.17585 0.0
C184 C 0.2632 0.80087 0.99543 0.0
O185 O 0.25033 0.84037 0.01249 0.0
O186 O 0.29655 0.78124 0.02319 0.0
C187 C 0.22275 0.95984 0.02696 0.0
O188 O 0.24361 0.94614 0.9873 0.0
C189 C 0.39181 0.90805 0.09976 0.0
Zn190 Zn 0.04416 0.40642 0.34477 0.0
Zn191 Zn 0.12329 0.47904 0.33229 0.0
O192 O 0.11871 0.48883 0.41027 0.0
O193 O 0.05674 0.42836 0.42206 0.0
O194 O 0.18114 0.53321 0.3241 0.0
O195 O 0.08383 0.35623 0.31808 0.0
O196 O 0.14908 0.41592 0.3138 0.0
C197 C 0.09063 0.46549 0.44009 0.0
C198 C 0.0144 0.47995 0.27515 0.0
O199 O 0.06226 0.49671 0.28291 0.0
O200 O 0.99634 0.44195 0.29734 0.0
C201 C 0.1758 0.57794 0.33112 0.0
O202 O 0.13222 0.58775 0.34189 0.0
C203 C 0.12907 0.37018 0.30942 0.0
Zn204 Zn 0.8174 0.5751 0.95212 0.0
Zn205 Zn 0.74724 0.62128 0.99227 0.0
O206 O 0.79933 0.61111 0.05619 0.0
O207 O 0.85617 0.57296 0.02655 0.0
O208 O 0.70817 0.67076 0.01884 0.0
O209 O 0.83377 0.63104 0.90246 0.0
O210 O 0.77202 0.66002 0.93309 0.0
C211 C 0.83911 0.59131 0.06451 0.0
C212 C 0.70975 0.51927 0.94274 0.0
O213 O 0.69836 0.55644 0.96632 0.0
O214 O 0.75464 0.52017 0.93252 0.0
C215 C 0.70861 0.68356 0.06675 0.0
O216 O 0.73028 0.65918 0.10426 0.0
C217 C 0.80439 0.66261 0.90186 0.0
Zn218 Zn 0.81743 0.98587 0.32327 0.0
Zn219 Zn 0.84393 0.03211 0.23613 0.0
O220 O 0.80327 0.07963 0.26739 0.0
O221 O 0.77632 0.03968 0.33369 0.0
O222 O 0.87067 0.06795 0.17527 0.0
O223 O 0.89253 0.997 0.35656 0.0
O224 O 0.91184 0.02828 0.28304 0.0
C225 C 0.77791 0.07662 0.3054 0.0
C226 C 0.77917 0.92613 0.22628 0.0
O227 O 0.79952 0.96471 0.20558 0.0
O228 O 0.78336 0.92477 0.27583 0.0
C229 C 0.85558 0.0574 0.12633 0.0
O230 O 0.81743 0.02065 0.11056 0.0
C231 C 0.92558 0.01564 0.32938 0.0
Zn232 Zn 0.3174 0.0751 0.45212 0.0
Zn233 Zn 0.24724 0.12127 0.49228 0.0
O234 O 0.29933 0.11111 0.5562 0.0
O235 O 0.35617 0.07295 0.52655 0.0
O236 O 0.20817 0.17074 0.51884 0.0
O237 O 0.33377 0.13104 0.40246 0.0
O238 O 0.27202 0.16002 0.43309 0.0
C239 C 0.33911 0.0913 0.56452 0.0
C240 C 0.20975 0.01926 0.44273 0.0
O241 O 0.19836 0.05643 0.46633 0.0
O242 O 0.25464 0.02016 0.43251 0.0
C243 C 0.20861 0.18355 0.56675 0.0
O244 O 0.23028 0.15918 0.60427 0.0
C245 C 0.30439 0.16261 0.40187 0.0
Zn246 Zn 0.31743 0.48586 0.82327 0.0
Zn247 Zn 0.34392 0.53211 0.73612 0.0
O248 O 0.30326 0.57962 0.76739 0.0
O249 O 0.27631 0.53967 0.8337 0.0
O250 O 0.37064 0.56795 0.67526 0.0
O251 O 0.39252 0.497 0.85656 0.0
O252 O 0.41183 0.52828 0.78304 0.0
C253 C 0.27789 0.57661 0.8054 0.0
C254 C 0.27916 0.42613 0.72628 0.0
O255 O 0.29951 0.46471 0.70558 0.0
O256 O 0.28336 0.42476 0.77583 0.0
C257 C 0.35556 0.55739 0.62633 0.0
O258 O 0.31742 0.52064 0.61056 0.0
C259 C 0.42557 0.51564 0.82938 0.0
Zn260 Zn 0.82718 0.3121 0.59477 0.0
Zn261 Zn 0.77535 0.3866 0.58091 0.0
O262 O 0.76069 0.35791 0.65207 0.0
O263 O 0.79534 0.29051 0.65699 0.0
O264 O 0.7315 0.44036 0.57086 0.0
O265 O 0.89231 0.36258 0.60632 0.0
O266 O 0.84966 0.42348 0.58732 0.0
C267 C 0.76995 0.3195 0.67586 0.0
C268 C 0.76319 0.30087 0.49543 0.0
O269 O 0.75032 0.34036 0.5125 0.0
O270 O 0.79654 0.28124 0.52319 0.0
C271 C 0.72272 0.45982 0.52698 0.0
O272 O 0.74357 0.44612 0.4873 0.0
C273 C 0.8918 0.40804 0.59976 0.0
Zn274 Zn 0.54418 0.90642 0.84479 0.0
Zn275 Zn 0.6233 0.97905 0.83229 0.0
O276 O 0.61871 0.98884 0.91028 0.0
O277 O 0.55676 0.92836 0.92207 0.0
O278 O 0.68114 0.03322 0.8241 0.0
O279 O 0.58385 0.85624 0.81809 0.0
O280 O 0.64909 0.91593 0.81381 0.0
C281 C 0.59064 0.96551 0.9401 0.0
C282 C 0.5144 0.97994 0.77516 0.0
O283 O 0.56227 0.99671 0.78292 0.0
O284 O 0.49635 0.94195 0.79735 0.0
C285 C 0.6758 0.07795 0.83113 0.0
O286 O 0.63223 0.08776 0.84191 0.0
C287 C 0.62909 0.87019 0.80943 0.0
Zn288 Zn 0.0241 0.38893 0.93179 0.0
Zn289 Zn 0.03851 0.29982 0.96742 0.0
O290 O 0.092 0.31593 0.91671 0.0
O291 O 0.07396 0.38493 0.88264 0.0
O292 O 0.04373 0.22986 0.99182 0.0
O293 O 0.04898 0.4193 0.00454 0.0
O294 O 0.05327 0.34578 0.03564 0.0
C295 C 0.09994 0.35051 0.88535 0.0
C296 C 0.93272 0.31885 0.91145 0.0
O297 O 0.96289 0.29053 0.93106 0.0
O298 O 0.94896 0.36453 0.90841 0.0
C299 C 0.08312 0.21005 0.99087 0.0
O300 O 0.12345 0.2355 0.97514 0.0
C301 C 0.05717 0.39265 0.04297 0.0
Zn302 Zn 0.52409 0.88892 0.43178 0.0
Zn303 Zn 0.5385 0.79981 0.46741 0.0
O304 O 0.59198 0.81593 0.4167 0.0
O305 O 0.57395 0.88492 0.38263 0.0
O306 O 0.54371 0.72986 0.49181 0.0
O307 O 0.54897 0.91929 0.50453 0.0
O308 O 0.55325 0.84577 0.53563 0.0
C309 C 0.59993 0.8505 0.38534 0.0
C310 C 0.43271 0.81885 0.41144 0.0
O311 O 0.46288 0.79052 0.43105 0.0
O312 O 0.44895 0.86452 0.4084 0.0
C313 C 0.5831 0.71004 0.49086 0.0
O314 O 0.62343 0.73549 0.47512 0.0
C315 C 0.55716 0.89264 0.54296 0.0
Zn316 Zn 0.96908 0.74433 0.57449 0.0
Zn317 Zn 0.05044 0.77359 0.65278 0.0
O318 O 0.0707 0.81041 0.58939 0.0
O319 O 0.00191 0.79518 0.5283 0.0
O320 O 0.10681 0.7992 0.7135 0.0
O321 O 0.91887 0.75826 0.62173 0.0
O322 O 0.98614 0.7827 0.68303 0.0
C323 C 0.04808 0.8157 0.54328 0.0
C324 C 0.0305 0.66832 0.6065 0.0
O325 O 0.05651 0.70146 0.64038 0.0
O326 O 0.99234 0.67728 0.57514 0.0
C327 C 0.10476 0.83465 0.74582 0.0
O328 O 0.0658 0.85814 0.73882 0.0
C329 C 0.93793 0.77485 0.66822 0.0
Zn330 Zn 0.46907 0.24434 0.0745 0.0
Zn331 Zn 0.55043 0.2736 0.15279 0.0
O332 O 0.57069 0.31043 0.0894 0.0
O333 O 0.50189 0.2952 0.0283 0.0
O334 O 0.6068 0.29921 0.21351 0.0
O335 O 0.41886 0.25827 0.12173 0.0
O336 O 0.48612 0.28271 0.18303 0.0
C337 C 0.54807 0.31572 0.04329 0.0
C338 C 0.53049 0.16833 0.10651 0.0
O339 O 0.5565 0.20148 0.14039 0.0
O340 O 0.49233 0.1773 0.07515 0.0
C341 C 0.60475 0.33466 0.24583 0.0
O342 O 0.56578 0.35814 0.23884 0.0
C343 C 0.43792 0.27486 0.16823 0.0
loop_
_geom_bond_atom_site_label_1
_geom_bond_atom_site_label_2
_geom_bond_distance
_geom_bond_site_symmetry_2
_ccdc_geom_bond_type
O0 Cd1 2.300 1_556 S
O0 C7 1.275 1_556 S
Cd1 O0 2.300 1_554 S
Cd1 O9 2.381 1_544 S
Cd1 O10 2.378 1_545 S
O2 Cd3 2.385 . S
O2 C7 1.255 . S
Cd3 O2 2.385 . S
Cd3 O4 2.317 1_455 S
O4 Cd3 2.317 1_655 S
O4 C5 1.232 . S
C5 O4 1.232 . S
C5 O6 1.218 . S
O6 C5 1.218 . S
C7 O0 1.275 1_554 S
C7 O2 1.255 . S
C8 O9 1.258 1_554 S
C8 O10 1.256 . S
O9 Cd1 2.381 1_566 S
O9 C8 1.258 1_556 S
O10 Cd1 2.378 1_565 S
O10 C8 1.256 . S
O11 Cd12 2.300 . S
O11 C18 1.275 . S
Cd12 O11 2.300 . S
Cd12 O20 2.381 . S
Cd12 O21 2.378 . S
O13 Cd14 2.385 . S
O13 C18 1.255 . S
Cd14 O13 2.385 . S
Cd14 O15 2.317 . S
O15 Cd14 2.317 . S
O15 C16 1.232 . S
C16 O15 1.232 . S
C16 O17 1.218 . S
O17 C16 1.218 . S
C18 O11 1.275 . S
C18 O13 1.255 . S
C19 O20 1.258 . S
C19 O21 1.256 . S
O20 Cd12 2.381 . S
O20 C19 1.258 . S
O21 Cd12 2.378 . S
O21 C19 1.256 . S
O22 Cd23 2.300 . S
O22 C29 1.275 1_655 S
Cd23 O22 2.300 . S
Cd23 O31 2.381 . S
Cd23 O32 2.378 . S
O24 Cd25 2.385 . S
O24 C29 1.255 . S
Cd25 O24 2.385 . S
Cd25 O26 2.317 1_455 S
O26 Cd25 2.317 1_655 S
O26 C27 1.232 1_655 S
C27 O26 1.232 1_455 S
C27 O28 1.218 . S
O28 C27 1.218 . S
C29 O22 1.275 1_455 S
C29 O24 1.255 . S
C30 O31 1.258 . S
C30 O32 1.256 . S
O31 Cd23 2.381 . S
O31 C30 1.258 . S
O32 Cd23 2.378 . S
O32 C30 1.256 . S
O33 Cd34 2.300 . S
O33 C40 1.275 . S
Cd34 O33 2.300 . S
Cd34 O42 2.381 . S
Cd34 O43 2.378 . S
O35 Cd36 2.385 . S
O35 C40 1.255 . S
Cd36 O35 2.385 . S
Cd36 O37 2.317 . S
O37 Cd36 2.317 . S
O37 C38 1.232 . S
C38 O37 1.232 . S
C38 O39 1.218 . S
O39 C38 1.218 . S
C40 O33 1.275 . S
C40 O35 1.255 . S
C41 O42 1.258 . S
C41 O43 1.256 . S
O42 Cd34 2.381 . S
O42 C41 1.258 . S
O43 Cd34 2.378 . S
O43 C41 1.256 . S
O44 Cd45 2.300 . S
O44 C51 1.275 1_565 S
Cd45 O44 2.300 . S
Cd45 O53 2.381 . S
Cd45 O54 2.378 . S
O46 Cd47 2.385 . S
O46 C51 1.255 . S
Cd47 O46 2.385 . S
Cd47 O48 2.317 1_455 S
O48 Cd47 2.317 1_655 S
O48 C49 1.233 . S
C49 O48 1.233 . S
C49 O50 1.216 1_655 S
O50 C49 1.216 1_455 S
C51 O44 1.275 1_545 S
C51 O46 1.255 . S
C52 O53 1.258 . S
C52 O54 1.256 . S
O53 Cd45 2.381 . S
O53 C52 1.258 . S
O54 Cd45 2.378 . S
O54 C52 1.256 . S
O55 Cd56 2.300 . S
O55 C62 1.275 . S
Cd56 O55 2.300 . S
Cd56 O64 2.381 . S
Cd56 O65 2.378 . S
O57 Cd58 2.385 . S
O57 C62 1.255 . S
Cd58 O57 2.385 . S
Cd58 O59 2.317 . S
O59 Cd58 2.317 . S
O59 C60 1.232 . S
C60 O59 1.232 . S
C60 O61 1.218 . S
O61 C60 1.218 . S
C62 O55 1.275 . S
C62 O57 1.255 . S
C63 O64 1.258 . S
C63 O65 1.256 . S
O64 Cd56 2.381 . S
O64 C63 1.258 . S
O65 Cd56 2.378 . S
O65 C63 1.256 . S
O66 Cd67 2.300 . S
O66 C73 1.275 1_655 S
Cd67 O66 2.300 . S
Cd67 O75 2.381 . S
Cd67 O76 2.378 . S
O68 Cd69 2.385 . S
O68 C73 1.255 . S
Cd69 O68 2.385 . S
Cd69 O70 2.317 . S
O70 Cd69 2.317 . S
O70 C71 1.232 . S
C71 O70 1.232 . S
C71 O72 1.218 . S
O72 C71 1.218 . S
C73 O66 1.275 1_455 S
C73 O68 1.255 . S
C74 O75 1.258 . S
C74 O76 1.256 . S
O75 Cd67 2.381 . S
O75 C74 1.258 . S
O76 Cd67 2.378 . S
O76 C74 1.256 . S
O77 Cd78 2.300 . S
O77 C84 1.275 . S
Cd78 O77 2.300 . S
Cd78 O86 2.381 . S
Cd78 O87 2.378 . S
O79 Cd80 2.385 . S
O79 C84 1.255 . S
Cd80 O79 2.385 . S
Cd80 O81 2.317 . S
O81 Cd80 2.317 . S
O81 C82 1.232 . S
C82 O81 1.232 . S
C82 O83 1.218 . S
O83 C82 1.218 . S
C84 O77 1.275 . S
C84 O79 1.255 . S
C85 O86 1.258 . S
C85 O87 1.256 . S
O86 Cd78 2.381 . S
O86 C85 1.258 . S
O87 Cd78 2.378 . S
O87 C85 1.256 . S
O88 Cd89 2.300 . S
O88 C95 1.275 . S
Cd89 O88 2.300 . S
Cd89 O97 2.381 . S
Cd89 O98 2.378 . S
O90 Cd91 2.385 . S
O90 C95 1.255 . S
Cd91 O90 2.385 . S
Cd91 O92 2.317 . S
O92 Cd91 2.317 . S
O92 C93 1.232 . S
C93 O92 1.232 . S
C93 O94 1.218 . S
O94 C93 1.218 . S
C95 O88 1.275 . S
C95 O90 1.255 . S
C96 O97 1.258 . S
C96 O98 1.256 . S
O97 Cd89 2.381 . S
O97 C96 1.258 . S
O98 Cd89 2.378 . S
O98 C96 1.256 . S
O99 Cd100 2.300 . S
O99 C106 1.275 1_545 S
Cd100 O99 2.300 . S
Cd100 O108 2.381 . S
Cd100 O109 2.378 . S
O101 Cd102 2.385 . S
O101 C106 1.255 . S
Cd102 O101 2.385 . S
Cd102 O103 2.317 . S
O103 Cd102 2.317 . S
O103 C104 1.232 . S
C104 O103 1.232 . S
C104 O105 1.218 . S
O105 C104 1.218 . S
C106 O99 1.275 1_565 S
C106 O101 1.255 . S
C107 O108 1.258 . S
C107 O109 1.256 . S
O108 Cd100 2.381 . S
O108 C107 1.258 . S
O109 Cd100 2.378 . S
O109 C107 1.256 . S
O110 Cd111 2.300 . S
O110 C117 1.275 . S
Cd111 O110 2.300 . S
Cd111 O119 2.381 . S
Cd111 O120 2.378 . S
O112 Cd113 2.385 . S
O112 C117 1.255 . S
Cd113 O112 2.385 . S
Cd113 O114 2.317 . S
O114 Cd113 2.317 . S
O114 C115 1.232 . S
C115 O114 1.232 . S
C115 O116 1.218 . S
O116 C115 1.218 . S
C117 O110 1.275 . S
C117 O112 1.255 . S
C118 O119 1.258 . S
C118 O120 1.256 . S
O119 Cd111 2.381 . S
O119 C118 1.258 . S
O120 Cd111 2.378 . S
O120 C118 1.256 . S
O121 Cd122 2.300 . S
O121 C128 1.275 . S
Cd122 O121 2.300 . S
Cd122 O130 2.381 . S
Cd122 O131 2.378 . S
O123 Cd124 2.385 . S
O123 C128 1.255 . S
Cd124 O123 2.385 . S
Cd124 O125 2.317 . S
O125 Cd124 2.317 . S
O125 C126 1.232 . S
C126 O125 1.232 . S
C126 O127 1.218 . S
O127 C126 1.218 . S
C128 O121 1.275 . S
C128 O123 1.255 . S
C129 O130 1.258 . S
C129 O131 1.256 . S
O130 Cd122 2.381 . S
O130 C129 1.258 . S
O131 Cd122 2.378 . S
O131 C129 1.256 . S
O132 Cd133 2.300 . S
O132 C139 1.275 . S
Cd133 O132 2.300 . S
Cd133 O141 2.381 . S
Cd133 O142 2.378 . S
O134 Cd135 2.385 . S
O134 C139 1.255 . S
Cd135 O134 2.385 . S
Cd135 O136 2.317 . S
O136 Cd135 2.317 . S
O136 C137 1.232 . S
C137 O136 1.232 . S
C137 O138 1.218 . S
O138 C137 1.218 . S
C139 O132 1.275 . S
C139 O134 1.255 . S
C140 O141 1.258 . S
C140 O142 1.256 . S
O141 Cd133 2.381 . S
O141 C140 1.258 . S
O142 Cd133 2.378 . S
O142 C140 1.256 . S
O143 Cd144 2.300 . S
O143 C150 1.275 1_554 S
Cd144 O143 2.300 . S
Cd144 O152 2.381 . S
Cd144 O153 2.378 . S
O145 Cd146 2.385 1_554 S
O145 C150 1.255 1_554 S
Cd146 O145 2.385 1_556 S
Cd146 O147 2.317 . S
O147 Cd146 2.317 . S
O147 C148 1.232 . S
C148 O147 1.232 . S
C148 O149 1.218 . S
O149 C148 1.218 . S
C150 O143 1.275 1_556 S
C150 O145 1.255 1_556 S
C151 O152 1.258 . S
C151 O153 1.256 . S
O152 Cd144 2.381 . S
O152 C151 1.258 . S
O153 Cd144 2.378 . S
O153 C151 1.256 . S
O154 Cd155 2.300 . S
O154 C161 1.275 . S
Cd155 O154 2.300 . S
Cd155 O163 2.381 . S
Cd155 O164 2.378 . S
O156 Cd157 2.385 . S
O156 C161 1.255 . S
Cd157 O156 2.385 . S
Cd157 O158 2.317 . S
O158 Cd157 2.317 . S
O158 C159 1.232 . S
C159 O158 1.232 . S
C159 O160 1.218 . S
O160 C159 1.218 . S
C161 O154 1.275 . S
C161 O156 1.255 . S
C162 O163 1.258 . S
C162 O164 1.256 . S
O163 Cd155 2.381 . S
O163 C162 1.258 . S
O164 Cd155 2.378 . S
O164 C162 1.256 . S
O165 Cd166 2.300 . S
O165 C172 1.275 . S
Cd166 O165 2.300 . S
Cd166 O174 2.381 1_545 S
Cd166 O175 2.378 1_546 S
O167 Cd168 2.385 1_556 S
O167 C172 1.255 . S
Cd168 O167 2.385 1_554 S
Cd168 O169 2.317 . S
O169 Cd168 2.317 . S
O169 C170 1.232 . S
C170 O169 1.232 . S
C170 O171 1.218 . S
O171 C170 1.218 . S
C172 O165 1.275 . S
C172 O167 1.255 . S
C173 O174 1.258 . S
C173 O175 1.256 1_556 S
O174 Cd166 2.381 1_565 S
O174 C173 1.258 . S
O175 Cd166 2.378 1_564 S
O175 C173 1.256 1_554 S
Zn176 O179 2.031 . S
Zn176 O181 2.049 1_554 S
Zn176 O186 2.067 1_554 S
Zn177 O178 1.962 . S
Zn177 O180 1.986 . S
Zn177 O182 1.996 . S
Zn177 O185 1.943 1_554 S
O178 Zn177 1.962 . S
O178 C183 1.254 . S
O179 Zn176 2.031 . S
O179 C183 1.269 . S
O180 Zn177 1.986 . S
O180 C187 1.262 . S
O181 Zn176 2.049 1_556 S
O181 C189 1.260 . S
O182 Zn177 1.996 . S
O182 C189 1.257 1_554 S
C183 O178 1.254 . S
C183 O179 1.269 . S
C184 O185 1.249 . S
C184 O186 1.270 . S
O185 Zn177 1.943 1_556 S
O185 C184 1.249 . S
O186 Zn176 2.067 1_556 S
O186 C184 1.270 . S
C187 O180 1.262 . S
C187 O188 1.232 . S
O188 C187 1.232 . S
C189 O181 1.260 . S
C189 O182 1.257 1_556 S
Zn190 O193 2.031 . S
Zn190 O195 2.049 . S
Zn190 O200 2.067 . S
Zn191 O192 1.962 . S
Zn191 O194 1.986 . S
Zn191 O196 1.996 . S
Zn191 O199 1.943 . S
O192 Zn191 1.962 . S
O192 C197 1.254 . S
O193 Zn190 2.031 . S
O193 C197 1.269 . S
O194 Zn191 1.986 . S
O194 C201 1.262 . S
O195 Zn190 2.049 . S
O195 C203 1.260 . S
O196 Zn191 1.996 . S
O196 C203 1.257 . S
C197 O192 1.254 . S
C197 O193 1.269 . S
C198 O199 1.249 . S
C198 O200 1.270 . S
O199 Zn191 1.943 . S
O199 C198 1.249 . S
O200 Zn190 2.067 . S
O200 C198 1.270 . S
C201 O194 1.262 . S
C201 O202 1.232 . S
O202 C201 1.232 . S
C203 O195 1.260 . S
C203 O196 1.257 . S
Zn204 O207 2.031 1_556 S
Zn204 O209 2.049 . S
Zn204 O214 2.067 . S
Zn205 O206 1.962 . S
Zn205 O208 1.986 . S
Zn205 O210 1.996 1_554 S
Zn205 O213 1.943 . S
O206 Zn205 1.962 . S
O206 C211 1.254 . S
O207 Zn204 2.031 1_554 S
O207 C211 1.269 . S
O208 Zn205 1.986 . S
O208 C215 1.262 . S
O209 Zn204 2.049 . S
O209 C217 1.260 . S
O210 Zn205 1.996 1_556 S
O210 C217 1.257 . S
C211 O206 1.254 . S
C211 O207 1.269 . S
C212 O213 1.249 1_556 S
C212 O214 1.270 . S
O213 Zn205 1.943 . S
O213 C212 1.249 1_554 S
O214 Zn204 2.067 . S
O214 C212 1.270 . S
C215 O208 1.262 . S
C215 O216 1.232 . S
O216 C215 1.232 . S
C217 O209 1.260 . S
C217 O210 1.257 . S
Zn218 O221 2.031 . S
Zn218 O223 2.049 1_545 S
Zn218 O228 2.067 1_545 S
Zn219 O220 1.962 . S
Zn219 O222 1.986 . S
Zn219 O224 1.996 . S
Zn219 O227 1.943 1_545 S
O220 Zn219 1.962 . S
O220 C225 1.254 . S
O221 Zn218 2.031 . S
O221 C225 1.269 . S
O222 Zn219 1.986 . S
O222 C229 1.262 . S
O223 Zn218 2.049 1_565 S
O223 C231 1.260 1_565 S
O224 Zn219 1.996 . S
O224 C231 1.257 . S
C225 O220 1.254 . S
C225 O221 1.269 . S
C226 O227 1.249 . S
C226 O228 1.270 . S
O227 Zn219 1.943 1_565 S
O227 C226 1.249 . S
O228 Zn218 2.067 1_565 S
O228 C226 1.270 . S
C229 O222 1.262 . S
C229 O230 1.232 . S
O230 C229 1.232 . S
C231 O223 1.260 1_545 S
C231 O224 1.257 . S
Zn232 O235 2.031 . S
Zn232 O237 2.049 . S
Zn232 O242 2.067 . S
Zn233 O234 1.962 . S
Zn233 O236 1.986 . S
Zn233 O238 1.996 . S
Zn233 O241 1.943 . S
O234 Zn233 1.962 . S
O234 C239 1.254 . S
O235 Zn232 2.031 . S
O235 C239 1.269 . S
O236 Zn233 1.986 . S
O236 C243 1.262 . S
O237 Zn232 2.049 . S
O237 C245 1.260 . S
O238 Zn233 1.996 . S
O238 C245 1.257 . S
C239 O234 1.254 . S
C239 O235 1.269 . S
C240 O241 1.249 . S
C240 O242 1.270 . S
O241 Zn233 1.943 . S
O241 C240 1.249 . S
O242 Zn232 2.067 . S
O242 C240 1.270 . S
C243 O236 1.262 . S
C243 O244 1.232 . S
O244 C243 1.232 . S
C245 O237 1.260 . S
C245 O238 1.257 . S
Zn246 O249 2.031 . S
Zn246 O251 2.049 . S
Zn246 O256 2.067 . S
Zn247 O248 1.962 . S
Zn247 O250 1.986 . S
Zn247 O252 1.996 . S
Zn247 O255 1.943 . S
O248 Zn247 1.962 . S
O248 C253 1.254 . S
O249 Zn246 2.031 . S
O249 C253 1.269 . S
O250 Zn247 1.986 . S
O250 C257 1.262 . S
O251 Zn246 2.049 . S
O251 C259 1.260 . S
O252 Zn247 1.996 . S
O252 C259 1.257 . S
C253 O248 1.254 . S
C253 O249 1.269 . S
C254 O255 1.249 . S
C254 O256 1.270 . S
O255 Zn247 1.943 . S
O255 C254 1.249 . S
O256 Zn246 2.067 . S
O256 C254 1.270 . S
C257 O250 1.262 . S
C257 O258 1.232 . S
O258 C257 1.232 . S
C259 O251 1.260 . S
C259 O252 1.257 . S
Zn260 O263 2.031 . S
Zn260 O265 2.049 . S
Zn260 O270 2.067 . S
Zn261 O262 1.962 . S
Zn261 O264 1.986 . S
Zn261 O266 1.996 . S
Zn261 O269 1.943 . S
O262 Zn261 1.962 . S
O262 C267 1.254 . S
O263 Zn260 2.031 . S
O263 C267 1.269 . S
O264 Zn261 1.986 . S
O264 C271 1.262 . S
O265 Zn260 2.049 . S
O265 C273 1.260 . S
O266 Zn261 1.996 . S
O266 C273 1.257 . S
C267 O262 1.254 . S
C267 O263 1.269 . S
C268 O269 1.249 . S
C268 O270 1.270 . S
O269 Zn261 1.943 . S
O269 C268 1.249 . S
O270 Zn260 2.067 . S
O270 C268 1.270 . S
C271 O264 1.262 . S
C271 O272 1.232 . S
O272 C271 1.232 . S
C273 O265 1.260 . S
C273 O266 1.257 . S
Zn274 O277 2.031 . S
Zn274 O279 2.049 . S
Zn274 O284 2.067 . S
Zn275 O276 1.962 . S
Zn275 O278 1.986 . S
Zn275 O280 1.996 1_545 S
Zn275 O283 1.943 . S
O276 Zn275 1.962 . S
O276 C281 1.254 . S
O277 Zn274 2.031 . S
O277 C281 1.269 1_565 S
O278 Zn275 1.986 . S
O278 C285 1.262 . S
O279 Zn274 2.049 . S
O279 C287 1.260 . S
O280 Zn275 1.996 1_565 S
O280 C287 1.257 . S
C281 O276 1.254 . S
C281 O277 1.269 1_545 S
C282 O283 1.249 1_565 S
C282 O284 1.270 . S
O283 Zn275 1.943 . S
O283 C282 1.249 1_545 S
O284 Zn274 2.067 . S
O284 C282 1.270 . S
C285 O278 1.262 . S
C285 O286 1.232 . S
O286 C285 1.232 . S
C287 O279 1.260 . S
C287 O280 1.257 . S
Zn288 O291 2.031 . S
Zn288 O293 2.049 1_455 S
Zn288 O298 2.067 1_455 S
Zn289 O290 1.962 . S
Zn289 O292 1.986 1_556 S
Zn289 O294 1.996 . S
Zn289 O297 1.943 1_455 S
O290 Zn289 1.962 . S
O290 C295 1.254 . S
O291 Zn288 2.031 . S
O291 C295 1.269 . S
O292 Zn289 1.986 1_554 S
O292 C299 1.262 . S
O293 Zn288 2.049 1_655 S
O293 C301 1.254 1_656 S
O294 Zn289 1.996 . S
O294 C301 1.270 1_556 S
C295 O290 1.254 . S
C295 O291 1.269 . S
C296 O297 1.249 . S
C296 O298 1.270 . S
O297 Zn289 1.943 1_655 S
O297 C296 1.249 . S
O298 Zn288 2.067 1_655 S
O298 C296 1.270 . S
C299 O292 1.262 . S
C299 O300 1.232 1_554 S
O300 C299 1.232 1_556 S
C301 O293 1.254 1_454 S
C301 O294 1.270 1_554 S
Zn302 O305 2.031 . S
Zn302 O307 2.049 . S
Zn302 O312 2.067 . S
Zn303 O304 1.962 . S
Zn303 O306 1.986 . S
Zn303 O308 1.996 . S
Zn303 O311 1.943 . S
O304 Zn303 1.962 . S
O304 C309 1.254 . S
O305 Zn302 2.031 . S
O305 C309 1.269 . S
O306 Zn303 1.986 . S
O306 C313 1.262 . S
O307 Zn302 2.049 . S
O307 C315 1.260 . S
O308 Zn303 1.996 . S
O308 C315 1.257 . S
C309 O304 1.254 . S
C309 O305 1.269 . S
C310 O311 1.249 . S
C310 O312 1.270 . S
O311 Zn303 1.943 . S
O311 C310 1.249 . S
O312 Zn302 2.067 . S
O312 C310 1.270 . S
C313 O306 1.262 . S
C313 O314 1.232 . S
O314 C313 1.232 . S
C315 O307 1.260 . S
C315 O308 1.257 . S
Zn316 O319 2.031 1_655 S
Zn316 O321 2.049 . S
Zn316 O326 2.067 . S
Zn317 O318 1.962 . S
Zn317 O320 1.986 . S
Zn317 O322 1.996 1_455 S
Zn317 O325 1.943 . S
O318 Zn317 1.962 . S
O318 C323 1.254 . S
O319 Zn316 2.031 1_455 S
O319 C323 1.269 . S
O320 Zn317 1.986 . S
O320 C327 1.262 . S
O321 Zn316 2.049 . S
O321 C329 1.260 . S
O322 Zn317 1.996 1_655 S
O322 C329 1.257 . S
C323 O318 1.254 . S
C323 O319 1.269 . S
C324 O325 1.249 1_655 S
C324 O326 1.270 . S
O325 Zn317 1.943 . S
O325 C324 1.249 1_455 S
O326 Zn316 2.067 . S
O326 C324 1.270 . S
C327 O320 1.262 . S
C327 O328 1.232 . S
O328 C327 1.232 . S
C329 O321 1.260 . S
C329 O322 1.257 . S
Zn330 O333 2.031 . S
Zn330 O335 2.049 . S
Zn330 O340 2.067 . S
Zn331 O332 1.962 . S
Zn331 O334 1.986 . S
Zn331 O336 1.996 . S
Zn331 O339 1.943 . S
O332 Zn331 1.962 . S
O332 C337 1.254 . S
O333 Zn330 2.031 . S
O333 C337 1.269 . S
O334 Zn331 1.986 . S
O334 C341 1.262 . S
O335 Zn330 2.049 . S
O335 C343 1.260 . S
O336 Zn331 1.996 . S
O336 C343 1.257 . S
C337 O332 1.254 . S
C337 O333 1.269 . S
C338 O339 1.249 . S
C338 O340 1.270 . S
O339 Zn331 1.943 . S
O339 C338 1.249 . S
O340 Zn330 2.067 . S
O340 C338 1.270 . S
C341 O334 1.262 . S
C341 O342 1.232 . S
O342 C341 1.232 . S
C343 O335 1.260 . S
C343 O336 1.257 . S
C184 C62 1.091 . S
C197 C73 1.638 . S
C84 C217 1.689 . S
C231 C49 1.505 . S
C243 C118 1.317 . S
C257 C137 1.332 . S
C129 C267 1.713 . S
C282 C106 2.122 . S
C128 C296 1.920 . S
C315 C104 1.279 . S
C115 C295 1.867 . S
C313 C139 1.798 . S
C85 C329 1.719 . S
C52 C323 1.341 . S
C60 C327 1.271 . S
C71 C324 2.261 1_455 S
C40 C226 1.747 . S
C162 C225 1.320 . S
C189 C173 0.987 . S
C203 C93 1.831 . S
C51 C240 1.611 . S
C285 C126 1.592 . S
C239 C107 1.924 . S
C271 C140 1.725 . S
C268 C161 1.092 . S
C172 C281 1.638 . S
C95 C245 1.689 . S
C259 C148 1.488 . S
C41 C215 1.317 . S
C229 C5 1.332 . S
C183 C19 1.713 . S
C198 C29 2.122 . S
C18 C310 1.920 . S
C27 C301 1.281 . S
C38 C309 1.867 . S
C7 C299 1.798 . S
C343 C96 1.719 . S
C337 C151 1.341 . S
C341 C159 1.272 . S
C170 C338 2.261 . S
C117 C254 1.747 . S
C253 C63 1.320 . S
C273 C74 0.987 . S
C287 C82 1.831 . S
C150 C212 1.611 . S
C201 C16 1.592 . S
C30 C211 1.924 . S
C187 C8 1.725 . S
