# Generated by pormake.
# Topology tph, (6,8)-cn, num edge types: 1
# Building blocks:
#     Node 0, Type 0, BuildingBlock: IZENUY_clean_sbu_0, # of connection points: 6
#     Node 1, Type 0, BuildingBlock: IZENUY_clean_sbu_0, # of connection points: 6
#     Node 2, Type 0, BuildingBlock: IZENUY_clean_sbu_0, # of connection points: 6
#     Node 3, Type 0, BuildingBlock: IZENUY_clean_sbu_0, # of connection points: 6
#     Node 4, Type 0, BuildingBlock: IZENUY_clean_sbu_0, # of connection points: 6
#     Node 5, Type 0, BuildingBlock: IZENUY_clean_sbu_0, # of connection points: 6
#     Node 6, Type 0, BuildingBlock: IZENUY_clean_sbu_0, # of connection points: 6
#     Node 7, Type 0, BuildingBlock: IZENUY_clean_sbu_0, # of connection points: 6
#     Node 8, Type 0, BuildingBlock: IZENUY_clean_sbu_0, # of connection points: 6
#     Node 9, Type 0, BuildingBlock: IZENUY_clean_sbu_0, # of connection points: 6
#     Node 10, Type 0, BuildingBlock: IZENUY_clean_sbu_0, # of connection points: 6
#     Node 11, Type 0, BuildingBlock: IZENUY_clean_sbu_0, # of connection points: 6
#     Node 12, Type 0, BuildingBlock: IZENUY_clean_sbu_0, # of connection points: 6
#     Node 13, Type 0, BuildingBlock: IZENUY_clean_sbu_0, # of connection points: 6
#     Node 14, Type 0, BuildingBlock: IZENUY_clean_sbu_0, # of connection points: 6
#     Node 15, Type 0, BuildingBlock: IZENUY_clean_sbu_0, # of connection points: 6
#     Node 16, Type 1, BuildingBlock: TAGTUT_clean_sbu_3, # of connection points: 8
#     Node 17, Type 1, BuildingBlock: TAGTUT_clean_sbu_3, # of connection points: 8
#     Node 18, Type 1, BuildingBlock: TAGTUT_clean_sbu_3, # of connection points: 8
#     Node 19, Type 1, BuildingBlock: TAGTUT_clean_sbu_3, # of connection points: 8
#     Node 20, Type 1, BuildingBlock: TAGTUT_clean_sbu_3, # of connection points: 8
#     Node 21, Type 1, BuildingBlock: TAGTUT_clean_sbu_3, # of connection points: 8
#     Node 22, Type 1, BuildingBlock: TAGTUT_clean_sbu_3, # of connection points: 8
#     Node 23, Type 1, BuildingBlock: TAGTUT_clean_sbu_3, # of connection points: 8
#     Node 24, Type 1, BuildingBlock: TAGTUT_clean_sbu_3, # of connection points: 8
#     Node 25, Type 1, BuildingBlock: TAGTUT_clean_sbu_3, # of connection points: 8
#     Node 26, Type 1, BuildingBlock: TAGTUT_clean_sbu_3, # of connection points: 8
#     Node 27, Type 1, BuildingBlock: TAGTUT_clean_sbu_3, # of connection points: 8
#     Edge 28, Type (0, 1), BuildingBlock: XIVTED_clean_linker_0, # of connection points: 2
#     Edge 29, Type (0, 1), BuildingBlock: XIVTED_clean_linker_0, # of connection points: 2
#     Edge 30, Type (0, 1), BuildingBlock: XIVTED_clean_linker_0, # of connection points: 2
#     Edge 31, Type (0, 1), BuildingBlock: XIVTED_clean_linker_0, # of connection points: 2
#     Edge 32, Type (0, 1), BuildingBlock: XIVTED_clean_linker_0, # of connection points: 2
#     Edge 33, Type (0, 1), BuildingBlock: XIVTED_clean_linker_0, # of connection points: 2
#     Edge 34, Type (0, 1), BuildingBlock: XIVTED_clean_linker_0, # of connection points: 2
#     Edge 35, Type (0, 1), BuildingBlock: XIVTED_clean_linker_0, # of connection points: 2
#     Edge 36, Type (0, 1), BuildingBlock: XIVTED_clean_linker_0, # of connection points: 2
#     Edge 37, Type (0, 1), BuildingBlock: XIVTED_clean_linker_0, # of connection points: 2
#     Edge 38, Type (0, 1), BuildingBlock: XIVTED_clean_linker_0, # of connection points: 2
#     Edge 39, Type (0, 1), BuildingBlock: XIVTED_clean_linker_0, # of connection points: 2
#     Edge 40, Type (0, 1), BuildingBlock: XIVTED_clean_linker_0, # of connection points: 2
#     Edge 41, Type (0, 1), BuildingBlock: XIVTED_clean_linker_0, # of connection points: 2
#     Edge 42, Type (0, 1), BuildingBlock: XIVTED_clean_linker_0, # of connection points: 2
#     Edge 43, Type (0, 1), BuildingBlock: XIVTED_clean_linker_0, # of connection points: 2
#     Edge 44, Type (0, 1), BuildingBlock: XIVTED_clean_linker_0, # of connection points: 2
#     Edge 45, Type (0, 1), BuildingBlock: XIVTED_clean_linker_0, # of connection points: 2
#     Edge 46, Type (0, 1), BuildingBlock: XIVTED_clean_linker_0, # of connection points: 2
#     Edge 47, Type (0, 1), BuildingBlock: XIVTED_clean_linker_0, # of connection points: 2
#     Edge 48, Type (0, 1), BuildingBlock: XIVTED_clean_linker_0, # of connection points: 2
#     Edge 49, Type (0, 1), BuildingBlock: XIVTED_clean_linker_0, # of connection points: 2
#     Edge 50, Type (0, 1), BuildingBlock: XIVTED_clean_linker_0, # of connection points: 2
#     Edge 51, Type (0, 1), BuildingBlock: XIVTED_clean_linker_0, # of connection points: 2
#     Edge 52, Type (0, 1), BuildingBlock: XIVTED_clean_linker_0, # of connection points: 2
#     Edge 53, Type (0, 1), BuildingBlock: XIVTED_clean_linker_0, # of connection points: 2
#     Edge 54, Type (0, 1), BuildingBlock: XIVTED_clean_linker_0, # of connection points: 2
#     Edge 55, Type (0, 1), BuildingBlock: XIVTED_clean_linker_0, # of connection points: 2
#     Edge 56, Type (0, 1), BuildingBlock: XIVTED_clean_linker_0, # of connection points: 2
#     Edge 57, Type (0, 1), BuildingBlock: XIVTED_clean_linker_0, # of connection points: 2
#     Edge 58, Type (0, 1), BuildingBlock: XIVTED_clean_linker_0, # of connection points: 2
#     Edge 59, Type (0, 1), BuildingBlock: XIVTED_clean_linker_0, # of connection points: 2
#     Edge 60, Type (0, 1), BuildingBlock: XIVTED_clean_linker_0, # of connection points: 2
#     Edge 61, Type (0, 1), BuildingBlock: XIVTED_clean_linker_0, # of connection points: 2
#     Edge 62, Type (0, 1), BuildingBlock: XIVTED_clean_linker_0, # of connection points: 2
#     Edge 63, Type (0, 1), BuildingBlock: XIVTED_clean_linker_0, # of connection points: 2
#     Edge 64, Type (0, 1), BuildingBlock: XIVTED_clean_linker_0, # of connection points: 2
#     Edge 65, Type (0, 1), BuildingBlock: XIVTED_clean_linker_0, # of connection points: 2
#     Edge 66, Type (0, 1), BuildingBlock: XIVTED_clean_linker_0, # of connection points: 2
#     Edge 67, Type (0, 1), BuildingBlock: XIVTED_clean_linker_0, # of connection points: 2
#     Edge 68, Type (0, 1), BuildingBlock: XIVTED_clean_linker_0, # of connection points: 2
#     Edge 69, Type (0, 1), BuildingBlock: XIVTED_clean_linker_0, # of connection points: 2
#     Edge 70, Type (0, 1), BuildingBlock: XIVTED_clean_linker_0, # of connection points: 2
#     Edge 71, Type (0, 1), BuildingBlock: XIVTED_clean_linker_0, # of connection points: 2
#     Edge 72, Type (0, 1), BuildingBlock: XIVTED_clean_linker_0, # of connection points: 2
#     Edge 73, Type (0, 1), BuildingBlock: XIVTED_clean_linker_0, # of connection points: 2
#     Edge 74, Type (0, 1), BuildingBlock: XIVTED_clean_linker_0, # of connection points: 2
#     Edge 75, Type (0, 1), BuildingBlock: XIVTED_clean_linker_0, # of connection points: 2
#     Edge 76, Type (0, 1), BuildingBlock: XIVTED_clean_linker_0, # of connection points: 2
#     Edge 77, Type (0, 1), BuildingBlock: XIVTED_clean_linker_0, # of connection points: 2
#     Edge 78, Type (0, 1), BuildingBlock: XIVTED_clean_linker_0, # of connection points: 2
#     Edge 79, Type (0, 1), BuildingBlock: XIVTED_clean_linker_0, # of connection points: 2
#     Edge 80, Type (0, 1), BuildingBlock: XIVTED_clean_linker_0, # of connection points: 2
#     Edge 81, Type (0, 1), BuildingBlock: XIVTED_clean_linker_0, # of connection points: 2
#     Edge 82, Type (0, 1), BuildingBlock: XIVTED_clean_linker_0, # of connection points: 2
#     Edge 83, Type (0, 1), BuildingBlock: XIVTED_clean_linker_0, # of connection points: 2
#     Edge 84, Type (0, 1), BuildingBlock: XIVTED_clean_linker_0, # of connection points: 2
#     Edge 85, Type (0, 1), BuildingBlock: XIVTED_clean_linker_0, # of connection points: 2
#     Edge 86, Type (0, 1), BuildingBlock: XIVTED_clean_linker_0, # of connection points: 2
#     Edge 87, Type (0, 1), BuildingBlock: XIVTED_clean_linker_0, # of connection points: 2
#     Edge 88, Type (0, 1), BuildingBlock: XIVTED_clean_linker_0, # of connection points: 2
#     Edge 89, Type (0, 1), BuildingBlock: XIVTED_clean_linker_0, # of connection points: 2
#     Edge 90, Type (0, 1), BuildingBlock: XIVTED_clean_linker_0, # of connection points: 2
#     Edge 91, Type (0, 1), BuildingBlock: XIVTED_clean_linker_0, # of connection points: 2
#     Edge 92, Type (0, 1), BuildingBlock: XIVTED_clean_linker_0, # of connection points: 2
#     Edge 93, Type (0, 1), BuildingBlock: XIVTED_clean_linker_0, # of connection points: 2
#     Edge 94, Type (0, 1), BuildingBlock: XIVTED_clean_linker_0, # of connection points: 2
#     Edge 95, Type (0, 1), BuildingBlock: XIVTED_clean_linker_0, # of connection points: 2
#     Edge 96, Type (0, 1), BuildingBlock: XIVTED_clean_linker_0, # of connection points: 2
#     Edge 97, Type (0, 1), BuildingBlock: XIVTED_clean_linker_0, # of connection points: 2
#     Edge 98, Type (0, 1), BuildingBlock: XIVTED_clean_linker_0, # of connection points: 2
#     Edge 99, Type (0, 1), BuildingBlock: XIVTED_clean_linker_0, # of connection points: 2
#     Edge 100, Type (0, 1), BuildingBlock: XIVTED_clean_linker_0, # of connection points: 2
#     Edge 101, Type (0, 1), BuildingBlock: XIVTED_clean_linker_0, # of connection points: 2
#     Edge 102, Type (0, 1), BuildingBlock: XIVTED_clean_linker_0, # of connection points: 2
#     Edge 103, Type (0, 1), BuildingBlock: XIVTED_clean_linker_0, # of connection points: 2
#     Edge 104, Type (0, 1), BuildingBlock: XIVTED_clean_linker_0, # of connection points: 2
#     Edge 105, Type (0, 1), BuildingBlock: XIVTED_clean_linker_0, # of connection points: 2
#     Edge 106, Type (0, 1), BuildingBlock: XIVTED_clean_linker_0, # of connection points: 2
#     Edge 107, Type (0, 1), BuildingBlock: XIVTED_clean_linker_0, # of connection points: 2
#     Edge 108, Type (0, 1), BuildingBlock: XIVTED_clean_linker_0, # of connection points: 2
#     Edge 109, Type (0, 1), BuildingBlock: XIVTED_clean_linker_0, # of connection points: 2
#     Edge 110, Type (0, 1), BuildingBlock: XIVTED_clean_linker_0, # of connection points: 2
#     Edge 111, Type (0, 1), BuildingBlock: XIVTED_clean_linker_0, # of connection points: 2
#     Edge 112, Type (0, 1), BuildingBlock: XIVTED_clean_linker_0, # of connection points: 2
#     Edge 113, Type (0, 1), BuildingBlock: XIVTED_clean_linker_0, # of connection points: 2
#     Edge 114, Type (0, 1), BuildingBlock: XIVTED_clean_linker_0, # of connection points: 2
#     Edge 115, Type (0, 1), BuildingBlock: XIVTED_clean_linker_0, # of connection points: 2
#     Edge 116, Type (0, 1), BuildingBlock: XIVTED_clean_linker_0, # of connection points: 2
#     Edge 117, Type (0, 1), BuildingBlock: XIVTED_clean_linker_0, # of connection points: 2
#     Edge 118, Type (0, 1), BuildingBlock: XIVTED_clean_linker_0, # of connection points: 2
#     Edge 119, Type (0, 1), BuildingBlock: XIVTED_clean_linker_0, # of connection points: 2
#     Edge 120, Type (0, 1), BuildingBlock: XIVTED_clean_linker_0, # of connection points: 2
#     Edge 121, Type (0, 1), BuildingBlock: XIVTED_clean_linker_0, # of connection points: 2
#     Edge 122, Type (0, 1), BuildingBlock: XIVTED_clean_linker_0, # of connection points: 2
#     Edge 123, Type (0, 1), BuildingBlock: XIVTED_clean_linker_0, # of connection points: 2
# Relax obj value: 0.180
# Max RMSD: 0.260
# Mean RMSD: 0.252
data_MOF--net-tph--node1-IZENUY_clean_sbu_0--node2-TAGTUT_clean_sbu_3--edge1-XIVTED_clean_linker_0
_symmetry_space_group_name_H-M    P1
_symmetry_Int_Tables_number       1
_symmetry_cell_setting            triclinic
loop_
_symmetry_equiv_pos_as_xyz
'x, y, z'
_cell_length_a     47.544427
_cell_length_b     47.642252
_cell_length_c     47.543725
_cell_angle_alpha  89.443403
_cell_angle_beta   89.930232
_cell_angle_gamma 89.353909
loop_
_atom_site_label
_atom_site_type_symbol
_atom_site_fract_x
_atom_site_fract_y
_atom_site_fract_z
_atom_type_partial_charge
Fe0 Fe 0.18937 0.19916 0.15091 0.0
Fe1 Fe 0.1561 0.20916 0.20485 0.0
O2 O 0.18196 0.18978 0.18618 0.0
Fe3 Fe 0.2 0.16144 0.20267 0.0
O4 O 0.18917 0.13686 0.17621 0.0
O5 O 0.1981 0.16343 0.13936 0.0
O6 O 0.15363 0.19216 0.14086 0.0
C7 C 0.13272 0.20497 0.15087 0.0
C8 C 0.2423 0.1882 0.16941 0.0
O9 O 0.13473 0.21825 0.17367 0.0
C10 C 0.19602 0.19598 0.24754 0.0
O11 O 0.18209 0.23696 0.15584 0.0
O12 O 0.17656 0.24075 0.20153 0.0
O13 O 0.2334 0.1679 0.18431 0.0
O14 O 0.22561 0.20616 0.15892 0.0
C15 C 0.1432 0.15564 0.21998 0.0
O16 O 0.17173 0.20339 0.23953 0.0
O17 O 0.21246 0.18355 0.23087 0.0
C18 C 0.18254 0.25158 0.17801 0.0
O19 O 0.13471 0.1785 0.20919 0.0
O20 O 0.16918 0.14996 0.22302 0.0
C21 C 0.19342 0.1396 0.15022 0.0
Fe22 Fe 0.45454 0.55712 0.10587 0.0
Fe23 Fe 0.45379 0.59481 0.05347 0.0
O24 O 0.43656 0.5709 0.07618 0.0
Fe25 Fe 0.40136 0.5613 0.07031 0.0
O26 O 0.39061 0.57437 0.10416 0.0
O27 O 0.42292 0.5516 0.12782 0.0
O28 O 0.45622 0.5918 0.12041 0.0
C29 C 0.46653 0.61264 0.10768 0.0
C30 C 0.42959 0.51047 0.08651 0.0
O31 O 0.47376 0.61125 0.08204 0.0
C32 C 0.42095 0.56174 0.01636 0.0
O33 O 0.48992 0.56027 0.09038 0.0
O34 O 0.48169 0.56959 0.04607 0.0
O35 O 0.407 0.52489 0.08364 0.0
O36 O 0.45272 0.52207 0.0919 0.0
C37 C 0.40163 0.61967 0.05852 0.0
O38 O 0.43576 0.5831 0.02141 0.0
O39 O 0.40948 0.54803 0.0359 0.0
C40 C 0.49848 0.56173 0.06515 0.0
O41 O 0.42789 0.62161 0.05972 0.0
O42 O 0.38997 0.59595 0.05632 0.0
C43 C 0.39986 0.56507 0.12714 0.0
Fe44 Fe 0.78097 0.29709 0.14408 0.0
Fe45 Fe 0.83181 0.29521 0.18358 0.0
O46 O 0.80133 0.3123 0.17074 0.0
Fe47 Fe 0.79103 0.34486 0.1846 0.0
O48 O 0.79571 0.36136 0.15098 0.0
O49 O 0.76969 0.33129 0.12821 0.0
O50 O 0.81011 0.29787 0.12009 0.0
C51 C 0.83318 0.28531 0.12416 0.0
C52 C 0.73921 0.31753 0.17668 0.0
O53 O 0.84115 0.2789 0.14907 0.0
C54 C 0.80623 0.31909 0.23281 0.0
O55 O 0.78933 0.26034 0.1547 0.0
O56 O 0.81167 0.26524 0.19469 0.0
O57 O 0.75312 0.33993 0.17869 0.0
O58 O 0.75055 0.29566 0.16693 0.0
C59 C 0.85031 0.34867 0.18267 0.0
O60 O 0.82768 0.30879 0.22021 0.0
O61 O 0.78618 0.32951 0.21883 0.0
C62 C 0.79848 0.25013 0.17777 0.0
O63 O 0.85373 0.3243 0.17319 0.0
O64 O 0.82688 0.35613 0.19302 0.0
C65 C 0.7821 0.35475 0.12946 0.0
Fe66 Fe 0.55067 0.94664 0.10108 0.0
Fe67 Fe 0.57078 0.89712 0.06496 0.0
O68 O 0.57591 0.93102 0.07859 0.0
Fe69 Fe 0.60714 0.94945 0.07065 0.0
O70 O 0.61705 0.94829 0.10718 0.0
O71 O 0.57673 0.96529 0.12245 0.0
O72 O 0.55418 0.91891 0.12626 0.0
C73 C 0.553 0.893 0.12204 0.0
C74 C 0.56552 0.99308 0.07325 0.0
O75 O 0.55376 0.88305 0.09728 0.0
C76 C 0.59473 0.92918 0.01918 0.0
O77 O 0.52028 0.92995 0.08481 0.0
O78 O 0.53756 0.90689 0.04883 0.0
O79 O 0.5909 0.98459 0.07428 0.0
O80 O 0.54598 0.97583 0.07701 0.0
C81 C 0.62693 0.89426 0.07684 0.0
O82 O 0.58776 0.90582 0.03057 0.0
O83 O 0.59852 0.95074 0.03388 0.0
C84 C 0.51686 0.91695 0.06202 0.0
O85 O 0.60292 0.88437 0.08056 0.0
O86 O 0.62979 0.91825 0.06582 0.0
C87 C 0.60203 0.95789 0.12674 0.0
Fe88 Fe 0.19002 0.83874 0.28614 0.0
Fe89 Fe 0.18525 0.79718 0.33511 0.0
O90 O 0.17291 0.8104 0.30265 0.0
Fe91 Fe 0.14317 0.79534 0.28702 0.0
O92 O 0.1243 0.82788 0.28881 0.0
O93 O 0.15732 0.85401 0.27003 0.0
O94 O 0.1833 0.86121 0.31585 0.0
C95 C 0.19213 0.85587 0.3403 0.0
C96 C 0.17882 0.80741 0.24046 0.0
O97 O 0.19901 0.83101 0.34741 0.0
C98 C 0.16702 0.748 0.30674 0.0
O99 O 0.22553 0.8285 0.29967 0.0
O100 O 0.2185 0.78737 0.31972 0.0
O101 O 0.15466 0.80238 0.25052 0.0
O102 O 0.19766 0.81789 0.25555 0.0
C103 C 0.12913 0.79768 0.34445 0.0
O104 O 0.17332 0.76087 0.32911 0.0
O105 O 0.1606 0.76168 0.28487 0.0
C106 C 0.23509 0.80539 0.30979 0.0
O107 O 0.15268 0.80678 0.35185 0.0
O108 O 0.12595 0.78627 0.32071 0.0
C109 C 0.13181 0.85038 0.2773 0.0
Fe110 Fe 0.10018 0.54823 0.94648 0.0
Fe111 Fe 0.06055 0.56422 0.89792 0.0
O112 O 0.0774 0.57275 0.9297 0.0
Fe113 Fe 0.07239 0.60625 0.94486 0.0
O114 O 0.10911 0.61369 0.94038 0.0
O115 O 0.12359 0.57502 0.96137 0.0
O116 O 0.12326 0.54798 0.91705 0.0
C117 C 0.11676 0.54391 0.89185 0.0
C118 C 0.07479 0.56876 0.99248 0.0
O119 O 0.09119 0.54417 0.88377 0.0
C120 C 0.01875 0.59456 0.92985 0.0
O121 O 0.08218 0.51685 0.93378 0.0
O122 O 0.0443 0.53345 0.91312 0.0
O123 O 0.07734 0.59331 0.98184 0.0
O124 O 0.07788 0.54757 0.97709 0.0
C125 C 0.07391 0.61879 0.8864 0.0
O126 O 0.02759 0.58387 0.90687 0.0
O127 O 0.03552 0.60038 0.9494 0.0
C128 C 0.05809 0.5131 0.92329 0.0
O129 O 0.07576 0.59348 0.87988 0.0
O130 O 0.0665 0.62564 0.91107 0.0
C131 C 0.12864 0.59889 0.95065 0.0
Fe132 Fe 0.80374 0.64767 0.30434 0.0
Fe133 Fe 0.84734 0.69369 0.30686 0.0
O134 O 0.8162 0.67857 0.31952 0.0
Fe135 Fe 0.79745 0.69413 0.34734 0.0
O136 O 0.7668 0.69933 0.32539 0.0
O137 O 0.76583 0.65559 0.31157 0.0
O138 O 0.79921 0.66515 0.27104 0.0
C139 C 0.81982 0.67395 0.25704 0.0
C140 C 0.79431 0.63546 0.35877 0.0
O141 O 0.84204 0.68185 0.2697 0.0
C142 C 0.85044 0.70079 0.36664 0.0
O143 O 0.83928 0.63386 0.29436 0.0
O144 O 0.86745 0.66268 0.31588 0.0
O145 O 0.78419 0.66013 0.3618 0.0
O146 O 0.80802 0.62925 0.33705 0.0
C147 C 0.81723 0.74099 0.315 0.0
O148 O 0.85811 0.70801 0.34187 0.0
O149 O 0.82691 0.68962 0.37059 0.0
C150 C 0.86348 0.63956 0.3041 0.0
O151 O 0.82879 0.72533 0.29719 0.0
O152 O 0.80791 0.73069 0.33798 0.0
C153 C 0.75329 0.67894 0.31585 0.0
Fe154 Fe 0.89858 0.94437 0.94127 0.0
Fe155 Fe 0.94523 0.93072 0.89868 0.0
O156 O 0.92924 0.92535 0.93185 0.0
Fe157 Fe 0.94375 0.89997 0.9553 0.0
O158 O 0.91268 0.87965 0.95336 0.0
O159 O 0.88231 0.91416 0.96002 0.0
O160 O 0.87984 0.93201 0.91143 0.0
C161 C 0.88712 0.9329 0.88617 0.0
C162 C 0.92424 0.94266 0.99217 0.0
O163 O 0.9121 0.93928 0.87943 0.0
C164 C 0.99171 0.92289 0.93664 0.0
O165 O 0.90969 0.97732 0.9232 0.0
O166 O 0.95174 0.96683 0.90627 0.0
O167 O 0.93174 0.91752 0.98762 0.0
O168 O 0.91494 0.95785 0.97245 0.0
C169 C 0.94784 0.87399 0.90292 0.0
O170 O 0.98151 0.92278 0.91181 0.0
O171 O 0.97584 0.91938 0.9576 0.0
C172 C 0.93339 0.98477 0.91317 0.0
O173 O 0.93897 0.89494 0.88929 0.0
O174 O 0.95783 0.87682 0.92741 0.0
C175 C 0.8878 0.88823 0.95632 0.0
Fe176 Fe 0.39974 0.44498 0.44464 0.0
Fe177 Fe 0.44163 0.42871 0.39835 0.0
O178 O 0.42915 0.42521 0.43327 0.0
Fe179 Fe 0.44627 0.40114 0.45642 0.0
O180 O 0.41526 0.38077 0.4598 0.0
O181 O 0.38486 0.41569 0.46595 0.0
O182 O 0.37799 0.43189 0.41714 0.0
C183 C 0.38265 0.43259 0.39126 0.0
C184 C 0.42932 0.44515 0.49336 0.0
O185 O 0.40715 0.43753 0.38213 0.0
C186 C 0.49179 0.4226 0.43096 0.0
O187 O 0.40984 0.47706 0.42439 0.0
O188 O 0.44968 0.46502 0.40344 0.0
O189 O 0.43779 0.42029 0.48896 0.0
O190 O 0.41884 0.45954 0.47368 0.0
C191 C 0.44388 0.37227 0.40538 0.0
O192 O 0.47879 0.42032 0.40771 0.0
O193 O 0.4786 0.42059 0.45387 0.0
C194 C 0.4326 0.48363 0.41176 0.0
O195 O 0.4336 0.39261 0.3917 0.0
O196 O 0.4568 0.37637 0.42831 0.0
C197 C 0.39102 0.38957 0.46584 0.0
Fe198 Fe 0.28585 0.79899 0.63957 0.0
Fe199 Fe 0.29659 0.84589 0.68074 0.0
O200 O 0.30621 0.8132 0.66682 0.0
Fe201 Fe 0.33582 0.79482 0.68005 0.0
O202 O 0.31436 0.76536 0.6901 0.0
O203 O 0.29338 0.76175 0.64933 0.0
O204 O 0.25524 0.7976 0.66209 0.0
C205 C 0.24416 0.81951 0.67207 0.0
C206 C 0.33799 0.7864 0.62035 0.0
O207 O 0.25847 0.84166 0.67463 0.0
C208 C 0.35628 0.84766 0.68038 0.0
O209 O 0.27488 0.83372 0.62436 0.0
O210 O 0.30198 0.86246 0.64722 0.0
O211 O 0.34527 0.77908 0.64527 0.0
O212 O 0.3154 0.79985 0.61614 0.0
C213 C 0.31022 0.819 0.72901 0.0
O214 O 0.3327 0.85631 0.68945 0.0
O215 O 0.35919 0.82314 0.67112 0.0
C216 C 0.28689 0.85737 0.6263 0.0
O217 O 0.291 0.83062 0.71483 0.0
O218 O 0.33141 0.80783 0.71678 0.0
C219 C 0.30143 0.75085 0.67249 0.0
Fe220 Fe 0.07299 0.39474 0.56529 0.0
Fe221 Fe 0.10435 0.45034 0.56753 0.0
O222 O 0.07582 0.42924 0.57817 0.0
Fe223 Fe 0.05126 0.44279 0.6027 0.0
O224 O 0.05955 0.41574 0.62745 0.0
O225 O 0.06023 0.3795 0.59913 0.0
O226 O 0.10758 0.38524 0.57801 0.0
C227 C 0.12989 0.39714 0.57099 0.0
C228 C 0.01734 0.40989 0.56649 0.0
O229 O 0.12908 0.42139 0.56018 0.0
C230 C 0.05967 0.49023 0.57363 0.0
O231 O 0.08607 0.40475 0.52942 0.0
O232 O 0.09218 0.45067 0.53186 0.0
O233 O 0.02122 0.42336 0.58895 0.0
O234 O 0.03779 0.4011 0.55207 0.0
C235 C 0.10336 0.45815 0.62388 0.0
O236 O 0.08559 0.48382 0.57276 0.0
O237 O 0.04192 0.47158 0.57932 0.0
C238 C 0.08984 0.42866 0.5175 0.0
O239 O 0.11751 0.45 0.60303 0.0
O240 O 0.07735 0.4637 0.6217 0.0
C241 C 0.06168 0.3898 0.6237 0.0
Fe242 Fe 0.96072 0.05894 0.59788 0.0
Fe243 Fe 0.95022 0.09926 0.54822 0.0
O244 O 0.93771 0.07399 0.5725 0.0
Fe245 Fe 0.9021 0.06381 0.57221 0.0
O246 O 0.8972 0.07589 0.60769 0.0
O247 O 0.93303 0.05234 0.62475 0.0
O248 O 0.96587 0.09268 0.61359 0.0
C249 C 0.97393 0.11418 0.60027 0.0
C250 C 0.93279 0.01279 0.58161 0.0
O251 O 0.97418 0.11538 0.5736 0.0
C252 C 0.91304 0.06579 0.51594 0.0
O253 O 0.99294 0.06306 0.5766 0.0
O254 O 0.97717 0.07555 0.53515 0.0
O255 O 0.91007 0.02709 0.5835 0.0
O256 O 0.95639 0.02459 0.58281 0.0
C257 C 0.899 0.12241 0.56196 0.0
O258 O 0.92753 0.08777 0.5191 0.0
O259 O 0.90476 0.05155 0.53671 0.0
C260 C 0.99711 0.06702 0.55053 0.0
O261 O 0.92511 0.12497 0.55972 0.0
O262 O 0.88781 0.09841 0.56096 0.0
C263 C 0.90988 0.06534 0.6284 0.0
Fe264 Fe 0.69732 0.70109 0.66173 0.0
Fe265 Fe 0.70214 0.66088 0.71228 0.0
O266 O 0.68428 0.68829 0.694 0.0
Fe267 Fe 0.65298 0.70278 0.70808 0.0
O268 O 0.66845 0.73697 0.71084 0.0
O269 O 0.68532 0.73755 0.66765 0.0
O270 O 0.72997 0.71079 0.67776 0.0
C271 C 0.74664 0.69305 0.68845 0.0
C272 C 0.64151 0.70115 0.65013 0.0
O273 O 0.73738 0.67091 0.69998 0.0
C274 C 0.64507 0.64713 0.71694 0.0
O275 O 0.71138 0.66688 0.65004 0.0
O276 O 0.69842 0.6371 0.68324 0.0
O277 O 0.63698 0.71185 0.67395 0.0
O278 O 0.66549 0.69193 0.64376 0.0
C279 C 0.68665 0.69293 0.75644 0.0
O280 O 0.66976 0.64536 0.72692 0.0
O281 O 0.63616 0.66941 0.70548 0.0
C282 C 0.70638 0.64206 0.65842 0.0
O283 O 0.70707 0.68303 0.74262 0.0
O284 O 0.6628 0.69625 0.74497 0.0
C285 C 0.67812 0.75022 0.68995 0.0
Fe286 Fe 0.68645 0.34161 0.78469 0.0
Fe287 Fe 0.68015 0.30399 0.83683 0.0
O288 O 0.66826 0.31539 0.80355 0.0
Fe289 Fe 0.63776 0.30055 0.78913 0.0
O290 O 0.62028 0.33391 0.78939 0.0
O291 O 0.65407 0.35698 0.76797 0.0
O292 O 0.68143 0.36671 0.81235 0.0
C293 C 0.6893 0.36285 0.83736 0.0
C294 C 0.67316 0.30795 0.74154 0.0
O295 O 0.69434 0.33835 0.84694 0.0
C296 C 0.66099 0.25368 0.81103 0.0
O297 O 0.72164 0.33114 0.79857 0.0
O298 O 0.71337 0.29242 0.82256 0.0
O299 O 0.64885 0.30516 0.75211 0.0
O300 O 0.69277 0.31795 0.75592 0.0
C301 C 0.62412 0.30589 0.84651 0.0
O302 O 0.66767 0.26749 0.83276 0.0
O303 O 0.65397 0.26629 0.78868 0.0
C304 C 0.73043 0.30881 0.81079 0.0
O305 O 0.64779 0.3153 0.85296 0.0
O306 O 0.62058 0.29362 0.82329 0.0
C307 C 0.62861 0.35519 0.77618 0.0
Fe308 Fe 0.60503 0.04556 0.44884 0.0
Fe309 Fe 0.5666 0.06002 0.39886 0.0
O310 O 0.58247 0.06947 0.43085 0.0
Fe311 Fe 0.57666 0.10329 0.44503 0.0
O312 O 0.61338 0.111 0.44121 0.0
O313 O 0.62772 0.07304 0.46361 0.0
O314 O 0.62893 0.04477 0.42006 0.0
C315 C 0.6231 0.04029 0.39476 0.0
C316 C 0.57795 0.06711 0.49349 0.0
O317 O 0.5978 0.04013 0.386 0.0
C318 C 0.52366 0.09025 0.4291 0.0
O319 O 0.5877 0.01361 0.43648 0.0
O320 O 0.55037 0.02944 0.41435 0.0
O321 O 0.58086 0.09136 0.48234 0.0
O322 O 0.58189 0.04548 0.47888 0.0
C323 C 0.57882 0.11457 0.38626 0.0
O324 O 0.53322 0.07922 0.4066 0.0
O325 O 0.53977 0.09711 0.44884 0.0
C326 C 0.56395 0.00946 0.42542 0.0
O327 O 0.58174 0.08916 0.38048 0.0
O328 O 0.57122 0.12177 0.41076 0.0
C329 C 0.63279 0.09668 0.45238 0.0
Fe330 Fe 0.30102 0.14844 0.80897 0.0
Fe331 Fe 0.3446 0.19451 0.81077 0.0
O332 O 0.31383 0.1792 0.82407 0.0
Fe333 Fe 0.29583 0.19446 0.85253 0.0
O334 O 0.26474 0.20004 0.83137 0.0
O335 O 0.26321 0.15643 0.81714 0.0
O336 O 0.29563 0.16614 0.77594 0.0
C337 C 0.31578 0.17528 0.76153 0.0
C338 C 0.29266 0.13566 0.86339 0.0
O339 O 0.33838 0.18295 0.77366 0.0
C340 C 0.34924 0.20086 0.87051 0.0
O341 O 0.33643 0.13466 0.7981 0.0
O342 O 0.365 0.16353 0.81906 0.0
O343 O 0.28268 0.16033 0.86688 0.0
O344 O 0.30611 0.12978 0.84143 0.0
C345 C 0.31504 0.24177 0.82035 0.0
O346 O 0.3562 0.20845 0.84564 0.0
O347 O 0.32587 0.18951 0.87495 0.0
C348 C 0.36077 0.14033 0.80757 0.0
O349 O 0.32574 0.22623 0.80191 0.0
O350 O 0.30624 0.23113 0.8434 0.0
C351 C 0.2509 0.17983 0.82192 0.0
C352 C 0.05246 0.2165 0.88465 0.0
C353 C 0.01375 0.24055 0.98537 0.0
C354 C 0.93399 0.23569 0.95037 0.0
Mg355 Mg 0.02597 0.22495 0.82546 0.0
Mg356 Mg 0.98268 0.27617 0.80906 0.0
O357 O 0.98914 0.2452 0.83247 0.0
Mg358 Mg 0.99278 0.25025 0.87426 0.0
O359 O -0.00042 0.25078 0.91588 0.0
Mg360 Mg 0.99647 0.20947 0.92522 0.0
Mg361 Mg 0.98134 0.27544 0.93987 0.0
C362 C 0.93377 0.28316 0.85434 0.0
O363 O 0.00506 0.29785 0.87327 0.0
O364 O 0.01101 0.21854 0.78091 0.0
O365 O 0.989 0.31299 0.91551 0.0
O366 O 0.04798 0.26396 0.80682 0.0
O367 O 0.98169 0.25419 0.76916 0.0
O368 O 0.01953 0.30124 0.8085 0.0
O369 O 0.98012 0.20421 0.87984 0.0
O370 O 0.00285 0.18611 0.84304 0.0
C371 C 0.98682 0.18317 0.86459 0.0
C372 C 0.99551 0.23176 0.76306 0.0
O373 O 0.94602 0.26718 0.87291 0.0
O374 O 0.01314 0.21948 0.96882 0.0
O375 O 0.94538 0.29028 0.83094 0.0
O376 O 0.95161 0.21564 0.94573 0.0
O377 O 0.00355 0.26471 0.97851 0.0
O378 O 0.93958 0.26103 0.94397 0.0
O379 O 0.0379 0.2344 0.87059 0.0
O380 O 0.04203 0.20429 0.90641 0.0
C381 C 0.0432 0.29007 0.80239 0.0
C382 C -0.00053 0.31751 0.89101 0.0
C383 C 0.55441 0.71191 0.37762 0.0
C384 C 0.52215 0.7327 0.48125 0.0
C385 C 0.43994 0.73156 0.44933 0.0
Mg386 Mg 0.52422 0.72445 0.32009 0.0
Mg387 Mg 0.48232 0.77847 0.31134 0.0
O388 O 0.48854 0.74505 0.33104 0.0
Mg389 Mg 0.49537 0.74771 0.37249 0.0
O390 O 0.50498 0.74614 0.41344 0.0
Mg391 Mg 0.50067 0.70463 0.42107 0.0
Mg392 Mg 0.48816 0.77014 0.43901 0.0
C393 C 0.43636 0.78349 0.35918 0.0
O394 O 0.50898 0.7949 0.37273 0.0
O395 O 0.50558 0.7221 0.27603 0.0
O396 O 0.49589 0.80866 0.41638 0.0
O397 O 0.5464 0.76406 0.30255 0.0
O398 O 0.47726 0.7601 0.27025 0.0
O399 O 0.52014 0.80186 0.3108 0.0
O400 O 0.48182 0.70195 0.37647 0.0
O401 O 0.50103 0.68495 0.3372 0.0
C402 C 0.48669 0.68144 0.35989 0.0
C403 C 0.48921 0.73774 0.26103 0.0
O404 O 0.44912 0.7656 0.3755 0.0
O405 O 0.52028 0.71224 0.46405 0.0
O406 O 0.44701 0.79254 0.33603 0.0
O407 O 0.45687 0.71115 0.44383 0.0
O408 O 0.51164 0.75711 0.47597 0.0
O409 O 0.44619 0.75687 0.44361 0.0
O410 O 0.53965 0.73071 0.36496 0.0
O411 O 0.54485 0.69928 0.39957 0.0
C412 C 0.54253 0.79062 0.30116 0.0
C413 C 0.50516 0.8139 0.39156 0.0
C414 C 0.97191 0.81524 0.63707 0.0
C415 C 0.97219 0.76338 0.73887 0.0
C416 C 0.03813 0.7183 0.70909 0.0
Mg417 Mg 0.99541 0.79162 0.57792 0.0
Mg418 Mg 0.99378 0.7249 0.56364 0.0
O419 O 0.00591 0.75182 0.58854 0.0
Mg420 Mg 0.99267 0.75069 0.62868 0.0
O421 O 0.98095 0.75342 0.66932 0.0
Mg422 Mg 0.01087 0.77962 0.68275 0.0
Mg423 Mg 0.97818 0.72022 0.69036 0.0
C424 C 0.01341 0.68617 0.61449 0.0
O425 O 0.95202 0.72633 0.62156 0.0
O426 O 0.01916 0.78468 0.53662 0.0
O427 O 0.95021 0.69976 0.66128 0.0
O428 O 0.95517 0.77835 0.55177 0.0
O429 O 0.01691 0.73856 0.52714 0.0
O430 O 0.95061 0.73198 0.55511 0.0
O431 O 0.03177 0.77399 0.63947 0.0
O432 O 0.03616 0.80307 0.60265 0.0
C433 C 0.04491 0.79343 0.62647 0.0
C434 C 0.02433 0.7636 0.52073 0.0
O435 O 0.01295 0.70608 0.63264 0.0
O436 O 0.98754 0.78054 0.7248 0.0
O437 O 0.00559 0.6892 0.58884 0.0
O438 O 0.03753 0.74485 0.70499 0.0
O439 O 0.96472 0.73941 0.7295 0.0
O440 O 0.01892 0.70273 0.69934 0.0
O441 O 0.97266 0.79388 0.62088 0.0
O442 O 0.98321 0.81426 0.66159 0.0
C443 C 0.94181 0.75576 0.54623 0.0
C444 C 0.94122 0.70655 0.63659 0.0
C445 C 0.86586 0.99667 0.18641 0.0
C446 C 0.76325 0.99566 0.23833 0.0
C447 C 0.80181 0.04597 0.29484 0.0
Mg448 Mg 0.9251 0.01033 0.21481 0.0
Mg449 Mg 0.93837 0.99368 0.28117 0.0
O450 O 0.91435 0.01139 0.25588 0.0
Mg451 Mg 0.87394 0.00092 0.25366 0.0
O452 O 0.83296 0.9933 0.24757 0.0
Mg453 Mg 0.82233 0.0303 0.22876 0.0
Mg454 Mg 0.81286 0.98717 0.28063 0.0
C455 C 0.88709 0.00712 0.32131 0.0
O456 O 0.87764 0.95436 0.27007 0.0
O457 O 0.96706 0.03008 0.22771 0.0
O458 O 0.83722 0.95172 0.29516 0.0
O459 O 0.9486 0.96714 0.21969 0.0
O460 O 0.97399 0.02032 0.27378 0.0
O461 O 0.94776 0.95345 0.26469 0.0
O462 O 0.8662 0.04527 0.23874 0.0
O463 O 0.90241 0.05397 0.21041 0.0
C464 C 0.87918 0.0616 0.22194 0.0
C465 C 0.98148 0.03173 0.25046 0.0
O466 O 0.87025 0.01229 0.30072 0.0
O467 O 0.77865 0.01171 0.22301 0.0
O468 O 0.91229 0.99778 0.31809 0.0
O469 O 0.8026 0.0504 0.26834 0.0
O470 O 0.77202 0.98387 0.26112 0.0
O471 O 0.81307 0.02398 0.30537 0.0
O472 O 0.8813 0.99065 0.20772 0.0
O473 O 0.84233 0.00995 0.18916 0.0
C474 C 0.95446 0.94919 0.23912 0.0
C475 C 0.86096 0.94144 0.28722 0.0
C476 C 0.21719 0.86993 0.0453 0.0
C477 C 0.23788 0.97398 0.03017 0.0
C478 C 0.24301 0.95449 0.94333 0.0
Mg479 Mg 0.23009 0.81552 0.01145 0.0
Mg480 Mg 0.28516 0.80848 0.97136 0.0
O481 O 0.25204 0.82882 0.97753 0.0
Mg482 Mg 0.25506 0.86953 0.98801 0.0
O483 O 0.25309 0.90934 0.00143 0.0
Mg484 Mg 0.21183 0.91829 0.99633 0.0
Mg485 Mg 0.27856 0.93743 0.99439 0.0
C486 C 0.29318 0.86044 0.93011 0.0
O487 O 0.30144 0.86725 0.00412 0.0
O488 O 0.22757 0.7729 0.99017 0.0
O489 O 0.31606 0.91236 0.0013 0.0
O490 O 0.26899 0.79629 0.03426 0.0
O491 O 0.26627 0.76805 0.96307 0.0
O492 O 0.30787 0.80431 0.00972 0.0
O493 O 0.20996 0.87583 0.97288 0.0
O494 O 0.19154 0.83542 0.98812 0.0
C495 C 0.18901 0.85937 0.97559 0.0
C496 C 0.24342 0.75853 0.9737 0.0
O497 O 0.27523 0.87616 0.9433 0.0
O498 O 0.21755 0.95895 0.0214 0.0
O499 O 0.30092 0.83602 0.93905 0.0
O500 O 0.2211 0.94497 0.95583 0.0
O501 O 0.26364 0.96866 0.02401 0.0
O502 O 0.26773 0.95102 0.95326 0.0
O503 O 0.23628 0.85867 0.03013 0.0
O504 O 0.20474 0.89271 0.03753 0.0
C505 C 0.2957 0.79478 0.0316 0.0
C506 C 0.32061 0.88609 0.00568 0.0
C507 C 0.12897 0.44747 0.20729 0.0
C508 C 0.02185 0.45597 0.23278 0.0
C509 C 0.04034 0.54109 0.25005 0.0
Mg510 Mg 0.18169 0.48396 0.22415 0.0
Mg511 Mg 0.18544 0.51754 0.2838 0.0
O512 O 0.16497 0.51205 0.25096 0.0
Mg513 Mg 0.12542 0.49758 0.25274 0.0
O514 O 0.0867 0.48157 0.2495 0.0
Mg515 Mg 0.07673 0.49348 0.21 0.0
Mg516 Mg 0.05906 0.48615 0.27645 0.0
C517 C 0.12853 0.55037 0.2972 0.0
O518 O 0.12914 0.47461 0.29701 0.0
O519 O 0.22145 0.51102 0.22338 0.0
O520 O 0.08379 0.47139 0.31136 0.0
O521 O 0.2045 0.45834 0.25948 0.0
O522 O 0.22318 0.53445 0.26437 0.0
O523 O 0.19685 0.47766 0.30126 0.0
O524 O 0.11762 0.5191 0.20989 0.0
O525 O 0.15898 0.50976 0.18941 0.0
C526 C 0.13398 0.5202 0.18845 0.0
C527 C 0.23336 0.52809 0.24023 0.0
O528 O 0.11445 0.53758 0.2781 0.0
O529 O 0.03747 0.46571 0.21306 0.0
O530 O 0.15396 0.54364 0.30381 0.0
O531 O 0.04812 0.53119 0.22616 0.0
O532 O 0.02647 0.46084 0.2588 0.0
O533 O 0.04638 0.52871 0.27317 0.0
O534 O 0.14009 0.46 0.22812 0.0
O535 O 0.10514 0.45554 0.19708 0.0
C536 C 0.20764 0.45835 0.2862 0.0
C537 C 0.11023 0.46744 0.3152 0.0
C538 C 0.69166 0.63178 0.02937 0.0
C539 C 0.74044 0.7308 0.04964 0.0
C540 C 0.78151 0.71671 0.97406 0.0
Mg541 Mg 0.71476 0.58063 0.99377 0.0
Mg542 Mg 0.78148 0.56449 0.98466 0.0
O543 O 0.75436 0.59247 0.98488 0.0
Mg544 Mg 0.75627 0.62922 0.00566 0.0
O545 O 0.75286 0.66643 0.02488 0.0
Mg546 Mg 0.72345 0.68507 0.00038 0.0
Mg547 Mg 0.7855 0.68742 0.029 0.0
C548 C 0.81894 0.61871 0.97458 0.0
O549 O 0.78267 0.61592 0.04558 0.0
O550 O 0.71889 0.5446 0.96208 0.0
O551 O 0.80873 0.65505 0.0513 0.0
O552 O 0.7302 0.54891 0.02808 0.0
O553 O 0.7647 0.53663 0.95343 0.0
O554 O 0.77703 0.5447 0.02459 0.0
O555 O 0.7306 0.6479 0.96991 0.0
O556 O 0.70227 0.61269 0.95869 0.0
C557 C 0.71146 0.63762 0.95439 0.0
C558 C 0.73869 0.53137 0.94936 0.0
O559 O 0.80032 0.63642 0.98371 0.0
O560 O 0.72202 0.71956 0.03366 0.0
O561 O 0.81565 0.59201 0.97495 0.0
O562 O 0.7551 0.71315 0.97689 0.0
O563 O 0.76617 0.72249 0.05085 0.0
O564 O 0.79913 0.70309 0.98917 0.0
O565 O 0.71384 0.61733 0.02443 0.0
O566 O 0.69067 0.65811 0.02397 0.0
C567 C 0.7538 0.53867 0.03658 0.0
C568 C 0.80223 0.62978 0.05817 0.0
C569 C 0.19197 0.1354 0.51297 0.0
C570 C 0.24327 0.23341 0.52903 0.0
C571 C 0.29917 0.20684 0.46887 0.0
Mg572 Mg 0.2156 0.07876 0.48986 0.0
Mg573 Mg 0.28109 0.05663 0.49514 0.0
O574 O 0.25709 0.08607 0.48626 0.0
Mg575 Mg 0.25909 0.12501 0.50249 0.0
O576 O 0.2555 0.16478 0.51583 0.0
Mg577 Mg 0.2338 0.18185 0.48324 0.0
Mg578 Mg 0.28725 0.1845 0.52602 0.0
C579 C 0.32384 0.10616 0.48201 0.0
O580 O 0.27777 0.11471 0.54769 0.0
O581 O 0.22135 0.03943 0.46295 0.0
O582 O 0.30303 0.15396 0.5556 0.0
O583 O 0.22271 0.04983 0.52947 0.0
O584 O 0.26621 0.02474 0.46661 0.0
O585 O 0.26909 0.04547 0.53659 0.0
O586 O 0.24227 0.14023 0.46059 0.0
O587 O 0.21129 0.10712 0.44992 0.0
C588 C 0.2243 0.12986 0.44385 0.0
C589 C 0.24125 0.02217 0.45689 0.0
O590 O 0.30589 0.12617 0.48659 0.0
O591 O 0.22891 0.22166 0.50964 0.0
O592 O 0.31839 0.08005 0.48574 0.0
O593 O 0.27276 0.20455 0.46442 0.0
O594 O 0.26599 0.22268 0.5392 0.0
O595 O 0.3109 0.1939 0.48933 0.0
O596 O 0.21341 0.11919 0.51565 0.0
O597 O 0.19438 0.16019 0.50247 0.0
C598 C 0.24376 0.04085 0.544 0.0
C599 C 0.2953 0.1291 0.56245 0.0
C600 C 0.37332 0.55872 0.71759 0.0
C601 C 0.47843 0.52776 0.74197 0.0
C602 C 0.44842 0.44646 0.73729 0.0
Mg603 Mg 0.31706 0.5264 0.72794 0.0
Mg604 Mg 0.31038 0.48618 0.783 0.0
O605 O 0.3293 0.49119 0.74906 0.0
Mg606 Mg 0.3702 0.49978 0.7531 0.0
O607 O 0.41071 0.51089 0.75299 0.0
Mg608 Mg 0.4192 0.50699 0.71153 0.0
Mg609 Mg 0.43571 0.49295 0.77726 0.0
C610 C 0.35947 0.44167 0.79011 0.0
O611 O 0.36864 0.51335 0.79988 0.0
O612 O 0.27394 0.50596 0.72502 0.0
O613 O 0.41195 0.50009 0.81523 0.0
O614 O 0.29759 0.54814 0.76673 0.0
O615 O 0.26946 0.47987 0.76475 0.0
O616 O 0.30918 0.52457 0.80535 0.0
O617 O 0.37568 0.48695 0.70771 0.0
O618 O 0.33633 0.50443 0.68855 0.0
C619 C 0.36001 0.49137 0.68629 0.0
C620 C 0.2597 0.4901 0.74165 0.0
O621 O 0.3752 0.45406 0.77168 0.0
O622 O 0.46163 0.5268 0.72088 0.0
O623 O 0.33605 0.45214 0.7987 0.0
O624 O 0.44284 0.46409 0.71753 0.0
O625 O 0.47267 0.5166 0.76593 0.0
O626 O 0.44148 0.45136 0.76266 0.0
O627 O 0.36094 0.54331 0.73576 0.0
O628 O 0.39622 0.55041 0.70582 0.0
C629 C 0.29697 0.54536 0.79345 0.0
C630 C 0.38691 0.50943 0.81955 0.0
C631 C 0.71617 0.37288 0.54905 0.0
C632 C 0.74327 0.47685 0.53522 0.0
C633 C 0.74595 0.45723 0.44813 0.0
Mg634 Mg 0.72723 0.31853 0.5136 0.0
Mg635 Mg 0.7828 0.31089 0.47456 0.0
O636 O 0.74993 0.33185 0.48026 0.0
Mg637 Mg 0.75441 0.37212 0.49192 0.0
O638 O 0.75442 0.41159 0.5064 0.0
Mg639 Mg 0.71364 0.42268 0.50156 0.0
Mg640 Mg 0.78125 0.43827 0.49853 0.0
C641 C 0.79249 0.36283 0.43384 0.0
O642 O 0.80062 0.36733 0.50814 0.0
O643 O 0.72401 0.27633 0.49164 0.0
O644 O 0.81762 0.41155 0.50532 0.0
O645 O 0.76526 0.29788 0.53684 0.0
O646 O 0.76344 0.27087 0.46574 0.0
O647 O 0.80476 0.30582 0.51327 0.0
O648 O 0.70948 0.38076 0.47723 0.0
O649 O 0.68985 0.33988 0.48933 0.0
C650 C 0.68809 0.36463 0.47833 0.0
C651 C 0.74011 0.26172 0.47561 0.0
O652 O 0.77499 0.37889 0.44726 0.0
O653 O 0.72188 0.46286 0.52713 0.0
O654 O 0.79965 0.33818 0.44259 0.0
O655 O 0.72385 0.44911 0.46123 0.0
O656 O 0.76851 0.4703 0.52815 0.0
O657 O 0.77068 0.45226 0.45743 0.0
O658 O 0.73461 0.36107 0.53347 0.0
O659 O 0.70529 0.39671 0.54221 0.0
C660 C 0.79201 0.29612 0.53475 0.0
C661 C 0.82077 0.38511 0.50978 0.0
C662 C 0.63453 0.02201 0.68996 0.0
C663 C 0.7384 0.0248 0.73371 0.0
C664 C 0.71269 0.95784 0.78286 0.0
Mg665 Mg 0.57716 -0.00162 0.71428 0.0
Mg666 Mg 0.56161 0.98598 0.78074 0.0
O667 O 0.58895 0.98638 0.75314 0.0
Mg668 Mg 0.62894 -0.0002 0.75459 0.0
O669 O 0.66928 0.01203 0.75033 0.0
Mg670 Mg 0.6829 0.98333 0.72252 0.0
Mg671 Mg 0.69293 0.01805 0.7808 0.0
C672 C 0.61535 0.96863 0.81733 0.0
O673 O 0.62184 0.04015 0.78081 0.0
O674 O 0.53737 0.97139 0.71785 0.0
O675 O 0.66385 0.04569 0.80249 0.0
O676 O 0.5496 0.03578 0.73268 0.0
O677 O 0.5311 0.95811 0.7628 0.0
O678 O 0.54452 0.0274 0.77898 0.0
O679 O 0.64044 0.96128 0.72914 0.0
O680 O 0.60335 0.95991 0.70018 0.0
C681 C 0.62704 0.94997 0.70891 0.0
C682 C 0.52414 0.95757 0.73682 0.0
O683 O 0.63364 0.97628 0.79866 0.0
O684 O 0.72414 0.00802 0.71848 0.0
O685 O 0.58872 0.97188 0.81422 0.0
O686 O 0.70728 0.95714 0.75649 0.0
O687 O 0.72998 0.03286 0.75804 0.0
O688 O 0.70412 0.97802 0.79818 0.0
O689 O 0.61946 0.02212 0.71238 0.0
O690 O 0.65889 0.01007 0.68945 0.0
C691 C 0.5399 0.04247 0.75707 0.0
C692 C 0.63798 0.05277 0.79835 0.0
C693 C 0.4664 0.31318 0.14184 0.0
C694 C 0.46604 0.25984 0.24248 0.0
C695 C 0.53472 0.21738 0.21265 0.0
Mg696 Mg 0.49233 0.29253 0.08284 0.0
Mg697 Mg 0.49612 0.22639 0.06641 0.0
O698 O 0.50522 0.25325 0.0926 0.0
Mg699 Mg 0.49084 0.2501 0.13233 0.0
O700 O 0.47767 0.25116 0.17266 0.0
Mg701 Mg 0.5058 0.27844 0.18756 0.0
Mg702 Mg 0.47444 0.21779 0.19335 0.0
C703 C 0.51753 0.18777 0.11663 0.0
O704 O 0.45175 0.22396 0.12323 0.0
O705 O 0.51723 0.28883 0.04166 0.0
O706 O 0.44789 0.19733 0.16276 0.0
O707 O 0.45337 0.27722 0.05605 0.0
O708 O 0.51866 0.24298 0.03081 0.0
O709 O 0.4527 0.23045 0.0574 0.0
O710 O 0.5281 0.27538 0.14478 0.0
O711 O 0.53172 0.30557 0.1087 0.0
C712 C 0.54031 0.29594 0.13259 0.0
C713 C 0.52423 0.2687 0.02524 0.0
O714 O 0.51384 0.20665 0.13557 0.0
O715 O 0.48154 0.27738 0.22911 0.0
O716 O 0.51077 0.19115 0.09072 0.0
O717 O 0.53367 0.24397 0.20885 0.0
O718 O 0.45918 0.23594 0.23249 0.0
O719 O 0.5155 0.20157 0.20322 0.0
O720 O 0.46871 0.29218 0.12533 0.0
O721 O 0.47703 0.31233 0.16667 0.0
C722 C 0.44187 0.25383 0.04975 0.0
C723 C 0.44034 0.20403 0.13755 0.0
H724 H 0.05687 0.33192 0.63169 0.0
H725 H 0.05239 0.34629 0.79582 0.0
H726 H 0.0783 0.40838 0.67448 0.0
H727 H 0.06913 0.26609 0.75749 0.0
H728 H 0.064 0.36939 0.75127 0.0
H729 H 0.06202 0.30635 0.67689 0.0
C730 C 0.06277 0.34325 0.65037 0.0
C731 C 0.0663 0.37243 0.64937 0.0
C732 C 0.06585 0.34675 0.75278 0.0
C733 C 0.07244 0.3436 0.70065 0.0
C734 C 0.05952 0.33364 0.77833 0.0
C735 C 0.05981 0.30431 0.78038 0.0
C736 C 0.07165 0.33036 0.72894 0.0
C737 C 0.06883 0.28882 0.75689 0.0
C738 C 0.06588 0.3287 0.67607 0.0
C739 C 0.07444 0.38603 0.67421 0.0
N740 N 0.07362 0.30198 0.73187 0.0
N741 N 0.07686 0.37162 0.69873 0.0
H742 H 0.63724 0.66816 0.60431 0.0
H743 H 0.52658 0.76776 0.52662 0.0
H744 H 0.59762 0.73865 0.64551 0.0
H745 H 0.55116 0.68554 0.49706 0.0
H746 H 0.5523 0.75825 0.57036 0.0
H747 H 0.60525 0.67452 0.5648 0.0
C748 C 0.62159 0.68486 0.60507 0.0
C749 C 0.62013 0.70307 0.62798 0.0
C750 C 0.55181 0.74228 0.55431 0.0
C751 C 0.58369 0.7107 0.58278 0.0
C752 C 0.53731 0.74774 0.52931 0.0
C753 C 0.53693 0.72752 0.50804 0.0
C754 C 0.56614 0.71656 0.55783 0.0
C755 C 0.55097 0.70185 0.51276 0.0
C756 C 0.6033 0.68846 0.58257 0.0
C757 C 0.59935 0.72419 0.62814 0.0
N758 N 0.56514 0.6972 0.53705 0.0
N759 N 0.58209 0.7277 0.6056 0.0
H760 H 0.01897 0.11483 0.63457 0.0
H761 H 0.95609 0.24036 0.72122 0.0
H762 H 0.95045 0.16603 0.60326 0.0
H763 H 0.03611 0.20014 0.73876 0.0
H764 H 0.95607 0.21809 0.67481 0.0
H765 H 0.02914 0.15054 0.66938 0.0
C766 C 0.00656 0.13405 0.63473 0.0
C767 C 0.98396 0.13781 0.61637 0.0
C768 C 0.97379 0.21455 0.68874 0.0
C769 C 0.99443 0.17811 0.65657 0.0
C770 C 0.97371 0.22711 0.7152 0.0
C771 C 0.99563 0.22127 0.73411 0.0
C772 C 0.99598 0.19622 0.68146 0.0
C773 C 0.01825 0.20442 0.7252 0.0
C774 C 0.01222 0.15441 0.65457 0.0
C775 C 0.96818 0.16276 0.6172 0.0
N776 N 0.01766 0.19225 0.69968 0.0
N777 N 0.97331 0.18186 0.63752 0.0
H778 H 0.3316 0.80499 0.56666 0.0
H779 H 0.44089 0.69881 0.49677 0.0
H780 H 0.37686 0.74259 0.61574 0.0
H781 H 0.3893 0.75858 0.4511 0.0
H782 H 0.41399 0.70908 0.53958 0.0
H783 H 0.35054 0.78488 0.52407 0.0
C784 C 0.34573 0.78706 0.56855 0.0
C785 C 0.35264 0.77554 0.595 0.0
C786 C 0.40804 0.71934 0.52003 0.0
C787 C 0.37458 0.75205 0.54559 0.0
C788 C 0.42303 0.71309 0.49542 0.0
C789 C 0.41734 0.72796 0.47034 0.0
C790 C 0.38727 0.74056 0.51939 0.0
C791 C 0.3944 0.74668 0.46998 0.0
C792 C 0.35644 0.77542 0.54404 0.0
C793 C 0.37117 0.75234 0.59586 0.0
N794 N 0.38056 0.75277 0.4942 0.0
N795 N 0.38158 0.74136 0.57147 0.0
H796 H 0.05117 0.67256 0.88016 0.0
H797 H 0.05902 0.66488 0.71696 0.0
H798 H 0.10433 0.61159 0.83891 0.0
H799 H 0.05309 0.7458 0.75661 0.0
H800 H 0.07465 0.64438 0.76186 0.0
H801 H 0.05022 0.70045 0.83611 0.0
C802 C 0.0631 0.66536 0.86215 0.0
C803 C 0.07735 0.63941 0.86305 0.0
C804 C 0.07055 0.66676 0.76054 0.0
C805 C 0.07591 0.67065 0.81281 0.0
C806 C 0.06182 0.67845 0.73487 0.0
C807 C 0.05499 0.70709 0.73293 0.0
C808 C 0.07148 0.68363 0.78465 0.0
C809 C 0.0585 0.72367 0.75704 0.0
C810 C 0.0625 0.68117 0.83703 0.0
C811 C 0.09246 0.63107 0.83901 0.0
N812 N 0.06583 0.71159 0.78207 0.0
N813 N 0.09088 0.64627 0.81481 0.0
H814 H 0.84921 0.67528 0.41767 0.0
H815 H 0.94023 0.78927 0.4989 0.0
H816 H 0.88548 0.74636 0.37472 0.0
H817 H 0.89913 0.71893 0.53838 0.0
H818 H 0.91808 0.77709 0.45405 0.0
H819 H 0.86716 0.69245 0.46198 0.0
C820 C 0.86131 0.69443 0.41751 0.0
C821 C 0.86588 0.70933 0.39232 0.0
C822 C 0.91347 0.76469 0.47266 0.0
C823 C 0.88632 0.72962 0.44365 0.0
C824 C 0.92569 0.77194 0.49843 0.0
C825 C 0.92149 0.75512 0.52254 0.0
C826 C 0.89693 0.74048 0.47102 0.0
C827 C 0.90298 0.73251 0.52041 0.0
C828 C 0.87141 0.70438 0.44297 0.0
C829 C 0.88174 0.73402 0.39356 0.0
N830 N 0.89172 0.72571 0.49514 0.0
N831 N 0.89132 0.74348 0.41885 0.0
H832 H 0.99113 0.83555 0.90091 0.0
H833 H 0.92242 0.76091 0.76819 0.0
H834 H 0.90705 0.85238 0.87078 0.0
H835 H 0.01039 0.7802 0.7765 0.0
H836 H 0.91458 0.77777 0.81649 0.0
H837 H 0.99571 0.7978 0.86614 0.0
C838 C 0.97335 0.83057 0.8877 0.0
C839 C 0.94886 0.84711 0.88825 0.0
C840 C 0.93565 0.7777 0.80782 0.0
C841 C 0.95377 0.80443 0.84904 0.0
C842 C 0.94005 0.76826 0.78039 0.0
C843 C 0.96685 0.77008 0.7684 0.0
C844 C 0.9584 0.7883 0.82319 0.0
C845 C 0.98924 0.77931 0.78495 0.0
C846 C 0.97597 0.80922 0.86788 0.0
C847 C 0.92638 0.84013 0.87067 0.0
N848 N 0.98448 0.7883 0.81148 0.0
N849 N 0.92947 0.81948 0.85152 0.0
H850 H 0.11783 0.83555 0.38479 0.0
H851 H 0.03182 0.72676 0.47733 0.0
H852 H 0.0919 0.75521 0.3535 0.0
H853 H 0.04616 0.81276 0.50109 0.0
H854 H 0.052 0.73695 0.43112 0.0
H855 H 0.0885 0.82854 0.42621 0.0
C856 C 0.10549 0.81662 0.38653 0.0
C857 C 0.10732 0.79579 0.36605 0.0
C858 C 0.05056 0.75358 0.44644 0.0
C859 C 0.07435 0.78725 0.41353 0.0
C860 C 0.03931 0.74773 0.4729 0.0
C861 C 0.03756 0.76888 0.49321 0.0
C862 C 0.06025 0.78068 0.44038 0.0
C863 C 0.04725 0.79574 0.48619 0.0
C864 C 0.08882 0.81257 0.41016 0.0
C865 C 0.09091 0.77172 0.36898 0.0
N866 N 0.05829 0.80081 0.46041 0.0
N867 N 0.07538 0.76784 0.39267 0.0
H868 H 0.67197 0.01322 0.40537 0.0
H869 H 0.75505 0.07354 0.27441 0.0
H870 H 0.62984 0.06375 0.34227 0.0
H871 H 0.79403 0.04523 0.35177 0.0
H872 H 0.70926 0.07255 0.29763 0.0
H873 H 0.71671 0.02234 0.38251 0.0
C874 C 0.67213 0.02566 0.38615 0.0
C875 C 0.64726 0.03781 0.37565 0.0
C876 C 0.72793 0.06724 0.30968 0.0
C877 C 0.69859 0.04927 0.34989 0.0
C878 C 0.75422 0.06824 0.2966 0.0
C879 C 0.77838 0.05855 0.31096 0.0
C880 C 0.726 0.05659 0.33719 0.0
C881 C 0.77589 0.05219 0.3397 0.0
C882 C 0.69773 0.03134 0.37343 0.0
C883 C 0.64858 0.05387 0.35083 0.0
N884 N 0.75006 0.05059 0.35167 0.0
N885 N 0.67399 0.05939 0.33881 0.0
H886 H 0.24051 0.12686 0.88727 0.0
H887 H 0.27594 0.96287 0.89748 0.0
H888 H 0.322 0.08831 0.87456 0.0
H889 H 0.20543 0.99807 0.94261 0.0
H890 H 0.28535 0.00908 0.87733 0.0
H891 H 0.22195 0.08055 0.9012 0.0
C892 C 0.25463 0.10887 0.88823 0.0
C893 C 0.28282 0.1113 0.8798 0.0
C894 C 0.2674 0.00663 0.89117 0.0
C895 C 0.2616 0.05864 0.89415 0.0
C896 C 0.2617 0.98014 0.90217 0.0
C897 C 0.24011 0.97679 0.92192 0.0
C898 C 0.25153 0.02993 0.90017 0.0
C899 C 0.22232 -0.00014 0.92742 0.0
C900 C 0.24394 0.08247 0.89564 0.0
C901 C 0.30013 0.08731 0.88086 0.0
N902 N 0.22883 0.02577 0.91714 0.0
N903 N 0.28918 0.06201 0.8875 0.0
H904 H 0.37967 0.43831 0.33313 0.0
H905 H 0.25303 0.43463 0.25949 0.0
H906 H 0.32935 0.41906 0.40635 0.0
H907 H 0.21591 0.44495 0.34167 0.0
H908 H 0.29765 0.42162 0.2817 0.0
H909 H 0.33711 0.43577 0.30415 0.0
C910 C 0.35984 0.43314 0.34303 0.0
C911 C 0.35816 0.42921 0.37228 0.0
C912 C 0.27975 0.42651 0.29491 0.0
C913 C 0.30945 0.42556 0.33931 0.0
C914 C 0.254 0.43336 0.28224 0.0
C915 C 0.23075 0.44137 0.29878 0.0
C916 C 0.28214 0.42759 0.32431 0.0
C917 C 0.23334 0.43932 0.32809 0.0
C918 C 0.33552 0.43138 0.32644 0.0
C919 C 0.33185 0.42249 0.38397 0.0
N920 N 0.25865 0.43298 0.33988 0.0
N921 N 0.30866 0.4212 0.36756 0.0
H922 H 0.68379 0.36939 0.89414 0.0
H923 H 0.76635 0.51179 0.90281 0.0
H924 H 0.71115 0.41207 0.81864 0.0
H925 H 0.69432 0.49648 0.95589 0.0
H926 H 0.75417 0.47034 0.8751 0.0
H927 H 0.6956 0.41132 0.92136 0.0
C928 C 0.69237 0.38753 0.88339 0.0
C929 C 0.69638 0.38749 0.8542 0.0
C930 C 0.74106 0.47625 0.89277 0.0
C931 C 0.71033 0.43479 0.88496 0.0
C932 C 0.74798 0.49976 0.90853 0.0
C933 C 0.73115 0.50759 0.93144 0.0
C934 C 0.71775 0.46014 0.90062 0.0
C935 C 0.70761 0.49129 0.93813 0.0
C936 C 0.69895 0.41136 0.89882 0.0
C937 C 0.70751 0.41147 0.84112 0.0
N938 N 0.70176 0.46809 0.92296 0.0
N939 N 0.71437 0.43413 0.85666 0.0
H940 H 0.62858 0.9201 0.15981 0.0
H941 H 0.73011 0.0326 0.20952 0.0
H942 H 0.60704 0.00799 0.15312 0.0
H943 H 0.72949 0.95067 0.24904 0.0
H944 H 0.68249 0.02501 0.19254 0.0
H945 H 0.66184 0.93065 0.19726 0.0
C946 C 0.63039 0.94155 0.16696 0.0
C947 C 0.6156 0.96334 0.1535 0.0
C948 C 0.69253 0.00887 0.20534 0.0
C949 C 0.65393 0.97569 0.19527 0.0
C950 C 0.71983 0.01302 0.21467 0.0
C951 C 0.73388 0.99186 0.22996 0.0
C952 C 0.67952 0.9831 0.21077 0.0
C953 C 0.71944 0.96726 0.23684 0.0
C954 C 0.64926 0.94758 0.18828 0.0
C955 C 0.61834 0.99077 0.16317 0.0
N956 N 0.69316 0.96325 0.22662 0.0
N957 N 0.63788 0.99634 0.18309 0.0
H958 H 0.21484 0.08901 0.16736 0.0
H959 H 0.19232 0.00864 0.02525 0.0
H960 H 0.18259 0.13297 0.09424 0.0
H961 H 0.26752 0.99497 0.07443 0.0
H962 H 0.18041 0.04916 0.05461 0.0
H963 H 0.22595 0.04844 0.13781 0.0
C964 C 0.20973 0.08995 0.14517 0.0
C965 C 0.19775 0.11429 0.13314 0.0
C966 C 0.1995 0.03725 0.05888 0.0
C967 C 0.21017 0.06811 0.09956 0.0
C968 C 0.20625 0.01415 0.0423 0.0
C969 C 0.23094 -0.00144 0.04751 0.0
C970 C 0.21714 0.04423 0.08126 0.0
C971 C 0.24839 0.0066 0.0697 0.0
C972 C 0.21631 0.06696 0.12837 0.0
C973 C 0.19187 0.11457 0.10424 0.0
N974 N 0.24097 0.02876 0.08605 0.0
N975 N 0.19794 0.09168 0.08839 0.0
H976 H 0.35797 0.60272 0.13794 0.0
H977 H 0.28174 0.49831 0.2422 0.0
H978 H 0.39768 0.52769 0.17136 0.0
H979 H 0.24784 0.57964 0.21965 0.0
H980 H 0.32701 0.51157 0.22177 0.0
H981 H 0.3206 0.59809 0.17282 0.0
C982 C 0.35902 0.5855 0.15297 0.0
C983 C 0.38066 0.56529 0.15151 0.0
C984 C 0.30993 0.52679 0.22172 0.0
C985 C 0.33773 0.5596 0.19123 0.0
C986 C 0.28416 0.51922 0.23338 0.0
C987 C 0.26134 0.538 0.23244 0.0
C988 C 0.31258 0.55312 0.2085 0.0
C989 C 0.26515 0.56472 0.22073 0.0
C990 C 0.3377 0.58288 0.17291 0.0
C991 C 0.38127 0.54363 0.17168 0.0
N992 N 0.29025 0.57139 0.2088 0.0
N993 N 0.35978 0.54105 0.1904 0.0
H994 H 0.82044 0.38795 0.10533 0.0
H995 H 0.7106 0.503 0.04949 0.0
H996 H 0.73109 0.37468 0.11077 0.0
H997 H 0.79817 0.51834 0.0669 0.0
H998 H 0.71606 0.45575 0.06982 0.0
H999 H 0.81162 0.43427 0.08499 0.0
C1000 C 0.79891 0.3946 0.10136 0.0
C1001 C 0.77645 0.3776 0.10942 0.0
C1002 C 0.7339 0.46968 0.06954 0.0
C1003 C 0.76605 0.43104 0.08741 0.0
C1004 C 0.73074 0.49678 0.05834 0.0
C1005 C 0.7541 0.51451 0.0562 0.0
C1006 C 0.76059 0.46042 0.07845 0.0
C1007 C 0.7797 0.50526 0.06778 0.0
C1008 C 0.79384 0.4212 0.09025 0.0
C1009 C 0.74891 0.38716 0.10433 0.0
N1010 N 0.78234 0.47874 0.07802 0.0
N1011 N 0.7444 0.41355 0.09386 0.0
H1012 H 0.34385 0.62683 0.06067 0.0
H1013 H 0.35245 0.79169 0.04062 0.0
H1014 H 0.4216 0.67292 0.06041 0.0
H1015 H 0.27484 0.74956 0.0601 0.0
H1016 H 0.3784 0.74903 0.05347 0.0
H1017 H 0.31789 0.67159 0.0637 0.0
C1018 C 0.35543 0.64626 0.06116 0.0
C1019 C 0.38492 0.64606 0.05976 0.0
C1020 C 0.35571 0.74925 0.05556 0.0
C1021 C 0.35552 0.69715 0.06369 0.0
C1022 C 0.34093 0.77375 0.04848 0.0
C1023 C 0.31146 0.77406 0.04887 0.0
C1024 C 0.34086 0.72477 0.06251 0.0
C1025 C 0.29758 0.75021 0.05931 0.0
C1026 C 0.34066 0.67176 0.06319 0.0
C1027 C 0.39887 0.67191 0.061 0.0
N1028 N 0.31236 0.72625 0.065 0.0
N1029 N 0.38407 0.69629 0.06267 0.0
H1030 H 0.39527 0.34755 0.50377 0.0
H1031 H 0.27615 0.25222 0.44039 0.0
H1032 H 0.34192 0.38026 0.43779 0.0
H1033 H 0.35455 0.22057 0.47464 0.0
H1034 H 0.29528 0.29975 0.44089 0.0
H1035 H 0.37295 0.30197 0.49942 0.0
C1036 C 0.37797 0.34538 0.48916 0.0
C1037 C 0.37015 0.36771 0.47134 0.0
C1038 C 0.30838 0.28226 0.44776 0.0
C1039 C 0.34544 0.31526 0.46522 0.0
C1040 C 0.29769 0.25501 0.44711 0.0
C1041 C 0.31354 0.23227 0.45811 0.0
C1042 C 0.3349 0.2867 0.45968 0.0
C1043 C 0.34131 0.23739 0.46646 0.0
C1044 C 0.36571 0.31921 0.48619 0.0
C1045 C 0.34809 0.36366 0.45227 0.0
N1046 N 0.35084 0.26409 0.4677 0.0
N1047 N 0.33661 0.33773 0.44944 0.0
H1048 H 0.61781 0.37556 0.72263 0.0
H1049 H 0.45878 0.39933 0.76861 0.0
H1050 H 0.58713 0.37607 0.80799 0.0
H1051 H 0.49079 0.44683 0.698 0.0
H1052 H 0.50512 0.37769 0.77467 0.0
H1053 H 0.57153 0.39398 0.70668 0.0
C1054 C 0.60174 0.38053 0.73803 0.0
C1055 C 0.6062 0.37455 0.76667 0.0
C1056 C 0.50183 0.39244 0.75747 0.0
C1057 C 0.55344 0.39365 0.74861 0.0
C1058 C 0.47528 0.40446 0.75373 0.0
C1059 C 0.47104 0.42535 0.73317 0.0
C1060 C 0.52431 0.40127 0.7405 0.0
C1061 C 0.4932 0.43097 0.71431 0.0
C1062 C 0.5753 0.39046 0.7289 0.0
C1063 C 0.58451 0.38052 0.78574 0.0
N1064 N 0.5192 0.41945 0.71879 0.0
N1065 N 0.55901 0.38927 0.77635 0.0
H1066 H 0.66348 0.10324 0.5003 0.0
H1067 H 0.74837 0.22881 0.42904 0.0
H1068 H 0.66288 0.12148 0.41133 0.0
H1069 H 0.71678 0.22725 0.51414 0.0
H1070 H 0.73286 0.17998 0.42349 0.0
H1071 H 0.70045 0.1383 0.50631 0.0
C1072 C 0.67196 0.11388 0.48196 0.0
C1073 C 0.66006 0.11012 0.45541 0.0
C1074 C 0.72982 0.19032 0.44347 0.0
C1075 C 0.70156 0.14999 0.46201 0.0
C1076 C 0.73844 0.21808 0.44655 0.0
C1077 C 0.73292 0.23214 0.47173 0.0
C1078 C 0.71628 0.17666 0.46599 0.0
C1079 C 0.72053 0.21734 0.49406 0.0
C1080 C 0.69281 0.13394 0.48536 0.0
C1081 C 0.67144 0.12435 0.4322 0.0
N1082 N 0.71245 0.19045 0.49061 0.0
N1083 N 0.69132 0.14409 0.43607 0.0
H1084 H 0.87055 0.60399 0.25908 0.0
H1085 H 0.03516 0.58193 0.28927 0.0
H1086 H 0.91484 0.63967 0.32913 0.0
H1087 H 0.9943 0.54836 0.21626 0.0
H1088 H 0.99171 0.60669 0.30148 0.0
H1089 H 0.91532 0.58424 0.24191 0.0
C1090 C 0.88955 0.60722 0.27113 0.0
C1091 C 0.8889 0.62337 0.29569 0.0
C1092 C 0.99226 0.59435 0.28248 0.0
C1093 C 0.94021 0.60155 0.27579 0.0
C1094 C 0.01723 0.58054 0.2753 0.0
C1095 C 0.01836 0.56317 0.25168 0.0
C1096 C 0.96798 0.59045 0.26618 0.0
C1097 C 0.99442 0.56183 0.23447 0.0
C1098 C 0.91515 0.5963 0.2611 0.0
C1099 C 0.91429 0.62734 0.31012 0.0
N1100 N 0.97002 0.57486 0.24233 0.0
N1101 N 0.93878 0.6166 0.29995 0.0
H1102 H 0.17154 0.39889 0.5315 0.0
H1103 H 0.24124 0.25392 0.58264 0.0
H1104 H 0.14619 0.35595 0.60755 0.0
H1105 H 0.22524 0.27628 0.49597 0.0
H1106 H 0.22158 0.29976 0.59688 0.0
H1107 H 0.2077 0.36257 0.52406 0.0
C1108 C 0.1742 0.38231 0.54706 0.0
C1109 C 0.15568 0.37997 0.56988 0.0
C1110 C 0.22289 0.29467 0.57475 0.0
C1111 C 0.1967 0.33881 0.5616 0.0
C1112 C 0.23397 0.26867 0.56669 0.0
C1113 C 0.23415 0.26134 0.53822 0.0
C1114 C 0.21281 0.31345 0.55407 0.0
C1115 C 0.22479 0.28106 0.51819 0.0
C1116 C 0.19466 0.3616 0.54274 0.0
C1117 C 0.15986 0.35809 0.58944 0.0
N1118 N 0.2144 0.30624 0.5265 0.0
N1119 N 0.17979 0.33808 0.58469 0.0
H1120 H 0.63912 0.61012 0.76125 0.0
H1121 H 0.50045 0.54713 0.69275 0.0
H1122 H 0.60622 0.63207 0.67931 0.0
H1123 H 0.51904 0.53886 0.78144 0.0
H1124 H 0.54489 0.57052 0.68575 0.0
H1125 H 0.60082 0.57608 0.76711 0.0
C1126 C 0.62412 0.60736 0.74439 0.0
C1127 C 0.62535 0.62399 0.71997 0.0
C1128 C 0.53933 0.56358 0.70678 0.0
C1129 C 0.58217 0.58561 0.72634 0.0
C1130 C 0.51384 0.55029 0.71084 0.0
C1131 C 0.50575 0.54147 0.73784 0.0
C1132 C 0.5569 0.56834 0.72988 0.0
C1133 C 0.52433 0.54567 0.76032 0.0
C1134 C 0.60231 0.58817 0.74777 0.0
C1135 C 0.60561 0.61988 0.69866 0.0
N1136 N 0.54904 0.55909 0.75589 0.0
N1137 N 0.58476 0.60119 0.70241 0.0
H1138 H 0.36117 0.9047 0.67939 0.0
H1139 H 0.50598 0.90783 0.7591 0.0
H1140 H 0.40838 0.82823 0.69486 0.0
H1141 H 0.48682 0.96995 0.6951 0.0
H1142 H 0.46529 0.8806 0.7436 0.0
H1143 H 0.40283 0.93182 0.69244 0.0
C1144 C 0.38035 0.8937 0.68536 0.0
C1145 C 0.38153 0.86429 0.68589 0.0
C1146 C 0.47013 0.90019 0.73301 0.0
C1147 C 0.4285 0.8949 0.70152 0.0
C1148 C 0.49313 0.91574 0.7419 0.0
C1149 C 0.4997 0.94102 0.72823 0.0
C1150 C 0.45327 0.9105 0.71093 0.0
C1151 C 0.48251 0.9504 0.70599 0.0
C1152 C 0.40398 0.9091 0.69274 0.0
C1153 C 0.40678 0.85091 0.69388 0.0
N1154 N 0.45983 0.93526 0.69818 0.0
N1155 N 0.42921 0.86634 0.70178 0.0
H1156 H 0.52754 0.90604 0.17087 0.0
H1157 H 0.5725 0.76988 0.25642 0.0
H1158 H 0.57615 0.84021 0.13155 0.0
H1159 H 0.54495 0.84755 0.29413 0.0
H1160 H 0.57757 0.79437 0.21134 0.0
H1161 H 0.5334 0.88275 0.216 0.0
C1162 C 0.53913 0.88633 0.17171 0.0
C1163 C 0.55135 0.87501 0.1474 0.0
C1164 C 0.57114 0.80617 0.22965 0.0
C1165 C 0.55872 0.84832 0.19952 0.0
C1166 C 0.56862 0.79232 0.25559 0.0
C1167 C 0.55755 0.80657 0.27903 0.0
C1168 C 0.56256 0.83435 0.2273 0.0
C1169 C 0.55299 0.8356 0.27654 0.0
C1170 C 0.54281 0.87321 0.19762 0.0
C1171 C 0.56611 0.84942 0.14977 0.0
N1172 N 0.55488 0.84837 0.25099 0.0
N1173 N 0.56946 0.83687 0.17551 0.0
H1174 H 0.1097 0.16626 0.11724 0.0
H1175 H 0.02741 0.27984 0.02522 0.0
H1176 H 0.10071 0.25245 0.14294 0.0
H1177 H 0.02731 0.19057 0.01002 0.0
H1178 H 0.05022 0.27062 0.07072 0.0
H1179 H 0.07477 0.17457 0.08067 0.0
C1180 C 0.09991 0.18685 0.11537 0.0
C1181 C 0.10807 0.20877 0.13278 0.0
C1182 C 0.04488 0.25311 0.05747 0.0
C1183 C 0.06873 0.2188 0.09057 0.0
C1184 C 0.03201 0.25836 0.03149 0.0
C1185 C 0.02601 0.236 0.01353 0.0
C1186 C 0.05169 0.22535 0.06535 0.0
C1187 C 0.03209 0.20856 0.02282 0.0
C1188 C 0.08001 0.19166 0.0945 0.0
C1189 C 0.0948 0.23505 0.12979 0.0
N1190 N 0.04476 0.20408 0.04793 0.0
N1191 N 0.07607 0.23955 0.10859 0.0
H1192 H 0.51012 0.64969 0.10716 0.0
H1193 H 0.44032 0.73846 0.23091 0.0
H1194 H 0.42742 0.63554 0.14149 0.0
H1195 H 0.52899 0.71934 0.22493 0.0
H1196 H 0.43335 0.71665 0.1848 0.0
H1197 H 0.51453 0.69093 0.13767 0.0
C1198 C 0.4928 0.65564 0.12076 0.0
C1199 C 0.46878 0.63904 0.12273 0.0
C1200 C 0.4544 0.71794 0.19337 0.0
C1201 C 0.47321 0.68591 0.15649 0.0
C1202 C 0.45833 0.73028 0.21953 0.0
C1203 C 0.48507 0.72979 0.23175 0.0
C1204 C 0.47749 0.70561 0.17953 0.0
C1205 C 0.50791 0.71928 0.21631 0.0
C1206 C 0.49523 0.67905 0.13795 0.0
C1207 C 0.44662 0.64754 0.1402 0.0
N1208 N 0.50357 0.70725 0.19103 0.0
N1209 N 0.44944 0.67033 0.15665 0.0
H1210 H 0.87403 0.24336 0.1198 0.0
H1211 H 0.88283 0.26188 0.95232 0.0
H1212 H 0.82524 0.30257 0.07019 0.0
H1213 H 0.93588 0.20352 0.99815 0.0
H1214 H 0.85606 0.27053 0.99521 0.0
H1215 H 0.89397 0.22434 0.07592 0.0
C1216 C 0.86771 0.2525 0.09982 0.0
C1217 C 0.84799 0.27468 0.09878 0.0
C1218 C 0.87317 0.25535 0.99589 0.0
C1219 C 0.87008 0.25266 0.04864 0.0
C1220 C 0.88814 0.25006 0.97121 0.0
C1221 C 0.91159 0.23198 0.97163 0.0
C1222 C 0.882 0.24287 0.02139 0.0
C1223 C 0.91777 0.21747 0.99683 0.0
C1224 C 0.87882 0.24145 0.07478 0.0
C1225 C 0.84028 0.28545 0.0722 0.0
N1226 N 0.90349 0.2237 0.02089 0.0
N1227 N 0.85128 0.27437 0.0484 0.0
H1228 H 0.56158 0.17045 0.38328 0.0
H1229 H 0.55792 0.24581 0.25646 0.0
H1230 H 0.6002 0.10462 0.33426 0.0
H1231 H 0.55161 0.16277 0.22169 0.0
H1232 H 0.575 0.22509 0.30059 0.0
H1233 H 0.55867 0.19965 0.3404 0.0
C1234 C 0.57 0.16237 0.36375 0.0
C1235 C 0.58079 0.13487 0.3624 0.0
C1236 C 0.57019 0.21147 0.28319 0.0
C1237 C 0.57766 0.16802 0.3134 0.0
C1238 C 0.56093 0.22326 0.25774 0.0
C1239 C 0.55305 0.20594 0.23532 0.0
C1240 C 0.57193 0.18218 0.28608 0.0
C1241 C 0.55723 0.17689 0.23842 0.0
C1242 C 0.56847 0.17907 0.33928 0.0
C1243 C 0.59132 0.12549 0.33639 0.0
N1244 N 0.56622 0.16594 0.2634 0.0
N1245 N 0.589 0.14176 0.31296 0.0
H1246 H 0.38401 0.24664 0.87759 0.0
H1247 H 0.40035 0.21557 0.0432 0.0
H1248 H 0.34917 0.1755 0.92169 0.0
H1249 H 0.4378 0.2874 0.00277 0.0
H1250 H 0.37756 0.20387 0.999 0.0
H1251 H 0.40276 0.26362 0.92264 0.0
C1252 C 0.38078 0.23435 0.89658 0.0
C1253 C 0.36509 0.20955 0.89583 0.0
C1254 C 0.39036 0.2225 -0.00024 0.0
C1255 C 0.38568 0.22917 0.94738 0.0
C1256 C 0.40303 0.22941 0.02519 0.0
C1257 C 0.4209 0.25256 0.02676 0.0
C1258 C 0.39584 0.23857 0.97543 0.0
C1259 C 0.4239 0.26956 0.0026 0.0
C1260 C 0.39111 0.24423 0.92233 0.0
C1261 C 0.36108 0.19475 0.9212 0.0
N1262 N 0.4119 0.26197 0.97779 0.0
N1263 N 0.37117 0.20479 0.94577 0.0
H1264 H 0.48752 0.33439 0.40191 0.0
H1265 H 0.41519 0.26175 0.27018 0.0
H1266 H 0.40149 0.3488 0.37657 0.0
H1267 H 0.50444 0.27142 0.28178 0.0
H1268 H 0.40746 0.27926 0.31826 0.0
H1269 H 0.49098 0.29616 0.36773 0.0
C1270 C 0.46914 0.32884 0.38982 0.0
C1271 C 0.4444 0.34492 0.39146 0.0
C1272 C 0.42874 0.27696 0.3104 0.0
C1273 C 0.44817 0.30184 0.35246 0.0
C1274 C 0.43308 0.26704 0.2831 0.0
C1275 C 0.46037 0.26592 0.27211 0.0
C1276 C 0.45194 0.2853 0.32658 0.0
C1277 C 0.48301 0.27271 0.2895 0.0
C1278 C 0.47112 0.30723 0.37023 0.0
C1279 C 0.42111 0.33708 0.37537 0.0
N1280 N 0.4783 0.28237 0.3158 0.0
N1281 N 0.42367 0.31636 0.35617 0.0
H1282 H 0.58379 0.26594 0.85379 0.0
H1283 H 0.54555 0.31914 0.00819 0.0
H1284 H 0.61718 0.3411 0.89044 0.0
H1285 H 0.53144 0.23456 0.97981 0.0
H1286 H 0.56453 0.33099 0.96196 0.0
H1287 H 0.55575 0.25836 0.89644 0.0
C1288 C 0.58469 0.28116 0.87055 0.0
C1289 C 0.60299 0.30396 0.86891 0.0
C1290 C 0.55725 0.30984 0.96588 0.0
C1291 C 0.5715 0.29532 0.91748 0.0
C1292 C 0.54653 0.30302 0.99229 0.0
C1293 C 0.53718 0.27573 0.99796 0.0
C1294 C 0.55846 0.28929 0.94497 0.0
C1295 C 0.53876 0.25576 0.97647 0.0
C1296 C 0.56895 0.27669 0.89492 0.0
C1297 C 0.60355 0.32304 0.89115 0.0
N1298 N 0.54923 0.26295 0.95088 0.0
N1299 N 0.58821 0.31815 0.91467 0.0
H1300 H 0.12188 0.56463 0.83775 0.0
H1301 H 0.28887 0.54803 0.85026 0.0
H1302 H 0.16641 0.51828 0.90241 0.0
H1303 H 0.24921 0.5696 0.77117 0.0
H1304 H 0.24281 0.54865 0.87274 0.0
H1305 H 0.16714 0.57313 0.8138 0.0
C1306 C 0.14102 0.55565 0.84645 0.0
C1307 C 0.14054 0.54105 0.87219 0.0
C1308 C 0.24423 0.55369 0.85052 0.0
C1309 C 0.19193 0.55149 0.84586 0.0
C1310 C 0.27061 0.55385 0.83779 0.0
C1311 C 0.27289 0.55798 0.80866 0.0
C1312 C 0.21998 0.5577 0.83401 0.0
C1313 C 0.24844 0.56581 0.79365 0.0
C1314 C 0.1668 0.56087 0.83309 0.0
C1315 C 0.16589 0.52988 0.8827 0.0
N1316 N 0.22283 0.56473 0.80636 0.0
N1317 N 0.19051 0.53567 0.86974 0.0
H1318 H 0.74268 0.6272 0.38398 0.0
H1319 H 0.77951 0.46404 0.40246 0.0
H1320 H 0.82392 0.58838 0.3704 0.0
H1321 H 0.70897 0.50138 0.44586 0.0
H1322 H 0.78862 0.50912 0.37975 0.0
H1323 H 0.72483 0.58151 0.4007 0.0
C1324 C 0.7569 0.60931 0.38527 0.0
C1325 C 0.78481 0.61146 0.37588 0.0
C1326 C 0.77078 0.50738 0.39383 0.0
C1327 C 0.76437 0.55945 0.39346 0.0
C1328 C 0.76529 0.48153 0.40636 0.0
C1329 C 0.7437 0.47915 0.42624 0.0
C1330 C 0.75473 0.53106 0.40147 0.0
C1331 C 0.72586 0.50243 0.43061 0.0
C1332 C 0.74661 0.58324 0.39429 0.0
C1333 C 0.80224 0.58758 0.37739 0.0
N1334 N 0.73216 0.52775 0.41881 0.0
N1335 N 0.79167 0.56259 0.38566 0.0
H1336 H 0.88172 0.95254 0.83106 0.0
H1337 H 0.71917 0.93531 0.83557 0.0
H1338 H 0.84109 0.9012 0.89404 0.0
H1339 H 0.76134 0.94477 0.75576 0.0
H1340 H 0.76406 0.92155 0.85705 0.0
H1341 H 0.83898 0.9495 0.80182 0.0
C1342 C 0.86413 0.94024 0.83846 0.0
C1343 C 0.86468 0.92774 0.86528 0.0
C1344 C 0.76339 0.9259 0.83466 0.0
C1345 C 0.81603 0.9244 0.8324 0.0
C1346 C 0.73771 0.9335 0.8224 0.0
C1347 C 0.73649 0.94089 0.79385 0.0
C1348 C 0.78818 0.9267 0.81847 0.0
C1349 C 0.76131 0.93881 0.7778 0.0
C1350 C 0.83979 0.93851 0.82185 0.0
C1351 C 0.84132 0.91189 0.87383 0.0
N1352 N 0.78631 0.93263 0.79046 0.0
N1353 N 0.81785 0.91112 0.85774 0.0
H1354 H 0.22773 0.85626 0.38563 0.0
H1355 H 0.19621 0.01665 0.42199 0.0
H1356 H 0.17125 0.90935 0.33728 0.0
H1357 H 0.2706 0.97255 0.45127 0.0
H1358 H 0.18367 0.97573 0.3945 0.0
H1359 H 0.24022 0.89686 0.41413 0.0
C1360 C 0.21778 0.87638 0.38117 0.0
C1361 C 0.19848 0.8795 0.35902 0.0
C1362 C 0.2028 0.97504 0.40684 0.0
C1363 C 0.21269 0.92583 0.3914 0.0
C1364 C 0.20998 -0.00163 0.42258 0.0
C1365 C 0.23454 0.99803 0.43893 0.0
C1366 C 0.22009 0.95099 0.40768 0.0
C1367 C 0.25158 0.97378 0.4388 0.0
C1368 C 0.22508 0.89954 0.39729 0.0
C1369 C 0.18636 0.90606 0.35405 0.0
N1370 N 0.24394 0.95111 0.42354 0.0
N1371 N 0.19363 0.92819 0.37015 0.0
H1372 H 0.10149 0.50286 0.65933 0.0
H1373 H 0.23087 0.44115 0.74741 0.0
H1374 H 0.13711 0.41998 0.64898 0.0
H1375 H 0.22215 0.52749 0.72036 0.0
H1376 H 0.1836 0.43197 0.72891 0.0
H1377 H 0.13299 0.5099 0.69968 0.0
C1378 C 0.11545 0.48598 0.66609 0.0
C1379 C 0.11762 0.4612 0.65072 0.0
C1380 C 0.19189 0.45304 0.72772 0.0
C1381 C 0.15264 0.46868 0.69643 0.0
C1382 C 0.21873 0.45821 0.73807 0.0
C1383 C 0.23043 0.48482 0.73441 0.0
C1384 C 0.17682 0.47483 0.71427 0.0
C1385 C 0.21398 0.50646 0.72264 0.0
C1386 C 0.13323 0.48993 0.68898 0.0
C1387 C 0.13563 0.43968 0.66011 0.0
N1388 N 0.188 0.50093 0.71267 0.0
N1389 N 0.15278 0.44402 0.68229 0.0
H1390 H 0.72995 0.5918 0.67332 0.0
H1391 H 0.69925 0.51381 0.53235 0.0
H1392 H 0.69756 0.63822 0.60183 0.0
H1393 H 0.77615 0.49656 0.5777 0.0
H1394 H 0.69127 0.55532 0.56163 0.0
H1395 H 0.74031 0.55196 0.64249 0.0
C1396 C 0.72496 0.59352 0.65113 0.0
C1397 C 0.7129 0.61821 0.63998 0.0
C1398 C 0.70989 0.54243 0.56504 0.0
C1399 C 0.72418 0.5728 0.605 0.0
C1400 C 0.71437 0.51873 0.54855 0.0
C1401 C 0.73837 0.5018 0.55273 0.0
C1402 C 0.72912 0.5487 0.58633 0.0
C1403 C 0.75745 0.50917 0.57382 0.0
C1404 C 0.73102 0.57093 0.63362 0.0
C1405 C 0.707 0.61953 0.6111 0.0
N1406 N 0.75222 0.53193 0.59015 0.0
N1407 N 0.71235 0.59693 0.59459 0.0
H1408 H 0.90348 0.01733 0.65945 0.0
H1409 H 0.76703 0.07428 0.74082 0.0
H1410 H 0.87634 0.10385 0.65409 0.0
H1411 H 0.77487 0.99168 0.7051 0.0
H1412 H 0.81435 0.08531 0.72266 0.0
H1413 H 0.86424 0.00783 0.69166 0.0
C1414 C 0.88996 0.03454 0.66597 0.0
C1415 C 0.89299 0.06137 0.65411 0.0
C1416 C 0.80567 0.06472 0.71912 0.0
C1417 C 0.84811 0.05065 0.69044 0.0
C1418 C 0.77877 0.05848 0.72935 0.0
C1419 C 0.76689 0.03227 0.72391 0.0
C1420 C 0.82095 0.04426 0.7042 0.0
C1421 C 0.78302 0.01237 0.7092 0.0
C1422 C 0.8674 0.02905 0.68402 0.0
C1423 C 0.87457 0.08286 0.66281 0.0
N1424 N 0.8092 0.01876 0.69991 0.0
N1425 N 0.85269 0.077 0.68026 0.0
H1426 H 0.23481 0.86876 0.60282 0.0
H1427 H 0.27474 0.03056 0.59095 0.0
H1428 H 0.31754 0.90312 0.61433 0.0
H1429 H 0.20584 -0.00178 0.54258 0.0
H1430 H 0.28216 0.98405 0.61164 0.0
H1431 H 0.21779 0.91569 0.58768 0.0
C1432 C 0.24951 0.88592 0.60139 0.0
C1433 C 0.27763 0.88213 0.6098 0.0
C1434 C 0.26501 0.98723 0.59693 0.0
C1435 C 0.25812 0.93554 0.5941 0.0
C1436 C 0.26047 0.01388 0.58553 0.0
C1437 C 0.23995 0.01809 0.56477 0.0
C1438 C 0.24903 0.96462 0.58738 0.0
C1439 C 0.22197 0.99576 0.5585 0.0
C1440 C 0.2397 0.91269 0.59327 0.0
C1441 C 0.29569 0.90515 0.60813 0.0
N1442 N 0.22734 0.96966 0.56928 0.0
N1443 N 0.28556 0.93085 0.60084 0.0
H1444 H 0.84128 0.12858 0.56796 0.0
H1445 H 0.84833 0.29368 0.54595 0.0
H1446 H 0.91809 0.17597 0.56291 0.0
H1447 H 0.77062 0.25042 0.56208 0.0
H1448 H 0.87434 0.25148 0.56007 0.0
H1449 H 0.81474 0.17303 0.57145 0.0
C1450 C 0.85255 0.14821 0.56769 0.0
C1451 C 0.88192 0.14846 0.56474 0.0
C1452 C 0.85159 0.25132 0.56112 0.0
C1453 C 0.8519 0.19919 0.5691 0.0
C1454 C 0.83677 0.27556 0.55331 0.0
C1455 C 0.80732 0.27543 0.55242 0.0
C1456 C 0.83685 0.22661 0.5675 0.0
C1457 C 0.79336 0.25139 0.56229 0.0
C1458 C 0.83745 0.17354 0.56991 0.0
C1459 C 0.89547 0.17456 0.56489 0.0
N1460 N 0.80825 0.22765 0.56871 0.0
N1461 N 0.88038 0.19872 0.5668 0.0
H1462 H 0.89081 0.84612 0.91976 0.0
H1463 H 0.75367 0.76681 0.97064 0.0
H1464 H 0.83492 0.88243 0.98133 0.0
H1465 H 0.83185 0.72603 0.94797 0.0
H1466 H 0.77483 0.81248 0.96047 0.0
H1467 H 0.85997 0.8063 0.91554 0.0
C1468 C 0.87178 0.84585 0.93223 0.0
C1469 C 0.86579 0.86725 0.95151 0.0
C1470 C 0.78701 0.79346 0.95707 0.0
C1471 C 0.83029 0.82142 0.94672 0.0
C1472 C 0.77494 0.76737 0.96247 0.0
C1473 C 0.79114 0.7426 0.9601 0.0
C1474 C 0.81517 0.79459 0.94863 0.0
C1475 C 0.8187 0.7446 0.95003 0.0
C1476 C 0.85419 0.82308 0.92974 0.0
C1477 C 0.84046 0.86613 0.96656 0.0
N1478 N 0.8299 0.7702 0.94479 0.0
N1479 N 0.82372 0.84315 0.96422 0.0
H1480 H 0.1237 0.87915 0.22696 0.0
H1481 H 0.96159 0.89931 0.26661 0.0
H1482 H 0.08643 0.86315 0.30821 0.0
H1483 H 0.99885 0.95166 0.20243 0.0
H1484 H 0.00667 0.87515 0.27271 0.0
H1485 H 0.07829 0.89963 0.21095 0.0
C1486 C 0.10629 0.88071 0.24159 0.0
C1487 C 0.10872 0.86959 0.26895 0.0
C1488 C 0.00488 0.89157 0.25688 0.0
C1489 C 0.05699 0.89128 0.25053 0.0
C1490 C 0.97902 0.90503 0.25307 0.0
C1491 C 0.97657 0.92776 0.2343 0.0
C1492 C 0.02854 0.90098 0.24193 0.0
C1493 C -0.00013 0.93425 0.21722 0.0
C1494 C 0.08036 0.89188 0.23234 0.0
C1495 C 0.0854 0.87146 0.28693 0.0
N1496 N 0.02519 0.92133 0.22186 0.0
N1497 N 0.06053 0.8817 0.27732 0.0
H1498 H 0.16243 0.6022 0.99695 0.0
H1499 H 0.24805 0.72722 0.92563 0.0
H1500 H 0.15688 0.62517 0.9092 0.0
H1501 H 0.22311 0.7228 0.01281 0.0
H1502 H 0.23038 0.67928 0.91923 0.0
H1503 H 0.20146 0.63514 0.0022 0.0
C1504 C 0.17015 0.61346 0.97865 0.0
C1505 C 0.15635 0.61165 0.95279 0.0
C1506 C 0.22934 0.68872 0.93985 0.0
C1507 C 0.20031 0.64902 0.95851 0.0
C1508 C 0.23926 0.71597 0.94343 0.0
C1509 C 0.23612 0.72904 0.96951 0.0
C1510 C 0.21685 0.67459 0.96268 0.0
C1511 C 0.22504 0.71362 0.99213 0.0
C1512 C 0.19221 0.63229 0.98162 0.0
C1513 C 0.16687 0.62659 0.9296 0.0
N1514 N 0.21557 0.68727 0.98814 0.0
N1515 N 0.18802 0.64505 0.93308 0.0
H1516 H 0.36973 0.10682 0.76118 0.0
H1517 H 0.53163 0.07827 0.80058 0.0
H1518 H 0.41023 0.13739 0.83582 0.0
H1519 H 0.49608 0.05379 0.7213 0.0
H1520 H 0.48756 0.10218 0.81229 0.0
H1521 H 0.41515 0.0868 0.74579 0.0
C1522 C 0.38799 0.10879 0.77459 0.0
C1523 C 0.38614 0.12363 0.79993 0.0
C1524 C 0.48943 0.09204 0.79208 0.0
C1525 C 0.43818 0.10153 0.78216 0.0
C1526 C 0.51478 0.07871 0.78524 0.0
C1527 C 0.51762 0.06421 0.75985 0.0
C1528 C 0.46641 0.09051 0.77362 0.0
C1529 C 0.49492 0.06509 0.74092 0.0
C1530 C 0.41399 0.09776 0.76561 0.0
C1531 C 0.41064 0.12609 0.81616 0.0
N1532 N 0.47009 0.0776 0.74837 0.0
N1533 N 0.4355 0.11526 0.80701 0.0
H1534 H 0.67912 0.89448 0.05162 0.0
H1535 H 0.69661 0.73575 0.08555 0.0
H1536 H 0.62984 0.85161 0.11467 0.0
H1537 H 0.76378 0.78255 0.0472 0.0
H1538 H 0.67555 0.77955 0.10191 0.0
H1539 H 0.7144 0.85654 0.05457 0.0
C1540 C 0.67609 0.87745 0.06653 0.0
C1541 C 0.65122 0.8756 0.08227 0.0
C1542 C 0.69528 0.78036 0.09054 0.0
C1543 C 0.69108 0.83241 0.08569 0.0
C1544 C 0.70724 0.75535 0.08127 0.0
C1545 C 0.73177 0.75583 0.06509 0.0
C1546 C 0.7074 0.80603 0.08255 0.0
C1547 C 0.74483 0.78157 0.05982 0.0
C1548 C 0.69619 0.85583 0.06825 0.0
C1549 C 0.64837 0.85332 0.1015 0.0
N1550 N 0.73207 0.80586 0.06792 0.0
N1551 N 0.66778 0.83234 0.1023 0.0
H1552 H 0.09459 0.1674 0.24772 0.0
H1553 H 0.02069 0.0306 0.2091 0.0
H1554 H 0.1444 0.09894 0.21482 0.0
H1555 H 0.00195 0.06758 0.28954 0.0
H1556 H 0.06378 0.05834 0.20646 0.0
H1557 H 0.05738 0.13412 0.25993 0.0
C1558 C 0.09771 0.14529 0.24338 0.0
C1559 C 0.12232 0.13569 0.23021 0.0
C1560 C 0.05035 0.06006 0.2248 0.0
C1561 C 0.08006 0.0981 0.24341 0.0
C1562 C 0.02579 0.04453 0.2262 0.0
C1563 C 0.00791 0.04712 0.24947 0.0
C1564 C 0.05643 0.07883 0.2464 0.0
C1565 C 0.01536 0.06515 0.27128 0.0
C1566 C 0.07668 0.12642 0.25046 0.0
C1567 C 0.12564 0.10696 0.22505 0.0
N1568 N 0.03891 0.08086 0.26898 0.0
N1569 N 0.10437 0.08912 0.23112 0.0
H1570 H 0.90161 0.34494 0.15666 0.0
H1571 H 0.9752 0.44629 0.26474 0.0
H1572 H 0.85559 0.39211 0.21911 0.0
H1573 H 0.01147 0.42909 0.18328 0.0
H1574 H 0.93292 0.42138 0.25088 0.0
H1575 H 0.94387 0.37155 0.16803 0.0
C1576 C 0.90036 0.36103 0.17257 0.0
C1577 C 0.87513 0.3663 0.18703 0.0
C1578 C 0.95015 0.42311 0.23605 0.0
C1579 C 0.92323 0.39627 0.20036 0.0
C1580 C 0.97436 0.4371 0.24401 0.0
C1581 C 0.99686 0.43975 0.22511 0.0
C1582 C 0.9486 0.41132 0.20918 0.0
C1583 C 0.99453 0.42761 0.19843 0.0
C1584 C 0.92441 0.37617 0.17901 0.0
C1585 C 0.87458 0.38741 0.20739 0.0
N1586 N 0.97082 0.41375 0.19127 0.0
N1587 N 0.89839 0.40142 0.21368 0.0
H1588 H 0.21797 0.22552 0.81075 0.0
H1589 H 0.0856 0.16985 0.89758 0.0
H1590 H 0.21347 0.13997 0.84055 0.0
H1591 H 0.08454 0.24552 0.84701 0.0
H1592 H 0.13247 0.15831 0.87846 0.0
H1593 H 0.16886 0.23277 0.82417 0.0
C1594 C 0.2064 0.20806 0.81959 0.0
C1595 C 0.2198 0.18206 0.82432 0.0
C1596 C 0.12181 0.17733 0.87145 0.0
C1597 C 0.16356 0.19048 0.84079 0.0
C1598 C 0.09515 0.18402 0.8825 0.0
C1599 C 0.08097 0.2087 0.8739 0.0
C1600 C 0.13456 0.19563 0.85195 0.0
C1601 C 0.09442 0.22617 0.85416 0.0
C1602 C 0.17837 0.21224 0.82744 0.0
C1603 C 0.20385 0.16025 0.8362 0.0
N1604 N 0.12035 0.2194 0.84406 0.0
N1605 N 0.17669 0.16506 0.84443 0.0
H1606 H 0.47137 0.50201 0.3739 0.0
H1607 H 0.45209 0.66578 0.40376 0.0
H1608 H 0.40864 0.53299 0.43194 0.0
H1609 H 0.49935 0.63165 0.33419 0.0
H1610 H 0.43729 0.61813 0.41654 0.0
H1611 H 0.4832 0.54985 0.36151 0.0
C1612 C 0.46 0.51889 0.38414 0.0
C1613 C 0.43893 0.51328 0.40413 0.0
C1614 C 0.45081 0.62115 0.39844 0.0
C1615 C 0.45266 0.5688 0.38981 0.0
C1616 C 0.45937 0.64833 0.39116 0.0
C1617 C 0.47712 0.65282 0.36787 0.0
C1618 C 0.46025 0.59825 0.38248 0.0
C1619 C 0.48572 0.62936 0.3523 0.0
C1620 C 0.46677 0.54636 0.3769 0.0
C1621 C 0.42495 0.53628 0.41639 0.0
N1622 N 0.47732 0.6032 0.35996 0.0
N1623 N 0.43218 0.56308 0.40915 0.0
H1624 H 0.75605 0.26343 0.83611 0.0
H1625 H 0.90863 0.33177 0.83723 0.0
H1626 H 0.774 0.34534 0.80129 0.0
H1627 H 0.89054 0.25156 0.87546 0.0
H1628 H 0.8586 0.33891 0.82794 0.0
H1629 H 0.80459 0.25946 0.85228 0.0
C1630 C 0.77024 0.28052 0.83159 0.0
C1631 C 0.7608 0.30478 0.81719 0.0
C1632 C 0.8654 0.31993 0.83878 0.0
C1633 C 0.81658 0.30043 0.83616 0.0
C1634 C 0.89395 0.31597 0.84437 0.0
C1635 C 0.90374 0.29097 0.85704 0.0
C1636 C 0.84641 0.29858 0.84559 0.0
C1637 C 0.88386 0.27119 0.8658 0.0
C1638 C 0.79796 0.27829 0.84108 0.0
C1639 C 0.78028 0.32618 0.8121 0.0
N1640 N 0.85614 0.2752 0.85947 0.0
N1641 N 0.80719 0.32351 0.82161 0.0
H1642 H 0.5953 0.96095 0.42881 0.0
H1643 H 0.4705 0.85917 0.39088 0.0
H1644 H 0.51201 0.99187 0.40844 0.0
H1645 H 0.55758 0.83466 0.38305 0.0
H1646 H 0.48473 0.90796 0.39703 0.0
H1647 H 0.58132 0.91404 0.41429 0.0
C1648 C 0.57396 0.95783 0.42164 0.0
C1649 C 0.55474 0.9804 0.42 0.0
C1650 C 0.50074 0.89208 0.3933 0.0
C1651 C 0.53877 0.92678 0.40295 0.0
C1652 C 0.4926 0.86435 0.38947 0.0
C1653 C 0.51293 0.84315 0.38604 0.0
C1654 C 0.52947 0.89844 0.39453 0.0
C1655 C 0.54132 0.85061 0.38513 0.0
C1656 C 0.56613 0.93111 0.41298 0.0
C1657 C 0.52749 0.9751 0.41014 0.0
N1658 N 0.54883 0.87764 0.38986 0.0
N1659 N 0.52029 0.94883 0.40211 0.0
H1660 H 0.21028 0.86333 0.65573 0.0
H1661 H 0.07087 0.77381 0.67383 0.0
H1662 H 0.2082 0.77894 0.68928 0.0
H1663 H 0.08021 0.8351 0.60708 0.0
H1664 H 0.11745 0.78504 0.69082 0.0
H1665 H 0.15907 0.8619 0.64885 0.0
C1666 C 0.19891 0.84483 0.66236 0.0
C1667 C 0.2133 0.82114 0.67304 0.0
C1668 C 0.10917 0.79629 0.67267 0.0
C1669 C 0.15524 0.8195 0.66535 0.0
C1670 C 0.08247 0.78998 0.66295 0.0
C1671 C 0.07163 0.80326 0.63872 0.0
C1672 C 0.12529 0.81613 0.65819 0.0
C1673 C 0.08784 0.82412 0.62564 0.0
C1674 C 0.16985 0.84397 0.6582 0.0
C1675 C 0.19779 0.79755 0.68092 0.0
N1676 N 0.11407 0.82977 0.63541 0.0
N1677 N 0.16956 0.79729 0.67686 0.0
H1678 H 0.093 0.53607 0.56684 0.0
H1679 H 0.98156 0.64315 0.63258 0.0
H1680 H 0.00966 0.512 0.59331 0.0
H1681 H 0.06609 0.66533 0.60957 0.0
H1682 H 0.99305 0.59375 0.62395 0.0
H1683 H 0.08402 0.58309 0.58452 0.0
C1684 C 0.07262 0.54077 0.57597 0.0
C1685 C 0.05209 0.51996 0.57861 0.0
C1686 C 0.00937 0.60927 0.62156 0.0
C1687 C 0.04187 0.57377 0.5995 0.0
C1688 C 0.00296 0.63733 0.62708 0.0
C1689 C 0.02312 0.65801 0.62219 0.0
C1690 C 0.03596 0.60215 0.61065 0.0
C1691 C 0.05022 0.64977 0.61405 0.0
C1692 C 0.06764 0.56757 0.5864 0.0
C1693 C 0.0261 0.52735 0.5907 0.0
N1694 N 0.05577 0.62246 0.60807 0.0
N1695 N 0.02178 0.55363 0.60082 0.0
H1696 H 0.77283 0.7352 0.65969 0.0
H1697 H 0.91881 0.65606 0.65115 0.0
H1698 H 0.78717 0.65203 0.69427 0.0
H1699 H 0.89997 0.73328 0.60657 0.0
H1700 H 0.86872 0.64957 0.6595 0.0
H1701 H 0.81827 0.73254 0.63636 0.0
C1702 C 0.7857 0.7165 0.66271 0.0
C1703 C 0.77618 0.69384 0.6791 0.0
C1704 C 0.87542 0.66756 0.64723 0.0
C1705 C 0.82809 0.69045 0.65187 0.0
C1706 C 0.90399 0.67108 0.64214 0.0
C1707 C 0.91346 0.69579 0.62915 0.0
C1708 C 0.85652 0.68907 0.63943 0.0
C1709 C 0.89353 0.71427 0.61733 0.0
C1710 C 0.81148 0.71482 0.64898 0.0
C1711 C 0.79374 0.67012 0.68207 0.0
N1712 N 0.86591 0.71103 0.62358 0.0
N1713 N 0.8189 0.66906 0.66858 0.0
H1714 H 0.96623 0.97472 0.55496 0.0
H1715 H 0.94889 0.85753 0.66811 0.0
H1716 H 0.89953 0.98115 0.61613 0.0
H1717 H 0.96862 0.83506 0.58259 0.0
H1718 H 0.93383 0.90417 0.65145 0.0
H1719 H 0.9708 0.9244 0.56585 0.0
C1720 C 0.95223 0.96537 0.57032 0.0
C1721 C 0.93241 0.98195 0.5846 0.0
C1722 C 0.94115 0.88886 0.63635 0.0
C1723 C 0.93814 0.9249 0.59778 0.0
C1724 C 0.94989 0.86233 0.64582 0.0
C1725 C 0.96027 0.84241 0.62675 0.0
C1726 C 0.94356 0.8958 0.60772 0.0
C1727 C 0.9609 0.84972 0.59806 0.0
C1728 C 0.95483 0.93675 0.57649 0.0
C1729 C 0.91489 0.96897 0.60449 0.0
N1730 N 0.9532 0.87603 0.58946 0.0
N1731 N 0.91856 0.94127 0.61095 0.0
H1732 H 0.81265 0.21136 0.13806 0.0
H1733 H 0.84078 0.0905 0.25278 0.0
H1734 H 0.79455 0.22012 0.22644 0.0
H1735 H 0.88543 0.09391 0.17376 0.0
H1736 H 0.8159 0.13372 0.24008 0.0
H1737 H 0.8306 0.16358 0.14738 0.0
C1738 C 0.81153 0.20284 0.15925 0.0
C1739 C 0.80192 0.21953 0.18154 0.0
C1740 C 0.83109 0.12505 0.22547 0.0
C1741 C 0.82284 0.16541 0.19234 0.0
C1742 C 0.84531 0.10032 0.23266 0.0
C1743 C 0.86528 0.08858 0.21432 0.0
C1744 C 0.83664 0.13821 0.19958 0.0
C1745 C 0.8704 0.1024 0.18863 0.0
C1746 C 0.82218 0.17581 0.1646 0.0
C1747 C 0.80164 0.20783 0.20869 0.0
N1748 N 0.85609 0.12652 0.18196 0.0
N1749 N 0.81205 0.18154 0.21335 0.0
H1750 H 0.4685 0.92229 0.09257 0.0
H1751 H 0.36523 0.87713 0.97133 0.0
H1752 H 0.49945 0.8939 0.01216 0.0
H1753 H 0.34097 0.88098 0.05848 0.0
H1754 H 0.41475 0.88073 0.98526 0.0
H1755 H 0.42157 0.90714 0.07974 0.0
C1756 C 0.46542 0.91306 0.07209 0.0
C1757 C 0.48799 0.90957 0.05333 0.0
C1758 C 0.39869 0.87998 0.00141 0.0
C1759 C 0.43409 0.89185 0.03859 0.0
C1760 C 0.37054 0.87759 0.99348 0.0
C1761 C 0.3493 0.87832 0.01391 0.0
C1762 C 0.40535 0.88389 0.02988 0.0
C1763 C 0.35693 0.87986 0.04224 0.0
C1764 C 0.43862 0.90409 0.06491 0.0
C1765 C 0.48266 0.89712 0.02722 0.0
N1766 N 0.38435 0.88305 0.0494 0.0
N1767 N 0.45619 0.88889 0.02053 0.0
H1768 H 0.16269 0.2848 0.13505 0.0
H1769 H 0.17844 0.42393 0.22528 0.0
H1770 H 0.20218 0.28823 0.21657 0.0
H1771 H 0.11231 0.41304 0.16428 0.0
H1772 H 0.19816 0.37854 0.21243 0.0
H1773 H 0.15507 0.33583 0.13644 0.0
C1774 C 0.17044 0.29641 0.15287 0.0
C1775 C 0.18288 0.2824 0.17587 0.0
C1776 C 0.17956 0.38626 0.2016 0.0
C1777 C 0.1743 0.34035 0.17751 0.0
C1778 C 0.16825 0.41224 0.20886 0.0
C1779 C 0.14331 0.42215 0.19624 0.0
C1780 C 0.16593 0.36999 0.18149 0.0
C1781 C 0.13133 0.40606 0.17486 0.0
C1782 C 0.16589 0.32541 0.15372 0.0
C1783 C 0.19228 0.29829 0.19856 0.0
N1784 N 0.14257 0.38054 0.16837 0.0
N1785 N 0.18765 0.32643 0.19889 0.0
H1786 H 0.5268 0.56129 0.01458 0.0
H1787 H 0.65817 0.63948 0.07522 0.0
H1788 H 0.54003 0.56907 0.10398 0.0
H1789 H 0.66466 0.59237 0.99857 0.0
H1790 H 0.61274 0.61716 0.08491 0.0
H1791 H 0.5759 0.57479 0.00665 0.0
C1792 C 0.54012 0.56529 0.03253 0.0
C1793 C 0.52917 0.5641 0.05997 0.0
C1794 C 0.62433 0.61144 0.06616 0.0
C1795 C 0.58495 0.58034 0.05098 0.0
C1796 C 0.65011 0.62421 0.06064 0.0
C1797 C 0.66526 0.61735 0.03635 0.0
C1798 C 0.6133 0.59236 0.04679 0.0
C1799 C 0.65389 0.59771 0.01784 0.0
C1800 C 0.56808 0.57306 0.02799 0.0
C1801 C 0.54745 0.56964 0.08245 0.0
N1802 N 0.6284 0.58613 0.02325 0.0
N1803 N 0.57423 0.57801 0.07744 0.0
H1804 H 0.82911 0.76925 0.26654 0.0
H1805 H 0.85227 0.91717 0.33826 0.0
H1806 H 0.81833 0.78184 0.35571 0.0
H1807 H 0.87783 0.89841 0.25345 0.0
H1808 H 0.84255 0.86747 0.34638 0.0
H1809 H 0.84658 0.81686 0.2618 0.0
C1810 C 0.83003 0.7822 0.28512 0.0
C1811 C 0.82217 0.77148 0.31159 0.0
C1812 C 0.8509 0.87404 0.3262 0.0
C1813 C 0.84275 0.82614 0.30631 0.0
C1814 C 0.85681 0.90234 0.32167 0.0
C1815 C 0.86582 0.91183 0.29512 0.0
C1816 C 0.85358 0.8552 0.30385 0.0
C1817 C 0.87112 0.8919 0.27426 0.0
C1818 C 0.84035 0.80932 0.28241 0.0
C1819 C 0.82385 0.78929 0.33486 0.0
N1820 N 0.86435 0.86456 0.27889 0.0
N1821 N 0.83404 0.81576 0.33168 0.0
H1822 H 0.01864 0.91705 0.98701 0.0
H1823 H 0.17497 0.89744 0.93413 0.0
H1824 H 0.03511 0.92036 0.89764 0.0
H1825 H 0.1387 0.84577 -0.00053 0.0
H1826 H 0.12766 0.91616 0.92309 0.0
H1827 H 0.06722 0.90276 0.99507 0.0
C1828 C 0.0325 0.9152 0.96901 0.0
C1829 C 0.02247 0.91953 0.94147 0.0
C1830 C 0.13021 0.90063 0.93971 0.0
C1831 C 0.07847 0.9033 0.95089 0.0
C1832 C 0.15707 0.89 0.94607 0.0
C1833 C 0.16069 0.86991 0.96767 0.0
C1834 C 0.1071 0.89174 0.95568 0.0
C1835 C 0.13685 0.86101 0.98251 0.0
C1836 C 0.06024 0.90686 0.97373 0.0
C1837 C 0.04181 0.91706 0.91918 0.0
N1838 N 0.11114 0.87223 0.97647 0.0
N1839 N 0.06897 0.90899 0.92436 0.0
H1840 H 0.17041 0.71192 0.35212 0.0
H1841 H 0.0956 0.58867 0.26916 0.0
H1842 H 0.14264 0.71673 0.26569 0.0
H1843 H 0.14111 0.57574 0.34673 0.0
H1844 H 0.09985 0.63931 0.27502 0.0
H1845 H 0.15047 0.66484 0.35577 0.0
C1846 C 0.16039 0.70303 0.33385 0.0
C1847 C 0.1585 0.71826 0.30847 0.0
C1848 C 0.10828 0.62539 0.29114 0.0
C1849 C 0.13488 0.66486 0.31283 0.0
C1850 C 0.1054 0.59647 0.28806 0.0
C1851 C 0.11885 0.57806 0.30704 0.0
C1852 C 0.12452 0.63571 0.31339 0.0
C1853 C 0.13109 0.58934 0.33125 0.0
C1854 C 0.14871 0.67632 0.33607 0.0
C1855 C 0.14489 0.70577 0.28562 0.0
N1856 N 0.13433 0.61749 0.33338 0.0
N1857 N 0.13362 0.67987 0.28837 0.0
H1858 H 0.99607 0.62405 0.97342 0.0
H1859 H 0.83797 0.60938 0.9221 0.0
H1860 H 0.97325 0.58604 0.89468 0.0
H1861 H 0.86147 0.64632 0.00082 0.0
H1862 H 0.88733 0.60867 0.9077 0.0
H1863 H 0.94751 0.63848 0.98031 0.0
C1864 C 0.98086 0.61866 0.95747 0.0
C1865 C 0.98889 0.6034 0.9335 0.0
C1866 C 0.88174 0.61762 0.92782 0.0
C1867 C 0.9327 0.62023 0.94144 0.0
C1868 C 0.85354 0.61839 0.93588 0.0
C1869 C 0.84576 0.62813 0.96257 0.0
C1870 C 0.90239 0.62622 0.94683 0.0
C1871 C 0.86663 0.63902 0.97992 0.0
C1872 C 0.95304 0.62713 0.96143 0.0
C1873 C 0.96807 0.5975 0.91357 0.0
N1874 N 0.89412 0.63732 0.97194 0.0
N1875 N 0.94088 0.60573 0.91811 0.0
H1876 H 0.22816 0.80111 0.21229 0.0
H1877 H 0.24444 0.82616 0.07084 0.0
H1878 H 0.13962 0.81715 0.1993 0.0
H1879 H 0.17265 0.88139 0.08093 0.0
H1880 H 0.23367 0.80392 0.11556 0.0
H1881 H 0.2368 0.81205 0.16294 0.0
C1882 C 0.21044 0.80617 0.19878 0.0
C1883 C 0.18316 0.80806 0.20979 0.0
C1884 C 0.22035 0.82102 0.10817 0.0
C1885 C 0.19279 0.82068 0.15318 0.0
C1886 C 0.22625 0.83352 0.08234 0.0
C1887 C 0.20951 0.85579 0.07204 0.0
C1888 C 0.19773 0.83108 0.12423 0.0
C1889 C 0.18631 0.8645 0.08818 0.0
C1890 C 0.21534 0.8123 0.17053 0.0
C1891 C 0.16094 0.81509 0.19149 0.0
N1892 N 0.18115 0.85217 0.11361 0.0
N1893 N 0.16632 0.82169 0.16412 0.0
H1894 H 0.15776 0.20133 0.28997 0.0
H1895 H 0.26122 0.16277 0.41535 0.0
H1896 H 0.24613 0.18537 0.27492 0.0
H1897 H 0.17752 0.12902 0.41006 0.0
H1898 H 0.25513 0.18395 0.36859 0.0
H1899 H 0.16449 0.18858 0.3393 0.0
C1900 C 0.17875 0.1958 0.2971 0.0
C1901 C 0.20143 0.19417 0.27814 0.0
C1902 C 0.23809 0.17208 0.37784 0.0
C1903 C 0.20903 0.17969 0.33465 0.0
C1904 C 0.24142 0.16009 0.40449 0.0
C1905 C 0.21981 0.14402 0.41649 0.0
C1906 C 0.21275 0.16856 0.36344 0.0
C1907 C 0.19471 0.14109 0.40144 0.0
C1908 C 0.18242 0.1883 0.32522 0.0
C1909 C 0.22806 0.18674 0.28874 0.0
N1910 N 0.19179 0.1534 0.37567 0.0
N1911 N 0.23114 0.17966 0.31638 0.0
H1912 H 0.42591 0.59452 0.96885 0.0
H1913 H 0.38066 0.4749 0.86437 0.0
H1914 H 0.39852 0.51298 0.99746 0.0
H1915 H 0.38172 0.56214 0.83991 0.0
H1916 H 0.3854 0.48847 0.91363 0.0
H1917 H 0.41036 0.58303 0.92127 0.0
C1918 C 0.41684 0.57415 0.96509 0.0
C1919 C 0.41367 0.55461 0.98711 0.0
C1920 C 0.38389 0.50475 0.89763 0.0
C1921 C 0.39556 0.5415 0.93293 0.0
C1922 C 0.38087 0.49699 0.86963 0.0
C1923 C 0.38042 0.51752 0.84841 0.0
C1924 C 0.38735 0.53319 0.90421 0.0
C1925 C 0.38153 0.54582 0.85593 0.0
C1926 C 0.40765 0.56774 0.93803 0.0
C1927 C 0.40142 0.52866 0.98111 0.0
N1928 N 0.38547 0.55287 0.88327 0.0
N1929 N 0.39298 0.52281 0.95458 0.0
H1930 H 0.85115 0.31692 0.26987 0.0
H1931 H 0.76064 0.38844 0.39302 0.0
H1932 H 0.76276 0.33828 0.26484 0.0
H1933 H 0.84154 0.34914 0.40741 0.0
H1934 H 0.76635 0.38035 0.34256 0.0
H1935 H 0.85181 0.33534 0.31805 0.0
C1936 C 0.83186 0.3251 0.27894 0.0
C1937 C 0.80687 0.32592 0.26322 0.0
C1938 C 0.78316 0.37404 0.3567 0.0
C1939 C 0.80771 0.34788 0.31779 0.0
C1940 C 0.78012 0.37919 0.38547 0.0
C1941 C 0.80047 0.36912 0.40443 0.0
C1942 C 0.80674 0.35884 0.34694 0.0
C1943 C 0.8252 0.35695 0.39344 0.0
C1944 C 0.83233 0.33593 0.30628 0.0
C1945 C 0.78258 0.33719 0.27601 0.0
N1946 N 0.82744 0.35165 0.36548 0.0
N1947 N 0.78367 0.34778 0.30235 0.0
H1948 H 0.11594 0.47204 0.49092 0.0
H1949 H 0.09099 0.41866 0.33677 0.0
H1950 H 0.08128 0.39036 0.47483 0.0
H1951 H 0.14467 0.48809 0.35598 0.0
H1952 H 0.09071 0.40508 0.38651 0.0
H1953 H 0.12853 0.47646 0.4417 0.0
C1954 C 0.11081 0.45496 0.47702 0.0
C1955 C 0.09707 0.43087 0.48713 0.0
C1956 C 0.10319 0.42283 0.37985 0.0
C1957 C 0.1118 0.43594 0.43015 0.0
C1958 C 0.10355 0.43045 0.35144 0.0
C1959 C 0.11798 0.45445 0.34237 0.0
C1960 C 0.11679 0.43978 0.39944 0.0
C1961 C 0.13355 0.46929 0.36213 0.0
C1962 C 0.11835 0.45745 0.44883 0.0
C1963 C 0.09158 0.40938 0.46797 0.0
N1964 N 0.13208 0.46204 0.38988 0.0
N1965 N 0.09865 0.41257 0.4403 0.0
H1966 H 0.26914 0.16888 0.72956 0.0
H1967 H 0.34666 0.13118 0.58737 0.0
H1968 H 0.35974 0.16563 0.72441 0.0
H1969 H 0.25981 0.11236 0.6041 0.0
H1970 H 0.35357 0.14087 0.63734 0.0
H1971 H 0.2663 0.149 0.68278 0.0
C1972 C 0.28853 0.16437 0.71838 0.0
C1973 C 0.31475 0.16905 0.73101 0.0
C1974 C 0.33321 0.13379 0.63029 0.0
C1975 C 0.31157 0.14563 0.67718 0.0
C1976 C 0.32937 0.12775 0.60184 0.0
C1977 C 0.30259 0.12095 0.59158 0.0
C1978 C 0.30997 0.13346 0.64848 0.0
C1979 C 0.28083 0.1173 0.61111 0.0
C1980 C 0.28685 0.15263 0.69174 0.0
C1981 C 0.33909 0.16273 0.7154 0.0
N1982 N 0.2848 0.12431 0.63851 0.0
N1983 N 0.33691 0.15132 0.68926 0.0
H1984 H 0.4054 0.4947 0.51038 0.0
H1985 H 0.40251 0.45446 0.67377 0.0
H1986 H 0.44242 0.4179 0.54311 0.0
H1987 H 0.34405 0.51287 0.63484 0.0
H1988 H 0.42308 0.44504 0.62757 0.0
H1989 H 0.38984 0.5066 0.55769 0.0
C1990 C 0.41071 0.48051 0.52754 0.0
C1991 C 0.42504 0.45504 0.52259 0.0
C1992 C 0.40573 0.45987 0.62916 0.0
C1993 C 0.40697 0.46862 0.57694 0.0
C1994 C 0.39395 0.46528 0.6555 0.0
C1995 C 0.37143 0.48443 0.65817 0.0
C1996 C 0.3952 0.474 0.60532 0.0
C1997 C 0.36121 0.49778 0.63376 0.0
C1998 C 0.40158 0.48726 0.55455 0.0
C1999 C 0.43135 0.43766 0.54584 0.0
N2000 N 0.37327 0.49242 0.60838 0.0
N2001 N 0.42211 0.44469 0.572 0.0
H2002 H 0.58544 0.10663 0.5352 0.0
H2003 H 0.63667 0.99183 0.64227 0.0
H2004 H 0.5705 0.01836 0.52288 0.0
H2005 H 0.60309 0.06912 0.67554 0.0
H2006 H 0.61701 0.00406 0.59635 0.0
H2007 H 0.59468 0.09668 0.58535 0.0
C2008 C 0.58349 0.08532 0.54306 0.0
C2009 C 0.57763 0.06324 0.52459 0.0
C2010 C 0.61377 0.01834 0.61368 0.0
C2011 C 0.58871 0.05181 0.58153 0.0
C2012 C 0.62515 0.01146 0.63983 0.0
C2013 C 0.62161 0.02959 0.66262 0.0
C2014 C 0.59925 0.0439 0.60993 0.0
C2015 C 0.60623 0.05463 0.65839 0.0
C2016 C 0.58882 0.0797 0.57163 0.0
C2017 C 0.57541 0.03604 0.53607 0.0
N2018 N 0.59593 0.06135 0.63233 0.0
N2019 N 0.58148 0.03107 0.56355 0.0
H2020 H 0.71981 0.72433 0.30459 0.0
H2021 H 0.58826 0.66577 0.38988 0.0
H2022 H 0.7163 0.63836 0.33336 0.0
H2023 H 0.58498 0.74089 0.33851 0.0
H2024 H 0.63514 0.65514 0.37054 0.0
H2025 H 0.67023 0.73047 0.31696 0.0
C2026 C 0.70839 0.70655 0.31297 0.0
C2027 C 0.72216 0.68075 0.31773 0.0
C2028 C 0.62399 0.67381 0.36336 0.0
C2029 C 0.66545 0.68787 0.33295 0.0
C2030 C 0.59729 0.67997 0.3745 0.0
C2031 C 0.58254 0.7043 0.36586 0.0
C2032 C 0.63624 0.6923 0.34374 0.0
C2033 C 0.59535 0.72184 0.34576 0.0
C2034 C 0.68009 0.71009 0.32019 0.0
C2035 C 0.7064 0.65851 0.32898 0.0
N2036 N 0.62142 0.71562 0.33561 0.0
N2037 N 0.67899 0.66269 0.33662 0.0
H2038 H 0.97396 0.00422 0.87814 0.0
H2039 H 0.95022 0.16754 0.90702 0.0
H2040 H 0.90705 0.03342 0.93238 0.0
H2041 H 0.00146 0.13348 0.84022 0.0
H2042 H 0.93533 0.11967 0.91927 0.0
H2043 H 0.98554 0.05226 0.86694 0.0
C2044 C 0.96163 0.02077 0.88783 0.0
C2045 C 0.93948 0.0146 0.90639 0.0
C2046 C 0.94975 0.12281 0.9019 0.0
C2047 C 0.95288 0.07042 0.8934 0.0
C2048 C 0.95835 0.15008 0.89494 0.0
C2049 C 0.97725 0.15461 0.87258 0.0
C2050 C 0.96032 0.09996 0.88653 0.0
C2051 C 0.98696 0.13118 0.85763 0.0
C2052 C 0.96825 0.04837 0.88126 0.0
C2053 C 0.92425 0.03719 0.91794 0.0
N2054 N 0.97848 0.10502 0.86494 0.0
N2055 N 0.93134 0.0642 0.91137 0.0
H2056 H 0.26222 0.75863 0.33037 0.0
H2057 H 0.41024 0.83342 0.34841 0.0
H2058 H 0.27664 0.84523 0.3076 0.0
H2059 H 0.39411 0.74889 0.37667 0.0
H2060 H 0.36027 0.83979 0.33809 0.0
H2061 H 0.30978 0.75542 0.34927 0.0
C2062 C 0.27548 0.77694 0.32904 0.0
C2063 C 0.26531 0.80226 0.31722 0.0
C2064 C 0.36747 0.82002 0.34708 0.0
C2065 C 0.31994 0.79876 0.3394 0.0
C2066 C 0.39595 0.8165 0.35335 0.0
C2067 C 0.40632 0.79054 0.3633 0.0
C2068 C 0.34922 0.79729 0.35045 0.0
C2069 C 0.38697 0.76928 0.36916 0.0
C2070 C 0.30261 0.77513 0.34013 0.0
C2071 C 0.28356 0.82522 0.31624 0.0
N2072 N 0.35939 0.77293 0.36212 0.0
N2073 N 0.30994 0.82292 0.32722 0.0
H2074 H 0.08949 0.46465 0.92542 0.0
H2075 H 0.9645 0.36257 0.89108 0.0
H2076 H 0.00591 0.49571 0.90647 0.0
H2077 H 0.05139 0.33861 0.87994 0.0
H2078 H 0.97859 0.41151 0.89613 0.0
H2079 H 0.07539 0.41792 0.91069 0.0
C2080 C 0.06806 0.46161 0.91848 0.0
C2081 C 0.04879 0.48417 0.91738 0.0
C2082 C 0.99456 0.39571 0.8919 0.0
C2083 C 0.03265 0.43067 0.9001 0.0
C2084 C 0.9865 0.36788 0.88873 0.0
C2085 C 0.00685 0.34676 0.88481 0.0
C2086 C 0.02325 0.40229 0.89196 0.0
C2087 C 0.0351 0.35445 0.88253 0.0
C2088 C 0.06016 0.43497 0.9097 0.0
C2089 C 0.02143 0.47895 0.90779 0.0
N2090 N 0.04257 0.3816 0.88669 0.0
N2091 N 0.01413 0.45271 0.89968 0.0
H2092 H 0.7041 0.27608 0.19378 0.0
H2093 H 0.5604 0.28487 0.1853 0.0
H2094 H 0.70458 0.36127 0.16221 0.0
H2095 H 0.57959 0.33152 0.10952 0.0
H2096 H 0.60733 0.2943 0.20292 0.0
H2097 H 0.65286 0.27588 0.18927 0.0
C2098 C 0.69328 0.29492 0.1865 0.0
C2099 C 0.70839 0.31873 0.17849 0.0
C2100 C 0.60115 0.30262 0.18253 0.0
C2101 C 0.6501 0.31864 0.17297 0.0
C2102 C 0.57433 0.29733 0.17243 0.0
C2103 C 0.56629 0.30666 0.14548 0.0
C2104 C 0.6201 0.3174 0.16559 0.0
C2105 C 0.58507 0.32349 0.1302 0.0
C2106 C 0.6641 0.2949 0.18409 0.0
C2107 C 0.69353 0.3426 0.16889 0.0
N2108 N 0.61135 0.32806 0.14035 0.0
N2109 N 0.66515 0.34174 0.16575 0.0
H2110 H 0.60259 0.03676 0.07338 0.0
H2111 H 0.48962 0.14357 0.13833 0.0
H2112 H 0.51503 0.01753 0.08723 0.0
H2113 H 0.57047 0.16931 0.10718 0.0
H2114 H 0.5027 0.09458 0.12935 0.0
H2115 H 0.59398 0.08378 0.09186 0.0
C2116 C 0.58147 0.04252 0.07986 0.0
C2117 C 0.55951 0.02308 0.0787 0.0
C2118 C 0.51791 0.11086 0.1252 0.0
C2119 C 0.54977 0.07657 0.10064 0.0
C2120 C 0.51067 0.13868 0.13094 0.0
C2121 C 0.52922 0.1602 0.12382 0.0
C2122 C 0.54375 0.10479 0.11206 0.0
C2123 C 0.55587 0.15308 0.11333 0.0
C2124 C 0.57667 0.06926 0.09072 0.0
C2125 C 0.53262 0.03175 0.08761 0.0
N2126 N 0.56224 0.12594 0.10735 0.0
N2127 N 0.52858 0.05777 0.09837 0.0
H2128 H 0.26752 0.22466 0.13264 0.0
H2129 H 0.4172 0.15382 0.15208 0.0
H2130 H 0.28361 0.14973 0.18226 0.0
H2131 H 0.402 0.22847 0.102 0.0
H2132 H 0.36682 0.1451 0.15283 0.0
H2133 H 0.31507 0.2214 0.11374 0.0
C2134 C 0.28109 0.2076 0.13971 0.0
C2135 C 0.27169 0.18769 0.15946 0.0
C2136 C 0.37451 0.16304 0.14109 0.0
C2137 C 0.32603 0.18359 0.13746 0.0
C2138 C 0.4033 0.16786 0.14043 0.0
C2139 C 0.41356 0.19246 0.12786 0.0
C2140 C 0.35605 0.18317 0.12941 0.0
C2141 C 0.39484 0.20959 0.11251 0.0
C2142 C 0.30814 0.20557 0.12862 0.0
C2143 C 0.29007 0.1658 0.16743 0.0
N2144 N 0.36677 0.20511 0.11445 0.0
N2145 N 0.31643 0.16446 0.15655 0.0
H2146 H 0.39457 0.48094 0.12076 0.0
H2147 H 0.45999 0.33091 0.08691 0.0
H2148 H 0.46259 0.47099 0.06154 0.0
H2149 H 0.4455 0.35706 0.17244 0.0
H2150 H 0.44627 0.3779 0.07047 0.0
H2151 H 0.39851 0.43061 0.13271 0.0
C2152 C 0.40975 0.46794 0.10974 0.0
C2153 C 0.42825 0.47985 0.09011 0.0
C2154 C 0.44582 0.3731 0.09279 0.0
C2155 C 0.43258 0.42283 0.10334 0.0
C2156 C 0.45368 0.34631 0.10225 0.0
C2157 C 0.45456 0.34016 0.13119 0.0
C2158 C 0.43789 0.39354 0.11233 0.0
C2159 C 0.44559 0.36102 0.14998 0.0
C2160 C 0.41212 0.43945 0.1167 0.0
C2161 C 0.44796 0.46241 0.07675 0.0
N2162 N 0.43762 0.38683 0.14022 0.0
N2163 N 0.44959 0.43467 0.08355 0.0
H2164 H 0.3154 0.71187 0.63278 0.0
H2165 H 0.33356 0.58812 0.7466 0.0
H2166 H 0.29496 0.72042 0.72066 0.0
H2167 H 0.3817 0.59087 0.66964 0.0
H2168 H 0.31084 0.63242 0.73343 0.0
H2169 H 0.33059 0.66311 0.64198 0.0
C2170 C 0.31321 0.70317 0.6538 0.0
C2171 C 0.30371 0.72006 0.676 0.0
C2172 C 0.32629 0.62331 0.71934 0.0
C2173 C 0.32143 0.66471 0.68669 0.0
C2174 C 0.33925 0.59794 0.7268 0.0
C2175 C 0.35968 0.58573 0.70925 0.0
C2176 C 0.33352 0.63667 0.69397 0.0
C2177 C 0.36627 0.59963 0.68393 0.0
C2178 C 0.32228 0.67554 0.6591 0.0
C2179 C 0.30202 0.70803 0.70297 0.0
N2180 N 0.3532 0.62439 0.67702 0.0
N2181 N 0.31086 0.68115 0.70757 0.0
H2182 H 0.96972 0.41323 0.59866 0.0
H2183 H 0.86533 0.37384 0.47602 0.0
H2184 H 0.99908 0.38743 0.51681 0.0
H2185 H 0.84022 0.37893 0.56286 0.0
H2186 H 0.91478 0.3748 0.49058 0.0
H2187 H 0.92239 0.39888 0.58602 0.0
C2188 C 0.96622 0.40463 0.57797 0.0
C2189 C 0.98842 0.4018 0.55867 0.0
C2190 C 0.89853 0.37491 0.50655 0.0
C2191 C 0.93411 0.38509 0.5441 0.0
C2192 C 0.87038 0.37401 0.49824 0.0
C2193 C 0.84895 0.37588 0.51839 0.0
C2194 C 0.90507 0.37846 0.53511 0.0
C2195 C 0.85631 0.37698 0.54683 0.0
C2196 C 0.93919 0.39617 0.57086 0.0
C2197 C 0.9826 0.39015 0.5323 0.0
N2198 N 0.88379 0.37872 0.55436 0.0
N2199 N 0.95595 0.38246 0.52569 0.0
H2200 H 0.71483 0.79158 0.67409 0.0
H2201 H 0.59708 0.9109 0.68055 0.0
H2202 H 0.62988 0.77741 0.70228 0.0
H2203 H 0.68027 0.92719 0.71247 0.0
H2204 H 0.61169 0.86265 0.67083 0.0
H2205 H 0.70459 0.84264 0.67261 0.0
C2206 C 0.6941 0.79928 0.67985 0.0
C2207 C 0.67324 0.78063 0.68878 0.0
C2208 C 0.62683 0.87704 0.67946 0.0
C2209 C 0.66125 0.83789 0.68598 0.0
C2210 C 0.61861 0.90458 0.6849 0.0
C2211 C 0.63737 0.92294 0.6978 0.0
C2212 C 0.65408 0.86797 0.68653 0.0
C2213 C 0.66504 0.91354 0.70293 0.0
C2214 C 0.68831 0.82816 0.67895 0.0
C2215 C 0.64661 0.7913 0.69579 0.0
N2216 N 0.67257 0.88651 0.69748 0.0
N2217 N 0.6413 0.81924 0.69407 0.0
H2218 H 0.01522 0.09415 0.50271 0.0
H2219 H 0.17821 0.08909 0.54444 0.0
H2220 H 0.04619 0.04985 0.57623 0.0
H2221 H 0.14108 0.15429 0.49241 0.0
H2222 H 0.13159 0.06861 0.55086 0.0
H2223 H 0.06311 0.10926 0.49236 0.0
C2224 C 0.03212 0.08702 0.51636 0.0
C2225 C 0.02651 0.07079 0.54054 0.0
C2226 C 0.13367 0.08739 0.53805 0.0
C2227 C 0.08149 0.08839 0.52885 0.0
C2228 C 0.16027 0.09913 0.53437 0.0
C2229 C 0.16359 0.12358 0.51798 0.0
C2230 C 0.1102 0.0999 0.52489 0.0
C2231 C 0.13952 0.13561 0.50545 0.0
C2232 C 0.05945 0.09596 0.51057 0.0
C2233 C 0.04943 0.06243 0.55744 0.0
N2234 N 0.11391 0.12359 0.50906 0.0
N2235 N 0.07585 0.07144 0.55137 0.0
H2236 H 0.31522 0.2821 0.86166 0.0
H2237 H 0.37928 0.39872 0.7576 0.0
H2238 H 0.32944 0.27052 0.77279 0.0
H2239 H 0.34901 0.41737 0.84094 0.0
H2240 H 0.37007 0.3489 0.76645 0.0
H2241 H 0.33307 0.3301 0.85701 0.0
C2242 C 0.32158 0.28976 0.84112 0.0
C2243 C 0.32068 0.27223 0.81758 0.0
C2244 C 0.36596 0.36384 0.78303 0.0
C2245 C 0.34203 0.32668 0.81231 0.0
C2246 C 0.37175 0.3922 0.77814 0.0
C2247 C 0.36465 0.41216 0.79847 0.0
C2248 C 0.3531 0.35551 0.80843 0.0
C2249 C 0.35455 0.40259 0.82462 0.0
C2250 C 0.33215 0.31701 0.83855 0.0
C2251 C 0.32973 0.28321 0.79156 0.0
N2252 N 0.34865 0.37501 0.82872 0.0
N2253 N 0.34012 0.30957 0.78968 0.0
H2254 H 0.52416 0.38677 0.4 0.0
H2255 H 0.66908 0.41921 0.47553 0.0
H2256 H 0.52896 0.4482 0.46576 0.0
H2257 H 0.64415 0.33442 0.45773 0.0
H2258 H 0.62253 0.43602 0.46045 0.0
H2259 H 0.57356 0.3737 0.40892 0.0
C2260 C 0.53588 0.39808 0.41571 0.0
C2261 C 0.52263 0.41872 0.43208 0.0
C2262 C 0.62742 0.41378 0.45972 0.0
C2263 C 0.5788 0.40392 0.44228 0.0
C2264 C 0.65395 0.40413 0.46828 0.0
C2265 C 0.66045 0.37529 0.46818 0.0
C2266 C 0.60754 0.39457 0.45018 0.0
C2267 C 0.63993 0.35678 0.45844 0.0
C2268 C 0.56386 0.39039 0.42098 0.0
C2269 C 0.53853 0.43227 0.45264 0.0
N2270 N 0.61443 0.36674 0.44967 0.0
N2271 N 0.56585 0.42469 0.45713 0.0
H2272 H 0.67243 0.21727 0.85501 0.0
H2273 H 0.59878 0.08978 0.77723 0.0
H2274 H 0.63287 0.2217 0.77329 0.0
H2275 H 0.65806 0.07845 0.84519 0.0
H2276 H 0.59892 0.14031 0.78545 0.0
H2277 H 0.65778 0.16814 0.85929 0.0
C2278 C 0.6608 0.20794 0.83797 0.0
C2279 C 0.65427 0.22353 0.81359 0.0
C2280 C 0.6114 0.12667 0.79898 0.0
C2281 C 0.63674 0.16788 0.81874 0.0
C2282 C 0.61103 0.09777 0.79455 0.0
C2283 C 0.62913 0.08006 0.80998 0.0
C2284 C 0.62992 0.13769 0.81899 0.0
C2285 C 0.64437 0.09156 0.83232 0.0
C2286 C 0.65222 0.18005 0.84055 0.0
C2287 C 0.63879 0.21047 0.79233 0.0
N2288 N 0.64496 0.11978 0.83576 0.0
N2289 N 0.6306 0.18347 0.79541 0.0
H2290 H 0.47909 0.07287 0.39689 0.0
H2291 H 0.36373 0.14478 0.49733 0.0
H2292 H 0.49936 0.12466 0.46795 0.0
H2293 H 0.34602 0.08021 0.43719 0.0
H2294 H 0.41256 0.1461 0.47983 0.0
H2295 H 0.42911 0.08329 0.40485 0.0
C2296 C 0.47308 0.08656 0.41399 0.0
C2297 C 0.49343 0.09747 0.43203 0.0
C2298 C 0.39779 0.13198 0.4702 0.0
C2299 C 0.43643 0.10964 0.44119 0.0
C2300 C 0.37 0.13142 0.48006 0.0
C2301 C 0.35119 0.11208 0.46891 0.0
C2302 C 0.40643 0.11324 0.449 0.0
C2303 C 0.36016 0.09511 0.44659 0.0
C2304 C 0.44458 0.09254 0.41854 0.0
C2305 C 0.48442 0.11532 0.45377 0.0
N2306 N 0.38716 0.09589 0.43755 0.0
N2307 N 0.45663 0.12068 0.45785 0.0
H2308 H 0.72109 0.2963 0.71273 0.0
H2309 H 0.73988 0.32612 0.57268 0.0
H2310 H 0.63441 0.32136 0.70099 0.0
H2311 H 0.67233 0.38595 0.585 0.0
H2312 H 0.72699 0.30251 0.61606 0.0
H2313 H 0.73035 0.30737 0.66357 0.0
C2314 C 0.7038 0.30328 0.69947 0.0
C2315 C 0.67696 0.30778 0.71082 0.0
C2316 C 0.71506 0.32091 0.60949 0.0
C2317 C 0.6873 0.32069 0.65442 0.0
C2318 C 0.72217 0.33421 0.58438 0.0
C2319 C 0.70727 0.35813 0.57508 0.0
C2320 C 0.69314 0.33187 0.62592 0.0
C2321 C 0.68462 0.36775 0.59149 0.0
C2322 C 0.70904 0.30954 0.67131 0.0
C2323 C 0.65534 0.31727 0.6929 0.0
N2324 N 0.67833 0.35465 0.61626 0.0
N2325 N 0.66112 0.32399 0.66564 0.0
H2326 H 0.73375 0.69946 0.78852 0.0
H2327 H 0.73515 0.68524 0.93298 0.0
H2328 H 0.64426 0.68637 0.79459 0.0
H2329 H 0.66963 0.62552 0.91656 0.0
H2330 H 0.72744 0.70603 0.8866 0.0
H2331 H 0.73751 0.69258 0.83944 0.0
C2332 C 0.71484 0.69574 0.80068 0.0
C2333 C 0.68869 0.6935 0.78738 0.0
C2334 C 0.71468 0.68848 0.89324 0.0
C2335 C 0.69278 0.68548 0.84544 0.0
C2336 C 0.71879 0.67674 0.91987 0.0
C2337 C 0.70329 0.65325 0.92858 0.0
C2338 C 0.69487 0.67671 0.87519 0.0
C2339 C 0.68234 0.64333 0.91057 0.0
C2340 C 0.71694 0.692 0.82973 0.0
C2341 C 0.66482 0.68846 0.80406 0.0
N2342 N 0.67885 0.65501 0.88457 0.0
N2343 N 0.66752 0.684 0.83219 0.0
H2344 H 0.89365 0.01471 0.50047 0.0
H2345 H 0.86717 0.05743 0.33987 0.0
H2346 H 0.91062 0.09755 0.46737 0.0
H2347 H 0.89041 0.97396 0.36759 0.0
H2348 H 0.8678 0.07289 0.38913 0.0
H2349 H 0.87828 0.00041 0.45389 0.0
C2350 C 0.89402 0.02996 0.48343 0.0
C2351 C 0.90375 0.0573 0.48771 0.0
C2352 C 0.87206 0.05106 0.38438 0.0
C2353 C 0.88576 0.04108 0.43452 0.0
C2354 C 0.87136 0.0422 0.35646 0.0
C2355 C 0.87887 0.01449 0.34999 0.0
C2356 C 0.87986 0.03185 0.40564 0.0
C2357 C 0.88459 0.99553 0.37196 0.0
C2358 C 0.88517 0.02177 0.45691 0.0
C2359 C 0.90366 0.07617 0.46486 0.0
N2360 N 0.88516 0.00461 0.39887 0.0
N2361 N 0.89483 0.06768 0.43913 0.0
H2362 H 0.35452 0.81639 0.76669 0.0
H2363 H 0.26139 0.88571 0.88906 0.0
H2364 H 0.26598 0.83673 0.76063 0.0
H2365 H 0.34273 0.84761 0.90425 0.0
H2366 H 0.2679 0.87804 0.83864 0.0
H2367 H 0.35427 0.83425 0.81509 0.0
C2368 C 0.335 0.82417 0.77561 0.0
C2369 C 0.31024 0.82497 0.75955 0.0
C2370 C 0.28461 0.87189 0.85296 0.0
C2371 C 0.31004 0.84631 0.81429 0.0
C2372 C 0.2811 0.87679 0.8817 0.0
C2373 C 0.30136 0.8669 0.90083 0.0
C2374 C 0.30854 0.8571 0.84344 0.0
C2375 C 0.32644 0.85522 0.89012 0.0
C2376 C 0.33495 0.83472 0.80305 0.0
C2377 C 0.28563 0.83573 0.7721 0.0
N2378 N 0.32912 0.85012 0.86218 0.0
N2379 N 0.28621 0.84606 0.79855 0.0
H2380 H 0.58515 0.8908 0.97708 0.0
H2381 H 0.65039 0.99043 0.85702 0.0
H2382 H 0.62257 0.97143 0.99216 0.0
H2383 H 0.59765 0.9197 0.8399 0.0
H2384 H 0.65043 0.97709 0.90711 0.0
H2385 H 0.59799 0.89544 0.92717 0.0
C2386 C 0.5961 0.90938 0.96998 0.0
C2387 C 0.60237 0.9309 0.98886 0.0
C2388 C 0.63942 0.96407 0.89227 0.0
C2389 C 0.61756 0.93614 0.93195 0.0
C2390 C 0.63981 0.97146 0.86367 0.0
C2391 C 0.62406 0.95608 0.84445 0.0
C2392 C 0.62315 0.9412 0.90152 0.0
C2393 C 0.61011 0.93203 0.85418 0.0
C2394 C 0.60352 0.91199 0.94153 0.0
C2395 C 0.61685 0.95444 0.97843 0.0
N2396 N 0.60967 0.92552 0.88206 0.0
N2397 N 0.62384 0.95644 0.95078 0.0
H2398 H 0.77457 0.66238 0.22455 0.0
H2399 H 0.85387 0.63814 0.08159 0.0
H2400 H 0.86504 0.66814 0.22046 0.0
H2401 H 0.77188 0.60492 0.09993 0.0
H2402 H 0.86087 0.64658 0.1318 0.0
H2403 H 0.77432 0.64241 0.1778 0.0
C2404 C 0.79446 0.65976 0.21368 0.0
C2405 C 0.81989 0.66704 0.22661 0.0
C2406 C 0.84173 0.63662 0.12496 0.0
C2407 C 0.8197 0.64362 0.17266 0.0
C2408 C 0.83788 0.63135 0.09634 0.0
C2409 C 0.81207 0.62112 0.08648 0.0
C2410 C 0.81946 0.63192 0.14374 0.0
C2411 C 0.79205 0.61288 0.1065 0.0
C2412 C 0.79429 0.64797 0.18703 0.0
C2413 C 0.84491 0.66314 0.21126 0.0
N2414 N 0.79582 0.61923 0.13407 0.0
N2415 N 0.84419 0.65175 0.18501 0.0
H2416 H 0.9402 0.91618 0.0414 0.0
H2417 H 0.84731 0.01799 0.13604 0.0
H2418 H 0.90012 0.99187 0.00963 0.0
H2419 H 0.90852 0.96041 0.17192 0.0
H2420 H 0.86494 0.00674 0.08921 0.0
H2421 H 0.92827 0.93061 0.08934 0.0
C2422 C 0.92921 0.93595 0.04449 0.0
C2423 C 0.92092 0.95267 0.02139 0.0
C2424 C 0.87462 0.99666 0.10734 0.0
C2425 C 0.90688 0.96903 0.07605 0.0
C2426 C 0.86443 0.00294 0.13408 0.0
C2427 C 0.87637 0.99004 0.15793 0.0
C2428 C 0.89667 0.97705 0.10433 0.0
C2429 C 0.89869 0.97086 0.15409 0.0
C2430 C 0.92239 0.94415 0.07184 0.0
C2431 C 0.90681 0.97816 0.0267 0.0
N2432 N 0.90799 0.96476 0.12776 0.0
N2433 N 0.89994 0.98535 0.0534 0.0
H2434 H 0.07919 0.60762 0.03544 0.0
H2435 H 0.14747 0.4984 0.13764 0.0
H2436 H 0.07416 0.51854 0.02044 0.0
H2437 H 0.09448 0.56146 0.17593 0.0
H2438 H 0.12845 0.51161 0.09164 0.0
H2439 H 0.09042 0.59711 0.08517 0.0
C2440 C 0.0799 0.58597 0.04259 0.0
C2441 C 0.07608 0.56396 0.02348 0.0
C2442 C 0.12103 0.52259 0.11011 0.0
C2443 C 0.08953 0.552 0.07983 0.0
C2444 C 0.13198 0.51521 0.13634 0.0
C2445 C 0.12259 0.5289 0.16064 0.0
C2446 C 0.101 0.54433 0.10788 0.0
C2447 C 0.10221 0.55037 0.15766 0.0
C2448 C 0.08634 0.58005 0.07091 0.0
C2449 C 0.0773 0.53629 0.03408 0.0
N2450 N 0.09226 0.55772 0.13163 0.0
N2451 N 0.08448 0.53114 0.06127 0.0
loop_
_geom_bond_atom_site_label_1
_geom_bond_atom_site_label_2
_geom_bond_distance
_geom_bond_site_symmetry_2
_ccdc_geom_bond_type
Fe0 O2 1.918 . S
Fe0 O5 1.997 . S
Fe0 O6 2.002 . S
Fe0 O11 1.976 . S
Fe0 O14 1.996 . S
Fe1 O2 1.918 . S
Fe1 O9 1.997 . S
Fe1 O12 1.996 . S
Fe1 O16 1.976 . S
Fe1 O19 2.002 . S
O2 Fe0 1.918 . S
O2 Fe1 1.918 . S
O2 Fe3 1.918 . S
Fe3 O2 1.918 . S
Fe3 O4 2.002 . S
Fe3 O13 1.976 . S
Fe3 O17 1.996 . S
Fe3 O20 1.997 . S
O4 Fe3 2.002 . S
O4 C21 1.295 . S
O5 Fe0 1.997 . S
O5 C21 1.235 . S
O6 Fe0 2.002 . S
O6 C7 1.295 . S
C7 O6 1.295 . S
C7 O9 1.235 . S
C8 O13 1.287 . S
C8 O14 1.255 . S
O9 Fe1 1.997 . S
O9 C7 1.235 . S
C10 O16 1.287 . S
C10 O17 1.255 . S
O11 Fe0 1.976 . S
O11 C18 1.287 . S
O12 Fe1 1.996 . S
O12 C18 1.255 . S
O13 Fe3 1.976 . S
O13 C8 1.287 . S
O14 Fe0 1.996 . S
O14 C8 1.255 . S
C15 O19 1.295 . S
C15 O20 1.235 . S
O16 Fe1 1.976 . S
O16 C10 1.287 . S
O17 Fe3 1.996 . S
O17 C10 1.255 . S
C18 O11 1.287 . S
C18 O12 1.255 . S
O19 Fe1 2.002 . S
O19 C15 1.295 . S
O20 Fe3 1.997 . S
O20 C15 1.235 . S
C21 O4 1.295 . S
C21 O5 1.235 . S
Fe22 O24 1.918 . S
Fe22 O27 1.997 . S
Fe22 O28 2.002 . S
Fe22 O33 1.976 . S
Fe22 O36 1.996 . S
Fe23 O24 1.918 . S
Fe23 O31 1.997 . S
Fe23 O34 1.996 . S
Fe23 O38 1.976 . S
Fe23 O41 2.002 . S
O24 Fe22 1.918 . S
O24 Fe23 1.918 . S
O24 Fe25 1.918 . S
Fe25 O24 1.918 . S
Fe25 O26 2.002 . S
Fe25 O35 1.976 . S
Fe25 O39 1.996 . S
Fe25 O42 1.997 . S
O26 Fe25 2.002 . S
O26 C43 1.295 . S
O27 Fe22 1.997 . S
O27 C43 1.235 . S
O28 Fe22 2.002 . S
O28 C29 1.295 . S
C29 O28 1.295 . S
C29 O31 1.235 . S
C30 O35 1.287 . S
C30 O36 1.255 . S
O31 Fe23 1.997 . S
O31 C29 1.235 . S
C32 O38 1.287 . S
C32 O39 1.255 . S
O33 Fe22 1.976 . S
O33 C40 1.287 . S
O34 Fe23 1.996 . S
O34 C40 1.255 . S
O35 Fe25 1.976 . S
O35 C30 1.287 . S
O36 Fe22 1.996 . S
O36 C30 1.255 . S
C37 O41 1.295 . S
C37 O42 1.235 . S
O38 Fe23 1.976 . S
O38 C32 1.287 . S
O39 Fe25 1.996 . S
O39 C32 1.255 . S
C40 O33 1.287 . S
C40 O34 1.255 . S
O41 Fe23 2.002 . S
O41 C37 1.295 . S
O42 Fe25 1.997 . S
O42 C37 1.235 . S
C43 O26 1.295 . S
C43 O27 1.235 . S
Fe44 O46 1.918 . S
Fe44 O49 1.997 . S
Fe44 O50 2.002 . S
Fe44 O55 1.976 . S
Fe44 O58 1.996 . S
Fe45 O46 1.918 . S
Fe45 O53 1.997 . S
Fe45 O56 1.996 . S
Fe45 O60 1.976 . S
Fe45 O63 2.002 . S
O46 Fe44 1.918 . S
O46 Fe45 1.918 . S
O46 Fe47 1.918 . S
Fe47 O46 1.918 . S
Fe47 O48 2.002 . S
Fe47 O57 1.976 . S
Fe47 O61 1.996 . S
Fe47 O64 1.997 . S
O48 Fe47 2.002 . S
O48 C65 1.295 . S
O49 Fe44 1.997 . S
O49 C65 1.235 . S
O50 Fe44 2.002 . S
O50 C51 1.295 . S
C51 O50 1.295 . S
C51 O53 1.235 . S
C52 O57 1.287 . S
C52 O58 1.255 . S
O53 Fe45 1.997 . S
O53 C51 1.235 . S
C54 O60 1.287 . S
C54 O61 1.255 . S
O55 Fe44 1.976 . S
O55 C62 1.287 . S
O56 Fe45 1.996 . S
O56 C62 1.255 . S
O57 Fe47 1.976 . S
O57 C52 1.287 . S
O58 Fe44 1.996 . S
O58 C52 1.255 . S
C59 O63 1.295 . S
C59 O64 1.235 . S
O60 Fe45 1.976 . S
O60 C54 1.287 . S
O61 Fe47 1.996 . S
O61 C54 1.255 . S
C62 O55 1.287 . S
C62 O56 1.255 . S
O63 Fe45 2.002 . S
O63 C59 1.295 . S
O64 Fe47 1.997 . S
O64 C59 1.235 . S
C65 O48 1.295 . S
C65 O49 1.235 . S
Fe66 O68 1.918 . S
Fe66 O71 1.997 . S
Fe66 O72 2.002 . S
Fe66 O77 1.976 . S
Fe66 O80 1.996 . S
Fe67 O68 1.918 . S
Fe67 O75 1.997 . S
Fe67 O78 1.996 . S
Fe67 O82 1.976 . S
Fe67 O85 2.002 . S
O68 Fe66 1.918 . S
O68 Fe67 1.918 . S
O68 Fe69 1.918 . S
Fe69 O68 1.918 . S
Fe69 O70 2.002 . S
Fe69 O79 1.976 . S
Fe69 O83 1.996 . S
Fe69 O86 1.997 . S
O70 Fe69 2.002 . S
O70 C87 1.295 . S
O71 Fe66 1.997 . S
O71 C87 1.235 . S
O72 Fe66 2.002 . S
O72 C73 1.295 . S
C73 O72 1.295 . S
C73 O75 1.235 . S
C74 O79 1.287 . S
C74 O80 1.255 . S
O75 Fe67 1.997 . S
O75 C73 1.235 . S
C76 O82 1.287 . S
C76 O83 1.255 . S
O77 Fe66 1.976 . S
O77 C84 1.287 . S
O78 Fe67 1.996 . S
O78 C84 1.255 . S
O79 Fe69 1.976 . S
O79 C74 1.287 . S
O80 Fe66 1.996 . S
O80 C74 1.255 . S
C81 O85 1.295 . S
C81 O86 1.235 . S
O82 Fe67 1.976 . S
O82 C76 1.287 . S
O83 Fe69 1.996 . S
O83 C76 1.255 . S
C84 O77 1.287 . S
C84 O78 1.255 . S
O85 Fe67 2.002 . S
O85 C81 1.295 . S
O86 Fe69 1.997 . S
O86 C81 1.235 . S
C87 O70 1.295 . S
C87 O71 1.235 . S
Fe88 O90 1.918 . S
Fe88 O93 1.997 . S
Fe88 O94 2.002 . S
Fe88 O99 1.976 . S
Fe88 O102 1.996 . S
Fe89 O90 1.918 . S
Fe89 O97 1.997 . S
Fe89 O100 1.996 . S
Fe89 O104 1.976 . S
Fe89 O107 2.002 . S
O90 Fe88 1.918 . S
O90 Fe89 1.918 . S
O90 Fe91 1.918 . S
Fe91 O90 1.918 . S
Fe91 O92 2.002 . S
Fe91 O101 1.976 . S
Fe91 O105 1.996 . S
Fe91 O108 1.997 . S
O92 Fe91 2.002 . S
O92 C109 1.295 . S
O93 Fe88 1.997 . S
O93 C109 1.235 . S
O94 Fe88 2.002 . S
O94 C95 1.295 . S
C95 O94 1.295 . S
C95 O97 1.235 . S
C96 O101 1.287 . S
C96 O102 1.255 . S
O97 Fe89 1.997 . S
O97 C95 1.235 . S
C98 O104 1.287 . S
C98 O105 1.255 . S
O99 Fe88 1.976 . S
O99 C106 1.287 . S
O100 Fe89 1.996 . S
O100 C106 1.255 . S
O101 Fe91 1.976 . S
O101 C96 1.287 . S
O102 Fe88 1.996 . S
O102 C96 1.255 . S
C103 O107 1.295 . S
C103 O108 1.235 . S
O104 Fe89 1.976 . S
O104 C98 1.287 . S
O105 Fe91 1.996 . S
O105 C98 1.255 . S
C106 O99 1.287 . S
C106 O100 1.255 . S
O107 Fe89 2.002 . S
O107 C103 1.295 . S
O108 Fe91 1.997 . S
O108 C103 1.235 . S
C109 O92 1.295 . S
C109 O93 1.235 . S
Fe110 O112 1.918 . S
Fe110 O115 1.997 . S
Fe110 O116 2.002 . S
Fe110 O121 1.976 . S
Fe110 O124 1.996 . S
Fe111 O112 1.918 . S
Fe111 O119 1.997 . S
Fe111 O122 1.996 . S
Fe111 O126 1.976 . S
Fe111 O129 2.002 . S
O112 Fe110 1.918 . S
O112 Fe111 1.918 . S
O112 Fe113 1.918 . S
Fe113 O112 1.918 . S
Fe113 O114 2.002 . S
Fe113 O123 1.976 . S
Fe113 O127 1.996 . S
Fe113 O130 1.997 . S
O114 Fe113 2.002 . S
O114 C131 1.295 . S
O115 Fe110 1.997 . S
O115 C131 1.235 . S
O116 Fe110 2.002 . S
O116 C117 1.295 . S
C117 O116 1.295 . S
C117 O119 1.235 . S
C118 O123 1.287 . S
C118 O124 1.255 . S
O119 Fe111 1.997 . S
O119 C117 1.235 . S
C120 O126 1.287 . S
C120 O127 1.255 . S
O121 Fe110 1.976 . S
O121 C128 1.287 . S
O122 Fe111 1.996 . S
O122 C128 1.255 . S
O123 Fe113 1.976 . S
O123 C118 1.287 . S
O124 Fe110 1.996 . S
O124 C118 1.255 . S
C125 O129 1.295 . S
C125 O130 1.235 . S
O126 Fe111 1.976 . S
O126 C120 1.287 . S
O127 Fe113 1.996 . S
O127 C120 1.255 . S
C128 O121 1.287 . S
C128 O122 1.255 . S
O129 Fe111 2.002 . S
O129 C125 1.295 . S
O130 Fe113 1.997 . S
O130 C125 1.235 . S
C131 O114 1.295 . S
C131 O115 1.235 . S
Fe132 O134 1.918 . S
Fe132 O137 1.997 . S
Fe132 O138 2.002 . S
Fe132 O143 1.976 . S
Fe132 O146 1.996 . S
Fe133 O134 1.918 . S
Fe133 O141 1.997 . S
Fe133 O144 1.996 . S
Fe133 O148 1.976 . S
Fe133 O151 2.002 . S
O134 Fe132 1.918 . S
O134 Fe133 1.918 . S
O134 Fe135 1.918 . S
Fe135 O134 1.918 . S
Fe135 O136 2.002 . S
Fe135 O145 1.976 . S
Fe135 O149 1.996 . S
Fe135 O152 1.997 . S
O136 Fe135 2.002 . S
O136 C153 1.295 . S
O137 Fe132 1.997 . S
O137 C153 1.235 . S
O138 Fe132 2.002 . S
O138 C139 1.295 . S
C139 O138 1.295 . S
C139 O141 1.235 . S
C140 O145 1.287 . S
C140 O146 1.255 . S
O141 Fe133 1.997 . S
O141 C139 1.235 . S
C142 O148 1.287 . S
C142 O149 1.255 . S
O143 Fe132 1.976 . S
O143 C150 1.287 . S
O144 Fe133 1.996 . S
O144 C150 1.255 . S
O145 Fe135 1.976 . S
O145 C140 1.287 . S
O146 Fe132 1.996 . S
O146 C140 1.255 . S
C147 O151 1.295 . S
C147 O152 1.235 . S
O148 Fe133 1.976 . S
O148 C142 1.287 . S
O149 Fe135 1.996 . S
O149 C142 1.255 . S
C150 O143 1.287 . S
C150 O144 1.255 . S
O151 Fe133 2.002 . S
O151 C147 1.295 . S
O152 Fe135 1.997 . S
O152 C147 1.235 . S
C153 O136 1.295 . S
C153 O137 1.235 . S
Fe154 O156 1.918 . S
Fe154 O159 1.997 . S
Fe154 O160 2.002 . S
Fe154 O165 1.976 . S
Fe154 O168 1.996 . S
Fe155 O156 1.918 . S
Fe155 O163 1.997 . S
Fe155 O166 1.996 . S
Fe155 O170 1.976 . S
Fe155 O173 2.002 . S
O156 Fe154 1.918 . S
O156 Fe155 1.918 . S
O156 Fe157 1.918 . S
Fe157 O156 1.918 . S
Fe157 O158 2.002 . S
Fe157 O167 1.976 . S
Fe157 O171 1.996 . S
Fe157 O174 1.997 . S
O158 Fe157 2.002 . S
O158 C175 1.295 . S
O159 Fe154 1.997 . S
O159 C175 1.235 . S
O160 Fe154 2.002 . S
O160 C161 1.295 . S
C161 O160 1.295 . S
C161 O163 1.235 . S
C162 O167 1.287 . S
C162 O168 1.255 . S
O163 Fe155 1.997 . S
O163 C161 1.235 . S
C164 O170 1.287 . S
C164 O171 1.255 . S
O165 Fe154 1.976 . S
O165 C172 1.287 . S
O166 Fe155 1.996 . S
O166 C172 1.255 . S
O167 Fe157 1.976 . S
O167 C162 1.287 . S
O168 Fe154 1.996 . S
O168 C162 1.255 . S
C169 O173 1.295 . S
C169 O174 1.235 . S
O170 Fe155 1.976 . S
O170 C164 1.287 . S
O171 Fe157 1.996 . S
O171 C164 1.255 . S
C172 O165 1.287 . S
C172 O166 1.255 . S
O173 Fe155 2.002 . S
O173 C169 1.295 . S
O174 Fe157 1.997 . S
O174 C169 1.235 . S
C175 O158 1.295 . S
C175 O159 1.235 . S
Fe176 O178 1.918 . S
Fe176 O181 1.997 . S
Fe176 O182 2.002 . S
Fe176 O187 1.976 . S
Fe176 O190 1.996 . S
Fe177 O178 1.918 . S
Fe177 O185 1.997 . S
Fe177 O188 1.996 . S
Fe177 O192 1.976 . S
Fe177 O195 2.002 . S
O178 Fe176 1.918 . S
O178 Fe177 1.918 . S
O178 Fe179 1.918 . S
Fe179 O178 1.918 . S
Fe179 O180 2.002 . S
Fe179 O189 1.976 . S
Fe179 O193 1.996 . S
Fe179 O196 1.997 . S
O180 Fe179 2.002 . S
O180 C197 1.295 . S
O181 Fe176 1.997 . S
O181 C197 1.235 . S
O182 Fe176 2.002 . S
O182 C183 1.295 . S
C183 O182 1.295 . S
C183 O185 1.235 . S
C184 O189 1.287 . S
C184 O190 1.255 . S
O185 Fe177 1.997 . S
O185 C183 1.235 . S
C186 O192 1.287 . S
C186 O193 1.255 . S
O187 Fe176 1.976 . S
O187 C194 1.287 . S
O188 Fe177 1.996 . S
O188 C194 1.255 . S
O189 Fe179 1.976 . S
O189 C184 1.287 . S
O190 Fe176 1.996 . S
O190 C184 1.255 . S
C191 O195 1.295 . S
C191 O196 1.235 . S
O192 Fe177 1.976 . S
O192 C186 1.287 . S
O193 Fe179 1.996 . S
O193 C186 1.255 . S
C194 O187 1.287 . S
C194 O188 1.255 . S
O195 Fe177 2.002 . S
O195 C191 1.295 . S
O196 Fe179 1.997 . S
O196 C191 1.235 . S
C197 O180 1.295 . S
C197 O181 1.235 . S
Fe198 O200 1.918 . S
Fe198 O203 1.997 . S
Fe198 O204 2.002 . S
Fe198 O209 1.976 . S
Fe198 O212 1.996 . S
Fe199 O200 1.918 . S
Fe199 O207 1.997 . S
Fe199 O210 1.996 . S
Fe199 O214 1.976 . S
Fe199 O217 2.002 . S
O200 Fe198 1.918 . S
O200 Fe199 1.918 . S
O200 Fe201 1.918 . S
Fe201 O200 1.918 . S
Fe201 O202 2.002 . S
Fe201 O211 1.976 . S
Fe201 O215 1.996 . S
Fe201 O218 1.997 . S
O202 Fe201 2.002 . S
O202 C219 1.295 . S
O203 Fe198 1.997 . S
O203 C219 1.235 . S
O204 Fe198 2.002 . S
O204 C205 1.295 . S
C205 O204 1.295 . S
C205 O207 1.235 . S
C206 O211 1.287 . S
C206 O212 1.255 . S
O207 Fe199 1.997 . S
O207 C205 1.235 . S
C208 O214 1.287 . S
C208 O215 1.255 . S
O209 Fe198 1.976 . S
O209 C216 1.287 . S
O210 Fe199 1.996 . S
O210 C216 1.255 . S
O211 Fe201 1.976 . S
O211 C206 1.287 . S
O212 Fe198 1.996 . S
O212 C206 1.255 . S
C213 O217 1.295 . S
C213 O218 1.235 . S
O214 Fe199 1.976 . S
O214 C208 1.287 . S
O215 Fe201 1.996 . S
O215 C208 1.255 . S
C216 O209 1.287 . S
C216 O210 1.255 . S
O217 Fe199 2.002 . S
O217 C213 1.295 . S
O218 Fe201 1.997 . S
O218 C213 1.235 . S
C219 O202 1.295 . S
C219 O203 1.235 . S
Fe220 O222 1.918 . S
Fe220 O225 1.997 . S
Fe220 O226 2.002 . S
Fe220 O231 1.976 . S
Fe220 O234 1.996 . S
Fe221 O222 1.918 . S
Fe221 O229 1.997 . S
Fe221 O232 1.996 . S
Fe221 O236 1.976 . S
Fe221 O239 2.002 . S
O222 Fe220 1.918 . S
O222 Fe221 1.918 . S
O222 Fe223 1.918 . S
Fe223 O222 1.918 . S
Fe223 O224 2.002 . S
Fe223 O233 1.976 . S
Fe223 O237 1.996 . S
Fe223 O240 1.997 . S
O224 Fe223 2.002 . S
O224 C241 1.295 . S
O225 Fe220 1.997 . S
O225 C241 1.235 . S
O226 Fe220 2.002 . S
O226 C227 1.295 . S
C227 O226 1.295 . S
C227 O229 1.235 . S
C228 O233 1.287 . S
C228 O234 1.255 . S
O229 Fe221 1.997 . S
O229 C227 1.235 . S
C230 O236 1.287 . S
C230 O237 1.255 . S
O231 Fe220 1.976 . S
O231 C238 1.287 . S
O232 Fe221 1.996 . S
O232 C238 1.255 . S
O233 Fe223 1.976 . S
O233 C228 1.287 . S
O234 Fe220 1.996 . S
O234 C228 1.255 . S
C235 O239 1.295 . S
C235 O240 1.235 . S
O236 Fe221 1.976 . S
O236 C230 1.287 . S
O237 Fe223 1.996 . S
O237 C230 1.255 . S
C238 O231 1.287 . S
C238 O232 1.255 . S
O239 Fe221 2.002 . S
O239 C235 1.295 . S
O240 Fe223 1.997 . S
O240 C235 1.235 . S
C241 O224 1.295 . S
C241 O225 1.235 . S
Fe242 O244 1.918 . S
Fe242 O247 1.997 . S
Fe242 O248 2.002 . S
Fe242 O253 1.976 . S
Fe242 O256 1.996 . S
Fe243 O244 1.918 . S
Fe243 O251 1.997 . S
Fe243 O254 1.996 . S
Fe243 O258 1.976 . S
Fe243 O261 2.002 . S
O244 Fe242 1.918 . S
O244 Fe243 1.918 . S
O244 Fe245 1.918 . S
Fe245 O244 1.918 . S
Fe245 O246 2.002 . S
Fe245 O255 1.976 . S
Fe245 O259 1.996 . S
Fe245 O262 1.997 . S
O246 Fe245 2.002 . S
O246 C263 1.295 . S
O247 Fe242 1.997 . S
O247 C263 1.235 . S
O248 Fe242 2.002 . S
O248 C249 1.295 . S
C249 O248 1.295 . S
C249 O251 1.235 . S
C250 O255 1.287 . S
C250 O256 1.255 . S
O251 Fe243 1.997 . S
O251 C249 1.235 . S
C252 O258 1.287 . S
C252 O259 1.255 . S
O253 Fe242 1.976 . S
O253 C260 1.287 . S
O254 Fe243 1.996 . S
O254 C260 1.255 . S
O255 Fe245 1.976 . S
O255 C250 1.287 . S
O256 Fe242 1.996 . S
O256 C250 1.255 . S
C257 O261 1.295 . S
C257 O262 1.235 . S
O258 Fe243 1.976 . S
O258 C252 1.287 . S
O259 Fe245 1.996 . S
O259 C252 1.255 . S
C260 O253 1.287 . S
C260 O254 1.255 . S
O261 Fe243 2.002 . S
O261 C257 1.295 . S
O262 Fe245 1.997 . S
O262 C257 1.235 . S
C263 O246 1.295 . S
C263 O247 1.235 . S
Fe264 O266 1.918 . S
Fe264 O269 1.997 . S
Fe264 O270 2.002 . S
Fe264 O275 1.976 . S
Fe264 O278 1.996 . S
Fe265 O266 1.918 . S
Fe265 O273 1.997 . S
Fe265 O276 1.996 . S
Fe265 O280 1.976 . S
Fe265 O283 2.002 . S
O266 Fe264 1.918 . S
O266 Fe265 1.918 . S
O266 Fe267 1.918 . S
Fe267 O266 1.918 . S
Fe267 O268 2.002 . S
Fe267 O277 1.976 . S
Fe267 O281 1.996 . S
Fe267 O284 1.997 . S
O268 Fe267 2.002 . S
O268 C285 1.295 . S
O269 Fe264 1.997 . S
O269 C285 1.235 . S
O270 Fe264 2.002 . S
O270 C271 1.295 . S
C271 O270 1.295 . S
C271 O273 1.235 . S
C272 O277 1.287 . S
C272 O278 1.255 . S
O273 Fe265 1.997 . S
O273 C271 1.235 . S
C274 O280 1.287 . S
C274 O281 1.255 . S
O275 Fe264 1.976 . S
O275 C282 1.287 . S
O276 Fe265 1.996 . S
O276 C282 1.255 . S
O277 Fe267 1.976 . S
O277 C272 1.287 . S
O278 Fe264 1.996 . S
O278 C272 1.255 . S
C279 O283 1.295 . S
C279 O284 1.235 . S
O280 Fe265 1.976 . S
O280 C274 1.287 . S
O281 Fe267 1.996 . S
O281 C274 1.255 . S
C282 O275 1.287 . S
C282 O276 1.255 . S
O283 Fe265 2.002 . S
O283 C279 1.295 . S
O284 Fe267 1.997 . S
O284 C279 1.235 . S
C285 O268 1.295 . S
C285 O269 1.235 . S
Fe286 O288 1.918 . S
Fe286 O291 1.997 . S
Fe286 O292 2.002 . S
Fe286 O297 1.976 . S
Fe286 O300 1.996 . S
Fe287 O288 1.918 . S
Fe287 O295 1.997 . S
Fe287 O298 1.996 . S
Fe287 O302 1.976 . S
Fe287 O305 2.002 . S
O288 Fe286 1.918 . S
O288 Fe287 1.918 . S
O288 Fe289 1.918 . S
Fe289 O288 1.918 . S
Fe289 O290 2.002 . S
Fe289 O299 1.976 . S
Fe289 O303 1.996 . S
Fe289 O306 1.997 . S
O290 Fe289 2.002 . S
O290 C307 1.295 . S
O291 Fe286 1.997 . S
O291 C307 1.235 . S
O292 Fe286 2.002 . S
O292 C293 1.295 . S
C293 O292 1.295 . S
C293 O295 1.235 . S
C294 O299 1.287 . S
C294 O300 1.255 . S
O295 Fe287 1.997 . S
O295 C293 1.235 . S
C296 O302 1.287 . S
C296 O303 1.255 . S
O297 Fe286 1.976 . S
O297 C304 1.287 . S
O298 Fe287 1.996 . S
O298 C304 1.255 . S
O299 Fe289 1.976 . S
O299 C294 1.287 . S
O300 Fe286 1.996 . S
O300 C294 1.255 . S
C301 O305 1.295 . S
C301 O306 1.235 . S
O302 Fe287 1.976 . S
O302 C296 1.287 . S
O303 Fe289 1.996 . S
O303 C296 1.255 . S
C304 O297 1.287 . S
C304 O298 1.255 . S
O305 Fe287 2.002 . S
O305 C301 1.295 . S
O306 Fe289 1.997 . S
O306 C301 1.235 . S
C307 O290 1.295 . S
C307 O291 1.235 . S
Fe308 O310 1.918 . S
Fe308 O313 1.997 . S
Fe308 O314 2.002 . S
Fe308 O319 1.976 . S
Fe308 O322 1.996 . S
Fe309 O310 1.918 . S
Fe309 O317 1.997 . S
Fe309 O320 1.996 . S
Fe309 O324 1.976 . S
Fe309 O327 2.002 . S
O310 Fe308 1.918 . S
O310 Fe309 1.918 . S
O310 Fe311 1.918 . S
Fe311 O310 1.918 . S
Fe311 O312 2.002 . S
Fe311 O321 1.976 . S
Fe311 O325 1.996 . S
Fe311 O328 1.997 . S
O312 Fe311 2.002 . S
O312 C329 1.295 . S
O313 Fe308 1.997 . S
O313 C329 1.235 . S
O314 Fe308 2.002 . S
O314 C315 1.295 . S
C315 O314 1.295 . S
C315 O317 1.235 . S
C316 O321 1.287 . S
C316 O322 1.255 . S
O317 Fe309 1.997 . S
O317 C315 1.235 . S
C318 O324 1.287 . S
C318 O325 1.255 . S
O319 Fe308 1.976 . S
O319 C326 1.287 . S
O320 Fe309 1.996 . S
O320 C326 1.255 . S
O321 Fe311 1.976 . S
O321 C316 1.287 . S
O322 Fe308 1.996 . S
O322 C316 1.255 . S
C323 O327 1.295 . S
C323 O328 1.235 . S
O324 Fe309 1.976 . S
O324 C318 1.287 . S
O325 Fe311 1.996 . S
O325 C318 1.255 . S
C326 O319 1.287 . S
C326 O320 1.255 . S
O327 Fe309 2.002 . S
O327 C323 1.295 . S
O328 Fe311 1.997 . S
O328 C323 1.235 . S
C329 O312 1.295 . S
C329 O313 1.235 . S
Fe330 O332 1.918 . S
Fe330 O335 1.997 . S
Fe330 O336 2.002 . S
Fe330 O341 1.976 . S
Fe330 O344 1.996 . S
Fe331 O332 1.918 . S
Fe331 O339 1.997 . S
Fe331 O342 1.996 . S
Fe331 O346 1.976 . S
Fe331 O349 2.002 . S
O332 Fe330 1.918 . S
O332 Fe331 1.918 . S
O332 Fe333 1.918 . S
Fe333 O332 1.918 . S
Fe333 O334 2.002 . S
Fe333 O343 1.976 . S
Fe333 O347 1.996 . S
Fe333 O350 1.997 . S
O334 Fe333 2.002 . S
O334 C351 1.295 . S
O335 Fe330 1.997 . S
O335 C351 1.235 . S
O336 Fe330 2.002 . S
O336 C337 1.295 . S
C337 O336 1.295 . S
C337 O339 1.235 . S
C338 O343 1.287 . S
C338 O344 1.255 . S
O339 Fe331 1.997 . S
O339 C337 1.235 . S
C340 O346 1.287 . S
C340 O347 1.255 . S
O341 Fe330 1.976 . S
O341 C348 1.287 . S
O342 Fe331 1.996 . S
O342 C348 1.255 . S
O343 Fe333 1.976 . S
O343 C338 1.287 . S
O344 Fe330 1.996 . S
O344 C338 1.255 . S
C345 O349 1.295 . S
C345 O350 1.235 . S
O346 Fe331 1.976 . S
O346 C340 1.287 . S
O347 Fe333 1.996 . S
O347 C340 1.255 . S
C348 O341 1.287 . S
C348 O342 1.255 . S
O349 Fe331 2.002 . S
O349 C345 1.295 . S
O350 Fe333 1.997 . S
O350 C345 1.235 . S
C351 O334 1.295 . S
C351 O335 1.235 . S
C352 O379 1.312 . S
C352 O380 1.208 . S
C353 O374 1.331 . S
C353 O377 1.244 . S
C354 O376 1.264 . S
C354 O378 1.273 . S
Mg355 O357 1.936 1_455 S
Mg355 O364 2.081 1_455 S
Mg355 O366 2.023 . S
Mg355 O370 2.031 . S
Mg355 O379 2.291 . S
Mg356 O357 1.963 . S
Mg356 O367 1.942 . S
Mg356 O368 1.955 1_655 S
Mg356 O375 1.986 . S
O357 Mg355 1.936 1_655 S
O357 Mg356 1.963 . S
O357 Mg358 1.924 . S
Mg358 O357 1.924 . S
Mg358 O359 1.906 1_655 S
Mg358 O363 2.002 1_655 S
Mg358 O369 2.119 . S
Mg358 O373 2.050 . S
Mg358 O379 2.080 1_655 S
O359 Mg358 1.906 1_455 S
O359 Mg360 1.936 . S
O359 Mg361 1.963 1_455 S
Mg360 O359 1.936 . S
Mg360 O369 2.291 1_455 S
Mg360 O374 2.081 . S
Mg360 O376 2.023 1_455 S
Mg360 O380 2.031 . S
Mg361 O359 1.963 1_655 S
Mg361 O365 1.986 1_655 S
Mg361 O377 1.942 1_655 S
Mg361 O378 1.955 . S
C362 O373 1.191 . S
C362 O375 1.307 . S
O363 Mg358 2.002 1_455 S
O363 C382 1.191 . S
O364 Mg355 2.081 1_655 S
O364 C372 1.331 . S
O365 Mg361 1.986 1_455 S
O365 C382 1.307 . S
O366 Mg355 2.023 . S
O366 C381 1.264 . S
O367 Mg356 1.942 . S
O367 C372 1.244 . S
O368 Mg356 1.955 1_455 S
O368 C381 1.273 . S
O369 Mg358 2.119 . S
O369 Mg360 2.291 1_655 S
O369 C371 1.312 . S
O370 Mg355 2.031 . S
O370 C371 1.208 1_455 S
C371 O369 1.312 . S
C371 O370 1.208 1_655 S
C372 O364 1.331 . S
C372 O367 1.244 . S
O373 Mg358 2.050 . S
O373 C362 1.191 . S
O374 C353 1.331 . S
O374 Mg360 2.081 . S
O375 Mg356 1.986 . S
O375 C362 1.307 . S
O376 C354 1.264 . S
O376 Mg360 2.023 1_655 S
O377 C353 1.244 . S
O377 Mg361 1.942 1_455 S
O378 C354 1.273 . S
O378 Mg361 1.955 . S
O379 C352 1.312 . S
O379 Mg355 2.291 . S
O379 Mg358 2.080 1_455 S
O380 C352 1.208 . S
O380 Mg360 2.031 . S
C381 O366 1.264 . S
C381 O368 1.273 . S
C382 O363 1.191 . S
C382 O365 1.307 . S
C383 O410 1.312 . S
C383 O411 1.208 . S
C384 O405 1.331 . S
C384 O408 1.244 . S
C385 O407 1.264 . S
C385 O409 1.273 . S
Mg386 O388 1.936 . S
Mg386 O395 2.081 . S
Mg386 O397 2.023 . S
Mg386 O401 2.031 . S
Mg386 O410 2.291 . S
Mg387 O388 1.963 . S
Mg387 O398 1.942 . S
Mg387 O399 1.955 . S
Mg387 O406 1.986 . S
O388 Mg386 1.936 . S
O388 Mg387 1.963 . S
O388 Mg389 1.915 . S
Mg389 O388 1.915 . S
Mg389 O390 1.915 . S
Mg389 O394 2.013 . S
Mg389 O400 2.114 . S
Mg389 O404 2.013 . S
Mg389 O410 2.114 . S
O390 Mg389 1.915 . S
O390 Mg391 1.936 . S
O390 Mg392 1.963 . S
Mg391 O390 1.936 . S
Mg391 O400 2.291 . S
Mg391 O405 2.081 . S
Mg391 O407 2.023 . S
Mg391 O411 2.031 . S
Mg392 O390 1.963 . S
Mg392 O396 1.986 . S
Mg392 O408 1.942 . S
Mg392 O409 1.955 . S
C393 O404 1.191 . S
C393 O406 1.307 . S
O394 Mg389 2.013 . S
O394 C413 1.191 . S
O395 Mg386 2.081 . S
O395 C403 1.331 . S
O396 Mg392 1.986 . S
O396 C413 1.307 . S
O397 Mg386 2.023 . S
O397 C412 1.264 . S
O398 Mg387 1.942 . S
O398 C403 1.244 . S
O399 Mg387 1.955 . S
O399 C412 1.273 . S
O400 Mg389 2.114 . S
O400 Mg391 2.291 . S
O400 C402 1.312 . S
O401 Mg386 2.031 . S
O401 C402 1.208 . S
C402 O400 1.312 . S
C402 O401 1.208 . S
C403 O395 1.331 . S
C403 O398 1.244 . S
O404 Mg389 2.013 . S
O404 C393 1.191 . S
O405 C384 1.331 . S
O405 Mg391 2.081 . S
O406 Mg387 1.986 . S
O406 C393 1.307 . S
O407 C385 1.264 . S
O407 Mg391 2.023 . S
O408 C384 1.244 . S
O408 Mg392 1.942 . S
O409 C385 1.273 . S
O409 Mg392 1.955 . S
O410 C383 1.312 . S
O410 Mg386 2.291 . S
O410 Mg389 2.114 . S
O411 C383 1.208 . S
O411 Mg391 2.031 . S
C412 O397 1.264 . S
C412 O399 1.273 . S
C413 O394 1.191 . S
C413 O396 1.307 . S
C414 O441 1.312 . S
C414 O442 1.211 . S
C415 O436 1.331 . S
C415 O439 1.244 . S
C416 O438 1.264 . S
C416 O440 1.273 . S
Mg417 O419 1.936 . S
Mg417 O426 2.081 . S
Mg417 O428 2.023 1_455 S
Mg417 O432 2.031 . S
Mg417 O441 2.291 1_455 S
Mg418 O419 1.963 1_655 S
Mg418 O429 1.942 1_655 S
Mg418 O430 1.955 . S
Mg418 O437 1.986 1_655 S
O419 Mg417 1.936 . S
O419 Mg418 1.963 1_455 S
O419 Mg420 1.915 1_455 S
Mg420 O419 1.915 1_655 S
Mg420 O421 1.915 . S
Mg420 O425 2.013 . S
Mg420 O431 2.114 1_655 S
Mg420 O435 2.013 1_655 S
Mg420 O441 2.114 . S
O421 Mg420 1.915 . S
O421 Mg422 1.936 1_655 S
O421 Mg423 1.963 . S
Mg422 O421 1.936 1_455 S
Mg422 O431 2.291 . S
Mg422 O436 2.081 1_455 S
Mg422 O438 2.023 . S
Mg422 O442 2.028 1_455 S
Mg423 O421 1.963 . S
Mg423 O427 1.986 . S
Mg423 O439 1.942 . S
Mg423 O440 1.955 1_655 S
C424 O435 1.191 . S
C424 O437 1.307 . S
O425 Mg420 2.013 . S
O425 C444 1.191 . S
O426 Mg417 2.081 . S
O426 C434 1.331 . S
O427 Mg423 1.986 . S
O427 C444 1.307 . S
O428 Mg417 2.023 1_655 S
O428 C443 1.264 . S
O429 Mg418 1.942 1_455 S
O429 C434 1.244 . S
O430 Mg418 1.955 . S
O430 C443 1.273 . S
O431 Mg420 2.114 1_455 S
O431 Mg422 2.291 . S
O431 C433 1.312 . S
O432 Mg417 2.031 . S
O432 C433 1.208 . S
C433 O431 1.312 . S
C433 O432 1.208 . S
C434 O426 1.331 . S
C434 O429 1.244 . S
O435 Mg420 2.013 1_455 S
O435 C424 1.191 . S
O436 C415 1.331 . S
O436 Mg422 2.081 1_655 S
O437 Mg418 1.986 1_455 S
O437 C424 1.307 . S
O438 C416 1.264 . S
O438 Mg422 2.023 . S
O439 C415 1.244 . S
O439 Mg423 1.942 . S
O440 C416 1.273 . S
O440 Mg423 1.955 1_455 S
O441 C414 1.312 . S
O441 Mg417 2.291 1_655 S
O441 Mg420 2.114 . S
O442 C414 1.211 . S
O442 Mg422 2.028 1_655 S
C443 O428 1.264 . S
C443 O430 1.273 . S
C444 O425 1.191 . S
C444 O427 1.307 . S
C445 O472 1.312 . S
C445 O473 1.208 . S
C446 O467 1.331 . S
C446 O470 1.244 . S
C447 O469 1.264 . S
C447 O471 1.273 . S
Mg448 O450 1.936 . S
Mg448 O457 2.081 . S
Mg448 O459 2.023 1_545 S
Mg448 O463 2.031 . S
Mg448 O472 2.291 1_545 S
Mg449 O450 1.963 1_565 S
Mg449 O460 1.942 1_565 S
Mg449 O461 1.955 . S
Mg449 O468 1.986 1_565 S
O450 Mg448 1.936 . S
O450 Mg449 1.963 1_545 S
O450 Mg451 1.915 1_545 S
Mg451 O450 1.915 1_565 S
Mg451 O452 1.915 . S
Mg451 O456 2.013 . S
Mg451 O462 2.114 1_565 S
Mg451 O466 2.013 1_565 S
Mg451 O472 2.114 . S
O452 Mg451 1.915 . S
O452 Mg453 1.936 1_565 S
O452 Mg454 1.963 . S
Mg453 O452 1.936 1_545 S
Mg453 O462 2.291 . S
Mg453 O467 2.081 1_545 S
Mg453 O469 2.023 . S
Mg453 O473 2.032 1_545 S
Mg454 O452 1.963 . S
Mg454 O458 1.986 . S
Mg454 O470 1.942 . S
Mg454 O471 1.955 1_565 S
C455 O466 1.191 . S
C455 O468 1.307 . S
O456 Mg451 2.013 . S
O456 C475 1.191 . S
O457 Mg448 2.081 . S
O457 C465 1.331 . S
O458 Mg454 1.986 . S
O458 C475 1.307 . S
O459 Mg448 2.023 1_565 S
O459 C474 1.264 . S
O460 Mg449 1.942 1_545 S
O460 C465 1.244 . S
O461 Mg449 1.955 . S
O461 C474 1.273 . S
O462 Mg451 2.114 1_545 S
O462 Mg453 2.291 . S
O462 C464 1.312 . S
O463 Mg448 2.031 . S
O463 C464 1.208 . S
C464 O462 1.312 . S
C464 O463 1.208 . S
C465 O457 1.331 . S
C465 O460 1.244 . S
O466 Mg451 2.013 1_545 S
O466 C455 1.191 . S
O467 C446 1.331 . S
O467 Mg453 2.081 1_565 S
O468 Mg449 1.986 1_545 S
O468 C455 1.307 . S
O469 C447 1.264 . S
O469 Mg453 2.023 . S
O470 C446 1.244 . S
O470 Mg454 1.942 . S
O471 C447 1.273 . S
O471 Mg454 1.955 1_545 S
O472 C445 1.312 . S
O472 Mg448 2.291 1_565 S
O472 Mg451 2.114 . S
O473 C445 1.208 . S
O473 Mg453 2.032 1_565 S
C474 O459 1.264 . S
C474 O461 1.273 . S
C475 O456 1.191 . S
C475 O458 1.307 . S
C476 O503 1.312 . S
C476 O504 1.208 . S
C477 O498 1.331 . S
C477 O501 1.244 . S
C478 O500 1.264 . S
C478 O502 1.273 . S
Mg479 O481 1.936 1_554 S
Mg479 O488 2.081 1_554 S
Mg479 O490 2.023 . S
Mg479 O494 2.029 1_554 S
Mg479 O503 2.291 . S
Mg480 O481 1.963 . S
Mg480 O491 1.942 . S
Mg480 O492 1.955 1_556 S
Mg480 O499 1.986 . S
O481 Mg479 1.936 1_556 S
O481 Mg480 1.963 . S
O481 Mg482 1.915 . S
Mg482 O481 1.915 . S
Mg482 O483 1.915 1_556 S
Mg482 O487 2.013 1_556 S
Mg482 O493 2.114 . S
Mg482 O497 2.013 . S
Mg482 O503 2.114 1_556 S
O483 Mg482 1.915 1_554 S
O483 Mg484 1.936 . S
O483 Mg485 1.963 1_554 S
Mg484 O483 1.936 . S
Mg484 O493 2.291 1_554 S
Mg484 O498 2.081 . S
Mg484 O500 2.023 1_554 S
Mg484 O504 2.031 . S
Mg485 O483 1.963 1_556 S
Mg485 O489 1.986 1_556 S
Mg485 O501 1.942 1_556 S
Mg485 O502 1.955 . S
C486 O497 1.191 . S
C486 O499 1.307 . S
O487 Mg482 2.013 1_554 S
O487 C506 1.191 . S
O488 Mg479 2.081 1_556 S
O488 C496 1.331 . S
O489 Mg485 1.986 1_554 S
O489 C506 1.307 . S
O490 Mg479 2.023 . S
O490 C505 1.264 . S
O491 Mg480 1.942 . S
O491 C496 1.244 . S
O492 Mg480 1.955 1_554 S
O492 C505 1.273 . S
O493 Mg482 2.114 . S
O493 Mg484 2.291 1_556 S
O493 C495 1.312 . S
O494 Mg479 2.029 1_556 S
O494 C495 1.210 . S
C495 O493 1.312 . S
C495 O494 1.210 . S
C496 O488 1.331 . S
C496 O491 1.244 . S
O497 Mg482 2.013 . S
O497 C486 1.191 . S
O498 C477 1.331 . S
O498 Mg484 2.081 . S
O499 Mg480 1.986 . S
O499 C486 1.307 . S
O500 C478 1.264 . S
O500 Mg484 2.023 1_556 S
O501 C477 1.244 . S
O501 Mg485 1.942 1_554 S
O502 C478 1.273 . S
O502 Mg485 1.955 . S
O503 C476 1.312 . S
O503 Mg479 2.291 . S
O503 Mg482 2.114 1_554 S
O504 C476 1.208 . S
O504 Mg484 2.031 . S
C505 O490 1.264 . S
C505 O492 1.273 . S
C506 O487 1.191 . S
C506 O489 1.307 . S
C507 O534 1.312 . S
C507 O535 1.208 . S
C508 O529 1.331 . S
C508 O532 1.244 . S
C509 O531 1.264 . S
C509 O533 1.273 . S
Mg510 O512 1.936 . S
Mg510 O519 2.081 . S
Mg510 O521 2.023 . S
Mg510 O525 2.031 . S
Mg510 O534 2.291 . S
Mg511 O512 1.963 . S
Mg511 O522 1.942 . S
Mg511 O523 1.955 . S
Mg511 O530 1.986 . S
O512 Mg510 1.936 . S
O512 Mg511 1.963 . S
O512 Mg513 1.915 . S
Mg513 O512 1.915 . S
Mg513 O514 1.915 . S
Mg513 O518 2.013 . S
Mg513 O524 2.114 . S
Mg513 O528 2.013 . S
Mg513 O534 2.114 . S
O514 Mg513 1.915 . S
O514 Mg515 1.936 . S
O514 Mg516 1.963 . S
Mg515 O514 1.936 . S
Mg515 O524 2.291 . S
Mg515 O529 2.081 . S
Mg515 O531 2.023 . S
Mg515 O535 2.031 . S
Mg516 O514 1.963 . S
Mg516 O520 1.986 . S
Mg516 O532 1.942 . S
Mg516 O533 1.955 . S
C517 O528 1.191 . S
C517 O530 1.307 . S
O518 Mg513 2.013 . S
O518 C537 1.191 . S
O519 Mg510 2.081 . S
O519 C527 1.331 . S
O520 Mg516 1.986 . S
O520 C537 1.307 . S
O521 Mg510 2.023 . S
O521 C536 1.264 . S
O522 Mg511 1.942 . S
O522 C527 1.244 . S
O523 Mg511 1.955 . S
O523 C536 1.273 . S
O524 Mg513 2.114 . S
O524 Mg515 2.291 . S
O524 C526 1.312 . S
O525 Mg510 2.031 . S
O525 C526 1.208 . S
C526 O524 1.312 . S
C526 O525 1.208 . S
C527 O519 1.331 . S
C527 O522 1.244 . S
O528 Mg513 2.013 . S
O528 C517 1.191 . S
O529 C508 1.331 . S
O529 Mg515 2.081 . S
O530 Mg511 1.986 . S
O530 C517 1.307 . S
O531 C509 1.264 . S
O531 Mg515 2.023 . S
O532 C508 1.244 . S
O532 Mg516 1.942 . S
O533 C509 1.273 . S
O533 Mg516 1.955 . S
O534 C507 1.312 . S
O534 Mg510 2.291 . S
O534 Mg513 2.114 . S
O535 C507 1.208 . S
O535 Mg515 2.031 . S
C536 O521 1.264 . S
C536 O523 1.273 . S
C537 O518 1.191 . S
C537 O520 1.307 . S
C538 O565 1.312 . S
C538 O566 1.208 . S
C539 O560 1.331 . S
C539 O563 1.244 . S
C540 O562 1.264 . S
C540 O564 1.273 . S
Mg541 O543 1.936 . S
Mg541 O550 2.081 . S
Mg541 O552 2.023 1_556 S
Mg541 O556 2.031 . S
Mg541 O565 2.291 1_556 S
Mg542 O543 1.963 1_554 S
Mg542 O553 1.942 1_554 S
Mg542 O554 1.955 . S
Mg542 O561 1.986 1_554 S
O543 Mg541 1.936 . S
O543 Mg542 1.963 1_556 S
O543 Mg544 1.915 1_556 S
Mg544 O543 1.915 1_554 S
Mg544 O545 1.915 . S
Mg544 O549 2.013 . S
Mg544 O555 2.114 1_554 S
Mg544 O559 2.013 1_554 S
Mg544 O565 2.114 . S
O545 Mg544 1.915 . S
O545 Mg546 1.936 1_554 S
O545 Mg547 1.963 . S
Mg546 O545 1.936 1_556 S
Mg546 O555 2.291 . S
Mg546 O560 2.081 1_556 S
Mg546 O562 2.023 . S
Mg546 O566 2.031 1_556 S
Mg547 O545 1.963 . S
Mg547 O551 1.986 . S
Mg547 O563 1.942 . S
Mg547 O564 1.955 1_554 S
C548 O559 1.191 . S
C548 O561 1.307 . S
O549 Mg544 2.013 . S
O549 C568 1.191 . S
O550 Mg541 2.081 . S
O550 C558 1.331 . S
O551 Mg547 1.986 . S
O551 C568 1.307 . S
O552 Mg541 2.023 1_554 S
O552 C567 1.264 . S
O553 Mg542 1.942 1_556 S
O553 C558 1.244 . S
O554 Mg542 1.955 . S
O554 C567 1.273 . S
O555 Mg544 2.114 1_556 S
O555 Mg546 2.291 . S
O555 C557 1.312 . S
O556 Mg541 2.031 . S
O556 C557 1.208 . S
C557 O555 1.312 . S
C557 O556 1.208 . S
C558 O550 1.331 . S
C558 O553 1.244 . S
O559 Mg544 2.013 1_556 S
O559 C548 1.191 . S
O560 C539 1.331 . S
O560 Mg546 2.081 1_554 S
O561 Mg542 1.986 1_556 S
O561 C548 1.307 . S
O562 C540 1.264 . S
O562 Mg546 2.023 . S
O563 C539 1.244 . S
O563 Mg547 1.942 . S
O564 C540 1.273 . S
O564 Mg547 1.955 1_556 S
O565 C538 1.312 . S
O565 Mg541 2.291 1_554 S
O565 Mg544 2.114 . S
O566 C538 1.208 . S
O566 Mg546 2.031 1_554 S
C567 O552 1.264 . S
C567 O554 1.273 . S
C568 O549 1.191 . S
C568 O551 1.307 . S
C569 O596 1.312 . S
C569 O597 1.208 . S
C570 O591 1.331 . S
C570 O594 1.244 . S
C571 O593 1.264 . S
C571 O595 1.273 . S
Mg572 O574 1.936 . S
Mg572 O581 2.081 . S
Mg572 O583 2.023 . S
Mg572 O587 2.031 . S
Mg572 O596 2.291 . S
Mg573 O574 1.963 . S
Mg573 O584 1.942 . S
Mg573 O585 1.955 . S
Mg573 O592 1.986 . S
O574 Mg572 1.936 . S
O574 Mg573 1.963 . S
O574 Mg575 1.915 . S
Mg575 O574 1.915 . S
Mg575 O576 1.915 . S
Mg575 O580 2.013 . S
Mg575 O586 2.114 . S
Mg575 O590 2.013 . S
Mg575 O596 2.114 . S
O576 Mg575 1.915 . S
O576 Mg577 1.936 . S
O576 Mg578 1.963 . S
Mg577 O576 1.936 . S
Mg577 O586 2.291 . S
Mg577 O591 2.081 . S
Mg577 O593 2.023 . S
Mg577 O597 2.031 . S
Mg578 O576 1.963 . S
Mg578 O582 1.986 . S
Mg578 O594 1.942 . S
Mg578 O595 1.955 . S
C579 O590 1.191 . S
C579 O592 1.307 . S
O580 Mg575 2.013 . S
O580 C599 1.191 . S
O581 Mg572 2.081 . S
O581 C589 1.331 . S
O582 Mg578 1.986 . S
O582 C599 1.307 . S
O583 Mg572 2.023 . S
O583 C598 1.264 . S
O584 Mg573 1.942 . S
O584 C589 1.244 . S
O585 Mg573 1.955 . S
O585 C598 1.273 . S
O586 Mg575 2.114 . S
O586 Mg577 2.291 . S
O586 C588 1.312 . S
O587 Mg572 2.031 . S
O587 C588 1.208 . S
C588 O586 1.312 . S
C588 O587 1.208 . S
C589 O581 1.331 . S
C589 O584 1.244 . S
O590 Mg575 2.013 . S
O590 C579 1.191 . S
O591 C570 1.331 . S
O591 Mg577 2.081 . S
O592 Mg573 1.986 . S
O592 C579 1.307 . S
O593 C571 1.264 . S
O593 Mg577 2.023 . S
O594 C570 1.244 . S
O594 Mg578 1.942 . S
O595 C571 1.273 . S
O595 Mg578 1.955 . S
O596 C569 1.312 . S
O596 Mg572 2.291 . S
O596 Mg575 2.114 . S
O597 C569 1.208 . S
O597 Mg577 2.031 . S
C598 O583 1.264 . S
C598 O585 1.273 . S
C599 O580 1.191 . S
C599 O582 1.307 . S
C600 O627 1.312 . S
C600 O628 1.208 . S
C601 O622 1.331 . S
C601 O625 1.244 . S
C602 O624 1.264 . S
C602 O626 1.273 . S
Mg603 O605 1.936 . S
Mg603 O612 2.081 . S
Mg603 O614 2.023 . S
Mg603 O618 2.031 . S
Mg603 O627 2.291 . S
Mg604 O605 1.963 . S
Mg604 O615 1.942 . S
Mg604 O616 1.955 . S
Mg604 O623 1.986 . S
O605 Mg603 1.936 . S
O605 Mg604 1.963 . S
O605 Mg606 1.915 . S
Mg606 O605 1.915 . S
Mg606 O607 1.915 . S
Mg606 O611 2.013 . S
Mg606 O617 2.114 . S
Mg606 O621 2.013 . S
Mg606 O627 2.114 . S
O607 Mg606 1.915 . S
O607 Mg608 1.936 . S
O607 Mg609 1.963 . S
Mg608 O607 1.936 . S
Mg608 O617 2.291 . S
Mg608 O622 2.081 . S
Mg608 O624 2.023 . S
Mg608 O628 2.031 . S
Mg609 O607 1.963 . S
Mg609 O613 1.986 . S
Mg609 O625 1.942 . S
Mg609 O626 1.955 . S
C610 O621 1.191 . S
C610 O623 1.307 . S
O611 Mg606 2.013 . S
O611 C630 1.191 . S
O612 Mg603 2.081 . S
O612 C620 1.331 . S
O613 Mg609 1.986 . S
O613 C630 1.307 . S
O614 Mg603 2.023 . S
O614 C629 1.264 . S
O615 Mg604 1.942 . S
O615 C620 1.244 . S
O616 Mg604 1.955 . S
O616 C629 1.273 . S
O617 Mg606 2.114 . S
O617 Mg608 2.291 . S
O617 C619 1.312 . S
O618 Mg603 2.031 . S
O618 C619 1.208 . S
C619 O617 1.312 . S
C619 O618 1.208 . S
C620 O612 1.331 . S
C620 O615 1.244 . S
O621 Mg606 2.013 . S
O621 C610 1.191 . S
O622 C601 1.331 . S
O622 Mg608 2.081 . S
O623 Mg604 1.986 . S
O623 C610 1.307 . S
O624 C602 1.264 . S
O624 Mg608 2.023 . S
O625 C601 1.244 . S
O625 Mg609 1.942 . S
O626 C602 1.273 . S
O626 Mg609 1.955 . S
O627 C600 1.312 . S
O627 Mg603 2.291 . S
O627 Mg606 2.114 . S
O628 C600 1.208 . S
O628 Mg608 2.031 . S
C629 O614 1.264 . S
C629 O616 1.273 . S
C630 O611 1.191 . S
C630 O613 1.307 . S
C631 O658 1.312 . S
C631 O659 1.208 . S
C632 O653 1.331 . S
C632 O656 1.244 . S
C633 O655 1.264 . S
C633 O657 1.273 . S
Mg634 O636 1.936 . S
Mg634 O643 2.081 . S
Mg634 O645 2.023 . S
Mg634 O649 2.031 . S
Mg634 O658 2.291 . S
Mg635 O636 1.963 . S
Mg635 O646 1.942 . S
Mg635 O647 1.955 . S
Mg635 O654 1.986 . S
O636 Mg634 1.936 . S
O636 Mg635 1.963 . S
O636 Mg637 1.915 . S
Mg637 O636 1.915 . S
Mg637 O638 1.915 . S
Mg637 O642 2.013 . S
Mg637 O648 2.114 . S
Mg637 O652 2.013 . S
Mg637 O658 2.114 . S
O638 Mg637 1.915 . S
O638 Mg639 1.936 . S
O638 Mg640 1.963 . S
Mg639 O638 1.936 . S
Mg639 O648 2.291 . S
Mg639 O653 2.081 . S
Mg639 O655 2.023 . S
Mg639 O659 2.031 . S
Mg640 O638 1.963 . S
Mg640 O644 1.986 . S
Mg640 O656 1.942 . S
Mg640 O657 1.955 . S
C641 O652 1.191 . S
C641 O654 1.307 . S
O642 Mg637 2.013 . S
O642 C661 1.191 . S
O643 Mg634 2.081 . S
O643 C651 1.331 . S
O644 Mg640 1.986 . S
O644 C661 1.307 . S
O645 Mg634 2.023 . S
O645 C660 1.264 . S
O646 Mg635 1.942 . S
O646 C651 1.244 . S
O647 Mg635 1.955 . S
O647 C660 1.273 . S
O648 Mg637 2.114 . S
O648 Mg639 2.291 . S
O648 C650 1.312 . S
O649 Mg634 2.031 . S
O649 C650 1.208 . S
C650 O648 1.312 . S
C650 O649 1.208 . S
C651 O643 1.331 . S
C651 O646 1.244 . S
O652 Mg637 2.013 . S
O652 C641 1.191 . S
O653 C632 1.331 . S
O653 Mg639 2.081 . S
O654 Mg635 1.986 . S
O654 C641 1.307 . S
O655 C633 1.264 . S
O655 Mg639 2.023 . S
O656 C632 1.244 . S
O656 Mg640 1.942 . S
O657 C633 1.273 . S
O657 Mg640 1.955 . S
O658 C631 1.312 . S
O658 Mg634 2.291 . S
O658 Mg637 2.114 . S
O659 C631 1.208 . S
O659 Mg639 2.031 . S
C660 O645 1.264 . S
C660 O647 1.273 . S
C661 O642 1.191 . S
C661 O644 1.307 . S
C662 O689 1.312 . S
C662 O690 1.208 . S
C663 O684 1.331 . S
C663 O687 1.244 . S
C664 O686 1.264 . S
C664 O688 1.273 . S
Mg665 O667 1.936 . S
Mg665 O674 2.081 . S
Mg665 O676 2.023 1_565 S
Mg665 O680 2.031 . S
Mg665 O689 2.291 1_565 S
Mg666 O667 1.963 1_545 S
Mg666 O677 1.942 1_545 S
Mg666 O678 1.955 . S
Mg666 O685 1.986 1_545 S
O667 Mg665 1.936 . S
O667 Mg666 1.963 1_565 S
O667 Mg668 1.915 1_565 S
Mg668 O667 1.915 1_545 S
Mg668 O669 1.915 . S
Mg668 O673 2.013 . S
Mg668 O679 2.114 1_545 S
Mg668 O683 2.013 1_545 S
Mg668 O689 2.114 . S
O669 Mg668 1.915 . S
O669 Mg670 1.936 1_545 S
O669 Mg671 1.963 . S
Mg670 O669 1.936 1_565 S
Mg670 O679 2.291 . S
Mg670 O684 2.081 1_565 S
Mg670 O686 2.023 . S
Mg670 O690 2.031 1_565 S
Mg671 O669 1.963 . S
Mg671 O675 1.986 . S
Mg671 O687 1.942 . S
Mg671 O688 1.955 1_545 S
C672 O683 1.191 . S
C672 O685 1.307 . S
O673 Mg668 2.013 . S
O673 C692 1.191 . S
O674 Mg665 2.081 . S
O674 C682 1.331 . S
O675 Mg671 1.986 . S
O675 C692 1.307 . S
O676 Mg665 2.023 1_545 S
O676 C691 1.264 . S
O677 Mg666 1.942 1_565 S
O677 C682 1.244 . S
O678 Mg666 1.955 . S
O678 C691 1.273 . S
O679 Mg668 2.114 1_565 S
O679 Mg670 2.291 . S
O679 C681 1.312 . S
O680 Mg665 2.031 . S
O680 C681 1.208 . S
C681 O679 1.312 . S
C681 O680 1.208 . S
C682 O674 1.331 . S
C682 O677 1.244 . S
O683 Mg668 2.013 1_565 S
O683 C672 1.191 . S
O684 C663 1.331 . S
O684 Mg670 2.081 1_545 S
O685 Mg666 1.986 1_565 S
O685 C672 1.307 . S
O686 C664 1.264 . S
O686 Mg670 2.023 . S
O687 C663 1.244 . S
O687 Mg671 1.942 . S
O688 C664 1.273 . S
O688 Mg671 1.955 1_565 S
O689 C662 1.312 . S
O689 Mg665 2.291 1_545 S
O689 Mg668 2.114 . S
O690 C662 1.208 . S
O690 Mg670 2.031 1_545 S
C691 O676 1.264 . S
C691 O678 1.273 . S
C692 O673 1.191 . S
C692 O675 1.307 . S
C693 O720 1.312 . S
C693 O721 1.208 . S
C694 O715 1.331 . S
C694 O718 1.244 . S
C695 O717 1.264 . S
C695 O719 1.273 . S
Mg696 O698 1.936 . S
Mg696 O705 2.081 . S
Mg696 O707 2.023 . S
Mg696 O711 2.031 . S
Mg696 O720 2.291 . S
Mg697 O698 1.963 . S
Mg697 O708 1.942 . S
Mg697 O709 1.955 . S
Mg697 O716 1.986 . S
O698 Mg696 1.936 . S
O698 Mg697 1.963 . S
O698 Mg699 1.915 . S
Mg699 O698 1.915 . S
Mg699 O700 1.915 . S
Mg699 O704 2.013 . S
Mg699 O710 2.114 . S
Mg699 O714 2.013 . S
Mg699 O720 2.114 . S
O700 Mg699 1.915 . S
O700 Mg701 1.936 . S
O700 Mg702 1.963 . S
Mg701 O700 1.936 . S
Mg701 O710 2.291 . S
Mg701 O715 2.081 . S
Mg701 O717 2.023 . S
Mg701 O721 2.031 . S
Mg702 O700 1.963 . S
Mg702 O706 1.986 . S
Mg702 O718 1.942 . S
Mg702 O719 1.955 . S
C703 O714 1.191 . S
C703 O716 1.307 . S
O704 Mg699 2.013 . S
O704 C723 1.191 . S
O705 Mg696 2.081 . S
O705 C713 1.331 . S
O706 Mg702 1.986 . S
O706 C723 1.307 . S
O707 Mg696 2.023 . S
O707 C722 1.264 . S
O708 Mg697 1.942 . S
O708 C713 1.244 . S
O709 Mg697 1.955 . S
O709 C722 1.273 . S
O710 Mg699 2.114 . S
O710 Mg701 2.291 . S
O710 C712 1.312 . S
O711 Mg696 2.031 . S
O711 C712 1.208 . S
C712 O710 1.312 . S
C712 O711 1.208 . S
C713 O705 1.331 . S
C713 O708 1.244 . S
O714 Mg699 2.013 . S
O714 C703 1.191 . S
O715 C694 1.331 . S
O715 Mg701 2.081 . S
O716 Mg697 1.986 . S
O716 C703 1.307 . S
O717 C695 1.264 . S
O717 Mg701 2.023 . S
O718 C694 1.244 . S
O718 Mg702 1.942 . S
O719 C695 1.273 . S
O719 Mg702 1.955 . S
O720 C693 1.312 . S
O720 Mg696 2.291 . S
O720 Mg699 2.114 . S
O721 C693 1.208 . S
O721 Mg701 2.031 . S
C722 O707 1.264 . S
C722 O709 1.273 . S
C723 O704 1.191 . S
C723 O706 1.307 . S
H724 C730 0.930 . S
H725 C734 0.930 . S
H726 C739 0.929 . S
H727 C737 0.929 . S
H728 C732 0.929 . S
H729 C738 0.929 . S
C730 H724 0.930 . S
C730 C731 1.367 . S
C730 C738 1.378 . S
C731 C730 1.367 . S
C731 C739 1.433 . S
C732 H728 0.929 . S
C732 C734 1.378 . S
C732 C736 1.350 . S
C733 C736 1.463 . S
C733 C738 1.350 . S
C733 N741 1.427 . S
C734 H725 0.930 . S
C734 C732 1.378 . S
C734 C735 1.367 . S
C735 C734 1.367 . S
C735 C737 1.433 . S
C736 C732 1.350 . S
C736 C733 1.463 . S
C736 N740 1.427 . S
C737 H727 0.929 . S
C737 C735 1.433 . S
C737 N740 1.384 . S
C738 H729 0.929 . S
C738 C730 1.378 . S
C738 C733 1.350 . S
C739 H726 0.929 . S
C739 C731 1.433 . S
C739 N741 1.384 . S
N740 C736 1.427 . S
N740 C737 1.384 . S
N741 C733 1.427 . S
N741 C739 1.384 . S
H742 C748 0.930 . S
H743 C752 0.930 . S
H744 C757 0.929 . S
H745 C755 0.929 . S
H746 C750 0.929 . S
H747 C756 0.929 . S
C748 H742 0.930 . S
C748 C749 1.367 . S
C748 C756 1.378 . S
C749 C748 1.367 . S
C749 C757 1.433 . S
C750 H746 0.929 . S
C750 C752 1.378 . S
C750 C754 1.350 . S
C751 C754 1.463 . S
C751 C756 1.350 . S
C751 N759 1.427 . S
C752 H743 0.930 . S
C752 C750 1.378 . S
C752 C753 1.367 . S
C753 C752 1.367 . S
C753 C755 1.433 . S
C754 C750 1.350 . S
C754 C751 1.463 . S
C754 N758 1.427 . S
C755 H745 0.929 . S
C755 C753 1.433 . S
C755 N758 1.384 . S
C756 H747 0.929 . S
C756 C748 1.378 . S
C756 C751 1.350 . S
C757 H744 0.929 . S
C757 C749 1.433 . S
C757 N759 1.384 . S
N758 C754 1.427 . S
N758 C755 1.384 . S
N759 C751 1.427 . S
N759 C757 1.384 . S
H760 C766 0.930 . S
H761 C770 0.930 . S
H762 C775 0.929 . S
H763 C773 0.929 . S
H764 C768 0.929 . S
H765 C774 0.929 . S
C766 H760 0.930 . S
C766 C767 1.367 . S
C766 C774 1.378 . S
C767 C766 1.367 . S
C767 C775 1.433 . S
C768 H764 0.929 . S
C768 C770 1.378 . S
C768 C772 1.350 . S
C769 C772 1.463 . S
C769 C774 1.350 . S
C769 N777 1.427 . S
C770 H761 0.930 . S
C770 C768 1.378 . S
C770 C771 1.367 . S
C771 C770 1.367 . S
C771 C773 1.433 . S
C772 C768 1.350 . S
C772 C769 1.463 . S
C772 N776 1.427 . S
C773 H763 0.929 . S
C773 C771 1.433 . S
C773 N776 1.384 . S
C774 H765 0.929 . S
C774 C766 1.378 . S
C774 C769 1.350 . S
C775 H762 0.929 . S
C775 C767 1.433 . S
C775 N777 1.384 . S
N776 C772 1.427 . S
N776 C773 1.384 . S
N777 C769 1.427 . S
N777 C775 1.384 . S
H778 C784 0.930 . S
H779 C788 0.930 . S
H780 C793 0.929 . S
H781 C791 0.929 . S
H782 C786 0.929 . S
H783 C792 0.929 . S
C784 H778 0.930 . S
C784 C785 1.367 . S
C784 C792 1.378 . S
C785 C784 1.367 . S
C785 C793 1.433 . S
C786 H782 0.929 . S
C786 C788 1.378 . S
C786 C790 1.350 . S
C787 C790 1.463 . S
C787 C792 1.350 . S
C787 N795 1.427 . S
C788 H779 0.930 . S
C788 C786 1.378 . S
C788 C789 1.367 . S
C789 C788 1.367 . S
C789 C791 1.433 . S
C790 C786 1.350 . S
C790 C787 1.463 . S
C790 N794 1.427 . S
C791 H781 0.929 . S
C791 C789 1.433 . S
C791 N794 1.384 . S
C792 H783 0.929 . S
C792 C784 1.378 . S
C792 C787 1.350 . S
C793 H780 0.929 . S
C793 C785 1.433 . S
C793 N795 1.384 . S
N794 C790 1.427 . S
N794 C791 1.384 . S
N795 C787 1.427 . S
N795 C793 1.384 . S
H796 C802 0.930 . S
H797 C806 0.930 . S
H798 C811 0.929 . S
H799 C809 0.929 . S
H800 C804 0.929 . S
H801 C810 0.929 . S
C802 H796 0.930 . S
C802 C803 1.367 . S
C802 C810 1.378 . S
C803 C802 1.367 . S
C803 C811 1.433 . S
C804 H800 0.929 . S
C804 C806 1.378 . S
C804 C808 1.350 . S
C805 C808 1.463 . S
C805 C810 1.350 . S
C805 N813 1.427 . S
C806 H797 0.930 . S
C806 C804 1.378 . S
C806 C807 1.367 . S
C807 C806 1.367 . S
C807 C809 1.433 . S
C808 C804 1.350 . S
C808 C805 1.463 . S
C808 N812 1.427 . S
C809 H799 0.929 . S
C809 C807 1.433 . S
C809 N812 1.384 . S
C810 H801 0.929 . S
C810 C802 1.378 . S
C810 C805 1.350 . S
C811 H798 0.929 . S
C811 C803 1.433 . S
C811 N813 1.384 . S
N812 C808 1.427 . S
N812 C809 1.384 . S
N813 C805 1.427 . S
N813 C811 1.384 . S
H814 C820 0.930 . S
H815 C824 0.930 . S
H816 C829 0.929 . S
H817 C827 0.929 . S
H818 C822 0.929 . S
H819 C828 0.929 . S
C820 H814 0.930 . S
C820 C821 1.367 . S
C820 C828 1.378 . S
C821 C820 1.367 . S
C821 C829 1.433 . S
C822 H818 0.929 . S
C822 C824 1.378 . S
C822 C826 1.350 . S
C823 C826 1.463 . S
C823 C828 1.350 . S
C823 N831 1.427 . S
C824 H815 0.930 . S
C824 C822 1.378 . S
C824 C825 1.367 . S
C825 C824 1.367 . S
C825 C827 1.433 . S
C826 C822 1.350 . S
C826 C823 1.463 . S
C826 N830 1.427 . S
C827 H817 0.929 . S
C827 C825 1.433 . S
C827 N830 1.384 . S
C828 H819 0.929 . S
C828 C820 1.378 . S
C828 C823 1.350 . S
C829 H816 0.929 . S
C829 C821 1.433 . S
C829 N831 1.384 . S
N830 C826 1.427 . S
N830 C827 1.384 . S
N831 C823 1.427 . S
N831 C829 1.384 . S
H832 C838 0.930 . S
H833 C842 0.930 . S
H834 C847 0.929 . S
H835 C845 0.929 . S
H836 C840 0.929 . S
H837 C846 0.929 . S
C838 H832 0.930 . S
C838 C839 1.367 . S
C838 C846 1.378 . S
C839 C838 1.367 . S
C839 C847 1.433 . S
C840 H836 0.929 . S
C840 C842 1.378 . S
C840 C844 1.350 . S
C841 C844 1.463 . S
C841 C846 1.350 . S
C841 N849 1.427 . S
C842 H833 0.930 . S
C842 C840 1.378 . S
C842 C843 1.367 . S
C843 C842 1.367 . S
C843 C845 1.433 . S
C844 C840 1.350 . S
C844 C841 1.463 . S
C844 N848 1.427 . S
C845 H835 0.929 . S
C845 C843 1.433 . S
C845 N848 1.384 . S
C846 H837 0.929 . S
C846 C838 1.378 . S
C846 C841 1.350 . S
C847 H834 0.929 . S
C847 C839 1.433 . S
C847 N849 1.384 . S
N848 C844 1.427 . S
N848 C845 1.384 . S
N849 C841 1.427 . S
N849 C847 1.384 . S
H850 C856 0.930 . S
H851 C860 0.930 . S
H852 C865 0.929 . S
H853 C863 0.929 . S
H854 C858 0.929 . S
H855 C864 0.929 . S
C856 H850 0.930 . S
C856 C857 1.367 . S
C856 C864 1.378 . S
C857 C856 1.367 . S
C857 C865 1.433 . S
C858 H854 0.929 . S
C858 C860 1.378 . S
C858 C862 1.350 . S
C859 C862 1.463 . S
C859 C864 1.350 . S
C859 N867 1.427 . S
C860 H851 0.930 . S
C860 C858 1.378 . S
C860 C861 1.367 . S
C861 C860 1.367 . S
C861 C863 1.433 . S
C862 C858 1.350 . S
C862 C859 1.463 . S
C862 N866 1.427 . S
C863 H853 0.929 . S
C863 C861 1.433 . S
C863 N866 1.384 . S
C864 H855 0.929 . S
C864 C856 1.378 . S
C864 C859 1.350 . S
C865 H852 0.929 . S
C865 C857 1.433 . S
C865 N867 1.384 . S
N866 C862 1.427 . S
N866 C863 1.384 . S
N867 C859 1.427 . S
N867 C865 1.384 . S
H868 C874 0.930 . S
H869 C878 0.930 . S
H870 C883 0.929 . S
H871 C881 0.929 . S
H872 C876 0.929 . S
H873 C882 0.929 . S
C874 H868 0.930 . S
C874 C875 1.367 . S
C874 C882 1.378 . S
C875 C874 1.367 . S
C875 C883 1.433 . S
C876 H872 0.929 . S
C876 C878 1.378 . S
C876 C880 1.350 . S
C877 C880 1.463 . S
C877 C882 1.350 . S
C877 N885 1.427 . S
C878 H869 0.930 . S
C878 C876 1.378 . S
C878 C879 1.367 . S
C879 C878 1.367 . S
C879 C881 1.433 . S
C880 C876 1.350 . S
C880 C877 1.463 . S
C880 N884 1.427 . S
C881 H871 0.929 . S
C881 C879 1.433 . S
C881 N884 1.384 . S
C882 H873 0.929 . S
C882 C874 1.378 . S
C882 C877 1.350 . S
C883 H870 0.929 . S
C883 C875 1.433 . S
C883 N885 1.384 . S
N884 C880 1.427 . S
N884 C881 1.384 . S
N885 C877 1.427 . S
N885 C883 1.384 . S
H886 C892 0.930 . S
H887 C896 0.930 . S
H888 C901 0.929 . S
H889 C899 0.929 . S
H890 C894 0.929 . S
H891 C900 0.929 . S
C892 H886 0.930 . S
C892 C893 1.367 . S
C892 C900 1.378 . S
C893 C892 1.367 . S
C893 C901 1.433 . S
C894 H890 0.929 . S
C894 C896 1.378 1_545 S
C894 C898 1.350 . S
C895 C898 1.463 . S
C895 C900 1.350 . S
C895 N903 1.427 . S
C896 H887 0.930 . S
C896 C894 1.378 1_565 S
C896 C897 1.367 . S
C897 C896 1.367 . S
C897 C899 1.433 1_565 S
C898 C894 1.350 . S
C898 C895 1.463 . S
C898 N902 1.427 . S
C899 H889 0.929 . S
C899 C897 1.433 1_545 S
C899 N902 1.384 . S
C900 H891 0.929 . S
C900 C892 1.378 . S
C900 C895 1.350 . S
C901 H888 0.929 . S
C901 C893 1.433 . S
C901 N903 1.384 . S
N902 C898 1.427 . S
N902 C899 1.384 . S
N903 C895 1.427 . S
N903 C901 1.384 . S
H904 C910 0.930 . S
H905 C914 0.930 . S
H906 C919 0.929 . S
H907 C917 0.929 . S
H908 C912 0.929 . S
H909 C918 0.929 . S
C910 H904 0.930 . S
C910 C911 1.367 . S
C910 C918 1.378 . S
C911 C910 1.367 . S
C911 C919 1.433 . S
C912 H908 0.929 . S
C912 C914 1.378 . S
C912 C916 1.350 . S
C913 C916 1.463 . S
C913 C918 1.350 . S
C913 N921 1.427 . S
C914 H905 0.930 . S
C914 C912 1.378 . S
C914 C915 1.367 . S
C915 C914 1.367 . S
C915 C917 1.433 . S
C916 C912 1.350 . S
C916 C913 1.463 . S
C916 N920 1.427 . S
C917 H907 0.929 . S
C917 C915 1.433 . S
C917 N920 1.384 . S
C918 H909 0.929 . S
C918 C910 1.378 . S
C918 C913 1.350 . S
C919 H906 0.929 . S
C919 C911 1.433 . S
C919 N921 1.384 . S
N920 C916 1.427 . S
N920 C917 1.384 . S
N921 C913 1.427 . S
N921 C919 1.384 . S
H922 C928 0.930 . S
H923 C932 0.930 . S
H924 C937 0.929 . S
H925 C935 0.929 . S
H926 C930 0.929 . S
H927 C936 0.929 . S
C928 H922 0.930 . S
C928 C929 1.367 . S
C928 C936 1.378 . S
C929 C928 1.367 . S
C929 C937 1.433 . S
C930 H926 0.929 . S
C930 C932 1.378 . S
C930 C934 1.350 . S
C931 C934 1.463 . S
C931 C936 1.350 . S
C931 N939 1.427 . S
C932 H923 0.930 . S
C932 C930 1.378 . S
C932 C933 1.367 . S
C933 C932 1.367 . S
C933 C935 1.433 . S
C934 C930 1.350 . S
C934 C931 1.463 . S
C934 N938 1.427 . S
C935 H925 0.929 . S
C935 C933 1.433 . S
C935 N938 1.384 . S
C936 H927 0.929 . S
C936 C928 1.378 . S
C936 C931 1.350 . S
C937 H924 0.929 . S
C937 C929 1.433 . S
C937 N939 1.384 . S
N938 C934 1.427 . S
N938 C935 1.384 . S
N939 C931 1.427 . S
N939 C937 1.384 . S
H940 C946 0.930 . S
H941 C950 0.930 . S
H942 C955 0.929 . S
H943 C953 0.929 . S
H944 C948 0.929 . S
H945 C954 0.929 . S
C946 H940 0.930 . S
C946 C947 1.367 . S
C946 C954 1.378 . S
C947 C946 1.367 . S
C947 C955 1.433 . S
C948 H944 0.929 . S
C948 C950 1.378 . S
C948 C952 1.350 . S
C949 C952 1.463 . S
C949 C954 1.350 . S
C949 N957 1.427 . S
C950 H941 0.930 . S
C950 C948 1.378 . S
C950 C951 1.367 . S
C951 C950 1.367 . S
C951 C953 1.433 . S
C952 C948 1.350 . S
C952 C949 1.463 . S
C952 N956 1.427 . S
C953 H943 0.929 . S
C953 C951 1.433 . S
C953 N956 1.384 . S
C954 H945 0.929 . S
C954 C946 1.378 . S
C954 C949 1.350 . S
C955 H942 0.929 . S
C955 C947 1.433 . S
C955 N957 1.384 . S
N956 C952 1.427 . S
N956 C953 1.384 . S
N957 C949 1.427 . S
N957 C955 1.384 . S
H958 C964 0.930 . S
H959 C968 0.930 . S
H960 C973 0.929 . S
H961 C971 0.929 1_565 S
H962 C966 0.929 . S
H963 C972 0.929 . S
C964 H958 0.930 . S
C964 C965 1.367 . S
C964 C972 1.378 . S
C965 C964 1.367 . S
C965 C973 1.433 . S
C966 H962 0.929 . S
C966 C968 1.378 . S
C966 C970 1.350 . S
C967 C970 1.463 . S
C967 C972 1.350 . S
C967 N975 1.427 . S
C968 H959 0.930 . S
C968 C966 1.378 . S
C968 C969 1.367 1_545 S
C969 C968 1.367 1_565 S
C969 C971 1.433 1_565 S
C970 C966 1.350 . S
C970 C967 1.463 . S
C970 N974 1.427 . S
C971 H961 0.929 1_545 S
C971 C969 1.433 1_545 S
C971 N974 1.384 . S
C972 H963 0.929 . S
C972 C964 1.378 . S
C972 C967 1.350 . S
C973 H960 0.929 . S
C973 C965 1.433 . S
C973 N975 1.384 . S
N974 C970 1.427 . S
N974 C971 1.384 . S
N975 C967 1.427 . S
N975 C973 1.384 . S
H976 C982 0.930 . S
H977 C986 0.930 . S
H978 C991 0.929 . S
H979 C989 0.929 . S
H980 C984 0.929 . S
H981 C990 0.929 . S
C982 H976 0.930 . S
C982 C983 1.367 . S
C982 C990 1.378 . S
C983 C982 1.367 . S
C983 C991 1.433 . S
C984 H980 0.929 . S
C984 C986 1.378 . S
C984 C988 1.350 . S
C985 C988 1.463 . S
C985 C990 1.350 . S
C985 N993 1.427 . S
C986 H977 0.930 . S
C986 C984 1.378 . S
C986 C987 1.367 . S
C987 C986 1.367 . S
C987 C989 1.433 . S
C988 C984 1.350 . S
C988 C985 1.463 . S
C988 N992 1.427 . S
C989 H979 0.929 . S
C989 C987 1.433 . S
C989 N992 1.384 . S
C990 H981 0.929 . S
C990 C982 1.378 . S
C990 C985 1.350 . S
C991 H978 0.929 . S
C991 C983 1.433 . S
C991 N993 1.384 . S
N992 C988 1.427 . S
N992 C989 1.384 . S
N993 C985 1.427 . S
N993 C991 1.384 . S
H994 C1000 0.930 . S
H995 C1004 0.930 . S
H996 C1009 0.929 . S
H997 C1007 0.929 . S
H998 C1002 0.929 . S
H999 C1008 0.929 . S
C1000 H994 0.930 . S
C1000 C1001 1.367 . S
C1000 C1008 1.378 . S
C1001 C1000 1.367 . S
C1001 C1009 1.433 . S
C1002 H998 0.929 . S
C1002 C1004 1.378 . S
C1002 C1006 1.350 . S
C1003 C1006 1.463 . S
C1003 C1008 1.350 . S
C1003 N1011 1.427 . S
C1004 H995 0.930 . S
C1004 C1002 1.378 . S
C1004 C1005 1.367 . S
C1005 C1004 1.367 . S
C1005 C1007 1.433 . S
C1006 C1002 1.350 . S
C1006 C1003 1.463 . S
C1006 N1010 1.427 . S
C1007 H997 0.929 . S
C1007 C1005 1.433 . S
C1007 N1010 1.384 . S
C1008 H999 0.929 . S
C1008 C1000 1.378 . S
C1008 C1003 1.350 . S
C1009 H996 0.929 . S
C1009 C1001 1.433 . S
C1009 N1011 1.384 . S
N1010 C1006 1.427 . S
N1010 C1007 1.384 . S
N1011 C1003 1.427 . S
N1011 C1009 1.384 . S
H1012 C1018 0.930 . S
H1013 C1022 0.930 . S
H1014 C1027 0.929 . S
H1015 C1025 0.929 . S
H1016 C1020 0.929 . S
H1017 C1026 0.929 . S
C1018 H1012 0.930 . S
C1018 C1019 1.367 . S
C1018 C1026 1.378 . S
C1019 C1018 1.367 . S
C1019 C1027 1.433 . S
C1020 H1016 0.929 . S
C1020 C1022 1.378 . S
C1020 C1024 1.350 . S
C1021 C1024 1.463 . S
C1021 C1026 1.350 . S
C1021 N1029 1.427 . S
C1022 H1013 0.930 . S
C1022 C1020 1.378 . S
C1022 C1023 1.367 . S
C1023 C1022 1.367 . S
C1023 C1025 1.433 . S
C1024 C1020 1.350 . S
C1024 C1021 1.463 . S
C1024 N1028 1.427 . S
C1025 H1015 0.929 . S
C1025 C1023 1.433 . S
C1025 N1028 1.384 . S
C1026 H1017 0.929 . S
C1026 C1018 1.378 . S
C1026 C1021 1.350 . S
C1027 H1014 0.929 . S
C1027 C1019 1.433 . S
C1027 N1029 1.384 . S
N1028 C1024 1.427 . S
N1028 C1025 1.384 . S
N1029 C1021 1.427 . S
N1029 C1027 1.384 . S
H1030 C1036 0.930 . S
H1031 C1040 0.930 . S
H1032 C1045 0.929 . S
H1033 C1043 0.929 . S
H1034 C1038 0.929 . S
H1035 C1044 0.929 . S
C1036 H1030 0.930 . S
C1036 C1037 1.367 . S
C1036 C1044 1.378 . S
C1037 C1036 1.367 . S
C1037 C1045 1.433 . S
C1038 H1034 0.929 . S
C1038 C1040 1.378 . S
C1038 C1042 1.350 . S
C1039 C1042 1.463 . S
C1039 C1044 1.350 . S
C1039 N1047 1.427 . S
C1040 H1031 0.930 . S
C1040 C1038 1.378 . S
C1040 C1041 1.367 . S
C1041 C1040 1.367 . S
C1041 C1043 1.433 . S
C1042 C1038 1.350 . S
C1042 C1039 1.463 . S
C1042 N1046 1.427 . S
C1043 H1033 0.929 . S
C1043 C1041 1.433 . S
C1043 N1046 1.384 . S
C1044 H1035 0.929 . S
C1044 C1036 1.378 . S
C1044 C1039 1.350 . S
C1045 H1032 0.929 . S
C1045 C1037 1.433 . S
C1045 N1047 1.384 . S
N1046 C1042 1.427 . S
N1046 C1043 1.384 . S
N1047 C1039 1.427 . S
N1047 C1045 1.384 . S
H1048 C1054 0.930 . S
H1049 C1058 0.930 . S
H1050 C1063 0.929 . S
H1051 C1061 0.929 . S
H1052 C1056 0.929 . S
H1053 C1062 0.929 . S
C1054 H1048 0.930 . S
C1054 C1055 1.367 . S
C1054 C1062 1.378 . S
C1055 C1054 1.367 . S
C1055 C1063 1.433 . S
C1056 H1052 0.929 . S
C1056 C1058 1.378 . S
C1056 C1060 1.350 . S
C1057 C1060 1.463 . S
C1057 C1062 1.350 . S
C1057 N1065 1.427 . S
C1058 H1049 0.930 . S
C1058 C1056 1.378 . S
C1058 C1059 1.367 . S
C1059 C1058 1.367 . S
C1059 C1061 1.433 . S
C1060 C1056 1.350 . S
C1060 C1057 1.463 . S
C1060 N1064 1.427 . S
C1061 H1051 0.929 . S
C1061 C1059 1.433 . S
C1061 N1064 1.384 . S
C1062 H1053 0.929 . S
C1062 C1054 1.378 . S
C1062 C1057 1.350 . S
C1063 H1050 0.929 . S
C1063 C1055 1.433 . S
C1063 N1065 1.384 . S
N1064 C1060 1.427 . S
N1064 C1061 1.384 . S
N1065 C1057 1.427 . S
N1065 C1063 1.384 . S
H1066 C1072 0.930 . S
H1067 C1076 0.930 . S
H1068 C1081 0.929 . S
H1069 C1079 0.929 . S
H1070 C1074 0.929 . S
H1071 C1080 0.929 . S
C1072 H1066 0.930 . S
C1072 C1073 1.367 . S
C1072 C1080 1.378 . S
C1073 C1072 1.367 . S
C1073 C1081 1.433 . S
C1074 H1070 0.929 . S
C1074 C1076 1.378 . S
C1074 C1078 1.350 . S
C1075 C1078 1.463 . S
C1075 C1080 1.350 . S
C1075 N1083 1.427 . S
C1076 H1067 0.930 . S
C1076 C1074 1.378 . S
C1076 C1077 1.367 . S
C1077 C1076 1.367 . S
C1077 C1079 1.433 . S
C1078 C1074 1.350 . S
C1078 C1075 1.463 . S
C1078 N1082 1.427 . S
C1079 H1069 0.929 . S
C1079 C1077 1.433 . S
C1079 N1082 1.384 . S
C1080 H1071 0.929 . S
C1080 C1072 1.378 . S
C1080 C1075 1.350 . S
C1081 H1068 0.929 . S
C1081 C1073 1.433 . S
C1081 N1083 1.384 . S
N1082 C1078 1.427 . S
N1082 C1079 1.384 . S
N1083 C1075 1.427 . S
N1083 C1081 1.384 . S
H1084 C1090 0.930 . S
H1085 C1094 0.930 . S
H1086 C1099 0.929 . S
H1087 C1097 0.929 . S
H1088 C1092 0.929 . S
H1089 C1098 0.929 . S
C1090 H1084 0.930 . S
C1090 C1091 1.367 . S
C1090 C1098 1.378 . S
C1091 C1090 1.367 . S
C1091 C1099 1.433 . S
C1092 H1088 0.929 . S
C1092 C1094 1.378 1_655 S
C1092 C1096 1.350 . S
C1093 C1096 1.463 . S
C1093 C1098 1.350 . S
C1093 N1101 1.427 . S
C1094 H1085 0.930 . S
C1094 C1092 1.378 1_455 S
C1094 C1095 1.367 . S
C1095 C1094 1.367 . S
C1095 C1097 1.433 1_455 S
C1096 C1092 1.350 . S
C1096 C1093 1.463 . S
C1096 N1100 1.427 . S
C1097 H1087 0.929 . S
C1097 C1095 1.433 1_655 S
C1097 N1100 1.384 . S
C1098 H1089 0.929 . S
C1098 C1090 1.378 . S
C1098 C1093 1.350 . S
C1099 H1086 0.929 . S
C1099 C1091 1.433 . S
C1099 N1101 1.384 . S
N1100 C1096 1.427 . S
N1100 C1097 1.384 . S
N1101 C1093 1.427 . S
N1101 C1099 1.384 . S
H1102 C1108 0.930 . S
H1103 C1112 0.930 . S
H1104 C1117 0.929 . S
H1105 C1115 0.929 . S
H1106 C1110 0.929 . S
H1107 C1116 0.929 . S
C1108 H1102 0.930 . S
C1108 C1109 1.367 . S
C1108 C1116 1.378 . S
C1109 C1108 1.367 . S
C1109 C1117 1.433 . S
C1110 H1106 0.929 . S
C1110 C1112 1.378 . S
C1110 C1114 1.350 . S
C1111 C1114 1.463 . S
C1111 C1116 1.350 . S
C1111 N1119 1.427 . S
C1112 H1103 0.930 . S
C1112 C1110 1.378 . S
C1112 C1113 1.367 . S
C1113 C1112 1.367 . S
C1113 C1115 1.433 . S
C1114 C1110 1.350 . S
C1114 C1111 1.463 . S
C1114 N1118 1.427 . S
C1115 H1105 0.929 . S
C1115 C1113 1.433 . S
C1115 N1118 1.384 . S
C1116 H1107 0.929 . S
C1116 C1108 1.378 . S
C1116 C1111 1.350 . S
C1117 H1104 0.929 . S
C1117 C1109 1.433 . S
C1117 N1119 1.384 . S
N1118 C1114 1.427 . S
N1118 C1115 1.384 . S
N1119 C1111 1.427 . S
N1119 C1117 1.384 . S
H1120 C1126 0.930 . S
H1121 C1130 0.930 . S
H1122 C1135 0.929 . S
H1123 C1133 0.929 . S
H1124 C1128 0.929 . S
H1125 C1134 0.929 . S
C1126 H1120 0.930 . S
C1126 C1127 1.367 . S
C1126 C1134 1.378 . S
C1127 C1126 1.367 . S
C1127 C1135 1.433 . S
C1128 H1124 0.929 . S
C1128 C1130 1.378 . S
C1128 C1132 1.350 . S
C1129 C1132 1.463 . S
C1129 C1134 1.350 . S
C1129 N1137 1.427 . S
C1130 H1121 0.930 . S
C1130 C1128 1.378 . S
C1130 C1131 1.367 . S
C1131 C1130 1.367 . S
C1131 C1133 1.433 . S
C1132 C1128 1.350 . S
C1132 C1129 1.463 . S
C1132 N1136 1.427 . S
C1133 H1123 0.929 . S
C1133 C1131 1.433 . S
C1133 N1136 1.384 . S
C1134 H1125 0.929 . S
C1134 C1126 1.378 . S
C1134 C1129 1.350 . S
C1135 H1122 0.929 . S
C1135 C1127 1.433 . S
C1135 N1137 1.384 . S
N1136 C1132 1.427 . S
N1136 C1133 1.384 . S
N1137 C1129 1.427 . S
N1137 C1135 1.384 . S
H1138 C1144 0.930 . S
H1139 C1148 0.930 . S
H1140 C1153 0.929 . S
H1141 C1151 0.929 . S
H1142 C1146 0.929 . S
H1143 C1152 0.929 . S
C1144 H1138 0.930 . S
C1144 C1145 1.367 . S
C1144 C1152 1.378 . S
C1145 C1144 1.367 . S
C1145 C1153 1.433 . S
C1146 H1142 0.929 . S
C1146 C1148 1.378 . S
C1146 C1150 1.350 . S
C1147 C1150 1.463 . S
C1147 C1152 1.350 . S
C1147 N1155 1.427 . S
C1148 H1139 0.930 . S
C1148 C1146 1.378 . S
C1148 C1149 1.367 . S
C1149 C1148 1.367 . S
C1149 C1151 1.433 . S
C1150 C1146 1.350 . S
C1150 C1147 1.463 . S
C1150 N1154 1.427 . S
C1151 H1141 0.929 . S
C1151 C1149 1.433 . S
C1151 N1154 1.384 . S
C1152 H1143 0.929 . S
C1152 C1144 1.378 . S
C1152 C1147 1.350 . S
C1153 H1140 0.929 . S
C1153 C1145 1.433 . S
C1153 N1155 1.384 . S
N1154 C1150 1.427 . S
N1154 C1151 1.384 . S
N1155 C1147 1.427 . S
N1155 C1153 1.384 . S
H1156 C1162 0.930 . S
H1157 C1166 0.930 . S
H1158 C1171 0.929 . S
H1159 C1169 0.929 . S
H1160 C1164 0.929 . S
H1161 C1170 0.929 . S
C1162 H1156 0.930 . S
C1162 C1163 1.367 . S
C1162 C1170 1.378 . S
C1163 C1162 1.367 . S
C1163 C1171 1.433 . S
C1164 H1160 0.929 . S
C1164 C1166 1.378 . S
C1164 C1168 1.350 . S
C1165 C1168 1.463 . S
C1165 C1170 1.350 . S
C1165 N1173 1.427 . S
C1166 H1157 0.930 . S
C1166 C1164 1.378 . S
C1166 C1167 1.367 . S
C1167 C1166 1.367 . S
C1167 C1169 1.433 . S
C1168 C1164 1.350 . S
C1168 C1165 1.463 . S
C1168 N1172 1.427 . S
C1169 H1159 0.929 . S
C1169 C1167 1.433 . S
C1169 N1172 1.384 . S
C1170 H1161 0.929 . S
C1170 C1162 1.378 . S
C1170 C1165 1.350 . S
C1171 H1158 0.929 . S
C1171 C1163 1.433 . S
C1171 N1173 1.384 . S
N1172 C1168 1.427 . S
N1172 C1169 1.384 . S
N1173 C1165 1.427 . S
N1173 C1171 1.384 . S
H1174 C1180 0.930 . S
H1175 C1184 0.930 . S
H1176 C1189 0.929 . S
H1177 C1187 0.929 1_556 S
H1178 C1182 0.929 . S
H1179 C1188 0.929 . S
C1180 H1174 0.930 . S
C1180 C1181 1.367 . S
C1180 C1188 1.378 . S
C1181 C1180 1.367 . S
C1181 C1189 1.433 . S
C1182 H1178 0.929 . S
C1182 C1184 1.378 . S
C1182 C1186 1.350 . S
C1183 C1186 1.463 . S
C1183 C1188 1.350 . S
C1183 N1191 1.427 . S
C1184 H1175 0.930 . S
C1184 C1182 1.378 . S
C1184 C1185 1.367 1_554 S
C1185 C1184 1.367 1_556 S
C1185 C1187 1.433 1_556 S
C1186 C1182 1.350 . S
C1186 C1183 1.463 . S
C1186 N1190 1.427 . S
C1187 H1177 0.929 1_554 S
C1187 C1185 1.433 1_554 S
C1187 N1190 1.384 . S
C1188 H1179 0.929 . S
C1188 C1180 1.378 . S
C1188 C1183 1.350 . S
C1189 H1176 0.929 . S
C1189 C1181 1.433 . S
C1189 N1191 1.384 . S
N1190 C1186 1.427 . S
N1190 C1187 1.384 . S
N1191 C1183 1.427 . S
N1191 C1189 1.384 . S
H1192 C1198 0.930 . S
H1193 C1202 0.930 . S
H1194 C1207 0.929 . S
H1195 C1205 0.929 . S
H1196 C1200 0.929 . S
H1197 C1206 0.929 . S
C1198 H1192 0.930 . S
C1198 C1199 1.367 . S
C1198 C1206 1.378 . S
C1199 C1198 1.367 . S
C1199 C1207 1.433 . S
C1200 H1196 0.929 . S
C1200 C1202 1.378 . S
C1200 C1204 1.350 . S
C1201 C1204 1.463 . S
C1201 C1206 1.350 . S
C1201 N1209 1.427 . S
C1202 H1193 0.930 . S
C1202 C1200 1.378 . S
C1202 C1203 1.367 . S
C1203 C1202 1.367 . S
C1203 C1205 1.433 . S
C1204 C1200 1.350 . S
C1204 C1201 1.463 . S
C1204 N1208 1.427 . S
C1205 H1195 0.929 . S
C1205 C1203 1.433 . S
C1205 N1208 1.384 . S
C1206 H1197 0.929 . S
C1206 C1198 1.378 . S
C1206 C1201 1.350 . S
C1207 H1194 0.929 . S
C1207 C1199 1.433 . S
C1207 N1209 1.384 . S
N1208 C1204 1.427 . S
N1208 C1205 1.384 . S
N1209 C1201 1.427 . S
N1209 C1207 1.384 . S
H1210 C1216 0.930 . S
H1211 C1220 0.930 . S
H1212 C1225 0.929 . S
H1213 C1223 0.929 . S
H1214 C1218 0.929 . S
H1215 C1224 0.929 . S
C1216 H1210 0.930 . S
C1216 C1217 1.367 . S
C1216 C1224 1.378 . S
C1217 C1216 1.367 . S
C1217 C1225 1.433 . S
C1218 H1214 0.929 . S
C1218 C1220 1.378 1_554 S
C1218 C1222 1.350 . S
C1219 C1222 1.463 . S
C1219 C1224 1.350 . S
C1219 N1227 1.427 . S
C1220 H1211 0.930 . S
C1220 C1218 1.378 1_556 S
C1220 C1221 1.367 . S
C1221 C1220 1.367 . S
C1221 C1223 1.433 1_556 S
C1222 C1218 1.350 . S
C1222 C1219 1.463 . S
C1222 N1226 1.427 . S
C1223 H1213 0.929 . S
C1223 C1221 1.433 1_554 S
C1223 N1226 1.384 . S
C1224 H1215 0.929 . S
C1224 C1216 1.378 . S
C1224 C1219 1.350 . S
C1225 H1212 0.929 . S
C1225 C1217 1.433 . S
C1225 N1227 1.384 . S
N1226 C1222 1.427 . S
N1226 C1223 1.384 . S
N1227 C1219 1.427 . S
N1227 C1225 1.384 . S
H1228 C1234 0.930 . S
H1229 C1238 0.930 . S
H1230 C1243 0.929 . S
H1231 C1241 0.929 . S
H1232 C1236 0.929 . S
H1233 C1242 0.929 . S
C1234 H1228 0.930 . S
C1234 C1235 1.367 . S
C1234 C1242 1.378 . S
C1235 C1234 1.367 . S
C1235 C1243 1.433 . S
C1236 H1232 0.929 . S
C1236 C1238 1.378 . S
C1236 C1240 1.350 . S
C1237 C1240 1.463 . S
C1237 C1242 1.350 . S
C1237 N1245 1.427 . S
C1238 H1229 0.930 . S
C1238 C1236 1.378 . S
C1238 C1239 1.367 . S
C1239 C1238 1.367 . S
C1239 C1241 1.433 . S
C1240 C1236 1.350 . S
C1240 C1237 1.463 . S
C1240 N1244 1.427 . S
C1241 H1231 0.929 . S
C1241 C1239 1.433 . S
C1241 N1244 1.384 . S
C1242 H1233 0.929 . S
C1242 C1234 1.378 . S
C1242 C1237 1.350 . S
C1243 H1230 0.929 . S
C1243 C1235 1.433 . S
C1243 N1245 1.384 . S
N1244 C1240 1.427 . S
N1244 C1241 1.384 . S
N1245 C1237 1.427 . S
N1245 C1243 1.384 . S
H1246 C1252 0.930 . S
H1247 C1256 0.930 . S
H1248 C1261 0.929 . S
H1249 C1259 0.929 . S
H1250 C1254 0.929 . S
H1251 C1260 0.929 . S
C1252 H1246 0.930 . S
C1252 C1253 1.367 . S
C1252 C1260 1.378 . S
C1253 C1252 1.367 . S
C1253 C1261 1.433 . S
C1254 H1250 0.929 . S
C1254 C1256 1.378 1_556 S
C1254 C1258 1.350 . S
C1255 C1258 1.463 . S
C1255 C1260 1.350 . S
C1255 N1263 1.427 . S
C1256 H1247 0.930 . S
C1256 C1254 1.378 1_554 S
C1256 C1257 1.367 . S
C1257 C1256 1.367 . S
C1257 C1259 1.433 1_554 S
C1258 C1254 1.350 . S
C1258 C1255 1.463 . S
C1258 N1262 1.427 . S
C1259 H1249 0.929 . S
C1259 C1257 1.433 1_556 S
C1259 N1262 1.384 . S
C1260 H1251 0.929 . S
C1260 C1252 1.378 . S
C1260 C1255 1.350 . S
C1261 H1248 0.929 . S
C1261 C1253 1.433 . S
C1261 N1263 1.384 . S
N1262 C1258 1.427 . S
N1262 C1259 1.384 . S
N1263 C1255 1.427 . S
N1263 C1261 1.384 . S
H1264 C1270 0.930 . S
H1265 C1274 0.930 . S
H1266 C1279 0.929 . S
H1267 C1277 0.929 . S
H1268 C1272 0.929 . S
H1269 C1278 0.929 . S
C1270 H1264 0.930 . S
C1270 C1271 1.367 . S
C1270 C1278 1.378 . S
C1271 C1270 1.367 . S
C1271 C1279 1.433 . S
C1272 H1268 0.929 . S
C1272 C1274 1.378 . S
C1272 C1276 1.350 . S
C1273 C1276 1.463 . S
C1273 C1278 1.350 . S
C1273 N1281 1.427 . S
C1274 H1265 0.930 . S
C1274 C1272 1.378 . S
C1274 C1275 1.367 . S
C1275 C1274 1.367 . S
C1275 C1277 1.433 . S
C1276 C1272 1.350 . S
C1276 C1273 1.463 . S
C1276 N1280 1.427 . S
C1277 H1267 0.929 . S
C1277 C1275 1.433 . S
C1277 N1280 1.384 . S
C1278 H1269 0.929 . S
C1278 C1270 1.378 . S
C1278 C1273 1.350 . S
C1279 H1266 0.929 . S
C1279 C1271 1.433 . S
C1279 N1281 1.384 . S
N1280 C1276 1.427 . S
N1280 C1277 1.384 . S
N1281 C1273 1.427 . S
N1281 C1279 1.384 . S
H1282 C1288 0.930 . S
H1283 C1292 0.930 . S
H1284 C1297 0.929 . S
H1285 C1295 0.929 . S
H1286 C1290 0.929 . S
H1287 C1296 0.929 . S
C1288 H1282 0.930 . S
C1288 C1289 1.367 . S
C1288 C1296 1.378 . S
C1289 C1288 1.367 . S
C1289 C1297 1.433 . S
C1290 H1286 0.929 . S
C1290 C1292 1.378 1_556 S
C1290 C1294 1.350 . S
C1291 C1294 1.463 . S
C1291 C1296 1.350 . S
C1291 N1299 1.427 . S
C1292 H1283 0.930 . S
C1292 C1290 1.378 1_554 S
C1292 C1293 1.367 . S
C1293 C1292 1.367 . S
C1293 C1295 1.433 1_554 S
C1294 C1290 1.350 . S
C1294 C1291 1.463 . S
C1294 N1298 1.427 . S
C1295 H1285 0.929 . S
C1295 C1293 1.433 1_556 S
C1295 N1298 1.384 . S
C1296 H1287 0.929 . S
C1296 C1288 1.378 . S
C1296 C1291 1.350 . S
C1297 H1284 0.929 . S
C1297 C1289 1.433 . S
C1297 N1299 1.384 . S
N1298 C1294 1.427 . S
N1298 C1295 1.384 . S
N1299 C1291 1.427 . S
N1299 C1297 1.384 . S
H1300 C1306 0.930 . S
H1301 C1310 0.930 . S
H1302 C1315 0.929 . S
H1303 C1313 0.929 . S
H1304 C1308 0.929 . S
H1305 C1314 0.929 . S
C1306 H1300 0.930 . S
C1306 C1307 1.367 . S
C1306 C1314 1.378 . S
C1307 C1306 1.367 . S
C1307 C1315 1.433 . S
C1308 H1304 0.929 . S
C1308 C1310 1.378 . S
C1308 C1312 1.350 . S
C1309 C1312 1.463 . S
C1309 C1314 1.350 . S
C1309 N1317 1.427 . S
C1310 H1301 0.930 . S
C1310 C1308 1.378 . S
C1310 C1311 1.367 . S
C1311 C1310 1.367 . S
C1311 C1313 1.433 . S
C1312 C1308 1.350 . S
C1312 C1309 1.463 . S
C1312 N1316 1.427 . S
C1313 H1303 0.929 . S
C1313 C1311 1.433 . S
C1313 N1316 1.384 . S
C1314 H1305 0.929 . S
C1314 C1306 1.378 . S
C1314 C1309 1.350 . S
C1315 H1302 0.929 . S
C1315 C1307 1.433 . S
C1315 N1317 1.384 . S
N1316 C1312 1.427 . S
N1316 C1313 1.384 . S
N1317 C1309 1.427 . S
N1317 C1315 1.384 . S
H1318 C1324 0.930 . S
H1319 C1328 0.930 . S
H1320 C1333 0.929 . S
H1321 C1331 0.929 . S
H1322 C1326 0.929 . S
H1323 C1332 0.929 . S
C1324 H1318 0.930 . S
C1324 C1325 1.367 . S
C1324 C1332 1.378 . S
C1325 C1324 1.367 . S
C1325 C1333 1.433 . S
C1326 H1322 0.929 . S
C1326 C1328 1.378 . S
C1326 C1330 1.350 . S
C1327 C1330 1.463 . S
C1327 C1332 1.350 . S
C1327 N1335 1.427 . S
C1328 H1319 0.930 . S
C1328 C1326 1.378 . S
C1328 C1329 1.367 . S
C1329 C1328 1.367 . S
C1329 C1331 1.433 . S
C1330 C1326 1.350 . S
C1330 C1327 1.463 . S
C1330 N1334 1.427 . S
C1331 H1321 0.929 . S
C1331 C1329 1.433 . S
C1331 N1334 1.384 . S
C1332 H1323 0.929 . S
C1332 C1324 1.378 . S
C1332 C1327 1.350 . S
C1333 H1320 0.929 . S
C1333 C1325 1.433 . S
C1333 N1335 1.384 . S
N1334 C1330 1.427 . S
N1334 C1331 1.384 . S
N1335 C1327 1.427 . S
N1335 C1333 1.384 . S
H1336 C1342 0.930 . S
H1337 C1346 0.930 . S
H1338 C1351 0.929 . S
H1339 C1349 0.929 . S
H1340 C1344 0.929 . S
H1341 C1350 0.929 . S
C1342 H1336 0.930 . S
C1342 C1343 1.367 . S
C1342 C1350 1.378 . S
C1343 C1342 1.367 . S
C1343 C1351 1.433 . S
C1344 H1340 0.929 . S
C1344 C1346 1.378 . S
C1344 C1348 1.350 . S
C1345 C1348 1.463 . S
C1345 C1350 1.350 . S
C1345 N1353 1.427 . S
C1346 H1337 0.930 . S
C1346 C1344 1.378 . S
C1346 C1347 1.367 . S
C1347 C1346 1.367 . S
C1347 C1349 1.433 . S
C1348 C1344 1.350 . S
C1348 C1345 1.463 . S
C1348 N1352 1.427 . S
C1349 H1339 0.929 . S
C1349 C1347 1.433 . S
C1349 N1352 1.384 . S
C1350 H1341 0.929 . S
C1350 C1342 1.378 . S
C1350 C1345 1.350 . S
C1351 H1338 0.929 . S
C1351 C1343 1.433 . S
C1351 N1353 1.384 . S
N1352 C1348 1.427 . S
N1352 C1349 1.384 . S
N1353 C1345 1.427 . S
N1353 C1351 1.384 . S
H1354 C1360 0.930 . S
H1355 C1364 0.930 . S
H1356 C1369 0.929 . S
H1357 C1367 0.929 . S
H1358 C1362 0.929 . S
H1359 C1368 0.929 . S
C1360 H1354 0.930 . S
C1360 C1361 1.367 . S
C1360 C1368 1.378 . S
C1361 C1360 1.367 . S
C1361 C1369 1.433 . S
C1362 H1358 0.929 . S
C1362 C1364 1.378 1_565 S
C1362 C1366 1.350 . S
C1363 C1366 1.463 . S
C1363 C1368 1.350 . S
C1363 N1371 1.427 . S
C1364 H1355 0.930 . S
C1364 C1362 1.378 1_545 S
C1364 C1365 1.367 . S
C1365 C1364 1.367 . S
C1365 C1367 1.433 1_545 S
C1366 C1362 1.350 . S
C1366 C1363 1.463 . S
C1366 N1370 1.427 . S
C1367 H1357 0.929 . S
C1367 C1365 1.433 1_565 S
C1367 N1370 1.384 . S
C1368 H1359 0.929 . S
C1368 C1360 1.378 . S
C1368 C1363 1.350 . S
C1369 H1356 0.929 . S
C1369 C1361 1.433 . S
C1369 N1371 1.384 . S
N1370 C1366 1.427 . S
N1370 C1367 1.384 . S
N1371 C1363 1.427 . S
N1371 C1369 1.384 . S
H1372 C1378 0.930 . S
H1373 C1382 0.930 . S
H1374 C1387 0.929 . S
H1375 C1385 0.929 . S
H1376 C1380 0.929 . S
H1377 C1386 0.929 . S
C1378 H1372 0.930 . S
C1378 C1379 1.367 . S
C1378 C1386 1.378 . S
C1379 C1378 1.367 . S
C1379 C1387 1.433 . S
C1380 H1376 0.929 . S
C1380 C1382 1.378 . S
C1380 C1384 1.350 . S
C1381 C1384 1.463 . S
C1381 C1386 1.350 . S
C1381 N1389 1.427 . S
C1382 H1373 0.930 . S
C1382 C1380 1.378 . S
C1382 C1383 1.367 . S
C1383 C1382 1.367 . S
C1383 C1385 1.433 . S
C1384 C1380 1.350 . S
C1384 C1381 1.463 . S
C1384 N1388 1.427 . S
C1385 H1375 0.929 . S
C1385 C1383 1.433 . S
C1385 N1388 1.384 . S
C1386 H1377 0.929 . S
C1386 C1378 1.378 . S
C1386 C1381 1.350 . S
C1387 H1374 0.929 . S
C1387 C1379 1.433 . S
C1387 N1389 1.384 . S
N1388 C1384 1.427 . S
N1388 C1385 1.384 . S
N1389 C1381 1.427 . S
N1389 C1387 1.384 . S
H1390 C1396 0.930 . S
H1391 C1400 0.930 . S
H1392 C1405 0.929 . S
H1393 C1403 0.929 . S
H1394 C1398 0.929 . S
H1395 C1404 0.929 . S
C1396 H1390 0.930 . S
C1396 C1397 1.367 . S
C1396 C1404 1.378 . S
C1397 C1396 1.367 . S
C1397 C1405 1.433 . S
C1398 H1394 0.929 . S
C1398 C1400 1.378 . S
C1398 C1402 1.350 . S
C1399 C1402 1.463 . S
C1399 C1404 1.350 . S
C1399 N1407 1.427 . S
C1400 H1391 0.930 . S
C1400 C1398 1.378 . S
C1400 C1401 1.367 . S
C1401 C1400 1.367 . S
C1401 C1403 1.433 . S
C1402 C1398 1.350 . S
C1402 C1399 1.463 . S
C1402 N1406 1.427 . S
C1403 H1393 0.929 . S
C1403 C1401 1.433 . S
C1403 N1406 1.384 . S
C1404 H1395 0.929 . S
C1404 C1396 1.378 . S
C1404 C1399 1.350 . S
C1405 H1392 0.929 . S
C1405 C1397 1.433 . S
C1405 N1407 1.384 . S
N1406 C1402 1.427 . S
N1406 C1403 1.384 . S
N1407 C1399 1.427 . S
N1407 C1405 1.384 . S
H1408 C1414 0.930 . S
H1409 C1418 0.930 . S
H1410 C1423 0.929 . S
H1411 C1421 0.929 . S
H1412 C1416 0.929 . S
H1413 C1422 0.929 . S
C1414 H1408 0.930 . S
C1414 C1415 1.367 . S
C1414 C1422 1.378 . S
C1415 C1414 1.367 . S
C1415 C1423 1.433 . S
C1416 H1412 0.929 . S
C1416 C1418 1.378 . S
C1416 C1420 1.350 . S
C1417 C1420 1.463 . S
C1417 C1422 1.350 . S
C1417 N1425 1.427 . S
C1418 H1409 0.930 . S
C1418 C1416 1.378 . S
C1418 C1419 1.367 . S
C1419 C1418 1.367 . S
C1419 C1421 1.433 . S
C1420 C1416 1.350 . S
C1420 C1417 1.463 . S
C1420 N1424 1.427 . S
C1421 H1411 0.929 . S
C1421 C1419 1.433 . S
C1421 N1424 1.384 . S
C1422 H1413 0.929 . S
C1422 C1414 1.378 . S
C1422 C1417 1.350 . S
C1423 H1410 0.929 . S
C1423 C1415 1.433 . S
C1423 N1425 1.384 . S
N1424 C1420 1.427 . S
N1424 C1421 1.384 . S
N1425 C1417 1.427 . S
N1425 C1423 1.384 . S
H1426 C1432 0.930 . S
H1427 C1436 0.930 . S
H1428 C1441 0.929 . S
H1429 C1439 0.929 . S
H1430 C1434 0.929 . S
H1431 C1440 0.929 . S
C1432 H1426 0.930 . S
C1432 C1433 1.367 . S
C1432 C1440 1.378 . S
C1433 C1432 1.367 . S
C1433 C1441 1.433 . S
C1434 H1430 0.929 . S
C1434 C1436 1.378 1_565 S
C1434 C1438 1.350 . S
C1435 C1438 1.463 . S
C1435 C1440 1.350 . S
C1435 N1443 1.427 . S
C1436 H1427 0.930 . S
C1436 C1434 1.378 1_545 S
C1436 C1437 1.367 . S
C1437 C1436 1.367 . S
C1437 C1439 1.433 1_545 S
C1438 C1434 1.350 . S
C1438 C1435 1.463 . S
C1438 N1442 1.427 . S
C1439 H1429 0.929 . S
C1439 C1437 1.433 1_565 S
C1439 N1442 1.384 . S
C1440 H1431 0.929 . S
C1440 C1432 1.378 . S
C1440 C1435 1.350 . S
C1441 H1428 0.929 . S
C1441 C1433 1.433 . S
C1441 N1443 1.384 . S
N1442 C1438 1.427 . S
N1442 C1439 1.384 . S
N1443 C1435 1.427 . S
N1443 C1441 1.384 . S
H1444 C1450 0.930 . S
H1445 C1454 0.930 . S
H1446 C1459 0.929 . S
H1447 C1457 0.929 . S
H1448 C1452 0.929 . S
H1449 C1458 0.929 . S
C1450 H1444 0.930 . S
C1450 C1451 1.367 . S
C1450 C1458 1.378 . S
C1451 C1450 1.367 . S
C1451 C1459 1.433 . S
C1452 H1448 0.929 . S
C1452 C1454 1.378 . S
C1452 C1456 1.350 . S
C1453 C1456 1.463 . S
C1453 C1458 1.350 . S
C1453 N1461 1.427 . S
C1454 H1445 0.930 . S
C1454 C1452 1.378 . S
C1454 C1455 1.367 . S
C1455 C1454 1.367 . S
C1455 C1457 1.433 . S
C1456 C1452 1.350 . S
C1456 C1453 1.463 . S
C1456 N1460 1.427 . S
C1457 H1447 0.929 . S
C1457 C1455 1.433 . S
C1457 N1460 1.384 . S
C1458 H1449 0.929 . S
C1458 C1450 1.378 . S
C1458 C1453 1.350 . S
C1459 H1446 0.929 . S
C1459 C1451 1.433 . S
C1459 N1461 1.384 . S
N1460 C1456 1.427 . S
N1460 C1457 1.384 . S
N1461 C1453 1.427 . S
N1461 C1459 1.384 . S
H1462 C1468 0.930 . S
H1463 C1472 0.930 . S
H1464 C1477 0.929 . S
H1465 C1475 0.929 . S
H1466 C1470 0.929 . S
H1467 C1476 0.929 . S
C1468 H1462 0.930 . S
C1468 C1469 1.367 . S
C1468 C1476 1.378 . S
C1469 C1468 1.367 . S
C1469 C1477 1.433 . S
C1470 H1466 0.929 . S
C1470 C1472 1.378 . S
C1470 C1474 1.350 . S
C1471 C1474 1.463 . S
C1471 C1476 1.350 . S
C1471 N1479 1.427 . S
C1472 H1463 0.930 . S
C1472 C1470 1.378 . S
C1472 C1473 1.367 . S
C1473 C1472 1.367 . S
C1473 C1475 1.433 . S
C1474 C1470 1.350 . S
C1474 C1471 1.463 . S
C1474 N1478 1.427 . S
C1475 H1465 0.929 . S
C1475 C1473 1.433 . S
C1475 N1478 1.384 . S
C1476 H1467 0.929 . S
C1476 C1468 1.378 . S
C1476 C1471 1.350 . S
C1477 H1464 0.929 . S
C1477 C1469 1.433 . S
C1477 N1479 1.384 . S
N1478 C1474 1.427 . S
N1478 C1475 1.384 . S
N1479 C1471 1.427 . S
N1479 C1477 1.384 . S
H1480 C1486 0.930 . S
H1481 C1490 0.930 . S
H1482 C1495 0.929 . S
H1483 C1493 0.929 . S
H1484 C1488 0.929 . S
H1485 C1494 0.929 . S
C1486 H1480 0.930 . S
C1486 C1487 1.367 . S
C1486 C1494 1.378 . S
C1487 C1486 1.367 . S
C1487 C1495 1.433 . S
C1488 H1484 0.929 . S
C1488 C1490 1.378 1_455 S
C1488 C1492 1.350 . S
C1489 C1492 1.463 . S
C1489 C1494 1.350 . S
C1489 N1497 1.427 . S
C1490 H1481 0.930 . S
C1490 C1488 1.378 1_655 S
C1490 C1491 1.367 . S
C1491 C1490 1.367 . S
C1491 C1493 1.433 1_655 S
C1492 C1488 1.350 . S
C1492 C1489 1.463 . S
C1492 N1496 1.427 . S
C1493 H1483 0.929 . S
C1493 C1491 1.433 1_455 S
C1493 N1496 1.384 . S
C1494 H1485 0.929 . S
C1494 C1486 1.378 . S
C1494 C1489 1.350 . S
C1495 H1482 0.929 . S
C1495 C1487 1.433 . S
C1495 N1497 1.384 . S
N1496 C1492 1.427 . S
N1496 C1493 1.384 . S
N1497 C1489 1.427 . S
N1497 C1495 1.384 . S
H1498 C1504 0.930 . S
H1499 C1508 0.930 . S
H1500 C1513 0.929 . S
H1501 C1511 0.929 . S
H1502 C1506 0.929 . S
H1503 C1512 0.929 . S
C1504 H1498 0.930 . S
C1504 C1505 1.367 . S
C1504 C1512 1.378 . S
C1505 C1504 1.367 . S
C1505 C1513 1.433 . S
C1506 H1502 0.929 . S
C1506 C1508 1.378 . S
C1506 C1510 1.350 . S
C1507 C1510 1.463 . S
C1507 C1512 1.350 . S
C1507 N1515 1.427 . S
C1508 H1499 0.930 . S
C1508 C1506 1.378 . S
C1508 C1509 1.367 . S
C1509 C1508 1.367 . S
C1509 C1511 1.433 . S
C1510 C1506 1.350 . S
C1510 C1507 1.463 . S
C1510 N1514 1.427 . S
C1511 H1501 0.929 . S
C1511 C1509 1.433 . S
C1511 N1514 1.384 . S
C1512 H1503 0.929 . S
C1512 C1504 1.378 . S
C1512 C1507 1.350 . S
C1513 H1500 0.929 . S
C1513 C1505 1.433 . S
C1513 N1515 1.384 . S
N1514 C1510 1.427 . S
N1514 C1511 1.384 . S
N1515 C1507 1.427 . S
N1515 C1513 1.384 . S
H1516 C1522 0.930 . S
H1517 C1526 0.930 . S
H1518 C1531 0.929 . S
H1519 C1529 0.929 . S
H1520 C1524 0.929 . S
H1521 C1530 0.929 . S
C1522 H1516 0.930 . S
C1522 C1523 1.367 . S
C1522 C1530 1.378 . S
C1523 C1522 1.367 . S
C1523 C1531 1.433 . S
C1524 H1520 0.929 . S
C1524 C1526 1.378 . S
C1524 C1528 1.350 . S
C1525 C1528 1.463 . S
C1525 C1530 1.350 . S
C1525 N1533 1.427 . S
C1526 H1517 0.930 . S
C1526 C1524 1.378 . S
C1526 C1527 1.367 . S
C1527 C1526 1.367 . S
C1527 C1529 1.433 . S
C1528 C1524 1.350 . S
C1528 C1525 1.463 . S
C1528 N1532 1.427 . S
C1529 H1519 0.929 . S
C1529 C1527 1.433 . S
C1529 N1532 1.384 . S
C1530 H1521 0.929 . S
C1530 C1522 1.378 . S
C1530 C1525 1.350 . S
C1531 H1518 0.929 . S
C1531 C1523 1.433 . S
C1531 N1533 1.384 . S
N1532 C1528 1.427 . S
N1532 C1529 1.384 . S
N1533 C1525 1.427 . S
N1533 C1531 1.384 . S
H1534 C1540 0.930 . S
H1535 C1544 0.930 . S
H1536 C1549 0.929 . S
H1537 C1547 0.929 . S
H1538 C1542 0.929 . S
H1539 C1548 0.929 . S
C1540 H1534 0.930 . S
C1540 C1541 1.367 . S
C1540 C1548 1.378 . S
C1541 C1540 1.367 . S
C1541 C1549 1.433 . S
C1542 H1538 0.929 . S
C1542 C1544 1.378 . S
C1542 C1546 1.350 . S
C1543 C1546 1.463 . S
C1543 C1548 1.350 . S
C1543 N1551 1.427 . S
C1544 H1535 0.930 . S
C1544 C1542 1.378 . S
C1544 C1545 1.367 . S
C1545 C1544 1.367 . S
C1545 C1547 1.433 . S
C1546 C1542 1.350 . S
C1546 C1543 1.463 . S
C1546 N1550 1.427 . S
C1547 H1537 0.929 . S
C1547 C1545 1.433 . S
C1547 N1550 1.384 . S
C1548 H1539 0.929 . S
C1548 C1540 1.378 . S
C1548 C1543 1.350 . S
C1549 H1536 0.929 . S
C1549 C1541 1.433 . S
C1549 N1551 1.384 . S
N1550 C1546 1.427 . S
N1550 C1547 1.384 . S
N1551 C1543 1.427 . S
N1551 C1549 1.384 . S
H1552 C1558 0.930 . S
H1553 C1562 0.930 . S
H1554 C1567 0.929 . S
H1555 C1565 0.929 1_655 S
H1556 C1560 0.929 . S
H1557 C1566 0.929 . S
C1558 H1552 0.930 . S
C1558 C1559 1.367 . S
C1558 C1566 1.378 . S
C1559 C1558 1.367 . S
C1559 C1567 1.433 . S
C1560 H1556 0.929 . S
C1560 C1562 1.378 . S
C1560 C1564 1.350 . S
C1561 C1564 1.463 . S
C1561 C1566 1.350 . S
C1561 N1569 1.427 . S
C1562 H1553 0.930 . S
C1562 C1560 1.378 . S
C1562 C1563 1.367 1_455 S
C1563 C1562 1.367 1_655 S
C1563 C1565 1.433 1_655 S
C1564 C1560 1.350 . S
C1564 C1561 1.463 . S
C1564 N1568 1.427 . S
C1565 H1555 0.929 1_455 S
C1565 C1563 1.433 1_455 S
C1565 N1568 1.384 . S
C1566 H1557 0.929 . S
C1566 C1558 1.378 . S
C1566 C1561 1.350 . S
C1567 H1554 0.929 . S
C1567 C1559 1.433 . S
C1567 N1569 1.384 . S
N1568 C1564 1.427 . S
N1568 C1565 1.384 . S
N1569 C1561 1.427 . S
N1569 C1567 1.384 . S
H1570 C1576 0.930 . S
H1571 C1580 0.930 . S
H1572 C1585 0.929 . S
H1573 C1583 0.929 . S
H1574 C1578 0.929 . S
H1575 C1584 0.929 . S
C1576 H1570 0.930 . S
C1576 C1577 1.367 . S
C1576 C1584 1.378 . S
C1577 C1576 1.367 . S
C1577 C1585 1.433 . S
C1578 H1574 0.929 . S
C1578 C1580 1.378 . S
C1578 C1582 1.350 . S
C1579 C1582 1.463 . S
C1579 C1584 1.350 . S
C1579 N1587 1.427 . S
C1580 H1571 0.930 . S
C1580 C1578 1.378 . S
C1580 C1581 1.367 1_655 S
C1581 C1580 1.367 1_455 S
C1581 C1583 1.433 . S
C1582 C1578 1.350 . S
C1582 C1579 1.463 . S
C1582 N1586 1.427 . S
C1583 H1573 0.929 . S
C1583 C1581 1.433 . S
C1583 N1586 1.384 1_455 S
C1584 H1575 0.929 . S
C1584 C1576 1.378 . S
C1584 C1579 1.350 . S
C1585 H1572 0.929 . S
C1585 C1577 1.433 . S
C1585 N1587 1.384 . S
N1586 C1582 1.427 . S
N1586 C1583 1.384 1_655 S
N1587 C1579 1.427 . S
N1587 C1585 1.384 . S
H1588 C1594 0.930 . S
H1589 C1598 0.930 . S
H1590 C1603 0.929 . S
H1591 C1601 0.929 . S
H1592 C1596 0.929 . S
H1593 C1602 0.929 . S
C1594 H1588 0.930 . S
C1594 C1595 1.367 . S
C1594 C1602 1.378 . S
C1595 C1594 1.367 . S
C1595 C1603 1.433 . S
C1596 H1592 0.929 . S
C1596 C1598 1.378 . S
C1596 C1600 1.350 . S
C1597 C1600 1.463 . S
C1597 C1602 1.350 . S
C1597 N1605 1.427 . S
C1598 H1589 0.930 . S
C1598 C1596 1.378 . S
C1598 C1599 1.367 . S
C1599 C1598 1.367 . S
C1599 C1601 1.433 . S
C1600 C1596 1.350 . S
C1600 C1597 1.463 . S
C1600 N1604 1.427 . S
C1601 H1591 0.929 . S
C1601 C1599 1.433 . S
C1601 N1604 1.384 . S
C1602 H1593 0.929 . S
C1602 C1594 1.378 . S
C1602 C1597 1.350 . S
C1603 H1590 0.929 . S
C1603 C1595 1.433 . S
C1603 N1605 1.384 . S
N1604 C1600 1.427 . S
N1604 C1601 1.384 . S
N1605 C1597 1.427 . S
N1605 C1603 1.384 . S
H1606 C1612 0.930 . S
H1607 C1616 0.930 . S
H1608 C1621 0.929 . S
H1609 C1619 0.929 . S
H1610 C1614 0.929 . S
H1611 C1620 0.929 . S
C1612 H1606 0.930 . S
C1612 C1613 1.367 . S
C1612 C1620 1.378 . S
C1613 C1612 1.367 . S
C1613 C1621 1.433 . S
C1614 H1610 0.929 . S
C1614 C1616 1.378 . S
C1614 C1618 1.350 . S
C1615 C1618 1.463 . S
C1615 C1620 1.350 . S
C1615 N1623 1.427 . S
C1616 H1607 0.930 . S
C1616 C1614 1.378 . S
C1616 C1617 1.367 . S
C1617 C1616 1.367 . S
C1617 C1619 1.433 . S
C1618 C1614 1.350 . S
C1618 C1615 1.463 . S
C1618 N1622 1.427 . S
C1619 H1609 0.929 . S
C1619 C1617 1.433 . S
C1619 N1622 1.384 . S
C1620 H1611 0.929 . S
C1620 C1612 1.378 . S
C1620 C1615 1.350 . S
C1621 H1608 0.929 . S
C1621 C1613 1.433 . S
C1621 N1623 1.384 . S
N1622 C1618 1.427 . S
N1622 C1619 1.384 . S
N1623 C1615 1.427 . S
N1623 C1621 1.384 . S
H1624 C1630 0.930 . S
H1625 C1634 0.930 . S
H1626 C1639 0.929 . S
H1627 C1637 0.929 . S
H1628 C1632 0.929 . S
H1629 C1638 0.929 . S
C1630 H1624 0.930 . S
C1630 C1631 1.367 . S
C1630 C1638 1.378 . S
C1631 C1630 1.367 . S
C1631 C1639 1.433 . S
C1632 H1628 0.929 . S
C1632 C1634 1.378 . S
C1632 C1636 1.350 . S
C1633 C1636 1.463 . S
C1633 C1638 1.350 . S
C1633 N1641 1.427 . S
C1634 H1625 0.930 . S
C1634 C1632 1.378 . S
C1634 C1635 1.367 . S
C1635 C1634 1.367 . S
C1635 C1637 1.433 . S
C1636 C1632 1.350 . S
C1636 C1633 1.463 . S
C1636 N1640 1.427 . S
C1637 H1627 0.929 . S
C1637 C1635 1.433 . S
C1637 N1640 1.384 . S
C1638 H1629 0.929 . S
C1638 C1630 1.378 . S
C1638 C1633 1.350 . S
C1639 H1626 0.929 . S
C1639 C1631 1.433 . S
C1639 N1641 1.384 . S
N1640 C1636 1.427 . S
N1640 C1637 1.384 . S
N1641 C1633 1.427 . S
N1641 C1639 1.384 . S
H1642 C1648 0.930 . S
H1643 C1652 0.930 . S
H1644 C1657 0.929 . S
H1645 C1655 0.929 . S
H1646 C1650 0.929 . S
H1647 C1656 0.929 . S
C1648 H1642 0.930 . S
C1648 C1649 1.367 . S
C1648 C1656 1.378 . S
C1649 C1648 1.367 . S
C1649 C1657 1.433 . S
C1650 H1646 0.929 . S
C1650 C1652 1.378 . S
C1650 C1654 1.350 . S
C1651 C1654 1.463 . S
C1651 C1656 1.350 . S
C1651 N1659 1.427 . S
C1652 H1643 0.930 . S
C1652 C1650 1.378 . S
C1652 C1653 1.367 . S
C1653 C1652 1.367 . S
C1653 C1655 1.433 . S
C1654 C1650 1.350 . S
C1654 C1651 1.463 . S
C1654 N1658 1.427 . S
C1655 H1645 0.929 . S
C1655 C1653 1.433 . S
C1655 N1658 1.384 . S
C1656 H1647 0.929 . S
C1656 C1648 1.378 . S
C1656 C1651 1.350 . S
C1657 H1644 0.929 . S
C1657 C1649 1.433 . S
C1657 N1659 1.384 . S
N1658 C1654 1.427 . S
N1658 C1655 1.384 . S
N1659 C1651 1.427 . S
N1659 C1657 1.384 . S
H1660 C1666 0.930 . S
H1661 C1670 0.930 . S
H1662 C1675 0.929 . S
H1663 C1673 0.929 . S
H1664 C1668 0.929 . S
H1665 C1674 0.929 . S
C1666 H1660 0.930 . S
C1666 C1667 1.367 . S
C1666 C1674 1.378 . S
C1667 C1666 1.367 . S
C1667 C1675 1.433 . S
C1668 H1664 0.929 . S
C1668 C1670 1.378 . S
C1668 C1672 1.350 . S
C1669 C1672 1.463 . S
C1669 C1674 1.350 . S
C1669 N1677 1.427 . S
C1670 H1661 0.930 . S
C1670 C1668 1.378 . S
C1670 C1671 1.367 . S
C1671 C1670 1.367 . S
C1671 C1673 1.433 . S
C1672 C1668 1.350 . S
C1672 C1669 1.463 . S
C1672 N1676 1.427 . S
C1673 H1663 0.929 . S
C1673 C1671 1.433 . S
C1673 N1676 1.384 . S
C1674 H1665 0.929 . S
C1674 C1666 1.378 . S
C1674 C1669 1.350 . S
C1675 H1662 0.929 . S
C1675 C1667 1.433 . S
C1675 N1677 1.384 . S
N1676 C1672 1.427 . S
N1676 C1673 1.384 . S
N1677 C1669 1.427 . S
N1677 C1675 1.384 . S
H1678 C1684 0.930 . S
H1679 C1688 0.930 . S
H1680 C1693 0.929 . S
H1681 C1691 0.929 . S
H1682 C1686 0.929 . S
H1683 C1692 0.929 . S
C1684 H1678 0.930 . S
C1684 C1685 1.367 . S
C1684 C1692 1.378 . S
C1685 C1684 1.367 . S
C1685 C1693 1.433 . S
C1686 H1682 0.929 . S
C1686 C1688 1.378 . S
C1686 C1690 1.350 . S
C1687 C1690 1.463 . S
C1687 C1692 1.350 . S
C1687 N1695 1.427 . S
C1688 H1679 0.930 . S
C1688 C1686 1.378 . S
C1688 C1689 1.367 . S
C1689 C1688 1.367 . S
C1689 C1691 1.433 . S
C1690 C1686 1.350 . S
C1690 C1687 1.463 . S
C1690 N1694 1.427 . S
C1691 H1681 0.929 . S
C1691 C1689 1.433 . S
C1691 N1694 1.384 . S
C1692 H1683 0.929 . S
C1692 C1684 1.378 . S
C1692 C1687 1.350 . S
C1693 H1680 0.929 . S
C1693 C1685 1.433 . S
C1693 N1695 1.384 . S
N1694 C1690 1.427 . S
N1694 C1691 1.384 . S
N1695 C1687 1.427 . S
N1695 C1693 1.384 . S
H1696 C1702 0.930 . S
H1697 C1706 0.930 . S
H1698 C1711 0.929 . S
H1699 C1709 0.929 . S
H1700 C1704 0.929 . S
H1701 C1710 0.929 . S
C1702 H1696 0.930 . S
C1702 C1703 1.367 . S
C1702 C1710 1.378 . S
C1703 C1702 1.367 . S
C1703 C1711 1.433 . S
C1704 H1700 0.929 . S
C1704 C1706 1.378 . S
C1704 C1708 1.350 . S
C1705 C1708 1.463 . S
C1705 C1710 1.350 . S
C1705 N1713 1.427 . S
C1706 H1697 0.930 . S
C1706 C1704 1.378 . S
C1706 C1707 1.367 . S
C1707 C1706 1.367 . S
C1707 C1709 1.433 . S
C1708 C1704 1.350 . S
C1708 C1705 1.463 . S
C1708 N1712 1.427 . S
C1709 H1699 0.929 . S
C1709 C1707 1.433 . S
C1709 N1712 1.384 . S
C1710 H1701 0.929 . S
C1710 C1702 1.378 . S
C1710 C1705 1.350 . S
C1711 H1698 0.929 . S
C1711 C1703 1.433 . S
C1711 N1713 1.384 . S
N1712 C1708 1.427 . S
N1712 C1709 1.384 . S
N1713 C1705 1.427 . S
N1713 C1711 1.384 . S
H1714 C1720 0.930 . S
H1715 C1724 0.930 . S
H1716 C1729 0.929 . S
H1717 C1727 0.929 . S
H1718 C1722 0.929 . S
H1719 C1728 0.929 . S
C1720 H1714 0.930 . S
C1720 C1721 1.367 . S
C1720 C1728 1.378 . S
C1721 C1720 1.367 . S
C1721 C1729 1.433 . S
C1722 H1718 0.929 . S
C1722 C1724 1.378 . S
C1722 C1726 1.350 . S
C1723 C1726 1.463 . S
C1723 C1728 1.350 . S
C1723 N1731 1.427 . S
C1724 H1715 0.930 . S
C1724 C1722 1.378 . S
C1724 C1725 1.367 . S
C1725 C1724 1.367 . S
C1725 C1727 1.433 . S
C1726 C1722 1.350 . S
C1726 C1723 1.463 . S
C1726 N1730 1.427 . S
C1727 H1717 0.929 . S
C1727 C1725 1.433 . S
C1727 N1730 1.384 . S
C1728 H1719 0.929 . S
C1728 C1720 1.378 . S
C1728 C1723 1.350 . S
C1729 H1716 0.929 . S
C1729 C1721 1.433 . S
C1729 N1731 1.384 . S
N1730 C1726 1.427 . S
N1730 C1727 1.384 . S
N1731 C1723 1.427 . S
N1731 C1729 1.384 . S
H1732 C1738 0.930 . S
H1733 C1742 0.930 . S
H1734 C1747 0.929 . S
H1735 C1745 0.929 . S
H1736 C1740 0.929 . S
H1737 C1746 0.929 . S
C1738 H1732 0.930 . S
C1738 C1739 1.367 . S
C1738 C1746 1.378 . S
C1739 C1738 1.367 . S
C1739 C1747 1.433 . S
C1740 H1736 0.929 . S
C1740 C1742 1.378 . S
C1740 C1744 1.350 . S
C1741 C1744 1.463 . S
C1741 C1746 1.350 . S
C1741 N1749 1.427 . S
C1742 H1733 0.930 . S
C1742 C1740 1.378 . S
C1742 C1743 1.367 . S
C1743 C1742 1.367 . S
C1743 C1745 1.433 . S
C1744 C1740 1.350 . S
C1744 C1741 1.463 . S
C1744 N1748 1.427 . S
C1745 H1735 0.929 . S
C1745 C1743 1.433 . S
C1745 N1748 1.384 . S
C1746 H1737 0.929 . S
C1746 C1738 1.378 . S
C1746 C1741 1.350 . S
C1747 H1734 0.929 . S
C1747 C1739 1.433 . S
C1747 N1749 1.384 . S
N1748 C1744 1.427 . S
N1748 C1745 1.384 . S
N1749 C1741 1.427 . S
N1749 C1747 1.384 . S
H1750 C1756 0.930 . S
H1751 C1760 0.930 . S
H1752 C1765 0.929 . S
H1753 C1763 0.929 . S
H1754 C1758 0.929 . S
H1755 C1764 0.929 . S
C1756 H1750 0.930 . S
C1756 C1757 1.367 . S
C1756 C1764 1.378 . S
C1757 C1756 1.367 . S
C1757 C1765 1.433 . S
C1758 H1754 0.929 . S
C1758 C1760 1.378 . S
C1758 C1762 1.350 . S
C1759 C1762 1.463 . S
C1759 C1764 1.350 . S
C1759 N1767 1.427 . S
C1760 H1751 0.930 . S
C1760 C1758 1.378 . S
C1760 C1761 1.367 . S
C1761 C1760 1.367 . S
C1761 C1763 1.433 . S
C1762 C1758 1.350 . S
C1762 C1759 1.463 . S
C1762 N1766 1.427 . S
C1763 H1753 0.929 . S
C1763 C1761 1.433 . S
C1763 N1766 1.384 . S
C1764 H1755 0.929 . S
C1764 C1756 1.378 . S
C1764 C1759 1.350 . S
C1765 H1752 0.929 . S
C1765 C1757 1.433 . S
C1765 N1767 1.384 . S
N1766 C1762 1.427 . S
N1766 C1763 1.384 . S
N1767 C1759 1.427 . S
N1767 C1765 1.384 . S
H1768 C1774 0.930 . S
H1769 C1778 0.930 . S
H1770 C1783 0.929 . S
H1771 C1781 0.929 . S
H1772 C1776 0.929 . S
H1773 C1782 0.929 . S
C1774 H1768 0.930 . S
C1774 C1775 1.367 . S
C1774 C1782 1.378 . S
C1775 C1774 1.367 . S
C1775 C1783 1.433 . S
C1776 H1772 0.929 . S
C1776 C1778 1.378 . S
C1776 C1780 1.350 . S
C1777 C1780 1.463 . S
C1777 C1782 1.350 . S
C1777 N1785 1.427 . S
C1778 H1769 0.930 . S
C1778 C1776 1.378 . S
C1778 C1779 1.367 . S
C1779 C1778 1.367 . S
C1779 C1781 1.433 . S
C1780 C1776 1.350 . S
C1780 C1777 1.463 . S
C1780 N1784 1.427 . S
C1781 H1771 0.929 . S
C1781 C1779 1.433 . S
C1781 N1784 1.384 . S
C1782 H1773 0.929 . S
C1782 C1774 1.378 . S
C1782 C1777 1.350 . S
C1783 H1770 0.929 . S
C1783 C1775 1.433 . S
C1783 N1785 1.384 . S
N1784 C1780 1.427 . S
N1784 C1781 1.384 . S
N1785 C1777 1.427 . S
N1785 C1783 1.384 . S
H1786 C1792 0.930 . S
H1787 C1796 0.930 . S
H1788 C1801 0.929 . S
H1789 C1799 0.929 1_556 S
H1790 C1794 0.929 . S
H1791 C1800 0.929 . S
C1792 H1786 0.930 . S
C1792 C1793 1.367 . S
C1792 C1800 1.378 . S
C1793 C1792 1.367 . S
C1793 C1801 1.433 . S
C1794 H1790 0.929 . S
C1794 C1796 1.378 . S
C1794 C1798 1.350 . S
C1795 C1798 1.463 . S
C1795 C1800 1.350 . S
C1795 N1803 1.427 . S
C1796 H1787 0.930 . S
C1796 C1794 1.378 . S
C1796 C1797 1.367 . S
C1797 C1796 1.367 . S
C1797 C1799 1.433 . S
C1798 C1794 1.350 . S
C1798 C1795 1.463 . S
C1798 N1802 1.427 . S
C1799 H1789 0.929 1_554 S
C1799 C1797 1.433 . S
C1799 N1802 1.384 . S
C1800 H1791 0.929 . S
C1800 C1792 1.378 . S
C1800 C1795 1.350 . S
C1801 H1788 0.929 . S
C1801 C1793 1.433 . S
C1801 N1803 1.384 . S
N1802 C1798 1.427 . S
N1802 C1799 1.384 . S
N1803 C1795 1.427 . S
N1803 C1801 1.384 . S
H1804 C1810 0.930 . S
H1805 C1814 0.930 . S
H1806 C1819 0.929 . S
H1807 C1817 0.929 . S
H1808 C1812 0.929 . S
H1809 C1818 0.929 . S
C1810 H1804 0.930 . S
C1810 C1811 1.367 . S
C1810 C1818 1.378 . S
C1811 C1810 1.367 . S
C1811 C1819 1.433 . S
C1812 H1808 0.929 . S
C1812 C1814 1.378 . S
C1812 C1816 1.350 . S
C1813 C1816 1.463 . S
C1813 C1818 1.350 . S
C1813 N1821 1.427 . S
C1814 H1805 0.930 . S
C1814 C1812 1.378 . S
C1814 C1815 1.367 . S
C1815 C1814 1.367 . S
C1815 C1817 1.433 . S
C1816 C1812 1.350 . S
C1816 C1813 1.463 . S
C1816 N1820 1.427 . S
C1817 H1807 0.929 . S
C1817 C1815 1.433 . S
C1817 N1820 1.384 . S
C1818 H1809 0.929 . S
C1818 C1810 1.378 . S
C1818 C1813 1.350 . S
C1819 H1806 0.929 . S
C1819 C1811 1.433 . S
C1819 N1821 1.384 . S
N1820 C1816 1.427 . S
N1820 C1817 1.384 . S
N1821 C1813 1.427 . S
N1821 C1819 1.384 . S
H1822 C1828 0.930 . S
H1823 C1832 0.930 . S
H1824 C1837 0.929 . S
H1825 C1835 0.929 . S
H1826 C1830 0.929 . S
H1827 C1836 0.929 . S
C1828 H1822 0.930 . S
C1828 C1829 1.367 . S
C1828 C1836 1.378 . S
C1829 C1828 1.367 . S
C1829 C1837 1.433 . S
C1830 H1826 0.929 . S
C1830 C1832 1.378 . S
C1830 C1834 1.350 . S
C1831 C1834 1.463 . S
C1831 C1836 1.350 . S
C1831 N1839 1.427 . S
C1832 H1823 0.930 . S
C1832 C1830 1.378 . S
C1832 C1833 1.367 . S
C1833 C1832 1.367 . S
C1833 C1835 1.433 . S
C1834 C1830 1.350 . S
C1834 C1831 1.463 . S
C1834 N1838 1.427 . S
C1835 H1825 0.929 . S
C1835 C1833 1.433 . S
C1835 N1838 1.384 . S
C1836 H1827 0.929 . S
C1836 C1828 1.378 . S
C1836 C1831 1.350 . S
C1837 H1824 0.929 . S
C1837 C1829 1.433 . S
C1837 N1839 1.384 . S
N1838 C1834 1.427 . S
N1838 C1835 1.384 . S
N1839 C1831 1.427 . S
N1839 C1837 1.384 . S
H1840 C1846 0.930 . S
H1841 C1850 0.930 . S
H1842 C1855 0.929 . S
H1843 C1853 0.929 . S
H1844 C1848 0.929 . S
H1845 C1854 0.929 . S
C1846 H1840 0.930 . S
C1846 C1847 1.367 . S
C1846 C1854 1.378 . S
C1847 C1846 1.367 . S
C1847 C1855 1.433 . S
C1848 H1844 0.929 . S
C1848 C1850 1.378 . S
C1848 C1852 1.350 . S
C1849 C1852 1.463 . S
C1849 C1854 1.350 . S
C1849 N1857 1.427 . S
C1850 H1841 0.930 . S
C1850 C1848 1.378 . S
C1850 C1851 1.367 . S
C1851 C1850 1.367 . S
C1851 C1853 1.433 . S
C1852 C1848 1.350 . S
C1852 C1849 1.463 . S
C1852 N1856 1.427 . S
C1853 H1843 0.929 . S
C1853 C1851 1.433 . S
C1853 N1856 1.384 . S
C1854 H1845 0.929 . S
C1854 C1846 1.378 . S
C1854 C1849 1.350 . S
C1855 H1842 0.929 . S
C1855 C1847 1.433 . S
C1855 N1857 1.384 . S
N1856 C1852 1.427 . S
N1856 C1853 1.384 . S
N1857 C1849 1.427 . S
N1857 C1855 1.384 . S
H1858 C1864 0.930 . S
H1859 C1868 0.930 . S
H1860 C1873 0.929 . S
H1861 C1871 0.929 1_554 S
H1862 C1866 0.929 . S
H1863 C1872 0.929 . S
C1864 H1858 0.930 . S
C1864 C1865 1.367 . S
C1864 C1872 1.378 . S
C1865 C1864 1.367 . S
C1865 C1873 1.433 . S
C1866 H1862 0.929 . S
C1866 C1868 1.378 . S
C1866 C1870 1.350 . S
C1867 C1870 1.463 . S
C1867 C1872 1.350 . S
C1867 N1875 1.427 . S
C1868 H1859 0.930 . S
C1868 C1866 1.378 . S
C1868 C1869 1.367 . S
C1869 C1868 1.367 . S
C1869 C1871 1.433 . S
C1870 C1866 1.350 . S
C1870 C1867 1.463 . S
C1870 N1874 1.427 . S
C1871 H1861 0.929 1_556 S
C1871 C1869 1.433 . S
C1871 N1874 1.384 . S
C1872 H1863 0.929 . S
C1872 C1864 1.378 . S
C1872 C1867 1.350 . S
C1873 H1860 0.929 . S
C1873 C1865 1.433 . S
C1873 N1875 1.384 . S
N1874 C1870 1.427 . S
N1874 C1871 1.384 . S
N1875 C1867 1.427 . S
N1875 C1873 1.384 . S
H1876 C1882 0.930 . S
H1877 C1886 0.930 . S
H1878 C1891 0.929 . S
H1879 C1889 0.929 . S
H1880 C1884 0.929 . S
H1881 C1890 0.929 . S
C1882 H1876 0.930 . S
C1882 C1883 1.367 . S
C1882 C1890 1.378 . S
C1883 C1882 1.367 . S
C1883 C1891 1.433 . S
C1884 H1880 0.929 . S
C1884 C1886 1.378 . S
C1884 C1888 1.350 . S
C1885 C1888 1.463 . S
C1885 C1890 1.350 . S
C1885 N1893 1.427 . S
C1886 H1877 0.930 . S
C1886 C1884 1.378 . S
C1886 C1887 1.367 . S
C1887 C1886 1.367 . S
C1887 C1889 1.433 . S
C1888 C1884 1.350 . S
C1888 C1885 1.463 . S
C1888 N1892 1.427 . S
C1889 H1879 0.929 . S
C1889 C1887 1.433 . S
C1889 N1892 1.384 . S
C1890 H1881 0.929 . S
C1890 C1882 1.378 . S
C1890 C1885 1.350 . S
C1891 H1878 0.929 . S
C1891 C1883 1.433 . S
C1891 N1893 1.384 . S
N1892 C1888 1.427 . S
N1892 C1889 1.384 . S
N1893 C1885 1.427 . S
N1893 C1891 1.384 . S
H1894 C1900 0.930 . S
H1895 C1904 0.930 . S
H1896 C1909 0.929 . S
H1897 C1907 0.929 . S
H1898 C1902 0.929 . S
H1899 C1908 0.929 . S
C1900 H1894 0.930 . S
C1900 C1901 1.367 . S
C1900 C1908 1.378 . S
C1901 C1900 1.367 . S
C1901 C1909 1.433 . S
C1902 H1898 0.929 . S
C1902 C1904 1.378 . S
C1902 C1906 1.350 . S
C1903 C1906 1.463 . S
C1903 C1908 1.350 . S
C1903 N1911 1.427 . S
C1904 H1895 0.930 . S
C1904 C1902 1.378 . S
C1904 C1905 1.367 . S
C1905 C1904 1.367 . S
C1905 C1907 1.433 . S
C1906 C1902 1.350 . S
C1906 C1903 1.463 . S
C1906 N1910 1.427 . S
C1907 H1897 0.929 . S
C1907 C1905 1.433 . S
C1907 N1910 1.384 . S
C1908 H1899 0.929 . S
C1908 C1900 1.378 . S
C1908 C1903 1.350 . S
C1909 H1896 0.929 . S
C1909 C1901 1.433 . S
C1909 N1911 1.384 . S
N1910 C1906 1.427 . S
N1910 C1907 1.384 . S
N1911 C1903 1.427 . S
N1911 C1909 1.384 . S
H1912 C1918 0.930 . S
H1913 C1922 0.930 . S
H1914 C1927 0.929 . S
H1915 C1925 0.929 . S
H1916 C1920 0.929 . S
H1917 C1926 0.929 . S
C1918 H1912 0.930 . S
C1918 C1919 1.367 . S
C1918 C1926 1.378 . S
C1919 C1918 1.367 . S
C1919 C1927 1.433 . S
C1920 H1916 0.929 . S
C1920 C1922 1.378 . S
C1920 C1924 1.350 . S
C1921 C1924 1.463 . S
C1921 C1926 1.350 . S
C1921 N1929 1.427 . S
C1922 H1913 0.930 . S
C1922 C1920 1.378 . S
C1922 C1923 1.367 . S
C1923 C1922 1.367 . S
C1923 C1925 1.433 . S
C1924 C1920 1.350 . S
C1924 C1921 1.463 . S
C1924 N1928 1.427 . S
C1925 H1915 0.929 . S
C1925 C1923 1.433 . S
C1925 N1928 1.384 . S
C1926 H1917 0.929 . S
C1926 C1918 1.378 . S
C1926 C1921 1.350 . S
C1927 H1914 0.929 . S
C1927 C1919 1.433 . S
C1927 N1929 1.384 . S
N1928 C1924 1.427 . S
N1928 C1925 1.384 . S
N1929 C1921 1.427 . S
N1929 C1927 1.384 . S
H1930 C1936 0.930 . S
H1931 C1940 0.930 . S
H1932 C1945 0.929 . S
H1933 C1943 0.929 . S
H1934 C1938 0.929 . S
H1935 C1944 0.929 . S
C1936 H1930 0.930 . S
C1936 C1937 1.367 . S
C1936 C1944 1.378 . S
C1937 C1936 1.367 . S
C1937 C1945 1.433 . S
C1938 H1934 0.929 . S
C1938 C1940 1.378 . S
C1938 C1942 1.350 . S
C1939 C1942 1.463 . S
C1939 C1944 1.350 . S
C1939 N1947 1.427 . S
C1940 H1931 0.930 . S
C1940 C1938 1.378 . S
C1940 C1941 1.367 . S
C1941 C1940 1.367 . S
C1941 C1943 1.433 . S
C1942 C1938 1.350 . S
C1942 C1939 1.463 . S
C1942 N1946 1.427 . S
C1943 H1933 0.929 . S
C1943 C1941 1.433 . S
C1943 N1946 1.384 . S
C1944 H1935 0.929 . S
C1944 C1936 1.378 . S
C1944 C1939 1.350 . S
C1945 H1932 0.929 . S
C1945 C1937 1.433 . S
C1945 N1947 1.384 . S
N1946 C1942 1.427 . S
N1946 C1943 1.384 . S
N1947 C1939 1.427 . S
N1947 C1945 1.384 . S
H1948 C1954 0.930 . S
H1949 C1958 0.930 . S
H1950 C1963 0.929 . S
H1951 C1961 0.929 . S
H1952 C1956 0.929 . S
H1953 C1962 0.929 . S
C1954 H1948 0.930 . S
C1954 C1955 1.367 . S
C1954 C1962 1.378 . S
C1955 C1954 1.367 . S
C1955 C1963 1.433 . S
C1956 H1952 0.929 . S
C1956 C1958 1.378 . S
C1956 C1960 1.350 . S
C1957 C1960 1.463 . S
C1957 C1962 1.350 . S
C1957 N1965 1.427 . S
C1958 H1949 0.930 . S
C1958 C1956 1.378 . S
C1958 C1959 1.367 . S
C1959 C1958 1.367 . S
C1959 C1961 1.433 . S
C1960 C1956 1.350 . S
C1960 C1957 1.463 . S
C1960 N1964 1.427 . S
C1961 H1951 0.929 . S
C1961 C1959 1.433 . S
C1961 N1964 1.384 . S
C1962 H1953 0.929 . S
C1962 C1954 1.378 . S
C1962 C1957 1.350 . S
C1963 H1950 0.929 . S
C1963 C1955 1.433 . S
C1963 N1965 1.384 . S
N1964 C1960 1.427 . S
N1964 C1961 1.384 . S
N1965 C1957 1.427 . S
N1965 C1963 1.384 . S
H1966 C1972 0.930 . S
H1967 C1976 0.930 . S
H1968 C1981 0.929 . S
H1969 C1979 0.929 . S
H1970 C1974 0.929 . S
H1971 C1980 0.929 . S
C1972 H1966 0.930 . S
C1972 C1973 1.367 . S
C1972 C1980 1.378 . S
C1973 C1972 1.367 . S
C1973 C1981 1.433 . S
C1974 H1970 0.929 . S
C1974 C1976 1.378 . S
C1974 C1978 1.350 . S
C1975 C1978 1.463 . S
C1975 C1980 1.350 . S
C1975 N1983 1.427 . S
C1976 H1967 0.930 . S
C1976 C1974 1.378 . S
C1976 C1977 1.367 . S
C1977 C1976 1.367 . S
C1977 C1979 1.433 . S
C1978 C1974 1.350 . S
C1978 C1975 1.463 . S
C1978 N1982 1.427 . S
C1979 H1969 0.929 . S
C1979 C1977 1.433 . S
C1979 N1982 1.384 . S
C1980 H1971 0.929 . S
C1980 C1972 1.378 . S
C1980 C1975 1.350 . S
C1981 H1968 0.929 . S
C1981 C1973 1.433 . S
C1981 N1983 1.384 . S
N1982 C1978 1.427 . S
N1982 C1979 1.384 . S
N1983 C1975 1.427 . S
N1983 C1981 1.384 . S
H1984 C1990 0.930 . S
H1985 C1994 0.930 . S
H1986 C1999 0.929 . S
H1987 C1997 0.929 . S
H1988 C1992 0.929 . S
H1989 C1998 0.929 . S
C1990 H1984 0.930 . S
C1990 C1991 1.367 . S
C1990 C1998 1.378 . S
C1991 C1990 1.367 . S
C1991 C1999 1.433 . S
C1992 H1988 0.929 . S
C1992 C1994 1.378 . S
C1992 C1996 1.350 . S
C1993 C1996 1.463 . S
C1993 C1998 1.350 . S
C1993 N2001 1.427 . S
C1994 H1985 0.930 . S
C1994 C1992 1.378 . S
C1994 C1995 1.367 . S
C1995 C1994 1.367 . S
C1995 C1997 1.433 . S
C1996 C1992 1.350 . S
C1996 C1993 1.463 . S
C1996 N2000 1.427 . S
C1997 H1987 0.929 . S
C1997 C1995 1.433 . S
C1997 N2000 1.384 . S
C1998 H1989 0.929 . S
C1998 C1990 1.378 . S
C1998 C1993 1.350 . S
C1999 H1986 0.929 . S
C1999 C1991 1.433 . S
C1999 N2001 1.384 . S
N2000 C1996 1.427 . S
N2000 C1997 1.384 . S
N2001 C1993 1.427 . S
N2001 C1999 1.384 . S
H2002 C2008 0.930 . S
H2003 C2012 0.930 . S
H2004 C2017 0.929 . S
H2005 C2015 0.929 . S
H2006 C2010 0.929 . S
H2007 C2016 0.929 . S
C2008 H2002 0.930 . S
C2008 C2009 1.367 . S
C2008 C2016 1.378 . S
C2009 C2008 1.367 . S
C2009 C2017 1.433 . S
C2010 H2006 0.929 . S
C2010 C2012 1.378 . S
C2010 C2014 1.350 . S
C2011 C2014 1.463 . S
C2011 C2016 1.350 . S
C2011 N2019 1.427 . S
C2012 H2003 0.930 . S
C2012 C2010 1.378 . S
C2012 C2013 1.367 . S
C2013 C2012 1.367 . S
C2013 C2015 1.433 . S
C2014 C2010 1.350 . S
C2014 C2011 1.463 . S
C2014 N2018 1.427 . S
C2015 H2005 0.929 . S
C2015 C2013 1.433 . S
C2015 N2018 1.384 . S
C2016 H2007 0.929 . S
C2016 C2008 1.378 . S
C2016 C2011 1.350 . S
C2017 H2004 0.929 . S
C2017 C2009 1.433 . S
C2017 N2019 1.384 . S
N2018 C2014 1.427 . S
N2018 C2015 1.384 . S
N2019 C2011 1.427 . S
N2019 C2017 1.384 . S
H2020 C2026 0.930 . S
H2021 C2030 0.930 . S
H2022 C2035 0.929 . S
H2023 C2033 0.929 . S
H2024 C2028 0.929 . S
H2025 C2034 0.929 . S
C2026 H2020 0.930 . S
C2026 C2027 1.367 . S
C2026 C2034 1.378 . S
C2027 C2026 1.367 . S
C2027 C2035 1.433 . S
C2028 H2024 0.929 . S
C2028 C2030 1.378 . S
C2028 C2032 1.350 . S
C2029 C2032 1.463 . S
C2029 C2034 1.350 . S
C2029 N2037 1.427 . S
C2030 H2021 0.930 . S
C2030 C2028 1.378 . S
C2030 C2031 1.367 . S
C2031 C2030 1.367 . S
C2031 C2033 1.433 . S
C2032 C2028 1.350 . S
C2032 C2029 1.463 . S
C2032 N2036 1.427 . S
C2033 H2023 0.929 . S
C2033 C2031 1.433 . S
C2033 N2036 1.384 . S
C2034 H2025 0.929 . S
C2034 C2026 1.378 . S
C2034 C2029 1.350 . S
C2035 H2022 0.929 . S
C2035 C2027 1.433 . S
C2035 N2037 1.384 . S
N2036 C2032 1.427 . S
N2036 C2033 1.384 . S
N2037 C2029 1.427 . S
N2037 C2035 1.384 . S
H2038 C2044 0.930 . S
H2039 C2048 0.930 1_455 S
H2040 C2053 0.929 . S
H2041 C2051 0.929 . S
H2042 C2046 0.929 . S
H2043 C2052 0.929 . S
C2044 H2038 0.930 . S
C2044 C2045 1.367 . S
C2044 C2052 1.378 . S
C2045 C2044 1.367 . S
C2045 C2053 1.433 . S
C2046 H2042 0.929 . S
C2046 C2048 1.378 . S
C2046 C2050 1.350 . S
C2047 C2050 1.463 . S
C2047 C2052 1.350 . S
C2047 N2055 1.427 . S
C2048 H2039 0.930 1_655 S
C2048 C2046 1.378 . S
C2048 C2049 1.367 . S
C2049 C2048 1.367 . S
C2049 C2051 1.433 . S
C2050 C2046 1.350 . S
C2050 C2047 1.463 . S
C2050 N2054 1.427 . S
C2051 H2041 0.929 . S
C2051 C2049 1.433 . S
C2051 N2054 1.384 . S
C2052 H2043 0.929 . S
C2052 C2044 1.378 . S
C2052 C2047 1.350 . S
C2053 H2040 0.929 . S
C2053 C2045 1.433 . S
C2053 N2055 1.384 . S
N2054 C2050 1.427 . S
N2054 C2051 1.384 . S
N2055 C2047 1.427 . S
N2055 C2053 1.384 . S
H2056 C2062 0.930 . S
H2057 C2066 0.930 . S
H2058 C2071 0.929 . S
H2059 C2069 0.929 . S
H2060 C2064 0.929 . S
H2061 C2070 0.929 . S
C2062 H2056 0.930 . S
C2062 C2063 1.367 . S
C2062 C2070 1.378 . S
C2063 C2062 1.367 . S
C2063 C2071 1.433 . S
C2064 H2060 0.929 . S
C2064 C2066 1.378 . S
C2064 C2068 1.350 . S
C2065 C2068 1.463 . S
C2065 C2070 1.350 . S
C2065 N2073 1.427 . S
C2066 H2057 0.930 . S
C2066 C2064 1.378 . S
C2066 C2067 1.367 . S
C2067 C2066 1.367 . S
C2067 C2069 1.433 . S
C2068 C2064 1.350 . S
C2068 C2065 1.463 . S
C2068 N2072 1.427 . S
C2069 H2059 0.929 . S
C2069 C2067 1.433 . S
C2069 N2072 1.384 . S
C2070 H2061 0.929 . S
C2070 C2062 1.378 . S
C2070 C2065 1.350 . S
C2071 H2058 0.929 . S
C2071 C2063 1.433 . S
C2071 N2073 1.384 . S
N2072 C2068 1.427 . S
N2072 C2069 1.384 . S
N2073 C2065 1.427 . S
N2073 C2071 1.384 . S
H2074 C2080 0.930 . S
H2075 C2084 0.930 . S
H2076 C2089 0.929 . S
H2077 C2087 0.929 . S
H2078 C2082 0.929 . S
H2079 C2088 0.929 . S
C2080 H2074 0.930 . S
C2080 C2081 1.367 . S
C2080 C2088 1.378 . S
C2081 C2080 1.367 . S
C2081 C2089 1.433 . S
C2082 H2078 0.929 . S
C2082 C2084 1.378 . S
C2082 C2086 1.350 . S
C2083 C2086 1.463 . S
C2083 C2088 1.350 . S
C2083 N2091 1.427 . S
C2084 H2075 0.930 . S
C2084 C2082 1.378 . S
C2084 C2085 1.367 . S
C2085 C2084 1.367 . S
C2085 C2087 1.433 . S
C2086 C2082 1.350 . S
C2086 C2083 1.463 . S
C2086 N2090 1.427 . S
C2087 H2077 0.929 . S
C2087 C2085 1.433 . S
C2087 N2090 1.384 . S
C2088 H2079 0.929 . S
C2088 C2080 1.378 . S
C2088 C2083 1.350 . S
C2089 H2076 0.929 . S
C2089 C2081 1.433 . S
C2089 N2091 1.384 . S
N2090 C2086 1.427 . S
N2090 C2087 1.384 . S
N2091 C2083 1.427 . S
N2091 C2089 1.384 . S
H2092 C2098 0.930 . S
H2093 C2102 0.930 . S
H2094 C2107 0.929 . S
H2095 C2105 0.929 . S
H2096 C2100 0.929 . S
H2097 C2106 0.929 . S
C2098 H2092 0.930 . S
C2098 C2099 1.367 . S
C2098 C2106 1.378 . S
C2099 C2098 1.367 . S
C2099 C2107 1.433 . S
C2100 H2096 0.929 . S
C2100 C2102 1.378 . S
C2100 C2104 1.350 . S
C2101 C2104 1.463 . S
C2101 C2106 1.350 . S
C2101 N2109 1.427 . S
C2102 H2093 0.930 . S
C2102 C2100 1.378 . S
C2102 C2103 1.367 . S
C2103 C2102 1.367 . S
C2103 C2105 1.433 . S
C2104 C2100 1.350 . S
C2104 C2101 1.463 . S
C2104 N2108 1.427 . S
C2105 H2095 0.929 . S
C2105 C2103 1.433 . S
C2105 N2108 1.384 . S
C2106 H2097 0.929 . S
C2106 C2098 1.378 . S
C2106 C2101 1.350 . S
C2107 H2094 0.929 . S
C2107 C2099 1.433 . S
C2107 N2109 1.384 . S
N2108 C2104 1.427 . S
N2108 C2105 1.384 . S
N2109 C2101 1.427 . S
N2109 C2107 1.384 . S
H2110 C2116 0.930 . S
H2111 C2120 0.930 . S
H2112 C2125 0.929 . S
H2113 C2123 0.929 . S
H2114 C2118 0.929 . S
H2115 C2124 0.929 . S
C2116 H2110 0.930 . S
C2116 C2117 1.367 . S
C2116 C2124 1.378 . S
C2117 C2116 1.367 . S
C2117 C2125 1.433 . S
C2118 H2114 0.929 . S
C2118 C2120 1.378 . S
C2118 C2122 1.350 . S
C2119 C2122 1.463 . S
C2119 C2124 1.350 . S
C2119 N2127 1.427 . S
C2120 H2111 0.930 . S
C2120 C2118 1.378 . S
C2120 C2121 1.367 . S
C2121 C2120 1.367 . S
C2121 C2123 1.433 . S
C2122 C2118 1.350 . S
C2122 C2119 1.463 . S
C2122 N2126 1.427 . S
C2123 H2113 0.929 . S
C2123 C2121 1.433 . S
C2123 N2126 1.384 . S
C2124 H2115 0.929 . S
C2124 C2116 1.378 . S
C2124 C2119 1.350 . S
C2125 H2112 0.929 . S
C2125 C2117 1.433 . S
C2125 N2127 1.384 . S
N2126 C2122 1.427 . S
N2126 C2123 1.384 . S
N2127 C2119 1.427 . S
N2127 C2125 1.384 . S
H2128 C2134 0.930 . S
H2129 C2138 0.930 . S
H2130 C2143 0.929 . S
H2131 C2141 0.929 . S
H2132 C2136 0.929 . S
H2133 C2142 0.929 . S
C2134 H2128 0.930 . S
C2134 C2135 1.367 . S
C2134 C2142 1.378 . S
C2135 C2134 1.367 . S
C2135 C2143 1.433 . S
C2136 H2132 0.929 . S
C2136 C2138 1.378 . S
C2136 C2140 1.350 . S
C2137 C2140 1.463 . S
C2137 C2142 1.350 . S
C2137 N2145 1.427 . S
C2138 H2129 0.930 . S
C2138 C2136 1.378 . S
C2138 C2139 1.367 . S
C2139 C2138 1.367 . S
C2139 C2141 1.433 . S
C2140 C2136 1.350 . S
C2140 C2137 1.463 . S
C2140 N2144 1.427 . S
C2141 H2131 0.929 . S
C2141 C2139 1.433 . S
C2141 N2144 1.384 . S
C2142 H2133 0.929 . S
C2142 C2134 1.378 . S
C2142 C2137 1.350 . S
C2143 H2130 0.929 . S
C2143 C2135 1.433 . S
C2143 N2145 1.384 . S
N2144 C2140 1.427 . S
N2144 C2141 1.384 . S
N2145 C2137 1.427 . S
N2145 C2143 1.384 . S
H2146 C2152 0.930 . S
H2147 C2156 0.930 . S
H2148 C2161 0.929 . S
H2149 C2159 0.929 . S
H2150 C2154 0.929 . S
H2151 C2160 0.929 . S
C2152 H2146 0.930 . S
C2152 C2153 1.367 . S
C2152 C2160 1.378 . S
C2153 C2152 1.367 . S
C2153 C2161 1.433 . S
C2154 H2150 0.929 . S
C2154 C2156 1.378 . S
C2154 C2158 1.350 . S
C2155 C2158 1.463 . S
C2155 C2160 1.350 . S
C2155 N2163 1.427 . S
C2156 H2147 0.930 . S
C2156 C2154 1.378 . S
C2156 C2157 1.367 . S
C2157 C2156 1.367 . S
C2157 C2159 1.433 . S
C2158 C2154 1.350 . S
C2158 C2155 1.463 . S
C2158 N2162 1.427 . S
C2159 H2149 0.929 . S
C2159 C2157 1.433 . S
C2159 N2162 1.384 . S
C2160 H2151 0.929 . S
C2160 C2152 1.378 . S
C2160 C2155 1.350 . S
C2161 H2148 0.929 . S
C2161 C2153 1.433 . S
C2161 N2163 1.384 . S
N2162 C2158 1.427 . S
N2162 C2159 1.384 . S
N2163 C2155 1.427 . S
N2163 C2161 1.384 . S
H2164 C2170 0.930 . S
H2165 C2174 0.930 . S
H2166 C2179 0.929 . S
H2167 C2177 0.929 . S
H2168 C2172 0.929 . S
H2169 C2178 0.929 . S
C2170 H2164 0.930 . S
C2170 C2171 1.367 . S
C2170 C2178 1.378 . S
C2171 C2170 1.367 . S
C2171 C2179 1.433 . S
C2172 H2168 0.929 . S
C2172 C2174 1.378 . S
C2172 C2176 1.350 . S
C2173 C2176 1.463 . S
C2173 C2178 1.350 . S
C2173 N2181 1.427 . S
C2174 H2165 0.930 . S
C2174 C2172 1.378 . S
C2174 C2175 1.367 . S
C2175 C2174 1.367 . S
C2175 C2177 1.433 . S
C2176 C2172 1.350 . S
C2176 C2173 1.463 . S
C2176 N2180 1.427 . S
C2177 H2167 0.929 . S
C2177 C2175 1.433 . S
C2177 N2180 1.384 . S
C2178 H2169 0.929 . S
C2178 C2170 1.378 . S
C2178 C2173 1.350 . S
C2179 H2166 0.929 . S
C2179 C2171 1.433 . S
C2179 N2181 1.384 . S
N2180 C2176 1.427 . S
N2180 C2177 1.384 . S
N2181 C2173 1.427 . S
N2181 C2179 1.384 . S
H2182 C2188 0.930 . S
H2183 C2192 0.930 . S
H2184 C2197 0.929 . S
H2185 C2195 0.929 . S
H2186 C2190 0.929 . S
H2187 C2196 0.929 . S
C2188 H2182 0.930 . S
C2188 C2189 1.367 . S
C2188 C2196 1.378 . S
C2189 C2188 1.367 . S
C2189 C2197 1.433 . S
C2190 H2186 0.929 . S
C2190 C2192 1.378 . S
C2190 C2194 1.350 . S
C2191 C2194 1.463 . S
C2191 C2196 1.350 . S
C2191 N2199 1.427 . S
C2192 H2183 0.930 . S
C2192 C2190 1.378 . S
C2192 C2193 1.367 . S
C2193 C2192 1.367 . S
C2193 C2195 1.433 . S
C2194 C2190 1.350 . S
C2194 C2191 1.463 . S
C2194 N2198 1.427 . S
C2195 H2185 0.929 . S
C2195 C2193 1.433 . S
C2195 N2198 1.384 . S
C2196 H2187 0.929 . S
C2196 C2188 1.378 . S
C2196 C2191 1.350 . S
C2197 H2184 0.929 . S
C2197 C2189 1.433 . S
C2197 N2199 1.384 . S
N2198 C2194 1.427 . S
N2198 C2195 1.384 . S
N2199 C2191 1.427 . S
N2199 C2197 1.384 . S
H2200 C2206 0.930 . S
H2201 C2210 0.930 . S
H2202 C2215 0.929 . S
H2203 C2213 0.929 . S
H2204 C2208 0.929 . S
H2205 C2214 0.929 . S
C2206 H2200 0.930 . S
C2206 C2207 1.367 . S
C2206 C2214 1.378 . S
C2207 C2206 1.367 . S
C2207 C2215 1.433 . S
C2208 H2204 0.929 . S
C2208 C2210 1.378 . S
C2208 C2212 1.350 . S
C2209 C2212 1.463 . S
C2209 C2214 1.350 . S
C2209 N2217 1.427 . S
C2210 H2201 0.930 . S
C2210 C2208 1.378 . S
C2210 C2211 1.367 . S
C2211 C2210 1.367 . S
C2211 C2213 1.433 . S
C2212 C2208 1.350 . S
C2212 C2209 1.463 . S
C2212 N2216 1.427 . S
C2213 H2203 0.929 . S
C2213 C2211 1.433 . S
C2213 N2216 1.384 . S
C2214 H2205 0.929 . S
C2214 C2206 1.378 . S
C2214 C2209 1.350 . S
C2215 H2202 0.929 . S
C2215 C2207 1.433 . S
C2215 N2217 1.384 . S
N2216 C2212 1.427 . S
N2216 C2213 1.384 . S
N2217 C2209 1.427 . S
N2217 C2215 1.384 . S
H2218 C2224 0.930 . S
H2219 C2228 0.930 . S
H2220 C2233 0.929 . S
H2221 C2231 0.929 . S
H2222 C2226 0.929 . S
H2223 C2232 0.929 . S
C2224 H2218 0.930 . S
C2224 C2225 1.367 . S
C2224 C2232 1.378 . S
C2225 C2224 1.367 . S
C2225 C2233 1.433 . S
C2226 H2222 0.929 . S
C2226 C2228 1.378 . S
C2226 C2230 1.350 . S
C2227 C2230 1.463 . S
C2227 C2232 1.350 . S
C2227 N2235 1.427 . S
C2228 H2219 0.930 . S
C2228 C2226 1.378 . S
C2228 C2229 1.367 . S
C2229 C2228 1.367 . S
C2229 C2231 1.433 . S
C2230 C2226 1.350 . S
C2230 C2227 1.463 . S
C2230 N2234 1.427 . S
C2231 H2221 0.929 . S
C2231 C2229 1.433 . S
C2231 N2234 1.384 . S
C2232 H2223 0.929 . S
C2232 C2224 1.378 . S
C2232 C2227 1.350 . S
C2233 H2220 0.929 . S
C2233 C2225 1.433 . S
C2233 N2235 1.384 . S
N2234 C2230 1.427 . S
N2234 C2231 1.384 . S
N2235 C2227 1.427 . S
N2235 C2233 1.384 . S
H2236 C2242 0.930 . S
H2237 C2246 0.930 . S
H2238 C2251 0.929 . S
H2239 C2249 0.929 . S
H2240 C2244 0.929 . S
H2241 C2250 0.929 . S
C2242 H2236 0.930 . S
C2242 C2243 1.367 . S
C2242 C2250 1.378 . S
C2243 C2242 1.367 . S
C2243 C2251 1.433 . S
C2244 H2240 0.929 . S
C2244 C2246 1.378 . S
C2244 C2248 1.350 . S
C2245 C2248 1.463 . S
C2245 C2250 1.350 . S
C2245 N2253 1.427 . S
C2246 H2237 0.930 . S
C2246 C2244 1.378 . S
C2246 C2247 1.367 . S
C2247 C2246 1.367 . S
C2247 C2249 1.433 . S
C2248 C2244 1.350 . S
C2248 C2245 1.463 . S
C2248 N2252 1.427 . S
C2249 H2239 0.929 . S
C2249 C2247 1.433 . S
C2249 N2252 1.384 . S
C2250 H2241 0.929 . S
C2250 C2242 1.378 . S
C2250 C2245 1.350 . S
C2251 H2238 0.929 . S
C2251 C2243 1.433 . S
C2251 N2253 1.384 . S
N2252 C2248 1.427 . S
N2252 C2249 1.384 . S
N2253 C2245 1.427 . S
N2253 C2251 1.384 . S
H2254 C2260 0.930 . S
H2255 C2264 0.930 . S
H2256 C2269 0.929 . S
H2257 C2267 0.929 . S
H2258 C2262 0.929 . S
H2259 C2268 0.929 . S
C2260 H2254 0.930 . S
C2260 C2261 1.367 . S
C2260 C2268 1.378 . S
C2261 C2260 1.367 . S
C2261 C2269 1.433 . S
C2262 H2258 0.929 . S
C2262 C2264 1.378 . S
C2262 C2266 1.350 . S
C2263 C2266 1.463 . S
C2263 C2268 1.350 . S
C2263 N2271 1.427 . S
C2264 H2255 0.930 . S
C2264 C2262 1.378 . S
C2264 C2265 1.367 . S
C2265 C2264 1.367 . S
C2265 C2267 1.433 . S
C2266 C2262 1.350 . S
C2266 C2263 1.463 . S
C2266 N2270 1.427 . S
C2267 H2257 0.929 . S
C2267 C2265 1.433 . S
C2267 N2270 1.384 . S
C2268 H2259 0.929 . S
C2268 C2260 1.378 . S
C2268 C2263 1.350 . S
C2269 H2256 0.929 . S
C2269 C2261 1.433 . S
C2269 N2271 1.384 . S
N2270 C2266 1.427 . S
N2270 C2267 1.384 . S
N2271 C2263 1.427 . S
N2271 C2269 1.384 . S
H2272 C2278 0.930 . S
H2273 C2282 0.930 . S
H2274 C2287 0.929 . S
H2275 C2285 0.929 . S
H2276 C2280 0.929 . S
H2277 C2286 0.929 . S
C2278 H2272 0.930 . S
C2278 C2279 1.367 . S
C2278 C2286 1.378 . S
C2279 C2278 1.367 . S
C2279 C2287 1.433 . S
C2280 H2276 0.929 . S
C2280 C2282 1.378 . S
C2280 C2284 1.350 . S
C2281 C2284 1.463 . S
C2281 C2286 1.350 . S
C2281 N2289 1.427 . S
C2282 H2273 0.930 . S
C2282 C2280 1.378 . S
C2282 C2283 1.367 . S
C2283 C2282 1.367 . S
C2283 C2285 1.433 . S
C2284 C2280 1.350 . S
C2284 C2281 1.463 . S
C2284 N2288 1.427 . S
C2285 H2275 0.929 . S
C2285 C2283 1.433 . S
C2285 N2288 1.384 . S
C2286 H2277 0.929 . S
C2286 C2278 1.378 . S
C2286 C2281 1.350 . S
C2287 H2274 0.929 . S
C2287 C2279 1.433 . S
C2287 N2289 1.384 . S
N2288 C2284 1.427 . S
N2288 C2285 1.384 . S
N2289 C2281 1.427 . S
N2289 C2287 1.384 . S
H2290 C2296 0.930 . S
H2291 C2300 0.930 . S
H2292 C2305 0.929 . S
H2293 C2303 0.929 . S
H2294 C2298 0.929 . S
H2295 C2304 0.929 . S
C2296 H2290 0.930 . S
C2296 C2297 1.367 . S
C2296 C2304 1.378 . S
C2297 C2296 1.367 . S
C2297 C2305 1.433 . S
C2298 H2294 0.929 . S
C2298 C2300 1.378 . S
C2298 C2302 1.350 . S
C2299 C2302 1.463 . S
C2299 C2304 1.350 . S
C2299 N2307 1.427 . S
C2300 H2291 0.930 . S
C2300 C2298 1.378 . S
C2300 C2301 1.367 . S
C2301 C2300 1.367 . S
C2301 C2303 1.433 . S
C2302 C2298 1.350 . S
C2302 C2299 1.463 . S
C2302 N2306 1.427 . S
C2303 H2293 0.929 . S
C2303 C2301 1.433 . S
C2303 N2306 1.384 . S
C2304 H2295 0.929 . S
C2304 C2296 1.378 . S
C2304 C2299 1.350 . S
C2305 H2292 0.929 . S
C2305 C2297 1.433 . S
C2305 N2307 1.384 . S
N2306 C2302 1.427 . S
N2306 C2303 1.384 . S
N2307 C2299 1.427 . S
N2307 C2305 1.384 . S
H2308 C2314 0.930 . S
H2309 C2318 0.930 . S
H2310 C2323 0.929 . S
H2311 C2321 0.929 . S
H2312 C2316 0.929 . S
H2313 C2322 0.929 . S
C2314 H2308 0.930 . S
C2314 C2315 1.367 . S
C2314 C2322 1.378 . S
C2315 C2314 1.367 . S
C2315 C2323 1.433 . S
C2316 H2312 0.929 . S
C2316 C2318 1.378 . S
C2316 C2320 1.350 . S
C2317 C2320 1.463 . S
C2317 C2322 1.350 . S
C2317 N2325 1.427 . S
C2318 H2309 0.930 . S
C2318 C2316 1.378 . S
C2318 C2319 1.367 . S
C2319 C2318 1.367 . S
C2319 C2321 1.433 . S
C2320 C2316 1.350 . S
C2320 C2317 1.463 . S
C2320 N2324 1.427 . S
C2321 H2311 0.929 . S
C2321 C2319 1.433 . S
C2321 N2324 1.384 . S
C2322 H2313 0.929 . S
C2322 C2314 1.378 . S
C2322 C2317 1.350 . S
C2323 H2310 0.929 . S
C2323 C2315 1.433 . S
C2323 N2325 1.384 . S
N2324 C2320 1.427 . S
N2324 C2321 1.384 . S
N2325 C2317 1.427 . S
N2325 C2323 1.384 . S
H2326 C2332 0.930 . S
H2327 C2336 0.930 . S
H2328 C2341 0.929 . S
H2329 C2339 0.929 . S
H2330 C2334 0.929 . S
H2331 C2340 0.929 . S
C2332 H2326 0.930 . S
C2332 C2333 1.367 . S
C2332 C2340 1.378 . S
C2333 C2332 1.367 . S
C2333 C2341 1.433 . S
C2334 H2330 0.929 . S
C2334 C2336 1.378 . S
C2334 C2338 1.350 . S
C2335 C2338 1.463 . S
C2335 C2340 1.350 . S
C2335 N2343 1.427 . S
C2336 H2327 0.930 . S
C2336 C2334 1.378 . S
C2336 C2337 1.367 . S
C2337 C2336 1.367 . S
C2337 C2339 1.433 . S
C2338 C2334 1.350 . S
C2338 C2335 1.463 . S
C2338 N2342 1.427 . S
C2339 H2329 0.929 . S
C2339 C2337 1.433 . S
C2339 N2342 1.384 . S
C2340 H2331 0.929 . S
C2340 C2332 1.378 . S
C2340 C2335 1.350 . S
C2341 H2328 0.929 . S
C2341 C2333 1.433 . S
C2341 N2343 1.384 . S
N2342 C2338 1.427 . S
N2342 C2339 1.384 . S
N2343 C2335 1.427 . S
N2343 C2341 1.384 . S
H2344 C2350 0.930 . S
H2345 C2354 0.930 . S
H2346 C2359 0.929 . S
H2347 C2357 0.929 1_565 S
H2348 C2352 0.929 . S
H2349 C2358 0.929 . S
C2350 H2344 0.930 . S
C2350 C2351 1.367 . S
C2350 C2358 1.378 . S
C2351 C2350 1.367 . S
C2351 C2359 1.433 . S
C2352 H2348 0.929 . S
C2352 C2354 1.378 . S
C2352 C2356 1.350 . S
C2353 C2356 1.463 . S
C2353 C2358 1.350 . S
C2353 N2361 1.427 . S
C2354 H2345 0.930 . S
C2354 C2352 1.378 . S
C2354 C2355 1.367 . S
C2355 C2354 1.367 . S
C2355 C2357 1.433 . S
C2356 C2352 1.350 . S
C2356 C2353 1.463 . S
C2356 N2360 1.427 . S
C2357 H2347 0.929 1_545 S
C2357 C2355 1.433 . S
C2357 N2360 1.384 . S
C2358 H2349 0.929 . S
C2358 C2350 1.378 . S
C2358 C2353 1.350 . S
C2359 H2346 0.929 . S
C2359 C2351 1.433 . S
C2359 N2361 1.384 . S
N2360 C2356 1.427 . S
N2360 C2357 1.384 . S
N2361 C2353 1.427 . S
N2361 C2359 1.384 . S
H2362 C2368 0.930 . S
H2363 C2372 0.930 . S
H2364 C2377 0.929 . S
H2365 C2375 0.929 . S
H2366 C2370 0.929 . S
H2367 C2376 0.929 . S
C2368 H2362 0.930 . S
C2368 C2369 1.367 . S
C2368 C2376 1.378 . S
C2369 C2368 1.367 . S
C2369 C2377 1.433 . S
C2370 H2366 0.929 . S
C2370 C2372 1.378 . S
C2370 C2374 1.350 . S
C2371 C2374 1.463 . S
C2371 C2376 1.350 . S
C2371 N2379 1.427 . S
C2372 H2363 0.930 . S
C2372 C2370 1.378 . S
C2372 C2373 1.367 . S
C2373 C2372 1.367 . S
C2373 C2375 1.433 . S
C2374 C2370 1.350 . S
C2374 C2371 1.463 . S
C2374 N2378 1.427 . S
C2375 H2365 0.929 . S
C2375 C2373 1.433 . S
C2375 N2378 1.384 . S
C2376 H2367 0.929 . S
C2376 C2368 1.378 . S
C2376 C2371 1.350 . S
C2377 H2364 0.929 . S
C2377 C2369 1.433 . S
C2377 N2379 1.384 . S
N2378 C2374 1.427 . S
N2378 C2375 1.384 . S
N2379 C2371 1.427 . S
N2379 C2377 1.384 . S
H2380 C2386 0.930 . S
H2381 C2390 0.930 1_545 S
H2382 C2395 0.929 . S
H2383 C2393 0.929 . S
H2384 C2388 0.929 . S
H2385 C2394 0.929 . S
C2386 H2380 0.930 . S
C2386 C2387 1.367 . S
C2386 C2394 1.378 . S
C2387 C2386 1.367 . S
C2387 C2395 1.433 . S
C2388 H2384 0.929 . S
C2388 C2390 1.378 . S
C2388 C2392 1.350 . S
C2389 C2392 1.463 . S
C2389 C2394 1.350 . S
C2389 N2397 1.427 . S
C2390 H2381 0.930 1_565 S
C2390 C2388 1.378 . S
C2390 C2391 1.367 . S
C2391 C2390 1.367 . S
C2391 C2393 1.433 . S
C2392 C2388 1.350 . S
C2392 C2389 1.463 . S
C2392 N2396 1.427 . S
C2393 H2383 0.929 . S
C2393 C2391 1.433 . S
C2393 N2396 1.384 . S
C2394 H2385 0.929 . S
C2394 C2386 1.378 . S
C2394 C2389 1.350 . S
C2395 H2382 0.929 . S
C2395 C2387 1.433 . S
C2395 N2397 1.384 . S
N2396 C2392 1.427 . S
N2396 C2393 1.384 . S
N2397 C2389 1.427 . S
N2397 C2395 1.384 . S
H2398 C2404 0.930 . S
H2399 C2408 0.930 . S
H2400 C2413 0.929 . S
H2401 C2411 0.929 . S
H2402 C2406 0.929 . S
H2403 C2412 0.929 . S
C2404 H2398 0.930 . S
C2404 C2405 1.367 . S
C2404 C2412 1.378 . S
C2405 C2404 1.367 . S
C2405 C2413 1.433 . S
C2406 H2402 0.929 . S
C2406 C2408 1.378 . S
C2406 C2410 1.350 . S
C2407 C2410 1.463 . S
C2407 C2412 1.350 . S
C2407 N2415 1.427 . S
C2408 H2399 0.930 . S
C2408 C2406 1.378 . S
C2408 C2409 1.367 . S
C2409 C2408 1.367 . S
C2409 C2411 1.433 . S
C2410 C2406 1.350 . S
C2410 C2407 1.463 . S
C2410 N2414 1.427 . S
C2411 H2401 0.929 . S
C2411 C2409 1.433 . S
C2411 N2414 1.384 . S
C2412 H2403 0.929 . S
C2412 C2404 1.378 . S
C2412 C2407 1.350 . S
C2413 H2400 0.929 . S
C2413 C2405 1.433 . S
C2413 N2415 1.384 . S
N2414 C2410 1.427 . S
N2414 C2411 1.384 . S
N2415 C2407 1.427 . S
N2415 C2413 1.384 . S
H2416 C2422 0.930 . S
H2417 C2426 0.930 1_545 S
H2418 C2431 0.929 . S
H2419 C2429 0.929 . S
H2420 C2424 0.929 . S
H2421 C2430 0.929 . S
C2422 H2416 0.930 . S
C2422 C2423 1.367 . S
C2422 C2430 1.378 . S
C2423 C2422 1.367 . S
C2423 C2431 1.433 . S
C2424 H2420 0.929 . S
C2424 C2426 1.378 . S
C2424 C2428 1.350 . S
C2425 C2428 1.463 . S
C2425 C2430 1.350 . S
C2425 N2433 1.427 . S
C2426 H2417 0.930 1_565 S
C2426 C2424 1.378 . S
C2426 C2427 1.367 . S
C2427 C2426 1.367 . S
C2427 C2429 1.433 . S
C2428 C2424 1.350 . S
C2428 C2425 1.463 . S
C2428 N2432 1.427 . S
C2429 H2419 0.929 . S
C2429 C2427 1.433 . S
C2429 N2432 1.384 . S
C2430 H2421 0.929 . S
C2430 C2422 1.378 . S
C2430 C2425 1.350 . S
C2431 H2418 0.929 . S
C2431 C2423 1.433 . S
C2431 N2433 1.384 . S
N2432 C2428 1.427 . S
N2432 C2429 1.384 . S
N2433 C2425 1.427 . S
N2433 C2431 1.384 . S
H2434 C2440 0.930 . S
H2435 C2444 0.930 . S
H2436 C2449 0.929 . S
H2437 C2447 0.929 . S
H2438 C2442 0.929 . S
H2439 C2448 0.929 . S
C2440 H2434 0.930 . S
C2440 C2441 1.367 . S
C2440 C2448 1.378 . S
C2441 C2440 1.367 . S
C2441 C2449 1.433 . S
C2442 H2438 0.929 . S
C2442 C2444 1.378 . S
C2442 C2446 1.350 . S
C2443 C2446 1.463 . S
C2443 C2448 1.350 . S
C2443 N2451 1.427 . S
C2444 H2435 0.930 . S
C2444 C2442 1.378 . S
C2444 C2445 1.367 . S
C2445 C2444 1.367 . S
C2445 C2447 1.433 . S
C2446 C2442 1.350 . S
C2446 C2443 1.463 . S
C2446 N2450 1.427 . S
C2447 H2437 0.929 . S
C2447 C2445 1.433 . S
C2447 N2450 1.384 . S
C2448 H2439 0.929 . S
C2448 C2440 1.378 . S
C2448 C2443 1.350 . S
C2449 H2436 0.929 . S
C2449 C2441 1.433 . S
C2449 N2451 1.384 . S
N2450 C2446 1.427 . S
N2450 C2447 1.384 . S
N2451 C2443 1.427 . S
N2451 C2449 1.384 . S
C735 C381 1.143 . S
C731 C241 1.212 . S
C753 C384 1.480 . S
C749 C272 1.588 . S
C771 C372 1.039 . S
C767 C249 1.077 . S
C785 C206 1.757 . S
C789 C385 1.634 . S
C807 C416 1.145 . S
C803 C125 1.214 . S
C821 C142 1.772 . S
C825 C443 1.643 . S
C843 C415 1.040 . S
C839 C169 1.081 . S
C857 C103 1.645 . S
C861 C434 1.539 . S
C875 C315 1.226 . S
C879 C447 1.159 . S
C893 C338 1.712 . S
C897 C478 1.579 . S
C915 C536 1.178 . S
C911 C183 1.227 . S
C933 C558 1.586 . S
C929 C293 1.684 . S
C951 C446 1.023 . S
C947 C87 1.075 . S
C969 C477 1.572 . S
C965 C21 1.672 . S
C983 C43 1.066 . S
C987 C527 1.014 . S
C1001 C65 1.750 . S
C1005 C567 1.631 . S
C1019 C37 1.231 . S
C1023 C505 1.178 . S
C1041 C571 1.200 . S
C1037 C197 1.250 . S
C1055 C307 1.778 . S
C1059 C602 1.662 . S
C1077 C651 1.029 . S
C1073 C329 1.057 . S
C1091 C150 1.746 . S
C1095 C509 1.612 . S
C1113 C570 1.008 . S
C1109 C227 1.047 . S
C1131 C601 1.498 . S
C1127 C274 1.608 . S
C1149 C682 1.525 . S
C1145 C208 1.633 . S
C1163 C73 1.195 . S
C1167 C412 1.146 . S
C1181 C7 1.624 . S
C1185 C353 1.534 . S
C1203 C403 1.036 . S
C1199 C29 1.083 . S
C1217 C51 1.779 . S
C1221 C354 1.654 . S
C1235 C323 1.219 . S
C1239 C695 1.174 . S
C1253 C340 1.762 . S
C1257 C722 1.620 . S
C1275 C694 1.056 . S
C1271 C191 1.089 . S
C1289 C301 1.642 . S
C1293 C713 1.544 . S
C1307 C117 1.219 . S
C1311 C629 1.148 . S
C1329 C633 1.588 . S
C1325 C140 1.718 . S
C1347 C664 1.166 . S
C1343 C161 1.218 . S
C1365 C589 1.584 . S
C1361 C95 1.686 . S
C1383 C620 1.034 . S
C1379 C235 1.077 . S
C1397 C282 1.633 . S
C1401 C632 1.520 . S
C1415 C263 1.054 . S
C1419 C663 1.023 . S
C1437 C598 1.585 . S
C1433 C216 1.714 . S
C1451 C257 1.231 . S
C1455 C660 1.159 . S
C1473 C540 1.179 . S
C1469 C175 1.246 . S
C1487 C109 1.762 . S
C1491 C474 1.650 . S
C1505 C131 1.062 . S
C1509 C496 1.034 . S
C1523 C348 1.761 . S
C1527 C691 1.629 . S
C1541 C81 1.045 . S
C1545 C539 1.014 . S
C1559 C15 1.636 . S
C1563 C465 1.534 . S
C1581 C508 1.550 . S
C1577 C59 1.655 . S
C1599 C352 1.489 . S
C1595 C351 1.449 . S
C1617 C402 1.899 . S
C1613 C194 1.879 . S
C1635 C362 1.281 . S
C1631 C304 1.331 . S
C1653 C413 1.749 . S
C1649 C326 1.777 1_565 S
C1671 C433 1.465 . S
C1667 C205 1.411 . S
C1685 C230 1.758 . S
C1689 C424 1.724 . S
C1703 C271 1.349 . S
C1707 C444 1.322 . S
C1721 C250 1.840 1_565 S
C1725 C414 1.852 . S
C1743 C464 1.411 . S
C1739 C62 1.374 . S
C1761 C506 1.733 . S
C1757 C84 1.759 . S
C1775 C18 1.365 . S
C1779 C507 1.394 . S
C1797 C538 1.857 . S
C1793 C40 1.841 . S
C1811 C147 1.384 . S
C1815 C475 1.353 . S
C1833 C495 1.877 . S
C1829 C164 1.859 1_455 S
C1851 C517 1.284 . S
C1847 C98 1.336 . S
C1865 C120 1.783 1_655 S
C1869 C548 1.765 . S
C1887 C476 1.357 . S
C1883 C96 1.323 . S
C1901 C10 1.335 . S
C1905 C588 1.367 . S
C1919 C32 1.759 1_556 S
C1923 C630 1.735 . S
C1937 C54 1.392 . S
C1941 C641 1.344 . S
C1959 C537 1.774 . S
C1955 C238 1.800 . S
C1977 C599 1.369 . S
C1973 C337 1.406 . S
C1991 C184 1.839 . S
C1995 C619 1.863 . S
C2013 C662 1.879 . S
C2009 C316 1.875 . S
C2031 C383 1.489 . S
C2027 C153 1.451 . S
C2045 C172 1.877 1_545 S
C2049 C371 1.895 . S
C2063 C106 1.331 . S
C2067 C393 1.282 . S
C2081 C128 1.780 . S
C2085 C382 1.759 . S
C2103 C712 1.402 . S
C2099 C52 1.375 . S
C2121 C703 1.741 . S
C2117 C74 1.767 1_545 S
C2135 C8 1.310 . S
C2139 C723 1.265 . S
C2153 C30 1.837 . S
C2157 C693 1.858 . S
C2171 C219 1.413 . S
C2175 C600 1.465 . S
C2193 C661 1.723 . S
C2189 C228 1.751 1_655 S
C2211 C681 1.444 . S
C2207 C285 1.401 . S
C2225 C260 1.824 1_455 S
C2229 C569 1.845 . S
C2247 C610 1.350 . S
C2243 C345 1.382 . S
C2261 C186 1.882 . S
C2265 C650 1.893 . S
C2283 C692 1.306 . S
C2279 C296 1.352 . S
C2297 C318 1.809 . S
C2301 C579 1.783 . S
C2315 C294 1.324 . S
C2319 C631 1.351 . S
C2333 C279 1.365 . S
C2337 C557 1.413 . S
C2355 C455 1.751 . S
C2351 C252 1.767 . S
C2369 C213 1.423 . S
C2373 C486 1.396 . S
C2387 C76 1.791 1_556 S
C2391 C672 1.760 . S
C2405 C139 1.428 . S
C2409 C568 1.394 . S
C2427 C445 1.839 . S
C2423 C162 1.833 1_554 S
C2441 C118 1.858 1_554 S
C2445 C526 1.864 . S
