# Generated by pormake.
# Topology gar, (4,6)-cn, num edge types: 1
# Building blocks:
#     Node 0, Type 0, BuildingBlock: CEKHIL_clean_sbu_0, # of connection points: 4
#     Node 1, Type 0, BuildingBlock: CEKHIL_clean_sbu_0, # of connection points: 4
#     Node 2, Type 0, BuildingBlock: CEKHIL_clean_sbu_0, # of connection points: 4
#     Node 3, Type 0, BuildingBlock: CEKHIL_clean_sbu_0, # of connection points: 4
#     Node 4, Type 0, BuildingBlock: CEKHIL_clean_sbu_0, # of connection points: 4
#     Node 5, Type 0, BuildingBlock: CEKHIL_clean_sbu_0, # of connection points: 4
#     Node 6, Type 0, BuildingBlock: CEKHIL_clean_sbu_0, # of connection points: 4
#     Node 7, Type 0, BuildingBlock: CEKHIL_clean_sbu_0, # of connection points: 4
#     Node 8, Type 0, BuildingBlock: CEKHIL_clean_sbu_0, # of connection points: 4
#     Node 9, Type 0, BuildingBlock: CEKHIL_clean_sbu_0, # of connection points: 4
#     Node 10, Type 0, BuildingBlock: CEKHIL_clean_sbu_0, # of connection points: 4
#     Node 11, Type 0, BuildingBlock: CEKHIL_clean_sbu_0, # of connection points: 4
#     Node 12, Type 0, BuildingBlock: CEKHIL_clean_sbu_0, # of connection points: 4
#     Node 13, Type 0, BuildingBlock: CEKHIL_clean_sbu_0, # of connection points: 4
#     Node 14, Type 0, BuildingBlock: CEKHIL_clean_sbu_0, # of connection points: 4
#     Node 15, Type 0, BuildingBlock: CEKHIL_clean_sbu_0, # of connection points: 4
#     Node 16, Type 0, BuildingBlock: CEKHIL_clean_sbu_0, # of connection points: 4
#     Node 17, Type 0, BuildingBlock: CEKHIL_clean_sbu_0, # of connection points: 4
#     Node 18, Type 0, BuildingBlock: CEKHIL_clean_sbu_0, # of connection points: 4
#     Node 19, Type 0, BuildingBlock: CEKHIL_clean_sbu_0, # of connection points: 4
#     Node 20, Type 0, BuildingBlock: CEKHIL_clean_sbu_0, # of connection points: 4
#     Node 21, Type 0, BuildingBlock: CEKHIL_clean_sbu_0, # of connection points: 4
#     Node 22, Type 0, BuildingBlock: CEKHIL_clean_sbu_0, # of connection points: 4
#     Node 23, Type 0, BuildingBlock: CEKHIL_clean_sbu_0, # of connection points: 4
#     Node 24, Type 1, BuildingBlock: CUWYAW_clean_sbu_0, # of connection points: 6
#     Node 25, Type 1, BuildingBlock: CUWYAW_clean_sbu_0, # of connection points: 6
#     Node 26, Type 1, BuildingBlock: CUWYAW_clean_sbu_0, # of connection points: 6
#     Node 27, Type 1, BuildingBlock: CUWYAW_clean_sbu_0, # of connection points: 6
#     Node 28, Type 1, BuildingBlock: CUWYAW_clean_sbu_0, # of connection points: 6
#     Node 29, Type 1, BuildingBlock: CUWYAW_clean_sbu_0, # of connection points: 6
#     Node 30, Type 1, BuildingBlock: CUWYAW_clean_sbu_0, # of connection points: 6
#     Node 31, Type 1, BuildingBlock: CUWYAW_clean_sbu_0, # of connection points: 6
#     Node 32, Type 1, BuildingBlock: CUWYAW_clean_sbu_0, # of connection points: 6
#     Node 33, Type 1, BuildingBlock: CUWYAW_clean_sbu_0, # of connection points: 6
#     Node 34, Type 1, BuildingBlock: CUWYAW_clean_sbu_0, # of connection points: 6
#     Node 35, Type 1, BuildingBlock: CUWYAW_clean_sbu_0, # of connection points: 6
#     Node 36, Type 1, BuildingBlock: CUWYAW_clean_sbu_0, # of connection points: 6
#     Node 37, Type 1, BuildingBlock: CUWYAW_clean_sbu_0, # of connection points: 6
#     Node 38, Type 1, BuildingBlock: CUWYAW_clean_sbu_0, # of connection points: 6
#     Node 39, Type 1, BuildingBlock: CUWYAW_clean_sbu_0, # of connection points: 6
#     Edge 40, Type (0, 1), BuildingBlock: EZIPEK_clean_linker_0, # of connection points: 2
#     Edge 41, Type (0, 1), BuildingBlock: EZIPEK_clean_linker_0, # of connection points: 2
#     Edge 42, Type (0, 1), BuildingBlock: EZIPEK_clean_linker_0, # of connection points: 2
#     Edge 43, Type (0, 1), BuildingBlock: EZIPEK_clean_linker_0, # of connection points: 2
#     Edge 44, Type (0, 1), BuildingBlock: EZIPEK_clean_linker_0, # of connection points: 2
#     Edge 45, Type (0, 1), BuildingBlock: EZIPEK_clean_linker_0, # of connection points: 2
#     Edge 46, Type (0, 1), BuildingBlock: EZIPEK_clean_linker_0, # of connection points: 2
#     Edge 47, Type (0, 1), BuildingBlock: EZIPEK_clean_linker_0, # of connection points: 2
#     Edge 48, Type (0, 1), BuildingBlock: EZIPEK_clean_linker_0, # of connection points: 2
#     Edge 49, Type (0, 1), BuildingBlock: EZIPEK_clean_linker_0, # of connection points: 2
#     Edge 50, Type (0, 1), BuildingBlock: EZIPEK_clean_linker_0, # of connection points: 2
#     Edge 51, Type (0, 1), BuildingBlock: EZIPEK_clean_linker_0, # of connection points: 2
#     Edge 52, Type (0, 1), BuildingBlock: EZIPEK_clean_linker_0, # of connection points: 2
#     Edge 53, Type (0, 1), BuildingBlock: EZIPEK_clean_linker_0, # of connection points: 2
#     Edge 54, Type (0, 1), BuildingBlock: EZIPEK_clean_linker_0, # of connection points: 2
#     Edge 55, Type (0, 1), BuildingBlock: EZIPEK_clean_linker_0, # of connection points: 2
#     Edge 56, Type (0, 1), BuildingBlock: EZIPEK_clean_linker_0, # of connection points: 2
#     Edge 57, Type (0, 1), BuildingBlock: EZIPEK_clean_linker_0, # of connection points: 2
#     Edge 58, Type (0, 1), BuildingBlock: EZIPEK_clean_linker_0, # of connection points: 2
#     Edge 59, Type (0, 1), BuildingBlock: EZIPEK_clean_linker_0, # of connection points: 2
#     Edge 60, Type (0, 1), BuildingBlock: EZIPEK_clean_linker_0, # of connection points: 2
#     Edge 61, Type (0, 1), BuildingBlock: EZIPEK_clean_linker_0, # of connection points: 2
#     Edge 62, Type (0, 1), BuildingBlock: EZIPEK_clean_linker_0, # of connection points: 2
#     Edge 63, Type (0, 1), BuildingBlock: EZIPEK_clean_linker_0, # of connection points: 2
#     Edge 64, Type (0, 1), BuildingBlock: EZIPEK_clean_linker_0, # of connection points: 2
#     Edge 65, Type (0, 1), BuildingBlock: EZIPEK_clean_linker_0, # of connection points: 2
#     Edge 66, Type (0, 1), BuildingBlock: EZIPEK_clean_linker_0, # of connection points: 2
#     Edge 67, Type (0, 1), BuildingBlock: EZIPEK_clean_linker_0, # of connection points: 2
#     Edge 68, Type (0, 1), BuildingBlock: EZIPEK_clean_linker_0, # of connection points: 2
#     Edge 69, Type (0, 1), BuildingBlock: EZIPEK_clean_linker_0, # of connection points: 2
#     Edge 70, Type (0, 1), BuildingBlock: EZIPEK_clean_linker_0, # of connection points: 2
#     Edge 71, Type (0, 1), BuildingBlock: EZIPEK_clean_linker_0, # of connection points: 2
#     Edge 72, Type (0, 1), BuildingBlock: EZIPEK_clean_linker_0, # of connection points: 2
#     Edge 73, Type (0, 1), BuildingBlock: EZIPEK_clean_linker_0, # of connection points: 2
#     Edge 74, Type (0, 1), BuildingBlock: EZIPEK_clean_linker_0, # of connection points: 2
#     Edge 75, Type (0, 1), BuildingBlock: EZIPEK_clean_linker_0, # of connection points: 2
#     Edge 76, Type (0, 1), BuildingBlock: EZIPEK_clean_linker_0, # of connection points: 2
#     Edge 77, Type (0, 1), BuildingBlock: EZIPEK_clean_linker_0, # of connection points: 2
#     Edge 78, Type (0, 1), BuildingBlock: EZIPEK_clean_linker_0, # of connection points: 2
#     Edge 79, Type (0, 1), BuildingBlock: EZIPEK_clean_linker_0, # of connection points: 2
#     Edge 80, Type (0, 1), BuildingBlock: EZIPEK_clean_linker_0, # of connection points: 2
#     Edge 81, Type (0, 1), BuildingBlock: EZIPEK_clean_linker_0, # of connection points: 2
#     Edge 82, Type (0, 1), BuildingBlock: EZIPEK_clean_linker_0, # of connection points: 2
#     Edge 83, Type (0, 1), BuildingBlock: EZIPEK_clean_linker_0, # of connection points: 2
#     Edge 84, Type (0, 1), BuildingBlock: EZIPEK_clean_linker_0, # of connection points: 2
#     Edge 85, Type (0, 1), BuildingBlock: EZIPEK_clean_linker_0, # of connection points: 2
#     Edge 86, Type (0, 1), BuildingBlock: EZIPEK_clean_linker_0, # of connection points: 2
#     Edge 87, Type (0, 1), BuildingBlock: EZIPEK_clean_linker_0, # of connection points: 2
#     Edge 88, Type (0, 1), BuildingBlock: EZIPEK_clean_linker_0, # of connection points: 2
#     Edge 89, Type (0, 1), BuildingBlock: EZIPEK_clean_linker_0, # of connection points: 2
#     Edge 90, Type (0, 1), BuildingBlock: EZIPEK_clean_linker_0, # of connection points: 2
#     Edge 91, Type (0, 1), BuildingBlock: EZIPEK_clean_linker_0, # of connection points: 2
#     Edge 92, Type (0, 1), BuildingBlock: EZIPEK_clean_linker_0, # of connection points: 2
#     Edge 93, Type (0, 1), BuildingBlock: EZIPEK_clean_linker_0, # of connection points: 2
#     Edge 94, Type (0, 1), BuildingBlock: EZIPEK_clean_linker_0, # of connection points: 2
#     Edge 95, Type (0, 1), BuildingBlock: EZIPEK_clean_linker_0, # of connection points: 2
#     Edge 96, Type (0, 1), BuildingBlock: EZIPEK_clean_linker_0, # of connection points: 2
#     Edge 97, Type (0, 1), BuildingBlock: EZIPEK_clean_linker_0, # of connection points: 2
#     Edge 98, Type (0, 1), BuildingBlock: EZIPEK_clean_linker_0, # of connection points: 2
#     Edge 99, Type (0, 1), BuildingBlock: EZIPEK_clean_linker_0, # of connection points: 2
#     Edge 100, Type (0, 1), BuildingBlock: EZIPEK_clean_linker_0, # of connection points: 2
#     Edge 101, Type (0, 1), BuildingBlock: EZIPEK_clean_linker_0, # of connection points: 2
#     Edge 102, Type (0, 1), BuildingBlock: EZIPEK_clean_linker_0, # of connection points: 2
#     Edge 103, Type (0, 1), BuildingBlock: EZIPEK_clean_linker_0, # of connection points: 2
#     Edge 104, Type (0, 1), BuildingBlock: EZIPEK_clean_linker_0, # of connection points: 2
#     Edge 105, Type (0, 1), BuildingBlock: EZIPEK_clean_linker_0, # of connection points: 2
#     Edge 106, Type (0, 1), BuildingBlock: EZIPEK_clean_linker_0, # of connection points: 2
#     Edge 107, Type (0, 1), BuildingBlock: EZIPEK_clean_linker_0, # of connection points: 2
#     Edge 108, Type (0, 1), BuildingBlock: EZIPEK_clean_linker_0, # of connection points: 2
#     Edge 109, Type (0, 1), BuildingBlock: EZIPEK_clean_linker_0, # of connection points: 2
#     Edge 110, Type (0, 1), BuildingBlock: EZIPEK_clean_linker_0, # of connection points: 2
#     Edge 111, Type (0, 1), BuildingBlock: EZIPEK_clean_linker_0, # of connection points: 2
#     Edge 112, Type (0, 1), BuildingBlock: EZIPEK_clean_linker_0, # of connection points: 2
#     Edge 113, Type (0, 1), BuildingBlock: EZIPEK_clean_linker_0, # of connection points: 2
#     Edge 114, Type (0, 1), BuildingBlock: EZIPEK_clean_linker_0, # of connection points: 2
#     Edge 115, Type (0, 1), BuildingBlock: EZIPEK_clean_linker_0, # of connection points: 2
#     Edge 116, Type (0, 1), BuildingBlock: EZIPEK_clean_linker_0, # of connection points: 2
#     Edge 117, Type (0, 1), BuildingBlock: EZIPEK_clean_linker_0, # of connection points: 2
#     Edge 118, Type (0, 1), BuildingBlock: EZIPEK_clean_linker_0, # of connection points: 2
#     Edge 119, Type (0, 1), BuildingBlock: EZIPEK_clean_linker_0, # of connection points: 2
#     Edge 120, Type (0, 1), BuildingBlock: EZIPEK_clean_linker_0, # of connection points: 2
#     Edge 121, Type (0, 1), BuildingBlock: EZIPEK_clean_linker_0, # of connection points: 2
#     Edge 122, Type (0, 1), BuildingBlock: EZIPEK_clean_linker_0, # of connection points: 2
#     Edge 123, Type (0, 1), BuildingBlock: EZIPEK_clean_linker_0, # of connection points: 2
#     Edge 124, Type (0, 1), BuildingBlock: EZIPEK_clean_linker_0, # of connection points: 2
#     Edge 125, Type (0, 1), BuildingBlock: EZIPEK_clean_linker_0, # of connection points: 2
#     Edge 126, Type (0, 1), BuildingBlock: EZIPEK_clean_linker_0, # of connection points: 2
#     Edge 127, Type (0, 1), BuildingBlock: EZIPEK_clean_linker_0, # of connection points: 2
#     Edge 128, Type (0, 1), BuildingBlock: EZIPEK_clean_linker_0, # of connection points: 2
#     Edge 129, Type (0, 1), BuildingBlock: EZIPEK_clean_linker_0, # of connection points: 2
#     Edge 130, Type (0, 1), BuildingBlock: EZIPEK_clean_linker_0, # of connection points: 2
#     Edge 131, Type (0, 1), BuildingBlock: EZIPEK_clean_linker_0, # of connection points: 2
#     Edge 132, Type (0, 1), BuildingBlock: EZIPEK_clean_linker_0, # of connection points: 2
#     Edge 133, Type (0, 1), BuildingBlock: EZIPEK_clean_linker_0, # of connection points: 2
#     Edge 134, Type (0, 1), BuildingBlock: EZIPEK_clean_linker_0, # of connection points: 2
#     Edge 135, Type (0, 1), BuildingBlock: EZIPEK_clean_linker_0, # of connection points: 2
# Relax obj value: 0.278
# Max RMSD: 0.348
# Mean RMSD: 0.162
data_MOF--net-gar--node1-CEKHIL_clean_sbu_0--node2-CUWYAW_clean_sbu_0--edge1-EZIPEK_clean_linker_0
_symmetry_space_group_name_H-M    P1
_symmetry_Int_Tables_number       1
_symmetry_cell_setting            triclinic
loop_
_symmetry_equiv_pos_as_xyz
'x, y, z'
_cell_length_a     50.077768
_cell_length_b     40.245769
_cell_length_c     39.69818
_cell_angle_alpha  99.084605
_cell_angle_beta   96.58472
_cell_angle_gamma 98.5542
loop_
_atom_site_label
_atom_site_type_symbol
_atom_site_fract_x
_atom_site_fract_y
_atom_site_fract_z
_atom_type_partial_charge
Co0 Co 0.14786 0.37982 0.52083 0.0
O1 O 0.15575 0.38584 0.4734 0.0
O2 O 0.15835 0.33945 0.49201 0.0
C3 C 0.16034 0.39325 0.55111 0.0
O4 O 0.10791 0.36813 0.49915 0.0
Co5 Co 0.1098 0.36743 0.57176 0.0
O6 O 0.08303 0.38336 0.54017 0.0
C7 C 0.12805 0.30811 0.52892 0.0
C8 C 0.16115 0.35596 0.46715 0.0
C9 C 0.08553 0.37549 0.50855 0.0
O10 O 0.14434 0.32757 0.51425 0.0
O11 O 0.11411 0.31935 0.5521 0.0
O12 O 0.18505 0.39144 0.54369 0.0
O13 O 0.14775 0.3698 0.56571 0.0
Co14 Co 1.02207 0.74416 0.68794 0.0
O15 O 0.98671 0.75367 0.69555 0.0
O16 O 1.01736 0.7393 0.73364 0.0
C17 C 1.03494 0.7892 0.66273 0.0
O18 O 0.06055 0.73548 0.69139 0.0
Co19 Co 1.04084 0.73007 0.61357 0.0
O20 O 0.07654 0.72762 0.64055 0.0
C21 C 1.00112 0.68743 0.63641 0.0
C22 C 0.99459 0.75021 0.72705 0.0
C23 C 0.07957 0.73032 0.67337 0.0
O24 O 1.00703 0.69528 0.66908 0.0
O25 O 1.00247 0.71189 0.61979 0.0
O26 O 1.03668 0.7926 0.69609 0.0
O27 O 1.02374 0.75931 0.64612 0.0
Co28 Co 0.63889 0.86317 0.99233 0.0
O29 O 0.67562 0.85982 0.98454 0.0
O30 O 0.63942 0.85069 0.94457 0.0
C31 C 0.64645 0.91233 0.03043 0.0
O32 O 0.59877 0.8633 0.98759 0.0
Co33 Co 0.61679 0.86586 0.0632 0.0
O34 O 0.58122 0.86925 0.03717 0.0
C35 C 0.62316 0.80042 0.02103 0.0
C36 C 0.66535 0.85106 0.95209 0.0
C37 C 0.57879 0.86575 1.00446 0.0
O38 O 0.63135 0.81419 0.99632 0.0
O39 O 0.61866 0.81679 0.04956 0.0
O40 O 0.6463 0.91275 0.99768 0.0
O41 O 0.64579 0.88276 0.03894 0.0
Co42 Co 0.52996 0.24149 0.18952 0.0
O43 O 0.49376 0.2461 0.1957 0.0
O44 O 0.52426 0.23476 0.23523 0.0
C45 C 0.53984 0.2891 0.16675 0.0
O46 O 0.56975 0.23672 0.19089 0.0
Co47 Co 0.54548 0.23434 0.11173 0.0
O48 O 0.58225 0.236 0.13814 0.0
C49 C 0.51422 0.18592 0.13703 0.0
C50 C 0.50018 0.2423 0.2272 0.0
C51 C 0.58784 0.23544 0.17028 0.0
O52 O 0.51824 0.19215 0.16969 0.0
O53 O 0.51027 0.21122 0.12301 0.0
O54 O 0.54116 0.29076 0.19983 0.0
O55 O 0.52989 0.25928 0.14894 0.0
Co56 Co 0.12087 0.82292 0.20699 0.0
O57 O 0.08112 0.81562 0.19785 0.0
O58 O 0.10448 0.81249 0.24725 0.0
C59 C 0.12494 0.87114 0.18208 0.0
O60 O 0.16184 0.82861 0.22831 0.0
Co61 Co 0.15815 0.823 0.1515 0.0
O62 O 0.18969 0.82811 0.18791 0.0
C63 C 0.12555 0.75834 0.15976 0.0
C64 C 0.08073 0.81053 0.22927 0.0
C65 C 0.18594 0.82875 0.21913 0.0
O66 O 0.11994 0.77293 0.18875 0.0
O67 O 0.13843 0.77448 0.1396 0.0
O68 O 0.12148 0.87248 0.21423 0.0
O69 O 0.12657 0.84103 0.16621 0.0
Co70 Co 0.53717 0.77424 0.47199 0.0
O71 O 0.5768 0.78245 0.47978 0.0
O72 O 0.5525 0.75937 0.42966 0.0
C73 C 0.53474 0.82784 0.49866 0.0
O74 O 0.49552 0.76511 0.45272 0.0
Co75 Co 0.50352 0.77548 0.53011 0.0
O76 O 0.47205 0.77811 0.49647 0.0
C77 C 0.53337 0.71867 0.51657 0.0
C78 C 0.57653 0.77067 0.4475 0.0
C79 C 0.4732 0.77146 0.46437 0.0
O80 O 0.53762 0.72806 0.48764 0.0
O81 O 0.52121 0.73552 0.5383 0.0
O82 O 0.5372 0.82112 0.46624 0.0
O83 O 0.53425 0.80207 0.51466 0.0
Co84 Co 0.6198 0.32033 0.70557 0.0
O85 O 0.58004 0.31255 0.69754 0.0
O86 O 0.60426 0.31027 0.74655 0.0
C87 C 0.62313 0.36832 0.68058 0.0
O88 O 0.66103 0.32639 0.72531 0.0
Co89 Co 0.65548 0.32071 0.64772 0.0
O90 O 0.68751 0.32521 0.68329 0.0
C91 C 0.62364 0.25616 0.65757 0.0
C92 C 0.5802 0.30807 0.72921 0.0
C93 C 0.68465 0.32611 0.71484 0.0
O94 O 0.61917 0.27046 0.6873 0.0
O95 O 0.63518 0.2725 0.63652 0.0
O96 O 0.6201 0.36981 0.71286 0.0
O97 O 0.6245 0.3382 0.66462 0.0
Co98 Co 1.03667 0.27384 0.97121 0.0
O99 O 0.07619 0.27909 0.98023 0.0
O100 O 0.05256 0.26001 0.92901 0.0
C101 C 1.03558 0.32696 1.00071 0.0
O102 O 0.99529 0.26735 0.95022 0.0
Co103 Co 1.00053 0.27491 0.02741 0.0
O104 O 0.96989 0.27784 0.99252 0.0
C105 C 1.03089 0.21812 1.01438 0.0
C106 C 0.07641 0.2692 0.94771 0.0
C107 C 0.97224 0.27236 0.96068 0.0
O108 O 1.03463 0.22662 0.98491 0.0
O109 O 1.01911 0.23562 0.03609 0.0
O110 O 1.03956 0.32221 0.96872 0.0
O111 O 1.03321 0.29985 1.01458 0.0
Co112 Co 0.45558 0.07104 0.3413 0.0
O113 O 0.45708 0.1233 0.34499 0.0
O114 O 0.42018 0.08815 0.32773 0.0
C115 C 0.48217 0.06953 0.3972 0.0
O116 O 0.43705 1.01886 0.33657 0.0
Co117 Co 0.49713 0.02312 0.34202 0.0
O118 O 0.46762 0.98505 0.34619 0.0
C119 C 0.48982 0.05289 0.27848 0.0
C120 C 0.43082 0.12015 0.33532 0.0
C121 C 0.44281 0.98906 0.34101 0.0
O122 O 0.46822 0.0645 0.28984 0.0
O123 O 0.50528 0.03918 0.29817 0.0
O124 O 0.45729 0.07596 0.39397 0.0
O125 O 0.49048 0.06609 0.36742 0.0
Co126 Co 0.28872 0.17064 0.55573 0.0
O127 O 0.32812 0.17678 0.55603 0.0
O128 O 0.30382 0.12997 0.56402 0.0
C129 C 0.28255 0.19384 0.50637 0.0
O130 O 0.24769 0.1522 0.55664 0.0
Co131 Co 0.25547 0.22743 0.56057 0.0
O132 O 0.22186 0.19293 0.55472 0.0
C133 C 0.28946 0.21835 0.623 0.0
C134 C 0.32772 0.14545 0.56026 0.0
C135 C 0.22418 0.1621 0.55591 0.0
O136 O 0.29417 0.18993 0.60681 0.0
O137 O 0.27634 0.23841 0.60845 0.0
O138 O 0.28326 0.16155 0.50516 0.0
O139 O 0.28446 0.2111 0.53722 0.0
Co140 Co 0.20653 1.01747 0.86015 0.0
O141 O 0.20307 0.96488 0.8552 0.0
O142 O 0.23948 0.99574 0.84868 0.0
C143 C 0.18442 0.02738 0.91356 0.0
O144 O 0.22753 0.06928 0.86282 0.0
Co145 Co 0.17074 0.0696 0.86293 0.0
O146 O 0.20111 0.10903 0.8671 0.0
C147 C 0.16879 0.02784 0.79389 0.0
C148 C 0.22815 0.96481 0.84894 0.0
C149 C 0.22463 0.10147 0.8647 0.0
O150 O 0.18926 1.01439 0.80722 0.0
O151 O 0.15794 0.04911 0.81307 0.0
O152 O 0.20932 1.02132 0.91314 0.0
O153 O 0.17361 0.02783 0.88244 0.0
Co154 Co 0.27814 0.86531 0.06389 0.0
O155 O 0.24237 0.8727 0.07243 0.0
O156 O 0.28038 0.91224 0.08133 0.0
C157 C 0.26259 0.84005 1.0031 0.0
O158 O 0.31709 0.86833 0.05466 0.0
Co159 Co 0.29232 0.78892 0.0199 0.0
O160 O 0.3282 0.82111 0.0245 0.0
C161 C 0.27619 0.78972 0.07343 0.0
C162 C 0.25421 0.90466 0.08176 0.0
C163 C 0.33401 0.85252 0.03936 0.0
O164 O 0.27028 0.81331 0.0564 0.0
O165 O 0.27698 0.76217 0.05352 0.0
O166 O 0.26717 0.8716 1.01512 0.0
O167 O 0.2672 0.82358 0.02721 0.0
Co168 Co 0.36276 0.40487 0.10972 0.0
O169 O 0.32314 0.39395 0.10357 0.0
O170 O 0.34535 0.44506 0.12341 0.0
C171 C 0.36502 0.37652 0.05571 0.0
O172 O 0.40417 0.42769 0.11668 0.0
Co173 Co 0.39917 0.35124 0.10791 0.0
O174 O 0.42988 0.38713 0.10558 0.0
C175 C 0.36897 0.36246 0.16695 0.0
C176 C 0.3216 0.42557 0.11377 0.0
C177 C 0.42741 0.41838 0.11131 0.0
O178 O 0.36346 0.39048 0.15755 0.0
O179 O 0.38183 0.34248 0.14924 0.0
O180 O 0.36153 0.40813 0.06097 0.0
O181 O 0.36692 0.36271 0.08301 0.0
Co182 Co 0.88802 0.22102 0.14017 0.0
O183 O 0.92267 0.21498 0.12594 0.0
O184 O 0.89227 0.17483 0.14023 0.0
C185 C 0.87191 0.23846 0.08577 0.0
O186 O 0.84973 0.21712 0.1525 0.0
Co187 Co 0.85855 0.29385 0.13066 0.0
O188 O 0.82723 0.25831 0.1358 0.0
C189 C 0.90012 0.30037 0.1688 0.0
C190 C 0.91517 0.183 0.1284 0.0
C191 C 0.82793 0.22993 0.14643 0.0
O192 O 0.89331 0.27302 0.14518 0.0
O193 O 0.88976 0.32527 0.1606 0.0
O194 O 0.87179 0.20813 0.08982 0.0
O195 O 0.88105 0.25837 0.11414 0.0
Co196 Co 0.20154 0.5174 0.35347 0.0
O197 O 0.19773 0.46514 0.35026 0.0
O198 O 0.23496 0.49564 0.34479 0.0
C199 C 0.17911 0.52797 0.40528 0.0
O200 O 0.22148 0.5691 0.35704 0.0
Co201 Co 0.16298 0.56842 0.35527 0.0
O202 O 0.19376 0.60766 0.36145 0.0
C203 C 0.16489 0.52876 0.28613 0.0
C204 C 0.22336 0.46517 0.34672 0.0
C205 C 0.21762 0.60086 0.35975 0.0
O206 O 0.18551 0.51543 0.2998 0.0
O207 O 0.15223 0.54769 0.30535 0.0
O208 O 0.20409 0.52209 0.40612 0.0
O209 O 0.16853 0.52743 0.37394 0.0
Co210 Co 0.8661 0.90821 0.60999 0.0
O211 O 0.82629 0.89842 0.60145 0.0
O212 O 0.84941 0.94842 0.62581 0.0
C213 C 0.86944 0.88491 0.55413 0.0
O214 O 0.9078 0.92923 0.62039 0.0
Co215 Co 0.9005 0.8532 0.60395 0.0
O216 O 0.93148 0.88864 0.60143 0.0
C217 C 0.87231 0.86297 0.66491 0.0
C218 C 0.82565 0.9301 0.61306 0.0
C219 C 0.93029 0.91971 0.61209 0.0
O220 O 0.86505 0.89019 0.6557 0.0
O221 O 0.88582 0.84417 0.6469 0.0
O222 O 0.86728 0.9165 0.56336 0.0
O223 O 0.8696 0.86767 0.57915 0.0
Co224 Co 0.95341 0.05801 0.33115 0.0
O225 O 0.95731 0.11046 0.33919 0.0
O226 O 0.91934 0.07817 0.31905 0.0
C227 C 0.97774 0.05325 0.38618 0.0
O228 O 0.93275 1.00559 0.32412 0.0
Co229 Co 0.99186 1.008 0.32817 0.0
O230 O 0.96197 0.96973 0.33096 0.0
C231 C 0.98951 0.04396 0.26865 0.0
C232 C 0.93126 0.10945 0.32997 0.0
C233 C 0.9374 0.97487 0.32761 0.0
O234 O 0.96797 0.05554 0.28045 0.0
O235 O 1.00284 0.02622 0.2863 0.0
O236 O 0.95307 0.06014 0.38256 0.0
O237 O 0.98739 0.0507 0.35717 0.0
Co238 Co 0.3885 0.70156 0.61709 0.0
O239 O 0.42408 0.6966 0.60546 0.0
O240 O 0.39578 0.65804 0.62396 0.0
C241 C 0.37194 0.72382 0.57242 0.0
O242 O 0.35014 0.69645 0.62998 0.0
Co243 Co 0.36969 0.7749 0.63228 0.0
O244 O 0.33576 0.74712 0.64185 0.0
C245 C 0.40857 0.75386 0.67445 0.0
C246 C 0.41958 0.66701 0.61502 0.0
C247 C 0.33197 0.71453 0.63836 0.0
O248 O 0.40475 0.72158 0.66512 0.0
O249 O 0.40779 0.77092 0.65027 0.0
O250 O 0.3725 0.69121 0.56908 0.0
O251 O 0.38483 0.74182 0.60101 0.0
Co252 Co 0.45177 0.55926 0.82795 0.0
O253 O 0.45544 0.612 0.83592 0.0
O254 O 0.41771 0.57982 0.81553 0.0
C255 C 0.47576 0.5542 0.88333 0.0
O256 O 0.43109 0.50672 0.8213 0.0
Co257 Co 0.49036 0.50927 0.82547 0.0
O258 O 0.46053 0.4713 0.82922 0.0
C259 C 0.48819 0.54423 0.76522 0.0
C260 C 0.42943 0.61119 0.82653 0.0
C261 C 0.4359 0.47623 0.82569 0.0
O262 O 0.46678 0.55633 0.77708 0.0
O263 O 0.50137 0.52656 0.78314 0.0
O264 O 0.45119 0.5614 0.87946 0.0
O265 O 0.48558 0.55183 0.85443 0.0
Co266 Co 0.70103 1.01601 0.85522 0.0
O267 O 0.6973 0.96357 0.85108 0.0
O268 O 0.73419 0.99392 0.845 0.0
C269 C 0.67913 0.02596 0.90839 0.0
O270 O 0.72126 0.0679 0.85909 0.0
Co271 Co 0.66249 0.06666 0.85815 0.0
O272 O 0.69299 0.10575 0.86158 0.0
C273 C 0.66313 0.02755 0.7886 0.0
C274 C 0.72273 0.96329 0.84655 0.0
C275 C 0.71707 0.09949 0.86044 0.0
O276 O 0.68424 1.01468 0.80171 0.0
O277 O 0.65041 0.04573 0.80848 0.0
O278 O 0.70401 1.0199 0.9081 0.0
O279 O 0.66839 0.02596 0.87719 0.0
Co280 Co 0.7894 0.66887 0.05781 0.0
O281 O 0.82901 0.67836 0.06159 0.0
O282 O 0.80623 0.62923 0.06575 0.0
C283 C 0.78462 0.69459 1.00999 0.0
O284 O 0.74841 0.64697 0.05457 0.0
Co285 Co 0.75296 0.72314 0.06205 0.0
O286 O 0.72102 0.68636 0.0559 0.0
C287 C 0.78714 0.71485 0.12466 0.0
C288 C 0.8299 0.64697 0.06442 0.0
C289 C 0.72442 0.65554 0.05477 0.0
O290 O 0.79182 0.68618 0.10894 0.0
O291 O 0.77433 0.73486 0.10958 0.0
O292 O 0.78734 0.66269 1.0074 0.0
O293 O 0.78379 0.70964 0.04102 0.0
Co294 Co 0.95629 0.56963 0.83868 0.0
O295 O 0.95902 0.62223 0.84422 0.0
O296 O 0.92164 0.58867 0.82531 0.0
C297 C 0.98239 0.56605 0.89442 0.0
O298 O 0.93577 0.51806 0.83308 0.0
Co299 Co 0.99492 0.51921 0.83665 0.0
O300 O 0.96411 0.48026 0.83356 0.0
C301 C 0.99017 0.55136 0.77517 0.0
C302 C 0.93294 0.62033 0.83426 0.0
C303 C 0.93997 0.48668 0.83248 0.0
O304 O 0.96877 0.56333 0.78684 0.0
O305 O 1.0053 0.53728 0.79479 0.0
O306 O 0.9579 0.5737 0.8913 0.0
O307 O 0.9909 0.56252 0.86471 0.0
Co308 Co 0.77756 0.35894 0.55788 0.0
O309 O 0.74287 0.36695 0.57073 0.0
O310 O 0.78149 0.40532 0.57873 0.0
C311 C 0.75797 0.33813 0.49689 0.0
O312 O 0.81567 0.3609 0.54636 0.0
Co313 Co 0.78681 0.28496 0.50322 0.0
O314 O 0.82082 0.31926 0.50294 0.0
C315 C 0.77753 0.28259 0.56092 0.0
C316 C 0.75565 0.39842 0.58141 0.0
C317 C 0.82942 0.34736 0.52423 0.0
O318 O 0.76986 0.30723 0.5468 0.0
O319 O 0.77863 0.25663 0.53888 0.0
O320 O 0.76461 0.36908 0.51098 0.0
O321 O 0.76343 0.31951 0.51872 0.0
Co322 Co 0.70945 0.51662 0.3582 0.0
O323 O 0.70715 0.46401 0.35271 0.0
O324 O 0.74333 0.49636 0.34765 0.0
C325 C 0.68644 0.52466 0.41105 0.0
O326 O 0.72949 0.5689 0.3625 0.0
Co327 Co 0.67145 0.56671 0.36169 0.0
O328 O 0.70131 0.60676 0.36464 0.0
C329 C 0.67017 0.52616 0.29273 0.0
C330 C 0.73267 0.46517 0.34797 0.0
C331 C 0.7254 0.60053 0.36359 0.0
O332 O 0.69269 0.51554 0.30489 0.0
O333 O 0.65668 0.54167 0.31378 0.0
O334 O 0.71166 0.51967 0.41124 0.0
O335 O 0.67605 0.525 0.37981 0.0
C336 C 0.14926 0.08766 0.14838 0.0
Eu337 Eu 0.10222 0.06262 0.11202 0.0
C338 C 0.17339 0.07314 0.14002 0.0
C339 C 0.18908 0.0609 0.16546 0.0
C340 C 0.20438 0.03545 0.15597 0.0
C341 C 0.20363 1.02165 0.12101 0.0
C342 C 0.18963 0.03569 0.09566 0.0
C343 C 0.17501 0.06158 0.10507 0.0
C344 C 0.05493 0.05751 0.14637 0.0
C345 C 0.09908 0.98285 0.11103 0.0
C346 C 1.01715 1.0027 0.03395 0.0
Eu347 Eu 0.06555 0.02436 0.06782 0.0
C348 C 0.99429 1.01785 0.04662 0.0
C349 C 0.97554 0.02962 0.02421 0.0
C350 C 0.96034 0.05413 0.03729 0.0
C351 C 0.9648 0.06841 0.07269 0.0
C352 C 0.98248 0.05515 0.09501 0.0
C353 C 0.99632 0.02948 0.08226 0.0
C354 C 0.113 0.02707 0.03339 0.0
C355 C 0.06881 0.10442 0.07015 0.0
O356 O 0.13811 0.10316 0.12542 0.0
O357 O 0.13117 0.06622 0.15848 0.0
O358 O 0.07207 0.08508 0.14612 0.0
O359 O 0.06292 0.03384 0.12601 0.0
O360 O 0.11634 1.01131 0.1133 0.0
O361 O 0.0743 0.9814 0.09561 0.0
O362 O 1.02901 0.98471 0.05388 0.0
O363 O 1.03497 0.02453 0.02383 0.0
O364 O 0.0943 1.00074 0.03286 0.0
O365 O 0.1057 0.0516 0.05369 0.0
O366 O 0.05174 0.07591 0.06779 0.0
O367 O 0.09367 0.10581 0.08489 0.0
H368 H 0.1876 0.0688 0.19247 0.0
H369 H 0.21523 0.02487 0.17581 0.0
H370 H 0.18885 0.02539 0.06857 0.0
H371 H 0.16283 0.07006 0.08478 0.0
H372 H 0.97396 1.02158 0.9966 0.0
H373 H 0.94653 0.06365 0.01956 0.0
H374 H 0.98624 0.06541 0.12234 0.0
H375 H 1.01043 1.02079 0.10023 0.0
C376 C 0.29188 0.83264 0.41918 0.0
Eu377 Eu 0.31588 0.81247 0.36677 0.0
C378 C 0.2936 0.81714 0.44969 0.0
C379 C 0.27458 0.81862 0.473 0.0
C380 C 0.27641 0.80018 0.50012 0.0
C381 C 0.297 0.7802 0.50312 0.0
C382 C 0.31539 0.77856 0.47915 0.0
C383 C 0.31366 0.79672 0.4528 0.0
C384 C 0.28795 0.81827 0.30467 0.0
C385 C 0.29667 0.7282 0.35143 0.0
C386 C 0.36322 0.7629 0.27043 0.0
Eu387 Eu 0.33816 0.77991 0.32225 0.0
C388 C 0.36305 0.78193 0.24237 0.0
C389 C 0.38408 0.78456 0.22207 0.0
C390 C 0.38145 0.80162 0.19406 0.0
C391 C 0.35716 0.81411 0.18574 0.0
C392 C 0.33875 0.81621 0.20979 0.0
C393 C 0.34168 0.80023 0.23776 0.0
C394 C 0.36729 0.77534 0.38335 0.0
C395 C 0.36107 0.86228 0.3417 0.0
O396 O 0.31512 0.84868 0.41369 0.0
O397 O 0.27934 0.81149 0.39191 0.0
O398 O 0.29845 0.84337 0.3292 0.0
O399 O 0.2955 0.79124 0.31208 0.0
O400 O 0.30096 0.75648 0.37509 0.0
O401 O 0.30695 0.73204 0.32293 0.0
O402 O 0.33932 0.74663 0.27359 0.0
O403 O 0.37577 0.78092 0.29942 0.0
O404 O 0.35487 0.7495 0.36074 0.0
O405 O 0.35919 0.80203 0.37572 0.0
O406 O 0.3548 0.83595 0.31585 0.0
O407 O 0.34969 0.85837 0.36938 0.0
H408 H 0.25857 0.83376 0.47018 0.0
H409 H 0.26232 0.80188 0.51882 0.0
H410 H 0.33166 0.76365 0.48126 0.0
H411 H 0.32782 0.79425 0.43431 0.0
H412 H 0.40173 0.77252 0.22703 0.0
H413 H 0.39715 0.80247 0.1775 0.0
H414 H 0.3201 0.82637 0.20491 0.0
H415 H 0.32606 0.8002 0.25452 0.0
C416 C 0.50224 0.05154 0.62109 0.0
Eu417 Eu 0.55084 0.04201 0.60679 0.0
C418 C 0.47765 0.06623 0.6101 0.0
C419 C 0.46459 0.08342 0.63542 0.0
C420 C 0.44066 0.09625 0.62635 0.0
C421 C 0.42914 0.09215 0.59167 0.0
C422 C 0.44235 0.07538 0.56621 0.0
C423 C 0.46634 0.06254 0.5753 0.0
C424 C 0.59337 0.02942 0.65502 0.0
C425 C 0.59379 0.11078 0.60794 0.0
C426 C 0.65235 0.02931 0.55787 0.0
Eu427 Eu 0.60298 0.03785 0.57006 0.0
C428 C 0.67727 1.0159 0.57044 0.0
C429 C 0.70178 0.02567 0.55771 0.0
C430 C 0.72537 1.01238 0.56735 0.0
C431 C 0.72521 0.98901 0.59021 0.0
C432 C 0.70081 0.97958 0.60354 0.0
C433 C 0.67707 0.99286 0.59374 0.0
C434 C 0.56026 0.05065 0.5216 0.0
C435 C 0.56019 0.96976 0.5676 0.0
O436 O 0.50687 0.02382 0.60211 0.0
O437 O 0.52472 0.07294 0.63388 0.0
O438 O 0.56857 0.03186 0.66033 0.0
O439 O 0.59373 0.03272 0.6234 0.0
O440 O 0.56811 0.09733 0.60812 0.0
O441 O 0.61191 0.09243 0.59729 0.0
O442 O 0.64697 0.05701 0.576 0.0
O443 O 0.63021 1.00725 0.54486 0.0
O444 O 0.58503 0.04754 0.51633 0.0
O445 O 0.55984 0.04694 0.55318 0.0
O446 O 0.58627 0.98309 0.57131 0.0
O447 O 0.54156 0.98836 0.57596 0.0
H448 H 0.47279 0.08662 0.66242 0.0
H449 H 0.43096 0.1091 0.64645 0.0
H450 H 0.43394 0.07199 0.53927 0.0
H451 H 0.47589 0.04952 0.55517 0.0
H452 H 0.70258 0.04329 0.53969 0.0
H453 H 0.74372 1.01991 0.55645 0.0
H454 H 0.69998 0.96138 0.62094 0.0
H455 H 0.65849 0.98479 0.60397 0.0
C456 C 0.40589 0.25987 0.83747 0.0
Eu457 Eu 0.35582 0.27038 0.8422 0.0
C458 C 0.43004 0.26838 0.81957 0.0
C459 C 0.44109 0.24172 0.80183 0.0
C460 C 0.46487 0.24849 0.7867 0.0
C461 C 0.47848 0.28215 0.78916 0.0
C462 C 0.46729 0.30896 0.80652 0.0
C463 C 0.44333 0.30219 0.8215 0.0
C464 C 0.31137 0.22116 0.85112 0.0
C465 C 0.31807 0.26818 0.76972 0.0
C466 C 0.2539 0.31736 0.8459 0.0
Eu467 Eu 0.30369 0.30525 0.84162 0.0
C468 C 0.22884 0.3083 0.86176 0.0
C469 C 0.20957 0.33014 0.86257 0.0
C470 C 0.18603 0.32315 0.87806 0.0
C471 C 0.18146 0.29516 0.89566 0.0
C472 C 0.19949 0.27113 0.89059 0.0
C473 C 0.22311 0.27806 0.87486 0.0
C474 C 0.34838 0.35394 0.83183 0.0
C475 C 0.33938 0.30264 0.91518 0.0
O476 O 0.39967 0.28364 0.8604 0.0
O477 O 0.38423 0.24021 0.81915 0.0
O478 O 0.33657 0.21686 0.85087 0.0
O479 O 0.31149 0.25249 0.84764 0.0
O480 O 0.34277 0.26796 0.78531 0.0
O481 O 0.29861 0.27853 0.78636 0.0
O482 O 0.26002 0.29459 0.8219 0.0
O483 O 0.27554 0.33457 0.86639 0.0
O484 O 0.32327 0.35855 0.8321 0.0
O485 O 0.34788 0.32277 0.83584 0.0
O486 O 0.31598 0.306 0.89816 0.0
O487 O 0.35936 0.29364 0.89862 0.0
H488 H 0.4315 0.21542 0.8001 0.0
H489 H 0.47293 0.22733 0.77347 0.0
H490 H 0.47728 0.33516 0.80876 0.0
H491 H 0.43546 0.32339 0.83497 0.0
H492 H 0.21255 0.3527 0.85079 0.0
H493 H 0.17134 0.34 0.87546 0.0
H494 H 0.19551 0.24626 0.89756 0.0
H495 H 0.23666 0.25953 0.87245 0.0
C496 C 0.10912 0.95835 0.54506 0.0
Eu497 Eu 0.0889 1.01202 0.56851 0.0
C498 C 0.10701 0.9253 0.55637 0.0
C499 C 0.12989 0.91641 0.57471 0.0
C500 C 0.12646 0.89037 0.59411 0.0
C501 C 0.10012 0.8736 0.59534 0.0
C502 C 0.07771 0.88059 0.57473 0.0
C503 C 0.08111 0.90593 0.55515 0.0
C504 C 0.12126 0.0726 0.56504 0.0
C505 C 0.10766 0.02652 0.6534 0.0
C506 C 0.05584 0.12062 0.62091 0.0
Eu507 Eu 0.06941 0.06123 0.6039 0.0
C508 C 0.06205 0.14596 0.59928 0.0
C509 C 0.05504 0.17856 0.60489 0.0
C510 C 0.0643 0.20212 0.58452 0.0
C511 C 0.07999 0.19248 0.55852 0.0
C512 C 0.08529 0.1594 0.55174 0.0
C513 C 0.07688 0.13672 0.57243 0.0
C514 C 1.03687 1.00217 0.60971 0.0
C515 C 0.04598 0.04028 0.51943 0.0
O516 O 0.08653 0.9658 0.53074 0.0
O517 O 0.12283 0.98383 0.56772 0.0
O518 O 0.10908 0.05036 0.53871 0.0
O519 O 0.1125 0.06404 0.59163 0.0
O520 O 0.10311 1.00314 0.62465 0.0
O521 O 0.09727 0.05465 0.65194 0.0
O522 O 0.07744 0.11188 0.63628 0.0
O523 O 1.03827 0.09402 0.60526 0.0
O524 O 0.04594 0.02767 0.63455 0.0
O525 O 0.04625 1.00822 0.58243 0.0
O526 O 0.05045 0.06429 0.54744 0.0
O527 O 0.05756 1.01321 0.52156 0.0
H528 H 0.15005 0.93112 0.5759 0.0
H529 H 0.14393 0.88469 0.60953 0.0
H530 H 0.05723 0.86748 0.57516 0.0
H531 H 0.06306 0.9119 0.54121 0.0
H532 H 0.04366 0.1861 0.6256 0.0
H533 H 0.06058 0.22812 0.59014 0.0
H534 H 0.09802 0.15207 0.53246 0.0
H535 H 0.08368 0.11254 0.5688 0.0
C536 C 0.26838 0.7179 0.77731 0.0
Eu537 Eu 0.30504 0.76341 0.81745 0.0
C538 C 0.23975 0.71777 0.7647 0.0
C539 C 0.22051 0.7225 0.78748 0.0
C540 C 0.19425 0.72658 0.7749 0.0
C541 C 0.1872 0.7263 0.73962 0.0
C542 C 0.20657 0.72255 0.71734 0.0
C543 C 0.23246 0.71749 0.72952 0.0
C544 C 0.30187 0.78759 0.88286 0.0
C545 C 0.29363 0.84392 0.8306 0.0
C546 C 0.39294 0.85582 0.88014 0.0
Eu547 Eu 0.35188 0.81181 0.84707 0.0
C548 C 0.42039 0.85087 0.89344 0.0
C549 C 0.44307 0.86203 0.87796 0.0
C550 C 0.46916 0.85934 0.89269 0.0
C551 C 0.47281 0.84757 0.92419 0.0
C552 C 0.45004 0.83476 0.93842 0.0
C553 C 0.42411 0.83498 0.92235 0.0
C554 C 0.35161 0.78791 0.78058 0.0
C555 C 0.36293 0.73156 0.83787 0.0
O556 O 0.28557 0.73988 0.76601 0.0
O557 O 0.27467 0.71721 0.8101 0.0
O558 O 0.28119 0.77852 0.85885 0.0
O559 O 0.32377 0.77998 0.87283 0.0
O560 O 0.28278 0.8114 0.81678 0.0
O561 O 0.32037 0.85018 0.84246 0.0
O562 O 0.37333 0.84167 0.8948 0.0
O563 O 0.38667 0.85178 0.84673 0.0
O564 O 0.37244 0.79127 0.80381 0.0
O565 O 0.33141 0.79755 0.79288 0.0
O566 O 0.37288 0.76381 0.85316 0.0
O567 O 0.33701 0.72572 0.82262 0.0
H568 H 0.22583 0.72368 0.81492 0.0
H569 H 0.17948 0.73002 0.79252 0.0
H570 H 0.20158 0.72443 0.69064 0.0
H571 H 0.24718 0.71482 0.71168 0.0
H572 H 0.44071 0.87339 0.85504 0.0
H573 H 0.4866 0.86865 0.88089 0.0
H574 H 0.45228 0.8253 0.9625 0.0
H575 H 0.40707 0.82431 0.93395 0.0
C576 C 0.64472 0.09506 0.16015 0.0
Eu577 Eu 0.60381 0.06176 0.1148 0.0
C578 C 0.67229 0.11341 0.15916 0.0
C579 C 0.69262 0.09608 0.14669 0.0
C580 C 0.71847 0.11406 0.14543 0.0
C581 C 0.7243 0.14948 0.15658 0.0
C582 C 0.70414 0.16675 0.16901 0.0
C583 C 0.67837 0.14886 0.17055 0.0
C584 C 0.59702 0.99387 0.10531 0.0
C585 C 0.61382 0.04191 0.03305 0.0
C586 C 0.51225 1.00159 0.02386 0.0
Eu587 Eu 0.55536 0.03197 0.06755 0.0
C588 C 0.48642 0.97999 0.02657 0.0
C589 C 0.46226 0.98349 1.00681 0.0
C590 C 0.43738 0.96404 1.00994 0.0
C591 C 0.43647 0.94009 0.0322 0.0
C592 C 0.46057 0.93714 0.05249 0.0
C593 C 0.4853 0.95726 0.05003 0.0
C594 C 0.56557 0.10046 0.07618 0.0
C595 C 0.54529 0.04964 0.14831 0.0
O596 O 0.62429 0.10872 0.1487 0.0
O597 O 0.64043 0.06204 0.15028 0.0
O598 O 0.6199 1.01376 0.10632 0.0
O599 O 0.57735 1.01017 0.10821 0.0
O600 O 0.62348 0.0624 0.06345 0.0
O601 O 0.58838 0.02466 0.03027 0.0
O602 O 0.5345 0.9888 0.0285 0.0
O603 O 0.5154 0.03312 0.03954 0.0
O604 O 0.54224 0.08265 0.07738 0.0
O605 O 0.5835 0.08202 0.07238 0.0
O606 O 0.53622 0.02869 0.11831 0.0
O607 O 0.57028 0.06805 0.15163 0.0
H608 H 0.68857 0.06874 0.13764 0.0
H609 H 0.73383 0.10046 0.13547 0.0
H610 H 0.70824 0.19411 0.1768 0.0
H611 H 0.66308 0.1628 0.18021 0.0
H612 H 0.46263 1.00138 0.98906 0.0
H613 H 0.41893 0.967 0.9944 0.0
H614 H 0.4602 0.91924 0.07022 0.0
H615 H 0.50347 0.95508 0.06651 0.0
C616 C 0.39263 0.34588 0.39125 0.0
Eu617 Eu 0.34463 0.31187 0.3657 0.0
C618 C 0.41544 0.34126 0.37207 0.0
C619 C 0.44173 0.34055 0.38837 0.0
C620 C 0.46076 0.32719 0.36905 0.0
C621 C 0.45297 0.3133 0.33387 0.0
C622 C 0.42701 0.3153 0.31784 0.0
C623 C 0.40872 0.32949 0.33653 0.0
C624 C 0.31023 0.27739 0.4024 0.0
C625 C 0.35789 0.23296 0.33459 0.0
C626 C 0.25357 0.232 0.30043 0.0
Eu627 Eu 0.30228 0.26628 0.32158 0.0
C628 C 0.22838 0.24209 0.31211 0.0
C629 C 0.21777 0.26948 0.30054 0.0
C630 C 0.20148 0.28766 0.32023 0.0
C631 C 0.19562 0.27854 0.35158 0.0
C632 C 0.20324 0.24879 0.36091 0.0
C633 C 0.21924 0.23042 0.34109 0.0
C634 C 0.33722 0.29806 0.28339 0.0
C635 C 0.29056 0.34686 0.34872 0.0
O636 O 0.37377 0.35979 0.37604 0.0
O637 O 0.38224 0.31838 0.40178 0.0
O638 O 0.32022 0.30971 0.41076 0.0
O639 O 0.31893 0.2654 0.37529 0.0
O640 O 0.36791 0.26591 0.34756 0.0
O641 O 0.33118 0.2255 0.32315 0.0
O642 O 0.2704 0.22409 0.32437 0.0
O643 O 0.2664 0.25158 0.28197 0.0
O644 O 0.32541 0.26621 0.27623 0.0
O645 O 0.32914 0.31185 0.31057 0.0
O646 O 0.28014 0.31399 0.33604 0.0
O647 O 0.31701 0.35347 0.36125 0.0
H648 H 0.44706 0.34886 0.41595 0.0
H649 H 0.48095 0.32636 0.38165 0.0
H650 H 0.42053 0.305 0.29071 0.0
H651 H 0.38847 0.32885 0.32341 0.0
H652 H 0.2241 0.27891 0.27811 0.0
H653 H 0.1956 0.31057 0.3127 0.0
H654 H 0.19868 0.24136 0.38498 0.0
H655 H 0.22674 0.20919 0.35049 0.0
C656 C 0.60545 0.45651 0.04424 0.0
Eu657 Eu 0.58596 0.51101 0.06689 0.0
C658 C 0.60562 0.42488 0.05804 0.0
C659 C 0.62954 0.41898 0.07691 0.0
C660 C 0.62808 0.39392 0.09765 0.0
C661 C 0.60263 0.37523 0.09984 0.0
C662 C 0.57923 0.37961 0.07908 0.0
C663 C 0.58078 0.40363 0.05788 0.0
C664 C 0.61899 0.57027 0.0606 0.0
C665 C 0.60798 0.52725 0.15064 0.0
C666 C 0.55188 0.61712 0.12234 0.0
Eu667 Eu 0.56785 0.55988 0.10172 0.0
C668 C 0.5553 0.64343 0.10135 0.0
C669 C 0.54367 0.67311 0.10606 0.0
C670 C 0.54957 0.69762 0.08525 0.0
C671 C 0.56604 0.69123 0.05931 0.0
C672 C 0.57517 0.66023 0.05291 0.0
C673 C 0.57098 0.63737 0.07473 0.0
C674 C 0.53444 0.5016 0.10793 0.0
C675 C 0.54407 0.54104 0.01744 0.0
O676 O 0.58162 0.46244 0.0321 0.0
O677 O 0.62017 0.48348 0.06383 0.0
O678 O 0.60711 0.5466 0.03533 0.0
O679 O 0.61042 0.56355 0.088 0.0
O680 O 0.59983 0.50212 0.12355 0.0
O681 O 0.60036 0.55649 0.14642 0.0
O682 O 0.57486 0.60976 0.13544 0.0
O683 O 0.53508 0.58986 0.10675 0.0
O684 O 0.54737 0.52425 0.1336 0.0
O685 O 0.54312 0.50811 0.08044 0.0
O686 O 0.5496 0.5651 0.04553 0.0
O687 O 0.55478 0.51327 0.0197 0.0
H688 H 0.64898 0.43506 0.07719 0.0
H689 H 0.64635 0.3903 0.1131 0.0
H690 H 0.55938 0.36512 0.08017 0.0
H691 H 0.56208 0.40694 0.04319 0.0
H692 H 0.53144 0.67796 0.12651 0.0
H693 H 0.54292 0.72207 0.0907 0.0
H694 H 0.58849 0.65571 0.03364 0.0
H695 H 0.58128 0.6156 0.07177 0.0
C696 C 0.78051 0.23035 0.26431 0.0
Eu697 Eu 0.81393 0.2684 0.31504 0.0
C698 C 0.75253 0.23287 0.24999 0.0
C699 C 0.72999 0.21905 0.26417 0.0
C700 C 0.7041 0.22579 0.25368 0.0
C701 C 0.69996 0.24776 0.22967 0.0
C702 C 0.72251 0.25832 0.21308 0.0
C703 C 0.7483 0.25122 0.22328 0.0
C704 C 0.79847 0.28345 0.37775 0.0
C705 C 0.80243 0.34759 0.33518 0.0
C706 C 0.89242 0.35137 0.40887 0.0
Eu707 Eu 0.85684 0.31079 0.362 0.0
C708 C 0.92219 0.3558 0.41711 0.0
C709 C 0.93928 0.353 0.39138 0.0
C710 C 0.9674 0.3548 0.40051 0.0
C711 C 0.97861 0.35996 0.43541 0.0
C712 C 0.96141 0.36273 0.4608 0.0
C713 C 0.93344 0.36013 0.45161 0.0
C714 C 0.87114 0.29602 0.29852 0.0
C715 C 0.86676 0.2305 0.342 0.0
O716 O 0.79965 0.25476 0.26023 0.0
O717 O 0.78383 0.22247 0.29512 0.0
O718 O 0.78266 0.27997 0.34896 0.0
O719 O 0.82173 0.27618 0.37307 0.0
O720 O 0.79547 0.31861 0.31216 0.0
O721 O 0.82524 0.34952 0.35721 0.0
O722 O 0.87919 0.32246 0.41407 0.0
O723 O 0.88276 0.36026 0.38019 0.0
O724 O 0.88709 0.29882 0.32687 0.0
O725 O 0.84852 0.30429 0.30453 0.0
O726 O 0.87571 0.26053 0.36292 0.0
O727 O 0.84296 0.22758 0.32163 0.0
H728 H 0.73234 0.20335 0.28375 0.0
H729 H 0.6874 0.21314 0.26448 0.0
H730 H 0.72098 0.27116 0.1914 0.0
H731 H 0.76509 0.26059 0.21041 0.0
H732 H 0.93087 0.34869 0.36437 0.0
H733 H 0.98032 0.35177 0.38053 0.0
H734 H 0.96969 0.36616 0.48778 0.0
H735 H 0.92037 0.36115 0.47136 0.0
C736 C 0.1377 0.61341 0.64621 0.0
Eu737 Eu 0.10022 0.56801 0.60583 0.0
C738 C 0.16741 0.62387 0.6482 0.0
C739 C 0.18566 0.60036 0.6477 0.0
C740 C 0.21344 0.61122 0.64631 0.0
C741 C 0.22317 0.64563 0.64533 0.0
C742 C 0.20471 0.66858 0.64519 0.0
C743 C 0.17729 0.65804 0.64722 0.0
C744 C 0.1107 0.50398 0.59484 0.0
C745 C 0.11006 0.54602 0.5247 0.0
C746 C 1.02014 0.46873 0.52696 0.0
Eu747 Eu 0.05534 0.51933 0.56341 0.0
C748 C 0.99112 0.45611 0.52821 0.0
C749 C 0.97235 0.44872 0.49786 0.0
C750 C 0.94512 0.4349 0.49852 0.0
C751 C 0.9365 0.42736 0.52933 0.0
C752 C 0.95474 0.43717 0.5601 0.0
C753 C 0.98184 0.45145 0.55957 0.0
C754 C 0.04461 0.58281 0.56874 0.0
C755 C 0.04452 0.54669 0.64329 0.0
O756 O 0.12338 0.61938 0.61897 0.0
O757 O 0.12869 0.58371 0.65387 0.0
O758 O 0.12825 0.53078 0.59496 0.0
O759 O 0.0881 0.51146 0.60172 0.0
O760 O 0.11891 0.56754 0.55445 0.0
O761 O 0.08666 0.52465 0.52351 0.0
O762 O 1.03755 0.46534 0.5529 0.0
O763 O 1.02562 0.49833 0.51744 0.0
O764 O 1.02677 0.55623 0.56914 0.0
O765 O 0.06805 0.57542 0.56554 0.0
O766 O 1.03717 0.522 0.61558 0.0
O767 O 0.06707 0.5694 0.64381 0.0
H768 H 0.17843 0.57361 0.64763 0.0
H769 H 0.2272 0.59282 0.64542 0.0
H770 H 0.21159 0.69477 0.64268 0.0
H771 H 0.16356 0.67647 0.64691 0.0
H772 H 0.97889 0.4529 0.47355 0.0
H773 H 0.93104 0.42874 0.47472 0.0
H774 H 0.94825 0.43239 0.58427 0.0
H775 H 0.99567 0.45798 0.58359 0.0
C776 C 0.90597 0.75629 0.33434 0.0
Eu777 Eu 0.85682 0.76886 0.34169 0.0
C778 C 0.9301 0.76616 0.31685 0.0
C779 C 0.93877 0.74117 0.29358 0.0
C780 C 0.96251 0.74882 0.27861 0.0
C781 C 0.97842 0.78164 0.28674 0.0
C782 C 0.96959 0.80689 0.30957 0.0
C783 C 0.9457 0.79928 0.32444 0.0
C784 C 0.81231 0.7212 0.35382 0.0
C785 C 0.81827 0.7667 0.27047 0.0
C786 C 0.75522 0.81719 0.34778 0.0
Eu787 Eu 0.80473 0.8044 0.34247 0.0
C788 C 0.72956 0.8074 0.36211 0.0
C789 C 0.70859 0.82646 0.3581 0.0
C790 C 0.68474 0.81959 0.37301 0.0
C791 C 0.68142 0.79477 0.39464 0.0
C792 C 0.7012 0.77269 0.39419 0.0
C793 C 0.72523 0.77957 0.37922 0.0
C794 C 0.84936 0.85256 0.33146 0.0
C795 C 0.84431 0.80827 0.41353 0.0
O796 O 0.90069 0.77812 0.35988 0.0
O797 O 0.88377 0.73918 0.31489 0.0
O798 O 0.83725 0.7162 0.35256 0.0
O799 O 0.81287 0.75221 0.3493 0.0
O800 O 0.84339 0.76796 0.28534 0.0
O801 O 0.79876 0.77579 0.28775 0.0
O802 O 0.76117 0.79616 0.32214 0.0
O803 O 0.77684 0.83209 0.36964 0.0
O804 O 0.82434 0.85742 0.33227 0.0
O805 O 0.84875 0.82134 0.33539 0.0
O806 O 0.81896 0.80652 0.39892 0.0
O807 O 0.86337 0.79753 0.39634 0.0
H808 H 0.92737 0.71539 0.28736 0.0
H809 H 0.96877 0.7289 0.26109 0.0
H810 H 0.98141 0.83241 0.31624 0.0
H811 H 0.93972 0.8192 0.34225 0.0
H812 H 0.71061 0.8469 0.34328 0.0
H813 H 0.6689 0.83411 0.36703 0.0
H814 H 0.69845 0.74942 0.40446 0.0
H815 H 0.74034 0.76299 0.38084 0.0
C816 C 0.78941 0.33385 0.91011 0.0
Eu817 Eu 0.81492 0.3102 0.86028 0.0
C818 C 0.79117 0.32615 0.94495 0.0
C819 C 0.7694 0.30476 0.95438 0.0
C820 C 0.77414 0.28701 0.98143 0.0
C821 C 0.80077 0.29015 0.99828 0.0
C822 C 0.82176 0.31381 0.99061 0.0
C823 C 0.81686 0.33233 0.96495 0.0
C824 C 0.78746 0.31446 0.79722 0.0
C825 C 0.79448 0.22743 0.84767 0.0
C826 C 0.86246 0.25782 0.76511 0.0
Eu827 Eu 0.83716 0.27686 0.81663 0.0
C828 C 0.8648 0.27477 0.7356 0.0
C829 C 0.88372 0.26846 0.71299 0.0
C830 C 0.88139 0.2802 0.68158 0.0
C831 C 0.85919 0.29621 0.67249 0.0
C832 C 0.84371 0.3076 0.69792 0.0
C833 C 0.84648 0.29685 0.72926 0.0
C834 C 0.86612 0.27268 0.87794 0.0
C835 C 0.86035 0.35936 0.83586 0.0
O836 O 0.81139 0.35074 0.90215 0.0
O837 O 0.77892 0.30776 0.88627 0.0
O838 O 0.79835 0.33998 0.82096 0.0
O839 O 0.7946 0.28774 0.80579 0.0
O840 O 0.80076 0.25537 0.87181 0.0
O841 O 0.80477 0.23007 0.81882 0.0
O842 O 0.83767 0.24397 0.76759 0.0
O843 O 0.87481 0.27617 0.79403 0.0
O844 O 0.85369 0.24673 0.85543 0.0
O845 O 0.85811 0.29946 0.87025 0.0
O846 O 0.85387 0.33295 0.81006 0.0
O847 O 0.84935 0.35533 0.86374 0.0
H848 H 0.74937 0.29974 0.93914 0.0
H849 H 0.75763 0.26949 0.98772 0.0
H850 H 0.84248 0.31699 1.00362 0.0
H851 H 0.83399 0.34898 0.9588 0.0
H852 H 0.89888 0.25275 0.71852 0.0
H853 H 0.89468 0.27314 0.66296 0.0
H854 H 0.82695 0.32096 0.69209 0.0
H855 H 0.8324 0.30298 0.74712 0.0
C856 C 0.89161 0.85209 0.88997 0.0
Eu857 Eu 0.84559 0.81277 0.8661 0.0
C858 C 0.91597 0.84964 0.87338 0.0
C859 C 0.93968 0.84313 0.89205 0.0
C860 C 0.95858 0.82753 0.87462 0.0
C861 C 0.95345 0.81821 0.83866 0.0
C862 C 0.93086 0.82688 0.82011 0.0
C863 C 0.91243 0.84266 0.83725 0.0
C864 C 0.81741 0.77606 0.90615 0.0
C865 C 0.86075 0.73399 0.83596 0.0
C866 C 0.75711 0.7237 0.79083 0.0
Eu867 Eu 0.80321 0.76349 0.81604 0.0
C868 C 0.73054 0.73148 0.79914 0.0
C869 C 0.72377 0.76316 0.79396 0.0
C870 C 0.70896 0.7801 0.81642 0.0
C871 C 0.69946 0.76484 0.84309 0.0
C872 C 0.70135 0.7305 0.84387 0.0
C873 C 0.71722 0.71392 0.82212 0.0
C874 C 0.83452 0.79739 0.77625 0.0
C875 C 0.78959 0.84387 0.84391 0.0
O876 O 0.87163 0.86265 0.87258 0.0
O877 O 0.88327 0.82461 0.902 0.0
O878 O 0.83291 0.80531 0.91711 0.0
O879 O 0.81228 0.77156 0.87337 0.0
O880 O 0.86924 0.76603 0.85344 0.0
O881 O 0.83518 0.72632 0.81929 0.0
O882 O 0.77327 0.71823 0.81675 0.0
O883 O 0.77005 0.74425 0.7735 0.0
O884 O 0.81472 0.77228 0.76497 0.0
O885 O 0.83816 0.8025 0.80906 0.0
O886 O 0.78038 0.81152 0.82751 0.0
O887 O 0.81505 0.85105 0.86053 0.0
H888 H 0.94242 0.84758 0.91996 0.0
H889 H 0.97632 0.82135 0.88903 0.0
H890 H 0.92688 0.82007 0.79223 0.0
H891 H 0.89415 0.8464 0.82211 0.0
H892 H 0.73302 0.77713 0.77586 0.0
H893 H 0.70717 0.80638 0.81497 0.0
H894 H 0.6935 0.71817 0.86394 0.0
H895 H 0.72184 0.6893 0.8263 0.0
C896 C 0.64887 0.58168 0.64677 0.0
Eu897 Eu 0.6021 0.55887 0.60856 0.0
C898 C 0.67213 0.5642 0.64067 0.0
C899 C 0.68855 0.55548 0.66794 0.0
C900 C 0.70485 0.53032 0.6612 0.0
C901 C 0.7042 0.51324 0.62725 0.0
C902 C 0.68867 0.52306 0.60014 0.0
C903 C 0.67305 0.54834 0.60678 0.0
C904 C 0.55416 0.55438 0.64212 0.0
C905 C 0.59862 0.47988 0.60932 0.0
C906 C 0.52202 0.4954 0.52573 0.0
Eu907 Eu 0.56785 0.52136 0.56447 0.0
C908 C 0.4968 0.50485 0.53691 0.0
C909 C 0.48035 0.52075 0.51557 0.0
C910 C 0.46565 0.54492 0.53022 0.0
C911 C 0.46791 0.55378 0.56624 0.0
C912 C 0.48177 0.5351 0.58715 0.0
C913 C 0.49557 0.51027 0.57257 0.0
C914 C 0.61539 0.52593 0.53086 0.0
C915 C 0.56908 0.60145 0.56783 0.0
O916 O 0.63976 0.59669 0.62209 0.0
O917 O 0.6291 0.56288 0.65694 0.0
O918 O 0.57164 0.5817 0.64196 0.0
O919 O 0.56204 0.53037 0.62193 0.0
O920 O 0.61623 0.50763 0.61034 0.0
O921 O 0.57391 0.47933 0.59458 0.0
O922 O 0.53502 0.47765 0.54474 0.0
O923 O 0.53833 0.52128 0.51952 0.0
O924 O 0.59948 0.49831 0.53384 0.0
O925 O 0.60704 0.55018 0.5502 0.0
O926 O 0.55253 0.57213 0.56353 0.0
O927 O 0.5936 0.60339 0.58389 0.0
H928 H 0.68754 0.56657 0.69436 0.0
H929 H 0.71686 0.52303 0.68243 0.0
H930 H 0.68779 0.51015 0.57381 0.0
H931 H 0.65982 0.55328 0.58546 0.0
H932 H 0.48134 0.51746 0.48815 0.0
H933 H 0.45475 0.55901 0.51375 0.0
H934 H 0.48347 0.54136 0.61498 0.0
H935 H 0.50807 0.49859 0.58983 0.0
C936 C 1.00241 0.54663 0.11809 0.0
Eu937 Eu 0.05237 0.54178 0.10624 0.0
C938 C 0.9787 0.56377 0.10942 0.0
C939 C 0.96351 0.57475 0.1355 0.0
C940 C 0.93992 0.58877 0.12786 0.0
C941 C 0.93094 0.5921 0.09391 0.0
C942 C 0.94633 0.58169 0.06785 0.0
C943 C 0.96997 0.56766 0.07549 0.0
C944 C 0.09555 0.52998 0.15297 0.0
C945 C 0.09287 0.61323 0.10779 0.0
C946 C 0.15349 0.53442 0.05668 0.0
Eu947 Eu 0.1034 0.54101 0.06769 0.0
C948 C 0.17769 0.51929 0.06855 0.0
C949 C 0.20253 0.52824 0.05618 0.0
C950 C 0.22552 0.5137 0.06575 0.0
C951 C 0.22432 0.48978 0.08803 0.0
C952 C 0.19952 0.48099 0.10073 0.0
C953 C 0.17646 0.49561 0.09116 0.0
C954 C 0.06037 0.55374 0.02104 0.0
C955 C 0.06264 0.46931 0.06658 0.0
O956 O 1.00841 0.52381 0.09405 0.0
O957 O 1.02419 0.56525 0.13717 0.0
O958 O 0.07082 0.53183 0.15912 0.0
O959 O 0.09578 0.53404 0.1214 0.0
O960 O 0.06905 0.598 0.11359 0.0
O961 O 0.10989 0.59673 0.09154 0.0
O962 O 0.14751 0.56018 0.07724 0.0
O963 O 0.13159 0.51353 0.04065 0.0
O964 O 0.08524 0.55231 1.01506 0.0
O965 O 0.06003 0.54917 0.05249 0.0
O966 O 0.08528 0.48518 0.05823 0.0
O967 O 0.04678 0.48543 0.08528 0.0
H968 H 0.96968 0.57195 0.16183 0.0
H969 H 0.92848 0.59666 0.1484 0.0
H970 H 0.93987 0.58409 0.04149 0.0
H971 H 0.98118 0.55947 0.0548 0.0
H972 H 0.20409 0.54629 0.03865 0.0
H973 H 0.24419 0.52076 0.05533 0.0
H974 H 0.19791 0.46246 0.11776 0.0
H975 H 0.15763 0.48816 0.10111 0.0
C976 C 0.05906 0.19505 0.05921 0.0
C977 C 0.0428 0.18904 0.02623 0.0
C978 C 0.04828 0.12868 0.01979 0.0
C979 C 0.06029 0.13376 0.05494 0.0
N980 N 0.07318 0.17175 0.10971 0.0
N981 N 1.0191 0.14841 0.97673 0.0
C982 C 0.06468 0.16698 0.07507 0.0
C983 C 1.0367 0.15537 1.00684 0.0
N984 N 0.07012 0.22771 0.07492 0.0
N985 N 0.04917 0.099 0.9982 0.0
H986 H 1.01007 0.16707 0.96654 0.0
H987 H 1.01167 0.12366 0.9635 0.0
H988 H 0.05904 0.0799 1.00608 0.0
H989 H 0.04302 0.09512 0.97169 0.0
H990 H 0.08416 0.23339 0.09738 0.0
H991 H 0.0678 0.2489 0.06344 0.0
H992 H 0.07393 0.19487 0.12618 0.0
H993 H 0.07686 0.15185 0.12256 0.0
C994 C 0.23546 0.85056 0.24457 0.0
C995 C 0.21074 0.82804 0.24477 0.0
C996 C 0.23602 0.80018 0.28674 0.0
C997 C 0.26136 0.81956 0.28253 0.0
N998 N 0.28486 0.85919 0.25195 0.0
N999 N 0.18879 0.77758 0.26306 0.0
C1000 C 0.26088 0.84371 0.25997 0.0
C1001 C 0.21136 0.80188 0.26515 0.0
N1002 N 0.23459 0.87929 0.23044 0.0
N1003 N 0.23497 0.78126 0.31242 0.0
H1004 H 0.17014 0.77809 0.2488 0.0
H1005 H 0.18916 0.75542 0.27347 0.0
H1006 H 0.25196 0.77955 0.32935 0.0
H1007 H 0.21673 0.76989 0.31916 0.0
H1008 H 0.25146 0.89842 0.23239 0.0
H1009 H 0.21634 0.88579 0.22015 0.0
H1010 H 0.28597 0.87458 0.2332 0.0
H1011 H 0.30354 0.85328 0.2612 0.0
C1012 C 0.52618 0.87565 0.54446 0.0
C1013 C 0.54086 0.86392 0.51755 0.0
C1014 C 0.56329 0.92264 0.51988 0.0
C1015 C 0.55192 0.93361 0.54994 0.0
N1016 N 0.52598 0.91866 0.59464 0.0
N1017 N 0.5807 0.87611 0.48918 0.0
C1018 C 0.53423 0.90963 0.56335 0.0
C1019 C 0.56151 0.88734 0.5079 0.0
N1020 N 0.50408 0.855 0.55136 0.0
N1021 N 0.57513 0.94577 0.50194 0.0
H1022 H 0.58247 0.85046 0.48333 0.0
H1023 H 0.59721 0.89258 0.48387 0.0
H1024 H 0.5752 0.97195 0.50833 0.0
H1025 H 0.58175 0.93847 0.47833 0.0
H1026 H 0.49104 0.86352 0.56823 0.0
H1027 H 0.49727 0.83036 0.53781 0.0
H1028 H 0.51532 0.90113 0.6071 0.0
H1029 H 0.53203 0.9429 0.60967 0.0
C1030 C 0.53171 0.31804 0.73577 0.0
C1031 C 0.55416 0.30155 0.74483 0.0
C1032 C 0.52818 0.27654 0.78665 0.0
C1033 C 0.50462 0.2891 0.77402 0.0
N1034 N 0.48271 0.31549 0.73045 0.0
N1035 N 0.57004 0.25772 0.77332 0.0
C1036 C 0.50601 0.30793 0.74671 0.0
C1037 C 0.55141 0.27879 0.76881 0.0
N1038 N 0.53509 0.34481 0.71847 0.0
N1039 N 0.5288 0.26325 0.81627 0.0
H1040 H 0.58612 0.25628 0.75898 0.0
H1041 H 0.56756 0.23866 0.78823 0.0
H1042 H 0.51254 0.26185 0.83052 0.0
H1043 H 0.54644 0.25697 0.82848 0.0
H1044 H 0.51993 0.35935 0.71389 0.0
H1045 H 0.5539 0.35537 0.7126 0.0
H1046 H 0.48223 0.326 0.70805 0.0
H1047 H 0.46348 0.30807 0.73721 0.0
C1048 C 0.06586 0.84557 0.66489 0.0
C1049 C 0.05184 0.81351 0.64589 0.0
C1050 C 0.08188 0.8167 0.6022 0.0
C1051 C 0.09417 0.84963 0.61886 0.0
N1052 N 0.10254 0.89388 0.66876 0.0
N1053 N 1.03818 0.78088 0.58817 0.0
C1054 C 0.08789 0.86336 0.65153 0.0
C1055 C 0.05755 0.80202 0.61224 0.0
N1056 N 0.05614 0.86045 0.69332 0.0
N1057 N 0.09201 0.80124 0.57452 0.0
H1058 H 1.01797 0.77495 0.59231 0.0
H1059 H 1.04114 0.77376 0.56262 0.0
H1060 H 0.10969 0.81275 0.56641 0.0
H1061 H 0.08435 0.77616 0.56232 0.0
H1062 H 0.06501 0.88378 0.70853 0.0
H1063 H 1.03717 0.85111 0.69969 0.0
H1064 H 0.10007 0.90547 0.69326 0.0
H1065 H 0.11881 0.90673 0.65909 0.0
C1066 C 0.5327 0.83054 0.98288 0.0
C1067 C 0.55167 0.86078 0.98406 0.0
C1068 C 0.5179 0.88322 0.94975 0.0
C1069 C 0.50021 0.85141 0.94407 0.0
N1070 N 0.49484 0.79134 0.9477 0.0
N1071 N 0.5649 0.90777 0.95446 0.0
C1072 C 0.50868 0.8239 0.95853 0.0
C1073 C 0.54526 0.88459 0.96299 0.0
N1074 N 0.53778 0.80776 1.00392 0.0
N1075 N 0.50866 0.91245 0.94425 0.0
H1076 H 0.58561 0.9076 0.96052 0.0
H1077 H 0.56036 0.92422 0.93756 0.0
H1078 H 0.48806 0.91346 0.93779 0.0
H1079 H 0.52124 0.93632 0.95057 0.0
H1080 H 0.52321 0.78708 1.00599 0.0
H1081 H 0.55586 0.81057 0.02077 0.0
H1082 H 0.50169 0.77015 0.95551 0.0
H1083 H 0.47835 0.78514 0.92793 0.0
C1084 C 0.52675 0.15833 0.08156 0.0
C1085 C 0.53137 0.16396 0.11854 0.0
C1086 C 0.57735 0.15223 0.1151 0.0
C1087 C 0.56963 0.13764 0.08069 0.0
N1088 N 0.54647 0.14636 0.02826 0.0
N1089 N 0.56081 0.15603 0.16944 0.0
C1090 C 0.54777 0.14851 0.06298 0.0
C1091 C 0.55669 0.15826 0.13539 0.0
N1092 N 0.50188 0.16024 0.06452 0.0
N1093 N 0.6042 0.15978 0.12808 0.0
H1094 H 0.54551 0.15556 0.18506 0.0
H1095 H 0.57872 0.14942 0.18062 0.0
H1096 H 0.61907 0.1558 0.11211 0.0
H1097 H 0.61114 0.17123 0.15363 0.0
H1098 H 0.497 0.15465 0.03781 0.0
H1099 H 0.48528 0.16428 0.07737 0.0
H1100 H 0.53184 0.15565 1.01322 0.0
H1101 H 0.56183 0.13741 1.01545 0.0
C1102 C 0.14922 0.31983 0.40876 0.0
C1103 C 0.16924 0.34092 0.43452 0.0
C1104 C 0.20529 0.32746 0.40089 0.0
C1105 C 0.18578 0.30271 0.37752 0.0
N1106 N 0.13945 0.27427 0.35876 0.0
N1107 N 0.21617 0.36428 0.45691 0.0
C1108 C 0.15772 0.2988 0.38112 0.0
C1109 C 0.19723 0.34494 0.43091 0.0
N1110 N 0.12219 0.32032 0.4107 0.0
N1111 N 0.23154 0.33421 0.3943 0.0
H1112 H 0.21091 0.37865 0.47866 0.0
H1113 H 0.23709 0.36465 0.45809 0.0
H1114 H 0.23848 0.32118 0.37314 0.0
H1115 H 0.24609 0.35412 0.40853 0.0
H1116 H 0.10651 0.3078 0.39134 0.0
H1117 H 0.11549 0.33563 0.43067 0.0
H1118 H 0.11919 0.26735 0.36211 0.0
H1119 H 0.14498 0.25949 0.33746 0.0
C1120 C 1.00901 1.01888 0.21314 0.0
C1121 C 1.00075 0.04783 0.23295 0.0
C1122 C 1.02305 0.08145 0.19135 0.0
C1123 C 1.03528 0.05348 0.17554 0.0
N1124 N 0.04224 0.99599 0.18002 0.0
N1125 N 1.00363 0.10864 0.24069 0.0
C1126 C 1.02866 0.02236 0.18875 0.0
C1127 C 1.00878 0.07958 0.22173 0.0
N1128 N 0.99732 0.98702 0.21682 0.0
N1129 N 1.02387 0.10986 0.1765 0.0
H1130 H 0.99294 0.10821 0.26171 0.0
H1131 H 1.01155 0.13304 0.237 0.0
H1132 H 1.03241 0.11196 0.15404 0.0
H1133 H 1.01326 0.12954 0.18401 0.0
H1134 H 0.99993 0.9648 0.20103 0.0
H1135 H 0.98233 0.98311 0.23269 0.0
H1136 H 1.04066 0.97447 0.1917 0.0
H1137 H 0.05754 0.99702 0.16447 0.0
C1138 C 0.32728 0.71577 0.53226 0.0
C1139 C 0.35021 0.73779 0.55308 0.0
C1140 C 0.32441 0.78488 0.55699 0.0
C1141 C 0.30336 0.76436 0.5331 0.0
N1142 N 0.27916 0.70874 0.50887 0.0
N1143 N 0.37304 0.79623 0.5731 0.0
C1144 C 0.30286 0.72893 0.52508 0.0
C1145 C 0.34945 0.77326 0.56242 0.0
N1146 N 0.32973 0.68403 0.51611 0.0
N1147 N 0.32097 0.81655 0.57193 0.0
H1148 H 0.39223 0.78917 0.57251 0.0
H1149 H 0.37358 0.82256 0.57794 0.0
H1150 H 0.30248 0.82517 0.56701 0.0
H1151 H 0.33522 0.83222 0.59134 0.0
H1152 H 0.31397 0.66753 0.49957 0.0
H1153 H 0.34854 0.67617 0.51487 0.0
H1154 H 0.27622 0.68217 0.50407 0.0
H1155 H 0.2617 0.71932 0.50315 0.0
C1156 C 0.64248 0.99668 0.7241 0.0
C1157 C 0.65267 0.02686 0.74938 0.0
C1158 C 0.62638 0.05855 0.71087 0.0
C1159 C 0.61694 0.02904 0.68476 0.0
N1160 N 0.62069 0.97058 0.66516 0.0
N1161 N 0.66109 0.0883 0.75827 0.0
C1162 C 0.62671 0.99838 0.69095 0.0
C1163 C 0.64672 0.05817 0.73976 0.0
N1164 N 0.64677 0.96607 0.73221 0.0
N1165 N 0.615 0.08716 0.70933 0.0
H1166 H 0.67675 0.08922 0.77835 0.0
H1167 H 0.6597 0.11185 0.75105 0.0
H1168 H 0.6005 0.08915 0.68901 0.0
H1169 H 0.61847 0.10795 0.72953 0.0
H1170 H 0.63778 0.94262 0.71718 0.0
H1171 H 0.65846 0.96436 0.75519 0.0
H1172 H 0.62882 0.94833 0.66601 0.0
H1173 H 0.60922 0.97106 0.64161 0.0
C1174 C 0.33124 0.35109 1.00231 0.0
C1175 C 0.35796 0.3547 0.02068 0.0
C1176 C 0.36938 0.31322 0.97397 0.0
C1177 C 0.34402 0.31354 0.95397 0.0
N1178 N 0.29668 0.31497 0.95946 0.0
N1179 N 0.40255 0.33863 0.02431 0.0
C1180 C 0.32364 0.32742 0.97095 0.0
C1181 C 0.37694 0.33525 1.00674 0.0
N1182 N 0.31277 0.37005 1.0145 0.0
N1183 N 0.38476 0.28922 0.96348 0.0
H1184 H 0.40826 0.35293 0.04894 0.0
H1185 H 0.41859 0.32915 1.01379 0.0
H1186 H 0.37751 0.26911 0.94299 0.0
H1187 H 0.4026 0.28587 0.97778 0.0
H1188 H 0.31595 0.38576 0.03847 0.0
H1189 H 0.29468 0.37181 0.99956 0.0
H1190 H 0.2809 0.32204 0.97247 0.0
H1191 H 0.29024 0.29339 0.94045 0.0
C1192 C 0.98498 0.0277 0.44298 0.0
C1193 C 0.99471 0.05088 0.42134 0.0
C1194 C 1.03696 0.06932 0.46565 0.0
C1195 C 1.0282 0.04409 0.48558 0.0
N1196 N 0.99401 0.99719 0.4907 0.0
N1197 N 1.03129 0.09367 0.4131 0.0
C1198 C 1.00224 0.02279 0.47336 0.0
C1199 C 1.02112 0.07152 0.43311 0.0
N1200 N 0.9588 1.0105 0.43491 0.0
N1201 N 0.06054 0.09185 0.47816 0.0
H1202 H 1.01975 0.09894 0.39164 0.0
H1203 H 0.05145 0.10604 0.41685 0.0
H1204 H 0.07339 0.08976 0.50003 0.0
H1205 H 0.06674 0.11373 0.46826 0.0
H1206 H 0.94892 0.99658 0.4512 0.0
H1207 H 0.94611 1.01182 0.41263 0.0
H1208 H 0.97731 0.9779 0.48151 0.0
H1209 H 1.00499 0.99387 0.51353 0.0
C1210 C 0.38402 0.79646 0.70705 0.0
C1211 C 0.39499 0.7655 0.70461 0.0
C1212 C 0.36291 0.74363 0.7405 0.0
C1213 C 0.3533 0.77478 0.74473 0.0
N1214 N 0.34763 0.82639 0.72478 0.0
N1215 N 0.40218 0.71717 0.73151 0.0
C1216 C 0.3614 0.79961 0.72513 0.0
C1217 C 0.38664 0.74126 0.72524 0.0
N1218 N 0.39686 0.82374 0.69517 0.0
N1219 N 0.34951 0.71678 0.75224 0.0
H1220 H 0.42136 0.71735 0.72352 0.0
H1221 H 0.39767 0.69998 0.74794 0.0
H1222 H 0.3306 0.71803 0.76044 0.0
H1223 H 0.35529 0.6928 0.74984 0.0
H1224 H 0.39063 0.84744 0.69769 0.0
H1225 H 0.41591 0.82397 0.6869 0.0
H1226 H 0.35085 0.84445 0.70892 0.0
H1227 H 0.33104 0.82824 0.73832 0.0
C1228 C 0.6756 0.04527 0.97546 0.0
C1229 C 0.66296 0.02984 0.94102 0.0
C1230 C 0.6184 0.02761 0.96596 0.0
C1231 C 0.63115 0.0384 1.00129 0.0
N1232 N 0.67504 0.04889 0.03733 0.0
N1233 N 0.62101 0.99675 0.90884 0.0
C1234 C 0.66064 0.04486 1.00522 0.0
C1235 C 0.63402 1.01833 0.93801 0.0
N1236 N 0.70195 0.06172 0.98021 0.0
N1237 N 0.59119 0.02778 0.95795 0.0
H1238 H 0.63124 0.98715 0.88904 0.0
H1239 H 0.60075 0.98484 0.90651 0.0
H1240 H 0.57938 0.03771 0.97567 0.0
H1241 H 0.58134 0.02276 0.93263 0.0
H1242 H 0.71145 0.07656 1.00364 0.0
H1243 H 0.71324 0.06368 0.95993 0.0
H1244 H 0.69616 0.05062 0.04159 0.0
H1245 H 0.66587 0.04603 0.05916 0.0
C1246 C 0.34726 0.31447 0.19328 0.0
C1247 C 0.35852 0.3496 0.19766 0.0
C1248 C 0.35571 0.35342 0.26009 0.0
C1249 C 0.34783 0.31692 0.25564 0.0
N1250 N 0.34974 0.264 0.21771 0.0
N1251 N 0.37807 0.40147 0.23729 0.0
C1252 C 0.34757 0.29779 0.22217 0.0
C1253 C 0.36387 0.36894 0.23165 0.0
N1254 N 0.33615 0.29665 0.16134 0.0
N1255 N 0.356 0.37365 0.29116 0.0
H1256 H 0.38433 0.41351 0.21744 0.0
H1257 H 0.38556 0.41544 0.26182 0.0
H1258 H 0.35413 0.36444 0.31385 0.0
H1259 H 0.35755 0.40009 0.29416 0.0
H1260 H 0.32602 0.27146 0.15751 0.0
H1261 H 0.33424 0.30829 0.13966 0.0
H1262 H 0.3509 0.24987 0.19367 0.0
H1263 H 0.3551 0.25189 0.2382 0.0
C1264 C 0.2444 0.96192 0.07428 0.0
C1265 C 0.23859 0.93254 0.08951 0.0
C1266 C 0.20574 0.95949 0.12033 0.0
C1267 C 0.21584 0.99097 0.11055 0.0
N1268 N 0.24825 0.02316 0.08216 0.0
N1269 N 0.21583 0.90482 0.13082 0.0
C1270 C 0.23617 0.9925 0.0886 0.0
C1271 C 0.21969 0.9315 0.11346 0.0
N1272 N 0.25678 0.9603 0.04525 0.0
N1273 N 0.18228 0.9558 0.13481 0.0
H1274 H 0.22617 0.88418 0.12737 0.0
H1275 H 0.20421 0.90478 0.15099 0.0
H1276 H 0.17094 0.97537 0.13926 0.0
H1277 H 0.17266 0.93223 0.13877 0.0
H1278 H 0.25915 0.98032 0.0315 0.0
H1279 H 0.26158 0.93768 0.03259 0.0
H1280 H 0.26494 0.02562 0.06872 0.0
H1281 H 0.24347 0.04645 0.09317 0.0
C1282 C 0.69624 0.6094 0.08024 0.0
C1283 C 0.69911 0.62941 0.05387 0.0
C1284 C 0.64976 0.6118 0.03331 0.0
C1285 C 0.64681 0.59083 0.05889 0.0
N1286 N 0.66992 0.56236 0.09991 0.0
N1287 N 0.67975 0.64213 1.00009 0.0
C1288 C 0.6708 0.5876 0.08052 0.0
C1289 C 0.67615 0.62832 0.02892 0.0
N1290 N 0.71747 0.61191 0.10588 0.0
N1291 N 0.62712 0.61685 1.0136 0.0
H1292 H 0.69884 0.65334 0.99545 0.0
H1293 H 0.66453 0.63929 0.97914 0.0
H1294 H 0.6078 0.6044 1.01527 0.0
H1295 H 0.62724 0.63523 0.99783 0.0
H1296 H 0.71554 0.60168 0.12818 0.0
H1297 H 0.73663 0.62615 0.10601 0.0
H1298 H 0.68725 0.55648 0.11325 0.0
H1299 H 0.65248 0.54463 0.09968 0.0
C1300 C 0.7398 0.40109 0.324 0.0
C1301 C 0.74968 0.43411 0.34502 0.0
C1302 C 0.79466 0.41226 0.3551 0.0
C1303 C 0.784 0.37765 0.3377 0.0
N1304 N 0.74133 0.34006 0.31294 0.0
N1305 N 0.78623 0.46526 0.38833 0.0
C1306 C 0.75517 0.37254 0.32414 0.0
C1307 C 0.77699 0.43774 0.36268 0.0
N1308 N 0.71576 0.39678 0.30257 0.0
N1309 N 0.82222 0.42228 0.36302 0.0
H1310 H 0.77427 0.4835 0.39572 0.0
H1311 H 0.8044 0.46764 0.4049 0.0
H1312 H 0.83614 0.40699 0.35505 0.0
H1313 H 0.83129 0.44747 0.37303 0.0
H1314 H 0.70881 0.37523 0.28354 0.0
H1315 H 0.7042 0.41621 0.30151 0.0
H1316 H 0.72025 0.33446 0.30583 0.0
H1317 H 0.74995 0.31842 0.31493 0.0
C1318 C 0.85927 0.40003 0.51531 0.0
C1319 C 0.85689 0.36672 0.52366 0.0
C1320 C 0.90665 0.37297 0.53534 0.0
C1321 C 0.90901 0.40703 0.52886 0.0
N1322 N 0.88771 0.45522 0.51918 0.0
N1323 N 0.87768 0.32399 0.54806 0.0
C1324 C 0.88533 0.42117 0.52055 0.0
C1325 C 0.8804 0.35383 0.53538 0.0
N1326 N 0.83659 0.41124 0.50184 0.0
N1327 N 0.92942 0.35825 0.53984 0.0
H1328 H 0.85883 0.30904 0.5483 0.0
H1329 H 0.89391 0.31545 0.56097 0.0
H1330 H 0.9491 0.37108 0.54001 0.0
H1331 H 0.92869 0.33233 0.54024 0.0
H1332 H 0.83724 0.43352 0.49149 0.0
H1333 H 0.8171 0.39683 0.49837 0.0
H1334 H 0.87114 0.46798 0.51694 0.0
H1335 H 0.90646 0.47157 0.52344 0.0
C1336 C 0.41644 0.17613 0.31437 0.0
C1337 C 0.41299 0.15024 0.33551 0.0
C1338 C 0.37195 0.17612 0.35269 0.0
C1339 C 0.37678 0.20391 0.3341 0.0
N1340 N 0.40515 0.22909 0.29688 0.0
N1341 N 0.38841 0.13048 0.37908 0.0
C1342 C 0.39967 0.20346 0.31514 0.0
C1343 C 0.39083 0.15169 0.35551 0.0
N1344 N 0.43502 0.17362 0.2919 0.0
N1345 N 0.34868 0.17234 0.36757 0.0
H1346 H 0.40144 0.11295 0.38241 0.0
H1347 H 0.37535 0.13245 0.39763 0.0
H1348 H 0.33518 0.18968 0.36776 0.0
H1349 H 0.34157 0.15067 0.37734 0.0
H1350 H 0.43688 0.18815 0.27257 0.0
H1351 H 0.4475 0.15501 0.29105 0.0
H1352 H 0.42231 0.23302 0.28462 0.0
H1353 H 0.39264 0.24739 0.29483 0.0
C1354 C 0.37937 0.14819 0.55952 0.0
C1355 C 0.35349 0.12921 0.56248 0.0
C1356 C 0.37743 0.0841 0.58106 0.0
C1357 C 0.40307 0.10501 0.58194 0.0
N1358 N 0.42849 0.159 0.57631 0.0
N1359 N 0.32925 0.07187 0.55898 0.0
C1360 C 0.404 0.13761 0.57237 0.0
C1361 C 0.35279 0.09511 0.56872 0.0
N1362 N 0.38064 0.17394 0.54076 0.0
N1363 N 0.37654 0.05381 0.59271 0.0
H1364 H 0.31232 0.07675 0.54398 0.0
H1365 H 0.32784 0.0461 0.56047 0.0
H1366 H 0.39402 0.04423 0.6006 0.0
H1367 H 0.35861 0.0395 0.59717 0.0
H1368 H 0.39885 0.18708 0.53569 0.0
H1369 H 0.3638 0.17822 0.52513 0.0
H1370 H 0.4302 0.18466 0.5741 0.0
H1371 H 0.44699 0.15196 0.58478 0.0
C1372 C 0.77238 0.64178 0.38626 0.0
C1373 C 0.74841 0.6311 0.36134 0.0
C1374 C 0.76306 0.68415 0.33674 0.0
C1375 C 0.78854 0.69283 0.35905 0.0
N1376 N 0.81694 0.67795 0.40575 0.0
N1377 N 0.72471 0.64026 0.30825 0.0
C1378 C 0.79295 0.67082 0.38378 0.0
C1379 C 0.74483 0.65208 0.33559 0.0
N1380 N 0.77497 0.62521 0.41363 0.0
N1381 N 0.75582 0.70666 0.3165 0.0
H1382 H 0.71227 0.61654 0.30529 0.0
H1383 H 0.72248 0.65185 0.28666 0.0
H1384 H 0.76825 0.72973 0.31633 0.0
H1385 H 0.73648 0.70406 0.30254 0.0
H1386 H 0.78986 0.63357 0.43507 0.0
H1387 H 0.76082 0.60429 0.41617 0.0
H1388 H 0.82368 0.66096 0.42068 0.0
H1389 H 0.83061 0.70074 0.40845 0.0
C1390 C 0.91629 0.44174 0.86385 0.0
C1391 C 0.91692 0.45668 0.83359 0.0
C1392 C 0.87834 0.40998 0.80529 0.0
C1393 C 0.8801 0.39276 0.83431 0.0
N1394 N 0.9066 0.39039 0.88841 0.0
N1395 N 0.89978 0.45174 0.77368 0.0
C1396 C 0.90064 0.40832 0.86283 0.0
C1397 C 0.89822 0.43979 0.80383 0.0
N1398 N 0.93009 0.46012 0.89432 0.0
N1399 N 0.85688 0.39889 0.77957 0.0
H1400 H 0.91317 0.47374 0.77204 0.0
H1401 H 0.88922 0.43867 0.75003 0.0
H1402 H 0.84179 0.37836 0.78019 0.0
H1403 H 0.85261 0.41195 0.75949 0.0
H1404 H 0.92864 0.45233 0.91796 0.0
H1405 H 0.94019 0.4851 0.89639 0.0
H1406 H 0.9231 0.39876 0.90795 0.0
H1407 H 0.89722 0.36537 0.88793 0.0
C1408 C 0.12893 0.93428 0.17863 0.0
C1409 C 0.11943 0.89964 0.1629 0.0
C1410 C 0.10059 0.91987 0.1109 0.0
C1411 C 0.10677 0.95421 0.12848 0.0
N1412 N 0.12005 0.99212 0.18341 0.0
N1413 N 0.08828 0.86104 0.1169 0.0
C1414 C 0.11912 0.96092 0.16357 0.0
C1415 C 0.10318 0.89274 0.12969 0.0
N1416 N 0.14801 0.9421 0.20741 0.0
N1417 N 0.09255 0.91292 0.07611 0.0
H1418 H 0.08658 0.84122 0.13089 0.0
H1419 H 0.0745 0.85584 0.09422 0.0
H1420 H 0.09098 0.932 0.06136 0.0
H1421 H 0.09031 0.88846 0.0616 0.0
H1422 H 0.15742 0.96707 0.21788 0.0
H1423 H 0.15672 0.92361 0.21834 0.0
H1424 H 0.1268 0.99735 0.20984 0.0
H1425 H 0.11076 1.01116 0.17452 0.0
C1426 C 0.93279 0.30148 0.94221 0.0
C1427 C 0.94708 0.27356 0.9359 0.0
C1428 C 0.91132 0.24866 0.88665 0.0
C1429 C 0.89426 0.27292 0.89764 0.0
N1430 N 0.88882 0.31963 0.94131 0.0
N1431 N 0.94666 0.21715 0.90439 0.0
C1432 C 0.90506 0.29854 0.92699 0.0
C1433 C 0.93536 0.2461 0.90883 0.0
N1434 N 0.94617 0.33165 0.96158 0.0
N1435 N 0.90627 0.22978 0.85413 0.0
H1436 H 0.96415 0.21426 0.91984 0.0
H1437 H 0.93717 0.19501 0.88734 0.0
H1438 H 0.89191 0.23378 0.83482 0.0
H1439 H 0.91933 0.21383 0.84465 0.0
H1440 H 0.93752 0.35375 0.96483 0.0
H1441 H 0.96703 0.33554 0.97013 0.0
H1442 H 0.8952 0.33668 0.96448 0.0
H1443 H 0.86818 0.31754 0.93222 0.0
C1444 C 0.63204 0.19655 0.65887 0.0
C1445 C 0.61537 0.21885 0.64662 0.0
C1446 C 0.58742 0.17102 0.60558 0.0
C1447 C 0.60234 0.1481 0.62012 0.0
N1448 N 0.6372 0.13852 0.66333 0.0
N1449 N 0.57499 0.22742 0.61214 0.0
C1450 C 0.62428 0.1607 0.64746 0.0
C1451 C 0.59238 0.20608 0.6211 0.0
N1452 N 0.65586 0.20973 0.68044 0.0
N1453 N 0.56954 0.1596 0.57583 0.0
H1454 H 0.57809 0.25333 0.6229 0.0
H1455 H 0.55633 0.21894 0.59638 0.0
H1456 H 0.56614 0.13437 0.56289 0.0
H1457 H 0.56018 0.17571 0.56202 0.0
H1458 H 0.67054 0.19524 0.68715 0.0
H1459 H 0.66202 0.23581 0.68963 0.0
H1460 H 0.65075 0.14598 0.68616 0.0
H1461 H 0.63307 0.11218 0.65527 0.0
C1462 C 0.62185 0.75319 0.43726 0.0
C1463 C 0.60252 0.77498 0.43199 0.0
C1464 C 0.63862 0.81546 0.4159 0.0
C1465 C 0.65631 0.79075 0.4141 0.0
N1466 N 0.66977 0.75165 0.45037 0.0
N1467 N 0.59236 0.82654 0.41351 0.0
C1468 C 0.6495 0.76319 0.43195 0.0
C1469 C 0.61085 0.80587 0.42024 0.0
N1470 N 0.61396 0.72299 0.44776 0.0
N1471 N 0.64941 0.84929 0.42001 0.0
H1472 H 0.57186 0.82056 0.41642 0.0
H1473 H 0.59703 0.84792 0.4021 0.0
H1474 H 0.67046 0.85779 0.42393 0.0
H1475 H 0.63799 0.86873 0.42486 0.0
H1476 H 0.62654 0.70463 0.44889 0.0
H1477 H 0.59406 0.71517 0.45229 0.0
H1478 H 0.66613 0.73334 0.4659 0.0
H1479 H 0.68968 0.76519 0.4554 0.0
C1480 C 0.13867 0.25613 0.54427 0.0
C1481 C 0.12497 0.27134 0.51973 0.0
C1482 C 0.08517 0.22682 0.51195 0.0
C1483 C 0.09601 0.21793 0.54322 0.0
N1484 N 0.13374 0.22186 0.5886 0.0
N1485 N 0.08887 0.26873 0.474 0.0
C1486 C 0.1233 0.23129 0.55885 0.0
C1487 C 0.09968 0.25497 0.50066 0.0
N1488 N 0.16577 0.26774 0.55515 0.0
N1489 N 0.06109 0.20892 0.49389 0.0
H1490 H 0.10005 0.28927 0.4658 0.0
H1491 H 0.06921 0.26062 0.46081 0.0
H1492 H 0.04988 0.18854 0.50225 0.0
H1493 H 0.053 0.21286 0.46979 0.0
H1494 H 0.17777 0.25656 0.57181 0.0
H1495 H 0.17649 0.28698 0.54462 0.0
H1496 H 0.15269 0.23298 0.60258 0.0
H1497 H 0.12271 0.20438 0.60075 0.0
C1498 C 0.62357 0.23334 0.22058 0.0
C1499 C 0.61707 0.23716 0.18549 0.0
C1500 C 0.66427 0.26445 0.18717 0.0
C1501 C 0.67161 0.25514 0.21926 0.0
N1502 N 0.65496 0.25365 0.27335 0.0
N1503 N 0.63637 0.24532 0.1328 0.0
C1504 C 0.65024 0.24638 0.23823 0.0
C1505 C 0.6388 0.24943 0.16787 0.0
N1506 N 0.6054 0.21459 0.23634 0.0
N1507 N 0.67906 0.29183 0.1778 0.0
H1508 H 0.62072 0.22853 0.11639 0.0
H1509 H 0.65264 0.25375 0.12028 0.0
H1510 H 0.69445 0.30824 0.19525 0.0
H1511 H 0.67302 0.30098 0.15543 0.0
H1512 H 0.6104 0.20899 0.26081 0.0
H1513 H 0.58695 0.20047 0.22351 0.0
H1514 H 0.63949 0.25098 0.2887 0.0
H1515 H 0.67391 0.26631 0.28652 0.0
C1516 C 0.63822 0.9362 0.08923 0.0
C1517 C 0.63392 0.93663 0.05305 0.0
C1518 C 0.58864 0.94855 0.05877 0.0
C1519 C 0.59538 0.95724 0.09422 0.0
N1520 N 0.62016 0.94537 0.14422 0.0
N1521 N 0.60759 0.95608 1.00722 0.0
C1522 C 0.61786 0.94527 0.10968 0.0
C1523 C 0.60989 0.94675 0.03872 0.0
N1524 N 0.66194 0.92808 0.10362 0.0
N1525 N 0.56213 0.94202 0.04469 0.0
H1526 H 0.62407 0.95935 0.99355 0.0
H1527 H 0.59019 0.96464 0.99722 0.0
H1528 H 0.5468 0.94176 0.06045 0.0
H1529 H 0.55608 0.9348 0.01825 0.0
H1530 H 0.66662 0.92721 0.12964 0.0
H1531 H 0.67769 0.92377 0.08925 0.0
H1532 H 0.63578 0.93686 0.15828 0.0
H1533 H 0.60504 0.95308 0.1583 0.0
C1534 C 0.98794 0.80271 0.76417 0.0
C1535 C 0.98286 0.76642 0.75615 0.0
C1536 C 0.96565 0.76374 0.81103 0.0
C1537 C 0.97123 0.79988 0.81859 0.0
N1538 N 0.99614 0.85242 0.80944 0.0
N1539 N 0.97091 0.7119 0.77348 0.0
C1540 C 0.98563 0.81875 0.79758 0.0
C1541 C 0.97321 0.74668 0.78031 0.0
N1542 N 0.9939 0.82208 0.73979 0.0
N1543 N 0.95229 0.74617 0.83262 0.0
H1544 H 0.97445 0.69868 0.75005 0.0
H1545 H 0.96649 0.6962 0.79129 0.0
H1546 H 0.94742 0.75829 0.85578 0.0
H1547 H 0.94573 0.71993 0.82753 0.0
H1548 H 0.99535 0.84853 0.74401 0.0
H1549 H 0.99418 0.81202 0.71413 0.0
H1550 H 1.00896 0.86706 0.79643 0.0
H1551 H 0.99429 0.86445 0.83417 0.0
C1552 C 0.1525 0.9976 0.95348 0.0
C1553 C 0.16764 0.02799 0.94583 0.0
C1554 C 0.14765 0.05955 0.99563 0.0
C1555 C 0.13359 0.02863 1.00458 0.0
N1556 N 0.1332 0.96769 0.99624 0.0
N1557 N 0.18259 0.08796 0.96575 0.0
C1558 C 0.139 0.99767 0.98446 0.0
C1559 C 0.16595 0.05882 0.96883 0.0
N1560 N 0.15061 0.96785 0.93076 0.0
N1561 N 0.14338 0.09031 1.01208 0.0
H1562 H 0.19528 0.08858 0.94667 0.0
H1563 H 0.18563 0.11053 0.98365 0.0
H1564 H 0.13231 0.09301 0.03259 0.0
H1565 H 0.14955 0.11331 1.00406 0.0
H1566 H 0.13729 0.94568 0.93193 0.0
H1567 H 0.1606 0.96622 0.90905 0.0
H1568 H 0.13862 0.94495 0.98491 0.0
H1569 H 0.12685 0.96639 0.02013 0.0
C1570 C 0.81093 0.3196 0.60953 0.0
C1571 C 0.79595 0.28727 0.59411 0.0
C1572 C 0.8304 0.25977 0.62206 0.0
C1573 C 0.84597 0.29239 0.63651 0.0
N1574 N 0.85469 0.35259 0.63659 0.0
N1575 N 0.78554 0.22804 0.5982 0.0
C1576 C 0.83761 0.322 0.62691 0.0
C1577 C 0.80398 0.25769 0.60417 0.0
N1578 N 0.79794 0.34697 0.61289 0.0
N1579 N 0.84095 0.23075 0.62475 0.0
H1580 H 0.76539 0.22683 0.58707 0.0
H1581 H 0.78909 0.20629 0.60794 0.0
H1582 H 0.86098 0.23098 0.63515 0.0
H1583 H 0.83108 0.20652 0.61246 0.0
H1584 H 0.80713 0.37107 0.62638 0.0
H1585 H 0.77677 0.34338 0.60714 0.0
H1586 H 0.85033 0.37485 0.62845 0.0
H1587 H 0.87421 0.35442 0.65003 0.0
C1588 C 0.49154 0.04703 0.45671 0.0
C1589 C 0.50068 0.06717 0.43191 0.0
C1590 C 0.54589 0.08238 0.47142 0.0
C1591 C 0.53808 0.0585 0.49331 0.0
N1592 N 0.50256 1.01557 0.5032 0.0
N1593 N 0.53873 0.10388 0.41754 0.0
C1594 C 0.51051 0.04052 0.48507 0.0
C1595 C 0.52852 0.08448 0.43992 0.0
N1596 N 0.46446 0.03397 0.45357 0.0
N1597 N 0.56961 0.10518 0.48196 0.0
H1598 H 0.5266 0.11047 0.39735 0.0
H1599 H 0.55949 0.11245 0.41823 0.0
H1600 H 0.58199 0.10603 0.50517 0.0
H1601 H 0.57547 0.1258 0.47002 0.0
H1602 H 0.45565 0.02275 0.47246 0.0
H1603 H 0.45033 0.03661 0.43322 0.0
H1604 H 0.48432 0.99834 0.49636 0.0
H1605 H 0.51523 1.01054 0.52381 0.0
C1606 C 0.81657 0.75646 0.17312 0.0
C1607 C 0.79708 0.72607 0.162 0.0
C1608 C 0.79484 0.72004 0.22216 0.0
C1609 C 0.81149 0.7526 0.23314 0.0
N1610 N 0.83647 0.80355 0.21951 0.0
N1611 N 0.76475 0.68122 0.17572 0.0
C1612 C 0.82202 0.77126 0.20874 0.0
C1613 C 0.78551 0.70832 0.18646 0.0
N1614 N 0.83042 0.77059 0.14966 0.0
N1615 N 0.78872 0.69979 0.24576 0.0
H1616 H 0.75727 0.67205 0.14982 0.0
H1617 H 0.75344 0.66968 0.19247 0.0
H1618 H 0.79585 0.70717 0.27201 0.0
H1619 H 0.77893 0.67448 0.23903 0.0
H1620 H 0.84677 0.79075 0.15646 0.0
H1621 H 0.82723 0.76011 0.12345 0.0
H1622 H 0.84203 0.82 0.20277 0.0
H1623 H 0.84121 0.81495 0.24543 0.0
C1624 C 0.16828 0.02504 0.72672 0.0
C1625 C 0.15459 1.0191 0.75549 0.0
C1626 C 0.11033 1.0159 0.71683 0.0
C1627 C 0.12382 1.02127 0.68785 0.0
N1628 N 0.16621 0.02425 0.66455 0.0
N1629 N 0.11168 0.99919 0.77338 0.0
C1630 C 0.15296 0.02349 0.69267 0.0
C1631 C 0.12535 1.01167 0.74893 0.0
N1632 N 0.19599 0.03396 0.73216 0.0
N1633 N 0.08283 1.01526 0.71407 0.0
H1634 H 0.12175 0.99444 0.79619 0.0
H1635 H 0.0908 0.98998 0.76953 0.0
H1636 H 0.07092 1.01587 0.69095 0.0
H1637 H 0.07211 1.01628 0.73508 0.0
H1638 H 0.20736 0.04261 0.71394 0.0
H1639 H 0.20754 0.03452 0.75589 0.0
H1640 H 0.1867 0.02217 0.66487 0.0
H1641 H 0.15609 0.02433 0.64008 0.0
C1642 C 0.75285 0.28971 0.44749 0.0
C1643 C 0.75948 0.32546 0.46015 0.0
C1644 C 0.79547 0.33034 0.42508 0.0
C1645 C 0.78896 0.29515 0.41088 0.0
N1646 N 0.75881 0.24143 0.40534 0.0
N1647 N 0.77653 0.3799 0.44615 0.0
C1648 C 0.7666 0.27481 0.42093 0.0
C1649 C 0.77708 0.34587 0.44371 0.0
N1650 N 0.73409 0.27022 0.46179 0.0
N1651 N 0.82009 0.34853 0.42309 0.0
H1652 H 0.76171 0.39126 0.45789 0.0
H1653 H 0.78855 0.39531 0.43288 0.0
H1654 H 0.83512 0.33627 0.41351 0.0
H1655 H 0.82626 0.3741 0.43459 0.0
H1656 H 0.7306 0.24364 0.45706 0.0
H1657 H 0.72243 0.28121 0.47926 0.0
H1658 H 0.74113 0.22606 0.40902 0.0
H1659 H 0.76984 0.22941 0.38771 0.0
C1660 C 0.50984 0.02221 0.22651 0.0
C1661 C 0.49859 0.05138 0.24099 0.0
C1662 C 0.51282 0.07649 0.18979 0.0
C1663 C 0.52841 0.05018 0.17974 0.0
N1664 N 0.54332 0.9993 0.19348 0.0
N1665 N 0.49163 0.10807 0.23468 0.0
C1666 C 0.52725 0.02355 0.19963 0.0
C1667 C 0.50058 0.07891 0.22188 0.0
N1668 N 0.50263 0.9919 0.23718 0.0
N1669 N 0.50863 0.09865 0.16786 0.0
H1670 H 0.48239 0.11045 0.25697 0.0
H1671 H 0.49497 0.13038 0.22444 0.0
H1672 H 0.5167 0.09728 0.14468 0.0
H1673 H 0.49535 0.11613 0.17118 0.0
H1674 H 0.50792 0.96906 0.22588 0.0
H1675 H 0.48833 0.98868 0.25408 0.0
H1676 H 0.5461 0.98162 0.20957 0.0
H1677 H 0.55574 0.99877 0.17409 0.0
C1678 C 0.77898 0.70624 0.94859 0.0
C1679 C 0.79312 0.7147 0.98282 0.0
C1680 C 0.82683 0.75621 0.96333 0.0
C1681 C 0.81063 0.75115 0.93047 0.0
N1682 N 0.78193 0.70744 0.88841 0.0
N1683 N 0.83091 0.74978 0.02293 0.0
C1684 C 0.78933 0.72244 0.92197 0.0
C1685 C 0.81699 0.74041 0.99026 0.0
N1686 N 0.75524 0.6832 0.94152 0.0
N1687 N 0.85346 0.77201 0.96742 0.0
H1688 H 0.82779 0.73647 0.04289 0.0
H1689 H 0.84512 0.7722 0.03071 0.0
H1690 H 0.86319 0.77812 0.94681 0.0
H1691 H 0.86727 0.77383 0.9896 0.0
H1692 H 0.74249 0.67874 0.91804 0.0
H1693 H 0.74711 0.67074 0.96014 0.0
H1694 H 0.76754 0.68531 0.88002 0.0
H1695 H 0.79456 0.7132 0.8704 0.0
C1696 C 0.93209 0.12823 0.13331 0.0
C1697 C 0.93043 0.15578 0.11533 0.0
C1698 C 0.95553 0.12861 0.07228 0.0
C1699 C 0.95234 0.09831 0.08668 0.0
N1700 N 0.93131 0.06753 0.12721 0.0
N1701 N 0.93502 0.17722 0.06199 0.0
C1702 C 0.93881 0.09759 0.1162 0.0
C1703 C 0.94066 0.15479 0.08322 0.0
N1704 N 0.92802 0.13153 0.16703 0.0
N1705 N 0.97345 0.13326 0.04927 0.0
H1706 H 0.92253 0.19532 0.06723 0.0
H1707 H 0.94019 0.17505 0.03712 0.0
H1708 H 0.98618 0.11587 0.04221 0.0
H1709 H 0.97792 0.15627 0.04047 0.0
H1710 H 0.93136 0.113 0.18194 0.0
H1711 H 0.92463 0.15433 0.18109 0.0
H1712 H 0.91956 0.06562 0.14708 0.0
H1713 H 0.93408 0.04403 0.114 0.0
C1714 C 0.46402 0.4715 0.13591 0.0
C1715 C 0.4526 0.44361 0.10911 0.0
C1716 C 0.49531 0.45217 0.0834 0.0
C1717 C 0.50598 0.482 0.10842 0.0
N1718 N 0.49389 0.52613 0.15057 0.0
N1719 N 0.45449 0.41614 0.05108 0.0
C1720 C 0.48855 0.49347 0.13257 0.0
C1721 C 0.46741 0.43668 0.08095 0.0
N1722 N 0.45202 0.47686 0.16502 0.0
N1723 N 0.51185 0.43759 0.06255 0.0
H1724 H 0.43364 0.40662 0.04743 0.0
H1725 H 0.46359 0.41246 0.02875 0.0
H1726 H 0.53262 0.44682 0.0644 0.0
H1727 H 0.50554 0.41413 0.0461 0.0
H1728 H 0.46119 0.49465 0.18681 0.0
H1729 H 0.43418 0.46157 0.16847 0.0
H1730 H 0.48065 0.53601 0.16638 0.0
H1731 H 0.5089 0.54493 0.14586 0.0
C1732 C 0.38806 0.64153 0.84517 0.0
C1733 C 0.41322 0.64305 0.83058 0.0
C1734 C 0.40755 0.70416 0.82518 0.0
C1735 C 0.38098 0.70139 0.83656 0.0
N1736 N 0.34596 0.66348 0.85499 0.0
N1737 N 0.44415 0.67685 0.80237 0.0
C1738 C 0.37138 0.66877 0.84548 0.0
C1739 C 0.42217 0.6749 0.81983 0.0
N1740 N 0.3807 0.61474 0.86134 0.0
N1741 N 0.41929 0.73508 0.81914 0.0
H1742 H 0.45502 0.65681 0.79784 0.0
H1743 H 0.45012 0.69686 0.78967 0.0
H1744 H 0.40927 0.75595 0.81986 0.0
H1745 H 0.43963 0.74078 0.81556 0.0
H1746 H 0.36484 0.61336 0.87614 0.0
H1747 H 0.3923 0.5955 0.86327 0.0
H1748 H 0.33565 0.63947 0.85665 0.0
H1749 H 0.3345 0.68288 0.85961 0.0
C1750 C 0.30073 0.67408 0.66524 0.0
C1751 C 0.30441 0.69599 0.64071 0.0
C1752 C 0.25718 0.67494 0.61396 0.0
C1753 C 0.25209 0.65835 0.64201 0.0
N1754 N 0.2687 0.64648 0.69773 0.0
N1755 N 0.28351 0.72183 0.59554 0.0
C1756 C 0.27381 0.65877 0.66853 0.0
C1757 C 0.28187 0.69785 0.61626 0.0
N1758 N 0.32271 0.66792 0.68551 0.0
N1759 N 0.23855 0.66833 0.58473 0.0
H1760 H 0.30109 0.73914 0.59573 0.0
H1761 H 0.26648 0.72652 0.58046 0.0
H1762 H 0.2206 0.65056 0.58167 0.0
H1763 H 0.24241 0.67754 0.56233 0.0
H1764 H 0.32126 0.64923 0.70095 0.0
H1765 H 0.34263 0.67971 0.68512 0.0
H1766 H 0.28338 0.64971 0.71936 0.0
H1767 H 0.24927 0.63582 0.70159 0.0
C1768 C 0.75706 0.92468 0.82002 0.0
C1769 C 0.73868 0.93115 0.84487 0.0
C1770 C 0.75295 0.87972 0.86836 0.0
C1771 C 0.7711 0.87327 0.84344 0.0
N1772 N 0.79256 0.89437 0.79833 0.0
N1773 N 0.7186 0.91096 0.89172 0.0
C1774 C 0.77355 0.89724 0.82018 0.0
C1775 C 0.73656 0.90735 0.86855 0.0
N1776 N 0.75755 0.94355 0.79428 0.0
N1777 N 0.75273 0.86055 0.89379 0.0
H1778 H 0.70813 0.93146 0.89494 0.0
H1779 H 0.71316 0.89316 0.90709 0.0
H1780 H 0.76334 0.84014 0.89394 0.0
H1781 H 0.74415 0.86643 0.91614 0.0
H1782 H 0.76785 0.93879 0.77318 0.0
H1783 H 0.7455 0.96229 0.79211 0.0
H1784 H 0.79921 0.91304 0.78437 0.0
H1785 H 0.80298 0.87376 0.7957 0.0
C1786 C 0.78093 0.93429 0.57669 0.0
C1787 C 0.7994 0.94474 0.60825 0.0
C1788 C 0.76927 0.98532 0.628 0.0
C1789 C 0.75006 0.97271 0.59775 0.0
N1790 N 0.73507 0.92984 0.54687 0.0
N1791 N 0.80729 0.97536 0.66683 0.0
C1792 C 0.75513 0.94548 0.57334 0.0
C1793 C 0.79252 0.96903 0.63469 0.0
N1794 N 0.78851 0.91539 0.54876 0.0
N1795 N 0.76563 1.01338 0.65014 0.0
H1796 H 0.82353 0.963 0.67323 0.0
H1797 H 0.80173 0.99013 0.68804 0.0
H1798 H 0.74862 0.02525 0.64658 0.0
H1799 H 0.78037 0.02631 0.6705 0.0
H1800 H 0.77729 0.91061 0.52422 0.0
H1801 H 0.80731 0.90751 0.54873 0.0
H1802 H 0.73623 0.90723 0.53064 0.0
H1803 H 0.71613 0.93757 0.54313 0.0
C1804 C 0.41561 0.42447 0.85388 0.0
C1805 C 0.41286 0.44508 0.82733 0.0
C1806 C 0.3698 0.40313 0.80177 0.0
C1807 C 0.37246 0.38283 0.8284 0.0
N1808 N 0.39718 0.37786 0.88225 0.0
N1809 N 0.38888 0.44849 0.77237 0.0
C1810 C 0.39548 0.39437 0.8547 0.0
C1811 C 0.39012 0.43295 0.80059 0.0
N1812 N 0.43791 0.43349 0.87874 0.0
N1813 N 0.34729 0.39399 0.77723 0.0
H1814 H 0.40302 0.46953 0.77018 0.0
H1815 H 0.37529 0.43917 0.74985 0.0
H1816 H 0.3338 0.37107 0.77467 0.0
H1817 H 0.34124 0.40953 0.76021 0.0
H1818 H 0.44411 0.41766 0.89534 0.0
H1819 H 0.45118 0.4566 0.88219 0.0
H1820 H 0.41067 0.38677 0.90491 0.0
H1821 H 0.38373 0.35585 0.88349 0.0
C1822 C 0.25538 0.63338 0.33099 0.0
C1823 C 0.24103 0.63116 0.35988 0.0
C1824 C 0.26758 0.68927 0.38674 0.0
C1825 C 0.28001 0.69303 0.35635 0.0
N1826 N 0.29481 0.65929 0.30821 0.0
N1827 N 0.23299 0.65923 0.41502 0.0
C1828 C 0.27633 0.66248 0.33078 0.0
C1829 C 0.24701 0.6599 0.38749 0.0
N1830 N 0.24815 0.60829 0.30251 0.0
N1831 N 0.27783 0.71152 0.41662 0.0
H1832 H 0.22031 0.63744 0.41861 0.0
H1833 H 0.23274 0.6807 0.43337 0.0
H1834 H 0.29645 0.72769 0.4195 0.0
H1835 H 0.27095 0.71001 0.44012 0.0
H1836 H 0.25486 0.61039 0.27892 0.0
H1837 H 0.23353 0.58668 0.30146 0.0
H1838 H 0.29478 0.63689 0.29099 0.0
H1839 H 0.31289 0.67649 0.31055 0.0
C1840 C 0.53911 0.65583 0.50634 0.0
C1841 C 0.54462 0.68874 0.52744 0.0
C1842 C 0.56409 0.66379 0.5756 0.0
C1843 C 0.56057 0.63145 0.55387 0.0
N1844 N 0.55131 0.59936 0.49581 0.0
N1845 N 0.57018 0.725 0.57887 0.0
C1846 C 0.54998 0.62822 0.51839 0.0
C1847 C 0.55945 0.69296 0.56111 0.0
N1848 N 0.52246 0.65032 0.47554 0.0
N1849 N 0.57081 0.66663 0.6104 0.0
H1850 H 0.56872 0.74702 0.56848 0.0
H1851 H 0.58326 0.72944 0.6021 0.0
H1852 H 0.57361 0.64583 0.62226 0.0
H1853 H 0.57079 0.68897 0.62772 0.0
H1854 H 0.51538 0.62606 0.46096 0.0
H1855 H 0.51371 0.66952 0.46606 0.0
H1856 H 0.54627 0.59692 0.46923 0.0
H1857 H 0.56031 0.57942 0.5032 0.0
C1858 C 0.73483 0.34631 0.73751 0.0
C1859 C 0.70991 0.32493 0.73935 0.0
C1860 C 0.73537 0.29762 0.78149 0.0
C1861 C 0.76073 0.31564 0.7756 0.0
N1862 N 0.78407 0.35263 0.7423 0.0
N1863 N 0.68786 0.27543 0.75926 0.0
C1864 C 0.76023 0.33872 0.75198 0.0
C1865 C 0.71054 0.29932 0.76037 0.0
N1866 N 0.7342 0.37478 0.72293 0.0
N1867 N 0.73449 0.28 0.80818 0.0
H1868 H 0.66925 0.27532 0.74455 0.0
H1869 H 0.6882 0.25385 0.77067 0.0
H1870 H 0.75166 0.27825 0.82474 0.0
H1871 H 0.71631 0.26987 0.816 0.0
H1872 H 0.75143 0.39298 0.72338 0.0
H1873 H 0.71595 0.38218 0.71405 0.0
H1874 H 0.78492 0.36707 0.72273 0.0
H1875 H 0.80274 0.34634 0.75111 0.0
C1876 C 1.02138 0.37979 0.03136 0.0
C1877 C 0.04238 0.36179 0.02212 0.0
C1878 C 0.07601 0.41141 0.05162 0.0
C1879 C 0.05508 0.43168 0.05384 0.0
N1880 N 1.00725 0.43479 0.03799 0.0
N1881 N 0.09061 0.36233 0.02085 0.0
C1882 C 1.02749 0.41582 0.04188 0.0
C1883 C 0.06998 0.37815 0.03144 0.0
N1884 N 0.99569 0.3626 0.03058 0.0
N1885 N 0.10142 0.42315 0.06985 0.0
H1886 H 0.08736 0.33754 1.00727 0.0
H1887 H 0.11071 0.37486 0.02343 0.0
H1888 H 0.10646 0.44646 0.08666 0.0
H1889 H 0.11652 0.40799 0.07149 0.0
H1890 H 0.98004 0.37438 0.03955 0.0
H1891 H 0.99118 0.33606 0.02487 0.0
H1892 H 0.98744 0.42398 0.02644 0.0
H1893 H 1.01065 0.46134 0.04214 0.0
C1894 C 0.05045 0.77675 0.26382 0.0
C1895 C 0.05442 0.80308 0.24388 0.0
C1896 C 1.0072 0.81231 0.24851 0.0
C1897 C 1.00464 0.78918 0.27199 0.0
N1898 N 1.0264 0.75451 0.30731 0.0
N1899 N 1.03786 0.85102 0.22381 0.0
C1900 C 1.02704 0.77291 0.2812 0.0
C1901 C 1.0331 0.82222 0.23792 0.0
N1902 N 0.0682 0.75409 0.2648 0.0
N1903 N 0.98473 0.82417 0.23546 0.0
H1904 H 0.05681 0.86053 0.21754 0.0
H1905 H 1.02387 0.86763 0.22195 0.0
H1906 H 0.96542 0.8173 0.24227 0.0
H1907 H 0.98474 0.8381 0.21545 0.0
H1908 H 0.06477 0.73248 0.27614 0.0
H1909 H 0.08468 0.75457 0.25096 0.0
H1910 H 0.04328 0.74513 0.31753 0.0
H1911 H 1.00993 0.75152 0.32107 0.0
C1912 C 0.57256 0.34524 0.17177 0.0
C1913 C 0.5567 0.31478 0.15138 0.0
C1914 C 0.58613 0.31829 0.1073 0.0
C1915 C 0.59866 0.35115 0.12381 0.0
N1916 N 0.60614 0.39606 0.17316 0.0
N1917 N 0.54096 0.28642 0.0925 0.0
C1918 C 0.59316 0.36429 0.1571 0.0
C1919 C 0.56136 0.30487 0.11702 0.0
N1920 N 0.56682 0.35718 0.20381 0.0
N1921 N 0.59549 0.30278 0.07905 0.0
H1922 H 0.52091 0.28087 0.09746 0.0
H1923 H 0.54338 0.28074 0.06657 0.0
H1924 H 0.61327 0.31383 0.07081 0.0
H1925 H 0.58686 0.27811 0.0664 0.0
H1926 H 0.58002 0.37583 0.22176 0.0
H1927 H 0.54822 0.34935 0.21195 0.0
H1928 H 0.60108 0.40935 0.19556 0.0
H1929 H 0.62208 0.40939 0.16336 0.0
C1930 C 1.04037 0.33857 0.48502 0.0
C1931 C 0.06042 0.36684 0.4831 0.0
C1932 C 1.02829 0.38713 0.44336 0.0
C1933 C 1.00788 0.35965 0.44633 0.0
N1934 N 0.99686 0.3034 0.45989 0.0
N1935 N 0.07676 0.4086 0.44969 0.0
C1936 C 1.01478 0.33337 0.46386 0.0
C1937 C 0.05551 0.38807 0.45866 0.0
N1938 N 0.04563 0.31703 0.5074 0.0
N1939 N 1.02154 0.41327 0.42781 0.0
H1940 H 0.097 0.40851 0.45938 0.0
H1941 H 0.07448 0.42261 0.42992 0.0
H1942 H 1.00179 0.41369 0.41646 0.0
H1943 H 1.03517 0.43569 0.42848 0.0
H1944 H 1.03077 0.29853 0.51304 0.0
H1945 H 0.06479 0.31856 0.52146 0.0
H1946 H 1.00156 0.28207 0.46957 0.0
H1947 H 0.97817 0.29874 0.44385 0.0
C1948 C 1.03695 0.65171 0.62851 0.0
C1949 C 1.01004 0.65692 0.61837 0.0
C1950 C 1.01021 0.62011 0.56288 0.0
C1951 C 1.03739 0.61708 0.5741 0.0
N1952 N 0.07914 0.64784 0.60621 0.0
N1953 N 0.97197 0.64932 0.57288 0.0
C1954 C 0.05169 0.63913 0.60304 0.0
C1955 C 0.99689 0.64219 0.58434 0.0
N1956 N 0.04766 0.6552 0.66213 0.0
N1957 N 0.99736 0.60122 0.53217 0.0
H1958 H 0.96096 0.66327 0.58901 0.0
H1959 H 0.9627 0.64232 0.54736 0.0
H1960 H 1.00788 0.58666 0.51581 0.0
H1961 H 0.97672 0.59954 0.52341 0.0
H1962 H 0.0667 0.64868 0.66903 0.0
H1963 H 1.03589 0.65829 0.68202 0.0
H1964 H 0.0904 0.66482 0.62746 0.0
H1965 H 0.08927 0.64114 0.58521 0.0
C1966 C 0.7022 0.81905 0.93172 0.0
C1967 C 0.68033 0.8368 0.92454 0.0
C1968 C 0.67027 0.80549 0.86557 0.0
C1969 C 0.69159 0.78704 0.87235 0.0
N1970 N 0.73229 0.78175 0.9092 0.0
N1971 N 0.65364 0.85824 0.88104 0.0
C1972 C 0.70877 0.79509 0.90481 0.0
C1973 C 0.66761 0.83362 0.8902 0.0
N1974 N 0.71737 0.82592 0.96362 0.0
N1975 N 0.65215 0.79565 0.83591 0.0
H1976 H 0.65323 0.88058 0.89827 0.0
H1977 H 0.64563 0.85847 0.85567 0.0
H1978 H 0.653 0.7743 0.8176 0.0
H1979 H 0.63479 0.80661 0.83129 0.0
H1980 H 0.72992 0.80983 0.97259 0.0
H1981 H 0.71844 0.84872 0.98064 0.0
H1982 H 0.74682 0.7888 0.93111 0.0
H1983 H 0.73884 0.7656 0.88986 0.0
C1984 C 0.5076 0.57839 0.7169 0.0
C1985 C 0.49952 0.54717 0.72917 0.0
C1986 C 0.52736 0.52044 0.68529 0.0
C1987 C 0.53417 0.55104 0.67124 0.0
N1988 N 0.5225 0.60703 0.67041 0.0
N1989 N 0.49591 0.48622 0.71431 0.0
C1990 C 0.52184 0.57929 0.68629 0.0
C1991 C 0.50773 0.51778 0.70992 0.0
N1992 N 0.50252 0.6079 0.73505 0.0
N1993 N 0.54069 0.49373 0.67701 0.0
H1994 H 0.4809 0.48285 0.73025 0.0
H1995 H 0.49841 0.46368 0.69898 0.0
H1996 H 0.55575 0.49414 0.66111 0.0
H1997 H 0.53907 0.47257 0.68923 0.0
H1998 H 0.51042 0.632 0.73058 0.0
H1999 H 0.4919 0.60813 0.75619 0.0
H2000 H 0.51185 0.62683 0.67731 0.0
H2001 H 0.53101 0.60835 0.64779 0.0
C2002 C 0.84859 0.28276 0.06554 0.0
C2003 C 0.85339 0.24886 0.05892 0.0
C2004 C 0.81469 0.23658 1.01237 0.0
C2005 C 0.80848 0.26944 0.02402 0.0
N2006 N 0.81353 0.31733 0.07 0.0
N2007 N 0.84157 0.19281 0.02292 0.0
C2008 C 0.82265 0.2892 0.05484 0.0
C2009 C 0.83639 0.22517 0.03158 0.0
N2010 N 0.86936 0.3092 0.07879 0.0
N2011 N 0.80123 0.2176 0.98196 0.0
H2012 H 0.85994 0.18565 0.03154 0.0
H2013 H 0.82779 0.17332 1.00668 0.0
H2014 H 0.78462 0.22479 0.96835 0.0
H2015 H 0.80695 0.19541 0.96981 0.0
H2016 H 0.86653 0.33463 0.08187 0.0
H2017 H 0.8896 0.30554 0.08306 0.0
H2018 H 0.8238 0.33254 0.09291 0.0
H2019 H 0.79466 0.32309 0.0608 0.0
C2020 C 0.1507 0.55866 0.23587 0.0
C2021 C 0.15488 0.52727 0.2468 0.0
C2022 C 0.12683 0.49793 0.19008 0.0
C2023 C 0.1193 0.52927 0.18222 0.0
N2024 N 0.12135 0.58911 0.20343 0.0
N2025 N 0.14574 0.46618 0.23267 0.0
C2026 C 0.13073 0.55945 0.20668 0.0
C2027 C 0.14291 0.49667 0.22306 0.0
N2028 N 0.16627 0.5884 0.25358 0.0
N2029 N 0.11815 0.469 0.16608 0.0
H2030 H 0.15772 0.46472 0.25551 0.0
H2031 H 0.13548 0.44268 0.21899 0.0
H2032 H 0.1057 0.46906 0.14318 0.0
H2033 H 0.12466 0.44585 0.16769 0.0
H2034 H 0.16628 0.61181 0.24549 0.0
H2035 H 0.18145 0.58887 0.2741 0.0
H2036 H 0.12613 0.61093 0.22247 0.0
H2037 H 0.10698 0.5911 0.18297 0.0
C2038 C 0.85119 0.88062 0.48966 0.0
C2039 C 0.86593 0.86787 0.51672 0.0
C2040 C 0.86558 0.81482 0.47562 0.0
C2041 C 0.85245 0.82848 0.44887 0.0
N2042 N 0.84186 0.87896 0.42833 0.0
N2043 N 0.8958 0.82809 0.52947 0.0
C2044 C 0.84801 0.86269 0.45526 0.0
C2045 C 0.8756 0.83641 0.50797 0.0
N2046 N 0.83901 0.90881 0.49578 0.0
N2047 N 0.86819 0.78117 0.47049 0.0
H2048 H 0.90623 0.84527 0.55086 0.0
H2049 H 0.90493 0.80671 0.52323 0.0
H2050 H 0.86102 0.76463 0.44714 0.0
H2051 H 0.8752 0.76914 0.49035 0.0
H2052 H 0.82452 0.91447 0.47746 0.0
H2053 H 0.84139 0.92589 0.51868 0.0
H2054 H 0.84171 0.90515 0.43148 0.0
H2055 H 0.84001 0.86734 0.40261 0.0
C2056 C 0.48307 0.52796 0.93999 0.0
C2057 C 0.49253 0.55163 0.91865 0.0
C2058 C 0.53332 0.5719 0.96469 0.0
C2059 C 0.52582 0.54522 0.98364 0.0
N2060 N 0.49278 0.49615 0.98645 0.0
N2061 N 0.52913 0.59494 0.91141 0.0
C2062 C 0.5005 0.52278 0.97021 0.0
C2063 C 0.51846 0.57293 0.93123 0.0
N2064 N 0.45692 0.51073 0.93199 0.0
N2065 N 0.5542 0.59763 0.97935 0.0
H2066 H 0.51831 0.59942 0.88903 0.0
H2067 H 0.54931 0.60742 0.91617 0.0
H2068 H 0.56452 0.5984 1.00366 0.0
H2069 H 0.55918 0.61986 0.96944 0.0
H2070 H 0.44733 0.49632 0.94815 0.0
H2071 H 0.44401 0.51277 0.91016 0.0
H2072 H 0.47671 0.47629 0.97616 0.0
H2073 H 0.50351 0.4928 1.00943 0.0
C2074 C 0.90233 0.26918 0.21809 0.0
C2075 C 0.90633 0.3002 0.2062 0.0
C2076 C 0.89338 0.32988 0.25879 0.0
C2077 C 0.88286 0.29754 0.26636 0.0
N2078 N 0.87912 0.236 0.25473 0.0
N2079 N 0.92008 0.36072 0.22237 0.0
C2080 C 0.88831 0.26702 0.24682 0.0
C2081 C 0.90669 0.33095 0.2292 0.0
N2082 N 0.91346 0.2428 0.20298 0.0
N2083 N 0.88991 0.35925 0.27914 0.0
H2084 H 0.93073 0.36086 0.20123 0.0
H2085 H 0.92281 0.38419 0.23879 0.0
H2086 H 0.88083 0.35945 0.30152 0.0
H2087 H 0.89483 0.38346 0.27315 0.0
H2088 H 0.91308 0.21963 0.21161 0.0
H2089 H 0.92637 0.24661 0.18462 0.0
H2090 H 0.86757 0.2334 0.27445 0.0
H2091 H 0.88066 0.21283 0.2398 0.0
C2092 C 0.17136 0.55808 0.46715 0.0
C2093 C 0.16243 0.5325 0.43686 0.0
C2094 C 0.11827 0.51957 0.46121 0.0
C2095 C 0.12748 0.5437 0.49295 0.0
N2096 N 0.16048 0.59476 0.51699 0.0
N2097 N 0.12919 0.48298 0.41128 0.0
C2098 C 0.15364 0.56503 0.49357 0.0
C2099 C 0.13642 0.51177 0.4359 0.0
N2100 N 0.1972 0.57613 0.47097 0.0
N2101 N 0.09112 0.5065 0.45262 0.0
H2102 H 0.14159 0.47587 0.39296 0.0
H2103 H 0.11254 0.46417 0.41157 0.0
H2104 H 0.07618 0.51583 0.46565 0.0
H2105 H 0.08277 0.49103 0.42909 0.0
H2106 H 0.20706 0.59137 0.49397 0.0
H2107 H 0.20974 0.57375 0.45182 0.0
H2108 H 0.17784 0.61278 0.51778 0.0
H2109 H 0.14691 0.60464 0.53206 0.0
C2110 C 0.85057 0.814 0.68961 0.0
C2111 C 0.86222 0.84908 0.69509 0.0
C2112 C 0.85748 0.85225 0.75686 0.0
C2113 C 0.84891 0.81607 0.75144 0.0
N2114 N 0.84783 0.76248 0.71344 0.0
N2115 N 0.88151 0.90037 0.73586 0.0
C2116 C 0.84883 0.79703 0.71807 0.0
C2117 C 0.86708 0.86796 0.72933 0.0
N2118 N 0.84018 0.79684 0.65713 0.0
N2119 N 0.85552 0.87191 0.78744 0.0
H2120 H 0.88868 0.91248 0.71649 0.0
H2121 H 0.8882 0.91402 0.76071 0.0
H2122 H 0.84888 0.86171 0.8081 0.0
H2123 H 0.85869 0.8985 0.79141 0.0
H2124 H 0.82942 0.77193 0.65239 0.0
H2125 H 0.83937 0.80877 0.6356 0.0
H2126 H 0.84971 0.74797 0.68989 0.0
H2127 H 0.84871 0.74921 0.73395 0.0
C2128 C 0.74644 0.45721 0.57953 0.0
C2129 C 0.74136 0.42675 0.59326 0.0
C2130 C 0.71059 0.45246 0.62914 0.0
C2131 C 0.71892 0.48429 0.61897 0.0
N2132 N 0.74941 0.51846 0.59 0.0
N2133 N 0.7221 0.39725 0.63567 0.0
C2134 C 0.73842 0.48713 0.596 0.0
C2135 C 0.72439 0.42479 0.61937 0.0
N2136 N 0.75751 0.45721 0.5496 0.0
N2137 N 0.68877 0.44804 0.64663 0.0
H2138 H 0.73247 0.3769 0.63001 0.0
H2139 H 0.71182 0.3961 0.65692 0.0
H2140 H 0.67783 0.46745 0.65386 0.0
H2141 H 0.68004 0.42426 0.65109 0.0
H2142 H 0.75914 0.47806 0.53693 0.0
H2143 H 0.76194 0.43523 0.53519 0.0
H2144 H 0.76547 0.52203 0.57568 0.0
H2145 H 0.74443 0.54115 0.6023 0.0
C2146 C 0.18372 0.14642 0.58714 0.0
C2147 C 0.19898 0.13787 0.55976 0.0
C2148 C 0.16714 0.08322 0.54211 0.0
C2149 C 0.14899 0.0944 0.56516 0.0
N2150 N 0.14089 0.13813 0.61016 0.0
N2151 N 0.20265 0.09938 0.50815 0.0
C2152 C 0.15763 0.12638 0.58793 0.0
C2153 C 0.18995 0.10662 0.53643 0.0
N2154 N 0.19472 0.17291 0.61342 0.0
N2155 N 0.16412 0.04952 0.52762 0.0
H2156 H 0.21927 0.11571 0.50293 0.0
H2157 H 0.19505 0.07872 0.48831 0.0
H2158 H 0.15021 0.03061 0.53431 0.0
H2159 H 0.17809 0.03963 0.51304 0.0
H2160 H 0.1863 0.17817 0.63606 0.0
H2161 H 0.21384 0.18766 0.61436 0.0
H2162 H 0.14451 0.1627 0.62457 0.0
H2163 H 0.12249 0.12398 0.61306 0.0
C2164 C 0.2647 0.93096 0.8209 0.0
C2165 C 0.24373 0.93248 0.84298 0.0
C2166 C 0.25265 0.8737 0.85283 0.0
C2167 C 0.27569 0.87407 0.83397 0.0
N2168 N 0.30492 0.90829 0.80391 0.0
N2169 N 0.22277 0.90514 0.88544 0.0
C2170 C 0.28207 0.90445 0.81957 0.0
C2171 C 0.23907 0.90357 0.86013 0.0
N2172 N 0.26711 0.95369 0.79883 0.0
N2173 N 0.24333 0.84453 0.86427 0.0
H2174 H 0.21344 0.92609 0.89266 0.0
H2175 H 0.22081 0.8874 0.90185 0.0
H2176 H 0.25281 0.82323 0.86128 0.0
H2177 H 0.22499 0.84048 0.87422 0.0
H2178 H 0.27964 0.95226 0.77964 0.0
H2179 H 0.2541 0.97139 0.79663 0.0
H2180 H 0.31316 0.93127 0.7972 0.0
H2181 H 0.31672 0.88917 0.79967 0.0
C2182 C 0.37499 0.89729 0.06712 0.0
C2183 C 0.36121 0.87337 0.03761 0.0
C2184 C 0.39756 0.893 1.00471 0.0
C2185 C 0.41041 0.91745 0.0339 0.0
N2186 N 0.40713 0.94946 0.08941 0.0
N2187 N 0.35997 0.84838 0.97778 0.0
C2188 C 0.39794 0.92146 0.06414 0.0
C2189 C 0.37258 0.8714 1.0062 0.0
N2190 N 0.36726 0.89551 0.09869 0.0
N2191 N 0.40826 0.89212 0.97458 0.0
H2192 H 0.33985 0.83626 0.97488 0.0
H2193 H 0.36965 0.84074 0.95687 0.0
H2194 H 0.42826 0.90292 0.97312 0.0
H2195 H 0.3964 0.88318 0.95078 0.0
H2196 H 0.37797 0.91008 0.12161 0.0
H2197 H 0.35212 0.87639 0.10231 0.0
H2198 H 0.39668 0.95607 0.11003 0.0
H2199 H 0.42363 0.96809 0.08794 0.0
C2200 C 0.91008 0.67008 0.86625 0.0
C2201 C 0.91609 0.65139 0.83476 0.0
C2202 C 0.88821 0.68899 0.80432 0.0
C2203 C 0.88035 0.70571 0.83557 0.0
N2204 N 0.88216 0.70709 0.89648 0.0
N2205 N 0.90757 0.64266 0.77299 0.0
C2206 C 0.89116 0.6949 0.86649 0.0
C2207 C 0.90401 0.66084 0.80372 0.0
N2208 N 0.92267 0.66423 0.89658 0.0
N2209 N 0.88179 0.70134 0.77488 0.0
H2210 H 0.9199 0.62389 0.77135 0.0
H2211 H 0.89715 0.64467 0.74936 0.0
H2212 H 0.87091 0.72145 0.77438 0.0
H2213 H 0.88927 0.69402 0.75193 0.0
H2214 H 0.92222 0.67898 0.92046 0.0
H2215 H 0.93539 0.646 0.89761 0.0
H2216 H 0.88603 0.6979 0.9193 0.0
H2217 H 0.86873 0.72458 0.89785 0.0
C2218 C 0.85588 0.59651 0.06422 0.0
C2219 C 0.85647 0.63242 0.06689 0.0
C2220 C 0.90644 0.64145 0.08513 0.0
C2221 C 0.90521 0.60608 0.08536 0.0
N2222 N 0.87833 0.55014 0.07901 0.0
N2223 N 0.88554 0.68516 0.0626 0.0
C2224 C 0.87979 0.58371 0.07597 0.0
C2225 C 0.88262 0.65403 0.07269 0.0
N2226 N 0.83349 0.57432 0.04664 0.0
N2227 N 0.9304 0.66334 0.09742 0.0
H2228 H 0.87047 0.69281 0.0468 0.0
H2229 H 0.9043 0.7009 0.0642 0.0
H2230 H 0.94843 0.65509 0.10567 0.0
H2231 H 0.93184 0.6898 0.10234 0.0
H2232 H 0.8325 0.54796 0.04131 0.0
H2233 H 0.81756 0.58226 0.03247 0.0
H2234 H 0.86 0.53343 0.07701 0.0
H2235 H 0.89542 0.53958 0.08639 0.0
C2236 C 0.25348 0.16281 0.88641 0.0
C2237 C 0.24825 0.13125 0.86211 0.0
C2238 C 0.28367 0.1591 0.83025 0.0
C2239 C 0.28749 0.19146 0.85318 0.0
N2240 N 0.27275 0.22378 0.90153 0.0
N2241 N 0.25585 0.10314 0.80679 0.0
C2242 C 0.27122 0.19306 0.88059 0.0
C2243 C 0.26289 0.13052 0.83312 0.0
N2244 N 0.24244 0.16348 0.91638 0.0
N2245 N 0.30005 0.15532 0.80515 0.0
H2246 H 0.24114 0.08214 0.80751 0.0
H2247 H 0.26278 0.10243 0.78299 0.0
H2248 H 0.31335 0.17558 0.79959 0.0
H2249 H 0.30148 0.13175 0.79091 0.0
H2250 H 0.24717 0.18383 0.93699 0.0
H2251 H 0.23045 0.14216 0.92211 0.0
H2252 H 0.25973 0.22851 0.9197 0.0
H2253 H 0.28568 0.24552 0.89851 0.0
C2254 C 0.42111 0.94025 0.3699 0.0
C2255 C 0.42041 0.95787 0.34125 0.0
C2256 C 0.37963 0.91411 0.31324 0.0
C2257 C 0.38175 0.89505 0.34076 0.0
N2258 N 0.40968 0.88741 0.39164 0.0
N2259 N 0.40093 0.95697 0.28278 0.0
C2260 C 0.40386 0.90763 0.36811 0.0
C2261 C 0.40008 0.94351 0.31221 0.0
N2262 N 0.4379 0.95517 0.39971 0.0
N2263 N 0.3574 0.90496 0.28842 0.0
H2264 H 0.41519 0.97809 0.28102 0.0
H2265 H 0.38908 0.94559 0.25937 0.0
H2266 H 0.34228 0.88432 0.28858 0.0
H2267 H 0.35273 0.91939 0.26966 0.0
H2268 H 0.43716 0.94609 0.4228 0.0
H2269 H 0.45076 0.97854 0.40229 0.0
H2270 H 0.42716 0.89305 0.40985 0.0
H2271 H 0.39872 0.86306 0.39062 0.0
C2272 C 0.62791 0.43138 0.67703 0.0
C2273 C 0.61786 0.39681 0.66151 0.0
C2274 C 0.59895 0.41691 0.60958 0.0
C2275 C 0.60589 0.45129 0.6269 0.0
N2276 N 0.6198 0.48948 0.6815 0.0
N2277 N 0.58579 0.35847 0.6163 0.0
C2278 C 0.61849 0.45811 0.66184 0.0
C2279 C 0.60126 0.38993 0.62856 0.0
N2280 N 0.64699 0.43899 0.70582 0.0
N2281 N 0.5904 0.40978 0.5749 0.0
H2282 H 0.5839 0.33888 0.63057 0.0
H2283 H 0.57176 0.35337 0.59384 0.0
H2284 H 0.58892 0.42876 0.56 0.0
H2285 H 0.58758 0.38517 0.56055 0.0
H2286 H 0.6567 0.46386 0.71619 0.0
H2287 H 0.65544 0.42036 0.71684 0.0
H2288 H 0.62681 0.49495 0.70785 0.0
H2289 H 0.61035 0.50838 0.67256 0.0
C2290 C 0.4358 0.74703 0.41286 0.0
C2291 C 0.44781 0.77357 0.44067 0.0
C2292 C 0.40678 0.80062 0.43224 0.0
C2293 C 0.39558 0.7755 0.40253 0.0
N2294 N 0.40715 0.73325 0.35785 0.0
N2295 N 0.44795 0.83138 0.46875 0.0
C2296 C 0.41218 0.75097 0.39087 0.0
C2297 C 0.43423 0.80207 0.44792 0.0
N2298 N 0.44638 0.71758 0.40755 0.0
N2299 N 0.39126 0.82279 0.44639 0.0
H2300 H 0.46845 0.83431 0.47906 0.0
H2301 H 0.44001 0.854 0.47225 0.0
H2302 H 0.37128 0.82317 0.43617 0.0
H2303 H 0.39755 0.83889 0.47014 0.0
H2304 H 0.43661 0.69611 0.38974 0.0
H2305 H 0.46338 0.71345 0.42308 0.0
H2306 H 0.41993 0.71714 0.34791 0.0
H2307 H 0.39325 0.73856 0.33876 0.0
C2308 C 0.13093 0.69768 0.16165 0.0
C2309 C 0.11613 0.72116 0.14818 0.0
C2310 C 0.08483 0.67387 0.10997 0.0
C2311 C 0.10109 0.65048 0.12123 0.0
N2312 N 0.14142 0.6404 0.15533 0.0
N2313 N 0.08078 0.7328 0.10736 0.0
C2314 C 0.12467 0.66247 0.14637 0.0
C2315 C 0.09355 0.70956 0.12175 0.0
N2316 N 0.15085 0.70904 0.18939 0.0
N2317 N 0.06091 0.66203 0.08821 0.0
H2318 H 0.08542 0.75903 0.11664 0.0
H2319 H 0.0667 0.72644 0.08497 0.0
H2320 H 0.05437 0.63642 0.07733 0.0
H2321 H 0.04655 0.67727 0.08245 0.0
H2322 H 0.16001 0.69297 0.20344 0.0
H2323 H 0.15691 0.73481 0.20002 0.0
H2324 H 0.16051 0.64819 0.17019 0.0
H2325 H 0.13721 0.61418 0.14636 0.0
C2326 C 0.11235 0.30689 0.92521 0.0
C2327 C 0.10277 0.27439 0.93304 0.0
C2328 C 0.14886 0.2603 0.9298 0.0
C2329 C 0.15666 0.29011 0.91551 0.0
N2330 N 0.15238 0.34939 0.9294 0.0
N2331 N 0.11212 0.21931 0.94217 0.0
C2332 C 0.14025 0.31592 0.92126 0.0
C2333 C 0.12109 0.25079 0.93501 0.0
N2334 N 0.09493 0.32957 0.92175 0.0
N2335 N 0.16854 0.2454 0.94519 0.0
H2336 H 0.09215 0.21183 0.94663 0.0
H2337 H 0.12383 0.19991 0.94069 0.0
H2338 H 0.18889 0.25746 0.95038 0.0
H2339 H 0.16433 0.22521 0.95834 0.0
H2340 H 0.10056 0.35248 0.9132 0.0
H2341 H 0.07431 0.324 0.92416 0.0
H2342 H 0.14187 0.36915 0.9371 0.0
H2343 H 0.17357 0.35657 0.93355 0.0
C2344 C 0.58804 0.75053 0.99914 0.0
C2345 C 0.61482 0.76368 0.01618 0.0
C2346 C 0.60878 0.73025 0.0608 0.0
C2347 C 0.58116 0.71868 0.04562 0.0
N2348 N 0.54588 0.71097 0.99695 0.0
N2349 N 0.65389 0.75618 0.05259 0.0
C2350 C 0.57118 0.72647 1.01344 0.0
C2351 C 0.62633 0.74921 0.04295 0.0
N2352 N 0.57852 0.76286 0.97079 0.0
N2353 N 0.61788 0.72403 0.09267 0.0
H2354 H 0.66649 0.77127 0.03959 0.0
H2355 H 0.66408 0.74466 0.07072 0.0
H2356 H 0.60539 0.71086 0.10723 0.0
H2357 H 0.63721 0.73445 0.10599 0.0
H2358 H 0.55833 0.75731 0.959 0.0
H2359 H 0.59124 0.77927 0.95926 0.0
H2360 H 0.53828 0.71339 0.9721 0.0
H2361 H 0.53279 0.69431 1.00779 0.0
C2362 C 0.12914 0.75578 0.68902 0.0
C2363 C 0.10683 0.73074 0.6924 0.0
C2364 C 0.13745 0.70298 0.72655 0.0
C2365 C 0.15935 0.72903 0.72518 0.0
N2366 N 0.1751 0.78461 0.71235 0.0
N2367 N 0.08929 0.68968 0.72693 0.0
C2368 C 0.15496 0.75676 0.70844 0.0
C2369 C 0.11069 0.70715 0.71501 0.0
N2370 N 0.1256 0.7792 0.66815 0.0
N2371 N 0.14209 0.67356 0.73758 0.0
H2372 H 0.06924 0.69318 0.72164 0.0
H2373 H 0.09194 0.67464 0.74577 0.0
H2374 H 0.16154 0.66877 0.74537 0.0
H2375 H 0.12674 0.65245 0.73546 0.0
H2376 H 0.14175 0.79488 0.66114 0.0
H2377 H 0.10655 0.78227 0.65672 0.0
H2378 H 0.1723 0.80704 0.70351 0.0
H2379 H 0.19396 0.78661 0.72743 0.0
C2380 C 0.14304 0.44548 0.54298 0.0
C2381 C 0.15503 0.42753 0.5663 0.0
C2382 C 0.13347 0.45754 0.6119 0.0
C2383 C 0.11775 0.46989 0.58618 0.0
N2384 N 0.1008 0.4633 0.52629 0.0
N2385 N 0.16471 0.41888 0.62484 0.0
C2386 C 0.12049 0.46007 0.55135 0.0
C2387 C 0.15128 0.43449 0.60164 0.0
N2388 N 0.15329 0.44875 0.5132 0.0
N2389 N 0.13152 0.46834 0.64576 0.0
H2390 H 0.17956 0.4044 0.61802 0.0
H2391 H 0.16094 0.41981 0.65018 0.0
H2392 H 0.11733 0.48363 0.65319 0.0
H2393 H 0.1441 0.46287 0.66618 0.0
H2394 H 0.14543 0.46294 0.49578 0.0
H2395 H 0.17193 0.44133 0.5091 0.0
H2396 H 0.10221 0.45728 0.50017 0.0
H2397 H 0.0819 0.46791 0.53243 0.0
C2398 C 0.48613 0.24444 0.28654 0.0
C2399 C 0.48459 0.25573 0.25431 0.0
C2400 C 0.47394 0.30955 0.28117 0.0
C2401 C 0.47099 0.29689 0.31188 0.0
N2402 N 0.47107 0.24971 0.34282 0.0
N2403 N 0.46299 0.29217 0.22016 0.0
C2404 C 0.47655 0.26368 0.31466 0.0
C2405 C 0.47439 0.28628 0.25113 0.0
N2406 N 0.49556 0.21482 0.28982 0.0
N2407 N 0.47394 0.34328 0.28016 0.0
H2408 H 0.45739 0.27307 0.19845 0.0
H2409 H 0.45445 0.31395 0.21781 0.0
H2410 H 0.47335 0.36094 0.30227 0.0
H2411 H 0.47727 0.35372 0.25824 0.0
H2412 H 0.50016 0.2074 0.3135 0.0
H2413 H 0.49904 0.19789 0.26866 0.0
H2414 H 0.47197 0.22433 0.34451 0.0
H2415 H 0.464 0.2629 0.36379 0.0
C2416 C 0.64494 0.50085 0.44155 0.0
C2417 C 0.66902 0.52556 0.44271 0.0
C2418 C 0.65741 0.55337 0.50063 0.0
C2419 C 0.63342 0.52806 0.49961 0.0
N2420 N 0.6006 0.48562 0.45984 0.0
N2421 N 0.69906 0.57402 0.47699 0.0
C2422 C 0.62647 0.50385 0.46761 0.0
C2423 C 0.67533 0.55134 0.47341 0.0
N2424 N 0.64 0.47287 0.41588 0.0
N2425 N 0.66225 0.58107 0.52657 0.0
H2426 H 0.71156 0.57424 0.4577 0.0
H2427 H 0.70741 0.59104 0.49955 0.0
H2428 H 0.64929 0.58466 0.54499 0.0
H2429 H 0.67736 0.6022 0.52816 0.0
H2430 H 0.62535 0.45151 0.41561 0.0
H2431 H 0.6525 0.46933 0.39678 0.0
H2432 H 0.59299 0.4703 0.436 0.0
H2433 H 0.58528 0.48974 0.47485 0.0
C2434 C 0.30971 0.77175 0.1145 0.0
C2435 C 0.29512 0.79753 0.10646 0.0
C2436 C 0.32993 0.84014 0.14505 0.0
C2437 C 0.34546 0.81406 0.14981 0.0
N2438 N 0.3545 0.75837 0.12587 0.0
N2439 N 0.28574 0.85347 0.12495 0.0
C2440 C 0.33695 0.78108 0.12985 0.0
C2441 C 0.30387 0.83143 0.1243 0.0
N2442 N 0.29713 0.73847 0.10894 0.0
N2443 N 0.33969 0.87249 0.16259 0.0
H2444 H 0.26526 0.84469 0.11508 0.0
H2445 H 0.28989 0.87846 0.13835 0.0
H2446 H 0.35878 0.87841 0.1779 0.0
H2447 H 0.33026 0.89347 0.16002 0.0
H2448 H 0.30676 0.71913 0.11678 0.0
H2449 H 0.27616 0.73141 0.10089 0.0
H2450 H 0.34876 0.73435 0.11027 0.0
H2451 H 0.3754 0.7653 0.13366 0.0
C2452 C 1.00578 0.53067 0.93716 0.0
C2453 C 1.00018 0.56291 0.92937 0.0
C2454 C 1.03316 0.58969 0.9834 0.0
C2455 C 1.03686 0.55732 0.99244 0.0
N2456 N 1.02229 0.49669 0.9787 0.0
N2457 N 1.00662 0.62332 0.95034 0.0
C2458 C 1.02166 0.5279 0.96953 0.0
C2459 C 1.01319 0.59233 0.95434 0.0
N2460 N 0.99677 0.50223 0.9128 0.0
N2461 N 0.04984 0.61831 1.00168 0.0
H2462 H 0.99321 0.62646 0.92939 0.0
H2463 H 1.01271 0.64527 0.96902 0.0
H2464 H 0.06447 0.6174 0.02228 0.0
H2465 H 0.05076 0.6423 0.99476 0.0
H2466 H 1.00245 0.47856 0.91414 0.0
H2467 H 0.98527 0.50334 0.88979 0.0
H2468 H 1.00957 0.47438 0.96581 0.0
H2469 H 1.03391 0.49367 1.00122 0.0
C2470 C 0.32018 0.25672 0.67277 0.0
C2471 C 0.2988 0.22851 0.66062 0.0
C2472 C 0.29225 0.22411 0.72024 0.0
C2473 C 0.3116 0.25454 0.73215 0.0
N2474 N 0.34202 0.30209 0.71998 0.0
N2475 N 0.26261 0.18696 0.67201 0.0
C2476 C 0.3252 0.27136 0.70849 0.0
C2477 C 0.28443 0.21248 0.68416 0.0
N2478 N 0.33605 0.26898 0.65014 0.0
N2479 N 0.28202 0.20567 0.74343 0.0
H2480 H 0.2569 0.17684 0.64588 0.0
H2481 H 0.2491 0.17723 0.68754 0.0
H2482 H 0.28698 0.21344 0.77003 0.0
H2483 H 0.27036 0.18134 0.73646 0.0
H2484 H 0.35369 0.28718 0.65767 0.0
H2485 H 0.33292 0.25873 0.62388 0.0
H2486 H 0.3502 0.31754 0.70371 0.0
H2487 H 0.34616 0.3136 0.74589 0.0
C2488 C 0.64487 0.55288 0.24599 0.0
C2489 C 0.65844 0.52539 0.25376 0.0
C2490 C 0.64219 0.49907 0.19112 0.0
C2491 C 0.62461 0.52395 0.18618 0.0
N2492 N 0.60356 0.56674 0.21836 0.0
N2493 N 0.66599 0.46896 0.23141 0.0
C2494 C 0.6244 0.5485 0.21636 0.0
C2495 C 0.65594 0.49749 0.22555 0.0
N2496 N 0.65181 0.58424 0.26661 0.0
N2497 N 0.64693 0.47761 0.16312 0.0
H2498 H 0.67614 0.46724 0.25535 0.0
H2499 H 0.66241 0.44643 0.21334 0.0
H2500 H 0.63864 0.47835 0.13808 0.0
H2501 H 0.66128 0.46142 0.16454 0.0
H2502 H 0.6439 0.60551 0.26062 0.0
H2503 H 0.6679 0.5899 0.28684 0.0
H2504 H 0.60186 0.58339 0.2407 0.0
H2505 H 0.58596 0.56124 0.20034 0.0
C2506 C 0.27806 0.84782 0.94736 0.0
C2507 C 0.26637 0.82568 0.96771 0.0
C2508 C 0.28327 0.77788 0.93562 0.0
C2509 C 0.29751 0.80105 0.91799 0.0
N2510 N 0.31428 0.85915 0.91415 0.0
N2511 N 0.24865 0.76809 0.97274 0.0
C2512 C 0.2964 0.83634 0.92573 0.0
C2513 C 0.26618 0.79003 0.95923 0.0
N2514 N 0.2707 0.87916 0.94755 0.0
N2515 N 0.28681 0.74454 0.93016 0.0
H2516 H 0.23464 0.77679 0.98811 0.0
H2517 H 0.24612 0.74162 0.96629 0.0
H2518 H 0.29995 0.73576 0.91348 0.0
H2519 H 0.27881 0.7265 0.94406 0.0
H2520 H 0.27735 0.89551 0.93117 0.0
H2521 H 0.25495 0.88651 0.96052 0.0
H2522 H 0.31612 0.88554 0.92117 0.0
H2523 H 0.32978 0.85102 0.90172 0.0
C2524 C 1.01128 0.52083 0.72383 0.0
C2525 C 0.99902 0.54947 0.73755 0.0
C2526 C 1.01111 0.57258 0.6844 0.0
C2527 C 1.02813 0.54761 0.67538 0.0
N2528 N 0.04592 0.49944 0.69192 0.0
N2529 N 0.98956 0.60457 0.72857 0.0
C2530 C 1.02855 0.52232 0.6968 0.0
C2531 C 0.99954 0.57584 0.71699 0.0
N2532 N 1.00499 0.49065 0.7351 0.0
N2533 N 1.00435 0.592 0.66069 0.0
H2534 H 0.98075 0.60751 0.75117 0.0
H2535 H 0.99173 0.62611 0.71694 0.0
H2536 H 1.01094 0.58876 0.63658 0.0
H2537 H 0.99002 0.60818 0.6635 0.0
H2538 H 1.01119 0.46819 0.7244 0.0
H2539 H 0.99046 0.48688 0.75158 0.0
H2540 H 0.04962 0.4829 0.70899 0.0
H2541 H 0.05845 0.49917 0.67264 0.0
C2542 C 0.30996 0.20762 0.45816 0.0
C2543 C 0.28736 0.21206 0.47642 0.0
C2544 C 0.27849 0.25826 0.44404 0.0
C2545 C 0.30259 0.25585 0.42877 0.0
N2546 N 0.34519 0.23467 0.42968 0.0
N2547 N 0.25037 0.24264 0.48703 0.0
C2548 C 0.31926 0.23214 0.43791 0.0
C2549 C 0.27179 0.23782 0.46944 0.0
N2550 N 0.32304 0.18032 0.45989 0.0
N2551 N 0.26159 0.27947 0.43352 0.0
H2552 H 0.24278 0.22579 0.50244 0.0
H2553 H 0.24056 0.26371 0.48714 0.0
H2554 H 0.26632 0.29512 0.41574 0.0
H2555 H 0.24227 0.28014 0.44057 0.0
H2556 H 0.33677 0.17375 0.44318 0.0
H2557 H 0.319 0.16236 0.47552 0.0
H2558 H 0.35941 0.22063 0.43894 0.0
H2559 H 0.35374 0.25356 0.41706 0.0
C2560 C 0.46163 0.64711 0.59463 0.0
C2561 C 0.439 0.64244 0.6127 0.0
C2562 C 0.4386 0.5813 0.60526 0.0
C2563 C 0.45842 0.58468 0.58272 0.0
N2564 N 0.49219 0.62083 0.55969 0.0
N2565 N 0.41963 0.61004 0.6526 0.0
C2566 C 0.47116 0.61771 0.57869 0.0
C2567 C 0.43176 0.61102 0.62361 0.0
N2568 N 0.4753 0.67935 0.59553 0.0
N2569 N 0.42517 0.54984 0.60778 0.0
H2570 H 0.417 0.63231 0.66842 0.0
H2571 H 0.41584 0.58804 0.66329 0.0
H2572 H 0.42869 0.52719 0.59359 0.0
H2573 H 0.40868 0.54655 0.62143 0.0
H2574 H 0.49268 0.68502 0.58407 0.0
H2575 H 0.47123 0.70049 0.61171 0.0
H2576 H 0.4999 0.64339 0.55196 0.0
H2577 H 0.50165 0.60046 0.55076 0.0
C2578 C 0.98075 0.93767 0.63358 0.0
C2579 C 0.95662 0.94454 0.61511 0.0
C2580 C 0.985 0.99081 0.5945 0.0
C2581 C 1.00927 0.98117 0.60967 0.0
N2582 N 1.03017 0.94245 0.64021 0.0
N2583 N 0.93651 0.97482 0.57373 0.0
C2584 C 1.00706 0.95377 0.6283 0.0
C2585 C 0.95893 0.97053 0.5946 0.0
N2586 N 0.97842 0.91636 0.65709 0.0
N2587 N 0.98662 1.02004 0.58084 0.0
H2588 H 0.91709 0.96107 0.57329 0.0
H2589 H 0.93749 0.99016 0.55494 0.0
H2590 H 1.00503 0.03532 0.57955 0.0
H2591 H 0.96964 0.03063 0.57326 0.0
H2592 H 0.99489 0.91255 0.67372 0.0
H2593 H 0.95958 0.90511 0.66243 0.0
H2594 H 1.02996 0.9202 0.65056 0.0
H2595 H 0.04966 0.95371 0.637 0.0
C2596 C 0.89086 0.14054 0.34994 0.0
C2597 C 0.9153 0.14117 0.33388 0.0
C2598 C 0.91001 0.20171 0.32731 0.0
C2599 C 0.88403 0.19985 0.34007 0.0
N2600 N 0.84917 0.16344 0.36027 0.0
N2601 N 0.94463 0.17266 0.3019 0.0
C2602 C 0.8744 0.16792 0.35013 0.0
C2603 C 0.92385 0.17202 0.32137 0.0
N2604 N 0.88395 0.11447 0.36721 0.0
N2605 N 0.92215 0.2323 0.3211 0.0
H2606 H 0.95496 0.15215 0.29687 0.0
H2607 H 0.94985 0.19198 0.28802 0.0
H2608 H 0.91309 0.25388 0.32425 0.0
H2609 H 0.94211 0.23703 0.31578 0.0
H2610 H 0.86865 0.11392 0.38288 0.0
H2611 H 0.89541 0.09505 0.36889 0.0
H2612 H 0.83909 0.13997 0.36384 0.0
H2613 H 0.83747 0.18284 0.36287 0.0
C2614 C 0.78054 0.2008 0.12049 0.0
C2615 C 0.80151 0.20896 0.14932 0.0
C2616 C 0.7731 0.17322 0.18099 0.0
C2617 C 0.75119 0.16895 0.15379 0.0
N2618 N 0.73269 0.18095 0.09905 0.0
N2619 N 0.81779 0.20448 0.20767 0.0
C2620 C 0.75451 0.1835 0.124 0.0
C2621 C 0.79787 0.19532 0.17974 0.0
N2622 N 0.78603 0.20738 0.089 0.0
N2623 N 0.76995 0.15646 0.20808 0.0
H2624 H 0.83464 0.22339 0.20878 0.0
H2625 H 0.81705 0.19547 0.23073 0.0
H2626 H 0.75169 0.14125 0.21032 0.0
H2627 H 0.7856 0.15591 0.22749 0.0
H2628 H 0.77249 0.19866 0.06629 0.0
H2629 H 0.80522 0.21827 0.08468 0.0
H2630 H 0.73306 0.19469 0.07891 0.0
H2631 H 0.71353 0.16694 0.09967 0.0
C2632 C 0.23329 0.40295 0.32256 0.0
C2633 C 0.23951 0.43375 0.34789 0.0
C2634 C 0.27639 0.40569 0.3762 0.0
C2635 C 0.27242 0.37668 0.34864 0.0
N2636 N 0.24873 0.35347 0.29142 0.0
N2637 N 0.27061 0.46427 0.39767 0.0
C2638 C 0.25107 0.37689 0.32095 0.0
C2639 C 0.26227 0.43493 0.37403 0.0
N2640 N 0.21019 0.39833 0.29934 0.0
N2641 N 0.29236 0.40458 0.40615 0.0
H2642 H 0.26002 0.48476 0.39925 0.0
H2643 H 0.28897 0.46912 0.41426 0.0
H2644 H 0.30131 0.3835 0.41011 0.0
H2645 H 0.29397 0.42254 0.42857 0.0
H2646 H 0.20228 0.37522 0.28296 0.0
H2647 H 0.19769 0.41682 0.2985 0.0
H2648 H 0.23583 0.35394 0.26905 0.0
H2649 H 0.26188 0.33589 0.28779 0.0
C2650 C 0.29207 0.47054 0.13221 0.0
C2651 C 0.29453 0.43921 0.11112 0.0
C2652 C 0.25032 0.4407 0.07638 0.0
C2653 C 0.24851 0.4725 0.09643 0.0
N2654 N 0.26845 0.51935 0.14196 0.0
N2655 N 0.26835 0.38825 0.07338 0.0
C2656 C 0.26958 0.48777 0.12407 0.0
C2657 C 0.27157 0.42245 0.08606 0.0
N2658 N 0.30988 0.48214 0.16197 0.0
N2659 N 0.23203 0.42809 0.0472 0.0
H2660 H 0.27997 0.37181 0.08326 0.0
H2661 H 0.25111 0.37465 0.05706 0.0
H2662 H 0.21568 0.43987 0.0397 0.0
H2663 H 0.23454 0.40775 0.02873 0.0
H2664 H 0.30837 0.50314 0.18017 0.0
H2665 H 0.32439 0.46826 0.17075 0.0
H2666 H 0.28441 0.53416 0.15958 0.0
H2667 H 0.25195 0.53193 0.13756 0.0
C2668 C 0.89133 0.9325 0.30202 0.0
C2669 C 0.91421 0.94383 0.32868 0.0
C2670 C 0.89677 0.89236 0.35473 0.0
C2671 C 0.87355 0.88157 0.32855 0.0
N2672 N 0.84799 0.89475 0.27865 0.0
N2673 N 0.93907 0.93141 0.3797 0.0
C2674 C 0.8708 0.90279 0.30276 0.0
C2675 C 0.91688 0.92265 0.35463 0.0
N2676 N 0.8901 0.94875 0.27429 0.0
N2677 N 0.89867 0.87497 0.38155 0.0
H2678 H 0.95201 0.95486 0.38396 0.0
H2679 H 0.94539 0.91522 0.39583 0.0
H2680 H 0.88534 0.85274 0.38207 0.0
H2681 H 0.91222 0.88321 0.40424 0.0
H2682 H 0.87639 0.93995 0.25179 0.0
H2683 H 0.90438 0.96979 0.27243 0.0
H2684 H 0.84199 0.91109 0.26249 0.0
H2685 H 0.83418 0.87206 0.27573 0.0
C2686 C 0.73973 0.16309 0.88079 0.0
C2687 C 0.74001 0.13058 0.86018 0.0
C2688 C 0.77998 0.16034 0.83707 0.0
C2689 C 0.77624 0.19371 0.85289 0.0
N2690 N 0.74607 0.22446 0.88417 0.0
N2691 N 0.75934 0.10121 0.81351 0.0
C2692 C 0.75443 0.1943 0.87336 0.0
C2693 C 0.75995 0.13007 0.837 0.0
N2694 N 0.72591 0.16442 0.90854 0.0
N2695 N 0.80338 0.15684 0.82334 0.0
H2696 H 0.74518 0.07906 0.81184 0.0
H2697 H 0.77123 0.10042 0.7936 0.0
H2698 H 0.81926 0.17717 0.82491 0.0
H2699 H 0.80845 0.13315 0.81438 0.0
H2700 H 0.72705 0.18674 0.92641 0.0
H2701 H 0.71626 0.14254 0.91608 0.0
H2702 H 0.72889 0.22599 0.89651 0.0
H2703 H 0.75379 0.24715 0.87672 0.0
loop_
_geom_bond_atom_site_label_1
_geom_bond_atom_site_label_2
_geom_bond_distance
_geom_bond_site_symmetry_2
_ccdc_geom_bond_type
Co0 O1 2.216 . S
Co0 O2 2.091 . S
Co0 O4 2.004 . S
Co0 O10 2.021 . S
Co0 O12 2.137 . S
Co0 O13 2.244 . S
O1 Co0 2.216 . S
O1 C8 1.247 . S
O2 Co0 2.091 . S
O2 C8 1.261 . S
C3 O12 1.247 . S
C3 O13 1.272 . S
O4 Co0 2.004 . S
O4 C9 1.259 . S
Co5 O6 2.061 . S
Co5 O11 2.052 . S
Co5 O13 2.135 . S
O6 Co5 2.061 . S
O6 C9 1.235 . S
C7 O10 1.238 . S
C7 O11 1.241 . S
C8 O1 1.247 . S
C8 O2 1.261 . S
C9 O4 1.259 . S
C9 O6 1.235 . S
O10 Co0 2.021 . S
O10 C7 1.238 . S
O11 Co5 2.052 . S
O11 C7 1.241 . S
O12 Co0 2.137 . S
O12 C3 1.247 . S
O13 Co0 2.244 . S
O13 C3 1.272 . S
O13 Co5 2.135 . S
Co14 O15 2.216 1_455 S
Co14 O16 2.091 1_455 S
Co14 O18 2.004 . S
Co14 O24 2.021 . S
Co14 O26 2.137 . S
Co14 O27 2.244 . S
O15 Co14 2.216 1_655 S
O15 C22 1.247 . S
O16 Co14 2.091 1_655 S
O16 C22 1.261 . S
C17 O26 1.247 . S
C17 O27 1.272 . S
O18 Co14 2.004 . S
O18 C23 1.259 . S
Co19 O20 2.061 . S
Co19 O25 2.052 . S
Co19 O27 2.135 . S
O20 Co19 2.061 . S
O20 C23 1.235 . S
C21 O24 1.238 . S
C21 O25 1.241 . S
C22 O15 1.247 . S
C22 O16 1.261 . S
C23 O18 1.259 . S
C23 O20 1.235 . S
O24 Co14 2.021 . S
O24 C21 1.238 . S
O25 Co19 2.052 . S
O25 C21 1.241 . S
O26 Co14 2.137 . S
O26 C17 1.247 . S
O27 Co14 2.244 . S
O27 C17 1.272 . S
O27 Co19 2.135 . S
Co28 O29 2.216 1_556 S
Co28 O30 2.091 . S
Co28 O32 2.004 . S
Co28 O38 2.021 1_556 S
Co28 O40 2.138 1_556 S
Co28 O41 2.244 1_556 S
O29 Co28 2.216 1_554 S
O29 C36 1.247 1_554 S
O30 Co28 2.091 . S
O30 C36 1.261 . S
C31 O40 1.250 . S
C31 O41 1.272 . S
O32 Co28 2.004 . S
O32 C37 1.259 . S
Co33 O34 2.061 . S
Co33 O39 2.052 . S
Co33 O41 2.135 . S
O34 Co33 2.061 . S
O34 C37 1.235 1_554 S
C35 O38 1.238 . S
C35 O39 1.241 . S
C36 O29 1.247 1_556 S
C36 O30 1.261 . S
C37 O32 1.259 . S
C37 O34 1.235 1_556 S
O38 Co28 2.021 1_554 S
O38 C35 1.238 . S
O39 Co33 2.052 . S
O39 C35 1.241 . S
O40 Co28 2.138 1_554 S
O40 C31 1.250 . S
O41 Co28 2.244 1_554 S
O41 C31 1.272 . S
O41 Co33 2.135 . S
Co42 O43 2.216 . S
Co42 O44 2.091 . S
Co42 O46 2.004 . S
Co42 O52 2.021 . S
Co42 O54 2.137 . S
Co42 O55 2.244 . S
O43 Co42 2.216 . S
O43 C50 1.247 . S
O44 Co42 2.091 . S
O44 C50 1.261 . S
C45 O54 1.247 . S
C45 O55 1.272 . S
O46 Co42 2.004 . S
O46 C51 1.259 . S
Co47 O48 2.061 . S
Co47 O53 2.052 . S
Co47 O55 2.135 . S
O48 Co47 2.061 . S
O48 C51 1.235 . S
C49 O52 1.238 . S
C49 O53 1.241 . S
C50 O43 1.247 . S
C50 O44 1.261 . S
C51 O46 1.259 . S
C51 O48 1.235 . S
O52 Co42 2.021 . S
O52 C49 1.238 . S
O53 Co47 2.052 . S
O53 C49 1.241 . S
O54 Co42 2.137 . S
O54 C45 1.247 . S
O55 Co42 2.244 . S
O55 C45 1.272 . S
O55 Co47 2.135 . S
Co56 O57 2.216 . S
Co56 O58 2.091 . S
Co56 O60 2.004 . S
Co56 O66 2.021 . S
Co56 O68 2.137 . S
Co56 O69 2.244 . S
O57 Co56 2.216 . S
O57 C64 1.247 . S
O58 Co56 2.091 . S
O58 C64 1.261 . S
C59 O68 1.247 . S
C59 O69 1.272 . S
O60 Co56 2.004 . S
O60 C65 1.259 . S
Co61 O62 2.061 . S
Co61 O67 2.052 . S
Co61 O69 2.135 . S
O62 Co61 2.061 . S
O62 C65 1.235 . S
C63 O66 1.238 . S
C63 O67 1.241 . S
C64 O57 1.247 . S
C64 O58 1.261 . S
C65 O60 1.259 . S
C65 O62 1.235 . S
O66 Co56 2.021 . S
O66 C63 1.238 . S
O67 Co61 2.052 . S
O67 C63 1.241 . S
O68 Co56 2.137 . S
O68 C59 1.247 . S
O69 Co56 2.244 . S
O69 C59 1.272 . S
O69 Co61 2.135 . S
Co70 O71 2.216 . S
Co70 O72 2.091 . S
Co70 O74 2.004 . S
Co70 O80 2.021 . S
Co70 O82 2.137 . S
Co70 O83 2.244 . S
O71 Co70 2.216 . S
O71 C78 1.247 . S
O72 Co70 2.091 . S
O72 C78 1.261 . S
C73 O82 1.247 . S
C73 O83 1.272 . S
O74 Co70 2.004 . S
O74 C79 1.259 . S
Co75 O76 2.061 . S
Co75 O81 2.052 . S
Co75 O83 2.135 . S
O76 Co75 2.061 . S
O76 C79 1.235 . S
C77 O80 1.238 . S
C77 O81 1.241 . S
C78 O71 1.247 . S
C78 O72 1.261 . S
C79 O74 1.259 . S
C79 O76 1.235 . S
O80 Co70 2.021 . S
O80 C77 1.238 . S
O81 Co75 2.052 . S
O81 C77 1.241 . S
O82 Co70 2.137 . S
O82 C73 1.247 . S
O83 Co70 2.244 . S
O83 C73 1.272 . S
O83 Co75 2.135 . S
Co84 O85 2.216 . S
Co84 O86 2.091 . S
Co84 O88 2.004 . S
Co84 O94 2.021 . S
Co84 O96 2.137 . S
Co84 O97 2.244 . S
O85 Co84 2.216 . S
O85 C92 1.247 . S
O86 Co84 2.091 . S
O86 C92 1.261 . S
C87 O96 1.247 . S
C87 O97 1.272 . S
O88 Co84 2.004 . S
O88 C93 1.259 . S
Co89 O90 2.061 . S
Co89 O95 2.052 . S
Co89 O97 2.135 . S
O90 Co89 2.061 . S
O90 C93 1.235 . S
C91 O94 1.238 . S
C91 O95 1.241 . S
C92 O85 1.247 . S
C92 O86 1.261 . S
C93 O88 1.259 . S
C93 O90 1.235 . S
O94 Co84 2.021 . S
O94 C91 1.238 . S
O95 Co89 2.052 . S
O95 C91 1.241 . S
O96 Co84 2.137 . S
O96 C87 1.247 . S
O97 Co84 2.244 . S
O97 C87 1.272 . S
O97 Co89 2.135 . S
Co98 O99 2.216 . S
Co98 O100 2.091 . S
Co98 O102 2.004 1_455 S
Co98 O108 2.021 . S
Co98 O110 2.137 . S
Co98 O111 2.244 1_556 S
O99 Co98 2.216 . S
O99 C106 1.247 . S
O100 Co98 2.091 . S
O100 C106 1.261 . S
C101 O110 1.247 . S
C101 O111 1.272 1_556 S
O102 Co98 2.004 1_655 S
O102 C107 1.259 . S
Co103 O104 2.061 1_554 S
Co103 O109 2.052 . S
Co103 O111 2.135 1_655 S
O104 Co103 2.061 1_556 S
O104 C107 1.235 . S
C105 O108 1.234 1_655 S
C105 O109 1.249 1_556 S
C106 O99 1.247 . S
C106 O100 1.261 . S
C107 O102 1.259 . S
C107 O104 1.235 . S
O108 Co98 2.021 . S
O108 C105 1.234 1_455 S
O109 Co103 2.052 . S
O109 C105 1.249 1_554 S
O110 Co98 2.137 . S
O110 C101 1.247 . S
O111 Co98 2.244 1_554 S
O111 C101 1.272 1_554 S
O111 Co103 2.135 1_455 S
Co112 O113 2.216 . S
Co112 O114 2.091 . S
Co112 O116 2.004 1_545 S
Co112 O122 2.021 . S
Co112 O124 2.137 . S
Co112 O125 2.244 . S
O113 Co112 2.216 . S
O113 C120 1.247 . S
O114 Co112 2.091 . S
O114 C120 1.261 . S
C115 O124 1.247 . S
C115 O125 1.272 . S
O116 Co112 2.004 1_565 S
O116 C121 1.259 . S
Co117 O118 2.061 . S
Co117 O123 2.052 1_565 S
Co117 O125 2.135 1_565 S
O118 Co117 2.061 . S
O118 C121 1.235 . S
C119 O122 1.238 . S
C119 O123 1.241 . S
C120 O113 1.247 . S
C120 O114 1.261 . S
C121 O116 1.259 . S
C121 O118 1.235 . S
O122 Co112 2.021 . S
O122 C119 1.238 . S
O123 Co117 2.052 1_545 S
O123 C119 1.241 . S
O124 Co112 2.137 . S
O124 C115 1.247 . S
O125 Co112 2.244 . S
O125 C115 1.272 . S
O125 Co117 2.135 1_545 S
Co126 O127 2.216 . S
Co126 O128 2.091 . S
Co126 O130 2.004 . S
Co126 O136 2.021 . S
Co126 O138 2.137 . S
Co126 O139 2.244 . S
O127 Co126 2.216 . S
O127 C134 1.247 . S
O128 Co126 2.091 . S
O128 C134 1.261 . S
C129 O138 1.247 . S
C129 O139 1.272 . S
O130 Co126 2.004 . S
O130 C135 1.259 . S
Co131 O132 2.061 . S
Co131 O137 2.052 . S
Co131 O139 2.135 . S
O132 Co131 2.061 . S
O132 C135 1.235 . S
C133 O136 1.238 . S
C133 O137 1.241 . S
C134 O127 1.247 . S
C134 O128 1.261 . S
C135 O130 1.259 . S
C135 O132 1.235 . S
O136 Co126 2.021 . S
O136 C133 1.238 . S
O137 Co131 2.052 . S
O137 C133 1.241 . S
O138 Co126 2.137 . S
O138 C129 1.247 . S
O139 Co126 2.244 . S
O139 C129 1.272 . S
O139 Co131 2.135 . S
Co140 O141 2.216 . S
Co140 O142 2.091 . S
Co140 O144 2.004 1_565 S
Co140 O150 2.021 . S
Co140 O152 2.142 1_565 S
Co140 O153 2.244 1_565 S
O141 Co140 2.216 . S
O141 C148 1.247 . S
O142 Co140 2.091 . S
O142 C148 1.261 . S
C143 O152 1.258 . S
C143 O153 1.272 . S
O144 Co140 2.004 1_545 S
O144 C149 1.259 . S
Co145 O146 2.061 . S
Co145 O151 2.052 . S
Co145 O153 2.135 . S
O146 Co145 2.061 . S
O146 C149 1.235 . S
C147 O150 1.250 . S
C147 O151 1.226 1_565 S
C148 O141 1.247 . S
C148 O142 1.261 . S
C149 O144 1.259 . S
C149 O146 1.235 . S
O150 Co140 2.021 . S
O150 C147 1.250 . S
O151 Co145 2.052 . S
O151 C147 1.226 1_545 S
O152 Co140 2.142 1_545 S
O152 C143 1.258 . S
O153 Co140 2.244 1_545 S
O153 C143 1.272 . S
O153 Co145 2.135 . S
Co154 O155 2.216 . S
Co154 O156 2.091 1_556 S
Co154 O158 2.004 1_556 S
Co154 O164 2.021 1_556 S
Co154 O166 2.137 . S
Co154 O167 2.244 . S
O155 Co154 2.216 . S
O155 C162 1.247 1_556 S
O156 Co154 2.091 1_554 S
O156 C162 1.261 . S
C157 O166 1.247 . S
C157 O167 1.272 . S
O158 Co154 2.004 1_554 S
O158 C163 1.259 . S
Co159 O160 2.061 1_556 S
Co159 O165 2.052 1_556 S
Co159 O167 2.135 . S
O160 Co159 2.061 1_554 S
O160 C163 1.235 . S
C161 O164 1.238 . S
C161 O165 1.241 . S
C162 O155 1.247 1_554 S
C162 O156 1.261 . S
C163 O158 1.259 . S
C163 O160 1.235 . S
O164 Co154 2.021 1_554 S
O164 C161 1.238 . S
O165 Co159 2.052 1_554 S
O165 C161 1.241 . S
O166 Co154 2.137 . S
O166 C157 1.247 . S
O167 Co154 2.244 . S
O167 C157 1.272 . S
O167 Co159 2.135 . S
Co168 O169 2.216 . S
Co168 O170 2.091 . S
Co168 O172 2.004 . S
Co168 O178 2.021 . S
Co168 O180 2.137 . S
Co168 O181 2.244 . S
O169 Co168 2.216 . S
O169 C176 1.247 . S
O170 Co168 2.091 . S
O170 C176 1.261 . S
C171 O180 1.247 . S
C171 O181 1.272 . S
O172 Co168 2.004 . S
O172 C177 1.259 . S
Co173 O174 2.061 . S
Co173 O179 2.052 . S
Co173 O181 2.135 . S
O174 Co173 2.061 . S
O174 C177 1.235 . S
C175 O178 1.238 . S
C175 O179 1.241 . S
C176 O169 1.247 . S
C176 O170 1.261 . S
C177 O172 1.259 . S
C177 O174 1.235 . S
O178 Co168 2.021 . S
O178 C175 1.238 . S
O179 Co173 2.052 . S
O179 C175 1.241 . S
O180 Co168 2.137 . S
O180 C171 1.247 . S
O181 Co168 2.244 . S
O181 C171 1.272 . S
O181 Co173 2.135 . S
Co182 O183 2.216 . S
Co182 O184 2.091 . S
Co182 O186 2.004 . S
Co182 O192 2.021 . S
Co182 O194 2.137 . S
Co182 O195 2.244 . S
O183 Co182 2.216 . S
O183 C190 1.247 . S
O184 Co182 2.091 . S
O184 C190 1.261 . S
C185 O194 1.247 . S
C185 O195 1.272 . S
O186 Co182 2.004 . S
O186 C191 1.259 . S
Co187 O188 2.061 . S
Co187 O193 2.052 . S
Co187 O195 2.135 . S
O188 Co187 2.061 . S
O188 C191 1.235 . S
C189 O192 1.238 . S
C189 O193 1.241 . S
C190 O183 1.247 . S
C190 O184 1.261 . S
C191 O186 1.259 . S
C191 O188 1.235 . S
O192 Co182 2.021 . S
O192 C189 1.238 . S
O193 Co187 2.052 . S
O193 C189 1.241 . S
O194 Co182 2.137 . S
O194 C185 1.247 . S
O195 Co182 2.244 . S
O195 C185 1.272 . S
O195 Co187 2.135 . S
Co196 O197 2.216 . S
Co196 O198 2.091 . S
Co196 O200 2.004 . S
Co196 O206 2.021 . S
Co196 O208 2.137 . S
Co196 O209 2.244 . S
O197 Co196 2.216 . S
O197 C204 1.247 . S
O198 Co196 2.091 . S
O198 C204 1.261 . S
C199 O208 1.247 . S
C199 O209 1.272 . S
O200 Co196 2.004 . S
O200 C205 1.259 . S
Co201 O202 2.061 . S
Co201 O207 2.052 . S
Co201 O209 2.135 . S
O202 Co201 2.061 . S
O202 C205 1.235 . S
C203 O206 1.238 . S
C203 O207 1.241 . S
C204 O197 1.247 . S
C204 O198 1.261 . S
C205 O200 1.259 . S
C205 O202 1.235 . S
O206 Co196 2.021 . S
O206 C203 1.238 . S
O207 Co201 2.052 . S
O207 C203 1.241 . S
O208 Co196 2.137 . S
O208 C199 1.247 . S
O209 Co196 2.244 . S
O209 C199 1.272 . S
O209 Co201 2.135 . S
Co210 O211 2.216 . S
Co210 O212 2.091 . S
Co210 O214 2.004 . S
Co210 O220 2.021 . S
Co210 O222 2.137 . S
Co210 O223 2.244 . S
O211 Co210 2.216 . S
O211 C218 1.247 . S
O212 Co210 2.091 . S
O212 C218 1.261 . S
C213 O222 1.247 . S
C213 O223 1.272 . S
O214 Co210 2.004 . S
O214 C219 1.259 . S
Co215 O216 2.061 . S
Co215 O221 2.052 . S
Co215 O223 2.135 . S
O216 Co215 2.061 . S
O216 C219 1.235 . S
C217 O220 1.238 . S
C217 O221 1.241 . S
C218 O211 1.247 . S
C218 O212 1.261 . S
C219 O214 1.259 . S
C219 O216 1.235 . S
O220 Co210 2.021 . S
O220 C217 1.238 . S
O221 Co215 2.052 . S
O221 C217 1.241 . S
O222 Co210 2.137 . S
O222 C213 1.247 . S
O223 Co210 2.244 . S
O223 C213 1.272 . S
O223 Co215 2.135 . S
Co224 O225 2.216 . S
Co224 O226 2.091 . S
Co224 O228 2.004 1_545 S
Co224 O234 2.021 . S
Co224 O236 2.137 . S
Co224 O237 2.244 . S
O225 Co224 2.216 . S
O225 C232 1.247 . S
O226 Co224 2.091 . S
O226 C232 1.261 . S
C227 O236 1.247 . S
C227 O237 1.272 . S
O228 Co224 2.004 1_565 S
O228 C233 1.259 . S
Co229 O230 2.061 . S
Co229 O235 2.052 1_565 S
Co229 O237 2.135 1_565 S
O230 Co229 2.061 . S
O230 C233 1.235 . S
C231 O234 1.238 . S
C231 O235 1.241 . S
C232 O225 1.247 . S
C232 O226 1.261 . S
C233 O228 1.259 . S
C233 O230 1.235 . S
O234 Co224 2.021 . S
O234 C231 1.238 . S
O235 Co229 2.052 1_545 S
O235 C231 1.241 . S
O236 Co224 2.137 . S
O236 C227 1.247 . S
O237 Co224 2.244 . S
O237 C227 1.272 . S
O237 Co229 2.135 1_545 S
Co238 O239 2.216 . S
Co238 O240 2.091 . S
Co238 O242 2.004 . S
Co238 O248 2.021 . S
Co238 O250 2.137 . S
Co238 O251 2.244 . S
O239 Co238 2.216 . S
O239 C246 1.247 . S
O240 Co238 2.091 . S
O240 C246 1.261 . S
C241 O250 1.247 . S
C241 O251 1.272 . S
O242 Co238 2.004 . S
O242 C247 1.259 . S
Co243 O244 2.061 . S
Co243 O249 2.052 . S
Co243 O251 2.135 . S
O244 Co243 2.061 . S
O244 C247 1.235 . S
C245 O248 1.238 . S
C245 O249 1.241 . S
C246 O239 1.247 . S
C246 O240 1.261 . S
C247 O242 1.259 . S
C247 O244 1.235 . S
O248 Co238 2.021 . S
O248 C245 1.238 . S
O249 Co243 2.052 . S
O249 C245 1.241 . S
O250 Co238 2.137 . S
O250 C241 1.247 . S
O251 Co238 2.244 . S
O251 C241 1.272 . S
O251 Co243 2.135 . S
Co252 O253 2.216 . S
Co252 O254 2.091 . S
Co252 O256 2.004 . S
Co252 O262 2.021 . S
Co252 O264 2.137 . S
Co252 O265 2.244 . S
O253 Co252 2.216 . S
O253 C260 1.247 . S
O254 Co252 2.091 . S
O254 C260 1.261 . S
C255 O264 1.247 . S
C255 O265 1.272 . S
O256 Co252 2.004 . S
O256 C261 1.259 . S
Co257 O258 2.061 . S
Co257 O263 2.052 . S
Co257 O265 2.135 . S
O258 Co257 2.061 . S
O258 C261 1.235 . S
C259 O262 1.238 . S
C259 O263 1.241 . S
C260 O253 1.247 . S
C260 O254 1.261 . S
C261 O256 1.259 . S
C261 O258 1.235 . S
O262 Co252 2.021 . S
O262 C259 1.238 . S
O263 Co257 2.052 . S
O263 C259 1.241 . S
O264 Co252 2.137 . S
O264 C255 1.247 . S
O265 Co252 2.244 . S
O265 C255 1.272 . S
O265 Co257 2.135 . S
Co266 O267 2.216 1_545 S
Co266 O268 2.091 1_545 S
Co266 O270 2.004 . S
Co266 O276 2.017 . S
Co266 O278 2.137 . S
Co266 O279 2.244 . S
O267 Co266 2.216 1_565 S
O267 C274 1.247 . S
O268 Co266 2.091 1_565 S
O268 C274 1.261 . S
C269 O278 1.247 . S
C269 O279 1.272 . S
O270 Co266 2.004 . S
O270 C275 1.259 . S
Co271 O272 2.061 . S
Co271 O277 2.052 . S
Co271 O279 2.135 . S
O272 Co271 2.061 . S
O272 C275 1.235 . S
C273 O276 1.245 . S
C273 O277 1.241 . S
C274 O267 1.247 . S
C274 O268 1.261 . S
C275 O270 1.259 . S
C275 O272 1.235 . S
O276 Co266 2.017 . S
O276 C273 1.245 . S
O277 Co271 2.052 . S
O277 C273 1.241 . S
O278 Co266 2.137 . S
O278 C269 1.247 . S
O279 Co266 2.244 . S
O279 C269 1.272 . S
O279 Co271 2.135 . S
Co280 O281 2.216 . S
Co280 O282 2.091 . S
Co280 O284 2.004 . S
Co280 O290 2.021 . S
Co280 O292 2.137 . S
Co280 O293 2.244 . S
O281 Co280 2.216 . S
O281 C288 1.247 . S
O282 Co280 2.091 . S
O282 C288 1.261 . S
C283 O292 1.247 . S
C283 O293 1.272 . S
O284 Co280 2.004 . S
O284 C289 1.259 . S
Co285 O286 2.061 . S
Co285 O291 2.052 . S
Co285 O293 2.135 . S
O286 Co285 2.061 . S
O286 C289 1.235 . S
C287 O290 1.238 . S
C287 O291 1.241 . S
C288 O281 1.247 . S
C288 O282 1.261 . S
C289 O284 1.259 . S
C289 O286 1.235 . S
O290 Co280 2.021 . S
O290 C287 1.238 . S
O291 Co285 2.052 . S
O291 C287 1.241 . S
O292 Co280 2.137 . S
O292 C283 1.247 . S
O293 Co280 2.244 . S
O293 C283 1.272 . S
O293 Co285 2.135 . S
Co294 O295 2.216 . S
Co294 O296 2.091 . S
Co294 O298 2.004 . S
Co294 O304 2.021 . S
Co294 O306 2.137 . S
Co294 O307 2.244 . S
O295 Co294 2.216 . S
O295 C302 1.247 . S
O296 Co294 2.091 . S
O296 C302 1.261 . S
C297 O306 1.247 . S
C297 O307 1.272 . S
O298 Co294 2.004 . S
O298 C303 1.259 . S
Co299 O300 2.061 . S
Co299 O305 2.052 . S
Co299 O307 2.135 . S
O300 Co299 2.061 . S
O300 C303 1.235 . S
C301 O304 1.238 . S
C301 O305 1.241 . S
C302 O295 1.247 . S
C302 O296 1.261 . S
C303 O298 1.259 . S
C303 O300 1.235 . S
O304 Co294 2.021 . S
O304 C301 1.238 . S
O305 Co299 2.052 . S
O305 C301 1.241 . S
O306 Co294 2.137 . S
O306 C297 1.247 . S
O307 Co294 2.244 . S
O307 C297 1.272 . S
O307 Co299 2.135 . S
Co308 O309 2.216 . S
Co308 O310 2.091 . S
Co308 O312 2.004 . S
Co308 O318 2.021 . S
Co308 O320 2.137 . S
Co308 O321 2.244 . S
O309 Co308 2.216 . S
O309 C316 1.247 . S
O310 Co308 2.091 . S
O310 C316 1.261 . S
C311 O320 1.247 . S
C311 O321 1.272 . S
O312 Co308 2.004 . S
O312 C317 1.259 . S
Co313 O314 2.061 . S
Co313 O319 2.052 . S
Co313 O321 2.135 . S
O314 Co313 2.061 . S
O314 C317 1.235 . S
C315 O318 1.238 . S
C315 O319 1.241 . S
C316 O309 1.247 . S
C316 O310 1.261 . S
C317 O312 1.259 . S
C317 O314 1.235 . S
O318 Co308 2.021 . S
O318 C315 1.238 . S
O319 Co313 2.052 . S
O319 C315 1.241 . S
O320 Co308 2.137 . S
O320 C311 1.247 . S
O321 Co308 2.244 . S
O321 C311 1.272 . S
O321 Co313 2.135 . S
Co322 O323 2.216 . S
Co322 O324 2.091 . S
Co322 O326 2.004 . S
Co322 O332 2.021 . S
Co322 O334 2.137 . S
Co322 O335 2.244 . S
O323 Co322 2.216 . S
O323 C330 1.247 . S
O324 Co322 2.091 . S
O324 C330 1.261 . S
C325 O334 1.247 . S
C325 O335 1.272 . S
O326 Co322 2.004 . S
O326 C331 1.259 . S
Co327 O328 2.061 . S
Co327 O333 2.052 . S
Co327 O335 2.135 . S
O328 Co327 2.061 . S
O328 C331 1.235 . S
C329 O332 1.238 . S
C329 O333 1.241 . S
C330 O323 1.247 . S
C330 O324 1.261 . S
C331 O326 1.259 . S
C331 O328 1.235 . S
O332 Co322 2.021 . S
O332 C329 1.238 . S
O333 Co327 2.052 . S
O333 C329 1.241 . S
O334 Co322 2.137 . S
O334 C325 1.247 . S
O335 Co322 2.244 . S
O335 C325 1.272 . S
O335 Co327 2.135 . S
C336 Eu337 2.835 . S
C336 C338 1.500 1_545 S
C336 O356 1.257 1_545 S
C336 O357 1.260 . S
Eu337 C336 2.835 . S
Eu337 O356 2.473 1_545 S
Eu337 O357 2.480 . S
Eu337 O358 2.430 . S
Eu337 O359 2.670 . S
Eu337 O360 2.394 1_545 S
Eu337 O365 2.355 . S
Eu337 O367 2.374 . S
C338 C336 1.500 1_565 S
C338 C339 1.377 . S
C338 C343 1.377 . S
C339 C338 1.377 . S
C339 C340 1.395 . S
C339 H368 0.931 . S
C340 C339 1.395 . S
C340 C341 1.383 . S
C340 H369 0.931 . S
C341 C340 1.383 . S
C341 C342 1.394 . S
C342 C341 1.394 . S
C342 C343 1.378 . S
C342 H370 0.931 . S
C343 C338 1.377 . S
C343 C342 1.378 . S
C343 H371 0.931 . S
C344 O358 1.259 . S
C344 O359 1.270 . S
C345 O360 1.251 . S
C345 O361 1.251 . S
C346 Eu347 2.835 1_655 S
C346 C348 1.500 . S
C346 O362 1.257 . S
C346 O363 1.260 . S
Eu347 C346 2.835 1_455 S
Eu347 O359 2.355 . S
Eu347 O361 2.374 1_545 S
Eu347 O362 2.473 1_455 S
Eu347 O363 2.480 1_455 S
Eu347 O364 2.430 1_545 S
Eu347 O365 2.670 . S
Eu347 O366 2.394 . S
C348 C346 1.500 . S
C348 C349 1.377 . S
C348 C353 1.377 . S
C349 C348 1.377 . S
C349 C350 1.395 . S
C349 H372 0.931 1_554 S
C350 C349 1.395 . S
C350 C351 1.383 . S
C350 H373 0.931 1_554 S
C351 C350 1.383 . S
C351 C352 1.394 . S
C352 C351 1.394 . S
C352 C353 1.378 . S
C352 H374 0.931 . S
C353 C348 1.377 . S
C353 C352 1.378 . S
C353 H375 0.931 . S
C354 O364 1.259 1_545 S
C354 O365 1.270 . S
C355 O366 1.251 . S
C355 O367 1.251 . S
O356 C336 1.257 1_565 S
O356 Eu337 2.473 1_565 S
O357 C336 1.260 . S
O357 Eu337 2.480 . S
O358 Eu337 2.430 . S
O358 C344 1.259 . S
O359 Eu337 2.670 . S
O359 C344 1.270 . S
O359 Eu347 2.355 . S
O360 Eu337 2.394 1_565 S
O360 C345 1.251 . S
O361 C345 1.251 . S
O361 Eu347 2.374 1_565 S
O362 C346 1.257 . S
O362 Eu347 2.473 1_655 S
O363 C346 1.260 . S
O363 Eu347 2.480 1_655 S
O364 Eu347 2.430 1_565 S
O364 C354 1.259 1_565 S
O365 Eu337 2.355 . S
O365 Eu347 2.670 . S
O365 C354 1.270 . S
O366 Eu347 2.394 . S
O366 C355 1.251 . S
O367 Eu337 2.374 . S
O367 C355 1.251 . S
H368 C339 0.931 . S
H369 C340 0.931 . S
H370 C342 0.931 . S
H371 C343 0.931 . S
H372 C349 0.931 1_556 S
H373 C350 0.931 1_556 S
H374 C352 0.931 . S
H375 C353 0.931 . S
C376 Eu377 2.835 . S
C376 C378 1.500 . S
C376 O396 1.257 . S
C376 O397 1.260 . S
Eu377 C376 2.835 . S
Eu377 O396 2.473 . S
Eu377 O397 2.480 . S
Eu377 O398 2.430 . S
Eu377 O399 2.670 . S
Eu377 O400 2.394 . S
Eu377 O405 2.355 . S
Eu377 O407 2.374 . S
C378 C376 1.500 . S
C378 C379 1.377 . S
C378 C383 1.377 . S
C379 C378 1.377 . S
C379 C380 1.395 . S
C379 H408 0.931 . S
C380 C379 1.395 . S
C380 C381 1.383 . S
C380 H409 0.931 . S
C381 C380 1.383 . S
C381 C382 1.394 . S
C382 C381 1.394 . S
C382 C383 1.378 . S
C382 H410 0.931 . S
C383 C378 1.377 . S
C383 C382 1.378 . S
C383 H411 0.931 . S
C384 O398 1.259 . S
C384 O399 1.270 . S
C385 O400 1.251 . S
C385 O401 1.251 . S
C386 Eu387 2.835 . S
C386 C388 1.500 . S
C386 O402 1.257 . S
C386 O403 1.260 . S
Eu387 C386 2.835 . S
Eu387 O399 2.355 . S
Eu387 O401 2.374 . S
Eu387 O402 2.473 . S
Eu387 O403 2.480 . S
Eu387 O404 2.430 . S
Eu387 O405 2.670 . S
Eu387 O406 2.394 . S
C388 C386 1.500 . S
C388 C389 1.377 . S
C388 C393 1.377 . S
C389 C388 1.377 . S
C389 C390 1.395 . S
C389 H412 0.931 . S
C390 C389 1.395 . S
C390 C391 1.383 . S
C390 H413 0.931 . S
C391 C390 1.383 . S
C391 C392 1.394 . S
C392 C391 1.394 . S
C392 C393 1.378 . S
C392 H414 0.931 . S
C393 C388 1.377 . S
C393 C392 1.378 . S
C393 H415 0.931 . S
C394 O404 1.259 . S
C394 O405 1.270 . S
C395 O406 1.251 . S
C395 O407 1.251 . S
O396 C376 1.257 . S
O396 Eu377 2.473 . S
O397 C376 1.260 . S
O397 Eu377 2.480 . S
O398 Eu377 2.430 . S
O398 C384 1.259 . S
O399 Eu377 2.670 . S
O399 C384 1.270 . S
O399 Eu387 2.355 . S
O400 Eu377 2.394 . S
O400 C385 1.251 . S
O401 C385 1.251 . S
O401 Eu387 2.374 . S
O402 C386 1.257 . S
O402 Eu387 2.473 . S
O403 C386 1.260 . S
O403 Eu387 2.480 . S
O404 Eu387 2.430 . S
O404 C394 1.259 . S
O405 Eu377 2.355 . S
O405 Eu387 2.670 . S
O405 C394 1.270 . S
O406 Eu387 2.394 . S
O406 C395 1.251 . S
O407 Eu377 2.374 . S
O407 C395 1.251 . S
H408 C379 0.931 . S
H409 C380 0.931 . S
H410 C382 0.931 . S
H411 C383 0.931 . S
H412 C389 0.931 . S
H413 C390 0.931 . S
H414 C392 0.931 . S
H415 C393 0.931 . S
C416 Eu417 2.835 . S
C416 C418 1.500 . S
C416 O436 1.257 . S
C416 O437 1.260 . S
Eu417 C416 2.835 . S
Eu417 O436 2.473 . S
Eu417 O437 2.480 . S
Eu417 O438 2.430 . S
Eu417 O439 2.670 . S
Eu417 O440 2.394 . S
Eu417 O445 2.355 . S
Eu417 O447 2.374 1_545 S
C418 C416 1.500 . S
C418 C419 1.377 . S
C418 C423 1.377 . S
C419 C418 1.377 . S
C419 C420 1.395 . S
C419 H448 0.931 . S
C420 C419 1.395 . S
C420 C421 1.383 . S
C420 H449 0.931 . S
C421 C420 1.383 . S
C421 C422 1.394 . S
C422 C421 1.394 . S
C422 C423 1.378 . S
C422 H450 0.931 . S
C423 C418 1.377 . S
C423 C422 1.378 . S
C423 H451 0.931 . S
C424 O438 1.259 . S
C424 O439 1.270 . S
C425 O440 1.251 . S
C425 O441 1.251 . S
C426 Eu427 2.835 1_565 S
C426 C428 1.500 . S
C426 O442 1.257 . S
C426 O443 1.246 1_565 S
Eu427 C426 2.835 1_545 S
Eu427 O439 2.355 . S
Eu427 O441 2.374 . S
Eu427 O442 2.473 1_545 S
Eu427 O443 2.489 . S
Eu427 O444 2.430 . S
Eu427 O445 2.670 . S
Eu427 O446 2.394 1_545 S
C428 C426 1.500 . S
C428 C429 1.377 . S
C428 C433 1.377 . S
C429 C428 1.377 . S
C429 C430 1.395 . S
C429 H452 0.931 . S
C430 C429 1.395 . S
C430 C431 1.383 . S
C430 H453 0.931 . S
C431 C430 1.383 . S
C431 C432 1.394 . S
C432 C431 1.394 . S
C432 C433 1.378 . S
C432 H454 0.931 . S
C433 C428 1.377 . S
C433 C432 1.378 . S
C433 H455 0.931 . S
C434 O444 1.259 . S
C434 O445 1.270 . S
C435 O446 1.251 . S
C435 O447 1.251 . S
O436 C416 1.257 . S
O436 Eu417 2.473 . S
O437 C416 1.260 . S
O437 Eu417 2.480 . S
O438 Eu417 2.430 . S
O438 C424 1.259 . S
O439 Eu417 2.670 . S
O439 C424 1.270 . S
O439 Eu427 2.355 . S
O440 Eu417 2.394 . S
O440 C425 1.251 . S
O441 C425 1.251 . S
O441 Eu427 2.374 . S
O442 C426 1.257 . S
O442 Eu427 2.473 1_565 S
O443 C426 1.246 1_545 S
O443 Eu427 2.489 . S
O444 Eu427 2.430 . S
O444 C434 1.259 . S
O445 Eu417 2.355 . S
O445 Eu427 2.670 . S
O445 C434 1.270 . S
O446 Eu427 2.394 1_565 S
O446 C435 1.251 . S
O447 Eu417 2.374 1_565 S
O447 C435 1.251 . S
H448 C419 0.931 . S
H449 C420 0.931 . S
H450 C422 0.931 . S
H451 C423 0.931 . S
H452 C429 0.931 . S
H453 C430 0.931 . S
H454 C432 0.931 . S
H455 C433 0.931 . S
C456 Eu457 2.835 . S
C456 C458 1.500 . S
C456 O476 1.257 . S
C456 O477 1.260 . S
Eu457 C456 2.835 . S
Eu457 O476 2.473 . S
Eu457 O477 2.480 . S
Eu457 O478 2.430 . S
Eu457 O479 2.670 . S
Eu457 O480 2.394 . S
Eu457 O485 2.355 . S
Eu457 O487 2.374 . S
C458 C456 1.500 . S
C458 C459 1.377 . S
C458 C463 1.377 . S
C459 C458 1.377 . S
C459 C460 1.395 . S
C459 H488 0.931 . S
C460 C459 1.395 . S
C460 C461 1.383 . S
C460 H489 0.931 . S
C461 C460 1.383 . S
C461 C462 1.394 . S
C462 C461 1.394 . S
C462 C463 1.378 . S
C462 H490 0.931 . S
C463 C458 1.377 . S
C463 C462 1.378 . S
C463 H491 0.931 . S
C464 O478 1.259 . S
C464 O479 1.270 . S
C465 O480 1.251 . S
C465 O481 1.251 . S
C466 Eu467 2.835 . S
C466 C468 1.500 . S
C466 O482 1.257 . S
C466 O483 1.260 . S
Eu467 C466 2.835 . S
Eu467 O479 2.355 . S
Eu467 O481 2.374 . S
Eu467 O482 2.473 . S
Eu467 O483 2.480 . S
Eu467 O484 2.430 . S
Eu467 O485 2.670 . S
Eu467 O486 2.394 . S
C468 C466 1.500 . S
C468 C469 1.377 . S
C468 C473 1.377 . S
C469 C468 1.377 . S
C469 C470 1.395 . S
C469 H492 0.931 . S
C470 C469 1.395 . S
C470 C471 1.383 . S
C470 H493 0.931 . S
C471 C470 1.383 . S
C471 C472 1.394 . S
C472 C471 1.394 . S
C472 C473 1.378 . S
C472 H494 0.931 . S
C473 C468 1.377 . S
C473 C472 1.378 . S
C473 H495 0.931 . S
C474 O484 1.259 . S
C474 O485 1.270 . S
C475 O486 1.251 . S
C475 O487 1.251 . S
O476 C456 1.257 . S
O476 Eu457 2.473 . S
O477 C456 1.260 . S
O477 Eu457 2.480 . S
O478 Eu457 2.430 . S
O478 C464 1.259 . S
O479 Eu457 2.670 . S
O479 C464 1.270 . S
O479 Eu467 2.355 . S
O480 Eu457 2.394 . S
O480 C465 1.251 . S
O481 C465 1.251 . S
O481 Eu467 2.374 . S
O482 C466 1.257 . S
O482 Eu467 2.473 . S
O483 C466 1.260 . S
O483 Eu467 2.480 . S
O484 Eu467 2.430 . S
O484 C474 1.259 . S
O485 Eu457 2.355 . S
O485 Eu467 2.670 . S
O485 C474 1.270 . S
O486 Eu467 2.394 . S
O486 C475 1.251 . S
O487 Eu457 2.374 . S
O487 C475 1.251 . S
H488 C459 0.931 . S
H489 C460 0.931 . S
H490 C462 0.931 . S
H491 C463 0.931 . S
H492 C469 0.931 . S
H493 C470 0.931 . S
H494 C472 0.931 . S
H495 C473 0.931 . S
C496 Eu497 2.835 . S
C496 C498 1.500 . S
C496 O516 1.257 . S
C496 O517 1.260 . S
Eu497 C496 2.835 . S
Eu497 O516 2.473 . S
Eu497 O517 2.480 . S
Eu497 O518 2.439 . S
Eu497 O519 2.670 1_565 S
Eu497 O520 2.394 . S
Eu497 O525 2.369 . S
Eu497 O527 2.374 . S
C498 C496 1.500 . S
C498 C499 1.377 . S
C498 C503 1.377 . S
C499 C498 1.377 . S
C499 C500 1.395 . S
C499 H528 0.931 . S
C500 C499 1.395 . S
C500 C501 1.383 . S
C500 H529 0.931 . S
C501 C500 1.383 . S
C501 C502 1.394 . S
C502 C501 1.394 . S
C502 C503 1.378 . S
C502 H530 0.931 . S
C503 C498 1.377 . S
C503 C502 1.378 . S
C503 H531 0.931 . S
C504 O518 1.232 1_545 S
C504 O519 1.270 . S
C505 O520 1.251 1_545 S
C505 O521 1.251 . S
C506 Eu507 2.835 . S
C506 C508 1.500 . S
C506 O522 1.257 . S
C506 O523 1.260 . S
Eu507 C506 2.835 . S
Eu507 O519 2.355 . S
Eu507 O521 2.374 . S
Eu507 O522 2.473 . S
Eu507 O523 2.480 . S
Eu507 O524 2.430 1_455 S
Eu507 O525 2.645 1_545 S
Eu507 O526 2.394 . S
C508 C506 1.500 . S
C508 C509 1.377 . S
C508 C513 1.377 . S
C509 C508 1.377 . S
C509 C510 1.395 . S
C509 H532 0.931 1_455 S
C510 C509 1.395 . S
C510 C511 1.383 . S
C510 H533 0.931 1_455 S
C511 C510 1.383 . S
C511 C512 1.394 . S
C512 C511 1.394 . S
C512 C513 1.378 . S
C512 H534 0.931 . S
C513 C508 1.377 . S
C513 C512 1.378 . S
C513 H535 0.931 . S
C514 O524 1.259 . S
C514 O525 1.259 1_645 S
C515 O526 1.251 . S
C515 O527 1.251 1_545 S
O516 C496 1.257 . S
O516 Eu497 2.473 . S
O517 C496 1.260 . S
O517 Eu497 2.480 . S
O518 Eu497 2.439 . S
O518 C504 1.232 1_565 S
O519 Eu497 2.670 1_545 S
O519 C504 1.270 . S
O519 Eu507 2.355 . S
O520 Eu497 2.394 . S
O520 C505 1.251 1_565 S
O521 C505 1.251 . S
O521 Eu507 2.374 . S
O522 C506 1.257 . S
O522 Eu507 2.473 . S
O523 C506 1.260 . S
O523 Eu507 2.480 . S
O524 Eu507 2.430 1_655 S
O524 C514 1.259 . S
O525 Eu497 2.369 . S
O525 Eu507 2.645 1_565 S
O525 C514 1.259 1_465 S
O526 Eu507 2.394 . S
O526 C515 1.251 . S
O527 Eu497 2.374 . S
O527 C515 1.251 1_565 S
H528 C499 0.931 . S
H529 C500 0.931 . S
H530 C502 0.931 . S
H531 C503 0.931 . S
H532 C509 0.931 1_655 S
H533 C510 0.931 1_655 S
H534 C512 0.931 . S
H535 C513 0.931 . S
C536 Eu537 2.835 . S
C536 C538 1.500 . S
C536 O556 1.257 . S
C536 O557 1.260 . S
Eu537 C536 2.835 . S
Eu537 O556 2.473 . S
Eu537 O557 2.480 . S
Eu537 O558 2.430 . S
Eu537 O559 2.670 . S
Eu537 O560 2.394 . S
Eu537 O565 2.355 . S
Eu537 O567 2.374 . S
C538 C536 1.500 . S
C538 C539 1.377 . S
C538 C543 1.377 . S
C539 C538 1.377 . S
C539 C540 1.395 . S
C539 H568 0.931 . S
C540 C539 1.395 . S
C540 C541 1.383 . S
C540 H569 0.931 . S
C541 C540 1.383 . S
C541 C542 1.394 . S
C542 C541 1.394 . S
C542 C543 1.378 . S
C542 H570 0.931 . S
C543 C538 1.377 . S
C543 C542 1.378 . S
C543 H571 0.931 . S
C544 O558 1.259 . S
C544 O559 1.270 . S
C545 O560 1.251 . S
C545 O561 1.251 . S
C546 Eu547 2.835 . S
C546 C548 1.500 . S
C546 O562 1.257 . S
C546 O563 1.260 . S
Eu547 C546 2.835 . S
Eu547 O559 2.355 . S
Eu547 O561 2.374 . S
Eu547 O562 2.473 . S
Eu547 O563 2.480 . S
Eu547 O564 2.430 . S
Eu547 O565 2.670 . S
Eu547 O566 2.394 . S
C548 C546 1.500 . S
C548 C549 1.377 . S
C548 C553 1.377 . S
C549 C548 1.377 . S
C549 C550 1.395 . S
C549 H572 0.931 . S
C550 C549 1.395 . S
C550 C551 1.383 . S
C550 H573 0.931 . S
C551 C550 1.383 . S
C551 C552 1.394 . S
C552 C551 1.394 . S
C552 C553 1.378 . S
C552 H574 0.931 . S
C553 C548 1.377 . S
C553 C552 1.378 . S
C553 H575 0.931 . S
C554 O564 1.259 . S
C554 O565 1.270 . S
C555 O566 1.251 . S
C555 O567 1.251 . S
O556 C536 1.257 . S
O556 Eu537 2.473 . S
O557 C536 1.260 . S
O557 Eu537 2.480 . S
O558 Eu537 2.430 . S
O558 C544 1.259 . S
O559 Eu537 2.670 . S
O559 C544 1.270 . S
O559 Eu547 2.355 . S
O560 Eu537 2.394 . S
O560 C545 1.251 . S
O561 C545 1.251 . S
O561 Eu547 2.374 . S
O562 C546 1.257 . S
O562 Eu547 2.473 . S
O563 C546 1.260 . S
O563 Eu547 2.480 . S
O564 Eu547 2.430 . S
O564 C554 1.259 . S
O565 Eu537 2.355 . S
O565 Eu547 2.670 . S
O565 C554 1.270 . S
O566 Eu547 2.394 . S
O566 C555 1.251 . S
O567 Eu537 2.374 . S
O567 C555 1.251 . S
H568 C539 0.931 . S
H569 C540 0.931 . S
H570 C542 0.931 . S
H571 C543 0.931 . S
H572 C549 0.931 . S
H573 C550 0.931 . S
H574 C552 0.931 . S
H575 C553 0.931 . S
C576 Eu577 2.835 . S
C576 C578 1.500 . S
C576 O596 1.257 . S
C576 O597 1.260 . S
Eu577 C576 2.835 . S
Eu577 O596 2.473 . S
Eu577 O597 2.480 . S
Eu577 O598 2.430 1_545 S
Eu577 O599 2.670 1_545 S
Eu577 O600 2.394 . S
Eu577 O605 2.355 . S
Eu577 O607 2.374 . S
C578 C576 1.500 . S
C578 C579 1.377 . S
C578 C583 1.377 . S
C579 C578 1.377 . S
C579 C580 1.395 . S
C579 H608 0.931 . S
C580 C579 1.395 . S
C580 C581 1.383 . S
C580 H609 0.931 . S
C581 C580 1.383 . S
C581 C582 1.394 . S
C582 C581 1.394 . S
C582 C583 1.378 . S
C582 H610 0.931 . S
C583 C578 1.377 . S
C583 C582 1.378 . S
C583 H611 0.931 . S
C584 O598 1.259 . S
C584 O599 1.270 . S
C585 O600 1.251 . S
C585 O601 1.251 . S
C586 Eu587 2.835 1_565 S
C586 C588 1.500 . S
C586 O602 1.257 . S
C586 O603 1.260 1_565 S
Eu587 C586 2.835 1_545 S
Eu587 O599 2.355 1_545 S
Eu587 O601 2.374 . S
Eu587 O602 2.473 1_545 S
Eu587 O603 2.480 . S
Eu587 O604 2.430 . S
Eu587 O605 2.670 . S
Eu587 O606 2.394 . S
C588 C586 1.500 . S
C588 C589 1.377 . S
C588 C593 1.377 . S
C589 C588 1.377 . S
C589 C590 1.395 . S
C589 H612 0.931 . S
C590 C589 1.395 . S
C590 C591 1.383 . S
C590 H613 0.931 . S
C591 C590 1.383 . S
C591 C592 1.394 . S
C592 C591 1.394 . S
C592 C593 1.378 . S
C592 H614 0.931 . S
C593 C588 1.377 . S
C593 C592 1.378 . S
C593 H615 0.931 . S
C594 O604 1.259 . S
C594 O605 1.270 . S
C595 O606 1.251 . S
C595 O607 1.251 . S
O596 C576 1.257 . S
O596 Eu577 2.473 . S
O597 C576 1.260 . S
O597 Eu577 2.480 . S
O598 Eu577 2.430 1_565 S
O598 C584 1.259 . S
O599 Eu577 2.670 1_565 S
O599 C584 1.270 . S
O599 Eu587 2.355 1_565 S
O600 Eu577 2.394 . S
O600 C585 1.251 . S
O601 C585 1.251 . S
O601 Eu587 2.374 . S
O602 C586 1.257 . S
O602 Eu587 2.473 1_565 S
O603 C586 1.260 1_545 S
O603 Eu587 2.480 . S
O604 Eu587 2.430 . S
O604 C594 1.259 . S
O605 Eu577 2.355 . S
O605 Eu587 2.670 . S
O605 C594 1.270 . S
O606 Eu587 2.394 . S
O606 C595 1.251 . S
O607 Eu577 2.374 . S
O607 C595 1.251 . S
H608 C579 0.931 . S
H609 C580 0.931 . S
H610 C582 0.931 . S
H611 C583 0.931 . S
H612 C589 0.931 . S
H613 C590 0.931 . S
H614 C592 0.931 . S
H615 C593 0.931 . S
C616 Eu617 2.835 . S
C616 C618 1.500 . S
C616 O636 1.257 . S
C616 O637 1.260 . S
Eu617 C616 2.835 . S
Eu617 O636 2.473 . S
Eu617 O637 2.480 . S
Eu617 O638 2.430 . S
Eu617 O639 2.670 . S
Eu617 O640 2.394 . S
Eu617 O645 2.355 . S
Eu617 O647 2.374 . S
C618 C616 1.500 . S
C618 C619 1.377 . S
C618 C623 1.377 . S
C619 C618 1.377 . S
C619 C620 1.395 . S
C619 H648 0.931 . S
C620 C619 1.395 . S
C620 C621 1.383 . S
C620 H649 0.931 . S
C621 C620 1.383 . S
C621 C622 1.394 . S
C622 C621 1.394 . S
C622 C623 1.378 . S
C622 H650 0.931 . S
C623 C618 1.377 . S
C623 C622 1.378 . S
C623 H651 0.931 . S
C624 O638 1.259 . S
C624 O639 1.270 . S
C625 O640 1.251 . S
C625 O641 1.251 . S
C626 Eu627 2.835 . S
C626 C628 1.500 . S
C626 O642 1.257 . S
C626 O643 1.260 . S
Eu627 C626 2.835 . S
Eu627 O639 2.355 . S
Eu627 O641 2.374 . S
Eu627 O642 2.473 . S
Eu627 O643 2.480 . S
Eu627 O644 2.430 . S
Eu627 O645 2.670 . S
Eu627 O646 2.394 . S
C628 C626 1.500 . S
C628 C629 1.377 . S
C628 C633 1.377 . S
C629 C628 1.377 . S
C629 C630 1.395 . S
C629 H652 0.931 . S
C630 C629 1.395 . S
C630 C631 1.383 . S
C630 H653 0.931 . S
C631 C630 1.383 . S
C631 C632 1.394 . S
C632 C631 1.394 . S
C632 C633 1.378 . S
C632 H654 0.931 . S
C633 C628 1.377 . S
C633 C632 1.378 . S
C633 H655 0.931 . S
C634 O644 1.259 . S
C634 O645 1.270 . S
C635 O646 1.251 . S
C635 O647 1.251 . S
O636 C616 1.257 . S
O636 Eu617 2.473 . S
O637 C616 1.260 . S
O637 Eu617 2.480 . S
O638 Eu617 2.430 . S
O638 C624 1.259 . S
O639 Eu617 2.670 . S
O639 C624 1.270 . S
O639 Eu627 2.355 . S
O640 Eu617 2.394 . S
O640 C625 1.251 . S
O641 C625 1.251 . S
O641 Eu627 2.374 . S
O642 C626 1.257 . S
O642 Eu627 2.473 . S
O643 C626 1.260 . S
O643 Eu627 2.480 . S
O644 Eu627 2.430 . S
O644 C634 1.259 . S
O645 Eu617 2.355 . S
O645 Eu627 2.670 . S
O645 C634 1.270 . S
O646 Eu627 2.394 . S
O646 C635 1.251 . S
O647 Eu617 2.374 . S
O647 C635 1.251 . S
H648 C619 0.931 . S
H649 C620 0.931 . S
H650 C622 0.931 . S
H651 C623 0.931 . S
H652 C629 0.931 . S
H653 C630 0.931 . S
H654 C632 0.931 . S
H655 C633 0.931 . S
C656 Eu657 2.835 . S
C656 C658 1.500 . S
C656 O676 1.257 . S
C656 O677 1.260 . S
Eu657 C656 2.835 . S
Eu657 O676 2.473 . S
Eu657 O677 2.480 . S
Eu657 O678 2.430 . S
Eu657 O679 2.670 . S
Eu657 O680 2.394 . S
Eu657 O685 2.355 . S
Eu657 O687 2.374 . S
C658 C656 1.500 . S
C658 C659 1.377 . S
C658 C663 1.377 . S
C659 C658 1.377 . S
C659 C660 1.395 . S
C659 H688 0.931 . S
C660 C659 1.395 . S
C660 C661 1.383 . S
C660 H689 0.931 . S
C661 C660 1.383 . S
C661 C662 1.394 . S
C662 C661 1.394 . S
C662 C663 1.378 . S
C662 H690 0.931 . S
C663 C658 1.377 . S
C663 C662 1.378 . S
C663 H691 0.931 . S
C664 O678 1.259 . S
C664 O679 1.270 . S
C665 O680 1.251 . S
C665 O681 1.251 . S
C666 Eu667 2.835 . S
C666 C668 1.500 . S
C666 O682 1.257 . S
C666 O683 1.260 . S
Eu667 C666 2.835 . S
Eu667 O679 2.355 . S
Eu667 O681 2.374 . S
Eu667 O682 2.473 . S
Eu667 O683 2.480 . S
Eu667 O684 2.430 . S
Eu667 O685 2.670 . S
Eu667 O686 2.394 . S
C668 C666 1.500 . S
C668 C669 1.377 . S
C668 C673 1.377 . S
C669 C668 1.377 . S
C669 C670 1.395 . S
C669 H692 0.931 . S
C670 C669 1.395 . S
C670 C671 1.383 . S
C670 H693 0.931 . S
C671 C670 1.383 . S
C671 C672 1.394 . S
C672 C671 1.394 . S
C672 C673 1.378 . S
C672 H694 0.931 . S
C673 C668 1.377 . S
C673 C672 1.378 . S
C673 H695 0.931 . S
C674 O684 1.259 . S
C674 O685 1.270 . S
C675 O686 1.251 . S
C675 O687 1.251 . S
O676 C656 1.257 . S
O676 Eu657 2.473 . S
O677 C656 1.260 . S
O677 Eu657 2.480 . S
O678 Eu657 2.430 . S
O678 C664 1.259 . S
O679 Eu657 2.670 . S
O679 C664 1.270 . S
O679 Eu667 2.355 . S
O680 Eu657 2.394 . S
O680 C665 1.251 . S
O681 C665 1.251 . S
O681 Eu667 2.374 . S
O682 C666 1.257 . S
O682 Eu667 2.473 . S
O683 C666 1.260 . S
O683 Eu667 2.480 . S
O684 Eu667 2.430 . S
O684 C674 1.259 . S
O685 Eu657 2.355 . S
O685 Eu667 2.670 . S
O685 C674 1.270 . S
O686 Eu667 2.394 . S
O686 C675 1.251 . S
O687 Eu657 2.374 . S
O687 C675 1.251 . S
H688 C659 0.931 . S
H689 C660 0.931 . S
H690 C662 0.931 . S
H691 C663 0.931 . S
H692 C669 0.931 . S
H693 C670 0.931 . S
H694 C672 0.931 . S
H695 C673 0.931 . S
C696 Eu697 2.835 . S
C696 C698 1.500 . S
C696 O716 1.257 . S
C696 O717 1.260 . S
Eu697 C696 2.835 . S
Eu697 O716 2.473 . S
Eu697 O717 2.480 . S
Eu697 O718 2.430 . S
Eu697 O719 2.670 . S
Eu697 O720 2.394 . S
Eu697 O725 2.355 . S
Eu697 O727 2.374 . S
C698 C696 1.500 . S
C698 C699 1.377 . S
C698 C703 1.377 . S
C699 C698 1.377 . S
C699 C700 1.395 . S
C699 H728 0.931 . S
C700 C699 1.395 . S
C700 C701 1.383 . S
C700 H729 0.931 . S
C701 C700 1.383 . S
C701 C702 1.394 . S
C702 C701 1.394 . S
C702 C703 1.378 . S
C702 H730 0.931 . S
C703 C698 1.377 . S
C703 C702 1.378 . S
C703 H731 0.931 . S
C704 O718 1.259 . S
C704 O719 1.270 . S
C705 O720 1.251 . S
C705 O721 1.251 . S
C706 Eu707 2.835 . S
C706 C708 1.500 . S
C706 O722 1.257 . S
C706 O723 1.260 . S
Eu707 C706 2.835 . S
Eu707 O719 2.355 . S
Eu707 O721 2.374 . S
Eu707 O722 2.473 . S
Eu707 O723 2.480 . S
Eu707 O724 2.430 . S
Eu707 O725 2.670 . S
Eu707 O726 2.394 . S
C708 C706 1.500 . S
C708 C709 1.377 . S
C708 C713 1.377 . S
C709 C708 1.377 . S
C709 C710 1.395 . S
C709 H732 0.931 . S
C710 C709 1.395 . S
C710 C711 1.383 . S
C710 H733 0.931 . S
C711 C710 1.383 . S
C711 C712 1.394 . S
C712 C711 1.394 . S
C712 C713 1.378 . S
C712 H734 0.931 . S
C713 C708 1.377 . S
C713 C712 1.378 . S
C713 H735 0.931 . S
C714 O724 1.259 . S
C714 O725 1.270 . S
C715 O726 1.251 . S
C715 O727 1.251 . S
O716 C696 1.257 . S
O716 Eu697 2.473 . S
O717 C696 1.260 . S
O717 Eu697 2.480 . S
O718 Eu697 2.430 . S
O718 C704 1.259 . S
O719 Eu697 2.670 . S
O719 C704 1.270 . S
O719 Eu707 2.355 . S
O720 Eu697 2.394 . S
O720 C705 1.251 . S
O721 C705 1.251 . S
O721 Eu707 2.374 . S
O722 C706 1.257 . S
O722 Eu707 2.473 . S
O723 C706 1.260 . S
O723 Eu707 2.480 . S
O724 Eu707 2.430 . S
O724 C714 1.259 . S
O725 Eu697 2.355 . S
O725 Eu707 2.670 . S
O725 C714 1.270 . S
O726 Eu707 2.394 . S
O726 C715 1.251 . S
O727 Eu697 2.374 . S
O727 C715 1.251 . S
H728 C699 0.931 . S
H729 C700 0.931 . S
H730 C702 0.931 . S
H731 C703 0.931 . S
H732 C709 0.931 . S
H733 C710 0.931 . S
H734 C712 0.931 . S
H735 C713 0.931 . S
C736 Eu737 2.835 . S
C736 C738 1.500 . S
C736 O756 1.257 . S
C736 O757 1.260 . S
Eu737 C736 2.835 . S
Eu737 O756 2.473 . S
Eu737 O757 2.480 . S
Eu737 O758 2.430 . S
Eu737 O759 2.670 . S
Eu737 O760 2.394 . S
Eu737 O765 2.355 . S
Eu737 O767 2.374 . S
C738 C736 1.500 . S
C738 C739 1.377 . S
C738 C743 1.377 . S
C739 C738 1.377 . S
C739 C740 1.395 . S
C739 H768 0.931 . S
C740 C739 1.395 . S
C740 C741 1.383 . S
C740 H769 0.931 . S
C741 C740 1.383 . S
C741 C742 1.394 . S
C742 C741 1.394 . S
C742 C743 1.378 . S
C742 H770 0.931 . S
C743 C738 1.377 . S
C743 C742 1.378 . S
C743 H771 0.931 . S
C744 O758 1.259 . S
C744 O759 1.270 . S
C745 O760 1.251 . S
C745 O761 1.251 . S
C746 Eu747 2.835 1_655 S
C746 C748 1.500 . S
C746 O762 1.257 . S
C746 O763 1.260 . S
Eu747 C746 2.835 1_455 S
Eu747 O759 2.355 . S
Eu747 O761 2.374 . S
Eu747 O762 2.473 1_455 S
Eu747 O763 2.480 1_455 S
Eu747 O764 2.430 . S
Eu747 O765 2.670 . S
Eu747 O766 2.394 1_455 S
C748 C746 1.500 . S
C748 C749 1.377 . S
C748 C753 1.377 . S
C749 C748 1.377 . S
C749 C750 1.395 . S
C749 H772 0.931 . S
C750 C749 1.395 . S
C750 C751 1.383 . S
C750 H773 0.931 . S
C751 C750 1.383 . S
C751 C752 1.394 . S
C752 C751 1.394 . S
C752 C753 1.378 . S
C752 H774 0.931 . S
C753 C748 1.377 . S
C753 C752 1.378 . S
C753 H775 0.931 . S
C754 O764 1.259 . S
C754 O765 1.270 . S
C755 O766 1.251 1_455 S
C755 O767 1.251 . S
O756 C736 1.257 . S
O756 Eu737 2.473 . S
O757 C736 1.260 . S
O757 Eu737 2.480 . S
O758 Eu737 2.430 . S
O758 C744 1.259 . S
O759 Eu737 2.670 . S
O759 C744 1.270 . S
O759 Eu747 2.355 . S
O760 Eu737 2.394 . S
O760 C745 1.251 . S
O761 C745 1.251 . S
O761 Eu747 2.374 . S
O762 C746 1.257 . S
O762 Eu747 2.473 1_655 S
O763 C746 1.260 . S
O763 Eu747 2.480 1_655 S
O764 Eu747 2.430 . S
O764 C754 1.259 . S
O765 Eu737 2.355 . S
O765 Eu747 2.670 . S
O765 C754 1.270 . S
O766 Eu747 2.394 1_655 S
O766 C755 1.251 1_655 S
O767 Eu737 2.374 . S
O767 C755 1.251 . S
H768 C739 0.931 . S
H769 C740 0.931 . S
H770 C742 0.931 . S
H771 C743 0.931 . S
H772 C749 0.931 . S
H773 C750 0.931 . S
H774 C752 0.931 . S
H775 C753 0.931 . S
C776 Eu777 2.835 . S
C776 C778 1.500 . S
C776 O796 1.257 . S
C776 O797 1.260 . S
Eu777 C776 2.835 . S
Eu777 O796 2.473 . S
Eu777 O797 2.480 . S
Eu777 O798 2.430 . S
Eu777 O799 2.670 . S
Eu777 O800 2.394 . S
Eu777 O805 2.355 . S
Eu777 O807 2.374 . S
C778 C776 1.500 . S
C778 C779 1.377 . S
C778 C783 1.377 . S
C779 C778 1.377 . S
C779 C780 1.395 . S
C779 H808 0.931 . S
C780 C779 1.395 . S
C780 C781 1.383 . S
C780 H809 0.931 . S
C781 C780 1.383 . S
C781 C782 1.394 . S
C782 C781 1.394 . S
C782 C783 1.378 . S
C782 H810 0.931 . S
C783 C778 1.377 . S
C783 C782 1.378 . S
C783 H811 0.931 . S
C784 O798 1.259 . S
C784 O799 1.270 . S
C785 O800 1.251 . S
C785 O801 1.251 . S
C786 Eu787 2.835 . S
C786 C788 1.500 . S
C786 O802 1.257 . S
C786 O803 1.260 . S
Eu787 C786 2.835 . S
Eu787 O799 2.355 . S
Eu787 O801 2.374 . S
Eu787 O802 2.473 . S
Eu787 O803 2.480 . S
Eu787 O804 2.430 . S
Eu787 O805 2.670 . S
Eu787 O806 2.394 . S
C788 C786 1.500 . S
C788 C789 1.377 . S
C788 C793 1.377 . S
C789 C788 1.377 . S
C789 C790 1.395 . S
C789 H812 0.931 . S
C790 C789 1.395 . S
C790 C791 1.383 . S
C790 H813 0.931 . S
C791 C790 1.383 . S
C791 C792 1.394 . S
C792 C791 1.394 . S
C792 C793 1.378 . S
C792 H814 0.931 . S
C793 C788 1.377 . S
C793 C792 1.378 . S
C793 H815 0.931 . S
C794 O804 1.259 . S
C794 O805 1.270 . S
C795 O806 1.251 . S
C795 O807 1.251 . S
O796 C776 1.257 . S
O796 Eu777 2.473 . S
O797 C776 1.260 . S
O797 Eu777 2.480 . S
O798 Eu777 2.430 . S
O798 C784 1.259 . S
O799 Eu777 2.670 . S
O799 C784 1.270 . S
O799 Eu787 2.355 . S
O800 Eu777 2.394 . S
O800 C785 1.251 . S
O801 C785 1.251 . S
O801 Eu787 2.374 . S
O802 C786 1.257 . S
O802 Eu787 2.473 . S
O803 C786 1.260 . S
O803 Eu787 2.480 . S
O804 Eu787 2.430 . S
O804 C794 1.259 . S
O805 Eu777 2.355 . S
O805 Eu787 2.670 . S
O805 C794 1.270 . S
O806 Eu787 2.394 . S
O806 C795 1.251 . S
O807 Eu777 2.374 . S
O807 C795 1.251 . S
H808 C779 0.931 . S
H809 C780 0.931 . S
H810 C782 0.931 . S
H811 C783 0.931 . S
H812 C789 0.931 . S
H813 C790 0.931 . S
H814 C792 0.931 . S
H815 C793 0.931 . S
C816 Eu817 2.835 . S
C816 C818 1.500 . S
C816 O836 1.257 . S
C816 O837 1.260 . S
Eu817 C816 2.835 . S
Eu817 O836 2.473 . S
Eu817 O837 2.480 . S
Eu817 O838 2.430 . S
Eu817 O839 2.670 . S
Eu817 O840 2.394 . S
Eu817 O845 2.355 . S
Eu817 O847 2.374 . S
C818 C816 1.500 . S
C818 C819 1.377 . S
C818 C823 1.377 . S
C819 C818 1.377 . S
C819 C820 1.395 1_556 S
C819 H848 0.931 . S
C820 C819 1.395 1_554 S
C820 C821 1.383 . S
C820 H849 0.931 . S
C821 C820 1.383 . S
C821 C822 1.394 . S
C822 C821 1.394 . S
C822 C823 1.378 1_554 S
C822 H850 0.931 . S
C823 C818 1.377 . S
C823 C822 1.378 1_556 S
C823 H851 0.931 . S
C824 O838 1.259 . S
C824 O839 1.270 . S
C825 O840 1.251 . S
C825 O841 1.251 . S
C826 Eu827 2.835 . S
C826 C828 1.500 . S
C826 O842 1.257 . S
C826 O843 1.260 . S
Eu827 C826 2.835 . S
Eu827 O839 2.355 . S
Eu827 O841 2.374 . S
Eu827 O842 2.473 . S
Eu827 O843 2.480 . S
Eu827 O844 2.430 . S
Eu827 O845 2.670 . S
Eu827 O846 2.394 . S
C828 C826 1.500 . S
C828 C829 1.377 . S
C828 C833 1.377 . S
C829 C828 1.377 . S
C829 C830 1.395 . S
C829 H852 0.931 . S
C830 C829 1.395 . S
C830 C831 1.383 . S
C830 H853 0.931 . S
C831 C830 1.383 . S
C831 C832 1.394 . S
C832 C831 1.394 . S
C832 C833 1.378 . S
C832 H854 0.931 . S
C833 C828 1.377 . S
C833 C832 1.378 . S
C833 H855 0.931 . S
C834 O844 1.259 . S
C834 O845 1.270 . S
C835 O846 1.251 . S
C835 O847 1.251 . S
O836 C816 1.257 . S
O836 Eu817 2.473 . S
O837 C816 1.260 . S
O837 Eu817 2.480 . S
O838 Eu817 2.430 . S
O838 C824 1.259 . S
O839 Eu817 2.670 . S
O839 C824 1.270 . S
O839 Eu827 2.355 . S
O840 Eu817 2.394 . S
O840 C825 1.251 . S
O841 C825 1.251 . S
O841 Eu827 2.374 . S
O842 C826 1.257 . S
O842 Eu827 2.473 . S
O843 C826 1.260 . S
O843 Eu827 2.480 . S
O844 Eu827 2.430 . S
O844 C834 1.259 . S
O845 Eu817 2.355 . S
O845 Eu827 2.670 . S
O845 C834 1.270 . S
O846 Eu827 2.394 . S
O846 C835 1.251 . S
O847 Eu817 2.374 . S
O847 C835 1.251 . S
H848 C819 0.931 . S
H849 C820 0.931 . S
H850 C822 0.931 . S
H851 C823 0.931 . S
H852 C829 0.931 . S
H853 C830 0.931 . S
H854 C832 0.931 . S
H855 C833 0.931 . S
C856 Eu857 2.835 . S
C856 C858 1.500 . S
C856 O876 1.257 . S
C856 O877 1.260 . S
Eu857 C856 2.835 . S
Eu857 O876 2.473 . S
Eu857 O877 2.480 . S
Eu857 O878 2.430 . S
Eu857 O879 2.670 . S
Eu857 O880 2.394 . S
Eu857 O885 2.355 . S
Eu857 O887 2.374 . S
C858 C856 1.500 . S
C858 C859 1.377 . S
C858 C863 1.377 . S
C859 C858 1.377 . S
C859 C860 1.395 . S
C859 H888 0.931 . S
C860 C859 1.395 . S
C860 C861 1.383 . S
C860 H889 0.931 . S
C861 C860 1.383 . S
C861 C862 1.394 . S
C862 C861 1.394 . S
C862 C863 1.378 . S
C862 H890 0.931 . S
C863 C858 1.377 . S
C863 C862 1.378 . S
C863 H891 0.931 . S
C864 O878 1.259 . S
C864 O879 1.270 . S
C865 O880 1.251 . S
C865 O881 1.251 . S
C866 Eu867 2.835 . S
C866 C868 1.500 . S
C866 O882 1.257 . S
C866 O883 1.260 . S
Eu867 C866 2.835 . S
Eu867 O879 2.355 . S
Eu867 O881 2.374 . S
Eu867 O882 2.473 . S
Eu867 O883 2.480 . S
Eu867 O884 2.430 . S
Eu867 O885 2.670 . S
Eu867 O886 2.394 . S
C868 C866 1.500 . S
C868 C869 1.377 . S
C868 C873 1.377 . S
C869 C868 1.377 . S
C869 C870 1.395 . S
C869 H892 0.931 . S
C870 C869 1.395 . S
C870 C871 1.383 . S
C870 H893 0.931 . S
C871 C870 1.383 . S
C871 C872 1.394 . S
C872 C871 1.394 . S
C872 C873 1.378 . S
C872 H894 0.931 . S
C873 C868 1.377 . S
C873 C872 1.378 . S
C873 H895 0.931 . S
C874 O884 1.259 . S
C874 O885 1.270 . S
C875 O886 1.251 . S
C875 O887 1.251 . S
O876 C856 1.257 . S
O876 Eu857 2.473 . S
O877 C856 1.260 . S
O877 Eu857 2.480 . S
O878 Eu857 2.430 . S
O878 C864 1.259 . S
O879 Eu857 2.670 . S
O879 C864 1.270 . S
O879 Eu867 2.355 . S
O880 Eu857 2.394 . S
O880 C865 1.251 . S
O881 C865 1.251 . S
O881 Eu867 2.374 . S
O882 C866 1.257 . S
O882 Eu867 2.473 . S
O883 C866 1.260 . S
O883 Eu867 2.480 . S
O884 Eu867 2.430 . S
O884 C874 1.259 . S
O885 Eu857 2.355 . S
O885 Eu867 2.670 . S
O885 C874 1.270 . S
O886 Eu867 2.394 . S
O886 C875 1.251 . S
O887 Eu857 2.374 . S
O887 C875 1.251 . S
H888 C859 0.931 . S
H889 C860 0.931 . S
H890 C862 0.931 . S
H891 C863 0.931 . S
H892 C869 0.931 . S
H893 C870 0.931 . S
H894 C872 0.931 . S
H895 C873 0.931 . S
C896 Eu897 2.835 . S
C896 C898 1.500 . S
C896 O916 1.257 . S
C896 O917 1.260 . S
Eu897 C896 2.835 . S
Eu897 O916 2.473 . S
Eu897 O917 2.480 . S
Eu897 O918 2.430 . S
Eu897 O919 2.670 . S
Eu897 O920 2.394 . S
Eu897 O925 2.355 . S
Eu897 O927 2.374 . S
C898 C896 1.500 . S
C898 C899 1.377 . S
C898 C903 1.377 . S
C899 C898 1.377 . S
C899 C900 1.395 . S
C899 H928 0.931 . S
C900 C899 1.395 . S
C900 C901 1.383 . S
C900 H929 0.931 . S
C901 C900 1.383 . S
C901 C902 1.394 . S
C902 C901 1.394 . S
C902 C903 1.378 . S
C902 H930 0.931 . S
C903 C898 1.377 . S
C903 C902 1.378 . S
C903 H931 0.931 . S
C904 O918 1.259 . S
C904 O919 1.270 . S
C905 O920 1.251 . S
C905 O921 1.251 . S
C906 Eu907 2.835 . S
C906 C908 1.500 . S
C906 O922 1.257 . S
C906 O923 1.260 . S
Eu907 C906 2.835 . S
Eu907 O919 2.355 . S
Eu907 O921 2.374 . S
Eu907 O922 2.473 . S
Eu907 O923 2.480 . S
Eu907 O924 2.430 . S
Eu907 O925 2.670 . S
Eu907 O926 2.394 . S
C908 C906 1.500 . S
C908 C909 1.377 . S
C908 C913 1.377 . S
C909 C908 1.377 . S
C909 C910 1.395 . S
C909 H932 0.931 . S
C910 C909 1.395 . S
C910 C911 1.383 . S
C910 H933 0.931 . S
C911 C910 1.383 . S
C911 C912 1.394 . S
C912 C911 1.394 . S
C912 C913 1.378 . S
C912 H934 0.931 . S
C913 C908 1.377 . S
C913 C912 1.378 . S
C913 H935 0.931 . S
C914 O924 1.259 . S
C914 O925 1.270 . S
C915 O926 1.251 . S
C915 O927 1.251 . S
O916 C896 1.257 . S
O916 Eu897 2.473 . S
O917 C896 1.260 . S
O917 Eu897 2.480 . S
O918 Eu897 2.430 . S
O918 C904 1.259 . S
O919 Eu897 2.670 . S
O919 C904 1.270 . S
O919 Eu907 2.355 . S
O920 Eu897 2.394 . S
O920 C905 1.251 . S
O921 C905 1.251 . S
O921 Eu907 2.374 . S
O922 C906 1.257 . S
O922 Eu907 2.473 . S
O923 C906 1.260 . S
O923 Eu907 2.480 . S
O924 Eu907 2.430 . S
O924 C914 1.259 . S
O925 Eu897 2.355 . S
O925 Eu907 2.670 . S
O925 C914 1.270 . S
O926 Eu907 2.394 . S
O926 C915 1.251 . S
O927 Eu897 2.374 . S
O927 C915 1.251 . S
H928 C899 0.931 . S
H929 C900 0.931 . S
H930 C902 0.931 . S
H931 C903 0.931 . S
H932 C909 0.931 . S
H933 C910 0.931 . S
H934 C912 0.931 . S
H935 C913 0.931 . S
C936 Eu937 2.835 1_655 S
C936 C938 1.500 . S
C936 O956 1.257 . S
C936 O957 1.260 . S
Eu937 C936 2.835 1_455 S
Eu937 O956 2.473 1_455 S
Eu937 O957 2.480 1_455 S
Eu937 O958 2.430 . S
Eu937 O959 2.670 . S
Eu937 O960 2.394 . S
Eu937 O965 2.355 . S
Eu937 O967 2.374 . S
C938 C936 1.500 . S
C938 C939 1.377 . S
C938 C943 1.377 . S
C939 C938 1.377 . S
C939 C940 1.395 . S
C939 H968 0.931 . S
C940 C939 1.395 . S
C940 C941 1.383 . S
C940 H969 0.931 . S
C941 C940 1.383 . S
C941 C942 1.394 . S
C942 C941 1.394 . S
C942 C943 1.378 . S
C942 H970 0.931 . S
C943 C938 1.377 . S
C943 C942 1.378 . S
C943 H971 0.931 . S
C944 O958 1.259 . S
C944 O959 1.270 . S
C945 O960 1.251 . S
C945 O961 1.251 . S
C946 Eu947 2.835 . S
C946 C948 1.500 . S
C946 O962 1.257 . S
C946 O963 1.260 . S
Eu947 C946 2.835 . S
Eu947 O959 2.355 . S
Eu947 O961 2.374 . S
Eu947 O962 2.473 . S
Eu947 O963 2.480 . S
Eu947 O964 2.430 . S
Eu947 O965 2.670 . S
Eu947 O966 2.394 . S
C948 C946 1.500 . S
C948 C949 1.377 . S
C948 C953 1.377 . S
C949 C948 1.377 . S
C949 C950 1.395 . S
C949 H972 0.931 1_554 S
C950 C949 1.395 . S
C950 C951 1.383 . S
C950 H973 0.931 1_554 S
C951 C950 1.383 . S
C951 C952 1.394 . S
C952 C951 1.394 . S
C952 C953 1.378 . S
C952 H974 0.931 . S
C953 C948 1.377 . S
C953 C952 1.378 . S
C953 H975 0.931 . S
C954 O964 1.259 . S
C954 O965 1.270 . S
C955 O966 1.251 . S
C955 O967 1.251 . S
O956 C936 1.257 . S
O956 Eu937 2.473 1_655 S
O957 C936 1.260 . S
O957 Eu937 2.480 1_655 S
O958 Eu937 2.430 . S
O958 C944 1.259 . S
O959 Eu937 2.670 . S
O959 C944 1.270 . S
O959 Eu947 2.355 . S
O960 Eu937 2.394 . S
O960 C945 1.251 . S
O961 C945 1.251 . S
O961 Eu947 2.374 . S
O962 C946 1.257 . S
O962 Eu947 2.473 . S
O963 C946 1.260 . S
O963 Eu947 2.480 . S
O964 Eu947 2.430 . S
O964 C954 1.259 . S
O965 Eu937 2.355 . S
O965 Eu947 2.670 . S
O965 C954 1.270 . S
O966 Eu947 2.394 . S
O966 C955 1.251 . S
O967 Eu937 2.374 . S
O967 C955 1.251 . S
H968 C939 0.931 . S
H969 C940 0.931 . S
H970 C942 0.931 . S
H971 C943 0.931 . S
H972 C949 0.931 1_556 S
H973 C950 0.931 1_556 S
H974 C952 0.931 . S
H975 C953 0.931 . S
C976 C977 1.363 . S
C976 C982 1.379 . S
C976 N984 1.356 . S
C977 C976 1.363 . S
C977 C983 1.363 1_554 S
C978 C979 1.363 . S
C978 C983 1.379 1_554 S
C978 N985 1.356 . S
C979 C978 1.363 . S
C979 C982 1.363 . S
N980 C982 1.356 . S
N980 H992 0.984 . S
N980 H993 0.985 . S
N981 C983 1.356 1_655 S
N981 H986 0.984 . S
N981 H987 0.985 . S
C982 C976 1.379 . S
C982 C979 1.363 . S
C982 N980 1.356 . S
C983 C977 1.363 1_556 S
C983 C978 1.379 1_556 S
C983 N981 1.356 1_455 S
N984 C976 1.356 . S
N984 H990 0.984 . S
N984 H991 0.984 . S
N985 C978 1.356 . S
N985 H988 0.984 . S
N985 H989 0.985 1_554 S
H986 N981 0.984 . S
H987 N981 0.985 . S
H988 N985 0.984 . S
H989 N985 0.985 1_556 S
H990 N984 0.984 . S
H991 N984 0.984 . S
H992 N980 0.984 . S
H993 N980 0.985 . S
C994 C995 1.363 . S
C994 C1000 1.379 . S
C994 N1002 1.356 . S
C995 C994 1.363 . S
C995 C1001 1.363 . S
C996 C997 1.363 . S
C996 C1001 1.379 . S
C996 N1003 1.356 . S
C997 C996 1.363 . S
C997 C1000 1.363 . S
N998 C1000 1.356 . S
N998 H1010 0.984 . S
N998 H1011 0.985 . S
N999 C1001 1.356 . S
N999 H1004 0.984 . S
N999 H1005 0.985 . S
C1000 C994 1.379 . S
C1000 C997 1.363 . S
C1000 N998 1.356 . S
C1001 C995 1.363 . S
C1001 C996 1.379 . S
C1001 N999 1.356 . S
N1002 C994 1.356 . S
N1002 H1008 0.984 . S
N1002 H1009 0.984 . S
N1003 C996 1.356 . S
N1003 H1006 0.984 . S
N1003 H1007 0.985 . S
H1004 N999 0.984 . S
H1005 N999 0.985 . S
H1006 N1003 0.984 . S
H1007 N1003 0.985 . S
H1008 N1002 0.984 . S
H1009 N1002 0.984 . S
H1010 N998 0.984 . S
H1011 N998 0.985 . S
C1012 C1013 1.363 . S
C1012 C1018 1.379 . S
C1012 N1020 1.356 . S
C1013 C1012 1.363 . S
C1013 C1019 1.363 . S
C1014 C1015 1.363 . S
C1014 C1019 1.379 . S
C1014 N1021 1.356 . S
C1015 C1014 1.363 . S
C1015 C1018 1.363 . S
N1016 C1018 1.356 . S
N1016 H1028 0.984 . S
N1016 H1029 0.985 . S
N1017 C1019 1.356 . S
N1017 H1022 0.984 . S
N1017 H1023 0.985 . S
C1018 C1012 1.379 . S
C1018 C1015 1.363 . S
C1018 N1016 1.356 . S
C1019 C1013 1.363 . S
C1019 C1014 1.379 . S
C1019 N1017 1.356 . S
N1020 C1012 1.356 . S
N1020 H1026 0.984 . S
N1020 H1027 0.984 . S
N1021 C1014 1.356 . S
N1021 H1024 0.984 . S
N1021 H1025 0.985 . S
H1022 N1017 0.984 . S
H1023 N1017 0.985 . S
H1024 N1021 0.984 . S
H1025 N1021 0.985 . S
H1026 N1020 0.984 . S
H1027 N1020 0.984 . S
H1028 N1016 0.984 . S
H1029 N1016 0.985 . S
C1030 C1031 1.363 . S
C1030 C1036 1.379 . S
C1030 N1038 1.356 . S
C1031 C1030 1.363 . S
C1031 C1037 1.363 . S
C1032 C1033 1.363 . S
C1032 C1037 1.379 . S
C1032 N1039 1.356 . S
C1033 C1032 1.363 . S
C1033 C1036 1.363 . S
N1034 C1036 1.356 . S
N1034 H1046 0.984 . S
N1034 H1047 0.985 . S
N1035 C1037 1.356 . S
N1035 H1040 0.984 . S
N1035 H1041 0.985 . S
C1036 C1030 1.379 . S
C1036 C1033 1.363 . S
C1036 N1034 1.356 . S
C1037 C1031 1.363 . S
C1037 C1032 1.379 . S
C1037 N1035 1.356 . S
N1038 C1030 1.356 . S
N1038 H1044 0.984 . S
N1038 H1045 0.984 . S
N1039 C1032 1.356 . S
N1039 H1042 0.984 . S
N1039 H1043 0.985 . S
H1040 N1035 0.984 . S
H1041 N1035 0.985 . S
H1042 N1039 0.984 . S
H1043 N1039 0.985 . S
H1044 N1038 0.984 . S
H1045 N1038 0.984 . S
H1046 N1034 0.984 . S
H1047 N1034 0.985 . S
C1048 C1049 1.363 . S
C1048 C1054 1.379 . S
C1048 N1056 1.381 . S
C1049 C1048 1.363 . S
C1049 C1055 1.363 . S
C1050 C1051 1.363 . S
C1050 C1055 1.379 . S
C1050 N1057 1.356 . S
C1051 C1050 1.363 . S
C1051 C1054 1.363 . S
N1052 C1054 1.356 . S
N1052 H1064 0.984 . S
N1052 H1065 0.985 . S
N1053 C1055 1.356 . S
N1053 H1058 0.984 . S
N1053 H1059 0.985 . S
C1054 C1048 1.379 . S
C1054 C1051 1.363 . S
C1054 N1052 1.356 . S
C1055 C1049 1.363 . S
C1055 C1050 1.379 . S
C1055 N1053 1.356 . S
N1056 C1048 1.381 . S
N1056 H1062 0.969 1_455 S
N1056 H1063 0.975 1_455 S
N1057 C1050 1.356 . S
N1057 H1060 0.984 . S
N1057 H1061 0.985 . S
H1058 N1053 0.984 . S
H1059 N1053 0.985 . S
H1060 N1057 0.984 . S
H1061 N1057 0.985 . S
H1062 N1056 0.969 1_655 S
H1063 N1056 0.975 1_655 S
H1064 N1052 0.984 . S
H1065 N1052 0.985 . S
C1066 C1067 1.363 . S
C1066 C1072 1.379 . S
C1066 N1074 1.356 . S
C1067 C1066 1.363 . S
C1067 C1073 1.363 . S
C1068 C1069 1.363 . S
C1068 C1073 1.379 . S
C1068 N1075 1.356 . S
C1069 C1068 1.363 . S
C1069 C1072 1.363 . S
N1070 C1072 1.356 . S
N1070 H1082 0.984 . S
N1070 H1083 0.985 . S
N1071 C1073 1.356 . S
N1071 H1076 0.984 . S
N1071 H1077 0.985 . S
C1072 C1066 1.379 . S
C1072 C1069 1.363 . S
C1072 N1070 1.356 . S
C1073 C1067 1.363 . S
C1073 C1068 1.379 . S
C1073 N1071 1.356 . S
N1074 C1066 1.356 . S
N1074 H1080 0.984 . S
N1074 H1081 0.984 . S
N1075 C1068 1.356 . S
N1075 H1078 0.984 . S
N1075 H1079 0.985 . S
H1076 N1071 0.984 . S
H1077 N1071 0.985 . S
H1078 N1075 0.984 . S
H1079 N1075 0.985 . S
H1080 N1074 0.984 . S
H1081 N1074 0.984 . S
H1082 N1070 0.984 . S
H1083 N1070 0.985 . S
C1084 C1085 1.363 . S
C1084 C1090 1.379 . S
C1084 N1092 1.356 . S
C1085 C1084 1.363 . S
C1085 C1091 1.363 . S
C1086 C1087 1.363 . S
C1086 C1091 1.379 . S
C1086 N1093 1.356 . S
C1087 C1086 1.363 . S
C1087 C1090 1.363 . S
N1088 C1090 1.356 . S
N1088 H1100 0.984 . S
N1088 H1101 0.985 . S
N1089 C1091 1.356 . S
N1089 H1094 0.984 . S
N1089 H1095 0.985 . S
C1090 C1084 1.379 . S
C1090 C1087 1.363 . S
C1090 N1088 1.356 . S
C1091 C1085 1.363 . S
C1091 C1086 1.379 . S
C1091 N1089 1.356 . S
N1092 C1084 1.356 . S
N1092 H1098 0.984 . S
N1092 H1099 0.984 . S
N1093 C1086 1.356 . S
N1093 H1096 0.984 . S
N1093 H1097 0.985 . S
H1094 N1089 0.984 . S
H1095 N1089 0.985 . S
H1096 N1093 0.984 . S
H1097 N1093 0.985 . S
H1098 N1092 0.984 . S
H1099 N1092 0.984 . S
H1100 N1088 0.984 . S
H1101 N1088 0.985 . S
C1102 C1103 1.363 . S
C1102 C1108 1.379 . S
C1102 N1110 1.356 . S
C1103 C1102 1.363 . S
C1103 C1109 1.363 . S
C1104 C1105 1.363 . S
C1104 C1109 1.379 . S
C1104 N1111 1.356 . S
C1105 C1104 1.363 . S
C1105 C1108 1.363 . S
N1106 C1108 1.356 . S
N1106 H1118 0.984 . S
N1106 H1119 0.985 . S
N1107 C1109 1.356 . S
N1107 H1112 0.984 . S
N1107 H1113 0.985 . S
C1108 C1102 1.379 . S
C1108 C1105 1.363 . S
C1108 N1106 1.356 . S
C1109 C1103 1.363 . S
C1109 C1104 1.379 . S
C1109 N1107 1.356 . S
N1110 C1102 1.356 . S
N1110 H1116 0.984 . S
N1110 H1117 0.984 . S
N1111 C1104 1.356 . S
N1111 H1114 0.984 . S
N1111 H1115 0.985 . S
H1112 N1107 0.984 . S
H1113 N1107 0.985 . S
H1114 N1111 0.984 . S
H1115 N1111 0.985 . S
H1116 N1110 0.984 . S
H1117 N1110 0.984 . S
H1118 N1106 0.984 . S
H1119 N1106 0.985 . S
C1120 C1121 1.363 . S
C1120 C1126 1.379 1_655 S
C1120 N1128 1.356 1_545 S
C1121 C1120 1.363 . S
C1121 C1127 1.363 . S
C1122 C1123 1.363 1_655 S
C1122 C1127 1.379 . S
C1122 N1129 1.356 . S
C1123 C1122 1.363 1_455 S
C1123 C1126 1.363 . S
N1124 C1126 1.356 . S
N1124 H1136 0.984 1_545 S
N1124 H1137 0.985 . S
N1125 C1127 1.356 . S
N1125 H1130 0.984 . S
N1125 H1131 0.985 . S
C1126 C1120 1.379 1_455 S
C1126 C1123 1.363 . S
C1126 N1124 1.356 . S
C1127 C1121 1.363 . S
C1127 C1122 1.379 . S
C1127 N1125 1.356 . S
N1128 C1120 1.356 1_565 S
N1128 H1134 0.984 . S
N1128 H1135 0.984 1_565 S
N1129 C1122 1.356 . S
N1129 H1132 0.984 1_655 S
N1129 H1133 0.985 . S
H1130 N1125 0.984 . S
H1131 N1125 0.985 . S
H1132 N1129 0.984 1_455 S
H1133 N1129 0.985 . S
H1134 N1128 0.984 . S
H1135 N1128 0.984 1_545 S
H1136 N1124 0.984 1_565 S
H1137 N1124 0.985 . S
C1138 C1139 1.363 . S
C1138 C1144 1.379 . S
C1138 N1146 1.356 . S
C1139 C1138 1.363 . S
C1139 C1145 1.363 . S
C1140 C1141 1.363 . S
C1140 C1145 1.379 . S
C1140 N1147 1.356 . S
C1141 C1140 1.363 . S
C1141 C1144 1.363 . S
N1142 C1144 1.356 . S
N1142 H1154 0.984 . S
N1142 H1155 0.985 . S
N1143 C1145 1.356 . S
N1143 H1148 0.984 . S
N1143 H1149 0.985 . S
C1144 C1138 1.379 . S
C1144 C1141 1.363 . S
C1144 N1142 1.356 . S
C1145 C1139 1.363 . S
C1145 C1140 1.379 . S
C1145 N1143 1.356 . S
N1146 C1138 1.356 . S
N1146 H1152 0.984 . S
N1146 H1153 0.984 . S
N1147 C1140 1.356 . S
N1147 H1150 0.984 . S
N1147 H1151 0.985 . S
H1148 N1143 0.984 . S
H1149 N1143 0.985 . S
H1150 N1147 0.984 . S
H1151 N1147 0.985 . S
H1152 N1146 0.984 . S
H1153 N1146 0.984 . S
H1154 N1142 0.984 . S
H1155 N1142 0.985 . S
C1156 C1157 1.363 1_565 S
C1156 C1162 1.379 . S
C1156 N1164 1.356 . S
C1157 C1156 1.363 1_545 S
C1157 C1163 1.363 . S
C1158 C1159 1.363 . S
C1158 C1163 1.379 . S
C1158 N1165 1.356 . S
C1159 C1158 1.363 . S
C1159 C1162 1.363 1_545 S
N1160 C1162 1.356 . S
N1160 H1172 0.984 . S
N1160 H1173 0.985 . S
N1161 C1163 1.356 . S
N1161 H1166 0.984 . S
N1161 H1167 0.985 . S
C1162 C1156 1.379 . S
C1162 C1159 1.363 1_565 S
C1162 N1160 1.356 . S
C1163 C1157 1.363 . S
C1163 C1158 1.379 . S
C1163 N1161 1.356 . S
N1164 C1156 1.356 . S
N1164 H1170 0.984 . S
N1164 H1171 0.984 . S
N1165 C1158 1.356 . S
N1165 H1168 0.984 . S
N1165 H1169 0.985 . S
H1166 N1161 0.984 . S
H1167 N1161 0.985 . S
H1168 N1165 0.984 . S
H1169 N1165 0.985 . S
H1170 N1164 0.984 . S
H1171 N1164 0.984 . S
H1172 N1160 0.984 . S
H1173 N1160 0.985 . S
C1174 C1175 1.363 . S
C1174 C1180 1.379 . S
C1174 N1182 1.356 . S
C1175 C1174 1.363 . S
C1175 C1181 1.363 . S
C1176 C1177 1.363 . S
C1176 C1181 1.379 . S
C1176 N1183 1.356 . S
C1177 C1176 1.363 . S
C1177 C1180 1.363 . S
N1178 C1180 1.356 . S
N1178 H1190 0.984 . S
N1178 H1191 0.985 . S
N1179 C1181 1.356 1_554 S
N1179 H1184 0.984 . S
N1179 H1185 0.985 . S
C1180 C1174 1.379 . S
C1180 C1177 1.363 . S
C1180 N1178 1.356 . S
C1181 C1175 1.363 . S
C1181 C1176 1.379 . S
C1181 N1179 1.356 1_556 S
N1182 C1174 1.356 . S
N1182 H1188 0.984 . S
N1182 H1189 0.984 1_556 S
N1183 C1176 1.356 . S
N1183 H1186 0.984 . S
N1183 H1187 0.985 . S
H1184 N1179 0.984 . S
H1185 N1179 0.985 . S
H1186 N1183 0.984 . S
H1187 N1183 0.985 . S
H1188 N1182 0.984 . S
H1189 N1182 0.984 1_554 S
H1190 N1178 0.984 . S
H1191 N1178 0.985 . S
C1192 C1193 1.363 . S
C1192 C1198 1.379 . S
C1192 N1200 1.356 1_545 S
C1193 C1192 1.363 . S
C1193 C1199 1.363 . S
C1194 C1195 1.360 1_455 S
C1194 C1199 1.379 1_455 S
C1194 N1201 1.356 . S
C1195 C1194 1.360 1_655 S
C1195 C1198 1.389 . S
N1196 C1198 1.356 1_565 S
N1196 H1208 0.984 . S
N1196 H1209 0.985 . S
N1197 C1199 1.356 . S
N1197 H1202 0.984 . S
N1197 H1203 0.976 1_655 S
C1198 C1192 1.379 . S
C1198 C1195 1.389 . S
C1198 N1196 1.356 1_545 S
C1199 C1193 1.363 . S
C1199 C1194 1.379 1_655 S
C1199 N1197 1.356 . S
N1200 C1192 1.356 1_565 S
N1200 H1206 0.984 . S
N1200 H1207 0.984 1_565 S
N1201 C1194 1.356 . S
N1201 H1204 0.984 . S
N1201 H1205 0.985 . S
H1202 N1197 0.984 . S
H1203 N1197 0.976 1_455 S
H1204 N1201 0.984 . S
H1205 N1201 0.985 . S
H1206 N1200 0.984 . S
H1207 N1200 0.984 1_545 S
H1208 N1196 0.984 . S
H1209 N1196 0.985 . S
C1210 C1211 1.363 . S
C1210 C1216 1.379 . S
C1210 N1218 1.356 . S
C1211 C1210 1.363 . S
C1211 C1217 1.363 . S
C1212 C1213 1.363 . S
C1212 C1217 1.379 . S
C1212 N1219 1.356 . S
C1213 C1212 1.363 . S
C1213 C1216 1.363 . S
N1214 C1216 1.356 . S
N1214 H1226 0.984 . S
N1214 H1227 0.985 . S
N1215 C1217 1.356 . S
N1215 H1220 0.984 . S
N1215 H1221 0.985 . S
C1216 C1210 1.379 . S
C1216 C1213 1.363 . S
C1216 N1214 1.356 . S
C1217 C1211 1.363 . S
C1217 C1212 1.379 . S
C1217 N1215 1.356 . S
N1218 C1210 1.356 . S
N1218 H1224 0.984 . S
N1218 H1225 0.984 . S
N1219 C1212 1.356 . S
N1219 H1222 0.984 . S
N1219 H1223 0.985 . S
H1220 N1215 0.984 . S
H1221 N1215 0.985 . S
H1222 N1219 0.984 . S
H1223 N1219 0.985 . S
H1224 N1218 0.984 . S
H1225 N1218 0.984 . S
H1226 N1214 0.984 . S
H1227 N1214 0.985 . S
C1228 C1229 1.363 . S
C1228 C1234 1.379 . S
C1228 N1236 1.356 . S
C1229 C1228 1.363 . S
C1229 C1235 1.359 1_545 S
C1230 C1231 1.363 . S
C1230 C1235 1.377 1_545 S
C1230 N1237 1.356 1_545 S
C1231 C1230 1.363 . S
C1231 C1234 1.363 . S
N1232 C1234 1.356 1_554 S
N1232 H1244 0.984 . S
N1232 H1245 0.985 . S
N1233 C1235 1.361 . S
N1233 H1238 0.984 . S
N1233 H1239 0.985 . S
C1234 C1228 1.379 . S
C1234 C1231 1.363 . S
C1234 N1232 1.356 1_556 S
C1235 C1229 1.359 1_565 S
C1235 C1230 1.377 1_565 S
C1235 N1233 1.361 . S
N1236 C1228 1.356 . S
N1236 H1242 0.984 . S
N1236 H1243 0.984 . S
N1237 C1230 1.356 1_565 S
N1237 H1240 0.985 1_565 S
N1237 H1241 0.985 . S
H1238 N1233 0.984 . S
H1239 N1233 0.985 . S
H1240 N1237 0.985 1_545 S
H1241 N1237 0.985 . S
H1242 N1236 0.984 . S
H1243 N1236 0.984 . S
H1244 N1232 0.984 . S
H1245 N1232 0.985 . S
C1246 C1247 1.363 . S
C1246 C1252 1.379 . S
C1246 N1254 1.356 . S
C1247 C1246 1.363 . S
C1247 C1253 1.363 . S
C1248 C1249 1.363 . S
C1248 C1253 1.379 . S
C1248 N1255 1.356 . S
C1249 C1248 1.363 . S
C1249 C1252 1.363 . S
N1250 C1252 1.356 . S
N1250 H1262 0.984 . S
N1250 H1263 0.985 . S
N1251 C1253 1.356 . S
N1251 H1256 0.984 . S
N1251 H1257 0.985 . S
C1252 C1246 1.379 . S
C1252 C1249 1.363 . S
C1252 N1250 1.356 . S
C1253 C1247 1.363 . S
C1253 C1248 1.379 . S
C1253 N1251 1.356 . S
N1254 C1246 1.356 . S
N1254 H1260 0.984 . S
N1254 H1261 0.984 . S
N1255 C1248 1.356 . S
N1255 H1258 0.984 . S
N1255 H1259 0.985 . S
H1256 N1251 0.984 . S
H1257 N1251 0.985 . S
H1258 N1255 0.984 . S
H1259 N1255 0.985 . S
H1260 N1254 0.984 . S
H1261 N1254 0.984 . S
H1262 N1250 0.984 . S
H1263 N1250 0.985 . S
C1264 C1265 1.363 . S
C1264 C1270 1.379 . S
C1264 N1272 1.356 . S
C1265 C1264 1.363 . S
C1265 C1271 1.363 . S
C1266 C1267 1.363 . S
C1266 C1271 1.379 . S
C1266 N1273 1.356 . S
C1267 C1266 1.363 . S
C1267 C1270 1.363 . S
N1268 C1270 1.356 . S
N1268 H1280 0.984 . S
N1268 H1281 0.985 . S
N1269 C1271 1.356 . S
N1269 H1274 0.984 . S
N1269 H1275 0.985 . S
C1270 C1264 1.379 . S
C1270 C1267 1.363 . S
C1270 N1268 1.356 . S
C1271 C1265 1.363 . S
C1271 C1266 1.379 . S
C1271 N1269 1.356 . S
N1272 C1264 1.356 . S
N1272 H1278 0.984 . S
N1272 H1279 0.984 1_554 S
N1273 C1266 1.356 . S
N1273 H1276 0.984 . S
N1273 H1277 0.985 . S
H1274 N1269 0.984 . S
H1275 N1269 0.985 . S
H1276 N1273 0.984 . S
H1277 N1273 0.985 . S
H1278 N1272 0.984 . S
H1279 N1272 0.984 1_556 S
H1280 N1268 0.984 . S
H1281 N1268 0.985 . S
C1282 C1283 1.363 . S
C1282 C1288 1.379 . S
C1282 N1290 1.356 . S
C1283 C1282 1.363 . S
C1283 C1289 1.363 . S
C1284 C1285 1.363 . S
C1284 C1289 1.379 . S
C1284 N1291 1.356 . S
C1285 C1284 1.363 . S
C1285 C1288 1.363 . S
N1286 C1288 1.356 . S
N1286 H1298 0.984 . S
N1286 H1299 0.985 . S
N1287 C1289 1.356 . S
N1287 H1292 0.984 . S
N1287 H1293 0.985 . S
C1288 C1282 1.379 . S
C1288 C1285 1.363 . S
C1288 N1286 1.356 . S
C1289 C1283 1.363 . S
C1289 C1284 1.379 . S
C1289 N1287 1.356 . S
N1290 C1282 1.356 . S
N1290 H1296 0.984 . S
N1290 H1297 0.984 . S
N1291 C1284 1.356 . S
N1291 H1294 0.984 . S
N1291 H1295 0.985 . S
H1292 N1287 0.984 . S
H1293 N1287 0.985 . S
H1294 N1291 0.984 . S
H1295 N1291 0.985 . S
H1296 N1290 0.984 . S
H1297 N1290 0.984 . S
H1298 N1286 0.984 . S
H1299 N1286 0.985 . S
C1300 C1301 1.363 . S
C1300 C1306 1.379 . S
C1300 N1308 1.356 . S
C1301 C1300 1.363 . S
C1301 C1307 1.363 . S
C1302 C1303 1.363 . S
C1302 C1307 1.379 . S
C1302 N1309 1.356 . S
C1303 C1302 1.363 . S
C1303 C1306 1.363 . S
N1304 C1306 1.356 . S
N1304 H1316 0.984 . S
N1304 H1317 0.985 . S
N1305 C1307 1.356 . S
N1305 H1310 0.984 . S
N1305 H1311 0.985 . S
C1306 C1300 1.379 . S
C1306 C1303 1.363 . S
C1306 N1304 1.356 . S
C1307 C1301 1.363 . S
C1307 C1302 1.379 . S
C1307 N1305 1.356 . S
N1308 C1300 1.356 . S
N1308 H1314 0.984 . S
N1308 H1315 0.984 . S
N1309 C1302 1.356 . S
N1309 H1312 0.984 . S
N1309 H1313 0.985 . S
H1310 N1305 0.984 . S
H1311 N1305 0.985 . S
H1312 N1309 0.984 . S
H1313 N1309 0.985 . S
H1314 N1308 0.984 . S
H1315 N1308 0.984 . S
H1316 N1304 0.984 . S
H1317 N1304 0.985 . S
C1318 C1319 1.363 . S
C1318 C1324 1.379 . S
C1318 N1326 1.356 . S
C1319 C1318 1.363 . S
C1319 C1325 1.363 . S
C1320 C1321 1.363 . S
C1320 C1325 1.379 . S
C1320 N1327 1.356 . S
C1321 C1320 1.363 . S
C1321 C1324 1.363 . S
N1322 C1324 1.356 . S
N1322 H1334 0.984 . S
N1322 H1335 0.985 . S
N1323 C1325 1.356 . S
N1323 H1328 0.984 . S
N1323 H1329 0.985 . S
C1324 C1318 1.379 . S
C1324 C1321 1.363 . S
C1324 N1322 1.356 . S
C1325 C1319 1.363 . S
C1325 C1320 1.379 . S
C1325 N1323 1.356 . S
N1326 C1318 1.356 . S
N1326 H1332 0.984 . S
N1326 H1333 0.984 . S
N1327 C1320 1.356 . S
N1327 H1330 0.984 . S
N1327 H1331 0.985 . S
H1328 N1323 0.984 . S
H1329 N1323 0.985 . S
H1330 N1327 0.984 . S
H1331 N1327 0.985 . S
H1332 N1326 0.984 . S
H1333 N1326 0.984 . S
H1334 N1322 0.984 . S
H1335 N1322 0.985 . S
C1336 C1337 1.363 . S
C1336 C1342 1.379 . S
C1336 N1344 1.356 . S
C1337 C1336 1.363 . S
C1337 C1343 1.363 . S
C1338 C1339 1.363 . S
C1338 C1343 1.379 . S
C1338 N1345 1.356 . S
C1339 C1338 1.363 . S
C1339 C1342 1.363 . S
N1340 C1342 1.356 . S
N1340 H1352 0.984 . S
N1340 H1353 0.985 . S
N1341 C1343 1.356 . S
N1341 H1346 0.984 . S
N1341 H1347 0.985 . S
C1342 C1336 1.379 . S
C1342 C1339 1.363 . S
C1342 N1340 1.356 . S
C1343 C1337 1.363 . S
C1343 C1338 1.379 . S
C1343 N1341 1.356 . S
N1344 C1336 1.356 . S
N1344 H1350 0.984 . S
N1344 H1351 0.984 . S
N1345 C1338 1.356 . S
N1345 H1348 0.984 . S
N1345 H1349 0.985 . S
H1346 N1341 0.984 . S
H1347 N1341 0.985 . S
H1348 N1345 0.984 . S
H1349 N1345 0.985 . S
H1350 N1344 0.984 . S
H1351 N1344 0.984 . S
H1352 N1340 0.984 . S
H1353 N1340 0.985 . S
C1354 C1355 1.363 . S
C1354 C1360 1.379 . S
C1354 N1362 1.356 . S
C1355 C1354 1.363 . S
C1355 C1361 1.363 . S
C1356 C1357 1.363 . S
C1356 C1361 1.379 . S
C1356 N1363 1.356 . S
C1357 C1356 1.363 . S
C1357 C1360 1.363 . S
N1358 C1360 1.356 . S
N1358 H1370 0.984 . S
N1358 H1371 0.985 . S
N1359 C1361 1.356 . S
N1359 H1364 0.984 . S
N1359 H1365 0.985 . S
C1360 C1354 1.379 . S
C1360 C1357 1.363 . S
C1360 N1358 1.356 . S
C1361 C1355 1.363 . S
C1361 C1356 1.379 . S
C1361 N1359 1.356 . S
N1362 C1354 1.356 . S
N1362 H1368 0.984 . S
N1362 H1369 0.984 . S
N1363 C1356 1.356 . S
N1363 H1366 0.984 . S
N1363 H1367 0.985 . S
H1364 N1359 0.984 . S
H1365 N1359 0.985 . S
H1366 N1363 0.984 . S
H1367 N1363 0.985 . S
H1368 N1362 0.984 . S
H1369 N1362 0.984 . S
H1370 N1358 0.984 . S
H1371 N1358 0.985 . S
C1372 C1373 1.363 . S
C1372 C1378 1.379 . S
C1372 N1380 1.356 . S
C1373 C1372 1.363 . S
C1373 C1379 1.363 . S
C1374 C1375 1.363 . S
C1374 C1379 1.379 . S
C1374 N1381 1.356 . S
C1375 C1374 1.363 . S
C1375 C1378 1.363 . S
N1376 C1378 1.356 . S
N1376 H1388 0.984 . S
N1376 H1389 0.985 . S
N1377 C1379 1.356 . S
N1377 H1382 0.984 . S
N1377 H1383 0.985 . S
C1378 C1372 1.379 . S
C1378 C1375 1.363 . S
C1378 N1376 1.356 . S
C1379 C1373 1.363 . S
C1379 C1374 1.379 . S
C1379 N1377 1.356 . S
N1380 C1372 1.356 . S
N1380 H1386 0.984 . S
N1380 H1387 0.984 . S
N1381 C1374 1.356 . S
N1381 H1384 0.984 . S
N1381 H1385 0.985 . S
H1382 N1377 0.984 . S
H1383 N1377 0.985 . S
H1384 N1381 0.984 . S
H1385 N1381 0.985 . S
H1386 N1380 0.984 . S
H1387 N1380 0.984 . S
H1388 N1376 0.984 . S
H1389 N1376 0.985 . S
C1390 C1391 1.363 . S
C1390 C1396 1.379 . S
C1390 N1398 1.356 . S
C1391 C1390 1.363 . S
C1391 C1397 1.363 . S
C1392 C1393 1.363 . S
C1392 C1397 1.379 . S
C1392 N1399 1.356 . S
C1393 C1392 1.363 . S
C1393 C1396 1.363 . S
N1394 C1396 1.356 . S
N1394 H1406 0.984 . S
N1394 H1407 0.985 . S
N1395 C1397 1.356 . S
N1395 H1400 0.984 . S
N1395 H1401 0.985 . S
C1396 C1390 1.379 . S
C1396 C1393 1.363 . S
C1396 N1394 1.356 . S
C1397 C1391 1.363 . S
C1397 C1392 1.379 . S
C1397 N1395 1.356 . S
N1398 C1390 1.356 . S
N1398 H1404 0.984 . S
N1398 H1405 0.984 . S
N1399 C1392 1.356 . S
N1399 H1402 0.984 . S
N1399 H1403 0.985 . S
H1400 N1395 0.984 . S
H1401 N1395 0.985 . S
H1402 N1399 0.984 . S
H1403 N1399 0.985 . S
H1404 N1398 0.984 . S
H1405 N1398 0.984 . S
H1406 N1394 0.984 . S
H1407 N1394 0.985 . S
C1408 C1409 1.363 . S
C1408 C1414 1.379 . S
C1408 N1416 1.356 . S
C1409 C1408 1.363 . S
C1409 C1415 1.363 . S
C1410 C1411 1.363 . S
C1410 C1415 1.379 . S
C1410 N1417 1.356 . S
C1411 C1410 1.363 . S
C1411 C1414 1.363 . S
N1412 C1414 1.356 . S
N1412 H1424 0.984 . S
N1412 H1425 0.985 . S
N1413 C1415 1.356 . S
N1413 H1418 0.984 . S
N1413 H1419 0.985 . S
C1414 C1408 1.379 . S
C1414 C1411 1.363 . S
C1414 N1412 1.356 . S
C1415 C1409 1.363 . S
C1415 C1410 1.379 . S
C1415 N1413 1.356 . S
N1416 C1408 1.356 . S
N1416 H1422 0.984 . S
N1416 H1423 0.984 . S
N1417 C1410 1.356 . S
N1417 H1420 0.984 . S
N1417 H1421 0.985 . S
H1418 N1413 0.984 . S
H1419 N1413 0.985 . S
H1420 N1417 0.984 . S
H1421 N1417 0.985 . S
H1422 N1416 0.984 . S
H1423 N1416 0.984 . S
H1424 N1412 0.984 . S
H1425 N1412 0.985 . S
C1426 C1427 1.363 . S
C1426 C1432 1.379 . S
C1426 N1434 1.356 . S
C1427 C1426 1.363 . S
C1427 C1433 1.363 . S
C1428 C1429 1.363 . S
C1428 C1433 1.379 . S
C1428 N1435 1.356 . S
C1429 C1428 1.363 . S
C1429 C1432 1.363 . S
N1430 C1432 1.356 . S
N1430 H1442 0.984 . S
N1430 H1443 0.985 . S
N1431 C1433 1.356 . S
N1431 H1436 0.984 . S
N1431 H1437 0.985 . S
C1432 C1426 1.379 . S
C1432 C1429 1.363 . S
C1432 N1430 1.356 . S
C1433 C1427 1.363 . S
C1433 C1428 1.379 . S
C1433 N1431 1.356 . S
N1434 C1426 1.356 . S
N1434 H1440 0.984 . S
N1434 H1441 0.984 . S
N1435 C1428 1.356 . S
N1435 H1438 0.984 . S
N1435 H1439 0.985 . S
H1436 N1431 0.984 . S
H1437 N1431 0.985 . S
H1438 N1435 0.984 . S
H1439 N1435 0.985 . S
H1440 N1434 0.984 . S
H1441 N1434 0.984 . S
H1442 N1430 0.984 . S
H1443 N1430 0.985 . S
C1444 C1445 1.363 . S
C1444 C1450 1.379 . S
C1444 N1452 1.356 . S
C1445 C1444 1.363 . S
C1445 C1451 1.363 . S
C1446 C1447 1.363 . S
C1446 C1451 1.379 . S
C1446 N1453 1.356 . S
C1447 C1446 1.363 . S
C1447 C1450 1.363 . S
N1448 C1450 1.356 . S
N1448 H1460 0.984 . S
N1448 H1461 0.985 . S
N1449 C1451 1.356 . S
N1449 H1454 0.984 . S
N1449 H1455 0.985 . S
C1450 C1444 1.379 . S
C1450 C1447 1.363 . S
C1450 N1448 1.356 . S
C1451 C1445 1.363 . S
C1451 C1446 1.379 . S
C1451 N1449 1.356 . S
N1452 C1444 1.356 . S
N1452 H1458 0.984 . S
N1452 H1459 0.984 . S
N1453 C1446 1.356 . S
N1453 H1456 0.984 . S
N1453 H1457 0.985 . S
H1454 N1449 0.984 . S
H1455 N1449 0.985 . S
H1456 N1453 0.984 . S
H1457 N1453 0.985 . S
H1458 N1452 0.984 . S
H1459 N1452 0.984 . S
H1460 N1448 0.984 . S
H1461 N1448 0.985 . S
C1462 C1463 1.363 . S
C1462 C1468 1.379 . S
C1462 N1470 1.356 . S
C1463 C1462 1.363 . S
C1463 C1469 1.363 . S
C1464 C1465 1.363 . S
C1464 C1469 1.379 . S
C1464 N1471 1.356 . S
C1465 C1464 1.363 . S
C1465 C1468 1.363 . S
N1466 C1468 1.356 . S
N1466 H1478 0.984 . S
N1466 H1479 0.985 . S
N1467 C1469 1.356 . S
N1467 H1472 0.984 . S
N1467 H1473 0.985 . S
C1468 C1462 1.379 . S
C1468 C1465 1.363 . S
C1468 N1466 1.356 . S
C1469 C1463 1.363 . S
C1469 C1464 1.379 . S
C1469 N1467 1.356 . S
N1470 C1462 1.356 . S
N1470 H1476 0.984 . S
N1470 H1477 0.984 . S
N1471 C1464 1.356 . S
N1471 H1474 0.984 . S
N1471 H1475 0.985 . S
H1472 N1467 0.984 . S
H1473 N1467 0.985 . S
H1474 N1471 0.984 . S
H1475 N1471 0.985 . S
H1476 N1470 0.984 . S
H1477 N1470 0.984 . S
H1478 N1466 0.984 . S
H1479 N1466 0.985 . S
C1480 C1481 1.363 . S
C1480 C1486 1.379 . S
C1480 N1488 1.356 . S
C1481 C1480 1.363 . S
C1481 C1487 1.363 . S
C1482 C1483 1.363 . S
C1482 C1487 1.379 . S
C1482 N1489 1.356 . S
C1483 C1482 1.363 . S
C1483 C1486 1.363 . S
N1484 C1486 1.356 . S
N1484 H1496 0.984 . S
N1484 H1497 0.985 . S
N1485 C1487 1.356 . S
N1485 H1490 0.984 . S
N1485 H1491 0.985 . S
C1486 C1480 1.379 . S
C1486 C1483 1.363 . S
C1486 N1484 1.356 . S
C1487 C1481 1.363 . S
C1487 C1482 1.379 . S
C1487 N1485 1.356 . S
N1488 C1480 1.356 . S
N1488 H1494 0.984 . S
N1488 H1495 0.984 . S
N1489 C1482 1.356 . S
N1489 H1492 0.984 1_455 S
N1489 H1493 0.985 1_455 S
H1490 N1485 0.984 . S
H1491 N1485 0.985 . S
H1492 N1489 0.984 1_655 S
H1493 N1489 0.985 1_655 S
H1494 N1488 0.984 . S
H1495 N1488 0.984 . S
H1496 N1484 0.984 . S
H1497 N1484 0.985 . S
C1498 C1499 1.363 . S
C1498 C1504 1.379 . S
C1498 N1506 1.356 . S
C1499 C1498 1.363 . S
C1499 C1505 1.363 . S
C1500 C1501 1.363 . S
C1500 C1505 1.379 . S
C1500 N1507 1.356 . S
C1501 C1500 1.363 . S
C1501 C1504 1.363 . S
N1502 C1504 1.356 . S
N1502 H1514 0.984 . S
N1502 H1515 0.985 . S
N1503 C1505 1.356 . S
N1503 H1508 0.984 . S
N1503 H1509 0.985 . S
C1504 C1498 1.379 . S
C1504 C1501 1.363 . S
C1504 N1502 1.356 . S
C1505 C1499 1.363 . S
C1505 C1500 1.379 . S
C1505 N1503 1.356 . S
N1506 C1498 1.356 . S
N1506 H1512 0.984 . S
N1506 H1513 0.984 . S
N1507 C1500 1.356 . S
N1507 H1510 0.984 . S
N1507 H1511 0.985 . S
H1508 N1503 0.984 . S
H1509 N1503 0.985 . S
H1510 N1507 0.984 . S
H1511 N1507 0.985 . S
H1512 N1506 0.984 . S
H1513 N1506 0.984 . S
H1514 N1502 0.984 . S
H1515 N1502 0.985 . S
C1516 C1517 1.363 . S
C1516 C1522 1.379 . S
C1516 N1524 1.356 . S
C1517 C1516 1.363 . S
C1517 C1523 1.363 . S
C1518 C1519 1.363 . S
C1518 C1523 1.379 . S
C1518 N1525 1.356 . S
C1519 C1518 1.363 . S
C1519 C1522 1.363 . S
N1520 C1522 1.356 . S
N1520 H1532 0.984 . S
N1520 H1533 0.985 . S
N1521 C1523 1.356 . S
N1521 H1526 0.978 1_554 S
N1521 H1527 0.985 1_554 S
C1522 C1516 1.379 . S
C1522 C1519 1.363 . S
C1522 N1520 1.356 . S
C1523 C1517 1.363 . S
C1523 C1518 1.379 . S
C1523 N1521 1.356 . S
N1524 C1516 1.356 . S
N1524 H1530 0.984 . S
N1524 H1531 0.984 . S
N1525 C1518 1.356 . S
N1525 H1528 0.984 . S
N1525 H1529 0.985 1_565 S
H1526 N1521 0.978 1_556 S
H1527 N1521 0.985 1_556 S
H1528 N1525 0.984 . S
H1529 N1525 0.985 1_545 S
H1530 N1524 0.984 . S
H1531 N1524 0.984 . S
H1532 N1520 0.984 . S
H1533 N1520 0.985 . S
C1534 C1535 1.363 . S
C1534 C1540 1.379 . S
C1534 N1542 1.356 . S
C1535 C1534 1.363 . S
C1535 C1541 1.363 . S
C1536 C1537 1.363 . S
C1536 C1541 1.379 . S
C1536 N1543 1.356 . S
C1537 C1536 1.363 . S
C1537 C1540 1.363 . S
N1538 C1540 1.356 . S
N1538 H1550 0.984 . S
N1538 H1551 0.985 . S
N1539 C1541 1.356 . S
N1539 H1544 0.984 . S
N1539 H1545 0.985 . S
C1540 C1534 1.379 . S
C1540 C1537 1.363 . S
C1540 N1538 1.356 . S
C1541 C1535 1.363 . S
C1541 C1536 1.379 . S
C1541 N1539 1.356 . S
N1542 C1534 1.356 . S
N1542 H1548 0.984 . S
N1542 H1549 0.984 . S
N1543 C1536 1.356 . S
N1543 H1546 0.984 . S
N1543 H1547 0.985 . S
H1544 N1539 0.984 . S
H1545 N1539 0.985 . S
H1546 N1543 0.984 . S
H1547 N1543 0.985 . S
H1548 N1542 0.984 . S
H1549 N1542 0.984 . S
H1550 N1538 0.984 . S
H1551 N1538 0.985 . S
C1552 C1553 1.363 1_565 S
C1552 C1558 1.379 . S
C1552 N1560 1.356 . S
C1553 C1552 1.363 1_545 S
C1553 C1559 1.363 . S
C1554 C1555 1.363 . S
C1554 C1559 1.379 . S
C1554 N1561 1.356 1_556 S
C1555 C1554 1.363 . S
C1555 C1558 1.363 1_545 S
N1556 C1558 1.356 . S
N1556 H1568 0.984 . S
N1556 H1569 0.985 . S
N1557 C1559 1.356 . S
N1557 H1562 0.984 . S
N1557 H1563 0.985 . S
C1558 C1552 1.379 . S
C1558 C1555 1.363 1_565 S
C1558 N1556 1.356 . S
C1559 C1553 1.363 . S
C1559 C1554 1.379 . S
C1559 N1557 1.356 . S
N1560 C1552 1.356 . S
N1560 H1566 0.984 . S
N1560 H1567 0.984 . S
N1561 C1554 1.356 1_554 S
N1561 H1564 0.984 . S
N1561 H1565 0.985 . S
H1562 N1557 0.984 . S
H1563 N1557 0.985 . S
H1564 N1561 0.984 . S
H1565 N1561 0.985 . S
H1566 N1560 0.984 . S
H1567 N1560 0.984 . S
H1568 N1556 0.984 . S
H1569 N1556 0.985 . S
C1570 C1571 1.363 . S
C1570 C1576 1.379 . S
C1570 N1578 1.356 . S
C1571 C1570 1.363 . S
C1571 C1577 1.363 . S
C1572 C1573 1.363 . S
C1572 C1577 1.379 . S
C1572 N1579 1.356 . S
C1573 C1572 1.363 . S
C1573 C1576 1.363 . S
N1574 C1576 1.356 . S
N1574 H1586 0.984 . S
N1574 H1587 0.985 . S
N1575 C1577 1.356 . S
N1575 H1580 0.984 . S
N1575 H1581 0.985 . S
C1576 C1570 1.379 . S
C1576 C1573 1.363 . S
C1576 N1574 1.356 . S
C1577 C1571 1.363 . S
C1577 C1572 1.379 . S
C1577 N1575 1.356 . S
N1578 C1570 1.356 . S
N1578 H1584 0.984 . S
N1578 H1585 0.984 . S
N1579 C1572 1.356 . S
N1579 H1582 0.984 . S
N1579 H1583 0.985 . S
H1580 N1575 0.984 . S
H1581 N1575 0.985 . S
H1582 N1579 0.984 . S
H1583 N1579 0.985 . S
H1584 N1578 0.984 . S
H1585 N1578 0.984 . S
H1586 N1574 0.984 . S
H1587 N1574 0.985 . S
C1588 C1589 1.363 . S
C1588 C1594 1.379 . S
C1588 N1596 1.356 1_545 S
C1589 C1588 1.363 . S
C1589 C1595 1.363 . S
C1590 C1591 1.363 . S
C1590 C1595 1.379 . S
C1590 N1597 1.356 . S
C1591 C1590 1.363 . S
C1591 C1594 1.363 . S
N1592 C1594 1.356 1_565 S
N1592 H1604 0.984 . S
N1592 H1605 0.985 . S
N1593 C1595 1.356 . S
N1593 H1598 0.984 . S
N1593 H1599 0.985 . S
C1594 C1588 1.379 . S
C1594 C1591 1.363 . S
C1594 N1592 1.356 1_545 S
C1595 C1589 1.363 . S
C1595 C1590 1.379 . S
C1595 N1593 1.356 . S
N1596 C1588 1.356 1_565 S
N1596 H1602 0.984 . S
N1596 H1603 0.984 1_565 S
N1597 C1590 1.356 . S
N1597 H1600 0.984 . S
N1597 H1601 0.985 . S
H1598 N1593 0.984 . S
H1599 N1593 0.985 . S
H1600 N1597 0.984 . S
H1601 N1597 0.985 . S
H1602 N1596 0.984 . S
H1603 N1596 0.984 1_545 S
H1604 N1592 0.984 . S
H1605 N1592 0.985 . S
C1606 C1607 1.363 . S
C1606 C1612 1.379 . S
C1606 N1614 1.356 . S
C1607 C1606 1.363 . S
C1607 C1613 1.363 . S
C1608 C1609 1.363 . S
C1608 C1613 1.379 . S
C1608 N1615 1.356 . S
C1609 C1608 1.363 . S
C1609 C1612 1.363 . S
N1610 C1612 1.356 . S
N1610 H1622 0.984 . S
N1610 H1623 0.985 . S
N1611 C1613 1.356 . S
N1611 H1616 0.984 . S
N1611 H1617 0.985 . S
C1612 C1606 1.379 . S
C1612 C1609 1.363 . S
C1612 N1610 1.356 . S
C1613 C1607 1.363 . S
C1613 C1608 1.379 . S
C1613 N1611 1.356 . S
N1614 C1606 1.356 . S
N1614 H1620 0.984 . S
N1614 H1621 0.984 . S
N1615 C1608 1.356 . S
N1615 H1618 0.984 . S
N1615 H1619 0.985 . S
H1616 N1611 0.984 . S
H1617 N1611 0.985 . S
H1618 N1615 0.984 . S
H1619 N1615 0.985 . S
H1620 N1614 0.984 . S
H1621 N1614 0.984 . S
H1622 N1610 0.984 . S
H1623 N1610 0.985 . S
C1624 C1625 1.363 . S
C1624 C1630 1.379 . S
C1624 N1632 1.356 . S
C1625 C1624 1.363 . S
C1625 C1631 1.363 1_565 S
C1626 C1627 1.363 . S
C1626 C1631 1.379 . S
C1626 N1633 1.356 . S
C1627 C1626 1.363 . S
C1627 C1630 1.363 1_545 S
N1628 C1630 1.356 . S
N1628 H1640 0.984 . S
N1628 H1641 0.985 . S
N1629 C1631 1.356 . S
N1629 H1634 0.984 . S
N1629 H1635 0.985 . S
C1630 C1624 1.379 . S
C1630 C1627 1.363 1_565 S
C1630 N1628 1.356 . S
C1631 C1625 1.363 1_545 S
C1631 C1626 1.379 . S
C1631 N1629 1.356 . S
N1632 C1624 1.356 . S
N1632 H1638 0.984 . S
N1632 H1639 0.984 . S
N1633 C1626 1.356 . S
N1633 H1636 0.984 . S
N1633 H1637 0.985 . S
H1634 N1629 0.984 . S
H1635 N1629 0.985 . S
H1636 N1633 0.984 . S
H1637 N1633 0.985 . S
H1638 N1632 0.984 . S
H1639 N1632 0.984 . S
H1640 N1628 0.984 . S
H1641 N1628 0.985 . S
C1642 C1643 1.363 . S
C1642 C1648 1.379 . S
C1642 N1650 1.356 . S
C1643 C1642 1.363 . S
C1643 C1649 1.363 . S
C1644 C1645 1.363 . S
C1644 C1649 1.379 . S
C1644 N1651 1.356 . S
C1645 C1644 1.363 . S
C1645 C1648 1.363 . S
N1646 C1648 1.356 . S
N1646 H1658 0.984 . S
N1646 H1659 0.985 . S
N1647 C1649 1.356 . S
N1647 H1652 0.984 . S
N1647 H1653 0.985 . S
C1648 C1642 1.379 . S
C1648 C1645 1.363 . S
C1648 N1646 1.356 . S
C1649 C1643 1.363 . S
C1649 C1644 1.379 . S
C1649 N1647 1.356 . S
N1650 C1642 1.356 . S
N1650 H1656 0.984 . S
N1650 H1657 0.984 . S
N1651 C1644 1.356 . S
N1651 H1654 0.984 . S
N1651 H1655 0.985 . S
H1652 N1647 0.984 . S
H1653 N1647 0.985 . S
H1654 N1651 0.984 . S
H1655 N1651 0.985 . S
H1656 N1650 0.984 . S
H1657 N1650 0.984 . S
H1658 N1646 0.984 . S
H1659 N1646 0.985 . S
C1660 C1661 1.363 1_565 S
C1660 C1666 1.379 . S
C1660 N1668 1.356 . S
C1661 C1660 1.363 1_545 S
C1661 C1667 1.363 . S
C1662 C1663 1.363 . S
C1662 C1667 1.379 . S
C1662 N1669 1.356 . S
C1663 C1662 1.363 . S
C1663 C1666 1.363 1_545 S
N1664 C1666 1.356 . S
N1664 H1676 0.984 . S
N1664 H1677 0.985 . S
N1665 C1667 1.356 . S
N1665 H1670 0.984 . S
N1665 H1671 0.985 . S
C1666 C1660 1.379 . S
C1666 C1663 1.363 1_565 S
C1666 N1664 1.356 . S
C1667 C1661 1.363 . S
C1667 C1662 1.379 . S
C1667 N1665 1.356 . S
N1668 C1660 1.356 . S
N1668 H1674 0.984 . S
N1668 H1675 0.984 . S
N1669 C1662 1.356 . S
N1669 H1672 0.984 . S
N1669 H1673 0.985 . S
H1670 N1665 0.984 . S
H1671 N1665 0.985 . S
H1672 N1669 0.984 . S
H1673 N1669 0.985 . S
H1674 N1668 0.984 . S
H1675 N1668 0.984 . S
H1676 N1664 0.984 . S
H1677 N1664 0.985 . S
C1678 C1679 1.363 . S
C1678 C1684 1.379 . S
C1678 N1686 1.356 . S
C1679 C1678 1.363 . S
C1679 C1685 1.363 . S
C1680 C1681 1.363 . S
C1680 C1685 1.379 . S
C1680 N1687 1.356 . S
C1681 C1680 1.363 . S
C1681 C1684 1.363 . S
N1682 C1684 1.356 . S
N1682 H1694 0.984 . S
N1682 H1695 0.985 . S
N1683 C1685 1.356 1_554 S
N1683 H1688 0.984 . S
N1683 H1689 0.985 . S
C1684 C1678 1.379 . S
C1684 C1681 1.363 . S
C1684 N1682 1.356 . S
C1685 C1679 1.363 . S
C1685 C1680 1.379 . S
C1685 N1683 1.356 1_556 S
N1686 C1678 1.356 . S
N1686 H1692 0.984 . S
N1686 H1693 0.984 . S
N1687 C1680 1.356 . S
N1687 H1690 0.984 . S
N1687 H1691 0.985 . S
H1688 N1683 0.984 . S
H1689 N1683 0.985 . S
H1690 N1687 0.984 . S
H1691 N1687 0.985 . S
H1692 N1686 0.984 . S
H1693 N1686 0.984 . S
H1694 N1682 0.984 . S
H1695 N1682 0.985 . S
C1696 C1697 1.363 . S
C1696 C1702 1.379 . S
C1696 N1704 1.356 . S
C1697 C1696 1.363 . S
C1697 C1703 1.363 . S
C1698 C1699 1.363 . S
C1698 C1703 1.379 . S
C1698 N1705 1.356 . S
C1699 C1698 1.363 . S
C1699 C1702 1.363 . S
N1700 C1702 1.356 . S
N1700 H1712 0.984 . S
N1700 H1713 0.985 . S
N1701 C1703 1.356 . S
N1701 H1706 0.984 . S
N1701 H1707 0.985 . S
C1702 C1696 1.379 . S
C1702 C1699 1.363 . S
C1702 N1700 1.356 . S
C1703 C1697 1.363 . S
C1703 C1698 1.379 . S
C1703 N1701 1.356 . S
N1704 C1696 1.356 . S
N1704 H1710 0.984 . S
N1704 H1711 0.984 . S
N1705 C1698 1.356 . S
N1705 H1708 0.984 . S
N1705 H1709 0.985 . S
H1706 N1701 0.984 . S
H1707 N1701 0.985 . S
H1708 N1705 0.984 . S
H1709 N1705 0.985 . S
H1710 N1704 0.984 . S
H1711 N1704 0.984 . S
H1712 N1700 0.984 . S
H1713 N1700 0.985 . S
C1714 C1715 1.363 . S
C1714 C1720 1.379 . S
C1714 N1722 1.356 . S
C1715 C1714 1.363 . S
C1715 C1721 1.363 . S
C1716 C1717 1.363 . S
C1716 C1721 1.379 . S
C1716 N1723 1.356 . S
C1717 C1716 1.363 . S
C1717 C1720 1.363 . S
N1718 C1720 1.356 . S
N1718 H1730 0.984 . S
N1718 H1731 0.985 . S
N1719 C1721 1.356 . S
N1719 H1724 0.984 . S
N1719 H1725 0.985 . S
C1720 C1714 1.379 . S
C1720 C1717 1.363 . S
C1720 N1718 1.356 . S
C1721 C1715 1.363 . S
C1721 C1716 1.379 . S
C1721 N1719 1.356 . S
N1722 C1714 1.356 . S
N1722 H1728 0.984 . S
N1722 H1729 0.984 . S
N1723 C1716 1.356 . S
N1723 H1726 0.984 . S
N1723 H1727 0.985 . S
H1724 N1719 0.984 . S
H1725 N1719 0.985 . S
H1726 N1723 0.984 . S
H1727 N1723 0.985 . S
H1728 N1722 0.984 . S
H1729 N1722 0.984 . S
H1730 N1718 0.984 . S
H1731 N1718 0.985 . S
C1732 C1733 1.363 . S
C1732 C1738 1.379 . S
C1732 N1740 1.356 . S
C1733 C1732 1.363 . S
C1733 C1739 1.363 . S
C1734 C1735 1.363 . S
C1734 C1739 1.379 . S
C1734 N1741 1.356 . S
C1735 C1734 1.363 . S
C1735 C1738 1.363 . S
N1736 C1738 1.356 . S
N1736 H1748 0.984 . S
N1736 H1749 0.985 . S
N1737 C1739 1.356 . S
N1737 H1742 0.984 . S
N1737 H1743 0.985 . S
C1738 C1732 1.379 . S
C1738 C1735 1.363 . S
C1738 N1736 1.356 . S
C1739 C1733 1.363 . S
C1739 C1734 1.379 . S
C1739 N1737 1.356 . S
N1740 C1732 1.356 . S
N1740 H1746 0.984 . S
N1740 H1747 0.984 . S
N1741 C1734 1.356 . S
N1741 H1744 0.984 . S
N1741 H1745 0.985 . S
H1742 N1737 0.984 . S
H1743 N1737 0.985 . S
H1744 N1741 0.984 . S
H1745 N1741 0.985 . S
H1746 N1740 0.984 . S
H1747 N1740 0.984 . S
H1748 N1736 0.984 . S
H1749 N1736 0.985 . S
C1750 C1751 1.363 . S
C1750 C1756 1.379 . S
C1750 N1758 1.356 . S
C1751 C1750 1.363 . S
C1751 C1757 1.363 . S
C1752 C1753 1.363 . S
C1752 C1757 1.379 . S
C1752 N1759 1.356 . S
C1753 C1752 1.363 . S
C1753 C1756 1.363 . S
N1754 C1756 1.356 . S
N1754 H1766 0.984 . S
N1754 H1767 0.985 . S
N1755 C1757 1.356 . S
N1755 H1760 0.984 . S
N1755 H1761 0.985 . S
C1756 C1750 1.379 . S
C1756 C1753 1.363 . S
C1756 N1754 1.356 . S
C1757 C1751 1.363 . S
C1757 C1752 1.379 . S
C1757 N1755 1.356 . S
N1758 C1750 1.356 . S
N1758 H1764 0.984 . S
N1758 H1765 0.984 . S
N1759 C1752 1.356 . S
N1759 H1762 0.984 . S
N1759 H1763 0.985 . S
H1760 N1755 0.984 . S
H1761 N1755 0.985 . S
H1762 N1759 0.984 . S
H1763 N1759 0.985 . S
H1764 N1758 0.984 . S
H1765 N1758 0.984 . S
H1766 N1754 0.984 . S
H1767 N1754 0.985 . S
C1768 C1769 1.363 . S
C1768 C1774 1.379 . S
C1768 N1776 1.356 . S
C1769 C1768 1.363 . S
C1769 C1775 1.363 . S
C1770 C1771 1.363 . S
C1770 C1775 1.379 . S
C1770 N1777 1.356 . S
C1771 C1770 1.363 . S
C1771 C1774 1.363 . S
N1772 C1774 1.356 . S
N1772 H1784 0.984 . S
N1772 H1785 0.985 . S
N1773 C1775 1.356 . S
N1773 H1778 0.984 . S
N1773 H1779 0.985 . S
C1774 C1768 1.379 . S
C1774 C1771 1.363 . S
C1774 N1772 1.356 . S
C1775 C1769 1.363 . S
C1775 C1770 1.379 . S
C1775 N1773 1.356 . S
N1776 C1768 1.356 . S
N1776 H1782 0.984 . S
N1776 H1783 0.984 . S
N1777 C1770 1.356 . S
N1777 H1780 0.984 . S
N1777 H1781 0.985 . S
H1778 N1773 0.984 . S
H1779 N1773 0.985 . S
H1780 N1777 0.984 . S
H1781 N1777 0.985 . S
H1782 N1776 0.984 . S
H1783 N1776 0.984 . S
H1784 N1772 0.984 . S
H1785 N1772 0.985 . S
C1786 C1787 1.363 . S
C1786 C1792 1.379 . S
C1786 N1794 1.356 . S
C1787 C1786 1.363 . S
C1787 C1793 1.363 . S
C1788 C1789 1.363 . S
C1788 C1793 1.379 . S
C1788 N1795 1.356 . S
C1789 C1788 1.363 . S
C1789 C1792 1.363 . S
N1790 C1792 1.356 . S
N1790 H1802 0.984 . S
N1790 H1803 0.985 . S
N1791 C1793 1.356 . S
N1791 H1796 0.984 . S
N1791 H1797 0.985 . S
C1792 C1786 1.379 . S
C1792 C1789 1.363 . S
C1792 N1790 1.356 . S
C1793 C1787 1.363 . S
C1793 C1788 1.379 . S
C1793 N1791 1.356 . S
N1794 C1786 1.356 . S
N1794 H1800 0.984 . S
N1794 H1801 0.984 . S
N1795 C1788 1.356 . S
N1795 H1798 0.984 . S
N1795 H1799 0.985 . S
H1796 N1791 0.984 . S
H1797 N1791 0.985 . S
H1798 N1795 0.984 . S
H1799 N1795 0.985 . S
H1800 N1794 0.984 . S
H1801 N1794 0.984 . S
H1802 N1790 0.984 . S
H1803 N1790 0.985 . S
C1804 C1805 1.363 . S
C1804 C1810 1.379 . S
C1804 N1812 1.356 . S
C1805 C1804 1.363 . S
C1805 C1811 1.363 . S
C1806 C1807 1.363 . S
C1806 C1811 1.379 . S
C1806 N1813 1.356 . S
C1807 C1806 1.363 . S
C1807 C1810 1.363 . S
N1808 C1810 1.356 . S
N1808 H1820 0.984 . S
N1808 H1821 0.985 . S
N1809 C1811 1.356 . S
N1809 H1814 0.984 . S
N1809 H1815 0.985 . S
C1810 C1804 1.379 . S
C1810 C1807 1.363 . S
C1810 N1808 1.356 . S
C1811 C1805 1.363 . S
C1811 C1806 1.379 . S
C1811 N1809 1.356 . S
N1812 C1804 1.356 . S
N1812 H1818 0.984 . S
N1812 H1819 0.984 . S
N1813 C1806 1.356 . S
N1813 H1816 0.984 . S
N1813 H1817 0.985 . S
H1814 N1809 0.984 . S
H1815 N1809 0.985 . S
H1816 N1813 0.984 . S
H1817 N1813 0.985 . S
H1818 N1812 0.984 . S
H1819 N1812 0.984 . S
H1820 N1808 0.984 . S
H1821 N1808 0.985 . S
C1822 C1823 1.363 . S
C1822 C1828 1.379 . S
C1822 N1830 1.356 . S
C1823 C1822 1.363 . S
C1823 C1829 1.363 . S
C1824 C1825 1.363 . S
C1824 C1829 1.379 . S
C1824 N1831 1.356 . S
C1825 C1824 1.363 . S
C1825 C1828 1.363 . S
N1826 C1828 1.356 . S
N1826 H1838 0.984 . S
N1826 H1839 0.985 . S
N1827 C1829 1.356 . S
N1827 H1832 0.984 . S
N1827 H1833 0.985 . S
C1828 C1822 1.379 . S
C1828 C1825 1.363 . S
C1828 N1826 1.356 . S
C1829 C1823 1.363 . S
C1829 C1824 1.379 . S
C1829 N1827 1.356 . S
N1830 C1822 1.356 . S
N1830 H1836 0.984 . S
N1830 H1837 0.984 . S
N1831 C1824 1.356 . S
N1831 H1834 0.984 . S
N1831 H1835 0.985 . S
H1832 N1827 0.984 . S
H1833 N1827 0.985 . S
H1834 N1831 0.984 . S
H1835 N1831 0.985 . S
H1836 N1830 0.984 . S
H1837 N1830 0.984 . S
H1838 N1826 0.984 . S
H1839 N1826 0.985 . S
C1840 C1841 1.363 . S
C1840 C1846 1.379 . S
C1840 N1848 1.356 . S
C1841 C1840 1.363 . S
C1841 C1847 1.363 . S
C1842 C1843 1.363 . S
C1842 C1847 1.379 . S
C1842 N1849 1.356 . S
C1843 C1842 1.363 . S
C1843 C1846 1.363 . S
N1844 C1846 1.356 . S
N1844 H1856 0.984 . S
N1844 H1857 0.985 . S
N1845 C1847 1.356 . S
N1845 H1850 0.984 . S
N1845 H1851 0.985 . S
C1846 C1840 1.379 . S
C1846 C1843 1.363 . S
C1846 N1844 1.356 . S
C1847 C1841 1.363 . S
C1847 C1842 1.379 . S
C1847 N1845 1.356 . S
N1848 C1840 1.356 . S
N1848 H1854 0.984 . S
N1848 H1855 0.984 . S
N1849 C1842 1.356 . S
N1849 H1852 0.984 . S
N1849 H1853 0.985 . S
H1850 N1845 0.984 . S
H1851 N1845 0.985 . S
H1852 N1849 0.984 . S
H1853 N1849 0.985 . S
H1854 N1848 0.984 . S
H1855 N1848 0.984 . S
H1856 N1844 0.984 . S
H1857 N1844 0.985 . S
C1858 C1859 1.363 . S
C1858 C1864 1.379 . S
C1858 N1866 1.356 . S
C1859 C1858 1.363 . S
C1859 C1865 1.363 . S
C1860 C1861 1.363 . S
C1860 C1865 1.379 . S
C1860 N1867 1.356 . S
C1861 C1860 1.363 . S
C1861 C1864 1.363 . S
N1862 C1864 1.356 . S
N1862 H1874 0.984 . S
N1862 H1875 0.985 . S
N1863 C1865 1.356 . S
N1863 H1868 0.984 . S
N1863 H1869 0.985 . S
C1864 C1858 1.379 . S
C1864 C1861 1.363 . S
C1864 N1862 1.356 . S
C1865 C1859 1.363 . S
C1865 C1860 1.379 . S
C1865 N1863 1.356 . S
N1866 C1858 1.356 . S
N1866 H1872 0.984 . S
N1866 H1873 0.984 . S
N1867 C1860 1.356 . S
N1867 H1870 0.984 . S
N1867 H1871 0.985 . S
H1868 N1863 0.984 . S
H1869 N1863 0.985 . S
H1870 N1867 0.984 . S
H1871 N1867 0.985 . S
H1872 N1866 0.984 . S
H1873 N1866 0.984 . S
H1874 N1862 0.984 . S
H1875 N1862 0.985 . S
C1876 C1877 1.363 1_655 S
C1876 C1882 1.379 1_655 S
C1876 N1884 1.362 . S
C1877 C1876 1.363 1_455 S
C1877 C1883 1.363 . S
C1878 C1879 1.363 . S
C1878 C1883 1.379 . S
C1878 N1885 1.356 . S
C1879 C1878 1.363 . S
C1879 C1882 1.363 . S
N1880 C1882 1.356 1_655 S
N1880 H1892 0.984 . S
N1880 H1893 0.985 1_655 S
N1881 C1883 1.356 . S
N1881 H1886 0.984 1_554 S
N1881 H1887 0.985 . S
C1882 C1876 1.379 1_455 S
C1882 C1879 1.363 . S
C1882 N1880 1.356 1_455 S
C1883 C1877 1.363 . S
C1883 C1878 1.379 . S
C1883 N1881 1.356 . S
N1884 C1876 1.362 . S
N1884 H1890 0.988 . S
N1884 H1891 0.978 1_554 S
N1885 C1878 1.356 . S
N1885 H1888 0.984 . S
N1885 H1889 0.985 . S
H1886 N1881 0.984 1_556 S
H1887 N1881 0.985 . S
H1888 N1885 0.984 . S
H1889 N1885 0.985 . S
H1890 N1884 0.988 . S
H1891 N1884 0.978 1_556 S
H1892 N1880 0.984 . S
H1893 N1880 0.985 1_455 S
C1894 C1895 1.363 . S
C1894 C1900 1.379 . S
C1894 N1902 1.356 1_655 S
C1895 C1894 1.363 . S
C1895 C1901 1.363 . S
C1896 C1897 1.363 . S
C1896 C1901 1.379 . S
C1896 N1903 1.356 . S
C1897 C1896 1.363 . S
C1897 C1900 1.363 . S
N1898 C1900 1.356 . S
N1898 H1910 0.984 . S
N1898 H1911 0.985 . S
N1899 C1901 1.356 . S
N1899 H1904 0.984 1_655 S
N1899 H1905 0.985 . S
C1900 C1894 1.379 . S
C1900 C1897 1.363 . S
C1900 N1898 1.356 . S
C1901 C1895 1.363 . S
C1901 C1896 1.379 . S
C1901 N1899 1.356 . S
N1902 C1894 1.356 1_455 S
N1902 H1908 0.984 . S
N1902 H1909 0.984 . S
N1903 C1896 1.356 . S
N1903 H1906 0.984 . S
N1903 H1907 0.985 . S
H1904 N1899 0.984 1_455 S
H1905 N1899 0.985 . S
H1906 N1903 0.984 . S
H1907 N1903 0.985 . S
H1908 N1902 0.984 . S
H1909 N1902 0.984 . S
H1910 N1898 0.984 . S
H1911 N1898 0.985 . S
C1912 C1913 1.363 . S
C1912 C1918 1.379 . S
C1912 N1920 1.356 . S
C1913 C1912 1.363 . S
C1913 C1919 1.363 . S
C1914 C1915 1.363 . S
C1914 C1919 1.379 . S
C1914 N1921 1.356 . S
C1915 C1914 1.363 . S
C1915 C1918 1.363 . S
N1916 C1918 1.356 . S
N1916 H1928 0.984 . S
N1916 H1929 0.985 . S
N1917 C1919 1.356 . S
N1917 H1922 0.984 . S
N1917 H1923 0.985 . S
C1918 C1912 1.379 . S
C1918 C1915 1.363 . S
C1918 N1916 1.356 . S
C1919 C1913 1.363 . S
C1919 C1914 1.379 . S
C1919 N1917 1.356 . S
N1920 C1912 1.356 . S
N1920 H1926 0.984 . S
N1920 H1927 0.984 . S
N1921 C1914 1.356 . S
N1921 H1924 0.984 . S
N1921 H1925 0.985 . S
H1922 N1917 0.984 . S
H1923 N1917 0.985 . S
H1924 N1921 0.984 . S
H1925 N1921 0.985 . S
H1926 N1920 0.984 . S
H1927 N1920 0.984 . S
H1928 N1916 0.984 . S
H1929 N1916 0.985 . S
C1930 C1931 1.363 1_655 S
C1930 C1936 1.379 . S
C1930 N1938 1.356 1_655 S
C1931 C1930 1.363 1_455 S
C1931 C1937 1.363 1_455 S
C1932 C1933 1.363 . S
C1932 C1937 1.379 . S
C1932 N1939 1.356 . S
C1933 C1932 1.363 . S
C1933 C1936 1.363 . S
N1934 C1936 1.356 . S
N1934 H1946 0.984 . S
N1934 H1947 0.985 . S
N1935 C1937 1.356 1_455 S
N1935 H1940 0.984 . S
N1935 H1941 0.984 . S
C1936 C1930 1.379 . S
C1936 C1933 1.363 . S
C1936 N1934 1.356 . S
C1937 C1931 1.363 1_655 S
C1937 C1932 1.379 . S
C1937 N1935 1.356 1_655 S
N1938 C1930 1.356 1_455 S
N1938 H1944 0.984 . S
N1938 H1945 0.984 . S
N1939 C1932 1.356 . S
N1939 H1942 0.984 . S
N1939 H1943 0.985 . S
H1940 N1935 0.984 . S
H1941 N1935 0.984 . S
H1942 N1939 0.984 . S
H1943 N1939 0.985 . S
H1944 N1938 0.984 . S
H1945 N1938 0.984 . S
H1946 N1934 0.984 . S
H1947 N1934 0.985 . S
C1948 C1949 1.363 1_455 S
C1948 C1954 1.379 . S
C1948 N1956 1.356 . S
C1949 C1948 1.363 1_655 S
C1949 C1955 1.363 . S
C1950 C1951 1.363 . S
C1950 C1955 1.379 1_455 S
C1950 N1957 1.356 . S
C1951 C1950 1.363 . S
C1951 C1954 1.363 . S
N1952 C1954 1.356 . S
N1952 H1964 0.984 . S
N1952 H1965 0.985 . S
N1953 C1955 1.356 . S
N1953 H1958 0.984 . S
N1953 H1959 0.985 . S
C1954 C1948 1.379 . S
C1954 C1951 1.363 . S
C1954 N1952 1.356 . S
C1955 C1949 1.363 . S
C1955 C1950 1.379 1_655 S
C1955 N1953 1.356 . S
N1956 C1948 1.356 . S
N1956 H1962 0.984 . S
N1956 H1963 0.984 1_455 S
N1957 C1950 1.356 . S
N1957 H1960 0.984 . S
N1957 H1961 0.985 . S
H1958 N1953 0.984 . S
H1959 N1953 0.985 . S
H1960 N1957 0.984 . S
H1961 N1957 0.985 . S
H1962 N1956 0.984 . S
H1963 N1956 0.984 1_655 S
H1964 N1952 0.984 . S
H1965 N1952 0.985 . S
C1966 C1967 1.363 . S
C1966 C1972 1.379 . S
C1966 N1974 1.356 . S
C1967 C1966 1.363 . S
C1967 C1973 1.363 . S
C1968 C1969 1.363 . S
C1968 C1973 1.379 . S
C1968 N1975 1.356 . S
C1969 C1968 1.363 . S
C1969 C1972 1.363 . S
N1970 C1972 1.356 . S
N1970 H1982 0.984 . S
N1970 H1983 0.985 . S
N1971 C1973 1.356 . S
N1971 H1976 0.984 . S
N1971 H1977 0.985 . S
C1972 C1966 1.379 . S
C1972 C1969 1.363 . S
C1972 N1970 1.356 . S
C1973 C1967 1.363 . S
C1973 C1968 1.379 . S
C1973 N1971 1.356 . S
N1974 C1966 1.356 . S
N1974 H1980 0.984 . S
N1974 H1981 0.984 . S
N1975 C1968 1.356 . S
N1975 H1978 0.984 . S
N1975 H1979 0.985 . S
H1976 N1971 0.984 . S
H1977 N1971 0.985 . S
H1978 N1975 0.984 . S
H1979 N1975 0.985 . S
H1980 N1974 0.984 . S
H1981 N1974 0.984 . S
H1982 N1970 0.984 . S
H1983 N1970 0.985 . S
C1984 C1985 1.363 . S
C1984 C1990 1.379 . S
C1984 N1992 1.356 . S
C1985 C1984 1.363 . S
C1985 C1991 1.363 . S
C1986 C1987 1.363 . S
C1986 C1991 1.379 . S
C1986 N1993 1.356 . S
C1987 C1986 1.363 . S
C1987 C1990 1.363 . S
N1988 C1990 1.356 . S
N1988 H2000 0.984 . S
N1988 H2001 0.985 . S
N1989 C1991 1.356 . S
N1989 H1994 0.984 . S
N1989 H1995 0.985 . S
C1990 C1984 1.379 . S
C1990 C1987 1.363 . S
C1990 N1988 1.356 . S
C1991 C1985 1.363 . S
C1991 C1986 1.379 . S
C1991 N1989 1.356 . S
N1992 C1984 1.356 . S
N1992 H1998 0.984 . S
N1992 H1999 0.984 . S
N1993 C1986 1.356 . S
N1993 H1996 0.984 . S
N1993 H1997 0.985 . S
H1994 N1989 0.984 . S
H1995 N1989 0.985 . S
H1996 N1993 0.984 . S
H1997 N1993 0.985 . S
H1998 N1992 0.984 . S
H1999 N1992 0.984 . S
H2000 N1988 0.984 . S
H2001 N1988 0.985 . S
C2002 C2003 1.363 . S
C2002 C2008 1.379 . S
C2002 N2010 1.356 . S
C2003 C2002 1.363 . S
C2003 C2009 1.363 . S
C2004 C2005 1.363 . S
C2004 C2009 1.379 . S
C2004 N2011 1.356 1_554 S
C2005 C2004 1.363 . S
C2005 C2008 1.363 . S
N2006 C2008 1.356 . S
N2006 H2018 0.984 . S
N2006 H2019 0.985 . S
N2007 C2009 1.356 . S
N2007 H2012 0.984 . S
N2007 H2013 0.985 . S
C2008 C2002 1.379 . S
C2008 C2005 1.363 . S
C2008 N2006 1.356 . S
C2009 C2003 1.363 . S
C2009 C2004 1.379 . S
C2009 N2007 1.356 . S
N2010 C2002 1.356 . S
N2010 H2016 0.984 . S
N2010 H2017 0.984 . S
N2011 C2004 1.356 1_556 S
N2011 H2014 0.984 . S
N2011 H2015 0.985 . S
H2012 N2007 0.984 . S
H2013 N2007 0.985 . S
H2014 N2011 0.984 . S
H2015 N2011 0.985 . S
H2016 N2010 0.984 . S
H2017 N2010 0.984 . S
H2018 N2006 0.984 . S
H2019 N2006 0.985 . S
C2020 C2021 1.363 . S
C2020 C2026 1.379 . S
C2020 N2028 1.356 . S
C2021 C2020 1.363 . S
C2021 C2027 1.363 . S
C2022 C2023 1.363 . S
C2022 C2027 1.379 . S
C2022 N2029 1.356 . S
C2023 C2022 1.363 . S
C2023 C2026 1.363 . S
N2024 C2026 1.356 . S
N2024 H2036 0.984 . S
N2024 H2037 0.985 . S
N2025 C2027 1.356 . S
N2025 H2030 0.984 . S
N2025 H2031 0.985 . S
C2026 C2020 1.379 . S
C2026 C2023 1.363 . S
C2026 N2024 1.356 . S
C2027 C2021 1.363 . S
C2027 C2022 1.379 . S
C2027 N2025 1.356 . S
N2028 C2020 1.356 . S
N2028 H2034 0.984 . S
N2028 H2035 0.984 . S
N2029 C2022 1.356 . S
N2029 H2032 0.984 . S
N2029 H2033 0.985 . S
H2030 N2025 0.984 . S
H2031 N2025 0.985 . S
H2032 N2029 0.984 . S
H2033 N2029 0.985 . S
H2034 N2028 0.984 . S
H2035 N2028 0.984 . S
H2036 N2024 0.984 . S
H2037 N2024 0.985 . S
C2038 C2039 1.363 . S
C2038 C2044 1.379 . S
C2038 N2046 1.356 . S
C2039 C2038 1.363 . S
C2039 C2045 1.363 . S
C2040 C2041 1.363 . S
C2040 C2045 1.379 . S
C2040 N2047 1.356 . S
C2041 C2040 1.363 . S
C2041 C2044 1.363 . S
N2042 C2044 1.356 . S
N2042 H2054 0.984 . S
N2042 H2055 0.985 . S
N2043 C2045 1.356 . S
N2043 H2048 0.984 . S
N2043 H2049 0.985 . S
C2044 C2038 1.379 . S
C2044 C2041 1.363 . S
C2044 N2042 1.356 . S
C2045 C2039 1.363 . S
C2045 C2040 1.379 . S
C2045 N2043 1.356 . S
N2046 C2038 1.356 . S
N2046 H2052 0.984 . S
N2046 H2053 0.984 . S
N2047 C2040 1.356 . S
N2047 H2050 0.984 . S
N2047 H2051 0.985 . S
H2048 N2043 0.984 . S
H2049 N2043 0.985 . S
H2050 N2047 0.984 . S
H2051 N2047 0.985 . S
H2052 N2046 0.984 . S
H2053 N2046 0.984 . S
H2054 N2042 0.984 . S
H2055 N2042 0.985 . S
C2056 C2057 1.363 . S
C2056 C2062 1.379 . S
C2056 N2064 1.356 . S
C2057 C2056 1.363 . S
C2057 C2063 1.363 . S
C2058 C2059 1.363 . S
C2058 C2063 1.379 . S
C2058 N2065 1.356 . S
C2059 C2058 1.363 . S
C2059 C2062 1.363 . S
N2060 C2062 1.356 . S
N2060 H2072 0.984 . S
N2060 H2073 0.985 . S
N2061 C2063 1.356 . S
N2061 H2066 0.984 . S
N2061 H2067 0.985 . S
C2062 C2056 1.379 . S
C2062 C2059 1.363 . S
C2062 N2060 1.356 . S
C2063 C2057 1.363 . S
C2063 C2058 1.379 . S
C2063 N2061 1.356 . S
N2064 C2056 1.356 . S
N2064 H2070 0.984 . S
N2064 H2071 0.984 . S
N2065 C2058 1.356 . S
N2065 H2068 0.984 . S
N2065 H2069 0.985 . S
H2066 N2061 0.984 . S
H2067 N2061 0.985 . S
H2068 N2065 0.984 . S
H2069 N2065 0.985 . S
H2070 N2064 0.984 . S
H2071 N2064 0.984 . S
H2072 N2060 0.984 . S
H2073 N2060 0.985 . S
C2074 C2075 1.363 . S
C2074 C2080 1.379 . S
C2074 N2082 1.356 . S
C2075 C2074 1.363 . S
C2075 C2081 1.363 . S
C2076 C2077 1.363 . S
C2076 C2081 1.379 . S
C2076 N2083 1.356 . S
C2077 C2076 1.363 . S
C2077 C2080 1.363 . S
N2078 C2080 1.356 . S
N2078 H2090 0.984 . S
N2078 H2091 0.985 . S
N2079 C2081 1.356 . S
N2079 H2084 0.984 . S
N2079 H2085 0.985 . S
C2080 C2074 1.379 . S
C2080 C2077 1.363 . S
C2080 N2078 1.356 . S
C2081 C2075 1.363 . S
C2081 C2076 1.379 . S
C2081 N2079 1.356 . S
N2082 C2074 1.356 . S
N2082 H2088 0.984 . S
N2082 H2089 0.984 . S
N2083 C2076 1.356 . S
N2083 H2086 0.984 . S
N2083 H2087 0.985 . S
H2084 N2079 0.984 . S
H2085 N2079 0.985 . S
H2086 N2083 0.984 . S
H2087 N2083 0.985 . S
H2088 N2082 0.984 . S
H2089 N2082 0.984 . S
H2090 N2078 0.984 . S
H2091 N2078 0.985 . S
C2092 C2093 1.363 . S
C2092 C2098 1.379 . S
C2092 N2100 1.356 . S
C2093 C2092 1.363 . S
C2093 C2099 1.363 . S
C2094 C2095 1.363 . S
C2094 C2099 1.379 . S
C2094 N2101 1.356 . S
C2095 C2094 1.363 . S
C2095 C2098 1.363 . S
N2096 C2098 1.356 . S
N2096 H2108 0.984 . S
N2096 H2109 0.985 . S
N2097 C2099 1.356 . S
N2097 H2102 0.984 . S
N2097 H2103 0.985 . S
C2098 C2092 1.379 . S
C2098 C2095 1.363 . S
C2098 N2096 1.356 . S
C2099 C2093 1.363 . S
C2099 C2094 1.379 . S
C2099 N2097 1.356 . S
N2100 C2092 1.356 . S
N2100 H2106 0.984 . S
N2100 H2107 0.984 . S
N2101 C2094 1.356 . S
N2101 H2104 0.984 . S
N2101 H2105 0.985 . S
H2102 N2097 0.984 . S
H2103 N2097 0.985 . S
H2104 N2101 0.984 . S
H2105 N2101 0.985 . S
H2106 N2100 0.984 . S
H2107 N2100 0.984 . S
H2108 N2096 0.984 . S
H2109 N2096 0.985 . S
C2110 C2111 1.363 . S
C2110 C2116 1.379 . S
C2110 N2118 1.356 . S
C2111 C2110 1.363 . S
C2111 C2117 1.363 . S
C2112 C2113 1.363 . S
C2112 C2117 1.379 . S
C2112 N2119 1.356 . S
C2113 C2112 1.363 . S
C2113 C2116 1.363 . S
N2114 C2116 1.356 . S
N2114 H2126 0.984 . S
N2114 H2127 0.985 . S
N2115 C2117 1.356 . S
N2115 H2120 0.984 . S
N2115 H2121 0.985 . S
C2116 C2110 1.379 . S
C2116 C2113 1.363 . S
C2116 N2114 1.356 . S
C2117 C2111 1.363 . S
C2117 C2112 1.379 . S
C2117 N2115 1.356 . S
N2118 C2110 1.356 . S
N2118 H2124 0.984 . S
N2118 H2125 0.984 . S
N2119 C2112 1.356 . S
N2119 H2122 0.984 . S
N2119 H2123 0.985 . S
H2120 N2115 0.984 . S
H2121 N2115 0.985 . S
H2122 N2119 0.984 . S
H2123 N2119 0.985 . S
H2124 N2118 0.984 . S
H2125 N2118 0.984 . S
H2126 N2114 0.984 . S
H2127 N2114 0.985 . S
C2128 C2129 1.363 . S
C2128 C2134 1.379 . S
C2128 N2136 1.356 . S
C2129 C2128 1.363 . S
C2129 C2135 1.363 . S
C2130 C2131 1.363 . S
C2130 C2135 1.379 . S
C2130 N2137 1.356 . S
C2131 C2130 1.363 . S
C2131 C2134 1.363 . S
N2132 C2134 1.356 . S
N2132 H2144 0.984 . S
N2132 H2145 0.985 . S
N2133 C2135 1.356 . S
N2133 H2138 0.984 . S
N2133 H2139 0.985 . S
C2134 C2128 1.379 . S
C2134 C2131 1.363 . S
C2134 N2132 1.356 . S
C2135 C2129 1.363 . S
C2135 C2130 1.379 . S
C2135 N2133 1.356 . S
N2136 C2128 1.356 . S
N2136 H2142 0.984 . S
N2136 H2143 0.984 . S
N2137 C2130 1.356 . S
N2137 H2140 0.984 . S
N2137 H2141 0.985 . S
H2138 N2133 0.984 . S
H2139 N2133 0.985 . S
H2140 N2137 0.984 . S
H2141 N2137 0.985 . S
H2142 N2136 0.984 . S
H2143 N2136 0.984 . S
H2144 N2132 0.984 . S
H2145 N2132 0.985 . S
C2146 C2147 1.363 . S
C2146 C2152 1.379 . S
C2146 N2154 1.356 . S
C2147 C2146 1.363 . S
C2147 C2153 1.363 . S
C2148 C2149 1.363 . S
C2148 C2153 1.379 . S
C2148 N2155 1.356 . S
C2149 C2148 1.363 . S
C2149 C2152 1.363 . S
N2150 C2152 1.356 . S
N2150 H2162 0.984 . S
N2150 H2163 0.985 . S
N2151 C2153 1.356 . S
N2151 H2156 0.984 . S
N2151 H2157 0.985 . S
C2152 C2146 1.379 . S
C2152 C2149 1.363 . S
C2152 N2150 1.356 . S
C2153 C2147 1.363 . S
C2153 C2148 1.379 . S
C2153 N2151 1.356 . S
N2154 C2146 1.356 . S
N2154 H2160 0.984 . S
N2154 H2161 0.984 . S
N2155 C2148 1.356 . S
N2155 H2158 0.984 . S
N2155 H2159 0.985 . S
H2156 N2151 0.984 . S
H2157 N2151 0.985 . S
H2158 N2155 0.984 . S
H2159 N2155 0.985 . S
H2160 N2154 0.984 . S
H2161 N2154 0.984 . S
H2162 N2150 0.984 . S
H2163 N2150 0.985 . S
C2164 C2165 1.363 . S
C2164 C2170 1.379 . S
C2164 N2172 1.356 . S
C2165 C2164 1.363 . S
C2165 C2171 1.363 . S
C2166 C2167 1.363 . S
C2166 C2171 1.379 . S
C2166 N2173 1.356 . S
C2167 C2166 1.363 . S
C2167 C2170 1.363 . S
N2168 C2170 1.356 . S
N2168 H2180 0.984 . S
N2168 H2181 0.985 . S
N2169 C2171 1.356 . S
N2169 H2174 0.984 . S
N2169 H2175 0.985 . S
C2170 C2164 1.379 . S
C2170 C2167 1.363 . S
C2170 N2168 1.356 . S
C2171 C2165 1.363 . S
C2171 C2166 1.379 . S
C2171 N2169 1.356 . S
N2172 C2164 1.356 . S
N2172 H2178 0.984 . S
N2172 H2179 0.984 . S
N2173 C2166 1.356 . S
N2173 H2176 0.984 . S
N2173 H2177 0.985 . S
H2174 N2169 0.984 . S
H2175 N2169 0.985 . S
H2176 N2173 0.984 . S
H2177 N2173 0.985 . S
H2178 N2172 0.984 . S
H2179 N2172 0.984 . S
H2180 N2168 0.984 . S
H2181 N2168 0.985 . S
C2182 C2183 1.363 . S
C2182 C2188 1.379 . S
C2182 N2190 1.356 . S
C2183 C2182 1.363 . S
C2183 C2189 1.363 . S
C2184 C2185 1.363 . S
C2184 C2189 1.379 . S
C2184 N2191 1.356 . S
C2185 C2184 1.363 . S
C2185 C2188 1.363 . S
N2186 C2188 1.356 . S
N2186 H2198 0.984 . S
N2186 H2199 0.985 . S
N2187 C2189 1.356 1_556 S
N2187 H2192 0.984 . S
N2187 H2193 0.985 . S
C2188 C2182 1.379 . S
C2188 C2185 1.363 . S
C2188 N2186 1.356 . S
C2189 C2183 1.363 . S
C2189 C2184 1.379 . S
C2189 N2187 1.356 1_554 S
N2190 C2182 1.356 . S
N2190 H2196 0.984 . S
N2190 H2197 0.984 . S
N2191 C2184 1.356 . S
N2191 H2194 0.984 . S
N2191 H2195 0.985 1_554 S
H2192 N2187 0.984 . S
H2193 N2187 0.985 . S
H2194 N2191 0.984 . S
H2195 N2191 0.985 1_556 S
H2196 N2190 0.984 . S
H2197 N2190 0.984 . S
H2198 N2186 0.984 . S
H2199 N2186 0.985 . S
C2200 C2201 1.363 . S
C2200 C2206 1.379 . S
C2200 N2208 1.356 . S
C2201 C2200 1.363 . S
C2201 C2207 1.363 . S
C2202 C2203 1.363 . S
C2202 C2207 1.379 . S
C2202 N2209 1.356 . S
C2203 C2202 1.363 . S
C2203 C2206 1.363 . S
N2204 C2206 1.356 . S
N2204 H2216 0.984 . S
N2204 H2217 0.985 . S
N2205 C2207 1.356 . S
N2205 H2210 0.984 . S
N2205 H2211 0.985 . S
C2206 C2200 1.379 . S
C2206 C2203 1.363 . S
C2206 N2204 1.356 . S
C2207 C2201 1.363 . S
C2207 C2202 1.379 . S
C2207 N2205 1.356 . S
N2208 C2200 1.356 . S
N2208 H2214 0.984 . S
N2208 H2215 0.984 . S
N2209 C2202 1.356 . S
N2209 H2212 0.984 . S
N2209 H2213 0.985 . S
H2210 N2205 0.984 . S
H2211 N2205 0.985 . S
H2212 N2209 0.984 . S
H2213 N2209 0.985 . S
H2214 N2208 0.984 . S
H2215 N2208 0.984 . S
H2216 N2204 0.984 . S
H2217 N2204 0.985 . S
C2218 C2219 1.363 . S
C2218 C2224 1.379 . S
C2218 N2226 1.356 . S
C2219 C2218 1.363 . S
C2219 C2225 1.363 . S
C2220 C2221 1.363 . S
C2220 C2225 1.379 . S
C2220 N2227 1.356 . S
C2221 C2220 1.363 . S
C2221 C2224 1.363 . S
N2222 C2224 1.356 . S
N2222 H2234 0.984 . S
N2222 H2235 0.985 . S
N2223 C2225 1.356 . S
N2223 H2228 0.984 . S
N2223 H2229 0.985 . S
C2224 C2218 1.379 . S
C2224 C2221 1.363 . S
C2224 N2222 1.356 . S
C2225 C2219 1.363 . S
C2225 C2220 1.379 . S
C2225 N2223 1.356 . S
N2226 C2218 1.356 . S
N2226 H2232 0.984 . S
N2226 H2233 0.984 . S
N2227 C2220 1.356 . S
N2227 H2230 0.984 . S
N2227 H2231 0.985 . S
H2228 N2223 0.984 . S
H2229 N2223 0.985 . S
H2230 N2227 0.984 . S
H2231 N2227 0.985 . S
H2232 N2226 0.984 . S
H2233 N2226 0.984 . S
H2234 N2222 0.984 . S
H2235 N2222 0.985 . S
C2236 C2237 1.363 . S
C2236 C2242 1.379 . S
C2236 N2244 1.356 . S
C2237 C2236 1.363 . S
C2237 C2243 1.363 . S
C2238 C2239 1.363 . S
C2238 C2243 1.379 . S
C2238 N2245 1.356 . S
C2239 C2238 1.363 . S
C2239 C2242 1.363 . S
N2240 C2242 1.356 . S
N2240 H2252 0.984 . S
N2240 H2253 0.985 . S
N2241 C2243 1.356 . S
N2241 H2246 0.984 . S
N2241 H2247 0.985 . S
C2242 C2236 1.379 . S
C2242 C2239 1.363 . S
C2242 N2240 1.356 . S
C2243 C2237 1.363 . S
C2243 C2238 1.379 . S
C2243 N2241 1.356 . S
N2244 C2236 1.356 . S
N2244 H2250 0.984 . S
N2244 H2251 0.984 . S
N2245 C2238 1.356 . S
N2245 H2248 0.984 . S
N2245 H2249 0.985 . S
H2246 N2241 0.984 . S
H2247 N2241 0.985 . S
H2248 N2245 0.984 . S
H2249 N2245 0.985 . S
H2250 N2244 0.984 . S
H2251 N2244 0.984 . S
H2252 N2240 0.984 . S
H2253 N2240 0.985 . S
C2254 C2255 1.363 . S
C2254 C2260 1.379 . S
C2254 N2262 1.356 . S
C2255 C2254 1.363 . S
C2255 C2261 1.363 . S
C2256 C2257 1.363 . S
C2256 C2261 1.379 . S
C2256 N2263 1.356 . S
C2257 C2256 1.363 . S
C2257 C2260 1.363 . S
N2258 C2260 1.356 . S
N2258 H2270 0.984 . S
N2258 H2271 0.985 . S
N2259 C2261 1.356 . S
N2259 H2264 0.984 . S
N2259 H2265 0.985 . S
C2260 C2254 1.379 . S
C2260 C2257 1.363 . S
C2260 N2258 1.356 . S
C2261 C2255 1.363 . S
C2261 C2256 1.379 . S
C2261 N2259 1.356 . S
N2262 C2254 1.356 . S
N2262 H2268 0.984 . S
N2262 H2269 0.984 . S
N2263 C2256 1.356 . S
N2263 H2266 0.984 . S
N2263 H2267 0.985 . S
H2264 N2259 0.984 . S
H2265 N2259 0.985 . S
H2266 N2263 0.984 . S
H2267 N2263 0.985 . S
H2268 N2262 0.984 . S
H2269 N2262 0.984 . S
H2270 N2258 0.984 . S
H2271 N2258 0.985 . S
C2272 C2273 1.363 . S
C2272 C2278 1.379 . S
C2272 N2280 1.356 . S
C2273 C2272 1.363 . S
C2273 C2279 1.363 . S
C2274 C2275 1.363 . S
C2274 C2279 1.379 . S
C2274 N2281 1.356 . S
C2275 C2274 1.363 . S
C2275 C2278 1.363 . S
N2276 C2278 1.356 . S
N2276 H2288 0.984 . S
N2276 H2289 0.985 . S
N2277 C2279 1.356 . S
N2277 H2282 0.984 . S
N2277 H2283 0.985 . S
C2278 C2272 1.379 . S
C2278 C2275 1.363 . S
C2278 N2276 1.356 . S
C2279 C2273 1.363 . S
C2279 C2274 1.379 . S
C2279 N2277 1.356 . S
N2280 C2272 1.356 . S
N2280 H2286 0.984 . S
N2280 H2287 0.984 . S
N2281 C2274 1.356 . S
N2281 H2284 0.984 . S
N2281 H2285 0.985 . S
H2282 N2277 0.984 . S
H2283 N2277 0.985 . S
H2284 N2281 0.984 . S
H2285 N2281 0.985 . S
H2286 N2280 0.984 . S
H2287 N2280 0.984 . S
H2288 N2276 0.984 . S
H2289 N2276 0.985 . S
C2290 C2291 1.363 . S
C2290 C2296 1.379 . S
C2290 N2298 1.356 . S
C2291 C2290 1.363 . S
C2291 C2297 1.363 . S
C2292 C2293 1.363 . S
C2292 C2297 1.379 . S
C2292 N2299 1.356 . S
C2293 C2292 1.363 . S
C2293 C2296 1.363 . S
N2294 C2296 1.356 . S
N2294 H2306 0.984 . S
N2294 H2307 0.985 . S
N2295 C2297 1.356 . S
N2295 H2300 0.984 . S
N2295 H2301 0.985 . S
C2296 C2290 1.379 . S
C2296 C2293 1.363 . S
C2296 N2294 1.356 . S
C2297 C2291 1.363 . S
C2297 C2292 1.379 . S
C2297 N2295 1.356 . S
N2298 C2290 1.356 . S
N2298 H2304 0.984 . S
N2298 H2305 0.984 . S
N2299 C2292 1.356 . S
N2299 H2302 0.984 . S
N2299 H2303 0.985 . S
H2300 N2295 0.984 . S
H2301 N2295 0.985 . S
H2302 N2299 0.984 . S
H2303 N2299 0.985 . S
H2304 N2298 0.984 . S
H2305 N2298 0.984 . S
H2306 N2294 0.984 . S
H2307 N2294 0.985 . S
C2308 C2309 1.363 . S
C2308 C2314 1.379 . S
C2308 N2316 1.356 . S
C2309 C2308 1.363 . S
C2309 C2315 1.363 . S
C2310 C2311 1.363 . S
C2310 C2315 1.379 . S
C2310 N2317 1.356 . S
C2311 C2310 1.363 . S
C2311 C2314 1.363 . S
N2312 C2314 1.356 . S
N2312 H2324 0.984 . S
N2312 H2325 0.985 . S
N2313 C2315 1.356 . S
N2313 H2318 0.984 . S
N2313 H2319 0.985 . S
C2314 C2308 1.379 . S
C2314 C2311 1.363 . S
C2314 N2312 1.356 . S
C2315 C2309 1.363 . S
C2315 C2310 1.379 . S
C2315 N2313 1.356 . S
N2316 C2308 1.356 . S
N2316 H2322 0.984 . S
N2316 H2323 0.984 . S
N2317 C2310 1.356 . S
N2317 H2320 0.984 . S
N2317 H2321 0.985 . S
H2318 N2313 0.984 . S
H2319 N2313 0.985 . S
H2320 N2317 0.984 . S
H2321 N2317 0.985 . S
H2322 N2316 0.984 . S
H2323 N2316 0.984 . S
H2324 N2312 0.984 . S
H2325 N2312 0.985 . S
C2326 C2327 1.363 . S
C2326 C2332 1.379 . S
C2326 N2334 1.356 . S
C2327 C2326 1.363 . S
C2327 C2333 1.363 . S
C2328 C2329 1.363 . S
C2328 C2333 1.379 . S
C2328 N2335 1.356 . S
C2329 C2328 1.363 . S
C2329 C2332 1.363 . S
N2330 C2332 1.356 . S
N2330 H2342 0.984 . S
N2330 H2343 0.985 . S
N2331 C2333 1.356 . S
N2331 H2336 0.984 . S
N2331 H2337 0.985 . S
C2332 C2326 1.379 . S
C2332 C2329 1.363 . S
C2332 N2330 1.356 . S
C2333 C2327 1.363 . S
C2333 C2328 1.379 . S
C2333 N2331 1.356 . S
N2334 C2326 1.356 . S
N2334 H2340 0.984 . S
N2334 H2341 0.984 . S
N2335 C2328 1.356 . S
N2335 H2338 0.984 . S
N2335 H2339 0.985 . S
H2336 N2331 0.984 . S
H2337 N2331 0.985 . S
H2338 N2335 0.984 . S
H2339 N2335 0.985 . S
H2340 N2334 0.984 . S
H2341 N2334 0.984 . S
H2342 N2330 0.984 . S
H2343 N2330 0.985 . S
C2344 C2345 1.363 . S
C2344 C2350 1.379 . S
C2344 N2352 1.356 1_554 S
C2345 C2344 1.363 . S
C2345 C2351 1.363 . S
C2346 C2347 1.363 . S
C2346 C2351 1.379 . S
C2346 N2353 1.356 . S
C2347 C2346 1.363 . S
C2347 C2350 1.363 . S
N2348 C2350 1.356 1_556 S
N2348 H2360 0.984 . S
N2348 H2361 0.985 . S
N2349 C2351 1.356 . S
N2349 H2354 0.984 . S
N2349 H2355 0.985 . S
C2350 C2344 1.379 . S
C2350 C2347 1.363 . S
C2350 N2348 1.356 1_554 S
C2351 C2345 1.363 . S
C2351 C2346 1.379 . S
C2351 N2349 1.356 . S
N2352 C2344 1.356 1_556 S
N2352 H2358 0.984 . S
N2352 H2359 0.984 . S
N2353 C2346 1.356 . S
N2353 H2356 0.984 . S
N2353 H2357 0.985 . S
H2354 N2349 0.984 . S
H2355 N2349 0.985 . S
H2356 N2353 0.984 . S
H2357 N2353 0.985 . S
H2358 N2352 0.984 . S
H2359 N2352 0.984 . S
H2360 N2348 0.984 . S
H2361 N2348 0.985 . S
C2362 C2363 1.363 . S
C2362 C2368 1.379 . S
C2362 N2370 1.356 . S
C2363 C2362 1.363 . S
C2363 C2369 1.363 . S
C2364 C2365 1.363 . S
C2364 C2369 1.379 . S
C2364 N2371 1.356 . S
C2365 C2364 1.363 . S
C2365 C2368 1.363 . S
N2366 C2368 1.356 . S
N2366 H2378 0.984 . S
N2366 H2379 0.985 . S
N2367 C2369 1.356 . S
N2367 H2372 0.984 . S
N2367 H2373 0.985 . S
C2368 C2362 1.379 . S
C2368 C2365 1.363 . S
C2368 N2366 1.356 . S
C2369 C2363 1.363 . S
C2369 C2364 1.379 . S
C2369 N2367 1.356 . S
N2370 C2362 1.356 . S
N2370 H2376 0.984 . S
N2370 H2377 0.984 . S
N2371 C2364 1.356 . S
N2371 H2374 0.984 . S
N2371 H2375 0.985 . S
H2372 N2367 0.984 . S
H2373 N2367 0.985 . S
H2374 N2371 0.984 . S
H2375 N2371 0.985 . S
H2376 N2370 0.984 . S
H2377 N2370 0.984 . S
H2378 N2366 0.984 . S
H2379 N2366 0.985 . S
C2380 C2381 1.363 . S
C2380 C2386 1.379 . S
C2380 N2388 1.356 . S
C2381 C2380 1.363 . S
C2381 C2387 1.363 . S
C2382 C2383 1.363 . S
C2382 C2387 1.379 . S
C2382 N2389 1.356 . S
C2383 C2382 1.363 . S
C2383 C2386 1.363 . S
N2384 C2386 1.356 . S
N2384 H2396 0.984 . S
N2384 H2397 0.985 1_455 S
N2385 C2387 1.356 . S
N2385 H2390 0.984 . S
N2385 H2391 0.985 . S
C2386 C2380 1.379 . S
C2386 C2383 1.363 . S
C2386 N2384 1.356 . S
C2387 C2381 1.363 . S
C2387 C2382 1.379 . S
C2387 N2385 1.356 . S
N2388 C2380 1.356 . S
N2388 H2394 0.984 . S
N2388 H2395 0.984 . S
N2389 C2382 1.356 . S
N2389 H2392 0.984 . S
N2389 H2393 0.985 . S
H2390 N2385 0.984 . S
H2391 N2385 0.985 . S
H2392 N2389 0.984 . S
H2393 N2389 0.985 . S
H2394 N2388 0.984 . S
H2395 N2388 0.984 . S
H2396 N2384 0.984 . S
H2397 N2384 0.985 1_655 S
C2398 C2399 1.363 . S
C2398 C2404 1.379 . S
C2398 N2406 1.356 . S
C2399 C2398 1.363 . S
C2399 C2405 1.363 . S
C2400 C2401 1.363 . S
C2400 C2405 1.379 . S
C2400 N2407 1.356 . S
C2401 C2400 1.363 . S
C2401 C2404 1.363 . S
N2402 C2404 1.356 . S
N2402 H2414 0.984 . S
N2402 H2415 0.985 . S
N2403 C2405 1.356 . S
N2403 H2408 0.984 . S
N2403 H2409 0.985 . S
C2404 C2398 1.379 . S
C2404 C2401 1.363 . S
C2404 N2402 1.356 . S
C2405 C2399 1.363 . S
C2405 C2400 1.379 . S
C2405 N2403 1.356 . S
N2406 C2398 1.356 . S
N2406 H2412 0.984 . S
N2406 H2413 0.984 . S
N2407 C2400 1.356 . S
N2407 H2410 0.984 . S
N2407 H2411 0.985 . S
H2408 N2403 0.984 . S
H2409 N2403 0.985 . S
H2410 N2407 0.984 . S
H2411 N2407 0.985 . S
H2412 N2406 0.984 . S
H2413 N2406 0.984 . S
H2414 N2402 0.984 . S
H2415 N2402 0.985 . S
C2416 C2417 1.363 . S
C2416 C2422 1.379 . S
C2416 N2424 1.356 . S
C2417 C2416 1.363 . S
C2417 C2423 1.363 . S
C2418 C2419 1.363 . S
C2418 C2423 1.379 . S
C2418 N2425 1.356 . S
C2419 C2418 1.363 . S
C2419 C2422 1.363 . S
N2420 C2422 1.356 . S
N2420 H2432 0.984 . S
N2420 H2433 0.985 . S
N2421 C2423 1.356 . S
N2421 H2426 0.984 . S
N2421 H2427 0.985 . S
C2422 C2416 1.379 . S
C2422 C2419 1.363 . S
C2422 N2420 1.356 . S
C2423 C2417 1.363 . S
C2423 C2418 1.379 . S
C2423 N2421 1.356 . S
N2424 C2416 1.356 . S
N2424 H2430 0.984 . S
N2424 H2431 0.984 . S
N2425 C2418 1.356 . S
N2425 H2428 0.984 . S
N2425 H2429 0.985 . S
H2426 N2421 0.984 . S
H2427 N2421 0.985 . S
H2428 N2425 0.984 . S
H2429 N2425 0.985 . S
H2430 N2424 0.984 . S
H2431 N2424 0.984 . S
H2432 N2420 0.984 . S
H2433 N2420 0.985 . S
C2434 C2435 1.363 . S
C2434 C2440 1.379 . S
C2434 N2442 1.356 . S
C2435 C2434 1.363 . S
C2435 C2441 1.363 . S
C2436 C2437 1.363 . S
C2436 C2441 1.379 . S
C2436 N2443 1.356 . S
C2437 C2436 1.363 . S
C2437 C2440 1.363 . S
N2438 C2440 1.356 . S
N2438 H2450 0.984 . S
N2438 H2451 0.985 . S
N2439 C2441 1.356 . S
N2439 H2444 0.984 . S
N2439 H2445 0.985 . S
C2440 C2434 1.379 . S
C2440 C2437 1.363 . S
C2440 N2438 1.356 . S
C2441 C2435 1.363 . S
C2441 C2436 1.379 . S
C2441 N2439 1.356 . S
N2442 C2434 1.356 . S
N2442 H2448 0.984 . S
N2442 H2449 0.984 . S
N2443 C2436 1.356 . S
N2443 H2446 0.984 . S
N2443 H2447 0.985 . S
H2444 N2439 0.984 . S
H2445 N2439 0.985 . S
H2446 N2443 0.984 . S
H2447 N2443 0.985 . S
H2448 N2442 0.984 . S
H2449 N2442 0.984 . S
H2450 N2438 0.984 . S
H2451 N2438 0.985 . S
C2452 C2453 1.363 . S
C2452 C2458 1.379 . S
C2452 N2460 1.356 . S
C2453 C2452 1.363 . S
C2453 C2459 1.363 . S
C2454 C2455 1.363 . S
C2454 C2459 1.379 . S
C2454 N2461 1.356 1_655 S
C2455 C2454 1.363 . S
C2455 C2458 1.363 . S
N2456 C2458 1.356 . S
N2456 H2468 0.984 . S
N2456 H2469 0.985 1_655 S
N2457 C2459 1.356 . S
N2457 H2462 0.984 . S
N2457 H2463 0.985 . S
C2458 C2452 1.379 . S
C2458 C2455 1.363 . S
C2458 N2456 1.356 . S
C2459 C2453 1.363 . S
C2459 C2454 1.379 . S
C2459 N2457 1.356 . S
N2460 C2452 1.356 . S
N2460 H2466 0.984 . S
N2460 H2467 0.984 . S
N2461 C2454 1.356 1_455 S
N2461 H2464 0.984 1_556 S
N2461 H2465 0.985 . S
H2462 N2457 0.984 . S
H2463 N2457 0.985 . S
H2464 N2461 0.984 1_554 S
H2465 N2461 0.985 . S
H2466 N2460 0.984 . S
H2467 N2460 0.984 . S
H2468 N2456 0.984 . S
H2469 N2456 0.985 1_455 S
C2470 C2471 1.363 . S
C2470 C2476 1.379 . S
C2470 N2478 1.356 . S
C2471 C2470 1.363 . S
C2471 C2477 1.363 . S
C2472 C2473 1.363 . S
C2472 C2477 1.379 . S
C2472 N2479 1.356 . S
C2473 C2472 1.363 . S
C2473 C2476 1.363 . S
N2474 C2476 1.356 . S
N2474 H2486 0.984 . S
N2474 H2487 0.985 . S
N2475 C2477 1.356 . S
N2475 H2480 0.984 . S
N2475 H2481 0.985 . S
C2476 C2470 1.379 . S
C2476 C2473 1.363 . S
C2476 N2474 1.356 . S
C2477 C2471 1.363 . S
C2477 C2472 1.379 . S
C2477 N2475 1.356 . S
N2478 C2470 1.356 . S
N2478 H2484 0.984 . S
N2478 H2485 0.984 . S
N2479 C2472 1.356 . S
N2479 H2482 0.984 . S
N2479 H2483 0.985 . S
H2480 N2475 0.984 . S
H2481 N2475 0.985 . S
H2482 N2479 0.984 . S
H2483 N2479 0.985 . S
H2484 N2478 0.984 . S
H2485 N2478 0.984 . S
H2486 N2474 0.984 . S
H2487 N2474 0.985 . S
C2488 C2489 1.363 . S
C2488 C2494 1.379 . S
C2488 N2496 1.356 . S
C2489 C2488 1.363 . S
C2489 C2495 1.363 . S
C2490 C2491 1.363 . S
C2490 C2495 1.379 . S
C2490 N2497 1.356 . S
C2491 C2490 1.363 . S
C2491 C2494 1.363 . S
N2492 C2494 1.356 . S
N2492 H2504 0.984 . S
N2492 H2505 0.985 . S
N2493 C2495 1.356 . S
N2493 H2498 0.984 . S
N2493 H2499 0.985 . S
C2494 C2488 1.379 . S
C2494 C2491 1.363 . S
C2494 N2492 1.356 . S
C2495 C2489 1.363 . S
C2495 C2490 1.379 . S
C2495 N2493 1.356 . S
N2496 C2488 1.356 . S
N2496 H2502 0.984 . S
N2496 H2503 0.984 . S
N2497 C2490 1.356 . S
N2497 H2500 0.984 . S
N2497 H2501 0.985 . S
H2498 N2493 0.984 . S
H2499 N2493 0.985 . S
H2500 N2497 0.984 . S
H2501 N2497 0.985 . S
H2502 N2496 0.984 . S
H2503 N2496 0.984 . S
H2504 N2492 0.984 . S
H2505 N2492 0.985 . S
C2506 C2507 1.363 . S
C2506 C2512 1.379 . S
C2506 N2514 1.356 . S
C2507 C2506 1.363 . S
C2507 C2513 1.363 . S
C2508 C2509 1.363 . S
C2508 C2513 1.379 . S
C2508 N2515 1.356 . S
C2509 C2508 1.363 . S
C2509 C2512 1.363 . S
N2510 C2512 1.356 . S
N2510 H2522 0.984 . S
N2510 H2523 0.985 . S
N2511 C2513 1.356 . S
N2511 H2516 0.984 . S
N2511 H2517 0.985 . S
C2512 C2506 1.379 . S
C2512 C2509 1.363 . S
C2512 N2510 1.356 . S
C2513 C2507 1.363 . S
C2513 C2508 1.379 . S
C2513 N2511 1.356 . S
N2514 C2506 1.356 . S
N2514 H2520 0.984 . S
N2514 H2521 0.984 . S
N2515 C2508 1.356 . S
N2515 H2518 0.984 . S
N2515 H2519 0.985 . S
H2516 N2511 0.984 . S
H2517 N2511 0.985 . S
H2518 N2515 0.984 . S
H2519 N2515 0.985 . S
H2520 N2514 0.984 . S
H2521 N2514 0.984 . S
H2522 N2510 0.984 . S
H2523 N2510 0.985 . S
C2524 C2525 1.363 . S
C2524 C2530 1.379 . S
C2524 N2532 1.356 . S
C2525 C2524 1.363 . S
C2525 C2531 1.363 . S
C2526 C2527 1.363 . S
C2526 C2531 1.379 . S
C2526 N2533 1.356 . S
C2527 C2526 1.363 . S
C2527 C2530 1.363 . S
N2528 C2530 1.356 1_455 S
N2528 H2540 0.984 . S
N2528 H2541 0.985 . S
N2529 C2531 1.356 . S
N2529 H2534 0.984 . S
N2529 H2535 0.985 . S
C2530 C2524 1.379 . S
C2530 C2527 1.363 . S
C2530 N2528 1.356 1_655 S
C2531 C2525 1.363 . S
C2531 C2526 1.379 . S
C2531 N2529 1.356 . S
N2532 C2524 1.356 . S
N2532 H2538 0.984 . S
N2532 H2539 0.984 . S
N2533 C2526 1.356 . S
N2533 H2536 0.984 . S
N2533 H2537 0.985 . S
H2534 N2529 0.984 . S
H2535 N2529 0.985 . S
H2536 N2533 0.984 . S
H2537 N2533 0.985 . S
H2538 N2532 0.984 . S
H2539 N2532 0.984 . S
H2540 N2528 0.984 . S
H2541 N2528 0.985 . S
C2542 C2543 1.363 . S
C2542 C2548 1.379 . S
C2542 N2550 1.356 . S
C2543 C2542 1.363 . S
C2543 C2549 1.363 . S
C2544 C2545 1.363 . S
C2544 C2549 1.379 . S
C2544 N2551 1.356 . S
C2545 C2544 1.363 . S
C2545 C2548 1.363 . S
N2546 C2548 1.356 . S
N2546 H2558 0.984 . S
N2546 H2559 0.985 . S
N2547 C2549 1.356 . S
N2547 H2552 0.984 . S
N2547 H2553 0.985 . S
C2548 C2542 1.379 . S
C2548 C2545 1.363 . S
C2548 N2546 1.356 . S
C2549 C2543 1.363 . S
C2549 C2544 1.379 . S
C2549 N2547 1.356 . S
N2550 C2542 1.356 . S
N2550 H2556 0.984 . S
N2550 H2557 0.984 . S
N2551 C2544 1.356 . S
N2551 H2554 0.984 . S
N2551 H2555 0.985 . S
H2552 N2547 0.984 . S
H2553 N2547 0.985 . S
H2554 N2551 0.984 . S
H2555 N2551 0.985 . S
H2556 N2550 0.984 . S
H2557 N2550 0.984 . S
H2558 N2546 0.984 . S
H2559 N2546 0.985 . S
C2560 C2561 1.363 . S
C2560 C2566 1.379 . S
C2560 N2568 1.356 . S
C2561 C2560 1.363 . S
C2561 C2567 1.363 . S
C2562 C2563 1.363 . S
C2562 C2567 1.379 . S
C2562 N2569 1.356 . S
C2563 C2562 1.363 . S
C2563 C2566 1.363 . S
N2564 C2566 1.356 . S
N2564 H2576 0.984 . S
N2564 H2577 0.985 . S
N2565 C2567 1.356 . S
N2565 H2570 0.984 . S
N2565 H2571 0.985 . S
C2566 C2560 1.379 . S
C2566 C2563 1.363 . S
C2566 N2564 1.356 . S
C2567 C2561 1.363 . S
C2567 C2562 1.379 . S
C2567 N2565 1.356 . S
N2568 C2560 1.356 . S
N2568 H2574 0.984 . S
N2568 H2575 0.984 . S
N2569 C2562 1.356 . S
N2569 H2572 0.984 . S
N2569 H2573 0.985 . S
H2570 N2565 0.984 . S
H2571 N2565 0.985 . S
H2572 N2569 0.984 . S
H2573 N2569 0.985 . S
H2574 N2568 0.984 . S
H2575 N2568 0.984 . S
H2576 N2564 0.984 . S
H2577 N2564 0.985 . S
C2578 C2579 1.363 . S
C2578 C2584 1.379 . S
C2578 N2586 1.356 . S
C2579 C2578 1.363 . S
C2579 C2585 1.363 . S
C2580 C2581 1.363 . S
C2580 C2585 1.379 . S
C2580 N2587 1.356 1_565 S
C2581 C2580 1.363 . S
C2581 C2584 1.363 . S
N2582 C2584 1.356 . S
N2582 H2594 0.984 . S
N2582 H2595 0.985 . S
N2583 C2585 1.356 . S
N2583 H2588 0.984 . S
N2583 H2589 0.985 1_565 S
C2584 C2578 1.379 . S
C2584 C2581 1.363 . S
C2584 N2582 1.356 . S
C2585 C2579 1.363 . S
C2585 C2580 1.379 . S
C2585 N2583 1.356 . S
N2586 C2578 1.356 . S
N2586 H2592 0.984 . S
N2586 H2593 0.984 . S
N2587 C2580 1.356 1_545 S
N2587 H2590 0.984 . S
N2587 H2591 0.985 . S
H2588 N2583 0.984 . S
H2589 N2583 0.985 1_545 S
H2590 N2587 0.984 . S
H2591 N2587 0.985 . S
H2592 N2586 0.984 . S
H2593 N2586 0.984 . S
H2594 N2582 0.984 . S
H2595 N2582 0.985 . S
C2596 C2597 1.363 . S
C2596 C2602 1.379 . S
C2596 N2604 1.356 . S
C2597 C2596 1.363 . S
C2597 C2603 1.363 . S
C2598 C2599 1.363 . S
C2598 C2603 1.379 . S
C2598 N2605 1.356 . S
C2599 C2598 1.363 . S
C2599 C2602 1.363 . S
N2600 C2602 1.356 . S
N2600 H2612 0.984 . S
N2600 H2613 0.985 . S
N2601 C2603 1.356 . S
N2601 H2606 0.984 . S
N2601 H2607 0.985 . S
C2602 C2596 1.379 . S
C2602 C2599 1.363 . S
C2602 N2600 1.356 . S
C2603 C2597 1.363 . S
C2603 C2598 1.379 . S
C2603 N2601 1.356 . S
N2604 C2596 1.356 . S
N2604 H2610 0.984 . S
N2604 H2611 0.984 . S
N2605 C2598 1.356 . S
N2605 H2608 0.984 . S
N2605 H2609 0.985 . S
H2606 N2601 0.984 . S
H2607 N2601 0.985 . S
H2608 N2605 0.984 . S
H2609 N2605 0.985 . S
H2610 N2604 0.984 . S
H2611 N2604 0.984 . S
H2612 N2600 0.984 . S
H2613 N2600 0.985 . S
C2614 C2615 1.363 . S
C2614 C2620 1.379 . S
C2614 N2622 1.356 . S
C2615 C2614 1.363 . S
C2615 C2621 1.363 . S
C2616 C2617 1.363 . S
C2616 C2621 1.379 . S
C2616 N2623 1.356 . S
C2617 C2616 1.363 . S
C2617 C2620 1.363 . S
N2618 C2620 1.356 . S
N2618 H2630 0.984 . S
N2618 H2631 0.985 . S
N2619 C2621 1.356 . S
N2619 H2624 0.984 . S
N2619 H2625 0.985 . S
C2620 C2614 1.379 . S
C2620 C2617 1.363 . S
C2620 N2618 1.356 . S
C2621 C2615 1.363 . S
C2621 C2616 1.379 . S
C2621 N2619 1.356 . S
N2622 C2614 1.356 . S
N2622 H2628 0.984 . S
N2622 H2629 0.984 . S
N2623 C2616 1.356 . S
N2623 H2626 0.984 . S
N2623 H2627 0.985 . S
H2624 N2619 0.984 . S
H2625 N2619 0.985 . S
H2626 N2623 0.984 . S
H2627 N2623 0.985 . S
H2628 N2622 0.984 . S
H2629 N2622 0.984 . S
H2630 N2618 0.984 . S
H2631 N2618 0.985 . S
C2632 C2633 1.363 . S
C2632 C2638 1.379 . S
C2632 N2640 1.356 . S
C2633 C2632 1.363 . S
C2633 C2639 1.363 . S
C2634 C2635 1.363 . S
C2634 C2639 1.379 . S
C2634 N2641 1.356 . S
C2635 C2634 1.363 . S
C2635 C2638 1.363 . S
N2636 C2638 1.356 . S
N2636 H2648 0.984 . S
N2636 H2649 0.985 . S
N2637 C2639 1.356 . S
N2637 H2642 0.984 . S
N2637 H2643 0.985 . S
C2638 C2632 1.379 . S
C2638 C2635 1.363 . S
C2638 N2636 1.356 . S
C2639 C2633 1.363 . S
C2639 C2634 1.379 . S
C2639 N2637 1.356 . S
N2640 C2632 1.356 . S
N2640 H2646 0.984 . S
N2640 H2647 0.984 . S
N2641 C2634 1.356 . S
N2641 H2644 0.984 . S
N2641 H2645 0.985 . S
H2642 N2637 0.984 . S
H2643 N2637 0.985 . S
H2644 N2641 0.984 . S
H2645 N2641 0.985 . S
H2646 N2640 0.984 . S
H2647 N2640 0.984 . S
H2648 N2636 0.984 . S
H2649 N2636 0.985 . S
C2650 C2651 1.363 . S
C2650 C2656 1.379 . S
C2650 N2658 1.356 . S
C2651 C2650 1.363 . S
C2651 C2657 1.363 . S
C2652 C2653 1.363 . S
C2652 C2657 1.379 . S
C2652 N2659 1.356 1_554 S
C2653 C2652 1.363 . S
C2653 C2656 1.363 . S
N2654 C2656 1.356 . S
N2654 H2666 0.984 . S
N2654 H2667 0.985 . S
N2655 C2657 1.356 . S
N2655 H2660 0.984 . S
N2655 H2661 0.985 . S
C2656 C2650 1.379 . S
C2656 C2653 1.363 . S
C2656 N2654 1.356 . S
C2657 C2651 1.363 . S
C2657 C2652 1.379 . S
C2657 N2655 1.356 . S
N2658 C2650 1.356 . S
N2658 H2664 0.984 . S
N2658 H2665 0.984 . S
N2659 C2652 1.356 1_556 S
N2659 H2662 0.984 . S
N2659 H2663 0.985 . S
H2660 N2655 0.984 . S
H2661 N2655 0.985 . S
H2662 N2659 0.984 . S
H2663 N2659 0.985 . S
H2664 N2658 0.984 . S
H2665 N2658 0.984 . S
H2666 N2654 0.984 . S
H2667 N2654 0.985 . S
C2668 C2669 1.363 . S
C2668 C2674 1.379 . S
C2668 N2676 1.356 . S
C2669 C2668 1.363 . S
C2669 C2675 1.363 . S
C2670 C2671 1.363 . S
C2670 C2675 1.379 . S
C2670 N2677 1.356 . S
C2671 C2670 1.363 . S
C2671 C2674 1.363 . S
N2672 C2674 1.356 . S
N2672 H2684 0.984 . S
N2672 H2685 0.985 . S
N2673 C2675 1.356 . S
N2673 H2678 0.984 . S
N2673 H2679 0.985 . S
C2674 C2668 1.379 . S
C2674 C2671 1.363 . S
C2674 N2672 1.356 . S
C2675 C2669 1.363 . S
C2675 C2670 1.379 . S
C2675 N2673 1.356 . S
N2676 C2668 1.356 . S
N2676 H2682 0.984 . S
N2676 H2683 0.984 . S
N2677 C2670 1.356 . S
N2677 H2680 0.984 . S
N2677 H2681 0.985 . S
H2678 N2673 0.984 . S
H2679 N2673 0.985 . S
H2680 N2677 0.984 . S
H2681 N2677 0.985 . S
H2682 N2676 0.984 . S
H2683 N2676 0.984 . S
H2684 N2672 0.984 . S
H2685 N2672 0.985 . S
C2686 C2687 1.363 . S
C2686 C2692 1.379 . S
C2686 N2694 1.356 . S
C2687 C2686 1.363 . S
C2687 C2693 1.363 . S
C2688 C2689 1.363 . S
C2688 C2693 1.379 . S
C2688 N2695 1.356 . S
C2689 C2688 1.363 . S
C2689 C2692 1.363 . S
N2690 C2692 1.356 . S
N2690 H2702 0.984 . S
N2690 H2703 0.985 . S
N2691 C2693 1.356 . S
N2691 H2696 0.984 . S
N2691 H2697 0.985 . S
C2692 C2686 1.379 . S
C2692 C2689 1.363 . S
C2692 N2690 1.356 . S
C2693 C2687 1.363 . S
C2693 C2688 1.379 . S
C2693 N2691 1.356 . S
N2694 C2686 1.356 . S
N2694 H2700 0.984 . S
N2694 H2701 0.984 . S
N2695 C2688 1.356 . S
N2695 H2698 0.984 . S
N2695 H2699 0.985 . S
H2696 N2691 0.984 . S
H2697 N2691 0.985 . S
H2698 N2695 0.984 . S
H2699 N2695 0.985 . S
H2700 N2694 0.984 . S
H2701 N2694 0.984 . S
H2702 N2690 0.984 . S
H2703 N2690 0.985 . S
C977 C105 2.245 1_454 S
C979 C355 2.180 . S
C995 C65 2.312 . S
C997 C384 2.308 . S
C1013 C73 1.343 . S
C1015 C435 1.319 . S
C1033 C461 1.612 . S
C1031 C92 1.672 . S
C1049 C17 0.913 . S
C1051 C501 0.911 . S
C1069 C551 0.528 . S
C1067 C37 0.521 . S
C1087 C594 0.903 . S
C1085 C49 1.039 . S
C1103 C8 1.793 . S
C1105 C631 1.754 . S
C1123 C344 2.530 . S
C1121 C231 2.416 . S
C1139 C241 0.806 . S
C1141 C381 0.802 . S
C1159 C424 2.365 . S
C1157 C273 2.257 . S
C1177 C475 1.397 . S
C1175 C171 1.425 1_556 S
C1193 C227 2.022 . S
C1195 C515 1.962 1_655 S
C1213 C554 0.768 . S
C1211 C245 0.850 . S
C1231 C585 2.104 1_556 S
C1229 C269 2.191 . S
C1249 C634 2.173 . S
C1247 C175 2.138 . S
C1267 C341 1.987 . S
C1265 C162 2.072 . S
C1283 C289 2.323 . S
C1285 C664 2.316 . S
C1303 C705 2.454 . S
C1301 C330 2.477 . S
C1321 C751 0.742 . S
C1319 C317 0.741 . S
C1337 C120 2.602 . S
C1339 C625 2.545 . S
C1355 C134 1.650 . S
C1357 C421 1.590 . S
C1373 C331 2.210 . S
C1375 C784 2.205 . S
C1393 C835 1.952 . S
C1391 C303 2.001 . S
C1411 C345 2.169 . S
C1409 C59 2.227 . S
C1429 C834 2.338 . S
C1427 C107 2.332 . S
C1445 C91 1.385 . S
C1447 C425 1.359 . S
C1463 C78 1.672 . S
C1465 C791 1.640 . S
C1483 C511 0.924 . S
C1481 C7 0.904 . S
C1499 C51 0.613 . S
C1501 C701 0.609 . S
C1519 C584 0.812 . S
C1517 C31 0.720 . S
C1537 C861 1.692 . S
C1535 C22 1.685 . S
C1555 C354 2.540 1_556 S
C1553 C143 2.524 . S
C1573 C831 0.824 . S
C1571 C315 0.803 . S
C1589 C115 2.390 . S
C1591 C434 2.380 . S
C1607 C287 1.455 . S
C1609 C785 1.436 . S
C1625 C147 1.934 . S
C1627 C505 2.003 . S
C1645 C704 0.741 . S
C1643 C311 0.696 . S
C1661 C119 2.125 . S
C1663 C595 2.143 . S
C1679 C283 2.129 1_556 S
C1681 C864 2.152 . S
C1697 C190 2.010 . S
C1699 C351 1.991 . S
C1715 C177 2.359 . S
C1717 C674 2.362 . S
C1733 C260 2.497 . S
C1735 C555 2.478 . S
C1751 C247 0.753 . S
C1753 C741 0.753 . S
C1771 C875 2.552 . S
C1769 C274 2.600 . S
C1787 C218 1.635 . S
C1789 C431 1.609 . S
C1807 C474 2.231 . S
C1805 C261 2.227 . S
C1825 C385 1.979 . S
C1823 C205 2.032 . S
C1841 C77 2.244 . S
C1843 C915 2.176 . S
C1861 C824 2.295 . S
C1859 C93 2.299 . S
C1877 C101 1.353 1_554 S
C1879 C955 1.328 . S
C1895 C64 1.665 1_655 S
C1897 C781 1.606 . S
C1913 C45 0.910 . S
C1915 C661 0.909 . S
C1933 C711 0.593 . S
C1931 C9 0.587 . S
C1951 C754 0.912 . S
C1949 C21 1.055 1_655 S
C1969 C871 1.664 . S
C1967 C36 1.700 . S
C1987 C904 2.531 . S
C1985 C259 2.416 . S
C2003 C185 0.813 . S
C2005 C821 0.809 . S
C2023 C944 2.373 . S
C2021 C203 2.264 . S
C2041 C795 1.387 . S
C2039 C213 1.415 . S
C2059 C675 1.971 1_556 S
C2057 C255 2.017 . S
C2075 C189 0.836 . S
C2077 C714 0.744 . S
C2095 C745 2.094 . S
C2093 C199 2.176 . S
C2111 C217 2.123 . S
C2113 C874 2.158 . S
C2131 C901 2.039 . S
C2129 C316 2.126 . S
C2147 C135 2.323 . S
C2149 C504 2.316 . S
C2167 C545 2.450 . S
C2165 C148 2.474 . S
C2185 C591 0.729 . S
C2183 C163 0.728 . S
C2203 C865 2.537 . S
C2201 C302 2.596 . S
C2219 C288 1.648 . S
C2221 C941 1.589 . S
C2239 C464 2.213 . S
C2237 C149 2.219 . S
C2257 C395 1.958 . S
C2255 C121 2.006 . S
C2273 C87 2.234 . S
C2275 C905 2.173 . S
C2293 C394 2.335 . S
C2291 C79 2.330 . S
C2309 C63 1.395 . S
C2311 C945 1.369 . S
C2327 C106 1.664 . S
C2329 C471 1.632 . S
C2345 C35 0.899 . S
C2347 C671 0.920 . S
C2365 C541 0.620 . S
C2363 C23 0.620 . S
C2381 C3 0.809 . S
C2383 C744 0.896 . S
C2399 C50 1.675 . S
C2401 C621 1.683 . S
C2419 C914 2.541 . S
C2417 C325 2.524 . S
C2435 C161 0.781 . S
C2437 C391 0.791 . S
C2455 C954 2.393 1_656 S
C2453 C297 2.402 . S
C2471 C133 1.453 . S
C2473 C465 1.434 . S
C2489 C329 1.951 . S
C2491 C665 2.015 . S
C2509 C544 0.677 . S
C2507 C157 0.631 . S
C2525 C301 2.115 . S
C2527 C755 2.134 1_655 S
C2545 C624 2.147 . S
C2543 C129 2.123 . S
C2563 C911 1.995 . S
C2561 C246 2.013 . S
C2581 C514 2.351 1_565 S
C2579 C219 2.349 . S
C2597 C232 2.495 . S
C2599 C715 2.476 . S
C2617 C581 0.772 . S
C2615 C191 0.772 . S
C2633 C204 2.601 . S
C2635 C635 2.550 . S
C2651 C176 1.639 . S
C2653 C951 1.612 . S
C2671 C794 2.236 . S
C2669 C233 2.232 . S
C2689 C825 1.974 . S
C2687 C275 2.026 . S
