# Generated by pormake.
# Topology pth, (4,4)-cn, num edge types: 1
# Building blocks:
#     Node 0, Type 0, BuildingBlock: AZAVOO_clean_sbu_0, # of connection points: 4
#     Node 1, Type 0, BuildingBlock: AZAVOO_clean_sbu_0, # of connection points: 4
#     Node 2, Type 0, BuildingBlock: AZAVOO_clean_sbu_0, # of connection points: 4
#     Node 3, Type 1, BuildingBlock: NAWXER_clean_sbu_0, # of connection points: 4
#     Node 4, Type 1, BuildingBlock: NAWXER_clean_sbu_0, # of connection points: 4
#     Node 5, Type 1, BuildingBlock: NAWXER_clean_sbu_0, # of connection points: 4
#     Edge 6, Type (0, 1), BuildingBlock: MIFKUJ_clean_linker_0, # of connection points: 2
#     Edge 7, Type (0, 1), BuildingBlock: MIFKUJ_clean_linker_0, # of connection points: 2
#     Edge 8, Type (0, 1), BuildingBlock: MIFKUJ_clean_linker_0, # of connection points: 2
#     Edge 9, Type (0, 1), BuildingBlock: MIFKUJ_clean_linker_0, # of connection points: 2
#     Edge 10, Type (0, 1), BuildingBlock: MIFKUJ_clean_linker_0, # of connection points: 2
#     Edge 11, Type (0, 1), BuildingBlock: MIFKUJ_clean_linker_0, # of connection points: 2
#     Edge 12, Type (0, 1), BuildingBlock: MIFKUJ_clean_linker_0, # of connection points: 2
#     Edge 13, Type (0, 1), BuildingBlock: MIFKUJ_clean_linker_0, # of connection points: 2
#     Edge 14, Type (0, 1), BuildingBlock: MIFKUJ_clean_linker_0, # of connection points: 2
#     Edge 15, Type (0, 1), BuildingBlock: MIFKUJ_clean_linker_0, # of connection points: 2
#     Edge 16, Type (0, 1), BuildingBlock: MIFKUJ_clean_linker_0, # of connection points: 2
#     Edge 17, Type (0, 1), BuildingBlock: MIFKUJ_clean_linker_0, # of connection points: 2
# Relax obj value: 0.079
# Max RMSD: 0.219
# Mean RMSD: 0.117
data_MOF--net-pth--node1-AZAVOO_clean_sbu_0--node2-NAWXER_clean_sbu_0--edge1-MIFKUJ_clean_linker_0
_symmetry_space_group_name_H-M    P1
_symmetry_Int_Tables_number       1
_symmetry_cell_setting            triclinic
loop_
_symmetry_equiv_pos_as_xyz
'x, y, z'
_cell_length_a     29.63782
_cell_length_b     30.238899
_cell_length_c     73.575014
_cell_angle_alpha  90.83855
_cell_angle_beta   92.739039
_cell_angle_gamma 122.03143
loop_
_atom_site_label
_atom_site_type_symbol
_atom_site_fract_x
_atom_site_fract_y
_atom_site_fract_z
_atom_type_partial_charge
Mg0 Mg 0.1228 0.10824 0.069 0.0
O1 O 0.04853 0.04503 0.0524 0.0
O2 O 0.01145 0.08146 0.03665 0.0
Mg3 Mg 0.06582 0.17016 0.04218 0.0
C4 C 0.0122 0.04138 0.04133 0.0
C5 C 0.11719 0.00505 0.0805 0.0
O6 O 0.12694 0.00273 0.0634 0.0
O7 O 0.07548 0.12315 0.08898 0.0
O8 O 0.04725 0.16606 0.07229 0.0
O9 O 0.1724 0.11792 0.04532 0.0
O10 O 0.13463 0.16291 0.04996 0.0
C11 C 0.05217 0.14842 0.08744 0.0
C12 C 0.16267 0.15286 0.03994 0.0
O13 O 0.11644 0.04417 0.08658 0.0
Mg14 Mg 0.98791 0.06327 0.39217 0.0
O15 O 0.06557 0.08305 0.40747 0.0
O16 O 0.10059 0.15892 0.42322 0.0
Mg17 Mg 0.04289 0.18707 0.4186 0.0
C18 C 0.102 0.1191 0.41822 0.0
C19 C 0.97328 0.98907 0.35866 0.0
O20 O 0.94355 0.00586 0.35183 0.0
O21 O 0.03046 0.12559 0.37148 0.0
O22 O 0.05712 0.19871 0.38817 0.0
O23 O 0.94147 0.02234 0.41637 0.0
O24 O 0.97649 0.10608 0.41186 0.0
C25 C 0.05168 0.17499 0.37294 0.0
C26 C 0.9508 0.06736 0.42205 0.0
O27 O 0.99435 0.00398 0.37478 0.0
Mg28 Mg 0.02884 0.03807 0.72826 0.0
O29 O 0.08863 0.11762 0.74187 0.0
O30 O 0.04688 0.15275 0.75416 0.0
Mg31 Mg 0.95714 0.09225 0.74868 0.0
C32 C 0.08965 0.15464 0.75073 0.0
C33 C 0.09611 0.01065 0.70309 0.0
O34 O 0.05088 0.96552 0.70031 0.0
O35 O 0.00785 0.07261 0.70436 0.0
O36 O 0.96029 0.10023 0.71766 0.0
O37 O 0.02438 0.00079 0.75489 0.0
O38 O 0.97102 0.02746 0.7458 0.0
C39 C 0.97905 0.09245 0.70351 0.0
C40 C 0.98542 0.00699 0.75814 0.0
O41 O 0.09844 0.04526 0.71377 0.0
C42 C 0.05527 0.64878 0.24607 0.0
C43 C 0.07388 0.52762 0.20707 0.0
O44 O 0.09887 0.65273 0.24258 0.0
Zn45 Zn 0.0678 0.58887 0.2272 0.0
O46 O 0.01087 0.60894 0.23979 0.0
Zn47 Zn 0.98198 0.53987 0.22319 0.0
O48 O 0.94385 0.48264 0.23936 0.0
O49 O 0.0308 0.52935 0.246 0.0
O50 O 0.02564 0.5147 0.2088 0.0
O51 O 0.11215 0.56814 0.21566 0.0
O52 O 0.03225 0.60492 0.20423 0.0
O53 O 0.94439 0.55163 0.20348 0.0
C54 C 0.98437 0.49118 0.24922 0.0
C55 C 0.98575 0.58864 0.19674 0.0
C56 C 0.58392 0.0359 0.57534 0.0
C57 C 0.46588 0.05358 0.53125 0.0
O58 O 0.54667 0.99906 0.56509 0.0
Zn59 Zn 0.52281 0.0413 0.55317 0.0
O60 O 0.59299 0.08215 0.57457 0.0
Zn61 Zn 0.5656 0.12437 0.56005 0.0
O62 O 0.54186 0.14994 0.57945 0.0
O63 O 0.49256 0.06422 0.57476 0.0
O64 O 0.50138 0.09638 0.53976 0.0
O65 O 0.46386 0.01141 0.53464 0.0
O66 O 0.58848 0.0886 0.53752 0.0
O67 O 0.62851 0.17143 0.54694 0.0
C68 C 0.50255 0.10582 0.58349 0.0
C69 C 0.62568 0.13639 0.53628 0.0
C70 C 0.4795 0.5338 0.91429 0.0
C71 C 0.61303 0.6837 0.88213 0.0
O72 O 0.47874 0.57468 0.91105 0.0
Zn73 Zn 0.5434 0.60948 0.89776 0.0
O74 O 0.51761 0.52967 0.90889 0.0
Zn75 Zn 0.58788 0.57193 0.89451 0.0
O76 O 0.64368 0.58508 0.91293 0.0
O77 O 0.60333 0.62714 0.91885 0.0
O78 O 0.62241 0.64721 0.88392 0.0
O79 O 0.57014 0.67787 0.88757 0.0
O80 O 0.52007 0.55909 0.87413 0.0
O81 O 0.57045 0.52571 0.873 0.0
C82 C 0.6387 0.61633 0.9232 0.0
C83 C 0.53237 0.52937 0.86613 0.0
H84 H 0.98417 0.1827 0.09055 0.0
H85 H 0.9898 0.24187 0.11473 0.0
H86 H 0.10463 0.2222 0.14577 0.0
H87 H 0.09817 0.16179 0.12184 0.0
H88 H 0.0442 0.24295 0.16814 0.0
H89 H 0.15047 0.31631 0.11728 0.0
H90 H 0.16764 0.32777 0.0847 0.0
H91 H 0.06006 0.38148 0.07757 0.0
H92 H 0.04152 0.36946 0.11006 0.0
H93 H 0.14685 0.4985 0.21243 0.0
H94 H 0.14899 0.42964 0.19481 0.0
H95 H 0.02165 0.411 0.15801 0.0
H96 H 0.01901 0.47855 0.17549 0.0
H97 H 0.10379 0.41272 0.14045 0.0
H98 H 0.99491 0.33316 0.19207 0.0
H99 H 0.98035 0.32129 0.22483 0.0
H100 H 0.09907 0.28128 0.23103 0.0
H101 H 0.11519 0.29403 0.19836 0.0
C102 C 0.00905 0.18934 0.10282 0.0
C103 C 0.0415 0.1684 0.10411 0.0
C104 C 0.01244 0.22335 0.1166 0.0
C105 C 0.04898 0.23769 0.13173 0.0
C106 C 0.07661 0.21204 0.1341 0.0
C107 C 0.07272 0.17738 0.1204 0.0
C108 C 0.06387 0.28454 0.14335 0.0
C109 C 0.05792 0.28028 0.16217 0.0
C110 C 0.08258 0.33343 0.13557 0.0
C111 C 0.09431 0.34161 0.11608 0.0
C112 C 0.13024 0.33028 0.10875 0.0
C113 C 0.14022 0.33688 0.09029 0.0
C114 C 0.11489 0.35526 0.07907 0.0
C115 C 0.07962 0.36721 0.08628 0.0
C116 C 0.06938 0.36054 0.10472 0.0
C117 C 0.12026 0.48033 0.20034 0.0
C118 C 0.0828 0.49364 0.19525 0.0
C119 C 0.12114 0.44082 0.19043 0.0
C120 C 0.08508 0.41499 0.17523 0.0
C121 C 0.04969 0.43035 0.1697 0.0
C122 C 0.04825 0.46894 0.17969 0.0
C123 C 0.08208 0.37076 0.16512 0.0
C124 C 0.09073 0.37561 0.14651 0.0
C125 C 0.06655 0.32284 0.17319 0.0
C126 C 0.05684 0.31533 0.19282 0.0
C127 C 0.01838 0.32245 0.20045 0.0
C128 C 0.00977 0.31546 0.219 0.0
C129 C 0.03893 0.30074 0.23 0.0
C130 C 0.07667 0.29287 0.22249 0.0
C131 C 0.08559 0.30002 0.20397 0.0
H132 H 0.03218 0.29528 0.24433 0.0
H133 H 0.12265 0.36033 0.06478 0.0
H134 H 0.99694 0.15059 0.44655 0.0
H135 H 0.95121 0.17117 0.46889 0.0
H136 H 0.80718 0.02142 0.45633 0.0
H137 H 0.85307 0.00018 0.4342 0.0
H138 H 0.81144 0.12491 0.44941 0.0
H139 H 0.8447 0.02785 0.4942 0.0
H140 H 0.89933 0.0064 0.51398 0.0
H141 H 0.98244 0.16121 0.53893 0.0
H142 H 0.92882 0.18384 0.51907 0.0
H143 H 0.60999 0.0851 0.50413 0.0
H144 H 0.67734 0.08781 0.48585 0.0
H145 H 0.8012 0.21457 0.52072 0.0
H146 H 0.73293 0.21115 0.53949 0.0
H147 H 0.82033 0.13877 0.51689 0.0
H148 H 0.7806 0.23315 0.47548 0.0
H149 H 0.72522 0.25571 0.45666 0.0
H150 H 0.6568 0.1108 0.42541 0.0
H151 H 0.71118 0.08695 0.4442 0.0
C152 C 0.95597 0.12153 0.44892 0.0
C153 C 0.9283 0.07402 0.43855 0.0
C154 C 0.93003 0.13324 0.46173 0.0
C155 C 0.87591 0.09788 0.46414 0.0
C156 C 0.84913 0.04904 0.45467 0.0
C157 C 0.87539 0.03686 0.44212 0.0
C158 C 0.84544 0.11484 0.4743 0.0
C159 C 0.81287 0.1275 0.46417 0.0
C160 C 0.84975 0.12074 0.4935 0.0
C161 C 0.88342 0.10782 0.50491 0.0
C162 C 0.87526 0.05761 0.50367 0.0
C163 C 0.90586 0.04515 0.51496 0.0
C164 C 0.94452 0.0825 0.52764 0.0
C165 C 0.95265 0.13238 0.52905 0.0
C166 C 0.92219 0.14506 0.51777 0.0
C167 C 0.65152 0.11454 0.50765 0.0
C168 C 0.66631 0.14792 0.52322 0.0
C169 C 0.69007 0.11624 0.49712 0.0
C170 C 0.74442 0.15166 0.50179 0.0
C171 C 0.75944 0.18707 0.51682 0.0
C172 C 0.72052 0.18548 0.52742 0.0
C173 C 0.78448 0.14698 0.49202 0.0
C174 C 0.81931 0.13698 0.50213 0.0
C175 C 0.78268 0.14399 0.47276 0.0
C176 C 0.74989 0.15816 0.46133 0.0
C177 C 0.7535 0.20591 0.46468 0.0
C178 C 0.72231 0.21896 0.45399 0.0
C179 C 0.68748 0.18469 0.43986 0.0
C180 C 0.68383 0.13732 0.43636 0.0
C181 C 0.71491 0.12406 0.447 0.0
H182 H 0.66336 0.19486 0.43161 0.0
H183 H 0.96802 0.07271 0.53642 0.0
H184 H 0.89384 0.00223 0.76536 0.0
H185 H 0.83786 0.96119 0.79053 0.0
H186 H 0.95332 0.92928 0.81409 0.0
H187 H 0.00907 0.969 0.78838 0.0
H188 H 0.85992 0.84524 0.81254 0.0
H189 H 0.92648 0.02012 0.83411 0.0
H190 H 0.94936 0.11104 0.83228 0.0
H191 H 0.78447 0.05697 0.81995 0.0
H192 H 0.76065 0.96566 0.82145 0.0
H193 H 0.71927 0.73044 0.88807 0.0
H194 H 0.78859 0.80061 0.87129 0.0
H195 H 0.66937 0.81545 0.84099 0.0
H196 H 0.59938 0.74565 0.85834 0.0
H197 H 0.76802 0.91209 0.84791 0.0
H198 H 0.70441 0.73781 0.8236 0.0
H199 H 0.6817 0.64702 0.82593 0.0
H200 H 0.84382 0.70227 0.84392 0.0
H201 H 0.8673 0.79344 0.84194 0.0
C202 C 0.90799 0.98743 0.77605 0.0
C203 C 0.95592 0.98875 0.77484 0.0
C204 C 0.87593 0.96418 0.79055 0.0
C205 C 0.89148 0.94257 0.80438 0.0
C206 C 0.94046 0.94575 0.80359 0.0
C207 C 0.97237 0.96853 0.78893 0.0
C208 C 0.85406 0.91199 0.81848 0.0
C209 C 0.84085 0.86047 0.82053 0.0
C210 C 0.82771 0.93106 0.82857 0.0
C211 C 0.84184 0.98598 0.82776 0.0
C212 C 0.89513 0.02758 0.83088 0.0
C213 C 0.90826 0.0792 0.82993 0.0
C214 C 0.86841 0.08977 0.82597 0.0
C215 C 0.81531 0.04873 0.82301 0.0
C216 C 0.80196 0.99703 0.82393 0.0
C217 C 0.70792 0.74945 0.8781 0.0
C218 C 0.65403 0.73227 0.87425 0.0
C219 C 0.74756 0.78953 0.86855 0.0
C220 C 0.73397 0.81235 0.85462 0.0
C221 C 0.68057 0.79811 0.85166 0.0
C222 C 0.64069 0.75831 0.86151 0.0
C223 C 0.77456 0.84597 0.84187 0.0
C224 C 0.78789 0.89755 0.84002 0.0
C225 C 0.8013 0.82719 0.83194 0.0
C226 C 0.78749 0.7724 0.83276 0.0
C227 C 0.73514 0.73058 0.82813 0.0
C228 C 0.72214 0.67907 0.82939 0.0
C229 C 0.76128 0.66889 0.8351 0.0
C230 C 0.81354 0.71022 0.83951 0.0
C231 C 0.82673 0.76181 0.83831 0.0
H232 H 0.75112 0.62898 0.83608 0.0
H233 H 0.87867 0.12976 0.82523 0.0
H234 H 0.13214 0.92399 0.07528 0.0
H235 H 0.10084 0.84745 0.09368 0.0
H236 H 0.0316 0.90648 0.12958 0.0
H237 H 0.06493 0.984 0.11177 0.0
H238 H 0.07361 0.86754 0.14912 0.0
H239 H 0.95647 0.806 0.0956 0.0
H240 H 0.93135 0.7918 0.06267 0.0
H241 H 0.00318 0.70122 0.05739 0.0
H242 H 0.02993 0.71588 0.09026 0.0
H243 H 0.92041 0.62581 0.19141 0.0
H244 H 0.9308 0.68998 0.16914 0.0
H245 H 0.0536 0.67788 0.14483 0.0
H246 H 0.04466 0.61537 0.16738 0.0
H247 H 0.97491 0.68943 0.11949 0.0
H248 H 0.10041 0.7641 0.1736 0.0
H249 H 0.1177 0.77428 0.207 0.0
H250 H 0.0181 0.83712 0.2111 0.0
H251 H 0.9994 0.82632 0.17771 0.0
C252 C 0.11056 0.92075 0.08717 0.0
C253 C 0.10098 0.95999 0.09206 0.0
C254 C 0.09228 0.87677 0.09761 0.0
C255 C 0.06278 0.87051 0.11283 0.0
C256 C 0.05411 0.91022 0.1179 0.0
C257 C 0.07323 0.9546 0.10768 0.0
C258 C 0.04119 0.8228 0.12355 0.0
C259 C 0.05133 0.82872 0.14258 0.0
C260 C 0.01206 0.7718 0.11515 0.0
C261 C 0.99563 0.76245 0.09539 0.0
C262 C 0.96726 0.78336 0.08741 0.0
C263 C 0.95268 0.77519 0.06875 0.0
C264 C 0.96563 0.74564 0.05794 0.0
C265 C 0.9932 0.72414 0.06578 0.0
C266 C 0.0081 0.73238 0.08443 0.0
C267 C 0.94825 0.63562 0.1809 0.0
C268 C 0.98179 0.61595 0.181 0.0
C269 C 0.95425 0.67224 0.16827 0.0
C270 C 0.99303 0.68854 0.15543 0.0
C271 C 0.02329 0.66547 0.15458 0.0
C272 C 0.01826 0.62998 0.16746 0.0
C273 C 0.00787 0.73479 0.14475 0.0
C274 C 0.99665 0.72848 0.12585 0.0
C275 C 0.03509 0.78537 0.15325 0.0
C276 C 0.04805 0.79387 0.17321 0.0
C277 C 0.08195 0.77979 0.18164 0.0
C278 C 0.09201 0.78568 0.20056 0.0
C279 C 0.06886 0.80616 0.21117 0.0
C280 C 0.0359 0.82115 0.20286 0.0
C281 C 0.02557 0.81516 0.18394 0.0
H282 H 0.07649 0.81044 0.22582 0.0
H283 H 0.95426 0.73936 0.04349 0.0
H284 H 0.18382 0.18391 0.44315 0.0
H285 H 0.24807 0.16774 0.45858 0.0
H286 H 0.1811 0.02241 0.42718 0.0
H287 H 0.11618 0.03787 0.41177 0.0
H288 H 0.19221 0.00945 0.46289 0.0
H289 H 0.30352 0.12567 0.41885 0.0
H290 H 0.34513 0.20543 0.40137 0.0
H291 H 0.42074 0.29921 0.45073 0.0
H292 H 0.37899 0.22007 0.46856 0.0
H293 H 0.39771 0.97794 0.50511 0.0
H294 H 0.33801 0.98361 0.48222 0.0
H295 H 0.38846 0.1371 0.5044 0.0
H296 H 0.44851 0.13232 0.52674 0.0
H297 H 0.38725 0.13803 0.4689 0.0
H298 H 0.26647 0.02437 0.51309 0.0
H299 H 0.22346 0.94567 0.53113 0.0
H300 H 0.16515 0.84835 0.48194 0.0
H301 H 0.20839 0.92653 0.46361 0.0
C302 C 0.18309 0.14881 0.43932 0.0
C303 C 0.14467 0.1122 0.42622 0.0
C304 C 0.22001 0.13967 0.44814 0.0
C305 C 0.21961 0.09399 0.44395 0.0
C306 C 0.18211 0.05789 0.43062 0.0
C307 C 0.14515 0.06697 0.42178 0.0
C308 C 0.25661 0.08289 0.45421 0.0
C309 C 0.23501 0.03707 0.46393 0.0
C310 C 0.31231 0.11921 0.45574 0.0
C311 C 0.33783 0.16691 0.44505 0.0
C312 C 0.32874 0.16332 0.426 0.0
C313 C 0.35239 0.20843 0.41602 0.0
C314 C 0.38548 0.25736 0.42494 0.0
C315 C 0.39509 0.26128 0.44385 0.0
C316 C 0.3715 0.2163 0.45389 0.0
C317 C 0.39584 0.01275 0.50508 0.0
C318 C 0.42795 0.0547 0.5177 0.0
C319 C 0.3617 0.01594 0.49203 0.0
C320 C 0.35864 0.06079 0.49161 0.0
C321 C 0.39039 0.1023 0.50433 0.0
C322 C 0.42466 0.09938 0.51717 0.0
C323 C 0.32271 0.06546 0.47808 0.0
C324 C 0.34455 0.11002 0.46766 0.0
C325 C 0.26722 0.02815 0.476 0.0
C326 C 0.24119 0.98122 0.487 0.0
C327 C 0.24482 0.98616 0.50613 0.0
C328 C 0.22034 0.94166 0.5164 0.0
C329 C 0.19174 0.89203 0.50768 0.0
C330 C 0.18742 0.88681 0.48867 0.0
C331 C 0.21188 0.93119 0.47834 0.0
H332 H 0.17281 0.85763 0.51566 0.0
H333 H 0.40375 0.29223 0.41719 0.0
H334 H 0.18584 0.16221 0.75172 0.0
H335 H 0.26983 0.22972 0.76733 0.0
H336 H 0.19689 0.31432 0.78308 0.0
H337 H 0.11205 0.24649 0.76761 0.0
H338 H 0.30411 0.37824 0.77075 0.0
H339 H 0.20464 0.2425 0.81277 0.0
H340 H 0.15572 0.15151 0.82226 0.0
H341 H 0.29445 0.14311 0.81627 0.0
H342 H 0.34395 0.23388 0.80647 0.0
H343 H 0.45358 0.5347 0.84792 0.0
H344 H 0.38949 0.47493 0.82419 0.0
H345 H 0.46943 0.39024 0.8234 0.0
H346 H 0.5336 0.44971 0.84784 0.0
H347 H 0.36662 0.32494 0.82503 0.0
H348 H 0.47065 0.46365 0.78688 0.0
H349 H 0.52071 0.55418 0.777 0.0
H350 H 0.37747 0.55742 0.7746 0.0
H351 H 0.32664 0.46716 0.78473 0.0
C352 C 0.18759 0.19542 0.75829 0.0
C353 C 0.14192 0.19867 0.75851 0.0
C354 C 0.23573 0.23394 0.76723 0.0
C355 C 0.2394 0.27671 0.77645 0.0
C356 C 0.19477 0.28151 0.77601 0.0
C357 C 0.1463 0.24264 0.76723 0.0
C358 C 0.28875 0.31464 0.78752 0.0
C359 C 0.31774 0.36687 0.7827 0.0
C360 C 0.3074 0.29916 0.80269 0.0
C361 C 0.27777 0.24473 0.80868 0.0
C362 C 0.22455 0.22109 0.81332 0.0
C363 C 0.19675 0.16959 0.81878 0.0
C364 C 0.2219 0.14149 0.81981 0.0
C365 C 0.27498 0.16489 0.81543 0.0
C366 C 0.30293 0.21636 0.80993 0.0
C367 C 0.45826 0.50388 0.84259 0.0
C368 C 0.49873 0.49692 0.84988 0.0
C369 C 0.42162 0.46984 0.82884 0.0
C370 C 0.42483 0.42833 0.82178 0.0
C371 C 0.46625 0.42213 0.82859 0.0
C372 C 0.50303 0.45625 0.84249 0.0
C373 C 0.38201 0.38928 0.80853 0.0
C374 C 0.35391 0.33657 0.81293 0.0
C375 C 0.36454 0.40434 0.79287 0.0
C376 C 0.39487 0.45865 0.78668 0.0
C377 C 0.44987 0.48376 0.78437 0.0
C378 C 0.47838 0.53503 0.77871 0.0
C379 C 0.4523 0.56156 0.7752 0.0
C380 C 0.39762 0.53682 0.77732 0.0
C381 C 0.36891 0.48556 0.783 0.0
H382 H 0.47446 0.60125 0.77082 0.0
H383 H 0.20032 0.10163 0.82405 0.0
H384 H 0.93776 0.15211 0.69525 0.0
H385 H 0.87621 0.13699 0.66927 0.0
H386 H 0.90573 0.02431 0.64545 0.0
H387 H 0.96827 0.0398 0.67135 0.0
H388 H 0.88078 0.08016 0.61901 0.0
H389 H 0.80992 0.97731 0.6711 0.0
H390 H 0.79891 0.96341 0.70393 0.0
H391 H 0.7329 0.05985 0.70645 0.0
H392 H 0.74443 0.07512 0.67368 0.0
H393 H 0.62081 0.97021 0.57052 0.0
H394 H 0.69254 0.97104 0.58928 0.0
H395 H 0.69937 0.08676 0.6263 0.0
H396 H 0.62869 0.08605 0.60783 0.0
H397 H 0.70406 0.01121 0.64414 0.0
H398 H 0.78281 0.11947 0.59213 0.0
H399 H 0.79572 0.13384 0.55936 0.0
H400 H 0.8464 0.02484 0.55638 0.0
H401 H 0.83273 0.00898 0.58906 0.0
C402 C 0.93276 0.12554 0.68418 0.0
C403 C 0.95711 0.09644 0.68553 0.0
C404 C 0.89748 0.11686 0.66935 0.0
C405 C 0.88544 0.07853 0.65571 0.0
C406 C 0.91428 0.0538 0.65591 0.0
C407 C 0.9501 0.06282 0.67073 0.0
C408 C 0.83718 0.05889 0.64324 0.0
C409 C 0.84193 0.06428 0.6244 0.0
C410 C 0.78645 0.0376 0.65031 0.0
C411 C 0.77838 0.02763 0.66995 0.0
C412 C 0.79335 0.99581 0.67868 0.0
C413 C 0.78701 0.98768 0.69728 0.0
C414 C 0.7653 0.01079 0.70728 0.0
C415 C 0.74974 0.04198 0.69869 0.0
C416 C 0.75613 0.05036 0.68009 0.0
C417 C 0.63693 0.99478 0.5829 0.0
C418 C 0.61935 0.02806 0.58777 0.0
C419 C 0.67817 0.99566 0.59347 0.0
C420 C 0.70165 0.02945 0.60906 0.0
C421 C 0.68197 0.06051 0.61432 0.0
C422 C 0.64154 0.06004 0.60376 0.0
C423 C 0.74778 0.03463 0.61994 0.0
C424 C 0.74262 0.02616 0.63861 0.0
C425 C 0.79779 0.05274 0.61261 0.0
C426 C 0.80593 0.06241 0.59298 0.0
C427 C 0.79612 0.09811 0.58445 0.0
C428 C 0.80368 0.1066 0.5659 0.0
C429 C 0.82162 0.08006 0.55579 0.0
C430 C 0.83228 0.04517 0.56422 0.0
C431 C 0.82459 0.03639 0.58274 0.0
H432 H 0.82736 0.08656 0.54145 0.0
H433 H 0.76045 0.00447 0.72168 0.0
H434 H 0.91599 0.01085 0.02354 0.0
H435 H 0.85444 0.92737 0.00686 0.0
H436 H 0.95839 0.87256 0.02161 0.0
H437 H 0.01942 0.95509 0.03875 0.0
H438 H 0.91106 0.87739 0.97822 0.0
H439 H 0.87814 0.80588 0.03929 0.0
H440 H 0.85718 0.80752 0.07128 0.0
H441 H 0.71319 0.80022 0.05344 0.0
H442 H 0.73389 0.79941 0.02137 0.0
H443 H 0.73844 0.63311 0.93124 0.0
H444 H 0.8047 0.69422 0.95491 0.0
H445 H 0.68924 0.726 0.97446 0.0
H446 H 0.62317 0.66477 0.95129 0.0
H447 H 0.74927 0.72775 0.00229 0.0
H448 H 0.77699 0.80376 0.94375 0.0
H449 H 0.79238 0.80919 0.911 0.0
H450 H 0.93927 0.81566 0.92244 0.0
H451 H 0.92446 0.80985 0.9553 0.0
C452 C 0.92543 0.98081 0.02344 0.0
C453 C 0.97257 0.98963 0.0325 0.0
C454 C 0.89027 0.93323 0.01392 0.0
C455 C 0.90199 0.89402 0.0131 0.0
C456 C 0.94862 0.90235 0.02222 0.0
C457 C 0.9833 0.94949 0.03204 0.0
C458 C 0.86655 0.84544 0.00192 0.0
C459 C 0.87634 0.84404 0.98353 0.0
C460 C 0.82052 0.80298 0.00878 0.0
C461 C 0.80794 0.80327 0.028 0.0
C462 C 0.84238 0.80526 0.04223 0.0
C463 C 0.83047 0.80586 0.06036 0.0
C464 C 0.78398 0.80414 0.06439 0.0
C465 C 0.74924 0.80166 0.0503 0.0
C466 C 0.76104 0.80109 0.03215 0.0
C467 C 0.72691 0.65213 0.9409 0.0
C468 C 0.67584 0.64465 0.93926 0.0
C469 C 0.76485 0.68729 0.95433 0.0
C470 C 0.7522 0.71542 0.96625 0.0
C471 C 0.70006 0.70496 0.96542 0.0
C472 C 0.66235 0.67007 0.95207 0.0
C473 C 0.7938 0.75915 0.97848 0.0
C474 C 0.78483 0.7602 0.99702 0.0
C475 C 0.84007 0.80189 0.97164 0.0
C476 C 0.8493 0.8057 0.95194 0.0
C477 C 0.81238 0.80597 0.93926 0.0
C478 C 0.82101 0.80916 0.92069 0.0
C479 C 0.86663 0.81249 0.91462 0.0
C480 C 0.90386 0.81292 0.92715 0.0
C481 C 0.89541 0.80973 0.94576 0.0
H482 H 0.87321 0.81491 0.90023 0.0
H483 H 0.77479 0.80459 0.07843 0.0
H484 H 0.92182 0.9354 0.32649 0.0
H485 H 0.94151 0.88068 0.30783 0.0
H486 H 0.07068 0.91299 0.34643 0.0
H487 H 0.0509 0.96725 0.36531 0.0
H488 H 0.09582 0.92193 0.30839 0.0
H489 H 0.96474 0.80167 0.34816 0.0
H490 H 0.87911 0.75983 0.36271 0.0
H491 H 0.79408 0.70702 0.31022 0.0
H492 H 0.87925 0.74921 0.29534 0.0
H493 H 0.13018 0.71977 0.27197 0.0
H494 H 0.12207 0.78158 0.29148 0.0
H495 H 0.97028 0.73249 0.26345 0.0
H496 H 0.9774 0.6701 0.24452 0.0
H497 H 0.96048 0.7329 0.29802 0.0
H498 H 0.08595 0.85371 0.25759 0.0
H499 H 0.16897 0.89683 0.24147 0.0
H500 H 0.26147 0.9505 0.29265 0.0
H501 H 0.17892 0.90702 0.30908 0.0
C502 C 0.95437 0.93083 0.33103 0.0
C503 C 0.98458 0.95541 0.34743 0.0
C504 C 0.96557 0.8996 0.32035 0.0
C505 C 0.0075 0.89281 0.32579 0.0
C506 C 0.03825 0.91787 0.342 0.0
C507 C 0.02662 0.94855 0.35282 0.0
C508 C 0.01824 0.85844 0.31472 0.0
C509 C 0.06666 0.88044 0.30629 0.0
C510 C 0.97962 0.80465 0.3117 0.0
C511 C 0.92837 0.77901 0.32064 0.0
C512 C 0.92778 0.78151 0.33972 0.0
C513 C 0.87933 0.75765 0.34803 0.0
C514 C 0.83118 0.73089 0.3374 0.0
C515 C 0.8314 0.72781 0.31844 0.0
C516 C 0.87975 0.75164 0.31006 0.0
C517 C 0.09541 0.72265 0.26993 0.0
C518 C 0.05415 0.68972 0.2569 0.0
C519 C 0.09083 0.75804 0.28102 0.0
C520 C 0.04544 0.76168 0.27896 0.0
C521 C 0.00535 0.73006 0.26547 0.0
C522 C 0.00952 0.69439 0.25464 0.0
C523 C 0.03785 0.79633 0.2913 0.0
C524 C 0.98995 0.77434 0.30009 0.0
C525 C 0.07663 0.85023 0.29437 0.0
C526 C 0.12631 0.87659 0.28456 0.0
C527 C 0.12402 0.87432 0.2654 0.0
C528 C 0.17097 0.89889 0.25621 0.0
C529 C 0.22048 0.92624 0.26603 0.0
C530 C 0.2231 0.92921 0.28506 0.0
C531 C 0.17624 0.90464 0.29432 0.0
H532 H 0.2568 0.94525 0.25889 0.0
H533 H 0.79371 0.71244 0.34386 0.0
H534 H 0.19117 0.10398 0.70291 0.0
H535 H 0.2672 0.12549 0.68512 0.0
H536 H 0.18432 0.96705 0.66275 0.0
H537 H 0.10786 0.94503 0.68053 0.0
H538 H 0.29126 0.0065 0.67327 0.0
H539 H 0.18665 0.05932 0.6382 0.0
H540 H 0.14108 0.10716 0.63343 0.0
H541 H 0.28931 0.2528 0.64512 0.0
H542 H 0.33564 0.20572 0.65021 0.0
H543 H 0.41426 0.01717 0.59361 0.0
H544 H 0.35413 0.00811 0.61657 0.0
H545 H 0.44958 0.17405 0.62931 0.0
H546 H 0.51014 0.18379 0.60584 0.0
H547 H 0.34527 0.13965 0.62664 0.0
H548 H 0.45232 0.08884 0.65863 0.0
H549 H 0.499 0.04218 0.66362 0.0
H550 H 0.34936 0.89527 0.65867 0.0
H551 H 0.30179 0.94099 0.65337 0.0
C552 C 0.18912 0.07354 0.6943 0.0
C553 C 0.14326 0.02278 0.69307 0.0
C554 C 0.23261 0.08601 0.6841 0.0
C555 C 0.23115 0.048 0.6725 0.0
C556 C 0.18615 0.99695 0.67162 0.0
C557 C 0.14245 0.98448 0.68174 0.0
C558 C 0.27594 0.0617 0.6609 0.0
C559 C 0.30287 0.0353 0.66297 0.0
C560 C 0.29225 0.10066 0.64794 0.0
C561 C 0.26447 0.12897 0.64479 0.0
C562 C 0.20943 0.10152 0.63991 0.0
C563 C 0.18349 0.1285 0.63712 0.0
C564 C 0.21225 0.18298 0.63903 0.0
C565 C 0.26706 0.2106 0.64368 0.0
C566 C 0.29319 0.18379 0.64651 0.0
C567 C 0.4229 0.05191 0.6013 0.0
C568 C 0.46726 0.10127 0.5979 0.0
C569 C 0.38849 0.04654 0.61455 0.0
C570 C 0.39781 0.09022 0.62491 0.0
C571 C 0.44185 0.13974 0.62154 0.0
C572 C 0.47643 0.14524 0.60817 0.0
C573 C 0.36002 0.08364 0.63872 0.0
C574 C 0.33432 0.11137 0.6371 0.0
C575 C 0.3451 0.04614 0.6522 0.0
C576 C 0.3735 0.01839 0.65548 0.0
C577 C 0.42937 0.04656 0.65848 0.0
C578 C 0.456 0.02028 0.66138 0.0
C579 C 0.42717 0.96579 0.66144 0.0
C580 C 0.37164 0.93748 0.65862 0.0
C581 C 0.34481 0.96357 0.65569 0.0
H582 H 0.44786 0.94552 0.66369 0.0
H583 H 0.19209 0.2038 0.63686 0.0
H584 H 0.15343 0.23241 0.02782 0.0
H585 H 0.19822 0.28921 0.00324 0.0
H586 H 0.26769 0.19927 0.99014 0.0
H587 H 0.22329 0.1422 0.0152 0.0
H588 H 0.34137 0.2997 0.9933 0.0
H589 H 0.17056 0.19873 0.96127 0.0
H590 H 0.07299 0.15582 0.95653 0.0
H591 H 0.08769 0.3046 0.9618 0.0
H592 H 0.18533 0.34839 0.96683 0.0
H593 H 0.4608 0.43608 0.91641 0.0
H594 H 0.39836 0.36626 0.93485 0.0
H595 H 0.34082 0.46232 0.95353 0.0
H596 H 0.40351 0.53311 0.93475 0.0
H597 H 0.25921 0.35624 0.94622 0.0
H598 H 0.42942 0.45572 0.97996 0.0
H599 H 0.52703 0.49834 0.98445 0.0
H600 H 0.51236 0.35041 0.97574 0.0
H601 H 0.41466 0.30699 0.97092 0.0
C602 C 0.17727 0.22379 0.01952 0.0
C603 C 0.18468 0.18259 0.02347 0.0
C604 C 0.20277 0.25637 0.00537 0.0
C605 C 0.23587 0.24825 0.99468 0.0
C606 C 0.24214 0.20614 0.99819 0.0
C607 C 0.21668 0.17349 0.01247 0.0
C608 C 0.26754 0.28669 0.98105 0.0
C609 C 0.3232 0.3112 0.98278 0.0
C610 C 0.24403 0.30299 0.96768 0.0
C611 C 0.18529 0.27681 0.96457 0.0
C612 C 0.15298 0.22228 0.96155 0.0
C613 C 0.09765 0.1978 0.95879 0.0
C614 C 0.07415 0.22745 0.9589 0.0
C615 C 0.10595 0.28168 0.96173 0.0
C616 C 0.1613 0.30636 0.96451 0.0
C617 C 0.43475 0.44253 0.92433 0.0
C618 C 0.4377 0.49054 0.92434 0.0
C619 C 0.39899 0.40242 0.93485 0.0
C620 C 0.36569 0.40946 0.94579 0.0
C621 C 0.36646 0.4563 0.94521 0.0
C622 C 0.4023 0.49668 0.93454 0.0
C623 C 0.33266 0.36881 0.95853 0.0
C624 C 0.27702 0.34421 0.95668 0.0
C625 C 0.35606 0.35224 0.97181 0.0
C626 C 0.41477 0.37819 0.97492 0.0
C627 C 0.44704 0.43233 0.97888 0.0
C628 C 0.50237 0.45663 0.9815 0.0
C629 C 0.52589 0.42712 0.98034 0.0
C630 C 0.49409 0.37322 0.97661 0.0
C631 C 0.43873 0.34874 0.97395 0.0
H632 H 0.56874 0.44601 0.98237 0.0
H633 H 0.0313 0.20842 0.95676 0.0
H634 H 0.00045 0.13685 0.33927 0.0
H635 H 0.98964 0.18749 0.31587 0.0
H636 H 0.10731 0.33028 0.34562 0.0
H637 H 0.11709 0.27982 0.36932 0.0
H638 H 0.01747 0.32626 0.3411 0.0
H639 H 0.12398 0.29589 0.30192 0.0
H640 H 0.15221 0.24564 0.28434 0.0
H641 H 0.00116 0.16552 0.25346 0.0
H642 H 0.97162 0.21461 0.27109 0.0
H643 H 0.04861 0.51583 0.27986 0.0
H644 H 0.05561 0.45584 0.29982 0.0
H645 H 0.92123 0.32496 0.26971 0.0
H646 H 0.91394 0.3854 0.24955 0.0
H647 H 0.01027 0.31637 0.27364 0.0
H648 H 0.9068 0.35141 0.31221 0.0
H649 H 0.88223 0.40612 0.3289 0.0
H650 H 0.03215 0.48099 0.36042 0.0
H651 H 0.05796 0.42726 0.34374 0.0
C652 C 0.0256 0.17905 0.34048 0.0
C653 C 0.0591 0.20437 0.35628 0.0
C654 C 0.01926 0.20803 0.32707 0.0
C655 C 0.0471 0.26274 0.32909 0.0
C656 C 0.08485 0.28808 0.34388 0.0
C657 C 0.09069 0.2592 0.35738 0.0
C658 C 0.03154 0.29303 0.31752 0.0
C659 C 0.01678 0.32462 0.32634 0.0
C660 C 0.02822 0.28919 0.29824 0.0
C661 C 0.04533 0.25848 0.28801 0.0
C662 C 0.09649 0.26705 0.29156 0.0
C663 C 0.11279 0.23887 0.28154 0.0
C664 C 0.07843 0.20227 0.26784 0.0
C665 C 0.02767 0.19374 0.26413 0.0
C666 C 0.01111 0.2217 0.27414 0.0
C667 C 0.01969 0.47432 0.27776 0.0
C668 C 0.98057 0.4552 0.26323 0.0
C669 C 0.02374 0.44008 0.28917 0.0
C670 C 0.98888 0.38597 0.28627 0.0
C671 C 0.94841 0.36665 0.27218 0.0
C672 C 0.94393 0.40112 0.26082 0.0
C673 C 0.99775 0.35027 0.29727 0.0
C674 C 0.01086 0.31755 0.28838 0.0
C675 C 0.99994 0.35322 0.3165 0.0
C676 C 0.98445 0.3855 0.32662 0.0
C677 C 0.9347 0.37981 0.32261 0.0
C678 C 0.92052 0.4106 0.33209 0.0
C679 C 0.95564 0.44707 0.34569 0.0
C680 C 0.00498 0.45274 0.34987 0.0
C681 C 0.01938 0.42206 0.34043 0.0
H682 H 0.94459 0.47088 0.35301 0.0
H683 H 0.0912 0.18064 0.26006 0.0
loop_
_geom_bond_atom_site_label_1
_geom_bond_atom_site_label_2
_geom_bond_distance
_geom_bond_site_symmetry_2
_ccdc_geom_bond_type
Mg0 O1 2.028 . S
Mg0 O7 1.986 . S
Mg0 O9 2.114 . S
Mg0 O10 2.251 . S
Mg0 O13 2.010 . S
O1 Mg0 2.028 . S
O1 C4 1.250 . S
O2 Mg3 2.028 . S
O2 C4 1.248 . S
Mg3 O2 2.028 . S
Mg3 O8 2.032 . S
Mg3 O10 2.079 . S
C4 O1 1.250 . S
C4 O2 1.248 . S
C5 O6 1.264 . S
C5 O13 1.249 . S
O6 C5 1.264 . S
O7 Mg0 1.986 . S
O7 C11 1.246 . S
O8 Mg3 2.032 . S
O8 C11 1.259 . S
O9 Mg0 2.114 . S
O9 C12 1.252 . S
O10 Mg0 2.251 . S
O10 Mg3 2.079 . S
O10 C12 1.273 . S
C11 O7 1.246 . S
C11 O8 1.259 . S
C12 O9 1.252 . S
C12 O10 1.273 . S
O13 Mg0 2.010 . S
O13 C5 1.249 . S
Mg14 O15 2.028 1_655 S
Mg14 O21 1.986 1_655 S
Mg14 O23 2.114 . S
Mg14 O24 2.251 . S
Mg14 O27 2.010 1_545 S
O15 Mg14 2.028 1_455 S
O15 C18 1.250 . S
O16 Mg17 2.028 . S
O16 C18 1.248 . S
Mg17 O16 2.028 . S
Mg17 O22 2.032 . S
Mg17 O24 2.079 1_455 S
C18 O15 1.250 . S
C18 O16 1.248 . S
C19 O20 1.264 . S
C19 O27 1.249 . S
O20 C19 1.264 . S
O21 Mg14 1.986 1_455 S
O21 C25 1.246 . S
O22 Mg17 2.032 . S
O22 C25 1.259 . S
O23 Mg14 2.114 . S
O23 C26 1.252 . S
O24 Mg14 2.251 . S
O24 Mg17 2.079 1_655 S
O24 C26 1.273 . S
C25 O21 1.246 . S
C25 O22 1.259 . S
C26 O23 1.252 . S
C26 O24 1.273 . S
O27 Mg14 2.010 1_565 S
O27 C19 1.249 . S
Mg28 O29 2.028 . S
Mg28 O35 1.986 . S
Mg28 O37 2.114 1_545 S
Mg28 O38 2.251 1_455 S
Mg28 O41 2.010 . S
O29 Mg28 2.028 . S
O29 C32 1.250 . S
O30 Mg31 2.028 1_455 S
O30 C32 1.248 . S
Mg31 O30 2.028 1_655 S
Mg31 O36 2.032 . S
Mg31 O38 2.079 . S
C32 O29 1.250 . S
C32 O30 1.248 . S
C33 O34 1.264 1_545 S
C33 O41 1.249 . S
O34 C33 1.264 1_565 S
O35 Mg28 1.986 . S
O35 C39 1.246 1_455 S
O36 Mg31 2.032 . S
O36 C39 1.259 . S
O37 Mg28 2.114 1_565 S
O37 C40 1.252 1_455 S
O38 Mg28 2.251 1_655 S
O38 Mg31 2.079 . S
O38 C40 1.273 1_545 S
C39 O35 1.246 1_655 S
C39 O36 1.259 . S
C40 O37 1.252 1_655 S
C40 O38 1.273 1_565 S
O41 Mg28 2.010 . S
O41 C33 1.249 . S
C42 O44 1.247 . S
C42 O46 1.258 . S
C43 O50 1.247 . S
C43 O51 1.258 . S
O44 C42 1.247 . S
O44 Zn45 2.028 . S
Zn45 O44 2.028 . S
Zn45 O49 2.035 . S
Zn45 O51 2.035 . S
Zn45 O52 2.028 . S
O46 C42 1.258 . S
O46 Zn47 2.035 1_455 S
Zn47 O46 2.035 1_655 S
Zn47 O48 2.028 1_655 S
Zn47 O50 2.028 1_655 S
Zn47 O53 2.035 1_655 S
O48 Zn47 2.028 1_455 S
O48 C54 1.247 . S
O49 Zn45 2.035 . S
O49 C54 1.258 . S
O50 C43 1.247 . S
O50 Zn47 2.028 1_455 S
O51 C43 1.258 . S
O51 Zn45 2.035 . S
O52 Zn45 2.028 . S
O52 C55 1.247 . S
O53 Zn47 2.035 1_455 S
O53 C55 1.258 . S
C54 O48 1.247 . S
C54 O49 1.258 . S
C55 O52 1.247 . S
C55 O53 1.258 . S
C56 O58 1.247 . S
C56 O60 1.258 . S
C57 O64 1.247 . S
C57 O65 1.258 . S
O58 C56 1.247 . S
O58 Zn59 2.028 . S
Zn59 O58 2.028 . S
Zn59 O63 2.035 . S
Zn59 O65 2.035 . S
Zn59 O66 2.028 . S
O60 C56 1.258 . S
O60 Zn61 2.035 . S
Zn61 O60 2.035 . S
Zn61 O62 2.028 . S
Zn61 O64 2.028 . S
Zn61 O67 2.035 . S
O62 Zn61 2.028 . S
O62 C68 1.247 . S
O63 Zn59 2.035 . S
O63 C68 1.258 . S
O64 C57 1.247 . S
O64 Zn61 2.028 . S
O65 C57 1.258 . S
O65 Zn59 2.035 . S
O66 Zn59 2.028 . S
O66 C69 1.247 . S
O67 Zn61 2.035 . S
O67 C69 1.258 . S
C68 O62 1.247 . S
C68 O63 1.258 . S
C69 O66 1.247 . S
C69 O67 1.258 . S
C70 O72 1.247 . S
C70 O74 1.258 . S
C71 O78 1.247 . S
C71 O79 1.258 . S
O72 C70 1.247 . S
O72 Zn73 2.028 . S
Zn73 O72 2.028 . S
Zn73 O77 2.035 . S
Zn73 O79 2.035 . S
Zn73 O80 2.028 . S
O74 C70 1.258 . S
O74 Zn75 2.035 . S
Zn75 O74 2.035 . S
Zn75 O76 2.028 . S
Zn75 O78 2.028 . S
Zn75 O81 2.035 . S
O76 Zn75 2.028 . S
O76 C82 1.247 . S
O77 Zn73 2.035 . S
O77 C82 1.258 . S
O78 C71 1.247 . S
O78 Zn75 2.028 . S
O79 C71 1.258 . S
O79 Zn73 2.035 . S
O80 Zn73 2.028 . S
O80 C83 1.247 . S
O81 Zn75 2.035 . S
O81 C83 1.258 . S
C82 O76 1.247 . S
C82 O77 1.258 . S
C83 O80 1.247 . S
C83 O81 1.258 . S
H84 C102 0.951 1_655 S
H85 C104 0.951 1_655 S
H86 C106 0.950 . S
H87 C107 0.950 . S
H88 C109 0.950 . S
H89 C112 0.950 . S
H90 C113 0.950 . S
H91 C115 0.950 . S
H92 C116 0.950 . S
H93 C117 0.951 . S
H94 C119 0.951 . S
H95 C121 0.950 1_655 S
H96 C122 0.950 1_655 S
H97 C124 0.950 . S
H98 C127 0.950 . S
H99 C128 0.950 . S
H100 C130 0.950 . S
H101 C131 0.950 . S
C102 H84 0.951 1_455 S
C102 C103 1.366 . S
C102 C104 1.388 . S
C103 C102 1.366 . S
C103 C107 1.385 . S
C104 H85 0.951 1_455 S
C104 C102 1.388 . S
C104 C105 1.366 . S
C105 C104 1.366 . S
C105 C106 1.414 . S
C105 C108 1.499 . S
C106 H86 0.950 . S
C106 C105 1.414 . S
C106 C107 1.374 . S
C107 H87 0.950 . S
C107 C103 1.385 . S
C107 C106 1.374 . S
C108 C105 1.499 . S
C108 C109 1.373 . S
C108 C110 1.389 . S
C109 H88 0.950 . S
C109 C108 1.373 . S
C109 C125 1.377 . S
C110 C108 1.389 . S
C110 C111 1.524 . S
C110 C124 1.377 . S
C111 C110 1.524 . S
C111 C112 1.397 . S
C111 C116 1.363 1_455 S
C112 H89 0.950 . S
C112 C111 1.397 . S
C112 C113 1.334 . S
C113 H90 0.950 . S
C113 C112 1.334 . S
C113 C114 1.287 . S
C114 C113 1.287 . S
C114 C115 1.524 1_455 S
C114 H133 0.913 1_455 S
C115 H91 0.950 . S
C115 C114 1.524 1_655 S
C115 C116 1.415 . S
C116 H92 0.950 . S
C116 C111 1.363 1_655 S
C116 C115 1.415 . S
C117 H93 0.951 . S
C117 C118 1.366 . S
C117 C119 1.388 . S
C118 C117 1.366 . S
C118 C122 1.385 . S
C119 H94 0.951 . S
C119 C117 1.388 . S
C119 C120 1.366 . S
C120 C119 1.366 . S
C120 C121 1.414 . S
C120 C123 1.499 . S
C121 H95 0.950 1_455 S
C121 C120 1.414 . S
C121 C122 1.374 . S
C122 H96 0.950 1_455 S
C122 C118 1.385 . S
C122 C121 1.374 . S
C123 C120 1.499 . S
C123 C124 1.373 . S
C123 C125 1.389 . S
C124 H97 0.950 . S
C124 C110 1.377 . S
C124 C123 1.373 . S
C125 C109 1.377 . S
C125 C123 1.389 . S
C125 C126 1.524 . S
C126 C125 1.524 . S
C126 C127 1.397 . S
C126 C131 1.363 . S
C127 H98 0.950 . S
C127 C126 1.397 . S
C127 C128 1.334 . S
C128 H99 0.950 . S
C128 C127 1.334 . S
C128 C129 1.287 . S
C129 C128 1.287 . S
C129 C130 1.524 . S
C129 H132 0.999 . S
C130 H100 0.950 . S
C130 C129 1.524 . S
C130 C131 1.415 . S
C131 H101 0.950 . S
C131 C126 1.363 . S
C131 C130 1.415 . S
H132 C129 0.999 . S
H133 C114 0.913 1_655 S
H134 C152 0.951 . S
H135 C154 0.951 . S
H136 C156 0.950 1_565 S
H137 C157 0.950 1_565 S
H138 C159 0.950 . S
H139 C162 0.950 1_565 S
H140 C163 0.950 1_565 S
H141 C165 0.950 . S
H142 C166 0.950 . S
H143 C167 0.951 . S
H144 C169 0.951 . S
H145 C171 0.950 . S
H146 C172 0.950 . S
H147 C174 0.950 . S
H148 C177 0.950 . S
H149 C178 0.950 . S
H150 C180 0.950 . S
H151 C181 0.950 . S
C152 H134 0.951 . S
C152 C153 1.366 . S
C152 C154 1.388 . S
C153 C152 1.366 . S
C153 C157 1.385 . S
C154 H135 0.951 . S
C154 C152 1.388 . S
C154 C155 1.366 . S
C155 C154 1.366 . S
C155 C156 1.414 . S
C155 C158 1.499 . S
C156 H136 0.950 1_545 S
C156 C155 1.414 . S
C156 C157 1.374 . S
C157 H137 0.950 1_545 S
C157 C153 1.385 . S
C157 C156 1.374 . S
C158 C155 1.499 . S
C158 C159 1.373 . S
C158 C160 1.389 . S
C159 H138 0.950 . S
C159 C158 1.373 . S
C159 C175 1.377 . S
C160 C158 1.389 . S
C160 C161 1.524 . S
C160 C174 1.377 . S
C161 C160 1.524 . S
C161 C162 1.397 . S
C161 C166 1.363 . S
C162 H139 0.950 1_545 S
C162 C161 1.397 . S
C162 C163 1.334 . S
C163 H140 0.950 1_545 S
C163 C162 1.334 . S
C163 C164 1.287 . S
C164 C163 1.287 . S
C164 C165 1.524 . S
C164 H183 0.913 . S
C165 H141 0.950 . S
C165 C164 1.524 . S
C165 C166 1.415 . S
C166 H142 0.950 . S
C166 C161 1.363 . S
C166 C165 1.415 . S
C167 H143 0.951 . S
C167 C168 1.366 . S
C167 C169 1.388 . S
C168 C167 1.366 . S
C168 C172 1.385 . S
C169 H144 0.951 . S
C169 C167 1.388 . S
C169 C170 1.366 . S
C170 C169 1.366 . S
C170 C171 1.414 . S
C170 C173 1.499 . S
C171 H145 0.950 . S
C171 C170 1.414 . S
C171 C172 1.374 . S
C172 H146 0.950 . S
C172 C168 1.385 . S
C172 C171 1.374 . S
C173 C170 1.499 . S
C173 C174 1.373 . S
C173 C175 1.389 . S
C174 H147 0.950 . S
C174 C160 1.377 . S
C174 C173 1.373 . S
C175 C159 1.377 . S
C175 C173 1.389 . S
C175 C176 1.524 . S
C176 C175 1.524 . S
C176 C177 1.397 . S
C176 C181 1.363 . S
C177 H148 0.950 . S
C177 C176 1.397 . S
C177 C178 1.334 . S
C178 H149 0.950 . S
C178 C177 1.334 . S
C178 C179 1.287 . S
C179 C178 1.287 . S
C179 C180 1.524 . S
C179 H182 0.999 . S
C180 H150 0.950 . S
C180 C179 1.524 . S
C180 C181 1.415 . S
C181 H151 0.950 . S
C181 C176 1.363 . S
C181 C180 1.415 . S
H182 C179 0.999 . S
H183 C164 0.913 . S
H184 C202 0.951 . S
H185 C204 0.951 . S
H186 C206 0.950 . S
H187 C207 0.950 1_455 S
H188 C209 0.950 . S
H189 C212 0.950 . S
H190 C213 0.950 . S
H191 C215 0.950 . S
H192 C216 0.950 . S
H193 C217 0.951 . S
H194 C219 0.951 . S
H195 C221 0.950 . S
H196 C222 0.950 . S
H197 C224 0.950 . S
H198 C227 0.950 . S
H199 C228 0.950 . S
H200 C230 0.950 . S
H201 C231 0.950 . S
C202 H184 0.951 . S
C202 C203 1.366 . S
C202 C204 1.388 . S
C203 C202 1.366 . S
C203 C207 1.385 . S
C204 H185 0.951 . S
C204 C202 1.388 . S
C204 C205 1.366 . S
C205 C204 1.366 . S
C205 C206 1.414 . S
C205 C208 1.499 . S
C206 H186 0.950 . S
C206 C205 1.414 . S
C206 C207 1.374 . S
C207 H187 0.950 1_655 S
C207 C203 1.385 . S
C207 C206 1.374 . S
C208 C205 1.499 . S
C208 C209 1.373 . S
C208 C210 1.389 . S
C209 H188 0.950 . S
C209 C208 1.373 . S
C209 C225 1.377 . S
C210 C208 1.389 . S
C210 C211 1.524 . S
C210 C224 1.377 . S
C211 C210 1.524 . S
C211 C212 1.397 . S
C211 C216 1.363 . S
C212 H189 0.950 . S
C212 C211 1.397 . S
C212 C213 1.334 . S
C213 H190 0.950 . S
C213 C212 1.334 . S
C213 C214 1.287 . S
C214 C213 1.287 . S
C214 C215 1.524 . S
C214 H233 0.913 . S
C215 H191 0.950 . S
C215 C214 1.524 . S
C215 C216 1.415 . S
C216 H192 0.950 . S
C216 C211 1.363 . S
C216 C215 1.415 . S
C217 H193 0.951 . S
C217 C218 1.366 . S
C217 C219 1.388 . S
C218 C217 1.366 . S
C218 C222 1.385 . S
C219 H194 0.951 . S
C219 C217 1.388 . S
C219 C220 1.366 . S
C220 C219 1.366 . S
C220 C221 1.414 . S
C220 C223 1.499 . S
C221 H195 0.950 . S
C221 C220 1.414 . S
C221 C222 1.374 . S
C222 H196 0.950 . S
C222 C218 1.385 . S
C222 C221 1.374 . S
C223 C220 1.499 . S
C223 C224 1.373 . S
C223 C225 1.389 . S
C224 H197 0.950 . S
C224 C210 1.377 . S
C224 C223 1.373 . S
C225 C209 1.377 . S
C225 C223 1.389 . S
C225 C226 1.524 . S
C226 C225 1.524 . S
C226 C227 1.397 . S
C226 C231 1.363 . S
C227 H198 0.950 . S
C227 C226 1.397 . S
C227 C228 1.334 . S
C228 H199 0.950 . S
C228 C227 1.334 . S
C228 C229 1.287 . S
C229 C228 1.287 . S
C229 C230 1.524 . S
C229 H232 0.999 . S
C230 H200 0.950 . S
C230 C229 1.524 . S
C230 C231 1.415 . S
C231 H201 0.950 . S
C231 C226 1.363 . S
C231 C230 1.415 . S
H232 C229 0.999 . S
H233 C214 0.913 . S
H234 C252 0.951 . S
H235 C254 0.951 . S
H236 C256 0.950 . S
H237 C257 0.950 . S
H238 C259 0.950 . S
H239 C262 0.950 . S
H240 C263 0.950 1_655 S
H241 C265 0.950 . S
H242 C266 0.950 . S
H243 C267 0.951 . S
H244 C269 0.951 . S
H245 C271 0.950 . S
H246 C272 0.950 . S
H247 C274 0.950 . S
H248 C277 0.950 . S
H249 C278 0.950 . S
H250 C280 0.950 . S
H251 C281 0.950 . S
C252 H234 0.951 . S
C252 C253 1.366 . S
C252 C254 1.388 . S
C253 C252 1.366 . S
C253 C257 1.385 . S
C254 H235 0.951 . S
C254 C252 1.388 . S
C254 C255 1.366 . S
C255 C254 1.366 . S
C255 C256 1.414 . S
C255 C258 1.499 . S
C256 H236 0.950 . S
C256 C255 1.414 . S
C256 C257 1.374 . S
C257 H237 0.950 . S
C257 C253 1.385 . S
C257 C256 1.374 . S
C258 C255 1.499 . S
C258 C259 1.373 . S
C258 C260 1.389 . S
C259 H238 0.950 . S
C259 C258 1.373 . S
C259 C275 1.377 . S
C260 C258 1.389 . S
C260 C261 1.524 . S
C260 C274 1.377 . S
C261 C260 1.524 . S
C261 C262 1.397 . S
C261 C266 1.363 . S
C262 H239 0.950 . S
C262 C261 1.397 . S
C262 C263 1.334 . S
C263 H240 0.950 1_455 S
C263 C262 1.334 . S
C263 C264 1.287 . S
C264 C263 1.287 . S
C264 C265 1.524 . S
C264 H283 0.913 . S
C265 H241 0.950 . S
C265 C264 1.524 . S
C265 C266 1.415 . S
C266 H242 0.950 . S
C266 C261 1.363 . S
C266 C265 1.415 . S
C267 H243 0.951 . S
C267 C268 1.366 . S
C267 C269 1.388 . S
C268 C267 1.366 . S
C268 C272 1.385 . S
C269 H244 0.951 . S
C269 C267 1.388 . S
C269 C270 1.366 . S
C270 C269 1.366 . S
C270 C271 1.414 . S
C270 C273 1.499 . S
C271 H245 0.950 . S
C271 C270 1.414 . S
C271 C272 1.374 . S
C272 H246 0.950 . S
C272 C268 1.385 . S
C272 C271 1.374 . S
C273 C270 1.499 . S
C273 C274 1.373 . S
C273 C275 1.389 . S
C274 H247 0.950 . S
C274 C260 1.377 . S
C274 C273 1.373 . S
C275 C259 1.377 . S
C275 C273 1.389 . S
C275 C276 1.524 . S
C276 C275 1.524 . S
C276 C277 1.397 . S
C276 C281 1.363 . S
C277 H248 0.950 . S
C277 C276 1.397 . S
C277 C278 1.334 . S
C278 H249 0.950 . S
C278 C277 1.334 . S
C278 C279 1.287 . S
C279 C278 1.287 . S
C279 C280 1.524 . S
C279 H282 0.999 . S
C280 H250 0.950 . S
C280 C279 1.524 . S
C280 C281 1.415 . S
C281 H251 0.950 . S
C281 C276 1.363 . S
C281 C280 1.415 . S
H282 C279 0.999 . S
H283 C264 0.913 . S
H284 C302 0.951 . S
H285 C304 0.951 . S
H286 C306 0.950 . S
H287 C307 0.950 . S
H288 C309 0.950 . S
H289 C312 0.950 . S
H290 C313 0.950 . S
H291 C315 0.950 . S
H292 C316 0.950 . S
H293 C317 0.951 . S
H294 C319 0.951 . S
H295 C321 0.950 . S
H296 C322 0.950 . S
H297 C324 0.950 . S
H298 C327 0.950 . S
H299 C328 0.950 . S
H300 C330 0.950 . S
H301 C331 0.950 1_545 S
C302 H284 0.951 . S
C302 C303 1.366 . S
C302 C304 1.388 . S
C303 C302 1.366 . S
C303 C307 1.385 . S
C304 H285 0.951 . S
C304 C302 1.388 . S
C304 C305 1.366 . S
C305 C304 1.366 . S
C305 C306 1.414 . S
C305 C308 1.499 . S
C306 H286 0.950 . S
C306 C305 1.414 . S
C306 C307 1.374 . S
C307 H287 0.950 . S
C307 C303 1.385 . S
C307 C306 1.374 . S
C308 C305 1.499 . S
C308 C309 1.373 . S
C308 C310 1.389 . S
C309 H288 0.950 . S
C309 C308 1.373 . S
C309 C325 1.377 . S
C310 C308 1.389 . S
C310 C311 1.524 . S
C310 C324 1.377 . S
C311 C310 1.524 . S
C311 C312 1.397 . S
C311 C316 1.363 . S
C312 H289 0.950 . S
C312 C311 1.397 . S
C312 C313 1.334 . S
C313 H290 0.950 . S
C313 C312 1.334 . S
C313 C314 1.287 . S
C314 C313 1.287 . S
C314 C315 1.524 . S
C314 H333 0.913 . S
C315 H291 0.950 . S
C315 C314 1.524 . S
C315 C316 1.415 . S
C316 H292 0.950 . S
C316 C311 1.363 . S
C316 C315 1.415 . S
C317 H293 0.951 . S
C317 C318 1.366 . S
C317 C319 1.388 . S
C318 C317 1.366 . S
C318 C322 1.385 . S
C319 H294 0.951 . S
C319 C317 1.388 . S
C319 C320 1.366 . S
C320 C319 1.366 . S
C320 C321 1.414 . S
C320 C323 1.499 . S
C321 H295 0.950 . S
C321 C320 1.414 . S
C321 C322 1.374 . S
C322 H296 0.950 . S
C322 C318 1.385 . S
C322 C321 1.374 . S
C323 C320 1.499 . S
C323 C324 1.373 . S
C323 C325 1.389 . S
C324 H297 0.950 . S
C324 C310 1.377 . S
C324 C323 1.373 . S
C325 C309 1.377 . S
C325 C323 1.389 . S
C325 C326 1.524 . S
C326 C325 1.524 . S
C326 C327 1.397 1_545 S
C326 C331 1.363 1_545 S
C327 H298 0.950 . S
C327 C326 1.397 1_565 S
C327 C328 1.334 . S
C328 H299 0.950 . S
C328 C327 1.334 . S
C328 C329 1.287 . S
C329 C328 1.287 . S
C329 C330 1.524 . S
C329 H332 0.999 . S
C330 H300 0.950 . S
C330 C329 1.524 . S
C330 C331 1.415 . S
C331 H301 0.950 1_565 S
C331 C326 1.363 1_565 S
C331 C330 1.415 . S
H332 C329 0.999 . S
H333 C314 0.913 . S
H334 C352 0.951 . S
H335 C354 0.951 . S
H336 C356 0.950 . S
H337 C357 0.950 . S
H338 C359 0.950 . S
H339 C362 0.950 . S
H340 C363 0.950 . S
H341 C365 0.950 . S
H342 C366 0.950 . S
H343 C367 0.951 . S
H344 C369 0.951 . S
H345 C371 0.950 . S
H346 C372 0.950 . S
H347 C374 0.950 . S
H348 C377 0.950 . S
H349 C378 0.950 . S
H350 C380 0.950 . S
H351 C381 0.950 . S
C352 H334 0.951 . S
C352 C353 1.366 . S
C352 C354 1.388 . S
C353 C352 1.366 . S
C353 C357 1.385 . S
C354 H335 0.951 . S
C354 C352 1.388 . S
C354 C355 1.366 . S
C355 C354 1.366 . S
C355 C356 1.414 . S
C355 C358 1.499 . S
C356 H336 0.950 . S
C356 C355 1.414 . S
C356 C357 1.374 . S
C357 H337 0.950 . S
C357 C353 1.385 . S
C357 C356 1.374 . S
C358 C355 1.499 . S
C358 C359 1.373 . S
C358 C360 1.389 . S
C359 H338 0.950 . S
C359 C358 1.373 . S
C359 C375 1.377 . S
C360 C358 1.389 . S
C360 C361 1.524 . S
C360 C374 1.377 . S
C361 C360 1.524 . S
C361 C362 1.397 . S
C361 C366 1.363 . S
C362 H339 0.950 . S
C362 C361 1.397 . S
C362 C363 1.334 . S
C363 H340 0.950 . S
C363 C362 1.334 . S
C363 C364 1.287 . S
C364 C363 1.287 . S
C364 C365 1.524 . S
C364 H383 0.913 . S
C365 H341 0.950 . S
C365 C364 1.524 . S
C365 C366 1.415 . S
C366 H342 0.950 . S
C366 C361 1.363 . S
C366 C365 1.415 . S
C367 H343 0.951 . S
C367 C368 1.366 . S
C367 C369 1.388 . S
C368 C367 1.366 . S
C368 C372 1.385 . S
C369 H344 0.951 . S
C369 C367 1.388 . S
C369 C370 1.366 . S
C370 C369 1.366 . S
C370 C371 1.414 . S
C370 C373 1.499 . S
C371 H345 0.950 . S
C371 C370 1.414 . S
C371 C372 1.374 . S
C372 H346 0.950 . S
C372 C368 1.385 . S
C372 C371 1.374 . S
C373 C370 1.499 . S
C373 C374 1.373 . S
C373 C375 1.389 . S
C374 H347 0.950 . S
C374 C360 1.377 . S
C374 C373 1.373 . S
C375 C359 1.377 . S
C375 C373 1.389 . S
C375 C376 1.524 . S
C376 C375 1.524 . S
C376 C377 1.397 . S
C376 C381 1.363 . S
C377 H348 0.950 . S
C377 C376 1.397 . S
C377 C378 1.334 . S
C378 H349 0.950 . S
C378 C377 1.334 . S
C378 C379 1.287 . S
C379 C378 1.287 . S
C379 C380 1.524 . S
C379 H382 0.999 . S
C380 H350 0.950 . S
C380 C379 1.524 . S
C380 C381 1.415 . S
C381 H351 0.950 . S
C381 C376 1.363 . S
C381 C380 1.415 . S
H382 C379 0.999 . S
H383 C364 0.913 . S
H384 C402 0.951 . S
H385 C404 0.951 . S
H386 C406 0.950 . S
H387 C407 0.950 . S
H388 C409 0.950 . S
H389 C412 0.958 . S
H390 C413 0.950 . S
H391 C415 0.950 . S
H392 C416 0.950 . S
H393 C417 0.951 . S
H394 C419 0.951 . S
H395 C421 0.950 . S
H396 C422 0.950 . S
H397 C424 0.950 . S
H398 C427 0.950 . S
H399 C428 0.950 . S
H400 C430 0.950 . S
H401 C431 0.950 . S
C402 H384 0.951 . S
C402 C403 1.366 . S
C402 C404 1.388 . S
C403 C402 1.366 . S
C403 C407 1.385 . S
C404 H385 0.951 . S
C404 C402 1.388 . S
C404 C405 1.366 . S
C405 C404 1.366 . S
C405 C406 1.414 . S
C405 C408 1.499 . S
C406 H386 0.950 . S
C406 C405 1.414 . S
C406 C407 1.374 . S
C407 H387 0.950 . S
C407 C403 1.385 . S
C407 C406 1.374 . S
C408 C405 1.499 . S
C408 C409 1.373 . S
C408 C410 1.389 . S
C409 H388 0.950 . S
C409 C408 1.373 . S
C409 C425 1.377 . S
C410 C408 1.389 . S
C410 C411 1.524 . S
C410 C424 1.377 . S
C411 C410 1.524 . S
C411 C412 1.397 . S
C411 C416 1.363 . S
C412 H389 0.958 . S
C412 C411 1.397 . S
C412 C413 1.334 1_545 S
C413 H390 0.950 . S
C413 C412 1.334 1_565 S
C413 C414 1.287 1_565 S
C414 C413 1.287 1_545 S
C414 C415 1.524 . S
C414 H433 0.913 1_545 S
C415 H391 0.950 . S
C415 C414 1.524 . S
C415 C416 1.415 . S
C416 H392 0.950 . S
C416 C411 1.363 . S
C416 C415 1.415 . S
C417 H393 0.951 . S
C417 C418 1.366 . S
C417 C419 1.388 . S
C418 C417 1.366 . S
C418 C422 1.385 . S
C419 H394 0.951 . S
C419 C417 1.388 . S
C419 C420 1.366 . S
C420 C419 1.366 . S
C420 C421 1.414 . S
C420 C423 1.499 . S
C421 H395 0.950 . S
C421 C420 1.414 . S
C421 C422 1.374 . S
C422 H396 0.950 . S
C422 C418 1.385 . S
C422 C421 1.374 . S
C423 C420 1.499 . S
C423 C424 1.373 . S
C423 C425 1.389 . S
C424 H397 0.950 . S
C424 C410 1.377 . S
C424 C423 1.373 . S
C425 C409 1.377 . S
C425 C423 1.389 . S
C425 C426 1.524 . S
C426 C425 1.524 . S
C426 C427 1.397 . S
C426 C431 1.363 . S
C427 H398 0.950 . S
C427 C426 1.397 . S
C427 C428 1.334 . S
C428 H399 0.950 . S
C428 C427 1.334 . S
C428 C429 1.287 . S
C429 C428 1.287 . S
C429 C430 1.524 . S
C429 H432 0.999 . S
C430 H400 0.950 . S
C430 C429 1.524 . S
C430 C431 1.415 . S
C431 H401 0.950 . S
C431 C426 1.363 . S
C431 C430 1.415 . S
H432 C429 0.999 . S
H433 C414 0.913 1_565 S
H434 C452 0.951 1_545 S
H435 C454 0.951 . S
H436 C456 0.950 . S
H437 C457 0.950 1_455 S
H438 C459 0.950 . S
H439 C462 0.950 . S
H440 C463 0.950 . S
H441 C465 0.950 . S
H442 C466 0.950 . S
H443 C467 0.951 . S
H444 C469 0.951 . S
H445 C471 0.950 . S
H446 C472 0.950 . S
H447 C474 0.950 . S
H448 C477 0.950 . S
H449 C478 0.950 . S
H450 C480 0.950 . S
H451 C481 0.950 . S
C452 H434 0.951 1_565 S
C452 C453 1.366 1_565 S
C452 C454 1.388 . S
C453 C452 1.366 1_545 S
C453 C457 1.385 1_545 S
C454 H435 0.951 . S
C454 C452 1.388 . S
C454 C455 1.366 . S
C455 C454 1.366 . S
C455 C456 1.414 . S
C455 C458 1.499 1_554 S
C456 H436 0.950 . S
C456 C455 1.414 . S
C456 C457 1.374 . S
C457 H437 0.950 1_655 S
C457 C453 1.385 1_565 S
C457 C456 1.374 . S
C458 C455 1.499 1_556 S
C458 C459 1.373 . S
C458 C460 1.389 . S
C459 H438 0.950 . S
C459 C458 1.373 . S
C459 C475 1.377 . S
C460 C458 1.389 . S
C460 C461 1.524 1_556 S
C460 C474 1.377 . S
C461 C460 1.524 1_554 S
C461 C462 1.397 . S
C461 C466 1.363 . S
C462 H439 0.950 . S
C462 C461 1.397 . S
C462 C463 1.334 . S
C463 H440 0.950 . S
C463 C462 1.334 . S
C463 C464 1.287 . S
C464 C463 1.287 . S
C464 C465 1.524 . S
C464 H483 0.913 . S
C465 H441 0.950 . S
C465 C464 1.524 . S
C465 C466 1.415 . S
C466 H442 0.950 . S
C466 C461 1.363 . S
C466 C465 1.415 . S
C467 H443 0.951 . S
C467 C468 1.366 . S
C467 C469 1.388 . S
C468 C467 1.366 . S
C468 C472 1.385 . S
C469 H444 0.951 . S
C469 C467 1.388 . S
C469 C470 1.366 . S
C470 C469 1.366 . S
C470 C471 1.414 . S
C470 C473 1.499 . S
C471 H445 0.950 . S
C471 C470 1.414 . S
C471 C472 1.374 . S
C472 H446 0.950 . S
C472 C468 1.385 . S
C472 C471 1.374 . S
C473 C470 1.499 . S
C473 C474 1.373 . S
C473 C475 1.389 . S
C474 H447 0.950 . S
C474 C460 1.377 . S
C474 C473 1.373 . S
C475 C459 1.377 . S
C475 C473 1.389 . S
C475 C476 1.524 . S
C476 C475 1.524 . S
C476 C477 1.397 . S
C476 C481 1.363 . S
C477 H448 0.950 . S
C477 C476 1.397 . S
C477 C478 1.334 . S
C478 H449 0.950 . S
C478 C477 1.334 . S
C478 C479 1.287 . S
C479 C478 1.287 . S
C479 C480 1.524 . S
C479 H482 0.999 . S
C480 H450 0.950 . S
C480 C479 1.524 . S
C480 C481 1.415 . S
C481 H451 0.950 . S
C481 C476 1.363 . S
C481 C480 1.415 . S
H482 C479 0.999 . S
H483 C464 0.913 . S
H484 C502 0.951 . S
H485 C504 0.951 . S
H486 C506 0.950 . S
H487 C507 0.950 . S
H488 C509 0.950 . S
H489 C512 0.950 . S
H490 C513 0.950 . S
H491 C515 0.950 . S
H492 C516 0.950 . S
H493 C517 0.951 . S
H494 C519 0.951 . S
H495 C521 0.950 1_655 S
H496 C522 0.950 1_655 S
H497 C524 0.950 . S
H498 C527 0.950 . S
H499 C528 0.950 . S
H500 C530 0.950 . S
H501 C531 0.950 . S
C502 H484 0.951 . S
C502 C503 1.366 . S
C502 C504 1.388 . S
C503 C502 1.366 . S
C503 C507 1.385 1_655 S
C504 H485 0.951 . S
C504 C502 1.388 . S
C504 C505 1.366 1_655 S
C505 C504 1.366 1_455 S
C505 C506 1.414 . S
C505 C508 1.499 . S
C506 H486 0.950 . S
C506 C505 1.414 . S
C506 C507 1.374 . S
C507 H487 0.950 . S
C507 C503 1.385 1_455 S
C507 C506 1.374 . S
C508 C505 1.499 . S
C508 C509 1.373 . S
C508 C510 1.389 1_455 S
C509 H488 0.950 . S
C509 C508 1.373 . S
C509 C525 1.377 . S
C510 C508 1.389 1_655 S
C510 C511 1.524 . S
C510 C524 1.377 . S
C511 C510 1.524 . S
C511 C512 1.397 . S
C511 C516 1.363 . S
C512 H489 0.950 . S
C512 C511 1.397 . S
C512 C513 1.334 . S
C513 H490 0.950 . S
C513 C512 1.334 . S
C513 C514 1.287 . S
C514 C513 1.287 . S
C514 C515 1.524 . S
C514 H533 0.913 . S
C515 H491 0.950 . S
C515 C514 1.524 . S
C515 C516 1.415 . S
C516 H492 0.950 . S
C516 C511 1.363 . S
C516 C515 1.415 . S
C517 H493 0.951 . S
C517 C518 1.366 . S
C517 C519 1.388 . S
C518 C517 1.366 . S
C518 C522 1.385 . S
C519 H494 0.951 . S
C519 C517 1.388 . S
C519 C520 1.366 . S
C520 C519 1.366 . S
C520 C521 1.414 . S
C520 C523 1.499 . S
C521 H495 0.950 1_455 S
C521 C520 1.414 . S
C521 C522 1.374 . S
C522 H496 0.950 1_455 S
C522 C518 1.385 . S
C522 C521 1.374 . S
C523 C520 1.499 . S
C523 C524 1.373 1_455 S
C523 C525 1.389 . S
C524 H497 0.950 . S
C524 C510 1.377 . S
C524 C523 1.373 1_655 S
C525 C509 1.377 . S
C525 C523 1.389 . S
C525 C526 1.524 . S
C526 C525 1.524 . S
C526 C527 1.397 . S
C526 C531 1.363 . S
C527 H498 0.950 . S
C527 C526 1.397 . S
C527 C528 1.334 . S
C528 H499 0.950 . S
C528 C527 1.334 . S
C528 C529 1.287 . S
C529 C528 1.287 . S
C529 C530 1.524 . S
C529 H532 0.999 . S
C530 H500 0.950 . S
C530 C529 1.524 . S
C530 C531 1.415 . S
C531 H501 0.950 . S
C531 C526 1.363 . S
C531 C530 1.415 . S
H532 C529 0.999 . S
H533 C514 0.913 . S
H534 C552 0.951 . S
H535 C554 0.951 . S
H536 C556 0.950 1_565 S
H537 C557 0.950 1_565 S
H538 C559 0.951 1_565 S
H539 C562 0.950 . S
H540 C563 0.950 . S
H541 C565 0.950 . S
H542 C566 0.950 . S
H543 C567 0.951 . S
H544 C569 0.951 . S
H545 C571 0.950 . S
H546 C572 0.950 . S
H547 C574 0.950 . S
H548 C577 0.950 . S
H549 C578 0.949 . S
H550 C580 0.950 . S
H551 C581 0.950 . S
C552 H534 0.951 . S
C552 C553 1.366 . S
C552 C554 1.388 . S
C553 C552 1.366 . S
C553 C557 1.385 . S
C554 H535 0.951 . S
C554 C552 1.388 . S
C554 C555 1.366 . S
C555 C554 1.366 . S
C555 C556 1.414 . S
C555 C558 1.499 . S
C556 H536 0.950 1_545 S
C556 C555 1.414 . S
C556 C557 1.374 . S
C557 H537 0.950 1_545 S
C557 C553 1.385 . S
C557 C556 1.374 . S
C558 C555 1.499 . S
C558 C559 1.373 . S
C558 C560 1.389 . S
C559 H538 0.951 1_545 S
C559 C558 1.373 . S
C559 C575 1.377 . S
C560 C558 1.389 . S
C560 C561 1.524 . S
C560 C574 1.377 . S
C561 C560 1.524 . S
C561 C562 1.397 . S
C561 C566 1.363 . S
C562 H539 0.950 . S
C562 C561 1.397 . S
C562 C563 1.334 . S
C563 H540 0.950 . S
C563 C562 1.334 . S
C563 C564 1.287 . S
C564 C563 1.287 . S
C564 C565 1.524 . S
C564 H583 0.913 . S
C565 H541 0.950 . S
C565 C564 1.524 . S
C565 C566 1.415 . S
C566 H542 0.950 . S
C566 C561 1.363 . S
C566 C565 1.415 . S
C567 H543 0.951 . S
C567 C568 1.366 . S
C567 C569 1.388 . S
C568 C567 1.366 . S
C568 C572 1.385 . S
C569 H544 0.951 . S
C569 C567 1.388 . S
C569 C570 1.366 . S
C570 C569 1.366 . S
C570 C571 1.414 . S
C570 C573 1.499 . S
C571 H545 0.950 . S
C571 C570 1.414 . S
C571 C572 1.374 . S
C572 H546 0.950 . S
C572 C568 1.385 . S
C572 C571 1.374 . S
C573 C570 1.499 . S
C573 C574 1.373 . S
C573 C575 1.389 . S
C574 H547 0.950 . S
C574 C560 1.377 . S
C574 C573 1.373 . S
C575 C559 1.377 . S
C575 C573 1.389 . S
C575 C576 1.524 1_545 S
C576 C575 1.524 1_565 S
C576 C577 1.397 1_565 S
C576 C581 1.363 . S
C577 H548 0.950 . S
C577 C576 1.397 1_545 S
C577 C578 1.334 1_545 S
C578 H549 0.949 . S
C578 C577 1.334 1_565 S
C578 C579 1.287 . S
C579 C578 1.287 . S
C579 C580 1.524 . S
C579 H582 0.999 . S
C580 H550 0.950 . S
C580 C579 1.524 . S
C580 C581 1.415 . S
C581 H551 0.950 . S
C581 C576 1.363 . S
C581 C580 1.415 . S
H582 C579 0.999 . S
H583 C564 0.913 . S
H584 C602 0.951 . S
H585 C604 0.951 . S
H586 C606 0.950 . S
H587 C607 0.950 . S
H588 C609 0.950 . S
H589 C612 0.950 . S
H590 C613 0.951 . S
H591 C615 0.950 . S
H592 C616 0.950 . S
H593 C617 0.951 . S
H594 C619 0.951 . S
H595 C621 0.950 . S
H596 C622 0.950 . S
H597 C624 0.950 . S
H598 C627 0.950 . S
H599 C628 0.950 . S
H600 C630 0.950 . S
H601 C631 0.950 . S
C602 H584 0.951 . S
C602 C603 1.366 . S
C602 C604 1.388 . S
C603 C602 1.366 . S
C603 C607 1.385 . S
C604 H585 0.951 . S
C604 C602 1.388 . S
C604 C605 1.366 . S
C605 C604 1.366 . S
C605 C606 1.414 1_554 S
C605 C608 1.499 1_554 S
C606 H586 0.950 . S
C606 C605 1.414 1_556 S
C606 C607 1.374 1_556 S
C607 H587 0.950 . S
C607 C603 1.385 . S
C607 C606 1.374 1_554 S
C608 C605 1.499 1_556 S
C608 C609 1.373 . S
C608 C610 1.389 . S
C609 H588 0.950 . S
C609 C608 1.373 . S
C609 C625 1.377 . S
C610 C608 1.389 . S
C610 C611 1.524 . S
C610 C624 1.377 . S
C611 C610 1.524 . S
C611 C612 1.397 . S
C611 C616 1.363 1_556 S
C612 H589 0.950 . S
C612 C611 1.397 . S
C612 C613 1.337 . S
C613 H590 0.951 . S
C613 C612 1.337 . S
C613 C614 1.283 1_556 S
C614 C613 1.283 1_554 S
C614 C615 1.524 . S
C614 H633 0.913 . S
C615 H591 0.950 . S
C615 C614 1.524 . S
C615 C616 1.415 . S
C616 H592 0.950 . S
C616 C611 1.363 1_554 S
C616 C615 1.415 . S
C617 H593 0.951 . S
C617 C618 1.366 . S
C617 C619 1.388 . S
C618 C617 1.366 . S
C618 C622 1.385 . S
C619 H594 0.951 . S
C619 C617 1.388 . S
C619 C620 1.366 . S
C620 C619 1.366 . S
C620 C621 1.414 . S
C620 C623 1.499 . S
C621 H595 0.950 . S
C621 C620 1.414 . S
C621 C622 1.374 . S
C622 H596 0.950 . S
C622 C618 1.385 . S
C622 C621 1.374 . S
C623 C620 1.499 . S
C623 C624 1.373 . S
C623 C625 1.389 . S
C624 H597 0.950 . S
C624 C610 1.377 . S
C624 C623 1.373 . S
C625 C609 1.377 . S
C625 C623 1.389 . S
C625 C626 1.524 . S
C626 C625 1.524 . S
C626 C627 1.397 . S
C626 C631 1.363 . S
C627 H598 0.950 . S
C627 C626 1.397 . S
C627 C628 1.334 . S
C628 H599 0.950 . S
C628 C627 1.334 . S
C628 C629 1.287 . S
C629 C628 1.287 . S
C629 C630 1.524 . S
C629 H632 0.999 . S
C630 H600 0.950 . S
C630 C629 1.524 . S
C630 C631 1.415 . S
C631 H601 0.950 . S
C631 C626 1.363 . S
C631 C630 1.415 . S
H632 C629 0.999 . S
H633 C614 0.913 . S
H634 C652 0.951 1_655 S
H635 C654 0.951 1_655 S
H636 C656 0.950 . S
H637 C657 0.950 . S
H638 C659 0.950 . S
H639 C662 0.950 . S
H640 C663 0.950 1_455 S
H641 C665 0.950 . S
H642 C666 0.950 . S
H643 C667 0.951 . S
H644 C669 0.951 . S
H645 C671 0.957 . S
H646 C672 0.964 . S
H647 C674 0.950 1_655 S
H648 C677 0.950 . S
H649 C678 0.950 . S
H650 C680 0.950 . S
H651 C681 0.950 . S
C652 H634 0.951 1_455 S
C652 C653 1.366 . S
C652 C654 1.388 . S
C653 C652 1.366 . S
C653 C657 1.385 . S
C654 H635 0.951 1_455 S
C654 C652 1.388 . S
C654 C655 1.366 . S
C655 C654 1.366 . S
C655 C656 1.414 . S
C655 C658 1.499 . S
C656 H636 0.950 . S
C656 C655 1.414 . S
C656 C657 1.374 . S
C657 H637 0.950 . S
C657 C653 1.385 . S
C657 C656 1.374 . S
C658 C655 1.499 . S
C658 C659 1.373 . S
C658 C660 1.389 . S
C659 H638 0.950 . S
C659 C658 1.373 . S
C659 C675 1.377 . S
C660 C658 1.389 . S
C660 C661 1.524 1_455 S
C660 C674 1.377 . S
C661 C660 1.524 1_655 S
C661 C662 1.397 1_655 S
C661 C666 1.363 . S
C662 H639 0.950 . S
C662 C661 1.397 1_455 S
C662 C663 1.334 1_455 S
C663 H640 0.950 1_655 S
C663 C662 1.334 1_655 S
C663 C664 1.287 . S
C664 C663 1.287 . S
C664 C665 1.524 . S
C664 H683 0.913 . S
C665 H641 0.950 . S
C665 C664 1.524 . S
C665 C666 1.415 . S
C666 H642 0.950 . S
C666 C661 1.363 . S
C666 C665 1.415 . S
C667 H643 0.951 . S
C667 C668 1.366 . S
C667 C669 1.388 . S
C668 C667 1.366 . S
C668 C672 1.376 1_455 S
C669 H644 0.951 . S
C669 C667 1.388 . S
C669 C670 1.366 . S
C670 C669 1.366 . S
C670 C671 1.403 1_455 S
C670 C673 1.499 . S
C671 H645 0.957 . S
C671 C670 1.403 1_655 S
C671 C672 1.372 . S
C672 H646 0.964 . S
C672 C668 1.376 1_655 S
C672 C671 1.372 . S
C673 C670 1.499 . S
C673 C674 1.373 . S
C673 C675 1.389 . S
C674 H647 0.950 1_455 S
C674 C660 1.377 . S
C674 C673 1.373 . S
C675 C659 1.377 . S
C675 C673 1.389 . S
C675 C676 1.524 . S
C676 C675 1.524 . S
C676 C677 1.397 . S
C676 C681 1.363 . S
C677 H648 0.950 . S
C677 C676 1.397 . S
C677 C678 1.334 . S
C678 H649 0.950 . S
C678 C677 1.334 . S
C678 C679 1.287 . S
C679 C678 1.287 . S
C679 C680 1.524 . S
C679 H682 0.999 . S
C680 H650 0.950 . S
C680 C679 1.524 . S
C680 C681 1.415 . S
C681 H651 0.950 . S
C681 C676 1.363 . S
C681 C680 1.415 . S
H682 C679 0.999 . S
H683 C664 0.913 . S
C118 C43 1.356 . S
C103 C11 1.343 . S
C153 C26 1.473 . S
C168 C69 1.483 . S
C203 C40 1.360 . S
C218 C71 1.366 . S
C253 C5 1.175 1_565 S
C268 C55 1.340 . S
C318 C57 1.494 . S
C303 C18 1.475 . S
C353 C32 1.349 . S
C368 C83 1.369 . S
C418 C56 1.232 . S
C403 C39 1.222 . S
C453 C4 1.359 1_655 S
C468 C82 1.379 . S
C518 C42 1.347 . S
C503 C19 1.187 . S
C568 C68 1.260 . S
C553 C33 1.103 . S
C618 C70 1.377 . S
C603 C12 1.369 . S
C653 C25 1.348 . S
C668 C54 1.363 . S
