# Generated by pormake.
# Topology eea, (3,6)-cn, num edge types: 1
# Building blocks:
#     Node 0, Type 0, BuildingBlock: WUSLED_clean_sbu_0, # of connection points: 3
#     Node 1, Type 0, BuildingBlock: WUSLED_clean_sbu_0, # of connection points: 3
#     Node 2, Type 0, BuildingBlock: WUSLED_clean_sbu_0, # of connection points: 3
#     Node 3, Type 0, BuildingBlock: WUSLED_clean_sbu_0, # of connection points: 3
#     Node 4, Type 0, BuildingBlock: WUSLED_clean_sbu_0, # of connection points: 3
#     Node 5, Type 0, BuildingBlock: WUSLED_clean_sbu_0, # of connection points: 3
#     Node 6, Type 0, BuildingBlock: WUSLED_clean_sbu_0, # of connection points: 3
#     Node 7, Type 0, BuildingBlock: WUSLED_clean_sbu_0, # of connection points: 3
#     Node 8, Type 0, BuildingBlock: WUSLED_clean_sbu_0, # of connection points: 3
#     Node 9, Type 0, BuildingBlock: WUSLED_clean_sbu_0, # of connection points: 3
#     Node 10, Type 0, BuildingBlock: WUSLED_clean_sbu_0, # of connection points: 3
#     Node 11, Type 0, BuildingBlock: WUSLED_clean_sbu_0, # of connection points: 3
#     Node 12, Type 0, BuildingBlock: WUSLED_clean_sbu_0, # of connection points: 3
#     Node 13, Type 0, BuildingBlock: WUSLED_clean_sbu_0, # of connection points: 3
#     Node 14, Type 0, BuildingBlock: WUSLED_clean_sbu_0, # of connection points: 3
#     Node 15, Type 0, BuildingBlock: WUSLED_clean_sbu_0, # of connection points: 3
#     Node 16, Type 0, BuildingBlock: WUSLED_clean_sbu_0, # of connection points: 3
#     Node 17, Type 0, BuildingBlock: WUSLED_clean_sbu_0, # of connection points: 3
#     Node 18, Type 1, BuildingBlock: LEVNOQ01_clean_sbu_1, # of connection points: 6
#     Node 19, Type 1, BuildingBlock: LEVNOQ01_clean_sbu_1, # of connection points: 6
#     Node 20, Type 1, BuildingBlock: LEVNOQ01_clean_sbu_1, # of connection points: 6
#     Node 21, Type 1, BuildingBlock: LEVNOQ01_clean_sbu_1, # of connection points: 6
#     Node 22, Type 1, BuildingBlock: LEVNOQ01_clean_sbu_1, # of connection points: 6
#     Node 23, Type 1, BuildingBlock: LEVNOQ01_clean_sbu_1, # of connection points: 6
#     Node 24, Type 1, BuildingBlock: LEVNOQ01_clean_sbu_1, # of connection points: 6
#     Node 25, Type 1, BuildingBlock: LEVNOQ01_clean_sbu_1, # of connection points: 6
#     Node 26, Type 1, BuildingBlock: LEVNOQ01_clean_sbu_1, # of connection points: 6
#     Edge 27, Type (0, 1), BuildingBlock: XIVTED_clean_linker_0, # of connection points: 2
#     Edge 28, Type (0, 1), BuildingBlock: XIVTED_clean_linker_0, # of connection points: 2
#     Edge 29, Type (0, 1), BuildingBlock: XIVTED_clean_linker_0, # of connection points: 2
#     Edge 30, Type (0, 1), BuildingBlock: XIVTED_clean_linker_0, # of connection points: 2
#     Edge 31, Type (0, 1), BuildingBlock: XIVTED_clean_linker_0, # of connection points: 2
#     Edge 32, Type (0, 1), BuildingBlock: XIVTED_clean_linker_0, # of connection points: 2
#     Edge 33, Type (0, 1), BuildingBlock: XIVTED_clean_linker_0, # of connection points: 2
#     Edge 34, Type (0, 1), BuildingBlock: XIVTED_clean_linker_0, # of connection points: 2
#     Edge 35, Type (0, 1), BuildingBlock: XIVTED_clean_linker_0, # of connection points: 2
#     Edge 36, Type (0, 1), BuildingBlock: XIVTED_clean_linker_0, # of connection points: 2
#     Edge 37, Type (0, 1), BuildingBlock: XIVTED_clean_linker_0, # of connection points: 2
#     Edge 38, Type (0, 1), BuildingBlock: XIVTED_clean_linker_0, # of connection points: 2
#     Edge 39, Type (0, 1), BuildingBlock: XIVTED_clean_linker_0, # of connection points: 2
#     Edge 40, Type (0, 1), BuildingBlock: XIVTED_clean_linker_0, # of connection points: 2
#     Edge 41, Type (0, 1), BuildingBlock: XIVTED_clean_linker_0, # of connection points: 2
#     Edge 42, Type (0, 1), BuildingBlock: XIVTED_clean_linker_0, # of connection points: 2
#     Edge 43, Type (0, 1), BuildingBlock: XIVTED_clean_linker_0, # of connection points: 2
#     Edge 44, Type (0, 1), BuildingBlock: XIVTED_clean_linker_0, # of connection points: 2
#     Edge 45, Type (0, 1), BuildingBlock: XIVTED_clean_linker_0, # of connection points: 2
#     Edge 46, Type (0, 1), BuildingBlock: XIVTED_clean_linker_0, # of connection points: 2
#     Edge 47, Type (0, 1), BuildingBlock: XIVTED_clean_linker_0, # of connection points: 2
#     Edge 48, Type (0, 1), BuildingBlock: XIVTED_clean_linker_0, # of connection points: 2
#     Edge 49, Type (0, 1), BuildingBlock: XIVTED_clean_linker_0, # of connection points: 2
#     Edge 50, Type (0, 1), BuildingBlock: XIVTED_clean_linker_0, # of connection points: 2
#     Edge 51, Type (0, 1), BuildingBlock: XIVTED_clean_linker_0, # of connection points: 2
#     Edge 52, Type (0, 1), BuildingBlock: XIVTED_clean_linker_0, # of connection points: 2
#     Edge 53, Type (0, 1), BuildingBlock: XIVTED_clean_linker_0, # of connection points: 2
#     Edge 54, Type (0, 1), BuildingBlock: XIVTED_clean_linker_0, # of connection points: 2
#     Edge 55, Type (0, 1), BuildingBlock: XIVTED_clean_linker_0, # of connection points: 2
#     Edge 56, Type (0, 1), BuildingBlock: XIVTED_clean_linker_0, # of connection points: 2
#     Edge 57, Type (0, 1), BuildingBlock: XIVTED_clean_linker_0, # of connection points: 2
#     Edge 58, Type (0, 1), BuildingBlock: XIVTED_clean_linker_0, # of connection points: 2
#     Edge 59, Type (0, 1), BuildingBlock: XIVTED_clean_linker_0, # of connection points: 2
#     Edge 60, Type (0, 1), BuildingBlock: XIVTED_clean_linker_0, # of connection points: 2
#     Edge 61, Type (0, 1), BuildingBlock: XIVTED_clean_linker_0, # of connection points: 2
#     Edge 62, Type (0, 1), BuildingBlock: XIVTED_clean_linker_0, # of connection points: 2
#     Edge 63, Type (0, 1), BuildingBlock: XIVTED_clean_linker_0, # of connection points: 2
#     Edge 64, Type (0, 1), BuildingBlock: XIVTED_clean_linker_0, # of connection points: 2
#     Edge 65, Type (0, 1), BuildingBlock: XIVTED_clean_linker_0, # of connection points: 2
#     Edge 66, Type (0, 1), BuildingBlock: XIVTED_clean_linker_0, # of connection points: 2
#     Edge 67, Type (0, 1), BuildingBlock: XIVTED_clean_linker_0, # of connection points: 2
#     Edge 68, Type (0, 1), BuildingBlock: XIVTED_clean_linker_0, # of connection points: 2
#     Edge 69, Type (0, 1), BuildingBlock: XIVTED_clean_linker_0, # of connection points: 2
#     Edge 70, Type (0, 1), BuildingBlock: XIVTED_clean_linker_0, # of connection points: 2
#     Edge 71, Type (0, 1), BuildingBlock: XIVTED_clean_linker_0, # of connection points: 2
#     Edge 72, Type (0, 1), BuildingBlock: XIVTED_clean_linker_0, # of connection points: 2
#     Edge 73, Type (0, 1), BuildingBlock: XIVTED_clean_linker_0, # of connection points: 2
#     Edge 74, Type (0, 1), BuildingBlock: XIVTED_clean_linker_0, # of connection points: 2
#     Edge 75, Type (0, 1), BuildingBlock: XIVTED_clean_linker_0, # of connection points: 2
#     Edge 76, Type (0, 1), BuildingBlock: XIVTED_clean_linker_0, # of connection points: 2
#     Edge 77, Type (0, 1), BuildingBlock: XIVTED_clean_linker_0, # of connection points: 2
#     Edge 78, Type (0, 1), BuildingBlock: XIVTED_clean_linker_0, # of connection points: 2
#     Edge 79, Type (0, 1), BuildingBlock: XIVTED_clean_linker_0, # of connection points: 2
#     Edge 80, Type (0, 1), BuildingBlock: XIVTED_clean_linker_0, # of connection points: 2
# Relax obj value: 0.092
# Max RMSD: 0.177
# Mean RMSD: 0.088
data_MOF--net-eea--node1-WUSLED_clean_sbu_0--node2-LEVNOQ01_clean_sbu_1--edge1-XIVTED_clean_linker_0
_symmetry_space_group_name_H-M    P1
_symmetry_Int_Tables_number       1
_symmetry_cell_setting            triclinic
loop_
_symmetry_equiv_pos_as_xyz
'x, y, z'
_cell_length_a     71.49178
_cell_length_b     71.061032
_cell_length_c     71.555077
_cell_angle_alpha  89.980784
_cell_angle_beta   90.24986
_cell_angle_gamma 119.94658
loop_
_atom_site_label
_atom_site_type_symbol
_atom_site_fract_x
_atom_site_fract_y
_atom_site_fract_z
_atom_type_partial_charge
C0 C 0.22049 0.14746 0.38615 0.0
C1 C 0.21918 0.16118 0.39957 0.0
C2 C 0.20824 0.17808 0.37552 0.0
C3 C 0.21304 0.1763 0.39431 0.0
C4 C 0.21031 0.16475 0.36208 0.0
C5 C 0.21629 0.14955 0.36737 0.0
U6 U 0.24655 0.12524 0.41928 0.0
O7 O 0.23334 0.0928 0.43166 0.0
O8 O 0.26232 0.10591 0.41416 0.0
C9 C 0.24765 0.08912 0.42354 0.0
C10 C 0.22546 0.13046 0.39159 0.0
C11 C 0.23876 0.06781 0.41452 0.0
C12 C 0.22334 0.04398 0.3877 0.0
C13 C 0.23251 0.0647 0.39567 0.0
C14 C 0.22655 0.02936 0.41739 0.0
C15 C 0.22012 0.02602 0.39851 0.0
C16 C 0.2358 0.05007 0.42528 0.0
C17 C 0.27672 0.15468 0.46218 0.0
C18 C 0.2952 0.13962 0.47999 0.0
C19 C 0.28214 0.16111 0.49556 0.0
C20 C 0.27446 0.1642 0.47851 0.0
C21 C 0.29226 0.14849 0.4965 0.0
C22 C 0.28733 0.14254 0.46299 0.0
C23 C 0.26559 0.15505 0.445 0.0
O24 O 0.24584 0.13567 0.39038 0.0
O25 O 0.21612 0.11993 0.407 0.0
O26 O 0.24476 0.14116 0.44499 0.0
O27 O 0.27505 0.15516 0.42923 0.0
H28 H 0.22249 0.1599 0.41416 0.0
H29 H 0.21151 0.18617 0.40505 0.0
H30 H 0.20726 0.16601 0.34743 0.0
H31 H 0.2174 0.13923 0.35681 0.0
H32 H 0.21889 0.04206 0.37305 0.0
H33 H 0.23461 0.07824 0.38716 0.0
H34 H 0.22404 0.01591 0.42619 0.0
H35 H 0.24041 0.0522 0.43991 0.0
H36 H 0.3028 0.12971 0.48034 0.0
H37 H 0.27993 0.16837 0.50806 0.0
H38 H 0.26612 0.17341 0.47819 0.0
H39 H 0.28888 0.13468 0.45059 0.0
C40 C 0.93124 0.15119 0.38387 0.0
C41 C 0.937 0.17154 0.39154 0.0
C42 C 0.97113 0.18798 0.37472 0.0
C43 C 0.95671 0.18979 0.38694 0.0
C44 C 0.96492 0.16762 0.36663 0.0
C45 C 0.94515 0.1494 0.37119 0.0
U46 U 0.88657 0.12238 0.41938 0.0
O47 O 0.85236 0.09751 0.41654 0.0
O48 O 0.87435 0.09045 0.43268 0.0
C49 C 0.85472 0.08301 0.42609 0.0
C50 C 0.91177 0.1315 0.39023 0.0
C51 C 0.84413 0.06089 0.41846 0.0
C52 C 0.83343 0.03557 0.3925 0.0
C53 C 0.84481 0.05685 0.39937 0.0
C54 C 0.8211 0.02224 0.42382 0.0
C55 C 0.82124 0.01804 0.40464 0.0
C56 C 0.83243 0.04348 0.43063 0.0
C57 C 0.88133 0.14965 0.46175 0.0
C58 C 0.85721 0.12629 0.48598 0.0
C59 C 0.87218 0.16528 0.48786 0.0
C60 C 0.88322 0.16785 0.47108 0.0
C61 C 0.85922 0.14447 0.49555 0.0
C62 C 0.86806 0.12886 0.4692 0.0
C63 C 0.89289 0.15201 0.44422 0.0
O64 O 0.91441 0.12317 0.40572 0.0
O65 O 0.89371 0.13218 0.38989 0.0
O66 O 0.88137 0.14887 0.42897 0.0
O67 O 0.90404 0.14187 0.44394 0.0
H68 H 0.92649 0.17321 0.40144 0.0
H69 H 0.96079 0.20526 0.39319 0.0
H70 H 0.97568 0.16554 0.35736 0.0
H71 H 0.94102 0.13376 0.36526 0.0
H72 H 0.83366 0.03292 0.37762 0.0
H73 H 0.85378 0.07014 0.38977 0.0
H74 H 0.81215 0.00913 0.43356 0.0
H75 H 0.83183 0.04634 0.44544 0.0
H76 H 0.84714 0.11007 0.49144 0.0
H77 H 0.87415 0.17959 0.49502 0.0
H78 H 0.8933 0.184 0.46547 0.0
H79 H 0.8662 0.11458 0.46205 0.0
C80 C 0.85447 0.77784 0.37598 0.0
C81 C 0.83426 0.7656 0.38449 0.0
C82 C 0.82152 0.78792 0.36961 0.0
C83 C 0.81792 0.77049 0.38125 0.0
C84 C 0.84161 0.79978 0.36065 0.0
C85 C 0.858 0.79479 0.36386 0.0
U86 U 0.87758 0.75777 0.41226 0.0
O87 O 0.89316 0.73772 0.41103 0.0
O88 O 0.91022 0.77031 0.42365 0.0
C89 C 0.91136 0.75326 0.41811 0.0
C90 C 0.87223 0.77408 0.38126 0.0
C91 C 0.93123 0.75777 0.4083 0.0
C92 C 0.96293 0.78149 0.38989 0.0
C93 C 0.94292 0.77652 0.3974 0.0
C94 C 0.9592 0.74848 0.40328 0.0
C95 C 0.97153 0.76777 0.39314 0.0
C96 C 0.9393 0.74359 0.41082 0.0
C97 C 0.84359 0.73757 0.45706 0.0
C98 C 0.84545 0.7143 0.48097 0.0
C99 C 0.82765 0.73498 0.48756 0.0
C100 C 0.83236 0.74356 0.4695 0.0
C101 C 0.83399 0.72012 0.49344 0.0
C102 C 0.8503 0.72303 0.46295 0.0
C103 C 0.84787 0.74657 0.43804 0.0
O104 O 0.88421 0.78622 0.3952 0.0
O105 O 0.86684 0.75355 0.38294 0.0
O106 O 0.84675 0.73346 0.42456 0.0
O107 O 0.86434 0.76635 0.43641 0.0
H108 H 0.83123 0.75255 0.39404 0.0
H109 H 0.80253 0.76076 0.38809 0.0
H110 H 0.84493 0.8134 0.35172 0.0
H111 H 0.87359 0.80455 0.35734 0.0
H112 H 0.97203 0.79651 0.38223 0.0
H113 H 0.93691 0.78765 0.39516 0.0
H114 H 0.96511 0.73731 0.4057 0.0
H115 H 0.93044 0.72896 0.41905 0.0
H116 H 0.85082 0.70312 0.48521 0.0
H117 H 0.81868 0.73964 0.49678 0.0
H118 H 0.82708 0.75479 0.46518 0.0
H119 H 0.85917 0.71835 0.45361 0.0
C120 C 0.07759 0.23142 0.62393 0.0
C121 C 0.06952 0.24258 0.61353 0.0
C122 C 0.03507 0.22306 0.62969 0.0
C123 C 0.04852 0.23853 0.61645 0.0
C124 C 0.04334 0.21204 0.64018 0.0
C125 C 0.06442 0.21621 0.63732 0.0
U126 U 0.12499 0.24889 0.59135 0.0
O127 O 0.16006 0.2679 0.5964 0.0
O128 O 0.1453 0.23451 0.58558 0.0
C129 C 0.16297 0.25171 0.59156 0.0
C130 C 0.09933 0.23491 0.62036 0.0
C131 C 0.17704 0.24752 0.60374 0.0
C132 C 0.18264 0.2271 0.62824 0.0
C133 C 0.16884 0.23211 0.61817 0.0
C134 C 0.21289 0.25334 0.60989 0.0
C135 C 0.20481 0.23749 0.62402 0.0
C136 C 0.19914 0.2583 0.5999 0.0
C137 C 0.12356 0.26754 0.54234 0.0
C138 C 0.15602 0.28413 0.52337 0.0
C139 C 0.12091 0.26992 0.50869 0.0
C140 C 0.11103 0.26369 0.52618 0.0
C141 C 0.14351 0.28018 0.50709 0.0
C142 C 0.14612 0.27773 0.54084 0.0
C143 C 0.11295 0.25988 0.56054 0.0
O144 O 0.1002 0.22184 0.60785 0.0
O145 O 0.11458 0.25528 0.61832 0.0
O146 O 0.1221 0.27332 0.57465 0.0
O147 O 0.10743 0.23973 0.56455 0.0
H148 H 0.07941 0.25433 0.60305 0.0
H149 H 0.04286 0.24758 0.60834 0.0
H150 H 0.03338 0.19981 0.6503 0.0
H151 H 0.07035 0.20732 0.64536 0.0
H152 H 0.17595 0.21496 0.63914 0.0
H153 H 0.15175 0.22366 0.62134 0.0
H154 H 0.22975 0.26137 0.60597 0.0
H155 H 0.20571 0.27014 0.58873 0.0
H156 H 0.17344 0.29181 0.52257 0.0
H157 H 0.11086 0.26691 0.49643 0.0
H158 H 0.0936 0.25573 0.52707 0.0
H159 H 0.15607 0.28057 0.55315 0.0
C160 C 0.78202 0.8541 0.61979 0.0
C161 C 0.7713 0.83335 0.61164 0.0
C162 C 0.79356 0.82281 0.62981 0.0
C163 C 0.77701 0.81779 0.61663 0.0
C164 C 0.80432 0.84376 0.63772 0.0
C165 C 0.79856 0.8592 0.63278 0.0
U166 U 0.75538 0.87707 0.58764 0.0
O167 O 0.74003 0.89652 0.59415 0.0
O168 O 0.76881 0.91002 0.57638 0.0
C169 C 0.75467 0.91355 0.58502 0.0
C170 C 0.77684 0.87097 0.61452 0.0
C171 C 0.76358 0.93446 0.59473 0.0
C172 C 0.78955 0.96181 0.61585 0.0
C173 C 0.78066 0.94129 0.60753 0.0
C174 C 0.76411 0.9686 0.59884 0.0
C175 C 0.78147 0.97576 0.6115 0.0
C176 C 0.75528 0.94813 0.59053 0.0
C177 C 0.72424 0.85027 0.54475 0.0
C178 C 0.71838 0.87342 0.52341 0.0
C179 C 0.70276 0.83502 0.51668 0.0
C180 C 0.71175 0.83235 0.5332 0.0
C181 C 0.70639 0.85568 0.51148 0.0
C182 C 0.72711 0.8707 0.53995 0.0
C183 C 0.73519 0.84828 0.56138 0.0
O184 O 0.78587 0.88137 0.599 0.0
O185 O 0.75649 0.86579 0.61606 0.0
O186 O 0.72609 0.84801 0.57739 0.0
O187 O 0.75618 0.86148 0.56143 0.0
H188 H 0.75857 0.82921 0.60146 0.0
H189 H 0.76827 0.80177 0.6104 0.0
H190 H 0.8174 0.84837 0.64761 0.0
H191 H 0.80716 0.87523 0.63904 0.0
H192 H 0.80301 0.96689 0.62542 0.0
H193 H 0.78726 0.93089 0.61089 0.0
H194 H 0.75723 0.97873 0.59545 0.0
H195 H 0.74205 0.94303 0.58068 0.0
H196 H 0.72122 0.88945 0.51982 0.0
H197 H 0.69367 0.82111 0.50763 0.0
H198 H 0.70936 0.81647 0.53674 0.0
H199 H 0.73658 0.88469 0.54881 0.0
C200 C 0.07516 0.84956 0.62072 0.0
C201 C 0.0646 0.83113 0.60927 0.0
C202 C 0.03554 0.81384 0.63197 0.0
C203 C 0.04497 0.81343 0.61484 0.0
C204 C 0.0463 0.83236 0.64342 0.0
C205 C 0.06597 0.85007 0.63783 0.0
U206 U 0.11961 0.87781 0.58478 0.0
O207 O 0.13568 0.9115 0.57462 0.0
O208 O 0.15469 0.89867 0.58799 0.0
C209 C 0.15465 0.91584 0.58115 0.0
C210 C 0.09543 0.86849 0.61467 0.0
C211 C 0.16706 0.93641 0.59167 0.0
C212 C 0.17723 0.97426 0.59654 0.0
C213 C 0.16461 0.95439 0.58744 0.0
C214 C 0.19513 0.95863 0.61414 0.0
C215 C 0.19259 0.97656 0.60999 0.0
C216 C 0.18258 0.9388 0.60503 0.0
C217 C 0.12095 0.85226 0.53965 0.0
C218 C 0.14597 0.87548 0.51585 0.0
C219 C 0.12954 0.83636 0.51339 0.0
C220 C 0.11836 0.83393 0.53005 0.0
C221 C 0.14337 0.85718 0.50609 0.0
C222 C 0.13497 0.87305 0.53253 0.0
C223 C 0.10981 0.84994 0.55745 0.0
O224 O 0.11212 0.86549 0.6136 0.0
O225 O 0.09362 0.87885 0.60018 0.0
O226 O 0.10113 0.86237 0.55922 0.0
O227 O 0.12064 0.84999 0.57236 0.0
H228 H 0.07144 0.83055 0.59595 0.0
H229 H 0.03698 0.79959 0.60554 0.0
H230 H 0.0396 0.83311 0.65676 0.0
H231 H 0.07394 0.86421 0.64683 0.0
H232 H 0.17483 0.98777 0.59315 0.0
H233 H 0.15306 0.95318 0.57698 0.0
H234 H 0.2071 0.96002 0.62422 0.0
H235 H 0.18525 0.92545 0.60834 0.0
H236 H 0.15671 0.8917 0.51068 0.0
H237 H 0.12711 0.82197 0.50608 0.0
H238 H 0.10774 0.81779 0.53544 0.0
H239 H 0.13746 0.88744 0.53993 0.0
C240 C 0.88301 0.48075 0.72491 0.0
C241 C 0.88541 0.49608 0.73848 0.0
C242 C 0.86932 0.51098 0.7173 0.0
C243 C 0.87863 0.51109 0.7347 0.0
C244 C 0.86757 0.49594 0.70361 0.0
C245 C 0.87431 0.48095 0.70741 0.0
U246 U 0.9093 0.45664 0.75583 0.0
O247 O 0.8963 0.42325 0.76585 0.0
O248 O 0.92557 0.43823 0.74867 0.0
C249 C 0.91094 0.42058 0.75712 0.0
C250 C 0.88839 0.46377 0.72911 0.0
C251 C 0.90266 0.40025 0.7466 0.0
C252 C 0.87769 0.37395 0.72425 0.0
C253 C 0.88614 0.39402 0.7333 0.0
C254 C 0.90249 0.36644 0.7415 0.0
C255 C 0.88567 0.35985 0.72835 0.0
C256 C 0.91087 0.38646 0.75055 0.0
C257 C 0.93892 0.48206 0.79986 0.0
C258 C 0.94445 0.4589 0.82147 0.0
C259 C 0.96255 0.4978 0.8267 0.0
C260 C 0.95291 0.50028 0.81052 0.0
C261 C 0.95813 0.47703 0.83244 0.0
C262 C 0.93505 0.46142 0.80525 0.0
C263 C 0.9281 0.48422 0.7832 0.0
O264 O 0.90892 0.4695 0.72787 0.0
O265 O 0.87896 0.45209 0.74401 0.0
O266 O 0.90721 0.47055 0.78258 0.0
O267 O 0.93784 0.48556 0.7673 0.0
H268 H 0.89212 0.49614 0.7521 0.0
H269 H 0.88014 0.52238 0.74557 0.0
H270 H 0.86096 0.49571 0.68991 0.0
H271 H 0.87243 0.46929 0.69676 0.0
H272 H 0.86463 0.36931 0.71432 0.0
H273 H 0.87959 0.40452 0.73015 0.0
H274 H 0.90929 0.35619 0.74472 0.0
H275 H 0.92367 0.39109 0.76078 0.0
H276 H 0.94097 0.44277 0.82548 0.0
H277 H 0.97294 0.51202 0.835 0.0
H278 H 0.95615 0.51632 0.80648 0.0
H279 H 0.92448 0.44718 0.79704 0.0
C280 C 0.59393 0.48646 0.71482 0.0
C281 C 0.601 0.50686 0.72303 0.0
C282 C 0.63519 0.52169 0.70647 0.0
C283 C 0.62139 0.52433 0.71882 0.0
C284 C 0.62776 0.50131 0.69793 0.0
C285 C 0.60731 0.48386 0.7021 0.0
U286 U 0.54868 0.45929 0.74987 0.0
O287 O 0.5137 0.43741 0.7466 0.0
O288 O 0.53328 0.42647 0.76185 0.0
C289 C 0.51415 0.42127 0.7552 0.0
C290 C 0.57342 0.46754 0.72053 0.0
C291 C 0.50225 0.39981 0.74632 0.0
C292 C 0.49127 0.37634 0.71905 0.0
C293 C 0.50285 0.39709 0.72697 0.0
C294 C 0.47865 0.36094 0.74978 0.0
C295 C 0.47903 0.35801 0.73038 0.0
C296 C 0.49013 0.38165 0.75764 0.0
C297 C 0.54811 0.48689 0.79419 0.0
C298 C 0.51608 0.47001 0.81368 0.0
C299 C 0.55108 0.49399 0.82755 0.0
C300 C 0.56069 0.49739 0.80997 0.0
C301 C 0.52871 0.48007 0.82961 0.0
C302 C 0.52572 0.47325 0.79614 0.0
C303 C 0.55866 0.48832 0.77622 0.0
O304 O 0.57482 0.45749 0.73543 0.0
O305 O 0.55655 0.47032 0.72074 0.0
O306 O 0.54765 0.48755 0.76117 0.0
O307 O 0.56735 0.47587 0.77508 0.0
H308 H 0.59093 0.50915 0.73298 0.0
H309 H 0.62641 0.53986 0.72542 0.0
H310 H 0.63802 0.4986 0.68854 0.0
H311 H 0.60217 0.46816 0.69576 0.0
H312 H 0.4917 0.37471 0.70404 0.0
H313 H 0.51219 0.41096 0.71802 0.0
H314 H 0.4697 0.3472 0.75894 0.0
H315 H 0.48961 0.38349 0.77263 0.0
H316 H 0.49885 0.45907 0.81486 0.0
H317 H 0.56117 0.50216 0.83957 0.0
H318 H 0.57801 0.50779 0.80876 0.0
H319 H 0.51573 0.46465 0.78419 0.0
C320 C 0.51994 0.10961 0.70981 0.0
C321 C 0.50529 0.10736 0.72378 0.0
C322 C 0.48479 0.11574 0.70144 0.0
C323 C 0.48798 0.11048 0.71968 0.0
C324 C 0.49955 0.11801 0.68741 0.0
C325 C 0.51702 0.11493 0.69158 0.0
U326 U 0.54442 0.09089 0.74579 0.0
O327 O 0.56039 0.07121 0.74452 0.0
O328 O 0.57736 0.10405 0.75662 0.0
C329 C 0.57862 0.08701 0.75132 0.0
C330 C 0.53788 0.106 0.71459 0.0
C331 C 0.5984 0.09176 0.74127 0.0
C332 C 0.62727 0.11368 0.71954 0.0
C333 C 0.60711 0.10774 0.72731 0.0
C334 C 0.62959 0.08699 0.73899 0.0
C335 C 0.63898 0.10374 0.72569 0.0
C336 C 0.60953 0.08112 0.74672 0.0
C337 C 0.51153 0.07206 0.79144 0.0
C338 C 0.51255 0.04867 0.8157 0.0
C339 C 0.49658 0.07109 0.82209 0.0
C340 C 0.50125 0.07918 0.80388 0.0
C341 C 0.50202 0.05561 0.82816 0.0
C342 C 0.51735 0.05689 0.7975 0.0
C343 C 0.51547 0.08038 0.77218 0.0
O344 O 0.55054 0.11861 0.72801 0.0
O345 O 0.53229 0.08549 0.71683 0.0
O346 O 0.51411 0.06684 0.75901 0.0
O347 O 0.5318 0.10015 0.76998 0.0
H348 H 0.5073 0.10325 0.73795 0.0
H349 H 0.47724 0.10904 0.73092 0.0
H350 H 0.49744 0.12188 0.6732 0.0
H351 H 0.52815 0.11661 0.68062 0.0
H352 H 0.63408 0.12666 0.70937 0.0
H353 H 0.59866 0.1161 0.72287 0.0
H354 H 0.63799 0.0787 0.74374 0.0
H355 H 0.60299 0.06866 0.75739 0.0
H356 H 0.51721 0.03699 0.82006 0.0
H357 H 0.48831 0.07662 0.83129 0.0
H358 H 0.49661 0.09086 0.79942 0.0
H359 H 0.52546 0.0513 0.78816 0.0
C360 C 0.7448 0.56529 0.95708 0.0
C361 C 0.73713 0.57708 0.94708 0.0
C362 C 0.70277 0.5581 0.96347 0.0
C363 C 0.71638 0.57361 0.95032 0.0
C364 C 0.71067 0.54648 0.97357 0.0
C365 C 0.7315 0.55007 0.9704 0.0
U366 U 0.79156 0.58157 0.92387 0.0
O367 O 0.82671 0.5992 0.92854 0.0
O368 O 0.81057 0.56589 0.9174 0.0
C369 C 0.82876 0.58264 0.92317 0.0
C370 C 0.76617 0.56799 0.95308 0.0
C371 C 0.84289 0.57782 0.93465 0.0
C372 C 0.84912 0.55829 0.95957 0.0
C373 C 0.83518 0.56341 0.94982 0.0
C374 C 0.87845 0.58224 0.93923 0.0
C375 C 0.87091 0.56758 0.95429 0.0
C376 C 0.86459 0.58731 0.92957 0.0
C377 C 0.79092 0.60222 0.87542 0.0
C378 C 0.81346 0.60157 0.85032 0.0
C379 C 0.79954 0.62642 0.84886 0.0
C380 C 0.78918 0.61856 0.86599 0.0
C381 C 0.81172 0.61794 0.84081 0.0
C382 C 0.8033 0.5939 0.86754 0.0
C383 C 0.78035 0.59442 0.89366 0.0
O384 O 0.76626 0.55482 0.94024 0.0
O385 O 0.78197 0.58815 0.95117 0.0
O386 O 0.79021 0.60739 0.90788 0.0
O387 O 0.7736 0.57389 0.89736 0.0
H388 H 0.74713 0.58884 0.93665 0.0
H389 H 0.71101 0.5831 0.94249 0.0
H390 H 0.70058 0.5342 0.9836 0.0
H391 H 0.73709 0.5407 0.97813 0.0
H392 H 0.84285 0.54705 0.97117 0.0
H393 H 0.81841 0.55595 0.95393 0.0
H394 H 0.89496 0.58935 0.93447 0.0
H395 H 0.87076 0.59835 0.91782 0.0
H396 H 0.82292 0.59492 0.84456 0.0
H397 H 0.79777 0.63891 0.84176 0.0
H398 H 0.77982 0.62527 0.87189 0.0
H399 H 0.80517 0.58151 0.87471 0.0
C400 C 0.44707 0.18665 0.95388 0.0
C401 C 0.44232 0.16925 0.94178 0.0
C402 C 0.45487 0.15315 0.96522 0.0
C403 C 0.44624 0.15265 0.94739 0.0
C404 C 0.45938 0.17057 0.9773 0.0
C405 C 0.4555 0.18714 0.97166 0.0
U406 U 0.42543 0.21231 0.9196 0.0
O407 O 0.41224 0.23404 0.92407 0.0
O408 O 0.44165 0.24508 0.90745 0.0
C409 C 0.42806 0.25019 0.91498 0.0
C410 C 0.44418 0.20481 0.94791 0.0
C411 C 0.43789 0.27162 0.92393 0.0
C412 C 0.45173 0.29501 0.95118 0.0
C413 C 0.4424 0.27431 0.94315 0.0
C414 C 0.45228 0.31045 0.92084 0.0
C415 C 0.4568 0.31334 0.9401 0.0
C416 C 0.44289 0.28977 0.91286 0.0
C417 C 0.39481 0.18549 0.87652 0.0
C418 C 0.39158 0.20911 0.8538 0.0
C419 C 0.37232 0.17011 0.84899 0.0
C420 C 0.38081 0.16735 0.86577 0.0
C421 C 0.37792 0.19106 0.84275 0.0
C422 C 0.39984 0.20633 0.87059 0.0
C423 C 0.40463 0.18315 0.89375 0.0
O424 O 0.45436 0.21453 0.9325 0.0
O425 O 0.42434 0.20142 0.94862 0.0
O426 O 0.39539 0.18419 0.90926 0.0
O427 O 0.42579 0.19512 0.89424 0.0
H428 H 0.43576 0.16863 0.92797 0.0
H429 H 0.44237 0.13936 0.93785 0.0
H430 H 0.46631 0.17165 0.99101 0.0
H431 H 0.45937 0.20052 0.98112 0.0
H432 H 0.45471 0.29661 0.96611 0.0
H433 H 0.43866 0.26044 0.95191 0.0
H434 H 0.45625 0.32419 0.91185 0.0
H435 H 0.43957 0.28796 0.89797 0.0
H436 H 0.39593 0.22538 0.84942 0.0
H437 H 0.3619 0.15594 0.84064 0.0
H438 H 0.37672 0.15116 0.8702 0.0
H439 H 0.41046 0.22051 0.87884 0.0
C440 C 0.74258 0.18341 0.95303 0.0
C441 C 0.73099 0.16629 0.94045 0.0
C442 C 0.70236 0.14787 0.96335 0.0
C443 C 0.71106 0.14871 0.94554 0.0
C444 C 0.71417 0.16503 0.97596 0.0
C445 C 0.73413 0.18266 0.97082 0.0
U446 U 0.78802 0.21144 0.91804 0.0
O447 O 0.80438 0.2449 0.90753 0.0
O448 O 0.82308 0.23239 0.922 0.0
C449 C 0.82326 0.24925 0.91427 0.0
C450 C 0.76318 0.20228 0.94746 0.0
C451 C 0.83528 0.26985 0.92441 0.0
C452 C 0.83723 0.29586 0.9474 0.0
C453 C 0.82552 0.27579 0.93838 0.0
C454 C 0.86858 0.30401 0.92871 0.0
C455 C 0.85891 0.31024 0.94263 0.0
C456 C 0.85684 0.284 0.91968 0.0
C457 C 0.78972 0.18588 0.87303 0.0
C458 C 0.8146 0.20913 0.84915 0.0
C459 C 0.79808 0.17002 0.84658 0.0
C460 C 0.78703 0.16756 0.86333 0.0
C461 C 0.81185 0.19084 0.83927 0.0
C462 C 0.80375 0.20668 0.86593 0.0
C463 C 0.77848 0.18354 0.89077 0.0
O464 O 0.77973 0.19903 0.9468 0.0
O465 O 0.76198 0.21293 0.9329 0.0
O466 O 0.76977 0.19594 0.89241 0.0
O467 O 0.78919 0.18361 0.90577 0.0
H468 H 0.73727 0.16666 0.92661 0.0
H469 H 0.70228 0.13598 0.93536 0.0
H470 H 0.70808 0.16478 0.98984 0.0
H471 H 0.74292 0.19576 0.98071 0.0
H472 H 0.82923 0.30022 0.95794 0.0
H473 H 0.80883 0.265 0.94218 0.0
H474 H 0.88533 0.31446 0.92495 0.0
H475 H 0.86462 0.27959 0.90895 0.0
H476 H 0.8253 0.22536 0.84398 0.0
H477 H 0.79554 0.15563 0.83918 0.0
H478 H 0.7764 0.15141 0.86869 0.0
H479 H 0.8063 0.22105 0.87337 0.0
C480 C 0.55178 0.81227 0.05518 0.0
C481 C 0.55321 0.82724 0.06872 0.0
C482 C 0.53989 0.84356 0.04619 0.0
C483 C 0.54729 0.84276 0.06426 0.0
C484 C 0.53924 0.82895 0.03255 0.0
C485 C 0.54507 0.81343 0.03703 0.0
U486 U 0.57696 0.78763 0.08681 0.0
O487 O 0.56311 0.75454 0.09782 0.0
O488 O 0.59198 0.7679 0.08016 0.0
C489 C 0.5771 0.75084 0.0891 0.0
C490 C 0.55626 0.79477 0.05994 0.0
C491 C 0.56789 0.7301 0.07909 0.0
C492 C 0.54156 0.70337 0.05776 0.0
C493 C 0.55079 0.72375 0.06638 0.0
C494 C 0.56674 0.69576 0.07426 0.0
C495 C 0.54935 0.68908 0.0617 0.0
C496 C 0.57588 0.71608 0.08289 0.0
C497 C 0.6085 0.81481 0.12981 0.0
C498 C 0.61498 0.79276 0.15197 0.0
C499 C 0.63257 0.8318 0.15615 0.0
C500 C 0.62247 0.83348 0.13997 0.0
C501 C 0.62871 0.81138 0.16242 0.0
C502 C 0.60507 0.79449 0.13573 0.0
C503 C 0.59726 0.81628 0.11316 0.0
O504 O 0.57648 0.79951 0.05845 0.0
O505 O 0.54686 0.78392 0.0752 0.0
O506 O 0.57628 0.80299 0.11321 0.0
O507 O 0.60634 0.81648 0.09717 0.0
H508 H 0.55845 0.82662 0.08282 0.0
H509 H 0.54792 0.85368 0.07511 0.0
H510 H 0.53413 0.82943 0.01837 0.0
H511 H 0.54402 0.8021 0.02638 0.0
H512 H 0.5281 0.69867 0.04828 0.0
H513 H 0.54442 0.73442 0.06333 0.0
H514 H 0.57342 0.68537 0.07733 0.0
H515 H 0.58913 0.7208 0.09265 0.0
H516 H 0.61189 0.77688 0.15638 0.0
H517 H 0.64291 0.8464 0.16405 0.0
H518 H 0.62533 0.84928 0.13553 0.0
H519 H 0.59448 0.77991 0.12791 0.0
C520 C 0.26104 0.81996 0.04909 0.0
C521 C 0.269 0.84006 0.05811 0.0
C522 C 0.30268 0.85452 0.04081 0.0
C523 C 0.28959 0.85721 0.05395 0.0
C524 C 0.29433 0.83449 0.03143 0.0
C525 C 0.27368 0.81735 0.03556 0.0
U526 U 0.21581 0.79319 0.08423 0.0
O527 O 0.18085 0.7713 0.08107 0.0
O528 O 0.20048 0.76043 0.09636 0.0
C529 C 0.1813 0.75525 0.08982 0.0
C530 C 0.24046 0.8012 0.05485 0.0
C531 C 0.16912 0.73368 0.08121 0.0
C532 C 0.15729 0.70979 0.05421 0.0
C533 C 0.1694 0.73061 0.06189 0.0
C534 C 0.14484 0.69501 0.08515 0.0
C535 C 0.14485 0.69174 0.06577 0.0
C536 C 0.15685 0.71579 0.09276 0.0
C537 C 0.21438 0.82017 0.12824 0.0
C538 C 0.19015 0.79712 0.15255 0.0
C539 C 0.20589 0.8362 0.15445 0.0
C540 C 0.21677 0.83854 0.13763 0.0
C541 C 0.19259 0.81545 0.16212 0.0
C542 C 0.20083 0.79945 0.13571 0.0
C543 C 0.22541 0.82228 0.11044 0.0
O544 O 0.24182 0.7912 0.06979 0.0
O545 O 0.22371 0.80418 0.05507 0.0
O546 O 0.21422 0.82124 0.09545 0.0
O547 O 0.23465 0.81032 0.10916 0.0
H548 H 0.25948 0.84232 0.06868 0.0
H549 H 0.29535 0.8725 0.06122 0.0
H550 H 0.30403 0.83176 0.0214 0.0
H551 H 0.26784 0.80187 0.02859 0.0
H552 H 0.15744 0.70789 0.03921 0.0
H553 H 0.17883 0.74428 0.05276 0.0
H554 H 0.13574 0.68148 0.09448 0.0
H555 H 0.15655 0.71791 0.10774 0.0
H556 H 0.1798 0.78095 0.158 0.0
H557 H 0.20816 0.85062 0.16162 0.0
H558 H 0.22704 0.85463 0.13198 0.0
H559 H 0.19851 0.78503 0.1285 0.0
C560 C 0.18701 0.44096 0.04331 0.0
C561 C 0.16675 0.42745 0.05138 0.0
C562 C 0.15233 0.44846 0.03675 0.0
C563 C 0.14958 0.43106 0.04803 0.0
C564 C 0.17247 0.4616 0.02822 0.0
C565 C 0.1897 0.45788 0.03151 0.0
U566 U 0.21328 0.42583 0.08076 0.0
O567 O 0.22987 0.40679 0.08107 0.0
O568 O 0.24669 0.44058 0.09101 0.0
C569 C 0.24812 0.42327 0.08708 0.0
C570 C 0.20565 0.43869 0.04883 0.0
C571 C 0.26762 0.42723 0.07703 0.0
C572 C 0.29209 0.44157 0.05062 0.0
C573 C 0.2731 0.4377 0.05962 0.0
C574 C 0.30002 0.4244 0.07633 0.0
C575 C 0.30575 0.43491 0.05889 0.0
C576 C 0.28116 0.4206 0.08527 0.0
C577 C 0.18086 0.40812 0.12669 0.0
C578 C 0.18065 0.38438 0.15123 0.0
C579 C 0.16752 0.40923 0.15762 0.0
C580 C 0.17207 0.41675 0.13923 0.0
C581 C 0.17155 0.3928 0.16377 0.0
C582 C 0.18536 0.39203 0.13286 0.0
C583 C 0.18443 0.4157 0.10718 0.0
O584 O 0.21787 0.45231 0.06193 0.0
O585 O 0.20138 0.41866 0.05178 0.0
O586 O 0.1833 0.40183 0.09444 0.0
O587 O 0.20036 0.43557 0.10444 0.0
H588 H 0.16432 0.41441 0.0607 0.0
H589 H 0.1342 0.42037 0.05453 0.0
H590 H 0.17518 0.47525 0.01959 0.0
H591 H 0.20528 0.46863 0.02535 0.0
H592 H 0.29597 0.44957 0.03716 0.0
H593 H 0.26276 0.44289 0.05305 0.0
H594 H 0.31034 0.41943 0.08328 0.0
H595 H 0.27721 0.4126 0.09875 0.0
H596 H 0.18422 0.37191 0.15565 0.0
H597 H 0.16036 0.41591 0.16689 0.0
H598 H 0.16844 0.42914 0.13471 0.0
H599 H 0.19229 0.38523 0.12347 0.0
C600 C 0.40899 0.898 0.2883 0.0
C601 C 0.40304 0.91197 0.27966 0.0
C602 C 0.36819 0.89359 0.29535 0.0
C603 C 0.38285 0.90986 0.28322 0.0
C604 C 0.37443 0.87984 0.30412 0.0
C605 C 0.39465 0.88207 0.30064 0.0
U606 U 0.45643 0.91273 0.25569 0.0
O607 O 0.49082 0.92543 0.26168 0.0
O608 O 0.47171 0.89346 0.24832 0.0
C609 C 0.49022 0.90752 0.25602 0.0
C610 C 0.4295 0.89899 0.28388 0.0
C611 C 0.50002 0.89835 0.26854 0.0
C612 C 0.51455 0.89621 0.29875 0.0
C613 C 0.50335 0.90358 0.28766 0.0
C614 C 0.51819 0.87739 0.27201 0.0
C615 C 0.52241 0.88335 0.29095 0.0
C616 C 0.50717 0.88489 0.26092 0.0
C617 C 0.46146 0.93922 0.20875 0.0
C618 C 0.48443 0.93839 0.18415 0.0
C619 C 0.47146 0.96401 0.18249 0.0
C620 C 0.46055 0.95606 0.19939 0.0
C621 C 0.48337 0.95513 0.17462 0.0
C622 C 0.47369 0.93061 0.20114 0.0
C623 C 0.44979 0.93086 0.22645 0.0
O624 O 0.42848 0.88638 0.27002 0.0
O625 O 0.44668 0.91849 0.28326 0.0
O626 O 0.46006 0.94188 0.24148 0.0
O627 O 0.44047 0.90971 0.22868 0.0
H628 H 0.41388 0.92432 0.27 0.0
H629 H 0.37873 0.92093 0.27643 0.0
H630 H 0.36348 0.86692 0.31329 0.0
H631 H 0.39893 0.87102 0.3073 0.0
H632 H 0.51744 0.90092 0.31334 0.0
H633 H 0.49781 0.91378 0.29394 0.0
H634 H 0.5243 0.86778 0.26551 0.0
H635 H 0.50477 0.88068 0.2462 0.0
H636 H 0.49366 0.93141 0.17853 0.0
H637 H 0.47018 0.97678 0.17538 0.0
H638 H 0.45129 0.96298 0.20509 0.0
H639 H 0.47486 0.91778 0.20828 0.0
C640 C 0.11528 0.522 0.28993 0.0
C641 C 0.10581 0.50172 0.28096 0.0
C642 C 0.12629 0.49061 0.30096 0.0
C643 C 0.11125 0.48612 0.28644 0.0
C644 C 0.13567 0.51103 0.30983 0.0
C645 C 0.13018 0.52652 0.30438 0.0
U646 U 0.09081 0.5449 0.25549 0.0
O647 O 0.07586 0.56509 0.25998 0.0
O648 O 0.1054 0.57758 0.24328 0.0
C649 C 0.09107 0.58166 0.25078 0.0
C650 C 0.11075 0.53906 0.28382 0.0
C651 C 0.09982 0.6031 0.25953 0.0
C652 C 0.11354 0.62716 0.28639 0.0
C653 C 0.10506 0.6064 0.2786 0.0
C654 C 0.11173 0.64141 0.25607 0.0
C655 C 0.11703 0.64494 0.27518 0.0
C656 C 0.10318 0.62069 0.24836 0.0
C657 C 0.06142 0.51739 0.21218 0.0
C658 C 0.05729 0.54037 0.18935 0.0
C659 C 0.03928 0.5014 0.18456 0.0
C660 C 0.04796 0.49906 0.2014 0.0
C661 C 0.04416 0.52214 0.17827 0.0
C662 C 0.06572 0.53799 0.2062 0.0
C663 C 0.07146 0.51553 0.22949 0.0
O664 O 0.12057 0.54908 0.26839 0.0
O665 O 0.09044 0.53426 0.28446 0.0
O666 O 0.06172 0.51584 0.24495 0.0
O667 O 0.0925 0.5284 0.23017 0.0
H668 H 0.09434 0.49803 0.26966 0.0
H669 H 0.10356 0.47051 0.27944 0.0
H670 H 0.14759 0.51524 0.32081 0.0
H671 H 0.13782 0.54219 0.3113 0.0
H672 H 0.11716 0.62922 0.3012 0.0
H673 H 0.10259 0.59297 0.28744 0.0
H674 H 0.1145 0.65473 0.24697 0.0
H675 H 0.09929 0.6184 0.23358 0.0
H676 H 0.06108 0.55647 0.18495 0.0
H677 H 0.02927 0.4871 0.1762 0.0
H678 H 0.04442 0.48304 0.20587 0.0
H679 H 0.07591 0.55232 0.21447 0.0
C680 C 0.41086 0.51726 0.28943 0.0
C681 C 0.40332 0.49712 0.28059 0.0
C682 C 0.36985 0.4819 0.29833 0.0
C683 C 0.38307 0.47958 0.28506 0.0
C684 C 0.37774 0.50203 0.30745 0.0
C685 C 0.39807 0.51954 0.30302 0.0
U686 U 0.45522 0.54619 0.25363 0.0
O687 O 0.47122 0.57989 0.24369 0.0
O688 O 0.49042 0.56702 0.2567 0.0
C689 C 0.49037 0.58403 0.24952 0.0
C690 C 0.43134 0.53628 0.28375 0.0
C691 C 0.50315 0.60459 0.25957 0.0
C692 C 0.50695 0.63056 0.28341 0.0
C693 C 0.49454 0.61047 0.27455 0.0
C694 C 0.53666 0.63886 0.26249 0.0
C695 C 0.52815 0.64502 0.27743 0.0
C696 C 0.52424 0.61883 0.25364 0.0
C697 C 0.45499 0.52159 0.20746 0.0
C698 C 0.47756 0.54505 0.1825 0.0
C699 C 0.46424 0.50632 0.18114 0.0
C700 C 0.45363 0.5036 0.19817 0.0
C701 C 0.47625 0.52708 0.17312 0.0
C702 C 0.46717 0.54236 0.19958 0.0
C703 C 0.44453 0.51895 0.22569 0.0
O704 O 0.44795 0.53317 0.28224 0.0
O705 O 0.42968 0.54734 0.26975 0.0
O706 O 0.43592 0.53132 0.22833 0.0
O707 O 0.4558 0.51862 0.24012 0.0
H708 H 0.41294 0.49507 0.26999 0.0
H709 H 0.37771 0.46424 0.27799 0.0
H710 H 0.36794 0.50451 0.31755 0.0
H711 H 0.40358 0.53503 0.30988 0.0
H712 H 0.49984 0.63487 0.29477 0.0
H713 H 0.47823 0.59963 0.27926 0.0
H714 H 0.55303 0.64938 0.25776 0.0
H715 H 0.53112 0.61447 0.24211 0.0
H716 H 0.48691 0.56125 0.17676 0.0
H717 H 0.46284 0.49216 0.17412 0.0
H718 H 0.44446 0.48749 0.20412 0.0
H719 H 0.46874 0.55654 0.20668 0.0
O720 O 0.49112 0.97769 0.953 0.0
Mg721 Mg 0.51498 0.9812 0.9718 0.0
O722 O 0.49392 0.00476 0.96969 0.0
Mg723 Mg 0.50221 0.99945 0.00081 0.0
O724 O 0.50589 0.96826 0.99778 0.0
O725 O 0.51552 0.95332 0.9747 0.0
O726 O 0.5105 0.99263 0.03191 0.0
O727 O 0.4659 0.97533 0.00511 0.0
Mg728 Mg 0.49503 0.01526 0.02773 0.0
O729 O 0.49717 0.03085 0.00321 0.0
O730 O 0.52289 0.0246 0.04403 0.0
O731 O 0.46576 0.98578 0.03385 0.0
O732 O 0.48789 0.03885 0.03079 0.0
C733 C 0.55198 0.02446 0.98361 0.0
C734 C 0.48835 0.99377 0.95454 0.0
C735 C 0.50932 0.95296 0.99167 0.0
C736 C 0.52052 0.00588 0.0452 0.0
C737 C 0.4562 0.97257 0.02058 0.0
C738 C 0.49146 0.04253 0.01319 0.0
O739 O 0.5458 0.00951 0.97145 0.0
O740 O 0.53896 0.02376 0.99613 0.0
O741 O 0.03124 0.51031 0.96048 0.0
Mg742 Mg 0.02417 0.52975 0.97762 0.0
O743 O 1.00008 0.48847 0.97285 0.0
Mg744 Mg 0.00375 0.50033 0.00442 0.0
O745 O 0.03518 0.53558 0.00435 0.0
O746 O 0.05096 0.55881 0.98048 0.0
O747 O 0.00738 0.51251 0.03606 0.0
O748 O 0.02738 0.48759 0.00918 0.0
Mg749 Mg 0.9858 0.4718 0.03102 0.0
O750 O 0.97254 0.46461 0.00483 0.0
O751 O 0.97673 0.48935 0.04849 0.0
O752 O 0.01486 0.47085 0.03589 0.0
O753 O 0.96075 0.4416 0.02925 0.0
C754 C 0.98099 0.52554 0.98526 0.0
C755 C 0.01338 0.49302 0.95947 0.0
C756 C 0.05039 0.55412 0.99795 0.0
C757 C 0.99398 0.50725 0.04946 0.0
C758 C 0.02913 0.47765 0.02326 0.0
C759 C 0.95894 0.44576 0.01202 0.0
O760 O 0.99631 0.53281 0.97356 0.0
O761 O 0.98055 0.51371 0.99886 0.0
O762 O 0.52064 0.49368 0.04833 0.0
Mg763 Mg 0.4951 0.47032 0.03222 0.0
O764 O 0.51092 0.51411 0.03321 0.0
Mg765 Mg 0.50284 0.50057 0.0022 0.0
O766 O 0.50158 0.46704 0.00531 0.0
O767 O 0.49686 0.44313 0.02786 0.0
O768 O 0.49475 0.48642 0.9713 0.0
O769 O 0.53928 0.5155 0.99636 0.0
Mg770 Mg 0.51002 0.52766 0.97266 0.0
O771 O 0.50454 0.53468 0.99904 0.0
O772 O 0.4834 0.50562 0.95662 0.0
O773 O 0.54109 0.53057 0.96897 0.0
O774 O 0.51103 0.55639 0.97415 0.0
C775 C 0.45511 0.47314 0.02212 0.0
C776 C 0.51943 0.51073 0.0476 0.0
C777 C 0.50034 0.4489 0.01055 0.0
C778 C 0.48547 0.48907 0.95712 0.0
C779 C 0.54992 0.52528 0.9818 0.0
C780 C 0.50699 0.55259 0.99173 0.0
O781 O 0.4635 0.46619 0.034 0.0
O782 O 0.46622 0.48528 0.00859 0.0
O783 O 0.15155 0.31275 0.2905 0.0
Mg784 Mg 0.17807 0.31779 0.30677 0.0
O785 O 0.16252 0.34322 0.3053 0.0
Mg786 Mg 0.16999 0.3354 0.33597 0.0
O787 O 0.17295 0.30358 0.33234 0.0
O788 O 0.18045 0.29076 0.3064 0.0
O789 O 0.17719 0.32675 0.3665 0.0
O790 O 0.1334 0.31222 0.34015 0.0
Mg791 Mg 0.16298 0.35147 0.36444 0.0
O792 O 0.16677 0.36747 0.33978 0.0
O793 O 0.18992 0.35755 0.38094 0.0
O794 O 0.13248 0.32274 0.36881 0.0
O795 O 0.15894 0.3772 0.36728 0.0
C796 C 0.21739 0.36025 0.31666 0.0
C797 C 0.15319 0.33119 0.29115 0.0
C798 C 0.17619 0.28914 0.32401 0.0
C799 C 0.18695 0.33856 0.38062 0.0
C800 C 0.12317 0.30976 0.35531 0.0
C801 C 0.16274 0.38049 0.34965 0.0
O802 O 0.20863 0.34654 0.30353 0.0
O803 O 0.20674 0.35856 0.33145 0.0
O804 O 0.69024 0.85995 0.28851 0.0
Mg805 Mg 0.69001 0.87937 0.31034 0.0
O806 O 0.67124 0.82974 0.30475 0.0
Mg807 Mg 0.67213 0.83864 0.33656 0.0
O808 O 0.70139 0.87362 0.33443 0.0
O809 O 0.71892 0.90481 0.31862 0.0
O810 O 0.67527 0.85015 0.3685 0.0
O811 O 0.69751 0.82809 0.34088 0.0
Mg812 Mg 0.65563 0.81073 0.36254 0.0
O813 O 0.64229 0.80175 0.33657 0.0
O814 O 0.64405 0.82654 0.3796 0.0
O815 O 0.68585 0.8124 0.36809 0.0
O816 O 0.63264 0.77953 0.36147 0.0
C817 C 0.64549 0.86527 0.32493 0.0
C818 C 0.6798 0.83944 0.28944 0.0
C819 C 0.71765 0.89324 0.33297 0.0
C820 C 0.66122 0.84438 0.38141 0.0
C821 C 0.70003 0.81923 0.35539 0.0
C822 C 0.63005 0.78276 0.34417 0.0
O823 O 0.66137 0.88002 0.31603 0.0
O824 O 0.64634 0.84932 0.33226 0.0
O825 O 0.19232 0.83174 0.37746 0.0
Mg826 Mg 0.16467 0.80987 0.36232 0.0
O827 O 0.17799 0.84982 0.36573 0.0
Mg828 Mg 0.16896 0.83701 0.33453 0.0
O829 O 0.16699 0.80256 0.3353 0.0
O830 O 0.16351 0.78112 0.35973 0.0
O831 O 0.15966 0.82465 0.30325 0.0
O832 O 0.20515 0.85185 0.32766 0.0
Mg833 Mg 0.17751 0.86832 0.30581 0.0
O834 O 0.17124 0.87119 0.33307 0.0
O835 O 0.15137 0.84681 0.28927 0.0
O836 O 0.2086 0.87128 0.30241 0.0
O837 O 0.17714 0.89606 0.31102 0.0
C838 C 0.12374 0.81191 0.35695 0.0
C839 C 0.18868 0.84728 0.37881 0.0
C840 C 0.16528 0.7847 0.34198 0.0
C841 C 0.1515 0.82917 0.28925 0.0
C842 C 0.21652 0.8637 0.31414 0.0
C843 C 0.17324 0.88978 0.32819 0.0
O844 O 0.13406 0.8068 0.36844 0.0
O845 O 0.13273 0.82196 0.3419 0.0
O846 O 0.82989 0.6461 0.61812 0.0
Mg847 Mg 0.85082 0.64533 0.63809 0.0
O848 O 0.8274 0.67013 0.63582 0.0
Mg849 Mg 0.8352 0.66576 0.66723 0.0
O850 O 0.83758 0.6344 0.66366 0.0
O851 O 0.84674 0.61561 0.64427 0.0
O852 O 0.84265 0.65897 0.69853 0.0
O853 O 0.79862 0.64275 0.67165 0.0
Mg854 Mg 0.82798 0.683 0.6945 0.0
O855 O 0.83207 0.69817 0.6694 0.0
O856 O 0.85495 0.69057 0.7114 0.0
O857 O 0.79762 0.65448 0.69977 0.0
O858 O 0.82353 0.7085 0.69626 0.0
C859 C 0.88666 0.68861 0.65227 0.0
C860 C 0.82467 0.66053 0.6201 0.0
C861 C 0.83945 0.61744 0.66022 0.0
C862 C 0.85228 0.67173 0.71221 0.0
C863 C 0.78837 0.6409 0.68667 0.0
C864 C 0.82782 0.71141 0.67869 0.0
O865 O 0.88194 0.67287 0.64121 0.0
O866 O 0.87226 0.68891 0.66261 0.0
O867 O 0.36213 0.17811 0.62317 0.0
Mg868 Mg 0.35761 0.1988 0.64103 0.0
O869 O 0.33264 0.1558 0.63788 0.0
Mg870 Mg 0.33713 0.1681 0.66915 0.0
O871 O 0.36867 0.2028 0.66775 0.0
O872 O 0.38539 0.22695 0.6447 0.0
O873 O 0.34188 0.18113 0.70061 0.0
O874 O 0.3604 0.15495 0.67374 0.0
Mg875 Mg 0.31949 0.14101 0.69585 0.0
O876 O 0.30551 0.13242 0.67004 0.0
O877 O 0.31079 0.1592 0.71295 0.0
O878 O 0.34802 0.13912 0.70079 0.0
O879 O 0.29443 0.11081 0.69535 0.0
C880 C 0.31472 0.19459 0.65099 0.0
C881 C 0.34467 0.16033 0.62356 0.0
C882 C 0.38444 0.22137 0.66198 0.0
C883 C 0.3285 0.17664 0.71391 0.0
C884 C 0.36202 0.14514 0.68798 0.0
C885 C 0.29223 0.11392 0.67794 0.0
O886 O 0.32992 0.2025 0.63913 0.0
O887 O 0.31428 0.18195 0.66387 0.0
O888 O 0.85972 0.16632 0.70946 0.0
Mg889 Mg 0.83112 0.14511 0.69494 0.0
O890 O 0.84454 0.18379 0.69828 0.0
Mg891 Mg 0.83577 0.16976 0.66724 0.0
O892 O 0.83196 0.1343 0.66891 0.0
O893 O 0.82706 0.11504 0.69521 0.0
O894 O 0.82687 0.15603 0.6361 0.0
O895 O 0.87195 0.18271 0.66159 0.0
Mg896 Mg 0.84447 0.19716 0.63874 0.0
O897 O 0.83978 0.20509 0.66501 0.0
O898 O 0.81725 0.17722 0.62247 0.0
O899 O 0.8745 0.19808 0.63428 0.0
O900 O 0.84817 0.22704 0.64 0.0
C901 C 0.79116 0.14862 0.68955 0.0
C902 C 0.85571 0.18158 0.71112 0.0
C903 C 0.82888 0.11667 0.67728 0.0
C904 C 0.818 0.15993 0.62227 0.0
C905 C 0.88279 0.19208 0.64702 0.0
C906 C 0.84376 0.22348 0.65754 0.0
O907 O 0.80175 0.14451 0.70156 0.0
O908 O 0.79952 0.15645 0.67369 0.0
H909 H 0.33196 0.88158 0.06684 0.0
H910 H 0.42898 0.94328 0.99436 0.0
H911 H 0.32524 0.86741 0.00772 0.0
H912 H 0.43224 0.96086 0.05253 0.0
H913 H 0.39154 0.9144 0.99894 0.0
H914 H 0.36916 0.90995 0.06176 0.0
C915 C 0.33821 0.88457 0.05273 0.0
C916 C 0.32531 0.87213 0.03767 0.0
C917 C 0.40048 0.92459 0.01069 0.0
C918 C 0.36826 0.90449 0.03179 0.0
C919 C 0.42187 0.94104 0.0081 0.0
C920 C 0.43378 0.95456 0.02308 0.0
C921 C 0.39098 0.92159 0.02839 0.0
C922 C 0.4237 0.95091 0.04056 0.0
C923 C 0.35956 0.9007 0.04986 0.0
C924 C 0.3346 0.87645 0.01978 0.0
N925 N 0.40294 0.9348 0.04271 0.0
N926 N 0.3555 0.89227 0.01733 0.0
H927 H 0.12442 0.44657 0.0637 0.0
H928 H 0.06058 0.48624 0.99733 0.0
H929 H 0.13968 0.46184 0.00537 0.0
H930 H 0.04006 0.46068 0.0529 0.0
H931 H 0.09097 0.47969 0.00039 0.0
H932 H 0.09474 0.45386 0.06032 0.0
C933 C 0.12143 0.45128 0.05011 0.0
C934 C 0.13447 0.45334 0.03474 0.0
C935 C 0.07979 0.47551 0.01189 0.0
C936 C 0.10058 0.46214 0.03086 0.0
C937 C 0.06246 0.47928 0.01018 0.0
C938 C 0.0477 0.47396 0.02488 0.0
C939 C 0.08247 0.4665 0.02845 0.0
C940 C 0.05096 0.46497 0.04118 0.0
C941 C 0.10453 0.45558 0.04823 0.0
C942 C 0.13014 0.46014 0.01763 0.0
N943 N 0.06799 0.46157 0.04253 0.0
N944 N 0.11353 0.46426 0.01613 0.0
H945 H 0.5412 0.65031 0.07719 0.0
H946 H 0.50128 0.5859 0.98042 0.0
H947 H 0.53528 0.67831 0.02549 0.0
H948 H 0.51454 0.55914 0.02948 0.0
H949 H 0.50829 0.61784 0.99842 0.0
H950 H 0.52698 0.61523 0.06142 0.0
C951 C 0.53692 0.64911 0.06253 0.0
C952 C 0.53962 0.66738 0.05262 0.0
C953 C 0.50944 0.60491 0.00536 0.0
C954 C 0.52301 0.62718 0.0346 0.0
C955 C 0.50537 0.58661 0.9951 0.0
C956 C 0.50746 0.56989 0.00347 0.0
C957 C 0.51583 0.60666 0.02414 0.0
C958 C 0.51263 0.57161 0.02255 0.0
C959 C 0.52867 0.62903 0.05358 0.0
C960 C 0.53334 0.6647 0.03376 0.0
N961 N 0.51691 0.58983 0.03223 0.0
N962 N 0.52545 0.64503 0.02536 0.0
H963 H 0.8583 0.31913 0.97979 0.0
H964 H 0.95643 0.44128 0.97376 0.0
H965 H 0.88852 0.34968 0.92772 0.0
H966 H 0.92287 0.41004 0.02446 0.0
H967 H 0.93016 0.40929 0.95594 0.0
H968 H 0.88032 0.35356 0.99582 0.0
C969 C 0.86938 0.33314 0.97167 0.0
C970 C 0.87158 0.33143 0.95237 0.0
C971 C 0.92844 0.40959 0.97094 0.0
C972 C 0.89723 0.37101 0.97075 0.0
C973 C 0.94334 0.42789 0.98106 0.0
C974 C 0.94191 0.42825 0.00058 0.0
C975 C 0.91208 0.39162 0.9805 0.0
C976 C 0.92476 0.41038 0.00944 0.0
C977 C 0.88208 0.35282 0.98086 0.0
C978 C 0.88654 0.35014 0.94267 0.0
N979 N 0.91065 0.39278 -0.00064 0.0
N980 N 0.89888 0.36912 0.95198 0.0
H981 H 0.67429 0.55686 0.93697 0.0
H982 H 0.57586 0.52072 0.00771 0.0
H983 H 0.6797 0.54893 0.99623 0.0
H984 H 0.57563 0.54124 0.95095 0.0
H985 H 0.61317 0.52893 0.00355 0.0
H986 H 0.63746 0.54938 0.94164 0.0
C987 C 0.66785 0.55375 0.95101 0.0
C988 C 0.68027 0.55365 0.96624 0.0
C989 C 0.60494 0.53168 0.99203 0.0
C990 C 0.63775 0.54461 0.97162 0.0
C991 C 0.58363 0.52695 0.99438 0.0
C992 C 0.57257 0.53031 0.97966 0.0
C993 C 0.61523 0.53965 0.9748 0.0
C994 C 0.58349 0.53845 0.96271 0.0
C995 C 0.64672 0.54933 0.95364 0.0
C996 C 0.67072 0.54894 0.98403 0.0
N997 N 0.60416 0.54276 0.96074 0.0
N998 N 0.65004 0.54459 0.98622 0.0
H999 H 0.44729 0.13379 -0.00055 0.0
H1000 H 0.49259 0.05374 0.97586 0.0
H1001 H 0.47235 0.13267 0.94495 0.0
H1002 H 0.48147 0.06982 0.03138 0.0
H1003 H 0.48316 0.0802 0.96307 0.0
H1004 H 0.45672 0.10712 0.01019 0.0
C1005 C 0.45488 0.128 0.98974 0.0
C1006 C 0.4593 0.13574 0.97134 0.0
C1007 C 0.48292 0.0779 0.97804 0.0
C1008 C 0.47006 0.10488 0.98354 0.0
C1009 C 0.48836 0.06289 0.98534 0.0
C1010 C 0.48777 0.05946 0.00472 0.0
C1011 C 0.47672 0.08931 0.99026 0.0
C1012 C 0.48209 0.07173 0.01635 0.0
C1013 C 0.46023 0.11269 0.99586 0.0
C1014 C 0.46861 0.12711 0.95925 0.0
N1015 N 0.47672 0.08592 0.00894 0.0
N1016 N 0.47378 0.11218 0.96558 0.0
H1017 H 0.68614 0.1048 0.95525 0.0
H1018 H 0.57048 0.06395 0.002 0.0
H1019 H 0.66972 0.14832 0.98335 0.0
H1020 H 0.58505 0.02632 0.96348 0.0
H1021 H 0.60784 0.09401 0.99895 0.0
H1022 H 0.65017 0.07472 0.96187 0.0
C1023 C 0.67496 0.10806 0.96278 0.0
C1024 C 0.68094 0.12922 0.96853 0.0
C1025 C 0.60279 0.0791 0.99124 0.0
C1026 C 0.63961 0.09465 0.97638 0.0
C1027 C 0.58152 0.06195 0.99301 0.0
C1028 C 0.57456 0.04263 0.98289 0.0
C1029 C 0.61717 0.07676 0.97943 0.0
C1030 C 0.58957 0.04094 0.97145 0.0
C1031 C 0.65441 0.09083 0.96664 0.0
C1032 C 0.66587 0.13229 0.97871 0.0
N1033 N 0.61007 0.05773 0.97004 0.0
N1034 N 0.64585 0.11521 0.98223 0.0
H1035 H 0.86232 0.5272 0.9664 0.0
H1036 H 0.9852 0.56144 0.96809 0.0
H1037 H 0.91351 0.59401 0.96329 0.0
H1038 H 0.93902 0.50435 0.99801 0.0
H1039 H 0.95792 0.57205 0.96409 0.0
H1040 H 0.88874 0.517 0.97703 0.0
C1041 C 0.87899 0.53978 0.96827 0.0
C1042 C 0.88577 0.56146 0.96358 0.0
C1043 C 0.95374 0.55727 0.97165 0.0
C1044 C 0.91597 0.54979 0.9753 0.0
C1045 C 0.96927 0.5511 0.97382 0.0
C1046 C 0.96433 0.53193 0.98332 0.0
C1047 C 0.93291 0.54399 0.9787 0.0
C1048 C 0.94345 0.51927 0.9906 0.0
C1049 C 0.89404 0.53391 0.97425 0.0
C1050 C 0.90762 0.57702 0.96619 0.0
N1051 N 0.92834 0.52539 0.98793 0.0
N1052 N 0.92196 0.57083 0.97158 0.0
H1053 H 0.48787 0.33074 0.96748 0.0
H1054 H 0.48606 0.44228 0.97424 0.0
H1055 H 0.4485 0.34629 0.93195 0.0
H1056 H 0.51326 0.41939 0.01632 0.0
H1057 H 0.47866 0.41092 0.95465 0.0
H1058 H 0.50287 0.36642 0.98209 0.0
C1059 C 0.48233 0.34162 0.96276 0.0
C1060 C 0.46671 0.33536 0.94858 0.0
C1061 C 0.48658 0.413 0.96804 0.0
C1062 C 0.48415 0.37648 0.96506 0.0
C1063 C 0.49105 0.43102 0.97909 0.0
C1064 C 0.50021 0.43333 0.9969 0.0
C1065 C 0.49144 0.39736 0.9749 0.0
C1066 C 0.50602 0.41808 0.00271 0.0
C1067 C 0.49105 0.36208 0.97101 0.0
C1068 C 0.4606 0.35043 0.94274 0.0
N1069 N 0.50137 0.40066 0.99182 0.0
N1070 N 0.46923 0.37024 0.95108 0.0
H1071 H 0.10428 0.6596 0.07592 0.0
H1072 H 0.09161 0.58402 0.9896 0.0
H1073 H 0.15572 0.6733 0.03724 0.0
H1074 H 0.0453 0.56287 0.03433 0.0
H1075 H 0.11598 0.61596 0.00787 0.0
H1076 H 0.0829 0.62363 0.06187 0.0
C1077 C 0.1112 0.65499 0.06461 0.0
C1078 C 0.13183 0.66961 0.05769 0.0
C1079 C 0.10066 0.60422 0.01388 0.0
C1080 C 0.10729 0.62849 0.04142 0.0
C1081 C 0.08676 0.58597 0.00346 0.0
C1082 C 0.06643 0.57089 0.01048 0.0
C1083 C 0.09404 0.60769 0.03135 0.0
C1084 C 0.06092 0.5741 0.02851 0.0
C1085 C 0.09894 0.63444 0.05658 0.0
C1086 C 0.13977 0.66279 0.04281 0.0
N1087 N 0.07454 0.59239 0.03825 0.0
N1088 N 0.12744 0.64281 0.03512 0.0
H1089 H 0.32233 0.40766 0.05665 0.0
H1090 H 0.43348 0.49325 0.00817 0.0
H1091 H 0.33562 0.47161 0.04023 0.0
H1092 H 0.42437 0.43847 0.04117 0.0
H1093 H 0.39568 0.48301 0.01422 0.0
H1094 H 0.35764 0.41607 0.04503 0.0
C1095 C 0.33267 0.42349 0.05056 0.0
C1096 C 0.32613 0.4391 0.04976 0.0
C1097 C 0.40201 0.47322 0.02 0.0
C1098 C 0.36665 0.44878 0.03622 0.0
C1099 C 0.4235 0.47899 0.01651 0.0
C1100 C 0.43212 0.46679 0.02431 0.0
C1101 C 0.38908 0.45495 0.03108 0.0
C1102 C 0.41851 0.4485 0.03504 0.0
C1103 C 0.35282 0.42825 0.04387 0.0
C1104 C 0.34 0.4591 0.04117 0.0
N1105 N 0.39774 0.44317 0.03809 0.0
N1106 N 0.35973 0.46346 0.03487 0.0
H1107 H 0.55714 0.88625 0.05738 0.0
H1108 H 0.48939 0.91027 0.98346 0.0
H1109 H 0.50526 0.83636 0.02457 0.0
H1110 H 0.52622 0.95623 0.02679 0.0
H1111 H 0.49362 0.88251 -0.00024 0.0
H1112 H 0.5454 0.91188 0.0478 0.0
C1113 C 0.54316 0.8806 0.04834 0.0
C1114 C 0.5324 0.85916 0.04153 0.0
C1115 C 0.50045 0.8985 0.00599 0.0
C1116 C 0.519 0.88845 0.03045 0.0
C1117 C 0.49793 0.9143 0.99671 0.0
C1118 C 0.50742 0.93544 0.00387 0.0
C1119 C 0.5131 0.90402 0.02231 0.0
C1120 C 0.51851 0.93999 0.02097 0.0
C1121 C 0.53648 0.89525 0.04288 0.0
C1122 C 0.51445 0.85284 0.02977 0.0
N1123 N 0.52144 0.92447 0.02947 0.0
N1124 N 0.50848 0.86744 0.02449 0.0
H1125 H 0.99807 0.2187 0.39993 0.0
H1126 H 0.09705 0.2795 0.32914 0.0
H1127 H 0.99447 0.20024 0.34197 0.0
H1128 H 0.0976 0.29953 0.3862 0.0
H1129 H 0.05962 0.25036 0.33325 0.0
H1130 H 0.0345 0.24863 0.39476 0.0
C1131 C 0.00481 0.22107 0.38603 0.0
C1132 C 0.99305 0.20688 0.37136 0.0
C1133 C 0.06795 0.26118 0.34484 0.0
C1134 C 0.03519 0.24107 0.3654 0.0
C1135 C 0.08933 0.2778 0.34252 0.0
C1136 C 0.10053 0.292 0.35735 0.0
C1137 C 0.05773 0.25872 0.36214 0.0
C1138 C 0.08967 0.28901 0.37436 0.0
C1139 C 0.02574 0.23811 0.38312 0.0
C1140 C 0.00297 0.21058 0.35376 0.0
N1141 N 0.06895 0.27272 0.37627 0.0
N1142 N 0.02347 0.22728 0.35128 0.0
H1143 H 0.79558 0.78926 0.39688 0.0
H1144 H 0.73112 0.82708 0.32927 0.0
H1145 H 0.80905 0.80097 0.33794 0.0
H1146 H 0.71231 0.80482 0.38589 0.0
H1147 H 0.76169 0.82081 0.33261 0.0
H1148 H 0.76691 0.79803 0.39348 0.0
C1149 C 0.79242 0.79355 0.38316 0.0
C1150 C 0.80458 0.79409 0.36761 0.0
C1151 C 0.75088 0.81735 0.34429 0.0
C1152 C 0.77186 0.80452 0.36368 0.0
C1153 C 0.73346 0.82097 0.34242 0.0
C1154 C 0.71907 0.81637 0.3573 0.0
C1155 C 0.75399 0.80922 0.3612 0.0
C1156 C 0.7229 0.80849 0.37401 0.0
C1157 C 0.7761 0.79868 0.38126 0.0
C1158 C 0.80013 0.80039 0.35031 0.0
N1159 N 0.73996 0.80516 0.37549 0.0
N1160 N 0.78405 0.80529 0.34879 0.0
H1161 H 0.18651 0.00741 0.37347 0.0
H1162 H 0.19061 0.89735 0.36331 0.0
H1163 H 0.23032 0.99398 0.40475 0.0
H1164 H 0.15897 0.91843 0.32407 0.0
H1165 H 0.19898 0.92882 0.38314 0.0
H1166 H 0.17089 0.97152 0.35913 0.0
C1167 C 0.1929 0.99696 0.3773 0.0
C1168 C 0.20995 0.00389 0.3902 0.0
C1169 C 0.18984 0.92631 0.37037 0.0
C1170 C 0.19179 0.96252 0.37407 0.0
C1171 C 0.18478 0.90819 0.35924 0.0
C1172 C 0.17399 0.90531 0.34217 0.0
C1173 C 0.184 0.94152 0.3643 0.0
C1174 C 0.16736 0.92015 0.33716 0.0
C1175 C 0.18384 0.97639 0.36922 0.0
C1176 C 0.21713 0.98934 0.39498 0.0
N1177 N 0.17261 0.93771 0.34809 0.0
N1178 N 0.2081 0.9694 0.38683 0.0
H1179 H 0.53078 0.65383 0.3149 0.0
H1180 H 0.62479 0.77796 0.30586 0.0
H1181 H 0.55621 0.68458 0.26173 0.0
H1182 H 0.59721 0.7452 0.35787 0.0
H1183 H 0.59853 0.74509 0.28891 0.0
H1184 H 0.55375 0.68835 0.33047 0.0
C1185 C 0.54103 0.6679 0.30646 0.0
C1186 C 0.54155 0.66624 0.28697 0.0
C1187 C 0.5982 0.74524 0.30403 0.0
C1188 C 0.56831 0.70595 0.30479 0.0
C1189 C 0.61311 0.764 0.31368 0.0
C1190 C 0.61333 0.76426 0.33329 0.0
C1191 C 0.58345 0.72676 0.31414 0.0
C1192 C 0.59786 0.7457 0.34276 0.0
C1193 C 0.55428 0.68763 0.31538 0.0
C1194 C 0.55551 0.68502 0.27682 0.0
N1195 N 0.58368 0.72775 0.33311 0.0
N1196 N 0.5684 0.70408 0.28585 0.0
H1197 H 0.34154 0.89725 0.26965 0.0
H1198 H 0.24094 0.85508 0.33864 0.0
H1199 H 0.34445 0.88244 0.32777 0.0
H1200 H 0.24356 0.88336 0.28461 0.0
H1201 H 0.27817 0.86312 0.33446 0.0
H1202 H 0.30507 0.89078 0.27451 0.0
C1203 C 0.33465 0.89287 0.2835 0.0
C1204 C 0.3462 0.89043 0.29832 0.0
C1205 C 0.2706 0.86762 0.32355 0.0
C1206 C 0.30411 0.88253 0.30388 0.0
C1207 C 0.24932 0.86298 0.3259 0.0
C1208 C 0.23909 0.86856 0.31195 0.0
C1209 C 0.28166 0.87773 0.30707 0.0
C1210 C 0.25078 0.87881 0.29576 0.0
C1211 C 0.31372 0.88903 0.28622 0.0
C1212 C 0.3361 0.88422 0.31585 0.0
N1213 N 0.27139 0.88298 0.29374 0.0
N1214 N 0.31563 0.88042 0.31812 0.0
H1215 H 0.13273 0.46223 0.27921 0.0
H1216 H 0.16619 0.41583 0.36722 0.0
H1217 H 0.13339 0.48147 0.33655 0.0
H1218 H 0.1552 0.38616 0.31267 0.0
H1219 H 0.15839 0.44286 0.35465 0.0
H1220 H 0.14367 0.43627 0.28986 0.0
C1221 C 0.13505 0.46095 0.29402 0.0
C1222 C 0.13226 0.47422 0.30698 0.0
C1223 C 0.15774 0.43055 0.34532 0.0
C1224 C 0.14512 0.44485 0.31916 0.0
C1225 C 0.16229 0.4151 0.35249 0.0
C1226 C 0.16115 0.39856 0.34101 0.0
C1227 C 0.15186 0.42955 0.32646 0.0
C1228 C 0.15627 0.39866 0.32199 0.0
C1229 C 0.14144 0.44624 0.30005 0.0
C1230 C 0.13575 0.47198 0.32597 0.0
N1231 N 0.15159 0.41384 0.3153 0.0
N1232 N 0.14201 0.45767 0.33142 0.0
H1233 H 0.34784 0.46927 0.33177 0.0
H1234 H 0.24252 0.37022 0.28561 0.0
H1235 H 0.34076 0.45317 0.27301 0.0
H1236 H 0.24382 0.39109 0.34251 0.0
H1237 H 0.27948 0.39941 0.28167 0.0
H1238 H 0.31074 0.43983 0.3368 0.0
C1239 C 0.33853 0.45961 0.31992 0.0
C1240 C 0.34756 0.46372 0.30193 0.0
C1241 C 0.27175 0.39768 0.29504 0.0
C1242 C 0.30516 0.42989 0.30766 0.0
C1243 C 0.25058 0.38093 0.29733 0.0
C1244 C 0.23996 0.37814 0.31444 0.0
C1245 C 0.28261 0.41184 0.30996 0.0
C1246 C 0.25134 0.39265 0.32907 0.0
C1247 C 0.31737 0.44277 0.32283 0.0
C1248 C 0.33474 0.45044 0.28718 0.0
N1249 N 0.27209 0.40887 0.32651 0.0
N1250 N 0.31428 0.43419 0.29039 0.0
H1251 H 0.52229 0.84464 0.29237 0.0
H1252 H 0.64249 0.90172 0.3275 0.0
H1253 H 0.55585 0.91018 0.31383 0.0
H1254 H 0.60347 0.83195 0.32448 0.0
H1255 H 0.60998 0.90449 0.32449 0.0
H1256 H 0.55042 0.83858 0.30582 0.0
C1257 C 0.5354 0.85763 0.30017 0.0
C1258 C 0.53688 0.87803 0.3018 0.0
C1259 C 0.6084 0.88853 0.32478 0.0
C1260 C 0.56911 0.87127 0.31706 0.0
C1261 C 0.62698 0.88696 0.32643 0.0
C1262 C 0.62561 0.8666 0.32604 0.0
C1263 C 0.58833 0.86962 0.32222 0.0
C1264 C 0.60515 0.84795 0.3248 0.0
C1265 C 0.55137 0.85413 0.30791 0.0
C1266 C 0.55403 0.89419 0.31225 0.0
N1267 N 0.58727 0.84992 0.32255 0.0
N1268 N 0.56965 0.89059 0.3192 0.0
H1269 H 0.10632 0.67625 0.26713 0.0
H1270 H 0.17699 0.75458 0.34951 0.0
H1271 H 0.14895 0.6643 0.30171 0.0
H1272 H 0.14807 0.77461 0.30662 0.0
H1273 H 0.16762 0.72186 0.33158 0.0
H1274 H 0.12162 0.71245 0.2809 0.0
C1275 C 0.11903 0.68127 0.27749 0.0
C1276 C 0.12628 0.66709 0.28331 0.0
C1277 C 0.16359 0.73352 0.3259 0.0
C1278 C 0.14366 0.70848 0.29929 0.0
C1279 C 0.16897 0.75223 0.33612 0.0
C1280 C 0.16324 0.76725 0.32952 0.0
C1281 C 0.15201 0.72957 0.3091 0.0
C1282 C 0.1529 0.76347 0.3121 0.0
C1283 C 0.12773 0.70196 0.28536 0.0
C1284 C 0.14254 0.67444 0.29702 0.0
N1285 N 0.14729 0.74478 0.30259 0.0
N1286 N 0.15057 0.69455 0.3046 0.0
H1287 H 0.83177 0.99775 0.37743 0.0
H1288 H 0.71166 0.89761 0.36987 0.0
H1289 H 0.78031 0.98718 0.41495 0.0
H1290 H 0.76083 0.91382 0.32843 0.0
H1291 H 0.73902 0.92462 0.39105 0.0
H1292 H 0.80826 0.96217 0.36343 0.0
C1293 C 0.81557 0.98791 0.38279 0.0
C1294 C 0.80793 0.99562 0.39722 0.0
C1295 C 0.74396 0.92183 0.37753 0.0
C1296 C 0.78094 0.95475 0.38135 0.0
C1297 C 0.72841 0.90615 0.36563 0.0
C1298 C 0.73417 0.90347 0.34757 0.0
C1299 C 0.76525 0.93486 0.37114 0.0
C1300 C 0.75588 0.91546 0.34233 0.0
C1301 C 0.80219 0.96752 0.37488 0.0
C1302 C 0.78693 0.98191 0.40389 0.0
N1303 N 0.7706 0.93084 0.35396 0.0
N1304 N 0.77409 0.96226 0.39576 0.0
H1305 H 0.00194 0.76345 0.41281 0.0
H1306 H 0.09491 0.81816 0.33572 0.0
H1307 H 0.99221 0.78707 0.36015 0.0
H1308 H 0.10112 0.79195 0.38835 0.0
H1309 H 0.05756 0.80751 0.3439 0.0
H1310 H 0.03851 0.77413 0.4035 0.0
C1311 C 0.00741 0.77068 0.39916 0.0
C1312 C 0.99383 0.77414 0.38718 0.0
C1313 C 0.06716 0.80412 0.35361 0.0
C1314 C 0.03617 0.7869 0.37648 0.0
C1315 C 0.08847 0.81021 0.34897 0.0
C1316 C 0.1012 0.80593 0.36135 0.0
C1317 C 0.05862 0.79375 0.37075 0.0
C1318 C 0.09199 0.79558 0.37831 0.0
C1319 C 0.02843 0.77696 0.39389 0.0
C1320 C 0.00214 0.78417 0.36987 0.0
N1321 N 0.07136 0.78988 0.38247 0.0
N1322 N 0.02278 0.79018 0.36501 0.0
H1323 H 0.17728 0.17155 0.34956 0.0
H1324 H 0.1886 0.28896 0.36045 0.0
H1325 H 0.22147 0.21934 0.38889 0.0
H1326 H 0.16463 0.24901 0.31101 0.0
H1327 H 0.1941 0.26072 0.37519 0.0
H1328 H 0.16622 0.19722 0.33926 0.0
C1329 C 0.18476 0.18747 0.356 0.0
C1330 C 0.20064 0.19336 0.36991 0.0
C1331 C 0.18739 0.2581 0.36121 0.0
C1332 C 0.1876 0.22275 0.35841 0.0
C1333 C 0.18408 0.27408 0.35288 0.0
C1334 C 0.17629 0.2713 0.33447 0.0
C1335 C 0.1825 0.23921 0.35109 0.0
C1336 C 0.17086 0.25185 0.32518 0.0
C1337 C 0.17829 0.20207 0.3502 0.0
C1338 C 0.20916 0.21403 0.37815 0.0
N1339 N 0.17411 0.23661 0.33356 0.0
N1340 N 0.20262 0.22805 0.3722 0.0
H1341 H 0.66323 0.55103 0.73202 0.0
H1342 H 0.76205 0.61022 0.66089 0.0
H1343 H 0.65848 0.5335 0.67371 0.0
H1344 H 0.76305 0.63125 0.71768 0.0
H1345 H 0.72455 0.58138 0.66526 0.0
H1346 H 0.70012 0.58007 0.7269 0.0
C1347 C 0.66984 0.55341 0.71807 0.0
C1348 C 0.65759 0.53979 0.70326 0.0
C1349 C 0.733 0.59234 0.67673 0.0
C1350 C 0.70022 0.57294 0.69736 0.0
C1351 C 0.75442 0.60878 0.67427 0.0
C1352 C 0.76574 0.62321 0.68894 0.0
C1353 C 0.72287 0.59025 0.69402 0.0
C1354 C 0.755 0.62056 0.70596 0.0
C1355 C 0.69102 0.56994 0.71518 0.0
C1356 C 0.66734 0.54342 0.68559 0.0
N1357 N 0.73423 0.60442 0.70802 0.0
N1358 N 0.68807 0.55963 0.68314 0.0
H1359 H 0.48361 0.14652 0.67887 0.0
H1360 H 0.36659 0.11879 0.71317 0.0
H1361 H 0.44356 0.0925 0.71484 0.0
H1362 H 0.39811 0.1606 0.66606 0.0
H1363 H 0.39596 0.11076 0.7152 0.0
H1364 H 0.45341 0.15321 0.67459 0.0
C1365 C 0.46843 0.13592 0.6857 0.0
C1366 C 0.46623 0.11906 0.6974 0.0
C1367 C 0.39643 0.12164 0.70437 0.0
C1368 C 0.43179 0.12688 0.69284 0.0
C1369 C 0.37971 0.12632 0.70326 0.0
C1370 C 0.37988 0.14039 0.68942 0.0
C1371 C 0.41362 0.13126 0.69168 0.0
C1372 C 0.3973 0.14961 0.67692 0.0
C1373 C 0.45125 0.13983 0.68334 0.0
C1374 C 0.4462 0.106 0.70604 0.0
N1375 N 0.41354 0.14496 0.6784 0.0
N1376 N 0.42986 0.11029 0.7037 0.0
H1377 H 0.87727 0.32086 0.74348 0.0
H1378 H 0.84083 0.25824 0.64564 0.0
H1379 H 0.87347 0.34996 0.69167 0.0
H1380 H 0.85041 0.22977 0.69539 0.0
H1381 H 0.84833 0.29036 0.66357 0.0
H1382 H 0.86383 0.28615 0.72725 0.0
C1383 C 0.87364 0.31997 0.72869 0.0
C1384 C 0.87664 0.33843 0.7189 0.0
C1385 C 0.84859 0.27704 0.67068 0.0
C1386 C 0.86096 0.29866 0.70033 0.0
C1387 C 0.84426 0.25865 0.66044 0.0
C1388 C 0.84507 0.24133 0.66906 0.0
C1389 C 0.85396 0.27829 0.68969 0.0
C1390 C 0.84945 0.24269 0.68829 0.0
C1391 C 0.86583 0.30011 0.71948 0.0
C1392 C 0.87124 0.33617 0.69985 0.0
N1393 N 0.85396 0.26099 0.69796 0.0
N1394 N 0.86376 0.3167 0.69119 0.0
H1395 H 0.20217 0.98298 0.64717 0.0
H1396 H 0.28549 0.11009 0.63977 0.0
H1397 H 0.21326 0.01776 0.59521 0.0
H1398 H 0.26057 0.07546 0.69153 0.0
H1399 H 0.25981 0.07714 0.62257 0.0
H1400 H 0.2249 0.01725 0.66321 0.0
C1401 C 0.20944 0.99787 0.63913 0.0
C1402 C 0.20589 0.99751 0.61983 0.0
C1403 C 0.2599 0.07692 0.63771 0.0
C1404 C 0.23188 0.03698 0.63814 0.0
C1405 C 0.27448 0.09571 0.64749 0.0
C1406 C 0.27534 0.09551 0.66708 0.0
C1407 C 0.24627 0.05787 0.64767 0.0
C1408 C 0.26072 0.0764 0.67643 0.0
C1409 C 0.2223 0.01748 0.64831 0.0
C1410 C 0.21548 0.01735 0.61015 0.0
N1411 N 0.24698 0.05838 0.66665 0.0
N1412 N 0.22819 0.03633 0.6194 0.0
H1413 H 0.00644 0.22051 0.60278 0.0
H1414 H 0.90802 0.18664 0.67308 0.0
H1415 H 0.01181 0.21414 0.6623 0.0
H1416 H 0.90838 0.20663 0.61602 0.0
H1417 H 0.94502 0.19381 0.66907 0.0
H1418 H 0.96951 0.21284 0.6071 0.0
C1419 C 0.99995 0.21767 0.6168 0.0
C1420 C 0.01241 0.21814 0.63221 0.0
C1421 C 0.93697 0.19663 0.65745 0.0
C1422 C 0.96979 0.20891 0.6372 0.0
C1423 C 0.91584 0.19249 0.65971 0.0
C1424 C 0.90507 0.19608 0.64488 0.0
C1425 C 0.94735 0.20424 0.6402 0.0
C1426 C 0.91604 0.2037 0.62788 0.0
C1427 C 0.97877 0.21316 0.61923 0.0
C1428 C 0.0028 0.21375 0.64997 0.0
N1429 N 0.93652 0.20747 0.626 0.0
N1430 N 0.98208 0.20932 0.65198 0.0
H1431 H 0.79656 0.79217 0.60818 0.0
H1432 H 0.83499 0.74869 0.69502 0.0
H1433 H 0.80392 0.81568 0.66489 0.0
H1434 H 0.81815 0.71543 0.6419 0.0
H1435 H 0.82803 0.77618 0.68219 0.0
H1436 H 0.80725 0.76591 0.61859 0.0
C1437 C 0.80033 0.79179 0.6228 0.0
C1438 C 0.79948 0.80633 0.63565 0.0
C1439 C 0.82592 0.76299 0.67321 0.0
C1440 C 0.81203 0.77661 0.64751 0.0
C1441 C 0.82999 0.74729 0.68053 0.0
C1442 C 0.82694 0.72962 0.66956 0.0
C1443 C 0.81854 0.76109 0.65473 0.0
C1444 C 0.82072 0.72883 0.6508 0.0
C1445 C 0.80657 0.7769 0.62868 0.0
C1446 C 0.80476 0.80519 0.65437 0.0
N1447 N 0.81647 0.74426 0.64399 0.0
N1448 N 0.8108 0.79068 0.65967 0.0
H1449 H 0.02174 0.77051 0.62812 0.0
H1450 H 0.90248 0.72983 0.66677 0.0
H1451 H 0.00125 0.81438 0.64878 0.0
H1452 H 0.92219 0.68919 0.63804 0.0
H1453 H 0.93957 0.76043 0.66418 0.0
H1454 H 0.98626 0.73995 0.63545 0.0
C1455 C 0.00976 0.77373 0.63419 0.0
C1456 C 0.01444 0.79509 0.63762 0.0
C1457 C 0.93573 0.74475 0.65856 0.0
C1458 C 0.97368 0.76004 0.64625 0.0
C1459 C 0.91461 0.72728 0.66009 0.0
C1460 C 0.90916 0.70696 0.65246 0.0
C1461 C 0.95147 0.74177 0.64946 0.0
C1462 C 0.92554 0.70459 0.64395 0.0
C1463 C 0.98951 0.75625 0.63846 0.0
C1464 C 0.9984 0.79819 0.64595 0.0
N1465 N 0.94585 0.72176 0.64265 0.0
N1466 N 0.97867 0.78087 0.64987 0.0
H1467 H 0.19639 0.19647 0.63367 0.0
H1468 H 0.31927 0.23201 0.63686 0.0
H1469 H 0.24676 0.26375 0.63519 0.0
H1470 H 0.27256 0.17214 0.66304 0.0
H1471 H 0.29192 0.24275 0.63432 0.0
H1472 H 0.22273 0.18599 0.64375 0.0
C1473 C 0.21284 0.20907 0.63648 0.0
C1474 C 0.21944 0.23103 0.63322 0.0
C1475 C 0.28765 0.22734 0.64077 0.0
C1476 C 0.24961 0.21906 0.64428 0.0
C1477 C 0.30321 0.22111 0.64209 0.0
C1478 C 0.29811 0.2011 0.65007 0.0
C1479 C 0.26665 0.21329 0.64712 0.0
C1480 C 0.2771 0.18771 0.65679 0.0
C1481 C 0.22786 0.20304 0.64214 0.0
C1482 C 0.24104 0.2466 0.63697 0.0
N1483 N 0.26196 0.19391 0.65492 0.0
N1484 N 0.2554 0.24029 0.64199 0.0
H1485 H 0.78937 0.01404 0.59515 0.0
H1486 H 0.83018 0.08144 0.6905 0.0
H1487 H 0.79512 0.9874 0.64768 0.0
H1488 H 0.82042 0.10825 0.63971 0.0
H1489 H 0.82097 0.0481 0.67384 0.0
H1490 H 0.80358 0.04953 0.61018 0.0
C1491 C 0.79358 0.01563 0.60985 0.0
C1492 C 0.79092 0.99764 0.62019 0.0
C1493 C 0.82097 0.06129 0.66624 0.0
C1494 C 0.80747 0.0383 0.63738 0.0
C1495 C 0.82628 0.08039 0.67576 0.0
C1496 C 0.82593 0.09763 0.6665 0.0
C1497 C 0.81513 0.05924 0.6473 0.0
C1498 C 0.82093 0.09537 0.64735 0.0
C1499 C 0.80183 0.03594 0.61837 0.0
C1500 C 0.79707 0.00079 0.63909 0.0
N1501 N 0.81552 0.07641 0.63839 0.0
N1502 N 0.80496 0.02068 0.64707 0.0
H1503 H 0.4911 0.34065 0.70181 0.0
H1504 H 0.37876 0.22846 0.69864 0.0
H1505 H 0.43873 0.32491 0.74001 0.0
H1506 H 0.426 0.25134 0.6546 0.0
H1507 H 0.40344 0.26021 0.71756 0.0
H1508 H 0.46989 0.30488 0.68748 0.0
C1509 C 0.47513 0.32971 0.70718 0.0
C1510 C 0.46663 0.33594 0.72203 0.0
C1511 C 0.40851 0.25805 0.70387 0.0
C1512 C 0.44236 0.29472 0.70586 0.0
C1513 C 0.39456 0.23983 0.69321 0.0
C1514 C 0.40039 0.23739 0.67507 0.0
C1515 C 0.42839 0.27374 0.6963 0.0
C1516 C 0.42085 0.25275 0.66848 0.0
C1517 C 0.46309 0.3092 0.69908 0.0
C1518 C 0.44602 0.32079 0.72868 0.0
N1519 N 0.43404 0.27034 0.67903 0.0
N1520 N 0.43454 0.30094 0.72048 0.0
H1521 H 0.65596 0.11538 0.69015 0.0
H1522 H 0.77287 0.13972 0.72394 0.0
H1523 H 0.67347 0.11068 0.74704 0.0
H1524 H 0.75925 0.14695 0.66637 0.0
H1525 H 0.73639 0.13024 0.73219 0.0
H1526 H 0.69344 0.12807 0.6807 0.0
C1527 C 0.66766 0.11707 0.70064 0.0
C1528 C 0.66149 0.11167 0.71938 0.0
C1529 C 0.74126 0.13391 0.71773 0.0
C1530 C 0.70422 0.12615 0.70871 0.0
C1531 C 0.76218 0.13932 0.71297 0.0
C1532 C 0.76913 0.14398 0.69438 0.0
C1533 C 0.72691 0.13297 0.70382 0.0
C1534 C 0.75453 0.14343 0.68087 0.0
C1535 C 0.689 0.12425 0.69523 0.0
C1536 C 0.6773 0.11414 0.73238 0.0
N1537 N 0.734 0.13786 0.68584 0.0
N1538 N 0.69782 0.12112 0.72679 0.0
H1539 H 0.88747 0.55412 0.72717 0.0
H1540 H 0.81361 0.57406 0.65723 0.0
H1541 H 0.83243 0.50255 0.6986 0.0
H1542 H 0.85857 0.62388 0.69447 0.0
H1543 H 0.817 0.54687 0.67541 0.0
H1544 H 0.87496 0.57929 0.71828 0.0
C1545 C 0.87262 0.548 0.71925 0.0
C1546 C 0.8612 0.52623 0.71335 0.0
C1547 C 0.82573 0.56363 0.67999 0.0
C1548 C 0.84686 0.555 0.70304 0.0
C1549 C 0.82359 0.5791 0.66971 0.0
C1550 C 0.8357 0.6011 0.6745 0.0
C1551 C 0.84065 0.57033 0.69483 0.0
C1552 C 0.84877 0.60697 0.69053 0.0
C1553 C 0.86548 0.5624 0.71417 0.0
C1554 C 0.8421 0.5193 0.70303 0.0
N1555 N 0.8513 0.5917 0.69992 0.0
N1556 N 0.8357 0.53366 0.69805 0.0
H1557 H 0.50774 0.9971 0.16259 0.0
H1558 H 0.50601 0.96385 0.0565 0.0
H1559 H 0.48332 0.93085 0.14484 0.0
H1560 H 0.54 0.03007 0.0764 0.0
H1561 H 0.50148 0.95127 0.08887 0.0
H1562 H 0.52267 0.00945 0.13141 0.0
C1563 C 0.50562 0.98516 0.15213 0.0
C1564 C 0.49409 0.96291 0.15625 0.0
C1565 C 0.5103 0.96855 0.08613 0.0
C1566 C 0.51114 0.9769 0.12047 0.0
C1567 C 0.51304 0.97576 0.06762 0.0
C1568 C 0.52305 0.99807 0.06373 0.0
C1569 C 0.5175 0.98377 0.10081 0.0
C1570 C 0.53186 0.01272 0.07873 0.0
C1571 C 0.51428 0.99221 0.13436 0.0
C1572 C 0.49213 0.94816 0.14226 0.0
N1573 N 0.52853 0.00532 0.0966 0.0
N1574 N 0.50031 0.95539 0.12493 0.0
H1575 H 0.06736 0.55124 0.15091 0.0
H1576 H 0.96826 0.50189 0.07931 0.0
H1577 H 0.00324 0.49946 0.16387 0.0
H1578 H 0.03486 0.53632 0.06187 0.0
H1579 H 0.98009 0.51039 0.11177 0.0
H1580 H 0.05467 0.55415 0.11975 0.0
C1581 C 0.05054 0.54069 0.14726 0.0
C1582 C 0.03633 0.52493 0.15988 0.0
C1583 C 0.99209 0.51645 0.10082 0.0
C1584 C 0.02177 0.5283 0.12443 0.0
C1585 C 0.98537 0.51174 0.08227 0.0
C1586 C 1.00063 0.518 0.06789 0.0
C1587 C 0.01422 0.52752 0.10502 0.0
C1588 C 0.02256 0.531 0.07253 0.0
C1589 C 0.04335 0.54234 0.12951 0.0
C1590 C 0.01476 0.51159 0.15444 0.0
N1591 N 0.02874 0.535 0.09077 0.0
N1592 N 0.00815 0.51352 0.13709 0.0
H1593 H 0.47645 0.55099 0.14303 0.0
H1594 H 0.54115 0.51094 0.07911 0.0
H1595 H 0.50117 0.50991 0.16196 0.0
H1596 H 0.50154 0.5358 0.05688 0.0
H1597 H 0.53517 0.52009 0.11055 0.0
H1598 H 0.49317 0.55397 0.11252 0.0
C1599 C 0.48561 0.54281 0.14082 0.0
C1600 C 0.48724 0.52998 0.15495 0.0
C1601 C 0.52816 0.52397 0.09876 0.0
C1602 C 0.50647 0.53343 0.12022 0.0
C1603 C 0.5317 0.5189 0.08078 0.0
C1604 C 0.52157 0.52231 0.06535 0.0
C1605 C 0.51437 0.53248 0.10133 0.0
C1606 C 0.50966 0.53286 0.06834 0.0
C1607 C 0.4951 0.54449 0.12343 0.0
C1608 C 0.49921 0.51965 0.15134 0.0
N1609 N 0.50605 0.53722 0.08605 0.0
N1610 N 0.50829 0.52153 0.13431 0.0
H1611 H 0.93644 0.44763 0.86002 0.0
H1612 H 0.03813 0.49816 0.92884 0.0
H1613 H 0.99972 0.49983 0.84538 0.0
H1614 H 0.9721 0.46448 0.9478 0.0
H1615 H 0.02523 0.48924 0.89664 0.0
H1616 H 0.95054 0.44501 0.89058 0.0
C1617 C 0.95338 0.45831 0.86315 0.0
C1618 C 0.96692 0.47414 0.85028 0.0
C1619 C 0.0136 0.4834 0.9079 0.0
C1620 C 0.9831 0.47114 0.88505 0.0
C1621 C 0.02093 0.48837 0.9263 0.0
C1622 C 0.00614 0.48236 0.94104 0.0
C1623 C 0.99135 0.47229 0.90424 0.0
C1624 C 0.98407 0.46948 0.9369 0.0
C1625 C 0.96137 0.45683 0.88057 0.0
C1626 C 0.98869 0.48765 0.85505 0.0
N1627 N 0.9773 0.46517 0.91883 0.0
N1628 N 0.9961 0.48591 0.87211 0.0
H1629 H 0.54318 0.47101 0.86192 0.0
H1630 H 0.46198 0.48645 0.92602 0.0
H1631 H 0.4913 0.47899 0.83992 0.0
H1632 H 0.50681 0.46759 0.94724 0.0
H1633 H 0.46874 0.47859 0.89435 0.0
H1634 H 0.52752 0.4658 0.89307 0.0
C1635 C 0.52846 0.47164 0.86367 0.0
C1636 C 0.51868 0.47574 0.84837 0.0
C1637 C 0.47673 0.47568 0.90596 0.0
C1638 C 0.50055 0.46964 0.88398 0.0
C1639 C 0.47277 0.48004 0.92407 0.0
C1640 C 0.48407 0.47796 0.93928 0.0
C1641 C 0.49235 0.46953 0.90303 0.0
C1642 C 0.49778 0.46949 0.93595 0.0
C1643 C 0.5194 0.46845 0.88142 0.0
C1644 C 0.49937 0.47591 0.85135 0.0
N1645 N 0.50191 0.46605 0.91813 0.0
N1646 N 0.49109 0.47319 0.86885 0.0
H1647 H 0.50642 0.07731 0.86111 0.0
H1648 H 0.46808 0.97085 0.92319 0.0
H1649 H 0.48478 0.01322 0.83887 0.0
H1650 H 0.49762 0.0354 0.94662 0.0
H1651 H 0.46771 0.98569 0.89259 0.0
H1652 H 0.49792 0.06193 0.89265 0.0
C1653 C 0.49971 0.05998 0.86285 0.0
C1654 C 0.49648 0.04655 0.84735 0.0
C1655 C 0.474 0.99662 0.90444 0.0
C1656 C 0.4867 0.02887 0.88335 0.0
C1657 C 0.4741 0.98813 0.92196 0.0
C1658 C 0.48315 0.00195 0.93743 0.0
C1659 C 0.48319 0.01916 0.90229 0.0
C1660 C 0.49052 0.02417 0.93505 0.0
C1661 C 0.49491 0.05124 0.88085 0.0
C1662 C 0.48789 0.02424 0.85043 0.0
N1663 N 0.49071 0.03216 0.91771 0.0
N1664 N 0.48337 0.01614 0.86806 0.0
H1665 H 0.13138 0.25717 0.47428 0.0
H1666 H 0.2087 0.35921 0.41254 0.0
H1667 H 0.17943 0.31858 0.49758 0.0
H1668 H 0.16723 0.29534 0.38956 0.0
H1669 H 0.20205 0.34347 0.44379 0.0
H1670 H 0.14707 0.2697 0.44335 0.0
C1671 C 0.14529 0.27327 0.47288 0.0
C1672 C 0.15394 0.28695 0.4885 0.0
C1673 C 0.19473 0.33281 0.4319 0.0
C1674 C 0.17209 0.30139 0.45312 0.0
C1675 C 0.19863 0.34179 0.41402 0.0
C1676 C 0.18822 0.32863 0.39843 0.0
C1677 C 0.1801 0.31055 0.43425 0.0
C1678 C 0.17546 0.30614 0.40118 0.0
C1679 C 0.15436 0.28036 0.45524 0.0
C1680 C 0.17224 0.30749 0.48593 0.0
N1681 N 0.17139 0.29787 0.41879 0.0
N1682 N 0.18054 0.31418 0.46855 0.0
H1683 H 0.72962 0.88677 0.48555 0.0
H1684 H 0.63404 0.83779 0.41043 0.0
H1685 H 0.66618 0.83221 0.49577 0.0
H1686 H 0.70147 0.87252 0.39555 0.0
H1687 H 0.64429 0.84528 0.44335 0.0
H1688 H 0.71788 0.89031 0.45417 0.0
C1689 C 0.71311 0.87576 0.48127 0.0
C1690 C 0.69886 0.85904 0.49315 0.0
C1691 C 0.6568 0.85167 0.43282 0.0
C1692 C 0.68538 0.86311 0.45746 0.0
C1693 C 0.65099 0.84754 0.41403 0.0
C1694 C 0.66696 0.8543 0.40022 0.0
C1695 C 0.6787 0.86273 0.43782 0.0
C1696 C 0.68864 0.86704 0.40569 0.0
C1697 C 0.70648 0.87777 0.46339 0.0
C1698 C 0.67772 0.84512 0.48691 0.0
N1699 N 0.69391 0.87056 0.42413 0.0
N1700 N 0.67162 0.84741 0.46944 0.0
H1701 H 0.16533 0.83682 0.49469 0.0
H1702 H 0.17301 0.8738 0.38967 0.0
H1703 H 0.14735 0.88363 0.47679 0.0
H1704 H 0.20643 0.84163 0.41082 0.0
H1705 H 0.16658 0.88073 0.42168 0.0
H1706 H 0.18236 0.8401 0.46436 0.0
C1707 C 0.16503 0.84783 0.48437 0.0
C1708 C 0.15476 0.85983 0.48817 0.0
C1709 C 0.17573 0.87256 0.41933 0.0
C1710 C 0.17425 0.86375 0.45348 0.0
C1711 C 0.17962 0.86879 0.401 0.0
C1712 C 0.19008 0.85688 0.39749 0.0
C1713 C 0.18203 0.86406 0.43424 0.0
C1714 C 0.19804 0.85062 0.41283 0.0
C1715 C 0.17492 0.84986 0.46713 0.0
C1716 C 0.15514 0.87413 0.47443 0.0
N1717 N 0.19345 0.85387 0.43053 0.0
N1718 N 0.16448 0.87549 0.45761 0.0
H1719 H 0.60854 0.78223 0.19066 0.0
H1720 H 0.70687 0.84938 0.26005 0.0
H1721 H 0.67027 0.83622 0.17485 0.0
H1722 H 0.64277 0.80283 0.27841 0.0
H1723 H 0.69639 0.83665 0.22802 0.0
H1724 H 0.62327 0.78235 0.22165 0.0
C1725 C 0.62532 0.79385 0.19361 0.0
C1726 C 0.63814 0.80949 0.1803 0.0
C1727 C 0.6847 0.82886 0.23906 0.0
C1728 C 0.65502 0.80973 0.21565 0.0
C1729 C 0.69072 0.83604 0.25736 0.0
C1730 C 0.67553 0.82736 0.27177 0.0
C1731 C 0.66321 0.81317 0.23512 0.0
C1732 C 0.65491 0.80997 0.26763 0.0
C1733 C 0.63368 0.79393 0.2113 0.0
C1734 C 0.65971 0.82419 0.18485 0.0
N1735 N 0.64916 0.80376 0.24956 0.0
N1736 N 0.6674 0.82409 0.20219 0.0
H1737 H 0.16987 0.83498 0.17346 0.0
H1738 H 0.1652 0.80074 0.27912 0.0
H1739 H 0.19008 0.79001 0.1918 0.0
H1740 H 0.13219 0.8332 0.25772 0.0
H1741 H 0.17047 0.7925 0.24707 0.0
H1742 H 0.1533 0.8319 0.20394 0.0
C1743 C 0.17076 0.82442 0.18392 0.0
C1744 C 0.18152 0.8129 0.18019 0.0
C1745 C 0.16164 0.80099 0.24941 0.0
C1746 C 0.16255 0.8092 0.2151 0.0
C1747 C 0.15843 0.80552 0.26774 0.0
C1748 C 0.14862 0.81807 0.2711 0.0
C1749 C 0.15516 0.80926 0.23442 0.0
C1750 C 0.14023 0.82385 0.25577 0.0
C1751 C 0.16113 0.82249 0.20126 0.0
C1752 C 0.18189 0.79915 0.19411 0.0
N1753 N 0.1441 0.81982 0.2381 0.0
N1754 N 0.17279 0.79789 0.21104 0.0
H1755 H 0.17859 0.41562 0.19649 0.0
H1756 H 0.13109 0.30904 0.25998 0.0
H1757 H 0.15146 0.35039 0.175 0.0
H1758 H 0.16774 0.37397 0.28241 0.0
H1759 H 0.13246 0.32426 0.22916 0.0
H1760 H 0.16965 0.40091 0.22824 0.0
C1761 C 0.17061 0.3982 0.19844 0.0
C1762 C 0.16592 0.38421 0.18309 0.0
C1763 C 0.13998 0.33521 0.24085 0.0
C1764 C 0.15561 0.3673 0.21933 0.0
C1765 C 0.13909 0.32653 0.2585 0.0
C1766 C 0.14958 0.34025 0.27377 0.0
C1767 C 0.1515 0.35781 0.23837 0.0
C1768 C 0.15951 0.36278 0.27102 0.0
C1769 C 0.16556 0.38983 0.21656 0.0
C1770 C 0.1557 0.36179 0.18644 0.0
N1771 N 0.1605 0.37088 0.25358 0.0
N1772 N 0.15094 0.35406 0.20418 0.0
H1773 H 0.83561 0.66006 0.82914 0.0
H1774 H 0.83619 0.6292 0.72278 0.0
H1775 H 0.81204 0.59417 0.81076 0.0
H1776 H 0.87132 0.69482 0.74398 0.0
H1777 H 0.83042 0.61572 0.75491 0.0
H1778 H 0.85103 0.67297 0.79821 0.0
C1779 C 0.83375 0.64832 0.81858 0.0
C1780 C 0.82236 0.62601 0.82246 0.0
C1781 C 0.83977 0.63306 0.75251 0.0
C1782 C 0.83999 0.64064 0.78696 0.0
C1783 C 0.84322 0.64076 0.73413 0.0
C1784 C 0.85395 0.6632 0.73066 0.0
C1785 C 0.84693 0.6479 0.76747 0.0
C1786 C 0.86266 0.6774 0.74598 0.0
C1787 C 0.8427 0.65569 0.80096 0.0
C1788 C 0.82073 0.61152 0.80835 0.0
N1789 N 0.85861 0.66953 0.76368 0.0
N1790 N 0.82921 0.61906 0.79115 0.0
H1791 H 0.40177 0.21976 0.81539 0.0
H1792 H 0.303 0.17278 0.74354 0.0
H1793 H 0.33691 0.16959 0.82839 0.0
H1794 H 0.36968 0.20449 0.72638 0.0
H1795 H 0.31479 0.18144 0.776 0.0
H1796 H 0.3895 0.22303 0.78415 0.0
C1797 C 0.38488 0.20966 0.81174 0.0
C1798 C 0.37033 0.19423 0.82437 0.0
C1799 C 0.32683 0.18689 0.76509 0.0
C1800 C 0.35626 0.19799 0.78884 0.0
C1801 C 0.32014 0.18209 0.74654 0.0
C1802 C 0.33539 0.18754 0.73226 0.0
C1803 C 0.34892 0.19726 0.76937 0.0
C1804 C 0.35737 0.19985 0.73695 0.0
C1805 C 0.37794 0.21152 0.79394 0.0
C1806 C 0.34868 0.18145 0.81894 0.0
N1807 N 0.36351 0.20397 0.75519 0.0
N1808 N 0.3423 0.18356 0.80154 0.0
H1809 H 0.83365 0.17052 0.82732 0.0
H1810 H 0.83973 0.20765 0.7225 0.0
H1811 H 0.81532 0.2173 0.81013 0.0
H1812 H 0.87388 0.17591 0.74286 0.0
H1813 H 0.83353 0.2143 0.75466 0.0
H1814 H 0.85019 0.17385 0.79673 0.0
C1815 C 0.83318 0.18154 0.8171 0.0
C1816 C 0.82296 0.19352 0.82119 0.0
C1817 C 0.84279 0.2063 0.75211 0.0
C1818 C 0.84188 0.19748 0.7862 0.0
C1819 C 0.84654 0.20268 0.73368 0.0
C1820 C 0.85716 0.19099 0.7299 0.0
C1821 C 0.8494 0.19787 0.76685 0.0
C1822 C 0.86538 0.18475 0.74507 0.0
C1823 C 0.84279 0.18359 0.79972 0.0
C1824 C 0.82309 0.20781 0.80757 0.0
N1825 N 0.86094 0.18786 0.76287 0.0
N1826 N 0.83216 0.2092 0.7906 0.0
H1827 H 0.33053 0.15045 0.50544 0.0
H1828 H 0.30238 0.13361 0.61395 0.0
H1829 H 0.26935 0.13607 0.52895 0.0
H1830 H 0.36704 0.16155 0.59228 0.0
H1831 H 0.2882 0.12399 0.58219 0.0
H1832 H 0.34217 0.1453 0.53635 0.0
C1833 C 0.31948 0.14597 0.51707 0.0
C1834 C 0.29911 0.14408 0.51475 0.0
C1835 C 0.30547 0.13179 0.58442 0.0
C1836 C 0.31221 0.13804 0.55001 0.0
C1837 C 0.31358 0.13702 0.6026 0.0
C1838 C 0.33594 0.14868 0.60573 0.0
C1839 C 0.31986 0.13834 0.56932 0.0
C1840 C 0.34968 0.15288 0.59043 0.0
C1841 C 0.32612 0.14304 0.53468 0.0
C1842 C 0.28538 0.1382 0.53025 0.0
N1843 N 0.34144 0.14807 0.57282 0.0
N1844 N 0.29224 0.13555 0.54725 0.0
H1845 H 0.85728 0.119 0.52501 0.0
H1846 H 0.79769 0.16301 0.591 0.0
H1847 H 0.83625 0.16358 0.50745 0.0
H1848 H 0.83304 0.13272 0.61179 0.0
H1849 H 0.80308 0.15444 0.55916 0.0
H1850 H 0.84082 0.11615 0.55557 0.0
C1851 C 0.84896 0.12798 0.52752 0.0
C1852 C 0.84829 0.14171 0.51374 0.0
C1853 C 0.8093 0.14929 0.57071 0.0
C1854 C 0.82941 0.13847 0.54862 0.0
C1855 C 0.80609 0.15402 0.58891 0.0
C1856 C 0.81528 0.14893 0.60409 0.0
C1857 C 0.82177 0.13939 0.56764 0.0
C1858 C 0.82579 0.13708 0.60053 0.0
C1859 C 0.83963 0.12637 0.54496 0.0
C1860 C 0.83744 0.15309 0.51778 0.0
N1861 N 0.8291 0.13305 0.58263 0.0
N1862 N 0.82851 0.15128 0.53488 0.0
H1863 H 0.81827 0.67772 0.50329 0.0
H1864 H 0.8298 0.7009 0.61303 0.0
H1865 H 0.83702 0.74063 0.5268 0.0
H1866 H 0.80689 0.63779 0.58815 0.0
H1867 H 0.82819 0.71514 0.58218 0.0
H1868 H 0.81068 0.66233 0.53466 0.0
C1869 C 0.82081 0.6883 0.51509 0.0
C1870 C 0.82851 0.71052 0.51244 0.0
C1871 C 0.82314 0.69809 0.58356 0.0
C1872 C 0.81972 0.693 0.54851 0.0
C1873 C 0.82386 0.68992 0.6012 0.0
C1874 C 0.81873 0.6682 0.60309 0.0
C1875 C 0.81727 0.6844 0.56781 0.0
C1876 C 0.8113 0.65472 0.58727 0.0
C1877 C 0.81631 0.67949 0.53301 0.0
C1878 C 0.83108 0.7234 0.52822 0.0
N1879 N 0.81107 0.66309 0.5703 0.0
N1880 N 0.8269 0.71449 0.54561 0.0
loop_
_geom_bond_atom_site_label_1
_geom_bond_atom_site_label_2
_geom_bond_distance
_geom_bond_site_symmetry_2
_ccdc_geom_bond_type
C0 C1 1.264 . S
C0 C5 1.479 . S
C0 C10 1.465 . S
C1 C0 1.264 . S
C1 C3 1.339 . S
C1 H28 0.931 . S
C2 C3 1.395 . S
C2 C4 1.320 . S
C3 C1 1.339 . S
C3 C2 1.395 . S
C3 H29 0.929 . S
C4 C2 1.320 . S
C4 C5 1.405 . S
C4 H30 0.930 . S
C5 C0 1.479 . S
C5 C4 1.405 . S
C5 H31 0.931 . S
U6 O7 2.454 . S
U6 O8 2.458 . S
U6 C9 2.984 . S
U6 C10 2.847 . S
U6 C23 2.882 . S
U6 O24 2.441 . S
U6 O25 2.420 . S
U6 O26 2.455 . S
U6 O27 2.449 . S
O7 U6 2.454 . S
O7 C9 1.353 . S
O8 U6 2.458 . S
O8 C9 1.286 . S
C9 U6 2.984 . S
C9 O7 1.353 . S
C9 O8 1.286 . S
C9 C11 1.363 . S
C10 C0 1.465 . S
C10 U6 2.847 . S
C10 O24 1.249 . S
C10 O25 1.202 . S
C11 C9 1.363 . S
C11 C13 1.408 . S
C11 C16 1.342 . S
C12 C13 1.310 . S
C12 C15 1.461 . S
C12 H32 0.932 . S
C13 C11 1.408 . S
C13 C12 1.310 . S
C13 H33 0.930 . S
C14 C15 1.474 . S
C14 C16 1.285 . S
C14 H34 0.929 . S
C15 C12 1.461 . S
C15 C14 1.474 . S
C16 C11 1.342 . S
C16 C14 1.285 . S
C16 H35 0.930 . S
C17 C20 1.424 . S
C17 C22 1.245 . S
C17 C23 1.428 . S
C18 C21 1.260 . S
C18 C22 1.477 . S
C18 H36 0.932 . S
C19 C20 1.384 . S
C19 C21 1.479 . S
C19 H37 0.929 . S
C20 C17 1.424 . S
C20 C19 1.384 . S
C20 H38 0.928 . S
C21 C18 1.260 . S
C21 C19 1.479 . S
C22 C17 1.245 . S
C22 C18 1.477 . S
C22 H39 0.932 . S
C23 U6 2.882 . S
C23 C17 1.428 . S
C23 O26 1.301 . S
C23 O27 1.282 . S
O24 U6 2.441 . S
O24 C10 1.249 . S
O25 U6 2.420 . S
O25 C10 1.202 . S
O26 U6 2.455 . S
O26 C23 1.301 . S
O27 U6 2.449 . S
O27 C23 1.282 . S
H28 C1 0.931 . S
H29 C3 0.929 . S
H30 C4 0.930 . S
H31 C5 0.931 . S
H32 C12 0.932 . S
H33 C13 0.930 . S
H34 C14 0.929 . S
H35 C16 0.930 . S
H36 C18 0.932 . S
H37 C19 0.929 . S
H38 C20 0.928 . S
H39 C22 0.932 . S
C40 C41 1.264 . S
C40 C45 1.479 . S
C40 C50 1.465 . S
C41 C40 1.264 . S
C41 C43 1.339 . S
C41 H68 0.931 . S
C42 C43 1.395 . S
C42 C44 1.320 . S
C43 C41 1.339 . S
C43 C42 1.395 . S
C43 H69 0.929 . S
C44 C42 1.320 . S
C44 C45 1.405 . S
C44 H70 0.930 . S
C45 C40 1.479 . S
C45 C44 1.405 . S
C45 H71 0.931 . S
U46 O47 2.454 . S
U46 O48 2.458 . S
U46 C49 2.984 . S
U46 C50 2.847 . S
U46 C63 2.882 . S
U46 O64 2.441 . S
U46 O65 2.420 . S
U46 O66 2.455 . S
U46 O67 2.449 . S
O47 U46 2.454 . S
O47 C49 1.353 . S
O48 U46 2.458 . S
O48 C49 1.286 . S
C49 U46 2.984 . S
C49 O47 1.353 . S
C49 O48 1.286 . S
C49 C51 1.363 . S
C50 C40 1.465 . S
C50 U46 2.847 . S
C50 O64 1.249 . S
C50 O65 1.202 . S
C51 C49 1.363 . S
C51 C53 1.408 . S
C51 C56 1.342 . S
C52 C53 1.310 . S
C52 C55 1.461 . S
C52 H72 0.932 . S
C53 C51 1.408 . S
C53 C52 1.310 . S
C53 H73 0.930 . S
C54 C55 1.474 . S
C54 C56 1.285 . S
C54 H74 0.929 . S
C55 C52 1.461 . S
C55 C54 1.474 . S
C56 C51 1.342 . S
C56 C54 1.285 . S
C56 H75 0.930 . S
C57 C60 1.424 . S
C57 C62 1.245 . S
C57 C63 1.428 . S
C58 C61 1.260 . S
C58 C62 1.477 . S
C58 H76 0.932 . S
C59 C60 1.384 . S
C59 C61 1.479 . S
C59 H77 0.929 . S
C60 C57 1.424 . S
C60 C59 1.384 . S
C60 H78 0.928 . S
C61 C58 1.260 . S
C61 C59 1.479 . S
C62 C57 1.245 . S
C62 C58 1.477 . S
C62 H79 0.932 . S
C63 U46 2.882 . S
C63 C57 1.428 . S
C63 O66 1.301 . S
C63 O67 1.282 . S
O64 U46 2.441 . S
O64 C50 1.249 . S
O65 U46 2.420 . S
O65 C50 1.202 . S
O66 U46 2.455 . S
O66 C63 1.301 . S
O67 U46 2.449 . S
O67 C63 1.282 . S
H68 C41 0.931 . S
H69 C43 0.929 . S
H70 C44 0.930 . S
H71 C45 0.931 . S
H72 C52 0.932 . S
H73 C53 0.930 . S
H74 C54 0.929 . S
H75 C56 0.930 . S
H76 C58 0.932 . S
H77 C59 0.929 . S
H78 C60 0.928 . S
H79 C62 0.932 . S
C80 C81 1.264 . S
C80 C85 1.479 . S
C80 C90 1.465 . S
C81 C80 1.264 . S
C81 C83 1.339 . S
C81 H108 0.931 . S
C82 C83 1.395 . S
C82 C84 1.320 . S
C83 C81 1.339 . S
C83 C82 1.395 . S
C83 H109 0.929 . S
C84 C82 1.320 . S
C84 C85 1.405 . S
C84 H110 0.930 . S
C85 C80 1.479 . S
C85 C84 1.405 . S
C85 H111 0.931 . S
U86 O87 2.454 . S
U86 O88 2.458 . S
U86 C89 2.984 . S
U86 C90 2.847 . S
U86 C103 2.882 . S
U86 O104 2.441 . S
U86 O105 2.420 . S
U86 O106 2.455 . S
U86 O107 2.449 . S
O87 U86 2.454 . S
O87 C89 1.353 . S
O88 U86 2.458 . S
O88 C89 1.286 . S
C89 U86 2.984 . S
C89 O87 1.353 . S
C89 O88 1.286 . S
C89 C91 1.363 . S
C90 C80 1.465 . S
C90 U86 2.847 . S
C90 O104 1.249 . S
C90 O105 1.202 . S
C91 C89 1.363 . S
C91 C93 1.408 . S
C91 C96 1.342 . S
C92 C93 1.310 . S
C92 C95 1.461 . S
C92 H112 0.932 . S
C93 C91 1.408 . S
C93 C92 1.310 . S
C93 H113 0.930 . S
C94 C95 1.474 . S
C94 C96 1.285 . S
C94 H114 0.929 . S
C95 C92 1.461 . S
C95 C94 1.474 . S
C96 C91 1.342 . S
C96 C94 1.285 . S
C96 H115 0.930 . S
C97 C100 1.424 . S
C97 C102 1.245 . S
C97 C103 1.428 . S
C98 C101 1.260 . S
C98 C102 1.477 . S
C98 H116 0.932 . S
C99 C100 1.384 . S
C99 C101 1.479 . S
C99 H117 0.929 . S
C100 C97 1.424 . S
C100 C99 1.384 . S
C100 H118 0.928 . S
C101 C98 1.260 . S
C101 C99 1.479 . S
C102 C97 1.245 . S
C102 C98 1.477 . S
C102 H119 0.932 . S
C103 U86 2.882 . S
C103 C97 1.428 . S
C103 O106 1.301 . S
C103 O107 1.282 . S
O104 U86 2.441 . S
O104 C90 1.249 . S
O105 U86 2.420 . S
O105 C90 1.202 . S
O106 U86 2.455 . S
O106 C103 1.301 . S
O107 U86 2.449 . S
O107 C103 1.282 . S
H108 C81 0.931 . S
H109 C83 0.929 . S
H110 C84 0.930 . S
H111 C85 0.931 . S
H112 C92 0.932 . S
H113 C93 0.930 . S
H114 C94 0.929 . S
H115 C96 0.930 . S
H116 C98 0.932 . S
H117 C99 0.929 . S
H118 C100 0.928 . S
H119 C102 0.932 . S
C120 C121 1.264 . S
C120 C125 1.479 . S
C120 C130 1.465 . S
C121 C120 1.264 . S
C121 C123 1.339 . S
C121 H148 0.931 . S
C122 C123 1.395 . S
C122 C124 1.320 . S
C123 C121 1.339 . S
C123 C122 1.395 . S
C123 H149 0.929 . S
C124 C122 1.320 . S
C124 C125 1.405 . S
C124 H150 0.930 . S
C125 C120 1.479 . S
C125 C124 1.405 . S
C125 H151 0.931 . S
U126 O127 2.454 . S
U126 O128 2.458 . S
U126 C129 2.984 . S
U126 C130 2.847 . S
U126 C143 2.882 . S
U126 O144 2.441 . S
U126 O145 2.420 . S
U126 O146 2.455 . S
U126 O147 2.449 . S
O127 U126 2.454 . S
O127 C129 1.353 . S
O128 U126 2.458 . S
O128 C129 1.286 . S
C129 U126 2.984 . S
C129 O127 1.353 . S
C129 O128 1.286 . S
C129 C131 1.363 . S
C130 C120 1.465 . S
C130 U126 2.847 . S
C130 O144 1.249 . S
C130 O145 1.202 . S
C131 C129 1.363 . S
C131 C133 1.408 . S
C131 C136 1.342 . S
C132 C133 1.310 . S
C132 C135 1.461 . S
C132 H152 0.932 . S
C133 C131 1.408 . S
C133 C132 1.310 . S
C133 H153 0.930 . S
C134 C135 1.474 . S
C134 C136 1.285 . S
C134 H154 0.929 . S
C135 C132 1.461 . S
C135 C134 1.474 . S
C136 C131 1.342 . S
C136 C134 1.285 . S
C136 H155 0.930 . S
C137 C140 1.424 . S
C137 C142 1.245 . S
C137 C143 1.428 . S
C138 C141 1.260 . S
C138 C142 1.477 . S
C138 H156 0.932 . S
C139 C140 1.384 . S
C139 C141 1.479 . S
C139 H157 0.929 . S
C140 C137 1.424 . S
C140 C139 1.384 . S
C140 H158 0.928 . S
C141 C138 1.260 . S
C141 C139 1.479 . S
C142 C137 1.245 . S
C142 C138 1.477 . S
C142 H159 0.932 . S
C143 U126 2.882 . S
C143 C137 1.428 . S
C143 O146 1.301 . S
C143 O147 1.282 . S
O144 U126 2.441 . S
O144 C130 1.249 . S
O145 U126 2.420 . S
O145 C130 1.202 . S
O146 U126 2.455 . S
O146 C143 1.301 . S
O147 U126 2.449 . S
O147 C143 1.282 . S
H148 C121 0.931 . S
H149 C123 0.929 . S
H150 C124 0.930 . S
H151 C125 0.931 . S
H152 C132 0.932 . S
H153 C133 0.930 . S
H154 C134 0.929 . S
H155 C136 0.930 . S
H156 C138 0.932 . S
H157 C139 0.929 . S
H158 C140 0.928 . S
H159 C142 0.932 . S
C160 C161 1.264 . S
C160 C165 1.479 . S
C160 C170 1.465 . S
C161 C160 1.264 . S
C161 C163 1.339 . S
C161 H188 0.931 . S
C162 C163 1.395 . S
C162 C164 1.320 . S
C163 C161 1.339 . S
C163 C162 1.395 . S
C163 H189 0.929 . S
C164 C162 1.320 . S
C164 C165 1.405 . S
C164 H190 0.930 . S
C165 C160 1.479 . S
C165 C164 1.405 . S
C165 H191 0.931 . S
U166 O167 2.454 . S
U166 O168 2.458 . S
U166 C169 2.984 . S
U166 C170 2.847 . S
U166 C183 2.882 . S
U166 O184 2.441 . S
U166 O185 2.420 . S
U166 O186 2.455 . S
U166 O187 2.449 . S
O167 U166 2.454 . S
O167 C169 1.353 . S
O168 U166 2.458 . S
O168 C169 1.286 . S
C169 U166 2.984 . S
C169 O167 1.353 . S
C169 O168 1.286 . S
C169 C171 1.363 . S
C170 C160 1.465 . S
C170 U166 2.847 . S
C170 O184 1.249 . S
C170 O185 1.202 . S
C171 C169 1.363 . S
C171 C173 1.408 . S
C171 C176 1.342 . S
C172 C173 1.310 . S
C172 C175 1.461 . S
C172 H192 0.932 . S
C173 C171 1.408 . S
C173 C172 1.310 . S
C173 H193 0.930 . S
C174 C175 1.474 . S
C174 C176 1.285 . S
C174 H194 0.929 . S
C175 C172 1.461 . S
C175 C174 1.474 . S
C176 C171 1.342 . S
C176 C174 1.285 . S
C176 H195 0.930 . S
C177 C180 1.424 . S
C177 C182 1.245 . S
C177 C183 1.428 . S
C178 C181 1.260 . S
C178 C182 1.477 . S
C178 H196 0.932 . S
C179 C180 1.384 . S
C179 C181 1.479 . S
C179 H197 0.929 . S
C180 C177 1.424 . S
C180 C179 1.384 . S
C180 H198 0.928 . S
C181 C178 1.260 . S
C181 C179 1.479 . S
C182 C177 1.245 . S
C182 C178 1.477 . S
C182 H199 0.932 . S
C183 U166 2.882 . S
C183 C177 1.428 . S
C183 O186 1.301 . S
C183 O187 1.282 . S
O184 U166 2.441 . S
O184 C170 1.249 . S
O185 U166 2.420 . S
O185 C170 1.202 . S
O186 U166 2.455 . S
O186 C183 1.301 . S
O187 U166 2.449 . S
O187 C183 1.282 . S
H188 C161 0.931 . S
H189 C163 0.929 . S
H190 C164 0.930 . S
H191 C165 0.931 . S
H192 C172 0.932 . S
H193 C173 0.930 . S
H194 C174 0.929 . S
H195 C176 0.930 . S
H196 C178 0.932 . S
H197 C179 0.929 . S
H198 C180 0.928 . S
H199 C182 0.932 . S
C200 C201 1.264 . S
C200 C205 1.479 . S
C200 C210 1.465 . S
C201 C200 1.264 . S
C201 C203 1.339 . S
C201 H228 0.931 . S
C202 C203 1.395 . S
C202 C204 1.320 . S
C203 C201 1.339 . S
C203 C202 1.395 . S
C203 H229 0.929 . S
C204 C202 1.320 . S
C204 C205 1.405 . S
C204 H230 0.930 . S
C205 C200 1.479 . S
C205 C204 1.405 . S
C205 H231 0.931 . S
U206 O207 2.454 . S
U206 O208 2.458 . S
U206 C209 2.984 . S
U206 C210 2.847 . S
U206 C223 2.882 . S
U206 O224 2.441 . S
U206 O225 2.420 . S
U206 O226 2.455 . S
U206 O227 2.449 . S
O207 U206 2.454 . S
O207 C209 1.353 . S
O208 U206 2.458 . S
O208 C209 1.286 . S
C209 U206 2.984 . S
C209 O207 1.353 . S
C209 O208 1.286 . S
C209 C211 1.363 . S
C210 C200 1.465 . S
C210 U206 2.847 . S
C210 O224 1.249 . S
C210 O225 1.202 . S
C211 C209 1.363 . S
C211 C213 1.408 . S
C211 C216 1.342 . S
C212 C213 1.310 . S
C212 C215 1.461 . S
C212 H232 0.932 . S
C213 C211 1.408 . S
C213 C212 1.310 . S
C213 H233 0.930 . S
C214 C215 1.474 . S
C214 C216 1.285 . S
C214 H234 0.929 . S
C215 C212 1.461 . S
C215 C214 1.474 . S
C216 C211 1.342 . S
C216 C214 1.285 . S
C216 H235 0.930 . S
C217 C220 1.424 . S
C217 C222 1.245 . S
C217 C223 1.428 . S
C218 C221 1.260 . S
C218 C222 1.477 . S
C218 H236 0.932 . S
C219 C220 1.384 . S
C219 C221 1.479 . S
C219 H237 0.929 . S
C220 C217 1.424 . S
C220 C219 1.384 . S
C220 H238 0.928 . S
C221 C218 1.260 . S
C221 C219 1.479 . S
C222 C217 1.245 . S
C222 C218 1.477 . S
C222 H239 0.932 . S
C223 U206 2.882 . S
C223 C217 1.428 . S
C223 O226 1.301 . S
C223 O227 1.282 . S
O224 U206 2.441 . S
O224 C210 1.249 . S
O225 U206 2.420 . S
O225 C210 1.202 . S
O226 U206 2.455 . S
O226 C223 1.301 . S
O227 U206 2.449 . S
O227 C223 1.282 . S
H228 C201 0.931 . S
H229 C203 0.929 . S
H230 C204 0.930 . S
H231 C205 0.931 . S
H232 C212 0.932 . S
H233 C213 0.930 . S
H234 C214 0.929 . S
H235 C216 0.930 . S
H236 C218 0.932 . S
H237 C219 0.929 . S
H238 C220 0.928 . S
H239 C222 0.932 . S
C240 C241 1.264 . S
C240 C245 1.479 . S
C240 C250 1.465 . S
C241 C240 1.264 . S
C241 C243 1.339 . S
C241 H268 0.931 . S
C242 C243 1.395 . S
C242 C244 1.320 . S
C243 C241 1.339 . S
C243 C242 1.395 . S
C243 H269 0.929 . S
C244 C242 1.320 . S
C244 C245 1.405 . S
C244 H270 0.930 . S
C245 C240 1.479 . S
C245 C244 1.405 . S
C245 H271 0.931 . S
U246 O247 2.454 . S
U246 O248 2.458 . S
U246 C249 2.984 . S
U246 C250 2.847 . S
U246 C263 2.882 . S
U246 O264 2.441 . S
U246 O265 2.420 . S
U246 O266 2.455 . S
U246 O267 2.449 . S
O247 U246 2.454 . S
O247 C249 1.353 . S
O248 U246 2.458 . S
O248 C249 1.286 . S
C249 U246 2.984 . S
C249 O247 1.353 . S
C249 O248 1.286 . S
C249 C251 1.363 . S
C250 C240 1.465 . S
C250 U246 2.847 . S
C250 O264 1.249 . S
C250 O265 1.202 . S
C251 C249 1.363 . S
C251 C253 1.408 . S
C251 C256 1.342 . S
C252 C253 1.310 . S
C252 C255 1.461 . S
C252 H272 0.932 . S
C253 C251 1.408 . S
C253 C252 1.310 . S
C253 H273 0.930 . S
C254 C255 1.474 . S
C254 C256 1.285 . S
C254 H274 0.929 . S
C255 C252 1.461 . S
C255 C254 1.474 . S
C256 C251 1.342 . S
C256 C254 1.285 . S
C256 H275 0.930 . S
C257 C260 1.424 . S
C257 C262 1.245 . S
C257 C263 1.428 . S
C258 C261 1.260 . S
C258 C262 1.477 . S
C258 H276 0.932 . S
C259 C260 1.384 . S
C259 C261 1.479 . S
C259 H277 0.929 . S
C260 C257 1.424 . S
C260 C259 1.384 . S
C260 H278 0.928 . S
C261 C258 1.260 . S
C261 C259 1.479 . S
C262 C257 1.245 . S
C262 C258 1.477 . S
C262 H279 0.932 . S
C263 U246 2.882 . S
C263 C257 1.428 . S
C263 O266 1.301 . S
C263 O267 1.282 . S
O264 U246 2.441 . S
O264 C250 1.249 . S
O265 U246 2.420 . S
O265 C250 1.202 . S
O266 U246 2.455 . S
O266 C263 1.301 . S
O267 U246 2.449 . S
O267 C263 1.282 . S
H268 C241 0.931 . S
H269 C243 0.929 . S
H270 C244 0.930 . S
H271 C245 0.931 . S
H272 C252 0.932 . S
H273 C253 0.930 . S
H274 C254 0.929 . S
H275 C256 0.930 . S
H276 C258 0.932 . S
H277 C259 0.929 . S
H278 C260 0.928 . S
H279 C262 0.932 . S
C280 C281 1.264 . S
C280 C285 1.479 . S
C280 C290 1.465 . S
C281 C280 1.264 . S
C281 C283 1.339 . S
C281 H308 0.931 . S
C282 C283 1.395 . S
C282 C284 1.320 . S
C283 C281 1.339 . S
C283 C282 1.395 . S
C283 H309 0.929 . S
C284 C282 1.320 . S
C284 C285 1.405 . S
C284 H310 0.930 . S
C285 C280 1.479 . S
C285 C284 1.405 . S
C285 H311 0.931 . S
U286 O287 2.454 . S
U286 O288 2.458 . S
U286 C289 2.984 . S
U286 C290 2.847 . S
U286 C303 2.882 . S
U286 O304 2.441 . S
U286 O305 2.420 . S
U286 O306 2.455 . S
U286 O307 2.449 . S
O287 U286 2.454 . S
O287 C289 1.353 . S
O288 U286 2.458 . S
O288 C289 1.286 . S
C289 U286 2.984 . S
C289 O287 1.353 . S
C289 O288 1.286 . S
C289 C291 1.363 . S
C290 C280 1.465 . S
C290 U286 2.847 . S
C290 O304 1.249 . S
C290 O305 1.202 . S
C291 C289 1.363 . S
C291 C293 1.408 . S
C291 C296 1.342 . S
C292 C293 1.310 . S
C292 C295 1.461 . S
C292 H312 0.932 . S
C293 C291 1.408 . S
C293 C292 1.310 . S
C293 H313 0.930 . S
C294 C295 1.474 . S
C294 C296 1.285 . S
C294 H314 0.929 . S
C295 C292 1.461 . S
C295 C294 1.474 . S
C296 C291 1.342 . S
C296 C294 1.285 . S
C296 H315 0.930 . S
C297 C300 1.424 . S
C297 C302 1.245 . S
C297 C303 1.428 . S
C298 C301 1.260 . S
C298 C302 1.477 . S
C298 H316 0.932 . S
C299 C300 1.384 . S
C299 C301 1.479 . S
C299 H317 0.929 . S
C300 C297 1.424 . S
C300 C299 1.384 . S
C300 H318 0.928 . S
C301 C298 1.260 . S
C301 C299 1.479 . S
C302 C297 1.245 . S
C302 C298 1.477 . S
C302 H319 0.932 . S
C303 U286 2.882 . S
C303 C297 1.428 . S
C303 O306 1.301 . S
C303 O307 1.282 . S
O304 U286 2.441 . S
O304 C290 1.249 . S
O305 U286 2.420 . S
O305 C290 1.202 . S
O306 U286 2.455 . S
O306 C303 1.301 . S
O307 U286 2.449 . S
O307 C303 1.282 . S
H308 C281 0.931 . S
H309 C283 0.929 . S
H310 C284 0.930 . S
H311 C285 0.931 . S
H312 C292 0.932 . S
H313 C293 0.930 . S
H314 C294 0.929 . S
H315 C296 0.930 . S
H316 C298 0.932 . S
H317 C299 0.929 . S
H318 C300 0.928 . S
H319 C302 0.932 . S
C320 C321 1.264 . S
C320 C325 1.479 . S
C320 C330 1.465 . S
C321 C320 1.264 . S
C321 C323 1.339 . S
C321 H348 0.931 . S
C322 C323 1.395 . S
C322 C324 1.320 . S
C323 C321 1.339 . S
C323 C322 1.395 . S
C323 H349 0.929 . S
C324 C322 1.320 . S
C324 C325 1.405 . S
C324 H350 0.930 . S
C325 C320 1.479 . S
C325 C324 1.405 . S
C325 H351 0.931 . S
U326 O327 2.454 . S
U326 O328 2.458 . S
U326 C329 2.984 . S
U326 C330 2.847 . S
U326 C343 2.882 . S
U326 O344 2.441 . S
U326 O345 2.420 . S
U326 O346 2.455 . S
U326 O347 2.449 . S
O327 U326 2.454 . S
O327 C329 1.353 . S
O328 U326 2.458 . S
O328 C329 1.286 . S
C329 U326 2.984 . S
C329 O327 1.353 . S
C329 O328 1.286 . S
C329 C331 1.363 . S
C330 C320 1.465 . S
C330 U326 2.847 . S
C330 O344 1.249 . S
C330 O345 1.202 . S
C331 C329 1.363 . S
C331 C333 1.408 . S
C331 C336 1.342 . S
C332 C333 1.310 . S
C332 C335 1.461 . S
C332 H352 0.932 . S
C333 C331 1.408 . S
C333 C332 1.310 . S
C333 H353 0.930 . S
C334 C335 1.474 . S
C334 C336 1.285 . S
C334 H354 0.929 . S
C335 C332 1.461 . S
C335 C334 1.474 . S
C336 C331 1.342 . S
C336 C334 1.285 . S
C336 H355 0.930 . S
C337 C340 1.424 . S
C337 C342 1.245 . S
C337 C343 1.428 . S
C338 C341 1.260 . S
C338 C342 1.477 . S
C338 H356 0.932 . S
C339 C340 1.384 . S
C339 C341 1.479 . S
C339 H357 0.929 . S
C340 C337 1.424 . S
C340 C339 1.384 . S
C340 H358 0.928 . S
C341 C338 1.260 . S
C341 C339 1.479 . S
C342 C337 1.245 . S
C342 C338 1.477 . S
C342 H359 0.932 . S
C343 U326 2.882 . S
C343 C337 1.428 . S
C343 O346 1.301 . S
C343 O347 1.282 . S
O344 U326 2.441 . S
O344 C330 1.249 . S
O345 U326 2.420 . S
O345 C330 1.202 . S
O346 U326 2.455 . S
O346 C343 1.301 . S
O347 U326 2.449 . S
O347 C343 1.282 . S
H348 C321 0.931 . S
H349 C323 0.929 . S
H350 C324 0.930 . S
H351 C325 0.931 . S
H352 C332 0.932 . S
H353 C333 0.930 . S
H354 C334 0.929 . S
H355 C336 0.930 . S
H356 C338 0.932 . S
H357 C339 0.929 . S
H358 C340 0.928 . S
H359 C342 0.932 . S
C360 C361 1.264 . S
C360 C365 1.479 . S
C360 C370 1.465 . S
C361 C360 1.264 . S
C361 C363 1.339 . S
C361 H388 0.931 . S
C362 C363 1.395 . S
C362 C364 1.320 . S
C363 C361 1.339 . S
C363 C362 1.395 . S
C363 H389 0.929 . S
C364 C362 1.320 . S
C364 C365 1.405 . S
C364 H390 0.930 1_556 S
C365 C360 1.479 . S
C365 C364 1.405 . S
C365 H391 0.931 . S
U366 O367 2.454 . S
U366 O368 2.458 . S
U366 C369 2.984 . S
U366 C370 2.847 . S
U366 C383 2.882 . S
U366 O384 2.441 . S
U366 O385 2.420 . S
U366 O386 2.455 . S
U366 O387 2.449 . S
O367 U366 2.454 . S
O367 C369 1.353 . S
O368 U366 2.458 . S
O368 C369 1.286 . S
C369 U366 2.984 . S
C369 O367 1.353 . S
C369 O368 1.286 . S
C369 C371 1.363 . S
C370 C360 1.465 . S
C370 U366 2.847 . S
C370 O384 1.249 . S
C370 O385 1.202 . S
C371 C369 1.363 . S
C371 C373 1.408 . S
C371 C376 1.342 . S
C372 C373 1.310 . S
C372 C375 1.461 . S
C372 H392 0.932 1_556 S
C373 C371 1.408 . S
C373 C372 1.310 . S
C373 H393 0.930 . S
C374 C375 1.474 . S
C374 C376 1.285 . S
C374 H394 0.929 . S
C375 C372 1.461 . S
C375 C374 1.474 . S
C376 C371 1.342 . S
C376 C374 1.285 . S
C376 H395 0.930 . S
C377 C380 1.424 . S
C377 C382 1.245 . S
C377 C383 1.428 . S
C378 C381 1.260 . S
C378 C382 1.477 . S
C378 H396 0.932 . S
C379 C380 1.384 . S
C379 C381 1.479 . S
C379 H397 0.929 . S
C380 C377 1.424 . S
C380 C379 1.384 . S
C380 H398 0.928 . S
C381 C378 1.260 . S
C381 C379 1.479 . S
C382 C377 1.245 . S
C382 C378 1.477 . S
C382 H399 0.932 . S
C383 U366 2.882 . S
C383 C377 1.428 . S
C383 O386 1.301 . S
C383 O387 1.282 . S
O384 U366 2.441 . S
O384 C370 1.249 . S
O385 U366 2.420 . S
O385 C370 1.202 . S
O386 U366 2.455 . S
O386 C383 1.301 . S
O387 U366 2.449 . S
O387 C383 1.282 . S
H388 C361 0.931 . S
H389 C363 0.929 . S
H390 C364 0.930 1_554 S
H391 C365 0.931 . S
H392 C372 0.932 1_554 S
H393 C373 0.930 . S
H394 C374 0.929 . S
H395 C376 0.930 . S
H396 C378 0.932 . S
H397 C379 0.929 . S
H398 C380 0.928 . S
H399 C382 0.932 . S
C400 C401 1.264 . S
C400 C405 1.479 . S
C400 C410 1.465 . S
C401 C400 1.264 . S
C401 C403 1.339 . S
C401 H428 0.931 . S
C402 C403 1.395 . S
C402 C404 1.320 . S
C403 C401 1.339 . S
C403 C402 1.395 . S
C403 H429 0.929 . S
C404 C402 1.320 . S
C404 C405 1.405 . S
C404 H430 0.930 1_556 S
C405 C400 1.479 . S
C405 C404 1.405 . S
C405 H431 0.931 . S
U406 O407 2.454 . S
U406 O408 2.458 . S
U406 C409 2.984 . S
U406 C410 2.847 . S
U406 C423 2.882 . S
U406 O424 2.441 . S
U406 O425 2.420 . S
U406 O426 2.455 . S
U406 O427 2.449 . S
O407 U406 2.454 . S
O407 C409 1.353 . S
O408 U406 2.458 . S
O408 C409 1.286 . S
C409 U406 2.984 . S
C409 O407 1.353 . S
C409 O408 1.286 . S
C409 C411 1.363 . S
C410 C400 1.465 . S
C410 U406 2.847 . S
C410 O424 1.249 . S
C410 O425 1.202 . S
C411 C409 1.363 . S
C411 C413 1.408 . S
C411 C416 1.342 . S
C412 C413 1.310 . S
C412 C415 1.461 . S
C412 H432 0.932 1_556 S
C413 C411 1.408 . S
C413 C412 1.310 . S
C413 H433 0.930 . S
C414 C415 1.474 . S
C414 C416 1.285 . S
C414 H434 0.929 . S
C415 C412 1.461 . S
C415 C414 1.474 . S
C416 C411 1.342 . S
C416 C414 1.285 . S
C416 H435 0.930 . S
C417 C420 1.424 . S
C417 C422 1.245 . S
C417 C423 1.428 . S
C418 C421 1.260 . S
C418 C422 1.477 . S
C418 H436 0.932 . S
C419 C420 1.384 . S
C419 C421 1.479 . S
C419 H437 0.929 . S
C420 C417 1.424 . S
C420 C419 1.384 . S
C420 H438 0.928 . S
C421 C418 1.260 . S
C421 C419 1.479 . S
C422 C417 1.245 . S
C422 C418 1.477 . S
C422 H439 0.932 . S
C423 U406 2.882 . S
C423 C417 1.428 . S
C423 O426 1.301 . S
C423 O427 1.282 . S
O424 U406 2.441 . S
O424 C410 1.249 . S
O425 U406 2.420 . S
O425 C410 1.202 . S
O426 U406 2.455 . S
O426 C423 1.301 . S
O427 U406 2.449 . S
O427 C423 1.282 . S
H428 C401 0.931 . S
H429 C403 0.929 . S
H430 C404 0.930 1_554 S
H431 C405 0.931 . S
H432 C412 0.932 1_554 S
H433 C413 0.930 . S
H434 C414 0.929 . S
H435 C416 0.930 . S
H436 C418 0.932 . S
H437 C419 0.929 . S
H438 C420 0.928 . S
H439 C422 0.932 . S
C440 C441 1.264 . S
C440 C445 1.479 . S
C440 C450 1.465 . S
C441 C440 1.264 . S
C441 C443 1.339 . S
C441 H468 0.931 . S
C442 C443 1.395 . S
C442 C444 1.320 . S
C443 C441 1.339 . S
C443 C442 1.395 . S
C443 H469 0.929 . S
C444 C442 1.320 . S
C444 C445 1.405 . S
C444 H470 0.930 1_556 S
C445 C440 1.479 . S
C445 C444 1.405 . S
C445 H471 0.931 . S
U446 O447 2.454 . S
U446 O448 2.458 . S
U446 C449 2.984 . S
U446 C450 2.847 . S
U446 C463 2.882 . S
U446 O464 2.441 . S
U446 O465 2.420 . S
U446 O466 2.455 . S
U446 O467 2.449 . S
O447 U446 2.454 . S
O447 C449 1.353 . S
O448 U446 2.458 . S
O448 C449 1.286 . S
C449 U446 2.984 . S
C449 O447 1.353 . S
C449 O448 1.286 . S
C449 C451 1.363 . S
C450 C440 1.465 . S
C450 U446 2.847 . S
C450 O464 1.249 . S
C450 O465 1.202 . S
C451 C449 1.363 . S
C451 C453 1.408 . S
C451 C456 1.342 . S
C452 C453 1.310 . S
C452 C455 1.461 . S
C452 H472 0.932 1_556 S
C453 C451 1.408 . S
C453 C452 1.310 . S
C453 H473 0.930 . S
C454 C455 1.474 . S
C454 C456 1.285 . S
C454 H474 0.929 . S
C455 C452 1.461 . S
C455 C454 1.474 . S
C456 C451 1.342 . S
C456 C454 1.285 . S
C456 H475 0.930 . S
C457 C460 1.424 . S
C457 C462 1.245 . S
C457 C463 1.428 . S
C458 C461 1.260 . S
C458 C462 1.477 . S
C458 H476 0.932 . S
C459 C460 1.384 . S
C459 C461 1.479 . S
C459 H477 0.929 . S
C460 C457 1.424 . S
C460 C459 1.384 . S
C460 H478 0.928 . S
C461 C458 1.260 . S
C461 C459 1.479 . S
C462 C457 1.245 . S
C462 C458 1.477 . S
C462 H479 0.932 . S
C463 U446 2.882 . S
C463 C457 1.428 . S
C463 O466 1.301 . S
C463 O467 1.282 . S
O464 U446 2.441 . S
O464 C450 1.249 . S
O465 U446 2.420 . S
O465 C450 1.202 . S
O466 U446 2.455 . S
O466 C463 1.301 . S
O467 U446 2.449 . S
O467 C463 1.282 . S
H468 C441 0.931 . S
H469 C443 0.929 . S
H470 C444 0.930 1_554 S
H471 C445 0.931 . S
H472 C452 0.932 1_554 S
H473 C453 0.930 . S
H474 C454 0.929 . S
H475 C456 0.930 . S
H476 C458 0.932 . S
H477 C459 0.929 . S
H478 C460 0.928 . S
H479 C462 0.932 . S
C480 C481 1.264 . S
C480 C485 1.479 . S
C480 C490 1.465 . S
C481 C480 1.264 . S
C481 C483 1.339 . S
C481 H508 0.931 . S
C482 C483 1.395 . S
C482 C484 1.320 . S
C483 C481 1.339 . S
C483 C482 1.395 . S
C483 H509 0.929 . S
C484 C482 1.320 . S
C484 C485 1.405 . S
C484 H510 0.930 . S
C485 C480 1.479 . S
C485 C484 1.405 . S
C485 H511 0.931 . S
U486 O487 2.454 . S
U486 O488 2.458 . S
U486 C489 2.984 . S
U486 C490 2.847 . S
U486 C503 2.882 . S
U486 O504 2.441 . S
U486 O505 2.420 . S
U486 O506 2.455 . S
U486 O507 2.449 . S
O487 U486 2.454 . S
O487 C489 1.353 . S
O488 U486 2.458 . S
O488 C489 1.286 . S
C489 U486 2.984 . S
C489 O487 1.353 . S
C489 O488 1.286 . S
C489 C491 1.363 . S
C490 C480 1.465 . S
C490 U486 2.847 . S
C490 O504 1.249 . S
C490 O505 1.202 . S
C491 C489 1.363 . S
C491 C493 1.408 . S
C491 C496 1.342 . S
C492 C493 1.310 . S
C492 C495 1.461 . S
C492 H512 0.932 . S
C493 C491 1.408 . S
C493 C492 1.310 . S
C493 H513 0.930 . S
C494 C495 1.474 . S
C494 C496 1.285 . S
C494 H514 0.929 . S
C495 C492 1.461 . S
C495 C494 1.474 . S
C496 C491 1.342 . S
C496 C494 1.285 . S
C496 H515 0.930 . S
C497 C500 1.424 . S
C497 C502 1.245 . S
C497 C503 1.428 . S
C498 C501 1.260 . S
C498 C502 1.477 . S
C498 H516 0.932 . S
C499 C500 1.384 . S
C499 C501 1.479 . S
C499 H517 0.929 . S
C500 C497 1.424 . S
C500 C499 1.384 . S
C500 H518 0.928 . S
C501 C498 1.260 . S
C501 C499 1.479 . S
C502 C497 1.245 . S
C502 C498 1.477 . S
C502 H519 0.932 . S
C503 U486 2.882 . S
C503 C497 1.428 . S
C503 O506 1.301 . S
C503 O507 1.282 . S
O504 U486 2.441 . S
O504 C490 1.249 . S
O505 U486 2.420 . S
O505 C490 1.202 . S
O506 U486 2.455 . S
O506 C503 1.301 . S
O507 U486 2.449 . S
O507 C503 1.282 . S
H508 C481 0.931 . S
H509 C483 0.929 . S
H510 C484 0.930 . S
H511 C485 0.931 . S
H512 C492 0.932 . S
H513 C493 0.930 . S
H514 C494 0.929 . S
H515 C496 0.930 . S
H516 C498 0.932 . S
H517 C499 0.929 . S
H518 C500 0.928 . S
H519 C502 0.932 . S
C520 C521 1.264 . S
C520 C525 1.479 . S
C520 C530 1.465 . S
C521 C520 1.264 . S
C521 C523 1.339 . S
C521 H548 0.931 . S
C522 C523 1.395 . S
C522 C524 1.320 . S
C523 C521 1.339 . S
C523 C522 1.395 . S
C523 H549 0.929 . S
C524 C522 1.320 . S
C524 C525 1.405 . S
C524 H550 0.930 . S
C525 C520 1.479 . S
C525 C524 1.405 . S
C525 H551 0.931 . S
U526 O527 2.454 . S
U526 O528 2.458 . S
U526 C529 2.984 . S
U526 C530 2.847 . S
U526 C543 2.882 . S
U526 O544 2.441 . S
U526 O545 2.420 . S
U526 O546 2.455 . S
U526 O547 2.449 . S
O527 U526 2.454 . S
O527 C529 1.353 . S
O528 U526 2.458 . S
O528 C529 1.286 . S
C529 U526 2.984 . S
C529 O527 1.353 . S
C529 O528 1.286 . S
C529 C531 1.363 . S
C530 C520 1.465 . S
C530 U526 2.847 . S
C530 O544 1.249 . S
C530 O545 1.202 . S
C531 C529 1.363 . S
C531 C533 1.408 . S
C531 C536 1.342 . S
C532 C533 1.310 . S
C532 C535 1.461 . S
C532 H552 0.932 . S
C533 C531 1.408 . S
C533 C532 1.310 . S
C533 H553 0.930 . S
C534 C535 1.474 . S
C534 C536 1.285 . S
C534 H554 0.929 . S
C535 C532 1.461 . S
C535 C534 1.474 . S
C536 C531 1.342 . S
C536 C534 1.285 . S
C536 H555 0.930 . S
C537 C540 1.424 . S
C537 C542 1.245 . S
C537 C543 1.428 . S
C538 C541 1.260 . S
C538 C542 1.477 . S
C538 H556 0.932 . S
C539 C540 1.384 . S
C539 C541 1.479 . S
C539 H557 0.929 . S
C540 C537 1.424 . S
C540 C539 1.384 . S
C540 H558 0.928 . S
C541 C538 1.260 . S
C541 C539 1.479 . S
C542 C537 1.245 . S
C542 C538 1.477 . S
C542 H559 0.932 . S
C543 U526 2.882 . S
C543 C537 1.428 . S
C543 O546 1.301 . S
C543 O547 1.282 . S
O544 U526 2.441 . S
O544 C530 1.249 . S
O545 U526 2.420 . S
O545 C530 1.202 . S
O546 U526 2.455 . S
O546 C543 1.301 . S
O547 U526 2.449 . S
O547 C543 1.282 . S
H548 C521 0.931 . S
H549 C523 0.929 . S
H550 C524 0.930 . S
H551 C525 0.931 . S
H552 C532 0.932 . S
H553 C533 0.930 . S
H554 C534 0.929 . S
H555 C536 0.930 . S
H556 C538 0.932 . S
H557 C539 0.929 . S
H558 C540 0.928 . S
H559 C542 0.932 . S
C560 C561 1.264 . S
C560 C565 1.479 . S
C560 C570 1.465 . S
C561 C560 1.264 . S
C561 C563 1.339 . S
C561 H588 0.931 . S
C562 C563 1.395 . S
C562 C564 1.320 . S
C563 C561 1.339 . S
C563 C562 1.395 . S
C563 H589 0.929 . S
C564 C562 1.320 . S
C564 C565 1.405 . S
C564 H590 0.930 . S
C565 C560 1.479 . S
C565 C564 1.405 . S
C565 H591 0.931 . S
U566 O567 2.454 . S
U566 O568 2.458 . S
U566 C569 2.984 . S
U566 C570 2.847 . S
U566 C583 2.882 . S
U566 O584 2.441 . S
U566 O585 2.420 . S
U566 O586 2.455 . S
U566 O587 2.449 . S
O567 U566 2.454 . S
O567 C569 1.353 . S
O568 U566 2.458 . S
O568 C569 1.286 . S
C569 U566 2.984 . S
C569 O567 1.353 . S
C569 O568 1.286 . S
C569 C571 1.363 . S
C570 C560 1.465 . S
C570 U566 2.847 . S
C570 O584 1.249 . S
C570 O585 1.202 . S
C571 C569 1.363 . S
C571 C573 1.408 . S
C571 C576 1.342 . S
C572 C573 1.310 . S
C572 C575 1.461 . S
C572 H592 0.932 . S
C573 C571 1.408 . S
C573 C572 1.310 . S
C573 H593 0.930 . S
C574 C575 1.474 . S
C574 C576 1.285 . S
C574 H594 0.929 . S
C575 C572 1.461 . S
C575 C574 1.474 . S
C576 C571 1.342 . S
C576 C574 1.285 . S
C576 H595 0.930 . S
C577 C580 1.424 . S
C577 C582 1.245 . S
C577 C583 1.428 . S
C578 C581 1.260 . S
C578 C582 1.477 . S
C578 H596 0.932 . S
C579 C580 1.384 . S
C579 C581 1.479 . S
C579 H597 0.929 . S
C580 C577 1.424 . S
C580 C579 1.384 . S
C580 H598 0.928 . S
C581 C578 1.260 . S
C581 C579 1.479 . S
C582 C577 1.245 . S
C582 C578 1.477 . S
C582 H599 0.932 . S
C583 U566 2.882 . S
C583 C577 1.428 . S
C583 O586 1.301 . S
C583 O587 1.282 . S
O584 U566 2.441 . S
O584 C570 1.249 . S
O585 U566 2.420 . S
O585 C570 1.202 . S
O586 U566 2.455 . S
O586 C583 1.301 . S
O587 U566 2.449 . S
O587 C583 1.282 . S
H588 C561 0.931 . S
H589 C563 0.929 . S
H590 C564 0.930 . S
H591 C565 0.931 . S
H592 C572 0.932 . S
H593 C573 0.930 . S
H594 C574 0.929 . S
H595 C576 0.930 . S
H596 C578 0.932 . S
H597 C579 0.929 . S
H598 C580 0.928 . S
H599 C582 0.932 . S
C600 C601 1.264 . S
C600 C605 1.479 . S
C600 C610 1.465 . S
C601 C600 1.264 . S
C601 C603 1.339 . S
C601 H628 0.931 . S
C602 C603 1.395 . S
C602 C604 1.320 . S
C603 C601 1.339 . S
C603 C602 1.395 . S
C603 H629 0.929 . S
C604 C602 1.320 . S
C604 C605 1.405 . S
C604 H630 0.930 . S
C605 C600 1.479 . S
C605 C604 1.405 . S
C605 H631 0.931 . S
U606 O607 2.454 . S
U606 O608 2.458 . S
U606 C609 2.984 . S
U606 C610 2.847 . S
U606 C623 2.882 . S
U606 O624 2.441 . S
U606 O625 2.420 . S
U606 O626 2.455 . S
U606 O627 2.449 . S
O607 U606 2.454 . S
O607 C609 1.353 . S
O608 U606 2.458 . S
O608 C609 1.286 . S
C609 U606 2.984 . S
C609 O607 1.353 . S
C609 O608 1.286 . S
C609 C611 1.363 . S
C610 C600 1.465 . S
C610 U606 2.847 . S
C610 O624 1.249 . S
C610 O625 1.202 . S
C611 C609 1.363 . S
C611 C613 1.408 . S
C611 C616 1.342 . S
C612 C613 1.310 . S
C612 C615 1.461 . S
C612 H632 0.932 . S
C613 C611 1.408 . S
C613 C612 1.310 . S
C613 H633 0.930 . S
C614 C615 1.474 . S
C614 C616 1.285 . S
C614 H634 0.929 . S
C615 C612 1.461 . S
C615 C614 1.474 . S
C616 C611 1.342 . S
C616 C614 1.285 . S
C616 H635 0.930 . S
C617 C620 1.424 . S
C617 C622 1.245 . S
C617 C623 1.428 . S
C618 C621 1.260 . S
C618 C622 1.477 . S
C618 H636 0.932 . S
C619 C620 1.384 . S
C619 C621 1.479 . S
C619 H637 0.929 . S
C620 C617 1.424 . S
C620 C619 1.384 . S
C620 H638 0.928 . S
C621 C618 1.260 . S
C621 C619 1.479 . S
C622 C617 1.245 . S
C622 C618 1.477 . S
C622 H639 0.932 . S
C623 U606 2.882 . S
C623 C617 1.428 . S
C623 O626 1.301 . S
C623 O627 1.282 . S
O624 U606 2.441 . S
O624 C610 1.249 . S
O625 U606 2.420 . S
O625 C610 1.202 . S
O626 U606 2.455 . S
O626 C623 1.301 . S
O627 U606 2.449 . S
O627 C623 1.282 . S
H628 C601 0.931 . S
H629 C603 0.929 . S
H630 C604 0.930 . S
H631 C605 0.931 . S
H632 C612 0.932 . S
H633 C613 0.930 . S
H634 C614 0.929 . S
H635 C616 0.930 . S
H636 C618 0.932 . S
H637 C619 0.929 . S
H638 C620 0.928 . S
H639 C622 0.932 . S
C640 C641 1.264 . S
C640 C645 1.479 . S
C640 C650 1.465 . S
C641 C640 1.264 . S
C641 C643 1.339 . S
C641 H668 0.931 . S
C642 C643 1.395 . S
C642 C644 1.320 . S
C643 C641 1.339 . S
C643 C642 1.395 . S
C643 H669 0.929 . S
C644 C642 1.320 . S
C644 C645 1.405 . S
C644 H670 0.930 . S
C645 C640 1.479 . S
C645 C644 1.405 . S
C645 H671 0.931 . S
U646 O647 2.454 . S
U646 O648 2.458 . S
U646 C649 2.984 . S
U646 C650 2.847 . S
U646 C663 2.882 . S
U646 O664 2.441 . S
U646 O665 2.420 . S
U646 O666 2.455 . S
U646 O667 2.449 . S
O647 U646 2.454 . S
O647 C649 1.353 . S
O648 U646 2.458 . S
O648 C649 1.286 . S
C649 U646 2.984 . S
C649 O647 1.353 . S
C649 O648 1.286 . S
C649 C651 1.363 . S
C650 C640 1.465 . S
C650 U646 2.847 . S
C650 O664 1.249 . S
C650 O665 1.202 . S
C651 C649 1.363 . S
C651 C653 1.408 . S
C651 C656 1.342 . S
C652 C653 1.310 . S
C652 C655 1.461 . S
C652 H672 0.932 . S
C653 C651 1.408 . S
C653 C652 1.310 . S
C653 H673 0.930 . S
C654 C655 1.474 . S
C654 C656 1.285 . S
C654 H674 0.929 . S
C655 C652 1.461 . S
C655 C654 1.474 . S
C656 C651 1.342 . S
C656 C654 1.285 . S
C656 H675 0.930 . S
C657 C660 1.424 . S
C657 C662 1.245 . S
C657 C663 1.428 . S
C658 C661 1.260 . S
C658 C662 1.477 . S
C658 H676 0.932 . S
C659 C660 1.384 . S
C659 C661 1.479 . S
C659 H677 0.929 . S
C660 C657 1.424 . S
C660 C659 1.384 . S
C660 H678 0.928 . S
C661 C658 1.260 . S
C661 C659 1.479 . S
C662 C657 1.245 . S
C662 C658 1.477 . S
C662 H679 0.932 . S
C663 U646 2.882 . S
C663 C657 1.428 . S
C663 O666 1.301 . S
C663 O667 1.282 . S
O664 U646 2.441 . S
O664 C650 1.249 . S
O665 U646 2.420 . S
O665 C650 1.202 . S
O666 U646 2.455 . S
O666 C663 1.301 . S
O667 U646 2.449 . S
O667 C663 1.282 . S
H668 C641 0.931 . S
H669 C643 0.929 . S
H670 C644 0.930 . S
H671 C645 0.931 . S
H672 C652 0.932 . S
H673 C653 0.930 . S
H674 C654 0.929 . S
H675 C656 0.930 . S
H676 C658 0.932 . S
H677 C659 0.929 . S
H678 C660 0.928 . S
H679 C662 0.932 . S
C680 C681 1.264 . S
C680 C685 1.479 . S
C680 C690 1.465 . S
C681 C680 1.264 . S
C681 C683 1.339 . S
C681 H708 0.931 . S
C682 C683 1.395 . S
C682 C684 1.320 . S
C683 C681 1.339 . S
C683 C682 1.395 . S
C683 H709 0.929 . S
C684 C682 1.320 . S
C684 C685 1.405 . S
C684 H710 0.930 . S
C685 C680 1.479 . S
C685 C684 1.405 . S
C685 H711 0.931 . S
U686 O687 2.454 . S
U686 O688 2.458 . S
U686 C689 2.984 . S
U686 C690 2.847 . S
U686 C703 2.882 . S
U686 O704 2.441 . S
U686 O705 2.420 . S
U686 O706 2.455 . S
U686 O707 2.449 . S
O687 U686 2.454 . S
O687 C689 1.353 . S
O688 U686 2.458 . S
O688 C689 1.286 . S
C689 U686 2.984 . S
C689 O687 1.353 . S
C689 O688 1.286 . S
C689 C691 1.363 . S
C690 C680 1.465 . S
C690 U686 2.847 . S
C690 O704 1.249 . S
C690 O705 1.202 . S
C691 C689 1.363 . S
C691 C693 1.408 . S
C691 C696 1.342 . S
C692 C693 1.310 . S
C692 C695 1.461 . S
C692 H712 0.932 . S
C693 C691 1.408 . S
C693 C692 1.310 . S
C693 H713 0.930 . S
C694 C695 1.474 . S
C694 C696 1.285 . S
C694 H714 0.929 . S
C695 C692 1.461 . S
C695 C694 1.474 . S
C696 C691 1.342 . S
C696 C694 1.285 . S
C696 H715 0.930 . S
C697 C700 1.424 . S
C697 C702 1.245 . S
C697 C703 1.428 . S
C698 C701 1.260 . S
C698 C702 1.477 . S
C698 H716 0.932 . S
C699 C700 1.384 . S
C699 C701 1.479 . S
C699 H717 0.929 . S
C700 C697 1.424 . S
C700 C699 1.384 . S
C700 H718 0.928 . S
C701 C698 1.260 . S
C701 C699 1.479 . S
C702 C697 1.245 . S
C702 C698 1.477 . S
C702 H719 0.932 . S
C703 U686 2.882 . S
C703 C697 1.428 . S
C703 O706 1.301 . S
C703 O707 1.282 . S
O704 U686 2.441 . S
O704 C690 1.249 . S
O705 U686 2.420 . S
O705 C690 1.202 . S
O706 U686 2.455 . S
O706 C703 1.301 . S
O707 U686 2.449 . S
O707 C703 1.282 . S
H708 C681 0.931 . S
H709 C683 0.929 . S
H710 C684 0.930 . S
H711 C685 0.931 . S
H712 C692 0.932 . S
H713 C693 0.930 . S
H714 C694 0.929 . S
H715 C696 0.930 . S
H716 C698 0.932 . S
H717 C699 0.929 . S
H718 C700 0.928 . S
H719 C702 0.932 . S
O720 Mg721 1.990 . S
O720 C734 1.253 1_565 S
Mg721 O720 1.990 . S
Mg721 O724 2.180 1_556 S
Mg721 O725 2.117 . S
Mg721 O739 2.030 1_565 S
O722 Mg723 2.072 1_556 S
O722 C734 1.260 . S
Mg723 O722 2.072 1_554 S
Mg723 O724 2.099 1_545 S
Mg723 O726 2.079 . S
Mg723 O727 2.072 1_545 S
Mg723 O729 2.099 . S
Mg723 O740 2.079 . S
O724 Mg721 2.180 1_554 S
O724 Mg723 2.099 1_565 S
O724 C735 1.279 . S
O725 Mg721 2.117 . S
O725 C735 1.250 1_556 S
O726 Mg723 2.079 . S
O726 C736 1.264 . S
O727 Mg723 2.072 1_565 S
O727 C737 1.260 . S
Mg728 O729 2.180 . S
Mg728 O730 2.055 . S
Mg728 O731 1.990 1_545 S
Mg728 O732 2.117 . S
O729 Mg723 2.099 . S
O729 Mg728 2.180 . S
O729 C738 1.279 . S
O730 Mg728 2.055 . S
O730 C736 1.230 . S
O731 Mg728 1.990 1_565 S
O731 C737 1.253 . S
O732 Mg728 2.117 . S
O732 C738 1.250 . S
C733 O739 1.248 . S
C733 O740 1.264 1_556 S
C734 O720 1.253 1_545 S
C734 O722 1.260 . S
C735 O724 1.279 . S
C735 O725 1.250 1_554 S
C736 O726 1.264 . S
C736 O730 1.230 . S
C737 O727 1.260 . S
C737 O731 1.253 . S
C738 O729 1.279 . S
C738 O732 1.250 . S
O739 Mg721 2.030 1_545 S
O739 C733 1.248 . S
O740 Mg723 2.079 . S
O740 C733 1.264 1_554 S
O741 Mg742 1.990 . S
O741 C755 1.251 . S
Mg742 O741 1.990 . S
Mg742 O745 2.180 1_556 S
Mg742 O746 2.117 . S
Mg742 O760 2.030 1_455 S
O743 Mg744 2.072 1_556 S
O743 C755 1.265 1_655 S
Mg744 O743 2.072 1_554 S
Mg744 O745 2.096 1_655 S
Mg744 O747 2.081 . S
Mg744 O748 2.045 1_655 S
Mg744 O750 2.102 . S
Mg744 O761 2.106 . S
O745 Mg742 2.180 1_554 S
O745 Mg744 2.096 1_455 S
O745 C756 1.279 . S
O746 Mg742 2.117 . S
O746 C756 1.250 1_556 S
O747 Mg744 2.081 . S
O747 C757 1.264 1_655 S
O748 Mg744 2.045 1_455 S
O748 C758 1.260 . S
Mg749 O750 2.180 . S
Mg749 O751 2.030 1_655 S
Mg749 O752 1.990 1_655 S
Mg749 O753 2.117 . S
O750 Mg744 2.102 . S
O750 Mg749 2.180 . S
O750 C759 1.279 . S
O751 Mg749 2.030 1_455 S
O751 C757 1.248 . S
O752 Mg749 1.990 1_455 S
O752 C758 1.253 . S
O753 Mg749 2.117 . S
O753 C759 1.250 . S
C754 O760 1.248 . S
C754 O761 1.264 1_556 S
C755 O741 1.251 . S
C755 O743 1.265 1_455 S
C756 O745 1.279 . S
C756 O746 1.250 1_554 S
C757 O747 1.264 1_455 S
C757 O751 1.248 . S
C758 O748 1.260 . S
C758 O752 1.253 . S
C759 O750 1.279 . S
C759 O753 1.250 . S
O760 Mg742 2.030 1_655 S
O760 C754 1.248 . S
O761 Mg744 2.106 . S
O761 C754 1.264 1_554 S
O762 Mg763 1.990 . S
O762 C776 1.253 . S
Mg763 O762 1.990 . S
Mg763 O766 2.180 . S
Mg763 O767 2.117 . S
Mg763 O781 2.030 . S
O764 Mg765 2.071 1_554 S
O764 C776 1.260 . S
Mg765 O764 2.071 1_556 S
Mg765 O766 2.099 1_556 S
Mg765 O768 2.080 . S
Mg765 O769 2.072 . S
Mg765 O771 2.099 . S
Mg765 O782 2.078 1_556 S
O766 Mg763 2.180 . S
O766 Mg765 2.099 1_554 S
O766 C777 1.279 . S
O767 Mg763 2.117 . S
O767 C777 1.250 . S
O768 Mg765 2.080 . S
O768 C778 1.264 . S
O769 Mg765 2.072 . S
O769 C779 1.260 . S
Mg770 O771 2.180 . S
Mg770 O772 2.030 . S
Mg770 O773 1.990 . S
Mg770 O774 2.155 . S
O771 Mg765 2.099 . S
O771 Mg770 2.180 . S
O771 C780 1.279 1_556 S
O772 Mg770 2.030 . S
O772 C778 1.248 . S
O773 Mg770 1.990 . S
O773 C779 1.253 . S
O774 Mg770 2.155 . S
O774 C780 1.236 1_556 S
C775 O781 1.248 . S
C775 O782 1.285 . S
C776 O762 1.253 . S
C776 O764 1.260 . S
C777 O766 1.279 . S
C777 O767 1.250 . S
C778 O768 1.264 . S
C778 O772 1.248 . S
C779 O769 1.260 . S
C779 O773 1.253 . S
C780 O771 1.279 1_554 S
C780 O774 1.236 1_554 S
O781 Mg763 2.030 . S
O781 C775 1.248 . S
O782 Mg765 2.078 1_554 S
O782 C775 1.285 . S
O783 Mg784 1.990 . S
O783 C797 1.253 . S
Mg784 O783 1.990 . S
Mg784 O787 2.180 . S
Mg784 O788 2.117 . S
Mg784 O802 2.030 . S
O785 Mg786 2.072 . S
O785 C797 1.260 . S
Mg786 O785 2.072 . S
Mg786 O787 2.099 . S
Mg786 O789 2.079 . S
Mg786 O790 2.072 . S
Mg786 O792 2.099 . S
Mg786 O803 2.079 . S
O787 Mg784 2.180 . S
O787 Mg786 2.099 . S
O787 C798 1.279 . S
O788 Mg784 2.117 . S
O788 C798 1.250 . S
O789 Mg786 2.079 . S
O789 C799 1.264 . S
O790 Mg786 2.072 . S
O790 C800 1.260 . S
Mg791 O792 2.180 . S
Mg791 O793 2.030 . S
Mg791 O794 1.990 . S
Mg791 O795 2.117 . S
O792 Mg786 2.099 . S
O792 Mg791 2.180 . S
O792 C801 1.279 . S
O793 Mg791 2.030 . S
O793 C799 1.248 . S
O794 Mg791 1.990 . S
O794 C800 1.253 . S
O795 Mg791 2.117 . S
O795 C801 1.250 . S
C796 O802 1.248 . S
C796 O803 1.264 . S
C797 O783 1.253 . S
C797 O785 1.260 . S
C798 O787 1.279 . S
C798 O788 1.250 . S
C799 O789 1.264 . S
C799 O793 1.248 . S
C800 O790 1.260 . S
C800 O794 1.253 . S
C801 O792 1.279 . S
C801 O795 1.250 . S
O802 Mg784 2.030 . S
O802 C796 1.248 . S
O803 Mg786 2.079 . S
O803 C796 1.264 . S
O804 Mg805 1.990 . S
O804 C818 1.253 . S
Mg805 O804 1.990 . S
Mg805 O808 2.180 . S
Mg805 O809 2.117 . S
Mg805 O823 2.030 . S
O806 Mg807 2.072 . S
O806 C818 1.260 . S
Mg807 O806 2.072 . S
Mg807 O808 2.099 . S
Mg807 O810 2.079 . S
Mg807 O811 2.072 . S
Mg807 O813 2.099 . S
Mg807 O824 2.079 . S
O808 Mg805 2.180 . S
O808 Mg807 2.099 . S
O808 C819 1.279 . S
O809 Mg805 2.117 . S
O809 C819 1.250 . S
O810 Mg807 2.079 . S
O810 C820 1.264 . S
O811 Mg807 2.072 . S
O811 C821 1.260 . S
Mg812 O813 2.180 . S
Mg812 O814 2.030 . S
Mg812 O815 1.990 . S
Mg812 O816 2.117 . S
O813 Mg807 2.099 . S
O813 Mg812 2.180 . S
O813 C822 1.279 . S
O814 Mg812 2.030 . S
O814 C820 1.248 . S
O815 Mg812 1.990 . S
O815 C821 1.253 . S
O816 Mg812 2.117 . S
O816 C822 1.250 . S
C817 O823 1.248 . S
C817 O824 1.264 . S
C818 O804 1.253 . S
C818 O806 1.260 . S
C819 O808 1.279 . S
C819 O809 1.250 . S
C820 O810 1.264 . S
C820 O814 1.248 . S
C821 O811 1.260 . S
C821 O815 1.253 . S
C822 O813 1.279 . S
C822 O816 1.250 . S
O823 Mg805 2.030 . S
O823 C817 1.248 . S
O824 Mg807 2.079 . S
O824 C817 1.264 . S
O825 Mg826 1.990 . S
O825 C839 1.253 . S
Mg826 O825 1.990 . S
Mg826 O829 2.180 . S
Mg826 O830 2.117 . S
Mg826 O844 2.030 . S
O827 Mg828 2.072 . S
O827 C839 1.260 . S
Mg828 O827 2.072 . S
Mg828 O829 2.099 . S
Mg828 O831 2.079 . S
Mg828 O832 2.072 . S
Mg828 O834 2.099 . S
Mg828 O845 2.079 . S
O829 Mg826 2.180 . S
O829 Mg828 2.099 . S
O829 C840 1.279 . S
O830 Mg826 2.117 . S
O830 C840 1.250 . S
O831 Mg828 2.079 . S
O831 C841 1.264 . S
O832 Mg828 2.072 . S
O832 C842 1.260 . S
Mg833 O834 2.180 . S
Mg833 O835 2.030 . S
Mg833 O836 1.990 . S
Mg833 O837 2.117 . S
O834 Mg828 2.099 . S
O834 Mg833 2.180 . S
O834 C843 1.279 . S
O835 Mg833 2.030 . S
O835 C841 1.248 . S
O836 Mg833 1.990 . S
O836 C842 1.253 . S
O837 Mg833 2.117 . S
O837 C843 1.250 . S
C838 O844 1.248 . S
C838 O845 1.264 . S
C839 O825 1.253 . S
C839 O827 1.260 . S
C840 O829 1.279 . S
C840 O830 1.250 . S
C841 O831 1.264 . S
C841 O835 1.248 . S
C842 O832 1.260 . S
C842 O836 1.253 . S
C843 O834 1.279 . S
C843 O837 1.250 . S
O844 Mg826 2.030 . S
O844 C838 1.248 . S
O845 Mg828 2.079 . S
O845 C838 1.264 . S
O846 Mg847 1.990 . S
O846 C860 1.253 . S
Mg847 O846 1.990 . S
Mg847 O850 2.180 . S
Mg847 O851 2.117 . S
Mg847 O865 2.030 . S
O848 Mg849 2.072 . S
O848 C860 1.260 . S
Mg849 O848 2.072 . S
Mg849 O850 2.099 . S
Mg849 O852 2.079 . S
Mg849 O853 2.072 . S
Mg849 O855 2.099 . S
Mg849 O866 2.079 . S
O850 Mg847 2.180 . S
O850 Mg849 2.099 . S
O850 C861 1.279 . S
O851 Mg847 2.117 . S
O851 C861 1.250 . S
O852 Mg849 2.079 . S
O852 C862 1.264 . S
O853 Mg849 2.072 . S
O853 C863 1.260 . S
Mg854 O855 2.180 . S
Mg854 O856 2.030 . S
Mg854 O857 1.990 . S
Mg854 O858 2.117 . S
O855 Mg849 2.099 . S
O855 Mg854 2.180 . S
O855 C864 1.279 . S
O856 Mg854 2.030 . S
O856 C862 1.248 . S
O857 Mg854 1.990 . S
O857 C863 1.253 . S
O858 Mg854 2.117 . S
O858 C864 1.250 . S
C859 O865 1.248 . S
C859 O866 1.264 . S
C860 O846 1.253 . S
C860 O848 1.260 . S
C861 O850 1.279 . S
C861 O851 1.250 . S
C862 O852 1.264 . S
C862 O856 1.248 . S
C863 O853 1.260 . S
C863 O857 1.253 . S
C864 O855 1.279 . S
C864 O858 1.250 . S
O865 Mg847 2.030 . S
O865 C859 1.248 . S
O866 Mg849 2.079 . S
O866 C859 1.264 . S
O867 Mg868 1.990 . S
O867 C881 1.253 . S
Mg868 O867 1.990 . S
Mg868 O871 2.180 . S
Mg868 O872 2.117 . S
Mg868 O886 2.030 . S
O869 Mg870 2.072 . S
O869 C881 1.260 . S
Mg870 O869 2.072 . S
Mg870 O871 2.099 . S
Mg870 O873 2.079 . S
Mg870 O874 2.072 . S
Mg870 O876 2.099 . S
Mg870 O887 2.079 . S
O871 Mg868 2.180 . S
O871 Mg870 2.099 . S
O871 C882 1.279 . S
O872 Mg868 2.117 . S
O872 C882 1.250 . S
O873 Mg870 2.079 . S
O873 C883 1.264 . S
O874 Mg870 2.072 . S
O874 C884 1.260 . S
Mg875 O876 2.180 . S
Mg875 O877 2.030 . S
Mg875 O878 1.990 . S
Mg875 O879 2.117 . S
O876 Mg870 2.099 . S
O876 Mg875 2.180 . S
O876 C885 1.279 . S
O877 Mg875 2.030 . S
O877 C883 1.248 . S
O878 Mg875 1.990 . S
O878 C884 1.253 . S
O879 Mg875 2.117 . S
O879 C885 1.250 . S
C880 O886 1.248 . S
C880 O887 1.264 . S
C881 O867 1.253 . S
C881 O869 1.260 . S
C882 O871 1.279 . S
C882 O872 1.250 . S
C883 O873 1.264 . S
C883 O877 1.248 . S
C884 O874 1.260 . S
C884 O878 1.253 . S
C885 O876 1.279 . S
C885 O879 1.250 . S
O886 Mg868 2.030 . S
O886 C880 1.248 . S
O887 Mg870 2.079 . S
O887 C880 1.264 . S
O888 Mg889 1.990 . S
O888 C902 1.253 . S
Mg889 O888 1.990 . S
Mg889 O892 2.180 . S
Mg889 O893 2.117 . S
Mg889 O907 2.030 . S
O890 Mg891 2.072 . S
O890 C902 1.260 . S
Mg891 O890 2.072 . S
Mg891 O892 2.099 . S
Mg891 O894 2.079 . S
Mg891 O895 2.072 . S
Mg891 O897 2.099 . S
Mg891 O908 2.079 . S
O892 Mg889 2.180 . S
O892 Mg891 2.099 . S
O892 C903 1.279 . S
O893 Mg889 2.117 . S
O893 C903 1.250 . S
O894 Mg891 2.079 . S
O894 C904 1.264 . S
O895 Mg891 2.072 . S
O895 C905 1.260 . S
Mg896 O897 2.180 . S
Mg896 O898 2.030 . S
Mg896 O899 1.990 . S
Mg896 O900 2.117 . S
O897 Mg891 2.099 . S
O897 Mg896 2.180 . S
O897 C906 1.279 . S
O898 Mg896 2.030 . S
O898 C904 1.248 . S
O899 Mg896 1.990 . S
O899 C905 1.253 . S
O900 Mg896 2.117 . S
O900 C906 1.250 . S
C901 O907 1.248 . S
C901 O908 1.264 . S
C902 O888 1.253 . S
C902 O890 1.260 . S
C903 O892 1.279 . S
C903 O893 1.250 . S
C904 O894 1.264 . S
C904 O898 1.248 . S
C905 O895 1.260 . S
C905 O899 1.253 . S
C906 O897 1.279 . S
C906 O900 1.250 . S
O907 Mg889 2.030 . S
O907 C901 1.248 . S
O908 Mg891 2.079 . S
O908 C901 1.264 . S
H909 C915 0.930 . S
H910 C919 0.930 1_556 S
H911 C924 0.929 . S
H912 C922 0.929 . S
H913 C917 0.929 1_556 S
H914 C923 0.929 . S
C915 H909 0.930 . S
C915 C916 1.367 . S
C915 C923 1.378 . S
C916 C915 1.367 . S
C916 C924 1.433 . S
C917 H913 0.929 1_554 S
C917 C919 1.378 . S
C917 C921 1.350 . S
C918 C921 1.463 . S
C918 C923 1.350 . S
C918 N926 1.427 . S
C919 H910 0.930 1_554 S
C919 C917 1.378 . S
C919 C920 1.367 . S
C920 C919 1.367 . S
C920 C922 1.433 . S
C921 C917 1.350 . S
C921 C918 1.463 . S
C921 N925 1.427 . S
C922 H912 0.929 . S
C922 C920 1.433 . S
C922 N925 1.384 . S
C923 H914 0.929 . S
C923 C915 1.378 . S
C923 C918 1.350 . S
C924 H911 0.929 . S
C924 C916 1.433 . S
C924 N926 1.384 . S
N925 C921 1.427 . S
N925 C922 1.384 . S
N926 C918 1.427 . S
N926 C924 1.384 . S
H927 C933 0.930 . S
H928 C937 0.973 . S
H929 C942 0.929 1_556 S
H930 C940 0.929 . S
H931 C935 0.929 1_556 S
H932 C941 0.929 . S
C933 H927 0.930 . S
C933 C934 1.367 . S
C933 C941 1.378 . S
C934 C933 1.367 . S
C934 C942 1.433 . S
C935 H931 0.929 1_554 S
C935 C937 1.374 1_554 S
C935 C939 1.350 . S
C936 C939 1.463 . S
C936 C941 1.350 . S
C936 N944 1.427 . S
C937 H928 0.973 . S
C937 C935 1.374 1_556 S
C937 C938 1.329 1_556 S
C938 C937 1.329 1_554 S
C938 C940 1.433 . S
C939 C935 1.350 . S
C939 C936 1.463 . S
C939 N943 1.427 . S
C940 H930 0.929 . S
C940 C938 1.433 . S
C940 N943 1.384 . S
C941 H932 0.929 . S
C941 C933 1.378 . S
C941 C936 1.350 . S
C942 H929 0.929 1_554 S
C942 C934 1.433 . S
C942 N944 1.384 . S
N943 C939 1.427 . S
N943 C940 1.384 . S
N944 C936 1.427 . S
N944 C942 1.384 . S
H945 C951 0.930 . S
H946 C955 0.930 . S
H947 C960 0.929 1_556 S
H948 C958 0.929 . S
H949 C953 0.965 . S
H950 C959 0.929 . S
C951 H945 0.930 . S
C951 C952 1.367 . S
C951 C959 1.378 . S
C952 C951 1.367 . S
C952 C960 1.433 . S
C953 H949 0.965 . S
C953 C955 1.382 . S
C953 C957 1.311 1_556 S
C954 C957 1.463 . S
C954 C959 1.350 . S
C954 N962 1.427 . S
C955 H946 0.930 . S
C955 C953 1.382 . S
C955 C956 1.367 1_556 S
C956 C955 1.367 1_554 S
C956 C958 1.433 . S
C957 C953 1.311 1_554 S
C957 C954 1.463 . S
C957 N961 1.427 . S
C958 H948 0.929 . S
C958 C956 1.433 . S
C958 N961 1.384 . S
C959 H950 0.929 . S
C959 C951 1.378 . S
C959 C954 1.350 . S
C960 H947 0.929 1_554 S
C960 C952 1.433 . S
C960 N962 1.384 . S
N961 C957 1.427 . S
N961 C958 1.384 . S
N962 C954 1.427 . S
N962 C960 1.384 . S
H963 C969 0.930 . S
H964 C973 0.930 . S
H965 C978 0.929 . S
H966 C976 0.929 . S
H967 C971 0.929 . S
H968 C977 0.929 . S
C969 H963 0.930 . S
C969 C970 1.367 1_554 S
C969 C977 1.378 . S
C970 C969 1.367 1_556 S
C970 C978 1.433 . S
C971 H967 0.929 . S
C971 C973 1.378 . S
C971 C975 1.350 . S
C972 C975 1.463 . S
C972 C977 1.350 1_556 S
C972 N980 1.427 . S
C973 H964 0.930 . S
C973 C971 1.378 . S
C973 C974 1.367 . S
C974 C973 1.367 . S
C974 C976 1.433 1_556 S
C975 C971 1.350 . S
C975 C972 1.463 . S
C975 N979 1.427 1_556 S
C976 H966 0.929 . S
C976 C974 1.433 1_554 S
C976 N979 1.384 . S
C977 H968 0.929 . S
C977 C969 1.378 . S
C977 C972 1.350 1_554 S
C978 H965 0.929 . S
C978 C970 1.433 . S
C978 N980 1.384 . S
N979 C975 1.427 1_554 S
N979 C976 1.384 . S
N980 C972 1.427 . S
N980 C978 1.384 . S
H981 C987 0.930 . S
H982 C991 0.930 . S
H983 C996 0.945 . S
H984 C994 0.929 . S
H985 C989 0.929 . S
H986 C995 0.929 . S
C987 H981 0.930 . S
C987 C988 1.367 . S
C987 C995 1.378 . S
C988 C987 1.367 . S
C988 C996 1.415 1_556 S
C989 H985 0.929 . S
C989 C991 1.378 . S
C989 C993 1.350 1_554 S
C990 C993 1.463 . S
C990 C995 1.350 . S
C990 N998 1.427 1_556 S
C991 H982 0.930 . S
C991 C989 1.378 . S
C991 C992 1.367 1_554 S
C992 C991 1.367 1_556 S
C992 C994 1.433 . S
C993 C989 1.350 1_556 S
C993 C990 1.463 . S
C993 N997 1.427 . S
C994 H984 0.929 . S
C994 C992 1.433 . S
C994 N997 1.384 . S
C995 H986 0.929 . S
C995 C987 1.378 . S
C995 C990 1.350 . S
C996 H983 0.945 . S
C996 C988 1.415 1_554 S
C996 N998 1.386 . S
N997 C993 1.427 . S
N997 C994 1.384 . S
N998 C990 1.427 1_554 S
N998 C996 1.386 . S
H999 C1005 0.930 1_554 S
H1000 C1009 0.930 . S
H1001 C1014 0.929 . S
H1002 C1012 0.929 . S
H1003 C1007 0.929 . S
H1004 C1013 0.931 1_554 S
C1005 H999 0.930 1_556 S
C1005 C1006 1.367 . S
C1005 C1013 1.377 . S
C1006 C1005 1.367 . S
C1006 C1014 1.433 . S
C1007 H1003 0.929 . S
C1007 C1009 1.378 . S
C1007 C1011 1.350 . S
C1008 C1011 1.463 . S
C1008 C1013 1.347 . S
C1008 N1016 1.427 . S
C1009 H1000 0.930 . S
C1009 C1007 1.378 . S
C1009 C1010 1.367 . S
C1010 C1009 1.367 . S
C1010 C1012 1.433 1_556 S
C1011 C1007 1.350 . S
C1011 C1008 1.463 . S
C1011 N1015 1.427 1_556 S
C1012 H1002 0.929 . S
C1012 C1010 1.433 1_554 S
C1012 N1015 1.384 . S
C1013 H1004 0.931 1_556 S
C1013 C1005 1.377 . S
C1013 C1008 1.347 . S
C1014 H1001 0.929 . S
C1014 C1006 1.433 . S
C1014 N1016 1.384 . S
N1015 C1011 1.427 1_554 S
N1015 C1012 1.384 . S
N1016 C1008 1.427 . S
N1016 C1014 1.384 . S
H1017 C1023 0.930 . S
H1018 C1027 0.930 . S
H1019 C1032 0.945 . S
H1020 C1030 0.929 . S
H1021 C1025 0.929 . S
H1022 C1031 0.929 . S
C1023 H1017 0.930 . S
C1023 C1024 1.367 . S
C1023 C1031 1.378 . S
C1024 C1023 1.367 . S
C1024 C1032 1.414 1_556 S
C1025 H1021 0.929 . S
C1025 C1027 1.378 . S
C1025 C1029 1.350 1_554 S
C1026 C1029 1.463 . S
C1026 C1031 1.350 . S
C1026 N1034 1.427 1_556 S
C1027 H1018 0.930 . S
C1027 C1025 1.378 . S
C1027 C1028 1.367 1_554 S
C1028 C1027 1.367 1_556 S
C1028 C1030 1.433 . S
C1029 C1025 1.350 1_556 S
C1029 C1026 1.463 . S
C1029 N1033 1.427 . S
C1030 H1020 0.929 . S
C1030 C1028 1.433 . S
C1030 N1033 1.384 . S
C1031 H1022 0.929 . S
C1031 C1023 1.378 . S
C1031 C1026 1.350 . S
C1032 H1019 0.945 . S
C1032 C1024 1.414 1_554 S
C1032 N1034 1.387 . S
N1033 C1029 1.427 . S
N1033 C1030 1.384 . S
N1034 C1026 1.427 1_554 S
N1034 C1032 1.387 . S
H1035 C1041 0.930 . S
H1036 C1045 0.930 . S
H1037 C1050 0.929 . S
H1038 C1048 0.929 . S
H1039 C1043 0.929 . S
H1040 C1049 0.929 . S
C1041 H1035 0.930 . S
C1041 C1042 1.367 1_554 S
C1041 C1049 1.378 . S
C1042 C1041 1.367 1_556 S
C1042 C1050 1.433 . S
C1043 H1039 0.929 . S
C1043 C1045 1.378 . S
C1043 C1047 1.350 . S
C1044 C1047 1.463 . S
C1044 C1049 1.350 1_556 S
C1044 N1052 1.427 . S
C1045 H1036 0.930 . S
C1045 C1043 1.378 . S
C1045 C1046 1.367 . S
C1046 C1045 1.367 . S
C1046 C1048 1.433 1_556 S
C1047 C1043 1.350 . S
C1047 C1044 1.463 . S
C1047 N1051 1.427 1_556 S
C1048 H1038 0.929 . S
C1048 C1046 1.433 1_554 S
C1048 N1051 1.384 . S
C1049 H1040 0.929 . S
C1049 C1041 1.378 . S
C1049 C1044 1.350 1_554 S
C1050 H1037 0.929 . S
C1050 C1042 1.433 . S
C1050 N1052 1.384 . S
N1051 C1047 1.427 1_554 S
N1051 C1048 1.384 . S
N1052 C1044 1.427 . S
N1052 C1050 1.384 . S
H1053 C1059 0.930 . S
H1054 C1063 0.930 . S
H1055 C1068 0.929 . S
H1056 C1066 0.929 . S
H1057 C1061 0.929 . S
H1058 C1067 0.929 . S
C1059 H1053 0.930 . S
C1059 C1060 1.367 1_554 S
C1059 C1067 1.378 . S
C1060 C1059 1.367 1_556 S
C1060 C1068 1.433 . S
C1061 H1057 0.929 . S
C1061 C1063 1.378 . S
C1061 C1065 1.350 . S
C1062 C1065 1.463 . S
C1062 C1067 1.350 1_556 S
C1062 N1070 1.427 . S
C1063 H1054 0.930 . S
C1063 C1061 1.378 . S
C1063 C1064 1.367 . S
C1064 C1063 1.367 . S
C1064 C1066 1.433 1_556 S
C1065 C1061 1.350 . S
C1065 C1062 1.463 . S
C1065 N1069 1.427 1_556 S
C1066 H1056 0.929 . S
C1066 C1064 1.433 1_554 S
C1066 N1069 1.384 . S
C1067 H1058 0.929 . S
C1067 C1059 1.378 . S
C1067 C1062 1.350 1_554 S
C1068 H1055 0.929 . S
C1068 C1060 1.433 . S
C1068 N1070 1.384 . S
N1069 C1065 1.427 1_554 S
N1069 C1066 1.384 . S
N1070 C1062 1.427 . S
N1070 C1068 1.384 . S
H1071 C1077 0.930 . S
H1072 C1081 0.930 . S
H1073 C1086 0.929 1_556 S
H1074 C1084 0.929 . S
H1075 C1079 0.963 . S
H1076 C1085 0.929 . S
C1077 H1071 0.930 . S
C1077 C1078 1.367 . S
C1077 C1085 1.378 . S
C1078 C1077 1.367 . S
C1078 C1086 1.433 . S
C1079 H1075 0.963 . S
C1079 C1081 1.383 . S
C1079 C1083 1.313 1_556 S
C1080 C1083 1.463 . S
C1080 C1085 1.350 . S
C1080 N1088 1.427 . S
C1081 H1072 0.930 . S
C1081 C1079 1.383 . S
C1081 C1082 1.367 1_556 S
C1082 C1081 1.367 1_554 S
C1082 C1084 1.433 . S
C1083 C1079 1.313 1_554 S
C1083 C1080 1.463 . S
C1083 N1087 1.427 . S
C1084 H1074 0.929 . S
C1084 C1082 1.433 . S
C1084 N1087 1.384 . S
C1085 H1076 0.929 . S
C1085 C1077 1.378 . S
C1085 C1080 1.350 . S
C1086 H1073 0.929 1_554 S
C1086 C1078 1.433 . S
C1086 N1088 1.384 . S
N1087 C1083 1.427 . S
N1087 C1084 1.384 . S
N1088 C1080 1.427 . S
N1088 C1086 1.384 . S
H1089 C1095 0.930 . S
H1090 C1099 0.930 . S
H1091 C1104 0.929 1_556 S
H1092 C1102 0.929 . S
H1093 C1097 0.957 . S
H1094 C1103 0.929 . S
C1095 H1089 0.930 . S
C1095 C1096 1.367 . S
C1095 C1103 1.378 . S
C1096 C1095 1.367 . S
C1096 C1104 1.433 . S
C1097 H1093 0.957 . S
C1097 C1099 1.384 . S
C1097 C1101 1.316 1_556 S
C1098 C1101 1.463 . S
C1098 C1103 1.350 . S
C1098 N1106 1.427 . S
C1099 H1090 0.930 . S
C1099 C1097 1.384 . S
C1099 C1100 1.367 1_556 S
C1100 C1099 1.367 1_554 S
C1100 C1102 1.433 . S
C1101 C1097 1.316 1_554 S
C1101 C1098 1.463 . S
C1101 N1105 1.427 . S
C1102 H1092 0.929 . S
C1102 C1100 1.433 . S
C1102 N1105 1.384 . S
C1103 H1094 0.929 . S
C1103 C1095 1.378 . S
C1103 C1098 1.350 . S
C1104 H1091 0.929 1_554 S
C1104 C1096 1.433 . S
C1104 N1106 1.384 . S
N1105 C1101 1.427 . S
N1105 C1102 1.384 . S
N1106 C1098 1.427 . S
N1106 C1104 1.384 . S
H1107 C1113 0.930 . S
H1108 C1117 0.930 1_556 S
H1109 C1122 0.929 . S
H1110 C1120 0.929 . S
H1111 C1115 0.945 . S
H1112 C1121 0.929 . S
C1113 H1107 0.930 . S
C1113 C1114 1.367 . S
C1113 C1121 1.378 . S
C1114 C1113 1.367 . S
C1114 C1122 1.433 . S
C1115 H1111 0.945 . S
C1115 C1117 1.378 . S
C1115 C1119 1.350 . S
C1116 C1119 1.463 . S
C1116 C1121 1.350 . S
C1116 N1124 1.427 . S
C1117 H1108 0.930 1_554 S
C1117 C1115 1.378 . S
C1117 C1118 1.367 . S
C1118 C1117 1.367 . S
C1118 C1120 1.433 . S
C1119 C1115 1.350 . S
C1119 C1116 1.463 . S
C1119 N1123 1.427 . S
C1120 H1110 0.929 . S
C1120 C1118 1.433 . S
C1120 N1123 1.384 . S
C1121 H1112 0.929 . S
C1121 C1113 1.378 . S
C1121 C1116 1.350 . S
C1122 H1109 0.929 . S
C1122 C1114 1.433 . S
C1122 N1124 1.384 . S
N1123 C1119 1.427 . S
N1123 C1120 1.384 . S
N1124 C1116 1.427 . S
N1124 C1122 1.384 . S
H1125 C1131 0.929 1_655 S
H1126 C1135 0.930 . S
H1127 C1140 0.929 1_655 S
H1128 C1138 0.929 . S
H1129 C1133 0.929 . S
H1130 C1139 0.929 . S
C1131 H1125 0.929 1_455 S
C1131 C1132 1.367 1_455 S
C1131 C1139 1.378 . S
C1132 C1131 1.367 1_655 S
C1132 C1140 1.433 1_655 S
C1133 H1129 0.929 . S
C1133 C1135 1.378 . S
C1133 C1137 1.350 . S
C1134 C1137 1.463 . S
C1134 C1139 1.350 . S
C1134 N1142 1.427 . S
C1135 H1126 0.930 . S
C1135 C1133 1.378 . S
C1135 C1136 1.367 . S
C1136 C1135 1.367 . S
C1136 C1138 1.433 . S
C1137 C1133 1.350 . S
C1137 C1134 1.463 . S
C1137 N1141 1.427 . S
C1138 H1128 0.929 . S
C1138 C1136 1.433 . S
C1138 N1141 1.384 . S
C1139 H1130 0.929 . S
C1139 C1131 1.378 . S
C1139 C1134 1.350 . S
C1140 H1127 0.929 1_455 S
C1140 C1132 1.433 1_455 S
C1140 N1142 1.384 . S
N1141 C1137 1.427 . S
N1141 C1138 1.384 . S
N1142 C1134 1.427 . S
N1142 C1140 1.384 . S
H1143 C1149 0.930 . S
H1144 C1153 0.930 . S
H1145 C1158 0.929 . S
H1146 C1156 0.929 . S
H1147 C1151 0.929 . S
H1148 C1157 0.929 . S
C1149 H1143 0.930 . S
C1149 C1150 1.367 . S
C1149 C1157 1.378 . S
C1150 C1149 1.367 . S
C1150 C1158 1.433 . S
C1151 H1147 0.929 . S
C1151 C1153 1.378 . S
C1151 C1155 1.350 . S
C1152 C1155 1.463 . S
C1152 C1157 1.350 . S
C1152 N1160 1.427 . S
C1153 H1144 0.930 . S
C1153 C1151 1.378 . S
C1153 C1154 1.367 . S
C1154 C1153 1.367 . S
C1154 C1156 1.433 . S
C1155 C1151 1.350 . S
C1155 C1152 1.463 . S
C1155 N1159 1.427 . S
C1156 H1146 0.929 . S
C1156 C1154 1.433 . S
C1156 N1159 1.384 . S
C1157 H1148 0.929 . S
C1157 C1149 1.378 . S
C1157 C1152 1.350 . S
C1158 H1145 0.929 . S
C1158 C1150 1.433 . S
C1158 N1160 1.384 . S
N1159 C1155 1.427 . S
N1159 C1156 1.384 . S
N1160 C1152 1.427 . S
N1160 C1158 1.384 . S
H1161 C1167 0.930 1_545 S
H1162 C1171 0.930 . S
H1163 C1176 0.929 . S
H1164 C1174 0.929 . S
H1165 C1169 0.929 . S
H1166 C1175 0.929 . S
C1167 H1161 0.930 1_565 S
C1167 C1168 1.367 1_565 S
C1167 C1175 1.378 . S
C1168 C1167 1.367 1_545 S
C1168 C1176 1.433 . S
C1169 H1165 0.929 . S
C1169 C1171 1.378 . S
C1169 C1173 1.350 . S
C1170 C1173 1.463 . S
C1170 C1175 1.350 . S
C1170 N1178 1.427 . S
C1171 H1162 0.930 . S
C1171 C1169 1.378 . S
C1171 C1172 1.367 . S
C1172 C1171 1.367 . S
C1172 C1174 1.433 . S
C1173 C1169 1.350 . S
C1173 C1170 1.463 . S
C1173 N1177 1.427 . S
C1174 H1164 0.929 . S
C1174 C1172 1.433 . S
C1174 N1177 1.384 . S
C1175 H1166 0.929 . S
C1175 C1167 1.378 . S
C1175 C1170 1.350 . S
C1176 H1163 0.929 . S
C1176 C1168 1.433 . S
C1176 N1178 1.384 1_545 S
N1177 C1173 1.427 . S
N1177 C1174 1.384 . S
N1178 C1170 1.427 . S
N1178 C1176 1.384 1_565 S
H1179 C1185 0.930 . S
H1180 C1189 0.930 . S
H1181 C1194 0.929 . S
H1182 C1192 0.929 . S
H1183 C1187 0.929 . S
H1184 C1193 0.929 . S
C1185 H1179 0.930 . S
C1185 C1186 1.367 . S
C1185 C1193 1.378 . S
C1186 C1185 1.367 . S
C1186 C1194 1.433 . S
C1187 H1183 0.929 . S
C1187 C1189 1.378 . S
C1187 C1191 1.350 . S
C1188 C1191 1.463 . S
C1188 C1193 1.350 . S
C1188 N1196 1.427 . S
C1189 H1180 0.930 . S
C1189 C1187 1.378 . S
C1189 C1190 1.367 . S
C1190 C1189 1.367 . S
C1190 C1192 1.433 . S
C1191 C1187 1.350 . S
C1191 C1188 1.463 . S
C1191 N1195 1.427 . S
C1192 H1182 0.929 . S
C1192 C1190 1.433 . S
C1192 N1195 1.384 . S
C1193 H1184 0.929 . S
C1193 C1185 1.378 . S
C1193 C1188 1.350 . S
C1194 H1181 0.929 . S
C1194 C1186 1.433 . S
C1194 N1196 1.384 . S
N1195 C1191 1.427 . S
N1195 C1192 1.384 . S
N1196 C1188 1.427 . S
N1196 C1194 1.384 . S
H1197 C1203 0.930 . S
H1198 C1207 0.930 . S
H1199 C1212 0.929 . S
H1200 C1210 0.929 . S
H1201 C1205 0.929 . S
H1202 C1211 0.929 . S
C1203 H1197 0.930 . S
C1203 C1204 1.367 . S
C1203 C1211 1.378 . S
C1204 C1203 1.367 . S
C1204 C1212 1.433 . S
C1205 H1201 0.929 . S
C1205 C1207 1.378 . S
C1205 C1209 1.350 . S
C1206 C1209 1.463 . S
C1206 C1211 1.350 . S
C1206 N1214 1.427 . S
C1207 H1198 0.930 . S
C1207 C1205 1.378 . S
C1207 C1208 1.367 . S
C1208 C1207 1.367 . S
C1208 C1210 1.433 . S
C1209 C1205 1.350 . S
C1209 C1206 1.463 . S
C1209 N1213 1.427 . S
C1210 H1200 0.929 . S
C1210 C1208 1.433 . S
C1210 N1213 1.384 . S
C1211 H1202 0.929 . S
C1211 C1203 1.378 . S
C1211 C1206 1.350 . S
C1212 H1199 0.929 . S
C1212 C1204 1.433 . S
C1212 N1214 1.384 . S
N1213 C1209 1.427 . S
N1213 C1210 1.384 . S
N1214 C1206 1.427 . S
N1214 C1212 1.384 . S
H1215 C1221 0.930 . S
H1216 C1225 0.930 . S
H1217 C1230 0.929 . S
H1218 C1228 0.929 . S
H1219 C1223 0.929 . S
H1220 C1229 0.929 . S
C1221 H1215 0.930 . S
C1221 C1222 1.367 . S
C1221 C1229 1.378 . S
C1222 C1221 1.367 . S
C1222 C1230 1.433 . S
C1223 H1219 0.929 . S
C1223 C1225 1.378 . S
C1223 C1227 1.350 . S
C1224 C1227 1.463 . S
C1224 C1229 1.350 . S
C1224 N1232 1.427 . S
C1225 H1216 0.930 . S
C1225 C1223 1.378 . S
C1225 C1226 1.367 . S
C1226 C1225 1.367 . S
C1226 C1228 1.433 . S
C1227 C1223 1.350 . S
C1227 C1224 1.463 . S
C1227 N1231 1.427 . S
C1228 H1218 0.929 . S
C1228 C1226 1.433 . S
C1228 N1231 1.384 . S
C1229 H1220 0.929 . S
C1229 C1221 1.378 . S
C1229 C1224 1.350 . S
C1230 H1217 0.929 . S
C1230 C1222 1.433 . S
C1230 N1232 1.384 . S
N1231 C1227 1.427 . S
N1231 C1228 1.384 . S
N1232 C1224 1.427 . S
N1232 C1230 1.384 . S
H1233 C1239 0.930 . S
H1234 C1243 0.930 . S
H1235 C1248 0.929 . S
H1236 C1246 0.929 . S
H1237 C1241 0.929 . S
H1238 C1247 0.929 . S
C1239 H1233 0.930 . S
C1239 C1240 1.367 . S
C1239 C1247 1.378 . S
C1240 C1239 1.367 . S
C1240 C1248 1.433 . S
C1241 H1237 0.929 . S
C1241 C1243 1.378 . S
C1241 C1245 1.350 . S
C1242 C1245 1.463 . S
C1242 C1247 1.350 . S
C1242 N1250 1.427 . S
C1243 H1234 0.930 . S
C1243 C1241 1.378 . S
C1243 C1244 1.367 . S
C1244 C1243 1.367 . S
C1244 C1246 1.433 . S
C1245 C1241 1.350 . S
C1245 C1242 1.463 . S
C1245 N1249 1.427 . S
C1246 H1236 0.929 . S
C1246 C1244 1.433 . S
C1246 N1249 1.384 . S
C1247 H1238 0.929 . S
C1247 C1239 1.378 . S
C1247 C1242 1.350 . S
C1248 H1235 0.929 . S
C1248 C1240 1.433 . S
C1248 N1250 1.384 . S
N1249 C1245 1.427 . S
N1249 C1246 1.384 . S
N1250 C1242 1.427 . S
N1250 C1248 1.384 . S
H1251 C1257 0.930 . S
H1252 C1261 0.930 . S
H1253 C1266 0.929 . S
H1254 C1264 0.929 . S
H1255 C1259 0.929 . S
H1256 C1265 0.929 . S
C1257 H1251 0.930 . S
C1257 C1258 1.367 . S
C1257 C1265 1.378 . S
C1258 C1257 1.367 . S
C1258 C1266 1.433 . S
C1259 H1255 0.929 . S
C1259 C1261 1.378 . S
C1259 C1263 1.350 . S
C1260 C1263 1.463 . S
C1260 C1265 1.350 . S
C1260 N1268 1.427 . S
C1261 H1252 0.930 . S
C1261 C1259 1.378 . S
C1261 C1262 1.367 . S
C1262 C1261 1.367 . S
C1262 C1264 1.433 . S
C1263 C1259 1.350 . S
C1263 C1260 1.463 . S
C1263 N1267 1.427 . S
C1264 H1254 0.929 . S
C1264 C1262 1.433 . S
C1264 N1267 1.384 . S
C1265 H1256 0.929 . S
C1265 C1257 1.378 . S
C1265 C1260 1.350 . S
C1266 H1253 0.929 . S
C1266 C1258 1.433 . S
C1266 N1268 1.384 . S
N1267 C1263 1.427 . S
N1267 C1264 1.384 . S
N1268 C1260 1.427 . S
N1268 C1266 1.384 . S
H1269 C1275 0.930 . S
H1270 C1279 0.930 . S
H1271 C1284 0.929 . S
H1272 C1282 0.929 . S
H1273 C1277 0.929 . S
H1274 C1283 0.929 . S
C1275 H1269 0.930 . S
C1275 C1276 1.367 . S
C1275 C1283 1.378 . S
C1276 C1275 1.367 . S
C1276 C1284 1.433 . S
C1277 H1273 0.929 . S
C1277 C1279 1.378 . S
C1277 C1281 1.350 . S
C1278 C1281 1.463 . S
C1278 C1283 1.350 . S
C1278 N1286 1.427 . S
C1279 H1270 0.930 . S
C1279 C1277 1.378 . S
C1279 C1280 1.367 . S
C1280 C1279 1.367 . S
C1280 C1282 1.433 . S
C1281 C1277 1.350 . S
C1281 C1278 1.463 . S
C1281 N1285 1.427 . S
C1282 H1272 0.929 . S
C1282 C1280 1.433 . S
C1282 N1285 1.384 . S
C1283 H1274 0.929 . S
C1283 C1275 1.378 . S
C1283 C1278 1.350 . S
C1284 H1271 0.929 . S
C1284 C1276 1.433 . S
C1284 N1286 1.384 . S
N1285 C1281 1.427 . S
N1285 C1282 1.384 . S
N1286 C1278 1.427 . S
N1286 C1284 1.384 . S
H1287 C1293 0.930 1_545 S
H1288 C1297 0.930 . S
H1289 C1302 0.929 1_545 S
H1290 C1300 0.929 . S
H1291 C1295 0.929 . S
H1292 C1301 0.929 . S
C1293 H1287 0.930 1_565 S
C1293 C1294 1.367 1_565 S
C1293 C1301 1.378 . S
C1294 C1293 1.367 1_545 S
C1294 C1302 1.433 1_545 S
C1295 H1291 0.929 . S
C1295 C1297 1.378 . S
C1295 C1299 1.350 . S
C1296 C1299 1.463 . S
C1296 C1301 1.350 . S
C1296 N1304 1.427 . S
C1297 H1288 0.930 . S
C1297 C1295 1.378 . S
C1297 C1298 1.367 . S
C1298 C1297 1.367 . S
C1298 C1300 1.433 . S
C1299 C1295 1.350 . S
C1299 C1296 1.463 . S
C1299 N1303 1.427 . S
C1300 H1290 0.929 . S
C1300 C1298 1.433 . S
C1300 N1303 1.384 . S
C1301 H1292 0.929 . S
C1301 C1293 1.378 . S
C1301 C1296 1.350 . S
C1302 H1289 0.929 1_565 S
C1302 C1294 1.433 1_565 S
C1302 N1304 1.384 . S
N1303 C1299 1.427 . S
N1303 C1300 1.384 . S
N1304 C1296 1.427 . S
N1304 C1302 1.384 . S
H1305 C1311 0.930 1_655 S
H1306 C1315 0.930 . S
H1307 C1320 0.929 . S
H1308 C1318 0.929 . S
H1309 C1313 0.929 . S
H1310 C1319 0.929 . S
C1311 H1305 0.930 1_455 S
C1311 C1312 1.367 1_455 S
C1311 C1319 1.378 . S
C1312 C1311 1.367 1_655 S
C1312 C1320 1.433 . S
C1313 H1309 0.929 . S
C1313 C1315 1.378 . S
C1313 C1317 1.350 . S
C1314 C1317 1.463 . S
C1314 C1319 1.350 . S
C1314 N1322 1.427 . S
C1315 H1306 0.930 . S
C1315 C1313 1.378 . S
C1315 C1316 1.367 . S
C1316 C1315 1.367 . S
C1316 C1318 1.433 . S
C1317 C1313 1.350 . S
C1317 C1314 1.463 . S
C1317 N1321 1.427 . S
C1318 H1308 0.929 . S
C1318 C1316 1.433 . S
C1318 N1321 1.384 . S
C1319 H1310 0.929 . S
C1319 C1311 1.378 . S
C1319 C1314 1.350 . S
C1320 H1307 0.929 . S
C1320 C1312 1.433 . S
C1320 N1322 1.384 1_655 S
N1321 C1317 1.427 . S
N1321 C1318 1.384 . S
N1322 C1314 1.427 . S
N1322 C1320 1.384 1_455 S
H1323 C1329 0.930 . S
H1324 C1333 0.930 . S
H1325 C1338 0.929 . S
H1326 C1336 0.929 . S
H1327 C1331 0.929 . S
H1328 C1337 0.929 . S
C1329 H1323 0.930 . S
C1329 C1330 1.367 . S
C1329 C1337 1.378 . S
C1330 C1329 1.367 . S
C1330 C1338 1.433 . S
C1331 H1327 0.929 . S
C1331 C1333 1.378 . S
C1331 C1335 1.350 . S
C1332 C1335 1.463 . S
C1332 C1337 1.350 . S
C1332 N1340 1.427 . S
C1333 H1324 0.930 . S
C1333 C1331 1.378 . S
C1333 C1334 1.367 . S
C1334 C1333 1.367 . S
C1334 C1336 1.433 . S
C1335 C1331 1.350 . S
C1335 C1332 1.463 . S
C1335 N1339 1.427 . S
C1336 H1326 0.929 . S
C1336 C1334 1.433 . S
C1336 N1339 1.384 . S
C1337 H1328 0.929 . S
C1337 C1329 1.378 . S
C1337 C1332 1.350 . S
C1338 H1325 0.929 . S
C1338 C1330 1.433 . S
C1338 N1340 1.384 . S
N1339 C1335 1.427 . S
N1339 C1336 1.384 . S
N1340 C1332 1.427 . S
N1340 C1338 1.384 . S
H1341 C1347 0.930 . S
H1342 C1351 0.930 . S
H1343 C1356 0.929 . S
H1344 C1354 0.929 . S
H1345 C1349 0.929 . S
H1346 C1355 0.929 . S
C1347 H1341 0.930 . S
C1347 C1348 1.367 . S
C1347 C1355 1.378 . S
C1348 C1347 1.367 . S
C1348 C1356 1.433 . S
C1349 H1345 0.929 . S
C1349 C1351 1.378 . S
C1349 C1353 1.350 . S
C1350 C1353 1.463 . S
C1350 C1355 1.350 . S
C1350 N1358 1.427 . S
C1351 H1342 0.930 . S
C1351 C1349 1.378 . S
C1351 C1352 1.367 . S
C1352 C1351 1.367 . S
C1352 C1354 1.433 . S
C1353 C1349 1.350 . S
C1353 C1350 1.463 . S
C1353 N1357 1.427 . S
C1354 H1344 0.929 . S
C1354 C1352 1.433 . S
C1354 N1357 1.384 . S
C1355 H1346 0.929 . S
C1355 C1347 1.378 . S
C1355 C1350 1.350 . S
C1356 H1343 0.929 . S
C1356 C1348 1.433 . S
C1356 N1358 1.384 . S
N1357 C1353 1.427 . S
N1357 C1354 1.384 . S
N1358 C1350 1.427 . S
N1358 C1356 1.384 . S
H1359 C1365 0.930 . S
H1360 C1369 0.930 . S
H1361 C1374 0.929 . S
H1362 C1372 0.929 . S
H1363 C1367 0.929 . S
H1364 C1373 0.929 . S
C1365 H1359 0.930 . S
C1365 C1366 1.367 . S
C1365 C1373 1.378 . S
C1366 C1365 1.367 . S
C1366 C1374 1.433 . S
C1367 H1363 0.929 . S
C1367 C1369 1.378 . S
C1367 C1371 1.350 . S
C1368 C1371 1.463 . S
C1368 C1373 1.350 . S
C1368 N1376 1.427 . S
C1369 H1360 0.930 . S
C1369 C1367 1.378 . S
C1369 C1370 1.367 . S
C1370 C1369 1.367 . S
C1370 C1372 1.433 . S
C1371 C1367 1.350 . S
C1371 C1368 1.463 . S
C1371 N1375 1.427 . S
C1372 H1362 0.929 . S
C1372 C1370 1.433 . S
C1372 N1375 1.384 . S
C1373 H1364 0.929 . S
C1373 C1365 1.378 . S
C1373 C1368 1.350 . S
C1374 H1361 0.929 . S
C1374 C1366 1.433 . S
C1374 N1376 1.384 . S
N1375 C1371 1.427 . S
N1375 C1372 1.384 . S
N1376 C1368 1.427 . S
N1376 C1374 1.384 . S
H1377 C1383 0.930 . S
H1378 C1387 0.930 . S
H1379 C1392 0.929 . S
H1380 C1390 0.929 . S
H1381 C1385 0.929 . S
H1382 C1391 0.929 . S
C1383 H1377 0.930 . S
C1383 C1384 1.367 . S
C1383 C1391 1.378 . S
C1384 C1383 1.367 . S
C1384 C1392 1.433 . S
C1385 H1381 0.929 . S
C1385 C1387 1.378 . S
C1385 C1389 1.350 . S
C1386 C1389 1.463 . S
C1386 C1391 1.350 . S
C1386 N1394 1.427 . S
C1387 H1378 0.930 . S
C1387 C1385 1.378 . S
C1387 C1388 1.367 . S
C1388 C1387 1.367 . S
C1388 C1390 1.433 . S
C1389 C1385 1.350 . S
C1389 C1386 1.463 . S
C1389 N1393 1.427 . S
C1390 H1380 0.929 . S
C1390 C1388 1.433 . S
C1390 N1393 1.384 . S
C1391 H1382 0.929 . S
C1391 C1383 1.378 . S
C1391 C1386 1.350 . S
C1392 H1379 0.929 . S
C1392 C1384 1.433 . S
C1392 N1394 1.384 . S
N1393 C1389 1.427 . S
N1393 C1390 1.384 . S
N1394 C1386 1.427 . S
N1394 C1392 1.384 . S
H1395 C1401 0.973 . S
H1396 C1405 0.930 . S
H1397 C1410 0.929 1_565 S
H1398 C1408 0.929 . S
H1399 C1403 0.929 . S
H1400 C1409 0.929 . S
C1401 H1395 0.973 . S
C1401 C1402 1.369 . S
C1401 C1409 1.335 1_565 S
C1402 C1401 1.369 . S
C1402 C1410 1.433 1_565 S
C1403 H1399 0.929 . S
C1403 C1405 1.378 . S
C1403 C1407 1.350 . S
C1404 C1407 1.463 . S
C1404 C1409 1.350 . S
C1404 N1412 1.427 . S
C1405 H1396 0.930 . S
C1405 C1403 1.378 . S
C1405 C1406 1.367 . S
C1406 C1405 1.367 . S
C1406 C1408 1.433 . S
C1407 C1403 1.350 . S
C1407 C1404 1.463 . S
C1407 N1411 1.427 . S
C1408 H1398 0.929 . S
C1408 C1406 1.433 . S
C1408 N1411 1.384 . S
C1409 H1400 0.929 . S
C1409 C1401 1.335 1_545 S
C1409 C1404 1.350 . S
C1410 H1397 0.929 1_545 S
C1410 C1402 1.433 1_545 S
C1410 N1412 1.384 . S
N1411 C1407 1.427 . S
N1411 C1408 1.384 . S
N1412 C1404 1.427 . S
N1412 C1410 1.384 . S
H1413 C1419 0.921 1_455 S
H1414 C1423 0.930 . S
H1415 C1428 0.929 . S
H1416 C1426 0.929 . S
H1417 C1421 0.929 . S
H1418 C1427 0.929 . S
C1419 H1413 0.921 1_655 S
C1419 C1420 1.341 1_655 S
C1419 C1427 1.414 . S
C1420 C1419 1.341 1_455 S
C1420 C1428 1.433 . S
C1421 H1417 0.929 . S
C1421 C1423 1.378 . S
C1421 C1425 1.350 . S
C1422 C1425 1.463 . S
C1422 C1427 1.350 . S
C1422 N1430 1.427 . S
C1423 H1414 0.930 . S
C1423 C1421 1.378 . S
C1423 C1424 1.367 . S
C1424 C1423 1.367 . S
C1424 C1426 1.433 . S
C1425 C1421 1.350 . S
C1425 C1422 1.463 . S
C1425 N1429 1.427 . S
C1426 H1416 0.929 . S
C1426 C1424 1.433 . S
C1426 N1429 1.384 . S
C1427 H1418 0.929 . S
C1427 C1419 1.414 . S
C1427 C1422 1.350 . S
C1428 H1415 0.929 . S
C1428 C1420 1.433 . S
C1428 N1430 1.384 1_455 S
N1429 C1425 1.427 . S
N1429 C1426 1.384 . S
N1430 C1422 1.427 . S
N1430 C1428 1.384 1_655 S
H1431 C1437 0.930 . S
H1432 C1441 0.930 . S
H1433 C1446 0.929 . S
H1434 C1444 0.929 . S
H1435 C1439 0.929 . S
H1436 C1445 0.929 . S
C1437 H1431 0.930 . S
C1437 C1438 1.367 . S
C1437 C1445 1.378 . S
C1438 C1437 1.367 . S
C1438 C1446 1.433 . S
C1439 H1435 0.929 . S
C1439 C1441 1.378 . S
C1439 C1443 1.350 . S
C1440 C1443 1.463 . S
C1440 C1445 1.350 . S
C1440 N1448 1.427 . S
C1441 H1432 0.930 . S
C1441 C1439 1.378 . S
C1441 C1442 1.367 . S
C1442 C1441 1.367 . S
C1442 C1444 1.433 . S
C1443 C1439 1.350 . S
C1443 C1440 1.463 . S
C1443 N1447 1.427 . S
C1444 H1434 0.929 . S
C1444 C1442 1.433 . S
C1444 N1447 1.384 . S
C1445 H1436 0.929 . S
C1445 C1437 1.378 . S
C1445 C1440 1.350 . S
C1446 H1433 0.929 . S
C1446 C1438 1.433 . S
C1446 N1448 1.384 . S
N1447 C1443 1.427 . S
N1447 C1444 1.384 . S
N1448 C1440 1.427 . S
N1448 C1446 1.384 . S
H1449 C1455 0.930 . S
H1450 C1459 0.930 . S
H1451 C1464 0.929 . S
H1452 C1462 0.929 . S
H1453 C1457 0.929 . S
H1454 C1463 0.929 . S
C1455 H1449 0.930 . S
C1455 C1456 1.367 . S
C1455 C1463 1.378 1_455 S
C1456 C1455 1.367 . S
C1456 C1464 1.433 . S
C1457 H1453 0.929 . S
C1457 C1459 1.378 . S
C1457 C1461 1.350 . S
C1458 C1461 1.463 . S
C1458 C1463 1.350 . S
C1458 N1466 1.427 . S
C1459 H1450 0.930 . S
C1459 C1457 1.378 . S
C1459 C1460 1.367 . S
C1460 C1459 1.367 . S
C1460 C1462 1.433 . S
C1461 C1457 1.350 . S
C1461 C1458 1.463 . S
C1461 N1465 1.427 . S
C1462 H1452 0.929 . S
C1462 C1460 1.433 . S
C1462 N1465 1.384 . S
C1463 H1454 0.929 . S
C1463 C1455 1.378 1_655 S
C1463 C1458 1.350 . S
C1464 H1451 0.929 . S
C1464 C1456 1.433 . S
C1464 N1466 1.384 1_455 S
N1465 C1461 1.427 . S
N1465 C1462 1.384 . S
N1466 C1458 1.427 . S
N1466 C1464 1.384 1_655 S
H1467 C1473 0.930 . S
H1468 C1477 0.930 . S
H1469 C1482 0.929 . S
H1470 C1480 0.929 . S
H1471 C1475 0.929 . S
H1472 C1481 0.929 . S
C1473 H1467 0.930 . S
C1473 C1474 1.367 . S
C1473 C1481 1.378 . S
C1474 C1473 1.367 . S
C1474 C1482 1.433 . S
C1475 H1471 0.929 . S
C1475 C1477 1.378 . S
C1475 C1479 1.350 . S
C1476 C1479 1.463 . S
C1476 C1481 1.350 . S
C1476 N1484 1.427 . S
C1477 H1468 0.930 . S
C1477 C1475 1.378 . S
C1477 C1478 1.367 . S
C1478 C1477 1.367 . S
C1478 C1480 1.433 . S
C1479 C1475 1.350 . S
C1479 C1476 1.463 . S
C1479 N1483 1.427 . S
C1480 H1470 0.929 . S
C1480 C1478 1.433 . S
C1480 N1483 1.384 . S
C1481 H1472 0.929 . S
C1481 C1473 1.378 . S
C1481 C1476 1.350 . S
C1482 H1469 0.929 . S
C1482 C1474 1.433 . S
C1482 N1484 1.384 . S
N1483 C1479 1.427 . S
N1483 C1480 1.384 . S
N1484 C1476 1.427 . S
N1484 C1482 1.384 . S
H1485 C1491 0.930 1_565 S
H1486 C1495 0.930 . S
H1487 C1500 0.929 1_565 S
H1488 C1498 0.929 . S
H1489 C1493 0.929 . S
H1490 C1499 0.929 . S
C1491 H1485 0.930 1_545 S
C1491 C1492 1.367 1_545 S
C1491 C1499 1.378 . S
C1492 C1491 1.367 1_565 S
C1492 C1500 1.433 1_565 S
C1493 H1489 0.929 . S
C1493 C1495 1.378 . S
C1493 C1497 1.350 . S
C1494 C1497 1.463 . S
C1494 C1499 1.350 . S
C1494 N1502 1.427 . S
C1495 H1486 0.930 . S
C1495 C1493 1.378 . S
C1495 C1496 1.367 . S
C1496 C1495 1.367 . S
C1496 C1498 1.433 . S
C1497 C1493 1.350 . S
C1497 C1494 1.463 . S
C1497 N1501 1.427 . S
C1498 H1488 0.929 . S
C1498 C1496 1.433 . S
C1498 N1501 1.384 . S
C1499 H1490 0.929 . S
C1499 C1491 1.378 . S
C1499 C1494 1.350 . S
C1500 H1487 0.929 1_545 S
C1500 C1492 1.433 1_545 S
C1500 N1502 1.384 . S
N1501 C1497 1.427 . S
N1501 C1498 1.384 . S
N1502 C1494 1.427 . S
N1502 C1500 1.384 . S
H1503 C1509 0.930 . S
H1504 C1513 0.930 . S
H1505 C1518 0.929 . S
H1506 C1516 0.929 . S
H1507 C1511 0.929 . S
H1508 C1517 0.929 . S
C1509 H1503 0.930 . S
C1509 C1510 1.367 . S
C1509 C1517 1.378 . S
C1510 C1509 1.367 . S
C1510 C1518 1.433 . S
C1511 H1507 0.929 . S
C1511 C1513 1.378 . S
C1511 C1515 1.350 . S
C1512 C1515 1.463 . S
C1512 C1517 1.350 . S
C1512 N1520 1.427 . S
C1513 H1504 0.930 . S
C1513 C1511 1.378 . S
C1513 C1514 1.367 . S
C1514 C1513 1.367 . S
C1514 C1516 1.433 . S
C1515 C1511 1.350 . S
C1515 C1512 1.463 . S
C1515 N1519 1.427 . S
C1516 H1506 0.929 . S
C1516 C1514 1.433 . S
C1516 N1519 1.384 . S
C1517 H1508 0.929 . S
C1517 C1509 1.378 . S
C1517 C1512 1.350 . S
C1518 H1505 0.929 . S
C1518 C1510 1.433 . S
C1518 N1520 1.384 . S
N1519 C1515 1.427 . S
N1519 C1516 1.384 . S
N1520 C1512 1.427 . S
N1520 C1518 1.384 . S
H1521 C1527 0.930 . S
H1522 C1531 0.930 . S
H1523 C1536 0.929 . S
H1524 C1534 0.929 . S
H1525 C1529 0.929 . S
H1526 C1535 0.929 . S
C1527 H1521 0.930 . S
C1527 C1528 1.367 . S
C1527 C1535 1.378 . S
C1528 C1527 1.367 . S
C1528 C1536 1.433 . S
C1529 H1525 0.929 . S
C1529 C1531 1.378 . S
C1529 C1533 1.350 . S
C1530 C1533 1.463 . S
C1530 C1535 1.350 . S
C1530 N1538 1.427 . S
C1531 H1522 0.930 . S
C1531 C1529 1.378 . S
C1531 C1532 1.367 . S
C1532 C1531 1.367 . S
C1532 C1534 1.433 . S
C1533 C1529 1.350 . S
C1533 C1530 1.463 . S
C1533 N1537 1.427 . S
C1534 H1524 0.929 . S
C1534 C1532 1.433 . S
C1534 N1537 1.384 . S
C1535 H1526 0.929 . S
C1535 C1527 1.378 . S
C1535 C1530 1.350 . S
C1536 H1523 0.929 . S
C1536 C1528 1.433 . S
C1536 N1538 1.384 . S
N1537 C1533 1.427 . S
N1537 C1534 1.384 . S
N1538 C1530 1.427 . S
N1538 C1536 1.384 . S
H1539 C1545 0.930 . S
H1540 C1549 0.930 . S
H1541 C1554 0.929 . S
H1542 C1552 0.929 . S
H1543 C1547 0.929 . S
H1544 C1553 0.929 . S
C1545 H1539 0.930 . S
C1545 C1546 1.367 . S
C1545 C1553 1.378 . S
C1546 C1545 1.367 . S
C1546 C1554 1.433 . S
C1547 H1543 0.929 . S
C1547 C1549 1.378 . S
C1547 C1551 1.350 . S
C1548 C1551 1.463 . S
C1548 C1553 1.350 . S
C1548 N1556 1.427 . S
C1549 H1540 0.930 . S
C1549 C1547 1.378 . S
C1549 C1550 1.367 . S
C1550 C1549 1.367 . S
C1550 C1552 1.433 . S
C1551 C1547 1.350 . S
C1551 C1548 1.463 . S
C1551 N1555 1.427 . S
C1552 H1542 0.929 . S
C1552 C1550 1.433 . S
C1552 N1555 1.384 . S
C1553 H1544 0.929 . S
C1553 C1545 1.378 . S
C1553 C1548 1.350 . S
C1554 H1541 0.929 . S
C1554 C1546 1.433 . S
C1554 N1556 1.384 . S
N1555 C1551 1.427 . S
N1555 C1552 1.384 . S
N1556 C1548 1.427 . S
N1556 C1554 1.384 . S
H1557 C1563 0.915 1_545 S
H1558 C1567 0.930 . S
H1559 C1572 0.929 . S
H1560 C1570 0.929 . S
H1561 C1565 0.929 . S
H1562 C1571 0.929 1_545 S
C1563 H1557 0.915 1_565 S
C1563 C1564 1.367 . S
C1563 C1571 1.378 . S
C1564 C1563 1.367 . S
C1564 C1572 1.433 . S
C1565 H1561 0.929 . S
C1565 C1567 1.378 . S
C1565 C1569 1.350 . S
C1566 C1569 1.463 . S
C1566 C1571 1.350 . S
C1566 N1574 1.427 . S
C1567 H1558 0.930 . S
C1567 C1565 1.378 . S
C1567 C1568 1.367 . S
C1568 C1567 1.367 . S
C1568 C1570 1.433 1_565 S
C1569 C1565 1.350 . S
C1569 C1566 1.463 . S
C1569 N1573 1.427 1_565 S
C1570 H1560 0.929 . S
C1570 C1568 1.433 1_545 S
C1570 N1573 1.384 . S
C1571 H1562 0.929 1_565 S
C1571 C1563 1.378 . S
C1571 C1566 1.350 . S
C1572 H1559 0.929 . S
C1572 C1564 1.433 . S
C1572 N1574 1.384 . S
N1573 C1569 1.427 1_545 S
N1573 C1570 1.384 . S
N1574 C1566 1.427 . S
N1574 C1572 1.384 . S
H1575 C1581 0.930 . S
H1576 C1585 0.930 . S
H1577 C1590 0.929 1_655 S
H1578 C1588 0.929 . S
H1579 C1583 0.929 . S
H1580 C1589 0.929 . S
C1581 H1575 0.930 . S
C1581 C1582 1.367 . S
C1581 C1589 1.378 . S
C1582 C1581 1.367 . S
C1582 C1590 1.433 . S
C1583 H1579 0.929 . S
C1583 C1585 1.378 . S
C1583 C1587 1.350 1_655 S
C1584 C1587 1.463 . S
C1584 C1589 1.350 . S
C1584 N1592 1.427 . S
C1585 H1576 0.930 . S
C1585 C1583 1.378 . S
C1585 C1586 1.367 1_655 S
C1586 C1585 1.367 1_455 S
C1586 C1588 1.433 . S
C1587 C1583 1.350 1_455 S
C1587 C1584 1.463 . S
C1587 N1591 1.427 . S
C1588 H1578 0.929 . S
C1588 C1586 1.433 . S
C1588 N1591 1.384 . S
C1589 H1580 0.929 . S
C1589 C1581 1.378 . S
C1589 C1584 1.350 . S
C1590 H1577 0.929 1_455 S
C1590 C1582 1.433 . S
C1590 N1592 1.384 . S
N1591 C1587 1.427 . S
N1591 C1588 1.384 . S
N1592 C1584 1.427 . S
N1592 C1590 1.384 . S
H1593 C1599 0.930 . S
H1594 C1603 0.930 . S
H1595 C1608 0.929 . S
H1596 C1606 0.929 . S
H1597 C1601 0.929 . S
H1598 C1607 0.929 . S
C1599 H1593 0.930 . S
C1599 C1600 1.367 . S
C1599 C1607 1.378 . S
C1600 C1599 1.367 . S
C1600 C1608 1.433 . S
C1601 H1597 0.929 . S
C1601 C1603 1.378 . S
C1601 C1605 1.350 . S
C1602 C1605 1.463 . S
C1602 C1607 1.350 . S
C1602 N1610 1.427 . S
C1603 H1594 0.930 . S
C1603 C1601 1.378 . S
C1603 C1604 1.367 . S
C1604 C1603 1.367 . S
C1604 C1606 1.433 . S
C1605 C1601 1.350 . S
C1605 C1602 1.463 . S
C1605 N1609 1.427 . S
C1606 H1596 0.929 . S
C1606 C1604 1.433 . S
C1606 N1609 1.384 . S
C1607 H1598 0.929 . S
C1607 C1599 1.378 . S
C1607 C1602 1.350 . S
C1608 H1595 0.929 . S
C1608 C1600 1.433 . S
C1608 N1610 1.384 . S
N1609 C1605 1.427 . S
N1609 C1606 1.384 . S
N1610 C1602 1.427 . S
N1610 C1608 1.384 . S
H1611 C1617 0.930 . S
H1612 C1621 0.933 1_455 S
H1613 C1626 0.929 . S
H1614 C1624 0.929 . S
H1615 C1619 0.929 . S
H1616 C1625 0.929 . S
C1617 H1611 0.930 . S
C1617 C1618 1.367 . S
C1617 C1625 1.378 . S
C1618 C1617 1.367 . S
C1618 C1626 1.433 . S
C1619 H1615 0.929 . S
C1619 C1621 1.378 . S
C1619 C1623 1.350 . S
C1620 C1623 1.463 . S
C1620 C1625 1.350 . S
C1620 N1628 1.427 . S
C1621 H1612 0.933 1_655 S
C1621 C1619 1.378 . S
C1621 C1622 1.367 . S
C1622 C1621 1.367 . S
C1622 C1624 1.433 . S
C1623 C1619 1.350 . S
C1623 C1620 1.463 . S
C1623 N1627 1.427 . S
C1624 H1614 0.929 . S
C1624 C1622 1.433 . S
C1624 N1627 1.384 . S
C1625 H1616 0.929 . S
C1625 C1617 1.378 . S
C1625 C1620 1.350 . S
C1626 H1613 0.929 . S
C1626 C1618 1.433 . S
C1626 N1628 1.384 . S
N1627 C1623 1.427 . S
N1627 C1624 1.384 . S
N1628 C1620 1.427 . S
N1628 C1626 1.384 . S
H1629 C1635 0.930 . S
H1630 C1639 0.930 . S
H1631 C1644 0.929 . S
H1632 C1642 0.929 . S
H1633 C1637 0.929 . S
H1634 C1643 0.929 . S
C1635 H1629 0.930 . S
C1635 C1636 1.367 . S
C1635 C1643 1.378 . S
C1636 C1635 1.367 . S
C1636 C1644 1.433 . S
C1637 H1633 0.929 . S
C1637 C1639 1.378 . S
C1637 C1641 1.350 . S
C1638 C1641 1.463 . S
C1638 C1643 1.350 . S
C1638 N1646 1.427 . S
C1639 H1630 0.930 . S
C1639 C1637 1.378 . S
C1639 C1640 1.367 . S
C1640 C1639 1.367 . S
C1640 C1642 1.433 . S
C1641 C1637 1.350 . S
C1641 C1638 1.463 . S
C1641 N1645 1.427 . S
C1642 H1632 0.929 . S
C1642 C1640 1.433 . S
C1642 N1645 1.384 . S
C1643 H1634 0.929 . S
C1643 C1635 1.378 . S
C1643 C1638 1.350 . S
C1644 H1631 0.929 . S
C1644 C1636 1.433 . S
C1644 N1646 1.384 . S
N1645 C1641 1.427 . S
N1645 C1642 1.384 . S
N1646 C1638 1.427 . S
N1646 C1644 1.384 . S
H1647 C1653 0.930 . S
H1648 C1657 0.930 . S
H1649 C1662 0.929 1_565 S
H1650 C1660 0.929 . S
H1651 C1655 0.929 . S
H1652 C1661 0.929 . S
C1653 H1647 0.930 . S
C1653 C1654 1.367 . S
C1653 C1661 1.378 . S
C1654 C1653 1.367 . S
C1654 C1662 1.433 . S
C1655 H1651 0.929 . S
C1655 C1657 1.378 . S
C1655 C1659 1.350 1_565 S
C1656 C1659 1.463 . S
C1656 C1661 1.350 . S
C1656 N1664 1.427 . S
C1657 H1648 0.930 . S
C1657 C1655 1.378 . S
C1657 C1658 1.367 1_565 S
C1658 C1657 1.367 1_545 S
C1658 C1660 1.433 . S
C1659 C1655 1.350 1_545 S
C1659 C1656 1.463 . S
C1659 N1663 1.427 . S
C1660 H1650 0.929 . S
C1660 C1658 1.433 . S
C1660 N1663 1.384 . S
C1661 H1652 0.929 . S
C1661 C1653 1.378 . S
C1661 C1656 1.350 . S
C1662 H1649 0.929 1_545 S
C1662 C1654 1.433 . S
C1662 N1664 1.384 . S
N1663 C1659 1.427 . S
N1663 C1660 1.384 . S
N1664 C1656 1.427 . S
N1664 C1662 1.384 . S
H1665 C1671 0.930 . S
H1666 C1675 0.930 . S
H1667 C1680 0.929 . S
H1668 C1678 0.929 . S
H1669 C1673 0.929 . S
H1670 C1679 0.929 . S
C1671 H1665 0.930 . S
C1671 C1672 1.367 . S
C1671 C1679 1.378 . S
C1672 C1671 1.367 . S
C1672 C1680 1.433 . S
C1673 H1669 0.929 . S
C1673 C1675 1.378 . S
C1673 C1677 1.350 . S
C1674 C1677 1.463 . S
C1674 C1679 1.350 . S
C1674 N1682 1.427 . S
C1675 H1666 0.930 . S
C1675 C1673 1.378 . S
C1675 C1676 1.367 . S
C1676 C1675 1.367 . S
C1676 C1678 1.433 . S
C1677 C1673 1.350 . S
C1677 C1674 1.463 . S
C1677 N1681 1.427 . S
C1678 H1668 0.929 . S
C1678 C1676 1.433 . S
C1678 N1681 1.384 . S
C1679 H1670 0.929 . S
C1679 C1671 1.378 . S
C1679 C1674 1.350 . S
C1680 H1667 0.929 . S
C1680 C1672 1.433 . S
C1680 N1682 1.384 . S
N1681 C1677 1.427 . S
N1681 C1678 1.384 . S
N1682 C1674 1.427 . S
N1682 C1680 1.384 . S
H1683 C1689 0.930 . S
H1684 C1693 0.930 . S
H1685 C1698 0.929 . S
H1686 C1696 0.929 . S
H1687 C1691 0.929 . S
H1688 C1697 0.929 . S
C1689 H1683 0.930 . S
C1689 C1690 1.367 . S
C1689 C1697 1.378 . S
C1690 C1689 1.367 . S
C1690 C1698 1.433 . S
C1691 H1687 0.929 . S
C1691 C1693 1.378 . S
C1691 C1695 1.350 . S
C1692 C1695 1.463 . S
C1692 C1697 1.350 . S
C1692 N1700 1.427 . S
C1693 H1684 0.930 . S
C1693 C1691 1.378 . S
C1693 C1694 1.367 . S
C1694 C1693 1.367 . S
C1694 C1696 1.433 . S
C1695 C1691 1.350 . S
C1695 C1692 1.463 . S
C1695 N1699 1.427 . S
C1696 H1686 0.929 . S
C1696 C1694 1.433 . S
C1696 N1699 1.384 . S
C1697 H1688 0.929 . S
C1697 C1689 1.378 . S
C1697 C1692 1.350 . S
C1698 H1685 0.929 . S
C1698 C1690 1.433 . S
C1698 N1700 1.384 . S
N1699 C1695 1.427 . S
N1699 C1696 1.384 . S
N1700 C1692 1.427 . S
N1700 C1698 1.384 . S
H1701 C1707 0.930 . S
H1702 C1711 0.930 . S
H1703 C1716 0.929 . S
H1704 C1714 0.929 . S
H1705 C1709 0.929 . S
H1706 C1715 0.929 . S
C1707 H1701 0.930 . S
C1707 C1708 1.367 . S
C1707 C1715 1.378 . S
C1708 C1707 1.367 . S
C1708 C1716 1.433 . S
C1709 H1705 0.929 . S
C1709 C1711 1.378 . S
C1709 C1713 1.350 . S
C1710 C1713 1.463 . S
C1710 C1715 1.350 . S
C1710 N1718 1.427 . S
C1711 H1702 0.930 . S
C1711 C1709 1.378 . S
C1711 C1712 1.367 . S
C1712 C1711 1.367 . S
C1712 C1714 1.433 . S
C1713 C1709 1.350 . S
C1713 C1710 1.463 . S
C1713 N1717 1.427 . S
C1714 H1704 0.929 . S
C1714 C1712 1.433 . S
C1714 N1717 1.384 . S
C1715 H1706 0.929 . S
C1715 C1707 1.378 . S
C1715 C1710 1.350 . S
C1716 H1703 0.929 . S
C1716 C1708 1.433 . S
C1716 N1718 1.384 . S
N1717 C1713 1.427 . S
N1717 C1714 1.384 . S
N1718 C1710 1.427 . S
N1718 C1716 1.384 . S
H1719 C1725 0.930 . S
H1720 C1729 0.930 . S
H1721 C1734 0.929 . S
H1722 C1732 0.929 . S
H1723 C1727 0.929 . S
H1724 C1733 0.929 . S
C1725 H1719 0.930 . S
C1725 C1726 1.367 . S
C1725 C1733 1.378 . S
C1726 C1725 1.367 . S
C1726 C1734 1.433 . S
C1727 H1723 0.929 . S
C1727 C1729 1.378 . S
C1727 C1731 1.350 . S
C1728 C1731 1.463 . S
C1728 C1733 1.350 . S
C1728 N1736 1.427 . S
C1729 H1720 0.930 . S
C1729 C1727 1.378 . S
C1729 C1730 1.367 . S
C1730 C1729 1.367 . S
C1730 C1732 1.433 . S
C1731 C1727 1.350 . S
C1731 C1728 1.463 . S
C1731 N1735 1.427 . S
C1732 H1722 0.929 . S
C1732 C1730 1.433 . S
C1732 N1735 1.384 . S
C1733 H1724 0.929 . S
C1733 C1725 1.378 . S
C1733 C1728 1.350 . S
C1734 H1721 0.929 . S
C1734 C1726 1.433 . S
C1734 N1736 1.384 . S
N1735 C1731 1.427 . S
N1735 C1732 1.384 . S
N1736 C1728 1.427 . S
N1736 C1734 1.384 . S
H1737 C1743 0.930 . S
H1738 C1747 0.930 . S
H1739 C1752 0.929 . S
H1740 C1750 0.929 . S
H1741 C1745 0.929 . S
H1742 C1751 0.929 . S
C1743 H1737 0.930 . S
C1743 C1744 1.367 . S
C1743 C1751 1.378 . S
C1744 C1743 1.367 . S
C1744 C1752 1.433 . S
C1745 H1741 0.929 . S
C1745 C1747 1.378 . S
C1745 C1749 1.350 . S
C1746 C1749 1.463 . S
C1746 C1751 1.350 . S
C1746 N1754 1.427 . S
C1747 H1738 0.930 . S
C1747 C1745 1.378 . S
C1747 C1748 1.367 . S
C1748 C1747 1.367 . S
C1748 C1750 1.433 . S
C1749 C1745 1.350 . S
C1749 C1746 1.463 . S
C1749 N1753 1.427 . S
C1750 H1740 0.929 . S
C1750 C1748 1.433 . S
C1750 N1753 1.384 . S
C1751 H1742 0.929 . S
C1751 C1743 1.378 . S
C1751 C1746 1.350 . S
C1752 H1739 0.929 . S
C1752 C1744 1.433 . S
C1752 N1754 1.384 . S
N1753 C1749 1.427 . S
N1753 C1750 1.384 . S
N1754 C1746 1.427 . S
N1754 C1752 1.384 . S
H1755 C1761 0.930 . S
H1756 C1765 0.930 . S
H1757 C1770 0.929 . S
H1758 C1768 0.929 . S
H1759 C1763 0.929 . S
H1760 C1769 0.929 . S
C1761 H1755 0.930 . S
C1761 C1762 1.367 . S
C1761 C1769 1.378 . S
C1762 C1761 1.367 . S
C1762 C1770 1.433 . S
C1763 H1759 0.929 . S
C1763 C1765 1.378 . S
C1763 C1767 1.350 . S
C1764 C1767 1.463 . S
C1764 C1769 1.350 . S
C1764 N1772 1.427 . S
C1765 H1756 0.930 . S
C1765 C1763 1.378 . S
C1765 C1766 1.367 . S
C1766 C1765 1.367 . S
C1766 C1768 1.433 . S
C1767 C1763 1.350 . S
C1767 C1764 1.463 . S
C1767 N1771 1.427 . S
C1768 H1758 0.929 . S
C1768 C1766 1.433 . S
C1768 N1771 1.384 . S
C1769 H1760 0.929 . S
C1769 C1761 1.378 . S
C1769 C1764 1.350 . S
C1770 H1757 0.929 . S
C1770 C1762 1.433 . S
C1770 N1772 1.384 . S
N1771 C1767 1.427 . S
N1771 C1768 1.384 . S
N1772 C1764 1.427 . S
N1772 C1770 1.384 . S
H1773 C1779 0.930 . S
H1774 C1783 0.930 . S
H1775 C1788 0.929 . S
H1776 C1786 0.929 . S
H1777 C1781 0.929 . S
H1778 C1787 0.929 . S
C1779 H1773 0.930 . S
C1779 C1780 1.367 . S
C1779 C1787 1.378 . S
C1780 C1779 1.367 . S
C1780 C1788 1.433 . S
C1781 H1777 0.929 . S
C1781 C1783 1.378 . S
C1781 C1785 1.350 . S
C1782 C1785 1.463 . S
C1782 C1787 1.350 . S
C1782 N1790 1.427 . S
C1783 H1774 0.930 . S
C1783 C1781 1.378 . S
C1783 C1784 1.367 . S
C1784 C1783 1.367 . S
C1784 C1786 1.433 . S
C1785 C1781 1.350 . S
C1785 C1782 1.463 . S
C1785 N1789 1.427 . S
C1786 H1776 0.929 . S
C1786 C1784 1.433 . S
C1786 N1789 1.384 . S
C1787 H1778 0.929 . S
C1787 C1779 1.378 . S
C1787 C1782 1.350 . S
C1788 H1775 0.929 . S
C1788 C1780 1.433 . S
C1788 N1790 1.384 . S
N1789 C1785 1.427 . S
N1789 C1786 1.384 . S
N1790 C1782 1.427 . S
N1790 C1788 1.384 . S
H1791 C1797 0.930 . S
H1792 C1801 0.930 . S
H1793 C1806 0.929 . S
H1794 C1804 0.929 . S
H1795 C1799 0.929 . S
H1796 C1805 0.929 . S
C1797 H1791 0.930 . S
C1797 C1798 1.367 . S
C1797 C1805 1.378 . S
C1798 C1797 1.367 . S
C1798 C1806 1.433 . S
C1799 H1795 0.929 . S
C1799 C1801 1.378 . S
C1799 C1803 1.350 . S
C1800 C1803 1.463 . S
C1800 C1805 1.350 . S
C1800 N1808 1.427 . S
C1801 H1792 0.930 . S
C1801 C1799 1.378 . S
C1801 C1802 1.367 . S
C1802 C1801 1.367 . S
C1802 C1804 1.433 . S
C1803 C1799 1.350 . S
C1803 C1800 1.463 . S
C1803 N1807 1.427 . S
C1804 H1794 0.929 . S
C1804 C1802 1.433 . S
C1804 N1807 1.384 . S
C1805 H1796 0.929 . S
C1805 C1797 1.378 . S
C1805 C1800 1.350 . S
C1806 H1793 0.929 . S
C1806 C1798 1.433 . S
C1806 N1808 1.384 . S
N1807 C1803 1.427 . S
N1807 C1804 1.384 . S
N1808 C1800 1.427 . S
N1808 C1806 1.384 . S
H1809 C1815 0.930 . S
H1810 C1819 0.930 . S
H1811 C1824 0.929 . S
H1812 C1822 0.929 . S
H1813 C1817 0.929 . S
H1814 C1823 0.929 . S
C1815 H1809 0.930 . S
C1815 C1816 1.367 . S
C1815 C1823 1.378 . S
C1816 C1815 1.367 . S
C1816 C1824 1.433 . S
C1817 H1813 0.929 . S
C1817 C1819 1.378 . S
C1817 C1821 1.350 . S
C1818 C1821 1.463 . S
C1818 C1823 1.350 . S
C1818 N1826 1.427 . S
C1819 H1810 0.930 . S
C1819 C1817 1.378 . S
C1819 C1820 1.367 . S
C1820 C1819 1.367 . S
C1820 C1822 1.433 . S
C1821 C1817 1.350 . S
C1821 C1818 1.463 . S
C1821 N1825 1.427 . S
C1822 H1812 0.929 . S
C1822 C1820 1.433 . S
C1822 N1825 1.384 . S
C1823 H1814 0.929 . S
C1823 C1815 1.378 . S
C1823 C1818 1.350 . S
C1824 H1811 0.929 . S
C1824 C1816 1.433 . S
C1824 N1826 1.384 . S
N1825 C1821 1.427 . S
N1825 C1822 1.384 . S
N1826 C1818 1.427 . S
N1826 C1824 1.384 . S
H1827 C1833 0.930 . S
H1828 C1837 0.930 . S
H1829 C1842 0.929 . S
H1830 C1840 0.929 . S
H1831 C1835 0.929 . S
H1832 C1841 0.929 . S
C1833 H1827 0.930 . S
C1833 C1834 1.367 . S
C1833 C1841 1.378 . S
C1834 C1833 1.367 . S
C1834 C1842 1.433 . S
C1835 H1831 0.929 . S
C1835 C1837 1.378 . S
C1835 C1839 1.350 . S
C1836 C1839 1.463 . S
C1836 C1841 1.350 . S
C1836 N1844 1.427 . S
C1837 H1828 0.930 . S
C1837 C1835 1.378 . S
C1837 C1838 1.367 . S
C1838 C1837 1.367 . S
C1838 C1840 1.433 . S
C1839 C1835 1.350 . S
C1839 C1836 1.463 . S
C1839 N1843 1.427 . S
C1840 H1830 0.929 . S
C1840 C1838 1.433 . S
C1840 N1843 1.384 . S
C1841 H1832 0.929 . S
C1841 C1833 1.378 . S
C1841 C1836 1.350 . S
C1842 H1829 0.929 . S
C1842 C1834 1.433 . S
C1842 N1844 1.384 . S
N1843 C1839 1.427 . S
N1843 C1840 1.384 . S
N1844 C1836 1.427 . S
N1844 C1842 1.384 . S
H1845 C1851 0.930 . S
H1846 C1855 0.930 . S
H1847 C1860 0.929 . S
H1848 C1858 0.929 . S
H1849 C1853 0.929 . S
H1850 C1859 0.929 . S
C1851 H1845 0.930 . S
C1851 C1852 1.367 . S
C1851 C1859 1.378 . S
C1852 C1851 1.367 . S
C1852 C1860 1.433 . S
C1853 H1849 0.929 . S
C1853 C1855 1.378 . S
C1853 C1857 1.350 . S
C1854 C1857 1.463 . S
C1854 C1859 1.350 . S
C1854 N1862 1.427 . S
C1855 H1846 0.930 . S
C1855 C1853 1.378 . S
C1855 C1856 1.367 . S
C1856 C1855 1.367 . S
C1856 C1858 1.433 . S
C1857 C1853 1.350 . S
C1857 C1854 1.463 . S
C1857 N1861 1.427 . S
C1858 H1848 0.929 . S
C1858 C1856 1.433 . S
C1858 N1861 1.384 . S
C1859 H1850 0.929 . S
C1859 C1851 1.378 . S
C1859 C1854 1.350 . S
C1860 H1847 0.929 . S
C1860 C1852 1.433 . S
C1860 N1862 1.384 . S
N1861 C1857 1.427 . S
N1861 C1858 1.384 . S
N1862 C1854 1.427 . S
N1862 C1860 1.384 . S
H1863 C1869 0.930 . S
H1864 C1873 0.930 . S
H1865 C1878 0.929 . S
H1866 C1876 0.929 . S
H1867 C1871 0.929 . S
H1868 C1877 0.929 . S
C1869 H1863 0.930 . S
C1869 C1870 1.367 . S
C1869 C1877 1.378 . S
C1870 C1869 1.367 . S
C1870 C1878 1.433 . S
C1871 H1867 0.929 . S
C1871 C1873 1.378 . S
C1871 C1875 1.350 . S
C1872 C1875 1.463 . S
C1872 C1877 1.350 . S
C1872 N1880 1.427 . S
C1873 H1864 0.930 . S
C1873 C1871 1.378 . S
C1873 C1874 1.367 . S
C1874 C1873 1.367 . S
C1874 C1876 1.433 . S
C1875 C1871 1.350 . S
C1875 C1872 1.463 . S
C1875 N1879 1.427 . S
C1876 H1866 0.929 . S
C1876 C1874 1.433 . S
C1876 N1879 1.384 . S
C1877 H1868 0.929 . S
C1877 C1869 1.378 . S
C1877 C1872 1.350 . S
C1878 H1865 0.929 . S
C1878 C1870 1.433 . S
C1878 N1880 1.384 . S
N1879 C1875 1.427 . S
N1879 C1876 1.384 . S
N1880 C1872 1.427 . S
N1880 C1878 1.384 . S
C916 C522 1.495 . S
C920 C737 1.384 . S
C934 C562 1.485 . S
C938 C758 1.378 . S
C952 C495 1.415 . S
C956 C780 1.177 . S
C970 C455 1.442 . S
C974 C759 1.212 1_556 S
C992 C779 1.384 . S
C988 C362 1.502 . S
C1006 C402 1.467 . S
C1010 C738 1.206 1_556 S
C1028 C733 1.383 . S
C1024 C442 1.413 . S
C1046 C754 1.324 . S
C1042 C375 1.394 . S
C1060 C415 1.494 . S
C1064 C777 1.232 1_556 S
C1078 C535 1.431 . S
C1082 C756 1.192 . S
C1096 C575 1.344 . S
C1100 C775 1.293 . S
C1118 C735 1.225 . S
C1114 C482 1.433 . S
C1136 C800 1.393 . S
C1132 C42 1.495 . S
C1150 C82 1.485 . S
C1154 C821 1.378 . S
C1168 C15 1.417 . S
C1172 C843 1.178 . S
C1186 C695 1.442 . S
C1190 C822 1.212 . S
C1204 C602 1.503 . S
C1208 C842 1.393 . S
C1222 C642 1.461 . S
C1226 C801 1.174 . S
C1240 C682 1.416 . S
C1244 C796 1.369 . S
C1258 C615 1.385 . S
C1262 C817 1.334 . S
C1280 C840 1.248 . S
C1276 C655 1.498 . S
C1294 C55 1.437 . S
C1298 C819 1.199 . S
C1316 C838 1.290 . S
C1312 C95 1.343 . S
C1330 C2 1.423 . S
C1334 C798 1.211 . S
C1352 C863 1.392 . S
C1348 C282 1.495 . S
C1366 C322 1.486 . S
C1370 C884 1.368 . S
C1388 C906 1.179 . S
C1384 C255 1.416 . S
C1406 C885 1.213 . S
C1402 C215 1.442 . S
C1424 C905 1.393 . S
C1420 C122 1.503 . S
C1438 C162 1.462 . S
C1442 C864 1.174 . S
C1456 C202 1.418 . S
C1460 C859 1.386 . S
C1474 C135 1.392 . S
C1478 C880 1.322 . S
C1496 C903 1.225 . S
C1492 C175 1.489 . S
C1510 C295 1.437 . S
C1514 C882 1.199 . S
C1528 C335 1.353 . S
C1532 C901 1.284 . S
C1546 C242 1.432 . S
C1550 C861 1.223 . S
C1564 C621 1.411 . S
C1568 C736 1.369 1_565 S
C1586 C757 1.429 . S
C1582 C661 1.479 . S
C1600 C701 1.498 . S
C1604 C776 1.500 . S
C1618 C261 1.554 . S
C1622 C755 1.547 1_655 S
C1636 C301 1.478 . S
C1640 C778 1.429 . S
C1658 C734 1.468 . S
C1654 C341 1.514 . S
C1672 C141 1.411 . S
C1676 C799 1.366 . S
C1690 C181 1.479 . S
C1694 C820 1.431 . S
C1708 C221 1.501 . S
C1712 C839 1.513 . S
C1726 C501 1.550 . S
C1730 C818 1.551 . S
C1748 C841 1.430 . S
C1744 C541 1.477 . S
C1762 C581 1.514 . S
C1766 C797 1.468 . S
C1780 C381 1.411 . S
C1784 C862 1.370 . S
C1798 C421 1.479 . S
C1802 C883 1.427 . S
C1820 C902 1.513 . S
C1816 C461 1.501 . S
C1834 C21 1.556 . S
C1838 C881 1.551 . S
C1852 C61 1.478 . S
C1856 C904 1.428 . S
C1870 C101 1.514 . S
C1874 C860 1.479 . S
