# Generated by pormake.
# Topology nia, (6,6)-cn, num edge types: 1
# Building blocks:
#     Node 0, Type 0, BuildingBlock: CIFDUS_clean_sbu_1, # of connection points: 6
#     Node 1, Type 0, BuildingBlock: CIFDUS_clean_sbu_1, # of connection points: 6
#     Node 2, Type 1, BuildingBlock: MIDCAF_clean_sbu_0, # of connection points: 6
#     Node 3, Type 1, BuildingBlock: MIDCAF_clean_sbu_0, # of connection points: 6
#     Edge 4, Type (0, 1), BuildingBlock: EZIPEK_clean_linker_0, # of connection points: 2
#     Edge 5, Type (0, 1), BuildingBlock: EZIPEK_clean_linker_0, # of connection points: 2
#     Edge 6, Type (0, 1), BuildingBlock: EZIPEK_clean_linker_0, # of connection points: 2
#     Edge 7, Type (0, 1), BuildingBlock: EZIPEK_clean_linker_0, # of connection points: 2
#     Edge 8, Type (0, 1), BuildingBlock: EZIPEK_clean_linker_0, # of connection points: 2
#     Edge 9, Type (0, 1), BuildingBlock: EZIPEK_clean_linker_0, # of connection points: 2
#     Edge 10, Type (0, 1), BuildingBlock: EZIPEK_clean_linker_0, # of connection points: 2
#     Edge 11, Type (0, 1), BuildingBlock: EZIPEK_clean_linker_0, # of connection points: 2
#     Edge 12, Type (0, 1), BuildingBlock: EZIPEK_clean_linker_0, # of connection points: 2
#     Edge 13, Type (0, 1), BuildingBlock: EZIPEK_clean_linker_0, # of connection points: 2
#     Edge 14, Type (0, 1), BuildingBlock: EZIPEK_clean_linker_0, # of connection points: 2
#     Edge 15, Type (0, 1), BuildingBlock: EZIPEK_clean_linker_0, # of connection points: 2
# Relax obj value: 0.123
# Max RMSD: 0.237
# Mean RMSD: 0.158
data_MOF--net-nia--node1-CIFDUS_clean_sbu_1--node2-MIDCAF_clean_sbu_0--edge1-EZIPEK_clean_linker_0
_symmetry_space_group_name_H-M    P1
_symmetry_Int_Tables_number       1
_symmetry_cell_setting            triclinic
loop_
_symmetry_equiv_pos_as_xyz
'x, y, z'
_cell_length_a     18.03333
_cell_length_b     17.699565
_cell_length_c     23.993183
_cell_angle_alpha  88.640075
_cell_angle_beta   89.008307
_cell_angle_gamma 128.95118
loop_
_atom_site_label
_atom_site_type_symbol
_atom_site_fract_x
_atom_site_fract_y
_atom_site_fract_z
_atom_type_partial_charge
O0 O 0.93633 0.90225 0.99455 0.0
Mn1 Mn -0.0119 0.00819 0.05437 0.0
O2 O 0.81531 0.75866 0.0373 0.0
Mn3 Mn 0.82744 0.80323 0.10867 0.0
O4 O 0.04082 0.11495 0.1145 0.0
O5 O 0.10978 0.09727 1.00781 0.0
Mn6 Mn 0.14117 0.21395 0.99996 0.0
O7 O 0.92832 0.06045 1.01107 0.0
O8 O 0.16003 0.25902 0.07143 0.0
O9 O 0.04451 0.95063 0.09797 0.0
O10 O 0.92126 0.82179 0.15009 0.0
O11 O 0.23526 0.22197 0.96175 0.0
O12 O 0.04409 0.19931 0.96326 0.0
C13 C 0.78778 0.89108 0.12536 0.0
C14 C 0.86889 0.80962 0.99442 0.0
C15 C 0.10866 0.20775 0.11474 0.0
C16 C 0.18688 0.13203 0.97894 0.0
C17 C 0.95671 0.13122 0.97658 0.0
C18 C 0.00938 0.88133 0.13556 0.0
O19 O 0.86528 0.92098 0.0992 0.0
O20 O 0.73342 0.80059 0.14237 0.0
O21 O 0.06247 0.01631 0.616 0.0
Mn22 Mn -0.00748 0.01564 0.54451 0.0
O23 O 0.21825 0.1441 0.60213 0.0
Mn24 Mn 0.2113 0.1588 0.5269 0.0
O25 O 0.92467 0.01824 0.47245 0.0
O26 O 0.87396 0.87299 0.56695 0.0
Mn27 Mn 0.7897 0.8922 0.55016 0.0
O28 O 0.95057 0.07749 0.59663 0.0
O29 O 0.77739 0.87682 0.47584 0.0
O30 O 0.03833 0.95671 0.49271 0.0
O31 O 0.19758 0.06854 0.48125 0.0
O32 O 0.73215 0.80259 0.60598 0.0
O33 O 0.80177 0.99774 0.57305 0.0
C34 C 0.16881 0.23988 0.49826 0.0
C35 C 0.14823 0.07679 0.63351 0.0
C36 C 0.84607 0.95244 0.44857 0.0
C37 C 0.80861 0.81083 0.6051 0.0
C38 C 0.87213 0.06368 0.59959 0.0
C39 C 0.11871 0.98671 0.4707 0.0
O40 O 0.1098 0.15121 0.51873 0.0
O41 O 0.25793 0.27796 0.49697 0.0
Zn42 Zn 0.31241 0.70947 0.205 0.0
Zn43 Zn 0.36952 0.76525 0.3973 0.0
Zn44 Zn 0.33429 0.72387 0.29791 0.0
C45 C 0.54586 0.84981 0.34954 0.0
C46 C 0.2358 0.55865 0.3944 0.0
O47 O 0.25653 0.77622 0.26837 0.0
O48 O 0.19674 0.69111 0.19291 0.0
C49 C 0.49062 0.85384 0.20058 0.0
O50 O 0.49315 0.81549 0.3067 0.0
O51 O 0.50822 0.83723 0.39722 0.0
O52 O 0.28422 0.62919 0.42598 0.0
O53 O 0.24918 0.57613 0.34108 0.0
O54 O 0.4233 0.84133 0.17576 0.0
O55 O 0.47299 0.80974 0.24859 0.0
O56 O 0.25484 0.56776 0.28158 0.0
O57 O 0.30501 0.59389 0.19354 0.0
C58 C 0.26213 0.5361 0.23561 0.0
O59 O 0.26931 0.79022 0.32615 0.0
O60 O 0.31815 0.83384 0.41193 0.0
C61 C 0.20358 0.74937 0.22587 0.0
C62 C 0.27099 0.82815 0.37177 0.0
Zn63 Zn 0.67839 0.31645 0.89407 0.0
Zn64 Zn 0.62171 0.2808 0.69912 0.0
Zn65 Zn 0.64687 0.29787 0.80208 0.0
C66 C 0.73614 0.47795 0.71456 0.0
C67 C 0.44089 0.18277 0.74617 0.0
O68 O 0.70924 0.22679 0.83288 0.0
O69 O 0.79655 0.33189 0.89617 0.0
C70 C 0.73252 0.49022 0.8706 0.0
O71 O 0.72544 0.44754 0.76568 0.0
O72 O 0.6973 0.41833 0.6763 0.0
O73 O 0.48188 0.20096 0.69893 0.0
O74 O 0.48983 0.21182 0.79055 0.0
O75 O 0.69529 0.43409 0.91349 0.0
O76 O 0.73083 0.45599 0.82322 0.0
O77 O 0.50806 0.21471 0.8491 0.0
O78 O 0.55845 0.18755 0.92346 0.0
C79 C 0.49086 0.17429 0.89816 0.0
O80 O 0.71197 0.23405 0.76766 0.0
O81 O 0.68025 0.22379 0.67809 0.0
C82 C 0.76711 0.25486 0.87303 0.0
C83 C 0.71854 0.21331 0.71751 0.0
C84 C 0.02515 0.75515 0.15748 0.0
C85 C 0.06653 0.85485 0.15742 0.0
C86 C 0.20314 0.88961 0.2045 0.0
C87 C 0.1534 0.78785 0.21216 0.0
N88 N 0.00479 0.62455 0.20915 0.0
N89 N 0.18662 0.01447 0.19175 0.0
C90 C 0.05996 0.72093 0.19331 0.0
C91 C 0.15317 0.92179 0.18428 0.0
N92 N 0.95541 0.69386 0.12152 0.0
N93 N 0.29878 0.95525 0.21229 0.0
H94 H 0.15052 0.03952 0.17836 0.0
H95 H 0.24546 0.063 0.21552 0.0
H96 H 0.33967 0.93522 0.22435 0.0
H97 H 0.3388 0.02919 0.20182 0.0
H98 H 0.92867 0.62222 0.1176 0.0
H99 H 0.93316 0.71792 0.09098 0.0
H100 H 0.93334 0.57431 0.1992 0.0
H101 H 0.02753 0.59758 0.23723 0.0
C102 C 0.1869 0.00435 0.70482 0.0
C103 C 0.17335 0.07255 0.69178 0.0
C104 C 0.30558 0.1877 0.75139 0.0
C105 C 0.33694 0.13192 0.7471 0.0
N106 N 0.30233 0.98078 0.72484 0.0
N107 N 0.20236 0.21984 0.71404 0.0
C108 C 0.27491 0.03711 0.72644 0.0
C109 C 0.22549 0.1602 0.72059 0.0
N110 N 0.11492 0.90893 0.69709 0.0
N111 N 0.35523 0.26875 0.78212 0.0
H112 H 0.14238 0.19804 0.69238 0.0
H113 H 0.24232 0.28976 0.7287 0.0
H114 H 0.41405 0.28938 0.80446 0.0
H115 H 0.33398 0.31054 0.78915 0.0
H116 H 0.11784 0.85371 0.70851 0.0
H117 H 0.04807 0.88679 0.68716 0.0
H118 H 0.26401 0.91507 0.70491 0.0
H119 H 0.36562 0.00239 0.74186 0.0
C120 C 0.07172 0.29049 0.17859 0.0
C121 C 0.12823 0.26253 0.166 0.0
C122 C 0.25355 0.39073 0.2246 0.0
C123 C 0.20624 0.43095 0.22619 0.0
N124 N 0.06812 0.41853 0.20776 0.0
N125 N 0.26829 0.27761 0.18112 0.0
C126 C 0.11349 0.37929 0.20525 0.0
C127 C 0.21707 0.30897 0.19141 0.0
N128 N -0.02094 0.23322 0.16359 0.0
N129 N 0.33412 0.43245 0.25397 0.0
H130 H 0.24094 0.21579 0.15867 0.0
H131 H 0.33793 0.31359 0.1932 0.0
H132 H 0.3607 0.4921 0.27841 0.0
H133 H 0.36961 0.40384 0.25794 0.0
H134 H 0.9309 0.24446 0.17525 0.0
H135 H 0.94813 0.16833 0.14401 0.0
H136 H 0.00599 0.39135 0.18718 0.0
H137 H 0.09511 0.48145 0.22891 0.0
C138 C 0.77062 0.04502 0.67836 0.0
C139 C 0.85218 0.10882 0.6423 0.0
C140 C 0.86396 0.24524 0.67619 0.0
C141 C 0.77177 0.17844 0.70248 0.0
N142 N 0.629 0.01198 0.71878 0.0
N143 N 0.97087 0.26981 0.60183 0.0
C144 C 0.72247 0.07736 0.70069 0.0
C145 C 0.89889 0.20964 0.64054 0.0
N146 N 0.73957 0.95357 0.6914 0.0
N147 N 0.91615 0.34245 0.68368 0.0
H148 H -0.00544 0.24419 0.57394 0.0
H149 H 0.00063 0.34226 0.59442 0.0
H150 H 0.89135 0.36997 0.70919 0.0
H151 H -0.01337 0.39401 0.66881 0.0
H152 H 0.68395 0.90642 0.72055 0.0
H153 H 0.77755 0.93043 0.67821 0.0
H154 H 0.58774 0.93763 0.71284 0.0
H155 H 0.59159 0.03286 0.7368 0.0
C156 C 0.75074 0.98001 0.17989 0.0
C157 C 0.75073 0.94425 0.12799 0.0
C158 C 0.58707 0.87584 0.11488 0.0
C159 C 0.58316 0.903 0.16984 0.0
N160 N 0.67184 0.02036 0.23993 0.0
N161 N 0.68906 0.90242 0.03667 0.0
C162 C 0.66896 0.96901 0.19749 0.0
C163 C 0.67671 0.91133 0.09164 0.0
N164 N 0.82463 0.01561 0.21421 0.0
N165 N 0.50629 0.80792 0.08736 0.0
H166 H 0.75306 0.92103 1.02076 0.0
H167 H 0.6397 0.88539 1.00694 0.0
H168 H 0.4371 0.77122 0.10331 0.0
H169 H 0.50767 0.78001 0.04996 0.0
H170 H 0.8246 0.03497 0.25489 0.0
H171 H 0.88449 0.02254 0.20165 0.0
H172 H 0.73536 0.07594 0.25793 0.0
H173 H 0.61205 0.01345 0.25257 0.0
C174 C 0.87534 0.72264 0.63831 0.0
C175 C 0.79869 0.72586 0.63099 0.0
C176 C 0.69515 0.58204 0.69373 0.0
C177 C 0.76849 0.57603 0.70021 0.0
N178 N 0.9299 0.64023 0.68319 0.0
N179 N 0.62646 0.61465 0.62323 0.0
C180 C 0.85931 0.64634 0.67351 0.0
C181 C 0.70555 0.64381 0.65107 0.0
N182 N 0.95931 0.78534 0.60817 0.0
N183 N 0.61172 0.52239 0.72495 0.0
H184 H 0.63108 0.64273 0.58342 0.0
H185 H 0.55796 0.55148 0.63467 0.0
H186 H 0.60026 0.47294 0.75566 0.0
H187 H 0.55834 0.52919 0.7234 0.0
H188 H 0.0131 0.77946 0.60613 0.0
H189 H 0.97541 0.84217 0.5827 0.0
H190 H 0.00021 0.6906 0.66821 0.0
H191 H 0.91848 0.58601 0.70987 0.0
C192 C 0.08314 0.82998 0.4404 0.0
C193 C 0.12481 0.92888 0.42926 0.0
C194 C 0.24401 0.95047 0.3648 0.0
C195 C 0.2101 0.85602 0.38084 0.0
N196 N 0.0823 0.69561 0.41887 0.0
N197 N 0.21094 0.06363 0.36193 0.0
C198 C 0.12402 0.79209 0.41355 0.0
C199 C 0.19354 0.98209 0.38455 0.0
N200 N 0.0074 0.77362 0.47759 0.0
N201 N 0.32791 0.01229 0.33431 0.0
H202 H 0.17252 0.08622 0.37542 0.0
H203 H 0.25505 0.10171 0.32648 0.0
H204 H 0.36725 0.99137 0.31985 0.0
H205 H 0.36121 0.08561 0.32643 0.0
H206 H -0.01657 0.70655 0.49429 0.0
H207 H 0.96676 0.79326 0.49101 0.0
H208 H 0.0159 0.643 0.43859 0.0
H209 H 0.11116 0.66673 0.39929 0.0
C210 C 0.306 0.11956 1.00826 0.0
C211 C 0.23004 0.08469 0.97315 0.0
C212 C 0.31165 0.06268 0.90148 0.0
C213 C 0.39825 0.12789 0.92887 0.0
N214 N 0.47683 0.22474 1.01051 0.0
N215 N 0.1532 0.01168 0.88793 0.0
C216 C 0.39537 0.15576 0.98386 0.0
C217 C 0.22944 0.05008 0.92069 0.0
N218 N 0.29479 0.12754 0.06359 0.0
N219 N 0.30792 0.01233 0.8581 0.0
H220 H 0.09177 1.00026 0.90251 0.0
H221 H 0.15299 0.99501 0.84652 0.0
H222 H 0.36723 0.01897 0.84467 0.0
H223 H 0.2441 0.95716 0.8402 0.0
H224 H 0.34578 0.14634 0.09254 0.0
H225 H 0.22992 0.10561 0.08054 0.0
H226 H 0.47616 0.25261 0.04811 0.0
H227 H 0.54555 0.26287 0.99334 0.0
C228 C 0.12311 0.29401 0.41837 0.0
C229 C 0.14197 0.29737 0.47588 0.0
C230 C 0.16662 0.44899 0.48104 0.0
C231 C 0.17377 0.45823 0.42193 0.0
N232 N 0.09672 0.36528 0.34155 0.0
N233 N 0.1817 0.37811 0.56284 0.0
C234 C 0.13346 0.37337 0.39211 0.0
C235 C 0.16152 0.3738 0.50782 0.0
N236 N 0.10171 0.21849 0.38829 0.0
N237 N 0.16022 0.50929 0.51116 0.0
H238 H 0.17451 0.32182 0.58452 0.0
H239 H 0.2085 0.43884 0.58614 0.0
H240 H 0.15312 0.55786 0.49189 0.0
H241 H 0.14913 0.50203 0.55437 0.0
H242 H 0.09875 0.21782 0.34495 0.0
H243 H 0.0905 0.15804 0.407 0.0
H244 H 0.05821 0.30141 0.31984 0.0
H245 H 0.09278 0.41812 0.32596 0.0
C246 C 0.83914 0.16158 0.98664 0.0
C247 C 0.88595 0.13742 0.95254 0.0
C248 C 0.80931 0.14188 0.87127 0.0
C249 C 0.78621 0.19241 0.90146 0.0
N250 N 0.74906 0.22064 0.99198 0.0
N251 N 0.91158 0.09819 0.86227 0.0
C252 C 0.79126 0.19235 0.96073 0.0
C253 C 0.86969 0.12541 0.89479 0.0
N254 N 0.84082 0.15526 0.04341 0.0
N255 N 0.76466 0.09937 0.82361 0.0
H256 H 0.95157 0.0794 0.87861 0.0
H257 H 0.91011 0.09912 0.81883 0.0
H258 H 0.70713 0.09542 0.81207 0.0
H259 H 0.77192 0.05306 0.803 0.0
H260 H 0.8025 0.1643 0.07134 0.0
H261 H 0.87613 0.13397 0.06324 0.0
H262 H 0.76016 0.23564 0.03402 0.0
H263 H 0.70094 0.22828 0.9755 0.0
C264 C 0.79633 0.03241 0.39411 0.0
C265 C 0.82066 0.97069 0.3943 0.0
C266 C 0.69167 0.86256 0.33141 0.0
C267 C 0.65141 0.90757 0.34581 0.0
N268 N 0.67396 0.04841 0.37741 0.0
N269 N 0.816 0.84898 0.3496 0.0
C270 C 0.70811 0.99847 0.3717 0.0
C271 C 0.77768 0.89459 0.35666 0.0
N272 N 0.85516 0.12006 0.41817 0.0
N273 N 0.64554 0.78731 0.29625 0.0
H274 H 0.87944 0.87422 0.36825 0.0
H275 H 0.78719 0.78876 0.3256 0.0
H276 H 0.5834 0.76412 0.27711 0.0
H277 H 0.67103 0.75153 0.28324 0.0
H278 H 0.84463 0.17147 0.41817 0.0
H279 H 0.91955 0.14414 0.43456 0.0
H280 H 0.70635 0.11064 0.40009 0.0
H281 H 0.61137 0.02612 0.35898 0.0
C282 C 0.75898 0.70565 0.91994 0.0
C283 C 0.85 0.75585 0.94288 0.0
C284 C 0.87717 0.65874 0.88868 0.0
C285 C 0.77878 0.59429 0.87766 0.0
N286 N 0.62662 0.55902 0.87721 0.0
N287 N 0.0003 0.78653 0.94647 0.0
C288 C 0.72042 0.62002 0.8904 0.0
C289 C 0.91176 0.73628 0.92513 0.0
N290 N 0.70941 0.73952 0.9276 0.0
N291 N 0.93614 0.64328 0.86567 0.0
H292 H 0.02799 0.84435 0.97255 0.0
H293 H 0.04483 0.76871 0.9403 0.0
H294 H 0.91117 0.58643 0.83918 0.0
H295 H 0.01001 0.6912 0.86844 0.0
H296 H 0.64543 0.71086 0.90888 0.0
H297 H 0.73757 0.80272 0.94885 0.0
H298 H 0.57679 0.56699 0.89066 0.0
H299 H 0.59799 0.49753 0.85414 0.0
loop_
_geom_bond_atom_site_label_1
_geom_bond_atom_site_label_2
_geom_bond_distance
_geom_bond_site_symmetry_2
_ccdc_geom_bond_type
O0 Mn1 2.163 1_666 S
O0 C14 1.244 . S
Mn1 O0 2.163 1_444 S
Mn1 O4 2.160 . S
Mn1 O5 2.221 1_554 S
Mn1 O7 2.163 1_454 S
Mn1 O9 2.160 1_545 S
Mn1 O19 2.221 1_445 S
O2 Mn3 2.087 1_556 S
O2 C14 1.256 . S
Mn3 O2 2.087 1_554 S
Mn3 O10 2.089 . S
Mn3 O19 2.290 . S
Mn3 O20 2.251 . S
O4 Mn1 2.160 . S
O4 C15 1.239 . S
O5 Mn1 2.221 1_556 S
O5 Mn6 2.290 . S
O5 C16 1.278 . S
Mn6 O5 2.290 . S
Mn6 O8 2.089 1_556 S
Mn6 O11 2.251 . S
Mn6 O12 2.087 . S
O7 Mn1 2.163 1_656 S
O7 C17 1.244 . S
O8 Mn6 2.089 1_554 S
O8 C15 1.256 . S
O9 Mn1 2.160 1_565 S
O9 C18 1.239 . S
O10 Mn3 2.089 . S
O10 C18 1.256 1_655 S
O11 Mn6 2.251 . S
O11 C16 1.241 . S
O12 Mn6 2.087 . S
O12 C17 1.256 1_455 S
C13 O19 1.278 . S
C13 O20 1.241 . S
C14 O0 1.244 . S
C14 O2 1.256 . S
C15 O4 1.239 . S
C15 O8 1.256 . S
C16 O5 1.278 . S
C16 O11 1.241 . S
C17 O7 1.244 . S
C17 O12 1.256 1_655 S
C18 O9 1.239 . S
C18 O10 1.256 1_455 S
O19 Mn1 2.221 1_665 S
O19 Mn3 2.290 . S
O19 C13 1.278 . S
O20 Mn3 2.251 . S
O20 C13 1.241 . S
O21 Mn22 2.169 1_545 S
O21 C35 1.244 . S
Mn22 O21 2.169 1_565 S
Mn22 O25 2.154 1_455 S
Mn22 O26 2.220 1_455 S
Mn22 O28 2.157 1_465 S
Mn22 O30 2.166 . S
Mn22 O40 2.222 1_565 S
O23 Mn24 2.087 . S
O23 C35 1.256 . S
Mn24 O23 2.087 . S
Mn24 O31 2.089 . S
Mn24 O40 2.290 . S
Mn24 O41 2.251 . S
O25 Mn22 2.154 1_655 S
O25 C36 1.239 . S
O26 Mn22 2.220 1_655 S
O26 Mn27 2.290 . S
O26 C37 1.278 . S
Mn27 O26 2.290 . S
Mn27 O29 2.089 . S
Mn27 O32 2.251 . S
Mn27 O33 2.087 . S
O28 Mn22 2.157 1_645 S
O28 C38 1.244 . S
O29 Mn27 2.089 . S
O29 C36 1.256 . S
O30 Mn22 2.166 . S
O30 C39 1.239 . S
O31 Mn24 2.089 . S
O31 C39 1.256 1_545 S
O32 Mn27 2.251 . S
O32 C37 1.241 . S
O33 Mn27 2.087 . S
O33 C38 1.256 1_565 S
C34 O40 1.278 . S
C34 O41 1.241 . S
C35 O21 1.244 . S
C35 O23 1.256 . S
C36 O25 1.239 . S
C36 O29 1.256 . S
C37 O26 1.278 . S
C37 O32 1.241 . S
C38 O28 1.244 . S
C38 O33 1.256 1_545 S
C39 O30 1.239 . S
C39 O31 1.256 1_565 S
O40 Mn22 2.222 1_545 S
O40 Mn24 2.290 . S
O40 C34 1.278 . S
O41 Mn24 2.251 . S
O41 C34 1.241 . S
Zn42 O48 1.920 . S
Zn42 O54 1.898 . S
Zn42 O57 1.905 . S
Zn43 O51 1.905 . S
Zn43 O52 1.898 . S
Zn43 O60 1.920 . S
Zn44 O47 2.080 . S
Zn44 O50 2.114 . S
Zn44 O53 2.120 . S
Zn44 O55 2.120 . S
Zn44 O56 2.114 . S
Zn44 O59 2.080 . S
C45 O50 1.166 . S
C45 O51 1.182 . S
C46 O52 1.167 . S
C46 O53 1.299 . S
O47 Zn44 2.080 . S
O47 C61 1.305 . S
O48 Zn42 1.920 . S
O48 C61 1.234 . S
C49 O54 1.167 . S
C49 O55 1.299 . S
O50 Zn44 2.114 . S
O50 C45 1.166 . S
O51 Zn43 1.905 . S
O51 C45 1.182 . S
O52 Zn43 1.898 . S
O52 C46 1.167 . S
O53 Zn44 2.120 . S
O53 C46 1.299 . S
O54 Zn42 1.898 . S
O54 C49 1.167 . S
O55 Zn44 2.120 . S
O55 C49 1.299 . S
O56 Zn44 2.114 . S
O56 C58 1.166 . S
O57 Zn42 1.905 . S
O57 C58 1.182 . S
C58 O56 1.166 . S
C58 O57 1.182 . S
O59 Zn44 2.080 . S
O59 C62 1.305 . S
O60 Zn43 1.920 . S
O60 C62 1.234 . S
C61 O47 1.305 . S
C61 O48 1.234 . S
C62 O59 1.305 . S
C62 O60 1.234 . S
Zn63 O69 1.920 . S
Zn63 O75 1.898 . S
Zn63 O78 1.905 . S
Zn64 O72 1.905 . S
Zn64 O73 1.898 . S
Zn64 O81 1.920 . S
Zn65 O68 2.080 . S
Zn65 O71 2.114 . S
Zn65 O74 2.120 . S
Zn65 O76 2.120 . S
Zn65 O77 2.114 . S
Zn65 O80 2.080 . S
C66 O71 1.166 . S
C66 O72 1.182 . S
C67 O73 1.167 . S
C67 O74 1.299 . S
O68 Zn65 2.080 . S
O68 C82 1.305 . S
O69 Zn63 1.920 . S
O69 C82 1.234 . S
C70 O75 1.167 . S
C70 O76 1.299 . S
O71 Zn65 2.114 . S
O71 C66 1.166 . S
O72 Zn64 1.905 . S
O72 C66 1.182 . S
O73 Zn64 1.898 . S
O73 C67 1.167 . S
O74 Zn65 2.120 . S
O74 C67 1.299 . S
O75 Zn63 1.898 . S
O75 C70 1.167 . S
O76 Zn65 2.120 . S
O76 C70 1.299 . S
O77 Zn65 2.114 . S
O77 C79 1.166 . S
O78 Zn63 1.905 . S
O78 C79 1.182 . S
C79 O77 1.166 . S
C79 O78 1.182 . S
O80 Zn65 2.080 . S
O80 C83 1.305 . S
O81 Zn64 1.920 . S
O81 C83 1.234 . S
C82 O68 1.305 . S
C82 O69 1.234 . S
C83 O80 1.305 . S
C83 O81 1.234 . S
C84 C85 1.363 . S
C84 C90 1.379 . S
C84 N92 1.356 1_455 S
C85 C84 1.363 . S
C85 C91 1.363 . S
C86 C87 1.363 . S
C86 C91 1.379 . S
C86 N93 1.356 . S
C87 C86 1.363 . S
C87 C90 1.363 . S
N88 C90 1.356 . S
N88 H100 0.984 1_455 S
N88 H101 0.985 . S
N89 C91 1.356 . S
N89 H94 0.984 1_565 S
N89 H95 0.985 1_565 S
C90 C84 1.379 . S
C90 C87 1.363 . S
C90 N88 1.356 . S
C91 C85 1.363 . S
C91 C86 1.379 . S
C91 N89 1.356 . S
N92 C84 1.356 1_655 S
N92 H98 0.984 . S
N92 H99 0.984 . S
N93 C86 1.356 . S
N93 H96 0.984 . S
N93 H97 0.985 . S
H94 N89 0.984 1_545 S
H95 N89 0.985 1_545 S
H96 N93 0.984 . S
H97 N93 0.985 . S
H98 N92 0.984 . S
H99 N92 0.984 . S
H100 N88 0.984 1_655 S
H101 N88 0.985 . S
C102 C103 1.363 . S
C102 C108 1.379 . S
C102 N110 1.356 1_545 S
C103 C102 1.363 . S
C103 C109 1.363 . S
C104 C105 1.363 . S
C104 C109 1.379 . S
C104 N111 1.356 . S
C105 C104 1.363 . S
C105 C108 1.363 . S
N106 C108 1.356 . S
N106 H118 0.984 1_545 S
N106 H119 0.985 . S
N107 C109 1.356 . S
N107 H112 0.984 . S
N107 H113 0.985 . S
C108 C102 1.379 . S
C108 C105 1.363 . S
C108 N106 1.356 . S
C109 C103 1.363 . S
C109 C104 1.379 . S
C109 N107 1.356 . S
N110 C102 1.356 1_565 S
N110 H116 0.984 . S
N110 H117 0.984 . S
N111 C104 1.356 . S
N111 H114 0.984 . S
N111 H115 0.985 . S
H112 N107 0.984 . S
H113 N107 0.985 . S
H114 N111 0.984 . S
H115 N111 0.985 . S
H116 N110 0.984 . S
H117 N110 0.984 . S
H118 N106 0.984 1_565 S
H119 N106 0.985 . S
C120 C121 1.363 . S
C120 C126 1.379 . S
C120 N128 1.356 . S
C121 C120 1.363 . S
C121 C127 1.363 . S
C122 C123 1.363 . S
C122 C127 1.379 . S
C122 N129 1.356 . S
C123 C122 1.363 . S
C123 C126 1.363 . S
N124 C126 1.356 . S
N124 H136 0.984 . S
N124 H137 0.985 . S
N125 C127 1.356 . S
N125 H130 0.984 . S
N125 H131 0.985 . S
C126 C120 1.379 . S
C126 C123 1.363 . S
C126 N124 1.356 . S
C127 C121 1.363 . S
C127 C122 1.379 . S
C127 N125 1.356 . S
N128 C120 1.356 . S
N128 H134 0.984 . S
N128 H135 0.984 . S
N129 C122 1.356 . S
N129 H132 0.984 . S
N129 H133 0.985 . S
H130 N125 0.984 . S
H131 N125 0.985 . S
H132 N129 0.984 . S
H133 N129 0.985 . S
H134 N128 0.984 . S
H135 N128 0.984 . S
H136 N124 0.984 . S
H137 N124 0.985 . S
C138 C139 1.363 . S
C138 C144 1.379 . S
C138 N146 1.356 . S
C139 C138 1.363 . S
C139 C145 1.363 . S
C140 C141 1.363 . S
C140 C145 1.379 . S
C140 N147 1.356 . S
C141 C140 1.363 . S
C141 C144 1.363 . S
N142 C144 1.356 . S
N142 H154 0.984 . S
N142 H155 0.985 . S
N143 C145 1.356 . S
N143 H148 0.984 . S
N143 H149 0.985 . S
C144 C138 1.379 . S
C144 C141 1.363 . S
C144 N142 1.356 . S
C145 C139 1.363 . S
C145 C140 1.379 . S
C145 N143 1.356 . S
N146 C138 1.356 . S
N146 H152 0.984 1_545 S
N146 H153 0.984 . S
N147 C140 1.356 . S
N147 H150 0.984 . S
N147 H151 0.985 . S
H148 N143 0.984 . S
H149 N143 0.985 . S
H150 N147 0.984 . S
H151 N147 0.985 . S
H152 N146 0.984 1_565 S
H153 N146 0.984 . S
H154 N142 0.984 . S
H155 N142 0.985 . S
C156 C157 1.363 . S
C156 C162 1.379 . S
C156 N164 1.356 . S
C157 C156 1.363 . S
C157 C163 1.363 . S
C158 C159 1.363 . S
C158 C163 1.379 . S
C158 N165 1.356 . S
C159 C158 1.363 . S
C159 C162 1.363 . S
N160 C162 1.356 . S
N160 H172 0.982 1_565 S
N160 H173 0.985 . S
N161 C163 1.356 . S
N161 H166 0.984 . S
N161 H167 0.985 . S
C162 C156 1.379 . S
C162 C159 1.363 . S
C162 N160 1.356 . S
C163 C157 1.363 . S
C163 C158 1.379 . S
C163 N161 1.356 . S
N164 C156 1.356 . S
N164 H170 0.984 1_565 S
N164 H171 0.984 . S
N165 C158 1.356 . S
N165 H168 0.984 . S
N165 H169 0.985 . S
H166 N161 0.984 . S
H167 N161 0.985 . S
H168 N165 0.984 . S
H169 N165 0.985 . S
H170 N164 0.984 1_545 S
H171 N164 0.984 . S
H172 N160 0.982 1_545 S
H173 N160 0.985 . S
C174 C175 1.363 . S
C174 C180 1.379 . S
C174 N182 1.356 1_655 S
C175 C174 1.363 . S
C175 C181 1.363 . S
C176 C177 1.363 . S
C176 C181 1.379 . S
C176 N183 1.356 . S
C177 C176 1.363 . S
C177 C180 1.363 . S
N178 C180 1.356 . S
N178 H190 0.984 . S
N178 H191 0.985 . S
N179 C181 1.356 . S
N179 H184 0.984 . S
N179 H185 0.985 . S
C180 C174 1.379 . S
C180 C177 1.363 . S
C180 N178 1.356 . S
C181 C175 1.363 . S
C181 C176 1.379 . S
C181 N179 1.356 . S
N182 C174 1.356 1_455 S
N182 H188 0.984 . S
N182 H189 0.984 . S
N183 C176 1.356 . S
N183 H186 0.984 . S
N183 H187 0.985 . S
H184 N179 0.984 . S
H185 N179 0.985 . S
H186 N183 0.984 . S
H187 N183 0.985 . S
H188 N182 0.984 . S
H189 N182 0.984 . S
H190 N178 0.984 . S
H191 N178 0.985 . S
C192 C193 1.363 . S
C192 C198 1.379 . S
C192 N200 1.356 . S
C193 C192 1.363 . S
C193 C199 1.363 . S
C194 C195 1.363 . S
C194 C199 1.379 . S
C194 N201 1.356 . S
C195 C194 1.363 . S
C195 C198 1.363 . S
N196 C198 1.356 . S
N196 H208 0.984 . S
N196 H209 0.985 . S
N197 C199 1.356 . S
N197 H202 0.984 . S
N197 H203 0.985 1_565 S
C198 C192 1.379 . S
C198 C195 1.363 . S
C198 N196 1.356 . S
C199 C193 1.363 . S
C199 C194 1.379 . S
C199 N197 1.356 . S
N200 C192 1.356 . S
N200 H206 0.984 . S
N200 H207 0.984 . S
N201 C194 1.356 . S
N201 H204 0.984 . S
N201 H205 0.985 . S
H202 N197 0.984 . S
H203 N197 0.985 1_545 S
H204 N201 0.984 . S
H205 N201 0.985 . S
H206 N200 0.984 . S
H207 N200 0.984 . S
H208 N196 0.984 . S
H209 N196 0.985 . S
C210 C211 1.363 . S
C210 C216 1.379 . S
C210 N218 1.356 . S
C211 C210 1.363 . S
C211 C217 1.363 . S
C212 C213 1.363 . S
C212 C217 1.379 . S
C212 N219 1.356 . S
C213 C212 1.363 . S
C213 C216 1.363 . S
N214 C216 1.356 . S
N214 H226 0.984 . S
N214 H227 0.985 . S
N215 C217 1.356 1_565 S
N215 H220 0.984 . S
N215 H221 0.985 . S
C216 C210 1.379 . S
C216 C213 1.363 . S
C216 N214 1.356 . S
C217 C211 1.363 . S
C217 C212 1.379 . S
C217 N215 1.356 1_545 S
N218 C210 1.356 . S
N218 H224 0.984 . S
N218 H225 0.984 . S
N219 C212 1.356 . S
N219 H222 0.984 . S
N219 H223 0.985 . S
H220 N215 0.984 . S
H221 N215 0.985 . S
H222 N219 0.984 . S
H223 N219 0.985 . S
H224 N218 0.984 . S
H225 N218 0.984 . S
H226 N214 0.984 . S
H227 N214 0.985 . S
C228 C229 1.363 . S
C228 C234 1.379 . S
C228 N236 1.356 . S
C229 C228 1.363 . S
C229 C235 1.363 . S
C230 C231 1.363 . S
C230 C235 1.379 . S
C230 N237 1.356 . S
C231 C230 1.363 . S
C231 C234 1.363 . S
N232 C234 1.356 . S
N232 H244 0.984 . S
N232 H245 0.985 . S
N233 C235 1.356 . S
N233 H238 0.984 . S
N233 H239 0.985 . S
C234 C228 1.379 . S
C234 C231 1.363 . S
C234 N232 1.356 . S
C235 C229 1.363 . S
C235 C230 1.379 . S
C235 N233 1.356 . S
N236 C228 1.356 . S
N236 H242 0.984 . S
N236 H243 0.984 . S
N237 C230 1.356 . S
N237 H240 0.984 . S
N237 H241 0.985 . S
H238 N233 0.984 . S
H239 N233 0.985 . S
H240 N237 0.984 . S
H241 N237 0.985 . S
H242 N236 0.984 . S
H243 N236 0.984 . S
H244 N232 0.984 . S
H245 N232 0.985 . S
C246 C247 1.363 . S
C246 C252 1.379 . S
C246 N254 1.356 . S
C247 C246 1.363 . S
C247 C253 1.363 . S
C248 C249 1.363 . S
C248 C253 1.379 . S
C248 N255 1.356 . S
C249 C248 1.363 . S
C249 C252 1.363 . S
N250 C252 1.356 . S
N250 H262 0.984 . S
N250 H263 0.985 . S
N251 C253 1.356 . S
N251 H256 0.984 . S
N251 H257 0.985 . S
C252 C246 1.379 . S
C252 C249 1.363 . S
C252 N250 1.356 . S
C253 C247 1.363 . S
C253 C248 1.379 . S
C253 N251 1.356 . S
N254 C246 1.356 . S
N254 H260 0.984 1_556 S
N254 H261 0.984 1_556 S
N255 C248 1.356 . S
N255 H258 0.984 . S
N255 H259 0.985 . S
H256 N251 0.984 . S
H257 N251 0.985 . S
H258 N255 0.984 . S
H259 N255 0.985 . S
H260 N254 0.984 1_554 S
H261 N254 0.984 1_554 S
H262 N250 0.984 . S
H263 N250 0.985 . S
C264 C265 1.363 . S
C264 C270 1.379 . S
C264 N272 1.356 1_565 S
C265 C264 1.363 . S
C265 C271 1.363 . S
C266 C267 1.363 . S
C266 C271 1.379 . S
C266 N273 1.356 . S
C267 C266 1.363 . S
C267 C270 1.363 . S
N268 C270 1.356 . S
N268 H280 0.984 . S
N268 H281 0.985 . S
N269 C271 1.356 . S
N269 H274 0.984 . S
N269 H275 0.985 . S
C270 C264 1.379 . S
C270 C267 1.363 . S
C270 N268 1.356 . S
C271 C265 1.363 . S
C271 C266 1.379 . S
C271 N269 1.356 . S
N272 C264 1.356 1_545 S
N272 H278 0.984 . S
N272 H279 0.984 . S
N273 C266 1.356 . S
N273 H276 0.984 . S
N273 H277 0.985 . S
H274 N269 0.984 . S
H275 N269 0.985 . S
H276 N273 0.984 . S
H277 N273 0.985 . S
H278 N272 0.984 . S
H279 N272 0.984 . S
H280 N268 0.984 . S
H281 N268 0.985 . S
C282 C283 1.363 . S
C282 C288 1.379 . S
C282 N290 1.356 . S
C283 C282 1.363 . S
C283 C289 1.363 . S
C284 C285 1.363 . S
C284 C289 1.379 . S
C284 N291 1.356 . S
C285 C284 1.363 . S
C285 C288 1.363 . S
N286 C288 1.356 . S
N286 H298 0.984 . S
N286 H299 0.985 . S
N287 C289 1.356 . S
N287 H292 0.984 . S
N287 H293 0.985 1_655 S
C288 C282 1.379 . S
C288 C285 1.363 . S
C288 N286 1.356 . S
C289 C283 1.363 . S
C289 C284 1.379 . S
C289 N287 1.356 . S
N290 C282 1.356 . S
N290 H296 0.984 . S
N290 H297 0.984 . S
N291 C284 1.356 . S
N291 H294 0.984 . S
N291 H295 0.985 . S
H292 N287 0.984 . S
H293 N287 0.985 1_455 S
H294 N291 0.984 . S
H295 N291 0.985 . S
H296 N290 0.984 . S
H297 N290 0.984 . S
H298 N286 0.984 . S
H299 N286 0.985 . S
C85 C18 1.391 . S
C87 C61 1.317 . S
C103 C35 1.547 . S
C105 C67 1.407 . S
C121 C15 1.377 . S
C123 C58 1.299 . S
C139 C38 1.589 . S
C141 C83 1.430 . S
C157 C13 1.452 . S
C159 C49 1.390 . S
C177 C66 1.435 . S
C175 C37 1.267 . S
C193 C39 1.391 . S
C195 C62 1.317 . S
C213 C79 1.435 . S
C211 C16 1.267 . S
C231 C46 1.390 . S
C229 C34 1.453 . S
C249 C82 1.430 . S
C247 C17 1.589 . S
C267 C45 1.300 . S
C265 C36 1.377 . S
C285 C70 1.407 . S
C283 C14 1.547 . S
