# Generated by pormake.
# Topology pth, (4,4)-cn, num edge types: 1
# Building blocks:
#     Node 0, Type 0, BuildingBlock: QUQFOY_clean_sbu_1, # of connection points: 4
#     Node 1, Type 0, BuildingBlock: QUQFOY_clean_sbu_1, # of connection points: 4
#     Node 2, Type 0, BuildingBlock: QUQFOY_clean_sbu_1, # of connection points: 4
#     Node 3, Type 1, BuildingBlock: KOZSID_clean_sbu_0, # of connection points: 4
#     Node 4, Type 1, BuildingBlock: KOZSID_clean_sbu_0, # of connection points: 4
#     Node 5, Type 1, BuildingBlock: KOZSID_clean_sbu_0, # of connection points: 4
#     Edge 6, Type (0, 1), BuildingBlock: KIFKEQ_clean_linker_1, # of connection points: 2
#     Edge 7, Type (0, 1), BuildingBlock: KIFKEQ_clean_linker_1, # of connection points: 2
#     Edge 8, Type (0, 1), BuildingBlock: KIFKEQ_clean_linker_1, # of connection points: 2
#     Edge 9, Type (0, 1), BuildingBlock: KIFKEQ_clean_linker_1, # of connection points: 2
#     Edge 10, Type (0, 1), BuildingBlock: KIFKEQ_clean_linker_1, # of connection points: 2
#     Edge 11, Type (0, 1), BuildingBlock: KIFKEQ_clean_linker_1, # of connection points: 2
#     Edge 12, Type (0, 1), BuildingBlock: KIFKEQ_clean_linker_1, # of connection points: 2
#     Edge 13, Type (0, 1), BuildingBlock: KIFKEQ_clean_linker_1, # of connection points: 2
#     Edge 14, Type (0, 1), BuildingBlock: KIFKEQ_clean_linker_1, # of connection points: 2
#     Edge 15, Type (0, 1), BuildingBlock: KIFKEQ_clean_linker_1, # of connection points: 2
#     Edge 16, Type (0, 1), BuildingBlock: KIFKEQ_clean_linker_1, # of connection points: 2
#     Edge 17, Type (0, 1), BuildingBlock: KIFKEQ_clean_linker_1, # of connection points: 2
# Relax obj value: 0.022
# Max RMSD: 0.125
# Mean RMSD: 0.072
data_MOF--net-pth--node1-QUQFOY_clean_sbu_1--node2-KOZSID_clean_sbu_0--edge1-KIFKEQ_clean_linker_1
_symmetry_space_group_name_H-M    P1
_symmetry_Int_Tables_number       1
_symmetry_cell_setting            triclinic
loop_
_symmetry_equiv_pos_as_xyz
'x, y, z'
_cell_length_a     26.01888
_cell_length_b     28.379596
_cell_length_c     63.171221
_cell_angle_alpha  87.564131
_cell_angle_beta   87.310403
_cell_angle_gamma 120.15958
loop_
_atom_site_label
_atom_site_type_symbol
_atom_site_fract_x
_atom_site_fract_y
_atom_site_fract_z
_atom_type_partial_charge
O0 O 0.11171 0.13083 0.03193 0.0
Cd1 Cd 0.03749 0.08003 0.05206 0.0
Cd2 Cd 0.09854 0.02411 0.05348 0.0
O3 O 0.17011 0.09882 0.04063 0.0
O4 O 0.00511 0.12889 0.05879 0.0
O5 O 0.0417 0.09758 0.08287 0.0
C6 C 0.02083 0.12905 0.07786 0.0
C7 C 0.10672 0.96865 0.08023 0.0
C8 C 0.16275 0.13503 0.03092 0.0
C9 C 0.98226 0.97475 0.03189 0.0
O10 O 0.03214 0.97767 0.03401 0.0
O11 O 0.97138 0.0095 0.03998 0.0
O12 O 0.13024 0.9749 0.06115 0.0
O13 O 0.08207 0.99724 0.08462 0.0
O14 O 0.00824 0.10767 0.39779 0.0
Cd15 Cd 0.0837 0.13127 0.37797 0.0
Cd16 Cd 0.03068 0.01649 0.38036 0.0
O17 O 0.95932 0.01808 0.39595 0.0
O18 O 0.11152 0.20987 0.36996 0.0
O19 O 0.0784 0.14684 0.34682 0.0
C20 C 0.09678 0.19681 0.35097 0.0
C21 C 0.01986 0.95355 0.3554 0.0
C22 C 0.96209 0.0611 0.4025 0.0
C23 C 0.15013 0.08441 0.39924 0.0
O24 O 0.10402 0.03835 0.3973 0.0
O25 O 0.15403 0.12814 0.39119 0.0
O26 O 0.00461 0.93872 0.37534 0.0
O27 O 0.03757 0.0038 0.34929 0.0
O28 O 0.98928 0.01718 0.70455 0.0
Cd29 Cd 0.04408 1.00214 0.72285 0.0
Cd30 Cd 0.1053 0.11386 0.72014 0.0
O31 O 0.0293 0.10575 0.70753 0.0
O32 O 0.99297 0.92314 0.73285 0.0
O33 O 0.02346 0.98925 0.75466 0.0
C34 C 0.99182 0.93779 0.75182 0.0
C35 C 0.15416 0.17359 0.74634 0.0
C36 C 0.9887 0.06136 0.70101 0.0
C37 C 0.16259 0.05725 0.69801 0.0
O38 O 0.1612 0.10092 0.70016 0.0
O39 O 0.12205 0.01227 0.70748 0.0
O40 O 0.15628 0.19141 0.72701 0.0
O41 O 0.12128 0.12158 0.75116 0.0
C42 C 0.11302 0.65518 0.181 0.0
C43 C 0.16806 0.69612 0.17185 0.0
C44 C 0.21016 0.68975 0.18152 0.0
C45 C 0.17856 0.64544 0.1959 0.0
N46 N 0.11874 0.62222 0.19571 0.0
Co47 Co 0.05632 0.55917 0.21496 0.0
N48 N 0.11846 0.55343 0.23067 0.0
C49 C 0.17832 0.58518 0.227 0.0
C50 C 0.20971 0.57026 0.23976 0.0
C51 C 0.16743 0.52551 0.25205 0.0
C52 C 0.11247 0.5156 0.24595 0.0
N53 N 0.99398 0.49675 0.23455 0.0
C54 C 0.99984 0.46446 0.2496 0.0
C55 C 0.94483 0.42408 0.25894 0.0
C56 C 0.9027 0.43064 0.24929 0.0
C57 C 0.93416 0.47441 0.23464 0.0
N58 N 0.99428 0.56444 0.19892 0.0
C59 C 0.93443 0.53155 0.20212 0.0
C60 C 0.90329 0.54671 0.18929 0.0
C61 C 0.94568 0.5925 0.17743 0.0
C62 C 1.00047 0.60268 0.18373 0.0
N63 N 0.05569 0.50588 0.19517 0.0
C64 C 0.05361 0.4246 0.17019 0.0
C65 C 1.00109 0.41932 0.17945 0.0
C66 C 1.00306 0.46019 0.19152 0.0
C67 C 0.1073 0.47217 0.17309 0.0
C68 C 0.10739 0.51186 0.18567 0.0
N69 N 0.05637 0.61214 0.23476 0.0
C70 C 1.00239 0.64838 0.25376 0.0
C71 C 0.05514 0.69159 0.26001 0.0
C72 C 0.10865 0.69357 0.25393 0.0
C73 C 0.1083 0.6539 0.24127 0.0
C74 C 0.00394 0.60931 0.24149 0.0
H75 H 0.15055 0.65822 0.23671 0.0
H76 H 0.96196 0.57752 0.23746 0.0
H77 H 0.96122 0.45337 0.19791 0.0
H78 H 0.14979 0.54661 0.18773 0.0
C79 C 0.20372 0.6269 0.21072 0.0
C80 C 0.05689 0.65104 0.1759 0.0
C81 C 0.05613 0.46835 0.25451 0.0
C82 C 0.90892 0.49127 0.21908 0.0
H83 H 0.17687 0.72818 0.15984 0.0
H84 H 0.2581 0.71548 0.1789 0.0
H85 H 0.25763 0.58877 0.23972 0.0
H86 H 0.17608 0.50201 0.26381 0.0
H87 H 0.93595 0.39204 0.27096 0.0
H88 H 0.85477 0.40493 0.25195 0.0
H89 H 0.85539 0.52827 0.1893 0.0
H90 H 0.93718 0.61677 0.16599 0.0
H91 H 0.95828 0.38379 0.17726 0.0
H92 H 0.1492 0.47815 0.16613 0.0
H93 H 0.95971 0.64438 0.25847 0.0
H94 H 0.15072 0.72628 0.25847 0.0
C95 C 0.46019 0.01599 0.58363 0.0
C96 C 0.41271 0.96578 0.5918 0.0
C97 C 0.41706 0.92679 0.58135 0.0
C98 C 0.46641 0.95516 0.56735 0.0
N99 N 0.494 0.01005 0.56813 0.0
Co100 Co 0.56656 0.06642 0.55003 0.0
N101 N 0.5721 0.00859 0.53449 0.0
C102 C 0.53451 0.95392 0.53737 0.0
C103 C 0.54837 0.92442 0.52406 0.0
C104 C 0.59802 0.96238 0.51193 0.0
C105 C 0.61197 0.01312 0.51873 0.0
N106 N 0.63947 0.12265 0.53202 0.0
C107 C 0.67385 0.11645 0.51681 0.0
C108 C 0.72186 0.16651 0.50884 0.0
C109 C 0.71739 0.20567 0.51917 0.0
C110 C 0.66741 0.17755 0.53293 0.0
N111 N 0.56061 0.12418 0.56547 0.0
C112 C 0.59731 0.17893 0.56224 0.0
C113 C 0.58259 0.20833 0.57532 0.0
C114 C 0.53336 0.17018 0.58764 0.0
C115 C 0.5206 0.11943 0.58125 0.0
N116 N 0.61836 0.0631 0.57155 0.0
C117 C 0.69272 0.05929 0.60198 0.0
C118 C 0.70069 0.10907 0.59363 0.0
C119 C 0.66353 0.11003 0.57859 0.0
C120 C 0.64671 0.01131 0.59481 0.0
C121 C 0.61026 0.01412 0.57977 0.0
N122 N 0.51488 0.07012 0.52849 0.0
C123 C 0.48917 0.12339 0.50488 0.0
C124 C 0.44009 0.07615 0.49871 0.0
C125 C 0.42963 0.02575 0.50755 0.0
C126 C 0.46718 0.0237 0.52226 0.0
C127 C 0.52559 0.11948 0.5196 0.0
H128 H 0.45656 0.98406 0.52838 0.0
H129 H 0.56186 0.15709 0.52363 0.0
H130 H 0.67256 0.14936 0.57284 0.0
H131 H 0.5758 0.97615 0.57504 0.0
C132 C 0.48677 0.93141 0.55283 0.0
C133 C 0.47036 0.06803 0.59084 0.0
C134 C 0.66356 0.06423 0.50968 0.0
C135 C 0.64603 0.20146 0.54707 0.0
H136 H 0.37798 0.95794 0.60392 0.0
H137 H 0.38733 0.88299 0.5835 0.0
H138 H 0.52511 0.88052 0.52326 0.0
H139 H 0.62123 0.95356 0.49948 0.0
H140 H 0.7569 0.17406 0.49691 0.0
H141 H 0.74735 0.24945 0.51705 0.0
H142 H 0.60524 0.25228 0.57594 0.0
H143 H 0.50974 0.1788 0.60001 0.0
H144 H 0.73625 0.14746 0.59838 0.0
H145 H 0.63834 0.97164 0.60094 0.0
H146 H 0.49898 0.16351 0.49873 0.0
H147 H 0.39282 0.9878 0.50306 0.0
C148 C 0.68487 0.60749 0.8652 0.0
C149 C 0.72966 0.60061 0.8557 0.0
C150 C 0.71823 0.54978 0.86285 0.0
C151 C 0.66727 0.52851 0.87622 0.0
N152 N 0.64591 0.56273 0.87797 0.0
Co153 Co 0.57301 0.54778 0.89544 0.0
N154 N 0.57191 0.48687 0.91276 0.0
C155 C 0.60277 0.46193 0.90761 0.0
C156 C 0.59232 0.42014 0.92209 0.0
C157 C 0.55146 0.41777 0.93716 0.0
C158 C 0.53911 0.45844 0.931 0.0
N159 N 0.49965 0.53261 0.91274 0.0
C160 C 0.47283 0.50029 0.93093 0.0
C161 C 0.42172 0.50138 0.93747 0.0
C162 C 0.41533 0.53398 0.9225 0.0
C163 C 0.46293 0.55135 0.90779 0.0
N164 N 0.57473 0.60882 0.87807 0.0
C165 C 0.52925 0.61835 0.87664 0.0
C166 C 0.544 0.66417 0.86371 0.0
C167 C 0.60238 0.68467 0.85647 0.0
C168 C 0.61992 0.64991 0.86536 0.0
N169 N 0.52301 0.49604 0.87527 0.0
C170 C 0.4453 0.42538 0.84691 0.0
C171 C 0.49488 0.47587 0.83948 0.0
C172 C 0.53347 0.51027 0.85387 0.0
C173 C 0.43646 0.41048 0.86874 0.0
C174 C 0.47542 0.44631 0.88259 0.0
N175 N 0.62246 0.59974 0.91552 0.0
C176 C 0.64443 0.67657 0.93599 0.0
C177 C 0.69579 0.67813 0.94273 0.0
C178 C 0.70895 0.63873 0.93577 0.0
C179 C 0.67178 0.59997 0.92224 0.0
C180 C 0.60863 0.63732 0.92246 0.0
H181 H 0.68345 0.57069 0.91698 0.0
H182 H 0.56996 0.63788 0.91747 0.0
H183 H 0.57121 0.54882 0.84767 0.0
H184 H 0.46598 0.43392 0.89927 0.0
C185 C 0.64474 0.48173 0.8901 0.0
C186 C 0.6785 0.65527 0.86055 0.0
C187 C 0.48931 0.46243 0.94089 0.0
C188 C 0.4779 0.58959 0.8905 0.0
H189 H 0.76662 0.62923 0.8447 0.0
H190 H 0.74525 0.53152 0.8594 0.0
H191 H 0.61206 0.39446 0.92176 0.0
H192 H 0.53133 0.38797 0.95068 0.0
H193 H 0.39118 0.47946 0.95128 0.0
H194 H 0.3805 0.54425 0.92249 0.0
H195 H 0.51654 0.682 0.86067 0.0
H196 H 0.62895 0.72111 0.84593 0.0
H197 H 0.50384 0.4887 0.82267 0.0
H198 H 0.39854 0.37204 0.87522 0.0
H199 H 0.63162 0.70536 0.94118 0.0
H200 H 0.74839 0.63845 0.94033 0.0
H201 H 0.04033 0.13446 0.12036 0.0
H202 H 1.00257 0.21399 0.06859 0.0
H203 H 0.04961 0.20544 0.14334 0.0
H204 H 0.01258 0.28483 0.09141 0.0
H205 H 0.10802 0.43482 0.1307 0.0
H206 H 0.09854 0.36151 0.10912 0.0
H207 H 0.98464 0.24149 0.15967 0.0
H208 H 0.99385 0.31472 0.18118 0.0
C209 C 0.03343 0.16668 0.11394 0.0
C210 C 0.02054 0.16837 0.09264 0.0
C211 C 0.03881 0.20734 0.12709 0.0
C212 C 0.03246 0.25105 0.11911 0.0
C213 C 0.01856 0.25213 0.09794 0.0
C214 C 0.01226 0.21116 0.08493 0.0
C215 C 0.08147 0.39282 0.13726 0.0
C216 C 0.0515 0.38054 0.15759 0.0
C217 C 0.07563 0.35083 0.12486 0.0
C218 C 0.04054 0.29568 0.13265 0.0
C219 C 0.0121 0.28352 0.15325 0.0
C220 C 0.01713 0.32543 0.1655 0.0
H221 H 0.87445 0.97275 0.4275 0.0
H222 H 0.93888 0.1429 0.40929 0.0
H223 H 0.79945 0.97154 0.45291 0.0
H224 H 0.86413 0.14147 0.43444 0.0
H225 H 0.68428 0.10216 0.46794 0.0
H226 H 0.75236 0.09829 0.44077 0.0
H227 H 0.80383 0.01718 0.48738 0.0
H228 H 0.73635 0.02196 0.51452 0.0
C229 C 0.87212 0.0096 0.42871 0.0
C230 C 0.91274 0.05794 0.41643 0.0
C231 C 0.82952 0.00903 0.44335 0.0
C232 C 0.82607 0.05649 0.4457 0.0
C233 C 0.86538 0.10418 0.43289 0.0
C234 C 0.9084 0.105 0.41855 0.0
C235 C 0.71052 0.08385 0.4723 0.0
C236 C 0.70561 0.06268 0.49325 0.0
C237 C 0.74929 0.08151 0.45681 0.0
C238 C 0.78324 0.05722 0.46194 0.0
C239 C 0.77772 0.03552 0.4829 0.0
C240 C 0.73956 0.03856 0.49843 0.0
H241 H 0.92108 0.82767 0.74997 0.0
H242 H 0.97015 0.95546 0.79293 0.0
H243 H 0.84703 0.76165 0.77691 0.0
H244 H 0.89504 0.88908 0.81995 0.0
H245 H 0.788 0.73772 0.86917 0.0
H246 H 0.86732 0.807 0.8438 0.0
H247 H 0.75103 0.74202 0.79297 0.0
H248 H 0.67285 0.6727 0.81831 0.0
C249 C 0.9164 0.84169 0.76523 0.0
C250 C 0.95151 0.89702 0.76922 0.0
C251 C 0.87347 0.80382 0.78065 0.0
C252 C 0.86435 0.82012 0.80052 0.0
C253 C 0.90097 0.87508 0.80485 0.0
C254 C 0.944 0.91314 0.78935 0.0
C255 C 0.77954 0.73905 0.85259 0.0
C256 C 0.72432 0.70071 0.84565 0.0
C257 C 0.82476 0.77858 0.83808 0.0
C258 C 0.81574 0.77996 0.8163 0.0
C259 C 0.7599 0.74174 0.80954 0.0
C260 C 0.71484 0.70247 0.82403 0.0
H261 H 0.1498 0.89974 0.07427 0.0
H262 H 0.05475 0.94013 0.12118 0.0
H263 H 0.13524 0.82338 0.09794 0.0
H264 H 0.03974 0.86302 0.1449 0.0
H265 H 0.07985 0.74974 0.18856 0.0
H266 H 0.09321 0.82877 0.16634 0.0
H267 H 0.05214 0.73365 0.11151 0.0
H268 H 0.0395 0.65519 0.13383 0.0
C269 C 0.12619 0.89267 0.08972 0.0
C270 C 0.10339 0.92617 0.09578 0.0
C271 C 0.11733 0.84844 0.10323 0.0
C272 C 0.08559 0.8365 0.12322 0.0
C273 C 0.06452 0.87111 0.12963 0.0
C274 C 0.07314 0.91533 0.11604 0.0
C275 C 0.07291 0.74585 0.17179 0.0
C276 C 0.05821 0.6966 0.16283 0.0
C277 C 0.0805 0.79092 0.15908 0.0
C278 C 0.07416 0.78774 0.1371 0.0
C279 C 0.05822 0.73781 0.1283 0.0
C280 C 0.05035 0.69272 0.14105 0.0
H281 H 0.15747 0.99766 0.41538 0.0
H282 H 0.25016 0.17421 0.41204 0.0
H283 H 0.22929 0.99776 0.43849 0.0
H284 H 0.32232 0.1741 0.43562 0.0
H285 H 0.46977 0.1467 0.46304 0.0
H286 H 0.40289 0.15134 0.43821 0.0
H287 H 0.25208 0.01785 0.47514 0.0
H288 H 0.31846 0.01346 0.49998 0.0
C289 C 0.19329 0.03666 0.41952 0.0
C290 C 0.19761 0.08598 0.41193 0.0
C291 C 0.23437 0.03662 0.43292 0.0
C292 C 0.28108 0.08585 0.43918 0.0
C293 C 0.28689 0.13544 0.43105 0.0
C294 C 0.24549 0.1355 0.41758 0.0
C295 C 0.42228 0.11865 0.46598 0.0
C296 C 0.39963 0.07941 0.48348 0.0
C297 C 0.38398 0.12135 0.45172 0.0
C298 C 0.32218 0.08472 0.45458 0.0
C299 C 0.29957 0.04598 0.47221 0.0
C300 C 0.33771 0.04337 0.48645 0.0
H301 H 0.23838 0.28148 0.73886 0.0
H302 H 0.1567 0.15129 0.7889 0.0
H303 H 0.30758 0.3417 0.76306 0.0
H304 H 0.22455 0.21242 0.81355 0.0
H305 H 0.39745 0.31506 0.84529 0.0
H306 H 0.32496 0.25498 0.82164 0.0
H307 H 0.32048 0.39323 0.79232 0.0
H308 H 0.39462 0.45328 0.81549 0.0
C309 C 0.23447 0.26593 0.75517 0.0
C310 C 0.19195 0.21144 0.76191 0.0
C311 C 0.27415 0.3007 0.76915 0.0
C312 C 0.27214 0.28219 0.79037 0.0
C313 C 0.2284 0.22799 0.79725 0.0
C314 C 0.18899 0.19299 0.78317 0.0
C315 C 0.38091 0.33249 0.83376 0.0
C316 C 0.402 0.38894 0.83217 0.0
C317 C 0.33894 0.29799 0.82027 0.0
C318 C 0.31637 0.31894 0.80499 0.0
C319 C 0.33741 0.37552 0.80355 0.0
C320 C 0.37994 0.41009 0.81686 0.0
H321 H 0.89103 0.97256 0.68766 0.0
H322 H 0.98011 0.14882 0.6854 0.0
H323 H 0.81728 0.97116 0.66505 0.0
H324 H 0.90687 0.14746 0.66227 0.0
H325 H 0.73491 0.12209 0.63577 0.0
H326 H 0.80368 0.12227 0.66076 0.0
H327 H 0.81085 0.99403 0.62864 0.0
H328 H 0.74178 0.99362 0.6038 0.0
C329 C 0.89491 0.0111 0.68237 0.0
C330 C 0.94177 0.06086 0.68832 0.0
C331 C 0.85273 0.01028 0.66925 0.0
C332 C 0.85629 0.05919 0.66164 0.0
C333 C 0.90236 0.10894 0.66798 0.0
C334 C 0.94455 0.10976 0.68119 0.0
C335 C 0.75133 0.09404 0.63401 0.0
C336 C 0.73284 0.05786 0.61775 0.0
C337 C 0.79086 0.09421 0.64833 0.0
C338 C 0.813 0.05824 0.64674 0.0
C339 C 0.79401 0.0217 0.63059 0.0
C340 C 0.75436 0.02144 0.61632 0.0
H341 H 0.98963 0.89064 0.01556 0.0
H342 H 0.87364 0.95827 0.02056 0.0
H343 H 0.91904 0.81928 0.99488 0.0
H344 H 0.80212 0.88579 0.99995 0.0
H345 H 0.75479 0.66742 0.97589 0.0
H346 H 0.82085 0.73784 0.99818 0.0
H347 H 0.79274 0.85649 0.9636 0.0
H348 H 0.72706 0.78627 0.94119 0.0
C349 C 0.94887 0.89021 0.01235 0.0
C350 C 0.93753 0.93048 0.01974 0.0
C351 C 0.90808 0.84888 1.00058 0.0
C352 C 0.85471 0.84654 0.99577 0.0
C353 C 0.84306 0.88663 1.0032 0.0
C354 C 0.88391 0.92803 0.01512 0.0
C355 C 0.76298 0.70858 0.97291 0.0
C356 C 0.73553 0.72098 0.95665 0.0
C357 C 0.80082 0.749 0.98574 0.0
C358 C 0.81225 0.80296 0.9827 0.0
C359 C 0.78429 0.81525 0.96662 0.0
C360 C 0.74656 0.77486 0.95375 0.0
H361 H 0.0385 0.96682 0.31178 0.0
H362 H 0.0069 0.85355 0.36545 0.0
H363 H 0.04919 0.90572 0.28797 0.0
H364 H 0.01815 0.7932 0.34176 0.0
H365 H 0.11131 0.73221 0.29611 0.0
H366 H 0.10243 0.79655 0.31851 0.0
H367 H 0.98584 0.81003 0.27537 0.0
H368 H 0.99464 0.7457 0.25302 0.0
C369 C 0.03339 0.9288 0.31848 0.0
C370 C 0.02168 0.91509 0.34053 0.0
C371 C 0.03953 0.89383 0.30485 0.0
C372 C 0.03508 0.84487 0.31301 0.0
C373 C 0.02267 0.83096 0.33501 0.0
C374 C 0.01567 0.8654 0.34856 0.0
C375 C 0.08433 0.74938 0.29131 0.0
C376 C 0.05347 0.73369 0.27286 0.0
C377 C 0.07884 0.78586 0.30421 0.0
C378 C 0.04313 0.80813 0.29877 0.0
C379 C 0.01382 0.79376 0.27995 0.0
C380 C 0.01858 0.75667 0.26724 0.0
H381 H 0.24494 0.14335 0.67139 0.0
H382 H 0.18878 0.97588 0.69161 0.0
H383 H 0.32063 0.14662 0.64629 0.0
H384 H 0.26521 0.97945 0.66631 0.0
H385 H 0.45155 0.03097 0.63268 0.0
H386 H 0.37813 0.02783 0.65946 0.0
H387 H 0.32038 0.10295 0.61262 0.0
H388 H 0.39329 0.10536 0.58595 0.0
C389 C 0.24886 0.10722 0.67059 0.0
C390 C 0.21049 0.05923 0.68354 0.0
C391 C 0.29213 0.10909 0.65608 0.0
C392 C 0.29869 0.06324 0.65422 0.0
C393 C 0.2614 0.01556 0.66747 0.0
C394 C 0.21749 0.01345 0.6819 0.0
C395 C 0.42308 0.04683 0.62825 0.0
C396 C 0.42784 0.06848 0.60737 0.0
C397 C 0.38097 0.04479 0.64347 0.0
C398 C 0.34346 0.0651 0.63815 0.0
C399 C 0.34901 0.08745 0.61727 0.0
C400 C 0.39058 0.08886 0.60201 0.0
H401 H 0.28311 0.17016 0.02929 0.0
H402 H 0.15599 0.20845 1.00379 0.0
H403 H 0.36427 0.24979 0.00813 0.0
H404 H 0.23632 0.28709 0.98295 0.0
H405 H 0.38302 0.3815 0.92991 0.0
H406 H 0.30655 0.30188 0.95196 0.0
H407 H 0.41563 0.35467 1.00518 0.0
H408 H 0.49248 0.43504 0.98285 0.0
C409 C 0.27243 0.19536 0.0192 0.0
C410 C 0.21293 0.18268 0.01821 0.0
C411 C 0.31891 0.24112 0.00721 0.0
C412 C 0.30664 0.27457 0.9938 0.0
C413 C 0.24723 0.26182 0.99291 0.0
C414 C 0.20113 0.21671 1.00497 0.0
C415 C 0.39035 0.37623 0.94637 0.0
C416 C 0.44298 0.41467 0.95485 0.0
C417 C 0.34669 0.3307 0.95899 0.0
C418 C 0.35484 0.32214 0.98036 0.0
C419 C 0.40821 0.36006 0.98875 0.0
C420 C 0.45186 0.40612 0.9761 0.0
H421 H 0.05649 0.18011 0.31097 0.0
H422 H 0.13343 0.30406 0.35568 0.0
H423 H 0.04411 0.24351 0.28726 0.0
H424 H 0.12197 0.36739 0.33194 0.0
H425 H 0.08569 0.394 0.24185 0.0
H426 H 0.09783 0.32808 0.26424 0.0
H427 H 0.042 0.37943 0.3199 0.0
H428 H 0.03117 0.44586 0.29738 0.0
C429 C 0.0716 0.22109 0.3156 0.0
C430 C 0.09582 0.23687 0.33527 0.0
C431 C 0.0645 0.25748 0.302 0.0
C432 C 0.0813 0.31042 0.30779 0.0
C433 C 0.10728 0.32661 0.32715 0.0
C434 C 0.11443 0.29037 0.3407 0.0
C435 C 0.0754 0.39046 0.25886 0.0
C436 C 0.05709 0.42444 0.26797 0.0
C437 C 0.08224 0.35276 0.27169 0.0
C438 C 0.07129 0.34859 0.29392 0.0
C439 C 0.05176 0.38209 0.30289 0.0
C440 C 0.04486 0.41968 0.29005 0.0
loop_
_geom_bond_atom_site_label_1
_geom_bond_atom_site_label_2
_geom_bond_distance
_geom_bond_site_symmetry_2
_ccdc_geom_bond_type
O0 Cd1 2.223 . S
O0 C8 1.315 . S
Cd1 O0 2.223 . S
Cd1 O4 2.297 . S
Cd1 O5 2.439 . S
Cd1 O11 2.265 . S
Cd2 O3 2.240 . S
Cd2 O10 2.223 1_545 S
Cd2 O12 2.297 1_545 S
Cd2 O13 2.439 1_545 S
O3 Cd2 2.240 . S
O3 C8 1.279 . S
O4 Cd1 2.297 . S
O4 C6 1.247 . S
O5 Cd1 2.439 . S
O5 C6 1.208 . S
C6 O4 1.247 . S
C6 O5 1.208 . S
C7 O12 1.247 . S
C7 O13 1.208 . S
C8 O0 1.315 . S
C8 O3 1.279 . S
C9 O10 1.315 . S
C9 O11 1.266 1_565 S
O10 Cd2 2.223 1_565 S
O10 C9 1.315 . S
O11 Cd1 2.265 . S
O11 C9 1.266 1_545 S
O12 Cd2 2.297 1_565 S
O12 C7 1.247 . S
O13 Cd2 2.439 1_565 S
O13 C7 1.208 . S
O14 Cd15 2.223 . S
O14 C22 1.315 1_455 S
Cd15 O14 2.223 . S
Cd15 O18 2.297 . S
Cd15 O19 2.439 . S
Cd15 O25 2.240 . S
Cd16 O17 2.240 1_565 S
Cd16 O24 2.223 1_665 S
Cd16 O26 2.297 1_655 S
Cd16 O27 2.439 1_665 S
O17 Cd16 2.240 1_545 S
O17 C22 1.279 . S
O18 Cd15 2.297 . S
O18 C20 1.247 . S
O19 Cd15 2.439 . S
O19 C20 1.208 . S
C20 O18 1.247 . S
C20 O19 1.208 . S
C21 O26 1.247 . S
C21 O27 1.208 1_565 S
C22 O14 1.315 1_655 S
C22 O17 1.279 . S
C23 O24 1.315 . S
C23 O25 1.279 . S
O24 Cd16 2.223 1_445 S
O24 C23 1.315 . S
O25 Cd15 2.240 . S
O25 C23 1.279 . S
O26 Cd16 2.297 1_455 S
O26 C21 1.247 . S
O27 Cd16 2.439 1_445 S
O27 C21 1.208 1_545 S
O28 Cd29 2.223 1_655 S
O28 C36 1.315 1_565 S
Cd29 O28 2.223 1_455 S
Cd29 O32 2.297 1_455 S
Cd29 O33 2.439 1_455 S
Cd29 O39 2.240 1_565 S
Cd30 O31 2.240 . S
Cd30 O38 2.223 . S
Cd30 O40 2.297 . S
Cd30 O41 2.439 . S
O31 Cd30 2.240 . S
O31 C36 1.279 1_455 S
O32 Cd29 2.297 1_655 S
O32 C34 1.247 . S
O33 Cd29 2.439 1_655 S
O33 C34 1.208 . S
C34 O32 1.247 . S
C34 O33 1.208 . S
C35 O40 1.247 . S
C35 O41 1.208 . S
C36 O28 1.315 1_545 S
C36 O31 1.279 1_655 S
C37 O38 1.315 . S
C37 O39 1.279 . S
O38 Cd30 2.223 . S
O38 C37 1.315 . S
O39 Cd29 2.240 1_545 S
O39 C37 1.279 . S
O40 Cd30 2.297 . S
O40 C35 1.247 . S
O41 Cd30 2.439 . S
O41 C35 1.208 . S
C42 C43 1.443 . S
C42 N46 1.376 . S
C42 C80 1.389 . S
C43 C42 1.443 . S
C43 C44 1.340 . S
C43 H83 0.951 . S
C44 C43 1.340 . S
C44 C45 1.439 . S
C44 H84 0.950 . S
C45 C44 1.439 . S
C45 N46 1.374 . S
C45 C79 1.395 . S
N46 C42 1.376 . S
N46 C45 1.374 . S
N46 Co47 2.008 . S
Co47 N46 2.008 . S
Co47 N48 1.995 . S
Co47 N53 2.008 1_455 S
Co47 N58 1.995 1_455 S
Co47 N63 2.282 . S
Co47 N69 2.282 . S
N48 Co47 1.995 . S
N48 C49 1.376 . S
N48 C52 1.383 . S
C49 N48 1.376 . S
C49 C50 1.446 . S
C49 C79 1.391 . S
C50 C49 1.446 . S
C50 C51 1.339 . S
C50 H85 0.949 . S
C51 C50 1.339 . S
C51 C52 1.439 . S
C51 H86 0.950 . S
C52 N48 1.383 . S
C52 C51 1.439 . S
C52 C81 1.392 . S
N53 Co47 2.008 1_655 S
N53 C54 1.376 . S
N53 C57 1.374 . S
C54 N53 1.376 . S
C54 C55 1.443 . S
C54 C81 1.389 1_655 S
C55 C54 1.443 . S
C55 C56 1.340 . S
C55 H87 0.951 . S
C56 C55 1.340 . S
C56 C57 1.439 . S
C56 H88 0.950 . S
C57 N53 1.374 . S
C57 C56 1.439 . S
C57 C82 1.395 . S
N58 Co47 1.995 1_655 S
N58 C59 1.376 . S
N58 C62 1.383 . S
C59 N58 1.376 . S
C59 C60 1.446 . S
C59 C82 1.391 . S
C60 C59 1.446 . S
C60 C61 1.339 . S
C60 H89 0.949 . S
C61 C60 1.339 . S
C61 C62 1.439 . S
C61 H90 0.950 . S
C62 N58 1.383 . S
C62 C61 1.439 . S
C62 C80 1.392 1_655 S
N63 Co47 2.282 . S
N63 C66 1.332 . S
N63 C68 1.332 . S
C64 C65 1.386 . S
C64 C67 1.388 . S
C65 C64 1.386 . S
C65 C66 1.382 . S
C65 H91 0.950 1_455 S
C66 N63 1.332 . S
C66 C65 1.382 . S
C66 H77 0.952 1_455 S
C67 C64 1.388 . S
C67 C68 1.382 . S
C67 H92 0.950 . S
C68 N63 1.332 . S
C68 C67 1.382 . S
C68 H78 0.948 . S
N69 Co47 2.282 . S
N69 C73 1.332 . S
N69 C74 1.332 1_455 S
C70 C71 1.388 1_655 S
C70 C74 1.382 . S
C70 H93 0.950 . S
C71 C70 1.388 1_455 S
C71 C72 1.386 . S
C72 C71 1.386 . S
C72 C73 1.382 . S
C72 H94 0.950 . S
C73 N69 1.332 . S
C73 C72 1.382 . S
C73 H75 0.952 . S
C74 N69 1.332 1_655 S
C74 C70 1.382 . S
C74 H76 0.948 . S
H75 C73 0.952 . S
H76 C74 0.948 . S
H77 C66 0.952 1_655 S
H78 C68 0.948 . S
C79 C45 1.395 . S
C79 C49 1.391 . S
C80 C42 1.389 . S
C80 C62 1.392 1_455 S
C81 C52 1.392 . S
C81 C54 1.389 1_455 S
C82 C57 1.395 . S
C82 C59 1.391 . S
H83 C43 0.951 . S
H84 C44 0.950 . S
H85 C50 0.949 . S
H86 C51 0.950 . S
H87 C55 0.951 . S
H88 C56 0.950 . S
H89 C60 0.949 . S
H90 C61 0.950 . S
H91 C65 0.950 1_655 S
H92 C67 0.950 . S
H93 C70 0.950 . S
H94 C72 0.950 . S
C95 C96 1.443 1_545 S
C95 N99 1.376 . S
C95 C133 1.389 . S
C96 C95 1.443 1_565 S
C96 C97 1.340 . S
C96 H136 0.951 . S
C97 C96 1.340 . S
C97 C98 1.439 . S
C97 H137 0.950 . S
C98 C97 1.439 . S
C98 N99 1.374 1_565 S
C98 C132 1.395 . S
N99 C95 1.376 . S
N99 C98 1.374 1_545 S
N99 Co100 2.008 . S
Co100 N99 2.008 . S
Co100 N101 1.995 . S
Co100 N106 2.008 . S
Co100 N111 1.995 . S
Co100 N116 2.282 . S
Co100 N122 2.282 . S
N101 Co100 1.995 . S
N101 C102 1.376 1_545 S
N101 C105 1.383 . S
C102 N101 1.376 1_565 S
C102 C103 1.446 . S
C102 C132 1.391 . S
C103 C102 1.446 . S
C103 C104 1.339 . S
C103 H138 0.949 . S
C104 C103 1.339 . S
C104 C105 1.439 1_565 S
C104 H139 0.950 . S
C105 N101 1.383 . S
C105 C104 1.439 1_545 S
C105 C134 1.392 . S
N106 Co100 2.008 . S
N106 C107 1.376 . S
N106 C110 1.374 . S
C107 N106 1.376 . S
C107 C108 1.443 . S
C107 C134 1.389 . S
C108 C107 1.443 . S
C108 C109 1.340 . S
C108 H140 0.951 . S
C109 C108 1.340 . S
C109 C110 1.439 . S
C109 H141 0.950 . S
C110 N106 1.374 . S
C110 C109 1.439 . S
C110 C135 1.395 . S
N111 Co100 1.995 . S
N111 C112 1.376 . S
N111 C115 1.383 . S
C112 N111 1.376 . S
C112 C113 1.446 . S
C112 C135 1.391 . S
C113 C112 1.446 . S
C113 C114 1.339 . S
C113 H142 0.949 . S
C114 C113 1.339 . S
C114 C115 1.439 . S
C114 H143 0.950 . S
C115 N111 1.383 . S
C115 C114 1.439 . S
C115 C133 1.392 . S
N116 Co100 2.282 . S
N116 C119 1.332 . S
N116 C121 1.332 . S
C117 C118 1.386 . S
C117 C120 1.388 . S
C118 C117 1.386 . S
C118 C119 1.382 . S
C118 H144 0.950 . S
C119 N116 1.332 . S
C119 C118 1.382 . S
C119 H130 0.952 . S
C120 C117 1.388 . S
C120 C121 1.382 . S
C120 H145 0.950 1_545 S
C121 N116 1.332 . S
C121 C120 1.382 . S
C121 H131 0.948 1_545 S
N122 Co100 2.282 . S
N122 C126 1.332 . S
N122 C127 1.332 . S
C123 C124 1.388 . S
C123 C127 1.382 . S
C123 H146 0.950 . S
C124 C123 1.388 . S
C124 C125 1.386 . S
C125 C124 1.386 . S
C125 C126 1.382 . S
C125 H147 0.950 1_545 S
C126 N122 1.332 . S
C126 C125 1.382 . S
C126 H128 0.952 1_545 S
C127 N122 1.332 . S
C127 C123 1.382 . S
C127 H129 0.948 . S
H128 C126 0.952 1_565 S
H129 C127 0.948 . S
H130 C119 0.952 . S
H131 C121 0.948 1_565 S
C132 C98 1.395 . S
C132 C102 1.391 . S
C133 C95 1.389 . S
C133 C115 1.392 . S
C134 C105 1.392 . S
C134 C107 1.389 . S
C135 C110 1.395 . S
C135 C112 1.391 . S
H136 C96 0.951 . S
H137 C97 0.950 . S
H138 C103 0.949 . S
H139 C104 0.950 . S
H140 C108 0.951 . S
H141 C109 0.950 . S
H142 C113 0.949 . S
H143 C114 0.950 . S
H144 C118 0.950 . S
H145 C120 0.950 1_565 S
H146 C123 0.950 . S
H147 C125 0.950 1_565 S
C148 C149 1.443 . S
C148 N152 1.376 . S
C148 C186 1.389 . S
C149 C148 1.443 . S
C149 C150 1.340 . S
C149 H189 0.951 . S
C150 C149 1.340 . S
C150 C151 1.439 . S
C150 H190 0.950 . S
C151 C150 1.439 . S
C151 N152 1.374 . S
C151 C185 1.395 . S
N152 C148 1.376 . S
N152 C151 1.374 . S
N152 Co153 2.008 . S
Co153 N152 2.008 . S
Co153 N154 1.995 . S
Co153 N159 2.008 . S
Co153 N164 1.995 . S
Co153 N169 2.282 . S
Co153 N175 2.282 . S
N154 Co153 1.995 . S
N154 C155 1.376 . S
N154 C158 1.383 . S
C155 N154 1.376 . S
C155 C156 1.446 . S
C155 C185 1.391 . S
C156 C155 1.446 . S
C156 C157 1.339 . S
C156 H191 0.949 . S
C157 C156 1.339 . S
C157 C158 1.439 . S
C157 H192 0.950 . S
C158 N154 1.383 . S
C158 C157 1.439 . S
C158 C187 1.392 . S
N159 Co153 2.008 . S
N159 C160 1.376 . S
N159 C163 1.374 . S
C160 N159 1.376 . S
C160 C161 1.443 . S
C160 C187 1.389 . S
C161 C160 1.443 . S
C161 C162 1.340 . S
C161 H193 0.951 . S
C162 C161 1.340 . S
C162 C163 1.439 . S
C162 H194 0.950 . S
C163 N159 1.374 . S
C163 C162 1.439 . S
C163 C188 1.395 . S
N164 Co153 1.995 . S
N164 C165 1.376 . S
N164 C168 1.383 . S
C165 N164 1.376 . S
C165 C166 1.446 . S
C165 C188 1.391 . S
C166 C165 1.446 . S
C166 C167 1.339 . S
C166 H195 0.949 . S
C167 C166 1.339 . S
C167 C168 1.439 . S
C167 H196 0.950 . S
C168 N164 1.383 . S
C168 C167 1.439 . S
C168 C186 1.392 . S
N169 Co153 2.282 . S
N169 C172 1.332 . S
N169 C174 1.332 . S
C170 C171 1.386 . S
C170 C173 1.388 . S
C171 C170 1.386 . S
C171 C172 1.382 . S
C171 H197 0.950 . S
C172 N169 1.332 . S
C172 C171 1.382 . S
C172 H183 0.952 . S
C173 C170 1.388 . S
C173 C174 1.382 . S
C173 H198 0.950 . S
C174 N169 1.332 . S
C174 C173 1.382 . S
C174 H184 0.948 . S
N175 Co153 2.282 . S
N175 C179 1.332 . S
N175 C180 1.332 . S
C176 C177 1.388 . S
C176 C180 1.382 . S
C176 H199 0.950 . S
C177 C176 1.388 . S
C177 C178 1.386 . S
C178 C177 1.386 . S
C178 C179 1.382 . S
C178 H200 0.950 . S
C179 N175 1.332 . S
C179 C178 1.382 . S
C179 H181 0.952 . S
C180 N175 1.332 . S
C180 C176 1.382 . S
C180 H182 0.948 . S
H181 C179 0.952 . S
H182 C180 0.948 . S
H183 C172 0.952 . S
H184 C174 0.948 . S
C185 C151 1.395 . S
C185 C155 1.391 . S
C186 C148 1.389 . S
C186 C168 1.392 . S
C187 C158 1.392 . S
C187 C160 1.389 . S
C188 C163 1.395 . S
C188 C165 1.391 . S
H189 C149 0.951 . S
H190 C150 0.950 . S
H191 C156 0.949 . S
H192 C157 0.950 . S
H193 C161 0.951 . S
H194 C162 0.950 . S
H195 C166 0.949 . S
H196 C167 0.950 . S
H197 C171 0.950 . S
H198 C173 0.950 . S
H199 C176 0.950 . S
H200 C178 0.950 . S
H201 C209 0.950 . S
H202 C214 0.950 . S
H203 C211 0.950 . S
H204 C213 0.950 . S
H205 C215 0.950 . S
H206 C217 0.950 . S
H207 C219 0.950 . S
H208 C220 0.950 . S
C209 H201 0.950 . S
C209 C210 1.386 . S
C209 C211 1.391 . S
C210 C209 1.386 . S
C210 C214 1.393 . S
C211 H203 0.950 . S
C211 C209 1.391 . S
C211 C212 1.400 . S
C212 C211 1.400 . S
C212 C213 1.398 . S
C212 C218 1.491 . S
C213 H204 0.950 . S
C213 C212 1.398 . S
C213 C214 1.391 . S
C214 H202 0.950 . S
C214 C210 1.393 . S
C214 C213 1.391 . S
C215 H205 0.950 . S
C215 C216 1.386 . S
C215 C217 1.391 . S
C216 C215 1.386 . S
C216 C220 1.393 . S
C217 H206 0.950 . S
C217 C215 1.391 . S
C217 C218 1.400 . S
C218 C212 1.491 . S
C218 C217 1.400 . S
C218 C219 1.398 . S
C219 H207 0.950 . S
C219 C218 1.398 . S
C219 C220 1.391 . S
C220 H208 0.950 . S
C220 C216 1.393 . S
C220 C219 1.391 . S
H221 C229 0.950 1_565 S
H222 C234 0.950 . S
H223 C231 0.950 1_565 S
H224 C233 0.950 . S
H225 C235 0.950 . S
H226 C237 0.950 . S
H227 C239 0.950 1_565 S
H228 C240 0.950 1_565 S
C229 H221 0.950 1_545 S
C229 C230 1.386 . S
C229 C231 1.391 . S
C230 C229 1.386 . S
C230 C234 1.393 . S
C231 H223 0.950 1_545 S
C231 C229 1.391 . S
C231 C232 1.400 . S
C232 C231 1.400 . S
C232 C233 1.398 . S
C232 C238 1.491 . S
C233 H224 0.950 . S
C233 C232 1.398 . S
C233 C234 1.391 . S
C234 H222 0.950 . S
C234 C230 1.393 . S
C234 C233 1.391 . S
C235 H225 0.950 . S
C235 C236 1.386 . S
C235 C237 1.391 . S
C236 C235 1.386 . S
C236 C240 1.393 . S
C237 H226 0.950 . S
C237 C235 1.391 . S
C237 C238 1.400 . S
C238 C232 1.491 . S
C238 C237 1.400 . S
C238 C239 1.398 . S
C239 H227 0.950 1_545 S
C239 C238 1.398 . S
C239 C240 1.391 . S
C240 H228 0.950 1_545 S
C240 C236 1.393 . S
C240 C239 1.391 . S
H241 C249 0.950 . S
H242 C254 0.950 . S
H243 C251 0.950 . S
H244 C253 0.950 . S
H245 C255 0.950 . S
H246 C257 0.950 . S
H247 C259 0.950 . S
H248 C260 0.950 . S
C249 H241 0.950 . S
C249 C250 1.386 . S
C249 C251 1.391 . S
C250 C249 1.386 . S
C250 C254 1.393 . S
C251 H243 0.950 . S
C251 C249 1.391 . S
C251 C252 1.400 . S
C252 C251 1.400 . S
C252 C253 1.398 . S
C252 C258 1.491 . S
C253 H244 0.950 . S
C253 C252 1.398 . S
C253 C254 1.391 . S
C254 H242 0.950 . S
C254 C250 1.393 . S
C254 C253 1.391 . S
C255 H245 0.950 . S
C255 C256 1.386 . S
C255 C257 1.391 . S
C256 C255 1.386 . S
C256 C260 1.393 . S
C257 H246 0.950 . S
C257 C255 1.391 . S
C257 C258 1.400 . S
C258 C252 1.491 . S
C258 C257 1.400 . S
C258 C259 1.398 . S
C259 H247 0.950 . S
C259 C258 1.398 . S
C259 C260 1.391 . S
C260 H248 0.950 . S
C260 C256 1.393 . S
C260 C259 1.391 . S
H261 C269 0.950 . S
H262 C274 0.950 . S
H263 C271 0.950 . S
H264 C273 0.950 . S
H265 C275 0.950 1_655 S
H266 C277 0.950 1_655 S
H267 C279 0.950 . S
H268 C280 0.950 . S
C269 H261 0.950 . S
C269 C270 1.386 . S
C269 C271 1.391 . S
C270 C269 1.386 . S
C270 C274 1.393 . S
C271 H263 0.950 . S
C271 C269 1.391 . S
C271 C272 1.400 . S
C272 C271 1.400 . S
C272 C273 1.398 . S
C272 C278 1.491 . S
C273 H264 0.950 . S
C273 C272 1.398 . S
C273 C274 1.391 . S
C274 H262 0.950 . S
C274 C270 1.393 . S
C274 C273 1.391 . S
C275 H265 0.950 1_455 S
C275 C276 1.386 . S
C275 C277 1.391 . S
C276 C275 1.386 . S
C276 C280 1.393 . S
C277 H266 0.950 1_455 S
C277 C275 1.391 . S
C277 C278 1.400 . S
C278 C272 1.491 . S
C278 C277 1.400 . S
C278 C279 1.398 . S
C279 H267 0.950 . S
C279 C278 1.398 . S
C279 C280 1.391 . S
C280 H268 0.950 . S
C280 C276 1.393 . S
C280 C279 1.391 . S
H281 C289 0.950 1_565 S
H282 C294 0.950 . S
H283 C291 0.950 1_565 S
H284 C293 0.950 . S
H285 C295 0.950 . S
H286 C297 0.950 . S
H287 C299 0.950 1_565 S
H288 C300 0.950 1_565 S
C289 H281 0.950 1_545 S
C289 C290 1.386 . S
C289 C291 1.391 . S
C290 C289 1.386 . S
C290 C294 1.393 . S
C291 H283 0.950 1_545 S
C291 C289 1.391 . S
C291 C292 1.400 . S
C292 C291 1.400 . S
C292 C293 1.398 . S
C292 C298 1.491 . S
C293 H284 0.950 . S
C293 C292 1.398 . S
C293 C294 1.391 . S
C294 H282 0.950 . S
C294 C290 1.393 . S
C294 C293 1.391 . S
C295 H285 0.950 . S
C295 C296 1.386 . S
C295 C297 1.391 . S
C296 C295 1.386 . S
C296 C300 1.393 . S
C297 H286 0.950 . S
C297 C295 1.391 . S
C297 C298 1.400 . S
C298 C292 1.491 . S
C298 C297 1.400 . S
C298 C299 1.398 . S
C299 H287 0.950 1_545 S
C299 C298 1.398 . S
C299 C300 1.391 . S
C300 H288 0.950 1_545 S
C300 C296 1.393 . S
C300 C299 1.391 . S
H301 C309 0.950 . S
H302 C314 0.950 . S
H303 C311 0.950 . S
H304 C313 0.950 . S
H305 C315 0.950 . S
H306 C317 0.950 . S
H307 C319 0.950 . S
H308 C320 0.950 . S
C309 H301 0.950 . S
C309 C310 1.386 . S
C309 C311 1.391 . S
C310 C309 1.386 . S
C310 C314 1.393 . S
C311 H303 0.950 . S
C311 C309 1.391 . S
C311 C312 1.400 . S
C312 C311 1.400 . S
C312 C313 1.398 . S
C312 C318 1.491 . S
C313 H304 0.950 . S
C313 C312 1.398 . S
C313 C314 1.391 . S
C314 H302 0.950 . S
C314 C310 1.393 . S
C314 C313 1.391 . S
C315 H305 0.950 . S
C315 C316 1.386 . S
C315 C317 1.391 . S
C316 C315 1.386 . S
C316 C320 1.393 . S
C317 H306 0.950 . S
C317 C315 1.391 . S
C317 C318 1.400 . S
C318 C312 1.491 . S
C318 C317 1.400 . S
C318 C319 1.398 . S
C319 H307 0.950 . S
C319 C318 1.398 . S
C319 C320 1.391 . S
C320 H308 0.950 . S
C320 C316 1.393 . S
C320 C319 1.391 . S
H321 C329 0.950 . S
H322 C334 0.950 . S
H323 C331 0.950 . S
H324 C333 0.950 . S
H325 C335 0.950 . S
H326 C337 0.950 . S
H327 C339 0.950 . S
H328 C340 0.950 . S
C329 H321 0.950 . S
C329 C330 1.386 . S
C329 C331 1.391 . S
C330 C329 1.386 . S
C330 C334 1.393 . S
C331 H323 0.950 . S
C331 C329 1.391 . S
C331 C332 1.400 . S
C332 C331 1.400 . S
C332 C333 1.398 . S
C332 C338 1.491 . S
C333 H324 0.950 . S
C333 C332 1.398 . S
C333 C334 1.391 . S
C334 H322 0.950 . S
C334 C330 1.393 . S
C334 C333 1.391 . S
C335 H325 0.950 . S
C335 C336 1.386 . S
C335 C337 1.391 . S
C336 C335 1.386 . S
C336 C340 1.393 . S
C337 H326 0.950 . S
C337 C335 1.391 . S
C337 C338 1.400 . S
C338 C332 1.491 . S
C338 C337 1.400 . S
C338 C339 1.398 . S
C339 H327 0.950 . S
C339 C338 1.398 . S
C339 C340 1.391 . S
C340 H328 0.950 . S
C340 C336 1.393 . S
C340 C339 1.391 . S
H341 C349 0.950 1_455 S
H342 C354 0.950 . S
H343 C351 0.950 . S
H344 C353 0.950 . S
H345 C355 0.950 . S
H346 C357 0.950 . S
H347 C359 0.950 . S
H348 C360 0.950 . S
C349 H341 0.950 1_655 S
C349 C350 1.386 1_556 S
C349 C351 1.391 . S
C350 C349 1.386 1_554 S
C350 C354 1.393 . S
C351 H343 0.950 . S
C351 C349 1.391 . S
C351 C352 1.400 . S
C352 C351 1.400 . S
C352 C353 1.398 1_556 S
C352 C358 1.491 . S
C353 H344 0.950 . S
C353 C352 1.398 1_554 S
C353 C354 1.391 . S
C354 H342 0.950 . S
C354 C350 1.393 . S
C354 C353 1.391 . S
C355 H345 0.950 . S
C355 C356 1.386 . S
C355 C357 1.391 . S
C356 C355 1.386 . S
C356 C360 1.393 . S
C357 H346 0.950 . S
C357 C355 1.391 . S
C357 C358 1.400 . S
C358 C352 1.491 . S
C358 C357 1.400 . S
C358 C359 1.398 . S
C359 H347 0.950 . S
C359 C358 1.398 . S
C359 C360 1.391 . S
C360 H348 0.950 . S
C360 C356 1.393 . S
C360 C359 1.391 . S
H361 C369 0.950 . S
H362 C374 0.950 . S
H363 C371 0.950 . S
H364 C373 0.950 . S
H365 C375 0.950 . S
H366 C377 0.950 . S
H367 C379 0.950 . S
H368 C380 0.950 . S
C369 H361 0.950 . S
C369 C370 1.386 . S
C369 C371 1.391 . S
C370 C369 1.386 . S
C370 C374 1.393 . S
C371 H363 0.950 . S
C371 C369 1.391 . S
C371 C372 1.400 . S
C372 C371 1.400 . S
C372 C373 1.398 . S
C372 C378 1.491 . S
C373 H364 0.950 . S
C373 C372 1.398 . S
C373 C374 1.391 . S
C374 H362 0.950 . S
C374 C370 1.393 . S
C374 C373 1.391 . S
C375 H365 0.950 . S
C375 C376 1.386 . S
C375 C377 1.391 . S
C376 C375 1.386 . S
C376 C380 1.393 . S
C377 H366 0.950 . S
C377 C375 1.391 . S
C377 C378 1.400 . S
C378 C372 1.491 . S
C378 C377 1.400 . S
C378 C379 1.398 . S
C379 H367 0.950 . S
C379 C378 1.398 . S
C379 C380 1.391 . S
C380 H368 0.950 . S
C380 C376 1.393 . S
C380 C379 1.391 . S
H381 C389 0.950 . S
H382 C394 0.950 1_565 S
H383 C391 0.950 . S
H384 C393 0.950 1_565 S
H385 C395 0.950 1_565 S
H386 C397 0.950 1_565 S
H387 C399 0.950 . S
H388 C400 0.950 . S
C389 H381 0.950 . S
C389 C390 1.386 . S
C389 C391 1.391 . S
C390 C389 1.386 . S
C390 C394 1.393 . S
C391 H383 0.950 . S
C391 C389 1.391 . S
C391 C392 1.400 . S
C392 C391 1.400 . S
C392 C393 1.398 . S
C392 C398 1.491 . S
C393 H384 0.950 1_545 S
C393 C392 1.398 . S
C393 C394 1.391 . S
C394 H382 0.950 1_545 S
C394 C390 1.393 . S
C394 C393 1.391 . S
C395 H385 0.950 1_545 S
C395 C396 1.386 . S
C395 C397 1.391 . S
C396 C395 1.386 . S
C396 C400 1.393 . S
C397 H386 0.950 1_545 S
C397 C395 1.391 . S
C397 C398 1.400 . S
C398 C392 1.491 . S
C398 C397 1.400 . S
C398 C399 1.398 . S
C399 H387 0.950 . S
C399 C398 1.398 . S
C399 C400 1.391 . S
C400 H388 0.950 . S
C400 C396 1.393 . S
C400 C399 1.391 . S
H401 C409 0.939 1_554 S
H402 C414 0.950 . S
H403 C411 0.950 . S
H404 C413 0.950 . S
H405 C415 0.950 . S
H406 C417 0.950 . S
H407 C419 0.950 . S
H408 C420 0.950 . S
C409 H401 0.939 1_556 S
C409 C410 1.387 1_556 S
C409 C411 1.402 . S
C410 C409 1.387 1_554 S
C410 C414 1.377 1_554 S
C411 H403 0.950 . S
C411 C409 1.402 . S
C411 C412 1.400 . S
C412 C411 1.400 . S
C412 C413 1.398 . S
C412 C418 1.491 . S
C413 H404 0.950 . S
C413 C412 1.398 . S
C413 C414 1.391 . S
C414 H402 0.950 . S
C414 C410 1.377 1_556 S
C414 C413 1.391 . S
C415 H405 0.950 . S
C415 C416 1.386 . S
C415 C417 1.391 . S
C416 C415 1.386 . S
C416 C420 1.393 . S
C417 H406 0.950 . S
C417 C415 1.391 . S
C417 C418 1.400 . S
C418 C412 1.491 . S
C418 C417 1.400 . S
C418 C419 1.398 . S
C419 H407 0.950 . S
C419 C418 1.398 . S
C419 C420 1.391 . S
C420 H408 0.950 . S
C420 C416 1.393 . S
C420 C419 1.391 . S
H421 C429 0.950 . S
H422 C434 0.950 . S
H423 C431 0.950 . S
H424 C433 0.950 . S
H425 C435 0.950 . S
H426 C437 0.950 . S
H427 C439 0.950 . S
H428 C440 0.950 . S
C429 H421 0.950 . S
C429 C430 1.386 1_655 S
C429 C431 1.391 . S
C430 C429 1.386 1_455 S
C430 C434 1.393 . S
C431 H423 0.950 . S
C431 C429 1.391 . S
C431 C432 1.400 1_655 S
C432 C431 1.400 1_455 S
C432 C433 1.398 . S
C432 C438 1.491 . S
C433 H424 0.950 . S
C433 C432 1.398 . S
C433 C434 1.391 . S
C434 H422 0.950 . S
C434 C430 1.393 . S
C434 C433 1.391 . S
C435 H425 0.950 . S
C435 C436 1.386 . S
C435 C437 1.391 . S
C436 C435 1.386 . S
C436 C440 1.393 1_455 S
C437 H426 0.950 . S
C437 C435 1.391 . S
C437 C438 1.400 . S
C438 C432 1.491 . S
C438 C437 1.400 . S
C438 C439 1.398 1_455 S
C439 H427 0.950 . S
C439 C438 1.398 1_655 S
C439 C440 1.391 . S
C440 H428 0.950 . S
C440 C436 1.393 1_655 S
C440 C439 1.391 . S
C216 C64 1.483 . S
C210 C6 1.470 . S
C230 C22 1.576 . S
C236 C134 1.595 . S
C250 C34 1.258 . S
C256 C186 1.272 . S
C270 C7 1.464 . S
C276 C80 1.483 . S
C296 C124 1.593 . S
C290 C23 1.568 . S
C310 C35 1.272 . S
C316 C170 1.280 . S
C336 C117 1.593 . S
C330 C36 1.568 . S
C350 C9 1.757 1_655 S
C356 C177 1.802 . S
C376 C71 1.481 . S
C370 C21 1.465 . S
C396 C133 1.599 . S
C390 C37 1.577 . S
C416 C187 1.831 . S
C410 C8 1.820 . S
C430 C20 1.448 . S
C436 C81 1.482 . S
