# Generated by pormake.
# Topology myd, (4,6)-cn, num edge types: 1
# Building blocks:
#     Node 0, Type 0, BuildingBlock: NAWXER_clean_sbu_0, # of connection points: 4
#     Node 1, Type 0, BuildingBlock: NAWXER_clean_sbu_0, # of connection points: 4
#     Node 2, Type 0, BuildingBlock: NAWXER_clean_sbu_0, # of connection points: 4
#     Node 3, Type 0, BuildingBlock: NAWXER_clean_sbu_0, # of connection points: 4
#     Node 4, Type 0, BuildingBlock: NAWXER_clean_sbu_0, # of connection points: 4
#     Node 5, Type 0, BuildingBlock: NAWXER_clean_sbu_0, # of connection points: 4
#     Node 6, Type 0, BuildingBlock: NAWXER_clean_sbu_0, # of connection points: 4
#     Node 7, Type 0, BuildingBlock: NAWXER_clean_sbu_0, # of connection points: 4
#     Node 8, Type 0, BuildingBlock: NAWXER_clean_sbu_0, # of connection points: 4
#     Node 9, Type 0, BuildingBlock: NAWXER_clean_sbu_0, # of connection points: 4
#     Node 10, Type 0, BuildingBlock: NAWXER_clean_sbu_0, # of connection points: 4
#     Node 11, Type 0, BuildingBlock: NAWXER_clean_sbu_0, # of connection points: 4
#     Node 12, Type 1, BuildingBlock: JUFBIX_clean_sbu_0, # of connection points: 6
#     Node 13, Type 1, BuildingBlock: JUFBIX_clean_sbu_0, # of connection points: 6
#     Node 14, Type 1, BuildingBlock: JUFBIX_clean_sbu_0, # of connection points: 6
#     Node 15, Type 1, BuildingBlock: JUFBIX_clean_sbu_0, # of connection points: 6
#     Node 16, Type 1, BuildingBlock: JUFBIX_clean_sbu_0, # of connection points: 6
#     Node 17, Type 1, BuildingBlock: JUFBIX_clean_sbu_0, # of connection points: 6
#     Node 18, Type 1, BuildingBlock: JUFBIX_clean_sbu_0, # of connection points: 6
#     Node 19, Type 1, BuildingBlock: JUFBIX_clean_sbu_0, # of connection points: 6
#     Edge 20, Type (0, 1), BuildingBlock: MIFKUJ_clean_linker_0, # of connection points: 2
#     Edge 21, Type (0, 1), BuildingBlock: MIFKUJ_clean_linker_0, # of connection points: 2
#     Edge 22, Type (0, 1), BuildingBlock: MIFKUJ_clean_linker_0, # of connection points: 2
#     Edge 23, Type (0, 1), BuildingBlock: MIFKUJ_clean_linker_0, # of connection points: 2
#     Edge 24, Type (0, 1), BuildingBlock: MIFKUJ_clean_linker_0, # of connection points: 2
#     Edge 25, Type (0, 1), BuildingBlock: MIFKUJ_clean_linker_0, # of connection points: 2
#     Edge 26, Type (0, 1), BuildingBlock: MIFKUJ_clean_linker_0, # of connection points: 2
#     Edge 27, Type (0, 1), BuildingBlock: MIFKUJ_clean_linker_0, # of connection points: 2
#     Edge 28, Type (0, 1), BuildingBlock: MIFKUJ_clean_linker_0, # of connection points: 2
#     Edge 29, Type (0, 1), BuildingBlock: MIFKUJ_clean_linker_0, # of connection points: 2
#     Edge 30, Type (0, 1), BuildingBlock: MIFKUJ_clean_linker_0, # of connection points: 2
#     Edge 31, Type (0, 1), BuildingBlock: MIFKUJ_clean_linker_0, # of connection points: 2
#     Edge 32, Type (0, 1), BuildingBlock: MIFKUJ_clean_linker_0, # of connection points: 2
#     Edge 33, Type (0, 1), BuildingBlock: MIFKUJ_clean_linker_0, # of connection points: 2
#     Edge 34, Type (0, 1), BuildingBlock: MIFKUJ_clean_linker_0, # of connection points: 2
#     Edge 35, Type (0, 1), BuildingBlock: MIFKUJ_clean_linker_0, # of connection points: 2
#     Edge 36, Type (0, 1), BuildingBlock: MIFKUJ_clean_linker_0, # of connection points: 2
#     Edge 37, Type (0, 1), BuildingBlock: MIFKUJ_clean_linker_0, # of connection points: 2
#     Edge 38, Type (0, 1), BuildingBlock: MIFKUJ_clean_linker_0, # of connection points: 2
#     Edge 39, Type (0, 1), BuildingBlock: MIFKUJ_clean_linker_0, # of connection points: 2
#     Edge 40, Type (0, 1), BuildingBlock: MIFKUJ_clean_linker_0, # of connection points: 2
#     Edge 41, Type (0, 1), BuildingBlock: MIFKUJ_clean_linker_0, # of connection points: 2
#     Edge 42, Type (0, 1), BuildingBlock: MIFKUJ_clean_linker_0, # of connection points: 2
#     Edge 43, Type (0, 1), BuildingBlock: MIFKUJ_clean_linker_0, # of connection points: 2
#     Edge 44, Type (0, 1), BuildingBlock: MIFKUJ_clean_linker_0, # of connection points: 2
#     Edge 45, Type (0, 1), BuildingBlock: MIFKUJ_clean_linker_0, # of connection points: 2
#     Edge 46, Type (0, 1), BuildingBlock: MIFKUJ_clean_linker_0, # of connection points: 2
#     Edge 47, Type (0, 1), BuildingBlock: MIFKUJ_clean_linker_0, # of connection points: 2
#     Edge 48, Type (0, 1), BuildingBlock: MIFKUJ_clean_linker_0, # of connection points: 2
#     Edge 49, Type (0, 1), BuildingBlock: MIFKUJ_clean_linker_0, # of connection points: 2
#     Edge 50, Type (0, 1), BuildingBlock: MIFKUJ_clean_linker_0, # of connection points: 2
#     Edge 51, Type (0, 1), BuildingBlock: MIFKUJ_clean_linker_0, # of connection points: 2
#     Edge 52, Type (0, 1), BuildingBlock: MIFKUJ_clean_linker_0, # of connection points: 2
#     Edge 53, Type (0, 1), BuildingBlock: MIFKUJ_clean_linker_0, # of connection points: 2
#     Edge 54, Type (0, 1), BuildingBlock: MIFKUJ_clean_linker_0, # of connection points: 2
#     Edge 55, Type (0, 1), BuildingBlock: MIFKUJ_clean_linker_0, # of connection points: 2
#     Edge 56, Type (0, 1), BuildingBlock: MIFKUJ_clean_linker_0, # of connection points: 2
#     Edge 57, Type (0, 1), BuildingBlock: MIFKUJ_clean_linker_0, # of connection points: 2
#     Edge 58, Type (0, 1), BuildingBlock: MIFKUJ_clean_linker_0, # of connection points: 2
#     Edge 59, Type (0, 1), BuildingBlock: MIFKUJ_clean_linker_0, # of connection points: 2
#     Edge 60, Type (0, 1), BuildingBlock: MIFKUJ_clean_linker_0, # of connection points: 2
#     Edge 61, Type (0, 1), BuildingBlock: MIFKUJ_clean_linker_0, # of connection points: 2
#     Edge 62, Type (0, 1), BuildingBlock: MIFKUJ_clean_linker_0, # of connection points: 2
#     Edge 63, Type (0, 1), BuildingBlock: MIFKUJ_clean_linker_0, # of connection points: 2
#     Edge 64, Type (0, 1), BuildingBlock: MIFKUJ_clean_linker_0, # of connection points: 2
#     Edge 65, Type (0, 1), BuildingBlock: MIFKUJ_clean_linker_0, # of connection points: 2
#     Edge 66, Type (0, 1), BuildingBlock: MIFKUJ_clean_linker_0, # of connection points: 2
#     Edge 67, Type (0, 1), BuildingBlock: MIFKUJ_clean_linker_0, # of connection points: 2
# Relax obj value: 0.256
# Max RMSD: 0.222
# Mean RMSD: 0.143
data_MOF--net-myd--node1-NAWXER_clean_sbu_0--node2-JUFBIX_clean_sbu_0--edge1-MIFKUJ_clean_linker_0
_symmetry_space_group_name_H-M    P1
_symmetry_Int_Tables_number       1
_symmetry_cell_setting            triclinic
loop_
_symmetry_equiv_pos_as_xyz
'x, y, z'
_cell_length_a     58.066776
_cell_length_b     60.732449
_cell_length_c     60.120739
_cell_angle_alpha  90.676191
_cell_angle_beta   87.940365
_cell_angle_gamma 91.604392
loop_
_atom_site_label
_atom_site_type_symbol
_atom_site_fract_x
_atom_site_fract_y
_atom_site_fract_z
_atom_type_partial_charge
C0 C 0.03164 0.20415 0.29143 0.0
C1 C 0.02387 0.26168 0.34925 0.0
O2 O 0.04798 0.21601 0.29921 0.0
Zn3 Zn 0.02939 0.23057 0.32259 0.0
O4 O 0.0113 0.20547 0.30025 0.0
Zn5 Zn 0.99331 0.22323 0.32612 0.0
O6 O 0.97104 0.23751 0.30806 0.0
O7 O 0.00724 0.24892 0.30213 0.0
O8 O 0.0049 0.25108 0.34569 0.0
O9 O 0.04256 0.25453 0.34056 0.0
O10 O 0.02098 0.20368 0.34462 0.0
O11 O 0.98314 0.19984 0.34624 0.0
C12 C 0.9858 0.25017 0.29805 0.0
C13 C 1.00269 0.19334 0.35184 0.0
C14 C 0.05376 0.7454 0.20345 0.0
C15 C 0.02804 0.69144 0.14823 0.0
O16 O 0.06643 0.73228 0.19219 0.0
Zn17 Zn 0.04141 0.71825 0.17606 0.0
O18 O 0.03185 0.74447 0.20153 0.0
Zn19 Zn 0.00657 0.72622 0.18325 0.0
O20 O 0.9891 0.71069 0.20668 0.0
O21 O 0.02443 0.69878 0.20184 0.0
O22 O 0.01123 0.70148 0.15787 0.0
O23 O 0.04857 0.69629 0.15351 0.0
O24 O 0.02897 0.74595 0.15777 0.0
O25 O 0.99249 0.75002 0.16816 0.0
C26 C 0.00463 0.69759 0.212 0.0
C27 C 0.01017 0.75649 0.15668 0.0
C28 C 0.34211 0.99161 0.20147 0.0
C29 C 0.2781 0.97828 0.25553 0.0
O30 O 0.33355 0.97322 0.20805 0.0
Zn31 Zn 0.31105 0.98413 0.22973 0.0
O32 O 0.33502 0.00946 0.21078 0.0
Zn33 Zn 0.30947 0.01864 0.23601 0.0
O34 O 0.32595 0.03117 0.26125 0.0
O35 O 0.33042 0.99538 0.25777 0.0
O36 O 0.28418 0.99859 0.25344 0.0
O37 O 0.28912 0.96365 0.24457 0.0
O38 O 0.28849 1.00172 0.20881 0.0
O39 O 0.28904 0.0367 0.21926 0.0
C40 C 0.33412 0.01349 0.2684 0.0
C41 C 0.28148 0.02139 0.20658 0.0
C42 C 0.7257 0.47199 0.2473 0.0
C43 C 0.67053 0.48276 0.31077 0.0
O44 O 0.71779 0.45706 0.26045 0.0
Zn45 Zn 0.69749 0.47599 0.27855 0.0
O46 O 0.71894 0.49179 0.25 0.0
Zn47 Zn 0.69592 0.51035 0.27116 0.0
O48 O 0.71717 0.53156 0.2844 0.0
O49 O 0.72212 0.49727 0.29468 0.0
O50 O 0.67557 0.50031 0.29979 0.0
O51 O 0.67873 0.46457 0.30395 0.0
O52 O 0.67312 0.48384 0.25428 0.0
O53 O 0.67379 0.51983 0.24998 0.0
C54 C 0.7279 0.51779 0.2957 0.0
C55 C 0.6659 0.50086 0.24454 0.0
C56 C 0.21589 0.37444 0.99418 0.0
C57 C 0.27391 0.31781 0.98521 0.0
O58 O 0.22379 0.36558 0.97636 0.0
Zn59 Zn 0.24701 0.3477 0.989 0.0
O60 O 0.22573 0.37085 0.01252 0.0
Zn61 Zn 0.25375 0.35119 0.02312 0.0
O62 O 0.27835 0.37126 0.03224 0.0
O63 O 0.27639 0.36884 0.99581 0.0
O64 O 0.27261 0.32595 0.00501 0.0
O65 O 0.26148 0.32548 0.97027 0.0
O66 O 0.22659 0.32682 0.01136 0.0
O67 O 0.23807 0.33308 0.04558 0.0
C68 C 0.28671 0.37611 0.01306 0.0
C69 C 0.22494 0.32277 0.03226 0.0
C70 C 0.22902 0.71976 0.48679 0.0
C71 C 0.28649 0.66243 0.49663 0.0
O72 O 0.24283 0.71205 0.47193 0.0
Zn73 Zn 0.25705 0.68999 0.49038 0.0
O74 O 0.22908 0.71206 0.50653 0.0
Zn75 Zn 0.24674 0.68815 0.52482 0.0
O76 O 0.26199 0.70685 0.54684 0.0
O77 O 0.2767 0.71025 0.51258 0.0
O78 O 0.27459 0.66703 0.51442 0.0
O79 O 0.28156 0.67138 0.47841 0.0
O80 O 0.22919 0.66689 0.49767 0.0
O81 O 0.22167 0.66802 0.53389 0.0
C82 C 0.2771 0.7152 0.53333 0.0
C83 C 0.2172 0.66022 0.51475 0.0
C84 C 0.7205 0.87023 0.51217 0.0
C85 C 0.7844 0.81986 0.50174 0.0
O86 O 0.72901 0.86212 0.49425 0.0
Zn87 Zn 0.75492 0.84712 0.50608 0.0
O88 O 0.73107 0.86777 0.53032 0.0
Zn89 Zn 0.76118 0.85096 0.54035 0.0
O90 O 0.78421 0.87291 0.54935 0.0
O91 O 0.78201 0.87062 0.51295 0.0
O92 O 0.78223 0.8273 0.52177 0.0
O93 O 0.77195 0.82731 0.48667 0.0
O94 O 0.73864 0.82298 0.52795 0.0
O95 O 0.74737 0.83124 0.56269 0.0
C96 C 0.79191 0.87853 0.53014 0.0
C97 C 0.73735 0.81862 0.54878 0.0
C98 C 0.47251 0.75042 0.80166 0.0
C99 C 0.49512 0.69166 0.8514 0.0
O100 O 0.45896 0.73622 0.8111 0.0
Zn101 Zn 0.4827 0.72216 0.82764 0.0
O102 O 0.49413 0.75038 0.80539 0.0
Zn103 Zn 0.51799 0.7325 0.82459 0.0
O104 O 0.53818 0.72092 0.801 0.0
O105 O 0.50222 0.70795 0.80008 0.0
O106 O 0.51223 0.70382 0.84447 0.0
O107 O 0.47486 0.69684 0.84654 0.0
O108 O 0.49202 0.74913 0.84943 0.0
O109 O 0.52927 0.75579 0.84432 0.0
C110 C 0.52291 0.70878 0.79189 0.0
C111 C 0.51015 0.7607 0.85382 0.0
C112 C 0.50091 0.20407 0.71326 0.0
C113 C 0.50971 0.26045 0.65557 0.0
O114 O 0.48595 0.21748 0.70725 0.0
Zn115 Zn 0.50403 0.23069 0.68278 0.0
O116 O 0.52048 0.20356 0.70269 0.0
Zn117 Zn 0.5382 0.22066 0.67559 0.0
O118 O 0.5643 0.23309 0.69116 0.0
O119 O 0.53074 0.24762 0.70062 0.0
O120 O 0.52785 0.24899 0.65709 0.0
O121 O 0.49153 0.25482 0.66674 0.0
O122 O 0.50657 0.20436 0.65883 0.0
O123 O 0.54346 0.19758 0.65372 0.0
C124 C 0.55264 0.24703 0.70242 0.0
C125 C 0.5226 0.19319 0.64927 0.0
C126 C 0.77494 0.52727 0.71478 0.0
C127 C 0.83449 0.51804 0.77026 0.0
O128 O 0.7843 0.54259 0.72629 0.0
Zn129 Zn 0.80632 0.52429 0.74102 0.0
O130 O 0.78219 0.50759 0.7161 0.0
Zn131 Zn 0.80755 0.48978 0.73316 0.0
O132 O 0.78786 0.46848 0.74943 0.0
O133 O 0.78329 0.50307 0.76015 0.0
O134 O 0.82927 0.50039 0.75944 0.0
O135 O 0.82592 0.53613 0.76459 0.0
O136 O 0.82943 0.51636 0.71381 0.0
O137 O 0.82842 0.48035 0.70896 0.0
C138 C 0.77788 0.48255 0.76207 0.0
C139 C 0.83617 0.49925 0.703 0.0
C140 C 0.22427 0.97394 0.7417 0.0
C141 C 0.16975 0.98422 0.80607 0.0
O142 O 0.21579 0.95872 0.75421 0.0
Zn143 Zn 0.19666 0.97767 0.77364 0.0
O144 O 0.21866 0.9939 0.7456 0.0
Zn145 Zn 0.1971 0.0125 0.76809 0.0
O146 O 0.21955 0.03162 0.78248 0.0
O147 O 0.2227 0.99645 0.79043 0.0
O148 O 0.17574 1.00203 0.79591 0.0
O149 O 0.17733 0.966 0.7986 0.0
O150 O 0.17258 0.98834 0.75016 0.0
O151 O 0.17605 0.02449 0.74736 0.0
C152 C 0.22968 0.01655 0.79257 0.0
C153 C 0.1667 0.00633 0.74126 0.0
C154 C 0.71935 0.16228 0.0212 0.0
C155 C 0.77695 0.21924 0.03983 0.0
O156 O 0.72527 0.1684 0.04051 0.0
Zn157 Zn 0.74959 0.18948 0.03152 0.0
O158 O 0.73054 0.16993 0.00407 0.0
Zn159 Zn 0.75842 0.19284 0.99691 0.0
O160 O 0.78413 0.17578 0.98447 0.0
O161 O 0.77804 0.16985 0.02028 0.0
O162 O 0.77594 0.21486 0.01899 0.0
O163 O 0.76452 0.20809 0.05375 0.0
O164 O 0.73094 0.21407 0.01413 0.0
O165 O 0.74301 0.21413 0.97888 0.0
C166 C 0.78982 0.16639 1.00218 0.0
C167 C 0.73003 0.2219 0.99444 0.0
Co168 Co 0.04002 0.04028 0.05916 0.0
C169 C 0.04071 0.07449 0.09032 0.0
Co170 Co 0.05626 0.07134 0.04646 0.0
C171 C 0.03339 0.9938 0.07259 0.0
C172 C 1.00387 0.01356 0.07881 0.0
N173 N 0.0256 0.01446 0.07015 0.0
N174 N 0.01729 0.98015 0.08251 0.0
C175 C 0.9987 0.99269 0.0862 0.0
H176 H 0.05068 0.98907 0.06767 0.0
H177 H 0.99249 0.02735 0.08001 0.0
C178 C 0.05732 0.03728 0.01516 0.0
N179 N 0.06986 0.09742 0.03603 0.0
C180 C 0.08138 0.11317 0.0476 0.0
C181 C 0.06835 0.10567 0.01544 0.0
N182 N 0.08687 0.13105 0.03512 0.0
C183 C 0.07881 0.12625 0.01481 0.0
C184 C 0.08679 0.04439 0.06734 0.0
O185 O 0.04739 0.02596 0.03071 0.0
O186 O 0.06215 0.05751 0.01875 0.0
O187 O 0.08521 0.06211 0.05646 0.0
O188 O 0.06897 0.03188 0.07025 0.0
O189 O 0.05066 0.08475 0.0743 0.0
H190 H 0.05965 0.0975 1.00191 0.0
H191 H 0.08489 0.11187 0.06508 0.0
O192 O 0.03341 0.05477 0.08732 0.0
O193 O 0.01099 0.04964 0.04822 0.0
O194 O 0.02712 0.08066 0.03672 0.0
C195 C 0.00916 0.06837 0.03927 0.0
H196 H 0.98232 0.98726 0.09368 0.0
H197 H 0.08018 0.13688 1.00048 0.0
Co198 Co 0.95306 0.43947 0.07599 0.0
C199 C 0.96021 0.48254 0.06179 0.0
Co200 Co 0.93707 0.4464 0.04406 0.0
C201 C 0.96864 0.41362 0.11214 0.0
C202 C 0.97056 0.44807 0.11974 0.0
N203 N 0.96623 0.43364 0.10307 0.0
N204 N 0.97347 0.41491 0.1339 0.0
C205 C 0.97507 0.43661 0.13868 0.0
H206 H 0.96564 0.39825 0.10333 0.0
H207 H 0.96875 0.4657 0.11877 0.0
C208 C 0.92956 0.40346 0.05862 0.0
N209 N 0.92231 0.45149 0.01737 0.0
C210 C 0.92822 0.46311 0.99875 0.0
C211 C 0.9015 0.44218 0.01312 0.0
N212 N 0.91196 0.46094 0.98318 0.0
C213 C 0.89524 0.44779 0.99223 0.0
C214 C 0.98215 0.43179 0.03937 0.0
O215 O 0.93997 0.41069 0.07544 0.0
O216 O 0.92746 0.4161 0.0422 0.0
O217 O 0.96594 0.43967 0.02827 0.0
O218 O 0.97941 0.42973 0.06032 0.0
O219 O 0.9468 0.47669 0.04634 0.0
H220 H 0.89151 0.4317 0.02448 0.0
H221 H 0.94425 0.47247 0.99646 0.0
O222 O 0.96573 0.46851 0.07606 0.0
O223 O 0.92671 0.44901 0.09175 0.0
O224 O 0.90862 0.45268 0.06074 0.0
C225 C 0.90838 0.45306 0.08195 0.0
H226 H 0.97742 0.44369 0.15508 0.0
H227 H 0.87956 0.44261 0.9842 0.0
Co228 Co 0.0715 0.9489 0.46191 0.0
C229 C 0.10246 0.94939 0.42558 0.0
Co230 Co 0.0579 0.93323 0.43159 0.0
C231 C 0.08263 0.95796 0.50844 0.0
C232 C 0.09189 0.98434 0.48624 0.0
N233 N 0.08261 0.96371 0.48676 0.0
N234 N 0.09121 0.97441 0.52134 0.0
C235 C 0.09702 0.99098 0.50741 0.0
H236 H 0.076 0.9423 0.5147 0.0
H237 H 0.09456 0.99407 0.47137 0.0
C238 C 0.02625 0.93217 0.46723 0.0
N239 N 0.04734 0.91899 0.40653 0.0
C240 C 0.05944 0.90517 0.39318 0.0
C241 C 0.02661 0.92016 0.3973 0.0
N242 N 0.04719 0.89765 0.3759 0.0
C243 C 0.02647 0.90706 0.37844 0.0
C244 C 0.08187 0.90486 0.45866 0.0
O245 O 0.04242 0.94195 0.4777 0.0
O246 O 0.02987 0.92677 0.44697 0.0
O247 O 0.07023 0.90629 0.44124 0.0
O248 O 0.08413 0.92178 0.47122 0.0
O249 O 0.08584 0.93957 0.41626 0.0
H250 H 0.01258 0.92995 0.40383 0.0
H251 H 0.07713 0.90106 0.39592 0.0
O252 O 0.10015 0.9556 0.44579 0.0
O253 O 0.05922 0.97585 0.45207 0.0
O254 O 0.04593 0.96046 0.42184 0.0
C255 C 0.04889 0.97757 0.43392 0.0
H256 H 0.1046 0.00674 0.51223 0.0
H257 H 0.01213 0.90453 0.3676 0.0
Co258 Co 0.95464 0.57675 0.45517 0.0
C259 C 0.99956 0.56269 0.46269 0.0
Co260 Co 0.96155 0.54212 0.44526 0.0
C261 C 0.93284 0.61817 0.46686 0.0
C262 C 0.96835 0.62221 0.45647 0.0
N263 N 0.95178 0.6067 0.46097 0.0
N264 N 0.93694 0.64014 0.46577 0.0
C265 C 0.95926 0.64273 0.45932 0.0
H266 H 0.91604 0.61061 0.47049 0.0
H267 H 0.98564 0.61883 0.45033 0.0
C268 C 0.91681 0.55672 0.43737 0.0
N269 N 0.96371 0.51176 0.43931 0.0
C270 C 0.97892 0.49894 0.42778 0.0
C271 C 0.94693 0.4975 0.44661 0.0
N272 N 0.97186 0.47742 0.42754 0.0
C273 C 0.95182 0.47664 0.43946 0.0
C274 C 0.94452 0.5497 0.48991 0.0
O275 O 0.92404 0.57488 0.4455 0.0
O276 O 0.93018 0.54049 0.43635 0.0
O277 O 0.95169 0.53545 0.47571 0.0
O278 O 0.9443 0.5698 0.48433 0.0
O279 O 0.99301 0.54442 0.454 0.0
H280 H 0.93174 0.50204 0.45636 0.0
H281 H 0.9944 0.50529 0.41927 0.0
O282 O 0.98544 0.57827 0.46472 0.0
O283 O 0.96456 0.58359 0.4259 0.0
O284 O 0.97098 0.5496 0.41499 0.0
C285 C 0.97019 0.57006 0.41054 0.0
H286 H 0.96817 0.65835 0.45623 0.0
H287 H 0.94135 0.46193 0.44277 0.0
Co288 Co 0.44722 0.93534 0.57824 0.0
C289 C 0.45394 0.9802 0.5669 0.0
Co290 Co 0.43818 0.94423 0.54392 0.0
C291 C 0.44417 0.91493 0.62152 0.0
C292 C 0.4704 0.94036 0.61951 0.0
N293 N 0.45383 0.93024 0.60768 0.0
N294 N 0.45422 0.91492 0.64144 0.0
C295 C 0.47067 0.93104 0.64022 0.0
H296 H 0.43059 0.90346 0.61673 0.0
H297 H 0.48194 0.95335 0.61331 0.0
C298 C 0.43048 0.89952 0.55605 0.0
N299 N 0.4322 0.9481 0.51354 0.0
C300 C 0.42217 0.96354 0.50113 0.0
C301 C 0.43957 0.93298 0.49847 0.0
N302 N 0.4234 0.95848 0.47899 0.0
C303 C 0.43421 0.93918 0.47757 0.0
C304 C 0.48454 0.93169 0.54947 0.0
O305 O 0.43937 0.90524 0.57424 0.0
O306 O 0.42883 0.91379 0.54093 0.0
O307 O 0.47009 0.93761 0.53538 0.0
O308 O 0.47791 0.92978 0.56969 0.0
O309 O 0.44709 0.97453 0.54769 0.0
H310 H 0.44854 0.91823 0.50239 0.0
H311 H 0.4146 0.9783 0.50807 0.0
O312 O 0.45484 0.96571 0.58193 0.0
O313 O 0.41651 0.9406 0.58682 0.0
O314 O 0.40671 0.95066 0.55341 0.0
C315 C 0.40132 0.94706 0.57389 0.0
H316 H 0.48231 0.93565 0.65324 0.0
H317 H 0.43787 0.92996 0.46239 0.0
Co318 Co 0.53804 0.5447 0.56059 0.0
C319 C 0.5343 0.58058 0.59042 0.0
Co320 Co 0.55252 0.57638 0.54795 0.0
C321 C 0.53102 0.49779 0.57158 0.0
C322 C 0.50352 0.51827 0.58299 0.0
N323 N 0.52413 0.51893 0.57196 0.0
N324 N 0.51537 0.48399 0.5819 0.0
C325 C 0.49814 0.497 0.58912 0.0
H326 H 0.54707 0.49265 0.56371 0.0
H327 H 0.49305 0.53244 0.58648 0.0
C328 C 0.5576 0.5409 0.51804 0.0
N329 N 0.56597 0.60211 0.53687 0.0
C330 C 0.5791 0.61715 0.54771 0.0
C331 C 0.56572 0.6093 0.51575 0.0
N332 N 0.58725 0.63328 0.53411 0.0
C333 C 0.57891 0.62841 0.51397 0.0
C334 C 0.58345 0.55172 0.57147 0.0
O335 O 0.54666 0.52973 0.53305 0.0
O336 O 0.56171 0.56127 0.52156 0.0
O337 O 0.5807 0.56944 0.56097 0.0
O338 O 0.5669 0.5375 0.5728 0.0
O339 O 0.54346 0.59132 0.57429 0.0
H340 H 0.55683 0.60097 0.50241 0.0
H341 H 0.58323 0.61589 0.56506 0.0
O342 O 0.53024 0.55999 0.58806 0.0
O343 O 0.50891 0.55265 0.54841 0.0
O344 O 0.52428 0.58343 0.53537 0.0
C345 C 0.50674 0.57065 0.53807 0.0
H346 H 0.48282 0.49169 0.59856 0.0
H347 H 0.58217 0.63796 0.49904 0.0
Co348 Co 0.56992 0.44866 0.96413 0.0
C349 C 0.60429 0.45015 0.93014 0.0
Co350 Co 0.56011 0.43352 0.9321 0.0
C351 C 0.57816 0.45772 0.01165 0.0
C352 C 0.58884 0.48375 0.98956 0.0
N353 N 0.57908 0.46334 0.98989 0.0
N354 N 0.58676 0.47405 0.02479 0.0
C355 C 0.5935 0.49035 0.01082 0.0
H356 H 0.57113 0.44214 0.01772 0.0
H357 H 0.59248 0.49328 0.9747 0.0
C358 C 0.52519 0.43153 0.96541 0.0
N359 N 0.55139 0.41972 0.90606 0.0
C360 C 0.5632 0.40471 0.89386 0.0
C361 C 0.5321 0.4229 0.89483 0.0
N362 N 0.5521 0.39849 0.8754 0.0
C363 C 0.53253 0.40992 0.8759 0.0
C364 C 0.58139 0.40485 0.96082 0.0
O365 O 0.54008 0.441 0.97768 0.0
O366 O 0.53083 0.4269 0.94531 0.0
O367 O 0.5715 0.40652 0.94239 0.0
O368 O 0.58224 0.42151 0.9739 0.0
O369 O 0.58918 0.44 0.91901 0.0
H370 H 0.51865 0.43402 0.90001 0.0
H371 H 0.57987 0.39883 0.89819 0.0
O372 O 0.59958 0.45602 0.95011 0.0
O373 O 0.55768 0.47565 0.9539 0.0
O374 O 0.54921 0.46085 0.92178 0.0
C375 C 0.54971 0.47759 0.93464 0.0
H376 H 0.60169 0.50585 0.01557 0.0
H377 H 0.5194 0.40883 0.86358 0.0
Co378 Co 0.45225 0.07693 0.95943 0.0
C379 C 0.49781 0.07117 0.96985 0.0
Co380 Co 0.46619 0.04555 0.94611 0.0
C381 C 0.42753 0.11803 0.96269 0.0
C382 C 0.44157 0.10855 0.99346 0.0
N383 N 0.43988 0.10224 0.97202 0.0
N384 N 0.42145 0.134 0.97751 0.0
C385 C 0.43027 0.1279 0.9969 0.0
H386 H 0.4233 0.11781 0.94531 0.0
H387 H 0.45037 0.09955 0.00588 0.0
C388 C 0.42101 0.05187 0.93511 0.0
N389 N 0.47951 0.02026 0.93351 0.0
C390 C 0.4735 0.9985 0.93411 0.0
C391 C 0.49962 0.0211 0.92158 0.0
N392 N 0.48927 0.98587 0.92311 0.0
C393 C 0.50556 1.00024 0.91517 0.0
C394 C 0.44581 0.04078 0.98804 0.0
O395 O 0.42392 0.06964 0.94621 0.0
O396 O 0.43733 0.03828 0.93331 0.0
O397 O 0.45667 0.02981 0.97298 0.0
O398 O 0.4425 0.06107 0.985 0.0
O399 O 0.49494 0.05329 0.95898 0.0
H400 H 0.50958 0.03602 0.91795 0.0
H401 H 0.4582 0.99204 0.94285 0.0
O402 O 0.48106 0.08412 0.97231 0.0
O403 O 0.46159 0.09257 0.93381 0.0
O404 O 0.47513 0.06204 0.91939 0.0
C405 C 0.47113 0.08248 0.91752 0.0
H406 H 0.42842 0.13652 0.01268 0.0
H407 H 0.52076 0.99606 0.90524 0.0
H408 H 0.97159 0.15874 0.35458 0.0
H409 H 0.97747 0.12224 0.36961 0.0
H410 H 0.04423 0.14398 0.39203 0.0
H411 H 0.03888 0.18015 0.37586 0.0
H412 H 0.04937 0.1069 0.3743 0.0
H413 H 0.99373 0.13268 0.42819 0.0
H414 H 0.95732 0.1486 0.44219 0.0
H415 H 0.91897 0.09505 0.41262 0.0
H416 H 0.95516 0.07895 0.3982 0.0
H417 H 0.06416 0.01778 0.44874 0.0
H418 H 0.05406 0.05412 0.43566 0.0
H419 H 0.00699 0.02384 0.38988 0.0
H420 H 0.01749 0.98717 0.40248 0.0
H421 H 0.99111 0.06399 0.41942 0.0
H422 H 0.04978 0.03902 0.36605 0.0
H423 H 0.08757 0.02341 0.35604 0.0
H424 H 0.12169 0.07718 0.38964 0.0
H425 H 0.08405 0.0929 0.40018 0.0
C426 C 0.98735 0.15586 0.36308 0.0
C427 C 0.00473 0.17242 0.36411 0.0
C428 C 0.9907 0.13492 0.37176 0.0
C429 C 0.01123 0.13018 0.38227 0.0
C430 C 0.02826 0.14701 0.38396 0.0
C431 C 0.02513 0.1678 0.37484 0.0
C432 C 0.01555 0.10747 0.39039 0.0
C433 C 0.03664 0.09776 0.3844 0.0
C434 C 0.99895 0.09508 0.40331 0.0
C435 C 0.97715 0.10473 0.41192 0.0
C436 C 0.97753 0.12439 0.42453 0.0
C437 C 0.95693 0.13343 0.43256 0.0
C438 C 0.93584 0.12288 0.42824 0.0
C439 C 0.93532 0.10323 0.41592 0.0
C440 C 0.95586 0.09412 0.40783 0.0
C441 C 0.05154 0.01878 0.43598 0.0
C442 C 0.04164 0.99954 0.42663 0.0
C443 C 0.04581 0.03959 0.42853 0.0
C444 C 0.02978 0.04167 0.41183 0.0
C445 C 0.01936 0.02257 0.40284 0.0
C446 C 0.02544 1.00166 0.40999 0.0
C447 C 0.02474 0.06383 0.4033 0.0
C448 C 1.00363 0.07332 0.40925 0.0
C449 C 0.04146 0.07622 0.39076 0.0
C450 C 0.0641 0.067 0.3841 0.0
C451 C 0.06533 0.04741 0.37147 0.0
C452 C 0.08672 0.03856 0.36567 0.0
C453 C 0.10702 0.04926 0.37226 0.0
C454 C 0.10596 0.06889 0.38458 0.0
C455 C 0.0846 0.07778 0.39046 0.0
H456 H 0.12356 0.04238 0.36777 0.0
H457 H 0.91992 0.12991 0.43448 0.0
H458 H 0.98567 0.28429 0.36232 0.0
H459 H 0.98357 0.32266 0.37431 0.0
H460 H 0.05772 0.32846 0.3727 0.0
H461 H 0.06009 0.28985 0.36016 0.0
H462 H 0.03346 0.34973 0.41146 0.0
H463 H 0.03522 0.34836 0.332 0.0
H464 H 0.02429 0.3375 0.29409 0.0
H465 H 0.95545 0.35907 0.30803 0.0
H466 H 0.96576 0.36956 0.34623 0.0
H467 H 0.01733 0.46723 0.42424 0.0
H468 H 0.03317 0.43233 0.4098 0.0
H469 H 0.96485 0.4102 0.39229 0.0
H470 H 0.94937 0.44476 0.40616 0.0
H471 H 0.99456 0.39921 0.36052 0.0
H472 H 0.99051 0.39449 0.44113 0.0
H473 H 1.00035 0.40613 0.47915 0.0
H474 H 0.07207 0.39635 0.46328 0.0
H475 H 0.06265 0.38491 0.42505 0.0
C476 C 1.00163 0.29349 0.36483 0.0
C477 C 0.02309 0.28385 0.36019 0.0
C478 C 1.00036 0.31554 0.3716 0.0
C479 C 0.02046 0.32854 0.37416 0.0
C480 C 0.04197 0.31875 0.37076 0.0
C481 C 0.04329 0.29666 0.36364 0.0
C482 C 0.01858 0.35251 0.37937 0.0
C483 C 0.02538 0.36069 0.40015 0.0
C484 C 0.0078 0.36679 0.36475 0.0
C485 C 1.00125 0.3596 0.34208 0.0
C486 C 0.01766 0.35048 0.32713 0.0
C487 C 0.01158 0.34444 0.30556 0.0
C488 C 0.98921 0.34765 0.29869 0.0
C489 C 0.97278 0.35663 0.31341 0.0
C490 C 0.97872 0.3626 0.33502 0.0
C491 C 0.0059 0.45502 0.41689 0.0
C492 C 0.9821 0.45864 0.41647 0.0
C493 C 0.01487 0.435 0.40886 0.0
C494 C 1.00016 0.41839 0.40021 0.0
C495 C 0.97661 0.42259 0.39891 0.0
C496 C 0.96773 0.44236 0.40694 0.0
C497 C 0.0086 0.3963 0.39295 0.0
C498 C 1.00302 0.38841 0.37171 0.0
C499 C 0.02027 0.38229 0.40724 0.0
C500 C 0.02592 0.38914 0.43018 0.0
C501 C 0.0084 0.395 0.4457 0.0
C502 C 0.01389 0.40153 0.46729 0.0
C503 C 0.03683 0.40206 0.4736 0.0
C504 C 0.05431 0.39599 0.45835 0.0
C505 C 0.04891 0.38948 0.43673 0.0
H506 H 0.04105 0.40711 0.49033 0.0
H507 H 0.98464 0.34332 0.28193 0.0
H508 H 0.04268 0.77239 0.12638 0.0
H509 H 0.04505 0.80896 0.10975 0.0
H510 H 0.98062 0.82524 0.14307 0.0
H511 H 0.97775 0.78844 0.15912 0.0
H512 H 0.98257 0.84266 0.10335 0.0
H513 H 0.03444 0.84078 0.1641 0.0
H514 H 0.06617 0.82475 0.18419 0.0
H515 H 0.1127 0.83762 0.12843 0.0
H516 H 0.08114 0.85341 0.10787 0.0
H517 H 0.99108 0.95769 0.11354 0.0
H518 H 0.99178 0.91873 0.12185 0.0
H519 H 0.04875 0.9108 0.07481 0.0
H520 H 0.04776 0.9501 0.06567 0.0
H521 H 0.0528 0.88847 0.11751 0.0
H522 H 0.99987 0.8937 0.05837 0.0
H523 H 0.96702 0.90886 0.03932 0.0
H524 H 0.92151 0.89009 0.09414 0.0
H525 H 0.95417 0.87511 0.11368 0.0
C526 C 0.02882 0.78363 0.1299 0.0
C527 C 0.01009 0.77749 0.14421 0.0
C528 C 0.03029 0.80463 0.12049 0.0
C529 C 0.0133 0.82014 0.12555 0.0
C530 C 0.99402 0.81366 0.13896 0.0
C531 C 0.9924 0.79256 0.14815 0.0
C532 C 0.01601 0.84336 0.11775 0.0
C533 C 0.99788 0.85267 0.1066 0.0
C534 C 0.03615 0.85645 0.12158 0.0
C535 C 0.05538 0.84803 0.13435 0.0
C536 C 0.05143 0.84013 0.15611 0.0
C537 C 0.06936 0.83104 0.16755 0.0
C538 C 0.09138 0.82999 0.15749 0.0
C539 C 0.09559 0.83833 0.13612 0.0
C540 C 0.0777 0.84737 0.12458 0.0
C541 C 1.00366 0.94781 0.10464 0.0
C542 C 0.01907 0.9572 0.08851 0.0
C543 C 1.00412 0.92544 0.1096 0.0
C544 C 0.0201 0.91177 0.09876 0.0
C545 C 0.0362 0.92107 0.08332 0.0
C546 C 0.03563 0.94357 0.07815 0.0
C547 C 0.01924 0.88772 0.10338 0.0
C548 C 0.03765 0.87832 0.11403 0.0
C549 C 0.99923 0.8746 0.09935 0.0
C550 C 0.97951 0.88343 0.08756 0.0
C551 C 0.98289 0.89295 0.06644 0.0
C552 C 0.9643 0.90149 0.05554 0.0
C553 C 0.9422 0.90047 0.06553 0.0
C554 C 0.93864 0.89087 0.08643 0.0
C555 C 0.95718 0.88233 0.09741 0.0
H556 H 0.92782 0.90709 0.05707 0.0
H557 H 0.10521 0.82282 0.1663 0.0
H558 H 0.98915 0.68403 0.12489 0.0
H559 H 0.97867 0.65111 0.10339 0.0
H560 H 0.04466 0.62367 0.1159 0.0
H561 H 0.05561 0.65702 0.13665 0.0
H562 H 0.03246 0.61161 0.07604 0.0
H563 H 0.99531 0.61102 0.14849 0.0
H564 H 0.97139 0.62542 0.17981 0.0
H565 H 0.91286 0.62617 0.13819 0.0
H566 H 0.93654 0.61207 0.1065 0.0
H567 H 0.99973 0.49696 0.08073 0.0
H568 H 0.01219 0.53508 0.08811 0.0
H569 H 0.95223 0.55825 0.05625 0.0
H570 H 0.9399 0.52 0.04825 0.0
H571 H 0.95983 0.57369 0.1022 0.0
H572 H 0.99873 0.56872 0.03073 0.0
H573 H 0.02424 0.5521 1.0019 0.0
H574 H 0.08141 0.55881 0.04504 0.0
H575 H 0.05615 0.57513 0.07431 0.0
C576 C 1.00158 0.67114 0.12274 0.0
C577 C 0.02311 0.673 0.13265 0.0
C578 C 0.99553 0.65227 0.11053 0.0
C579 C 0.01062 0.63462 0.1085 0.0
C580 C 0.03266 0.63699 0.11731 0.0
C581 C 0.0389 0.65607 0.1292 0.0
C582 C 1.00287 0.6132 0.09864 0.0
C583 C 0.01664 0.60328 0.08186 0.0
C584 C 0.98208 0.60235 0.10602 0.0
C585 C 0.96777 0.61074 0.12506 0.0
C586 C 0.97738 0.61441 0.14597 0.0
C587 C 0.96387 0.6225 0.1638 0.0
C588 C 0.94064 0.62677 0.16097 0.0
C589 C 0.93087 0.6229 0.14033 0.0
C590 C 0.94433 0.61486 0.12244 0.0
C591 C 0.98938 0.51018 0.07498 0.0
C592 C 0.96881 0.50556 0.06398 0.0
C593 C 0.99657 0.53193 0.07913 0.0
C594 C 0.98314 0.54942 0.07268 0.0
C595 C 0.96285 0.54491 0.06125 0.0
C596 C 0.95588 0.52312 0.05665 0.0
C597 C 0.98941 0.5722 0.0797 0.0
C598 C 0.97542 0.58225 0.09612 0.0
C599 C 0.01022 0.58285 0.07235 0.0
C600 C 0.02548 0.573 0.0548 0.0
C601 C 0.01669 0.56646 0.03417 0.0
C602 C 0.03112 0.55714 0.01772 0.0
C603 C 0.05443 0.55442 0.02163 0.0
C604 C 0.06335 0.56098 0.04202 0.0
C605 C 0.04898 0.57027 0.05854 0.0
H606 H 0.06558 0.54719 0.00888 0.0
H607 H 0.9302 0.63302 0.1748 0.0
H608 H 0.36821 0.02705 0.18642 0.0
H609 H 0.38947 0.03052 0.15067 0.0
H610 H 0.3726 0.96266 0.13503 0.0
H611 H 0.3515 0.95896 0.17086 0.0
H612 H 0.4263 0.00836 0.12804 0.0
H613 H 0.35452 0.96323 0.08036 0.0
H614 H 0.31289 0.95424 0.08489 0.0
H615 H 0.3038 0.0118 0.12611 0.0
H616 H 0.34526 0.0213 0.1215 0.0
H617 H 0.46106 0.00489 0.01084 0.0
H618 H 0.44635 0.99155 0.04745 0.0
H619 H 0.39435 0.0409 0.04862 0.0
H620 H 0.40895 0.05431 0.0127 0.0
H621 H 0.37668 1.00081 0.06271 0.0
H622 H 0.44132 0.05046 0.07612 0.0
H623 H 0.48192 0.06328 0.0721 0.0
H624 H 0.50378 1.00293 0.1001 0.0
H625 H 0.46328 0.98962 0.10399 0.0
C626 C 0.3694 0.01272 0.1756 0.0
C627 C 0.35802 0.99275 0.18151 0.0
C628 C 0.38166 0.01471 0.15518 0.0
C629 C 0.38251 0.99691 0.14008 0.0
C630 C 0.37212 0.97665 0.14638 0.0
C631 C 0.36009 0.97455 0.16691 0.0
C632 C 0.39219 1.00021 0.11703 0.0
C633 C 0.41554 0.00643 0.11373 0.0
C634 C 0.37809 0.99808 0.09834 0.0
C635 C 0.35304 0.99278 0.10082 0.0
C636 C 0.34361 0.97399 0.09032 0.0
C637 C 0.32005 0.96882 0.0929 0.0
C638 C 0.30573 0.98239 0.10586 0.0
C639 C 0.31492 1.00125 0.11615 0.0
C640 C 0.33845 0.00652 0.11357 0.0
C641 C 0.44633 0.01265 0.01885 0.0
C642 C 0.43626 0.03071 0.00893 0.0
C643 C 0.43801 0.00511 0.03977 0.0
C644 C 0.41926 0.01529 0.05084 0.0
C645 C 0.40875 0.03274 0.04046 0.0
C646 C 0.41723 0.04045 0.01991 0.0
C647 C 0.41089 0.00875 0.07362 0.0
C648 C 0.38766 1.00211 0.07692 0.0
C649 C 0.425 0.01092 0.0923 0.0
C650 C 0.44931 0.01893 0.09008 0.0
C651 C 0.4548 0.03984 0.08123 0.0
C652 C 0.47778 0.04722 0.07901 0.0
C653 C 0.49542 0.0339 0.08577 0.0
C654 C 0.4901 0.01321 0.09482 0.0
C655 C 0.46714 0.00574 0.09704 0.0
H656 H 0.51321 0.03964 0.08404 0.0
H657 H 0.28751 0.97833 0.10787 0.0
H658 H 0.64919 0.46203 0.22752 0.0
H659 H 0.63076 0.45599 0.1921 0.0
H660 H 0.63065 0.52607 0.18163 0.0
H661 H 0.64942 0.53239 0.21717 0.0
H662 H 0.5893 0.50214 0.16826 0.0
H663 H 0.67199 0.50042 0.15839 0.0
H664 H 0.7106 0.48788 0.16727 0.0
H665 H 0.69032 0.42132 0.15076 0.0
H666 H 0.65142 0.43342 0.14217 0.0
H667 H 0.58489 0.50979 0.05181 0.0
H668 H 0.59348 0.51185 0.0911 0.0
H669 H 0.6023 0.44156 0.09167 0.0
H670 H 0.59432 0.43954 0.05178 0.0
H671 H 0.63734 0.46292 0.11137 0.0
H672 H 0.55545 0.46498 0.11823 0.0
H673 H 0.51656 0.47735 0.11023 0.0
H674 H 0.53476 0.54271 0.13267 0.0
H675 H 0.57389 0.53082 0.14051 0.0
C676 C 0.64492 0.47626 0.21795 0.0
C677 C 0.65102 0.49773 0.22513 0.0
C678 C 0.6344 0.47272 0.19766 0.0
C679 C 0.62964 0.49055 0.18413 0.0
C680 C 0.63426 0.51209 0.19184 0.0
C681 C 0.64499 0.51567 0.21214 0.0
C682 C 0.62158 0.48653 0.16127 0.0
C683 C 0.59983 0.49376 0.15571 0.0
C684 C 0.63516 0.47504 0.14516 0.0
C685 C 0.65869 0.46779 0.14987 0.0
C686 C 0.6757 0.48308 0.15682 0.0
C687 C 0.69765 0.47606 0.16178 0.0
C688 C 0.70289 0.45381 0.15965 0.0
C689 C 0.68622 0.43855 0.15245 0.0
C690 C 0.66422 0.44548 0.14752 0.0
C691 C 0.58859 0.49473 0.06026 0.0
C692 C 0.58912 0.47451 0.04861 0.0
C693 C 0.59327 0.4959 0.08284 0.0
C694 C 0.59836 0.47685 0.09447 0.0
C695 C 0.59835 0.45648 0.08306 0.0
C696 C 0.59362 0.4553 0.06034 0.0
C697 C 0.60498 0.47866 0.11813 0.0
C698 C 0.62659 0.47108 0.12389 0.0
C699 C 0.59124 0.4898 0.13442 0.0
C700 C 0.56768 0.49703 0.12981 0.0
C701 C 0.55123 0.48203 0.12131 0.0
C702 C 0.52912 0.48895 0.11683 0.0
C703 C 0.52321 0.51081 0.1209 0.0
C704 C 0.53937 0.52578 0.12952 0.0
C705 C 0.56151 0.51895 0.13401 0.0
H706 H 0.50609 0.51613 0.11742 0.0
H707 H 0.71989 0.44841 0.16352 0.0
H708 H 0.36928 0.98768 0.28012 0.0
H709 H 0.3842 0.98286 0.31719 0.0
H710 H 0.33735 0.03128 0.34378 0.0
H711 H 0.32353 0.03717 0.30628 0.0
H712 H 0.37371 0.03532 0.36592 0.0
H713 H 0.32697 0.97249 0.34881 0.0
H714 H 0.3125 0.94098 0.32654 0.0
H715 H 0.3785 0.91103 0.32882 0.0
H716 H 0.39336 0.94258 0.3508 0.0
H717 H 0.38547 0.98409 0.47687 0.0
H718 H 0.36932 0.99855 0.44265 0.0
H719 H 0.42673 0.97302 0.40399 0.0
H720 H 0.44313 0.95943 0.4377 0.0
H721 H 0.38048 0.95824 0.3907 0.0
H722 H 0.42595 0.02415 0.40888 0.0
H723 H 0.43671 0.05562 0.43301 0.0
H724 H 0.36764 0.07896 0.43179 0.0
H725 H 0.35639 0.04742 0.4079 0.0
C726 C 0.36249 0.9976 0.29381 0.0
C727 C 0.34531 0.01287 0.29024 0.0
C728 C 0.37082 0.99464 0.31513 0.0
C729 C 0.36147 0.00616 0.33366 0.0
C730 C 0.34488 0.02206 0.32995 0.0
C731 C 0.33701 0.02549 0.30845 0.0
C732 C 0.36862 1.0011 0.3568 0.0
C733 C 0.37482 0.01844 0.37138 0.0
C734 C 0.37007 0.97912 0.36431 0.0
C735 C 0.36129 0.96001 0.35121 0.0
C736 C 0.33839 0.95926 0.34437 0.0
C737 C 0.33013 0.94138 0.33184 0.0
C738 C 0.3446 0.92403 0.32621 0.0
C739 C 0.36733 0.9245 0.33316 0.0
C740 C 0.37566 0.94237 0.34567 0.0
C741 C 0.39487 0.98208 0.46114 0.0
C742 C 0.41539 0.97023 0.46002 0.0
C743 C 0.38559 0.99023 0.44158 0.0
C744 C 0.3967 0.98659 0.42069 0.0
C745 C 0.41771 0.97581 0.41983 0.0
C746 C 0.42702 0.96795 0.43918 0.0
C747 C 0.38604 0.99237 0.39939 0.0
C748 C 0.37913 0.9751 0.38521 0.0
C749 C 0.38346 0.01434 0.39255 0.0
C750 C 0.39025 0.03328 0.40685 0.0
C751 C 0.41299 0.03586 0.41396 0.0
C752 C 0.4192 0.05374 0.42754 0.0
C753 C 0.40285 0.06924 0.43399 0.0
C754 C 0.38027 0.06692 0.42682 0.0
C755 C 0.37398 0.04905 0.41325 0.0
H756 H 0.40769 0.08308 0.4445 0.0
H757 H 0.3382 0.91019 0.3165 0.0
H758 H 0.65287 0.44945 0.33804 0.0
H759 H 0.63238 0.4536 0.37437 0.0
H760 H 0.63739 0.52423 0.36821 0.0
H761 H 0.65739 0.52033 0.3322 0.0
H762 H 0.65205 0.50918 0.40905 0.0
H763 H 0.58764 0.49841 0.3602 0.0
H764 H 0.56466 0.47757 0.33294 0.0
H765 H 0.55552 0.42402 0.37872 0.0
H766 H 0.57873 0.44446 0.40614 0.0
H767 H 0.57731 0.56207 0.4823 0.0
H768 H 0.59519 0.54627 0.44888 0.0
H769 H 0.57684 0.48092 0.47187 0.0
H770 H 0.55852 0.49679 0.5058 0.0
H771 H 0.57077 0.48582 0.42586 0.0
H772 H 0.63053 0.49798 0.47662 0.0
H773 H 0.65342 0.51828 0.50431 0.0
H774 H 0.6724 0.56748 0.45581 0.0
H775 H 0.64933 0.54766 0.4279 0.0
C776 C 0.6494 0.46584 0.34436 0.0
C777 C 0.65679 0.48453 0.33211 0.0
C778 C 0.63769 0.46819 0.36512 0.0
C779 C 0.6334 0.48925 0.37406 0.0
C780 C 0.64057 0.50782 0.36173 0.0
C781 C 0.65195 0.50552 0.34102 0.0
C782 C 0.62202 0.49241 0.39645 0.0
C783 C 0.63426 0.50411 0.4127 0.0
C784 C 0.59909 0.48508 0.40156 0.0
C785 C 0.58517 0.47283 0.38509 0.0
C786 C 0.58092 0.4821 0.36436 0.0
C787 C 0.56781 0.47038 0.3489 0.0
C788 C 0.55871 0.44945 0.35406 0.0
C789 C 0.56263 0.44021 0.37472 0.0
C790 C 0.57575 0.45186 0.39023 0.0
C791 C 0.57688 0.54431 0.48035 0.0
C792 C 0.56661 0.5307 0.49694 0.0
C793 C 0.58721 0.53529 0.46116 0.0
C794 C 0.58777 0.51239 0.45798 0.0
C795 C 0.57674 0.49865 0.47401 0.0
C796 C 0.56629 0.50773 0.49339 0.0
C797 C 0.60059 0.50329 0.43813 0.0
C798 C 0.58869 0.4905 0.4224 0.0
C799 C 0.62398 0.50942 0.43351 0.0
C800 C 0.63806 0.52138 0.45019 0.0
C801 C 0.63945 0.51321 0.47189 0.0
C802 C 0.65248 0.52462 0.48763 0.0
C803 C 0.66432 0.54418 0.48183 0.0
C804 C 0.66321 0.55233 0.46027 0.0
C805 C 0.65018 0.54099 0.44447 0.0
H806 H 0.6744 0.55299 0.49404 0.0
H807 H 0.54855 0.4404 0.34208 0.0
H808 H 0.19553 0.39787 0.02848 0.0
H809 H 0.15587 0.41057 0.03116 0.0
H810 H 0.14544 0.38877 0.96369 0.0
H811 H 0.18509 0.37619 0.96078 0.0
H812 H 0.1282 0.43922 0.00798 0.0
H813 H 0.09334 0.36021 0.96491 0.0
H814 H 0.1043 0.32157 0.95866 0.0
H815 H 0.14316 0.32392 0.01812 0.0
H816 H 0.13226 0.36245 0.0248 0.0
H817 H 0.00531 0.44948 1.00256 0.0
H818 H 0.04511 0.44188 0.98961 0.0
H819 H 0.04911 0.39241 0.04011 0.0
H820 H 0.00987 0.40001 0.05309 0.0
H821 H 0.06947 0.37875 1.00133 0.0
H822 H 0.07066 0.44205 0.04982 0.0
H823 H 0.05972 0.47924 0.06234 0.0
H824 H 0.08862 0.50645 1.00158 0.0
H825 H 0.09943 0.46929 0.98854 0.0
C826 C 0.185 0.39623 0.01402 0.0
C827 C 0.19353 0.38588 0.99445 0.0
C828 C 0.16231 0.40356 0.01557 0.0
C829 C 0.14758 0.40043 0.99771 0.0
C830 C 0.15643 0.39124 0.97774 0.0
C831 C 0.17918 0.38412 0.97609 0.0
C832 C 0.12251 0.40473 1.00073 0.0
C833 C 0.11534 0.42608 0.00622 0.0
C834 C 0.1057 0.38749 0.99902 0.0
C835 C 0.11223 0.36429 0.99517 0.0
C836 C 0.10421 0.35246 0.97664 0.0
C837 C 0.11042 0.33058 0.97302 0.0
C838 C 0.12452 0.32033 0.98792 0.0
C839 C 0.13237 0.33191 0.00651 0.0
C840 C 0.12622 0.35378 0.01019 0.0
C841 C 0.01458 0.4367 0.01054 0.0
C842 C 1.00452 0.42539 0.02887 0.0
C843 C 0.03734 0.43246 1.00325 0.0
C844 C 0.05019 0.41665 0.014 0.0
C845 C 0.03962 0.40463 0.03151 0.0
C846 C 0.01716 0.40906 0.03896 0.0
C847 C 0.07505 0.41334 0.00822 0.0
C848 C 0.08224 0.39207 1.00241 0.0
C849 C 0.09188 0.43052 0.0103 0.0
C850 C 0.08559 0.45288 0.01809 0.0
C851 C 0.07451 0.45594 0.03905 0.0
C852 C 0.06836 0.477 0.04625 0.0
C853 C 0.07342 0.49518 0.03274 0.0
C854 C 0.08468 0.49234 0.01201 0.0
C855 C 0.09082 0.47128 0.0047 0.0
H856 H 0.06868 0.51146 0.03839 0.0
H857 H 0.1293 0.3034 0.9851 0.0
H858 H 0.21103 0.63073 0.48078 0.0
H859 H 0.17662 0.60816 0.47335 0.0
H860 H 0.14337 0.63325 0.53343 0.0
H861 H 0.17829 0.655 0.54149 0.0
H862 H 0.13018 0.59289 0.52867 0.0
H863 H 0.13455 0.65441 0.47943 0.0
H864 H 0.15219 0.67926 0.45107 0.0
H865 H 0.15662 0.62535 0.40439 0.0
H866 H 0.13928 0.6001 0.4326 0.0
H867 H 0.0133 0.59016 0.49579 0.0
H868 H 0.05264 0.60018 0.50584 0.0
H869 H 0.07924 0.55512 0.45594 0.0
H870 H 0.03958 0.54453 0.44609 0.0
H871 H 0.0972 0.60125 0.45434 0.0
H872 H 0.08657 0.54123 0.50526 0.0
H873 H 0.06565 0.51976 0.5345 0.0
H874 H 0.06932 0.57531 0.5792 0.0
H875 H 0.08996 0.59724 0.55011 0.0
C876 C 0.19649 0.6312 0.49256 0.0
C877 C 0.19731 0.64478 0.51164 0.0
C878 C 0.17673 0.61839 0.48822 0.0
C879 C 0.15704 0.61938 0.50248 0.0
C880 C 0.15822 0.6322 0.52208 0.0
C881 C 0.1782 0.64467 0.52668 0.0
C882 C 0.13496 0.60795 0.49648 0.0
C883 C 0.12297 0.59486 0.51245 0.0
C884 C 0.12549 0.61018 0.4752 0.0
C885 C 0.13588 0.62532 0.4582 0.0
C886 C 0.13945 0.64782 0.46316 0.0
C887 C 0.14936 0.66198 0.44711 0.0
C888 C 0.15558 0.65387 0.42596 0.0
C889 C 0.15184 0.63159 0.4208 0.0
C890 C 0.14196 0.61735 0.4368 0.0
C891 C 0.0275 0.5821 0.48717 0.0
C892 C 0.02338 0.56656 0.47014 0.0
C893 C 0.04996 0.58782 0.49298 0.0
C894 C 0.06884 0.57837 0.48167 0.0
C895 C 0.06486 0.56252 0.46491 0.0
C896 C 0.04225 0.55642 0.45938 0.0
C897 C 0.09255 0.58639 0.48652 0.0
C898 C 0.10472 0.59899 0.47039 0.0
C899 C 0.10184 0.58417 0.50779 0.0
C900 C 0.08968 0.57093 0.52543 0.0
C901 C 0.08277 0.54893 0.52127 0.0
C902 C 0.07099 0.53667 0.53783 0.0
C903 C 0.06612 0.54618 0.55868 0.0
C904 C 0.07309 0.56797 0.56304 0.0
C905 C 0.08487 0.58031 0.54652 0.0
H906 H 0.05697 0.53666 0.57147 0.0
H907 H 0.16325 0.66486 0.41356 0.0
H908 H 0.81399 0.89056 0.49113 0.0
H909 H 0.85427 0.90221 0.48563 0.0
H910 H 0.86203 0.90488 0.55663 0.0
H911 H 0.82152 0.89294 0.5624 0.0
H912 H 0.88727 0.94008 0.5305 0.0
H913 H 0.87789 0.86138 0.53465 0.0
H914 H 0.85995 0.82532 0.52526 0.0
H915 H 0.88082 0.83382 0.4566 0.0
H916 H 0.8985 0.87014 0.4655 0.0
H917 H 0.01106 0.93837 0.51105 0.0
H918 H 0.97195 0.93108 0.52688 0.0
H919 H 0.94975 0.90934 0.46232 0.0
H920 H 0.98837 0.91589 0.44675 0.0
H921 H 0.93282 0.88233 0.49169 0.0
H922 H 0.93805 0.96195 0.48603 0.0
H923 H 0.95465 0.99891 0.49403 0.0
H924 H 0.94116 0.98935 0.564 0.0
H925 H 0.92472 0.95221 0.55641 0.0
C926 C 0.824 0.89411 0.50566 0.0
C927 C 0.81448 0.89057 0.52723 0.0
C928 C 0.8471 0.90074 0.50245 0.0
C929 C 0.86123 0.9041 0.5207 0.0
C930 C 0.85142 0.90232 0.54232 0.0
C931 C 0.82824 0.89551 0.54557 0.0
C932 C 0.88657 0.90716 0.51688 0.0
C933 C 0.89738 0.92736 0.52237 0.0
C934 C 0.89968 0.89061 0.50609 0.0
C935 C 0.88939 0.86858 0.50073 0.0
C936 C 0.87851 0.85565 0.51752 0.0
C937 C 0.8684 0.83515 0.51229 0.0
C938 C 0.86924 0.8273 0.49035 0.0
C939 C 0.88019 0.83993 0.47359 0.0
C940 C 0.89027 0.86047 0.47872 0.0
C941 C 0.99782 0.93195 0.50032 0.0
C942 C 1.00296 0.92769 0.47764 0.0
C943 C 0.97542 0.9279 0.50934 0.0
C944 C 0.95772 0.91977 0.49579 0.0
C945 C 0.96299 0.91547 0.47323 0.0
C946 C 0.98522 0.91931 0.46431 0.0
C947 C 0.9336 0.91561 0.50459 0.0
C948 C 0.92292 0.89505 0.5001 0.0
C949 C 0.92065 0.9319 0.51613 0.0
C950 C 0.93042 0.95423 0.52067 0.0
C951 C 0.93878 0.96768 0.50313 0.0
C952 C 0.94813 0.98867 0.50758 0.0
C953 C 0.94902 0.99645 0.52951 0.0
C954 C 0.9405 0.98328 0.54702 0.0
C955 C 0.93115 0.96227 0.54266 0.0
H956 H 0.95627 0.0127 0.53293 0.0
H957 H 0.86147 0.81141 0.48636 0.0
H958 H 0.30312 0.64439 0.53401 0.0
H959 H 0.33975 0.62649 0.53809 0.0
H960 H 0.35431 0.63176 0.46753 0.0
H961 H 0.31749 0.64997 0.46323 0.0
H962 H 0.36768 0.59063 0.48608 0.0
H963 H 0.37817 0.6685 0.49831 0.0
H964 H 0.36861 0.70442 0.51514 0.0
H965 H 0.37965 0.67918 0.58021 0.0
H966 H 0.38903 0.64295 0.56374 0.0
H967 H 0.49684 0.60882 0.51726 0.0
H968 H 0.45922 0.62188 0.50745 0.0
H969 H 0.4269 0.56186 0.53233 0.0
H970 H 0.46469 0.54856 0.5422 0.0
H971 H 0.42286 0.6309 0.53408 0.0
H972 H 0.37765 0.55112 0.50233 0.0
H973 H 0.38769 0.51624 0.4834 0.0
H974 H 0.44822 0.54747 0.45349 0.0
H975 H 0.43838 0.5826 0.47199 0.0
C976 C 0.31387 0.64151 0.51922 0.0
C977 C 0.30732 0.6488 0.49827 0.0
C978 C 0.33489 0.63127 0.52163 0.0
C979 C 0.34992 0.62796 0.50317 0.0
C980 C 0.34299 0.63414 0.48202 0.0
C981 C 0.32194 0.64458 0.47959 0.0
C982 C 0.37343 0.61953 0.5064 0.0
C983 C 0.37976 0.59939 0.49659 0.0
C984 C 0.38935 0.63111 0.51984 0.0
C985 C 0.3841 0.65296 0.5298 0.0
C986 C 0.37841 0.67056 0.51622 0.0
C987 C 0.37304 0.69099 0.5257 0.0
C988 C 0.37344 0.69408 0.54876 0.0
C989 C 0.37931 0.67675 0.56236 0.0
C990 C 0.38469 0.65627 0.55296 0.0
C991 C 0.48181 0.59823 0.52049 0.0
C992 C 0.48388 0.57759 0.53054 0.0
C993 C 0.46023 0.6058 0.51493 0.0
C994 C 0.44013 0.5929 0.51908 0.0
C995 C 0.44214 0.57207 0.52873 0.0
C996 C 0.46378 0.56448 0.5344 0.0
C997 C 0.41714 0.60172 0.51406 0.0
C998 C 0.41085 0.62202 0.5236 0.0
C999 C 0.40143 0.59039 0.50016 0.0
C1000 C 0.40738 0.56942 0.48875 0.0
C1001 C 0.39305 0.55056 0.49166 0.0
C1002 C 0.39872 0.53074 0.48101 0.0
C1003 C 0.41862 0.52962 0.46731 0.0
C1004 C 0.43286 0.54834 0.46417 0.0
C1005 C 0.42726 0.5682 0.47477 0.0
H1006 H 0.42298 0.51427 0.4591 0.0
H1007 H 0.36925 0.70991 0.55608 0.0
H1008 H 0.53651 0.67258 0.85669 0.0
H1009 H 0.5438 0.63665 0.87203 0.0
H1010 H 0.47124 0.62721 0.88827 0.0
H1011 H 0.46368 0.66301 0.87201 0.0
H1012 H 0.54049 0.61833 0.90956 0.0
H1013 H 0.45574 0.57299 0.88554 0.0
H1014 H 0.4263 0.57476 0.85705 0.0
H1015 H 0.47598 0.60519 0.81165 0.0
H1016 H 0.50575 0.60335 0.83976 0.0
H1017 H 0.54014 0.51401 0.96019 0.0
H1018 H 0.52862 0.55012 0.94779 0.0
H1019 H 0.53081 0.52677 0.8797 0.0
H1020 H 0.54136 0.49031 0.89215 0.0
H1021 H 0.49641 0.55198 0.88457 0.0
H1022 H 0.57555 0.55946 0.90313 0.0
H1023 H 0.60915 0.55682 0.92681 0.0
H1024 H 0.57806 0.601 0.97463 0.0
H1025 H 0.54411 0.60367 0.95136 0.0
C1026 C 0.52205 0.66299 0.86365 0.0
C1027 C 0.49946 0.67072 0.86299 0.0
C1028 C 0.52628 0.64235 0.87249 0.0
C1029 C 0.50809 0.6289 0.88109 0.0
C1030 C 0.48557 0.63696 0.88131 0.0
C1031 C 0.48127 0.65755 0.87215 0.0
C1032 C 0.51286 0.60635 0.88929 0.0
C1033 C 0.53073 0.60387 0.90415 0.0
C1034 C 0.50059 0.58725 0.88194 0.0
C1035 C 0.48287 0.58826 0.86485 0.0
C1036 C 0.46037 0.58 0.86946 0.0
C1037 C 0.44364 0.58102 0.85338 0.0
C1038 C 0.44924 0.59015 0.83259 0.0
C1039 C 0.47163 0.5982 0.82779 0.0
C1040 C 0.48843 0.59719 0.8438 0.0
C1041 C 0.53804 0.51652 0.94258 0.0
C1042 C 0.54181 0.49928 0.92715 0.0
C1043 C 0.53156 0.53725 0.93547 0.0
C1044 C 0.52924 0.54145 0.91271 0.0
C1045 C 0.53247 0.52407 0.89734 0.0
C1046 C 0.53859 0.50321 0.90448 0.0
C1047 C 0.52398 0.564 0.90488 0.0
C1048 C 0.50602 0.56648 0.89012 0.0
C1049 C 0.53675 0.58302 0.91165 0.0
C1050 C 0.55719 0.58159 0.92561 0.0
C1051 C 0.57582 0.5685 0.91877 0.0
C1052 C 0.59493 0.56701 0.93211 0.0
C1053 C 0.59571 0.57869 0.95224 0.0
C1054 C 0.57741 0.59194 0.95904 0.0
C1055 C 0.55824 0.59346 0.94578 0.0
H1056 H 0.61052 0.57751 0.96255 0.0
H1057 H 0.43626 0.59094 0.82017 0.0
H1058 H 0.5438 0.79185 0.8634 0.0
H1059 H 0.5384 0.82842 0.88002 0.0
H1060 H 0.4658 0.8135 0.89039 0.0
H1061 H 0.471 0.77704 0.87373 0.0
H1062 H 0.47255 0.85218 0.87011 0.0
H1063 H 0.5018 0.81832 0.93439 0.0
H1064 H 0.52917 0.79714 0.95544 0.0
H1065 H 0.5829 0.84518 0.94016 0.0
H1066 H 0.55592 0.86651 0.91876 0.0
H1067 H 0.45262 0.95662 0.92323 0.0
H1068 H 0.45388 0.91673 0.9161 0.0
H1069 H 0.52803 0.92162 0.90897 0.0
H1070 H 0.52693 0.96085 0.91695 0.0
H1071 H 0.5174 0.88648 0.93065 0.0
H1072 H 0.49115 0.91776 0.86312 0.0
H1073 H 0.46583 0.9382 0.83911 0.0
H1074 H 0.40876 0.89502 0.85782 0.0
H1075 H 0.4337 0.87449 0.88216 0.0
C1076 C 0.52677 0.79615 0.86964 0.0
C1077 C 0.50786 0.78141 0.86718 0.0
C1078 C 0.52369 0.81711 0.87917 0.0
C1079 C 0.50167 0.82379 0.88654 0.0
C1080 C 0.48294 0.80881 0.88481 0.0
C1081 C 0.486 0.78787 0.87536 0.0
C1082 C 0.49787 0.84682 0.89459 0.0
C1083 C 0.48206 0.85958 0.88362 0.0
C1084 C 0.51063 0.85667 0.91188 0.0
C1085 C 0.52687 0.84392 0.92482 0.0
C1086 C 0.51949 0.82428 0.93538 0.0
C1087 C 0.53493 0.81227 0.9474 0.0
C1088 C 0.55777 0.81978 0.9491 0.0
C1089 C 0.56521 0.83937 0.93882 0.0
C1090 C 0.54984 0.85144 0.92676 0.0
C1091 C 0.46917 0.94912 0.92042 0.0
C1092 C 0.48963 0.96212 0.92037 0.0
C1093 C 0.46989 0.92631 0.9161 0.0
C1094 C 0.49106 0.91607 0.91159 0.0
C1095 C 0.51145 0.92898 0.91227 0.0
C1096 C 0.51076 0.95159 0.91662 0.0
C1097 C 0.49235 0.89206 0.90586 0.0
C1098 C 0.50769 0.87907 0.91727 0.0
C1099 C 0.47939 0.88205 0.88874 0.0
C1100 C 0.46419 0.89483 0.87474 0.0
C1101 C 0.47313 0.91281 0.86234 0.0
C1102 C 0.45887 0.92436 0.84861 0.0
C1103 C 0.43567 0.91797 0.84702 0.0
C1104 C 0.4267 0.90001 0.85914 0.0
C1105 C 0.44088 0.88843 0.87292 0.0
H1106 H 0.42468 0.92689 0.83633 0.0
H1107 H 0.5697 0.81045 0.95841 0.0
H1108 H 0.47453 0.2882 0.64734 0.0
H1109 H 0.47759 0.32465 0.63038 0.0
H1110 H 0.55065 0.317 0.61882 0.0
H1111 H 0.54778 0.28058 0.63575 0.0
H1112 H 0.54116 0.35643 0.6387 0.0
H1113 H 0.5152 0.3152 0.57561 0.0
H1114 H 0.48985 0.28933 0.5553 0.0
H1115 H 0.43236 0.33099 0.56883 0.0
H1116 H 0.4573 0.35697 0.5895 0.0
H1117 H 0.55368 0.45891 0.582 0.0
H1118 H 0.555 0.41947 0.58984 0.0
H1119 H 0.48087 0.41634 0.59779 0.0
H1120 H 0.47935 0.45518 0.58896 0.0
H1121 H 0.49408 0.38112 0.57695 0.0
H1122 H 0.51798 0.41998 0.64304 0.0
H1123 H 0.54212 0.44581 0.66472 0.0
H1124 H 0.60204 0.40868 0.64704 0.0
H1125 H 0.57828 0.38277 0.62501 0.0
C1126 C 0.4912 0.2941 0.64089 0.0
C1127 C 0.51089 0.28138 0.64291 0.0
C1128 C 0.49292 0.31497 0.63116 0.0
C1129 C 0.51436 0.32358 0.62324 0.0
C1130 C 0.53394 0.31073 0.6248 0.0
C1131 C 0.53222 0.28982 0.63439 0.0
C1132 C 0.5165 0.34641 0.61439 0.0
C1133 C 0.53118 0.36173 0.62492 0.0
C1134 C 0.50312 0.3535 0.59674 0.0
C1135 C 0.48809 0.33795 0.58426 0.0
C1136 C 0.49711 0.31876 0.5744 0.0
C1137 C 0.48282 0.30409 0.5628 0.0
C1138 C 0.4595 0.30849 0.56082 0.0
C1139 C 0.45043 0.32759 0.5704 0.0
C1140 C 0.46464 0.34231 0.58203 0.0
C1141 C 0.53765 0.44977 0.5851 0.0
C1142 C 0.51643 0.46044 0.58515 0.0
C1143 C 0.53843 0.42721 0.58981 0.0
C1144 C 0.51804 0.4149 0.59485 0.0
C1145 C 0.49687 0.42539 0.59411 0.0
C1146 C 0.49606 0.44778 0.58929 0.0
C1147 C 0.51849 0.39128 0.60148 0.0
C1148 C 0.50427 0.37579 0.59056 0.0
C1149 C 0.53212 0.38407 0.61893 0.0
C1150 C 0.54641 0.39961 0.63217 0.0
C1151 C 0.53634 0.41743 0.64364 0.0
C1152 C 0.54994 0.43206 0.65601 0.0
C1153 C 0.57361 0.42893 0.65719 0.0
C1154 C 0.58372 0.41111 0.64606 0.0
C1155 C 0.57019 0.39645 0.63364 0.0
H1156 H 0.58412 0.44027 0.66678 0.0
H1157 H 0.44847 0.29711 0.55183 0.0
H1158 H 0.48077 0.18291 0.63191 0.0
H1159 H 0.46919 0.14885 0.61288 0.0
H1160 H 0.53857 0.12571 0.61571 0.0
H1161 H 0.55045 0.16004 0.63427 0.0
H1162 H 0.51953 0.11203 0.57762 0.0
H1163 H 0.49829 0.11119 0.65574 0.0
H1164 H 0.48004 0.12595 0.69028 0.0
H1165 H 0.41387 0.12213 0.66057 0.0
H1166 H 0.43178 0.10758 0.62576 0.0
H1167 H 0.46878 0.99618 0.60647 0.0
H1168 H 0.4802 0.03376 0.61612 0.0
H1169 H 0.46605 0.05462 0.54977 0.0
H1170 H 0.4547 0.01658 0.53976 0.0
H1171 H 0.45676 0.07023 0.61806 0.0
H1172 H 0.50538 0.0981 0.53693 0.0
H1173 H 0.527 0.0815 0.50515 0.0
H1174 H 0.54405 0.02705 0.54582 0.0
H1175 H 0.52308 0.04356 0.57789 0.0
C1176 C 0.49368 0.17075 0.62816 0.0
C1177 C 0.51648 0.17408 0.63488 0.0
C1178 C 0.48702 0.15125 0.61729 0.0
C1179 C 0.50289 0.13452 0.61326 0.0
C1180 C 0.52599 0.13835 0.61869 0.0
C1181 C 0.53275 0.15798 0.62937 0.0
C1182 C 0.49498 0.11237 0.60535 0.0
C1183 C 0.50569 0.10295 0.58634 0.0
C1184 C 0.47727 0.10027 0.61701 0.0
C1185 C 0.4664 0.10853 0.63809 0.0
C1186 C 0.47986 0.1136 0.65656 0.0
C1187 C 0.46958 0.12191 0.67618 0.0
C1188 C 0.44583 0.12507 0.67757 0.0
C1189 C 0.43228 0.11973 0.65943 0.0
C1190 C 0.44248 0.11143 0.63977 0.0
C1191 C 0.46807 0.00867 0.59382 0.0
C1192 C 0.46082 1.00331 0.57229 0.0
C1193 C 0.47454 0.03023 0.59944 0.0
C1194 C 0.47402 0.04704 0.58371 0.0
C1195 C 0.46676 0.04187 0.56215 0.0
C1196 C 0.46023 0.02015 0.55646 0.0
C1197 C 0.48118 0.06986 0.59021 0.0
C1198 C 0.47035 0.07941 0.60907 0.0
C1199 C 0.49922 0.08172 0.57879 0.0
C1200 C 0.51238 0.07194 0.55971 0.0
C1201 C 0.51386 0.08264 0.5391 0.0
C1202 C 0.52603 0.07326 0.52104 0.0
C1203 C 0.53687 0.0532 0.52344 0.0
C1204 C 0.53566 0.04256 0.54394 0.0
C1205 C 0.52363 0.05193 0.56206 0.0
H1206 H 0.54622 0.04593 0.50943 0.0
H1207 H 0.4379 0.13165 0.6927 0.0
H1208 H 0.85498 0.53758 0.68642 0.0
H1209 H 0.87534 0.54331 0.65074 0.0
H1210 H 0.87155 0.4735 0.63705 0.0
H1211 H 0.85101 0.46751 0.673 0.0
H1212 H 0.9146 0.49395 0.62354 0.0
H1213 H 0.83389 0.50372 0.61438 0.0
H1214 H 0.79573 0.51872 0.62399 0.0
H1215 H 0.82275 0.5844 0.6132 0.0
H1216 H 0.86119 0.56982 0.60389 0.0
H1217 H 0.93865 0.50781 0.50635 0.0
H1218 H 0.9222 0.49694 0.5428 0.0
H1219 H 0.91419 0.56533 0.56084 0.0
H1220 H 0.93018 0.57627 0.5244 0.0
H1221 H 0.87615 0.54266 0.57148 0.0
H1222 H 0.957 0.53353 0.58216 0.0
H1223 H 0.99562 0.5191 0.57353 0.0
H1224 H 0.96892 0.45293 0.58174 0.0
H1225 H 0.93006 0.46696 0.59014 0.0
C1226 C 0.85867 0.52333 0.67603 0.0
C1227 C 0.85113 0.50207 0.68257 0.0
C1228 C 0.8703 0.52668 0.65556 0.0
C1229 C 0.87467 0.50889 0.64107 0.0
C1230 C 0.86829 0.48748 0.64795 0.0
C1231 C 0.85653 0.48409 0.6685 0.0
C1232 C 0.88464 0.51304 0.6183 0.0
C1233 C 0.90606 0.50431 0.61199 0.0
C1234 C 0.87367 0.52686 0.60337 0.0
C1235 C 0.85048 0.53568 0.60862 0.0
C1236 C 0.83174 0.52137 0.61421 0.0
C1237 C 0.81005 0.5298 0.61958 0.0
C1238 C 0.80683 0.5525 0.61925 0.0
C1239 C 0.82528 0.56682 0.61347 0.0
C1240 C 0.84702 0.55848 0.60812 0.0
C1241 C 0.93354 0.52054 0.51814 0.0
C1242 C 0.93576 0.54293 0.51241 0.0
C1243 C 0.92419 0.5143 0.53903 0.0
C1244 C 0.91707 0.5303 0.55471 0.0
C1245 C 0.91949 0.55264 0.54906 0.0
C1246 C 0.92873 0.55889 0.5282 0.0
C1247 C 0.90641 0.52393 0.57674 0.0
C1248 C 0.88473 0.53221 0.58292 0.0
C1249 C 0.91721 0.50975 0.59151 0.0
C1250 C 0.94057 0.50129 0.58654 0.0
C1251 C 0.95932 0.51589 0.58195 0.0
C1252 C 0.98126 0.50779 0.57713 0.0
C1253 C 0.98471 0.48511 0.57702 0.0
C1254 C 0.96622 0.47049 0.58179 0.0
C1255 C 0.94424 0.47851 0.5866 0.0
H1256 H 1.0017 0.47886 0.57328 0.0
H1257 H 0.79003 0.55899 0.62344 0.0
H1258 H 0.13581 0.97361 0.73067 0.0
H1259 H 0.11841 0.96714 0.69463 0.0
H1260 H 0.1481 0.02872 0.67087 0.0
H1261 H 0.16535 0.03547 0.70702 0.0
H1262 H 0.08901 0.9911 0.66661 0.0
H1263 H 0.17332 0.01524 0.6186 0.0
H1264 H 0.21503 0.01856 0.62493 0.0
H1265 H 0.20833 0.96862 0.67488 0.0
H1266 H 0.16667 0.96468 0.66853 0.0
H1267 H 0.08065 0.00768 0.54938 0.0
H1268 H 0.08903 0.01059 0.58898 0.0
H1269 H 0.11715 0.9456 0.58627 0.0
H1270 H 0.10822 0.94249 0.54655 0.0
H1271 H 0.14672 0.98099 0.60464 0.0
H1272 H 0.07087 0.94861 0.61347 0.0
H1273 H 0.02921 0.945 0.60717 0.0
H1274 H 0.01909 0.00928 0.63575 0.0
H1275 H 0.06077 0.01343 0.64191 0.0
C1276 C 0.13811 0.98607 0.71798 0.0
C1277 C 0.15202 0.00502 0.72165 0.0
C1278 C 0.12815 0.98234 0.69741 0.0
C1279 C 0.13224 0.99729 0.68003 0.0
C1280 C 0.14488 0.01691 0.68407 0.0
C1281 C 0.15459 0.02081 0.70477 0.0
C1282 C 0.12515 0.99139 0.65723 0.0
C1283 C 0.10159 0.98893 0.65304 0.0
C1284 C 0.14165 0.98811 0.63967 0.0
C1285 C 0.16681 0.98987 0.64325 0.0
C1286 C 0.18076 0.00489 0.63085 0.0
C1287 C 0.20439 0.00688 0.63444 0.0
C1288 C 0.21429 0.99389 0.65036 0.0
C1289 C 0.20061 0.97874 0.66262 0.0
C1290 C 0.17698 0.97663 0.65903 0.0
C1291 C 0.08831 0.99392 0.55736 0.0
C1292 C 0.09382 0.97487 0.54503 0.0
C1293 C 0.09305 0.99557 0.57993 0.0
C1294 C 0.10372 0.97833 0.59051 0.0
C1295 C 0.10887 0.95907 0.57836 0.0
C1296 C 0.10366 0.95723 0.55581 0.0
C1297 C 0.11057 0.98115 0.61391 0.0
C1298 C 0.13412 0.98308 0.61821 0.0
C1299 C 0.09408 0.98386 0.63156 0.0
C1300 C 0.06899 0.9814 0.62797 0.0
C1301 C 0.0598 0.96206 0.61823 0.0
C1302 C 0.03617 0.9599 0.61472 0.0
C1303 C 0.02152 0.97692 0.62101 0.0
C1304 C 0.03047 0.99612 0.63087 0.0
C1305 C 0.05409 0.99837 0.6344 0.0
H1306 H 1.00323 0.97522 0.61828 0.0
H1307 H 0.23255 0.99556 0.65317 0.0
H1308 H 0.84572 0.5505 0.80109 0.0
H1309 H 0.86308 0.54532 0.83736 0.0
H1310 H 0.87009 0.47621 0.82243 0.0
H1311 H 0.85327 0.48116 0.78643 0.0
H1312 H 0.84622 0.48521 0.86318 0.0
H1313 H 0.91643 0.50782 0.82239 0.0
H1314 H 0.94084 0.53361 0.79989 0.0
H1315 H 0.93534 0.58263 0.85173 0.0
H1316 H 0.91061 0.55721 0.87442 0.0
H1317 H 0.90687 0.43762 0.94558 0.0
H1318 H 0.89795 0.45187 0.9091 0.0
H1319 H 0.90549 0.51835 0.93443 0.0
H1320 H 0.91521 0.50382 0.97101 0.0
H1321 H 0.9201 0.51605 0.89068 0.0
H1322 H 0.85263 0.49403 0.93264 0.0
H1323 H 0.82722 0.46965 0.95575 0.0
H1324 H 0.82514 0.42192 0.90255 0.0
H1325 H 0.85088 0.44584 0.87924 0.0
C1326 C 0.8514 0.5343 0.80535 0.0
C1327 C 0.84798 0.51626 0.79078 0.0
C1328 C 0.86128 0.53136 0.82611 0.0
C1329 C 0.86778 0.51033 0.83267 0.0
C1330 C 0.86513 0.49255 0.8178 0.0
C1331 C 0.85553 0.49548 0.79712 0.0
C1332 C 0.87586 0.50614 0.85545 0.0
C1333 C 0.86247 0.49183 0.86911 0.0
C1334 C 0.89657 0.51548 0.8636 0.0
C1335 C 0.91144 0.53072 0.84998 0.0
C1336 C 0.92023 0.52417 0.8289 0.0
C1337 C 0.93417 0.5387 0.81613 0.0
C1338 C 0.93957 0.55977 0.82434 0.0
C1339 C 0.9311 0.56632 0.84537 0.0
C1340 C 0.91714 0.55186 0.85819 0.0
C1341 C 0.90724 0.45527 0.94313 0.0
C1342 C 0.91173 0.46963 0.961 0.0
C1343 C 0.90195 0.46343 0.92236 0.0
C1344 C 0.90041 0.48621 0.91909 0.0
C1345 C 0.90642 0.50071 0.93654 0.0
C1346 C 0.91207 0.49246 0.95737 0.0
C1347 C 0.89085 0.49441 0.89806 0.0
C1348 C 0.90378 0.50956 0.88484 0.0
C1349 C 0.86947 0.48609 0.89034 0.0
C1350 C 0.85386 0.47167 0.90425 0.0
C1351 C 0.8469 0.47826 0.92592 0.0
C1352 C 0.83242 0.46453 0.93905 0.0
C1353 C 0.82461 0.44423 0.93064 0.0
C1354 C 0.83123 0.43764 0.90905 0.0
C1355 C 0.84575 0.45129 0.89587 0.0
H1356 H 0.81339 0.43362 0.94083 0.0
H1357 H 0.95038 0.571 0.81443 0.0
H1358 H 0.15326 0.95052 0.8335 0.0
H1359 H 0.13217 0.95415 0.86955 0.0
H1360 H 0.13323 0.02471 0.86238 0.0
H1361 H 0.15398 0.02131 0.82671 0.0
H1362 H 0.14795 0.01258 0.90294 0.0
H1363 H 0.08442 0.99454 0.8553 0.0
H1364 H 0.06299 0.97124 0.82879 0.0
H1365 H 0.05912 0.91851 0.87585 0.0
H1366 H 0.08082 0.94142 0.90254 0.0
H1367 H 0.07009 0.05917 0.97741 0.0
H1368 H 0.08701 0.04447 0.94299 0.0
H1369 H 0.07881 0.97852 0.96835 0.0
H1370 H 0.06148 0.99327 1.00331 0.0
H1371 H 0.06964 0.98187 0.92167 0.0
H1372 H 0.12961 1.00124 0.97086 0.0
H1373 H 0.15029 0.02486 0.99764 0.0
H1374 H 0.16138 0.07451 0.94785 0.0
H1375 H 0.14041 0.05135 0.92087 0.0
C1376 C 0.14878 0.96678 0.83952 0.0
C1377 C 0.15542 0.98561 0.82712 0.0
C1378 C 0.1367 0.96883 0.86013 0.0
C1379 C 0.13113 0.98973 0.86876 0.0
C1380 C 0.1374 0.00842 0.8562 0.0
C1381 C 0.14925 0.0064 0.83567 0.0
C1382 C 0.11957 0.99264 0.89116 0.0
C1383 C 0.1308 0.0059 0.90696 0.0
C1384 C 0.0975 0.98333 0.89682 0.0
C1385 C 0.0845 0.96958 0.88079 0.0
C1386 C 0.0792 0.9779 0.85991 0.0
C1387 C 0.06696 0.96479 0.84487 0.0
C1388 C 0.05977 0.94338 0.8506 0.0
C1389 C 0.06475 0.93507 0.87141 0.0
C1390 C 0.07701 0.94811 0.8865 0.0
C1391 C 0.07159 0.04148 0.97572 0.0
C1392 C 0.06464 0.02743 0.99331 0.0
C1393 C 0.08133 0.0331 0.95594 0.0
C1394 C 0.0846 0.01043 0.95317 0.0
C1395 C 0.07655 0.9961 0.97015 0.0
C1396 C 0.06666 0.00454 0.99011 0.0
C1397 C 0.09779 1.00237 0.93305 0.0
C1398 C 0.08695 0.98819 0.91776 0.0
C1399 C 0.12034 0.01071 0.92781 0.0
C1400 C 0.13331 0.02459 0.94387 0.0
C1401 C 0.13633 0.01725 0.96565 0.0
C1402 C 0.14812 0.03055 0.98087 0.0
C1403 C 0.15712 0.05118 0.97445 0.0
C1404 C 0.1544 0.05853 0.95279 0.0
C1405 C 0.14258 0.04531 0.93752 0.0
H1406 H 0.16622 0.06147 0.98626 0.0
H1407 H 0.05028 0.93326 0.83894 0.0
H1408 H 0.70112 0.89697 0.54434 0.0
H1409 H 0.66129 0.90941 0.54721 0.0
H1410 H 0.64699 0.87702 0.48485 0.0
H1411 H 0.68688 0.86491 0.48161 0.0
H1412 H 0.63418 0.93481 0.51792 0.0
H1413 H 0.59173 0.85173 0.49424 0.0
H1414 H 0.59719 0.81168 0.49642 0.0
H1415 H 0.64071 0.82186 0.55208 0.0
H1416 H 0.63539 0.86195 0.5503 0.0
H1417 H 0.50899 0.94251 0.51065 0.0
H1418 H 0.54956 0.93463 0.50101 0.0
H1419 H 0.55521 0.9019 0.56374 0.0
H1420 H 0.51522 0.90986 0.57354 0.0
H1421 H 0.5722 0.87749 0.52751 0.0
H1422 H 0.57739 0.95175 0.55782 0.0
H1423 H 0.56956 0.99147 0.55918 0.0
H1424 H 0.59965 0.999 0.49333 0.0
H1425 H 0.60733 0.95926 0.49144 0.0
C1426 C 0.68962 0.89281 0.53104 0.0
C1427 C 0.69727 0.88003 0.5127 0.0
C1428 C 0.66685 0.89994 0.5327 0.0
C1429 C 0.6511 0.89405 0.51631 0.0
C1430 C 0.6588 0.88171 0.49773 0.0
C1431 C 0.68168 0.87492 0.49585 0.0
C1432 C 0.62642 0.89996 0.51921 0.0
C1433 C 0.6206 0.92227 0.51983 0.0
C1434 C 0.60864 0.88366 0.5217 0.0
C1435 C 0.61336 0.85983 0.52196 0.0
C1436 C 0.6026 0.84541 0.50683 0.0
C1437 C 0.60561 0.82272 0.50804 0.0
C1438 C 0.61921 0.81424 0.52442 0.0
C1439 C 0.63017 0.82846 0.5394 0.0
C1440 C 0.62726 0.85119 0.53822 0.0
C1441 C 0.51891 0.93362 0.52234 0.0
C1442 C 0.50882 0.92682 0.54287 0.0
C1443 C 0.5421 0.92922 0.51686 0.0
C1444 C 0.55545 0.91771 0.5317 0.0
C1445 C 0.54529 0.91078 0.55203 0.0
C1446 C 0.52237 0.91541 0.55762 0.0
C1447 C 0.57989 0.91231 0.52622 0.0
C1448 C 0.5857 0.89005 0.52513 0.0
C1449 C 0.59757 0.92866 0.52329 0.0
C1450 C 0.59268 0.95248 0.52438 0.0
C1451 C 0.58209 0.96183 0.54353 0.0
C1452 C 0.57774 0.98436 0.54442 0.0
C1453 C 0.58407 0.99774 0.52633 0.0
C1454 C 0.59473 0.98861 0.50731 0.0
C1455 C 0.59909 0.96609 0.50632 0.0
H1456 H 0.58082 0.01519 0.52707 0.0
H1457 H 0.62118 0.79663 0.52553 0.0
H1458 H 0.69458 0.13745 0.0523 0.0
H1459 H 0.65845 0.11643 0.04696 0.0
H1460 H 0.65973 0.13604 0.97815 0.0
H1461 H 0.69605 0.15597 0.98309 0.0
H1462 H 0.61802 0.12743 0.03815 0.0
H1463 H 0.63344 0.10109 0.94501 0.0
H1464 H 0.66554 0.08899 0.92025 0.0
H1465 H 0.70173 0.06742 0.97673 0.0
H1466 H 0.66972 0.07911 1.00181 0.0
H1467 H 0.51265 0.11137 0.98551 0.0
H1468 H 0.55106 0.12194 0.99776 0.0
H1469 H 0.57301 0.05521 0.98709 0.0
H1470 H 0.53482 0.04476 0.97395 0.0
H1471 H 0.60458 0.08056 0.9715 0.0
H1472 H 0.56396 0.07841 0.0407 0.0
H1473 H 0.53262 0.08562 0.06835 0.0
H1474 H 0.54856 0.15502 0.0654 0.0
H1475 H 0.57978 0.14827 0.03745 0.0
C1476 C 0.68732 0.13693 0.03596 0.0
C1477 C 0.69836 0.14821 0.01808 0.0
C1478 C 0.66659 0.125 0.03294 0.0
C1479 C 0.6564 0.12428 0.01204 0.0
C1480 C 0.66744 0.13567 0.99427 0.0
C1481 C 0.68826 0.14721 0.99716 0.0
C1482 C 0.63376 0.11262 0.00883 0.0
C1483 C 0.61515 0.11706 0.02366 0.0
C1484 C 0.62998 0.09843 0.99033 0.0
C1485 C 0.64922 0.09113 0.97531 0.0
C1486 C 0.64818 0.09365 0.95214 0.0
C1487 C 0.66638 0.08689 0.93805 0.0
C1488 C 0.68568 0.07749 0.94691 0.0
C1489 C 0.6868 0.07477 0.96989 0.0
C1490 C 0.66865 0.08149 0.98405 0.0
C1491 C 0.52559 0.09889 0.98595 0.0
C1492 C 0.52066 0.07722 0.97875 0.0
C1493 C 0.54757 0.10493 0.9931 0.0
C1494 C 0.56499 0.08934 0.99369 0.0
C1495 C 0.55995 0.06759 0.98681 0.0
C1496 C 0.53807 0.06161 0.97935 0.0
C1497 C 0.5887 0.09605 1.00036 0.0
C1498 C 0.6075 0.09069 0.98616 0.0
C1499 C 0.59279 0.10864 0.0199 0.0
C1500 C 0.57413 0.11283 0.03684 0.0
C1501 C 0.5607 0.09523 0.04583 0.0
C1502 C 0.54296 0.09923 0.06157 0.0
C1503 C 0.53858 0.12077 0.0686 0.0
C1504 C 0.55197 0.13835 0.05993 0.0
C1505 C 0.56971 0.13444 0.04415 0.0
H1506 H 0.52484 0.12384 0.08079 0.0
H1507 H 0.69976 0.07229 0.93597 0.0
H1508 H 0.31534 0.39129 0.04574 0.0
H1509 H 0.35602 0.40283 0.04114 0.0
H1510 H 0.35167 0.39608 0.96994 0.0
H1511 H 0.31119 0.38464 0.97432 0.0
H1512 H 0.38713 0.37294 0.98645 0.0
H1513 H 0.3571 0.44621 0.99398 0.0
H1514 H 0.33545 0.47577 0.01295 0.0
H1515 H 0.37894 0.47244 0.06902 0.0
H1516 H 0.40067 0.44263 0.05049 0.0
H1517 H 0.48934 0.41735 0.9407 0.0
H1518 H 0.44971 0.40947 0.95272 0.0
H1519 H 0.46607 0.42602 0.02042 0.0
H1520 H 0.50623 0.43468 0.00824 0.0
H1521 H 0.42563 0.44257 0.01092 0.0
H1522 H 0.45698 0.37119 1.00364 0.0
H1523 H 0.47823 0.34048 0.98629 0.0
H1524 H 0.43217 0.33869 0.93196 0.0
H1525 H 0.41084 0.3696 0.94882 0.0
C1526 C 0.32289 0.39274 0.02908 0.0
C1527 C 0.30994 0.38695 0.01041 0.0
C1528 C 0.34619 0.39932 0.02648 0.0
C1529 C 0.35695 0.40022 0.00519 0.0
C1530 C 0.34378 0.39541 0.98654 0.0
C1531 C 0.32054 0.38897 0.98909 0.0
C1532 C 0.38225 0.40453 1.00222 0.0
C1533 C 0.3955 0.38827 0.9916 0.0
C1534 C 0.39338 0.4241 0.00984 0.0
C1535 C 0.38034 0.44201 0.02096 0.0
C1536 C 0.36191 0.45163 0.01044 0.0
C1537 C 0.34966 0.46847 0.0211 0.0
C1538 C 0.35577 0.47593 0.04221 0.0
C1539 C 0.3742 0.46661 0.05269 0.0
C1540 C 0.3865 0.44976 0.04211 0.0
C1541 C 0.4847 0.41925 0.95822 0.0
C1542 C 0.50114 0.42648 0.97354 0.0
C1543 C 0.46192 0.4146 0.9651 0.0
C1544 C 0.45488 0.41663 0.98758 0.0
C1545 C 0.4711 0.42415 1.003 0.0
C1546 C 0.49406 0.42903 0.99604 0.0
C1547 C 0.43043 0.41121 0.99449 0.0
C1548 C 0.41733 0.42716 0.00595 0.0
C1549 C 0.41939 0.3912 0.98786 0.0
C1550 C 0.43241 0.37283 0.97744 0.0
C1551 C 0.4515 0.36438 0.9879 0.0
C1552 C 0.46354 0.34691 0.97816 0.0
C1553 C 0.45658 0.33767 0.95801 0.0
C1554 C 0.43758 0.34589 0.94754 0.0
C1555 C 0.4255 0.36339 0.95718 0.0
H1556 H 0.46589 0.32411 0.95053 0.0
H1557 H 0.34626 0.48896 0.05043 0.0
H1558 H 0.79987 0.13492 0.03214 0.0
H1559 H 0.83633 0.11655 0.03618 0.0
H1560 H 0.86523 0.15097 0.97887 0.0
H1561 H 0.82827 0.16861 0.97415 0.0
H1562 H 0.88196 0.11227 0.97827 0.0
H1563 H 0.8752 0.16741 0.03487 0.0
H1564 H 0.857 0.18766 0.06638 0.0
H1565 H 0.85735 0.12964 0.10644 0.0
H1566 H 0.87516 0.10891 0.07507 0.0
H1567 H 1.00007 0.10179 0.01086 0.0
H1568 H 0.96245 0.11644 1.00243 0.0
H1569 H 0.9288 0.0686 0.04586 0.0
H1570 H 0.96631 0.0535 0.05396 0.0
H1571 H 0.91538 0.11442 0.05309 0.0
H1572 H 0.92364 0.0602 0.9941 0.0
H1573 H 0.94375 0.04255 0.96208 0.0
H1574 H 0.9435 0.10315 0.92603 0.0
H1575 H 0.92368 0.12127 0.95799 0.0
C1576 C 0.81388 0.13836 0.0202 0.0
C1577 C 0.81113 0.15331 1.00286 0.0
C1578 C 0.83487 0.12798 0.02264 0.0
C1579 C 0.85396 0.13275 0.00824 0.0
C1580 C 0.85094 0.14701 0.99034 0.0
C1581 C 0.82974 0.15709 0.98761 0.0
C1582 C 0.87707 0.12334 0.01227 0.0
C1583 C 0.88931 0.11303 0.9946 0.0
C1584 C 0.88691 0.1241 0.03358 0.0
C1585 C 0.87632 0.13655 0.05254 0.0
C1586 C 0.87126 0.15893 0.05035 0.0
C1587 C 0.86103 0.1705 0.06818 0.0
C1588 C 0.856 0.15993 0.08837 0.0
C1589 C 0.86123 0.13779 0.09078 0.0
C1590 C 0.87139 0.12612 0.07298 0.0
C1591 C 0.98465 0.09424 0.01846 0.0
C1592 C 0.98624 0.07641 0.03305 0.0
C1593 C 0.96314 0.10263 0.01361 0.0
C1594 C 0.94276 0.09364 0.0235 0.0
C1595 C 0.94427 0.07581 0.03802 0.0
C1596 C 0.96574 0.06713 0.04255 0.0
C1597 C 0.91994 0.10323 0.0192 0.0
C1598 C 0.90789 0.11368 0.03681 0.0
C1599 C 0.91057 0.10304 0.99778 0.0
C1600 C 0.92239 0.09215 0.97853 0.0
C1601 C 0.92806 0.06982 0.97943 0.0
C1602 C 0.93937 0.05972 0.96127 0.0
C1603 C 0.94496 0.07174 0.94205 0.0
C1604 C 0.93919 0.09387 0.94094 0.0
C1605 C 0.9279 0.10406 0.95906 0.0
H1606 H 0.95371 0.06389 0.92801 0.0
H1607 H 0.84809 0.16892 0.10215 0.0
H1608 H 0.99983 0.17645 0.27309 0.0
H1609 H 1.00415 0.15308 0.24028 0.0
H1610 H 0.0754 0.17436 0.23211 0.0
H1611 H 0.07111 0.19839 0.26515 0.0
H1612 H 0.05338 0.17412 0.1926 0.0
H1613 H 0.0618 0.12339 0.25163 0.0
H1614 H 0.0516 0.10515 0.2872 0.0
H1615 H 0.98744 0.08169 0.26113 0.0
H1616 H 0.9971 0.10006 0.2255 0.0
H1617 H 0.07617 0.09685 0.1082 0.0
H1618 H 0.07719 0.1158 0.1441 0.0
H1619 H 0.00654 0.09514 0.15847 0.0
H1620 H 0.00602 0.07475 0.12277 0.0
H1621 H 0.0308 0.09469 0.19534 0.0
H1622 H 0.02147 0.148 0.13729 0.0
H1623 H 0.03334 0.16282 0.10048 0.0
H1624 H 0.10025 0.1802 0.12446 0.0
H1625 H 0.08885 0.16527 0.1614 0.0
C1626 C 0.01653 0.17619 0.26448 0.0
C1627 C 0.03518 0.18929 0.27188 0.0
C1628 C 0.01896 0.16268 0.2457 0.0
C1629 C 0.04016 0.16169 0.23387 0.0
C1630 C 0.05889 0.17479 0.24106 0.0
C1631 C 0.05645 0.18843 0.25998 0.0
C1632 C 0.04231 0.1472 0.21383 0.0
C1633 C 0.0488 0.1567 0.19328 0.0
C1634 C 0.0359 0.12452 0.21458 0.0
C1635 C 0.03011 0.11325 0.23593 0.0
C1636 C 0.04544 0.11447 0.25353 0.0
C1637 C 0.03977 0.10409 0.2737 0.0
C1638 C 0.01886 0.09231 0.27644 0.0
C1639 C 1.00362 0.09083 0.25899 0.0
C1640 C 0.0092 0.10121 0.23879 0.0
C1641 C 0.06087 0.09625 0.11909 0.0
C1642 C 0.04085 0.08473 0.11264 0.0
C1643 C 0.06146 0.10714 0.13957 0.0
C1644 C 0.04171 0.10756 0.15371 0.0
C1645 C 0.02192 0.09525 0.14773 0.0
C1646 C 0.02156 0.0837 0.12737 0.0
C1647 C 0.04158 0.12165 0.17415 0.0
C1648 C 0.03543 0.11211 0.19472 0.0
C1649 C 0.04829 0.14429 0.17343 0.0
C1650 C 0.05435 0.15539 0.15205 0.0
C1651 C 0.03866 0.15512 0.13476 0.0
C1652 C 0.04533 0.16346 0.11385 0.0
C1653 C 0.06759 0.17226 0.1101 0.0
C1654 C 0.08305 0.17327 0.12739 0.0
C1655 C 0.07647 0.16494 0.14834 0.0
H1656 H 0.07286 0.17826 0.09377 0.0
H1657 H 0.0145 0.08429 0.29208 0.0
H1658 H 0.94707 0.25015 0.2728 0.0
H1659 H 0.93842 0.27701 0.24397 0.0
H1660 H 1.0008 0.31382 0.25825 0.0
H1661 H 0.00948 0.28751 0.28675 0.0
H1662 H 0.9555 0.33868 0.2548 0.0
H1663 H 0.00711 0.28464 0.21852 0.0
H1664 H 0.01602 0.24671 0.20667 0.0
H1665 H 0.95382 0.24248 0.17013 0.0
H1666 H 0.94438 0.28031 0.18209 0.0
H1667 H 0.99578 0.41268 0.17253 0.0
H1668 H 0.99181 0.38349 0.20024 0.0
H1669 H 0.94391 0.34794 0.15888 0.0
H1670 H 0.94789 0.37692 0.13118 0.0
H1671 H 0.97265 0.3203 0.17541 0.0
H1672 H 0.92505 0.37655 0.20514 0.0
H1673 H 0.91426 0.41385 0.21744 0.0
H1674 H 0.96581 0.41377 0.2669 0.0
H1675 H 0.97718 0.37662 0.25465 0.0
C1676 C 0.95871 0.26416 0.26993 0.0
C1677 C 0.97898 0.26671 0.28193 0.0
C1678 C 0.9538 0.27938 0.25348 0.0
C1679 C 0.96894 0.29739 0.24921 0.0
C1680 C 0.9888 0.30016 0.26155 0.0
C1681 C 0.9938 0.28499 0.2777 0.0
C1682 C 0.96502 0.31322 0.23138 0.0
C1683 C 0.95936 0.33479 0.23744 0.0
C1684 C 0.9691 0.30777 0.20872 0.0
C1685 C 0.97488 0.28514 0.20145 0.0
C1686 C 0.99522 0.27553 0.20816 0.0
C1687 C 1.00039 0.25408 0.20138 0.0
C1688 C 0.98546 0.24216 0.18772 0.0
C1689 C 0.96535 0.2517 0.18075 0.0
C1690 C 0.96008 0.27314 0.18753 0.0
C1691 C 0.98443 0.39864 0.16937 0.0
C1692 C 0.97225 0.39713 0.14962 0.0
C1693 C 0.98208 0.382 0.18523 0.0
C1694 C 0.96726 0.36368 0.1818 0.0
C1695 C 0.95543 0.36191 0.1619 0.0
C1696 C 0.95786 0.37847 0.14599 0.0
C1697 C 0.96433 0.34628 0.1989 0.0
C1698 C 0.96856 0.32434 0.1927 0.0
C1699 C 0.95878 0.35141 0.22148 0.0
C1700 C 0.95209 0.37384 0.22884 0.0
C1701 C 0.93423 0.38456 0.21851 0.0
C1702 C 0.92799 0.40567 0.22549 0.0
C1703 C 0.93938 0.4162 0.24291 0.0
C1704 C 0.95701 0.40561 0.2534 0.0
C1705 C 0.96335 0.38451 0.24645 0.0
H1706 H 0.93451 0.43254 0.2483 0.0
H1707 H 0.9895 0.22555 0.18248 0.0
H1708 H 0.03869 0.78655 0.20986 0.0
H1709 H 0.05044 0.81334 0.23794 0.0
H1710 H 0.10229 0.76943 0.25927 0.0
H1711 H 0.09056 0.74236 0.23065 0.0
H1712 H 0.07346 0.78275 0.29354 0.0
H1713 H 0.12025 0.81861 0.23856 0.0
H1714 H 0.13217 0.83492 0.20245 0.0
H1715 H 0.07803 0.88147 0.20949 0.0
H1716 H 0.06565 0.86536 0.24557 0.0
H1717 H 0.08065 0.86733 0.37765 0.0
H1718 H 0.09335 0.84232 0.34779 0.0
H1719 H 0.04353 0.86905 0.30472 0.0
H1720 H 0.03136 0.89461 0.33413 0.0
H1721 H 0.08455 0.86329 0.28293 0.0
H1722 H 0.03296 0.82052 0.33329 0.0
H1723 H 0.02162 0.80494 0.36992 0.0
H1724 H 0.08564 0.77132 0.37113 0.0
H1725 H 0.09743 0.78689 0.33457 0.0
C1726 C 0.0529 0.78275 0.22025 0.0
C1727 C 0.06362 0.76237 0.21829 0.0
C1728 C 0.05975 0.79817 0.23617 0.0
C1729 C 0.07736 0.79347 0.25061 0.0
C1730 C 0.08877 0.77341 0.24816 0.0
C1731 C 0.08212 0.75803 0.23185 0.0
C1732 C 0.08133 0.80846 0.26981 0.0
C1733 C 0.07661 0.8003 0.29129 0.0
C1734 C 0.08515 0.83137 0.26687 0.0
C1735 C 0.09203 0.84075 0.24482 0.0
C1736 C 0.11077 0.83222 0.23235 0.0
C1737 C 0.11767 0.8415 0.21193 0.0
C1738 C 0.10596 0.85931 0.20377 0.0
C1739 C 0.08719 0.86777 0.21591 0.0
C1740 C 0.08026 0.8586 0.23638 0.0
C1741 C 0.07258 0.86809 0.36175 0.0
C1742 C 0.05485 0.88292 0.35834 0.0
C1743 C 0.07977 0.85366 0.34475 0.0
C1744 C 0.06925 0.8537 0.32411 0.0
C1745 C 0.05188 0.86874 0.32054 0.0
C1746 C 0.04474 0.88318 0.33746 0.0
C1747 C 0.07549 0.83764 0.3063 0.0
C1748 C 0.08213 0.84566 0.28518 0.0
C1749 C 0.07341 0.81462 0.30956 0.0
C1750 C 0.06619 0.80507 0.33137 0.0
C1751 C 0.04466 0.80991 0.34145 0.0
C1752 C 0.03815 0.80106 0.36217 0.0
C1753 C 0.05294 0.78721 0.37289 0.0
C1754 C 0.07423 0.78209 0.36284 0.0
C1755 C 0.08083 0.7909 0.34211 0.0
H1756 H 0.04789 0.78041 0.38895 0.0
H1757 H 0.11135 0.86649 0.18796 0.0
H1758 H 0.97002 0.69707 0.24426 0.0
H1759 H 0.96509 0.67197 0.2758 0.0
H1760 H 0.0246 0.63642 0.25241 0.0
H1761 H 0.02985 0.66159 0.22097 0.0
H1762 H 0.98597 0.60865 0.26819 0.0
H1763 H 0.03307 0.67049 0.29156 0.0
H1764 H 0.04295 0.70992 0.2968 0.0
H1765 H 0.98165 0.71781 0.33789 0.0
H1766 H 0.97121 0.67848 0.3326 0.0
H1767 H 0.99797 0.55513 0.37519 0.0
H1768 H 0.00477 0.57336 0.33894 0.0
H1769 H 0.95535 0.6224 0.35835 0.0
H1770 H 0.94906 0.60486 0.39415 0.0
H1771 H 0.99315 0.64196 0.34343 0.0
H1772 H 0.94427 0.58176 0.31882 0.0
H1773 H 0.9327 0.54273 0.31343 0.0
H1774 H 0.99523 0.5319 0.27502 0.0
H1775 H 0.00726 0.57085 0.28044 0.0
C1776 C 0.98193 0.68379 0.24569 0.0
C1777 C 1.00043 0.68145 0.23018 0.0
C1778 C 0.9791 0.66947 0.26374 0.0
C1779 C 0.99456 0.65239 0.26651 0.0
C1780 C 0.01248 0.64946 0.25058 0.0
C1781 C 0.01551 0.66395 0.2327 0.0
C1782 C 0.99278 0.63852 0.28676 0.0
C1783 C 0.98783 0.61582 0.28466 0.0
C1784 C 0.99497 0.64793 0.30822 0.0
C1785 C 1.00125 0.67158 0.3115 0.0
C1786 C 0.02159 0.68067 0.30155 0.0
C1787 C 0.02731 0.703 0.30456 0.0
C1788 C 0.01291 0.71638 0.31763 0.0
C1789 C 0.99278 0.70744 0.32775 0.0
C1790 C 0.98696 0.68512 0.32477 0.0
C1791 C 0.98848 0.56968 0.37152 0.0
C1792 C 0.97332 0.57878 0.38765 0.0
C1793 C 0.99232 0.58007 0.35083 0.0
C1794 C 0.98072 0.59944 0.34594 0.0
C1795 C 0.96481 0.60775 0.36176 0.0
C1796 C 0.96124 0.59765 0.38229 0.0
C1797 C 0.98563 0.61205 0.32507 0.0
C1798 C 0.99137 0.63462 0.32701 0.0
C1799 C 0.98393 0.60252 0.30355 0.0
C1800 C 0.97678 0.57912 0.30028 0.0
C1801 C 0.95563 0.571 0.30941 0.0
C1802 C 0.94897 0.54891 0.30631 0.0
C1803 C 0.96326 0.53482 0.29396 0.0
C1804 C 0.9842 0.54282 0.28462 0.0
C1805 C 0.99094 0.5649 0.28769 0.0
H1806 H 0.95808 0.51773 0.29156 0.0
H1807 H 0.01737 0.73365 0.31995 0.0
H1808 H 0.27503 0.99916 0.16766 0.0
H1809 H 0.24457 0.00368 0.14126 0.0
H1810 H 0.21693 0.0564 0.18199 0.0
H1811 H 0.24822 0.05263 0.20783 0.0
H1812 H 0.20198 0.99687 0.14433 0.0
H1813 H 0.1855 0.09069 0.15269 0.0
H1814 H 0.20744 0.12545 0.15897 0.0
H1815 H 0.26919 0.09583 0.13289 0.0
H1816 H 0.24756 0.061 0.12619 0.0
H1817 H 0.09223 0.01853 0.10354 0.0
H1818 H 0.12684 0.01484 0.1249 0.0
H1819 H 0.16523 0.05602 0.07782 0.0
H1820 H 0.13024 0.06069 0.05708 0.0
H1821 H 0.17687 0.06829 0.11588 0.0
H1822 H 0.1714 0.99721 0.08189 0.0
H1823 H 0.15285 0.9619 0.0709 0.0
H1824 H 0.14165 0.94496 0.13965 0.0
H1825 H 0.15986 0.98031 0.15107 0.0
C1826 C 0.26263 0.01193 0.17081 0.0
C1827 C 0.26405 0.02559 0.1898 0.0
C1828 C 0.24511 0.01445 0.15574 0.0
C1829 C 0.22832 0.03045 0.15943 0.0
C1830 C 0.22985 0.04424 0.17836 0.0
C1831 C 0.24773 0.04205 0.19321 0.0
C1832 C 0.20876 0.03196 0.14399 0.0
C1833 C 0.1966 0.01253 0.13808 0.0
C1834 C 0.20181 0.05224 0.13532 0.0
C1835 C 0.21494 0.07317 0.13916 0.0
C1836 C 0.20374 0.09162 0.14823 0.0
C1837 C 0.21613 0.11133 0.15187 0.0
C1838 C 0.23971 0.11282 0.1464 0.0
C1839 C 0.25094 0.09463 0.1372 0.0
C1840 C 0.23863 0.07489 0.1335 0.0
C1841 C 0.10813 0.02652 0.09754 0.0
C1842 C 0.1085 0.03979 0.07852 0.0
C1843 C 0.128 0.02437 0.10977 0.0
C1844 C 0.14893 0.0349 0.10293 0.0
C1845 C 0.1494 0.04775 0.08359 0.0
C1846 C 0.1294 0.05029 0.07162 0.0
C1847 C 0.17002 0.03323 0.11636 0.0
C1848 C 0.18238 0.05263 0.12201 0.0
C1849 C 0.17768 0.01283 0.12411 0.0
C1850 C 0.16683 0.99149 0.11733 0.0
C1851 C 0.16485 0.98601 0.09467 0.0
C1852 C 0.15441 0.96599 0.08836 0.0
C1853 C 0.14603 0.95122 0.10457 0.0
C1854 C 0.14813 0.95643 0.12712 0.0
C1855 C 0.15853 0.97644 0.13352 0.0
H1856 H 0.13795 0.93573 0.09965 0.0
H1857 H 0.24926 0.12809 0.14925 0.0
H1858 H 0.73904 0.43157 0.23035 0.0
H1859 H 0.76614 0.42476 0.19882 0.0
H1860 H 0.77711 0.49482 0.19088 0.0
H1861 H 0.7499 0.50167 0.22159 0.0
H1862 H 0.77444 0.47708 0.15181 0.0
H1863 H 0.8151 0.46041 0.21871 0.0
H1864 H 0.82161 0.44033 0.25326 0.0
H1865 H 0.82338 0.37929 0.21653 0.0
H1866 H 0.8166 0.399 0.18179 0.0
H1867 H 0.9051 0.46595 0.12521 0.0
H1868 H 0.87093 0.46596 0.14985 0.0
H1869 H 0.82887 0.44544 0.09521 0.0
H1870 H 0.86332 0.44581 0.07013 0.0
H1871 H 0.84358 0.43279 0.16228 0.0
H1872 H 0.77325 0.46451 0.10716 0.0
H1873 H 0.76923 0.48788 0.07428 0.0
H1874 H 0.83089 0.52446 0.09038 0.0
H1875 H 0.83509 0.50149 0.12347 0.0
C1876 C 0.74728 0.44548 0.22186 0.0
C1877 C 0.74237 0.46715 0.22864 0.0
C1878 C 0.76276 0.44158 0.20382 0.0
C1879 C 0.77386 0.45928 0.19246 0.0
C1880 C 0.76874 0.48085 0.19916 0.0
C1881 C 0.75321 0.48474 0.21692 0.0
C1882 C 0.79146 0.45582 0.17412 0.0
C1883 C 0.78945 0.46721 0.15406 0.0
C1884 C 0.81112 0.44296 0.17686 0.0
C1885 C 0.81501 0.43112 0.19774 0.0
C1886 C 0.81667 0.44268 0.21805 0.0
C1887 C 0.82045 0.43137 0.23765 0.0
C1888 C 0.82282 0.40854 0.2371 0.0
C1889 C 0.82147 0.39696 0.21694 0.0
C1890 C 0.81766 0.40819 0.19729 0.0
C1891 C 0.88855 0.46174 0.11829 0.0
C1892 C 0.88692 0.456 0.09567 0.0
C1893 C 0.86901 0.46158 0.13248 0.0
C1894 C 0.84728 0.45558 0.1245 0.0
C1895 C 0.84541 0.45031 0.10175 0.0
C1896 C 0.86507 0.45064 0.08741 0.0
C1897 C 0.82696 0.45473 0.14039 0.0
C1898 C 0.82837 0.44234 0.15987 0.0
C1899 C 0.80703 0.46708 0.13733 0.0
C1900 C 0.80464 0.48108 0.11758 0.0
C1901 C 0.78592 0.47756 0.10367 0.0
C1902 C 0.78361 0.49074 0.08501 0.0
C1903 C 0.79986 0.50758 0.08019 0.0
C1904 C 0.81839 0.51134 0.09407 0.0
C1905 C 0.82076 0.49822 0.11276 0.0
H1906 H 0.79804 0.51776 0.06573 0.0
H1907 H 0.82576 0.39981 0.25229 0.0
H1908 H 0.24705 0.00612 0.2742 0.0
H1909 H 0.21865 0.99863 0.30406 0.0
H1910 H 0.23728 0.93039 0.30371 0.0
H1911 H 0.26603 0.93777 0.27343 0.0
H1912 H 0.18841 0.93807 0.30855 0.0
H1913 H 0.25982 0.96356 0.33974 0.0
H1914 H 0.29278 0.98979 0.3422 0.0
H1915 H 0.24722 0.04115 0.36277 0.0
H1916 H 0.21378 0.01556 0.35944 0.0
H1917 H 0.12782 0.91649 0.40874 0.0
H1918 H 0.16018 0.91938 0.38167 0.0
H1919 H 0.15729 0.99032 0.38509 0.0
H1920 H 0.1255 0.98732 0.41316 0.0
H1921 H 0.20014 0.97913 0.37933 0.0
H1922 H 0.13003 0.95908 0.34439 0.0
H1923 H 0.09445 0.93731 0.33755 0.0
H1924 H 0.13436 0.88044 0.32166 0.0
H1925 H 0.17023 0.90178 0.3288 0.0
C1926 C 0.24505 0.98943 0.28027 0.0
C1927 C 0.25903 0.97257 0.27162 0.0
C1928 C 0.22879 0.98521 0.29737 0.0
C1929 C 0.2262 0.96408 0.30636 0.0
C1930 C 0.23917 0.94686 0.29704 0.0
C1931 C 0.25555 0.95108 0.27977 0.0
C1932 C 0.21069 0.96053 0.32618 0.0
C1933 C 0.19118 0.94665 0.3242 0.0
C1934 C 0.21397 0.97245 0.34628 0.0
C1935 C 0.23422 0.98762 0.34919 0.0
C1936 C 0.25677 0.98047 0.34466 0.0
C1937 C 0.27557 0.99524 0.3462 0.0
C1938 C 0.27214 0.01707 0.35274 0.0
C1939 C 0.24987 0.02422 0.35772 0.0
C1940 C 0.23097 0.00961 0.35594 0.0
C1941 C 0.1346 0.93268 0.40412 0.0
C1942 C 0.12444 0.95171 0.41297 0.0
C1943 C 0.15288 0.93433 0.38851 0.0
C1944 C 0.16078 0.95505 0.38086 0.0
C1945 C 0.15143 0.97415 0.39066 0.0
C1946 C 0.13338 0.97248 0.40671 0.0
C1947 C 0.1777 0.95669 0.36175 0.0
C1948 C 0.19748 0.97026 0.36383 0.0
C1949 C 0.17436 0.94494 0.34151 0.0
C1950 C 0.15282 0.93198 0.33735 0.0
C1951 C 0.13123 0.94188 0.33963 0.0
C1952 C 0.11101 0.92963 0.33568 0.0
C1953 C 0.11217 0.90753 0.32918 0.0
C1954 C 0.13353 0.89758 0.32671 0.0
C1955 C 0.1538 0.90974 0.33071 0.0
H1956 H 0.09652 0.89815 0.32593 0.0
H1957 H 0.28674 0.02845 0.35392 0.0
H1958 H 0.75509 0.49165 0.31937 0.0
H1959 H 0.78449 0.50272 0.34531 0.0
H1960 H 0.77277 0.57109 0.3322 0.0
H1961 H 0.74314 0.56007 0.30573 0.0
H1962 H 0.81915 0.56249 0.33437 0.0
H1963 H 0.7514 0.54993 0.37948 0.0
H1964 H 0.71608 0.53014 0.39304 0.0
H1965 H 0.75636 0.47612 0.41323 0.0
H1966 H 0.79191 0.49543 0.39949 0.0
H1967 H 0.88894 0.59027 0.42664 0.0
H1968 H 0.85393 0.58756 0.40512 0.0
H1969 H 0.85836 0.5168 0.40323 0.0
H1970 H 0.89343 0.51933 0.42457 0.0
H1971 H 0.81273 0.5323 0.41081 0.0
H1972 H 0.87991 0.54433 0.36145 0.0
H1973 H 0.91506 0.56533 0.34949 0.0
H1974 H 0.87481 0.62213 0.33828 0.0
H1975 H 0.83947 0.60161 0.35073 0.0
C1976 C 0.7587 0.50908 0.32187 0.0
C1977 C 0.74657 0.52499 0.31057 0.0
C1978 C 0.77551 0.51537 0.33682 0.0
C1979 C 0.78053 0.53772 0.34102 0.0
C1980 C 0.76903 0.55374 0.3293 0.0
C1981 C 0.75211 0.54742 0.31422 0.0
C1982 C 0.7977 0.54396 0.35786 0.0
C1983 C 0.81752 0.5563 0.35122 0.0
C1984 C 0.79565 0.53575 0.37983 0.0
C1985 C 0.77433 0.5241 0.38832 0.0
C1986 C 0.75272 0.53377 0.38668 0.0
C1987 C 0.73266 0.52264 0.39441 0.0
C1988 C 0.73397 0.50187 0.40396 0.0
C1989 C 0.75537 0.49221 0.40583 0.0
C1990 C 0.77549 0.50325 0.3981 0.0
C1991 C 0.88224 0.5741 0.42198 0.0
C1992 C 0.89403 0.555 0.42717 0.0
C1993 C 0.86229 0.57261 0.40963 0.0
C1994 C 0.85372 0.552 0.40244 0.0
C1995 C 0.86473 0.53286 0.40864 0.0
C1996 C 0.8848 0.53434 0.42076 0.0
C1997 C 0.83431 0.55032 0.38713 0.0
C1998 C 0.81412 0.53881 0.39408 0.0
C1999 C 0.83595 0.55945 0.36555 0.0
C2000 C 0.85708 0.57151 0.35727 0.0
C2001 C 0.87857 0.56134 0.35657 0.0
C2002 C 0.89854 0.57315 0.3497 0.0
C2003 C 0.89718 0.59507 0.34317 0.0
C2004 C 0.87584 0.60517 0.34339 0.0
C2005 C 0.85584 0.59346 0.35037 0.0
H2006 H 0.91265 0.60423 0.33793 0.0
H2007 H 0.71842 0.49328 0.40993 0.0
H2008 H 0.22606 0.298 0.07011 0.0
H2009 H 0.20029 0.26663 0.08032 0.0
H2010 H 0.16044 0.27778 0.02251 0.0
H2011 H 0.18608 0.30874 0.01215 0.0
H2012 H 0.13312 0.26723 0.06037 0.0
H2013 H 0.20126 0.24139 0.01934 0.0
H2014 H 0.24313 0.23692 0.01348 0.0
H2015 H 0.24574 0.20403 0.07614 0.0
H2016 H 0.20389 0.20862 0.08251 0.0
H2017 H 0.08295 0.17138 0.01704 0.0
H2018 H 0.10389 0.2051 0.02678 0.0
H2019 H 0.13642 0.17143 0.07954 0.0
H2020 H 0.11602 0.13716 0.06927 0.0
H2021 H 0.16757 0.19343 0.05475 0.0
H2022 H 0.09805 0.21394 0.09295 0.0
H2023 H 0.0562 0.21882 0.09896 0.0
H2024 H 0.05595 0.26148 0.04255 0.0
H2025 H 0.09774 0.25682 0.03619 0.0
C2026 C 0.21158 0.29393 0.05982 0.0
C2027 C 0.20818 0.30565 0.04023 0.0
C2028 C 0.19694 0.27601 0.06563 0.0
C2029 C 0.17858 0.26982 0.05207 0.0
C2030 C 0.1745 0.28228 0.0332 0.0
C2031 C 0.18925 0.29989 0.02724 0.0
C2032 C 0.16455 0.24945 0.05624 0.0
C2033 C 0.1406 0.25106 0.05924 0.0
C2034 C 0.17443 0.22842 0.05541 0.0
C2035 C 0.19954 0.22562 0.05155 0.0
C2036 C 0.2108 0.23339 0.03196 0.0
C2037 C 0.23452 0.2308 0.02853 0.0
C2038 C 0.2471 0.22027 0.04447 0.0
C2039 C 0.23598 0.21224 0.06384 0.0
C2040 C 0.21227 0.21483 0.06738 0.0
C2041 C 0.09455 0.17103 0.0307 0.0
C2042 C 0.09801 0.1514 0.04213 0.0
C2043 C 0.10625 0.1905 0.03653 0.0
C2044 C 0.12154 0.19094 0.0541 0.0
C2045 C 0.12461 0.17153 0.066 0.0
C2046 C 0.11287 0.15196 0.06014 0.0
C2047 C 0.13592 0.2111 0.05824 0.0
C2048 C 0.16001 0.20951 0.05666 0.0
C2049 C 0.12615 0.23216 0.06044 0.0
C2050 C 0.10098 0.23487 0.06401 0.0
C2051 C 0.08901 0.2242 0.08173 0.0
C2052 C 0.06533 0.22697 0.08523 0.0
C2053 C 0.05342 0.24035 0.07108 0.0
C2054 C 0.06519 0.25109 0.05347 0.0
C2055 C 0.08889 0.24845 0.04996 0.0
H2056 H 0.03508 0.24246 0.07381 0.0
H2057 H 0.26546 0.21827 0.04177 0.0
H2058 H 0.23086 0.7489 0.45182 0.0
H2059 H 0.20511 0.77965 0.44599 0.0
H2060 H 0.16507 0.76154 0.50506 0.0
H2061 H 0.19064 0.73114 0.51108 0.0
H2062 H 0.1375 0.77161 0.47012 0.0
H2063 H 0.20312 0.80272 0.50791 0.0
H2064 H 0.24452 0.81107 0.51237 0.0
H2065 H 0.24751 0.84614 0.45068 0.0
H2066 H 0.20618 0.83771 0.4457 0.0
H2067 H 0.10978 0.89587 0.49329 0.0
H2068 H 0.13368 0.86363 0.4974 0.0
H2069 H 0.10811 0.83611 0.4363 0.0
H2070 H 0.0839 0.86788 0.43234 0.0
H2071 H 0.16849 0.84855 0.472 0.0
H2072 H 0.10832 0.78088 0.43705 0.0
H2073 H 0.06671 0.77268 0.43381 0.0
H2074 H 0.05225 0.81076 0.49306 0.0
H2075 H 0.09379 0.81904 0.49674 0.0
C2076 C 0.21646 0.75139 0.46344 0.0
C2077 C 0.21291 0.73761 0.48197 0.0
C2078 C 0.20181 0.76901 0.46015 0.0
C2079 C 0.18319 0.77299 0.47517 0.0
C2080 C 0.17927 0.75883 0.49324 0.0
C2081 C 0.19401 0.74148 0.4967 0.0
C2082 C 0.16809 0.79222 0.47264 0.0
C2083 C 0.14431 0.78842 0.47039 0.0
C2084 C 0.17684 0.81421 0.47328 0.0
C2085 C 0.20163 0.81939 0.47632 0.0
C2086 C 0.21266 0.81206 0.49521 0.0
C2087 C 0.2361 0.81683 0.49785 0.0
C2088 C 0.24866 0.82907 0.48179 0.0
C2089 C 0.23778 0.83662 0.46309 0.0
C2090 C 0.21434 0.83187 0.46036 0.0
C2091 C 0.10896 0.88279 0.48092 0.0
C2092 C 0.09471 0.88445 0.4626 0.0
C2093 C 0.12279 0.86442 0.48319 0.0
C2094 C 0.12266 0.84726 0.46725 0.0
C2095 C 0.1083 0.84885 0.44905 0.0
C2096 C 0.09442 0.86711 0.44682 0.0
C2097 C 0.13784 0.82797 0.4694 0.0
C2098 C 0.16166 0.83174 0.47156 0.0
C2099 C 0.1291 0.80594 0.4688 0.0
C2100 C 0.10413 0.8007 0.46706 0.0
C2101 C 0.09626 0.7874 0.44945 0.0
C2102 C 0.07269 0.78277 0.44751 0.0
C2103 C 0.05684 0.79123 0.4632 0.0
C2104 C 0.06454 0.80428 0.48089 0.0
C2105 C 0.08809 0.80897 0.48288 0.0
H2106 H 0.0386 0.78764 0.46167 0.0
H2107 H 0.2668 0.83275 0.48386 0.0
H2108 H 0.80547 0.80847 0.46178 0.0
H2109 H 0.83147 0.7779 0.45451 0.0
H2110 H 0.8238 0.759 0.52347 0.0
H2111 H 0.79902 0.79009 0.53094 0.0
H2112 H 0.86517 0.75485 0.51244 0.0
H2113 H 0.79547 0.73127 0.47795 0.0
H2114 H 0.76288 0.73366 0.45297 0.0
H2115 H 0.81 0.73641 0.3963 0.0
H2116 H 0.8429 0.73432 0.42098 0.0
H2117 H 0.90293 0.6434 0.49741 0.0
H2118 H 0.87617 0.67395 0.50262 0.0
H2119 H 0.90677 0.70572 0.44455 0.0
H2120 H 0.93378 0.67558 0.43965 0.0
H2121 H 0.85431 0.70272 0.44929 0.0
H2122 H 0.92394 0.7259 0.48714 0.0
H2123 H 0.9544 0.72077 0.514 0.0
H2124 H 0.90323 0.71515 0.56715 0.0
H2125 H 0.87244 0.71992 0.54051 0.0
C2126 C 0.80943 0.79778 0.47534 0.0
C2127 C 0.80025 0.80166 0.49691 0.0
C2128 C 0.82415 0.7802 0.47116 0.0
C2129 C 0.82937 0.7658 0.48835 0.0
C2130 C 0.8202 0.76983 0.5099 0.0
C2131 C 0.80598 0.78763 0.51416 0.0
C2132 C 0.84452 0.74666 0.48419 0.0
C2133 C 0.86249 0.74336 0.49876 0.0
C2134 C 0.84139 0.73164 0.46622 0.0
C2135 C 0.82165 0.73287 0.45134 0.0
C2136 C 0.79889 0.73254 0.46018 0.0
C2137 C 0.78036 0.73382 0.44607 0.0
C2138 C 0.78437 0.73525 0.42307 0.0
C2139 C 0.80692 0.73534 0.41412 0.0
C2140 C 0.82552 0.73409 0.42816 0.0
C2141 C 0.90376 0.65687 0.48575 0.0
C2142 C 0.92046 0.65731 0.46827 0.0
C2143 C 0.88857 0.67425 0.48871 0.0
C2144 C 0.88959 0.69204 0.47395 0.0
C2145 C 0.90575 0.69212 0.45607 0.0
C2146 C 0.92122 0.67503 0.4534 0.0
C2147 C 0.87449 0.71105 0.47764 0.0
C2148 C 0.85672 0.71429 0.46295 0.0
C2149 C 0.87738 0.7257 0.49579 0.0
C2150 C 0.89589 0.72302 0.5118 0.0
C2151 C 0.91918 0.72336 0.50452 0.0
C2152 C 0.9365 0.72056 0.51971 0.0
C2153 C 0.93075 0.71757 0.54226 0.0
C2154 C 0.90766 0.71743 0.54967 0.0
C2155 C 0.89027 0.7202 0.53454 0.0
H2156 H 0.94419 0.71541 0.554 0.0
H2157 H 0.77001 0.73623 0.41217 0.0
H2158 H 0.3217 0.71417 0.51965 0.0
H2159 H 0.35243 0.74102 0.52745 0.0
H2160 H 0.30553 0.77705 0.57066 0.0
H2161 H 0.27489 0.74937 0.5636 0.0
H2162 H 0.35513 0.77964 0.51547 0.0
H2163 H 0.33494 0.81091 0.60654 0.0
H2164 H 0.32212 0.79566 0.64289 0.0
H2165 H 0.34499 0.73175 0.62215 0.0
H2166 H 0.35831 0.74667 0.58583 0.0
H2167 H 0.39737 0.88721 0.52729 0.0
H2168 H 0.37525 0.85266 0.52636 0.0
H2169 H 0.41617 0.82714 0.57829 0.0
H2170 H 0.43756 0.86245 0.58019 0.0
H2171 H 0.37494 0.81548 0.58705 0.0
H2172 H 0.42158 0.80947 0.52135 0.0
H2173 H 0.44042 0.82081 0.48573 0.0
H2174 H 0.37428 0.82632 0.45687 0.0
H2175 H 0.35501 0.8153 0.49241 0.0
C2176 C 0.3181 0.7276 0.53118 0.0
C2177 C 0.29596 0.72985 0.54094 0.0
C2178 C 0.33566 0.74296 0.5356 0.0
C2179 C 0.3314 0.76119 0.54956 0.0
C2180 C 0.30945 0.76298 0.5601 0.0
C2181 C 0.2919 0.74724 0.55602 0.0
C2182 C 0.34921 0.77926 0.5511 0.0
C2183 C 0.35952 0.78732 0.5312 0.0
C2184 C 0.35556 0.78904 0.57158 0.0
C2185 C 0.34737 0.77988 0.59333 0.0
C2186 C 0.33728 0.79361 0.60974 0.0
C2187 C 0.32993 0.78502 0.63036 0.0
C2188 C 0.33266 0.76274 0.6348 0.0
C2189 C 0.34279 0.74899 0.61865 0.0
C2190 C 0.3502 0.7575 0.59803 0.0
C2191 C 0.40194 0.87414 0.53827 0.0
C2192 C 0.41938 0.87747 0.55364 0.0
C2193 C 0.38928 0.8543 0.5377 0.0
C2194 C 0.39426 0.837 0.55194 0.0
C2195 C 0.41199 0.84016 0.56708 0.0
C2196 C 0.42433 0.86027 0.56803 0.0
C2197 C 0.38033 0.81604 0.55139 0.0
C2198 C 0.37071 0.80754 0.57141 0.0
C2199 C 0.37536 0.80515 0.5311 0.0
C2200 C 0.38685 0.81168 0.50961 0.0
C2201 C 0.41104 0.81322 0.50745 0.0
C2202 C 0.4218 0.81958 0.48727 0.0
C2203 C 0.40855 0.82431 0.46906 0.0
C2204 C 0.38452 0.82265 0.47099 0.0
C2205 C 0.37367 0.81631 0.49114 0.0
H2206 H 0.41692 0.82924 0.45346 0.0
H2207 H 0.32696 0.75613 0.65077 0.0
H2208 H 0.54948 0.67264 0.78614 0.0
H2209 H 0.55241 0.64904 0.75272 0.0
H2210 H 0.51058 0.69409 0.7178 0.0
H2211 H 0.50668 0.71678 0.75152 0.0
H2212 H 0.49477 0.65617 0.71046 0.0
H2213 H 0.57182 0.6868 0.70785 0.0
H2214 H 0.6108 0.69616 0.72062 0.0
H2215 H 0.62415 0.62748 0.72786 0.0
H2216 H 0.58507 0.61771 0.7155 0.0
H2217 H 0.52623 0.62399 0.59786 0.0
H2218 H 0.5244 0.64358 0.6337 0.0
H2219 H 0.53371 0.58262 0.66782 0.0
H2220 H 0.53483 0.56271 0.63195 0.0
H2221 H 0.56604 0.625 0.67665 0.0
H2222 H 0.48742 0.59596 0.67733 0.0
H2223 H 0.44966 0.58888 0.66075 0.0
H2224 H 0.44115 0.65841 0.65354 0.0
H2225 H 0.47906 0.66588 0.66977 0.0
C2226 C 0.54135 0.67758 0.77112 0.0
C2227 C 0.52806 0.69652 0.77116 0.0
C2228 C 0.54303 0.66415 0.75201 0.0
C2229 C 0.53184 0.66976 0.73254 0.0
C2230 C 0.51928 0.68924 0.73254 0.0
C2231 C 0.5172 0.70232 0.75172 0.0
C2232 C 0.53176 0.65484 0.71262 0.0
C2233 C 0.51048 0.64961 0.70306 0.0
C2234 C 0.55209 0.64567 0.70304 0.0
C2235 C 0.57537 0.65154 0.71105 0.0
C2236 C 0.58294 0.6737 0.71244 0.0
C2237 C 0.60508 0.67908 0.71955 0.0
C2238 C 0.6199 0.66243 0.72514 0.0
C2239 C 0.61262 0.64036 0.72361 0.0
C2240 C 0.59047 0.6349 0.71656 0.0
C2241 C 0.52751 0.6147 0.61301 0.0
C2242 C 0.53052 0.59181 0.61214 0.0
C2243 C 0.52654 0.62591 0.63343 0.0
C2244 C 0.52903 0.61453 0.65332 0.0
C2245 C 0.53178 0.59164 0.65259 0.0
C2246 C 0.53222 0.5803 0.63216 0.0
C2247 C 0.52926 0.62685 0.67471 0.0
C2248 C 0.55047 0.63154 0.6844 0.0
C2249 C 0.50902 0.6359 0.68419 0.0
C2250 C 0.48618 0.63145 0.67454 0.0
C2251 C 0.47761 0.60972 0.672 0.0
C2252 C 0.45615 0.60564 0.66271 0.0
C2253 C 0.44304 0.62318 0.65604 0.0
C2254 C 0.45134 0.64484 0.65869 0.0
C2255 C 0.47279 0.649 0.66795 0.0
H2256 H 0.42643 0.61999 0.64885 0.0
H2257 H 0.63706 0.66663 0.73058 0.0
H2258 H 0.49684 0.78549 0.78467 0.0
H2259 H 0.48396 0.81378 0.76026 0.0
H2260 H 0.41613 0.783 0.76014 0.0
H2261 H 0.42904 0.75411 0.78491 0.0
H2262 H 0.43293 0.79524 0.71757 0.0
H2263 H 0.42195 0.82976 0.78802 0.0
H2264 H 0.43092 0.84186 0.82612 0.0
H2265 H 0.4888 0.8805 0.80066 0.0
H2266 H 0.48047 0.86838 0.76243 0.0
H2267 H 0.41454 0.89144 0.65116 0.0
H2268 H 0.40822 0.86413 0.68062 0.0
H2269 H 0.47771 0.87622 0.70169 0.0
H2270 H 0.48418 0.90318 0.67244 0.0
H2271 H 0.44747 0.87396 0.73681 0.0
H2272 H 0.46254 0.83198 0.66787 0.0
H2273 H 0.45327 0.82064 0.62959 0.0
H2274 H 0.38648 0.79668 0.65276 0.0
H2275 H 0.39528 0.80816 0.69115 0.0
C2276 C 0.47913 0.7846 0.77957 0.0
C2277 C 0.46395 0.76748 0.78681 0.0
C2278 C 0.47175 0.80094 0.76568 0.0
C2279 C 0.449 0.80072 0.75865 0.0
C2280 C 0.43374 0.78355 0.76553 0.0
C2281 C 0.44111 0.76711 0.77969 0.0
C2282 C 0.44195 0.8183 0.74357 0.0
C2283 C 0.43549 0.8125 0.72194 0.0
C2284 C 0.44535 0.84082 0.74926 0.0
C2285 C 0.45059 0.84807 0.7723 0.0
C2286 C 0.4367 0.8407 0.79053 0.0
C2287 C 0.44167 0.84758 0.81216 0.0
C2288 C 0.46043 0.86191 0.81578 0.0
C2289 C 0.47427 0.8694 0.79781 0.0
C2290 C 0.46941 0.86255 0.77615 0.0
C2291 C 0.42848 0.88824 0.66204 0.0
C2292 C 0.4499 0.89955 0.65936 0.0
C2293 C 0.42481 0.87266 0.67891 0.0
C2294 C 0.44253 0.86805 0.69329 0.0
C2295 C 0.46372 0.87961 0.69089 0.0
C2296 C 0.46738 0.89512 0.67414 0.0
C2297 C 0.43971 0.85082 0.71058 0.0
C2298 C 0.44426 0.85674 0.73265 0.0
C2299 C 0.43449 0.82848 0.70529 0.0
C2300 C 0.42946 0.82116 0.68231 0.0
C2301 C 0.44584 0.8244 0.66477 0.0
C2302 C 0.44067 0.81794 0.64307 0.0
C2303 C 0.41926 0.80802 0.63873 0.0
C2304 C 0.40303 0.80442 0.65613 0.0
C2305 C 0.4081 0.81089 0.67786 0.0
H2306 H 0.41527 0.80308 0.62191 0.0
H2307 H 0.46425 0.86723 0.8325 0.0
H2308 H 0.58585 0.23931 0.7324 0.0
H2309 H 0.5976 0.26435 0.76276 0.0
H2310 H 0.55522 0.31481 0.73717 0.0
H2311 H 0.54321 0.2899 0.70737 0.0
H2312 H 0.59747 0.33126 0.75333 0.0
H2313 H 0.53257 0.2817 0.77423 0.0
H2314 H 0.51452 0.24489 0.78025 0.0
H2315 H 0.56572 0.23039 0.82734 0.0
H2316 H 0.58431 0.26701 0.82128 0.0
H2317 H 0.54502 0.40057 0.83143 0.0
H2318 H 0.55653 0.37391 0.80277 0.0
H2319 H 0.58826 0.33501 0.85226 0.0
H2320 H 0.57611 0.36154 0.88118 0.0
H2321 H 0.56293 0.3096 0.82681 0.0
H2322 H 0.62358 0.36278 0.81058 0.0
H2323 H 0.64137 0.39961 0.8035 0.0
H2324 H 0.59807 0.40762 0.74799 0.0
H2325 H 0.58018 0.37084 0.75457 0.0
C2326 C 0.57963 0.25597 0.73301 0.0
C2327 C 0.56359 0.26277 0.71776 0.0
C2328 C 0.58625 0.27017 0.75033 0.0
C2329 C 0.57715 0.29135 0.75221 0.0
C2330 C 0.56248 0.29857 0.73595 0.0
C2331 C 0.55556 0.28433 0.71902 0.0
C2332 C 0.58039 0.30532 0.77221 0.0
C2333 C 0.59015 0.32652 0.76949 0.0
C2334 C 0.57126 0.29888 0.79335 0.0
C2335 C 0.56003 0.27694 0.79706 0.0
C2336 C 0.54011 0.27058 0.78571 0.0
C2337 C 0.52976 0.24977 0.78915 0.0
C2338 C 0.53902 0.23528 0.80411 0.0
C2339 C 0.55861 0.2416 0.8157 0.0
C2340 C 0.56907 0.26237 0.81226 0.0
C2341 C 0.55447 0.38635 0.83617 0.0
C2342 C 0.55968 0.38311 0.85849 0.0
C2343 C 0.56137 0.37128 0.81975 0.0
C2344 C 0.57376 0.35269 0.82525 0.0
C2345 C 0.57895 0.34935 0.84758 0.0
C2346 C 0.57207 0.36451 0.86406 0.0
C2347 C 0.57939 0.33595 0.80783 0.0
C2348 C 0.57115 0.3142 0.81099 0.0
C2349 C 0.58991 0.34191 0.78707 0.0
C2350 C 0.60045 0.36413 0.78318 0.0
C2351 C 0.61775 0.37248 0.79697 0.0
C2352 C 0.62788 0.3933 0.79302 0.0
C2353 C 0.62073 0.40598 0.77544 0.0
C2354 C 0.60356 0.3978 0.76164 0.0
C2355 C 0.59351 0.37692 0.76539 0.0
H2356 H 0.62857 0.4221 0.77246 0.0
H2357 H 0.53096 0.21919 0.80678 0.0
H2358 H 0.52436 0.16772 0.72448 0.0
H2359 H 0.51955 0.14598 0.75839 0.0
H2360 H 0.46364 0.18678 0.78105 0.0
H2361 H 0.46821 0.20857 0.74699 0.0
H2362 H 0.49726 0.18087 0.81309 0.0
H2363 H 0.45084 0.13588 0.76406 0.0
H2364 H 0.44368 0.11493 0.7295 0.0
H2365 H 0.49998 0.07307 0.74229 0.0
H2366 H 0.50746 0.09379 0.77698 0.0
H2367 H 0.45386 0.12153 0.90541 0.0
H2368 H 0.4597 0.14069 0.87033 0.0
H2369 H 0.50514 0.08997 0.84623 0.0
H2370 H 0.49845 0.07003 0.88131 0.0
H2371 H 0.47915 0.10054 0.81428 0.0
H2372 H 0.52501 0.14322 0.8638 0.0
H2373 H 0.5342 0.1643 0.8978 0.0
H2374 H 0.48275 0.21104 0.88351 0.0
H2375 H 0.47302 0.19007 0.84958 0.0
C2376 C 0.51087 0.17197 0.73657 0.0
C2377 C 0.49664 0.18988 0.73301 0.0
C2378 C 0.50813 0.15947 0.75593 0.0
C2379 C 0.4912 0.1647 0.77223 0.0
C2380 C 0.4768 0.18244 0.76866 0.0
C2381 C 0.47935 0.1948 0.74914 0.0
C2382 C 0.4891 0.15214 0.79334 0.0
C2383 C 0.49297 0.16337 0.81344 0.0
C2384 C 0.48447 0.12915 0.79366 0.0
C2385 C 0.47983 0.1165 0.77299 0.0
C2386 C 0.46177 0.12228 0.75943 0.0
C2387 C 0.45764 0.11044 0.73983 0.0
C2388 C 0.47146 0.09277 0.73361 0.0
C2389 C 0.48932 0.08679 0.74709 0.0
C2390 C 0.49347 0.09853 0.76677 0.0
C2391 C 0.46527 0.11446 0.89276 0.0
C2392 C 0.47589 0.09431 0.89629 0.0
C2393 C 0.46869 0.12555 0.87266 0.0
C2394 C 0.48331 0.11714 0.85568 0.0
C2395 C 0.49388 0.09692 0.85907 0.0
C2396 C 0.49013 0.08556 0.87916 0.0
C2397 C 0.48695 0.12931 0.83431 0.0
C2398 C 0.48349 0.11803 0.81409 0.0
C2399 C 0.49231 0.15226 0.83384 0.0
C2400 C 0.49815 0.16495 0.85424 0.0
C2401 C 0.51554 0.15791 0.86799 0.0
C2402 C 0.52086 0.16985 0.88724 0.0
C2403 C 0.50903 0.18897 0.89284 0.0
C2404 C 0.49189 0.19621 0.87917 0.0
C2405 C 0.48647 0.18432 0.85991 0.0
H2406 H 0.51317 0.19819 0.90775 0.0
H2407 H 0.46827 0.08367 0.71839 0.0
H2408 H 0.76104 0.56683 0.69831 0.0
H2409 H 0.72975 0.57252 0.67272 0.0
H2410 H 0.71343 0.50275 0.67312 0.0
H2411 H 0.74491 0.49697 0.69779 0.0
H2412 H 0.71252 0.51557 0.63307 0.0
H2413 H 0.6809 0.54365 0.70252 0.0
H2414 H 0.67823 0.5674 0.73602 0.0
H2415 H 0.67741 0.62478 0.69504 0.0
H2416 H 0.6805 0.60141 0.66128 0.0
H2417 H 0.59765 0.51498 0.59294 0.0
H2418 H 0.63156 0.51207 0.61583 0.0
H2419 H 0.6511 0.57956 0.60144 0.0
H2420 H 0.61757 0.58257 0.57843 0.0
H2421 H 0.65134 0.56992 0.64681 0.0
H2422 H 0.68109 0.54082 0.57741 0.0
H2423 H 0.68087 0.51631 0.54443 0.0
H2424 H 0.68285 0.45978 0.5865 0.0
H2425 H 0.68269 0.48396 0.61977 0.0
C2426 C 0.75069 0.55276 0.69297 0.0
C2427 C 0.75553 0.53145 0.70007 0.0
C2428 C 0.73273 0.55602 0.6784 0.0
C2429 C 0.71899 0.53808 0.67102 0.0
C2430 C 0.72376 0.51688 0.67836 0.0
C2431 C 0.7418 0.5136 0.69257 0.0
C2432 C 0.69991 0.54098 0.65535 0.0
C2433 C 0.69904 0.52732 0.6363 0.0
C2434 C 0.6825 0.55667 0.65907 0.0
C2435 C 0.68128 0.57078 0.67937 0.0
C2436 C 0.68046 0.56135 0.70065 0.0
C2437 C 0.67881 0.57475 0.71969 0.0
C2438 C 0.67774 0.59759 0.71766 0.0
C2439 C 0.67832 0.60709 0.69659 0.0
C2440 C 0.68004 0.59378 0.6775 0.0
C2441 C 0.60932 0.52911 0.59443 0.0
C2442 C 0.6049 0.54896 0.58377 0.0
C2443 C 0.62868 0.52743 0.60752 0.0
C2444 C 0.64387 0.54562 0.61034 0.0
C2445 C 0.63961 0.56535 0.59954 0.0
C2446 C 0.62047 0.56696 0.58627 0.0
C2447 C 0.66389 0.54427 0.62498 0.0
C2448 C 0.66494 0.55826 0.64369 0.0
C2449 C 0.68133 0.52877 0.6211 0.0
C2450 C 0.68167 0.5142 0.6011 0.0
C2451 C 0.68129 0.52316 0.57965 0.0
C2452 C 0.68127 0.50932 0.56089 0.0
C2453 C 0.68179 0.4865 0.56337 0.0
C2454 C 0.68241 0.47747 0.58461 0.0
C2455 C 0.6824 0.49123 0.60342 0.0
H2456 H 0.68177 0.47581 0.54883 0.0
H2457 H 0.67638 0.60792 0.73241 0.0
H2458 H 0.2422 0.93416 0.72777 0.0
H2459 H 0.26878 0.92759 0.69579 0.0
H2460 H 0.26886 0.99668 0.68002 0.0
H2461 H 0.24229 1.00328 0.71141 0.0
H2462 H 0.2663 0.9725 0.64278 0.0
H2463 H 0.31313 0.97455 0.70725 0.0
H2464 H 0.32513 0.96328 0.74427 0.0
H2465 H 0.3354 0.89748 0.71967 0.0
H2466 H 0.32313 0.9083 0.68256 0.0
H2467 H 0.37371 0.98304 0.57803 0.0
H2468 H 0.33944 0.98592 0.60314 0.0
H2469 H 0.34231 0.91653 0.6171 0.0
H2470 H 0.37655 0.91384 0.59254 0.0
H2471 H 0.34188 0.93931 0.65436 0.0
H2472 H 0.29788 0.93887 0.58842 0.0
H2473 H 0.28642 0.95118 0.55159 0.0
H2474 H 0.27142 0.01507 0.57886 0.0
H2475 H 0.28315 1.00326 0.6158 0.0
C2476 C 0.24786 0.94791 0.71745 0.0
C2477 C 0.24021 0.96926 0.72235 0.0
C2478 C 0.26308 0.94416 0.69918 0.0
C2479 C 0.27099 0.96169 0.68552 0.0
C2480 C 0.26302 0.98287 0.69021 0.0
C2481 C 0.24788 0.98662 0.70835 0.0
C2482 C 0.28809 0.95832 0.66674 0.0
C2483 C 0.28291 0.96541 0.64534 0.0
C2484 C 0.30964 0.94872 0.6699 0.0
C2485 C 0.31693 0.94217 0.69221 0.0
C2486 C 0.31774 0.95763 0.70979 0.0
C2487 C 0.32463 0.95133 0.73078 0.0
C2488 C 0.33094 0.92966 0.73434 0.0
C2489 C 0.33044 0.91425 0.7169 0.0
C2490 C 0.32353 0.92046 0.69589 0.0
C2491 C 0.3664 0.96831 0.58582 0.0
C2492 C 0.37752 0.94817 0.5832 0.0
C2493 C 0.34691 0.96995 0.60028 0.0
C2494 C 0.33827 0.95143 0.61216 0.0
C2495 C 0.34864 0.93107 0.60829 0.0
C2496 C 0.36807 0.9295 0.59408 0.0
C2497 C 0.32015 0.95347 0.63029 0.0
C2498 C 0.3252 0.94623 0.65167 0.0
C2499 C 0.29859 0.96307 0.62708 0.0
C2500 C 0.29167 0.97025 0.60484 0.0
C2501 C 0.29238 0.95562 0.58652 0.0
C2502 C 0.28578 0.9625 0.56563 0.0
C2503 C 0.27827 0.98392 0.56287 0.0
C2504 C 0.27729 0.99849 0.58101 0.0
C2505 C 0.2839 0.99172 0.60193 0.0
H2506 H 0.27315 0.9892 0.54669 0.0
H2507 H 0.33629 0.92482 0.75059 0.0
H2508 H 0.74763 0.50885 0.78414 0.0
H2509 H 0.72243 0.49986 0.81605 0.0
H2510 H 0.74432 0.43257 0.8129 0.0
H2511 H 0.7697 0.44148 0.78037 0.0
H2512 H 0.69805 0.435 0.82203 0.0
H2513 H 0.7658 0.4659 0.85208 0.0
H2514 H 0.79857 0.49225 0.85568 0.0
H2515 H 0.75183 0.54403 0.87203 0.0
H2516 H 0.71873 0.51807 0.86822 0.0
H2517 H 0.63618 0.41925 0.9235 0.0
H2518 H 0.67109 0.42206 0.89941 0.0
H2519 H 0.65795 0.49055 0.88806 0.0
H2520 H 0.6234 0.48784 0.91284 0.0
H2521 H 0.70472 0.48267 0.88934 0.0
H2522 H 0.63706 0.44984 0.85319 0.0
H2523 H 0.60574 0.42151 0.85208 0.0
H2524 H 0.65559 0.37057 0.84959 0.0
H2525 H 0.68718 0.39857 0.85093 0.0
C2526 C 0.74708 0.49207 0.79008 0.0
C2527 C 0.76088 0.47591 0.77985 0.0
C2528 C 0.73271 0.48699 0.80844 0.0
C2529 C 0.73193 0.4657 0.81722 0.0
C2530 C 0.74485 0.44918 0.8065 0.0
C2531 C 0.75928 0.45426 0.78791 0.0
C2532 C 0.71761 0.46116 0.83769 0.0
C2533 C 0.69982 0.44512 0.8369 0.0
C2534 C 0.71991 0.47433 0.85715 0.0
C2535 C 0.73975 0.49004 0.85973 0.0
C2536 C 0.76249 0.48294 0.85631 0.0
C2537 C 0.78113 0.4978 0.85841 0.0
C2538 C 0.77728 0.5198 0.86405 0.0
C2539 C 0.75478 0.52697 0.86766 0.0
C2540 C 0.73607 0.51218 0.86558 0.0
C2541 C 0.64128 0.43505 0.91642 0.0
C2542 C 0.62743 0.45339 0.92001 0.0
C2543 C 0.66107 0.43662 0.90257 0.0
C2544 C 0.66687 0.45641 0.89159 0.0
C2545 C 0.65379 0.47514 0.89636 0.0
C2546 C 0.63413 0.47363 0.91049 0.0
C2547 C 0.68482 0.45701 0.87337 0.0
C2548 C 0.70324 0.47234 0.87458 0.0
C2549 C 0.68336 0.44293 0.85446 0.0
C2550 C 0.66443 0.42626 0.85232 0.0
C2551 C 0.64131 0.43259 0.8524 0.0
C2552 C 0.62353 0.41661 0.85181 0.0
C2553 C 0.62873 0.39429 0.85095 0.0
C2554 C 0.65165 0.38788 0.85042 0.0
C2555 C 0.66948 0.40378 0.85102 0.0
H2556 H 0.61503 0.38196 0.85042 0.0
H2557 H 0.79174 0.53129 0.86564 0.0
H2558 H 0.24335 0.0567 0.81003 0.0
H2559 H 0.27475 0.06407 0.83554 0.0
H2560 H 0.29193 0.99539 0.83259 0.0
H2561 H 0.26035 0.98786 0.80783 0.0
H2562 H 0.29196 0.00862 0.87358 0.0
H2563 H 0.3245 0.03683 0.80456 0.0
H2564 H 0.32628 0.05989 0.77102 0.0
H2565 H 0.32525 0.11832 0.81191 0.0
H2566 H 0.32316 0.09559 0.84572 0.0
H2567 H 0.40651 0.01435 0.91333 0.0
H2568 H 0.37248 0.00958 0.89063 0.0
H2569 H 0.35341 0.07632 0.90597 0.0
H2570 H 0.38719 0.08121 0.92879 0.0
H2571 H 0.35323 0.066 0.8604 0.0
H2572 H 0.32308 0.03657 0.92957 0.0
H2573 H 0.32278 0.01264 0.96243 0.0
H2574 H 0.32092 0.95526 0.92005 0.0
H2575 H 0.32155 0.97886 0.88689 0.0
C2576 C 0.25393 0.04324 0.81475 0.0
C2577 C 0.24933 0.0217 0.80695 0.0
C2578 C 0.27191 0.04746 0.82928 0.0
C2579 C 0.28584 0.03029 0.83592 0.0
C2580 C 0.28138 0.00888 0.82786 0.0
C2581 C 0.26333 0.00462 0.81362 0.0
C2582 C 0.3048 0.0343 0.85157 0.0
C2583 C 0.30548 0.02102 0.87053 0.0
C2584 C 0.3222 0.05081 0.84795 0.0
C2585 C 0.3234 0.06451 0.82765 0.0
C2586 C 0.32445 0.05459 0.80639 0.0
C2587 C 0.32556 0.06761 0.78734 0.0
C2588 C 0.32581 0.09056 0.78933 0.0
C2589 C 0.32501 0.10054 0.81039 0.0
C2590 C 0.32388 0.08761 0.8295 0.0
C2591 C 0.39494 0.02792 0.91207 0.0
C2592 C 0.39954 0.04813 0.9229 0.0
C2593 C 0.37551 0.02517 0.89911 0.0
C2594 C 0.36045 0.04261 0.89666 0.0
C2595 C 0.36485 0.06269 0.90764 0.0
C2596 C 0.3841 0.06538 0.92077 0.0
C2597 C 0.34047 0.0401 0.88208 0.0
C2598 C 0.33962 0.05368 0.86342 0.0
C2599 C 0.32305 0.02372 0.88582 0.0
C2600 C 0.32258 0.00949 0.90574 0.0
C2601 C 0.32281 0.01885 0.92724 0.0
C2602 C 0.32254 0.00535 0.94593 0.0
C2603 C 0.32189 0.98245 0.94333 0.0
C2604 C 0.32145 0.973 0.92204 0.0
C2605 C 0.32174 0.98643 0.90329 0.0
H2606 H 0.32168 0.97202 0.95782 0.0
H2607 H 0.32667 0.1006 0.77456 0.0
H2608 H 0.7424 0.77909 0.52924 0.0
H2609 H 0.7176 0.74634 0.53435 0.0
H2610 H 0.68008 0.77889 0.5879 0.0
H2611 H 0.70552 0.81185 0.58314 0.0
H2612 H 0.6852 0.72932 0.5914 0.0
H2613 H 0.66253 0.7859 0.54125 0.0
H2614 H 0.67059 0.81171 0.51042 0.0
H2615 H 0.68303 0.75743 0.46566 0.0
H2616 H 0.67604 0.73131 0.49641 0.0
H2617 H 0.58701 0.6574 0.57222 0.0
H2618 H 0.61247 0.68908 0.58076 0.0
H2619 H 0.64824 0.68072 0.51712 0.0
H2620 H 0.62225 0.64981 0.50833 0.0
H2621 H 0.64065 0.72122 0.52271 0.0
H2622 H 0.67037 0.6656 0.5695 0.0
H2623 H 0.66829 0.63743 0.59879 0.0
H2624 H 0.64693 0.68613 0.64702 0.0
H2625 H 0.64859 0.71454 0.61794 0.0
C2626 C 0.72928 0.77903 0.54254 0.0
C2627 C 0.72553 0.79797 0.5556 0.0
C2628 C 0.71524 0.7603 0.54551 0.0
C2629 C 0.69683 0.76038 0.56123 0.0
C2630 C 0.69425 0.77857 0.5757 0.0
C2631 C 0.70866 0.79736 0.57293 0.0
C2632 C 0.67841 0.74317 0.55961 0.0
C2633 C 0.67511 0.72767 0.5766 0.0
C2634 C 0.66572 0.74089 0.54 0.0
C2635 C 0.66888 0.75662 0.52125 0.0
C2636 C 0.66718 0.77945 0.52489 0.0
C2637 C 0.67159 0.79415 0.50743 0.0
C2638 C 0.67726 0.78621 0.4861 0.0
C2639 C 0.6786 0.76356 0.4822 0.0
C2640 C 0.67447 0.7488 0.49966 0.0
C2641 C 0.60042 0.66236 0.56019 0.0
C2642 C 0.60264 0.65132 0.53958 0.0
C2643 C 0.61501 0.68037 0.56509 0.0
C2644 C 0.63245 0.68725 0.54967 0.0
C2645 C 0.63484 0.6759 0.52924 0.0
C2646 C 0.62 0.65825 0.5242 0.0
C2647 C 0.64783 0.70667 0.55417 0.0
C2648 C 0.65046 0.72283 0.53769 0.0
C2649 C 0.66027 0.70917 0.57397 0.0
C2650 C 0.65934 0.69214 0.59149 0.0
C2651 C 0.66506 0.67026 0.58632 0.0
C2652 C 0.66399 0.65426 0.60289 0.0
C2653 C 0.65742 0.65998 0.62474 0.0
C2654 C 0.65197 0.68172 0.63008 0.0
C2655 C 0.65299 0.69778 0.61356 0.0
H2656 H 0.6566 0.64757 0.63754 0.0
H2657 H 0.68061 0.79762 0.47259 0.0
H2658 H 0.71573 0.23748 0.95447 0.0
H2659 H 0.68937 0.26755 0.94867 0.0
H2660 H 0.68306 0.2784 0.01967 0.0
H2661 H 0.70851 0.24795 0.02553 0.0
H2662 H 0.64315 0.28173 0.00436 0.0
H2663 H 0.71716 0.31267 0.98248 0.0
H2664 H 0.75451 0.31516 0.96168 0.0
H2665 H 0.71949 0.31751 0.90008 0.0
H2666 H 0.68192 0.31474 0.92051 0.0
H2667 H 0.60024 0.39234 1.0 0.0
H2668 H 0.62419 0.36031 0.00584 0.0
H2669 H 0.61614 0.3401 0.93753 0.0
H2670 H 0.59198 0.3716 0.93166 0.0
H2671 H 0.66274 0.34176 0.95117 0.0
H2672 H 0.58831 0.31177 0.97501 0.0
H2673 H 0.55182 0.31109 0.9973 0.0
H2674 H 0.58941 0.30928 0.05744 0.0
H2675 H 0.62616 0.31027 0.0355 0.0
C2676 C 0.70872 0.24629 0.96882 0.0
C2677 C 0.71428 0.24027 0.99046 0.0
C2678 C 0.69371 0.2636 0.9655 0.0
C2679 C 0.68434 0.2756 0.98372 0.0
C2680 C 0.68989 0.26949 0.0053 0.0
C2681 C 0.70456 0.25204 0.00863 0.0
C2682 C 0.66867 0.29438 0.9805 0.0
C2683 C 0.64767 0.29496 0.99292 0.0
C2684 C 0.67417 0.31164 0.96535 0.0
C2685 C 0.69673 0.31325 0.95301 0.0
C2686 C 0.71743 0.31354 0.96449 0.0
C2687 C 0.73864 0.31503 0.95277 0.0
C2688 C 0.73937 0.31642 0.92957 0.0
C2689 C 0.7189 0.31639 0.91805 0.0
C2690 C 0.69764 0.31487 0.92969 0.0
C2691 C 0.60331 0.3809 0.98633 0.0
C2692 C 0.59406 0.38452 0.96541 0.0
C2693 C 0.61702 0.36262 0.98967 0.0
C2694 C 0.622 0.34782 0.97209 0.0
C2695 C 0.61259 0.3513 0.95131 0.0
C2696 C 0.59862 0.36929 0.94805 0.0
C2697 C 0.63748 0.32901 0.97508 0.0
C2698 C 0.65837 0.32847 0.96261 0.0
C2699 C 0.63206 0.312 0.99042 0.0
C2700 C 0.60999 0.31133 1.00362 0.0
C2701 C 0.5888 0.31143 0.993 0.0
C2702 C 0.56807 0.31095 0.00557 0.0
C2703 C 0.5683 0.31021 0.02878 0.0
C2704 C 0.58926 0.30989 0.03946 0.0
C2705 C 0.61005 0.31039 0.02697 0.0
H2706 H 0.55223 0.30983 0.03848 0.0
H2707 H 0.75581 0.31759 0.92053 0.0
H2708 H 0.30592 0.30174 0.0123 0.0
H2709 H 0.33208 0.27171 0.00478 0.0
H2710 H 0.30471 0.26246 0.93949 0.0
H2711 H 0.27817 0.29271 0.94692 0.0
H2712 H 0.30854 0.22314 0.96274 0.0
H2713 H 0.35686 0.2861 0.94385 0.0
H2714 H 0.3744 0.32301 0.95023 0.0
H2715 H 0.40685 0.29961 0.00812 0.0
H2716 H 0.38926 0.26266 1.00232 0.0
H2717 H 0.39343 0.14169 0.94301 0.0
H2718 H 0.3701 0.17399 0.93797 0.0
H2719 H 0.39498 0.20222 0.99906 0.0
H2720 H 0.41926 0.17089 1.0035 0.0
H2721 H 0.39295 0.23313 0.97059 0.0
H2722 H 0.34067 0.17412 0.99485 0.0
H2723 H 0.3217 0.13735 0.99247 0.0
H2724 H 0.2958 0.1532 0.92876 0.0
H2725 H 0.31486 0.18999 0.93067 0.0
C2726 C 0.30542 0.29342 0.99628 0.0
C2727 C 0.28994 0.29969 0.98018 0.0
C2728 C 0.32052 0.2763 0.99197 0.0
C2729 C 0.32056 0.26503 0.97147 0.0
C2730 C 0.30503 0.27105 0.95538 0.0
C2731 C 0.28994 0.28835 0.95963 0.0
C2732 C 0.33648 0.24659 0.96738 0.0
C2733 C 0.32706 0.22535 0.96393 0.0
C2734 C 0.36059 0.24946 0.96948 0.0
C2735 C 0.3716 0.27161 0.97271 0.0
C2736 C 0.36764 0.28885 0.95801 0.0
C2737 C 0.3776 0.30978 0.96152 0.0
C2738 C 0.39166 0.31366 0.97961 0.0
C2739 C 0.39593 0.29658 0.99413 0.0
C2740 C 0.386 0.27563 0.99072 0.0
C2741 C 0.39424 0.15487 0.95523 0.0
C2742 C 0.40814 0.15336 0.97385 0.0
C2743 C 0.38065 0.1733 0.95242 0.0
C2744 C 0.38042 0.19045 0.96834 0.0
C2745 C 0.39473 0.18922 0.98656 0.0
C2746 C 0.40846 0.17103 0.98923 0.0
C2747 C 0.36497 0.2095 0.96661 0.0
C2748 C 0.37449 0.2309 0.96894 0.0
C2749 C 0.34091 0.20674 0.96392 0.0
C2750 C 0.32942 0.18467 0.96277 0.0
C2751 C 0.33107 0.16969 0.98027 0.0
C2752 C 0.32028 0.14887 0.97901 0.0
C2753 C 0.30762 0.14291 0.96044 0.0
C2754 C 0.30566 0.15781 0.94311 0.0
C2755 C 0.31644 0.17865 0.94427 0.0
H2756 H 0.29928 0.12678 0.9595 0.0
H2757 H 0.39922 0.32988 0.98243 0.0
H2758 H 0.79557 0.25153 0.01383 0.0
H2759 H 0.82404 0.27972 0.02335 0.0
H2760 H 0.82295 0.25673 0.09099 0.0
H2761 H 0.79385 0.22808 0.08152 0.0
H2762 H 0.82439 0.3043 0.08629 0.0
H2763 H 0.86653 0.24223 0.06042 0.0
H2764 H 0.87538 0.21077 0.03557 0.0
H2765 H 0.88717 0.25465 0.98065 0.0
H2766 H 0.87814 0.28639 0.00506 0.0
H2767 H 0.92418 0.37591 0.09409 0.0
H2768 H 0.9013 0.34153 0.09622 0.0
H2769 H 0.88598 0.34696 0.02687 0.0
H2770 H 0.90869 0.38145 0.02458 0.0
H2771 H 0.89683 0.30393 0.0398 0.0
H2772 H 0.84864 0.36444 0.06414 0.0
H2773 H 0.83959 0.39647 0.08816 0.0
H2774 H 0.83919 0.35552 0.14592 0.0
H2775 H 0.84867 0.3233 0.12223 0.0
C2776 C 0.80124 0.25239 0.0308 0.0
C2777 C 0.79269 0.23734 0.04687 0.0
C2778 C 0.81754 0.26857 0.0362 0.0
C2779 C 0.82591 0.27 0.05773 0.0
C2780 C 0.81676 0.25572 0.07422 0.0
C2781 C 0.8002 0.23942 0.06881 0.0
C2782 C 0.84482 0.28613 0.06217 0.0
C2783 C 0.84052 0.30396 0.07663 0.0
C2784 C 0.86572 0.28574 0.04931 0.0
C2785 C 0.87158 0.26671 0.03459 0.0
C2786 C 0.8709 0.24518 0.04302 0.0
C2787 C 0.87595 0.22728 0.02901 0.0
C2788 C 0.88178 0.23069 0.00655 0.0
C2789 C 0.88266 0.25203 0.99806 0.0
C2790 C 0.87763 0.26999 0.01199 0.0
C2791 C 0.91623 0.36963 0.07919 0.0
C2792 C 0.91814 0.38143 0.05916 0.0
C2793 C 0.90311 0.35004 0.08049 0.0
C2794 C 0.89184 0.34187 0.06176 0.0
C2795 C 0.89459 0.35305 0.0415 0.0
C2796 C 0.90751 0.37275 0.04022 0.0
C2797 C 0.87611 0.32236 0.06339 0.0
C2798 C 0.88102 0.30395 0.04999 0.0
C2799 C 0.85586 0.32224 0.07726 0.0
C2800 C 0.84964 0.34151 0.09144 0.0
C2801 C 0.84679 0.36229 0.08197 0.0
C2802 C 0.84157 0.38049 0.09553 0.0
C2803 C 0.83889 0.37805 0.11856 0.0
C2804 C 0.84133 0.35739 0.12807 0.0
C2805 C 0.84662 0.33916 0.11459 0.0
H2806 H 0.83487 0.39216 0.12903 0.0
H2807 H 0.88565 0.21681 0.99574 0.0
loop_
_geom_bond_atom_site_label_1
_geom_bond_atom_site_label_2
_geom_bond_distance
_geom_bond_site_symmetry_2
_ccdc_geom_bond_type
C0 O2 1.247 . S
C0 O4 1.258 . S
C1 O8 1.247 . S
C1 O9 1.258 . S
O2 C0 1.247 . S
O2 Zn3 2.028 . S
Zn3 O2 2.028 . S
Zn3 O7 2.035 . S
Zn3 O9 2.035 . S
Zn3 O10 2.028 . S
O4 C0 1.258 . S
O4 Zn5 2.035 1_455 S
Zn5 O4 2.035 1_655 S
Zn5 O6 2.028 1_655 S
Zn5 O8 2.028 1_655 S
Zn5 O11 2.035 1_655 S
O6 Zn5 2.028 1_455 S
O6 C12 1.256 . S
O7 Zn3 2.035 . S
O7 C12 1.258 . S
O8 C1 1.247 . S
O8 Zn5 2.028 1_455 S
O9 C1 1.258 . S
O9 Zn3 2.035 . S
O10 Zn3 2.028 . S
O10 C13 1.247 . S
O11 Zn5 2.035 1_455 S
O11 C13 1.258 . S
C12 O6 1.256 . S
C12 O7 1.258 . S
C13 O10 1.247 . S
C13 O11 1.258 . S
C14 O16 1.247 . S
C14 O18 1.258 1_455 S
C15 O22 1.247 1_455 S
C15 O23 1.258 . S
O16 C14 1.247 . S
O16 Zn17 2.028 . S
Zn17 O16 2.028 . S
Zn17 O21 2.035 . S
Zn17 O23 2.035 . S
Zn17 O24 2.028 . S
O18 C14 1.258 1_655 S
O18 Zn19 2.035 . S
Zn19 O18 2.035 . S
Zn19 O20 2.028 . S
Zn19 O22 2.028 . S
Zn19 O25 2.035 . S
O20 Zn19 2.028 . S
O20 C26 1.247 1_655 S
O21 Zn17 2.035 . S
O21 C26 1.258 . S
O22 C15 1.247 1_655 S
O22 Zn19 2.028 . S
O23 C15 1.258 . S
O23 Zn17 2.035 . S
O24 Zn17 2.028 . S
O24 C27 1.247 . S
O25 Zn19 2.035 . S
O25 C27 1.258 1_655 S
C26 O20 1.247 1_455 S
C26 O21 1.258 . S
C27 O24 1.247 . S
C27 O25 1.258 1_455 S
C28 O30 1.247 1_545 S
C28 O32 1.258 . S
C29 O36 1.247 1_565 S
C29 O37 1.258 . S
O30 C28 1.247 1_565 S
O30 Zn31 2.028 . S
Zn31 O30 2.028 . S
Zn31 O35 2.035 . S
Zn31 O37 2.035 . S
Zn31 O38 2.028 . S
O32 C28 1.258 . S
O32 Zn33 2.035 . S
Zn33 O32 2.035 . S
Zn33 O34 2.028 . S
Zn33 O36 2.028 . S
Zn33 O39 2.035 . S
O34 Zn33 2.028 . S
O34 C40 1.247 1_545 S
O35 Zn31 2.035 . S
O35 C40 1.258 . S
O36 C29 1.247 1_545 S
O36 Zn33 2.028 . S
O37 C29 1.258 . S
O37 Zn31 2.035 . S
O38 Zn31 2.028 . S
O38 C41 1.247 1_565 S
O39 Zn33 2.035 . S
O39 C41 1.258 . S
C40 O34 1.247 1_565 S
C40 O35 1.258 . S
C41 O38 1.247 1_545 S
C41 O39 1.258 . S
C42 O44 1.247 . S
C42 O46 1.258 . S
C43 O50 1.247 . S
C43 O51 1.258 . S
O44 C42 1.247 . S
O44 Zn45 2.028 . S
Zn45 O44 2.028 . S
Zn45 O49 2.035 . S
Zn45 O51 2.035 . S
Zn45 O52 2.028 . S
O46 C42 1.258 . S
O46 Zn47 2.035 . S
Zn47 O46 2.035 . S
Zn47 O48 2.028 . S
Zn47 O50 2.028 . S
Zn47 O53 2.035 . S
O48 Zn47 2.028 . S
O48 C54 1.247 . S
O49 Zn45 2.035 . S
O49 C54 1.258 . S
O50 C43 1.247 . S
O50 Zn47 2.028 . S
O51 C43 1.258 . S
O51 Zn45 2.035 . S
O52 Zn45 2.028 . S
O52 C55 1.247 . S
O53 Zn47 2.035 . S
O53 C55 1.258 . S
C54 O48 1.247 . S
C54 O49 1.258 . S
C55 O52 1.247 . S
C55 O53 1.258 . S
C56 O58 1.247 . S
C56 O60 1.258 . S
C57 O64 1.247 . S
C57 O65 1.258 1_554 S
O58 C56 1.247 . S
O58 Zn59 2.028 1_554 S
Zn59 O58 2.028 1_556 S
Zn59 O63 2.035 . S
Zn59 O65 2.035 . S
Zn59 O66 2.028 1_556 S
O60 C56 1.258 . S
O60 Zn61 2.035 . S
Zn61 O60 2.035 . S
Zn61 O62 2.028 . S
Zn61 O64 2.028 . S
Zn61 O67 2.035 . S
O62 Zn61 2.028 . S
O62 C68 1.247 . S
O63 Zn59 2.035 . S
O63 C68 1.258 1_556 S
O64 C57 1.247 . S
O64 Zn61 2.028 . S
O65 C57 1.258 1_556 S
O65 Zn59 2.035 . S
O66 Zn59 2.028 1_554 S
O66 C69 1.247 . S
O67 Zn61 2.035 . S
O67 C69 1.258 . S
C68 O62 1.247 . S
C68 O63 1.258 1_554 S
C69 O66 1.247 . S
C69 O67 1.258 . S
C70 O72 1.247 . S
C70 O74 1.258 . S
C71 O78 1.247 . S
C71 O79 1.258 . S
O72 C70 1.247 . S
O72 Zn73 2.028 . S
Zn73 O72 2.028 . S
Zn73 O77 2.035 . S
Zn73 O79 2.035 . S
Zn73 O80 2.028 . S
O74 C70 1.258 . S
O74 Zn75 2.035 . S
Zn75 O74 2.035 . S
Zn75 O76 2.028 . S
Zn75 O78 2.028 . S
Zn75 O81 2.035 . S
O76 Zn75 2.028 . S
O76 C82 1.247 . S
O77 Zn73 2.035 . S
O77 C82 1.258 . S
O78 C71 1.247 . S
O78 Zn75 2.028 . S
O79 C71 1.258 . S
O79 Zn73 2.035 . S
O80 Zn73 2.028 . S
O80 C83 1.247 . S
O81 Zn75 2.035 . S
O81 C83 1.258 . S
C82 O76 1.247 . S
C82 O77 1.258 . S
C83 O80 1.247 . S
C83 O81 1.258 . S
C84 O86 1.247 . S
C84 O88 1.258 . S
C85 O92 1.247 . S
C85 O93 1.258 . S
O86 C84 1.247 . S
O86 Zn87 2.028 . S
Zn87 O86 2.028 . S
Zn87 O91 2.035 . S
Zn87 O93 2.035 . S
Zn87 O94 2.028 . S
O88 C84 1.258 . S
O88 Zn89 2.035 . S
Zn89 O88 2.035 . S
Zn89 O90 2.028 . S
Zn89 O92 2.028 . S
Zn89 O95 2.035 . S
O90 Zn89 2.028 . S
O90 C96 1.247 . S
O91 Zn87 2.035 . S
O91 C96 1.258 . S
O92 C85 1.247 . S
O92 Zn89 2.028 . S
O93 C85 1.258 . S
O93 Zn87 2.035 . S
O94 Zn87 2.028 . S
O94 C97 1.247 . S
O95 Zn89 2.035 . S
O95 C97 1.258 . S
C96 O90 1.247 . S
C96 O91 1.258 . S
C97 O94 1.247 . S
C97 O95 1.258 . S
C98 O100 1.247 . S
C98 O102 1.258 . S
C99 O106 1.247 . S
C99 O107 1.258 . S
O100 C98 1.247 . S
O100 Zn101 2.028 . S
Zn101 O100 2.028 . S
Zn101 O105 2.035 . S
Zn101 O107 2.035 . S
Zn101 O108 2.028 . S
O102 C98 1.258 . S
O102 Zn103 2.035 . S
Zn103 O102 2.035 . S
Zn103 O104 2.028 . S
Zn103 O106 2.028 . S
Zn103 O109 2.035 . S
O104 Zn103 2.028 . S
O104 C110 1.247 . S
O105 Zn101 2.035 . S
O105 C110 1.258 . S
O106 C99 1.247 . S
O106 Zn103 2.028 . S
O107 C99 1.258 . S
O107 Zn101 2.035 . S
O108 Zn101 2.028 . S
O108 C111 1.247 . S
O109 Zn103 2.035 . S
O109 C111 1.258 . S
C110 O104 1.247 . S
C110 O105 1.258 . S
C111 O108 1.247 . S
C111 O109 1.258 . S
C112 O114 1.247 . S
C112 O116 1.258 . S
C113 O120 1.247 . S
C113 O121 1.258 . S
O114 C112 1.247 . S
O114 Zn115 2.028 . S
Zn115 O114 2.028 . S
Zn115 O119 2.035 . S
Zn115 O121 2.035 . S
Zn115 O122 2.028 . S
O116 C112 1.258 . S
O116 Zn117 2.035 . S
Zn117 O116 2.035 . S
Zn117 O118 2.028 . S
Zn117 O120 2.028 . S
Zn117 O123 2.035 . S
O118 Zn117 2.028 . S
O118 C124 1.247 . S
O119 Zn115 2.035 . S
O119 C124 1.258 . S
O120 C113 1.247 . S
O120 Zn117 2.028 . S
O121 C113 1.258 . S
O121 Zn115 2.035 . S
O122 Zn115 2.028 . S
O122 C125 1.247 . S
O123 Zn117 2.035 . S
O123 C125 1.258 . S
C124 O118 1.247 . S
C124 O119 1.258 . S
C125 O122 1.247 . S
C125 O123 1.258 . S
C126 O128 1.247 . S
C126 O130 1.258 . S
C127 O134 1.247 . S
C127 O135 1.258 . S
O128 C126 1.247 . S
O128 Zn129 2.028 . S
Zn129 O128 2.028 . S
Zn129 O133 2.035 . S
Zn129 O135 2.035 . S
Zn129 O136 2.028 . S
O130 C126 1.258 . S
O130 Zn131 2.035 . S
Zn131 O130 2.035 . S
Zn131 O132 2.028 . S
Zn131 O134 2.028 . S
Zn131 O137 2.035 . S
O132 Zn131 2.028 . S
O132 C138 1.247 . S
O133 Zn129 2.035 . S
O133 C138 1.258 . S
O134 C127 1.247 . S
O134 Zn131 2.028 . S
O135 C127 1.258 . S
O135 Zn129 2.035 . S
O136 Zn129 2.028 . S
O136 C139 1.247 . S
O137 Zn131 2.035 . S
O137 C139 1.258 . S
C138 O132 1.247 . S
C138 O133 1.258 . S
C139 O136 1.247 . S
C139 O137 1.258 . S
C140 O142 1.247 . S
C140 O144 1.258 1_565 S
C141 O148 1.247 . S
C141 O149 1.258 1_545 S
O142 C140 1.247 . S
O142 Zn143 2.028 . S
Zn143 O142 2.028 . S
Zn143 O147 2.035 . S
Zn143 O149 2.035 . S
Zn143 O150 2.028 . S
O144 C140 1.258 1_545 S
O144 Zn145 2.035 . S
Zn145 O144 2.035 . S
Zn145 O146 2.028 . S
Zn145 O148 2.028 . S
Zn145 O151 2.035 . S
O146 Zn145 2.028 . S
O146 C152 1.247 . S
O147 Zn143 2.035 . S
O147 C152 1.258 1_565 S
O148 C141 1.247 . S
O148 Zn145 2.028 . S
O149 C141 1.258 1_565 S
O149 Zn143 2.035 . S
O150 Zn143 2.028 . S
O150 C153 1.247 . S
O151 Zn145 2.035 . S
O151 C153 1.258 1_545 S
C152 O146 1.247 . S
C152 O147 1.258 1_545 S
C153 O150 1.247 . S
C153 O151 1.258 1_565 S
C154 O156 1.247 . S
C154 O158 1.258 1_554 S
C155 O162 1.247 . S
C155 O163 1.258 . S
O156 C154 1.247 . S
O156 Zn157 2.028 . S
Zn157 O156 2.028 . S
Zn157 O161 2.035 . S
Zn157 O163 2.035 . S
Zn157 O164 2.028 . S
O158 C154 1.258 1_556 S
O158 Zn159 2.035 . S
Zn159 O158 2.035 . S
Zn159 O160 2.028 1_556 S
Zn159 O162 2.028 1_556 S
Zn159 O165 2.035 . S
O160 Zn159 2.028 1_554 S
O160 C166 1.247 . S
O161 Zn157 2.035 . S
O161 C166 1.258 . S
O162 C155 1.247 . S
O162 Zn159 2.028 1_554 S
O163 C155 1.258 . S
O163 Zn157 2.035 . S
O164 Zn157 2.028 . S
O164 C167 1.247 . S
O165 Zn159 2.035 . S
O165 C167 1.258 1_556 S
C166 O160 1.247 . S
C166 O161 1.258 . S
C167 O164 1.247 . S
C167 O165 1.258 1_554 S
Co168 N173 2.057 1_545 S
Co168 O185 2.021 . S
Co168 O188 2.062 . S
Co168 O192 2.117 . S
Co168 O193 2.020 . S
C169 O189 1.259 . S
C169 O192 1.258 . S
Co170 N179 2.057 . S
Co170 O186 2.117 . S
Co170 O187 2.020 . S
Co170 O189 2.021 . S
Co170 O194 2.062 . S
C171 N173 1.316 . S
C171 N174 1.347 . S
C171 H176 0.931 . S
C172 N173 1.375 . S
C172 C175 1.350 1_455 S
C172 H177 0.930 1_465 S
N173 Co168 2.057 1_565 S
N173 C171 1.316 . S
N173 C172 1.375 . S
N174 C171 1.347 . S
N174 C175 1.373 1_455 S
C175 C172 1.350 1_655 S
C175 N174 1.373 1_655 S
C175 H196 0.931 . S
H176 C171 0.931 . S
H177 C172 0.930 1_645 S
C178 O185 1.259 . S
C178 O186 1.258 . S
N179 Co170 2.057 . S
N179 C180 1.316 . S
N179 C181 1.375 . S
C180 N179 1.316 . S
C180 N182 1.347 . S
C180 H191 0.931 . S
C181 N179 1.375 . S
C181 C183 1.350 . S
C181 H190 0.911 1_554 S
N182 C180 1.347 . S
N182 C183 1.373 . S
C183 C181 1.350 . S
C183 N182 1.373 . S
C183 H197 0.931 1_554 S
C184 O187 1.256 . S
C184 O188 1.255 . S
O185 Co168 2.021 . S
O185 C178 1.259 . S
O186 Co170 2.117 . S
O186 C178 1.258 . S
O187 Co170 2.020 . S
O187 C184 1.256 . S
O188 Co168 2.062 . S
O188 C184 1.255 . S
O189 C169 1.259 . S
O189 Co170 2.021 . S
H190 C181 0.911 1_556 S
H191 C180 0.931 . S
O192 Co168 2.117 . S
O192 C169 1.258 . S
O193 Co168 2.020 . S
O193 C195 1.256 . S
O194 Co170 2.062 . S
O194 C195 1.255 . S
C195 O193 1.256 . S
C195 O194 1.255 . S
H196 C175 0.931 . S
H197 C183 0.931 1_556 S
Co198 N203 2.057 . S
Co198 O215 2.021 . S
Co198 O218 2.062 . S
Co198 O222 2.117 . S
Co198 O223 2.020 . S
C199 O219 1.259 . S
C199 O222 1.258 . S
Co200 N209 2.057 . S
Co200 O216 2.117 . S
Co200 O217 2.020 . S
Co200 O219 2.021 . S
Co200 O224 2.062 . S
C201 N203 1.316 . S
C201 N204 1.347 . S
C201 H206 0.931 . S
C202 N203 1.375 . S
C202 C205 1.350 . S
C202 H207 0.930 . S
N203 Co198 2.057 . S
N203 C201 1.316 . S
N203 C202 1.375 . S
N204 C201 1.347 . S
N204 C205 1.373 . S
C205 C202 1.350 . S
C205 N204 1.373 . S
C205 H226 0.931 . S
H206 C201 0.931 . S
H207 C202 0.930 . S
C208 O215 1.259 . S
C208 O216 1.258 . S
N209 Co200 2.057 . S
N209 C210 1.316 1_554 S
N209 C211 1.375 1_554 S
C210 N209 1.316 1_556 S
C210 N212 1.347 . S
C210 H221 0.931 1_556 S
C211 N209 1.375 1_556 S
C211 C213 1.350 . S
C211 H220 0.930 . S
N212 C210 1.347 . S
N212 C213 1.373 . S
C213 C211 1.350 . S
C213 N212 1.373 . S
C213 H227 0.931 . S
C214 O217 1.256 . S
C214 O218 1.255 . S
O215 Co198 2.021 . S
O215 C208 1.259 . S
O216 Co200 2.117 . S
O216 C208 1.258 . S
O217 Co200 2.020 . S
O217 C214 1.256 . S
O218 Co198 2.062 . S
O218 C214 1.255 . S
O219 C199 1.259 . S
O219 Co200 2.021 . S
H220 C211 0.930 . S
H221 C210 0.931 1_554 S
O222 Co198 2.117 . S
O222 C199 1.258 . S
O223 Co198 2.020 . S
O223 C225 1.256 . S
O224 Co200 2.062 . S
O224 C225 1.255 . S
C225 O223 1.256 . S
C225 O224 1.255 . S
H226 C205 0.931 . S
H227 C213 0.931 . S
Co228 N233 2.057 . S
Co228 O245 2.021 . S
Co228 O248 2.062 . S
Co228 O252 2.117 . S
Co228 O253 2.020 . S
C229 O249 1.259 . S
C229 O252 1.258 . S
Co230 N239 2.057 . S
Co230 O246 2.117 . S
Co230 O247 2.020 . S
Co230 O249 2.021 . S
Co230 O254 2.062 . S
C231 N233 1.316 . S
C231 N234 1.347 . S
C231 H236 0.931 . S
C232 N233 1.375 . S
C232 C235 1.350 . S
C232 H237 0.930 . S
N233 Co228 2.057 . S
N233 C231 1.316 . S
N233 C232 1.375 . S
N234 C231 1.347 . S
N234 C235 1.373 . S
C235 C232 1.350 . S
C235 N234 1.373 . S
C235 H256 0.931 . S
H236 C231 0.931 . S
H237 C232 0.930 . S
C238 O245 1.259 . S
C238 O246 1.258 . S
N239 Co230 2.057 . S
N239 C240 1.316 . S
N239 C241 1.375 . S
C240 N239 1.316 . S
C240 N242 1.347 . S
C240 H251 0.931 . S
C241 N239 1.375 . S
C241 C243 1.350 . S
C241 H250 0.930 . S
N242 C240 1.347 . S
N242 C243 1.373 . S
C243 C241 1.350 . S
C243 N242 1.373 . S
C243 H257 0.931 1_455 S
C244 O247 1.256 . S
C244 O248 1.255 . S
O245 Co228 2.021 . S
O245 C238 1.259 . S
O246 Co230 2.117 . S
O246 C238 1.258 . S
O247 Co230 2.020 . S
O247 C244 1.256 . S
O248 Co228 2.062 . S
O248 C244 1.255 . S
O249 C229 1.259 . S
O249 Co230 2.021 . S
H250 C241 0.930 . S
H251 C240 0.931 . S
O252 Co228 2.117 . S
O252 C229 1.258 . S
O253 Co228 2.020 . S
O253 C255 1.256 . S
O254 Co230 2.062 . S
O254 C255 1.255 . S
C255 O253 1.256 . S
C255 O254 1.255 . S
H256 C235 0.931 . S
H257 C243 0.931 1_655 S
Co258 N263 2.057 . S
Co258 O275 2.021 . S
Co258 O278 2.062 . S
Co258 O282 2.117 . S
Co258 O283 2.020 . S
C259 O279 1.259 . S
C259 O282 1.258 . S
Co260 N269 2.057 . S
Co260 O276 2.117 . S
Co260 O277 2.020 . S
Co260 O279 2.021 . S
Co260 O284 2.062 . S
C261 N263 1.316 . S
C261 N264 1.347 . S
C261 H266 0.931 . S
C262 N263 1.375 . S
C262 C265 1.350 . S
C262 H267 0.930 . S
N263 Co258 2.057 . S
N263 C261 1.316 . S
N263 C262 1.375 . S
N264 C261 1.347 . S
N264 C265 1.373 . S
C265 C262 1.350 . S
C265 N264 1.373 . S
C265 H286 0.931 . S
H266 C261 0.931 . S
H267 C262 0.930 . S
C268 O275 1.259 . S
C268 O276 1.258 . S
N269 Co260 2.057 . S
N269 C270 1.316 . S
N269 C271 1.375 . S
C270 N269 1.316 . S
C270 N272 1.347 . S
C270 H281 0.931 1_655 S
C271 N269 1.375 . S
C271 C273 1.350 . S
C271 H280 0.930 . S
N272 C270 1.347 . S
N272 C273 1.373 . S
C273 C271 1.350 . S
C273 N272 1.373 . S
C273 H287 0.931 . S
C274 O277 1.256 . S
C274 O278 1.255 . S
O275 Co258 2.021 . S
O275 C268 1.259 . S
O276 Co260 2.117 . S
O276 C268 1.258 . S
O277 Co260 2.020 . S
O277 C274 1.256 . S
O278 Co258 2.062 . S
O278 C274 1.255 . S
O279 C259 1.259 . S
O279 Co260 2.021 . S
H280 C271 0.930 . S
H281 C270 0.931 1_455 S
O282 Co258 2.117 . S
O282 C259 1.258 . S
O283 Co258 2.020 . S
O283 C285 1.256 . S
O284 Co260 2.062 . S
O284 C285 1.255 . S
C285 O283 1.256 . S
C285 O284 1.255 . S
H286 C265 0.931 . S
H287 C273 0.931 . S
Co288 N293 2.057 . S
Co288 O305 2.021 . S
Co288 O308 2.062 . S
Co288 O312 2.117 . S
Co288 O313 2.020 . S
C289 O309 1.259 . S
C289 O312 1.258 . S
Co290 N299 2.057 . S
Co290 O306 2.117 . S
Co290 O307 2.020 . S
Co290 O309 2.021 . S
Co290 O314 2.062 . S
C291 N293 1.316 . S
C291 N294 1.347 . S
C291 H296 0.931 . S
C292 N293 1.375 . S
C292 C295 1.350 . S
C292 H297 0.930 . S
N293 Co288 2.057 . S
N293 C291 1.316 . S
N293 C292 1.375 . S
N294 C291 1.347 . S
N294 C295 1.373 . S
C295 C292 1.350 . S
C295 N294 1.373 . S
C295 H316 0.931 . S
H296 C291 0.931 . S
H297 C292 0.930 . S
C298 O305 1.259 . S
C298 O306 1.258 . S
N299 Co290 2.057 . S
N299 C300 1.316 . S
N299 C301 1.375 . S
C300 N299 1.316 . S
C300 N302 1.347 . S
C300 H311 0.931 . S
C301 N299 1.375 . S
C301 C303 1.350 . S
C301 H310 0.930 . S
N302 C300 1.347 . S
N302 C303 1.373 . S
C303 C301 1.350 . S
C303 N302 1.373 . S
C303 H317 0.931 . S
C304 O307 1.256 . S
C304 O308 1.255 . S
O305 Co288 2.021 . S
O305 C298 1.259 . S
O306 Co290 2.117 . S
O306 C298 1.258 . S
O307 Co290 2.020 . S
O307 C304 1.256 . S
O308 Co288 2.062 . S
O308 C304 1.255 . S
O309 C289 1.259 . S
O309 Co290 2.021 . S
H310 C301 0.930 . S
H311 C300 0.931 . S
O312 Co288 2.117 . S
O312 C289 1.258 . S
O313 Co288 2.020 . S
O313 C315 1.256 . S
O314 Co290 2.062 . S
O314 C315 1.255 . S
C315 O313 1.256 . S
C315 O314 1.255 . S
H316 C295 0.931 . S
H317 C303 0.931 . S
Co318 N323 2.057 . S
Co318 O335 2.021 . S
Co318 O338 2.062 . S
Co318 O342 2.117 . S
Co318 O343 2.020 . S
C319 O339 1.259 . S
C319 O342 1.258 . S
Co320 N329 2.057 . S
Co320 O336 2.117 . S
Co320 O337 2.020 . S
Co320 O339 2.021 . S
Co320 O344 2.062 . S
C321 N323 1.316 . S
C321 N324 1.347 . S
C321 H326 0.931 . S
C322 N323 1.375 . S
C322 C325 1.350 . S
C322 H327 0.930 . S
N323 Co318 2.057 . S
N323 C321 1.316 . S
N323 C322 1.375 . S
N324 C321 1.347 . S
N324 C325 1.373 . S
C325 C322 1.350 . S
C325 N324 1.373 . S
C325 H346 0.931 . S
H326 C321 0.931 . S
H327 C322 0.930 . S
C328 O335 1.259 . S
C328 O336 1.258 . S
N329 Co320 2.057 . S
N329 C330 1.316 . S
N329 C331 1.375 . S
C330 N329 1.316 . S
C330 N332 1.347 . S
C330 H341 0.931 . S
C331 N329 1.375 . S
C331 C333 1.350 . S
C331 H340 0.930 . S
N332 C330 1.347 . S
N332 C333 1.373 . S
C333 C331 1.350 . S
C333 N332 1.373 . S
C333 H347 0.931 . S
C334 O337 1.256 . S
C334 O338 1.255 . S
O335 Co318 2.021 . S
O335 C328 1.259 . S
O336 Co320 2.117 . S
O336 C328 1.258 . S
O337 Co320 2.020 . S
O337 C334 1.256 . S
O338 Co318 2.062 . S
O338 C334 1.255 . S
O339 C319 1.259 . S
O339 Co320 2.021 . S
H340 C331 0.930 . S
H341 C330 0.931 . S
O342 Co318 2.117 . S
O342 C319 1.258 . S
O343 Co318 2.020 . S
O343 C345 1.256 . S
O344 Co320 2.062 . S
O344 C345 1.255 . S
C345 O343 1.256 . S
C345 O344 1.255 . S
H346 C325 0.931 . S
H347 C333 0.931 . S
Co348 N353 2.057 . S
Co348 O365 2.021 . S
Co348 O368 2.062 . S
Co348 O372 2.117 . S
Co348 O373 2.020 . S
C349 O369 1.259 . S
C349 O372 1.258 . S
Co350 N359 2.057 . S
Co350 O366 2.117 . S
Co350 O367 2.020 . S
Co350 O369 2.021 . S
Co350 O374 2.062 . S
C351 N353 1.316 1_554 S
C351 N354 1.347 . S
C351 H356 0.931 . S
C352 N353 1.375 . S
C352 C355 1.350 1_556 S
C352 H357 0.930 . S
N353 Co348 2.057 . S
N353 C351 1.316 1_556 S
N353 C352 1.375 . S
N354 C351 1.347 . S
N354 C355 1.373 . S
C355 C352 1.350 1_554 S
C355 N354 1.373 . S
C355 H376 0.931 . S
H356 C351 0.931 . S
H357 C352 0.930 . S
C358 O365 1.259 . S
C358 O366 1.258 . S
N359 Co350 2.057 . S
N359 C360 1.316 . S
N359 C361 1.375 . S
C360 N359 1.316 . S
C360 N362 1.347 . S
C360 H371 0.931 . S
C361 N359 1.375 . S
C361 C363 1.350 . S
C361 H370 0.930 . S
N362 C360 1.347 . S
N362 C363 1.373 . S
C363 C361 1.350 . S
C363 N362 1.373 . S
C363 H377 0.931 . S
C364 O367 1.256 . S
C364 O368 1.255 . S
O365 Co348 2.021 . S
O365 C358 1.259 . S
O366 Co350 2.117 . S
O366 C358 1.258 . S
O367 Co350 2.020 . S
O367 C364 1.256 . S
O368 Co348 2.062 . S
O368 C364 1.255 . S
O369 C349 1.259 . S
O369 Co350 2.021 . S
H370 C361 0.930 . S
H371 C360 0.931 . S
O372 Co348 2.117 . S
O372 C349 1.258 . S
O373 Co348 2.020 . S
O373 C375 1.256 . S
O374 Co350 2.062 . S
O374 C375 1.255 . S
C375 O373 1.256 . S
C375 O374 1.255 . S
H376 C355 0.931 . S
H377 C363 0.931 . S
Co378 N383 2.057 . S
Co378 O395 2.021 . S
Co378 O398 2.062 . S
Co378 O402 2.117 . S
Co378 O403 2.020 . S
C379 O399 1.259 . S
C379 O402 1.258 . S
Co380 N389 2.057 1_545 S
Co380 O396 2.117 . S
Co380 O397 2.020 . S
Co380 O399 2.021 . S
Co380 O404 2.062 . S
C381 N383 1.316 . S
C381 N384 1.347 . S
C381 H386 0.931 . S
C382 N383 1.375 . S
C382 C385 1.350 . S
C382 H387 0.930 . S
N383 Co378 2.057 . S
N383 C381 1.316 . S
N383 C382 1.375 . S
N384 C381 1.347 . S
N384 C385 1.373 . S
C385 C382 1.350 . S
C385 N384 1.373 . S
C385 H406 0.931 . S
H386 C381 0.931 . S
H387 C382 0.930 . S
C388 O395 1.259 . S
C388 O396 1.258 . S
N389 Co380 2.057 1_565 S
N389 C390 1.316 . S
N389 C391 1.375 . S
C390 N389 1.316 . S
C390 N392 1.347 . S
C390 H401 0.931 . S
C391 N389 1.375 . S
C391 C393 1.350 . S
C391 H400 0.930 . S
N392 C390 1.347 . S
N392 C393 1.373 . S
C393 C391 1.350 . S
C393 N392 1.373 . S
C393 H407 0.931 . S
C394 O397 1.256 . S
C394 O398 1.255 . S
O395 Co378 2.021 . S
O395 C388 1.259 . S
O396 Co380 2.117 . S
O396 C388 1.258 . S
O397 Co380 2.020 . S
O397 C394 1.256 . S
O398 Co378 2.062 . S
O398 C394 1.255 . S
O399 C379 1.259 . S
O399 Co380 2.021 . S
H400 C391 0.930 . S
H401 C390 0.931 . S
O402 Co378 2.117 . S
O402 C379 1.258 . S
O403 Co378 2.020 . S
O403 C405 1.256 . S
O404 Co380 2.062 . S
O404 C405 1.255 . S
C405 O403 1.256 . S
C405 O404 1.255 . S
H406 C385 0.931 . S
H407 C393 0.931 . S
H408 C426 0.951 . S
H409 C428 0.951 . S
H410 C430 0.950 . S
H411 C431 0.950 . S
H412 C433 0.950 . S
H413 C436 0.950 . S
H414 C437 0.950 . S
H415 C439 0.950 . S
H416 C440 0.950 . S
H417 C441 0.951 . S
H418 C443 0.951 . S
H419 C445 0.950 . S
H420 C446 0.950 1_565 S
H421 C448 0.950 1_655 S
H422 C451 0.950 . S
H423 C452 0.950 . S
H424 C454 0.950 . S
H425 C455 0.950 . S
C426 H408 0.951 . S
C426 C427 1.366 . S
C426 C428 1.388 . S
C427 C426 1.366 . S
C427 C431 1.385 . S
C428 H409 0.951 . S
C428 C426 1.388 . S
C428 C429 1.366 . S
C429 C428 1.366 . S
C429 C430 1.414 . S
C429 C432 1.499 . S
C430 H410 0.950 . S
C430 C429 1.414 . S
C430 C431 1.374 . S
C431 H411 0.950 . S
C431 C427 1.385 . S
C431 C430 1.374 . S
C432 C429 1.499 . S
C432 C433 1.373 . S
C432 C434 1.389 . S
C433 H412 0.950 . S
C433 C432 1.373 . S
C433 C449 1.377 . S
C434 C432 1.389 . S
C434 C435 1.524 1_455 S
C434 C448 1.377 . S
C435 C434 1.524 1_655 S
C435 C436 1.397 . S
C435 C440 1.363 . S
C436 H413 0.950 . S
C436 C435 1.397 . S
C436 C437 1.334 . S
C437 H414 0.950 . S
C437 C436 1.334 . S
C437 C438 1.287 . S
C438 C437 1.287 . S
C438 C439 1.524 . S
C438 H457 0.913 . S
C439 H415 0.950 . S
C439 C438 1.524 . S
C439 C440 1.415 . S
C440 H416 0.950 . S
C440 C435 1.363 . S
C440 C439 1.415 . S
C441 H417 0.951 . S
C441 C442 1.331 1_545 S
C441 C443 1.388 . S
C442 C441 1.331 1_565 S
C442 C446 1.376 1_565 S
C443 H418 0.951 . S
C443 C441 1.388 . S
C443 C444 1.366 . S
C444 C443 1.366 . S
C444 C445 1.414 . S
C444 C447 1.499 . S
C445 H419 0.950 . S
C445 C444 1.414 . S
C445 C446 1.374 . S
C446 H420 0.950 1_545 S
C446 C442 1.376 1_545 S
C446 C445 1.374 . S
C447 C444 1.499 . S
C447 C448 1.373 . S
C447 C449 1.389 . S
C448 H421 0.950 1_455 S
C448 C434 1.377 . S
C448 C447 1.373 . S
C449 C433 1.377 . S
C449 C447 1.389 . S
C449 C450 1.524 . S
C450 C449 1.524 . S
C450 C451 1.397 . S
C450 C455 1.363 . S
C451 H422 0.950 . S
C451 C450 1.397 . S
C451 C452 1.334 . S
C452 H423 0.950 . S
C452 C451 1.334 . S
C452 C453 1.287 . S
C453 C452 1.287 . S
C453 C454 1.524 . S
C453 H456 0.999 . S
C454 H424 0.950 . S
C454 C453 1.524 . S
C454 C455 1.415 . S
C455 H425 0.950 . S
C455 C450 1.363 . S
C455 C454 1.415 . S
H456 C453 0.999 . S
H457 C438 0.913 . S
H458 C476 0.981 . S
H459 C478 0.951 . S
H460 C480 0.950 . S
H461 C481 0.950 . S
H462 C483 0.950 . S
H463 C486 0.950 . S
H464 C487 0.950 . S
H465 C489 0.950 . S
H466 C490 0.950 . S
H467 C491 0.951 . S
H468 C493 0.951 . S
H469 C495 0.950 . S
H470 C496 0.950 . S
H471 C498 0.950 . S
H472 C501 0.950 . S
H473 C502 0.950 . S
H474 C504 0.950 . S
H475 C505 0.950 . S
C476 H458 0.981 . S
C476 C477 1.334 1_655 S
C476 C478 1.391 . S
C477 C476 1.334 1_455 S
C477 C481 1.385 . S
C478 H459 0.951 . S
C478 C476 1.391 . S
C478 C479 1.366 1_655 S
C479 C478 1.366 1_455 S
C479 C480 1.414 . S
C479 C482 1.499 . S
C480 H460 0.950 . S
C480 C479 1.414 . S
C480 C481 1.374 . S
C481 H461 0.950 . S
C481 C477 1.385 . S
C481 C480 1.374 . S
C482 C479 1.499 . S
C482 C483 1.373 . S
C482 C484 1.389 . S
C483 H462 0.950 . S
C483 C482 1.373 . S
C483 C499 1.377 . S
C484 C482 1.389 . S
C484 C485 1.524 . S
C484 C498 1.377 . S
C485 C484 1.524 . S
C485 C486 1.397 . S
C485 C490 1.363 1_455 S
C486 H463 0.950 . S
C486 C485 1.397 . S
C486 C487 1.334 . S
C487 H464 0.950 . S
C487 C486 1.334 . S
C487 C488 1.287 . S
C488 C487 1.287 . S
C488 C489 1.524 1_455 S
C488 H507 0.913 . S
C489 H465 0.950 . S
C489 C488 1.524 1_655 S
C489 C490 1.415 . S
C490 H466 0.950 . S
C490 C485 1.363 1_655 S
C490 C489 1.415 . S
C491 H467 0.951 . S
C491 C492 1.366 . S
C491 C493 1.388 . S
C492 C491 1.366 . S
C492 C496 1.385 1_455 S
C493 H468 0.951 . S
C493 C491 1.388 . S
C493 C494 1.366 . S
C494 C493 1.366 . S
C494 C495 1.414 1_455 S
C494 C497 1.499 . S
C495 H469 0.950 . S
C495 C494 1.414 1_655 S
C495 C496 1.374 . S
C496 H470 0.950 . S
C496 C492 1.385 1_655 S
C496 C495 1.374 . S
C497 C494 1.499 . S
C497 C498 1.373 . S
C497 C499 1.389 . S
C498 H471 0.950 . S
C498 C484 1.377 . S
C498 C497 1.373 . S
C499 C483 1.377 . S
C499 C497 1.389 . S
C499 C500 1.524 . S
C500 C499 1.524 . S
C500 C501 1.397 1_455 S
C500 C505 1.363 . S
C501 H472 0.950 . S
C501 C500 1.397 1_655 S
C501 C502 1.334 . S
C502 H473 0.950 . S
C502 C501 1.334 . S
C502 C503 1.296 . S
C503 C502 1.296 . S
C503 C504 1.513 1_655 S
C503 H506 1.000 . S
C504 H474 0.950 . S
C504 C503 1.513 1_455 S
C504 C505 1.415 . S
C505 H475 0.950 . S
C505 C500 1.363 . S
C505 C504 1.415 . S
H506 C503 1.000 . S
H507 C488 0.913 . S
H508 C526 0.951 . S
H509 C528 0.951 . S
H510 C530 0.950 . S
H511 C531 0.950 . S
H512 C533 0.950 . S
H513 C536 0.950 . S
H514 C537 0.950 . S
H515 C539 0.950 . S
H516 C540 0.950 . S
H517 C541 0.963 . S
H518 C543 0.950 1_655 S
H519 C545 0.950 . S
H520 C546 0.950 . S
H521 C548 0.950 . S
H522 C551 0.950 . S
H523 C552 0.950 . S
H524 C554 0.950 . S
H525 C555 0.950 . S
C526 H508 0.951 . S
C526 C527 1.366 . S
C526 C528 1.388 . S
C527 C526 1.366 . S
C527 C531 1.385 . S
C528 H509 0.951 . S
C528 C526 1.388 . S
C528 C529 1.366 . S
C529 C528 1.366 . S
C529 C530 1.414 . S
C529 C532 1.499 . S
C530 H510 0.950 . S
C530 C529 1.414 . S
C530 C531 1.374 . S
C531 H511 0.950 . S
C531 C527 1.385 . S
C531 C530 1.374 . S
C532 C529 1.499 . S
C532 C533 1.373 1_455 S
C532 C534 1.389 . S
C533 H512 0.950 . S
C533 C532 1.373 1_655 S
C533 C549 1.377 . S
C534 C532 1.389 . S
C534 C535 1.524 . S
C534 C548 1.377 . S
C535 C534 1.524 . S
C535 C536 1.397 . S
C535 C540 1.363 . S
C536 H513 0.950 . S
C536 C535 1.397 . S
C536 C537 1.334 . S
C537 H514 0.950 . S
C537 C536 1.334 . S
C537 C538 1.287 . S
C538 C537 1.287 . S
C538 C539 1.524 . S
C538 H557 0.913 . S
C539 H515 0.950 . S
C539 C538 1.524 . S
C539 C540 1.415 . S
C540 H516 0.950 . S
C540 C535 1.363 . S
C540 C539 1.415 . S
C541 H517 0.963 . S
C541 C542 1.359 1_655 S
C541 C543 1.385 1_655 S
C542 C541 1.359 1_455 S
C542 C546 1.385 . S
C543 H518 0.950 1_455 S
C543 C541 1.385 1_455 S
C543 C544 1.366 . S
C544 C543 1.366 . S
C544 C545 1.414 . S
C544 C547 1.499 . S
C545 H519 0.950 . S
C545 C544 1.414 . S
C545 C546 1.374 . S
C546 H520 0.950 . S
C546 C542 1.385 . S
C546 C545 1.374 . S
C547 C544 1.499 . S
C547 C548 1.373 . S
C547 C549 1.389 1_455 S
C548 H521 0.950 . S
C548 C534 1.377 . S
C548 C547 1.373 . S
C549 C533 1.377 . S
C549 C547 1.389 1_655 S
C549 C550 1.524 . S
C550 C549 1.524 . S
C550 C551 1.397 . S
C550 C555 1.363 . S
C551 H522 0.950 . S
C551 C550 1.397 . S
C551 C552 1.334 . S
C552 H523 0.950 . S
C552 C551 1.334 . S
C552 C553 1.287 . S
C553 C552 1.287 . S
C553 C554 1.524 . S
C553 H556 0.999 . S
C554 H524 0.950 . S
C554 C553 1.524 . S
C554 C555 1.415 . S
C555 H525 0.950 . S
C555 C550 1.363 . S
C555 C554 1.415 . S
H556 C553 0.999 . S
H557 C538 0.913 . S
H558 C576 0.951 . S
H559 C578 0.951 . S
H560 C580 0.950 . S
H561 C581 0.950 . S
H562 C583 0.950 . S
H563 C586 0.950 . S
H564 C587 0.950 . S
H565 C589 0.950 . S
H566 C590 0.950 . S
H567 C591 0.951 1_455 S
H568 C593 0.978 . S
H569 C595 0.950 . S
H570 C596 0.950 . S
H571 C598 0.950 . S
H572 C601 0.950 1_655 S
H573 C602 0.950 . S
H574 C604 0.950 . S
H575 C605 0.950 . S
C576 H558 0.951 . S
C576 C577 1.327 1_655 S
C576 C578 1.388 . S
C577 C576 1.327 1_455 S
C577 C581 1.420 . S
C578 H559 0.951 . S
C578 C576 1.388 . S
C578 C579 1.366 . S
C579 C578 1.366 . S
C579 C580 1.414 1_655 S
C579 C582 1.499 . S
C580 H560 0.950 . S
C580 C579 1.414 1_455 S
C580 C581 1.374 . S
C581 H561 0.950 . S
C581 C577 1.420 . S
C581 C580 1.374 . S
C582 C579 1.499 . S
C582 C583 1.373 1_655 S
C582 C584 1.389 . S
C583 H562 0.950 . S
C583 C582 1.373 1_455 S
C583 C599 1.377 . S
C584 C582 1.389 . S
C584 C585 1.524 . S
C584 C598 1.377 . S
C585 C584 1.524 . S
C585 C586 1.397 . S
C585 C590 1.363 . S
C586 H563 0.950 . S
C586 C585 1.397 . S
C586 C587 1.334 . S
C587 H564 0.950 . S
C587 C586 1.334 . S
C587 C588 1.287 . S
C588 C587 1.287 . S
C588 C589 1.524 . S
C588 H607 0.913 . S
C589 H565 0.950 . S
C589 C588 1.524 . S
C589 C590 1.415 . S
C590 H566 0.950 . S
C590 C585 1.363 . S
C590 C589 1.415 . S
C591 H567 0.951 1_655 S
C591 C592 1.366 . S
C591 C593 1.385 1_655 S
C592 C591 1.366 . S
C592 C596 1.385 . S
C593 H568 0.978 . S
C593 C591 1.385 1_455 S
C593 C594 1.342 1_455 S
C594 C593 1.342 1_655 S
C594 C595 1.414 . S
C594 C597 1.499 . S
C595 H569 0.950 . S
C595 C594 1.414 . S
C595 C596 1.374 . S
C596 H570 0.950 . S
C596 C592 1.385 . S
C596 C595 1.374 . S
C597 C594 1.499 . S
C597 C598 1.373 . S
C597 C599 1.389 1_655 S
C598 H571 0.950 . S
C598 C584 1.377 . S
C598 C597 1.373 . S
C599 C583 1.377 . S
C599 C597 1.389 1_455 S
C599 C600 1.524 . S
C600 C599 1.524 . S
C600 C601 1.397 . S
C600 C605 1.363 . S
C601 H572 0.950 1_455 S
C601 C600 1.397 . S
C601 C602 1.334 . S
C602 H573 0.950 . S
C602 C601 1.334 . S
C602 C603 1.287 . S
C603 C602 1.287 . S
C603 C604 1.524 . S
C603 H606 0.999 . S
C604 H574 0.950 . S
C604 C603 1.524 . S
C604 C605 1.415 . S
C605 H575 0.950 . S
C605 C600 1.363 . S
C605 C604 1.415 . S
H606 C603 0.999 . S
H607 C588 0.913 . S
H608 C626 0.951 . S
H609 C628 0.951 . S
H610 C630 0.950 . S
H611 C631 0.950 . S
H612 C633 0.950 . S
H613 C636 0.950 . S
H614 C637 0.950 . S
H615 C639 0.950 . S
H616 C640 0.950 . S
H617 C641 0.951 . S
H618 C643 0.951 . S
H619 C645 0.950 . S
H620 C646 0.950 . S
H621 C648 0.952 . S
H622 C651 0.950 . S
H623 C652 0.950 . S
H624 C654 0.950 . S
H625 C655 0.950 . S
C626 H608 0.951 . S
C626 C627 1.366 . S
C626 C628 1.388 . S
C627 C626 1.366 . S
C627 C631 1.385 . S
C628 H609 0.951 . S
C628 C626 1.388 . S
C628 C629 1.366 . S
C629 C628 1.366 . S
C629 C630 1.414 . S
C629 C632 1.499 . S
C630 H610 0.950 . S
C630 C629 1.414 . S
C630 C631 1.374 . S
C631 H611 0.950 . S
C631 C627 1.385 . S
C631 C630 1.374 . S
C632 C629 1.499 . S
C632 C633 1.373 . S
C632 C634 1.389 . S
C633 H612 0.950 . S
C633 C632 1.373 . S
C633 C649 1.377 . S
C634 C632 1.389 . S
C634 C635 1.524 1_545 S
C634 C648 1.377 . S
C635 C634 1.524 1_565 S
C635 C636 1.397 . S
C635 C640 1.363 . S
C636 H613 0.950 . S
C636 C635 1.397 . S
C636 C637 1.334 . S
C637 H614 0.950 . S
C637 C636 1.334 . S
C637 C638 1.287 . S
C638 C637 1.287 . S
C638 C639 1.524 . S
C638 H657 0.913 . S
C639 H615 0.950 . S
C639 C638 1.524 . S
C639 C640 1.415 . S
C640 H616 0.950 . S
C640 C635 1.363 . S
C640 C639 1.415 . S
C641 H617 0.951 . S
C641 C642 1.366 . S
C641 C643 1.388 . S
C642 C641 1.366 . S
C642 C646 1.385 . S
C643 H618 0.951 . S
C643 C641 1.388 . S
C643 C644 1.366 . S
C644 C643 1.366 . S
C644 C645 1.414 . S
C644 C647 1.499 . S
C645 H619 0.950 . S
C645 C644 1.414 . S
C645 C646 1.374 . S
C646 H620 0.950 . S
C646 C642 1.385 . S
C646 C645 1.374 . S
C647 C644 1.499 . S
C647 C648 1.373 . S
C647 C649 1.389 . S
C648 H621 0.952 . S
C648 C634 1.377 . S
C648 C647 1.373 . S
C649 C633 1.377 . S
C649 C647 1.389 . S
C649 C650 1.524 . S
C650 C649 1.524 . S
C650 C651 1.397 . S
C650 C655 1.363 . S
C651 H622 0.950 . S
C651 C650 1.397 . S
C651 C652 1.334 . S
C652 H623 0.950 . S
C652 C651 1.334 . S
C652 C653 1.287 . S
C653 C652 1.287 . S
C653 C654 1.524 . S
C653 H656 0.999 . S
C654 H624 0.950 . S
C654 C653 1.524 . S
C654 C655 1.415 . S
C655 H625 0.950 . S
C655 C650 1.363 . S
C655 C654 1.415 . S
H656 C653 0.999 . S
H657 C638 0.913 . S
H658 C676 0.951 . S
H659 C678 0.951 . S
H660 C680 0.950 . S
H661 C681 0.950 . S
H662 C683 0.950 . S
H663 C686 0.950 . S
H664 C687 0.950 . S
H665 C689 0.950 . S
H666 C690 0.950 . S
H667 C691 0.951 . S
H668 C693 0.951 . S
H669 C695 0.950 . S
H670 C696 0.950 . S
H671 C698 0.950 . S
H672 C701 0.950 . S
H673 C702 0.950 . S
H674 C704 0.950 . S
H675 C705 0.950 . S
C676 H658 0.951 . S
C676 C677 1.366 . S
C676 C678 1.388 . S
C677 C676 1.366 . S
C677 C681 1.385 . S
C678 H659 0.951 . S
C678 C676 1.388 . S
C678 C679 1.366 . S
C679 C678 1.366 . S
C679 C680 1.414 . S
C679 C682 1.499 . S
C680 H660 0.950 . S
C680 C679 1.414 . S
C680 C681 1.374 . S
C681 H661 0.950 . S
C681 C677 1.385 . S
C681 C680 1.374 . S
C682 C679 1.499 . S
C682 C683 1.373 . S
C682 C684 1.389 . S
C683 H662 0.950 . S
C683 C682 1.373 . S
C683 C699 1.377 . S
C684 C682 1.389 . S
C684 C685 1.524 . S
C684 C698 1.377 . S
C685 C684 1.524 . S
C685 C686 1.397 . S
C685 C690 1.363 . S
C686 H663 0.950 . S
C686 C685 1.397 . S
C686 C687 1.334 . S
C687 H664 0.950 . S
C687 C686 1.334 . S
C687 C688 1.287 . S
C688 C687 1.287 . S
C688 C689 1.524 . S
C688 H707 0.913 . S
C689 H665 0.950 . S
C689 C688 1.524 . S
C689 C690 1.415 . S
C690 H666 0.950 . S
C690 C685 1.363 . S
C690 C689 1.415 . S
C691 H667 0.951 . S
C691 C692 1.366 . S
C691 C693 1.388 . S
C692 C691 1.366 . S
C692 C696 1.385 . S
C693 H668 0.951 . S
C693 C691 1.388 . S
C693 C694 1.366 . S
C694 C693 1.366 . S
C694 C695 1.414 . S
C694 C697 1.499 . S
C695 H669 0.950 . S
C695 C694 1.414 . S
C695 C696 1.374 . S
C696 H670 0.950 . S
C696 C692 1.385 . S
C696 C695 1.374 . S
C697 C694 1.499 . S
C697 C698 1.373 . S
C697 C699 1.389 . S
C698 H671 0.950 . S
C698 C684 1.377 . S
C698 C697 1.373 . S
C699 C683 1.377 . S
C699 C697 1.389 . S
C699 C700 1.524 . S
C700 C699 1.524 . S
C700 C701 1.397 . S
C700 C705 1.363 . S
C701 H672 0.950 . S
C701 C700 1.397 . S
C701 C702 1.334 . S
C702 H673 0.950 . S
C702 C701 1.334 . S
C702 C703 1.287 . S
C703 C702 1.287 . S
C703 C704 1.524 . S
C703 H706 0.999 . S
C704 H674 0.950 . S
C704 C703 1.524 . S
C704 C705 1.415 . S
C705 H675 0.950 . S
C705 C700 1.363 . S
C705 C704 1.415 . S
H706 C703 0.999 . S
H707 C688 0.913 . S
H708 C726 0.951 . S
H709 C728 0.951 . S
H710 C730 0.950 . S
H711 C731 0.956 . S
H712 C733 0.950 . S
H713 C736 0.950 . S
H714 C737 0.950 . S
H715 C739 0.950 . S
H716 C740 0.950 . S
H717 C741 0.951 . S
H718 C743 0.951 . S
H719 C745 0.950 . S
H720 C746 0.950 . S
H721 C748 0.950 . S
H722 C751 0.950 . S
H723 C752 0.950 . S
H724 C754 0.950 . S
H725 C755 0.950 . S
C726 H708 0.951 . S
C726 C727 1.366 . S
C726 C728 1.388 . S
C727 C726 1.366 . S
C727 C731 1.385 . S
C728 H709 0.951 . S
C728 C726 1.388 . S
C728 C729 1.366 . S
C729 C728 1.366 . S
C729 C730 1.414 . S
C729 C732 1.499 . S
C730 H710 0.950 . S
C730 C729 1.414 . S
C730 C731 1.374 . S
C731 H711 0.956 . S
C731 C727 1.385 . S
C731 C730 1.374 . S
C732 C729 1.499 . S
C732 C733 1.373 1_565 S
C732 C734 1.389 . S
C733 H712 0.950 . S
C733 C732 1.373 1_545 S
C733 C749 1.377 . S
C734 C732 1.389 . S
C734 C735 1.524 . S
C734 C748 1.377 . S
C735 C734 1.524 . S
C735 C736 1.397 . S
C735 C740 1.363 . S
C736 H713 0.950 . S
C736 C735 1.397 . S
C736 C737 1.334 . S
C737 H714 0.950 . S
C737 C736 1.334 . S
C737 C738 1.287 . S
C738 C737 1.287 . S
C738 C739 1.524 . S
C738 H757 0.913 . S
C739 H715 0.950 . S
C739 C738 1.524 . S
C739 C740 1.415 . S
C740 H716 0.950 . S
C740 C735 1.363 . S
C740 C739 1.415 . S
C741 H717 0.951 . S
C741 C742 1.366 . S
C741 C743 1.388 . S
C742 C741 1.366 . S
C742 C746 1.385 . S
C743 H718 0.951 . S
C743 C741 1.388 . S
C743 C744 1.366 . S
C744 C743 1.366 . S
C744 C745 1.414 . S
C744 C747 1.499 . S
C745 H719 0.950 . S
C745 C744 1.414 . S
C745 C746 1.374 . S
C746 H720 0.950 . S
C746 C742 1.385 . S
C746 C745 1.374 . S
C747 C744 1.499 . S
C747 C748 1.373 . S
C747 C749 1.389 1_565 S
C748 H721 0.950 . S
C748 C734 1.377 . S
C748 C747 1.373 . S
C749 C733 1.377 . S
C749 C747 1.389 1_545 S
C749 C750 1.524 . S
C750 C749 1.524 . S
C750 C751 1.397 . S
C750 C755 1.363 . S
C751 H722 0.950 . S
C751 C750 1.397 . S
C751 C752 1.334 . S
C752 H723 0.950 . S
C752 C751 1.334 . S
C752 C753 1.287 . S
C753 C752 1.287 . S
C753 C754 1.524 . S
C753 H756 0.999 . S
C754 H724 0.950 . S
C754 C753 1.524 . S
C754 C755 1.415 . S
C755 H725 0.950 . S
C755 C750 1.363 . S
C755 C754 1.415 . S
H756 C753 0.999 . S
H757 C738 0.913 . S
H758 C776 0.951 . S
H759 C778 0.951 . S
H760 C780 0.950 . S
H761 C781 0.950 . S
H762 C783 0.950 . S
H763 C786 0.950 . S
H764 C787 0.950 . S
H765 C789 0.950 . S
H766 C790 0.950 . S
H767 C791 0.951 . S
H768 C793 0.951 . S
H769 C795 0.950 . S
H770 C796 0.950 . S
H771 C798 0.950 . S
H772 C801 0.950 . S
H773 C802 0.950 . S
H774 C804 0.950 . S
H775 C805 0.950 . S
C776 H758 0.951 . S
C776 C777 1.366 . S
C776 C778 1.388 . S
C777 C776 1.366 . S
C777 C781 1.385 . S
C778 H759 0.951 . S
C778 C776 1.388 . S
C778 C779 1.366 . S
C779 C778 1.366 . S
C779 C780 1.414 . S
C779 C782 1.499 . S
C780 H760 0.950 . S
C780 C779 1.414 . S
C780 C781 1.374 . S
C781 H761 0.950 . S
C781 C777 1.385 . S
C781 C780 1.374 . S
C782 C779 1.499 . S
C782 C783 1.373 . S
C782 C784 1.389 . S
C783 H762 0.950 . S
C783 C782 1.373 . S
C783 C799 1.377 . S
C784 C782 1.389 . S
C784 C785 1.524 . S
C784 C798 1.377 . S
C785 C784 1.524 . S
C785 C786 1.397 . S
C785 C790 1.363 . S
C786 H763 0.950 . S
C786 C785 1.397 . S
C786 C787 1.334 . S
C787 H764 0.950 . S
C787 C786 1.334 . S
C787 C788 1.287 . S
C788 C787 1.287 . S
C788 C789 1.524 . S
C788 H807 0.913 . S
C789 H765 0.950 . S
C789 C788 1.524 . S
C789 C790 1.415 . S
C790 H766 0.950 . S
C790 C785 1.363 . S
C790 C789 1.415 . S
C791 H767 0.951 . S
C791 C792 1.366 . S
C791 C793 1.388 . S
C792 C791 1.366 . S
C792 C796 1.385 . S
C793 H768 0.951 . S
C793 C791 1.388 . S
C793 C794 1.366 . S
C794 C793 1.366 . S
C794 C795 1.414 . S
C794 C797 1.499 . S
C795 H769 0.950 . S
C795 C794 1.414 . S
C795 C796 1.374 . S
C796 H770 0.950 . S
C796 C792 1.385 . S
C796 C795 1.374 . S
C797 C794 1.499 . S
C797 C798 1.373 . S
C797 C799 1.389 . S
C798 H771 0.950 . S
C798 C784 1.377 . S
C798 C797 1.373 . S
C799 C783 1.377 . S
C799 C797 1.389 . S
C799 C800 1.524 . S
C800 C799 1.524 . S
C800 C801 1.397 . S
C800 C805 1.363 . S
C801 H772 0.950 . S
C801 C800 1.397 . S
C801 C802 1.334 . S
C802 H773 0.950 . S
C802 C801 1.334 . S
C802 C803 1.287 . S
C803 C802 1.287 . S
C803 C804 1.524 . S
C803 H806 0.999 . S
C804 H774 0.950 . S
C804 C803 1.524 . S
C804 C805 1.415 . S
C805 H775 0.950 . S
C805 C800 1.363 . S
C805 C804 1.415 . S
H806 C803 0.999 . S
H807 C788 0.913 . S
H808 C826 0.951 . S
H809 C828 0.951 . S
H810 C830 0.950 . S
H811 C831 0.950 . S
H812 C833 0.950 . S
H813 C836 0.950 . S
H814 C837 0.950 . S
H815 C839 0.950 . S
H816 C840 0.950 . S
H817 C841 0.951 . S
H818 C843 0.951 . S
H819 C845 0.950 . S
H820 C846 0.950 . S
H821 C848 0.950 . S
H822 C851 0.950 . S
H823 C852 0.950 . S
H824 C854 0.950 . S
H825 C855 0.950 . S
C826 H808 0.951 . S
C826 C827 1.366 . S
C826 C828 1.388 . S
C827 C826 1.366 . S
C827 C831 1.385 . S
C828 H809 0.951 . S
C828 C826 1.388 . S
C828 C829 1.366 . S
C829 C828 1.366 . S
C829 C830 1.414 . S
C829 C832 1.499 . S
C830 H810 0.950 . S
C830 C829 1.414 . S
C830 C831 1.374 . S
C831 H811 0.950 . S
C831 C827 1.385 . S
C831 C830 1.374 . S
C832 C829 1.499 . S
C832 C833 1.373 . S
C832 C834 1.389 . S
C833 H812 0.950 . S
C833 C832 1.373 . S
C833 C849 1.377 . S
C834 C832 1.389 . S
C834 C835 1.524 . S
C834 C848 1.377 . S
C835 C834 1.524 . S
C835 C836 1.397 1_554 S
C835 C840 1.363 . S
C836 H813 0.950 . S
C836 C835 1.397 1_556 S
C836 C837 1.334 . S
C837 H814 0.950 . S
C837 C836 1.334 . S
C837 C838 1.287 . S
C838 C837 1.287 . S
C838 C839 1.524 1_556 S
C838 H857 0.913 . S
C839 H815 0.950 . S
C839 C838 1.524 1_554 S
C839 C840 1.415 . S
C840 H816 0.950 . S
C840 C835 1.363 . S
C840 C839 1.415 . S
C841 H817 0.951 . S
C841 C842 1.366 . S
C841 C843 1.388 . S
C842 C841 1.366 . S
C842 C846 1.385 . S
C843 H818 0.951 . S
C843 C841 1.388 . S
C843 C844 1.366 . S
C844 C843 1.366 . S
C844 C845 1.414 . S
C844 C847 1.499 . S
C845 H819 0.950 . S
C845 C844 1.414 . S
C845 C846 1.374 . S
C846 H820 0.950 . S
C846 C842 1.385 . S
C846 C845 1.374 . S
C847 C844 1.499 . S
C847 C848 1.373 . S
C847 C849 1.389 . S
C848 H821 0.950 . S
C848 C834 1.377 . S
C848 C847 1.373 . S
C849 C833 1.377 . S
C849 C847 1.389 . S
C849 C850 1.524 . S
C850 C849 1.524 . S
C850 C851 1.397 . S
C850 C855 1.363 . S
C851 H822 0.950 . S
C851 C850 1.397 . S
C851 C852 1.334 . S
C852 H823 0.950 . S
C852 C851 1.334 . S
C852 C853 1.287 . S
C853 C852 1.287 . S
C853 C854 1.524 . S
C853 H856 0.999 . S
C854 H824 0.950 . S
C854 C853 1.524 . S
C854 C855 1.415 . S
C855 H825 0.950 . S
C855 C850 1.363 . S
C855 C854 1.415 . S
H856 C853 0.999 . S
H857 C838 0.913 . S
H858 C876 0.951 . S
H859 C878 0.951 . S
H860 C880 0.950 . S
H861 C881 0.950 . S
H862 C883 0.950 . S
H863 C886 0.950 . S
H864 C887 0.950 . S
H865 C889 0.950 . S
H866 C890 0.950 . S
H867 C891 0.951 . S
H868 C893 0.951 . S
H869 C895 0.950 . S
H870 C896 0.950 . S
H871 C898 0.950 . S
H872 C901 0.950 . S
H873 C902 0.950 . S
H874 C904 0.950 . S
H875 C905 0.950 . S
C876 H858 0.951 . S
C876 C877 1.366 . S
C876 C878 1.388 . S
C877 C876 1.366 . S
C877 C881 1.385 . S
C878 H859 0.951 . S
C878 C876 1.388 . S
C878 C879 1.366 . S
C879 C878 1.366 . S
C879 C880 1.414 . S
C879 C882 1.499 . S
C880 H860 0.950 . S
C880 C879 1.414 . S
C880 C881 1.374 . S
C881 H861 0.950 . S
C881 C877 1.385 . S
C881 C880 1.374 . S
C882 C879 1.499 . S
C882 C883 1.373 . S
C882 C884 1.389 . S
C883 H862 0.950 . S
C883 C882 1.373 . S
C883 C899 1.377 . S
C884 C882 1.389 . S
C884 C885 1.524 . S
C884 C898 1.377 . S
C885 C884 1.524 . S
C885 C886 1.397 . S
C885 C890 1.363 . S
C886 H863 0.950 . S
C886 C885 1.397 . S
C886 C887 1.334 . S
C887 H864 0.950 . S
C887 C886 1.334 . S
C887 C888 1.287 . S
C888 C887 1.287 . S
C888 C889 1.524 . S
C888 H907 0.913 . S
C889 H865 0.950 . S
C889 C888 1.524 . S
C889 C890 1.415 . S
C890 H866 0.950 . S
C890 C885 1.363 . S
C890 C889 1.415 . S
C891 H867 0.951 . S
C891 C892 1.366 . S
C891 C893 1.388 . S
C892 C891 1.366 . S
C892 C896 1.385 . S
C893 H868 0.951 . S
C893 C891 1.388 . S
C893 C894 1.366 . S
C894 C893 1.366 . S
C894 C895 1.414 . S
C894 C897 1.499 . S
C895 H869 0.950 . S
C895 C894 1.414 . S
C895 C896 1.374 . S
C896 H870 0.950 . S
C896 C892 1.385 . S
C896 C895 1.374 . S
C897 C894 1.499 . S
C897 C898 1.373 . S
C897 C899 1.389 . S
C898 H871 0.950 . S
C898 C884 1.377 . S
C898 C897 1.373 . S
C899 C883 1.377 . S
C899 C897 1.389 . S
C899 C900 1.524 . S
C900 C899 1.524 . S
C900 C901 1.397 . S
C900 C905 1.363 . S
C901 H872 0.950 . S
C901 C900 1.397 . S
C901 C902 1.334 . S
C902 H873 0.950 . S
C902 C901 1.334 . S
C902 C903 1.287 . S
C903 C902 1.287 . S
C903 C904 1.524 . S
C903 H906 0.999 . S
C904 H874 0.950 . S
C904 C903 1.524 . S
C904 C905 1.415 . S
C905 H875 0.950 . S
C905 C900 1.363 . S
C905 C904 1.415 . S
H906 C903 0.999 . S
H907 C888 0.913 . S
H908 C926 0.951 . S
H909 C928 0.951 . S
H910 C930 0.950 . S
H911 C931 0.950 . S
H912 C933 0.950 . S
H913 C936 0.950 . S
H914 C937 0.950 . S
H915 C939 0.950 . S
H916 C940 0.950 . S
H917 C941 0.951 . S
H918 C943 0.951 . S
H919 C945 0.950 . S
H920 C946 0.950 . S
H921 C948 0.950 . S
H922 C951 0.950 . S
H923 C952 0.950 . S
H924 C954 0.950 . S
H925 C955 0.950 . S
C926 H908 0.951 . S
C926 C927 1.366 . S
C926 C928 1.388 . S
C927 C926 1.366 . S
C927 C931 1.385 . S
C928 H909 0.951 . S
C928 C926 1.388 . S
C928 C929 1.366 . S
C929 C928 1.366 . S
C929 C930 1.414 . S
C929 C932 1.499 . S
C930 H910 0.950 . S
C930 C929 1.414 . S
C930 C931 1.374 . S
C931 H911 0.950 . S
C931 C927 1.385 . S
C931 C930 1.374 . S
C932 C929 1.499 . S
C932 C933 1.373 . S
C932 C934 1.389 . S
C933 H912 0.950 . S
C933 C932 1.373 . S
C933 C949 1.377 . S
C934 C932 1.389 . S
C934 C935 1.524 . S
C934 C948 1.377 . S
C935 C934 1.524 . S
C935 C936 1.397 . S
C935 C940 1.363 . S
C936 H913 0.950 . S
C936 C935 1.397 . S
C936 C937 1.334 . S
C937 H914 0.950 . S
C937 C936 1.334 . S
C937 C938 1.287 . S
C938 C937 1.287 . S
C938 C939 1.524 . S
C938 H957 0.913 . S
C939 H915 0.950 . S
C939 C938 1.524 . S
C939 C940 1.415 . S
C940 H916 0.950 . S
C940 C935 1.363 . S
C940 C939 1.415 . S
C941 H917 0.951 . S
C941 C942 1.366 . S
C941 C943 1.388 . S
C942 C941 1.366 . S
C942 C946 1.385 . S
C943 H918 0.951 . S
C943 C941 1.388 . S
C943 C944 1.366 . S
C944 C943 1.366 . S
C944 C945 1.414 . S
C944 C947 1.499 . S
C945 H919 0.950 . S
C945 C944 1.414 . S
C945 C946 1.374 . S
C946 H920 0.950 . S
C946 C942 1.385 . S
C946 C945 1.374 . S
C947 C944 1.499 . S
C947 C948 1.373 . S
C947 C949 1.389 . S
C948 H921 0.950 . S
C948 C934 1.377 . S
C948 C947 1.373 . S
C949 C933 1.377 . S
C949 C947 1.389 . S
C949 C950 1.524 . S
C950 C949 1.524 . S
C950 C951 1.397 . S
C950 C955 1.363 . S
C951 H922 0.950 . S
C951 C950 1.397 . S
C951 C952 1.334 . S
C952 H923 0.950 . S
C952 C951 1.334 . S
C952 C953 1.287 . S
C953 C952 1.287 . S
C953 C954 1.524 . S
C953 H956 0.999 . S
C954 H924 0.950 . S
C954 C953 1.524 . S
C954 C955 1.415 . S
C955 H925 0.950 . S
C955 C950 1.363 . S
C955 C954 1.415 . S
H956 C953 0.999 . S
H957 C938 0.913 . S
H958 C976 0.951 . S
H959 C978 0.951 . S
H960 C980 0.950 . S
H961 C981 0.950 . S
H962 C983 0.950 . S
H963 C986 0.950 . S
H964 C987 0.950 . S
H965 C989 0.950 . S
H966 C990 0.950 . S
H967 C991 0.951 . S
H968 C993 0.951 . S
H969 C995 0.950 . S
H970 C996 0.950 . S
H971 C998 0.950 . S
H972 C1001 0.950 . S
H973 C1002 0.950 . S
H974 C1004 0.950 . S
H975 C1005 0.950 . S
C976 H958 0.951 . S
C976 C977 1.366 . S
C976 C978 1.388 . S
C977 C976 1.366 . S
C977 C981 1.385 . S
C978 H959 0.951 . S
C978 C976 1.388 . S
C978 C979 1.366 . S
C979 C978 1.366 . S
C979 C980 1.414 . S
C979 C982 1.499 . S
C980 H960 0.950 . S
C980 C979 1.414 . S
C980 C981 1.374 . S
C981 H961 0.950 . S
C981 C977 1.385 . S
C981 C980 1.374 . S
C982 C979 1.499 . S
C982 C983 1.373 . S
C982 C984 1.389 . S
C983 H962 0.950 . S
C983 C982 1.373 . S
C983 C999 1.377 . S
C984 C982 1.389 . S
C984 C985 1.524 . S
C984 C998 1.377 . S
C985 C984 1.524 . S
C985 C986 1.397 . S
C985 C990 1.363 . S
C986 H963 0.950 . S
C986 C985 1.397 . S
C986 C987 1.334 . S
C987 H964 0.950 . S
C987 C986 1.334 . S
C987 C988 1.287 . S
C988 C987 1.287 . S
C988 C989 1.524 . S
C988 H1007 0.913 . S
C989 H965 0.950 . S
C989 C988 1.524 . S
C989 C990 1.415 . S
C990 H966 0.950 . S
C990 C985 1.363 . S
C990 C989 1.415 . S
C991 H967 0.951 . S
C991 C992 1.366 . S
C991 C993 1.388 . S
C992 C991 1.366 . S
C992 C996 1.385 . S
C993 H968 0.951 . S
C993 C991 1.388 . S
C993 C994 1.366 . S
C994 C993 1.366 . S
C994 C995 1.414 . S
C994 C997 1.499 . S
C995 H969 0.950 . S
C995 C994 1.414 . S
C995 C996 1.374 . S
C996 H970 0.950 . S
C996 C992 1.385 . S
C996 C995 1.374 . S
C997 C994 1.499 . S
C997 C998 1.373 . S
C997 C999 1.389 . S
C998 H971 0.950 . S
C998 C984 1.377 . S
C998 C997 1.373 . S
C999 C983 1.377 . S
C999 C997 1.389 . S
C999 C1000 1.524 . S
C1000 C999 1.524 . S
C1000 C1001 1.397 . S
C1000 C1005 1.363 . S
C1001 H972 0.950 . S
C1001 C1000 1.397 . S
C1001 C1002 1.334 . S
C1002 H973 0.950 . S
C1002 C1001 1.334 . S
C1002 C1003 1.287 . S
C1003 C1002 1.287 . S
C1003 C1004 1.524 . S
C1003 H1006 0.999 . S
C1004 H974 0.950 . S
C1004 C1003 1.524 . S
C1004 C1005 1.415 . S
C1005 H975 0.950 . S
C1005 C1000 1.363 . S
C1005 C1004 1.415 . S
H1006 C1003 0.999 . S
H1007 C988 0.913 . S
H1008 C1026 0.951 . S
H1009 C1028 0.951 . S
H1010 C1030 0.950 . S
H1011 C1031 0.950 . S
H1012 C1033 0.950 . S
H1013 C1036 0.950 . S
H1014 C1037 0.950 . S
H1015 C1039 0.950 . S
H1016 C1040 0.950 . S
H1017 C1041 0.951 . S
H1018 C1043 0.951 . S
H1019 C1045 0.950 . S
H1020 C1046 0.950 . S
H1021 C1048 0.950 . S
H1022 C1051 0.950 . S
H1023 C1052 0.950 . S
H1024 C1054 0.950 . S
H1025 C1055 0.950 . S
C1026 H1008 0.951 . S
C1026 C1027 1.366 . S
C1026 C1028 1.388 . S
C1027 C1026 1.366 . S
C1027 C1031 1.385 . S
C1028 H1009 0.951 . S
C1028 C1026 1.388 . S
C1028 C1029 1.366 . S
C1029 C1028 1.366 . S
C1029 C1030 1.414 . S
C1029 C1032 1.499 . S
C1030 H1010 0.950 . S
C1030 C1029 1.414 . S
C1030 C1031 1.374 . S
C1031 H1011 0.950 . S
C1031 C1027 1.385 . S
C1031 C1030 1.374 . S
C1032 C1029 1.499 . S
C1032 C1033 1.373 . S
C1032 C1034 1.389 . S
C1033 H1012 0.950 . S
C1033 C1032 1.373 . S
C1033 C1049 1.377 . S
C1034 C1032 1.389 . S
C1034 C1035 1.524 . S
C1034 C1048 1.377 . S
C1035 C1034 1.524 . S
C1035 C1036 1.397 . S
C1035 C1040 1.363 . S
C1036 H1013 0.950 . S
C1036 C1035 1.397 . S
C1036 C1037 1.334 . S
C1037 H1014 0.950 . S
C1037 C1036 1.334 . S
C1037 C1038 1.287 . S
C1038 C1037 1.287 . S
C1038 C1039 1.524 . S
C1038 H1057 0.913 . S
C1039 H1015 0.950 . S
C1039 C1038 1.524 . S
C1039 C1040 1.415 . S
C1040 H1016 0.950 . S
C1040 C1035 1.363 . S
C1040 C1039 1.415 . S
C1041 H1017 0.951 . S
C1041 C1042 1.366 . S
C1041 C1043 1.388 . S
C1042 C1041 1.366 . S
C1042 C1046 1.385 . S
C1043 H1018 0.951 . S
C1043 C1041 1.388 . S
C1043 C1044 1.366 . S
C1044 C1043 1.366 . S
C1044 C1045 1.414 . S
C1044 C1047 1.499 . S
C1045 H1019 0.950 . S
C1045 C1044 1.414 . S
C1045 C1046 1.374 . S
C1046 H1020 0.950 . S
C1046 C1042 1.385 . S
C1046 C1045 1.374 . S
C1047 C1044 1.499 . S
C1047 C1048 1.373 . S
C1047 C1049 1.389 . S
C1048 H1021 0.950 . S
C1048 C1034 1.377 . S
C1048 C1047 1.373 . S
C1049 C1033 1.377 . S
C1049 C1047 1.389 . S
C1049 C1050 1.524 . S
C1050 C1049 1.524 . S
C1050 C1051 1.397 . S
C1050 C1055 1.363 . S
C1051 H1022 0.950 . S
C1051 C1050 1.397 . S
C1051 C1052 1.334 . S
C1052 H1023 0.950 . S
C1052 C1051 1.334 . S
C1052 C1053 1.287 . S
C1053 C1052 1.287 . S
C1053 C1054 1.524 . S
C1053 H1056 0.999 . S
C1054 H1024 0.950 . S
C1054 C1053 1.524 . S
C1054 C1055 1.415 . S
C1055 H1025 0.950 . S
C1055 C1050 1.363 . S
C1055 C1054 1.415 . S
H1056 C1053 0.999 . S
H1057 C1038 0.913 . S
H1058 C1076 0.951 . S
H1059 C1078 0.951 . S
H1060 C1080 0.950 . S
H1061 C1081 0.950 . S
H1062 C1083 0.950 . S
H1063 C1086 0.950 . S
H1064 C1087 0.950 . S
H1065 C1089 0.950 . S
H1066 C1090 0.950 . S
H1067 C1091 0.951 . S
H1068 C1093 0.951 . S
H1069 C1095 0.950 . S
H1070 C1096 0.950 . S
H1071 C1098 0.950 . S
H1072 C1101 0.950 . S
H1073 C1102 0.950 . S
H1074 C1104 0.950 . S
H1075 C1105 0.950 . S
C1076 H1058 0.951 . S
C1076 C1077 1.366 . S
C1076 C1078 1.388 . S
C1077 C1076 1.366 . S
C1077 C1081 1.385 . S
C1078 H1059 0.951 . S
C1078 C1076 1.388 . S
C1078 C1079 1.366 . S
C1079 C1078 1.366 . S
C1079 C1080 1.414 . S
C1079 C1082 1.499 . S
C1080 H1060 0.950 . S
C1080 C1079 1.414 . S
C1080 C1081 1.374 . S
C1081 H1061 0.950 . S
C1081 C1077 1.385 . S
C1081 C1080 1.374 . S
C1082 C1079 1.499 . S
C1082 C1083 1.373 . S
C1082 C1084 1.389 . S
C1083 H1062 0.950 . S
C1083 C1082 1.373 . S
C1083 C1099 1.377 . S
C1084 C1082 1.389 . S
C1084 C1085 1.524 . S
C1084 C1098 1.377 . S
C1085 C1084 1.524 . S
C1085 C1086 1.397 . S
C1085 C1090 1.363 . S
C1086 H1063 0.950 . S
C1086 C1085 1.397 . S
C1086 C1087 1.334 . S
C1087 H1064 0.950 . S
C1087 C1086 1.334 . S
C1087 C1088 1.287 . S
C1088 C1087 1.287 . S
C1088 C1089 1.524 . S
C1088 H1107 0.913 . S
C1089 H1065 0.950 . S
C1089 C1088 1.524 . S
C1089 C1090 1.415 . S
C1090 H1066 0.950 . S
C1090 C1085 1.363 . S
C1090 C1089 1.415 . S
C1091 H1067 0.951 . S
C1091 C1092 1.366 . S
C1091 C1093 1.388 . S
C1092 C1091 1.366 . S
C1092 C1096 1.385 . S
C1093 H1068 0.951 . S
C1093 C1091 1.388 . S
C1093 C1094 1.366 . S
C1094 C1093 1.366 . S
C1094 C1095 1.414 . S
C1094 C1097 1.499 . S
C1095 H1069 0.950 . S
C1095 C1094 1.414 . S
C1095 C1096 1.374 . S
C1096 H1070 0.950 . S
C1096 C1092 1.385 . S
C1096 C1095 1.374 . S
C1097 C1094 1.499 . S
C1097 C1098 1.373 . S
C1097 C1099 1.389 . S
C1098 H1071 0.950 . S
C1098 C1084 1.377 . S
C1098 C1097 1.373 . S
C1099 C1083 1.377 . S
C1099 C1097 1.389 . S
C1099 C1100 1.524 . S
C1100 C1099 1.524 . S
C1100 C1101 1.397 . S
C1100 C1105 1.363 . S
C1101 H1072 0.950 . S
C1101 C1100 1.397 . S
C1101 C1102 1.334 . S
C1102 H1073 0.950 . S
C1102 C1101 1.334 . S
C1102 C1103 1.287 . S
C1103 C1102 1.287 . S
C1103 C1104 1.524 . S
C1103 H1106 0.999 . S
C1104 H1074 0.950 . S
C1104 C1103 1.524 . S
C1104 C1105 1.415 . S
C1105 H1075 0.950 . S
C1105 C1100 1.363 . S
C1105 C1104 1.415 . S
H1106 C1103 0.999 . S
H1107 C1088 0.913 . S
H1108 C1126 0.951 . S
H1109 C1128 0.951 . S
H1110 C1130 0.950 . S
H1111 C1131 0.950 . S
H1112 C1133 0.950 . S
H1113 C1136 0.950 . S
H1114 C1137 0.950 . S
H1115 C1139 0.950 . S
H1116 C1140 0.950 . S
H1117 C1141 0.951 . S
H1118 C1143 0.951 . S
H1119 C1145 0.950 . S
H1120 C1146 0.950 . S
H1121 C1148 0.950 . S
H1122 C1151 0.950 . S
H1123 C1152 0.950 . S
H1124 C1154 0.950 . S
H1125 C1155 0.950 . S
C1126 H1108 0.951 . S
C1126 C1127 1.366 . S
C1126 C1128 1.388 . S
C1127 C1126 1.366 . S
C1127 C1131 1.385 . S
C1128 H1109 0.951 . S
C1128 C1126 1.388 . S
C1128 C1129 1.366 . S
C1129 C1128 1.366 . S
C1129 C1130 1.414 . S
C1129 C1132 1.499 . S
C1130 H1110 0.950 . S
C1130 C1129 1.414 . S
C1130 C1131 1.374 . S
C1131 H1111 0.950 . S
C1131 C1127 1.385 . S
C1131 C1130 1.374 . S
C1132 C1129 1.499 . S
C1132 C1133 1.373 . S
C1132 C1134 1.389 . S
C1133 H1112 0.950 . S
C1133 C1132 1.373 . S
C1133 C1149 1.377 . S
C1134 C1132 1.389 . S
C1134 C1135 1.524 . S
C1134 C1148 1.377 . S
C1135 C1134 1.524 . S
C1135 C1136 1.397 . S
C1135 C1140 1.363 . S
C1136 H1113 0.950 . S
C1136 C1135 1.397 . S
C1136 C1137 1.334 . S
C1137 H1114 0.950 . S
C1137 C1136 1.334 . S
C1137 C1138 1.287 . S
C1138 C1137 1.287 . S
C1138 C1139 1.524 . S
C1138 H1157 0.913 . S
C1139 H1115 0.950 . S
C1139 C1138 1.524 . S
C1139 C1140 1.415 . S
C1140 H1116 0.950 . S
C1140 C1135 1.363 . S
C1140 C1139 1.415 . S
C1141 H1117 0.951 . S
C1141 C1142 1.366 . S
C1141 C1143 1.388 . S
C1142 C1141 1.366 . S
C1142 C1146 1.385 . S
C1143 H1118 0.951 . S
C1143 C1141 1.388 . S
C1143 C1144 1.366 . S
C1144 C1143 1.366 . S
C1144 C1145 1.414 . S
C1144 C1147 1.499 . S
C1145 H1119 0.950 . S
C1145 C1144 1.414 . S
C1145 C1146 1.374 . S
C1146 H1120 0.950 . S
C1146 C1142 1.385 . S
C1146 C1145 1.374 . S
C1147 C1144 1.499 . S
C1147 C1148 1.373 . S
C1147 C1149 1.389 . S
C1148 H1121 0.950 . S
C1148 C1134 1.377 . S
C1148 C1147 1.373 . S
C1149 C1133 1.377 . S
C1149 C1147 1.389 . S
C1149 C1150 1.524 . S
C1150 C1149 1.524 . S
C1150 C1151 1.397 . S
C1150 C1155 1.363 . S
C1151 H1122 0.950 . S
C1151 C1150 1.397 . S
C1151 C1152 1.334 . S
C1152 H1123 0.950 . S
C1152 C1151 1.334 . S
C1152 C1153 1.287 . S
C1153 C1152 1.287 . S
C1153 C1154 1.524 . S
C1153 H1156 0.999 . S
C1154 H1124 0.950 . S
C1154 C1153 1.524 . S
C1154 C1155 1.415 . S
C1155 H1125 0.950 . S
C1155 C1150 1.363 . S
C1155 C1154 1.415 . S
H1156 C1153 0.999 . S
H1157 C1138 0.913 . S
H1158 C1176 0.951 . S
H1159 C1178 0.951 . S
H1160 C1180 0.950 . S
H1161 C1181 0.950 . S
H1162 C1183 0.950 . S
H1163 C1186 0.950 . S
H1164 C1187 0.950 . S
H1165 C1189 0.950 . S
H1166 C1190 0.950 . S
H1167 C1191 0.929 1_565 S
H1168 C1193 0.951 . S
H1169 C1195 0.950 . S
H1170 C1196 0.952 . S
H1171 C1198 0.950 . S
H1172 C1201 0.950 . S
H1173 C1202 0.950 . S
H1174 C1204 0.950 . S
H1175 C1205 0.950 . S
C1176 H1158 0.951 . S
C1176 C1177 1.366 . S
C1176 C1178 1.388 . S
C1177 C1176 1.366 . S
C1177 C1181 1.385 . S
C1178 H1159 0.951 . S
C1178 C1176 1.388 . S
C1178 C1179 1.366 . S
C1179 C1178 1.366 . S
C1179 C1180 1.414 . S
C1179 C1182 1.499 . S
C1180 H1160 0.950 . S
C1180 C1179 1.414 . S
C1180 C1181 1.374 . S
C1181 H1161 0.950 . S
C1181 C1177 1.385 . S
C1181 C1180 1.374 . S
C1182 C1179 1.499 . S
C1182 C1183 1.373 . S
C1182 C1184 1.389 . S
C1183 H1162 0.950 . S
C1183 C1182 1.373 . S
C1183 C1199 1.377 . S
C1184 C1182 1.389 . S
C1184 C1185 1.524 . S
C1184 C1198 1.377 . S
C1185 C1184 1.524 . S
C1185 C1186 1.397 . S
C1185 C1190 1.363 . S
C1186 H1163 0.950 . S
C1186 C1185 1.397 . S
C1186 C1187 1.334 . S
C1187 H1164 0.950 . S
C1187 C1186 1.334 . S
C1187 C1188 1.287 . S
C1188 C1187 1.287 . S
C1188 C1189 1.524 . S
C1188 H1207 0.913 . S
C1189 H1165 0.950 . S
C1189 C1188 1.524 . S
C1189 C1190 1.415 . S
C1190 H1166 0.950 . S
C1190 C1185 1.363 . S
C1190 C1189 1.415 . S
C1191 H1167 0.929 1_545 S
C1191 C1192 1.366 1_545 S
C1191 C1193 1.388 . S
C1192 C1191 1.366 1_565 S
C1192 C1196 1.385 1_565 S
C1193 H1168 0.951 . S
C1193 C1191 1.388 . S
C1193 C1194 1.366 . S
C1194 C1193 1.366 . S
C1194 C1195 1.414 . S
C1194 C1197 1.499 . S
C1195 H1169 0.950 . S
C1195 C1194 1.414 . S
C1195 C1196 1.374 . S
C1196 H1170 0.952 . S
C1196 C1192 1.385 1_545 S
C1196 C1195 1.374 . S
C1197 C1194 1.499 . S
C1197 C1198 1.373 . S
C1197 C1199 1.389 . S
C1198 H1171 0.950 . S
C1198 C1184 1.377 . S
C1198 C1197 1.373 . S
C1199 C1183 1.377 . S
C1199 C1197 1.389 . S
C1199 C1200 1.524 . S
C1200 C1199 1.524 . S
C1200 C1201 1.397 . S
C1200 C1205 1.363 . S
C1201 H1172 0.950 . S
C1201 C1200 1.397 . S
C1201 C1202 1.334 . S
C1202 H1173 0.950 . S
C1202 C1201 1.334 . S
C1202 C1203 1.287 . S
C1203 C1202 1.287 . S
C1203 C1204 1.524 . S
C1203 H1206 0.999 . S
C1204 H1174 0.950 . S
C1204 C1203 1.524 . S
C1204 C1205 1.415 . S
C1205 H1175 0.950 . S
C1205 C1200 1.363 . S
C1205 C1204 1.415 . S
H1206 C1203 0.999 . S
H1207 C1188 0.913 . S
H1208 C1226 0.951 . S
H1209 C1228 0.951 . S
H1210 C1230 0.950 . S
H1211 C1231 0.950 . S
H1212 C1233 0.950 . S
H1213 C1236 0.950 . S
H1214 C1237 0.950 . S
H1215 C1239 0.950 . S
H1216 C1240 0.950 . S
H1217 C1241 0.951 . S
H1218 C1243 0.951 . S
H1219 C1245 0.950 . S
H1220 C1246 0.950 . S
H1221 C1248 0.950 . S
H1222 C1251 0.950 . S
H1223 C1252 0.950 . S
H1224 C1254 0.950 . S
H1225 C1255 0.950 . S
C1226 H1208 0.951 . S
C1226 C1227 1.366 . S
C1226 C1228 1.388 . S
C1227 C1226 1.366 . S
C1227 C1231 1.385 . S
C1228 H1209 0.951 . S
C1228 C1226 1.388 . S
C1228 C1229 1.366 . S
C1229 C1228 1.366 . S
C1229 C1230 1.414 . S
C1229 C1232 1.499 . S
C1230 H1210 0.950 . S
C1230 C1229 1.414 . S
C1230 C1231 1.374 . S
C1231 H1211 0.950 . S
C1231 C1227 1.385 . S
C1231 C1230 1.374 . S
C1232 C1229 1.499 . S
C1232 C1233 1.373 . S
C1232 C1234 1.389 . S
C1233 H1212 0.950 . S
C1233 C1232 1.373 . S
C1233 C1249 1.377 . S
C1234 C1232 1.389 . S
C1234 C1235 1.524 . S
C1234 C1248 1.377 . S
C1235 C1234 1.524 . S
C1235 C1236 1.397 . S
C1235 C1240 1.363 . S
C1236 H1213 0.950 . S
C1236 C1235 1.397 . S
C1236 C1237 1.334 . S
C1237 H1214 0.950 . S
C1237 C1236 1.334 . S
C1237 C1238 1.287 . S
C1238 C1237 1.287 . S
C1238 C1239 1.524 . S
C1238 H1257 0.913 . S
C1239 H1215 0.950 . S
C1239 C1238 1.524 . S
C1239 C1240 1.415 . S
C1240 H1216 0.950 . S
C1240 C1235 1.363 . S
C1240 C1239 1.415 . S
C1241 H1217 0.951 . S
C1241 C1242 1.366 . S
C1241 C1243 1.388 . S
C1242 C1241 1.366 . S
C1242 C1246 1.385 . S
C1243 H1218 0.951 . S
C1243 C1241 1.388 . S
C1243 C1244 1.366 . S
C1244 C1243 1.366 . S
C1244 C1245 1.414 . S
C1244 C1247 1.499 . S
C1245 H1219 0.950 . S
C1245 C1244 1.414 . S
C1245 C1246 1.374 . S
C1246 H1220 0.950 . S
C1246 C1242 1.385 . S
C1246 C1245 1.374 . S
C1247 C1244 1.499 . S
C1247 C1248 1.373 . S
C1247 C1249 1.389 . S
C1248 H1221 0.950 . S
C1248 C1234 1.377 . S
C1248 C1247 1.373 . S
C1249 C1233 1.377 . S
C1249 C1247 1.389 . S
C1249 C1250 1.524 . S
C1250 C1249 1.524 . S
C1250 C1251 1.397 . S
C1250 C1255 1.363 . S
C1251 H1222 0.950 . S
C1251 C1250 1.397 . S
C1251 C1252 1.334 . S
C1252 H1223 0.950 . S
C1252 C1251 1.334 . S
C1252 C1253 1.287 . S
C1253 C1252 1.287 . S
C1253 C1254 1.524 . S
C1253 H1256 0.999 . S
C1254 H1224 0.950 . S
C1254 C1253 1.524 . S
C1254 C1255 1.415 . S
C1255 H1225 0.950 . S
C1255 C1250 1.363 . S
C1255 C1254 1.415 . S
H1256 C1253 0.999 . S
H1257 C1238 0.913 . S
H1258 C1276 0.951 . S
H1259 C1278 0.951 . S
H1260 C1280 0.949 1_545 S
H1261 C1281 0.942 1_545 S
H1262 C1283 0.950 . S
H1263 C1286 0.950 . S
H1264 C1287 0.950 . S
H1265 C1289 0.950 . S
H1266 C1290 0.950 . S
H1267 C1291 0.951 . S
H1268 C1293 0.951 . S
H1269 C1295 0.950 . S
H1270 C1296 0.950 . S
H1271 C1298 0.958 . S
H1272 C1301 0.950 . S
H1273 C1302 0.950 . S
H1274 C1304 0.950 . S
H1275 C1305 0.950 . S
C1276 H1258 0.951 . S
C1276 C1277 1.366 . S
C1276 C1278 1.388 . S
C1277 C1276 1.366 . S
C1277 C1281 1.393 . S
C1278 H1259 0.951 . S
C1278 C1276 1.388 . S
C1278 C1279 1.366 . S
C1279 C1278 1.366 . S
C1279 C1280 1.414 . S
C1279 C1282 1.499 . S
C1280 H1260 0.949 1_565 S
C1280 C1279 1.414 . S
C1280 C1281 1.375 . S
C1281 H1261 0.942 1_565 S
C1281 C1277 1.393 . S
C1281 C1280 1.375 . S
C1282 C1279 1.499 . S
C1282 C1283 1.373 . S
C1282 C1284 1.389 1_565 S
C1283 H1262 0.950 . S
C1283 C1282 1.373 . S
C1283 C1299 1.377 . S
C1284 C1282 1.389 1_545 S
C1284 C1285 1.524 . S
C1284 C1298 1.378 . S
C1285 C1284 1.524 . S
C1285 C1286 1.397 . S
C1285 C1290 1.363 . S
C1286 H1263 0.950 . S
C1286 C1285 1.397 . S
C1286 C1287 1.334 . S
C1287 H1264 0.950 . S
C1287 C1286 1.334 . S
C1287 C1288 1.287 . S
C1288 C1287 1.287 . S
C1288 C1289 1.524 . S
C1288 H1307 0.913 . S
C1289 H1265 0.950 . S
C1289 C1288 1.524 . S
C1289 C1290 1.415 . S
C1290 H1266 0.950 . S
C1290 C1285 1.363 . S
C1290 C1289 1.415 . S
C1291 H1267 0.951 . S
C1291 C1292 1.366 . S
C1291 C1293 1.388 . S
C1292 C1291 1.366 . S
C1292 C1296 1.385 . S
C1293 H1268 0.951 . S
C1293 C1291 1.388 . S
C1293 C1294 1.366 . S
C1294 C1293 1.366 . S
C1294 C1295 1.414 . S
C1294 C1297 1.499 . S
C1295 H1269 0.950 . S
C1295 C1294 1.414 . S
C1295 C1296 1.374 . S
C1296 H1270 0.950 . S
C1296 C1292 1.385 . S
C1296 C1295 1.374 . S
C1297 C1294 1.499 . S
C1297 C1298 1.365 1_565 S
C1297 C1299 1.389 . S
C1298 H1271 0.958 . S
C1298 C1284 1.378 . S
C1298 C1297 1.365 1_545 S
C1299 C1283 1.377 . S
C1299 C1297 1.389 . S
C1299 C1300 1.524 . S
C1300 C1299 1.524 . S
C1300 C1301 1.397 . S
C1300 C1305 1.363 . S
C1301 H1272 0.950 . S
C1301 C1300 1.397 . S
C1301 C1302 1.334 . S
C1302 H1273 0.950 . S
C1302 C1301 1.334 . S
C1302 C1303 1.287 . S
C1303 C1302 1.287 . S
C1303 C1304 1.524 . S
C1303 H1306 0.999 . S
C1304 H1274 0.950 . S
C1304 C1303 1.524 . S
C1304 C1305 1.415 . S
C1305 H1275 0.950 . S
C1305 C1300 1.363 . S
C1305 C1304 1.415 . S
H1306 C1303 0.999 . S
H1307 C1288 0.913 . S
H1308 C1326 0.951 . S
H1309 C1328 0.951 . S
H1310 C1330 0.950 . S
H1311 C1331 0.950 . S
H1312 C1333 0.950 . S
H1313 C1336 0.950 . S
H1314 C1337 0.950 . S
H1315 C1339 0.950 . S
H1316 C1340 0.950 . S
H1317 C1341 0.951 . S
H1318 C1343 0.951 . S
H1319 C1345 0.950 . S
H1320 C1346 0.950 . S
H1321 C1348 0.950 . S
H1322 C1351 0.950 . S
H1323 C1352 0.950 . S
H1324 C1354 0.950 . S
H1325 C1355 0.950 . S
C1326 H1308 0.951 . S
C1326 C1327 1.366 . S
C1326 C1328 1.388 . S
C1327 C1326 1.366 . S
C1327 C1331 1.385 . S
C1328 H1309 0.951 . S
C1328 C1326 1.388 . S
C1328 C1329 1.366 . S
C1329 C1328 1.366 . S
C1329 C1330 1.414 . S
C1329 C1332 1.499 . S
C1330 H1310 0.950 . S
C1330 C1329 1.414 . S
C1330 C1331 1.374 . S
C1331 H1311 0.950 . S
C1331 C1327 1.385 . S
C1331 C1330 1.374 . S
C1332 C1329 1.499 . S
C1332 C1333 1.373 . S
C1332 C1334 1.389 . S
C1333 H1312 0.950 . S
C1333 C1332 1.373 . S
C1333 C1349 1.377 . S
C1334 C1332 1.389 . S
C1334 C1335 1.524 . S
C1334 C1348 1.377 . S
C1335 C1334 1.524 . S
C1335 C1336 1.397 . S
C1335 C1340 1.363 . S
C1336 H1313 0.950 . S
C1336 C1335 1.397 . S
C1336 C1337 1.334 . S
C1337 H1314 0.950 . S
C1337 C1336 1.334 . S
C1337 C1338 1.287 . S
C1338 C1337 1.287 . S
C1338 C1339 1.524 . S
C1338 H1357 0.913 . S
C1339 H1315 0.950 . S
C1339 C1338 1.524 . S
C1339 C1340 1.415 . S
C1340 H1316 0.950 . S
C1340 C1335 1.363 . S
C1340 C1339 1.415 . S
C1341 H1317 0.951 . S
C1341 C1342 1.366 . S
C1341 C1343 1.388 . S
C1342 C1341 1.366 . S
C1342 C1346 1.385 . S
C1343 H1318 0.951 . S
C1343 C1341 1.388 . S
C1343 C1344 1.366 . S
C1344 C1343 1.366 . S
C1344 C1345 1.414 . S
C1344 C1347 1.499 . S
C1345 H1319 0.950 . S
C1345 C1344 1.414 . S
C1345 C1346 1.374 . S
C1346 H1320 0.950 . S
C1346 C1342 1.385 . S
C1346 C1345 1.374 . S
C1347 C1344 1.499 . S
C1347 C1348 1.373 . S
C1347 C1349 1.389 . S
C1348 H1321 0.950 . S
C1348 C1334 1.377 . S
C1348 C1347 1.373 . S
C1349 C1333 1.377 . S
C1349 C1347 1.389 . S
C1349 C1350 1.524 . S
C1350 C1349 1.524 . S
C1350 C1351 1.397 . S
C1350 C1355 1.363 . S
C1351 H1322 0.950 . S
C1351 C1350 1.397 . S
C1351 C1352 1.334 . S
C1352 H1323 0.950 . S
C1352 C1351 1.334 . S
C1352 C1353 1.287 . S
C1353 C1352 1.287 . S
C1353 C1354 1.524 . S
C1353 H1356 0.999 . S
C1354 H1324 0.950 . S
C1354 C1353 1.524 . S
C1354 C1355 1.415 . S
C1355 H1325 0.950 . S
C1355 C1350 1.363 . S
C1355 C1354 1.415 . S
H1356 C1353 0.999 . S
H1357 C1338 0.913 . S
H1358 C1376 0.951 1_565 S
H1359 C1378 0.967 . S
H1360 C1380 0.950 . S
H1361 C1381 0.950 . S
H1362 C1383 0.950 . S
H1363 C1386 0.950 . S
H1364 C1387 0.950 . S
H1365 C1389 0.950 . S
H1366 C1390 0.950 . S
H1367 C1391 0.951 . S
H1368 C1393 0.951 . S
H1369 C1395 0.950 . S
H1370 C1396 0.950 . S
H1371 C1398 0.950 . S
H1372 C1401 0.950 . S
H1373 C1402 0.950 . S
H1374 C1404 0.937 1_545 S
H1375 C1405 0.950 . S
C1376 H1358 0.951 1_545 S
C1376 C1377 1.366 . S
C1376 C1378 1.388 . S
C1377 C1376 1.366 . S
C1377 C1381 1.385 . S
C1378 H1359 0.967 . S
C1378 C1376 1.388 . S
C1378 C1379 1.366 . S
C1379 C1378 1.366 . S
C1379 C1380 1.414 . S
C1379 C1382 1.499 . S
C1380 H1360 0.950 . S
C1380 C1379 1.414 . S
C1380 C1381 1.374 . S
C1381 H1361 0.950 . S
C1381 C1377 1.385 . S
C1381 C1380 1.374 . S
C1382 C1379 1.499 . S
C1382 C1383 1.373 . S
C1382 C1384 1.389 . S
C1383 H1362 0.950 . S
C1383 C1382 1.373 . S
C1383 C1399 1.377 . S
C1384 C1382 1.389 . S
C1384 C1385 1.524 . S
C1384 C1398 1.377 . S
C1385 C1384 1.524 . S
C1385 C1386 1.397 . S
C1385 C1390 1.363 . S
C1386 H1363 0.950 . S
C1386 C1385 1.397 . S
C1386 C1387 1.334 . S
C1387 H1364 0.950 . S
C1387 C1386 1.334 . S
C1387 C1388 1.287 . S
C1388 C1387 1.287 . S
C1388 C1389 1.524 . S
C1388 H1407 0.913 . S
C1389 H1365 0.950 . S
C1389 C1388 1.524 . S
C1389 C1390 1.415 . S
C1390 H1366 0.950 . S
C1390 C1385 1.363 . S
C1390 C1389 1.415 . S
C1391 H1367 0.951 . S
C1391 C1392 1.366 . S
C1391 C1393 1.388 . S
C1392 C1391 1.366 . S
C1392 C1396 1.385 . S
C1393 H1368 0.951 . S
C1393 C1391 1.388 . S
C1393 C1394 1.366 . S
C1394 C1393 1.366 . S
C1394 C1395 1.414 . S
C1394 C1397 1.499 . S
C1395 H1369 0.950 . S
C1395 C1394 1.414 . S
C1395 C1396 1.374 . S
C1396 H1370 0.950 . S
C1396 C1392 1.385 . S
C1396 C1395 1.374 . S
C1397 C1394 1.499 . S
C1397 C1398 1.373 . S
C1397 C1399 1.389 . S
C1398 H1371 0.950 . S
C1398 C1384 1.377 . S
C1398 C1397 1.373 . S
C1399 C1383 1.377 . S
C1399 C1397 1.389 . S
C1399 C1400 1.524 . S
C1400 C1399 1.524 . S
C1400 C1401 1.397 1_545 S
C1400 C1405 1.363 . S
C1401 H1372 0.950 . S
C1401 C1400 1.397 1_565 S
C1401 C1402 1.334 . S
C1402 H1373 0.950 . S
C1402 C1401 1.334 . S
C1402 C1403 1.287 . S
C1403 C1402 1.287 . S
C1403 C1404 1.562 . S
C1403 H1406 0.999 . S
C1404 H1374 0.937 1_565 S
C1404 C1403 1.562 . S
C1404 C1405 1.393 1_565 S
C1405 H1375 0.950 . S
C1405 C1400 1.363 . S
C1405 C1404 1.393 1_545 S
H1406 C1403 0.999 . S
H1407 C1388 0.913 . S
H1408 C1426 0.951 . S
H1409 C1428 0.951 . S
H1410 C1430 0.950 . S
H1411 C1431 0.950 . S
H1412 C1433 0.950 . S
H1413 C1436 0.950 . S
H1414 C1437 0.950 . S
H1415 C1439 0.950 . S
H1416 C1440 0.950 . S
H1417 C1441 0.951 . S
H1418 C1443 0.951 . S
H1419 C1445 0.950 . S
H1420 C1446 0.950 . S
H1421 C1448 0.950 . S
H1422 C1451 0.950 . S
H1423 C1452 0.950 . S
H1424 C1454 0.950 . S
H1425 C1455 0.950 . S
C1426 H1408 0.951 . S
C1426 C1427 1.366 . S
C1426 C1428 1.388 . S
C1427 C1426 1.366 . S
C1427 C1431 1.385 . S
C1428 H1409 0.951 . S
C1428 C1426 1.388 . S
C1428 C1429 1.366 . S
C1429 C1428 1.366 . S
C1429 C1430 1.414 . S
C1429 C1432 1.499 . S
C1430 H1410 0.950 . S
C1430 C1429 1.414 . S
C1430 C1431 1.374 . S
C1431 H1411 0.950 . S
C1431 C1427 1.385 . S
C1431 C1430 1.374 . S
C1432 C1429 1.499 . S
C1432 C1433 1.373 . S
C1432 C1434 1.389 . S
C1433 H1412 0.950 . S
C1433 C1432 1.373 . S
C1433 C1449 1.377 . S
C1434 C1432 1.389 . S
C1434 C1435 1.524 . S
C1434 C1448 1.377 . S
C1435 C1434 1.524 . S
C1435 C1436 1.397 . S
C1435 C1440 1.363 . S
C1436 H1413 0.950 . S
C1436 C1435 1.397 . S
C1436 C1437 1.334 . S
C1437 H1414 0.950 . S
C1437 C1436 1.334 . S
C1437 C1438 1.287 . S
C1438 C1437 1.287 . S
C1438 C1439 1.524 . S
C1438 H1457 0.913 . S
C1439 H1415 0.950 . S
C1439 C1438 1.524 . S
C1439 C1440 1.415 . S
C1440 H1416 0.950 . S
C1440 C1435 1.363 . S
C1440 C1439 1.415 . S
C1441 H1417 0.951 . S
C1441 C1442 1.366 . S
C1441 C1443 1.388 . S
C1442 C1441 1.366 . S
C1442 C1446 1.385 . S
C1443 H1418 0.951 . S
C1443 C1441 1.388 . S
C1443 C1444 1.366 . S
C1444 C1443 1.366 . S
C1444 C1445 1.414 . S
C1444 C1447 1.499 . S
C1445 H1419 0.950 . S
C1445 C1444 1.414 . S
C1445 C1446 1.374 . S
C1446 H1420 0.950 . S
C1446 C1442 1.385 . S
C1446 C1445 1.374 . S
C1447 C1444 1.499 . S
C1447 C1448 1.373 . S
C1447 C1449 1.389 . S
C1448 H1421 0.950 . S
C1448 C1434 1.377 . S
C1448 C1447 1.373 . S
C1449 C1433 1.377 . S
C1449 C1447 1.389 . S
C1449 C1450 1.524 . S
C1450 C1449 1.524 . S
C1450 C1451 1.397 . S
C1450 C1455 1.363 . S
C1451 H1422 0.950 . S
C1451 C1450 1.397 . S
C1451 C1452 1.334 . S
C1452 H1423 0.950 . S
C1452 C1451 1.334 . S
C1452 C1453 1.287 . S
C1453 C1452 1.287 . S
C1453 C1454 1.524 . S
C1453 H1456 0.999 . S
C1454 H1424 0.950 . S
C1454 C1453 1.524 . S
C1454 C1455 1.415 . S
C1455 H1425 0.950 . S
C1455 C1450 1.363 . S
C1455 C1454 1.415 . S
H1456 C1453 0.999 . S
H1457 C1438 0.913 . S
H1458 C1476 0.951 . S
H1459 C1478 0.951 . S
H1460 C1480 0.950 . S
H1461 C1481 0.950 . S
H1462 C1483 0.950 1_554 S
H1463 C1486 0.950 . S
H1464 C1487 0.950 . S
H1465 C1489 0.950 . S
H1466 C1490 0.950 . S
H1467 C1491 0.951 . S
H1468 C1493 0.951 . S
H1469 C1495 0.950 1_554 S
H1470 C1496 0.950 . S
H1471 C1498 0.950 . S
H1472 C1501 0.950 . S
H1473 C1502 0.950 . S
H1474 C1504 0.950 1_556 S
H1475 C1505 0.950 . S
C1476 H1458 0.951 . S
C1476 C1477 1.366 . S
C1476 C1478 1.388 . S
C1477 C1476 1.366 . S
C1477 C1481 1.385 1_554 S
C1478 H1459 0.951 . S
C1478 C1476 1.388 . S
C1478 C1479 1.366 1_554 S
C1479 C1478 1.366 1_556 S
C1479 C1480 1.414 . S
C1479 C1482 1.499 . S
C1480 H1460 0.950 . S
C1480 C1479 1.414 . S
C1480 C1481 1.374 . S
C1481 H1461 0.950 . S
C1481 C1477 1.385 1_556 S
C1481 C1480 1.374 . S
C1482 C1479 1.499 . S
C1482 C1483 1.373 . S
C1482 C1484 1.389 . S
C1483 H1462 0.950 1_556 S
C1483 C1482 1.373 . S
C1483 C1499 1.377 . S
C1484 C1482 1.389 . S
C1484 C1485 1.524 . S
C1484 C1498 1.377 . S
C1485 C1484 1.524 . S
C1485 C1486 1.397 . S
C1485 C1490 1.363 . S
C1486 H1463 0.950 . S
C1486 C1485 1.397 . S
C1486 C1487 1.334 . S
C1487 H1464 0.950 . S
C1487 C1486 1.334 . S
C1487 C1488 1.287 . S
C1488 C1487 1.287 . S
C1488 C1489 1.524 . S
C1488 H1507 0.913 . S
C1489 H1465 0.950 . S
C1489 C1488 1.524 . S
C1489 C1490 1.415 . S
C1490 H1466 0.950 . S
C1490 C1485 1.363 . S
C1490 C1489 1.415 . S
C1491 H1467 0.951 . S
C1491 C1492 1.366 . S
C1491 C1493 1.388 . S
C1492 C1491 1.366 . S
C1492 C1496 1.385 . S
C1493 H1468 0.951 . S
C1493 C1491 1.388 . S
C1493 C1494 1.366 . S
C1494 C1493 1.366 . S
C1494 C1495 1.414 . S
C1494 C1497 1.499 . S
C1495 H1469 0.950 1_556 S
C1495 C1494 1.414 . S
C1495 C1496 1.374 . S
C1496 H1470 0.950 . S
C1496 C1492 1.385 . S
C1496 C1495 1.374 . S
C1497 C1494 1.499 . S
C1497 C1498 1.373 . S
C1497 C1499 1.389 . S
C1498 H1471 0.950 . S
C1498 C1484 1.377 . S
C1498 C1497 1.373 . S
C1499 C1483 1.377 . S
C1499 C1497 1.389 . S
C1499 C1500 1.524 1_556 S
C1500 C1499 1.524 1_554 S
C1500 C1501 1.397 . S
C1500 C1505 1.363 1_554 S
C1501 H1472 0.950 . S
C1501 C1500 1.397 . S
C1501 C1502 1.334 . S
C1502 H1473 0.950 . S
C1502 C1501 1.334 . S
C1502 C1503 1.287 . S
C1503 C1502 1.287 . S
C1503 C1504 1.524 . S
C1503 H1506 0.999 . S
C1504 H1474 0.950 1_554 S
C1504 C1503 1.524 . S
C1504 C1505 1.415 1_554 S
C1505 H1475 0.950 . S
C1505 C1500 1.363 1_556 S
C1505 C1504 1.415 1_556 S
H1506 C1503 0.999 . S
H1507 C1488 0.913 . S
H1508 C1526 0.951 . S
H1509 C1528 0.951 . S
H1510 C1530 0.950 . S
H1511 C1531 0.950 . S
H1512 C1533 0.950 . S
H1513 C1536 0.950 . S
H1514 C1537 0.950 . S
H1515 C1539 0.950 . S
H1516 C1540 0.950 . S
H1517 C1541 0.951 . S
H1518 C1543 0.951 . S
H1519 C1545 0.922 1_554 S
H1520 C1546 0.950 . S
H1521 C1548 0.950 . S
H1522 C1551 0.950 . S
H1523 C1552 0.950 . S
H1524 C1554 0.950 . S
H1525 C1555 0.950 . S
C1526 H1508 0.951 . S
C1526 C1527 1.366 . S
C1526 C1528 1.388 . S
C1527 C1526 1.366 . S
C1527 C1531 1.385 1_554 S
C1528 H1509 0.951 . S
C1528 C1526 1.388 . S
C1528 C1529 1.366 1_554 S
C1529 C1528 1.366 1_556 S
C1529 C1530 1.414 . S
C1529 C1532 1.499 . S
C1530 H1510 0.950 . S
C1530 C1529 1.414 . S
C1530 C1531 1.374 . S
C1531 H1511 0.950 . S
C1531 C1527 1.385 1_556 S
C1531 C1530 1.374 . S
C1532 C1529 1.499 . S
C1532 C1533 1.373 . S
C1532 C1534 1.389 1_556 S
C1533 H1512 0.950 . S
C1533 C1532 1.373 . S
C1533 C1549 1.377 . S
C1534 C1532 1.389 1_554 S
C1534 C1535 1.524 . S
C1534 C1548 1.377 . S
C1535 C1534 1.524 . S
C1535 C1536 1.397 . S
C1535 C1540 1.363 . S
C1536 H1513 0.950 . S
C1536 C1535 1.397 . S
C1536 C1537 1.334 . S
C1537 H1514 0.950 . S
C1537 C1536 1.334 . S
C1537 C1538 1.287 . S
C1538 C1537 1.287 . S
C1538 C1539 1.524 . S
C1538 H1557 0.913 . S
C1539 H1515 0.950 . S
C1539 C1538 1.524 . S
C1539 C1540 1.415 . S
C1540 H1516 0.950 . S
C1540 C1535 1.363 . S
C1540 C1539 1.415 . S
C1541 H1517 0.951 . S
C1541 C1542 1.366 . S
C1541 C1543 1.388 . S
C1542 C1541 1.366 . S
C1542 C1546 1.385 . S
C1543 H1518 0.951 . S
C1543 C1541 1.388 . S
C1543 C1544 1.366 . S
C1544 C1543 1.366 . S
C1544 C1545 1.414 . S
C1544 C1547 1.499 . S
C1545 H1519 0.922 1_556 S
C1545 C1544 1.414 . S
C1545 C1546 1.374 . S
C1546 H1520 0.950 . S
C1546 C1542 1.385 . S
C1546 C1545 1.374 . S
C1547 C1544 1.499 . S
C1547 C1548 1.373 1_556 S
C1547 C1549 1.389 . S
C1548 H1521 0.950 . S
C1548 C1534 1.377 . S
C1548 C1547 1.373 1_554 S
C1549 C1533 1.377 . S
C1549 C1547 1.389 . S
C1549 C1550 1.524 . S
C1550 C1549 1.524 . S
C1550 C1551 1.397 . S
C1550 C1555 1.363 . S
C1551 H1522 0.950 . S
C1551 C1550 1.397 . S
C1551 C1552 1.334 . S
C1552 H1523 0.950 . S
C1552 C1551 1.334 . S
C1552 C1553 1.287 . S
C1553 C1552 1.287 . S
C1553 C1554 1.524 . S
C1553 H1556 0.999 . S
C1554 H1524 0.950 . S
C1554 C1553 1.524 . S
C1554 C1555 1.415 . S
C1555 H1525 0.950 . S
C1555 C1550 1.363 . S
C1555 C1554 1.415 . S
H1556 C1553 0.999 . S
H1557 C1538 0.913 . S
H1558 C1576 0.951 . S
H1559 C1578 0.951 . S
H1560 C1580 0.950 . S
H1561 C1581 0.950 . S
H1562 C1583 0.950 1_556 S
H1563 C1586 0.950 . S
H1564 C1587 0.950 . S
H1565 C1589 0.950 . S
H1566 C1590 0.950 . S
H1567 C1591 0.951 . S
H1568 C1593 0.951 . S
H1569 C1595 0.950 . S
H1570 C1596 0.950 . S
H1571 C1598 0.950 . S
H1572 C1601 0.950 . S
H1573 C1602 0.950 . S
H1574 C1604 0.950 . S
H1575 C1605 0.950 . S
C1576 H1558 0.951 . S
C1576 C1577 1.366 . S
C1576 C1578 1.388 . S
C1577 C1576 1.366 . S
C1577 C1581 1.385 . S
C1578 H1559 0.951 . S
C1578 C1576 1.388 . S
C1578 C1579 1.366 . S
C1579 C1578 1.366 . S
C1579 C1580 1.414 . S
C1579 C1582 1.499 . S
C1580 H1560 0.950 . S
C1580 C1579 1.414 . S
C1580 C1581 1.374 . S
C1581 H1561 0.950 . S
C1581 C1577 1.385 . S
C1581 C1580 1.374 . S
C1582 C1579 1.499 . S
C1582 C1583 1.373 . S
C1582 C1584 1.389 . S
C1583 H1562 0.950 1_554 S
C1583 C1582 1.373 . S
C1583 C1599 1.377 . S
C1584 C1582 1.389 . S
C1584 C1585 1.524 . S
C1584 C1598 1.377 . S
C1585 C1584 1.524 . S
C1585 C1586 1.397 . S
C1585 C1590 1.363 . S
C1586 H1563 0.950 . S
C1586 C1585 1.397 . S
C1586 C1587 1.334 . S
C1587 H1564 0.950 . S
C1587 C1586 1.334 . S
C1587 C1588 1.287 . S
C1588 C1587 1.287 . S
C1588 C1589 1.524 . S
C1588 H1607 0.913 . S
C1589 H1565 0.950 . S
C1589 C1588 1.524 . S
C1589 C1590 1.415 . S
C1590 H1566 0.950 . S
C1590 C1585 1.363 . S
C1590 C1589 1.415 . S
C1591 H1567 0.951 . S
C1591 C1592 1.366 . S
C1591 C1593 1.388 . S
C1592 C1591 1.366 . S
C1592 C1596 1.385 . S
C1593 H1568 0.951 . S
C1593 C1591 1.388 . S
C1593 C1594 1.366 . S
C1594 C1593 1.366 . S
C1594 C1595 1.414 . S
C1594 C1597 1.499 . S
C1595 H1569 0.950 . S
C1595 C1594 1.414 . S
C1595 C1596 1.374 . S
C1596 H1570 0.950 . S
C1596 C1592 1.385 . S
C1596 C1595 1.374 . S
C1597 C1594 1.499 . S
C1597 C1598 1.373 . S
C1597 C1599 1.389 . S
C1598 H1571 0.950 . S
C1598 C1584 1.377 . S
C1598 C1597 1.373 . S
C1599 C1583 1.377 . S
C1599 C1597 1.389 . S
C1599 C1600 1.524 1_554 S
C1600 C1599 1.524 1_556 S
C1600 C1601 1.397 . S
C1600 C1605 1.363 . S
C1601 H1572 0.950 . S
C1601 C1600 1.397 . S
C1601 C1602 1.334 . S
C1602 H1573 0.950 . S
C1602 C1601 1.334 . S
C1602 C1603 1.287 . S
C1603 C1602 1.287 . S
C1603 C1604 1.524 . S
C1603 H1606 0.999 . S
C1604 H1574 0.950 . S
C1604 C1603 1.524 . S
C1604 C1605 1.415 . S
C1605 H1575 0.950 . S
C1605 C1600 1.363 . S
C1605 C1604 1.415 . S
H1606 C1603 0.999 . S
H1607 C1588 0.913 . S
H1608 C1626 0.951 1_655 S
H1609 C1628 0.951 1_655 S
H1610 C1630 0.950 . S
H1611 C1631 0.950 . S
H1612 C1633 0.950 . S
H1613 C1636 0.950 . S
H1614 C1637 0.950 . S
H1615 C1639 0.950 . S
H1616 C1640 0.950 . S
H1617 C1641 0.951 . S
H1618 C1643 0.951 . S
H1619 C1645 0.950 1_655 S
H1620 C1646 0.950 1_655 S
H1621 C1648 0.950 . S
H1622 C1651 0.950 . S
H1623 C1652 0.950 . S
H1624 C1654 0.950 . S
H1625 C1655 0.950 . S
C1626 H1608 0.951 1_455 S
C1626 C1627 1.366 . S
C1626 C1628 1.388 . S
C1627 C1626 1.366 . S
C1627 C1631 1.385 . S
C1628 H1609 0.951 1_455 S
C1628 C1626 1.388 . S
C1628 C1629 1.366 . S
C1629 C1628 1.366 . S
C1629 C1630 1.414 . S
C1629 C1632 1.499 . S
C1630 H1610 0.950 . S
C1630 C1629 1.414 . S
C1630 C1631 1.374 . S
C1631 H1611 0.950 . S
C1631 C1627 1.385 . S
C1631 C1630 1.374 . S
C1632 C1629 1.499 . S
C1632 C1633 1.373 . S
C1632 C1634 1.389 . S
C1633 H1612 0.950 . S
C1633 C1632 1.373 . S
C1633 C1649 1.377 . S
C1634 C1632 1.389 . S
C1634 C1635 1.524 . S
C1634 C1648 1.377 . S
C1635 C1634 1.524 . S
C1635 C1636 1.397 . S
C1635 C1640 1.363 1_455 S
C1636 H1613 0.950 . S
C1636 C1635 1.397 . S
C1636 C1637 1.334 . S
C1637 H1614 0.950 . S
C1637 C1636 1.334 . S
C1637 C1638 1.287 1_455 S
C1638 C1637 1.287 1_655 S
C1638 C1639 1.524 . S
C1638 H1657 0.913 . S
C1639 H1615 0.950 . S
C1639 C1638 1.524 . S
C1639 C1640 1.415 . S
C1640 H1616 0.950 . S
C1640 C1635 1.363 1_655 S
C1640 C1639 1.415 . S
C1641 H1617 0.951 . S
C1641 C1642 1.366 . S
C1641 C1643 1.388 . S
C1642 C1641 1.366 . S
C1642 C1646 1.385 . S
C1643 H1618 0.951 . S
C1643 C1641 1.388 . S
C1643 C1644 1.366 . S
C1644 C1643 1.366 . S
C1644 C1645 1.414 . S
C1644 C1647 1.499 . S
C1645 H1619 0.950 1_455 S
C1645 C1644 1.414 . S
C1645 C1646 1.374 . S
C1646 H1620 0.950 1_455 S
C1646 C1642 1.385 . S
C1646 C1645 1.374 . S
C1647 C1644 1.499 . S
C1647 C1648 1.373 . S
C1647 C1649 1.389 . S
C1648 H1621 0.950 . S
C1648 C1634 1.377 . S
C1648 C1647 1.373 . S
C1649 C1633 1.377 . S
C1649 C1647 1.389 . S
C1649 C1650 1.524 . S
C1650 C1649 1.524 . S
C1650 C1651 1.397 . S
C1650 C1655 1.363 . S
C1651 H1622 0.950 . S
C1651 C1650 1.397 . S
C1651 C1652 1.334 . S
C1652 H1623 0.950 . S
C1652 C1651 1.334 . S
C1652 C1653 1.287 . S
C1653 C1652 1.287 . S
C1653 C1654 1.524 . S
C1653 H1656 0.999 . S
C1654 H1624 0.950 . S
C1654 C1653 1.524 . S
C1654 C1655 1.415 . S
C1655 H1625 0.950 . S
C1655 C1650 1.363 . S
C1655 C1654 1.415 . S
H1656 C1653 0.999 . S
H1657 C1638 0.913 . S
H1658 C1676 0.953 . S
H1659 C1678 0.951 . S
H1660 C1680 0.950 . S
H1661 C1681 0.950 . S
H1662 C1683 0.950 . S
H1663 C1686 0.950 . S
H1664 C1687 0.950 . S
H1665 C1689 0.950 1_655 S
H1666 C1690 0.950 . S
H1667 C1691 0.951 . S
H1668 C1693 0.951 . S
H1669 C1695 0.950 . S
H1670 C1696 0.950 . S
H1671 C1698 0.948 . S
H1672 C1701 0.950 . S
H1673 C1702 0.950 . S
H1674 C1704 0.952 1_455 S
H1675 C1705 0.950 . S
C1676 H1658 0.953 . S
C1676 C1677 1.363 1_655 S
C1676 C1678 1.388 . S
C1677 C1676 1.363 1_455 S
C1677 C1681 1.385 . S
C1678 H1659 0.951 . S
C1678 C1676 1.388 . S
C1678 C1679 1.366 1_655 S
C1679 C1678 1.366 1_455 S
C1679 C1680 1.414 . S
C1679 C1682 1.499 . S
C1680 H1660 0.950 . S
C1680 C1679 1.414 . S
C1680 C1681 1.374 . S
C1681 H1661 0.950 . S
C1681 C1677 1.385 . S
C1681 C1680 1.374 . S
C1682 C1679 1.499 . S
C1682 C1683 1.373 . S
C1682 C1684 1.389 . S
C1683 H1662 0.950 . S
C1683 C1682 1.373 . S
C1683 C1699 1.377 1_455 S
C1684 C1682 1.389 . S
C1684 C1685 1.524 . S
C1684 C1698 1.390 . S
C1685 C1684 1.524 . S
C1685 C1686 1.397 . S
C1685 C1690 1.363 1_455 S
C1686 H1663 0.950 . S
C1686 C1685 1.397 . S
C1686 C1687 1.334 . S
C1687 H1664 0.950 . S
C1687 C1686 1.334 . S
C1687 C1688 1.287 . S
C1688 C1687 1.287 . S
C1688 C1689 1.524 . S
C1688 H1707 0.913 . S
C1689 H1665 0.950 1_455 S
C1689 C1688 1.524 . S
C1689 C1690 1.415 1_455 S
C1690 H1666 0.950 . S
C1690 C1685 1.363 1_655 S
C1690 C1689 1.415 1_655 S
C1691 H1667 0.951 . S
C1691 C1692 1.366 1_455 S
C1691 C1693 1.388 . S
C1692 C1691 1.366 1_655 S
C1692 C1696 1.385 . S
C1693 H1668 0.951 . S
C1693 C1691 1.388 . S
C1693 C1694 1.366 1_455 S
C1694 C1693 1.366 1_655 S
C1694 C1695 1.414 . S
C1694 C1697 1.499 . S
C1695 H1669 0.950 . S
C1695 C1694 1.414 . S
C1695 C1696 1.374 . S
C1696 H1670 0.950 . S
C1696 C1692 1.385 . S
C1696 C1695 1.374 . S
C1697 C1694 1.499 . S
C1697 C1698 1.365 1_655 S
C1697 C1699 1.389 . S
C1698 H1671 0.948 . S
C1698 C1684 1.390 . S
C1698 C1697 1.365 1_455 S
C1699 C1683 1.377 1_655 S
C1699 C1697 1.389 . S
C1699 C1700 1.524 . S
C1700 C1699 1.524 . S
C1700 C1701 1.397 . S
C1700 C1705 1.363 1_655 S
C1701 H1672 0.950 . S
C1701 C1700 1.397 . S
C1701 C1702 1.334 . S
C1702 H1673 0.950 . S
C1702 C1701 1.334 . S
C1702 C1703 1.287 . S
C1703 C1702 1.287 . S
C1703 C1704 1.520 . S
C1703 H1706 0.999 . S
C1704 H1674 0.952 1_655 S
C1704 C1703 1.520 . S
C1704 C1705 1.416 1_655 S
C1705 H1675 0.950 . S
C1705 C1700 1.363 1_455 S
C1705 C1704 1.416 1_455 S
H1706 C1703 0.999 . S
H1707 C1688 0.913 . S
H1708 C1726 0.951 . S
H1709 C1728 0.951 . S
H1710 C1730 0.950 . S
H1711 C1731 0.950 . S
H1712 C1733 0.950 . S
H1713 C1736 0.950 . S
H1714 C1737 0.950 . S
H1715 C1739 0.950 . S
H1716 C1740 0.950 . S
H1717 C1741 0.951 . S
H1718 C1743 0.951 . S
H1719 C1745 0.950 . S
H1720 C1746 0.950 . S
H1721 C1748 0.950 . S
H1722 C1751 0.950 . S
H1723 C1752 0.950 . S
H1724 C1754 0.950 . S
H1725 C1755 0.950 1_455 S
C1726 H1708 0.951 . S
C1726 C1727 1.366 . S
C1726 C1728 1.388 . S
C1727 C1726 1.366 . S
C1727 C1731 1.385 . S
C1728 H1709 0.951 . S
C1728 C1726 1.388 . S
C1728 C1729 1.366 . S
C1729 C1728 1.366 . S
C1729 C1730 1.414 . S
C1729 C1732 1.499 . S
C1730 H1710 0.950 . S
C1730 C1729 1.414 . S
C1730 C1731 1.374 . S
C1731 H1711 0.950 . S
C1731 C1727 1.385 . S
C1731 C1730 1.374 . S
C1732 C1729 1.499 . S
C1732 C1733 1.373 . S
C1732 C1734 1.389 . S
C1733 H1712 0.950 . S
C1733 C1732 1.373 . S
C1733 C1749 1.377 . S
C1734 C1732 1.389 . S
C1734 C1735 1.524 . S
C1734 C1748 1.377 . S
C1735 C1734 1.524 . S
C1735 C1736 1.397 . S
C1735 C1740 1.363 . S
C1736 H1713 0.950 . S
C1736 C1735 1.397 . S
C1736 C1737 1.334 . S
C1737 H1714 0.950 . S
C1737 C1736 1.334 . S
C1737 C1738 1.287 . S
C1738 C1737 1.287 . S
C1738 C1739 1.524 . S
C1738 H1757 0.913 . S
C1739 H1715 0.950 . S
C1739 C1738 1.524 . S
C1739 C1740 1.415 . S
C1740 H1716 0.950 . S
C1740 C1735 1.363 . S
C1740 C1739 1.415 . S
C1741 H1717 0.951 . S
C1741 C1742 1.366 . S
C1741 C1743 1.388 . S
C1742 C1741 1.366 . S
C1742 C1746 1.385 . S
C1743 H1718 0.951 . S
C1743 C1741 1.388 . S
C1743 C1744 1.366 . S
C1744 C1743 1.366 . S
C1744 C1745 1.414 . S
C1744 C1747 1.499 . S
C1745 H1719 0.950 . S
C1745 C1744 1.414 . S
C1745 C1746 1.374 . S
C1746 H1720 0.950 . S
C1746 C1742 1.385 . S
C1746 C1745 1.374 . S
C1747 C1744 1.499 . S
C1747 C1748 1.373 . S
C1747 C1749 1.389 . S
C1748 H1721 0.950 . S
C1748 C1734 1.377 . S
C1748 C1747 1.373 . S
C1749 C1733 1.377 . S
C1749 C1747 1.389 . S
C1749 C1750 1.524 1_455 S
C1750 C1749 1.524 1_655 S
C1750 C1751 1.397 . S
C1750 C1755 1.363 . S
C1751 H1722 0.950 . S
C1751 C1750 1.397 . S
C1751 C1752 1.334 . S
C1752 H1723 0.950 . S
C1752 C1751 1.334 . S
C1752 C1753 1.287 . S
C1753 C1752 1.287 . S
C1753 C1754 1.524 . S
C1753 H1756 0.999 . S
C1754 H1724 0.950 . S
C1754 C1753 1.524 . S
C1754 C1755 1.415 . S
C1755 H1725 0.950 1_655 S
C1755 C1750 1.363 . S
C1755 C1754 1.415 . S
H1756 C1753 0.999 . S
H1757 C1738 0.913 . S
H1758 C1776 0.951 . S
H1759 C1778 0.951 . S
H1760 C1780 0.950 . S
H1761 C1781 0.950 . S
H1762 C1783 0.950 . S
H1763 C1786 0.950 . S
H1764 C1787 0.950 . S
H1765 C1789 0.950 . S
H1766 C1790 0.950 . S
H1767 C1791 0.951 . S
H1768 C1793 0.951 . S
H1769 C1795 0.950 . S
H1770 C1796 0.950 . S
H1771 C1798 0.950 1_455 S
H1772 C1801 0.950 . S
H1773 C1802 0.950 . S
H1774 C1804 0.950 . S
H1775 C1805 0.950 . S
C1776 H1758 0.951 . S
C1776 C1777 1.366 1_655 S
C1776 C1778 1.388 . S
C1777 C1776 1.366 1_455 S
C1777 C1781 1.385 . S
C1778 H1759 0.951 . S
C1778 C1776 1.388 . S
C1778 C1779 1.366 . S
C1779 C1778 1.366 . S
C1779 C1780 1.414 1_655 S
C1779 C1782 1.499 . S
C1780 H1760 0.950 . S
C1780 C1779 1.414 1_455 S
C1780 C1781 1.374 . S
C1781 H1761 0.950 . S
C1781 C1777 1.385 . S
C1781 C1780 1.374 . S
C1782 C1779 1.499 . S
C1782 C1783 1.373 . S
C1782 C1784 1.389 1_655 S
C1783 H1762 0.950 . S
C1783 C1782 1.373 . S
C1783 C1799 1.377 . S
C1784 C1782 1.389 1_455 S
C1784 C1785 1.524 . S
C1784 C1798 1.377 1_455 S
C1785 C1784 1.524 . S
C1785 C1786 1.397 . S
C1785 C1790 1.363 . S
C1786 H1763 0.950 . S
C1786 C1785 1.397 . S
C1786 C1787 1.334 . S
C1787 H1764 0.950 . S
C1787 C1786 1.334 . S
C1787 C1788 1.287 . S
C1788 C1787 1.287 . S
C1788 C1789 1.524 . S
C1788 H1807 0.913 . S
C1789 H1765 0.950 . S
C1789 C1788 1.524 . S
C1789 C1790 1.415 . S
C1790 H1766 0.950 . S
C1790 C1785 1.363 . S
C1790 C1789 1.415 . S
C1791 H1767 0.951 . S
C1791 C1792 1.366 . S
C1791 C1793 1.388 . S
C1792 C1791 1.366 . S
C1792 C1796 1.385 . S
C1793 H1768 0.951 . S
C1793 C1791 1.388 . S
C1793 C1794 1.366 . S
C1794 C1793 1.366 . S
C1794 C1795 1.414 . S
C1794 C1797 1.499 . S
C1795 H1769 0.950 . S
C1795 C1794 1.414 . S
C1795 C1796 1.374 . S
C1796 H1770 0.950 . S
C1796 C1792 1.385 . S
C1796 C1795 1.374 . S
C1797 C1794 1.499 . S
C1797 C1798 1.373 . S
C1797 C1799 1.389 . S
C1798 H1771 0.950 1_655 S
C1798 C1784 1.377 1_655 S
C1798 C1797 1.373 . S
C1799 C1783 1.377 . S
C1799 C1797 1.389 . S
C1799 C1800 1.524 . S
C1800 C1799 1.524 . S
C1800 C1801 1.397 . S
C1800 C1805 1.363 . S
C1801 H1772 0.950 . S
C1801 C1800 1.397 . S
C1801 C1802 1.334 . S
C1802 H1773 0.950 . S
C1802 C1801 1.334 . S
C1802 C1803 1.287 . S
C1803 C1802 1.287 . S
C1803 C1804 1.524 . S
C1803 H1806 0.999 . S
C1804 H1774 0.950 . S
C1804 C1803 1.524 . S
C1804 C1805 1.415 . S
C1805 H1775 0.950 . S
C1805 C1800 1.363 . S
C1805 C1804 1.415 . S
H1806 C1803 0.999 . S
H1807 C1788 0.913 . S
H1808 C1826 0.951 . S
H1809 C1828 0.951 . S
H1810 C1830 0.950 . S
H1811 C1831 0.950 . S
H1812 C1833 0.950 1_565 S
H1813 C1836 0.950 . S
H1814 C1837 0.950 . S
H1815 C1839 0.950 . S
H1816 C1840 0.950 . S
H1817 C1841 0.951 . S
H1818 C1843 0.951 . S
H1819 C1845 0.950 . S
H1820 C1846 0.950 . S
H1821 C1848 0.950 . S
H1822 C1851 0.950 . S
H1823 C1852 0.950 . S
H1824 C1854 0.950 . S
H1825 C1855 0.950 . S
C1826 H1808 0.951 . S
C1826 C1827 1.366 . S
C1826 C1828 1.388 . S
C1827 C1826 1.366 . S
C1827 C1831 1.385 . S
C1828 H1809 0.951 . S
C1828 C1826 1.388 . S
C1828 C1829 1.366 . S
C1829 C1828 1.366 . S
C1829 C1830 1.414 . S
C1829 C1832 1.499 . S
C1830 H1810 0.950 . S
C1830 C1829 1.414 . S
C1830 C1831 1.374 . S
C1831 H1811 0.950 . S
C1831 C1827 1.385 . S
C1831 C1830 1.374 . S
C1832 C1829 1.499 . S
C1832 C1833 1.373 . S
C1832 C1834 1.389 . S
C1833 H1812 0.950 1_545 S
C1833 C1832 1.373 . S
C1833 C1849 1.377 . S
C1834 C1832 1.389 . S
C1834 C1835 1.524 . S
C1834 C1848 1.377 . S
C1835 C1834 1.524 . S
C1835 C1836 1.397 . S
C1835 C1840 1.363 . S
C1836 H1813 0.950 . S
C1836 C1835 1.397 . S
C1836 C1837 1.334 . S
C1837 H1814 0.950 . S
C1837 C1836 1.334 . S
C1837 C1838 1.287 . S
C1838 C1837 1.287 . S
C1838 C1839 1.524 . S
C1838 H1857 0.913 . S
C1839 H1815 0.950 . S
C1839 C1838 1.524 . S
C1839 C1840 1.415 . S
C1840 H1816 0.950 . S
C1840 C1835 1.363 . S
C1840 C1839 1.415 . S
C1841 H1817 0.951 . S
C1841 C1842 1.366 . S
C1841 C1843 1.388 . S
C1842 C1841 1.366 . S
C1842 C1846 1.385 . S
C1843 H1818 0.951 . S
C1843 C1841 1.388 . S
C1843 C1844 1.366 . S
C1844 C1843 1.366 . S
C1844 C1845 1.414 . S
C1844 C1847 1.499 . S
C1845 H1819 0.950 . S
C1845 C1844 1.414 . S
C1845 C1846 1.374 . S
C1846 H1820 0.950 . S
C1846 C1842 1.385 . S
C1846 C1845 1.374 . S
C1847 C1844 1.499 . S
C1847 C1848 1.373 . S
C1847 C1849 1.389 . S
C1848 H1821 0.950 . S
C1848 C1834 1.377 . S
C1848 C1847 1.373 . S
C1849 C1833 1.377 . S
C1849 C1847 1.389 . S
C1849 C1850 1.524 1_545 S
C1850 C1849 1.524 1_565 S
C1850 C1851 1.397 . S
C1850 C1855 1.363 . S
C1851 H1822 0.950 . S
C1851 C1850 1.397 . S
C1851 C1852 1.334 . S
C1852 H1823 0.950 . S
C1852 C1851 1.334 . S
C1852 C1853 1.287 . S
C1853 C1852 1.287 . S
C1853 C1854 1.524 . S
C1853 H1856 0.999 . S
C1854 H1824 0.950 . S
C1854 C1853 1.524 . S
C1854 C1855 1.415 . S
C1855 H1825 0.950 . S
C1855 C1850 1.363 . S
C1855 C1854 1.415 . S
H1856 C1853 0.999 . S
H1857 C1838 0.913 . S
H1858 C1876 0.951 . S
H1859 C1878 0.951 . S
H1860 C1880 0.950 . S
H1861 C1881 0.950 . S
H1862 C1883 0.950 . S
H1863 C1886 0.950 . S
H1864 C1887 0.950 . S
H1865 C1889 0.950 . S
H1866 C1890 0.950 . S
H1867 C1891 0.951 . S
H1868 C1893 0.951 . S
H1869 C1895 0.950 . S
H1870 C1896 0.950 . S
H1871 C1898 0.950 . S
H1872 C1901 0.950 . S
H1873 C1902 0.950 . S
H1874 C1904 0.950 . S
H1875 C1905 0.950 . S
C1876 H1858 0.951 . S
C1876 C1877 1.366 . S
C1876 C1878 1.388 . S
C1877 C1876 1.366 . S
C1877 C1881 1.385 . S
C1878 H1859 0.951 . S
C1878 C1876 1.388 . S
C1878 C1879 1.366 . S
C1879 C1878 1.366 . S
C1879 C1880 1.414 . S
C1879 C1882 1.499 . S
C1880 H1860 0.950 . S
C1880 C1879 1.414 . S
C1880 C1881 1.374 . S
C1881 H1861 0.950 . S
C1881 C1877 1.385 . S
C1881 C1880 1.374 . S
C1882 C1879 1.499 . S
C1882 C1883 1.373 . S
C1882 C1884 1.389 . S
C1883 H1862 0.950 . S
C1883 C1882 1.373 . S
C1883 C1899 1.377 . S
C1884 C1882 1.389 . S
C1884 C1885 1.524 . S
C1884 C1898 1.377 . S
C1885 C1884 1.524 . S
C1885 C1886 1.397 . S
C1885 C1890 1.363 . S
C1886 H1863 0.950 . S
C1886 C1885 1.397 . S
C1886 C1887 1.334 . S
C1887 H1864 0.950 . S
C1887 C1886 1.334 . S
C1887 C1888 1.287 . S
C1888 C1887 1.287 . S
C1888 C1889 1.524 . S
C1888 H1907 0.913 . S
C1889 H1865 0.950 . S
C1889 C1888 1.524 . S
C1889 C1890 1.415 . S
C1890 H1866 0.950 . S
C1890 C1885 1.363 . S
C1890 C1889 1.415 . S
C1891 H1867 0.951 . S
C1891 C1892 1.366 . S
C1891 C1893 1.388 . S
C1892 C1891 1.366 . S
C1892 C1896 1.385 . S
C1893 H1868 0.951 . S
C1893 C1891 1.388 . S
C1893 C1894 1.366 . S
C1894 C1893 1.366 . S
C1894 C1895 1.414 . S
C1894 C1897 1.499 . S
C1895 H1869 0.950 . S
C1895 C1894 1.414 . S
C1895 C1896 1.374 . S
C1896 H1870 0.950 . S
C1896 C1892 1.385 . S
C1896 C1895 1.374 . S
C1897 C1894 1.499 . S
C1897 C1898 1.373 . S
C1897 C1899 1.389 . S
C1898 H1871 0.950 . S
C1898 C1884 1.377 . S
C1898 C1897 1.373 . S
C1899 C1883 1.377 . S
C1899 C1897 1.389 . S
C1899 C1900 1.524 . S
C1900 C1899 1.524 . S
C1900 C1901 1.397 . S
C1900 C1905 1.363 . S
C1901 H1872 0.950 . S
C1901 C1900 1.397 . S
C1901 C1902 1.334 . S
C1902 H1873 0.950 . S
C1902 C1901 1.334 . S
C1902 C1903 1.287 . S
C1903 C1902 1.287 . S
C1903 C1904 1.524 . S
C1903 H1906 0.999 . S
C1904 H1874 0.950 . S
C1904 C1903 1.524 . S
C1904 C1905 1.415 . S
C1905 H1875 0.950 . S
C1905 C1900 1.363 . S
C1905 C1904 1.415 . S
H1906 C1903 0.999 . S
H1907 C1888 0.913 . S
H1908 C1926 0.951 . S
H1909 C1928 0.951 . S
H1910 C1930 0.950 . S
H1911 C1931 0.950 . S
H1912 C1933 0.950 . S
H1913 C1936 0.950 . S
H1914 C1937 0.950 . S
H1915 C1939 0.950 . S
H1916 C1940 0.950 . S
H1917 C1941 0.951 . S
H1918 C1943 0.951 . S
H1919 C1945 0.950 . S
H1920 C1946 0.950 . S
H1921 C1948 0.950 1_545 S
H1922 C1951 0.950 . S
H1923 C1952 0.950 . S
H1924 C1954 0.950 . S
H1925 C1955 0.950 . S
C1926 H1908 0.951 . S
C1926 C1927 1.366 1_545 S
C1926 C1928 1.388 . S
C1927 C1926 1.366 1_565 S
C1927 C1931 1.385 . S
C1928 H1909 0.951 . S
C1928 C1926 1.388 . S
C1928 C1929 1.366 1_545 S
C1929 C1928 1.366 1_565 S
C1929 C1930 1.414 . S
C1929 C1932 1.499 . S
C1930 H1910 0.950 . S
C1930 C1929 1.414 . S
C1930 C1931 1.374 . S
C1931 H1911 0.950 . S
C1931 C1927 1.385 . S
C1931 C1930 1.374 . S
C1932 C1929 1.499 . S
C1932 C1933 1.373 . S
C1932 C1934 1.389 . S
C1933 H1912 0.950 . S
C1933 C1932 1.373 . S
C1933 C1949 1.377 . S
C1934 C1932 1.389 . S
C1934 C1935 1.524 1_565 S
C1934 C1948 1.377 . S
C1935 C1934 1.524 1_545 S
C1935 C1936 1.397 . S
C1935 C1940 1.363 . S
C1936 H1913 0.950 . S
C1936 C1935 1.397 . S
C1936 C1937 1.334 . S
C1937 H1914 0.950 . S
C1937 C1936 1.334 . S
C1937 C1938 1.287 . S
C1938 C1937 1.287 . S
C1938 C1939 1.524 . S
C1938 H1957 0.913 . S
C1939 H1915 0.950 . S
C1939 C1938 1.524 . S
C1939 C1940 1.415 . S
C1940 H1916 0.950 . S
C1940 C1935 1.363 . S
C1940 C1939 1.415 . S
C1941 H1917 0.951 . S
C1941 C1942 1.366 . S
C1941 C1943 1.388 . S
C1942 C1941 1.366 . S
C1942 C1946 1.385 . S
C1943 H1918 0.951 . S
C1943 C1941 1.388 . S
C1943 C1944 1.366 . S
C1944 C1943 1.366 . S
C1944 C1945 1.414 . S
C1944 C1947 1.499 . S
C1945 H1919 0.950 . S
C1945 C1944 1.414 . S
C1945 C1946 1.374 . S
C1946 H1920 0.950 . S
C1946 C1942 1.385 . S
C1946 C1945 1.374 . S
C1947 C1944 1.499 . S
C1947 C1948 1.373 . S
C1947 C1949 1.389 . S
C1948 H1921 0.950 1_565 S
C1948 C1934 1.377 . S
C1948 C1947 1.373 . S
C1949 C1933 1.377 . S
C1949 C1947 1.389 . S
C1949 C1950 1.524 . S
C1950 C1949 1.524 . S
C1950 C1951 1.397 . S
C1950 C1955 1.363 . S
C1951 H1922 0.950 . S
C1951 C1950 1.397 . S
C1951 C1952 1.334 . S
C1952 H1923 0.950 . S
C1952 C1951 1.334 . S
C1952 C1953 1.287 . S
C1953 C1952 1.287 . S
C1953 C1954 1.524 . S
C1953 H1956 0.999 . S
C1954 H1924 0.950 . S
C1954 C1953 1.524 . S
C1954 C1955 1.415 . S
C1955 H1925 0.950 . S
C1955 C1950 1.363 . S
C1955 C1954 1.415 . S
H1956 C1953 0.999 . S
H1957 C1938 0.913 . S
H1958 C1976 0.951 . S
H1959 C1978 0.951 . S
H1960 C1980 0.950 . S
H1961 C1981 0.950 . S
H1962 C1983 0.950 . S
H1963 C1986 0.950 . S
H1964 C1987 0.950 . S
H1965 C1989 0.950 . S
H1966 C1990 0.950 . S
H1967 C1991 0.951 . S
H1968 C1993 0.951 . S
H1969 C1995 0.950 . S
H1970 C1996 0.950 . S
H1971 C1998 0.950 . S
H1972 C2001 0.950 . S
H1973 C2002 0.950 . S
H1974 C2004 0.950 . S
H1975 C2005 0.950 . S
C1976 H1958 0.951 . S
C1976 C1977 1.366 . S
C1976 C1978 1.388 . S
C1977 C1976 1.366 . S
C1977 C1981 1.385 . S
C1978 H1959 0.951 . S
C1978 C1976 1.388 . S
C1978 C1979 1.366 . S
C1979 C1978 1.366 . S
C1979 C1980 1.414 . S
C1979 C1982 1.499 . S
C1980 H1960 0.950 . S
C1980 C1979 1.414 . S
C1980 C1981 1.374 . S
C1981 H1961 0.950 . S
C1981 C1977 1.385 . S
C1981 C1980 1.374 . S
C1982 C1979 1.499 . S
C1982 C1983 1.373 . S
C1982 C1984 1.389 . S
C1983 H1962 0.950 . S
C1983 C1982 1.373 . S
C1983 C1999 1.377 . S
C1984 C1982 1.389 . S
C1984 C1985 1.524 . S
C1984 C1998 1.377 . S
C1985 C1984 1.524 . S
C1985 C1986 1.397 . S
C1985 C1990 1.363 . S
C1986 H1963 0.950 . S
C1986 C1985 1.397 . S
C1986 C1987 1.334 . S
C1987 H1964 0.950 . S
C1987 C1986 1.334 . S
C1987 C1988 1.287 . S
C1988 C1987 1.287 . S
C1988 C1989 1.524 . S
C1988 H2007 0.913 . S
C1989 H1965 0.950 . S
C1989 C1988 1.524 . S
C1989 C1990 1.415 . S
C1990 H1966 0.950 . S
C1990 C1985 1.363 . S
C1990 C1989 1.415 . S
C1991 H1967 0.951 . S
C1991 C1992 1.366 . S
C1991 C1993 1.388 . S
C1992 C1991 1.366 . S
C1992 C1996 1.385 . S
C1993 H1968 0.951 . S
C1993 C1991 1.388 . S
C1993 C1994 1.366 . S
C1994 C1993 1.366 . S
C1994 C1995 1.414 . S
C1994 C1997 1.499 . S
C1995 H1969 0.950 . S
C1995 C1994 1.414 . S
C1995 C1996 1.374 . S
C1996 H1970 0.950 . S
C1996 C1992 1.385 . S
C1996 C1995 1.374 . S
C1997 C1994 1.499 . S
C1997 C1998 1.373 . S
C1997 C1999 1.389 . S
C1998 H1971 0.950 . S
C1998 C1984 1.377 . S
C1998 C1997 1.373 . S
C1999 C1983 1.377 . S
C1999 C1997 1.389 . S
C1999 C2000 1.524 . S
C2000 C1999 1.524 . S
C2000 C2001 1.397 . S
C2000 C2005 1.363 . S
C2001 H1972 0.950 . S
C2001 C2000 1.397 . S
C2001 C2002 1.334 . S
C2002 H1973 0.950 . S
C2002 C2001 1.334 . S
C2002 C2003 1.287 . S
C2003 C2002 1.287 . S
C2003 C2004 1.524 . S
C2003 H2006 0.999 . S
C2004 H1974 0.950 . S
C2004 C2003 1.524 . S
C2004 C2005 1.415 . S
C2005 H1975 0.950 . S
C2005 C2000 1.363 . S
C2005 C2004 1.415 . S
H2006 C2003 0.999 . S
H2007 C1988 0.913 . S
H2008 C2026 0.951 . S
H2009 C2028 0.951 . S
H2010 C2030 0.950 . S
H2011 C2031 0.950 . S
H2012 C2033 0.950 . S
H2013 C2036 0.950 . S
H2014 C2037 0.950 . S
H2015 C2039 0.950 . S
H2016 C2040 0.950 . S
H2017 C2041 0.951 . S
H2018 C2043 0.951 . S
H2019 C2045 0.950 . S
H2020 C2046 0.950 . S
H2021 C2048 0.950 1_556 S
H2022 C2051 0.950 . S
H2023 C2052 0.950 . S
H2024 C2054 0.950 . S
H2025 C2055 0.950 . S
C2026 H2008 0.951 . S
C2026 C2027 1.366 . S
C2026 C2028 1.388 . S
C2027 C2026 1.366 . S
C2027 C2031 1.385 . S
C2028 H2009 0.951 . S
C2028 C2026 1.388 . S
C2028 C2029 1.366 . S
C2029 C2028 1.366 . S
C2029 C2030 1.414 . S
C2029 C2032 1.499 . S
C2030 H2010 0.950 . S
C2030 C2029 1.414 . S
C2030 C2031 1.374 . S
C2031 H2011 0.950 . S
C2031 C2027 1.385 . S
C2031 C2030 1.374 . S
C2032 C2029 1.499 . S
C2032 C2033 1.373 . S
C2032 C2034 1.389 . S
C2033 H2012 0.950 . S
C2033 C2032 1.373 . S
C2033 C2049 1.377 . S
C2034 C2032 1.389 . S
C2034 C2035 1.524 1_554 S
C2034 C2048 1.377 . S
C2035 C2034 1.524 1_556 S
C2035 C2036 1.397 . S
C2035 C2040 1.363 . S
C2036 H2013 0.950 . S
C2036 C2035 1.397 . S
C2036 C2037 1.334 . S
C2037 H2014 0.950 . S
C2037 C2036 1.334 . S
C2037 C2038 1.287 . S
C2038 C2037 1.287 . S
C2038 C2039 1.524 . S
C2038 H2057 0.913 . S
C2039 H2015 0.950 . S
C2039 C2038 1.524 . S
C2039 C2040 1.415 . S
C2040 H2016 0.950 . S
C2040 C2035 1.363 . S
C2040 C2039 1.415 . S
C2041 H2017 0.951 . S
C2041 C2042 1.366 . S
C2041 C2043 1.388 . S
C2042 C2041 1.366 . S
C2042 C2046 1.385 . S
C2043 H2018 0.951 . S
C2043 C2041 1.388 . S
C2043 C2044 1.366 . S
C2044 C2043 1.366 . S
C2044 C2045 1.414 . S
C2044 C2047 1.499 . S
C2045 H2019 0.950 . S
C2045 C2044 1.414 . S
C2045 C2046 1.374 . S
C2046 H2020 0.950 . S
C2046 C2042 1.385 . S
C2046 C2045 1.374 . S
C2047 C2044 1.499 . S
C2047 C2048 1.373 . S
C2047 C2049 1.389 . S
C2048 H2021 0.950 1_554 S
C2048 C2034 1.377 . S
C2048 C2047 1.373 . S
C2049 C2033 1.377 . S
C2049 C2047 1.389 . S
C2049 C2050 1.524 . S
C2050 C2049 1.524 . S
C2050 C2051 1.397 . S
C2050 C2055 1.363 . S
C2051 H2022 0.950 . S
C2051 C2050 1.397 . S
C2051 C2052 1.334 . S
C2052 H2023 0.950 . S
C2052 C2051 1.334 . S
C2052 C2053 1.287 . S
C2053 C2052 1.287 . S
C2053 C2054 1.524 . S
C2053 H2056 0.999 . S
C2054 H2024 0.950 . S
C2054 C2053 1.524 . S
C2054 C2055 1.415 . S
C2055 H2025 0.950 . S
C2055 C2050 1.363 . S
C2055 C2054 1.415 . S
H2056 C2053 0.999 . S
H2057 C2038 0.913 . S
H2058 C2076 0.951 . S
H2059 C2078 0.951 . S
H2060 C2080 0.950 . S
H2061 C2081 0.950 . S
H2062 C2083 0.950 . S
H2063 C2086 0.950 . S
H2064 C2087 0.950 . S
H2065 C2089 0.950 . S
H2066 C2090 0.950 . S
H2067 C2091 0.951 . S
H2068 C2093 0.951 . S
H2069 C2095 0.950 . S
H2070 C2096 0.950 . S
H2071 C2098 0.950 . S
H2072 C2101 0.950 . S
H2073 C2102 0.950 . S
H2074 C2104 0.950 . S
H2075 C2105 0.950 . S
C2076 H2058 0.951 . S
C2076 C2077 1.366 . S
C2076 C2078 1.388 . S
C2077 C2076 1.366 . S
C2077 C2081 1.385 . S
C2078 H2059 0.951 . S
C2078 C2076 1.388 . S
C2078 C2079 1.366 . S
C2079 C2078 1.366 . S
C2079 C2080 1.414 . S
C2079 C2082 1.499 . S
C2080 H2060 0.950 . S
C2080 C2079 1.414 . S
C2080 C2081 1.374 . S
C2081 H2061 0.950 . S
C2081 C2077 1.385 . S
C2081 C2080 1.374 . S
C2082 C2079 1.499 . S
C2082 C2083 1.373 . S
C2082 C2084 1.389 . S
C2083 H2062 0.950 . S
C2083 C2082 1.373 . S
C2083 C2099 1.377 . S
C2084 C2082 1.389 . S
C2084 C2085 1.524 . S
C2084 C2098 1.377 . S
C2085 C2084 1.524 . S
C2085 C2086 1.397 . S
C2085 C2090 1.363 . S
C2086 H2063 0.950 . S
C2086 C2085 1.397 . S
C2086 C2087 1.334 . S
C2087 H2064 0.950 . S
C2087 C2086 1.334 . S
C2087 C2088 1.287 . S
C2088 C2087 1.287 . S
C2088 C2089 1.524 . S
C2088 H2107 0.913 . S
C2089 H2065 0.950 . S
C2089 C2088 1.524 . S
C2089 C2090 1.415 . S
C2090 H2066 0.950 . S
C2090 C2085 1.363 . S
C2090 C2089 1.415 . S
C2091 H2067 0.951 . S
C2091 C2092 1.366 . S
C2091 C2093 1.388 . S
C2092 C2091 1.366 . S
C2092 C2096 1.385 . S
C2093 H2068 0.951 . S
C2093 C2091 1.388 . S
C2093 C2094 1.366 . S
C2094 C2093 1.366 . S
C2094 C2095 1.414 . S
C2094 C2097 1.499 . S
C2095 H2069 0.950 . S
C2095 C2094 1.414 . S
C2095 C2096 1.374 . S
C2096 H2070 0.950 . S
C2096 C2092 1.385 . S
C2096 C2095 1.374 . S
C2097 C2094 1.499 . S
C2097 C2098 1.373 . S
C2097 C2099 1.389 . S
C2098 H2071 0.950 . S
C2098 C2084 1.377 . S
C2098 C2097 1.373 . S
C2099 C2083 1.377 . S
C2099 C2097 1.389 . S
C2099 C2100 1.524 . S
C2100 C2099 1.524 . S
C2100 C2101 1.397 . S
C2100 C2105 1.363 . S
C2101 H2072 0.950 . S
C2101 C2100 1.397 . S
C2101 C2102 1.334 . S
C2102 H2073 0.950 . S
C2102 C2101 1.334 . S
C2102 C2103 1.287 . S
C2103 C2102 1.287 . S
C2103 C2104 1.524 . S
C2103 H2106 0.999 . S
C2104 H2074 0.950 . S
C2104 C2103 1.524 . S
C2104 C2105 1.415 . S
C2105 H2075 0.950 . S
C2105 C2100 1.363 . S
C2105 C2104 1.415 . S
H2106 C2103 0.999 . S
H2107 C2088 0.913 . S
H2108 C2126 0.951 . S
H2109 C2128 0.951 . S
H2110 C2130 0.950 . S
H2111 C2131 0.950 . S
H2112 C2133 0.950 . S
H2113 C2136 0.950 . S
H2114 C2137 0.950 . S
H2115 C2139 0.950 . S
H2116 C2140 0.950 . S
H2117 C2141 0.951 . S
H2118 C2143 0.951 . S
H2119 C2145 0.950 . S
H2120 C2146 0.950 . S
H2121 C2148 0.950 . S
H2122 C2151 0.950 . S
H2123 C2152 0.950 . S
H2124 C2154 0.950 . S
H2125 C2155 0.950 . S
C2126 H2108 0.951 . S
C2126 C2127 1.366 . S
C2126 C2128 1.388 . S
C2127 C2126 1.366 . S
C2127 C2131 1.385 . S
C2128 H2109 0.951 . S
C2128 C2126 1.388 . S
C2128 C2129 1.366 . S
C2129 C2128 1.366 . S
C2129 C2130 1.414 . S
C2129 C2132 1.499 . S
C2130 H2110 0.950 . S
C2130 C2129 1.414 . S
C2130 C2131 1.374 . S
C2131 H2111 0.950 . S
C2131 C2127 1.385 . S
C2131 C2130 1.374 . S
C2132 C2129 1.499 . S
C2132 C2133 1.373 . S
C2132 C2134 1.389 . S
C2133 H2112 0.950 . S
C2133 C2132 1.373 . S
C2133 C2149 1.377 . S
C2134 C2132 1.389 . S
C2134 C2135 1.524 . S
C2134 C2148 1.377 . S
C2135 C2134 1.524 . S
C2135 C2136 1.397 . S
C2135 C2140 1.363 . S
C2136 H2113 0.950 . S
C2136 C2135 1.397 . S
C2136 C2137 1.334 . S
C2137 H2114 0.950 . S
C2137 C2136 1.334 . S
C2137 C2138 1.287 . S
C2138 C2137 1.287 . S
C2138 C2139 1.524 . S
C2138 H2157 0.913 . S
C2139 H2115 0.950 . S
C2139 C2138 1.524 . S
C2139 C2140 1.415 . S
C2140 H2116 0.950 . S
C2140 C2135 1.363 . S
C2140 C2139 1.415 . S
C2141 H2117 0.951 . S
C2141 C2142 1.366 . S
C2141 C2143 1.388 . S
C2142 C2141 1.366 . S
C2142 C2146 1.385 . S
C2143 H2118 0.951 . S
C2143 C2141 1.388 . S
C2143 C2144 1.366 . S
C2144 C2143 1.366 . S
C2144 C2145 1.414 . S
C2144 C2147 1.499 . S
C2145 H2119 0.950 . S
C2145 C2144 1.414 . S
C2145 C2146 1.374 . S
C2146 H2120 0.950 . S
C2146 C2142 1.385 . S
C2146 C2145 1.374 . S
C2147 C2144 1.499 . S
C2147 C2148 1.373 . S
C2147 C2149 1.389 . S
C2148 H2121 0.950 . S
C2148 C2134 1.377 . S
C2148 C2147 1.373 . S
C2149 C2133 1.377 . S
C2149 C2147 1.389 . S
C2149 C2150 1.524 . S
C2150 C2149 1.524 . S
C2150 C2151 1.397 . S
C2150 C2155 1.363 . S
C2151 H2122 0.950 . S
C2151 C2150 1.397 . S
C2151 C2152 1.334 . S
C2152 H2123 0.950 . S
C2152 C2151 1.334 . S
C2152 C2153 1.287 . S
C2153 C2152 1.287 . S
C2153 C2154 1.524 . S
C2153 H2156 0.999 . S
C2154 H2124 0.950 . S
C2154 C2153 1.524 . S
C2154 C2155 1.415 . S
C2155 H2125 0.950 . S
C2155 C2150 1.363 . S
C2155 C2154 1.415 . S
H2156 C2153 0.999 . S
H2157 C2138 0.913 . S
H2158 C2176 0.951 . S
H2159 C2178 0.951 . S
H2160 C2180 0.950 . S
H2161 C2181 0.950 . S
H2162 C2183 0.950 . S
H2163 C2186 0.950 . S
H2164 C2187 0.950 . S
H2165 C2189 0.950 . S
H2166 C2190 0.950 . S
H2167 C2191 0.951 . S
H2168 C2193 0.951 . S
H2169 C2195 0.950 . S
H2170 C2196 0.950 . S
H2171 C2198 0.950 . S
H2172 C2201 0.950 . S
H2173 C2202 0.950 . S
H2174 C2204 0.950 . S
H2175 C2205 0.950 . S
C2176 H2158 0.951 . S
C2176 C2177 1.366 . S
C2176 C2178 1.388 . S
C2177 C2176 1.366 . S
C2177 C2181 1.385 . S
C2178 H2159 0.951 . S
C2178 C2176 1.388 . S
C2178 C2179 1.366 . S
C2179 C2178 1.366 . S
C2179 C2180 1.414 . S
C2179 C2182 1.499 . S
C2180 H2160 0.950 . S
C2180 C2179 1.414 . S
C2180 C2181 1.374 . S
C2181 H2161 0.950 . S
C2181 C2177 1.385 . S
C2181 C2180 1.374 . S
C2182 C2179 1.499 . S
C2182 C2183 1.373 . S
C2182 C2184 1.389 . S
C2183 H2162 0.950 . S
C2183 C2182 1.373 . S
C2183 C2199 1.377 . S
C2184 C2182 1.389 . S
C2184 C2185 1.524 . S
C2184 C2198 1.377 . S
C2185 C2184 1.524 . S
C2185 C2186 1.397 . S
C2185 C2190 1.363 . S
C2186 H2163 0.950 . S
C2186 C2185 1.397 . S
C2186 C2187 1.334 . S
C2187 H2164 0.950 . S
C2187 C2186 1.334 . S
C2187 C2188 1.287 . S
C2188 C2187 1.287 . S
C2188 C2189 1.524 . S
C2188 H2207 0.913 . S
C2189 H2165 0.950 . S
C2189 C2188 1.524 . S
C2189 C2190 1.415 . S
C2190 H2166 0.950 . S
C2190 C2185 1.363 . S
C2190 C2189 1.415 . S
C2191 H2167 0.951 . S
C2191 C2192 1.366 . S
C2191 C2193 1.388 . S
C2192 C2191 1.366 . S
C2192 C2196 1.385 . S
C2193 H2168 0.951 . S
C2193 C2191 1.388 . S
C2193 C2194 1.366 . S
C2194 C2193 1.366 . S
C2194 C2195 1.414 . S
C2194 C2197 1.499 . S
C2195 H2169 0.950 . S
C2195 C2194 1.414 . S
C2195 C2196 1.374 . S
C2196 H2170 0.950 . S
C2196 C2192 1.385 . S
C2196 C2195 1.374 . S
C2197 C2194 1.499 . S
C2197 C2198 1.373 . S
C2197 C2199 1.389 . S
C2198 H2171 0.950 . S
C2198 C2184 1.377 . S
C2198 C2197 1.373 . S
C2199 C2183 1.377 . S
C2199 C2197 1.389 . S
C2199 C2200 1.524 . S
C2200 C2199 1.524 . S
C2200 C2201 1.397 . S
C2200 C2205 1.363 . S
C2201 H2172 0.950 . S
C2201 C2200 1.397 . S
C2201 C2202 1.334 . S
C2202 H2173 0.950 . S
C2202 C2201 1.334 . S
C2202 C2203 1.287 . S
C2203 C2202 1.287 . S
C2203 C2204 1.524 . S
C2203 H2206 0.999 . S
C2204 H2174 0.950 . S
C2204 C2203 1.524 . S
C2204 C2205 1.415 . S
C2205 H2175 0.950 . S
C2205 C2200 1.363 . S
C2205 C2204 1.415 . S
H2206 C2203 0.999 . S
H2207 C2188 0.913 . S
H2208 C2226 0.951 . S
H2209 C2228 0.951 . S
H2210 C2230 0.950 . S
H2211 C2231 0.950 . S
H2212 C2233 0.950 . S
H2213 C2236 0.950 . S
H2214 C2237 0.950 . S
H2215 C2239 0.950 . S
H2216 C2240 0.950 . S
H2217 C2241 0.951 . S
H2218 C2243 0.951 . S
H2219 C2245 0.950 . S
H2220 C2246 0.950 . S
H2221 C2248 0.950 . S
H2222 C2251 0.950 . S
H2223 C2252 0.950 . S
H2224 C2254 0.950 . S
H2225 C2255 0.950 . S
C2226 H2208 0.951 . S
C2226 C2227 1.366 . S
C2226 C2228 1.388 . S
C2227 C2226 1.366 . S
C2227 C2231 1.385 . S
C2228 H2209 0.951 . S
C2228 C2226 1.388 . S
C2228 C2229 1.366 . S
C2229 C2228 1.366 . S
C2229 C2230 1.414 . S
C2229 C2232 1.499 . S
C2230 H2210 0.950 . S
C2230 C2229 1.414 . S
C2230 C2231 1.374 . S
C2231 H2211 0.950 . S
C2231 C2227 1.385 . S
C2231 C2230 1.374 . S
C2232 C2229 1.499 . S
C2232 C2233 1.373 . S
C2232 C2234 1.389 . S
C2233 H2212 0.950 . S
C2233 C2232 1.373 . S
C2233 C2249 1.377 . S
C2234 C2232 1.389 . S
C2234 C2235 1.524 . S
C2234 C2248 1.377 . S
C2235 C2234 1.524 . S
C2235 C2236 1.397 . S
C2235 C2240 1.363 . S
C2236 H2213 0.950 . S
C2236 C2235 1.397 . S
C2236 C2237 1.334 . S
C2237 H2214 0.950 . S
C2237 C2236 1.334 . S
C2237 C2238 1.287 . S
C2238 C2237 1.287 . S
C2238 C2239 1.524 . S
C2238 H2257 0.913 . S
C2239 H2215 0.950 . S
C2239 C2238 1.524 . S
C2239 C2240 1.415 . S
C2240 H2216 0.950 . S
C2240 C2235 1.363 . S
C2240 C2239 1.415 . S
C2241 H2217 0.951 . S
C2241 C2242 1.366 . S
C2241 C2243 1.388 . S
C2242 C2241 1.366 . S
C2242 C2246 1.385 . S
C2243 H2218 0.951 . S
C2243 C2241 1.388 . S
C2243 C2244 1.366 . S
C2244 C2243 1.366 . S
C2244 C2245 1.414 . S
C2244 C2247 1.499 . S
C2245 H2219 0.950 . S
C2245 C2244 1.414 . S
C2245 C2246 1.374 . S
C2246 H2220 0.950 . S
C2246 C2242 1.385 . S
C2246 C2245 1.374 . S
C2247 C2244 1.499 . S
C2247 C2248 1.373 . S
C2247 C2249 1.389 . S
C2248 H2221 0.950 . S
C2248 C2234 1.377 . S
C2248 C2247 1.373 . S
C2249 C2233 1.377 . S
C2249 C2247 1.389 . S
C2249 C2250 1.524 . S
C2250 C2249 1.524 . S
C2250 C2251 1.397 . S
C2250 C2255 1.363 . S
C2251 H2222 0.950 . S
C2251 C2250 1.397 . S
C2251 C2252 1.334 . S
C2252 H2223 0.950 . S
C2252 C2251 1.334 . S
C2252 C2253 1.287 . S
C2253 C2252 1.287 . S
C2253 C2254 1.524 . S
C2253 H2256 0.999 . S
C2254 H2224 0.950 . S
C2254 C2253 1.524 . S
C2254 C2255 1.415 . S
C2255 H2225 0.950 . S
C2255 C2250 1.363 . S
C2255 C2254 1.415 . S
H2256 C2253 0.999 . S
H2257 C2238 0.913 . S
H2258 C2276 0.951 . S
H2259 C2278 0.951 . S
H2260 C2280 0.950 . S
H2261 C2281 0.950 . S
H2262 C2283 0.950 . S
H2263 C2286 0.950 . S
H2264 C2287 0.950 . S
H2265 C2289 0.950 . S
H2266 C2290 0.950 . S
H2267 C2291 0.951 . S
H2268 C2293 0.951 . S
H2269 C2295 0.950 . S
H2270 C2296 0.950 . S
H2271 C2298 0.950 . S
H2272 C2301 0.950 . S
H2273 C2302 0.950 . S
H2274 C2304 0.950 . S
H2275 C2305 0.950 . S
C2276 H2258 0.951 . S
C2276 C2277 1.366 . S
C2276 C2278 1.388 . S
C2277 C2276 1.366 . S
C2277 C2281 1.385 . S
C2278 H2259 0.951 . S
C2278 C2276 1.388 . S
C2278 C2279 1.366 . S
C2279 C2278 1.366 . S
C2279 C2280 1.414 . S
C2279 C2282 1.499 . S
C2280 H2260 0.950 . S
C2280 C2279 1.414 . S
C2280 C2281 1.374 . S
C2281 H2261 0.950 . S
C2281 C2277 1.385 . S
C2281 C2280 1.374 . S
C2282 C2279 1.499 . S
C2282 C2283 1.373 . S
C2282 C2284 1.389 . S
C2283 H2262 0.950 . S
C2283 C2282 1.373 . S
C2283 C2299 1.377 . S
C2284 C2282 1.389 . S
C2284 C2285 1.524 . S
C2284 C2298 1.377 . S
C2285 C2284 1.524 . S
C2285 C2286 1.397 . S
C2285 C2290 1.363 . S
C2286 H2263 0.950 . S
C2286 C2285 1.397 . S
C2286 C2287 1.334 . S
C2287 H2264 0.950 . S
C2287 C2286 1.334 . S
C2287 C2288 1.287 . S
C2288 C2287 1.287 . S
C2288 C2289 1.524 . S
C2288 H2307 0.913 . S
C2289 H2265 0.950 . S
C2289 C2288 1.524 . S
C2289 C2290 1.415 . S
C2290 H2266 0.950 . S
C2290 C2285 1.363 . S
C2290 C2289 1.415 . S
C2291 H2267 0.951 . S
C2291 C2292 1.366 . S
C2291 C2293 1.388 . S
C2292 C2291 1.366 . S
C2292 C2296 1.385 . S
C2293 H2268 0.951 . S
C2293 C2291 1.388 . S
C2293 C2294 1.366 . S
C2294 C2293 1.366 . S
C2294 C2295 1.414 . S
C2294 C2297 1.499 . S
C2295 H2269 0.950 . S
C2295 C2294 1.414 . S
C2295 C2296 1.374 . S
C2296 H2270 0.950 . S
C2296 C2292 1.385 . S
C2296 C2295 1.374 . S
C2297 C2294 1.499 . S
C2297 C2298 1.373 . S
C2297 C2299 1.389 . S
C2298 H2271 0.950 . S
C2298 C2284 1.377 . S
C2298 C2297 1.373 . S
C2299 C2283 1.377 . S
C2299 C2297 1.389 . S
C2299 C2300 1.524 . S
C2300 C2299 1.524 . S
C2300 C2301 1.397 . S
C2300 C2305 1.363 . S
C2301 H2272 0.950 . S
C2301 C2300 1.397 . S
C2301 C2302 1.334 . S
C2302 H2273 0.950 . S
C2302 C2301 1.334 . S
C2302 C2303 1.287 . S
C2303 C2302 1.287 . S
C2303 C2304 1.524 . S
C2303 H2306 0.999 . S
C2304 H2274 0.950 . S
C2304 C2303 1.524 . S
C2304 C2305 1.415 . S
C2305 H2275 0.950 . S
C2305 C2300 1.363 . S
C2305 C2304 1.415 . S
H2306 C2303 0.999 . S
H2307 C2288 0.913 . S
H2308 C2326 0.951 . S
H2309 C2328 0.951 . S
H2310 C2330 0.950 . S
H2311 C2331 0.950 . S
H2312 C2333 0.950 . S
H2313 C2336 0.950 . S
H2314 C2337 0.950 . S
H2315 C2339 0.950 . S
H2316 C2340 0.950 . S
H2317 C2341 0.951 . S
H2318 C2343 0.951 . S
H2319 C2345 0.950 . S
H2320 C2346 0.950 . S
H2321 C2348 0.950 . S
H2322 C2351 0.950 . S
H2323 C2352 0.950 . S
H2324 C2354 0.950 . S
H2325 C2355 0.950 . S
C2326 H2308 0.951 . S
C2326 C2327 1.366 . S
C2326 C2328 1.388 . S
C2327 C2326 1.366 . S
C2327 C2331 1.385 . S
C2328 H2309 0.951 . S
C2328 C2326 1.388 . S
C2328 C2329 1.366 . S
C2329 C2328 1.366 . S
C2329 C2330 1.414 . S
C2329 C2332 1.499 . S
C2330 H2310 0.950 . S
C2330 C2329 1.414 . S
C2330 C2331 1.374 . S
C2331 H2311 0.950 . S
C2331 C2327 1.385 . S
C2331 C2330 1.374 . S
C2332 C2329 1.499 . S
C2332 C2333 1.373 . S
C2332 C2334 1.389 . S
C2333 H2312 0.950 . S
C2333 C2332 1.373 . S
C2333 C2349 1.377 . S
C2334 C2332 1.389 . S
C2334 C2335 1.524 . S
C2334 C2348 1.377 . S
C2335 C2334 1.524 . S
C2335 C2336 1.397 . S
C2335 C2340 1.363 . S
C2336 H2313 0.950 . S
C2336 C2335 1.397 . S
C2336 C2337 1.334 . S
C2337 H2314 0.950 . S
C2337 C2336 1.334 . S
C2337 C2338 1.287 . S
C2338 C2337 1.287 . S
C2338 C2339 1.524 . S
C2338 H2357 0.913 . S
C2339 H2315 0.950 . S
C2339 C2338 1.524 . S
C2339 C2340 1.415 . S
C2340 H2316 0.950 . S
C2340 C2335 1.363 . S
C2340 C2339 1.415 . S
C2341 H2317 0.951 . S
C2341 C2342 1.366 . S
C2341 C2343 1.388 . S
C2342 C2341 1.366 . S
C2342 C2346 1.385 . S
C2343 H2318 0.951 . S
C2343 C2341 1.388 . S
C2343 C2344 1.366 . S
C2344 C2343 1.366 . S
C2344 C2345 1.414 . S
C2344 C2347 1.499 . S
C2345 H2319 0.950 . S
C2345 C2344 1.414 . S
C2345 C2346 1.374 . S
C2346 H2320 0.950 . S
C2346 C2342 1.385 . S
C2346 C2345 1.374 . S
C2347 C2344 1.499 . S
C2347 C2348 1.373 . S
C2347 C2349 1.389 . S
C2348 H2321 0.950 . S
C2348 C2334 1.377 . S
C2348 C2347 1.373 . S
C2349 C2333 1.377 . S
C2349 C2347 1.389 . S
C2349 C2350 1.524 . S
C2350 C2349 1.524 . S
C2350 C2351 1.397 . S
C2350 C2355 1.363 . S
C2351 H2322 0.950 . S
C2351 C2350 1.397 . S
C2351 C2352 1.334 . S
C2352 H2323 0.950 . S
C2352 C2351 1.334 . S
C2352 C2353 1.287 . S
C2353 C2352 1.287 . S
C2353 C2354 1.524 . S
C2353 H2356 0.999 . S
C2354 H2324 0.950 . S
C2354 C2353 1.524 . S
C2354 C2355 1.415 . S
C2355 H2325 0.950 . S
C2355 C2350 1.363 . S
C2355 C2354 1.415 . S
H2356 C2353 0.999 . S
H2357 C2338 0.913 . S
H2358 C2376 0.951 . S
H2359 C2378 0.951 . S
H2360 C2380 0.950 . S
H2361 C2381 0.950 . S
H2362 C2383 0.950 . S
H2363 C2386 0.950 . S
H2364 C2387 0.950 . S
H2365 C2389 0.950 . S
H2366 C2390 0.950 . S
H2367 C2391 0.951 . S
H2368 C2393 0.951 . S
H2369 C2395 0.950 . S
H2370 C2396 0.950 . S
H2371 C2398 0.950 . S
H2372 C2401 0.950 . S
H2373 C2402 0.950 . S
H2374 C2404 0.950 . S
H2375 C2405 0.950 . S
C2376 H2358 0.951 . S
C2376 C2377 1.366 . S
C2376 C2378 1.388 . S
C2377 C2376 1.366 . S
C2377 C2381 1.385 . S
C2378 H2359 0.951 . S
C2378 C2376 1.388 . S
C2378 C2379 1.366 . S
C2379 C2378 1.366 . S
C2379 C2380 1.414 . S
C2379 C2382 1.499 . S
C2380 H2360 0.950 . S
C2380 C2379 1.414 . S
C2380 C2381 1.374 . S
C2381 H2361 0.950 . S
C2381 C2377 1.385 . S
C2381 C2380 1.374 . S
C2382 C2379 1.499 . S
C2382 C2383 1.373 . S
C2382 C2384 1.389 . S
C2383 H2362 0.950 . S
C2383 C2382 1.373 . S
C2383 C2399 1.377 . S
C2384 C2382 1.389 . S
C2384 C2385 1.524 . S
C2384 C2398 1.377 . S
C2385 C2384 1.524 . S
C2385 C2386 1.397 . S
C2385 C2390 1.363 . S
C2386 H2363 0.950 . S
C2386 C2385 1.397 . S
C2386 C2387 1.334 . S
C2387 H2364 0.950 . S
C2387 C2386 1.334 . S
C2387 C2388 1.287 . S
C2388 C2387 1.287 . S
C2388 C2389 1.524 . S
C2388 H2407 0.913 . S
C2389 H2365 0.950 . S
C2389 C2388 1.524 . S
C2389 C2390 1.415 . S
C2390 H2366 0.950 . S
C2390 C2385 1.363 . S
C2390 C2389 1.415 . S
C2391 H2367 0.951 . S
C2391 C2392 1.366 . S
C2391 C2393 1.388 . S
C2392 C2391 1.366 . S
C2392 C2396 1.385 . S
C2393 H2368 0.951 . S
C2393 C2391 1.388 . S
C2393 C2394 1.366 . S
C2394 C2393 1.366 . S
C2394 C2395 1.414 . S
C2394 C2397 1.499 . S
C2395 H2369 0.950 . S
C2395 C2394 1.414 . S
C2395 C2396 1.374 . S
C2396 H2370 0.950 . S
C2396 C2392 1.385 . S
C2396 C2395 1.374 . S
C2397 C2394 1.499 . S
C2397 C2398 1.373 . S
C2397 C2399 1.389 . S
C2398 H2371 0.950 . S
C2398 C2384 1.377 . S
C2398 C2397 1.373 . S
C2399 C2383 1.377 . S
C2399 C2397 1.389 . S
C2399 C2400 1.524 . S
C2400 C2399 1.524 . S
C2400 C2401 1.397 . S
C2400 C2405 1.363 . S
C2401 H2372 0.950 . S
C2401 C2400 1.397 . S
C2401 C2402 1.334 . S
C2402 H2373 0.950 . S
C2402 C2401 1.334 . S
C2402 C2403 1.287 . S
C2403 C2402 1.287 . S
C2403 C2404 1.524 . S
C2403 H2406 0.999 . S
C2404 H2374 0.950 . S
C2404 C2403 1.524 . S
C2404 C2405 1.415 . S
C2405 H2375 0.950 . S
C2405 C2400 1.363 . S
C2405 C2404 1.415 . S
H2406 C2403 0.999 . S
H2407 C2388 0.913 . S
H2408 C2426 0.951 . S
H2409 C2428 0.951 . S
H2410 C2430 0.950 . S
H2411 C2431 0.950 . S
H2412 C2433 0.950 . S
H2413 C2436 0.950 . S
H2414 C2437 0.950 . S
H2415 C2439 0.950 . S
H2416 C2440 0.950 . S
H2417 C2441 0.951 . S
H2418 C2443 0.951 . S
H2419 C2445 0.950 . S
H2420 C2446 0.950 . S
H2421 C2448 0.950 . S
H2422 C2451 0.950 . S
H2423 C2452 0.950 . S
H2424 C2454 0.950 . S
H2425 C2455 0.950 . S
C2426 H2408 0.951 . S
C2426 C2427 1.366 . S
C2426 C2428 1.388 . S
C2427 C2426 1.366 . S
C2427 C2431 1.385 . S
C2428 H2409 0.951 . S
C2428 C2426 1.388 . S
C2428 C2429 1.366 . S
C2429 C2428 1.366 . S
C2429 C2430 1.414 . S
C2429 C2432 1.499 . S
C2430 H2410 0.950 . S
C2430 C2429 1.414 . S
C2430 C2431 1.374 . S
C2431 H2411 0.950 . S
C2431 C2427 1.385 . S
C2431 C2430 1.374 . S
C2432 C2429 1.499 . S
C2432 C2433 1.373 . S
C2432 C2434 1.389 . S
C2433 H2412 0.950 . S
C2433 C2432 1.373 . S
C2433 C2449 1.377 . S
C2434 C2432 1.389 . S
C2434 C2435 1.524 . S
C2434 C2448 1.377 . S
C2435 C2434 1.524 . S
C2435 C2436 1.397 . S
C2435 C2440 1.363 . S
C2436 H2413 0.950 . S
C2436 C2435 1.397 . S
C2436 C2437 1.334 . S
C2437 H2414 0.950 . S
C2437 C2436 1.334 . S
C2437 C2438 1.287 . S
C2438 C2437 1.287 . S
C2438 C2439 1.524 . S
C2438 H2457 0.913 . S
C2439 H2415 0.950 . S
C2439 C2438 1.524 . S
C2439 C2440 1.415 . S
C2440 H2416 0.950 . S
C2440 C2435 1.363 . S
C2440 C2439 1.415 . S
C2441 H2417 0.951 . S
C2441 C2442 1.366 . S
C2441 C2443 1.388 . S
C2442 C2441 1.366 . S
C2442 C2446 1.385 . S
C2443 H2418 0.951 . S
C2443 C2441 1.388 . S
C2443 C2444 1.366 . S
C2444 C2443 1.366 . S
C2444 C2445 1.414 . S
C2444 C2447 1.499 . S
C2445 H2419 0.950 . S
C2445 C2444 1.414 . S
C2445 C2446 1.374 . S
C2446 H2420 0.950 . S
C2446 C2442 1.385 . S
C2446 C2445 1.374 . S
C2447 C2444 1.499 . S
C2447 C2448 1.373 . S
C2447 C2449 1.389 . S
C2448 H2421 0.950 . S
C2448 C2434 1.377 . S
C2448 C2447 1.373 . S
C2449 C2433 1.377 . S
C2449 C2447 1.389 . S
C2449 C2450 1.524 . S
C2450 C2449 1.524 . S
C2450 C2451 1.397 . S
C2450 C2455 1.363 . S
C2451 H2422 0.950 . S
C2451 C2450 1.397 . S
C2451 C2452 1.334 . S
C2452 H2423 0.950 . S
C2452 C2451 1.334 . S
C2452 C2453 1.287 . S
C2453 C2452 1.287 . S
C2453 C2454 1.524 . S
C2453 H2456 0.999 . S
C2454 H2424 0.950 . S
C2454 C2453 1.524 . S
C2454 C2455 1.415 . S
C2455 H2425 0.950 . S
C2455 C2450 1.363 . S
C2455 C2454 1.415 . S
H2456 C2453 0.999 . S
H2457 C2438 0.913 . S
H2458 C2476 0.951 . S
H2459 C2478 0.951 . S
H2460 C2480 0.950 . S
H2461 C2481 0.950 . S
H2462 C2483 0.931 1_545 S
H2463 C2486 0.950 . S
H2464 C2487 0.950 . S
H2465 C2489 0.950 . S
H2466 C2490 0.950 . S
H2467 C2491 0.951 . S
H2468 C2493 0.913 1_545 S
H2469 C2495 0.950 . S
H2470 C2496 0.950 . S
H2471 C2498 0.950 . S
H2472 C2501 0.950 . S
H2473 C2502 0.950 . S
H2474 C2504 0.950 . S
H2475 C2505 0.950 . S
C2476 H2458 0.951 . S
C2476 C2477 1.366 . S
C2476 C2478 1.388 . S
C2477 C2476 1.366 . S
C2477 C2481 1.385 1_565 S
C2478 H2459 0.951 . S
C2478 C2476 1.388 . S
C2478 C2479 1.366 . S
C2479 C2478 1.366 . S
C2479 C2480 1.414 1_565 S
C2479 C2482 1.499 . S
C2480 H2460 0.950 . S
C2480 C2479 1.414 1_545 S
C2480 C2481 1.374 . S
C2481 H2461 0.950 . S
C2481 C2477 1.385 1_545 S
C2481 C2480 1.374 . S
C2482 C2479 1.499 . S
C2482 C2483 1.373 . S
C2482 C2484 1.389 . S
C2483 H2462 0.931 1_565 S
C2483 C2482 1.373 . S
C2483 C2499 1.377 . S
C2484 C2482 1.389 . S
C2484 C2485 1.524 . S
C2484 C2498 1.377 . S
C2485 C2484 1.524 . S
C2485 C2486 1.397 . S
C2485 C2490 1.363 . S
C2486 H2463 0.950 . S
C2486 C2485 1.397 . S
C2486 C2487 1.334 . S
C2487 H2464 0.950 . S
C2487 C2486 1.334 . S
C2487 C2488 1.287 . S
C2488 C2487 1.287 . S
C2488 C2489 1.524 . S
C2488 H2507 0.913 . S
C2489 H2465 0.950 . S
C2489 C2488 1.524 . S
C2489 C2490 1.415 . S
C2490 H2466 0.950 . S
C2490 C2485 1.363 . S
C2490 C2489 1.415 . S
C2491 H2467 0.951 . S
C2491 C2492 1.366 . S
C2491 C2493 1.388 . S
C2492 C2491 1.366 . S
C2492 C2496 1.385 . S
C2493 H2468 0.913 1_565 S
C2493 C2491 1.388 . S
C2493 C2494 1.366 . S
C2494 C2493 1.366 . S
C2494 C2495 1.414 . S
C2494 C2497 1.499 . S
C2495 H2469 0.950 . S
C2495 C2494 1.414 . S
C2495 C2496 1.374 . S
C2496 H2470 0.950 . S
C2496 C2492 1.385 . S
C2496 C2495 1.374 . S
C2497 C2494 1.499 . S
C2497 C2498 1.373 . S
C2497 C2499 1.389 . S
C2498 H2471 0.950 . S
C2498 C2484 1.377 . S
C2498 C2497 1.373 . S
C2499 C2483 1.377 . S
C2499 C2497 1.389 . S
C2499 C2500 1.524 . S
C2500 C2499 1.524 . S
C2500 C2501 1.397 . S
C2500 C2505 1.363 1_565 S
C2501 H2472 0.950 . S
C2501 C2500 1.397 . S
C2501 C2502 1.334 . S
C2502 H2473 0.950 . S
C2502 C2501 1.334 . S
C2502 C2503 1.287 1_565 S
C2503 C2502 1.287 1_545 S
C2503 C2504 1.524 . S
C2503 H2506 0.999 . S
C2504 H2474 0.950 . S
C2504 C2503 1.524 . S
C2504 C2505 1.415 . S
C2505 H2475 0.950 . S
C2505 C2500 1.363 1_545 S
C2505 C2504 1.415 . S
H2506 C2503 0.999 . S
H2507 C2488 0.913 . S
H2508 C2526 0.951 . S
H2509 C2528 0.951 . S
H2510 C2530 0.950 . S
H2511 C2531 0.950 . S
H2512 C2533 0.950 . S
H2513 C2536 0.950 . S
H2514 C2537 0.950 . S
H2515 C2539 0.950 . S
H2516 C2540 0.950 . S
H2517 C2541 0.951 . S
H2518 C2543 0.951 . S
H2519 C2545 0.950 . S
H2520 C2546 0.950 . S
H2521 C2548 0.950 . S
H2522 C2551 0.950 . S
H2523 C2552 0.950 . S
H2524 C2554 0.950 . S
H2525 C2555 0.950 . S
C2526 H2508 0.951 . S
C2526 C2527 1.366 . S
C2526 C2528 1.388 . S
C2527 C2526 1.366 . S
C2527 C2531 1.385 . S
C2528 H2509 0.951 . S
C2528 C2526 1.388 . S
C2528 C2529 1.366 . S
C2529 C2528 1.366 . S
C2529 C2530 1.414 . S
C2529 C2532 1.499 . S
C2530 H2510 0.950 . S
C2530 C2529 1.414 . S
C2530 C2531 1.374 . S
C2531 H2511 0.950 . S
C2531 C2527 1.385 . S
C2531 C2530 1.374 . S
C2532 C2529 1.499 . S
C2532 C2533 1.373 . S
C2532 C2534 1.389 . S
C2533 H2512 0.950 . S
C2533 C2532 1.373 . S
C2533 C2549 1.377 . S
C2534 C2532 1.389 . S
C2534 C2535 1.524 . S
C2534 C2548 1.377 . S
C2535 C2534 1.524 . S
C2535 C2536 1.397 . S
C2535 C2540 1.363 . S
C2536 H2513 0.950 . S
C2536 C2535 1.397 . S
C2536 C2537 1.334 . S
C2537 H2514 0.950 . S
C2537 C2536 1.334 . S
C2537 C2538 1.287 . S
C2538 C2537 1.287 . S
C2538 C2539 1.524 . S
C2538 H2557 0.913 . S
C2539 H2515 0.950 . S
C2539 C2538 1.524 . S
C2539 C2540 1.415 . S
C2540 H2516 0.950 . S
C2540 C2535 1.363 . S
C2540 C2539 1.415 . S
C2541 H2517 0.951 . S
C2541 C2542 1.366 . S
C2541 C2543 1.388 . S
C2542 C2541 1.366 . S
C2542 C2546 1.385 . S
C2543 H2518 0.951 . S
C2543 C2541 1.388 . S
C2543 C2544 1.366 . S
C2544 C2543 1.366 . S
C2544 C2545 1.414 . S
C2544 C2547 1.499 . S
C2545 H2519 0.950 . S
C2545 C2544 1.414 . S
C2545 C2546 1.374 . S
C2546 H2520 0.950 . S
C2546 C2542 1.385 . S
C2546 C2545 1.374 . S
C2547 C2544 1.499 . S
C2547 C2548 1.373 . S
C2547 C2549 1.389 . S
C2548 H2521 0.950 . S
C2548 C2534 1.377 . S
C2548 C2547 1.373 . S
C2549 C2533 1.377 . S
C2549 C2547 1.389 . S
C2549 C2550 1.524 . S
C2550 C2549 1.524 . S
C2550 C2551 1.397 . S
C2550 C2555 1.363 . S
C2551 H2522 0.950 . S
C2551 C2550 1.397 . S
C2551 C2552 1.334 . S
C2552 H2523 0.950 . S
C2552 C2551 1.334 . S
C2552 C2553 1.287 . S
C2553 C2552 1.287 . S
C2553 C2554 1.524 . S
C2553 H2556 0.999 . S
C2554 H2524 0.950 . S
C2554 C2553 1.524 . S
C2554 C2555 1.415 . S
C2555 H2525 0.950 . S
C2555 C2550 1.363 . S
C2555 C2554 1.415 . S
H2556 C2553 0.999 . S
H2557 C2538 0.913 . S
H2558 C2576 0.951 . S
H2559 C2578 0.951 . S
H2560 C2580 0.950 . S
H2561 C2581 0.950 . S
H2562 C2583 0.972 . S
H2563 C2586 0.950 . S
H2564 C2587 0.950 . S
H2565 C2589 0.950 . S
H2566 C2590 0.950 . S
H2567 C2591 0.951 1_565 S
H2568 C2593 0.951 1_565 S
H2569 C2595 0.950 . S
H2570 C2596 0.950 . S
H2571 C2598 0.950 . S
H2572 C2601 0.950 . S
H2573 C2602 0.950 . S
H2574 C2604 0.950 . S
H2575 C2605 0.950 . S
C2576 H2558 0.951 . S
C2576 C2577 1.366 . S
C2576 C2578 1.388 . S
C2577 C2576 1.366 . S
C2577 C2581 1.385 1_545 S
C2578 H2559 0.951 . S
C2578 C2576 1.388 . S
C2578 C2579 1.366 . S
C2579 C2578 1.366 . S
C2579 C2580 1.414 1_545 S
C2579 C2582 1.499 . S
C2580 H2560 0.950 . S
C2580 C2579 1.414 1_565 S
C2580 C2581 1.374 . S
C2581 H2561 0.950 . S
C2581 C2577 1.385 1_565 S
C2581 C2580 1.374 . S
C2582 C2579 1.499 . S
C2582 C2583 1.373 . S
C2582 C2584 1.389 . S
C2583 H2562 0.972 . S
C2583 C2582 1.373 . S
C2583 C2599 1.377 . S
C2584 C2582 1.389 . S
C2584 C2585 1.524 . S
C2584 C2598 1.377 . S
C2585 C2584 1.524 . S
C2585 C2586 1.397 . S
C2585 C2590 1.363 . S
C2586 H2563 0.950 . S
C2586 C2585 1.397 . S
C2586 C2587 1.334 . S
C2587 H2564 0.950 . S
C2587 C2586 1.334 . S
C2587 C2588 1.287 . S
C2588 C2587 1.287 . S
C2588 C2589 1.524 . S
C2588 H2607 0.913 . S
C2589 H2565 0.950 . S
C2589 C2588 1.524 . S
C2589 C2590 1.415 . S
C2590 H2566 0.950 . S
C2590 C2585 1.363 . S
C2590 C2589 1.415 . S
C2591 H2567 0.951 1_545 S
C2591 C2592 1.366 . S
C2591 C2593 1.388 . S
C2592 C2591 1.366 . S
C2592 C2596 1.385 . S
C2593 H2568 0.951 1_545 S
C2593 C2591 1.388 . S
C2593 C2594 1.366 . S
C2594 C2593 1.366 . S
C2594 C2595 1.414 . S
C2594 C2597 1.499 . S
C2595 H2569 0.950 . S
C2595 C2594 1.414 . S
C2595 C2596 1.374 . S
C2596 H2570 0.950 . S
C2596 C2592 1.385 . S
C2596 C2595 1.374 . S
C2597 C2594 1.499 . S
C2597 C2598 1.373 . S
C2597 C2599 1.389 . S
C2598 H2571 0.950 . S
C2598 C2584 1.377 . S
C2598 C2597 1.373 . S
C2599 C2583 1.377 . S
C2599 C2597 1.389 . S
C2599 C2600 1.524 . S
C2600 C2599 1.524 . S
C2600 C2601 1.397 . S
C2600 C2605 1.363 1_545 S
C2601 H2572 0.950 . S
C2601 C2600 1.397 . S
C2601 C2602 1.334 . S
C2602 H2573 0.950 . S
C2602 C2601 1.334 . S
C2602 C2603 1.287 1_545 S
C2603 C2602 1.287 1_565 S
C2603 C2604 1.524 . S
C2603 H2606 0.999 . S
C2604 H2574 0.950 . S
C2604 C2603 1.524 . S
C2604 C2605 1.415 . S
C2605 H2575 0.950 . S
C2605 C2600 1.363 1_565 S
C2605 C2604 1.415 . S
H2606 C2603 0.999 . S
H2607 C2588 0.913 . S
H2608 C2626 0.951 . S
H2609 C2628 0.951 . S
H2610 C2630 0.950 . S
H2611 C2631 0.950 . S
H2612 C2633 0.950 . S
H2613 C2636 0.950 . S
H2614 C2637 0.950 . S
H2615 C2639 0.950 . S
H2616 C2640 0.950 . S
H2617 C2641 0.951 . S
H2618 C2643 0.951 . S
H2619 C2645 0.950 . S
H2620 C2646 0.950 . S
H2621 C2648 0.950 . S
H2622 C2651 0.950 . S
H2623 C2652 0.950 . S
H2624 C2654 0.950 . S
H2625 C2655 0.950 . S
C2626 H2608 0.951 . S
C2626 C2627 1.366 . S
C2626 C2628 1.388 . S
C2627 C2626 1.366 . S
C2627 C2631 1.385 . S
C2628 H2609 0.951 . S
C2628 C2626 1.388 . S
C2628 C2629 1.366 . S
C2629 C2628 1.366 . S
C2629 C2630 1.414 . S
C2629 C2632 1.499 . S
C2630 H2610 0.950 . S
C2630 C2629 1.414 . S
C2630 C2631 1.374 . S
C2631 H2611 0.950 . S
C2631 C2627 1.385 . S
C2631 C2630 1.374 . S
C2632 C2629 1.499 . S
C2632 C2633 1.373 . S
C2632 C2634 1.389 . S
C2633 H2612 0.950 . S
C2633 C2632 1.373 . S
C2633 C2649 1.377 . S
C2634 C2632 1.389 . S
C2634 C2635 1.524 . S
C2634 C2648 1.377 . S
C2635 C2634 1.524 . S
C2635 C2636 1.397 . S
C2635 C2640 1.363 . S
C2636 H2613 0.950 . S
C2636 C2635 1.397 . S
C2636 C2637 1.334 . S
C2637 H2614 0.950 . S
C2637 C2636 1.334 . S
C2637 C2638 1.287 . S
C2638 C2637 1.287 . S
C2638 C2639 1.524 . S
C2638 H2657 0.913 . S
C2639 H2615 0.950 . S
C2639 C2638 1.524 . S
C2639 C2640 1.415 . S
C2640 H2616 0.950 . S
C2640 C2635 1.363 . S
C2640 C2639 1.415 . S
C2641 H2617 0.951 . S
C2641 C2642 1.366 . S
C2641 C2643 1.388 . S
C2642 C2641 1.366 . S
C2642 C2646 1.385 . S
C2643 H2618 0.951 . S
C2643 C2641 1.388 . S
C2643 C2644 1.366 . S
C2644 C2643 1.366 . S
C2644 C2645 1.414 . S
C2644 C2647 1.499 . S
C2645 H2619 0.950 . S
C2645 C2644 1.414 . S
C2645 C2646 1.374 . S
C2646 H2620 0.950 . S
C2646 C2642 1.385 . S
C2646 C2645 1.374 . S
C2647 C2644 1.499 . S
C2647 C2648 1.373 . S
C2647 C2649 1.389 . S
C2648 H2621 0.950 . S
C2648 C2634 1.377 . S
C2648 C2647 1.373 . S
C2649 C2633 1.377 . S
C2649 C2647 1.389 . S
C2649 C2650 1.524 . S
C2650 C2649 1.524 . S
C2650 C2651 1.397 . S
C2650 C2655 1.363 . S
C2651 H2622 0.950 . S
C2651 C2650 1.397 . S
C2651 C2652 1.334 . S
C2652 H2623 0.950 . S
C2652 C2651 1.334 . S
C2652 C2653 1.287 . S
C2653 C2652 1.287 . S
C2653 C2654 1.524 . S
C2653 H2656 0.999 . S
C2654 H2624 0.950 . S
C2654 C2653 1.524 . S
C2654 C2655 1.415 . S
C2655 H2625 0.950 . S
C2655 C2650 1.363 . S
C2655 C2654 1.415 . S
H2656 C2653 0.999 . S
H2657 C2638 0.913 . S
H2658 C2676 0.951 . S
H2659 C2678 0.951 . S
H2660 C2680 0.950 . S
H2661 C2681 0.950 . S
H2662 C2683 0.950 1_554 S
H2663 C2686 0.918 1_554 S
H2664 C2687 0.950 1_554 S
H2665 C2689 0.950 . S
H2666 C2690 0.950 . S
H2667 C2691 0.935 1_554 S
H2668 C2693 0.951 1_554 S
H2669 C2695 0.950 . S
H2670 C2696 0.950 . S
H2671 C2698 0.950 . S
H2672 C2701 0.950 . S
H2673 C2702 0.950 . S
H2674 C2704 0.950 . S
H2675 C2705 0.950 . S
C2676 H2658 0.951 . S
C2676 C2677 1.366 1_556 S
C2676 C2678 1.388 . S
C2677 C2676 1.366 1_554 S
C2677 C2681 1.385 . S
C2678 H2659 0.951 . S
C2678 C2676 1.388 . S
C2678 C2679 1.366 . S
C2679 C2678 1.366 . S
C2679 C2680 1.414 1_556 S
C2679 C2682 1.499 . S
C2680 H2660 0.950 . S
C2680 C2679 1.414 1_554 S
C2680 C2681 1.374 . S
C2681 H2661 0.950 . S
C2681 C2677 1.385 . S
C2681 C2680 1.374 . S
C2682 C2679 1.499 . S
C2682 C2683 1.373 . S
C2682 C2684 1.389 . S
C2683 H2662 0.950 1_556 S
C2683 C2682 1.373 . S
C2683 C2699 1.377 . S
C2684 C2682 1.389 . S
C2684 C2685 1.524 . S
C2684 C2698 1.377 . S
C2685 C2684 1.524 . S
C2685 C2686 1.428 . S
C2685 C2690 1.363 . S
C2686 H2663 0.918 1_556 S
C2686 C2685 1.428 . S
C2686 C2687 1.334 . S
C2687 H2664 0.950 1_556 S
C2687 C2686 1.334 . S
C2687 C2688 1.287 . S
C2688 C2687 1.287 . S
C2688 C2689 1.524 . S
C2688 H2707 0.913 . S
C2689 H2665 0.950 . S
C2689 C2688 1.524 . S
C2689 C2690 1.415 . S
C2690 H2666 0.950 . S
C2690 C2685 1.363 . S
C2690 C2689 1.415 . S
C2691 H2667 0.935 1_556 S
C2691 C2692 1.366 . S
C2691 C2693 1.388 . S
C2692 C2691 1.366 . S
C2692 C2696 1.385 . S
C2693 H2668 0.951 1_556 S
C2693 C2691 1.388 . S
C2693 C2694 1.366 . S
C2694 C2693 1.366 . S
C2694 C2695 1.414 . S
C2694 C2697 1.499 . S
C2695 H2669 0.950 . S
C2695 C2694 1.414 . S
C2695 C2696 1.374 . S
C2696 H2670 0.950 . S
C2696 C2692 1.385 . S
C2696 C2695 1.374 . S
C2697 C2694 1.499 . S
C2697 C2698 1.373 . S
C2697 C2699 1.389 . S
C2698 H2671 0.950 . S
C2698 C2684 1.377 . S
C2698 C2697 1.373 . S
C2699 C2683 1.377 . S
C2699 C2697 1.389 . S
C2699 C2700 1.524 . S
C2700 C2699 1.524 . S
C2700 C2701 1.397 . S
C2700 C2705 1.363 1_556 S
C2701 H2672 0.950 . S
C2701 C2700 1.397 . S
C2701 C2702 1.334 . S
C2702 H2673 0.950 . S
C2702 C2701 1.334 . S
C2702 C2703 1.287 . S
C2703 C2702 1.287 . S
C2703 C2704 1.524 1_556 S
C2703 H2706 0.999 . S
C2704 H2674 0.950 . S
C2704 C2703 1.524 1_554 S
C2704 C2705 1.415 . S
C2705 H2675 0.950 . S
C2705 C2700 1.363 1_554 S
C2705 C2704 1.415 . S
H2706 C2703 0.999 . S
H2707 C2688 0.913 . S
H2708 C2726 0.951 . S
H2709 C2728 0.951 . S
H2710 C2730 0.950 . S
H2711 C2731 0.956 . S
H2712 C2733 0.950 . S
H2713 C2736 0.950 . S
H2714 C2737 0.950 . S
H2715 C2739 0.950 . S
H2716 C2740 0.950 . S
H2717 C2741 0.951 . S
H2718 C2743 0.951 . S
H2719 C2745 0.950 1_554 S
H2720 C2746 0.950 . S
H2721 C2748 0.950 . S
H2722 C2751 0.950 . S
H2723 C2752 0.950 . S
H2724 C2754 0.950 . S
H2725 C2755 0.950 . S
C2726 H2708 0.951 . S
C2726 C2727 1.366 . S
C2726 C2728 1.388 . S
C2727 C2726 1.366 . S
C2727 C2731 1.376 1_554 S
C2728 H2709 0.951 . S
C2728 C2726 1.388 . S
C2728 C2729 1.380 . S
C2729 C2728 1.380 . S
C2729 C2730 1.406 1_554 S
C2729 C2732 1.496 1_554 S
C2730 H2710 0.950 . S
C2730 C2729 1.406 1_556 S
C2730 C2731 1.376 . S
C2731 H2711 0.956 . S
C2731 C2727 1.376 1_556 S
C2731 C2730 1.376 . S
C2732 C2729 1.496 1_556 S
C2732 C2733 1.373 1_556 S
C2732 C2734 1.389 . S
C2733 H2712 0.950 . S
C2733 C2732 1.373 1_554 S
C2733 C2749 1.377 . S
C2734 C2732 1.389 . S
C2734 C2735 1.524 . S
C2734 C2748 1.377 . S
C2735 C2734 1.524 . S
C2735 C2736 1.397 . S
C2735 C2740 1.363 . S
C2736 H2713 0.950 . S
C2736 C2735 1.397 . S
C2736 C2737 1.334 . S
C2737 H2714 0.950 . S
C2737 C2736 1.334 . S
C2737 C2738 1.287 . S
C2738 C2737 1.287 . S
C2738 C2739 1.524 . S
C2738 H2757 0.913 . S
C2739 H2715 0.950 . S
C2739 C2738 1.524 . S
C2739 C2740 1.415 . S
C2740 H2716 0.950 . S
C2740 C2735 1.363 . S
C2740 C2739 1.415 . S
C2741 H2717 0.951 . S
C2741 C2742 1.366 . S
C2741 C2743 1.388 . S
C2742 C2741 1.366 . S
C2742 C2746 1.385 . S
C2743 H2718 0.951 . S
C2743 C2741 1.388 . S
C2743 C2744 1.366 . S
C2744 C2743 1.366 . S
C2744 C2745 1.414 . S
C2744 C2747 1.499 . S
C2745 H2719 0.950 1_556 S
C2745 C2744 1.414 . S
C2745 C2746 1.374 . S
C2746 H2720 0.950 . S
C2746 C2742 1.385 . S
C2746 C2745 1.374 . S
C2747 C2744 1.499 . S
C2747 C2748 1.373 . S
C2747 C2749 1.389 1_556 S
C2748 H2721 0.950 . S
C2748 C2734 1.377 . S
C2748 C2747 1.373 . S
C2749 C2733 1.377 . S
C2749 C2747 1.389 1_554 S
C2749 C2750 1.524 . S
C2750 C2749 1.524 . S
C2750 C2751 1.397 . S
C2750 C2755 1.363 . S
C2751 H2722 0.950 . S
C2751 C2750 1.397 . S
C2751 C2752 1.334 . S
C2752 H2723 0.950 . S
C2752 C2751 1.334 . S
C2752 C2753 1.287 . S
C2753 C2752 1.287 . S
C2753 C2754 1.524 . S
C2753 H2756 0.999 . S
C2754 H2724 0.950 . S
C2754 C2753 1.524 . S
C2754 C2755 1.415 . S
C2755 H2725 0.950 . S
C2755 C2750 1.363 . S
C2755 C2754 1.415 . S
H2756 C2753 0.999 . S
H2757 C2738 0.913 . S
H2758 C2776 0.951 . S
H2759 C2778 0.951 . S
H2760 C2780 0.950 . S
H2761 C2781 0.950 . S
H2762 C2783 0.950 . S
H2763 C2786 0.950 . S
H2764 C2787 0.950 . S
H2765 C2789 0.950 . S
H2766 C2790 0.950 . S
H2767 C2791 0.951 . S
H2768 C2793 0.951 . S
H2769 C2795 0.950 . S
H2770 C2796 0.950 . S
H2771 C2798 0.950 . S
H2772 C2801 0.950 . S
H2773 C2802 0.950 . S
H2774 C2804 0.950 . S
H2775 C2805 0.950 . S
C2776 H2758 0.951 . S
C2776 C2777 1.366 . S
C2776 C2778 1.388 . S
C2777 C2776 1.366 . S
C2777 C2781 1.385 . S
C2778 H2759 0.951 . S
C2778 C2776 1.388 . S
C2778 C2779 1.366 . S
C2779 C2778 1.366 . S
C2779 C2780 1.414 . S
C2779 C2782 1.499 . S
C2780 H2760 0.950 . S
C2780 C2779 1.414 . S
C2780 C2781 1.374 . S
C2781 H2761 0.950 . S
C2781 C2777 1.385 . S
C2781 C2780 1.374 . S
C2782 C2779 1.499 . S
C2782 C2783 1.373 . S
C2782 C2784 1.389 . S
C2783 H2762 0.950 . S
C2783 C2782 1.373 . S
C2783 C2799 1.377 . S
C2784 C2782 1.389 . S
C2784 C2785 1.524 1_554 S
C2784 C2798 1.377 . S
C2785 C2784 1.524 1_556 S
C2785 C2786 1.397 . S
C2785 C2790 1.363 . S
C2786 H2763 0.950 . S
C2786 C2785 1.397 . S
C2786 C2787 1.334 . S
C2787 H2764 0.950 . S
C2787 C2786 1.334 . S
C2787 C2788 1.287 . S
C2788 C2787 1.287 . S
C2788 C2789 1.524 . S
C2788 H2807 0.913 . S
C2789 H2765 0.950 . S
C2789 C2788 1.524 . S
C2789 C2790 1.415 . S
C2790 H2766 0.950 . S
C2790 C2785 1.363 . S
C2790 C2789 1.415 . S
C2791 H2767 0.951 . S
C2791 C2792 1.366 . S
C2791 C2793 1.388 . S
C2792 C2791 1.366 . S
C2792 C2796 1.385 . S
C2793 H2768 0.951 . S
C2793 C2791 1.388 . S
C2793 C2794 1.366 . S
C2794 C2793 1.366 . S
C2794 C2795 1.414 . S
C2794 C2797 1.499 . S
C2795 H2769 0.950 . S
C2795 C2794 1.414 . S
C2795 C2796 1.374 . S
C2796 H2770 0.950 . S
C2796 C2792 1.385 . S
C2796 C2795 1.374 . S
C2797 C2794 1.499 . S
C2797 C2798 1.373 . S
C2797 C2799 1.389 . S
C2798 H2771 0.950 . S
C2798 C2784 1.377 . S
C2798 C2797 1.373 . S
C2799 C2783 1.377 . S
C2799 C2797 1.389 . S
C2799 C2800 1.524 . S
C2800 C2799 1.524 . S
C2800 C2801 1.397 . S
C2800 C2805 1.363 . S
C2801 H2772 0.950 . S
C2801 C2800 1.397 . S
C2801 C2802 1.334 . S
C2802 H2773 0.950 . S
C2802 C2801 1.334 . S
C2802 C2803 1.287 . S
C2803 C2802 1.287 . S
C2803 C2804 1.524 . S
C2803 H2806 0.999 . S
C2804 H2774 0.950 . S
C2804 C2803 1.524 . S
C2804 C2805 1.415 . S
C2805 H2775 0.950 . S
C2805 C2800 1.363 . S
C2805 C2804 1.415 . S
H2806 C2803 0.999 . S
H2807 C2788 0.913 . S
C427 C13 1.577 . S
C442 C255 1.594 . S
C492 N272 1.594 1_455 S
C477 C1 1.719 . S
C542 N174 1.513 . S
C527 C27 1.519 . S
C577 C15 1.173 . S
C592 C199 1.162 . S
C627 C28 1.657 . S
C642 C394 1.649 1_554 S
C677 C55 1.339 . S
C692 N354 1.324 . S
C742 N302 1.509 . S
C727 C40 1.651 . S
C777 C43 1.608 . S
C792 C328 1.604 . S
C842 C214 1.436 1_455 S
C827 C56 1.439 . S
C892 C259 1.696 1_455 S
C877 C83 1.701 . S
C927 C96 1.579 . S
C942 C238 1.588 1_655 S
C977 C71 1.808 . S
C992 C345 1.782 . S
C1042 C375 1.550 . S
C1027 C99 1.577 . S
C1092 N392 1.594 . S
C1077 C111 1.718 . S
C1127 C113 1.519 . S
C1142 N324 1.513 . S
C1192 C289 1.162 . S
C1177 C125 1.167 . S
C1227 C139 1.658 . S
C1242 C274 1.649 . S
C1277 C153 1.338 . S
C1292 N234 1.324 . S
C1342 N212 1.510 . S
C1327 C127 1.651 . S
C1377 C141 1.608 . S
C1392 C178 1.604 1_556 S
C1442 C304 1.436 . S
C1427 C84 1.439 . S
C1492 C379 1.695 . S
C1477 C154 1.700 . S
C1527 C68 1.579 . S
C1542 C358 1.588 . S
C1577 C166 1.807 . S
C1592 C195 1.782 1_655 S
C1642 C169 1.157 . S
C1627 C0 1.174 . S
C1677 C12 0.886 . S
C1692 N204 0.883 . S
C1742 N242 1.044 . S
C1727 C14 1.109 . S
C1792 C285 1.668 . S
C1777 C26 1.659 . S
C1827 C41 1.397 . S
C1842 C184 1.385 . S
C1877 C42 1.590 . S
C1892 C225 1.571 . S
C1942 C229 1.133 . S
C1927 C29 1.152 . S
C1977 C54 1.411 . S
C1992 C268 1.394 . S
C2027 C69 0.905 . S
C2042 N182 0.880 . S
C2092 C244 1.771 . S
C2077 C70 1.772 . S
C2127 C85 1.137 . S
C2142 N264 1.129 . S
C2177 C82 1.303 . S
C2192 C298 1.288 . S
C2242 C319 1.156 . S
C2227 C110 1.174 . S
C2277 C98 0.885 . S
C2292 N294 0.882 . S
C2327 C124 1.109 . S
C2342 N362 1.043 . S
C2377 C112 1.659 . S
C2392 C405 1.668 . S
C2427 C126 1.397 . S
C2442 C334 1.385 . S
C2492 C315 1.571 . S
C2477 C140 1.590 . S
C2527 C138 1.152 . S
C2542 C349 1.133 . S
C2592 C388 1.393 . S
C2577 C152 1.412 . S
C2642 N332 0.881 . S
C2627 C97 0.904 . S
C2692 C364 1.771 . S
C2677 C167 1.772 . S
C2742 N384 1.129 . S
C2727 C57 1.136 . S
C2777 C155 1.303 . S
C2792 C208 1.288 . S
