# Generated by pormake.
# Topology gar, (4,6)-cn, num edge types: 1
# Building blocks:
#     Node 0, Type 0, BuildingBlock: NAHDIM_clean_sbu_0, # of connection points: 4
#     Node 1, Type 0, BuildingBlock: NAHDIM_clean_sbu_0, # of connection points: 4
#     Node 2, Type 0, BuildingBlock: NAHDIM_clean_sbu_0, # of connection points: 4
#     Node 3, Type 0, BuildingBlock: NAHDIM_clean_sbu_0, # of connection points: 4
#     Node 4, Type 0, BuildingBlock: NAHDIM_clean_sbu_0, # of connection points: 4
#     Node 5, Type 0, BuildingBlock: NAHDIM_clean_sbu_0, # of connection points: 4
#     Node 6, Type 0, BuildingBlock: NAHDIM_clean_sbu_0, # of connection points: 4
#     Node 7, Type 0, BuildingBlock: NAHDIM_clean_sbu_0, # of connection points: 4
#     Node 8, Type 0, BuildingBlock: NAHDIM_clean_sbu_0, # of connection points: 4
#     Node 9, Type 0, BuildingBlock: NAHDIM_clean_sbu_0, # of connection points: 4
#     Node 10, Type 0, BuildingBlock: NAHDIM_clean_sbu_0, # of connection points: 4
#     Node 11, Type 0, BuildingBlock: NAHDIM_clean_sbu_0, # of connection points: 4
#     Node 12, Type 0, BuildingBlock: NAHDIM_clean_sbu_0, # of connection points: 4
#     Node 13, Type 0, BuildingBlock: NAHDIM_clean_sbu_0, # of connection points: 4
#     Node 14, Type 0, BuildingBlock: NAHDIM_clean_sbu_0, # of connection points: 4
#     Node 15, Type 0, BuildingBlock: NAHDIM_clean_sbu_0, # of connection points: 4
#     Node 16, Type 0, BuildingBlock: NAHDIM_clean_sbu_0, # of connection points: 4
#     Node 17, Type 0, BuildingBlock: NAHDIM_clean_sbu_0, # of connection points: 4
#     Node 18, Type 0, BuildingBlock: NAHDIM_clean_sbu_0, # of connection points: 4
#     Node 19, Type 0, BuildingBlock: NAHDIM_clean_sbu_0, # of connection points: 4
#     Node 20, Type 0, BuildingBlock: NAHDIM_clean_sbu_0, # of connection points: 4
#     Node 21, Type 0, BuildingBlock: NAHDIM_clean_sbu_0, # of connection points: 4
#     Node 22, Type 0, BuildingBlock: NAHDIM_clean_sbu_0, # of connection points: 4
#     Node 23, Type 0, BuildingBlock: NAHDIM_clean_sbu_0, # of connection points: 4
#     Node 24, Type 1, BuildingBlock: BETFEN_clean_sbu_0, # of connection points: 6
#     Node 25, Type 1, BuildingBlock: BETFEN_clean_sbu_0, # of connection points: 6
#     Node 26, Type 1, BuildingBlock: BETFEN_clean_sbu_0, # of connection points: 6
#     Node 27, Type 1, BuildingBlock: BETFEN_clean_sbu_0, # of connection points: 6
#     Node 28, Type 1, BuildingBlock: BETFEN_clean_sbu_0, # of connection points: 6
#     Node 29, Type 1, BuildingBlock: BETFEN_clean_sbu_0, # of connection points: 6
#     Node 30, Type 1, BuildingBlock: BETFEN_clean_sbu_0, # of connection points: 6
#     Node 31, Type 1, BuildingBlock: BETFEN_clean_sbu_0, # of connection points: 6
#     Node 32, Type 1, BuildingBlock: BETFEN_clean_sbu_0, # of connection points: 6
#     Node 33, Type 1, BuildingBlock: BETFEN_clean_sbu_0, # of connection points: 6
#     Node 34, Type 1, BuildingBlock: BETFEN_clean_sbu_0, # of connection points: 6
#     Node 35, Type 1, BuildingBlock: BETFEN_clean_sbu_0, # of connection points: 6
#     Node 36, Type 1, BuildingBlock: BETFEN_clean_sbu_0, # of connection points: 6
#     Node 37, Type 1, BuildingBlock: BETFEN_clean_sbu_0, # of connection points: 6
#     Node 38, Type 1, BuildingBlock: BETFEN_clean_sbu_0, # of connection points: 6
#     Node 39, Type 1, BuildingBlock: BETFEN_clean_sbu_0, # of connection points: 6
#     Edge 40, Type (0, 1), BuildingBlock: XIVTED_clean_linker_0, # of connection points: 2
#     Edge 41, Type (0, 1), BuildingBlock: XIVTED_clean_linker_0, # of connection points: 2
#     Edge 42, Type (0, 1), BuildingBlock: XIVTED_clean_linker_0, # of connection points: 2
#     Edge 43, Type (0, 1), BuildingBlock: XIVTED_clean_linker_0, # of connection points: 2
#     Edge 44, Type (0, 1), BuildingBlock: XIVTED_clean_linker_0, # of connection points: 2
#     Edge 45, Type (0, 1), BuildingBlock: XIVTED_clean_linker_0, # of connection points: 2
#     Edge 46, Type (0, 1), BuildingBlock: XIVTED_clean_linker_0, # of connection points: 2
#     Edge 47, Type (0, 1), BuildingBlock: XIVTED_clean_linker_0, # of connection points: 2
#     Edge 48, Type (0, 1), BuildingBlock: XIVTED_clean_linker_0, # of connection points: 2
#     Edge 49, Type (0, 1), BuildingBlock: XIVTED_clean_linker_0, # of connection points: 2
#     Edge 50, Type (0, 1), BuildingBlock: XIVTED_clean_linker_0, # of connection points: 2
#     Edge 51, Type (0, 1), BuildingBlock: XIVTED_clean_linker_0, # of connection points: 2
#     Edge 52, Type (0, 1), BuildingBlock: XIVTED_clean_linker_0, # of connection points: 2
#     Edge 53, Type (0, 1), BuildingBlock: XIVTED_clean_linker_0, # of connection points: 2
#     Edge 54, Type (0, 1), BuildingBlock: XIVTED_clean_linker_0, # of connection points: 2
#     Edge 55, Type (0, 1), BuildingBlock: XIVTED_clean_linker_0, # of connection points: 2
#     Edge 56, Type (0, 1), BuildingBlock: XIVTED_clean_linker_0, # of connection points: 2
#     Edge 57, Type (0, 1), BuildingBlock: XIVTED_clean_linker_0, # of connection points: 2
#     Edge 58, Type (0, 1), BuildingBlock: XIVTED_clean_linker_0, # of connection points: 2
#     Edge 59, Type (0, 1), BuildingBlock: XIVTED_clean_linker_0, # of connection points: 2
#     Edge 60, Type (0, 1), BuildingBlock: XIVTED_clean_linker_0, # of connection points: 2
#     Edge 61, Type (0, 1), BuildingBlock: XIVTED_clean_linker_0, # of connection points: 2
#     Edge 62, Type (0, 1), BuildingBlock: XIVTED_clean_linker_0, # of connection points: 2
#     Edge 63, Type (0, 1), BuildingBlock: XIVTED_clean_linker_0, # of connection points: 2
#     Edge 64, Type (0, 1), BuildingBlock: XIVTED_clean_linker_0, # of connection points: 2
#     Edge 65, Type (0, 1), BuildingBlock: XIVTED_clean_linker_0, # of connection points: 2
#     Edge 66, Type (0, 1), BuildingBlock: XIVTED_clean_linker_0, # of connection points: 2
#     Edge 67, Type (0, 1), BuildingBlock: XIVTED_clean_linker_0, # of connection points: 2
#     Edge 68, Type (0, 1), BuildingBlock: XIVTED_clean_linker_0, # of connection points: 2
#     Edge 69, Type (0, 1), BuildingBlock: XIVTED_clean_linker_0, # of connection points: 2
#     Edge 70, Type (0, 1), BuildingBlock: XIVTED_clean_linker_0, # of connection points: 2
#     Edge 71, Type (0, 1), BuildingBlock: XIVTED_clean_linker_0, # of connection points: 2
#     Edge 72, Type (0, 1), BuildingBlock: XIVTED_clean_linker_0, # of connection points: 2
#     Edge 73, Type (0, 1), BuildingBlock: XIVTED_clean_linker_0, # of connection points: 2
#     Edge 74, Type (0, 1), BuildingBlock: XIVTED_clean_linker_0, # of connection points: 2
#     Edge 75, Type (0, 1), BuildingBlock: XIVTED_clean_linker_0, # of connection points: 2
#     Edge 76, Type (0, 1), BuildingBlock: XIVTED_clean_linker_0, # of connection points: 2
#     Edge 77, Type (0, 1), BuildingBlock: XIVTED_clean_linker_0, # of connection points: 2
#     Edge 78, Type (0, 1), BuildingBlock: XIVTED_clean_linker_0, # of connection points: 2
#     Edge 79, Type (0, 1), BuildingBlock: XIVTED_clean_linker_0, # of connection points: 2
#     Edge 80, Type (0, 1), BuildingBlock: XIVTED_clean_linker_0, # of connection points: 2
#     Edge 81, Type (0, 1), BuildingBlock: XIVTED_clean_linker_0, # of connection points: 2
#     Edge 82, Type (0, 1), BuildingBlock: XIVTED_clean_linker_0, # of connection points: 2
#     Edge 83, Type (0, 1), BuildingBlock: XIVTED_clean_linker_0, # of connection points: 2
#     Edge 84, Type (0, 1), BuildingBlock: XIVTED_clean_linker_0, # of connection points: 2
#     Edge 85, Type (0, 1), BuildingBlock: XIVTED_clean_linker_0, # of connection points: 2
#     Edge 86, Type (0, 1), BuildingBlock: XIVTED_clean_linker_0, # of connection points: 2
#     Edge 87, Type (0, 1), BuildingBlock: XIVTED_clean_linker_0, # of connection points: 2
#     Edge 88, Type (0, 1), BuildingBlock: XIVTED_clean_linker_0, # of connection points: 2
#     Edge 89, Type (0, 1), BuildingBlock: XIVTED_clean_linker_0, # of connection points: 2
#     Edge 90, Type (0, 1), BuildingBlock: XIVTED_clean_linker_0, # of connection points: 2
#     Edge 91, Type (0, 1), BuildingBlock: XIVTED_clean_linker_0, # of connection points: 2
#     Edge 92, Type (0, 1), BuildingBlock: XIVTED_clean_linker_0, # of connection points: 2
#     Edge 93, Type (0, 1), BuildingBlock: XIVTED_clean_linker_0, # of connection points: 2
#     Edge 94, Type (0, 1), BuildingBlock: XIVTED_clean_linker_0, # of connection points: 2
#     Edge 95, Type (0, 1), BuildingBlock: XIVTED_clean_linker_0, # of connection points: 2
#     Edge 96, Type (0, 1), BuildingBlock: XIVTED_clean_linker_0, # of connection points: 2
#     Edge 97, Type (0, 1), BuildingBlock: XIVTED_clean_linker_0, # of connection points: 2
#     Edge 98, Type (0, 1), BuildingBlock: XIVTED_clean_linker_0, # of connection points: 2
#     Edge 99, Type (0, 1), BuildingBlock: XIVTED_clean_linker_0, # of connection points: 2
#     Edge 100, Type (0, 1), BuildingBlock: XIVTED_clean_linker_0, # of connection points: 2
#     Edge 101, Type (0, 1), BuildingBlock: XIVTED_clean_linker_0, # of connection points: 2
#     Edge 102, Type (0, 1), BuildingBlock: XIVTED_clean_linker_0, # of connection points: 2
#     Edge 103, Type (0, 1), BuildingBlock: XIVTED_clean_linker_0, # of connection points: 2
#     Edge 104, Type (0, 1), BuildingBlock: XIVTED_clean_linker_0, # of connection points: 2
#     Edge 105, Type (0, 1), BuildingBlock: XIVTED_clean_linker_0, # of connection points: 2
#     Edge 106, Type (0, 1), BuildingBlock: XIVTED_clean_linker_0, # of connection points: 2
#     Edge 107, Type (0, 1), BuildingBlock: XIVTED_clean_linker_0, # of connection points: 2
#     Edge 108, Type (0, 1), BuildingBlock: XIVTED_clean_linker_0, # of connection points: 2
#     Edge 109, Type (0, 1), BuildingBlock: XIVTED_clean_linker_0, # of connection points: 2
#     Edge 110, Type (0, 1), BuildingBlock: XIVTED_clean_linker_0, # of connection points: 2
#     Edge 111, Type (0, 1), BuildingBlock: XIVTED_clean_linker_0, # of connection points: 2
#     Edge 112, Type (0, 1), BuildingBlock: XIVTED_clean_linker_0, # of connection points: 2
#     Edge 113, Type (0, 1), BuildingBlock: XIVTED_clean_linker_0, # of connection points: 2
#     Edge 114, Type (0, 1), BuildingBlock: XIVTED_clean_linker_0, # of connection points: 2
#     Edge 115, Type (0, 1), BuildingBlock: XIVTED_clean_linker_0, # of connection points: 2
#     Edge 116, Type (0, 1), BuildingBlock: XIVTED_clean_linker_0, # of connection points: 2
#     Edge 117, Type (0, 1), BuildingBlock: XIVTED_clean_linker_0, # of connection points: 2
#     Edge 118, Type (0, 1), BuildingBlock: XIVTED_clean_linker_0, # of connection points: 2
#     Edge 119, Type (0, 1), BuildingBlock: XIVTED_clean_linker_0, # of connection points: 2
#     Edge 120, Type (0, 1), BuildingBlock: XIVTED_clean_linker_0, # of connection points: 2
#     Edge 121, Type (0, 1), BuildingBlock: XIVTED_clean_linker_0, # of connection points: 2
#     Edge 122, Type (0, 1), BuildingBlock: XIVTED_clean_linker_0, # of connection points: 2
#     Edge 123, Type (0, 1), BuildingBlock: XIVTED_clean_linker_0, # of connection points: 2
#     Edge 124, Type (0, 1), BuildingBlock: XIVTED_clean_linker_0, # of connection points: 2
#     Edge 125, Type (0, 1), BuildingBlock: XIVTED_clean_linker_0, # of connection points: 2
#     Edge 126, Type (0, 1), BuildingBlock: XIVTED_clean_linker_0, # of connection points: 2
#     Edge 127, Type (0, 1), BuildingBlock: XIVTED_clean_linker_0, # of connection points: 2
#     Edge 128, Type (0, 1), BuildingBlock: XIVTED_clean_linker_0, # of connection points: 2
#     Edge 129, Type (0, 1), BuildingBlock: XIVTED_clean_linker_0, # of connection points: 2
#     Edge 130, Type (0, 1), BuildingBlock: XIVTED_clean_linker_0, # of connection points: 2
#     Edge 131, Type (0, 1), BuildingBlock: XIVTED_clean_linker_0, # of connection points: 2
#     Edge 132, Type (0, 1), BuildingBlock: XIVTED_clean_linker_0, # of connection points: 2
#     Edge 133, Type (0, 1), BuildingBlock: XIVTED_clean_linker_0, # of connection points: 2
#     Edge 134, Type (0, 1), BuildingBlock: XIVTED_clean_linker_0, # of connection points: 2
#     Edge 135, Type (0, 1), BuildingBlock: XIVTED_clean_linker_0, # of connection points: 2
# Relax obj value: 0.214
# Max RMSD: 0.316
# Mean RMSD: 0.185
data_MOF--net-gar--node1-NAHDIM_clean_sbu_0--node2-BETFEN_clean_sbu_0--edge1-XIVTED_clean_linker_0
_symmetry_space_group_name_H-M    P1
_symmetry_Int_Tables_number       1
_symmetry_cell_setting            triclinic
loop_
_symmetry_equiv_pos_as_xyz
'x, y, z'
_cell_length_a     65.097744
_cell_length_b     57.0437
_cell_length_c     56.003018
_cell_angle_alpha  94.707868
_cell_angle_beta   99.509299
_cell_angle_gamma 103.37516
loop_
_atom_site_label
_atom_site_type_symbol
_atom_site_fract_x
_atom_site_fract_y
_atom_site_fract_z
_atom_type_partial_charge
C0 C 0.07092 0.33657 0.39441 0.0
O1 O 0.07162 0.35894 0.40295 0.0
O2 O 0.02893 0.29212 0.43737 0.0
Zn3 Zn 0.03334 0.32232 0.41898 0.0
O4 O 0.04242 0.35491 0.44179 0.0
C5 C 0.99032 0.30393 0.38637 0.0
O6 O 0.99293 0.28216 0.38952 0.0
O7 O 0.05631 0.31919 0.39871 0.0
C8 C 0.03875 0.37383 0.43294 0.0
O9 O 0.02985 0.37172 0.40978 0.0
C10 C 0.04322 0.28957 0.45481 0.0
O11 O 0.06051 0.30747 0.46227 0.0
O12 O 1.00513 0.32247 0.39659 0.0
C13 C 0.03188 0.83926 0.65132 0.0
O14 O 0.02778 0.83729 0.62736 0.0
O15 O 0.0671 0.8071 0.62002 0.0
Zn16 Zn 0.07428 0.84013 0.64175 0.0
O17 O 0.0752 0.86925 0.62191 0.0
C18 C 0.12098 0.8583 0.66414 0.0
O19 O 0.1214 0.87435 0.64859 0.0
O20 O 0.05095 0.8403 0.66214 0.0
C21 C 0.07754 0.89018 0.63357 0.0
O22 O 0.07998 0.89216 0.65747 0.0
C23 C 0.07102 0.78882 0.62993 0.0
O24 O 0.07909 0.79188 0.65341 0.0
O25 O 0.10325 0.84319 0.66448 0.0
C26 C 0.5733 0.82823 0.90955 0.0
O27 O 0.57814 0.83421 0.93332 0.0
O28 O 0.52731 0.7915 0.9364 0.0
Zn29 Zn 0.53028 0.82291 0.9196 0.0
O30 O 0.53859 0.8549 0.94328 0.0
C31 C 0.48591 0.80481 0.88898 0.0
O32 O 0.48728 0.78308 0.89404 0.0
O33 O 0.5536 0.82307 0.89907 0.0
C34 C 0.53719 0.8741 0.93355 0.0
O35 O 0.5312 0.87212 0.90973 0.0
C36 C 0.53861 0.78995 0.95684 0.0
O37 O 0.55206 0.80972 0.96906 0.0
O38 O 0.50176 0.82297 0.89741 0.0
C39 C 0.53668 0.34595 0.15236 0.0
O40 O 0.53426 0.35048 0.12957 0.0
O41 O 0.57236 0.30753 0.12209 0.0
Zn42 Zn 0.57774 0.34139 0.14189 0.0
O43 O 0.57815 0.36987 0.12125 0.0
C44 C 0.62135 0.33834 0.15674 0.0
O45 O 0.61698 0.32767 0.13415 0.0
O46 O 0.55416 0.34119 0.16204 0.0
C47 C 0.58391 0.39117 0.13306 0.0
O48 O 0.59001 0.39336 0.15688 0.0
C49 C 0.55516 0.29509 0.10806 0.0
O50 O 0.53847 0.30447 0.10409 0.0
O51 O 0.607 0.34686 0.16478 0.0
C52 C 0.04615 0.85532 0.15514 0.0
O53 O 0.04398 0.86073 0.13266 0.0
O54 O 0.08393 0.82024 0.1257 0.0
Zn55 Zn 0.0878 0.8536 0.14503 0.0
O56 O 0.0847 0.87985 0.12246 0.0
C57 C 0.1238 0.84336 0.17587 0.0
O58 O 0.11058 0.82164 0.17054 0.0
O59 O 0.06392 0.85139 0.16506 0.0
C60 C 0.09884 0.89922 0.12158 0.0
O61 O 0.11812 0.90289 0.13503 0.0
C62 C 0.06602 0.80581 0.1155 0.0
O63 O 0.04824 0.81296 0.11545 0.0
O64 O 0.1176 0.86126 0.16757 0.0
C65 C 0.55922 0.81572 0.40245 0.0
O66 O 0.56239 0.81855 0.42642 0.0
O67 O 0.51949 0.78392 0.43275 0.0
Zn68 Zn 0.51658 0.81043 0.41062 0.0
O69 O 0.52256 0.84387 0.43033 0.0
C70 C 0.47195 0.81195 0.39537 0.0
O71 O 0.4756 0.82327 0.41762 0.0
O72 O 0.54009 0.81197 0.39051 0.0
C73 C 0.51949 0.86135 0.41859 0.0
O74 O 0.51286 0.85697 0.39482 0.0
C75 C 0.50486 0.76506 0.43384 0.0
O76 O 0.48551 0.76228 0.42088 0.0
O77 O 0.48682 0.80367 0.38825 0.0
C78 C 0.53922 0.34284 0.65447 0.0
O79 O 0.53425 0.33438 0.63117 0.0
O80 O 0.57616 0.31579 0.62423 0.0
Zn81 Zn 0.58265 0.3493 0.64448 0.0
O82 O 0.5835 0.37712 0.623 0.0
C83 C 0.62566 0.34325 0.66135 0.0
O84 O 0.62078 0.32946 0.64024 0.0
O85 O 0.55901 0.35012 0.66457 0.0
C86 C 0.57031 0.37526 0.60297 0.0
O87 O 0.55652 0.35428 0.5948 0.0
C88 C 0.56701 0.29678 0.63257 0.0
O89 O 0.56092 0.29907 0.65367 0.0
O90 O 0.61199 0.35431 0.66741 0.0
C91 C 0.05147 0.33315 0.89001 0.0
O92 O 0.05268 0.3529 0.90452 0.0
O93 O 0.0121 0.28713 0.93003 0.0
Zn94 Zn 0.01186 0.31488 0.9087 0.0
O95 O 0.01742 0.34796 0.92893 0.0
C96 C 0.97259 0.29519 0.86904 0.0
O97 O 0.98163 0.27791 0.86264 0.0
O98 O 0.03523 0.31516 0.88808 0.0
C99 C 0.03095 0.35727 0.94843 0.0
O100 O 0.04369 0.34459 0.95861 0.0
C101 C 0.03028 0.28342 0.93879 0.0
O102 O 0.04775 0.29798 0.93453 0.0
O103 O 0.98233 0.31111 0.8871 0.0
C104 C 0.43682 0.20773 0.28863 0.0
O105 O 0.4455 0.19884 0.27152 0.0
O106 O 0.48989 0.20145 0.29496 0.0
Zn107 Zn 0.46851 0.1906 0.31621 0.0
O108 O 0.48269 0.19276 0.35129 0.0
C109 C 0.4649 0.1393 0.30777 0.0
O110 O 0.48563 0.14592 0.31679 0.0
O111 O 0.44479 0.20749 0.31089 0.0
C112 C 0.47193 0.17973 0.36454 0.0
O113 O 0.45167 0.16882 0.35569 0.0
C114 C 0.50986 0.20281 0.30088 0.0
O115 O 0.51764 0.19855 0.32282 0.0
O116 O 0.45446 0.15546 0.30521 0.0
C117 C 0.30997 0.1947 0.52912 0.0
O118 O 0.30332 0.19748 0.54984 0.0
O119 O 0.28477 0.24023 0.54642 0.0
Zn120 Zn 0.27775 0.22053 0.51269 0.0
O121 O 0.27836 0.24264 0.48578 0.0
C122 C 0.23079 0.20061 0.50159 0.0
O123 O 0.23079 0.22155 0.49343 0.0
O124 O 0.3011 0.20265 0.51057 0.0
C125 C 0.27627 0.23308 0.46388 0.0
O126 O 0.27248 0.20934 0.45944 0.0
C127 C 0.27007 0.24625 0.55608 0.0
O128 O 0.2504 0.241 0.54337 0.0
O129 O 0.24871 0.19593 0.50954 0.0
C130 C 0.22573 0.06994 0.8983 0.0
O131 O 0.20529 0.06221 0.89929 0.0
O132 O 0.19599 0.09506 0.84726 0.0
Zn133 Zn 0.21081 0.10957 0.88152 0.0
O134 O 0.18868 0.10587 0.90297 0.0
C135 C 0.21748 0.1551 0.86304 0.0
O136 O 0.19882 0.14392 0.84935 0.0
O137 O 0.23239 0.0909 0.89217 0.0
C138 C 0.17119 0.1118 0.89614 0.0
O139 O 0.16881 0.12256 0.87639 0.0
C140 C 0.17843 0.07874 0.84129 0.0
O141 O 0.16903 0.06889 0.85835 0.0
O142 O 0.2258 0.14441 0.87973 0.0
C143 C 0.2928 0.98041 0.05031 0.0
O144 O 0.30727 0.98427 0.07052 0.0
O145 O 0.31931 0.93137 0.06626 0.0
Zn146 Zn 0.3175 0.94725 0.03471 0.0
O147 O 0.31086 0.92307 0.00368 0.0
C148 C 0.36056 0.97999 0.05353 0.0
O149 O 0.3566 0.97542 0.07516 0.0
O150 O 0.29406 0.96556 0.0327 0.0
C151 C 0.31442 0.93229 0.98431 0.0
O152 O 0.32172 0.95595 0.98576 0.0
C153 C 0.30698 0.91123 0.06877 0.0
O154 O 0.29243 0.89927 0.04996 0.0
O155 O 0.34632 0.97051 0.03466 0.0
C156 C 0.28804 0.46138 0.05949 0.0
O157 O 0.28471 0.43902 0.06495 0.0
O158 O 0.32607 0.42936 0.08087 0.0
Zn159 Zn 0.32939 0.45259 0.05494 0.0
O160 O 0.32624 0.43409 0.02124 0.0
C161 C 0.37462 0.46768 0.05587 0.0
O162 O 0.37075 0.44442 0.04813 0.0
O163 O 0.30618 0.4714 0.05447 0.0
C164 C 0.30876 0.42645 0.00578 0.0
O165 O 0.29076 0.42937 0.01178 0.0
C166 C 0.33508 0.43586 0.10317 0.0
O167 O 0.3479 0.45773 0.10949 0.0
O168 O 0.35923 0.476 0.06139 0.0
C169 C 0.82966 0.20617 0.01385 0.0
O170 O 0.83387 0.22763 0.00623 0.0
O171 O 0.79479 0.23876 0.05388 0.0
Zn172 Zn 0.78988 0.21907 0.02014 0.0
O173 O 0.79163 0.23995 0.9919 0.0
C174 C 0.74525 0.20573 0.02237 0.0
O175 O 0.75046 0.22863 0.03188 0.0
O176 O 0.81181 0.19855 0.02062 0.0
C177 C 0.78353 0.22911 0.9704 0.0
O178 O 0.77452 0.20569 0.96778 0.0
C179 C 0.81244 0.25224 0.06603 0.0
O180 O 0.82974 0.25544 0.05626 0.0
O181 O 0.75964 0.1968 0.01502 0.0
C182 C 0.17975 0.46045 0.23777 0.0
O183 O 0.18473 0.48125 0.22897 0.0
O184 O 0.12913 0.47948 0.20539 0.0
Zn185 Zn 0.14172 0.47551 0.2395 0.0
O186 O 0.11895 0.46706 0.25959 0.0
C187 C 0.15553 0.52451 0.26617 0.0
O188 O 0.13645 0.5201 0.27217 0.0
O189 O 0.16086 0.45275 0.24181 0.0
C190 C 0.12287 0.45905 0.27991 0.0
O191 O 0.14179 0.45481 0.28705 0.0
C192 C 0.1091 0.47278 0.19672 0.0
O193 O 0.09621 0.4599 0.20921 0.0
O194 O 0.16065 0.50817 0.25334 0.0
C195 C 0.7821 0.95807 0.54977 0.0
O196 O 0.77734 0.93421 0.54717 0.0
O197 O 0.82444 0.93184 0.5822 0.0
Zn198 Zn 0.82497 0.95107 0.55277 0.0
O199 O 0.81852 0.92981 0.51965 0.0
C200 C 0.87175 0.97013 0.56502 0.0
O201 O 0.87076 0.94914 0.57345 0.0
O202 O 0.80173 0.96968 0.55248 0.0
C203 C 0.83354 0.9252 0.50951 0.0
O204 O 0.85345 0.93255 0.52148 0.0
C205 C 0.81481 0.90956 0.58151 0.0
O206 O 0.80509 0.89697 0.56032 0.0
O207 O 0.8543 0.97532 0.55603 0.0
C208 C 0.89644 0.09339 0.17156 0.0
O209 O 0.91704 0.10191 0.17178 0.0
O210 O 0.93264 0.05767 0.16212 0.0
Zn211 Zn 0.912 0.0534 0.18508 0.0
O212 O 0.92891 0.06809 0.21814 0.0
C213 C 0.87914 0.00821 0.17915 0.0
O214 O 0.86762 0.01945 0.16481 0.0
O215 O 0.88981 0.07179 0.17611 0.0
C216 C 0.91999 0.07249 0.23593 0.0
O217 O 0.89893 0.06825 0.23241 0.0
C218 C 0.95169 0.05625 0.17006 0.0
O219 O 0.95621 0.049 0.19154 0.0
O220 O 0.89861 0.01873 0.18826 0.0
C221 C 0.31603 0.68422 0.50426 0.0
O222 O 0.30141 0.68226 0.48449 0.0
O223 O 0.29683 0.73627 0.55687 0.0
Zn224 Zn 0.29231 0.71689 0.5231 0.0
O225 O 0.29355 0.73867 0.49553 0.0
C226 C 0.24785 0.70168 0.52554 0.0
O227 O 0.2525 0.72446 0.53532 0.0
O228 O 0.31535 0.69787 0.52313 0.0
C229 C 0.28068 0.73128 0.47512 0.0
O230 O 0.26665 0.71017 0.47259 0.0
C231 C 0.31394 0.7515 0.56805 0.0
O232 O 0.33064 0.75639 0.55728 0.0
O233 O 0.26256 0.69348 0.51802 0.0
C234 C 0.39943 0.59107 0.71261 0.0
O235 O 0.41863 0.59615 0.72649 0.0
O236 O 0.42481 0.55136 0.66693 0.0
Zn237 Zn 0.41182 0.5484 0.69669 0.0
O238 O 0.43628 0.55759 0.7251 0.0
C239 C 0.37526 0.5071 0.6911 0.0
O240 O 0.36516 0.52061 0.67807 0.0
O241 O 0.39286 0.57134 0.69825 0.0
C242 C 0.452 0.54782 0.72627 0.0
O243 O 0.45201 0.5311 0.70868 0.0
C244 C 0.43592 0.57255 0.66566 0.0
O245 O 0.43658 0.59034 0.68243 0.0
O246 O 0.3953 0.51483 0.69937 0.0
C247 C 0.65829 0.93112 0.74455 0.0
O248 O 0.64126 0.92452 0.75449 0.0
O249 O 0.61957 0.96079 0.68954 0.0
Zn250 Zn 0.63613 0.96509 0.7237 0.0
O251 O 0.61784 0.96211 0.74944 0.0
C252 C 0.64247 0.0161 0.72809 0.0
O253 O 0.62136 0.00988 0.72439 0.0
O254 O 0.6584 0.94617 0.72907 0.0
C255 C 0.62834 0.97049 0.77083 0.0
O256 O 0.64935 0.97846 0.7741 0.0
C257 C 0.59961 0.95982 0.68534 0.0
O258 O 0.58879 0.95649 0.70313 0.0
O259 O 0.65268 0.99965 0.72874 0.0
C260 C 0.8249 0.71296 0.01722 0.0
O261 O 0.83058 0.73623 0.02543 0.0
O262 O 0.79011 0.74315 0.04434 0.0
Zn263 Zn 0.78247 0.72189 0.01128 0.0
O264 O 0.78225 0.74116 0.98197 0.0
C265 C 0.73548 0.70293 1.00157 0.0
O266 O 0.73568 0.72333 0.99217 0.0
O267 O 0.80501 0.70261 0.01013 0.0
C268 C 0.79356 0.76276 0.98276 0.0
O269 O 0.80519 0.77409 0.00374 0.0
C270 C 0.77573 0.75021 0.05379 0.0
O271 O 0.7561 0.74551 0.04104 0.0
O272 O 0.7533 0.69816 0.0098 0.0
C273 C 0.93522 0.70893 0.79917 0.0
O274 O 0.941 0.69728 0.78121 0.0
O275 O 0.98148 0.69068 0.79753 0.0
Zn276 Zn 0.96239 0.68442 0.82211 0.0
O277 O 0.97978 0.68236 0.85479 0.0
C278 C 0.94114 0.63734 0.79326 0.0
O279 O 0.95471 0.64381 0.77863 0.0
O280 O 0.94368 0.70769 0.82105 0.0
C281 C 0.98763 0.66395 0.85333 0.0
O282 O 0.98458 0.65097 0.83197 0.0
C283 C 1.00175 0.69896 0.80147 0.0
O284 O 0.01254 0.70494 0.82399 0.0
O285 O 0.94168 0.65171 0.81204 0.0
C286 C 0.7752 0.45876 0.53053 0.0
O287 O 0.76919 0.43504 0.52974 0.0
O288 O 0.81778 0.42987 0.55973 0.0
Zn289 Zn 0.8164 0.44781 0.52928 0.0
O290 O 0.80813 0.42595 0.4964 0.0
C291 C 0.85995 0.47885 0.54884 0.0
O292 O 0.85506 0.4749 0.57024 0.0
O293 O 0.79483 0.4687 0.53045 0.0
C294 C 0.8127 0.40569 0.49195 0.0
O295 O 0.82261 0.39651 0.50986 0.0
C296 C 0.80575 0.40938 0.56185 0.0
O297 O 0.79131 0.39749 0.54292 0.0
O298 O 0.84604 0.46958 0.52962 0.0
C299 C 0.72579 0.56913 0.39674 0.0
O300 O 0.70504 0.56268 0.39664 0.0
O301 O 0.69722 0.59706 0.34979 0.0
Zn302 Zn 0.71355 0.61094 0.38372 0.0
O303 O 0.69231 0.60775 0.40619 0.0
C304 C 0.72084 0.65662 0.36556 0.0
O305 O 0.70212 0.64562 0.3519 0.0
O306 O 0.73409 0.59054 0.39274 0.0
C307 C 0.67739 0.61877 0.40346 0.0
O308 O 0.67768 0.63481 0.38792 0.0
C309 C 0.67812 0.58372 0.34464 0.0
O310 O 0.66803 0.57682 0.36231 0.0
O311 O 0.72919 0.64566 0.38201 0.0
Pr312 Pr 0.03253 0.07672 0.02482 0.0
Pr313 Pr 0.08293 0.09963 0.03341 0.0
C314 C 0.99031 0.06897 0.02639 0.0
C315 C 0.97391 0.08313 0.02432 0.0
C316 C 0.95203 0.07114 0.01795 0.0
C317 C 0.93629 0.08437 0.01641 0.0
C318 C 0.94214 0.10991 0.02118 0.0
C319 C 0.96417 0.12183 0.02746 0.0
C320 C 0.97987 0.10859 0.02902 0.0
C321 C 0.05203 0.07086 0.98534 0.0
C322 C 0.05226 0.13569 0.0165 0.0
C323 C 0.1251 0.10756 0.03176 0.0
C324 C 0.14188 0.09391 0.03424 0.0
C325 C 0.16326 0.10618 0.04407 0.0
C326 C 0.17945 0.09363 0.04625 0.0
C327 C 0.17458 0.0685 0.0386 0.0
C328 C 0.15305 0.05623 0.02882 0.0
C329 C 0.13685 0.0688 0.02672 0.0
C330 C 0.06342 0.10567 0.07287 0.0
C331 C 0.0636 0.04077 0.04152 0.0
O332 O 1.00559 0.0753 0.04581 0.0
O333 O 0.99734 0.06376 0.0065 0.0
O334 O 0.05585 0.08981 1.00009 0.0
O335 O 0.0368 0.05351 0.9899 0.0
O336 O 0.07181 0.13223 0.01805 0.0
O337 O 0.03591 0.11868 0.02061 0.0
O338 O 0.1098 0.10073 0.01238 0.0
O339 O 0.11811 0.11312 0.05158 0.0
O340 O 0.05956 0.08671 0.05813 0.0
O341 O 0.0791 0.12269 0.06869 0.0
O342 O 0.04397 0.044 0.04035 0.0
O343 O 0.07961 0.05784 0.03691 0.0
H344 H 0.94709 0.05151 0.01422 0.0
H345 H 0.91955 0.07457 0.0112 0.0
H346 H 0.96932 0.14142 0.03159 0.0
H347 H 0.99667 0.11824 0.03408 0.0
H348 H 0.16748 0.12555 0.04992 0.0
H349 H 0.19587 0.10371 0.05358 0.0
H350 H 0.14866 0.03686 0.02305 0.0
H351 H 0.12042 0.0589 0.01919 0.0
Pr352 Pr 0.31534 0.86075 0.29422 0.0
Pr353 Pr 0.28825 0.80504 0.26432 0.0
C354 C 0.34819 0.89754 0.31689 0.0
C355 C 0.35862 0.92247 0.31405 0.0
C356 C 0.35171 0.93307 0.29346 0.0
C357 C 0.36285 0.95628 0.29018 0.0
C358 C 0.38111 0.9691 0.30739 0.0
C359 C 0.38769 0.95844 0.32817 0.0
C360 C 0.37653 0.93529 0.33143 0.0
C361 C 0.27255 0.85876 0.27262 0.0
C362 C 0.30861 0.84989 0.2329 0.0
C363 C 0.2572 0.76601 0.24313 0.0
C364 C 0.24995 0.74107 0.24858 0.0
C365 C 0.24193 0.72203 0.22948 0.0
C366 C 0.23464 0.69829 0.23454 0.0
C367 C 0.23513 0.69336 0.25879 0.0
C368 C 0.24342 0.71245 0.27791 0.0
C369 C 0.25093 0.73611 0.27285 0.0
C370 C 0.33105 0.80746 0.28647 0.0
C371 C 0.29361 0.816 0.3252 0.0
O372 O 0.35021 0.88075 0.30058 0.0
O373 O 0.32896 0.89374 0.32249 0.0
O374 O 0.2823 0.84212 0.27297 0.0
O375 O 0.28547 0.87846 0.28522 0.0
O376 O 0.29526 0.82835 0.23266 0.0
O377 O 0.31946 0.864 0.25333 0.0
O378 O 0.25406 0.78299 0.25839 0.0
O379 O 0.27593 0.7716 0.23635 0.0
O380 O 0.32101 0.82374 0.2858 0.0
O381 O 0.31846 0.78772 0.27371 0.0
O382 O 0.30748 0.83734 0.32596 0.0
O383 O 0.2829 0.80241 0.30453 0.0
H384 H 0.33795 0.92321 0.27978 0.0
H385 H 0.3575 0.96395 0.27392 0.0
H386 H 0.40146 0.96803 0.34195 0.0
H387 H 0.38206 0.92726 0.34738 0.0
H388 H 0.24115 0.72555 0.21067 0.0
H389 H 0.22815 0.68387 0.21948 0.0
H390 H 0.24416 0.70904 0.29674 0.0
H391 H 0.25736 0.75054 0.2879 0.0
Pr392 Pr 0.57142 0.08385 0.52986 0.0
Pr393 Pr 0.52147 0.07487 0.52225 0.0
C394 C 0.61346 0.08368 0.53797 0.0
C395 C 0.62933 0.06881 0.539 0.0
C396 C 0.6471 0.076 0.52775 0.0
C397 C 0.66315 0.06332 0.52936 0.0
C398 C 0.66188 0.04311 0.54236 0.0
C399 C 0.64383 0.03563 0.5533 0.0
C400 C 0.62771 0.04839 0.55168 0.0
C401 C 0.55248 0.10552 0.49219 0.0
C402 C 0.54002 0.03177 0.4989 0.0
C403 C 0.47955 0.07535 0.51229 0.0
C404 C 0.46412 0.0903 0.51519 0.0
C405 C 0.44775 0.08225 0.52828 0.0
C406 C 0.43212 0.09508 0.53018 0.0
C407 C 0.43238 0.11627 0.51892 0.0
C408 C 0.44888 0.12446 0.50594 0.0
C409 C 0.46462 0.11163 0.5041 0.0
C410 C 0.53907 0.05089 0.55842 0.0
C411 C 0.55304 0.12733 0.55367 0.0
O412 O 0.60222 0.08356 0.55535 0.0
O413 O 0.60262 0.08504 0.51649 0.0
O414 O 0.54534 0.08434 0.49698 0.0
O415 O 0.57065 0.11617 0.50648 0.0
O416 O 0.52392 0.04239 0.49555 0.0
O417 O 0.5585 0.04251 0.51367 0.0
O418 O 0.49269 0.08104 0.49715 0.0
O419 O 0.48831 0.06766 0.53189 0.0
O420 O 0.54737 0.07247 0.55509 0.0
O421 O 0.52061 0.04186 0.54405 0.0
O422 O 0.57006 0.11828 0.55457 0.0
O423 O 0.53381 0.11526 0.54142 0.0
H424 H 0.64868 0.09167 0.51786 0.0
H425 H 0.67655 0.06935 0.52031 0.0
H426 H 0.64238 0.02026 0.56359 0.0
H427 H 0.61416 0.04247 0.56056 0.0
H428 H 0.44684 0.06572 0.53674 0.0
H429 H 0.41948 0.08801 0.53998 0.0
H430 H 0.44968 0.14083 0.49724 0.0
H431 H 0.47701 0.11828 0.49382 0.0
Pr432 Pr 0.2747 0.32637 0.78008 0.0
Pr433 Pr 0.3256 0.34034 0.78715 0.0
C434 C 0.23313 0.30863 0.78321 0.0
C435 C 0.21548 0.31225 0.79553 0.0
C436 C 0.21105 0.3351 0.79923 0.0
C437 C 0.19326 0.33754 0.80944 0.0
C438 C 0.17955 0.3172 0.81615 0.0
C439 C 0.1844 0.29449 0.81286 0.0
C440 C 0.20213 0.29207 0.80264 0.0
C441 C 0.29274 0.37017 0.76455 0.0
C442 C 0.30458 0.35656 0.83339 0.0
C443 C 0.36746 0.35615 0.78394 0.0
C444 C 0.38401 0.35269 0.76961 0.0
C445 C 0.4031 0.34801 0.78153 0.0
C446 C 0.41964 0.34618 0.7689 0.0
C447 C 0.41756 0.34912 0.74397 0.0
C448 C 0.39825 0.3535 0.73196 0.0
C449 C 0.38168 0.35527 0.74461 0.0
C450 C 0.30691 0.29646 0.80231 0.0
C451 C 0.29535 0.31075 0.7338 0.0
O452 O 0.249 0.30188 0.79599 0.0
O453 O 0.23927 0.32371 0.76786 0.0
O454 O 0.30029 0.3624 0.78368 0.0
O455 O 0.27425 0.35615 0.75375 0.0
O456 O 0.32189 0.36148 0.82331 0.0
O457 O 0.28603 0.34238 0.82144 0.0
O458 O 0.35235 0.36602 0.77414 0.0
O459 O 0.36058 0.3391 0.79708 0.0
O460 O 0.29999 0.30444 0.78309 0.0
O461 O 0.32503 0.31065 0.81394 0.0
O462 O 0.27873 0.30487 0.74477 0.0
O463 O 0.31388 0.32549 0.74518 0.0
H464 H 0.2211 0.35098 0.7939 0.0
H465 H 0.18997 0.35528 0.81149 0.0
H466 H 0.17451 0.27851 0.81821 0.0
H467 H 0.20527 0.27428 0.8 0.0
H468 H 0.40535 0.34601 0.8008 0.0
H469 H 0.43404 0.34237 0.77872 0.0
H470 H 0.39611 0.35615 0.71287 0.0
H471 H 0.36719 0.35899 0.73489 0.0
Pr472 Pr 0.04626 0.07238 0.5153 0.0
Pr473 Pr 0.05993 0.09926 0.56452 0.0
C474 C 0.02476 0.05163 0.47053 0.0
C475 C 0.01668 0.05957 0.44732 0.0
C476 C 0.01702 0.04619 0.42535 0.0
C477 C 0.00869 0.05296 0.40311 0.0
C478 C 0.99981 0.07321 0.40252 0.0
C479 C 0.99987 0.08688 0.42459 0.0
C480 C 0.00832 0.08016 0.44682 0.0
C481 C 0.08999 0.09624 0.52524 0.0
C482 C 0.0443 0.13102 0.52275 0.0
C483 C 0.08037 0.11897 0.60998 0.0
C484 C 0.08877 0.10968 0.63234 0.0
C485 C 0.0855 0.11905 0.65494 0.0
C486 C 0.09364 0.1106 0.67634 0.0
C487 C 0.10526 0.09271 0.67546 0.0
C488 C 0.10819 0.08306 0.65273 0.0
C489 C 0.09996 0.09141 0.63135 0.0
C490 C 0.01619 0.07553 0.55382 0.0
C491 C 0.06347 0.04146 0.55702 0.0
O492 O 0.01527 0.05587 0.4887 0.0
O493 O 0.04563 0.05564 0.47694 0.0
O494 O 0.07504 0.10517 0.53051 0.0
O495 O 0.08256 0.07404 0.51462 0.0
O496 O 0.05607 0.13265 0.54461 0.0
O497 O 0.03654 0.10965 0.50915 0.0
O498 O 0.0903 0.11711 0.59168 0.0
O499 O 0.05946 0.11379 0.60332 0.0
O500 O 0.03125 0.06644 0.54924 0.0
O501 O 0.02347 0.09789 0.56401 0.0
O502 O 0.05109 0.03919 0.53542 0.0
O503 O 0.07106 0.06301 0.57018 0.0
H504 H 0.02344 0.03027 0.42542 0.0
H505 H 0.00863 0.04193 0.3864 0.0
H506 H 0.99332 0.10269 0.42465 0.0
H507 H 0.00805 0.09087 0.4636 0.0
H508 H 0.07685 0.13308 0.65604 0.0
H509 H 0.09134 0.11855 0.69364 0.0
H510 H 0.11688 0.06908 0.6515 0.0
H511 H 0.10251 0.08371 0.61409 0.0
Pr512 Pr 0.29273 0.80581 0.77661 0.0
Pr513 Pr 0.31612 0.86487 0.77708 0.0
C514 C 0.27803 0.75807 0.76218 0.0
C515 C 0.28724 0.74078 0.74959 0.0
C516 C 0.27922 0.71579 0.74941 0.0
C517 C 0.29007 0.69958 0.74037 0.0
C518 C 0.30905 0.70831 0.7315 0.0
C519 C 0.31628 0.73334 0.73055 0.0
C520 C 0.30558 0.74946 0.73975 0.0
C521 C 0.29198 0.83394 0.82011 0.0
C522 C 0.34582 0.82748 0.79767 0.0
C523 C 0.32927 0.91271 0.79184 0.0
C524 C 0.32084 0.92783 0.8082 0.0
C525 C 0.33043 0.95266 0.81444 0.0
C526 C 0.3218 0.96674 0.82985 0.0
C527 C 0.30369 0.95601 0.83954 0.0
C528 C 0.29461 0.93089 0.83359 0.0
C529 C 0.30281 0.91711 0.81765 0.0
C530 C 0.31859 0.83701 0.73424 0.0
C531 C 0.26252 0.84296 0.75726 0.0
O532 O 0.27235 0.77446 0.74923 0.0
O533 O 0.28855 0.76699 0.78431 0.0
O534 O 0.29907 0.84077 0.80163 0.0
O535 O 0.28348 0.81063 0.81594 0.0
O536 O 0.34383 0.85013 0.79802 0.0
O537 O 0.32985 0.80832 0.78776 0.0
O538 O 0.33835 0.89693 0.80226 0.0
O539 O 0.31624 0.90354 0.77103 0.0
O540 O 0.31016 0.82982 0.75186 0.0
O541 O 0.32714 0.8603 0.73895 0.0
O542 O 0.26414 0.82031 0.75799 0.0
O543 O 0.27895 0.86215 0.76542 0.0
H544 H 0.26517 0.70891 0.75718 0.0
H545 H 0.28426 0.6804 0.74157 0.0
H546 H 0.33069 0.74055 0.72352 0.0
H547 H 0.31213 0.76878 0.74012 0.0
H548 H 0.3443 0.96121 0.80711 0.0
H549 H 0.32901 0.98608 0.83359 0.0
H550 H 0.28102 0.92176 0.84102 0.0
H551 H 0.295 0.89798 0.81264 0.0
Pr552 Pr 0.56255 0.08177 0.06085 0.0
Pr553 Pr 0.54592 0.08276 1.0016 0.0
C554 C 0.57454 0.09313 0.10949 0.0
C555 C 0.57336 0.11227 0.1279 0.0
C556 C 0.58103 0.11144 0.15257 0.0
C557 C 0.57859 0.12872 0.17034 0.0
C558 C 0.56862 0.14729 0.16365 0.0
C559 C 0.56169 0.14847 0.13869 0.0
C560 C 0.56379 0.1309 0.12102 0.0
C561 C 0.56268 0.038 0.03288 0.0
C562 C 0.51004 0.06511 0.03678 0.0
C563 C 0.53545 0.06945 0.95319 0.0
C564 C 0.54326 0.05453 0.93598 0.0
C565 C 0.53361 0.05016 0.91126 0.0
C566 C 0.54169 0.03672 0.89473 0.0
C567 C 0.55947 0.02731 0.90278 0.0
C568 C 0.56866 0.03126 0.92779 0.0
C569 C 0.56077 0.04497 0.94419 0.0
C570 C 0.54507 0.12628 0.02884 0.0
C571 C 0.59738 0.10491 0.02665 0.0
O572 O 0.58747 0.09977 0.09431 0.0
O573 O 0.55608 0.0784 0.09892 0.0
O574 O 0.55782 0.05663 0.02566 0.0
O575 O 0.56877 0.04206 0.05644 0.0
O576 O 0.51432 0.06423 0.01445 0.0
O577 O 0.52501 0.07393 0.05659 0.0
O578 O 0.52525 0.05776 0.96868 0.0
O579 O 0.5491 0.08993 0.96321 0.0
O580 O 0.55072 0.10825 0.03683 0.0
O581 O 0.53849 0.12156 0.00533 0.0
O582 O 0.59199 0.10598 0.04839 0.0
O583 O 0.58373 0.09311 0.00674 0.0
H584 H 0.58833 0.09701 0.15814 0.0
H585 H 0.58373 0.12686 0.18933 0.0
H586 H 0.55422 0.16264 0.13276 0.0
H587 H 0.55745 0.13144 0.10204 0.0
H588 H 0.52011 0.05754 0.90469 0.0
H589 H 0.53443 0.03437 0.87557 0.0
H590 H 0.58212 0.02398 0.93471 0.0
H591 H 0.5685 0.04838 0.96325 0.0
Pr592 Pr 0.28126 0.31207 0.27536 0.0
Pr593 Pr 0.33044 0.34875 0.28807 0.0
C594 C 0.24302 0.28681 0.28337 0.0
C595 C 0.22424 0.29268 0.29186 0.0
C596 C 0.20395 0.27629 0.28538 0.0
C597 C 0.18637 0.28103 0.29463 0.0
C598 C 0.18873 0.3023 0.31064 0.0
C599 C 0.20909 0.3189 0.31668 0.0
C600 C 0.22661 0.31415 0.30739 0.0
C601 C 0.29227 0.33548 0.23504 0.0
C602 C 0.28962 0.37179 0.29106 0.0
C603 C 0.37199 0.37059 0.28852 0.0
C604 C 0.38856 0.3676 0.27426 0.0
C605 C 0.41024 0.37886 0.28374 0.0
C606 C 0.42625 0.37558 0.27081 0.0
C607 C 0.42088 0.36094 0.24808 0.0
C608 C 0.39904 0.34968 0.23865 0.0
C609 C 0.38304 0.35294 0.25164 0.0
C610 C 0.31373 0.32782 0.32651 0.0
C611 C 0.32081 0.29068 0.2625 0.0
O612 O 0.26085 0.29188 0.29962 0.0
O613 O 0.24611 0.29208 0.26169 0.0
O614 O 0.30298 0.33751 0.25619 0.0
O615 O 0.27404 0.31953 0.23363 0.0
O616 O 0.30931 0.37655 0.2863 0.0
O617 O 0.27876 0.34964 0.29331 0.0
O618 O 0.35589 0.37836 0.27754 0.0
O619 O 0.36602 0.35322 0.30168 0.0
O620 O 0.31149 0.31773 0.30506 0.0
O621 O 0.32597 0.34984 0.32927 0.0
O622 O 0.30143 0.28449 0.26802 0.0
O623 O 0.33223 0.3135 0.26446 0.0
H624 H 0.20175 0.25964 0.2734 0.0
H625 H 0.17092 0.26801 0.28922 0.0
H626 H 0.2117 0.33529 0.32917 0.0
H627 H 0.24214 0.32704 0.31275 0.0
H628 H 0.41482 0.39018 0.30121 0.0
H629 H 0.44282 0.38478 0.27851 0.0
H630 H 0.39432 0.33803 0.22138 0.0
H631 H 0.36639 0.34389 0.2441 0.0
Pr632 Pr 0.55191 0.57383 0.01543 0.0
Pr633 Pr 0.56364 0.59989 0.06426 0.0
C634 C 0.53437 0.55255 0.96965 0.0
C635 C 0.53311 0.55811 0.94426 0.0
C636 C 0.54557 0.54903 0.92932 0.0
C637 C 0.54352 0.55278 0.90482 0.0
C638 C 0.52881 0.5655 0.8947 0.0
C639 C 0.51674 0.5751 0.90985 0.0
C640 C 0.51887 0.57146 0.93437 0.0
C641 C 0.59563 0.59813 0.02699 0.0
C642 C 0.54863 0.63186 0.02225 0.0
C643 C 0.58253 0.61975 0.11021 0.0
C644 C 0.59019 0.61089 0.1331 0.0
C645 C 0.58731 0.6217 0.15527 0.0
C646 C 0.59495 0.61382 0.17722 0.0
C647 C 0.60566 0.59504 0.1773 0.0
C648 C 0.60813 0.58393 0.15497 0.0
C649 C 0.60041 0.59174 0.13306 0.0
C650 C 0.51987 0.57606 0.05209 0.0
C651 C 0.56638 0.54217 0.05758 0.0
O652 O 0.52393 0.56305 0.98358 0.0
O653 O 0.55307 0.55088 0.98112 0.0
O654 O 0.58039 0.60693 0.03147 0.0
O655 O 0.5885 0.57589 0.01662 0.0
O656 O 0.55977 0.63338 0.04445 0.0
O657 O 0.54173 0.61064 0.00829 0.0
O658 O 0.59322 0.61768 0.09264 0.0
O659 O 0.56173 0.61435 0.10258 0.0
O660 O 0.53507 0.56703 0.04793 0.0
O661 O 0.52702 0.59828 0.06267 0.0
O662 O 0.55346 0.54035 0.03644 0.0
O663 O 0.57501 0.56376 0.07033 0.0
H664 H 0.55663 0.5386 0.93645 0.0
H665 H 0.55319 0.54536 0.8937 0.0
H666 H 0.50497 0.5846 0.90255 0.0
H667 H 0.50895 0.5786 0.94535 0.0
H668 H 0.5794 0.63644 0.15563 0.0
H669 H 0.59303 0.6229 0.19416 0.0
H670 H 0.61611 0.56925 0.15447 0.0
H671 H 0.60267 0.583 0.11612 0.0
Pr672 Pr 0.7953 0.29592 0.27717 0.0
Pr673 Pr 0.81458 0.3561 0.27958 0.0
C674 C 0.78366 0.24815 0.26166 0.0
C675 C 0.79134 0.23273 0.24481 0.0
C676 C 0.78424 0.20743 0.24276 0.0
C677 C 0.79289 0.19283 0.22799 0.0
C678 C 0.80863 0.20339 0.21487 0.0
C679 C 0.81503 0.22886 0.21639 0.0
C680 C 0.80672 0.24335 0.23155 0.0
C681 C 0.79224 0.32123 0.32149 0.0
C682 C 0.84779 0.32144 0.29738 0.0
C683 C 0.82583 0.40389 0.29509 0.0
C684 C 0.81725 0.41968 0.31057 0.0
C685 C 0.82787 0.44422 0.31708 0.0
C686 C 0.81943 0.45924 0.33167 0.0
C687 C 0.80041 0.44979 0.34029 0.0
C688 C 0.79016 0.42494 0.33402 0.0
C689 C 0.79829 0.41017 0.31894 0.0
C690 C 0.8184 0.33087 0.2357 0.0
C691 C 0.76258 0.3302 0.2568 0.0
O692 O 0.77388 0.26362 0.25171 0.0
O693 O 0.79736 0.25759 0.28194 0.0
O694 O 0.79897 0.32968 0.30341 0.0
O695 O 0.78555 0.29774 0.3164 0.0
O696 O 0.84415 0.3434 0.29914 0.0
O697 O 0.83284 0.3017 0.28674 0.0
O698 O 0.83466 0.3883 0.3062 0.0
O699 O 0.81337 0.3945 0.27399 0.0
O700 O 0.81087 0.32234 0.25332 0.0
O701 O 0.8255 0.3543 0.24101 0.0
O702 O 0.7666 0.30846 0.25586 0.0
O703 O 0.77695 0.35021 0.26796 0.0
H704 H 0.7725 0.199 0.25311 0.0
H705 H 0.78785 0.17332 0.22766 0.0
H706 H 0.82681 0.23767 0.2063 0.0
H707 H 0.81269 0.26289 0.23341 0.0
H708 H 0.84248 0.45183 0.31059 0.0
H709 H 0.82756 0.47834 0.33564 0.0
H710 H 0.77576 0.41681 0.34061 0.0
H711 H 0.78971 0.39128 0.31374 0.0
Pr712 Pr 0.06355 0.57939 0.56288 0.0
Pr713 Pr 0.04799 0.58178 0.50338 0.0
C714 C 0.07487 0.59075 0.61151 0.0
C715 C 0.0705 0.60827 0.62933 0.0
C716 C 0.08047 0.61094 0.65386 0.0
C717 C 0.0756 0.62703 0.67098 0.0
C718 C 0.06088 0.64091 0.66372 0.0
C719 C 0.05153 0.63865 0.63884 0.0
C720 C 0.05603 0.62217 0.62191 0.0
C721 C 0.06418 0.53652 0.53387 0.0
C722 C 0.01142 0.56339 0.53789 0.0
C723 C 0.03633 0.56765 0.45519 0.0
C724 C 0.04126 0.55012 0.43772 0.0
C725 C 0.02504 0.53688 0.41854 0.0
C726 C 0.02946 0.51997 0.40189 0.0
C727 C 0.05022 0.51607 0.40416 0.0
C728 C 0.0663 0.52902 0.42382 0.0
C729 C 0.06184 0.54583 0.44048 0.0
C730 C 0.04768 0.62499 0.53164 0.0
C731 C 0.09957 0.60187 0.52932 0.0
O732 O 0.08696 0.60007 0.59642 0.0
O733 O 0.05823 0.57317 0.60088 0.0
O734 O 0.05951 0.55543 0.52725 0.0
O735 O 0.06964 0.53965 0.55753 0.0
O736 O 0.01627 0.56275 0.51583 0.0
O737 O 0.02601 0.57209 0.55803 0.0
O738 O 0.02507 0.55824 0.47096 0.0
O739 O 0.05197 0.58679 0.46472 0.0
O740 O 0.0524 0.60626 0.53894 0.0
O741 O 0.0419 0.62134 0.50797 0.0
O742 O 0.09409 0.60199 0.55105 0.0
O743 O 0.08584 0.59157 0.50889 0.0
H744 H 0.09163 0.6002 0.65984 0.0
H745 H 0.08282 0.62791 0.68999 0.0
H746 H 0.04043 0.64929 0.63244 0.0
H747 H 0.04793 0.61997 0.60306 0.0
H748 H 0.00897 0.5397 0.41639 0.0
H749 H 0.01665 0.51007 0.38717 0.0
H750 H 0.08253 0.52674 0.42596 0.0
H751 H 0.07452 0.55559 0.45542 0.0
Pr752 Pr 0.77983 0.8336 0.27823 0.0
Pr753 Pr 0.8296 0.83942 0.28535 0.0
C754 C 0.73728 0.82433 0.27867 0.0
C755 C 0.72026 0.82453 0.29317 0.0
C756 C 0.70375 0.83555 0.28472 0.0
C757 C 0.6865 0.83465 0.29681 0.0
C758 C 0.68528 0.82262 0.31767 0.0
C759 C 0.70209 0.81196 0.32642 0.0
C760 C 0.7194 0.81285 0.31426 0.0
C761 C 0.80204 0.87209 0.25777 0.0
C762 C 0.81131 0.85979 0.3319 0.0
C763 C 0.87212 0.84794 0.28491 0.0
C764 C 0.88893 0.84939 0.26999 0.0
C765 C 0.88495 0.83613 0.24673 0.0
C766 C 0.90179 0.83646 0.23392 0.0
C767 C 0.92289 0.84996 0.2442 0.0
C768 C 0.92658 0.86361 0.26727 0.0
C769 C 0.90977 0.86331 0.27999 0.0
C770 C 0.8066 0.8001 0.30429 0.0
C771 C 0.79823 0.81356 0.23176 0.0
O772 O 0.74842 0.80802 0.28151 0.0
O773 O 0.74855 0.84526 0.27461 0.0
O774 O 0.80858 0.86618 0.2784 0.0
O775 O 0.78299 0.85898 0.24779 0.0
O776 O 0.82835 0.86204 0.32147 0.0
O777 O 0.79183 0.84795 0.32013 0.0
O778 O 0.86191 0.86519 0.28501 0.0
O779 O 0.85987 0.82643 0.28573 0.0
O780 O 0.80085 0.80687 0.28395 0.0
O781 O 0.82542 0.8131 0.31531 0.0
O782 O 0.78135 0.81046 0.24252 0.0
O783 O 0.81757 0.82616 0.24327 0.0
H784 H 0.70403 0.84461 0.26847 0.0
H785 H 0.67409 0.84344 0.28979 0.0
H786 H 0.70161 0.80238 0.34231 0.0
H787 H 0.73189 0.80411 0.32113 0.0
H788 H 0.86895 0.82521 0.2387 0.0
H789 H 0.89839 0.82564 0.21626 0.0
H790 H 0.94249 0.87456 0.27556 0.0
H791 H 0.91316 0.87369 0.2979 0.0
Pr792 Pr 0.81308 0.3534 0.7858 0.0
Pr793 Pr 0.78503 0.2989 0.75429 0.0
C794 C 0.84508 0.3908 0.80873 0.0
C795 C 0.85277 0.41651 0.80591 0.0
C796 C 0.83829 0.43053 0.79861 0.0
C797 C 0.84594 0.45456 0.79457 0.0
C798 C 0.86815 0.46476 0.79743 0.0
C799 C 0.88257 0.45066 0.80481 0.0
C800 C 0.87492 0.42673 0.80907 0.0
C801 C 0.77013 0.35204 0.76514 0.0
C802 C 0.80629 0.34501 0.72455 0.0
C803 C 0.75196 0.26354 0.7296 0.0
C804 C 0.74198 0.2379 0.72971 0.0
C805 C 0.72374 0.22654 0.71211 0.0
C806 C 0.71316 0.20246 0.71281 0.0
C807 C 0.72071 0.18947 0.73119 0.0
C808 C 0.73929 0.20088 0.74859 0.0
C809 C 0.74985 0.22501 0.74788 0.0
C810 C 0.8278 0.29936 0.77413 0.0
C811 C 0.79195 0.30707 0.8155 0.0
O812 O 0.84744 0.37536 0.79129 0.0
O813 O 0.82667 0.3844 0.81614 0.0
O814 O 0.78005 0.3357 0.7649 0.0
O815 O 0.78301 0.37147 0.7782 0.0
O816 O 0.79265 0.32358 0.7238 0.0
O817 O 0.81732 0.35839 0.74526 0.0
O818 O 0.75036 0.27819 0.74816 0.0
O819 O 0.77086 0.26872 0.72318 0.0
O820 O 0.81854 0.31638 0.77522 0.0
O821 O 0.81434 0.28026 0.76109 0.0
O822 O 0.80578 0.32851 0.81659 0.0
O823 O 0.78082 0.29404 0.79465 0.0
H824 H 0.82108 0.42284 0.7957 0.0
H825 H 0.83449 0.465 0.78872 0.0
H826 H 0.89978 0.45819 0.80744 0.0
H827 H 0.8863 0.41609 0.81453 0.0
H828 H 0.71753 0.23637 0.69801 0.0
H829 H 0.69908 0.19401 0.69897 0.0
H830 H 0.74534 0.19136 0.76306 0.0
H831 H 0.7639 0.23373 0.76169 0.0
Pr832 Pr 0.78112 0.81747 0.77787 0.0
Pr833 Pr 0.82601 0.85263 0.78517 0.0
C834 C 0.74077 0.79384 0.78141 0.0
C835 C 0.7236 0.79843 0.79402 0.0
C836 C 0.70271 0.78343 0.78717 0.0
C837 C 0.68623 0.78762 0.7989 0.0
C838 C 0.69029 0.80699 0.81775 0.0
C839 C 0.71132 0.82208 0.82444 0.0
C840 C 0.72779 0.81782 0.81272 0.0
C841 C 0.7925 0.83462 0.73516 0.0
C842 C 0.78773 0.87561 0.79647 0.0
C843 C 0.86605 0.87638 0.78075 0.0
C844 C 0.88309 0.87123 0.76821 0.0
C845 C 0.90425 0.88545 0.77543 0.0
C846 C 0.92054 0.88087 0.76358 0.0
C847 C 0.91599 0.86194 0.7442 0.0
C848 C 0.89471 0.84758 0.73718 0.0
C849 C 0.87845 0.85217 0.74906 0.0
C850 C 0.81473 0.8354 0.82787 0.0
C851 C 0.81936 0.794 0.76752 0.0
O852 O 0.75809 0.79093 0.79512 0.0
O853 O 0.74503 0.80705 0.76402 0.0
O854 O 0.79588 0.84719 0.75568 0.0
O855 O 0.78222 0.8123 0.73591 0.0
O856 O 0.80554 0.88084 0.78757 0.0
O857 O 0.77897 0.8532 0.79995 0.0
O858 O 0.84853 0.87854 0.76684 0.0
O859 O 0.86214 0.86414 0.79892 0.0
O860 O 0.81132 0.82291 0.80731 0.0
O861 O 0.82518 0.8577 0.82724 0.0
O862 O 0.80125 0.78902 0.77583 0.0
O863 O 0.82874 0.81635 0.76441 0.0
H864 H 0.69914 0.76836 0.77279 0.0
H865 H 0.67038 0.77539 0.79345 0.0
H866 H 0.71505 0.83737 0.83859 0.0
H867 H 0.7438 0.82965 0.81827 0.0
H868 H 0.90818 0.90023 0.79016 0.0
H869 H 0.93663 0.89249 0.76932 0.0
H870 H 0.89062 0.83264 0.72261 0.0
H871 H 0.86223 0.84088 0.74325 0.0
Pr872 Pr 0.52256 0.56141 0.50931 0.0
Pr873 Pr 0.57275 0.5869 0.52673 0.0
C874 C 0.47936 0.55153 0.50395 0.0
C875 C 0.4631 0.56582 0.50395 0.0
C876 C 0.44183 0.55556 0.49197 0.0
C877 C 0.42618 0.56877 0.49224 0.0
C878 C 0.4315 0.59257 0.50451 0.0
C879 C 0.45293 0.60281 0.51642 0.0
C880 C 0.46856 0.58958 0.51614 0.0
C881 C 0.54798 0.56207 0.47438 0.0
C882 C 0.54151 0.62238 0.50991 0.0
C883 C 0.61576 0.59678 0.53027 0.0
C884 C 0.63229 0.58277 0.53163 0.0
C885 C 0.6537 0.59406 0.54242 0.0
C886 C 0.66962 0.58113 0.54306 0.0
C887 C 0.66444 0.55658 0.53289 0.0
C888 C 0.64285 0.54532 0.52224 0.0
C889 C 0.62697 0.55825 0.52165 0.0
C890 C 0.54736 0.58698 0.56167 0.0
C891 C 0.55337 0.52597 0.52798 0.0
O892 O 0.49221 0.55265 0.52485 0.0
O893 O 0.48926 0.55221 0.48538 0.0
O894 O 0.54915 0.57911 0.49055 0.0
O895 O 0.53236 0.54317 0.4748 0.0
O896 O 0.56163 0.62043 0.51317 0.0
O897 O 0.52523 0.60377 0.51097 0.0
O898 O 0.60218 0.59317 0.50948 0.0
O899 O 0.60664 0.59847 0.54932 0.0
O900 O 0.54608 0.5698 0.54555 0.0
O901 O 0.56351 0.60543 0.56142 0.0
O902 O 0.53325 0.52779 0.52297 0.0
O903 O 0.56999 0.54461 0.52796 0.0
H904 H 0.43726 0.53723 0.48255 0.0
H905 H 0.40982 0.56015 0.48315 0.0
H906 H 0.45772 0.62116 0.52576 0.0
H907 H 0.4849 0.59789 0.5255 0.0
H908 H 0.65815 0.61296 0.55026 0.0
H909 H 0.68597 0.59033 0.55173 0.0
H910 H 0.63824 0.52659 0.51391 0.0
H911 H 0.61055 0.54914 0.51313 0.0
Pr912 Pr 0.07707 0.58642 0.04058 0.0
Pr913 Pr 0.02706 0.57732 0.02658 0.0
C914 C 0.11874 0.58579 0.05441 0.0
C915 C 0.13443 0.57067 0.05359 0.0
C916 C 0.14898 0.57486 0.03752 0.0
C917 C 0.16504 0.56224 0.03775 0.0
C918 C 0.16712 0.5452 0.05421 0.0
C919 C 0.15236 0.54075 0.07008 0.0
C920 C 0.13623 0.55337 0.06982 0.0
C921 C 0.0614 0.60415 0.99834 0.0
C922 C 0.0473 0.53281 0.01025 0.0
C923 C 0.98588 0.57835 0.01044 0.0
C924 C 0.97039 0.59348 0.01171 0.0
C925 C 0.94959 0.58249 0.01491 0.0
C926 C 0.93428 0.59603 0.01557 0.0
C927 C 0.93939 0.62092 0.01293 0.0
C928 C 0.9604 0.63197 0.00998 0.0
C929 C 0.97577 0.61839 0.0094 0.0
C930 C 0.04167 0.55772 0.06795 0.0
C931 C 0.05682 0.631 0.05725 0.0
O932 O 0.10448 0.58071 0.06841 0.0
O933 O 0.11119 0.5931 0.03399 0.0
O934 O 0.05372 0.58365 0.0044 0.0
O935 O 0.07825 0.61631 0.01403 0.0
O936 O 0.03116 0.54293 0.00424 0.0
O937 O 0.06514 0.54464 0.02561 0.0
O938 O 1.0013 0.58526 0.99826 0.0
O939 O 0.99203 0.56916 0.03023 0.0
O940 O 0.05028 0.57848 0.06282 0.0
O941 O 0.02414 0.54725 0.05242 0.0
O942 O 0.07348 0.62148 0.06243 0.0
O943 O 0.03871 0.61868 0.04271 0.0
H944 H 0.14817 0.58822 0.02495 0.0
H945 H 0.17585 0.56589 0.02499 0.0
H946 H 0.1536 0.52799 0.08321 0.0
H947 H 0.12546 0.54989 0.08266 0.0
H948 H 0.94513 0.56332 0.01683 0.0
H949 H 0.91846 0.58696 0.01836 0.0
H950 H 0.96489 0.65103 0.00767 0.0
H951 H 0.99175 0.62733 0.00698 0.0
H952 H 0.99803 0.24585 0.94774 0.0
H953 H 0.08228 0.17647 0.01173 0.0
H954 H 0.06704 0.27314 0.96135 0.0
H955 H 0.01361 0.1476 1.00186 0.0
H956 H 0.07628 0.2128 0.99489 0.0
H957 H 1.00261 0.21064 0.96879 0.0
C958 C 0.01411 0.24456 0.95525 0.0
C959 C 0.03217 0.26251 0.95261 0.0
C960 C 0.06245 0.19864 0.99648 0.0
C961 C 0.03752 0.22225 0.97667 0.0
C962 C 0.06588 0.17778 0.00616 0.0
C963 C 0.04845 0.15875 0.00818 0.0
C964 C 0.04138 0.20068 0.98849 0.0
C965 C 0.02757 0.16176 1.00068 0.0
C966 C 0.01671 0.22444 0.96725 0.0
C967 C 0.0526 0.2598 0.96274 0.0
N968 N 0.02461 0.18222 0.99101 0.0
N969 N 0.05468 0.24013 0.97417 0.0
H970 H 0.14351 0.80746 0.18771 0.0
H971 H 0.2501 0.89387 0.27114 0.0
H972 H 0.15434 0.88548 0.19716 0.0
H973 H 0.24538 0.82023 0.24179 0.0
H974 H 0.21403 0.89096 0.24761 0.0
H975 H 0.17946 0.81149 0.2111 0.0
C976 C 0.15341 0.8255 0.19475 0.0
C977 C 0.14578 0.84618 0.19039 0.0
C978 C 0.22087 0.87541 0.2464 0.0
C979 C 0.18726 0.85089 0.21749 0.0
C980 C 0.24141 0.87701 0.25988 0.0
C981 C 0.25062 0.85706 0.25876 0.0
C982 C 0.20934 0.85362 0.23182 0.0
C983 C 0.23873 0.8358 0.24369 0.0
C984 C 0.17404 0.82777 0.20807 0.0
C985 C 0.15953 0.86904 0.2 0.0
N986 N 0.21872 0.83458 0.23095 0.0
N987 N 0.17956 0.87079 0.2132 0.0
H988 H 0.54154 0.88067 0.46498 0.0
H989 H 0.50929 0.00744 0.45965 0.0
H990 H 0.50458 0.8987 0.40092 0.0
H991 H 0.56372 0.99894 0.51065 0.0
H992 H 0.50423 0.96585 0.44047 0.0
H993 H 0.54676 0.92226 0.48473 0.0
C994 C 0.53448 0.89332 0.45511 0.0
C995 C 0.52266 0.8862 0.43123 0.0
C996 C 0.51732 0.97312 0.45582 0.0
C997 C 0.5284 0.93365 0.45375 0.0
C998 C 0.52019 0.99685 0.46682 0.0
C999 C 0.53702 0.00677 0.48673 0.0
C1000 C 0.53115 0.959 0.46502 0.0
C1001 C 0.55064 0.99213 0.49522 0.0
C1002 C 0.53753 0.91706 0.46634 0.0
C1003 C 0.51391 0.90339 0.41928 0.0
N1004 N 0.54733 0.96895 0.48442 0.0
N1005 N 0.51686 0.92622 0.43069 0.0
H1006 H 0.54278 0.36026 0.70283 0.0
H1007 H 0.41502 0.3292 0.69673 0.0
H1008 H 0.49576 0.32743 0.63797 0.0
H1009 H 0.46126 0.3662 0.76079 0.0
H1010 H 0.44456 0.32775 0.67532 0.0
H1011 H 0.5134 0.36169 0.72486 0.0
C1012 C 0.52632 0.35333 0.69321 0.0
C1013 C 0.5218 0.34373 0.66846 0.0
C1014 C 0.44827 0.33618 0.69408 0.0
C1015 C 0.48804 0.3453 0.6936 0.0
C1016 C 0.43135 0.33715 0.70631 0.0
C1017 C 0.43552 0.34787 0.73069 0.0
C1018 C 0.46966 0.34596 0.70622 0.0
C1019 C 0.45716 0.35744 0.74216 0.0
C1020 C 0.50953 0.35417 0.7058 0.0
C1021 C 0.5001 0.33502 0.657 0.0
N1022 N 0.47336 0.35628 0.72985 0.0
N1023 N 0.48411 0.33602 0.66962 0.0
H1024 H 0.06607 0.8931 0.58422 0.0
H1025 H 0.08402 0.03826 0.60318 0.0
H1026 H 0.08779 0.93756 0.65405 0.0
H1027 H 0.05224 0.99403 0.535 0.0
H1028 H 0.08873 1.0017 0.62088 0.0
H1029 H 0.06394 0.92982 0.56476 0.0
C1030 C 0.07052 0.91054 0.59545 0.0
C1031 C 0.07705 0.91213 0.62087 0.0
C1032 C 0.08079 0.99994 0.60201 0.0
C1033 C 0.0747 0.9543 0.59868 0.0
C1034 C 0.07817 0.02091 0.59181 0.0
C1035 C 0.06768 0.01937 0.56749 0.0
C1036 C 0.07297 0.97707 0.58785 0.0
C1037 C 0.06039 0.99619 0.55382 0.0
C1038 C 0.06924 0.93151 0.58433 0.0
C1039 C 0.08256 0.9353 0.63444 0.0
N1040 N 0.06314 0.97601 0.56417 0.0
N1041 N 0.08126 0.95534 0.62323 0.0
H1042 H 0.47657 0.84749 0.87702 0.0
H1043 H 0.35674 0.78415 0.80403 0.0
H1044 H 0.44916 0.77007 0.86737 0.0
H1045 H 0.38301 0.86177 0.81863 0.0
H1046 H 0.39096 0.77842 0.82517 0.0
H1047 H 0.44303 0.85282 0.85382 0.0
C1048 C 0.46355 0.83158 0.86997 0.0
C1049 C 0.46578 0.80828 0.87426 0.0
C1050 C 0.38925 0.7967 0.82369 0.0
C1051 C 0.42712 0.81429 0.84755 0.0
C1052 C 0.36968 0.80001 0.81155 0.0
C1053 C 0.36683 0.82351 0.80951 0.0
C1054 C 0.40621 0.81701 0.83387 0.0
C1055 C 0.38431 0.8433 0.81971 0.0
C1056 C 0.44434 0.83465 0.85672 0.0
C1057 C 0.44824 0.78839 0.86461 0.0
N1058 N 0.40314 0.8396 0.83142 0.0
N1059 N 0.42971 0.79185 0.85177 0.0
H1060 H 0.52262 0.26568 0.07353 0.0
H1061 H 0.57361 0.14999 0.07053 0.0
H1062 H 0.58398 0.26666 0.11735 0.0
H1063 H 0.51947 0.15678 0.01827 0.0
H1064 H 0.57604 0.19077 0.09108 0.0
H1065 H 0.51978 0.22422 0.05591 0.0
C1066 C 0.53554 0.25722 0.07948 0.0
C1067 C 0.55361 0.26987 0.09694 0.0
C1068 C 0.56352 0.18324 0.07523 0.0
C1069 C 0.55036 0.22192 0.07681 0.0
C1070 C 0.56197 0.15986 0.06373 0.0
C1071 C 0.54605 0.14983 0.043 0.0
C1072 C 0.54904 0.19664 0.06584 0.0
C1073 C 0.53189 0.16374 0.03434 0.0
C1074 C 0.5339 0.23345 0.06937 0.0
C1075 C 0.56979 0.25774 0.10386 0.0
N1076 N 0.53368 0.1863 0.04578 0.0
N1077 N 0.56776 0.23447 0.09384 0.0
H1078 H 0.1028 0.36951 0.37973 0.0
H1079 H 0.15704 0.26926 0.32598 0.0
H1080 H 0.07704 0.29239 0.37783 0.0
H1081 H 0.17824 0.34581 0.32048 0.0
H1082 H 0.12773 0.27729 0.34491 0.0
H1083 H 0.13066 0.36116 0.35835 0.0
C1084 C 0.10294 0.35079 0.37478 0.0
C1085 C 0.08751 0.33163 0.38068 0.0
C1086 C 0.13875 0.29233 0.33949 0.0
C1087 C 0.11957 0.32192 0.35615 0.0
C1088 C 0.15547 0.28774 0.3285 0.0
C1089 C 0.17029 0.30686 0.32155 0.0
C1090 C 0.13676 0.31625 0.34374 0.0
C1091 C 0.1675 0.33049 0.32582 0.0
C1092 C 0.11888 0.34604 0.36252 0.0
C1093 C 0.08856 0.30776 0.37369 0.0
N1094 N 0.15117 0.33449 0.33666 0.0
N1095 N 0.10434 0.3036 0.36191 0.0
H1096 H 0.94931 0.08018 0.12966 0.0
H1097 H 0.06927 0.08591 0.11467 0.0
H1098 H 0.99379 0.05462 0.18095 0.0
H1099 H 0.0298 0.12581 0.07426 0.0
H1100 H 0.04281 0.07656 0.14106 0.0
H1101 H 0.97884 0.09783 0.10968 0.0
C1102 C 0.96526 0.07816 0.13665 0.0
C1103 C 0.96907 0.06574 0.1569 0.0
C1104 C 0.04014 0.08791 0.12686 0.0
C1105 C 1.00296 0.08617 0.13431 0.0
C1106 C 0.05535 0.09346 0.11205 0.0
C1107 C 0.05172 0.10698 0.09277 0.0
C1108 C 0.02095 0.09539 0.12178 0.0
C1109 C 0.03323 0.11575 0.08938 0.0
C1110 C 0.98215 0.08847 0.12538 0.0
C1111 C 0.9901 0.06392 0.16531 0.0
N1112 N 0.01828 0.10947 0.10355 0.0
N1113 N 1.00624 0.07393 0.1539 0.0
H1114 H 0.25449 0.72021 0.43024 0.0
H1115 H 0.31689 0.83301 0.37176 0.0
H1116 H 0.30923 0.77454 0.47142 0.0
H1117 H 0.26392 0.77556 0.33192 0.0
H1118 H 0.31332 0.81388 0.40905 0.0
H1119 H 0.25678 0.74209 0.3949 0.0
C1120 C 0.267 0.73682 0.43193 0.0
C1121 C 0.28174 0.74543 0.45395 0.0
C1122 C 0.30242 0.80557 0.39215 0.0
C1123 C 0.2845 0.77079 0.41311 0.0
C1124 C 0.30438 0.81654 0.37083 0.0
C1125 C 0.29072 0.80592 0.34851 0.0
C1126 C 0.28665 0.78383 0.39122 0.0
C1127 C 0.27491 0.78445 0.34855 0.0
C1128 C 0.2683 0.74935 0.41164 0.0
C1129 C 0.29754 0.76717 0.45486 0.0
N1130 N 0.27338 0.77417 0.36945 0.0
N1131 N 0.29855 0.77905 0.43472 0.0
H1132 H 0.55713 0.95435 0.6659 0.0
H1133 H 0.57984 0.06254 0.58623 0.0
H1134 H 0.62116 0.98732 0.65528 0.0
H1135 H 0.51982 0.00762 0.57121 0.0
H1136 H 0.59505 0.03773 0.61479 0.0
H1137 H 0.54252 0.97571 0.63353 0.0
C1138 C 0.56806 0.96576 0.6565 0.0
C1139 C 0.59035 0.96903 0.66325 0.0
C1140 C 0.57858 0.03114 0.60511 0.0
C1141 C 0.57386 0.99398 0.62684 0.0
C1142 C 0.56992 0.0453 0.58893 0.0
C1143 C 0.54862 0.03705 0.57634 0.0
C1144 C 0.56564 0.00891 0.60902 0.0
C1145 C 0.53634 0.01464 0.58057 0.0
C1146 C 0.55975 0.97798 0.63811 0.0
C1147 C 0.60384 0.98414 0.65055 0.0
N1148 N 0.54497 1.00143 0.5967 0.0
N1149 N 0.5954 0.99636 0.6332 0.0
H1150 H 0.34353 0.42271 0.98501 0.0
H1151 H 0.27107 0.35536 0.85728 0.0
H1152 H 0.27414 0.40553 0.96937 0.0
H1153 H 0.34005 0.38193 0.86762 0.0
H1154 H 0.27239 0.37188 0.89909 0.0
H1155 H 0.34303 0.40598 0.94312 0.0
C1156 C 0.32818 0.41533 0.97283 0.0
C1157 C 0.30883 0.41555 0.98078 0.0
C1158 C 0.28727 0.37417 0.89227 0.0
C1159 C 0.30818 0.3964 0.93277 0.0
C1160 C 0.28655 0.36469 0.86831 0.0
C1161 C 0.3055 0.36723 0.85878 0.0
C1162 C 0.30709 0.38624 0.9071 0.0
C1163 C 0.32503 0.37959 0.87411 0.0
C1164 C 0.32793 0.40587 0.94889 0.0
C1165 C 0.28946 0.4058 0.96412 0.0
N1166 N 0.32533 0.38858 0.89754 0.0
N1167 N 0.28965 0.39663 0.94099 0.0
H1168 H 0.96362 0.08094 0.24928 0.0
H1169 H 0.96127 0.08514 0.39167 0.0
H1170 H 0.90631 0.07918 0.27918 0.0
H1171 H 0.01499 0.07469 0.35979 0.0
H1172 H 0.94295 0.0908 0.35157 0.0
H1173 H 0.98452 0.08658 0.29057 0.0
C1174 C 0.95545 0.08201 0.26453 0.0
C1175 C 0.93311 0.07921 0.26077 0.0
C1176 C 0.95883 0.08751 0.3534 0.0
C1177 C 0.95698 0.08555 0.30811 0.0
C1178 C 0.96935 0.08442 0.37629 0.0
C1179 C 0.98958 0.07921 0.37896 0.0
C1180 C 0.96866 0.08543 0.3331 0.0
C1181 C 0.99924 0.07827 0.35842 0.0
C1182 C 0.96741 0.08519 0.28812 0.0
C1183 C 0.92345 0.081 0.28124 0.0
N1184 N 0.98863 0.08118 0.33631 0.0
N1185 N 0.93542 0.08381 0.30407 0.0
H1186 H 0.34624 0.78827 0.59525 0.0
H1187 H 0.29158 0.79274 0.71354 0.0
H1188 H 0.28447 0.74164 0.59828 0.0
H1189 H 0.34509 0.84826 0.70201 0.0
H1190 H 0.2908 0.77063 0.67362 0.0
H1191 H 0.34801 0.80756 0.63639 0.0
C1192 C 0.33304 0.78204 0.60455 0.0
C1193 C 0.31514 0.76334 0.59314 0.0
C1194 C 0.30278 0.78759 0.67992 0.0
C1195 C 0.31713 0.78536 0.64056 0.0
C1196 C 0.30335 0.80005 0.70279 0.0
C1197 C 0.31854 0.82222 0.71118 0.0
C1198 C 0.31757 0.79737 0.66541 0.0
C1199 C 0.33313 0.8312 0.69626 0.0
C1200 C 0.33405 0.7931 0.62808 0.0
C1201 C 0.29855 0.75607 0.60624 0.0
N1202 N 0.3323 0.81878 0.6742 0.0
N1203 N 0.29995 0.76705 0.62923 0.0
H1204 H 0.58486 0.96114 0.77005 0.0
H1205 H 0.60222 0.0308 0.90362 0.0
H1206 H 0.64658 0.98711 0.81835 0.0
H1207 H 0.53922 0.99573 0.86122 0.0
H1208 H 0.61835 0.01255 0.87324 0.0
H1209 H 0.56739 0.97121 0.80367 0.0
C1210 C 0.59471 0.96867 0.78778 0.0
C1211 C 0.61722 0.97357 0.79135 0.0
C1212 C 0.60098 0.00863 0.87063 0.0
C1213 C 0.59741 0.98525 0.8297 0.0
C1214 C 0.59171 0.01894 0.88811 0.0
C1215 C 0.56927 0.01486 0.88502 0.0
C1216 C 0.5878 0.99431 0.84965 0.0
C1217 C 0.5566 0.99974 0.86417 0.0
C1218 C 0.58474 0.97443 0.80694 0.0
C1219 C 0.62919 0.98327 0.81468 0.0
N1220 N 0.56604 0.99016 0.84716 0.0
N1221 N 0.61915 0.98899 0.83288 0.0
H1222 H 0.35469 0.44214 0.15127 0.0
H1223 H 0.27166 0.32959 0.18743 0.0
H1224 H 0.30392 0.39301 0.09859 0.0
H1225 H 0.32844 0.37187 0.23691 0.0
H1226 H 0.28276 0.3528 0.15475 0.0
H1227 H 0.34505 0.41689 0.18288 0.0
C1228 C 0.34157 0.42598 0.14629 0.0
C1229 C 0.3301 0.41976 0.12216 0.0
C1230 C 0.29287 0.35693 0.17272 0.0
C1231 C 0.31881 0.39073 0.1585 0.0
C1232 C 0.28653 0.3437 0.19139 0.0
C1233 C 0.29919 0.34881 0.21493 0.0
C1234 C 0.31195 0.37558 0.17766 0.0
C1235 C 0.31826 0.3673 0.21904 0.0
C1236 C 0.33607 0.41153 0.1644 0.0
C1237 C 0.31326 0.39852 0.11689 0.0
N1238 N 0.32401 0.38007 0.20066 0.0
N1239 N 0.30805 0.38489 0.13491 0.0
H1240 H 0.25937 0.97576 0.01176 0.0
H1241 H 0.20876 0.0738 0.07637 0.0
H1242 H 0.28595 0.014 0.08405 0.0
H1243 H 0.18 0.03293 0.0057 0.0
H1244 H 0.23742 0.05249 0.07916 0.0
H1245 H 0.23046 0.99681 0.00889 0.0
C1246 C 0.25916 0.98858 0.02704 0.0
C1247 C 0.27517 0.99309 0.04819 0.0
C1248 C 0.22484 0.04814 0.06304 0.0
C1249 C 0.24203 0.01731 0.045 0.0
C1250 C 0.2085 0.06042 0.06137 0.0
C1251 C 0.19191 0.05523 0.04073 0.0
C1252 C 0.22473 0.03054 0.0439 0.0
C1253 C 0.1923 0.03737 0.02207 0.0
C1254 C 0.24261 1.00059 0.02539 0.0
C1255 C 0.27399 0.00991 0.06738 0.0
N1256 N 0.20845 0.02574 0.02407 0.0
N1257 N 0.25776 0.02139 0.06532 0.0
H1258 H 0.69634 0.71371 0.99789 0.0
H1259 H 0.6311 0.58289 0.01912 0.0
H1260 H 0.72757 0.65618 0.01334 0.0
H1261 H 0.60883 0.64769 0.03095 0.0
H1262 H 0.66554 0.60811 0.01327 0.0
H1263 H 0.66287 0.68832 0.00548 0.0
C1264 C 0.69615 0.69567 1.00271 0.0
C1265 C 0.71484 0.68708 0.00495 0.0
C1266 C 0.65316 0.6168 0.01731 0.0
C1267 C 0.67643 0.65786 0.01366 0.0
C1268 C 0.63353 0.60243 0.02065 0.0
C1269 C 0.6171 0.61322 0.02551 0.0
C1270 C 0.65624 0.6421 0.01842 0.0
C1271 C 0.62108 0.63862 0.02729 0.0
C1272 C 0.67704 0.68125 0.00721 0.0
C1273 C 0.71358 0.66357 0.01143 0.0
N1274 N 0.64015 0.65216 0.02351 0.0
N1275 N 0.69468 0.64973 0.01543 0.0
H1276 H 0.71069 0.52004 0.39425 0.0
H1277 H 0.82076 0.49016 0.37379 0.0
H1278 H 0.76917 0.57591 0.39874 0.0
H1279 H 0.75754 0.44662 0.33924 0.0
H1280 H 0.80383 0.51839 0.39378 0.0
H1281 H 0.7301 0.48933 0.38617 0.0
C1282 C 0.7277 0.52586 0.39401 0.0
C1283 C 0.73825 0.55059 0.39668 0.0
C1284 C 0.79379 0.50243 0.38205 0.0
C1285 C 0.76045 0.51554 0.38747 0.0
C1286 C 0.80339 0.4864 0.37045 0.0
C1287 C 0.79062 0.46598 0.35453 0.0
C1288 C 0.77131 0.49779 0.37802 0.0
C1289 C 0.76815 0.4618 0.35153 0.0
C1290 C 0.73872 0.50831 0.3893 0.0
C1291 C 0.76036 0.55703 0.39639 0.0
N1292 N 0.75925 0.4776 0.36309 0.0
N1293 N 0.77073 0.53958 0.39155 0.0
H1294 H 0.87588 0.48945 0.5075 0.0
H1295 H 0.9944 0.55848 0.57962 0.0
H1296 H 0.89384 0.50063 0.58608 0.0
H1297 H 0.9765 0.54454 0.50106 0.0
H1298 H 0.95729 0.53941 0.58248 0.0
H1299 H 0.91222 0.51152 0.50494 0.0
C1300 C 0.88742 0.49661 0.52425 0.0
C1301 C 0.88175 0.49306 0.54705 0.0
C1302 C 0.96148 0.54061 0.56462 0.0
C1303 C 0.92356 0.51842 0.54423 0.0
C1304 C 0.98269 0.55156 0.56295 0.0
C1305 C 0.98871 0.5531 0.54005 0.0
C1306 C 0.94609 0.53112 0.54324 0.0
C1307 C 0.97273 0.54375 0.51913 0.0
C1308 C 0.90822 0.50922 0.52276 0.0
C1309 C 0.89746 0.50284 0.56809 0.0
N1310 N 0.95225 0.53314 0.52124 0.0
N1311 N 0.91763 0.51499 0.56617 0.0
H1312 H 0.4068 0.21202 0.31636 0.0
H1313 H 0.35108 0.29145 0.23414 0.0
H1314 H 0.42234 0.2228 0.24541 0.0
H1315 H 0.31746 0.24815 0.28204 0.0
H1316 H 0.37721 0.26665 0.23698 0.0
H1317 H 0.37439 0.22641 0.30463 0.0
C1318 C 0.40339 0.21746 0.29834 0.0
C1319 C 0.41732 0.21648 0.2819 0.0
C1320 C 0.36378 0.26216 0.24632 0.0
C1321 C 0.3804 0.23283 0.2684 0.0
C1322 C 0.34885 0.27622 0.24463 0.0
C1323 C 0.33221 0.27184 0.25797 0.0
C1324 C 0.36234 0.24413 0.26199 0.0
C1325 C 0.33003 0.25202 0.27141 0.0
C1326 C 0.3848 0.22537 0.29156 0.0
C1327 C 0.41203 0.22341 0.25865 0.0
N1328 N 0.3453 0.23923 0.27359 0.0
N1329 N 0.39411 0.23165 0.25268 0.0
H1330 H 0.33264 0.17636 0.5655 0.0
H1331 H 0.41121 0.13658 0.48266 0.0
H1332 H 0.32874 0.18702 0.48962 0.0
H1333 H 0.41409 0.12551 0.55833 0.0
H1334 H 0.38176 0.15616 0.48499 0.0
H1335 H 0.36286 0.15825 0.56321 0.0
C1336 C 0.3381 0.17486 0.54832 0.0
C1337 C 0.32807 0.18323 0.52771 0.0
C1338 C 0.38887 0.14949 0.5011 0.0
C1339 C 0.36285 0.1625 0.52497 0.0
C1340 C 0.4058 0.13846 0.49983 0.0
C1341 C 0.41514 0.12929 0.52031 0.0
C1342 C 0.38119 0.15145 0.52302 0.0
C1343 C 0.40721 0.13196 0.54197 0.0
C1344 C 0.35541 0.16453 0.54703 0.0
C1345 C 0.33593 0.18081 0.50596 0.0
N1346 N 0.39072 0.14274 0.54273 0.0
N1347 N 0.35284 0.17068 0.50517 0.0
H1348 H 0.76134 0.6838 0.3874 0.0
H1349 H 0.76744 0.77081 0.283 0.0
H1350 H 0.7078 0.68272 0.33 0.0
H1351 H 0.81605 0.78386 0.34837 0.0
H1352 H 0.7457 0.73785 0.29998 0.0
H1353 H 0.78199 0.72027 0.37386 0.0
C1354 C 0.75386 0.69134 0.37214 0.0
C1355 C 0.73288 0.68006 0.35968 0.0
C1356 C 0.76106 0.74798 0.31072 0.0
C1357 C 0.75642 0.7215 0.344 0.0
C1358 C 0.77346 0.76681 0.30102 0.0
C1359 C 0.79347 0.7801 0.31438 0.0
C1360 C 0.76887 0.74218 0.33384 0.0
C1361 C 0.80067 0.77398 0.3375 0.0
C1362 C 0.76565 0.71213 0.36441 0.0
C1363 C 0.72397 0.69066 0.34006 0.0
N1364 N 0.78841 0.75534 0.34649 0.0
N1365 N 0.73584 0.71062 0.33272 0.0
H1366 H 0.90768 0.62034 0.81599 0.0
H1367 H 0.89928 0.48199 0.77154 0.0
H1368 H 0.94255 0.59796 0.76269 0.0
H1369 H 0.85566 0.50501 0.81309 0.0
H1370 H 0.91443 0.52435 0.76674 0.0
H1371 H 0.88725 0.57833 0.81361 0.0
C1372 C 0.9109 0.6066 0.8036 0.0
C1373 C 0.92701 0.61258 0.78972 0.0
C1374 C 0.90141 0.52014 0.77671 0.0
C1375 C 0.9038 0.56443 0.78707 0.0
C1376 C 0.89287 0.49601 0.77958 0.0
C1377 C 0.87636 0.49009 0.79293 0.0
C1378 C 0.89354 0.5385 0.7875 0.0
C1379 C 0.86836 0.50884 0.80263 0.0
C1380 C 0.89919 0.58262 0.80223 0.0
C1381 C 0.93035 0.59411 0.77381 0.0
N1382 N 0.87719 0.53225 0.79995 0.0
N1383 N 0.91902 0.57078 0.77315 0.0
H1384 H 0.05881 0.90221 0.09881 0.0
H1385 H 0.10283 0.0298 0.05098 0.0
H1386 H 0.1259 0.94016 0.11133 0.0
H1387 H 0.03574 1.00032 0.05228 0.0
H1388 H 0.11118 0.99448 0.06834 0.0
H1389 H 0.04984 0.93531 0.07726 0.0
C1390 C 0.07169 0.91737 0.09687 0.0
C1391 C 0.09318 0.91835 0.10701 0.0
C1392 C 0.09461 0.99565 0.06474 0.0
C1393 C 0.08296 0.9564 0.08227 0.0
C1394 C 0.08977 0.01584 0.05469 0.0
C1395 C 0.0685 0.01824 0.05017 0.0
C1396 C 0.07809 0.97747 0.07027 0.0
C1397 C 0.05237 0.99939 0.05547 0.0
C1398 C 0.06653 0.93633 0.08463 0.0
C1399 C 0.10912 0.93859 0.10395 0.0
N1400 N 0.0575 0.97988 0.06526 0.0
N1401 N 0.1037 0.95673 0.0919 0.0
H1402 H 0.95052 0.3303 0.87517 0.0
H1403 H 0.84971 0.26458 0.76925 0.0
H1404 H 0.94617 0.26309 0.83093 0.0
H1405 H 0.85544 0.33444 0.80908 0.0
H1406 H 0.88494 0.26382 0.79196 0.0
H1407 H 0.91579 0.33215 0.85175 0.0
C1408 C 0.94228 0.31589 0.86056 0.0
C1409 C 0.95137 0.29647 0.85508 0.0
C1410 C 0.87862 0.27941 0.7957 0.0
C1411 C 0.91145 0.29853 0.8281 0.0
C1412 C 0.85847 0.27987 0.7827 0.0
C1413 C 0.84968 0.29969 0.78715 0.0
C1414 C 0.89012 0.29887 0.81352 0.0
C1415 C 0.86173 0.31893 0.80488 0.0
C1416 C 0.92244 0.31701 0.84715 0.0
C1417 C 0.93988 0.27841 0.83587 0.0
N1418 N 0.88129 0.31802 0.81747 0.0
N1419 N 0.92057 0.27987 0.82316 0.0
H1420 H 0.53693 0.2555 0.6354 0.0
H1421 H 0.58963 0.16468 0.56556 0.0
H1422 H 0.59075 0.28179 0.60069 0.0
H1423 H 0.52213 0.14705 0.56892 0.0
H1424 H 0.59282 0.20639 0.58365 0.0
H1425 H 0.53351 0.21433 0.61606 0.0
C1426 C 0.54799 0.25262 0.62363 0.0
C1427 C 0.5641 0.27214 0.61958 0.0
C1428 C 0.57734 0.19334 0.58042 0.0
C1429 C 0.56053 0.22492 0.59779 0.0
C1430 C 0.57553 0.1695 0.57029 0.0
C1431 C 0.55558 0.15229 0.56577 0.0
C1432 C 0.55919 0.19991 0.58656 0.0
C1433 C 0.53781 0.15968 0.57204 0.0
C1434 C 0.54599 0.22913 0.61257 0.0
C1435 C 0.57798 0.26731 0.60414 0.0
N1436 N 0.54007 0.18284 0.58227 0.0
N1437 N 0.57604 0.24414 0.59401 0.0
H1438 H 0.60158 0.82279 0.42332 0.0
H1439 H 0.64269 0.8148 0.29638 0.0
H1440 H 0.55927 0.81073 0.35308 0.0
H1441 H 0.68459 0.82664 0.36686 0.0
H1442 H 0.61201 0.81317 0.31665 0.0
H1443 H 0.63203 0.82408 0.40285 0.0
C1444 C 0.59865 0.82042 0.40356 0.0
C1445 C 0.57776 0.81665 0.38992 0.0
C1446 C 0.6279 0.81611 0.3277 0.0
C1447 C 0.61277 0.8181 0.36627 0.0
C1448 C 0.64549 0.81719 0.31614 0.0
C1449 C 0.66637 0.821 0.3299 0.0
C1450 C 0.6311 0.81887 0.35329 0.0
C1451 C 0.66884 0.82346 0.35545 0.0
C1452 C 0.61611 0.82115 0.39187 0.0
C1453 C 0.57506 0.81369 0.36435 0.0
N1454 N 0.65146 0.82242 0.36629 0.0
N1455 N 0.59235 0.81448 0.35337 0.0
H1456 H 0.06707 0.28132 0.49678 0.0
H1457 H 0.02095 0.1367 0.47839 0.0
H1458 H 0.01543 0.24453 0.43758 0.0
H1459 H 0.06164 0.17782 0.54433 0.0
H1460 H 0.01899 0.17508 0.46215 0.0
H1461 H 0.06573 0.24293 0.51342 0.0
C1462 C 0.05534 0.26518 0.48729 0.0
C1463 C 0.04134 0.26629 0.4657 0.0
C1464 C 0.02821 0.17564 0.48023 0.0
C1465 C 0.03985 0.2218 0.48468 0.0
C1466 C 0.02934 0.15371 0.48954 0.0
C1467 C 0.04149 0.15387 0.51283 0.0
C1468 C 0.03949 0.19793 0.49418 0.0
C1469 C 0.05205 0.17659 0.52633 0.0
C1470 C 0.05457 0.24317 0.49686 0.0
C1471 C 0.02649 0.24462 0.45432 0.0
N1472 N 0.05091 0.19754 0.51678 0.0
N1473 N 0.02625 0.22326 0.46382 0.0
H1474 H 0.64068 0.3659 0.20128 0.0
H1475 H 0.73371 0.29599 0.22311 0.0
H1476 H 0.64951 0.31144 0.14843 0.0
H1477 H 0.74274 0.36821 0.25987 0.0
H1478 H 0.69957 0.29884 0.19992 0.0
H1479 H 0.67514 0.36491 0.22683 0.0
C1480 C 0.64981 0.35377 0.19505 0.0
C1481 C 0.64216 0.33874 0.17264 0.0
C1482 C 0.70896 0.31409 0.21307 0.0
C1483 C 0.68125 0.3373 0.20183 0.0
C1484 C 0.72849 0.31245 0.22649 0.0
C1485 C 0.74127 0.33192 0.24354 0.0
C1486 C 0.70179 0.33524 0.21675 0.0
C1487 C 0.73349 0.35279 0.24687 0.0
C1488 C 0.66946 0.35329 0.20958 0.0
C1489 C 0.65471 0.32343 0.16546 0.0
N1490 N 0.71419 0.35389 0.23364 0.0
N1491 N 0.67345 0.32299 0.18004 0.0
H1492 H 0.53181 0.91667 0.91743 0.0
H1493 H 0.57511 0.99817 0.04768 0.0
H1494 H 0.5526 0.88732 0.98321 0.0
H1495 H 0.54356 0.02327 0.98462 0.0
H1496 H 0.56947 0.95842 0.02394 0.0
H1497 H 0.53854 0.95642 0.9411 0.0
C1498 C 0.53783 0.91852 0.93689 0.0
C1499 C 0.54159 0.89841 0.94828 0.0
C1500 C 0.56387 0.97263 0.0152 0.0
C1501 C 0.54942 0.94437 0.97568 0.0
C1502 C 0.56713 0.99539 0.02873 0.0
C1503 C 0.56004 0.01425 0.01801 0.0
C1504 C 0.55345 0.96857 0.99063 0.0
C1505 C 0.54968 0.00948 0.99345 0.0
C1506 C 0.54163 0.94134 0.95042 0.0
C1507 C 0.54941 0.90219 0.9736 0.0
N1508 N 0.54673 0.98719 0.9806 0.0
N1509 N 0.55308 0.92467 0.98641 0.0
H1510 H 0.98945 0.83574 0.63319 0.0
H1511 H 0.95833 0.86408 0.76341 0.0
H1512 H 0.0348 0.84734 0.70119 0.0
H1513 H 0.91321 0.84974 0.69501 0.0
H1514 H 0.98648 0.85781 0.74133 0.0
H1515 H 0.96138 0.84032 0.65583 0.0
C1516 C 0.99354 0.83919 0.65291 0.0
C1517 C 0.01461 0.84118 0.66525 0.0
C1518 C 0.9704 0.85597 0.73116 0.0
C1519 C 0.98232 0.84656 0.69145 0.0
C1520 C 0.95431 0.85969 0.74375 0.0
C1521 C 0.93327 0.85749 0.73112 0.0
C1522 C 0.96553 0.85009 0.70566 0.0
C1523 C 0.92906 0.85136 0.70564 0.0
C1524 C 0.97744 0.84181 0.66586 0.0
C1525 C 0.01881 0.84564 0.69087 0.0
N1526 N 0.94501 0.84797 0.69382 0.0
N1527 N 1.00285 0.84825 0.7031 0.0
H1528 H 0.16832 0.08293 0.9329 0.0
H1529 H 0.05191 0.09568 0.94671 0.0
H1530 H 0.13168 0.12131 0.88607 0.0
H1531 H 0.08188 0.04488 0.98269 0.0
H1532 H 0.08002 0.10313 0.9223 0.0
H1533 H 0.13668 0.06789 0.95077 0.0
C1534 C 0.15366 0.08828 0.92645 0.0
C1535 C 0.15268 0.10357 0.9081 0.0
C1536 C 0.08024 0.08988 0.93506 0.0
C1537 C 0.11641 0.08614 0.92819 0.0
C1538 C 0.06408 0.08545 0.94874 0.0
C1539 C 0.06452 0.06933 0.96619 0.0
C1540 C 0.0973 0.07862 0.93948 0.0
C1541 C 0.08086 0.05702 0.96889 0.0
C1542 C 0.13556 0.07948 0.93648 0.0
C1543 C 0.13322 0.1097 0.90027 0.0
N1544 N 0.0969 0.06222 0.95591 0.0
N1545 N 0.11589 0.10105 0.91043 0.0
H1546 H 0.78404 0.36521 0.57176 0.0
H1547 H 0.83041 0.38928 0.71608 0.0
H1548 H 0.83083 0.43077 0.60646 0.0
H1549 H 0.78662 0.32276 0.67855 0.0
H1550 H 0.83158 0.40489 0.6766 0.0
H1551 H 0.78551 0.34953 0.61104 0.0
C1552 C 0.7947 0.37633 0.58762 0.0
C1553 C 0.80729 0.39941 0.58568 0.0
C1554 C 0.8218 0.38684 0.67706 0.0
C1555 C 0.809 0.38147 0.63112 0.0
C1556 C 0.82115 0.37788 0.69962 0.0
C1557 C 0.80837 0.35462 0.70082 0.0
C1558 C 0.80956 0.37249 0.6555 0.0
C1559 C 0.7967 0.34079 0.67875 0.0
C1560 C 0.79553 0.36732 0.61014 0.0
C1561 C 0.82082 0.41288 0.60702 0.0
N1562 N 0.79753 0.34993 0.65717 0.0
N1563 N 0.82125 0.40377 0.62883 0.0
H1564 H 0.51344 0.19904 0.38902 0.0
H1565 H 0.51442 0.08549 0.46117 0.0
H1566 H 0.45605 0.14363 0.39059 0.0
H1567 H 0.56342 0.15262 0.48259 0.0
H1568 H 0.49382 0.10587 0.43301 0.0
H1569 H 0.533 0.18231 0.42195 0.0
C1570 C 0.50488 0.18361 0.39652 0.0
C1571 C 0.48311 0.17261 0.38692 0.0
C1572 C 0.509 0.11621 0.44398 0.0
C1573 C 0.50546 0.15318 0.42412 0.0
C1574 C 0.52076 0.10459 0.46004 0.0
C1575 C 0.54048 0.11749 0.4744 0.0
C1576 C 0.51726 0.14081 0.44187 0.0
C1577 C 0.54822 0.14206 0.47183 0.0
C1578 C 0.51606 0.17406 0.41527 0.0
C1579 C 0.47282 0.15267 0.39735 0.0
N1580 N 0.53663 0.15294 0.45574 0.0
N1581 N 0.48416 0.14339 0.41514 0.0
H1582 H 0.81449 0.76384 0.0862 0.0
H1583 H 0.76034 0.79291 0.19995 0.0
H1584 H 0.74705 0.76127 0.08062 0.0
H1585 H 0.82909 0.81195 0.20387 0.0
H1586 H 0.75543 0.7784 0.1567 0.0
H1587 H 0.82049 0.77933 0.12967 0.0
C1588 C 0.80098 0.76666 0.09404 0.0
C1589 C 0.78023 0.76121 0.07968 0.0
C1590 C 0.77161 0.78574 0.16699 0.0
C1591 C 0.78694 0.77862 0.12943 0.0
C1592 C 0.77444 0.79394 0.19178 0.0
C1593 C 0.79518 0.8037 0.20567 0.0
C1594 C 0.78961 0.78709 0.15588 0.0
C1595 C 0.8128 0.80461 0.19392 0.0
C1596 C 0.80442 0.77547 0.11885 0.0
C1597 C 0.76333 0.7652 0.09087 0.0
N1598 N 0.80962 0.79637 0.16973 0.0
N1599 N 0.76704 0.7735 0.11502 0.0
H1600 H 0.13549 0.05952 0.82329 0.0
H1601 H 0.14603 0.08698 0.68748 0.0
H1602 H 0.19583 0.08785 0.80093 0.0
H1603 H 0.08737 0.08141 0.71539 0.0
H1604 H 0.1634 0.07787 0.72652 0.0
H1605 H 0.11673 0.05802 0.78125 0.0
C1606 C 0.14482 0.06498 0.80945 0.0
C1607 C 0.16722 0.07405 0.8156 0.0
C1608 C 0.14667 0.07843 0.72402 0.0
C1609 C 0.14592 0.07241 0.76771 0.0
C1610 C 0.13671 0.08348 0.70172 0.0
C1611 C 0.11528 0.08513 0.69829 0.0
C1612 C 0.13508 0.07486 0.743 0.0
C1613 C 0.10402 0.08066 0.71744 0.0
C1614 C 0.1341 0.06426 0.78555 0.0
C1615 C 0.17852 0.08097 0.797 0.0
N1616 N 0.11409 0.07583 0.73906 0.0
N1617 N 0.16773 0.08013 0.77392 0.0
H1618 H 0.80799 0.3575 0.4772 0.0
H1619 H 0.81044 0.36963 0.3375 0.0
H1620 H 0.80722 0.42541 0.44885 0.0
H1621 H 0.77891 0.30315 0.36139 0.0
H1622 H 0.81369 0.39096 0.37851 0.0
H1623 H 0.80191 0.3374 0.43536 0.0
C1624 C 0.8065 0.36818 0.46218 0.0
C1625 C 0.80804 0.39317 0.46657 0.0
C1626 C 0.80587 0.37175 0.37466 0.0
C1627 C 0.80148 0.37032 0.41858 0.0
C1628 C 0.80385 0.35968 0.35122 0.0
C1629 C 0.79395 0.33478 0.34584 0.0
C1630 C 0.79853 0.35859 0.39306 0.0
C1631 C 0.78649 0.32242 0.36464 0.0
C1632 C 0.80297 0.35668 0.4383 0.0
C1633 C 0.80597 0.40608 0.44631 0.0
N1634 N 0.7891 0.33438 0.38742 0.0
N1635 N 0.80304 0.39458 0.42322 0.0
H1636 H 0.55112 0.19776 0.30404 0.0
H1637 H 0.5329 0.16538 0.16167 0.0
H1638 H 0.49834 0.21091 0.25373 0.0
H1639 H 0.59271 0.16669 0.20928 0.0
H1640 H 0.5225 0.18732 0.19469 0.0
H1641 H 0.56913 0.1917 0.26986 0.0
C1642 C 0.54351 0.19986 0.28589 0.0
C1643 C 0.52297 0.20428 0.28165 0.0
C1644 C 0.53806 0.18316 0.19787 0.0
C1645 C 0.54334 0.19713 0.2425 0.0
C1646 C 0.54412 0.1707 0.17888 0.0
C1647 C 0.56365 0.16378 0.18267 0.0
C1648 C 0.55137 0.18839 0.22105 0.0
C1649 C 0.57724 0.17099 0.20565 0.0
C1650 C 0.5538 0.19637 0.26637 0.0
C1651 C 0.51398 0.20704 0.2578 0.0
N1652 N 0.57068 0.18253 0.2241 0.0
N1653 N 0.52405 0.203 0.23909 0.0
H1654 H 0.81435 0.80942 0.97834 0.0
H1655 H 0.79379 0.78893 0.83214 0.0
H1656 H 0.77613 0.74272 0.93523 0.0
H1657 H 0.82495 0.85819 0.87489 0.0
H1658 H 0.78709 0.7717 0.86959 0.0
H1659 H 0.81829 0.82758 0.94077 0.0
C1660 C 0.80667 0.79859 0.96099 0.0
C1661 C 0.79491 0.77443 0.96004 0.0
C1662 C 0.79532 0.79069 0.87082 0.0
C1663 C 0.79952 0.79518 0.91675 0.0
C1664 C 0.79914 0.80055 0.84942 0.0
C1665 C 0.80998 0.82504 0.8504 0.0
C1666 C 0.8025 0.80536 0.89347 0.0
C1667 C 0.81658 0.83921 0.8733 0.0
C1668 C 0.80894 0.80901 0.9395 0.0
C1669 C 0.78534 0.76139 0.93693 0.0
N1670 N 0.81284 0.82916 0.8939 0.0
N1671 N 0.78795 0.77186 0.91627 0.0
H1672 H 0.82721 0.1614 0.02989 0.0
H1673 H 0.94302 0.1535 1.00317 0.0
H1674 H 0.86884 0.21704 0.99993 0.0
H1675 H 0.90294 0.09869 0.03569 0.0
H1676 H 0.91571 0.17663 1.00138 0.0
H1677 H 0.85427 0.13771 0.03148 0.0
C1678 C 0.84201 0.16865 0.02361 0.0
C1679 C 0.84571 0.1913 0.01477 0.0
C1680 C 0.91286 0.15954 0.00891 0.0
C1681 C 0.87681 0.16423 0.01655 0.0
C1682 C 0.92854 0.14635 0.01007 0.0
C1683 C 0.9254 0.12406 0.01967 0.0
C1684 C 0.89377 0.15048 0.01739 0.0
C1685 C 0.90603 0.1156 0.02788 0.0
C1686 C 0.85747 0.1551 0.02455 0.0
C1687 C 0.86523 0.19971 0.00691 0.0
N1688 N 0.89101 0.1288 0.02659 0.0
N1689 N 0.87999 0.18621 0.00799 0.0
H1690 H 0.40987 0.45498 0.04371 0.0
H1691 H 0.4858 0.59041 0.06639 0.0
H1692 H 0.38859 0.51741 0.06847 0.0
H1693 H 0.50391 0.52754 0.03694 0.0
H1694 H 0.45028 0.56448 0.06773 0.0
H1695 H 0.44463 0.48158 0.04218 0.0
C1696 C 0.4125 0.47431 0.04895 0.0
C1697 C 0.39618 0.48391 0.05623 0.0
C1698 C 0.46201 0.55639 0.0609 0.0
C1699 C 0.43624 0.5147 0.05439 0.0
C1700 C 0.48226 0.57119 0.06008 0.0
C1701 C 0.49785 0.56111 0.05159 0.0
C1702 C 0.45734 0.53131 0.05324 0.0
C1703 C 0.49241 0.53609 0.04365 0.0
C1704 C 0.43242 0.48953 0.04799 0.0
C1705 C 0.40067 0.50916 0.06277 0.0
N1706 N 0.47269 0.52209 0.04476 0.0
N1707 N 0.42026 0.52368 0.06167 0.0
H1708 H 0.35756 0.58481 0.68978 0.0
H1709 H 0.35252 0.71672 0.74438 0.0
H1710 H 0.41045 0.6367 0.73727 0.0
H1711 H 0.29632 0.66228 0.70636 0.0
H1712 H 0.37463 0.68877 0.73766 0.0
H1713 H 0.33541 0.61394 0.69203 0.0
C1714 C 0.36452 0.60233 0.70063 0.0
C1715 C 0.38584 0.60834 0.71345 0.0
C1716 C 0.35748 0.68292 0.73065 0.0
C1717 C 0.3607 0.64162 0.71599 0.0
C1718 C 0.34486 0.69897 0.73426 0.0
C1719 C 0.32254 0.69183 0.72581 0.0
C1720 C 0.34777 0.65946 0.71856 0.0
C1721 C 0.31345 0.6684 0.71333 0.0
C1722 C 0.35188 0.6189 0.7019 0.0
C1723 C 0.39407 0.63126 0.7272 0.0
N1724 N 0.32612 0.65297 0.71011 0.0
N1725 N 0.38147 0.64705 0.7281 0.0
H1726 H 0.22831 0.65727 0.49794 0.0
H1727 H 0.12779 0.63493 0.56451 0.0
H1728 H 0.21777 0.71012 0.55122 0.0
H1729 H 0.12218 0.59951 0.49171 0.0
H1730 H 0.16371 0.65814 0.56273 0.0
H1731 H 0.19205 0.63181 0.49779 0.0
C1732 C 0.21842 0.6635 0.50959 0.0
C1733 C 0.22609 0.68587 0.52462 0.0
C1734 C 0.15467 0.64528 0.54712 0.0
C1735 C 0.18496 0.65683 0.52475 0.0
C1736 C 0.13413 0.63186 0.54814 0.0
C1737 C 0.12182 0.61518 0.52819 0.0
C1738 C 0.16331 0.64195 0.52613 0.0
C1739 C 0.13104 0.61223 0.50747 0.0
C1740 C 0.19776 0.64904 0.5094 0.0
C1741 C 0.21256 0.6931 0.53927 0.0
N1742 N 0.15132 0.62544 0.50699 0.0
N1743 N 0.19281 0.67857 0.5391 0.0
H1744 H 0.66598 0.90533 0.78273 0.0
H1745 H 0.7874 0.91381 0.77014 0.0
H1746 H 0.69699 0.94401 0.72995 0.0
H1747 H 0.75657 0.87588 0.82336 0.0
H1748 H 0.75671 0.93148 0.76034 0.0
H1749 H 0.70044 0.89857 0.80122 0.0
C1750 C 0.68 0.91225 0.77491 0.0
C1751 C 0.67855 0.92504 0.75461 0.0
C1752 C 0.75686 0.9197 0.77454 0.0
C1753 C 0.71814 0.91776 0.77595 0.0
C1754 C 0.77454 0.9099 0.7804 0.0
C1755 C 0.77424 0.89297 0.79719 0.0
C1756 C 0.73889 0.91237 0.78554 0.0
C1757 C 0.75717 0.88848 0.8099 0.0
C1758 C 0.69973 0.90861 0.78564 0.0
C1759 C 0.69731 0.93387 0.74546 0.0
N1760 N 0.73993 0.89771 0.80345 0.0
N1761 N 0.71631 0.92998 0.75615 0.0
H1762 H 0.78568 0.00732 0.55404 0.0
H1763 H 0.65857 0.99391 0.54028 0.0
H1764 H 0.73879 0.9384 0.5447 0.0
H1765 H 0.70548 0.0628 0.5495 0.0
H1766 H 0.68777 0.97329 0.54288 0.0
H1767 H 0.75659 0.028 0.55308 0.0
C1768 C 0.76929 0.99652 0.55181 0.0
C1769 C 0.76473 0.97105 0.54942 0.0
C1770 C 0.69168 0.99293 0.54435 0.0
C1771 C 0.73125 0.99465 0.5483 0.0
C1772 C 0.675 0.00474 0.54301 0.0
C1773 C 0.67949 0.03018 0.54454 0.0
C1774 C 0.71309 0.0066 0.54731 0.0
C1775 C 0.70115 0.04316 0.5478 0.0
C1776 C 0.75266 0.00834 0.55126 0.0
C1777 C 0.74312 0.95805 0.54658 0.0
N1778 N 0.71707 0.03126 0.54904 0.0
N1779 N 0.72724 0.96997 0.54609 0.0
H1780 H 0.33265 0.48355 0.67592 0.0
H1781 H 0.33184 0.40091 0.78396 0.0
H1782 H 0.39003 0.48082 0.72572 0.0
H1783 H 0.28047 0.38604 0.72108 0.0
H1784 H 0.35232 0.43308 0.76464 0.0
H1785 H 0.31218 0.44981 0.69347 0.0
C1786 C 0.34098 0.47573 0.69036 0.0
C1787 C 0.36306 0.48508 0.69942 0.0
C1788 C 0.33658 0.42274 0.75505 0.0
C1789 C 0.33973 0.44687 0.71978 0.0
C1790 C 0.3249 0.40444 0.76608 0.0
C1791 C 0.30459 0.39069 0.75394 0.0
C1792 C 0.32771 0.42755 0.7319 0.0
C1793 C 0.29614 0.39622 0.73099 0.0
C1794 C 0.32929 0.45652 0.70038 0.0
C1795 C 0.37304 0.47423 0.71815 0.0
N1796 N 0.30774 0.41428 0.72069 0.0
N1797 N 0.36126 0.45587 0.72786 0.0
H1798 H 0.14881 0.56581 0.28903 0.0
H1799 H 0.24309 0.65142 0.24002 0.0
H1800 H 0.19509 0.53943 0.25436 0.0
H1801 H 0.20731 0.67884 0.28935 0.0
H1802 H 0.22634 0.61007 0.24647 0.0
H1803 H 0.17087 0.6073 0.29143 0.0
C1804 C 0.16373 0.5687 0.28223 0.0
C1805 C 0.16994 0.54918 0.27112 0.0
C1806 C 0.2223 0.62511 0.25611 0.0
C1807 C 0.19506 0.59646 0.2736 0.0
C1808 C 0.23176 0.64867 0.2523 0.0
C1809 C 0.22641 0.66844 0.26403 0.0
C1810 C 0.20714 0.62131 0.27149 0.0
C1811 C 0.21187 0.664 0.28002 0.0
C1812 C 0.1763 0.59237 0.2836 0.0
C1813 C 0.1895 0.55395 0.26277 0.0
N1814 N 0.20251 0.64085 0.28307 0.0
N1815 N 0.2012 0.57712 0.26389 0.0
H1816 H 0.47706 0.72401 0.4427 0.0
H1817 H 0.56978 0.66501 0.5048 0.0
H1818 H 0.54441 0.76119 0.45727 0.0
H1819 H 0.50195 0.63218 0.49773 0.0
H1820 H 0.56098 0.70086 0.48871 0.0
H1821 H 0.48595 0.69076 0.46377 0.0
C1822 C 0.49372 0.72528 0.45043 0.0
C1823 C 0.50999 0.74549 0.44808 0.0
C1824 C 0.54803 0.68589 0.49087 0.0
C1825 C 0.52036 0.70719 0.47223 0.0
C1826 C 0.55304 0.66538 0.50012 0.0
C1827 C 0.53661 0.64537 0.5026 0.0
C1828 C 0.5264 0.68645 0.48385 0.0
C1829 C 0.51522 0.64704 0.49615 0.0
C1830 C 0.4988 0.70625 0.46251 0.0
C1831 C 0.5313 0.74603 0.45859 0.0
N1832 N 0.51076 0.66706 0.48695 0.0
N1833 N 0.53587 0.72713 0.47003 0.0
H1834 H 0.64428 0.37374 0.70436 0.0
H1835 H 0.7471 0.3175 0.72776 0.0
H1836 H 0.65503 0.31694 0.65577 0.0
H1837 H 0.74396 0.38302 0.76952 0.0
H1838 H 0.71174 0.31523 0.70346 0.0
H1839 H 0.67917 0.37594 0.73049 0.0
C1840 C 0.65391 0.36173 0.69918 0.0
C1841 C 0.64665 0.34517 0.67775 0.0
C1842 C 0.71866 0.33007 0.718 0.0
C1843 C 0.68652 0.34749 0.70764 0.0
C1844 C 0.7388 0.33123 0.73204 0.0
C1845 C 0.74836 0.35027 0.7509 0.0
C1846 C 0.70784 0.3481 0.72281 0.0
C1847 C 0.7371 0.36796 0.7552 0.0
C1848 C 0.67384 0.36303 0.71408 0.0
C1849 C 0.65989 0.33007 0.67201 0.0
N1850 N 0.71741 0.36644 0.74131 0.0
N1851 N 0.67904 0.33156 0.68683 0.0
H1852 H 0.06103 0.38514 0.98667 0.0
H1853 H 0.0149 0.50339 0.97538 0.0
H1854 H 1.00626 0.38803 0.93282 0.0
H1855 H 0.07431 0.50344 0.02293 0.0
H1856 H 0.01075 0.4607 0.96072 0.0
H1857 H 0.06523 0.42787 1.0016 0.0
C1858 C 0.04983 0.39469 0.97803 0.0
C1859 C 0.03327 0.3829 0.95841 0.0
C1860 C 0.02473 0.47006 0.97431 0.0
C1861 C 0.03804 0.43193 0.97542 0.0
C1862 C 0.02713 0.49449 0.9827 0.0
C1863 C 0.04502 0.50714 1.00041 0.0
C1864 C 0.04025 0.45803 0.98377 0.0
C1865 C 0.0603 0.49453 0.00919 0.0
C1866 C 0.05229 0.41914 0.98652 0.0
C1867 C 0.01929 0.39631 0.94795 0.0
N1868 N 0.05753 0.4707 1.00085 0.0
N1869 N 0.02199 0.42003 0.95657 0.0
H1870 H 1.00547 0.8586 0.13693 0.0
H1871 H 0.96397 0.84777 0.26343 0.0
H1872 H 0.04501 0.84826 0.20314 0.0
H1873 H 0.92344 0.85143 0.1953 0.0
H1874 H 0.99392 0.84847 0.24206 0.0
H1875 H 0.97551 0.85643 0.1583 0.0
C1876 C 0.00789 0.85587 0.156 0.0
C1877 C 0.02788 0.85367 0.16824 0.0
C1878 C 0.97848 0.84906 0.23177 0.0
C1879 C 0.99341 0.8512 0.19296 0.0
C1880 C 0.96136 0.84882 0.24398 0.0
C1881 C 0.9411 0.84968 0.2312 0.0
C1882 C 0.97543 0.85028 0.20653 0.0
C1883 C 0.93866 0.85055 0.20592 0.0
C1884 C 0.9907 0.85459 0.1682 0.0
C1885 C 0.02992 0.85007 0.19295 0.0
N1886 N 0.95561 0.85094 0.19447 0.0
N1887 N 0.01293 0.84902 0.20451 0.0
H1888 H 0.59894 0.43859 0.1533 0.0
H1889 H 0.55206 0.49486 0.03569 0.0
H1890 H 0.56631 0.39461 0.08527 0.0
H1891 H 0.58913 0.53799 0.10244 0.0
H1892 H 0.55724 0.45811 0.05298 0.0
H1893 H 0.5957 0.47496 0.13454 0.0
C1894 C 0.59114 0.43652 0.13433 0.0
C1895 C 0.58287 0.41334 0.12091 0.0
C1896 C 0.56432 0.47562 0.06381 0.0
C1897 C 0.57896 0.45535 0.09917 0.0
C1898 C 0.56137 0.49668 0.05395 0.0
C1899 C 0.57016 0.51972 0.06758 0.0
C1900 C 0.57608 0.47744 0.0876 0.0
C1901 C 0.58205 0.52075 0.09117 0.0
C1902 C 0.5893 0.45741 0.12361 0.0
C1903 C 0.57298 0.41203 0.09636 0.0
N1904 N 0.58458 0.49999 0.1004 0.0
N1905 N 0.57122 0.4327 0.08634 0.0
H1906 H 0.97866 0.3463 0.37801 0.0
H1907 H 0.86167 0.27949 0.30001 0.0
H1908 H 0.95545 0.26843 0.36158 0.0
H1909 H 0.88335 0.35708 0.32059 0.0
H1910 H 0.8966 0.27527 0.32039 0.0
H1911 H 0.94464 0.35072 0.35514 0.0
C1912 C 0.96646 0.33011 0.36953 0.0
C1913 C 0.96998 0.30693 0.37183 0.0
C1914 C 0.89375 0.29324 0.32038 0.0
C1915 C 0.93083 0.3119 0.34553 0.0
C1916 C 0.87377 0.29569 0.30867 0.0
C1917 C 0.86941 0.3187 0.30856 0.0
C1918 C 0.90962 0.31392 0.3321 0.0
C1919 C 0.88585 0.33896 0.32018 0.0
C1920 C 0.94699 0.33266 0.35648 0.0
C1921 C 0.9535 0.28666 0.36039 0.0
N1922 N 0.90514 0.33608 0.33149 0.0
N1923 N 0.93468 0.28961 0.34781 0.0
H1924 H 0.081 0.74792 0.6458 0.0
H1925 H 0.0311 0.66273 0.51851 0.0
H1926 H 0.05199 0.77368 0.58145 0.0
H1927 H 0.07048 0.6414 0.57831 0.0
H1928 H 0.03623 0.70235 0.54224 0.0
H1929 H 0.07483 0.70799 0.62256 0.0
C1930 C 0.0733 0.74524 0.62676 0.0
C1931 C 0.06705 0.76439 0.61562 0.0
C1932 C 0.04363 0.68898 0.55031 0.0
C1933 C 0.05988 0.71829 0.58875 0.0
C1934 C 0.04066 0.6663 0.53679 0.0
C1935 C 0.05001 0.64852 0.54667 0.0
C1936 C 0.0561 0.69407 0.57399 0.0
C1937 C 0.06243 0.65428 0.57032 0.0
C1938 C 0.06982 0.72234 0.61347 0.0
C1939 C 0.05713 0.75959 0.59085 0.0
N1940 N 0.06508 0.67651 0.58319 0.0
N1941 N 0.05384 0.73707 0.5783 0.0
H1942 H 0.61657 0.83767 0.92709 0.0
H1943 H 0.64744 0.80207 0.79839 0.0
H1944 H 0.56967 0.81476 0.86022 0.0
H1945 H 0.69297 0.82138 0.86656 0.0
H1946 H 0.61897 0.80791 0.82011 0.0
H1947 H 0.64483 0.83344 0.90463 0.0
C1948 C 0.61217 0.83182 0.90764 0.0
C1949 C 0.59061 0.82652 0.89559 0.0
C1950 C 0.6352 0.81091 0.8303 0.0
C1951 C 0.62314 0.82156 0.86961 0.0
C1952 C 0.6515 0.80745 0.81793 0.0
C1953 C 0.67277 0.81116 0.83059 0.0
C1954 C 0.6401 0.81816 0.8556 0.0
C1955 C 0.67697 0.81858 0.85587 0.0
C1956 C 0.62838 0.82937 0.8948 0.0
C1957 C 0.58603 0.81903 0.87032 0.0
N1958 N 0.66083 0.82176 0.86748 0.0
N1959 N 0.60213 0.81673 0.85819 0.0
H1960 H 0.46396 0.61484 0.66042 0.0
H1961 H 0.51897 0.5469 0.5687 0.0
H1962 H 0.44103 0.53912 0.63082 0.0
H1963 H 0.53923 0.62439 0.59001 0.0
H1964 H 0.49037 0.5444 0.59184 0.0
H1965 H 0.49102 0.6196 0.63445 0.0
C1966 C 0.46445 0.59928 0.64826 0.0
C1967 C 0.45036 0.57646 0.64793 0.0
C1968 C 0.50098 0.56202 0.59153 0.0
C1969 C 0.48133 0.58178 0.61847 0.0
C1970 C 0.51738 0.56345 0.57836 0.0
C1971 C 0.53134 0.58592 0.57739 0.0
C1972 C 0.49856 0.5832 0.60408 0.0
C1973 C 0.52875 0.60673 0.59041 0.0
C1974 C 0.47993 0.60202 0.63352 0.0
C1975 C 0.45165 0.55699 0.6318 0.0
N1976 N 0.51256 0.60488 0.6033 0.0
N1977 N 0.46698 0.56007 0.61786 0.0
H1978 H 0.80435 0.27659 0.96716 0.0
H1979 H 0.76681 0.26287 0.82145 0.0
H1980 H 0.76452 0.21116 0.92319 0.0
H1981 H 0.81155 0.32692 0.86275 0.0
H1982 H 0.76425 0.24496 0.85922 0.0
H1983 H 0.80578 0.29651 0.92993 0.0
C1984 C 0.79585 0.26643 0.94975 0.0
C1985 C 0.78433 0.2421 0.94839 0.0
C1986 C 0.7746 0.26297 0.86009 0.0
C1987 C 0.78588 0.26481 0.90569 0.0
C1988 C 0.77604 0.27329 0.83844 0.0
C1989 C 0.78945 0.29653 0.83873 0.0
C1990 C 0.78662 0.27586 0.88243 0.0
C1991 C 0.801 0.30898 0.86151 0.0
C1992 C 0.7967 0.27781 0.92849 0.0
C1993 C 0.77367 0.22989 0.92525 0.0
N1994 N 0.79935 0.2985 0.88238 0.0
N1995 N 0.77471 0.24132 0.90495 0.0
H1996 H 0.12987 0.50962 0.17436 0.0
H1997 H 0.02602 0.51183 0.07759 0.0
H1998 H 0.06785 0.46021 0.17063 0.0
H1999 H 0.07953 0.57454 0.1011 0.0
H2000 H 0.04296 0.48975 0.10735 0.0
H2001 H 0.11371 0.53016 0.14241 0.0
C2002 C 0.11291 0.50286 0.16661 0.0
C2003 C 0.10014 0.48321 0.17527 0.0
C2004 C 0.05101 0.50833 0.10599 0.0
C2005 C 0.08162 0.50675 0.13884 0.0
C2006 C 0.04135 0.52098 0.08906 0.0
C2007 C 0.05151 0.545 0.08681 0.0
C2008 C 0.07107 0.51971 0.12062 0.0
C2009 C 0.07135 0.55594 0.10208 0.0
C2010 C 0.10369 0.51474 0.14853 0.0
C2011 C 0.07826 0.47534 0.16459 0.0
N2012 N 0.08058 0.54314 0.11829 0.0
N2013 N 0.06967 0.48716 0.14693 0.0
H2014 H 0.79452 0.9082 0.47779 0.0
H2015 H 0.84913 0.88126 0.36358 0.0
H2016 H 0.86272 0.91675 0.48212 0.0
H2017 H 0.78043 0.86113 0.35989 0.0
H2018 H 0.85401 0.89621 0.40669 0.0
H2019 H 0.78859 0.89217 0.43446 0.0
C2020 C 0.80822 0.90658 0.46972 0.0
C2021 C 0.82916 0.91389 0.4837 0.0
C2022 C 0.83784 0.88854 0.39649 0.0
C2023 C 0.82251 0.89581 0.43407 0.0
C2024 C 0.83503 0.88006 0.37176 0.0
C2025 C 0.81432 0.86989 0.35795 0.0
C2026 C 0.81985 0.88701 0.40766 0.0
C2027 C 0.79671 0.86881 0.36975 0.0
C2028 C 0.80483 0.89747 0.44497 0.0
C2029 C 0.84629 0.9114 0.47218 0.0
N2030 N 0.79986 0.87728 0.39389 0.0
N2031 N 0.84259 0.90272 0.44813 0.0
H2032 H 0.48199 0.52277 0.74121 0.0
H2033 H 0.52097 0.60382 0.87117 0.0
H2034 H 0.4609 0.5868 0.76123 0.0
H2035 H 0.52655 0.53014 0.85751 0.0
H2036 H 0.50756 0.60286 0.82759 0.0
H2037 H 0.50693 0.53055 0.78049 0.0
C2038 C 0.48283 0.53864 0.75371 0.0
C2039 C 0.46908 0.5539 0.74822 0.0
C2040 C 0.51204 0.58705 0.83413 0.0
C2041 C 0.49751 0.56291 0.79293 0.0
C2042 C 0.51961 0.58755 0.85899 0.0
C2043 C 0.52449 0.56687 0.86809 0.0
C2044 C 0.50936 0.56574 0.81828 0.0
C2045 C 0.52299 0.54652 0.85137 0.0
C2046 C 0.49702 0.54304 0.7761 0.0
C2047 C 0.47094 0.57432 0.76496 0.0
N2048 N 0.51528 0.54635 0.8273 0.0
N2049 N 0.48474 0.57811 0.78667 0.0
H2050 H 0.84575 0.28669 0.0949 0.0
H2051 H 0.79035 0.28823 0.21275 0.0
H2052 H 0.78203 0.24325 0.0952 0.0
H2053 H 0.84523 0.34346 0.20398 0.0
H2054 H 0.7891 0.26805 0.17177 0.0
H2055 H 0.84772 0.30454 0.1367 0.0
C2056 C 0.83215 0.28088 0.10372 0.0
C2057 C 0.81366 0.26349 0.09137 0.0
C2058 C 0.80149 0.28451 0.17888 0.0
C2059 C 0.8159 0.28378 0.13953 0.0
C2060 C 0.80233 0.29586 0.20234 0.0
C2061 C 0.81811 0.31731 0.21186 0.0
C2062 C 0.81657 0.29472 0.16488 0.0
C2063 C 0.83288 0.32685 0.19737 0.0
C2064 C 0.83329 0.29111 0.12763 0.0
C2065 C 0.79657 0.2567 0.10389 0.0
N2066 N 0.8318 0.31549 0.1747 0.0
N2067 N 0.79813 0.26678 0.12726 0.0
H2068 H 0.12793 0.44839 0.32707 0.0
H2069 H 0.03631 0.511 0.35471 0.0
H2070 H 0.0835 0.46929 0.2717 0.0
H2071 H 0.07671 0.4849 0.41016 0.0
H2072 H 0.04944 0.48956 0.32348 0.0
H2073 H 0.10583 0.45537 0.3569 0.0
C2074 C 0.11335 0.45405 0.32108 0.0
C2075 C 0.10779 0.45876 0.29697 0.0
C2076 C 0.05525 0.48822 0.34246 0.0
C2077 C 0.08255 0.46697 0.33103 0.0
C2078 C 0.04762 0.50035 0.36036 0.0
C2079 C 0.05567 0.5001 0.38516 0.0
C2080 C 0.07125 0.47595 0.34936 0.0
C2081 C 0.07051 0.48616 0.39128 0.0
C2082 C 0.10073 0.45806 0.33814 0.0
C2083 C 0.0886 0.46582 0.29018 0.0
N2084 N 0.07807 0.47493 0.3735 0.0
N2085 N 0.07686 0.47007 0.30721 0.0
H2086 H 0.83009 0.9311 0.62893 0.0
H2087 H 0.78332 0.81121 0.68847 0.0
H2088 H 0.79604 0.86235 0.58664 0.0
H2089 H 0.81205 0.88149 0.73026 0.0
H2090 H 0.78994 0.82895 0.65119 0.0
H2091 H 0.82583 0.91264 0.66634 0.0
C2092 C 0.82181 0.91209 0.62746 0.0
C2093 C 0.81337 0.89832 0.60449 0.0
C2094 C 0.79486 0.8405 0.66851 0.0
C2095 C 0.80838 0.87701 0.64744 0.0
C2096 C 0.79109 0.83036 0.68981 0.0
C2097 C 0.79708 0.84489 0.71251 0.0
C2098 C 0.80476 0.86539 0.66987 0.0
C2099 C 0.80715 0.8696 0.71315 0.0
C2100 C 0.81934 0.90156 0.64888 0.0
C2101 C 0.80279 0.87374 0.60386 0.0
N2102 N 0.81063 0.87906 0.69219 0.0
N2103 N 0.80058 0.86393 0.62495 0.0
H2104 H 0.73303 0.443 0.53439 0.0
H2105 H 0.70627 0.57275 0.52647 0.0
H2106 H 0.78058 0.50797 0.52873 0.0
H2107 H 0.6615 0.50883 0.54004 0.0
H2108 H 0.73356 0.54957 0.5266 0.0
H2109 H 0.70654 0.4669 0.53551 0.0
C2110 C 0.73794 0.46232 0.53337 0.0
C2111 C 0.75913 0.47344 0.53143 0.0
C2112 C 0.71777 0.54064 0.52959 0.0
C2113 C 0.72866 0.50107 0.53267 0.0
C2114 C 0.70217 0.55391 0.52966 0.0
C2115 C 0.68142 0.5428 0.53322 0.0
C2116 C 0.71266 0.516 0.53305 0.0
C2117 C 0.67708 0.51816 0.53683 0.0
C2118 C 0.72276 0.47599 0.53405 0.0
C2119 C 0.76446 0.49859 0.53025 0.0
N2120 N 0.6925 0.50566 0.53661 0.0
N2121 N 0.74933 0.51153 0.53083 0.0
H2122 H 0.22322 0.15292 0.51065 0.0
H2123 H 0.10362 0.14575 0.53183 0.0
H2124 H 0.19154 0.21081 0.49935 0.0
H2125 H 0.12505 0.08133 0.51469 0.0
H2126 H 0.13798 0.17067 0.52593 0.0
H2127 H 0.18933 0.12702 0.51728 0.0
C2128 C 0.20915 0.16016 0.50947 0.0
C2129 C 0.21024 0.18408 0.50435 0.0
C2130 C 0.1352 0.15109 0.52352 0.0
C2131 C 0.17159 0.1547 0.51236 0.0
C2132 C 0.11564 0.13684 0.52703 0.0
C2133 C 0.11143 0.1114 0.52365 0.0
C2134 C 0.15088 0.1399 0.51691 0.0
C2135 C 0.12762 0.10088 0.51739 0.0
C2136 C 0.18983 0.14537 0.51324 0.0
C2137 C 0.19148 0.19248 0.50309 0.0
N2138 N 0.14666 0.11516 0.51426 0.0
N2139 N 0.17303 0.17791 0.50725 0.0
H2140 H 0.26916 0.08008 0.89948 0.0
H2141 H 0.26074 0.94927 0.84072 0.0
H2142 H 0.21386 0.02078 0.89816 0.0
H2143 H 0.32284 0.9974 0.87221 0.0
H2144 H 0.24375 0.97516 0.86286 0.0
H2145 H 0.28995 0.05064 0.89147 0.0
C2146 C 0.26151 0.06088 0.898 0.0
C2147 C 0.23963 0.05284 0.89898 0.0
C2148 C 0.26113 0.97988 0.86525 0.0
C2149 C 0.26318 0.01924 0.8895 0.0
C2150 C 0.27095 0.96498 0.85265 0.0
C2151 C 0.29339 0.97104 0.85445 0.0
C2152 C 0.27368 1.00142 0.87934 0.0
C2153 C 0.30548 0.99221 0.86975 0.0
C2154 C 0.2734 0.04411 0.89348 0.0
C2155 C 0.2306 0.02779 0.89721 0.0
N2156 N 0.29544 0.00685 0.88133 0.0
N2157 N 0.2423 0.01186 0.89204 0.0
H2158 H 0.37466 0.99137 0.01141 0.0
H2159 H 0.49431 0.06081 0.07932 0.0
H2160 H 0.39519 1.00224 0.08971 0.0
H2161 H 0.4743 0.04615 1.00098 0.0
H2162 H 0.45757 0.04198 0.08361 0.0
H2163 H 0.41045 0.01389 0.00741 0.0
C2164 C 0.38665 0.99859 0.02779 0.0
C2165 C 0.38188 0.99478 0.05095 0.0
C2166 C 0.46121 0.04298 0.06548 0.0
C2167 C 0.42305 0.02061 0.04646 0.0
C2168 C 0.48222 0.05378 0.063 0.0
C2169 C 0.48753 0.05502 0.03973 0.0
C2170 C 0.44533 0.03332 0.04457 0.0
C2171 C 0.47107 0.04557 0.01929 0.0
C2172 C 0.40713 0.01144 0.02548 0.0
C2173 C 0.39812 0.00464 0.07149 0.0
N2174 N 0.45078 0.03508 0.0222 0.0
N2175 N 0.41797 0.01701 0.06876 0.0
H2176 H 0.90859 0.71946 0.82927 0.0
H2177 H 0.84891 0.79144 0.73886 0.0
H2178 H 0.92106 0.72438 0.75626 0.0
H2179 H 0.8193 0.75638 0.79444 0.0
H2180 H 0.87629 0.76842 0.74509 0.0
H2181 H 0.87723 0.73597 0.81821 0.0
C2182 C 0.90484 0.72423 0.81101 0.0
C2183 C 0.91743 0.7207 0.79367 0.0
C2184 C 0.86353 0.76539 0.75554 0.0
C2185 C 0.88169 0.73928 0.78091 0.0
C2186 C 0.84787 0.7784 0.75191 0.0
C2187 C 0.83191 0.77578 0.76621 0.0
C2188 C 0.86346 0.75016 0.77399 0.0
C2189 C 0.83129 0.75878 0.78296 0.0
C2190 C 0.88683 0.73332 0.80463 0.0
C2191 C 0.91174 0.72687 0.77017 0.0
N2192 N 0.84716 0.74694 0.78677 0.0
N2193 N 0.89435 0.73605 0.76451 0.0
H2194 H 0.81931 0.66516 0.99919 0.0
H2195 H 0.94455 0.66798 0.03349 0.0
H2196 H 0.86849 0.72922 0.03296 0.0
H2197 H 0.89624 0.60631 0.9929 0.0
H2198 H 0.91689 0.6905 0.03412 0.0
H2199 H 0.84714 0.64296 0.99774 0.0
C2200 C 0.83595 0.67457 0.00631 0.0
C2201 C 0.84153 0.69913 0.01622 0.0
C2202 C 0.91235 0.67204 0.02506 0.0
C2203 C 0.87354 0.67376 0.01463 0.0
C2204 C 0.92819 0.65919 0.02456 0.0
C2205 C 0.9228 0.63511 0.01318 0.0
C2206 C 0.89089 0.66078 0.01415 0.0
C2207 C 0.90117 0.62464 1.00227 0.0
C2208 C 0.85185 0.66188 0.00545 0.0
C2209 C 0.86339 0.71034 0.02515 0.0
N2210 N 0.88606 0.6375 1.00306 0.0
N2211 N 0.87856 0.69758 0.02418 0.0
H2212 H 0.20479 0.18066 0.82674 0.0
H2213 H 0.3167 0.28055 0.84652 0.0
H2214 H 0.25828 0.18177 0.88422 0.0
H2215 H 0.26863 0.26566 0.78051 0.0
H2216 H 0.29446 0.2474 0.86324 0.0
H2217 H 0.22655 0.21571 0.81283 0.0
C2218 C 0.22107 0.18839 0.83661 0.0
C2219 C 0.22979 0.1781 0.85657 0.0
C2220 C 0.28883 0.25141 0.8451 0.0
C2221 C 0.25489 0.21822 0.84054 0.0
C2222 C 0.30151 0.27023 0.83554 0.0
C2223 C 0.2944 0.27583 0.81217 0.0
C2224 C 0.26888 0.2383 0.83119 0.0
C2225 C 0.27462 0.26199 0.79868 0.0
C2226 C 0.23353 0.20836 0.82855 0.0
C2227 C 0.25095 0.18905 0.86868 0.0
N2228 N 0.2625 0.24394 0.80843 0.0
N2229 N 0.26285 0.20848 0.86039 0.0
H2230 H 0.48138 0.09979 0.31464 0.0
H2231 H 0.36537 0.00677 0.29125 0.0
H2232 H 0.42187 0.1198 0.29112 0.0
H2233 H 0.4248 0.98683 0.31522 0.0
H2234 H 0.38602 0.04745 0.28743 0.0
H2235 H 0.46118 0.05747 0.31125 0.0
C2236 C 0.4641 0.09526 0.30854 0.0
C2237 C 0.45329 0.11339 0.30338 0.0
C2238 C 0.39455 0.03414 0.29341 0.0
C2239 C 0.43006 0.06504 0.29962 0.0
C2240 C 0.38277 0.01088 0.29548 0.0
C2241 C 0.39338 0.99346 0.30379 0.0
C2242 C 0.41711 0.04002 0.29969 0.0
C2243 C 0.41595 0.99986 0.30922 0.0
C2244 C 0.45257 0.0711 0.30665 0.0
C2245 C 0.43088 0.10645 0.29546 0.0
N2246 N 0.42706 0.02264 0.30719 0.0
N2247 N 0.41999 0.08286 0.29401 0.0
H2248 H 0.53955 0.37886 0.56471 0.0
H2249 H 0.59134 0.51798 0.55151 0.0
H2250 H 0.59832 0.42093 0.61124 0.0
H2251 H 0.52474 0.48145 0.52362 0.0
H2252 H 0.59664 0.48103 0.56848 0.0
H2253 H 0.53647 0.41466 0.54467 0.0
C2254 C 0.55193 0.39557 0.57064 0.0
C2255 C 0.5692 0.3968 0.58984 0.0
C2256 C 0.58091 0.4811 0.55852 0.0
C2257 C 0.56574 0.4381 0.56671 0.0
C2258 C 0.57787 0.50215 0.54867 0.0
C2259 C 0.5575 0.50295 0.53614 0.0
C2260 C 0.56354 0.46052 0.55557 0.0
C2261 C 0.54069 0.48181 0.5332 0.0
C2262 C 0.5501 0.41608 0.5592 0.0
C2263 C 0.58468 0.4191 0.59663 0.0
N2264 N 0.54409 0.46155 0.54281 0.0
N2265 N 0.5826 0.43884 0.58509 0.0
H2266 H 0.45553 0.78491 0.35017 0.0
H2267 H 0.35358 0.84212 0.3243 0.0
H2268 H 0.44146 0.83644 0.40198 0.0
H2269 H 0.35713 0.77653 0.28294 0.0
H2270 H 0.38817 0.8434 0.35018 0.0
H2271 H 0.42169 0.78424 0.32277 0.0
C2272 C 0.44536 0.79605 0.35581 0.0
C2273 C 0.45136 0.81067 0.3785 0.0
C2274 C 0.38146 0.82878 0.33536 0.0
C2275 C 0.41276 0.81023 0.3471 0.0
C2276 C 0.36181 0.82819 0.32045 0.0
C2277 C 0.35258 0.80932 0.30132 0.0
C2278 C 0.39211 0.81046 0.33104 0.0
C2279 C 0.36373 0.79143 0.29748 0.0
C2280 C 0.42603 0.79565 0.34017 0.0
C2281 C 0.4375 0.82476 0.38478 0.0
N2282 N 0.38293 0.79247 0.31215 0.0
N2283 N 0.41898 0.82427 0.36917 0.0
H2284 H 0.03098 0.77146 0.08977 0.0
H2285 H 0.09207 0.66449 0.08475 0.0
H2286 H 0.09855 0.7821 0.11909 0.0
H2287 H 0.02572 0.65635 0.05123 0.0
H2288 H 0.09477 0.70723 0.09834 0.0
H2289 H 0.0289 0.72912 0.0759 0.0
C2290 C 0.04543 0.76495 0.09321 0.0
C2291 C 0.06497 0.78045 0.10565 0.0
C2292 C 0.07962 0.69606 0.08804 0.0
C2293 C 0.06265 0.73169 0.08993 0.0
C2294 C 0.07803 0.67159 0.08035 0.0
C2295 C 0.05862 0.65666 0.06683 0.0
C2296 C 0.06167 0.70572 0.08224 0.0
C2297 C 0.04103 0.66703 0.06161 0.0
C2298 C 0.04422 0.7407 0.0853 0.0
C2299 C 0.08315 0.77088 0.10952 0.0
N2300 N 0.04299 0.69082 0.0693 0.0
N2301 N 0.08152 0.74712 0.10179 0.0
H2302 H 0.08936 0.36729 0.89323 0.0
H2303 H 0.13949 0.28535 0.80727 0.0
H2304 H 0.05546 0.29505 0.85896 0.0
H2305 H 0.17511 0.35438 0.84798 0.0
H2306 H 0.10806 0.28924 0.82433 0.0
H2307 H 0.12009 0.36369 0.87481 0.0
C2308 C 0.08829 0.35068 0.88171 0.0
C2309 C 0.06972 0.33142 0.87769 0.0
C2310 C 0.12275 0.30354 0.82953 0.0
C2311 C 0.1051 0.32717 0.85649 0.0
C2312 C 0.1408 0.30128 0.81991 0.0
C2313 C 0.16014 0.31952 0.82623 0.0
C2314 C 0.12391 0.32423 0.84561 0.0
C2315 C 0.16057 0.33996 0.84231 0.0
C2316 C 0.10593 0.34863 0.87123 0.0
C2317 C 0.0694 0.31036 0.86259 0.0
N2318 N 0.14278 0.34173 0.85143 0.0
N2319 N 0.08682 0.30879 0.85258 0.0
H2320 H 0.51766 0.7437 0.93381 0.0
H2321 H 0.56169 0.67813 0.04615 0.0
H2322 H 0.55804 0.78139 1.00136 0.0
H2323 H 0.52797 0.63807 0.97655 0.0
H2324 H 0.55785 0.71571 0.03043 0.0
H2325 H 0.51866 0.70481 0.94941 0.0
C2326 C 0.52661 0.74386 0.95196 0.0
C2327 C 0.53781 0.766 0.96624 0.0
C2328 C 0.55121 0.69875 0.01852 0.0
C2329 C 0.53903 0.72142 0.98422 0.0
C2330 C 0.55336 0.67714 0.02754 0.0
C2331 C 0.54519 0.65469 0.01271 0.0
C2332 C 0.54074 0.69825 0.99437 0.0
C2333 C 0.53455 0.65486 0.98871 0.0
C2334 C 0.52723 0.72161 0.96082 0.0
C2335 C 0.54919 0.76492 0.98959 0.0
N2336 N 0.53267 0.67626 0.98029 0.0
N2337 N 0.54949 0.74314 0.99776 0.0
H2338 H 0.12778 0.82258 0.69232 0.0
H2339 H 0.25318 0.88481 0.74227 0.0
H2340 H 0.16051 0.89089 0.67242 0.0
H2341 H 0.22337 0.80971 0.74638 0.0
H2342 H 0.21846 0.88952 0.7213 0.0
H2343 H 0.16176 0.81978 0.71679 0.0
C2344 C 0.14206 0.83708 0.69321 0.0
C2345 C 0.14124 0.85696 0.68016 0.0
C2346 C 0.21953 0.87204 0.7269 0.0
C2347 C 0.1803 0.85387 0.70827 0.0
C2348 C 0.23935 0.86936 0.73898 0.0
C2349 C 0.24132 0.84678 0.74605 0.0
C2350 C 0.20145 0.8521 0.72204 0.0
C2351 C 0.22275 0.82743 0.74117 0.0
C2352 C 0.1615 0.83543 0.70714 0.0
C2353 C 0.16035 0.87517 0.68204 0.0
N2354 N 0.20367 0.83053 0.72951 0.0
N2355 N 0.17906 0.87319 0.69579 0.0
H2356 H 0.05586 0.38593 0.48222 0.0
H2357 H 0.05005 0.52559 0.48421 0.0
H2358 H 0.0336 0.41707 0.41822 0.0
H2359 H 0.07286 0.49465 0.54793 0.0
H2360 H 0.04507 0.48643 0.45934 0.0
H2361 H 0.06321 0.42586 0.50638 0.0
C2362 C 0.05257 0.40112 0.47322 0.0
C2363 C 0.04401 0.39798 0.44811 0.0
C2364 C 0.05123 0.4882 0.47876 0.0
C2365 C 0.05239 0.4439 0.47572 0.0
C2366 C 0.05413 0.5106 0.49291 0.0
C2367 C 0.06189 0.51341 0.51814 0.0
C2368 C 0.05603 0.46836 0.48996 0.0
C2369 C 0.06682 0.49331 0.52854 0.0
C2370 C 0.05677 0.42396 0.48703 0.0
C2371 C 0.04011 0.41847 0.43751 0.0
N2372 N 0.06375 0.4717 0.51447 0.0
N2373 N 0.04427 0.44042 0.45131 0.0
H2374 H 0.49678 0.35252 0.13557 0.0
H2375 H 0.46101 0.35454 0.26586 0.0
H2376 H 0.53691 0.34185 0.20117 0.0
H2377 H 0.41988 0.35976 0.19871 0.0
H2378 H 0.48908 0.35016 0.24288 0.0
H2379 H 0.46862 0.35528 0.15866 0.0
C2380 C 0.4997 0.35071 0.15486 0.0
C2381 C 0.51934 0.34698 0.16641 0.0
C2382 C 0.4739 0.3522 0.23317 0.0
C2383 C 0.48695 0.35021 0.19314 0.0
C2384 C 0.45788 0.35485 0.2463 0.0
C2385 C 0.43799 0.3576 0.23426 0.0
C2386 C 0.47013 0.3524 0.20776 0.0
C2387 C 0.43481 0.35744 0.2088 0.0
C2388 C 0.48354 0.35228 0.16806 0.0
C2389 C 0.52206 0.34473 0.19147 0.0
N2390 N 0.4507 0.35499 0.19647 0.0
N2391 N 0.50609 0.34646 0.204 0.0
H2392 H 0.64186 0.63687 0.39977 0.0
H2393 H 0.5767 0.53502 0.46836 0.0
H2394 H 0.66828 0.58036 0.42968 0.0
H2395 H 0.55466 0.59651 0.4449 0.0
H2396 H 0.60851 0.54787 0.44967 0.0
H2397 H 0.60833 0.61979 0.41295 0.0
C2398 C 0.64068 0.62099 0.40931 0.0
C2399 C 0.65793 0.61011 0.41371 0.0
C2400 C 0.59643 0.55819 0.4481 0.0
C2401 C 0.61941 0.59018 0.42859 0.0
C2402 C 0.57818 0.55062 0.45837 0.0
C2403 C 0.56306 0.56455 0.45762 0.0
C2404 C 0.59931 0.57977 0.43714 0.0
C2405 C 0.56593 0.58516 0.44543 0.0
C2406 C 0.62146 0.61113 0.4167 0.0
C2407 C 0.65541 0.58944 0.42604 0.0
N2408 N 0.58378 0.59223 0.43577 0.0
N2409 N 0.63647 0.5801 0.43303 0.0
H2410 H 0.28483 0.86763 0.07952 0.0
H2411 H 0.33241 0.89387 0.22348 0.0
H2412 H 0.33243 0.93305 0.11299 0.0
H2413 H 0.28884 0.82666 0.18725 0.0
H2414 H 0.3332 0.90869 0.18363 0.0
H2415 H 0.28652 0.85258 0.11914 0.0
C2416 C 0.2957 0.87885 0.09518 0.0
C2417 C 0.30848 0.90169 0.09281 0.0
C2418 C 0.32356 0.89066 0.18445 0.0
C2419 C 0.31045 0.8845 0.13859 0.0
C2420 C 0.32312 0.88214 0.20722 0.0
C2421 C 0.31051 0.85893 0.20889 0.0
C2422 C 0.31124 0.87592 0.16315 0.0
C2423 C 0.29879 0.84467 0.18707 0.0
C2424 C 0.29667 0.87021 0.11788 0.0
C2425 C 0.32227 0.91533 0.11389 0.0
N2426 N 0.29939 0.85341 0.16526 0.0
N2427 N 0.32283 0.90658 0.13588 0.0
H2428 H 0.99463 0.61933 0.85751 0.0
H2429 H 0.06778 0.65157 0.98973 0.0
H2430 H 1.00591 0.69007 0.89851 0.0
H2431 H 0.03122 0.57895 0.95982 0.0
H2432 H 0.04957 0.66721 0.95475 0.0
H2433 H 0.01265 0.60537 0.89315 0.0
C2434 C 1.00099 0.632 0.87402 0.0
C2435 C 0.99879 0.65592 0.87507 0.0
C2436 C 0.04557 0.64789 0.95595 0.0
C2437 C 0.01954 0.63999 0.91596 0.0
C2438 C 0.05601 0.63896 0.97573 0.0
C2439 C 0.05102 0.61396 0.97746 0.0
C2440 C 0.03041 0.63158 0.9377 0.0
C2441 C 0.03554 0.59835 0.95907 0.0
C2442 C 0.01117 0.62394 0.8944 0.0
C2443 C 0.00723 0.67145 0.89701 0.0
N2444 N 0.02588 0.60741 0.93985 0.0
N2445 N 0.01742 0.66325 0.91665 0.0
H2446 H 0.24098 0.25528 0.58324 0.0
H2447 H 0.32645 0.31326 0.70544 0.0
H2448 H 0.309 0.26186 0.58804 0.0
H2449 H 0.25829 0.28631 0.70265 0.0
H2450 H 0.32102 0.29827 0.66191 0.0
H2451 H 0.24771 0.27102 0.62628 0.0
C2452 C 0.25739 0.26016 0.59329 0.0
C2453 C 0.27445 0.25716 0.58195 0.0
C2454 C 0.30732 0.2956 0.67093 0.0
C2455 C 0.28227 0.27525 0.63154 0.0
C2456 C 0.31038 0.30415 0.69575 0.0
C2457 C 0.2928 0.30101 0.70779 0.0
C2458 C 0.28651 0.28414 0.65801 0.0
C2459 C 0.27236 0.28909 0.69426 0.0
C2460 C 0.2612 0.26906 0.61797 0.0
C2461 C 0.29536 0.26383 0.59604 0.0
N2462 N 0.26979 0.28124 0.67015 0.0
N2463 N 0.2987 0.27259 0.62013 0.0
H2464 H 0.63463 0.56892 0.32773 0.0
H2465 H 0.64552 0.58688 0.18985 0.0
H2466 H 0.69523 0.58852 0.30345 0.0
H2467 H 0.58776 0.58754 0.21794 0.0
H2468 H 0.66235 0.57874 0.22957 0.0
H2469 H 0.6158 0.567 0.28569 0.0
C2470 C 0.64397 0.57242 0.31351 0.0
C2471 C 0.66653 0.57912 0.31909 0.0
C2472 C 0.64593 0.58047 0.22698 0.0
C2473 C 0.64513 0.57699 0.27115 0.0
C2474 C 0.63627 0.58496 0.20428 0.0
C2475 C 0.61527 0.58805 0.20067 0.0
C2476 C 0.63449 0.57896 0.24619 0.0
C2477 C 0.60411 0.58563 0.2201 0.0
C2478 C 0.63321 0.57145 0.28957 0.0
C2479 C 0.67782 0.58352 0.29998 0.0
N2480 N 0.6139 0.58133 0.24209 0.0
N2481 N 0.667 0.5825 0.27688 0.0
H2482 H 0.2938 0.8837 0.97168 0.0
H2483 H 0.3197 0.87832 0.83669 0.0
H2484 H 0.32663 0.94626 0.94223 0.0
H2485 H 0.27183 0.82274 0.85827 0.0
H2486 H 0.32461 0.90244 0.8764 0.0
H2487 H 0.28789 0.85967 0.93156 0.0
C2488 C 0.2998 0.89237 0.95684 0.0
C2489 C 0.31072 0.91706 0.96039 0.0
C2490 C 0.3129 0.88505 0.87243 0.0
C2491 C 0.30412 0.88967 0.91449 0.0
C2492 C 0.30994 0.87144 0.84964 0.0
C2493 C 0.29489 0.84891 0.8439 0.0
C2494 C 0.30107 0.87576 0.88991 0.0
C2495 C 0.28341 0.84022 0.86184 0.0
C2496 C 0.29636 0.87868 0.93393 0.0
C2497 C 0.31808 0.92732 0.94042 0.0
N2498 N 0.28675 0.85362 0.88405 0.0
N2499 N 0.31473 0.9136 0.91845 0.0
H2500 H 0.04474 0.70262 0.80227 0.0
H2501 H 0.02067 0.64817 0.66317 0.0
H2502 H 0.98412 0.69392 0.75326 0.0
H2503 H 0.08487 0.66784 0.70669 0.0
H2504 H 0.00838 0.66928 0.69507 0.0
H2505 H 0.06115 0.69447 0.76711 0.0
C2506 C 0.03499 0.69946 0.78411 0.0
C2507 C 0.01295 0.69847 0.78069 0.0
C2508 C 0.02523 0.66928 0.6976 0.0
C2509 C 0.03149 0.689 0.74059 0.0
C2510 C 0.03236 0.65732 0.67921 0.0
C2511 C 0.05389 0.65601 0.68218 0.0
C2512 C 0.03957 0.6797 0.71946 0.0
C2513 C 0.06803 0.66787 0.70379 0.0
C2514 C 0.04435 0.69476 0.76407 0.0
C2515 C 1.00109 0.6944 0.75678 0.0
N2516 N 0.06056 0.67895 0.72176 0.0
N2517 N 0.01044 0.68952 0.73771 0.0
H2518 H 0.28936 0.28303 0.46663 0.0
H2519 H 0.29576 0.27946 0.32453 0.0
H2520 H 0.27122 0.21774 0.41527 0.0
H2521 H 0.31558 0.34591 0.37421 0.0
H2522 H 0.28486 0.25724 0.35756 0.0
H2523 H 0.2972 0.30696 0.43323 0.0
C2524 C 0.28686 0.27373 0.44834 0.0
C2525 C 0.27969 0.24827 0.44383 0.0
C2526 C 0.29148 0.27669 0.36133 0.0
C2527 C 0.28871 0.27556 0.40553 0.0
C2528 C 0.29762 0.28945 0.34239 0.0
C2529 C 0.30644 0.31463 0.34655 0.0
C2530 C 0.29427 0.2891 0.38483 0.0
C2531 C 0.3088 0.3265 0.3702 0.0
C2532 C 0.2914 0.28741 0.42929 0.0
C2533 C 0.27679 0.23726 0.41973 0.0
N2534 N 0.3028 0.31363 0.38848 0.0
N2535 N 0.28136 0.25092 0.40161 0.0
H2536 H 0.32184 0.65388 0.46684 0.0
H2537 H 0.42616 0.62311 0.54251 0.0
H2538 H 0.34919 0.68381 0.54174 0.0
H2539 H 0.3985 0.59409 0.46745 0.0
H2540 H 0.39847 0.64569 0.54268 0.0
H2541 H 0.34988 0.63195 0.46694 0.0
C2542 C 0.33373 0.65586 0.48335 0.0
C2543 C 0.33308 0.67076 0.50432 0.0
C2544 C 0.39846 0.63438 0.52617 0.0
C2545 C 0.36543 0.64555 0.50455 0.0
C2546 C 0.41437 0.62157 0.526 0.0
C2547 C 0.41475 0.60658 0.50492 0.0
C2548 C 0.38274 0.6323 0.5051 0.0
C2549 C 0.39875 0.60509 0.48424 0.0
C2550 C 0.34979 0.64329 0.48338 0.0
C2551 C 0.34901 0.67254 0.52514 0.0
N2552 N 0.38348 0.61775 0.48486 0.0
N2553 N 0.3645 0.6601 0.52472 0.0
H2554 H 0.9107 0.95884 0.57068 0.0
H2555 H 0.98065 0.09126 0.56106 0.0
H2556 H 0.88125 0.01792 0.5561 0.0
H2557 H 1.00185 0.02607 0.54705 0.0
H2558 H 0.94504 0.06605 0.56346 0.0
H2559 H 0.94533 0.98463 0.56694 0.0
C2560 C 0.9115 0.9773 0.56684 0.0
C2561 C 0.89297 0.9862 0.56372 0.0
C2562 C 0.95748 0.05731 0.55974 0.0
C2563 C 0.93277 0.01594 0.55946 0.0
C2564 C 0.97778 0.07166 0.55839 0.0
C2565 C 0.99423 0.06074 0.55388 0.0
C2566 C 0.95375 0.03188 0.55699 0.0
C2567 C 0.98964 0.03527 0.55054 0.0
C2568 C 0.9313 0.99198 0.56455 0.0
C2569 C 0.89509 0.01028 0.55861 0.0
N2570 N 0.96993 0.02174 0.55238 0.0
N2571 N 0.91465 0.02436 0.55677 0.0
H2572 H 0.90677 0.14227 0.16928 0.0
H2573 H 0.79165 0.1579 0.1887 0.0
H2574 H 0.85296 0.08184 0.17017 0.0
H2575 H 0.85106 0.21365 0.21073 0.0
H2576 H 0.81155 0.13125 0.17158 0.0
H2577 H 0.88368 0.16995 0.17331 0.0
C2578 C 0.89002 0.13477 0.16994 0.0
C2579 C 0.88186 0.10975 0.16987 0.0
C2580 C 0.82008 0.14947 0.17988 0.0
C2581 C 0.85544 0.14133 0.17454 0.0
C2582 C 0.80879 0.16465 0.1898 0.0
C2583 C 0.81968 0.18803 0.20148 0.0
C2584 C 0.84236 0.15781 0.18148 0.0
C2585 C 0.84184 0.19594 0.20174 0.0
C2586 C 0.87688 0.1506 0.17231 0.0
C2587 C 0.85998 0.10106 0.17054 0.0
N2588 N 0.85244 0.18081 0.19208 0.0
N2589 N 0.84755 0.11687 0.17313 0.0
H2590 H 0.71506 0.21651 0.04671 0.0
H2591 H 0.62002 0.10014 0.98959 0.0
H2592 H 0.72525 0.16047 0.9967 0.0
H2593 H 0.62473 0.14115 0.05944 0.0
H2594 H 0.65625 0.12417 0.9875 0.0
H2595 H 0.67928 0.19152 0.04682 0.0
C2596 C 0.70975 0.19896 0.03563 0.0
C2597 C 0.72326 0.19056 0.02173 0.0
C2598 C 0.64928 0.12774 0.00327 0.0
C2599 C 0.68203 0.16178 0.02171 0.0
C2600 C 0.62862 0.11412 0.00445 0.0
C2601 C 0.61931 0.11856 0.02475 0.0
C2602 C 0.66043 0.14619 0.02228 0.0
C2603 C 0.63123 0.13691 0.04349 0.0
C2604 C 0.68931 0.18464 0.0358 0.0
C2605 C 0.71541 0.16759 0.00779 0.0
N2606 N 0.65102 0.15009 0.0417 0.0
N2607 N 0.69523 0.154 0.00804 0.0
H2608 H 0.17651 0.42215 0.26432 0.0
H2609 H 0.29718 0.41307 0.26869 0.0
H2610 H 0.2218 0.47169 0.23218 0.0
H2611 H 0.25385 0.37269 0.30999 0.0
H2612 H 0.27122 0.4371 0.2575 0.0
H2613 H 0.20537 0.4046 0.28187 0.0
C2614 C 0.1925 0.42922 0.26078 0.0
C2615 C 0.19673 0.44833 0.24665 0.0
C2616 C 0.26759 0.42326 0.26937 0.0
C2617 C 0.22999 0.42849 0.26699 0.0
C2618 C 0.2825 0.40973 0.27599 0.0
C2619 C 0.27749 0.39063 0.28998 0.0
C2620 C 0.24759 0.41749 0.27675 0.0
C2621 C 0.25819 0.38697 0.2988 0.0
C2622 C 0.20905 0.41935 0.27103 0.0
C2623 C 0.21783 0.4569 0.24289 0.0
N2624 N 0.24381 0.40002 0.29174 0.0
N2625 N 0.23369 0.44685 0.25294 0.0
H2626 H 0.28906 0.5082 0.04996 0.0
H2627 H 0.16595 0.49768 0.06108 0.0
H2628 H 0.24715 0.44399 0.06724 0.0
H2629 H 0.20898 0.56385 0.04942 0.0
H2630 H 0.19537 0.47755 0.06263 0.0
H2631 H 0.25978 0.52869 0.04868 0.0
C2632 C 0.27373 0.4984 0.05349 0.0
C2633 C 0.27062 0.47431 0.05873 0.0
C2634 C 0.19838 0.49648 0.05972 0.0
C2635 C 0.23696 0.49766 0.05725 0.0
C2636 C 0.18159 0.50805 0.05896 0.0
C2637 C 0.18488 0.53255 0.05508 0.0
C2638 C 0.21872 0.50944 0.05657 0.0
C2639 C 0.2055 0.54486 0.05207 0.0
C2640 C 0.25701 0.51012 0.05277 0.0
C2641 C 0.25036 0.46256 0.06315 0.0
N2642 N 0.22158 0.5332 0.05288 0.0
N2643 N 0.23435 0.47431 0.06228 0.0
H2644 H 0.83831 0.97962 0.16293 0.0
H2645 H 0.84244 0.90166 0.27485 0.0
H2646 H 0.89621 0.98533 0.21572 0.0
H2647 H 0.78974 0.88548 0.21329 0.0
H2648 H 0.86242 0.93285 0.25387 0.0
H2649 H 0.82019 0.94505 0.18114 0.0
C2650 C 0.84728 0.97345 0.17817 0.0
C2651 C 0.86877 0.98548 0.18789 0.0
C2652 C 0.84652 0.92237 0.24492 0.0
C2653 C 0.84806 0.94616 0.20904 0.0
C2654 C 0.83515 0.90462 0.2569 0.0
C2655 C 0.81446 0.89104 0.24577 0.0
C2656 C 0.837 0.92666 0.22179 0.0
C2657 C 0.80564 0.89565 0.22256 0.0
C2658 C 0.83692 0.95373 0.18859 0.0
C2659 C 0.87961 0.97665 0.20765 0.0
N2660 N 0.81691 0.91315 0.21139 0.0
N2661 N 0.86908 0.95768 0.21773 0.0
H2662 H 0.68599 0.03494 0.73738 0.0
H2663 H 0.6773 0.17105 0.7252 0.0
H2664 H 0.62578 0.05575 0.72438 0.0
H2665 H 0.73753 0.15054 0.73986 0.0
H2666 H 0.65814 0.12903 0.72593 0.0
H2667 H 0.7052 0.07742 0.73973 0.0
C2668 C 0.6768 0.04846 0.7351 0.0
C2669 C 0.65424 0.04181 0.73057 0.0
C2670 C 0.67555 0.13371 0.72905 0.0
C2671 C 0.67613 0.09043 0.73318 0.0
C2672 C 0.68648 0.15765 0.72849 0.0
C2673 C 0.70902 0.16421 0.73231 0.0
C2674 C 0.68724 0.11618 0.73341 0.0
C2675 C 0.72014 0.14626 0.73698 0.0
C2676 C 0.68779 0.07271 0.73645 0.0
C2677 C 0.64318 0.06008 0.72785 0.0
N2678 N 0.70912 0.12301 0.73729 0.0
N2679 N 0.65424 0.08357 0.7291 0.0
loop_
_geom_bond_atom_site_label_1
_geom_bond_atom_site_label_2
_geom_bond_distance
_geom_bond_site_symmetry_2
_ccdc_geom_bond_type
C0 O1 1.160 . S
C0 O7 1.185 . S
O1 C0 1.160 . S
O2 Zn3 1.899 . S
O2 C10 1.284 . S
Zn3 O2 1.899 . S
Zn3 O4 2.032 . S
Zn3 O7 2.086 . S
Zn3 O12 1.977 1_455 S
O4 Zn3 2.032 . S
O4 C8 1.278 . S
C5 O6 1.203 . S
C5 O12 1.267 . S
O6 C5 1.203 . S
O7 C0 1.185 . S
O7 Zn3 2.086 . S
C8 O4 1.278 . S
C8 O9 1.211 1_455 S
O9 C8 1.211 1_655 S
C10 O2 1.284 . S
C10 O11 1.273 . S
O11 C10 1.273 . S
O12 Zn3 1.977 1_655 S
O12 C5 1.267 . S
C13 O14 1.160 . S
C13 O20 1.185 . S
O14 C13 1.160 . S
O15 Zn16 1.899 . S
O15 C23 1.284 . S
Zn16 O15 1.899 . S
Zn16 O17 2.032 . S
Zn16 O20 2.086 . S
Zn16 O25 1.977 . S
O17 Zn16 2.032 . S
O17 C21 1.278 . S
C18 O19 1.203 . S
C18 O25 1.267 . S
O19 C18 1.203 . S
O20 C13 1.185 . S
O20 Zn16 2.086 . S
C21 O17 1.278 . S
C21 O22 1.211 . S
O22 C21 1.211 . S
C23 O15 1.284 . S
C23 O24 1.273 . S
O24 C23 1.273 . S
O25 Zn16 1.977 . S
O25 C18 1.267 . S
C26 O27 1.160 . S
C26 O33 1.185 . S
O27 C26 1.160 . S
O28 Zn29 1.899 . S
O28 C36 1.284 . S
Zn29 O28 1.899 . S
Zn29 O30 2.032 . S
Zn29 O33 2.086 . S
Zn29 O38 1.977 . S
O30 Zn29 2.032 . S
O30 C34 1.278 . S
C31 O32 1.203 . S
C31 O38 1.267 . S
O32 C31 1.203 . S
O33 C26 1.185 . S
O33 Zn29 2.086 . S
C34 O30 1.278 . S
C34 O35 1.211 . S
O35 C34 1.211 . S
C36 O28 1.284 . S
C36 O37 1.273 . S
O37 C36 1.273 . S
O38 Zn29 1.977 . S
O38 C31 1.267 . S
C39 O40 1.160 . S
C39 O46 1.185 . S
O40 C39 1.160 . S
O41 Zn42 1.899 . S
O41 C49 1.284 . S
Zn42 O41 1.899 . S
Zn42 O43 2.032 . S
Zn42 O46 2.086 . S
Zn42 O51 1.977 . S
O43 Zn42 2.032 . S
O43 C47 1.278 . S
C44 O45 1.203 . S
C44 O51 1.267 . S
O45 C44 1.203 . S
O46 C39 1.185 . S
O46 Zn42 2.086 . S
C47 O43 1.278 . S
C47 O48 1.211 . S
O48 C47 1.211 . S
C49 O41 1.284 . S
C49 O50 1.273 . S
O50 C49 1.273 . S
O51 Zn42 1.977 . S
O51 C44 1.267 . S
C52 O53 1.160 . S
C52 O59 1.185 . S
O53 C52 1.160 . S
O54 Zn55 1.899 . S
O54 C62 1.284 . S
Zn55 O54 1.899 . S
Zn55 O56 2.032 . S
Zn55 O59 2.086 . S
Zn55 O64 1.977 . S
O56 Zn55 2.032 . S
O56 C60 1.278 . S
C57 O58 1.203 . S
C57 O64 1.267 . S
O58 C57 1.203 . S
O59 C52 1.185 . S
O59 Zn55 2.086 . S
C60 O56 1.278 . S
C60 O61 1.211 . S
O61 C60 1.211 . S
C62 O54 1.284 . S
C62 O63 1.273 . S
O63 C62 1.273 . S
O64 Zn55 1.977 . S
O64 C57 1.267 . S
C65 O66 1.160 . S
C65 O72 1.185 . S
O66 C65 1.160 . S
O67 Zn68 1.899 . S
O67 C75 1.284 . S
Zn68 O67 1.899 . S
Zn68 O69 2.032 . S
Zn68 O72 2.086 . S
Zn68 O77 1.977 . S
O69 Zn68 2.032 . S
O69 C73 1.278 . S
C70 O71 1.203 . S
C70 O77 1.267 . S
O71 C70 1.203 . S
O72 C65 1.185 . S
O72 Zn68 2.086 . S
C73 O69 1.278 . S
C73 O74 1.211 . S
O74 C73 1.211 . S
C75 O67 1.284 . S
C75 O76 1.273 . S
O76 C75 1.273 . S
O77 Zn68 1.977 . S
O77 C70 1.267 . S
C78 O79 1.160 . S
C78 O85 1.185 . S
O79 C78 1.160 . S
O80 Zn81 1.899 . S
O80 C88 1.284 . S
Zn81 O80 1.899 . S
Zn81 O82 2.032 . S
Zn81 O85 2.086 . S
Zn81 O90 1.977 . S
O82 Zn81 2.032 . S
O82 C86 1.278 . S
C83 O84 1.203 . S
C83 O90 1.267 . S
O84 C83 1.203 . S
O85 C78 1.185 . S
O85 Zn81 2.086 . S
C86 O82 1.278 . S
C86 O87 1.211 . S
O87 C86 1.211 . S
C88 O80 1.284 . S
C88 O89 1.273 . S
O89 C88 1.273 . S
O90 Zn81 1.977 . S
O90 C83 1.267 . S
C91 O92 1.160 . S
C91 O98 1.185 . S
O92 C91 1.160 . S
O93 Zn94 1.899 . S
O93 C101 1.284 . S
Zn94 O93 1.899 . S
Zn94 O95 2.032 . S
Zn94 O98 2.086 . S
Zn94 O103 1.977 1_455 S
O95 Zn94 2.032 . S
O95 C99 1.278 . S
C96 O97 1.203 . S
C96 O103 1.267 . S
O97 C96 1.203 . S
O98 C91 1.185 . S
O98 Zn94 2.086 . S
C99 O95 1.278 . S
C99 O100 1.211 . S
O100 C99 1.211 . S
C101 O93 1.284 . S
C101 O102 1.273 . S
O102 C101 1.273 . S
O103 Zn94 1.977 1_655 S
O103 C96 1.267 . S
C104 O105 1.160 . S
C104 O111 1.185 . S
O105 C104 1.160 . S
O106 Zn107 1.899 . S
O106 C114 1.284 . S
Zn107 O106 1.899 . S
Zn107 O108 2.032 . S
Zn107 O111 2.086 . S
Zn107 O116 1.977 . S
O108 Zn107 2.032 . S
O108 C112 1.278 . S
C109 O110 1.203 . S
C109 O116 1.267 . S
O110 C109 1.203 . S
O111 C104 1.185 . S
O111 Zn107 2.086 . S
C112 O108 1.278 . S
C112 O113 1.211 . S
O113 C112 1.211 . S
C114 O106 1.284 . S
C114 O115 1.273 . S
O115 C114 1.273 . S
O116 Zn107 1.977 . S
O116 C109 1.267 . S
C117 O118 1.160 . S
C117 O124 1.185 . S
O118 C117 1.160 . S
O119 Zn120 1.899 . S
O119 C127 1.284 . S
Zn120 O119 1.899 . S
Zn120 O121 2.032 . S
Zn120 O124 2.086 . S
Zn120 O129 1.977 . S
O121 Zn120 2.032 . S
O121 C125 1.278 . S
C122 O123 1.203 . S
C122 O129 1.267 . S
O123 C122 1.203 . S
O124 C117 1.185 . S
O124 Zn120 2.086 . S
C125 O121 1.278 . S
C125 O126 1.211 . S
O126 C125 1.211 . S
C127 O119 1.284 . S
C127 O128 1.273 . S
O128 C127 1.273 . S
O129 Zn120 1.977 . S
O129 C122 1.267 . S
C130 O131 1.160 . S
C130 O137 1.185 . S
O131 C130 1.160 . S
O132 Zn133 1.899 . S
O132 C140 1.284 . S
Zn133 O132 1.899 . S
Zn133 O134 2.032 . S
Zn133 O137 2.086 . S
Zn133 O142 1.977 . S
O134 Zn133 2.032 . S
O134 C138 1.278 . S
C135 O136 1.203 . S
C135 O142 1.267 . S
O136 C135 1.203 . S
O137 C130 1.185 . S
O137 Zn133 2.086 . S
C138 O134 1.278 . S
C138 O139 1.211 . S
O139 C138 1.211 . S
C140 O132 1.284 . S
C140 O141 1.273 . S
O141 C140 1.273 . S
O142 Zn133 1.977 . S
O142 C135 1.267 . S
C143 O144 1.160 . S
C143 O150 1.185 . S
O144 C143 1.160 . S
O145 Zn146 1.899 . S
O145 C153 1.284 . S
Zn146 O145 1.899 . S
Zn146 O147 2.032 . S
Zn146 O150 2.086 . S
Zn146 O155 1.977 . S
O147 Zn146 2.032 . S
O147 C151 1.278 . S
C148 O149 1.203 . S
C148 O155 1.267 . S
O149 C148 1.203 . S
O150 C143 1.185 . S
O150 Zn146 2.086 . S
C151 O147 1.278 . S
C151 O152 1.211 . S
O152 C151 1.211 . S
C153 O145 1.284 . S
C153 O154 1.273 . S
O154 C153 1.273 . S
O155 Zn146 1.977 . S
O155 C148 1.267 . S
C156 O157 1.160 . S
C156 O163 1.185 . S
O157 C156 1.160 . S
O158 Zn159 1.899 . S
O158 C166 1.284 . S
Zn159 O158 1.899 . S
Zn159 O160 2.032 . S
Zn159 O163 2.086 . S
Zn159 O168 1.977 . S
O160 Zn159 2.032 . S
O160 C164 1.278 1_554 S
C161 O162 1.203 . S
C161 O168 1.267 . S
O162 C161 1.203 . S
O163 C156 1.185 . S
O163 Zn159 2.086 . S
C164 O160 1.278 1_556 S
C164 O165 1.211 . S
O165 C164 1.211 . S
C166 O158 1.284 . S
C166 O167 1.273 . S
O167 C166 1.273 . S
O168 Zn159 1.977 . S
O168 C161 1.267 . S
C169 O170 1.160 . S
C169 O176 1.185 1_554 S
O170 C169 1.160 . S
O171 Zn172 1.899 . S
O171 C179 1.284 . S
Zn172 O171 1.899 . S
Zn172 O173 2.032 1_554 S
Zn172 O176 2.086 1_554 S
Zn172 O181 1.977 1_554 S
O173 Zn172 2.032 1_556 S
O173 C177 1.278 . S
C174 O175 1.203 1_556 S
C174 O181 1.267 . S
O175 C174 1.203 1_554 S
O176 C169 1.185 1_556 S
O176 Zn172 2.086 1_556 S
C177 O173 1.278 . S
C177 O178 1.211 . S
O178 C177 1.211 . S
C179 O171 1.284 . S
C179 O180 1.273 . S
O180 C179 1.273 . S
O181 Zn172 1.977 1_556 S
O181 C174 1.267 . S
C182 O183 1.160 . S
C182 O189 1.185 . S
O183 C182 1.160 . S
O184 Zn185 1.899 . S
O184 C192 1.284 . S
Zn185 O184 1.899 . S
Zn185 O186 2.032 . S
Zn185 O189 2.086 . S
Zn185 O194 1.977 . S
O186 Zn185 2.032 . S
O186 C190 1.278 . S
C187 O188 1.203 . S
C187 O194 1.267 . S
O188 C187 1.203 . S
O189 C182 1.185 . S
O189 Zn185 2.086 . S
C190 O186 1.278 . S
C190 O191 1.211 . S
O191 C190 1.211 . S
C192 O184 1.284 . S
C192 O193 1.273 . S
O193 C192 1.273 . S
O194 Zn185 1.977 . S
O194 C187 1.267 . S
C195 O196 1.160 . S
C195 O202 1.185 . S
O196 C195 1.160 . S
O197 Zn198 1.899 . S
O197 C205 1.284 . S
Zn198 O197 1.899 . S
Zn198 O199 2.032 . S
Zn198 O202 2.086 . S
Zn198 O207 1.977 . S
O199 Zn198 2.032 . S
O199 C203 1.278 . S
C200 O201 1.203 . S
C200 O207 1.267 . S
O201 C200 1.203 . S
O202 C195 1.185 . S
O202 Zn198 2.086 . S
C203 O199 1.278 . S
C203 O204 1.211 . S
O204 C203 1.211 . S
C205 O197 1.284 . S
C205 O206 1.273 . S
O206 C205 1.273 . S
O207 Zn198 1.977 . S
O207 C200 1.267 . S
C208 O209 1.160 . S
C208 O215 1.185 . S
O209 C208 1.160 . S
O210 Zn211 1.899 . S
O210 C218 1.284 . S
Zn211 O210 1.899 . S
Zn211 O212 2.032 . S
Zn211 O215 2.086 . S
Zn211 O220 1.977 . S
O212 Zn211 2.032 . S
O212 C216 1.278 . S
C213 O214 1.203 . S
C213 O220 1.267 1_565 S
O214 C213 1.203 . S
O215 C208 1.185 . S
O215 Zn211 2.086 . S
C216 O212 1.278 . S
C216 O217 1.211 . S
O217 C216 1.211 . S
C218 O210 1.284 . S
C218 O219 1.273 . S
O219 C218 1.273 . S
O220 Zn211 1.977 . S
O220 C213 1.267 1_545 S
C221 O222 1.160 . S
C221 O228 1.185 . S
O222 C221 1.160 . S
O223 Zn224 1.899 . S
O223 C231 1.284 . S
Zn224 O223 1.899 . S
Zn224 O225 2.032 . S
Zn224 O228 2.086 . S
Zn224 O233 1.977 . S
O225 Zn224 2.032 . S
O225 C229 1.278 . S
C226 O227 1.203 . S
C226 O233 1.267 . S
O227 C226 1.203 . S
O228 C221 1.185 . S
O228 Zn224 2.086 . S
C229 O225 1.278 . S
C229 O230 1.211 . S
O230 C229 1.211 . S
C231 O223 1.284 . S
C231 O232 1.273 . S
O232 C231 1.273 . S
O233 Zn224 1.977 . S
O233 C226 1.267 . S
C234 O235 1.160 . S
C234 O241 1.185 . S
O235 C234 1.160 . S
O236 Zn237 1.899 . S
O236 C244 1.284 . S
Zn237 O236 1.899 . S
Zn237 O238 2.032 . S
Zn237 O241 2.086 . S
Zn237 O246 1.977 . S
O238 Zn237 2.032 . S
O238 C242 1.278 . S
C239 O240 1.203 . S
C239 O246 1.267 . S
O240 C239 1.203 . S
O241 C234 1.185 . S
O241 Zn237 2.086 . S
C242 O238 1.278 . S
C242 O243 1.211 . S
O243 C242 1.211 . S
C244 O236 1.284 . S
C244 O245 1.273 . S
O245 C244 1.273 . S
O246 Zn237 1.977 . S
O246 C239 1.267 . S
C247 O248 1.160 . S
C247 O254 1.185 . S
O248 C247 1.160 . S
O249 Zn250 1.899 . S
O249 C257 1.284 . S
Zn250 O249 1.899 . S
Zn250 O251 2.031 . S
Zn250 O254 2.085 . S
Zn250 O259 1.979 1_565 S
O251 Zn250 2.031 . S
O251 C255 1.278 1_565 S
C252 O253 1.203 . S
C252 O259 1.267 . S
O253 C252 1.203 . S
O254 C247 1.185 . S
O254 Zn250 2.085 . S
C255 O251 1.278 1_545 S
C255 O256 1.211 . S
O256 C255 1.211 . S
C257 O249 1.284 . S
C257 O258 1.273 1_565 S
O258 C257 1.273 1_545 S
O259 Zn250 1.979 1_545 S
O259 C252 1.267 . S
C260 O261 1.160 . S
C260 O267 1.185 . S
O261 C260 1.160 . S
O262 Zn263 1.899 . S
O262 C270 1.284 . S
Zn263 O262 1.899 . S
Zn263 O264 2.032 1_554 S
Zn263 O267 2.086 . S
Zn263 O272 1.977 . S
O264 Zn263 2.032 1_556 S
O264 C268 1.278 . S
C265 O266 1.203 . S
C265 O272 1.267 . S
O266 C265 1.203 . S
O267 C260 1.185 . S
O267 Zn263 2.086 . S
C268 O264 1.278 . S
C268 O269 1.211 . S
O269 C268 1.211 . S
C270 O262 1.284 . S
C270 O271 1.273 . S
O271 C270 1.273 . S
O272 Zn263 1.977 . S
O272 C265 1.267 . S
C273 O274 1.160 . S
C273 O280 1.185 . S
O274 C273 1.160 . S
O275 Zn276 1.899 . S
O275 C283 1.284 . S
Zn276 O275 1.899 . S
Zn276 O277 2.032 . S
Zn276 O280 2.086 . S
Zn276 O285 1.977 . S
O277 Zn276 2.032 . S
O277 C281 1.278 . S
C278 O279 1.203 . S
C278 O285 1.267 . S
O279 C278 1.203 . S
O280 C273 1.185 . S
O280 Zn276 2.086 . S
C281 O277 1.278 . S
C281 O282 1.211 . S
O282 C281 1.211 . S
C283 O275 1.284 . S
C283 O284 1.273 . S
O284 C283 1.273 . S
O285 Zn276 1.977 . S
O285 C278 1.267 . S
C286 O287 1.160 . S
C286 O293 1.185 . S
O287 C286 1.160 . S
O288 Zn289 1.899 . S
O288 C296 1.284 . S
Zn289 O288 1.899 . S
Zn289 O290 2.032 . S
Zn289 O293 2.086 . S
Zn289 O298 1.977 . S
O290 Zn289 2.032 . S
O290 C294 1.278 . S
C291 O292 1.203 . S
C291 O298 1.267 . S
O292 C291 1.203 . S
O293 C286 1.185 . S
O293 Zn289 2.086 . S
C294 O290 1.278 . S
C294 O295 1.211 . S
O295 C294 1.211 . S
C296 O288 1.284 . S
C296 O297 1.273 . S
O297 C296 1.273 . S
O298 Zn289 1.977 . S
O298 C291 1.267 . S
C299 O300 1.160 . S
C299 O306 1.185 . S
O300 C299 1.160 . S
O301 Zn302 1.899 . S
O301 C309 1.284 . S
Zn302 O301 1.899 . S
Zn302 O303 2.032 . S
Zn302 O306 2.086 . S
Zn302 O311 1.977 . S
O303 Zn302 2.032 . S
O303 C307 1.278 . S
C304 O305 1.203 . S
C304 O311 1.267 . S
O305 C304 1.203 . S
O306 C299 1.185 . S
O306 Zn302 2.086 . S
C307 O303 1.278 . S
C307 O308 1.211 . S
O308 C307 1.211 . S
C309 O301 1.284 . S
C309 O310 1.273 . S
O310 C309 1.273 . S
O311 Zn302 1.977 . S
O311 C304 1.267 . S
Pr312 C314 2.875 1_454 S
Pr312 O332 2.568 1_455 S
Pr312 O333 2.476 1_454 S
Pr312 O334 2.699 . S
Pr312 O335 2.491 1_554 S
Pr312 O337 2.437 . S
Pr312 O340 2.456 . S
Pr312 O342 2.446 . S
Pr313 C323 2.880 . S
Pr313 O334 2.473 . S
Pr313 O336 2.438 . S
Pr313 O338 2.562 . S
Pr313 O339 2.490 . S
Pr313 O340 2.695 . S
Pr313 O341 2.512 . S
Pr313 O343 2.437 . S
C314 Pr312 2.875 1_656 S
C314 C315 1.491 . S
C314 O332 1.254 1_556 S
C314 O333 1.225 . S
C315 C314 1.491 . S
C315 C316 1.392 . S
C315 C320 1.356 . S
C316 C315 1.392 . S
C316 C317 1.368 . S
C316 H344 0.929 . S
C317 C316 1.368 . S
C317 C318 1.386 . S
C317 H345 0.929 . S
C318 C317 1.386 . S
C318 C319 1.373 . S
C319 C318 1.373 . S
C319 C320 1.409 . S
C319 H346 0.931 . S
C320 C315 1.356 . S
C320 C319 1.409 . S
C320 H347 0.930 1_556 S
C321 O334 1.227 1_556 S
C321 O335 1.248 . S
C322 O336 1.267 . S
C322 O337 1.290 . S
C323 Pr313 2.880 . S
C323 C324 1.491 . S
C323 O338 1.254 . S
C323 O339 1.225 . S
C324 C323 1.491 . S
C324 C325 1.392 . S
C324 C329 1.356 . S
C325 C324 1.392 . S
C325 C326 1.368 . S
C325 H348 0.929 . S
C326 C325 1.368 . S
C326 C327 1.386 . S
C326 H349 0.929 . S
C327 C326 1.386 . S
C327 C328 1.373 . S
C328 C327 1.373 . S
C328 C329 1.409 . S
C328 H350 0.931 . S
C329 C324 1.356 . S
C329 C328 1.409 . S
C329 H351 0.930 . S
C330 O340 1.270 . S
C330 O341 1.248 . S
C331 O342 1.267 . S
C331 O343 1.278 . S
O332 Pr312 2.568 1_655 S
O332 C314 1.254 1_554 S
O333 Pr312 2.476 1_656 S
O333 C314 1.225 . S
O334 Pr312 2.699 . S
O334 Pr313 2.473 . S
O334 C321 1.227 1_554 S
O335 Pr312 2.491 1_556 S
O335 C321 1.248 . S
O336 Pr313 2.438 . S
O336 C322 1.267 . S
O337 Pr312 2.437 . S
O337 C322 1.290 . S
O338 Pr313 2.562 . S
O338 C323 1.254 . S
O339 Pr313 2.490 . S
O339 C323 1.225 . S
O340 Pr312 2.456 . S
O340 Pr313 2.695 . S
O340 C330 1.270 . S
O341 Pr313 2.512 . S
O341 C330 1.248 . S
O342 Pr312 2.446 . S
O342 C331 1.267 . S
O343 Pr313 2.437 . S
O343 C331 1.278 . S
H344 C316 0.929 . S
H345 C317 0.929 . S
H346 C319 0.931 . S
H347 C320 0.930 1_554 S
H348 C325 0.929 . S
H349 C326 0.929 . S
H350 C328 0.931 . S
H351 C329 0.930 . S
Pr352 C354 2.880 . S
Pr352 O372 2.562 . S
Pr352 O373 2.490 . S
Pr352 O374 2.695 . S
Pr352 O375 2.512 . S
Pr352 O377 2.437 . S
Pr352 O380 2.436 . S
Pr352 O382 2.438 . S
Pr353 C363 2.880 . S
Pr353 O374 2.436 . S
Pr353 O376 2.438 . S
Pr353 O378 2.562 . S
Pr353 O379 2.490 . S
Pr353 O380 2.695 . S
Pr353 O381 2.512 . S
Pr353 O383 2.437 . S
C354 Pr352 2.880 . S
C354 C355 1.491 . S
C354 O372 1.254 . S
C354 O373 1.225 . S
C355 C354 1.491 . S
C355 C356 1.392 . S
C355 C360 1.356 . S
C356 C355 1.392 . S
C356 C357 1.368 . S
C356 H384 0.929 . S
C357 C356 1.368 . S
C357 C358 1.386 . S
C357 H385 0.929 . S
C358 C357 1.386 . S
C358 C359 1.373 . S
C359 C358 1.373 . S
C359 C360 1.409 . S
C359 H386 0.931 . S
C360 C355 1.356 . S
C360 C359 1.409 . S
C360 H387 0.930 . S
C361 O374 1.270 . S
C361 O375 1.248 . S
C362 O376 1.267 . S
C362 O377 1.278 . S
C363 Pr353 2.880 . S
C363 C364 1.491 . S
C363 O378 1.254 . S
C363 O379 1.225 . S
C364 C363 1.491 . S
C364 C365 1.392 . S
C364 C369 1.356 . S
C365 C364 1.392 . S
C365 C366 1.368 . S
C365 H388 0.929 . S
C366 C365 1.368 . S
C366 C367 1.386 . S
C366 H389 0.929 . S
C367 C366 1.386 . S
C367 C368 1.373 . S
C368 C367 1.373 . S
C368 C369 1.409 . S
C368 H390 0.931 . S
C369 C364 1.356 . S
C369 C368 1.409 . S
C369 H391 0.930 . S
C370 O380 1.270 . S
C370 O381 1.248 . S
C371 O382 1.267 . S
C371 O383 1.278 . S
O372 Pr352 2.562 . S
O372 C354 1.254 . S
O373 Pr352 2.490 . S
O373 C354 1.225 . S
O374 Pr352 2.695 . S
O374 Pr353 2.436 . S
O374 C361 1.270 . S
O375 Pr352 2.512 . S
O375 C361 1.248 . S
O376 Pr353 2.438 . S
O376 C362 1.267 . S
O377 Pr352 2.437 . S
O377 C362 1.278 . S
O378 Pr353 2.562 . S
O378 C363 1.254 . S
O379 Pr353 2.490 . S
O379 C363 1.225 . S
O380 Pr352 2.436 . S
O380 Pr353 2.695 . S
O380 C370 1.270 . S
O381 Pr353 2.512 . S
O381 C370 1.248 . S
O382 Pr352 2.438 . S
O382 C371 1.267 . S
O383 Pr353 2.437 . S
O383 C371 1.278 . S
H384 C356 0.929 . S
H385 C357 0.929 . S
H386 C359 0.931 . S
H387 C360 0.930 . S
H388 C365 0.929 . S
H389 C366 0.929 . S
H390 C368 0.931 . S
H391 C369 0.930 . S
Pr392 C394 2.880 . S
Pr392 O412 2.562 . S
Pr392 O413 2.490 . S
Pr392 O414 2.695 . S
Pr392 O415 2.512 . S
Pr392 O417 2.437 . S
Pr392 O420 2.436 . S
Pr392 O422 2.438 . S
Pr393 C403 2.880 . S
Pr393 O414 2.436 . S
Pr393 O416 2.438 . S
Pr393 O418 2.562 . S
Pr393 O419 2.490 . S
Pr393 O420 2.695 . S
Pr393 O421 2.512 . S
Pr393 O423 2.437 . S
C394 Pr392 2.880 . S
C394 C395 1.491 . S
C394 O412 1.254 . S
C394 O413 1.225 . S
C395 C394 1.491 . S
C395 C396 1.392 . S
C395 C400 1.356 . S
C396 C395 1.392 . S
C396 C397 1.368 . S
C396 H424 0.929 . S
C397 C396 1.368 . S
C397 C398 1.386 . S
C397 H425 0.929 . S
C398 C397 1.386 . S
C398 C399 1.373 . S
C399 C398 1.373 . S
C399 C400 1.409 . S
C399 H426 0.931 . S
C400 C395 1.356 . S
C400 C399 1.409 . S
C400 H427 0.930 . S
C401 O414 1.270 . S
C401 O415 1.248 . S
C402 O416 1.267 . S
C402 O417 1.278 . S
C403 Pr393 2.880 . S
C403 C404 1.491 . S
C403 O418 1.254 . S
C403 O419 1.225 . S
C404 C403 1.491 . S
C404 C405 1.392 . S
C404 C409 1.356 . S
C405 C404 1.392 . S
C405 C406 1.368 . S
C405 H428 0.929 . S
C406 C405 1.368 . S
C406 C407 1.386 . S
C406 H429 0.929 . S
C407 C406 1.386 . S
C407 C408 1.373 . S
C408 C407 1.373 . S
C408 C409 1.409 . S
C408 H430 0.931 . S
C409 C404 1.356 . S
C409 C408 1.409 . S
C409 H431 0.930 . S
C410 O420 1.270 . S
C410 O421 1.248 . S
C411 O422 1.267 . S
C411 O423 1.278 . S
O412 Pr392 2.562 . S
O412 C394 1.254 . S
O413 Pr392 2.490 . S
O413 C394 1.225 . S
O414 Pr392 2.695 . S
O414 Pr393 2.436 . S
O414 C401 1.270 . S
O415 Pr392 2.512 . S
O415 C401 1.248 . S
O416 Pr393 2.438 . S
O416 C402 1.267 . S
O417 Pr392 2.437 . S
O417 C402 1.278 . S
O418 Pr393 2.562 . S
O418 C403 1.254 . S
O419 Pr393 2.490 . S
O419 C403 1.225 . S
O420 Pr392 2.436 . S
O420 Pr393 2.695 . S
O420 C410 1.270 . S
O421 Pr393 2.512 . S
O421 C410 1.248 . S
O422 Pr392 2.438 . S
O422 C411 1.267 . S
O423 Pr393 2.437 . S
O423 C411 1.278 . S
H424 C396 0.929 . S
H425 C397 0.929 . S
H426 C399 0.931 . S
H427 C400 0.930 . S
H428 C405 0.929 . S
H429 C406 0.929 . S
H430 C408 0.931 . S
H431 C409 0.930 . S
Pr432 C434 2.880 . S
Pr432 O452 2.562 . S
Pr432 O453 2.490 . S
Pr432 O454 2.695 . S
Pr432 O455 2.512 . S
Pr432 O457 2.437 . S
Pr432 O460 2.436 . S
Pr432 O462 2.438 . S
Pr433 C443 2.880 . S
Pr433 O454 2.436 . S
Pr433 O456 2.438 . S
Pr433 O458 2.562 . S
Pr433 O459 2.490 . S
Pr433 O460 2.695 . S
Pr433 O461 2.512 . S
Pr433 O463 2.437 . S
C434 Pr432 2.880 . S
C434 C435 1.491 . S
C434 O452 1.254 . S
C434 O453 1.225 . S
C435 C434 1.491 . S
C435 C436 1.392 . S
C435 C440 1.356 . S
C436 C435 1.392 . S
C436 C437 1.368 . S
C436 H464 0.929 . S
C437 C436 1.368 . S
C437 C438 1.386 . S
C437 H465 0.929 . S
C438 C437 1.386 . S
C438 C439 1.373 . S
C439 C438 1.373 . S
C439 C440 1.409 . S
C439 H466 0.931 . S
C440 C435 1.356 . S
C440 C439 1.409 . S
C440 H467 0.930 . S
C441 O454 1.270 . S
C441 O455 1.248 . S
C442 O456 1.267 . S
C442 O457 1.278 . S
C443 Pr433 2.880 . S
C443 C444 1.491 . S
C443 O458 1.254 . S
C443 O459 1.225 . S
C444 C443 1.491 . S
C444 C445 1.392 . S
C444 C449 1.356 . S
C445 C444 1.392 . S
C445 C446 1.368 . S
C445 H468 0.929 . S
C446 C445 1.368 . S
C446 C447 1.386 . S
C446 H469 0.929 . S
C447 C446 1.386 . S
C447 C448 1.373 . S
C448 C447 1.373 . S
C448 C449 1.409 . S
C448 H470 0.931 . S
C449 C444 1.356 . S
C449 C448 1.409 . S
C449 H471 0.930 . S
C450 O460 1.270 . S
C450 O461 1.248 . S
C451 O462 1.267 . S
C451 O463 1.278 . S
O452 Pr432 2.562 . S
O452 C434 1.254 . S
O453 Pr432 2.490 . S
O453 C434 1.225 . S
O454 Pr432 2.695 . S
O454 Pr433 2.436 . S
O454 C441 1.270 . S
O455 Pr432 2.512 . S
O455 C441 1.248 . S
O456 Pr433 2.438 . S
O456 C442 1.267 . S
O457 Pr432 2.437 . S
O457 C442 1.278 . S
O458 Pr433 2.562 . S
O458 C443 1.254 . S
O459 Pr433 2.490 . S
O459 C443 1.225 . S
O460 Pr432 2.436 . S
O460 Pr433 2.695 . S
O460 C450 1.270 . S
O461 Pr433 2.512 . S
O461 C450 1.248 . S
O462 Pr432 2.438 . S
O462 C451 1.267 . S
O463 Pr433 2.437 . S
O463 C451 1.278 . S
H464 C436 0.929 . S
H465 C437 0.929 . S
H466 C439 0.931 . S
H467 C440 0.930 . S
H468 C445 0.929 . S
H469 C446 0.929 . S
H470 C448 0.931 . S
H471 C449 0.930 . S
Pr472 C474 2.880 . S
Pr472 O492 2.562 . S
Pr472 O493 2.490 . S
Pr472 O494 2.695 . S
Pr472 O495 2.512 . S
Pr472 O497 2.437 . S
Pr472 O500 2.436 . S
Pr472 O502 2.438 . S
Pr473 C483 2.880 . S
Pr473 O494 2.436 . S
Pr473 O496 2.438 . S
Pr473 O498 2.562 . S
Pr473 O499 2.490 . S
Pr473 O500 2.695 . S
Pr473 O501 2.512 . S
Pr473 O503 2.437 . S
C474 Pr472 2.880 . S
C474 C475 1.491 . S
C474 O492 1.254 . S
C474 O493 1.225 . S
C475 C474 1.491 . S
C475 C476 1.392 . S
C475 C480 1.356 1_455 S
C476 C475 1.392 . S
C476 C477 1.368 . S
C476 H504 0.929 . S
C477 C476 1.368 . S
C477 C478 1.386 1_455 S
C477 H505 0.929 . S
C478 C477 1.386 1_655 S
C478 C479 1.373 . S
C479 C478 1.373 . S
C479 C480 1.409 . S
C479 H506 0.931 . S
C480 C475 1.356 1_655 S
C480 C479 1.409 . S
C480 H507 0.930 . S
C481 O494 1.270 . S
C481 O495 1.248 . S
C482 O496 1.267 . S
C482 O497 1.278 . S
C483 Pr473 2.880 . S
C483 C484 1.491 . S
C483 O498 1.254 . S
C483 O499 1.225 . S
C484 C483 1.491 . S
C484 C485 1.392 . S
C484 C489 1.356 . S
C485 C484 1.392 . S
C485 C486 1.368 . S
C485 H508 0.929 . S
C486 C485 1.368 . S
C486 C487 1.386 . S
C486 H509 0.929 . S
C487 C486 1.386 . S
C487 C488 1.373 . S
C488 C487 1.373 . S
C488 C489 1.409 . S
C488 H510 0.931 . S
C489 C484 1.356 . S
C489 C488 1.409 . S
C489 H511 0.930 . S
C490 O500 1.270 . S
C490 O501 1.248 . S
C491 O502 1.267 . S
C491 O503 1.278 . S
O492 Pr472 2.562 . S
O492 C474 1.254 . S
O493 Pr472 2.490 . S
O493 C474 1.225 . S
O494 Pr472 2.695 . S
O494 Pr473 2.436 . S
O494 C481 1.270 . S
O495 Pr472 2.512 . S
O495 C481 1.248 . S
O496 Pr473 2.438 . S
O496 C482 1.267 . S
O497 Pr472 2.437 . S
O497 C482 1.278 . S
O498 Pr473 2.562 . S
O498 C483 1.254 . S
O499 Pr473 2.490 . S
O499 C483 1.225 . S
O500 Pr472 2.436 . S
O500 Pr473 2.695 . S
O500 C490 1.270 . S
O501 Pr473 2.512 . S
O501 C490 1.248 . S
O502 Pr472 2.438 . S
O502 C491 1.267 . S
O503 Pr473 2.437 . S
O503 C491 1.278 . S
H504 C476 0.929 . S
H505 C477 0.929 . S
H506 C479 0.931 . S
H507 C480 0.930 . S
H508 C485 0.929 . S
H509 C486 0.929 . S
H510 C488 0.931 . S
H511 C489 0.930 . S
Pr512 C514 2.880 . S
Pr512 O532 2.562 . S
Pr512 O533 2.490 . S
Pr512 O534 2.695 . S
Pr512 O535 2.512 . S
Pr512 O537 2.437 . S
Pr512 O540 2.436 . S
Pr512 O542 2.438 . S
Pr513 C523 2.880 . S
Pr513 O534 2.436 . S
Pr513 O536 2.438 . S
Pr513 O538 2.562 . S
Pr513 O539 2.490 . S
Pr513 O540 2.695 . S
Pr513 O541 2.512 . S
Pr513 O543 2.437 . S
C514 Pr512 2.880 . S
C514 C515 1.491 . S
C514 O532 1.254 . S
C514 O533 1.225 . S
C515 C514 1.491 . S
C515 C516 1.392 . S
C515 C520 1.356 . S
C516 C515 1.392 . S
C516 C517 1.368 . S
C516 H544 0.929 . S
C517 C516 1.368 . S
C517 C518 1.386 . S
C517 H545 0.929 . S
C518 C517 1.386 . S
C518 C519 1.373 . S
C519 C518 1.373 . S
C519 C520 1.409 . S
C519 H546 0.931 . S
C520 C515 1.356 . S
C520 C519 1.409 . S
C520 H547 0.930 . S
C521 O534 1.270 . S
C521 O535 1.248 . S
C522 O536 1.267 . S
C522 O537 1.278 . S
C523 Pr513 2.880 . S
C523 C524 1.491 . S
C523 O538 1.254 . S
C523 O539 1.225 . S
C524 C523 1.491 . S
C524 C525 1.392 . S
C524 C529 1.356 . S
C525 C524 1.392 . S
C525 C526 1.368 . S
C525 H548 0.929 . S
C526 C525 1.368 . S
C526 C527 1.386 . S
C526 H549 0.929 . S
C527 C526 1.386 . S
C527 C528 1.373 . S
C528 C527 1.373 . S
C528 C529 1.409 . S
C528 H550 0.931 . S
C529 C524 1.356 . S
C529 C528 1.409 . S
C529 H551 0.930 . S
C530 O540 1.270 . S
C530 O541 1.248 . S
C531 O542 1.267 . S
C531 O543 1.278 . S
O532 Pr512 2.562 . S
O532 C514 1.254 . S
O533 Pr512 2.490 . S
O533 C514 1.225 . S
O534 Pr512 2.695 . S
O534 Pr513 2.436 . S
O534 C521 1.270 . S
O535 Pr512 2.512 . S
O535 C521 1.248 . S
O536 Pr513 2.438 . S
O536 C522 1.267 . S
O537 Pr512 2.437 . S
O537 C522 1.278 . S
O538 Pr513 2.562 . S
O538 C523 1.254 . S
O539 Pr513 2.490 . S
O539 C523 1.225 . S
O540 Pr512 2.436 . S
O540 Pr513 2.695 . S
O540 C530 1.270 . S
O541 Pr513 2.512 . S
O541 C530 1.248 . S
O542 Pr512 2.438 . S
O542 C531 1.267 . S
O543 Pr513 2.437 . S
O543 C531 1.278 . S
H544 C516 0.929 . S
H545 C517 0.929 . S
H546 C519 0.931 . S
H547 C520 0.930 . S
H548 C525 0.929 . S
H549 C526 0.929 . S
H550 C528 0.931 . S
H551 C529 0.930 . S
Pr552 C554 2.880 . S
Pr552 O572 2.562 . S
Pr552 O573 2.490 . S
Pr552 O574 2.695 . S
Pr552 O575 2.512 . S
Pr552 O577 2.437 . S
Pr552 O580 2.436 . S
Pr552 O582 2.438 . S
Pr553 C563 2.880 . S
Pr553 O574 2.436 1_556 S
Pr553 O576 2.438 1_556 S
Pr553 O578 2.562 . S
Pr553 O579 2.490 . S
Pr553 O580 2.695 1_556 S
Pr553 O581 2.512 1_556 S
Pr553 O583 2.437 1_556 S
C554 Pr552 2.880 . S
C554 C555 1.491 . S
C554 O572 1.254 . S
C554 O573 1.225 . S
C555 C554 1.491 . S
C555 C556 1.392 . S
C555 C560 1.356 . S
C556 C555 1.392 . S
C556 C557 1.368 . S
C556 H584 0.929 . S
C557 C556 1.368 . S
C557 C558 1.386 . S
C557 H585 0.929 . S
C558 C557 1.386 . S
C558 C559 1.373 . S
C559 C558 1.373 . S
C559 C560 1.409 . S
C559 H586 0.931 . S
C560 C555 1.356 . S
C560 C559 1.409 . S
C560 H587 0.930 . S
C561 O574 1.270 . S
C561 O575 1.248 . S
C562 O576 1.267 . S
C562 O577 1.278 . S
C563 Pr553 2.880 . S
C563 C564 1.491 . S
C563 O578 1.254 . S
C563 O579 1.225 . S
C564 C563 1.491 . S
C564 C565 1.392 . S
C564 C569 1.356 . S
C565 C564 1.392 . S
C565 C566 1.368 . S
C565 H588 0.929 . S
C566 C565 1.368 . S
C566 C567 1.386 . S
C566 H589 0.929 . S
C567 C566 1.386 . S
C567 C568 1.373 . S
C568 C567 1.373 . S
C568 C569 1.409 . S
C568 H590 0.931 . S
C569 C564 1.356 . S
C569 C568 1.409 . S
C569 H591 0.930 . S
C570 O580 1.270 . S
C570 O581 1.248 . S
C571 O582 1.267 . S
C571 O583 1.278 . S
O572 Pr552 2.562 . S
O572 C554 1.254 . S
O573 Pr552 2.490 . S
O573 C554 1.225 . S
O574 Pr552 2.695 . S
O574 Pr553 2.436 1_554 S
O574 C561 1.270 . S
O575 Pr552 2.512 . S
O575 C561 1.248 . S
O576 Pr553 2.438 1_554 S
O576 C562 1.267 . S
O577 Pr552 2.437 . S
O577 C562 1.278 . S
O578 Pr553 2.562 . S
O578 C563 1.254 . S
O579 Pr553 2.490 . S
O579 C563 1.225 . S
O580 Pr552 2.436 . S
O580 Pr553 2.695 1_554 S
O580 C570 1.270 . S
O581 Pr553 2.512 1_554 S
O581 C570 1.248 . S
O582 Pr552 2.438 . S
O582 C571 1.267 . S
O583 Pr553 2.437 1_554 S
O583 C571 1.278 . S
H584 C556 0.929 . S
H585 C557 0.929 . S
H586 C559 0.931 . S
H587 C560 0.930 . S
H588 C565 0.929 . S
H589 C566 0.929 . S
H590 C568 0.931 . S
H591 C569 0.930 . S
Pr592 C594 2.880 . S
Pr592 O612 2.562 . S
Pr592 O613 2.490 . S
Pr592 O614 2.695 . S
Pr592 O615 2.512 . S
Pr592 O617 2.437 . S
Pr592 O620 2.436 . S
Pr592 O622 2.438 . S
Pr593 C603 2.880 . S
Pr593 O614 2.436 . S
Pr593 O616 2.438 . S
Pr593 O618 2.562 . S
Pr593 O619 2.490 . S
Pr593 O620 2.695 . S
Pr593 O621 2.512 . S
Pr593 O623 2.437 . S
C594 Pr592 2.880 . S
C594 C595 1.491 . S
C594 O612 1.254 . S
C594 O613 1.225 . S
C595 C594 1.491 . S
C595 C596 1.392 . S
C595 C600 1.356 . S
C596 C595 1.392 . S
C596 C597 1.368 . S
C596 H624 0.929 . S
C597 C596 1.368 . S
C597 C598 1.386 . S
C597 H625 0.929 . S
C598 C597 1.386 . S
C598 C599 1.373 . S
C599 C598 1.373 . S
C599 C600 1.409 . S
C599 H626 0.931 . S
C600 C595 1.356 . S
C600 C599 1.409 . S
C600 H627 0.930 . S
C601 O614 1.270 . S
C601 O615 1.248 . S
C602 O616 1.267 . S
C602 O617 1.278 . S
C603 Pr593 2.880 . S
C603 C604 1.491 . S
C603 O618 1.254 . S
C603 O619 1.225 . S
C604 C603 1.491 . S
C604 C605 1.392 . S
C604 C609 1.356 . S
C605 C604 1.392 . S
C605 C606 1.368 . S
C605 H628 0.929 . S
C606 C605 1.368 . S
C606 C607 1.386 . S
C606 H629 0.929 . S
C607 C606 1.386 . S
C607 C608 1.373 . S
C608 C607 1.373 . S
C608 C609 1.409 . S
C608 H630 0.931 . S
C609 C604 1.356 . S
C609 C608 1.409 . S
C609 H631 0.930 . S
C610 O620 1.270 . S
C610 O621 1.248 . S
C611 O622 1.267 . S
C611 O623 1.278 . S
O612 Pr592 2.562 . S
O612 C594 1.254 . S
O613 Pr592 2.490 . S
O613 C594 1.225 . S
O614 Pr592 2.695 . S
O614 Pr593 2.436 . S
O614 C601 1.270 . S
O615 Pr592 2.512 . S
O615 C601 1.248 . S
O616 Pr593 2.438 . S
O616 C602 1.267 . S
O617 Pr592 2.437 . S
O617 C602 1.278 . S
O618 Pr593 2.562 . S
O618 C603 1.254 . S
O619 Pr593 2.490 . S
O619 C603 1.225 . S
O620 Pr592 2.436 . S
O620 Pr593 2.695 . S
O620 C610 1.270 . S
O621 Pr593 2.512 . S
O621 C610 1.248 . S
O622 Pr592 2.438 . S
O622 C611 1.267 . S
O623 Pr593 2.437 . S
O623 C611 1.278 . S
H624 C596 0.929 . S
H625 C597 0.929 . S
H626 C599 0.931 . S
H627 C600 0.930 . S
H628 C605 0.929 . S
H629 C606 0.929 . S
H630 C608 0.931 . S
H631 C609 0.930 . S
Pr632 C634 2.880 . S
Pr632 O652 2.562 . S
Pr632 O653 2.490 . S
Pr632 O654 2.695 1_556 S
Pr632 O655 2.512 . S
Pr632 O657 2.437 . S
Pr632 O660 2.436 1_556 S
Pr632 O662 2.438 1_556 S
Pr633 C643 2.880 . S
Pr633 O654 2.436 . S
Pr633 O656 2.438 . S
Pr633 O658 2.562 . S
Pr633 O659 2.490 . S
Pr633 O660 2.695 . S
Pr633 O661 2.512 . S
Pr633 O663 2.437 . S
C634 Pr632 2.880 . S
C634 C635 1.491 . S
C634 O652 1.254 . S
C634 O653 1.225 . S
C635 C634 1.491 . S
C635 C636 1.392 . S
C635 C640 1.356 . S
C636 C635 1.392 . S
C636 C637 1.368 . S
C636 H664 0.929 . S
C637 C636 1.368 . S
C637 C638 1.386 . S
C637 H665 0.929 . S
C638 C637 1.386 . S
C638 C639 1.373 . S
C639 C638 1.373 . S
C639 C640 1.409 . S
C639 H666 0.931 . S
C640 C635 1.356 . S
C640 C639 1.409 . S
C640 H667 0.930 . S
C641 O654 1.270 . S
C641 O655 1.248 1_554 S
C642 O656 1.267 . S
C642 O657 1.278 1_554 S
C643 Pr633 2.880 . S
C643 C644 1.491 . S
C643 O658 1.254 . S
C643 O659 1.225 . S
C644 C643 1.491 . S
C644 C645 1.392 . S
C644 C649 1.356 . S
C645 C644 1.392 . S
C645 C646 1.368 . S
C645 H668 0.929 . S
C646 C645 1.368 . S
C646 C647 1.386 . S
C646 H669 0.929 . S
C647 C646 1.386 . S
C647 C648 1.373 . S
C648 C647 1.373 . S
C648 C649 1.409 . S
C648 H670 0.931 . S
C649 C644 1.356 . S
C649 C648 1.409 . S
C649 H671 0.930 . S
C650 O660 1.270 . S
C650 O661 1.248 . S
C651 O662 1.267 . S
C651 O663 1.278 . S
O652 Pr632 2.562 . S
O652 C634 1.254 . S
O653 Pr632 2.490 . S
O653 C634 1.225 . S
O654 Pr632 2.695 1_554 S
O654 Pr633 2.436 . S
O654 C641 1.270 . S
O655 Pr632 2.512 . S
O655 C641 1.248 1_556 S
O656 Pr633 2.438 . S
O656 C642 1.267 . S
O657 Pr632 2.437 . S
O657 C642 1.278 1_556 S
O658 Pr633 2.562 . S
O658 C643 1.254 . S
O659 Pr633 2.490 . S
O659 C643 1.225 . S
O660 Pr632 2.436 1_554 S
O660 Pr633 2.695 . S
O660 C650 1.270 . S
O661 Pr633 2.512 . S
O661 C650 1.248 . S
O662 Pr632 2.438 1_554 S
O662 C651 1.267 . S
O663 Pr633 2.437 . S
O663 C651 1.278 . S
H664 C636 0.929 . S
H665 C637 0.929 . S
H666 C639 0.931 . S
H667 C640 0.930 . S
H668 C645 0.929 . S
H669 C646 0.929 . S
H670 C648 0.931 . S
H671 C649 0.930 . S
Pr672 C674 2.880 . S
Pr672 O692 2.562 . S
Pr672 O693 2.490 . S
Pr672 O694 2.695 . S
Pr672 O695 2.512 . S
Pr672 O697 2.437 . S
Pr672 O700 2.436 . S
Pr672 O702 2.438 . S
Pr673 C683 2.880 . S
Pr673 O694 2.436 . S
Pr673 O696 2.438 . S
Pr673 O698 2.562 . S
Pr673 O699 2.490 . S
Pr673 O700 2.695 . S
Pr673 O701 2.512 . S
Pr673 O703 2.437 . S
C674 Pr672 2.880 . S
C674 C675 1.491 . S
C674 O692 1.254 . S
C674 O693 1.225 . S
C675 C674 1.491 . S
C675 C676 1.392 . S
C675 C680 1.356 . S
C676 C675 1.392 . S
C676 C677 1.368 . S
C676 H704 0.929 . S
C677 C676 1.368 . S
C677 C678 1.386 . S
C677 H705 0.929 . S
C678 C677 1.386 . S
C678 C679 1.373 . S
C679 C678 1.373 . S
C679 C680 1.409 . S
C679 H706 0.931 . S
C680 C675 1.356 . S
C680 C679 1.409 . S
C680 H707 0.930 . S
C681 O694 1.270 . S
C681 O695 1.248 . S
C682 O696 1.267 . S
C682 O697 1.278 . S
C683 Pr673 2.880 . S
C683 C684 1.491 . S
C683 O698 1.254 . S
C683 O699 1.225 . S
C684 C683 1.491 . S
C684 C685 1.392 . S
C684 C689 1.356 . S
C685 C684 1.392 . S
C685 C686 1.368 . S
C685 H708 0.929 . S
C686 C685 1.368 . S
C686 C687 1.386 . S
C686 H709 0.929 . S
C687 C686 1.386 . S
C687 C688 1.373 . S
C688 C687 1.373 . S
C688 C689 1.409 . S
C688 H710 0.931 . S
C689 C684 1.356 . S
C689 C688 1.409 . S
C689 H711 0.930 . S
C690 O700 1.270 . S
C690 O701 1.248 . S
C691 O702 1.267 . S
C691 O703 1.278 . S
O692 Pr672 2.562 . S
O692 C674 1.254 . S
O693 Pr672 2.490 . S
O693 C674 1.225 . S
O694 Pr672 2.695 . S
O694 Pr673 2.436 . S
O694 C681 1.270 . S
O695 Pr672 2.512 . S
O695 C681 1.248 . S
O696 Pr673 2.438 . S
O696 C682 1.267 . S
O697 Pr672 2.437 . S
O697 C682 1.278 . S
O698 Pr673 2.562 . S
O698 C683 1.254 . S
O699 Pr673 2.490 . S
O699 C683 1.225 . S
O700 Pr672 2.436 . S
O700 Pr673 2.695 . S
O700 C690 1.270 . S
O701 Pr673 2.512 . S
O701 C690 1.248 . S
O702 Pr672 2.438 . S
O702 C691 1.267 . S
O703 Pr673 2.437 . S
O703 C691 1.278 . S
H704 C676 0.929 . S
H705 C677 0.929 . S
H706 C679 0.931 . S
H707 C680 0.930 . S
H708 C685 0.929 . S
H709 C686 0.929 . S
H710 C688 0.931 . S
H711 C689 0.930 . S
Pr712 C714 2.880 . S
Pr712 O732 2.562 . S
Pr712 O733 2.490 . S
Pr712 O734 2.695 . S
Pr712 O735 2.512 . S
Pr712 O737 2.437 . S
Pr712 O740 2.436 . S
Pr712 O742 2.438 . S
Pr713 C723 2.880 . S
Pr713 O734 2.436 . S
Pr713 O736 2.438 . S
Pr713 O738 2.562 . S
Pr713 O739 2.490 . S
Pr713 O740 2.695 . S
Pr713 O741 2.512 . S
Pr713 O743 2.437 . S
C714 Pr712 2.880 . S
C714 C715 1.491 . S
C714 O732 1.254 . S
C714 O733 1.225 . S
C715 C714 1.491 . S
C715 C716 1.392 . S
C715 C720 1.356 . S
C716 C715 1.392 . S
C716 C717 1.368 . S
C716 H744 0.929 . S
C717 C716 1.368 . S
C717 C718 1.386 . S
C717 H745 0.929 . S
C718 C717 1.386 . S
C718 C719 1.373 . S
C719 C718 1.373 . S
C719 C720 1.409 . S
C719 H746 0.931 1_455 S
C720 C715 1.356 . S
C720 C719 1.409 . S
C720 H747 0.930 . S
C721 O734 1.270 . S
C721 O735 1.248 . S
C722 O736 1.267 . S
C722 O737 1.278 . S
C723 Pr713 2.880 . S
C723 C724 1.491 . S
C723 O738 1.254 . S
C723 O739 1.225 . S
C724 C723 1.491 . S
C724 C725 1.392 . S
C724 C729 1.356 . S
C725 C724 1.392 . S
C725 C726 1.368 . S
C725 H748 0.929 . S
C726 C725 1.368 . S
C726 C727 1.386 . S
C726 H749 0.929 . S
C727 C726 1.386 . S
C727 C728 1.373 . S
C728 C727 1.373 . S
C728 C729 1.409 . S
C728 H750 0.931 . S
C729 C724 1.356 . S
C729 C728 1.409 . S
C729 H751 0.930 . S
C730 O740 1.270 . S
C730 O741 1.248 . S
C731 O742 1.267 . S
C731 O743 1.278 . S
O732 Pr712 2.562 . S
O732 C714 1.254 . S
O733 Pr712 2.490 . S
O733 C714 1.225 . S
O734 Pr712 2.695 . S
O734 Pr713 2.436 . S
O734 C721 1.270 . S
O735 Pr712 2.512 . S
O735 C721 1.248 . S
O736 Pr713 2.438 . S
O736 C722 1.267 . S
O737 Pr712 2.437 . S
O737 C722 1.278 . S
O738 Pr713 2.562 . S
O738 C723 1.254 . S
O739 Pr713 2.490 . S
O739 C723 1.225 . S
O740 Pr712 2.436 . S
O740 Pr713 2.695 . S
O740 C730 1.270 . S
O741 Pr713 2.512 . S
O741 C730 1.248 . S
O742 Pr712 2.438 . S
O742 C731 1.267 . S
O743 Pr713 2.437 . S
O743 C731 1.278 . S
H744 C716 0.929 . S
H745 C717 0.929 . S
H746 C719 0.931 1_655 S
H747 C720 0.930 . S
H748 C725 0.929 . S
H749 C726 0.929 . S
H750 C728 0.931 . S
H751 C729 0.930 . S
Pr752 C754 2.880 . S
Pr752 O772 2.562 . S
Pr752 O773 2.490 . S
Pr752 O774 2.695 . S
Pr752 O775 2.512 . S
Pr752 O777 2.437 . S
Pr752 O780 2.436 . S
Pr752 O782 2.438 . S
Pr753 C763 2.880 . S
Pr753 O774 2.436 . S
Pr753 O776 2.438 . S
Pr753 O778 2.562 . S
Pr753 O779 2.490 . S
Pr753 O780 2.695 . S
Pr753 O781 2.512 . S
Pr753 O783 2.437 . S
C754 Pr752 2.880 . S
C754 C755 1.491 . S
C754 O772 1.254 . S
C754 O773 1.225 . S
C755 C754 1.491 . S
C755 C756 1.392 . S
C755 C760 1.356 . S
C756 C755 1.392 . S
C756 C757 1.368 . S
C756 H784 0.929 . S
C757 C756 1.368 . S
C757 C758 1.386 . S
C757 H785 0.929 . S
C758 C757 1.386 . S
C758 C759 1.373 . S
C759 C758 1.373 . S
C759 C760 1.409 . S
C759 H786 0.931 . S
C760 C755 1.356 . S
C760 C759 1.409 . S
C760 H787 0.930 . S
C761 O774 1.270 . S
C761 O775 1.248 . S
C762 O776 1.267 . S
C762 O777 1.278 . S
C763 Pr753 2.880 . S
C763 C764 1.491 . S
C763 O778 1.254 . S
C763 O779 1.225 . S
C764 C763 1.491 . S
C764 C765 1.392 . S
C764 C769 1.356 . S
C765 C764 1.392 . S
C765 C766 1.368 . S
C765 H788 0.929 . S
C766 C765 1.368 . S
C766 C767 1.386 . S
C766 H789 0.929 . S
C767 C766 1.386 . S
C767 C768 1.373 . S
C768 C767 1.373 . S
C768 C769 1.409 . S
C768 H790 0.931 . S
C769 C764 1.356 . S
C769 C768 1.409 . S
C769 H791 0.930 . S
C770 O780 1.270 . S
C770 O781 1.248 . S
C771 O782 1.267 . S
C771 O783 1.278 . S
O772 Pr752 2.562 . S
O772 C754 1.254 . S
O773 Pr752 2.490 . S
O773 C754 1.225 . S
O774 Pr752 2.695 . S
O774 Pr753 2.436 . S
O774 C761 1.270 . S
O775 Pr752 2.512 . S
O775 C761 1.248 . S
O776 Pr753 2.438 . S
O776 C762 1.267 . S
O777 Pr752 2.437 . S
O777 C762 1.278 . S
O778 Pr753 2.562 . S
O778 C763 1.254 . S
O779 Pr753 2.490 . S
O779 C763 1.225 . S
O780 Pr752 2.436 . S
O780 Pr753 2.695 . S
O780 C770 1.270 . S
O781 Pr753 2.512 . S
O781 C770 1.248 . S
O782 Pr752 2.438 . S
O782 C771 1.267 . S
O783 Pr753 2.437 . S
O783 C771 1.278 . S
H784 C756 0.929 . S
H785 C757 0.929 . S
H786 C759 0.931 . S
H787 C760 0.930 . S
H788 C765 0.929 . S
H789 C766 0.929 . S
H790 C768 0.931 . S
H791 C769 0.930 . S
Pr792 C794 2.880 . S
Pr792 O812 2.562 . S
Pr792 O813 2.490 . S
Pr792 O814 2.695 . S
Pr792 O815 2.512 . S
Pr792 O817 2.437 . S
Pr792 O820 2.436 . S
Pr792 O822 2.438 . S
Pr793 C803 2.880 . S
Pr793 O814 2.436 . S
Pr793 O816 2.438 . S
Pr793 O818 2.562 . S
Pr793 O819 2.490 . S
Pr793 O820 2.695 . S
Pr793 O821 2.512 . S
Pr793 O823 2.437 . S
C794 Pr792 2.880 . S
C794 C795 1.491 . S
C794 O812 1.254 . S
C794 O813 1.225 . S
C795 C794 1.491 . S
C795 C796 1.392 . S
C795 C800 1.356 . S
C796 C795 1.392 . S
C796 C797 1.368 . S
C796 H824 0.929 . S
C797 C796 1.368 . S
C797 C798 1.386 . S
C797 H825 0.929 . S
C798 C797 1.386 . S
C798 C799 1.373 . S
C799 C798 1.373 . S
C799 C800 1.409 . S
C799 H826 0.931 . S
C800 C795 1.356 . S
C800 C799 1.409 . S
C800 H827 0.930 . S
C801 O814 1.270 . S
C801 O815 1.248 . S
C802 O816 1.267 . S
C802 O817 1.278 . S
C803 Pr793 2.880 . S
C803 C804 1.491 . S
C803 O818 1.254 . S
C803 O819 1.225 . S
C804 C803 1.491 . S
C804 C805 1.392 . S
C804 C809 1.356 . S
C805 C804 1.392 . S
C805 C806 1.368 . S
C805 H828 0.929 . S
C806 C805 1.368 . S
C806 C807 1.386 . S
C806 H829 0.929 . S
C807 C806 1.386 . S
C807 C808 1.373 . S
C808 C807 1.373 . S
C808 C809 1.409 . S
C808 H830 0.931 . S
C809 C804 1.356 . S
C809 C808 1.409 . S
C809 H831 0.930 . S
C810 O820 1.270 . S
C810 O821 1.248 . S
C811 O822 1.267 . S
C811 O823 1.278 . S
O812 Pr792 2.562 . S
O812 C794 1.254 . S
O813 Pr792 2.490 . S
O813 C794 1.225 . S
O814 Pr792 2.695 . S
O814 Pr793 2.436 . S
O814 C801 1.270 . S
O815 Pr792 2.512 . S
O815 C801 1.248 . S
O816 Pr793 2.438 . S
O816 C802 1.267 . S
O817 Pr792 2.437 . S
O817 C802 1.278 . S
O818 Pr793 2.562 . S
O818 C803 1.254 . S
O819 Pr793 2.490 . S
O819 C803 1.225 . S
O820 Pr792 2.436 . S
O820 Pr793 2.695 . S
O820 C810 1.270 . S
O821 Pr793 2.512 . S
O821 C810 1.248 . S
O822 Pr792 2.438 . S
O822 C811 1.267 . S
O823 Pr793 2.437 . S
O823 C811 1.278 . S
H824 C796 0.929 . S
H825 C797 0.929 . S
H826 C799 0.931 . S
H827 C800 0.930 . S
H828 C805 0.929 . S
H829 C806 0.929 . S
H830 C808 0.931 . S
H831 C809 0.930 . S
Pr832 C834 2.880 . S
Pr832 O852 2.562 . S
Pr832 O853 2.490 . S
Pr832 O854 2.695 . S
Pr832 O855 2.512 . S
Pr832 O857 2.437 . S
Pr832 O860 2.436 . S
Pr832 O862 2.438 . S
Pr833 C843 2.880 . S
Pr833 O854 2.436 . S
Pr833 O856 2.438 . S
Pr833 O858 2.562 . S
Pr833 O859 2.490 . S
Pr833 O860 2.695 . S
Pr833 O861 2.512 . S
Pr833 O863 2.437 . S
C834 Pr832 2.880 . S
C834 C835 1.491 . S
C834 O852 1.254 . S
C834 O853 1.225 . S
C835 C834 1.491 . S
C835 C836 1.392 . S
C835 C840 1.356 . S
C836 C835 1.392 . S
C836 C837 1.368 . S
C836 H864 0.929 . S
C837 C836 1.368 . S
C837 C838 1.386 . S
C837 H865 0.929 . S
C838 C837 1.386 . S
C838 C839 1.373 . S
C839 C838 1.373 . S
C839 C840 1.409 . S
C839 H866 0.931 . S
C840 C835 1.356 . S
C840 C839 1.409 . S
C840 H867 0.930 . S
C841 O854 1.270 . S
C841 O855 1.248 . S
C842 O856 1.267 . S
C842 O857 1.278 . S
C843 Pr833 2.880 . S
C843 C844 1.491 . S
C843 O858 1.254 . S
C843 O859 1.225 . S
C844 C843 1.491 . S
C844 C845 1.392 . S
C844 C849 1.356 . S
C845 C844 1.392 . S
C845 C846 1.368 . S
C845 H868 0.929 . S
C846 C845 1.368 . S
C846 C847 1.386 . S
C846 H869 0.929 . S
C847 C846 1.386 . S
C847 C848 1.373 . S
C848 C847 1.373 . S
C848 C849 1.409 . S
C848 H870 0.931 . S
C849 C844 1.356 . S
C849 C848 1.409 . S
C849 H871 0.930 . S
C850 O860 1.270 . S
C850 O861 1.248 . S
C851 O862 1.267 . S
C851 O863 1.278 . S
O852 Pr832 2.562 . S
O852 C834 1.254 . S
O853 Pr832 2.490 . S
O853 C834 1.225 . S
O854 Pr832 2.695 . S
O854 Pr833 2.436 . S
O854 C841 1.270 . S
O855 Pr832 2.512 . S
O855 C841 1.248 . S
O856 Pr833 2.438 . S
O856 C842 1.267 . S
O857 Pr832 2.437 . S
O857 C842 1.278 . S
O858 Pr833 2.562 . S
O858 C843 1.254 . S
O859 Pr833 2.490 . S
O859 C843 1.225 . S
O860 Pr832 2.436 . S
O860 Pr833 2.695 . S
O860 C850 1.270 . S
O861 Pr833 2.512 . S
O861 C850 1.248 . S
O862 Pr832 2.438 . S
O862 C851 1.267 . S
O863 Pr833 2.437 . S
O863 C851 1.278 . S
H864 C836 0.929 . S
H865 C837 0.929 . S
H866 C839 0.931 . S
H867 C840 0.930 . S
H868 C845 0.929 . S
H869 C846 0.929 . S
H870 C848 0.931 . S
H871 C849 0.930 . S
Pr872 C874 2.880 . S
Pr872 O892 2.562 . S
Pr872 O893 2.490 . S
Pr872 O894 2.695 . S
Pr872 O895 2.512 . S
Pr872 O897 2.437 . S
Pr872 O900 2.436 . S
Pr872 O902 2.438 . S
Pr873 C883 2.880 . S
Pr873 O894 2.436 . S
Pr873 O896 2.438 . S
Pr873 O898 2.562 . S
Pr873 O899 2.490 . S
Pr873 O900 2.695 . S
Pr873 O901 2.512 . S
Pr873 O903 2.437 . S
C874 Pr872 2.880 . S
C874 C875 1.491 . S
C874 O892 1.254 . S
C874 O893 1.225 . S
C875 C874 1.491 . S
C875 C876 1.392 . S
C875 C880 1.356 . S
C876 C875 1.392 . S
C876 C877 1.368 . S
C876 H904 0.929 . S
C877 C876 1.368 . S
C877 C878 1.386 . S
C877 H905 0.929 . S
C878 C877 1.386 . S
C878 C879 1.373 . S
C879 C878 1.373 . S
C879 C880 1.409 . S
C879 H906 0.931 . S
C880 C875 1.356 . S
C880 C879 1.409 . S
C880 H907 0.930 . S
C881 O894 1.270 . S
C881 O895 1.248 . S
C882 O896 1.267 . S
C882 O897 1.278 . S
C883 Pr873 2.880 . S
C883 C884 1.491 . S
C883 O898 1.254 . S
C883 O899 1.225 . S
C884 C883 1.491 . S
C884 C885 1.392 . S
C884 C889 1.356 . S
C885 C884 1.392 . S
C885 C886 1.368 . S
C885 H908 0.929 . S
C886 C885 1.368 . S
C886 C887 1.386 . S
C886 H909 0.929 . S
C887 C886 1.386 . S
C887 C888 1.373 . S
C888 C887 1.373 . S
C888 C889 1.409 . S
C888 H910 0.931 . S
C889 C884 1.356 . S
C889 C888 1.409 . S
C889 H911 0.930 . S
C890 O900 1.270 . S
C890 O901 1.248 . S
C891 O902 1.267 . S
C891 O903 1.278 . S
O892 Pr872 2.562 . S
O892 C874 1.254 . S
O893 Pr872 2.490 . S
O893 C874 1.225 . S
O894 Pr872 2.695 . S
O894 Pr873 2.436 . S
O894 C881 1.270 . S
O895 Pr872 2.512 . S
O895 C881 1.248 . S
O896 Pr873 2.438 . S
O896 C882 1.267 . S
O897 Pr872 2.437 . S
O897 C882 1.278 . S
O898 Pr873 2.562 . S
O898 C883 1.254 . S
O899 Pr873 2.490 . S
O899 C883 1.225 . S
O900 Pr872 2.436 . S
O900 Pr873 2.695 . S
O900 C890 1.270 . S
O901 Pr873 2.512 . S
O901 C890 1.248 . S
O902 Pr872 2.438 . S
O902 C891 1.267 . S
O903 Pr873 2.437 . S
O903 C891 1.278 . S
H904 C876 0.929 . S
H905 C877 0.929 . S
H906 C879 0.931 . S
H907 C880 0.930 . S
H908 C885 0.929 . S
H909 C886 0.929 . S
H910 C888 0.931 . S
H911 C889 0.930 . S
Pr912 C914 2.880 . S
Pr912 O932 2.562 . S
Pr912 O933 2.490 1_554 S
Pr912 O934 2.697 . S
Pr912 O935 2.512 1_554 S
Pr912 O937 2.437 1_554 S
Pr912 O940 2.436 . S
Pr912 O942 2.438 . S
Pr913 C923 2.880 1_455 S
Pr913 O934 2.443 . S
Pr913 O936 2.438 . S
Pr913 O938 2.562 1_455 S
Pr913 O939 2.490 1_455 S
Pr913 O940 2.695 . S
Pr913 O941 2.512 . S
Pr913 O943 2.437 . S
C914 Pr912 2.880 . S
C914 C915 1.491 . S
C914 O932 1.254 . S
C914 O933 1.225 1_554 S
C915 C914 1.491 . S
C915 C916 1.392 1_554 S
C915 C920 1.356 . S
C916 C915 1.392 1_556 S
C916 C917 1.368 . S
C916 H944 0.929 . S
C917 C916 1.368 . S
C917 C918 1.386 . S
C917 H945 0.929 . S
C918 C917 1.386 . S
C918 C919 1.373 1_556 S
C919 C918 1.373 1_554 S
C919 C920 1.409 . S
C919 H946 0.931 . S
C920 C915 1.356 . S
C920 C919 1.409 . S
C920 H947 0.930 . S
C921 O934 1.262 1_556 S
C921 O935 1.248 . S
C922 O936 1.267 . S
C922 O937 1.278 1_554 S
C923 Pr913 2.880 1_655 S
C923 C924 1.491 . S
C923 O938 1.254 . S
C923 O939 1.225 . S
C924 C923 1.491 . S
C924 C925 1.392 . S
C924 C929 1.356 . S
C925 C924 1.392 . S
C925 C926 1.368 . S
C925 H948 0.929 . S
C926 C925 1.368 . S
C926 C927 1.386 . S
C926 H949 0.929 . S
C927 C926 1.386 . S
C927 C928 1.373 . S
C928 C927 1.373 . S
C928 C929 1.409 . S
C928 H950 0.931 . S
C929 C924 1.356 . S
C929 C928 1.409 . S
C929 H951 0.930 . S
C930 O940 1.270 . S
C930 O941 1.248 . S
C931 O942 1.267 . S
C931 O943 1.278 . S
O932 Pr912 2.562 . S
O932 C914 1.254 . S
O933 Pr912 2.490 1_556 S
O933 C914 1.225 1_556 S
O934 Pr912 2.697 . S
O934 Pr913 2.443 . S
O934 C921 1.262 1_554 S
O935 Pr912 2.512 1_556 S
O935 C921 1.248 . S
O936 Pr913 2.438 . S
O936 C922 1.267 . S
O937 Pr912 2.437 1_556 S
O937 C922 1.278 1_556 S
O938 Pr913 2.562 1_655 S
O938 C923 1.254 . S
O939 Pr913 2.490 1_655 S
O939 C923 1.225 . S
O940 Pr912 2.436 . S
O940 Pr913 2.695 . S
O940 C930 1.270 . S
O941 Pr913 2.512 . S
O941 C930 1.248 . S
O942 Pr912 2.438 . S
O942 C931 1.267 . S
O943 Pr913 2.437 . S
O943 C931 1.278 . S
H944 C916 0.929 . S
H945 C917 0.929 . S
H946 C919 0.931 . S
H947 C920 0.930 . S
H948 C925 0.929 . S
H949 C926 0.929 . S
H950 C928 0.931 . S
H951 C929 0.930 . S
H952 C958 0.930 1_655 S
H953 C962 0.930 . S
H954 C967 0.929 . S
H955 C965 0.929 . S
H956 C960 0.924 . S
H957 C966 0.929 1_655 S
C958 H952 0.930 1_455 S
C958 C959 1.367 . S
C958 C966 1.378 . S
C959 C958 1.367 . S
C959 C967 1.433 . S
C960 H956 0.924 . S
C960 C962 1.378 1_556 S
C960 C964 1.350 . S
C961 C964 1.463 . S
C961 C966 1.350 . S
C961 N969 1.427 . S
C962 H953 0.930 . S
C962 C960 1.378 1_554 S
C962 C963 1.367 . S
C963 C962 1.367 . S
C963 C965 1.433 1_554 S
C964 C960 1.350 . S
C964 C961 1.463 . S
C964 N968 1.427 . S
C965 H955 0.929 . S
C965 C963 1.433 1_556 S
C965 N968 1.384 . S
C966 H957 0.929 1_455 S
C966 C958 1.378 . S
C966 C961 1.350 . S
C967 H954 0.929 . S
C967 C959 1.433 . S
C967 N969 1.384 . S
N968 C964 1.427 . S
N968 C965 1.384 . S
N969 C961 1.427 . S
N969 C967 1.384 . S
H970 C976 0.930 . S
H971 C980 0.930 . S
H972 C985 0.929 . S
H973 C983 0.929 . S
H974 C978 0.929 . S
H975 C984 0.929 . S
C976 H970 0.930 . S
C976 C977 1.367 . S
C976 C984 1.378 . S
C977 C976 1.367 . S
C977 C985 1.433 . S
C978 H974 0.929 . S
C978 C980 1.378 . S
C978 C982 1.350 . S
C979 C982 1.463 . S
C979 C984 1.350 . S
C979 N987 1.427 . S
C980 H971 0.930 . S
C980 C978 1.378 . S
C980 C981 1.367 . S
C981 C980 1.367 . S
C981 C983 1.433 . S
C982 C978 1.350 . S
C982 C979 1.463 . S
C982 N986 1.427 . S
C983 H973 0.929 . S
C983 C981 1.433 . S
C983 N986 1.384 . S
C984 H975 0.929 . S
C984 C976 1.378 . S
C984 C979 1.350 . S
C985 H972 0.929 . S
C985 C977 1.433 . S
C985 N987 1.384 . S
N986 C982 1.427 . S
N986 C983 1.384 . S
N987 C979 1.427 . S
N987 C985 1.384 . S
H988 C994 0.930 . S
H989 C998 0.930 1_545 S
H990 C1003 0.929 . S
H991 C1001 0.929 1_545 S
H992 C996 0.929 . S
H993 C1002 0.929 . S
C994 H988 0.930 . S
C994 C995 1.367 . S
C994 C1002 1.378 . S
C995 C994 1.367 . S
C995 C1003 1.433 . S
C996 H992 0.929 . S
C996 C998 1.378 . S
C996 C1000 1.350 . S
C997 C1000 1.463 . S
C997 C1002 1.350 . S
C997 N1005 1.427 . S
C998 H989 0.930 1_565 S
C998 C996 1.378 . S
C998 C999 1.367 1_565 S
C999 C998 1.367 1_545 S
C999 C1001 1.433 1_545 S
C1000 C996 1.350 . S
C1000 C997 1.463 . S
C1000 N1004 1.427 . S
C1001 H991 0.929 1_565 S
C1001 C999 1.433 1_565 S
C1001 N1004 1.384 . S
C1002 H993 0.929 . S
C1002 C994 1.378 . S
C1002 C997 1.350 . S
C1003 H990 0.929 . S
C1003 C995 1.433 . S
C1003 N1005 1.384 . S
N1004 C1000 1.427 . S
N1004 C1001 1.384 . S
N1005 C997 1.427 . S
N1005 C1003 1.384 . S
H1006 C1012 0.930 . S
H1007 C1016 0.930 . S
H1008 C1021 0.929 . S
H1009 C1019 0.929 . S
H1010 C1014 0.929 . S
H1011 C1020 0.929 . S
C1012 H1006 0.930 . S
C1012 C1013 1.367 . S
C1012 C1020 1.378 . S
C1013 C1012 1.367 . S
C1013 C1021 1.433 . S
C1014 H1010 0.929 . S
C1014 C1016 1.378 . S
C1014 C1018 1.350 . S
C1015 C1018 1.463 . S
C1015 C1020 1.350 . S
C1015 N1023 1.427 . S
C1016 H1007 0.930 . S
C1016 C1014 1.378 . S
C1016 C1017 1.367 . S
C1017 C1016 1.367 . S
C1017 C1019 1.433 . S
C1018 C1014 1.350 . S
C1018 C1015 1.463 . S
C1018 N1022 1.427 . S
C1019 H1009 0.929 . S
C1019 C1017 1.433 . S
C1019 N1022 1.384 . S
C1020 H1011 0.929 . S
C1020 C1012 1.378 . S
C1020 C1015 1.350 . S
C1021 H1008 0.929 . S
C1021 C1013 1.433 . S
C1021 N1023 1.384 . S
N1022 C1018 1.427 . S
N1022 C1019 1.384 . S
N1023 C1015 1.427 . S
N1023 C1021 1.384 . S
H1024 C1030 0.930 . S
H1025 C1034 0.930 . S
H1026 C1039 0.929 . S
H1027 C1037 0.929 . S
H1028 C1032 0.929 . S
H1029 C1038 0.929 . S
C1030 H1024 0.930 . S
C1030 C1031 1.367 . S
C1030 C1038 1.378 . S
C1031 C1030 1.367 . S
C1031 C1039 1.433 . S
C1032 H1028 0.929 . S
C1032 C1034 1.378 1_565 S
C1032 C1036 1.350 . S
C1033 C1036 1.463 . S
C1033 C1038 1.350 . S
C1033 N1041 1.427 . S
C1034 H1025 0.930 . S
C1034 C1032 1.378 1_545 S
C1034 C1035 1.367 . S
C1035 C1034 1.367 . S
C1035 C1037 1.433 1_545 S
C1036 C1032 1.350 . S
C1036 C1033 1.463 . S
C1036 N1040 1.427 . S
C1037 H1027 0.929 . S
C1037 C1035 1.433 1_565 S
C1037 N1040 1.384 . S
C1038 H1029 0.929 . S
C1038 C1030 1.378 . S
C1038 C1033 1.350 . S
C1039 H1026 0.929 . S
C1039 C1031 1.433 . S
C1039 N1041 1.384 . S
N1040 C1036 1.427 . S
N1040 C1037 1.384 . S
N1041 C1033 1.427 . S
N1041 C1039 1.384 . S
H1042 C1048 0.930 . S
H1043 C1052 0.930 . S
H1044 C1057 0.929 . S
H1045 C1055 0.929 . S
H1046 C1050 0.929 . S
H1047 C1056 0.929 . S
C1048 H1042 0.930 . S
C1048 C1049 1.367 . S
C1048 C1056 1.378 . S
C1049 C1048 1.367 . S
C1049 C1057 1.433 . S
C1050 H1046 0.929 . S
C1050 C1052 1.378 . S
C1050 C1054 1.350 . S
C1051 C1054 1.463 . S
C1051 C1056 1.350 . S
C1051 N1059 1.427 . S
C1052 H1043 0.930 . S
C1052 C1050 1.378 . S
C1052 C1053 1.367 . S
C1053 C1052 1.367 . S
C1053 C1055 1.433 . S
C1054 C1050 1.350 . S
C1054 C1051 1.463 . S
C1054 N1058 1.427 . S
C1055 H1045 0.929 . S
C1055 C1053 1.433 . S
C1055 N1058 1.384 . S
C1056 H1047 0.929 . S
C1056 C1048 1.378 . S
C1056 C1051 1.350 . S
C1057 H1044 0.929 . S
C1057 C1049 1.433 . S
C1057 N1059 1.384 . S
N1058 C1054 1.427 . S
N1058 C1055 1.384 . S
N1059 C1051 1.427 . S
N1059 C1057 1.384 . S
H1060 C1066 0.930 . S
H1061 C1070 0.930 . S
H1062 C1075 0.929 . S
H1063 C1073 0.929 . S
H1064 C1068 0.929 . S
H1065 C1074 0.929 . S
C1066 H1060 0.930 . S
C1066 C1067 1.367 . S
C1066 C1074 1.378 . S
C1067 C1066 1.367 . S
C1067 C1075 1.433 . S
C1068 H1064 0.929 . S
C1068 C1070 1.378 . S
C1068 C1072 1.350 . S
C1069 C1072 1.463 . S
C1069 C1074 1.350 . S
C1069 N1077 1.427 . S
C1070 H1061 0.930 . S
C1070 C1068 1.378 . S
C1070 C1071 1.367 . S
C1071 C1070 1.367 . S
C1071 C1073 1.433 . S
C1072 C1068 1.350 . S
C1072 C1069 1.463 . S
C1072 N1076 1.427 . S
C1073 H1063 0.929 . S
C1073 C1071 1.433 . S
C1073 N1076 1.384 . S
C1074 H1065 0.929 . S
C1074 C1066 1.378 . S
C1074 C1069 1.350 . S
C1075 H1062 0.929 . S
C1075 C1067 1.433 . S
C1075 N1077 1.384 . S
N1076 C1072 1.427 . S
N1076 C1073 1.384 . S
N1077 C1069 1.427 . S
N1077 C1075 1.384 . S
H1078 C1084 0.930 . S
H1079 C1088 0.930 . S
H1080 C1093 0.929 . S
H1081 C1091 0.929 . S
H1082 C1086 0.929 . S
H1083 C1092 0.929 . S
C1084 H1078 0.930 . S
C1084 C1085 1.367 . S
C1084 C1092 1.378 . S
C1085 C1084 1.367 . S
C1085 C1093 1.433 . S
C1086 H1082 0.929 . S
C1086 C1088 1.378 . S
C1086 C1090 1.350 . S
C1087 C1090 1.463 . S
C1087 C1092 1.350 . S
C1087 N1095 1.427 . S
C1088 H1079 0.930 . S
C1088 C1086 1.378 . S
C1088 C1089 1.367 . S
C1089 C1088 1.367 . S
C1089 C1091 1.433 . S
C1090 C1086 1.350 . S
C1090 C1087 1.463 . S
C1090 N1094 1.427 . S
C1091 H1081 0.929 . S
C1091 C1089 1.433 . S
C1091 N1094 1.384 . S
C1092 H1083 0.929 . S
C1092 C1084 1.378 . S
C1092 C1087 1.350 . S
C1093 H1080 0.929 . S
C1093 C1085 1.433 . S
C1093 N1095 1.384 . S
N1094 C1090 1.427 . S
N1094 C1091 1.384 . S
N1095 C1087 1.427 . S
N1095 C1093 1.384 . S
H1096 C1102 0.930 . S
H1097 C1106 0.930 . S
H1098 C1111 0.929 . S
H1099 C1109 0.929 . S
H1100 C1104 0.929 . S
H1101 C1110 0.929 . S
C1102 H1096 0.930 . S
C1102 C1103 1.367 . S
C1102 C1110 1.378 . S
C1103 C1102 1.367 . S
C1103 C1111 1.433 . S
C1104 H1100 0.929 . S
C1104 C1106 1.378 1_655 S
C1104 C1108 1.350 . S
C1105 C1108 1.463 . S
C1105 C1110 1.350 . S
C1105 N1113 1.427 . S
C1106 H1097 0.930 . S
C1106 C1104 1.378 1_455 S
C1106 C1107 1.367 . S
C1107 C1106 1.367 . S
C1107 C1109 1.433 . S
C1108 C1104 1.350 . S
C1108 C1105 1.463 . S
C1108 N1112 1.427 1_655 S
C1109 H1099 0.929 . S
C1109 C1107 1.433 . S
C1109 N1112 1.384 . S
C1110 H1101 0.929 . S
C1110 C1102 1.378 . S
C1110 C1105 1.350 . S
C1111 H1098 0.929 . S
C1111 C1103 1.433 . S
C1111 N1113 1.384 . S
N1112 C1108 1.427 1_455 S
N1112 C1109 1.384 . S
N1113 C1105 1.427 . S
N1113 C1111 1.384 . S
H1114 C1120 0.930 . S
H1115 C1124 0.930 . S
H1116 C1129 0.929 . S
H1117 C1127 0.929 . S
H1118 C1122 0.929 . S
H1119 C1128 0.929 . S
C1120 H1114 0.930 . S
C1120 C1121 1.367 . S
C1120 C1128 1.378 . S
C1121 C1120 1.367 . S
C1121 C1129 1.433 . S
C1122 H1118 0.929 . S
C1122 C1124 1.378 . S
C1122 C1126 1.350 . S
C1123 C1126 1.463 . S
C1123 C1128 1.350 . S
C1123 N1131 1.427 . S
C1124 H1115 0.930 . S
C1124 C1122 1.378 . S
C1124 C1125 1.367 . S
C1125 C1124 1.367 . S
C1125 C1127 1.433 . S
C1126 C1122 1.350 . S
C1126 C1123 1.463 . S
C1126 N1130 1.427 . S
C1127 H1117 0.929 . S
C1127 C1125 1.433 . S
C1127 N1130 1.384 . S
C1128 H1119 0.929 . S
C1128 C1120 1.378 . S
C1128 C1123 1.350 . S
C1129 H1116 0.929 . S
C1129 C1121 1.433 . S
C1129 N1131 1.384 . S
N1130 C1126 1.427 . S
N1130 C1127 1.384 . S
N1131 C1123 1.427 . S
N1131 C1129 1.384 . S
H1132 C1138 0.930 . S
H1133 C1142 0.930 . S
H1134 C1147 0.929 . S
H1135 C1145 0.929 . S
H1136 C1140 0.929 . S
H1137 C1146 0.929 1_565 S
C1138 H1132 0.930 . S
C1138 C1139 1.367 1_565 S
C1138 C1146 1.378 1_565 S
C1139 C1138 1.367 1_545 S
C1139 C1147 1.433 . S
C1140 H1136 0.929 . S
C1140 C1142 1.378 . S
C1140 C1144 1.350 . S
C1141 C1144 1.463 . S
C1141 C1146 1.350 . S
C1141 N1149 1.427 . S
C1142 H1133 0.930 . S
C1142 C1140 1.378 . S
C1142 C1143 1.367 . S
C1143 C1142 1.367 . S
C1143 C1145 1.433 . S
C1144 C1140 1.350 . S
C1144 C1141 1.463 . S
C1144 N1148 1.427 . S
C1145 H1135 0.929 . S
C1145 C1143 1.433 . S
C1145 N1148 1.384 . S
C1146 H1137 0.929 1_545 S
C1146 C1138 1.378 1_545 S
C1146 C1141 1.350 . S
C1147 H1134 0.929 . S
C1147 C1139 1.433 . S
C1147 N1149 1.384 . S
N1148 C1144 1.427 . S
N1148 C1145 1.384 . S
N1149 C1141 1.427 . S
N1149 C1147 1.384 . S
H1150 C1156 0.930 . S
H1151 C1160 0.930 . S
H1152 C1165 0.929 . S
H1153 C1163 0.929 . S
H1154 C1158 0.929 . S
H1155 C1164 0.929 . S
C1156 H1150 0.930 . S
C1156 C1157 1.367 . S
C1156 C1164 1.378 . S
C1157 C1156 1.367 . S
C1157 C1165 1.433 . S
C1158 H1154 0.929 . S
C1158 C1160 1.378 . S
C1158 C1162 1.350 . S
C1159 C1162 1.463 . S
C1159 C1164 1.350 . S
C1159 N1167 1.427 . S
C1160 H1151 0.930 . S
C1160 C1158 1.378 . S
C1160 C1161 1.367 . S
C1161 C1160 1.367 . S
C1161 C1163 1.433 . S
C1162 C1158 1.350 . S
C1162 C1159 1.463 . S
C1162 N1166 1.427 . S
C1163 H1153 0.929 . S
C1163 C1161 1.433 . S
C1163 N1166 1.384 . S
C1164 H1155 0.929 . S
C1164 C1156 1.378 . S
C1164 C1159 1.350 . S
C1165 H1152 0.929 . S
C1165 C1157 1.433 . S
C1165 N1167 1.384 . S
N1166 C1162 1.427 . S
N1166 C1163 1.384 . S
N1167 C1159 1.427 . S
N1167 C1165 1.384 . S
H1168 C1174 0.930 . S
H1169 C1178 0.930 . S
H1170 C1183 0.929 . S
H1171 C1181 0.929 . S
H1172 C1176 0.929 . S
H1173 C1182 0.929 . S
C1174 H1168 0.930 . S
C1174 C1175 1.367 . S
C1174 C1182 1.378 . S
C1175 C1174 1.367 . S
C1175 C1183 1.433 . S
C1176 H1172 0.929 . S
C1176 C1178 1.378 . S
C1176 C1180 1.350 . S
C1177 C1180 1.463 . S
C1177 C1182 1.350 . S
C1177 N1185 1.427 . S
C1178 H1169 0.930 . S
C1178 C1176 1.378 . S
C1178 C1179 1.367 . S
C1179 C1178 1.367 . S
C1179 C1181 1.433 1_655 S
C1180 C1176 1.350 . S
C1180 C1177 1.463 . S
C1180 N1184 1.427 . S
C1181 H1171 0.929 . S
C1181 C1179 1.433 1_455 S
C1181 N1184 1.384 1_455 S
C1182 H1173 0.929 . S
C1182 C1174 1.378 . S
C1182 C1177 1.350 . S
C1183 H1170 0.929 . S
C1183 C1175 1.433 . S
C1183 N1185 1.384 . S
N1184 C1180 1.427 . S
N1184 C1181 1.384 1_655 S
N1185 C1177 1.427 . S
N1185 C1183 1.384 . S
H1186 C1192 0.930 . S
H1187 C1196 0.930 . S
H1188 C1201 0.929 . S
H1189 C1199 0.929 . S
H1190 C1194 0.929 . S
H1191 C1200 0.929 . S
C1192 H1186 0.930 . S
C1192 C1193 1.367 . S
C1192 C1200 1.378 . S
C1193 C1192 1.367 . S
C1193 C1201 1.433 . S
C1194 H1190 0.929 . S
C1194 C1196 1.378 . S
C1194 C1198 1.350 . S
C1195 C1198 1.463 . S
C1195 C1200 1.350 . S
C1195 N1203 1.427 . S
C1196 H1187 0.930 . S
C1196 C1194 1.378 . S
C1196 C1197 1.367 . S
C1197 C1196 1.367 . S
C1197 C1199 1.433 . S
C1198 C1194 1.350 . S
C1198 C1195 1.463 . S
C1198 N1202 1.427 . S
C1199 H1189 0.929 . S
C1199 C1197 1.433 . S
C1199 N1202 1.384 . S
C1200 H1191 0.929 . S
C1200 C1192 1.378 . S
C1200 C1195 1.350 . S
C1201 H1188 0.929 . S
C1201 C1193 1.433 . S
C1201 N1203 1.384 . S
N1202 C1198 1.427 . S
N1202 C1199 1.384 . S
N1203 C1195 1.427 . S
N1203 C1201 1.384 . S
H1204 C1210 0.930 . S
H1205 C1214 0.930 . S
H1206 C1219 0.929 1_565 S
H1207 C1217 0.929 . S
H1208 C1212 0.929 . S
H1209 C1218 0.929 . S
C1210 H1204 0.930 . S
C1210 C1211 1.367 . S
C1210 C1218 1.378 . S
C1211 C1210 1.367 . S
C1211 C1219 1.433 . S
C1212 H1208 0.929 . S
C1212 C1214 1.378 . S
C1212 C1216 1.350 . S
C1213 C1216 1.463 . S
C1213 C1218 1.350 . S
C1213 N1221 1.427 . S
C1214 H1205 0.930 . S
C1214 C1212 1.378 . S
C1214 C1215 1.367 . S
C1215 C1214 1.367 . S
C1215 C1217 1.433 . S
C1216 C1212 1.350 . S
C1216 C1213 1.463 . S
C1216 N1220 1.427 . S
C1217 H1207 0.929 . S
C1217 C1215 1.433 . S
C1217 N1220 1.384 . S
C1218 H1209 0.929 . S
C1218 C1210 1.378 . S
C1218 C1213 1.350 . S
C1219 H1206 0.929 1_545 S
C1219 C1211 1.433 . S
C1219 N1221 1.384 . S
N1220 C1216 1.427 . S
N1220 C1217 1.384 . S
N1221 C1213 1.427 . S
N1221 C1219 1.384 . S
H1222 C1228 0.930 . S
H1223 C1232 0.930 . S
H1224 C1237 0.929 . S
H1225 C1235 0.929 . S
H1226 C1230 0.929 . S
H1227 C1236 0.929 . S
C1228 H1222 0.930 . S
C1228 C1229 1.367 . S
C1228 C1236 1.378 . S
C1229 C1228 1.367 . S
C1229 C1237 1.433 . S
C1230 H1226 0.929 . S
C1230 C1232 1.378 . S
C1230 C1234 1.350 . S
C1231 C1234 1.463 . S
C1231 C1236 1.350 . S
C1231 N1239 1.427 . S
C1232 H1223 0.930 . S
C1232 C1230 1.378 . S
C1232 C1233 1.367 . S
C1233 C1232 1.367 . S
C1233 C1235 1.433 . S
C1234 C1230 1.350 . S
C1234 C1231 1.463 . S
C1234 N1238 1.427 . S
C1235 H1225 0.929 . S
C1235 C1233 1.433 . S
C1235 N1238 1.384 . S
C1236 H1227 0.929 . S
C1236 C1228 1.378 . S
C1236 C1231 1.350 . S
C1237 H1224 0.929 . S
C1237 C1229 1.433 . S
C1237 N1239 1.384 . S
N1238 C1234 1.427 . S
N1238 C1235 1.384 . S
N1239 C1231 1.427 . S
N1239 C1237 1.384 . S
H1240 C1246 0.930 . S
H1241 C1250 0.930 . S
H1242 C1255 0.929 . S
H1243 C1253 0.929 . S
H1244 C1248 0.929 . S
H1245 C1254 0.929 . S
C1246 H1240 0.930 . S
C1246 C1247 1.367 . S
C1246 C1254 1.378 . S
C1247 C1246 1.367 . S
C1247 C1255 1.433 . S
C1248 H1244 0.929 . S
C1248 C1250 1.378 . S
C1248 C1252 1.350 . S
C1249 C1252 1.463 1_565 S
C1249 C1254 1.350 . S
C1249 N1257 1.427 . S
C1250 H1241 0.930 . S
C1250 C1248 1.378 . S
C1250 C1251 1.367 . S
C1251 C1250 1.367 . S
C1251 C1253 1.433 . S
C1252 C1248 1.350 . S
C1252 C1249 1.463 1_545 S
C1252 N1256 1.427 . S
C1253 H1243 0.929 . S
C1253 C1251 1.433 . S
C1253 N1256 1.384 . S
C1254 H1245 0.929 . S
C1254 C1246 1.378 . S
C1254 C1249 1.350 . S
C1255 H1242 0.929 . S
C1255 C1247 1.433 . S
C1255 N1257 1.384 . S
N1256 C1252 1.427 . S
N1256 C1253 1.384 . S
N1257 C1249 1.427 . S
N1257 C1255 1.384 . S
H1258 C1264 0.930 . S
H1259 C1268 0.930 1_556 S
H1260 C1273 0.929 . S
H1261 C1271 0.929 . S
H1262 C1266 0.922 1_556 S
H1263 C1272 0.929 . S
C1264 H1258 0.930 . S
C1264 C1265 1.367 . S
C1264 C1272 1.378 . S
C1265 C1264 1.367 . S
C1265 C1273 1.433 1_554 S
C1266 H1262 0.922 1_554 S
C1266 C1268 1.380 . S
C1266 C1270 1.355 . S
C1267 C1270 1.463 . S
C1267 C1272 1.350 . S
C1267 N1275 1.427 1_554 S
C1268 H1259 0.930 1_554 S
C1268 C1266 1.380 . S
C1268 C1269 1.367 . S
C1269 C1268 1.367 . S
C1269 C1271 1.433 . S
C1270 C1266 1.355 . S
C1270 C1267 1.463 . S
C1270 N1274 1.427 . S
C1271 H1261 0.929 . S
C1271 C1269 1.433 . S
C1271 N1274 1.384 . S
C1272 H1263 0.929 . S
C1272 C1264 1.378 . S
C1272 C1267 1.350 . S
C1273 H1260 0.929 . S
C1273 C1265 1.433 1_556 S
C1273 N1275 1.384 . S
N1274 C1270 1.427 . S
N1274 C1271 1.384 . S
N1275 C1267 1.427 1_556 S
N1275 C1273 1.384 . S
H1276 C1282 0.930 . S
H1277 C1286 0.930 . S
H1278 C1291 0.929 . S
H1279 C1289 0.929 . S
H1280 C1284 0.929 . S
H1281 C1290 0.929 . S
C1282 H1276 0.930 . S
C1282 C1283 1.367 . S
C1282 C1290 1.378 . S
C1283 C1282 1.367 . S
C1283 C1291 1.433 . S
C1284 H1280 0.929 . S
C1284 C1286 1.378 . S
C1284 C1288 1.350 . S
C1285 C1288 1.463 . S
C1285 C1290 1.350 . S
C1285 N1293 1.427 . S
C1286 H1277 0.930 . S
C1286 C1284 1.378 . S
C1286 C1287 1.367 . S
C1287 C1286 1.367 . S
C1287 C1289 1.433 . S
C1288 C1284 1.350 . S
C1288 C1285 1.463 . S
C1288 N1292 1.427 . S
C1289 H1279 0.929 . S
C1289 C1287 1.433 . S
C1289 N1292 1.384 . S
C1290 H1281 0.929 . S
C1290 C1282 1.378 . S
C1290 C1285 1.350 . S
C1291 H1278 0.929 . S
C1291 C1283 1.433 . S
C1291 N1293 1.384 . S
N1292 C1288 1.427 . S
N1292 C1289 1.384 . S
N1293 C1285 1.427 . S
N1293 C1291 1.384 . S
H1294 C1300 0.930 . S
H1295 C1304 0.930 . S
H1296 C1309 0.929 . S
H1297 C1307 0.929 . S
H1298 C1302 0.929 . S
H1299 C1308 0.929 . S
C1300 H1294 0.930 . S
C1300 C1301 1.367 . S
C1300 C1308 1.378 . S
C1301 C1300 1.367 . S
C1301 C1309 1.433 . S
C1302 H1298 0.929 . S
C1302 C1304 1.378 . S
C1302 C1306 1.350 . S
C1303 C1306 1.463 . S
C1303 C1308 1.350 . S
C1303 N1311 1.427 . S
C1304 H1295 0.930 . S
C1304 C1302 1.378 . S
C1304 C1305 1.367 . S
C1305 C1304 1.367 . S
C1305 C1307 1.433 . S
C1306 C1302 1.350 . S
C1306 C1303 1.463 . S
C1306 N1310 1.427 . S
C1307 H1297 0.929 . S
C1307 C1305 1.433 . S
C1307 N1310 1.384 . S
C1308 H1299 0.929 . S
C1308 C1300 1.378 . S
C1308 C1303 1.350 . S
C1309 H1296 0.929 . S
C1309 C1301 1.433 . S
C1309 N1311 1.384 . S
N1310 C1306 1.427 . S
N1310 C1307 1.384 . S
N1311 C1303 1.427 . S
N1311 C1309 1.384 . S
H1312 C1318 0.930 . S
H1313 C1322 0.930 . S
H1314 C1327 0.929 . S
H1315 C1325 0.929 . S
H1316 C1320 0.929 . S
H1317 C1326 0.929 . S
C1318 H1312 0.930 . S
C1318 C1319 1.367 . S
C1318 C1326 1.378 . S
C1319 C1318 1.367 . S
C1319 C1327 1.433 . S
C1320 H1316 0.929 . S
C1320 C1322 1.378 . S
C1320 C1324 1.350 . S
C1321 C1324 1.463 . S
C1321 C1326 1.350 . S
C1321 N1329 1.427 . S
C1322 H1313 0.930 . S
C1322 C1320 1.378 . S
C1322 C1323 1.367 . S
C1323 C1322 1.367 . S
C1323 C1325 1.433 . S
C1324 C1320 1.350 . S
C1324 C1321 1.463 . S
C1324 N1328 1.427 . S
C1325 H1315 0.929 . S
C1325 C1323 1.433 . S
C1325 N1328 1.384 . S
C1326 H1317 0.929 . S
C1326 C1318 1.378 . S
C1326 C1321 1.350 . S
C1327 H1314 0.929 . S
C1327 C1319 1.433 . S
C1327 N1329 1.384 . S
N1328 C1324 1.427 . S
N1328 C1325 1.384 . S
N1329 C1321 1.427 . S
N1329 C1327 1.384 . S
H1330 C1336 0.930 . S
H1331 C1340 0.930 . S
H1332 C1345 0.929 . S
H1333 C1343 0.929 . S
H1334 C1338 0.929 . S
H1335 C1344 0.929 . S
C1336 H1330 0.930 . S
C1336 C1337 1.367 . S
C1336 C1344 1.378 . S
C1337 C1336 1.367 . S
C1337 C1345 1.433 . S
C1338 H1334 0.929 . S
C1338 C1340 1.378 . S
C1338 C1342 1.350 . S
C1339 C1342 1.463 . S
C1339 C1344 1.350 . S
C1339 N1347 1.427 . S
C1340 H1331 0.930 . S
C1340 C1338 1.378 . S
C1340 C1341 1.367 . S
C1341 C1340 1.367 . S
C1341 C1343 1.433 . S
C1342 C1338 1.350 . S
C1342 C1339 1.463 . S
C1342 N1346 1.427 . S
C1343 H1333 0.929 . S
C1343 C1341 1.433 . S
C1343 N1346 1.384 . S
C1344 H1335 0.929 . S
C1344 C1336 1.378 . S
C1344 C1339 1.350 . S
C1345 H1332 0.929 . S
C1345 C1337 1.433 . S
C1345 N1347 1.384 . S
N1346 C1342 1.427 . S
N1346 C1343 1.384 . S
N1347 C1339 1.427 . S
N1347 C1345 1.384 . S
H1348 C1354 0.930 . S
H1349 C1358 0.930 . S
H1350 C1363 0.929 . S
H1351 C1361 0.929 . S
H1352 C1356 0.929 . S
H1353 C1362 0.929 . S
C1354 H1348 0.930 . S
C1354 C1355 1.367 . S
C1354 C1362 1.378 . S
C1355 C1354 1.367 . S
C1355 C1363 1.433 . S
C1356 H1352 0.929 . S
C1356 C1358 1.378 . S
C1356 C1360 1.350 . S
C1357 C1360 1.463 . S
C1357 C1362 1.350 . S
C1357 N1365 1.427 . S
C1358 H1349 0.930 . S
C1358 C1356 1.378 . S
C1358 C1359 1.367 . S
C1359 C1358 1.367 . S
C1359 C1361 1.433 . S
C1360 C1356 1.350 . S
C1360 C1357 1.463 . S
C1360 N1364 1.427 . S
C1361 H1351 0.929 . S
C1361 C1359 1.433 . S
C1361 N1364 1.384 . S
C1362 H1353 0.929 . S
C1362 C1354 1.378 . S
C1362 C1357 1.350 . S
C1363 H1350 0.929 . S
C1363 C1355 1.433 . S
C1363 N1365 1.384 . S
N1364 C1360 1.427 . S
N1364 C1361 1.384 . S
N1365 C1357 1.427 . S
N1365 C1363 1.384 . S
H1366 C1372 0.930 . S
H1367 C1376 0.930 . S
H1368 C1381 0.929 . S
H1369 C1379 0.929 . S
H1370 C1374 0.929 . S
H1371 C1380 0.929 . S
C1372 H1366 0.930 . S
C1372 C1373 1.367 . S
C1372 C1380 1.378 . S
C1373 C1372 1.367 . S
C1373 C1381 1.433 . S
C1374 H1370 0.929 . S
C1374 C1376 1.378 . S
C1374 C1378 1.350 . S
C1375 C1378 1.463 . S
C1375 C1380 1.350 . S
C1375 N1383 1.427 . S
C1376 H1367 0.930 . S
C1376 C1374 1.378 . S
C1376 C1377 1.367 . S
C1377 C1376 1.367 . S
C1377 C1379 1.433 . S
C1378 C1374 1.350 . S
C1378 C1375 1.463 . S
C1378 N1382 1.427 . S
C1379 H1369 0.929 . S
C1379 C1377 1.433 . S
C1379 N1382 1.384 . S
C1380 H1371 0.929 . S
C1380 C1372 1.378 . S
C1380 C1375 1.350 . S
C1381 H1368 0.929 . S
C1381 C1373 1.433 . S
C1381 N1383 1.384 . S
N1382 C1378 1.427 . S
N1382 C1379 1.384 . S
N1383 C1375 1.427 . S
N1383 C1381 1.384 . S
H1384 C1390 0.930 . S
H1385 C1394 0.930 . S
H1386 C1399 0.929 . S
H1387 C1397 0.929 . S
H1388 C1392 0.929 . S
H1389 C1398 0.929 . S
C1390 H1384 0.930 . S
C1390 C1391 1.367 . S
C1390 C1398 1.378 . S
C1391 C1390 1.367 . S
C1391 C1399 1.433 . S
C1392 H1388 0.929 . S
C1392 C1394 1.378 . S
C1392 C1396 1.350 . S
C1393 C1396 1.463 . S
C1393 C1398 1.350 . S
C1393 N1401 1.427 . S
C1394 H1385 0.930 . S
C1394 C1392 1.378 . S
C1394 C1395 1.367 . S
C1395 C1394 1.367 . S
C1395 C1397 1.433 . S
C1396 C1392 1.350 . S
C1396 C1393 1.463 . S
C1396 N1400 1.427 . S
C1397 H1387 0.929 . S
C1397 C1395 1.433 . S
C1397 N1400 1.384 . S
C1398 H1389 0.929 . S
C1398 C1390 1.378 . S
C1398 C1393 1.350 . S
C1399 H1386 0.929 . S
C1399 C1391 1.433 . S
C1399 N1401 1.384 . S
N1400 C1396 1.427 . S
N1400 C1397 1.384 . S
N1401 C1393 1.427 . S
N1401 C1399 1.384 . S
H1402 C1408 0.930 . S
H1403 C1412 0.930 . S
H1404 C1417 0.929 . S
H1405 C1415 0.929 . S
H1406 C1410 0.929 . S
H1407 C1416 0.929 . S
C1408 H1402 0.930 . S
C1408 C1409 1.367 . S
C1408 C1416 1.378 . S
C1409 C1408 1.367 . S
C1409 C1417 1.433 . S
C1410 H1406 0.929 . S
C1410 C1412 1.378 . S
C1410 C1414 1.350 . S
C1411 C1414 1.463 . S
C1411 C1416 1.350 . S
C1411 N1419 1.427 . S
C1412 H1403 0.930 . S
C1412 C1410 1.378 . S
C1412 C1413 1.367 . S
C1413 C1412 1.367 . S
C1413 C1415 1.433 . S
C1414 C1410 1.350 . S
C1414 C1411 1.463 . S
C1414 N1418 1.427 . S
C1415 H1405 0.929 . S
C1415 C1413 1.433 . S
C1415 N1418 1.384 . S
C1416 H1407 0.929 . S
C1416 C1408 1.378 . S
C1416 C1411 1.350 . S
C1417 H1404 0.929 . S
C1417 C1409 1.433 . S
C1417 N1419 1.384 . S
N1418 C1414 1.427 . S
N1418 C1415 1.384 . S
N1419 C1411 1.427 . S
N1419 C1417 1.384 . S
H1420 C1426 0.930 . S
H1421 C1430 0.930 . S
H1422 C1435 0.929 . S
H1423 C1433 0.929 . S
H1424 C1428 0.929 . S
H1425 C1434 0.929 . S
C1426 H1420 0.930 . S
C1426 C1427 1.367 . S
C1426 C1434 1.378 . S
C1427 C1426 1.367 . S
C1427 C1435 1.433 . S
C1428 H1424 0.929 . S
C1428 C1430 1.378 . S
C1428 C1432 1.350 . S
C1429 C1432 1.463 . S
C1429 C1434 1.350 . S
C1429 N1437 1.427 . S
C1430 H1421 0.930 . S
C1430 C1428 1.378 . S
C1430 C1431 1.367 . S
C1431 C1430 1.367 . S
C1431 C1433 1.433 . S
C1432 C1428 1.350 . S
C1432 C1429 1.463 . S
C1432 N1436 1.427 . S
C1433 H1423 0.929 . S
C1433 C1431 1.433 . S
C1433 N1436 1.384 . S
C1434 H1425 0.929 . S
C1434 C1426 1.378 . S
C1434 C1429 1.350 . S
C1435 H1422 0.929 . S
C1435 C1427 1.433 . S
C1435 N1437 1.384 . S
N1436 C1432 1.427 . S
N1436 C1433 1.384 . S
N1437 C1429 1.427 . S
N1437 C1435 1.384 . S
H1438 C1444 0.930 . S
H1439 C1448 0.930 . S
H1440 C1453 0.929 . S
H1441 C1451 0.929 . S
H1442 C1446 0.929 . S
H1443 C1452 0.929 . S
C1444 H1438 0.930 . S
C1444 C1445 1.367 . S
C1444 C1452 1.378 . S
C1445 C1444 1.367 . S
C1445 C1453 1.433 . S
C1446 H1442 0.929 . S
C1446 C1448 1.378 . S
C1446 C1450 1.350 . S
C1447 C1450 1.463 . S
C1447 C1452 1.350 . S
C1447 N1455 1.427 . S
C1448 H1439 0.930 . S
C1448 C1446 1.378 . S
C1448 C1449 1.367 . S
C1449 C1448 1.367 . S
C1449 C1451 1.433 . S
C1450 C1446 1.350 . S
C1450 C1447 1.463 . S
C1450 N1454 1.427 . S
C1451 H1441 0.929 . S
C1451 C1449 1.433 . S
C1451 N1454 1.384 . S
C1452 H1443 0.929 . S
C1452 C1444 1.378 . S
C1452 C1447 1.350 . S
C1453 H1440 0.929 . S
C1453 C1445 1.433 . S
C1453 N1455 1.384 . S
N1454 C1450 1.427 . S
N1454 C1451 1.384 . S
N1455 C1447 1.427 . S
N1455 C1453 1.384 . S
H1456 C1462 0.892 1_655 S
H1457 C1466 0.930 . S
H1458 C1471 0.929 . S
H1459 C1469 0.929 . S
H1460 C1464 0.929 . S
H1461 C1470 0.929 1_655 S
C1462 H1456 0.892 1_455 S
C1462 C1463 1.393 . S
C1462 C1470 1.392 . S
C1463 C1462 1.393 . S
C1463 C1471 1.433 . S
C1464 H1460 0.929 . S
C1464 C1466 1.378 . S
C1464 C1468 1.350 . S
C1465 C1468 1.463 . S
C1465 C1470 1.350 . S
C1465 N1473 1.427 . S
C1466 H1457 0.930 . S
C1466 C1464 1.378 . S
C1466 C1467 1.367 . S
C1467 C1466 1.367 . S
C1467 C1469 1.433 . S
C1468 C1464 1.350 . S
C1468 C1465 1.463 . S
C1468 N1472 1.427 . S
C1469 H1459 0.929 . S
C1469 C1467 1.433 . S
C1469 N1472 1.384 . S
C1470 H1461 0.929 1_455 S
C1470 C1462 1.392 . S
C1470 C1465 1.350 . S
C1471 H1458 0.929 . S
C1471 C1463 1.433 . S
C1471 N1473 1.384 . S
N1472 C1468 1.427 . S
N1472 C1469 1.384 . S
N1473 C1465 1.427 . S
N1473 C1471 1.384 . S
H1474 C1480 0.930 . S
H1475 C1484 0.930 . S
H1476 C1489 0.929 . S
H1477 C1487 0.929 . S
H1478 C1482 0.929 . S
H1479 C1488 0.929 . S
C1480 H1474 0.930 . S
C1480 C1481 1.367 . S
C1480 C1488 1.378 . S
C1481 C1480 1.367 . S
C1481 C1489 1.433 . S
C1482 H1478 0.929 . S
C1482 C1484 1.378 . S
C1482 C1486 1.350 . S
C1483 C1486 1.463 . S
C1483 C1488 1.350 . S
C1483 N1491 1.427 . S
C1484 H1475 0.930 . S
C1484 C1482 1.378 . S
C1484 C1485 1.367 . S
C1485 C1484 1.367 . S
C1485 C1487 1.433 . S
C1486 C1482 1.350 . S
C1486 C1483 1.463 . S
C1486 N1490 1.427 . S
C1487 H1477 0.929 . S
C1487 C1485 1.433 . S
C1487 N1490 1.384 . S
C1488 H1479 0.929 . S
C1488 C1480 1.378 . S
C1488 C1483 1.350 . S
C1489 H1476 0.929 . S
C1489 C1481 1.433 . S
C1489 N1491 1.384 . S
N1490 C1486 1.427 . S
N1490 C1487 1.384 . S
N1491 C1483 1.427 . S
N1491 C1489 1.384 . S
H1492 C1498 0.930 . S
H1493 C1502 0.930 . S
H1494 C1507 0.929 . S
H1495 C1505 0.929 1_545 S
H1496 C1500 0.929 . S
H1497 C1506 0.929 . S
C1498 H1492 0.930 . S
C1498 C1499 1.367 . S
C1498 C1506 1.378 . S
C1499 C1498 1.367 . S
C1499 C1507 1.433 . S
C1500 H1496 0.929 . S
C1500 C1502 1.378 . S
C1500 C1504 1.350 1_554 S
C1501 C1504 1.463 . S
C1501 C1506 1.350 . S
C1501 N1509 1.427 . S
C1502 H1493 0.930 . S
C1502 C1500 1.378 . S
C1502 C1503 1.367 . S
C1503 C1502 1.367 . S
C1503 C1505 1.433 1_554 S
C1504 C1500 1.350 1_556 S
C1504 C1501 1.463 . S
C1504 N1508 1.427 . S
C1505 H1495 0.929 1_565 S
C1505 C1503 1.433 1_556 S
C1505 N1508 1.384 . S
C1506 H1497 0.929 . S
C1506 C1498 1.378 . S
C1506 C1501 1.350 . S
C1507 H1494 0.929 . S
C1507 C1499 1.433 . S
C1507 N1509 1.384 . S
N1508 C1504 1.427 . S
N1508 C1505 1.384 . S
N1509 C1501 1.427 . S
N1509 C1507 1.384 . S
H1510 C1516 0.930 . S
H1511 C1520 0.930 . S
H1512 C1525 0.929 . S
H1513 C1523 0.929 . S
H1514 C1518 0.929 1_455 S
H1515 C1524 0.929 . S
C1516 H1510 0.930 . S
C1516 C1517 1.367 . S
C1516 C1524 1.378 1_455 S
C1517 C1516 1.367 . S
C1517 C1525 1.433 . S
C1518 H1514 0.929 1_655 S
C1518 C1520 1.378 . S
C1518 C1522 1.350 . S
C1519 C1522 1.463 . S
C1519 C1524 1.350 . S
C1519 N1527 1.427 1_655 S
C1520 H1511 0.930 . S
C1520 C1518 1.378 . S
C1520 C1521 1.367 . S
C1521 C1520 1.367 . S
C1521 C1523 1.433 . S
C1522 C1518 1.350 . S
C1522 C1519 1.463 . S
C1522 N1526 1.427 . S
C1523 H1513 0.929 . S
C1523 C1521 1.433 . S
C1523 N1526 1.384 . S
C1524 H1515 0.929 . S
C1524 C1516 1.378 1_655 S
C1524 C1519 1.350 . S
C1525 H1512 0.929 . S
C1525 C1517 1.433 . S
C1525 N1527 1.384 . S
N1526 C1522 1.427 . S
N1526 C1523 1.384 . S
N1527 C1519 1.427 1_455 S
N1527 C1525 1.384 . S
H1528 C1534 0.930 . S
H1529 C1538 0.930 . S
H1530 C1543 0.929 . S
H1531 C1541 0.929 . S
H1532 C1536 0.929 . S
H1533 C1542 0.929 . S
C1534 H1528 0.930 . S
C1534 C1535 1.367 . S
C1534 C1542 1.378 . S
C1535 C1534 1.367 . S
C1535 C1543 1.433 . S
C1536 H1532 0.929 . S
C1536 C1538 1.378 . S
C1536 C1540 1.350 . S
C1537 C1540 1.463 . S
C1537 C1542 1.350 . S
C1537 N1545 1.427 . S
C1538 H1529 0.930 . S
C1538 C1536 1.378 . S
C1538 C1539 1.367 . S
C1539 C1538 1.367 . S
C1539 C1541 1.433 . S
C1540 C1536 1.350 . S
C1540 C1537 1.463 . S
C1540 N1544 1.427 . S
C1541 H1531 0.929 . S
C1541 C1539 1.433 . S
C1541 N1544 1.384 . S
C1542 H1533 0.929 . S
C1542 C1534 1.378 . S
C1542 C1537 1.350 . S
C1543 H1530 0.929 . S
C1543 C1535 1.433 . S
C1543 N1545 1.384 . S
N1544 C1540 1.427 . S
N1544 C1541 1.384 . S
N1545 C1537 1.427 . S
N1545 C1543 1.384 . S
H1546 C1552 0.930 . S
H1547 C1556 0.930 . S
H1548 C1561 0.929 . S
H1549 C1559 0.929 . S
H1550 C1554 0.929 . S
H1551 C1560 0.929 . S
C1552 H1546 0.930 . S
C1552 C1553 1.367 . S
C1552 C1560 1.378 . S
C1553 C1552 1.367 . S
C1553 C1561 1.433 . S
C1554 H1550 0.929 . S
C1554 C1556 1.378 . S
C1554 C1558 1.350 . S
C1555 C1558 1.463 . S
C1555 C1560 1.350 . S
C1555 N1563 1.427 . S
C1556 H1547 0.930 . S
C1556 C1554 1.378 . S
C1556 C1557 1.367 . S
C1557 C1556 1.367 . S
C1557 C1559 1.433 . S
C1558 C1554 1.350 . S
C1558 C1555 1.463 . S
C1558 N1562 1.427 . S
C1559 H1549 0.929 . S
C1559 C1557 1.433 . S
C1559 N1562 1.384 . S
C1560 H1551 0.929 . S
C1560 C1552 1.378 . S
C1560 C1555 1.350 . S
C1561 H1548 0.929 . S
C1561 C1553 1.433 . S
C1561 N1563 1.384 . S
N1562 C1558 1.427 . S
N1562 C1559 1.384 . S
N1563 C1555 1.427 . S
N1563 C1561 1.384 . S
H1564 C1570 0.930 . S
H1565 C1574 0.930 . S
H1566 C1579 0.929 . S
H1567 C1577 0.929 . S
H1568 C1572 0.929 . S
H1569 C1578 0.929 . S
C1570 H1564 0.930 . S
C1570 C1571 1.367 . S
C1570 C1578 1.378 . S
C1571 C1570 1.367 . S
C1571 C1579 1.433 . S
C1572 H1568 0.929 . S
C1572 C1574 1.378 . S
C1572 C1576 1.350 . S
C1573 C1576 1.463 . S
C1573 C1578 1.350 . S
C1573 N1581 1.427 . S
C1574 H1565 0.930 . S
C1574 C1572 1.378 . S
C1574 C1575 1.367 . S
C1575 C1574 1.367 . S
C1575 C1577 1.433 . S
C1576 C1572 1.350 . S
C1576 C1573 1.463 . S
C1576 N1580 1.427 . S
C1577 H1567 0.929 . S
C1577 C1575 1.433 . S
C1577 N1580 1.384 . S
C1578 H1569 0.929 . S
C1578 C1570 1.378 . S
C1578 C1573 1.350 . S
C1579 H1566 0.929 . S
C1579 C1571 1.433 . S
C1579 N1581 1.384 . S
N1580 C1576 1.427 . S
N1580 C1577 1.384 . S
N1581 C1573 1.427 . S
N1581 C1579 1.384 . S
H1582 C1588 0.930 . S
H1583 C1592 0.930 . S
H1584 C1597 0.929 . S
H1585 C1595 0.929 . S
H1586 C1590 0.929 . S
H1587 C1596 0.929 . S
C1588 H1582 0.930 . S
C1588 C1589 1.367 . S
C1588 C1596 1.378 . S
C1589 C1588 1.367 . S
C1589 C1597 1.433 . S
C1590 H1586 0.929 . S
C1590 C1592 1.378 . S
C1590 C1594 1.350 . S
C1591 C1594 1.463 . S
C1591 C1596 1.350 . S
C1591 N1599 1.427 . S
C1592 H1583 0.930 . S
C1592 C1590 1.378 . S
C1592 C1593 1.367 . S
C1593 C1592 1.367 . S
C1593 C1595 1.433 . S
C1594 C1590 1.350 . S
C1594 C1591 1.463 . S
C1594 N1598 1.427 . S
C1595 H1585 0.929 . S
C1595 C1593 1.433 . S
C1595 N1598 1.384 . S
C1596 H1587 0.929 . S
C1596 C1588 1.378 . S
C1596 C1591 1.350 . S
C1597 H1584 0.929 . S
C1597 C1589 1.433 . S
C1597 N1599 1.384 . S
N1598 C1594 1.427 . S
N1598 C1595 1.384 . S
N1599 C1591 1.427 . S
N1599 C1597 1.384 . S
H1600 C1606 0.930 . S
H1601 C1610 0.930 . S
H1602 C1615 0.929 . S
H1603 C1613 0.929 . S
H1604 C1608 0.929 . S
H1605 C1614 0.929 . S
C1606 H1600 0.930 . S
C1606 C1607 1.367 . S
C1606 C1614 1.378 . S
C1607 C1606 1.367 . S
C1607 C1615 1.433 . S
C1608 H1604 0.929 . S
C1608 C1610 1.378 . S
C1608 C1612 1.350 . S
C1609 C1612 1.463 . S
C1609 C1614 1.350 . S
C1609 N1617 1.427 . S
C1610 H1601 0.930 . S
C1610 C1608 1.378 . S
C1610 C1611 1.367 . S
C1611 C1610 1.367 . S
C1611 C1613 1.433 . S
C1612 C1608 1.350 . S
C1612 C1609 1.463 . S
C1612 N1616 1.427 . S
C1613 H1603 0.929 . S
C1613 C1611 1.433 . S
C1613 N1616 1.384 . S
C1614 H1605 0.929 . S
C1614 C1606 1.378 . S
C1614 C1609 1.350 . S
C1615 H1602 0.929 . S
C1615 C1607 1.433 . S
C1615 N1617 1.384 . S
N1616 C1612 1.427 . S
N1616 C1613 1.384 . S
N1617 C1609 1.427 . S
N1617 C1615 1.384 . S
H1618 C1624 0.930 . S
H1619 C1628 0.930 . S
H1620 C1633 0.929 . S
H1621 C1631 0.929 . S
H1622 C1626 0.929 . S
H1623 C1632 0.929 . S
C1624 H1618 0.930 . S
C1624 C1625 1.367 . S
C1624 C1632 1.378 . S
C1625 C1624 1.367 . S
C1625 C1633 1.433 . S
C1626 H1622 0.929 . S
C1626 C1628 1.378 . S
C1626 C1630 1.350 . S
C1627 C1630 1.463 . S
C1627 C1632 1.350 . S
C1627 N1635 1.427 . S
C1628 H1619 0.930 . S
C1628 C1626 1.378 . S
C1628 C1629 1.367 . S
C1629 C1628 1.367 . S
C1629 C1631 1.433 . S
C1630 C1626 1.350 . S
C1630 C1627 1.463 . S
C1630 N1634 1.427 . S
C1631 H1621 0.929 . S
C1631 C1629 1.433 . S
C1631 N1634 1.384 . S
C1632 H1623 0.929 . S
C1632 C1624 1.378 . S
C1632 C1627 1.350 . S
C1633 H1620 0.929 . S
C1633 C1625 1.433 . S
C1633 N1635 1.384 . S
N1634 C1630 1.427 . S
N1634 C1631 1.384 . S
N1635 C1627 1.427 . S
N1635 C1633 1.384 . S
H1636 C1642 0.930 . S
H1637 C1646 0.930 . S
H1638 C1651 0.929 . S
H1639 C1649 0.929 . S
H1640 C1644 0.929 . S
H1641 C1650 0.929 . S
C1642 H1636 0.930 . S
C1642 C1643 1.367 . S
C1642 C1650 1.378 . S
C1643 C1642 1.367 . S
C1643 C1651 1.433 . S
C1644 H1640 0.929 . S
C1644 C1646 1.378 . S
C1644 C1648 1.350 . S
C1645 C1648 1.463 . S
C1645 C1650 1.350 . S
C1645 N1653 1.427 . S
C1646 H1637 0.930 . S
C1646 C1644 1.378 . S
C1646 C1647 1.367 . S
C1647 C1646 1.367 . S
C1647 C1649 1.433 . S
C1648 C1644 1.350 . S
C1648 C1645 1.463 . S
C1648 N1652 1.427 . S
C1649 H1639 0.929 . S
C1649 C1647 1.433 . S
C1649 N1652 1.384 . S
C1650 H1641 0.929 . S
C1650 C1642 1.378 . S
C1650 C1645 1.350 . S
C1651 H1638 0.929 . S
C1651 C1643 1.433 . S
C1651 N1653 1.384 . S
N1652 C1648 1.427 . S
N1652 C1649 1.384 . S
N1653 C1645 1.427 . S
N1653 C1651 1.384 . S
H1654 C1660 0.930 . S
H1655 C1664 0.930 . S
H1656 C1669 0.929 . S
H1657 C1667 0.929 . S
H1658 C1662 0.929 . S
H1659 C1668 0.929 . S
C1660 H1654 0.930 . S
C1660 C1661 1.367 . S
C1660 C1668 1.378 . S
C1661 C1660 1.367 . S
C1661 C1669 1.433 . S
C1662 H1658 0.929 . S
C1662 C1664 1.378 . S
C1662 C1666 1.350 . S
C1663 C1666 1.463 . S
C1663 C1668 1.350 . S
C1663 N1671 1.427 . S
C1664 H1655 0.930 . S
C1664 C1662 1.378 . S
C1664 C1665 1.367 . S
C1665 C1664 1.367 . S
C1665 C1667 1.433 . S
C1666 C1662 1.350 . S
C1666 C1663 1.463 . S
C1666 N1670 1.427 . S
C1667 H1657 0.929 . S
C1667 C1665 1.433 . S
C1667 N1670 1.384 . S
C1668 H1659 0.929 . S
C1668 C1660 1.378 . S
C1668 C1663 1.350 . S
C1669 H1656 0.929 . S
C1669 C1661 1.433 . S
C1669 N1671 1.384 . S
N1670 C1666 1.427 . S
N1670 C1667 1.384 . S
N1671 C1663 1.427 . S
N1671 C1669 1.384 . S
H1672 C1678 0.909 1_554 S
H1673 C1682 0.930 . S
H1674 C1687 0.929 . S
H1675 C1685 0.929 . S
H1676 C1680 0.929 . S
H1677 C1686 0.929 . S
C1678 H1672 0.909 1_556 S
C1678 C1679 1.367 . S
C1678 C1686 1.378 . S
C1679 C1678 1.367 . S
C1679 C1687 1.433 . S
C1680 H1676 0.929 . S
C1680 C1682 1.378 . S
C1680 C1684 1.350 . S
C1681 C1684 1.463 . S
C1681 C1686 1.350 . S
C1681 N1689 1.427 . S
C1682 H1673 0.930 . S
C1682 C1680 1.378 . S
C1682 C1683 1.367 . S
C1683 C1682 1.367 . S
C1683 C1685 1.433 . S
C1684 C1680 1.350 . S
C1684 C1681 1.463 . S
C1684 N1688 1.427 . S
C1685 H1675 0.929 . S
C1685 C1683 1.433 . S
C1685 N1688 1.384 . S
C1686 H1677 0.929 . S
C1686 C1678 1.378 . S
C1686 C1681 1.350 . S
C1687 H1674 0.929 . S
C1687 C1679 1.433 . S
C1687 N1689 1.384 . S
N1688 C1684 1.427 . S
N1688 C1685 1.384 . S
N1689 C1681 1.427 . S
N1689 C1687 1.384 . S
H1690 C1696 0.930 . S
H1691 C1700 0.930 . S
H1692 C1705 0.929 . S
H1693 C1703 0.929 . S
H1694 C1698 0.929 . S
H1695 C1704 0.929 . S
C1696 H1690 0.930 . S
C1696 C1697 1.367 . S
C1696 C1704 1.378 . S
C1697 C1696 1.367 . S
C1697 C1705 1.433 . S
C1698 H1694 0.929 . S
C1698 C1700 1.378 . S
C1698 C1702 1.350 . S
C1699 C1702 1.463 . S
C1699 C1704 1.350 . S
C1699 N1707 1.427 . S
C1700 H1691 0.930 . S
C1700 C1698 1.378 . S
C1700 C1701 1.367 . S
C1701 C1700 1.367 . S
C1701 C1703 1.433 . S
C1702 C1698 1.350 . S
C1702 C1699 1.463 . S
C1702 N1706 1.427 . S
C1703 H1693 0.929 . S
C1703 C1701 1.433 . S
C1703 N1706 1.384 . S
C1704 H1695 0.929 . S
C1704 C1696 1.378 . S
C1704 C1699 1.350 . S
C1705 H1692 0.929 . S
C1705 C1697 1.433 . S
C1705 N1707 1.384 . S
N1706 C1702 1.427 . S
N1706 C1703 1.384 . S
N1707 C1699 1.427 . S
N1707 C1705 1.384 . S
H1708 C1714 0.930 . S
H1709 C1718 0.930 . S
H1710 C1723 0.929 . S
H1711 C1721 0.929 . S
H1712 C1716 0.929 . S
H1713 C1722 0.929 . S
C1714 H1708 0.930 . S
C1714 C1715 1.367 . S
C1714 C1722 1.378 . S
C1715 C1714 1.367 . S
C1715 C1723 1.433 . S
C1716 H1712 0.929 . S
C1716 C1718 1.378 . S
C1716 C1720 1.350 . S
C1717 C1720 1.463 . S
C1717 C1722 1.350 . S
C1717 N1725 1.427 . S
C1718 H1709 0.930 . S
C1718 C1716 1.378 . S
C1718 C1719 1.367 . S
C1719 C1718 1.367 . S
C1719 C1721 1.433 . S
C1720 C1716 1.350 . S
C1720 C1717 1.463 . S
C1720 N1724 1.427 . S
C1721 H1711 0.929 . S
C1721 C1719 1.433 . S
C1721 N1724 1.384 . S
C1722 H1713 0.929 . S
C1722 C1714 1.378 . S
C1722 C1717 1.350 . S
C1723 H1710 0.929 . S
C1723 C1715 1.433 . S
C1723 N1725 1.384 . S
N1724 C1720 1.427 . S
N1724 C1721 1.384 . S
N1725 C1717 1.427 . S
N1725 C1723 1.384 . S
H1726 C1732 0.930 . S
H1727 C1736 0.930 . S
H1728 C1741 0.929 . S
H1729 C1739 0.929 . S
H1730 C1734 0.929 . S
H1731 C1740 0.929 . S
C1732 H1726 0.930 . S
C1732 C1733 1.367 . S
C1732 C1740 1.378 . S
C1733 C1732 1.367 . S
C1733 C1741 1.433 . S
C1734 H1730 0.929 . S
C1734 C1736 1.378 . S
C1734 C1738 1.350 . S
C1735 C1738 1.463 . S
C1735 C1740 1.350 . S
C1735 N1743 1.427 . S
C1736 H1727 0.930 . S
C1736 C1734 1.378 . S
C1736 C1737 1.367 . S
C1737 C1736 1.367 . S
C1737 C1739 1.433 . S
C1738 C1734 1.350 . S
C1738 C1735 1.463 . S
C1738 N1742 1.427 . S
C1739 H1729 0.929 . S
C1739 C1737 1.433 . S
C1739 N1742 1.384 . S
C1740 H1731 0.929 . S
C1740 C1732 1.378 . S
C1740 C1735 1.350 . S
C1741 H1728 0.929 . S
C1741 C1733 1.433 . S
C1741 N1743 1.384 . S
N1742 C1738 1.427 . S
N1742 C1739 1.384 . S
N1743 C1735 1.427 . S
N1743 C1741 1.384 . S
H1744 C1750 0.930 . S
H1745 C1754 0.930 . S
H1746 C1759 0.929 . S
H1747 C1757 0.929 . S
H1748 C1752 0.929 . S
H1749 C1758 0.929 . S
C1750 H1744 0.930 . S
C1750 C1751 1.367 . S
C1750 C1758 1.378 . S
C1751 C1750 1.367 . S
C1751 C1759 1.433 . S
C1752 H1748 0.929 . S
C1752 C1754 1.378 . S
C1752 C1756 1.350 . S
C1753 C1756 1.463 . S
C1753 C1758 1.350 . S
C1753 N1761 1.427 . S
C1754 H1745 0.930 . S
C1754 C1752 1.378 . S
C1754 C1755 1.367 . S
C1755 C1754 1.367 . S
C1755 C1757 1.433 . S
C1756 C1752 1.350 . S
C1756 C1753 1.463 . S
C1756 N1760 1.427 . S
C1757 H1747 0.929 . S
C1757 C1755 1.433 . S
C1757 N1760 1.384 . S
C1758 H1749 0.929 . S
C1758 C1750 1.378 . S
C1758 C1753 1.350 . S
C1759 H1746 0.929 . S
C1759 C1751 1.433 . S
C1759 N1761 1.384 . S
N1760 C1756 1.427 . S
N1760 C1757 1.384 . S
N1761 C1753 1.427 . S
N1761 C1759 1.384 . S
H1762 C1768 0.930 1_545 S
H1763 C1772 0.930 . S
H1764 C1777 0.929 . S
H1765 C1775 0.929 . S
H1766 C1770 0.929 . S
H1767 C1776 0.929 . S
C1768 H1762 0.930 1_565 S
C1768 C1769 1.367 . S
C1768 C1776 1.378 1_565 S
C1769 C1768 1.367 . S
C1769 C1777 1.433 . S
C1770 H1766 0.929 . S
C1770 C1772 1.378 . S
C1770 C1774 1.350 . S
C1771 C1774 1.463 . S
C1771 C1776 1.350 1_565 S
C1771 N1779 1.427 . S
C1772 H1763 0.930 . S
C1772 C1770 1.378 . S
C1772 C1773 1.367 1_565 S
C1773 C1772 1.367 1_545 S
C1773 C1775 1.433 . S
C1774 C1770 1.350 . S
C1774 C1771 1.463 . S
C1774 N1778 1.427 1_565 S
C1775 H1765 0.929 . S
C1775 C1773 1.433 . S
C1775 N1778 1.384 . S
C1776 H1767 0.929 . S
C1776 C1768 1.378 1_545 S
C1776 C1771 1.350 1_545 S
C1777 H1764 0.929 . S
C1777 C1769 1.433 . S
C1777 N1779 1.384 . S
N1778 C1774 1.427 1_545 S
N1778 C1775 1.384 . S
N1779 C1771 1.427 . S
N1779 C1777 1.384 . S
H1780 C1786 0.930 . S
H1781 C1790 0.930 . S
H1782 C1795 0.929 . S
H1783 C1793 0.929 . S
H1784 C1788 0.929 . S
H1785 C1794 0.929 . S
C1786 H1780 0.930 . S
C1786 C1787 1.367 . S
C1786 C1794 1.378 . S
C1787 C1786 1.367 . S
C1787 C1795 1.433 . S
C1788 H1784 0.929 . S
C1788 C1790 1.378 . S
C1788 C1792 1.350 . S
C1789 C1792 1.463 . S
C1789 C1794 1.350 . S
C1789 N1797 1.427 . S
C1790 H1781 0.930 . S
C1790 C1788 1.378 . S
C1790 C1791 1.367 . S
C1791 C1790 1.367 . S
C1791 C1793 1.433 . S
C1792 C1788 1.350 . S
C1792 C1789 1.463 . S
C1792 N1796 1.427 . S
C1793 H1783 0.929 . S
C1793 C1791 1.433 . S
C1793 N1796 1.384 . S
C1794 H1785 0.929 . S
C1794 C1786 1.378 . S
C1794 C1789 1.350 . S
C1795 H1782 0.929 . S
C1795 C1787 1.433 . S
C1795 N1797 1.384 . S
N1796 C1792 1.427 . S
N1796 C1793 1.384 . S
N1797 C1789 1.427 . S
N1797 C1795 1.384 . S
H1798 C1804 0.930 . S
H1799 C1808 0.930 . S
H1800 C1813 0.929 . S
H1801 C1811 0.929 . S
H1802 C1806 0.929 . S
H1803 C1812 0.929 . S
C1804 H1798 0.930 . S
C1804 C1805 1.367 . S
C1804 C1812 1.378 . S
C1805 C1804 1.367 . S
C1805 C1813 1.433 . S
C1806 H1802 0.929 . S
C1806 C1808 1.378 . S
C1806 C1810 1.350 . S
C1807 C1810 1.463 . S
C1807 C1812 1.350 . S
C1807 N1815 1.427 . S
C1808 H1799 0.930 . S
C1808 C1806 1.378 . S
C1808 C1809 1.367 . S
C1809 C1808 1.367 . S
C1809 C1811 1.433 . S
C1810 C1806 1.350 . S
C1810 C1807 1.463 . S
C1810 N1814 1.427 . S
C1811 H1801 0.929 . S
C1811 C1809 1.433 . S
C1811 N1814 1.384 . S
C1812 H1803 0.929 . S
C1812 C1804 1.378 . S
C1812 C1807 1.350 . S
C1813 H1800 0.929 . S
C1813 C1805 1.433 . S
C1813 N1815 1.384 . S
N1814 C1810 1.427 . S
N1814 C1811 1.384 . S
N1815 C1807 1.427 . S
N1815 C1813 1.384 . S
H1816 C1822 0.930 . S
H1817 C1826 0.930 . S
H1818 C1831 0.929 . S
H1819 C1829 0.929 . S
H1820 C1824 0.929 . S
H1821 C1830 0.929 . S
C1822 H1816 0.930 . S
C1822 C1823 1.367 . S
C1822 C1830 1.378 . S
C1823 C1822 1.367 . S
C1823 C1831 1.433 . S
C1824 H1820 0.929 . S
C1824 C1826 1.378 . S
C1824 C1828 1.350 . S
C1825 C1828 1.463 . S
C1825 C1830 1.350 . S
C1825 N1833 1.427 . S
C1826 H1817 0.930 . S
C1826 C1824 1.378 . S
C1826 C1827 1.367 . S
C1827 C1826 1.367 . S
C1827 C1829 1.433 . S
C1828 C1824 1.350 . S
C1828 C1825 1.463 . S
C1828 N1832 1.427 . S
C1829 H1819 0.929 . S
C1829 C1827 1.433 . S
C1829 N1832 1.384 . S
C1830 H1821 0.929 . S
C1830 C1822 1.378 . S
C1830 C1825 1.350 . S
C1831 H1818 0.929 . S
C1831 C1823 1.433 . S
C1831 N1833 1.384 . S
N1832 C1828 1.427 . S
N1832 C1829 1.384 . S
N1833 C1825 1.427 . S
N1833 C1831 1.384 . S
H1834 C1840 0.930 . S
H1835 C1844 0.930 . S
H1836 C1849 0.929 . S
H1837 C1847 0.929 . S
H1838 C1842 0.929 . S
H1839 C1848 0.929 . S
C1840 H1834 0.930 . S
C1840 C1841 1.367 . S
C1840 C1848 1.378 . S
C1841 C1840 1.367 . S
C1841 C1849 1.433 . S
C1842 H1838 0.929 . S
C1842 C1844 1.378 . S
C1842 C1846 1.350 . S
C1843 C1846 1.463 . S
C1843 C1848 1.350 . S
C1843 N1851 1.427 . S
C1844 H1835 0.930 . S
C1844 C1842 1.378 . S
C1844 C1845 1.367 . S
C1845 C1844 1.367 . S
C1845 C1847 1.433 . S
C1846 C1842 1.350 . S
C1846 C1843 1.463 . S
C1846 N1850 1.427 . S
C1847 H1837 0.929 . S
C1847 C1845 1.433 . S
C1847 N1850 1.384 . S
C1848 H1839 0.929 . S
C1848 C1840 1.378 . S
C1848 C1843 1.350 . S
C1849 H1836 0.929 . S
C1849 C1841 1.433 . S
C1849 N1851 1.384 . S
N1850 C1846 1.427 . S
N1850 C1847 1.384 . S
N1851 C1843 1.427 . S
N1851 C1849 1.384 . S
H1852 C1858 0.930 . S
H1853 C1862 0.930 . S
H1854 C1867 0.929 . S
H1855 C1865 0.929 . S
H1856 C1860 0.929 . S
H1857 C1866 0.929 1_554 S
C1858 H1852 0.930 . S
C1858 C1859 1.367 . S
C1858 C1866 1.378 . S
C1859 C1858 1.367 . S
C1859 C1867 1.433 . S
C1860 H1856 0.929 . S
C1860 C1862 1.378 . S
C1860 C1864 1.350 . S
C1861 C1864 1.463 . S
C1861 C1866 1.350 . S
C1861 N1869 1.427 . S
C1862 H1853 0.930 . S
C1862 C1860 1.378 . S
C1862 C1863 1.367 . S
C1863 C1862 1.367 . S
C1863 C1865 1.433 1_556 S
C1864 C1860 1.350 . S
C1864 C1861 1.463 . S
C1864 N1868 1.427 1_556 S
C1865 H1855 0.929 . S
C1865 C1863 1.433 1_554 S
C1865 N1868 1.384 . S
C1866 H1857 0.929 1_556 S
C1866 C1858 1.378 . S
C1866 C1861 1.350 . S
C1867 H1854 0.929 . S
C1867 C1859 1.433 . S
C1867 N1869 1.384 . S
N1868 C1864 1.427 1_554 S
N1868 C1865 1.384 . S
N1869 C1861 1.427 . S
N1869 C1867 1.384 . S
H1870 C1876 0.930 . S
H1871 C1880 0.930 . S
H1872 C1885 0.929 . S
H1873 C1883 0.929 . S
H1874 C1878 0.929 . S
H1875 C1884 0.929 . S
C1876 H1870 0.930 . S
C1876 C1877 1.367 . S
C1876 C1884 1.378 1_455 S
C1877 C1876 1.367 . S
C1877 C1885 1.433 . S
C1878 H1874 0.929 . S
C1878 C1880 1.378 . S
C1878 C1882 1.350 . S
C1879 C1882 1.463 . S
C1879 C1884 1.350 . S
C1879 N1887 1.427 . S
C1880 H1871 0.930 . S
C1880 C1878 1.378 . S
C1880 C1881 1.367 . S
C1881 C1880 1.367 . S
C1881 C1883 1.433 . S
C1882 C1878 1.350 . S
C1882 C1879 1.463 . S
C1882 N1886 1.427 . S
C1883 H1873 0.929 . S
C1883 C1881 1.433 . S
C1883 N1886 1.384 . S
C1884 H1875 0.929 . S
C1884 C1876 1.378 1_655 S
C1884 C1879 1.350 . S
C1885 H1872 0.929 . S
C1885 C1877 1.433 . S
C1885 N1887 1.384 1_455 S
N1886 C1882 1.427 . S
N1886 C1883 1.384 . S
N1887 C1879 1.427 . S
N1887 C1885 1.384 1_655 S
H1888 C1894 0.930 . S
H1889 C1898 0.930 . S
H1890 C1903 0.929 . S
H1891 C1901 0.929 . S
H1892 C1896 0.929 . S
H1893 C1902 0.929 . S
C1894 H1888 0.930 . S
C1894 C1895 1.367 . S
C1894 C1902 1.378 . S
C1895 C1894 1.367 . S
C1895 C1903 1.433 . S
C1896 H1892 0.929 . S
C1896 C1898 1.378 . S
C1896 C1900 1.350 . S
C1897 C1900 1.463 . S
C1897 C1902 1.350 . S
C1897 N1905 1.427 . S
C1898 H1889 0.930 . S
C1898 C1896 1.378 . S
C1898 C1899 1.367 . S
C1899 C1898 1.367 . S
C1899 C1901 1.433 . S
C1900 C1896 1.350 . S
C1900 C1897 1.463 . S
C1900 N1904 1.427 . S
C1901 H1891 0.929 . S
C1901 C1899 1.433 . S
C1901 N1904 1.384 . S
C1902 H1893 0.929 . S
C1902 C1894 1.378 . S
C1902 C1897 1.350 . S
C1903 H1890 0.929 . S
C1903 C1895 1.433 . S
C1903 N1905 1.384 . S
N1904 C1900 1.427 . S
N1904 C1901 1.384 . S
N1905 C1897 1.427 . S
N1905 C1903 1.384 . S
H1906 C1912 0.930 . S
H1907 C1916 0.930 . S
H1908 C1921 0.929 . S
H1909 C1919 0.929 . S
H1910 C1914 0.929 . S
H1911 C1920 0.929 . S
C1912 H1906 0.930 . S
C1912 C1913 1.367 . S
C1912 C1920 1.378 . S
C1913 C1912 1.367 . S
C1913 C1921 1.433 . S
C1914 H1910 0.929 . S
C1914 C1916 1.378 . S
C1914 C1918 1.350 . S
C1915 C1918 1.463 . S
C1915 C1920 1.350 . S
C1915 N1923 1.427 . S
C1916 H1907 0.930 . S
C1916 C1914 1.378 . S
C1916 C1917 1.367 . S
C1917 C1916 1.367 . S
C1917 C1919 1.433 . S
C1918 C1914 1.350 . S
C1918 C1915 1.463 . S
C1918 N1922 1.427 . S
C1919 H1909 0.929 . S
C1919 C1917 1.433 . S
C1919 N1922 1.384 . S
C1920 H1911 0.929 . S
C1920 C1912 1.378 . S
C1920 C1915 1.350 . S
C1921 H1908 0.929 . S
C1921 C1913 1.433 . S
C1921 N1923 1.384 . S
N1922 C1918 1.427 . S
N1922 C1919 1.384 . S
N1923 C1915 1.427 . S
N1923 C1921 1.384 . S
H1924 C1930 0.930 . S
H1925 C1934 0.930 . S
H1926 C1939 0.929 . S
H1927 C1937 0.929 . S
H1928 C1932 0.929 . S
H1929 C1938 0.929 . S
C1930 H1924 0.930 . S
C1930 C1931 1.367 . S
C1930 C1938 1.378 . S
C1931 C1930 1.367 . S
C1931 C1939 1.433 . S
C1932 H1928 0.929 . S
C1932 C1934 1.378 . S
C1932 C1936 1.350 . S
C1933 C1936 1.463 . S
C1933 C1938 1.350 . S
C1933 N1941 1.427 . S
C1934 H1925 0.930 . S
C1934 C1932 1.378 . S
C1934 C1935 1.367 . S
C1935 C1934 1.367 . S
C1935 C1937 1.433 . S
C1936 C1932 1.350 . S
C1936 C1933 1.463 . S
C1936 N1940 1.427 . S
C1937 H1927 0.929 . S
C1937 C1935 1.433 . S
C1937 N1940 1.384 . S
C1938 H1929 0.929 . S
C1938 C1930 1.378 . S
C1938 C1933 1.350 . S
C1939 H1926 0.929 . S
C1939 C1931 1.433 . S
C1939 N1941 1.384 . S
N1940 C1936 1.427 . S
N1940 C1937 1.384 . S
N1941 C1933 1.427 . S
N1941 C1939 1.384 . S
H1942 C1948 0.930 . S
H1943 C1952 0.930 . S
H1944 C1957 0.929 . S
H1945 C1955 0.929 . S
H1946 C1950 0.929 . S
H1947 C1956 0.929 . S
C1948 H1942 0.930 . S
C1948 C1949 1.367 . S
C1948 C1956 1.378 . S
C1949 C1948 1.367 . S
C1949 C1957 1.433 . S
C1950 H1946 0.929 . S
C1950 C1952 1.378 . S
C1950 C1954 1.350 . S
C1951 C1954 1.463 . S
C1951 C1956 1.350 . S
C1951 N1959 1.427 . S
C1952 H1943 0.930 . S
C1952 C1950 1.378 . S
C1952 C1953 1.367 . S
C1953 C1952 1.367 . S
C1953 C1955 1.433 . S
C1954 C1950 1.350 . S
C1954 C1951 1.463 . S
C1954 N1958 1.427 . S
C1955 H1945 0.929 . S
C1955 C1953 1.433 . S
C1955 N1958 1.384 . S
C1956 H1947 0.929 . S
C1956 C1948 1.378 . S
C1956 C1951 1.350 . S
C1957 H1944 0.929 . S
C1957 C1949 1.433 . S
C1957 N1959 1.384 . S
N1958 C1954 1.427 . S
N1958 C1955 1.384 . S
N1959 C1951 1.427 . S
N1959 C1957 1.384 . S
H1960 C1966 0.930 . S
H1961 C1970 0.930 . S
H1962 C1975 0.929 . S
H1963 C1973 0.929 . S
H1964 C1968 0.929 . S
H1965 C1974 0.929 . S
C1966 H1960 0.930 . S
C1966 C1967 1.367 . S
C1966 C1974 1.378 . S
C1967 C1966 1.367 . S
C1967 C1975 1.433 . S
C1968 H1964 0.929 . S
C1968 C1970 1.378 . S
C1968 C1972 1.350 . S
C1969 C1972 1.463 . S
C1969 C1974 1.350 . S
C1969 N1977 1.427 . S
C1970 H1961 0.930 . S
C1970 C1968 1.378 . S
C1970 C1971 1.367 . S
C1971 C1970 1.367 . S
C1971 C1973 1.433 . S
C1972 C1968 1.350 . S
C1972 C1969 1.463 . S
C1972 N1976 1.427 . S
C1973 H1963 0.929 . S
C1973 C1971 1.433 . S
C1973 N1976 1.384 . S
C1974 H1965 0.929 . S
C1974 C1966 1.378 . S
C1974 C1969 1.350 . S
C1975 H1962 0.929 . S
C1975 C1967 1.433 . S
C1975 N1977 1.384 . S
N1976 C1972 1.427 . S
N1976 C1973 1.384 . S
N1977 C1969 1.427 . S
N1977 C1975 1.384 . S
H1978 C1984 0.930 . S
H1979 C1988 0.930 . S
H1980 C1993 0.929 . S
H1981 C1991 0.929 . S
H1982 C1986 0.929 . S
H1983 C1992 0.929 . S
C1984 H1978 0.930 . S
C1984 C1985 1.367 . S
C1984 C1992 1.378 . S
C1985 C1984 1.367 . S
C1985 C1993 1.433 . S
C1986 H1982 0.929 . S
C1986 C1988 1.378 . S
C1986 C1990 1.350 . S
C1987 C1990 1.463 . S
C1987 C1992 1.350 . S
C1987 N1995 1.427 . S
C1988 H1979 0.930 . S
C1988 C1986 1.378 . S
C1988 C1989 1.367 . S
C1989 C1988 1.367 . S
C1989 C1991 1.433 . S
C1990 C1986 1.350 . S
C1990 C1987 1.463 . S
C1990 N1994 1.427 . S
C1991 H1981 0.929 . S
C1991 C1989 1.433 . S
C1991 N1994 1.384 . S
C1992 H1983 0.929 . S
C1992 C1984 1.378 . S
C1992 C1987 1.350 . S
C1993 H1980 0.929 . S
C1993 C1985 1.433 . S
C1993 N1995 1.384 . S
N1994 C1990 1.427 . S
N1994 C1991 1.384 . S
N1995 C1987 1.427 . S
N1995 C1993 1.384 . S
H1996 C2002 0.930 . S
H1997 C2006 0.930 . S
H1998 C2011 0.929 . S
H1999 C2009 0.929 . S
H2000 C2004 0.929 . S
H2001 C2010 0.929 . S
C2002 H1996 0.930 . S
C2002 C2003 1.367 . S
C2002 C2010 1.378 . S
C2003 C2002 1.367 . S
C2003 C2011 1.433 . S
C2004 H2000 0.929 . S
C2004 C2006 1.378 . S
C2004 C2008 1.350 . S
C2005 C2008 1.463 . S
C2005 C2010 1.350 . S
C2005 N2013 1.427 . S
C2006 H1997 0.930 . S
C2006 C2004 1.378 . S
C2006 C2007 1.367 . S
C2007 C2006 1.367 . S
C2007 C2009 1.433 . S
C2008 C2004 1.350 . S
C2008 C2005 1.463 . S
C2008 N2012 1.427 . S
C2009 H1999 0.929 . S
C2009 C2007 1.433 . S
C2009 N2012 1.384 . S
C2010 H2001 0.929 . S
C2010 C2002 1.378 . S
C2010 C2005 1.350 . S
C2011 H1998 0.929 . S
C2011 C2003 1.433 . S
C2011 N2013 1.384 . S
N2012 C2008 1.427 . S
N2012 C2009 1.384 . S
N2013 C2005 1.427 . S
N2013 C2011 1.384 . S
H2014 C2020 0.930 . S
H2015 C2024 0.930 . S
H2016 C2029 0.929 . S
H2017 C2027 0.929 . S
H2018 C2022 0.929 . S
H2019 C2028 0.929 . S
C2020 H2014 0.930 . S
C2020 C2021 1.367 . S
C2020 C2028 1.378 . S
C2021 C2020 1.367 . S
C2021 C2029 1.433 . S
C2022 H2018 0.929 . S
C2022 C2024 1.378 . S
C2022 C2026 1.350 . S
C2023 C2026 1.463 . S
C2023 C2028 1.350 . S
C2023 N2031 1.427 . S
C2024 H2015 0.930 . S
C2024 C2022 1.378 . S
C2024 C2025 1.367 . S
C2025 C2024 1.367 . S
C2025 C2027 1.433 . S
C2026 C2022 1.350 . S
C2026 C2023 1.463 . S
C2026 N2030 1.427 . S
C2027 H2017 0.929 . S
C2027 C2025 1.433 . S
C2027 N2030 1.384 . S
C2028 H2019 0.929 . S
C2028 C2020 1.378 . S
C2028 C2023 1.350 . S
C2029 H2016 0.929 . S
C2029 C2021 1.433 . S
C2029 N2031 1.384 . S
N2030 C2026 1.427 . S
N2030 C2027 1.384 . S
N2031 C2023 1.427 . S
N2031 C2029 1.384 . S
H2032 C2038 0.930 . S
H2033 C2042 0.930 . S
H2034 C2047 0.929 . S
H2035 C2045 0.929 . S
H2036 C2040 0.929 . S
H2037 C2046 0.929 . S
C2038 H2032 0.930 . S
C2038 C2039 1.367 . S
C2038 C2046 1.378 . S
C2039 C2038 1.367 . S
C2039 C2047 1.433 . S
C2040 H2036 0.929 . S
C2040 C2042 1.378 . S
C2040 C2044 1.350 . S
C2041 C2044 1.463 . S
C2041 C2046 1.350 . S
C2041 N2049 1.427 . S
C2042 H2033 0.930 . S
C2042 C2040 1.378 . S
C2042 C2043 1.367 . S
C2043 C2042 1.367 . S
C2043 C2045 1.433 . S
C2044 C2040 1.350 . S
C2044 C2041 1.463 . S
C2044 N2048 1.427 . S
C2045 H2035 0.929 . S
C2045 C2043 1.433 . S
C2045 N2048 1.384 . S
C2046 H2037 0.929 . S
C2046 C2038 1.378 . S
C2046 C2041 1.350 . S
C2047 H2034 0.929 . S
C2047 C2039 1.433 . S
C2047 N2049 1.384 . S
N2048 C2044 1.427 . S
N2048 C2045 1.384 . S
N2049 C2041 1.427 . S
N2049 C2047 1.384 . S
H2050 C2056 0.930 . S
H2051 C2060 0.930 . S
H2052 C2065 0.929 . S
H2053 C2063 0.929 . S
H2054 C2058 0.929 . S
H2055 C2064 0.929 . S
C2056 H2050 0.930 . S
C2056 C2057 1.367 . S
C2056 C2064 1.378 . S
C2057 C2056 1.367 . S
C2057 C2065 1.433 . S
C2058 H2054 0.929 . S
C2058 C2060 1.378 . S
C2058 C2062 1.350 . S
C2059 C2062 1.463 . S
C2059 C2064 1.350 . S
C2059 N2067 1.427 . S
C2060 H2051 0.930 . S
C2060 C2058 1.378 . S
C2060 C2061 1.367 . S
C2061 C2060 1.367 . S
C2061 C2063 1.433 . S
C2062 C2058 1.350 . S
C2062 C2059 1.463 . S
C2062 N2066 1.427 . S
C2063 H2053 0.929 . S
C2063 C2061 1.433 . S
C2063 N2066 1.384 . S
C2064 H2055 0.929 . S
C2064 C2056 1.378 . S
C2064 C2059 1.350 . S
C2065 H2052 0.929 . S
C2065 C2057 1.433 . S
C2065 N2067 1.384 . S
N2066 C2062 1.427 . S
N2066 C2063 1.384 . S
N2067 C2059 1.427 . S
N2067 C2065 1.384 . S
H2068 C2074 0.930 . S
H2069 C2078 0.930 . S
H2070 C2083 0.929 . S
H2071 C2081 0.929 . S
H2072 C2076 0.929 . S
H2073 C2082 0.929 . S
C2074 H2068 0.930 . S
C2074 C2075 1.367 . S
C2074 C2082 1.378 . S
C2075 C2074 1.367 . S
C2075 C2083 1.433 . S
C2076 H2072 0.929 . S
C2076 C2078 1.378 . S
C2076 C2080 1.350 . S
C2077 C2080 1.463 . S
C2077 C2082 1.350 . S
C2077 N2085 1.427 . S
C2078 H2069 0.930 . S
C2078 C2076 1.378 . S
C2078 C2079 1.367 . S
C2079 C2078 1.367 . S
C2079 C2081 1.433 . S
C2080 C2076 1.350 . S
C2080 C2077 1.463 . S
C2080 N2084 1.427 . S
C2081 H2071 0.929 . S
C2081 C2079 1.433 . S
C2081 N2084 1.384 . S
C2082 H2073 0.929 . S
C2082 C2074 1.378 . S
C2082 C2077 1.350 . S
C2083 H2070 0.929 . S
C2083 C2075 1.433 . S
C2083 N2085 1.384 . S
N2084 C2080 1.427 . S
N2084 C2081 1.384 . S
N2085 C2077 1.427 . S
N2085 C2083 1.384 . S
H2086 C2092 0.930 . S
H2087 C2096 0.930 . S
H2088 C2101 0.929 . S
H2089 C2099 0.929 . S
H2090 C2094 0.929 . S
H2091 C2100 0.929 . S
C2092 H2086 0.930 . S
C2092 C2093 1.367 . S
C2092 C2100 1.378 . S
C2093 C2092 1.367 . S
C2093 C2101 1.433 . S
C2094 H2090 0.929 . S
C2094 C2096 1.378 . S
C2094 C2098 1.350 . S
C2095 C2098 1.463 . S
C2095 C2100 1.350 . S
C2095 N2103 1.427 . S
C2096 H2087 0.930 . S
C2096 C2094 1.378 . S
C2096 C2097 1.367 . S
C2097 C2096 1.367 . S
C2097 C2099 1.433 . S
C2098 C2094 1.350 . S
C2098 C2095 1.463 . S
C2098 N2102 1.427 . S
C2099 H2089 0.929 . S
C2099 C2097 1.433 . S
C2099 N2102 1.384 . S
C2100 H2091 0.929 . S
C2100 C2092 1.378 . S
C2100 C2095 1.350 . S
C2101 H2088 0.929 . S
C2101 C2093 1.433 . S
C2101 N2103 1.384 . S
N2102 C2098 1.427 . S
N2102 C2099 1.384 . S
N2103 C2095 1.427 . S
N2103 C2101 1.384 . S
H2104 C2110 0.930 . S
H2105 C2114 0.930 . S
H2106 C2119 0.929 . S
H2107 C2117 0.929 . S
H2108 C2112 0.929 . S
H2109 C2118 0.929 . S
C2110 H2104 0.930 . S
C2110 C2111 1.367 . S
C2110 C2118 1.378 . S
C2111 C2110 1.367 . S
C2111 C2119 1.433 . S
C2112 H2108 0.929 . S
C2112 C2114 1.378 . S
C2112 C2116 1.350 . S
C2113 C2116 1.463 . S
C2113 C2118 1.350 . S
C2113 N2121 1.427 . S
C2114 H2105 0.930 . S
C2114 C2112 1.378 . S
C2114 C2115 1.367 . S
C2115 C2114 1.367 . S
C2115 C2117 1.433 . S
C2116 C2112 1.350 . S
C2116 C2113 1.463 . S
C2116 N2120 1.427 . S
C2117 H2107 0.929 . S
C2117 C2115 1.433 . S
C2117 N2120 1.384 . S
C2118 H2109 0.929 . S
C2118 C2110 1.378 . S
C2118 C2113 1.350 . S
C2119 H2106 0.929 . S
C2119 C2111 1.433 . S
C2119 N2121 1.384 . S
N2120 C2116 1.427 . S
N2120 C2117 1.384 . S
N2121 C2113 1.427 . S
N2121 C2119 1.384 . S
H2122 C2128 0.930 . S
H2123 C2132 0.930 . S
H2124 C2137 0.929 . S
H2125 C2135 0.929 . S
H2126 C2130 0.929 . S
H2127 C2136 0.929 . S
C2128 H2122 0.930 . S
C2128 C2129 1.367 . S
C2128 C2136 1.378 . S
C2129 C2128 1.367 . S
C2129 C2137 1.433 . S
C2130 H2126 0.929 . S
C2130 C2132 1.378 . S
C2130 C2134 1.350 . S
C2131 C2134 1.463 . S
C2131 C2136 1.350 . S
C2131 N2139 1.427 . S
C2132 H2123 0.930 . S
C2132 C2130 1.378 . S
C2132 C2133 1.367 . S
C2133 C2132 1.367 . S
C2133 C2135 1.433 . S
C2134 C2130 1.350 . S
C2134 C2131 1.463 . S
C2134 N2138 1.427 . S
C2135 H2125 0.929 . S
C2135 C2133 1.433 . S
C2135 N2138 1.384 . S
C2136 H2127 0.929 . S
C2136 C2128 1.378 . S
C2136 C2131 1.350 . S
C2137 H2124 0.929 . S
C2137 C2129 1.433 . S
C2137 N2139 1.384 . S
N2138 C2134 1.427 . S
N2138 C2135 1.384 . S
N2139 C2131 1.427 . S
N2139 C2137 1.384 . S
H2140 C2146 0.930 . S
H2141 C2150 0.930 . S
H2142 C2155 0.929 . S
H2143 C2153 0.929 . S
H2144 C2148 0.929 . S
H2145 C2154 0.929 . S
C2146 H2140 0.930 . S
C2146 C2147 1.367 . S
C2146 C2154 1.378 . S
C2147 C2146 1.367 . S
C2147 C2155 1.433 . S
C2148 H2144 0.929 . S
C2148 C2150 1.378 . S
C2148 C2152 1.350 1_565 S
C2149 C2152 1.463 . S
C2149 C2154 1.350 . S
C2149 N2157 1.427 . S
C2150 H2141 0.930 . S
C2150 C2148 1.378 . S
C2150 C2151 1.367 . S
C2151 C2150 1.367 . S
C2151 C2153 1.433 . S
C2152 C2148 1.350 1_545 S
C2152 C2149 1.463 . S
C2152 N2156 1.427 . S
C2153 H2143 0.929 . S
C2153 C2151 1.433 . S
C2153 N2156 1.384 1_565 S
C2154 H2145 0.929 . S
C2154 C2146 1.378 . S
C2154 C2149 1.350 . S
C2155 H2142 0.929 . S
C2155 C2147 1.433 . S
C2155 N2157 1.384 . S
N2156 C2152 1.427 . S
N2156 C2153 1.384 1_545 S
N2157 C2149 1.427 . S
N2157 C2155 1.384 . S
H2158 C2164 0.930 . S
H2159 C2168 0.930 . S
H2160 C2173 0.929 . S
H2161 C2171 0.929 . S
H2162 C2166 0.929 . S
H2163 C2172 0.929 . S
C2164 H2158 0.930 . S
C2164 C2165 1.367 1_545 S
C2164 C2172 1.378 . S
C2165 C2164 1.367 1_565 S
C2165 C2173 1.433 . S
C2166 H2162 0.929 . S
C2166 C2168 1.378 . S
C2166 C2170 1.350 . S
C2167 C2170 1.463 . S
C2167 C2172 1.350 . S
C2167 N2175 1.427 1_545 S
C2168 H2159 0.930 . S
C2168 C2166 1.378 . S
C2168 C2169 1.367 . S
C2169 C2168 1.367 . S
C2169 C2171 1.433 . S
C2170 C2166 1.350 . S
C2170 C2167 1.463 . S
C2170 N2174 1.427 . S
C2171 H2161 0.929 . S
C2171 C2169 1.433 . S
C2171 N2174 1.384 . S
C2172 H2163 0.929 . S
C2172 C2164 1.378 . S
C2172 C2167 1.350 . S
C2173 H2160 0.929 . S
C2173 C2165 1.433 . S
C2173 N2175 1.384 . S
N2174 C2170 1.427 . S
N2174 C2171 1.384 . S
N2175 C2167 1.427 1_565 S
N2175 C2173 1.384 . S
H2176 C2182 0.930 . S
H2177 C2186 0.930 . S
H2178 C2191 0.929 . S
H2179 C2189 0.929 . S
H2180 C2184 0.929 . S
H2181 C2190 0.929 . S
C2182 H2176 0.930 . S
C2182 C2183 1.367 . S
C2182 C2190 1.378 . S
C2183 C2182 1.367 . S
C2183 C2191 1.433 . S
C2184 H2180 0.929 . S
C2184 C2186 1.378 . S
C2184 C2188 1.350 . S
C2185 C2188 1.463 . S
C2185 C2190 1.350 . S
C2185 N2193 1.427 . S
C2186 H2177 0.930 . S
C2186 C2184 1.378 . S
C2186 C2187 1.367 . S
C2187 C2186 1.367 . S
C2187 C2189 1.433 . S
C2188 C2184 1.350 . S
C2188 C2185 1.463 . S
C2188 N2192 1.427 . S
C2189 H2179 0.929 . S
C2189 C2187 1.433 . S
C2189 N2192 1.384 . S
C2190 H2181 0.929 . S
C2190 C2182 1.378 . S
C2190 C2185 1.350 . S
C2191 H2178 0.929 . S
C2191 C2183 1.433 . S
C2191 N2193 1.384 . S
N2192 C2188 1.427 . S
N2192 C2189 1.384 . S
N2193 C2185 1.427 . S
N2193 C2191 1.384 . S
H2194 C2200 0.930 . S
H2195 C2204 0.930 . S
H2196 C2209 0.929 . S
H2197 C2207 0.929 . S
H2198 C2202 0.929 . S
H2199 C2208 0.929 . S
C2200 H2194 0.930 . S
C2200 C2201 1.367 . S
C2200 C2208 1.378 . S
C2201 C2200 1.367 . S
C2201 C2209 1.433 . S
C2202 H2198 0.929 . S
C2202 C2204 1.378 . S
C2202 C2206 1.350 . S
C2203 C2206 1.463 . S
C2203 C2208 1.350 . S
C2203 N2211 1.427 . S
C2204 H2195 0.930 . S
C2204 C2202 1.378 . S
C2204 C2205 1.367 . S
C2205 C2204 1.367 . S
C2205 C2207 1.433 . S
C2206 C2202 1.350 . S
C2206 C2203 1.463 . S
C2206 N2210 1.427 . S
C2207 H2197 0.929 . S
C2207 C2205 1.433 . S
C2207 N2210 1.384 . S
C2208 H2199 0.929 . S
C2208 C2200 1.378 . S
C2208 C2203 1.350 . S
C2209 H2196 0.929 . S
C2209 C2201 1.433 . S
C2209 N2211 1.384 . S
N2210 C2206 1.427 . S
N2210 C2207 1.384 . S
N2211 C2203 1.427 . S
N2211 C2209 1.384 . S
H2212 C2218 0.930 . S
H2213 C2222 0.930 . S
H2214 C2227 0.929 . S
H2215 C2225 0.929 . S
H2216 C2220 0.929 . S
H2217 C2226 0.929 . S
C2218 H2212 0.930 . S
C2218 C2219 1.367 . S
C2218 C2226 1.378 . S
C2219 C2218 1.367 . S
C2219 C2227 1.433 . S
C2220 H2216 0.929 . S
C2220 C2222 1.378 . S
C2220 C2224 1.350 . S
C2221 C2224 1.463 . S
C2221 C2226 1.350 . S
C2221 N2229 1.427 . S
C2222 H2213 0.930 . S
C2222 C2220 1.378 . S
C2222 C2223 1.367 . S
C2223 C2222 1.367 . S
C2223 C2225 1.433 . S
C2224 C2220 1.350 . S
C2224 C2221 1.463 . S
C2224 N2228 1.427 . S
C2225 H2215 0.929 . S
C2225 C2223 1.433 . S
C2225 N2228 1.384 . S
C2226 H2217 0.929 . S
C2226 C2218 1.378 . S
C2226 C2221 1.350 . S
C2227 H2214 0.929 . S
C2227 C2219 1.433 . S
C2227 N2229 1.384 . S
N2228 C2224 1.427 . S
N2228 C2225 1.384 . S
N2229 C2221 1.427 . S
N2229 C2227 1.384 . S
H2230 C2236 0.930 . S
H2231 C2240 0.930 . S
H2232 C2245 0.929 . S
H2233 C2243 0.929 . S
H2234 C2238 0.929 . S
H2235 C2244 0.929 . S
C2236 H2230 0.930 . S
C2236 C2237 1.367 . S
C2236 C2244 1.378 . S
C2237 C2236 1.367 . S
C2237 C2245 1.433 . S
C2238 H2234 0.929 . S
C2238 C2240 1.378 . S
C2238 C2242 1.350 . S
C2239 C2242 1.463 . S
C2239 C2244 1.350 . S
C2239 N2247 1.427 . S
C2240 H2231 0.930 . S
C2240 C2238 1.378 . S
C2240 C2241 1.367 1_545 S
C2241 C2240 1.367 1_565 S
C2241 C2243 1.433 . S
C2242 C2238 1.350 . S
C2242 C2239 1.463 . S
C2242 N2246 1.427 . S
C2243 H2233 0.929 . S
C2243 C2241 1.433 . S
C2243 N2246 1.384 1_565 S
C2244 H2235 0.929 . S
C2244 C2236 1.378 . S
C2244 C2239 1.350 . S
C2245 H2232 0.929 . S
C2245 C2237 1.433 . S
C2245 N2247 1.384 . S
N2246 C2242 1.427 . S
N2246 C2243 1.384 1_545 S
N2247 C2239 1.427 . S
N2247 C2245 1.384 . S
H2248 C2254 0.930 . S
H2249 C2258 0.930 . S
H2250 C2263 0.929 . S
H2251 C2261 0.929 . S
H2252 C2256 0.929 . S
H2253 C2262 0.929 . S
C2254 H2248 0.930 . S
C2254 C2255 1.367 . S
C2254 C2262 1.378 . S
C2255 C2254 1.367 . S
C2255 C2263 1.433 . S
C2256 H2252 0.929 . S
C2256 C2258 1.378 . S
C2256 C2260 1.350 . S
C2257 C2260 1.463 . S
C2257 C2262 1.350 . S
C2257 N2265 1.427 . S
C2258 H2249 0.930 . S
C2258 C2256 1.378 . S
C2258 C2259 1.367 . S
C2259 C2258 1.367 . S
C2259 C2261 1.433 . S
C2260 C2256 1.350 . S
C2260 C2257 1.463 . S
C2260 N2264 1.427 . S
C2261 H2251 0.929 . S
C2261 C2259 1.433 . S
C2261 N2264 1.384 . S
C2262 H2253 0.929 . S
C2262 C2254 1.378 . S
C2262 C2257 1.350 . S
C2263 H2250 0.929 . S
C2263 C2255 1.433 . S
C2263 N2265 1.384 . S
N2264 C2260 1.427 . S
N2264 C2261 1.384 . S
N2265 C2257 1.427 . S
N2265 C2263 1.384 . S
H2266 C2272 0.930 . S
H2267 C2276 0.930 . S
H2268 C2281 0.929 . S
H2269 C2279 0.929 . S
H2270 C2274 0.929 . S
H2271 C2280 0.929 . S
C2272 H2266 0.930 . S
C2272 C2273 1.367 . S
C2272 C2280 1.378 . S
C2273 C2272 1.367 . S
C2273 C2281 1.433 . S
C2274 H2270 0.929 . S
C2274 C2276 1.378 . S
C2274 C2278 1.350 . S
C2275 C2278 1.463 . S
C2275 C2280 1.350 . S
C2275 N2283 1.427 . S
C2276 H2267 0.930 . S
C2276 C2274 1.378 . S
C2276 C2277 1.367 . S
C2277 C2276 1.367 . S
C2277 C2279 1.433 . S
C2278 C2274 1.350 . S
C2278 C2275 1.463 . S
C2278 N2282 1.427 . S
C2279 H2269 0.929 . S
C2279 C2277 1.433 . S
C2279 N2282 1.384 . S
C2280 H2271 0.929 . S
C2280 C2272 1.378 . S
C2280 C2275 1.350 . S
C2281 H2268 0.929 . S
C2281 C2273 1.433 . S
C2281 N2283 1.384 . S
N2282 C2278 1.427 . S
N2282 C2279 1.384 . S
N2283 C2275 1.427 . S
N2283 C2281 1.384 . S
H2284 C2290 0.930 . S
H2285 C2294 0.930 . S
H2286 C2299 0.929 . S
H2287 C2297 0.929 . S
H2288 C2292 0.929 . S
H2289 C2298 0.929 . S
C2290 H2284 0.930 . S
C2290 C2291 1.367 . S
C2290 C2298 1.378 . S
C2291 C2290 1.367 . S
C2291 C2299 1.433 . S
C2292 H2288 0.929 . S
C2292 C2294 1.378 . S
C2292 C2296 1.350 . S
C2293 C2296 1.463 . S
C2293 C2298 1.350 . S
C2293 N2301 1.427 . S
C2294 H2285 0.930 . S
C2294 C2292 1.378 . S
C2294 C2295 1.367 . S
C2295 C2294 1.367 . S
C2295 C2297 1.433 . S
C2296 C2292 1.350 . S
C2296 C2293 1.463 . S
C2296 N2300 1.427 . S
C2297 H2287 0.929 . S
C2297 C2295 1.433 . S
C2297 N2300 1.384 . S
C2298 H2289 0.929 . S
C2298 C2290 1.378 . S
C2298 C2293 1.350 . S
C2299 H2286 0.929 . S
C2299 C2291 1.433 . S
C2299 N2301 1.384 . S
N2300 C2296 1.427 . S
N2300 C2297 1.384 . S
N2301 C2293 1.427 . S
N2301 C2299 1.384 . S
H2302 C2308 0.930 . S
H2303 C2312 0.930 . S
H2304 C2317 0.929 . S
H2305 C2315 0.929 . S
H2306 C2310 0.929 . S
H2307 C2316 0.929 . S
C2308 H2302 0.930 . S
C2308 C2309 1.367 . S
C2308 C2316 1.378 . S
C2309 C2308 1.367 . S
C2309 C2317 1.433 . S
C2310 H2306 0.929 . S
C2310 C2312 1.378 . S
C2310 C2314 1.350 . S
C2311 C2314 1.463 . S
C2311 C2316 1.350 . S
C2311 N2319 1.427 . S
C2312 H2303 0.930 . S
C2312 C2310 1.378 . S
C2312 C2313 1.367 . S
C2313 C2312 1.367 . S
C2313 C2315 1.433 . S
C2314 C2310 1.350 . S
C2314 C2311 1.463 . S
C2314 N2318 1.427 . S
C2315 H2305 0.929 . S
C2315 C2313 1.433 . S
C2315 N2318 1.384 . S
C2316 H2307 0.929 . S
C2316 C2308 1.378 . S
C2316 C2311 1.350 . S
C2317 H2304 0.929 . S
C2317 C2309 1.433 . S
C2317 N2319 1.384 . S
N2318 C2314 1.427 . S
N2318 C2315 1.384 . S
N2319 C2311 1.427 . S
N2319 C2317 1.384 . S
H2320 C2326 0.930 . S
H2321 C2330 0.930 . S
H2322 C2335 0.929 . S
H2323 C2333 0.929 . S
H2324 C2328 0.929 1_554 S
H2325 C2334 0.929 . S
C2326 H2320 0.930 . S
C2326 C2327 1.367 . S
C2326 C2334 1.378 . S
C2327 C2326 1.367 . S
C2327 C2335 1.433 . S
C2328 H2324 0.929 1_556 S
C2328 C2330 1.378 1_556 S
C2328 C2332 1.350 . S
C2329 C2332 1.463 . S
C2329 C2334 1.350 . S
C2329 N2337 1.427 . S
C2330 H2321 0.930 . S
C2330 C2328 1.378 1_554 S
C2330 C2331 1.367 1_554 S
C2331 C2330 1.367 1_556 S
C2331 C2333 1.433 . S
C2332 C2328 1.350 . S
C2332 C2329 1.463 . S
C2332 N2336 1.427 . S
C2333 H2323 0.929 . S
C2333 C2331 1.433 . S
C2333 N2336 1.384 . S
C2334 H2325 0.929 . S
C2334 C2326 1.378 . S
C2334 C2329 1.350 . S
C2335 H2322 0.929 . S
C2335 C2327 1.433 . S
C2335 N2337 1.384 . S
N2336 C2332 1.427 . S
N2336 C2333 1.384 . S
N2337 C2329 1.427 . S
N2337 C2335 1.384 . S
H2338 C2344 0.930 . S
H2339 C2348 0.930 . S
H2340 C2353 0.929 . S
H2341 C2351 0.929 . S
H2342 C2346 0.929 . S
H2343 C2352 0.929 . S
C2344 H2338 0.930 . S
C2344 C2345 1.367 . S
C2344 C2352 1.378 . S
C2345 C2344 1.367 . S
C2345 C2353 1.433 . S
C2346 H2342 0.929 . S
C2346 C2348 1.378 . S
C2346 C2350 1.350 . S
C2347 C2350 1.463 . S
C2347 C2352 1.350 . S
C2347 N2355 1.427 . S
C2348 H2339 0.930 . S
C2348 C2346 1.378 . S
C2348 C2349 1.367 . S
C2349 C2348 1.367 . S
C2349 C2351 1.433 . S
C2350 C2346 1.350 . S
C2350 C2347 1.463 . S
C2350 N2354 1.427 . S
C2351 H2341 0.929 . S
C2351 C2349 1.433 . S
C2351 N2354 1.384 . S
C2352 H2343 0.929 . S
C2352 C2344 1.378 . S
C2352 C2347 1.350 . S
C2353 H2340 0.929 . S
C2353 C2345 1.433 . S
C2353 N2355 1.384 . S
N2354 C2350 1.427 . S
N2354 C2351 1.384 . S
N2355 C2347 1.427 . S
N2355 C2353 1.384 . S
H2356 C2362 0.930 . S
H2357 C2366 0.930 . S
H2358 C2371 0.929 . S
H2359 C2369 0.929 . S
H2360 C2364 0.929 . S
H2361 C2370 0.929 . S
C2362 H2356 0.930 . S
C2362 C2363 1.367 . S
C2362 C2370 1.378 . S
C2363 C2362 1.367 . S
C2363 C2371 1.433 . S
C2364 H2360 0.929 . S
C2364 C2366 1.378 . S
C2364 C2368 1.350 . S
C2365 C2368 1.463 . S
C2365 C2370 1.350 . S
C2365 N2373 1.427 . S
C2366 H2357 0.930 . S
C2366 C2364 1.378 . S
C2366 C2367 1.367 . S
C2367 C2366 1.367 . S
C2367 C2369 1.433 . S
C2368 C2364 1.350 . S
C2368 C2365 1.463 . S
C2368 N2372 1.427 . S
C2369 H2359 0.929 . S
C2369 C2367 1.433 . S
C2369 N2372 1.384 . S
C2370 H2361 0.929 . S
C2370 C2362 1.378 . S
C2370 C2365 1.350 . S
C2371 H2358 0.929 . S
C2371 C2363 1.433 . S
C2371 N2373 1.384 . S
N2372 C2368 1.427 . S
N2372 C2369 1.384 . S
N2373 C2365 1.427 . S
N2373 C2371 1.384 . S
H2374 C2380 0.930 . S
H2375 C2384 0.930 . S
H2376 C2389 0.929 . S
H2377 C2387 0.929 . S
H2378 C2382 0.929 . S
H2379 C2388 0.929 . S
C2380 H2374 0.930 . S
C2380 C2381 1.367 . S
C2380 C2388 1.378 . S
C2381 C2380 1.367 . S
C2381 C2389 1.433 . S
C2382 H2378 0.929 . S
C2382 C2384 1.378 . S
C2382 C2386 1.350 . S
C2383 C2386 1.463 . S
C2383 C2388 1.350 . S
C2383 N2391 1.427 . S
C2384 H2375 0.930 . S
C2384 C2382 1.378 . S
C2384 C2385 1.367 . S
C2385 C2384 1.367 . S
C2385 C2387 1.433 . S
C2386 C2382 1.350 . S
C2386 C2383 1.463 . S
C2386 N2390 1.427 . S
C2387 H2377 0.929 . S
C2387 C2385 1.433 . S
C2387 N2390 1.384 . S
C2388 H2379 0.929 . S
C2388 C2380 1.378 . S
C2388 C2383 1.350 . S
C2389 H2376 0.929 . S
C2389 C2381 1.433 . S
C2389 N2391 1.384 . S
N2390 C2386 1.427 . S
N2390 C2387 1.384 . S
N2391 C2383 1.427 . S
N2391 C2389 1.384 . S
H2392 C2398 0.930 . S
H2393 C2402 0.930 . S
H2394 C2407 0.929 . S
H2395 C2405 0.929 . S
H2396 C2400 0.929 . S
H2397 C2406 0.929 . S
C2398 H2392 0.930 . S
C2398 C2399 1.367 . S
C2398 C2406 1.378 . S
C2399 C2398 1.367 . S
C2399 C2407 1.433 . S
C2400 H2396 0.929 . S
C2400 C2402 1.378 . S
C2400 C2404 1.350 . S
C2401 C2404 1.463 . S
C2401 C2406 1.350 . S
C2401 N2409 1.427 . S
C2402 H2393 0.930 . S
C2402 C2400 1.378 . S
C2402 C2403 1.367 . S
C2403 C2402 1.367 . S
C2403 C2405 1.433 . S
C2404 C2400 1.350 . S
C2404 C2401 1.463 . S
C2404 N2408 1.427 . S
C2405 H2395 0.929 . S
C2405 C2403 1.433 . S
C2405 N2408 1.384 . S
C2406 H2397 0.929 . S
C2406 C2398 1.378 . S
C2406 C2401 1.350 . S
C2407 H2394 0.929 . S
C2407 C2399 1.433 . S
C2407 N2409 1.384 . S
N2408 C2404 1.427 . S
N2408 C2405 1.384 . S
N2409 C2401 1.427 . S
N2409 C2407 1.384 . S
H2410 C2416 0.930 . S
H2411 C2420 0.930 . S
H2412 C2425 0.929 . S
H2413 C2423 0.929 . S
H2414 C2418 0.929 . S
H2415 C2424 0.929 . S
C2416 H2410 0.930 . S
C2416 C2417 1.367 . S
C2416 C2424 1.378 . S
C2417 C2416 1.367 . S
C2417 C2425 1.433 . S
C2418 H2414 0.929 . S
C2418 C2420 1.378 . S
C2418 C2422 1.350 . S
C2419 C2422 1.463 . S
C2419 C2424 1.350 . S
C2419 N2427 1.427 . S
C2420 H2411 0.930 . S
C2420 C2418 1.378 . S
C2420 C2421 1.367 . S
C2421 C2420 1.367 . S
C2421 C2423 1.433 . S
C2422 C2418 1.350 . S
C2422 C2419 1.463 . S
C2422 N2426 1.427 . S
C2423 H2413 0.929 . S
C2423 C2421 1.433 . S
C2423 N2426 1.384 . S
C2424 H2415 0.929 . S
C2424 C2416 1.378 . S
C2424 C2419 1.350 . S
C2425 H2412 0.929 . S
C2425 C2417 1.433 . S
C2425 N2427 1.384 . S
N2426 C2422 1.427 . S
N2426 C2423 1.384 . S
N2427 C2419 1.427 . S
N2427 C2425 1.384 . S
H2428 C2434 0.930 . S
H2429 C2438 0.930 . S
H2430 C2443 0.929 . S
H2431 C2441 0.929 . S
H2432 C2436 0.929 . S
H2433 C2442 0.929 . S
C2434 H2428 0.930 . S
C2434 C2435 1.367 . S
C2434 C2442 1.378 . S
C2435 C2434 1.367 . S
C2435 C2443 1.433 1_655 S
C2436 H2432 0.929 . S
C2436 C2438 1.378 . S
C2436 C2440 1.350 . S
C2437 C2440 1.463 . S
C2437 C2442 1.350 1_455 S
C2437 N2445 1.427 . S
C2438 H2429 0.930 . S
C2438 C2436 1.378 . S
C2438 C2439 1.367 . S
C2439 C2438 1.367 . S
C2439 C2441 1.433 . S
C2440 C2436 1.350 . S
C2440 C2437 1.463 . S
C2440 N2444 1.427 . S
C2441 H2431 0.929 . S
C2441 C2439 1.433 . S
C2441 N2444 1.384 . S
C2442 H2433 0.929 . S
C2442 C2434 1.378 . S
C2442 C2437 1.350 1_655 S
C2443 H2430 0.929 . S
C2443 C2435 1.433 1_455 S
C2443 N2445 1.384 . S
N2444 C2440 1.427 . S
N2444 C2441 1.384 . S
N2445 C2437 1.427 . S
N2445 C2443 1.384 . S
H2446 C2452 0.930 . S
H2447 C2456 0.930 . S
H2448 C2461 0.929 . S
H2449 C2459 0.929 . S
H2450 C2454 0.929 . S
H2451 C2460 0.929 . S
C2452 H2446 0.930 . S
C2452 C2453 1.367 . S
C2452 C2460 1.378 . S
C2453 C2452 1.367 . S
C2453 C2461 1.433 . S
C2454 H2450 0.929 . S
C2454 C2456 1.378 . S
C2454 C2458 1.350 . S
C2455 C2458 1.463 . S
C2455 C2460 1.350 . S
C2455 N2463 1.427 . S
C2456 H2447 0.930 . S
C2456 C2454 1.378 . S
C2456 C2457 1.367 . S
C2457 C2456 1.367 . S
C2457 C2459 1.433 . S
C2458 C2454 1.350 . S
C2458 C2455 1.463 . S
C2458 N2462 1.427 . S
C2459 H2449 0.929 . S
C2459 C2457 1.433 . S
C2459 N2462 1.384 . S
C2460 H2451 0.929 . S
C2460 C2452 1.378 . S
C2460 C2455 1.350 . S
C2461 H2448 0.929 . S
C2461 C2453 1.433 . S
C2461 N2463 1.384 . S
N2462 C2458 1.427 . S
N2462 C2459 1.384 . S
N2463 C2455 1.427 . S
N2463 C2461 1.384 . S
H2464 C2470 0.930 . S
H2465 C2474 0.930 . S
H2466 C2479 0.929 . S
H2467 C2477 0.929 . S
H2468 C2472 0.929 . S
H2469 C2478 0.929 . S
C2470 H2464 0.930 . S
C2470 C2471 1.367 . S
C2470 C2478 1.378 . S
C2471 C2470 1.367 . S
C2471 C2479 1.433 . S
C2472 H2468 0.929 . S
C2472 C2474 1.378 . S
C2472 C2476 1.350 . S
C2473 C2476 1.463 . S
C2473 C2478 1.350 . S
C2473 N2481 1.427 . S
C2474 H2465 0.930 . S
C2474 C2472 1.378 . S
C2474 C2475 1.367 . S
C2475 C2474 1.367 . S
C2475 C2477 1.433 . S
C2476 C2472 1.350 . S
C2476 C2473 1.463 . S
C2476 N2480 1.427 . S
C2477 H2467 0.929 . S
C2477 C2475 1.433 . S
C2477 N2480 1.384 . S
C2478 H2469 0.929 . S
C2478 C2470 1.378 . S
C2478 C2473 1.350 . S
C2479 H2466 0.929 . S
C2479 C2471 1.433 . S
C2479 N2481 1.384 . S
N2480 C2476 1.427 . S
N2480 C2477 1.384 . S
N2481 C2473 1.427 . S
N2481 C2479 1.384 . S
H2482 C2488 0.930 . S
H2483 C2492 0.930 . S
H2484 C2497 0.929 . S
H2485 C2495 0.929 . S
H2486 C2490 0.929 . S
H2487 C2496 0.929 . S
C2488 H2482 0.930 . S
C2488 C2489 1.367 . S
C2488 C2496 1.378 . S
C2489 C2488 1.367 . S
C2489 C2497 1.433 . S
C2490 H2486 0.929 . S
C2490 C2492 1.378 . S
C2490 C2494 1.350 . S
C2491 C2494 1.463 . S
C2491 C2496 1.350 . S
C2491 N2499 1.427 . S
C2492 H2483 0.930 . S
C2492 C2490 1.378 . S
C2492 C2493 1.367 . S
C2493 C2492 1.367 . S
C2493 C2495 1.433 . S
C2494 C2490 1.350 . S
C2494 C2491 1.463 . S
C2494 N2498 1.427 . S
C2495 H2485 0.929 . S
C2495 C2493 1.433 . S
C2495 N2498 1.384 . S
C2496 H2487 0.929 . S
C2496 C2488 1.378 . S
C2496 C2491 1.350 . S
C2497 H2484 0.929 . S
C2497 C2489 1.433 . S
C2497 N2499 1.384 . S
N2498 C2494 1.427 . S
N2498 C2495 1.384 . S
N2499 C2491 1.427 . S
N2499 C2497 1.384 . S
H2500 C2506 0.930 1_455 S
H2501 C2510 0.930 . S
H2502 C2515 0.929 . S
H2503 C2513 0.929 . S
H2504 C2508 0.929 . S
H2505 C2514 0.929 . S
C2506 H2500 0.930 1_655 S
C2506 C2507 1.367 . S
C2506 C2514 1.378 1_655 S
C2507 C2506 1.367 . S
C2507 C2515 1.433 . S
C2508 H2504 0.929 . S
C2508 C2510 1.378 . S
C2508 C2512 1.350 . S
C2509 C2512 1.463 . S
C2509 C2514 1.350 1_655 S
C2509 N2517 1.427 . S
C2510 H2501 0.930 . S
C2510 C2508 1.378 . S
C2510 C2511 1.327 1_655 S
C2511 C2510 1.327 1_455 S
C2511 C2513 1.453 . S
C2512 C2508 1.350 . S
C2512 C2509 1.463 . S
C2512 N2516 1.427 1_655 S
C2513 H2503 0.929 . S
C2513 C2511 1.453 . S
C2513 N2516 1.384 . S
C2514 H2505 0.929 . S
C2514 C2506 1.378 1_455 S
C2514 C2509 1.350 1_455 S
C2515 H2502 0.929 . S
C2515 C2507 1.433 . S
C2515 N2517 1.384 . S
N2516 C2512 1.427 1_455 S
N2516 C2513 1.384 . S
N2517 C2509 1.427 . S
N2517 C2515 1.384 . S
H2518 C2524 0.930 . S
H2519 C2528 0.930 . S
H2520 C2533 0.929 . S
H2521 C2531 0.929 . S
H2522 C2526 0.929 . S
H2523 C2532 0.929 . S
C2524 H2518 0.930 . S
C2524 C2525 1.367 . S
C2524 C2532 1.378 . S
C2525 C2524 1.367 . S
C2525 C2533 1.433 . S
C2526 H2522 0.929 . S
C2526 C2528 1.378 . S
C2526 C2530 1.350 . S
C2527 C2530 1.463 . S
C2527 C2532 1.350 . S
C2527 N2535 1.427 . S
C2528 H2519 0.930 . S
C2528 C2526 1.378 . S
C2528 C2529 1.367 . S
C2529 C2528 1.367 . S
C2529 C2531 1.433 . S
C2530 C2526 1.350 . S
C2530 C2527 1.463 . S
C2530 N2534 1.427 . S
C2531 H2521 0.929 . S
C2531 C2529 1.433 . S
C2531 N2534 1.384 . S
C2532 H2523 0.929 . S
C2532 C2524 1.378 . S
C2532 C2527 1.350 . S
C2533 H2520 0.929 . S
C2533 C2525 1.433 . S
C2533 N2535 1.384 . S
N2534 C2530 1.427 . S
N2534 C2531 1.384 . S
N2535 C2527 1.427 . S
N2535 C2533 1.384 . S
H2536 C2542 0.930 . S
H2537 C2546 0.930 . S
H2538 C2551 0.929 . S
H2539 C2549 0.929 . S
H2540 C2544 0.929 . S
H2541 C2550 0.929 . S
C2542 H2536 0.930 . S
C2542 C2543 1.367 . S
C2542 C2550 1.378 . S
C2543 C2542 1.367 . S
C2543 C2551 1.433 . S
C2544 H2540 0.929 . S
C2544 C2546 1.378 . S
C2544 C2548 1.350 . S
C2545 C2548 1.463 . S
C2545 C2550 1.350 . S
C2545 N2553 1.427 . S
C2546 H2537 0.930 . S
C2546 C2544 1.378 . S
C2546 C2547 1.367 . S
C2547 C2546 1.367 . S
C2547 C2549 1.433 . S
C2548 C2544 1.350 . S
C2548 C2545 1.463 . S
C2548 N2552 1.427 . S
C2549 H2539 0.929 . S
C2549 C2547 1.433 . S
C2549 N2552 1.384 . S
C2550 H2541 0.929 . S
C2550 C2542 1.378 . S
C2550 C2545 1.350 . S
C2551 H2538 0.929 . S
C2551 C2543 1.433 . S
C2551 N2553 1.384 . S
N2552 C2548 1.427 . S
N2552 C2549 1.384 . S
N2553 C2545 1.427 . S
N2553 C2551 1.384 . S
H2554 C2560 0.930 . S
H2555 C2564 0.930 . S
H2556 C2569 0.932 . S
H2557 C2567 0.929 . S
H2558 C2562 0.929 . S
H2559 C2568 0.929 . S
C2560 H2554 0.930 . S
C2560 C2561 1.367 . S
C2560 C2568 1.378 . S
C2561 C2560 1.367 . S
C2561 C2569 1.433 . S
C2562 H2558 0.929 . S
C2562 C2564 1.378 . S
C2562 C2566 1.350 . S
C2563 C2566 1.463 . S
C2563 C2568 1.350 1_545 S
C2563 N2571 1.427 . S
C2564 H2555 0.930 . S
C2564 C2562 1.378 . S
C2564 C2565 1.367 . S
C2565 C2564 1.367 . S
C2565 C2567 1.433 . S
C2566 C2562 1.350 . S
C2566 C2563 1.463 . S
C2566 N2570 1.427 . S
C2567 H2557 0.929 . S
C2567 C2565 1.433 . S
C2567 N2570 1.384 . S
C2568 H2559 0.929 . S
C2568 C2560 1.378 . S
C2568 C2563 1.350 1_565 S
C2569 H2556 0.932 . S
C2569 C2561 1.433 . S
C2569 N2571 1.384 1_565 S
N2570 C2566 1.427 . S
N2570 C2567 1.384 . S
N2571 C2563 1.427 . S
N2571 C2569 1.384 1_545 S
H2572 C2578 0.930 . S
H2573 C2582 0.930 . S
H2574 C2587 0.929 . S
H2575 C2585 0.929 . S
H2576 C2580 0.929 . S
H2577 C2586 0.929 . S
C2578 H2572 0.930 . S
C2578 C2579 1.367 . S
C2578 C2586 1.378 . S
C2579 C2578 1.367 . S
C2579 C2587 1.433 . S
C2580 H2576 0.929 . S
C2580 C2582 1.378 . S
C2580 C2584 1.350 . S
C2581 C2584 1.463 . S
C2581 C2586 1.350 . S
C2581 N2589 1.427 . S
C2582 H2573 0.930 . S
C2582 C2580 1.378 . S
C2582 C2583 1.367 . S
C2583 C2582 1.367 . S
C2583 C2585 1.433 . S
C2584 C2580 1.350 . S
C2584 C2581 1.463 . S
C2584 N2588 1.427 . S
C2585 H2575 0.929 . S
C2585 C2583 1.433 . S
C2585 N2588 1.384 . S
C2586 H2577 0.929 . S
C2586 C2578 1.378 . S
C2586 C2581 1.350 . S
C2587 H2574 0.929 . S
C2587 C2579 1.433 . S
C2587 N2589 1.384 . S
N2588 C2584 1.427 . S
N2588 C2585 1.384 . S
N2589 C2581 1.427 . S
N2589 C2587 1.384 . S
H2590 C2596 0.930 . S
H2591 C2600 0.930 1_556 S
H2592 C2605 0.929 . S
H2593 C2603 0.929 . S
H2594 C2598 0.929 . S
H2595 C2604 0.929 . S
C2596 H2590 0.930 . S
C2596 C2597 1.367 1_554 S
C2596 C2604 1.378 . S
C2597 C2596 1.367 1_556 S
C2597 C2605 1.433 . S
C2598 H2594 0.929 . S
C2598 C2600 1.378 1_556 S
C2598 C2602 1.350 1_556 S
C2599 C2602 1.463 . S
C2599 C2604 1.350 . S
C2599 N2607 1.427 1_554 S
C2600 H2591 0.930 1_554 S
C2600 C2598 1.378 1_554 S
C2600 C2601 1.367 . S
C2601 C2600 1.367 . S
C2601 C2603 1.433 . S
C2602 C2598 1.350 1_554 S
C2602 C2599 1.463 . S
C2602 N2606 1.427 . S
C2603 H2593 0.929 . S
C2603 C2601 1.433 . S
C2603 N2606 1.384 . S
C2604 H2595 0.929 . S
C2604 C2596 1.378 . S
C2604 C2599 1.350 . S
C2605 H2592 0.929 . S
C2605 C2597 1.433 . S
C2605 N2607 1.384 . S
N2606 C2602 1.427 . S
N2606 C2603 1.384 . S
N2607 C2599 1.427 1_556 S
N2607 C2605 1.384 . S
H2608 C2614 0.930 . S
H2609 C2618 0.930 . S
H2610 C2623 0.929 . S
H2611 C2621 0.929 . S
H2612 C2616 0.929 . S
H2613 C2622 0.929 . S
C2614 H2608 0.930 . S
C2614 C2615 1.367 . S
C2614 C2622 1.378 . S
C2615 C2614 1.367 . S
C2615 C2623 1.433 . S
C2616 H2612 0.929 . S
C2616 C2618 1.378 . S
C2616 C2620 1.350 . S
C2617 C2620 1.463 . S
C2617 C2622 1.350 . S
C2617 N2625 1.427 . S
C2618 H2609 0.930 . S
C2618 C2616 1.378 . S
C2618 C2619 1.367 . S
C2619 C2618 1.367 . S
C2619 C2621 1.433 . S
C2620 C2616 1.350 . S
C2620 C2617 1.463 . S
C2620 N2624 1.427 . S
C2621 H2611 0.929 . S
C2621 C2619 1.433 . S
C2621 N2624 1.384 . S
C2622 H2613 0.929 . S
C2622 C2614 1.378 . S
C2622 C2617 1.350 . S
C2623 H2610 0.929 . S
C2623 C2615 1.433 . S
C2623 N2625 1.384 . S
N2624 C2620 1.427 . S
N2624 C2621 1.384 . S
N2625 C2617 1.427 . S
N2625 C2623 1.384 . S
H2626 C2632 0.930 . S
H2627 C2636 0.930 . S
H2628 C2641 0.929 . S
H2629 C2639 0.929 . S
H2630 C2634 0.929 . S
H2631 C2640 0.929 . S
C2632 H2626 0.930 . S
C2632 C2633 1.367 . S
C2632 C2640 1.378 . S
C2633 C2632 1.367 . S
C2633 C2641 1.433 . S
C2634 H2630 0.929 . S
C2634 C2636 1.378 . S
C2634 C2638 1.350 1_556 S
C2635 C2638 1.463 . S
C2635 C2640 1.350 . S
C2635 N2643 1.427 . S
C2636 H2627 0.930 . S
C2636 C2634 1.378 . S
C2636 C2637 1.367 . S
C2637 C2636 1.367 . S
C2637 C2639 1.433 1_556 S
C2638 C2634 1.350 1_554 S
C2638 C2635 1.463 . S
C2638 N2642 1.427 . S
C2639 H2629 0.929 . S
C2639 C2637 1.433 1_554 S
C2639 N2642 1.384 . S
C2640 H2631 0.929 . S
C2640 C2632 1.378 . S
C2640 C2635 1.350 . S
C2641 H2628 0.929 . S
C2641 C2633 1.433 . S
C2641 N2643 1.384 . S
N2642 C2638 1.427 . S
N2642 C2639 1.384 . S
N2643 C2635 1.427 . S
N2643 C2641 1.384 . S
H2644 C2650 0.930 . S
H2645 C2654 0.930 . S
H2646 C2659 0.929 . S
H2647 C2657 0.929 . S
H2648 C2652 0.929 . S
H2649 C2658 0.929 . S
C2650 H2644 0.930 . S
C2650 C2651 1.367 . S
C2650 C2658 1.378 . S
C2651 C2650 1.367 . S
C2651 C2659 1.433 . S
C2652 H2648 0.929 . S
C2652 C2654 1.378 . S
C2652 C2656 1.350 . S
C2653 C2656 1.463 . S
C2653 C2658 1.350 . S
C2653 N2661 1.427 . S
C2654 H2645 0.930 . S
C2654 C2652 1.378 . S
C2654 C2655 1.367 . S
C2655 C2654 1.367 . S
C2655 C2657 1.433 . S
C2656 C2652 1.350 . S
C2656 C2653 1.463 . S
C2656 N2660 1.427 . S
C2657 H2647 0.929 . S
C2657 C2655 1.433 . S
C2657 N2660 1.384 . S
C2658 H2649 0.929 . S
C2658 C2650 1.378 . S
C2658 C2653 1.350 . S
C2659 H2646 0.929 . S
C2659 C2651 1.433 . S
C2659 N2661 1.384 . S
N2660 C2656 1.427 . S
N2660 C2657 1.384 . S
N2661 C2653 1.427 . S
N2661 C2659 1.384 . S
H2662 C2668 0.930 . S
H2663 C2672 0.930 . S
H2664 C2677 0.929 . S
H2665 C2675 0.929 . S
H2666 C2670 0.929 . S
H2667 C2676 0.929 . S
C2668 H2662 0.930 . S
C2668 C2669 1.367 . S
C2668 C2676 1.378 . S
C2669 C2668 1.367 . S
C2669 C2677 1.433 . S
C2670 H2666 0.929 . S
C2670 C2672 1.378 . S
C2670 C2674 1.350 . S
C2671 C2674 1.463 . S
C2671 C2676 1.350 . S
C2671 N2679 1.427 . S
C2672 H2663 0.930 . S
C2672 C2670 1.378 . S
C2672 C2673 1.367 . S
C2673 C2672 1.367 . S
C2673 C2675 1.433 . S
C2674 C2670 1.350 . S
C2674 C2671 1.463 . S
C2674 N2678 1.427 . S
C2675 H2665 0.929 . S
C2675 C2673 1.433 . S
C2675 N2678 1.384 . S
C2676 H2667 0.929 . S
C2676 C2668 1.378 . S
C2676 C2671 1.350 . S
C2677 H2664 0.929 . S
C2677 C2669 1.433 . S
C2677 N2679 1.384 . S
N2678 C2674 1.427 . S
N2678 C2675 1.384 . S
N2679 C2671 1.427 . S
N2679 C2677 1.384 . S
C959 C101 2.195 . S
C963 C322 2.148 . S
C977 C57 1.757 . S
C981 C361 1.764 . S
C995 C73 1.471 . S
C999 C402 1.519 . S
C1017 C447 1.409 . S
C1013 C78 1.378 . S
C1031 C21 2.172 . S
C1035 C491 2.157 . S
C1053 C522 1.384 . S
C1049 C31 1.409 . S
C1071 C570 1.998 . S
C1067 C49 2.009 . S
C1085 C0 1.603 . S
C1089 C598 1.596 . S
C1107 C330 1.467 . S
C1103 C218 1.433 . S
C1121 C229 1.468 . S
C1125 C371 1.450 . S
C1143 C410 1.468 . S
C1139 C257 1.440 1_545 S
C1161 C442 1.541 . S
C1157 C164 1.458 . S
C1175 C216 0.344 . S
C1179 C478 0.210 . S
C1197 C530 2.202 . S
C1193 C231 2.226 . S
C1215 C567 1.024 . S
C1211 C255 0.949 . S
C1233 C601 1.934 . S
C1229 C166 1.946 . S
C1251 C327 1.837 . S
C1247 C143 1.812 . S
C1265 C265 1.926 . S
C1269 C641 1.936 . S
C1287 C687 1.213 . S
C1283 C299 1.131 . S
C1305 C722 1.561 1_655 S
C1301 C291 1.585 . S
C1319 C104 1.800 . S
C1323 C611 1.785 . S
C1337 C117 1.311 . S
C1341 C407 1.347 . S
C1355 C304 1.227 . S
C1359 C770 1.283 . S
C1377 C798 0.407 . S
C1373 C278 0.440 . S
C1395 C331 2.101 1_565 S
C1391 C60 2.152 . S
C1413 C810 1.695 . S
C1409 C96 1.729 . S
C1427 C88 1.401 . S
C1431 C411 1.389 . S
C1445 C65 1.371 . S
C1449 C758 1.362 . S
C1467 C482 2.016 . S
C1463 C10 2.043 . S
C1481 C44 1.355 . S
C1485 C691 1.339 . S
C1503 C561 1.917 1_565 S
C1499 C34 1.884 . S
C1521 C847 1.629 . S
C1517 C13 1.693 . S
C1539 C321 1.458 . S
C1535 C138 1.462 . S
C1557 C802 1.303 . S
C1553 C296 1.346 . S
C1571 C112 1.231 . S
C1575 C401 1.374 . S
C1589 C270 1.419 . S
C1593 C771 1.413 . S
C1607 C140 0.128 . S
C1611 C487 0.165 . S
C1629 C681 2.122 . S
C1625 C294 2.084 . S
C1643 C114 1.046 . S
C1647 C558 1.031 . S
C1661 C268 1.888 . S
C1665 C850 1.898 . S
C1679 C169 1.945 1_556 S
C1683 C318 1.851 . S
C1697 C161 1.887 . S
C1701 C650 1.871 . S
C1715 C234 1.288 . S
C1719 C518 1.220 . S
C1733 C226 1.500 . S
C1737 C731 1.481 . S
C1755 C842 1.777 . S
C1751 C247 1.872 . S
C1769 C195 1.349 . S
C1773 C398 1.319 . S
C1791 C441 1.185 . S
C1787 C239 1.179 . S
C1809 C367 0.370 . S
C1805 C187 0.323 . S
C1823 C75 2.193 . S
C1827 C882 2.145 . S
C1845 C801 1.770 . S
C1841 C83 1.767 . S
C1859 C99 1.468 . S
C1863 C922 1.520 1_556 S
C1877 C52 1.362 . S
C1881 C767 1.397 . S
C1895 C47 2.166 . S
C1899 C651 2.151 . S
C1917 C682 1.389 . S
C1913 C5 1.404 . S
C1935 C730 1.995 . S
C1931 C23 2.010 . S
C1953 C838 1.592 . S
C1949 C26 1.593 . S
C1971 C890 1.469 . S
C1967 C244 1.431 . S
C1985 C177 1.479 . S
C1989 C811 1.466 . S
C2007 C930 1.457 . S
C2003 C192 1.433 . S
C2025 C762 1.539 . S
C2021 C203 1.463 . S
C2043 C638 0.221 . S
C2039 C242 0.333 . S
C2057 C179 2.225 . S
C2061 C690 2.197 . S
C2079 C727 1.048 . S
C2075 C190 0.975 . S
C2093 C205 1.945 . S
C2097 C841 1.936 . S
C2115 C887 1.834 . S
C2111 C286 1.807 . S
C2129 C122 1.935 . S
C2133 C481 1.946 . S
C2151 C527 1.221 . S
C2147 C130 1.152 . S
C2169 C562 1.556 . S
C2165 C148 1.589 . S
C2187 C851 1.795 . S
C2183 C273 1.810 . S
C2201 C260 1.323 . S
C2205 C927 1.354 . S
C2223 C450 1.272 . S
C2219 C135 1.209 . S
C2241 C358 0.403 . S
C2237 C109 0.407 . S
C2255 C86 2.154 . S
C2259 C891 2.092 . S
C2277 C370 1.705 . S
C2273 C70 1.729 . S
C2291 C62 1.402 . S
C2295 C931 1.389 . S
C2309 C91 1.375 . S
C2313 C438 1.352 . S
C2327 C36 2.043 . S
C2331 C642 2.017 1_556 S
C2349 C531 1.340 . S
C2345 C18 1.348 . S
C2363 C8 1.890 . S
C2367 C721 1.921 . S
C2381 C39 1.694 . S
C2385 C607 1.627 . S
C2403 C881 1.464 . S
C2399 C307 1.456 . S
C2417 C153 1.347 . S
C2421 C362 1.301 . S
C2439 C921 1.367 . S
C2435 C281 1.222 . S
C2453 C127 1.418 . S
C2457 C451 1.410 . S
C2471 C309 0.132 . S
C2475 C647 0.172 . S
C2493 C521 2.122 . S
C2489 C151 2.085 1_556 S
C2507 C283 1.045 . S
C2511 C718 1.057 . S
C2529 C610 1.900 . S
C2525 C125 1.890 . S
C2547 C878 1.843 . S
C2543 C221 1.943 . S
C2565 C490 1.867 1_655 S
C2561 C200 1.890 . S
C2579 C208 1.280 . S
C2583 C678 1.204 . S
C2601 C571 1.494 . S
C2597 C174 1.485 . S
C2615 C182 1.873 . S
C2619 C602 1.767 . S
C2633 C156 1.350 . S
C2637 C918 1.319 . S
C2655 C761 1.191 . S
C2651 C213 1.186 . S
C2673 C807 0.340 . S
C2669 C252 0.345 . S
