# Generated by pormake.
# Topology zzz, (3,6)-cn, num edge types: 1
# Building blocks:
#     Node 0, Type 0, BuildingBlock: WUSLED_clean_sbu_0, # of connection points: 3
#     Node 1, Type 0, BuildingBlock: WUSLED_clean_sbu_0, # of connection points: 3
#     Node 2, Type 0, BuildingBlock: WUSLED_clean_sbu_0, # of connection points: 3
#     Node 3, Type 0, BuildingBlock: WUSLED_clean_sbu_0, # of connection points: 3
#     Node 4, Type 0, BuildingBlock: WUSLED_clean_sbu_0, # of connection points: 3
#     Node 5, Type 0, BuildingBlock: WUSLED_clean_sbu_0, # of connection points: 3
#     Node 6, Type 0, BuildingBlock: WUSLED_clean_sbu_0, # of connection points: 3
#     Node 7, Type 0, BuildingBlock: WUSLED_clean_sbu_0, # of connection points: 3
#     Node 8, Type 1, BuildingBlock: KUMBUR_clean_sbu_0, # of connection points: 6
#     Node 9, Type 1, BuildingBlock: KUMBUR_clean_sbu_0, # of connection points: 6
#     Node 10, Type 1, BuildingBlock: KUMBUR_clean_sbu_0, # of connection points: 6
#     Node 11, Type 1, BuildingBlock: KUMBUR_clean_sbu_0, # of connection points: 6
#     Edge 12, Type (0, 1), BuildingBlock: XIVTED_clean_linker_0, # of connection points: 2
#     Edge 13, Type (0, 1), BuildingBlock: XIVTED_clean_linker_0, # of connection points: 2
#     Edge 14, Type (0, 1), BuildingBlock: XIVTED_clean_linker_0, # of connection points: 2
#     Edge 15, Type (0, 1), BuildingBlock: XIVTED_clean_linker_0, # of connection points: 2
#     Edge 16, Type (0, 1), BuildingBlock: XIVTED_clean_linker_0, # of connection points: 2
#     Edge 17, Type (0, 1), BuildingBlock: XIVTED_clean_linker_0, # of connection points: 2
#     Edge 18, Type (0, 1), BuildingBlock: XIVTED_clean_linker_0, # of connection points: 2
#     Edge 19, Type (0, 1), BuildingBlock: XIVTED_clean_linker_0, # of connection points: 2
#     Edge 20, Type (0, 1), BuildingBlock: XIVTED_clean_linker_0, # of connection points: 2
#     Edge 21, Type (0, 1), BuildingBlock: XIVTED_clean_linker_0, # of connection points: 2
#     Edge 22, Type (0, 1), BuildingBlock: XIVTED_clean_linker_0, # of connection points: 2
#     Edge 23, Type (0, 1), BuildingBlock: XIVTED_clean_linker_0, # of connection points: 2
#     Edge 24, Type (0, 1), BuildingBlock: XIVTED_clean_linker_0, # of connection points: 2
#     Edge 25, Type (0, 1), BuildingBlock: XIVTED_clean_linker_0, # of connection points: 2
#     Edge 26, Type (0, 1), BuildingBlock: XIVTED_clean_linker_0, # of connection points: 2
#     Edge 27, Type (0, 1), BuildingBlock: XIVTED_clean_linker_0, # of connection points: 2
#     Edge 28, Type (0, 1), BuildingBlock: XIVTED_clean_linker_0, # of connection points: 2
#     Edge 29, Type (0, 1), BuildingBlock: XIVTED_clean_linker_0, # of connection points: 2
#     Edge 30, Type (0, 1), BuildingBlock: XIVTED_clean_linker_0, # of connection points: 2
#     Edge 31, Type (0, 1), BuildingBlock: XIVTED_clean_linker_0, # of connection points: 2
#     Edge 32, Type (0, 1), BuildingBlock: XIVTED_clean_linker_0, # of connection points: 2
#     Edge 33, Type (0, 1), BuildingBlock: XIVTED_clean_linker_0, # of connection points: 2
#     Edge 34, Type (0, 1), BuildingBlock: XIVTED_clean_linker_0, # of connection points: 2
#     Edge 35, Type (0, 1), BuildingBlock: XIVTED_clean_linker_0, # of connection points: 2
# Relax obj value: 0.275
# Max RMSD: 0.218
# Mean RMSD: 0.205
data_MOF--net-zzz--node1-WUSLED_clean_sbu_0--node2-KUMBUR_clean_sbu_0--edge1-XIVTED_clean_linker_0
_symmetry_space_group_name_H-M    P1
_symmetry_Int_Tables_number       1
_symmetry_cell_setting            triclinic
loop_
_symmetry_equiv_pos_as_xyz
'x, y, z'
_cell_length_a     61.87448
_cell_length_b     61.830459
_cell_length_c     21.516211
_cell_angle_alpha  90.640935
_cell_angle_beta   90.132834
_cell_angle_gamma 90.035902
loop_
_atom_site_label
_atom_site_type_symbol
_atom_site_fract_x
_atom_site_fract_y
_atom_site_fract_z
_atom_type_partial_charge
C0 C 0.78149 0.55295 0.31962 0.0
C1 C 0.79925 0.54387 0.28776 0.0
C2 C 0.82357 0.55112 0.37605 0.0
C3 C 0.81985 0.54286 0.3156 0.0
C4 C 0.80601 0.56103 0.40695 0.0
C5 C 0.78528 0.56179 0.37933 0.0
U6 U 0.74089 0.56134 0.18502 0.0
O7 O 0.71689 0.53853 0.14583 0.0
O8 O 0.70618 0.57038 0.17873 0.0
C9 C 0.70055 0.55194 0.15208 0.0
C10 C 0.75894 0.55187 0.29299 0.0
C11 C 0.68396 0.55215 0.10097 0.0
C12 C 0.6461 0.54674 0.07051 0.0
C13 C 0.66211 0.54922 0.1166 0.0
C14 C 0.67316 0.55082 0.99097 0.0
C15 C 0.65128 0.54705 1.00665 0.0
C16 C 0.68929 0.5532 0.03744 0.0
C17 C 0.77664 0.58661 0.04891 0.0
C18 C 0.78061 0.58113 0.93791 0.0
C19 C 0.80992 0.5968 0.99815 0.0
C20 C 0.79706 0.59629 0.05111 0.0
C21 C 0.80238 0.58787 0.94164 0.0
C22 C 0.76791 0.58012 0.99158 0.0
C23 C 0.76809 0.57866 0.10763 0.0
O24 O 0.74881 0.57022 0.283 0.0
O25 O 0.75581 0.53774 0.24782 0.0
O26 O 0.76521 0.55769 0.11241 0.0
O27 O 0.75506 0.59056 0.14196 0.0
H28 H 0.79718 0.53707 0.24153 0.0
H29 H 0.83293 0.53545 0.28968 0.0
H30 H 0.8081 0.56753 0.45353 0.0
H31 H 0.77204 0.56888 0.40537 0.0
H32 H 0.62956 0.5444 0.0853 0.0
H33 H 0.65741 0.5483 0.16498 0.0
H34 H 0.67801 0.55115 0.94269 0.0
H35 H 0.70597 0.55535 0.02369 0.0
H36 H 0.77397 0.57487 0.89474 0.0
H37 H 0.8265 0.60207 1.00373 0.0
H38 H 0.80406 0.60127 0.09526 0.0
H39 H 0.75207 0.57267 0.98916 0.0
C40 C 0.9798 0.78748 0.3239 0.0
C41 C 0.97987 0.80638 0.28775 0.0
C42 C 0.98149 0.82988 0.38139 0.0
C43 C 0.98058 0.82722 0.31601 0.0
C44 C 0.98081 0.81086 0.41716 0.0
C45 C 0.97993 0.79013 0.38898 0.0
U46 U 0.97157 0.74433 0.19013 0.0
O47 O 0.99408 0.71895 0.15728 0.0
O48 O 0.96193 0.70963 0.18898 0.0
C49 C 0.98009 0.7031 0.16309 0.0
C50 C 0.98109 0.765 0.29577 0.0
C51 C 0.97893 0.68659 0.11087 0.0
C52 C 0.98047 0.6484 0.07808 0.0
C53 C 0.97934 0.66446 0.12508 0.0
C54 C 0.98002 0.67604 1.00014 0.0
C55 C 0.98099 0.65367 0.01417 0.0
C56 C 0.97914 0.69217 0.04754 0.0
C57 C 0.94533 0.78135 0.05529 0.0
C58 C 0.95071 0.79749 0.95471 0.0
C59 C 0.92781 0.81527 0.03098 0.0
C60 C 0.93109 0.79809 0.0716 0.0
C61 C 0.93856 0.81563 0.97353 0.0
C62 C 0.9542 0.78054 0.99558 0.0
C63 C 0.95477 0.76803 0.10392 0.0
O64 O 0.9629 0.75439 0.28646 0.0
O65 O 0.99484 0.76203 0.24999 0.0
O66 O 0.97574 0.76514 0.10869 0.0
O67 O 0.94271 0.75784 0.14448 0.0
H68 H 0.97982 0.80506 0.23752 0.0
H69 H 0.98118 0.84124 0.28641 0.0
H70 H 0.98109 0.81194 0.46741 0.0
H71 H 0.97982 0.77603 0.41843 0.0
H72 H 0.9816 0.63179 0.09283 0.0
H73 H 0.9794 0.65949 0.17321 0.0
H74 H 0.97996 0.68132 0.95242 0.0
H75 H 0.97889 0.70904 0.03458 0.0
H76 H 0.95935 0.79734 0.91099 0.0
H77 H 0.91826 0.82899 0.04636 0.0
H78 H 0.9242 0.79897 0.11783 0.0
H79 H 0.96527 0.76772 0.98244 0.0
C80 C 0.73476 0.9784 0.33267 0.0
C81 C 0.71727 0.98492 0.29525 0.0
C82 C 0.6917 0.98182 0.38239 0.0
C83 C 0.69619 0.98661 0.31964 0.0
C84 C 0.70911 0.97444 0.41909 0.0
C85 C 0.73027 0.97286 0.39468 0.0
U86 U 0.77892 0.96923 0.20597 0.0
O87 O 0.8041 0.99231 0.17671 0.0
O88 O 0.81356 0.9599 0.20581 0.0
C89 C 0.81999 0.9784 0.18229 0.0
C90 C 0.75774 0.97914 0.30951 0.0
C91 C 0.83641 0.97802 0.13088 0.0
C92 C 0.86932 0.9936 0.08635 0.0
C93 C 0.85382 0.99264 0.13396 0.0
C94 C 0.85088 0.96485 0.03107 0.0
C95 C 0.86813 0.97986 0.03371 0.0
C96 C 0.83515 0.96403 0.07881 0.0
C97 C 0.74387 0.94376 0.06399 0.0
C98 C 0.73598 0.94912 0.95525 0.0
C99 C 0.7082 0.93553 0.02382 0.0
C100 C 0.72311 0.93527 0.07259 0.0
C101 C 0.7141 0.94424 0.96622 0.0
C102 C 0.75073 0.94928 1.00434 0.0
C103 C 0.75541 0.95232 0.11804 0.0
O104 O 0.768 0.96069 0.30116 0.0
O105 O 0.76178 0.99294 0.26503 0.0
O106 O 0.75825 0.97329 0.1244 0.0
O107 O 0.76581 0.94008 0.15773 0.0
H108 H 0.71994 0.9892 0.2472 0.0
H109 H 0.68337 0.99189 0.28904 0.0
H110 H 0.7066 0.97064 0.46753 0.0
H111 H 0.74329 0.96785 0.42501 0.0
H112 H 0.88242 1.00514 0.09105 0.0
H113 H 0.85538 1.00355 0.17346 0.0
H114 H 0.84923 0.95406 0.99135 0.0
H115 H 0.82192 0.95261 0.07471 0.0
H116 H 0.74104 0.95542 0.91081 0.0
H117 H 0.69151 0.93161 0.03375 0.0
H118 H 0.71762 0.93098 0.11865 0.0
H119 H 0.76677 0.9558 0.99706 0.0
C120 C 0.5533 0.74585 0.34469 0.0
C121 C 0.55357 0.72684 0.30817 0.0
C122 C 0.54962 0.70428 0.40075 0.0
C123 C 0.55178 0.70637 0.33575 0.0
C124 C 0.54998 0.72341 0.43716 0.0
C125 C 0.55177 0.74387 0.40951 0.0
U126 U 0.56177 0.78259 0.20391 0.0
O127 O 0.53954 0.80719 0.16655 0.0
O128 O 0.57266 0.81643 0.1917 0.0
C129 C 0.55398 0.82277 0.16882 0.0
C130 C 0.55295 0.76769 0.31567 0.0
C131 C 0.55384 0.83873 0.1171 0.0
C132 C 0.53966 0.87281 0.07727 0.0
C133 C 0.54113 0.85739 0.1244 0.0
C134 C 0.56429 0.85176 0.01414 0.0
C135 C 0.55105 0.87024 0.02116 0.0
C136 C 0.56557 0.83606 0.06148 0.0
C137 C 0.582 0.74726 0.06191 0.0
C138 C 0.57117 0.74596 0.95366 0.0
C139 C 0.59203 0.71663 0.99718 0.0
C140 C 0.59323 0.72782 0.05365 0.0
C141 C 0.57965 0.72486 0.94783 0.0
C142 C 0.57211 0.75701 0.01072 0.0
C143 C 0.57627 0.75336 0.12567 0.0
O144 O 0.57169 0.77635 0.30124 0.0
O145 O 0.53841 0.77023 0.27185 0.0
O146 O 0.55564 0.75684 0.13603 0.0
O147 O 0.58926 0.76616 0.15759 0.0
H148 H 0.55466 0.72783 0.25803 0.0
H149 H 0.5514 0.6922 0.30573 0.0
H150 H 0.54881 0.72264 0.48728 0.0
H151 H 0.55155 0.75821 0.43887 0.0
H152 H 0.52953 0.88687 0.0848 0.0
H153 H 0.53206 0.86 0.16685 0.0
H154 H 0.5732 0.84916 0.97143 0.0
H155 H 0.57551 0.82183 0.05442 0.0
H156 H 0.56214 0.75312 0.91597 0.0
H157 H 0.59881 0.70051 0.9951 0.0
H158 H 0.60093 0.72006 0.09285 0.0
H159 H 0.56346 0.77214 0.01629 0.0
C160 C 0.24274 0.4686 0.89319 0.0
C161 C 0.22382 0.46277 0.92524 0.0
C162 C 0.20111 0.47179 0.83502 0.0
C163 C 0.20331 0.46425 0.89651 0.0
C164 C 0.22025 0.4769 0.80272 0.0
C165 C 0.24067 0.47533 0.83134 0.0
U166 U 0.28062 0.45756 0.03275 0.0
O167 O 0.30249 0.48037 0.08146 0.0
O168 O 0.31575 0.45052 0.04113 0.0
C169 C 0.31977 0.46828 0.07352 0.0
C170 C 0.26439 0.46958 0.92456 0.0
C171 C 0.33623 0.46756 0.12511 0.0
C172 C 0.37459 0.46688 0.15443 0.0
C173 C 0.35808 0.46418 0.10985 0.0
C174 C 0.3479 0.4755 0.23234 0.0
C175 C 0.36993 0.47311 0.2163 0.0
C176 C 0.33132 0.47291 0.18739 0.0
C177 C 0.24668 0.42869 0.16357 0.0
C178 C 0.24119 0.44098 0.26943 0.0
C179 C 0.2131 0.42075 0.21618 0.0
C180 C 0.2268 0.41783 0.16537 0.0
C181 C 0.21942 0.43436 0.26572 0.0
C182 C 0.25474 0.43842 0.21801 0.0
C183 C 0.2532 0.4368 0.10278 0.0
O184 O 0.26551 0.48224 0.97382 0.0
O185 O 0.27488 0.45128 0.93224 0.0
O186 O 0.26787 0.42658 0.0695 0.0
O187 O 0.25414 0.45795 0.0988 0.0
H188 H 0.22483 0.45759 0.97309 0.0
H189 H 0.18913 0.46023 0.92338 0.0
H190 H 0.2195 0.4823 0.75508 0.0
H191 H 0.2549 0.47991 0.80534 0.0
H192 H 0.39114 0.46437 0.13988 0.0
H193 H 0.36253 0.46018 0.06242 0.0
H194 H 0.34345 0.48033 0.27909 0.0
H195 H 0.31472 0.47578 0.201 0.0
H196 H 0.24675 0.45084 0.30823 0.0
H197 H 0.19659 0.41507 0.21202 0.0
H198 H 0.2204 0.41006 0.12381 0.0
H199 H 0.27018 0.4467 0.21773 0.0
C200 C 0.04984 0.23481 0.91503 0.0
C201 C 0.05842 0.2159 0.94158 0.0
C202 C 0.04672 0.19358 0.85157 0.0
C203 C 0.05709 0.19564 0.91004 0.0
C204 C 0.03863 0.2127 0.82491 0.0
C205 C 0.04024 0.23285 0.85588 0.0
U206 U 0.06101 0.28139 0.04378 0.0
O207 O 0.03608 0.30462 0.07393 0.0
O208 O 0.06573 0.31681 0.03196 0.0
C209 C 0.04784 0.32176 0.06195 0.0
C210 C 0.0492 0.25654 0.94765 0.0
C211 C 0.04896 0.33877 0.11253 0.0
C212 C 0.04807 0.37713 0.1431 0.0
C213 C 0.04973 0.3608 0.09704 0.0
C214 C 0.04559 0.34992 0.22219 0.0
C215 C 0.04546 0.37207 0.2066 0.0
C216 C 0.04729 0.33358 0.176 0.0
C217 C 0.09226 0.24378 0.15264 0.0
C218 C 0.09458 0.21962 0.24006 0.0
C219 C 0.08999 0.20509 0.13577 0.0
C220 C 0.091 0.22599 0.11199 0.0
C221 C 0.09018 0.2019 0.20046 0.0
C222 C 0.09555 0.24046 0.21618 0.0
C223 C 0.08448 0.26497 0.13341 0.0
O224 O 0.03816 0.25828 0.9996 0.0
O225 O 0.06661 0.2688 0.94789 0.0
O226 O 0.06335 0.26662 0.13521 0.0
O227 O 0.09302 0.2735 0.08342 0.0
H228 H 0.06567 0.21663 0.9872 0.0
H229 H 0.06346 0.18144 0.93264 0.0
H230 H 0.03082 0.21212 0.77983 0.0
H231 H 0.03346 0.24698 0.83384 0.0
H232 H 0.04864 0.39382 0.12852 0.0
H233 H 0.05105 0.36544 0.0488 0.0
H234 H 0.04353 0.34507 0.26998 0.0
H235 H 0.04665 0.31681 0.18991 0.0
H236 H 0.09478 0.21782 0.29006 0.0
H237 H 0.08707 0.19167 0.10404 0.0
H238 H 0.08883 0.22843 0.06272 0.0
H239 H 0.09654 0.2541 0.24816 0.0
C240 C 0.28936 0.05361 0.89477 0.0
C241 C 0.30769 0.05207 0.93337 0.0
C242 C 0.33209 0.0503 0.84271 0.0
C243 C 0.32868 0.05049 0.90778 0.0
C244 C 0.31367 0.05259 0.80449 0.0
C245 C 0.29274 0.05416 0.83009 0.0
U246 U 0.24194 0.06112 0.01753 0.0
O247 O 0.2162 0.03735 0.03498 0.0
O248 O 0.20733 0.06995 1.00641 0.0
C249 C 0.2005 0.05149 0.0292 0.0
C250 C 0.26662 0.05249 0.91941 0.0
C251 C 0.18463 0.0525 0.082 0.0
C252 C 0.14736 0.05616 0.11948 0.0
C253 C 0.16266 0.05684 0.07093 0.0
C254 C 0.17568 0.04708 0.19182 0.0
C255 C 0.15347 0.05093 0.18094 0.0
C256 C 0.19095 0.04795 0.1434 0.0
C257 C 0.2803 0.08438 0.14388 0.0
C258 C 0.302 0.08674 0.23718 0.0
C259 C 0.31927 0.08678 0.13611 0.0
C260 C 0.29898 0.08561 0.10742 0.0
C261 C 0.32102 0.08631 0.20144 0.0
C262 C 0.28186 0.08587 0.20855 0.0
C263 C 0.25944 0.07823 0.11755 0.0
O264 O 0.26284 0.03874 0.96428 0.0
O265 O 0.25573 0.07064 0.92644 0.0
O266 O 0.25694 0.05733 0.10883 0.0
O267 O 0.2518 0.08994 0.07188 0.0
H268 H 0.30577 0.05158 0.98334 0.0
H269 H 0.34226 0.04919 0.93929 0.0
H270 H 0.31526 0.05231 0.7544 0.0
H271 H 0.27901 0.05513 0.79889 0.0
H272 H 0.13069 0.05977 0.10843 0.0
H273 H 0.15721 0.06048 0.02433 0.0
H274 H 0.18138 0.04274 0.23756 0.0
H275 H 0.20774 0.04458 0.15391 0.0
H276 H 0.30251 0.08597 0.2874 0.0
H277 H 0.33356 0.08683 0.10717 0.0
H278 H 0.29793 0.0845 0.05722 0.0
H279 H 0.26751 0.08478 0.23721 0.0
C280 C 0.46292 0.28106 0.86921 0.0
C281 C 0.45467 0.29966 0.89907 0.0
C282 C 0.46695 0.32264 0.81362 0.0
C283 C 0.45658 0.32016 0.87153 0.0
C284 C 0.47461 0.3038 0.78336 0.0
C285 C 0.47264 0.28337 0.81079 0.0
U286 U 0.45332 0.24539 0.01186 0.0
O287 O 0.47531 0.22164 0.05415 0.0
O288 O 0.44313 0.21122 0.02317 0.0
C289 C 0.46135 0.20563 0.05035 0.0
C290 C 0.46313 0.25956 0.90003 0.0
C291 C 0.4604 0.19015 0.10335 0.0
C292 C 0.45911 0.15244 0.13693 0.0
C293 C 0.45738 0.16804 0.09014 0.0
C294 C 0.46635 0.1807 0.21245 0.0
C295 C 0.46404 0.15835 0.19891 0.0
C296 C 0.46461 0.19636 0.16535 0.0
C297 C 0.43158 0.28082 0.15103 0.0
C298 C 0.4431 0.28188 0.25867 0.0
C299 C 0.42323 0.31197 0.21572 0.0
C300 C 0.42114 0.3007 0.15958 0.0
C301 C 0.43573 0.30339 0.26431 0.0
C302 C 0.44128 0.27073 0.20197 0.0
C303 C 0.43743 0.27482 0.0873 0.0
O304 O 0.47723 0.25766 0.94528 0.0
O305 O 0.44434 0.25084 0.91354 0.0
O306 O 0.42503 0.26133 0.05578 0.0
O307 O 0.45819 0.27199 0.07762 0.0
H308 H 0.44721 0.29839 0.94439 0.0
H309 H 0.45057 0.33416 0.89673 0.0
H310 H 0.48229 0.30479 0.73832 0.0
H311 H 0.47915 0.26934 0.78671 0.0
H312 H 0.45667 0.13564 0.12408 0.0
H313 H 0.45421 0.1627 0.04286 0.0
H314 H 0.47025 0.18614 0.25911 0.0
H315 H 0.46713 0.21324 0.17718 0.0
H316 H 0.45216 0.27447 0.29592 0.0
H317 H 0.41721 0.3284 0.21785 0.0
H318 H 0.41358 0.30871 0.12059 0.0
H319 H 0.44933 0.25528 0.19618 0.0
Tb320 Tb 0.03255 1.00531 0.65828 0.0
C321 C 0.95244 0.99797 0.48853 0.0
C322 C 0.96732 0.98127 0.39584 0.0
C323 C 0.92853 0.9812 0.41172 0.0
C324 C 0.97011 0.99279 0.45245 0.0
C325 C 0.93139 0.99225 0.46845 0.0
C326 C 0.94647 0.97569 0.37552 0.0
C327 C 0.91721 0.01007 0.55961 0.0
N328 N 0.95579 0.00903 0.5425 0.0
C329 C 0.93824 0.01573 0.57692 0.0
C330 C 0.91375 0.99823 0.50514 0.0
Tb331 Tb 0.99045 0.02218 0.55837 0.0
N332 N 0.99002 0.99872 0.47322 0.0
C333 C 0.00789 0.9929 0.43903 0.0
C334 C 0.98553 0.97567 0.36112 0.0
C335 C 1.00591 0.98131 0.38324 0.0
H336 H 0.94032 0.02628 0.61691 0.0
H337 H 0.02019 0.97677 0.35724 0.0
H338 H 0.94404 0.9671 0.33187 0.0
H339 H 0.90364 0.01541 0.58745 0.0
H340 H 0.02405 0.99631 0.45463 0.0
H341 H 1.00445 0.05104 0.86043 0.0
H342 H 0.98405 0.96683 0.31755 0.0
H343 H 0.08213 0.99917 0.59935 0.0
H344 H 1.00005 0.02857 0.76844 0.0
H345 H 0.11908 0.01115 0.62401 0.0
H346 H 0.91251 0.9769 0.39532 0.0
H347 H 0.0404 0.06514 0.88975 0.0
H348 H 0.07995 0.06717 0.86819 0.0
H349 H 0.89738 0.99423 0.49113 0.0
H350 H 0.11096 0.05675 0.80345 0.0
N351 N 0.0335 0.02892 0.74252 0.0
C352 C 0.01611 0.03382 0.77967 0.0
C353 C 0.03867 0.05501 0.8486 0.0
C354 C 0.05649 0.04979 0.81173 0.0
C355 C 0.01841 0.04702 0.83237 0.0
C356 C 0.05338 0.03665 0.75824 0.0
H357 H 0.12565 0.03612 0.71246 0.0
N358 N 0.06723 0.01845 0.67037 0.0
C359 C 0.10564 0.01717 0.65127 0.0
C360 C 0.07076 0.03126 0.72097 0.0
C361 C 0.08459 0.01057 0.63729 0.0
C362 C 0.10927 0.03123 0.70119 0.0
C363 C 0.09182 0.03821 0.7373 0.0
O364 O 0.05428 0.97956 0.66355 0.0
O365 O 1.0064 0.99385 0.59679 0.0
O366 O 0.97398 0.00881 0.6401 0.0
O367 O 1.00163 0.99776 0.70648 0.0
O368 O 0.0363 0.98042 0.58636 0.0
O369 O 0.03353 0.98732 0.74101 0.0
O370 O 0.96774 0.04689 0.54771 0.0
O371 O 0.01618 0.03332 0.62099 0.0
O372 O 0.04904 0.02196 0.58057 0.0
O373 O 0.02129 0.02827 0.50983 0.0
O374 O 0.98655 0.0473 0.63 0.0
O375 O 0.99306 0.04247 0.48054 0.0
C376 C 0.01656 0.97883 0.56834 0.0
C377 C 0.04596 0.95087 0.72875 0.0
C378 C 0.02544 0.91934 0.75995 0.0
C379 C 0.02696 0.94179 0.75261 0.0
C380 C 0.04301 0.90603 0.74406 0.0
C381 C 0.06352 0.93737 0.71381 0.0
C382 C 0.06201 0.91507 0.72141 0.0
C383 C 0.98081 1.00083 0.69351 0.0
C384 C 0.04828 0.97422 0.71903 0.0
C385 C 0.09493 0.0513 0.79023 0.0
C386 C 0.07729 0.05716 0.82721 0.0
C387 C 1.00613 0.04832 0.64963 0.0
C388 C 0.97865 0.0781 0.49475 0.0
C389 C 0.99482 0.08774 0.45871 0.0
C390 C 0.99468 0.11012 0.4492 0.0
C391 C 0.9786 0.123 0.47671 0.0
C392 C 0.96268 0.09125 0.52238 0.0
C393 C 0.9628 0.11358 0.51371 0.0
C394 C 0.04212 0.02774 0.52464 0.0
C395 C 0.97672 0.05436 0.49805 0.0
H396 H 0.01336 0.952 0.76476 0.0
H397 H 0.0421 0.88868 0.75005 0.0
H398 H 0.07841 0.94413 0.69603 0.0
H399 H 0.0756 0.90479 0.70978 0.0
H400 H 1.00696 0.07784 0.43583 0.0
H401 H 0.97823 0.14029 0.46914 0.0
H402 H 0.94978 0.08422 0.54951 0.0
H403 H 0.95034 0.12353 0.53462 0.0
Tb404 Tb 0.51812 0.0352 0.65684 0.0
C405 C 0.53261 0.95465 0.50229 0.0
C406 C 0.55153 0.96903 0.41352 0.0
C407 C 0.55658 0.93148 0.44135 0.0
C408 C 0.53714 0.97178 0.46398 0.0
C409 C 0.5419 0.93412 0.49042 0.0
C410 C 0.56143 0.94892 0.40306 0.0
C411 C 0.51951 0.91952 0.57117 0.0
N412 N 0.51804 0.95767 0.54856 0.0
C413 C 0.51054 0.94001 0.58047 0.0
C414 C 0.53549 0.9166 0.52646 0.0
Tb415 Tb 0.50249 0.99165 0.55621 0.0
N416 N 0.52701 0.99093 0.47488 0.0
C417 C 0.53041 1.00782 0.43507 0.0
C418 C 0.55526 0.98641 0.37414 0.0
C419 C 0.54456 1.00585 0.38484 0.0
H420 H 0.49759 0.94176 0.61382 0.0
H421 H 0.54736 0.01948 0.35476 0.0
H422 H 0.57251 0.94657 0.36463 0.0
H423 H 0.5138 0.90592 0.5978 0.0
H424 H 0.52333 0.02344 0.44258 0.0
H425 H 0.47685 1.00482 0.86167 0.0
H426 H 0.56622 0.98495 0.33512 0.0
H427 H 0.52105 0.0853 0.60053 0.0
H428 H 0.49955 1.00193 0.77073 0.0
H429 H 0.50554 0.12107 0.62358 0.0
H430 H 0.56388 0.91587 0.4317 0.0
H431 H 0.45817 0.03903 0.88673 0.0
H432 H 0.45124 0.07767 0.86147 0.0
H433 H 0.54218 0.90061 0.51856 0.0
H434 H 0.45867 0.10914 0.79622 0.0
N435 N 0.49504 0.03466 0.74138 0.0
C436 C 0.49234 0.01734 0.78001 0.0
C437 C 0.46845 0.03802 0.84611 0.0
C438 C 0.47145 0.05582 0.80779 0.0
C439 C 0.47905 0.01874 0.8323 0.0
C440 C 0.48499 0.05367 0.75521 0.0
H441 H 0.47886 0.12545 0.70797 0.0
N442 N 0.5024 0.06883 0.66892 0.0
C443 C 0.50046 0.10719 0.65004 0.0
C444 C 0.48877 0.07127 0.71776 0.0
C445 C 0.50916 0.0868 0.63715 0.0
C446 C 0.48541 0.10957 0.69758 0.0
C447 C 0.47967 0.09163 0.73285 0.0
O448 O 0.54249 0.05847 0.66128 0.0
O449 O 0.52983 0.0096 0.59445 0.0
O450 O 0.51597 0.97636 0.63924 0.0
O451 O 0.52823 1.00468 0.70284 0.0
O452 O 0.54241 0.03995 0.58442 0.0
O453 O 0.53663 0.03754 0.73914 0.0
O454 O 0.47804 0.96853 0.54489 0.0
O455 O 0.4912 0.01715 0.61881 0.0
O456 O 0.50017 0.0505 0.57993 0.0
O457 O 0.49465 0.02239 0.50851 0.0
O458 O 0.47641 0.98787 0.62479 0.0
O459 O 0.48477 0.99127 0.47253 0.0
C460 C 0.54409 0.02026 0.56554 0.0
C461 C 0.5721 0.05234 0.7261 0.0
C462 C 0.60461 0.03628 0.76885 0.0
C463 C 0.58235 0.03521 0.75675 0.0
C464 C 0.61661 0.0542 0.74872 0.0
C465 C 0.58434 0.07021 0.70677 0.0
C466 C 0.6065 0.07102 0.71764 0.0
C467 C 0.52509 0.98373 0.69088 0.0
C468 C 0.54861 0.05298 0.71661 0.0
C469 C 0.46583 0.09367 0.78414 0.0
C470 C 0.46167 0.07578 0.82139 0.0
C471 C 0.47607 1.00731 0.6463 0.0
C472 C 0.44861 0.97844 0.48286 0.0
C473 C 0.44005 0.99634 0.4518 0.0
C474 C 0.41766 0.99837 0.44395 0.0
C475 C 0.40379 0.98242 0.46723 0.0
C476 C 0.43456 0.96238 0.50491 0.0
C477 C 0.41226 0.96444 0.4973 0.0
C478 C 0.49433 0.04328 0.52404 0.0
C479 C 0.47207 0.97582 0.49125 0.0
H480 H 0.57307 0.0215 0.77279 0.0
H481 H 0.63385 0.0552 0.75723 0.0
H482 H 0.57668 0.08369 0.68369 0.0
H483 H 0.61581 0.08483 0.70262 0.0
H484 H 0.45067 0.00873 0.43383 0.0
H485 H 0.38646 0.98364 0.46087 0.0
H486 H 0.44083 0.94822 0.52802 0.0
H487 H 0.40155 0.95201 0.51436 0.0
Tb488 Tb 0.53341 0.50222 0.56347 0.0
C489 C 0.43906 0.51383 0.64067 0.0
C490 C 0.42504 0.53523 0.55617 0.0
C491 C 0.40046 0.51388 0.61825 0.0
C492 C 0.44259 0.52803 0.59268 0.0
C493 C 0.41786 0.50698 0.65491 0.0
C494 C 0.40405 0.5279 0.56881 0.0
C495 C 0.4322 0.48865 0.74425 0.0
N496 N 0.45622 0.50757 0.67538 0.0
C497 C 0.45283 0.49589 0.7285 0.0
C498 C 0.41464 0.49401 0.70688 0.0
Tb499 Tb 0.48904 0.52301 0.6514 0.0
N500 N 0.46306 0.53512 0.58248 0.0
C501 C 0.46675 0.54992 0.53656 0.0
C502 C 0.42898 0.54987 0.50859 0.0
C503 C 0.44992 0.55726 0.49888 0.0
H504 H 0.46628 0.49178 0.75838 0.0
H505 H 0.45318 0.56862 0.46214 0.0
H506 H 0.39043 0.5333 0.5413 0.0
H507 H 0.42985 0.47907 0.78549 0.0
H508 H 0.48266 0.55574 0.52607 0.0
H509 H 0.56881 0.45604 0.75275 0.0
H510 H 0.41597 0.5557 0.47947 0.0
H511 H 0.55732 0.53198 0.45533 0.0
H512 H 0.53969 0.46871 0.68764 0.0
H513 H 0.59362 0.54574 0.4318 0.0
H514 H 0.3841 0.50876 0.62843 0.0
H515 H 0.60581 0.47007 0.73955 0.0
H516 H 0.63139 0.49345 0.68112 0.0
H517 H 0.39861 0.48855 0.71947 0.0
H518 H 0.6381 0.51823 0.5948 0.0
N519 N 0.55924 0.49019 0.63356 0.0
C520 C 0.55552 0.47493 0.6783 0.0
C521 C 0.59296 0.47576 0.70963 0.0
C522 C 0.597 0.4908 0.66323 0.0
C523 C 0.57215 0.46773 0.71693 0.0
C524 C 0.57965 0.49778 0.62552 0.0
H525 H 0.6242 0.53776 0.50188 0.0
N526 N 0.56649 0.51766 0.54135 0.0
C527 C 0.59097 0.53654 0.4736 0.0
C528 C 0.58337 0.51204 0.57798 0.0
C529 C 0.57036 0.5288 0.48757 0.0
C530 C 0.60815 0.53201 0.51321 0.0
C531 C 0.60459 0.51927 0.56542 0.0
O532 O 0.54222 0.49554 0.47185 0.0
O533 O 0.49847 0.50601 0.56739 0.0
O534 O 0.4845 0.48756 0.65085 0.0
O535 O 0.5166 0.47468 0.60753 0.0
O536 O 0.51307 0.51214 0.48491 0.0
O537 O 0.53974 0.4697 0.53751 0.0
O538 O 0.48178 0.52904 0.74461 0.0
O539 O 0.52415 0.51952 0.64758 0.0
O540 O 0.53625 0.53779 0.55704 0.0
O541 O 0.50568 0.55093 0.60865 0.0
O542 O 0.50915 0.512 0.72886 0.0
O543 O 0.48095 0.55497 0.67843 0.0
C544 C 0.49455 0.51061 0.51131 0.0
C545 C 0.53496 0.46153 0.42878 0.0
C546 C 0.51521 0.43046 0.38819 0.0
C547 C 0.52169 0.44344 0.43885 0.0
C548 C 0.5217 0.43572 0.32776 0.0
C549 C 0.54134 0.46653 0.36787 0.0
C550 C 0.53462 0.45377 0.3177 0.0
C551 C 0.49808 0.47158 0.63746 0.0
C552 C 0.54366 0.47489 0.48 0.0
C553 C 0.62175 0.5128 0.60365 0.0
C554 C 0.61794 0.49864 0.65262 0.0
C555 C 0.52775 0.51423 0.70338 0.0
C556 C 0.48739 0.56365 0.786 0.0
C557 C 0.50021 0.58185 0.77351 0.0
C558 C 0.50714 0.59526 0.82269 0.0
C559 C 0.50145 0.59038 0.88405 0.0
C560 C 0.48175 0.55904 0.84775 0.0
C561 C 0.48884 0.57229 0.89646 0.0
C562 C 0.52327 0.55388 0.5743 0.0
C563 C 0.47864 0.54955 0.73655 0.0
H564 H 0.51688 0.43915 0.48554 0.0
H565 H 0.51688 0.42571 0.28843 0.0
H566 H 0.55179 0.48024 0.35915 0.0
H567 H 0.5397 0.45771 0.27106 0.0
H568 H 0.50449 0.5858 0.72616 0.0
H569 H 0.50659 0.60075 0.92226 0.0
H570 H 0.47166 0.54522 0.85827 0.0
H571 H 0.48435 0.56866 0.94381 0.0
Tb572 Tb 0.02141 0.53241 0.56943 0.0
C573 C 0.01078 0.43904 0.65219 0.0
C574 C 0.99037 0.42288 0.56748 0.0
C575 C 0.01173 0.40004 0.63493 0.0
C576 C 0.99693 0.44129 0.60229 0.0
C577 C 0.01794 0.4183 0.66997 0.0
C578 C 0.99806 0.40234 0.58361 0.0
C579 C 0.03511 0.43475 0.75941 0.0
N580 N 0.01627 0.45697 0.68546 0.0
C581 C 0.02758 0.4549 0.74018 0.0
C582 C 0.03047 0.41638 0.72377 0.0
Tb583 Tb 1.00033 0.48892 0.65565 0.0
N584 N 0.98934 0.46134 0.58901 0.0
C585 C 0.97457 0.4637 0.54178 0.0
C586 C 0.97591 0.42552 0.51825 0.0
C587 C 0.96796 0.44602 0.50549 0.0
H588 H 0.03112 0.46902 0.7686 0.0
H589 H 0.95673 0.44829 0.46748 0.0
H590 H 0.99315 0.38808 0.55747 0.0
H591 H 0.04436 0.43341 0.80194 0.0
H592 H 0.96843 0.47922 0.52875 0.0
H593 H 0.06691 0.57315 0.75372 0.0
H594 H 0.97061 0.41182 0.4903 0.0
H595 H 0.98991 0.5518 0.45873 0.0
H596 H 0.05078 0.54208 0.70195 0.0
H597 H 0.98079 0.58741 0.41538 0.0
H598 H 0.01709 0.38402 0.64784 0.0
H599 H 0.06024 0.61002 0.71524 0.0
H600 H 0.04236 0.634 0.63763 0.0
H601 H 0.03614 0.40074 0.73906 0.0
H602 H 0.01867 0.63795 0.5465 0.0
N603 N 0.03442 0.56036 0.63168 0.0
C604 C 0.04752 0.55772 0.68269 0.0
C605 C 0.0529 0.59628 0.69167 0.0
C606 C 0.03955 0.59907 0.64 0.0
C607 C 0.05674 0.57552 0.71336 0.0
C608 C 0.03033 0.58063 0.61101 0.0
H609 H 0.9954 0.62076 0.46414 0.0
N610 N 0.00827 0.5648 0.53438 0.0
C611 C 0.99077 0.58642 0.45662 0.0
C612 C 0.01676 0.58291 0.56069 0.0
C613 C 0.99582 0.56629 0.48175 0.0
C614 C 0.99907 0.60518 0.48418 0.0
C615 C 0.01236 0.60359 0.53657 0.0
O616 O 0.02849 0.535 0.47487 0.0
O617 O 0.0175 0.49735 0.57229 0.0
O618 O 0.03578 0.48402 0.6555 0.0
O619 O 0.04824 0.51742 0.62225 0.0
O620 O 0.00824 0.51265 0.49317 0.0
O621 O 0.05445 0.53644 0.54439 0.0
O622 O 0.99269 0.4816 0.74731 0.0
O623 O 1.00408 0.52401 0.65309 0.0
O624 O 0.98616 0.53849 0.57189 0.0
O625 O 0.97354 0.50493 0.60425 0.0
O626 O 0.01091 0.50925 0.73426 0.0
O627 O 0.96775 0.48184 0.67718 0.0
C628 C 0.01126 0.49393 0.51691 0.0
C629 C 0.06401 0.54092 0.43483 0.0
C630 C 0.09545 0.52989 0.37478 0.0
C631 C 0.08228 0.52783 0.42746 0.0
C632 C 0.09035 0.54563 0.33032 0.0
C633 C 0.05896 0.55639 0.38989 0.0
C634 C 0.07222 0.55883 0.33807 0.0
C635 C 0.05154 0.49837 0.64858 0.0
C636 C 0.04904 0.53679 0.48574 0.0
C637 C 0.02172 0.62196 0.56461 0.0
C638 C 0.03525 0.6197 0.61635 0.0
C639 C 0.00908 0.52793 0.70932 0.0
C640 C 0.95783 0.48744 0.78402 0.0
C641 C 0.94158 0.50265 0.7716 0.0
C642 C 0.92801 0.5097 0.81985 0.0
C643 C 0.93076 0.50171 0.88014 0.0
C644 C 0.96033 0.4795 0.84458 0.0
C645 C 0.94691 0.48667 0.89239 0.0
C646 C 0.97033 0.52412 0.57816 0.0
C647 C 0.97231 0.47891 0.73579 0.0
H648 H 0.08595 0.51574 0.46206 0.0
H649 H 0.10012 0.54743 0.28899 0.0
H650 H 0.04466 0.56638 0.3946 0.0
H651 H 0.06826 0.57072 0.30333 0.0
H652 H 0.93933 0.50876 0.725 0.0
H653 H 0.9202 0.50693 0.91752 0.0
H654 H 0.97269 0.46763 0.85483 0.0
H655 H 0.9489 0.48041 0.93885 0.0
H656 H 0.15852 0.05805 0.30856 0.0
H657 H 0.03503 0.03257 0.3989 0.0
H658 H 0.10993 0.03935 0.17386 0.0
H659 H 0.08634 0.03596 0.53454 0.0
H660 H 0.06148 0.03889 0.31675 0.0
H661 H 0.13199 0.05324 0.39123 0.0
C662 C 0.1424 0.05283 0.29579 0.0
C663 C 0.13689 0.04902 0.23285 0.0
C664 C 0.06701 0.03819 0.36447 0.0
C665 C 0.10582 0.04397 0.32916 0.0
C666 C 0.05183 0.03465 0.41185 0.0
C667 C 0.05828 0.03329 0.47461 0.0
C668 C 0.08904 0.04072 0.3792 0.0
C669 C 0.08044 0.03634 0.48734 0.0
C670 C 0.12713 0.05023 0.34354 0.0
C671 C 0.11526 0.04286 0.22079 0.0
N672 N 0.09491 0.03987 0.44041 0.0
N673 N 0.1007 0.04058 0.26805 0.0
H674 H 0.45498 0.16031 0.32563 0.0
H675 H 0.49105 0.03788 0.39647 0.0
H676 H 0.48083 0.1169 0.18599 0.0
H677 H 0.48094 0.08574 0.54057 0.0
H678 H 0.48327 0.06538 0.31845 0.0
H679 H 0.46105 0.13246 0.40396 0.0
C680 C 0.462 0.14505 0.31108 0.0
C681 C 0.46731 0.14126 0.24818 0.0
C682 C 0.48286 0.06992 0.36718 0.0
C683 C 0.47399 0.1088 0.33875 0.0
C684 C 0.48728 0.05414 0.41208 0.0
C685 C 0.4874 0.05946 0.47592 0.0
C686 C 0.47807 0.0913 0.3857 0.0
C687 C 0.48187 0.08089 0.49235 0.0
C688 C 0.46535 0.12903 0.35611 0.0
C689 C 0.476 0.12074 0.23311 0.0
N690 N 0.47751 0.09591 0.44787 0.0
N691 N 0.479 0.10544 0.27768 0.0
H692 H 0.40924 0.49264 0.194 0.0
H693 H 0.45823 0.48545 0.54086 0.0
H694 H 0.37233 0.46565 0.34425 0.0
H695 H 0.48571 0.5231 0.39357 0.0
H696 H 0.42737 0.47636 0.47208 0.0
H697 H 0.4382 0.50134 0.26697 0.0
C698 C 0.40718 0.48831 0.24223 0.0
C699 C 0.38802 0.47821 0.26214 0.0
C700 C 0.4401 0.48672 0.45499 0.0
C701 C 0.42172 0.48863 0.34777 0.0
C702 C 0.45769 0.49205 0.49451 0.0
C703 C 0.47453 0.50548 0.47366 0.0
C704 C 0.43955 0.49439 0.39345 0.0
C705 C 0.47312 0.51291 0.4122 0.0
C706 C 0.42381 0.49352 0.28433 0.0
C707 C 0.38656 0.47357 0.32621 0.0
N708 N 0.45616 0.50727 0.37471 0.0
N709 N 0.4031 0.4787 0.36642 0.0
H710 H 0.05771 0.37381 0.33202 0.0
H711 H 0.99795 0.48755 0.39824 0.0
H712 H 0.02395 0.41105 0.194 0.0
H713 H 0.03667 0.45686 0.53851 0.0
H714 H 1.00686 0.45846 0.32553 0.0
H715 H 0.0498 0.40229 0.40953 0.0
C716 C 0.04862 0.38785 0.31762 0.0
C717 C 0.04159 0.38971 0.25533 0.0
C718 C 0.01338 0.45784 0.37221 0.0
C719 C 0.0325 0.42276 0.34505 0.0
C720 C 0.00824 0.47456 0.4141 0.0
C721 C 0.01627 0.47473 0.47529 0.0
C722 C 0.0268 0.44072 0.3907 0.0
C723 C 0.02975 0.45735 0.49232 0.0
C724 C 0.04421 0.40423 0.36219 0.0
C725 C 0.03013 0.40868 0.24048 0.0
N726 N 0.03451 0.44107 0.45048 0.0
N727 N 0.02597 0.42419 0.28456 0.0
H728 H 0.88909 0.94739 0.96614 0.0
H729 H 0.94775 0.02726 0.72901 0.0
H730 H 0.88505 0.01682 0.98217 0.0
H731 H 0.97586 0.9655 0.77174 0.0
H732 H 0.92061 0.02165 0.81008 0.0
H733 H 0.91663 0.95156 0.88423 0.0
C734 C 0.89384 0.96351 0.95243 0.0
C735 C 0.88461 0.98177 0.98191 0.0
C736 C 0.93263 0.00923 0.80171 0.0
C737 C 0.91616 0.98663 0.88711 0.0
C738 C 0.94808 0.01235 0.75493 0.0
C739 C 0.96413 0.99679 0.74286 0.0
C740 C 0.93269 0.99012 0.83654 0.0
C741 C 0.96389 0.97799 0.77932 0.0
C742 C 0.90972 0.96585 0.90586 0.0
C743 C 0.8917 1.00221 0.96179 0.0
N744 N 0.94835 0.97508 0.82391 0.0
N745 N 0.90677 1.00404 0.91578 0.0
H746 H 0.51314 0.88577 0.97383 0.0
H747 H 0.56124 0.98102 0.76786 0.0
H748 H 0.58206 0.89216 0.95258 0.0
H749 H 0.50097 0.94914 0.72555 0.0
H750 H 0.56881 0.95303 0.84641 0.0
H751 H 0.50784 0.91326 0.89421 0.0
C752 C 0.5272 0.89296 0.95241 0.0
C753 C 0.54809 0.88648 0.97012 0.0
C754 C 0.55399 0.95217 0.81963 0.0
C755 C 0.54208 0.91855 0.87879 0.0
C756 C 0.54961 0.9682 0.77506 0.0
C757 C 0.53052 0.96735 0.73942 0.0
C758 C 0.53886 0.93555 0.83004 0.0
C759 C 0.51606 0.9503 0.75092 0.0
C760 C 0.52416 0.90866 0.90673 0.0
C761 C 0.56567 0.89647 0.94021 0.0
N762 N 0.5204 0.93533 0.7953 0.0
N763 N 0.56229 0.91212 0.89657 0.0
H764 H 0.64615 0.5645 0.88794 0.0
H765 H 0.53662 0.49772 0.81629 0.0
H766 H 0.61661 0.51895 0.01219 0.0
H767 H 0.56358 0.54135 0.68248 0.0
H768 H 0.56667 0.50558 0.88635 0.0
H769 H 0.61748 0.55662 0.81109 0.0
C770 C 0.63379 0.5528 0.89928 0.0
C771 C 0.63401 0.54257 0.95769 0.0
C772 C 0.56626 0.51344 0.84166 0.0
C773 C 0.60081 0.53347 0.86901 0.0
C774 C 0.54899 0.50891 0.80136 0.0
C775 C 0.54755 0.51858 0.74271 0.0
C776 C 0.58249 0.52813 0.82443 0.0
C777 C 0.56412 0.53317 0.72667 0.0
C778 C 0.61731 0.54837 0.85521 0.0
C779 C 0.61721 0.5277 0.96897 0.0
N780 N 0.58085 0.53749 0.76717 0.0
N781 N 0.60153 0.5237 0.92556 0.0
H782 H 0.99631 0.65642 0.89111 0.0
H783 H 0.01036 0.53077 0.83521 0.0
H784 H 0.9703 0.6096 0.01857 0.0
H785 H 0.9938 0.56983 0.67756 0.0
H786 H 1.00152 0.56097 0.90422 0.0
H787 H 1.00092 0.62732 0.81381 0.0
C788 C 0.99134 0.64027 0.9035 0.0
C789 C 0.98307 0.63603 0.96356 0.0
C790 C 1.00011 0.56314 0.85449 0.0
C791 C 0.98913 0.60203 0.87371 0.0
C792 C 1.00525 0.54582 0.81455 0.0
C793 C 1.00369 0.54763 0.7494 0.0
C794 C 0.99384 0.58315 0.83017 0.0
C795 C 0.9963 0.56771 0.72681 0.0
C796 C 0.99412 0.62354 0.85874 0.0
C797 C 0.97742 0.61422 0.97491 0.0
N798 N 0.9921 0.58474 0.76685 0.0
N799 N 0.98084 0.59829 0.93133 0.0
H800 H 0.10302 0.17977 0.30484 0.0
H801 H 0.98653 0.12831 0.33799 0.0
H802 H 0.055 0.1796 0.15886 0.0
H803 H 0.03826 0.11373 0.46513 0.0
H804 H 0.01248 0.14576 0.26923 0.0
H805 H 0.08116 0.15352 0.36152 0.0
C806 C 0.08819 0.17381 0.284 0.0
C807 C 0.0808 0.18201 0.22718 0.0
C808 C 0.01827 0.13862 0.31186 0.0
C809 C 0.05564 0.15234 0.29197 0.0
C810 C 1.00345 0.12882 0.35108 0.0
C811 C 0.01042 0.11988 0.40702 0.0
C812 C 0.04015 0.1398 0.32942 0.0
C813 C 0.03243 0.12061 0.42218 0.0
C814 C 0.07571 0.15887 0.31638 0.0
C815 C 0.06151 0.17364 0.20215 0.0
N816 N 0.04656 0.1307 0.38386 0.0
N817 N 0.04945 0.15956 0.23519 0.0
H818 H 0.33563 0.10038 0.31619 0.0
H819 H 0.42845 0.01119 0.32752 0.0
H820 H 0.35409 0.06073 0.1583 0.0
H821 H 0.3867 0.02684 0.48177 0.0
H822 H 0.41048 0.03917 0.26597 0.0
H823 H 0.36419 0.08337 0.37716 0.0
C824 C 0.34593 0.08849 0.29382 0.0
C825 C 0.34194 0.08154 0.2324 0.0
C826 C 0.40557 0.0367 0.31367 0.0
C827 C 0.37491 0.06259 0.30148 0.0
C828 C 0.41577 0.02084 0.34864 0.0
C829 C 0.40875 0.01669 0.40923 0.0
C830 C 0.38855 0.0486 0.34005 0.0
C831 C 0.39228 0.02947 0.43479 0.0
C832 C 0.36224 0.07888 0.32866 0.0
C833 C 0.35636 0.06662 0.20539 0.0
N834 N 0.38261 0.04484 0.39987 0.0
N835 N 0.37201 0.05738 0.24045 0.0
H836 H 0.47665 0.30266 0.31264 0.0
H837 H 0.47193 0.4267 0.4088 0.0
H838 H 0.41706 0.33896 0.32253 0.0
H839 H 0.5302 0.38953 0.38473 0.0
H840 H 0.45069 0.3931 0.4018 0.0
H841 H 0.49506 0.33191 0.36607 0.0
C842 C 0.46715 0.31644 0.32775 0.0
C843 C 0.44519 0.31833 0.31189 0.0
C844 C 0.46815 0.39224 0.39953 0.0
C845 C 0.46672 0.3526 0.37128 0.0
C846 C 0.4802 0.41133 0.40378 0.0
C847 C 0.50268 0.41061 0.39727 0.0
C848 C 0.47881 0.37248 0.38848 0.0
C849 C 0.51283 0.39055 0.39001 0.0
C850 C 0.47786 0.33338 0.35769 0.0
C851 C 0.43411 0.33696 0.33221 0.0
N852 N 0.5008 0.37228 0.38519 0.0
N853 N 0.44509 0.35358 0.35968 0.0
H854 H 0.18058 0.42001 0.31461 0.0
H855 H 0.13592 0.54094 0.33694 0.0
H856 H 0.21912 0.47753 0.28963 0.0
H857 H 0.09769 0.486 0.39188 0.0
H858 H 0.16669 0.51706 0.32053 0.0
H859 H 0.15019 0.44302 0.34734 0.0
C860 C 0.18284 0.43737 0.31743 0.0
C861 C 0.20257 0.44677 0.29988 0.0
C862 C 0.15164 0.51016 0.33659 0.0
C863 C 0.16788 0.47309 0.33578 0.0
C864 C 0.13403 0.52381 0.34547 0.0
C865 C 0.11427 0.51544 0.36575 0.0
C866 C 0.14951 0.4879 0.34764 0.0
C867 C 0.11276 0.49312 0.37681 0.0
C868 C 0.16549 0.45048 0.3358 0.0
C869 C 0.20451 0.46938 0.30402 0.0
N870 N 0.13015 0.48006 0.36727 0.0
N871 N 0.18737 0.48169 0.3208 0.0
H872 H 0.94775 0.85551 0.02188 0.0
H873 H 0.9993 0.89 0.70319 0.0
H874 H 0.93663 0.822 0.84776 0.0
H875 H 1.00746 0.92619 0.8739 0.0
H876 H 0.97013 0.86943 0.75109 0.0
H877 H 0.96268 0.88596 0.9653 0.0
C878 C 0.94769 0.85488 0.97154 0.0
C879 C 0.94118 0.83608 0.93938 0.0
C880 C 0.978 0.88209 0.77796 0.0
C881 C 0.95885 0.87063 0.8745 0.0
C882 C 0.99462 0.89376 0.7506 0.0
C883 C 1.00575 0.90951 0.78513 0.0
C884 C 0.97286 0.88592 0.84071 0.0
C885 C 0.99916 0.91406 0.8461 0.0
C886 C 0.95646 0.87222 0.93926 0.0
C887 C 0.9418 0.83606 0.87428 0.0
N888 N 0.98335 0.902 0.87249 0.0
N889 N 0.95089 0.8529 0.84402 0.0
H890 H 0.7147 0.98457 0.91947 0.0
H891 H 0.60549 0.99249 0.7453 0.0
H892 H 0.67454 0.92747 0.92801 0.0
H893 H 0.62887 0.04173 0.87216 0.0
H894 H 0.6307 0.96642 0.79288 0.0
H895 H 0.68482 1.00425 0.87478 0.0
C896 C 0.6998 0.9759 0.91016 0.0
C897 C 0.69722 0.9542 0.92699 0.0
C898 C 0.62983 0.98283 0.81089 0.0
C899 C 0.66264 0.97709 0.87747 0.0
C900 C 0.61554 0.99761 0.78406 0.0
C901 C 0.61566 0.01929 0.80414 0.0
C902 C 0.6442 0.99013 0.85706 0.0
C903 C 0.62879 0.02526 0.85446 0.0
C904 C 0.68262 0.98732 0.88571 0.0
C905 C 0.67716 0.94417 0.91551 0.0
N906 N 0.64284 0.01086 0.87845 0.0
N907 N 0.66045 0.95576 0.89129 0.0
H908 H 0.53957 0.72398 0.89342 0.0
H909 H 0.55073 0.59985 0.81379 0.0
H910 H 0.60091 0.69057 0.89081 0.0
H911 H 0.49101 0.63549 0.80938 0.0
H912 H 0.57075 0.63414 0.81881 0.0
H913 H 0.5234 0.694 0.83737 0.0
C914 C 0.54993 0.71071 0.87944 0.0
C915 C 0.57167 0.70978 0.89837 0.0
C916 C 0.5533 0.63451 0.81512 0.0
C917 C 0.55272 0.67464 0.83595 0.0
C918 C 0.54196 0.61499 0.81204 0.0
C919 C 0.51935 0.61512 0.81117 0.0
C920 C 0.54181 0.65412 0.81821 0.0
C921 C 0.5085 0.63493 0.80981 0.0
C922 C 0.54051 0.69334 0.84788 0.0
C923 C 0.58394 0.69178 0.87907 0.0
N924 N 0.51983 0.65367 0.81421 0.0
N925 N 0.57418 0.67469 0.85024 0.0
H926 H 0.80137 0.55174 0.86643 0.0
H927 H 0.92797 0.55358 0.82924 0.0
H928 H 0.84038 0.60826 0.90664 0.0
H929 H 0.88726 0.49879 0.78769 0.0
H930 H 0.89577 0.57677 0.83367 0.0
H931 H 0.83144 0.53588 0.81114 0.0
C932 C 0.81597 0.56124 0.86224 0.0
C933 C 0.8183 0.58129 0.89302 0.0
C934 C 0.89389 0.5598 0.82199 0.0
C935 C 0.85345 0.56245 0.83144 0.0
C936 C 0.91223 0.54666 0.81926 0.0
C937 C 0.90999 0.52445 0.80802 0.0
C938 C 0.87332 0.55042 0.81437 0.0
C939 C 0.88945 0.51595 0.79614 0.0
C940 C 0.83337 0.55193 0.83106 0.0
C941 C 0.83796 0.59244 0.88574 0.0
N942 N 0.87183 0.52891 0.80049 0.0
N943 N 0.85496 0.58264 0.85709 0.0
H944 H 0.07445 0.15787 0.83945 0.0
H945 H 0.98255 0.07882 0.709 0.0
H946 H 0.01026 0.17889 0.79081 0.0
H947 H 0.04854 0.06614 0.65686 0.0
H948 H 0.99361 0.11331 0.75441 0.0
H949 H 0.06681 0.12254 0.78855 0.0
C950 C 0.05877 0.15517 0.81827 0.0
C951 C 0.04301 0.17172 0.81987 0.0
C952 C 1.00583 0.10298 0.73378 0.0
C953 C 0.03409 0.13094 0.76179 0.0
C954 C 0.99952 0.08309 0.70771 0.0
C955 C 0.01459 0.06896 0.67996 0.0
C956 C 0.02764 0.10923 0.73373 0.0
C957 C 0.03634 0.07599 0.67934 0.0
C958 C 0.0545 0.13498 0.78875 0.0
C959 C 0.02309 0.16701 0.79079 0.0
N960 N 0.04226 0.09543 0.70646 0.0
N961 N 0.01922 0.14724 0.76398 0.0
H962 H 0.35042 0.06733 0.73495 0.0
H963 H 0.45176 0.98749 0.73297 0.0
H964 H 0.36524 0.02438 0.88576 0.0
H965 H 0.45437 0.04688 0.63074 0.0
H966 H 0.41819 0.99956 0.78193 0.0
H967 H 0.38597 0.0591 0.68904 0.0
C968 C 0.36103 0.05622 0.75874 0.0
C969 C 0.35442 0.04659 0.81491 0.0
C970 C 0.42608 0.01012 0.7492 0.0
C971 C 0.39552 0.037 0.76164 0.0
C972 C 0.44533 1.00321 0.72107 0.0
C973 C 0.45633 0.01631 0.67858 0.0
C974 C 0.41688 0.03009 0.73339 0.0
C975 C 0.44681 0.03639 0.66426 0.0
C976 C 0.38148 0.05166 0.73248 0.0
C977 C 0.36934 0.0325 0.8431 0.0
N978 N 0.42759 0.04258 0.69115 0.0
N979 N 0.38884 0.02804 0.81607 0.0
H980 H 0.44 0.35862 0.81491 0.0
H981 H 0.52379 0.43515 0.6341 0.0
H982 H 0.50234 0.33743 0.74873 0.0
H983 H 0.4597 0.45572 0.6859 0.0
H984 H 0.51585 0.39931 0.67496 0.0
H985 H 0.44678 0.39427 0.76972 0.0
C986 C 0.45513 0.36137 0.79111 0.0
C987 C 0.47054 0.34468 0.78574 0.0
C988 C 0.50351 0.41168 0.67769 0.0
C989 C 0.4784 0.38578 0.73317 0.0
C990 C 0.50802 0.43228 0.65412 0.0
C991 C 0.49262 0.44899 0.65771 0.0
C992 C 0.48337 0.40747 0.70535 0.0
C993 C 0.47241 0.44383 0.68376 0.0
C994 C 0.45894 0.38178 0.7649 0.0
C995 C 0.48974 0.34945 0.75347 0.0
N996 N 0.46844 0.4237 0.70681 0.0
N997 N 0.49309 0.3694 0.7288 0.0
H998 H 0.18799 0.50444 0.75685 0.0
H999 H 0.06757 0.45996 0.69662 0.0
H1000 H 0.16353 0.44714 0.84513 0.0
H1001 H 0.08765 0.52475 0.65281 0.0
H1002 H 0.10315 0.45327 0.74256 0.0
H1003 H 0.15253 0.51009 0.7095 0.0
C1004 C 0.17528 0.49287 0.76608 0.0
C1005 C 0.17913 0.47518 0.80534 0.0
C1006 C 0.09976 0.46898 0.72308 0.0
C1007 C 0.13782 0.48181 0.75073 0.0
C1008 C 0.07923 0.47292 0.69718 0.0
C1009 C 0.07398 0.49322 0.67213 0.0
C1010 C 0.11565 0.48526 0.7229 0.0
C1011 C 0.09055 0.50891 0.67196 0.0
C1012 C 0.15486 0.49626 0.73919 0.0
C1013 C 0.16155 0.46112 0.81585 0.0
N1014 N 0.11045 0.50461 0.69673 0.0
N1015 N 0.14183 0.46467 0.78867 0.0
H1016 H 1.00676 0.84122 0.48274 0.0
H1017 H 0.97379 0.96335 0.54717 0.0
H1018 H 0.96273 0.86969 0.35141 0.0
H1019 H 0.04047 0.94391 0.53407 0.0
H1020 H 0.96318 0.92812 0.49973 0.0
H1021 H 0.01263 0.87706 0.5297 0.0
C1022 C 0.99807 0.85487 0.46397 0.0
C1023 C 0.98426 0.85206 0.41226 0.0
C1024 C 0.98013 0.93173 0.50707 0.0
C1025 C 0.99086 0.89371 0.46746 0.0
C1026 C 0.98623 0.95203 0.53339 0.0
C1027 C 0.00821 0.95741 0.54207 0.0
C1028 C 0.99603 0.91606 0.49297 0.0
C1029 C 0.02336 0.94109 0.52709 0.0
C1030 C 1.00155 0.87544 0.49088 0.0
C1031 C 0.97371 0.87084 0.39051 0.0
N1032 N 0.01704 0.92138 0.50431 0.0
N1033 N 0.97714 0.89072 0.41817 0.0
H1034 H 0.66919 0.9582 0.47187 0.0
H1035 H 0.56977 0.04208 0.48668 0.0
H1036 H 0.66264 0.01435 0.35625 0.0
H1037 H 0.56664 0.98098 0.58025 0.0
H1038 H 0.60455 0.03177 0.4425 0.0
H1039 H 0.63309 0.96572 0.51553 0.0
C1040 C 0.6603 0.9721 0.45549 0.0
C1041 C 0.66931 0.98556 0.40957 0.0
C1042 C 0.59634 0.02042 0.47226 0.0
C1043 C 0.62759 0.99429 0.46004 0.0
C1044 C 0.57636 0.02635 0.4977 0.0
C1045 C 0.56487 0.0123 0.53649 0.0
C1046 C 0.60565 1.00031 0.48632 0.0
C1047 C 0.5746 0.99221 0.54961 0.0
C1048 C 0.63954 0.9763 0.48035 0.0
C1049 C 0.65659 1.00319 0.39044 0.0
N1050 N 0.59439 0.98685 0.52476 0.0
N1051 N 0.63671 1.00701 0.41573 0.0
H1052 H 0.52419 0.69345 0.5016 0.0
H1053 H 0.55463 0.56739 0.49176 0.0
H1054 H 0.56757 0.66473 0.36741 0.0
H1055 H 0.50347 0.59274 0.60664 0.0
H1056 H 0.56145 0.60331 0.4527 0.0
H1057 H 0.51856 0.65772 0.54691 0.0
C1058 C 0.53271 0.67975 0.48175 0.0
C1059 C 0.54641 0.68241 0.43011 0.0
C1060 C 0.54876 0.60113 0.48665 0.0
C1061 C 0.53973 0.641 0.48208 0.0
C1062 C 0.54486 0.58036 0.50946 0.0
C1063 C 0.52841 0.5765 0.55298 0.0
C1064 C 0.53624 0.61867 0.50746 0.0
C1065 C 0.51636 0.59462 0.57322 0.0
C1066 C 0.52931 0.65923 0.50755 0.0
C1067 C 0.55662 0.6637 0.40642 0.0
N1068 N 0.5205 0.61479 0.55043 0.0
N1069 N 0.55311 0.64396 0.43249 0.0
H1070 H 0.84715 0.58069 0.44744 0.0
H1071 H 0.93615 0.4962 0.55921 0.0
H1072 H 0.84992 0.51525 0.37681 0.0
H1073 H 0.95303 0.56348 0.53974 0.0
H1074 H 0.90132 0.50339 0.51013 0.0
H1075 H 0.88259 0.57525 0.49787 0.0
C1076 C 0.85511 0.56518 0.44253 0.0
C1077 C 0.84535 0.54844 0.40727 0.0
C1078 C 0.91262 0.5166 0.51657 0.0
C1079 C 0.88596 0.54202 0.46609 0.0
C1080 C 0.93267 0.51254 0.54478 0.0
C1081 C 0.94808 0.52912 0.55298 0.0
C1082 C 0.90729 0.5376 0.49759 0.0
C1083 C 0.94198 0.55004 0.53388 0.0
C1084 C 0.87543 0.56214 0.47112 0.0
C1085 C 0.85671 0.52874 0.40272 0.0
N1086 N 0.92212 0.55369 0.50753 0.0
N1087 N 0.87612 0.52605 0.43206 0.0
loop_
_geom_bond_atom_site_label_1
_geom_bond_atom_site_label_2
_geom_bond_distance
_geom_bond_site_symmetry_2
_ccdc_geom_bond_type
C0 C1 1.264 . S
C0 C5 1.479 . S
C0 C10 1.465 . S
C1 C0 1.264 . S
C1 C3 1.339 . S
C1 H28 0.931 . S
C2 C3 1.395 . S
C2 C4 1.320 . S
C3 C1 1.339 . S
C3 C2 1.395 . S
C3 H29 0.929 . S
C4 C2 1.320 . S
C4 C5 1.405 . S
C4 H30 0.930 . S
C5 C0 1.479 . S
C5 C4 1.405 . S
C5 H31 0.931 . S
U6 O7 2.454 . S
U6 O8 2.458 . S
U6 C9 2.984 . S
U6 C10 2.847 . S
U6 C23 2.882 . S
U6 O24 2.441 . S
U6 O25 2.420 . S
U6 O26 2.455 . S
U6 O27 2.449 . S
O7 U6 2.454 . S
O7 C9 1.353 . S
O8 U6 2.458 . S
O8 C9 1.286 . S
C9 U6 2.984 . S
C9 O7 1.353 . S
C9 O8 1.286 . S
C9 C11 1.363 . S
C10 C0 1.465 . S
C10 U6 2.847 . S
C10 O24 1.249 . S
C10 O25 1.202 . S
C11 C9 1.363 . S
C11 C13 1.408 . S
C11 C16 1.342 . S
C12 C13 1.310 . S
C12 C15 1.461 . S
C12 H32 0.932 . S
C13 C11 1.408 . S
C13 C12 1.310 . S
C13 H33 0.930 . S
C14 C15 1.474 . S
C14 C16 1.285 . S
C14 H34 0.929 . S
C15 C12 1.461 . S
C15 C14 1.474 . S
C16 C11 1.342 . S
C16 C14 1.285 . S
C16 H35 0.930 . S
C17 C20 1.424 . S
C17 C22 1.245 1_554 S
C17 C23 1.428 . S
C18 C21 1.260 . S
C18 C22 1.477 . S
C18 H36 0.932 . S
C19 C20 1.384 . S
C19 C21 1.479 1_554 S
C19 H37 0.929 . S
C20 C17 1.424 . S
C20 C19 1.384 . S
C20 H38 0.928 . S
C21 C18 1.260 . S
C21 C19 1.479 1_556 S
C22 C17 1.245 1_556 S
C22 C18 1.477 . S
C22 H39 0.932 . S
C23 U6 2.882 . S
C23 C17 1.428 . S
C23 O26 1.301 . S
C23 O27 1.282 . S
O24 U6 2.441 . S
O24 C10 1.249 . S
O25 U6 2.420 . S
O25 C10 1.202 . S
O26 U6 2.455 . S
O26 C23 1.301 . S
O27 U6 2.449 . S
O27 C23 1.282 . S
H28 C1 0.931 . S
H29 C3 0.929 . S
H30 C4 0.930 . S
H31 C5 0.931 . S
H32 C12 0.932 . S
H33 C13 0.930 . S
H34 C14 0.929 . S
H35 C16 0.930 . S
H36 C18 0.932 . S
H37 C19 0.929 . S
H38 C20 0.928 . S
H39 C22 0.932 . S
C40 C41 1.264 . S
C40 C45 1.479 . S
C40 C50 1.465 . S
C41 C40 1.264 . S
C41 C43 1.339 . S
C41 H68 0.931 . S
C42 C43 1.395 . S
C42 C44 1.320 . S
C43 C41 1.339 . S
C43 C42 1.395 . S
C43 H69 0.929 . S
C44 C42 1.320 . S
C44 C45 1.405 . S
C44 H70 0.930 . S
C45 C40 1.479 . S
C45 C44 1.405 . S
C45 H71 0.931 . S
U46 O47 2.454 . S
U46 O48 2.458 . S
U46 C49 2.984 . S
U46 C50 2.847 . S
U46 C63 2.882 . S
U46 O64 2.441 . S
U46 O65 2.420 . S
U46 O66 2.455 . S
U46 O67 2.449 . S
O47 U46 2.454 . S
O47 C49 1.353 . S
O48 U46 2.458 . S
O48 C49 1.286 . S
C49 U46 2.984 . S
C49 O47 1.353 . S
C49 O48 1.286 . S
C49 C51 1.363 . S
C50 C40 1.465 . S
C50 U46 2.847 . S
C50 O64 1.249 . S
C50 O65 1.202 . S
C51 C49 1.363 . S
C51 C53 1.408 . S
C51 C56 1.342 . S
C52 C53 1.310 . S
C52 C55 1.461 . S
C52 H72 0.932 . S
C53 C51 1.408 . S
C53 C52 1.310 . S
C53 H73 0.930 . S
C54 C55 1.474 . S
C54 C56 1.285 . S
C54 H74 0.929 . S
C55 C52 1.461 . S
C55 C54 1.474 . S
C56 C51 1.342 . S
C56 C54 1.285 . S
C56 H75 0.930 . S
C57 C60 1.424 . S
C57 C62 1.245 1_554 S
C57 C63 1.428 . S
C58 C61 1.260 . S
C58 C62 1.477 . S
C58 H76 0.932 . S
C59 C60 1.384 . S
C59 C61 1.479 1_554 S
C59 H77 0.929 . S
C60 C57 1.424 . S
C60 C59 1.384 . S
C60 H78 0.928 . S
C61 C58 1.260 . S
C61 C59 1.479 1_556 S
C62 C57 1.245 1_556 S
C62 C58 1.477 . S
C62 H79 0.932 . S
C63 U46 2.882 . S
C63 C57 1.428 . S
C63 O66 1.301 . S
C63 O67 1.282 . S
O64 U46 2.441 . S
O64 C50 1.249 . S
O65 U46 2.420 . S
O65 C50 1.202 . S
O66 U46 2.455 . S
O66 C63 1.301 . S
O67 U46 2.449 . S
O67 C63 1.282 . S
H68 C41 0.931 . S
H69 C43 0.929 . S
H70 C44 0.930 . S
H71 C45 0.931 . S
H72 C52 0.932 . S
H73 C53 0.930 . S
H74 C54 0.929 . S
H75 C56 0.930 . S
H76 C58 0.932 . S
H77 C59 0.929 . S
H78 C60 0.928 . S
H79 C62 0.932 . S
C80 C81 1.264 . S
C80 C85 1.479 . S
C80 C90 1.465 . S
C81 C80 1.264 . S
C81 C83 1.339 . S
C81 H108 0.931 . S
C82 C83 1.395 . S
C82 C84 1.320 . S
C83 C81 1.339 . S
C83 C82 1.395 . S
C83 H109 0.929 . S
C84 C82 1.320 . S
C84 C85 1.405 . S
C84 H110 0.930 . S
C85 C80 1.479 . S
C85 C84 1.405 . S
C85 H111 0.931 . S
U86 O87 2.454 . S
U86 O88 2.458 . S
U86 C89 2.984 . S
U86 C90 2.847 . S
U86 C103 2.882 . S
U86 O104 2.441 . S
U86 O105 2.420 . S
U86 O106 2.455 . S
U86 O107 2.449 . S
O87 U86 2.454 . S
O87 C89 1.353 . S
O88 U86 2.458 . S
O88 C89 1.286 . S
C89 U86 2.984 . S
C89 O87 1.353 . S
C89 O88 1.286 . S
C89 C91 1.363 . S
C90 C80 1.465 . S
C90 U86 2.847 . S
C90 O104 1.249 . S
C90 O105 1.202 . S
C91 C89 1.363 . S
C91 C93 1.408 . S
C91 C96 1.342 . S
C92 C93 1.310 . S
C92 C95 1.461 . S
C92 H112 0.932 . S
C93 C91 1.408 . S
C93 C92 1.310 . S
C93 H113 0.930 . S
C94 C95 1.474 . S
C94 C96 1.285 . S
C94 H114 0.929 . S
C95 C92 1.461 . S
C95 C94 1.474 . S
C96 C91 1.342 . S
C96 C94 1.285 . S
C96 H115 0.930 . S
C97 C100 1.424 . S
C97 C102 1.245 1_554 S
C97 C103 1.428 . S
C98 C101 1.260 . S
C98 C102 1.477 . S
C98 H116 0.932 . S
C99 C100 1.384 . S
C99 C101 1.479 1_554 S
C99 H117 0.929 . S
C100 C97 1.424 . S
C100 C99 1.384 . S
C100 H118 0.928 . S
C101 C98 1.260 . S
C101 C99 1.479 1_556 S
C102 C97 1.245 1_556 S
C102 C98 1.477 . S
C102 H119 0.932 . S
C103 U86 2.882 . S
C103 C97 1.428 . S
C103 O106 1.301 . S
C103 O107 1.282 . S
O104 U86 2.441 . S
O104 C90 1.249 . S
O105 U86 2.420 . S
O105 C90 1.202 . S
O106 U86 2.455 . S
O106 C103 1.301 . S
O107 U86 2.449 . S
O107 C103 1.282 . S
H108 C81 0.931 . S
H109 C83 0.929 . S
H110 C84 0.930 . S
H111 C85 0.931 . S
H112 C92 0.932 . S
H113 C93 0.930 . S
H114 C94 0.929 . S
H115 C96 0.930 . S
H116 C98 0.932 . S
H117 C99 0.929 . S
H118 C100 0.928 . S
H119 C102 0.932 . S
C120 C121 1.264 . S
C120 C125 1.479 . S
C120 C130 1.465 . S
C121 C120 1.264 . S
C121 C123 1.339 . S
C121 H148 0.931 . S
C122 C123 1.395 . S
C122 C124 1.320 . S
C123 C121 1.339 . S
C123 C122 1.395 . S
C123 H149 0.929 . S
C124 C122 1.320 . S
C124 C125 1.405 . S
C124 H150 0.930 . S
C125 C120 1.479 . S
C125 C124 1.405 . S
C125 H151 0.931 . S
U126 O127 2.454 . S
U126 O128 2.458 . S
U126 C129 2.984 . S
U126 C130 2.847 . S
U126 C143 2.882 . S
U126 O144 2.441 . S
U126 O145 2.420 . S
U126 O146 2.455 . S
U126 O147 2.449 . S
O127 U126 2.454 . S
O127 C129 1.353 . S
O128 U126 2.458 . S
O128 C129 1.286 . S
C129 U126 2.984 . S
C129 O127 1.353 . S
C129 O128 1.286 . S
C129 C131 1.363 . S
C130 C120 1.465 . S
C130 U126 2.847 . S
C130 O144 1.249 . S
C130 O145 1.202 . S
C131 C129 1.363 . S
C131 C133 1.408 . S
C131 C136 1.342 . S
C132 C133 1.310 . S
C132 C135 1.461 . S
C132 H152 0.932 . S
C133 C131 1.408 . S
C133 C132 1.310 . S
C133 H153 0.930 . S
C134 C135 1.474 . S
C134 C136 1.285 . S
C134 H154 0.929 . S
C135 C132 1.461 . S
C135 C134 1.474 . S
C136 C131 1.342 . S
C136 C134 1.285 . S
C136 H155 0.930 . S
C137 C140 1.424 . S
C137 C142 1.245 1_554 S
C137 C143 1.428 . S
C138 C141 1.260 . S
C138 C142 1.477 . S
C138 H156 0.932 . S
C139 C140 1.384 . S
C139 C141 1.479 1_554 S
C139 H157 0.929 . S
C140 C137 1.424 . S
C140 C139 1.384 . S
C140 H158 0.928 . S
C141 C138 1.260 . S
C141 C139 1.479 1_556 S
C142 C137 1.245 1_556 S
C142 C138 1.477 . S
C142 H159 0.932 . S
C143 U126 2.882 . S
C143 C137 1.428 . S
C143 O146 1.301 . S
C143 O147 1.282 . S
O144 U126 2.441 . S
O144 C130 1.249 . S
O145 U126 2.420 . S
O145 C130 1.202 . S
O146 U126 2.455 . S
O146 C143 1.301 . S
O147 U126 2.449 . S
O147 C143 1.282 . S
H148 C121 0.931 . S
H149 C123 0.929 . S
H150 C124 0.930 . S
H151 C125 0.931 . S
H152 C132 0.932 . S
H153 C133 0.930 . S
H154 C134 0.929 . S
H155 C136 0.930 . S
H156 C138 0.932 . S
H157 C139 0.929 . S
H158 C140 0.928 . S
H159 C142 0.932 . S
C160 C161 1.264 . S
C160 C165 1.479 . S
C160 C170 1.465 . S
C161 C160 1.264 . S
C161 C163 1.339 . S
C161 H188 0.931 . S
C162 C163 1.395 . S
C162 C164 1.320 . S
C163 C161 1.339 . S
C163 C162 1.395 . S
C163 H189 0.929 . S
C164 C162 1.320 . S
C164 C165 1.405 . S
C164 H190 0.930 . S
C165 C160 1.479 . S
C165 C164 1.405 . S
C165 H191 0.931 . S
U166 O167 2.454 1_554 S
U166 O168 2.458 . S
U166 C169 2.984 . S
U166 C170 2.847 1_554 S
U166 C183 2.882 . S
U166 O184 2.441 1_554 S
U166 O185 2.420 1_554 S
U166 O186 2.455 . S
U166 O187 2.449 . S
O167 U166 2.454 1_556 S
O167 C169 1.353 1_556 S
O168 U166 2.458 . S
O168 C169 1.286 . S
C169 U166 2.984 . S
C169 O167 1.353 1_554 S
C169 O168 1.286 . S
C169 C171 1.363 . S
C170 C160 1.465 . S
C170 U166 2.847 1_556 S
C170 O184 1.249 . S
C170 O185 1.202 . S
C171 C169 1.363 . S
C171 C173 1.408 . S
C171 C176 1.342 . S
C172 C173 1.310 . S
C172 C175 1.461 . S
C172 H192 0.932 . S
C173 C171 1.408 . S
C173 C172 1.310 . S
C173 H193 0.930 1_554 S
C174 C175 1.474 . S
C174 C176 1.285 . S
C174 H194 0.929 . S
C175 C172 1.461 . S
C175 C174 1.474 . S
C176 C171 1.342 . S
C176 C174 1.285 . S
C176 H195 0.930 . S
C177 C180 1.424 . S
C177 C182 1.245 . S
C177 C183 1.428 . S
C178 C181 1.260 . S
C178 C182 1.477 . S
C178 H196 0.932 . S
C179 C180 1.384 . S
C179 C181 1.479 . S
C179 H197 0.929 . S
C180 C177 1.424 . S
C180 C179 1.384 . S
C180 H198 0.928 . S
C181 C178 1.260 . S
C181 C179 1.479 . S
C182 C177 1.245 . S
C182 C178 1.477 . S
C182 H199 0.932 . S
C183 U166 2.882 . S
C183 C177 1.428 . S
C183 O186 1.301 . S
C183 O187 1.282 . S
O184 U166 2.441 1_556 S
O184 C170 1.249 . S
O185 U166 2.420 1_556 S
O185 C170 1.202 . S
O186 U166 2.455 . S
O186 C183 1.301 . S
O187 U166 2.449 . S
O187 C183 1.282 . S
H188 C161 0.931 . S
H189 C163 0.929 . S
H190 C164 0.930 . S
H191 C165 0.931 . S
H192 C172 0.932 . S
H193 C173 0.930 1_556 S
H194 C174 0.929 . S
H195 C176 0.930 . S
H196 C178 0.932 . S
H197 C179 0.929 . S
H198 C180 0.928 . S
H199 C182 0.932 . S
C200 C201 1.264 . S
C200 C205 1.479 . S
C200 C210 1.465 . S
C201 C200 1.264 . S
C201 C203 1.339 . S
C201 H228 0.931 . S
C202 C203 1.395 . S
C202 C204 1.320 . S
C203 C201 1.339 . S
C203 C202 1.395 . S
C203 H229 0.929 . S
C204 C202 1.320 . S
C204 C205 1.405 . S
C204 H230 0.930 . S
C205 C200 1.479 . S
C205 C204 1.405 . S
C205 H231 0.931 . S
U206 O207 2.454 1_554 S
U206 O208 2.458 . S
U206 C209 2.984 . S
U206 C210 2.847 1_554 S
U206 C223 2.882 . S
U206 O224 2.441 1_554 S
U206 O225 2.420 1_554 S
U206 O226 2.455 . S
U206 O227 2.449 . S
O207 U206 2.454 1_556 S
O207 C209 1.353 1_556 S
O208 U206 2.458 . S
O208 C209 1.286 . S
C209 U206 2.984 . S
C209 O207 1.353 1_554 S
C209 O208 1.286 . S
C209 C211 1.363 . S
C210 C200 1.465 . S
C210 U206 2.847 1_556 S
C210 O224 1.249 . S
C210 O225 1.202 . S
C211 C209 1.363 . S
C211 C213 1.408 . S
C211 C216 1.342 . S
C212 C213 1.310 . S
C212 C215 1.461 . S
C212 H232 0.932 1_554 S
C213 C211 1.408 . S
C213 C212 1.310 . S
C213 H233 0.930 1_554 S
C214 C215 1.474 . S
C214 C216 1.285 . S
C214 H234 0.929 . S
C215 C212 1.461 . S
C215 C214 1.474 . S
C216 C211 1.342 . S
C216 C214 1.285 . S
C216 H235 0.930 . S
C217 C220 1.424 . S
C217 C222 1.245 . S
C217 C223 1.428 . S
C218 C221 1.260 . S
C218 C222 1.477 . S
C218 H236 0.932 . S
C219 C220 1.384 . S
C219 C221 1.479 . S
C219 H237 0.929 . S
C220 C217 1.424 . S
C220 C219 1.384 . S
C220 H238 0.928 . S
C221 C218 1.260 . S
C221 C219 1.479 . S
C222 C217 1.245 . S
C222 C218 1.477 . S
C222 H239 0.932 . S
C223 U206 2.882 . S
C223 C217 1.428 . S
C223 O226 1.301 . S
C223 O227 1.282 . S
O224 U206 2.441 1_556 S
O224 C210 1.249 . S
O225 U206 2.420 1_556 S
O225 C210 1.202 . S
O226 U206 2.455 . S
O226 C223 1.301 . S
O227 U206 2.449 . S
O227 C223 1.282 . S
H228 C201 0.931 . S
H229 C203 0.929 . S
H230 C204 0.930 . S
H231 C205 0.931 . S
H232 C212 0.932 1_556 S
H233 C213 0.930 1_556 S
H234 C214 0.929 . S
H235 C216 0.930 . S
H236 C218 0.932 . S
H237 C219 0.929 . S
H238 C220 0.928 . S
H239 C222 0.932 . S
C240 C241 1.264 . S
C240 C245 1.479 . S
C240 C250 1.465 . S
C241 C240 1.264 . S
C241 C243 1.339 . S
C241 H268 0.931 . S
C242 C243 1.395 . S
C242 C244 1.320 . S
C243 C241 1.339 . S
C243 C242 1.395 . S
C243 H269 0.929 . S
C244 C242 1.320 . S
C244 C245 1.405 . S
C244 H270 0.930 . S
C245 C240 1.479 . S
C245 C244 1.405 . S
C245 H271 0.931 . S
U246 O247 2.454 1_554 S
U246 O248 2.458 . S
U246 C249 2.984 . S
U246 C250 2.847 1_554 S
U246 C263 2.882 . S
U246 O264 2.441 1_554 S
U246 O265 2.420 1_554 S
U246 O266 2.455 . S
U246 O267 2.449 . S
O247 U246 2.454 1_556 S
O247 C249 1.353 1_556 S
O248 U246 2.458 . S
O248 C249 1.286 . S
C249 U246 2.984 . S
C249 O247 1.353 1_554 S
C249 O248 1.286 . S
C249 C251 1.363 . S
C250 C240 1.465 . S
C250 U246 2.847 1_556 S
C250 O264 1.249 . S
C250 O265 1.202 . S
C251 C249 1.363 . S
C251 C253 1.408 . S
C251 C256 1.342 . S
C252 C253 1.310 . S
C252 C255 1.461 . S
C252 H272 0.932 1_554 S
C253 C251 1.408 . S
C253 C252 1.310 . S
C253 H273 0.930 1_554 S
C254 C255 1.474 . S
C254 C256 1.285 . S
C254 H274 0.929 . S
C255 C252 1.461 . S
C255 C254 1.474 . S
C256 C251 1.342 . S
C256 C254 1.285 . S
C256 H275 0.930 . S
C257 C260 1.424 . S
C257 C262 1.245 . S
C257 C263 1.428 . S
C258 C261 1.260 . S
C258 C262 1.477 . S
C258 H276 0.932 . S
C259 C260 1.384 . S
C259 C261 1.479 . S
C259 H277 0.929 . S
C260 C257 1.424 . S
C260 C259 1.384 . S
C260 H278 0.928 . S
C261 C258 1.260 . S
C261 C259 1.479 . S
C262 C257 1.245 . S
C262 C258 1.477 . S
C262 H279 0.932 . S
C263 U246 2.882 . S
C263 C257 1.428 . S
C263 O266 1.301 . S
C263 O267 1.282 . S
O264 U246 2.441 1_556 S
O264 C250 1.249 . S
O265 U246 2.420 1_556 S
O265 C250 1.202 . S
O266 U246 2.455 . S
O266 C263 1.301 . S
O267 U246 2.449 . S
O267 C263 1.282 . S
H268 C241 0.931 . S
H269 C243 0.929 . S
H270 C244 0.930 . S
H271 C245 0.931 . S
H272 C252 0.932 1_556 S
H273 C253 0.930 1_556 S
H274 C254 0.929 . S
H275 C256 0.930 . S
H276 C258 0.932 . S
H277 C259 0.929 . S
H278 C260 0.928 . S
H279 C262 0.932 . S
C280 C281 1.264 . S
C280 C285 1.479 . S
C280 C290 1.465 . S
C281 C280 1.264 . S
C281 C283 1.339 . S
C281 H308 0.931 . S
C282 C283 1.395 . S
C282 C284 1.320 . S
C283 C281 1.339 . S
C283 C282 1.395 . S
C283 H309 0.929 . S
C284 C282 1.320 . S
C284 C285 1.405 . S
C284 H310 0.930 . S
C285 C280 1.479 . S
C285 C284 1.405 . S
C285 H311 0.931 . S
U286 O287 2.454 1_554 S
U286 O288 2.458 . S
U286 C289 2.984 . S
U286 C290 2.847 1_554 S
U286 C303 2.882 . S
U286 O304 2.441 1_554 S
U286 O305 2.420 1_554 S
U286 O306 2.455 . S
U286 O307 2.449 . S
O287 U286 2.454 1_556 S
O287 C289 1.353 1_556 S
O288 U286 2.458 . S
O288 C289 1.286 . S
C289 U286 2.984 . S
C289 O287 1.353 1_554 S
C289 O288 1.286 . S
C289 C291 1.363 . S
C290 C280 1.465 . S
C290 U286 2.847 1_556 S
C290 O304 1.249 . S
C290 O305 1.202 . S
C291 C289 1.363 . S
C291 C293 1.408 . S
C291 C296 1.342 . S
C292 C293 1.310 . S
C292 C295 1.461 . S
C292 H312 0.932 . S
C293 C291 1.408 . S
C293 C292 1.310 . S
C293 H313 0.930 1_554 S
C294 C295 1.474 . S
C294 C296 1.285 . S
C294 H314 0.929 . S
C295 C292 1.461 . S
C295 C294 1.474 . S
C296 C291 1.342 . S
C296 C294 1.285 . S
C296 H315 0.930 . S
C297 C300 1.424 . S
C297 C302 1.245 . S
C297 C303 1.428 . S
C298 C301 1.260 . S
C298 C302 1.477 . S
C298 H316 0.932 . S
C299 C300 1.384 . S
C299 C301 1.479 . S
C299 H317 0.929 . S
C300 C297 1.424 . S
C300 C299 1.384 . S
C300 H318 0.928 . S
C301 C298 1.260 . S
C301 C299 1.479 . S
C302 C297 1.245 . S
C302 C298 1.477 . S
C302 H319 0.932 . S
C303 U286 2.882 . S
C303 C297 1.428 . S
C303 O306 1.301 . S
C303 O307 1.282 . S
O304 U286 2.441 1_556 S
O304 C290 1.249 . S
O305 U286 2.420 1_556 S
O305 C290 1.202 . S
O306 U286 2.455 . S
O306 C303 1.301 . S
O307 U286 2.449 . S
O307 C303 1.282 . S
H308 C281 0.931 . S
H309 C283 0.929 . S
H310 C284 0.930 . S
H311 C285 0.931 . S
H312 C292 0.932 . S
H313 C293 0.930 1_556 S
H314 C294 0.929 . S
H315 C296 0.930 . S
H316 C298 0.932 . S
H317 C299 0.929 . S
H318 C300 0.928 . S
H319 C302 0.932 . S
Tb320 N351 2.660 1_565 S
Tb320 N358 2.600 . S
Tb320 O364 2.546 . S
Tb320 O365 2.610 1_455 S
Tb320 O367 2.320 1_455 S
Tb320 O368 2.552 . S
Tb320 O369 2.413 . S
Tb320 O371 2.362 1_565 S
Tb320 O372 2.421 . S
Tb320 C384 2.833 . S
C321 C324 1.432 1_545 S
C321 C325 1.414 . S
C321 N328 1.359 . S
C322 C324 1.417 . S
C322 C326 1.432 . S
C322 C334 1.410 . S
C323 C325 1.444 1_565 S
C323 C326 1.317 . S
C323 H346 0.929 . S
C324 C321 1.432 1_565 S
C324 C322 1.417 . S
C324 N332 1.360 1_565 S
C325 C321 1.414 . S
C325 C323 1.444 1_545 S
C325 C330 1.385 . S
C326 C322 1.432 . S
C326 C323 1.317 . S
C326 H338 0.930 . S
C327 C329 1.392 . S
C327 C330 1.370 . S
C327 H339 0.931 . S
N328 C321 1.359 . S
N328 C329 1.327 . S
N328 Tb331 2.600 . S
C329 C327 1.392 . S
C329 N328 1.327 . S
C329 H336 0.930 . S
C330 C325 1.385 . S
C330 C327 1.370 . S
C330 H349 0.930 . S
Tb331 N328 2.600 . S
Tb331 N332 2.660 . S
Tb331 O365 2.362 1_545 S
Tb331 O366 2.421 . S
Tb331 O370 2.546 . S
Tb331 O371 2.610 1_655 S
Tb331 O373 2.320 1_655 S
Tb331 O374 2.552 1_655 S
Tb331 O375 2.413 . S
Tb331 C395 2.833 . S
N332 C324 1.360 1_545 S
N332 Tb331 2.660 . S
N332 C333 1.305 1_645 S
C333 N332 1.305 1_465 S
C333 C335 1.407 . S
C333 H340 0.930 . S
C334 C322 1.410 . S
C334 C335 1.345 1_655 S
C334 H342 0.930 . S
C335 C333 1.407 . S
C335 C334 1.345 1_455 S
C335 H337 0.930 . S
H336 C329 0.930 . S
H337 C335 0.930 . S
H338 C326 0.930 . S
H339 C327 0.931 . S
H340 C333 0.930 . S
H341 C355 0.930 1_655 S
H342 C334 0.930 . S
H343 C361 0.930 . S
H344 C352 0.930 1_655 S
H345 C359 0.931 . S
H346 C323 0.929 . S
H347 C353 0.930 . S
H348 C386 0.930 . S
H349 C330 0.930 . S
H350 C385 0.929 . S
N351 Tb320 2.660 1_545 S
N351 C352 1.305 . S
N351 C356 1.360 . S
C352 H344 0.930 1_455 S
C352 N351 1.305 . S
C352 C355 1.407 . S
C353 H347 0.930 . S
C353 C354 1.410 . S
C353 C355 1.345 . S
C354 C353 1.410 . S
C354 C356 1.417 . S
C354 C386 1.432 . S
C355 H341 0.930 1_455 S
C355 C352 1.407 . S
C355 C353 1.345 . S
C356 N351 1.360 . S
C356 C354 1.417 . S
C356 C360 1.432 . S
H357 C362 0.931 . S
N358 Tb320 2.600 . S
N358 C360 1.359 1_565 S
N358 C361 1.327 . S
C359 H345 0.931 . S
C359 C361 1.392 . S
C359 C362 1.370 . S
C360 C356 1.432 . S
C360 N358 1.359 1_545 S
C360 C363 1.414 . S
C361 H343 0.930 . S
C361 N358 1.327 . S
C361 C359 1.392 . S
C362 H357 0.931 . S
C362 C359 1.370 . S
C362 C363 1.385 1_565 S
C363 C360 1.414 . S
C363 C362 1.385 1_545 S
C363 C385 1.444 . S
O364 Tb320 2.546 . S
O364 C384 1.251 . S
O365 Tb320 2.610 1_655 S
O365 Tb331 2.362 1_565 S
O365 C376 1.283 . S
O366 Tb331 2.421 . S
O366 C383 1.262 . S
O367 Tb320 2.320 1_655 S
O367 C383 1.260 1_565 S
O368 Tb320 2.552 . S
O368 C376 1.243 1_455 S
O369 Tb320 2.413 . S
O369 C384 1.256 . S
O370 Tb331 2.546 . S
O370 C395 1.251 . S
O371 Tb320 2.362 1_545 S
O371 Tb331 2.610 1_455 S
O371 C387 1.283 . S
O372 Tb320 2.421 . S
O372 C394 1.262 1_565 S
O373 Tb331 2.320 1_455 S
O373 C394 1.260 . S
O374 Tb331 2.552 1_455 S
O374 C387 1.243 . S
O375 Tb331 2.413 . S
O375 C395 1.256 . S
C376 O365 1.283 . S
C376 O368 1.243 1_655 S
C377 C379 1.382 . S
C377 C381 1.393 . S
C377 C384 1.500 . S
C378 C379 1.400 . S
C378 C380 1.384 . S
C379 C377 1.382 . S
C379 C378 1.400 . S
C379 H396 0.930 1_455 S
C380 C378 1.384 . S
C380 C382 1.392 . S
C380 H397 0.931 . S
C381 C377 1.393 . S
C381 C382 1.401 . S
C381 H398 0.930 . S
C382 C380 1.392 . S
C382 C381 1.401 . S
C382 H399 0.930 . S
C383 O366 1.262 . S
C383 O367 1.260 1_545 S
C384 Tb320 2.833 . S
C384 O364 1.251 . S
C384 O369 1.256 . S
C384 C377 1.500 . S
C385 H350 0.929 . S
C385 C363 1.444 . S
C385 C386 1.317 . S
C386 H348 0.930 . S
C386 C354 1.432 . S
C386 C385 1.317 . S
C387 O371 1.283 . S
C387 O374 1.243 . S
C388 C389 1.382 . S
C388 C392 1.393 . S
C388 C395 1.500 . S
C389 C388 1.382 . S
C389 C390 1.400 . S
C389 H400 0.930 1_655 S
C390 C389 1.400 . S
C390 C391 1.384 . S
C391 C390 1.384 . S
C391 C393 1.392 . S
C391 H401 0.931 . S
C392 C388 1.393 . S
C392 C393 1.401 . S
C392 H402 0.930 . S
C393 C391 1.392 . S
C393 C392 1.401 . S
C393 H403 0.930 . S
C394 O372 1.262 1_545 S
C394 O373 1.260 . S
C395 Tb331 2.833 . S
C395 O370 1.251 . S
C395 O375 1.256 . S
C395 C388 1.500 . S
H396 C379 0.930 1_655 S
H397 C380 0.931 . S
H398 C381 0.930 . S
H399 C382 0.930 . S
H400 C389 0.930 1_455 S
H401 C391 0.931 . S
H402 C392 0.930 . S
H403 C393 0.930 . S
Tb404 N435 2.660 . S
Tb404 N442 2.600 . S
Tb404 O448 2.546 . S
Tb404 O449 2.610 1_545 S
Tb404 O451 2.320 1_545 S
Tb404 O452 2.552 . S
Tb404 O453 2.413 . S
Tb404 O455 2.362 . S
Tb404 O456 2.421 . S
Tb404 C468 2.833 . S
C405 C408 1.432 . S
C405 C409 1.414 . S
C405 N412 1.359 . S
C406 C408 1.417 . S
C406 C410 1.432 . S
C406 C418 1.410 . S
C407 C409 1.444 . S
C407 C410 1.317 . S
C407 H430 0.929 . S
C408 C405 1.432 . S
C408 C406 1.417 . S
C408 N416 1.360 . S
C409 C405 1.414 . S
C409 C407 1.444 . S
C409 C414 1.385 . S
C410 C406 1.432 . S
C410 C407 1.317 . S
C410 H422 0.930 . S
C411 C413 1.392 . S
C411 C414 1.370 . S
C411 H423 0.931 . S
N412 C405 1.359 . S
N412 C413 1.327 . S
N412 Tb415 2.600 . S
C413 C411 1.392 . S
C413 N412 1.327 . S
C413 H420 0.930 . S
C414 C409 1.385 . S
C414 C411 1.370 . S
C414 H433 0.930 . S
Tb415 N412 2.600 . S
Tb415 N416 2.660 . S
Tb415 O449 2.362 . S
Tb415 O450 2.421 . S
Tb415 O454 2.546 . S
Tb415 O455 2.610 1_565 S
Tb415 O457 2.320 1_565 S
Tb415 O458 2.552 1_565 S
Tb415 O459 2.413 . S
Tb415 C479 2.833 . S
N416 C408 1.360 . S
N416 Tb415 2.660 . S
N416 C417 1.305 1_565 S
C417 N416 1.305 1_545 S
C417 C419 1.407 . S
C417 H424 0.930 . S
C418 C406 1.410 . S
C418 C419 1.345 1_565 S
C418 H426 0.930 . S
C419 C417 1.407 . S
C419 C418 1.345 1_545 S
C419 H421 0.930 . S
H420 C413 0.930 . S
H421 C419 0.930 . S
H422 C410 0.930 . S
H423 C411 0.931 . S
H424 C417 0.930 . S
H425 C439 0.930 1_565 S
H426 C418 0.930 . S
H427 C445 0.930 . S
H428 C436 0.930 1_565 S
H429 C443 0.931 . S
H430 C407 0.929 . S
H431 C437 0.930 . S
H432 C470 0.930 . S
H433 C414 0.930 . S
H434 C469 0.929 . S
N435 Tb404 2.660 . S
N435 C436 1.305 . S
N435 C440 1.360 . S
C436 H428 0.930 1_545 S
C436 N435 1.305 . S
C436 C439 1.407 . S
C437 H431 0.930 . S
C437 C438 1.410 . S
C437 C439 1.345 . S
C438 C437 1.410 . S
C438 C440 1.417 . S
C438 C470 1.432 . S
C439 H425 0.930 1_545 S
C439 C436 1.407 . S
C439 C437 1.345 . S
C440 N435 1.360 . S
C440 C438 1.417 . S
C440 C444 1.432 . S
H441 C446 0.930 . S
N442 Tb404 2.600 . S
N442 C444 1.359 . S
N442 C445 1.327 . S
C443 H429 0.931 . S
C443 C445 1.392 . S
C443 C446 1.370 . S
C444 C440 1.432 . S
C444 N442 1.359 . S
C444 C447 1.414 . S
C445 H427 0.930 . S
C445 N442 1.327 . S
C445 C443 1.392 . S
C446 H441 0.930 . S
C446 C443 1.370 . S
C446 C447 1.385 . S
C447 C444 1.414 . S
C447 C446 1.385 . S
C447 C469 1.444 . S
O448 Tb404 2.546 . S
O448 C468 1.251 . S
O449 Tb404 2.610 1_565 S
O449 Tb415 2.362 . S
O449 C460 1.283 . S
O450 Tb415 2.421 . S
O450 C467 1.262 . S
O451 Tb404 2.320 1_565 S
O451 C467 1.260 . S
O452 Tb404 2.552 . S
O452 C460 1.243 1_545 S
O453 Tb404 2.413 . S
O453 C468 1.256 . S
O454 Tb415 2.546 . S
O454 C479 1.251 . S
O455 Tb404 2.362 . S
O455 Tb415 2.610 1_545 S
O455 C471 1.283 . S
O456 Tb404 2.421 . S
O456 C478 1.262 . S
O457 Tb415 2.320 1_545 S
O457 C478 1.260 . S
O458 Tb415 2.552 1_545 S
O458 C471 1.243 . S
O459 Tb415 2.413 . S
O459 C479 1.256 . S
C460 O449 1.283 . S
C460 O452 1.243 1_565 S
C461 C463 1.382 . S
C461 C465 1.393 . S
C461 C468 1.500 . S
C462 C463 1.400 . S
C462 C464 1.384 . S
C463 C461 1.382 . S
C463 C462 1.400 . S
C463 H480 0.930 . S
C464 C462 1.384 . S
C464 C466 1.392 . S
C464 H481 0.931 . S
C465 C461 1.393 . S
C465 C466 1.401 . S
C465 H482 0.930 . S
C466 C464 1.392 . S
C466 C465 1.401 . S
C466 H483 0.930 . S
C467 O450 1.262 . S
C467 O451 1.260 . S
C468 Tb404 2.833 . S
C468 O448 1.251 . S
C468 O453 1.256 . S
C468 C461 1.500 . S
C469 H434 0.929 . S
C469 C447 1.444 . S
C469 C470 1.317 . S
C470 H432 0.930 . S
C470 C438 1.432 . S
C470 C469 1.317 . S
C471 O455 1.283 . S
C471 O458 1.243 . S
C472 C473 1.382 . S
C472 C476 1.393 . S
C472 C479 1.500 . S
C473 C472 1.382 . S
C473 C474 1.400 . S
C473 H484 0.930 1_565 S
C474 C473 1.400 . S
C474 C475 1.384 . S
C475 C474 1.384 . S
C475 C477 1.392 . S
C475 H485 0.931 . S
C476 C472 1.393 . S
C476 C477 1.401 . S
C476 H486 0.930 . S
C477 C475 1.392 . S
C477 C476 1.401 . S
C477 H487 0.930 . S
C478 O456 1.262 . S
C478 O457 1.260 . S
C479 Tb415 2.833 . S
C479 O454 1.251 . S
C479 O459 1.256 . S
C479 C472 1.500 . S
H480 C463 0.930 . S
H481 C464 0.931 . S
H482 C465 0.930 . S
H483 C466 0.930 . S
H484 C473 0.930 1_545 S
H485 C475 0.931 . S
H486 C476 0.930 . S
H487 C477 0.930 . S
Tb488 N519 2.660 . S
Tb488 N526 2.600 . S
Tb488 O532 2.546 . S
Tb488 O533 2.610 . S
Tb488 O535 2.320 . S
Tb488 O536 2.552 . S
Tb488 O537 2.413 . S
Tb488 O539 2.362 . S
Tb488 O540 2.421 . S
Tb488 C552 2.833 . S
C489 C492 1.432 . S
C489 C493 1.414 . S
C489 N496 1.359 . S
C490 C492 1.417 . S
C490 C494 1.432 . S
C490 C502 1.410 . S
C491 C493 1.444 . S
C491 C494 1.317 . S
C491 H514 0.929 . S
C492 C489 1.432 . S
C492 C490 1.417 . S
C492 N500 1.360 . S
C493 C489 1.414 . S
C493 C491 1.444 . S
C493 C498 1.385 . S
C494 C490 1.432 . S
C494 C491 1.317 . S
C494 H506 0.930 . S
C495 C497 1.392 . S
C495 C498 1.370 . S
C495 H507 0.931 . S
N496 C489 1.359 . S
N496 C497 1.327 . S
N496 Tb499 2.600 . S
C497 C495 1.392 . S
C497 N496 1.327 . S
C497 H504 0.930 . S
C498 C493 1.385 . S
C498 C495 1.370 . S
C498 H517 0.930 . S
Tb499 N496 2.600 . S
Tb499 N500 2.660 . S
Tb499 O533 2.362 . S
Tb499 O534 2.421 . S
Tb499 O538 2.546 . S
Tb499 O539 2.610 . S
Tb499 O541 2.320 . S
Tb499 O542 2.552 . S
Tb499 O543 2.413 . S
Tb499 C563 2.833 . S
N500 C492 1.360 . S
N500 Tb499 2.660 . S
N500 C501 1.305 . S
C501 N500 1.305 . S
C501 C503 1.407 . S
C501 H508 0.930 . S
C502 C490 1.410 . S
C502 C503 1.345 . S
C502 H510 0.930 . S
C503 C501 1.407 . S
C503 C502 1.345 . S
C503 H505 0.930 . S
H504 C497 0.930 . S
H505 C503 0.930 . S
H506 C494 0.930 . S
H507 C495 0.931 . S
H508 C501 0.930 . S
H509 C523 0.930 . S
H510 C502 0.930 . S
H511 C529 0.930 . S
H512 C520 0.930 . S
H513 C527 0.931 . S
H514 C491 0.929 . S
H515 C521 0.930 . S
H516 C554 0.930 . S
H517 C498 0.930 . S
H518 C553 0.929 . S
N519 Tb488 2.660 . S
N519 C520 1.305 . S
N519 C524 1.360 . S
C520 H512 0.930 . S
C520 N519 1.305 . S
C520 C523 1.407 . S
C521 H515 0.930 . S
C521 C522 1.410 . S
C521 C523 1.345 . S
C522 C521 1.410 . S
C522 C524 1.417 . S
C522 C554 1.432 . S
C523 H509 0.930 . S
C523 C520 1.407 . S
C523 C521 1.345 . S
C524 N519 1.360 . S
C524 C522 1.417 . S
C524 C528 1.432 . S
H525 C530 0.930 . S
N526 Tb488 2.600 . S
N526 C528 1.359 . S
N526 C529 1.327 . S
C527 H513 0.931 . S
C527 C529 1.392 . S
C527 C530 1.370 . S
C528 C524 1.432 . S
C528 N526 1.359 . S
C528 C531 1.414 . S
C529 H511 0.930 . S
C529 N526 1.327 . S
C529 C527 1.392 . S
C530 H525 0.930 . S
C530 C527 1.370 . S
C530 C531 1.385 . S
C531 C528 1.414 . S
C531 C530 1.385 . S
C531 C553 1.444 . S
O532 Tb488 2.546 . S
O532 C552 1.251 . S
O533 Tb488 2.610 . S
O533 Tb499 2.362 . S
O533 C544 1.283 . S
O534 Tb499 2.421 . S
O534 C551 1.262 . S
O535 Tb488 2.320 . S
O535 C551 1.260 . S
O536 Tb488 2.552 . S
O536 C544 1.243 . S
O537 Tb488 2.413 . S
O537 C552 1.256 . S
O538 Tb499 2.546 . S
O538 C563 1.251 . S
O539 Tb488 2.362 . S
O539 Tb499 2.610 . S
O539 C555 1.283 . S
O540 Tb488 2.421 . S
O540 C562 1.262 . S
O541 Tb499 2.320 . S
O541 C562 1.260 . S
O542 Tb499 2.552 . S
O542 C555 1.243 . S
O543 Tb499 2.413 . S
O543 C563 1.256 . S
C544 O533 1.283 . S
C544 O536 1.243 . S
C545 C547 1.382 . S
C545 C549 1.393 . S
C545 C552 1.500 . S
C546 C547 1.400 . S
C546 C548 1.384 . S
C547 C545 1.382 . S
C547 C546 1.400 . S
C547 H564 0.930 . S
C548 C546 1.384 . S
C548 C550 1.392 . S
C548 H565 0.931 . S
C549 C545 1.393 . S
C549 C550 1.401 . S
C549 H566 0.930 . S
C550 C548 1.392 . S
C550 C549 1.401 . S
C550 H567 0.930 . S
C551 O534 1.262 . S
C551 O535 1.260 . S
C552 Tb488 2.833 . S
C552 O532 1.251 . S
C552 O537 1.256 . S
C552 C545 1.500 . S
C553 H518 0.929 . S
C553 C531 1.444 . S
C553 C554 1.317 . S
C554 H516 0.930 . S
C554 C522 1.432 . S
C554 C553 1.317 . S
C555 O539 1.283 . S
C555 O542 1.243 . S
C556 C557 1.382 . S
C556 C560 1.393 . S
C556 C563 1.500 . S
C557 C556 1.382 . S
C557 C558 1.400 . S
C557 H568 0.930 . S
C558 C557 1.400 . S
C558 C559 1.384 . S
C559 C558 1.384 . S
C559 C561 1.392 . S
C559 H569 0.931 . S
C560 C556 1.393 . S
C560 C561 1.401 . S
C560 H570 0.930 . S
C561 C559 1.392 . S
C561 C560 1.401 . S
C561 H571 0.930 . S
C562 O540 1.262 . S
C562 O541 1.260 . S
C563 Tb499 2.833 . S
C563 O538 1.251 . S
C563 O543 1.256 . S
C563 C556 1.500 . S
H564 C547 0.930 . S
H565 C548 0.931 . S
H566 C549 0.930 . S
H567 C550 0.930 . S
H568 C557 0.930 . S
H569 C559 0.931 . S
H570 C560 0.930 . S
H571 C561 0.930 . S
Tb572 N603 2.660 . S
Tb572 N610 2.600 . S
Tb572 O616 2.546 . S
Tb572 O617 2.610 . S
Tb572 O619 2.320 . S
Tb572 O620 2.552 . S
Tb572 O621 2.413 . S
Tb572 O623 2.375 . S
Tb572 O624 2.421 1_455 S
Tb572 C636 2.833 . S
C573 C576 1.432 . S
C573 C577 1.414 . S
C573 N580 1.359 . S
C574 C576 1.417 . S
C574 C578 1.432 . S
C574 C586 1.410 . S
C575 C577 1.444 . S
C575 C578 1.317 . S
C575 H598 0.929 . S
C576 C573 1.432 . S
C576 C574 1.417 . S
C576 N584 1.360 . S
C577 C573 1.414 . S
C577 C575 1.444 . S
C577 C582 1.385 . S
C578 C574 1.432 . S
C578 C575 1.317 . S
C578 H590 0.930 . S
C579 C581 1.392 . S
C579 C582 1.370 1_455 S
C579 H591 0.931 . S
N580 C573 1.359 . S
N580 C581 1.327 1_655 S
N580 Tb583 2.600 . S
C581 C579 1.392 . S
C581 N580 1.327 1_455 S
C581 H588 0.930 . S
C582 C577 1.385 . S
C582 C579 1.370 1_655 S
C582 H601 0.930 . S
Tb583 N580 2.600 . S
Tb583 N584 2.660 . S
Tb583 O617 2.362 1_655 S
Tb583 O618 2.421 1_655 S
Tb583 O622 2.546 . S
Tb583 O623 2.601 1_655 S
Tb583 O625 2.320 . S
Tb583 O626 2.552 . S
Tb583 O627 2.413 . S
Tb583 C647 2.833 . S
N584 C576 1.360 . S
N584 Tb583 2.660 . S
N584 C585 1.305 . S
C585 N584 1.305 . S
C585 C587 1.407 . S
C585 H592 0.930 . S
C586 C574 1.410 . S
C586 C587 1.345 . S
C586 H594 0.930 . S
C587 C585 1.407 . S
C587 C586 1.345 . S
C587 H589 0.930 . S
H588 C581 0.930 . S
H589 C587 0.930 . S
H590 C578 0.930 . S
H591 C579 0.931 . S
H592 C585 0.930 . S
H593 C607 0.930 . S
H594 C586 0.930 . S
H595 C613 0.930 1_655 S
H596 C604 0.930 . S
H597 C611 0.931 1_655 S
H598 C575 0.929 . S
H599 C605 0.930 . S
H600 C638 0.930 . S
H601 C582 0.930 . S
H602 C637 0.929 . S
N603 Tb572 2.660 . S
N603 C604 1.305 . S
N603 C608 1.360 . S
C604 H596 0.930 . S
C604 N603 1.305 . S
C604 C607 1.407 . S
C605 H599 0.930 . S
C605 C606 1.410 . S
C605 C607 1.345 . S
C606 C605 1.410 . S
C606 C608 1.417 . S
C606 C638 1.432 . S
C607 H593 0.930 . S
C607 C604 1.407 . S
C607 C605 1.345 . S
C608 N603 1.360 . S
C608 C606 1.417 . S
C608 C612 1.432 . S
H609 C614 0.930 . S
N610 Tb572 2.600 . S
N610 C612 1.359 . S
N610 C613 1.327 . S
C611 H597 0.931 1_455 S
C611 C613 1.392 . S
C611 C614 1.370 . S
C612 C608 1.432 . S
C612 N610 1.359 . S
C612 C615 1.414 . S
C613 H595 0.930 1_455 S
C613 N610 1.327 . S
C613 C611 1.392 . S
C614 H609 0.930 . S
C614 C611 1.370 . S
C614 C615 1.385 . S
C615 C612 1.414 . S
C615 C614 1.385 . S
C615 C637 1.444 . S
O616 Tb572 2.546 . S
O616 C636 1.251 . S
O617 Tb572 2.610 . S
O617 Tb583 2.362 1_455 S
O617 C628 1.283 . S
O618 Tb583 2.421 1_455 S
O618 C635 1.262 . S
O619 Tb572 2.320 . S
O619 C635 1.260 . S
O620 Tb572 2.552 . S
O620 C628 1.243 . S
O621 Tb572 2.413 . S
O621 C636 1.256 . S
O622 Tb583 2.546 . S
O622 C647 1.251 . S
O623 Tb572 2.375 . S
O623 Tb583 2.601 1_455 S
O623 C639 1.273 1_455 S
O624 Tb572 2.421 1_655 S
O624 C646 1.262 . S
O625 Tb583 2.320 . S
O625 C646 1.260 . S
O626 Tb583 2.552 . S
O626 C639 1.243 . S
O627 Tb583 2.413 . S
O627 C647 1.256 . S
C628 O617 1.283 . S
C628 O620 1.243 . S
C629 C631 1.382 . S
C629 C633 1.393 . S
C629 C636 1.500 . S
C630 C631 1.400 . S
C630 C632 1.384 . S
C631 C629 1.382 . S
C631 C630 1.400 . S
C631 H648 0.930 . S
C632 C630 1.384 . S
C632 C634 1.392 . S
C632 H649 0.931 . S
C633 C629 1.393 . S
C633 C634 1.401 . S
C633 H650 0.930 . S
C634 C632 1.392 . S
C634 C633 1.401 . S
C634 H651 0.930 . S
C635 O618 1.262 . S
C635 O619 1.260 . S
C636 Tb572 2.833 . S
C636 O616 1.251 . S
C636 O621 1.256 . S
C636 C629 1.500 . S
C637 H602 0.929 . S
C637 C615 1.444 . S
C637 C638 1.317 . S
C638 H600 0.930 . S
C638 C606 1.432 . S
C638 C637 1.317 . S
C639 O623 1.273 1_655 S
C639 O626 1.243 . S
C640 C641 1.382 . S
C640 C644 1.393 . S
C640 C647 1.500 . S
C641 C640 1.382 . S
C641 C642 1.400 . S
C641 H652 0.930 . S
C642 C641 1.400 . S
C642 C643 1.384 . S
C643 C642 1.384 . S
C643 C645 1.392 . S
C643 H653 0.931 . S
C644 C640 1.393 . S
C644 C645 1.401 . S
C644 H654 0.930 . S
C645 C643 1.392 . S
C645 C644 1.401 . S
C645 H655 0.930 . S
C646 O624 1.262 . S
C646 O625 1.260 . S
C647 Tb583 2.833 . S
C647 O622 1.251 . S
C647 O627 1.256 . S
C647 C640 1.500 . S
H648 C631 0.930 . S
H649 C632 0.931 . S
H650 C633 0.930 . S
H651 C634 0.930 . S
H652 C641 0.930 . S
H653 C643 0.931 . S
H654 C644 0.930 . S
H655 C645 0.930 . S
H656 C662 0.930 . S
H657 C666 0.930 . S
H658 C671 0.929 . S
H659 C669 0.929 . S
H660 C664 0.929 . S
H661 C670 0.929 . S
C662 H656 0.930 . S
C662 C663 1.367 . S
C662 C670 1.378 . S
C663 C662 1.367 . S
C663 C671 1.433 . S
C664 H660 0.929 . S
C664 C666 1.378 . S
C664 C668 1.350 . S
C665 C668 1.463 . S
C665 C670 1.350 . S
C665 N673 1.427 . S
C666 H657 0.930 . S
C666 C664 1.378 . S
C666 C667 1.367 . S
C667 C666 1.367 . S
C667 C669 1.433 . S
C668 C664 1.350 . S
C668 C665 1.463 . S
C668 N672 1.427 . S
C669 H659 0.929 . S
C669 C667 1.433 . S
C669 N672 1.384 . S
C670 H661 0.929 . S
C670 C662 1.378 . S
C670 C665 1.350 . S
C671 H658 0.929 . S
C671 C663 1.433 . S
C671 N673 1.384 . S
N672 C668 1.427 . S
N672 C669 1.384 . S
N673 C665 1.427 . S
N673 C671 1.384 . S
H674 C680 0.930 . S
H675 C684 0.930 . S
H676 C689 0.929 . S
H677 C687 0.929 . S
H678 C682 0.929 . S
H679 C688 0.929 . S
C680 H674 0.930 . S
C680 C681 1.367 . S
C680 C688 1.378 . S
C681 C680 1.367 . S
C681 C689 1.433 . S
C682 H678 0.929 . S
C682 C684 1.378 . S
C682 C686 1.350 . S
C683 C686 1.463 . S
C683 C688 1.350 . S
C683 N691 1.427 . S
C684 H675 0.930 . S
C684 C682 1.378 . S
C684 C685 1.367 . S
C685 C684 1.367 . S
C685 C687 1.433 . S
C686 C682 1.350 . S
C686 C683 1.463 . S
C686 N690 1.427 . S
C687 H677 0.929 . S
C687 C685 1.433 . S
C687 N690 1.384 . S
C688 H679 0.929 . S
C688 C680 1.378 . S
C688 C683 1.350 . S
C689 H676 0.929 . S
C689 C681 1.433 . S
C689 N691 1.384 . S
N690 C686 1.427 . S
N690 C687 1.384 . S
N691 C683 1.427 . S
N691 C689 1.384 . S
H692 C698 0.930 . S
H693 C702 0.930 . S
H694 C707 0.929 . S
H695 C705 0.929 . S
H696 C700 0.929 . S
H697 C706 0.929 . S
C698 H692 0.930 . S
C698 C699 1.367 . S
C698 C706 1.378 . S
C699 C698 1.367 . S
C699 C707 1.433 . S
C700 H696 0.929 . S
C700 C702 1.378 . S
C700 C704 1.350 . S
C701 C704 1.463 . S
C701 C706 1.350 . S
C701 N709 1.427 . S
C702 H693 0.930 . S
C702 C700 1.378 . S
C702 C703 1.367 . S
C703 C702 1.367 . S
C703 C705 1.433 . S
C704 C700 1.350 . S
C704 C701 1.463 . S
C704 N708 1.427 . S
C705 H695 0.929 . S
C705 C703 1.433 . S
C705 N708 1.384 . S
C706 H697 0.929 . S
C706 C698 1.378 . S
C706 C701 1.350 . S
C707 H694 0.929 . S
C707 C699 1.433 . S
C707 N709 1.384 . S
N708 C704 1.427 . S
N708 C705 1.384 . S
N709 C701 1.427 . S
N709 C707 1.384 . S
H710 C716 0.930 . S
H711 C720 0.930 . S
H712 C725 0.929 . S
H713 C723 0.929 . S
H714 C718 0.929 . S
H715 C724 0.929 . S
C716 H710 0.930 . S
C716 C717 1.367 . S
C716 C724 1.378 . S
C717 C716 1.367 . S
C717 C725 1.433 . S
C718 H714 0.929 . S
C718 C720 1.378 . S
C718 C722 1.350 . S
C719 C722 1.463 . S
C719 C724 1.350 . S
C719 N727 1.427 . S
C720 H711 0.930 . S
C720 C718 1.378 . S
C720 C721 1.367 . S
C721 C720 1.367 . S
C721 C723 1.433 . S
C722 C718 1.350 . S
C722 C719 1.463 . S
C722 N726 1.427 . S
C723 H713 0.929 . S
C723 C721 1.433 . S
C723 N726 1.384 . S
C724 H715 0.929 . S
C724 C716 1.378 . S
C724 C719 1.350 . S
C725 H712 0.929 . S
C725 C717 1.433 . S
C725 N727 1.384 . S
N726 C722 1.427 . S
N726 C723 1.384 . S
N727 C719 1.427 . S
N727 C725 1.384 . S
H728 C734 0.930 . S
H729 C738 0.978 . S
H730 C743 0.929 . S
H731 C741 0.929 . S
H732 C736 0.929 1_545 S
H733 C742 0.929 . S
C734 H728 0.930 . S
C734 C735 1.367 1_556 S
C734 C742 1.378 . S
C735 C734 1.367 1_554 S
C735 C743 1.433 . S
C736 H732 0.929 1_565 S
C736 C738 1.363 1_565 S
C736 C740 1.350 . S
C737 C740 1.463 . S
C737 C742 1.350 . S
C737 N745 1.427 . S
C738 H729 0.978 . S
C738 C736 1.363 1_545 S
C738 C739 1.335 1_545 S
C739 C738 1.335 1_565 S
C739 C741 1.433 . S
C740 C736 1.350 . S
C740 C737 1.463 . S
C740 N744 1.427 . S
C741 H731 0.929 . S
C741 C739 1.433 . S
C741 N744 1.384 . S
C742 H733 0.929 . S
C742 C734 1.378 . S
C742 C737 1.350 . S
C743 H730 0.929 . S
C743 C735 1.433 . S
C743 N745 1.384 1_554 S
N744 C740 1.427 . S
N744 C741 1.384 . S
N745 C737 1.427 . S
N745 C743 1.384 1_556 S
H746 C752 0.941 . S
H747 C756 0.930 . S
H748 C761 0.929 . S
H749 C759 0.929 . S
H750 C754 0.929 . S
H751 C760 0.929 . S
C752 H746 0.941 . S
C752 C753 1.372 . S
C752 C760 1.363 1_554 S
C753 C752 1.372 . S
C753 C761 1.433 1_554 S
C754 H750 0.929 . S
C754 C756 1.378 . S
C754 C758 1.350 . S
C755 C758 1.463 . S
C755 C760 1.350 . S
C755 N763 1.427 . S
C756 H747 0.930 . S
C756 C754 1.378 . S
C756 C757 1.367 . S
C757 C756 1.367 . S
C757 C759 1.433 . S
C758 C754 1.350 . S
C758 C755 1.463 . S
C758 N762 1.427 . S
C759 H749 0.929 . S
C759 C757 1.433 . S
C759 N762 1.384 . S
C760 H751 0.929 . S
C760 C752 1.363 1_556 S
C760 C755 1.350 . S
C761 H748 0.929 . S
C761 C753 1.433 1_556 S
C761 N763 1.384 . S
N762 C758 1.427 . S
N762 C759 1.384 . S
N763 C755 1.427 . S
N763 C761 1.384 . S
H764 C770 0.930 . S
H765 C774 0.930 . S
H766 C779 0.929 . S
H767 C777 0.929 . S
H768 C772 0.929 . S
H769 C778 0.929 . S
C770 H764 0.930 . S
C770 C771 1.367 1_556 S
C770 C778 1.378 . S
C771 C770 1.367 1_554 S
C771 C779 1.433 . S
C772 H768 0.929 . S
C772 C774 1.378 . S
C772 C776 1.350 . S
C773 C776 1.463 . S
C773 C778 1.350 . S
C773 N781 1.427 . S
C774 H765 0.930 . S
C774 C772 1.378 . S
C774 C775 1.367 . S
C775 C774 1.367 . S
C775 C777 1.433 . S
C776 C772 1.350 . S
C776 C773 1.463 . S
C776 N780 1.427 . S
C777 H767 0.929 . S
C777 C775 1.433 . S
C777 N780 1.384 . S
C778 H769 0.929 . S
C778 C770 1.378 . S
C778 C773 1.350 . S
C779 H766 0.929 . S
C779 C771 1.433 . S
C779 N781 1.384 1_554 S
N780 C776 1.427 . S
N780 C777 1.384 . S
N781 C773 1.427 . S
N781 C779 1.384 1_556 S
H782 C788 0.930 1_554 S
H783 C792 0.930 . S
H784 C797 0.928 . S
H785 C795 0.925 1_455 S
H786 C790 0.929 . S
H787 C796 0.929 . S
C788 H782 0.930 1_556 S
C788 C789 1.367 1_556 S
C788 C796 1.378 . S
C789 C788 1.367 1_554 S
C789 C797 1.433 . S
C790 H786 0.929 . S
C790 C792 1.378 . S
C790 C794 1.350 . S
C791 C794 1.463 . S
C791 C796 1.350 . S
C791 N799 1.427 . S
C792 H783 0.930 . S
C792 C790 1.378 . S
C792 C793 1.367 . S
C793 C792 1.367 . S
C793 C795 1.433 . S
C794 C790 1.350 . S
C794 C791 1.463 . S
C794 N798 1.427 . S
C795 H785 0.925 1_655 S
C795 C793 1.433 . S
C795 N798 1.384 . S
C796 H787 0.929 . S
C796 C788 1.378 . S
C796 C791 1.350 . S
C797 H784 0.928 . S
C797 C789 1.433 . S
C797 N799 1.385 1_554 S
N798 C794 1.427 . S
N798 C795 1.384 . S
N799 C791 1.427 . S
N799 C797 1.385 1_556 S
H800 C806 0.930 . S
H801 C810 0.930 . S
H802 C815 0.929 . S
H803 C813 0.929 . S
H804 C808 0.929 . S
H805 C814 0.929 . S
C806 H800 0.930 . S
C806 C807 1.367 . S
C806 C814 1.378 . S
C807 C806 1.367 . S
C807 C815 1.433 . S
C808 H804 0.929 . S
C808 C810 1.378 1_455 S
C808 C812 1.350 . S
C809 C812 1.463 . S
C809 C814 1.350 . S
C809 N817 1.427 . S
C810 H801 0.930 . S
C810 C808 1.378 1_655 S
C810 C811 1.367 1_655 S
C811 C810 1.367 1_455 S
C811 C813 1.433 . S
C812 C808 1.350 . S
C812 C809 1.463 . S
C812 N816 1.427 . S
C813 H803 0.929 . S
C813 C811 1.433 . S
C813 N816 1.384 . S
C814 H805 0.929 . S
C814 C806 1.378 . S
C814 C809 1.350 . S
C815 H802 0.929 . S
C815 C807 1.433 . S
C815 N817 1.384 . S
N816 C812 1.427 . S
N816 C813 1.384 . S
N817 C809 1.427 . S
N817 C815 1.384 . S
H818 C824 0.930 . S
H819 C828 0.930 1_565 S
H820 C833 0.929 . S
H821 C831 0.929 . S
H822 C826 0.929 . S
H823 C832 0.929 . S
C824 H818 0.930 . S
C824 C825 1.367 . S
C824 C832 1.378 . S
C825 C824 1.367 . S
C825 C833 1.433 . S
C826 H822 0.929 . S
C826 C828 1.378 . S
C826 C830 1.350 . S
C827 C830 1.463 . S
C827 C832 1.350 . S
C827 N835 1.427 . S
C828 H819 0.930 1_545 S
C828 C826 1.378 . S
C828 C829 1.367 . S
C829 C828 1.367 . S
C829 C831 1.433 . S
C830 C826 1.350 . S
C830 C827 1.463 . S
C830 N834 1.427 . S
C831 H821 0.929 . S
C831 C829 1.433 . S
C831 N834 1.384 . S
C832 H823 0.929 . S
C832 C824 1.378 . S
C832 C827 1.350 . S
C833 H820 0.929 . S
C833 C825 1.433 . S
C833 N835 1.384 . S
N834 C830 1.427 . S
N834 C831 1.384 . S
N835 C827 1.427 . S
N835 C833 1.384 . S
H836 C842 0.930 . S
H837 C846 0.930 . S
H838 C851 0.929 . S
H839 C849 0.929 . S
H840 C844 0.929 . S
H841 C850 0.929 . S
C842 H836 0.930 . S
C842 C843 1.367 . S
C842 C850 1.378 . S
C843 C842 1.367 . S
C843 C851 1.433 . S
C844 H840 0.929 . S
C844 C846 1.378 . S
C844 C848 1.350 . S
C845 C848 1.463 . S
C845 C850 1.350 . S
C845 N853 1.427 . S
C846 H837 0.930 . S
C846 C844 1.378 . S
C846 C847 1.367 . S
C847 C846 1.367 . S
C847 C849 1.433 . S
C848 C844 1.350 . S
C848 C845 1.463 . S
C848 N852 1.427 . S
C849 H839 0.929 . S
C849 C847 1.433 . S
C849 N852 1.384 . S
C850 H841 0.929 . S
C850 C842 1.378 . S
C850 C845 1.350 . S
C851 H838 0.929 . S
C851 C843 1.433 . S
C851 N853 1.384 . S
N852 C848 1.427 . S
N852 C849 1.384 . S
N853 C845 1.427 . S
N853 C851 1.384 . S
H854 C860 0.930 . S
H855 C864 0.930 . S
H856 C869 0.929 . S
H857 C867 0.929 . S
H858 C862 0.929 . S
H859 C868 0.929 . S
C860 H854 0.930 . S
C860 C861 1.367 . S
C860 C868 1.378 . S
C861 C860 1.367 . S
C861 C869 1.433 . S
C862 H858 0.929 . S
C862 C864 1.378 . S
C862 C866 1.350 . S
C863 C866 1.463 . S
C863 C868 1.350 . S
C863 N871 1.427 . S
C864 H855 0.930 . S
C864 C862 1.378 . S
C864 C865 1.367 . S
C865 C864 1.367 . S
C865 C867 1.433 . S
C866 C862 1.350 . S
C866 C863 1.463 . S
C866 N870 1.427 . S
C867 H857 0.929 . S
C867 C865 1.433 . S
C867 N870 1.384 . S
C868 H859 0.929 . S
C868 C860 1.378 . S
C868 C863 1.350 . S
C869 H856 0.929 . S
C869 C861 1.433 . S
C869 N871 1.384 . S
N870 C866 1.427 . S
N870 C867 1.384 . S
N871 C863 1.427 . S
N871 C869 1.384 . S
H872 C878 0.930 1_554 S
H873 C882 0.930 . S
H874 C887 0.929 . S
H875 C885 0.929 . S
H876 C880 0.929 . S
H877 C886 0.929 . S
C878 H872 0.930 1_556 S
C878 C879 1.367 . S
C878 C886 1.378 . S
C879 C878 1.367 . S
C879 C887 1.433 . S
C880 H876 0.929 . S
C880 C882 1.378 . S
C880 C884 1.350 . S
C881 C884 1.463 . S
C881 C886 1.350 . S
C881 N889 1.427 . S
C882 H873 0.930 . S
C882 C880 1.378 . S
C882 C883 1.367 1_655 S
C883 C882 1.367 1_455 S
C883 C885 1.433 . S
C884 C880 1.350 . S
C884 C881 1.463 . S
C884 N888 1.427 . S
C885 H875 0.929 . S
C885 C883 1.433 . S
C885 N888 1.384 1_455 S
C886 H877 0.929 . S
C886 C878 1.378 . S
C886 C881 1.350 . S
C887 H874 0.929 . S
C887 C879 1.433 . S
C887 N889 1.384 . S
N888 C884 1.427 . S
N888 C885 1.384 1_655 S
N889 C881 1.427 . S
N889 C887 1.384 . S
H890 C896 0.930 . S
H891 C900 0.930 . S
H892 C905 0.929 . S
H893 C903 0.929 . S
H894 C898 0.929 . S
H895 C904 0.929 . S
C896 H890 0.930 . S
C896 C897 1.367 . S
C896 C904 1.378 . S
C897 C896 1.367 . S
C897 C905 1.433 . S
C898 H894 0.929 . S
C898 C900 1.378 . S
C898 C902 1.350 . S
C899 C902 1.463 . S
C899 C904 1.350 . S
C899 N907 1.427 . S
C900 H891 0.930 . S
C900 C898 1.378 . S
C900 C901 1.367 1_565 S
C901 C900 1.367 1_545 S
C901 C903 1.433 . S
C902 C898 1.350 . S
C902 C899 1.463 . S
C902 N906 1.427 1_565 S
C903 H893 0.929 . S
C903 C901 1.433 . S
C903 N906 1.384 . S
C904 H895 0.929 . S
C904 C896 1.378 . S
C904 C899 1.350 . S
C905 H892 0.929 . S
C905 C897 1.433 . S
C905 N907 1.384 . S
N906 C902 1.427 1_545 S
N906 C903 1.384 . S
N907 C899 1.427 . S
N907 C905 1.384 . S
H908 C914 0.930 . S
H909 C918 0.930 . S
H910 C923 0.929 . S
H911 C921 0.929 . S
H912 C916 0.929 . S
H913 C922 0.929 . S
C914 H908 0.930 . S
C914 C915 1.367 . S
C914 C922 1.378 . S
C915 C914 1.367 . S
C915 C923 1.433 . S
C916 H912 0.929 . S
C916 C918 1.378 . S
C916 C920 1.350 . S
C917 C920 1.463 . S
C917 C922 1.350 . S
C917 N925 1.427 . S
C918 H909 0.930 . S
C918 C916 1.378 . S
C918 C919 1.367 . S
C919 C918 1.367 . S
C919 C921 1.433 . S
C920 C916 1.350 . S
C920 C917 1.463 . S
C920 N924 1.427 . S
C921 H911 0.929 . S
C921 C919 1.433 . S
C921 N924 1.384 . S
C922 H913 0.929 . S
C922 C914 1.378 . S
C922 C917 1.350 . S
C923 H910 0.929 . S
C923 C915 1.433 . S
C923 N925 1.384 . S
N924 C920 1.427 . S
N924 C921 1.384 . S
N925 C917 1.427 . S
N925 C923 1.384 . S
H926 C932 0.930 . S
H927 C936 0.930 . S
H928 C941 0.929 . S
H929 C939 0.929 . S
H930 C934 0.929 . S
H931 C940 0.929 . S
C932 H926 0.930 . S
C932 C933 1.367 . S
C932 C940 1.378 . S
C933 C932 1.367 . S
C933 C941 1.433 . S
C934 H930 0.929 . S
C934 C936 1.378 . S
C934 C938 1.350 . S
C935 C938 1.463 . S
C935 C940 1.350 . S
C935 N943 1.427 . S
C936 H927 0.930 . S
C936 C934 1.378 . S
C936 C937 1.367 . S
C937 C936 1.367 . S
C937 C939 1.433 . S
C938 C934 1.350 . S
C938 C935 1.463 . S
C938 N942 1.427 . S
C939 H929 0.929 . S
C939 C937 1.433 . S
C939 N942 1.384 . S
C940 H931 0.929 . S
C940 C932 1.378 . S
C940 C935 1.350 . S
C941 H928 0.929 . S
C941 C933 1.433 . S
C941 N943 1.384 . S
N942 C938 1.427 . S
N942 C939 1.384 . S
N943 C935 1.427 . S
N943 C941 1.384 . S
H944 C950 0.930 . S
H945 C954 0.930 . S
H946 C959 0.929 . S
H947 C957 0.929 . S
H948 C952 0.929 . S
H949 C958 0.929 . S
C950 H944 0.930 . S
C950 C951 1.367 . S
C950 C958 1.378 . S
C951 C950 1.367 . S
C951 C959 1.433 . S
C952 H948 0.929 . S
C952 C954 1.378 . S
C952 C956 1.350 . S
C953 C956 1.463 . S
C953 C958 1.350 . S
C953 N961 1.427 . S
C954 H945 0.930 . S
C954 C952 1.378 . S
C954 C955 1.367 . S
C955 C954 1.367 . S
C955 C957 1.433 . S
C956 C952 1.350 . S
C956 C953 1.463 . S
C956 N960 1.427 . S
C957 H947 0.929 . S
C957 C955 1.433 . S
C957 N960 1.384 . S
C958 H949 0.929 . S
C958 C950 1.378 . S
C958 C953 1.350 . S
C959 H946 0.929 . S
C959 C951 1.433 . S
C959 N961 1.384 . S
N960 C956 1.427 . S
N960 C957 1.384 . S
N961 C953 1.427 . S
N961 C959 1.384 . S
H962 C968 0.930 . S
H963 C972 0.930 . S
H964 C977 0.929 . S
H965 C975 0.929 . S
H966 C970 0.929 . S
H967 C976 0.929 . S
C968 H962 0.930 . S
C968 C969 1.367 . S
C968 C976 1.378 . S
C969 C968 1.367 . S
C969 C977 1.433 . S
C970 H966 0.929 . S
C970 C972 1.378 . S
C970 C974 1.350 . S
C971 C974 1.463 . S
C971 C976 1.350 . S
C971 N979 1.427 . S
C972 H963 0.930 . S
C972 C970 1.378 . S
C972 C973 1.367 . S
C973 C972 1.367 . S
C973 C975 1.433 . S
C974 C970 1.350 . S
C974 C971 1.463 . S
C974 N978 1.427 . S
C975 H965 0.929 . S
C975 C973 1.433 . S
C975 N978 1.384 . S
C976 H967 0.929 . S
C976 C968 1.378 . S
C976 C971 1.350 . S
C977 H964 0.929 . S
C977 C969 1.433 . S
C977 N979 1.384 . S
N978 C974 1.427 . S
N978 C975 1.384 . S
N979 C971 1.427 . S
N979 C977 1.384 . S
H980 C986 0.930 . S
H981 C990 0.930 . S
H982 C995 0.929 . S
H983 C993 0.929 . S
H984 C988 0.929 . S
H985 C994 0.929 . S
C986 H980 0.930 . S
C986 C987 1.367 . S
C986 C994 1.378 . S
C987 C986 1.367 . S
C987 C995 1.433 . S
C988 H984 0.929 . S
C988 C990 1.378 . S
C988 C992 1.350 . S
C989 C992 1.463 . S
C989 C994 1.350 . S
C989 N997 1.427 . S
C990 H981 0.930 . S
C990 C988 1.378 . S
C990 C991 1.367 . S
C991 C990 1.367 . S
C991 C993 1.433 . S
C992 C988 1.350 . S
C992 C989 1.463 . S
C992 N996 1.427 . S
C993 H983 0.929 . S
C993 C991 1.433 . S
C993 N996 1.384 . S
C994 H985 0.929 . S
C994 C986 1.378 . S
C994 C989 1.350 . S
C995 H982 0.929 . S
C995 C987 1.433 . S
C995 N997 1.384 . S
N996 C992 1.427 . S
N996 C993 1.384 . S
N997 C989 1.427 . S
N997 C995 1.384 . S
H998 C1004 0.930 . S
H999 C1008 0.930 . S
H1000 C1013 0.929 . S
H1001 C1011 0.929 . S
H1002 C1006 0.929 . S
H1003 C1012 0.929 . S
C1004 H998 0.930 . S
C1004 C1005 1.367 . S
C1004 C1012 1.378 . S
C1005 C1004 1.367 . S
C1005 C1013 1.433 . S
C1006 H1002 0.929 . S
C1006 C1008 1.378 . S
C1006 C1010 1.350 . S
C1007 C1010 1.463 . S
C1007 C1012 1.350 . S
C1007 N1015 1.427 . S
C1008 H999 0.930 . S
C1008 C1006 1.378 . S
C1008 C1009 1.367 . S
C1009 C1008 1.367 . S
C1009 C1011 1.433 . S
C1010 C1006 1.350 . S
C1010 C1007 1.463 . S
C1010 N1014 1.427 . S
C1011 H1001 0.929 . S
C1011 C1009 1.433 . S
C1011 N1014 1.384 . S
C1012 H1003 0.929 . S
C1012 C1004 1.378 . S
C1012 C1007 1.350 . S
C1013 H1000 0.929 . S
C1013 C1005 1.433 . S
C1013 N1015 1.384 . S
N1014 C1010 1.427 . S
N1014 C1011 1.384 . S
N1015 C1007 1.427 . S
N1015 C1013 1.384 . S
H1016 C1022 0.930 . S
H1017 C1026 0.930 . S
H1018 C1031 0.929 . S
H1019 C1029 0.929 . S
H1020 C1024 0.929 . S
H1021 C1030 0.929 . S
C1022 H1016 0.930 . S
C1022 C1023 1.367 . S
C1022 C1030 1.378 . S
C1023 C1022 1.367 . S
C1023 C1031 1.433 . S
C1024 H1020 0.929 . S
C1024 C1026 1.378 . S
C1024 C1028 1.350 . S
C1025 C1028 1.463 . S
C1025 C1030 1.350 . S
C1025 N1033 1.427 . S
C1026 H1017 0.930 . S
C1026 C1024 1.378 . S
C1026 C1027 1.367 . S
C1027 C1026 1.367 . S
C1027 C1029 1.433 . S
C1028 C1024 1.350 . S
C1028 C1025 1.463 . S
C1028 N1032 1.427 . S
C1029 H1019 0.929 . S
C1029 C1027 1.433 . S
C1029 N1032 1.384 . S
C1030 H1021 0.929 . S
C1030 C1022 1.378 . S
C1030 C1025 1.350 . S
C1031 H1018 0.929 . S
C1031 C1023 1.433 . S
C1031 N1033 1.384 . S
N1032 C1028 1.427 . S
N1032 C1029 1.384 . S
N1033 C1025 1.427 . S
N1033 C1031 1.384 . S
H1034 C1040 0.930 . S
H1035 C1044 0.930 1_545 S
H1036 C1049 0.929 . S
H1037 C1047 0.929 . S
H1038 C1042 0.929 . S
H1039 C1048 0.929 . S
C1040 H1034 0.930 . S
C1040 C1041 1.367 . S
C1040 C1048 1.378 . S
C1041 C1040 1.367 . S
C1041 C1049 1.433 . S
C1042 H1038 0.929 . S
C1042 C1044 1.378 . S
C1042 C1046 1.350 . S
C1043 C1046 1.463 . S
C1043 C1048 1.350 . S
C1043 N1051 1.427 . S
C1044 H1035 0.930 1_565 S
C1044 C1042 1.378 . S
C1044 C1045 1.367 . S
C1045 C1044 1.367 . S
C1045 C1047 1.433 . S
C1046 C1042 1.350 . S
C1046 C1043 1.463 . S
C1046 N1050 1.427 . S
C1047 H1037 0.929 . S
C1047 C1045 1.433 . S
C1047 N1050 1.384 . S
C1048 H1039 0.929 . S
C1048 C1040 1.378 . S
C1048 C1043 1.350 . S
C1049 H1036 0.929 . S
C1049 C1041 1.433 . S
C1049 N1051 1.384 . S
N1050 C1046 1.427 . S
N1050 C1047 1.384 . S
N1051 C1043 1.427 . S
N1051 C1049 1.384 . S
H1052 C1058 0.930 . S
H1053 C1062 0.930 . S
H1054 C1067 0.929 . S
H1055 C1065 0.929 . S
H1056 C1060 0.929 . S
H1057 C1066 0.929 . S
C1058 H1052 0.930 . S
C1058 C1059 1.367 . S
C1058 C1066 1.378 . S
C1059 C1058 1.367 . S
C1059 C1067 1.433 . S
C1060 H1056 0.929 . S
C1060 C1062 1.378 . S
C1060 C1064 1.350 . S
C1061 C1064 1.463 . S
C1061 C1066 1.350 . S
C1061 N1069 1.427 . S
C1062 H1053 0.930 . S
C1062 C1060 1.378 . S
C1062 C1063 1.367 . S
C1063 C1062 1.367 . S
C1063 C1065 1.433 . S
C1064 C1060 1.350 . S
C1064 C1061 1.463 . S
C1064 N1068 1.427 . S
C1065 H1055 0.929 . S
C1065 C1063 1.433 . S
C1065 N1068 1.384 . S
C1066 H1057 0.929 . S
C1066 C1058 1.378 . S
C1066 C1061 1.350 . S
C1067 H1054 0.929 . S
C1067 C1059 1.433 . S
C1067 N1069 1.384 . S
N1068 C1064 1.427 . S
N1068 C1065 1.384 . S
N1069 C1061 1.427 . S
N1069 C1067 1.384 . S
H1070 C1076 0.930 . S
H1071 C1080 0.930 . S
H1072 C1085 0.929 . S
H1073 C1083 0.929 . S
H1074 C1078 0.929 . S
H1075 C1084 0.929 . S
C1076 H1070 0.930 . S
C1076 C1077 1.367 . S
C1076 C1084 1.378 . S
C1077 C1076 1.367 . S
C1077 C1085 1.433 . S
C1078 H1074 0.929 . S
C1078 C1080 1.378 . S
C1078 C1082 1.350 . S
C1079 C1082 1.463 . S
C1079 C1084 1.350 . S
C1079 N1087 1.427 . S
C1080 H1071 0.930 . S
C1080 C1078 1.378 . S
C1080 C1081 1.367 . S
C1081 C1080 1.367 . S
C1081 C1083 1.433 . S
C1082 C1078 1.350 . S
C1082 C1079 1.463 . S
C1082 N1086 1.427 . S
C1083 H1073 0.929 . S
C1083 C1081 1.433 . S
C1083 N1086 1.384 . S
C1084 H1075 0.929 . S
C1084 C1076 1.378 . S
C1084 C1079 1.350 . S
C1085 H1072 0.929 . S
C1085 C1077 1.433 . S
C1085 N1087 1.384 . S
N1086 C1082 1.427 . S
N1086 C1083 1.384 . S
N1087 C1079 1.427 . S
N1087 C1085 1.384 . S
C663 C255 2.381 . S
C667 C394 2.466 . S
C685 C478 2.490 . S
C681 C295 2.402 . S
C703 C544 2.394 . S
C699 C175 2.527 . S
C721 C628 2.367 . S
C717 C215 2.505 . S
C739 C383 2.470 1_565 S
C735 C95 2.382 . S
C753 C135 2.392 . S
C757 C467 2.495 . S
C771 C15 2.511 . S
C775 C555 2.384 . S
C789 C55 2.496 . S
C793 C639 2.368 . S
C811 C390 0.709 1_455 S
C807 C221 0.735 . S
C829 C474 0.636 1_545 S
C825 C261 0.666 . S
C847 C546 0.637 . S
C843 C301 0.621 . S
C861 C181 0.711 . S
C865 C630 0.677 . S
C879 C61 0.712 . S
C883 C378 0.720 . S
C901 C462 0.651 . S
C897 C101 0.666 . S
C919 C558 0.635 . S
C915 C141 0.662 . S
C933 C21 0.696 . S
C937 C642 0.689 . S
C951 C202 3.111 . S
C955 C387 3.170 . S
C969 C242 3.072 . S
C973 C471 3.132 . S
C991 C551 3.215 . S
C987 C282 2.951 . S
C1009 C635 3.259 . S
C1005 C162 2.995 . S
C1023 C42 3.042 . S
C1027 C376 3.180 . S
C1045 C460 3.129 . S
C1041 C82 3.002 . S
C1063 C562 3.219 . S
C1059 C122 2.878 . S
C1077 C2 2.914 . S
C1081 C646 3.256 . S
