# Generated by pormake.
# Topology zzz, (3,6)-cn, num edge types: 1
# Building blocks:
#     Node 0, Type 0, BuildingBlock: OLANEW_clean_sbu_2, # of connection points: 3
#     Node 1, Type 0, BuildingBlock: OLANEW_clean_sbu_2, # of connection points: 3
#     Node 2, Type 0, BuildingBlock: OLANEW_clean_sbu_2, # of connection points: 3
#     Node 3, Type 0, BuildingBlock: OLANEW_clean_sbu_2, # of connection points: 3
#     Node 4, Type 0, BuildingBlock: OLANEW_clean_sbu_2, # of connection points: 3
#     Node 5, Type 0, BuildingBlock: OLANEW_clean_sbu_2, # of connection points: 3
#     Node 6, Type 0, BuildingBlock: OLANEW_clean_sbu_2, # of connection points: 3
#     Node 7, Type 0, BuildingBlock: OLANEW_clean_sbu_2, # of connection points: 3
#     Node 8, Type 1, BuildingBlock: NUHQIS_clean_sbu_0, # of connection points: 6
#     Node 9, Type 1, BuildingBlock: NUHQIS_clean_sbu_0, # of connection points: 6
#     Node 10, Type 1, BuildingBlock: NUHQIS_clean_sbu_0, # of connection points: 6
#     Node 11, Type 1, BuildingBlock: NUHQIS_clean_sbu_0, # of connection points: 6
#     Edge 12, Type (0, 1), BuildingBlock: TEMPAE_clean_linker_10, # of connection points: 2
#     Edge 13, Type (0, 1), BuildingBlock: TEMPAE_clean_linker_10, # of connection points: 2
#     Edge 14, Type (0, 1), BuildingBlock: TEMPAE_clean_linker_10, # of connection points: 2
#     Edge 15, Type (0, 1), BuildingBlock: TEMPAE_clean_linker_10, # of connection points: 2
#     Edge 16, Type (0, 1), BuildingBlock: TEMPAE_clean_linker_10, # of connection points: 2
#     Edge 17, Type (0, 1), BuildingBlock: TEMPAE_clean_linker_10, # of connection points: 2
#     Edge 18, Type (0, 1), BuildingBlock: TEMPAE_clean_linker_10, # of connection points: 2
#     Edge 19, Type (0, 1), BuildingBlock: TEMPAE_clean_linker_10, # of connection points: 2
#     Edge 20, Type (0, 1), BuildingBlock: TEMPAE_clean_linker_10, # of connection points: 2
#     Edge 21, Type (0, 1), BuildingBlock: TEMPAE_clean_linker_10, # of connection points: 2
#     Edge 22, Type (0, 1), BuildingBlock: TEMPAE_clean_linker_10, # of connection points: 2
#     Edge 23, Type (0, 1), BuildingBlock: TEMPAE_clean_linker_10, # of connection points: 2
#     Edge 24, Type (0, 1), BuildingBlock: TEMPAE_clean_linker_10, # of connection points: 2
#     Edge 25, Type (0, 1), BuildingBlock: TEMPAE_clean_linker_10, # of connection points: 2
#     Edge 26, Type (0, 1), BuildingBlock: TEMPAE_clean_linker_10, # of connection points: 2
#     Edge 27, Type (0, 1), BuildingBlock: TEMPAE_clean_linker_10, # of connection points: 2
#     Edge 28, Type (0, 1), BuildingBlock: TEMPAE_clean_linker_10, # of connection points: 2
#     Edge 29, Type (0, 1), BuildingBlock: TEMPAE_clean_linker_10, # of connection points: 2
#     Edge 30, Type (0, 1), BuildingBlock: TEMPAE_clean_linker_10, # of connection points: 2
#     Edge 31, Type (0, 1), BuildingBlock: TEMPAE_clean_linker_10, # of connection points: 2
#     Edge 32, Type (0, 1), BuildingBlock: TEMPAE_clean_linker_10, # of connection points: 2
#     Edge 33, Type (0, 1), BuildingBlock: TEMPAE_clean_linker_10, # of connection points: 2
#     Edge 34, Type (0, 1), BuildingBlock: TEMPAE_clean_linker_10, # of connection points: 2
#     Edge 35, Type (0, 1), BuildingBlock: TEMPAE_clean_linker_10, # of connection points: 2
# Relax obj value: 0.225
# Max RMSD: 0.157
# Mean RMSD: 0.147
data_MOF--net-zzz--node1-OLANEW_clean_sbu_2--node2-NUHQIS_clean_sbu_0--edge1-TEMPAE_clean_linker_10
_symmetry_space_group_name_H-M    P1
_symmetry_Int_Tables_number       1
_symmetry_cell_setting            triclinic
loop_
_symmetry_equiv_pos_as_xyz
'x, y, z'
_cell_length_a     56.573628
_cell_length_b     56.581919
_cell_length_c     16.003785
_cell_angle_alpha  90.065376
_cell_angle_beta   90.250575
_cell_angle_gamma 90.028026
loop_
_atom_site_label
_atom_site_type_symbol
_atom_site_fract_x
_atom_site_fract_y
_atom_site_fract_z
_atom_type_partial_charge
O0 O 0.73355 0.51221 0.24993 0.0
Cd1 Cd 0.69533 0.5168 0.31833 0.0
O2 O 0.74065 0.48601 0.34726 0.0
Cd3 Cd 0.76557 0.46536 0.42073 0.0
O4 O 0.80088 0.46716 0.47326 0.0
C5 C 0.80951 0.48789 0.47373 0.0
O6 O 0.79667 0.50537 0.44425 0.0
C7 C 0.74759 0.49751 0.28365 0.0
C8 C 0.65745 0.5123 0.2082 0.0
O9 O 0.66674 0.53253 0.22336 0.0
O10 O 0.66621 0.49417 0.24499 0.0
O11 O 0.95931 0.75243 0.30237 0.0
Cd12 Cd 0.94727 0.71471 0.36205 0.0
O13 O 0.9959 0.74392 0.33723 0.0
Cd14 Cd 0.03115 0.75713 0.3674 0.0
O15 O 0.03634 0.79135 0.42644 0.0
C16 C 0.01806 0.79758 0.46669 0.0
O17 O 1.0004 0.7826 0.47283 0.0
C18 C 0.98099 0.75822 0.30555 0.0
C19 C 0.96092 0.67719 0.26104 0.0
O20 O 0.94041 0.68657 0.25336 0.0
O21 O 0.97494 0.68554 0.31688 0.0
O22 O 0.74824 0.94243 0.16403 0.0
Cd23 Cd 0.78412 0.92356 0.21656 0.0
O24 O 0.75136 0.9639 0.27731 0.0
Cd25 Cd 0.73844 0.99055 0.36372 0.0
O26 O 0.70974 0.00224 0.4426 0.0
C27 C 0.70129 0.98631 0.48966 0.0
O28 O 0.71169 0.96556 0.4917 0.0
C29 C 0.73995 0.95834 0.21152 0.0
C30 C 0.82449 0.94075 0.13943 0.0
O31 O 0.81436 0.92184 0.11335 0.0
O32 O 0.81548 0.95155 0.20211 0.0
O33 O 0.53602 0.75781 0.19542 0.0
Cd34 Cd 0.55205 0.79383 0.25827 0.0
O35 O 0.51043 0.75974 0.29702 0.0
Cd36 Cd 0.48187 0.74762 0.37758 0.0
O37 O 0.47323 0.71861 0.46054 0.0
C38 C 0.49073 0.71138 0.5034 0.0
O39 O 0.51054 0.72351 0.50097 0.0
C40 C 0.51877 0.74868 0.23432 0.0
C41 C 0.53859 0.83474 0.17471 0.0
O42 O 0.55805 0.82425 0.15744 0.0
O43 O 0.52539 0.82576 0.23132 0.0
O44 O 0.2627 0.54236 0.05879 0.0
Cd45 Cd 0.30125 0.53494 0.99675 0.0
O46 O 0.25609 0.5049 0.03638 0.0
Cd47 Cd 0.23904 0.47016 0.03176 0.0
O48 O 0.23271 0.43035 0.02088 0.0
C49 C 0.21501 0.42019 0.98573 0.0
O50 O 0.23332 0.42977 0.02212 0.0
C51 C 0.24919 0.52456 0.06642 0.0
C52 C 0.33286 0.52376 0.12469 0.0
O53 O 0.33166 0.54482 0.0955 0.0
O54 O 0.3195 0.50792 0.09212 0.0
O55 O 0.00867 0.2714 0.15694 0.0
Cd56 Cd 0.01732 0.31054 0.10131 0.0
O57 O 0.02114 0.25884 0.03633 0.0
Cd58 Cd 0.03398 0.23668 0.93466 0.0
O59 O 0.05453 0.23943 0.81226 0.0
C60 C 0.05785 0.22319 0.75779 0.0
O61 O 0.05491 0.24025 0.81152 0.0
C62 C 0.01322 0.2542 0.10868 0.0
C63 C 0.02013 0.34414 0.22771 0.0
O64 O 1.00082 0.3408 0.18718 0.0
O65 O 0.03813 0.33158 0.20822 0.0
O66 O 0.22227 0.947 0.1109 0.0
Cd67 Cd 0.18307 0.95147 0.04914 0.0
O68 O 0.22586 0.98491 0.08589 0.0
Cd69 Cd 0.24635 0.01746 0.09224 0.0
O70 O 0.27935 0.03609 0.07228 0.0
C71 C 0.28296 0.04565 0.00176 0.0
O72 O 0.26564 0.04611 0.9468 0.0
C73 C 0.23462 0.96573 0.11343 0.0
C74 C 0.15209 0.96812 0.16987 0.0
O75 O 0.15316 0.94604 0.15232 0.0
O76 O 0.16539 0.98236 0.12927 0.0
O77 O 0.55234 0.23087 0.10185 0.0
Cd78 Cd 0.55155 0.19149 0.04006 0.0
O79 O 0.51375 0.22856 0.09338 0.0
Cd80 Cd 0.47927 0.24575 0.09018 0.0
O81 O 0.46487 0.27818 0.03825 0.0
C82 C 0.48061 0.28955 0.99864 0.0
O83 O 0.50187 0.28041 0.99269 0.0
C84 C 0.53219 0.24013 0.11385 0.0
C85 C 0.53479 0.15968 0.15794 0.0
O86 O 0.55703 0.16215 0.14564 0.0
O87 O 0.52048 0.17191 0.11328 0.0
Tb88 Tb 0.02236 0.99793 0.81425 0.0
Eu89 Eu 0.98948 0.01901 0.65915 0.0
C90 C 0.04448 0.01269 0.64085 0.0
C91 C 0.0155 0.05201 0.79169 0.0
C92 C 0.03805 0.95958 0.98822 0.0
C93 C 0.04901 0.9273 0.08065 0.0
C94 C 0.05501 0.94796 0.03732 0.0
C95 C 0.01491 0.95073 0.98475 0.0
C96 C 0.00887 0.93026 0.02821 0.0
C97 C 0.02595 0.91795 0.07517 0.0
C98 C 0.04471 0.97957 0.9346 0.0
O99 O 0.98682 0.00359 0.86286 0.0
O100 O 0.96439 1.00015 0.74351 0.0
O101 O 0.99848 0.98132 0.62833 0.0
O102 O 0.00374 0.96781 0.76194 0.0
C103 C 0.96655 0.99936 0.82508 0.0
O104 O 0.96168 0.04252 0.61342 0.0
O105 O 0.98077 0.02041 0.52648 0.0
O106 O 0.0271 0.02766 0.62964 0.0
O107 O 0.04427 0.99729 0.70242 0.0
O108 O 0.03107 0.03524 0.80528 0.0
O109 O 0.99521 0.04749 0.75509 0.0
C110 C 1.00073 0.96388 0.68178 0.0
O111 O 0.04813 0.97403 0.85658 0.0
O112 O 0.03173 0.99851 0.94159 0.0
C113 C 0.97037 0.05838 0.48125 0.0
C114 C 0.97931 0.09743 0.37684 0.0
C115 C 0.95821 0.08442 0.36854 0.0
C116 C 0.95382 0.06499 0.42032 0.0
C117 C 0.99142 0.07129 0.48988 0.0
C118 C 0.99586 0.09063 0.43813 0.0
C119 C 0.96595 0.03787 0.53507 0.0
H120 H 0.06263 0.91819 0.11572 0.0
H121 H 0.07302 0.95444 0.04012 0.0
H122 H 0.00163 0.95933 0.94647 0.0
H123 H 0.99086 0.92385 0.02379 0.0
H124 H 0.94521 0.08913 0.32157 0.0
H125 H 0.93753 0.05513 0.41271 0.0
H126 H 0.00438 0.06642 0.53683 0.0
H127 H 0.01208 0.10051 0.44707 0.0
Tb128 Tb 0.5009 0.03205 0.8059 0.0
Eu129 Eu 0.47813 0.99801 0.6567 0.0
C130 C 0.4879 0.05205 0.62716 0.0
C131 C 0.44639 0.02803 0.78494 0.0
C132 C 0.54196 0.04854 0.97259 0.0
C133 C 0.58398 0.05226 0.00303 0.0
C134 C 0.56342 0.06078 0.96473 0.0
C135 C 0.54116 0.02831 0.0235 0.0
C136 C 0.56168 0.01987 0.06227 0.0
C137 C 0.58348 0.03136 0.05058 0.0
C138 C 0.52165 0.05521 0.919 0.0
O139 O 0.49213 0.99831 0.86403 0.0
O140 O 0.49425 0.97353 0.75064 0.0
O141 O 0.51698 0.00249 0.6297 0.0
O142 O 0.52924 0.00939 0.76408 0.0
C143 C 0.49451 0.97707 0.83162 0.0
O144 O 0.45708 0.96758 0.61857 0.0
O145 O 0.47328 0.9897 0.52427 0.0
O146 O 0.47195 0.03545 0.61806 0.0
O147 O 0.50327 0.05162 0.68897 0.0
O148 O 0.46413 0.04262 0.79722 0.0
O149 O 0.44916 0.0077 0.74634 0.0
C150 C 0.53385 0.00412 0.68611 0.0
O151 O 0.52651 0.05718 0.83983 0.0
O152 O 0.5018 0.04393 0.93057 0.0
C153 C 0.43646 0.97242 0.49095 0.0
C154 C 0.39398 0.9718 0.39767 0.0
C155 C 0.41514 0.96329 0.36282 0.0
C156 C 0.43616 0.96357 0.40914 0.0
C157 C 0.41552 0.98126 0.52573 0.0
C158 C 0.39446 0.98086 0.47968 0.0
C159 C 0.4587 0.97235 0.53901 0.0
H160 H 0.60046 0.06145 0.99194 0.0
H161 H 0.56454 0.07634 0.92552 0.0
H162 H 0.52491 0.01846 0.03106 0.0
H163 H 0.56054 0.00399 0.09977 0.0
H164 H 0.41551 0.95655 0.29948 0.0
H165 H 0.4522 0.95685 0.38107 0.0
H166 H 0.41539 0.9883 0.58872 0.0
H167 H 0.37848 0.98728 0.50897 0.0
Tb168 Tb 0.46449 0.50587 0.78412 0.0
Eu169 Eu 0.49864 0.48537 0.63159 0.0
C170 C 0.444 0.49244 0.60525 0.0
C171 C 0.46905 0.45139 0.75711 0.0
C172 C 0.44927 0.54672 0.95022 0.0
C173 C 0.4399 0.57946 0.04264 0.0
C174 C 0.43307 0.55877 0.00066 0.0
C175 C 0.47248 0.55522 0.94378 0.0
C176 C 0.47922 0.57596 0.9846 0.0
C177 C 0.46299 0.58854 0.03398 0.0
C178 C 0.44184 0.52652 0.89847 0.0
O179 O 0.4978 0.49526 0.84158 0.0
O180 O 0.52292 0.49963 0.73068 0.0
O181 O 0.49218 0.52411 0.60777 0.0
O182 O 0.48783 0.53396 0.74489 0.0
C183 C 0.51918 0.49798 0.81128 0.0
O184 O 0.52959 0.4653 0.59216 0.0
O185 O 0.50737 0.48237 0.4994 0.0
O186 O 0.46142 0.47756 0.59432 0.0
O187 O 0.44391 0.50745 0.66818 0.0
O188 O 0.45506 0.46879 0.77962 0.0
O189 O 0.48814 0.45448 0.7117 0.0
C190 C 0.49119 0.5401 0.66709 0.0
O191 O 0.43942 0.53131 0.81934 0.0
O192 O 0.45364 0.50699 0.9097 0.0
C193 C 0.52472 0.44559 0.46373 0.0
C194 C 0.5254 0.40194 0.37852 0.0
C195 C 0.5466 0.41274 0.40432 0.0
C196 C 0.54624 0.4344 0.44634 0.0
C197 C 0.50348 0.43495 0.43757 0.0
C198 C 0.50384 0.41338 0.39482 0.0
C199 C 0.52473 0.46762 0.51284 0.0
H200 H 0.42703 0.58845 0.08117 0.0
H201 H 0.41507 0.55246 0.00631 0.0
H202 H 0.48527 0.54617 0.90512 0.0
H203 H 0.49699 0.58251 0.97503 0.0
H204 H 0.56347 0.40442 0.39193 0.0
H205 H 0.56279 0.44229 0.4663 0.0
H206 H 0.48661 0.44312 0.4512 0.0
H207 H 0.48723 0.40534 0.37641 0.0
Tb208 Tb 0.00327 0.48895 0.84706 0.0
Eu209 Eu 0.02732 0.52455 0.70632 0.0
C210 C 0.02331 0.46942 0.67453 0.0
C211 C 0.05869 0.49327 0.83479 0.0
C212 C 0.95843 0.46748 0.99635 0.0
C213 C 0.91804 0.45472 0.02113 0.0
C214 C 0.94028 0.45082 0.98621 0.0
C215 C 0.95416 0.48788 0.04439 0.0
C216 C 0.93194 0.49165 0.08027 0.0
C217 C 0.91355 0.47529 0.06769 0.0
C218 C 0.98085 0.46405 0.95084 0.0
O219 O 0.01089 0.52213 0.91026 0.0
O220 O 0.00866 0.54753 0.79928 0.0
O221 O 0.99064 0.51504 0.66361 0.0
O222 O 0.97511 0.5101 0.79342 0.0
C223 C 0.00772 0.54343 0.87979 0.0
O224 O 0.05018 0.55424 0.67461 0.0
O225 O 0.02983 0.53678 0.57754 0.0
O226 O 0.03681 0.48805 0.66522 0.0
O227 O 0.00688 0.46832 0.73242 0.0
O228 O 0.04046 0.47969 0.85184 0.0
O229 O 0.05671 0.51314 0.79263 0.0
C230 C 0.97232 0.51315 0.71289 0.0
O231 O 0.97865 0.46202 0.87014 0.0
O232 O 0.99869 0.47754 0.97113 0.0
C233 C 0.06745 0.55053 0.5414 0.0
C234 C 0.10639 0.54575 0.43382 0.0
C235 C 0.08787 0.56139 0.41415 0.0
C236 C 0.06856 0.56377 0.46765 0.0
C237 C 0.08589 0.53495 0.56154 0.0
C238 C 0.10528 0.53266 0.50836 0.0
C239 C 0.04642 0.55206 0.59442 0.0
H240 H 0.90425 0.4417 0.01124 0.0
H241 H 0.94313 0.43501 0.94934 0.0
H242 H 0.96775 0.50117 0.05269 0.0
H243 H 0.92891 0.50771 0.11549 0.0
H244 H 0.08836 0.57184 0.35751 0.0
H245 H 0.05437 0.57575 0.45101 0.0
H246 H 0.08514 0.52432 0.61777 0.0
H247 H 0.11915 0.52027 0.5246 0.0
C248 C 0.11703 0.96335 0.26238 0.0
C249 C 0.13648 0.97682 0.23685 0.0
C250 C 0.10252 0.97103 0.32784 0.0
C251 C 0.10796 0.99241 0.36989 0.0
C252 C 0.12752 0.00614 0.34407 0.0
C253 C 0.14142 0.99829 0.27716 0.0
C254 C 0.08147 0.95615 0.35235 0.0
C255 C 0.13404 0.02883 0.38825 0.0
C256 C 0.05843 0.02 0.49545 0.0
C257 C 0.06265 0.01054 0.57517 0.0
C258 C 0.07342 0.01479 0.42838 0.0
C259 C 0.09332 1.00011 0.44175 0.0
C260 C 0.09843 0.99164 0.52306 0.0
C261 C 0.08291 0.9968 0.58874 0.0
C262 C 0.06722 0.02393 0.34239 0.0
C263 C 0.11977 0.97633 0.54001 0.0
H264 H 0.11307 0.94684 0.23085 0.0
H265 H 0.15655 0.00867 0.25785 0.0
H266 H 0.08377 0.94965 0.41724 0.0
H267 H 0.06514 0.967 0.35097 0.0
H268 H 0.07895 0.94069 0.31039 0.0
H269 H 0.14962 0.0376 0.35974 0.0
H270 H 0.11893 0.04131 0.38679 0.0
H271 H 0.13806 0.02514 0.45489 0.0
H272 H 0.04273 0.03053 0.48421 0.0
H273 H 0.08633 0.98953 0.65027 0.0
H274 H 0.06248 0.00887 0.30109 0.0
H275 H 0.08266 0.03292 0.31408 0.0
H276 H 0.05213 0.03649 0.34361 0.0
H277 H 0.11758 0.95905 0.50809 0.0
H278 H 0.12247 0.97307 0.60782 0.0
H279 H 0.13592 0.98473 0.51449 0.0
C280 C 0.50366 0.14758 0.25932 0.0
C281 C 0.52594 0.14375 0.22372 0.0
C282 C 0.49561 0.13347 0.3254 0.0
C283 C 0.50998 0.11478 0.35506 0.0
C284 C 0.53221 0.11043 0.31765 0.0
C285 C 0.54005 0.12517 0.25306 0.0
C286 C 0.47201 0.13888 0.36472 0.0
C287 C 0.54779 0.0903 0.34627 0.0
C288 C 0.50367 0.09044 0.57452 0.0
C289 C 0.49087 0.06963 0.55989 0.0
C290 C 0.50915 0.10585 0.50876 0.0
C291 C 0.50208 0.1 0.4263 0.0
C292 C 0.48855 0.07936 0.41153 0.0
C293 C 0.4829 0.06453 0.47872 0.0
C294 C 0.52317 0.12798 0.52714 0.0
C295 C 0.48105 0.07232 0.32429 0.0
H296 H 0.49279 0.16206 0.23711 0.0
H297 H 0.5572 0.12207 0.22519 0.0
H298 H 0.46038 0.12312 0.36171 0.0
H299 H 0.47454 0.14329 0.43175 0.0
H300 H 0.46286 0.15388 0.33366 0.0
H301 H 0.564 0.08857 0.30779 0.0
H302 H 0.55314 0.09308 0.41232 0.0
H303 H 0.53787 0.07339 0.34333 0.0
H304 H 0.50978 0.09449 0.63724 0.0
H305 H 0.47319 0.04834 0.46684 0.0
H306 H 0.51426 0.14361 0.49945 0.0
H307 H 0.5409 0.12663 0.49819 0.0
H308 H 0.5255 0.13102 0.59527 0.0
H309 H 0.4715 0.08705 0.29343 0.0
H310 H 0.46948 0.05644 0.32398 0.0
H311 H 0.49693 0.06848 0.28616 0.0
C312 C 0.36775 0.53298 0.21539 0.0
C313 C 0.34877 0.51805 0.19536 0.0
C314 C 0.38273 0.52795 0.28318 0.0
C315 C 0.37831 0.50778 0.33309 0.0
C316 C 0.35909 0.49272 0.31341 0.0
C317 C 0.34468 0.49791 0.24423 0.0
C318 C 0.40336 0.54417 0.30112 0.0
C319 C 0.35365 0.47123 0.3658 0.0
C320 C 0.42959 0.48379 0.46069 0.0
C321 C 0.42579 0.4944 0.53885 0.0
C322 C 0.41408 0.48771 0.39358 0.0
C323 C 0.39406 0.5023 0.40514 0.0
C324 C 0.38958 0.5123 0.4847 0.0
C325 C 0.40561 0.50837 0.55051 0.0
C326 C 0.41963 0.47695 0.30947 0.0
C327 C 0.36817 0.52762 0.49971 0.0
H328 H 0.37104 0.5485 0.17751 0.0
H329 H 0.32991 0.48642 0.22933 0.0
H330 H 0.40159 0.55192 0.36448 0.0
H331 H 0.42011 0.53398 0.30026 0.0
H332 H 0.40469 0.55878 0.25506 0.0
H333 H 0.33777 0.46158 0.34308 0.0
H334 H 0.36892 0.45893 0.3654 0.0
H335 H 0.35072 0.47658 0.43167 0.0
H336 H 0.4452 0.47307 0.45075 0.0
H337 H 0.40251 0.51657 0.61073 0.0
H338 H 0.42277 0.4912 0.26322 0.0
H339 H 0.40439 0.46641 0.28655 0.0
H340 H 0.43547 0.46537 0.31161 0.0
H341 H 0.36946 0.54395 0.46173 0.0
H342 H 0.36635 0.53271 0.56644 0.0
H343 H 0.35188 0.51821 0.47968 0.0
C344 C 0.04061 0.36189 0.35151 0.0
C345 C 0.02158 0.36199 0.29504 0.0
C346 C 0.04208 0.37863 0.41609 0.0
C347 C 0.02427 0.39606 0.42339 0.0
C348 C 0.00512 0.39636 0.36617 0.0
C349 C 0.00391 0.37919 0.30305 0.0
C350 C 0.06259 0.37762 0.47668 0.0
C351 C 0.98597 0.4149 0.3713 0.0
C352 C 0.01395 0.42824 0.62808 0.0
C353 C 0.02529 0.44987 0.61352 0.0
C354 C 0.01412 0.41025 0.56769 0.0
C355 C 0.02564 0.41414 0.4906 0.0
C356 C 0.0376 0.43572 0.4763 0.0
C357 C 0.03742 0.45327 0.53818 0.0
C358 C 0.00148 0.3873 0.58559 0.0
C359 C 0.0499 0.44059 0.3945 0.0
H360 H 0.05426 0.34855 0.34584 0.0
H361 H 0.98923 0.37942 0.25931 0.0
H362 H 0.07277 0.39436 0.47423 0.0
H363 H 0.05593 0.3757 0.54143 0.0
H364 H 0.07476 0.3627 0.46317 0.0
H365 H 0.97246 0.41286 0.32122 0.0
H366 H 0.97702 0.41387 0.43272 0.0
H367 H 0.99388 0.43279 0.36641 0.0
H368 H 0.00467 0.42542 0.68636 0.0
H369 H 0.04616 0.46998 0.52623 0.0
H370 H 0.01353 0.37213 0.57516 0.0
H371 H 0.98632 0.3852 0.54199 0.0
H372 H 0.99475 0.38647 0.65063 0.0
H373 H 0.06292 0.42647 0.38096 0.0
H374 H 0.0592 0.45789 0.3946 0.0
H375 H 0.03676 0.44054 0.34281 0.0
C376 C 0.85896 0.93528 0.04457 0.0
C377 C 0.84589 0.9499 0.09793 0.0
C378 C 0.87911 0.94378 0.00369 0.0
C379 C 0.88607 0.96759 0.01531 0.0
C380 C 0.87304 0.98242 0.06946 0.0
C381 C 0.85318 0.97332 0.11074 0.0
C382 C 0.89283 0.92733 0.94754 0.0
C383 C 0.87978 0.00799 0.08245 0.0
C384 C 0.94887 0.9843 0.95753 0.0
C385 C 0.94583 0.99273 0.8758 0.0
C386 C 0.92955 0.97622 0.0041 0.0
C387 C 0.90661 0.9771 0.96867 0.0
C388 C 0.90333 0.98633 0.88726 0.0
C389 C 0.92302 0.99383 0.84147 0.0
C390 C 0.93378 0.96612 0.09019 0.0
C391 C 0.87906 0.98791 0.84796 0.0
H392 H 0.8535 0.9171 0.03503 0.0
H393 H 0.84309 0.98471 0.15176 0.0
H394 H 0.8923 0.93394 0.88233 0.0
H395 H 0.91166 0.92684 0.96715 0.0
H396 H 0.88573 0.90902 0.94836 0.0
H397 H 0.86801 0.01706 0.12766 0.0
H398 H 0.89825 0.00926 0.10558 0.0
H399 H 0.87895 0.01754 0.02199 0.0
H400 H 0.96646 0.98338 0.98443 0.0
H401 H 0.92054 1.0005 0.77857 0.0
H402 H 0.92798 0.94739 0.09182 0.0
H403 H 0.92315 0.97585 0.13701 0.0
H404 H 0.95269 0.96696 0.10902 0.0
H405 H 0.8716 0.96991 0.83984 0.0
H406 H 0.87939 0.99675 0.78603 0.0
H407 H 0.86694 0.99781 0.88955 0.0
C408 C 0.54775 0.86825 0.07866 0.0
C409 C 0.53155 0.85655 0.13021 0.0
C410 C 0.54123 0.88865 0.03455 0.0
C411 C 0.51788 0.89737 0.04142 0.0
C412 C 0.50153 0.88586 0.09426 0.0
C413 C 0.5086 0.86562 0.13841 0.0
C414 C 0.55925 0.90064 0.97955 0.0
C415 C 0.47644 0.8946 0.10268 0.0
C416 C 0.50674 0.96037 0.9698 0.0
C417 C 0.49886 0.95676 0.88755 0.0
C418 C 0.51268 0.94119 0.02129 0.0
C419 C 0.51034 0.91789 0.99001 0.0
C420 C 0.50168 0.91413 0.90795 0.0
C421 C 0.49619 0.93362 0.85753 0.0
C422 C 0.52212 0.94589 0.10815 0.0
C423 C 0.4987 0.88953 0.87271 0.0
H424 H 0.56557 0.86145 0.07259 0.0
H425 H 0.496 0.85666 0.17819 0.0
H426 H 0.55336 0.89987 0.91339 0.0
H427 H 0.56086 0.91958 0.99675 0.0
H428 H 0.57698 0.89232 0.98438 0.0
H429 H 0.46616 0.88418 0.14877 0.0
H430 H 0.47636 0.91342 0.12217 0.0
H431 H 0.46733 0.89357 0.04123 0.0
H432 H 0.50895 0.9782 0.99325 0.0
H433 H 0.48994 0.93071 0.79422 0.0
H434 H 0.54049 0.93919 0.11342 0.0
H435 H 0.51138 0.9363 0.15502 0.0
H436 H 0.52209 0.96501 0.12401 0.0
H437 H 0.51617 0.8807 0.86892 0.0
H438 H 0.49058 0.88962 0.80938 0.0
H439 H 0.48748 0.87874 0.91467 0.0
C440 C 0.62803 0.48759 0.13019 0.0
C441 C 0.63714 0.50996 0.15021 0.0
C442 C 0.60877 0.48513 0.07531 0.0
C443 C 0.59834 0.50556 0.03994 0.0
C444 C 0.60737 0.52819 0.06014 0.0
C445 C 0.62671 0.53012 0.1149 0.0
C446 C 0.59963 0.4607 0.055 0.0
C447 C 0.5966 0.55037 0.02393 0.0
C448 C 0.56269 0.49949 0.83964 0.0
C449 C 0.53944 0.49959 0.86981 0.0
C450 C 0.58203 0.50124 0.89443 0.0
C451 C 0.57802 0.50326 0.98138 0.0
C452 C 0.55463 0.50333 0.01229 0.0
C453 C 0.53561 0.50144 0.95615 0.0
C454 C 0.60676 0.501 0.85926 0.0
C455 C 0.54967 0.50557 0.10463 0.0
H456 H 0.636 0.47192 0.1572 0.0
H457 H 0.6336 0.54747 0.13024 0.0
H458 H 0.58076 0.45925 0.07289 0.0
H459 H 0.60064 0.45752 0.98669 0.0
H460 H 0.60974 0.44662 0.08769 0.0
H461 H 0.60559 0.56664 0.04656 0.0
H462 H 0.59762 0.54989 0.95474 0.0
H463 H 0.57762 0.55142 0.04063 0.0
H464 H 0.56582 0.498 0.77308 0.0
H465 H 0.51771 0.50165 0.98004 0.0
H466 H 0.61704 0.48629 0.88721 0.0
H467 H 0.61601 0.51767 0.87577 0.0
H468 H 0.60686 0.49898 0.79021 0.0
H469 H 0.55838 0.49096 0.13917 0.0
H470 H 0.53046 0.50522 0.11854 0.0
H471 H 0.55718 0.52237 0.12883 0.0
C472 C 0.9518 0.64644 0.15336 0.0
C473 C 0.96824 0.65736 0.20671 0.0
C474 C 0.9585 0.6277 0.10116 0.0
C475 C 0.98225 0.61986 0.10183 0.0
C476 C 0.99894 0.63079 0.1555 0.0
C477 C 0.99171 0.64936 0.20761 0.0
C478 C 0.94016 0.61631 0.04527 0.0
C479 C 0.02446 0.62297 0.1574 0.0
C480 C 0.995 0.55827 0.01962 0.0
C481 C 0.00216 0.56304 0.93753 0.0
C482 C 0.98857 0.57661 0.07397 0.0
C483 C 0.98963 0.60029 0.04582 0.0
C484 C 0.99726 0.60525 0.96357 0.0
C485 C 0.00329 0.58655 0.9102 0.0
C486 C 0.98027 0.57061 0.16098 0.0
C487 C 0.99882 0.63032 0.93171 0.0
H488 H 0.93362 0.65248 0.15256 0.0
H489 H 0.00452 0.65776 0.24853 0.0
H490 H 0.9454 0.61818 0.97888 0.0
H491 H 0.93904 0.59711 0.05877 0.0
H492 H 0.92235 0.62422 0.05335 0.0
H493 H 0.03524 0.63336 0.20256 0.0
H494 H 0.02557 0.60402 0.17457 0.0
H495 H 0.03232 0.62485 0.09435 0.0
H496 H 0.99394 0.54014 0.04106 0.0
H497 H 0.00892 0.59037 0.84697 0.0
H498 H 0.96196 0.57713 0.17001 0.0
H499 H 0.9916 0.57958 0.20807 0.0
H500 H 0.98059 0.55129 0.17328 0.0
H501 H 0.98106 0.63861 0.93245 0.0
H502 H 0.00586 0.63122 0.86709 0.0
H503 H 0.01041 0.64098 0.9733 0.0
C504 C 0.00309 0.21155 0.08375 0.0
C505 C 0.00981 0.22972 0.13851 0.0
C506 C 0.99782 0.18882 0.11414 0.0
C507 C 0.99985 0.18415 0.20088 0.0
C508 C 0.00733 0.20232 0.25583 0.0
C509 C 0.01197 0.2249 0.22408 0.0
C510 C 0.98909 0.1702 0.05394 0.0
C511 C 0.01002 0.19805 0.34859 0.0
C512 C 0.96601 0.1352 0.30969 0.0
C513 C 0.98387 0.11846 0.3237 0.0
C514 C 0.97067 0.15619 0.266 0.0
C515 C 0.99374 0.16054 0.23564 0.0
C516 C 0.01154 0.14321 0.24616 0.0
C517 C 0.0064 0.1224 0.29015 0.0
C518 C 0.95118 0.17419 0.25584 0.0
C519 C 0.03623 0.14704 0.2135 0.0
H520 H 1.00102 0.21533 0.01775 0.0
H521 H 0.01728 0.23891 0.26653 0.0
H522 H 0.99739 0.15284 0.06713 0.0
H523 H 0.96973 0.16801 0.06142 0.0
H524 H 0.99262 0.17515 0.98804 0.0
H525 H 0.01671 0.21387 0.38238 0.0
H526 H 0.99272 0.19298 0.37563 0.0
H527 H 0.0224 0.18317 0.35985 0.0
H528 H 0.9486 0.13235 0.33584 0.0
H529 H 0.02015 0.1093 0.29935 0.0
H530 H 0.94986 0.17994 0.18976 0.0
H531 H 0.95533 0.19007 0.29392 0.0
H532 H 0.93374 0.16719 0.27568 0.0
H533 H 0.03557 0.15147 0.14606 0.0
H534 H 0.04764 0.13124 0.22214 0.0
H535 H 0.04453 0.16222 0.24638 0.0
C536 C 0.2775 0.97578 0.10676 0.0
C537 C 0.25862 0.9654 0.14955 0.0
C538 C 0.3003 0.97628 0.14188 0.0
C539 C 0.30407 0.9666 0.22244 0.0
C540 C 0.28504 0.95583 0.26532 0.0
C541 C 0.26258 0.95506 0.22772 0.0
C542 C 0.32033 0.98699 0.09269 0.0
C543 C 0.28825 0.94567 0.35183 0.0
C544 C 0.36586 0.95125 0.29947 0.0
C545 C 0.37141 0.97094 0.34936 0.0
C546 C 0.34428 0.94985 0.25603 0.0
C547 C 0.32769 0.96844 0.26339 0.0
C548 C 0.33333 0.98855 0.31232 0.0
C549 C 0.35513 0.9896 0.35436 0.0
C550 C 0.33905 0.92827 0.20349 0.0
C551 C 0.31618 0.00884 0.32109 0.0
H552 H 0.27445 0.98335 0.04543 0.0
H553 H 0.24791 0.94704 0.2606 0.0
H554 H 0.33346 0.97309 0.07745 0.0
H555 H 0.31417 0.99517 0.03341 0.0
H556 H 0.32965 1.00055 0.13055 0.0
H557 H 0.27175 0.93761 0.37616 0.0
H558 H 0.30231 0.93201 0.35144 0.0
H559 H 0.29401 0.95981 0.39554 0.0
H560 H 0.37818 0.93663 0.2958 0.0
H561 H 0.35944 0.0051 0.39125 0.0
H562 H 0.33389 0.93361 0.13928 0.0
H563 H 0.32393 0.91845 0.23041 0.0
H564 H 0.35444 0.91614 0.19961 0.0
H565 H 0.31207 0.01636 0.2587 0.0
H566 H 0.32321 0.02318 0.36168 0.0
H567 H 0.29932 0.00239 0.34796 0.0
C568 C 0.5465 0.28182 0.12478 0.0
C569 C 0.53028 0.26433 0.14803 0.0
C570 C 0.5449 0.30485 0.1573 0.0
C571 C 0.52712 0.31024 0.21632 0.0
C572 C 0.51059 0.29264 0.2394 0.0
C573 C 0.51233 0.26991 0.20473 0.0
C574 C 0.56225 0.32339 0.12874 0.0
C575 C 0.49127 0.29776 0.30159 0.0
C576 C 0.53961 0.36016 0.3692 0.0
C577 C 0.52577 0.37853 0.33658 0.0
C578 C 0.54007 0.33786 0.33076 0.0
C579 C 0.52654 0.33388 0.2574 0.0
C580 C 0.51246 0.35238 0.22434 0.0
C581 C 0.51225 0.37448 0.26437 0.0
C582 C 0.55495 0.3185 0.369 0.0
C583 C 0.49825 0.34933 0.14515 0.0
H584 H 0.56025 0.27757 0.08026 0.0
H585 H 0.49998 0.2563 0.22366 0.0
H586 H 0.55253 0.33871 0.10225 0.0
H587 H 0.57271 0.32996 0.1828 0.0
H588 H 0.57462 0.31654 0.08073 0.0
H589 H 0.47962 0.28224 0.31206 0.0
H590 H 0.49919 0.30312 0.3623 0.0
H591 H 0.48028 0.31272 0.27917 0.0
H592 H 0.54984 0.36314 0.42568 0.0
H593 H 0.50178 0.38875 0.23829 0.0
H594 H 0.56839 0.31244 0.3235 0.0
H595 H 0.54366 0.30307 0.38421 0.0
H596 H 0.56416 0.32436 0.42687 0.0
H597 H 0.51009 0.3524 0.09127 0.0
H598 H 0.48353 0.36227 0.14124 0.0
H599 H 0.49081 0.33126 0.13952 0.0
C600 C 0.2164 0.54952 0.1214 0.0
C601 C 0.22653 0.52705 0.11172 0.0
C602 C 0.19613 0.55282 0.1702 0.0
C603 C 0.18556 0.53316 0.20972 0.0
C604 C 0.19521 0.51032 0.19806 0.0
C605 C 0.21582 0.5076 0.15039 0.0
C606 C 0.18622 0.57741 0.18062 0.0
C607 C 0.18404 0.48877 0.23709 0.0
C608 C 0.14982 0.54245 0.40718 0.0
C609 C 0.12663 0.54282 0.37617 0.0
C610 C 0.16912 0.53958 0.35334 0.0
C611 C 0.1651 0.53668 0.26646 0.0
C612 C 0.14167 0.53735 0.23471 0.0
C613 C 0.12276 0.54034 0.29005 0.0
C614 C 0.19384 0.54006 0.38934 0.0
C615 C 0.13595 0.53473 0.14296 0.0
H616 H 0.22456 0.56467 0.0918 0.0
H617 H 0.22387 0.49034 0.14603 0.0
H618 H 0.16779 0.57795 0.15665 0.0
H619 H 0.1857 0.58215 0.24792 0.0
H620 H 0.19678 0.59093 0.14703 0.0
H621 H 0.19088 0.47211 0.20952 0.0
H622 H 0.18786 0.48861 0.30511 0.0
H623 H 0.16454 0.48919 0.22916 0.0
H624 H 0.1529 0.54476 0.4736 0.0
H625 H 0.10483 0.54041 0.26573 0.0
H626 H 0.2044 0.554 0.35811 0.0
H627 H 0.20276 0.52294 0.37757 0.0
H628 H 0.19396 0.54347 0.45772 0.0
H629 H 0.15167 0.53541 0.102 0.0
H630 H 0.12354 0.54889 0.12332 0.0
H631 H 0.1267 0.51766 0.13288 0.0
C632 C 0.00966 0.78489 0.23418 0.0
C633 C 0.98849 0.78197 0.27802 0.0
C634 C 0.01675 0.80727 0.2059 0.0
C635 C 0.00235 0.8272 0.22225 0.0
C636 C 0.98127 0.82442 0.2687 0.0
C637 C 0.97444 0.80176 0.29512 0.0
C638 C 0.03935 0.80948 0.15667 0.0
C639 C 0.96573 0.84529 0.28919 0.0
C640 C 0.02844 0.88876 0.19378 0.0
C641 C 0.01994 0.89482 0.11409 0.0
C642 C 0.02296 0.86678 0.2298 0.0
C643 C 0.00846 0.8506 0.18554 0.0
C644 C 0.99988 0.85661 0.10516 0.0
C645 C 0.0058 0.87854 0.07035 0.0
C646 C 0.03246 0.86094 0.31548 0.0
C647 C 0.98452 0.8398 0.05553 0.0
H648 H 0.02039 0.76954 0.22015 0.0
H649 H 0.95819 0.79953 0.3299 0.0
H650 H 0.03524 0.81529 0.09204 0.0
H651 H 0.05097 0.82311 0.18512 0.0
H652 H 0.04923 0.79254 0.15355 0.0
H653 H 0.95072 0.84037 0.33015 0.0
H654 H 0.97625 0.85924 0.3209 0.0
H655 H 0.95858 0.85303 0.23064 0.0
H656 H 0.03919 0.9013 0.22839 0.0
H657 H 0.99959 0.88281 0.008 0.0
H658 H 0.04158 0.84359 0.31482 0.0
H659 H 0.01751 0.85948 0.35967 0.0
H660 H 0.04497 0.87455 0.33908 0.0
H661 H 0.99409 0.82296 0.04491 0.0
H662 H 0.97922 0.8472 0.99397 0.0
H663 H 0.9683 0.83556 0.09127 0.0
C664 C 0.71197 0.97686 0.1101 0.0
C665 C 0.71706 0.9696 0.19177 0.0
C666 C 0.69018 0.98741 0.09033 0.0
C667 C 0.67288 0.99019 0.15344 0.0
C668 C 0.67783 0.98244 0.23583 0.0
C669 C 0.69996 0.97242 0.25405 0.0
C670 C 0.68564 0.99556 0.00189 0.0
C671 C 0.65985 0.98472 0.30494 0.0
C672 C 0.62402 0.03508 0.11474 0.0
C673 C 0.60583 0.02075 0.08274 0.0
C674 C 0.6458 0.02534 0.13937 0.0
C675 C 0.64947 1.00067 0.13232 0.0
C676 C 0.63096 0.98603 0.10253 0.0
C677 C 0.60946 0.99625 0.07765 0.0
C678 C 0.66505 0.04148 0.17158 0.0
C679 C 0.63398 0.95958 0.09587 0.0
H680 H 0.72518 0.97456 0.06189 0.0
H681 H 0.70367 0.96614 0.31663 0.0
H682 H 0.6703 0.9859 0.97512 0.0
H683 H 0.68112 0.01465 0.00159 0.0
H684 H 0.70115 0.99273 0.96073 0.0
H685 H 0.66412 0.97303 0.35861 0.0
H686 H 0.65961 0.00324 0.32768 0.0
H687 H 0.6418 0.98034 0.28239 0.0
H688 H 0.62127 0.05397 0.12016 0.0
H689 H 0.59569 0.98503 0.05198 0.0
H690 H 0.6809 0.03999 0.1313 0.0
H691 H 0.67038 0.03606 0.23553 0.0
H692 H 0.6594 0.06028 0.17331 0.0
H693 H 0.64819 0.95542 0.05063 0.0
H694 H 0.61751 0.95056 0.07529 0.0
H695 H 0.63945 0.95223 0.15725 0.0
C696 C 0.50131 0.70916 0.26802 0.0
C697 C 0.50945 0.72529 0.20843 0.0
C698 C 0.49284 0.68676 0.24483 0.0
C699 C 0.49307 0.68006 0.1595 0.0
C700 C 0.5019 0.69607 0.09904 0.0
C701 C 0.5099 0.7185 0.12422 0.0
C702 C 0.48408 0.6706 0.31318 0.0
C703 C 0.50329 0.68931 0.00787 0.0
C704 C 0.49303 0.61473 0.10418 0.0
C705 C 0.47003 0.61149 0.0728 0.0
C706 C 0.50064 0.63685 0.13365 0.0
C707 C 0.48481 0.65619 0.13298 0.0
C708 C 0.46123 0.6528 0.10559 0.0
C709 C 0.45418 0.63059 0.07495 0.0
C710 C 0.52568 0.63958 0.16516 0.0
C711 C 0.44351 0.67271 0.10824 0.0
H712 H 0.50234 0.71366 0.33337 0.0
H713 H 0.51659 0.73075 0.07794 0.0
H714 H 0.4777 0.65321 0.29057 0.0
H715 H 0.49849 0.6676 0.35933 0.0
H716 H 0.46942 0.6794 0.34699 0.0
H717 H 0.51092 0.70362 0.96891 0.0
H718 H 0.51433 0.67323 0.00071 0.0
H719 H 0.4854 0.68501 0.9836 0.0
H720 H 0.50523 0.59997 0.10523 0.0
H721 H 0.43641 0.62841 0.05065 0.0
H722 H 0.52547 0.64486 0.23197 0.0
H723 H 0.53479 0.65381 0.13005 0.0
H724 H 0.53607 0.62301 0.15902 0.0
H725 H 0.44261 0.68004 0.17254 0.0
H726 H 0.42553 0.66691 0.08895 0.0
H727 H 0.44923 0.68721 0.06635 0.0
C728 C 0.78334 0.47291 0.25483 0.0
C729 C 0.77206 0.49494 0.2526 0.0
C730 C 0.80673 0.4703 0.22751 0.0
C731 C 0.819 0.49012 0.19559 0.0
C732 C 0.8076 0.51239 0.19236 0.0
C733 C 0.78421 0.51452 0.22067 0.0
C734 C 0.81823 0.44625 0.232 0.0
C735 C 0.82011 0.53394 0.1589 0.0
C736 C 0.88613 0.48668 0.18384 0.0
C737 C 0.88948 0.47991 0.10043 0.0
C738 C 0.86328 0.4903 0.21565 0.0
C739 C 0.84341 0.48729 0.16248 0.0
C740 C 0.84679 0.48096 0.07775 0.0
C741 C 0.86976 0.47725 0.04789 0.0
C742 C 0.8604 0.49659 0.30669 0.0
C743 C 0.82611 0.47785 0.01875 0.0
H744 H 0.77373 0.45757 0.27665 0.0
H745 H 0.77551 0.53158 0.21873 0.0
H746 H 0.82296 0.44019 0.16827 0.0
H747 H 0.83486 0.4473 0.26884 0.0
H748 H 0.80654 0.43281 0.26101 0.0
H749 H 0.80889 0.55003 0.16155 0.0
H750 H 0.83652 0.53722 0.19536 0.0
H751 H 0.8254 0.53088 0.09309 0.0
H752 H 0.90134 0.48858 0.22473 0.0
H753 H 0.87235 0.47236 0.98303 0.0
H754 H 0.85228 0.48146 0.33988 0.0
H755 H 0.84838 0.51194 0.31394 0.0
H756 H 0.87754 0.50078 0.33735 0.0
H757 H 0.81455 0.46336 0.0412 0.0
H758 H 0.8318 0.47366 0.95405 0.0
H759 H 0.81529 0.4942 0.01727 0.0
C760 C 0.04989 0.18925 0.85556 0.0
C761 C 0.05104 0.19854 0.77445 0.0
C762 C 0.0442 0.16539 0.86865 0.0
C763 C 0.03984 0.15056 0.79893 0.0
C764 C 0.04124 0.15988 0.71701 0.0
C765 C 0.04697 0.18376 0.70591 0.0
C766 C 0.0436 0.15604 0.95688 0.0
C767 C 0.03684 0.14461 0.64098 0.0
C768 C 0.04559 0.08389 0.81048 0.0
C769 C 0.02182 0.07694 0.80737 0.0
C770 C 0.05178 0.10791 0.81149 0.0
C771 C 0.03376 0.12525 0.8106 0.0
C772 C 0.00976 0.11827 0.81327 0.0
C773 C 0.00406 0.09418 0.81089 0.0
C774 C 0.07757 0.11471 0.80857 0.0
C775 C 0.99006 0.13626 0.81457 0.0
H776 H 0.05413 0.20034 0.90868 0.0
H777 H 0.04823 0.19095 0.64327 0.0
H778 H 0.02899 0.14319 0.96527 0.0
H779 H 0.0604 0.14671 0.97055 0.0
H780 H 0.04162 0.17054 0.00321 0.0
H781 H 0.03883 0.15457 0.58164 0.0
H782 H 0.04937 0.12952 0.64058 0.0
H783 H 0.01871 0.13713 0.64313 0.0
H784 H 0.05938 0.07063 0.80758 0.0
H785 H 0.98565 0.08887 0.80947 0.0
H786 H 0.08172 0.12764 0.85864 0.0
H787 H 0.08145 0.12336 0.74796 0.0
H788 H 0.08943 0.09919 0.81571 0.0
H789 H 0.97262 0.12806 0.82754 0.0
H790 H 0.98907 0.14531 0.75317 0.0
H791 H 0.99366 0.14995 0.86261 0.0
C792 C 0.32631 0.04718 0.03113 0.0
C793 C 0.30742 0.05115 0.97585 0.0
C794 C 0.34967 0.04675 0.00243 0.0
C795 C 0.35422 0.051 0.91687 0.0
C796 C 0.33546 0.05741 0.86269 0.0
C797 C 0.31222 0.05731 0.89278 0.0
C798 C 0.36915 0.03971 0.06222 0.0
C799 C 0.33969 0.06253 0.7714 0.0
C800 C 0.41799 0.0572 0.8464 0.0
C801 C 0.42273 0.03431 0.817 0.0
C802 C 0.39568 0.06307 0.87844 0.0
C803 C 0.37786 0.04555 0.88192 0.0
C804 C 0.38254 0.02244 0.85229 0.0
C805 C 0.40486 0.01716 0.81972 0.0
C806 C 0.39118 0.08792 0.90878 0.0
C807 C 0.36404 0.00319 0.85571 0.0
H808 H 0.32277 0.0429 0.09586 0.0
H809 H 0.29775 0.06076 0.8499 0.0
H810 H 0.3749 0.02141 0.04788 0.0
H811 H 0.38475 0.0514 0.05502 0.0
H812 H 0.36328 0.04031 0.12836 0.0
H813 H 0.32403 0.07077 0.74108 0.0
H814 H 0.35512 0.07442 0.76361 0.0
H815 H 0.34371 0.04578 0.73824 0.0
H816 H 0.43169 0.07058 0.84419 0.0
H817 H 0.40837 0.9994 0.7975 0.0
H818 H 0.38662 0.08768 0.97613 0.0
H819 H 0.37585 0.09561 0.87494 0.0
H820 H 0.40673 0.09964 0.8999 0.0
H821 H 0.35826 1.00048 0.92119 0.0
H822 H 0.37062 0.98609 0.83085 0.0
H823 H 0.34824 0.0085 0.81897 0.0
C824 C 0.49464 0.32823 0.9455 0.0
C825 C 0.47574 0.313 0.96244 0.0
C826 C 0.49073 0.35084 0.91312 0.0
C827 C 0.46738 0.35806 0.89392 0.0
C828 C 0.4482 0.34261 0.90938 0.0
C829 C 0.45259 0.32032 0.94487 0.0
C830 C 0.5116 0.3671 0.90041 0.0
C831 C 0.42317 0.34952 0.88749 0.0
C832 C 0.45961 0.42429 0.87409 0.0
C833 C 0.46442 0.42755 0.78918 0.0
C834 C 0.45943 0.40154 0.90887 0.0
C835 C 0.46341 0.38173 0.85661 0.0
C836 C 0.46647 0.38495 0.76958 0.0
C837 C 0.46742 0.40792 0.73712 0.0
C838 C 0.45699 0.39896 0.00234 0.0
C839 C 0.47004 0.36423 0.71147 0.0
H840 H 0.51256 0.32272 0.95985 0.0
H841 H 0.43796 0.30847 0.95735 0.0
H842 H 0.51351 0.3713 0.8331 0.0
H843 H 0.50869 0.38402 0.93395 0.0
H844 H 0.52843 0.35922 0.9231 0.0
H845 H 0.41028 0.33532 0.90224 0.0
H846 H 0.41811 0.36573 0.92208 0.0
H847 H 0.42191 0.35366 0.81985 0.0
H848 H 0.4576 0.43959 0.91431 0.0
H849 H 0.47104 0.41058 0.67129 0.0
H850 H 0.47455 0.39477 0.02976 0.0
H851 H 0.44491 0.38421 0.01822 0.0
H852 H 0.45035 0.41541 0.03205 0.0
H853 H 0.48784 0.35654 0.722 0.0
H854 H 0.46858 0.36946 0.64474 0.0
H855 H 0.45686 0.35018 0.72431 0.0
C856 C 0.17923 0.42388 0.8984 0.0
C857 C 0.194 0.43374 0.95948 0.0
C858 C 0.15803 0.43496 0.87508 0.0
C859 C 0.15131 0.45627 0.91484 0.0
C860 C 0.16647 0.46661 0.97526 0.0
C861 C 0.18752 0.45508 0.99768 0.0
C862 C 0.14253 0.42355 0.80939 0.0
C863 C 0.16014 0.48916 0.02003 0.0
C864 C 0.10254 0.49307 0.81566 0.0
C865 C 0.08256 0.48504 0.85889 0.0
C866 C 0.12509 0.484 0.83356 0.0
C867 C 0.12774 0.46678 0.89695 0.0
C868 C 0.10776 0.45925 0.94278 0.0
C869 C 0.08537 0.46828 0.92259 0.0
C870 C 0.14606 0.49269 0.78435 0.0
C871 C 0.11004 0.44155 0.01288 0.0
H872 H 0.18417 0.40727 0.86945 0.0
H873 H 0.19826 0.46232 0.04754 0.0
H874 H 0.12562 0.41785 0.8379 0.0
H875 H 0.13818 0.4365 0.75963 0.0
H876 H 0.15106 0.40791 0.7803 0.0
H877 H 0.15115 0.48458 0.07927 0.0
H878 H 0.17627 0.49945 0.03559 0.0
H879 H 0.14818 0.50063 0.98295 0.0
H880 H 0.10049 0.50598 0.76616 0.0
H881 H 0.07003 0.4622 0.95679 0.0
H882 H 0.15474 0.47761 0.75243 0.0
H883 H 0.1593 0.50064 0.82739 0.0
H884 H 0.14102 0.50605 0.7367 0.0
H885 H 0.11715 0.42464 0.98844 0.0
H886 H 0.09287 0.43797 0.04383 0.0
H887 H 0.12273 0.4482 0.06049 0.0
C888 C 0.03526 0.83643 0.5106 0.0
C889 C 0.01552 0.82177 0.49974 0.0
C890 C 0.03265 0.85969 0.53975 0.0
C891 C 0.00978 0.86836 0.55825 0.0
C892 C 0.98982 0.85363 0.54707 0.0
C893 C 0.99294 0.8305 0.51815 0.0
C894 C 0.05428 0.87508 0.54979 0.0
C895 C 0.96513 0.86241 0.56478 0.0
C896 C 0.0046 0.92043 0.70627 0.0
C897 C 0.00142 0.9393 0.65054 0.0
C898 C 0.00725 0.89723 0.67698 0.0
C899 C 0.00666 0.89281 0.58992 0.0
C900 C 0.00292 0.91168 0.53342 0.0
C901 C 1.00043 0.93472 0.56443 0.0
C902 C 0.01098 0.8775 0.73915 0.0
C903 C 0.00225 0.90778 0.44007 0.0
H904 H 0.05272 0.82977 0.49591 0.0
H905 H 0.97757 0.81935 0.50868 0.0
H906 H 0.05271 0.89084 0.50897 0.0
H907 H 0.05566 0.8815 0.61516 0.0
H908 H 0.07083 0.86556 0.53369 0.0
H909 H 0.9515 0.84861 0.55364 0.0
H910 H 0.96387 0.86843 0.63062 0.0
H911 H 0.96108 0.87783 0.52443 0.0
H912 H 0.00542 0.9238 0.77292 0.0
H913 H 0.99813 0.94919 0.52084 0.0
H914 H 0.02821 0.86878 0.72749 0.0
H915 H 0.99702 0.86388 0.73128 0.0
H916 H 0.0107 0.88388 0.80484 0.0
H917 H 0.02045 0.9045 0.41749 0.0
H918 H 0.99509 0.92334 0.40614 0.0
H919 H 0.99136 0.89211 0.42383 0.0
C920 C 0.66691 0.97058 0.56914 0.0
C921 C 0.67816 0.98972 0.53035 0.0
C922 C 0.64373 0.9726 0.59874 0.0
C923 C 0.63163 0.99433 0.58988 0.0
C924 C 0.64321 0.014 0.55392 0.0
C925 C 0.66635 0.01144 0.52432 0.0
C926 C 0.63188 0.95124 0.6366 0.0
C927 C 0.6309 0.03752 0.54432 0.0
C928 C 0.56466 0.99367 0.5805 0.0
C929 C 0.55878 1.00054 0.66197 0.0
C930 C 0.58836 0.99137 0.55644 0.0
C931 C 0.60653 0.99621 0.61517 0.0
C932 C 0.60073 0.00294 0.69766 0.0
C933 C 0.57693 0.00496 0.72014 0.0
C934 C 0.59398 0.98395 0.468 0.0
C935 C 0.61965 0.00837 0.76182 0.0
H936 H 0.6759 0.95373 0.57397 0.0
H937 H 0.67496 0.0263 0.49447 0.0
H938 H 0.62485 0.95561 0.69932 0.0
H939 H 0.61666 0.94582 0.59704 0.0
H940 H 0.64412 0.93598 0.64266 0.0
H941 H 0.64289 0.05146 0.5202 0.0
H942 H 0.61576 0.03568 0.50049 0.0
H943 H 0.62368 0.0434 0.60525 0.0
H944 H 0.55076 0.99023 0.53528 0.0
H945 H 0.57259 0.01039 0.78322 0.0
H946 H 0.60507 0.96779 0.46857 0.0
H947 H 0.6043 0.998 0.43645 0.0
H948 H 0.57779 0.98037 0.43049 0.0
H949 H 0.63147 0.9929 0.76986 0.0
H950 H 0.61214 0.0131 0.82368 0.0
H951 H 0.63075 0.02329 0.73988 0.0
C952 C 0.51164 0.67721 0.56835 0.0
C953 C 0.49047 0.68749 0.54047 0.0
C954 C 0.51248 0.65343 0.59241 0.0
C955 C 0.49161 0.63971 0.5893 0.0
C956 C 0.46997 0.65022 0.56471 0.0
C957 C 0.46967 0.67401 0.54034 0.0
C958 C 0.53588 0.64278 0.61813 0.0
C959 C 0.4473 0.63614 0.56171 0.0
C960 C 0.49656 0.57319 0.56498 0.0
C961 C 0.49288 0.56554 0.64716 0.0
C962 C 0.4965 0.59737 0.54542 0.0
C963 C 0.49252 0.61417 0.60954 0.0
C964 C 0.48915 0.60657 0.69274 0.0
C965 C 0.48946 0.58237 0.71056 0.0
C966 C 0.50037 0.60494 0.45601 0.0
C967 C 0.48472 0.62396 0.7627 0.0
H968 H 0.52781 0.68749 0.56847 0.0
H969 H 0.45325 0.68185 0.51895 0.0
H970 H 0.53437 0.63432 0.68037 0.0
H971 H 0.54093 0.62876 0.57304 0.0
H972 H 0.55028 0.65612 0.62071 0.0
H973 H 0.44876 0.62195 0.51411 0.0
H974 H 0.44415 0.62747 0.62281 0.0
H975 H 0.43175 0.6473 0.54607 0.0
H976 H 0.49919 0.56031 0.51573 0.0
H977 H 0.48653 0.57667 0.77429 0.0
H978 H 0.51551 0.61737 0.45255 0.0
H979 H 0.48457 0.61448 0.43246 0.0
H980 H 0.5039 0.58972 0.41398 0.0
H981 H 0.49946 0.63686 0.7668 0.0
H982 H 0.48283 0.61514 0.82432 0.0
H983 H 0.46836 0.63413 0.7496 0.0
C984 C 0.84845 0.47368 0.52824 0.0
C985 C 0.83343 0.49248 0.50734 0.0
C986 C 0.87121 0.4779 0.55999 0.0
C987 C 0.87897 0.50146 0.5719 0.0
C988 C 0.86393 0.5205 0.55058 0.0
C989 C 0.84136 0.51577 0.51814 0.0
C990 C 0.88693 0.45716 0.58099 0.0
C991 C 0.87158 0.54585 0.56288 0.0
C992 C 0.92849 0.51055 0.72897 0.0
C993 C 0.94824 0.5124 0.6767 0.0
C994 C 0.90575 0.50748 0.69556 0.0
C995 C 0.90273 0.50614 0.60784 0.0
C996 C 0.9225 0.50858 0.55466 0.0
C997 C 0.94503 0.51178 0.58976 0.0
C998 C 0.88503 0.50509 0.75423 0.0
C999 C 0.91993 0.50718 0.46079 0.0
H1000 H 0.8425 0.45564 0.51929 0.0
H1001 H 0.82986 0.53039 0.50195 0.0
H1002 H 0.90371 0.4584 0.54558 0.0
H1003 H 0.89156 0.45749 0.64841 0.0
H1004 H 0.87841 0.43994 0.56639 0.0
H1005 H 0.8578 0.55863 0.54267 0.0
H1006 H 0.87571 0.54906 0.62978 0.0
H1007 H 0.88795 0.54936 0.5271 0.0
H1008 H 0.9308 0.51103 0.79623 0.0
H1009 H 0.9602 0.51313 0.54892 0.0
H1010 H 0.87691 0.48735 0.74699 0.0
H1011 H 0.87127 0.51833 0.73843 0.0
H1012 H 0.89026 0.50747 0.82072 0.0
H1013 H 0.91251 0.48974 0.44271 0.0
H1014 H 0.93705 0.50964 0.42818 0.0
H1015 H 0.9074 0.52088 0.43851 0.0
loop_
_geom_bond_atom_site_label_1
_geom_bond_atom_site_label_2
_geom_bond_distance
_geom_bond_site_symmetry_2
_ccdc_geom_bond_type
O0 Cd1 2.300 . S
O0 C7 1.275 . S
Cd1 O0 2.300 . S
Cd1 O9 2.381 . S
Cd1 O10 2.378 . S
O2 Cd3 2.385 . S
O2 C7 1.255 . S
Cd3 O2 2.385 . S
Cd3 O4 2.317 . S
O4 Cd3 2.317 . S
O4 C5 1.232 . S
C5 O4 1.232 . S
C5 O6 1.218 . S
O6 C5 1.218 . S
C7 O0 1.275 . S
C7 O2 1.255 . S
C8 O9 1.258 . S
C8 O10 1.256 . S
O9 Cd1 2.381 . S
O9 C8 1.258 . S
O10 Cd1 2.378 . S
O10 C8 1.256 . S
O11 Cd12 2.300 1_655 S
O11 C18 1.275 1_655 S
Cd12 O11 2.300 1_455 S
Cd12 O20 2.381 1_455 S
Cd12 O21 2.378 . S
O13 Cd14 2.385 . S
O13 C18 1.255 . S
Cd14 O13 2.385 . S
Cd14 O15 2.317 . S
O15 Cd14 2.317 . S
O15 C16 1.232 . S
C16 O15 1.232 . S
C16 O17 1.218 . S
O17 C16 1.218 . S
C18 O11 1.275 1_455 S
C18 O13 1.255 . S
C19 O20 1.258 1_455 S
C19 O21 1.256 . S
O20 Cd12 2.381 1_655 S
O20 C19 1.258 1_655 S
O21 Cd12 2.378 . S
O21 C19 1.256 . S
O22 Cd23 2.300 1_565 S
O22 C29 1.275 1_565 S
Cd23 O22 2.300 1_545 S
Cd23 O31 2.381 1_545 S
Cd23 O32 2.378 . S
O24 Cd25 2.385 . S
O24 C29 1.255 . S
Cd25 O24 2.385 . S
Cd25 O26 2.317 . S
O26 Cd25 2.317 . S
O26 C27 1.232 . S
C27 O26 1.232 . S
C27 O28 1.218 . S
O28 C27 1.218 . S
C29 O22 1.275 1_545 S
C29 O24 1.255 . S
C30 O31 1.258 1_545 S
C30 O32 1.256 . S
O31 Cd23 2.381 1_565 S
O31 C30 1.258 1_565 S
O32 Cd23 2.378 . S
O32 C30 1.256 . S
O33 Cd34 2.300 . S
O33 C40 1.275 . S
Cd34 O33 2.300 . S
Cd34 O42 2.381 . S
Cd34 O43 2.378 . S
O35 Cd36 2.385 . S
O35 C40 1.255 . S
Cd36 O35 2.385 . S
Cd36 O37 2.317 . S
O37 Cd36 2.317 . S
O37 C38 1.232 . S
C38 O37 1.232 . S
C38 O39 1.218 . S
O39 C38 1.218 . S
C40 O33 1.275 . S
C40 O35 1.255 . S
C41 O42 1.258 . S
C41 O43 1.256 . S
O42 Cd34 2.381 . S
O42 C41 1.258 . S
O43 Cd34 2.378 . S
O43 C41 1.256 . S
O44 Cd45 2.300 . S
O44 C51 1.275 . S
Cd45 O44 2.300 . S
Cd45 O53 2.381 . S
Cd45 O54 2.378 . S
O46 Cd47 2.379 1_554 S
O46 C51 1.255 . S
Cd47 O46 2.379 1_556 S
Cd47 O48 2.322 . S
O48 Cd47 2.322 . S
O48 C49 1.232 . S
C49 O48 1.232 . S
C49 O50 1.218 . S
O50 C49 1.218 . S
C51 O44 1.275 . S
C51 O46 1.255 . S
C52 O53 1.258 . S
C52 O54 1.256 . S
O53 Cd45 2.381 . S
O53 C52 1.258 . S
O54 Cd45 2.378 . S
O54 C52 1.256 . S
O55 Cd56 2.300 1_655 S
O55 C62 1.275 1_655 S
Cd56 O55 2.300 1_455 S
Cd56 O64 2.381 1_455 S
Cd56 O65 2.378 . S
O57 Cd58 2.393 . S
O57 C62 1.255 . S
Cd58 O57 2.393 . S
Cd58 O59 2.311 1_554 S
O59 Cd58 2.311 1_556 S
O59 C60 1.232 . S
C60 O59 1.232 . S
C60 O61 1.218 . S
O61 C60 1.218 . S
C62 O55 1.275 1_455 S
C62 O57 1.255 . S
C63 O64 1.258 1_455 S
C63 O65 1.256 . S
O64 Cd56 2.381 1_655 S
O64 C63 1.258 1_655 S
O65 Cd56 2.378 . S
O65 C63 1.256 . S
O66 Cd67 2.300 1_565 S
O66 C73 1.275 1_565 S
Cd67 O66 2.300 1_545 S
Cd67 O75 2.381 1_545 S
Cd67 O76 2.378 . S
O68 Cd69 2.378 1_554 S
O68 C73 1.255 . S
Cd69 O68 2.378 1_556 S
Cd69 O70 2.323 . S
O70 Cd69 2.323 . S
O70 C71 1.232 . S
C71 O70 1.232 . S
C71 O72 1.218 . S
O72 C71 1.218 . S
C73 O66 1.275 1_545 S
C73 O68 1.255 . S
C74 O75 1.258 1_545 S
C74 O76 1.256 . S
O75 Cd67 2.381 1_565 S
O75 C74 1.258 1_565 S
O76 Cd67 2.378 . S
O76 C74 1.256 . S
O77 Cd78 2.300 . S
O77 C84 1.275 . S
Cd78 O77 2.300 . S
Cd78 O86 2.381 . S
Cd78 O87 2.378 . S
O79 Cd80 2.385 1_554 S
O79 C84 1.255 . S
Cd80 O79 2.385 1_556 S
Cd80 O81 2.317 . S
O81 Cd80 2.317 . S
O81 C82 1.232 . S
C82 O81 1.232 . S
C82 O83 1.218 . S
O83 C82 1.218 . S
C84 O77 1.275 . S
C84 O79 1.255 . S
C85 O86 1.258 . S
C85 O87 1.256 . S
O86 Cd78 2.381 . S
O86 C85 1.258 . S
O87 Cd78 2.378 . S
O87 C85 1.256 . S
Tb88 C98 2.825 . S
Tb88 O99 2.347 1_455 S
Tb88 O102 2.366 . S
Tb88 O107 2.418 . S
Tb88 O108 2.384 1_565 S
Tb88 O111 2.479 . S
Tb88 O112 2.471 . S
Eu89 O100 2.418 . S
Eu89 O101 2.384 1_545 S
Eu89 O104 2.479 . S
Eu89 O105 2.471 . S
Eu89 O106 2.347 1_655 S
Eu89 O109 2.366 . S
Eu89 C119 2.825 . S
C90 O106 1.259 1_565 S
C90 O107 1.265 . S
C91 O108 1.255 . S
C91 O109 1.265 1_455 S
C92 C94 1.380 . S
C92 C95 1.374 . S
C92 C98 1.507 . S
C93 C94 1.384 . S
C93 C97 1.387 1_556 S
C93 H120 0.930 1_556 S
C94 C92 1.380 . S
C94 C93 1.384 . S
C94 H121 0.931 . S
C95 C92 1.374 . S
C95 C96 1.390 . S
C95 H122 0.930 1_455 S
C96 C95 1.390 . S
C96 C97 1.391 1_556 S
C96 H123 0.930 1_456 S
C97 C93 1.387 1_554 S
C97 C96 1.391 1_554 S
C98 Tb88 2.825 . S
C98 C92 1.507 . S
C98 O111 1.238 . S
C98 O112 1.247 . S
O99 Tb88 2.347 1_655 S
O99 C103 1.259 1_565 S
O100 Eu89 2.418 . S
O100 C103 1.265 . S
O101 Eu89 2.384 1_565 S
O101 C110 1.255 . S
O102 Tb88 2.366 . S
O102 C110 1.265 1_455 S
C103 O99 1.259 1_545 S
C103 O100 1.265 . S
O104 Eu89 2.479 . S
O104 C119 1.238 . S
O105 Eu89 2.471 . S
O105 C119 1.247 . S
O106 Eu89 2.347 1_455 S
O106 C90 1.259 1_545 S
O107 Tb88 2.418 . S
O107 C90 1.265 . S
O108 Tb88 2.384 1_545 S
O108 C91 1.255 . S
O109 Eu89 2.366 . S
O109 C91 1.265 1_655 S
C110 O101 1.255 . S
C110 O102 1.265 1_655 S
O111 Tb88 2.479 . S
O111 C98 1.238 . S
O112 Tb88 2.471 . S
O112 C98 1.247 . S
C113 C116 1.380 . S
C113 C117 1.374 . S
C113 C119 1.507 . S
C114 C115 1.387 . S
C114 C118 1.391 . S
C115 C114 1.387 . S
C115 C116 1.384 . S
C115 H124 0.930 . S
C116 C113 1.380 . S
C116 C115 1.384 . S
C116 H125 0.931 . S
C117 C113 1.374 . S
C117 C118 1.390 . S
C117 H126 0.930 1_655 S
C118 C114 1.391 . S
C118 C117 1.390 . S
C118 H127 0.930 1_655 S
C119 Eu89 2.825 . S
C119 O104 1.238 . S
C119 O105 1.247 . S
C119 C113 1.507 . S
H120 C93 0.930 1_554 S
H121 C94 0.931 . S
H122 C95 0.930 1_655 S
H123 C96 0.930 1_654 S
H124 C115 0.930 . S
H125 C116 0.931 . S
H126 C117 0.930 1_455 S
H127 C118 0.930 1_455 S
Tb128 C138 2.825 . S
Tb128 O139 2.347 1_545 S
Tb128 O142 2.366 . S
Tb128 O147 2.418 . S
Tb128 O148 2.384 . S
Tb128 O151 2.479 . S
Tb128 O152 2.471 . S
Eu129 O140 2.418 . S
Eu129 O141 2.384 . S
Eu129 O144 2.479 . S
Eu129 O145 2.471 . S
Eu129 O146 2.347 1_565 S
Eu129 O149 2.366 . S
Eu129 C159 2.825 . S
C130 O146 1.259 . S
C130 O147 1.265 . S
C131 O148 1.255 . S
C131 O149 1.265 1_545 S
C132 C134 1.380 . S
C132 C135 1.374 . S
C132 C138 1.507 . S
C133 C134 1.384 . S
C133 C137 1.387 1_556 S
C133 H160 0.930 1_556 S
C134 C132 1.380 . S
C134 C133 1.384 . S
C134 H161 0.931 . S
C135 C132 1.374 . S
C135 C136 1.390 . S
C135 H162 0.930 1_545 S
C136 C135 1.390 . S
C136 C137 1.391 1_556 S
C136 H163 0.930 1_546 S
C137 C133 1.387 1_554 S
C137 C136 1.391 1_554 S
C138 Tb128 2.825 . S
C138 C132 1.507 . S
C138 O151 1.238 . S
C138 O152 1.247 . S
O139 Tb128 2.347 1_565 S
O139 C143 1.259 . S
O140 Eu129 2.418 . S
O140 C143 1.265 . S
O141 Eu129 2.384 . S
O141 C150 1.255 . S
O142 Tb128 2.366 . S
O142 C150 1.265 1_545 S
C143 O139 1.259 . S
C143 O140 1.265 . S
O144 Eu129 2.479 . S
O144 C159 1.238 . S
O145 Eu129 2.471 . S
O145 C159 1.247 . S
O146 Eu129 2.347 1_545 S
O146 C130 1.259 . S
O147 Tb128 2.418 . S
O147 C130 1.265 . S
O148 Tb128 2.384 . S
O148 C131 1.255 . S
O149 Eu129 2.366 . S
O149 C131 1.265 1_565 S
C150 O141 1.255 . S
C150 O142 1.265 1_565 S
O151 Tb128 2.479 . S
O151 C138 1.238 . S
O152 Tb128 2.471 . S
O152 C138 1.247 . S
C153 C156 1.380 . S
C153 C157 1.374 . S
C153 C159 1.507 . S
C154 C155 1.387 . S
C154 C158 1.391 . S
C155 C154 1.387 . S
C155 C156 1.384 . S
C155 H164 0.930 . S
C156 C153 1.380 . S
C156 C155 1.384 . S
C156 H165 0.931 . S
C157 C153 1.374 . S
C157 C158 1.390 . S
C157 H166 0.930 1_565 S
C158 C154 1.391 . S
C158 C157 1.390 . S
C158 H167 0.930 1_565 S
C159 Eu129 2.825 . S
C159 O144 1.238 . S
C159 O145 1.247 . S
C159 C153 1.507 . S
H160 C133 0.930 1_554 S
H161 C134 0.931 . S
H162 C135 0.930 1_565 S
H163 C136 0.930 1_564 S
H164 C155 0.930 . S
H165 C156 0.931 . S
H166 C157 0.930 1_545 S
H167 C158 0.930 1_545 S
Tb168 C178 2.825 . S
Tb168 O179 2.347 . S
Tb168 O182 2.366 . S
Tb168 O187 2.418 . S
Tb168 O188 2.384 . S
Tb168 O191 2.479 . S
Tb168 O192 2.471 . S
Eu169 O180 2.418 . S
Eu169 O181 2.384 . S
Eu169 O184 2.479 . S
Eu169 O185 2.471 . S
Eu169 O186 2.347 . S
Eu169 O189 2.366 . S
Eu169 C199 2.825 . S
C170 O186 1.259 . S
C170 O187 1.265 . S
C171 O188 1.255 . S
C171 O189 1.265 . S
C172 C174 1.380 . S
C172 C175 1.374 . S
C172 C178 1.507 . S
C173 C174 1.384 . S
C173 C177 1.387 1_556 S
C173 H200 0.930 1_556 S
C174 C172 1.380 . S
C174 C173 1.384 . S
C174 H201 0.931 . S
C175 C172 1.374 . S
C175 C176 1.393 . S
C175 H202 0.930 . S
C176 C175 1.393 . S
C176 C177 1.389 1_556 S
C176 H203 0.929 1_556 S
C177 C173 1.387 1_554 S
C177 C176 1.389 1_554 S
C178 Tb168 2.825 . S
C178 C172 1.507 . S
C178 O191 1.238 . S
C178 O192 1.247 . S
O179 Tb168 2.347 . S
O179 C183 1.259 . S
O180 Eu169 2.418 . S
O180 C183 1.265 . S
O181 Eu169 2.384 . S
O181 C190 1.255 . S
O182 Tb168 2.366 . S
O182 C190 1.265 . S
C183 O179 1.259 . S
C183 O180 1.265 . S
O184 Eu169 2.479 . S
O184 C199 1.238 . S
O185 Eu169 2.471 . S
O185 C199 1.247 . S
O186 Eu169 2.347 . S
O186 C170 1.259 . S
O187 Tb168 2.418 . S
O187 C170 1.265 . S
O188 Tb168 2.384 . S
O188 C171 1.255 . S
O189 Eu169 2.366 . S
O189 C171 1.265 . S
C190 O181 1.255 . S
C190 O182 1.265 . S
O191 Tb168 2.479 . S
O191 C178 1.238 . S
O192 Tb168 2.471 . S
O192 C178 1.247 . S
C193 C196 1.380 . S
C193 C197 1.374 . S
C193 C199 1.507 . S
C194 C195 1.387 . S
C194 C198 1.391 . S
C195 C194 1.387 . S
C195 C196 1.384 . S
C195 H204 0.930 . S
C196 C193 1.380 . S
C196 C195 1.384 . S
C196 H205 0.931 . S
C197 C193 1.374 . S
C197 C198 1.390 . S
C197 H206 0.930 . S
C198 C194 1.391 . S
C198 C197 1.390 . S
C198 H207 0.930 . S
C199 Eu169 2.825 . S
C199 O184 1.238 . S
C199 O185 1.247 . S
C199 C193 1.507 . S
H200 C173 0.930 1_554 S
H201 C174 0.931 . S
H202 C175 0.930 . S
H203 C176 0.929 1_554 S
H204 C195 0.930 . S
H205 C196 0.931 . S
H206 C197 0.930 . S
H207 C198 0.930 . S
Tb208 C218 2.825 . S
Tb208 O219 2.347 . S
Tb208 O222 2.366 . S
Tb208 O227 2.418 . S
Tb208 O228 2.384 1_655 S
Tb208 O231 2.479 . S
Tb208 O232 2.471 . S
Eu209 O220 2.418 . S
Eu209 O221 2.384 1_455 S
Eu209 O224 2.479 . S
Eu209 O225 2.471 . S
Eu209 O226 2.347 . S
Eu209 O229 2.366 . S
Eu209 C239 2.825 . S
C210 O226 1.259 1_655 S
C210 O227 1.265 . S
C211 O228 1.255 . S
C211 O229 1.265 . S
C212 C214 1.380 . S
C212 C215 1.374 . S
C212 C218 1.507 . S
C213 C214 1.384 . S
C213 C217 1.387 1_556 S
C213 H240 0.930 1_556 S
C214 C212 1.380 . S
C214 C213 1.384 . S
C214 H241 0.931 . S
C215 C212 1.374 . S
C215 C216 1.390 . S
C215 H242 0.930 . S
C216 C215 1.390 . S
C216 C217 1.391 1_556 S
C216 H243 0.930 1_556 S
C217 C213 1.387 1_554 S
C217 C216 1.391 1_554 S
C218 Tb208 2.825 . S
C218 C212 1.507 . S
C218 O231 1.238 . S
C218 O232 1.247 . S
O219 Tb208 2.347 . S
O219 C223 1.259 1_655 S
O220 Eu209 2.418 . S
O220 C223 1.265 . S
O221 Eu209 2.384 1_655 S
O221 C230 1.255 . S
O222 Tb208 2.366 . S
O222 C230 1.265 . S
C223 O219 1.259 1_455 S
C223 O220 1.265 . S
O224 Eu209 2.479 . S
O224 C239 1.238 . S
O225 Eu209 2.471 . S
O225 C239 1.247 . S
O226 Eu209 2.347 . S
O226 C210 1.259 1_455 S
O227 Tb208 2.418 . S
O227 C210 1.265 . S
O228 Tb208 2.384 1_455 S
O228 C211 1.255 . S
O229 Eu209 2.366 . S
O229 C211 1.265 . S
C230 O221 1.255 . S
C230 O222 1.265 . S
O231 Tb208 2.479 . S
O231 C218 1.238 . S
O232 Tb208 2.471 . S
O232 C218 1.247 . S
C233 C236 1.380 . S
C233 C237 1.374 . S
C233 C239 1.507 . S
C234 C235 1.387 . S
C234 C238 1.391 . S
C235 C234 1.387 . S
C235 C236 1.384 . S
C235 H244 0.930 . S
C236 C233 1.380 . S
C236 C235 1.384 . S
C236 H245 0.931 . S
C237 C233 1.374 . S
C237 C238 1.390 . S
C237 H246 0.930 . S
C238 C234 1.391 . S
C238 C237 1.390 . S
C238 H247 0.930 . S
C239 Eu209 2.825 . S
C239 O224 1.238 . S
C239 O225 1.247 . S
C239 C233 1.507 . S
H240 C213 0.930 1_554 S
H241 C214 0.931 . S
H242 C215 0.930 . S
H243 C216 0.930 1_554 S
H244 C235 0.930 . S
H245 C236 0.931 . S
H246 C237 0.930 . S
H247 C238 0.930 . S
C248 C249 1.391 . S
C248 C250 1.394 . S
C248 H264 0.931 . S
C249 C248 1.391 . S
C249 C253 1.376 . S
C250 C248 1.394 . S
C250 C251 1.369 . S
C250 C254 1.531 . S
C251 C250 1.369 . S
C251 C252 1.410 . S
C251 C259 1.503 . S
C252 C251 1.410 . S
C252 C253 1.392 . S
C252 C255 1.511 . S
C253 C249 1.376 . S
C253 C252 1.392 . S
C253 H265 0.929 . S
C254 C250 1.531 . S
C254 H266 0.960 . S
C254 H267 0.962 1_565 S
C254 H268 0.960 . S
C255 C252 1.511 . S
C255 H269 0.961 1_565 S
C255 H270 0.961 1_565 S
C255 H271 0.961 . S
C256 C257 1.364 1_545 S
C256 C258 1.363 . S
C256 H272 0.931 . S
C257 C256 1.364 1_565 S
C257 C261 1.416 . S
C258 C256 1.363 . S
C258 C259 1.370 1_545 S
C258 C262 1.524 . S
C259 C251 1.503 . S
C259 C258 1.370 1_565 S
C259 C260 1.403 . S
C260 C259 1.403 . S
C260 C261 1.404 . S
C260 C263 1.539 . S
C261 C257 1.416 . S
C261 C260 1.404 . S
C261 H273 0.930 . S
C262 C258 1.524 . S
C262 H274 0.956 . S
C262 H275 0.961 . S
C262 H276 0.961 . S
C263 C260 1.539 . S
C263 H277 0.958 . S
C263 H278 0.961 . S
C263 H279 0.960 . S
H264 C248 0.931 . S
H265 C253 0.929 . S
H266 C254 0.960 . S
H267 C254 0.962 1_545 S
H268 C254 0.960 . S
H269 C255 0.961 1_545 S
H270 C255 0.961 1_545 S
H271 C255 0.961 . S
H272 C256 0.931 . S
H273 C261 0.930 . S
H274 C262 0.956 . S
H275 C262 0.961 . S
H276 C262 0.961 . S
H277 C263 0.958 . S
H278 C263 0.961 . S
H279 C263 0.960 . S
C280 C281 1.391 . S
C280 C282 1.394 . S
C280 H296 0.931 . S
C281 C280 1.391 . S
C281 C285 1.376 . S
C282 C280 1.394 . S
C282 C283 1.369 . S
C282 C286 1.531 . S
C283 C282 1.369 . S
C283 C284 1.410 . S
C283 C291 1.503 . S
C284 C283 1.410 . S
C284 C285 1.392 . S
C284 C287 1.511 . S
C285 C281 1.376 . S
C285 C284 1.392 . S
C285 H297 0.929 . S
C286 C282 1.531 . S
C286 H298 0.960 . S
C286 H299 0.962 . S
C286 H300 0.960 . S
C287 C284 1.511 . S
C287 H301 0.961 . S
C287 H302 0.961 . S
C287 H303 0.961 . S
C288 C289 1.370 . S
C288 C290 1.363 . S
C288 H304 0.931 . S
C289 C288 1.370 . S
C289 C293 1.408 . S
C290 C288 1.363 . S
C290 C291 1.370 . S
C290 C294 1.524 . S
C291 C283 1.503 . S
C291 C290 1.370 . S
C291 C292 1.403 . S
C292 C291 1.403 . S
C292 C293 1.404 . S
C292 C295 1.539 . S
C293 C289 1.408 . S
C293 C292 1.404 . S
C293 H305 0.930 . S
C294 C290 1.524 . S
C294 H306 0.956 . S
C294 H307 0.961 . S
C294 H308 0.961 . S
C295 C292 1.539 . S
C295 H309 0.958 . S
C295 H310 0.961 . S
C295 H311 0.960 . S
H296 C280 0.931 . S
H297 C285 0.929 . S
H298 C286 0.960 . S
H299 C286 0.962 . S
H300 C286 0.960 . S
H301 C287 0.961 . S
H302 C287 0.961 . S
H303 C287 0.961 . S
H304 C288 0.931 . S
H305 C293 0.930 . S
H306 C294 0.956 . S
H307 C294 0.961 . S
H308 C294 0.961 . S
H309 C295 0.958 . S
H310 C295 0.961 . S
H311 C295 0.960 . S
C312 C313 1.391 . S
C312 C314 1.394 . S
C312 H328 0.931 . S
C313 C312 1.391 . S
C313 C317 1.376 . S
C314 C312 1.394 . S
C314 C315 1.369 . S
C314 C318 1.531 . S
C315 C314 1.369 . S
C315 C316 1.410 . S
C315 C323 1.503 . S
C316 C315 1.410 . S
C316 C317 1.392 . S
C316 C319 1.511 . S
C317 C313 1.376 . S
C317 C316 1.392 . S
C317 H329 0.929 . S
C318 C314 1.531 . S
C318 H330 0.960 . S
C318 H331 0.962 . S
C318 H332 0.960 . S
C319 C316 1.511 . S
C319 H333 0.961 . S
C319 H334 0.961 . S
C319 H335 0.961 . S
C320 C321 1.370 . S
C320 C322 1.363 . S
C320 H336 0.931 . S
C321 C320 1.370 . S
C321 C325 1.408 . S
C322 C320 1.363 . S
C322 C323 1.370 . S
C322 C326 1.524 . S
C323 C315 1.503 . S
C323 C322 1.370 . S
C323 C324 1.403 . S
C324 C323 1.403 . S
C324 C325 1.404 . S
C324 C327 1.539 . S
C325 C321 1.408 . S
C325 C324 1.404 . S
C325 H337 0.930 . S
C326 C322 1.524 . S
C326 H338 0.956 . S
C326 H339 0.961 . S
C326 H340 0.961 . S
C327 C324 1.539 . S
C327 H341 0.958 . S
C327 H342 0.961 . S
C327 H343 0.960 . S
H328 C312 0.931 . S
H329 C317 0.929 . S
H330 C318 0.960 . S
H331 C318 0.962 . S
H332 C318 0.960 . S
H333 C319 0.961 . S
H334 C319 0.961 . S
H335 C319 0.961 . S
H336 C320 0.931 . S
H337 C325 0.930 . S
H338 C326 0.956 . S
H339 C326 0.961 . S
H340 C326 0.961 . S
H341 C327 0.958 . S
H342 C327 0.961 . S
H343 C327 0.960 . S
C344 C345 1.391 . S
C344 C346 1.394 . S
C344 H360 0.931 . S
C345 C344 1.391 . S
C345 C349 1.376 1_455 S
C346 C344 1.394 . S
C346 C347 1.369 . S
C346 C350 1.531 . S
C347 C346 1.369 . S
C347 C348 1.410 1_455 S
C347 C355 1.503 . S
C348 C347 1.410 1_655 S
C348 C349 1.392 . S
C348 C351 1.511 . S
C349 C345 1.376 1_655 S
C349 C348 1.392 . S
C349 H361 0.929 . S
C350 C346 1.531 . S
C350 H362 0.960 . S
C350 H363 0.962 . S
C350 H364 0.960 . S
C351 C348 1.511 . S
C351 H365 0.961 . S
C351 H366 0.961 . S
C351 H367 0.961 1_655 S
C352 C353 1.370 1_655 S
C352 C354 1.363 . S
C352 H368 0.931 . S
C353 C352 1.370 1_455 S
C353 C357 1.408 . S
C354 C352 1.363 . S
C354 C355 1.370 1_655 S
C354 C358 1.524 . S
C355 C347 1.503 . S
C355 C354 1.370 1_455 S
C355 C356 1.403 . S
C356 C355 1.403 . S
C356 C357 1.404 . S
C356 C359 1.539 . S
C357 C353 1.408 . S
C357 C356 1.404 . S
C357 H369 0.930 . S
C358 C354 1.524 . S
C358 H370 0.956 . S
C358 H371 0.961 . S
C358 H372 0.961 . S
C359 C356 1.539 . S
C359 H373 0.958 . S
C359 H374 0.961 . S
C359 H375 0.960 . S
H360 C344 0.931 . S
H361 C349 0.929 . S
H362 C350 0.960 . S
H363 C350 0.962 . S
H364 C350 0.960 . S
H365 C351 0.961 . S
H366 C351 0.961 . S
H367 C351 0.961 1_455 S
H368 C352 0.931 . S
H369 C357 0.930 . S
H370 C358 0.956 . S
H371 C358 0.961 . S
H372 C358 0.961 . S
H373 C359 0.958 . S
H374 C359 0.961 . S
H375 C359 0.960 . S
C376 C377 1.391 . S
C376 C378 1.394 . S
C376 H392 0.931 . S
C377 C376 1.391 . S
C377 C381 1.376 1_565 S
C378 C376 1.394 . S
C378 C379 1.369 . S
C378 C382 1.531 . S
C379 C378 1.369 . S
C379 C380 1.410 1_565 S
C379 C387 1.503 . S
C380 C379 1.410 1_545 S
C380 C381 1.392 . S
C380 C383 1.511 . S
C381 C377 1.376 1_545 S
C381 C380 1.392 . S
C381 H393 0.929 . S
C382 C378 1.531 . S
C382 H394 0.960 . S
C382 H395 0.962 . S
C382 H396 0.960 . S
C383 C380 1.511 . S
C383 H397 0.961 . S
C383 H398 0.961 1_554 S
C383 H399 0.961 1_554 S
C384 C385 1.352 1_545 S
C384 C386 1.363 1_556 S
C384 H400 0.931 . S
C385 C384 1.352 1_565 S
C385 C389 1.430 . S
C386 C384 1.363 1_554 S
C386 C387 1.370 1_545 S
C386 C390 1.524 . S
C387 C379 1.503 . S
C387 C386 1.370 1_565 S
C387 C388 1.403 1_554 S
C388 C387 1.403 1_556 S
C388 C389 1.404 . S
C388 C391 1.539 . S
C389 C385 1.430 . S
C389 C388 1.404 . S
C389 H401 0.930 . S
C390 C386 1.524 . S
C390 H402 0.956 . S
C390 H403 0.961 . S
C390 H404 0.961 . S
C391 C388 1.539 . S
C391 H405 0.958 . S
C391 H406 0.961 . S
C391 H407 0.960 . S
H392 C376 0.931 . S
H393 C381 0.929 . S
H394 C382 0.960 . S
H395 C382 0.962 . S
H396 C382 0.960 . S
H397 C383 0.961 . S
H398 C383 0.961 1_556 S
H399 C383 0.961 1_556 S
H400 C384 0.931 . S
H401 C389 0.930 . S
H402 C390 0.956 . S
H403 C390 0.961 . S
H404 C390 0.961 . S
H405 C391 0.958 . S
H406 C391 0.961 . S
H407 C391 0.960 . S
C408 C409 1.391 . S
C408 C410 1.394 . S
C408 H424 0.931 . S
C409 C408 1.391 . S
C409 C413 1.376 . S
C410 C408 1.394 . S
C410 C411 1.369 . S
C410 C414 1.531 . S
C411 C410 1.369 . S
C411 C412 1.410 . S
C411 C419 1.503 . S
C412 C411 1.410 . S
C412 C413 1.392 . S
C412 C415 1.511 1_554 S
C413 C409 1.376 . S
C413 C412 1.392 . S
C413 H425 0.929 . S
C414 C410 1.531 . S
C414 H426 0.960 . S
C414 H427 0.962 . S
C414 H428 0.960 . S
C415 C412 1.511 1_556 S
C415 H429 0.961 1_556 S
C415 H430 0.961 . S
C415 H431 0.961 . S
C416 C417 1.370 . S
C416 C418 1.363 1_556 S
C416 H432 0.931 . S
C417 C416 1.370 . S
C417 C421 1.408 . S
C418 C416 1.363 1_554 S
C418 C419 1.370 . S
C418 C422 1.524 . S
C419 C411 1.503 . S
C419 C418 1.370 . S
C419 C420 1.403 1_554 S
C420 C419 1.403 1_556 S
C420 C421 1.404 . S
C420 C423 1.539 . S
C421 C417 1.408 . S
C421 C420 1.404 . S
C421 H433 0.930 . S
C422 C418 1.524 . S
C422 H434 0.956 . S
C422 H435 0.961 . S
C422 H436 0.961 . S
C423 C420 1.539 . S
C423 H437 0.958 . S
C423 H438 0.961 . S
C423 H439 0.960 . S
H424 C408 0.931 . S
H425 C413 0.929 . S
H426 C414 0.960 . S
H427 C414 0.962 . S
H428 C414 0.960 . S
H429 C415 0.961 1_554 S
H430 C415 0.961 . S
H431 C415 0.961 . S
H432 C416 0.931 . S
H433 C421 0.930 . S
H434 C422 0.956 . S
H435 C422 0.961 . S
H436 C422 0.961 . S
H437 C423 0.958 . S
H438 C423 0.961 . S
H439 C423 0.960 . S
C440 C441 1.391 . S
C440 C442 1.394 . S
C440 H456 0.931 . S
C441 C440 1.391 . S
C441 C445 1.376 . S
C442 C440 1.394 . S
C442 C443 1.369 . S
C442 C446 1.531 . S
C443 C442 1.369 . S
C443 C444 1.410 . S
C443 C451 1.503 . S
C444 C443 1.410 . S
C444 C445 1.392 . S
C444 C447 1.511 . S
C445 C441 1.376 . S
C445 C444 1.392 . S
C445 H457 0.929 . S
C446 C442 1.531 . S
C446 H458 0.960 1_554 S
C446 H459 0.962 1_554 S
C446 H460 0.960 . S
C447 C444 1.511 . S
C447 H461 0.961 . S
C447 H462 0.961 . S
C447 H463 0.961 . S
C448 C449 1.370 . S
C448 C450 1.363 . S
C448 H464 0.931 . S
C449 C448 1.370 . S
C449 C453 1.408 . S
C450 C448 1.363 . S
C450 C451 1.370 1_556 S
C450 C454 1.524 . S
C451 C443 1.503 . S
C451 C450 1.370 1_554 S
C451 C452 1.403 . S
C452 C451 1.403 . S
C452 C453 1.404 1_554 S
C452 C455 1.539 . S
C453 C449 1.408 . S
C453 C452 1.404 1_556 S
C453 H465 0.930 . S
C454 C450 1.524 . S
C454 H466 0.956 . S
C454 H467 0.961 1_556 S
C454 H468 0.961 . S
C455 C452 1.539 . S
C455 H469 0.958 . S
C455 H470 0.961 . S
C455 H471 0.960 . S
H456 C440 0.931 . S
H457 C445 0.929 . S
H458 C446 0.960 1_556 S
H459 C446 0.962 1_556 S
H460 C446 0.960 . S
H461 C447 0.961 . S
H462 C447 0.961 . S
H463 C447 0.961 . S
H464 C448 0.931 . S
H465 C453 0.930 . S
H466 C454 0.956 . S
H467 C454 0.961 1_554 S
H468 C454 0.961 . S
H469 C455 0.958 . S
H470 C455 0.961 . S
H471 C455 0.960 . S
C472 C473 1.391 . S
C472 C474 1.394 . S
C472 H488 0.934 . S
C473 C472 1.391 . S
C473 C477 1.376 . S
C474 C472 1.394 . S
C474 C475 1.369 . S
C474 C478 1.531 1_554 S
C475 C474 1.369 . S
C475 C476 1.410 . S
C475 C483 1.503 . S
C476 C475 1.410 . S
C476 C477 1.392 . S
C476 C479 1.511 . S
C477 C473 1.376 . S
C477 C476 1.392 . S
C477 H489 0.929 . S
C478 C474 1.531 1_556 S
C478 H490 0.960 . S
C478 H491 0.962 1_455 S
C478 H492 0.960 . S
C479 C476 1.511 . S
C479 H493 0.961 . S
C479 H494 0.982 . S
C479 H495 0.961 . S
C480 C481 1.370 . S
C480 C482 1.363 . S
C480 H496 0.931 . S
C481 C480 1.370 . S
C481 C485 1.409 1_655 S
C482 C480 1.363 . S
C482 C483 1.370 1_656 S
C482 C486 1.524 1_556 S
C483 C475 1.503 . S
C483 C482 1.370 1_454 S
C483 C484 1.403 1_554 S
C484 C483 1.403 1_556 S
C484 C485 1.404 . S
C484 C487 1.539 1_556 S
C485 C481 1.409 1_455 S
C485 C484 1.404 . S
C485 H497 0.930 . S
C486 C482 1.524 1_554 S
C486 H498 0.956 . S
C486 H499 0.961 . S
C486 H500 0.961 . S
C487 C484 1.539 1_554 S
C487 H501 0.958 1_554 S
C487 H502 0.961 1_554 S
C487 H503 0.960 . S
H488 C472 0.934 . S
H489 C477 0.929 . S
H490 C478 0.960 . S
H491 C478 0.962 1_655 S
H492 C478 0.960 . S
H493 C479 0.961 . S
H494 C479 0.982 . S
H495 C479 0.961 . S
H496 C480 0.931 . S
H497 C485 0.930 . S
H498 C486 0.956 . S
H499 C486 0.961 . S
H500 C486 0.961 . S
H501 C487 0.958 1_556 S
H502 C487 0.961 1_556 S
H503 C487 0.960 . S
C504 C505 1.393 . S
C504 C506 1.391 1_455 S
C504 H520 0.932 . S
C505 C504 1.393 . S
C505 C509 1.376 . S
C506 C504 1.391 1_655 S
C506 C507 1.369 . S
C506 C510 1.531 . S
C507 C506 1.369 . S
C507 C508 1.410 . S
C507 C515 1.503 . S
C508 C507 1.410 . S
C508 C509 1.392 1_655 S
C508 C511 1.511 . S
C509 C505 1.376 . S
C509 C508 1.392 1_455 S
C509 H521 0.929 . S
C510 C506 1.531 . S
C510 H522 0.960 . S
C510 H523 0.962 . S
C510 H524 0.960 1_655 S
C511 C508 1.511 . S
C511 H525 0.961 . S
C511 H526 0.961 . S
C511 H527 0.961 1_655 S
C512 C513 1.370 . S
C512 C514 1.363 . S
C512 H528 0.931 . S
C513 C512 1.370 . S
C513 C517 1.408 . S
C514 C512 1.363 . S
C514 C515 1.370 . S
C514 C518 1.524 . S
C515 C507 1.503 . S
C515 C514 1.370 . S
C515 C516 1.403 1_655 S
C516 C515 1.403 1_455 S
C516 C517 1.404 1_455 S
C516 C519 1.539 . S
C517 C513 1.408 . S
C517 C516 1.404 1_655 S
C517 H529 0.930 1_655 S
C518 C514 1.524 . S
C518 H530 0.956 . S
C518 H531 0.961 . S
C518 H532 0.961 . S
C519 C516 1.539 . S
C519 H533 0.958 . S
C519 H534 0.961 . S
C519 H535 0.960 . S
H520 C504 0.932 . S
H521 C509 0.929 . S
H522 C510 0.960 . S
H523 C510 0.962 . S
H524 C510 0.960 1_455 S
H525 C511 0.961 . S
H526 C511 0.961 . S
H527 C511 0.961 1_455 S
H528 C512 0.931 . S
H529 C517 0.930 1_455 S
H530 C518 0.956 . S
H531 C518 0.961 . S
H532 C518 0.961 . S
H533 C519 0.958 . S
H534 C519 0.961 . S
H535 C519 0.960 . S
C536 C537 1.391 1_565 S
C536 C538 1.394 . S
C536 H552 0.931 . S
C537 C536 1.391 1_545 S
C537 C541 1.376 . S
C538 C536 1.394 . S
C538 C539 1.369 . S
C538 C542 1.531 . S
C539 C538 1.369 . S
C539 C540 1.410 1_565 S
C539 C547 1.503 . S
C540 C539 1.410 1_545 S
C540 C541 1.392 . S
C540 C543 1.511 . S
C541 C537 1.376 . S
C541 C540 1.392 . S
C541 H553 0.929 . S
C542 C538 1.531 . S
C542 H554 0.960 . S
C542 H555 0.962 . S
C542 H556 0.960 . S
C543 C540 1.511 . S
C543 H557 0.962 . S
C543 H558 0.961 1_545 S
C543 H559 0.961 . S
C544 C545 1.370 . S
C544 C546 1.363 . S
C544 H560 0.931 . S
C545 C544 1.370 . S
C545 C549 1.408 . S
C546 C544 1.363 . S
C546 C547 1.370 . S
C546 C550 1.524 . S
C547 C539 1.503 . S
C547 C546 1.370 . S
C547 C548 1.403 1_565 S
C548 C547 1.403 1_545 S
C548 C549 1.404 1_545 S
C548 C551 1.539 . S
C549 C545 1.408 . S
C549 C548 1.404 1_565 S
C549 H561 0.930 1_565 S
C550 C546 1.524 . S
C550 H562 0.956 . S
C550 H563 0.961 . S
C550 H564 0.961 . S
C551 C548 1.539 . S
C551 H565 0.958 . S
C551 H566 0.961 . S
C551 H567 0.960 . S
H552 C536 0.931 . S
H553 C541 0.929 . S
H554 C542 0.960 . S
H555 C542 0.962 . S
H556 C542 0.960 . S
H557 C543 0.962 . S
H558 C543 0.961 1_565 S
H559 C543 0.961 . S
H560 C544 0.931 . S
H561 C549 0.930 1_545 S
H562 C550 0.956 . S
H563 C550 0.961 . S
H564 C550 0.961 . S
H565 C551 0.958 . S
H566 C551 0.961 . S
H567 C551 0.960 . S
C568 C569 1.391 . S
C568 C570 1.394 . S
C568 H584 0.931 . S
C569 C568 1.391 . S
C569 C573 1.376 . S
C570 C568 1.394 . S
C570 C571 1.369 . S
C570 C574 1.531 . S
C571 C570 1.369 . S
C571 C572 1.410 . S
C571 C579 1.503 . S
C572 C571 1.410 . S
C572 C573 1.392 . S
C572 C575 1.511 . S
C573 C569 1.376 . S
C573 C572 1.392 . S
C573 H585 0.929 . S
C574 C570 1.531 . S
C574 H586 0.960 . S
C574 H587 0.962 . S
C574 H588 0.960 . S
C575 C572 1.511 . S
C575 H589 0.961 . S
C575 H590 0.961 . S
C575 H591 0.961 . S
C576 C577 1.370 . S
C576 C578 1.363 . S
C576 H592 0.931 . S
C577 C576 1.370 . S
C577 C581 1.408 . S
C578 C576 1.363 . S
C578 C579 1.370 . S
C578 C582 1.524 . S
C579 C571 1.503 . S
C579 C578 1.370 . S
C579 C580 1.403 . S
C580 C579 1.403 . S
C580 C581 1.404 . S
C580 C583 1.539 . S
C581 C577 1.408 . S
C581 C580 1.404 . S
C581 H593 0.930 . S
C582 C578 1.524 . S
C582 H594 0.956 . S
C582 H595 0.961 . S
C582 H596 0.961 . S
C583 C580 1.539 . S
C583 H597 0.958 . S
C583 H598 0.961 . S
C583 H599 0.960 . S
H584 C568 0.931 . S
H585 C573 0.929 . S
H586 C574 0.960 . S
H587 C574 0.962 . S
H588 C574 0.960 . S
H589 C575 0.961 . S
H590 C575 0.961 . S
H591 C575 0.961 . S
H592 C576 0.931 . S
H593 C581 0.930 . S
H594 C582 0.956 . S
H595 C582 0.961 . S
H596 C582 0.961 . S
H597 C583 0.958 . S
H598 C583 0.961 . S
H599 C583 0.960 . S
C600 C601 1.391 . S
C600 C602 1.394 . S
C600 H616 0.931 . S
C601 C600 1.391 . S
C601 C605 1.376 . S
C602 C600 1.394 . S
C602 C603 1.369 . S
C602 C606 1.531 . S
C603 C602 1.369 . S
C603 C604 1.410 . S
C603 C611 1.503 . S
C604 C603 1.410 . S
C604 C605 1.392 . S
C604 C607 1.511 . S
C605 C601 1.376 . S
C605 C604 1.392 . S
C605 H617 0.929 . S
C606 C602 1.531 . S
C606 H618 0.960 . S
C606 H619 0.962 . S
C606 H620 0.960 . S
C607 C604 1.511 . S
C607 H621 0.961 . S
C607 H622 0.961 . S
C607 H623 0.961 . S
C608 C609 1.370 . S
C608 C610 1.363 . S
C608 H624 0.931 . S
C609 C608 1.370 . S
C609 C613 1.408 . S
C610 C608 1.363 . S
C610 C611 1.370 . S
C610 C614 1.524 . S
C611 C603 1.503 . S
C611 C610 1.370 . S
C611 C612 1.403 . S
C612 C611 1.403 . S
C612 C613 1.404 . S
C612 C615 1.539 . S
C613 C609 1.408 . S
C613 C612 1.404 . S
C613 H625 0.930 . S
C614 C610 1.524 . S
C614 H626 0.956 . S
C614 H627 0.961 . S
C614 H628 0.961 . S
C615 C612 1.539 . S
C615 H629 0.958 . S
C615 H630 0.961 . S
C615 H631 0.960 . S
H616 C600 0.931 . S
H617 C605 0.929 . S
H618 C606 0.960 . S
H619 C606 0.962 . S
H620 C606 0.960 . S
H621 C607 0.961 . S
H622 C607 0.961 . S
H623 C607 0.961 . S
H624 C608 0.931 . S
H625 C613 0.930 . S
H626 C614 0.956 . S
H627 C614 0.961 . S
H628 C614 0.961 . S
H629 C615 0.958 . S
H630 C615 0.961 . S
H631 C615 0.960 . S
C632 C633 1.391 1_455 S
C632 C634 1.394 . S
C632 H648 0.931 . S
C633 C632 1.391 1_655 S
C633 C637 1.376 . S
C634 C632 1.394 . S
C634 C635 1.369 . S
C634 C638 1.531 . S
C635 C634 1.369 . S
C635 C636 1.410 1_455 S
C635 C643 1.503 . S
C636 C635 1.410 1_655 S
C636 C637 1.392 . S
C636 C639 1.511 . S
C637 C633 1.376 . S
C637 C636 1.392 . S
C637 H649 0.929 . S
C638 C634 1.531 . S
C638 H650 0.960 . S
C638 H651 0.962 . S
C638 H652 0.960 . S
C639 C636 1.511 . S
C639 H653 0.961 . S
C639 H654 0.961 1_655 S
C639 H655 0.961 . S
C640 C641 1.370 . S
C640 C642 1.363 . S
C640 H656 0.931 . S
C641 C640 1.370 . S
C641 C645 1.408 . S
C642 C640 1.363 . S
C642 C643 1.370 . S
C642 C646 1.524 . S
C643 C635 1.503 . S
C643 C642 1.370 . S
C643 C644 1.403 1_455 S
C644 C643 1.403 1_655 S
C644 C645 1.404 1_655 S
C644 C647 1.539 . S
C645 C641 1.408 . S
C645 C644 1.404 1_455 S
C645 H657 0.930 1_454 S
C646 C642 1.524 . S
C646 H658 0.956 . S
C646 H659 0.961 . S
C646 H660 0.961 . S
C647 C644 1.539 . S
C647 H661 0.958 . S
C647 H662 0.961 . S
C647 H663 0.960 . S
H648 C632 0.931 . S
H649 C637 0.929 . S
H650 C638 0.960 . S
H651 C638 0.962 . S
H652 C638 0.960 . S
H653 C639 0.961 . S
H654 C639 0.961 1_455 S
H655 C639 0.961 . S
H656 C640 0.931 . S
H657 C645 0.930 1_656 S
H658 C646 0.956 . S
H659 C646 0.961 . S
H660 C646 0.961 . S
H661 C647 0.958 . S
H662 C647 0.961 . S
H663 C647 0.960 . S
C664 C665 1.391 1_545 S
C664 C666 1.394 . S
C664 H680 0.933 . S
C665 C664 1.391 1_565 S
C665 C669 1.376 . S
C666 C664 1.394 . S
C666 C667 1.369 . S
C666 C670 1.531 . S
C667 C666 1.369 . S
C667 C668 1.412 . S
C667 C675 1.503 . S
C668 C667 1.412 . S
C668 C669 1.390 1_545 S
C668 C671 1.510 1_545 S
C669 C665 1.376 . S
C669 C668 1.390 1_565 S
C669 H681 0.929 . S
C670 C666 1.531 . S
C670 H682 0.960 . S
C670 H683 0.962 . S
C670 H684 0.960 . S
C671 C668 1.510 1_565 S
C671 H685 0.953 1_565 S
C671 H686 0.941 1_565 S
C671 H687 0.990 . S
C672 C673 1.370 . S
C672 C674 1.363 . S
C672 H688 0.931 . S
C673 C672 1.370 . S
C673 C677 1.408 . S
C674 C672 1.363 . S
C674 C675 1.370 . S
C674 C678 1.524 . S
C675 C667 1.503 . S
C675 C674 1.370 . S
C675 C676 1.403 1_545 S
C676 C675 1.403 1_565 S
C676 C677 1.404 1_565 S
C676 C679 1.539 . S
C677 C673 1.408 . S
C677 C676 1.404 1_545 S
C677 H689 0.930 1_545 S
C678 C674 1.524 . S
C678 H690 0.956 . S
C678 H691 0.961 . S
C678 H692 0.961 . S
C679 C676 1.539 . S
C679 H693 0.958 . S
C679 H694 0.961 . S
C679 H695 0.960 . S
H680 C664 0.933 . S
H681 C669 0.929 . S
H682 C670 0.960 . S
H683 C670 0.962 . S
H684 C670 0.960 . S
H685 C671 0.953 1_545 S
H686 C671 0.941 1_545 S
H687 C671 0.990 . S
H688 C672 0.931 . S
H689 C677 0.930 1_565 S
H690 C678 0.956 . S
H691 C678 0.961 . S
H692 C678 0.961 . S
H693 C679 0.958 . S
H694 C679 0.961 . S
H695 C679 0.960 . S
C696 C697 1.391 . S
C696 C698 1.394 . S
C696 H712 0.931 . S
C697 C696 1.391 . S
C697 C701 1.376 . S
C698 C696 1.394 . S
C698 C699 1.369 . S
C698 C702 1.531 . S
C699 C698 1.369 . S
C699 C700 1.410 . S
C699 C707 1.503 . S
C700 C699 1.410 . S
C700 C701 1.392 . S
C700 C703 1.511 . S
C701 C697 1.376 . S
C701 C700 1.392 . S
C701 H713 0.929 . S
C702 C698 1.531 . S
C702 H714 0.960 . S
C702 H715 0.962 . S
C702 H716 0.960 . S
C703 C700 1.511 . S
C703 H717 0.961 . S
C703 H718 0.961 . S
C703 H719 0.961 . S
C704 C705 1.370 . S
C704 C706 1.363 . S
C704 H720 0.931 . S
C705 C704 1.370 . S
C705 C709 1.408 . S
C706 C704 1.363 . S
C706 C707 1.370 . S
C706 C710 1.524 . S
C707 C699 1.503 . S
C707 C706 1.370 . S
C707 C708 1.403 . S
C708 C707 1.403 . S
C708 C709 1.404 . S
C708 C711 1.539 . S
C709 C705 1.408 . S
C709 C708 1.404 . S
C709 H721 0.930 . S
C710 C706 1.524 . S
C710 H722 0.956 . S
C710 H723 0.961 . S
C710 H724 0.961 . S
C711 C708 1.539 . S
C711 H725 0.958 . S
C711 H726 0.961 . S
C711 H727 0.960 . S
H712 C696 0.931 . S
H713 C701 0.929 . S
H714 C702 0.960 . S
H715 C702 0.962 . S
H716 C702 0.960 . S
H717 C703 0.961 . S
H718 C703 0.961 . S
H719 C703 0.961 . S
H720 C704 0.931 . S
H721 C709 0.930 . S
H722 C710 0.956 . S
H723 C710 0.961 . S
H724 C710 0.961 . S
H725 C711 0.958 . S
H726 C711 0.961 . S
H727 C711 0.960 . S
C728 C729 1.391 . S
C728 C730 1.394 . S
C728 H744 0.931 . S
C729 C728 1.391 . S
C729 C733 1.376 . S
C730 C728 1.394 . S
C730 C731 1.369 . S
C730 C734 1.531 . S
C731 C730 1.369 . S
C731 C732 1.410 . S
C731 C739 1.503 . S
C732 C731 1.410 . S
C732 C733 1.392 . S
C732 C735 1.511 . S
C733 C729 1.376 . S
C733 C732 1.392 . S
C733 H745 0.929 . S
C734 C730 1.531 . S
C734 H746 0.960 . S
C734 H747 0.962 . S
C734 H748 0.960 . S
C735 C732 1.511 . S
C735 H749 0.961 . S
C735 H750 0.961 . S
C735 H751 0.961 . S
C736 C737 1.370 . S
C736 C738 1.363 . S
C736 H752 0.931 . S
C737 C736 1.370 . S
C737 C741 1.408 1_554 S
C738 C736 1.363 . S
C738 C739 1.370 . S
C738 C742 1.524 . S
C739 C731 1.503 . S
C739 C738 1.370 . S
C739 C740 1.403 . S
C740 C739 1.403 . S
C740 C741 1.404 1_554 S
C740 C743 1.539 . S
C741 C737 1.408 1_556 S
C741 C740 1.404 1_556 S
C741 H753 0.930 . S
C742 C738 1.524 . S
C742 H754 0.956 . S
C742 H755 0.961 . S
C742 H756 0.961 . S
C743 C740 1.539 . S
C743 H757 0.958 . S
C743 H758 0.961 1_554 S
C743 H759 0.960 . S
H744 C728 0.931 . S
H745 C733 0.929 . S
H746 C734 0.960 . S
H747 C734 0.962 . S
H748 C734 0.960 . S
H749 C735 0.961 . S
H750 C735 0.961 . S
H751 C735 0.961 . S
H752 C736 0.931 . S
H753 C741 0.930 . S
H754 C742 0.956 . S
H755 C742 0.961 . S
H756 C742 0.961 . S
H757 C743 0.958 . S
H758 C743 0.961 1_556 S
H759 C743 0.960 . S
C760 C761 1.419 . S
C760 C762 1.394 . S
C760 H776 0.931 . S
C761 C760 1.419 . S
C761 C765 1.349 1_455 S
C762 C760 1.394 . S
C762 C763 1.369 . S
C762 C766 1.531 . S
C763 C762 1.369 . S
C763 C764 1.410 1_455 S
C763 C771 1.503 . S
C764 C763 1.410 1_655 S
C764 C765 1.392 . S
C764 C767 1.511 . S
C765 C761 1.349 1_655 S
C765 C764 1.392 . S
C765 H777 0.929 . S
C766 C762 1.531 . S
C766 H778 0.960 . S
C766 H779 0.962 . S
C766 H780 0.960 . S
C767 C764 1.511 . S
C767 H781 0.961 . S
C767 H782 0.961 . S
C767 H783 0.961 . S
C768 C769 1.370 . S
C768 C770 1.363 . S
C768 H784 0.931 . S
C769 C768 1.370 . S
C769 C773 1.408 1_455 S
C770 C768 1.363 . S
C770 C771 1.370 . S
C770 C774 1.524 . S
C771 C763 1.503 . S
C771 C770 1.370 . S
C771 C772 1.403 1_455 S
C772 C771 1.403 1_655 S
C772 C773 1.404 . S
C772 C775 1.539 . S
C773 C769 1.408 1_655 S
C773 C772 1.404 . S
C773 H785 0.930 . S
C774 C770 1.524 . S
C774 H786 0.956 . S
C774 H787 0.961 . S
C774 H788 0.961 . S
C775 C772 1.539 . S
C775 H789 0.958 1_556 S
C775 H790 0.961 . S
C775 H791 0.960 . S
H776 C760 0.931 . S
H777 C765 0.929 . S
H778 C766 0.960 . S
H779 C766 0.962 . S
H780 C766 0.960 . S
H781 C767 0.961 . S
H782 C767 0.961 . S
H783 C767 0.961 . S
H784 C768 0.931 . S
H785 C773 0.930 . S
H786 C774 0.956 . S
H787 C774 0.961 . S
H788 C774 0.961 . S
H789 C775 0.958 1_554 S
H790 C775 0.961 . S
H791 C775 0.960 . S
C792 C793 1.397 . S
C792 C794 1.394 . S
C792 H808 0.931 . S
C793 C792 1.397 . S
C793 C797 1.371 1_565 S
C794 C792 1.394 . S
C794 C795 1.369 . S
C794 C798 1.531 . S
C795 C794 1.369 . S
C795 C796 1.410 1_565 S
C795 C803 1.503 1_565 S
C796 C795 1.410 1_545 S
C796 C797 1.392 . S
C796 C799 1.511 . S
C797 C793 1.371 1_545 S
C797 C796 1.392 . S
C797 H809 0.929 . S
C798 C794 1.531 . S
C798 H810 0.960 . S
C798 H811 0.962 1_556 S
C798 H812 0.962 . S
C799 C796 1.511 . S
C799 H813 0.961 . S
C799 H814 0.961 . S
C799 H815 0.964 . S
C800 C801 1.370 . S
C800 C802 1.363 . S
C800 H816 0.931 . S
C801 C800 1.370 . S
C801 C805 1.408 1_545 S
C802 C800 1.363 . S
C802 C803 1.370 . S
C802 C806 1.524 . S
C803 C795 1.503 1_545 S
C803 C802 1.370 . S
C803 C804 1.403 1_545 S
C804 C803 1.403 1_565 S
C804 C805 1.404 . S
C804 C807 1.539 . S
C805 C801 1.408 1_565 S
C805 C804 1.404 . S
C805 H817 0.930 . S
C806 C802 1.524 . S
C806 H818 0.956 . S
C806 H819 0.961 . S
C806 H820 0.961 . S
C807 C804 1.539 . S
C807 H821 0.958 . S
C807 H822 0.961 . S
C807 H823 0.960 . S
H808 C792 0.931 . S
H809 C797 0.929 . S
H810 C798 0.960 . S
H811 C798 0.962 1_554 S
H812 C798 0.962 . S
H813 C799 0.961 . S
H814 C799 0.961 . S
H815 C799 0.964 . S
H816 C800 0.931 . S
H817 C805 0.930 . S
H818 C806 0.956 . S
H819 C806 0.961 . S
H820 C806 0.961 . S
H821 C807 0.958 . S
H822 C807 0.961 . S
H823 C807 0.960 . S
C824 C825 1.391 . S
C824 C826 1.394 . S
C824 H840 0.931 . S
C825 C824 1.391 . S
C825 C829 1.376 . S
C826 C824 1.394 . S
C826 C827 1.369 . S
C826 C830 1.531 . S
C827 C826 1.369 . S
C827 C828 1.410 . S
C827 C835 1.503 . S
C828 C827 1.410 . S
C828 C829 1.392 . S
C828 C831 1.511 . S
C829 C825 1.376 . S
C829 C828 1.392 . S
C829 H841 0.929 . S
C830 C826 1.531 . S
C830 H842 0.960 . S
C830 H843 0.962 . S
C830 H844 0.960 . S
C831 C828 1.511 . S
C831 H845 0.961 . S
C831 H846 0.961 . S
C831 H847 0.961 . S
C832 C833 1.370 . S
C832 C834 1.363 . S
C832 H848 0.931 . S
C833 C832 1.370 . S
C833 C837 1.408 . S
C834 C832 1.363 . S
C834 C835 1.370 . S
C834 C838 1.524 . S
C835 C827 1.503 . S
C835 C834 1.370 . S
C835 C836 1.403 . S
C836 C835 1.403 . S
C836 C837 1.404 . S
C836 C839 1.539 . S
C837 C833 1.408 . S
C837 C836 1.404 . S
C837 H849 0.930 . S
C838 C834 1.524 . S
C838 H850 0.956 . S
C838 H851 0.961 . S
C838 H852 0.961 . S
C839 C836 1.539 . S
C839 H853 0.958 . S
C839 H854 0.961 . S
C839 H855 0.960 . S
H840 C824 0.931 . S
H841 C829 0.929 . S
H842 C830 0.960 . S
H843 C830 0.962 . S
H844 C830 0.960 . S
H845 C831 0.961 . S
H846 C831 0.961 . S
H847 C831 0.961 . S
H848 C832 0.931 . S
H849 C837 0.930 . S
H850 C838 0.956 . S
H851 C838 0.961 . S
H852 C838 0.961 . S
H853 C839 0.958 . S
H854 C839 0.961 . S
H855 C839 0.960 . S
C856 C857 1.391 . S
C856 C858 1.394 . S
C856 H872 0.931 . S
C857 C856 1.391 . S
C857 C861 1.376 . S
C858 C856 1.394 . S
C858 C859 1.369 . S
C858 C862 1.531 . S
C859 C858 1.369 . S
C859 C860 1.410 . S
C859 C867 1.503 . S
C860 C859 1.410 . S
C860 C861 1.392 . S
C860 C863 1.511 . S
C861 C857 1.376 . S
C861 C860 1.392 . S
C861 H873 0.929 . S
C862 C858 1.531 . S
C862 H874 0.960 . S
C862 H875 0.962 . S
C862 H876 0.960 . S
C863 C860 1.511 . S
C863 H877 0.961 . S
C863 H878 0.961 . S
C863 H879 0.961 . S
C864 C865 1.370 . S
C864 C866 1.363 . S
C864 H880 0.931 . S
C865 C864 1.370 . S
C865 C869 1.408 . S
C866 C864 1.363 . S
C866 C867 1.370 . S
C866 C870 1.524 . S
C867 C859 1.503 . S
C867 C866 1.370 . S
C867 C868 1.403 . S
C868 C867 1.403 . S
C868 C869 1.404 . S
C868 C871 1.539 . S
C869 C865 1.408 . S
C869 C868 1.404 . S
C869 H881 0.930 . S
C870 C866 1.524 . S
C870 H882 0.956 . S
C870 H883 0.961 . S
C870 H884 0.961 . S
C871 C868 1.539 . S
C871 H885 0.958 . S
C871 H886 0.961 . S
C871 H887 0.960 . S
H872 C856 0.931 . S
H873 C861 0.929 . S
H874 C862 0.960 . S
H875 C862 0.962 . S
H876 C862 0.960 . S
H877 C863 0.961 . S
H878 C863 0.961 . S
H879 C863 0.961 . S
H880 C864 0.931 . S
H881 C869 0.930 . S
H882 C870 0.956 . S
H883 C870 0.961 . S
H884 C870 0.961 . S
H885 C871 0.958 . S
H886 C871 0.961 . S
H887 C871 0.960 . S
C888 C889 1.391 1_455 S
C888 C890 1.394 . S
C888 H904 0.931 . S
C889 C888 1.391 1_655 S
C889 C893 1.376 . S
C890 C888 1.394 . S
C890 C891 1.369 1_455 S
C890 C894 1.531 . S
C891 C890 1.369 1_655 S
C891 C892 1.410 . S
C891 C899 1.503 . S
C892 C891 1.410 . S
C892 C893 1.392 . S
C892 C895 1.511 . S
C893 C889 1.376 . S
C893 C892 1.392 . S
C893 H905 0.929 . S
C894 C890 1.531 . S
C894 H906 0.960 . S
C894 H907 0.962 . S
C894 H908 0.960 . S
C895 C892 1.511 . S
C895 H909 0.961 . S
C895 H910 0.961 . S
C895 H911 0.961 . S
C896 C897 1.370 1_455 S
C896 C898 1.363 . S
C896 H912 0.931 . S
C897 C896 1.370 1_655 S
C897 C901 1.408 . S
C898 C896 1.363 . S
C898 C899 1.370 1_455 S
C898 C902 1.524 . S
C899 C891 1.503 . S
C899 C898 1.370 1_655 S
C899 C900 1.403 . S
C900 C899 1.403 . S
C900 C901 1.404 . S
C900 C903 1.539 . S
C901 C897 1.408 . S
C901 C900 1.404 . S
C901 H913 0.930 . S
C902 C898 1.524 . S
C902 H914 0.956 . S
C902 H915 0.961 . S
C902 H916 0.961 . S
C903 C900 1.539 . S
C903 H917 0.958 . S
C903 H918 0.961 . S
C903 H919 0.960 . S
H904 C888 0.931 . S
H905 C893 0.929 . S
H906 C894 0.960 . S
H907 C894 0.962 . S
H908 C894 0.960 . S
H909 C895 0.961 . S
H910 C895 0.961 . S
H911 C895 0.961 . S
H912 C896 0.931 . S
H913 C901 0.930 . S
H914 C902 0.956 . S
H915 C902 0.961 . S
H916 C902 0.961 . S
H917 C903 0.958 . S
H918 C903 0.961 . S
H919 C903 0.960 . S
C920 C921 1.391 . S
C920 C922 1.394 . S
C920 H936 0.931 . S
C921 C920 1.391 . S
C921 C925 1.376 1_565 S
C922 C920 1.394 . S
C922 C923 1.369 . S
C922 C926 1.531 . S
C923 C922 1.369 . S
C923 C924 1.410 . S
C923 C931 1.503 . S
C924 C923 1.410 . S
C924 C925 1.392 1_565 S
C924 C927 1.511 1_565 S
C925 C921 1.376 1_545 S
C925 C924 1.392 1_545 S
C925 H937 0.929 . S
C926 C922 1.531 . S
C926 H938 0.960 . S
C926 H939 0.962 . S
C926 H940 0.960 . S
C927 C924 1.511 1_545 S
C927 H941 0.961 . S
C927 H942 0.961 . S
C927 H943 0.961 1_545 S
C928 C929 1.370 1_545 S
C928 C930 1.363 . S
C928 H944 0.931 . S
C929 C928 1.370 1_565 S
C929 C933 1.408 . S
C930 C928 1.363 . S
C930 C931 1.370 1_545 S
C930 C934 1.524 . S
C931 C923 1.503 . S
C931 C930 1.370 1_565 S
C931 C932 1.403 . S
C932 C931 1.403 . S
C932 C933 1.404 . S
C932 C935 1.539 . S
C933 C929 1.408 . S
C933 C932 1.404 . S
C933 H945 0.930 . S
C934 C930 1.524 . S
C934 H946 0.956 . S
C934 H947 0.961 . S
C934 H948 0.961 . S
C935 C932 1.539 . S
C935 H949 0.958 . S
C935 H950 0.961 . S
C935 H951 0.960 . S
H936 C920 0.931 . S
H937 C925 0.929 . S
H938 C926 0.960 . S
H939 C926 0.962 . S
H940 C926 0.960 . S
H941 C927 0.961 . S
H942 C927 0.961 . S
H943 C927 0.961 1_565 S
H944 C928 0.931 . S
H945 C933 0.930 . S
H946 C934 0.956 . S
H947 C934 0.961 . S
H948 C934 0.961 . S
H949 C935 0.958 . S
H950 C935 0.961 . S
H951 C935 0.960 . S
C952 C953 1.391 . S
C952 C954 1.394 . S
C952 H968 0.931 . S
C953 C952 1.391 . S
C953 C957 1.376 . S
C954 C952 1.394 . S
C954 C955 1.369 . S
C954 C958 1.531 . S
C955 C954 1.369 . S
C955 C956 1.410 . S
C955 C963 1.503 . S
C956 C955 1.410 . S
C956 C957 1.392 . S
C956 C959 1.511 . S
C957 C953 1.376 . S
C957 C956 1.392 . S
C957 H969 0.929 . S
C958 C954 1.531 . S
C958 H970 0.960 . S
C958 H971 0.962 . S
C958 H972 0.960 . S
C959 C956 1.511 . S
C959 H973 0.961 . S
C959 H974 0.961 . S
C959 H975 0.961 . S
C960 C961 1.370 . S
C960 C962 1.363 . S
C960 H976 0.931 . S
C961 C960 1.370 . S
C961 C965 1.408 . S
C962 C960 1.363 . S
C962 C963 1.370 . S
C962 C966 1.524 . S
C963 C955 1.503 . S
C963 C962 1.370 . S
C963 C964 1.403 . S
C964 C963 1.403 . S
C964 C965 1.404 . S
C964 C967 1.539 . S
C965 C961 1.408 . S
C965 C964 1.404 . S
C965 H977 0.930 . S
C966 C962 1.524 . S
C966 H978 0.956 . S
C966 H979 0.961 . S
C966 H980 0.961 . S
C967 C964 1.539 . S
C967 H981 0.958 . S
C967 H982 0.961 . S
C967 H983 0.960 . S
H968 C952 0.931 . S
H969 C957 0.929 . S
H970 C958 0.960 . S
H971 C958 0.962 . S
H972 C958 0.960 . S
H973 C959 0.961 . S
H974 C959 0.961 . S
H975 C959 0.961 . S
H976 C960 0.931 . S
H977 C965 0.930 . S
H978 C966 0.956 . S
H979 C966 0.961 . S
H980 C966 0.961 . S
H981 C967 0.958 . S
H982 C967 0.961 . S
H983 C967 0.960 . S
C984 C985 1.391 . S
C984 C986 1.394 . S
C984 H1000 0.931 . S
C985 C984 1.391 . S
C985 C989 1.376 . S
C986 C984 1.394 . S
C986 C987 1.369 . S
C986 C990 1.531 . S
C987 C986 1.369 . S
C987 C988 1.410 . S
C987 C995 1.503 . S
C988 C987 1.410 . S
C988 C989 1.392 . S
C988 C991 1.511 . S
C989 C985 1.376 . S
C989 C988 1.392 . S
C989 H1001 0.929 . S
C990 C986 1.531 . S
C990 H1002 0.960 . S
C990 H1003 0.962 . S
C990 H1004 0.960 . S
C991 C988 1.511 . S
C991 H1005 0.961 . S
C991 H1006 0.961 . S
C991 H1007 0.961 . S
C992 C993 1.370 . S
C992 C994 1.363 . S
C992 H1008 0.931 . S
C993 C992 1.370 . S
C993 C997 1.408 . S
C994 C992 1.363 . S
C994 C995 1.370 . S
C994 C998 1.524 . S
C995 C987 1.503 . S
C995 C994 1.370 . S
C995 C996 1.403 . S
C996 C995 1.403 . S
C996 C997 1.404 . S
C996 C999 1.539 . S
C997 C993 1.408 . S
C997 C996 1.404 . S
C997 H1009 0.930 . S
C998 C994 1.524 . S
C998 H1010 0.956 . S
C998 H1011 0.961 . S
C998 H1012 0.961 . S
C999 C996 1.539 . S
C999 H1013 0.958 . S
C999 H1014 0.961 . S
C999 H1015 0.960 . S
H1000 C984 0.931 . S
H1001 C989 0.929 . S
H1002 C990 0.960 . S
H1003 C990 0.962 . S
H1004 C990 0.960 . S
H1005 C991 0.961 . S
H1006 C991 0.961 . S
H1007 C991 0.961 . S
H1008 C992 0.931 . S
H1009 C997 0.930 . S
H1010 C998 0.956 . S
H1011 C998 0.961 . S
H1012 C998 0.961 . S
H1013 C999 0.958 . S
H1014 C999 0.961 . S
H1015 C999 0.960 . S
C249 C74 1.796 1_565 S
C257 C90 1.886 . S
C289 C130 1.902 . S
C281 C85 1.775 . S
C321 C170 1.897 . S
C313 C52 1.797 . S
C353 C210 1.898 1_455 S
C345 C63 1.789 . S
C385 C103 1.892 1_565 S
C377 C30 1.770 1_565 S
C409 C41 1.786 . S
C417 C143 1.904 . S
C441 C8 1.810 . S
C449 C183 1.898 . S
C473 C19 1.778 . S
C481 C223 1.892 1_655 S
C513 C114 0.558 . S
C505 C62 0.552 . S
C545 C154 0.565 . S
C537 C73 0.569 . S
C577 C194 0.568 . S
C569 C84 0.592 . S
C601 C51 0.610 . S
C609 C234 0.571 . S
C633 C18 0.673 1_655 S
C641 C97 0.562 . S
C673 C137 0.564 . S
C665 C29 0.678 1_565 S
C705 C177 0.603 . S
C697 C40 0.533 . S
C729 C7 0.544 . S
C737 C217 0.597 . S
C761 C60 1.720 . S
C769 C91 2.252 . S
C793 C71 1.749 1_565 S
C801 C131 2.237 . S
C833 C171 2.234 . S
C825 C82 1.698 . S
C865 C211 2.250 . S
C857 C49 1.696 . S
C889 C16 1.792 1_655 S
C897 C110 2.267 . S
C929 C150 2.243 . S
C921 C27 1.805 1_565 S
C961 C190 2.230 . S
C953 C38 1.739 . S
C985 C5 1.732 . S
C993 C230 2.256 . S
