# Generated by pormake.
# Topology anh, (6,3)-cn, num edge types: 1
# Building blocks:
#     Node 0, Type 0, BuildingBlock: HISSIN_clean_sbu_0, # of connection points: 6
#     Node 1, Type 0, BuildingBlock: HISSIN_clean_sbu_0, # of connection points: 6
#     Node 2, Type 0, BuildingBlock: HISSIN_clean_sbu_0, # of connection points: 6
#     Node 3, Type 1, BuildingBlock: OLANEW_clean_sbu_2, # of connection points: 3
#     Node 4, Type 1, BuildingBlock: OLANEW_clean_sbu_2, # of connection points: 3
#     Node 5, Type 1, BuildingBlock: OLANEW_clean_sbu_2, # of connection points: 3
#     Node 6, Type 1, BuildingBlock: OLANEW_clean_sbu_2, # of connection points: 3
#     Node 7, Type 1, BuildingBlock: OLANEW_clean_sbu_2, # of connection points: 3
#     Node 8, Type 1, BuildingBlock: OLANEW_clean_sbu_2, # of connection points: 3
#     Edge 9, Type (0, 1), BuildingBlock: MIFKUJ_clean_linker_0, # of connection points: 2
#     Edge 10, Type (0, 1), BuildingBlock: MIFKUJ_clean_linker_0, # of connection points: 2
#     Edge 11, Type (0, 1), BuildingBlock: MIFKUJ_clean_linker_0, # of connection points: 2
#     Edge 12, Type (0, 1), BuildingBlock: MIFKUJ_clean_linker_0, # of connection points: 2
#     Edge 13, Type (0, 1), BuildingBlock: MIFKUJ_clean_linker_0, # of connection points: 2
#     Edge 14, Type (0, 1), BuildingBlock: MIFKUJ_clean_linker_0, # of connection points: 2
#     Edge 15, Type (0, 1), BuildingBlock: MIFKUJ_clean_linker_0, # of connection points: 2
#     Edge 16, Type (0, 1), BuildingBlock: MIFKUJ_clean_linker_0, # of connection points: 2
#     Edge 17, Type (0, 1), BuildingBlock: MIFKUJ_clean_linker_0, # of connection points: 2
#     Edge 18, Type (0, 1), BuildingBlock: MIFKUJ_clean_linker_0, # of connection points: 2
#     Edge 19, Type (0, 1), BuildingBlock: MIFKUJ_clean_linker_0, # of connection points: 2
#     Edge 20, Type (0, 1), BuildingBlock: MIFKUJ_clean_linker_0, # of connection points: 2
#     Edge 21, Type (0, 1), BuildingBlock: MIFKUJ_clean_linker_0, # of connection points: 2
#     Edge 22, Type (0, 1), BuildingBlock: MIFKUJ_clean_linker_0, # of connection points: 2
#     Edge 23, Type (0, 1), BuildingBlock: MIFKUJ_clean_linker_0, # of connection points: 2
#     Edge 24, Type (0, 1), BuildingBlock: MIFKUJ_clean_linker_0, # of connection points: 2
#     Edge 25, Type (0, 1), BuildingBlock: MIFKUJ_clean_linker_0, # of connection points: 2
#     Edge 26, Type (0, 1), BuildingBlock: MIFKUJ_clean_linker_0, # of connection points: 2
# Relax obj value: 0.164
# Max RMSD: 0.125
# Mean RMSD: 0.108
data_MOF--net-anh--node1-HISSIN_clean_sbu_0--node2-OLANEW_clean_sbu_2--edge1-MIFKUJ_clean_linker_0
_symmetry_space_group_name_H-M    P1
_symmetry_Int_Tables_number       1
_symmetry_cell_setting            triclinic
loop_
_symmetry_equiv_pos_as_xyz
'x, y, z'
_cell_length_a     46.039568
_cell_length_b     46.140461
_cell_length_c     66.236777
_cell_angle_alpha  92.724056
_cell_angle_beta   90.600904
_cell_angle_gamma 120.00906
loop_
_atom_site_label
_atom_site_type_symbol
_atom_site_fract_x
_atom_site_fract_y
_atom_site_fract_z
_atom_type_partial_charge
Eu0 Eu 1.00135 0.47367 0.16096 0.0
Eu1 Eu 0.03987 0.55473 0.1717 0.0
C2 C 1.01026 0.5028 0.20643 0.0
C3 C 0.93624 0.38001 0.15602 0.0
C4 C 0.91425 0.38221 0.16971 0.0
C5 C 0.89335 0.32311 0.14566 0.0
C6 C 0.88195 0.35483 0.17142 0.0
C7 C 0.92563 0.35037 0.14405 0.0
C8 C 0.87113 0.32505 0.15932 0.0
C9 C 0.96981 0.40871 0.15342 0.0
O10 O 0.08159 0.54544 0.16112 0.0
O11 O 0.05633 0.4894 0.16679 0.0
C12 C 0.08318 0.51786 0.16271 0.0
O13 O 0.02587 0.49636 0.13217 0.0
O14 O 0.07438 0.59715 0.19185 0.0
O15 O 0.04758 0.60492 0.16757 0.0
O16 O 0.03381 0.5494 0.13777 0.0
C17 C 0.03227 0.52531 0.12561 0.0
O18 O 0.96237 0.48831 0.15366 0.0
O19 O 0.98401 0.53718 0.17353 0.0
O20 O 0.03681 0.52953 0.20057 0.0
O21 O 0.97142 0.42981 0.14046 0.0
O22 O 0.98825 0.42375 0.16984 0.0
O23 O 0.98832 0.4807 0.193 0.0
C24 C 0.10042 0.65154 0.17899 0.0
C25 C 0.09632 0.67798 0.17283 0.0
C26 C 0.16055 0.69017 0.1835 0.0
C27 C 0.12392 0.71033 0.17235 0.0
C28 C 0.13291 0.65775 0.1839 0.0
C29 C 0.15626 0.717 0.17819 0.0
C30 C 0.0703 0.61894 0.18225 0.0
C31 C 0.9591 0.51268 0.16241 0.0
H32 H 0.92198 0.40511 0.17892 0.0
H33 H 0.88589 0.30038 0.13634 0.0
H34 H 0.86526 0.35713 0.18194 0.0
H35 H 0.94229 0.34835 0.13336 0.0
H36 H 0.07153 0.67385 0.16901 0.0
H37 H 0.18504 0.69444 0.18824 0.0
H38 H 0.11981 0.73028 0.16783 0.0
H39 H 0.13688 0.63787 0.18876 0.0
Eu40 Eu 0.53034 0.99987 0.49389 0.0
Eu41 Eu 0.48704 0.03856 0.49503 0.0
C42 C 0.51249 0.02235 0.5358 0.0
C43 C 0.55851 0.9361 0.50083 0.0
C44 C 0.53105 0.9164 0.51258 0.0
C45 C 0.57582 0.89449 0.50189 0.0
C46 C 0.52605 0.88585 0.51902 0.0
C47 C 0.58079 0.92499 0.49551 0.0
C48 C 0.54845 0.87459 0.51377 0.0
C49 C 0.56371 0.96781 0.49362 0.0
O50 O 0.53889 0.07866 0.4864 0.0
O51 O 0.57015 0.05527 0.49639 0.0
C52 C 0.56815 0.08101 0.49022 0.0
O53 O 0.52998 0.01579 0.46238 0.0
O54 O 0.46221 0.06115 0.51222 0.0
O55 O 0.46199 0.06109 0.47958 0.0
O56 O 0.48014 0.0151 0.46348 0.0
C57 C 0.50388 0.01426 0.45317 0.0
O58 O 0.47625 0.95782 0.4888 0.0
O59 O 0.44729 0.98441 0.49891 0.0
O60 O 0.51118 0.04597 0.52626 0.0
O61 O 0.5434 0.96514 0.47886 0.0
O62 O 0.5682 0.99085 0.50753 0.0
O63 O 0.51206 0.99714 0.52555 0.0
C64 C 0.4697 0.10974 0.49753 0.0
C65 C 0.49883 0.13095 0.48743 0.0
C66 C 0.46878 0.15858 0.51205 0.0
C67 C 0.51283 0.1656 0.48962 0.0
C68 C 0.4546 0.12373 0.50974 0.0
C69 C 0.49814 0.17981 0.50208 0.0
C70 C 0.45647 0.07334 0.49628 0.0
C71 C 0.44801 0.95697 0.4933 0.0
H72 H 0.51351 0.92465 0.51673 0.0
H73 H 0.59318 0.88628 0.49727 0.0
H74 H 0.50491 0.87127 0.52828 0.0
H75 H 0.60193 0.93982 0.48629 0.0
H76 H 0.51123 0.12079 0.47812 0.0
H77 H 0.45696 0.16893 0.52172 0.0
H78 H 0.53583 0.18131 0.48208 0.0
H79 H 0.43225 0.10776 0.51775 0.0
Eu80 Eu 0.48954 0.50164 0.82432 0.0
Eu81 Eu 0.57014 0.54407 0.83467 0.0
C82 C 0.5181 0.52117 0.87035 0.0
C83 C 0.39874 0.47923 0.82082 0.0
C84 C 0.40017 0.49815 0.83843 0.0
C85 C 0.3514 0.48318 0.80795 0.0
C86 C 0.37737 0.50954 0.84077 0.0
C87 C 0.37402 0.47155 0.80571 0.0
C88 C 0.35301 0.50261 0.82542 0.0
C89 C 0.42476 0.47031 0.81709 0.0
O90 O 0.56026 0.49268 0.82251 0.0
O91 O 0.50413 0.46191 0.82851 0.0
C92 C 0.53271 0.46349 0.82407 0.0
O93 O 0.51275 0.50046 0.79457 0.0
O94 O 0.61384 0.55026 0.85168 0.0
O95 O 0.61966 0.58756 0.83103 0.0
O96 O 0.5649 0.54634 0.80128 0.0
C97 C 0.5418 0.52391 0.78851 0.0
O98 O 0.50458 0.55556 0.81928 0.0
O99 O 0.55336 0.58281 0.83873 0.0
O100 O 0.54605 0.52381 0.86392 0.0
O101 O 0.44657 0.48803 0.80397 0.0
O102 O 0.43884 0.46574 0.8329 0.0
O103 O 0.49531 0.51949 0.85749 0.0
C104 C 0.66342 0.57569 0.83392 0.0
C105 C 0.65822 0.55121 0.81868 0.0
C106 C 0.72319 0.59623 0.83402 0.0
C107 C 0.68538 0.54889 0.81136 0.0
C108 C 0.69601 0.59846 0.84134 0.0
C109 C 0.7181 0.57104 0.81921 0.0
C110 C 0.63488 0.57682 0.8426 0.0
C111 C 0.52904 0.58324 0.82828 0.0
H112 H 0.41934 0.50474 0.8502 0.0
H113 H 0.33335 0.47781 0.79568 0.0
H114 H 0.37901 0.52398 0.85454 0.0
H115 H 0.37286 0.45739 0.79189 0.0
H116 H 0.63308 0.53345 0.81278 0.0
H117 H 0.74816 0.61396 0.84013 0.0
H118 H 0.68061 0.52903 0.80012 0.0
H119 H 0.70038 0.61762 0.85302 0.0
O120 O 0.50082 0.95519 0.2299 0.0
Cd121 Cd 0.51191 0.95463 0.19401 0.0
O122 O 0.48794 0.99367 0.22385 0.0
Cd123 Cd 0.47027 0.02886 0.23077 0.0
O124 O 0.45 0.0628 0.23168 0.0
C125 C 0.41987 0.05465 0.22696 0.0
O126 O 0.41081 0.07741 0.22935 0.0
C127 C 0.49205 0.9759 0.23641 0.0
C128 C 0.56691 0.01625 0.1856 0.0
O129 O 0.53695 0.01119 0.18386 0.0
O130 O 0.57074 0.99202 0.19101 0.0
O131 O 0.71169 0.58941 0.59715 0.0
Cd132 Cd 0.74308 0.59508 0.56678 0.0
O133 O 0.66886 0.57725 0.57676 0.0
Cd134 Cd 0.61906 0.5698 0.56955 0.0
O135 O 0.58299 0.58546 0.56213 0.0
C136 C 0.57824 0.60335 0.57537 0.0
O137 O 0.59328 0.60941 0.59331 0.0
C138 C 0.68094 0.58079 0.59466 0.0
C139 C 0.71106 0.53182 0.54703 0.0
O140 O 0.73595 0.54075 0.55952 0.0
O141 O 0.70241 0.55347 0.54315 0.0
O142 O 0.04351 0.57878 0.90296 0.0
Cd143 Cd 0.04413 0.58941 0.86699 0.0
O144 O 0.03434 0.52703 0.8998 0.0
Cd145 Cd 0.02142 0.52222 0.86774 0.0
O146 O 0.99462 0.52221 0.84052 0.0
C147 C 0.9653 0.49749 0.83674 0.0
O148 O 0.9538 0.47206 0.8484 0.0
C149 C 0.04078 0.55297 0.9109 0.0
C150 C 0.10029 0.59081 0.85059 0.0
O151 O 0.10291 0.61682 0.86021 0.0
O152 O 0.07107 0.56487 0.84806 0.0
O153 O 0.03841 0.544 0.42892 0.0
Cd154 Cd 0.06804 0.57948 0.46086 0.0
O155 O 0.98996 0.49948 0.43605 0.0
Cd156 Cd 0.93967 0.45076 0.43509 0.0
O157 O 0.88845 0.40599 0.44086 0.0
C158 C 0.88447 0.37825 0.44676 0.0
O159 O 0.91121 0.37531 0.44926 0.0
C160 C 1.01134 0.5169 0.42303 0.0
C161 C 0.13172 0.64065 0.46105 0.0
O162 O 0.12982 0.61214 0.46253 0.0
O163 O 0.10394 0.64042 0.45852 0.0
O164 O 0.53092 0.98668 0.75856 0.0
Cd165 Cd 0.5302 0.9565 0.79 0.0
O166 O 0.53227 0.0346 0.76724 0.0
Cd167 Cd 0.53419 0.08521 0.76801 0.0
O168 O 0.53984 0.13702 0.77414 0.0
C169 C 0.51566 0.14161 0.77937 0.0
O170 O 0.48587 0.1151 0.78102 0.0
C171 C 0.53149 0.01356 0.75347 0.0
C172 C 0.53183 0.89472 0.79074 0.0
O173 O 0.50427 0.89475 0.78775 0.0
O174 O 0.5588 0.92343 0.79226 0.0
O175 O 0.55061 0.51327 0.09251 0.0
Cd176 Cd 0.58133 0.5106 0.12396 0.0
O177 O 0.50463 0.51496 0.1006 0.0
Cd178 Cd 0.45599 0.51698 0.10126 0.0
O179 O 0.41033 0.5226 0.10781 0.0
C180 C 0.38281 0.499 0.11413 0.0
O181 O 0.3806 0.46991 0.1167 0.0
C182 C 0.52426 0.51441 0.08709 0.0
C183 C 0.6453 0.51305 0.12492 0.0
O184 O 0.61783 0.48568 0.12025 0.0
O185 O 0.64313 0.53954 0.12805 0.0
H186 H 0.09596 0.46561 0.16361 0.0
H187 H 0.14763 0.46546 0.15584 0.0
H188 H 0.19616 0.57066 0.14508 0.0
H189 H 0.14419 0.57086 0.15253 0.0
H190 H 0.21301 0.5399 0.11676 0.0
H191 H 0.21322 0.54064 0.18893 0.0
H192 H 0.19008 0.52142 0.22225 0.0
H193 H 0.1801 0.42527 0.20704 0.0
H194 H 0.20276 0.44376 0.17351 0.0
H195 H 0.37725 0.55621 0.11276 0.0
H196 H 0.32891 0.56263 0.12143 0.0
H197 H 0.27305 0.4585 0.13487 0.0
H198 H 0.32113 0.45218 0.12666 0.0
H199 H 0.26213 0.49269 0.16281 0.0
H200 H 0.25943 0.4912 0.09003 0.0
H201 H 0.28196 0.51027 0.05657 0.0
H202 H 0.2967 0.60801 0.073 0.0
H203 H 0.27462 0.58962 0.10667 0.0
C204 C 0.11761 0.48886 0.15973 0.0
C205 C 0.11561 0.5183 0.15888 0.0
C206 C 0.1474 0.48877 0.15533 0.0
C207 C 0.17639 0.51815 0.15006 0.0
C208 C 0.17443 0.54757 0.1491 0.0
C209 C 0.14458 0.54769 0.1535 0.0
C210 C 0.20839 0.51797 0.14537 0.0
C211 C 0.22398 0.53004 0.12702 0.0
C212 C 0.22282 0.50464 0.15843 0.0
C213 C 0.20942 0.4935 0.17864 0.0
C214 C 0.20588 0.51532 0.19264 0.0
C215 C 0.19288 0.50457 0.21157 0.0
C216 C 0.18355 0.47212 0.21674 0.0
C217 C 0.1873 0.45038 0.20301 0.0
C218 C 0.20026 0.461 0.18404 0.0
C219 C 0.35466 0.53465 0.11751 0.0
C220 C 0.35339 0.50364 0.11892 0.0
C221 C 0.3268 0.5383 0.12241 0.0
C222 C 0.29675 0.51098 0.12871 0.0
C223 C 0.29565 0.48012 0.13015 0.0
C224 C 0.32336 0.47651 0.12533 0.0
C225 C 0.26655 0.51418 0.13406 0.0
C226 C 0.25128 0.5027 0.15257 0.0
C227 C 0.25245 0.52806 0.12115 0.0
C228 C 0.26574 0.53915 0.10094 0.0
C229 C 0.26773 0.51684 0.08656 0.0
C230 C 0.28037 0.5275 0.06755 0.0
C231 C 0.29085 0.56036 0.06268 0.0
C232 C 0.28863 0.58259 0.0768 0.0
C233 C 0.27604 0.57205 0.09585 0.0
H234 H 0.30062 0.56856 0.04796 0.0
H235 H 0.17347 0.46383 0.2314 0.0
H236 H 0.63348 0.09409 0.492 0.0
H237 H 0.68474 0.14594 0.48529 0.0
H238 H 0.6267 0.19384 0.47417 0.0
H239 H 0.57513 0.14167 0.48041 0.0
H240 H 0.67256 0.21166 0.44691 0.0
H241 H 0.67682 0.21141 0.51875 0.0
H242 H 0.6748 0.18828 0.55186 0.0
H243 H 0.75989 0.17768 0.53754 0.0
H244 H 0.76215 0.20031 0.50422 0.0
H245 H 0.82235 0.37461 0.44568 0.0
H246 H 0.76768 0.32716 0.45375 0.0
H247 H 0.81482 0.26886 0.46573 0.0
H248 H 0.86918 0.31603 0.45811 0.0
H249 H 0.77237 0.25948 0.49389 0.0
H250 H 0.76544 0.25761 0.42091 0.0
H251 H 0.76668 0.28124 0.38809 0.0
H252 H 0.68589 0.29726 0.40531 0.0
H253 H 0.68442 0.27403 0.4383 0.0
C254 C 0.63148 0.11563 0.48824 0.0
C255 C 0.59984 0.11338 0.48686 0.0
C256 C 0.66103 0.14553 0.48446 0.0
C257 C 0.66008 0.17439 0.47942 0.0
C258 C 0.62848 0.1722 0.47799 0.0
C259 C 0.59886 0.1422 0.48167 0.0
C260 C 0.69189 0.20647 0.47542 0.0
C261 C 0.69417 0.22232 0.45737 0.0
C262 C 0.72057 0.22067 0.48883 0.0
C263 C 0.71947 0.20729 0.50891 0.0
C264 C 0.69497 0.20394 0.52261 0.0
C265 C 0.69379 0.19095 0.54142 0.0
C266 C 0.71715 0.18145 0.54678 0.0
C267 C 0.74179 0.18501 0.53335 0.0
C268 C 0.74306 0.19796 0.51451 0.0
C269 C 0.82107 0.35166 0.44998 0.0
C270 C 0.85048 0.34941 0.45116 0.0
C271 C 0.78964 0.32435 0.45453 0.0
C272 C 0.78665 0.2939 0.46024 0.0
C273 C 0.81605 0.29181 0.46146 0.0
C274 C 0.84734 0.31899 0.45698 0.0
C275 C 0.75333 0.26424 0.46516 0.0
C276 C 0.75073 0.24889 0.48345 0.0
C277 C 0.72434 0.25068 0.45204 0.0
C278 C 0.7251 0.26447 0.43217 0.0
C279 C 0.74811 0.2664 0.41775 0.0
C280 C 0.74882 0.27968 0.3991 0.0
C281 C 0.72645 0.29086 0.39464 0.0
C282 C 0.70325 0.28867 0.40879 0.0
C283 C 0.70245 0.27543 0.42746 0.0
H284 H 0.72705 0.30113 0.3802 0.0
H285 H 0.71619 0.17138 0.56134 0.0
H286 H 0.58077 0.64817 0.83707 0.0
H287 H 0.58219 0.70071 0.83066 0.0
H288 H 0.47964 0.64483 0.80745 0.0
H289 H 0.47851 0.59239 0.8132 0.0
H290 H 0.51117 0.6922 0.78409 0.0
H291 H 0.50645 0.69137 0.85626 0.0
H292 H 0.52406 0.68814 0.89098 0.0
H293 H 0.62018 0.77553 0.8839 0.0
H294 H 0.60329 0.77903 0.84902 0.0
H295 H 0.47936 0.82949 0.78607 0.0
H296 H 0.47966 0.77771 0.79231 0.0
H297 H 0.58542 0.83517 0.80828 0.0
H298 H 0.58527 0.88705 0.80207 0.0
H299 H 0.55325 0.78785 0.83518 0.0
H300 H 0.55588 0.78848 0.76274 0.0
H301 H 0.53651 0.79116 0.7284 0.0
H302 H 0.44148 0.7031 0.73676 0.0
H303 H 0.46014 0.70015 0.77128 0.0
C304 C 0.55839 0.64701 0.83077 0.0
C305 C 0.52949 0.61574 0.82577 0.0
C306 C 0.55916 0.67727 0.82714 0.0
C307 C 0.53087 0.67728 0.81873 0.0
C308 C 0.50195 0.646 0.81389 0.0
C309 C 0.50129 0.6158 0.8173 0.0
C310 C 0.53143 0.70956 0.81455 0.0
C311 C 0.51995 0.71283 0.79545 0.0
C312 C 0.54351 0.73725 0.82901 0.0
C313 C 0.55373 0.73525 0.84996 0.0
C314 C 0.53143 0.70975 0.86206 0.0
C315 C 0.54127 0.7079 0.88177 0.0
C316 C 0.57325 0.73156 0.88962 0.0
C317 C 0.59544 0.75719 0.87778 0.0
C318 C 0.58574 0.75914 0.85805 0.0
C319 C 0.5028 0.83119 0.79075 0.0
C320 C 0.53234 0.86273 0.79343 0.0
C321 C 0.50296 0.8014 0.7943 0.0
C322 C 0.53263 0.80212 0.80069 0.0
C323 C 0.56213 0.8336 0.80339 0.0
C324 C 0.56205 0.86339 0.7997 0.0
C325 C 0.53281 0.77027 0.80482 0.0
C326 C 0.54446 0.76714 0.82388 0.0
C327 C 0.52057 0.74258 0.79041 0.0
C328 C 0.5093 0.7443 0.76967 0.0
C329 C 0.53076 0.76985 0.75732 0.0
C330 C 0.51992 0.77138 0.73781 0.0
C331 C 0.48775 0.74737 0.73042 0.0
C332 C 0.46638 0.72172 0.74252 0.0
C333 C 0.47708 0.72008 0.76205 0.0
H334 H 0.47941 0.7486 0.71531 0.0
H335 H 0.58082 0.73009 0.90489 0.0
H336 H 0.94294 0.56069 0.17515 0.0
H337 H 0.89023 0.56059 0.16905 0.0
H338 H 0.8488 0.46468 0.13596 0.0
H339 H 0.90108 0.46444 0.14216 0.0
H340 H 0.85789 0.56049 0.1351 0.0
H341 H 0.76344 0.4196 0.13995 0.0
H342 H 0.758 0.37082 0.15699 0.0
H343 H 0.82451 0.43616 0.20552 0.0
H344 H 0.83 0.48529 0.18891 0.0
H345 H 0.65985 0.46298 0.11524 0.0
H346 H 0.71274 0.46345 0.12103 0.0
H347 H 0.75766 0.56426 0.14792 0.0
H348 H 0.70534 0.56431 0.1414 0.0
H349 H 0.74721 0.46597 0.15192 0.0
H350 H 0.8418 0.60743 0.14514 0.0
H351 H 0.84745 0.6548 0.12636 0.0
H352 H 0.78072 0.58613 0.079 0.0
H353 H 0.775 0.53839 0.09736 0.0
C354 C 0.92257 0.53943 0.16669 0.0
C355 C 0.92655 0.51251 0.15928 0.0
C356 C 0.89234 0.53946 0.16312 0.0
C357 C 0.865 0.51246 0.15219 0.0
C358 C 0.869 0.48562 0.14474 0.0
C359 C 0.89919 0.48561 0.14825 0.0
C360 C 0.83268 0.51263 0.14828 0.0
C361 C 0.83376 0.54 0.13908 0.0
C362 C 0.80077 0.48551 0.15277 0.0
C363 C 0.79737 0.45615 0.16306 0.0
C364 C 0.7768 0.42355 0.1543 0.0
C365 C 0.77372 0.39583 0.16388 0.0
C366 C 0.79097 0.40039 0.1823 0.0
C367 C 0.81125 0.43267 0.19122 0.0
C368 C 0.81439 0.46047 0.18171 0.0
C369 C 0.68111 0.48544 0.12216 0.0
C370 C 0.67815 0.51373 0.12764 0.0
C371 C 0.71147 0.48563 0.1256 0.0
C372 C 0.7399 0.51405 0.13472 0.0
C373 C 0.7368 0.54221 0.14037 0.0
C374 C 0.70659 0.54218 0.1367 0.0
C375 C 0.77231 0.5139 0.13871 0.0
C376 C 0.77128 0.48651 0.14793 0.0
C377 C 0.80426 0.5408 0.13398 0.0
C378 C 0.80769 0.56934 0.12275 0.0
C379 C 0.82841 0.60245 0.13069 0.0
C380 C 0.83162 0.62936 0.12012 0.0
C381 C 0.81436 0.62347 0.10153 0.0
C382 C 0.79396 0.59065 0.09344 0.0
C383 C 0.79069 0.56366 0.10393 0.0
H384 H 0.81687 0.64434 0.09338 0.0
H385 H 0.78856 0.37889 0.18968 0.0
H386 H 0.43883 0.89323 0.49292 0.0
H387 H 0.38637 0.83967 0.48807 0.0
H388 H 0.33155 0.89234 0.48251 0.0
H389 H 0.38378 0.94586 0.48844 0.0
H390 H 0.29587 0.84156 0.50235 0.0
H391 H 0.35493 0.85271 0.44053 0.0
H392 H 0.4027 0.85983 0.42044 0.0
H393 H 0.3936 0.76988 0.44257 0.0
H394 H 0.34631 0.76252 0.46315 0.0
H395 H 0.14383 0.70522 0.45904 0.0
H396 H 0.19723 0.75781 0.46435 0.0
H397 H 0.24813 0.70225 0.47381 0.0
H398 H 0.19483 0.64954 0.46815 0.0
H399 H 0.28594 0.75346 0.45224 0.0
H400 H 0.22882 0.74188 0.51383 0.0
H401 H 0.18212 0.73377 0.53523 0.0
H402 H 0.18817 0.82328 0.51439 0.0
H403 H 0.23465 0.83169 0.49266 0.0
C404 C 0.41559 0.89344 0.49074 0.0
C405 C 0.41574 0.92407 0.49104 0.0
C406 C 0.38544 0.86263 0.48776 0.0
C407 C 0.35457 0.86146 0.48435 0.0
C408 C 0.35472 0.89211 0.485 0.0
C409 C 0.38476 0.92289 0.4884 0.0
C410 C 0.32218 0.8286 0.48028 0.0
C411 C 0.29374 0.82263 0.49113 0.0
C412 C 0.31906 0.80294 0.46612 0.0
C413 C 0.34725 0.80723 0.45352 0.0
C414 C 0.36323 0.83454 0.4412 0.0
C415 C 0.39021 0.83862 0.42972 0.0
C416 C 0.40115 0.81536 0.43022 0.0
C417 C 0.38512 0.78791 0.4422 0.0
C418 C 0.35825 0.78377 0.45378 0.0
C419 C 0.16637 0.7041 0.46214 0.0
C420 C 0.16476 0.67289 0.46319 0.0
C421 C 0.19703 0.73435 0.46533 0.0
C422 C 0.22702 0.73439 0.46986 0.0
C423 C 0.22558 0.70323 0.47042 0.0
C424 C 0.19492 0.67295 0.46719 0.0
C425 C 0.25971 0.76676 0.47412 0.0
C426 C 0.28814 0.77254 0.46336 0.0
C427 C 0.26292 0.7922 0.48842 0.0
C428 C 0.23498 0.78721 0.50146 0.0
C429 C 0.22001 0.75969 0.51369 0.0
C430 C 0.19362 0.75507 0.5259 0.0
C431 C 0.18212 0.77795 0.52613 0.0
C432 C 0.19706 0.80555 0.51418 0.0
C433 C 0.22345 0.81027 0.50192 0.0
H434 H 0.16169 0.77433 0.53559 0.0
H435 H 0.42203 0.81858 0.42131 0.0
H436 H 0.48006 0.39858 0.82379 0.0
H437 H 0.48048 0.34642 0.81663 0.0
H438 H 0.58707 0.40252 0.80821 0.0
H439 H 0.58669 0.45508 0.81496 0.0
H440 H 0.5595 0.35292 0.78017 0.0
H441 H 0.55207 0.35835 0.85192 0.0
H442 H 0.5293 0.36478 0.88429 0.0
H443 H 0.43418 0.27776 0.86739 0.0
H444 H 0.45623 0.27108 0.83477 0.0
H445 H 0.57389 0.20391 0.77943 0.0
H446 H 0.58025 0.25939 0.7875 0.0
H447 H 0.47423 0.21298 0.79738 0.0
H448 H 0.4679 0.15788 0.78975 0.0
H449 H 0.50587 0.25963 0.82593 0.0
H450 H 0.51321 0.25645 0.75329 0.0
H451 H 0.53646 0.25077 0.72093 0.0
H452 H 0.63294 0.33403 0.74003 0.0
H453 H 0.61033 0.33995 0.77262 0.0
C454 C 0.50372 0.40001 0.82051 0.0
C455 C 0.53339 0.4314 0.82013 0.0
C456 C 0.50395 0.36992 0.81647 0.0
C457 C 0.53391 0.37003 0.81214 0.0
C458 C 0.56354 0.40137 0.81154 0.0
C459 C 0.56332 0.43157 0.81552 0.0
C460 C 0.53407 0.33756 0.8081 0.0
C461 C 0.54822 0.33278 0.79039 0.0
C462 C 0.519 0.31067 0.82113 0.0
C463 C 0.50574 0.31439 0.84082 0.0
C464 C 0.52623 0.34071 0.85505 0.0
C465 C 0.51346 0.34438 0.87345 0.0
C466 C 0.48029 0.32174 0.87787 0.0
C467 C 0.45986 0.2953 0.86393 0.0
C468 C 0.47249 0.29154 0.84549 0.0
C469 C 0.55191 0.2055 0.78327 0.0
C470 C 0.52035 0.17607 0.78385 0.0
C471 C 0.55553 0.23741 0.78782 0.0
C472 C 0.52767 0.24088 0.79294 0.0
C473 C 0.49627 0.21145 0.79357 0.0
C474 C 0.49266 0.17971 0.78909 0.0
C475 C 0.53081 0.27475 0.79783 0.0
C476 C 0.5173 0.27982 0.81575 0.0
C477 C 0.54659 0.3019 0.78504 0.0
C478 C 0.56017 0.2984 0.76547 0.0
C479 C 0.53944 0.27338 0.75065 0.0
C480 C 0.55249 0.27015 0.73226 0.0
C481 C 0.58618 0.29196 0.72846 0.0
C482 C 0.60686 0.31712 0.74301 0.0
C483 C 0.59394 0.32044 0.76144 0.0
H484 H 0.59624 0.28942 0.71421 0.0
H485 H 0.47045 0.32465 0.89212 0.0
H486 H 0.59626 0.86123 0.52776 0.0
H487 H 0.58885 0.80741 0.53688 0.0
H488 H 0.48212 0.76091 0.5248 0.0
H489 H 0.48937 0.81479 0.51525 0.0
H490 H 0.49826 0.74003 0.56002 0.0
H491 H 0.52491 0.74788 0.49063 0.0
H492 H 0.55639 0.77485 0.46067 0.0
H493 H 0.64545 0.78219 0.48727 0.0
H494 H 0.61464 0.75573 0.51754 0.0
H495 H 0.54479 0.59702 0.53955 0.0
H496 H 0.52472 0.63377 0.52817 0.0
H497 H 0.55364 0.68847 0.58639 0.0
H498 H 0.57296 0.65143 0.59801 0.0
H499 H 0.5636 0.69682 0.52332 0.0
H500 H 0.5113 0.72907 0.59573 0.0
H501 H 0.47658 0.69994 0.62423 0.0
H502 H 0.43153 0.60649 0.58866 0.0
H503 H 0.4656 0.63509 0.55984 0.0
C504 C 0.57121 0.83956 0.5269 0.0
C505 C 0.54346 0.84223 0.52053 0.0
C506 C 0.567 0.80886 0.53222 0.0
C507 C 0.535 0.78015 0.53125 0.0
C508 C 0.50702 0.78282 0.52561 0.0
C509 C 0.51122 0.81361 0.52021 0.0
C510 C 0.53133 0.74734 0.53563 0.0
C511 C 0.51231 0.73033 0.55197 0.0
C512 C 0.54885 0.73427 0.52466 0.0
C513 C 0.56748 0.74998 0.50641 0.0
C514 C 0.55126 0.75545 0.49015 0.0
C515 C 0.56898 0.77062 0.4731 0.0
C516 C 0.60291 0.78027 0.47208 0.0
C517 C 0.61917 0.77471 0.48809 0.0
C518 C 0.60157 0.75958 0.50518 0.0
C519 C 0.54614 0.61638 0.55009 0.0
C520 C 0.56084 0.62156 0.56961 0.0
C521 C 0.53467 0.63738 0.54355 0.0
C522 C 0.53765 0.66391 0.5564 0.0
C523 C 0.55055 0.66789 0.57628 0.0
C524 C 0.56183 0.64678 0.58287 0.0
C525 C 0.53159 0.68998 0.54833 0.0
C526 C 0.54895 0.70593 0.53125 0.0
C527 C 0.51204 0.70161 0.55842 0.0
C528 C 0.49121 0.68424 0.57565 0.0
C529 C 0.49386 0.70234 0.59394 0.0
C530 C 0.47432 0.6859 0.61017 0.0
C531 C 0.45192 0.65138 0.60827 0.0
C532 C 0.44897 0.63321 0.59013 0.0
C533 C 0.46844 0.64952 0.57385 0.0
H534 H 0.43683 0.63871 0.62086 0.0
H535 H 0.61659 0.79202 0.45886 0.0
H536 H 0.76762 0.57419 0.84356 0.0
H537 H 0.81325 0.56479 0.83408 0.0
H538 H 0.7784 0.54718 0.77157 0.0
H539 H 0.73227 0.55672 0.78102 0.0
H540 H 0.79314 0.50062 0.78251 0.0
H541 H 0.85057 0.61835 0.78518 0.0
H542 H 0.86752 0.67571 0.79838 0.0
H543 H 0.9118 0.66171 0.85171 0.0
H544 H 0.89469 0.6041 0.839 0.0
H545 H 0.98125 0.54408 0.80849 0.0
H546 H 0.94242 0.5568 0.79085 0.0
H547 H 0.85882 0.47219 0.81636 0.0
H548 H 0.8972 0.45862 0.83317 0.0
H549 H 0.90918 0.57793 0.80951 0.0
H550 H 0.78608 0.44704 0.79415 0.0
H551 H 0.77024 0.39126 0.77861 0.0
H552 H 0.86021 0.43434 0.74504 0.0
H553 H 0.8764 0.49049 0.76012 0.0
C554 C 0.76995 0.56897 0.82773 0.0
C555 C 0.74654 0.56657 0.81301 0.0
C556 C 0.79606 0.56355 0.82232 0.0
C557 C 0.79959 0.55589 0.80206 0.0
C558 C 0.77621 0.55327 0.78727 0.0
C559 C 0.7499 0.55865 0.7927 0.0
C560 C 0.82699 0.54919 0.79691 0.0
C561 C 0.81868 0.51758 0.78812 0.0
C562 C 0.86057 0.572 0.80339 0.0
C563 C 0.8713 0.60683 0.81111 0.0
C564 C 0.8638 0.62744 0.79977 0.0
C565 C 0.87344 0.66001 0.80717 0.0
C566 C 0.89073 0.67235 0.82587 0.0
C567 C 0.89845 0.65214 0.83721 0.0
C568 C 0.88885 0.61954 0.82989 0.0
C569 C 0.95451 0.52756 0.80977 0.0
C570 C 0.94228 0.50068 0.82249 0.0
C571 C 0.93234 0.53486 0.79967 0.0
C572 C 0.89762 0.51557 0.80227 0.0
C573 C 0.88536 0.48715 0.81371 0.0
C574 C 0.90745 0.47956 0.82353 0.0
C575 C 0.8749 0.52824 0.79647 0.0
C576 C 0.88404 0.56114 0.80322 0.0
C577 C 0.84237 0.50685 0.78765 0.0
C578 C 0.8325 0.47307 0.77833 0.0
C579 C 0.80238 0.44472 0.78333 0.0
C580 C 0.79337 0.41299 0.77463 0.0
C581 C 0.81421 0.40925 0.76086 0.0
C582 C 0.84411 0.43725 0.75574 0.0
C583 C 0.85324 0.46904 0.76438 0.0
H584 H 0.8072 0.38466 0.75415 0.0
H585 H 0.89815 0.69757 0.83158 0.0
H586 H 0.22175 0.74054 0.16792 0.0
H587 H 0.26907 0.79793 0.17313 0.0
H588 H 0.20283 0.82994 0.19813 0.0
H589 H 0.15567 0.77288 0.19316 0.0
H590 H 0.24508 0.87439 0.17285 0.0
H591 H 0.25325 0.81466 0.22848 0.0
H592 H 0.25781 0.76964 0.24421 0.0
H593 H 0.35051 0.79901 0.21497 0.0
H594 H 0.34624 0.84393 0.19883 0.0
H595 H 0.35265 0.02277 0.23204 0.0
H596 H 0.31049 0.96564 0.22027 0.0
H597 H 0.38763 0.95116 0.19351 0.0
H598 H 0.42973 0.00877 0.20451 0.0
H599 H 0.34373 0.89785 0.21638 0.0
H600 H 0.33775 0.96123 0.16329 0.0
H601 H 0.33312 0.00672 0.1483 0.0
H602 H 0.2362 0.97089 0.17335 0.0
H603 H 0.24045 0.92545 0.18875 0.0
C604 C 0.21729 0.75981 0.17454 0.0
C605 C 0.18488 0.75207 0.1801 0.0
C606 C 0.24434 0.79259 0.17749 0.0
C607 C 0.23953 0.81817 0.18618 0.0
C608 C 0.20711 0.81065 0.19132 0.0
C609 C 0.18012 0.77799 0.18838 0.0
C610 C 0.26819 0.8527 0.19043 0.0
C611 C 0.26653 0.87953 0.18248 0.0
C612 C 0.29662 0.85936 0.20257 0.0
C613 C 0.29921 0.83237 0.21225 0.0
C614 C 0.27445 0.81132 0.22526 0.0
C615 C 0.27701 0.78586 0.23428 0.0
C616 C 0.30437 0.78139 0.23054 0.0
C617 C 0.32929 0.80245 0.21782 0.0
C618 C 0.32682 0.82792 0.20873 0.0
C619 C 0.36065 0.00746 0.22361 0.0
C620 C 0.39471 0.01998 0.21975 0.0
C621 C 0.33653 0.97484 0.21689 0.0
C622 C 0.34597 0.95416 0.20606 0.0
C623 C 0.37991 0.96661 0.20205 0.0
C624 C 0.40404 0.99938 0.20864 0.0
C625 C 0.32024 0.91948 0.19912 0.0
C626 C 0.32246 0.89266 0.20655 0.0
C627 C 0.29226 0.91281 0.18657 0.0
C628 C 0.28956 0.94009 0.17732 0.0
C629 C 0.31557 0.96321 0.16575 0.0
C630 C 0.31299 0.98896 0.15715 0.0
C631 C 0.28442 0.99174 0.15991 0.0
C632 C 0.25833 0.96873 0.17124 0.0
C633 C 0.2608 0.94294 0.17989 0.0
H634 H 0.28246 0.01169 0.15323 0.0
H635 H 0.30632 0.76168 0.23754 0.0
H636 H 0.52426 0.22662 0.47381 0.0
H637 H 0.55886 0.28743 0.47993 0.0
H638 H 0.54504 0.27703 0.54405 0.0
H639 H 0.51031 0.2162 0.53801 0.0
H640 H 0.54401 0.33138 0.53294 0.0
H641 H 0.61433 0.28367 0.52403 0.0
H642 H 0.63548 0.24959 0.50697 0.0
H643 H 0.66229 0.31137 0.45621 0.0
H644 H 0.64078 0.34551 0.47283 0.0
H645 H 0.72321 0.48043 0.55233 0.0
H646 H 0.68598 0.42101 0.54274 0.0
H647 H 0.61648 0.44429 0.51365 0.0
H648 H 0.65341 0.50376 0.52333 0.0
H649 H 0.65974 0.38328 0.50798 0.0
H650 H 0.53717 0.38497 0.52545 0.0
H651 H 0.51892 0.41718 0.54737 0.0
H652 H 0.60181 0.44449 0.58912 0.0
H653 H 0.62026 0.41207 0.56761 0.0
C654 C 0.52835 0.23737 0.48918 0.0
C655 C 0.5149 0.21671 0.50546 0.0
C656 C 0.54809 0.27205 0.49265 0.0
C657 C 0.55497 0.28662 0.51246 0.0
C658 C 0.54005 0.26625 0.52864 0.0
C659 C 0.52016 0.23153 0.52518 0.0
C660 C 0.57932 0.32278 0.51641 0.0
C661 C 0.56922 0.34278 0.52737 0.0
C662 C 0.61256 0.33738 0.50965 0.0
C663 C 0.62561 0.31695 0.49959 0.0
C664 C 0.62447 0.28983 0.50915 0.0
C665 C 0.63655 0.27051 0.49958 0.0
C666 C 0.65014 0.27825 0.4805 0.0
C667 C 0.65171 0.30536 0.47097 0.0
C668 C 0.63958 0.32472 0.48047 0.0
C669 C 0.70024 0.47299 0.54364 0.0
C670 C 0.6911 0.49675 0.53874 0.0
C671 C 0.67904 0.43903 0.53813 0.0
C672 C 0.64829 0.42826 0.52775 0.0
C673 C 0.63991 0.45209 0.52191 0.0
C674 C 0.66112 0.48607 0.52738 0.0
C675 C 0.62416 0.39199 0.52411 0.0
C676 C 0.63436 0.37195 0.51329 0.0
C677 C 0.59142 0.3771 0.53164 0.0
C678 C 0.5803 0.39642 0.54477 0.0
C679 C 0.55144 0.39778 0.53933 0.0
C680 C 0.54106 0.41607 0.55169 0.0
C681 C 0.55926 0.43297 0.56959 0.0
C682 C 0.58781 0.4315 0.57522 0.0
C683 C 0.59826 0.41322 0.56293 0.0
H684 H 0.55121 0.44712 0.57913 0.0
H685 H 0.65953 0.26329 0.47315 0.0
H686 H 0.28649 0.47197 0.81358 0.0
H687 H 0.2493 0.49539 0.81566 0.0
H688 H 0.32954 0.58718 0.84415 0.0
H689 H 0.3674 0.56448 0.84151 0.0
H690 H 0.26813 0.5616 0.86376 0.0
H691 H 0.30992 0.58938 0.79762 0.0
H692 H 0.32429 0.57876 0.76337 0.0
H693 H 0.22057 0.50738 0.74895 0.0
H694 H 0.20562 0.51718 0.78324 0.0
H695 H 0.16629 0.63659 0.85989 0.0
H696 H 0.21483 0.6297 0.85337 0.0
H697 H 0.15026 0.53495 0.82066 0.0
H698 H 0.1018 0.54168 0.82697 0.0
H699 H 0.21033 0.57057 0.8027 0.0
H700 H 0.16973 0.53656 0.86939 0.0
H701 H 0.15417 0.54445 0.90389 0.0
H702 H 0.25463 0.62527 0.91736 0.0
H703 H 0.27066 0.61815 0.88281 0.0
C704 C 0.29642 0.4973 0.82006 0.0
C705 C 0.33 0.51636 0.82732 0.0
C706 C 0.27509 0.51058 0.8213 0.0
C707 C 0.28684 0.54309 0.82988 0.0
C708 C 0.32009 0.56203 0.83746 0.0
C709 C 0.34158 0.54889 0.83607 0.0
C710 C 0.264 0.55686 0.83121 0.0
C711 C 0.25601 0.56429 0.85041 0.0
C712 C 0.24786 0.55973 0.81376 0.0
C713 C 0.25669 0.55384 0.79308 0.0
C714 C 0.2902 0.57121 0.78721 0.0
C715 C 0.29845 0.56537 0.76777 0.0
C716 C 0.27337 0.54236 0.754 0.0
C717 C 0.23997 0.52518 0.75964 0.0
C718 C 0.2316 0.5309 0.77907 0.0
C719 C 0.16255 0.61462 0.85097 0.0
C720 C 0.1302 0.5895 0.84411 0.0
C721 C 0.19026 0.61067 0.84734 0.0
C722 C 0.18599 0.5816 0.83679 0.0
C723 C 0.15405 0.55753 0.82887 0.0
C724 C 0.12637 0.56137 0.83256 0.0
C725 C 0.21405 0.57476 0.83526 0.0
C726 C 0.22295 0.56853 0.81602 0.0
C727 C 0.23088 0.57276 0.85269 0.0
C728 C 0.22127 0.57712 0.87344 0.0
C729 C 0.18842 0.55622 0.87965 0.0
C730 C 0.17953 0.56051 0.89922 0.0
C731 C 0.20336 0.58541 0.91279 0.0
C732 C 0.23617 0.60604 0.90682 0.0
C733 C 0.24517 0.60189 0.88724 0.0
H734 H 0.19644 0.58866 0.92794 0.0
H735 H 0.2798 0.53787 0.73896 0.0
H736 H 0.82709 0.28547 0.12855 0.0
H737 H 0.77201 0.23548 0.13118 0.0
H738 H 0.78307 0.24844 0.19629 0.0
H739 H 0.83804 0.29867 0.19373 0.0
H740 H 0.75636 0.17859 0.14608 0.0
H741 H 0.7069 0.21745 0.21693 0.0
H742 H 0.71085 0.26878 0.23288 0.0
H743 H 0.73056 0.31318 0.17547 0.0
H744 H 0.7262 0.26195 0.15911 0.0
H745 H 0.63323 0.03563 0.19067 0.0
H746 H 0.68174 0.08998 0.18458 0.0
H747 H 0.61593 0.12574 0.16553 0.0
H748 H 0.5671 0.0715 0.17202 0.0
H749 H 0.66607 0.1727 0.18898 0.0
H750 H 0.65646 0.1036 0.13072 0.0
H751 H 0.65062 0.0537 0.11156 0.0
H752 H 0.74454 0.0723 0.13779 0.0
H753 H 0.75072 0.12208 0.15732 0.0
C754 C 0.81771 0.27769 0.14343 0.0
C755 C 0.8369 0.29591 0.16095 0.0
C756 C 0.78622 0.24918 0.1449 0.0
C757 C 0.77329 0.23829 0.16392 0.0
C758 C 0.79224 0.25668 0.18145 0.0
C759 C 0.82366 0.28536 0.17998 0.0
C760 C 0.74077 0.20678 0.16542 0.0
C761 C 0.7366 0.17736 0.15541 0.0
C762 C 0.71461 0.20527 0.1772 0.0
C763 C 0.71651 0.23592 0.18684 0.0
C764 C 0.71188 0.23808 0.20769 0.0
C765 C 0.71423 0.26719 0.2168 0.0
C766 C 0.72106 0.29427 0.20521 0.0
C767 C 0.7254 0.29224 0.18445 0.0
C768 C 0.72301 0.26318 0.17525 0.0
C769 C 0.62902 0.05501 0.18515 0.0
C770 C 0.59629 0.04916 0.18171 0.0
C771 C 0.6568 0.08606 0.18162 0.0
C772 C 0.65249 0.11181 0.17434 0.0
C773 C 0.61985 0.10622 0.17112 0.0
C774 C 0.59198 0.07516 0.17475 0.0
C775 C 0.68216 0.14446 0.17007 0.0
C776 C 0.68579 0.17403 0.17956 0.0
C777 C 0.70748 0.14632 0.15735 0.0
C778 C 0.70391 0.11643 0.14561 0.0
C779 C 0.67575 0.09691 0.13251 0.0
C780 C 0.6724 0.06867 0.12157 0.0
C781 C 0.69716 0.05979 0.12349 0.0
C782 C 0.72536 0.07919 0.13633 0.0
C783 C 0.72883 0.10745 0.14732 0.0
H784 H 0.69452 0.03792 0.115 0.0
H785 H 0.72295 0.3168 0.2123 0.0
H786 H 0.04422 0.58089 0.10597 0.0
H787 H 0.05059 0.58881 0.06975 0.0
H788 H 0.03902 0.49048 0.05967 0.0
H789 H 0.03296 0.48238 0.09589 0.0
H790 H 0.08885 0.53696 0.03723 0.0
H791 H 0.97368 0.50142 0.05109 0.0
H792 H 0.92813 0.50426 0.06865 0.0
H793 H 0.96291 0.60295 0.04836 0.0
H794 H 1.009 0.60088 0.03091 0.0
H795 H 0.03959 0.50366 0.93286 0.0
H796 H 0.04317 0.50276 0.96962 0.0
H797 H 0.0537 0.60107 0.97605 0.0
H798 H 0.04989 0.60214 0.93929 0.0
H799 H 1.00701 0.5577 0.00058 0.0
H800 H 0.12024 0.5917 0.98473 0.0
H801 H 0.16517 0.58822 0.9668 0.0
H802 H 0.13406 0.49238 0.99048 0.0
H803 H 0.08855 0.495 0.00828 0.0
C804 C 0.04322 0.56099 0.0961 0.0
C805 C 0.03778 0.53087 0.10383 0.0
C806 C 0.04682 0.56556 0.07539 0.0
C807 C 0.04489 0.54007 0.06203 0.0
C808 C 0.04055 0.51044 0.06975 0.0
C809 C 0.03693 0.50581 0.09045 0.0
C810 C 0.04599 0.54372 0.03992 0.0
C811 C 0.07079 0.54119 0.02915 0.0
C812 C 0.02284 0.54994 0.02952 0.0
C813 C 0.995 0.55114 0.03988 0.0
C814 C 0.97177 0.52383 0.0505 0.0
C815 C 0.94583 0.52528 0.06042 0.0
C816 C 0.94268 0.5538 0.05967 0.0
C817 C 0.96541 0.58089 0.04895 0.0
C818 C 0.99144 0.57959 0.03904 0.0
C819 C 0.04285 0.52517 0.94206 0.0
C820 C 0.04439 0.55294 0.93313 0.0
C821 C 0.04505 0.52469 0.96308 0.0
C822 C 0.04896 0.55197 0.97553 0.0
C823 C 0.05073 0.5798 0.96668 0.0
C824 C 0.04862 0.58036 0.94567 0.0
C825 C 0.04981 0.55084 -0.00218 0.0
C826 C 0.02528 0.55375 0.00864 0.0
C827 C 0.0732 0.54494 0.00822 0.0
C828 C 0.10077 0.54341 -0.0023 0.0
C829 C 0.1228 0.56975 0.98599 0.0
C830 C 0.1484 0.56795 0.97587 0.0
C831 C 0.15242 0.54006 0.97746 0.0
C832 C 0.13089 0.51395 0.98924 0.0
C833 C 0.1052 0.51559 -0.00064 0.0
H834 H 0.17224 0.53872 0.96961 0.0
H835 H 0.92258 0.55488 0.06736 0.0
H836 H 0.46071 0.02247 0.42855 0.0
H837 H 0.45617 0.01718 0.39158 0.0
H838 H 0.53536 0.99295 0.39031 0.0
H839 H 0.54074 0.99922 0.42717 0.0
H840 H 0.54465 0.03473 0.36266 0.0
H841 H 0.44951 0.93265 0.38362 0.0
H842 H 0.39734 0.89996 0.40169 0.0
H843 H 0.34964 0.94346 0.36851 0.0
H844 H 0.40171 0.97698 0.35051 0.0
H845 H 0.47035 0.92756 0.26356 0.0
H846 H 0.46895 0.93477 0.30036 0.0
H847 H 0.50408 0.04 0.29547 0.0
H848 H 0.50618 0.03307 0.25878 0.0
H849 H 0.43629 0.95793 0.32586 0.0
H850 H 0.56221 0.08201 0.33472 0.0
H851 H 0.61492 0.11277 0.31678 0.0
H852 H 0.60173 0.01984 0.29054 0.0
H853 H 0.54923 0.98854 0.30854 0.0
C854 C 0.47715 0.01601 0.42039 0.0
C855 C 0.50103 0.01116 0.4308 0.0
C856 C 0.47444 0.01288 0.39925 0.0
C857 C 0.49511 1.00422 0.38814 0.0
C858 C 0.51914 0.99967 0.39854 0.0
C859 C 0.52214 1.00319 0.41963 0.0
C860 C 0.49196 0.99993 0.3657 0.0
C861 C 0.52089 0.01801 0.35466 0.0
C862 C 0.46102 0.97801 0.35518 0.0
C863 C 0.42962 0.95756 0.36586 0.0
C864 C 0.42797 0.93542 0.38027 0.0
C865 C 0.39842 0.91672 0.39049 0.0
C866 C 0.37023 0.91964 0.38627 0.0
C867 C 0.37151 0.94125 0.37179 0.0
C868 C 0.40103 0.96011 0.36157 0.0
C869 C 0.47733 0.95212 0.27034 0.0
C870 C 0.48786 0.97965 0.25828 0.0
C871 C 0.47638 0.95617 0.29132 0.0
C872 C 0.48649 0.98792 0.30062 0.0
C873 C 0.49618 0.01529 0.28857 0.0
C874 C 0.49694 0.01121 0.26757 0.0
C875 C 0.48892 0.99272 0.32298 0.0
C876 C 0.45992 0.97482 0.33395 0.0
C877 C 0.51984 0.01448 0.33348 0.0
C878 C 0.55161 0.033 0.3228 0.0
C879 C 0.57063 0.06816 0.32517 0.0
C880 C 0.60046 0.08568 0.31499 0.0
C881 C 0.6116 0.06828 0.30247 0.0
C882 C 0.593 0.0333 0.30017 0.0
C883 C 0.56319 0.01566 0.31034 0.0
H884 H 0.63468 0.08189 0.29458 0.0
H885 H 0.34738 0.90512 0.39421 0.0
H886 H 0.60179 0.56422 0.77212 0.0
H887 H 0.61474 0.57038 0.73666 0.0
H888 H 0.51279 0.49478 0.71971 0.0
H889 H 0.49937 0.4881 0.75566 0.0
H890 H 0.56042 0.48813 0.69709 0.0
H891 H 0.53425 0.57322 0.71391 0.0
H892 H 0.53533 0.61965 0.73457 0.0
H893 H 0.64147 0.68014 0.72733 0.0
H894 H 0.64116 0.6339 0.70689 0.0
H895 H 0.61363 0.5368 0.59719 0.0
H896 H 0.57989 0.52572 0.62712 0.0
H897 H 0.66784 0.59828 0.6626 0.0
H898 H 0.7013 0.61067 0.63248 0.0
H899 H 0.61358 0.60296 0.67251 0.0
H900 H 0.63957 0.51291 0.66107 0.0
H901 H 0.63817 0.46653 0.64012 0.0
H902 H 0.53045 0.41543 0.6366 0.0
H903 H 0.53125 0.46173 0.65736 0.0
C904 C 0.58193 0.54879 0.76097 0.0
C905 C 0.54937 0.5259 0.76678 0.0
C906 C 0.58943 0.55245 0.74064 0.0
C907 C 0.56457 0.53355 0.72555 0.0
C908 C 0.53225 0.5098 0.73117 0.0
C909 C 0.52464 0.50604 0.75168 0.0
C910 C 0.57308 0.5393 0.70405 0.0
C911 C 0.5713 0.51304 0.69151 0.0
C912 C 0.58737 0.57185 0.69682 0.0
C913 C 0.58769 0.59998 0.70891 0.0
C914 C 0.55787 0.59635 0.71681 0.0
C915 C 0.55834 0.62265 0.72848 0.0
C916 C 0.58845 0.65281 0.73228 0.0
C917 C 0.61815 0.65676 0.72437 0.0
C918 C 0.61784 0.63053 0.71271 0.0
C919 C 0.62551 0.55129 0.61117 0.0
C920 C 0.65996 0.57522 0.61238 0.0
C921 C 0.6063 0.54448 0.62837 0.0
C922 C 0.62139 0.56101 0.64713 0.0
C923 C 0.65565 0.58532 0.64826 0.0
C924 C 0.67478 0.59225 0.63108 0.0
C925 C 0.60225 0.55216 0.66589 0.0
C926 C 0.60199 0.57788 0.6779 0.0
C927 C 0.58594 0.51911 0.67254 0.0
C928 C 0.58548 0.49089 0.66059 0.0
C929 C 0.6156 0.49183 0.65577 0.0
C930 C 0.61491 0.46557 0.64393 0.0
C931 C 0.58424 0.4381 0.63698 0.0
C932 C 0.55418 0.43675 0.64196 0.0
C933 C 0.55474 0.46297 0.65378 0.0
H934 H 0.58376 0.41783 0.62777 0.0
H935 H 0.58876 0.67313 0.74133 0.0
H936 H 0.51341 0.07039 0.56252 0.0
H937 H 0.51645 0.07254 0.59955 0.0
H938 H 0.51988 0.98074 0.59725 0.0
H939 H 0.51638 0.97816 0.56035 0.0
H940 H 0.47754 0.97829 0.62464 0.0
H941 H 0.59054 0.05879 0.60872 0.0
H942 H 0.63443 0.10889 0.5932 0.0
H943 H 0.60471 0.17079 0.62711 0.0
H944 H 0.56031 0.12095 0.64264 0.0
H945 H 0.53661 0.97624 0.72206 0.0
H946 H 0.53294 0.98173 0.68597 0.0
H947 H 0.5212 0.06787 0.69781 0.0
H948 H 0.52464 0.06247 0.73429 0.0
H949 H 0.56488 0.07637 0.66624 0.0
H950 H 0.45386 0.99534 0.68369 0.0
H951 H 0.41077 0.94481 0.69926 0.0
H952 H 0.43759 0.88349 0.66225 0.0
H953 H 0.48119 0.93373 0.64666 0.0
C954 C 0.51487 0.05067 0.56988 0.0
C955 C 0.51467 0.02411 0.55836 0.0
C956 C 0.51676 0.05202 0.5911 0.0
C957 C 0.51871 0.02697 0.60132 0.0
C958 C 0.51838 1.00039 0.58982 0.0
C959 C 0.51646 0.999 0.56865 0.0
C960 C 0.52051 0.02789 0.62393 0.0
C961 C 0.49688 0.99966 0.63367 0.0
C962 C 0.54509 0.05609 0.63591 0.0
C963 C 0.57185 0.08609 0.62667 0.0
C964 C 0.59318 0.08304 0.61275 0.0
C965 C 0.61818 0.1114 0.60397 0.0
C966 C 0.62229 0.14299 0.60912 0.0
C967 C 0.60146 0.14629 0.62311 0.0
C968 C 0.57639 0.11801 0.63191 0.0
C969 C 0.53331 0.99652 0.71717 0.0
C970 C 0.53086 0.01889 0.73138 0.0
C971 C 0.53116 0.99955 0.69639 0.0
C972 C 0.52637 0.02495 0.68908 0.0
C973 C 0.52485 0.048 0.70308 0.0
C974 C 0.52688 0.0449 0.72401 0.0
C975 C 0.52228 0.02654 0.66681 0.0
C976 C 0.5454 0.05518 0.65717 0.0
C977 C 0.4973 0.99867 0.65485 0.0
C978 C 0.47098 0.96835 0.66412 0.0
C979 C 0.45075 0.97111 0.67898 0.0
C980 C 0.4262 0.94251 0.68779 0.0
C981 C 0.42149 0.91096 0.68177 0.0
C982 C 0.44128 0.90794 0.6669 0.0
C983 C 0.46589 0.93647 0.65806 0.0
H984 H 0.40247 0.88885 0.68861 0.0
H985 H 0.64165 0.16491 0.6023 0.0
H986 H 0.55937 0.52085 0.90005 0.0
H987 H 0.55125 0.51724 0.93621 0.0
H988 H 0.45681 0.51429 0.9279 0.0
H989 H 0.46482 0.51806 0.89121 0.0
H990 H 0.49552 0.55645 0.96152 0.0
H991 H 0.45491 0.44368 0.93695 0.0
H992 H 0.456 0.39767 0.9171 0.0
H993 H 0.54492 0.41701 0.95056 0.0
H994 H 0.54468 0.46349 0.97041 0.0
H995 H 0.47139 0.51613 0.06717 0.0
H996 H 0.46166 0.51487 0.03057 0.0
H997 H 0.55235 0.51179 0.02009 0.0
H998 H 0.56206 0.51273 0.05621 0.0
H999 H 0.50288 0.46663 0.99543 0.0
H1000 H 0.54755 0.58411 0.01626 0.0
H1001 H 0.54763 0.63123 0.03553 0.0
H1002 H 0.45078 0.60271 0.00902 0.0
H1003 H 0.44997 0.55515 0.98977 0.0
C1004 C 0.53678 0.51947 0.90575 0.0
C1005 C 0.51266 0.51957 0.89255 0.0
C1006 C 0.53215 0.5173 0.92654 0.0
C1007 C 0.50322 0.51504 0.93484 0.0
C1008 C 0.47929 0.51588 0.92186 0.0
C1009 C 0.48386 0.51792 0.90088 0.0
C1010 C 0.49845 0.51147 0.95706 0.0
C1011 C 0.49636 0.5364 0.96892 0.0
C1012 C 0.49985 0.4855 0.96681 0.0
C1013 C 0.49987 0.45723 0.9551 0.0
C1014 C 0.47482 0.43826 0.94 0.0
C1015 C 0.47527 0.41208 0.92875 0.0
C1016 C 0.50054 0.40446 0.93254 0.0
C1017 C 0.52536 0.42294 0.94764 0.0
C1018 C 0.52504 0.44919 0.95892 0.0
C1019 C 0.48929 0.51526 0.05715 0.0
C1020 C 0.51751 0.51451 0.06491 0.0
C1021 C 0.48373 0.51462 0.03613 0.0
C1022 C 0.5063 0.51328 0.02244 0.0
C1023 C 0.53441 0.51262 0.03021 0.0
C1024 C 0.53996 0.5133 0.05104 0.0
C1025 C 0.50118 0.51228 1e-05 0.0
C1026 C 0.50137 0.48636 0.98806 0.0
C1027 C 0.49801 0.5373 0.99024 0.0
C1028 C 0.49851 0.56585 0.00179 0.0
C1029 C 0.52615 0.58773 0.01468 0.0
C1030 C 0.52635 0.61454 0.02557 0.0
C1031 C 0.49917 0.61989 0.02356 0.0
C1032 C 0.47178 0.59849 0.0106 0.0
C1033 C 0.47144 0.57161 -0.0003 0.0
H1034 H 0.49938 0.64067 0.032 0.0
H1035 H 0.50087 0.3842 0.9238 0.0
H1036 H 0.05561 0.53857 0.23746 0.0
H1037 H 0.04886 0.53118 0.27363 0.0
H1038 H 0.94811 0.44869 0.26203 0.0
H1039 H 0.9547 0.45584 0.22548 0.0
H1040 H 0.9535 0.49433 0.29414 0.0
H1041 H 1.0057 0.43064 0.27506 0.0
H1042 H 0.0474 0.42007 0.25835 0.0
H1043 H 0.12669 0.50125 0.2947 0.0
H1044 H 0.08552 0.51265 0.31143 0.0
H1045 H 0.95306 0.47039 0.40116 0.0
H1046 H 0.94617 0.45798 0.36437 0.0
H1047 H 0.05084 0.53009 0.35806 0.0
H1048 H 0.05808 0.54169 0.39439 0.0
H1049 H 0.03495 0.4775 0.33421 0.0
H1050 H 0.98541 0.54714 0.3489 0.0
H1051 H 0.94536 0.5609 0.36499 0.0
H1052 H 0.86282 0.47124 0.33676 0.0
H1053 H 0.90242 0.45677 0.32069 0.0
C1054 C 0.03196 0.51877 0.24249 0.0
C1055 C 1.00573 0.49773 0.22847 0.0
C1056 C 0.02819 0.51452 0.26324 0.0
C1057 C 0.99809 0.48919 0.27059 0.0
C1058 C 0.9716 0.46835 0.25671 0.0
C1059 C 0.97546 0.4724 0.23583 0.0
C1060 C 0.9948 0.48495 0.29279 0.0
C1061 C 0.97082 0.48991 0.30289 0.0
C1062 C 0.01766 0.47964 0.30427 0.0
C1063 C 0.0425 0.47262 0.29442 0.0
C1064 C 0.03205 0.44638 0.27941 0.0
C1065 C 0.0556 0.44022 0.26994 0.0
C1066 C 0.08968 0.46001 0.27544 0.0
C1067 C 0.10028 0.48595 0.29046 0.0
C1068 C 0.07684 0.49224 0.29996 0.0
C1069 C 0.97469 0.48317 0.39198 0.0
C1070 C 1.00613 0.50703 0.40091 0.0
C1071 C 0.97065 0.4763 0.37087 0.0
C1072 C 0.99794 0.4933 0.35829 0.0
C1073 C 0.02936 0.5165 0.36729 0.0
C1074 C 0.03339 0.52326 0.38821 0.0
C1075 C 0.99439 0.48805 0.33573 0.0
C1076 C 0.01714 0.48126 0.3255 0.0
C1077 C 0.9706 0.49198 0.32419 0.0
C1078 C 0.94683 0.50066 0.33382 0.0
C1079 C 0.95871 0.53024 0.34626 0.0
C1080 C 0.9361 0.53819 0.35535 0.0
C1081 C 0.90156 0.5169 0.35196 0.0
C1082 C 0.88957 0.48766 0.33942 0.0
C1083 C 0.91208 0.47958 0.33031 0.0
H1084 H 0.8841 0.5231 0.359 0.0
H1085 H 0.10788 0.45522 0.26808 0.0
loop_
_geom_bond_atom_site_label_1
_geom_bond_atom_site_label_2
_geom_bond_distance
_geom_bond_site_symmetry_2
_ccdc_geom_bond_type
Eu0 C9 2.828 . S
Eu0 O11 2.392 1_655 S
Eu0 O13 2.418 . S
Eu0 O18 2.373 . S
Eu0 O21 2.488 . S
Eu0 O22 2.471 . S
Eu0 O23 2.349 . S
Eu1 O10 2.373 . S
Eu1 O14 2.488 . S
Eu1 O15 2.471 . S
Eu1 O16 2.349 . S
Eu1 O19 2.392 1_455 S
Eu1 O20 2.418 . S
Eu1 C30 2.828 . S
C2 O20 1.244 . S
C2 O23 1.265 1_455 S
C3 C4 1.379 . S
C3 C7 1.373 . S
C3 C9 1.505 . S
C4 C3 1.379 . S
C4 C6 1.369 . S
C4 H32 0.930 . S
C5 C7 1.383 . S
C5 C8 1.382 . S
C5 H33 0.930 . S
C6 C4 1.369 . S
C6 C8 1.392 . S
C6 H34 0.930 . S
C7 C3 1.373 . S
C7 C5 1.383 . S
C7 H35 0.931 . S
C8 C5 1.382 . S
C8 C6 1.392 . S
C9 Eu0 2.828 . S
C9 C3 1.505 . S
C9 O21 1.249 . S
C9 O22 1.244 . S
O10 Eu1 2.373 . S
O10 C12 1.258 . S
O11 Eu0 2.392 1_455 S
O11 C12 1.242 . S
C12 O10 1.258 . S
C12 O11 1.242 . S
O13 Eu0 2.418 . S
O13 C17 1.244 . S
O14 Eu1 2.488 . S
O14 C30 1.249 . S
O15 Eu1 2.471 . S
O15 C30 1.244 . S
O16 Eu1 2.349 . S
O16 C17 1.265 1_455 S
C17 O13 1.244 . S
C17 O16 1.265 1_655 S
O18 Eu0 2.373 . S
O18 C31 1.258 . S
O19 Eu1 2.392 1_655 S
O19 C31 1.242 . S
O20 Eu1 2.418 . S
O20 C2 1.244 . S
O21 Eu0 2.488 . S
O21 C9 1.249 . S
O22 Eu0 2.471 . S
O22 C9 1.244 . S
O23 Eu0 2.349 . S
O23 C2 1.265 1_655 S
C24 C25 1.379 . S
C24 C28 1.373 . S
C24 C30 1.505 . S
C25 C24 1.379 . S
C25 C27 1.369 . S
C25 H36 0.930 . S
C26 C28 1.383 . S
C26 C29 1.382 . S
C26 H37 0.930 . S
C27 C25 1.369 . S
C27 C29 1.392 . S
C27 H38 0.930 . S
C28 C24 1.373 . S
C28 C26 1.383 . S
C28 H39 0.931 . S
C29 C26 1.382 . S
C29 C27 1.392 . S
C30 Eu1 2.828 . S
C30 O14 1.249 . S
C30 O15 1.244 . S
C30 C24 1.505 . S
C31 O18 1.258 . S
C31 O19 1.242 . S
H32 C4 0.930 . S
H33 C5 0.930 . S
H34 C6 0.930 . S
H35 C7 0.931 . S
H36 C25 0.930 . S
H37 C26 0.930 . S
H38 C27 0.930 . S
H39 C28 0.931 . S
Eu40 C49 2.828 . S
Eu40 O51 2.392 1_565 S
Eu40 O53 2.418 . S
Eu40 O58 2.373 . S
Eu40 O61 2.488 . S
Eu40 O62 2.471 . S
Eu40 O63 2.347 . S
Eu41 O50 2.373 . S
Eu41 O54 2.488 . S
Eu41 O55 2.471 . S
Eu41 O56 2.349 . S
Eu41 O59 2.392 1_545 S
Eu41 O60 2.418 . S
Eu41 C70 2.828 . S
C42 O60 1.244 . S
C42 O63 1.267 1_545 S
C43 C44 1.379 . S
C43 C47 1.373 . S
C43 C49 1.505 . S
C44 C43 1.379 . S
C44 C46 1.369 . S
C44 H72 0.930 . S
C45 C47 1.383 . S
C45 C48 1.382 . S
C45 H73 0.930 . S
C46 C44 1.369 . S
C46 C48 1.392 . S
C46 H74 0.930 . S
C47 C43 1.373 . S
C47 C45 1.383 . S
C47 H75 0.931 . S
C48 C45 1.382 . S
C48 C46 1.392 . S
C49 Eu40 2.828 . S
C49 C43 1.505 . S
C49 O61 1.249 . S
C49 O62 1.244 . S
O50 Eu41 2.373 . S
O50 C52 1.258 . S
O51 Eu40 2.392 1_545 S
O51 C52 1.242 . S
C52 O50 1.258 . S
C52 O51 1.242 . S
O53 Eu40 2.418 . S
O53 C57 1.244 1_565 S
O54 Eu41 2.488 . S
O54 C70 1.249 . S
O55 Eu41 2.471 . S
O55 C70 1.244 . S
O56 Eu41 2.349 . S
O56 C57 1.265 . S
C57 O53 1.244 1_545 S
C57 O56 1.265 . S
O58 Eu40 2.373 . S
O58 C71 1.258 . S
O59 Eu41 2.392 1_565 S
O59 C71 1.242 . S
O60 Eu41 2.418 . S
O60 C42 1.244 . S
O61 Eu40 2.488 . S
O61 C49 1.249 . S
O62 Eu40 2.471 . S
O62 C49 1.244 . S
O63 Eu40 2.347 . S
O63 C42 1.267 1_565 S
C64 C65 1.379 . S
C64 C68 1.373 . S
C64 C70 1.505 . S
C65 C64 1.379 . S
C65 C67 1.369 . S
C65 H76 0.930 . S
C66 C68 1.383 . S
C66 C69 1.382 . S
C66 H77 0.930 . S
C67 C65 1.369 . S
C67 C69 1.392 . S
C67 H78 0.930 . S
C68 C64 1.373 . S
C68 C66 1.383 . S
C68 H79 0.931 . S
C69 C66 1.382 . S
C69 C67 1.392 . S
C70 Eu41 2.828 . S
C70 O54 1.249 . S
C70 O55 1.244 . S
C70 C64 1.505 . S
C71 O58 1.258 . S
C71 O59 1.242 . S
H72 C44 0.930 . S
H73 C45 0.930 . S
H74 C46 0.930 . S
H75 C47 0.931 . S
H76 C65 0.930 . S
H77 C66 0.930 . S
H78 C67 0.930 . S
H79 C68 0.931 . S
Eu80 C89 2.828 . S
Eu80 O91 2.392 . S
Eu80 O93 2.418 . S
Eu80 O98 2.373 . S
Eu80 O101 2.488 . S
Eu80 O102 2.471 . S
Eu80 O103 2.349 . S
Eu81 O90 2.373 . S
Eu81 O94 2.488 . S
Eu81 O95 2.471 . S
Eu81 O96 2.349 . S
Eu81 O99 2.392 . S
Eu81 O100 2.418 . S
Eu81 C110 2.828 . S
C82 O100 1.244 . S
C82 O103 1.265 . S
C83 C84 1.379 . S
C83 C87 1.373 . S
C83 C89 1.505 . S
C84 C83 1.379 . S
C84 C86 1.369 . S
C84 H112 0.930 . S
C85 C87 1.383 . S
C85 C88 1.382 . S
C85 H113 0.930 . S
C86 C84 1.369 . S
C86 C88 1.392 . S
C86 H114 0.930 . S
C87 C83 1.373 . S
C87 C85 1.383 . S
C87 H115 0.931 . S
C88 C85 1.382 . S
C88 C86 1.392 . S
C89 Eu80 2.828 . S
C89 C83 1.505 . S
C89 O101 1.249 . S
C89 O102 1.244 . S
O90 Eu81 2.373 . S
O90 C92 1.258 . S
O91 Eu80 2.392 . S
O91 C92 1.242 . S
C92 O90 1.258 . S
C92 O91 1.242 . S
O93 Eu80 2.418 . S
O93 C97 1.244 . S
O94 Eu81 2.488 . S
O94 C110 1.249 . S
O95 Eu81 2.471 . S
O95 C110 1.244 . S
O96 Eu81 2.349 . S
O96 C97 1.265 . S
C97 O93 1.244 . S
C97 O96 1.265 . S
O98 Eu80 2.373 . S
O98 C111 1.258 . S
O99 Eu81 2.392 . S
O99 C111 1.242 . S
O100 Eu81 2.418 . S
O100 C82 1.244 . S
O101 Eu80 2.488 . S
O101 C89 1.249 . S
O102 Eu80 2.471 . S
O102 C89 1.244 . S
O103 Eu80 2.349 . S
O103 C82 1.265 . S
C104 C105 1.379 . S
C104 C108 1.373 . S
C104 C110 1.505 . S
C105 C104 1.379 . S
C105 C107 1.369 . S
C105 H116 0.930 . S
C106 C108 1.383 . S
C106 C109 1.382 . S
C106 H117 0.930 . S
C107 C105 1.369 . S
C107 C109 1.392 . S
C107 H118 0.930 . S
C108 C104 1.373 . S
C108 C106 1.383 . S
C108 H119 0.931 . S
C109 C106 1.382 . S
C109 C107 1.392 . S
C110 Eu81 2.828 . S
C110 O94 1.249 . S
C110 O95 1.244 . S
C110 C104 1.505 . S
C111 O98 1.258 . S
C111 O99 1.242 . S
H112 C84 0.930 . S
H113 C85 0.930 . S
H114 C86 0.930 . S
H115 C87 0.931 . S
H116 C105 0.930 . S
H117 C106 0.930 . S
H118 C107 0.930 . S
H119 C108 0.931 . S
O120 Cd121 2.300 . S
O120 C127 1.275 . S
Cd121 O120 2.300 . S
Cd121 O129 2.381 . S
Cd121 O130 2.378 . S
O122 Cd123 2.385 1_545 S
O122 C127 1.255 . S
Cd123 O122 2.385 1_565 S
Cd123 O124 2.317 . S
O124 Cd123 2.317 . S
O124 C125 1.232 . S
C125 O124 1.232 . S
C125 O126 1.218 . S
O126 C125 1.218 . S
C127 O120 1.275 . S
C127 O122 1.255 . S
C128 O129 1.258 . S
C128 O130 1.256 . S
O129 Cd121 2.381 . S
O129 C128 1.258 . S
O130 Cd121 2.378 . S
O130 C128 1.256 . S
O131 Cd132 2.300 . S
O131 C138 1.275 . S
Cd132 O131 2.300 . S
Cd132 O140 2.381 . S
Cd132 O141 2.378 . S
O133 Cd134 2.385 . S
O133 C138 1.255 . S
Cd134 O133 2.385 . S
Cd134 O135 2.317 . S
O135 Cd134 2.317 . S
O135 C136 1.232 . S
C136 O135 1.232 . S
C136 O137 1.218 . S
O137 C136 1.218 . S
C138 O131 1.275 . S
C138 O133 1.255 . S
C139 O140 1.258 . S
C139 O141 1.256 . S
O140 Cd132 2.381 . S
O140 C139 1.258 . S
O141 Cd132 2.378 . S
O141 C139 1.256 . S
O142 Cd143 2.300 . S
O142 C149 1.275 . S
Cd143 O142 2.300 . S
Cd143 O151 2.381 . S
Cd143 O152 2.378 . S
O144 Cd145 2.385 1_455 S
O144 C149 1.255 . S
Cd145 O144 2.385 1_655 S
Cd145 O146 2.317 . S
O146 Cd145 2.317 . S
O146 C147 1.232 . S
C147 O146 1.232 . S
C147 O148 1.218 . S
O148 C147 1.218 . S
C149 O142 1.275 . S
C149 O144 1.255 . S
C150 O151 1.258 . S
C150 O152 1.256 . S
O151 Cd143 2.381 . S
O151 C150 1.258 . S
O152 Cd143 2.378 . S
O152 C150 1.256 . S
O153 Cd154 2.300 . S
O153 C160 1.275 . S
Cd154 O153 2.300 . S
Cd154 O162 2.381 . S
Cd154 O163 2.378 . S
O155 Cd156 2.385 . S
O155 C160 1.255 1_655 S
Cd156 O155 2.385 . S
Cd156 O157 2.317 . S
O157 Cd156 2.317 . S
O157 C158 1.232 . S
C158 O157 1.232 . S
C158 O159 1.218 . S
O159 C158 1.218 . S
C160 O153 1.275 . S
C160 O155 1.255 1_455 S
C161 O162 1.258 . S
C161 O163 1.256 . S
O162 Cd154 2.381 . S
O162 C161 1.258 . S
O163 Cd154 2.378 . S
O163 C161 1.256 . S
O164 Cd165 2.300 . S
O164 C171 1.275 1_565 S
Cd165 O164 2.300 . S
Cd165 O173 2.381 . S
Cd165 O174 2.378 . S
O166 Cd167 2.385 . S
O166 C171 1.255 . S
Cd167 O166 2.385 . S
Cd167 O168 2.317 . S
O168 Cd167 2.317 . S
O168 C169 1.232 . S
C169 O168 1.232 . S
C169 O170 1.218 . S
O170 C169 1.218 . S
C171 O164 1.275 1_545 S
C171 O166 1.255 . S
C172 O173 1.258 . S
C172 O174 1.256 . S
O173 Cd165 2.381 . S
O173 C172 1.258 . S
O174 Cd165 2.378 . S
O174 C172 1.256 . S
O175 Cd176 2.300 . S
O175 C182 1.275 . S
Cd176 O175 2.300 . S
Cd176 O184 2.381 . S
Cd176 O185 2.378 . S
O177 Cd178 2.385 . S
O177 C182 1.255 . S
Cd178 O177 2.385 . S
Cd178 O179 2.317 . S
O179 Cd178 2.317 . S
O179 C180 1.232 . S
C180 O179 1.232 . S
C180 O181 1.218 . S
O181 C180 1.218 . S
C182 O175 1.275 . S
C182 O177 1.255 . S
C183 O184 1.258 . S
C183 O185 1.256 . S
O184 Cd176 2.381 . S
O184 C183 1.258 . S
O185 Cd176 2.378 . S
O185 C183 1.256 . S
H186 C204 0.951 . S
H187 C206 0.951 . S
H188 C208 0.950 . S
H189 C209 0.950 . S
H190 C211 0.950 . S
H191 C214 0.950 . S
H192 C215 0.950 . S
H193 C217 0.950 . S
H194 C218 0.950 . S
H195 C219 0.951 . S
H196 C221 0.951 . S
H197 C223 0.950 . S
H198 C224 0.950 . S
H199 C226 0.950 . S
H200 C229 0.950 . S
H201 C230 0.950 . S
H202 C232 0.950 . S
H203 C233 0.950 . S
C204 H186 0.951 . S
C204 C205 1.366 . S
C204 C206 1.388 . S
C205 C204 1.366 . S
C205 C209 1.385 . S
C206 H187 0.951 . S
C206 C204 1.388 . S
C206 C207 1.366 . S
C207 C206 1.366 . S
C207 C208 1.414 . S
C207 C210 1.499 . S
C208 H188 0.950 . S
C208 C207 1.414 . S
C208 C209 1.374 . S
C209 H189 0.950 . S
C209 C205 1.385 . S
C209 C208 1.374 . S
C210 C207 1.499 . S
C210 C211 1.373 . S
C210 C212 1.389 . S
C211 H190 0.950 . S
C211 C210 1.373 . S
C211 C227 1.377 . S
C212 C210 1.389 . S
C212 C213 1.524 . S
C212 C226 1.377 . S
C213 C212 1.524 . S
C213 C214 1.397 . S
C213 C218 1.363 . S
C214 H191 0.950 . S
C214 C213 1.397 . S
C214 C215 1.334 . S
C215 H192 0.950 . S
C215 C214 1.334 . S
C215 C216 1.287 . S
C216 C215 1.287 . S
C216 C217 1.524 . S
C216 H235 0.913 . S
C217 H193 0.950 . S
C217 C216 1.524 . S
C217 C218 1.415 . S
C218 H194 0.950 . S
C218 C213 1.363 . S
C218 C217 1.415 . S
C219 H195 0.951 . S
C219 C220 1.366 . S
C219 C221 1.388 . S
C220 C219 1.366 . S
C220 C224 1.385 . S
C221 H196 0.951 . S
C221 C219 1.388 . S
C221 C222 1.366 . S
C222 C221 1.366 . S
C222 C223 1.414 . S
C222 C225 1.499 . S
C223 H197 0.950 . S
C223 C222 1.414 . S
C223 C224 1.374 . S
C224 H198 0.950 . S
C224 C220 1.385 . S
C224 C223 1.374 . S
C225 C222 1.499 . S
C225 C226 1.373 . S
C225 C227 1.389 . S
C226 H199 0.950 . S
C226 C212 1.377 . S
C226 C225 1.373 . S
C227 C211 1.377 . S
C227 C225 1.389 . S
C227 C228 1.524 . S
C228 C227 1.524 . S
C228 C229 1.397 . S
C228 C233 1.363 . S
C229 H200 0.950 . S
C229 C228 1.397 . S
C229 C230 1.334 . S
C230 H201 0.950 . S
C230 C229 1.334 . S
C230 C231 1.287 . S
C231 C230 1.287 . S
C231 C232 1.524 . S
C231 H234 0.999 . S
C232 H202 0.950 . S
C232 C231 1.524 . S
C232 C233 1.415 . S
C233 H203 0.950 . S
C233 C228 1.363 . S
C233 C232 1.415 . S
H234 C231 0.999 . S
H235 C216 0.913 . S
H236 C254 0.951 . S
H237 C256 0.951 . S
H238 C258 0.950 . S
H239 C259 0.950 . S
H240 C261 0.950 . S
H241 C264 0.950 . S
H242 C265 0.950 . S
H243 C267 0.950 . S
H244 C268 0.950 . S
H245 C269 0.951 . S
H246 C271 0.951 . S
H247 C273 0.950 . S
H248 C274 0.950 . S
H249 C276 0.950 . S
H250 C279 0.950 . S
H251 C280 0.950 . S
H252 C282 0.950 . S
H253 C283 0.950 . S
C254 H236 0.951 . S
C254 C255 1.366 . S
C254 C256 1.388 . S
C255 C254 1.366 . S
C255 C259 1.385 . S
C256 H237 0.951 . S
C256 C254 1.388 . S
C256 C257 1.366 . S
C257 C256 1.366 . S
C257 C258 1.414 . S
C257 C260 1.499 . S
C258 H238 0.950 . S
C258 C257 1.414 . S
C258 C259 1.374 . S
C259 H239 0.950 . S
C259 C255 1.385 . S
C259 C258 1.374 . S
C260 C257 1.499 . S
C260 C261 1.373 . S
C260 C262 1.389 . S
C261 H240 0.950 . S
C261 C260 1.373 . S
C261 C277 1.377 . S
C262 C260 1.389 . S
C262 C263 1.524 . S
C262 C276 1.377 . S
C263 C262 1.524 . S
C263 C264 1.397 . S
C263 C268 1.363 . S
C264 H241 0.950 . S
C264 C263 1.397 . S
C264 C265 1.334 . S
C265 H242 0.950 . S
C265 C264 1.334 . S
C265 C266 1.287 . S
C266 C265 1.287 . S
C266 C267 1.524 . S
C266 H285 0.913 . S
C267 H243 0.950 . S
C267 C266 1.524 . S
C267 C268 1.415 . S
C268 H244 0.950 . S
C268 C263 1.363 . S
C268 C267 1.415 . S
C269 H245 0.951 . S
C269 C270 1.366 . S
C269 C271 1.388 . S
C270 C269 1.366 . S
C270 C274 1.385 . S
C271 H246 0.951 . S
C271 C269 1.388 . S
C271 C272 1.366 . S
C272 C271 1.366 . S
C272 C273 1.414 . S
C272 C275 1.499 . S
C273 H247 0.950 . S
C273 C272 1.414 . S
C273 C274 1.374 . S
C274 H248 0.950 . S
C274 C270 1.385 . S
C274 C273 1.374 . S
C275 C272 1.499 . S
C275 C276 1.373 . S
C275 C277 1.389 . S
C276 H249 0.950 . S
C276 C262 1.377 . S
C276 C275 1.373 . S
C277 C261 1.377 . S
C277 C275 1.389 . S
C277 C278 1.524 . S
C278 C277 1.524 . S
C278 C279 1.397 . S
C278 C283 1.363 . S
C279 H250 0.950 . S
C279 C278 1.397 . S
C279 C280 1.334 . S
C280 H251 0.950 . S
C280 C279 1.334 . S
C280 C281 1.287 . S
C281 C280 1.287 . S
C281 C282 1.524 . S
C281 H284 0.999 . S
C282 H252 0.950 . S
C282 C281 1.524 . S
C282 C283 1.415 . S
C283 H253 0.950 . S
C283 C278 1.363 . S
C283 C282 1.415 . S
H284 C281 0.999 . S
H285 C266 0.913 . S
H286 C304 0.951 . S
H287 C306 0.951 . S
H288 C308 0.950 . S
H289 C309 0.950 . S
H290 C311 0.950 . S
H291 C314 0.950 . S
H292 C315 0.950 . S
H293 C317 0.950 . S
H294 C318 0.950 . S
H295 C319 0.951 . S
H296 C321 0.951 . S
H297 C323 0.950 . S
H298 C324 0.950 . S
H299 C326 0.950 . S
H300 C329 0.950 . S
H301 C330 0.950 . S
H302 C332 0.950 . S
H303 C333 0.950 . S
C304 H286 0.951 . S
C304 C305 1.366 . S
C304 C306 1.388 . S
C305 C304 1.366 . S
C305 C309 1.385 . S
C306 H287 0.951 . S
C306 C304 1.388 . S
C306 C307 1.366 . S
C307 C306 1.366 . S
C307 C308 1.414 . S
C307 C310 1.499 . S
C308 H288 0.950 . S
C308 C307 1.414 . S
C308 C309 1.374 . S
C309 H289 0.950 . S
C309 C305 1.385 . S
C309 C308 1.374 . S
C310 C307 1.499 . S
C310 C311 1.373 . S
C310 C312 1.389 . S
C311 H290 0.950 . S
C311 C310 1.373 . S
C311 C327 1.377 . S
C312 C310 1.389 . S
C312 C313 1.524 . S
C312 C326 1.377 . S
C313 C312 1.524 . S
C313 C314 1.397 . S
C313 C318 1.363 . S
C314 H291 0.950 . S
C314 C313 1.397 . S
C314 C315 1.334 . S
C315 H292 0.950 . S
C315 C314 1.334 . S
C315 C316 1.287 . S
C316 C315 1.287 . S
C316 C317 1.524 . S
C316 H335 0.913 . S
C317 H293 0.950 . S
C317 C316 1.524 . S
C317 C318 1.415 . S
C318 H294 0.950 . S
C318 C313 1.363 . S
C318 C317 1.415 . S
C319 H295 0.951 . S
C319 C320 1.366 . S
C319 C321 1.388 . S
C320 C319 1.366 . S
C320 C324 1.385 . S
C321 H296 0.951 . S
C321 C319 1.388 . S
C321 C322 1.366 . S
C322 C321 1.366 . S
C322 C323 1.414 . S
C322 C325 1.499 . S
C323 H297 0.950 . S
C323 C322 1.414 . S
C323 C324 1.374 . S
C324 H298 0.950 . S
C324 C320 1.385 . S
C324 C323 1.374 . S
C325 C322 1.499 . S
C325 C326 1.373 . S
C325 C327 1.389 . S
C326 H299 0.950 . S
C326 C312 1.377 . S
C326 C325 1.373 . S
C327 C311 1.377 . S
C327 C325 1.389 . S
C327 C328 1.524 . S
C328 C327 1.524 . S
C328 C329 1.397 . S
C328 C333 1.363 . S
C329 H300 0.950 . S
C329 C328 1.397 . S
C329 C330 1.334 . S
C330 H301 0.950 . S
C330 C329 1.334 . S
C330 C331 1.287 . S
C331 C330 1.287 . S
C331 C332 1.524 . S
C331 H334 0.999 . S
C332 H302 0.950 . S
C332 C331 1.524 . S
C332 C333 1.415 . S
C333 H303 0.950 . S
C333 C328 1.363 . S
C333 C332 1.415 . S
H334 C331 0.999 . S
H335 C316 0.913 . S
H336 C354 0.951 . S
H337 C356 0.951 . S
H338 C358 0.950 . S
H339 C359 0.950 . S
H340 C361 0.950 . S
H341 C364 0.950 . S
H342 C365 0.950 . S
H343 C367 0.950 . S
H344 C368 0.950 . S
H345 C369 0.951 . S
H346 C371 0.951 . S
H347 C373 0.950 . S
H348 C374 0.950 . S
H349 C376 0.950 . S
H350 C379 0.950 . S
H351 C380 0.950 . S
H352 C382 0.950 . S
H353 C383 0.950 . S
C354 H336 0.951 . S
C354 C355 1.366 . S
C354 C356 1.388 . S
C355 C354 1.366 . S
C355 C359 1.385 . S
C356 H337 0.951 . S
C356 C354 1.388 . S
C356 C357 1.366 . S
C357 C356 1.366 . S
C357 C358 1.414 . S
C357 C360 1.499 . S
C358 H338 0.950 . S
C358 C357 1.414 . S
C358 C359 1.374 . S
C359 H339 0.950 . S
C359 C355 1.385 . S
C359 C358 1.374 . S
C360 C357 1.499 . S
C360 C361 1.373 . S
C360 C362 1.389 . S
C361 H340 0.950 . S
C361 C360 1.373 . S
C361 C377 1.377 . S
C362 C360 1.389 . S
C362 C363 1.524 . S
C362 C376 1.377 . S
C363 C362 1.524 . S
C363 C364 1.397 . S
C363 C368 1.363 . S
C364 H341 0.950 . S
C364 C363 1.397 . S
C364 C365 1.334 . S
C365 H342 0.950 . S
C365 C364 1.334 . S
C365 C366 1.287 . S
C366 C365 1.287 . S
C366 C367 1.524 . S
C366 H385 0.913 . S
C367 H343 0.950 . S
C367 C366 1.524 . S
C367 C368 1.415 . S
C368 H344 0.950 . S
C368 C363 1.363 . S
C368 C367 1.415 . S
C369 H345 0.951 . S
C369 C370 1.366 . S
C369 C371 1.388 . S
C370 C369 1.366 . S
C370 C374 1.385 . S
C371 H346 0.951 . S
C371 C369 1.388 . S
C371 C372 1.366 . S
C372 C371 1.366 . S
C372 C373 1.414 . S
C372 C375 1.499 . S
C373 H347 0.950 . S
C373 C372 1.414 . S
C373 C374 1.374 . S
C374 H348 0.950 . S
C374 C370 1.385 . S
C374 C373 1.374 . S
C375 C372 1.499 . S
C375 C376 1.373 . S
C375 C377 1.389 . S
C376 H349 0.950 . S
C376 C362 1.377 . S
C376 C375 1.373 . S
C377 C361 1.377 . S
C377 C375 1.389 . S
C377 C378 1.524 . S
C378 C377 1.524 . S
C378 C379 1.397 . S
C378 C383 1.363 . S
C379 H350 0.950 . S
C379 C378 1.397 . S
C379 C380 1.334 . S
C380 H351 0.950 . S
C380 C379 1.334 . S
C380 C381 1.287 . S
C381 C380 1.287 . S
C381 C382 1.524 . S
C381 H384 0.999 . S
C382 H352 0.950 . S
C382 C381 1.524 . S
C382 C383 1.415 . S
C383 H353 0.950 . S
C383 C378 1.363 . S
C383 C382 1.415 . S
H384 C381 0.999 . S
H385 C366 0.913 . S
H386 C404 0.951 . S
H387 C406 0.951 . S
H388 C408 0.950 . S
H389 C409 0.950 . S
H390 C411 0.950 . S
H391 C414 0.950 . S
H392 C415 0.950 . S
H393 C417 0.950 . S
H394 C418 0.950 . S
H395 C419 0.951 . S
H396 C421 0.951 . S
H397 C423 0.950 . S
H398 C424 0.950 . S
H399 C426 0.950 . S
H400 C429 0.950 . S
H401 C430 0.950 . S
H402 C432 0.950 . S
H403 C433 0.950 . S
C404 H386 0.951 . S
C404 C405 1.366 . S
C404 C406 1.388 . S
C405 C404 1.366 . S
C405 C409 1.385 . S
C406 H387 0.951 . S
C406 C404 1.388 . S
C406 C407 1.366 . S
C407 C406 1.366 . S
C407 C408 1.414 . S
C407 C410 1.499 . S
C408 H388 0.950 . S
C408 C407 1.414 . S
C408 C409 1.374 . S
C409 H389 0.950 . S
C409 C405 1.385 . S
C409 C408 1.374 . S
C410 C407 1.499 . S
C410 C411 1.373 . S
C410 C412 1.389 . S
C411 H390 0.950 . S
C411 C410 1.373 . S
C411 C427 1.377 . S
C412 C410 1.389 . S
C412 C413 1.524 . S
C412 C426 1.377 . S
C413 C412 1.524 . S
C413 C414 1.397 . S
C413 C418 1.363 . S
C414 H391 0.950 . S
C414 C413 1.397 . S
C414 C415 1.334 . S
C415 H392 0.950 . S
C415 C414 1.334 . S
C415 C416 1.287 . S
C416 C415 1.287 . S
C416 C417 1.524 . S
C416 H435 0.913 . S
C417 H393 0.950 . S
C417 C416 1.524 . S
C417 C418 1.415 . S
C418 H394 0.950 . S
C418 C413 1.363 . S
C418 C417 1.415 . S
C419 H395 0.951 . S
C419 C420 1.366 . S
C419 C421 1.388 . S
C420 C419 1.366 . S
C420 C424 1.385 . S
C421 H396 0.951 . S
C421 C419 1.388 . S
C421 C422 1.366 . S
C422 C421 1.366 . S
C422 C423 1.414 . S
C422 C425 1.499 . S
C423 H397 0.950 . S
C423 C422 1.414 . S
C423 C424 1.374 . S
C424 H398 0.950 . S
C424 C420 1.385 . S
C424 C423 1.374 . S
C425 C422 1.499 . S
C425 C426 1.373 . S
C425 C427 1.389 . S
C426 H399 0.950 . S
C426 C412 1.377 . S
C426 C425 1.373 . S
C427 C411 1.377 . S
C427 C425 1.389 . S
C427 C428 1.524 . S
C428 C427 1.524 . S
C428 C429 1.397 . S
C428 C433 1.363 . S
C429 H400 0.950 . S
C429 C428 1.397 . S
C429 C430 1.334 . S
C430 H401 0.950 . S
C430 C429 1.334 . S
C430 C431 1.287 . S
C431 C430 1.287 . S
C431 C432 1.524 . S
C431 H434 0.999 . S
C432 H402 0.950 . S
C432 C431 1.524 . S
C432 C433 1.415 . S
C433 H403 0.950 . S
C433 C428 1.363 . S
C433 C432 1.415 . S
H434 C431 0.999 . S
H435 C416 0.913 . S
H436 C454 0.951 . S
H437 C456 0.951 . S
H438 C458 0.950 . S
H439 C459 0.950 . S
H440 C461 0.950 . S
H441 C464 0.950 . S
H442 C465 0.950 . S
H443 C467 0.950 . S
H444 C468 0.950 . S
H445 C469 0.951 . S
H446 C471 0.951 . S
H447 C473 0.950 . S
H448 C474 0.950 . S
H449 C476 0.950 . S
H450 C479 0.950 . S
H451 C480 0.950 . S
H452 C482 0.950 . S
H453 C483 0.950 . S
C454 H436 0.951 . S
C454 C455 1.366 . S
C454 C456 1.388 . S
C455 C454 1.366 . S
C455 C459 1.385 . S
C456 H437 0.951 . S
C456 C454 1.388 . S
C456 C457 1.366 . S
C457 C456 1.366 . S
C457 C458 1.414 . S
C457 C460 1.499 . S
C458 H438 0.950 . S
C458 C457 1.414 . S
C458 C459 1.374 . S
C459 H439 0.950 . S
C459 C455 1.385 . S
C459 C458 1.374 . S
C460 C457 1.499 . S
C460 C461 1.373 . S
C460 C462 1.389 . S
C461 H440 0.950 . S
C461 C460 1.373 . S
C461 C477 1.377 . S
C462 C460 1.389 . S
C462 C463 1.524 . S
C462 C476 1.377 . S
C463 C462 1.524 . S
C463 C464 1.397 . S
C463 C468 1.363 . S
C464 H441 0.950 . S
C464 C463 1.397 . S
C464 C465 1.334 . S
C465 H442 0.950 . S
C465 C464 1.334 . S
C465 C466 1.287 . S
C466 C465 1.287 . S
C466 C467 1.524 . S
C466 H485 0.913 . S
C467 H443 0.950 . S
C467 C466 1.524 . S
C467 C468 1.415 . S
C468 H444 0.950 . S
C468 C463 1.363 . S
C468 C467 1.415 . S
C469 H445 0.951 . S
C469 C470 1.366 . S
C469 C471 1.388 . S
C470 C469 1.366 . S
C470 C474 1.385 . S
C471 H446 0.951 . S
C471 C469 1.388 . S
C471 C472 1.366 . S
C472 C471 1.366 . S
C472 C473 1.414 . S
C472 C475 1.499 . S
C473 H447 0.950 . S
C473 C472 1.414 . S
C473 C474 1.374 . S
C474 H448 0.950 . S
C474 C470 1.385 . S
C474 C473 1.374 . S
C475 C472 1.499 . S
C475 C476 1.373 . S
C475 C477 1.389 . S
C476 H449 0.950 . S
C476 C462 1.377 . S
C476 C475 1.373 . S
C477 C461 1.377 . S
C477 C475 1.389 . S
C477 C478 1.524 . S
C478 C477 1.524 . S
C478 C479 1.397 . S
C478 C483 1.363 . S
C479 H450 0.950 . S
C479 C478 1.397 . S
C479 C480 1.334 . S
C480 H451 0.950 . S
C480 C479 1.334 . S
C480 C481 1.287 . S
C481 C480 1.287 . S
C481 C482 1.524 . S
C481 H484 0.999 . S
C482 H452 0.950 . S
C482 C481 1.524 . S
C482 C483 1.415 . S
C483 H453 0.950 . S
C483 C478 1.363 . S
C483 C482 1.415 . S
H484 C481 0.999 . S
H485 C466 0.913 . S
H486 C504 0.951 . S
H487 C506 0.951 . S
H488 C508 0.950 . S
H489 C509 0.950 . S
H490 C511 0.950 . S
H491 C514 0.950 . S
H492 C515 0.950 . S
H493 C517 0.950 . S
H494 C518 0.950 . S
H495 C519 0.951 . S
H496 C521 0.951 . S
H497 C523 0.950 . S
H498 C524 0.950 . S
H499 C526 0.950 . S
H500 C529 0.950 . S
H501 C530 0.950 . S
H502 C532 0.950 . S
H503 C533 0.950 . S
C504 H486 0.951 . S
C504 C505 1.366 . S
C504 C506 1.388 . S
C505 C504 1.366 . S
C505 C509 1.385 . S
C506 H487 0.951 . S
C506 C504 1.388 . S
C506 C507 1.366 . S
C507 C506 1.366 . S
C507 C508 1.414 . S
C507 C510 1.499 . S
C508 H488 0.950 . S
C508 C507 1.414 . S
C508 C509 1.374 . S
C509 H489 0.950 . S
C509 C505 1.385 . S
C509 C508 1.374 . S
C510 C507 1.499 . S
C510 C511 1.373 . S
C510 C512 1.389 . S
C511 H490 0.950 . S
C511 C510 1.373 . S
C511 C527 1.377 . S
C512 C510 1.389 . S
C512 C513 1.524 . S
C512 C526 1.377 . S
C513 C512 1.524 . S
C513 C514 1.397 . S
C513 C518 1.363 . S
C514 H491 0.950 . S
C514 C513 1.397 . S
C514 C515 1.334 . S
C515 H492 0.950 . S
C515 C514 1.334 . S
C515 C516 1.287 . S
C516 C515 1.287 . S
C516 C517 1.524 . S
C516 H535 0.913 . S
C517 H493 0.950 . S
C517 C516 1.524 . S
C517 C518 1.415 . S
C518 H494 0.950 . S
C518 C513 1.363 . S
C518 C517 1.415 . S
C519 H495 0.951 . S
C519 C520 1.366 . S
C519 C521 1.388 . S
C520 C519 1.366 . S
C520 C524 1.385 . S
C521 H496 0.951 . S
C521 C519 1.388 . S
C521 C522 1.366 . S
C522 C521 1.366 . S
C522 C523 1.414 . S
C522 C525 1.499 . S
C523 H497 0.950 . S
C523 C522 1.414 . S
C523 C524 1.374 . S
C524 H498 0.950 . S
C524 C520 1.385 . S
C524 C523 1.374 . S
C525 C522 1.499 . S
C525 C526 1.373 . S
C525 C527 1.389 . S
C526 H499 0.950 . S
C526 C512 1.377 . S
C526 C525 1.373 . S
C527 C511 1.377 . S
C527 C525 1.389 . S
C527 C528 1.524 . S
C528 C527 1.524 . S
C528 C529 1.397 . S
C528 C533 1.363 . S
C529 H500 0.950 . S
C529 C528 1.397 . S
C529 C530 1.334 . S
C530 H501 0.950 . S
C530 C529 1.334 . S
C530 C531 1.287 . S
C531 C530 1.287 . S
C531 C532 1.524 . S
C531 H534 0.999 . S
C532 H502 0.950 . S
C532 C531 1.524 . S
C532 C533 1.415 . S
C533 H503 0.950 . S
C533 C528 1.363 . S
C533 C532 1.415 . S
H534 C531 0.999 . S
H535 C516 0.913 . S
H536 C554 0.951 . S
H537 C556 0.951 . S
H538 C558 0.950 . S
H539 C559 0.950 . S
H540 C561 0.950 . S
H541 C564 0.950 . S
H542 C565 0.950 . S
H543 C567 0.950 . S
H544 C568 0.950 . S
H545 C569 0.951 . S
H546 C571 0.951 . S
H547 C573 0.950 . S
H548 C574 0.950 . S
H549 C576 0.950 . S
H550 C579 0.950 . S
H551 C580 0.950 . S
H552 C582 0.950 . S
H553 C583 0.950 . S
C554 H536 0.951 . S
C554 C555 1.366 . S
C554 C556 1.388 . S
C555 C554 1.366 . S
C555 C559 1.385 . S
C556 H537 0.951 . S
C556 C554 1.388 . S
C556 C557 1.366 . S
C557 C556 1.366 . S
C557 C558 1.414 . S
C557 C560 1.499 . S
C558 H538 0.950 . S
C558 C557 1.414 . S
C558 C559 1.374 . S
C559 H539 0.950 . S
C559 C555 1.385 . S
C559 C558 1.374 . S
C560 C557 1.499 . S
C560 C561 1.373 . S
C560 C562 1.389 . S
C561 H540 0.950 . S
C561 C560 1.373 . S
C561 C577 1.377 . S
C562 C560 1.389 . S
C562 C563 1.524 . S
C562 C576 1.377 . S
C563 C562 1.524 . S
C563 C564 1.397 . S
C563 C568 1.363 . S
C564 H541 0.950 . S
C564 C563 1.397 . S
C564 C565 1.334 . S
C565 H542 0.950 . S
C565 C564 1.334 . S
C565 C566 1.287 . S
C566 C565 1.287 . S
C566 C567 1.524 . S
C566 H585 0.913 . S
C567 H543 0.950 . S
C567 C566 1.524 . S
C567 C568 1.415 . S
C568 H544 0.950 . S
C568 C563 1.363 . S
C568 C567 1.415 . S
C569 H545 0.951 . S
C569 C570 1.366 . S
C569 C571 1.388 . S
C570 C569 1.366 . S
C570 C574 1.385 . S
C571 H546 0.951 . S
C571 C569 1.388 . S
C571 C572 1.366 . S
C572 C571 1.366 . S
C572 C573 1.414 . S
C572 C575 1.499 . S
C573 H547 0.950 . S
C573 C572 1.414 . S
C573 C574 1.374 . S
C574 H548 0.950 . S
C574 C570 1.385 . S
C574 C573 1.374 . S
C575 C572 1.499 . S
C575 C576 1.373 . S
C575 C577 1.389 . S
C576 H549 0.950 . S
C576 C562 1.377 . S
C576 C575 1.373 . S
C577 C561 1.377 . S
C577 C575 1.389 . S
C577 C578 1.524 . S
C578 C577 1.524 . S
C578 C579 1.397 . S
C578 C583 1.363 . S
C579 H550 0.950 . S
C579 C578 1.397 . S
C579 C580 1.334 . S
C580 H551 0.950 . S
C580 C579 1.334 . S
C580 C581 1.287 . S
C581 C580 1.287 . S
C581 C582 1.524 . S
C581 H584 0.999 . S
C582 H552 0.950 . S
C582 C581 1.524 . S
C582 C583 1.415 . S
C583 H553 0.950 . S
C583 C578 1.363 . S
C583 C582 1.415 . S
H584 C581 0.999 . S
H585 C566 0.913 . S
H586 C604 0.951 . S
H587 C606 0.951 . S
H588 C608 0.950 . S
H589 C609 0.950 . S
H590 C611 0.950 . S
H591 C614 0.950 . S
H592 C615 0.950 . S
H593 C617 0.950 . S
H594 C618 0.950 . S
H595 C619 0.951 . S
H596 C621 0.951 . S
H597 C623 0.950 . S
H598 C624 0.950 . S
H599 C626 0.950 . S
H600 C629 0.950 . S
H601 C630 0.950 . S
H602 C632 0.950 . S
H603 C633 0.950 . S
C604 H586 0.951 . S
C604 C605 1.366 . S
C604 C606 1.388 . S
C605 C604 1.366 . S
C605 C609 1.385 . S
C606 H587 0.951 . S
C606 C604 1.388 . S
C606 C607 1.366 . S
C607 C606 1.366 . S
C607 C608 1.414 . S
C607 C610 1.499 . S
C608 H588 0.950 . S
C608 C607 1.414 . S
C608 C609 1.374 . S
C609 H589 0.950 . S
C609 C605 1.385 . S
C609 C608 1.374 . S
C610 C607 1.499 . S
C610 C611 1.373 . S
C610 C612 1.389 . S
C611 H590 0.950 . S
C611 C610 1.373 . S
C611 C627 1.377 . S
C612 C610 1.389 . S
C612 C613 1.524 . S
C612 C626 1.377 . S
C613 C612 1.524 . S
C613 C614 1.397 . S
C613 C618 1.363 . S
C614 H591 0.950 . S
C614 C613 1.397 . S
C614 C615 1.334 . S
C615 H592 0.950 . S
C615 C614 1.334 . S
C615 C616 1.287 . S
C616 C615 1.287 . S
C616 C617 1.524 . S
C616 H635 0.913 . S
C617 H593 0.950 . S
C617 C616 1.524 . S
C617 C618 1.415 . S
C618 H594 0.950 . S
C618 C613 1.363 . S
C618 C617 1.415 . S
C619 H595 0.951 . S
C619 C620 1.366 . S
C619 C621 1.388 . S
C620 C619 1.366 . S
C620 C624 1.385 . S
C621 H596 0.951 . S
C621 C619 1.388 . S
C621 C622 1.366 . S
C622 C621 1.366 . S
C622 C623 1.414 . S
C622 C625 1.499 . S
C623 H597 0.950 . S
C623 C622 1.414 . S
C623 C624 1.374 . S
C624 H598 0.950 . S
C624 C620 1.385 . S
C624 C623 1.374 . S
C625 C622 1.499 . S
C625 C626 1.373 . S
C625 C627 1.389 . S
C626 H599 0.950 . S
C626 C612 1.377 . S
C626 C625 1.373 . S
C627 C611 1.377 . S
C627 C625 1.389 . S
C627 C628 1.524 . S
C628 C627 1.524 . S
C628 C629 1.397 . S
C628 C633 1.363 . S
C629 H600 0.950 . S
C629 C628 1.397 . S
C629 C630 1.334 . S
C630 H601 0.950 . S
C630 C629 1.334 . S
C630 C631 1.287 . S
C631 C630 1.287 . S
C631 C632 1.524 . S
C631 H634 0.999 . S
C632 H602 0.950 . S
C632 C631 1.524 . S
C632 C633 1.415 . S
C633 H603 0.950 . S
C633 C628 1.363 . S
C633 C632 1.415 . S
H634 C631 0.999 . S
H635 C616 0.913 . S
H636 C654 0.951 . S
H637 C656 0.951 . S
H638 C658 0.950 . S
H639 C659 0.950 . S
H640 C661 0.950 . S
H641 C664 0.950 . S
H642 C665 0.950 . S
H643 C667 0.950 . S
H644 C668 0.950 . S
H645 C669 0.951 . S
H646 C671 0.951 . S
H647 C673 0.950 . S
H648 C674 0.950 . S
H649 C676 0.950 . S
H650 C679 0.950 . S
H651 C680 0.950 . S
H652 C682 0.950 . S
H653 C683 0.950 . S
C654 H636 0.951 . S
C654 C655 1.366 . S
C654 C656 1.388 . S
C655 C654 1.366 . S
C655 C659 1.385 . S
C656 H637 0.951 . S
C656 C654 1.388 . S
C656 C657 1.366 . S
C657 C656 1.366 . S
C657 C658 1.414 . S
C657 C660 1.499 . S
C658 H638 0.950 . S
C658 C657 1.414 . S
C658 C659 1.374 . S
C659 H639 0.950 . S
C659 C655 1.385 . S
C659 C658 1.374 . S
C660 C657 1.499 . S
C660 C661 1.373 . S
C660 C662 1.389 . S
C661 H640 0.950 . S
C661 C660 1.373 . S
C661 C677 1.377 . S
C662 C660 1.389 . S
C662 C663 1.524 . S
C662 C676 1.377 . S
C663 C662 1.524 . S
C663 C664 1.397 . S
C663 C668 1.363 . S
C664 H641 0.950 . S
C664 C663 1.397 . S
C664 C665 1.334 . S
C665 H642 0.950 . S
C665 C664 1.334 . S
C665 C666 1.287 . S
C666 C665 1.287 . S
C666 C667 1.524 . S
C666 H685 0.913 . S
C667 H643 0.950 . S
C667 C666 1.524 . S
C667 C668 1.415 . S
C668 H644 0.950 . S
C668 C663 1.363 . S
C668 C667 1.415 . S
C669 H645 0.951 . S
C669 C670 1.366 . S
C669 C671 1.388 . S
C670 C669 1.366 . S
C670 C674 1.385 . S
C671 H646 0.951 . S
C671 C669 1.388 . S
C671 C672 1.366 . S
C672 C671 1.366 . S
C672 C673 1.414 . S
C672 C675 1.499 . S
C673 H647 0.950 . S
C673 C672 1.414 . S
C673 C674 1.374 . S
C674 H648 0.950 . S
C674 C670 1.385 . S
C674 C673 1.374 . S
C675 C672 1.499 . S
C675 C676 1.373 . S
C675 C677 1.389 . S
C676 H649 0.950 . S
C676 C662 1.377 . S
C676 C675 1.373 . S
C677 C661 1.377 . S
C677 C675 1.389 . S
C677 C678 1.524 . S
C678 C677 1.524 . S
C678 C679 1.397 . S
C678 C683 1.363 . S
C679 H650 0.950 . S
C679 C678 1.397 . S
C679 C680 1.334 . S
C680 H651 0.950 . S
C680 C679 1.334 . S
C680 C681 1.287 . S
C681 C680 1.287 . S
C681 C682 1.524 . S
C681 H684 0.999 . S
C682 H652 0.950 . S
C682 C681 1.524 . S
C682 C683 1.415 . S
C683 H653 0.950 . S
C683 C678 1.363 . S
C683 C682 1.415 . S
H684 C681 0.999 . S
H685 C666 0.913 . S
H686 C704 0.951 . S
H687 C706 0.951 . S
H688 C708 0.950 . S
H689 C709 0.950 . S
H690 C711 0.950 . S
H691 C714 0.950 . S
H692 C715 0.950 . S
H693 C717 0.950 . S
H694 C718 0.950 . S
H695 C719 0.951 . S
H696 C721 0.951 . S
H697 C723 0.950 . S
H698 C724 0.950 . S
H699 C726 0.950 . S
H700 C729 0.950 . S
H701 C730 0.950 . S
H702 C732 0.950 . S
H703 C733 0.950 . S
C704 H686 0.951 . S
C704 C705 1.366 . S
C704 C706 1.388 . S
C705 C704 1.366 . S
C705 C709 1.385 . S
C706 H687 0.951 . S
C706 C704 1.388 . S
C706 C707 1.366 . S
C707 C706 1.366 . S
C707 C708 1.414 . S
C707 C710 1.499 . S
C708 H688 0.950 . S
C708 C707 1.414 . S
C708 C709 1.374 . S
C709 H689 0.950 . S
C709 C705 1.385 . S
C709 C708 1.374 . S
C710 C707 1.499 . S
C710 C711 1.373 . S
C710 C712 1.389 . S
C711 H690 0.950 . S
C711 C710 1.373 . S
C711 C727 1.377 . S
C712 C710 1.389 . S
C712 C713 1.524 . S
C712 C726 1.377 . S
C713 C712 1.524 . S
C713 C714 1.397 . S
C713 C718 1.363 . S
C714 H691 0.950 . S
C714 C713 1.397 . S
C714 C715 1.334 . S
C715 H692 0.950 . S
C715 C714 1.334 . S
C715 C716 1.287 . S
C716 C715 1.287 . S
C716 C717 1.524 . S
C716 H735 0.913 . S
C717 H693 0.950 . S
C717 C716 1.524 . S
C717 C718 1.415 . S
C718 H694 0.950 . S
C718 C713 1.363 . S
C718 C717 1.415 . S
C719 H695 0.951 . S
C719 C720 1.366 . S
C719 C721 1.388 . S
C720 C719 1.366 . S
C720 C724 1.385 . S
C721 H696 0.951 . S
C721 C719 1.388 . S
C721 C722 1.366 . S
C722 C721 1.366 . S
C722 C723 1.414 . S
C722 C725 1.499 . S
C723 H697 0.950 . S
C723 C722 1.414 . S
C723 C724 1.374 . S
C724 H698 0.950 . S
C724 C720 1.385 . S
C724 C723 1.374 . S
C725 C722 1.499 . S
C725 C726 1.373 . S
C725 C727 1.389 . S
C726 H699 0.950 . S
C726 C712 1.377 . S
C726 C725 1.373 . S
C727 C711 1.377 . S
C727 C725 1.389 . S
C727 C728 1.524 . S
C728 C727 1.524 . S
C728 C729 1.397 . S
C728 C733 1.363 . S
C729 H700 0.950 . S
C729 C728 1.397 . S
C729 C730 1.334 . S
C730 H701 0.950 . S
C730 C729 1.334 . S
C730 C731 1.287 . S
C731 C730 1.287 . S
C731 C732 1.524 . S
C731 H734 0.999 . S
C732 H702 0.950 . S
C732 C731 1.524 . S
C732 C733 1.415 . S
C733 H703 0.950 . S
C733 C728 1.363 . S
C733 C732 1.415 . S
H734 C731 0.999 . S
H735 C716 0.913 . S
H736 C754 0.951 . S
H737 C756 0.951 . S
H738 C758 0.950 . S
H739 C759 0.950 . S
H740 C761 0.950 . S
H741 C764 0.950 . S
H742 C765 0.950 . S
H743 C767 0.950 . S
H744 C768 0.950 . S
H745 C769 0.951 . S
H746 C771 0.951 . S
H747 C773 0.950 . S
H748 C774 0.950 . S
H749 C776 0.950 . S
H750 C779 0.950 . S
H751 C780 0.950 . S
H752 C782 0.950 . S
H753 C783 0.950 . S
C754 H736 0.951 . S
C754 C755 1.366 . S
C754 C756 1.388 . S
C755 C754 1.366 . S
C755 C759 1.385 . S
C756 H737 0.951 . S
C756 C754 1.388 . S
C756 C757 1.366 . S
C757 C756 1.366 . S
C757 C758 1.414 . S
C757 C760 1.499 . S
C758 H738 0.950 . S
C758 C757 1.414 . S
C758 C759 1.374 . S
C759 H739 0.950 . S
C759 C755 1.385 . S
C759 C758 1.374 . S
C760 C757 1.499 . S
C760 C761 1.373 . S
C760 C762 1.389 . S
C761 H740 0.950 . S
C761 C760 1.373 . S
C761 C777 1.377 . S
C762 C760 1.389 . S
C762 C763 1.524 . S
C762 C776 1.377 . S
C763 C762 1.524 . S
C763 C764 1.397 . S
C763 C768 1.363 . S
C764 H741 0.950 . S
C764 C763 1.397 . S
C764 C765 1.334 . S
C765 H742 0.950 . S
C765 C764 1.334 . S
C765 C766 1.287 . S
C766 C765 1.287 . S
C766 C767 1.524 . S
C766 H785 0.913 . S
C767 H743 0.950 . S
C767 C766 1.524 . S
C767 C768 1.415 . S
C768 H744 0.950 . S
C768 C763 1.363 . S
C768 C767 1.415 . S
C769 H745 0.951 . S
C769 C770 1.366 . S
C769 C771 1.388 . S
C770 C769 1.366 . S
C770 C774 1.385 . S
C771 H746 0.951 . S
C771 C769 1.388 . S
C771 C772 1.366 . S
C772 C771 1.366 . S
C772 C773 1.414 . S
C772 C775 1.499 . S
C773 H747 0.950 . S
C773 C772 1.414 . S
C773 C774 1.374 . S
C774 H748 0.950 . S
C774 C770 1.385 . S
C774 C773 1.374 . S
C775 C772 1.499 . S
C775 C776 1.373 . S
C775 C777 1.389 . S
C776 H749 0.950 . S
C776 C762 1.377 . S
C776 C775 1.373 . S
C777 C761 1.377 . S
C777 C775 1.389 . S
C777 C778 1.524 . S
C778 C777 1.524 . S
C778 C779 1.397 . S
C778 C783 1.363 . S
C779 H750 0.950 . S
C779 C778 1.397 . S
C779 C780 1.334 . S
C780 H751 0.950 . S
C780 C779 1.334 . S
C780 C781 1.287 . S
C781 C780 1.287 . S
C781 C782 1.524 . S
C781 H784 0.999 . S
C782 H752 0.950 . S
C782 C781 1.524 . S
C782 C783 1.415 . S
C783 H753 0.950 . S
C783 C778 1.363 . S
C783 C782 1.415 . S
H784 C781 0.999 . S
H785 C766 0.913 . S
H786 C804 0.951 . S
H787 C806 0.951 . S
H788 C808 0.950 . S
H789 C809 0.950 . S
H790 C811 0.950 . S
H791 C814 0.950 . S
H792 C815 0.950 . S
H793 C817 0.950 . S
H794 C818 0.950 . S
H795 C819 0.951 . S
H796 C821 0.951 . S
H797 C823 0.950 . S
H798 C824 0.950 . S
H799 C826 0.950 1_556 S
H800 C829 0.950 . S
H801 C830 0.950 . S
H802 C832 0.946 1_554 S
H803 C833 0.950 . S
C804 H786 0.951 . S
C804 C805 1.366 1_655 S
C804 C806 1.388 . S
C805 C804 1.366 1_455 S
C805 C809 1.385 . S
C806 H787 0.951 . S
C806 C804 1.388 . S
C806 C807 1.366 1_655 S
C807 C806 1.366 1_455 S
C807 C808 1.414 . S
C807 C810 1.499 . S
C808 H788 0.950 . S
C808 C807 1.414 . S
C808 C809 1.374 . S
C809 H789 0.950 . S
C809 C805 1.385 . S
C809 C808 1.374 . S
C810 C807 1.499 . S
C810 C811 1.373 . S
C810 C812 1.389 1_455 S
C811 H790 0.950 . S
C811 C810 1.373 . S
C811 C827 1.377 . S
C812 C810 1.389 1_655 S
C812 C813 1.524 . S
C812 C826 1.377 . S
C813 C812 1.524 . S
C813 C814 1.397 . S
C813 C818 1.363 . S
C814 H791 0.950 . S
C814 C813 1.397 . S
C814 C815 1.334 . S
C815 H792 0.950 . S
C815 C814 1.334 . S
C815 C816 1.287 . S
C816 C815 1.287 . S
C816 C817 1.524 . S
C816 H835 0.913 . S
C817 H793 0.950 . S
C817 C816 1.524 . S
C817 C818 1.415 . S
C818 H794 0.950 . S
C818 C813 1.363 . S
C818 C817 1.415 . S
C819 H795 0.951 . S
C819 C820 1.366 . S
C819 C821 1.388 . S
C820 C819 1.366 . S
C820 C824 1.385 . S
C821 H796 0.951 . S
C821 C819 1.388 . S
C821 C822 1.366 . S
C822 C821 1.366 . S
C822 C823 1.414 . S
C822 C825 1.499 . S
C823 H797 0.950 . S
C823 C822 1.414 . S
C823 C824 1.374 . S
C824 H798 0.950 . S
C824 C820 1.385 . S
C824 C823 1.374 . S
C825 C822 1.499 . S
C825 C826 1.373 1_456 S
C825 C827 1.389 1_556 S
C826 H799 0.950 1_554 S
C826 C812 1.377 . S
C826 C825 1.373 1_654 S
C827 C811 1.377 . S
C827 C825 1.389 1_554 S
C827 C828 1.524 . S
C828 C827 1.524 . S
C828 C829 1.397 1_554 S
C828 C833 1.363 . S
C829 H800 0.950 . S
C829 C828 1.397 1_556 S
C829 C830 1.334 . S
C830 H801 0.950 . S
C830 C829 1.334 . S
C830 C831 1.287 . S
C831 C830 1.287 . S
C831 C832 1.539 . S
C831 H834 0.999 . S
C832 H802 0.946 1_556 S
C832 C831 1.539 . S
C832 C833 1.405 1_556 S
C833 H803 0.950 . S
C833 C828 1.363 . S
C833 C832 1.405 1_554 S
H834 C831 0.999 . S
H835 C816 0.913 . S
H836 C854 0.951 . S
H837 C856 0.951 . S
H838 C858 0.950 . S
H839 C859 0.950 . S
H840 C861 0.950 . S
H841 C864 0.950 . S
H842 C865 0.950 . S
H843 C867 0.950 . S
H844 C868 0.950 . S
H845 C869 0.951 . S
H846 C871 0.951 . S
H847 C873 0.950 . S
H848 C874 0.950 . S
H849 C876 0.950 . S
H850 C879 0.950 . S
H851 C880 0.950 . S
H852 C882 0.950 . S
H853 C883 0.950 . S
C854 H836 0.951 . S
C854 C855 1.366 . S
C854 C856 1.388 . S
C855 C854 1.366 . S
C855 C859 1.385 1_545 S
C856 H837 0.951 . S
C856 C854 1.388 . S
C856 C857 1.366 . S
C857 C856 1.366 . S
C857 C858 1.414 1_545 S
C857 C860 1.499 . S
C858 H838 0.950 . S
C858 C857 1.414 1_565 S
C858 C859 1.374 . S
C859 H839 0.950 . S
C859 C855 1.385 1_565 S
C859 C858 1.374 . S
C860 C857 1.499 . S
C860 C861 1.373 . S
C860 C862 1.389 . S
C861 H840 0.950 . S
C861 C860 1.373 . S
C861 C877 1.377 . S
C862 C860 1.389 . S
C862 C863 1.524 . S
C862 C876 1.377 . S
C863 C862 1.524 . S
C863 C864 1.397 1_545 S
C863 C868 1.363 . S
C864 H841 0.950 . S
C864 C863 1.397 1_565 S
C864 C865 1.334 . S
C865 H842 0.950 . S
C865 C864 1.334 . S
C865 C866 1.287 1_565 S
C866 C865 1.287 1_545 S
C866 C867 1.524 . S
C866 H885 0.913 . S
C867 H843 0.950 . S
C867 C866 1.524 . S
C867 C868 1.415 . S
C868 H844 0.950 . S
C868 C863 1.363 . S
C868 C867 1.415 . S
C869 H845 0.951 . S
C869 C870 1.366 1_565 S
C869 C871 1.388 . S
C870 C869 1.366 1_545 S
C870 C874 1.385 . S
C871 H846 0.951 . S
C871 C869 1.388 . S
C871 C872 1.366 1_565 S
C872 C871 1.366 1_545 S
C872 C873 1.414 . S
C872 C875 1.499 . S
C873 H847 0.950 . S
C873 C872 1.414 . S
C873 C874 1.374 . S
C874 H848 0.950 . S
C874 C870 1.385 . S
C874 C873 1.374 . S
C875 C872 1.499 . S
C875 C876 1.373 . S
C875 C877 1.389 . S
C876 H849 0.950 . S
C876 C862 1.377 . S
C876 C875 1.373 . S
C877 C861 1.377 . S
C877 C875 1.389 . S
C877 C878 1.524 . S
C878 C877 1.524 . S
C878 C879 1.397 . S
C878 C883 1.363 1_545 S
C879 H850 0.950 . S
C879 C878 1.397 . S
C879 C880 1.334 . S
C880 H851 0.950 . S
C880 C879 1.334 . S
C880 C881 1.287 . S
C881 C880 1.287 . S
C881 C882 1.524 1_545 S
C881 H884 0.999 . S
C882 H852 0.950 . S
C882 C881 1.524 1_565 S
C882 C883 1.415 . S
C883 H853 0.950 . S
C883 C878 1.363 1_565 S
C883 C882 1.415 . S
H884 C881 0.999 . S
H885 C866 0.913 . S
H886 C904 0.951 . S
H887 C906 0.951 . S
H888 C908 0.950 . S
H889 C909 0.950 . S
H890 C911 0.950 . S
H891 C914 0.950 . S
H892 C915 0.950 . S
H893 C917 0.950 . S
H894 C918 0.950 . S
H895 C919 0.951 . S
H896 C921 0.951 . S
H897 C923 0.950 . S
H898 C924 0.950 . S
H899 C926 0.950 . S
H900 C929 0.950 . S
H901 C930 0.950 . S
H902 C932 0.950 . S
H903 C933 0.950 . S
C904 H886 0.951 . S
C904 C905 1.366 . S
C904 C906 1.388 . S
C905 C904 1.366 . S
C905 C909 1.385 . S
C906 H887 0.951 . S
C906 C904 1.388 . S
C906 C907 1.366 . S
C907 C906 1.366 . S
C907 C908 1.414 . S
C907 C910 1.499 . S
C908 H888 0.950 . S
C908 C907 1.414 . S
C908 C909 1.374 . S
C909 H889 0.950 . S
C909 C905 1.385 . S
C909 C908 1.374 . S
C910 C907 1.499 . S
C910 C911 1.373 . S
C910 C912 1.389 . S
C911 H890 0.950 . S
C911 C910 1.373 . S
C911 C927 1.377 . S
C912 C910 1.389 . S
C912 C913 1.524 . S
C912 C926 1.377 . S
C913 C912 1.524 . S
C913 C914 1.397 . S
C913 C918 1.363 . S
C914 H891 0.950 . S
C914 C913 1.397 . S
C914 C915 1.334 . S
C915 H892 0.950 . S
C915 C914 1.334 . S
C915 C916 1.287 . S
C916 C915 1.287 . S
C916 C917 1.524 . S
C916 H935 0.913 . S
C917 H893 0.950 . S
C917 C916 1.524 . S
C917 C918 1.415 . S
C918 H894 0.950 . S
C918 C913 1.363 . S
C918 C917 1.415 . S
C919 H895 0.951 . S
C919 C920 1.366 . S
C919 C921 1.388 . S
C920 C919 1.366 . S
C920 C924 1.385 . S
C921 H896 0.951 . S
C921 C919 1.388 . S
C921 C922 1.366 . S
C922 C921 1.366 . S
C922 C923 1.414 . S
C922 C925 1.499 . S
C923 H897 0.950 . S
C923 C922 1.414 . S
C923 C924 1.374 . S
C924 H898 0.950 . S
C924 C920 1.385 . S
C924 C923 1.374 . S
C925 C922 1.499 . S
C925 C926 1.373 . S
C925 C927 1.389 . S
C926 H899 0.950 . S
C926 C912 1.377 . S
C926 C925 1.373 . S
C927 C911 1.377 . S
C927 C925 1.389 . S
C927 C928 1.524 . S
C928 C927 1.524 . S
C928 C929 1.397 . S
C928 C933 1.363 . S
C929 H900 0.950 . S
C929 C928 1.397 . S
C929 C930 1.334 . S
C930 H901 0.950 . S
C930 C929 1.334 . S
C930 C931 1.287 . S
C931 C930 1.287 . S
C931 C932 1.524 . S
C931 H934 0.999 . S
C932 H902 0.950 . S
C932 C931 1.524 . S
C932 C933 1.415 . S
C933 H903 0.950 . S
C933 C928 1.363 . S
C933 C932 1.415 . S
H934 C931 0.999 . S
H935 C916 0.913 . S
H936 C954 0.951 . S
H937 C956 0.951 . S
H938 C958 0.950 . S
H939 C959 0.950 . S
H940 C961 0.950 . S
H941 C964 0.950 . S
H942 C965 0.950 . S
H943 C967 0.950 . S
H944 C968 0.950 . S
H945 C969 0.951 . S
H946 C971 0.951 . S
H947 C973 0.950 . S
H948 C974 0.950 . S
H949 C976 0.950 . S
H950 C979 0.950 . S
H951 C980 0.950 . S
H952 C982 0.950 . S
H953 C983 0.950 . S
C954 H936 0.951 . S
C954 C955 1.366 . S
C954 C956 1.388 . S
C955 C954 1.366 . S
C955 C959 1.385 1_545 S
C956 H937 0.951 . S
C956 C954 1.388 . S
C956 C957 1.366 . S
C957 C956 1.366 . S
C957 C958 1.414 1_545 S
C957 C960 1.499 . S
C958 H938 0.950 . S
C958 C957 1.414 1_565 S
C958 C959 1.374 . S
C959 H939 0.950 . S
C959 C955 1.385 1_565 S
C959 C958 1.374 . S
C960 C957 1.499 . S
C960 C961 1.373 1_545 S
C960 C962 1.389 . S
C961 H940 0.950 . S
C961 C960 1.373 1_565 S
C961 C977 1.377 . S
C962 C960 1.389 . S
C962 C963 1.524 . S
C962 C976 1.377 . S
C963 C962 1.524 . S
C963 C964 1.397 . S
C963 C968 1.363 . S
C964 H941 0.950 . S
C964 C963 1.397 . S
C964 C965 1.334 . S
C965 H942 0.950 . S
C965 C964 1.334 . S
C965 C966 1.287 . S
C966 C965 1.287 . S
C966 C967 1.524 . S
C966 H985 0.913 . S
C967 H943 0.950 . S
C967 C966 1.524 . S
C967 C968 1.415 . S
C968 H944 0.950 . S
C968 C963 1.363 . S
C968 C967 1.415 . S
C969 H945 0.951 . S
C969 C970 1.366 1_565 S
C969 C971 1.388 . S
C970 C969 1.366 1_545 S
C970 C974 1.385 . S
C971 H946 0.951 . S
C971 C969 1.388 . S
C971 C972 1.366 1_565 S
C972 C971 1.366 1_545 S
C972 C973 1.414 . S
C972 C975 1.499 . S
C973 H947 0.950 . S
C973 C972 1.414 . S
C973 C974 1.374 . S
C974 H948 0.950 . S
C974 C970 1.385 . S
C974 C973 1.374 . S
C975 C972 1.499 . S
C975 C976 1.373 . S
C975 C977 1.389 1_545 S
C976 H949 0.950 . S
C976 C962 1.377 . S
C976 C975 1.373 . S
C977 C961 1.377 . S
C977 C975 1.389 1_565 S
C977 C978 1.524 . S
C978 C977 1.524 . S
C978 C979 1.397 . S
C978 C983 1.363 . S
C979 H950 0.950 . S
C979 C978 1.397 . S
C979 C980 1.334 . S
C980 H951 0.950 . S
C980 C979 1.334 . S
C980 C981 1.287 . S
C981 C980 1.287 . S
C981 C982 1.524 . S
C981 H984 0.999 . S
C982 H952 0.950 . S
C982 C981 1.524 . S
C982 C983 1.415 . S
C983 H953 0.950 . S
C983 C978 1.363 . S
C983 C982 1.415 . S
H984 C981 0.999 . S
H985 C966 0.913 . S
H986 C1004 0.951 . S
H987 C1006 0.951 . S
H988 C1008 0.950 . S
H989 C1009 0.950 . S
H990 C1011 0.950 . S
H991 C1014 0.950 . S
H992 C1015 0.950 . S
H993 C1017 0.950 . S
H994 C1018 0.950 . S
H995 C1019 0.951 . S
H996 C1021 0.951 . S
H997 C1023 0.950 . S
H998 C1024 0.950 . S
H999 C1026 0.950 . S
H1000 C1029 0.950 . S
H1001 C1030 0.950 . S
H1002 C1032 0.940 1_556 S
H1003 C1033 0.950 . S
C1004 H986 0.951 . S
C1004 C1005 1.366 . S
C1004 C1006 1.388 . S
C1005 C1004 1.366 . S
C1005 C1009 1.385 . S
C1006 H987 0.951 . S
C1006 C1004 1.388 . S
C1006 C1007 1.366 . S
C1007 C1006 1.366 . S
C1007 C1008 1.414 . S
C1007 C1010 1.499 . S
C1008 H988 0.950 . S
C1008 C1007 1.414 . S
C1008 C1009 1.374 . S
C1009 H989 0.950 . S
C1009 C1005 1.385 . S
C1009 C1008 1.374 . S
C1010 C1007 1.499 . S
C1010 C1011 1.373 . S
C1010 C1012 1.389 . S
C1011 H990 0.950 . S
C1011 C1010 1.373 . S
C1011 C1027 1.377 . S
C1012 C1010 1.389 . S
C1012 C1013 1.524 . S
C1012 C1026 1.377 . S
C1013 C1012 1.524 . S
C1013 C1014 1.397 . S
C1013 C1018 1.363 . S
C1014 H991 0.950 . S
C1014 C1013 1.397 . S
C1014 C1015 1.334 . S
C1015 H992 0.950 . S
C1015 C1014 1.334 . S
C1015 C1016 1.287 . S
C1016 C1015 1.287 . S
C1016 C1017 1.524 . S
C1016 H1035 0.913 . S
C1017 H993 0.950 . S
C1017 C1016 1.524 . S
C1017 C1018 1.415 . S
C1018 H994 0.950 . S
C1018 C1013 1.363 . S
C1018 C1017 1.415 . S
C1019 H995 0.951 . S
C1019 C1020 1.366 . S
C1019 C1021 1.388 . S
C1020 C1019 1.366 . S
C1020 C1024 1.385 . S
C1021 H996 0.951 . S
C1021 C1019 1.388 . S
C1021 C1022 1.366 . S
C1022 C1021 1.366 . S
C1022 C1023 1.414 . S
C1022 C1025 1.502 . S
C1023 H997 0.950 . S
C1023 C1022 1.414 . S
C1023 C1024 1.374 . S
C1024 H998 0.950 . S
C1024 C1020 1.385 . S
C1024 C1023 1.374 . S
C1025 C1022 1.502 . S
C1025 C1026 1.372 1_554 S
C1025 C1027 1.388 1_554 S
C1026 H999 0.950 . S
C1026 C1012 1.377 . S
C1026 C1025 1.372 1_556 S
C1027 C1011 1.377 . S
C1027 C1025 1.388 1_556 S
C1027 C1028 1.538 . S
C1028 C1027 1.538 . S
C1028 C1029 1.377 1_556 S
C1028 C1033 1.373 . S
C1029 H1000 0.950 . S
C1029 C1028 1.377 1_554 S
C1029 C1030 1.334 . S
C1030 H1001 0.950 . S
C1030 C1029 1.334 . S
C1030 C1031 1.287 . S
C1031 C1030 1.287 . S
C1031 C1032 1.524 . S
C1031 H1034 0.999 . S
C1032 H1002 0.940 1_554 S
C1032 C1031 1.524 . S
C1032 C1033 1.415 1_554 S
C1033 H1003 0.950 . S
C1033 C1028 1.373 . S
C1033 C1032 1.415 1_556 S
H1034 C1031 0.999 . S
H1035 C1016 0.913 . S
H1036 C1054 0.951 . S
H1037 C1056 0.951 . S
H1038 C1058 0.950 . S
H1039 C1059 0.950 . S
H1040 C1061 0.950 . S
H1041 C1064 0.950 1_655 S
H1042 C1065 0.950 . S
H1043 C1067 0.950 . S
H1044 C1068 0.950 . S
H1045 C1069 0.951 . S
H1046 C1071 0.951 . S
H1047 C1073 0.950 . S
H1048 C1074 0.950 . S
H1049 C1076 0.950 . S
H1050 C1079 0.950 1_455 S
H1051 C1080 0.950 . S
H1052 C1082 0.950 . S
H1053 C1083 0.950 . S
C1054 H1036 0.951 . S
C1054 C1055 1.340 1_455 S
C1054 C1056 1.388 . S
C1055 C1054 1.340 1_655 S
C1055 C1059 1.409 . S
C1056 H1037 0.951 . S
C1056 C1054 1.388 . S
C1056 C1057 1.362 1_455 S
C1057 C1056 1.362 1_655 S
C1057 C1058 1.417 . S
C1057 C1060 1.499 . S
C1058 H1038 0.950 . S
C1058 C1057 1.417 . S
C1058 C1059 1.374 . S
C1059 H1039 0.950 . S
C1059 C1055 1.409 . S
C1059 C1058 1.374 . S
C1060 C1057 1.499 . S
C1060 C1061 1.397 . S
C1060 C1062 1.365 1_655 S
C1061 H1040 0.950 . S
C1061 C1060 1.397 . S
C1061 C1077 1.377 . S
C1062 C1060 1.365 1_455 S
C1062 C1063 1.524 . S
C1062 C1076 1.377 . S
C1063 C1062 1.524 . S
C1063 C1064 1.397 . S
C1063 C1068 1.363 . S
C1064 H1041 0.950 1_455 S
C1064 C1063 1.397 . S
C1064 C1065 1.334 . S
C1065 H1042 0.950 . S
C1065 C1064 1.334 . S
C1065 C1066 1.287 . S
C1066 C1065 1.287 . S
C1066 C1067 1.524 . S
C1066 H1085 0.913 . S
C1067 H1043 0.950 . S
C1067 C1066 1.524 . S
C1067 C1068 1.415 . S
C1068 H1044 0.950 . S
C1068 C1063 1.363 . S
C1068 C1067 1.415 . S
C1069 H1045 0.951 . S
C1069 C1070 1.366 1_655 S
C1069 C1071 1.388 . S
C1070 C1069 1.366 1_455 S
C1070 C1074 1.385 . S
C1071 H1046 0.951 . S
C1071 C1069 1.388 . S
C1071 C1072 1.366 1_655 S
C1072 C1071 1.366 1_455 S
C1072 C1073 1.414 . S
C1072 C1075 1.499 . S
C1073 H1047 0.950 . S
C1073 C1072 1.414 . S
C1073 C1074 1.374 . S
C1074 H1048 0.950 . S
C1074 C1070 1.385 . S
C1074 C1073 1.374 . S
C1075 C1072 1.499 . S
C1075 C1076 1.373 . S
C1075 C1077 1.389 1_455 S
C1076 H1049 0.950 . S
C1076 C1062 1.377 . S
C1076 C1075 1.373 . S
C1077 C1061 1.377 . S
C1077 C1075 1.389 1_655 S
C1077 C1078 1.524 . S
C1078 C1077 1.524 . S
C1078 C1079 1.397 . S
C1078 C1083 1.363 . S
C1079 H1050 0.950 1_655 S
C1079 C1078 1.397 . S
C1079 C1080 1.334 . S
C1080 H1051 0.950 . S
C1080 C1079 1.334 . S
C1080 C1081 1.287 . S
C1081 C1080 1.287 . S
C1081 C1082 1.524 . S
C1081 H1084 0.999 . S
C1082 H1052 0.950 . S
C1082 C1081 1.524 . S
C1082 C1083 1.415 . S
C1083 H1053 0.950 . S
C1083 C1078 1.363 . S
C1083 C1082 1.415 . S
H1084 C1081 0.999 . S
H1085 C1066 0.913 . S
C205 C12 3.124 . S
C220 C180 2.785 . S
C255 C52 3.126 . S
C270 C158 2.793 . S
C305 C111 2.792 . S
C320 C172 2.731 . S
C355 C31 2.931 . S
C370 C183 2.859 . S
C420 C161 2.857 . S
C405 C71 2.931 . S
C470 C169 2.898 . S
C455 C92 3.244 . S
C505 C48 0.531 . S
C520 C136 0.711 . S
C555 C109 0.477 . S
C570 C147 0.701 . S
C605 C29 0.464 . S
C620 C125 0.697 . S
C670 C139 0.336 . S
C655 C69 0.253 . S
C720 C150 0.317 . S
C705 C88 0.130 . S
C755 C8 0.145 . S
C770 C128 0.305 . S
C820 C149 1.208 . S
C805 C17 1.235 1_455 S
C855 C57 1.238 . S
C870 C127 1.209 . S
C905 C97 1.255 . S
C920 C138 1.219 . S
C970 C171 1.647 . S
C955 C42 1.655 . S
C1020 C182 1.652 . S
C1005 C82 1.691 . S
C1055 C2 1.697 1_655 S
C1070 C160 1.657 . S
