# Generated by pormake.
# Topology gar, (4,6)-cn, num edge types: 1
# Building blocks:
#     Node 0, Type 0, BuildingBlock: GALJAG_clean_sbu_0, # of connection points: 4
#     Node 1, Type 0, BuildingBlock: GALJAG_clean_sbu_0, # of connection points: 4
#     Node 2, Type 0, BuildingBlock: GALJAG_clean_sbu_0, # of connection points: 4
#     Node 3, Type 0, BuildingBlock: GALJAG_clean_sbu_0, # of connection points: 4
#     Node 4, Type 0, BuildingBlock: GALJAG_clean_sbu_0, # of connection points: 4
#     Node 5, Type 0, BuildingBlock: GALJAG_clean_sbu_0, # of connection points: 4
#     Node 6, Type 0, BuildingBlock: GALJAG_clean_sbu_0, # of connection points: 4
#     Node 7, Type 0, BuildingBlock: GALJAG_clean_sbu_0, # of connection points: 4
#     Node 8, Type 0, BuildingBlock: GALJAG_clean_sbu_0, # of connection points: 4
#     Node 9, Type 0, BuildingBlock: GALJAG_clean_sbu_0, # of connection points: 4
#     Node 10, Type 0, BuildingBlock: GALJAG_clean_sbu_0, # of connection points: 4
#     Node 11, Type 0, BuildingBlock: GALJAG_clean_sbu_0, # of connection points: 4
#     Node 12, Type 0, BuildingBlock: GALJAG_clean_sbu_0, # of connection points: 4
#     Node 13, Type 0, BuildingBlock: GALJAG_clean_sbu_0, # of connection points: 4
#     Node 14, Type 0, BuildingBlock: GALJAG_clean_sbu_0, # of connection points: 4
#     Node 15, Type 0, BuildingBlock: GALJAG_clean_sbu_0, # of connection points: 4
#     Node 16, Type 0, BuildingBlock: GALJAG_clean_sbu_0, # of connection points: 4
#     Node 17, Type 0, BuildingBlock: GALJAG_clean_sbu_0, # of connection points: 4
#     Node 18, Type 0, BuildingBlock: GALJAG_clean_sbu_0, # of connection points: 4
#     Node 19, Type 0, BuildingBlock: GALJAG_clean_sbu_0, # of connection points: 4
#     Node 20, Type 0, BuildingBlock: GALJAG_clean_sbu_0, # of connection points: 4
#     Node 21, Type 0, BuildingBlock: GALJAG_clean_sbu_0, # of connection points: 4
#     Node 22, Type 0, BuildingBlock: GALJAG_clean_sbu_0, # of connection points: 4
#     Node 23, Type 0, BuildingBlock: GALJAG_clean_sbu_0, # of connection points: 4
#     Node 24, Type 1, BuildingBlock: MIFKUJ_clean_sbu_0, # of connection points: 6
#     Node 25, Type 1, BuildingBlock: MIFKUJ_clean_sbu_0, # of connection points: 6
#     Node 26, Type 1, BuildingBlock: MIFKUJ_clean_sbu_0, # of connection points: 6
#     Node 27, Type 1, BuildingBlock: MIFKUJ_clean_sbu_0, # of connection points: 6
#     Node 28, Type 1, BuildingBlock: MIFKUJ_clean_sbu_0, # of connection points: 6
#     Node 29, Type 1, BuildingBlock: MIFKUJ_clean_sbu_0, # of connection points: 6
#     Node 30, Type 1, BuildingBlock: MIFKUJ_clean_sbu_0, # of connection points: 6
#     Node 31, Type 1, BuildingBlock: MIFKUJ_clean_sbu_0, # of connection points: 6
#     Node 32, Type 1, BuildingBlock: MIFKUJ_clean_sbu_0, # of connection points: 6
#     Node 33, Type 1, BuildingBlock: MIFKUJ_clean_sbu_0, # of connection points: 6
#     Node 34, Type 1, BuildingBlock: MIFKUJ_clean_sbu_0, # of connection points: 6
#     Node 35, Type 1, BuildingBlock: MIFKUJ_clean_sbu_0, # of connection points: 6
#     Node 36, Type 1, BuildingBlock: MIFKUJ_clean_sbu_0, # of connection points: 6
#     Node 37, Type 1, BuildingBlock: MIFKUJ_clean_sbu_0, # of connection points: 6
#     Node 38, Type 1, BuildingBlock: MIFKUJ_clean_sbu_0, # of connection points: 6
#     Node 39, Type 1, BuildingBlock: MIFKUJ_clean_sbu_0, # of connection points: 6
#     Edge 40, Type (0, 1), BuildingBlock: EZIPEK_clean_linker_0, # of connection points: 2
#     Edge 41, Type (0, 1), BuildingBlock: EZIPEK_clean_linker_0, # of connection points: 2
#     Edge 42, Type (0, 1), BuildingBlock: EZIPEK_clean_linker_0, # of connection points: 2
#     Edge 43, Type (0, 1), BuildingBlock: EZIPEK_clean_linker_0, # of connection points: 2
#     Edge 44, Type (0, 1), BuildingBlock: EZIPEK_clean_linker_0, # of connection points: 2
#     Edge 45, Type (0, 1), BuildingBlock: EZIPEK_clean_linker_0, # of connection points: 2
#     Edge 46, Type (0, 1), BuildingBlock: EZIPEK_clean_linker_0, # of connection points: 2
#     Edge 47, Type (0, 1), BuildingBlock: EZIPEK_clean_linker_0, # of connection points: 2
#     Edge 48, Type (0, 1), BuildingBlock: EZIPEK_clean_linker_0, # of connection points: 2
#     Edge 49, Type (0, 1), BuildingBlock: EZIPEK_clean_linker_0, # of connection points: 2
#     Edge 50, Type (0, 1), BuildingBlock: EZIPEK_clean_linker_0, # of connection points: 2
#     Edge 51, Type (0, 1), BuildingBlock: EZIPEK_clean_linker_0, # of connection points: 2
#     Edge 52, Type (0, 1), BuildingBlock: EZIPEK_clean_linker_0, # of connection points: 2
#     Edge 53, Type (0, 1), BuildingBlock: EZIPEK_clean_linker_0, # of connection points: 2
#     Edge 54, Type (0, 1), BuildingBlock: EZIPEK_clean_linker_0, # of connection points: 2
#     Edge 55, Type (0, 1), BuildingBlock: EZIPEK_clean_linker_0, # of connection points: 2
#     Edge 56, Type (0, 1), BuildingBlock: EZIPEK_clean_linker_0, # of connection points: 2
#     Edge 57, Type (0, 1), BuildingBlock: EZIPEK_clean_linker_0, # of connection points: 2
#     Edge 58, Type (0, 1), BuildingBlock: EZIPEK_clean_linker_0, # of connection points: 2
#     Edge 59, Type (0, 1), BuildingBlock: EZIPEK_clean_linker_0, # of connection points: 2
#     Edge 60, Type (0, 1), BuildingBlock: EZIPEK_clean_linker_0, # of connection points: 2
#     Edge 61, Type (0, 1), BuildingBlock: EZIPEK_clean_linker_0, # of connection points: 2
#     Edge 62, Type (0, 1), BuildingBlock: EZIPEK_clean_linker_0, # of connection points: 2
#     Edge 63, Type (0, 1), BuildingBlock: EZIPEK_clean_linker_0, # of connection points: 2
#     Edge 64, Type (0, 1), BuildingBlock: EZIPEK_clean_linker_0, # of connection points: 2
#     Edge 65, Type (0, 1), BuildingBlock: EZIPEK_clean_linker_0, # of connection points: 2
#     Edge 66, Type (0, 1), BuildingBlock: EZIPEK_clean_linker_0, # of connection points: 2
#     Edge 67, Type (0, 1), BuildingBlock: EZIPEK_clean_linker_0, # of connection points: 2
#     Edge 68, Type (0, 1), BuildingBlock: EZIPEK_clean_linker_0, # of connection points: 2
#     Edge 69, Type (0, 1), BuildingBlock: EZIPEK_clean_linker_0, # of connection points: 2
#     Edge 70, Type (0, 1), BuildingBlock: EZIPEK_clean_linker_0, # of connection points: 2
#     Edge 71, Type (0, 1), BuildingBlock: EZIPEK_clean_linker_0, # of connection points: 2
#     Edge 72, Type (0, 1), BuildingBlock: EZIPEK_clean_linker_0, # of connection points: 2
#     Edge 73, Type (0, 1), BuildingBlock: EZIPEK_clean_linker_0, # of connection points: 2
#     Edge 74, Type (0, 1), BuildingBlock: EZIPEK_clean_linker_0, # of connection points: 2
#     Edge 75, Type (0, 1), BuildingBlock: EZIPEK_clean_linker_0, # of connection points: 2
#     Edge 76, Type (0, 1), BuildingBlock: EZIPEK_clean_linker_0, # of connection points: 2
#     Edge 77, Type (0, 1), BuildingBlock: EZIPEK_clean_linker_0, # of connection points: 2
#     Edge 78, Type (0, 1), BuildingBlock: EZIPEK_clean_linker_0, # of connection points: 2
#     Edge 79, Type (0, 1), BuildingBlock: EZIPEK_clean_linker_0, # of connection points: 2
#     Edge 80, Type (0, 1), BuildingBlock: EZIPEK_clean_linker_0, # of connection points: 2
#     Edge 81, Type (0, 1), BuildingBlock: EZIPEK_clean_linker_0, # of connection points: 2
#     Edge 82, Type (0, 1), BuildingBlock: EZIPEK_clean_linker_0, # of connection points: 2
#     Edge 83, Type (0, 1), BuildingBlock: EZIPEK_clean_linker_0, # of connection points: 2
#     Edge 84, Type (0, 1), BuildingBlock: EZIPEK_clean_linker_0, # of connection points: 2
#     Edge 85, Type (0, 1), BuildingBlock: EZIPEK_clean_linker_0, # of connection points: 2
#     Edge 86, Type (0, 1), BuildingBlock: EZIPEK_clean_linker_0, # of connection points: 2
#     Edge 87, Type (0, 1), BuildingBlock: EZIPEK_clean_linker_0, # of connection points: 2
#     Edge 88, Type (0, 1), BuildingBlock: EZIPEK_clean_linker_0, # of connection points: 2
#     Edge 89, Type (0, 1), BuildingBlock: EZIPEK_clean_linker_0, # of connection points: 2
#     Edge 90, Type (0, 1), BuildingBlock: EZIPEK_clean_linker_0, # of connection points: 2
#     Edge 91, Type (0, 1), BuildingBlock: EZIPEK_clean_linker_0, # of connection points: 2
#     Edge 92, Type (0, 1), BuildingBlock: EZIPEK_clean_linker_0, # of connection points: 2
#     Edge 93, Type (0, 1), BuildingBlock: EZIPEK_clean_linker_0, # of connection points: 2
#     Edge 94, Type (0, 1), BuildingBlock: EZIPEK_clean_linker_0, # of connection points: 2
#     Edge 95, Type (0, 1), BuildingBlock: EZIPEK_clean_linker_0, # of connection points: 2
#     Edge 96, Type (0, 1), BuildingBlock: EZIPEK_clean_linker_0, # of connection points: 2
#     Edge 97, Type (0, 1), BuildingBlock: EZIPEK_clean_linker_0, # of connection points: 2
#     Edge 98, Type (0, 1), BuildingBlock: EZIPEK_clean_linker_0, # of connection points: 2
#     Edge 99, Type (0, 1), BuildingBlock: EZIPEK_clean_linker_0, # of connection points: 2
#     Edge 100, Type (0, 1), BuildingBlock: EZIPEK_clean_linker_0, # of connection points: 2
#     Edge 101, Type (0, 1), BuildingBlock: EZIPEK_clean_linker_0, # of connection points: 2
#     Edge 102, Type (0, 1), BuildingBlock: EZIPEK_clean_linker_0, # of connection points: 2
#     Edge 103, Type (0, 1), BuildingBlock: EZIPEK_clean_linker_0, # of connection points: 2
#     Edge 104, Type (0, 1), BuildingBlock: EZIPEK_clean_linker_0, # of connection points: 2
#     Edge 105, Type (0, 1), BuildingBlock: EZIPEK_clean_linker_0, # of connection points: 2
#     Edge 106, Type (0, 1), BuildingBlock: EZIPEK_clean_linker_0, # of connection points: 2
#     Edge 107, Type (0, 1), BuildingBlock: EZIPEK_clean_linker_0, # of connection points: 2
#     Edge 108, Type (0, 1), BuildingBlock: EZIPEK_clean_linker_0, # of connection points: 2
#     Edge 109, Type (0, 1), BuildingBlock: EZIPEK_clean_linker_0, # of connection points: 2
#     Edge 110, Type (0, 1), BuildingBlock: EZIPEK_clean_linker_0, # of connection points: 2
#     Edge 111, Type (0, 1), BuildingBlock: EZIPEK_clean_linker_0, # of connection points: 2
#     Edge 112, Type (0, 1), BuildingBlock: EZIPEK_clean_linker_0, # of connection points: 2
#     Edge 113, Type (0, 1), BuildingBlock: EZIPEK_clean_linker_0, # of connection points: 2
#     Edge 114, Type (0, 1), BuildingBlock: EZIPEK_clean_linker_0, # of connection points: 2
#     Edge 115, Type (0, 1), BuildingBlock: EZIPEK_clean_linker_0, # of connection points: 2
#     Edge 116, Type (0, 1), BuildingBlock: EZIPEK_clean_linker_0, # of connection points: 2
#     Edge 117, Type (0, 1), BuildingBlock: EZIPEK_clean_linker_0, # of connection points: 2
#     Edge 118, Type (0, 1), BuildingBlock: EZIPEK_clean_linker_0, # of connection points: 2
#     Edge 119, Type (0, 1), BuildingBlock: EZIPEK_clean_linker_0, # of connection points: 2
#     Edge 120, Type (0, 1), BuildingBlock: EZIPEK_clean_linker_0, # of connection points: 2
#     Edge 121, Type (0, 1), BuildingBlock: EZIPEK_clean_linker_0, # of connection points: 2
#     Edge 122, Type (0, 1), BuildingBlock: EZIPEK_clean_linker_0, # of connection points: 2
#     Edge 123, Type (0, 1), BuildingBlock: EZIPEK_clean_linker_0, # of connection points: 2
#     Edge 124, Type (0, 1), BuildingBlock: EZIPEK_clean_linker_0, # of connection points: 2
#     Edge 125, Type (0, 1), BuildingBlock: EZIPEK_clean_linker_0, # of connection points: 2
#     Edge 126, Type (0, 1), BuildingBlock: EZIPEK_clean_linker_0, # of connection points: 2
#     Edge 127, Type (0, 1), BuildingBlock: EZIPEK_clean_linker_0, # of connection points: 2
#     Edge 128, Type (0, 1), BuildingBlock: EZIPEK_clean_linker_0, # of connection points: 2
#     Edge 129, Type (0, 1), BuildingBlock: EZIPEK_clean_linker_0, # of connection points: 2
#     Edge 130, Type (0, 1), BuildingBlock: EZIPEK_clean_linker_0, # of connection points: 2
#     Edge 131, Type (0, 1), BuildingBlock: EZIPEK_clean_linker_0, # of connection points: 2
#     Edge 132, Type (0, 1), BuildingBlock: EZIPEK_clean_linker_0, # of connection points: 2
#     Edge 133, Type (0, 1), BuildingBlock: EZIPEK_clean_linker_0, # of connection points: 2
#     Edge 134, Type (0, 1), BuildingBlock: EZIPEK_clean_linker_0, # of connection points: 2
#     Edge 135, Type (0, 1), BuildingBlock: EZIPEK_clean_linker_0, # of connection points: 2
# Relax obj value: 0.126
# Max RMSD: 0.303
# Mean RMSD: 0.156
data_MOF--net-gar--node1-GALJAG_clean_sbu_0--node2-MIFKUJ_clean_sbu_0--edge1-EZIPEK_clean_linker_0
_symmetry_space_group_name_H-M    P1
_symmetry_Int_Tables_number       1
_symmetry_cell_setting            triclinic
loop_
_symmetry_equiv_pos_as_xyz
'x, y, z'
_cell_length_a     42.580507
_cell_length_b     42.484929
_cell_length_c     40.410212
_cell_angle_alpha  94.79725
_cell_angle_beta   94.843537
_cell_angle_gamma 99.728553
loop_
_atom_site_label
_atom_site_type_symbol
_atom_site_fract_x
_atom_site_fract_y
_atom_site_fract_z
_atom_type_partial_charge
In0 In 0.02521 0.29204 0.41865 0.0
O1 O 0.04736 0.29561 0.36959 0.0
O2 O 0.07262 0.27668 0.40883 0.0
C3 C 0.97003 0.29165 0.38135 0.0
C4 C 0.01959 0.23607 0.44653 0.0
C5 C 0.03572 0.34988 0.4554 0.0
O6 O -0.00314 0.30002 0.37068 0.0
O7 O 0.97099 0.28422 0.41094 0.0
O8 O 0.05534 0.34171 0.4362 0.0
O9 O 0.01187 0.32849 0.45752 0.0
C10 C 0.07148 0.28387 0.37911 0.0
O11 O 0.03621 0.26167 0.46128 0.0
O12 O 0.00542 0.23906 0.41863 0.0
In13 In -0.00326 0.74383 0.63929 0.0
O14 O 0.98943 0.76958 0.59258 0.0
O15 O 0.01184 0.79746 0.63726 0.0
C16 C 0.98679 0.68536 0.60477 0.0
C17 C 0.05615 0.74862 0.66987 0.0
C18 C 0.94619 0.74546 0.6746 0.0
O19 O -0.00114 0.71055 0.59278 0.0
O20 O 0.97772 0.68973 0.63346 0.0
O21 O 0.97025 0.73396 0.6849 0.0
O22 O 0.94748 0.75599 0.64635 0.0
C23 C 0.00255 0.79681 0.60672 0.0
O24 O 0.03446 0.75955 0.68404 0.0
O25 O 0.04785 0.73504 0.64089 0.0
In26 In 0.53333 0.78248 0.90548 0.0
O27 O 0.55126 0.76344 0.85753 0.0
O28 O 0.58609 0.78993 0.89481 0.0
C29 C 0.4807 0.78591 0.86605 0.0
C30 C 0.52474 0.73058 0.9403 0.0
C31 C 0.53952 0.83958 0.94264 0.0
O32 O 0.50816 0.79922 0.85989 0.0
O33 O 0.4798 0.77156 0.89222 0.0
O34 O 0.56215 0.82377 0.94296 0.0
O35 O 0.51498 0.82696 0.92366 0.0
C36 C 0.58031 0.77439 0.86631 0.0
O37 O 0.5317 0.7587 0.95458 0.0
O38 O 0.52164 0.72878 0.909 0.0
In39 In 0.50771 0.24229 0.15313 0.0
O40 O 0.50761 0.20849 0.10649 0.0
O41 O 0.49519 0.18775 0.15083 0.0
C42 C 0.51379 0.29707 0.12313 0.0
C43 C 0.45641 0.24791 0.18625 0.0
C44 C 0.56649 0.24402 0.18382 0.0
O45 O 0.49456 0.27208 0.11097 0.0
O46 O 0.52976 0.29425 0.15003 0.0
O47 O 0.54246 0.2448 0.20005 0.0
O48 O 0.56073 0.2422 0.15251 0.0
C49 C 0.50006 0.18335 0.12059 0.0
O50 O 0.48407 0.25023 0.20116 0.0
O51 O 0.45456 0.24248 0.15495 0.0
In52 In 0.03833 0.77247 0.15168 0.0
O53 O 0.04471 0.74154 0.10452 0.0
O54 O 0.02774 0.71812 0.14585 0.0
C55 C 0.03661 0.82419 0.11781 0.0
C56 C 0.98803 0.76689 0.18809 0.0
C57 C 0.09497 0.78015 0.18812 0.0
O58 O 0.01698 0.79841 0.11028 0.0
O59 O 0.05677 0.82398 0.14243 0.0
O60 O 0.07193 0.79205 0.19847 0.0
O61 O 0.08977 0.76555 0.15915 0.0
C62 C 0.0354 0.71549 0.11646 0.0
O63 O 0.01602 0.76667 0.20073 0.0
O64 O 0.98534 0.76979 0.15726 0.0
In65 In 0.4992 0.744 0.38884 0.0
O66 O 0.52427 0.7369 0.34147 0.0
O67 O 0.55251 0.75886 0.38577 0.0
C68 C 0.43859 0.73108 0.35959 0.0
C69 C 0.50486 0.69989 0.43172 0.0
C70 C 0.50096 0.80485 0.41357 0.0
O71 O 0.46253 0.73769 0.34344 0.0
O72 O 0.44522 0.72852 0.39015 0.0
O73 O 0.51448 0.78542 0.4289 0.0
O74 O 0.48698 0.79381 0.38533 0.0
C75 C 0.55169 0.74968 0.35523 0.0
O76 O 0.49886 0.72721 0.44044 0.0
O77 O 0.50713 0.69404 0.40088 0.0
In78 In 0.53913 0.28641 0.65687 0.0
O79 O 0.53805 0.25609 0.60707 0.0
O80 O 0.53459 0.23225 0.65112 0.0
C81 C 0.53667 0.33772 0.62288 0.0
C82 C 0.48493 0.28122 0.68723 0.0
C83 C 0.59626 0.29321 0.69379 0.0
O84 O 0.54519 0.3126 0.61057 0.0
O85 O 0.52954 0.33723 0.65261 0.0
O86 O 0.57186 0.27414 0.69945 0.0
O87 O 0.59203 0.30983 0.66997 0.0
C88 C 0.53495 0.2299 0.61994 0.0
O89 O 0.51199 0.29278 0.70259 0.0
O90 O 0.48516 0.27306 0.65652 0.0
In91 In 0.99285 0.25586 0.88701 0.0
O92 O 0.00486 0.23774 0.9369 0.0
O93 O -0.00061 0.20465 0.89325 0.0
C94 C 0.99551 0.31161 0.92407 0.0
C95 C 0.04609 0.25982 0.85416 0.0
C96 C 0.93177 0.24622 0.85802 0.0
O97 O 0.98962 0.28498 0.93594 0.0
O98 O -0.00041 0.31022 0.89343 0.0
O99 O 0.95449 0.26378 0.84675 0.0
O100 O 0.9399 0.23236 0.88282 0.0
C101 C 0.00568 0.2097 0.92455 0.0
O102 O 0.02086 0.23995 0.84398 0.0
O103 O 0.04396 0.27814 0.87964 0.0
In104 In 0.40024 0.02516 0.30336 0.0
O105 O 0.4413 0.04415 0.27328 0.0
O106 O 0.40828 0.0021 0.25334 0.0
C107 C 0.43532 0.03616 0.363 0.0
C108 C 0.3652 0.06717 0.28099 0.0
C109 C 0.36351 0.96879 0.31025 0.0
O110 O 0.44349 0.02072 0.33817 0.0
O111 O 0.40959 0.04677 0.35785 0.0
O112 O 0.35555 0.99517 0.31971 0.0
O113 O 0.39033 0.97088 0.29878 0.0
C114 C 0.43222 0.02268 0.24927 0.0
O115 O 0.35543 0.03735 0.27706 0.0
O116 O 0.39214 0.07621 0.29763 0.0
In117 In 0.25578 0.1415 0.4913 0.0
O118 O 0.25434 0.18643 0.52727 0.0
O119 O 0.26105 0.1435 0.54808 0.0
C120 C 0.25807 0.17105 0.43332 0.0
C121 C 0.3085 0.11326 0.49561 0.0
C122 C 0.19759 0.10443 0.49255 0.0
O123 O 0.27289 0.18386 0.46075 0.0
O124 O 0.24198 0.14353 0.43492 0.0
O125 O 0.2225 0.09289 0.48811 0.0
O126 O 0.20154 0.13473 0.49509 0.0
C127 C 0.25856 0.17254 0.55333 0.0
O128 O 0.28099 0.09793 0.48509 0.0
O129 O 0.30973 0.14296 0.50251 0.0
In130 In 0.14467 0.02497 0.80661 0.0
O131 O 0.1017 0.00694 0.76698 0.0
O132 O 0.14153 0.03849 0.75316 0.0
C133 C 0.11411 0.02377 0.86327 0.0
C134 C 0.17476 0.97384 0.79816 0.0
C135 C 0.18152 0.08369 0.81307 0.0
O136 O 0.10045 0.02749 0.83533 0.0
O137 O 0.14312 0.02115 0.86287 0.0
O138 O 0.1925 0.05882 0.81937 0.0
O139 O 0.1516 0.07936 0.80555 0.0
C140 C 0.11414 0.02219 0.74447 0.0
O141 O 0.18917 0.00242 0.80011 0.0
O142 O 0.14513 0.97072 0.80085 0.0
In143 In 0.25558 0.88117 0.00772 0.0
O144 O 0.2351 0.8444 0.04199 0.0
O145 O 0.28251 0.8707 0.05456 0.0
C146 C 0.24621 0.84111 0.95127 0.0
C147 C 0.21785 0.92127 0.02988 0.0
C148 C 0.30796 0.92001 0.99387 0.0
O149 O 0.26553 0.83828 0.97569 0.0
O150 O 0.23018 0.86326 0.95569 0.0
O151 O 0.28037 0.92341 0.98236 0.0
O152 O 0.30896 0.89689 0.0113 0.0
C153 C 0.26007 0.85024 0.0623 0.0
O154 O 0.24784 0.92696 0.03584 0.0
O155 O 0.20632 0.89513 0.01241 0.0
In156 In 0.27575 0.39266 0.05833 0.0
O157 O 0.26379 0.34227 0.07627 0.0
O158 O 0.26932 0.38194 0.11287 0.0
C159 C 0.27611 0.36163 -0.00277 0.0
C160 C 0.22516 0.42393 0.0587 0.0
C161 C 0.33495 0.43024 0.06037 0.0
O162 O 0.29107 0.3541 0.02287 0.0
O163 O 0.26083 0.38419 0.00246 0.0
O164 O 0.3109 0.43457 0.04222 0.0
O165 O 0.3291 0.40805 0.07904 0.0
C166 C 0.26337 0.35176 0.10663 0.0
O167 O 0.25189 0.43544 0.07498 0.0
O168 O 0.22386 0.39676 0.04297 0.0
In169 In 0.78729 0.14515 0.05415 0.0
O170 O 0.80232 0.09627 0.05898 0.0
O171 O 0.83556 0.13415 0.04357 0.0
C172 C 0.72606 0.11497 0.0449 0.0
C173 C 0.80503 0.18831 0.10756 0.0
C174 C 0.78058 0.17947 0.00275 0.0
O175 O 0.74551 0.11213 0.02349 0.0
O176 O 0.73788 0.13126 0.07198 0.0
O177 O 0.76631 0.18306 0.02845 0.0
O178 O 0.79904 0.1592 0.00327 0.0
C179 C 0.82939 0.10513 0.04898 0.0
O180 O 0.8121 0.19378 0.07877 0.0
O181 O 0.79061 0.1602 0.11007 0.0
In182 In 0.14376 0.50252 0.24783 0.0
O183 O 0.19097 0.48435 0.24183 0.0
O184 O 0.15086 0.45149 0.2533 0.0
C185 C 0.17577 0.56345 0.2556 0.0
C186 C 0.09888 0.48752 0.19573 0.0
C187 C 0.11136 0.50866 0.30112 0.0
O188 O 0.17602 0.5447 0.27811 0.0
O189 O 0.16059 0.55117 0.22811 0.0
O190 O 0.10377 0.51937 0.27403 0.0
O191 O 0.13527 0.49471 0.30155 0.0
C192 C 0.18002 0.45647 0.24868 0.0
O193 O 0.09426 0.47944 0.2244 0.0
O194 O 0.12677 0.50201 0.19262 0.0
In195 In 0.77912 0.8935 0.55453 0.0
O196 O 0.78253 0.84548 0.57532 0.0
O197 O 0.77225 0.88274 0.60877 0.0
C198 C 0.7754 0.86263 0.49283 0.0
C199 C 0.72493 0.91989 0.5538 0.0
C200 C 0.83789 0.93207 0.5577 0.0
O201 O 0.76328 0.84945 0.51673 0.0
O202 O 0.78916 0.89136 0.49988 0.0
O203 O 0.81196 0.94179 0.55075 0.0
O204 O 0.83431 0.90345 0.56498 0.0
C205 C 0.77595 0.85388 0.60415 0.0
O206 O 0.74985 0.93153 0.57304 0.0
O207 O 0.72739 0.8954 0.53508 0.0
In208 In 0.89116 0.00864 0.24761 0.0
O209 O 0.94094 0.02546 0.2312 0.0
O210 O 0.90302 0.0101 0.1927 0.0
C211 C 0.92373 0.00501 0.30719 0.0
C212 C 0.86151 0.06091 0.24779 0.0
C213 C 0.85347 0.94916 0.24308 0.0
O214 O 0.93218 0.99407 0.28002 0.0
O215 O 0.89897 0.01757 0.30447 0.0
O216 O 0.84883 0.9727 0.26192 0.0
O217 O 0.87636 0.95558 0.22547 0.0
C218 C 0.93252 0.02094 0.20029 0.0
O219 O 0.84907 0.03419 0.23198 0.0
O220 O 0.88873 0.06141 0.2629 0.0
In221 In 0.29407 0.65297 0.54932 0.0
O222 O 0.3112 0.60551 0.54873 0.0
O223 O 0.34455 0.64667 0.53951 0.0
C224 C 0.23276 0.62359 0.54706 0.0
C225 C 0.3082 0.6837 0.61078 0.0
C226 C 0.29015 0.68881 0.498 0.0
O227 O 0.25097 0.61622 0.52595 0.0
O228 O 0.24529 0.64529 0.56956 0.0
O229 O 0.28989 0.70011 0.52774 0.0
O230 O 0.29362 0.65995 0.49416 0.0
C231 C 0.3389 0.61676 0.54171 0.0
O232 O 0.30303 0.698 0.5853 0.0
O233 O 0.30946 0.65431 0.60489 0.0
In234 In 0.38849 0.50151 0.74516 0.0
O235 O 0.34775 0.52823 0.7284 0.0
O236 O 0.38728 0.55381 0.76095 0.0
C237 C 0.35195 0.44185 0.74272 0.0
C238 C 0.42754 0.51175 0.69576 0.0
C239 C 0.41982 0.50239 0.80611 0.0
O240 O 0.34393 0.46664 0.7563 0.0
O241 O 0.37762 0.44704 0.72911 0.0
O242 O 0.42975 0.49074 0.78006 0.0
O243 O 0.39415 0.51315 0.80153 0.0
C244 C 0.36058 0.55438 0.74521 0.0
O245 O 0.43771 0.5153 0.72627 0.0
O246 O 0.39755 0.50308 0.68982 0.0
In247 In 0.63857 0.99764 0.75878 0.0
O248 O 0.68395 0.97795 0.74993 0.0
O249 O 0.64587 0.94733 0.76871 0.0
C250 C 0.67238 0.05734 0.76379 0.0
C251 C 0.60313 0.9874 0.6997 0.0
C252 C 0.60382 0.00457 0.81049 0.0
O253 O 0.68427 0.03453 0.77481 0.0
O254 O 0.64396 0.05001 0.75063 0.0
O255 O 0.59332 0.00661 0.78093 0.0
O256 O 0.63159 -0.00193 0.81414 0.0
C257 C 0.67404 0.95124 0.76036 0.0
O258 O 0.60006 0.96708 0.72078 0.0
O259 O 0.62605 0.01046 0.70722 0.0
In260 In 0.75469 0.63442 0.99382 0.0
O261 O 0.77776 0.58924 0.99305 0.0
O262 O 0.8087 0.63417 0.00376 0.0
C263 C 0.69426 0.60023 0.99074 0.0
C264 C 0.76185 0.66623 0.05567 0.0
C265 C 0.75803 0.66785 0.93891 0.0
O266 O 0.71772 0.58799 0.98235 0.0
O267 O 0.70071 0.63005 -0.00078 0.0
O268 O 0.75652 0.68048 0.96787 0.0
O269 O 0.75703 0.6379 0.9371 0.0
C270 C 0.80597 0.60407 0.00063 0.0
O271 O 0.76877 0.67996 0.0301 0.0
O272 O 0.75123 0.63651 0.05018 0.0
In273 In 0.90839 0.546 0.80076 0.0
O274 O 0.86188 0.55221 0.77283 0.0
O275 O 0.89 0.59397 0.80003 0.0
C276 C 0.87687 0.48646 0.80428 0.0
C277 C 0.94306 0.54775 0.74872 0.0
C278 C 0.944 0.55347 0.86035 0.0
O279 O 0.86847 0.51061 0.81906 0.0
O280 O 0.90143 0.49236 0.78902 0.0
O281 O 0.95369 0.54336 0.8336 0.0
O282 O 0.91685 0.56159 0.85706 0.0
C283 C 0.86478 0.58172 0.78145 0.0
O284 O 0.94692 0.57144 0.77076 0.0
O285 O 0.92236 0.52413 0.75332 0.0
In286 In 0.74357 0.37566 0.50276 0.0
O287 O 0.77329 0.35534 0.54129 0.0
O288 O 0.72241 0.34791 0.54321 0.0
C289 C 0.73282 0.33348 0.44774 0.0
C290 C 0.70568 0.41642 0.52306 0.0
C291 C 0.79828 0.41456 0.49657 0.0
O292 O 0.72663 0.32513 0.47596 0.0
O293 O 0.74169 0.36315 0.44681 0.0
O294 O 0.77156 0.42072 0.48581 0.0
O295 O 0.79756 0.38849 0.50951 0.0
C296 C 0.74951 0.34443 0.55618 0.0
O297 O 0.73222 0.41494 0.53835 0.0
O298 O 0.69752 0.39707 0.497 0.0
In299 In 0.65319 0.52775 0.30738 0.0
O300 O 0.69648 0.50178 0.30737 0.0
O301 O 0.65078 0.47419 0.29122 0.0
C302 C 0.6883 0.58787 0.31159 0.0
C303 C 0.6222 0.52756 0.24642 0.0
C304 C 0.62103 0.52182 0.36289 0.0
O305 O 0.70014 0.56393 0.31944 0.0
O306 O 0.65855 0.58198 0.30318 0.0
O307 O 0.6074 0.51592 0.33366 0.0
O308 O 0.651 0.53039 0.36449 0.0
C309 C 0.68057 0.47497 0.29522 0.0
O310 O 0.60789 0.52745 0.27254 0.0
O311 O 0.65197 0.52817 0.2511 0.0
Zn312 Zn 0.06442 0.00936 0.06174 0.0
Zn313 Zn -0.0003 0.04774 0.02147 0.0
C314 C 0.05094 0.94169 0.05498 0.0
O315 O 0.0754 0.94588 0.03711 0.0
C316 C 0.03286 0.10914 0.00379 0.0
O317 O 0.05541 0.09346 0.99551 0.0
O318 O 0.10919 0.00312 0.0783 0.0
O319 O 0.06582 0.01645 0.01287 0.0
O320 O 0.0233 0.02904 0.98532 0.0
C321 C 0.13087 0.00429 0.05846 0.0
O322 O 0.12549 0.01513 0.02945 0.0
O323 O 0.03886 0.96575 0.06489 0.0
C324 C 0.94 0.05768 0.02711 0.0
O325 O 0.95862 0.0777 0.04988 0.0
O326 O 0.9523 0.03905 0.00775 0.0
O327 O 7e-05 0.03727 0.06961 0.0
O328 O 0.04795 0.03911 0.09589 0.0
O329 O 0.01035 0.09564 0.01921 0.0
C330 C 0.05106 0.02177 0.98589 0.0
C331 C 0.01789 0.03743 0.09645 0.0
Zn332 Zn 0.25853 0.7591 0.31415 0.0
Zn333 Zn 0.27877 0.77755 0.24959 0.0
C334 C 0.22104 0.6983 0.29637 0.0
O335 O 0.19981 0.71502 0.30672 0.0
C336 C 0.30684 0.84117 0.27666 0.0
O337 O 0.3282 0.83478 0.25669 0.0
O338 O 0.2527 0.75887 0.3626 0.0
O339 O 0.30598 0.77523 0.31485 0.0
O340 O 0.3106 0.75097 0.2661 0.0
C341 C 0.27091 0.74163 0.37587 0.0
O342 O 0.28952 0.72762 0.35742 0.0
O343 O 0.24981 0.71236 0.29645 0.0
C344 C 0.26794 0.80505 0.19186 0.0
O345 O 0.24611 0.81358 0.21005 0.0
O346 O 0.28781 0.78886 0.20394 0.0
O347 O 0.23302 0.75678 0.24275 0.0
O348 O 0.22422 0.77991 0.29083 0.0
O349 O 0.28258 0.81987 0.27894 0.0
C350 C 0.32153 0.75931 0.29627 0.0
C351 C 0.21449 0.76933 0.26066 0.0
Zn352 Zn 0.47708 0.03702 0.5487 0.0
Zn353 Zn 0.54351 0.98467 0.52366 0.0
C354 C 0.50081 0.09908 0.57306 0.0
O355 O 0.48485 0.08761 0.59711 0.0
C356 C 0.52884 0.92979 0.48149 0.0
O357 O 0.5529 0.94658 0.46873 0.0
O358 O 0.43058 0.04325 0.54417 0.0
O359 O 0.48643 0.00745 0.50969 0.0
O360 O 0.53143 0.01035 0.48623 0.0
C361 C 0.42236 0.05677 0.5186 0.0
O362 O 0.44276 0.06261 0.49632 0.0
O363 O 0.50245 0.08084 0.54702 0.0
C364 C 0.59929 0.95588 0.54103 0.0
O365 O 0.57671 0.93086 0.54185 0.0
O366 O 0.59139 0.98263 0.53467 0.0
O367 O 0.52189 0.00131 0.56043 0.0
O368 O 0.49295 0.02275 0.59395 0.0
O369 O 0.51931 0.94139 0.50789 0.0
C370 C 0.50321 0.01683 0.48655 0.0
C371 C 0.51613 0.008 0.58992 0.0
Zn372 Zn 0.30057 0.24923 0.75796 0.0
Zn373 Zn 0.23679 0.27418 0.79577 0.0
C374 C 0.28198 0.21662 0.69276 0.0
O375 O 0.29887 0.19693 0.70599 0.0
C376 C 0.25278 0.31077 0.86008 0.0
O377 O 0.23246 0.32709 0.84631 0.0
O378 O 0.34621 0.24445 0.75133 0.0
O379 O 0.30578 0.29567 0.77585 0.0
O380 O 0.25733 0.30683 0.7661 0.0
C381 C 0.36104 0.26658 0.73615 0.0
O382 O 0.34646 0.28986 0.72722 0.0
O383 O 0.2774 0.24128 0.71065 0.0
C384 C 0.17633 0.26782 0.82273 0.0
O385 O 0.19344 0.25694 0.84629 0.0
O386 O 0.18986 0.27832 0.79789 0.0
O387 O 0.23273 0.22595 0.78355 0.0
O388 O 0.282 0.2155 0.7871 0.0
O389 O 0.25978 0.28682 0.84292 0.0
C390 C 0.28763 0.3151 0.76749 0.0
C391 C 0.25207 0.20654 0.78798 0.0
Zn392 Zn 0.0319 0.9795 0.54274 0.0
Zn393 Zn 0.00837 0.0463 0.50786 0.0
C394 C 0.05865 0.01905 0.60805 0.0
O395 O 0.06642 0.04455 0.59225 0.0
C396 C 0.9787 0.02947 0.44077 0.0
O397 O 0.96369 0.05271 0.45023 0.0
O398 O 0.03792 0.93326 0.54325 0.0
O399 O 0.98376 0.97741 0.53277 0.0
O400 O 0.97511 0.02749 0.53762 0.0
C401 C 0.0147 0.90997 0.53597 0.0
O402 O 0.98756 0.91521 0.52153 0.0
O403 O 0.04378 0.99299 0.59219 0.0
C404 C 0.02405 0.11092 0.49093 0.0
O405 O 0.05092 0.10094 0.48577 0.0
O406 O 0.00138 0.09185 0.50119 0.0
O407 O 0.05565 0.0519 0.52348 0.0
O408 O 0.06578 0.00257 0.51555 0.0
O409 O -0.00061 0.02116 0.46135 0.0
C410 C 0.96544 0.99756 0.53836 0.0
C411 C 0.07469 0.03283 0.51666 0.0
Zn412 Zn 0.24733 0.80276 0.75732 0.0
Zn413 Zn 0.29344 0.73151 0.78428 0.0
C414 C 0.19078 0.77659 0.71351 0.0
O415 O 0.21112 0.77696 0.69081 0.0
C416 C 0.35552 0.75416 0.80852 0.0
O417 O 0.34438 0.7355 0.83076 0.0
O418 O 0.25053 0.85122 0.76353 0.0
O419 O 0.25912 0.78375 0.79983 0.0
O420 O 0.27898 0.74824 0.82795 0.0
C421 C 0.2315 0.86048 0.78343 0.0
O422 O 0.21548 0.83939 0.80055 0.0
O423 O 0.20079 0.78584 0.74381 0.0
C424 C 0.31261 0.67466 0.75649 0.0
O425 O 0.32163 0.6949 0.73486 0.0
O426 O 0.29791 0.68409 0.7806 0.0
O427 O 0.26451 0.74389 0.74822 0.0
O428 O 0.27179 0.78607 0.72068 0.0
O429 O 0.33716 0.75725 0.78312 0.0
C430 C 0.26591 0.77311 0.8275 0.0
C431 C 0.27596 0.75754 0.72406 0.0
Zn432 Zn 0.53155 0.03166 0.99116 0.0
Zn433 Zn 0.49354 -0.00105 0.05672 0.0
C434 C 0.58926 0.07718 0.01546 0.0
O435 O 0.57033 0.09857 0.01693 0.0
C436 C 0.43336 0.97478 0.02359 0.0
O437 O 0.44154 0.94951 0.03628 0.0
O438 O 0.52635 0.03562 0.9422 0.0
O439 O 0.52787 0.98478 0.99645 0.0
O440 O 0.51018 0.96028 0.03863 0.0
C441 C 0.54425 0.01883 0.92796 0.0
O442 O 0.56146 0.00234 0.94588 0.0
O443 O 0.57783 0.0482 0.00519 0.0
C444 C 0.46351 0.0097 0.1145 0.0
O445 O 0.44754 0.02495 0.09384 0.0
O446 O 0.48399 0.99406 0.10356 0.0
O447 O 0.52265 0.04151 0.06261 0.0
O448 O 0.50649 0.06008 0.01651 0.0
O449 O 0.45298 0.00111 0.02802 0.0
C450 C 0.52192 0.95941 0.01086 0.0
C451 C 0.51216 0.06348 0.04805 0.0
Zn452 Zn 0.27164 0.21382 0.23787 0.0
Zn453 Zn 0.23712 0.28255 0.27727 0.0
C454 C 0.33309 0.24937 0.22516 0.0
O455 O 0.31731 0.25082 0.19613 0.0
C456 C 0.16835 0.28114 0.28836 0.0
O457 O 0.16683 0.30301 0.26748 0.0
O458 O 0.2747 0.16723 0.23132 0.0
O459 O 0.24963 0.21622 0.28206 0.0
O460 O 0.26455 0.26392 0.31112 0.0
C461 C 0.29997 0.15951 0.22103 0.0
O462 O 0.31835 0.17955 0.20485 0.0
O463 O 0.31795 0.23645 0.24776 0.0
C464 C 0.23158 0.34915 0.28861 0.0
O465 O 0.21635 0.34005 0.31404 0.0
O466 O 0.24664 0.33008 0.27341 0.0
O467 O 0.24222 0.26162 0.23399 0.0
O468 O 0.25329 0.23021 0.19458 0.0
O469 O 0.19322 0.2686 0.29186 0.0
C470 C 0.26056 0.23331 0.30957 0.0
C471 C 0.24522 0.25672 0.20331 0.0
Zn472 Zn 0.53278 0.47812 0.04814 0.0
Zn473 Zn 0.50509 0.54416 0.00483 0.0
C474 C 0.56157 0.51981 0.11143 0.0
O475 O 0.56239 0.54578 0.09581 0.0
C476 C 0.47224 0.52468 0.94243 0.0
O477 O 0.45044 0.53535 0.95921 0.0
O478 O 0.53526 0.4311 0.04769 0.0
O479 O 0.48562 0.47997 0.04413 0.0
O480 O 0.46725 0.5218 0.02646 0.0
C481 C 0.51617 0.4174 0.06683 0.0
O482 O 0.49614 0.43358 0.08062 0.0
O483 O 0.54996 0.49251 0.09605 0.0
C484 C 0.52014 0.60686 0.98711 0.0
O485 O 0.54465 0.59469 0.97766 0.0
O486 O 0.49877 0.58972 0.00116 0.0
O487 O 0.55175 0.54819 0.02379 0.0
O488 O 0.56346 0.49948 0.01681 0.0
O489 O 0.49962 0.52425 0.95732 0.0
C490 C 0.4626 0.49474 0.0381 0.0
C491 C 0.57055 0.52954 0.01472 0.0
Zn492 Zn 0.75911 0.30655 0.26409 0.0
Zn493 Zn 0.78628 0.23642 0.2776 0.0
C494 C 0.69813 0.25698 0.24024 0.0
O495 O 0.71195 0.23224 0.24557 0.0
C496 C 0.84303 0.25804 0.31889 0.0
O497 O 0.83017 0.23335 0.33366 0.0
O498 O 0.75416 0.35369 0.26941 0.0
O499 O 0.7705 0.29691 0.31129 0.0
O500 O 0.75461 0.24459 0.31086 0.0
C501 C 0.73641 0.36561 0.24867 0.0
O502 O 0.72438 0.3487 0.2204 0.0
O503 O 0.71394 0.28534 0.24638 0.0
C504 C 0.80158 0.17479 0.24933 0.0
O505 O 0.79557 0.18623 0.22073 0.0
O506 O 0.79735 0.19063 0.2764 0.0
O507 O 0.77372 0.24476 0.23097 0.0
O508 O 0.78981 0.29699 0.2303 0.0
O509 O 0.82809 0.26564 0.2931 0.0
C510 C 0.75677 0.273 0.32476 0.0
C511 C 0.7885 0.26824 0.21778 0.0
Zn512 Zn 0.04258 0.54474 0.48233 0.0
Zn513 Zn 0.98374 0.51047 0.55279 0.0
C514 C 0.10051 0.56493 0.52351 0.0
O515 O 0.08122 0.56162 0.54706 0.0
C516 C 0.9256 0.47938 0.51518 0.0
O517 O 0.94448 0.45976 0.50536 0.0
O518 O 0.03604 0.53975 0.43285 0.0
O519 O 0.02928 0.50121 0.50145 0.0
O520 O 0.00371 0.47288 0.5376 0.0
C521 C 0.05211 0.51953 0.42145 0.0
O522 O 0.06663 0.50321 0.44224 0.0
O523 O 0.08951 0.55763 0.49324 0.0
C524 C 0.97087 0.51162 0.61951 0.0
O525 O 0.94648 0.48976 0.60632 0.0
O526 O 0.99177 0.52335 0.60138 0.0
O527 O 0.0027 0.54493 0.52832 0.0
O528 O 0.02426 0.58307 0.50186 0.0
O529 O 0.93693 0.50192 0.53775 0.0
C530 C 0.02102 0.47444 0.51334 0.0
C531 C 0.00758 0.57447 0.52497 0.0
Zn532 Zn 0.80406 0.75044 0.25744 0.0
Zn533 Zn 0.73965 0.77828 0.29201 0.0
C534 C 0.79088 0.73814 0.18574 0.0
O535 O 0.81474 0.76225 0.18636 0.0
C536 C 0.74986 0.78922 0.36499 0.0
O537 O 0.7206 0.77321 0.36378 0.0
O538 O 0.84975 0.74377 0.25388 0.0
O539 O 0.80624 0.79858 0.26077 0.0
O540 O 0.75914 0.81321 0.2645 0.0
C541 C 0.8702 0.76626 0.24522 0.0
O542 O 0.86244 0.79447 0.2417 0.0
O543 O 0.78034 0.73028 0.21296 0.0
C544 C 0.67437 0.75936 0.30457 0.0
O545 O 0.68492 0.73259 0.30908 0.0
O546 O 0.69328 0.78302 0.29574 0.0
O547 O 0.73738 0.73043 0.27792 0.0
O548 O 0.78636 0.7236 0.2933 0.0
O549 O 0.76341 0.79203 0.33826 0.0
C550 C 0.78868 0.81993 0.26011 0.0
C551 C 0.75633 0.7136 0.29066 0.0
Zn552 Zn 0.74475 0.24749 0.82056 0.0
Zn553 Zn 0.78035 0.29591 0.75097 0.0
C554 C 0.73788 0.18841 0.77623 0.0
O555 O 0.7382 0.20655 0.75153 0.0
C556 C 0.81997 0.35625 0.76651 0.0
O557 O 0.83907 0.34216 0.74877 0.0
O558 O 0.74185 0.2483 0.86904 0.0
O559 O 0.78716 0.27496 0.81368 0.0
O560 O 0.81201 0.27113 0.76899 0.0
C561 C 0.76515 0.23705 0.88206 0.0
O562 O 0.7869 0.22928 0.8633 0.0
O563 O 0.74319 0.20124 0.80605 0.0
C564 C 0.75796 0.30934 0.68948 0.0
O565 O 0.74042 0.32366 0.70904 0.0
O566 O 0.77869 0.29455 0.70208 0.0
O567 O 0.73782 0.28185 0.76516 0.0
O568 O 0.70481 0.2598 0.79785 0.0
O569 O 0.7931 0.34067 0.77161 0.0
C570 C 0.80964 0.26539 0.799 0.0
C571 C 0.70937 0.274 0.77193 0.0
Zn572 Zn 0.77136 0.72427 0.75238 0.0
Zn573 Zn 0.75435 0.79006 0.78507 0.0
C574 C 0.84001 0.73024 0.75391 0.0
O575 O 0.83469 0.70018 0.76035 0.0
C576 C 0.69326 0.77837 0.80548 0.0
O577 O 0.70877 0.80156 0.82723 0.0
O578 O 0.77431 0.67802 0.73783 0.0
O579 O 0.75446 0.72388 0.79823 0.0
O580 O 0.7777 0.77132 0.82269 0.0
C581 C 0.76661 0.65572 0.75632 0.0
O582 O 0.75027 0.66212 0.78138 0.0
O583 O 0.81761 0.74655 0.75515 0.0
C584 C 0.75639 0.8578 0.7761 0.0
O585 O 0.77334 0.85237 0.75127 0.0
O586 O 0.75034 0.83669 0.79631 0.0
O587 O 0.77277 0.79105 0.74097 0.0
O588 O 0.75056 0.74458 0.71406 0.0
O589 O 0.70766 0.76744 0.78183 0.0
C590 C 0.76717 0.74167 0.82443 0.0
C591 C 0.76219 0.77421 0.71369 0.0
Zn592 Zn 0.56054 0.51356 0.55169 0.0
Zn593 Zn 0.49906 0.53274 0.51751 0.0
C594 C 0.54997 0.44424 0.54321 0.0
O595 O 0.57857 0.44804 0.5328 0.0
C596 C 0.51583 0.5941 0.49881 0.0
O597 O 0.50483 0.57599 0.47094 0.0
O598 O 0.60556 0.50769 0.56835 0.0
O599 O 0.56562 0.53313 0.50798 0.0
O600 O 0.51973 0.51273 0.47933 0.0
C601 C 0.62602 0.50712 0.54719 0.0
O602 O 0.61818 0.51398 0.51689 0.0
O603 O 0.53559 0.46806 0.5456 0.0
C604 C 0.44312 0.5509 0.52686 0.0
O605 O 0.46212 0.56051 0.55444 0.0
O606 O 0.45316 0.53474 0.50332 0.0
O607 O 0.49431 0.51063 0.55991 0.0
O608 O 0.53902 0.53506 0.58874 0.0
O609 O 0.5185 0.58076 0.52572 0.0
C610 C 0.54977 0.52216 0.48021 0.0
C611 C 0.50946 0.52273 0.58769 0.0
Zn612 Zn 0.97667 0.52353 0.0359 0.0
Zn613 Zn 0.05013 0.49731 0.02677 0.0
C614 C 0.00698 0.58412 0.06907 0.0
O615 O 0.99578 0.57074 0.09472 0.0
C616 C 0.03144 0.4389 0.98774 0.0
O617 O 0.04909 0.45588 0.96814 0.0
O618 O 0.93001 0.5291 0.02579 0.0
O619 O 0.98828 0.4998 0.99604 0.0
O620 O 0.03703 0.52146 0.98796 0.0
C621 C 0.91851 0.55189 0.04005 0.0
O622 O 0.93522 0.57019 0.0654 0.0
O623 O 0.0036 0.56779 0.04088 0.0
C624 C 0.1069 0.47367 0.04782 0.0
O625 O 0.08535 0.45547 0.06246 0.0
O626 O 0.09823 0.4954 0.03101 0.0
O627 O 0.03812 0.51461 0.07123 0.0
O628 O 0.98635 0.50007 0.07595 0.0
O629 O 0.02765 0.4516 0.01632 0.0
C630 C 0.00715 0.51619 0.97875 0.0
C631 C 0.01552 0.5007 0.08648 0.0
C632 C 0.04097 0.18977 0.96815 0.0
C633 C 0.0128 0.1844 0.94538 0.0
C634 C 0.00054 0.12892 0.95843 0.0
C635 C 0.02637 0.13533 0.98404 0.0
N636 N 0.06911 0.17255 0.0163 0.0
N637 N 0.96197 0.15118 0.92465 0.0
C638 C 0.04603 0.16601 0.98984 0.0
C639 C 0.99149 0.15463 0.9421 0.0
N640 N 0.0636 0.21672 0.96792 0.0
N641 N 0.98542 0.0981 0.94862 0.0
H642 H 0.95373 0.1698 0.91328 0.0
H643 H 0.94435 0.13089 0.92453 0.0
H644 H 0.99172 0.07819 0.95917 0.0
H645 H 0.96882 0.092 0.92764 0.0
H646 H 0.08594 0.22036 0.98168 0.0
H647 H 0.0614 0.23415 0.95159 0.0
H648 H 0.08192 0.1955 0.02396 0.0
H649 H 0.0737 0.15539 0.03222 0.0
C650 C 0.14578 0.80642 0.22307 0.0
C651 C 0.12387 0.77834 0.21013 0.0
C652 C 0.16073 0.74459 0.23072 0.0
C653 C 0.18234 0.7725 0.24544 0.0
N654 N 0.1935 0.83014 0.25953 0.0
N655 N 0.10607 0.72139 0.21016 0.0
C656 C 0.17408 0.80348 0.24319 0.0
C657 C 0.13002 0.74765 0.21655 0.0
N658 N 0.14039 0.83569 0.21464 0.0
N659 N 0.16957 0.7151 0.22932 0.0
H660 H 0.08284 0.72275 0.20065 0.0
H661 H 0.10823 0.69891 0.21765 0.0
H662 H 0.19138 0.71107 0.23993 0.0
H663 H 0.15624 0.6949 0.21513 0.0
H664 H 0.15719 0.85675 0.21985 0.0
H665 H 0.11981 0.83866 0.20018 0.0
H666 H 0.1869 0.85266 0.26198 0.0
H667 H 0.21558 0.82968 0.27247 0.0
C668 C 0.50632 0.8647 0.41143 0.0
C669 C 0.49996 0.83722 0.42909 0.0
C670 C 0.50597 0.87085 0.48192 0.0
C671 C 0.51309 0.89839 0.46434 0.0
N672 N 0.50585 0.92161 0.41236 0.0
N673 N 0.47979 0.81536 0.47794 0.0
C674 C 0.50845 0.89532 0.42901 0.0
C675 C 0.49513 0.84071 0.46334 0.0
N676 N 0.51252 0.8621 0.37879 0.0
N677 N 0.51133 0.87263 0.5159 0.0
H678 H 0.47019 0.7933 0.46445 0.0
H679 H 0.47326 0.81748 0.5022 0.0
H680 H 0.51946 0.89381 0.53122 0.0
H681 H 0.50999 0.85232 0.52887 0.0
H682 H 0.52053 0.88197 0.3663 0.0
H683 H 0.51251 0.84035 0.36489 0.0
H684 H 0.49968 0.9201 0.38668 0.0
H685 H 0.50613 0.94423 0.42476 0.0
C686 C 0.4465 0.30109 0.72476 0.0
C687 C 0.45515 0.27592 0.70402 0.0
C688 C 0.40288 0.24254 0.70722 0.0
C689 C 0.39461 0.26727 0.7288 0.0
N690 N 0.4117 0.31587 0.76566 0.0
N691 N 0.4456 0.2195 0.68443 0.0
C692 C 0.41754 0.29518 0.74008 0.0
C693 C 0.43459 0.24561 0.69803 0.0
N694 N 0.46468 0.33116 0.72821 0.0
N695 N 0.38018 0.21699 0.69389 0.0
H696 H 0.46914 0.22044 0.67865 0.0
H697 H 0.43251 0.19625 0.68239 0.0
H698 H 0.35669 0.21376 0.6999 0.0
H699 H 0.38405 0.20041 0.67483 0.0
H700 H 0.45753 0.35106 0.74018 0.0
H701 H 0.48545 0.33706 0.7165 0.0
H702 H 0.4288 0.33501 0.77711 0.0
H703 H 0.39086 0.3119 0.77774 0.0
C704 C 0.99216 0.85213 0.59981 0.0
C705 C 0.00676 0.82601 0.58898 0.0
C706 C 0.02764 0.85515 0.54322 0.0
C707 C 0.014 0.88163 0.55492 0.0
N708 N 0.99065 0.90871 0.59899 0.0
N709 N 0.04409 0.80496 0.55529 0.0
C710 C -0.0015 0.88114 0.58467 0.0
C711 C 0.02613 0.82811 0.562 0.0
N712 N 0.97108 0.84879 0.62356 0.0
N713 N 0.04148 0.85566 0.51393 0.0
H714 H 0.04395 0.7851 0.56885 0.0
H715 H 0.06119 0.80676 0.53827 0.0
H716 H 0.04385 0.87558 0.50029 0.0
H717 H 0.0488 0.83578 0.50213 0.0
H718 H 0.95701 0.86581 0.62973 0.0
H719 H 0.96536 0.82775 0.63503 0.0
H720 H 0.9826 0.91066 0.62258 0.0
H721 H 0.99515 0.93058 0.58879 0.0
C722 C 0.44428 0.76846 0.81348 0.0
C723 C 0.45126 0.78719 0.84478 0.0
C724 C 0.39567 0.79441 0.84474 0.0
C725 C 0.38816 0.77294 0.81532 0.0
N726 N 0.40582 0.75068 0.76495 0.0
N727 N 0.43724 0.82699 0.88401 0.0
C728 C 0.41274 0.76388 0.79724 0.0
C729 C 0.42807 0.80332 0.85831 0.0
N730 N 0.467 0.75328 0.8005 0.0
N731 N 0.37159 0.80515 0.86017 0.0
H732 H 0.46113 0.83429 0.89356 0.0
H733 H 0.42197 0.84136 0.89361 0.0
H734 H 0.34786 0.80014 0.84957 0.0
H735 H 0.37482 0.81808 0.88361 0.0
H736 H 0.46206 0.73611 0.77993 0.0
H737 H 0.49054 0.75658 0.81143 0.0
H738 H 0.42321 0.74571 0.74963 0.0
H739 H 0.38286 0.74767 0.75255 0.0
C740 C 0.52806 0.13679 0.11259 0.0
C741 C 0.50138 0.15142 0.10403 0.0
C742 C 0.47967 0.10643 0.06195 0.0
C743 C 0.50829 0.09366 0.0676 0.0
N744 N 0.56238 0.10044 0.09458 0.0
N745 N 0.45316 0.15248 0.06877 0.0
C746 C 0.5331 0.10966 0.09215 0.0
C747 C 0.47761 0.13695 0.07811 0.0
N748 N 0.54895 0.149 0.14005 0.0
N749 N 0.45383 0.08877 0.0425 0.0
H750 H 0.44988 0.174 0.0813 0.0
H751 H 0.43732 0.14511 0.04738 0.0
H752 H 0.4539 0.06603 0.03075 0.0
H753 H 0.43128 0.09524 0.04052 0.0
H754 H 0.56636 0.13693 0.14994 0.0
H755 H 0.54747 0.16998 0.15468 0.0
H756 H 0.58244 0.11368 0.10901 0.0
H757 H 0.56788 0.08144 0.07965 0.0
C758 C 0.12923 0.29173 0.36816 0.0
C759 C 0.0967 0.27938 0.35701 0.0
C760 C 0.11152 0.26475 0.30114 0.0
C761 C 0.14418 0.27621 0.31268 0.0
N762 N 0.18455 0.29119 0.36029 0.0
N763 N 0.05791 0.24629 0.31594 0.0
C764 C 0.15323 0.28636 0.34718 0.0
C765 C 0.08809 0.26354 0.32434 0.0
N766 N 0.13728 0.31069 0.39775 0.0
N767 N 0.10289 0.25503 0.26805 0.0
H768 H 0.04056 0.24382 0.33274 0.0
H769 H 0.05106 0.23178 0.29357 0.0
H770 H 0.1196 0.25332 0.25082 0.0
H771 H 0.07921 0.25014 0.25743 0.0
H772 H 0.16031 0.3234 0.40505 0.0
H773 H 0.12056 0.31669 0.41345 0.0
H774 H 0.19136 0.2947 0.3859 0.0
H775 H 0.20366 0.28867 0.34656 0.0
C776 C 0.95559 0.05223 0.15474 0.0
C777 C 0.95619 0.02671 0.1752 0.0
C778 C 0.00456 0.01446 0.15096 0.0
C779 C 0.00213 0.03805 0.12841 0.0
N780 N 0.98397 0.0871 0.11818 0.0
N781 N 0.97919 0.98137 0.19088 0.0
C782 C 0.98002 0.05916 0.13302 0.0
C783 C 0.98045 0.00756 0.17317 0.0
N784 N 0.93109 0.06924 0.15523 0.0
N785 N 0.0306 -0.00034 0.15232 0.0
H786 H 0.96184 0.97529 0.20711 0.0
H787 H 0.9935 0.96401 0.18748 0.0
H788 H 0.0493 0.00506 0.13766 0.0
H789 H 0.03572 0.98502 0.17071 0.0
H790 H 0.92727 0.08576 0.13837 0.0
H791 H 0.91289 0.06493 0.1708 0.0
H792 H 0.97082 0.10528 0.1227 0.0
H793 H 0.00296 0.0935 0.10391 0.0
C794 C 0.25358 0.69758 0.44944 0.0
C795 C 0.28328 0.70683 0.46953 0.0
C796 C 0.30146 0.74656 0.43172 0.0
C797 C 0.27202 0.73668 0.41147 0.0
N798 N 0.21658 0.71167 0.40666 0.0
N799 N 0.3328 0.74423 0.48422 0.0
C800 C 0.24684 0.7152 0.42231 0.0
C801 C 0.30627 0.73295 0.46228 0.0
N802 N 0.23231 0.67125 0.45543 0.0
N803 N 0.32511 0.76808 0.42092 0.0
H804 H 0.33781 0.73378 0.50607 0.0
H805 H 0.34887 0.76511 0.48193 0.0
H806 H 0.32136 0.77993 0.39969 0.0
H807 H 0.34855 0.77344 0.43215 0.0
H808 H 0.2121 0.66126 0.43921 0.0
H809 H 0.23599 0.65776 0.47531 0.0
H810 H 0.1966 0.69835 0.41527 0.0
H811 H 0.21092 0.72486 0.38708 0.0
C812 C 0.54627 0.98158 0.67261 0.0
C813 C 0.57996 0.98734 0.67021 0.0
C814 C 0.57119 0.01032 0.61754 0.0
C815 C 0.53761 0.00113 0.61798 0.0
N816 N 0.49348 0.97123 0.64228 0.0
N817 N 0.62343 -0.00027 0.63603 0.0
C818 C 0.52519 0.9846 0.64435 0.0
C819 C 0.59203 -0.00078 0.64118 0.0
N820 N 0.53416 0.97567 0.70221 0.0
N821 N 0.58332 0.03116 0.59585 0.0
H822 H 0.63909 0.99012 0.65195 0.0
H823 H 0.63273 0.00583 0.61392 0.0
H824 H 0.56899 0.04163 0.57936 0.0
H825 H 0.60758 0.04092 0.59688 0.0
H826 H 0.51006 0.97493 0.70559 0.0
H827 H 0.54812 0.97486 0.72438 0.0
H828 H 0.48399 0.95615 0.6594 0.0
H829 H 0.47733 0.97257 0.62177 0.0
C830 C 0.26277 0.31346 0.95462 0.0
C831 C 0.27687 0.34611 0.96313 0.0
C832 C 0.28205 0.35329 0.90413 0.0
C833 C 0.2667 0.3209 0.89531 0.0
N834 N 0.25145 0.26787 0.91277 0.0
N835 N 0.30842 0.39424 0.94794 0.0
C836 C 0.26024 0.30017 0.92077 0.0
C837 C 0.28922 0.36513 0.93842 0.0
N838 N 0.24987 0.29567 0.97846 0.0
N839 N 0.28918 0.37293 0.87966 0.0
H840 H 0.31452 0.40316 0.97293 0.0
H841 H 0.32074 0.40813 0.93152 0.0
H842 H 0.28643 0.36459 0.85439 0.0
H843 H 0.29658 0.39766 0.88416 0.0
H844 H 0.23559 0.27308 0.97309 0.0
H845 H 0.25149 0.30433 0.00356 0.0
H846 H 0.24982 0.25128 0.93039 0.0
H847 H 0.24889 0.25726 0.88845 0.0
C848 C 0.97193 0.0264 0.34775 0.0
C849 C 0.94234 0.00498 0.33982 0.0
C850 C 0.94357 0.99067 0.39748 0.0
C851 C 0.9714 0.01435 0.40589 0.0
N852 N 0.01797 0.04587 0.38823 0.0
N853 N 0.9034 0.96156 0.35416 0.0
C854 C 0.98755 0.02923 0.38061 0.0
C855 C 0.9293 0.98528 0.36381 0.0
N856 N 0.98401 0.04555 0.32458 0.0
N857 N 0.93073 0.974 0.42205 0.0
H858 H 0.89251 0.95743 0.32971 0.0
H859 H 0.89366 0.94486 0.36955 0.0
H860 H 0.94267 0.9758 0.44596 0.0
H861 H 0.90877 0.95852 0.41907 0.0
H862 H 0.00333 0.06439 0.33007 0.0
H863 H 0.97353 0.04396 0.30009 0.0
H864 H 0.03247 0.05517 0.3706 0.0
H865 H 0.02965 0.04762 0.41217 0.0
C866 C 0.27689 0.68778 0.65972 0.0
C867 C 0.30489 0.69881 0.64432 0.0
C868 C 0.3168 0.74672 0.68484 0.0
C869 C 0.28632 0.7379 0.69647 0.0
N870 N 0.23425 0.70344 0.68919 0.0
N871 N 0.35155 0.73888 0.64131 0.0
C872 C 0.26558 0.70926 0.68252 0.0
C873 C 0.32495 0.72833 0.65673 0.0
N874 N 0.26062 0.65701 0.65248 0.0
N875 N 0.33819 0.77195 0.70123 0.0
H876 H 0.35928 0.72486 0.62224 0.0
H877 H 0.36513 0.76184 0.64648 0.0
H878 H 0.33289 0.78587 0.72182 0.0
H879 H 0.36195 0.77752 0.69613 0.0
H880 H 0.24209 0.64721 0.66585 0.0
H881 H 0.26751 0.63997 0.63599 0.0
H882 H 0.21729 0.68482 0.67654 0.0
H883 H 0.22408 0.71911 0.70442 0.0
C884 C 0.55482 0.99178 0.84049 0.0
C885 C 0.58536 0.01102 0.8387 0.0
C886 C 0.57924 0.04428 0.88919 0.0
C887 C 0.55158 0.02239 0.89358 0.0
N888 N 0.50803 0.98085 0.87157 0.0
N889 N 0.62795 0.05438 0.86242 0.0
C890 C 0.53763 0.99791 0.86836 0.0
C891 C 0.59784 0.0372 0.86314 0.0
N892 N 0.54343 0.9666 0.81677 0.0
N893 N 0.58731 0.07201 0.91003 0.0
H894 H 0.64266 0.05032 0.84382 0.0
H895 H 0.63951 0.07123 0.88168 0.0
H896 H 0.57306 0.07763 0.92866 0.0
H897 H 0.60557 0.09071 0.90656 0.0
H898 H 0.52195 0.95085 0.81693 0.0
H899 H 0.55612 0.9604 0.79698 0.0
H900 H 0.49541 0.96269 0.85426 0.0
H901 H 0.4951 0.98649 0.89143 0.0
C902 C 0.27789 0.33237 0.16269 0.0
C903 C 0.25695 0.329 0.13281 0.0
C904 C 0.22743 0.27859 0.14962 0.0
C905 C 0.24725 0.28294 0.18036 0.0
N906 N 0.28799 0.31766 0.21856 0.0
N907 N 0.20723 0.30285 0.10173 0.0
C908 C 0.27108 0.31116 0.18778 0.0
C909 C 0.23045 0.30315 0.12734 0.0
N910 N 0.30587 0.35414 0.16614 0.0
N911 N 0.20566 0.25087 0.14156 0.0
H912 H 0.2078 0.321 0.08582 0.0
H913 H 0.18579 0.28649 0.0983 0.0
H914 H 0.20104 0.23344 0.15806 0.0
H915 H 0.19349 0.24434 0.11787 0.0
H916 H 0.32383 0.35521 0.18558 0.0
H917 H 0.31292 0.36905 0.14792 0.0
H918 H 0.30155 0.34013 0.22696 0.0
H919 H 0.28745 0.3015 0.23655 0.0
C920 C 0.20302 0.97573 0.03238 0.0
C921 C 0.19807 0.94418 0.04231 0.0
C922 C 0.15557 0.95692 0.0758 0.0
C923 C 0.15882 0.98756 0.06332 0.0
N924 N 0.19382 0.03028 0.04274 0.0
N925 N 0.17608 0.90714 0.07992 0.0
C926 C 0.18549 -0.00171 0.04603 0.0
C927 C 0.17617 0.9354 0.06595 0.0
N928 N 0.22295 0.98361 0.00837 0.0
N929 N 0.13286 0.94827 0.09678 0.0
H930 H 0.19108 0.89106 0.07348 0.0
H931 H 0.16293 0.90048 0.09956 0.0
H932 H 0.12296 0.96511 0.1107 0.0
H933 H 0.1249 0.92469 0.10154 0.0
H934 H 0.22474 0.00522 -0.00234 0.0
H935 H 0.2356 0.96752 -0.00312 0.0
H936 H 0.21458 0.04019 0.03275 0.0
H937 H 0.18156 0.04719 0.05354 0.0
C938 C 0.66072 0.56268 0.02395 0.0
C939 C 0.66307 0.5803 0.99561 0.0
C940 C 0.60682 0.5581 0.97637 0.0
C941 C 0.60326 0.54393 0.00674 0.0
N942 N 0.62652 0.53311 0.06007 0.0
N943 N 0.63806 0.59722 0.94607 0.0
C944 C 0.63025 0.54606 0.03056 0.0
C945 C 0.63601 0.5787 0.97215 0.0
N946 N 0.68768 0.5617 0.04455 0.0
N947 N 0.58275 0.55057 0.95094 0.0
H948 H 0.65933 0.6117 0.94159 0.0
H949 H 0.61827 0.59993 0.93028 0.0
H950 H 0.56162 0.53471 0.95299 0.0
H951 H 0.58482 0.55759 0.92702 0.0
H952 H 0.68839 0.54633 0.06324 0.0
H953 H 0.71014 0.57483 0.04174 0.0
H954 H 0.64381 0.53743 0.0805 0.0
H955 H 0.60524 0.51901 0.06468 0.0
C956 C 0.72055 0.45144 0.26228 0.0
C957 C 0.69565 0.44727 0.28383 0.0
C958 C 0.69451 0.38918 0.2773 0.0
C959 C 0.72237 0.39388 0.2601 0.0
N960 N 0.76393 0.42981 0.23853 0.0
N961 N 0.6631 0.41242 0.31675 0.0
C962 C 0.7361 0.42517 0.25341 0.0
C963 C 0.68373 0.41618 0.29266 0.0
N964 N 0.72796 0.47973 0.24848 0.0
N965 N 0.67756 0.35897 0.27799 0.0
H966 H 0.65546 0.43166 0.32952 0.0
H967 H 0.65628 0.39061 0.32646 0.0
H968 H 0.68448 0.33849 0.26693 0.0
H969 H 0.65516 0.35455 0.287 0.0
H970 H 0.74348 0.48292 0.22998 0.0
H971 H 0.71613 0.49903 0.25277 0.0
H972 H 0.7769 0.45247 0.23617 0.0
H973 H 0.77526 0.41094 0.23074 0.0
C974 C 0.83675 0.46336 0.52085 0.0
C975 C 0.82831 0.43702 0.49592 0.0
C976 C 0.88045 0.44968 0.47473 0.0
C977 C 0.89077 0.47191 0.5033 0.0
N978 N 0.87427 0.51191 0.54094 0.0
N979 N 0.84012 0.40583 0.44746 0.0
C980 C 0.86762 0.4826 0.5227 0.0
C981 C 0.8494 0.43071 0.47195 0.0
N982 N 0.81592 0.46896 0.54372 0.0
N983 N 0.89986 0.44822 0.44958 0.0
H984 H 0.81693 0.39251 0.44386 0.0
H985 H 0.85561 0.39741 0.43167 0.0
H986 H 0.92133 0.46432 0.44981 0.0
H987 H 0.89324 0.434 0.42702 0.0
H988 H 0.82229 0.48504 0.56507 0.0
H989 H 0.79266 0.45604 0.54251 0.0
H990 H 0.8576 0.52167 0.55408 0.0
H991 H 0.89463 0.52871 0.5387 0.0
C992 C 0.34057 0.08762 0.23051 0.0
C993 C 0.34695 0.0897 0.26579 0.0
C994 C 0.32241 0.13752 0.27178 0.0
C995 C 0.31394 0.13416 0.23663 0.0
N996 N 0.30996 0.10334 0.18321 0.0
N997 N 0.33853 0.1122 0.3204 0.0
C998 C 0.32153 0.10836 0.21618 0.0
C999 C 0.33626 0.11335 0.28655 0.0
N1000 N 0.35397 0.06691 0.21065 0.0
N1001 N 0.31889 0.16456 0.29096 0.0
H1002 H 0.34857 0.09479 0.33219 0.0
H1003 H 0.32782 0.12662 0.33652 0.0
H1004 H 0.30915 0.18329 0.28163 0.0
H1005 H 0.32842 0.16989 0.31577 0.0
H1006 H 0.35318 0.06691 0.18483 0.0
H1007 H 0.36829 0.05144 0.22008 0.0
H1008 H 0.31182 0.08301 0.16774 0.0
H1009 H 0.29596 0.1182 0.17199 0.0
C1010 C 0.35447 0.10292 0.53409 0.0
C1011 C 0.33665 0.09729 0.50215 0.0
C1012 C 0.37095 0.0593 0.48451 0.0
C1013 C 0.39136 0.06847 0.51462 0.0
N1014 N 0.40538 0.10374 0.56578 0.0
N1015 N 0.33098 0.07367 0.44503 0.0
C1016 C 0.38385 0.09146 0.53891 0.0
C1017 C 0.34558 0.07628 0.47683 0.0
N1018 N 0.34279 0.1181 0.56033 0.0
N1019 N 0.37534 0.03376 0.46362 0.0
H1020 H 0.31293 0.08634 0.43812 0.0
H1021 H 0.33885 0.06136 0.42485 0.0
H1022 H 0.3931 0.02027 0.46905 0.0
H1023 H 0.35944 0.02398 0.44287 0.0
H1024 H 0.35325 0.11987 0.58483 0.0
H1025 H 0.32083 0.12586 0.55838 0.0
H1026 H 0.4027 0.12332 0.58196 0.0
H1027 H 0.42736 0.09646 0.57028 0.0
C1028 C 0.70718 0.64645 0.3309 0.0
C1029 C 0.70833 0.61945 0.3082 0.0
C1030 C 0.74385 0.65358 0.27545 0.0
C1031 C 0.7431 0.68049 0.2985 0.0
N1032 N 0.73119 0.70104 0.35229 0.0
N1033 N 0.73125 0.59582 0.2616 0.0
C1034 C 0.7268 0.67644 0.32746 0.0
C1035 C 0.72795 0.62254 0.28144 0.0
N1036 N 0.68704 0.64354 0.35551 0.0
N1037 N 0.75871 0.65793 0.24711 0.0
H1038 H 0.71851 0.57297 0.26362 0.0
H1039 H 0.74804 0.59579 0.24433 0.0
H1040 H 0.772 0.67987 0.24295 0.0
H1041 H 0.7567 0.64045 0.22703 0.0
H1042 H 0.68224 0.66304 0.37038 0.0
H1043 H 0.6735 0.62166 0.35976 0.0
H1044 H 0.72246 0.69908 0.37547 0.0
H1045 H 0.74644 0.72264 0.35067 0.0
C1046 C 0.87353 0.42884 0.81343 0.0
C1047 C 0.85823 0.45369 0.802 0.0
C1048 C 0.81358 0.41402 0.77336 0.0
C1049 C 0.83065 0.38942 0.78196 0.0
N1050 N 0.87053 0.3719 0.81839 0.0
N1051 N 0.81423 0.47095 0.77102 0.0
C1052 C 0.85875 0.3964 0.80456 0.0
C1053 C 0.82791 0.4466 0.78278 0.0
N1054 N 0.90298 0.43636 0.83133 0.0
N1055 N 0.78379 0.40628 0.75614 0.0
H1056 H 0.82324 0.49514 0.77797 0.0
H1057 H 0.79471 0.46759 0.75301 0.0
H1058 H 0.77309 0.38297 0.74702 0.0
H1059 H 0.76842 0.42257 0.75263 0.0
H1060 H 0.91729 0.41958 0.83703 0.0
H1061 H 0.91408 0.45989 0.83917 0.0
H1062 H 0.88895 0.37529 0.83766 0.0
H1063 H 0.85985 0.34787 0.81271 0.0
C1064 C 0.03652 0.88269 0.11995 0.0
C1065 C 0.03544 0.85326 0.10045 0.0
C1066 C 0.03664 0.88155 0.04999 0.0
C1067 C 0.04327 0.91123 0.0703 0.0
N1068 N 0.05819 0.93897 0.12573 0.0
N1069 N 0.03853 0.82474 0.04679 0.0
C1070 C 0.04529 0.91164 0.10561 0.0
C1071 C 0.03625 0.85253 0.0653 0.0
N1072 N 0.02886 0.8831 0.15214 0.0
N1073 N 0.0304 0.88108 0.01622 0.0
H1074 H 0.03904 0.8031 0.05702 0.0
H1075 H 0.04273 0.82377 0.02173 0.0
H1076 H 0.03021 0.90194 0.00433 0.0
H1077 H 0.02247 0.86001 0.00049 0.0
H1078 H 0.02663 0.90415 0.16629 0.0
H1079 H 0.0212 0.86221 0.16326 0.0
H1080 H 0.06316 0.93924 0.15147 0.0
H1081 H 0.0677 0.96032 0.11656 0.0
C1082 C 0.8841 0.2289 0.8154 0.0
C1083 C 0.89788 0.246 0.84618 0.0
C1084 C 0.85266 0.27451 0.84823 0.0
C1085 C 0.83795 0.25653 0.81786 0.0
N1086 N 0.83568 0.21035 0.77807 0.0
N1087 N 0.89052 0.27693 0.89687 0.0
C1088 C 0.85246 0.23169 0.80319 0.0
C1089 C 0.8804 0.26584 0.86436 0.0
N1090 N 0.90138 0.21042 0.7976 0.0
N1091 N 0.84225 0.30153 0.86042 0.0
H1092 H 0.91097 0.27148 0.9095 0.0
H1093 H 0.87679 0.28875 0.91222 0.0
H1094 H 0.82384 0.31097 0.84859 0.0
H1095 H 0.85453 0.31699 0.88049 0.0
H1096 H 0.89403 0.20035 0.7732 0.0
H1097 H 0.92402 0.20671 0.80664 0.0
H1098 H 0.84388 0.19008 0.76839 0.0
H1099 H 0.8121 0.21112 0.76929 0.0
C1100 C 0.55247 0.17752 0.60847 0.0
C1101 C 0.53092 0.1984 0.60037 0.0
C1102 C 0.49721 0.15523 0.56305 0.0
C1103 C 0.51518 0.1333 0.57642 0.0
N1104 N 0.56057 0.12247 0.61036 0.0
N1105 N 0.48203 0.20753 0.57073 0.0
C1106 C 0.54335 0.14419 0.59834 0.0
C1107 C 0.50344 0.18764 0.5772 0.0
N1108 N 0.58164 0.18977 0.62562 0.0
N1109 N 0.47383 0.14484 0.53732 0.0
H1110 H 0.48551 0.23146 0.58055 0.0
H1111 H 0.45965 0.19979 0.55741 0.0
H1112 H 0.46872 0.1211 0.52672 0.0
H1113 H 0.46169 0.16013 0.52446 0.0
H1114 H 0.59956 0.17631 0.63005 0.0
H1115 H 0.58901 0.21427 0.63283 0.0
H1116 H 0.57916 0.12829 0.62949 0.0
H1117 H 0.55531 0.09808 0.60193 0.0
C1118 C 0.60282 0.78404 0.34412 0.0
C1119 C 0.58087 0.75457 0.33727 0.0
C1120 C 0.61656 0.73528 0.29899 0.0
C1121 C 0.64113 0.76139 0.31164 0.0
N1122 N 0.6583 0.80978 0.34956 0.0
N1123 N 0.56922 0.69994 0.31095 0.0
C1124 C 0.63445 0.78585 0.33482 0.0
C1125 C 0.58807 0.72968 0.31505 0.0
N1126 N 0.59327 0.81059 0.35871 0.0
N1127 N 0.62048 0.71586 0.27152 0.0
H1128 H 0.54907 0.69381 0.32354 0.0
H1129 H 0.57554 0.68026 0.29762 0.0
H1130 H 0.64082 0.71991 0.25867 0.0
H1131 H 0.60218 0.69817 0.25945 0.0
H1132 H 0.60758 0.8333 0.36163 0.0
H1133 H 0.5698 0.81074 0.36423 0.0
H1134 H 0.65513 0.82556 0.36968 0.0
H1135 H 0.68185 0.81261 0.34367 0.0
C1136 C 0.02836 0.17952 0.43711 0.0
C1137 C 0.01974 0.2041 0.45862 0.0
C1138 C 0.01288 0.16727 0.50227 0.0
C1139 C 0.01911 0.14221 0.47962 0.0
N1140 N 0.02337 0.1225 0.42282 0.0
N1141 N -0.00197 0.21998 0.5094 0.0
C1142 C 0.02399 0.14778 0.44622 0.0
C1143 C 0.01034 0.19763 0.49063 0.0
N1144 N 0.04229 0.18663 0.40872 0.0
N1145 N 0.01058 0.1625 0.53506 0.0
H1146 H 0.99563 0.2423 0.50155 0.0
H1147 H 0.98771 0.2154 0.53136 0.0
H1148 H 0.01199 0.14055 0.54433 0.0
H1149 H 0.00957 0.18087 0.55348 0.0
H1150 H 0.05194 0.17001 0.39409 0.0
H1151 H 0.04745 0.20984 0.40165 0.0
H1152 H 0.02378 0.12487 0.3974 0.0
H1153 H 0.01857 0.0988 0.42846 0.0
C1154 C 0.62337 0.27179 0.19052 0.0
C1155 C 0.59956 0.24765 0.19993 0.0
C1156 C 0.63975 0.23149 0.23896 0.0
C1157 C 0.6642 0.2525 0.22579 0.0
N1158 N 0.67903 0.28671 0.1826 0.0
N1159 N 0.5859 0.20068 0.22912 0.0
C1160 C 0.65594 0.27102 0.19977 0.0
C1161 C 0.60791 0.22637 0.22308 0.0
N1162 N 0.61496 0.29623 0.17373 0.0
N1163 N 0.64638 0.21769 0.26749 0.0
H1164 H 0.56244 0.19595 0.2178 0.0
H1165 H 0.59179 0.18255 0.24302 0.0
H1166 H 0.66894 0.22201 0.28091 0.0
H1167 H 0.62871 0.20467 0.27975 0.0
H1168 H 0.63149 0.31613 0.16935 0.0
H1169 H 0.59124 0.2985 0.16763 0.0
H1170 H 0.67384 0.29807 0.16143 0.0
H1171 H 0.70309 0.28512 0.18703 0.0
C1172 C 0.53387 0.89653 0.94252 0.0
C1173 C 0.54118 0.87152 0.96104 0.0
C1174 C 0.54172 0.90622 0.0128 0.0
C1175 C 0.52861 0.92886 0.9942 0.0
N1176 N 0.5044 0.93983 0.9407 0.0
N1177 N 0.54768 0.85059 0.01439 0.0
C1178 C 0.52272 0.92261 0.95883 0.0
C1179 C 0.54404 0.87577 0.99641 0.0
N1180 N 0.53755 0.89542 0.9092 0.0
N1181 N 0.55323 0.91404 0.04556 0.0
H1182 H 0.54985 0.82809 0.0033 0.0
H1183 H 0.54605 0.85144 0.04003 0.0
H1184 H 0.55415 0.93671 0.058 0.0
H1185 H 0.56528 0.89921 0.05925 0.0
H1186 H 0.53528 0.91466 0.89527 0.0
H1187 H 0.54634 0.87682 0.89657 0.0
H1188 H 0.49685 0.93341 0.91546 0.0
H1189 H 0.49329 0.95768 0.95127 0.0
C1190 C 0.9233 0.75785 0.72841 0.0
C1191 C 0.9183 0.74583 0.69411 0.0
C1192 C 0.86058 0.73314 0.6982 0.0
C1193 C 0.86633 0.74012 0.73339 0.0
N1194 N 0.90291 0.75748 0.78272 0.0
N1195 N 0.88242 0.71783 0.64724 0.0
C1196 C 0.89763 0.75217 0.74873 0.0
C1197 C 0.88695 0.73282 0.67902 0.0
N1198 N 0.95222 0.77562 0.74124 0.0
N1199 N 0.8299 0.72628 0.68309 0.0
H1200 H 0.90101 0.71544 0.63257 0.0
H1201 H 0.86049 0.7048 0.63645 0.0
H1202 H 0.80976 0.72479 0.6962 0.0
H1203 H 0.82443 0.72494 0.65733 0.0
H1204 H 0.95641 0.78743 0.76525 0.0
H1205 H 0.97118 0.78132 0.72679 0.0
H1206 H 0.92568 0.76258 0.79564 0.0
H1207 H 0.88435 0.75494 0.79813 0.0
C1208 C 0.07045 -0.00071 0.89679 0.0
C1209 C 0.09767 0.02316 0.8944 0.0
C1210 C 0.09645 0.04362 0.9529 0.0
C1211 C 0.06753 0.02152 0.95459 0.0
N1212 N 0.0255 0.97983 0.92729 0.0
N1213 N 0.13297 0.07174 0.91784 0.0
C1214 C 0.05399 -4e-05 0.92616 0.0
C1215 C 0.10979 0.0462 0.92188 0.0
N1216 N 0.06133 0.97495 0.87169 0.0
N1217 N 0.1114 0.06231 0.98086 0.0
H1218 H 0.14302 0.07489 0.89543 0.0
H1219 H 0.14011 0.09146 0.93556 0.0
H1220 H 0.10184 0.06336 0.00369 0.0
H1221 H 0.1346 0.07527 0.98212 0.0
H1222 H 0.044 0.95484 0.87333 0.0
H1223 H 0.07295 0.97339 0.85007 0.0
H1224 H 0.01224 0.96667 0.9063 0.0
H1225 H 0.01414 0.97739 0.94903 0.0
C1226 C 0.74235 0.30194 0.59528 0.0
C1227 C 0.75372 0.3342 0.58968 0.0
C1228 C 0.77231 0.34816 0.64869 0.0
C1229 C 0.7587 0.31672 0.6548 0.0
N1230 N 0.73677 0.26177 0.63494 0.0
N1231 N 0.77546 0.38929 0.61077 0.0
C1232 C 0.74542 0.29293 0.62834 0.0
C1233 C 0.76792 0.35762 0.61622 0.0
N1234 N 0.72819 0.28036 0.56902 0.0
N1235 N 0.7907 0.36847 0.67374 0.0
H1236 H 0.77274 0.39762 0.58737 0.0
H1237 H 0.78197 0.40789 0.62984 0.0
H1238 H 0.79514 0.36195 0.69774 0.0
H1239 H 0.80424 0.39048 0.67009 0.0
H1240 H 0.7168 0.25711 0.57129 0.0
H1241 H 0.72691 0.28606 0.54438 0.0
H1242 H 0.72838 0.2426 0.61692 0.0
H1243 H 0.73988 0.25452 0.65882 0.0
C1244 C 0.4387 0.00922 0.41466 0.0
C1245 C 0.45081 0.03501 0.39675 0.0
C1246 C 0.4962 0.05139 0.4397 0.0
C1247 C 0.48616 0.02302 0.45501 0.0
N1248 N 0.4523 0.97068 0.45133 0.0
N1249 N 0.49215 0.07953 0.38999 0.0
C1250 C 0.45854 0.00077 0.44103 0.0
C1251 C 0.47992 0.05587 0.40862 0.0
N1252 N 0.40825 0.99264 0.40647 0.0
N1253 N 0.52054 0.07435 0.45527 0.0
H1254 H 0.47997 0.08419 0.36792 0.0
H1255 H 0.51497 0.0933 0.39544 0.0
H1256 H 0.53293 0.07171 0.47798 0.0
H1257 H 0.52682 0.09692 0.44701 0.0
H1258 H 0.39729 0.97554 0.42086 0.0
H1259 H 0.39275 -0.00176 0.38735 0.0
H1260 H 0.43418 0.95265 0.43953 0.0
H1261 H 0.46751 0.96231 0.46879 0.0
C1262 C 0.78578 0.67215 0.1153 0.0
C1263 C 0.76704 0.68351 0.08971 0.0
C1264 C 0.76252 0.73039 0.12778 0.0
C1265 C 0.77955 0.7179 0.15386 0.0
N1266 N 0.80128 0.67336 0.17437 0.0
N1267 N 0.73189 0.71971 0.07339 0.0
C1268 C 0.78897 0.68753 0.14829 0.0
C1269 C 0.7538 0.71164 0.09643 0.0
N1270 N 0.80251 0.64814 0.10772 0.0
N1271 N 0.75489 0.76029 0.13292 0.0
H1272 H 0.72426 0.7061 0.05056 0.0
H1273 H 0.71902 0.7381 0.07808 0.0
H1274 H 0.7591 0.77384 0.15612 0.0
H1275 H 0.74601 0.77238 0.11383 0.0
H1276 H 0.81935 0.64135 0.12463 0.0
H1277 H 0.80229 0.63727 0.0836 0.0
H1278 H 0.80497 0.64968 0.17225 0.0
H1279 H 0.80535 0.68418 0.19878 0.0
C1280 C 0.11178 0.00407 0.68361 0.0
C1281 C 0.09875 0.02025 0.70987 0.0
C1282 C 0.06014 0.037 0.6692 0.0
C1283 C 0.07177 0.01894 0.64324 0.0
N1284 N 0.10526 0.98105 0.62613 0.0
N1285 N 0.05881 0.04956 0.72884 0.0
C1286 C 0.09647 0.00111 0.65059 0.0
C1287 C 0.07229 0.03587 0.70301 0.0
N1288 N 0.13942 0.99228 0.69001 0.0
N1289 N 0.03775 0.05553 0.66143 0.0
H1290 H 0.06796 0.05045 0.75373 0.0
H1291 H 0.03747 0.05836 0.72597 0.0
H1292 H 0.02717 0.05564 0.63721 0.0
H1293 H 0.03087 0.07214 0.6785 0.0
H1294 H 0.15233 0.98387 0.67145 0.0
H1295 H 0.15108 0.99317 0.71388 0.0
H1296 H 0.11992 0.96433 0.6309 0.0
H1297 H 0.09617 0.97916 0.60118 0.0
C1298 C 0.71337 0.31434 0.38877 0.0
C1299 C 0.73221 0.31051 0.41809 0.0
C1300 C 0.75718 0.27093 0.3868 0.0
C1301 C 0.74309 0.27972 0.35669 0.0
N1302 N 0.70635 0.30842 0.32858 0.0
N1303 N 0.77302 0.28592 0.44579 0.0
C1304 C 0.72041 0.3007 0.35764 0.0
C1305 C 0.75386 0.28842 0.41756 0.0
N1306 N 0.68854 0.33084 0.39092 0.0
N1307 N 0.77418 0.24639 0.38599 0.0
H1308 H 0.77141 0.29806 0.4689 0.0
H1309 H 0.79209 0.27347 0.44598 0.0
H1310 H 0.77718 0.23327 0.36392 0.0
H1311 H 0.78252 0.23689 0.40727 0.0
H1312 H 0.67193 0.33224 0.37091 0.0
H1313 H 0.68271 0.34068 0.41365 0.0
H1314 H 0.69347 0.32707 0.32737 0.0
H1315 H 0.7085 0.2966 0.30555 0.0
C1316 C 0.44814 0.04816 0.19795 0.0
C1317 C 0.4469 0.02192 0.21758 0.0
C1318 C 0.45767 0.98738 0.17 0.0
C1319 C 0.46024 0.01396 0.15067 0.0
N1320 N 0.46932 0.07176 0.15037 0.0
N1321 N 0.46035 0.97009 0.22561 0.0
C1322 C 0.45904 0.04507 0.16591 0.0
C1323 C 0.45503 0.99269 0.20466 0.0
N1324 N 0.43731 0.07535 0.20882 0.0
N1325 N 0.45558 0.95687 0.1552 0.0
H1326 H 0.45915 0.97369 0.25132 0.0
H1327 H 0.46929 0.94956 0.21805 0.0
H1328 H 0.45547 0.9514 0.12958 0.0
H1329 H 0.45061 0.93658 0.16798 0.0
H1330 H 0.4342 0.09336 0.19348 0.0
H1331 H 0.42884 0.07886 0.23204 0.0
H1332 H 0.47128 0.09505 0.16174 0.0
H1333 H 0.47962 0.07071 0.12789 0.0
C1334 C 0.74197 0.71084 0.90515 0.0
C1335 C 0.76149 0.68723 0.90981 0.0
C1336 C 0.78746 0.70168 0.8597 0.0
C1337 C 0.76929 0.72662 0.85651 0.0
N1338 N 0.73679 0.76081 0.88247 0.0
N1339 N 0.80824 0.66559 0.89582 0.0
C1340 C 0.74902 0.73313 0.8813 0.0
C1341 C 0.78573 0.68402 0.88821 0.0
N1342 N 0.7156 0.71102 0.92222 0.0
N1343 N 0.80665 0.69505 0.83557 0.0
H1344 H 0.80882 0.65342 0.91713 0.0
H1345 H 0.82824 0.66483 0.88282 0.0
H1346 H 0.81085 0.70946 0.81622 0.0
H1347 H 0.81716 0.67461 0.83395 0.0
H1348 H 0.69887 0.72576 0.91738 0.0
H1349 H 0.70842 0.69401 0.93849 0.0
H1350 H 0.72372 0.76796 0.90152 0.0
H1351 H 0.74319 0.77844 0.86672 0.0
C1352 C 0.86061 0.08196 0.00706 0.0
C1353 C 0.85107 0.08291 0.0399 0.0
C1354 C 0.8913 0.05105 0.05628 0.0
C1355 C 0.90535 0.05701 0.02638 0.0
N1356 N 0.90339 0.07669 0.97221 0.0
N1357 N 0.85579 0.06711 0.09582 0.0
C1358 C 0.88957 0.07128 0.00099 0.0
C1359 C 0.86536 0.06631 0.06437 0.0
N1360 N 0.84186 0.0913 0.98187 0.0
N1361 N 0.90364 0.03151 0.07717 0.0
H1362 H 0.83679 0.07801 0.10257 0.0
H1363 H 0.8676 0.0584 0.11575 0.0
H1364 H 0.92281 0.02032 0.07142 0.0
H1365 H 0.89329 0.02413 0.0983 0.0
H1366 H 0.84621 0.08886 0.95689 0.0
H1367 H 0.82005 0.09849 0.98561 0.0
H1368 H 0.89531 0.09092 0.95471 0.0
H1369 H 0.92393 0.06791 0.96653 0.0
C1370 C 0.38922 0.42947 0.04041 0.0
C1371 C 0.36797 0.44686 0.05623 0.0
C1372 C 0.40938 0.49563 0.0622 0.0
C1373 C 0.42952 0.4789 0.04369 0.0
N1374 N 0.43472 0.43181 0.00807 0.0
N1375 N 0.35573 0.49766 0.07741 0.0
C1376 C 0.41844 0.44627 0.031 0.0
C1377 C 0.37737 0.48035 0.06548 0.0
N1378 N 0.38142 0.39684 0.03384 0.0
N1379 N 0.42127 0.52541 0.07824 0.0
H1380 H 0.33273 0.48713 0.08192 0.0
H1381 H 0.35985 0.52265 0.08067 0.0
H1382 H 0.44482 0.53693 0.07767 0.0
H1383 H 0.40879 0.53741 0.09479 0.0
H1384 H 0.39773 0.38259 0.02644 0.0
H1385 H 0.35945 0.3836 0.03802 0.0
H1386 H 0.42608 0.40925 0.99537 0.0
H1387 H 0.45508 0.44365 -0.00126 0.0
C1388 C 0.36627 0.61334 0.7409 0.0
C1389 C 0.3465 0.5842 0.74609 0.0
C1390 C 0.30271 0.61385 0.75616 0.0
C1391 C 0.32399 0.64326 0.75498 0.0
N1392 N 0.37876 0.6704 0.75629 0.0
N1393 N 0.29749 0.55748 0.76497 0.0
C1394 C 0.35656 0.64283 0.75014 0.0
C1395 C 0.31506 0.58456 0.75539 0.0
N1396 N 0.394 0.61295 0.72627 0.0
N1397 N 0.27066 0.6136 0.75686 0.0
H1398 H 0.30576 0.53577 0.7653 0.0
H1399 H 0.27594 0.55735 0.77545 0.0
H1400 H 0.26068 0.63439 0.75694 0.0
H1401 H 0.25372 0.59255 0.75435 0.0
H1402 H 0.40774 0.63357 0.71924 0.0
H1403 H 0.40125 0.59173 0.71766 0.0
H1404 H 0.40327 0.67088 0.75576 0.0
H1405 H 0.3731 0.6919 0.76626 0.0
C1406 C 0.17676 0.62614 0.52657 0.0
C1407 C 0.19855 0.60994 0.54379 0.0
C1408 C 0.15557 0.56562 0.55053 0.0
C1409 C 0.13397 0.58096 0.53174 0.0
N1410 N 0.12284 0.6251 0.5013 0.0
N1411 N 0.20913 0.56859 0.57812 0.0
C1412 C 0.14423 0.6111 0.51965 0.0
C1413 C 0.18808 0.58089 0.55755 0.0
N1414 N 0.18704 0.65653 0.51831 0.0
N1415 N 0.1453 0.5357 0.55996 0.0
H1416 H 0.23319 0.57921 0.58346 0.0
H1417 H 0.2026 0.54932 0.59187 0.0
H1418 H 0.12165 0.52373 0.55519 0.0
H1419 H 0.16034 0.52164 0.57071 0.0
H1420 H 0.17217 0.671 0.50805 0.0
H1421 H 0.21057 0.6686 0.52396 0.0
H1422 H 0.12929 0.64453 0.48775 0.0
H1423 H 0.09821 0.61667 0.49856 0.0
C1424 C 0.71938 0.93245 0.7917 0.0
C1425 C 0.69477 0.92711 0.76479 0.0
C1426 C 0.70843 0.87483 0.74808 0.0
C1427 C 0.73497 0.88152 0.77301 0.0
N1428 N 0.76774 0.91711 0.81679 0.0
N1429 N 0.66739 0.89541 0.71529 0.0
C1430 C 0.74096 0.91043 0.79445 0.0
C1431 C 0.68961 0.89883 0.74245 0.0
N1432 N 0.72137 0.95801 0.81521 0.0
N1433 N 0.70069 0.84516 0.73047 0.0
H1434 H 0.65281 0.91232 0.71071 0.0
H1435 H 0.66491 0.87711 0.69594 0.0
H1436 H 0.71378 0.82681 0.73383 0.0
H1437 H 0.67981 0.83763 0.71447 0.0
H1438 H 0.73648 0.9614 0.83732 0.0
H1439 H 0.7061 0.97475 0.81391 0.0
H1440 H 0.7755 0.93925 0.83065 0.0
H1441 H 0.78354 0.90106 0.81992 0.0
C1442 C 0.67645 0.93307 0.58005 0.0
C1443 C 0.695 0.93386 0.55245 0.0
C1444 C 0.65342 0.95553 0.51972 0.0
C1445 C 0.63347 0.95166 0.54617 0.0
N1446 N 0.62466 0.93405 0.60047 0.0
N1447 N 0.70178 0.94536 0.49588 0.0
C1448 C 0.64475 0.93991 0.57613 0.0
C1449 C 0.68371 0.9452 0.52233 0.0
N1450 N 0.68905 0.92563 0.61007 0.0
N1451 N 0.64324 0.96862 0.49182 0.0
H1452 H 0.72513 0.94075 0.4977 0.0
H1453 H 0.69352 0.94888 0.47174 0.0
H1454 H 0.62044 0.97416 0.48754 0.0
H1455 H 0.65779 0.97562 0.47337 0.0
H1456 H 0.67856 0.92855 0.63222 0.0
H1457 H 0.71128 0.9186 0.61358 0.0
H1458 H 0.62958 0.92143 0.62071 0.0
H1459 H 0.60211 0.94058 0.59983 0.0
C1460 C 0.34793 0.39316 0.77406 0.0
C1461 C 0.33563 0.40902 0.74769 0.0
C1462 C 0.29279 0.36224 0.73222 0.0
C1463 C 0.30271 0.34825 0.7613 0.0
N1464 N 0.3357 0.35484 0.81405 0.0
N1465 N 0.29409 0.41065 0.70393 0.0
C1466 C 0.32922 0.36494 0.78336 0.0
C1467 C 0.30723 0.39423 0.72757 0.0
N1468 N 0.37773 0.40473 0.79007 0.0
N1469 N 0.27114 0.34446 0.708 0.0
H1470 H 0.30479 0.43351 0.69896 0.0
H1471 H 0.27157 0.40253 0.69098 0.0
H1472 H 0.2611 0.32055 0.70951 0.0
H1473 H 0.26556 0.35235 0.68487 0.0
H1474 H 0.38922 0.39214 0.80699 0.0
H1475 H 0.39224 0.42543 0.78422 0.0
H1476 H 0.35275 0.36799 0.83229 0.0
H1477 H 0.32159 0.33545 0.82291 0.0
C1478 C 0.21125 0.61552 0.24694 0.0
C1479 C 0.18679 0.59837 0.26351 0.0
C1480 C 0.1893 0.64484 0.30383 0.0
C1481 C 0.21104 0.66352 0.28537 0.0
N1482 N 0.23781 0.66771 0.23484 0.0
N1483 N 0.14549 0.60045 0.30061 0.0
C1484 C 0.22084 0.64921 0.25564 0.0
C1485 C 0.17367 0.61416 0.2898 0.0
N1486 N 0.22577 0.59963 0.22355 0.0
N1487 N 0.18463 0.65557 0.33554 0.0
H1488 H 0.13219 0.57873 0.28951 0.0
H1489 H 0.13362 0.61246 0.31784 0.0
H1490 H 0.19764 0.67682 0.34797 0.0
H1491 H 0.17096 0.64141 0.35083 0.0
H1492 H 0.24611 0.61028 0.21331 0.0
H1493 H 0.21895 0.57509 0.21634 0.0
H1494 H 0.24264 0.65879 0.21136 0.0
H1495 H 0.24439 0.69253 0.23933 0.0
C1496 C 0.48452 0.66421 0.47445 0.0
C1497 C 0.51014 0.67715 0.45644 0.0
C1498 C 0.54537 0.6462 0.48568 0.0
C1499 C 0.51844 0.62923 0.49826 0.0
N1500 N 0.4682 0.63204 0.51909 0.0
N1501 N 0.56618 0.6838 0.44742 0.0
C1502 C 0.48976 0.64156 0.49728 0.0
C1503 C 0.54115 0.66945 0.46311 0.0
N1504 N 0.45482 0.67189 0.46815 0.0
N1505 N 0.57491 0.64123 0.49732 0.0
H1506 H 0.56431 0.70215 0.43215 0.0
H1507 H 0.58849 0.67681 0.44856 0.0
H1508 H 0.57749 0.62613 0.51612 0.0
H1509 H 0.59633 0.65409 0.49124 0.0
H1510 H 0.43453 0.66071 0.47806 0.0
H1511 H 0.44987 0.68805 0.45121 0.0
H1512 H 0.44762 0.64176 0.52195 0.0
H1513 H 0.47333 0.6169 0.53704 0.0
C1514 C 0.63304 0.30509 0.74668 0.0
C1515 C 0.62775 0.2937 0.71232 0.0
C1516 C 0.67661 0.27063 0.71659 0.0
C1517 C 0.68239 0.28249 0.75089 0.0
N1518 N 0.67065 0.31754 0.7965 0.0
N1519 N 0.64766 0.27207 0.66271 0.0
C1520 C 0.66191 0.30167 0.76537 0.0
C1521 C 0.65069 0.27877 0.69665 0.0
N1522 N 0.61024 0.31875 0.7615 0.0
N1523 N 0.69453 0.24982 0.70342 0.0
H1524 H 0.62832 0.27634 0.64721 0.0
H1525 H 0.66566 0.26476 0.64962 0.0
H1526 H 0.71453 0.24401 0.71644 0.0
H1527 H 0.68814 0.23643 0.68033 0.0
H1528 H 0.61075 0.32394 0.7872 0.0
H1529 H 0.58982 0.32351 0.74809 0.0
H1530 H 0.65834 0.33434 0.80719 0.0
H1531 H 0.69203 0.3162 0.81052 0.0
C1532 C 0.9791 0.36 0.95257 0.0
C1533 C 0.0034 0.34204 0.94567 0.0
C1534 C 0.04451 0.38471 0.975 0.0
C1535 C 0.02084 0.40419 0.97834 0.0
N1536 N 0.96533 0.40894 0.97873 0.0
N1537 N 0.05873 0.33552 0.95081 0.0
C1538 C 0.9879 0.3913 0.96989 0.0
C1539 C 0.03594 0.35372 0.95747 0.0
N1540 N 0.94793 0.34747 0.94135 0.0
N1541 N 0.0749 0.39559 0.98989 0.0
H1542 H 0.05316 0.31181 0.94011 0.0
H1543 H 0.08326 0.34403 0.95465 0.0
H1544 H 0.08138 0.41777 0.00396 0.0
H1545 H 0.09296 0.3819 0.99108 0.0
H1546 H 0.92896 0.35986 0.94285 0.0
H1547 H 0.94099 0.32433 0.92936 0.0
H1548 H 0.94077 0.4007 0.97506 0.0
H1549 H 0.97125 0.43164 0.99189 0.0
C1550 C 0.95797 0.78515 0.23484 0.0
C1551 C 0.96001 0.76274 0.20738 0.0
C1552 C 0.90392 0.73835 0.20835 0.0
C1553 C 0.90178 0.76071 0.23589 0.0
N1554 N 0.92842 0.79894 0.2811 0.0
N1555 N 0.93857 0.71236 0.17487 0.0
C1556 C 0.92948 0.78195 0.25108 0.0
C1557 C 0.93413 0.73745 0.19642 0.0
N1558 N 0.98229 0.8106 0.24407 0.0
N1559 N 0.87697 0.71954 0.19201 0.0
H1560 H 0.96064 0.71074 0.16605 0.0
H1561 H 0.92139 0.69169 0.16853 0.0
H1562 H 0.8543 0.71934 0.19971 0.0
H1563 H 0.87675 0.70592 0.1693 0.0
H1564 H 0.98047 0.82964 0.26136 0.0
H1565 H 0.00348 0.81409 0.23264 0.0
H1566 H 0.94857 0.81264 0.29497 0.0
H1567 H 0.90786 0.79668 0.29369 0.0
C1568 C 0.51788 0.35681 0.12873 0.0
C1569 C 0.51665 0.32788 0.10798 0.0
C1570 C 0.51733 0.35798 0.05866 0.0
C1571 C 0.52068 0.38686 0.07992 0.0
N1572 N 0.53556 0.41418 0.13524 0.0
N1573 N 0.52389 0.30228 0.05408 0.0
C1574 C 0.52467 0.38638 0.11499 0.0
C1575 C 0.51893 0.32878 0.07312 0.0
N1576 N 0.51065 0.35629 0.16104 0.0
N1577 N 0.51148 0.35815 0.02493 0.0
H1578 H 0.52661 0.28089 0.06397 0.0
H1579 H 0.52868 0.30259 0.02924 0.0
H1580 H 0.51047 0.37912 0.0135 0.0
H1581 H 0.50536 0.33726 0.0086 0.0
H1582 H 0.50825 0.37689 0.17583 0.0
H1583 H 0.50337 0.33524 0.17193 0.0
H1584 H 0.54156 0.41461 0.16085 0.0
H1585 H 0.5422 0.43624 0.12591 0.0
C1586 C 0.93233 0.26518 0.33222 0.0
C1587 C 0.93947 0.28854 0.36029 0.0
C1588 C 0.88391 0.29708 0.35649 0.0
C1589 C 0.8766 0.27295 0.32927 0.0
N1590 N 0.89434 0.24045 0.2854 0.0
N1591 N 0.92526 0.33272 0.39351 0.0
C1592 C 0.90112 0.25933 0.31507 0.0
C1593 C 0.91621 0.30649 0.37061 0.0
N1594 N 0.95449 0.24696 0.32343 0.0
N1595 N 0.85979 0.31011 0.36943 0.0
H1596 H 0.94894 0.34033 0.40379 0.0
H1597 H 0.91012 0.34854 0.40011 0.0
H1598 H 0.83615 0.30466 0.35856 0.0
H1599 H 0.86286 0.32517 0.39158 0.0
H1600 H 0.94933 0.22701 0.30582 0.0
H1601 H 0.97765 0.25023 0.33531 0.0
H1602 H 0.9117 0.23236 0.27192 0.0
H1603 H 0.87144 0.23532 0.27276 0.0
C1604 C 0.96979 0.64522 0.55485 0.0
C1605 C 0.98629 0.65319 0.58725 0.0
C1606 C 0.01074 0.60496 0.58143 0.0
C1607 C 0.99641 0.59841 0.54794 0.0
N1608 N 0.96059 0.60978 0.50303 0.0
N1609 N 0.01711 0.63785 0.63436 0.0
C1610 C 0.97511 0.61768 0.53486 0.0
C1611 C 0.00487 0.63203 0.60156 0.0
N1612 N 0.94842 0.66369 0.54382 0.0
N1613 N 0.03191 0.58667 0.59322 0.0
H1614 H 0.01604 0.65864 0.64943 0.0
H1615 H 0.0267 0.62114 0.64762 0.0
H1616 H 0.03546 0.56558 0.5803 0.0
H1617 H 0.04701 0.59275 0.61526 0.0
H1618 H 0.93432 0.65906 0.5211 0.0
H1619 H 0.94329 0.68319 0.55855 0.0
H1620 H 0.94685 0.62381 0.49034 0.0
H1621 H 0.96251 0.58866 0.48878 0.0
C1622 C 0.62618 0.7472 0.85307 0.0
C1623 C 0.60562 0.76905 0.84471 0.0
C1624 C 0.6364 0.7841 0.79811 0.0
C1625 C 0.65946 0.76635 0.80987 0.0
N1626 N 0.67291 0.72388 0.8404 0.0
N1627 N 0.58868 0.80639 0.8081 0.0
C1628 C 0.65303 0.74536 0.83472 0.0
C1629 C 0.60954 0.78639 0.8163 0.0
N1630 N 0.62044 0.72915 0.87913 0.0
N1631 N 0.6408 0.79887 0.76969 0.0
H1632 H 0.56873 0.80853 0.82084 0.0
H1633 H 0.59147 0.82181 0.78948 0.0
H1634 H 0.66009 0.79627 0.75602 0.0
H1635 H 0.62458 0.8113 0.75821 0.0
H1636 H 0.63563 0.71451 0.88843 0.0
H1637 H 0.60029 0.72918 0.89214 0.0
H1638 H 0.66954 0.70658 0.85711 0.0
H1639 H 0.69202 0.72209 0.82617 0.0
C1640 C 0.46774 0.54537 0.66461 0.0
C1641 C 0.44962 0.51494 0.66904 0.0
C1642 C 0.47662 0.48961 0.62542 0.0
C1643 C 0.49211 0.52032 0.61834 0.0
N1644 N 0.49957 0.57797 0.62864 0.0
N1645 N 0.43475 0.45819 0.65199 0.0
C1646 C 0.4872 0.54838 0.6375 0.0
C1647 C 0.4534 0.48713 0.64886 0.0
N1648 N 0.46625 0.57147 0.68625 0.0
N1649 N 0.48517 0.46262 0.61068 0.0
H1650 H 0.41915 0.45462 0.6704 0.0
H1651 H 0.43321 0.43802 0.63502 0.0
H1652 H 0.50246 0.4635 0.59395 0.0
H1653 H 0.47768 0.43962 0.6174 0.0
H1654 H 0.48154 0.59344 0.68688 0.0
H1655 H 0.45103 0.57064 0.70519 0.0
H1656 H 0.49366 0.59926 0.63884 0.0
H1657 H 0.51407 0.58124 0.60923 0.0
C1658 C 0.75988 0.17532 0.94296 0.0
C1659 C 0.77306 0.19495 0.97274 0.0
C1660 C 0.77331 0.24354 0.9441 0.0
C1661 C 0.76296 0.22365 0.91406 0.0
N1662 N 0.73746 0.17262 0.88543 0.0
N1663 N 0.79233 0.24712 0.00292 0.0
C1664 C 0.7536 0.19006 0.91365 0.0
C1665 C 0.77914 0.229 0.9739 0.0
N1666 N 0.75392 0.14259 0.9426 0.0
N1667 N 0.77729 0.27614 0.94383 0.0
H1668 H 0.7976 0.23726 0.02505 0.0
H1669 H 0.79964 0.27187 0.00512 0.0
H1670 H 0.7732 0.28708 0.92207 0.0
H1671 H 0.78254 0.29244 0.96504 0.0
H1672 H 0.74883 0.12685 0.92093 0.0
H1673 H 0.75514 0.13067 0.96403 0.0
H1674 H 0.72731 0.14844 0.88397 0.0
H1675 H 0.73142 0.18312 0.86393 0.0
C1676 C 0.05347 0.51166 0.17258 0.0
C1677 C 0.07181 0.48665 0.17036 0.0
C1678 C 0.03926 0.46231 0.11896 0.0
C1679 C 0.0245 0.48964 0.11897 0.0
N1680 N 0.00618 0.53136 0.15116 0.0
N1681 N 0.08143 0.43683 0.14358 0.0
C1682 C 0.02799 0.51155 0.14763 0.0
C1683 C 0.06407 0.46112 0.14447 0.0
N1684 N 0.06151 0.53639 0.19739 0.0
N1685 N 0.02871 0.43752 0.09474 0.0
H1686 H 0.09942 0.4353 0.16227 0.0
H1687 H 0.07902 0.4189 0.1239 0.0
H1688 H 0.00972 0.43827 0.07685 0.0
H1689 H 0.03676 0.4157 0.09373 0.0
H1690 H 0.05133 0.55703 0.19806 0.0
H1691 H 0.08002 0.53744 0.21627 0.0
H1692 H 0.00583 0.54678 0.17249 0.0
H1693 H 0.98593 0.52905 0.13411 0.0
C1694 C 0.75953 0.85873 0.43117 0.0
C1695 C 0.77321 0.84565 0.45899 0.0
C1696 C 0.77651 0.7968 0.42353 0.0
C1697 C 0.76316 0.81008 0.39578 0.0
N1698 N 0.74956 0.85639 0.37104 0.0
N1699 N 0.80206 0.80619 0.48032 0.0
C1700 C 0.75743 0.84206 0.3989 0.0
C1701 C 0.78392 0.8158 0.45479 0.0
N1702 N 0.74633 0.88579 0.43578 0.0
N1703 N 0.78156 0.76584 0.42009 0.0
H1704 H 0.80867 0.81995 0.50324 0.0
H1705 H 0.81307 0.78615 0.47787 0.0
H1706 H 0.77865 0.75222 0.397 0.0
H1707 H 0.78733 0.75328 0.44014 0.0
H1708 H 0.73274 0.89425 0.41696 0.0
H1709 H 0.74625 0.8983 0.45906 0.0
H1710 H 0.74861 0.88075 0.37147 0.0
H1711 H 0.74685 0.8447 0.34697 0.0
C1712 C 0.46615 0.52607 0.84823 0.0
C1713 C 0.43701 0.504 0.83971 0.0
C1714 C 0.43826 0.48867 0.89683 0.0
C1715 C 0.46436 0.51407 0.90647 0.0
N1716 N 0.50387 0.55725 0.89227 0.0
N1717 N 0.39434 0.46484 0.85546 0.0
C1718 C 0.47901 0.53245 0.88231 0.0
C1719 C 0.42293 0.48521 0.86383 0.0
N1720 N 0.48099 0.54153 0.82387 0.0
N1721 N 0.42857 0.46762 0.91933 0.0
H1722 H 0.38271 0.46108 0.83134 0.0
H1723 H 0.38104 0.45315 0.87271 0.0
H1724 H 0.43981 0.46946 0.94356 0.0
H1725 H 0.41163 0.44677 0.91324 0.0
H1726 H 0.5038 0.55545 0.82765 0.0
H1727 H 0.47134 0.53897 0.79901 0.0
H1728 H 0.51331 0.57401 0.87677 0.0
H1729 H 0.51434 0.56224 0.91679 0.0
C1730 C 0.83138 0.22537 0.15746 0.0
C1731 C 0.80483 0.21499 0.13312 0.0
C1732 C 0.77689 0.25565 0.15735 0.0
C1733 C 0.79989 0.26095 0.18517 0.0
N1734 N 0.85214 0.25788 0.20994 0.0
N1735 N 0.7521 0.22007 0.10903 0.0
C1736 C 0.82848 0.24828 0.18438 0.0
C1737 C 0.77771 0.23047 0.13242 0.0
N1738 N 0.85863 0.21267 0.1551 0.0
N1739 N 0.75439 0.27492 0.15515 0.0
H1740 H 0.75173 0.2019 0.08995 0.0
H1741 H 0.73029 0.22797 0.10977 0.0
H1742 H 0.75494 0.29433 0.17297 0.0
H1743 H 0.7379 0.27403 0.1344 0.0
H1744 H 0.87933 0.21946 0.17145 0.0
H1745 H 0.8609 0.19561 0.13572 0.0
H1746 H 0.87366 0.2494 0.21215 0.0
H1747 H 0.85021 0.27546 0.22896 0.0
C1748 C 0.10933 0.53621 0.35743 0.0
C1749 C 0.09427 0.51354 0.33064 0.0
C1750 C 0.04728 0.49967 0.36111 0.0
C1751 C 0.063 0.52154 0.38811 0.0
N1752 N 0.10368 0.56701 0.40911 0.0
N1753 N 0.04845 0.47563 0.3045 0.0
C1754 C 0.09237 0.54191 0.38529 0.0
C1755 C 0.06284 0.49606 0.33156 0.0
N1756 N 0.14023 0.55145 0.35678 0.0
N1757 N 0.01774 0.48235 0.36422 0.0
H1758 H 0.05979 0.47146 0.28308 0.0
H1759 H 0.02509 0.46309 0.30256 0.0
H1760 H 0.00527 0.48656 0.38482 0.0
H1761 H 0.00532 0.46417 0.34681 0.0
H1762 H 0.15373 0.56547 0.37712 0.0
H1763 H 0.15344 0.5484 0.33659 0.0
H1764 H 0.12327 0.58476 0.40692 0.0
H1765 H 0.09154 0.57201 0.42972 0.0
C1766 C 0.79777 0.83424 0.65667 0.0
C1767 C 0.77293 0.83142 0.6305 0.0
C1768 C 0.74108 0.788 0.65657 0.0
C1769 C 0.76671 0.78983 0.68207 0.0
N1770 N 0.82302 0.80793 0.69958 0.0
N1771 N 0.72385 0.80131 0.60139 0.0
C1772 C 0.79612 0.81097 0.68004 0.0
C1773 C 0.74563 0.80672 0.629 0.0
N1774 N 0.82296 0.85929 0.65948 0.0
N1775 N 0.71177 0.77018 0.65957 0.0
H1776 H 0.72546 0.81547 0.58151 0.0
H1777 H 0.70556 0.78135 0.5971 0.0
H1778 H 0.70702 0.75657 0.6794 0.0
H1779 H 0.69135 0.7709 0.64374 0.0
H1780 H 0.83967 0.86476 0.68042 0.0
H1781 H 0.82588 0.87608 0.64207 0.0
H1782 H 0.84574 0.82056 0.69703 0.0
H1783 H 0.82331 0.79002 0.71561 0.0
C1784 C 0.66923 0.43866 0.56076 0.0
C1785 C 0.6879 0.44185 0.53329 0.0
C1786 C 0.67754 0.49625 0.52928 0.0
C1787 C 0.65419 0.49076 0.552 0.0
N1788 N 0.63876 0.46431 0.60003 0.0
N1789 N 0.71069 0.47347 0.4914 0.0
C1790 C 0.65327 0.46418 0.57118 0.0
C1791 C 0.69269 0.47079 0.51784 0.0
N1792 N 0.66611 0.4109 0.57603 0.0
N1793 N 0.68541 0.5263 0.51936 0.0
H1794 H 0.72274 0.45554 0.4826 0.0
H1795 H 0.71199 0.49252 0.47666 0.0
H1796 H 0.6753 0.54546 0.52893 0.0
H1797 H 0.70398 0.533 0.50479 0.0
H1798 H 0.65071 0.40556 0.59423 0.0
H1799 H 0.67794 0.39211 0.56923 0.0
H1800 H 0.63764 0.44615 0.61584 0.0
H1801 H 0.63126 0.4847 0.61046 0.0
C1802 C 0.1639 0.06858 0.52738 0.0
C1803 C 0.16674 0.08393 0.49751 0.0
C1804 C 0.11082 0.06054 0.47788 0.0
C1805 C 0.10737 0.04685 0.50851 0.0
N1806 N 0.1317 0.03141 0.55908 0.0
N1807 N 0.14293 0.09683 0.44531 0.0
C1808 C 0.13431 0.04893 0.53227 0.0
C1809 C 0.14021 0.08043 0.47295 0.0
N1810 N 0.18896 0.07443 0.55191 0.0
N1811 N 0.0864 0.0529 0.45282 0.0
H1812 H 0.16444 0.11034 0.44009 0.0
H1813 H 0.12362 0.09867 0.42844 0.0
H1814 H 0.06517 0.03746 0.4555 0.0
H1815 H 0.0881 0.05925 0.42865 0.0
H1816 H 0.18758 0.06719 0.57578 0.0
H1817 H 0.21096 0.0886 0.54934 0.0
H1818 H 0.15085 0.02919 0.57595 0.0
H1819 H 0.11047 0.01667 0.56296 0.0
C1820 C 0.18343 0.92483 0.76319 0.0
C1821 C 0.19156 0.94619 0.79284 0.0
C1822 C 0.23244 0.91536 0.81177 0.0
C1823 C 0.22261 0.89283 0.78352 0.0
N1824 N 0.19583 0.88022 0.72808 0.0
N1825 N 0.22165 0.96074 0.84688 0.0
C1826 C 0.20021 0.89884 0.75789 0.0
C1827 C 0.2159 0.9415 0.81734 0.0
N1828 N 0.15888 0.9287 0.74065 0.0
N1829 N 0.25857 0.91229 0.83244 0.0
H1830 H 0.20967 0.97975 0.85219 0.0
H1831 H 0.23647 0.95654 0.86725 0.0
H1832 H 0.27152 0.89388 0.82785 0.0
H1833 H 0.26932 0.9294 0.85181 0.0
H1834 H 0.14914 0.91201 0.72055 0.0
H1835 H 0.14659 0.94784 0.74305 0.0
H1836 H 0.18253 0.88508 0.70692 0.0
H1837 H 0.2082 0.86144 0.72348 0.0
C1838 C 0.34501 0.97159 0.01119 0.0
C1839 C 0.33737 0.94248 0.98994 0.0
C1840 C 0.39316 0.94644 0.97843 0.0
C1841 C 0.40149 0.97141 0.00466 0.0
N1842 N 0.38616 0.01565 0.03674 0.0
N1843 N 0.35197 0.90423 0.94945 0.0
C1844 C 0.37759 0.98684 0.01781 0.0
C1845 C 0.36074 0.93105 0.9716 0.0
N1846 N 0.32144 0.983 0.02698 0.0
N1847 N 0.41665 0.93761 0.96058 0.0
H1848 H 0.32813 0.89315 0.94375 0.0
H1849 H 0.36796 0.89255 0.93728 0.0
H1850 H 0.44035 0.94947 0.96533 0.0
H1851 H 0.41259 0.92074 0.9398 0.0
H1852 H 0.32558 0.00169 0.04603 0.0
H1853 H 0.29727 0.97309 0.02144 0.0
H1854 H 0.37 0.02931 0.04563 0.0
H1855 H 0.40976 0.02754 0.04091 0.0
C1856 C 0.83315 0.60843 0.7404 0.0
C1857 C 0.83845 0.59919 0.77312 0.0
C1858 C 0.78697 0.61239 0.78614 0.0
C1859 C 0.78521 0.62859 0.75695 0.0
N1860 N 0.80071 0.63351 0.70142 0.0
N1861 N 0.82122 0.59365 0.82807 0.0
C1862 C 0.80653 0.62389 0.73241 0.0
C1863 C 0.81562 0.60159 0.79628 0.0
N1864 N 0.8534 0.6021 0.71714 0.0
N1865 N 0.76051 0.60523 0.80283 0.0
H1866 H 0.84157 0.58477 0.83639 0.0
H1867 H 0.80689 0.59843 0.8469 0.0
H1868 H 0.73797 0.60867 0.79318 0.0
H1869 H 0.7599 0.59157 0.82309 0.0
H1870 H 0.85016 0.60614 0.69217 0.0
H1871 H 0.87345 0.59165 0.72267 0.0
H1872 H 0.81678 0.63468 0.68338 0.0
H1873 H 0.77874 0.63952 0.69337 0.0
C1874 C 0.8346 0.57112 0.03759 0.0
C1875 C 0.83335 0.58744 0.00832 0.0
C1876 C 0.88642 0.57603 -0.00316 0.0
C1877 C 0.88779 0.56032 0.02654 0.0
N1878 N 0.86158 0.53704 0.07138 0.0
N1879 N 0.85589 0.60381 0.95852 0.0
C1880 C 0.86133 0.55612 0.04575 0.0
C1881 C 0.85865 0.58929 0.98737 0.0
N1882 N 0.81103 0.57148 0.05858 0.0
N1883 N 0.91195 0.57864 0.97815 0.0
H1884 H 0.83564 0.61312 0.95081 0.0
H1885 H 0.87285 0.6061 0.94145 0.0
H1886 H 0.93226 0.56875 0.98404 0.0
H1887 H 0.91363 0.59053 0.95677 0.0
H1888 H 0.81235 0.56367 0.0823 0.0
H1889 H 0.79076 0.58165 0.0534 0.0
H1890 H 0.84193 0.53014 0.08444 0.0
H1891 H 0.8808 0.52568 0.07784 0.0
C1892 C 0.20076 0.14241 0.83019 0.0
C1893 C 0.20265 0.11443 0.80935 0.0
C1894 C 0.24262 0.14564 0.77867 0.0
C1895 C 0.23886 0.17411 0.79781 0.0
N1896 N 0.22271 0.19826 0.84799 0.0
N1897 N 0.22206 0.08945 0.76107 0.0
C1898 C 0.22012 0.17207 0.82529 0.0
C1899 C 0.22311 0.11592 0.78323 0.0
N1900 N 0.17983 0.14074 0.85414 0.0
N1901 N 0.26527 0.14678 0.75661 0.0
H1902 H 0.20806 0.06721 0.76305 0.0
H1903 H 0.23295 0.08992 0.73897 0.0
H1904 H 0.2799 0.1679 0.75249 0.0
H1905 H 0.2719 0.12656 0.74477 0.0
H1906 H 0.17405 0.16076 0.86728 0.0
H1907 H 0.16674 0.11914 0.85976 0.0
H1908 H 0.2122 0.19819 0.87032 0.0
H1909 H 0.2383 0.21951 0.84589 0.0
C1910 C 0.31527 0.93016 0.28375 0.0
C1911 C 0.34174 0.93764 0.30877 0.0
C1912 C 0.33258 0.88213 0.32276 0.0
C1913 C 0.31065 0.87382 0.29403 0.0
N1914 N 0.27165 0.8897 0.25579 0.0
N1915 N 0.3756 0.92139 0.35274 0.0
C1916 C 0.29885 0.8979 0.27731 0.0
C1917 C 0.35001 0.91393 0.32898 0.0
N1918 N 0.30766 0.95319 0.26434 0.0
N1919 N 0.33559 0.85973 0.34452 0.0
H1920 H 0.38863 0.94459 0.35813 0.0
H1921 H 0.38504 0.90439 0.36572 0.0
H1922 H 0.3212 0.83701 0.34081 0.0
H1923 H 0.3494 0.86457 0.36748 0.0
H1924 H 0.29138 0.94847 0.24308 0.0
H1925 H 0.31881 0.97716 0.26844 0.0
H1926 H 0.25987 0.90614 0.24447 0.0
H1927 H 0.25929 0.86614 0.25163 0.0
C1928 C 0.55454 0.39617 0.61726 0.0
C1929 C 0.53635 0.36603 0.60394 0.0
C1930 C 0.5242 0.38792 0.5509 0.0
C1931 C 0.54157 0.41819 0.56472 0.0
N1932 N 0.56511 0.45338 0.61387 0.0
N1933 N 0.49753 0.33507 0.56143 0.0
C1934 C 0.55401 0.42305 0.59885 0.0
C1935 C 0.51923 0.36243 0.57169 0.0
N1936 N 0.57411 0.39885 0.64637 0.0
N1937 N 0.51299 0.38344 0.51786 0.0
H1938 H 0.4927 0.31633 0.5764 0.0
H1939 H 0.48218 0.33217 0.53951 0.0
H1940 H 0.51507 0.40209 0.50248 0.0
H1941 H 0.50326 0.36104 0.50533 0.0
H1942 H 0.5907 0.41946 0.65502 0.0
H1943 H 0.57625 0.37966 0.66035 0.0
H1944 H 0.57116 0.45844 0.63952 0.0
H1945 H 0.56518 0.47386 0.60142 0.0
C1946 C 0.39816 0.76625 0.35208 0.0
C1947 C 0.40656 0.73561 0.34591 0.0
C1948 C 0.35744 0.71867 0.308 0.0
C1949 C 0.35199 0.75091 0.31048 0.0
N1950 N 0.37371 0.80666 0.32699 0.0
N1951 N 0.39625 0.68329 0.31513 0.0
C1952 C 0.37421 0.77508 0.33034 0.0
C1953 C 0.38689 0.71198 0.32283 0.0
N1954 N 0.41269 0.78696 0.37876 0.0
N1955 N 0.33412 0.6943 0.29314 0.0
H1956 H 0.41691 0.67724 0.32684 0.0
H1957 H 0.38457 0.66649 0.29585 0.0
H1958 H 0.31188 0.69792 0.28292 0.0
H1959 H 0.33578 0.67016 0.29367 0.0
H1960 H 0.40539 0.80867 0.38536 0.0
H1961 H 0.42903 0.78076 0.39662 0.0
H1962 H 0.39114 0.82522 0.33907 0.0
H1963 H 0.35843 0.81382 0.30872 0.0
C1964 C 0.05439 0.66347 0.10832 0.0
C1965 C 0.0333 0.68388 0.09769 0.0
C1966 C 0.00295 0.64047 0.05809 0.0
C1967 C 0.02036 0.61877 0.07318 0.0
N1968 N 0.0639 0.6089 0.11062 0.0
N1969 N 0.98744 0.69292 0.06301 0.0
C1970 C 0.04678 0.63018 0.09742 0.0
C1971 C 0.00798 0.67292 0.07216 0.0
N1972 N 0.08173 0.67615 0.12861 0.0
N1973 N 0.98122 0.63005 0.03088 0.0
H1974 H 0.99078 0.71706 0.0722 0.0
H1975 H 0.96602 0.68531 0.04788 0.0
H1976 H 0.97616 0.6064 0.0202 0.0
H1977 H 0.97014 0.64533 0.01689 0.0
H1978 H 0.09953 0.66321 0.13538 0.0
H1979 H 0.08794 0.70061 0.13651 0.0
H1980 H 0.08088 0.61477 0.13126 0.0
H1981 H 0.06031 0.58474 0.10137 0.0
C1982 C 0.09294 0.23328 0.84229 0.0
C1983 C 0.07709 0.25994 0.83992 0.0
C1984 C 0.12575 0.29184 0.82306 0.0
C1985 C 0.14119 0.26476 0.82435 0.0
N1986 N 0.1363 0.20742 0.82536 0.0
N1987 N 0.07549 0.31182 0.82071 0.0
C1988 C 0.12371 0.23474 0.83083 0.0
C1989 C 0.0926 0.28834 0.82786 0.0
N1990 N 0.07962 0.2073 0.85734 0.0
N1991 N 0.14301 0.32129 0.81933 0.0
H1992 H 0.05117 0.3098 0.82385 0.0
H1993 H 0.08451 0.3317 0.80876 0.0
H1994 H 0.16732 0.32506 0.81608 0.0
H1995 H 0.13383 0.34248 0.82204 0.0
H1996 H 0.09201 0.1891 0.86349 0.0
H1997 H 0.05721 0.20512 0.86633 0.0
H1998 H 0.12348 0.1845 0.8269 0.0
H1999 H 0.15824 0.20734 0.81567 0.0
C2000 C 0.4926 0.67823 0.95026 0.0
C2001 C 0.52089 0.70147 0.95822 0.0
C2002 C 0.54351 0.66511 0.99351 0.0
C2003 C 0.51785 0.64014 0.98067 0.0
N2004 N 0.46926 0.62183 0.94385 0.0
N2005 N 0.57493 0.7163 0.98515 0.0
C2006 C 0.49243 0.64642 0.9586 0.0
C2007 C 0.54667 0.695 0.9797 0.0
N2008 N 0.46581 0.68671 0.93502 0.0
N2009 N 0.56474 0.66024 0.01909 0.0
H2010 H 0.57858 0.73837 0.97532 0.0
H2011 H 0.59569 0.71102 -0.00272 0.0
H2012 H 0.56284 0.63864 0.02996 0.0
H2013 H 0.58216 0.67847 0.03166 0.0
H2014 H 0.44359 0.67157 0.93137 0.0
H2015 H 0.46503 0.71006 0.92917 0.0
H2016 H 0.45242 0.62458 0.92455 0.0
H2017 H 0.46836 0.59807 0.94888 0.0
C2018 C 0.10296 0.73734 0.70572 0.0
C2019 C 0.09006 0.75666 0.68306 0.0
C2020 C 0.14264 0.79016 0.68239 0.0
C2021 C 0.15611 0.76955 0.7032 0.0
N2022 N 0.15066 0.72226 0.73282 0.0
N2023 N 0.09694 0.79955 0.64728 0.0
C2024 C 0.13666 0.74289 0.71464 0.0
C2025 C 0.10969 0.78261 0.6708 0.0
N2026 N 0.08291 0.71378 0.71853 0.0
N2027 N 0.16114 0.81761 0.67461 0.0
H2028 H 0.07261 0.79598 0.63924 0.0
H2029 H 0.11058 0.81586 0.63402 0.0
H2030 H 0.18575 0.82339 0.68099 0.0
H2031 H 0.15193 0.83591 0.66372 0.0
H2032 H 0.09009 0.70042 0.73728 0.0
H2033 H 0.05826 0.70872 0.71167 0.0
H2034 H 0.13848 0.70079 0.73956 0.0
H2035 H 0.17527 0.72557 0.73959 0.0
C2036 C 0.0282 0.40603 0.44863 0.0
C2037 C 0.0373 0.38337 0.46972 0.0
C2038 C 0.0431 0.42357 0.51803 0.0
C2039 C 0.02935 0.44443 0.4977 0.0
N2040 N 0.0025 0.45215 0.44454 0.0
N2041 N 0.051 0.36913 0.52487 0.0
C2042 C 0.0206 0.43504 0.46312 0.0
C2043 C 0.04412 0.39173 0.50458 0.0
N2044 N 0.02613 0.3997 0.4147 0.0
N2045 N 0.05597 0.43451 0.54988 0.0
H2046 H 0.05343 0.34607 0.51565 0.0
H2047 H 0.05238 0.37262 0.55081 0.0
H2048 H 0.05652 0.458 0.56011 0.0
H2049 H 0.06884 0.42141 0.56496 0.0
H2050 H 0.02324 0.41701 0.39842 0.0
H2051 H 0.03004 0.37818 0.40282 0.0
H2052 H 0.99192 0.44379 0.42053 0.0
H2053 H 0.99504 0.47292 0.45404 0.0
C2054 C 0.41559 0.23037 0.22529 0.0
C2055 C 0.42832 0.25294 0.20377 0.0
C2056 C 0.38335 0.28145 0.2098 0.0
C2057 C 0.3688 0.25659 0.22772 0.0
N2058 N 0.37793 0.21755 0.26591 0.0
N2059 N 0.42748 0.30234 0.17867 0.0
C2060 C 0.38706 0.23419 0.23982 0.0
C2061 C 0.41332 0.27954 0.19734 0.0
N2062 N 0.42962 0.20425 0.23024 0.0
N2063 N 0.36836 0.30704 0.20557 0.0
H2064 H 0.45006 0.30225 0.17053 0.0
H2065 H 0.41721 0.32133 0.17088 0.0
H2066 H 0.3477 0.30946 0.21693 0.0
H2067 H 0.377 0.32669 0.1932 0.0
H2068 H 0.41909 0.18486 0.24207 0.0
H2069 H 0.45073 0.20069 0.22032 0.0
H2070 H 0.39127 0.20211 0.27694 0.0
H2071 H 0.35976 0.22289 0.27992 0.0
C2072 C 0.58424 0.49257 0.40061 0.0
C2073 C 0.60277 0.52158 0.39278 0.0
C2074 C 0.58676 0.55065 0.44187 0.0
C2075 C 0.56676 0.52207 0.44907 0.0
N2076 N 0.54572 0.46567 0.43479 0.0
N2077 N 0.61756 0.57913 0.40232 0.0
C2078 C 0.56507 0.49303 0.42806 0.0
C2079 C 0.60313 0.55078 0.4126 0.0
N2080 N 0.58634 0.46432 0.38272 0.0
N2081 N 0.59027 0.57797 0.46312 0.0
H2082 H 0.62954 0.5805 0.38089 0.0
H2083 H 0.61541 0.60163 0.41325 0.0
H2084 H 0.57574 0.58049 0.48216 0.0
H2085 H 0.6085 0.59761 0.46279 0.0
H2086 H 0.57614 0.44176 0.38867 0.0
H2087 H 0.60032 0.46312 0.36282 0.0
H2088 H 0.54 0.44483 0.41845 0.0
H2089 H 0.5342 0.46383 0.45646 0.0
C2090 C 0.26737 0.85982 0.12401 0.0
C2091 C 0.26183 0.83765 0.09503 0.0
C2092 C 0.26123 0.79302 0.12961 0.0
C2093 C 0.26953 0.81558 0.15824 0.0
N2094 N 0.28887 0.87002 0.18187 0.0
N2095 N 0.2585 0.78373 0.06929 0.0
C2096 C 0.27513 0.84889 0.15517 0.0
C2097 C 0.26016 0.80433 0.09748 0.0
N2098 N 0.26387 0.89104 0.122 0.0
N2099 N 0.25318 0.76103 0.13315 0.0
H2100 H 0.25743 0.79123 0.04535 0.0
H2101 H 0.26068 0.75971 0.06972 0.0
H2102 H 0.25412 0.75183 0.15628 0.0
H2103 H 0.24349 0.74385 0.11341 0.0
H2104 H 0.26449 0.9073 0.14294 0.0
H2105 H 0.25696 0.89986 0.09969 0.0
H2106 H 0.29597 0.89452 0.18034 0.0
H2107 H 0.29656 0.86239 0.20455 0.0
C2108 C 0.94812 0.5171 0.90455 0.0
C2109 C 0.95895 0.54703 0.89277 0.0
C2110 C 0.0018 0.55877 0.93885 0.0
C2111 C 0.99353 0.52675 0.94736 0.0
N2112 N 0.96492 0.47292 0.9303 0.0
N2113 N -0.00137 0.59509 0.89581 0.0
C2114 C 0.9684 0.50518 0.9279 0.0
C2115 C 0.9867 0.5675 0.90895 0.0
N2116 N 0.91845 0.49994 0.89364 0.0
N2117 N 0.02256 0.58123 0.95985 0.0
H2118 H 0.98723 0.6027 0.87481 0.0
H2119 H 0.02072 0.60918 0.90453 0.0
H2120 H 0.03348 0.57627 0.98238 0.0
H2121 H 0.02671 0.60554 0.95629 0.0
H2122 H 0.90862 0.47929 0.90402 0.0
H2123 H 0.90247 0.50798 0.87677 0.0
H2124 H 0.94833 0.45607 0.9147 0.0
H2125 H 0.98145 0.4629 0.94464 0.0
C2126 C 0.23846 0.17684 0.60977 0.0
C2127 C 0.26098 0.18865 0.58778 0.0
C2128 C 0.29119 0.22599 0.63374 0.0
C2129 C 0.27135 0.21092 0.65647 0.0
N2130 N 0.22676 0.17137 0.66706 0.0
N2131 N 0.31043 0.2225 0.57896 0.0
C2132 C 0.24496 0.18633 0.64469 0.0
C2133 C 0.28753 0.21311 0.59965 0.0
N2134 N 0.2106 0.15697 0.59706 0.0
N2135 N 0.31379 0.25242 0.64489 0.0
H2136 H 0.30866 0.21377 0.55385 0.0
H2137 H 0.33232 0.23717 0.58711 0.0
H2138 H 0.31726 0.26213 0.66973 0.0
H2139 H 0.32707 0.2664 0.62922 0.0
H2140 H 0.19183 0.14969 0.61119 0.0
H2141 H 0.20501 0.14998 0.57157 0.0
H2142 H 0.20967 0.15066 0.66069 0.0
H2143 H 0.22988 0.17888 0.69257 0.0
C2144 C 0.60974 0.50032 0.18847 0.0
C2145 C 0.60528 0.52501 0.2125 0.0
C2146 C 0.56839 0.54337 0.17149 0.0
C2147 C 0.57651 0.52165 0.14629 0.0
N2148 N 0.61021 0.48344 0.13013 0.0
N2149 N 0.58404 0.57324 0.22577 0.0
C2150 C 0.5986 0.50115 0.15457 0.0
C2151 C 0.58553 0.54741 0.20378 0.0
N2152 N 0.62349 0.47526 0.19814 0.0
N2153 N 0.5434 0.5591 0.16511 0.0
H2154 H 0.59657 0.57737 0.24948 0.0
H2155 H 0.57271 0.5921 0.21938 0.0
H2156 H 0.52951 0.556 0.14217 0.0
H2157 H 0.53437 0.57264 0.18355 0.0
H2158 H 0.62412 0.45488 0.18212 0.0
H2159 H 0.63108 0.47307 0.22292 0.0
H2160 H 0.62902 0.47109 0.13487 0.0
H2161 H 0.60358 0.48348 0.10478 0.0
C2162 C 0.23507 0.79105 0.91158 0.0
C2163 C 0.24769 0.82426 0.91816 0.0
C2164 C 0.27408 0.82322 0.86661 0.0
C2165 C 0.25959 0.79048 0.85881 0.0
N2166 N 0.22197 0.74459 0.87052 0.0
N2167 N 0.27564 0.87336 0.90062 0.0
C2168 C 0.23891 0.77469 0.8804 0.0
C2169 C 0.26588 0.84082 0.89507 0.0
N2170 N 0.21989 0.77507 0.93537 0.0
N2171 N 0.29686 0.83703 0.84772 0.0
H2172 H 0.27017 0.88725 0.92107 0.0
H2173 H 0.2879 0.88724 0.88425 0.0
H2174 H 0.30378 0.82503 0.82674 0.0
H2175 H 0.31117 0.85942 0.8543 0.0
H2176 H 0.21358 0.75019 0.93381 0.0
H2177 H 0.21526 0.78667 0.95777 0.0
H2178 H 0.20408 0.7331 0.88361 0.0
H2179 H 0.22382 0.73204 0.84767 0.0
C2180 C 0.95352 0.56503 0.69264 0.0
C2181 C 0.96061 0.54652 0.71894 0.0
C2182 C 0.98071 0.5087 0.68068 0.0
C2183 C 0.97135 0.52574 0.65399 0.0
N2184 N 0.95519 0.57315 0.63403 0.0
N2185 N 0.98868 0.50703 0.74072 0.0
C2186 C 0.96021 0.55519 0.6599 0.0
C2187 C 0.97699 0.52045 0.71374 0.0
N2188 N 0.93824 0.59046 0.6986 0.0
N2189 N 0.99197 0.48073 0.67416 0.0
H2190 H 0.98644 0.51582 0.76517 0.0
H2191 H 0.00279 0.48931 0.73924 0.0
H2192 H 0.99623 0.4723 0.65024 0.0
H2193 H 0.99588 0.46516 0.69201 0.0
H2194 H 0.92842 0.60246 0.68001 0.0
H2195 H 0.93443 0.59918 0.72252 0.0
H2196 H 0.95019 0.5963 0.63703 0.0
H2197 H 0.95785 0.56572 0.60934 0.0
C2198 C 0.22997 0.19342 0.38543 0.0
C2199 C 0.25885 0.18734 0.40183 0.0
C2200 C 0.28909 0.21433 0.35955 0.0
C2201 C 0.25992 0.21768 0.34149 0.0
N2202 N 0.20208 0.20595 0.33476 0.0
N2203 N 0.31541 0.18717 0.4015 0.0
C2204 C 0.23021 0.20583 0.35368 0.0
C2205 C 0.28834 0.19664 0.38816 0.0
N2206 N 0.20244 0.18876 0.40091 0.0
N2207 N 0.31759 0.22817 0.34943 0.0
H2208 H 0.31577 0.17392 0.42208 0.0
H2209 H 0.33681 0.18991 0.39047 0.0
H2210 H 0.31914 0.2401 0.32793 0.0
H2211 H 0.33955 0.22968 0.36345 0.0
H2212 H 0.18148 0.19626 0.39216 0.0
H2213 H 0.20127 0.18014 0.42428 0.0
H2214 H 0.17992 0.19439 0.34047 0.0
H2215 H 0.20099 0.21533 0.31181 0.0
C2216 C 0.37191 0.5768 0.56004 0.0
C2217 C 0.36255 0.59596 0.53521 0.0
C2218 C 0.40159 0.57888 0.49955 0.0
C2219 C 0.41111 0.55998 0.5247 0.0
N2220 N 0.39859 0.53266 0.57303 0.0
N2221 N 0.36152 0.60822 0.47791 0.0
C2222 C 0.3938 0.55613 0.55295 0.0
C2223 C 0.37519 0.59477 0.50382 0.0
N2224 N 0.36152 0.57976 0.59108 0.0
N2225 N 0.41874 0.58335 0.47271 0.0
H2226 H 0.34187 0.6197 0.48 0.0
H2227 H 0.3676 0.60534 0.45355 0.0
H2228 H 0.4377 0.57166 0.46793 0.0
H2229 H 0.41548 0.60026 0.45611 0.0
H2230 H 0.37046 0.56898 0.6112 0.0
H2231 H 0.34609 0.59531 0.59772 0.0
H2232 H 0.38484 0.52687 0.59252 0.0
H2233 H 0.41415 0.51675 0.56788 0.0
C2234 C 0.87615 0.9644 0.52346 0.0
C2235 C 0.86998 0.95155 0.55419 0.0
C2236 C 0.92638 0.97126 0.5758 0.0
C2237 C 0.93199 0.98514 0.54555 0.0
N2238 N 0.91035 0.00172 0.49415 0.0
N2239 N 0.88753 0.94812 0.61182 0.0
C2240 C 0.90622 0.984 0.52063 0.0
C2241 C 0.89468 0.95647 0.58102 0.0
N2242 N 0.85421 0.95615 0.49608 0.0
N2243 N 0.95145 0.97223 0.59956 0.0
H2244 H 0.86454 0.93786 0.61663 0.0
H2245 H 0.90352 0.95381 0.63327 0.0
H2246 H 0.97438 0.98483 0.59764 0.0
H2247 H 0.95 0.95941 0.62039 0.0
H2248 H 0.85909 0.96144 0.47213 0.0
H2249 H 0.83219 0.94128 0.49639 0.0
H2250 H 0.89158 0.0046 0.47704 0.0
H2251 H 0.93207 0.01596 0.49094 0.0
C2252 C 0.81733 0.09035 0.26399 0.0
C2253 C 0.84588 0.08987 0.24822 0.0
C2254 C 0.84697 0.14594 0.23655 0.0
C2255 C 0.81702 0.14565 0.24987 0.0
N2256 N 0.77149 0.11627 0.27225 0.0
N2257 N 0.88601 0.1157 0.21597 0.0
C2258 C 0.80166 0.11751 0.26264 0.0
C2259 C 0.86021 0.11731 0.23363 0.0
N2260 N 0.80586 0.06534 0.28138 0.0
N2261 N 0.86349 0.17401 0.22784 0.0
H2262 H 0.89703 0.09562 0.21415 0.0
H2263 H 0.89506 0.13321 0.20104 0.0
H2264 H 0.85462 0.19538 0.2291 0.0
H2265 H 0.88708 0.17691 0.22198 0.0
H2266 H 0.78735 0.0657 0.29659 0.0
H2267 H 0.81657 0.04508 0.28282 0.0
H2268 H 0.75746 0.0954 0.27825 0.0
H2269 H 0.75934 0.13561 0.27171 0.0
C2270 C 0.67474 0.11889 0.01207 0.0
C2271 C 0.6912 0.10422 0.03692 0.0
C2272 C 0.64043 0.07252 0.04893 0.0
C2273 C 0.62418 0.08696 0.02361 0.0
N2274 N 0.6259 0.11938 0.97725 0.0
N2275 N 0.6911 0.06786 0.07947 0.0
C2276 C 0.64132 0.10901 0.00427 0.0
C2277 C 0.67439 0.08118 0.0555 0.0
N2278 N 0.69075 0.14364 -0.00289 0.0
N2279 N 0.62331 0.05033 0.06627 0.0
H2280 H 0.71604 0.07262 0.08362 0.0
H2281 H 0.68088 0.05225 0.09562 0.0
H2282 H 0.59847 0.04398 0.06279 0.0
H2283 H 0.6332 0.03753 0.08399 0.0
H2284 H 0.67956 0.15836 0.98246 0.0
H2285 H 0.71531 0.15136 0.00121 0.0
H2286 H 0.63769 0.1313 0.95912 0.0
H2287 H 0.60123 0.11409 0.97123 0.0
C2288 C 0.21797 0.43428 0.28688 0.0
C2289 C 0.20023 0.4323 0.25521 0.0
C2290 C 0.2093 0.37747 0.24187 0.0
C2291 C 0.2259 0.37895 0.27435 0.0
N2292 N 0.25326 0.41049 0.32382 0.0
N2293 N 0.18414 0.4059 0.20006 0.0
C2294 C 0.2326 0.40804 0.29554 0.0
C2295 C 0.19781 0.40514 0.2318 0.0
N2296 N 0.21927 0.46053 0.30935 0.0
N2297 N 0.20263 0.34926 0.22152 0.0
H2298 H 0.17493 0.4257 0.1925 0.0
H2299 H 0.18399 0.38831 0.1805 0.0
H2300 H 0.21063 0.32835 0.22714 0.0
H2301 H 0.18767 0.34567 0.19933 0.0
H2302 H 0.22822 0.46177 0.33429 0.0
H2303 H 0.20978 0.48071 0.30356 0.0
H2304 H 0.26148 0.43179 0.33903 0.0
H2305 H 0.26461 0.39166 0.33045 0.0
C2306 C 0.18287 0.44946 0.08549 0.0
C2307 C 0.19763 0.44139 0.05652 0.0
C2308 C 0.15477 0.45835 0.02131 0.0
C2309 C 0.14034 0.46717 0.05037 0.0
N2310 N 0.14494 0.47874 0.11016 0.0
N2311 N 0.20244 0.4459 -0.00196 0.0
C2312 C 0.15583 0.46513 0.0825 0.0
C2313 C 0.18504 0.44827 0.02479 0.0
N2314 N 0.19354 0.44065 0.1156 0.0
N2315 N 0.13889 0.45771 0.99035 0.0
H2316 H 0.2249 0.4391 -0.00025 0.0
H2317 H 0.19615 0.45373 0.97506 0.0
H2318 H 0.11695 0.46518 0.98631 0.0
H2319 H 0.14629 0.44741 0.96871 0.0
H2320 H 0.18146 0.44254 0.13681 0.0
H2321 H 0.21313 0.42905 0.11888 0.0
H2322 H 0.15682 0.4807 0.13405 0.0
H2323 H 0.12568 0.49102 0.10876 0.0
C2324 C 0.80568 0.90415 0.22958 0.0
C2325 C 0.83687 0.91577 0.24582 0.0
C2326 C 0.83372 0.86707 0.27489 0.0
C2327 C 0.80412 0.8536 0.25581 0.0
N2328 N 0.76494 0.85756 0.2102 0.0
N2329 N 0.8832 0.90544 0.27894 0.0
C2330 C 0.79077 0.87172 0.23192 0.0
C2331 C 0.85173 0.89625 0.26677 0.0
N2332 N 0.79024 0.9241 0.21199 0.0
N2333 N 0.84383 0.85306 0.30217 0.0
H2334 H 0.89715 0.92692 0.27424 0.0
H2335 H 0.89619 0.89041 0.29124 0.0
H2336 H 0.8304 0.83299 0.31061 0.0
H2337 H 0.86364 0.86352 0.31874 0.0
H2338 H 0.76618 0.91826 0.20274 0.0
H2339 H 0.80094 0.94746 0.20871 0.0
H2340 H 0.75617 0.86857 0.19017 0.0
H2341 H 0.75411 0.83364 0.21012 0.0
C2342 C 0.67688 0.11484 0.78467 0.0
C2343 C 0.68969 0.09067 0.76674 0.0
C2344 C 0.73446 0.13076 0.75405 0.0
C2345 C 0.7208 0.15495 0.77081 0.0
N2346 N 0.67509 0.17131 0.79442 0.0
N2347 N 0.7268 0.07574 0.72891 0.0
C2348 C 0.69091 0.14736 0.78401 0.0
C2349 C 0.7175 0.0986 0.74994 0.0
N2350 N 0.65168 0.10673 0.803 0.0
N2351 N 0.76389 0.13843 0.74278 0.0
H2352 H 0.71485 0.05199 0.72516 0.0
H2353 H 0.74471 0.08078 0.71314 0.0
H2354 H 0.77634 0.16194 0.7444 0.0
H2355 H 0.77681 0.12143 0.73367 0.0
H2356 H 0.64435 0.12288 0.82029 0.0
H2357 H 0.63944 0.08334 0.80285 0.0
H2358 H 0.65174 0.16714 0.80105 0.0
H2359 H 0.68384 0.19556 0.7931 0.0
loop_
_geom_bond_atom_site_label_1
_geom_bond_atom_site_label_2
_geom_bond_distance
_geom_bond_site_symmetry_2
_ccdc_geom_bond_type
In0 O1 2.294 . S
In0 O2 2.326 . S
In0 O6 2.266 1_455 S
In0 O7 2.326 1_455 S
In0 O8 2.266 . S
In0 O9 2.326 . S
In0 O11 2.294 . S
In0 O12 2.326 . S
O1 In0 2.294 . S
O1 C10 1.240 . S
O2 In0 2.326 . S
O2 C10 1.252 . S
C3 O6 1.252 . S
C3 O7 1.260 . S
C4 O11 1.240 . S
C4 O12 1.252 . S
C5 O8 1.252 . S
C5 O9 1.260 . S
O6 In0 2.266 1_655 S
O6 C3 1.252 . S
O7 In0 2.326 1_655 S
O7 C3 1.260 . S
O8 In0 2.266 . S
O8 C5 1.252 . S
O9 In0 2.326 . S
O9 C5 1.260 . S
C10 O1 1.240 . S
C10 O2 1.252 . S
O11 In0 2.294 . S
O11 C4 1.240 . S
O12 In0 2.326 . S
O12 C4 1.252 . S
In13 O14 2.294 . S
In13 O15 2.326 . S
In13 O19 2.266 1_455 S
In13 O20 2.326 . S
In13 O21 2.266 1_455 S
In13 O22 2.326 1_455 S
In13 O24 2.294 . S
In13 O25 2.326 . S
O14 In13 2.294 . S
O14 C23 1.240 . S
O15 In13 2.326 . S
O15 C23 1.252 . S
C16 O19 1.253 . S
C16 O20 1.259 1_655 S
C17 O24 1.240 . S
C17 O25 1.252 . S
C18 O21 1.252 . S
C18 O22 1.260 . S
O19 In13 2.266 1_655 S
O19 C16 1.253 . S
O20 In13 2.326 . S
O20 C16 1.259 1_455 S
O21 In13 2.266 1_655 S
O21 C18 1.252 . S
O22 In13 2.326 1_655 S
O22 C18 1.260 . S
C23 O14 1.240 . S
C23 O15 1.252 . S
O24 In13 2.294 . S
O24 C17 1.240 . S
O25 In13 2.326 . S
O25 C17 1.252 . S
In26 O27 2.294 . S
In26 O28 2.326 . S
In26 O32 2.266 . S
In26 O33 2.326 . S
In26 O34 2.266 . S
In26 O35 2.326 . S
In26 O37 2.294 . S
In26 O38 2.326 . S
O27 In26 2.294 . S
O27 C36 1.240 . S
O28 In26 2.326 . S
O28 C36 1.252 . S
C29 O32 1.252 . S
C29 O33 1.260 . S
C30 O37 1.240 . S
C30 O38 1.252 . S
C31 O34 1.252 . S
C31 O35 1.260 . S
O32 In26 2.266 . S
O32 C29 1.252 . S
O33 In26 2.326 . S
O33 C29 1.260 . S
O34 In26 2.266 . S
O34 C31 1.252 . S
O35 In26 2.326 . S
O35 C31 1.260 . S
C36 O27 1.240 . S
C36 O28 1.252 . S
O37 In26 2.294 . S
O37 C30 1.240 . S
O38 In26 2.326 . S
O38 C30 1.252 . S
In39 O40 2.294 . S
In39 O41 2.326 . S
In39 O45 2.266 . S
In39 O46 2.326 . S
In39 O47 2.266 . S
In39 O48 2.326 . S
In39 O50 2.294 . S
In39 O51 2.326 . S
O40 In39 2.294 . S
O40 C49 1.240 . S
O41 In39 2.326 . S
O41 C49 1.252 . S
C42 O45 1.252 . S
C42 O46 1.260 . S
C43 O50 1.240 . S
C43 O51 1.252 . S
C44 O47 1.252 . S
C44 O48 1.260 . S
O45 In39 2.266 . S
O45 C42 1.252 . S
O46 In39 2.326 . S
O46 C42 1.260 . S
O47 In39 2.266 . S
O47 C44 1.252 . S
O48 In39 2.326 . S
O48 C44 1.260 . S
C49 O40 1.240 . S
C49 O41 1.252 . S
O50 In39 2.294 . S
O50 C43 1.240 . S
O51 In39 2.326 . S
O51 C43 1.252 . S
In52 O53 2.294 . S
In52 O54 2.326 . S
In52 O58 2.266 . S
In52 O59 2.326 . S
In52 O60 2.266 . S
In52 O61 2.326 . S
In52 O63 2.294 . S
In52 O64 2.326 1_455 S
O53 In52 2.294 . S
O53 C62 1.240 . S
O54 In52 2.326 . S
O54 C62 1.252 . S
C55 O58 1.252 . S
C55 O59 1.260 . S
C56 O63 1.240 1_655 S
C56 O64 1.252 . S
C57 O60 1.252 . S
C57 O61 1.260 . S
O58 In52 2.266 . S
O58 C55 1.252 . S
O59 In52 2.326 . S
O59 C55 1.260 . S
O60 In52 2.266 . S
O60 C57 1.252 . S
O61 In52 2.326 . S
O61 C57 1.260 . S
C62 O53 1.240 . S
C62 O54 1.252 . S
O63 In52 2.294 . S
O63 C56 1.240 1_455 S
O64 In52 2.326 1_655 S
O64 C56 1.252 . S
In65 O66 2.294 . S
In65 O67 2.326 . S
In65 O71 2.266 . S
In65 O72 2.326 . S
In65 O73 2.266 . S
In65 O74 2.326 . S
In65 O76 2.294 . S
In65 O77 2.326 . S
O66 In65 2.294 . S
O66 C75 1.240 . S
O67 In65 2.326 . S
O67 C75 1.252 . S
C68 O71 1.252 . S
C68 O72 1.260 . S
C69 O76 1.240 . S
C69 O77 1.252 . S
C70 O73 1.252 . S
C70 O74 1.260 . S
O71 In65 2.266 . S
O71 C68 1.252 . S
O72 In65 2.326 . S
O72 C68 1.260 . S
O73 In65 2.266 . S
O73 C70 1.252 . S
O74 In65 2.326 . S
O74 C70 1.260 . S
C75 O66 1.240 . S
C75 O67 1.252 . S
O76 In65 2.294 . S
O76 C69 1.240 . S
O77 In65 2.326 . S
O77 C69 1.252 . S
In78 O79 2.294 . S
In78 O80 2.326 . S
In78 O84 2.266 . S
In78 O85 2.326 . S
In78 O86 2.266 . S
In78 O87 2.326 . S
In78 O89 2.294 . S
In78 O90 2.326 . S
O79 In78 2.294 . S
O79 C88 1.240 . S
O80 In78 2.326 . S
O80 C88 1.252 . S
C81 O84 1.252 . S
C81 O85 1.260 . S
C82 O89 1.240 . S
C82 O90 1.252 . S
C83 O86 1.252 . S
C83 O87 1.260 . S
O84 In78 2.266 . S
O84 C81 1.252 . S
O85 In78 2.326 . S
O85 C81 1.260 . S
O86 In78 2.266 . S
O86 C83 1.252 . S
O87 In78 2.326 . S
O87 C83 1.260 . S
C88 O79 1.240 . S
C88 O80 1.252 . S
O89 In78 2.294 . S
O89 C82 1.240 . S
O90 In78 2.326 . S
O90 C82 1.252 . S
In91 O92 2.294 . S
In91 O93 2.326 . S
In91 O97 2.266 . S
In91 O98 2.326 . S
In91 O99 2.266 1_455 S
In91 O100 2.326 1_455 S
In91 O102 2.294 . S
In91 O103 2.326 . S
O92 In91 2.294 . S
O92 C101 1.240 . S
O93 In91 2.326 . S
O93 C101 1.252 . S
C94 O97 1.252 . S
C94 O98 1.260 . S
C95 O102 1.240 . S
C95 O103 1.252 . S
C96 O99 1.252 . S
C96 O100 1.260 . S
O97 In91 2.266 . S
O97 C94 1.252 . S
O98 In91 2.326 . S
O98 C94 1.260 . S
O99 In91 2.266 1_655 S
O99 C96 1.252 . S
O100 In91 2.326 1_655 S
O100 C96 1.260 . S
C101 O92 1.240 . S
C101 O93 1.252 . S
O102 In91 2.294 . S
O102 C95 1.240 . S
O103 In91 2.326 . S
O103 C95 1.252 . S
In104 O105 2.294 . S
In104 O106 2.326 . S
In104 O110 2.266 . S
In104 O111 2.326 . S
In104 O112 2.266 1_545 S
In104 O113 2.326 1_545 S
In104 O115 2.294 . S
In104 O116 2.326 . S
O105 In104 2.294 . S
O105 C114 1.240 . S
O106 In104 2.326 . S
O106 C114 1.252 . S
C107 O110 1.252 . S
C107 O111 1.260 . S
C108 O115 1.240 . S
C108 O116 1.252 . S
C109 O112 1.252 . S
C109 O113 1.260 . S
O110 In104 2.266 . S
O110 C107 1.252 . S
O111 In104 2.326 . S
O111 C107 1.260 . S
O112 In104 2.266 1_565 S
O112 C109 1.252 . S
O113 In104 2.326 1_565 S
O113 C109 1.260 . S
C114 O105 1.240 . S
C114 O106 1.252 . S
O115 In104 2.294 . S
O115 C108 1.240 . S
O116 In104 2.326 . S
O116 C108 1.252 . S
In117 O118 2.294 . S
In117 O119 2.326 . S
In117 O123 2.266 . S
In117 O124 2.326 . S
In117 O125 2.266 . S
In117 O126 2.326 . S
In117 O128 2.294 . S
In117 O129 2.326 . S
O118 In117 2.294 . S
O118 C127 1.240 . S
O119 In117 2.326 . S
O119 C127 1.252 . S
C120 O123 1.252 . S
C120 O124 1.260 . S
C121 O128 1.240 . S
C121 O129 1.252 . S
C122 O125 1.252 . S
C122 O126 1.260 . S
O123 In117 2.266 . S
O123 C120 1.252 . S
O124 In117 2.326 . S
O124 C120 1.260 . S
O125 In117 2.266 . S
O125 C122 1.252 . S
O126 In117 2.326 . S
O126 C122 1.260 . S
C127 O118 1.240 . S
C127 O119 1.252 . S
O128 In117 2.294 . S
O128 C121 1.240 . S
O129 In117 2.326 . S
O129 C121 1.252 . S
In130 O131 2.294 . S
In130 O132 2.326 . S
In130 O136 2.266 . S
In130 O137 2.326 . S
In130 O138 2.266 . S
In130 O139 2.326 . S
In130 O141 2.294 1_545 S
In130 O142 2.326 1_545 S
O131 In130 2.294 . S
O131 C140 1.240 . S
O132 In130 2.326 . S
O132 C140 1.252 . S
C133 O136 1.252 . S
C133 O137 1.260 . S
C134 O141 1.240 . S
C134 O142 1.252 . S
C135 O138 1.252 . S
C135 O139 1.260 . S
O136 In130 2.266 . S
O136 C133 1.252 . S
O137 In130 2.326 . S
O137 C133 1.260 . S
O138 In130 2.266 . S
O138 C135 1.252 . S
O139 In130 2.326 . S
O139 C135 1.260 . S
C140 O131 1.240 . S
C140 O132 1.252 . S
O141 In130 2.294 1_565 S
O141 C134 1.240 . S
O142 In130 2.326 1_565 S
O142 C134 1.252 . S
In143 O144 2.294 . S
In143 O145 2.326 . S
In143 O149 2.266 1_554 S
In143 O150 2.326 1_554 S
In143 O151 2.266 . S
In143 O152 2.326 . S
In143 O154 2.294 . S
In143 O155 2.326 . S
O144 In143 2.294 . S
O144 C153 1.240 . S
O145 In143 2.326 . S
O145 C153 1.252 . S
C146 O149 1.252 . S
C146 O150 1.260 . S
C147 O154 1.240 . S
C147 O155 1.252 . S
C148 O151 1.252 . S
C148 O152 1.260 . S
O149 In143 2.266 1_556 S
O149 C146 1.252 . S
O150 In143 2.326 1_556 S
O150 C146 1.260 . S
O151 In143 2.266 . S
O151 C148 1.252 . S
O152 In143 2.326 . S
O152 C148 1.260 . S
C153 O144 1.240 . S
C153 O145 1.252 . S
O154 In143 2.294 . S
O154 C147 1.240 . S
O155 In143 2.326 . S
O155 C147 1.252 . S
In156 O157 2.294 . S
In156 O158 2.326 . S
In156 O162 2.266 . S
In156 O163 2.328 1_554 S
In156 O164 2.266 . S
In156 O165 2.326 . S
In156 O167 2.294 . S
In156 O168 2.326 . S
O157 In156 2.294 . S
O157 C166 1.240 . S
O158 In156 2.326 . S
O158 C166 1.252 . S
C159 O162 1.252 1_556 S
C159 O163 1.260 . S
C160 O167 1.240 . S
C160 O168 1.252 . S
C161 O164 1.252 . S
C161 O165 1.260 . S
O162 In156 2.266 . S
O162 C159 1.252 1_554 S
O163 In156 2.328 1_556 S
O163 C159 1.260 . S
O164 In156 2.266 . S
O164 C161 1.252 . S
O165 In156 2.326 . S
O165 C161 1.260 . S
C166 O157 1.240 . S
C166 O158 1.252 . S
O167 In156 2.294 . S
O167 C160 1.240 . S
O168 In156 2.326 . S
O168 C160 1.252 . S
In169 O170 2.294 . S
In169 O171 2.326 . S
In169 O175 2.266 . S
In169 O176 2.326 . S
In169 O177 2.266 . S
In169 O178 2.326 1_554 S
In169 O180 2.294 . S
In169 O181 2.326 . S
O170 In169 2.294 . S
O170 C179 1.240 . S
O171 In169 2.326 . S
O171 C179 1.252 . S
C172 O175 1.252 . S
C172 O176 1.260 . S
C173 O180 1.240 . S
C173 O181 1.252 . S
C174 O177 1.252 1_556 S
C174 O178 1.260 . S
O175 In169 2.266 . S
O175 C172 1.252 . S
O176 In169 2.326 . S
O176 C172 1.260 . S
O177 In169 2.266 . S
O177 C174 1.252 1_554 S
O178 In169 2.326 1_556 S
O178 C174 1.260 . S
C179 O170 1.240 . S
C179 O171 1.252 . S
O180 In169 2.294 . S
O180 C173 1.240 . S
O181 In169 2.326 . S
O181 C173 1.252 . S
In182 O183 2.294 . S
In182 O184 2.326 . S
In182 O188 2.266 . S
In182 O189 2.326 . S
In182 O190 2.266 . S
In182 O191 2.326 . S
In182 O193 2.294 . S
In182 O194 2.326 . S
O183 In182 2.294 . S
O183 C192 1.240 . S
O184 In182 2.326 . S
O184 C192 1.252 . S
C185 O188 1.252 . S
C185 O189 1.260 . S
C186 O193 1.240 . S
C186 O194 1.252 . S
C187 O190 1.252 . S
C187 O191 1.260 . S
O188 In182 2.266 . S
O188 C185 1.252 . S
O189 In182 2.326 . S
O189 C185 1.260 . S
O190 In182 2.266 . S
O190 C187 1.252 . S
O191 In182 2.326 . S
O191 C187 1.260 . S
C192 O183 1.240 . S
C192 O184 1.252 . S
O193 In182 2.294 . S
O193 C186 1.240 . S
O194 In182 2.326 . S
O194 C186 1.252 . S
In195 O196 2.294 . S
In195 O197 2.326 . S
In195 O201 2.266 . S
In195 O202 2.326 . S
In195 O203 2.266 . S
In195 O204 2.326 . S
In195 O206 2.294 . S
In195 O207 2.326 . S
O196 In195 2.294 . S
O196 C205 1.240 . S
O197 In195 2.326 . S
O197 C205 1.252 . S
C198 O201 1.252 . S
C198 O202 1.260 . S
C199 O206 1.240 . S
C199 O207 1.252 . S
C200 O203 1.252 . S
C200 O204 1.260 . S
O201 In195 2.266 . S
O201 C198 1.252 . S
O202 In195 2.326 . S
O202 C198 1.260 . S
O203 In195 2.266 . S
O203 C200 1.252 . S
O204 In195 2.326 . S
O204 C200 1.260 . S
C205 O196 1.240 . S
C205 O197 1.252 . S
O206 In195 2.294 . S
O206 C199 1.240 . S
O207 In195 2.326 . S
O207 C199 1.252 . S
In208 O209 2.294 . S
In208 O210 2.326 . S
In208 O214 2.266 . S
In208 O215 2.326 . S
In208 O216 2.266 1_545 S
In208 O217 2.326 1_545 S
In208 O219 2.294 . S
In208 O220 2.326 . S
O209 In208 2.294 . S
O209 C218 1.240 . S
O210 In208 2.326 . S
O210 C218 1.252 . S
C211 O214 1.252 . S
C211 O215 1.260 . S
C212 O219 1.240 . S
C212 O220 1.252 . S
C213 O216 1.252 . S
C213 O217 1.260 . S
O214 In208 2.266 . S
O214 C211 1.252 . S
O215 In208 2.326 . S
O215 C211 1.260 . S
O216 In208 2.266 1_565 S
O216 C213 1.252 . S
O217 In208 2.326 1_565 S
O217 C213 1.260 . S
C218 O209 1.240 . S
C218 O210 1.252 . S
O219 In208 2.294 . S
O219 C212 1.240 . S
O220 In208 2.326 . S
O220 C212 1.252 . S
In221 O222 2.294 . S
In221 O223 2.326 . S
In221 O227 2.266 . S
In221 O228 2.326 . S
In221 O229 2.266 . S
In221 O230 2.326 . S
In221 O232 2.294 . S
In221 O233 2.326 . S
O222 In221 2.294 . S
O222 C231 1.240 . S
O223 In221 2.326 . S
O223 C231 1.252 . S
C224 O227 1.252 . S
C224 O228 1.260 . S
C225 O232 1.240 . S
C225 O233 1.252 . S
C226 O229 1.252 . S
C226 O230 1.260 . S
O227 In221 2.266 . S
O227 C224 1.252 . S
O228 In221 2.326 . S
O228 C224 1.260 . S
O229 In221 2.266 . S
O229 C226 1.252 . S
O230 In221 2.326 . S
O230 C226 1.260 . S
C231 O222 1.240 . S
C231 O223 1.252 . S
O232 In221 2.294 . S
O232 C225 1.240 . S
O233 In221 2.326 . S
O233 C225 1.252 . S
In234 O235 2.294 . S
In234 O236 2.326 . S
In234 O240 2.266 . S
In234 O241 2.326 . S
In234 O242 2.266 . S
In234 O243 2.326 . S
In234 O245 2.294 . S
In234 O246 2.326 . S
O235 In234 2.294 . S
O235 C244 1.240 . S
O236 In234 2.326 . S
O236 C244 1.252 . S
C237 O240 1.252 . S
C237 O241 1.260 . S
C238 O245 1.240 . S
C238 O246 1.252 . S
C239 O242 1.252 . S
C239 O243 1.260 . S
O240 In234 2.266 . S
O240 C237 1.252 . S
O241 In234 2.326 . S
O241 C237 1.260 . S
O242 In234 2.266 . S
O242 C239 1.252 . S
O243 In234 2.326 . S
O243 C239 1.260 . S
C244 O235 1.240 . S
C244 O236 1.252 . S
O245 In234 2.294 . S
O245 C238 1.240 . S
O246 In234 2.326 . S
O246 C238 1.252 . S
In247 O248 2.294 1_545 S
In247 O249 2.326 1_545 S
In247 O253 2.266 . S
In247 O254 2.326 . S
In247 O255 2.266 . S
In247 O256 2.326 . S
In247 O258 2.294 1_545 S
In247 O259 2.326 1_545 S
O248 In247 2.294 1_565 S
O248 C257 1.240 . S
O249 In247 2.326 1_565 S
O249 C257 1.252 . S
C250 O253 1.252 . S
C250 O254 1.260 . S
C251 O258 1.240 . S
C251 O259 1.252 . S
C252 O255 1.252 . S
C252 O256 1.260 . S
O253 In247 2.266 . S
O253 C250 1.252 . S
O254 In247 2.326 . S
O254 C250 1.260 . S
O255 In247 2.266 . S
O255 C252 1.252 . S
O256 In247 2.326 . S
O256 C252 1.260 . S
C257 O248 1.240 . S
C257 O249 1.252 . S
O258 In247 2.294 1_565 S
O258 C251 1.240 . S
O259 In247 2.326 1_565 S
O259 C251 1.252 . S
In260 O261 2.294 . S
In260 O262 2.326 . S
In260 O266 2.266 1_554 S
In260 O267 2.325 1_554 S
In260 O268 2.264 1_554 S
In260 O269 2.322 1_554 S
In260 O271 2.296 . S
In260 O272 2.330 . S
O261 In260 2.294 . S
O261 C270 1.240 . S
O262 In260 2.326 . S
O262 C270 1.252 . S
C263 O266 1.252 . S
C263 O267 1.260 . S
C264 O271 1.240 . S
C264 O272 1.252 . S
C265 O268 1.252 . S
C265 O269 1.260 . S
O266 In260 2.266 1_556 S
O266 C263 1.252 . S
O267 In260 2.325 1_556 S
O267 C263 1.260 . S
O268 In260 2.264 1_556 S
O268 C265 1.252 . S
O269 In260 2.322 1_556 S
O269 C265 1.260 . S
C270 O261 1.240 . S
C270 O262 1.252 . S
O271 In260 2.296 . S
O271 C264 1.240 . S
O272 In260 2.330 . S
O272 C264 1.252 . S
In273 O274 2.294 . S
In273 O275 2.326 . S
In273 O279 2.266 . S
In273 O280 2.326 . S
In273 O281 2.266 . S
In273 O282 2.326 . S
In273 O284 2.294 . S
In273 O285 2.326 . S
O274 In273 2.294 . S
O274 C283 1.240 . S
O275 In273 2.326 . S
O275 C283 1.252 . S
C276 O279 1.252 . S
C276 O280 1.260 . S
C277 O284 1.240 . S
C277 O285 1.252 . S
C278 O281 1.252 . S
C278 O282 1.260 . S
O279 In273 2.266 . S
O279 C276 1.252 . S
O280 In273 2.326 . S
O280 C276 1.260 . S
O281 In273 2.266 . S
O281 C278 1.252 . S
O282 In273 2.326 . S
O282 C278 1.260 . S
C283 O274 1.240 . S
C283 O275 1.252 . S
O284 In273 2.294 . S
O284 C277 1.240 . S
O285 In273 2.326 . S
O285 C277 1.252 . S
In286 O287 2.294 . S
In286 O288 2.326 . S
In286 O292 2.266 . S
In286 O293 2.326 . S
In286 O294 2.266 . S
In286 O295 2.326 . S
In286 O297 2.294 . S
In286 O298 2.326 . S
O287 In286 2.294 . S
O287 C296 1.240 . S
O288 In286 2.326 . S
O288 C296 1.252 . S
C289 O292 1.252 . S
C289 O293 1.260 . S
C290 O297 1.240 . S
C290 O298 1.252 . S
C291 O294 1.252 . S
C291 O295 1.260 . S
O292 In286 2.266 . S
O292 C289 1.252 . S
O293 In286 2.326 . S
O293 C289 1.260 . S
O294 In286 2.266 . S
O294 C291 1.252 . S
O295 In286 2.326 . S
O295 C291 1.260 . S
C296 O287 1.240 . S
C296 O288 1.252 . S
O297 In286 2.294 . S
O297 C290 1.240 . S
O298 In286 2.326 . S
O298 C290 1.252 . S
In299 O300 2.294 . S
In299 O301 2.326 . S
In299 O305 2.266 . S
In299 O306 2.326 . S
In299 O307 2.266 . S
In299 O308 2.326 . S
In299 O310 2.294 . S
In299 O311 2.326 . S
O300 In299 2.294 . S
O300 C309 1.240 . S
O301 In299 2.326 . S
O301 C309 1.252 . S
C302 O305 1.252 . S
C302 O306 1.260 . S
C303 O310 1.240 . S
C303 O311 1.252 . S
C304 O307 1.252 . S
C304 O308 1.260 . S
O305 In299 2.266 . S
O305 C302 1.252 . S
O306 In299 2.326 . S
O306 C302 1.260 . S
O307 In299 2.266 . S
O307 C304 1.252 . S
O308 In299 2.326 . S
O308 C304 1.260 . S
C309 O300 1.240 . S
C309 O301 1.252 . S
O310 In299 2.294 . S
O310 C303 1.240 . S
O311 In299 2.326 . S
O311 C303 1.252 . S
Zn312 O318 1.970 . S
Zn312 O319 1.974 . S
Zn312 O323 2.012 1_545 S
Zn312 O328 1.976 . S
Zn313 O320 1.969 1_554 S
Zn313 O326 1.969 1_455 S
Zn313 O327 1.965 . S
Zn313 O329 2.024 . S
C314 O315 1.229 . S
C314 O323 1.058 . S
O315 C314 1.229 . S
C316 O317 1.225 1_554 S
C316 O329 1.058 . S
O317 C316 1.225 1_556 S
O318 Zn312 1.970 . S
O318 C321 1.267 1_545 S
O319 Zn312 1.974 . S
O319 C330 1.260 1_554 S
O320 Zn313 1.969 1_556 S
O320 C330 1.258 . S
C321 O318 1.267 1_565 S
C321 O322 1.228 . S
O322 C321 1.228 . S
O323 Zn312 2.012 1_565 S
O323 C314 1.058 . S
C324 O325 1.228 . S
C324 O326 1.267 . S
O325 C324 1.228 . S
O326 Zn313 1.969 1_655 S
O326 C324 1.267 . S
O327 Zn313 1.965 . S
O327 C331 1.260 . S
O328 Zn312 1.976 . S
O328 C331 1.258 . S
O329 Zn313 2.024 . S
O329 C316 1.058 . S
C330 O319 1.260 1_556 S
C330 O320 1.258 . S
C331 O327 1.260 . S
C331 O328 1.258 . S
Zn332 O338 1.969 . S
Zn332 O339 1.965 . S
Zn332 O343 2.024 . S
Zn332 O348 1.969 . S
Zn333 O340 1.969 . S
Zn333 O346 1.969 . S
Zn333 O347 1.965 . S
Zn333 O349 2.024 . S
C334 O335 1.229 . S
C334 O343 1.058 . S
O335 C334 1.229 . S
C336 O337 1.229 . S
C336 O349 1.058 . S
O337 C336 1.229 . S
O338 Zn332 1.969 . S
O338 C341 1.267 . S
O339 Zn332 1.965 . S
O339 C350 1.260 . S
O340 Zn333 1.969 . S
O340 C350 1.258 . S
C341 O338 1.267 . S
C341 O342 1.228 . S
O342 C341 1.228 . S
O343 Zn332 2.024 . S
O343 C334 1.058 . S
C344 O345 1.228 . S
C344 O346 1.267 . S
O345 C344 1.228 . S
O346 Zn333 1.969 . S
O346 C344 1.267 . S
O347 Zn333 1.965 . S
O347 C351 1.260 . S
O348 Zn332 1.969 . S
O348 C351 1.258 . S
O349 Zn333 2.024 . S
O349 C336 1.058 . S
C350 O339 1.260 . S
C350 O340 1.258 . S
C351 O347 1.260 . S
C351 O348 1.258 . S
Zn352 O358 1.969 . S
Zn352 O359 1.965 . S
Zn352 O363 2.024 . S
Zn352 O368 1.969 . S
Zn353 O360 1.969 . S
Zn353 O366 1.969 . S
Zn353 O367 1.948 1_565 S
Zn353 O369 2.024 . S
C354 O355 1.229 . S
C354 O363 1.058 . S
O355 C354 1.229 . S
C356 O357 1.229 . S
C356 O369 1.058 . S
O357 C356 1.229 . S
O358 Zn352 1.969 . S
O358 C361 1.267 . S
O359 Zn352 1.965 . S
O359 C370 1.260 . S
O360 Zn353 1.969 . S
O360 C370 1.258 1_565 S
C361 O358 1.267 . S
C361 O362 1.228 . S
O362 C361 1.228 . S
O363 Zn352 2.024 . S
O363 C354 1.058 . S
C364 O365 1.228 . S
C364 O366 1.267 . S
O365 C364 1.228 . S
O366 Zn353 1.969 . S
O366 C364 1.267 . S
O367 Zn353 1.948 1_545 S
O367 C371 1.265 . S
O368 Zn352 1.969 . S
O368 C371 1.258 . S
O369 Zn353 2.024 . S
O369 C356 1.058 . S
C370 O359 1.260 . S
C370 O360 1.258 1_545 S
C371 O367 1.265 . S
C371 O368 1.258 . S
Zn372 O378 1.969 . S
Zn372 O379 1.965 . S
Zn372 O383 2.024 . S
Zn372 O388 1.969 . S
Zn373 O380 1.969 . S
Zn373 O386 1.969 . S
Zn373 O387 1.965 . S
Zn373 O389 2.024 . S
C374 O375 1.229 . S
C374 O383 1.058 . S
O375 C374 1.229 . S
C376 O377 1.229 . S
C376 O389 1.058 . S
O377 C376 1.229 . S
O378 Zn372 1.969 . S
O378 C381 1.267 . S
O379 Zn372 1.965 . S
O379 C390 1.260 . S
O380 Zn373 1.969 . S
O380 C390 1.258 . S
C381 O378 1.267 . S
C381 O382 1.228 . S
O382 C381 1.228 . S
O383 Zn372 2.024 . S
O383 C374 1.058 . S
C384 O385 1.228 . S
C384 O386 1.267 . S
O385 C384 1.228 . S
O386 Zn373 1.969 . S
O386 C384 1.267 . S
O387 Zn373 1.965 . S
O387 C391 1.260 . S
O388 Zn372 1.969 . S
O388 C391 1.258 . S
O389 Zn373 2.024 . S
O389 C376 1.058 . S
C390 O379 1.260 . S
C390 O380 1.258 . S
C391 O387 1.260 . S
C391 O388 1.258 . S
Zn392 O398 1.969 . S
Zn392 O399 1.965 . S
Zn392 O403 2.024 1_565 S
Zn392 O408 1.969 1_565 S
Zn393 O400 1.969 1_455 S
Zn393 O406 1.969 . S
Zn393 O407 1.965 . S
Zn393 O409 2.024 . S
C394 O395 1.229 1_545 S
C394 O403 1.058 . S
O395 C394 1.229 1_565 S
C396 O397 1.229 . S
C396 O409 1.058 1_655 S
O397 C396 1.229 . S
O398 Zn392 1.969 . S
O398 C401 1.267 . S
O399 Zn392 1.965 . S
O399 C410 1.260 1_455 S
O400 Zn393 1.969 1_655 S
O400 C410 1.258 1_545 S
C401 O398 1.267 . S
C401 O402 1.228 . S
O402 C401 1.228 . S
O403 Zn392 2.024 1_545 S
O403 C394 1.058 . S
C404 O405 1.228 . S
C404 O406 1.267 . S
O405 C404 1.228 . S
O406 Zn393 1.969 . S
O406 C404 1.267 . S
O407 Zn393 1.965 . S
O407 C411 1.260 . S
O408 Zn392 1.969 1_545 S
O408 C411 1.258 . S
O409 Zn393 2.024 . S
O409 C396 1.058 1_455 S
C410 O399 1.260 1_655 S
C410 O400 1.258 1_565 S
C411 O407 1.260 . S
C411 O408 1.258 . S
Zn412 O418 1.969 . S
Zn412 O419 1.965 . S
Zn412 O423 2.024 . S
Zn412 O428 1.969 . S
Zn413 O420 1.969 . S
Zn413 O426 1.969 . S
Zn413 O427 1.965 . S
Zn413 O429 2.024 . S
C414 O415 1.229 . S
C414 O423 1.058 . S
O415 C414 1.229 . S
C416 O417 1.229 . S
C416 O429 1.058 . S
O417 C416 1.229 . S
O418 Zn412 1.969 . S
O418 C421 1.267 . S
O419 Zn412 1.965 . S
O419 C430 1.260 . S
O420 Zn413 1.969 . S
O420 C430 1.258 . S
C421 O418 1.267 . S
C421 O422 1.228 . S
O422 C421 1.228 . S
O423 Zn412 2.024 . S
O423 C414 1.058 . S
C424 O425 1.228 . S
C424 O426 1.267 . S
O425 C424 1.228 . S
O426 Zn413 1.969 . S
O426 C424 1.267 . S
O427 Zn413 1.965 . S
O427 C431 1.260 . S
O428 Zn412 1.969 . S
O428 C431 1.258 . S
O429 Zn413 2.024 . S
O429 C416 1.058 . S
C430 O419 1.260 . S
C430 O420 1.258 . S
C431 O427 1.260 . S
C431 O428 1.258 . S
Zn432 O438 1.969 . S
Zn432 O439 1.965 . S
Zn432 O443 2.024 1_556 S
Zn432 O448 1.969 1_556 S
Zn433 O440 1.969 1_545 S
Zn433 O446 1.969 1_545 S
Zn433 O447 1.965 . S
Zn433 O449 2.024 . S
C434 O435 1.229 1_554 S
C434 O443 1.058 . S
O435 C434 1.229 1_556 S
C436 O437 1.229 . S
C436 O449 1.058 1_565 S
O437 C436 1.229 . S
O438 Zn432 1.969 . S
O438 C441 1.267 . S
O439 Zn432 1.965 . S
O439 C450 1.260 1_546 S
O440 Zn433 1.969 1_565 S
O440 C450 1.258 . S
C441 O438 1.267 . S
C441 O442 1.228 . S
O442 C441 1.228 . S
O443 Zn432 2.024 1_554 S
O443 C434 1.058 . S
C444 O445 1.228 . S
C444 O446 1.267 1_545 S
O445 C444 1.228 . S
O446 Zn433 1.969 1_565 S
O446 C444 1.267 1_565 S
O447 Zn433 1.965 . S
O447 C451 1.260 . S
O448 Zn432 1.969 1_554 S
O448 C451 1.258 . S
O449 Zn433 2.024 . S
O449 C436 1.058 1_545 S
C450 O439 1.260 1_564 S
C450 O440 1.258 . S
C451 O447 1.260 . S
C451 O448 1.258 . S
Zn452 O458 1.969 . S
Zn452 O459 1.965 . S
Zn452 O463 2.024 . S
Zn452 O468 1.969 . S
Zn453 O460 1.969 . S
Zn453 O466 1.969 . S
Zn453 O467 1.965 . S
Zn453 O469 2.024 . S
C454 O455 1.229 . S
C454 O463 1.058 . S
O455 C454 1.229 . S
C456 O457 1.229 . S
C456 O469 1.058 . S
O457 C456 1.229 . S
O458 Zn452 1.969 . S
O458 C461 1.267 . S
O459 Zn452 1.965 . S
O459 C470 1.260 . S
O460 Zn453 1.969 . S
O460 C470 1.258 . S
C461 O458 1.267 . S
C461 O462 1.228 . S
O462 C461 1.228 . S
O463 Zn452 2.024 . S
O463 C454 1.058 . S
C464 O465 1.228 . S
C464 O466 1.267 . S
O465 C464 1.228 . S
O466 Zn453 1.969 . S
O466 C464 1.267 . S
O467 Zn453 1.965 . S
O467 C471 1.260 . S
O468 Zn452 1.969 . S
O468 C471 1.258 . S
O469 Zn453 2.024 . S
O469 C456 1.058 . S
C470 O459 1.260 . S
C470 O460 1.258 . S
C471 O467 1.260 . S
C471 O468 1.258 . S
Zn472 O478 1.969 . S
Zn472 O479 1.965 . S
Zn472 O483 2.024 . S
Zn472 O488 1.969 . S
Zn473 O480 1.969 1_556 S
Zn473 O486 1.969 . S
Zn473 O487 1.965 1_556 S
Zn473 O489 2.024 . S
C474 O475 1.229 . S
C474 O483 1.058 . S
O475 C474 1.229 . S
C476 O477 1.229 . S
C476 O489 1.058 . S
O477 C476 1.229 . S
O478 Zn472 1.969 . S
O478 C481 1.267 . S
O479 Zn472 1.965 . S
O479 C490 1.260 . S
O480 Zn473 1.969 1_554 S
O480 C490 1.258 . S
C481 O478 1.267 . S
C481 O482 1.228 . S
O482 C481 1.228 . S
O483 Zn472 2.024 . S
O483 C474 1.058 . S
C484 O485 1.228 . S
C484 O486 1.267 . S
O485 C484 1.228 . S
O486 Zn473 1.969 . S
O486 C484 1.267 . S
O487 Zn473 1.965 1_554 S
O487 C491 1.260 . S
O488 Zn472 1.969 . S
O488 C491 1.258 . S
O489 Zn473 2.024 . S
O489 C476 1.058 . S
C490 O479 1.260 . S
C490 O480 1.258 . S
C491 O487 1.260 . S
C491 O488 1.258 . S
Zn492 O498 1.969 . S
Zn492 O499 1.965 . S
Zn492 O503 2.024 . S
Zn492 O508 1.969 . S
Zn493 O500 1.969 . S
Zn493 O506 1.969 . S
Zn493 O507 1.965 . S
Zn493 O509 2.024 . S
C494 O495 1.229 . S
C494 O503 1.058 . S
O495 C494 1.229 . S
C496 O497 1.229 . S
C496 O509 1.058 . S
O497 C496 1.229 . S
O498 Zn492 1.969 . S
O498 C501 1.267 . S
O499 Zn492 1.965 . S
O499 C510 1.260 . S
O500 Zn493 1.969 . S
O500 C510 1.258 . S
C501 O498 1.267 . S
C501 O502 1.228 . S
O502 C501 1.228 . S
O503 Zn492 2.024 . S
O503 C494 1.058 . S
C504 O505 1.228 . S
C504 O506 1.267 . S
O505 C504 1.228 . S
O506 Zn493 1.969 . S
O506 C504 1.267 . S
O507 Zn493 1.965 . S
O507 C511 1.260 . S
O508 Zn492 1.969 . S
O508 C511 1.258 . S
O509 Zn493 2.024 . S
O509 C496 1.058 . S
C510 O499 1.260 . S
C510 O500 1.258 . S
C511 O507 1.260 . S
C511 O508 1.258 . S
Zn512 O518 1.969 . S
Zn512 O519 1.965 . S
Zn512 O523 2.024 . S
Zn512 O528 1.969 . S
Zn513 O520 1.969 . S
Zn513 O526 1.969 . S
Zn513 O527 1.965 1_655 S
Zn513 O529 2.024 . S
C514 O515 1.229 . S
C514 O523 1.058 . S
O515 C514 1.229 . S
C516 O517 1.229 . S
C516 O529 1.058 . S
O517 C516 1.229 . S
O518 Zn512 1.969 . S
O518 C521 1.267 . S
O519 Zn512 1.965 . S
O519 C530 1.260 . S
O520 Zn513 1.969 . S
O520 C530 1.258 1_655 S
C521 O518 1.267 . S
C521 O522 1.228 . S
O522 C521 1.228 . S
O523 Zn512 2.024 . S
O523 C514 1.058 . S
C524 O525 1.228 . S
C524 O526 1.267 . S
O525 C524 1.228 . S
O526 Zn513 1.969 . S
O526 C524 1.267 . S
O527 Zn513 1.965 1_455 S
O527 C531 1.260 . S
O528 Zn512 1.969 . S
O528 C531 1.258 . S
O529 Zn513 2.024 . S
O529 C516 1.058 . S
C530 O519 1.260 . S
C530 O520 1.258 1_455 S
C531 O527 1.260 . S
C531 O528 1.258 . S
Zn532 O538 1.969 . S
Zn532 O539 1.965 . S
Zn532 O543 2.024 . S
Zn532 O548 1.969 . S
Zn533 O540 1.969 . S
Zn533 O546 1.969 . S
Zn533 O547 1.965 . S
Zn533 O549 2.024 . S
C534 O535 1.229 . S
C534 O543 1.058 . S
O535 C534 1.229 . S
C536 O537 1.229 . S
C536 O549 1.058 . S
O537 C536 1.229 . S
O538 Zn532 1.969 . S
O538 C541 1.267 . S
O539 Zn532 1.965 . S
O539 C550 1.260 . S
O540 Zn533 1.969 . S
O540 C550 1.258 . S
C541 O538 1.267 . S
C541 O542 1.228 . S
O542 C541 1.228 . S
O543 Zn532 2.024 . S
O543 C534 1.058 . S
C544 O545 1.228 . S
C544 O546 1.267 . S
O545 C544 1.228 . S
O546 Zn533 1.969 . S
O546 C544 1.267 . S
O547 Zn533 1.965 . S
O547 C551 1.260 . S
O548 Zn532 1.969 . S
O548 C551 1.258 . S
O549 Zn533 2.024 . S
O549 C536 1.058 . S
C550 O539 1.260 . S
C550 O540 1.258 . S
C551 O547 1.260 . S
C551 O548 1.258 . S
Zn552 O558 1.969 . S
Zn552 O559 1.965 . S
Zn552 O563 2.024 . S
Zn552 O568 1.969 . S
Zn553 O560 1.969 . S
Zn553 O566 1.969 . S
Zn553 O567 1.965 . S
Zn553 O569 2.024 . S
C554 O555 1.229 . S
C554 O563 1.058 . S
O555 C554 1.229 . S
C556 O557 1.229 . S
C556 O569 1.058 . S
O557 C556 1.229 . S
O558 Zn552 1.969 . S
O558 C561 1.267 . S
O559 Zn552 1.965 . S
O559 C570 1.260 . S
O560 Zn553 1.969 . S
O560 C570 1.258 . S
C561 O558 1.267 . S
C561 O562 1.228 . S
O562 C561 1.228 . S
O563 Zn552 2.024 . S
O563 C554 1.058 . S
C564 O565 1.228 . S
C564 O566 1.267 . S
O565 C564 1.228 . S
O566 Zn553 1.969 . S
O566 C564 1.267 . S
O567 Zn553 1.965 . S
O567 C571 1.260 . S
O568 Zn552 1.969 . S
O568 C571 1.258 . S
O569 Zn553 2.024 . S
O569 C556 1.058 . S
C570 O559 1.260 . S
C570 O560 1.258 . S
C571 O567 1.260 . S
C571 O568 1.258 . S
Zn572 O578 1.969 . S
Zn572 O579 1.965 . S
Zn572 O583 2.024 . S
Zn572 O588 1.969 . S
Zn573 O580 1.969 . S
Zn573 O586 1.969 . S
Zn573 O587 1.965 . S
Zn573 O589 2.024 . S
C574 O575 1.229 . S
C574 O583 1.058 . S
O575 C574 1.229 . S
C576 O577 1.229 . S
C576 O589 1.058 . S
O577 C576 1.229 . S
O578 Zn572 1.969 . S
O578 C581 1.267 . S
O579 Zn572 1.965 . S
O579 C590 1.260 . S
O580 Zn573 1.969 . S
O580 C590 1.258 . S
C581 O578 1.267 . S
C581 O582 1.228 . S
O582 C581 1.228 . S
O583 Zn572 2.024 . S
O583 C574 1.058 . S
C584 O585 1.228 . S
C584 O586 1.267 . S
O585 C584 1.228 . S
O586 Zn573 1.969 . S
O586 C584 1.267 . S
O587 Zn573 1.965 . S
O587 C591 1.260 . S
O588 Zn572 1.969 . S
O588 C591 1.258 . S
O589 Zn573 2.024 . S
O589 C576 1.058 . S
C590 O579 1.260 . S
C590 O580 1.258 . S
C591 O587 1.260 . S
C591 O588 1.258 . S
Zn592 O598 1.969 . S
Zn592 O599 1.965 . S
Zn592 O603 2.024 . S
Zn592 O608 1.969 . S
Zn593 O600 1.969 . S
Zn593 O606 1.969 . S
Zn593 O607 1.965 . S
Zn593 O609 2.024 . S
C594 O595 1.229 . S
C594 O603 1.058 . S
O595 C594 1.229 . S
C596 O597 1.229 . S
C596 O609 1.058 . S
O597 C596 1.229 . S
O598 Zn592 1.969 . S
O598 C601 1.267 . S
O599 Zn592 1.965 . S
O599 C610 1.260 . S
O600 Zn593 1.969 . S
O600 C610 1.258 . S
C601 O598 1.267 . S
C601 O602 1.228 . S
O602 C601 1.228 . S
O603 Zn592 2.024 . S
O603 C594 1.058 . S
C604 O605 1.228 . S
C604 O606 1.267 . S
O605 C604 1.228 . S
O606 Zn593 1.969 . S
O606 C604 1.267 . S
O607 Zn593 1.965 . S
O607 C611 1.260 . S
O608 Zn592 1.969 . S
O608 C611 1.258 . S
O609 Zn593 2.024 . S
O609 C596 1.058 . S
C610 O599 1.260 . S
C610 O600 1.258 . S
C611 O607 1.260 . S
C611 O608 1.258 . S
Zn612 O618 1.969 . S
Zn612 O619 1.965 . S
Zn612 O623 2.024 1_655 S
Zn612 O628 1.969 1_655 S
Zn613 O620 1.969 1_554 S
Zn613 O626 1.969 . S
Zn613 O627 1.965 . S
Zn613 O629 2.024 . S
C614 O615 1.229 1_455 S
C614 O623 1.058 . S
O615 C614 1.229 1_655 S
C616 O617 1.229 1_554 S
C616 O629 1.058 . S
O617 C616 1.229 1_556 S
O618 Zn612 1.969 . S
O618 C621 1.267 . S
O619 Zn612 1.965 . S
O619 C630 1.260 1_554 S
O620 Zn613 1.969 1_556 S
O620 C630 1.258 1_455 S
C621 O618 1.267 . S
C621 O622 1.228 . S
O622 C621 1.228 . S
O623 Zn612 2.024 1_455 S
O623 C614 1.058 . S
C624 O625 1.228 . S
C624 O626 1.267 . S
O625 C624 1.228 . S
O626 Zn613 1.969 . S
O626 C624 1.267 . S
O627 Zn613 1.965 . S
O627 C631 1.260 . S
O628 Zn612 1.969 1_455 S
O628 C631 1.258 . S
O629 Zn613 2.024 . S
O629 C616 1.058 . S
C630 O619 1.260 1_556 S
C630 O620 1.258 1_655 S
C631 O627 1.260 . S
C631 O628 1.258 . S
C632 C633 1.363 . S
C632 C638 1.379 1_556 S
C632 N640 1.356 . S
C633 C632 1.363 . S
C633 C639 1.363 . S
C634 C635 1.363 1_556 S
C634 C639 1.379 . S
C634 N641 1.356 1_556 S
C635 C634 1.363 1_554 S
C635 C638 1.363 . S
N636 C638 1.356 . S
N636 H648 0.984 . S
N636 H649 0.985 . S
N637 C639 1.356 1_655 S
N637 H642 0.984 . S
N637 H643 0.985 . S
C638 C632 1.379 1_554 S
C638 C635 1.363 . S
C638 N636 1.356 . S
C639 C633 1.363 . S
C639 C634 1.379 . S
C639 N637 1.356 1_455 S
N640 C632 1.356 . S
N640 H646 0.984 . S
N640 H647 0.984 . S
N641 C634 1.356 1_554 S
N641 H644 0.985 . S
N641 H645 0.984 1_454 S
H642 N637 0.984 . S
H643 N637 0.985 . S
H644 N641 0.985 . S
H645 N641 0.984 1_656 S
H646 N640 0.984 . S
H647 N640 0.984 . S
H648 N636 0.984 . S
H649 N636 0.985 . S
C650 C651 1.363 . S
C650 C656 1.379 . S
C650 N658 1.356 . S
C651 C650 1.363 . S
C651 C657 1.363 . S
C652 C653 1.363 . S
C652 C657 1.379 . S
C652 N659 1.356 . S
C653 C652 1.363 . S
C653 C656 1.363 . S
N654 C656 1.356 . S
N654 H666 0.984 . S
N654 H667 0.985 . S
N655 C657 1.356 . S
N655 H660 0.984 . S
N655 H661 0.985 . S
C656 C650 1.379 . S
C656 C653 1.363 . S
C656 N654 1.356 . S
C657 C651 1.363 . S
C657 C652 1.379 . S
C657 N655 1.356 . S
N658 C650 1.356 . S
N658 H664 0.984 . S
N658 H665 0.984 . S
N659 C652 1.356 . S
N659 H662 0.984 . S
N659 H663 0.985 . S
H660 N655 0.984 . S
H661 N655 0.985 . S
H662 N659 0.984 . S
H663 N659 0.985 . S
H664 N658 0.984 . S
H665 N658 0.984 . S
H666 N654 0.984 . S
H667 N654 0.985 . S
C668 C669 1.363 . S
C668 C674 1.379 . S
C668 N676 1.356 . S
C669 C668 1.363 . S
C669 C675 1.363 . S
C670 C671 1.363 . S
C670 C675 1.379 . S
C670 N677 1.356 . S
C671 C670 1.363 . S
C671 C674 1.363 . S
N672 C674 1.356 . S
N672 H684 0.984 . S
N672 H685 0.985 . S
N673 C675 1.356 . S
N673 H678 0.984 . S
N673 H679 0.985 . S
C674 C668 1.379 . S
C674 C671 1.363 . S
C674 N672 1.356 . S
C675 C669 1.363 . S
C675 C670 1.379 . S
C675 N673 1.356 . S
N676 C668 1.356 . S
N676 H682 0.984 . S
N676 H683 0.984 . S
N677 C670 1.356 . S
N677 H680 0.984 . S
N677 H681 0.985 . S
H678 N673 0.984 . S
H679 N673 0.985 . S
H680 N677 0.984 . S
H681 N677 0.985 . S
H682 N676 0.984 . S
H683 N676 0.984 . S
H684 N672 0.984 . S
H685 N672 0.985 . S
C686 C687 1.363 . S
C686 C692 1.379 . S
C686 N694 1.356 . S
C687 C686 1.363 . S
C687 C693 1.363 . S
C688 C689 1.363 . S
C688 C693 1.379 . S
C688 N695 1.356 . S
C689 C688 1.363 . S
C689 C692 1.363 . S
N690 C692 1.356 . S
N690 H702 0.984 . S
N690 H703 0.985 . S
N691 C693 1.356 . S
N691 H696 0.984 . S
N691 H697 0.985 . S
C692 C686 1.379 . S
C692 C689 1.363 . S
C692 N690 1.356 . S
C693 C687 1.363 . S
C693 C688 1.379 . S
C693 N691 1.356 . S
N694 C686 1.356 . S
N694 H700 0.984 . S
N694 H701 0.984 . S
N695 C688 1.356 . S
N695 H698 0.984 . S
N695 H699 0.985 . S
H696 N691 0.984 . S
H697 N691 0.985 . S
H698 N695 0.984 . S
H699 N695 0.985 . S
H700 N694 0.984 . S
H701 N694 0.984 . S
H702 N690 0.984 . S
H703 N690 0.985 . S
C704 C705 1.363 . S
C704 C710 1.379 . S
C704 N712 1.356 . S
C705 C704 1.363 . S
C705 C711 1.363 . S
C706 C707 1.363 . S
C706 C711 1.379 . S
C706 N713 1.356 . S
C707 C706 1.363 . S
C707 C710 1.363 . S
N708 C710 1.356 . S
N708 H720 0.984 . S
N708 H721 0.985 . S
N709 C711 1.356 . S
N709 H714 0.984 . S
N709 H715 0.985 . S
C710 C704 1.379 . S
C710 C707 1.363 . S
C710 N708 1.356 . S
C711 C705 1.363 . S
C711 C706 1.379 . S
C711 N709 1.356 . S
N712 C704 1.356 . S
N712 H718 0.984 1_455 S
N712 H719 0.982 . S
N713 C706 1.356 . S
N713 H716 0.984 . S
N713 H717 0.985 . S
H714 N709 0.984 . S
H715 N709 0.985 . S
H716 N713 0.984 . S
H717 N713 0.985 . S
H718 N712 0.984 1_655 S
H719 N712 0.982 . S
H720 N708 0.984 . S
H721 N708 0.985 . S
C722 C723 1.363 . S
C722 C728 1.379 . S
C722 N730 1.356 . S
C723 C722 1.363 . S
C723 C729 1.363 . S
C724 C725 1.363 . S
C724 C729 1.379 . S
C724 N731 1.356 . S
C725 C724 1.363 . S
C725 C728 1.363 . S
N726 C728 1.356 . S
N726 H738 0.984 . S
N726 H739 0.985 . S
N727 C729 1.356 . S
N727 H732 0.984 . S
N727 H733 0.985 . S
C728 C722 1.379 . S
C728 C725 1.363 . S
C728 N726 1.356 . S
C729 C723 1.363 . S
C729 C724 1.379 . S
C729 N727 1.356 . S
N730 C722 1.356 . S
N730 H736 0.984 . S
N730 H737 0.984 . S
N731 C724 1.356 . S
N731 H734 0.984 . S
N731 H735 0.985 . S
H732 N727 0.984 . S
H733 N727 0.985 . S
H734 N731 0.984 . S
H735 N731 0.985 . S
H736 N730 0.984 . S
H737 N730 0.984 . S
H738 N726 0.984 . S
H739 N726 0.985 . S
C740 C741 1.363 . S
C740 C746 1.379 . S
C740 N748 1.356 . S
C741 C740 1.363 . S
C741 C747 1.363 . S
C742 C743 1.363 . S
C742 C747 1.379 . S
C742 N749 1.356 . S
C743 C742 1.363 . S
C743 C746 1.363 . S
N744 C746 1.356 . S
N744 H756 0.984 . S
N744 H757 0.985 . S
N745 C747 1.356 . S
N745 H750 0.984 . S
N745 H751 0.985 . S
C746 C740 1.379 . S
C746 C743 1.363 . S
C746 N744 1.356 . S
C747 C741 1.363 . S
C747 C742 1.379 . S
C747 N745 1.356 . S
N748 C740 1.356 . S
N748 H754 0.984 . S
N748 H755 0.984 . S
N749 C742 1.356 . S
N749 H752 0.984 . S
N749 H753 0.985 . S
H750 N745 0.984 . S
H751 N745 0.985 . S
H752 N749 0.984 . S
H753 N749 0.985 . S
H754 N748 0.984 . S
H755 N748 0.984 . S
H756 N744 0.984 . S
H757 N744 0.985 . S
C758 C759 1.363 . S
C758 C764 1.379 . S
C758 N766 1.356 . S
C759 C758 1.363 . S
C759 C765 1.363 . S
C760 C761 1.363 . S
C760 C765 1.379 . S
C760 N767 1.356 . S
C761 C760 1.363 . S
C761 C764 1.363 . S
N762 C764 1.356 . S
N762 H774 0.984 . S
N762 H775 0.985 . S
N763 C765 1.356 . S
N763 H768 0.984 . S
N763 H769 0.985 . S
C764 C758 1.379 . S
C764 C761 1.363 . S
C764 N762 1.356 . S
C765 C759 1.363 . S
C765 C760 1.379 . S
C765 N763 1.356 . S
N766 C758 1.356 . S
N766 H772 0.984 . S
N766 H773 0.984 . S
N767 C760 1.356 . S
N767 H770 0.984 . S
N767 H771 0.985 . S
H768 N763 0.984 . S
H769 N763 0.985 . S
H770 N767 0.984 . S
H771 N767 0.985 . S
H772 N766 0.984 . S
H773 N766 0.984 . S
H774 N762 0.984 . S
H775 N762 0.985 . S
C776 C777 1.363 . S
C776 C782 1.379 . S
C776 N784 1.356 . S
C777 C776 1.363 . S
C777 C783 1.363 . S
C778 C779 1.363 1_655 S
C778 C783 1.379 . S
C778 N785 1.355 1_655 S
C779 C778 1.363 1_455 S
C779 C782 1.363 1_455 S
N780 C782 1.356 . S
N780 H792 0.984 . S
N780 H793 0.985 1_655 S
N781 C783 1.356 1_565 S
N781 H786 0.984 . S
N781 H787 0.985 . S
C782 C776 1.379 . S
C782 C779 1.363 1_655 S
C782 N780 1.356 . S
C783 C777 1.363 . S
C783 C778 1.379 . S
C783 N781 1.356 1_545 S
N784 C776 1.356 . S
N784 H790 0.984 . S
N784 H791 0.984 . S
N785 C778 1.355 1_455 S
N785 H788 0.983 . S
N785 H789 0.987 1_545 S
H786 N781 0.984 . S
H787 N781 0.985 . S
H788 N785 0.983 . S
H789 N785 0.987 1_565 S
H790 N784 0.984 . S
H791 N784 0.984 . S
H792 N780 0.984 . S
H793 N780 0.985 1_455 S
C794 C795 1.363 . S
C794 C800 1.379 . S
C794 N802 1.356 . S
C795 C794 1.363 . S
C795 C801 1.363 . S
C796 C797 1.363 . S
C796 C801 1.379 . S
C796 N803 1.356 . S
C797 C796 1.363 . S
C797 C800 1.363 . S
N798 C800 1.356 . S
N798 H810 0.984 . S
N798 H811 0.985 . S
N799 C801 1.356 . S
N799 H804 0.984 . S
N799 H805 0.985 . S
C800 C794 1.379 . S
C800 C797 1.363 . S
C800 N798 1.356 . S
C801 C795 1.363 . S
C801 C796 1.379 . S
C801 N799 1.356 . S
N802 C794 1.356 . S
N802 H808 0.984 . S
N802 H809 0.984 . S
N803 C796 1.356 . S
N803 H806 0.984 . S
N803 H807 0.985 . S
H804 N799 0.984 . S
H805 N799 0.985 . S
H806 N803 0.984 . S
H807 N803 0.985 . S
H808 N802 0.984 . S
H809 N802 0.984 . S
H810 N798 0.984 . S
H811 N798 0.985 . S
C812 C813 1.363 . S
C812 C818 1.379 . S
C812 N820 1.356 . S
C813 C812 1.363 . S
C813 C819 1.363 . S
C814 C815 1.363 . S
C814 C819 1.379 . S
C814 N821 1.356 . S
C815 C814 1.363 . S
C815 C818 1.363 . S
N816 C818 1.356 . S
N816 H828 0.984 . S
N816 H829 0.985 . S
N817 C819 1.356 . S
N817 H822 0.984 . S
N817 H823 0.985 . S
C818 C812 1.379 . S
C818 C815 1.363 . S
C818 N816 1.356 . S
C819 C813 1.363 . S
C819 C814 1.379 . S
C819 N817 1.356 . S
N820 C812 1.356 . S
N820 H826 0.984 . S
N820 H827 0.984 . S
N821 C814 1.356 . S
N821 H824 0.984 . S
N821 H825 0.985 . S
H822 N817 0.984 . S
H823 N817 0.985 . S
H824 N821 0.984 . S
H825 N821 0.985 . S
H826 N820 0.984 . S
H827 N820 0.984 . S
H828 N816 0.984 . S
H829 N816 0.985 . S
C830 C831 1.363 . S
C830 C836 1.379 . S
C830 N838 1.348 1_556 S
C831 C830 1.363 . S
C831 C837 1.363 . S
C832 C833 1.363 . S
C832 C837 1.379 . S
C832 N839 1.356 . S
C833 C832 1.363 . S
C833 C836 1.363 . S
N834 C836 1.356 . S
N834 H846 0.984 . S
N834 H847 0.985 . S
N835 C837 1.356 . S
N835 H840 0.984 . S
N835 H841 0.985 . S
C836 C830 1.379 . S
C836 C833 1.363 . S
C836 N834 1.356 . S
C837 C831 1.363 . S
C837 C832 1.379 . S
C837 N835 1.356 . S
N838 C830 1.348 1_554 S
N838 H844 0.988 . S
N838 H845 0.989 . S
N839 C832 1.356 . S
N839 H842 0.984 . S
N839 H843 0.985 . S
H840 N835 0.984 . S
H841 N835 0.985 . S
H842 N839 0.984 . S
H843 N839 0.985 . S
H844 N838 0.988 . S
H845 N838 0.989 . S
H846 N834 0.984 . S
H847 N834 0.985 . S
C848 C849 1.363 . S
C848 C854 1.379 . S
C848 N856 1.356 . S
C849 C848 1.363 . S
C849 C855 1.363 1_545 S
C850 C851 1.363 1_565 S
C850 C855 1.379 . S
C850 N857 1.356 . S
C851 C850 1.363 1_545 S
C851 C854 1.363 . S
N852 C854 1.356 1_455 S
N852 H864 0.984 . S
N852 H865 0.985 . S
N853 C855 1.356 . S
N853 H858 0.984 . S
N853 H859 0.985 . S
C854 C848 1.379 . S
C854 C851 1.363 . S
C854 N852 1.356 1_655 S
C855 C849 1.363 1_565 S
C855 C850 1.379 . S
C855 N853 1.356 . S
N856 C848 1.356 . S
N856 H862 0.984 . S
N856 H863 0.984 . S
N857 C850 1.356 . S
N857 H860 0.984 . S
N857 H861 0.985 . S
H858 N853 0.984 . S
H859 N853 0.985 . S
H860 N857 0.984 . S
H861 N857 0.985 . S
H862 N856 0.984 . S
H863 N856 0.984 . S
H864 N852 0.984 . S
H865 N852 0.985 . S
C866 C867 1.363 . S
C866 C872 1.379 . S
C866 N874 1.356 . S
C867 C866 1.363 . S
C867 C873 1.363 . S
C868 C869 1.363 . S
C868 C873 1.379 . S
C868 N875 1.356 . S
C869 C868 1.363 . S
C869 C872 1.363 . S
N870 C872 1.356 . S
N870 H882 0.984 . S
N870 H883 0.985 . S
N871 C873 1.356 . S
N871 H876 0.984 . S
N871 H877 0.985 . S
C872 C866 1.379 . S
C872 C869 1.363 . S
C872 N870 1.356 . S
C873 C867 1.363 . S
C873 C868 1.379 . S
C873 N871 1.356 . S
N874 C866 1.356 . S
N874 H880 0.984 . S
N874 H881 0.984 . S
N875 C868 1.356 . S
N875 H878 0.984 . S
N875 H879 0.985 . S
H876 N871 0.984 . S
H877 N871 0.985 . S
H878 N875 0.984 . S
H879 N875 0.985 . S
H880 N874 0.984 . S
H881 N874 0.984 . S
H882 N870 0.984 . S
H883 N870 0.985 . S
C884 C885 1.361 1_565 S
C884 C890 1.376 1_565 S
C884 N892 1.361 . S
C885 C884 1.361 1_545 S
C885 C891 1.363 . S
C886 C887 1.363 . S
C886 C891 1.379 . S
C886 N893 1.356 . S
C887 C886 1.363 . S
C887 C890 1.363 . S
N888 C890 1.364 . S
N888 H900 0.956 1_545 S
N888 H901 1.007 . S
N889 C891 1.356 . S
N889 H894 0.984 . S
N889 H895 0.985 . S
C890 C884 1.376 1_545 S
C890 C887 1.363 . S
C890 N888 1.364 . S
C891 C885 1.363 . S
C891 C886 1.379 . S
C891 N889 1.356 . S
N892 C884 1.361 . S
N892 H898 0.984 . S
N892 H899 0.984 . S
N893 C886 1.356 . S
N893 H896 0.984 . S
N893 H897 0.985 . S
H894 N889 0.984 . S
H895 N889 0.985 . S
H896 N893 0.984 . S
H897 N893 0.985 . S
H898 N892 0.984 . S
H899 N892 0.984 . S
H900 N888 0.956 1_565 S
H901 N888 1.007 . S
C902 C903 1.363 . S
C902 C908 1.379 . S
C902 N910 1.356 . S
C903 C902 1.363 . S
C903 C909 1.363 . S
C904 C905 1.363 . S
C904 C909 1.379 . S
C904 N911 1.356 . S
C905 C904 1.363 . S
C905 C908 1.363 . S
N906 C908 1.356 . S
N906 H918 0.984 . S
N906 H919 0.985 . S
N907 C909 1.356 . S
N907 H912 0.984 . S
N907 H913 0.985 . S
C908 C902 1.379 . S
C908 C905 1.363 . S
C908 N906 1.356 . S
C909 C903 1.363 . S
C909 C904 1.379 . S
C909 N907 1.356 . S
N910 C902 1.356 . S
N910 H916 0.984 . S
N910 H917 0.984 . S
N911 C904 1.356 . S
N911 H914 0.984 . S
N911 H915 0.985 . S
H912 N907 0.984 . S
H913 N907 0.985 . S
H914 N911 0.984 . S
H915 N911 0.985 . S
H916 N910 0.984 . S
H917 N910 0.984 . S
H918 N906 0.984 . S
H919 N906 0.985 . S
C920 C921 1.363 . S
C920 C926 1.379 . S
C920 N928 1.356 1_554 S
C921 C920 1.363 . S
C921 C927 1.363 . S
C922 C923 1.363 . S
C922 C927 1.379 . S
C922 N929 1.356 . S
C923 C922 1.363 . S
C923 C926 1.363 . S
N924 C926 1.356 1_545 S
N924 H936 0.984 . S
N924 H937 0.985 . S
N925 C927 1.356 . S
N925 H930 0.984 . S
N925 H931 0.985 . S
C926 C920 1.379 . S
C926 C923 1.363 . S
C926 N924 1.356 1_565 S
C927 C921 1.363 . S
C927 C922 1.379 . S
C927 N925 1.356 . S
N928 C920 1.356 1_556 S
N928 H934 0.984 . S
N928 H935 0.984 . S
N929 C922 1.356 . S
N929 H932 0.984 . S
N929 H933 0.985 . S
H930 N925 0.984 . S
H931 N925 0.985 . S
H932 N929 0.984 . S
H933 N929 0.985 . S
H934 N928 0.984 . S
H935 N928 0.984 . S
H936 N924 0.984 . S
H937 N924 0.985 . S
C938 C939 1.363 1_554 S
C938 C944 1.379 . S
C938 N946 1.356 . S
C939 C938 1.363 1_556 S
C939 C945 1.363 . S
C940 C941 1.363 1_556 S
C940 C945 1.379 . S
C940 N947 1.356 . S
C941 C940 1.363 1_554 S
C941 C944 1.363 . S
N942 C944 1.356 . S
N942 H954 0.984 . S
N942 H955 0.985 . S
N943 C945 1.356 . S
N943 H948 0.984 . S
N943 H949 0.985 . S
C944 C938 1.379 . S
C944 C941 1.363 . S
C944 N942 1.356 . S
C945 C939 1.363 . S
C945 C940 1.379 . S
C945 N943 1.356 . S
N946 C938 1.356 . S
N946 H952 0.984 . S
N946 H953 0.984 . S
N947 C940 1.356 . S
N947 H950 0.984 . S
N947 H951 0.985 . S
H948 N943 0.984 . S
H949 N943 0.985 . S
H950 N947 0.984 . S
H951 N947 0.985 . S
H952 N946 0.984 . S
H953 N946 0.984 . S
H954 N942 0.984 . S
H955 N942 0.985 . S
C956 C957 1.363 . S
C956 C962 1.379 . S
C956 N964 1.356 . S
C957 C956 1.363 . S
C957 C963 1.363 . S
C958 C959 1.363 . S
C958 C963 1.379 . S
C958 N965 1.356 . S
C959 C958 1.363 . S
C959 C962 1.363 . S
N960 C962 1.356 . S
N960 H972 0.984 . S
N960 H973 0.985 . S
N961 C963 1.356 . S
N961 H966 0.984 . S
N961 H967 0.985 . S
C962 C956 1.379 . S
C962 C959 1.363 . S
C962 N960 1.356 . S
C963 C957 1.363 . S
C963 C958 1.379 . S
C963 N961 1.356 . S
N964 C956 1.356 . S
N964 H970 0.984 . S
N964 H971 0.984 . S
N965 C958 1.356 . S
N965 H968 0.984 . S
N965 H969 0.985 . S
H966 N961 0.984 . S
H967 N961 0.985 . S
H968 N965 0.984 . S
H969 N965 0.985 . S
H970 N964 0.984 . S
H971 N964 0.984 . S
H972 N960 0.984 . S
H973 N960 0.985 . S
C974 C975 1.363 . S
C974 C980 1.379 . S
C974 N982 1.356 . S
C975 C974 1.363 . S
C975 C981 1.363 . S
C976 C977 1.363 . S
C976 C981 1.379 . S
C976 N983 1.356 . S
C977 C976 1.363 . S
C977 C980 1.363 . S
N978 C980 1.356 . S
N978 H990 0.984 . S
N978 H991 0.985 . S
N979 C981 1.356 . S
N979 H984 0.984 . S
N979 H985 0.985 . S
C980 C974 1.379 . S
C980 C977 1.363 . S
C980 N978 1.356 . S
C981 C975 1.363 . S
C981 C976 1.379 . S
C981 N979 1.356 . S
N982 C974 1.356 . S
N982 H988 0.984 . S
N982 H989 0.984 . S
N983 C976 1.356 . S
N983 H986 0.984 . S
N983 H987 0.985 . S
H984 N979 0.984 . S
H985 N979 0.985 . S
H986 N983 0.984 . S
H987 N983 0.985 . S
H988 N982 0.984 . S
H989 N982 0.984 . S
H990 N978 0.984 . S
H991 N978 0.985 . S
C992 C993 1.363 . S
C992 C998 1.379 . S
C992 N1000 1.356 . S
C993 C992 1.363 . S
C993 C999 1.363 . S
C994 C995 1.363 . S
C994 C999 1.379 . S
C994 N1001 1.356 . S
C995 C994 1.363 . S
C995 C998 1.363 . S
N996 C998 1.356 . S
N996 H1008 0.984 . S
N996 H1009 0.985 . S
N997 C999 1.356 . S
N997 H1002 0.984 . S
N997 H1003 0.985 . S
C998 C992 1.379 . S
C998 C995 1.363 . S
C998 N996 1.356 . S
C999 C993 1.363 . S
C999 C994 1.379 . S
C999 N997 1.356 . S
N1000 C992 1.356 . S
N1000 H1006 0.984 . S
N1000 H1007 0.984 . S
N1001 C994 1.356 . S
N1001 H1004 0.984 . S
N1001 H1005 0.985 . S
H1002 N997 0.984 . S
H1003 N997 0.985 . S
H1004 N1001 0.984 . S
H1005 N1001 0.985 . S
H1006 N1000 0.984 . S
H1007 N1000 0.984 . S
H1008 N996 0.984 . S
H1009 N996 0.985 . S
C1010 C1011 1.363 . S
C1010 C1016 1.379 . S
C1010 N1018 1.356 . S
C1011 C1010 1.363 . S
C1011 C1017 1.363 . S
C1012 C1013 1.363 . S
C1012 C1017 1.379 . S
C1012 N1019 1.356 . S
C1013 C1012 1.363 . S
C1013 C1016 1.363 . S
N1014 C1016 1.356 . S
N1014 H1026 0.984 . S
N1014 H1027 0.985 . S
N1015 C1017 1.356 . S
N1015 H1020 0.984 . S
N1015 H1021 0.985 . S
C1016 C1010 1.379 . S
C1016 C1013 1.363 . S
C1016 N1014 1.356 . S
C1017 C1011 1.363 . S
C1017 C1012 1.379 . S
C1017 N1015 1.356 . S
N1018 C1010 1.356 . S
N1018 H1024 0.984 . S
N1018 H1025 0.984 . S
N1019 C1012 1.356 . S
N1019 H1022 0.984 . S
N1019 H1023 0.985 . S
H1020 N1015 0.984 . S
H1021 N1015 0.985 . S
H1022 N1019 0.984 . S
H1023 N1019 0.985 . S
H1024 N1018 0.984 . S
H1025 N1018 0.984 . S
H1026 N1014 0.984 . S
H1027 N1014 0.985 . S
C1028 C1029 1.363 . S
C1028 C1034 1.379 . S
C1028 N1036 1.356 . S
C1029 C1028 1.363 . S
C1029 C1035 1.363 . S
C1030 C1031 1.363 . S
C1030 C1035 1.379 . S
C1030 N1037 1.356 . S
C1031 C1030 1.363 . S
C1031 C1034 1.363 . S
N1032 C1034 1.356 . S
N1032 H1044 0.984 . S
N1032 H1045 0.985 . S
N1033 C1035 1.356 . S
N1033 H1038 0.984 . S
N1033 H1039 0.985 . S
C1034 C1028 1.379 . S
C1034 C1031 1.363 . S
C1034 N1032 1.356 . S
C1035 C1029 1.363 . S
C1035 C1030 1.379 . S
C1035 N1033 1.356 . S
N1036 C1028 1.356 . S
N1036 H1042 0.984 . S
N1036 H1043 0.984 . S
N1037 C1030 1.356 . S
N1037 H1040 0.984 . S
N1037 H1041 0.985 . S
H1038 N1033 0.984 . S
H1039 N1033 0.985 . S
H1040 N1037 0.984 . S
H1041 N1037 0.985 . S
H1042 N1036 0.984 . S
H1043 N1036 0.984 . S
H1044 N1032 0.984 . S
H1045 N1032 0.985 . S
C1046 C1047 1.363 . S
C1046 C1052 1.379 . S
C1046 N1054 1.356 . S
C1047 C1046 1.363 . S
C1047 C1053 1.363 . S
C1048 C1049 1.363 . S
C1048 C1053 1.379 . S
C1048 N1055 1.356 . S
C1049 C1048 1.363 . S
C1049 C1052 1.363 . S
N1050 C1052 1.356 . S
N1050 H1062 0.984 . S
N1050 H1063 0.985 . S
N1051 C1053 1.356 . S
N1051 H1056 0.984 . S
N1051 H1057 0.985 . S
C1052 C1046 1.379 . S
C1052 C1049 1.363 . S
C1052 N1050 1.356 . S
C1053 C1047 1.363 . S
C1053 C1048 1.379 . S
C1053 N1051 1.356 . S
N1054 C1046 1.356 . S
N1054 H1060 0.984 . S
N1054 H1061 0.984 . S
N1055 C1048 1.356 . S
N1055 H1058 0.984 . S
N1055 H1059 0.985 . S
H1056 N1051 0.984 . S
H1057 N1051 0.985 . S
H1058 N1055 0.984 . S
H1059 N1055 0.985 . S
H1060 N1054 0.984 . S
H1061 N1054 0.984 . S
H1062 N1050 0.984 . S
H1063 N1050 0.985 . S
C1064 C1065 1.363 . S
C1064 C1070 1.379 . S
C1064 N1072 1.356 . S
C1065 C1064 1.363 . S
C1065 C1071 1.363 . S
C1066 C1067 1.363 . S
C1066 C1071 1.379 . S
C1066 N1073 1.356 . S
C1067 C1066 1.363 . S
C1067 C1070 1.363 . S
N1068 C1070 1.356 . S
N1068 H1080 0.984 . S
N1068 H1081 0.985 . S
N1069 C1071 1.356 . S
N1069 H1074 0.984 . S
N1069 H1075 0.985 . S
C1070 C1064 1.379 . S
C1070 C1067 1.363 . S
C1070 N1068 1.356 . S
C1071 C1065 1.363 . S
C1071 C1066 1.379 . S
C1071 N1069 1.356 . S
N1072 C1064 1.356 . S
N1072 H1078 0.984 . S
N1072 H1079 0.984 . S
N1073 C1066 1.356 . S
N1073 H1076 0.984 . S
N1073 H1077 0.985 . S
H1074 N1069 0.984 . S
H1075 N1069 0.985 . S
H1076 N1073 0.984 . S
H1077 N1073 0.985 . S
H1078 N1072 0.984 . S
H1079 N1072 0.984 . S
H1080 N1068 0.984 . S
H1081 N1068 0.985 . S
C1082 C1083 1.363 . S
C1082 C1088 1.379 . S
C1082 N1090 1.356 . S
C1083 C1082 1.363 . S
C1083 C1089 1.363 . S
C1084 C1085 1.363 . S
C1084 C1089 1.379 . S
C1084 N1091 1.356 . S
C1085 C1084 1.363 . S
C1085 C1088 1.363 . S
N1086 C1088 1.356 . S
N1086 H1098 0.984 . S
N1086 H1099 0.985 . S
N1087 C1089 1.356 . S
N1087 H1092 0.984 . S
N1087 H1093 0.985 . S
C1088 C1082 1.379 . S
C1088 C1085 1.363 . S
C1088 N1086 1.356 . S
C1089 C1083 1.363 . S
C1089 C1084 1.379 . S
C1089 N1087 1.356 . S
N1090 C1082 1.356 . S
N1090 H1096 0.984 . S
N1090 H1097 0.984 . S
N1091 C1084 1.356 . S
N1091 H1094 0.984 . S
N1091 H1095 0.985 . S
H1092 N1087 0.984 . S
H1093 N1087 0.985 . S
H1094 N1091 0.984 . S
H1095 N1091 0.985 . S
H1096 N1090 0.984 . S
H1097 N1090 0.984 . S
H1098 N1086 0.984 . S
H1099 N1086 0.985 . S
C1100 C1101 1.363 . S
C1100 C1106 1.379 . S
C1100 N1108 1.356 . S
C1101 C1100 1.363 . S
C1101 C1107 1.363 . S
C1102 C1103 1.363 . S
C1102 C1107 1.379 . S
C1102 N1109 1.356 . S
C1103 C1102 1.363 . S
C1103 C1106 1.363 . S
N1104 C1106 1.356 . S
N1104 H1116 0.984 . S
N1104 H1117 0.985 . S
N1105 C1107 1.356 . S
N1105 H1110 0.984 . S
N1105 H1111 0.985 . S
C1106 C1100 1.379 . S
C1106 C1103 1.363 . S
C1106 N1104 1.356 . S
C1107 C1101 1.363 . S
C1107 C1102 1.379 . S
C1107 N1105 1.356 . S
N1108 C1100 1.356 . S
N1108 H1114 0.984 . S
N1108 H1115 0.984 . S
N1109 C1102 1.356 . S
N1109 H1112 0.984 . S
N1109 H1113 0.985 . S
H1110 N1105 0.984 . S
H1111 N1105 0.985 . S
H1112 N1109 0.984 . S
H1113 N1109 0.985 . S
H1114 N1108 0.984 . S
H1115 N1108 0.984 . S
H1116 N1104 0.984 . S
H1117 N1104 0.985 . S
C1118 C1119 1.363 . S
C1118 C1124 1.379 . S
C1118 N1126 1.356 . S
C1119 C1118 1.363 . S
C1119 C1125 1.363 . S
C1120 C1121 1.363 . S
C1120 C1125 1.379 . S
C1120 N1127 1.356 . S
C1121 C1120 1.363 . S
C1121 C1124 1.363 . S
N1122 C1124 1.356 . S
N1122 H1134 0.984 . S
N1122 H1135 0.985 . S
N1123 C1125 1.356 . S
N1123 H1128 0.984 . S
N1123 H1129 0.985 . S
C1124 C1118 1.379 . S
C1124 C1121 1.363 . S
C1124 N1122 1.356 . S
C1125 C1119 1.363 . S
C1125 C1120 1.379 . S
C1125 N1123 1.356 . S
N1126 C1118 1.356 . S
N1126 H1132 0.984 . S
N1126 H1133 0.984 . S
N1127 C1120 1.356 . S
N1127 H1130 0.984 . S
N1127 H1131 0.985 . S
H1128 N1123 0.984 . S
H1129 N1123 0.985 . S
H1130 N1127 0.984 . S
H1131 N1127 0.985 . S
H1132 N1126 0.984 . S
H1133 N1126 0.984 . S
H1134 N1122 0.984 . S
H1135 N1122 0.985 . S
C1136 C1137 1.363 . S
C1136 C1142 1.379 . S
C1136 N1144 1.356 . S
C1137 C1136 1.363 . S
C1137 C1143 1.363 . S
C1138 C1139 1.363 . S
C1138 C1143 1.379 . S
C1138 N1145 1.356 . S
C1139 C1138 1.363 . S
C1139 C1142 1.363 . S
N1140 C1142 1.356 . S
N1140 H1152 0.984 . S
N1140 H1153 0.985 . S
N1141 C1143 1.356 . S
N1141 H1146 0.984 . S
N1141 H1147 0.985 . S
C1142 C1136 1.379 . S
C1142 C1139 1.363 . S
C1142 N1140 1.356 . S
C1143 C1137 1.363 . S
C1143 C1138 1.379 . S
C1143 N1141 1.356 . S
N1144 C1136 1.356 . S
N1144 H1150 0.984 . S
N1144 H1151 0.984 . S
N1145 C1138 1.356 . S
N1145 H1148 0.984 . S
N1145 H1149 0.985 . S
H1146 N1141 0.984 . S
H1147 N1141 0.985 . S
H1148 N1145 0.984 . S
H1149 N1145 0.985 . S
H1150 N1144 0.984 . S
H1151 N1144 0.984 . S
H1152 N1140 0.984 . S
H1153 N1140 0.985 . S
C1154 C1155 1.363 . S
C1154 C1160 1.379 . S
C1154 N1162 1.356 . S
C1155 C1154 1.363 . S
C1155 C1161 1.363 . S
C1156 C1157 1.363 . S
C1156 C1161 1.379 . S
C1156 N1163 1.356 . S
C1157 C1156 1.363 . S
C1157 C1160 1.363 . S
N1158 C1160 1.356 . S
N1158 H1170 0.984 . S
N1158 H1171 0.985 . S
N1159 C1161 1.356 . S
N1159 H1164 0.984 . S
N1159 H1165 0.985 . S
C1160 C1154 1.379 . S
C1160 C1157 1.363 . S
C1160 N1158 1.356 . S
C1161 C1155 1.363 . S
C1161 C1156 1.379 . S
C1161 N1159 1.356 . S
N1162 C1154 1.356 . S
N1162 H1168 0.984 . S
N1162 H1169 0.984 . S
N1163 C1156 1.356 . S
N1163 H1166 0.984 . S
N1163 H1167 0.985 . S
H1164 N1159 0.984 . S
H1165 N1159 0.985 . S
H1166 N1163 0.984 . S
H1167 N1163 0.985 . S
H1168 N1162 0.984 . S
H1169 N1162 0.984 . S
H1170 N1158 0.984 . S
H1171 N1158 0.985 . S
C1172 C1173 1.363 . S
C1172 C1178 1.379 . S
C1172 N1180 1.356 . S
C1173 C1172 1.363 . S
C1173 C1179 1.363 . S
C1174 C1175 1.363 1_554 S
C1174 C1179 1.379 1_554 S
C1174 N1181 1.356 . S
C1175 C1174 1.363 1_556 S
C1175 C1178 1.363 . S
N1176 C1178 1.356 . S
N1176 H1188 0.984 . S
N1176 H1189 0.985 . S
N1177 C1179 1.356 . S
N1177 H1182 0.984 . S
N1177 H1183 0.985 1_556 S
C1178 C1172 1.379 . S
C1178 C1175 1.363 . S
C1178 N1176 1.356 . S
C1179 C1173 1.363 . S
C1179 C1174 1.379 1_556 S
C1179 N1177 1.356 . S
N1180 C1172 1.356 . S
N1180 H1186 0.984 . S
N1180 H1187 0.984 . S
N1181 C1174 1.356 . S
N1181 H1184 0.984 . S
N1181 H1185 0.985 . S
H1182 N1177 0.984 . S
H1183 N1177 0.985 1_554 S
H1184 N1181 0.984 . S
H1185 N1181 0.985 . S
H1186 N1180 0.984 . S
H1187 N1180 0.984 . S
H1188 N1176 0.984 . S
H1189 N1176 0.985 . S
C1190 C1191 1.363 . S
C1190 C1196 1.379 . S
C1190 N1198 1.356 . S
C1191 C1190 1.363 . S
C1191 C1197 1.363 . S
C1192 C1193 1.363 . S
C1192 C1197 1.379 . S
C1192 N1199 1.356 . S
C1193 C1192 1.363 . S
C1193 C1196 1.363 . S
N1194 C1196 1.356 . S
N1194 H1206 0.984 . S
N1194 H1207 0.985 . S
N1195 C1197 1.356 . S
N1195 H1200 0.984 . S
N1195 H1201 0.985 . S
C1196 C1190 1.379 . S
C1196 C1193 1.363 . S
C1196 N1194 1.356 . S
C1197 C1191 1.363 . S
C1197 C1192 1.379 . S
C1197 N1195 1.356 . S
N1198 C1190 1.356 . S
N1198 H1204 0.984 . S
N1198 H1205 0.984 . S
N1199 C1192 1.356 . S
N1199 H1202 0.984 . S
N1199 H1203 0.985 . S
H1200 N1195 0.984 . S
H1201 N1195 0.985 . S
H1202 N1199 0.984 . S
H1203 N1199 0.985 . S
H1204 N1198 0.984 . S
H1205 N1198 0.984 . S
H1206 N1194 0.984 . S
H1207 N1194 0.985 . S
C1208 C1209 1.363 . S
C1208 C1214 1.379 . S
C1208 N1216 1.356 1_545 S
C1209 C1208 1.363 . S
C1209 C1215 1.363 . S
C1210 C1211 1.363 . S
C1210 C1215 1.379 . S
C1210 N1217 1.356 . S
C1211 C1210 1.363 . S
C1211 C1214 1.363 . S
N1212 C1214 1.356 1_565 S
N1212 H1224 0.984 . S
N1212 H1225 0.985 . S
N1213 C1215 1.356 . S
N1213 H1218 0.984 . S
N1213 H1219 0.985 . S
C1214 C1208 1.379 . S
C1214 C1211 1.363 . S
C1214 N1212 1.356 1_545 S
C1215 C1209 1.363 . S
C1215 C1210 1.379 . S
C1215 N1213 1.356 . S
N1216 C1208 1.356 1_565 S
N1216 H1222 0.984 . S
N1216 H1223 0.984 . S
N1217 C1210 1.356 . S
N1217 H1220 0.984 1_556 S
N1217 H1221 0.985 . S
H1218 N1213 0.984 . S
H1219 N1213 0.985 . S
H1220 N1217 0.984 1_554 S
H1221 N1217 0.985 . S
H1222 N1216 0.984 . S
H1223 N1216 0.984 . S
H1224 N1212 0.984 . S
H1225 N1212 0.985 . S
C1226 C1227 1.363 . S
C1226 C1232 1.379 . S
C1226 N1234 1.356 . S
C1227 C1226 1.363 . S
C1227 C1233 1.363 . S
C1228 C1229 1.363 . S
C1228 C1233 1.379 . S
C1228 N1235 1.356 . S
C1229 C1228 1.363 . S
C1229 C1232 1.363 . S
N1230 C1232 1.356 . S
N1230 H1242 0.984 . S
N1230 H1243 0.985 . S
N1231 C1233 1.356 . S
N1231 H1236 0.984 . S
N1231 H1237 0.985 . S
C1232 C1226 1.379 . S
C1232 C1229 1.363 . S
C1232 N1230 1.356 . S
C1233 C1227 1.363 . S
C1233 C1228 1.379 . S
C1233 N1231 1.356 . S
N1234 C1226 1.356 . S
N1234 H1240 0.984 . S
N1234 H1241 0.984 . S
N1235 C1228 1.356 . S
N1235 H1238 0.984 . S
N1235 H1239 0.985 . S
H1236 N1231 0.984 . S
H1237 N1231 0.985 . S
H1238 N1235 0.984 . S
H1239 N1235 0.985 . S
H1240 N1234 0.984 . S
H1241 N1234 0.984 . S
H1242 N1230 0.984 . S
H1243 N1230 0.985 . S
C1244 C1245 1.346 1_565 S
C1244 C1250 1.384 . S
C1244 N1252 1.364 . S
C1245 C1244 1.346 1_545 S
C1245 C1251 1.363 . S
C1246 C1247 1.363 . S
C1246 C1251 1.379 . S
C1246 N1253 1.356 . S
C1247 C1246 1.363 . S
C1247 C1250 1.363 1_545 S
N1248 C1250 1.356 . S
N1248 H1260 0.984 . S
N1248 H1261 0.985 . S
N1249 C1251 1.356 . S
N1249 H1254 0.984 . S
N1249 H1255 0.985 . S
C1250 C1244 1.384 . S
C1250 C1247 1.363 1_565 S
C1250 N1248 1.356 . S
C1251 C1245 1.363 . S
C1251 C1246 1.379 . S
C1251 N1249 1.356 . S
N1252 C1244 1.364 . S
N1252 H1258 0.984 . S
N1252 H1259 0.984 . S
N1253 C1246 1.356 . S
N1253 H1256 0.984 . S
N1253 H1257 0.985 . S
H1254 N1249 0.984 . S
H1255 N1249 0.985 . S
H1256 N1253 0.984 . S
H1257 N1253 0.985 . S
H1258 N1252 0.984 . S
H1259 N1252 0.984 . S
H1260 N1248 0.984 . S
H1261 N1248 0.985 . S
C1262 C1263 1.363 . S
C1262 C1268 1.379 . S
C1262 N1270 1.356 . S
C1263 C1262 1.363 . S
C1263 C1269 1.363 . S
C1264 C1265 1.363 . S
C1264 C1269 1.379 . S
C1264 N1271 1.356 . S
C1265 C1264 1.363 . S
C1265 C1268 1.363 . S
N1266 C1268 1.356 . S
N1266 H1278 0.984 . S
N1266 H1279 0.985 . S
N1267 C1269 1.356 . S
N1267 H1272 0.984 . S
N1267 H1273 0.985 . S
C1268 C1262 1.379 . S
C1268 C1265 1.363 . S
C1268 N1266 1.356 . S
C1269 C1263 1.363 . S
C1269 C1264 1.379 . S
C1269 N1267 1.356 . S
N1270 C1262 1.356 . S
N1270 H1276 0.984 . S
N1270 H1277 0.984 . S
N1271 C1264 1.356 . S
N1271 H1274 0.984 . S
N1271 H1275 0.985 . S
H1272 N1267 0.984 . S
H1273 N1267 0.985 . S
H1274 N1271 0.984 . S
H1275 N1271 0.985 . S
H1276 N1270 0.984 . S
H1277 N1270 0.984 . S
H1278 N1266 0.984 . S
H1279 N1266 0.985 . S
C1280 C1281 1.363 1_565 S
C1280 C1286 1.379 . S
C1280 N1288 1.356 . S
C1281 C1280 1.363 1_545 S
C1281 C1287 1.363 . S
C1282 C1283 1.363 . S
C1282 C1287 1.379 . S
C1282 N1289 1.356 . S
C1283 C1282 1.363 . S
C1283 C1286 1.363 1_545 S
N1284 C1286 1.356 . S
N1284 H1296 0.984 . S
N1284 H1297 0.985 . S
N1285 C1287 1.356 . S
N1285 H1290 0.984 . S
N1285 H1291 0.985 . S
C1286 C1280 1.379 . S
C1286 C1283 1.363 1_565 S
C1286 N1284 1.356 . S
C1287 C1281 1.363 . S
C1287 C1282 1.379 . S
C1287 N1285 1.356 . S
N1288 C1280 1.356 . S
N1288 H1294 0.984 . S
N1288 H1295 0.984 . S
N1289 C1282 1.356 . S
N1289 H1292 0.984 . S
N1289 H1293 0.985 . S
H1290 N1285 0.984 . S
H1291 N1285 0.985 . S
H1292 N1289 0.984 . S
H1293 N1289 0.985 . S
H1294 N1288 0.984 . S
H1295 N1288 0.984 . S
H1296 N1284 0.984 . S
H1297 N1284 0.985 . S
C1298 C1299 1.363 . S
C1298 C1304 1.379 . S
C1298 N1306 1.356 . S
C1299 C1298 1.363 . S
C1299 C1305 1.363 . S
C1300 C1301 1.363 . S
C1300 C1305 1.379 . S
C1300 N1307 1.356 . S
C1301 C1300 1.363 . S
C1301 C1304 1.363 . S
N1302 C1304 1.356 . S
N1302 H1314 0.984 . S
N1302 H1315 0.985 . S
N1303 C1305 1.356 . S
N1303 H1308 0.984 . S
N1303 H1309 0.985 . S
C1304 C1298 1.379 . S
C1304 C1301 1.363 . S
C1304 N1302 1.356 . S
C1305 C1299 1.363 . S
C1305 C1300 1.379 . S
C1305 N1303 1.356 . S
N1306 C1298 1.356 . S
N1306 H1312 0.984 . S
N1306 H1313 0.984 . S
N1307 C1300 1.356 . S
N1307 H1310 0.984 . S
N1307 H1311 0.985 . S
H1308 N1303 0.984 . S
H1309 N1303 0.985 . S
H1310 N1307 0.984 . S
H1311 N1307 0.985 . S
H1312 N1306 0.984 . S
H1313 N1306 0.984 . S
H1314 N1302 0.984 . S
H1315 N1302 0.985 . S
C1316 C1317 1.363 . S
C1316 C1322 1.379 . S
C1316 N1324 1.356 . S
C1317 C1316 1.363 . S
C1317 C1323 1.363 . S
C1318 C1319 1.363 1_565 S
C1318 C1323 1.379 1_565 S
C1318 N1325 1.356 . S
C1319 C1318 1.363 1_545 S
C1319 C1322 1.363 . S
N1320 C1322 1.356 . S
N1320 H1332 0.984 . S
N1320 H1333 0.985 . S
N1321 C1323 1.356 1_565 S
N1321 H1326 0.984 1_565 S
N1321 H1327 0.985 . S
C1322 C1316 1.379 . S
C1322 C1319 1.363 . S
C1322 N1320 1.356 . S
C1323 C1317 1.363 . S
C1323 C1318 1.379 1_545 S
C1323 N1321 1.356 1_545 S
N1324 C1316 1.356 . S
N1324 H1330 0.984 . S
N1324 H1331 0.984 . S
N1325 C1318 1.356 . S
N1325 H1328 0.984 . S
N1325 H1329 0.985 . S
H1326 N1321 0.984 1_545 S
H1327 N1321 0.985 . S
H1328 N1325 0.984 . S
H1329 N1325 0.985 . S
H1330 N1324 0.984 . S
H1331 N1324 0.984 . S
H1332 N1320 0.984 . S
H1333 N1320 0.985 . S
C1334 C1335 1.363 . S
C1334 C1340 1.379 . S
C1334 N1342 1.356 . S
C1335 C1334 1.363 . S
C1335 C1341 1.363 . S
C1336 C1337 1.363 . S
C1336 C1341 1.379 . S
C1336 N1343 1.356 . S
C1337 C1336 1.363 . S
C1337 C1340 1.363 . S
N1338 C1340 1.356 . S
N1338 H1350 0.984 . S
N1338 H1351 0.985 . S
N1339 C1341 1.356 . S
N1339 H1344 0.984 . S
N1339 H1345 0.985 . S
C1340 C1334 1.379 . S
C1340 C1337 1.363 . S
C1340 N1338 1.356 . S
C1341 C1335 1.363 . S
C1341 C1336 1.379 . S
C1341 N1339 1.356 . S
N1342 C1334 1.356 . S
N1342 H1348 0.984 . S
N1342 H1349 0.984 . S
N1343 C1336 1.356 . S
N1343 H1346 0.984 . S
N1343 H1347 0.985 . S
H1344 N1339 0.984 . S
H1345 N1339 0.985 . S
H1346 N1343 0.984 . S
H1347 N1343 0.985 . S
H1348 N1342 0.984 . S
H1349 N1342 0.984 . S
H1350 N1338 0.984 . S
H1351 N1338 0.985 . S
C1352 C1353 1.363 . S
C1352 C1358 1.379 . S
C1352 N1360 1.356 1_554 S
C1353 C1352 1.363 . S
C1353 C1359 1.363 . S
C1354 C1355 1.363 . S
C1354 C1359 1.379 . S
C1354 N1361 1.356 . S
C1355 C1354 1.363 . S
C1355 C1358 1.363 . S
N1356 C1358 1.356 1_556 S
N1356 H1368 0.984 . S
N1356 H1369 0.985 . S
N1357 C1359 1.356 . S
N1357 H1362 0.984 . S
N1357 H1363 0.985 . S
C1358 C1352 1.379 . S
C1358 C1355 1.363 . S
C1358 N1356 1.356 1_554 S
C1359 C1353 1.363 . S
C1359 C1354 1.379 . S
C1359 N1357 1.356 . S
N1360 C1352 1.356 1_556 S
N1360 H1366 0.984 . S
N1360 H1367 0.984 1_556 S
N1361 C1354 1.356 . S
N1361 H1364 0.984 . S
N1361 H1365 0.985 . S
H1362 N1357 0.984 . S
H1363 N1357 0.985 . S
H1364 N1361 0.984 . S
H1365 N1361 0.985 . S
H1366 N1360 0.984 . S
H1367 N1360 0.984 1_554 S
H1368 N1356 0.984 . S
H1369 N1356 0.985 . S
C1370 C1371 1.363 . S
C1370 C1376 1.379 . S
C1370 N1378 1.356 . S
C1371 C1370 1.363 . S
C1371 C1377 1.363 . S
C1372 C1373 1.363 . S
C1372 C1377 1.379 . S
C1372 N1379 1.356 . S
C1373 C1372 1.363 . S
C1373 C1376 1.363 . S
N1374 C1376 1.356 . S
N1374 H1386 0.984 . S
N1374 H1387 0.985 . S
N1375 C1377 1.356 . S
N1375 H1380 0.984 . S
N1375 H1381 0.985 . S
C1376 C1370 1.379 . S
C1376 C1373 1.363 . S
C1376 N1374 1.356 . S
C1377 C1371 1.363 . S
C1377 C1372 1.379 . S
C1377 N1375 1.356 . S
N1378 C1370 1.356 . S
N1378 H1384 0.984 . S
N1378 H1385 0.984 . S
N1379 C1372 1.356 . S
N1379 H1382 0.984 . S
N1379 H1383 0.985 . S
H1380 N1375 0.984 . S
H1381 N1375 0.985 . S
H1382 N1379 0.984 . S
H1383 N1379 0.985 . S
H1384 N1378 0.984 . S
H1385 N1378 0.984 . S
H1386 N1374 0.984 . S
H1387 N1374 0.985 . S
C1388 C1389 1.363 . S
C1388 C1394 1.379 . S
C1388 N1396 1.356 . S
C1389 C1388 1.363 . S
C1389 C1395 1.363 . S
C1390 C1391 1.363 . S
C1390 C1395 1.379 . S
C1390 N1397 1.356 . S
C1391 C1390 1.363 . S
C1391 C1394 1.363 . S
N1392 C1394 1.356 . S
N1392 H1404 0.984 . S
N1392 H1405 0.985 . S
N1393 C1395 1.356 . S
N1393 H1398 0.984 . S
N1393 H1399 0.985 . S
C1394 C1388 1.379 . S
C1394 C1391 1.363 . S
C1394 N1392 1.356 . S
C1395 C1389 1.363 . S
C1395 C1390 1.379 . S
C1395 N1393 1.356 . S
N1396 C1388 1.356 . S
N1396 H1402 0.984 . S
N1396 H1403 0.984 . S
N1397 C1390 1.356 . S
N1397 H1400 0.984 . S
N1397 H1401 0.985 . S
H1398 N1393 0.984 . S
H1399 N1393 0.985 . S
H1400 N1397 0.984 . S
H1401 N1397 0.985 . S
H1402 N1396 0.984 . S
H1403 N1396 0.984 . S
H1404 N1392 0.984 . S
H1405 N1392 0.985 . S
C1406 C1407 1.363 . S
C1406 C1412 1.379 . S
C1406 N1414 1.356 . S
C1407 C1406 1.363 . S
C1407 C1413 1.363 . S
C1408 C1409 1.363 . S
C1408 C1413 1.379 . S
C1408 N1415 1.356 . S
C1409 C1408 1.363 . S
C1409 C1412 1.363 . S
N1410 C1412 1.356 . S
N1410 H1422 0.984 . S
N1410 H1423 0.985 . S
N1411 C1413 1.356 . S
N1411 H1416 0.984 . S
N1411 H1417 0.985 . S
C1412 C1406 1.379 . S
C1412 C1409 1.363 . S
C1412 N1410 1.356 . S
C1413 C1407 1.363 . S
C1413 C1408 1.379 . S
C1413 N1411 1.356 . S
N1414 C1406 1.356 . S
N1414 H1420 0.984 . S
N1414 H1421 0.984 . S
N1415 C1408 1.356 . S
N1415 H1418 0.984 . S
N1415 H1419 0.985 . S
H1416 N1411 0.984 . S
H1417 N1411 0.985 . S
H1418 N1415 0.984 . S
H1419 N1415 0.985 . S
H1420 N1414 0.984 . S
H1421 N1414 0.984 . S
H1422 N1410 0.984 . S
H1423 N1410 0.985 . S
C1424 C1425 1.363 . S
C1424 C1430 1.379 . S
C1424 N1432 1.356 . S
C1425 C1424 1.363 . S
C1425 C1431 1.363 . S
C1426 C1427 1.363 . S
C1426 C1431 1.379 . S
C1426 N1433 1.356 . S
C1427 C1426 1.363 . S
C1427 C1430 1.363 . S
N1428 C1430 1.356 . S
N1428 H1440 0.984 . S
N1428 H1441 0.985 . S
N1429 C1431 1.356 . S
N1429 H1434 0.984 . S
N1429 H1435 0.985 . S
C1430 C1424 1.379 . S
C1430 C1427 1.363 . S
C1430 N1428 1.356 . S
C1431 C1425 1.363 . S
C1431 C1426 1.379 . S
C1431 N1429 1.356 . S
N1432 C1424 1.356 . S
N1432 H1438 0.984 . S
N1432 H1439 0.984 . S
N1433 C1426 1.356 . S
N1433 H1436 0.984 . S
N1433 H1437 0.985 . S
H1434 N1429 0.984 . S
H1435 N1429 0.985 . S
H1436 N1433 0.984 . S
H1437 N1433 0.985 . S
H1438 N1432 0.984 . S
H1439 N1432 0.984 . S
H1440 N1428 0.984 . S
H1441 N1428 0.985 . S
C1442 C1443 1.363 . S
C1442 C1448 1.379 . S
C1442 N1450 1.356 . S
C1443 C1442 1.363 . S
C1443 C1449 1.363 . S
C1444 C1445 1.363 . S
C1444 C1449 1.379 . S
C1444 N1451 1.356 . S
C1445 C1444 1.363 . S
C1445 C1448 1.363 . S
N1446 C1448 1.356 . S
N1446 H1458 0.984 . S
N1446 H1459 0.985 . S
N1447 C1449 1.356 . S
N1447 H1452 0.984 . S
N1447 H1453 0.985 . S
C1448 C1442 1.379 . S
C1448 C1445 1.363 . S
C1448 N1446 1.356 . S
C1449 C1443 1.363 . S
C1449 C1444 1.379 . S
C1449 N1447 1.356 . S
N1450 C1442 1.356 . S
N1450 H1456 0.984 . S
N1450 H1457 0.984 . S
N1451 C1444 1.356 . S
N1451 H1454 0.984 . S
N1451 H1455 0.985 . S
H1452 N1447 0.984 . S
H1453 N1447 0.985 . S
H1454 N1451 0.984 . S
H1455 N1451 0.985 . S
H1456 N1450 0.984 . S
H1457 N1450 0.984 . S
H1458 N1446 0.984 . S
H1459 N1446 0.985 . S
C1460 C1461 1.363 . S
C1460 C1466 1.379 . S
C1460 N1468 1.356 . S
C1461 C1460 1.363 . S
C1461 C1467 1.363 . S
C1462 C1463 1.363 . S
C1462 C1467 1.379 . S
C1462 N1469 1.356 . S
C1463 C1462 1.363 . S
C1463 C1466 1.363 . S
N1464 C1466 1.356 . S
N1464 H1476 0.984 . S
N1464 H1477 0.985 . S
N1465 C1467 1.356 . S
N1465 H1470 0.984 . S
N1465 H1471 0.985 . S
C1466 C1460 1.379 . S
C1466 C1463 1.363 . S
C1466 N1464 1.356 . S
C1467 C1461 1.363 . S
C1467 C1462 1.379 . S
C1467 N1465 1.356 . S
N1468 C1460 1.356 . S
N1468 H1474 0.984 . S
N1468 H1475 0.984 . S
N1469 C1462 1.356 . S
N1469 H1472 0.984 . S
N1469 H1473 0.985 . S
H1470 N1465 0.984 . S
H1471 N1465 0.985 . S
H1472 N1469 0.984 . S
H1473 N1469 0.985 . S
H1474 N1468 0.984 . S
H1475 N1468 0.984 . S
H1476 N1464 0.984 . S
H1477 N1464 0.985 . S
C1478 C1479 1.363 . S
C1478 C1484 1.379 . S
C1478 N1486 1.356 . S
C1479 C1478 1.363 . S
C1479 C1485 1.363 . S
C1480 C1481 1.363 . S
C1480 C1485 1.379 . S
C1480 N1487 1.356 . S
C1481 C1480 1.363 . S
C1481 C1484 1.363 . S
N1482 C1484 1.356 . S
N1482 H1494 0.984 . S
N1482 H1495 0.985 . S
N1483 C1485 1.356 . S
N1483 H1488 0.984 . S
N1483 H1489 0.985 . S
C1484 C1478 1.379 . S
C1484 C1481 1.363 . S
C1484 N1482 1.356 . S
C1485 C1479 1.363 . S
C1485 C1480 1.379 . S
C1485 N1483 1.356 . S
N1486 C1478 1.356 . S
N1486 H1492 0.984 . S
N1486 H1493 0.984 . S
N1487 C1480 1.356 . S
N1487 H1490 0.984 . S
N1487 H1491 0.985 . S
H1488 N1483 0.984 . S
H1489 N1483 0.985 . S
H1490 N1487 0.984 . S
H1491 N1487 0.985 . S
H1492 N1486 0.984 . S
H1493 N1486 0.984 . S
H1494 N1482 0.984 . S
H1495 N1482 0.985 . S
C1496 C1497 1.363 . S
C1496 C1502 1.379 . S
C1496 N1504 1.356 . S
C1497 C1496 1.363 . S
C1497 C1503 1.363 . S
C1498 C1499 1.363 . S
C1498 C1503 1.379 . S
C1498 N1505 1.356 . S
C1499 C1498 1.363 . S
C1499 C1502 1.363 . S
N1500 C1502 1.356 . S
N1500 H1512 0.984 . S
N1500 H1513 0.985 . S
N1501 C1503 1.356 . S
N1501 H1506 0.984 . S
N1501 H1507 0.985 . S
C1502 C1496 1.379 . S
C1502 C1499 1.363 . S
C1502 N1500 1.356 . S
C1503 C1497 1.363 . S
C1503 C1498 1.379 . S
C1503 N1501 1.356 . S
N1504 C1496 1.356 . S
N1504 H1510 0.984 . S
N1504 H1511 0.984 . S
N1505 C1498 1.356 . S
N1505 H1508 0.984 . S
N1505 H1509 0.985 . S
H1506 N1501 0.984 . S
H1507 N1501 0.985 . S
H1508 N1505 0.984 . S
H1509 N1505 0.985 . S
H1510 N1504 0.984 . S
H1511 N1504 0.984 . S
H1512 N1500 0.984 . S
H1513 N1500 0.985 . S
C1514 C1515 1.363 . S
C1514 C1520 1.379 . S
C1514 N1522 1.356 . S
C1515 C1514 1.363 . S
C1515 C1521 1.363 . S
C1516 C1517 1.363 . S
C1516 C1521 1.379 . S
C1516 N1523 1.356 . S
C1517 C1516 1.363 . S
C1517 C1520 1.363 . S
N1518 C1520 1.356 . S
N1518 H1530 0.984 . S
N1518 H1531 0.985 . S
N1519 C1521 1.356 . S
N1519 H1524 0.984 . S
N1519 H1525 0.985 . S
C1520 C1514 1.379 . S
C1520 C1517 1.363 . S
C1520 N1518 1.356 . S
C1521 C1515 1.363 . S
C1521 C1516 1.379 . S
C1521 N1519 1.356 . S
N1522 C1514 1.356 . S
N1522 H1528 0.984 . S
N1522 H1529 0.984 . S
N1523 C1516 1.356 . S
N1523 H1526 0.984 . S
N1523 H1527 0.985 . S
H1524 N1519 0.984 . S
H1525 N1519 0.985 . S
H1526 N1523 0.984 . S
H1527 N1523 0.985 . S
H1528 N1522 0.984 . S
H1529 N1522 0.984 . S
H1530 N1518 0.984 . S
H1531 N1518 0.985 . S
C1532 C1533 1.363 1_655 S
C1532 C1538 1.379 . S
C1532 N1540 1.356 . S
C1533 C1532 1.363 1_455 S
C1533 C1539 1.363 . S
C1534 C1535 1.363 1_455 S
C1534 C1539 1.379 . S
C1534 N1541 1.356 1_556 S
C1535 C1534 1.363 1_655 S
C1535 C1538 1.363 . S
N1536 C1538 1.339 1_554 S
N1536 H1548 0.984 1_554 S
N1536 H1549 1.003 . S
N1537 C1539 1.356 . S
N1537 H1542 0.984 . S
N1537 H1543 0.985 . S
C1538 C1532 1.379 . S
C1538 C1535 1.363 . S
C1538 N1536 1.339 1_556 S
C1539 C1533 1.363 . S
C1539 C1534 1.379 . S
C1539 N1537 1.356 . S
N1540 C1532 1.356 . S
N1540 H1546 0.984 . S
N1540 H1547 0.984 . S
N1541 C1534 1.356 1_554 S
N1541 H1544 0.984 . S
N1541 H1545 0.985 1_554 S
H1542 N1537 0.984 . S
H1543 N1537 0.985 . S
H1544 N1541 0.984 . S
H1545 N1541 0.985 1_556 S
H1546 N1540 0.984 . S
H1547 N1540 0.984 . S
H1548 N1536 0.984 1_556 S
H1549 N1536 1.003 . S
C1550 C1551 1.363 . S
C1550 C1556 1.379 . S
C1550 N1558 1.356 . S
C1551 C1550 1.363 . S
C1551 C1557 1.363 . S
C1552 C1553 1.363 . S
C1552 C1557 1.379 . S
C1552 N1559 1.356 . S
C1553 C1552 1.363 . S
C1553 C1556 1.363 . S
N1554 C1556 1.356 . S
N1554 H1566 0.984 . S
N1554 H1567 0.985 . S
N1555 C1557 1.356 . S
N1555 H1560 0.984 . S
N1555 H1561 0.985 . S
C1556 C1550 1.379 . S
C1556 C1553 1.363 . S
C1556 N1554 1.356 . S
C1557 C1551 1.363 . S
C1557 C1552 1.379 . S
C1557 N1555 1.356 . S
N1558 C1550 1.356 . S
N1558 H1564 0.984 . S
N1558 H1565 0.984 . S
N1559 C1552 1.356 . S
N1559 H1562 0.984 . S
N1559 H1563 0.985 . S
H1560 N1555 0.984 . S
H1561 N1555 0.985 . S
H1562 N1559 0.984 . S
H1563 N1559 0.985 . S
H1564 N1558 0.984 . S
H1565 N1558 0.984 . S
H1566 N1554 0.984 . S
H1567 N1554 0.985 . S
C1568 C1569 1.363 . S
C1568 C1574 1.379 . S
C1568 N1576 1.356 . S
C1569 C1568 1.363 . S
C1569 C1575 1.363 . S
C1570 C1571 1.363 . S
C1570 C1575 1.379 . S
C1570 N1577 1.356 . S
C1571 C1570 1.363 . S
C1571 C1574 1.363 . S
N1572 C1574 1.356 . S
N1572 H1584 0.984 . S
N1572 H1585 0.985 . S
N1573 C1575 1.356 . S
N1573 H1578 0.984 . S
N1573 H1579 0.985 . S
C1574 C1568 1.379 . S
C1574 C1571 1.363 . S
C1574 N1572 1.356 . S
C1575 C1569 1.363 . S
C1575 C1570 1.379 . S
C1575 N1573 1.356 . S
N1576 C1568 1.356 . S
N1576 H1582 0.984 . S
N1576 H1583 0.984 . S
N1577 C1570 1.356 . S
N1577 H1580 0.984 . S
N1577 H1581 0.985 . S
H1578 N1573 0.984 . S
H1579 N1573 0.985 . S
H1580 N1577 0.984 . S
H1581 N1577 0.985 . S
H1582 N1576 0.984 . S
H1583 N1576 0.984 . S
H1584 N1572 0.984 . S
H1585 N1572 0.985 . S
C1586 C1587 1.363 . S
C1586 C1592 1.379 . S
C1586 N1594 1.356 . S
C1587 C1586 1.363 . S
C1587 C1593 1.363 . S
C1588 C1589 1.363 . S
C1588 C1593 1.379 . S
C1588 N1595 1.356 . S
C1589 C1588 1.363 . S
C1589 C1592 1.363 . S
N1590 C1592 1.356 . S
N1590 H1602 0.984 . S
N1590 H1603 0.985 . S
N1591 C1593 1.356 . S
N1591 H1596 0.984 . S
N1591 H1597 0.985 . S
C1592 C1586 1.379 . S
C1592 C1589 1.363 . S
C1592 N1590 1.356 . S
C1593 C1587 1.363 . S
C1593 C1588 1.379 . S
C1593 N1591 1.356 . S
N1594 C1586 1.356 . S
N1594 H1600 0.984 . S
N1594 H1601 0.984 . S
N1595 C1588 1.356 . S
N1595 H1598 0.984 . S
N1595 H1599 0.985 . S
H1596 N1591 0.984 . S
H1597 N1591 0.985 . S
H1598 N1595 0.984 . S
H1599 N1595 0.985 . S
H1600 N1594 0.984 . S
H1601 N1594 0.984 . S
H1602 N1590 0.984 . S
H1603 N1590 0.985 . S
C1604 C1605 1.363 . S
C1604 C1610 1.379 . S
C1604 N1612 1.356 . S
C1605 C1604 1.363 . S
C1605 C1611 1.363 1_655 S
C1606 C1607 1.363 . S
C1606 C1611 1.379 . S
C1606 N1613 1.356 . S
C1607 C1606 1.363 . S
C1607 C1610 1.363 1_455 S
N1608 C1610 1.356 . S
N1608 H1620 0.984 . S
N1608 H1621 0.985 . S
N1609 C1611 1.356 . S
N1609 H1614 0.984 . S
N1609 H1615 0.985 . S
C1610 C1604 1.379 . S
C1610 C1607 1.363 1_655 S
C1610 N1608 1.356 . S
C1611 C1605 1.363 1_455 S
C1611 C1606 1.379 . S
C1611 N1609 1.356 . S
N1612 C1604 1.356 . S
N1612 H1618 0.984 . S
N1612 H1619 0.984 . S
N1613 C1606 1.356 . S
N1613 H1616 0.984 . S
N1613 H1617 0.985 . S
H1614 N1609 0.984 . S
H1615 N1609 0.985 . S
H1616 N1613 0.984 . S
H1617 N1613 0.985 . S
H1618 N1612 0.984 . S
H1619 N1612 0.984 . S
H1620 N1608 0.984 . S
H1621 N1608 0.985 . S
C1622 C1623 1.363 . S
C1622 C1628 1.379 . S
C1622 N1630 1.356 . S
C1623 C1622 1.363 . S
C1623 C1629 1.363 . S
C1624 C1625 1.363 . S
C1624 C1629 1.379 . S
C1624 N1631 1.356 . S
C1625 C1624 1.363 . S
C1625 C1628 1.363 . S
N1626 C1628 1.356 . S
N1626 H1638 0.984 . S
N1626 H1639 0.985 . S
N1627 C1629 1.356 . S
N1627 H1632 0.984 . S
N1627 H1633 0.985 . S
C1628 C1622 1.379 . S
C1628 C1625 1.363 . S
C1628 N1626 1.356 . S
C1629 C1623 1.363 . S
C1629 C1624 1.379 . S
C1629 N1627 1.356 . S
N1630 C1622 1.356 . S
N1630 H1636 0.984 . S
N1630 H1637 0.984 . S
N1631 C1624 1.356 . S
N1631 H1634 0.984 . S
N1631 H1635 0.985 . S
H1632 N1627 0.984 . S
H1633 N1627 0.985 . S
H1634 N1631 0.984 . S
H1635 N1631 0.985 . S
H1636 N1630 0.984 . S
H1637 N1630 0.984 . S
H1638 N1626 0.984 . S
H1639 N1626 0.985 . S
C1640 C1641 1.363 . S
C1640 C1646 1.379 . S
C1640 N1648 1.356 . S
C1641 C1640 1.363 . S
C1641 C1647 1.363 . S
C1642 C1643 1.363 . S
C1642 C1647 1.379 . S
C1642 N1649 1.356 . S
C1643 C1642 1.363 . S
C1643 C1646 1.363 . S
N1644 C1646 1.356 . S
N1644 H1656 0.984 . S
N1644 H1657 0.985 . S
N1645 C1647 1.356 . S
N1645 H1650 0.984 . S
N1645 H1651 0.985 . S
C1646 C1640 1.379 . S
C1646 C1643 1.363 . S
C1646 N1644 1.356 . S
C1647 C1641 1.363 . S
C1647 C1642 1.379 . S
C1647 N1645 1.356 . S
N1648 C1640 1.356 . S
N1648 H1654 0.984 . S
N1648 H1655 0.984 . S
N1649 C1642 1.356 . S
N1649 H1652 0.984 . S
N1649 H1653 0.985 . S
H1650 N1645 0.984 . S
H1651 N1645 0.985 . S
H1652 N1649 0.984 . S
H1653 N1649 0.985 . S
H1654 N1648 0.984 . S
H1655 N1648 0.984 . S
H1656 N1644 0.984 . S
H1657 N1644 0.985 . S
C1658 C1659 1.363 . S
C1658 C1664 1.379 . S
C1658 N1666 1.356 . S
C1659 C1658 1.363 . S
C1659 C1665 1.363 . S
C1660 C1661 1.363 . S
C1660 C1665 1.379 . S
C1660 N1667 1.356 . S
C1661 C1660 1.363 . S
C1661 C1664 1.363 . S
N1662 C1664 1.356 . S
N1662 H1674 0.984 . S
N1662 H1675 0.985 . S
N1663 C1665 1.356 1_554 S
N1663 H1668 0.984 . S
N1663 H1669 0.985 . S
C1664 C1658 1.379 . S
C1664 C1661 1.363 . S
C1664 N1662 1.356 . S
C1665 C1659 1.363 . S
C1665 C1660 1.379 . S
C1665 N1663 1.356 1_556 S
N1666 C1658 1.356 . S
N1666 H1672 0.984 . S
N1666 H1673 0.984 . S
N1667 C1660 1.356 . S
N1667 H1670 0.984 . S
N1667 H1671 0.985 . S
H1668 N1663 0.984 . S
H1669 N1663 0.985 . S
H1670 N1667 0.984 . S
H1671 N1667 0.985 . S
H1672 N1666 0.984 . S
H1673 N1666 0.984 . S
H1674 N1662 0.984 . S
H1675 N1662 0.985 . S
C1676 C1677 1.363 . S
C1676 C1682 1.379 . S
C1676 N1684 1.356 . S
C1677 C1676 1.363 . S
C1677 C1683 1.363 . S
C1678 C1679 1.363 . S
C1678 C1683 1.379 . S
C1678 N1685 1.356 . S
C1679 C1678 1.363 . S
C1679 C1682 1.363 . S
N1680 C1682 1.356 . S
N1680 H1692 0.984 . S
N1680 H1693 0.985 . S
N1681 C1683 1.356 . S
N1681 H1686 0.984 . S
N1681 H1687 0.985 . S
C1682 C1676 1.379 . S
C1682 C1679 1.363 . S
C1682 N1680 1.356 . S
C1683 C1677 1.363 . S
C1683 C1678 1.379 . S
C1683 N1681 1.356 . S
N1684 C1676 1.356 . S
N1684 H1690 0.984 . S
N1684 H1691 0.984 . S
N1685 C1678 1.356 . S
N1685 H1688 0.984 . S
N1685 H1689 0.985 . S
H1686 N1681 0.984 . S
H1687 N1681 0.985 . S
H1688 N1685 0.984 . S
H1689 N1685 0.985 . S
H1690 N1684 0.984 . S
H1691 N1684 0.984 . S
H1692 N1680 0.984 . S
H1693 N1680 0.985 . S
C1694 C1695 1.363 . S
C1694 C1700 1.379 . S
C1694 N1702 1.356 . S
C1695 C1694 1.363 . S
C1695 C1701 1.363 . S
C1696 C1697 1.363 . S
C1696 C1701 1.379 . S
C1696 N1703 1.356 . S
C1697 C1696 1.363 . S
C1697 C1700 1.363 . S
N1698 C1700 1.356 . S
N1698 H1710 0.984 . S
N1698 H1711 0.985 . S
N1699 C1701 1.356 . S
N1699 H1704 0.984 . S
N1699 H1705 0.985 . S
C1700 C1694 1.379 . S
C1700 C1697 1.363 . S
C1700 N1698 1.356 . S
C1701 C1695 1.363 . S
C1701 C1696 1.379 . S
C1701 N1699 1.356 . S
N1702 C1694 1.356 . S
N1702 H1708 0.984 . S
N1702 H1709 0.984 . S
N1703 C1696 1.356 . S
N1703 H1706 0.984 . S
N1703 H1707 0.985 . S
H1704 N1699 0.984 . S
H1705 N1699 0.985 . S
H1706 N1703 0.984 . S
H1707 N1703 0.985 . S
H1708 N1702 0.984 . S
H1709 N1702 0.984 . S
H1710 N1698 0.984 . S
H1711 N1698 0.985 . S
C1712 C1713 1.363 . S
C1712 C1718 1.379 . S
C1712 N1720 1.356 . S
C1713 C1712 1.363 . S
C1713 C1719 1.363 . S
C1714 C1715 1.363 . S
C1714 C1719 1.379 . S
C1714 N1721 1.356 . S
C1715 C1714 1.363 . S
C1715 C1718 1.363 . S
N1716 C1718 1.356 . S
N1716 H1728 0.984 . S
N1716 H1729 0.985 . S
N1717 C1719 1.356 . S
N1717 H1722 0.984 . S
N1717 H1723 0.985 . S
C1718 C1712 1.379 . S
C1718 C1715 1.363 . S
C1718 N1716 1.356 . S
C1719 C1713 1.363 . S
C1719 C1714 1.379 . S
C1719 N1717 1.356 . S
N1720 C1712 1.356 . S
N1720 H1726 0.984 . S
N1720 H1727 0.984 . S
N1721 C1714 1.356 . S
N1721 H1724 0.984 . S
N1721 H1725 0.985 . S
H1722 N1717 0.984 . S
H1723 N1717 0.985 . S
H1724 N1721 0.984 . S
H1725 N1721 0.985 . S
H1726 N1720 0.984 . S
H1727 N1720 0.984 . S
H1728 N1716 0.984 . S
H1729 N1716 0.985 . S
C1730 C1731 1.363 . S
C1730 C1736 1.379 . S
C1730 N1738 1.356 . S
C1731 C1730 1.363 . S
C1731 C1737 1.363 . S
C1732 C1733 1.363 . S
C1732 C1737 1.379 . S
C1732 N1739 1.356 . S
C1733 C1732 1.363 . S
C1733 C1736 1.363 . S
N1734 C1736 1.356 . S
N1734 H1746 0.984 . S
N1734 H1747 0.985 . S
N1735 C1737 1.356 . S
N1735 H1740 0.984 . S
N1735 H1741 0.985 . S
C1736 C1730 1.379 . S
C1736 C1733 1.363 . S
C1736 N1734 1.356 . S
C1737 C1731 1.363 . S
C1737 C1732 1.379 . S
C1737 N1735 1.356 . S
N1738 C1730 1.356 . S
N1738 H1744 0.984 . S
N1738 H1745 0.984 . S
N1739 C1732 1.356 . S
N1739 H1742 0.984 . S
N1739 H1743 0.985 . S
H1740 N1735 0.984 . S
H1741 N1735 0.985 . S
H1742 N1739 0.984 . S
H1743 N1739 0.985 . S
H1744 N1738 0.984 . S
H1745 N1738 0.984 . S
H1746 N1734 0.984 . S
H1747 N1734 0.985 . S
C1748 C1749 1.363 . S
C1748 C1754 1.379 . S
C1748 N1756 1.356 . S
C1749 C1748 1.363 . S
C1749 C1755 1.363 . S
C1750 C1751 1.363 . S
C1750 C1755 1.379 . S
C1750 N1757 1.356 . S
C1751 C1750 1.363 . S
C1751 C1754 1.363 . S
N1752 C1754 1.356 . S
N1752 H1764 0.984 . S
N1752 H1765 0.985 . S
N1753 C1755 1.356 . S
N1753 H1758 0.984 . S
N1753 H1759 0.985 . S
C1754 C1748 1.379 . S
C1754 C1751 1.363 . S
C1754 N1752 1.356 . S
C1755 C1749 1.363 . S
C1755 C1750 1.379 . S
C1755 N1753 1.356 . S
N1756 C1748 1.356 . S
N1756 H1762 0.984 . S
N1756 H1763 0.984 . S
N1757 C1750 1.356 . S
N1757 H1760 0.984 . S
N1757 H1761 0.985 . S
H1758 N1753 0.984 . S
H1759 N1753 0.985 . S
H1760 N1757 0.984 . S
H1761 N1757 0.985 . S
H1762 N1756 0.984 . S
H1763 N1756 0.984 . S
H1764 N1752 0.984 . S
H1765 N1752 0.985 . S
C1766 C1767 1.363 . S
C1766 C1772 1.379 . S
C1766 N1774 1.356 . S
C1767 C1766 1.363 . S
C1767 C1773 1.363 . S
C1768 C1769 1.363 . S
C1768 C1773 1.379 . S
C1768 N1775 1.356 . S
C1769 C1768 1.363 . S
C1769 C1772 1.363 . S
N1770 C1772 1.356 . S
N1770 H1782 0.984 . S
N1770 H1783 0.985 . S
N1771 C1773 1.356 . S
N1771 H1776 0.984 . S
N1771 H1777 0.985 . S
C1772 C1766 1.379 . S
C1772 C1769 1.363 . S
C1772 N1770 1.356 . S
C1773 C1767 1.363 . S
C1773 C1768 1.379 . S
C1773 N1771 1.356 . S
N1774 C1766 1.356 . S
N1774 H1780 0.984 . S
N1774 H1781 0.984 . S
N1775 C1768 1.356 . S
N1775 H1778 0.984 . S
N1775 H1779 0.985 . S
H1776 N1771 0.984 . S
H1777 N1771 0.985 . S
H1778 N1775 0.984 . S
H1779 N1775 0.985 . S
H1780 N1774 0.984 . S
H1781 N1774 0.984 . S
H1782 N1770 0.984 . S
H1783 N1770 0.985 . S
C1784 C1785 1.363 . S
C1784 C1790 1.379 . S
C1784 N1792 1.356 . S
C1785 C1784 1.363 . S
C1785 C1791 1.363 . S
C1786 C1787 1.363 . S
C1786 C1791 1.379 . S
C1786 N1793 1.356 . S
C1787 C1786 1.363 . S
C1787 C1790 1.363 . S
N1788 C1790 1.356 . S
N1788 H1800 0.984 . S
N1788 H1801 0.985 . S
N1789 C1791 1.356 . S
N1789 H1794 0.984 . S
N1789 H1795 0.985 . S
C1790 C1784 1.379 . S
C1790 C1787 1.363 . S
C1790 N1788 1.356 . S
C1791 C1785 1.363 . S
C1791 C1786 1.379 . S
C1791 N1789 1.356 . S
N1792 C1784 1.356 . S
N1792 H1798 0.984 . S
N1792 H1799 0.984 . S
N1793 C1786 1.356 . S
N1793 H1796 0.984 . S
N1793 H1797 0.985 . S
H1794 N1789 0.984 . S
H1795 N1789 0.985 . S
H1796 N1793 0.984 . S
H1797 N1793 0.985 . S
H1798 N1792 0.984 . S
H1799 N1792 0.984 . S
H1800 N1788 0.984 . S
H1801 N1788 0.985 . S
C1802 C1803 1.363 . S
C1802 C1808 1.379 . S
C1802 N1810 1.356 . S
C1803 C1802 1.363 . S
C1803 C1809 1.363 . S
C1804 C1805 1.363 . S
C1804 C1809 1.379 . S
C1804 N1811 1.356 . S
C1805 C1804 1.363 . S
C1805 C1808 1.363 . S
N1806 C1808 1.356 . S
N1806 H1818 0.984 . S
N1806 H1819 0.985 . S
N1807 C1809 1.356 . S
N1807 H1812 0.984 . S
N1807 H1813 0.985 . S
C1808 C1802 1.379 . S
C1808 C1805 1.363 . S
C1808 N1806 1.356 . S
C1809 C1803 1.363 . S
C1809 C1804 1.379 . S
C1809 N1807 1.356 . S
N1810 C1802 1.356 . S
N1810 H1816 0.984 . S
N1810 H1817 0.984 . S
N1811 C1804 1.356 . S
N1811 H1814 0.984 . S
N1811 H1815 0.985 . S
H1812 N1807 0.984 . S
H1813 N1807 0.985 . S
H1814 N1811 0.984 . S
H1815 N1811 0.985 . S
H1816 N1810 0.984 . S
H1817 N1810 0.984 . S
H1818 N1806 0.984 . S
H1819 N1806 0.985 . S
C1820 C1821 1.363 . S
C1820 C1826 1.379 . S
C1820 N1828 1.356 . S
C1821 C1820 1.363 . S
C1821 C1827 1.363 . S
C1822 C1823 1.363 . S
C1822 C1827 1.379 . S
C1822 N1829 1.356 . S
C1823 C1822 1.363 . S
C1823 C1826 1.363 . S
N1824 C1826 1.356 . S
N1824 H1836 0.984 . S
N1824 H1837 0.985 . S
N1825 C1827 1.356 . S
N1825 H1830 0.984 . S
N1825 H1831 0.985 . S
C1826 C1820 1.379 . S
C1826 C1823 1.363 . S
C1826 N1824 1.356 . S
C1827 C1821 1.363 . S
C1827 C1822 1.379 . S
C1827 N1825 1.356 . S
N1828 C1820 1.356 . S
N1828 H1834 0.984 . S
N1828 H1835 0.984 . S
N1829 C1822 1.356 . S
N1829 H1832 0.984 . S
N1829 H1833 0.985 . S
H1830 N1825 0.984 . S
H1831 N1825 0.985 . S
H1832 N1829 0.984 . S
H1833 N1829 0.985 . S
H1834 N1828 0.984 . S
H1835 N1828 0.984 . S
H1836 N1824 0.984 . S
H1837 N1824 0.985 . S
C1838 C1839 1.363 . S
C1838 C1844 1.379 . S
C1838 N1846 1.356 . S
C1839 C1838 1.363 . S
C1839 C1845 1.363 1_554 S
C1840 C1841 1.363 1_556 S
C1840 C1845 1.379 . S
C1840 N1847 1.356 . S
C1841 C1840 1.363 1_554 S
C1841 C1844 1.363 . S
N1842 C1844 1.356 1_545 S
N1842 H1854 0.984 . S
N1842 H1855 0.985 . S
N1843 C1845 1.356 . S
N1843 H1848 0.984 . S
N1843 H1849 0.985 . S
C1844 C1838 1.379 . S
C1844 C1841 1.363 . S
C1844 N1842 1.356 1_565 S
C1845 C1839 1.363 1_556 S
C1845 C1840 1.379 . S
C1845 N1843 1.356 . S
N1846 C1838 1.356 . S
N1846 H1852 0.984 . S
N1846 H1853 0.984 . S
N1847 C1840 1.356 . S
N1847 H1850 0.984 . S
N1847 H1851 0.985 . S
H1848 N1843 0.984 . S
H1849 N1843 0.985 . S
H1850 N1847 0.984 . S
H1851 N1847 0.985 . S
H1852 N1846 0.984 . S
H1853 N1846 0.984 . S
H1854 N1842 0.984 . S
H1855 N1842 0.985 . S
C1856 C1857 1.363 . S
C1856 C1862 1.379 . S
C1856 N1864 1.356 . S
C1857 C1856 1.363 . S
C1857 C1863 1.363 . S
C1858 C1859 1.363 . S
C1858 C1863 1.379 . S
C1858 N1865 1.356 . S
C1859 C1858 1.363 . S
C1859 C1862 1.363 . S
N1860 C1862 1.356 . S
N1860 H1872 0.984 . S
N1860 H1873 0.985 . S
N1861 C1863 1.356 . S
N1861 H1866 0.984 . S
N1861 H1867 0.985 . S
C1862 C1856 1.379 . S
C1862 C1859 1.363 . S
C1862 N1860 1.356 . S
C1863 C1857 1.363 . S
C1863 C1858 1.379 . S
C1863 N1861 1.356 . S
N1864 C1856 1.356 . S
N1864 H1870 0.984 . S
N1864 H1871 0.984 . S
N1865 C1858 1.356 . S
N1865 H1868 0.984 . S
N1865 H1869 0.985 . S
H1866 N1861 0.984 . S
H1867 N1861 0.985 . S
H1868 N1865 0.984 . S
H1869 N1865 0.985 . S
H1870 N1864 0.984 . S
H1871 N1864 0.984 . S
H1872 N1860 0.984 . S
H1873 N1860 0.985 . S
C1874 C1875 1.363 . S
C1874 C1880 1.379 . S
C1874 N1882 1.356 . S
C1875 C1874 1.363 . S
C1875 C1881 1.363 . S
C1876 C1877 1.363 . S
C1876 C1881 1.379 . S
C1876 N1883 1.356 . S
C1877 C1876 1.363 . S
C1877 C1880 1.363 . S
N1878 C1880 1.356 . S
N1878 H1890 0.984 . S
N1878 H1891 0.985 . S
N1879 C1881 1.356 1_556 S
N1879 H1884 0.984 . S
N1879 H1885 0.985 . S
C1880 C1874 1.379 . S
C1880 C1877 1.363 . S
C1880 N1878 1.356 . S
C1881 C1875 1.363 . S
C1881 C1876 1.379 . S
C1881 N1879 1.356 1_554 S
N1882 C1874 1.356 . S
N1882 H1888 0.984 . S
N1882 H1889 0.984 . S
N1883 C1876 1.356 . S
N1883 H1886 0.984 . S
N1883 H1887 0.985 1_554 S
H1884 N1879 0.984 . S
H1885 N1879 0.985 . S
H1886 N1883 0.984 . S
H1887 N1883 0.985 1_556 S
H1888 N1882 0.984 . S
H1889 N1882 0.984 . S
H1890 N1878 0.984 . S
H1891 N1878 0.985 . S
C1892 C1893 1.363 . S
C1892 C1898 1.379 . S
C1892 N1900 1.356 . S
C1893 C1892 1.363 . S
C1893 C1899 1.363 . S
C1894 C1895 1.363 . S
C1894 C1899 1.379 . S
C1894 N1901 1.356 . S
C1895 C1894 1.363 . S
C1895 C1898 1.363 . S
N1896 C1898 1.356 . S
N1896 H1908 0.984 . S
N1896 H1909 0.985 . S
N1897 C1899 1.356 . S
N1897 H1902 0.984 . S
N1897 H1903 0.985 . S
C1898 C1892 1.379 . S
C1898 C1895 1.363 . S
C1898 N1896 1.356 . S
C1899 C1893 1.363 . S
C1899 C1894 1.379 . S
C1899 N1897 1.356 . S
N1900 C1892 1.356 . S
N1900 H1906 0.984 . S
N1900 H1907 0.984 . S
N1901 C1894 1.356 . S
N1901 H1904 0.984 . S
N1901 H1905 0.985 . S
H1902 N1897 0.984 . S
H1903 N1897 0.985 . S
H1904 N1901 0.984 . S
H1905 N1901 0.985 . S
H1906 N1900 0.984 . S
H1907 N1900 0.984 . S
H1908 N1896 0.984 . S
H1909 N1896 0.985 . S
C1910 C1911 1.363 . S
C1910 C1916 1.379 . S
C1910 N1918 1.356 . S
C1911 C1910 1.363 . S
C1911 C1917 1.363 . S
C1912 C1913 1.363 . S
C1912 C1917 1.379 . S
C1912 N1919 1.356 . S
C1913 C1912 1.363 . S
C1913 C1916 1.363 . S
N1914 C1916 1.356 . S
N1914 H1926 0.984 . S
N1914 H1927 0.985 . S
N1915 C1917 1.356 . S
N1915 H1920 0.984 . S
N1915 H1921 0.985 . S
C1916 C1910 1.379 . S
C1916 C1913 1.363 . S
C1916 N1914 1.356 . S
C1917 C1911 1.363 . S
C1917 C1912 1.379 . S
C1917 N1915 1.356 . S
N1918 C1910 1.356 . S
N1918 H1924 0.984 . S
N1918 H1925 0.984 . S
N1919 C1912 1.356 . S
N1919 H1922 0.984 . S
N1919 H1923 0.985 . S
H1920 N1915 0.984 . S
H1921 N1915 0.985 . S
H1922 N1919 0.984 . S
H1923 N1919 0.985 . S
H1924 N1918 0.984 . S
H1925 N1918 0.984 . S
H1926 N1914 0.984 . S
H1927 N1914 0.985 . S
C1928 C1929 1.363 . S
C1928 C1934 1.379 . S
C1928 N1936 1.356 . S
C1929 C1928 1.363 . S
C1929 C1935 1.363 . S
C1930 C1931 1.363 . S
C1930 C1935 1.379 . S
C1930 N1937 1.356 . S
C1931 C1930 1.363 . S
C1931 C1934 1.363 . S
N1932 C1934 1.356 . S
N1932 H1944 0.984 . S
N1932 H1945 0.985 . S
N1933 C1935 1.356 . S
N1933 H1938 0.984 . S
N1933 H1939 0.985 . S
C1934 C1928 1.379 . S
C1934 C1931 1.363 . S
C1934 N1932 1.356 . S
C1935 C1929 1.363 . S
C1935 C1930 1.379 . S
C1935 N1933 1.356 . S
N1936 C1928 1.356 . S
N1936 H1942 0.984 . S
N1936 H1943 0.984 . S
N1937 C1930 1.356 . S
N1937 H1940 0.984 . S
N1937 H1941 0.985 . S
H1938 N1933 0.984 . S
H1939 N1933 0.985 . S
H1940 N1937 0.984 . S
H1941 N1937 0.985 . S
H1942 N1936 0.984 . S
H1943 N1936 0.984 . S
H1944 N1932 0.984 . S
H1945 N1932 0.985 . S
C1946 C1947 1.363 . S
C1946 C1952 1.379 . S
C1946 N1954 1.356 . S
C1947 C1946 1.363 . S
C1947 C1953 1.363 . S
C1948 C1949 1.363 . S
C1948 C1953 1.379 . S
C1948 N1955 1.356 . S
C1949 C1948 1.363 . S
C1949 C1952 1.363 . S
N1950 C1952 1.356 . S
N1950 H1962 0.984 . S
N1950 H1963 0.985 . S
N1951 C1953 1.356 . S
N1951 H1956 0.984 . S
N1951 H1957 0.985 . S
C1952 C1946 1.379 . S
C1952 C1949 1.363 . S
C1952 N1950 1.356 . S
C1953 C1947 1.363 . S
C1953 C1948 1.379 . S
C1953 N1951 1.356 . S
N1954 C1946 1.356 . S
N1954 H1960 0.984 . S
N1954 H1961 0.984 . S
N1955 C1948 1.356 . S
N1955 H1958 0.984 . S
N1955 H1959 0.985 . S
H1956 N1951 0.984 . S
H1957 N1951 0.985 . S
H1958 N1955 0.984 . S
H1959 N1955 0.985 . S
H1960 N1954 0.984 . S
H1961 N1954 0.984 . S
H1962 N1950 0.984 . S
H1963 N1950 0.985 . S
C1964 C1965 1.363 . S
C1964 C1970 1.379 . S
C1964 N1972 1.356 . S
C1965 C1964 1.363 . S
C1965 C1971 1.363 . S
C1966 C1967 1.363 . S
C1966 C1971 1.379 . S
C1966 N1973 1.356 1_455 S
C1967 C1966 1.363 . S
C1967 C1970 1.363 . S
N1968 C1970 1.356 . S
N1968 H1980 0.984 . S
N1968 H1981 0.985 . S
N1969 C1971 1.356 1_655 S
N1969 H1974 0.984 . S
N1969 H1975 0.985 . S
C1970 C1964 1.379 . S
C1970 C1967 1.363 . S
C1970 N1968 1.356 . S
C1971 C1965 1.363 . S
C1971 C1966 1.379 . S
C1971 N1969 1.356 1_455 S
N1972 C1964 1.356 . S
N1972 H1978 0.984 . S
N1972 H1979 0.984 . S
N1973 C1966 1.356 1_655 S
N1973 H1976 0.984 . S
N1973 H1977 0.985 . S
H1974 N1969 0.984 . S
H1975 N1969 0.985 . S
H1976 N1973 0.984 . S
H1977 N1973 0.985 . S
H1978 N1972 0.984 . S
H1979 N1972 0.984 . S
H1980 N1968 0.984 . S
H1981 N1968 0.985 . S
C1982 C1983 1.363 . S
C1982 C1988 1.379 . S
C1982 N1990 1.356 . S
C1983 C1982 1.363 . S
C1983 C1989 1.363 . S
C1984 C1985 1.363 . S
C1984 C1989 1.379 . S
C1984 N1991 1.356 . S
C1985 C1984 1.363 . S
C1985 C1988 1.363 . S
N1986 C1988 1.356 . S
N1986 H1998 0.984 . S
N1986 H1999 0.985 . S
N1987 C1989 1.356 . S
N1987 H1992 0.984 . S
N1987 H1993 0.985 . S
C1988 C1982 1.379 . S
C1988 C1985 1.363 . S
C1988 N1986 1.356 . S
C1989 C1983 1.363 . S
C1989 C1984 1.379 . S
C1989 N1987 1.356 . S
N1990 C1982 1.356 . S
N1990 H1996 0.984 . S
N1990 H1997 0.984 . S
N1991 C1984 1.356 . S
N1991 H1994 0.984 . S
N1991 H1995 0.985 . S
H1992 N1987 0.984 . S
H1993 N1987 0.985 . S
H1994 N1991 0.984 . S
H1995 N1991 0.985 . S
H1996 N1990 0.984 . S
H1997 N1990 0.984 . S
H1998 N1986 0.984 . S
H1999 N1986 0.985 . S
C2000 C2001 1.363 . S
C2000 C2006 1.379 . S
C2000 N2008 1.356 . S
C2001 C2000 1.363 . S
C2001 C2007 1.363 . S
C2002 C2003 1.363 . S
C2002 C2007 1.379 . S
C2002 N2009 1.356 1_556 S
C2003 C2002 1.363 . S
C2003 C2006 1.363 . S
N2004 C2006 1.356 . S
N2004 H2016 0.984 . S
N2004 H2017 0.985 . S
N2005 C2007 1.356 . S
N2005 H2010 0.984 . S
N2005 H2011 0.985 . S
C2006 C2000 1.379 . S
C2006 C2003 1.363 . S
C2006 N2004 1.356 . S
C2007 C2001 1.363 . S
C2007 C2002 1.379 . S
C2007 N2005 1.356 . S
N2008 C2000 1.356 . S
N2008 H2014 0.984 . S
N2008 H2015 0.984 . S
N2009 C2002 1.356 1_554 S
N2009 H2012 0.984 . S
N2009 H2013 0.985 . S
H2010 N2005 0.984 . S
H2011 N2005 0.985 . S
H2012 N2009 0.984 . S
H2013 N2009 0.985 . S
H2014 N2008 0.984 . S
H2015 N2008 0.984 . S
H2016 N2004 0.984 . S
H2017 N2004 0.985 . S
C2018 C2019 1.363 . S
C2018 C2024 1.379 . S
C2018 N2026 1.356 . S
C2019 C2018 1.363 . S
C2019 C2025 1.363 . S
C2020 C2021 1.363 . S
C2020 C2025 1.379 . S
C2020 N2027 1.356 . S
C2021 C2020 1.363 . S
C2021 C2024 1.363 . S
N2022 C2024 1.356 . S
N2022 H2034 0.984 . S
N2022 H2035 0.985 . S
N2023 C2025 1.356 . S
N2023 H2028 0.984 . S
N2023 H2029 0.985 . S
C2024 C2018 1.379 . S
C2024 C2021 1.363 . S
C2024 N2022 1.356 . S
C2025 C2019 1.363 . S
C2025 C2020 1.379 . S
C2025 N2023 1.356 . S
N2026 C2018 1.356 . S
N2026 H2032 0.984 . S
N2026 H2033 0.984 . S
N2027 C2020 1.356 . S
N2027 H2030 0.984 . S
N2027 H2031 0.985 . S
H2028 N2023 0.984 . S
H2029 N2023 0.985 . S
H2030 N2027 0.984 . S
H2031 N2027 0.985 . S
H2032 N2026 0.984 . S
H2033 N2026 0.984 . S
H2034 N2022 0.984 . S
H2035 N2022 0.985 . S
C2036 C2037 1.363 . S
C2036 C2042 1.379 . S
C2036 N2044 1.356 . S
C2037 C2036 1.363 . S
C2037 C2043 1.363 . S
C2038 C2039 1.363 . S
C2038 C2043 1.379 . S
C2038 N2045 1.356 . S
C2039 C2038 1.363 . S
C2039 C2042 1.363 . S
N2040 C2042 1.356 . S
N2040 H2052 0.984 . S
N2040 H2053 0.985 . S
N2041 C2043 1.356 . S
N2041 H2046 0.984 . S
N2041 H2047 0.985 . S
C2042 C2036 1.379 . S
C2042 C2039 1.363 . S
C2042 N2040 1.356 . S
C2043 C2037 1.363 . S
C2043 C2038 1.379 . S
C2043 N2041 1.356 . S
N2044 C2036 1.356 . S
N2044 H2050 0.984 . S
N2044 H2051 0.984 . S
N2045 C2038 1.356 . S
N2045 H2048 0.984 . S
N2045 H2049 0.985 . S
H2046 N2041 0.984 . S
H2047 N2041 0.985 . S
H2048 N2045 0.984 . S
H2049 N2045 0.985 . S
H2050 N2044 0.984 . S
H2051 N2044 0.984 . S
H2052 N2040 0.984 . S
H2053 N2040 0.985 . S
C2054 C2055 1.363 . S
C2054 C2060 1.379 . S
C2054 N2062 1.356 . S
C2055 C2054 1.363 . S
C2055 C2061 1.363 . S
C2056 C2057 1.363 . S
C2056 C2061 1.379 . S
C2056 N2063 1.356 . S
C2057 C2056 1.363 . S
C2057 C2060 1.363 . S
N2058 C2060 1.356 . S
N2058 H2070 0.984 . S
N2058 H2071 0.985 . S
N2059 C2061 1.356 . S
N2059 H2064 0.984 . S
N2059 H2065 0.985 . S
C2060 C2054 1.379 . S
C2060 C2057 1.363 . S
C2060 N2058 1.356 . S
C2061 C2055 1.363 . S
C2061 C2056 1.379 . S
C2061 N2059 1.356 . S
N2062 C2054 1.356 . S
N2062 H2068 0.984 . S
N2062 H2069 0.984 . S
N2063 C2056 1.356 . S
N2063 H2066 0.984 . S
N2063 H2067 0.985 . S
H2064 N2059 0.984 . S
H2065 N2059 0.985 . S
H2066 N2063 0.984 . S
H2067 N2063 0.985 . S
H2068 N2062 0.984 . S
H2069 N2062 0.984 . S
H2070 N2058 0.984 . S
H2071 N2058 0.985 . S
C2072 C2073 1.363 . S
C2072 C2078 1.379 . S
C2072 N2080 1.356 . S
C2073 C2072 1.363 . S
C2073 C2079 1.363 . S
C2074 C2075 1.363 . S
C2074 C2079 1.379 . S
C2074 N2081 1.356 . S
C2075 C2074 1.363 . S
C2075 C2078 1.363 . S
N2076 C2078 1.356 . S
N2076 H2088 0.984 . S
N2076 H2089 0.985 . S
N2077 C2079 1.356 . S
N2077 H2082 0.984 . S
N2077 H2083 0.985 . S
C2078 C2072 1.379 . S
C2078 C2075 1.363 . S
C2078 N2076 1.356 . S
C2079 C2073 1.363 . S
C2079 C2074 1.379 . S
C2079 N2077 1.356 . S
N2080 C2072 1.356 . S
N2080 H2086 0.984 . S
N2080 H2087 0.984 . S
N2081 C2074 1.356 . S
N2081 H2084 0.984 . S
N2081 H2085 0.985 . S
H2082 N2077 0.984 . S
H2083 N2077 0.985 . S
H2084 N2081 0.984 . S
H2085 N2081 0.985 . S
H2086 N2080 0.984 . S
H2087 N2080 0.984 . S
H2088 N2076 0.984 . S
H2089 N2076 0.985 . S
C2090 C2091 1.363 . S
C2090 C2096 1.379 . S
C2090 N2098 1.356 . S
C2091 C2090 1.363 . S
C2091 C2097 1.363 . S
C2092 C2093 1.363 . S
C2092 C2097 1.379 . S
C2092 N2099 1.356 . S
C2093 C2092 1.363 . S
C2093 C2096 1.363 . S
N2094 C2096 1.356 . S
N2094 H2106 0.984 . S
N2094 H2107 0.985 . S
N2095 C2097 1.356 . S
N2095 H2100 0.984 . S
N2095 H2101 0.985 . S
C2096 C2090 1.379 . S
C2096 C2093 1.363 . S
C2096 N2094 1.356 . S
C2097 C2091 1.363 . S
C2097 C2092 1.379 . S
C2097 N2095 1.356 . S
N2098 C2090 1.356 . S
N2098 H2104 0.984 . S
N2098 H2105 0.984 . S
N2099 C2092 1.356 . S
N2099 H2102 0.984 . S
N2099 H2103 0.985 . S
H2100 N2095 0.984 . S
H2101 N2095 0.985 . S
H2102 N2099 0.984 . S
H2103 N2099 0.985 . S
H2104 N2098 0.984 . S
H2105 N2098 0.984 . S
H2106 N2094 0.984 . S
H2107 N2094 0.985 . S
C2108 C2109 1.363 . S
C2108 C2114 1.379 . S
C2108 N2116 1.356 . S
C2109 C2108 1.363 . S
C2109 C2115 1.363 . S
C2110 C2111 1.363 . S
C2110 C2115 1.379 . S
C2110 N2117 1.356 1_655 S
C2111 C2110 1.363 . S
C2111 C2114 1.363 . S
N2112 C2114 1.356 . S
N2112 H2124 0.984 . S
N2112 H2125 0.985 . S
N2113 C2115 1.356 . S
N2113 H2118 0.984 . S
N2113 H2119 0.985 . S
C2114 C2108 1.379 . S
C2114 C2111 1.363 . S
C2114 N2112 1.356 . S
C2115 C2109 1.363 . S
C2115 C2110 1.379 . S
C2115 N2113 1.356 . S
N2116 C2108 1.356 . S
N2116 H2122 0.984 . S
N2116 H2123 0.984 . S
N2117 C2110 1.356 1_455 S
N2117 H2120 0.984 . S
N2117 H2121 0.985 . S
H2118 N2113 0.984 . S
H2119 N2113 0.985 . S
H2120 N2117 0.984 . S
H2121 N2117 0.985 . S
H2122 N2116 0.984 . S
H2123 N2116 0.984 . S
H2124 N2112 0.984 . S
H2125 N2112 0.985 . S
C2126 C2127 1.363 . S
C2126 C2132 1.379 . S
C2126 N2134 1.356 . S
C2127 C2126 1.363 . S
C2127 C2133 1.363 . S
C2128 C2129 1.363 . S
C2128 C2133 1.379 . S
C2128 N2135 1.356 . S
C2129 C2128 1.363 . S
C2129 C2132 1.363 . S
N2130 C2132 1.356 . S
N2130 H2142 0.984 . S
N2130 H2143 0.985 . S
N2131 C2133 1.356 . S
N2131 H2136 0.984 . S
N2131 H2137 0.985 . S
C2132 C2126 1.379 . S
C2132 C2129 1.363 . S
C2132 N2130 1.356 . S
C2133 C2127 1.363 . S
C2133 C2128 1.379 . S
C2133 N2131 1.356 . S
N2134 C2126 1.356 . S
N2134 H2140 0.984 . S
N2134 H2141 0.984 . S
N2135 C2128 1.356 . S
N2135 H2138 0.984 . S
N2135 H2139 0.985 . S
H2136 N2131 0.984 . S
H2137 N2131 0.985 . S
H2138 N2135 0.984 . S
H2139 N2135 0.985 . S
H2140 N2134 0.984 . S
H2141 N2134 0.984 . S
H2142 N2130 0.984 . S
H2143 N2130 0.985 . S
C2144 C2145 1.363 . S
C2144 C2150 1.379 . S
C2144 N2152 1.356 . S
C2145 C2144 1.363 . S
C2145 C2151 1.363 . S
C2146 C2147 1.363 . S
C2146 C2151 1.379 . S
C2146 N2153 1.356 . S
C2147 C2146 1.363 . S
C2147 C2150 1.363 . S
N2148 C2150 1.356 . S
N2148 H2160 0.984 . S
N2148 H2161 0.985 . S
N2149 C2151 1.356 . S
N2149 H2154 0.984 . S
N2149 H2155 0.985 . S
C2150 C2144 1.379 . S
C2150 C2147 1.363 . S
C2150 N2148 1.356 . S
C2151 C2145 1.363 . S
C2151 C2146 1.379 . S
C2151 N2149 1.356 . S
N2152 C2144 1.356 . S
N2152 H2158 0.984 . S
N2152 H2159 0.984 . S
N2153 C2146 1.356 . S
N2153 H2156 0.984 . S
N2153 H2157 0.985 . S
H2154 N2149 0.984 . S
H2155 N2149 0.985 . S
H2156 N2153 0.984 . S
H2157 N2153 0.985 . S
H2158 N2152 0.984 . S
H2159 N2152 0.984 . S
H2160 N2148 0.984 . S
H2161 N2148 0.985 . S
C2162 C2163 1.363 . S
C2162 C2168 1.379 . S
C2162 N2170 1.356 . S
C2163 C2162 1.363 . S
C2163 C2169 1.363 . S
C2164 C2165 1.363 . S
C2164 C2169 1.379 . S
C2164 N2171 1.356 . S
C2165 C2164 1.363 . S
C2165 C2168 1.363 . S
N2166 C2168 1.356 . S
N2166 H2178 0.984 . S
N2166 H2179 0.985 . S
N2167 C2169 1.356 . S
N2167 H2172 0.984 . S
N2167 H2173 0.985 . S
C2168 C2162 1.379 . S
C2168 C2165 1.363 . S
C2168 N2166 1.356 . S
C2169 C2163 1.363 . S
C2169 C2164 1.379 . S
C2169 N2167 1.356 . S
N2170 C2162 1.356 . S
N2170 H2176 0.984 . S
N2170 H2177 0.984 . S
N2171 C2164 1.356 . S
N2171 H2174 0.984 . S
N2171 H2175 0.985 . S
H2172 N2167 0.984 . S
H2173 N2167 0.985 . S
H2174 N2171 0.984 . S
H2175 N2171 0.985 . S
H2176 N2170 0.984 . S
H2177 N2170 0.984 . S
H2178 N2166 0.984 . S
H2179 N2166 0.985 . S
C2180 C2181 1.363 . S
C2180 C2186 1.379 . S
C2180 N2188 1.356 . S
C2181 C2180 1.363 . S
C2181 C2187 1.363 . S
C2182 C2183 1.363 . S
C2182 C2187 1.379 . S
C2182 N2189 1.356 . S
C2183 C2182 1.363 . S
C2183 C2186 1.363 . S
N2184 C2186 1.356 . S
N2184 H2196 0.984 . S
N2184 H2197 0.985 . S
N2185 C2187 1.356 . S
N2185 H2190 0.984 . S
N2185 H2191 0.985 . S
C2186 C2180 1.379 . S
C2186 C2183 1.363 . S
C2186 N2184 1.356 . S
C2187 C2181 1.363 . S
C2187 C2182 1.379 . S
C2187 N2185 1.356 . S
N2188 C2180 1.356 . S
N2188 H2194 0.984 . S
N2188 H2195 0.984 . S
N2189 C2182 1.356 . S
N2189 H2192 0.984 . S
N2189 H2193 0.985 . S
H2190 N2185 0.984 . S
H2191 N2185 0.985 . S
H2192 N2189 0.984 . S
H2193 N2189 0.985 . S
H2194 N2188 0.984 . S
H2195 N2188 0.984 . S
H2196 N2184 0.984 . S
H2197 N2184 0.985 . S
C2198 C2199 1.363 . S
C2198 C2204 1.379 . S
C2198 N2206 1.356 . S
C2199 C2198 1.363 . S
C2199 C2205 1.363 . S
C2200 C2201 1.363 . S
C2200 C2205 1.379 . S
C2200 N2207 1.356 . S
C2201 C2200 1.363 . S
C2201 C2204 1.363 . S
N2202 C2204 1.356 . S
N2202 H2214 0.984 . S
N2202 H2215 0.985 . S
N2203 C2205 1.356 . S
N2203 H2208 0.984 . S
N2203 H2209 0.985 . S
C2204 C2198 1.379 . S
C2204 C2201 1.363 . S
C2204 N2202 1.356 . S
C2205 C2199 1.363 . S
C2205 C2200 1.379 . S
C2205 N2203 1.356 . S
N2206 C2198 1.356 . S
N2206 H2212 0.984 . S
N2206 H2213 0.984 . S
N2207 C2200 1.356 . S
N2207 H2210 0.984 . S
N2207 H2211 0.985 . S
H2208 N2203 0.984 . S
H2209 N2203 0.985 . S
H2210 N2207 0.984 . S
H2211 N2207 0.985 . S
H2212 N2206 0.984 . S
H2213 N2206 0.984 . S
H2214 N2202 0.984 . S
H2215 N2202 0.985 . S
C2216 C2217 1.363 . S
C2216 C2222 1.379 . S
C2216 N2224 1.356 . S
C2217 C2216 1.363 . S
C2217 C2223 1.363 . S
C2218 C2219 1.363 . S
C2218 C2223 1.379 . S
C2218 N2225 1.356 . S
C2219 C2218 1.363 . S
C2219 C2222 1.363 . S
N2220 C2222 1.356 . S
N2220 H2232 0.984 . S
N2220 H2233 0.985 . S
N2221 C2223 1.356 . S
N2221 H2226 0.984 . S
N2221 H2227 0.985 . S
C2222 C2216 1.379 . S
C2222 C2219 1.363 . S
C2222 N2220 1.356 . S
C2223 C2217 1.363 . S
C2223 C2218 1.379 . S
C2223 N2221 1.356 . S
N2224 C2216 1.356 . S
N2224 H2230 0.984 . S
N2224 H2231 0.984 . S
N2225 C2218 1.356 . S
N2225 H2228 0.984 . S
N2225 H2229 0.985 . S
H2226 N2221 0.984 . S
H2227 N2221 0.985 . S
H2228 N2225 0.984 . S
H2229 N2225 0.985 . S
H2230 N2224 0.984 . S
H2231 N2224 0.984 . S
H2232 N2220 0.984 . S
H2233 N2220 0.985 . S
C2234 C2235 1.363 . S
C2234 C2240 1.379 . S
C2234 N2242 1.356 . S
C2235 C2234 1.363 . S
C2235 C2241 1.363 . S
C2236 C2237 1.363 . S
C2236 C2241 1.379 . S
C2236 N2243 1.356 . S
C2237 C2236 1.363 . S
C2237 C2240 1.363 . S
N2238 C2240 1.356 . S
N2238 H2250 0.984 . S
N2238 H2251 0.985 . S
N2239 C2241 1.356 . S
N2239 H2244 0.984 . S
N2239 H2245 0.985 . S
C2240 C2234 1.379 . S
C2240 C2237 1.363 . S
C2240 N2238 1.356 . S
C2241 C2235 1.363 . S
C2241 C2236 1.379 . S
C2241 N2239 1.356 . S
N2242 C2234 1.356 . S
N2242 H2248 0.984 . S
N2242 H2249 0.984 . S
N2243 C2236 1.356 . S
N2243 H2246 0.984 . S
N2243 H2247 0.985 . S
H2244 N2239 0.984 . S
H2245 N2239 0.985 . S
H2246 N2243 0.984 . S
H2247 N2243 0.985 . S
H2248 N2242 0.984 . S
H2249 N2242 0.984 . S
H2250 N2238 0.984 . S
H2251 N2238 0.985 . S
C2252 C2253 1.363 . S
C2252 C2258 1.379 . S
C2252 N2260 1.356 . S
C2253 C2252 1.363 . S
C2253 C2259 1.363 . S
C2254 C2255 1.363 . S
C2254 C2259 1.379 . S
C2254 N2261 1.356 . S
C2255 C2254 1.363 . S
C2255 C2258 1.363 . S
N2256 C2258 1.356 . S
N2256 H2268 0.984 . S
N2256 H2269 0.985 . S
N2257 C2259 1.356 . S
N2257 H2262 0.984 . S
N2257 H2263 0.985 . S
C2258 C2252 1.379 . S
C2258 C2255 1.363 . S
C2258 N2256 1.356 . S
C2259 C2253 1.363 . S
C2259 C2254 1.379 . S
C2259 N2257 1.356 . S
N2260 C2252 1.356 . S
N2260 H2266 0.984 . S
N2260 H2267 0.984 . S
N2261 C2254 1.356 . S
N2261 H2264 0.984 . S
N2261 H2265 0.985 . S
H2262 N2257 0.984 . S
H2263 N2257 0.985 . S
H2264 N2261 0.984 . S
H2265 N2261 0.985 . S
H2266 N2260 0.984 . S
H2267 N2260 0.984 . S
H2268 N2256 0.984 . S
H2269 N2256 0.985 . S
C2270 C2271 1.363 . S
C2270 C2276 1.378 1_554 S
C2270 N2278 1.356 1_554 S
C2271 C2270 1.363 . S
C2271 C2277 1.363 . S
C2272 C2273 1.363 . S
C2272 C2277 1.379 . S
C2272 N2279 1.356 . S
C2273 C2272 1.363 . S
C2273 C2276 1.366 1_554 S
N2274 C2276 1.354 . S
N2274 H2286 0.984 . S
N2274 H2287 0.985 . S
N2275 C2277 1.356 . S
N2275 H2280 0.984 . S
N2275 H2281 0.985 . S
C2276 C2270 1.378 1_556 S
C2276 C2273 1.366 1_556 S
C2276 N2274 1.354 . S
C2277 C2271 1.363 . S
C2277 C2272 1.379 . S
C2277 N2275 1.356 . S
N2278 C2270 1.356 1_556 S
N2278 H2284 0.984 . S
N2278 H2285 0.984 . S
N2279 C2272 1.356 . S
N2279 H2282 0.984 . S
N2279 H2283 0.985 . S
H2280 N2275 0.984 . S
H2281 N2275 0.985 . S
H2282 N2279 0.984 . S
H2283 N2279 0.985 . S
H2284 N2278 0.984 . S
H2285 N2278 0.984 . S
H2286 N2274 0.984 . S
H2287 N2274 0.985 . S
C2288 C2289 1.363 . S
C2288 C2294 1.379 . S
C2288 N2296 1.356 . S
C2289 C2288 1.363 . S
C2289 C2295 1.363 . S
C2290 C2291 1.363 . S
C2290 C2295 1.379 . S
C2290 N2297 1.356 . S
C2291 C2290 1.363 . S
C2291 C2294 1.363 . S
N2292 C2294 1.356 . S
N2292 H2304 0.984 . S
N2292 H2305 0.985 . S
N2293 C2295 1.356 . S
N2293 H2298 0.984 . S
N2293 H2299 0.985 . S
C2294 C2288 1.379 . S
C2294 C2291 1.363 . S
C2294 N2292 1.356 . S
C2295 C2289 1.363 . S
C2295 C2290 1.379 . S
C2295 N2293 1.356 . S
N2296 C2288 1.356 . S
N2296 H2302 0.984 . S
N2296 H2303 0.984 . S
N2297 C2290 1.356 . S
N2297 H2300 0.984 . S
N2297 H2301 0.985 . S
H2298 N2293 0.984 . S
H2299 N2293 0.985 . S
H2300 N2297 0.984 . S
H2301 N2297 0.985 . S
H2302 N2296 0.984 . S
H2303 N2296 0.984 . S
H2304 N2292 0.984 . S
H2305 N2292 0.985 . S
C2306 C2307 1.363 . S
C2306 C2312 1.379 . S
C2306 N2314 1.356 . S
C2307 C2306 1.363 . S
C2307 C2313 1.363 . S
C2308 C2309 1.363 . S
C2308 C2313 1.379 . S
C2308 N2315 1.356 1_554 S
C2309 C2308 1.363 . S
C2309 C2312 1.363 . S
N2310 C2312 1.356 . S
N2310 H2322 0.984 . S
N2310 H2323 0.985 . S
N2311 C2313 1.356 . S
N2311 H2316 0.984 . S
N2311 H2317 0.985 1_554 S
C2312 C2306 1.379 . S
C2312 C2309 1.363 . S
C2312 N2310 1.356 . S
C2313 C2307 1.363 . S
C2313 C2308 1.379 . S
C2313 N2311 1.356 . S
N2314 C2306 1.356 . S
N2314 H2320 0.984 . S
N2314 H2321 0.984 . S
N2315 C2308 1.356 1_556 S
N2315 H2318 0.984 . S
N2315 H2319 0.985 . S
H2316 N2311 0.984 . S
H2317 N2311 0.985 1_556 S
H2318 N2315 0.984 . S
H2319 N2315 0.985 . S
H2320 N2314 0.984 . S
H2321 N2314 0.984 . S
H2322 N2310 0.984 . S
H2323 N2310 0.985 . S
C2324 C2325 1.363 . S
C2324 C2330 1.379 . S
C2324 N2332 1.356 . S
C2325 C2324 1.363 . S
C2325 C2331 1.363 . S
C2326 C2327 1.363 . S
C2326 C2331 1.379 . S
C2326 N2333 1.356 . S
C2327 C2326 1.363 . S
C2327 C2330 1.363 . S
N2328 C2330 1.356 . S
N2328 H2340 0.984 . S
N2328 H2341 0.985 . S
N2329 C2331 1.356 . S
N2329 H2334 0.984 . S
N2329 H2335 0.985 . S
C2330 C2324 1.379 . S
C2330 C2327 1.363 . S
C2330 N2328 1.356 . S
C2331 C2325 1.363 . S
C2331 C2326 1.379 . S
C2331 N2329 1.356 . S
N2332 C2324 1.356 . S
N2332 H2338 0.984 . S
N2332 H2339 0.984 . S
N2333 C2326 1.356 . S
N2333 H2336 0.984 . S
N2333 H2337 0.985 . S
H2334 N2329 0.984 . S
H2335 N2329 0.985 . S
H2336 N2333 0.984 . S
H2337 N2333 0.985 . S
H2338 N2332 0.984 . S
H2339 N2332 0.984 . S
H2340 N2328 0.984 . S
H2341 N2328 0.985 . S
C2342 C2343 1.363 . S
C2342 C2348 1.379 . S
C2342 N2350 1.356 . S
C2343 C2342 1.363 . S
C2343 C2349 1.363 . S
C2344 C2345 1.363 . S
C2344 C2349 1.379 . S
C2344 N2351 1.356 . S
C2345 C2344 1.363 . S
C2345 C2348 1.363 . S
N2346 C2348 1.356 . S
N2346 H2358 0.984 . S
N2346 H2359 0.985 . S
N2347 C2349 1.356 . S
N2347 H2352 0.984 . S
N2347 H2353 0.985 . S
C2348 C2342 1.379 . S
C2348 C2345 1.363 . S
C2348 N2346 1.356 . S
C2349 C2343 1.363 . S
C2349 C2344 1.379 . S
C2349 N2347 1.356 . S
N2350 C2342 1.356 . S
N2350 H2356 0.984 . S
N2350 H2357 0.984 . S
N2351 C2344 1.356 . S
N2351 H2354 0.984 . S
N2351 H2355 0.985 . S
H2352 N2347 0.984 . S
H2353 N2347 0.985 . S
H2354 N2351 0.984 . S
H2355 N2351 0.985 . S
H2356 N2350 0.984 . S
H2357 N2350 0.984 . S
H2358 N2346 0.984 . S
H2359 N2346 0.985 . S
C633 C101 1.651 . S
C635 C316 1.330 . S
C651 C57 1.546 . S
C653 C351 1.509 . S
C669 C70 1.212 . S
C671 C356 1.065 . S
C689 C381 1.333 . S
C687 C82 1.452 . S
C705 C23 1.451 . S
C707 C401 1.333 . S
C725 C416 1.066 . S
C723 C29 1.212 . S
C743 C451 1.501 . S
C741 C49 1.540 . S
C759 C10 1.650 . S
C761 C456 1.330 . S
C779 C331 1.650 . S
C777 C218 1.763 . S
C795 C226 1.161 . S
C797 C341 1.041 . S
C815 C371 1.449 1_565 S
C813 C251 1.490 . S
C833 C376 1.144 . S
C831 C159 1.281 . S
C849 C211 1.280 . S
C851 C396 1.144 . S
C869 C431 1.450 . S
C867 C225 1.491 . S
C887 C441 1.040 . S
C885 C252 1.159 . S
C905 C471 1.648 . S
C903 C166 1.761 . S
C923 C321 1.413 . S
C921 C147 1.685 . S
C939 C263 1.746 . S
C941 C491 1.737 . S
C959 C501 1.464 . S
C957 C309 1.633 . S
C977 C516 1.055 . S
C975 C291 1.186 . S
C993 C108 1.684 . S
C995 C461 1.412 . S
C1011 C121 1.634 . S
C1013 C361 1.465 . S
C1029 C302 1.747 . S
C1031 C551 1.740 . S
C1049 C556 1.055 . S
C1047 C276 1.186 . S
C1067 C314 1.380 . S
C1065 C55 1.588 . S
C1085 C570 1.671 . S
C1083 C96 1.701 . S
C1101 C88 1.331 . S
C1103 C354 1.217 . S
C1119 C75 1.606 . S
C1121 C544 1.524 . S
C1139 C404 1.523 . S
C1137 C4 1.606 . S
C1155 C44 1.337 . S
C1157 C494 1.223 . S
C1175 C450 1.670 1_556 S
C1173 C31 1.700 . S
C1193 C574 1.380 . S
C1191 C18 1.589 . S
C1211 C330 1.741 . S
C1209 C133 1.821 . S
C1229 C564 1.226 . S
C1227 C296 1.295 . S
C1245 C107 1.607 . S
C1247 C370 1.574 . S
C1263 C264 1.442 . S
C1265 C534 1.320 . S
C1281 C140 1.442 . S
C1283 C394 1.324 . S
C1301 C510 1.575 . S
C1299 C289 1.607 . S
C1317 C114 1.298 . S
C1319 C444 1.228 . S
C1335 C265 1.821 . S
C1337 C590 1.745 . S
C1353 C179 1.609 . S
C1355 C324 1.447 . S
C1371 C161 1.914 . S
C1373 C490 1.891 . S
C1389 C244 1.736 . S
C1391 C424 1.624 . S
C1407 C224 1.295 . S
C1409 C514 1.199 . S
C1427 C584 1.446 . S
C1425 C257 1.609 . S
C1443 C199 1.735 . S
C1445 C364 1.623 . S
C1463 C390 1.889 . S
C1461 C237 1.913 . S
C1481 C334 1.198 . S
C1479 C185 1.294 . S
C1497 C69 1.652 . S
C1499 C596 1.331 . S
C1517 C571 1.510 . S
C1515 C83 1.547 . S
C1533 C94 1.213 . S
C1535 C616 1.066 1_656 S
C1551 C56 1.451 . S
C1553 C541 1.333 . S
C1569 C42 1.461 . S
C1571 C481 1.339 . S
C1589 C496 1.066 . S
C1587 C3 1.213 . S
C1607 C531 1.510 . S
C1605 C16 1.544 . S
C1625 C576 1.330 . S
C1623 C36 1.652 . S
C1643 C611 1.650 . S
C1641 C238 1.763 . S
C1659 C174 1.160 . S
C1661 C561 1.040 . S
C1679 C631 1.449 . S
C1677 C186 1.490 . S
C1697 C536 1.144 . S
C1695 C198 1.280 . S
C1715 C476 1.145 . S
C1713 C239 1.281 . S
C1731 C173 1.491 . S
C1733 C511 1.450 . S
C1751 C521 1.041 . S
C1749 C187 1.161 . S
C1767 C205 1.762 . S
C1769 C591 1.649 . S
C1787 C601 1.411 . S
C1785 C290 1.683 . S
C1803 C122 1.747 . S
C1805 C411 1.740 . S
C1823 C421 1.466 . S
C1821 C134 1.635 . S
C1841 C436 1.055 . S
C1839 C148 1.185 . S
C1859 C581 1.411 . S
C1857 C283 1.683 . S
C1875 C270 1.633 . S
C1877 C621 1.464 . S
C1895 C391 1.739 . S
C1893 C135 1.747 . S
C1913 C336 1.054 . S
C1911 C109 1.185 . S
C1929 C81 1.589 . S
C1931 C594 1.380 . S
C1949 C350 1.671 . S
C1947 C68 1.701 . S
C1965 C62 1.331 . S
C1967 C614 1.217 . S
C1983 C95 1.606 . S
C1985 C384 1.523 . S
C2001 C30 1.606 . S
C2003 C484 1.524 . S
C2021 C414 1.217 . S
C2019 C17 1.331 . S
C2037 C5 1.701 . S
C2039 C530 1.671 . S
C2055 C43 1.584 . S
C2057 C454 1.373 . S
C2075 C610 1.741 . S
C2073 C304 1.820 . S
C2091 C153 1.294 . S
C2093 C344 1.225 . S
C2111 C630 1.574 . S
C2109 C278 1.606 . S
C2127 C127 1.442 . S
C2129 C374 1.324 . S
C2145 C303 1.439 . S
C2147 C474 1.322 . S
C2165 C430 1.573 . S
C2163 C146 1.606 . S
C2181 C277 1.295 . S
C2183 C524 1.225 . S
C2201 C470 1.740 . S
C2199 C120 1.820 . S
C2219 C604 1.447 . S
C2217 C231 1.609 . S
C2237 C410 1.889 . S
C2235 C200 1.913 . S
C2253 C212 1.737 . S
C2255 C504 1.625 . S
C2273 C434 1.198 . S
C2271 C172 1.295 . S
C2289 C192 1.608 . S
C2291 C464 1.445 . S
C2307 C160 1.735 . S
C2309 C624 1.623 . S
C2327 C550 1.890 . S
C2325 C213 1.914 . S
C2345 C554 1.199 . S
C2343 C250 1.295 . S
