# Generated by pormake.
# Topology rtl, (3,6)-cn, num edge types: 1
# Building blocks:
#     Node 0, Type 0, BuildingBlock: OLANEW_clean_sbu_2, # of connection points: 3
#     Node 1, Type 0, BuildingBlock: OLANEW_clean_sbu_2, # of connection points: 3
#     Node 2, Type 0, BuildingBlock: OLANEW_clean_sbu_2, # of connection points: 3
#     Node 3, Type 0, BuildingBlock: OLANEW_clean_sbu_2, # of connection points: 3
#     Node 4, Type 1, BuildingBlock: VOLQOD_clean_sbu_1, # of connection points: 6
#     Node 5, Type 1, BuildingBlock: VOLQOD_clean_sbu_1, # of connection points: 6
#     Edge 6, Type (0, 1), BuildingBlock: TEMPAE_clean_linker_10, # of connection points: 2
#     Edge 7, Type (0, 1), BuildingBlock: TEMPAE_clean_linker_10, # of connection points: 2
#     Edge 8, Type (0, 1), BuildingBlock: TEMPAE_clean_linker_10, # of connection points: 2
#     Edge 9, Type (0, 1), BuildingBlock: TEMPAE_clean_linker_10, # of connection points: 2
#     Edge 10, Type (0, 1), BuildingBlock: TEMPAE_clean_linker_10, # of connection points: 2
#     Edge 11, Type (0, 1), BuildingBlock: TEMPAE_clean_linker_10, # of connection points: 2
#     Edge 12, Type (0, 1), BuildingBlock: TEMPAE_clean_linker_10, # of connection points: 2
#     Edge 13, Type (0, 1), BuildingBlock: TEMPAE_clean_linker_10, # of connection points: 2
#     Edge 14, Type (0, 1), BuildingBlock: TEMPAE_clean_linker_10, # of connection points: 2
#     Edge 15, Type (0, 1), BuildingBlock: TEMPAE_clean_linker_10, # of connection points: 2
#     Edge 16, Type (0, 1), BuildingBlock: TEMPAE_clean_linker_10, # of connection points: 2
#     Edge 17, Type (0, 1), BuildingBlock: TEMPAE_clean_linker_10, # of connection points: 2
# Relax obj value: 0.054
# Max RMSD: 0.146
# Mean RMSD: 0.100
data_MOF--net-rtl--node1-OLANEW_clean_sbu_2--node2-VOLQOD_clean_sbu_1--edge1-TEMPAE_clean_linker_10
_symmetry_space_group_name_H-M    P1
_symmetry_Int_Tables_number       1
_symmetry_cell_setting            triclinic
loop_
_symmetry_equiv_pos_as_xyz
'x, y, z'
_cell_length_a     40.991197
_cell_length_b     38.697871
_cell_length_c     23.489336
_cell_angle_alpha  87.113552
_cell_angle_beta   93.123734
_cell_angle_gamma 90.047163
loop_
_atom_site_label
_atom_site_type_symbol
_atom_site_fract_x
_atom_site_fract_y
_atom_site_fract_z
_atom_type_partial_charge
O0 O 0.13613 0.71795 0.90939 0.0
Cd1 Cd 0.15269 0.66792 0.97166 0.0
O2 O 0.12689 0.74239 0.98884 0.0
Cd3 Cd 0.11444 0.78417 0.04306 0.0
O4 O 0.10505 0.81812 0.11172 0.0
C5 C 0.07734 0.83237 0.11485 0.0
O6 O 0.05432 0.82713 0.07508 0.0
C7 C 0.12651 0.74406 0.9346 0.0
C8 C 0.21692 0.6471 0.96022 0.0
O9 O 0.19312 0.63261 0.93294 0.0
O10 O 0.21034 0.67171 0.99231 0.0
O11 O 0.62309 0.80408 0.66764 0.0
Cd12 Cd 0.63308 0.86074 0.62124 0.0
O13 O 0.63611 0.77878 0.59101 0.0
Cd14 Cd 0.64487 0.73903 0.53047 0.0
O15 O 0.6403 0.70529 0.45882 0.0
C16 C 0.63483 0.71927 0.40909 0.0
O17 O 0.63335 0.75318 0.40296 0.0
C18 C 0.62622 0.77639 0.64156 0.0
C19 C 0.69897 0.87707 0.61274 0.0
O20 O 0.68401 0.88317 0.6577 0.0
O21 O 0.68287 0.86267 0.57205 0.0
O22 O 0.869 0.23538 0.13156 0.0
Cd23 Cd 0.85151 0.25441 0.03393 0.0
O24 O 0.90528 0.27579 0.1498 0.0
Cd25 Cd 0.90218 0.29155 0.05944 0.0
O26 O 0.91428 0.26393 0.98475 0.0
C27 C 0.92044 0.23214 0.99692 0.0
O28 O 0.91904 0.22042 0.0502 0.0
C29 C 0.88952 0.2491 0.16616 0.0
C30 C 0.80137 0.30296 0.02938 0.0
O31 O 0.79568 0.27071 0.03914 0.0
O32 O 0.83085 0.31245 0.02194 0.0
O33 O 0.39499 0.21616 0.70958 0.0
Cd34 Cd 0.38559 0.16255 0.66034 0.0
O35 O 0.39977 0.23781 0.62286 0.0
Cd36 Cd 0.40762 0.27762 0.55613 0.0
O37 O 0.41734 0.30921 0.47979 0.0
C38 C 0.44635 0.31906 0.47163 0.0
O39 O 0.46967 0.31066 0.51045 0.0
C40 C 0.40109 0.24195 0.67628 0.0
C41 C 0.32036 0.14316 0.64612 0.0
O42 O 0.33879 0.13 0.68744 0.0
O43 O 0.33261 0.16597 0.61208 0.0
O44 O 0.92781 0.00727 0.58051 0.0
Zn45 Zn 0.96583 0.04005 0.58496 0.0
O46 O 0.0075 0.01594 0.58238 0.0
Zn47 Zn 0.03367 0.02276 0.65315 0.0
Zn48 Zn 0.99907 0.96657 0.57443 0.0
Zn49 Zn 0.03106 0.03454 0.51719 0.0
O50 O 0.07603 0.04618 0.63668 0.0
O51 O 0.07588 0.05208 0.54209 0.0
O52 O 0.96333 0.06488 0.6573 0.0
O53 O 0.01061 0.05349 0.70501 0.0
O54 O 0.04475 0.97703 0.69516 0.0
O55 O 0.02204 0.93828 0.63874 0.0
O56 O 0.01465 0.95086 0.49976 0.0
O57 O 0.96006 0.07633 0.52129 0.0
O58 O 0.03675 0.99807 0.46047 0.0
O59 O 0.00594 0.07391 0.47556 0.0
C60 C 0.92557 0.97454 0.57841 0.0
C61 C 0.0898 0.05573 0.59125 0.0
C62 C 0.03879 0.94572 0.68375 0.0
C63 C 0.9828 0.06831 0.70067 0.0
C64 C 0.02906 0.96622 0.45895 0.0
C65 C 0.97805 0.08731 0.48181 0.0
O66 O 0.95093 0.95568 0.57671 0.0
O67 O 0.60572 0.49179 0.99232 0.0
Zn68 Zn 0.57006 0.52805 0.98588 0.0
O69 O 0.52639 0.50726 0.98529 0.0
Zn70 Zn 0.50144 0.51917 0.91305 0.0
Zn71 Zn 0.53089 0.45715 0.99542 0.0
Zn72 Zn 0.50307 0.52426 0.04845 0.0
O73 O 0.45908 0.5432 0.92737 0.0
O74 O 0.45978 0.5451 0.02172 0.0
O75 O 0.57486 0.55742 0.91353 0.0
O76 O 0.52738 0.55243 0.86391 0.0
O77 O 0.48898 0.47595 0.87047 0.0
O78 O 0.50702 0.43379 0.93184 0.0
O79 O 0.51385 0.43885 0.07022 0.0
O80 O 0.57758 0.5591 0.05205 0.0
O81 O 0.49451 0.48606 0.10624 0.0
O82 O 0.52941 0.55948 0.09066 0.0
C83 C 0.6047 0.45887 0.99394 0.0
C84 C 0.44572 0.55122 0.97261 0.0
C85 C 0.49232 0.44384 0.88482 0.0
C86 C 0.55606 0.56506 0.86968 0.0
C87 C 0.50009 0.45368 0.10978 0.0
C88 C 0.55885 0.56978 0.08901 0.0
O89 O 0.57774 0.44258 0.99411 0.0
C90 C 0.27651 0.09917 0.6591 0.0
C91 C 0.28615 0.13171 0.63714 0.0
C92 C 0.24441 0.08739 0.64946 0.0
C93 C 0.2212 0.10905 0.61837 0.0
C94 C 0.23069 0.14214 0.59673 0.0
C95 C 0.26321 0.15291 0.60576 0.0
C96 C 0.23539 0.05164 0.67222 0.0
C97 C 0.20643 0.16629 0.56463 0.0
C98 C 0.14492 0.06707 0.55359 0.0
C99 C 0.12281 0.07101 0.59626 0.0
C100 C 0.17703 0.07956 0.55997 0.0
C101 C 0.18688 0.09717 0.60947 0.0
C102 C 0.16424 0.10227 0.65168 0.0
C103 C 0.13261 0.08871 0.64492 0.0
C104 C 0.20069 0.07298 0.51464 0.0
C105 C 0.17355 0.12167 0.70435 0.0
H106 H 0.29427 0.08259 0.68293 0.0
H107 H 0.27056 0.17816 0.58896 0.0
H108 H 0.21615 0.05349 0.70335 0.0
H109 H 0.22523 0.03622 0.63686 0.0
H110 H 0.25664 0.03752 0.69356 0.0
H111 H 0.21763 0.19136 0.55129 0.0
H112 H 0.19599 0.15404 0.52606 0.0
H113 H 0.18585 0.17148 0.59181 0.0
H114 H 0.13744 0.05321 0.51609 0.0
H115 H 0.11545 0.0921 0.67773 0.0
H116 H 0.22137 0.05693 0.53346 0.0
H117 H 0.21109 0.09775 0.49819 0.0
H118 H 0.18902 0.05949 0.47819 0.0
H119 H 0.19281 0.10723 0.73064 0.0
H120 H 0.15242 0.12551 0.73106 0.0
H121 H 0.18378 0.14736 0.69203 0.0
C122 C 0.27722 0.65566 0.97436 0.0
C123 C 0.25089 0.63496 0.95646 0.0
C124 C 0.30951 0.64369 0.97381 0.0
C125 C 0.31552 0.60996 0.95608 0.0
C126 C 0.28905 0.58917 0.93709 0.0
C127 C 0.25706 0.60207 0.93699 0.0
C128 C 0.33715 0.66687 0.99329 0.0
C129 C 0.29443 0.55285 0.91876 0.0
C130 C 0.40059 0.58384 0.91729 0.0
C131 C 0.41276 0.56705 0.96837 0.0
C132 C 0.36917 0.59854 0.9129 0.0
C133 C 0.34928 0.59569 0.96032 0.0
C134 C 0.36143 0.57869 0.01191 0.0
C135 C 0.39313 0.56489 0.01548 0.0
C136 C 0.35726 0.61709 0.85758 0.0
C137 C 0.34076 0.5746 0.06314 0.0
H138 H 0.27259 0.68122 0.98903 0.0
H139 H 0.23679 0.58591 0.92333 0.0
H140 H 0.34945 0.65549 0.03311 0.0
H141 H 0.35571 0.66894 0.96063 0.0
H142 H 0.32857 0.6933 0.0015 0.0
H143 H 0.27136 0.54046 0.90343 0.0
H144 H 0.31182 0.55308 0.88419 0.0
H145 H 0.30546 0.5367 0.95519 0.0
H146 H 0.41575 0.58579 0.88086 0.0
H147 H 0.40229 0.55172 0.05495 0.0
H148 H 0.34986 0.64391 0.8656 0.0
H149 H 0.33537 0.60386 0.83935 0.0
H150 H 0.37618 0.61815 0.82542 0.0
H151 H 0.33348 0.60037 0.0768 0.0
H152 H 0.35375 0.56038 0.09989 0.0
H153 H 0.31799 0.56042 0.05163 0.0
C154 C 0.75182 0.89956 0.65432 0.0
C155 C 0.73345 0.88761 0.60718 0.0
C156 C 0.78384 0.91166 0.64896 0.0
C157 C 0.79771 0.91217 0.59503 0.0
C158 C 0.77958 0.89942 0.54755 0.0
C159 C 0.7477 0.88713 0.55426 0.0
C160 C 0.80255 0.92467 0.70075 0.0
C161 C 0.79347 0.89977 0.48929 0.0
C162 C 0.86454 0.97847 0.57156 0.0
C163 C 0.89289 0.95814 0.57976 0.0
C164 C 0.83343 0.96367 0.57516 0.0
C165 C 0.83055 0.92768 0.58787 0.0
C166 C 0.85901 0.90689 0.5954 0.0
C167 C 0.88985 0.92234 0.59095 0.0
C168 C 0.80364 0.98666 0.5662 0.0
C169 C 0.85689 0.86847 0.60944 0.0
H170 H 0.74106 0.89982 0.69543 0.0
H171 H 0.73365 0.87797 0.51761 0.0
H172 H 0.82655 0.91139 0.7071 0.0
H173 H 0.80745 0.95275 0.69409 0.0
H174 H 0.78905 0.92057 0.74028 0.0
H175 H 0.77687 0.88737 0.4574 0.0
H176 H 0.79791 0.92686 0.47393 0.0
H177 H 0.81734 0.88614 0.49172 0.0
H178 H 0.86662 0.00611 0.56251 0.0
H179 H 0.91161 0.90643 0.59753 0.0
H180 H 0.79014 0.98637 0.6059 0.0
H181 H 0.78683 0.97673 0.53219 0.0
H182 H 0.81002 0.01386 0.55417 0.0
H183 H 0.84548 0.86384 0.6509 0.0
H184 H 0.88125 0.85575 0.61213 0.0
H185 H 0.84111 0.85598 0.5766 0.0
C186 C 0.74769 0.32316 0.05981 0.0
C187 C 0.77445 0.32831 0.0258 0.0
C188 C 0.72135 0.34642 0.05569 0.0
C189 C 0.7213 0.37473 0.01504 0.0
C190 C 0.74835 0.38004 0.98061 0.0
C191 C 0.77492 0.35705 0.98716 0.0
C192 C 0.69343 0.34048 0.09439 0.0
C193 C 0.74869 0.40925 0.93553 0.0
C194 C 0.63694 0.40845 0.96688 0.0
C195 C 0.63532 0.43883 0.99656 0.0
C196 C 0.66532 0.38809 0.97077 0.0
C197 C 0.69223 0.39774 0.00691 0.0
C198 C 0.69073 0.42853 0.03684 0.0
C199 C 0.66242 0.44909 0.03048 0.0
C200 C 0.66634 0.35604 0.93677 0.0
C201 C 0.71851 0.43906 0.07713 0.0
H202 H 0.7475 0.30105 0.09004 0.0
H203 H 0.79556 0.36082 0.96055 0.0
H204 H 0.68842 0.36439 0.11663 0.0
H205 H 0.67091 0.33414 0.06871 0.0
H206 H 0.69853 0.31904 0.12691 0.0
H207 H 0.77184 0.41018 0.913 0.0
H208 H 0.72805 0.40614 0.90361 0.0
H209 H 0.74525 0.43442 0.95499 0.0
H210 H 0.61601 0.40071 0.94029 0.0
H211 H 0.66096 0.47246 0.05381 0.0
H212 H 0.6677 0.33266 0.96611 0.0
H213 H 0.68852 0.35624 0.91168 0.0
H214 H 0.64449 0.35382 0.90704 0.0
H215 H 0.72245 0.41884 0.11203 0.0
H216 H 0.71376 0.46411 0.09632 0.0
H217 H 0.7415 0.44127 0.05444 0.0
C218 C 0.09481 0.85715 0.2081 0.0
C219 C 0.07072 0.85332 0.16408 0.0
C220 C 0.08854 0.87586 0.25599 0.0
C221 C 0.05747 0.89118 0.25993 0.0
C222 C 0.03318 0.88782 0.21535 0.0
C223 C 0.04008 0.8689 0.16797 0.0
C224 C 0.11507 0.8789 0.30267 0.0
C225 C -0.00021 0.90395 0.21796 0.0
C226 C 0.03034 0.91128 0.40682 0.0
C227 C 0.03662 0.94689 0.40827 0.0
C228 C 0.03706 0.89283 0.35884 0.0
C229 C 0.05026 0.91042 0.31105 0.0
C230 C 0.05668 0.94631 0.31218 0.0
C231 C 0.04985 0.9641 0.36078 0.0
C232 C 0.03004 0.8545 0.35927 0.0
C233 C 0.07067 0.96596 0.26197 0.0
H234 H 0.11856 0.84523 0.20549 0.0
H235 H 0.02135 0.86613 0.13415 0.0
H236 H 0.12039 0.90655 0.30942 0.0
H237 H 0.10668 0.86726 0.34346 0.0
H238 H 0.13807 0.86587 0.29273 0.0
H239 H 0.98383 0.89952 0.17926 0.0
H240 H 0.98763 0.89307 0.2559 0.0
H241 H 0.00216 0.93224 0.22269 0.0
H242 H 0.02018 0.89771 0.44324 0.0
H243 H 0.05473 0.99162 0.36132 0.0
H244 H 0.05278 0.84001 0.3529 0.0
H245 H 0.01238 0.84889 0.32345 0.0
H246 H 0.01986 0.84465 0.39985 0.0
H247 H 0.09459 0.9547 0.25281 0.0
H248 H 0.07415 0.99387 0.26955 0.0
H249 H 0.05421 0.96358 0.22328 0.0
C250 C 0.61099 0.71314 0.63994 0.0
C251 C 0.61787 0.74274 0.67056 0.0
C252 C 0.6022 0.68179 0.66785 0.0
C253 C 0.59898 0.68033 0.72759 0.0
C254 C 0.60552 0.71016 0.75873 0.0
C255 C 0.61515 0.74081 0.72998 0.0
C256 C 0.59589 0.65038 0.63326 0.0
C257 C 0.60174 0.70993 0.82238 0.0
C258 C 0.54397 0.61371 0.79777 0.0
C259 C 0.56688 0.59161 0.82729 0.0
C260 C 0.55406 0.64215 0.76367 0.0
C261 C 0.58785 0.64806 0.7578 0.0
C262 C 0.611 0.62459 0.78477 0.0
C263 C 0.60026 0.59692 0.81989 0.0
C264 C 0.52861 0.66697 0.73666 0.0
C265 C 0.64718 0.62944 0.77822 0.0
H266 H 0.61139 0.71448 0.59407 0.0
H267 H 0.62019 0.7635 0.7542 0.0
H268 H 0.61019 0.62796 0.65241 0.0
H269 H 0.5697 0.64323 0.63375 0.0
H270 H 0.60233 0.6549 0.58816 0.0
H271 H 0.60738 0.73545 0.84019 0.0
H272 H 0.57635 0.70274 0.83208 0.0
H273 H 0.61819 0.69024 0.8446 0.0
H274 H 0.51815 0.60986 0.80374 0.0
H275 H 0.61804 0.5797 0.8423 0.0
H276 H 0.53207 0.67121 0.69035 0.0
H277 H 0.5314 0.69244 0.75609 0.0
H278 H 0.50333 0.65756 0.74239 0.0
H279 H 0.65225 0.63361 0.73245 0.0
H280 H 0.66165 0.60686 0.79645 0.0
H281 H 0.65566 0.65278 0.8002 0.0
C282 C 0.88537 0.19789 0.2341 0.0
C283 C 0.89827 0.23087 0.22185 0.0
C284 C 0.89765 0.17719 0.28099 0.0
C285 C 0.9231 0.18996 0.31718 0.0
C286 C 0.93464 0.22414 0.30758 0.0
C287 C 0.92222 0.24417 0.2597 0.0
C288 C 0.88476 0.1408 0.28961 0.0
C289 C 0.96124 0.23891 0.34611 0.0
C290 C 0.93979 0.13659 0.45557 0.0
C291 C 0.96577 0.11557 0.44156 0.0
C292 C 0.92661 0.16217 0.41649 0.0
C293 C 0.93934 0.16633 0.36181 0.0
C294 C 0.96614 0.14584 0.34799 0.0
C295 C 0.97921 0.1209 0.38824 0.0
C296 C 0.89846 0.18398 0.43309 0.0
C297 C 0.98015 0.14925 0.28981 0.0
H298 H 0.86676 0.18739 0.20531 0.0
H299 H 0.93219 0.2697 0.2508 0.0
H300 H 0.90436 0.12195 0.28263 0.0
H301 H 0.87737 0.13609 0.33405 0.0
H302 H 0.86348 0.13562 0.25995 0.0
H303 H 0.9643 0.26719 0.33757 0.0
H304 H 0.95583 0.23402 0.39158 0.0
H305 H 0.98476 0.22594 0.33952 0.0
H306 H 0.92953 0.13289 0.497 0.0
H307 H 0.99926 0.10474 0.37713 0.0
H308 H 0.87595 0.1772 0.40775 0.0
H309 H 0.90337 0.2118 0.42343 0.0
H310 H 0.89379 0.18016 0.47913 0.0
H311 H 0.96132 0.1421 0.25673 0.0
H312 H 0.0019 0.13248 0.28674 0.0
H313 H 0.98719 0.17647 0.27982 0.0
C314 C 0.43447 0.29604 0.67369 0.0
C315 C 0.41081 0.27542 0.69972 0.0
C316 C 0.44631 0.32614 0.6986 0.0
C317 C 0.43425 0.33575 0.7509 0.0
C318 C 0.40947 0.3157 0.77625 0.0
C319 C 0.39825 0.28559 0.75059 0.0
C320 C 0.47305 0.34651 0.67058 0.0
C321 C 0.39578 0.32521 0.83177 0.0
C322 C 0.49026 0.38306 0.85438 0.0
C323 C 0.47857 0.41716 0.84727 0.0
C324 C 0.4765 0.35664 0.82229 0.0
C325 C 0.45007 0.36431 0.7824 0.0
C326 C 0.43847 0.39879 0.7741 0.0
C327 C 0.45304 0.42492 0.80642 0.0
C328 C 0.48996 0.32035 0.83188 0.0
C329 C 0.41018 0.40785 0.73223 0.0
H330 H 0.44508 0.28771 0.63544 0.0
H331 H 0.37996 0.26966 0.77081 0.0
H332 H 0.46711 0.37452 0.66772 0.0
H333 H 0.49623 0.34318 0.69696 0.0
H334 H 0.47707 0.33801 0.62703 0.0
H335 H 0.37431 0.30915 0.84268 0.0
H336 H 0.41488 0.32163 0.8669 0.0
H337 H 0.38845 0.35286 0.8295 0.0
H338 H 0.5102 0.37688 0.88545 0.0
H339 H 0.44381 0.45118 0.80088 0.0
H340 H 0.49712 0.31037 0.79088 0.0
H341 H 0.47084 0.30286 0.84852 0.0
H342 H 0.51156 0.31903 0.86262 0.0
H343 H 0.41534 0.39929 0.68925 0.0
H344 H 0.40494 0.43606 0.72902 0.0
H345 H 0.38794 0.39397 0.7456 0.0
C346 C 0.61934 0.71341 0.30551 0.0
C347 C 0.62777 0.69775 0.35948 0.0
C348 C 0.61009 0.69345 0.25907 0.0
C349 C 0.60932 0.65697 0.26676 0.0
C350 C 0.61889 0.64094 0.32058 0.0
C351 C 0.62798 0.66152 0.36633 0.0
C352 C 0.60006 0.71148 0.20229 0.0
C353 C 0.61852 0.60207 0.33035 0.0
C354 C 0.55078 0.60689 0.17131 0.0
C355 C 0.57174 0.59347 0.13257 0.0
C356 C 0.56269 0.6279 0.21466 0.0
C357 C 0.59644 0.63566 0.21963 0.0
C358 C 0.61772 0.62267 0.18027 0.0
C359 C 0.60511 0.60177 0.1371 0.0
C360 C 0.53918 0.64142 0.25566 0.0
C361 C 0.65385 0.63039 0.18435 0.0
H362 H 0.61922 0.74137 0.29973 0.0
H363 H 0.6346 0.64919 0.4078 0.0
H364 H 0.61391 0.70084 0.16784 0.0
H365 H 0.57376 0.70674 0.19185 0.0
H366 H 0.60414 0.73986 0.20228 0.0
H367 H 0.62876 0.59357 0.37355 0.0
H368 H 0.59305 0.59248 0.32538 0.0
H369 H 0.63275 0.58973 0.29802 0.0
H370 H 0.52496 0.60076 0.16814 0.0
H371 H 0.62153 0.59149 0.10749 0.0
H372 H 0.54034 0.67008 0.25516 0.0
H373 H 0.54621 0.63156 0.2998 0.0
H374 H 0.51354 0.63365 0.24516 0.0
H375 H 0.65789 0.65876 0.18271 0.0
H376 H 0.66697 0.61911 0.14949 0.0
H377 H 0.66477 0.61986 0.22589 0.0
C378 C 0.93685 0.22113 0.89822 0.0
C379 C 0.92901 0.20839 0.9527 0.0
C380 C 0.94577 0.19853 0.85676 0.0
C381 C 0.94644 0.16242 0.87004 0.0
C382 C 0.93816 0.14943 0.92472 0.0
C383 C 0.92972 0.17258 0.96547 0.0
C384 C 0.95474 0.21327 0.79897 0.0
C385 C 0.93818 0.11105 0.94019 0.0
C386 C 0.94076 0.10178 0.74803 0.0
C387 C 0.97339 0.09136 0.7454 0.0
C388 C 0.93162 0.12482 0.78853 0.0
C389 C 0.95578 0.13809 0.82682 0.0
C390 C 0.98875 0.12767 0.82449 0.0
C391 C 0.99714 0.10421 0.78404 0.0
C392 C 0.89613 0.13493 0.79039 0.0
C393 C 0.01521 0.14155 0.86437 0.0
H394 H 0.93643 0.24878 0.88821 0.0
H395 H 0.9235 0.16252 0.00739 0.0
H396 H 0.97999 0.20539 0.79059 0.0
H397 H 0.93825 0.20276 0.76505 0.0
H398 H 0.95321 0.24197 0.79556 0.0
H399 H 0.93058 0.10516 0.9843 0.0
H400 H 0.92139 0.09758 0.91001 0.0
H401 H 0.96297 0.10022 0.93644 0.0
H402 H 0.92225 0.09185 0.71844 0.0
H403 H 0.02245 0.09649 0.78195 0.0
H404 H 0.8934 0.16334 0.78301 0.0
H405 H 0.88722 0.12807 0.83327 0.0
H406 H 0.88032 0.12202 0.75794 0.0
H407 H 0.01585 0.17021 0.85946 0.0
H408 H 0.03976 0.1313 0.85637 0.0
H409 H 0.00983 0.13467 0.9093 0.0
C410 C 0.42946 0.34491 0.37474 0.0
C411 C 0.45388 0.33874 0.41829 0.0
C412 C 0.43636 0.363 0.32356 0.0
C413 C 0.4684 0.37535 0.31588 0.0
C414 C 0.49314 0.3693 0.35968 0.0
C415 C 0.48559 0.351 0.41034 0.0
C416 C 0.40937 0.36892 0.27772 0.0
C417 C 0.52755 0.38231 0.35311 0.0
C418 C 0.4947 0.3972 0.16572 0.0
C419 C 0.4912 0.43332 0.16178 0.0
C420 C 0.48709 0.37793 0.21548 0.0
C421 C 0.47592 0.39522 0.26244 0.0
C422 C 0.47215 0.4316 0.25864 0.0
C423 C 0.47973 0.45018 0.20834 0.0
C424 C 0.49117 0.33909 0.21795 0.0
C425 C 0.46041 0.45096 0.30795 0.0
H426 H 0.4049 0.33545 0.38045 0.0
H427 H 0.50459 0.34637 0.44378 0.0
H428 H 0.4055 0.39708 0.26872 0.0
H429 H 0.41642 0.35786 0.23747 0.0
H430 H 0.38589 0.35712 0.29001 0.0
H431 H 0.54401 0.37524 0.39104 0.0
H432 H 0.53778 0.3715 0.31501 0.0
H433 H 0.52737 0.41089 0.34625 0.0
H434 H 0.50345 0.38393 0.12996 0.0
H435 H 0.477 0.47809 0.20586 0.0
H436 H 0.46767 0.32638 0.22738 0.0
H437 H 0.50919 0.33101 0.25305 0.0
H438 H 0.49955 0.32953 0.17739 0.0
H439 H 0.43606 0.44125 0.31956 0.0
H440 H 0.45859 0.47928 0.29796 0.0
H441 H 0.47738 0.44637 0.346 0.0
C442 C 0.08951 0.79539 0.91934 0.0
C443 C 0.11513 0.77549 0.90108 0.0
C444 C 0.07737 0.82424 0.88621 0.0
C445 C 0.09125 0.83336 0.83365 0.0
C446 C 0.11748 0.81364 0.81546 0.0
C447 C 0.12892 0.78474 0.8492 0.0
C448 C 0.04907 0.84434 0.90664 0.0
C449 C 0.13312 0.82272 0.75993 0.0
C450 C 0.04002 0.88343 0.71796 0.0
C451 C 0.05177 0.91726 0.72317 0.0
C452 C 0.05235 0.85604 0.75418 0.0
C453 C 0.07734 0.86249 0.79629 0.0
C454 C 0.08927 0.89655 0.80199 0.0
C455 C 0.0762 0.92359 0.76557 0.0
C456 C 0.03873 0.82012 0.7472 0.0
C457 C 0.11613 0.90434 0.84602 0.0
H458 H 0.0781 0.78768 0.95849 0.0
H459 H 0.14871 0.76933 0.83499 0.0
H460 H 0.0556 0.87207 0.90898 0.0
H461 H 0.02774 0.84276 0.87572 0.0
H462 H 0.04169 0.83452 0.94928 0.0
H463 H 0.15444 0.80593 0.75348 0.0
H464 H 0.11496 0.82007 0.72365 0.0
H465 H 0.14129 0.85008 0.75879 0.0
H466 H 0.02101 0.87831 0.68559 0.0
H467 H 0.08553 0.94961 0.76977 0.0
H468 H 0.02933 0.80981 0.78808 0.0
H469 H 0.05838 0.80241 0.73597 0.0
H470 H 0.01864 0.81964 0.71353 0.0
H471 H 0.1086 0.89624 0.88934 0.0
H472 H 0.1225 0.93226 0.84533 0.0
H473 H 0.13837 0.88931 0.83829 0.0
loop_
_geom_bond_atom_site_label_1
_geom_bond_atom_site_label_2
_geom_bond_distance
_geom_bond_site_symmetry_2
_ccdc_geom_bond_type
O0 Cd1 2.300 1_556 S
O0 C7 1.275 . S
Cd1 O0 2.300 1_554 S
Cd1 O9 2.381 . S
Cd1 O10 2.378 . S
O2 Cd3 2.385 . S
O2 C7 1.255 1_554 S
Cd3 O2 2.385 . S
Cd3 O4 2.317 . S
O4 Cd3 2.317 . S
O4 C5 1.232 . S
C5 O4 1.232 . S
C5 O6 1.218 . S
O6 C5 1.218 . S
C7 O0 1.275 . S
C7 O2 1.255 1_556 S
C8 O9 1.258 . S
C8 O10 1.256 . S
O9 Cd1 2.381 . S
O9 C8 1.258 . S
O10 Cd1 2.378 . S
O10 C8 1.256 . S
O11 Cd12 2.300 . S
O11 C18 1.275 . S
Cd12 O11 2.300 . S
Cd12 O20 2.381 . S
Cd12 O21 2.378 . S
O13 Cd14 2.385 . S
O13 C18 1.255 . S
Cd14 O13 2.385 . S
Cd14 O15 2.317 . S
O15 Cd14 2.317 . S
O15 C16 1.232 . S
C16 O15 1.232 . S
C16 O17 1.218 . S
O17 C16 1.218 . S
C18 O11 1.275 . S
C18 O13 1.255 . S
C19 O20 1.258 . S
C19 O21 1.256 . S
O20 Cd12 2.381 . S
O20 C19 1.258 . S
O21 Cd12 2.378 . S
O21 C19 1.256 . S
O22 Cd23 2.300 . S
O22 C29 1.275 . S
Cd23 O22 2.300 . S
Cd23 O31 2.381 . S
Cd23 O32 2.378 . S
O24 Cd25 2.385 . S
O24 C29 1.255 . S
Cd25 O24 2.385 . S
Cd25 O26 2.317 1_554 S
O26 Cd25 2.317 1_556 S
O26 C27 1.232 . S
C27 O26 1.232 . S
C27 O28 1.218 . S
O28 C27 1.218 . S
C29 O22 1.275 . S
C29 O24 1.255 . S
C30 O31 1.258 . S
C30 O32 1.256 . S
O31 Cd23 2.381 . S
O31 C30 1.258 . S
O32 Cd23 2.378 . S
O32 C30 1.256 . S
O33 Cd34 2.300 . S
O33 C40 1.275 . S
Cd34 O33 2.300 . S
Cd34 O42 2.381 . S
Cd34 O43 2.378 . S
O35 Cd36 2.385 . S
O35 C40 1.255 . S
Cd36 O35 2.385 . S
Cd36 O37 2.317 . S
O37 Cd36 2.317 . S
O37 C38 1.232 . S
C38 O37 1.232 . S
C38 O39 1.218 . S
O39 C38 1.218 . S
C40 O33 1.275 . S
C40 O35 1.255 . S
C41 O42 1.258 . S
C41 O43 1.256 . S
O42 Cd34 2.381 . S
O42 C41 1.258 . S
O43 Cd34 2.378 . S
O43 C41 1.256 . S
O44 Zn45 1.953 1_565 S
O44 C60 1.225 . S
Zn45 O44 1.953 1_545 S
Zn45 O46 1.949 1_655 S
Zn45 O52 1.919 . S
Zn45 O57 1.924 . S
O46 Zn45 1.949 1_455 S
O46 Zn47 1.923 . S
O46 Zn48 1.950 1_545 S
O46 Zn49 1.945 . S
Zn47 O46 1.923 . S
Zn47 O50 1.933 . S
Zn47 O53 1.941 . S
Zn47 O54 1.965 1_545 S
Zn48 O46 1.950 1_565 S
Zn48 O55 1.938 . S
Zn48 O56 1.906 . S
Zn48 O66 1.953 1_455 S
Zn49 O46 1.945 . S
Zn49 O51 1.932 . S
Zn49 O58 1.977 1_545 S
Zn49 O59 1.910 1_455 S
O50 Zn47 1.933 . S
O50 C61 1.226 . S
O51 Zn49 1.932 . S
O51 C61 1.307 . S
O52 Zn45 1.919 . S
O52 C63 1.253 . S
O53 Zn47 1.941 . S
O53 C63 1.283 1_455 S
O54 Zn47 1.965 1_565 S
O54 C62 1.303 . S
O55 Zn48 1.938 . S
O55 C62 1.247 . S
O56 Zn48 1.906 . S
O56 C64 1.304 . S
O57 Zn45 1.924 . S
O57 C65 1.311 . S
O58 Zn49 1.977 1_565 S
O58 C64 1.272 . S
O59 Zn49 1.910 1_655 S
O59 C65 1.231 . S
C60 O44 1.225 . S
C60 O66 1.298 . S
C61 O50 1.226 . S
C61 O51 1.307 . S
C62 O54 1.303 . S
C62 O55 1.247 . S
C63 O52 1.253 . S
C63 O53 1.283 1_655 S
C64 O56 1.304 . S
C64 O58 1.272 . S
C65 O57 1.311 . S
C65 O59 1.231 . S
O66 Zn48 1.953 1_655 S
O66 C60 1.298 . S
O67 Zn68 1.953 . S
O67 C83 1.225 . S
Zn68 O67 1.953 . S
Zn68 O69 1.949 . S
Zn68 O75 1.919 1_554 S
Zn68 O80 1.924 . S
O69 Zn68 1.949 . S
O69 Zn70 1.923 1_554 S
O69 Zn71 1.950 . S
O69 Zn72 1.945 . S
Zn70 O69 1.923 1_556 S
Zn70 O73 1.933 . S
Zn70 O76 1.941 . S
Zn70 O77 1.965 . S
Zn71 O69 1.950 . S
Zn71 O78 1.938 1_554 S
Zn71 O79 1.906 . S
Zn71 O89 1.953 . S
Zn72 O69 1.945 . S
Zn72 O74 1.932 . S
Zn72 O81 1.977 . S
Zn72 O82 1.910 . S
O73 Zn70 1.933 . S
O73 C84 1.226 1_556 S
O74 Zn72 1.932 . S
O74 C84 1.307 . S
O75 Zn68 1.919 1_556 S
O75 C86 1.253 . S
O76 Zn70 1.941 . S
O76 C86 1.283 . S
O77 Zn70 1.965 . S
O77 C85 1.303 . S
O78 Zn71 1.938 1_556 S
O78 C85 1.247 . S
O79 Zn71 1.906 . S
O79 C87 1.304 . S
O80 Zn68 1.924 . S
O80 C88 1.311 . S
O81 Zn72 1.977 . S
O81 C87 1.272 . S
O82 Zn72 1.910 . S
O82 C88 1.231 . S
C83 O67 1.225 . S
C83 O89 1.298 . S
C84 O73 1.226 1_554 S
C84 O74 1.307 . S
C85 O77 1.303 . S
C85 O78 1.247 . S
C86 O75 1.253 . S
C86 O76 1.283 . S
C87 O79 1.304 . S
C87 O81 1.272 . S
C88 O80 1.311 . S
C88 O82 1.231 . S
O89 Zn71 1.953 . S
O89 C83 1.298 . S
C90 C91 1.391 . S
C90 C92 1.394 . S
C90 H106 0.931 . S
C91 C90 1.391 . S
C91 C95 1.376 . S
C92 C90 1.394 . S
C92 C93 1.369 . S
C92 C96 1.531 . S
C93 C92 1.369 . S
C93 C94 1.410 . S
C93 C101 1.503 . S
C94 C93 1.410 . S
C94 C95 1.392 . S
C94 C97 1.511 . S
C95 C91 1.376 . S
C95 C94 1.392 . S
C95 H107 0.929 . S
C96 C92 1.531 . S
C96 H108 0.960 . S
C96 H109 0.962 . S
C96 H110 0.960 . S
C97 C94 1.511 . S
C97 H111 0.961 . S
C97 H112 0.961 . S
C97 H113 0.961 . S
C98 C99 1.370 . S
C98 C100 1.363 . S
C98 H114 0.931 . S
C99 C98 1.370 . S
C99 C103 1.408 . S
C100 C98 1.363 . S
C100 C101 1.370 . S
C100 C104 1.524 . S
C101 C93 1.503 . S
C101 C100 1.370 . S
C101 C102 1.403 . S
C102 C101 1.403 . S
C102 C103 1.404 . S
C102 C105 1.539 . S
C103 C99 1.408 . S
C103 C102 1.404 . S
C103 H115 0.930 . S
C104 C100 1.524 . S
C104 H116 0.956 . S
C104 H117 0.961 . S
C104 H118 0.961 . S
C105 C102 1.539 . S
C105 H119 0.958 . S
C105 H120 0.961 . S
C105 H121 0.960 . S
H106 C90 0.931 . S
H107 C95 0.929 . S
H108 C96 0.960 . S
H109 C96 0.962 . S
H110 C96 0.960 . S
H111 C97 0.961 . S
H112 C97 0.961 . S
H113 C97 0.961 . S
H114 C98 0.931 . S
H115 C103 0.930 . S
H116 C104 0.956 . S
H117 C104 0.961 . S
H118 C104 0.961 . S
H119 C105 0.958 . S
H120 C105 0.961 . S
H121 C105 0.960 . S
C122 C123 1.391 . S
C122 C124 1.394 . S
C122 H138 0.931 . S
C123 C122 1.391 . S
C123 C127 1.376 . S
C124 C122 1.394 . S
C124 C125 1.369 . S
C124 C128 1.531 1_554 S
C125 C124 1.369 . S
C125 C126 1.410 . S
C125 C133 1.503 . S
C126 C125 1.410 . S
C126 C127 1.392 . S
C126 C129 1.511 . S
C127 C123 1.376 . S
C127 C126 1.392 . S
C127 H139 0.929 . S
C128 C124 1.531 1_556 S
C128 H140 0.960 1_556 S
C128 H141 0.962 . S
C128 H142 0.960 1_556 S
C129 C126 1.511 . S
C129 H143 0.961 . S
C129 H144 0.961 . S
C129 H145 0.961 . S
C130 C131 1.370 1_556 S
C130 C132 1.363 . S
C130 H146 0.931 . S
C131 C130 1.370 1_554 S
C131 C135 1.408 . S
C132 C130 1.363 . S
C132 C133 1.370 1_556 S
C132 C136 1.524 . S
C133 C125 1.503 . S
C133 C132 1.370 1_554 S
C133 C134 1.403 . S
C134 C133 1.403 . S
C134 C135 1.404 . S
C134 C137 1.539 . S
C135 C131 1.408 . S
C135 C134 1.404 . S
C135 H147 0.930 . S
C136 C132 1.524 . S
C136 H148 0.956 . S
C136 H149 0.961 . S
C136 H150 0.961 . S
C137 C134 1.539 . S
C137 H151 0.958 . S
C137 H152 0.961 . S
C137 H153 0.960 . S
H138 C122 0.931 . S
H139 C127 0.929 . S
H140 C128 0.960 1_554 S
H141 C128 0.962 . S
H142 C128 0.960 1_554 S
H143 C129 0.961 . S
H144 C129 0.961 . S
H145 C129 0.961 . S
H146 C130 0.931 . S
H147 C135 0.930 . S
H148 C136 0.956 . S
H149 C136 0.961 . S
H150 C136 0.961 . S
H151 C137 0.958 . S
H152 C137 0.961 . S
H153 C137 0.960 . S
C154 C155 1.391 . S
C154 C156 1.394 . S
C154 H170 0.931 . S
C155 C154 1.391 . S
C155 C159 1.376 . S
C156 C154 1.394 . S
C156 C157 1.369 . S
C156 C160 1.531 . S
C157 C156 1.369 . S
C157 C158 1.410 . S
C157 C165 1.503 . S
C158 C157 1.410 . S
C158 C159 1.392 . S
C158 C161 1.511 . S
C159 C155 1.376 . S
C159 C158 1.392 . S
C159 H171 0.929 . S
C160 C156 1.531 . S
C160 H172 0.960 . S
C160 H173 0.962 . S
C160 H174 0.960 . S
C161 C158 1.511 . S
C161 H175 0.961 . S
C161 H176 0.961 . S
C161 H177 0.961 . S
C162 C163 1.370 . S
C162 C164 1.363 . S
C162 H178 0.931 . S
C163 C162 1.370 . S
C163 C167 1.408 . S
C164 C162 1.363 . S
C164 C165 1.370 . S
C164 C168 1.524 . S
C165 C157 1.503 . S
C165 C164 1.370 . S
C165 C166 1.403 . S
C166 C165 1.403 . S
C166 C167 1.404 . S
C166 C169 1.539 . S
C167 C163 1.408 . S
C167 C166 1.404 . S
C167 H179 0.930 . S
C168 C164 1.524 . S
C168 H180 0.956 . S
C168 H181 0.961 . S
C168 H182 0.961 . S
C169 C166 1.539 . S
C169 H183 0.958 . S
C169 H184 0.961 . S
C169 H185 0.960 . S
H170 C154 0.931 . S
H171 C159 0.929 . S
H172 C160 0.960 . S
H173 C160 0.962 . S
H174 C160 0.960 . S
H175 C161 0.961 . S
H176 C161 0.961 . S
H177 C161 0.961 . S
H178 C162 0.931 . S
H179 C167 0.930 . S
H180 C168 0.956 . S
H181 C168 0.961 . S
H182 C168 0.961 . S
H183 C169 0.958 . S
H184 C169 0.961 . S
H185 C169 0.960 . S
C186 C187 1.391 . S
C186 C188 1.394 . S
C186 H202 0.931 . S
C187 C186 1.391 . S
C187 C191 1.376 . S
C188 C186 1.394 . S
C188 C189 1.369 . S
C188 C192 1.531 . S
C189 C188 1.369 . S
C189 C190 1.410 . S
C189 C197 1.503 . S
C190 C189 1.410 . S
C190 C191 1.392 . S
C190 C193 1.511 . S
C191 C187 1.376 . S
C191 C190 1.392 . S
C191 H203 0.929 . S
C192 C188 1.531 . S
C192 H204 0.960 . S
C192 H205 0.962 . S
C192 H206 0.960 . S
C193 C190 1.511 . S
C193 H207 0.961 1_554 S
C193 H208 0.961 1_554 S
C193 H209 0.961 . S
C194 C195 1.370 1_556 S
C194 C196 1.363 1_556 S
C194 H210 0.931 . S
C195 C194 1.370 1_554 S
C195 C199 1.408 . S
C196 C194 1.363 1_554 S
C196 C197 1.370 . S
C196 C200 1.524 1_554 S
C197 C189 1.503 . S
C197 C196 1.370 . S
C197 C198 1.403 . S
C198 C197 1.403 . S
C198 C199 1.404 . S
C198 C201 1.539 . S
C199 C195 1.408 . S
C199 C198 1.404 . S
C199 H211 0.930 . S
C200 C196 1.524 1_556 S
C200 H212 0.956 . S
C200 H213 0.961 . S
C200 H214 0.961 . S
C201 C198 1.539 . S
C201 H215 0.958 . S
C201 H216 0.961 . S
C201 H217 0.960 . S
H202 C186 0.931 . S
H203 C191 0.929 . S
H204 C192 0.960 . S
H205 C192 0.962 . S
H206 C192 0.960 . S
H207 C193 0.961 1_556 S
H208 C193 0.961 1_556 S
H209 C193 0.961 . S
H210 C194 0.931 . S
H211 C199 0.930 . S
H212 C200 0.956 . S
H213 C200 0.961 . S
H214 C200 0.961 . S
H215 C201 0.958 . S
H216 C201 0.961 . S
H217 C201 0.960 . S
C218 C219 1.391 . S
C218 C220 1.394 . S
C218 H234 0.931 . S
C219 C218 1.391 . S
C219 C223 1.376 . S
C220 C218 1.394 . S
C220 C221 1.369 . S
C220 C224 1.531 . S
C221 C220 1.369 . S
C221 C222 1.410 . S
C221 C229 1.503 . S
C222 C221 1.410 . S
C222 C223 1.392 . S
C222 C225 1.511 . S
C223 C219 1.376 . S
C223 C222 1.392 . S
C223 H235 0.929 . S
C224 C220 1.531 . S
C224 H236 0.960 . S
C224 H237 0.962 . S
C224 H238 0.960 . S
C225 C222 1.511 . S
C225 H239 0.961 . S
C225 H240 0.961 . S
C225 H241 0.961 . S
C226 C227 1.370 . S
C226 C228 1.363 . S
C226 H242 0.931 . S
C227 C226 1.370 . S
C227 C231 1.408 . S
C228 C226 1.363 . S
C228 C229 1.370 . S
C228 C232 1.524 . S
C229 C221 1.503 . S
C229 C228 1.370 . S
C229 C230 1.403 . S
C230 C229 1.403 . S
C230 C231 1.404 . S
C230 C233 1.539 . S
C231 C227 1.408 . S
C231 C230 1.404 . S
C231 H243 0.930 . S
C232 C228 1.524 . S
C232 H244 0.956 . S
C232 H245 0.961 . S
C232 H246 0.961 . S
C233 C230 1.539 . S
C233 H247 0.958 . S
C233 H248 0.961 . S
C233 H249 0.960 . S
H234 C218 0.931 . S
H235 C223 0.929 . S
H236 C224 0.960 . S
H237 C224 0.962 . S
H238 C224 0.960 . S
H239 C225 0.961 . S
H240 C225 0.961 . S
H241 C225 0.961 . S
H242 C226 0.931 . S
H243 C231 0.930 . S
H244 C232 0.956 . S
H245 C232 0.961 . S
H246 C232 0.961 . S
H247 C233 0.958 . S
H248 C233 0.961 . S
H249 C233 0.960 . S
C250 C251 1.391 . S
C250 C252 1.394 . S
C250 H266 0.931 . S
C251 C250 1.391 . S
C251 C255 1.376 . S
C252 C250 1.394 . S
C252 C253 1.369 . S
C252 C256 1.531 . S
C253 C252 1.369 . S
C253 C254 1.410 . S
C253 C261 1.503 . S
C254 C253 1.410 . S
C254 C255 1.392 . S
C254 C257 1.511 . S
C255 C251 1.376 . S
C255 C254 1.392 . S
C255 H267 0.929 . S
C256 C252 1.531 . S
C256 H268 0.960 . S
C256 H269 0.962 . S
C256 H270 0.960 . S
C257 C254 1.511 . S
C257 H271 0.961 . S
C257 H272 0.961 . S
C257 H273 0.961 . S
C258 C259 1.370 . S
C258 C260 1.363 . S
C258 H274 0.931 . S
C259 C258 1.370 . S
C259 C263 1.408 . S
C260 C258 1.363 . S
C260 C261 1.370 . S
C260 C264 1.524 . S
C261 C253 1.503 . S
C261 C260 1.370 . S
C261 C262 1.403 . S
C262 C261 1.403 . S
C262 C263 1.404 . S
C262 C265 1.539 . S
C263 C259 1.408 . S
C263 C262 1.404 . S
C263 H275 0.930 . S
C264 C260 1.524 . S
C264 H276 0.956 . S
C264 H277 0.961 . S
C264 H278 0.961 . S
C265 C262 1.539 . S
C265 H279 0.958 . S
C265 H280 0.961 . S
C265 H281 0.960 . S
H266 C250 0.931 . S
H267 C255 0.929 . S
H268 C256 0.960 . S
H269 C256 0.962 . S
H270 C256 0.960 . S
H271 C257 0.961 . S
H272 C257 0.961 . S
H273 C257 0.961 . S
H274 C258 0.931 . S
H275 C263 0.930 . S
H276 C264 0.956 . S
H277 C264 0.961 . S
H278 C264 0.961 . S
H279 C265 0.958 . S
H280 C265 0.961 . S
H281 C265 0.960 . S
C282 C283 1.391 . S
C282 C284 1.394 . S
C282 H298 0.931 . S
C283 C282 1.391 . S
C283 C287 1.376 . S
C284 C282 1.394 . S
C284 C285 1.369 . S
C284 C288 1.531 . S
C285 C284 1.369 . S
C285 C286 1.410 . S
C285 C293 1.503 . S
C286 C285 1.410 . S
C286 C287 1.392 . S
C286 C289 1.511 . S
C287 C283 1.376 . S
C287 C286 1.392 . S
C287 H299 0.929 . S
C288 C284 1.531 . S
C288 H300 0.960 . S
C288 H301 0.962 . S
C288 H302 0.960 . S
C289 C286 1.511 . S
C289 H303 0.961 . S
C289 H304 0.961 . S
C289 H305 0.961 . S
C290 C291 1.370 . S
C290 C292 1.363 . S
C290 H306 0.931 . S
C291 C290 1.370 . S
C291 C295 1.408 . S
C292 C290 1.363 . S
C292 C293 1.370 . S
C292 C296 1.524 . S
C293 C285 1.503 . S
C293 C292 1.370 . S
C293 C294 1.403 . S
C294 C293 1.403 . S
C294 C295 1.404 . S
C294 C297 1.539 . S
C295 C291 1.408 . S
C295 C294 1.404 . S
C295 H307 0.930 . S
C296 C292 1.524 . S
C296 H308 0.956 . S
C296 H309 0.961 . S
C296 H310 0.961 . S
C297 C294 1.539 . S
C297 H311 0.965 . S
C297 H312 0.961 1_655 S
C297 H313 0.960 . S
H298 C282 0.931 . S
H299 C287 0.929 . S
H300 C288 0.960 . S
H301 C288 0.962 . S
H302 C288 0.960 . S
H303 C289 0.961 . S
H304 C289 0.961 . S
H305 C289 0.961 . S
H306 C290 0.931 . S
H307 C295 0.930 . S
H308 C296 0.956 . S
H309 C296 0.961 . S
H310 C296 0.961 . S
H311 C297 0.965 . S
H312 C297 0.961 1_455 S
H313 C297 0.960 . S
C314 C315 1.391 . S
C314 C316 1.394 . S
C314 H330 0.931 . S
C315 C314 1.391 . S
C315 C319 1.376 . S
C316 C314 1.394 . S
C316 C317 1.369 . S
C316 C320 1.531 . S
C317 C316 1.369 . S
C317 C318 1.410 . S
C317 C325 1.503 . S
C318 C317 1.410 . S
C318 C319 1.392 . S
C318 C321 1.511 . S
C319 C315 1.376 . S
C319 C318 1.392 . S
C319 H331 0.929 . S
C320 C316 1.531 . S
C320 H332 0.960 . S
C320 H333 0.962 . S
C320 H334 0.960 . S
C321 C318 1.511 . S
C321 H335 0.961 . S
C321 H336 0.961 . S
C321 H337 0.961 . S
C322 C323 1.370 . S
C322 C324 1.363 . S
C322 H338 0.931 . S
C323 C322 1.370 . S
C323 C327 1.408 . S
C324 C322 1.363 . S
C324 C325 1.370 . S
C324 C328 1.524 . S
C325 C317 1.503 . S
C325 C324 1.370 . S
C325 C326 1.403 . S
C326 C325 1.403 . S
C326 C327 1.404 . S
C326 C329 1.539 . S
C327 C323 1.408 . S
C327 C326 1.404 . S
C327 H339 0.930 . S
C328 C324 1.524 . S
C328 H340 0.956 . S
C328 H341 0.961 . S
C328 H342 0.961 . S
C329 C326 1.539 . S
C329 H343 0.958 . S
C329 H344 0.961 . S
C329 H345 0.960 . S
H330 C314 0.931 . S
H331 C319 0.929 . S
H332 C320 0.960 . S
H333 C320 0.962 . S
H334 C320 0.960 . S
H335 C321 0.961 . S
H336 C321 0.961 . S
H337 C321 0.961 . S
H338 C322 0.931 . S
H339 C327 0.930 . S
H340 C328 0.956 . S
H341 C328 0.961 . S
H342 C328 0.961 . S
H343 C329 0.958 . S
H344 C329 0.961 . S
H345 C329 0.960 . S
C346 C347 1.391 . S
C346 C348 1.394 . S
C346 H362 0.931 . S
C347 C346 1.391 . S
C347 C351 1.376 . S
C348 C346 1.394 . S
C348 C349 1.369 . S
C348 C352 1.531 . S
C349 C348 1.369 . S
C349 C350 1.410 . S
C349 C357 1.503 . S
C350 C349 1.410 . S
C350 C351 1.392 . S
C350 C353 1.511 . S
C351 C347 1.376 . S
C351 C350 1.392 . S
C351 H363 0.929 . S
C352 C348 1.531 . S
C352 H364 0.960 . S
C352 H365 0.962 . S
C352 H366 0.960 . S
C353 C350 1.511 . S
C353 H367 0.961 . S
C353 H368 0.961 . S
C353 H369 0.961 . S
C354 C355 1.370 . S
C354 C356 1.363 . S
C354 H370 0.931 . S
C355 C354 1.370 . S
C355 C359 1.408 . S
C356 C354 1.363 . S
C356 C357 1.370 . S
C356 C360 1.524 . S
C357 C349 1.503 . S
C357 C356 1.370 . S
C357 C358 1.403 . S
C358 C357 1.403 . S
C358 C359 1.404 . S
C358 C361 1.539 . S
C359 C355 1.408 . S
C359 C358 1.404 . S
C359 H371 0.930 . S
C360 C356 1.524 . S
C360 H372 0.956 . S
C360 H373 0.961 . S
C360 H374 0.961 . S
C361 C358 1.539 . S
C361 H375 0.958 . S
C361 H376 0.961 . S
C361 H377 0.960 . S
H362 C346 0.931 . S
H363 C351 0.929 . S
H364 C352 0.960 . S
H365 C352 0.962 . S
H366 C352 0.960 . S
H367 C353 0.961 . S
H368 C353 0.961 . S
H369 C353 0.961 . S
H370 C354 0.931 . S
H371 C359 0.930 . S
H372 C360 0.956 . S
H373 C360 0.961 . S
H374 C360 0.961 . S
H375 C361 0.958 . S
H376 C361 0.961 . S
H377 C361 0.960 . S
C378 C379 1.391 . S
C378 C380 1.394 . S
C378 H394 0.931 . S
C379 C378 1.391 . S
C379 C383 1.376 . S
C380 C378 1.394 . S
C380 C381 1.369 . S
C380 C384 1.531 . S
C381 C380 1.369 . S
C381 C382 1.410 . S
C381 C389 1.503 . S
C382 C381 1.410 . S
C382 C383 1.392 . S
C382 C385 1.511 . S
C383 C379 1.376 . S
C383 C382 1.392 . S
C383 H395 0.929 . S
C384 C380 1.531 . S
C384 H396 0.960 . S
C384 H397 0.962 . S
C384 H398 0.960 . S
C385 C382 1.511 . S
C385 H399 0.961 . S
C385 H400 0.961 . S
C385 H401 0.961 1_655 S
C386 C387 1.370 . S
C386 C388 1.363 . S
C386 H402 0.931 . S
C387 C386 1.370 . S
C387 C391 1.408 . S
C388 C386 1.363 . S
C388 C389 1.370 . S
C388 C392 1.524 . S
C389 C381 1.503 . S
C389 C388 1.370 . S
C389 C390 1.403 . S
C390 C389 1.403 . S
C390 C391 1.404 . S
C390 C393 1.531 1_655 S
C391 C387 1.408 . S
C391 C390 1.404 . S
C391 H403 0.930 1_655 S
C392 C388 1.524 . S
C392 H404 0.956 . S
C392 H405 0.961 . S
C392 H406 0.961 . S
C393 C390 1.531 1_455 S
C393 H407 0.952 1_455 S
C393 H408 0.979 . S
C393 H409 0.956 1_455 S
H394 C378 0.931 . S
H395 C383 0.929 . S
H396 C384 0.960 . S
H397 C384 0.962 . S
H398 C384 0.960 . S
H399 C385 0.961 . S
H400 C385 0.961 . S
H401 C385 0.961 1_455 S
H402 C386 0.931 . S
H403 C391 0.930 1_455 S
H404 C392 0.956 . S
H405 C392 0.961 . S
H406 C392 0.961 . S
H407 C393 0.952 1_655 S
H408 C393 0.979 . S
H409 C393 0.956 1_655 S
C410 C411 1.391 . S
C410 C412 1.394 . S
C410 H426 0.931 . S
C411 C410 1.391 . S
C411 C415 1.376 . S
C412 C410 1.394 . S
C412 C413 1.369 . S
C412 C416 1.531 . S
C413 C412 1.369 . S
C413 C414 1.410 . S
C413 C421 1.503 . S
C414 C413 1.410 . S
C414 C415 1.392 . S
C414 C417 1.511 . S
C415 C411 1.376 . S
C415 C414 1.392 . S
C415 H427 0.929 . S
C416 C412 1.531 . S
C416 H428 0.960 . S
C416 H429 0.962 . S
C416 H430 0.960 . S
C417 C414 1.511 . S
C417 H431 0.961 . S
C417 H432 0.961 . S
C417 H433 0.961 . S
C418 C419 1.370 . S
C418 C420 1.363 . S
C418 H434 0.931 . S
C419 C418 1.370 . S
C419 C423 1.408 . S
C420 C418 1.363 . S
C420 C421 1.370 . S
C420 C424 1.524 . S
C421 C413 1.503 . S
C421 C420 1.370 . S
C421 C422 1.403 . S
C422 C421 1.403 . S
C422 C423 1.404 . S
C422 C425 1.539 . S
C423 C419 1.408 . S
C423 C422 1.404 . S
C423 H435 0.930 . S
C424 C420 1.524 . S
C424 H436 0.956 . S
C424 H437 0.961 . S
C424 H438 0.961 . S
C425 C422 1.539 . S
C425 H439 0.958 . S
C425 H440 0.961 . S
C425 H441 0.960 . S
H426 C410 0.931 . S
H427 C415 0.929 . S
H428 C416 0.960 . S
H429 C416 0.962 . S
H430 C416 0.960 . S
H431 C417 0.961 . S
H432 C417 0.961 . S
H433 C417 0.961 . S
H434 C418 0.931 . S
H435 C423 0.930 . S
H436 C424 0.956 . S
H437 C424 0.961 . S
H438 C424 0.961 . S
H439 C425 0.958 . S
H440 C425 0.961 . S
H441 C425 0.960 . S
C442 C443 1.391 . S
C442 C444 1.394 . S
C442 H458 0.931 . S
C443 C442 1.391 . S
C443 C447 1.376 . S
C444 C442 1.394 . S
C444 C445 1.369 . S
C444 C448 1.531 . S
C445 C444 1.369 . S
C445 C446 1.410 . S
C445 C453 1.503 . S
C446 C445 1.410 . S
C446 C447 1.392 . S
C446 C449 1.511 . S
C447 C443 1.376 . S
C447 C446 1.392 . S
C447 H459 0.929 . S
C448 C444 1.531 . S
C448 H460 0.960 . S
C448 H461 0.962 . S
C448 H462 0.960 . S
C449 C446 1.511 . S
C449 H463 0.961 . S
C449 H464 0.961 . S
C449 H465 0.961 . S
C450 C451 1.370 . S
C450 C452 1.363 . S
C450 H466 0.931 . S
C451 C450 1.370 . S
C451 C455 1.408 . S
C452 C450 1.363 . S
C452 C453 1.370 . S
C452 C456 1.524 . S
C453 C445 1.503 . S
C453 C452 1.370 . S
C453 C454 1.403 . S
C454 C453 1.403 . S
C454 C455 1.404 . S
C454 C457 1.539 . S
C455 C451 1.408 . S
C455 C454 1.404 . S
C455 H467 0.930 . S
C456 C452 1.524 . S
C456 H468 0.956 . S
C456 H469 0.961 . S
C456 H470 0.961 . S
C457 C454 1.539 . S
C457 H471 0.958 . S
C457 H472 0.961 . S
C457 H473 0.960 . S
H458 C442 0.931 . S
H459 C447 0.929 . S
H460 C448 0.960 . S
H461 C448 0.962 . S
H462 C448 0.960 . S
H463 C449 0.961 . S
H464 C449 0.961 . S
H465 C449 0.961 . S
H466 C450 0.931 . S
H467 C455 0.930 . S
H468 C456 0.956 . S
H469 C456 0.961 . S
H470 C456 0.961 . S
H471 C457 0.958 . S
H472 C457 0.961 . S
H473 C457 0.960 . S
C99 C61 1.526 . S
C91 C41 1.473 . S
C123 C8 1.479 . S
C131 C84 1.511 . S
C155 C19 1.512 . S
C163 C60 1.546 . S
C187 C30 1.558 . S
C195 C83 1.556 . S
C227 C64 1.506 . S
C219 C5 1.257 . S
C259 C86 1.602 . S
C251 C18 1.616 . S
C283 C29 1.587 . S
C291 C65 1.525 . S
C315 C40 1.571 . S
C323 C85 1.576 . S
C355 C88 1.355 . S
C347 C16 1.149 . S
C387 C63 1.418 . S
C379 C27 1.237 . S
C419 C87 1.313 . S
C411 C38 1.102 . S
C443 C7 1.371 . S
C451 C62 1.375 . S
