# Generated by pormake.
# Topology anh, (6,3)-cn, num edge types: 1
# Building blocks:
#     Node 0, Type 0, BuildingBlock: BETDAH_clean_sbu_0, # of connection points: 6
#     Node 1, Type 0, BuildingBlock: BETDAH_clean_sbu_0, # of connection points: 6
#     Node 2, Type 0, BuildingBlock: BETDAH_clean_sbu_0, # of connection points: 6
#     Node 3, Type 1, BuildingBlock: WUSLED_clean_sbu_0, # of connection points: 3
#     Node 4, Type 1, BuildingBlock: WUSLED_clean_sbu_0, # of connection points: 3
#     Node 5, Type 1, BuildingBlock: WUSLED_clean_sbu_0, # of connection points: 3
#     Node 6, Type 1, BuildingBlock: WUSLED_clean_sbu_0, # of connection points: 3
#     Node 7, Type 1, BuildingBlock: WUSLED_clean_sbu_0, # of connection points: 3
#     Node 8, Type 1, BuildingBlock: WUSLED_clean_sbu_0, # of connection points: 3
#     Edge 9, Type (0, 1), BuildingBlock: TEMPAE_clean_linker_10, # of connection points: 2
#     Edge 10, Type (0, 1), BuildingBlock: TEMPAE_clean_linker_10, # of connection points: 2
#     Edge 11, Type (0, 1), BuildingBlock: TEMPAE_clean_linker_10, # of connection points: 2
#     Edge 12, Type (0, 1), BuildingBlock: TEMPAE_clean_linker_10, # of connection points: 2
#     Edge 13, Type (0, 1), BuildingBlock: TEMPAE_clean_linker_10, # of connection points: 2
#     Edge 14, Type (0, 1), BuildingBlock: TEMPAE_clean_linker_10, # of connection points: 2
#     Edge 15, Type (0, 1), BuildingBlock: TEMPAE_clean_linker_10, # of connection points: 2
#     Edge 16, Type (0, 1), BuildingBlock: TEMPAE_clean_linker_10, # of connection points: 2
#     Edge 17, Type (0, 1), BuildingBlock: TEMPAE_clean_linker_10, # of connection points: 2
#     Edge 18, Type (0, 1), BuildingBlock: TEMPAE_clean_linker_10, # of connection points: 2
#     Edge 19, Type (0, 1), BuildingBlock: TEMPAE_clean_linker_10, # of connection points: 2
#     Edge 20, Type (0, 1), BuildingBlock: TEMPAE_clean_linker_10, # of connection points: 2
#     Edge 21, Type (0, 1), BuildingBlock: TEMPAE_clean_linker_10, # of connection points: 2
#     Edge 22, Type (0, 1), BuildingBlock: TEMPAE_clean_linker_10, # of connection points: 2
#     Edge 23, Type (0, 1), BuildingBlock: TEMPAE_clean_linker_10, # of connection points: 2
#     Edge 24, Type (0, 1), BuildingBlock: TEMPAE_clean_linker_10, # of connection points: 2
#     Edge 25, Type (0, 1), BuildingBlock: TEMPAE_clean_linker_10, # of connection points: 2
#     Edge 26, Type (0, 1), BuildingBlock: TEMPAE_clean_linker_10, # of connection points: 2
# Relax obj value: 0.168
# Max RMSD: 0.203
# Mean RMSD: 0.149
data_MOF--net-anh--node1-BETDAH_clean_sbu_0--node2-WUSLED_clean_sbu_0--edge1-TEMPAE_clean_linker_10
_symmetry_space_group_name_H-M    P1
_symmetry_Int_Tables_number       1
_symmetry_cell_setting            triclinic
loop_
_symmetry_equiv_pos_as_xyz
'x, y, z'
_cell_length_a     41.619555
_cell_length_b     46.90945
_cell_length_c     70.27348
_cell_angle_alpha  92.258264
_cell_angle_beta   89.675391
_cell_angle_gamma 128.43538
loop_
_atom_site_label
_atom_site_type_symbol
_atom_site_fract_x
_atom_site_fract_y
_atom_site_fract_z
_atom_type_partial_charge
Ho0 Ho 0.07541 0.4977 0.17013 0.0
Ho1 Ho 0.03825 0.53141 0.1705 0.0
C2 C 0.13351 0.58695 0.17056 0.0
C3 C 0.12447 0.48239 0.16936 0.0
C4 C 0.16917 0.50826 0.17062 0.0
C5 C 0.19168 0.53516 0.15719 0.0
C6 C 0.23431 0.55841 0.1582 0.0
C7 C 0.25453 0.55457 0.17253 0.0
C8 C 0.23205 0.5315 0.18746 0.0
C9 C 0.18949 0.508 0.18635 0.0
C10 C 0.05066 0.50215 0.2051 0.0
C11 C 0.98033 0.44324 0.16518 0.0
C12 C 0.99432 0.54638 0.18509 0.0
C13 C 0.94996 0.52021 0.18502 0.0
C14 C 0.92968 0.51041 0.20236 0.0
C15 C 0.88728 0.48444 0.20244 0.0
C16 C 0.86532 0.46985 0.18506 0.0
C17 C 0.88594 0.47466 0.16821 0.0
C18 C 0.92829 0.50022 0.16814 0.0
C19 C 0.04607 0.52316 0.13242 0.0
O20 O 0.13144 0.55772 0.16782 0.0
O21 O 0.1005 0.58402 0.17333 0.0
O22 O 0.10672 0.48166 0.18482 0.0
O23 O 0.10691 0.48206 0.15389 0.0
O24 O 0.04041 0.47224 0.19701 0.0
O25 O 0.0708 0.52748 0.19352 0.0
O26 O 0.98321 0.47157 0.17155 0.0
O27 O 1.01347 0.44712 0.16061 0.0
O28 O 1.01138 0.55853 0.16856 0.0
O29 O 1.01149 0.53642 0.19533 0.0
O30 O 1.03081 0.53798 0.13981 0.0
O31 O 0.05754 0.51318 0.14563 0.0
H32 H 0.17658 0.53709 0.14539 0.0
H33 H 0.25128 0.57609 0.14656 0.0
H34 H 0.24713 0.52811 0.19864 0.0
H35 H 0.1725 0.48847 0.19729 0.0
H36 H 0.94645 0.52381 0.21568 0.0
H37 H 0.87148 0.48027 0.2156 0.0
H38 H 0.86935 0.46301 0.15469 0.0
H39 H 0.94373 0.50538 0.15475 0.0
Ho40 Ho 0.57045 1.00274 0.49137 0.0
Ho41 Ho 0.52629 0.03281 0.48915 0.0
C42 C 0.47052 0.94743 0.48888 0.0
C43 C 0.59487 0.96474 0.49785 0.0
C44 C 0.57862 0.92617 0.49586 0.0
C45 C 0.55423 0.90142 0.51003 0.0
C46 C 0.54378 0.86666 0.50934 0.0
C47 C 0.5577 0.8561 0.49457 0.0
C48 C 0.58038 0.87999 0.47996 0.0
C49 C 0.59063 0.91466 0.48055 0.0
C50 C 0.5622 0.01725 0.45541 0.0
C51 C 0.6261 0.08826 0.49233 0.0
C52 C 0.50334 0.07134 0.48115 0.0
C53 C 0.5189 0.10945 0.48482 0.0
C54 C 0.53603 0.134 0.47002 0.0
C55 C 0.54725 0.16893 0.47286 0.0
C56 C 0.54106 0.17981 0.49051 0.0
C57 C 0.52569 0.15586 0.50553 0.0
C58 C 0.51471 0.12112 0.50274 0.0
C59 C 0.53446 0.01897 0.52531 0.0
O60 O 0.50416 0.95329 0.49513 0.0
O61 O 0.47228 0.97436 0.4823 0.0
O62 O 0.60222 0.98173 0.48219 0.0
O63 O 0.57898 0.97311 0.51079 0.0
O64 O 0.59436 0.0224 0.46213 0.0
O65 O 0.53455 1.00256 0.46776 0.0
O66 O 0.59251 0.08244 0.48617 0.0
O67 O 0.62488 0.06129 0.49839 0.0
O68 O 0.48999 0.05041 0.49566 0.0
O69 O 0.52443 0.06645 0.46965 0.0
O70 O 0.50308 0.01526 0.51867 0.0
O71 O 0.562 0.03292 0.51289 0.0
H72 H 0.54459 0.90935 0.52208 0.0
H73 H 0.5267 0.84875 0.52088 0.0
H74 H 0.59162 0.87239 0.46851 0.0
H75 H 0.60947 0.93302 0.46943 0.0
H76 H 0.53967 0.12582 0.45606 0.0
H77 H 0.55897 0.18677 0.46102 0.0
H78 H 0.52126 0.16373 0.51939 0.0
H79 H 0.50196 0.10314 0.51453 0.0
Ho80 Ho 0.61144 0.5774 0.83938 0.0
Ho81 Ho 0.5565 0.49726 0.83969 0.0
C82 C 0.509 0.53307 0.84373 0.0
C83 C 0.6435 0.64405 0.83233 0.0
C84 C 0.62912 0.6663 0.83242 0.0
C85 C 0.60062 0.65993 0.81868 0.0
C86 C 0.58938 0.68254 0.81826 0.0
C87 C 0.60617 0.71204 0.83158 0.0
C88 C 0.63339 0.71753 0.8458 0.0
C89 C 0.64491 0.69506 0.84614 0.0
C90 C 0.59819 0.55124 0.8739 0.0
C91 C 0.65948 0.54195 0.84118 0.0
C92 C 0.52459 0.4304 0.84615 0.0
C93 C 0.5362 0.40622 0.84291 0.0
C94 C 0.55547 0.40145 0.85745 0.0
C95 C 0.56372 0.37671 0.85481 0.0
C96 C 0.55247 0.3558 0.83763 0.0
C97 C 0.53442 0.36147 0.82292 0.0
C98 C 0.5263 0.38618 0.82552 0.0
C99 C 0.56766 0.52328 0.80467 0.0
O100 O 0.5461 0.56342 0.83917 0.0
O101 O 0.50596 0.50337 0.84674 0.0
O102 O 0.64667 0.63415 0.84886 0.0
O103 O 0.62857 0.61808 0.81904 0.0
O104 O 0.63344 0.5802 0.86885 0.0
O105 O 0.5715 0.53889 0.86088 0.0
O106 O 0.62109 0.51063 0.84184 0.0
O107 O 0.66421 0.57266 0.83892 0.0
O108 O 0.51539 0.43989 0.83113 0.0
O109 O 0.5461 0.45729 0.85891 0.0
O110 O 0.53295 0.49521 0.81073 0.0
O111 O 0.59574 0.53566 0.81719 0.0
H112 H 0.58741 0.63784 0.80802 0.0
H113 H 0.56782 0.6772 0.80731 0.0
H114 H 0.64699 0.74004 0.85623 0.0
H115 H 0.66685 0.70064 0.85694 0.0
H116 H 0.56341 0.41629 0.87106 0.0
H117 H 0.57752 0.373 0.86647 0.0
H118 H 0.52604 0.34637 0.80937 0.0
H119 H 0.51154 0.38906 0.81396 0.0
C120 C 0.64053 0.11737 0.18906 0.0
C121 C 0.65389 0.14536 0.20292 0.0
C122 C 0.71342 0.18929 0.18385 0.0
C123 C 0.68993 0.18106 0.20028 0.0
C124 C 0.69983 0.1611 0.17012 0.0
C125 C 0.66381 0.12571 0.17267 0.0
U126 U 0.54925 0.02867 0.21401 0.0
O127 O 0.48459 0.99164 0.20308 0.0
O128 O 0.52159 0.97264 0.20375 0.0
C129 C 0.48679 0.96541 0.19861 0.0
C130 C 0.60186 0.0796 0.19054 0.0
C131 C 0.4494 0.92693 0.19569 0.0
C132 C 0.39334 0.87972 0.17425 0.0
C133 C 0.42654 0.91636 0.17858 0.0
C134 C 0.4048 0.86332 0.20422 0.0
C135 C 0.38217 0.85258 0.18692 0.0
C136 C 0.43812 0.9001 0.20854 0.0
C137 C 0.5566 0.03862 0.27157 0.0
C138 C 0.52658 1.0006 0.29912 0.0
C139 C 0.57828 0.06585 0.30382 0.0
C140 C 0.58067 0.0693 0.28408 0.0
C141 C 0.55164 0.03147 0.31172 0.0
C142 C 0.5292 1.00411 0.2792 0.0
C143 C 0.56333 0.04451 0.25088 0.0
O144 O 0.60485 0.05527 0.19673 0.0
O145 O 0.56937 0.07534 0.19681 0.0
O146 O 0.5404 0.04913 0.24086 0.0
O147 O 0.57663 0.02942 0.24103 0.0
H148 H 0.63645 0.13968 0.21568 0.0
H149 H 0.69974 0.20214 0.21117 0.0
H150 H 0.71684 0.16655 0.15722 0.0
H151 H 0.6539 0.10475 0.16166 0.0
H152 H 0.37709 0.87253 0.16072 0.0
H153 H 0.43507 0.93645 0.16827 0.0
H154 H 0.39673 0.84324 0.21443 0.0
H155 H 0.45535 0.90749 0.22178 0.0
H156 H 0.50579 0.97365 0.30464 0.0
H157 H 0.59748 0.09033 0.31291 0.0
H158 H 0.60204 0.09621 0.27854 0.0
H159 H 0.51037 0.97999 0.26982 0.0
C160 C 0.53762 0.57791 0.53303 0.0
C161 C 0.55008 0.60615 0.54648 0.0
C162 C 0.53889 0.63658 0.52305 0.0
C163 C 0.55078 0.63522 0.54154 0.0
C164 C 0.52583 0.6078 0.50976 0.0
C165 C 0.52529 0.57888 0.5147 0.0
U166 U 0.54331 0.52005 0.5682 0.0
O167 O 0.57806 0.4991 0.56622 0.0
O168 O 0.51075 0.46075 0.56731 0.0
C169 C 0.54488 0.46484 0.56571 0.0
C170 C 0.53829 0.54778 0.53756 0.0
C171 C 0.54432 0.43925 0.55247 0.0
C172 C 0.56529 0.42502 0.52345 0.0
C173 C 0.56136 0.44861 0.53424 0.0
C174 C 0.53386 0.38231 0.54867 0.0
C175 C 0.55277 0.39216 0.5309 0.0
C176 C 0.52967 0.40554 0.55928 0.0
C177 C 0.55177 0.54445 0.62244 0.0
C178 C 0.55142 0.51154 0.64857 0.0
C179 C 0.56486 0.5692 0.65506 0.0
C180 C 0.56052 0.57174 0.63563 0.0
C181 C 0.56063 0.53921 0.66185 0.0
C182 C 0.54715 0.5142 0.62901 0.0
C183 C 0.54782 0.54869 0.60205 0.0
O184 O 0.57308 0.55745 0.54471 0.0
O185 O 0.50599 0.5204 0.54616 0.0
O186 O 0.51296 0.52246 0.5933 0.0
O187 O 0.58 0.56081 0.59165 0.0
H188 H 0.55974 0.60594 0.56073 0.0
H189 H 0.56145 0.657 0.55211 0.0
H190 H 0.51574 0.60744 0.49552 0.0
H191 H 0.51544 0.55729 0.50412 0.0
H192 H 0.57971 0.43316 0.50973 0.0
H193 H 0.57278 0.47451 0.52867 0.0
H194 H 0.52318 0.35686 0.55461 0.0
H195 H 0.51632 0.3977 0.57325 0.0
H196 H 0.54813 0.48815 0.65327 0.0
H197 H 0.57112 0.59065 0.66482 0.0
H198 H 0.56397 0.5952 0.63087 0.0
H199 H 0.54042 0.4928 0.61905 0.0
C200 C 0.98607 0.53612 0.86714 0.0
C201 C 0.95333 0.52098 0.88016 0.0
C202 C 0.91434 0.53673 0.86142 0.0
C203 C 0.91905 0.52143 0.87746 0.0
C204 C 0.94728 0.55154 0.84844 0.0
C205 C 0.98144 0.55127 0.85121 0.0
U206 U 0.07968 0.53196 0.88632 0.0
O207 O 0.10103 0.50283 0.87147 0.0
O208 O 0.14343 0.56148 0.87497 0.0
C209 C 0.13879 0.5323 0.86862 0.0
C210 C 1.02342 0.535 0.86858 0.0
C211 C 0.17647 0.5316 0.86738 0.0
C212 C 0.219 0.52032 0.8477 0.0
C213 C 0.18418 0.5198 0.8502 0.0
C214 C 0.24167 0.54451 0.87954 0.0
C215 C 0.24953 0.53266 0.86223 0.0
C216 C 0.20675 0.54416 0.88199 0.0
C217 C 0.07537 0.52664 0.94528 0.0
C218 C 0.10929 0.53857 0.97642 0.0
C219 C 0.03706 0.50963 0.97497 0.0
C220 C 0.03848 0.51108 0.9549 0.0
C221 C 0.07241 0.52325 0.98623 0.0
C222 C 0.11076 0.54043 0.95635 0.0
C223 C 0.0769 0.52855 0.92389 0.0
O224 O 0.06053 0.56363 0.87432 0.0
O225 O 1.01788 0.50487 0.87211 0.0
O226 O 0.0552 0.49945 0.91232 0.0
O227 O 0.10004 0.55948 0.91523 0.0
H228 H 0.95399 0.50853 0.89264 0.0
H229 H 0.89611 0.50957 0.88831 0.0
H230 H 0.94695 0.56331 0.83561 0.0
H231 H 1.00456 0.56287 0.8404 0.0
H232 H 0.2219 0.51128 0.83389 0.0
H233 H 0.16309 0.51034 0.83821 0.0
H234 H 0.26258 0.55418 0.89159 0.0
H235 H 0.20362 0.55395 0.89553 0.0
H236 H 0.1372 0.54883 0.9842 0.0
H237 H 1.00811 0.49828 0.98165 0.0
H238 H 1.01067 0.50045 0.94688 0.0
H239 H 0.13966 0.55233 0.94945 0.0
C240 C 0.9421 0.42581 0.47303 0.0
C241 C 0.91583 0.40327 0.4576 0.0
C242 C 0.87298 0.35258 0.47863 0.0
C243 C 0.88147 0.36687 0.46039 0.0
C244 C 0.89907 0.3753 0.494 0.0
C245 C 0.9332 0.4115 0.49123 0.0
U246 U 1.02978 0.51603 0.4475 0.0
O247 O 0.05696 0.57186 0.45882 0.0
O248 O 0.09423 0.55312 0.45796 0.0
C249 C 0.09188 0.57887 0.46346 0.0
C250 C 0.97915 0.46414 0.47102 0.0
C251 C 0.12991 0.61684 0.46692 0.0
C252 C 0.17681 0.66694 0.4899 0.0
C253 C 0.14016 0.63187 0.48568 0.0
C254 C 0.1936 0.67295 0.45656 0.0
C255 C 0.2043 0.68812 0.47543 0.0
C256 C 0.15692 0.63767 0.45237 0.0
C257 C 1.02197 0.50801 0.38978 0.0
C258 C 0.06414 0.54012 0.36229 0.0
C259 C 0.99383 0.48583 0.35735 0.0
C260 C 0.98936 0.4826 0.37711 0.0
C261 C 1.03127 0.51444 0.34964 0.0
C262 C 0.05949 0.53705 0.38222 0.0
C263 C 1.01538 0.5014 0.41049 0.0
O264 O 1.01208 0.46968 0.46437 0.0
O265 O 0.97406 0.48718 0.46481 0.0
O266 O 1.00114 0.51523 0.42077 0.0
O267 O 0.03919 0.4974 0.42019 0.0
H268 H 0.92201 0.4137 0.44345 0.0
H269 H 0.86174 0.34977 0.44832 0.0
H270 H 0.8932 0.36492 0.50816 0.0
H271 H 0.95292 0.42837 0.50336 0.0
H272 H 0.18392 0.6771 0.50461 0.0
H273 H 0.11997 0.61616 0.4972 0.0
H274 H 0.21344 0.68845 0.44493 0.0
H275 H 0.14976 0.62665 0.43781 0.0
H276 H 0.09333 0.56255 0.35674 0.0
H277 H 0.96815 0.46541 0.34803 0.0
H278 H 0.96028 0.4597 0.38254 0.0
H279 H 0.08516 0.55701 0.39165 0.0
C280 C 0.54466 0.94483 0.79781 0.0
C281 C 0.53367 0.91644 0.78472 0.0
C282 C 0.5524 0.89141 0.80812 0.0
C283 C 0.53724 0.8898 0.78989 0.0
C284 C 0.56286 0.91961 0.82117 0.0
C285 C 0.5588 0.94583 0.8161 0.0
U286 U 0.5401 1.00505 0.76295 0.0
O287 O 0.57425 0.06442 0.76532 0.0
O288 O 0.50689 0.02782 0.76583 0.0
C289 C 0.54093 0.06168 0.76668 0.0
C290 C 0.54268 0.97421 0.7929 0.0
C291 C 0.54276 0.08879 0.77935 0.0
C292 C 0.56669 0.12925 0.8079 0.0
C293 C 0.56097 0.09973 0.79775 0.0
C294 C 0.53525 0.13629 0.7816 0.0
C295 C 0.55497 0.14856 0.79962 0.0
C296 C 0.52919 0.10685 0.77167 0.0
C297 C 0.53726 0.98553 0.70787 0.0
C298 C 0.54702 0.02263 0.6816 0.0
C299 C 0.52861 0.96307 0.6749 0.0
C300 C 0.52838 0.95836 0.69448 0.0
C301 C 0.53823 0.99532 0.6682 0.0
C302 C 0.54628 0.01769 0.7013 0.0
C303 C 0.53817 0.97963 0.7284 0.0
O304 O 0.57549 1.00267 0.78516 0.0
O305 O 0.50832 0.96432 0.78503 0.0
O306 O 0.50506 0.96746 0.73806 0.0
O307 O 0.57226 1.00442 0.73811 0.0
H308 H 0.52279 0.91511 0.7705 0.0
H309 H 0.52921 0.8685 0.7795 0.0
H310 H 0.57428 0.92138 0.83534 0.0
H311 H 0.56722 0.96729 0.82648 0.0
H312 H 0.58173 0.13789 0.82182 0.0
H313 H 0.57174 0.08623 0.80401 0.0
H314 H 0.52512 0.15001 0.77495 0.0
H315 H 0.51508 0.09898 0.75754 0.0
H316 H 0.55424 0.04766 0.67681 0.0
H317 H 0.52201 0.94172 0.66493 0.0
H318 H 0.52161 0.93345 0.69919 0.0
H319 H 0.5531 0.03901 0.71135 0.0
C320 C 0.56407 0.4543 0.1371 0.0
C321 C 0.58285 0.44415 0.12518 0.0
C322 C 0.63789 0.47072 0.14845 0.0
C323 C 0.61947 0.45208 0.13091 0.0
C324 C 0.61897 0.48082 0.16036 0.0
C325 C 0.58199 0.47248 0.15469 0.0
U326 U 0.50964 0.45327 0.09528 0.0
O327 O 0.48214 0.47993 0.09041 0.0
O328 O 0.44324 0.42009 0.08922 0.0
C329 C 0.44491 0.44893 0.0917 0.0
C330 C 0.52954 0.45112 0.1299 0.0
C331 C 0.42385 0.44864 0.10849 0.0
C332 C 0.43128 0.46851 0.14167 0.0
C333 C 0.44514 0.46026 0.12612 0.0
C334 C 0.37113 0.44844 0.12302 0.0
C335 C 0.3954 0.46453 0.13984 0.0
C336 C 0.38556 0.44073 0.10722 0.0
C337 C 0.55778 0.47093 0.04759 0.0
C338 C 0.52561 0.47534 0.02056 0.0
C339 C 0.59109 0.48725 0.0173 0.0
C340 C 0.59089 0.48071 0.03646 0.0
C341 C 0.55816 0.48408 0.00918 0.0
C342 C 0.52542 0.46876 0.03971 0.0
C343 C 0.55789 0.46466 0.06763 0.0
O344 O 0.54042 0.48125 0.12261 0.0
O345 O 0.50308 0.42154 0.1192 0.0
O346 O 0.52729 0.43175 0.07286 0.0
O347 O 0.56482 0.49091 0.07902 0.0
H348 H 0.56969 0.43081 0.1113 0.0
H349 H 0.63319 0.44341 0.1217 0.0
H350 H 0.63295 0.49539 0.17391 0.0
H351 H 0.56804 0.48115 0.16373 0.0
H352 H 0.45071 0.48159 0.15438 0.0
H353 H 0.47443 0.46614 0.12745 0.0
H354 H 0.34339 0.44565 0.12147 0.0
H355 H 0.36843 0.43118 0.09382 0.0
H356 H 0.50001 0.47287 0.01456 0.0
H357 H 0.61694 0.49478 0.00882 0.0
H358 H 0.61646 0.48325 0.04257 0.0
H359 H 0.50002 0.46184 0.04838 0.0
C360 C 0.2892 0.53868 0.15249 0.0
C361 C 0.29221 0.56013 0.16788 0.0
C362 C 0.31481 0.52921 0.15156 0.0
C363 C 0.34559 0.54326 0.16589 0.0
C364 C 0.35183 0.56825 0.18029 0.0
C365 C 0.32431 0.57598 0.18135 0.0
C366 C 0.30611 0.50139 0.13626 0.0
C367 C 0.38545 0.58452 0.19526 0.0
C368 C 0.36222 0.47436 0.16587 0.0
C369 C 0.39147 0.48819 0.15177 0.0
C370 C 0.35142 0.49535 0.17338 0.0
C371 C 0.36934 0.52979 0.1658 0.0
C372 C 0.40234 0.54527 0.15325 0.0
C373 C 0.41337 0.52422 0.1465 0.0
C374 C 0.31675 0.47846 0.1872 0.0
C375 C 0.42106 0.58116 0.14432 0.0
H376 H 0.26363 0.52569 0.14237 0.0
H377 H 0.32596 0.59214 0.19335 0.0
H378 H 0.33445 0.51118 0.12863 0.0
H379 H 0.29472 0.47564 0.14292 0.0
H380 H 0.28259 0.49505 0.12562 0.0
H381 H 0.38833 0.60585 0.20445 0.0
H382 H 0.379 0.5628 0.20439 0.0
H383 H 0.41527 0.5966 0.18846 0.0
H384 H 0.34591 0.44649 0.16996 0.0
H385 H 0.43618 0.53454 0.13554 0.0
H386 H 0.28742 0.46521 0.17916 0.0
H387 H 0.32095 0.49935 0.19732 0.0
H388 H 0.31417 0.45736 0.19539 0.0
H389 H 0.40099 0.57656 0.13225 0.0
H390 H 0.45188 0.59317 0.13867 0.0
H391 H 0.42364 0.60101 0.15465 0.0
C392 C 0.68987 0.14546 0.50763 0.0
C393 C 0.66541 0.12569 0.49133 0.0
C394 C 0.72442 0.18262 0.50683 0.0
C395 C 0.73529 0.20006 0.48921 0.0
C396 C 0.71121 0.17959 0.47265 0.0
C397 C 0.67631 0.14298 0.47399 0.0
C398 C 0.74823 0.20352 0.52497 0.0
C399 C 0.72205 0.19649 0.45348 0.0
C400 C 0.79898 0.30331 0.48591 0.0
C401 C 0.83783 0.31378 0.48168 0.0
C402 C 0.76569 0.26665 0.48909 0.0
C403 C 0.77132 0.23972 0.48788 0.0
C404 C 0.81089 0.2505 0.48399 0.0
C405 C 0.84363 0.28737 0.481 0.0
C406 C 0.72435 0.25664 0.49352 0.0
C407 C 0.81848 0.22295 0.48263 0.0
H408 H 0.68098 0.13231 0.52113 0.0
H409 H 0.65727 0.12773 0.46139 0.0
H410 H 0.78161 0.21893 0.52295 0.0
H411 H 0.74328 0.22368 0.52882 0.0
H412 H 0.73864 0.18539 0.53705 0.0
H413 H 0.70126 0.17652 0.44185 0.0
H414 H 0.72039 0.21922 0.45387 0.0
H415 H 0.75403 0.20809 0.45007 0.0
H416 H 0.79466 0.32386 0.4867 0.0
H417 H 0.87385 0.2956 0.47799 0.0
H418 H 0.71265 0.24146 0.5068 0.0
H419 H 0.70194 0.23841 0.48189 0.0
H420 H 0.72558 0.28095 0.49521 0.0
H421 H 0.80984 0.20837 0.49607 0.0
H422 H 0.85108 0.23573 0.47982 0.0
H423 H 0.79897 0.20227 0.47103 0.0
C424 C 0.58761 0.75058 0.84556 0.0
C425 C 0.59738 0.73826 0.82972 0.0
C426 C 0.57938 0.77536 0.8436 0.0
C427 C 0.5815 0.78852 0.82541 0.0
C428 C 0.59203 0.77655 0.80951 0.0
C429 C 0.59952 0.75152 0.81183 0.0
C430 C 0.56782 0.787 0.86091 0.0
C431 C 0.5959 0.79055 0.78997 0.0
C432 C 0.527 0.82718 0.8119 0.0
C433 C 0.55904 0.86484 0.81337 0.0
C434 C 0.53336 0.80211 0.8168 0.0
C435 C 0.573 0.81489 0.82273 0.0
C436 C 0.60531 0.85296 0.8244 0.0
C437 C 0.59779 0.87739 0.81997 0.0
C438 C 0.49777 0.76187 0.81538 0.0
C439 C 0.64812 0.86796 0.83051 0.0
H440 H 0.58576 0.74039 0.85943 0.0
H441 H 0.60786 0.74274 0.7996 0.0
H442 H 0.58805 0.81714 0.8626 0.0
H443 H 0.53595 0.77732 0.85904 0.0
H444 H 0.56984 0.77605 0.87419 0.0
H445 H 0.60495 0.77901 0.77912 0.0
H446 H 0.56628 0.78365 0.78534 0.0
H447 H 0.61917 0.82069 0.79047 0.0
H448 H 0.49686 0.81736 0.80708 0.0
H449 H 0.62262 0.90647 0.82116 0.0
H450 H 0.49453 0.74941 0.82908 0.0
H451 H 0.50365 0.74821 0.8043 0.0
H452 H 0.46836 0.75635 0.81178 0.0
H453 H 0.64803 0.86099 0.84542 0.0
H454 H 0.6705 0.89804 0.82964 0.0
H455 H 0.65876 0.85548 0.82149 0.0
C456 C 0.83521 0.50042 0.18668 0.0
C457 C 0.82936 0.46789 0.18292 0.0
C458 C 0.80684 0.5044 0.18032 0.0
C459 C 0.77131 0.47464 0.17052 0.0
C460 C 0.76464 0.44138 0.16693 0.0
C461 C 0.79437 0.43852 0.17301 0.0
C462 C 0.81534 0.54059 0.18375 0.0
C463 C 0.72668 0.40937 0.15634 0.0
C464 C 0.67716 0.46769 0.17316 0.0
C465 C 0.67518 0.47701 0.15481 0.0
C466 C 0.70937 0.46799 0.17863 0.0
C467 C 0.73969 0.47751 0.16529 0.0
C468 C 0.7392 0.48888 0.14706 0.0
C469 C 0.70674 0.4887 0.14204 0.0
C470 C 0.70992 0.45647 0.19834 0.0
C471 C 0.77218 0.50029 0.13282 0.0
H472 H 0.86345 0.52372 0.19356 0.0
H473 H 0.7911 0.41408 0.16955 0.0
H474 H 0.81451 0.55107 0.17003 0.0
H475 H 0.79124 0.53711 0.19274 0.0
H476 H 0.84568 0.56145 0.19087 0.0
H477 H 0.72592 0.38527 0.15508 0.0
H478 H 0.69881 0.40158 0.16375 0.0
H479 H 0.72532 0.41708 0.14181 0.0
H480 H 0.65248 0.45841 0.18293 0.0
H481 H 0.70532 0.49662 0.12797 0.0
H482 H 0.73966 0.4777 0.20577 0.0
H483 H 0.70671 0.43113 0.1972 0.0
H484 H 0.68486 0.45148 0.20723 0.0
H485 H 0.80221 0.52496 0.13846 0.0
H486 H 0.76571 0.50635 0.11887 0.0
H487 H 0.77524 0.47856 0.13048 0.0
C488 C 0.42621 0.88395 0.50092 0.0
C489 C 0.43061 0.90983 0.48927 0.0
C490 C 0.38924 0.84798 0.50109 0.0
C491 C 0.35599 0.83708 0.48889 0.0
C492 C 0.35997 0.86334 0.47744 0.0
C493 C 0.39695 0.89937 0.47791 0.0
C494 C 0.38635 0.82154 0.51401 0.0
C495 C 0.32541 0.85308 0.46426 0.0
C496 C 0.27967 0.73824 0.47004 0.0
C497 C 0.24391 0.72564 0.47994 0.0
C498 C 0.31649 0.77388 0.4733 0.0
C499 C 0.31815 0.79788 0.48693 0.0
C500 C 0.28286 0.78491 0.49768 0.0
C501 C 0.24623 0.74915 0.494 0.0
C502 C 0.35347 0.78616 0.46177 0.0
C503 C 0.28368 0.80895 0.51293 0.0
H504 H 0.45177 0.89179 0.50999 0.0
H505 H 0.39989 0.9191 0.46893 0.0
H506 H 0.35613 0.80453 0.52093 0.0
H507 H 0.38941 0.80298 0.50549 0.0
H508 H 0.4109 0.83578 0.52527 0.0
H509 H 0.33303 0.87661 0.45642 0.0
H510 H 0.31814 0.83139 0.45376 0.0
H511 H 0.29733 0.84193 0.47249 0.0
H512 H 0.27895 0.7202 0.45963 0.0
H513 H 0.2191 0.74001 0.50186 0.0
H514 H 0.37985 0.79594 0.47138 0.0
H515 H 0.36253 0.80934 0.45314 0.0
H516 H 0.34762 0.76404 0.45206 0.0
H517 H 0.30813 0.8182 0.52371 0.0
H518 H 0.25396 0.79475 0.52026 0.0
H519 H 0.29111 0.83368 0.50662 0.0
C520 C 0.52523 0.29269 0.82673 0.0
C521 C 0.55722 0.32672 0.83523 0.0
C522 C 0.52899 0.26514 0.82354 0.0
C523 C 0.56573 0.27142 0.82895 0.0
C524 C 0.59782 0.30532 0.83811 0.0
C525 C 0.59317 0.33254 0.84117 0.0
C526 C 0.49376 0.22947 0.81389 0.0
C527 C 0.63748 0.31326 0.84418 0.0
C528 C 0.55331 0.18343 0.82764 0.0
C529 C 0.56442 0.18241 0.80886 0.0
C530 C 0.55644 0.21358 0.83502 0.0
C531 C 0.57106 0.24336 0.82338 0.0
C532 C 0.58535 0.24354 0.80501 0.0
C533 C 0.58181 0.2132 0.79802 0.0
C534 C 0.54187 0.21264 0.85486 0.0
C535 C 0.60172 0.27468 0.79212 0.0
H536 H 0.49697 0.28754 0.82251 0.0
H537 H 0.61812 0.35873 0.84773 0.0
H538 H 0.50383 0.22511 0.80018 0.0
H539 H 0.48389 0.20655 0.82294 0.0
H540 H 0.4669 0.22852 0.81099 0.0
H541 H 0.65738 0.33897 0.85306 0.0
H542 H 0.63123 0.29057 0.85233 0.0
H543 H 0.65462 0.31563 0.83139 0.0
H544 H 0.54017 0.15991 0.83618 0.0
H545 H 0.59138 0.21301 0.78367 0.0
H546 H 0.5125 0.20834 0.85401 0.0
H547 H 0.56437 0.23904 0.8628 0.0
H548 H 0.53693 0.19047 0.86304 0.0
H549 H 0.57608 0.27422 0.78722 0.0
H550 H 0.61656 0.27303 0.7794 0.0
H551 H 0.62433 0.3012 0.79991 0.0
C552 C 0.51726 0.78816 0.49205 0.0
C553 C 0.55427 0.82296 0.4961 0.0
C554 C 0.51391 0.7568 0.49479 0.0
C555 C 0.54805 0.76054 0.50223 0.0
C556 C 0.58565 0.79585 0.50595 0.0
C557 C 0.58834 0.82657 0.50268 0.0
C558 C 0.47372 0.71972 0.49009 0.0
C559 C 0.62278 0.80121 0.51391 0.0
C560 C 0.52941 0.68398 0.53046 0.0
C561 C 0.54046 0.66794 0.51754 0.0
C562 C 0.53126 0.71374 0.52555 0.0
C563 C 0.54413 0.72781 0.50718 0.0
C564 C 0.555 0.71164 0.49399 0.0
C565 C 0.55311 0.68203 0.49933 0.0
C566 C 0.51986 0.73045 0.54011 0.0
C567 C 0.56844 0.72544 0.47419 0.0
H568 H 0.49099 0.78552 0.48689 0.0
H569 H 0.61688 0.85362 0.5058 0.0
H570 H 0.47892 0.70334 0.48078 0.0
H571 H 0.45996 0.7049 0.50336 0.0
H572 H 0.45139 0.72149 0.48284 0.0
H573 H 0.64974 0.83047 0.51591 0.0
H574 H 0.61553 0.78836 0.52785 0.0
H575 H 0.63124 0.78771 0.50421 0.0
H576 H 0.51897 0.67309 0.54444 0.0
H577 H 0.56224 0.67028 0.48928 0.0
H578 H 0.4938 0.72878 0.53457 0.0
H579 H 0.54606 0.75974 0.54279 0.0
H580 H 0.51109 0.71675 0.55387 0.0
H581 H 0.54194 0.71917 0.46592 0.0
H582 H 0.58038 0.71279 0.46644 0.0
H583 H 0.59257 0.75545 0.47473 0.0
C584 C 0.73354 0.56888 0.85444 0.0
C585 C 0.69756 0.54195 0.84338 0.0
C586 C 0.76725 0.56775 0.85754 0.0
C587 C 0.76798 0.53988 0.84887 0.0
C588 C 0.7322 0.5132 0.83724 0.0
C589 C 0.69805 0.51401 0.83513 0.0
C590 C 0.80231 0.59661 0.87061 0.0
C591 C 0.72983 0.48332 0.82671 0.0
C592 C 0.87555 0.55781 0.84395 0.0
C593 C 0.87643 0.53727 0.85815 0.0
C594 C 0.84159 0.55855 0.84077 0.0
C595 C 0.80533 0.53865 0.85196 0.0
C596 C 0.80565 0.51769 0.86621 0.0
C597 C 0.83997 0.51728 0.86905 0.0
C598 C 0.84464 0.58092 0.825 0.0
C599 C 0.76949 0.49575 0.87904 0.0
H600 H 0.73496 0.59072 0.86133 0.0
H601 H 0.67155 0.49259 0.82651 0.0
H602 H 0.80829 0.58374 0.88146 0.0
H603 H 0.8306 0.61415 0.86231 0.0
H604 H 0.79617 0.61409 0.87801 0.0
H605 H 0.70359 0.46755 0.81633 0.0
H606 H 0.75864 0.49496 0.81898 0.0
H607 H 0.72636 0.46432 0.83702 0.0
H608 H 0.90192 0.57409 0.83505 0.0
H609 H 0.83767 0.50067 0.88006 0.0
H610 H 0.84532 0.60345 0.83111 0.0
H611 H 0.81719 0.56384 0.81537 0.0
H612 H 0.87254 0.59278 0.81645 0.0
H613 H 0.76907 0.51459 0.88889 0.0
H614 H 0.7707 0.47702 0.8876 0.0
H615 H 0.74029 0.4795 0.8706 0.0
C616 C 0.19885 0.63919 0.15603 0.0
C617 C 0.17335 0.62411 0.17175 0.0
C618 C 0.23349 0.67646 0.15644 0.0
C619 C 0.24344 0.69874 0.17319 0.0
C620 C 0.21802 0.6831 0.1892 0.0
C621 C 0.1831 0.64625 0.18817 0.0
C622 C 0.25896 0.69202 0.13886 0.0
C623 C 0.22733 0.70549 0.20739 0.0
C624 C 0.3512 0.78614 0.18538 0.0
C625 C 0.34741 0.81326 0.18203 0.0
C626 C 0.31838 0.74896 0.18154 0.0
C627 C 0.28041 0.7383 0.17437 0.0
C628 C 0.27681 0.7656 0.17028 0.0
C629 C 0.31031 0.80265 0.17407 0.0
C630 C 0.32391 0.72094 0.18577 0.0
C631 C 0.23713 0.75562 0.16242 0.0
H632 H 0.19076 0.62224 0.14317 0.0
H633 H 0.16302 0.63466 0.20024 0.0
H634 H 0.26483 0.71779 0.1355 0.0
H635 H 0.28915 0.69848 0.14148 0.0
H636 H 0.24387 0.67273 0.12626 0.0
H637 H 0.20526 0.68901 0.21873 0.0
H638 H 0.25874 0.71795 0.21275 0.0
H639 H 0.22634 0.72804 0.20457 0.0
H640 H 0.37998 0.79401 0.19108 0.0
H641 H 0.30699 0.8233 0.17136 0.0
H642 H 0.31463 0.70217 0.17315 0.0
H643 H 0.30377 0.70427 0.19758 0.0
H644 H 0.35612 0.73359 0.18985 0.0
H645 H 0.22739 0.73797 0.14926 0.0
H646 H 0.23983 0.77998 0.1591 0.0
H647 H 0.21251 0.73981 0.17289 0.0
C648 C 0.51652 0.21435 0.50149 0.0
C649 C 0.54721 0.21459 0.49299 0.0
C650 C 0.52152 0.24657 0.50477 0.0
C651 C 0.55827 0.28019 0.49947 0.0
C652 C 0.58894 0.28058 0.49023 0.0
C653 C 0.58299 0.24768 0.48705 0.0
C654 C 0.48778 0.24466 0.51447 0.0
C655 C 0.62847 0.31577 0.48429 0.0
C656 C 0.54819 0.35553 0.50219 0.0
C657 C 0.56104 0.36865 0.52111 0.0
C658 C 0.55021 0.3286 0.49422 0.0
C659 C 0.56543 0.31468 0.50547 0.0
C660 C 0.58156 0.33018 0.524 0.0
C661 C 0.57913 0.35687 0.53156 0.0
C662 C 0.53361 0.31338 0.47424 0.0
C663 C 0.59841 0.31655 0.5365 0.0
H664 H 0.48841 0.18875 0.50568 0.0
H665 H 0.60678 0.24799 0.48041 0.0
H666 H 0.49945 0.26058 0.52827 0.0
H667 H 0.4777 0.2569 0.50555 0.0
H668 H 0.46067 0.21625 0.51721 0.0
H669 H 0.64697 0.31106 0.47532 0.0
H670 H 0.62207 0.33174 0.4763 0.0
H671 H 0.64712 0.33263 0.49713 0.0
H672 H 0.53451 0.36479 0.49399 0.0
H673 H 0.58996 0.36757 0.54605 0.0
H674 H 0.5038 0.28564 0.47483 0.0
H675 H 0.55479 0.31091 0.46614 0.0
H676 H 0.5288 0.3306 0.4664 0.0
H677 H 0.57281 0.28889 0.54106 0.0
H678 H 0.61463 0.33458 0.54944 0.0
H679 H 0.61995 0.31441 0.52852 0.0
C680 C 0.43443 0.50559 0.85552 0.0
C681 C 0.47085 0.53301 0.84605 0.0
C682 C 0.39987 0.50575 0.85811 0.0
C683 C 0.39907 0.53351 0.85083 0.0
C684 C 0.43547 0.56091 0.84093 0.0
C685 C 0.47006 0.56062 0.83897 0.0
C686 C 0.36371 0.47574 0.86897 0.0
C687 C 0.43817 0.59115 0.83223 0.0
C688 C 0.29145 0.5147 0.84358 0.0
C689 C 0.28825 0.53316 0.85925 0.0
C690 C 0.3262 0.51491 0.84067 0.0
C691 C 0.36096 0.53382 0.85359 0.0
C692 C 0.35833 0.55274 0.8693 0.0
C693 C 0.32322 0.55216 0.87188 0.0
C694 C 0.32561 0.49456 0.82336 0.0
C695 C 0.39299 0.57374 0.88385 0.0
H696 H 0.43298 0.48377 0.86132 0.0
H697 H 0.49677 0.58234 0.83154 0.0
H698 H 0.35737 0.4876 0.88096 0.0
H699 H 0.33599 0.45961 0.8595 0.0
H700 H 0.36882 0.4571 0.87474 0.0
H701 H 0.46519 0.60774 0.82299 0.0
H702 H 0.40996 0.57983 0.82364 0.0
H703 H 0.44052 0.60933 0.84371 0.0
H704 H 0.26626 0.49929 0.83331 0.0
H705 H 0.32374 0.56727 0.88406 0.0
H706 H 0.3259 0.47232 0.82786 0.0
H707 H 0.3536 0.51315 0.815 0.0
H708 H 0.29822 0.48259 0.81397 0.0
H709 H 0.39406 0.5544 0.89185 0.0
H710 H 0.38954 0.59023 0.89414 0.0
H711 H 0.4228 0.59214 0.87673 0.0
C712 C 0.92848 0.39203 0.18524 0.0
C713 C 0.9409 0.40617 0.1671 0.0
C714 C 0.89139 0.35694 0.18776 0.0
C715 C 0.86537 0.33559 0.17179 0.0
C716 C 0.87761 0.35011 0.15342 0.0
C717 C 0.91543 0.38509 0.15127 0.0
C718 C 0.88029 0.34257 0.20754 0.0
C719 C 0.85046 0.32886 0.13607 0.0
C720 C 0.78822 0.23219 0.17591 0.0
C721 C 0.7522 0.22689 0.18092 0.0
C722 C 0.825 0.26721 0.17285 0.0
C723 C 0.82587 0.29793 0.17438 0.0
C724 C 0.78931 0.29264 0.17907 0.0
C725 C 0.75317 0.25734 0.18256 0.0
C726 C 0.86318 0.27138 0.16828 0.0
C727 C 0.78833 0.32428 0.1805 0.0
H728 H 0.94819 0.40838 0.19749 0.0
H729 H 0.92486 0.39617 0.13727 0.0
H730 H 0.85079 0.33635 0.21157 0.0
H731 H 0.876 0.31675 0.20781 0.0
H732 H 0.90414 0.36223 0.21841 0.0
H733 H 0.86463 0.34349 0.12277 0.0
H734 H 0.84368 0.30196 0.1346 0.0
H735 H 0.82071 0.32367 0.13775 0.0
H736 H 0.78779 0.20884 0.1747 0.0
H737 H 0.72537 0.25345 0.18621 0.0
H738 H 0.88718 0.28911 0.17946 0.0
H739 H 0.87562 0.2848 0.15457 0.0
H740 H 0.85734 0.24481 0.16731 0.0
H741 H 0.80559 0.34144 0.19351 0.0
H742 H 0.75651 0.31512 0.18124 0.0
H743 H 0.80339 0.34169 0.16811 0.0
C744 C 0.04173 0.53816 0.0989 0.0
C745 C 0.05204 0.52184 0.11121 0.0
C746 C 0.04684 0.53817 0.07898 0.0
C747 C 0.06235 0.52102 0.07061 0.0
C748 C 0.07299 0.50447 0.08293 0.0
C749 C 0.06797 0.50525 0.10298 0.0
C750 C 1.03534 0.55655 0.06682 0.0
C751 C 0.08987 0.48601 0.07494 0.0
C752 C 1.0353 0.49303 0.01709 0.0
C753 C 0.07077 0.52171 0.00794 0.0
C754 C 1.03274 0.4919 0.03723 0.0
C755 C 0.0664 0.52004 0.04902 0.0
C756 C 0.10269 0.54857 0.03995 0.0
C757 C 0.10441 0.5491 0.01976 0.0
C758 C 0.99349 0.46061 0.04595 0.0
C759 C 0.13955 0.57935 0.05161 0.0
H760 H 1.02961 0.55129 0.10489 0.0
H761 H 0.07635 0.4927 0.11219 0.0
H762 H 0.06175 0.57716 0.05816 0.0
H763 H 1.00988 0.53613 0.05678 0.0
H764 H 1.02557 0.57021 0.07545 0.0
H765 H 0.09336 0.47172 0.08597 0.0
H766 H 0.06949 0.46604 0.06325 0.0
H767 H 0.12033 0.50658 0.06879 0.0
H768 H 1.00921 0.47109 0.00849 0.0
H769 H 0.13201 0.57176 0.01326 0.0
H770 H 0.97942 0.47098 0.05403 0.0
H771 H 1.00013 0.44736 0.05619 0.0
H772 H 0.97082 0.43977 0.03506 0.0
H773 H 0.13213 0.59588 0.05901 0.0
H774 H 0.16677 0.59748 0.04271 0.0
H775 H 0.1476 0.56846 0.06272 0.0
C776 C 0.5495 0.04056 0.42717 0.0
C777 C 0.5552 0.0167 0.43465 0.0
C778 C 0.54783 0.0432 0.4073 0.0
C779 C 0.55119 0.02092 0.39457 0.0
C780 C 0.55615 0.99627 0.40218 0.0
C781 C 0.55865 0.99485 0.42206 0.0
C782 C 0.54363 0.07055 0.39993 0.0
C783 C 0.55981 0.97195 0.38929 0.0
C784 C 0.51417 1.00453 0.34251 0.0
C785 C 0.5511 0.02833 0.33295 0.0
C786 C 0.51366 1.00224 0.36251 0.0
C787 C 0.55095 0.02411 0.37335 0.0
C788 C 0.5883 0.04817 0.36378 0.0
C789 C 0.58791 0.04993 0.34383 0.0
C790 C 0.47316 0.97625 0.37207 0.0
C791 C 0.62884 0.0722 0.37463 0.0
H792 H 0.54798 0.05821 0.43683 0.0
H793 H 0.56366 0.97674 0.42782 0.0
H794 H 0.57016 0.09001 0.39099 0.0
H795 H 0.51559 0.05644 0.39076 0.0
H796 H 0.54196 0.08619 0.41163 0.0
H797 H 0.56063 0.95251 0.39737 0.0
H798 H 0.53362 0.95625 0.37891 0.0
H799 H 0.58828 0.98883 0.38102 0.0
H800 H 0.4855 0.98803 0.33438 0.0
H801 H 0.61675 0.06807 0.33668 0.0
H802 H 0.46862 0.99137 0.38281 0.0
H803 H 0.47325 0.95608 0.37975 0.0
H804 H 0.44679 0.96141 0.36176 0.0
H805 H 0.62894 0.09098 0.38478 0.0
H806 H 0.65527 0.08867 0.36507 0.0
H807 H 0.63328 0.05539 0.38312 0.0
C808 C 0.59881 0.52704 0.77334 0.0
C809 C 0.57377 0.53142 0.78427 0.0
C810 C 0.59879 0.52831 0.75332 0.0
C811 C 0.57405 0.53514 0.74412 0.0
C812 C 0.55014 0.54115 0.75531 0.0
C813 C 0.54968 0.53847 0.77518 0.0
C814 C 0.62401 0.52096 0.74195 0.0
C815 C 0.52407 0.5494 0.74625 0.0
C816 C 0.59678 0.56866 0.69353 0.0
C817 C 0.56573 0.53723 0.68272 0.0
C818 C 0.60038 0.56818 0.71339 0.0
C819 C 0.57242 0.5354 0.72282 0.0
C820 C 0.5417 0.50329 0.71195 0.0
C821 C 0.53876 0.50456 0.69207 0.0
C822 C 0.63345 0.60308 0.72435 0.0
C823 C 0.51135 0.4677 0.72139 0.0
H824 H 0.61674 0.52078 0.78037 0.0
H825 H 0.52999 0.54145 0.78367 0.0
H826 H 0.60362 0.4967 0.73217 0.0
H827 H 0.64583 0.54431 0.73302 0.0
H828 H 0.64159 0.51609 0.7512 0.0
H829 H 0.51071 0.55708 0.75702 0.0
H830 H 0.54254 0.57193 0.73638 0.0
H831 H 0.49864 0.5251 0.73774 0.0
H832 H 0.61827 0.5939 0.68645 0.0
H833 H 0.5145 0.48018 0.68392 0.0
H834 H 0.65264 0.59913 0.73287 0.0
H835 H 0.61917 0.61078 0.73447 0.0
H836 H 0.65366 0.626 0.71485 0.0
H837 H 0.52792 0.46045 0.72955 0.0
H838 H 0.48995 0.44498 0.71094 0.0
H839 H 0.49308 0.47053 0.73168 0.0
C840 C 0.53238 0.03677 0.55897 0.0
C841 C 0.54109 0.01893 0.54608 0.0
C842 C 0.53394 0.03413 0.57879 0.0
C843 C 0.54336 0.01224 0.58604 0.0
C844 C 0.55247 0.99431 0.57303 0.0
C845 C 0.55157 0.99813 0.55323 0.0
C846 C 0.52466 0.05423 0.59199 0.0
C847 C 0.56162 0.96994 0.57997 0.0
C848 C 0.57594 0.02833 0.63875 0.0
C849 C 0.53943 1.00022 0.64727 0.0
C850 C 0.57797 0.03194 0.61884 0.0
C851 C 0.54237 1.00744 0.60714 0.0
C852 C 0.50534 0.97913 0.61577 0.0
C853 C 0.50446 0.97564 0.63564 0.0
C854 C 0.61831 0.0619 0.61029 0.0
C855 C 0.46645 0.95269 0.60402 0.0
H856 H 0.52398 0.05268 0.5535 0.0
H857 H 0.55729 0.98354 0.54335 0.0
H858 H 0.49724 0.03452 0.6004 0.0
H859 H 0.55068 0.07244 0.60224 0.0
H860 H 0.51895 0.07088 0.58417 0.0
H861 H 0.57211 0.96092 0.56835 0.0
H862 H 0.58547 0.98416 0.59151 0.0
H863 H 0.53353 0.94542 0.58602 0.0
H864 H 0.60319 0.04704 0.64766 0.0
H865 H 0.4762 0.95385 0.64218 0.0
H866 H 0.61517 0.08051 0.60286 0.0
H867 H 0.62707 0.05006 0.5995 0.0
H868 H 0.64346 0.07805 0.6212 0.0
H869 H 0.45725 0.96762 0.59717 0.0
H870 H 0.44066 0.9313 0.61272 0.0
H871 H 0.47172 0.93932 0.59247 0.0
C872 C 0.54947 0.50715 0.89741 0.0
C873 C 0.58921 0.53758 0.89306 0.0
C874 C 0.5402 0.49474 0.91592 0.0
C875 C 0.57145 0.5136 0.9302 0.0
C876 C 0.61179 0.54396 0.92575 0.0
C877 C 0.62023 0.55555 0.90713 0.0
C878 C 0.49694 0.46211 0.92023 0.0
C879 C 0.64588 0.5645 0.94072 0.0
C880 C 0.54902 0.51164 0.9823 0.0
C881 C 0.55754 0.48905 0.98873 0.0
C882 C 0.55129 0.51841 0.96294 0.0
C883 C 0.56235 0.50216 0.94997 0.0
C884 C 0.56896 0.47793 0.9563 0.0
C885 C 0.56649 0.47167 0.97569 0.0
C886 C 0.54392 0.54431 0.95651 0.0
C887 C 0.58017 0.45975 0.94272 0.0
H888 H 0.52555 0.49326 0.88641 0.0
H889 H 0.651 0.57898 0.90364 0.0
H890 H 0.49704 0.44234 0.92833 0.0
H891 H 0.48244 0.47103 0.92926 0.0
H892 H 0.47771 0.44797 0.90708 0.0
H893 H 0.67563 0.58731 0.93478 0.0
H894 H 0.63777 0.57574 0.95224 0.0
H895 H 0.64988 0.54574 0.94729 0.0
H896 H 0.54207 0.52502 0.99247 0.0
H897 H 0.57213 0.45356 0.98073 0.0
H898 H 0.52171 0.53185 0.9443 0.0
H899 H 0.57306 0.56944 0.95156 0.0
H900 H 0.53205 0.55206 0.96809 0.0
H901 H 0.55684 0.44468 0.931 0.0
H902 H 0.58261 0.44047 0.9499 0.0
H903 H 0.60999 0.48069 0.93616 0.0
C904 C 0.07065 0.54032 0.23588 0.0
C905 C 0.04577 0.50631 0.22595 0.0
C906 C 0.06845 0.54342 0.2559 0.0
C907 C 0.04028 0.51187 0.26633 0.0
C908 C 1.01401 0.47768 0.25619 0.0
C909 C 1.0173 0.47532 0.23627 0.0
C910 C 0.0971 0.5804 0.26599 0.0
C911 C 0.98277 0.44335 0.26644 0.0
C912 C 0.06271 0.51222 0.31939 0.0
C913 C 1.03565 0.51639 0.32844 0.0
C914 C 0.06445 0.51068 0.29931 0.0
C915 C 0.03924 0.51428 0.28784 0.0
C916 C 1.01237 0.51918 0.297 0.0
C917 C 1.01059 0.51975 0.3171 0.0
C918 C 0.09262 0.50428 0.29035 0.0
C919 C 0.98534 0.52371 0.28558 0.0
H920 H 0.09278 0.56443 0.22809 0.0
H921 H 0.99764 0.44893 0.22875 0.0
H922 H 0.07941 0.58614 0.27486 0.0
H923 H 0.11823 0.58072 0.27573 0.0
H924 H 0.11567 0.60254 0.25589 0.0
H925 H 0.96418 0.41897 0.25653 0.0
H926 H 0.99846 0.43868 0.27709 0.0
H927 H 0.96174 0.44632 0.27431 0.0
H928 H 0.08163 0.50897 0.32806 0.0
H929 H 0.9895 0.52285 0.32401 0.0
H930 H 0.11439 0.52678 0.28095 0.0
H931 H 0.07441 0.4787 0.28132 0.0
H932 H 0.11041 0.50222 0.30115 0.0
H933 H 1.00473 0.5489 0.27751 0.0
H934 H 0.96471 0.52546 0.29473 0.0
H935 H 0.96634 0.50058 0.27501 0.0
loop_
_geom_bond_atom_site_label_1
_geom_bond_atom_site_label_2
_geom_bond_distance
_geom_bond_site_symmetry_2
_ccdc_geom_bond_type
Ho0 C3 2.811 . S
Ho0 O20 2.322 . S
Ho0 O22 2.378 . S
Ho0 O23 2.524 . S
Ho0 O24 2.381 . S
Ho0 O25 2.669 . S
Ho0 O27 2.346 1_455 S
Ho0 O31 2.305 . S
Ho1 C12 2.811 . S
Ho1 O21 2.346 1_655 S
Ho1 O25 2.305 1_655 S
Ho1 O26 2.322 . S
Ho1 O28 2.378 . S
Ho1 O29 2.524 . S
Ho1 O30 2.381 . S
Ho1 O31 2.669 1_655 S
C2 O20 1.259 . S
C2 O21 1.268 . S
C3 Ho0 2.811 . S
C3 C4 1.488 . S
C3 O22 1.215 . S
C3 O23 1.289 . S
C4 C3 1.488 . S
C4 C5 1.348 . S
C4 C9 1.413 . S
C5 C4 1.348 . S
C5 C6 1.442 . S
C5 H32 0.930 . S
C6 C5 1.442 . S
C6 C7 1.381 . S
C6 H33 0.931 . S
C7 C6 1.381 . S
C7 C8 1.321 . S
C8 C7 1.321 . S
C8 C9 1.403 . S
C8 H34 0.934 . S
C9 C4 1.413 . S
C9 C8 1.403 . S
C9 H35 0.930 . S
C10 O24 1.275 . S
C10 O25 1.256 . S
C11 O26 1.259 . S
C11 O27 1.268 . S
C12 Ho1 2.811 . S
C12 C13 1.488 . S
C12 O28 1.215 . S
C12 O29 1.289 . S
C13 C12 1.488 . S
C13 C14 1.348 . S
C13 C18 1.413 . S
C14 C13 1.348 . S
C14 C15 1.442 . S
C14 H36 0.930 . S
C15 C14 1.442 . S
C15 C16 1.381 . S
C15 H37 0.931 . S
C16 C15 1.381 . S
C16 C17 1.321 . S
C17 C16 1.321 . S
C17 C18 1.403 . S
C17 H38 0.934 . S
C18 C13 1.413 . S
C18 C17 1.403 . S
C18 H39 0.930 . S
C19 O30 1.275 1_455 S
C19 O31 1.256 . S
O20 Ho0 2.322 . S
O20 C2 1.259 . S
O21 Ho1 2.346 1_455 S
O21 C2 1.268 . S
O22 Ho0 2.378 . S
O22 C3 1.215 . S
O23 Ho0 2.524 . S
O23 C3 1.289 . S
O24 Ho0 2.381 . S
O24 C10 1.275 . S
O25 Ho0 2.669 . S
O25 Ho1 2.305 1_455 S
O25 C10 1.256 . S
O26 Ho1 2.322 . S
O26 C11 1.259 . S
O27 Ho0 2.346 1_655 S
O27 C11 1.268 . S
O28 Ho1 2.378 . S
O28 C12 1.215 . S
O29 Ho1 2.524 . S
O29 C12 1.289 . S
O30 Ho1 2.381 . S
O30 C19 1.275 1_655 S
O31 Ho0 2.305 . S
O31 Ho1 2.669 1_455 S
O31 C19 1.256 . S
H32 C5 0.930 . S
H33 C6 0.931 . S
H34 C8 0.934 . S
H35 C9 0.930 . S
H36 C14 0.930 . S
H37 C15 0.931 . S
H38 C17 0.934 . S
H39 C18 0.930 . S
Ho40 C43 2.811 . S
Ho40 O60 2.322 . S
Ho40 O62 2.378 . S
Ho40 O63 2.524 . S
Ho40 O64 2.381 . S
Ho40 O65 2.669 1_565 S
Ho40 O67 2.346 1_565 S
Ho40 O71 2.291 1_565 S
Ho41 C52 2.811 . S
Ho41 O61 2.346 1_545 S
Ho41 O65 2.305 . S
Ho41 O66 2.322 . S
Ho41 O68 2.378 . S
Ho41 O69 2.524 . S
Ho41 O70 2.381 . S
Ho41 O71 2.690 . S
C42 O60 1.259 . S
C42 O61 1.268 . S
C43 Ho40 2.811 . S
C43 C44 1.488 . S
C43 O62 1.215 . S
C43 O63 1.289 . S
C44 C43 1.488 . S
C44 C45 1.348 . S
C44 C49 1.413 . S
C45 C44 1.348 . S
C45 C46 1.442 . S
C45 H72 0.930 . S
C46 C45 1.442 . S
C46 C47 1.381 . S
C46 H73 0.931 . S
C47 C46 1.381 . S
C47 C48 1.321 . S
C48 C47 1.321 . S
C48 C49 1.403 . S
C48 H74 0.934 . S
C49 C44 1.413 . S
C49 C48 1.403 . S
C49 H75 0.930 . S
C50 O64 1.275 1_545 S
C50 O65 1.256 . S
C51 O66 1.259 . S
C51 O67 1.268 . S
C52 Ho41 2.811 . S
C52 C53 1.488 . S
C52 O68 1.215 . S
C52 O69 1.289 . S
C53 C52 1.488 . S
C53 C54 1.348 . S
C53 C58 1.413 . S
C54 C53 1.348 . S
C54 C55 1.442 . S
C54 H76 0.930 . S
C55 C54 1.442 . S
C55 C56 1.381 . S
C55 H77 0.931 . S
C56 C55 1.381 . S
C56 C57 1.321 . S
C57 C56 1.321 . S
C57 C58 1.403 . S
C57 H78 0.934 . S
C58 C53 1.413 . S
C58 C57 1.403 . S
C58 H79 0.930 . S
C59 O70 1.275 . S
C59 O71 1.268 . S
O60 Ho40 2.322 . S
O60 C42 1.259 . S
O61 Ho41 2.346 1_565 S
O61 C42 1.268 . S
O62 Ho40 2.378 . S
O62 C43 1.215 . S
O63 Ho40 2.524 . S
O63 C43 1.289 . S
O64 Ho40 2.381 . S
O64 C50 1.275 1_565 S
O65 Ho40 2.669 1_545 S
O65 Ho41 2.305 . S
O65 C50 1.256 . S
O66 Ho41 2.322 . S
O66 C51 1.259 . S
O67 Ho40 2.346 1_545 S
O67 C51 1.268 . S
O68 Ho41 2.378 . S
O68 C52 1.215 . S
O69 Ho41 2.524 . S
O69 C52 1.289 . S
O70 Ho41 2.381 . S
O70 C59 1.275 . S
O71 Ho40 2.291 1_545 S
O71 Ho41 2.690 . S
O71 C59 1.268 . S
H72 C45 0.930 . S
H73 C46 0.931 . S
H74 C48 0.934 . S
H75 C49 0.930 . S
H76 C54 0.930 . S
H77 C55 0.931 . S
H78 C57 0.934 . S
H79 C58 0.930 . S
Ho80 C83 2.811 . S
Ho80 O100 2.322 . S
Ho80 O102 2.378 . S
Ho80 O103 2.524 . S
Ho80 O104 2.381 . S
Ho80 O105 2.669 . S
Ho80 O107 2.346 . S
Ho80 O111 2.305 . S
Ho81 C92 2.811 . S
Ho81 O101 2.346 . S
Ho81 O105 2.305 . S
Ho81 O106 2.322 . S
Ho81 O108 2.378 . S
Ho81 O109 2.524 . S
Ho81 O110 2.381 . S
Ho81 O111 2.669 . S
C82 O100 1.259 . S
C82 O101 1.268 . S
C83 Ho80 2.811 . S
C83 C84 1.488 . S
C83 O102 1.215 . S
C83 O103 1.289 . S
C84 C83 1.488 . S
C84 C85 1.348 . S
C84 C89 1.413 . S
C85 C84 1.348 . S
C85 C86 1.442 . S
C85 H112 0.930 . S
C86 C85 1.442 . S
C86 C87 1.381 . S
C86 H113 0.931 . S
C87 C86 1.381 . S
C87 C88 1.321 . S
C88 C87 1.321 . S
C88 C89 1.403 . S
C88 H114 0.934 . S
C89 C84 1.413 . S
C89 C88 1.403 . S
C89 H115 0.930 . S
C90 O104 1.275 . S
C90 O105 1.256 . S
C91 O106 1.259 . S
C91 O107 1.268 . S
C92 Ho81 2.811 . S
C92 C93 1.488 . S
C92 O108 1.215 . S
C92 O109 1.289 . S
C93 C92 1.488 . S
C93 C94 1.348 . S
C93 C98 1.413 . S
C94 C93 1.348 . S
C94 C95 1.442 . S
C94 H116 0.930 . S
C95 C94 1.442 . S
C95 C96 1.381 . S
C95 H117 0.931 . S
C96 C95 1.381 . S
C96 C97 1.321 . S
C97 C96 1.321 . S
C97 C98 1.403 . S
C97 H118 0.934 . S
C98 C93 1.413 . S
C98 C97 1.403 . S
C98 H119 0.930 . S
C99 O110 1.275 . S
C99 O111 1.256 . S
O100 Ho80 2.322 . S
O100 C82 1.259 . S
O101 Ho81 2.346 . S
O101 C82 1.268 . S
O102 Ho80 2.378 . S
O102 C83 1.215 . S
O103 Ho80 2.524 . S
O103 C83 1.289 . S
O104 Ho80 2.381 . S
O104 C90 1.275 . S
O105 Ho80 2.669 . S
O105 Ho81 2.305 . S
O105 C90 1.256 . S
O106 Ho81 2.322 . S
O106 C91 1.259 . S
O107 Ho80 2.346 . S
O107 C91 1.268 . S
O108 Ho81 2.378 . S
O108 C92 1.215 . S
O109 Ho81 2.524 . S
O109 C92 1.289 . S
O110 Ho81 2.381 . S
O110 C99 1.275 . S
O111 Ho80 2.305 . S
O111 Ho81 2.669 . S
O111 C99 1.256 . S
H112 C85 0.930 . S
H113 C86 0.931 . S
H114 C88 0.934 . S
H115 C89 0.930 . S
H116 C94 0.930 . S
H117 C95 0.931 . S
H118 C97 0.934 . S
H119 C98 0.930 . S
C120 C121 1.264 . S
C120 C125 1.479 . S
C120 C130 1.465 . S
C121 C120 1.264 . S
C121 C123 1.339 . S
C121 H148 0.931 . S
C122 C123 1.395 . S
C122 C124 1.320 . S
C123 C121 1.339 . S
C123 C122 1.395 . S
C123 H149 0.929 . S
C124 C122 1.320 . S
C124 C125 1.405 . S
C124 H150 0.930 . S
C125 C120 1.479 . S
C125 C124 1.405 . S
C125 H151 0.931 . S
U126 O127 2.454 1_545 S
U126 O128 2.458 1_545 S
U126 C129 2.984 1_545 S
U126 C130 2.847 . S
U126 C143 2.882 . S
U126 O144 2.441 . S
U126 O145 2.420 . S
U126 O146 2.455 1_545 S
U126 O147 2.449 . S
O127 U126 2.454 1_565 S
O127 C129 1.353 . S
O128 U126 2.458 1_565 S
O128 C129 1.286 . S
C129 U126 2.984 1_565 S
C129 O127 1.353 . S
C129 O128 1.286 . S
C129 C131 1.363 . S
C130 C120 1.465 . S
C130 U126 2.847 . S
C130 O144 1.249 . S
C130 O145 1.202 . S
C131 C129 1.363 . S
C131 C133 1.408 . S
C131 C136 1.342 . S
C132 C133 1.310 . S
C132 C135 1.461 . S
C132 H152 0.932 . S
C133 C131 1.408 . S
C133 C132 1.310 . S
C133 H153 0.930 . S
C134 C135 1.474 . S
C134 C136 1.285 . S
C134 H154 0.929 . S
C135 C132 1.461 . S
C135 C134 1.474 . S
C136 C131 1.342 . S
C136 C134 1.285 . S
C136 H155 0.930 . S
C137 C140 1.424 . S
C137 C142 1.245 1_545 S
C137 C143 1.428 . S
C138 C141 1.259 . S
C138 C142 1.477 1_545 S
C138 H156 0.933 1_545 S
C139 C140 1.384 . S
C139 C141 1.479 . S
C139 H157 0.929 . S
C140 C137 1.424 . S
C140 C139 1.384 . S
C140 H158 0.928 . S
C141 C138 1.259 . S
C141 C139 1.479 . S
C142 C137 1.245 1_565 S
C142 C138 1.477 1_565 S
C142 H159 0.932 . S
C143 U126 2.882 . S
C143 C137 1.428 . S
C143 O146 1.301 1_545 S
C143 O147 1.282 . S
O144 U126 2.441 . S
O144 C130 1.249 . S
O145 U126 2.420 . S
O145 C130 1.202 . S
O146 U126 2.455 1_565 S
O146 C143 1.301 1_565 S
O147 U126 2.449 . S
O147 C143 1.282 . S
H148 C121 0.931 . S
H149 C123 0.929 . S
H150 C124 0.930 . S
H151 C125 0.931 . S
H152 C132 0.932 . S
H153 C133 0.930 . S
H154 C134 0.929 . S
H155 C136 0.930 . S
H156 C138 0.933 1_565 S
H157 C139 0.929 . S
H158 C140 0.928 . S
H159 C142 0.932 . S
C160 C161 1.264 . S
C160 C165 1.479 . S
C160 C170 1.465 . S
C161 C160 1.264 . S
C161 C163 1.339 . S
C161 H188 0.931 . S
C162 C163 1.395 . S
C162 C164 1.320 . S
C163 C161 1.339 . S
C163 C162 1.395 . S
C163 H189 0.929 . S
C164 C162 1.320 . S
C164 C165 1.405 . S
C164 H190 0.930 . S
C165 C160 1.479 . S
C165 C164 1.405 . S
C165 H191 0.931 . S
U166 O167 2.454 . S
U166 O168 2.458 . S
U166 C169 2.984 . S
U166 C170 2.847 . S
U166 C183 2.882 . S
U166 O184 2.441 . S
U166 O185 2.420 . S
U166 O186 2.455 . S
U166 O187 2.449 . S
O167 U166 2.454 . S
O167 C169 1.353 . S
O168 U166 2.458 . S
O168 C169 1.286 . S
C169 U166 2.984 . S
C169 O167 1.353 . S
C169 O168 1.286 . S
C169 C171 1.363 . S
C170 C160 1.465 . S
C170 U166 2.847 . S
C170 O184 1.249 . S
C170 O185 1.202 . S
C171 C169 1.363 . S
C171 C173 1.408 . S
C171 C176 1.342 . S
C172 C173 1.310 . S
C172 C175 1.461 . S
C172 H192 0.932 . S
C173 C171 1.408 . S
C173 C172 1.310 . S
C173 H193 0.930 . S
C174 C175 1.474 . S
C174 C176 1.285 . S
C174 H194 0.929 . S
C175 C172 1.461 . S
C175 C174 1.474 . S
C176 C171 1.342 . S
C176 C174 1.285 . S
C176 H195 0.930 . S
C177 C180 1.424 . S
C177 C182 1.245 . S
C177 C183 1.428 . S
C178 C181 1.260 . S
C178 C182 1.477 . S
C178 H196 0.932 . S
C179 C180 1.384 . S
C179 C181 1.479 . S
C179 H197 0.929 . S
C180 C177 1.424 . S
C180 C179 1.384 . S
C180 H198 0.928 . S
C181 C178 1.260 . S
C181 C179 1.479 . S
C182 C177 1.245 . S
C182 C178 1.477 . S
C182 H199 0.932 . S
C183 U166 2.882 . S
C183 C177 1.428 . S
C183 O186 1.301 . S
C183 O187 1.282 . S
O184 U166 2.441 . S
O184 C170 1.249 . S
O185 U166 2.420 . S
O185 C170 1.202 . S
O186 U166 2.455 . S
O186 C183 1.301 . S
O187 U166 2.449 . S
O187 C183 1.282 . S
H188 C161 0.931 . S
H189 C163 0.929 . S
H190 C164 0.930 . S
H191 C165 0.931 . S
H192 C172 0.932 . S
H193 C173 0.930 . S
H194 C174 0.929 . S
H195 C176 0.930 . S
H196 C178 0.932 . S
H197 C179 0.929 . S
H198 C180 0.928 . S
H199 C182 0.932 . S
C200 C201 1.264 . S
C200 C205 1.479 . S
C200 C210 1.465 . S
C201 C200 1.264 . S
C201 C203 1.339 . S
C201 H228 0.931 . S
C202 C203 1.395 . S
C202 C204 1.320 . S
C203 C201 1.339 . S
C203 C202 1.395 . S
C203 H229 0.929 . S
C204 C202 1.320 . S
C204 C205 1.405 . S
C204 H230 0.930 . S
C205 C200 1.479 . S
C205 C204 1.405 . S
C205 H231 0.931 . S
U206 O207 2.454 . S
U206 O208 2.458 . S
U206 C209 2.984 . S
U206 C210 2.847 1_455 S
U206 C223 2.882 . S
U206 O224 2.441 . S
U206 O225 2.420 1_455 S
U206 O226 2.455 . S
U206 O227 2.449 . S
O207 U206 2.454 . S
O207 C209 1.353 . S
O208 U206 2.458 . S
O208 C209 1.286 . S
C209 U206 2.984 . S
C209 O207 1.353 . S
C209 O208 1.286 . S
C209 C211 1.363 . S
C210 C200 1.465 . S
C210 U206 2.847 1_655 S
C210 O224 1.249 1_655 S
C210 O225 1.202 . S
C211 C209 1.363 . S
C211 C213 1.408 . S
C211 C216 1.342 . S
C212 C213 1.310 . S
C212 C215 1.461 . S
C212 H232 0.932 . S
C213 C211 1.408 . S
C213 C212 1.310 . S
C213 H233 0.930 . S
C214 C215 1.474 . S
C214 C216 1.285 . S
C214 H234 0.929 . S
C215 C212 1.461 . S
C215 C214 1.474 . S
C216 C211 1.342 . S
C216 C214 1.285 . S
C216 H235 0.930 . S
C217 C220 1.424 . S
C217 C222 1.245 . S
C217 C223 1.428 . S
C218 C221 1.260 . S
C218 C222 1.477 . S
C218 H236 0.932 . S
C219 C220 1.384 . S
C219 C221 1.479 . S
C219 H237 0.929 1_455 S
C220 C217 1.424 . S
C220 C219 1.384 . S
C220 H238 0.928 1_455 S
C221 C218 1.260 . S
C221 C219 1.479 . S
C222 C217 1.245 . S
C222 C218 1.477 . S
C222 H239 0.932 . S
C223 U206 2.882 . S
C223 C217 1.428 . S
C223 O226 1.301 . S
C223 O227 1.282 . S
O224 U206 2.441 . S
O224 C210 1.249 1_455 S
O225 U206 2.420 1_655 S
O225 C210 1.202 . S
O226 U206 2.455 . S
O226 C223 1.301 . S
O227 U206 2.449 . S
O227 C223 1.282 . S
H228 C201 0.931 . S
H229 C203 0.929 . S
H230 C204 0.930 . S
H231 C205 0.931 . S
H232 C212 0.932 . S
H233 C213 0.930 . S
H234 C214 0.929 . S
H235 C216 0.930 . S
H236 C218 0.932 . S
H237 C219 0.929 1_655 S
H238 C220 0.928 1_655 S
H239 C222 0.932 . S
C240 C241 1.264 . S
C240 C245 1.479 . S
C240 C250 1.465 . S
C241 C240 1.264 . S
C241 C243 1.339 . S
C241 H268 0.931 . S
C242 C243 1.395 . S
C242 C244 1.320 . S
C243 C241 1.339 . S
C243 C242 1.395 . S
C243 H269 0.929 . S
C244 C242 1.320 . S
C244 C245 1.405 . S
C244 H270 0.930 . S
C245 C240 1.479 . S
C245 C244 1.405 . S
C245 H271 0.931 . S
U246 O247 2.454 1_655 S
U246 O248 2.458 1_655 S
U246 C249 2.984 1_655 S
U246 C250 2.847 . S
U246 C263 2.882 . S
U246 O264 2.441 . S
U246 O265 2.420 . S
U246 O266 2.455 1_655 S
U246 O267 2.449 . S
O247 U246 2.454 1_455 S
O247 C249 1.353 . S
O248 U246 2.458 1_455 S
O248 C249 1.286 . S
C249 U246 2.984 1_455 S
C249 O247 1.353 . S
C249 O248 1.286 . S
C249 C251 1.363 . S
C250 C240 1.465 . S
C250 U246 2.847 . S
C250 O264 1.249 . S
C250 O265 1.202 . S
C251 C249 1.363 . S
C251 C253 1.408 . S
C251 C256 1.342 . S
C252 C253 1.310 . S
C252 C255 1.461 . S
C252 H272 0.932 . S
C253 C251 1.408 . S
C253 C252 1.310 . S
C253 H273 0.930 . S
C254 C255 1.474 . S
C254 C256 1.285 . S
C254 H274 0.929 . S
C255 C252 1.461 . S
C255 C254 1.474 . S
C256 C251 1.342 . S
C256 C254 1.285 . S
C256 H275 0.930 . S
C257 C260 1.424 . S
C257 C262 1.245 1_655 S
C257 C263 1.428 . S
C258 C261 1.260 1_455 S
C258 C262 1.477 . S
C258 H276 0.932 . S
C259 C260 1.384 . S
C259 C261 1.479 . S
C259 H277 0.929 . S
C260 C257 1.424 . S
C260 C259 1.384 . S
C260 H278 0.928 . S
C261 C258 1.260 1_655 S
C261 C259 1.479 . S
C262 C257 1.245 1_455 S
C262 C258 1.477 . S
C262 H279 0.932 . S
C263 U246 2.882 . S
C263 C257 1.428 . S
C263 O266 1.301 1_655 S
C263 O267 1.282 . S
O264 U246 2.441 . S
O264 C250 1.249 . S
O265 U246 2.420 . S
O265 C250 1.202 . S
O266 U246 2.455 1_455 S
O266 C263 1.301 1_455 S
O267 U246 2.449 . S
O267 C263 1.282 . S
H268 C241 0.931 . S
H269 C243 0.929 . S
H270 C244 0.930 . S
H271 C245 0.931 . S
H272 C252 0.932 . S
H273 C253 0.930 . S
H274 C254 0.929 . S
H275 C256 0.930 . S
H276 C258 0.932 . S
H277 C259 0.929 . S
H278 C260 0.928 . S
H279 C262 0.932 . S
C280 C281 1.264 . S
C280 C285 1.479 . S
C280 C290 1.465 . S
C281 C280 1.264 . S
C281 C283 1.339 . S
C281 H308 0.931 . S
C282 C283 1.395 . S
C282 C284 1.320 . S
C283 C281 1.339 . S
C283 C282 1.395 . S
C283 H309 0.929 . S
C284 C282 1.320 . S
C284 C285 1.405 . S
C284 H310 0.930 . S
C285 C280 1.479 . S
C285 C284 1.405 . S
C285 H311 0.931 . S
U286 O287 2.454 1_565 S
U286 O288 2.458 1_565 S
U286 C289 2.984 1_565 S
U286 C290 2.847 . S
U286 C303 2.882 . S
U286 O304 2.441 . S
U286 O305 2.420 . S
U286 O306 2.455 1_565 S
U286 O307 2.449 . S
O287 U286 2.454 1_545 S
O287 C289 1.353 . S
O288 U286 2.458 1_545 S
O288 C289 1.286 . S
C289 U286 2.984 1_545 S
C289 O287 1.353 . S
C289 O288 1.286 . S
C289 C291 1.363 . S
C290 C280 1.465 . S
C290 U286 2.847 . S
C290 O304 1.249 . S
C290 O305 1.202 . S
C291 C289 1.363 . S
C291 C293 1.408 . S
C291 C296 1.342 . S
C292 C293 1.310 . S
C292 C295 1.461 . S
C292 H312 0.932 . S
C293 C291 1.408 . S
C293 C292 1.310 . S
C293 H313 0.930 . S
C294 C295 1.474 . S
C294 C296 1.285 . S
C294 H314 0.929 . S
C295 C292 1.461 . S
C295 C294 1.474 . S
C296 C291 1.342 . S
C296 C294 1.285 . S
C296 H315 0.930 . S
C297 C300 1.424 . S
C297 C302 1.245 1_565 S
C297 C303 1.428 . S
C298 C301 1.260 1_545 S
C298 C302 1.477 . S
C298 H316 0.932 . S
C299 C300 1.384 . S
C299 C301 1.479 . S
C299 H317 0.929 . S
C300 C297 1.424 . S
C300 C299 1.384 . S
C300 H318 0.928 . S
C301 C298 1.260 1_565 S
C301 C299 1.479 . S
C302 C297 1.245 1_545 S
C302 C298 1.477 . S
C302 H319 0.932 . S
C303 U286 2.882 . S
C303 C297 1.428 . S
C303 O306 1.301 1_565 S
C303 O307 1.282 . S
O304 U286 2.441 . S
O304 C290 1.249 . S
O305 U286 2.420 . S
O305 C290 1.202 . S
O306 U286 2.455 1_545 S
O306 C303 1.301 1_545 S
O307 U286 2.449 . S
O307 C303 1.282 . S
H308 C281 0.931 . S
H309 C283 0.929 . S
H310 C284 0.930 . S
H311 C285 0.931 . S
H312 C292 0.932 . S
H313 C293 0.930 . S
H314 C294 0.929 . S
H315 C296 0.930 . S
H316 C298 0.932 . S
H317 C299 0.929 . S
H318 C300 0.928 . S
H319 C302 0.932 . S
C320 C321 1.264 . S
C320 C325 1.479 . S
C320 C330 1.465 . S
C321 C320 1.264 . S
C321 C323 1.339 . S
C321 H348 0.931 . S
C322 C323 1.395 . S
C322 C324 1.320 . S
C323 C321 1.339 . S
C323 C322 1.395 . S
C323 H349 0.929 . S
C324 C322 1.320 . S
C324 C325 1.405 . S
C324 H350 0.930 . S
C325 C320 1.479 . S
C325 C324 1.405 . S
C325 H351 0.931 . S
U326 O327 2.454 . S
U326 O328 2.458 . S
U326 C329 2.984 . S
U326 C330 2.847 . S
U326 C343 2.882 . S
U326 O344 2.441 . S
U326 O345 2.420 . S
U326 O346 2.455 . S
U326 O347 2.449 . S
O327 U326 2.454 . S
O327 C329 1.353 . S
O328 U326 2.458 . S
O328 C329 1.286 . S
C329 U326 2.984 . S
C329 O327 1.353 . S
C329 O328 1.286 . S
C329 C331 1.363 . S
C330 C320 1.465 . S
C330 U326 2.847 . S
C330 O344 1.249 . S
C330 O345 1.202 . S
C331 C329 1.363 . S
C331 C333 1.408 . S
C331 C336 1.342 . S
C332 C333 1.310 . S
C332 C335 1.461 . S
C332 H352 0.932 . S
C333 C331 1.408 . S
C333 C332 1.310 . S
C333 H353 0.930 . S
C334 C335 1.474 . S
C334 C336 1.285 . S
C334 H354 0.929 . S
C335 C332 1.461 . S
C335 C334 1.474 . S
C336 C331 1.342 . S
C336 C334 1.285 . S
C336 H355 0.930 . S
C337 C340 1.424 . S
C337 C342 1.245 . S
C337 C343 1.428 . S
C338 C341 1.260 1_554 S
C338 C342 1.477 . S
C338 H356 0.936 1_554 S
C339 C340 1.384 . S
C339 C341 1.479 1_554 S
C339 H357 0.929 . S
C340 C337 1.424 . S
C340 C339 1.384 . S
C340 H358 0.928 . S
C341 C338 1.260 1_556 S
C341 C339 1.479 1_556 S
C342 C337 1.245 . S
C342 C338 1.477 . S
C342 H359 0.932 . S
C343 U326 2.882 . S
C343 C337 1.428 . S
C343 O346 1.301 . S
C343 O347 1.282 . S
O344 U326 2.441 . S
O344 C330 1.249 . S
O345 U326 2.420 . S
O345 C330 1.202 . S
O346 U326 2.455 . S
O346 C343 1.301 . S
O347 U326 2.449 . S
O347 C343 1.282 . S
H348 C321 0.931 . S
H349 C323 0.929 . S
H350 C324 0.930 . S
H351 C325 0.931 . S
H352 C332 0.932 . S
H353 C333 0.930 . S
H354 C334 0.929 . S
H355 C336 0.930 . S
H356 C338 0.936 1_556 S
H357 C339 0.929 . S
H358 C340 0.928 . S
H359 C342 0.932 . S
C360 C361 1.391 . S
C360 C362 1.394 . S
C360 H376 0.931 . S
C361 C360 1.391 . S
C361 C365 1.376 . S
C362 C360 1.394 . S
C362 C363 1.369 . S
C362 C366 1.531 . S
C363 C362 1.369 . S
C363 C364 1.410 . S
C363 C371 1.503 . S
C364 C363 1.410 . S
C364 C365 1.392 . S
C364 C367 1.511 . S
C365 C361 1.376 . S
C365 C364 1.392 . S
C365 H377 0.929 . S
C366 C362 1.531 . S
C366 H378 0.960 . S
C366 H379 0.962 . S
C366 H380 0.960 . S
C367 C364 1.511 . S
C367 H381 0.961 . S
C367 H382 0.961 . S
C367 H383 0.961 . S
C368 C369 1.370 . S
C368 C370 1.363 . S
C368 H384 0.931 . S
C369 C368 1.370 . S
C369 C373 1.408 . S
C370 C368 1.363 . S
C370 C371 1.370 . S
C370 C374 1.524 . S
C371 C363 1.503 . S
C371 C370 1.370 . S
C371 C372 1.403 . S
C372 C371 1.403 . S
C372 C373 1.404 . S
C372 C375 1.539 . S
C373 C369 1.408 . S
C373 C372 1.404 . S
C373 H385 0.930 . S
C374 C370 1.524 . S
C374 H386 0.956 . S
C374 H387 0.961 . S
C374 H388 0.961 . S
C375 C372 1.539 . S
C375 H389 0.958 . S
C375 H390 0.961 . S
C375 H391 0.960 . S
H376 C360 0.931 . S
H377 C365 0.929 . S
H378 C366 0.960 . S
H379 C366 0.962 . S
H380 C366 0.960 . S
H381 C367 0.961 . S
H382 C367 0.961 . S
H383 C367 0.961 . S
H384 C368 0.931 . S
H385 C373 0.930 . S
H386 C374 0.956 . S
H387 C374 0.961 . S
H388 C374 0.961 . S
H389 C375 0.958 . S
H390 C375 0.961 . S
H391 C375 0.960 . S
C392 C393 1.391 . S
C392 C394 1.394 . S
C392 H408 0.931 . S
C393 C392 1.391 . S
C393 C397 1.376 . S
C394 C392 1.394 . S
C394 C395 1.369 . S
C394 C398 1.531 . S
C395 C394 1.369 . S
C395 C396 1.410 . S
C395 C403 1.503 . S
C396 C395 1.410 . S
C396 C397 1.392 . S
C396 C399 1.511 . S
C397 C393 1.376 . S
C397 C396 1.392 . S
C397 H409 0.929 . S
C398 C394 1.531 . S
C398 H410 0.960 . S
C398 H411 0.962 . S
C398 H412 0.960 . S
C399 C396 1.511 . S
C399 H413 0.961 . S
C399 H414 0.961 . S
C399 H415 0.961 . S
C400 C401 1.370 . S
C400 C402 1.363 . S
C400 H416 0.931 . S
C401 C400 1.370 . S
C401 C405 1.408 . S
C402 C400 1.363 . S
C402 C403 1.370 . S
C402 C406 1.524 . S
C403 C395 1.503 . S
C403 C402 1.370 . S
C403 C404 1.403 . S
C404 C403 1.403 . S
C404 C405 1.404 . S
C404 C407 1.539 . S
C405 C401 1.408 . S
C405 C404 1.404 . S
C405 H417 0.930 . S
C406 C402 1.524 . S
C406 H418 0.956 . S
C406 H419 0.961 . S
C406 H420 0.961 . S
C407 C404 1.539 . S
C407 H421 0.958 . S
C407 H422 0.961 . S
C407 H423 0.960 . S
H408 C392 0.931 . S
H409 C397 0.929 . S
H410 C398 0.960 . S
H411 C398 0.962 . S
H412 C398 0.960 . S
H413 C399 0.961 . S
H414 C399 0.961 . S
H415 C399 0.961 . S
H416 C400 0.931 . S
H417 C405 0.930 . S
H418 C406 0.956 . S
H419 C406 0.961 . S
H420 C406 0.961 . S
H421 C407 0.958 . S
H422 C407 0.961 . S
H423 C407 0.960 . S
C424 C425 1.391 . S
C424 C426 1.394 . S
C424 H440 0.931 . S
C425 C424 1.391 . S
C425 C429 1.376 . S
C426 C424 1.394 . S
C426 C427 1.369 . S
C426 C430 1.531 . S
C427 C426 1.369 . S
C427 C428 1.410 . S
C427 C435 1.503 . S
C428 C427 1.410 . S
C428 C429 1.392 . S
C428 C431 1.511 . S
C429 C425 1.376 . S
C429 C428 1.392 . S
C429 H441 0.929 . S
C430 C426 1.531 . S
C430 H442 0.960 . S
C430 H443 0.962 . S
C430 H444 0.960 . S
C431 C428 1.511 . S
C431 H445 0.961 . S
C431 H446 0.961 . S
C431 H447 0.961 . S
C432 C433 1.370 . S
C432 C434 1.363 . S
C432 H448 0.931 . S
C433 C432 1.370 . S
C433 C437 1.408 . S
C434 C432 1.363 . S
C434 C435 1.370 . S
C434 C438 1.524 . S
C435 C427 1.503 . S
C435 C434 1.370 . S
C435 C436 1.403 . S
C436 C435 1.403 . S
C436 C437 1.404 . S
C436 C439 1.539 . S
C437 C433 1.408 . S
C437 C436 1.404 . S
C437 H449 0.930 . S
C438 C434 1.524 . S
C438 H450 0.956 . S
C438 H451 0.961 . S
C438 H452 0.961 . S
C439 C436 1.539 . S
C439 H453 0.958 . S
C439 H454 0.961 . S
C439 H455 0.960 . S
H440 C424 0.931 . S
H441 C429 0.929 . S
H442 C430 0.960 . S
H443 C430 0.962 . S
H444 C430 0.960 . S
H445 C431 0.961 . S
H446 C431 0.961 . S
H447 C431 0.961 . S
H448 C432 0.931 . S
H449 C437 0.930 . S
H450 C438 0.956 . S
H451 C438 0.961 . S
H452 C438 0.961 . S
H453 C439 0.958 . S
H454 C439 0.961 . S
H455 C439 0.960 . S
C456 C457 1.391 . S
C456 C458 1.394 . S
C456 H472 0.931 . S
C457 C456 1.391 . S
C457 C461 1.376 . S
C458 C456 1.394 . S
C458 C459 1.369 . S
C458 C462 1.531 . S
C459 C458 1.369 . S
C459 C460 1.410 . S
C459 C467 1.503 . S
C460 C459 1.410 . S
C460 C461 1.392 . S
C460 C463 1.511 . S
C461 C457 1.376 . S
C461 C460 1.392 . S
C461 H473 0.929 . S
C462 C458 1.531 . S
C462 H474 0.960 . S
C462 H475 0.962 . S
C462 H476 0.960 . S
C463 C460 1.511 . S
C463 H477 0.961 . S
C463 H478 0.961 . S
C463 H479 0.961 . S
C464 C465 1.370 . S
C464 C466 1.363 . S
C464 H480 0.931 . S
C465 C464 1.370 . S
C465 C469 1.408 . S
C466 C464 1.363 . S
C466 C467 1.370 . S
C466 C470 1.524 . S
C467 C459 1.503 . S
C467 C466 1.370 . S
C467 C468 1.403 . S
C468 C467 1.403 . S
C468 C469 1.404 . S
C468 C471 1.539 . S
C469 C465 1.408 . S
C469 C468 1.404 . S
C469 H481 0.930 . S
C470 C466 1.524 . S
C470 H482 0.956 . S
C470 H483 0.961 . S
C470 H484 0.961 . S
C471 C468 1.539 . S
C471 H485 0.958 . S
C471 H486 0.961 . S
C471 H487 0.960 . S
H472 C456 0.931 . S
H473 C461 0.929 . S
H474 C462 0.960 . S
H475 C462 0.962 . S
H476 C462 0.960 . S
H477 C463 0.961 . S
H478 C463 0.961 . S
H479 C463 0.961 . S
H480 C464 0.931 . S
H481 C469 0.930 . S
H482 C470 0.956 . S
H483 C470 0.961 . S
H484 C470 0.961 . S
H485 C471 0.958 . S
H486 C471 0.961 . S
H487 C471 0.960 . S
C488 C489 1.391 . S
C488 C490 1.394 . S
C488 H504 0.931 . S
C489 C488 1.391 . S
C489 C493 1.376 . S
C490 C488 1.394 . S
C490 C491 1.369 . S
C490 C494 1.531 . S
C491 C490 1.369 . S
C491 C492 1.410 . S
C491 C499 1.503 . S
C492 C491 1.410 . S
C492 C493 1.392 . S
C492 C495 1.511 . S
C493 C489 1.376 . S
C493 C492 1.392 . S
C493 H505 0.929 . S
C494 C490 1.531 . S
C494 H506 0.960 . S
C494 H507 0.962 . S
C494 H508 0.960 . S
C495 C492 1.511 . S
C495 H509 0.961 . S
C495 H510 0.961 . S
C495 H511 0.961 . S
C496 C497 1.370 . S
C496 C498 1.363 . S
C496 H512 0.931 . S
C497 C496 1.370 . S
C497 C501 1.408 . S
C498 C496 1.363 . S
C498 C499 1.370 . S
C498 C502 1.524 . S
C499 C491 1.503 . S
C499 C498 1.370 . S
C499 C500 1.403 . S
C500 C499 1.403 . S
C500 C501 1.404 . S
C500 C503 1.539 . S
C501 C497 1.408 . S
C501 C500 1.404 . S
C501 H513 0.930 . S
C502 C498 1.524 . S
C502 H514 0.956 . S
C502 H515 0.961 . S
C502 H516 0.961 . S
C503 C500 1.539 . S
C503 H517 0.958 . S
C503 H518 0.961 . S
C503 H519 0.960 . S
H504 C488 0.931 . S
H505 C493 0.929 . S
H506 C494 0.960 . S
H507 C494 0.962 . S
H508 C494 0.960 . S
H509 C495 0.961 . S
H510 C495 0.961 . S
H511 C495 0.961 . S
H512 C496 0.931 . S
H513 C501 0.930 . S
H514 C502 0.956 . S
H515 C502 0.961 . S
H516 C502 0.961 . S
H517 C503 0.958 . S
H518 C503 0.961 . S
H519 C503 0.960 . S
C520 C521 1.391 . S
C520 C522 1.394 . S
C520 H536 0.931 . S
C521 C520 1.391 . S
C521 C525 1.376 . S
C522 C520 1.394 . S
C522 C523 1.369 . S
C522 C526 1.531 . S
C523 C522 1.369 . S
C523 C524 1.410 . S
C523 C531 1.503 . S
C524 C523 1.410 . S
C524 C525 1.392 . S
C524 C527 1.511 . S
C525 C521 1.376 . S
C525 C524 1.392 . S
C525 H537 0.929 . S
C526 C522 1.531 . S
C526 H538 0.960 . S
C526 H539 0.962 . S
C526 H540 0.960 . S
C527 C524 1.511 . S
C527 H541 0.961 . S
C527 H542 0.961 . S
C527 H543 0.961 . S
C528 C529 1.370 . S
C528 C530 1.363 . S
C528 H544 0.931 . S
C529 C528 1.370 . S
C529 C533 1.408 . S
C530 C528 1.363 . S
C530 C531 1.370 . S
C530 C534 1.524 . S
C531 C523 1.503 . S
C531 C530 1.370 . S
C531 C532 1.403 . S
C532 C531 1.403 . S
C532 C533 1.404 . S
C532 C535 1.539 . S
C533 C529 1.408 . S
C533 C532 1.404 . S
C533 H545 0.930 . S
C534 C530 1.524 . S
C534 H546 0.956 . S
C534 H547 0.961 . S
C534 H548 0.961 . S
C535 C532 1.539 . S
C535 H549 0.958 . S
C535 H550 0.961 . S
C535 H551 0.960 . S
H536 C520 0.931 . S
H537 C525 0.929 . S
H538 C526 0.960 . S
H539 C526 0.962 . S
H540 C526 0.960 . S
H541 C527 0.961 . S
H542 C527 0.961 . S
H543 C527 0.961 . S
H544 C528 0.931 . S
H545 C533 0.930 . S
H546 C534 0.956 . S
H547 C534 0.961 . S
H548 C534 0.961 . S
H549 C535 0.958 . S
H550 C535 0.961 . S
H551 C535 0.960 . S
C552 C553 1.391 . S
C552 C554 1.394 . S
C552 H568 0.931 . S
C553 C552 1.391 . S
C553 C557 1.376 . S
C554 C552 1.394 . S
C554 C555 1.369 . S
C554 C558 1.531 . S
C555 C554 1.369 . S
C555 C556 1.410 . S
C555 C563 1.503 . S
C556 C555 1.410 . S
C556 C557 1.392 . S
C556 C559 1.511 . S
C557 C553 1.376 . S
C557 C556 1.392 . S
C557 H569 0.929 . S
C558 C554 1.531 . S
C558 H570 0.960 . S
C558 H571 0.962 . S
C558 H572 0.960 . S
C559 C556 1.511 . S
C559 H573 0.961 . S
C559 H574 0.961 . S
C559 H575 0.961 . S
C560 C561 1.370 . S
C560 C562 1.363 . S
C560 H576 0.931 . S
C561 C560 1.370 . S
C561 C565 1.408 . S
C562 C560 1.363 . S
C562 C563 1.370 . S
C562 C566 1.524 . S
C563 C555 1.503 . S
C563 C562 1.370 . S
C563 C564 1.403 . S
C564 C563 1.403 . S
C564 C565 1.404 . S
C564 C567 1.539 . S
C565 C561 1.408 . S
C565 C564 1.404 . S
C565 H577 0.930 . S
C566 C562 1.524 . S
C566 H578 0.956 . S
C566 H579 0.961 . S
C566 H580 0.961 . S
C567 C564 1.539 . S
C567 H581 0.958 . S
C567 H582 0.961 . S
C567 H583 0.960 . S
H568 C552 0.931 . S
H569 C557 0.929 . S
H570 C558 0.960 . S
H571 C558 0.962 . S
H572 C558 0.960 . S
H573 C559 0.961 . S
H574 C559 0.961 . S
H575 C559 0.961 . S
H576 C560 0.931 . S
H577 C565 0.930 . S
H578 C566 0.956 . S
H579 C566 0.961 . S
H580 C566 0.961 . S
H581 C567 0.958 . S
H582 C567 0.961 . S
H583 C567 0.960 . S
C584 C585 1.391 . S
C584 C586 1.394 . S
C584 H600 0.931 . S
C585 C584 1.391 . S
C585 C589 1.376 . S
C586 C584 1.394 . S
C586 C587 1.369 . S
C586 C590 1.531 . S
C587 C586 1.369 . S
C587 C588 1.410 . S
C587 C595 1.503 . S
C588 C587 1.410 . S
C588 C589 1.392 . S
C588 C591 1.511 . S
C589 C585 1.376 . S
C589 C588 1.392 . S
C589 H601 0.929 . S
C590 C586 1.531 . S
C590 H602 0.960 . S
C590 H603 0.962 . S
C590 H604 0.960 . S
C591 C588 1.511 . S
C591 H605 0.961 . S
C591 H606 0.961 . S
C591 H607 0.961 . S
C592 C593 1.370 . S
C592 C594 1.363 . S
C592 H608 0.931 . S
C593 C592 1.370 . S
C593 C597 1.408 . S
C594 C592 1.363 . S
C594 C595 1.370 . S
C594 C598 1.524 . S
C595 C587 1.503 . S
C595 C594 1.370 . S
C595 C596 1.403 . S
C596 C595 1.403 . S
C596 C597 1.404 . S
C596 C599 1.539 . S
C597 C593 1.408 . S
C597 C596 1.404 . S
C597 H609 0.930 . S
C598 C594 1.524 . S
C598 H610 0.956 . S
C598 H611 0.961 . S
C598 H612 0.961 . S
C599 C596 1.539 . S
C599 H613 0.958 . S
C599 H614 0.961 . S
C599 H615 0.960 . S
H600 C584 0.931 . S
H601 C589 0.929 . S
H602 C590 0.960 . S
H603 C590 0.962 . S
H604 C590 0.960 . S
H605 C591 0.961 . S
H606 C591 0.961 . S
H607 C591 0.961 . S
H608 C592 0.931 . S
H609 C597 0.930 . S
H610 C598 0.956 . S
H611 C598 0.961 . S
H612 C598 0.961 . S
H613 C599 0.958 . S
H614 C599 0.961 . S
H615 C599 0.960 . S
C616 C617 1.391 . S
C616 C618 1.394 . S
C616 H632 0.931 . S
C617 C616 1.391 . S
C617 C621 1.376 . S
C618 C616 1.394 . S
C618 C619 1.369 . S
C618 C622 1.531 . S
C619 C618 1.369 . S
C619 C620 1.410 . S
C619 C627 1.503 . S
C620 C619 1.410 . S
C620 C621 1.392 . S
C620 C623 1.511 . S
C621 C617 1.376 . S
C621 C620 1.392 . S
C621 H633 0.929 . S
C622 C618 1.531 . S
C622 H634 0.960 . S
C622 H635 0.962 . S
C622 H636 0.960 . S
C623 C620 1.511 . S
C623 H637 0.961 . S
C623 H638 0.961 . S
C623 H639 0.961 . S
C624 C625 1.370 . S
C624 C626 1.363 . S
C624 H640 0.931 . S
C625 C624 1.370 . S
C625 C629 1.408 . S
C626 C624 1.363 . S
C626 C627 1.370 . S
C626 C630 1.524 . S
C627 C619 1.503 . S
C627 C626 1.370 . S
C627 C628 1.403 . S
C628 C627 1.403 . S
C628 C629 1.404 . S
C628 C631 1.539 . S
C629 C625 1.408 . S
C629 C628 1.404 . S
C629 H641 0.930 . S
C630 C626 1.524 . S
C630 H642 0.956 . S
C630 H643 0.961 . S
C630 H644 0.961 . S
C631 C628 1.539 . S
C631 H645 0.958 . S
C631 H646 0.961 . S
C631 H647 0.960 . S
H632 C616 0.931 . S
H633 C621 0.929 . S
H634 C622 0.960 . S
H635 C622 0.962 . S
H636 C622 0.960 . S
H637 C623 0.961 . S
H638 C623 0.961 . S
H639 C623 0.961 . S
H640 C624 0.931 . S
H641 C629 0.930 . S
H642 C630 0.956 . S
H643 C630 0.961 . S
H644 C630 0.961 . S
H645 C631 0.958 . S
H646 C631 0.961 . S
H647 C631 0.960 . S
C648 C649 1.391 . S
C648 C650 1.394 . S
C648 H664 0.931 . S
C649 C648 1.391 . S
C649 C653 1.376 . S
C650 C648 1.394 . S
C650 C651 1.369 . S
C650 C654 1.531 . S
C651 C650 1.369 . S
C651 C652 1.410 . S
C651 C659 1.503 . S
C652 C651 1.410 . S
C652 C653 1.392 . S
C652 C655 1.511 . S
C653 C649 1.376 . S
C653 C652 1.392 . S
C653 H665 0.929 . S
C654 C650 1.531 . S
C654 H666 0.960 . S
C654 H667 0.962 . S
C654 H668 0.960 . S
C655 C652 1.511 . S
C655 H669 0.961 . S
C655 H670 0.961 . S
C655 H671 0.961 . S
C656 C657 1.370 . S
C656 C658 1.363 . S
C656 H672 0.931 . S
C657 C656 1.370 . S
C657 C661 1.408 . S
C658 C656 1.363 . S
C658 C659 1.370 . S
C658 C662 1.524 . S
C659 C651 1.503 . S
C659 C658 1.370 . S
C659 C660 1.403 . S
C660 C659 1.403 . S
C660 C661 1.404 . S
C660 C663 1.539 . S
C661 C657 1.408 . S
C661 C660 1.404 . S
C661 H673 0.930 . S
C662 C658 1.524 . S
C662 H674 0.956 . S
C662 H675 0.961 . S
C662 H676 0.961 . S
C663 C660 1.539 . S
C663 H677 0.958 . S
C663 H678 0.961 . S
C663 H679 0.960 . S
H664 C648 0.931 . S
H665 C653 0.929 . S
H666 C654 0.960 . S
H667 C654 0.962 . S
H668 C654 0.960 . S
H669 C655 0.961 . S
H670 C655 0.961 . S
H671 C655 0.961 . S
H672 C656 0.931 . S
H673 C661 0.930 . S
H674 C662 0.956 . S
H675 C662 0.961 . S
H676 C662 0.961 . S
H677 C663 0.958 . S
H678 C663 0.961 . S
H679 C663 0.960 . S
C680 C681 1.391 . S
C680 C682 1.394 . S
C680 H696 0.931 . S
C681 C680 1.391 . S
C681 C685 1.376 . S
C682 C680 1.394 . S
C682 C683 1.369 . S
C682 C686 1.531 . S
C683 C682 1.369 . S
C683 C684 1.410 . S
C683 C691 1.503 . S
C684 C683 1.410 . S
C684 C685 1.392 . S
C684 C687 1.511 . S
C685 C681 1.376 . S
C685 C684 1.392 . S
C685 H697 0.929 . S
C686 C682 1.531 . S
C686 H698 0.960 . S
C686 H699 0.962 . S
C686 H700 0.960 . S
C687 C684 1.511 . S
C687 H701 0.961 . S
C687 H702 0.961 . S
C687 H703 0.961 . S
C688 C689 1.370 . S
C688 C690 1.363 . S
C688 H704 0.931 . S
C689 C688 1.370 . S
C689 C693 1.408 . S
C690 C688 1.363 . S
C690 C691 1.370 . S
C690 C694 1.524 . S
C691 C683 1.503 . S
C691 C690 1.370 . S
C691 C692 1.403 . S
C692 C691 1.403 . S
C692 C693 1.404 . S
C692 C695 1.539 . S
C693 C689 1.408 . S
C693 C692 1.404 . S
C693 H705 0.930 . S
C694 C690 1.524 . S
C694 H706 0.956 . S
C694 H707 0.961 . S
C694 H708 0.961 . S
C695 C692 1.539 . S
C695 H709 0.958 . S
C695 H710 0.961 . S
C695 H711 0.960 . S
H696 C680 0.931 . S
H697 C685 0.929 . S
H698 C686 0.960 . S
H699 C686 0.962 . S
H700 C686 0.960 . S
H701 C687 0.961 . S
H702 C687 0.961 . S
H703 C687 0.961 . S
H704 C688 0.931 . S
H705 C693 0.930 . S
H706 C694 0.956 . S
H707 C694 0.961 . S
H708 C694 0.961 . S
H709 C695 0.958 . S
H710 C695 0.961 . S
H711 C695 0.960 . S
C712 C713 1.391 . S
C712 C714 1.394 . S
C712 H728 0.931 . S
C713 C712 1.391 . S
C713 C717 1.376 . S
C714 C712 1.394 . S
C714 C715 1.369 . S
C714 C718 1.531 . S
C715 C714 1.369 . S
C715 C716 1.410 . S
C715 C723 1.503 . S
C716 C715 1.410 . S
C716 C717 1.392 . S
C716 C719 1.511 . S
C717 C713 1.376 . S
C717 C716 1.392 . S
C717 H729 0.929 . S
C718 C714 1.531 . S
C718 H730 0.960 . S
C718 H731 0.962 . S
C718 H732 0.960 . S
C719 C716 1.511 . S
C719 H733 0.961 . S
C719 H734 0.961 . S
C719 H735 0.961 . S
C720 C721 1.370 . S
C720 C722 1.363 . S
C720 H736 0.931 . S
C721 C720 1.370 . S
C721 C725 1.408 . S
C722 C720 1.363 . S
C722 C723 1.370 . S
C722 C726 1.524 . S
C723 C715 1.503 . S
C723 C722 1.370 . S
C723 C724 1.403 . S
C724 C723 1.403 . S
C724 C725 1.404 . S
C724 C727 1.539 . S
C725 C721 1.408 . S
C725 C724 1.404 . S
C725 H737 0.930 . S
C726 C722 1.524 . S
C726 H738 0.956 . S
C726 H739 0.961 . S
C726 H740 0.961 . S
C727 C724 1.539 . S
C727 H741 0.958 . S
C727 H742 0.961 . S
C727 H743 0.960 . S
H728 C712 0.931 . S
H729 C717 0.929 . S
H730 C718 0.960 . S
H731 C718 0.962 . S
H732 C718 0.960 . S
H733 C719 0.961 . S
H734 C719 0.961 . S
H735 C719 0.961 . S
H736 C720 0.931 . S
H737 C725 0.930 . S
H738 C726 0.956 . S
H739 C726 0.961 . S
H740 C726 0.961 . S
H741 C727 0.958 . S
H742 C727 0.961 . S
H743 C727 0.960 . S
C744 C745 1.391 . S
C744 C746 1.394 . S
C744 H760 0.931 . S
C745 C744 1.391 . S
C745 C749 1.376 . S
C746 C744 1.394 . S
C746 C747 1.369 . S
C746 C750 1.531 . S
C747 C746 1.369 . S
C747 C748 1.410 . S
C747 C755 1.503 . S
C748 C747 1.410 . S
C748 C749 1.392 . S
C748 C751 1.511 . S
C749 C745 1.376 . S
C749 C748 1.392 . S
C749 H761 0.929 . S
C750 C746 1.531 . S
C750 H762 0.960 . S
C750 H763 0.962 1_455 S
C750 H764 0.960 . S
C751 C748 1.511 . S
C751 H765 0.961 . S
C751 H766 0.961 . S
C751 H767 0.961 . S
C752 C753 1.370 . S
C752 C754 1.363 . S
C752 H768 0.931 1_455 S
C753 C752 1.370 . S
C753 C757 1.408 . S
C754 C752 1.363 . S
C754 C755 1.370 . S
C754 C758 1.524 1_455 S
C755 C747 1.503 . S
C755 C754 1.370 . S
C755 C756 1.403 . S
C756 C755 1.403 . S
C756 C757 1.404 . S
C756 C759 1.539 . S
C757 C753 1.408 . S
C757 C756 1.404 . S
C757 H769 0.930 . S
C758 C754 1.524 1_655 S
C758 H770 0.956 . S
C758 H771 0.961 . S
C758 H772 0.961 . S
C759 C756 1.539 . S
C759 H773 0.958 . S
C759 H774 0.961 . S
C759 H775 0.960 . S
H760 C744 0.931 . S
H761 C749 0.929 . S
H762 C750 0.960 . S
H763 C750 0.962 1_655 S
H764 C750 0.960 . S
H765 C751 0.961 . S
H766 C751 0.961 . S
H767 C751 0.961 . S
H768 C752 0.931 1_655 S
H769 C757 0.930 . S
H770 C758 0.956 . S
H771 C758 0.961 . S
H772 C758 0.961 . S
H773 C759 0.958 . S
H774 C759 0.961 . S
H775 C759 0.960 . S
C776 C777 1.391 . S
C776 C778 1.394 . S
C776 H792 0.931 . S
C777 C776 1.391 . S
C777 C781 1.376 1_545 S
C778 C776 1.394 . S
C778 C779 1.369 . S
C778 C782 1.531 . S
C779 C778 1.369 . S
C779 C780 1.410 1_545 S
C779 C787 1.503 . S
C780 C779 1.410 1_565 S
C780 C781 1.392 . S
C780 C783 1.511 . S
C781 C777 1.376 1_565 S
C781 C780 1.392 . S
C781 H793 0.929 . S
C782 C778 1.531 . S
C782 H794 0.960 . S
C782 H795 0.962 . S
C782 H796 0.960 . S
C783 C780 1.511 . S
C783 H797 0.961 . S
C783 H798 0.961 . S
C783 H799 0.961 . S
C784 C785 1.370 . S
C784 C786 1.368 . S
C784 H800 0.931 1_545 S
C785 C784 1.370 . S
C785 C789 1.408 . S
C786 C784 1.368 . S
C786 C787 1.373 . S
C786 C790 1.520 1_545 S
C787 C779 1.503 . S
C787 C786 1.373 . S
C787 C788 1.403 . S
C788 C787 1.403 . S
C788 C789 1.404 . S
C788 C791 1.539 . S
C789 C785 1.408 . S
C789 C788 1.404 . S
C789 H801 0.930 . S
C790 C786 1.520 1_565 S
C790 H802 0.956 . S
C790 H803 0.961 . S
C790 H804 0.961 . S
C791 C788 1.539 . S
C791 H805 0.958 . S
C791 H806 0.961 . S
C791 H807 0.960 . S
H792 C776 0.931 . S
H793 C781 0.929 . S
H794 C782 0.960 . S
H795 C782 0.962 . S
H796 C782 0.960 . S
H797 C783 0.961 . S
H798 C783 0.961 . S
H799 C783 0.961 . S
H800 C784 0.931 1_565 S
H801 C789 0.930 . S
H802 C790 0.956 . S
H803 C790 0.961 . S
H804 C790 0.961 . S
H805 C791 0.958 . S
H806 C791 0.961 . S
H807 C791 0.960 . S
C808 C809 1.391 . S
C808 C810 1.394 . S
C808 H824 0.931 . S
C809 C808 1.391 . S
C809 C813 1.376 . S
C810 C808 1.394 . S
C810 C811 1.369 . S
C810 C814 1.531 . S
C811 C810 1.369 . S
C811 C812 1.410 . S
C811 C819 1.503 . S
C812 C811 1.410 . S
C812 C813 1.392 . S
C812 C815 1.511 . S
C813 C809 1.376 . S
C813 C812 1.392 . S
C813 H825 0.929 . S
C814 C810 1.531 . S
C814 H826 0.960 . S
C814 H827 0.962 . S
C814 H828 0.960 . S
C815 C812 1.511 . S
C815 H829 0.961 . S
C815 H830 0.961 . S
C815 H831 0.961 . S
C816 C817 1.370 . S
C816 C818 1.363 . S
C816 H832 0.931 . S
C817 C816 1.370 . S
C817 C821 1.408 . S
C818 C816 1.363 . S
C818 C819 1.370 . S
C818 C822 1.524 . S
C819 C811 1.503 . S
C819 C818 1.370 . S
C819 C820 1.403 . S
C820 C819 1.403 . S
C820 C821 1.404 . S
C820 C823 1.539 . S
C821 C817 1.408 . S
C821 C820 1.404 . S
C821 H833 0.930 . S
C822 C818 1.524 . S
C822 H834 0.956 . S
C822 H835 0.961 . S
C822 H836 0.961 . S
C823 C820 1.539 . S
C823 H837 0.958 . S
C823 H838 0.961 . S
C823 H839 0.960 . S
H824 C808 0.931 . S
H825 C813 0.929 . S
H826 C814 0.960 . S
H827 C814 0.962 . S
H828 C814 0.960 . S
H829 C815 0.961 . S
H830 C815 0.961 . S
H831 C815 0.961 . S
H832 C816 0.931 . S
H833 C821 0.930 . S
H834 C822 0.956 . S
H835 C822 0.961 . S
H836 C822 0.961 . S
H837 C823 0.958 . S
H838 C823 0.961 . S
H839 C823 0.960 . S
C840 C841 1.391 . S
C840 C842 1.394 . S
C840 H856 0.931 . S
C841 C840 1.391 . S
C841 C845 1.376 1_545 S
C842 C840 1.394 . S
C842 C843 1.369 1_545 S
C842 C846 1.531 . S
C843 C842 1.369 1_565 S
C843 C844 1.410 . S
C843 C851 1.503 . S
C844 C843 1.410 . S
C844 C845 1.392 . S
C844 C847 1.511 . S
C845 C841 1.376 1_565 S
C845 C844 1.392 . S
C845 H857 0.929 . S
C846 C842 1.531 . S
C846 H858 0.960 . S
C846 H859 0.962 . S
C846 H860 0.960 . S
C847 C844 1.511 . S
C847 H861 0.961 . S
C847 H862 0.961 . S
C847 H863 0.961 . S
C848 C849 1.370 1_545 S
C848 C850 1.363 . S
C848 H864 0.931 . S
C849 C848 1.370 1_565 S
C849 C853 1.408 . S
C850 C848 1.363 . S
C850 C851 1.370 1_545 S
C850 C854 1.524 . S
C851 C843 1.503 . S
C851 C850 1.370 1_565 S
C851 C852 1.403 . S
C852 C851 1.403 . S
C852 C853 1.404 . S
C852 C855 1.539 . S
C853 C849 1.408 . S
C853 C852 1.404 . S
C853 H865 0.930 . S
C854 C850 1.524 . S
C854 H866 0.956 . S
C854 H867 0.961 . S
C854 H868 0.961 . S
C855 C852 1.539 . S
C855 H869 0.958 . S
C855 H870 0.961 . S
C855 H871 0.960 . S
H856 C840 0.931 . S
H857 C845 0.929 . S
H858 C846 0.960 . S
H859 C846 0.962 . S
H860 C846 0.960 . S
H861 C847 0.961 . S
H862 C847 0.961 . S
H863 C847 0.961 . S
H864 C848 0.931 . S
H865 C853 0.930 . S
H866 C854 0.956 . S
H867 C854 0.961 . S
H868 C854 0.961 . S
H869 C855 0.958 . S
H870 C855 0.961 . S
H871 C855 0.960 . S
C872 C873 1.391 . S
C872 C874 1.394 . S
C872 H888 0.931 . S
C873 C872 1.391 . S
C873 C877 1.376 . S
C874 C872 1.394 . S
C874 C875 1.369 . S
C874 C878 1.531 . S
C875 C874 1.369 . S
C875 C876 1.410 . S
C875 C883 1.503 . S
C876 C875 1.410 . S
C876 C877 1.392 . S
C876 C879 1.511 . S
C877 C873 1.376 . S
C877 C876 1.392 . S
C877 H889 0.929 . S
C878 C874 1.531 . S
C878 H890 0.960 . S
C878 H891 0.962 . S
C878 H892 0.960 . S
C879 C876 1.511 . S
C879 H893 0.961 . S
C879 H894 0.961 . S
C879 H895 0.961 . S
C880 C881 1.370 . S
C880 C882 1.363 . S
C880 H896 0.931 . S
C881 C880 1.370 . S
C881 C885 1.408 . S
C882 C880 1.363 . S
C882 C883 1.370 . S
C882 C886 1.524 . S
C883 C875 1.503 . S
C883 C882 1.370 . S
C883 C884 1.403 . S
C884 C883 1.403 . S
C884 C885 1.404 . S
C884 C887 1.539 . S
C885 C881 1.408 . S
C885 C884 1.404 . S
C885 H897 0.930 . S
C886 C882 1.524 . S
C886 H898 0.956 . S
C886 H899 0.961 . S
C886 H900 0.961 . S
C887 C884 1.539 . S
C887 H901 0.958 . S
C887 H902 0.961 . S
C887 H903 0.960 . S
H888 C872 0.931 . S
H889 C877 0.929 . S
H890 C878 0.960 . S
H891 C878 0.962 . S
H892 C878 0.960 . S
H893 C879 0.961 . S
H894 C879 0.961 . S
H895 C879 0.961 . S
H896 C880 0.931 . S
H897 C885 0.930 . S
H898 C886 0.956 . S
H899 C886 0.961 . S
H900 C886 0.961 . S
H901 C887 0.958 . S
H902 C887 0.961 . S
H903 C887 0.960 . S
C904 C905 1.391 . S
C904 C906 1.394 . S
C904 H920 0.931 . S
C905 C904 1.391 . S
C905 C909 1.376 1_455 S
C906 C904 1.394 . S
C906 C907 1.366 1_455 S
C906 C910 1.531 . S
C907 C906 1.366 1_655 S
C907 C908 1.411 . S
C907 C915 1.504 . S
C908 C907 1.411 . S
C908 C909 1.392 . S
C908 C911 1.511 . S
C909 C905 1.376 1_655 S
C909 C908 1.392 . S
C909 H921 0.929 . S
C910 C906 1.531 . S
C910 H922 0.960 . S
C910 H923 0.962 . S
C910 H924 0.960 . S
C911 C908 1.511 . S
C911 H925 0.961 . S
C911 H926 0.961 . S
C911 H927 0.961 . S
C912 C913 1.370 1_455 S
C912 C914 1.363 . S
C912 H928 0.931 . S
C913 C912 1.370 1_655 S
C913 C917 1.408 . S
C914 C912 1.363 . S
C914 C915 1.370 1_455 S
C914 C918 1.524 . S
C915 C907 1.504 . S
C915 C914 1.370 1_655 S
C915 C916 1.403 . S
C916 C915 1.403 . S
C916 C917 1.404 . S
C916 C919 1.539 . S
C917 C913 1.408 . S
C917 C916 1.404 . S
C917 H929 0.930 . S
C918 C914 1.524 . S
C918 H930 0.956 . S
C918 H931 0.961 . S
C918 H932 0.961 . S
C919 C916 1.539 . S
C919 H933 0.958 . S
C919 H934 0.961 . S
C919 H935 0.960 . S
H920 C904 0.931 . S
H921 C909 0.929 . S
H922 C910 0.960 . S
H923 C910 0.962 . S
H924 C910 0.960 . S
H925 C911 0.961 . S
H926 C911 0.961 . S
H927 C911 0.961 . S
H928 C912 0.931 . S
H929 C917 0.930 . S
H930 C918 0.956 . S
H931 C918 0.961 . S
H932 C918 0.961 . S
H933 C919 0.958 . S
H934 C919 0.961 . S
H935 C919 0.960 . S
C361 C7 0.644 . S
C369 C335 0.566 . S
C393 C51 1.965 . S
C401 C242 1.949 . S
C425 C87 1.221 . S
C433 C282 1.223 . S
C457 C16 0.287 . S
C465 C322 0.310 . S
C497 C255 2.085 . S
C489 C42 2.137 . S
C529 C295 1.328 . S
C521 C96 1.326 . S
C553 C47 1.204 . S
C561 C162 1.201 . S
C585 C91 3.173 . S
C593 C202 3.129 . S
C617 C2 2.156 . S
C625 C135 2.117 . S
C657 C175 1.314 . S
C649 C56 1.303 . S
C689 C215 3.024 . S
C681 C82 3.069 . S
C713 C11 1.973 . S
C721 C122 1.941 . S
C753 C221 1.757 1_554 S
C745 C19 1.704 . S
C777 C50 1.336 . S
C785 C141 1.388 . S
C809 C99 1.438 . S
C817 C181 1.502 . S
C849 C301 1.489 . S
C841 C59 1.444 . S
C881 C341 1.121 . S
C873 C90 1.131 . S
C905 C10 1.372 . S
C913 C261 1.369 . S
