# Generated by pormake.
# Topology tsx, (6,3)-cn, num edge types: 1
# Building blocks:
#     Node 0, Type 0, BuildingBlock: FUNLAD_clean_sbu_0, # of connection points: 6
#     Node 1, Type 0, BuildingBlock: FUNLAD_clean_sbu_0, # of connection points: 6
#     Node 2, Type 1, BuildingBlock: OLANEW_clean_sbu_2, # of connection points: 3
#     Node 3, Type 1, BuildingBlock: OLANEW_clean_sbu_2, # of connection points: 3
#     Node 4, Type 1, BuildingBlock: OLANEW_clean_sbu_2, # of connection points: 3
#     Node 5, Type 1, BuildingBlock: OLANEW_clean_sbu_2, # of connection points: 3
#     Edge 6, Type (0, 1), BuildingBlock: KIFKEQ_clean_linker_1, # of connection points: 2
#     Edge 7, Type (0, 1), BuildingBlock: KIFKEQ_clean_linker_1, # of connection points: 2
#     Edge 8, Type (0, 1), BuildingBlock: KIFKEQ_clean_linker_1, # of connection points: 2
#     Edge 9, Type (0, 1), BuildingBlock: KIFKEQ_clean_linker_1, # of connection points: 2
#     Edge 10, Type (0, 1), BuildingBlock: KIFKEQ_clean_linker_1, # of connection points: 2
#     Edge 11, Type (0, 1), BuildingBlock: KIFKEQ_clean_linker_1, # of connection points: 2
#     Edge 12, Type (0, 1), BuildingBlock: KIFKEQ_clean_linker_1, # of connection points: 2
#     Edge 13, Type (0, 1), BuildingBlock: KIFKEQ_clean_linker_1, # of connection points: 2
#     Edge 14, Type (0, 1), BuildingBlock: KIFKEQ_clean_linker_1, # of connection points: 2
#     Edge 15, Type (0, 1), BuildingBlock: KIFKEQ_clean_linker_1, # of connection points: 2
#     Edge 16, Type (0, 1), BuildingBlock: KIFKEQ_clean_linker_1, # of connection points: 2
#     Edge 17, Type (0, 1), BuildingBlock: KIFKEQ_clean_linker_1, # of connection points: 2
# Relax obj value: 0.080
# Max RMSD: 0.101
# Mean RMSD: 0.088
data_MOF--net-tsx--node1-FUNLAD_clean_sbu_0--node2-OLANEW_clean_sbu_2--edge1-KIFKEQ_clean_linker_1
_symmetry_space_group_name_H-M    P1
_symmetry_Int_Tables_number       1
_symmetry_cell_setting            triclinic
loop_
_symmetry_equiv_pos_as_xyz
'x, y, z'
_cell_length_a     21.329467
_cell_length_b     23.677599
_cell_length_c     40.552102
_cell_angle_alpha  96.904366
_cell_angle_beta   92.150137
_cell_angle_gamma 89.961934
loop_
_atom_site_label
_atom_site_type_symbol
_atom_site_fract_x
_atom_site_fract_y
_atom_site_fract_z
_atom_type_partial_charge
C0 C 0.95311 0.91593 0.99061 0.0
N1 N 0.03998 -0.0007 0.0767 0.0
C2 C 0.98333 0.99428 0.09044 0.0
C3 C 0.97963 0.98939 0.12425 0.0
C4 C 0.03475 0.9898 0.14438 0.0
C5 C 0.09263 0.99592 0.12964 0.0
C6 C 0.09418 0.00059 0.09559 0.0
Zn7 Zn 0.04158 0.00172 0.02631 0.0
C8 C 0.13767 0.92327 0.99434 0.0
N9 N 0.0412 0.00395 0.92073 0.0
C10 C 0.98483 0.00864 0.90446 0.0
C11 C 0.0956 0.00249 0.90415 0.0
C12 C 0.09454 0.00639 0.86996 0.0
C13 C 0.03699 0.01265 0.85261 0.0
C14 C 0.98168 0.01358 0.8705 0.0
Zn15 Zn 0.04204 0.00171 0.97128 0.0
O16 O 0.97684 0.93429 0.01903 0.0
C17 C 0.94575 0.08012 1.00233 0.0
O18 O 0.97109 0.9369 0.96509 0.0
H19 H 0.13998 -0.00128 0.91749 0.0
H20 H 0.94077 0.99307 0.07501 0.0
H21 H 0.942 0.00948 0.91795 0.0
O22 O 0.96567 0.06141 0.0289 0.0
O23 O 0.97156 0.0634 0.97523 0.0
H24 H 0.13874 0.00464 0.0842 0.0
O25 O 0.11244 0.06666 0.97874 0.0
O26 O 0.10686 0.06873 0.03287 0.0
O27 O 0.11296 0.93981 0.96816 0.0
O28 O 0.11694 0.94236 0.02253 0.0
C29 C 0.13076 0.08722 0.00798 0.0
H30 H 0.93402 0.98382 0.1343 0.0
H31 H 0.13629 0.99712 0.14422 0.0
H32 H 0.13845 0.00446 0.85734 0.0
H33 H 0.93619 0.01943 0.85868 0.0
C34 C 0.43871 0.45006 0.50658 0.0
N35 N 0.5424 0.52434 0.58988 0.0
C36 C 0.4863 0.52166 0.60452 0.0
C37 C 0.48383 0.51747 0.63844 0.0
C38 C 0.5396 0.51713 0.65803 0.0
C39 C 0.597 0.52116 0.64236 0.0
C40 C 0.59732 0.52441 0.60809 0.0
Zn41 Zn 0.54055 0.52633 0.53929 0.0
C42 C 0.62295 0.4385 0.50432 0.0
N43 N 0.53014 0.52837 0.43354 0.0
C44 C 0.4743 0.5412 0.41887 0.0
C45 C 0.58263 0.5198 0.41548 0.0
C46 C 0.58028 0.52492 0.38142 0.0
C47 C 0.52374 0.54014 0.36609 0.0
C48 C 0.47022 0.54794 0.38513 0.0
Zn49 Zn 0.53457 0.52594 0.48414 0.0
O50 O 0.46782 0.46623 0.53394 0.0
C51 C 0.45201 0.61378 0.51864 0.0
O52 O 0.45638 0.46828 0.48014 0.0
H53 H 0.62666 0.51 0.42758 0.0
H54 H 0.44303 0.52196 0.58978 0.0
H55 H 0.43291 0.54724 0.43346 0.0
O56 O 0.47232 0.59239 0.54425 0.0
O57 O 0.4724 0.59523 0.4904 0.0
H58 H 0.64147 0.52667 0.59602 0.0
O59 O 0.61231 0.58312 0.48921 0.0
O60 O 0.61368 0.58667 0.54364 0.0
O61 O 0.59716 0.45714 0.47902 0.0
O62 O 0.60817 0.45991 0.53329 0.0
C63 C 0.63637 0.60214 0.51758 0.0
H64 H 0.43839 0.51324 0.64891 0.0
H65 H 0.64128 0.52191 0.65633 0.0
H66 H 0.62256 0.51887 0.36745 0.0
H67 H 0.42571 0.5593 0.37401 0.0
O68 O 0.96762 0.85254 0.38353 0.0
Cd69 Cd 0.94396 0.83795 0.44052 0.0
O70 O 0.97873 0.94059 0.40556 0.0
Cd71 Cd 0.99313 0.03259 0.41208 0.0
O72 O 0.95949 0.11691 0.43055 0.0
C73 C 0.93158 0.12108 0.45788 0.0
O74 O 0.92857 0.07614 0.47389 0.0
C75 C 0.97919 0.90399 0.37988 0.0
C76 C 0.05053 0.80353 0.47427 0.0
O77 O 0.00956 0.76721 0.46111 0.0
O78 O 0.04064 0.85629 0.47186 0.0
O79 O 0.96775 0.14665 0.61086 0.0
Cd80 Cd 0.94743 0.1683 0.55383 0.0
O81 O 0.01714 0.07015 0.5904 0.0
Cd82 Cd 0.0512 0.98353 0.59144 0.0
O83 O 0.01484 0.898 0.57675 0.0
C84 C 0.98184 0.89269 0.54979 0.0
O85 O 0.97752 0.93629 0.53262 0.0
C86 C 0.9971 0.10139 0.61547 0.0
C87 C 0.04532 0.2299 0.53185 0.0
O88 O 1.00011 0.25487 0.54762 0.0
O89 O 0.04389 0.17548 0.52605 0.0
O90 O 0.46477 0.38068 0.89512 0.0
Cd91 Cd 0.44535 0.35563 0.95075 0.0
O92 O 0.51414 0.45664 0.91885 0.0
Cd93 Cd 0.54825 0.54375 0.92069 0.0
O94 O 0.51029 0.62747 0.9368 0.0
C95 C 0.47433 0.62804 0.96114 0.0
O96 O 0.46798 0.58114 0.97507 0.0
C97 C 0.49429 0.42641 0.89252 0.0
C98 C 0.54604 0.29526 0.97425 0.0
O99 O 0.50073 0.26992 0.95679 0.0
O100 O 0.54319 0.34944 0.98123 0.0
O101 O 0.47301 0.66367 0.11915 0.0
Cd102 Cd 0.45644 0.67344 0.06001 0.0
O103 O 0.50274 0.57752 0.10135 0.0
Cd104 Cd 0.5196 0.48728 0.10379 0.0
O105 O 0.48231 0.40257 0.08712 0.0
C106 C 0.45501 0.39639 0.05849 0.0
O107 O 0.45503 0.43923 0.04067 0.0
C108 C 0.49164 0.61504 0.12554 0.0
C109 C 0.56155 0.71405 0.0315 0.0
O110 O 0.51767 0.7478 0.04203 0.0
O111 O 0.55571 0.66106 0.03449 0.0
H112 H 0.20026 0.13052 0.96117 0.0
H113 H 0.17575 0.14181 0.06709 0.0
H114 H 0.28575 0.19995 0.97086 0.0
H115 H 0.25969 0.2117 0.07663 0.0
H116 H 0.37635 0.37813 0.00357 0.0
H117 H 0.30192 0.30037 0.98943 0.0
H118 H 0.37198 0.22081 0.07388 0.0
H119 H 0.4457 0.29929 0.08843 0.0
C120 C 0.21283 0.14802 0.98647 0.0
C121 C 0.18111 0.13069 0.01334 0.0
C122 C 0.26175 0.18781 0.99201 0.0
C123 C 0.27991 0.21106 0.02454 0.0
C124 C 0.24788 0.1938 0.05131 0.0
C125 C 0.19922 0.15408 0.0458 0.0
C126 C 0.37661 0.34362 0.01884 0.0
C127 C 0.41646 0.34523 0.04736 0.0
C128 C 0.334 0.29889 0.01065 0.0
C129 C 0.33034 0.25476 0.03079 0.0
C130 C 0.37264 0.25483 0.05827 0.0
C131 C 0.41517 0.29962 0.0665 0.0
H132 H 0.2005 0.87666 0.04468 0.0
H133 H 0.19664 0.8804 0.93829 0.0
H134 H 0.28931 0.81127 0.04003 0.0
H135 H 0.28445 0.81475 0.9337 0.0
H136 H 0.38267 0.63614 0.00647 0.0
H137 H 0.30641 0.71187 0.01705 0.0
H138 H 0.39705 0.80775 0.94804 0.0
H139 H 0.47346 0.73149 0.93719 0.0
C140 C 0.2185 0.86352 0.02033 0.0
C141 C 0.19124 0.88345 0.99184 0.0
C142 C 0.26932 0.82607 0.01768 0.0
C143 C 0.29406 0.80805 0.98652 0.0
C144 C 0.26719 0.82855 0.95813 0.0
C145 C 0.21637 0.86574 0.96075 0.0
C146 C 0.38705 0.67372 0.9939 0.0
C147 C 0.43373 0.67751 0.9707 0.0
C148 C 0.34342 0.71729 1.00011 0.0
C149 C 0.34528 0.76552 0.98312 0.0
C150 C 0.39381 0.7706 0.96109 0.0
C151 C 0.43769 0.72706 0.95498 0.0
H152 H 0.93278 0.83699 0.03227 0.0
H153 H 0.855 0.90309 0.94488 0.0
H154 H 0.83818 0.78044 0.03521 0.0
H155 H 0.75936 0.84676 0.94815 0.0
H156 H 0.57834 0.81808 0.01045 0.0
H157 H 0.67566 0.85802 0.99313 0.0
H158 H 0.77084 0.70005 0.00415 0.0
H159 H 0.67341 0.65979 0.02125 0.0
C160 C 0.89589 0.83846 0.01328 0.0
C161 C 0.90107 0.87448 0.9884 0.0
C162 C 0.84186 0.80592 0.01489 0.0
C163 C 0.7914 0.80944 0.99199 0.0
C164 C 0.79759 0.8435 0.96617 0.0
C165 C 0.85235 0.87535 0.96417 0.0
C166 C 0.61981 0.79162 0.00874 0.0
C167 C 0.61847 0.73607 0.01761 0.0
C168 C 0.67535 0.81431 0.99854 0.0
C169 C 0.73075 0.78212 0.99739 0.0
C170 C 0.7288 0.72581 0.00497 0.0
C171 C 0.67305 0.70283 0.01472 0.0
H172 H 0.88248 0.11005 0.9478 0.0
H173 H 0.8811 0.13216 0.05521 0.0
H174 H 0.78453 0.16188 0.94537 0.0
H175 H 0.78236 0.18545 0.05248 0.0
H176 H 0.64431 0.33323 0.01675 0.0
H177 H 0.74197 0.28252 0.0274 0.0
H178 H 0.6717 0.13507 0.96395 0.0
H179 H 0.57429 0.1849 0.95354 0.0
C180 C 0.86172 0.12651 0.97097 0.0
C181 C 0.88955 0.11672 1.00175 0.0
C182 C 0.80537 0.15593 0.96949 0.0
C183 C 0.77577 0.17695 0.99871 0.0
C184 C 0.80446 0.16942 0.02963 0.0
C185 C 0.86076 0.13901 0.03115 0.0
C186 C 0.64941 0.2897 0.00548 0.0
C187 C 0.60188 0.26323 0.98403 0.0
C188 C 0.70508 0.26074 0.01171 0.0
C189 C 0.71428 0.20526 0.99622 0.0
C190 C 0.66579 0.17808 0.97593 0.0
C191 C 0.61002 0.2066 0.97006 0.0
H192 H 0.70143 0.63872 0.46713 0.0
H193 H 0.69634 0.65217 0.57425 0.0
H194 H 0.79277 0.70163 0.47197 0.0
H195 H 0.78643 0.71587 0.57904 0.0
H196 H 0.97623 0.79585 0.58039 0.0
H197 H 0.89799 0.71998 0.57016 0.0
H198 H 0.81577 0.80108 0.48901 0.0
H199 H 0.89437 0.87604 0.4988 0.0
C200 C 0.71964 0.65523 0.4917 0.0
C201 C 0.69138 0.64069 0.52031 0.0
C202 C 0.77194 0.69131 0.49446 0.0
C203 C 0.79707 0.71364 0.52588 0.0
C204 C 0.76904 0.69863 0.55445 0.0
C205 C 0.7169 0.66254 0.5517 0.0
C206 C 0.94204 0.79695 0.56005 0.0
C207 C 0.94102 0.84234 0.54068 0.0
C208 C 0.89698 0.75369 0.55431 0.0
C209 C 0.85 0.75495 0.52911 0.0
C210 C 0.85139 0.79858 0.50852 0.0
C211 C 0.8964 0.84177 0.51424 0.0
H212 H 0.66614 0.38703 0.44586 0.0
H213 H 0.6901 0.38939 0.55236 0.0
H214 H 0.74691 0.31488 0.43778 0.0
H215 H 0.77213 0.3174 0.54415 0.0
H216 H 0.85146 0.1366 0.50912 0.0
H217 H 0.78124 0.21645 0.52263 0.0
H218 H 0.85984 0.30264 0.4456 0.0
H219 H 0.92962 0.22233 0.43172 0.0
C220 C 0.68876 0.37227 0.46759 0.0
C221 C 0.67145 0.39383 0.49977 0.0
C222 C 0.73558 0.33127 0.46294 0.0
C223 C 0.76634 0.31076 0.49032 0.0
C224 C 0.74904 0.33217 0.52255 0.0
C225 C 0.70212 0.3734 0.52724 0.0
C226 C 0.85449 0.17294 0.49538 0.0
C227 C 0.8956 0.17283 0.46907 0.0
C228 C 0.81435 0.21883 0.50324 0.0
C229 C 0.81438 0.26553 0.48489 0.0
C230 C 0.85784 0.26672 0.45974 0.0
C231 C 0.89803 0.22085 0.45191 0.0
H232 H 0.37042 0.39454 0.45323 0.0
H233 H 0.37788 0.42535 0.56062 0.0
H234 H 0.27233 0.34049 0.45514 0.0
H235 H 0.28065 0.37281 0.56222 0.0
H236 H 0.0711 0.34204 0.5505 0.0
H237 H 0.16576 0.3941 0.54058 0.0
H238 H 0.23674 0.24516 0.48203 0.0
H239 H 0.14193 0.19229 0.49221 0.0
C240 C 0.35143 0.3896 0.47712 0.0
C241 C 0.38191 0.41426 0.50674 0.0
C242 C 0.29553 0.35874 0.47818 0.0
C243 C 0.26888 0.35323 0.50882 0.0
C244 C 0.29988 0.37713 0.53828 0.0
C245 C 0.35585 0.40692 0.53729 0.0
C246 C 0.10639 0.32045 0.53516 0.0
C247 C 0.09936 0.26285 0.52246 0.0
C248 C 0.16057 0.35027 0.52954 0.0
C249 C 0.20849 0.32339 0.51076 0.0
C250 C 0.20024 0.26676 0.49651 0.0
C251 C 0.14623 0.23656 0.5025 0.0
H252 H 0.42356 0.69108 0.47602 0.0
H253 H 0.36175 0.62753 0.56491 0.0
H254 H 0.32723 0.74616 0.473 0.0
H255 H 0.2645 0.68208 0.56147 0.0
H256 H 0.07393 0.70122 0.49666 0.0
H257 H 0.17505 0.6654 0.51525 0.0
H258 H 0.26155 0.82669 0.50473 0.0
H259 H 0.16017 0.86299 0.48656 0.0
C260 C 0.38996 0.68992 0.49532 0.0
C261 C 0.39996 0.65495 0.52062 0.0
C262 C 0.33498 0.72161 0.49367 0.0
C263 C 0.28844 0.71811 0.51694 0.0
C264 C 0.2997 0.68532 0.5432 0.0
C265 C 0.35539 0.65445 0.54525 0.0
C266 C 0.11429 0.72936 0.4989 0.0
C267 C 0.10937 0.78464 0.48981 0.0
C268 C 0.17201 0.70902 0.50977 0.0
C269 C 0.22601 0.7433 0.51129 0.0
C270 C 0.22057 0.79943 0.50365 0.0
C271 C 0.16259 0.82014 0.49333 0.0
H272 H 0.11342 0.92777 0.18112 0.0
H273 H 0.94851 0.03393 0.18885 0.0
H274 H 0.10471 0.91097 0.23888 0.0
H275 H 0.93796 0.0148 0.246 0.0
H276 H 0.96243 0.00763 0.35653 0.0
H277 H 0.98237 0.03207 0.30131 0.0
H278 H 0.03834 0.85872 0.27101 0.0
H279 H 0.02166 0.83522 0.32687 0.0
C280 C 0.07558 0.94792 0.19518 0.0
C281 C 0.03153 0.98205 0.18021 0.0
C282 C 0.0701 0.93766 0.22821 0.0
C283 C 0.02036 0.96116 0.24711 0.0
C284 C 0.9772 0.99638 0.23237 0.0
C285 C 0.98279 0.00677 0.19939 0.0
C286 C 0.98084 0.97519 0.3385 0.0
C287 C 0.99185 0.91981 0.34646 0.0
C288 C 0.99115 0.98892 0.30653 0.0
C289 C 0.01219 0.94745 0.28162 0.0
C290 C 0.02324 0.89206 0.28965 0.0
C291 C 0.0131 0.87842 0.32163 0.0
H292 H 0.94554 0.9753 0.80527 0.0
H293 H 0.12229 0.06645 0.81743 0.0
H294 H 0.93668 0.99455 0.74759 0.0
H295 H 0.11447 0.08257 0.75912 0.0
H296 H 0.09563 0.04616 0.6423 0.0
H297 H 0.10754 0.02049 0.69906 0.0
H298 H 0.92588 0.09238 0.72144 0.0
H299 H 0.91435 0.11882 0.66502 0.0
C300 C 0.98258 -0.00063 0.79583 0.0
C301 C 0.03434 0.01984 0.81645 0.0
C302 C 0.97758 0.00995 0.76265 0.0
C303 C 0.02479 0.04013 0.74903 0.0
C304 C 0.07766 0.05878 0.76902 0.0
C305 C 0.08217 0.04919 0.80242 0.0
C306 C 0.05803 0.05586 0.65926 0.0
C307 C 0.00383 0.084 0.64923 0.0
C308 C 0.06508 0.04161 0.69173 0.0
C309 C 0.01748 0.05427 0.71447 0.0
C310 C 0.96299 0.08173 0.70427 0.0
C311 C 0.95656 0.09705 0.6721 0.0
H312 H 0.62287 0.46134 0.69643 0.0
H313 H 0.45099 0.55868 0.70221 0.0
H314 H 0.6142 0.4455 0.75449 0.0
H315 H 0.44108 0.53966 0.7595 0.0
H316 H 0.41237 0.41135 0.8392 0.0
H317 H 0.42602 0.43917 0.7837 0.0
H318 H 0.60829 0.50916 0.81514 0.0
H319 H 0.59415 0.48233 0.87103 0.0
C320 C 0.58371 0.48003 0.71 0.0
C321 C 0.5373 0.51086 0.69422 0.0
C322 C 0.57871 0.47062 0.74324 0.0
C323 C 0.52673 0.49098 0.76124 0.0
C324 C 0.48122 0.52294 0.74595 0.0
C325 C 0.48679 0.53335 0.71299 0.0
C326 C 0.45511 0.43308 0.83433 0.0
C327 C 0.50195 0.44521 0.85945 0.0
C328 C 0.46279 0.44915 0.80267 0.0
C329 C 0.51811 0.47638 0.79529 0.0
C330 C 0.56521 0.48824 0.8203 0.0
C331 C 0.5569 0.47332 0.85225 0.0
H332 H 0.55506 0.46692 0.31196 0.0
H333 H 0.48599 0.63606 0.34083 0.0
H334 H 0.54594 0.4827 0.25352 0.0
H335 H 0.48055 0.65383 0.28295 0.0
H336 H 0.41792 0.65528 0.17619 0.0
H337 H 0.42472 0.63488 0.23353 0.0
H338 H 0.58578 0.52768 0.21116 0.0
H339 H 0.57601 0.54582 0.15325 0.0
C340 C 0.53866 0.50774 0.30568 0.0
C341 C 0.52076 0.55014 0.33072 0.0
C342 C 0.53376 0.51709 0.27222 0.0
C343 C 0.5121 0.56957 0.26313 0.0
C344 C 0.4957 0.61231 0.28858 0.0
C345 C 0.49929 0.60244 0.32187 0.0
C346 C 0.45456 0.62715 0.18359 0.0
C347 C 0.49618 0.60186 0.16027 0.0
C348 C 0.45894 0.61573 0.21661 0.0
C349 C 0.50623 0.57987 0.22744 0.0
C350 C 0.54798 0.55464 0.20389 0.0
C351 C 0.54262 0.56513 0.17063 0.0
loop_
_geom_bond_atom_site_label_1
_geom_bond_atom_site_label_2
_geom_bond_distance
_geom_bond_site_symmetry_2
_ccdc_geom_bond_type
C0 O16 1.276 . S
C0 O18 1.226 1_554 S
N1 C2 1.333 1_455 S
N1 C6 1.307 . S
N1 Zn7 2.020 . S
C2 N1 1.333 1_655 S
C2 C3 1.379 . S
C2 H20 0.952 1_545 S
C3 C2 1.379 . S
C3 C4 1.390 1_655 S
C3 H30 0.949 . S
C4 C3 1.390 1_455 S
C4 C5 1.357 . S
C5 C4 1.357 . S
C5 C6 1.370 . S
C5 H31 0.950 . S
C6 N1 1.307 . S
C6 C5 1.370 . S
C6 H24 0.948 . S
Zn7 N1 2.020 . S
Zn7 O16 2.039 1_445 S
Zn7 O22 2.034 1_455 S
Zn7 O26 2.025 . S
Zn7 O28 2.024 1_545 S
C8 O27 1.246 1_554 S
C8 O28 1.249 . S
N9 C10 1.307 1_445 S
N9 C11 1.333 . S
N9 Zn15 2.020 . S
C10 N9 1.307 1_665 S
C10 C14 1.370 . S
C10 H21 0.948 . S
C11 N9 1.333 . S
C11 C12 1.379 . S
C11 H19 0.952 . S
C12 C11 1.379 . S
C12 C13 1.391 . S
C12 H32 0.949 . S
C13 C12 1.391 . S
C13 C14 1.355 1_445 S
C14 C10 1.370 . S
C14 C13 1.355 1_665 S
C14 H33 0.950 . S
Zn15 N9 2.020 . S
Zn15 O18 2.025 1_445 S
Zn15 O23 2.024 1_455 S
Zn15 O25 2.039 . S
Zn15 O27 2.034 1_545 S
O16 C0 1.276 . S
O16 Zn7 2.039 1_665 S
C17 O22 1.246 . S
C17 O23 1.249 1_554 S
O18 C0 1.226 1_556 S
O18 Zn15 2.025 1_665 S
H19 C11 0.952 . S
H20 C2 0.952 1_565 S
H21 C10 0.948 . S
O22 Zn7 2.034 1_655 S
O22 C17 1.246 . S
O23 Zn15 2.024 1_655 S
O23 C17 1.249 1_556 S
H24 C6 0.948 . S
O25 Zn15 2.039 . S
O25 C29 1.251 1_556 S
O26 Zn7 2.025 . S
O26 C29 1.254 . S
O27 C8 1.246 1_556 S
O27 Zn15 2.034 1_565 S
O28 Zn7 2.024 1_565 S
O28 C8 1.249 . S
C29 O25 1.251 1_554 S
C29 O26 1.254 . S
H30 C3 0.949 . S
H31 C5 0.950 . S
H32 C12 0.949 . S
H33 C14 0.950 . S
C34 O50 1.251 . S
C34 O52 1.254 . S
N35 C36 1.333 . S
N35 C40 1.307 . S
N35 Zn41 2.020 . S
C36 N35 1.333 . S
C36 C37 1.379 . S
C36 H54 0.952 . S
C37 C36 1.379 . S
C37 C38 1.390 . S
C37 H64 0.949 . S
C38 C37 1.390 . S
C38 C39 1.357 . S
C39 C38 1.357 . S
C39 C40 1.370 . S
C39 H65 0.950 . S
C40 N35 1.307 . S
C40 C39 1.370 . S
C40 H58 0.948 . S
Zn41 N35 2.020 . S
Zn41 O50 2.039 . S
Zn41 O56 2.034 . S
Zn41 O60 2.025 . S
Zn41 O62 2.024 . S
C42 O61 1.246 . S
C42 O62 1.249 . S
N43 C44 1.307 . S
N43 C45 1.333 . S
N43 Zn49 2.020 . S
C44 N43 1.307 . S
C44 C48 1.370 . S
C44 H55 0.948 . S
C45 N43 1.333 . S
C45 C46 1.379 . S
C45 H53 0.952 . S
C46 C45 1.379 . S
C46 C47 1.390 . S
C46 H66 0.949 . S
C47 C46 1.390 . S
C47 C48 1.357 . S
C48 C44 1.370 . S
C48 C47 1.357 . S
C48 H67 0.950 . S
Zn49 N43 2.020 . S
Zn49 O52 2.025 . S
Zn49 O57 2.024 . S
Zn49 O59 2.039 . S
Zn49 O61 2.034 . S
O50 C34 1.251 . S
O50 Zn41 2.039 . S
C51 O56 1.246 . S
C51 O57 1.249 . S
O52 C34 1.254 . S
O52 Zn49 2.025 . S
H53 C45 0.952 . S
H54 C36 0.952 . S
H55 C44 0.948 . S
O56 Zn41 2.034 . S
O56 C51 1.246 . S
O57 Zn49 2.024 . S
O57 C51 1.249 . S
H58 C40 0.948 . S
O59 Zn49 2.039 . S
O59 C63 1.251 . S
O60 Zn41 2.025 . S
O60 C63 1.254 . S
O61 C42 1.246 . S
O61 Zn49 2.034 . S
O62 Zn41 2.024 . S
O62 C42 1.249 . S
C63 O59 1.251 . S
C63 O60 1.254 . S
H64 C37 0.949 . S
H65 C39 0.950 . S
H66 C46 0.949 . S
H67 C48 0.950 . S
O68 Cd69 2.300 1_565 S
O68 C75 1.275 1_565 S
Cd69 O68 2.300 1_545 S
Cd69 O77 2.381 1_545 S
Cd69 O78 2.378 1_545 S
O70 Cd71 2.385 . S
O70 C75 1.255 . S
Cd71 O70 2.385 . S
Cd71 O72 2.317 1_455 S
O72 Cd71 2.317 1_655 S
O72 C73 1.232 . S
C73 O72 1.232 . S
C73 O74 1.218 . S
O74 C73 1.218 . S
C75 O68 1.275 1_545 S
C75 O70 1.255 . S
C76 O77 1.258 . S
C76 O78 1.256 . S
O77 Cd69 2.381 1_565 S
O77 C76 1.258 . S
O78 Cd69 2.378 1_565 S
O78 C76 1.256 . S
O79 Cd80 2.300 . S
O79 C86 1.275 1_545 S
Cd80 O79 2.300 . S
Cd80 O88 2.381 . S
Cd80 O89 2.378 . S
O81 Cd82 2.385 . S
O81 C86 1.255 . S
Cd82 O81 2.385 . S
Cd82 O83 2.317 1_455 S
O83 Cd82 2.317 1_655 S
O83 C84 1.232 . S
C84 O83 1.232 . S
C84 O85 1.218 . S
O85 C84 1.218 . S
C86 O79 1.275 1_565 S
C86 O81 1.255 . S
C87 O88 1.258 . S
C87 O89 1.256 . S
O88 Cd80 2.381 . S
O88 C87 1.258 . S
O89 Cd80 2.378 . S
O89 C87 1.256 . S
O90 Cd91 2.300 . S
O90 C97 1.275 . S
Cd91 O90 2.300 . S
Cd91 O99 2.381 . S
Cd91 O100 2.378 1_556 S
O92 Cd93 2.385 . S
O92 C97 1.255 . S
Cd93 O92 2.385 . S
Cd93 O94 2.317 . S
O94 Cd93 2.317 . S
O94 C95 1.232 . S
C95 O94 1.232 . S
C95 O96 1.218 . S
O96 C95 1.218 . S
C97 O90 1.275 . S
C97 O92 1.255 . S
C98 O99 1.258 . S
C98 O100 1.256 1_556 S
O99 Cd91 2.381 . S
O99 C98 1.258 . S
O100 Cd91 2.378 1_554 S
O100 C98 1.256 1_554 S
O101 Cd102 2.300 . S
O101 C108 1.275 . S
Cd102 O101 2.300 . S
Cd102 O110 2.381 . S
Cd102 O111 2.378 . S
O103 Cd104 2.385 . S
O103 C108 1.255 . S
Cd104 O103 2.385 . S
Cd104 O105 2.317 . S
O105 Cd104 2.317 . S
O105 C106 1.232 . S
C106 O105 1.232 . S
C106 O107 1.218 . S
O107 C106 1.218 . S
C108 O101 1.275 . S
C108 O103 1.255 . S
C109 O110 1.258 . S
C109 O111 1.256 . S
O110 Cd102 2.381 . S
O110 C109 1.258 . S
O111 Cd102 2.378 . S
O111 C109 1.256 . S
H112 C120 0.950 . S
H113 C125 0.950 . S
H114 C122 0.950 . S
H115 C124 0.950 . S
H116 C126 0.950 . S
H117 C128 0.950 . S
H118 C130 0.950 . S
H119 C131 0.950 . S
C120 H112 0.950 . S
C120 C121 1.386 1_556 S
C120 C122 1.391 . S
C121 C120 1.386 1_554 S
C121 C125 1.393 . S
C122 H114 0.950 . S
C122 C120 1.391 . S
C122 C123 1.400 1_556 S
C123 C122 1.400 1_554 S
C123 C124 1.398 . S
C123 C129 1.491 . S
C124 H115 0.950 . S
C124 C123 1.398 . S
C124 C125 1.391 . S
C125 H113 0.950 . S
C125 C121 1.393 . S
C125 C124 1.391 . S
C126 H116 0.950 . S
C126 C127 1.386 . S
C126 C128 1.391 . S
C127 C126 1.386 . S
C127 C131 1.393 1_554 S
C128 H117 0.950 . S
C128 C126 1.391 . S
C128 C129 1.400 . S
C129 C123 1.491 . S
C129 C128 1.400 . S
C129 C130 1.398 1_554 S
C130 H118 0.950 . S
C130 C129 1.398 1_556 S
C130 C131 1.391 . S
C131 H119 0.950 . S
C131 C127 1.393 1_556 S
C131 C130 1.391 . S
H132 C140 0.950 . S
H133 C145 0.950 . S
H134 C142 0.950 . S
H135 C144 0.950 . S
H136 C146 0.950 . S
H137 C148 0.950 . S
H138 C150 0.950 . S
H139 C151 0.950 . S
C140 H132 0.950 . S
C140 C141 1.367 1_554 S
C140 C142 1.391 . S
C141 C140 1.367 1_556 S
C141 C145 1.412 . S
C142 H134 0.950 . S
C142 C140 1.391 . S
C142 C143 1.400 1_554 S
C143 C142 1.400 1_556 S
C143 C144 1.398 . S
C143 C149 1.491 . S
C144 H135 0.950 . S
C144 C143 1.398 . S
C144 C145 1.391 . S
C145 H133 0.950 . S
C145 C141 1.412 . S
C145 C144 1.391 . S
C146 H136 0.950 . S
C146 C147 1.386 . S
C146 C148 1.391 . S
C147 C146 1.386 . S
C147 C151 1.393 1_556 S
C148 H137 0.950 . S
C148 C146 1.391 . S
C148 C149 1.400 . S
C149 C143 1.491 . S
C149 C148 1.400 . S
C149 C150 1.398 1_556 S
C150 H138 0.950 . S
C150 C149 1.398 1_554 S
C150 C151 1.391 . S
C151 H139 0.950 . S
C151 C147 1.393 1_554 S
C151 C150 1.391 . S
H152 C160 0.950 . S
H153 C165 0.950 . S
H154 C162 0.950 . S
H155 C164 0.950 . S
H156 C166 0.946 1_556 S
H157 C168 0.951 1_556 S
H158 C170 0.950 . S
H159 C171 0.950 . S
C160 H152 0.950 . S
C160 C161 1.386 . S
C160 C162 1.391 . S
C161 C160 1.386 . S
C161 C165 1.393 1_554 S
C162 H154 0.950 . S
C162 C160 1.391 . S
C162 C163 1.400 . S
C163 C162 1.400 . S
C163 C164 1.399 1_554 S
C163 C169 1.491 . S
C164 H155 0.950 . S
C164 C163 1.399 1_556 S
C164 C165 1.390 . S
C165 H153 0.950 . S
C165 C161 1.393 1_556 S
C165 C164 1.390 . S
C166 H156 0.946 1_554 S
C166 C167 1.395 . S
C166 C168 1.387 . S
C167 C166 1.395 . S
C167 C171 1.393 . S
C168 H157 0.951 1_554 S
C168 C166 1.387 . S
C168 C169 1.400 . S
C169 C163 1.491 . S
C169 C168 1.400 . S
C169 C170 1.398 . S
C170 H158 0.950 . S
C170 C169 1.398 . S
C170 C171 1.391 . S
C171 H159 0.950 . S
C171 C167 1.393 . S
C171 C170 1.391 . S
H172 C180 0.950 . S
H173 C185 0.950 . S
H174 C182 0.950 . S
H175 C184 0.950 . S
H176 C186 0.950 . S
H177 C188 0.950 . S
H178 C190 0.950 . S
H179 C191 0.950 . S
C180 H172 0.950 . S
C180 C181 1.386 1_556 S
C180 C182 1.391 . S
C181 C180 1.386 1_554 S
C181 C185 1.393 . S
C182 H174 0.950 . S
C182 C180 1.391 . S
C182 C183 1.400 1_556 S
C183 C182 1.400 1_554 S
C183 C184 1.398 . S
C183 C189 1.491 . S
C184 H175 0.950 . S
C184 C183 1.398 . S
C184 C185 1.391 . S
C185 H173 0.950 . S
C185 C181 1.393 . S
C185 C184 1.391 . S
C186 H176 0.950 . S
C186 C187 1.378 1_554 S
C186 C188 1.391 . S
C187 C186 1.378 1_556 S
C187 C191 1.399 . S
C188 H177 0.950 . S
C188 C186 1.391 . S
C188 C189 1.400 . S
C189 C183 1.491 . S
C189 C188 1.400 . S
C189 C190 1.398 1_554 S
C190 H178 0.950 . S
C190 C189 1.398 1_556 S
C190 C191 1.391 . S
C191 H179 0.950 . S
C191 C187 1.399 . S
C191 C190 1.391 . S
H192 C200 0.950 . S
H193 C205 0.950 . S
H194 C202 0.950 . S
H195 C204 0.950 . S
H196 C206 0.950 . S
H197 C208 0.950 . S
H198 C210 0.950 . S
H199 C211 0.950 . S
C200 H192 0.950 . S
C200 C201 1.386 . S
C200 C202 1.391 . S
C201 C200 1.386 . S
C201 C205 1.393 . S
C202 H194 0.950 . S
C202 C200 1.391 . S
C202 C203 1.400 . S
C203 C202 1.400 . S
C203 C204 1.398 . S
C203 C209 1.491 . S
C204 H195 0.950 . S
C204 C203 1.398 . S
C204 C205 1.391 . S
C205 H193 0.950 . S
C205 C201 1.393 . S
C205 C204 1.391 . S
C206 H196 0.950 . S
C206 C207 1.386 . S
C206 C208 1.391 . S
C207 C206 1.386 . S
C207 C211 1.393 . S
C208 H197 0.950 . S
C208 C206 1.391 . S
C208 C209 1.400 . S
C209 C203 1.491 . S
C209 C208 1.400 . S
C209 C210 1.398 . S
C210 H198 0.950 . S
C210 C209 1.398 . S
C210 C211 1.391 . S
C211 H199 0.950 . S
C211 C207 1.393 . S
C211 C210 1.391 . S
H212 C220 0.950 . S
H213 C225 0.950 . S
H214 C222 0.950 . S
H215 C224 0.950 . S
H216 C226 0.950 . S
H217 C228 0.950 . S
H218 C230 0.950 . S
H219 C231 0.950 . S
C220 H212 0.950 . S
C220 C221 1.386 . S
C220 C222 1.391 . S
C221 C220 1.386 . S
C221 C225 1.393 . S
C222 H214 0.950 . S
C222 C220 1.391 . S
C222 C223 1.400 . S
C223 C222 1.400 . S
C223 C224 1.398 . S
C223 C229 1.491 . S
C224 H215 0.950 . S
C224 C223 1.398 . S
C224 C225 1.391 . S
C225 H213 0.950 . S
C225 C221 1.393 . S
C225 C224 1.391 . S
C226 H216 0.950 . S
C226 C227 1.386 . S
C226 C228 1.391 . S
C227 C226 1.386 . S
C227 C231 1.393 . S
C228 H217 0.950 . S
C228 C226 1.391 . S
C228 C229 1.400 . S
C229 C223 1.491 . S
C229 C228 1.400 . S
C229 C230 1.398 . S
C230 H218 0.950 . S
C230 C229 1.398 . S
C230 C231 1.391 . S
C231 H219 0.950 . S
C231 C227 1.393 . S
C231 C230 1.391 . S
H232 C240 0.950 . S
H233 C245 0.950 . S
H234 C242 0.950 . S
H235 C244 0.950 . S
H236 C246 0.950 . S
H237 C248 0.950 . S
H238 C250 0.950 . S
H239 C251 0.950 . S
C240 H232 0.950 . S
C240 C241 1.386 . S
C240 C242 1.391 . S
C241 C240 1.386 . S
C241 C245 1.393 . S
C242 H234 0.950 . S
C242 C240 1.391 . S
C242 C243 1.400 . S
C243 C242 1.400 . S
C243 C244 1.398 . S
C243 C249 1.491 . S
C244 H235 0.950 . S
C244 C243 1.398 . S
C244 C245 1.391 . S
C245 H233 0.950 . S
C245 C241 1.393 . S
C245 C244 1.391 . S
C246 H236 0.950 . S
C246 C247 1.386 . S
C246 C248 1.391 . S
C247 C246 1.386 . S
C247 C251 1.393 . S
C248 H237 0.950 . S
C248 C246 1.391 . S
C248 C249 1.400 . S
C249 C243 1.491 . S
C249 C248 1.400 . S
C249 C250 1.398 . S
C250 H238 0.950 . S
C250 C249 1.398 . S
C250 C251 1.391 . S
C251 H239 0.950 . S
C251 C247 1.393 . S
C251 C250 1.391 . S
H252 C260 0.950 . S
H253 C265 0.950 . S
H254 C262 0.950 . S
H255 C264 0.950 . S
H256 C266 0.950 . S
H257 C268 0.950 . S
H258 C270 0.950 . S
H259 C271 0.950 . S
C260 H252 0.950 . S
C260 C261 1.386 . S
C260 C262 1.391 . S
C261 C260 1.386 . S
C261 C265 1.393 . S
C262 H254 0.950 . S
C262 C260 1.391 . S
C262 C263 1.400 . S
C263 C262 1.400 . S
C263 C264 1.398 . S
C263 C269 1.491 . S
C264 H255 0.950 . S
C264 C263 1.398 . S
C264 C265 1.391 . S
C265 H253 0.950 . S
C265 C261 1.393 . S
C265 C264 1.391 . S
C266 H256 0.950 . S
C266 C267 1.386 . S
C266 C268 1.391 . S
C267 C266 1.386 . S
C267 C271 1.393 . S
C268 H257 0.950 . S
C268 C266 1.391 . S
C268 C269 1.400 . S
C269 C263 1.491 . S
C269 C268 1.400 . S
C269 C270 1.398 . S
C270 H258 0.950 . S
C270 C269 1.398 . S
C270 C271 1.391 . S
C271 H259 0.950 . S
C271 C267 1.393 . S
C271 C270 1.391 . S
H272 C280 0.950 . S
H273 C285 0.950 . S
H274 C282 0.950 . S
H275 C284 0.950 . S
H276 C286 0.950 . S
H277 C288 0.950 . S
H278 C290 0.947 1_565 S
H279 C291 0.950 . S
C280 H272 0.950 . S
C280 C281 1.386 . S
C280 C282 1.391 . S
C281 C280 1.386 . S
C281 C285 1.393 1_455 S
C282 H274 0.950 . S
C282 C280 1.391 . S
C282 C283 1.400 . S
C283 C282 1.400 . S
C283 C284 1.398 1_455 S
C283 C289 1.491 . S
C284 H275 0.950 . S
C284 C283 1.398 1_655 S
C284 C285 1.391 . S
C285 H273 0.950 . S
C285 C281 1.393 1_655 S
C285 C284 1.391 . S
C286 H276 0.950 . S
C286 C287 1.386 1_655 S
C286 C288 1.391 . S
C287 C286 1.386 1_455 S
C287 C291 1.393 . S
C288 H277 0.950 . S
C288 C286 1.391 . S
C288 C289 1.400 1_655 S
C289 C283 1.491 . S
C289 C288 1.400 1_455 S
C289 C290 1.398 . S
C290 H278 0.947 1_545 S
C290 C289 1.398 . S
C290 C291 1.391 . S
C291 H279 0.950 . S
C291 C287 1.393 . S
C291 C290 1.391 . S
H292 C300 0.950 . S
H293 C305 0.950 . S
H294 C302 0.950 . S
H295 C304 0.950 . S
H296 C306 0.950 . S
H297 C308 0.950 . S
H298 C310 0.950 . S
H299 C311 0.950 . S
C300 H292 0.950 . S
C300 C301 1.386 1_665 S
C300 C302 1.391 . S
C301 C300 1.386 1_445 S
C301 C305 1.393 . S
C302 H294 0.950 . S
C302 C300 1.391 . S
C302 C303 1.401 1_665 S
C303 C302 1.401 1_445 S
C303 C304 1.398 . S
C303 C309 1.491 1_545 S
C304 H295 0.950 . S
C304 C303 1.398 . S
C304 C305 1.391 . S
C305 H293 0.950 . S
C305 C301 1.393 . S
C305 C304 1.391 . S
C306 H296 0.950 . S
C306 C307 1.386 1_545 S
C306 C308 1.391 . S
C307 C306 1.386 1_565 S
C307 C311 1.393 1_455 S
C308 H297 0.950 . S
C308 C306 1.391 . S
C308 C309 1.400 1_545 S
C309 C303 1.491 1_565 S
C309 C308 1.400 1_565 S
C309 C310 1.398 1_455 S
C310 H298 0.950 . S
C310 C309 1.398 1_655 S
C310 C311 1.391 . S
C311 H299 0.950 . S
C311 C307 1.393 1_655 S
C311 C310 1.391 . S
H312 C320 0.950 . S
H313 C325 0.950 . S
H314 C322 0.950 . S
H315 C324 0.950 . S
H316 C326 0.950 . S
H317 C328 0.950 . S
H318 C330 0.950 . S
H319 C331 0.950 . S
C320 H312 0.950 . S
C320 C321 1.386 . S
C320 C322 1.391 . S
C321 C320 1.386 . S
C321 C325 1.393 . S
C322 H314 0.950 . S
C322 C320 1.391 . S
C322 C323 1.400 . S
C323 C322 1.400 . S
C323 C324 1.398 . S
C323 C329 1.491 . S
C324 H315 0.950 . S
C324 C323 1.398 . S
C324 C325 1.391 . S
C325 H313 0.950 . S
C325 C321 1.393 . S
C325 C324 1.391 . S
C326 H316 0.950 . S
C326 C327 1.386 . S
C326 C328 1.391 . S
C327 C326 1.386 . S
C327 C331 1.393 . S
C328 H317 0.950 . S
C328 C326 1.391 . S
C328 C329 1.400 . S
C329 C323 1.491 . S
C329 C328 1.400 . S
C329 C330 1.398 . S
C330 H318 0.950 . S
C330 C329 1.398 . S
C330 C331 1.391 . S
C331 H319 0.950 . S
C331 C327 1.393 . S
C331 C330 1.391 . S
H332 C340 0.950 . S
H333 C345 0.950 . S
H334 C342 0.950 . S
H335 C344 0.950 . S
H336 C346 0.950 . S
H337 C348 0.950 . S
H338 C350 0.950 . S
H339 C351 0.950 . S
C340 H332 0.950 . S
C340 C341 1.386 . S
C340 C342 1.391 . S
C341 C340 1.386 . S
C341 C345 1.393 . S
C342 H334 0.950 . S
C342 C340 1.391 . S
C342 C343 1.400 . S
C343 C342 1.400 . S
C343 C344 1.398 . S
C343 C349 1.491 . S
C344 H335 0.950 . S
C344 C343 1.398 . S
C344 C345 1.391 . S
C345 H333 0.950 . S
C345 C341 1.393 . S
C345 C344 1.391 . S
C346 H336 0.950 . S
C346 C347 1.386 . S
C346 C348 1.391 . S
C347 C346 1.386 . S
C347 C351 1.393 . S
C348 H337 0.950 . S
C348 C346 1.391 . S
C348 C349 1.400 . S
C349 C343 1.491 . S
C349 C348 1.400 . S
C349 C350 1.398 . S
C350 H338 0.950 . S
C350 C349 1.398 . S
C350 C351 1.391 . S
C351 H339 0.950 . S
C351 C347 1.393 . S
C351 C350 1.391 . S
C127 C106 1.240 . S
C121 C29 1.488 . S
C141 C8 1.491 1_556 S
C147 C95 1.236 . S
C161 C0 1.448 . S
C167 C109 1.419 . S
C181 C17 1.432 . S
C187 C98 1.396 . S
C201 C63 1.486 . S
C207 C84 1.259 . S
C221 C42 1.489 . S
C227 C73 1.240 . S
C247 C87 1.417 . S
C241 C34 1.443 . S
C267 C76 1.399 . S
C261 C51 1.431 . S
C281 C4 1.509 . S
C287 C75 1.457 . S
C301 C13 1.501 . S
C307 C86 1.448 . S
C327 C97 1.452 . S
C321 C38 1.510 . S
C341 C47 1.500 . S
C347 C108 1.451 . S
