# Generated by pormake.
# Topology pyr, (3,6)-cn, num edge types: 1
# Building blocks:
#     Node 0, Type 0, BuildingBlock: OLANEW_clean_sbu_2, # of connection points: 3
#     Node 1, Type 0, BuildingBlock: OLANEW_clean_sbu_2, # of connection points: 3
#     Node 2, Type 0, BuildingBlock: OLANEW_clean_sbu_2, # of connection points: 3
#     Node 3, Type 0, BuildingBlock: OLANEW_clean_sbu_2, # of connection points: 3
#     Node 4, Type 0, BuildingBlock: OLANEW_clean_sbu_2, # of connection points: 3
#     Node 5, Type 0, BuildingBlock: OLANEW_clean_sbu_2, # of connection points: 3
#     Node 6, Type 0, BuildingBlock: OLANEW_clean_sbu_2, # of connection points: 3
#     Node 7, Type 0, BuildingBlock: OLANEW_clean_sbu_2, # of connection points: 3
#     Node 8, Type 1, BuildingBlock: BETDIP_clean_sbu_0, # of connection points: 6
#     Node 9, Type 1, BuildingBlock: BETDIP_clean_sbu_0, # of connection points: 6
#     Node 10, Type 1, BuildingBlock: BETDIP_clean_sbu_0, # of connection points: 6
#     Node 11, Type 1, BuildingBlock: BETDIP_clean_sbu_0, # of connection points: 6
#     Edge 12, Type (0, 1), BuildingBlock: XUDNAN_clean_linker_2, # of connection points: 2
#     Edge 13, Type (0, 1), BuildingBlock: XUDNAN_clean_linker_2, # of connection points: 2
#     Edge 14, Type (0, 1), BuildingBlock: XUDNAN_clean_linker_2, # of connection points: 2
#     Edge 15, Type (0, 1), BuildingBlock: XUDNAN_clean_linker_2, # of connection points: 2
#     Edge 16, Type (0, 1), BuildingBlock: XUDNAN_clean_linker_2, # of connection points: 2
#     Edge 17, Type (0, 1), BuildingBlock: XUDNAN_clean_linker_2, # of connection points: 2
#     Edge 18, Type (0, 1), BuildingBlock: XUDNAN_clean_linker_2, # of connection points: 2
#     Edge 19, Type (0, 1), BuildingBlock: XUDNAN_clean_linker_2, # of connection points: 2
#     Edge 20, Type (0, 1), BuildingBlock: XUDNAN_clean_linker_2, # of connection points: 2
#     Edge 21, Type (0, 1), BuildingBlock: XUDNAN_clean_linker_2, # of connection points: 2
#     Edge 22, Type (0, 1), BuildingBlock: XUDNAN_clean_linker_2, # of connection points: 2
#     Edge 23, Type (0, 1), BuildingBlock: XUDNAN_clean_linker_2, # of connection points: 2
#     Edge 24, Type (0, 1), BuildingBlock: XUDNAN_clean_linker_2, # of connection points: 2
#     Edge 25, Type (0, 1), BuildingBlock: XUDNAN_clean_linker_2, # of connection points: 2
#     Edge 26, Type (0, 1), BuildingBlock: XUDNAN_clean_linker_2, # of connection points: 2
#     Edge 27, Type (0, 1), BuildingBlock: XUDNAN_clean_linker_2, # of connection points: 2
#     Edge 28, Type (0, 1), BuildingBlock: XUDNAN_clean_linker_2, # of connection points: 2
#     Edge 29, Type (0, 1), BuildingBlock: XUDNAN_clean_linker_2, # of connection points: 2
#     Edge 30, Type (0, 1), BuildingBlock: XUDNAN_clean_linker_2, # of connection points: 2
#     Edge 31, Type (0, 1), BuildingBlock: XUDNAN_clean_linker_2, # of connection points: 2
#     Edge 32, Type (0, 1), BuildingBlock: XUDNAN_clean_linker_2, # of connection points: 2
#     Edge 33, Type (0, 1), BuildingBlock: XUDNAN_clean_linker_2, # of connection points: 2
#     Edge 34, Type (0, 1), BuildingBlock: XUDNAN_clean_linker_2, # of connection points: 2
#     Edge 35, Type (0, 1), BuildingBlock: XUDNAN_clean_linker_2, # of connection points: 2
# Relax obj value: 0.161
# Max RMSD: 0.234
# Mean RMSD: 0.144
data_MOF--net-pyr--node1-OLANEW_clean_sbu_2--node2-BETDIP_clean_sbu_0--edge1-XUDNAN_clean_linker_2
_symmetry_space_group_name_H-M    P1
_symmetry_Int_Tables_number       1
_symmetry_cell_setting            triclinic
loop_
_symmetry_equiv_pos_as_xyz
'x, y, z'
_cell_length_a     37.819697
_cell_length_b     43.507392
_cell_length_c     41.541715
_cell_angle_alpha  92.153343
_cell_angle_beta   92.840357
_cell_angle_gamma 107.77449
loop_
_atom_site_label
_atom_site_type_symbol
_atom_site_fract_x
_atom_site_fract_y
_atom_site_fract_z
_atom_type_partial_charge
O0 O 0.40231 0.26277 0.1469 0.0
Cd1 Cd 0.39324 0.31638 0.14761 0.0
O2 O 0.3669 0.24978 0.18749 0.0
Cd3 Cd 0.34243 0.22168 0.22788 0.0
O4 O 0.3166 0.20425 0.27233 0.0
C5 C 0.33039 0.21999 0.29876 0.0
O6 O 0.35994 0.24548 0.29832 0.0
C7 C 0.38806 0.24259 0.16764 0.0
C8 C 0.32067 0.31968 0.13921 0.0
O9 O 0.33381 0.31423 0.16671 0.0
O10 O 0.34138 0.3225 0.11529 0.0
O11 O 0.24591 0.84887 0.77284 0.0
Cd12 Cd 0.22577 0.84425 0.71564 0.0
O13 O 0.19511 0.81281 0.78692 0.0
Cd14 Cd 0.16633 0.81542 0.74094 0.0
O15 O 0.13531 0.83872 0.70987 0.0
C16 C 0.10267 0.83732 0.71724 0.0
O17 O 0.0886 0.82046 0.74172 0.0
C18 C 0.22787 0.83147 0.79416 0.0
C19 C 0.25435 0.79895 0.68669 0.0
O20 O 0.27283 0.82911 0.68863 0.0
O21 O 0.22176 0.79039 0.69741 0.0
O22 O 0.69755 0.40606 0.88333 0.0
Cd23 Cd 0.64658 0.38015 0.84141 0.0
O24 O 0.69661 0.37251 0.92304 0.0
Cd25 Cd 0.65124 0.32575 0.91798 0.0
O26 O 0.62213 0.27524 0.93069 0.0
C27 C 0.62522 0.26616 0.9593 0.0
O28 O 0.64536 0.28737 0.9816 0.0
C29 C 0.71097 0.39937 0.91012 0.0
C30 C 0.6185 0.41839 0.79891 0.0
O31 O 0.60172 0.40681 0.82391 0.0
O32 O 0.6496 0.41336 0.79439 0.0
O33 O 0.916 0.76261 0.34392 0.0
Cd34 Cd 0.88389 0.70816 0.3162 0.0
O35 O 0.87791 0.75878 0.38355 0.0
Cd36 Cd 0.83964 0.7092 0.37815 0.0
O37 O 0.79603 0.67161 0.4004 0.0
C38 C 0.77333 0.68101 0.41685 0.0
O39 O 0.77633 0.71193 0.41851 0.0
C40 C 0.9058 0.77504 0.36889 0.0
C41 C 0.91813 0.67523 0.27289 0.0
O42 O 0.90171 0.69504 0.26243 0.0
O43 O 0.9201 0.67241 0.30351 0.0
O44 O 0.69502 0.76094 0.79257 0.0
Cd45 Cd 0.66592 0.7209 0.83081 0.0
O46 O 0.68179 0.79636 0.82442 0.0
Cd47 Cd 0.6756 0.8414 0.84517 0.0
O48 O 0.66683 0.87855 0.87806 0.0
C49 C 0.63798 0.87197 0.89421 0.0
O50 O 0.61339 0.84311 0.89007 0.0
C51 C 0.69641 0.79009 0.79901 0.0
C52 C 0.71915 0.71012 0.87408 0.0
O53 O 0.70768 0.69213 0.84816 0.0
O54 O 0.70527 0.73309 0.87964 0.0
O55 O 0.90942 0.30119 0.32668 0.0
Cd56 Cd 0.95003 0.30456 0.37498 0.0
O57 O 0.8761 0.32324 0.35584 0.0
Cd58 Cd 0.82847 0.33843 0.36928 0.0
O59 O 0.78821 0.36302 0.38172 0.0
C60 C 0.75468 0.34784 0.38681 0.0
O61 O 0.74346 0.31609 0.38443 0.0
C62 C 0.88078 0.31041 0.32897 0.0
C63 C 0.94498 0.24211 0.39236 0.0
O64 O 0.97263 0.2586 0.37726 0.0
O65 O 0.9202 0.25527 0.39965 0.0
O66 O 0.45379 0.77006 0.26656 0.0
Cd67 Cd 0.42286 0.7152 0.28675 0.0
O68 O 0.41048 0.76946 0.22828 0.0
Cd69 Cd 0.37067 0.72059 0.22944 0.0
O70 O 0.3222 0.68021 0.20985 0.0
C71 C 0.31209 0.67962 0.18005 0.0
O72 O 0.33135 0.70253 0.16239 0.0
C73 C 0.44128 0.78396 0.24399 0.0
C74 C 0.44366 0.69456 0.34725 0.0
O75 O 0.45829 0.68902 0.32133 0.0
O76 O 0.42085 0.71108 0.345 0.0
O77 O 0.13752 0.39048 0.79884 0.0
Cd78 Cd 0.16013 0.36755 0.75161 0.0
O79 O 0.08075 0.35618 0.78989 0.0
Cd80 Cd 0.08832 0.32179 0.75148 0.0
O81 O 0.07146 0.28221 0.71253 0.0
C82 C 0.08031 0.25611 0.71142 0.0
O83 O 0.10263 0.2513 0.73459 0.0
C84 C 0.10357 0.38054 0.80574 0.0
C85 C 0.21656 0.41093 0.71908 0.0
O86 O 0.18254 0.41038 0.71524 0.0
O87 O 0.22428 0.39154 0.73873 0.0
Tb88 Tb 0.94892 1.00027 0.53972 0.0
Tb89 Tb 0.03331 0.03517 0.53508 0.0
C90 C 0.88581 0.96009 0.54477 0.0
C91 C 0.8668 0.94523 0.57296 0.0
C92 C 0.83206 0.9214 0.56897 0.0
C93 C 0.81342 0.90824 0.59597 0.0
C94 C 0.82928 0.91879 0.62741 0.0
C95 C 0.86443 0.94239 0.63114 0.0
C96 C 0.88293 0.95553 0.6042 0.0
C97 C 0.97604 0.05733 0.57122 0.0
C98 C 0.00851 0.98202 0.58622 0.0
C99 C 0.09541 0.07791 0.5411 0.0
C100 C 0.12281 0.09522 0.51881 0.0
C101 C 0.13901 0.12876 0.5235 0.0
C102 C 0.16492 0.14571 0.50254 0.0
C103 C 0.17529 0.12936 0.47652 0.0
C104 C 0.15882 0.0957 0.47185 0.0
C105 C 0.13271 0.07882 0.49267 0.0
C106 C 0.00971 0.986 0.49063 0.0
C107 C 0.97275 0.0492 0.48701 0.0
O108 O 0.91511 0.95183 0.53763 0.0
O109 O 0.89174 0.99127 0.54392 0.0
O110 O 0.99231 0.03609 0.56839 0.0
O111 O 0.9425 0.04576 0.55832 0.0
O112 O 0.97324 0.97737 0.5768 0.0
O113 O 0.03641 1.00433 0.57451 0.0
O114 O 0.06375 0.08446 0.54 0.0
O115 O 0.09101 0.04695 0.54322 0.0
O116 O 0.99166 0.99559 0.51125 0.0
O117 O 0.04343 1.00555 0.49415 0.0
O118 O 0.00561 0.06072 0.50318 0.0
O119 O 0.9484 0.02126 0.49324 0.0
H120 H 0.81916 0.91326 0.54501 0.0
H121 H 0.78627 0.89032 0.59223 0.0
H122 H 0.87776 0.95067 0.65492 0.0
H123 H 0.90974 0.97398 0.60776 0.0
H124 H 0.13149 0.14189 0.54336 0.0
H125 H 0.17652 0.17168 0.50654 0.0
H126 H 0.16645 0.08225 0.45235 0.0
H127 H 0.12043 0.05294 0.48837 0.0
Tb128 Tb 0.56585 0.05039 0.1186 0.0
Tb129 Tb 0.49166 1.00752 0.09296 0.0
C130 C 0.62459 0.09401 0.13702 0.0
C131 C 0.64094 0.12876 0.14585 0.0
C132 C 0.62854 0.14387 0.17156 0.0
C133 C 0.65023 0.17439 0.18442 0.0
C134 C 0.68456 0.19002 0.17183 0.0
C135 C 0.69497 0.17616 0.14421 0.0
C136 C 0.67337 0.14578 0.13139 0.0
C137 C 0.54507 0.992 0.14258 0.0
C138 C 0.49416 0.0653 0.14173 0.0
C139 C 0.42893 0.96619 0.08241 0.0
C140 C 0.40785 0.94605 0.05439 0.0
C141 C 0.38889 0.91334 0.05794 0.0
C142 C 0.36799 0.89401 0.03177 0.0
C143 C 0.36554 0.90716 1.00162 0.0
C144 C 0.38505 0.93993 0.99814 0.0
C145 C 0.40618 0.95912 0.02419 0.0
C146 C 0.52289 0.05518 0.0553 0.0
C147 C 0.56259 0.99968 0.06296 0.0
O148 O 0.61437 0.08558 0.10651 0.0
O149 O 0.60198 0.07617 0.15683 0.0
O150 O 0.52454 1.00935 0.13661 0.0
O151 O 0.57861 1.00806 0.13662 0.0
O152 O 0.53036 0.07667 0.13842 0.0
O153 O 0.4741 0.03656 0.12914 0.0
O154 O 0.45844 0.95912 0.09337 0.0
O155 O 0.43472 0.99741 0.08141 0.0
O156 O 0.52402 0.05636 0.08559 0.0
O157 O 0.50108 0.02702 0.04484 0.0
O158 O 0.52888 0.98388 0.07144 0.0
O159 O 0.58033 0.02917 0.07506 0.0
H160 H 0.60346 0.13132 0.18303 0.0
H161 H 0.64161 0.18451 0.20577 0.0
H162 H 0.72111 0.1879 0.13385 0.0
H163 H 0.68335 0.13465 0.11147 0.0
H164 H 0.39011 0.90278 0.08103 0.0
H165 H 0.35379 0.86878 0.03518 0.0
H166 H 0.38334 0.95107 0.97548 0.0
H167 H 0.42078 0.98427 0.02074 0.0
Tb168 Tb 0.51059 0.57805 0.5947 0.0
Tb169 Tb 0.49713 0.51431 0.55863 0.0
C170 C 0.5075 0.63135 0.61768 0.0
C171 C 0.47709 0.64523 0.62193 0.0
C172 C 0.44157 0.63001 0.6071 0.0
C173 C 0.41254 0.64294 0.6117 0.0
C174 C 0.41842 0.67127 0.63143 0.0
C175 C 0.45417 0.68646 0.64623 0.0
C176 C 0.48325 0.67353 0.64147 0.0
C177 C 0.53905 0.53651 0.62411 0.0
C178 C 0.43294 0.52367 0.59968 0.0
C179 C 0.49156 0.45785 0.53907 0.0
C180 C 0.51144 0.44568 0.51456 0.0
C181 C 0.52531 0.46434 0.48848 0.0
C182 C 0.55026 0.456 0.46886 0.0
C183 C 0.56224 0.42909 0.47521 0.0
C184 C 0.54684 0.40959 0.50043 0.0
C185 C 0.52167 0.41786 0.51994 0.0
C186 C 0.48894 0.56132 0.52272 0.0
C187 C 0.57217 0.56835 0.55199 0.0
O188 O 0.51476 0.62644 0.58773 0.0
O189 O 0.50687 0.60685 0.63521 0.0
O190 O 0.50849 0.53064 0.60804 0.0
O191 O 0.55492 0.56751 0.62488 0.0
O192 O 0.45229 0.55464 0.60428 0.0
O193 O 0.44568 0.50288 0.58363 0.0
O194 O 0.51291 0.47272 0.56436 0.0
O195 O 0.46873 0.47337 0.52871 0.0
O196 O 0.47935 0.55614 0.55116 0.0
O197 O 0.50155 0.53842 0.51271 0.0
O198 O 0.55669 0.53699 0.55472 0.0
O199 O 0.55614 0.58948 0.56265 0.0
H200 H 0.43621 0.60806 0.59203 0.0
H201 H 0.38555 0.63083 0.59961 0.0
H202 H 0.45955 0.708 0.66198 0.0
H203 H 0.51047 0.68547 0.65327 0.0
H204 H 0.51816 0.48616 0.48408 0.0
H205 H 0.56109 0.47124 0.44934 0.0
H206 H 0.55575 0.38894 0.50628 0.0
H207 H 0.51171 0.40346 0.54026 0.0
Tb208 Tb 0.01881 0.55758 0.02618 0.0
Tb209 Tb 0.015 0.49723 0.05957 0.0
C210 C 0.00688 0.6052 1.00023 0.0
C211 C 0.9763 0.6194 0.99737 0.0
C212 C 0.93907 0.60014 0.99812 0.0
C213 C 0.91024 0.61336 0.99179 0.0
C214 C 0.91825 0.64616 0.98527 0.0
C215 C 0.95556 0.6657 0.9861 0.0
C216 C 0.98436 0.65234 0.99192 0.0
C217 C 0.08331 0.55675 0.05405 0.0
C218 C 0.98926 0.54957 0.0966 0.0
C219 C 0.02724 0.45024 0.08659 0.0
C220 C 0.05391 0.43165 0.0872 0.0
C221 C 0.09187 0.44624 0.08286 0.0
C222 C 0.11726 0.42893 0.08779 0.0
C223 C 0.10508 0.3968 0.0972 0.0
C224 C 0.06678 0.38194 0.09992 0.0
C225 C 0.04151 0.39922 0.09502 0.0
C226 C 0.95039 0.49853 0.03226 0.0
C227 C 0.0412 0.50388 0.98826 0.0
O228 O 1.00068 0.57682 0.98549 0.0
O229 O 0.02354 0.6071 0.02887 0.0
O230 O 0.05152 0.54557 0.06442 0.0
O231 O 0.07973 0.57087 0.02776 0.0
O232 O 0.98648 0.56174 0.06812 0.0
O233 O 1.00358 0.52556 0.09967 0.0
O234 O 0.03979 0.4802 0.0982 0.0
O235 O 0.00537 0.44697 0.06046 0.0
O236 O 0.98208 0.50947 0.02167 0.0
O237 O 0.95389 0.48388 0.05824 0.0
O238 O 0.04571 0.49232 1.01672 0.0
O239 O 0.02656 0.52771 0.98562 0.0
H240 H 0.93229 0.57477 1.00282 0.0
H241 H 0.8817 0.59789 0.99162 0.0
H242 H 0.96247 0.691 0.98095 0.0
H243 H 0.01294 0.66756 0.99133 0.0
H244 H 0.10205 0.47129 0.07678 0.0
H245 H 0.14657 0.44115 0.08566 0.0
H246 H 0.05638 0.35708 0.10654 0.0
H247 H 0.01232 0.38751 0.09837 0.0
H248 H 0.26616 0.17107 0.30757 0.0
H249 H 0.35474 0.24754 0.35935 0.0
H250 H 0.32492 0.23258 0.41042 0.0
H251 H 0.19198 0.18084 0.3531 0.0
H252 H 0.16745 0.13817 0.35243 0.0
H253 H 0.19618 0.15442 0.32 0.0
H254 H 0.23342 0.11411 0.32947 0.0
H255 H 0.20479 0.09773 0.36194 0.0
H256 H 0.25464 0.11296 0.36905 0.0
H257 H 0.28542 0.2094 0.45586 0.0
H258 H 0.23901 0.17967 0.49241 0.0
H259 H 0.17523 0.11953 0.41065 0.0
C260 C 0.2794 0.18461 0.32965 0.0
C261 C 0.31286 0.21045 0.32944 0.0
C262 C 0.32915 0.22762 0.35888 0.0
C263 C 0.31243 0.21932 0.38803 0.0
C264 C 0.2794 0.19382 0.38735 0.0
C265 C 0.26305 0.17671 0.35894 0.0
C266 C 0.22731 0.15057 0.36479 0.0
C267 C 0.19376 0.15637 0.3465 0.0
C268 C 0.23024 0.11685 0.35578 0.0
C269 C 0.22609 0.15572 0.40091 0.0
C270 C 0.25643 0.18071 0.41347 0.0
C271 C 0.26145 0.18986 0.44628 0.0
C272 C 0.23476 0.17296 0.46682 0.0
C273 C 0.20331 0.14728 0.45448 0.0
C274 C 0.1991 0.13873 0.421 0.0
H275 H 0.29873 0.86593 0.81658 0.0
H276 H 0.19414 0.80355 0.84738 0.0
H277 H 0.22028 0.81196 0.90384 0.0
H278 H 0.3599 0.8414 0.87589 0.0
H279 H 0.39187 0.88181 0.88124 0.0
H280 H 0.36622 0.86802 0.84298 0.0
H281 H 0.34058 0.91687 0.84566 0.0
H282 H 0.36594 0.9307 0.88393 0.0
H283 H 0.31633 0.9234 0.88029 0.0
H284 H 0.2554 0.83204 0.95731 0.0
H285 H 0.2971 0.86142 1.00347 0.0
H286 H 0.3796 0.90865 0.93734 0.0
C287 C 0.28147 0.85357 0.83509 0.0
C288 C 0.24438 0.83409 0.82756 0.0
C289 C 0.22269 0.81851 0.85255 0.0
C290 C 0.23729 0.8231 0.88469 0.0
C291 C 0.27374 0.84299 0.89134 0.0
C292 C 0.29565 0.85772 0.86719 0.0
C293 C 0.33318 0.8794 0.88085 0.0
C294 C 0.36465 0.8669 0.86957 0.0
C295 C 0.33934 0.91467 0.87217 0.0
C296 C 0.32848 0.87544 0.91654 0.0
C297 C 0.29418 0.85413 0.92212 0.0
C298 C 0.28263 0.8483 0.95325 0.0
C299 C 0.30663 0.865 0.97934 0.0
C300 C 0.34176 0.88731 0.97413 0.0
C301 C 0.35289 0.89198 0.94223 0.0
H302 H 0.65216 0.4642 0.7558 0.0
H303 H 0.54454 0.40906 0.78724 0.0
H304 H 0.51344 0.43228 0.74539 0.0
H305 H 0.62549 0.53676 0.74052 0.0
H306 H 0.653 0.54666 0.70597 0.0
H307 H 0.66719 0.52519 0.73789 0.0
H308 H 0.66806 0.47961 0.69634 0.0
H309 H 0.65363 0.50084 0.66433 0.0
H310 H 0.62684 0.45976 0.67076 0.0
H311 H 0.49359 0.4581 0.69797 0.0
H312 H 0.48587 0.49107 0.65279 0.0
H313 H 0.60561 0.53473 0.6543 0.0
C314 C 0.62207 0.45716 0.7539 0.0
C315 C 0.60078 0.43462 0.7748 0.0
C316 C 0.56147 0.4263 0.7717 0.0
C317 C 0.54351 0.43924 0.74783 0.0
C318 C 0.56514 0.4611 0.72749 0.0
C319 C 0.60356 0.47059 0.73062 0.0
C320 C 0.61996 0.49567 0.70635 0.0
C321 C 0.64276 0.52799 0.72372 0.0
C322 C 0.64352 0.48322 0.68307 0.0
C323 C 0.58475 0.49843 0.68891 0.0
C324 C 0.55353 0.47779 0.70127 0.0
C325 C 0.51781 0.47466 0.68839 0.0
C326 C 0.51373 0.49343 0.66257 0.0
C327 C 0.54509 0.51568 0.65012 0.0
C328 C 0.58113 0.51816 0.66352 0.0
H329 H 0.91888 0.67469 0.2058 0.0
H330 H 0.94922 0.62849 0.28907 0.0
H331 H 0.96903 0.59148 0.25305 0.0
H332 H 0.88323 0.60271 0.15361 0.0
H333 H 0.90167 0.6216 0.11757 0.0
H334 H 0.89016 0.64524 0.14961 0.0
H335 H 0.95715 0.68497 0.15266 0.0
H336 H 0.96874 0.66157 0.12045 0.0
H337 H 0.99609 0.6696 0.15837 0.0
H338 H 0.98354 0.55802 0.20862 0.0
H339 H 0.9963 0.53252 0.15861 0.0
H340 H 0.95867 0.60025 0.10255 0.0
C341 C 0.92997 0.65695 0.21646 0.0
C342 C 0.93243 0.65466 0.25049 0.0
C343 C 0.94705 0.63096 0.26327 0.0
C344 C 0.95831 0.60967 0.24293 0.0
C345 C 0.95509 0.61227 0.20966 0.0
C346 C 0.94165 0.63548 0.19639 0.0
C347 C 0.94153 0.63299 0.15967 0.0
C348 C 0.90178 0.62517 0.14421 0.0
C349 C 0.96742 0.66414 0.14705 0.0
C350 C 0.9568 0.6047 0.15449 0.0
C351 C 0.96417 0.59311 0.18376 0.0
C352 C 0.97803 0.56699 0.18556 0.0
C353 C 0.98509 0.55255 0.15683 0.0
C354 C 0.97857 0.56418 0.12635 0.0
C355 C 0.96394 0.59061 0.12532 0.0
H356 H 0.45413 0.23371 0.15425 0.0
H357 H 0.34428 0.183 0.18417 0.0
H358 H 0.36144 0.13252 0.18612 0.0
H359 H 0.46319 0.17095 0.10249 0.0
H360 H 0.5121 0.1787 0.11258 0.0
H361 H 0.49205 0.21114 0.11569 0.0
H362 H 0.51686 0.22317 0.17555 0.0
H363 H 0.53721 0.19081 0.1726 0.0
H364 H 0.50525 0.19122 0.20329 0.0
H365 H 0.38922 0.08649 0.17983 0.0
H366 H 0.42536 0.04937 0.16662 0.0
H367 H 0.51781 0.13117 0.1434 0.0
C368 C 0.43378 0.21203 0.16147 0.0
C369 C 0.39803 0.21232 0.1695 0.0
C370 C 0.37211 0.18348 0.1787 0.0
C371 C 0.38157 0.15467 0.1797 0.0
C372 C 0.41718 0.15525 0.17175 0.0
C373 C 0.44293 0.18327 0.16299 0.0
C374 C 0.47886 0.17737 0.15448 0.0
C375 C 0.48699 0.18499 0.11922 0.0
C376 C 0.51147 0.1968 0.17788 0.0
C377 C 0.46914 0.14149 0.15918 0.0
C378 C 0.43346 0.12909 0.16914 0.0
C379 C 0.41742 0.09605 0.17259 0.0
C380 C 0.43815 0.07515 0.16509 0.0
C381 C 0.47462 0.08742 0.15456 0.0
C382 C 0.49042 0.12111 0.15227 0.0
H383 H 0.12837 0.88315 0.67318 0.0
H384 H 0.03009 0.83464 0.72304 0.0
H385 H 0.996 0.86785 0.69638 0.0
H386 H 0.1171 0.96223 0.67851 0.0
H387 H 0.13337 0.97256 0.63909 0.0
H388 H 0.15006 0.9447 0.6617 0.0
H389 H 0.12838 0.90166 0.61405 0.0
H390 H 0.11194 0.92949 0.5912 0.0
H391 H 0.0807 0.89009 0.59803 0.0
H392 H 0.97235 0.90562 0.66379 0.0
H393 H 0.96043 0.94495 0.62689 0.0
H394 H 0.0747 0.97004 0.59951 0.0
C395 C 0.09961 0.87936 0.67837 0.0
C396 C 0.08184 0.85623 0.70014 0.0
C397 C 0.04427 0.85221 0.70645 0.0
C398 C 0.02469 0.87099 0.69148 0.0
C399 C 0.04315 0.8938 0.67043 0.0
C400 C 0.07974 0.89807 0.66384 0.0
C401 C 0.09311 0.92429 0.64031 0.0
C402 C 0.12531 0.95262 0.65584 0.0
C403 C 0.10417 0.91055 0.60905 0.0
C404 C 0.05821 0.93396 0.63453 0.0
C405 C 0.02973 0.91607 0.65213 0.0
C406 C 0.99448 0.91991 0.65002 0.0
C407 C 0.98801 0.94232 0.62898 0.0
C408 C 0.01671 0.96073 0.61047 0.0
C409 C 0.05237 0.9567 0.61369 0.0
H410 H 0.7429 0.39751 0.97075 0.0
H411 H 0.75901 0.45251 0.88467 0.0
H412 H 0.82022 0.48666 0.9084 0.0
H413 H 0.78916 0.46639 0.02866 0.0
H414 H 0.80906 0.44214 0.05368 0.0
H415 H 0.76523 0.42388 0.03103 0.0
H416 H 0.79203 0.3818 1.0042 0.0
H417 H 0.83592 0.39998 0.02661 0.0
H418 H 0.83414 0.39558 0.98319 0.0
H419 H 0.88288 0.51062 0.9389 0.0
H420 H 0.94002 0.52446 0.97508 0.0
H421 H 0.88194 0.45609 0.04259 0.0
C422 C 0.75897 0.41705 0.95702 0.0
C423 C 0.74596 0.42222 0.92573 0.0
C424 C 0.76811 0.44807 0.90869 0.0
C425 C 0.80301 0.46761 0.92198 0.0
C426 C 0.81527 0.46136 0.95255 0.0
C427 C 0.79368 0.43697 0.97004 0.0
C428 C 0.8138 0.43448 1.00189 0.0
C429 C 0.79307 0.44219 0.03051 0.0
C430 C 0.81929 0.40097 1.00408 0.0
C431 C 0.85053 0.46066 0.99922 0.0
C432 C 0.85081 0.47594 0.9706 0.0
C433 C 0.88264 0.49929 0.96167 0.0
C434 C 0.91498 0.50706 0.98241 0.0
C435 C 0.91524 0.49189 1.01194 0.0
C436 C 0.88238 0.46863 0.02051 0.0
H437 H 0.71909 0.69383 0.45141 0.0
H438 H 0.76366 0.61637 0.42423 0.0
H439 H 0.71808 0.5792 0.45691 0.0
H440 H 0.70279 0.67356 0.53276 0.0
H441 H 0.66001 0.68368 0.53313 0.0
H442 H 0.69554 0.7039 0.50711 0.0
H443 H 0.64811 0.6865 0.45748 0.0
H444 H 0.61235 0.6664 0.48337 0.0
H445 H 0.6227 0.64431 0.44944 0.0
H446 H 0.6673 0.55053 0.49319 0.0
H447 H 0.61489 0.53261 0.52842 0.0
H448 H 0.60463 0.62938 0.53196 0.0
C449 C 0.71929 0.66903 0.45219 0.0
C450 C 0.74508 0.65806 0.43524 0.0
C451 C 0.74419 0.62536 0.43693 0.0
C452 C 0.71844 0.60408 0.45551 0.0
C453 C 0.69369 0.61583 0.47217 0.0
C454 C 0.69379 0.64751 0.47049 0.0
C455 C 0.6642 0.65418 0.49045 0.0
C456 C 0.6817 0.68038 0.51746 0.0
C457 C 0.63513 0.66338 0.4689 0.0
C458 C 0.64771 0.62142 0.50402 0.0
C459 C 0.66492 0.59954 0.49313 0.0
C460 C 0.65377 0.56754 0.50194 0.0
C461 C 0.62402 0.55761 0.52208 0.0
C462 C 0.6058 0.57963 0.53332 0.0
C463 C 0.6182 0.612 0.52425 0.0
H464 H 0.29329 0.34924 0.09095 0.0
H465 H 0.26465 0.30169 0.18029 0.0
H466 H 0.20465 0.31331 0.17715 0.0
H467 H 0.25751 0.41341 0.10831 0.0
H468 H 0.24036 0.41584 0.06753 0.0
H469 H 0.27934 0.40092 0.07475 0.0
H470 H 0.24455 0.348 0.0411 0.0
H471 H 0.20549 0.36285 0.0336 0.0
H472 H 0.19878 0.32449 0.0514 0.0
H473 H 0.14974 0.33274 0.16621 0.0
H474 H 0.1039 0.35962 0.14893 0.0
H475 H 0.16825 0.3957 0.06703 0.0
C476 C 0.27406 0.34071 0.1095 0.0
C477 C 0.28349 0.32429 0.13575 0.0
C478 C 0.25795 0.31418 0.15992 0.0
C479 C 0.22378 0.32061 0.15831 0.0
C480 C 0.21561 0.33733 0.13244 0.0
C481 C 0.23998 0.34727 0.10845 0.0
C482 C 0.22545 0.36667 0.08442 0.0
C483 C 0.25226 0.40126 0.08374 0.0
C484 C 0.21813 0.34947 0.05063 0.0
C485 C 0.1894 0.36649 0.09894 0.0
C486 C 0.18412 0.34911 0.12642 0.0
C487 C 0.15336 0.34611 0.14453 0.0
C488 C 0.12735 0.36136 0.1344 0.0
C489 C 0.13223 0.37957 0.10645 0.0
C490 C 0.16373 0.38201 0.08851 0.0
H491 H 0.6243 0.24008 1.01888 0.0
H492 H 0.58531 0.21473 0.91845 0.0
H493 H 0.55629 0.15808 0.93198 0.0
H494 H 0.64549 0.1662 0.03497 0.0
H495 H 0.62985 0.16438 0.07533 0.0
H496 H 0.64809 0.20292 0.05792 0.0
H497 H 0.58727 0.21642 0.06853 0.0
H498 H 0.56968 0.1781 0.08644 0.0
H499 H 0.54317 0.18841 0.05359 0.0
H500 H 0.53174 0.10384 0.95639 0.0
H501 H 0.51143 0.05677 0.99016 0.0
H502 H 0.56511 0.11733 0.075 0.0
C503 C 0.60968 0.22266 0.99967 0.0
C504 C 0.60718 0.23202 0.96749 0.0
C505 C 0.58766 0.20832 0.94322 0.0
C506 C 0.57112 0.176 0.95069 0.0
C507 C 0.57421 0.16763 0.98257 0.0
C508 C 0.5929 0.1903 1.00673 0.0
C509 C 0.59176 0.17503 0.03915 0.0
C510 C 0.63115 0.17727 0.05262 0.0
C511 C 0.57175 0.19042 0.06333 0.0
C512 C 0.56922 0.14031 0.02951 0.0
C513 C 0.55965 0.13651 0.99671 0.0
C514 C 0.53902 0.1066 0.98209 0.0
C515 C 0.52763 0.07997 1.00146 0.0
C516 C 0.53659 0.08337 0.03517 0.0
C517 C 0.55783 0.11398 0.04928 0.0
H518 H 0.88771 0.80942 0.41913 0.0
H519 H 0.96981 0.81736 0.34785 0.0
H520 H 1.00337 0.87282 0.36998 0.0
H521 H 0.88586 0.89232 0.41825 0.0
H522 H 0.88068 0.89565 0.46103 0.0
H523 H 0.86265 0.85693 0.43921 0.0
H524 H 0.90116 0.83284 0.4785 0.0
H525 H 0.91919 0.87146 0.50045 0.0
H526 H 0.95072 0.85182 0.48448 0.0
H527 H 0.02939 0.92663 0.40138 0.0
H528 H 0.04581 0.97474 0.43911 0.0
H529 H 0.94609 0.93271 0.48936 0.0
C530 C 0.91269 0.82276 0.40799 0.0
C531 C 0.92606 0.80878 0.3816 0.0
C532 C 0.95889 0.82734 0.36795 0.0
C533 C 0.97814 0.85892 0.38038 0.0
C534 C 0.96418 0.87181 0.40639 0.0
C535 C 0.93212 0.85433 0.41999 0.0
C536 C 0.92327 0.8736 0.4481 0.0
C537 C 0.88589 0.88 0.44122 0.0
C538 C 0.92362 0.8564 0.47975 0.0
C539 C 0.95556 0.90462 0.44845 0.0
C540 C 0.9788 0.90302 0.42415 0.0
C541 C 0.0112 0.92817 0.42027 0.0
C542 C 0.02029 0.95544 0.44187 0.0
C543 C 0.99708 0.95767 0.46704 0.0
C544 C 0.96406 0.93197 0.47011 0.0
H545 H 0.32496 0.80942 0.66698 0.0
H546 H 0.22193 0.73335 0.67932 0.0
H547 H 0.25181 0.69238 0.66361 0.0
H548 H 0.35386 0.76985 0.59769 0.0
H549 H 0.4023 0.78444 0.61153 0.0
H550 H 0.37178 0.80776 0.621 0.0
H551 H 0.39054 0.8078 0.68187 0.0
H552 H 0.42083 0.78427 0.67264 0.0
H553 H 0.38488 0.76986 0.70028 0.0
H554 H 0.29425 0.65967 0.65079 0.0
H555 H 0.3457 0.63759 0.64049 0.0
H556 H 0.42067 0.73511 0.63549 0.0
C557 C 0.30845 0.78418 0.66584 0.0
C558 C 0.27105 0.77459 0.67427 0.0
C559 C 0.25057 0.74128 0.67285 0.0
C560 C 0.2673 0.71782 0.66395 0.0
C561 C 0.30443 0.72809 0.65642 0.0
C562 C 0.32469 0.76048 0.65704 0.0
C563 C 0.36464 0.76507 0.64934 0.0
C564 C 0.37366 0.78283 0.61802 0.0
C565 C 0.39181 0.78279 0.67773 0.0
C566 C 0.36387 0.73019 0.64493 0.0
C567 C 0.32885 0.70923 0.64892 0.0
C568 C 0.32167 0.67583 0.64716 0.0
C569 C 0.35107 0.66353 0.64115 0.0
C570 C 0.38726 0.68457 0.63698 0.0
C571 C 0.39347 0.71834 0.63877 0.0
H572 H 0.71064 0.78151 0.73607 0.0
H573 H 0.72631 0.85579 0.81279 0.0
H574 H 0.7591 0.89707 0.77642 0.0
H575 H 0.80002 0.8132 0.70604 0.0
H576 H 0.78417 0.8023 0.66433 0.0
H577 H 0.75942 0.77898 0.69566 0.0
H578 H 0.69846 0.78859 0.67391 0.0
H579 H 0.72303 0.81192 0.64245 0.0
H580 H 0.69742 0.82935 0.66929 0.0
H581 H 0.7926 0.93 0.73212 0.0
H582 H 0.82424 0.95197 0.68361 0.0
H583 H 0.7889 0.85572 0.63657 0.0
C584 C 0.7206 0.80651 0.74518 0.0
C585 C 0.71493 0.81546 0.77715 0.0
C586 C 0.72891 0.84839 0.78816 0.0
C587 C 0.74801 0.87201 0.76772 0.0
C588 C 0.75307 0.8623 0.73637 0.0
C589 C 0.73978 0.83032 0.72516 0.0
C590 C 0.75014 0.82599 0.69089 0.0
C591 C 0.77492 0.80381 0.68915 0.0
C592 C 0.71518 0.81321 0.66777 0.0
C593 C 0.77165 0.86052 0.68463 0.0
C594 C 0.77292 0.88112 0.71111 0.0
C595 C 0.79177 0.91408 0.71125 0.0
C596 C 0.80989 0.92629 0.68364 0.0
C597 C 0.80921 0.90559 0.65625 0.0
C598 C 0.78959 0.87228 0.65688 0.0
H599 H 0.86945 0.2632 0.28154 0.0
H600 H 0.82741 0.34044 0.31422 0.0
H601 H 0.77382 0.32064 0.27426 0.0
H602 H 0.84094 0.26464 0.19479 0.0
H603 H 0.83019 0.22141 0.18906 0.0
H604 H 0.86654 0.24364 0.21844 0.0
H605 H 0.83396 0.20683 0.26283 0.0
H606 H 0.79754 0.18463 0.23372 0.0
H607 H 0.78615 0.203 0.26975 0.0
H608 H 0.7203 0.28708 0.23549 0.0
H609 H 0.67494 0.24567 0.1987 0.0
H610 H 0.7557 0.19401 0.18918 0.0
C611 C 0.84947 0.27646 0.27991 0.0
C612 C 0.85186 0.3026 0.30196 0.0
C613 C 0.82513 0.31928 0.29886 0.0
C614 C 0.79494 0.30857 0.27576 0.0
C615 C 0.79256 0.28174 0.25533 0.0
C616 C 0.81963 0.26639 0.25678 0.0
C617 C 0.8101 0.23729 0.23328 0.0
C618 C 0.83864 0.24205 0.20735 0.0
C619 C 0.80672 0.20612 0.25096 0.0
C620 C 0.77278 0.2379 0.21912 0.0
C621 C 0.76302 0.26373 0.23195 0.0
C622 C 0.72807 0.26727 0.22465 0.0
C623 C 0.70247 0.24366 0.20388 0.0
C624 C 0.71222 0.21716 0.19057 0.0
C625 C 0.74798 0.21465 0.19808 0.0
H626 H 0.48395 0.65207 0.35871 0.0
H627 H 0.4191 0.70495 0.40648 0.0
H628 H 0.42647 0.67902 0.45716 0.0
H629 H 0.44662 0.57855 0.39581 0.0
H630 H 0.48963 0.56885 0.39973 0.0
H631 H 0.48214 0.59355 0.36789 0.0
H632 H 0.54277 0.63859 0.3876 0.0
H633 H 0.55049 0.6139 0.41944 0.0
H634 H 0.54884 0.65415 0.42902 0.0
H635 H 0.43785 0.64476 0.50234 0.0
H636 H 0.45219 0.60491 0.53759 0.0
H637 H 0.50922 0.57394 0.46083 0.0
C638 C 0.4718 0.65862 0.37995 0.0
C639 C 0.45105 0.6808 0.37845 0.0
C640 C 0.43523 0.68822 0.40684 0.0
C641 C 0.43929 0.67359 0.43585 0.0
C642 C 0.45938 0.65151 0.43636 0.0
C643 C 0.47556 0.64416 0.40918 0.0
C644 C 0.4944 0.61856 0.41585 0.0
C645 C 0.47716 0.58808 0.39349 0.0
C646 C 0.53663 0.63212 0.41279 0.0
C647 C 0.4855 0.61211 0.4507 0.0
C648 C 0.46563 0.63162 0.46222 0.0
C649 C 0.45362 0.62954 0.49356 0.0
C650 C 0.4619 0.60685 0.51349 0.0
C651 C 0.48182 0.58634 0.50209 0.0
C652 C 0.49395 0.5893 0.4703 0.0
H653 H 0.1356 0.40698 0.86631 0.0
H654 H 0.039 0.39518 0.80067 0.0
H655 H 0.01437 0.42653 0.83951 0.0
H656 H 0.08355 0.39664 0.93892 0.0
H657 H 0.12008 0.4255 0.96372 0.0
H658 H 0.13151 0.40353 0.93023 0.0
H659 H 0.16811 0.45752 0.90681 0.0
H660 H 0.15668 0.47965 0.94018 0.0
H661 H 0.14516 0.48753 0.89933 0.0
H662 H 1.00162 0.46141 0.88349 0.0
H663 H 0.99676 0.49181 0.93344 0.0
H664 H 0.09739 0.47681 0.9749 0.0
C665 C 0.10934 0.41115 0.86019 0.0
C666 C 0.08932 0.39887 0.83026 0.0
C667 C 0.05476 0.40432 0.82336 0.0
C668 C 0.04063 0.42223 0.84524 0.0
C669 C 0.0609 0.43403 0.87443 0.0
C670 C 0.09413 0.42825 0.88236 0.0
C671 C 0.10898 0.44225 0.91633 0.0
C672 C 0.11115 0.41537 0.93862 0.0
C673 C 0.14699 0.46828 0.91561 0.0
C674 C 0.07909 0.45705 0.92599 0.0
C675 C 0.05204 0.4524 0.90108 0.0
C676 C 0.02241 0.46491 0.90328 0.0
C677 C 0.02002 0.48233 0.93174 0.0
C678 C 0.04659 0.48667 0.95813 0.0
C679 C 0.07651 0.47369 0.95522 0.0
H680 H 0.57837 0.86615 0.9314 0.0
H681 H 0.6861 0.93211 0.91175 0.0
H682 H 0.67856 0.97146 0.95309 0.0
H683 H 0.53291 0.92723 0.94424 0.0
H684 H 0.50605 0.90675 0.97612 0.0
H685 H 0.51976 0.88379 0.94481 0.0
H686 H 0.5511 0.85751 0.9881 0.0
H687 H 0.53761 0.8805 1.01953 0.0
H688 H 0.58584 0.88299 1.017 0.0
H689 H 0.65997 1.00323 0.99695 0.0
H690 H 0.63079 0.0263 0.03932 0.0
H691 H 0.53471 0.93995 0.03046 0.0
C692 C 0.60036 0.8889 0.9357 0.0
C693 C 0.63288 0.89601 0.91831 0.0
C694 C 0.66094 0.92609 0.9247 0.0
C695 C 0.65694 0.9486 0.94818 0.0
C696 C 0.62469 0.94072 0.96501 0.0
C697 C 0.59679 0.91169 0.95899 0.0
C698 C 0.56485 0.90929 0.98045 0.0
C699 C 0.52876 0.90661 0.96019 0.0
C700 C 0.55956 0.88089 1.00258 0.0
C701 C 0.57926 0.94148 0.99955 0.0
C702 C 0.61385 0.95917 0.99026 0.0
C703 C 0.63287 0.98963 1.0044 0.0
C704 C 0.61602 1.0025 0.02852 0.0
C705 C 0.58041 0.98496 0.03831 0.0
C706 C 0.56196 0.95396 0.02362 0.0
H707 H 1.00127 0.21635 0.4058 0.0
H708 H 0.88111 0.19327 0.39964 0.0
H709 H 0.87519 0.13796 0.41602 0.0
H710 H 0.00659 0.13584 0.37988 0.0
H711 H 0.04463 0.13843 0.40885 0.0
H712 H 0.03943 0.17465 0.39233 0.0
H713 H 0.03893 0.19915 0.45014 0.0
H714 H 0.04443 0.16317 0.4667 0.0
H715 H 0.00588 0.17689 0.47725 0.0
H716 H 0.88239 0.08638 0.43602 0.0
H717 H 0.90203 0.0449 0.4644 0.0
H718 H 0.01759 0.10267 0.46032 0.0
C719 C 0.97374 0.19939 0.4073 0.0
C720 C 0.94161 0.20883 0.40112 0.0
C721 C 0.90604 0.18639 0.40419 0.0
C722 C 0.90241 0.15489 0.41323 0.0
C723 C 0.93465 0.14635 0.41941 0.0
C724 C 0.96965 0.16807 0.41694 0.0
C725 C 0.99983 0.15406 0.42841 0.0
C726 C 0.02404 0.15054 0.40071 0.0
C727 C 0.02365 0.17453 0.45734 0.0
C728 C 0.97632 0.12136 0.43832 0.0
C729 C 0.93882 0.11708 0.43225 0.0
C730 C 0.91168 0.08933 0.44065 0.0
C731 C 0.92312 0.06582 0.45664 0.0
C732 C 0.96134 0.0705 0.46454 0.0
C733 C 0.98818 0.09828 0.45446 0.0
H734 H 0.28246 0.67386 0.11766 0.0
H735 H 0.26475 0.6289 0.20949 0.0
H736 H 0.20685 0.5891 0.18559 0.0
H737 H 0.18907 0.66757 0.09788 0.0
H738 H 0.19097 0.65937 0.05525 0.0
H739 H 0.23242 0.68238 0.07884 0.0
H740 H 0.26611 0.64188 0.05982 0.0
H741 H 0.22464 0.61867 0.0362 0.0
H742 H 0.24584 0.59944 0.06586 0.0
H743 H 0.14822 0.55683 0.15264 0.0
H744 H 0.09362 0.53559 0.11385 0.0
H745 H 0.15034 0.60098 0.04334 0.0
C746 C 0.26673 0.65541 0.13271 0.0
C747 C 0.27831 0.65451 0.1655 0.0
C748 C 0.25659 0.63008 0.18432 0.0
C749 C 0.22368 0.6073 0.17092 0.0
C750 C 0.21293 0.60911 0.1386 0.0
C751 C 0.2339 0.63251 0.11973 0.0
C752 C 0.21533 0.63036 0.08616 0.0
C753 C 0.20642 0.66178 0.07914 0.0
C754 C 0.23942 0.62209 0.0605 0.0
C755 C 0.1802 0.60251 0.08924 0.0
C756 C 0.17944 0.5904 0.11959 0.0
C757 C 0.1488 0.56585 0.12869 0.0
C758 C 0.11792 0.55385 0.10645 0.0
C759 C 0.11785 0.56635 0.07547 0.0
C760 C 0.14977 0.59056 0.06665 0.0
H761 H 0.28128 0.40175 0.70012 0.0
H762 H 0.21745 0.46925 0.69621 0.0
H763 H 0.26571 0.50564 0.66512 0.0
H764 H 0.37295 0.46003 0.707 0.0
H765 H 0.39284 0.43646 0.68104 0.0
H766 H 0.35414 0.41656 0.70418 0.0
H767 H 0.31685 0.38778 0.65174 0.0
H768 H 0.35539 0.40768 0.62843 0.0
H769 H 0.31003 0.41159 0.61876 0.0
H770 H 0.32281 0.53586 0.63645 0.0
H771 H 0.38135 0.55519 0.60857 0.0
H772 H 0.4047 0.46559 0.62668 0.0
C773 C 0.27764 0.42432 0.69292 0.0
C774 C 0.24582 0.43288 0.70087 0.0
C775 C 0.24167 0.46229 0.69046 0.0
C776 C 0.26896 0.48312 0.67285 0.0
C777 C 0.29994 0.47391 0.66527 0.0
C778 C 0.30418 0.44501 0.67465 0.0
C779 C 0.33921 0.44012 0.66218 0.0
C780 C 0.36639 0.43819 0.69028 0.0
C781 C 0.32979 0.41001 0.63889 0.0
C782 C 0.35417 0.47086 0.64455 0.0
C783 C 0.33139 0.49026 0.64696 0.0
C784 C 0.34055 0.52065 0.63403 0.0
C785 C 0.37381 0.53144 0.61826 0.0
C786 C 0.3971 0.51163 0.61495 0.0
C787 C 0.38693 0.4809 0.62815 0.0
H788 H 0.74675 0.65873 0.87341 0.0
H789 H 0.75708 0.74974 0.92551 0.0
H790 H 0.80724 0.74207 0.96164 0.0
H791 H 0.76346 0.61593 0.94366 0.0
H792 H 0.78921 0.5942 0.92184 0.0
H793 H 0.75312 0.60627 0.90096 0.0
H794 H 0.80013 0.63625 0.86058 0.0
H795 H 0.83631 0.62425 0.8813 0.0
H796 H 0.84262 0.66643 0.87571 0.0
H797 H 0.85928 0.72622 0.98964 0.0
H798 H 0.90762 0.7022 1.00858 0.0
H799 H 0.86155 0.62086 0.93937 0.0
C800 C 0.75936 0.67695 0.89256 0.0
C801 C 0.74804 0.70487 0.89662 0.0
C802 C 0.76523 0.72812 0.92199 0.0
C803 C 0.79375 0.72398 0.94264 0.0
C804 C 0.80444 0.6963 0.9378 0.0
C805 C 0.78757 0.67305 0.91355 0.0
C806 C 0.80465 0.64579 0.91307 0.0
C807 C 0.77589 0.61365 0.92032 0.0
C808 C 0.82195 0.64304 0.88075 0.0
C809 C 0.83421 0.6576 0.94047 0.0
C810 C 0.83368 0.68678 0.95446 0.0
C811 C 0.85968 0.70319 0.97914 0.0
C812 C 0.88704 0.68947 0.98967 0.0
C813 C 0.88796 0.65958 0.97565 0.0
C814 C 0.86096 0.6434 0.95097 0.0
H815 H 0.41571 0.82745 0.21079 0.0
H816 H 0.51635 0.81458 0.2548 0.0
H817 H 0.5532 0.86667 0.23448 0.0
H818 H 0.45368 0.86305 0.13961 0.0
H819 H 0.42783 0.89164 0.13818 0.0
H820 H 0.40903 0.85385 0.15681 0.0
H821 H 0.40263 0.88458 0.20971 0.0
H822 H 0.42114 0.92247 0.19113 0.0
H823 H 0.44276 0.91512 0.22848 0.0
H824 H 0.57967 0.91775 0.20522 0.0
H825 H 0.59344 0.96687 0.1743 0.0
H826 H 0.47534 0.94967 0.15302 0.0
C827 C 0.44549 0.8357 0.21642 0.0
C828 C 0.46314 0.81673 0.23439 0.0
C829 C 0.50213 0.82861 0.24129 0.0
C830 C 0.52332 0.85815 0.2297 0.0
C831 C 0.50511 0.87592 0.21166 0.0
C832 C 0.46697 0.86544 0.20553 0.0
C833 C 0.45424 0.88937 0.18582 0.0
C834 C 0.43506 0.87352 0.15317 0.0
C835 C 0.42868 0.90374 0.20493 0.0
C836 C 0.49124 0.91471 0.18133 0.0
C837 C 0.52022 0.90625 0.19619 0.0
C838 C 0.55714 0.92479 0.19393 0.0
C839 C 0.56467 0.95267 0.17619 0.0
C840 C 0.53552 0.96228 0.16123 0.0
C841 C 0.49825 0.94308 0.16415 0.0
H842 H 0.09369 0.19745 0.70095 0.0
H843 H 0.0293 0.25656 0.66237 0.0
H844 H 0.9993 0.21348 0.62057 0.0
H845 H 0.10702 0.16132 0.62231 0.0
H846 H 0.10274 0.1224 0.63805 0.0
H847 H 0.12112 0.1586 0.66394 0.0
H848 H 0.07096 0.13537 0.70434 0.0
H849 H 0.05247 0.09917 0.67859 0.0
H850 H 0.02252 0.12232 0.69034 0.0
H851 H 0.9727 0.1629 0.58561 0.0
H852 H 0.95197 0.10828 0.55883 0.0
H853 H 0.03442 0.08129 0.61786 0.0
C854 C 0.07358 0.20151 0.6835 0.0
C855 C 0.06395 0.23061 0.68509 0.0
C856 C 0.03732 0.2347 0.66178 0.0
C857 C 0.02011 0.21031 0.63786 0.0
C858 C 0.02993 0.18191 0.6372 0.0
C859 C 0.05623 0.1774 0.65921 0.0
C860 C 0.06076 0.14404 0.65359 0.0
C861 C 0.10027 0.14677 0.6439 0.0
C862 C 0.05109 0.12405 0.68349 0.0
C863 C 0.03223 0.13025 0.62551 0.0
C864 C 0.01495 0.15268 0.61644 0.0
C865 C 0.98632 0.1453 0.59228 0.0
C866 C 0.97468 0.11415 0.57725 0.0
C867 C 0.99168 0.09062 0.58612 0.0
C868 C 0.02129 0.09896 0.61027 0.0
H869 H 0.68266 0.32316 0.40421 0.0
H870 H 0.76885 0.41344 0.39115 0.0
H871 H 0.72728 0.44382 0.40898 0.0
H872 H 0.6036 0.35014 0.3779 0.0
H873 H 0.57422 0.32806 0.40756 0.0
H874 H 0.60982 0.31324 0.39173 0.0
H875 H 0.63767 0.31242 0.44985 0.0
H876 H 0.60222 0.32727 0.46583 0.0
H877 H 0.65063 0.34885 0.47571 0.0
H878 H 0.67821 0.46445 0.43121 0.0
H879 H 0.62502 0.47407 0.45695 0.0
H880 H 0.56981 0.37051 0.45461 0.0
C881 C 0.69267 0.34931 0.40476 0.0
C882 C 0.72902 0.3659 0.39622 0.0
C883 C 0.74112 0.40016 0.39754 0.0
C884 C 0.71769 0.41766 0.40756 0.0
C885 C 0.68218 0.40057 0.41608 0.0
C886 C 0.66964 0.36718 0.41473 0.0
C887 C 0.63078 0.35478 0.4265 0.0
C888 C 0.60296 0.33541 0.39929 0.0
C889 C 0.63032 0.33465 0.45624 0.0
C890 C 0.62378 0.38644 0.43526 0.0
C891 C 0.65367 0.41253 0.42879 0.0
C892 C 0.65438 0.44423 0.43595 0.0
C893 C 0.62385 0.44944 0.45038 0.0
C894 C 0.59293 0.42307 0.45753 0.0
C895 C 0.59295 0.39119 0.44952 0.0
loop_
_geom_bond_atom_site_label_1
_geom_bond_atom_site_label_2
_geom_bond_distance
_geom_bond_site_symmetry_2
_ccdc_geom_bond_type
O0 Cd1 2.300 . S
O0 C7 1.275 . S
Cd1 O0 2.300 . S
Cd1 O9 2.381 . S
Cd1 O10 2.378 . S
O2 Cd3 2.385 . S
O2 C7 1.255 . S
Cd3 O2 2.385 . S
Cd3 O4 2.317 . S
O4 Cd3 2.317 . S
O4 C5 1.232 . S
C5 O4 1.232 . S
C5 O6 1.218 . S
O6 C5 1.218 . S
C7 O0 1.275 . S
C7 O2 1.255 . S
C8 O9 1.258 . S
C8 O10 1.256 . S
O9 Cd1 2.381 . S
O9 C8 1.258 . S
O10 Cd1 2.378 . S
O10 C8 1.256 . S
O11 Cd12 2.300 . S
O11 C18 1.275 . S
Cd12 O11 2.300 . S
Cd12 O20 2.381 . S
Cd12 O21 2.378 . S
O13 Cd14 2.385 . S
O13 C18 1.255 . S
Cd14 O13 2.385 . S
Cd14 O15 2.317 . S
O15 Cd14 2.317 . S
O15 C16 1.232 . S
C16 O15 1.232 . S
C16 O17 1.218 . S
O17 C16 1.218 . S
C18 O11 1.275 . S
C18 O13 1.255 . S
C19 O20 1.258 . S
C19 O21 1.256 . S
O20 Cd12 2.381 . S
O20 C19 1.258 . S
O21 Cd12 2.378 . S
O21 C19 1.256 . S
O22 Cd23 2.300 . S
O22 C29 1.275 . S
Cd23 O22 2.300 . S
Cd23 O31 2.381 . S
Cd23 O32 2.378 . S
O24 Cd25 2.385 . S
O24 C29 1.255 . S
Cd25 O24 2.385 . S
Cd25 O26 2.317 . S
O26 Cd25 2.317 . S
O26 C27 1.232 . S
C27 O26 1.232 . S
C27 O28 1.218 . S
O28 C27 1.218 . S
C29 O22 1.275 . S
C29 O24 1.255 . S
C30 O31 1.258 . S
C30 O32 1.256 . S
O31 Cd23 2.381 . S
O31 C30 1.258 . S
O32 Cd23 2.378 . S
O32 C30 1.256 . S
O33 Cd34 2.300 . S
O33 C40 1.275 . S
Cd34 O33 2.300 . S
Cd34 O42 2.381 . S
Cd34 O43 2.378 . S
O35 Cd36 2.385 . S
O35 C40 1.255 . S
Cd36 O35 2.385 . S
Cd36 O37 2.317 . S
O37 Cd36 2.317 . S
O37 C38 1.232 . S
C38 O37 1.232 . S
C38 O39 1.218 . S
O39 C38 1.218 . S
C40 O33 1.275 . S
C40 O35 1.255 . S
C41 O42 1.258 . S
C41 O43 1.256 . S
O42 Cd34 2.381 . S
O42 C41 1.258 . S
O43 Cd34 2.378 . S
O43 C41 1.256 . S
O44 Cd45 2.300 . S
O44 C51 1.275 . S
Cd45 O44 2.300 . S
Cd45 O53 2.381 . S
Cd45 O54 2.378 . S
O46 Cd47 2.385 . S
O46 C51 1.255 . S
Cd47 O46 2.385 . S
Cd47 O48 2.317 . S
O48 Cd47 2.317 . S
O48 C49 1.232 . S
C49 O48 1.232 . S
C49 O50 1.218 . S
O50 C49 1.218 . S
C51 O44 1.275 . S
C51 O46 1.255 . S
C52 O53 1.258 . S
C52 O54 1.256 . S
O53 Cd45 2.381 . S
O53 C52 1.258 . S
O54 Cd45 2.378 . S
O54 C52 1.256 . S
O55 Cd56 2.300 . S
O55 C62 1.275 . S
Cd56 O55 2.300 . S
Cd56 O64 2.381 . S
Cd56 O65 2.378 . S
O57 Cd58 2.385 . S
O57 C62 1.255 . S
Cd58 O57 2.385 . S
Cd58 O59 2.317 . S
O59 Cd58 2.317 . S
O59 C60 1.232 . S
C60 O59 1.232 . S
C60 O61 1.218 . S
O61 C60 1.218 . S
C62 O55 1.275 . S
C62 O57 1.255 . S
C63 O64 1.258 . S
C63 O65 1.256 . S
O64 Cd56 2.381 . S
O64 C63 1.258 . S
O65 Cd56 2.378 . S
O65 C63 1.256 . S
O66 Cd67 2.300 . S
O66 C73 1.275 . S
Cd67 O66 2.300 . S
Cd67 O75 2.381 . S
Cd67 O76 2.378 . S
O68 Cd69 2.385 . S
O68 C73 1.255 . S
Cd69 O68 2.385 . S
Cd69 O70 2.317 . S
O70 Cd69 2.317 . S
O70 C71 1.232 . S
C71 O70 1.232 . S
C71 O72 1.218 . S
O72 C71 1.218 . S
C73 O66 1.275 . S
C73 O68 1.255 . S
C74 O75 1.258 . S
C74 O76 1.256 . S
O75 Cd67 2.381 . S
O75 C74 1.258 . S
O76 Cd67 2.378 . S
O76 C74 1.256 . S
O77 Cd78 2.300 . S
O77 C84 1.275 . S
Cd78 O77 2.300 . S
Cd78 O86 2.381 . S
Cd78 O87 2.378 . S
O79 Cd80 2.385 . S
O79 C84 1.255 . S
Cd80 O79 2.385 . S
Cd80 O81 2.317 . S
O81 Cd80 2.317 . S
O81 C82 1.232 . S
C82 O81 1.232 . S
C82 O83 1.218 . S
O83 C82 1.218 . S
C84 O77 1.275 . S
C84 O79 1.255 . S
C85 O86 1.258 . S
C85 O87 1.256 . S
O86 Cd78 2.381 . S
O86 C85 1.258 . S
O87 Cd78 2.378 . S
O87 C85 1.256 . S
Tb88 C90 2.809 1_545 S
Tb88 O108 2.484 1_545 S
Tb88 O109 2.440 1_545 S
Tb88 O110 2.658 1_655 S
Tb88 O111 2.409 . S
Tb88 O112 2.378 1_645 S
Tb88 O116 2.325 1_545 S
Tb88 O119 2.341 . S
Tb89 C99 2.809 . S
Tb89 O110 2.325 . S
Tb89 O113 2.341 1_545 S
Tb89 O114 2.484 . S
Tb89 O115 2.440 . S
Tb89 O116 2.658 1_445 S
Tb89 O117 2.409 1_545 S
Tb89 O118 2.378 1_455 S
C90 Tb88 2.809 1_565 S
C90 C91 1.514 . S
C90 O108 1.248 . S
C90 O109 1.266 . S
C91 C90 1.514 . S
C91 C92 1.359 . S
C91 C96 1.348 . S
C92 C91 1.359 . S
C92 C93 1.380 . S
C92 H120 0.929 . S
C93 C92 1.380 . S
C93 C94 1.347 . S
C93 H121 0.931 . S
C94 C93 1.347 . S
C94 C95 1.369 . S
C95 C94 1.369 . S
C95 C96 1.408 . S
C95 H122 0.930 . S
C96 C91 1.348 . S
C96 C95 1.408 . S
C96 H123 0.930 . S
C97 O110 1.281 . S
C97 O111 1.254 1_455 S
C98 O112 1.236 . S
C98 O113 1.266 . S
C99 Tb89 2.809 . S
C99 C100 1.514 . S
C99 O114 1.248 . S
C99 O115 1.266 . S
C100 C99 1.514 . S
C100 C101 1.359 . S
C100 C105 1.348 . S
C101 C100 1.359 . S
C101 C102 1.380 . S
C101 H124 0.929 . S
C102 C101 1.380 . S
C102 C103 1.347 . S
C102 H125 0.931 . S
C103 C102 1.347 . S
C103 C104 1.369 . S
C104 C103 1.369 . S
C104 C105 1.408 . S
C104 H126 0.930 . S
C105 C100 1.348 . S
C105 C104 1.408 . S
C105 H127 0.930 . S
C106 O116 1.281 . S
C106 O117 1.254 1_655 S
C107 O118 1.236 . S
C107 O119 1.266 . S
O108 Tb88 2.484 1_565 S
O108 C90 1.248 . S
O109 Tb88 2.440 1_565 S
O109 C90 1.266 . S
O110 Tb88 2.658 1_455 S
O110 Tb89 2.325 . S
O110 C97 1.281 . S
O111 Tb88 2.409 . S
O111 C97 1.254 1_655 S
O112 Tb88 2.378 1_465 S
O112 C98 1.236 . S
O113 Tb89 2.341 1_565 S
O113 C98 1.266 . S
O114 Tb89 2.484 . S
O114 C99 1.248 . S
O115 Tb89 2.440 . S
O115 C99 1.266 . S
O116 Tb88 2.325 1_565 S
O116 Tb89 2.658 1_665 S
O116 C106 1.281 . S
O117 Tb89 2.409 1_565 S
O117 C106 1.254 1_455 S
O118 Tb89 2.378 1_655 S
O118 C107 1.236 . S
O119 Tb88 2.341 . S
O119 C107 1.266 . S
H120 C92 0.929 . S
H121 C93 0.931 . S
H122 C95 0.930 . S
H123 C96 0.930 . S
H124 C101 0.929 . S
H125 C102 0.931 . S
H126 C104 0.930 . S
H127 C105 0.930 . S
Tb128 C130 2.809 . S
Tb128 O148 2.484 . S
Tb128 O149 2.440 . S
Tb128 O150 2.660 . S
Tb128 O151 2.409 1_545 S
Tb128 O152 2.378 . S
Tb128 O156 2.325 . S
Tb128 O159 2.341 . S
Tb129 C139 2.809 1_544 S
Tb129 O150 2.327 . S
Tb129 O153 2.341 . S
Tb129 O154 2.484 1_545 S
Tb129 O155 2.440 1_554 S
Tb129 O156 2.658 . S
Tb129 O157 2.409 1_554 S
Tb129 O158 2.378 1_554 S
C130 Tb128 2.809 . S
C130 C131 1.514 . S
C130 O148 1.248 . S
C130 O149 1.266 . S
C131 C130 1.514 . S
C131 C132 1.359 . S
C131 C136 1.348 . S
C132 C131 1.359 . S
C132 C133 1.380 . S
C132 H160 0.929 . S
C133 C132 1.380 . S
C133 C134 1.347 . S
C133 H161 0.931 . S
C134 C133 1.347 . S
C134 C135 1.369 . S
C135 C134 1.369 . S
C135 C136 1.408 . S
C135 H162 0.930 . S
C136 C131 1.348 . S
C136 C135 1.408 . S
C136 H163 0.930 . S
C137 O150 1.279 1_565 S
C137 O151 1.254 . S
C138 O152 1.236 . S
C138 O153 1.266 . S
C139 Tb129 2.809 1_566 S
C139 C140 1.514 . S
C139 O154 1.248 1_556 S
C139 O155 1.266 1_565 S
C140 C139 1.514 . S
C140 C141 1.359 . S
C140 C145 1.348 . S
C141 C140 1.359 . S
C141 C142 1.380 . S
C141 H164 0.929 . S
C142 C141 1.380 . S
C142 C143 1.347 . S
C142 H165 0.931 . S
C143 C142 1.347 . S
C143 C144 1.369 . S
C144 C143 1.369 . S
C144 C145 1.408 . S
C144 H166 0.930 . S
C145 C140 1.348 . S
C145 C144 1.408 . S
C145 H167 0.930 . S
C146 O156 1.281 . S
C146 O157 1.254 1_554 S
C147 O158 1.236 1_564 S
C147 O159 1.266 1_565 S
O148 Tb128 2.484 . S
O148 C130 1.248 . S
O149 Tb128 2.440 . S
O149 C130 1.266 . S
O150 Tb128 2.660 . S
O150 Tb129 2.327 . S
O150 C137 1.279 1_545 S
O151 Tb128 2.409 1_565 S
O151 C137 1.254 . S
O152 Tb128 2.378 . S
O152 C138 1.236 . S
O153 Tb129 2.341 . S
O153 C138 1.266 . S
O154 Tb129 2.484 1_565 S
O154 C139 1.248 1_554 S
O155 Tb129 2.440 1_556 S
O155 C139 1.266 1_545 S
O156 Tb128 2.325 . S
O156 Tb129 2.658 . S
O156 C146 1.281 . S
O157 Tb129 2.409 1_556 S
O157 C146 1.254 1_556 S
O158 Tb129 2.378 1_556 S
O158 C147 1.236 1_546 S
O159 Tb128 2.341 . S
O159 C147 1.266 1_545 S
H160 C132 0.929 . S
H161 C133 0.931 . S
H162 C135 0.930 . S
H163 C136 0.930 . S
H164 C141 0.929 . S
H165 C142 0.931 . S
H166 C144 0.930 . S
H167 C145 0.930 . S
Tb168 C170 2.809 . S
Tb168 O188 2.484 . S
Tb168 O189 2.440 . S
Tb168 O190 2.658 . S
Tb168 O191 2.409 . S
Tb168 O192 2.378 . S
Tb168 O196 2.325 . S
Tb168 O199 2.341 . S
Tb169 C179 2.809 . S
Tb169 O190 2.325 . S
Tb169 O193 2.341 . S
Tb169 O194 2.484 . S
Tb169 O195 2.440 . S
Tb169 O196 2.658 . S
Tb169 O197 2.409 . S
Tb169 O198 2.378 . S
C170 Tb168 2.809 . S
C170 C171 1.514 . S
C170 O188 1.248 . S
C170 O189 1.266 . S
C171 C170 1.514 . S
C171 C172 1.359 . S
C171 C176 1.348 . S
C172 C171 1.359 . S
C172 C173 1.380 . S
C172 H200 0.929 . S
C173 C172 1.380 . S
C173 C174 1.347 . S
C173 H201 0.931 . S
C174 C173 1.347 . S
C174 C175 1.369 . S
C175 C174 1.369 . S
C175 C176 1.408 . S
C175 H202 0.930 . S
C176 C171 1.348 . S
C176 C175 1.408 . S
C176 H203 0.930 . S
C177 O190 1.281 . S
C177 O191 1.254 . S
C178 O192 1.236 . S
C178 O193 1.266 . S
C179 Tb169 2.809 . S
C179 C180 1.514 . S
C179 O194 1.248 . S
C179 O195 1.266 . S
C180 C179 1.514 . S
C180 C181 1.359 . S
C180 C185 1.348 . S
C181 C180 1.359 . S
C181 C182 1.380 . S
C181 H204 0.929 . S
C182 C181 1.380 . S
C182 C183 1.347 . S
C182 H205 0.931 . S
C183 C182 1.347 . S
C183 C184 1.369 . S
C184 C183 1.369 . S
C184 C185 1.408 . S
C184 H206 0.930 . S
C185 C180 1.348 . S
C185 C184 1.408 . S
C185 H207 0.930 . S
C186 O196 1.281 . S
C186 O197 1.254 . S
C187 O198 1.236 . S
C187 O199 1.266 . S
O188 Tb168 2.484 . S
O188 C170 1.248 . S
O189 Tb168 2.440 . S
O189 C170 1.266 . S
O190 Tb168 2.658 . S
O190 Tb169 2.325 . S
O190 C177 1.281 . S
O191 Tb168 2.409 . S
O191 C177 1.254 . S
O192 Tb168 2.378 . S
O192 C178 1.236 . S
O193 Tb169 2.341 . S
O193 C178 1.266 . S
O194 Tb169 2.484 . S
O194 C179 1.248 . S
O195 Tb169 2.440 . S
O195 C179 1.266 . S
O196 Tb168 2.325 . S
O196 Tb169 2.658 . S
O196 C186 1.281 . S
O197 Tb169 2.409 . S
O197 C186 1.254 . S
O198 Tb169 2.378 . S
O198 C187 1.236 . S
O199 Tb168 2.341 . S
O199 C187 1.266 . S
H200 C172 0.929 . S
H201 C173 0.931 . S
H202 C175 0.930 . S
H203 C176 0.930 . S
H204 C181 0.929 . S
H205 C182 0.931 . S
H206 C184 0.930 . S
H207 C185 0.930 . S
Tb208 C210 2.809 1_455 S
Tb208 O228 2.484 1_455 S
Tb208 O229 2.440 . S
Tb208 O230 2.658 1_556 S
Tb208 O231 2.409 1_556 S
Tb208 O232 2.387 1_556 S
Tb208 O236 2.325 1_455 S
Tb208 O239 2.341 . S
Tb209 C219 2.809 . S
Tb209 O230 2.325 . S
Tb209 O233 2.341 1_455 S
Tb209 O234 2.484 . S
Tb209 O235 2.440 . S
Tb209 O236 2.658 1_454 S
Tb209 O237 2.409 1_455 S
Tb209 O238 2.378 1_554 S
C210 Tb208 2.809 1_655 S
C210 C211 1.514 . S
C210 O228 1.248 . S
C210 O229 1.266 1_655 S
C211 C210 1.514 . S
C211 C212 1.359 . S
C211 C216 1.348 . S
C212 C211 1.359 . S
C212 C213 1.380 . S
C212 H240 0.929 . S
C213 C212 1.380 . S
C213 C214 1.347 . S
C213 H241 0.931 . S
C214 C213 1.347 . S
C214 C215 1.369 . S
C215 C214 1.369 . S
C215 C216 1.408 . S
C215 H242 0.930 . S
C216 C211 1.348 . S
C216 C215 1.408 . S
C216 H243 0.930 1_655 S
C217 O230 1.281 . S
C217 O231 1.254 . S
C218 O232 1.229 1_655 S
C218 O233 1.266 . S
C219 Tb209 2.809 . S
C219 C220 1.514 . S
C219 O234 1.248 . S
C219 O235 1.266 . S
C220 C219 1.514 . S
C220 C221 1.359 . S
C220 C225 1.348 . S
C221 C220 1.359 . S
C221 C222 1.380 . S
C221 H244 0.929 . S
C222 C221 1.380 . S
C222 C223 1.347 . S
C222 H245 0.931 . S
C223 C222 1.347 . S
C223 C224 1.369 . S
C224 C223 1.369 . S
C224 C225 1.408 . S
C224 H246 0.930 . S
C225 C220 1.348 . S
C225 C224 1.408 . S
C225 H247 0.930 . S
C226 O236 1.281 . S
C226 O237 1.254 1_556 S
C227 O238 1.236 . S
C227 O239 1.266 . S
O228 Tb208 2.484 1_655 S
O228 C210 1.248 . S
O229 Tb208 2.440 . S
O229 C210 1.266 1_455 S
O230 Tb208 2.658 1_554 S
O230 Tb209 2.325 . S
O230 C217 1.281 . S
O231 Tb208 2.409 1_554 S
O231 C217 1.254 . S
O232 Tb208 2.387 1_554 S
O232 C218 1.229 1_455 S
O233 Tb209 2.341 1_655 S
O233 C218 1.266 . S
O234 Tb209 2.484 . S
O234 C219 1.248 . S
O235 Tb209 2.440 . S
O235 C219 1.266 . S
O236 Tb208 2.325 1_655 S
O236 Tb209 2.658 1_656 S
O236 C226 1.281 . S
O237 Tb209 2.409 1_655 S
O237 C226 1.254 1_554 S
O238 Tb209 2.378 1_556 S
O238 C227 1.236 . S
O239 Tb208 2.341 . S
O239 C227 1.266 . S
H240 C212 0.929 . S
H241 C213 0.931 . S
H242 C215 0.930 . S
H243 C216 0.930 1_455 S
H244 C221 0.929 . S
H245 C222 0.931 . S
H246 C224 0.930 . S
H247 C225 0.930 . S
H248 C260 0.930 . S
H249 C262 0.930 . S
H250 C263 0.930 . S
H251 C267 0.959 . S
H252 C267 0.959 . S
H253 C267 0.961 . S
H254 C268 0.960 . S
H255 C268 0.961 . S
H256 C268 0.959 . S
H257 C271 0.929 . S
H258 C272 0.931 . S
H259 C274 0.930 . S
C260 H248 0.930 . S
C260 C261 1.399 . S
C260 C265 1.399 . S
C261 C260 1.399 . S
C261 C262 1.376 . S
C262 H249 0.930 . S
C262 C261 1.376 . S
C262 C263 1.388 . S
C263 H250 0.930 . S
C263 C262 1.388 . S
C263 C264 1.390 . S
C264 C263 1.390 . S
C264 C265 1.394 . S
C264 C270 1.465 . S
C265 C260 1.399 . S
C265 C264 1.394 . S
C265 C266 1.516 . S
C266 C265 1.516 . S
C266 C267 1.502 . S
C266 C268 1.561 . S
C266 C269 1.526 . S
C267 H251 0.959 . S
C267 H252 0.959 . S
C267 H253 0.961 . S
C267 C266 1.502 . S
C268 H254 0.960 . S
C268 H255 0.961 . S
C268 H256 0.959 . S
C268 C266 1.561 . S
C269 C266 1.526 . S
C269 C270 1.396 . S
C269 C274 1.390 . S
C270 C264 1.465 . S
C270 C269 1.396 . S
C270 C271 1.399 . S
C271 H257 0.929 . S
C271 C270 1.399 . S
C271 C272 1.385 . S
C272 H258 0.931 . S
C272 C271 1.385 . S
C272 C273 1.389 . S
C273 C272 1.389 . S
C273 C274 1.387 . S
C274 H259 0.930 . S
C274 C269 1.390 . S
C274 C273 1.387 . S
H275 C287 0.930 . S
H276 C289 0.930 . S
H277 C290 0.930 . S
H278 C294 0.959 . S
H279 C294 0.959 . S
H280 C294 0.961 . S
H281 C295 0.960 . S
H282 C295 0.961 . S
H283 C295 0.959 . S
H284 C298 0.929 . S
H285 C299 0.931 . S
H286 C301 0.930 . S
C287 H275 0.930 . S
C287 C288 1.399 . S
C287 C292 1.399 . S
C288 C287 1.399 . S
C288 C289 1.376 . S
C289 H276 0.930 . S
C289 C288 1.376 . S
C289 C290 1.388 . S
C290 H277 0.930 . S
C290 C289 1.388 . S
C290 C291 1.390 . S
C291 C290 1.390 . S
C291 C292 1.394 . S
C291 C297 1.465 . S
C292 C287 1.399 . S
C292 C291 1.394 . S
C292 C293 1.516 . S
C293 C292 1.516 . S
C293 C294 1.502 . S
C293 C295 1.561 . S
C293 C296 1.526 . S
C294 H278 0.959 . S
C294 H279 0.959 . S
C294 H280 0.961 . S
C294 C293 1.502 . S
C295 H281 0.960 . S
C295 H282 0.961 . S
C295 H283 0.959 . S
C295 C293 1.561 . S
C296 C293 1.526 . S
C296 C297 1.396 . S
C296 C301 1.390 . S
C297 C291 1.465 . S
C297 C296 1.396 . S
C297 C298 1.399 . S
C298 H284 0.929 . S
C298 C297 1.399 . S
C298 C299 1.385 . S
C299 H285 0.931 . S
C299 C298 1.385 . S
C299 C300 1.389 . S
C300 C299 1.389 . S
C300 C301 1.387 . S
C301 H286 0.930 . S
C301 C296 1.390 . S
C301 C300 1.387 . S
H302 C314 0.930 . S
H303 C316 0.930 . S
H304 C317 0.930 . S
H305 C321 0.959 . S
H306 C321 0.959 . S
H307 C321 0.961 . S
H308 C322 0.960 . S
H309 C322 0.961 . S
H310 C322 0.959 . S
H311 C325 0.929 . S
H312 C326 0.931 . S
H313 C328 0.930 . S
C314 H302 0.930 . S
C314 C315 1.399 . S
C314 C319 1.399 . S
C315 C314 1.399 . S
C315 C316 1.376 . S
C316 H303 0.930 . S
C316 C315 1.376 . S
C316 C317 1.388 . S
C317 H304 0.930 . S
C317 C316 1.388 . S
C317 C318 1.390 . S
C318 C317 1.390 . S
C318 C319 1.394 . S
C318 C324 1.465 . S
C319 C314 1.399 . S
C319 C318 1.394 . S
C319 C320 1.516 . S
C320 C319 1.516 . S
C320 C321 1.502 . S
C320 C322 1.561 . S
C320 C323 1.526 . S
C321 H305 0.959 . S
C321 H306 0.959 . S
C321 H307 0.961 . S
C321 C320 1.502 . S
C322 H308 0.960 . S
C322 H309 0.961 . S
C322 H310 0.959 . S
C322 C320 1.561 . S
C323 C320 1.526 . S
C323 C324 1.396 . S
C323 C328 1.390 . S
C324 C318 1.465 . S
C324 C323 1.396 . S
C324 C325 1.399 . S
C325 H311 0.929 . S
C325 C324 1.399 . S
C325 C326 1.385 . S
C326 H312 0.931 . S
C326 C325 1.385 . S
C326 C327 1.389 . S
C327 C326 1.389 . S
C327 C328 1.387 . S
C328 H313 0.930 . S
C328 C323 1.390 . S
C328 C327 1.387 . S
H329 C341 0.930 . S
H330 C343 0.930 . S
H331 C344 0.930 . S
H332 C348 0.959 . S
H333 C348 0.959 . S
H334 C348 0.961 . S
H335 C349 0.960 . S
H336 C349 0.961 . S
H337 C349 0.959 . S
H338 C352 0.929 . S
H339 C353 0.931 . S
H340 C355 0.930 . S
C341 H329 0.930 . S
C341 C342 1.399 . S
C341 C346 1.399 . S
C342 C341 1.399 . S
C342 C343 1.376 . S
C343 H330 0.930 . S
C343 C342 1.376 . S
C343 C344 1.388 . S
C344 H331 0.930 . S
C344 C343 1.388 . S
C344 C345 1.390 . S
C345 C344 1.390 . S
C345 C346 1.394 . S
C345 C351 1.465 . S
C346 C341 1.399 . S
C346 C345 1.394 . S
C346 C347 1.516 . S
C347 C346 1.516 . S
C347 C348 1.502 . S
C347 C349 1.561 . S
C347 C350 1.526 . S
C348 H332 0.959 . S
C348 H333 0.959 . S
C348 H334 0.961 . S
C348 C347 1.502 . S
C349 H335 0.960 . S
C349 H336 0.961 . S
C349 H337 0.959 . S
C349 C347 1.561 . S
C350 C347 1.526 . S
C350 C351 1.396 . S
C350 C355 1.390 . S
C351 C345 1.465 . S
C351 C350 1.396 . S
C351 C352 1.399 . S
C352 H338 0.929 . S
C352 C351 1.399 . S
C352 C353 1.385 . S
C353 H339 0.931 . S
C353 C352 1.385 . S
C353 C354 1.389 . S
C354 C353 1.389 . S
C354 C355 1.387 . S
C355 H340 0.930 . S
C355 C350 1.390 . S
C355 C354 1.387 . S
H356 C368 0.930 . S
H357 C370 0.930 . S
H358 C371 0.930 . S
H359 C375 0.959 . S
H360 C375 0.959 . S
H361 C375 0.961 . S
H362 C376 0.960 . S
H363 C376 0.961 . S
H364 C376 0.959 . S
H365 C379 0.929 . S
H366 C380 0.931 . S
H367 C382 0.930 . S
C368 H356 0.930 . S
C368 C369 1.399 . S
C368 C373 1.399 . S
C369 C368 1.399 . S
C369 C370 1.376 . S
C370 H357 0.930 . S
C370 C369 1.376 . S
C370 C371 1.388 . S
C371 H358 0.930 . S
C371 C370 1.388 . S
C371 C372 1.390 . S
C372 C371 1.390 . S
C372 C373 1.394 . S
C372 C378 1.465 . S
C373 C368 1.399 . S
C373 C372 1.394 . S
C373 C374 1.516 . S
C374 C373 1.516 . S
C374 C375 1.502 . S
C374 C376 1.561 . S
C374 C377 1.526 . S
C375 H359 0.959 . S
C375 H360 0.959 . S
C375 H361 0.961 . S
C375 C374 1.502 . S
C376 H362 0.960 . S
C376 H363 0.961 . S
C376 H364 0.959 . S
C376 C374 1.561 . S
C377 C374 1.526 . S
C377 C378 1.396 . S
C377 C382 1.390 . S
C378 C372 1.465 . S
C378 C377 1.396 . S
C378 C379 1.399 . S
C379 H365 0.929 . S
C379 C378 1.399 . S
C379 C380 1.385 . S
C380 H366 0.931 . S
C380 C379 1.385 . S
C380 C381 1.389 . S
C381 C380 1.389 . S
C381 C382 1.387 . S
C382 H367 0.930 . S
C382 C377 1.390 . S
C382 C381 1.387 . S
H383 C395 0.930 . S
H384 C397 0.930 . S
H385 C398 0.930 . S
H386 C402 0.959 . S
H387 C402 0.959 . S
H388 C402 0.961 . S
H389 C403 0.960 . S
H390 C403 0.961 . S
H391 C403 0.959 . S
H392 C406 0.929 . S
H393 C407 0.931 . S
H394 C409 0.930 . S
C395 H383 0.930 . S
C395 C396 1.399 . S
C395 C400 1.399 . S
C396 C395 1.399 . S
C396 C397 1.376 . S
C397 H384 0.930 . S
C397 C396 1.376 . S
C397 C398 1.388 . S
C398 H385 0.930 . S
C398 C397 1.388 . S
C398 C399 1.390 . S
C399 C398 1.390 . S
C399 C400 1.394 . S
C399 C405 1.465 . S
C400 C395 1.399 . S
C400 C399 1.394 . S
C400 C401 1.516 . S
C401 C400 1.516 . S
C401 C402 1.502 . S
C401 C403 1.561 . S
C401 C404 1.526 . S
C402 H386 0.959 . S
C402 H387 0.959 . S
C402 H388 0.961 . S
C402 C401 1.502 . S
C403 H389 0.960 . S
C403 H390 0.961 . S
C403 H391 0.959 . S
C403 C401 1.561 . S
C404 C401 1.526 . S
C404 C405 1.396 . S
C404 C409 1.390 . S
C405 C399 1.465 . S
C405 C404 1.396 . S
C405 C406 1.399 . S
C406 H392 0.929 . S
C406 C405 1.399 . S
C406 C407 1.385 . S
C407 H393 0.931 . S
C407 C406 1.385 . S
C407 C408 1.389 . S
C408 C407 1.389 . S
C408 C409 1.387 . S
C409 H394 0.930 . S
C409 C404 1.390 . S
C409 C408 1.387 . S
H410 C422 0.930 . S
H411 C424 0.930 . S
H412 C425 0.930 . S
H413 C429 0.959 . S
H414 C429 0.959 . S
H415 C429 0.961 . S
H416 C430 0.960 . S
H417 C430 0.961 . S
H418 C430 0.959 . S
H419 C433 0.929 . S
H420 C434 0.931 . S
H421 C436 0.930 . S
C422 H410 0.930 . S
C422 C423 1.399 . S
C422 C427 1.399 . S
C423 C422 1.399 . S
C423 C424 1.376 . S
C424 H411 0.930 . S
C424 C423 1.376 . S
C424 C425 1.388 . S
C425 H412 0.930 . S
C425 C424 1.388 . S
C425 C426 1.390 . S
C426 C425 1.390 . S
C426 C427 1.394 . S
C426 C432 1.465 . S
C427 C422 1.399 . S
C427 C426 1.394 . S
C427 C428 1.516 . S
C428 C427 1.516 . S
C428 C429 1.502 . S
C428 C430 1.561 . S
C428 C431 1.526 . S
C429 H413 0.959 . S
C429 H414 0.959 . S
C429 H415 0.961 . S
C429 C428 1.502 . S
C430 H416 0.960 . S
C430 H417 0.961 . S
C430 H418 0.959 . S
C430 C428 1.561 . S
C431 C428 1.526 . S
C431 C432 1.396 . S
C431 C436 1.390 . S
C432 C426 1.465 . S
C432 C431 1.396 . S
C432 C433 1.399 . S
C433 H419 0.929 . S
C433 C432 1.399 . S
C433 C434 1.385 . S
C434 H420 0.931 . S
C434 C433 1.385 . S
C434 C435 1.389 . S
C435 C434 1.389 . S
C435 C436 1.387 . S
C436 H421 0.930 . S
C436 C431 1.390 . S
C436 C435 1.387 . S
H437 C449 0.930 . S
H438 C451 0.930 . S
H439 C452 0.930 . S
H440 C456 0.959 . S
H441 C456 0.959 . S
H442 C456 0.961 . S
H443 C457 0.960 . S
H444 C457 0.961 . S
H445 C457 0.959 . S
H446 C460 0.929 . S
H447 C461 0.931 . S
H448 C463 0.930 . S
C449 H437 0.930 . S
C449 C450 1.399 . S
C449 C454 1.399 . S
C450 C449 1.399 . S
C450 C451 1.376 . S
C451 H438 0.930 . S
C451 C450 1.376 . S
C451 C452 1.388 . S
C452 H439 0.930 . S
C452 C451 1.388 . S
C452 C453 1.390 . S
C453 C452 1.390 . S
C453 C454 1.394 . S
C453 C459 1.465 . S
C454 C449 1.399 . S
C454 C453 1.394 . S
C454 C455 1.516 . S
C455 C454 1.516 . S
C455 C456 1.502 . S
C455 C457 1.561 . S
C455 C458 1.526 . S
C456 H440 0.959 . S
C456 H441 0.959 . S
C456 H442 0.961 . S
C456 C455 1.502 . S
C457 H443 0.960 . S
C457 H444 0.961 . S
C457 H445 0.959 . S
C457 C455 1.561 . S
C458 C455 1.526 . S
C458 C459 1.396 . S
C458 C463 1.390 . S
C459 C453 1.465 . S
C459 C458 1.396 . S
C459 C460 1.399 . S
C460 H446 0.929 . S
C460 C459 1.399 . S
C460 C461 1.385 . S
C461 H447 0.931 . S
C461 C460 1.385 . S
C461 C462 1.389 . S
C462 C461 1.389 . S
C462 C463 1.387 . S
C463 H448 0.930 . S
C463 C458 1.390 . S
C463 C462 1.387 . S
H464 C476 0.930 . S
H465 C478 0.930 . S
H466 C479 0.930 . S
H467 C483 0.959 . S
H468 C483 0.959 . S
H469 C483 0.961 . S
H470 C484 0.960 . S
H471 C484 0.961 . S
H472 C484 0.959 . S
H473 C487 0.929 . S
H474 C488 0.931 . S
H475 C490 0.930 . S
C476 H464 0.930 . S
C476 C477 1.399 . S
C476 C481 1.399 . S
C477 C476 1.399 . S
C477 C478 1.376 . S
C478 H465 0.930 . S
C478 C477 1.376 . S
C478 C479 1.388 . S
C479 H466 0.930 . S
C479 C478 1.388 . S
C479 C480 1.390 . S
C480 C479 1.390 . S
C480 C481 1.394 . S
C480 C486 1.465 . S
C481 C476 1.399 . S
C481 C480 1.394 . S
C481 C482 1.516 . S
C482 C481 1.516 . S
C482 C483 1.502 . S
C482 C484 1.561 . S
C482 C485 1.526 . S
C483 H467 0.959 . S
C483 H468 0.959 . S
C483 H469 0.961 . S
C483 C482 1.502 . S
C484 H470 0.960 . S
C484 H471 0.961 . S
C484 H472 0.959 . S
C484 C482 1.561 . S
C485 C482 1.526 . S
C485 C486 1.396 . S
C485 C490 1.390 . S
C486 C480 1.465 . S
C486 C485 1.396 . S
C486 C487 1.399 . S
C487 H473 0.929 . S
C487 C486 1.399 . S
C487 C488 1.385 . S
C488 H474 0.931 . S
C488 C487 1.385 . S
C488 C489 1.389 . S
C489 C488 1.389 . S
C489 C490 1.387 . S
C490 H475 0.930 . S
C490 C485 1.390 . S
C490 C489 1.387 . S
H491 C503 0.930 . S
H492 C505 0.930 . S
H493 C506 0.930 . S
H494 C510 0.959 . S
H495 C510 0.959 1_554 S
H496 C510 0.961 . S
H497 C511 0.960 . S
H498 C511 0.961 1_554 S
H499 C511 0.959 . S
H500 C514 0.929 . S
H501 C515 0.931 . S
H502 C517 0.930 1_554 S
C503 H491 0.930 . S
C503 C504 1.399 . S
C503 C508 1.399 . S
C504 C503 1.399 . S
C504 C505 1.376 . S
C505 H492 0.930 . S
C505 C504 1.376 . S
C505 C506 1.388 . S
C506 H493 0.930 . S
C506 C505 1.388 . S
C506 C507 1.390 . S
C507 C506 1.390 . S
C507 C508 1.394 . S
C507 C513 1.465 . S
C508 C503 1.399 . S
C508 C507 1.394 . S
C508 C509 1.516 . S
C509 C508 1.516 . S
C509 C510 1.502 . S
C509 C511 1.561 . S
C509 C512 1.526 . S
C510 H494 0.959 . S
C510 H495 0.959 1_556 S
C510 H496 0.961 . S
C510 C509 1.502 . S
C511 H497 0.960 . S
C511 H498 0.961 1_556 S
C511 H499 0.959 . S
C511 C509 1.561 . S
C512 C509 1.526 . S
C512 C513 1.396 . S
C512 C517 1.390 . S
C513 C507 1.465 . S
C513 C512 1.396 . S
C513 C514 1.399 . S
C514 H500 0.929 . S
C514 C513 1.399 . S
C514 C515 1.385 . S
C515 H501 0.931 . S
C515 C514 1.385 . S
C515 C516 1.389 . S
C516 C515 1.389 . S
C516 C517 1.387 . S
C517 H502 0.930 1_556 S
C517 C512 1.390 . S
C517 C516 1.387 . S
H518 C530 0.930 . S
H519 C532 0.930 . S
H520 C533 0.930 . S
H521 C537 0.959 . S
H522 C537 0.959 . S
H523 C537 0.961 . S
H524 C538 0.960 . S
H525 C538 0.961 . S
H526 C538 0.959 . S
H527 C541 0.929 . S
H528 C542 0.931 . S
H529 C544 0.930 . S
C530 H518 0.930 . S
C530 C531 1.399 . S
C530 C535 1.399 . S
C531 C530 1.399 . S
C531 C532 1.376 . S
C532 H519 0.930 . S
C532 C531 1.376 . S
C532 C533 1.388 . S
C533 H520 0.930 . S
C533 C532 1.388 . S
C533 C534 1.390 . S
C534 C533 1.390 . S
C534 C535 1.394 . S
C534 C540 1.465 . S
C535 C530 1.399 . S
C535 C534 1.394 . S
C535 C536 1.516 . S
C536 C535 1.516 . S
C536 C537 1.502 . S
C536 C538 1.561 . S
C536 C539 1.526 . S
C537 H521 0.959 . S
C537 H522 0.959 . S
C537 H523 0.961 . S
C537 C536 1.502 . S
C538 H524 0.960 . S
C538 H525 0.961 . S
C538 H526 0.959 . S
C538 C536 1.561 . S
C539 C536 1.526 . S
C539 C540 1.396 . S
C539 C544 1.390 . S
C540 C534 1.465 . S
C540 C539 1.396 . S
C540 C541 1.399 . S
C541 H527 0.929 . S
C541 C540 1.399 . S
C541 C542 1.385 . S
C542 H528 0.931 . S
C542 C541 1.385 . S
C542 C543 1.389 . S
C543 C542 1.389 . S
C543 C544 1.387 . S
C544 H529 0.930 . S
C544 C539 1.390 . S
C544 C543 1.387 . S
H545 C557 0.930 . S
H546 C559 0.930 . S
H547 C560 0.930 . S
H548 C564 0.959 . S
H549 C564 0.959 . S
H550 C564 0.961 . S
H551 C565 0.960 . S
H552 C565 0.961 . S
H553 C565 0.959 . S
H554 C568 0.929 . S
H555 C569 0.931 . S
H556 C571 0.930 . S
C557 H545 0.930 . S
C557 C558 1.399 . S
C557 C562 1.399 . S
C558 C557 1.399 . S
C558 C559 1.376 . S
C559 H546 0.930 . S
C559 C558 1.376 . S
C559 C560 1.388 . S
C560 H547 0.930 . S
C560 C559 1.388 . S
C560 C561 1.390 . S
C561 C560 1.390 . S
C561 C562 1.394 . S
C561 C567 1.465 . S
C562 C557 1.399 . S
C562 C561 1.394 . S
C562 C563 1.516 . S
C563 C562 1.516 . S
C563 C564 1.502 . S
C563 C565 1.561 . S
C563 C566 1.526 . S
C564 H548 0.959 . S
C564 H549 0.959 . S
C564 H550 0.961 . S
C564 C563 1.502 . S
C565 H551 0.960 . S
C565 H552 0.961 . S
C565 H553 0.959 . S
C565 C563 1.561 . S
C566 C563 1.526 . S
C566 C567 1.396 . S
C566 C571 1.390 . S
C567 C561 1.465 . S
C567 C566 1.396 . S
C567 C568 1.399 . S
C568 H554 0.929 . S
C568 C567 1.399 . S
C568 C569 1.385 . S
C569 H555 0.931 . S
C569 C568 1.385 . S
C569 C570 1.389 . S
C570 C569 1.389 . S
C570 C571 1.387 . S
C571 H556 0.930 . S
C571 C566 1.390 . S
C571 C570 1.387 . S
H572 C584 0.930 . S
H573 C586 0.930 . S
H574 C587 0.930 . S
H575 C591 0.959 . S
H576 C591 0.959 . S
H577 C591 0.961 . S
H578 C592 0.960 . S
H579 C592 0.961 . S
H580 C592 0.959 . S
H581 C595 0.929 . S
H582 C596 0.931 . S
H583 C598 0.930 . S
C584 H572 0.930 . S
C584 C585 1.399 . S
C584 C589 1.399 . S
C585 C584 1.399 . S
C585 C586 1.376 . S
C586 H573 0.930 . S
C586 C585 1.376 . S
C586 C587 1.388 . S
C587 H574 0.930 . S
C587 C586 1.388 . S
C587 C588 1.390 . S
C588 C587 1.390 . S
C588 C589 1.394 . S
C588 C594 1.465 . S
C589 C584 1.399 . S
C589 C588 1.394 . S
C589 C590 1.516 . S
C590 C589 1.516 . S
C590 C591 1.502 . S
C590 C592 1.561 . S
C590 C593 1.526 . S
C591 H575 0.959 . S
C591 H576 0.959 . S
C591 H577 0.961 . S
C591 C590 1.502 . S
C592 H578 0.960 . S
C592 H579 0.961 . S
C592 H580 0.959 . S
C592 C590 1.561 . S
C593 C590 1.526 . S
C593 C594 1.396 . S
C593 C598 1.390 . S
C594 C588 1.465 . S
C594 C593 1.396 . S
C594 C595 1.399 . S
C595 H581 0.929 . S
C595 C594 1.399 . S
C595 C596 1.385 . S
C596 H582 0.931 . S
C596 C595 1.385 . S
C596 C597 1.389 . S
C597 C596 1.389 . S
C597 C598 1.387 . S
C598 H583 0.930 . S
C598 C593 1.390 . S
C598 C597 1.387 . S
H599 C611 0.930 . S
H600 C613 0.930 . S
H601 C614 0.930 . S
H602 C618 0.959 . S
H603 C618 0.959 . S
H604 C618 0.961 . S
H605 C619 0.960 . S
H606 C619 0.961 . S
H607 C619 0.959 . S
H608 C622 0.929 . S
H609 C623 0.931 . S
H610 C625 0.930 . S
C611 H599 0.930 . S
C611 C612 1.399 . S
C611 C616 1.399 . S
C612 C611 1.399 . S
C612 C613 1.376 . S
C613 H600 0.930 . S
C613 C612 1.376 . S
C613 C614 1.388 . S
C614 H601 0.930 . S
C614 C613 1.388 . S
C614 C615 1.390 . S
C615 C614 1.390 . S
C615 C616 1.394 . S
C615 C621 1.465 . S
C616 C611 1.399 . S
C616 C615 1.394 . S
C616 C617 1.516 . S
C617 C616 1.516 . S
C617 C618 1.502 . S
C617 C619 1.561 . S
C617 C620 1.526 . S
C618 H602 0.959 . S
C618 H603 0.959 . S
C618 H604 0.961 . S
C618 C617 1.502 . S
C619 H605 0.960 . S
C619 H606 0.961 . S
C619 H607 0.959 . S
C619 C617 1.561 . S
C620 C617 1.526 . S
C620 C621 1.396 . S
C620 C625 1.390 . S
C621 C615 1.465 . S
C621 C620 1.396 . S
C621 C622 1.399 . S
C622 H608 0.929 . S
C622 C621 1.399 . S
C622 C623 1.385 . S
C623 H609 0.931 . S
C623 C622 1.385 . S
C623 C624 1.389 . S
C624 C623 1.389 . S
C624 C625 1.387 . S
C625 H610 0.930 . S
C625 C620 1.390 . S
C625 C624 1.387 . S
H626 C638 0.930 . S
H627 C640 0.930 . S
H628 C641 0.930 . S
H629 C645 0.959 . S
H630 C645 0.959 . S
H631 C645 0.961 . S
H632 C646 0.960 . S
H633 C646 0.961 . S
H634 C646 0.959 . S
H635 C649 0.929 . S
H636 C650 0.931 . S
H637 C652 0.930 . S
C638 H626 0.930 . S
C638 C639 1.399 . S
C638 C643 1.399 . S
C639 C638 1.399 . S
C639 C640 1.376 . S
C640 H627 0.930 . S
C640 C639 1.376 . S
C640 C641 1.388 . S
C641 H628 0.930 . S
C641 C640 1.388 . S
C641 C642 1.390 . S
C642 C641 1.390 . S
C642 C643 1.394 . S
C642 C648 1.465 . S
C643 C638 1.399 . S
C643 C642 1.394 . S
C643 C644 1.516 . S
C644 C643 1.516 . S
C644 C645 1.502 . S
C644 C646 1.561 . S
C644 C647 1.526 . S
C645 H629 0.959 . S
C645 H630 0.959 . S
C645 H631 0.961 . S
C645 C644 1.502 . S
C646 H632 0.960 . S
C646 H633 0.961 . S
C646 H634 0.959 . S
C646 C644 1.561 . S
C647 C644 1.526 . S
C647 C648 1.396 . S
C647 C652 1.390 . S
C648 C642 1.465 . S
C648 C647 1.396 . S
C648 C649 1.399 . S
C649 H635 0.929 . S
C649 C648 1.399 . S
C649 C650 1.385 . S
C650 H636 0.931 . S
C650 C649 1.385 . S
C650 C651 1.389 . S
C651 C650 1.389 . S
C651 C652 1.387 . S
C652 H637 0.930 . S
C652 C647 1.390 . S
C652 C651 1.387 . S
H653 C665 0.930 . S
H654 C667 0.930 . S
H655 C668 0.930 . S
H656 C672 0.959 . S
H657 C672 0.959 . S
H658 C672 0.961 . S
H659 C673 0.960 . S
H660 C673 0.961 . S
H661 C673 0.959 . S
H662 C676 0.929 . S
H663 C677 0.931 . S
H664 C679 0.930 . S
C665 H653 0.930 . S
C665 C666 1.399 . S
C665 C670 1.399 . S
C666 C665 1.399 . S
C666 C667 1.376 . S
C667 H654 0.930 . S
C667 C666 1.376 . S
C667 C668 1.388 . S
C668 H655 0.930 . S
C668 C667 1.388 . S
C668 C669 1.390 . S
C669 C668 1.390 . S
C669 C670 1.394 . S
C669 C675 1.465 . S
C670 C665 1.399 . S
C670 C669 1.394 . S
C670 C671 1.516 . S
C671 C670 1.516 . S
C671 C672 1.502 . S
C671 C673 1.561 . S
C671 C674 1.526 . S
C672 H656 0.959 . S
C672 H657 0.959 . S
C672 H658 0.961 . S
C672 C671 1.502 . S
C673 H659 0.960 . S
C673 H660 0.961 . S
C673 H661 0.959 . S
C673 C671 1.561 . S
C674 C671 1.526 . S
C674 C675 1.396 . S
C674 C679 1.390 . S
C675 C669 1.465 . S
C675 C674 1.396 . S
C675 C676 1.399 . S
C676 H662 0.929 . S
C676 C675 1.399 . S
C676 C677 1.385 . S
C677 H663 0.931 . S
C677 C676 1.385 . S
C677 C678 1.389 . S
C678 C677 1.389 . S
C678 C679 1.387 . S
C679 H664 0.930 . S
C679 C674 1.390 . S
C679 C678 1.387 . S
H680 C692 0.930 . S
H681 C694 0.930 . S
H682 C695 0.930 . S
H683 C699 0.959 . S
H684 C699 0.959 . S
H685 C699 0.961 . S
H686 C700 0.960 . S
H687 C700 0.961 1_554 S
H688 C700 0.959 1_554 S
H689 C703 0.929 . S
H690 C704 0.931 1_545 S
H691 C706 0.930 . S
C692 H680 0.930 . S
C692 C693 1.399 . S
C692 C697 1.399 . S
C693 C692 1.399 . S
C693 C694 1.376 . S
C694 H681 0.930 . S
C694 C693 1.376 . S
C694 C695 1.388 . S
C695 H682 0.930 . S
C695 C694 1.388 . S
C695 C696 1.390 . S
C696 C695 1.390 . S
C696 C697 1.394 . S
C696 C702 1.465 . S
C697 C692 1.399 . S
C697 C696 1.394 . S
C697 C698 1.516 . S
C698 C697 1.516 . S
C698 C699 1.502 . S
C698 C700 1.561 . S
C698 C701 1.526 . S
C699 H683 0.959 . S
C699 H684 0.959 . S
C699 H685 0.961 . S
C699 C698 1.502 . S
C700 H686 0.960 . S
C700 H687 0.961 1_556 S
C700 H688 0.959 1_556 S
C700 C698 1.561 . S
C701 C698 1.526 . S
C701 C702 1.396 . S
C701 C706 1.390 . S
C702 C696 1.465 . S
C702 C701 1.396 . S
C702 C703 1.399 . S
C703 H689 0.929 . S
C703 C702 1.399 . S
C703 C704 1.385 . S
C704 H690 0.931 1_565 S
C704 C703 1.385 . S
C704 C705 1.389 . S
C705 C704 1.389 . S
C705 C706 1.387 . S
C706 H691 0.930 . S
C706 C701 1.390 . S
C706 C705 1.387 . S
H707 C719 0.930 1_455 S
H708 C721 0.930 . S
H709 C722 0.930 . S
H710 C726 0.959 . S
H711 C726 0.959 . S
H712 C726 0.961 . S
H713 C727 0.960 . S
H714 C727 0.961 . S
H715 C727 0.959 1_655 S
H716 C730 0.929 . S
H717 C731 0.931 . S
H718 C733 0.930 1_455 S
C719 H707 0.930 1_655 S
C719 C720 1.399 . S
C719 C724 1.399 . S
C720 C719 1.399 . S
C720 C721 1.376 . S
C721 H708 0.930 . S
C721 C720 1.376 . S
C721 C722 1.388 . S
C722 H709 0.930 . S
C722 C721 1.388 . S
C722 C723 1.390 . S
C723 C722 1.390 . S
C723 C724 1.394 . S
C723 C729 1.465 . S
C724 C719 1.399 . S
C724 C723 1.394 . S
C724 C725 1.516 1_655 S
C725 C724 1.516 1_455 S
C725 C726 1.502 . S
C725 C727 1.561 . S
C725 C728 1.526 1_455 S
C726 H710 0.959 . S
C726 H711 0.959 . S
C726 H712 0.961 . S
C726 C725 1.502 . S
C727 H713 0.960 . S
C727 H714 0.961 . S
C727 H715 0.959 1_455 S
C727 C725 1.561 . S
C728 C725 1.526 1_655 S
C728 C729 1.396 . S
C728 C733 1.390 . S
C729 C723 1.465 . S
C729 C728 1.396 . S
C729 C730 1.399 . S
C730 H716 0.929 . S
C730 C729 1.399 . S
C730 C731 1.385 . S
C731 H717 0.931 . S
C731 C730 1.385 . S
C731 C732 1.389 . S
C732 C731 1.389 . S
C732 C733 1.387 . S
C733 H718 0.930 1_655 S
C733 C728 1.390 . S
C733 C732 1.387 . S
H734 C746 0.930 . S
H735 C748 0.930 . S
H736 C749 0.930 . S
H737 C753 0.959 . S
H738 C753 0.959 . S
H739 C753 0.961 . S
H740 C754 0.960 . S
H741 C754 0.961 . S
H742 C754 0.959 . S
H743 C757 0.929 . S
H744 C758 0.931 . S
H745 C760 0.930 . S
C746 H734 0.930 . S
C746 C747 1.399 . S
C746 C751 1.399 . S
C747 C746 1.399 . S
C747 C748 1.376 . S
C748 H735 0.930 . S
C748 C747 1.376 . S
C748 C749 1.388 . S
C749 H736 0.930 . S
C749 C748 1.388 . S
C749 C750 1.390 . S
C750 C749 1.390 . S
C750 C751 1.394 . S
C750 C756 1.465 . S
C751 C746 1.399 . S
C751 C750 1.394 . S
C751 C752 1.516 . S
C752 C751 1.516 . S
C752 C753 1.502 . S
C752 C754 1.561 . S
C752 C755 1.526 . S
C753 H737 0.959 . S
C753 H738 0.959 . S
C753 H739 0.961 . S
C753 C752 1.502 . S
C754 H740 0.960 . S
C754 H741 0.961 . S
C754 H742 0.959 . S
C754 C752 1.561 . S
C755 C752 1.526 . S
C755 C756 1.396 . S
C755 C760 1.390 . S
C756 C750 1.465 . S
C756 C755 1.396 . S
C756 C757 1.399 . S
C757 H743 0.929 . S
C757 C756 1.399 . S
C757 C758 1.385 . S
C758 H744 0.931 . S
C758 C757 1.385 . S
C758 C759 1.389 . S
C759 C758 1.389 . S
C759 C760 1.387 . S
C760 H745 0.930 . S
C760 C755 1.390 . S
C760 C759 1.387 . S
H761 C773 0.930 . S
H762 C775 0.930 . S
H763 C776 0.930 . S
H764 C780 0.959 . S
H765 C780 0.959 . S
H766 C780 0.961 . S
H767 C781 0.960 . S
H768 C781 0.961 . S
H769 C781 0.959 . S
H770 C784 0.929 . S
H771 C785 0.931 . S
H772 C787 0.930 . S
C773 H761 0.930 . S
C773 C774 1.399 . S
C773 C778 1.399 . S
C774 C773 1.399 . S
C774 C775 1.376 . S
C775 H762 0.930 . S
C775 C774 1.376 . S
C775 C776 1.388 . S
C776 H763 0.930 . S
C776 C775 1.388 . S
C776 C777 1.390 . S
C777 C776 1.390 . S
C777 C778 1.394 . S
C777 C783 1.465 . S
C778 C773 1.399 . S
C778 C777 1.394 . S
C778 C779 1.516 . S
C779 C778 1.516 . S
C779 C780 1.502 . S
C779 C781 1.561 . S
C779 C782 1.526 . S
C780 H764 0.959 . S
C780 H765 0.959 . S
C780 H766 0.961 . S
C780 C779 1.502 . S
C781 H767 0.960 . S
C781 H768 0.961 . S
C781 H769 0.959 . S
C781 C779 1.561 . S
C782 C779 1.526 . S
C782 C783 1.396 . S
C782 C787 1.390 . S
C783 C777 1.465 . S
C783 C782 1.396 . S
C783 C784 1.399 . S
C784 H770 0.929 . S
C784 C783 1.399 . S
C784 C785 1.385 . S
C785 H771 0.931 . S
C785 C784 1.385 . S
C785 C786 1.389 . S
C786 C785 1.389 . S
C786 C787 1.387 . S
C787 H772 0.930 . S
C787 C782 1.390 . S
C787 C786 1.387 . S
H788 C800 0.930 . S
H789 C802 0.930 . S
H790 C803 0.930 . S
H791 C807 0.959 . S
H792 C807 0.959 . S
H793 C807 0.961 . S
H794 C808 0.960 . S
H795 C808 0.961 . S
H796 C808 0.959 . S
H797 C811 0.929 . S
H798 C812 0.931 . S
H799 C814 0.930 . S
C800 H788 0.930 . S
C800 C801 1.399 . S
C800 C805 1.399 . S
C801 C800 1.399 . S
C801 C802 1.376 . S
C802 H789 0.930 . S
C802 C801 1.376 . S
C802 C803 1.388 . S
C803 H790 0.930 . S
C803 C802 1.388 . S
C803 C804 1.390 . S
C804 C803 1.390 . S
C804 C805 1.394 . S
C804 C810 1.465 . S
C805 C800 1.399 . S
C805 C804 1.394 . S
C805 C806 1.516 . S
C806 C805 1.516 . S
C806 C807 1.502 . S
C806 C808 1.561 . S
C806 C809 1.526 . S
C807 H791 0.959 . S
C807 H792 0.959 . S
C807 H793 0.961 . S
C807 C806 1.502 . S
C808 H794 0.960 . S
C808 H795 0.961 . S
C808 H796 0.959 . S
C808 C806 1.561 . S
C809 C806 1.526 . S
C809 C810 1.396 . S
C809 C814 1.390 . S
C810 C804 1.465 . S
C810 C809 1.396 . S
C810 C811 1.399 . S
C811 H797 0.929 . S
C811 C810 1.399 . S
C811 C812 1.385 . S
C812 H798 0.931 . S
C812 C811 1.385 . S
C812 C813 1.389 . S
C813 C812 1.389 . S
C813 C814 1.387 . S
C814 H799 0.930 . S
C814 C809 1.390 . S
C814 C813 1.387 . S
H815 C827 0.930 . S
H816 C829 0.930 . S
H817 C830 0.930 . S
H818 C834 0.959 . S
H819 C834 0.959 . S
H820 C834 0.961 . S
H821 C835 0.960 . S
H822 C835 0.961 . S
H823 C835 0.959 . S
H824 C838 0.929 . S
H825 C839 0.931 . S
H826 C841 0.930 . S
C827 H815 0.930 . S
C827 C828 1.399 . S
C827 C832 1.399 . S
C828 C827 1.399 . S
C828 C829 1.376 . S
C829 H816 0.930 . S
C829 C828 1.376 . S
C829 C830 1.388 . S
C830 H817 0.930 . S
C830 C829 1.388 . S
C830 C831 1.390 . S
C831 C830 1.390 . S
C831 C832 1.394 . S
C831 C837 1.465 . S
C832 C827 1.399 . S
C832 C831 1.394 . S
C832 C833 1.516 . S
C833 C832 1.516 . S
C833 C834 1.502 . S
C833 C835 1.561 . S
C833 C836 1.526 . S
C834 H818 0.959 . S
C834 H819 0.959 . S
C834 H820 0.961 . S
C834 C833 1.502 . S
C835 H821 0.960 . S
C835 H822 0.961 . S
C835 H823 0.959 . S
C835 C833 1.561 . S
C836 C833 1.526 . S
C836 C837 1.396 . S
C836 C841 1.390 . S
C837 C831 1.465 . S
C837 C836 1.396 . S
C837 C838 1.399 . S
C838 H824 0.929 . S
C838 C837 1.399 . S
C838 C839 1.385 . S
C839 H825 0.931 . S
C839 C838 1.385 . S
C839 C840 1.389 . S
C840 C839 1.389 . S
C840 C841 1.387 . S
C841 H826 0.930 . S
C841 C836 1.390 . S
C841 C840 1.387 . S
H842 C854 0.930 . S
H843 C856 0.930 . S
H844 C857 0.930 . S
H845 C861 0.959 . S
H846 C861 0.959 . S
H847 C861 0.961 . S
H848 C862 0.960 . S
H849 C862 0.961 . S
H850 C862 0.959 . S
H851 C865 0.929 . S
H852 C866 0.931 . S
H853 C868 0.930 . S
C854 H842 0.930 . S
C854 C855 1.399 . S
C854 C859 1.399 . S
C855 C854 1.399 . S
C855 C856 1.376 . S
C856 H843 0.930 . S
C856 C855 1.376 . S
C856 C857 1.388 . S
C857 H844 0.930 . S
C857 C856 1.388 . S
C857 C858 1.390 . S
C858 C857 1.390 . S
C858 C859 1.394 . S
C858 C864 1.465 . S
C859 C854 1.399 . S
C859 C858 1.394 . S
C859 C860 1.516 . S
C860 C859 1.516 . S
C860 C861 1.502 . S
C860 C862 1.561 . S
C860 C863 1.526 . S
C861 H845 0.959 . S
C861 H846 0.959 . S
C861 H847 0.961 . S
C861 C860 1.502 . S
C862 H848 0.960 . S
C862 H849 0.961 . S
C862 H850 0.959 . S
C862 C860 1.561 . S
C863 C860 1.526 . S
C863 C864 1.396 . S
C863 C868 1.390 . S
C864 C858 1.465 . S
C864 C863 1.396 . S
C864 C865 1.399 . S
C865 H851 0.929 . S
C865 C864 1.399 . S
C865 C866 1.385 . S
C866 H852 0.931 . S
C866 C865 1.385 . S
C866 C867 1.389 . S
C867 C866 1.389 . S
C867 C868 1.387 . S
C868 H853 0.930 . S
C868 C863 1.390 . S
C868 C867 1.387 . S
H869 C881 0.930 . S
H870 C883 0.930 . S
H871 C884 0.930 . S
H872 C888 0.959 . S
H873 C888 0.959 . S
H874 C888 0.961 . S
H875 C889 0.960 . S
H876 C889 0.961 . S
H877 C889 0.959 . S
H878 C892 0.929 . S
H879 C893 0.931 . S
H880 C895 0.930 . S
C881 H869 0.930 . S
C881 C882 1.399 . S
C881 C886 1.399 . S
C882 C881 1.399 . S
C882 C883 1.376 . S
C883 H870 0.930 . S
C883 C882 1.376 . S
C883 C884 1.388 . S
C884 H871 0.930 . S
C884 C883 1.388 . S
C884 C885 1.390 . S
C885 C884 1.390 . S
C885 C886 1.394 . S
C885 C891 1.465 . S
C886 C881 1.399 . S
C886 C885 1.394 . S
C886 C887 1.516 . S
C887 C886 1.516 . S
C887 C888 1.502 . S
C887 C889 1.561 . S
C887 C890 1.526 . S
C888 H872 0.959 . S
C888 H873 0.959 . S
C888 H874 0.961 . S
C888 C887 1.502 . S
C889 H875 0.960 . S
C889 H876 0.961 . S
C889 H877 0.959 . S
C889 C887 1.561 . S
C890 C887 1.526 . S
C890 C891 1.396 . S
C890 C895 1.390 . S
C891 C885 1.465 . S
C891 C890 1.396 . S
C891 C892 1.399 . S
C892 H878 0.929 . S
C892 C891 1.399 . S
C892 C893 1.385 . S
C893 H879 0.931 . S
C893 C892 1.385 . S
C893 C894 1.389 . S
C894 C893 1.389 . S
C894 C895 1.387 . S
C895 H880 0.930 . S
C895 C890 1.390 . S
C895 C894 1.387 . S
C261 C5 1.202 . S
C273 C103 1.326 . S
C288 C18 1.139 . S
C300 C143 1.116 . S
C327 C177 2.104 . S
C315 C30 2.136 . S
C342 C41 2.321 . S
C354 C218 2.291 . S
C381 C138 1.469 . S
C369 C7 1.343 . S
C408 C98 2.164 . S
C396 C16 2.072 . S
C435 C226 1.647 . S
C423 C29 1.588 . S
C462 C187 1.483 . S
C450 C38 1.115 . S
C477 C8 1.250 . S
C489 C223 1.381 . S
C516 C146 2.185 1_556 S
C504 C27 2.046 . S
C531 C40 2.452 . S
C543 C106 2.383 . S
C558 C19 1.422 . S
C570 C174 1.407 . S
C597 C94 1.301 . S
C585 C51 1.250 . S
C612 C62 1.497 . S
C624 C134 1.432 . S
C639 C74 2.278 . S
C651 C186 2.297 . S
C666 C84 2.318 . S
C678 C227 2.317 . S
C693 C49 1.368 . S
C705 C147 1.835 1_556 S
C732 C107 2.141 . S
C720 C63 2.063 . S
C759 C217 1.500 . S
C747 C71 1.422 . S
C786 C178 1.633 . S
C774 C85 1.682 . S
C801 C52 1.218 . S
C813 C214 1.402 . S
C840 C137 2.276 . S
C828 C73 2.310 . S
C867 C97 2.047 . S
C855 C82 2.017 . S
C882 C60 1.534 . S
C894 C183 1.560 . S
