# Generated by pormake.
# Topology zzz, (3,6)-cn, num edge types: 1
# Building blocks:
#     Node 0, Type 0, BuildingBlock: WUSLED_clean_sbu_0, # of connection points: 3
#     Node 1, Type 0, BuildingBlock: WUSLED_clean_sbu_0, # of connection points: 3
#     Node 2, Type 0, BuildingBlock: WUSLED_clean_sbu_0, # of connection points: 3
#     Node 3, Type 0, BuildingBlock: WUSLED_clean_sbu_0, # of connection points: 3
#     Node 4, Type 0, BuildingBlock: WUSLED_clean_sbu_0, # of connection points: 3
#     Node 5, Type 0, BuildingBlock: WUSLED_clean_sbu_0, # of connection points: 3
#     Node 6, Type 0, BuildingBlock: WUSLED_clean_sbu_0, # of connection points: 3
#     Node 7, Type 0, BuildingBlock: WUSLED_clean_sbu_0, # of connection points: 3
#     Node 8, Type 1, BuildingBlock: NUHQIS_clean_sbu_0, # of connection points: 6
#     Node 9, Type 1, BuildingBlock: NUHQIS_clean_sbu_0, # of connection points: 6
#     Node 10, Type 1, BuildingBlock: NUHQIS_clean_sbu_0, # of connection points: 6
#     Node 11, Type 1, BuildingBlock: NUHQIS_clean_sbu_0, # of connection points: 6
#     Edge 12, Type (0, 1), BuildingBlock: XIVTED_clean_linker_0, # of connection points: 2
#     Edge 13, Type (0, 1), BuildingBlock: XIVTED_clean_linker_0, # of connection points: 2
#     Edge 14, Type (0, 1), BuildingBlock: XIVTED_clean_linker_0, # of connection points: 2
#     Edge 15, Type (0, 1), BuildingBlock: XIVTED_clean_linker_0, # of connection points: 2
#     Edge 16, Type (0, 1), BuildingBlock: XIVTED_clean_linker_0, # of connection points: 2
#     Edge 17, Type (0, 1), BuildingBlock: XIVTED_clean_linker_0, # of connection points: 2
#     Edge 18, Type (0, 1), BuildingBlock: XIVTED_clean_linker_0, # of connection points: 2
#     Edge 19, Type (0, 1), BuildingBlock: XIVTED_clean_linker_0, # of connection points: 2
#     Edge 20, Type (0, 1), BuildingBlock: XIVTED_clean_linker_0, # of connection points: 2
#     Edge 21, Type (0, 1), BuildingBlock: XIVTED_clean_linker_0, # of connection points: 2
#     Edge 22, Type (0, 1), BuildingBlock: XIVTED_clean_linker_0, # of connection points: 2
#     Edge 23, Type (0, 1), BuildingBlock: XIVTED_clean_linker_0, # of connection points: 2
#     Edge 24, Type (0, 1), BuildingBlock: XIVTED_clean_linker_0, # of connection points: 2
#     Edge 25, Type (0, 1), BuildingBlock: XIVTED_clean_linker_0, # of connection points: 2
#     Edge 26, Type (0, 1), BuildingBlock: XIVTED_clean_linker_0, # of connection points: 2
#     Edge 27, Type (0, 1), BuildingBlock: XIVTED_clean_linker_0, # of connection points: 2
#     Edge 28, Type (0, 1), BuildingBlock: XIVTED_clean_linker_0, # of connection points: 2
#     Edge 29, Type (0, 1), BuildingBlock: XIVTED_clean_linker_0, # of connection points: 2
#     Edge 30, Type (0, 1), BuildingBlock: XIVTED_clean_linker_0, # of connection points: 2
#     Edge 31, Type (0, 1), BuildingBlock: XIVTED_clean_linker_0, # of connection points: 2
#     Edge 32, Type (0, 1), BuildingBlock: XIVTED_clean_linker_0, # of connection points: 2
#     Edge 33, Type (0, 1), BuildingBlock: XIVTED_clean_linker_0, # of connection points: 2
#     Edge 34, Type (0, 1), BuildingBlock: XIVTED_clean_linker_0, # of connection points: 2
#     Edge 35, Type (0, 1), BuildingBlock: XIVTED_clean_linker_0, # of connection points: 2
# Relax obj value: 0.390
# Max RMSD: 0.249
# Mean RMSD: 0.226
data_MOF--net-zzz--node1-WUSLED_clean_sbu_0--node2-NUHQIS_clean_sbu_0--edge1-XIVTED_clean_linker_0
_symmetry_space_group_name_H-M    P1
_symmetry_Int_Tables_number       1
_symmetry_cell_setting            triclinic
loop_
_symmetry_equiv_pos_as_xyz
'x, y, z'
_cell_length_a     64.272615
_cell_length_b     64.374575
_cell_length_c     20.400314
_cell_angle_alpha  89.990571
_cell_angle_beta   90.001421
_cell_angle_gamma 90.087539
loop_
_atom_site_label
_atom_site_type_symbol
_atom_site_fract_x
_atom_site_fract_y
_atom_site_fract_z
_atom_type_partial_charge
C0 C 0.78189 0.52998 0.42334 0.0
C1 C 0.79498 0.5151 0.39457 0.0
C2 C 0.82273 0.52351 0.47246 0.0
C3 C 0.81523 0.51199 0.41857 0.0
C4 C 0.8094 0.53825 0.50136 0.0
C5 C 0.78928 0.54147 0.47693 0.0
U6 U 0.73739 0.52238 0.29812 0.0
O7 O 0.70359 0.51892 0.31383 0.0
O8 O 0.71565 0.54585 0.26013 0.0
C9 C 0.69906 0.53542 0.27858 0.0
C10 C 0.7606 0.53389 0.3984 0.0
C11 C 0.68281 0.53272 0.2279 0.0
C12 C 0.64767 0.53984 0.18939 0.0
C13 C 0.66311 0.5415 0.23762 0.0
C14 C 0.67139 0.52042 0.12074 0.0
C15 C 0.65157 0.52933 0.13006 0.0
C16 C 0.68684 0.52209 0.16917 0.0
C17 C 0.7758 0.48806 0.20838 0.0
C18 C 0.79776 0.45822 0.18605 0.0
C19 C 0.81339 0.49172 0.20885 0.0
C20 C 0.79367 0.50033 0.21679 0.0
C21 C 0.81569 0.47063 0.19245 0.0
C22 C 0.77798 0.46689 0.19386 0.0
C23 C 0.75489 0.49718 0.21405 0.0
O24 O 0.75932 0.5445 0.34349 0.0
O25 O 0.74762 0.5181 0.40039 0.0
O26 O 0.74365 0.49054 0.26366 0.0
O27 O 0.75383 0.51739 0.20533 0.0
H28 H 0.7895 0.50587 0.35375 0.0
H29 H 0.82493 0.50035 0.39544 0.0
H30 H 0.81466 0.54761 0.54226 0.0
H31 H 0.77947 0.55306 0.49988 0.0
H32 H 0.63278 0.54718 0.19817 0.0
H33 H 0.65971 0.54989 0.2824 0.0
H34 H 0.67494 0.51199 0.0762 0.0
H35 H 0.70196 0.51518 0.16065 0.0
H36 H 0.79899 0.44187 0.17419 0.0
H37 H 0.82679 0.50185 0.21313 0.0
H38 H 0.79246 0.51669 0.22862 0.0
H39 H 0.76437 0.45713 0.18771 0.0
C40 C 0.99033 0.78624 0.40847 0.0
C41 C 0.9876 0.80413 0.3697 0.0
C42 C 0.99546 0.82658 0.46326 0.0
C43 C 0.99012 0.82401 0.39676 0.0
C44 C 0.99881 0.80866 0.50137 0.0
C45 C 0.99618 0.78878 0.47439 0.0
U46 U 0.9978 0.73896 0.29192 0.0
O47 O 0.99583 0.70518 0.31065 0.0
O48 O 0.97299 0.72029 0.24693 0.0
C49 C 0.98062 0.70259 0.26816 0.0
C50 C 0.98533 0.76507 0.38324 0.0
C51 C 0.98318 0.68588 0.21804 0.0
C52 C 0.99707 0.65217 0.18462 0.0
C53 C 0.99516 0.66809 0.23131 0.0
C54 C 0.97485 0.67131 0.11061 0.0
C55 C 0.98698 0.65359 0.12346 0.0
C56 C 0.97293 0.68716 0.15717 0.0
C57 C 0.04084 0.77013 0.20903 0.0
C58 C 0.06971 0.78789 0.15696 0.0
C59 C 0.04374 0.80761 0.21644 0.0
C60 C 0.03349 0.78919 0.23278 0.0
C61 C 0.06158 0.80722 0.1764 0.0
C62 C 0.05934 0.76949 0.17291 0.0
C63 C 0.02842 0.75118 0.21631 0.0
O64 O 0.97688 0.76389 0.32465 0.0
O65 O 0.99909 0.75034 0.39412 0.0
O66 O 0.03138 0.74054 0.27049 0.0
O67 O 0.00869 0.75315 0.20054 0.0
H68 H 0.98309 0.80283 0.31872 0.0
H69 H 0.98772 0.83741 0.3656 0.0
H70 H 1.00273 0.80997 0.55283 0.0
H71 H 0.99818 0.77533 0.50571 0.0
H72 H 1.00667 0.63886 0.19623 0.0
H73 H 1.00306 0.66642 0.27791 0.0
H74 H 0.96649 0.67282 0.06479 0.0
H75 H 0.96324 0.7004 0.14538 0.0
H76 H 0.08363 0.78702 0.12718 0.0
H77 H 0.03691 0.82218 0.23182 0.0
H78 H 0.01925 0.78991 0.26111 0.0
H79 H 0.0653 0.75485 0.15474 0.0
C80 C 0.74043 1.00589 0.45357 0.0
C81 C 0.72495 0.01721 0.42032 0.0
C82 C 0.6987 1.00637 0.50024 0.0
C83 C 0.70434 0.01731 0.44307 0.0
C84 C 0.71426 0.99518 0.53356 0.0
C85 C 0.73482 0.99492 0.51042 0.0
U86 U 0.78309 0.99908 0.32163 0.0
O87 O 0.81143 0.01766 0.30698 0.0
O88 O 0.81408 0.98428 0.32665 0.0
C89 C 0.82376 1.00138 0.30859 0.0
C90 C 0.7625 1.00576 0.43133 0.0
C91 C 0.83895 0.99939 0.25387 0.0
C92 C 0.87108 0.98462 0.21042 0.0
C93 C 0.85611 0.98607 0.2603 0.0
C94 C 0.85201 0.00983 0.14642 0.0
C95 C 0.86935 0.99658 0.15279 0.0
C96 C 0.837 0.01116 0.19607 0.0
C97 C 0.7378 0.98885 0.20903 0.0
C98 C 0.70824 0.98813 0.13558 0.0
C99 C 0.70282 0.99186 0.25269 0.0
C100 C 0.72427 0.99062 0.26264 0.0
C101 C 0.69465 0.99092 0.18892 0.0
C102 C 0.72971 0.98724 0.14559 0.0
C103 C 0.7603 0.99034 0.21881 0.0
O104 O 0.77031 0.98756 0.41546 0.0
O105 O 0.76827 0.02065 0.39107 0.0
O106 O 0.76698 0.00916 0.23225 0.0
O107 O 0.76843 0.976 0.25684 0.0
H108 H 0.72873 0.02596 0.37656 0.0
H109 H 0.69288 0.02628 0.4164 0.0
H110 H 0.71052 0.98637 0.57724 0.0
H111 H 0.74641 0.98615 0.53722 0.0
H112 H 0.88395 0.974 0.217 0.0
H113 H 0.85802 0.97682 0.30426 0.0
H114 H 0.85019 0.01957 0.10356 0.0
H115 H 0.82399 0.02162 0.18937 0.0
H116 H 0.70233 0.9876 0.08587 0.0
H117 H 0.69265 0.99387 0.29457 0.0
H118 H 0.73039 0.99158 0.31191 0.0
H119 H 0.74 0.98592 0.10373 0.0
C120 C 0.52735 0.73845 0.42401 0.0
C121 C 0.50875 0.73285 0.45605 0.0
C122 C 0.52211 0.69792 0.47729 0.0
C123 C 0.50618 0.71283 0.48236 0.0
C124 C 0.54066 0.7036 0.44516 0.0
C125 C 0.54324 0.72357 0.41914 0.0
U126 U 0.51711 0.78354 0.30251 0.0
O127 O 0.51597 0.81752 0.31722 0.0
O128 O 0.54032 0.8038 0.25578 0.0
C129 C 0.53147 0.82097 0.27652 0.0
C130 C 0.53099 0.75981 0.39812 0.0
C131 C 0.52811 0.8371 0.226 0.0
C132 C 0.53462 0.87221 0.18657 0.0
C133 C 0.53654 0.85697 0.23524 0.0
C134 C 0.51558 0.84794 0.11855 0.0
C135 C 0.52423 0.86789 0.1273 0.0
C136 C 0.51749 0.8327 0.16745 0.0
C137 C 0.47882 0.74624 0.22808 0.0
C138 C 0.4597 0.7195 0.17018 0.0
C139 C 0.47745 0.7112 0.27176 0.0
C140 C 0.48396 0.73183 0.27705 0.0
C141 C 0.46576 0.70469 0.21724 0.0
C142 C 0.46625 0.74012 0.17554 0.0
C143 C 0.48838 0.76689 0.22815 0.0
O144 O 0.53994 0.76102 0.34029 0.0
O145 O 0.51607 0.77357 0.40592 0.0
O146 O 0.48404 0.77858 0.27916 0.0
O147 O 0.50824 0.76688 0.21293 0.0
H148 H 0.49617 0.7439 0.46099 0.0
H149 H 0.49161 0.70898 0.50614 0.0
H150 H 0.55342 0.69271 0.44114 0.0
H151 H 0.55786 0.72745 0.39564 0.0
H152 H 0.54173 0.88723 0.19488 0.0
H153 H 0.54493 0.86065 0.27985 0.0
H154 H 0.50725 0.8441 0.07404 0.0
H155 H 0.51085 0.81744 0.1593 0.0
H156 H 0.45095 0.71492 0.12715 0.0
H157 H 0.4822 0.70021 0.30907 0.0
H158 H 0.49373 0.73637 0.31786 0.0
H159 H 0.46228 0.75107 0.13717 0.0
C160 C 0.2374 0.49645 0.95674 0.0
C161 C 0.22705 0.47917 0.93003 0.0
C162 C 0.19556 0.49968 0.91162 0.0
C163 C 0.20645 0.48074 0.90782 0.0
C164 C 0.20594 0.51697 0.93875 0.0
C165 C 0.22659 0.51541 0.96062 0.0
U166 U 0.28035 0.49752 0.08874 0.0
O167 O 0.307 0.47656 0.10367 0.0
O168 O 0.31243 0.50966 0.08494 0.0
C169 C 0.32073 0.49171 0.101 0.0
C170 C 0.25954 0.49447 0.97795 0.0
C171 C 0.3363 0.49225 0.15441 0.0
C172 C 0.37265 0.49234 0.1884 0.0
C173 C 0.35755 0.49191 0.13883 0.0
C174 C 0.34544 0.49346 0.27031 0.0
C175 C 0.36685 0.49311 0.25497 0.0
C176 C 0.33034 0.49305 0.22057 0.0
C177 C 0.23482 0.5106 0.19473 0.0
C178 C 0.20207 0.50562 0.25152 0.0
C179 C 0.20256 0.52253 0.14532 0.0
C180 C 0.22412 0.52019 0.14285 0.0
C181 C 0.1913 0.51516 0.19954 0.0
C182 C 0.22367 0.50337 0.24909 0.0
C183 C 0.25729 0.50675 0.19005 0.0
O184 O 0.26912 0.51154 0.99676 0.0
O185 O 0.26395 0.4784 0.0152 0.0
O186 O 0.26227 0.48755 0.17481 0.0
O187 O 0.26798 0.52074 0.15722 0.0
H188 H 0.235 0.46441 0.92559 0.0
H189 H 0.19924 0.46714 0.88632 0.0
H190 H 0.19808 0.53176 0.94348 0.0
H191 H 0.23406 0.52914 0.98033 0.0
H192 H 0.38889 0.49241 0.17436 0.0
H193 H 0.3625 0.49138 0.08809 0.0
H194 H 0.34031 0.4938 0.32084 0.0
H195 H 0.31401 0.4933 0.23373 0.0
H196 H 0.1938 0.50006 0.29436 0.0
H197 H 0.19466 0.52979 0.10439 0.0
H198 H 0.23243 0.52568 0.1001 0.0
H199 H 0.23164 0.49579 0.28931 0.0
C200 C 0.02694 0.23988 0.9542 0.0
C201 C 0.03848 0.22317 0.97981 0.0
C202 C 0.02107 0.19872 0.90611 0.0
C203 C 0.03557 0.20292 0.9562 0.0
C204 C 0.00939 0.21542 0.88096 0.0
C205 C 0.01233 0.2357 0.90452 0.0
U206 U 0.02101 0.28539 0.07635 0.0
O207 O 0.04474 0.30767 0.10954 0.0
O208 O 0.0167 0.31905 0.06007 0.0
C209 C 0.03356 0.32395 0.09319 0.0
C210 C 0.03093 0.26167 0.97599 0.0
C211 C 0.03106 0.33995 0.14478 0.0
C212 C 0.03092 0.37641 0.17693 0.0
C213 C 0.03256 0.36106 0.12842 0.0
C214 C 0.02615 0.34973 0.25914 0.0
C215 C 0.0278 0.37099 0.24316 0.0
C216 C 0.02769 0.33441 0.21053 0.0
C217 C 0.98861 0.24696 0.17127 0.0
C218 C 0.96966 0.22145 0.23493 0.0
C219 C 0.98524 0.21162 0.13119 0.0
C220 C 0.99248 0.23193 0.12303 0.0
C221 C 0.974 0.2061 0.18773 0.0
C222 C 0.97694 0.24173 0.22672 0.0
C223 C 0.99747 0.26783 0.16528 0.0
O224 O 0.01499 0.27448 0.97548 0.0
O225 O 0.04289 0.26413 0.02772 0.0
O226 O 0.01786 0.26861 0.16954 0.0
O227 O 0.98996 0.27907 0.11701 0.0
H228 H 0.05006 0.22572 0.01752 0.0
H229 H 0.04514 0.19063 0.97623 0.0
H230 H 0.99788 0.21286 0.84305 0.0
H231 H 1.00329 0.24818 0.88325 0.0
H232 H 0.03191 0.39255 0.16229 0.0
H233 H 0.03508 0.3657 0.07798 0.0
H234 H 0.02403 0.34484 0.30948 0.0
H235 H 0.02647 0.31821 0.22446 0.0
H236 H 0.96135 0.21763 0.27951 0.0
H237 H 0.98868 0.2002 0.09375 0.0
H238 H 1.00145 0.23581 0.07976 0.0
H239 H 0.9739 0.25318 0.26442 0.0
C240 C 0.28597 0.03292 0.99343 0.0
C241 C 0.3043 0.03604 0.03002 0.0
C242 C 0.32577 0.02645 0.93582 0.0
C243 C 0.32391 0.03287 1.00155 0.0
C244 C 0.30742 0.02283 0.89986 0.0
C245 C 0.28782 0.02612 0.92819 0.0
U246 U 0.23969 0.02353 0.11137 0.0
O247 O 0.22119 0.04668 0.16495 0.0
O248 O 0.20579 0.02581 0.09515 0.0
C249 C 0.20343 0.04006 0.14073 0.0
C250 C 0.26504 0.03797 0.0207 0.0
C251 C 0.18662 0.03644 0.18901 0.0
C252 C 0.15105 0.04288 0.22458 0.0
C253 C 0.16698 0.04525 0.1783 0.0
C254 C 0.17413 0.02268 0.2932 0.0
C255 C 0.1544 0.03166 0.28292 0.0
C256 C 0.19006 0.02501 0.24666 0.0
C257 C 0.27319 0.98002 0.17246 0.0
C258 C 0.29939 0.95914 0.22642 0.0
C259 C 0.30728 0.97596 0.12296 0.0
C260 C 0.28712 0.98398 0.12095 0.0
C261 C 0.31383 0.96396 0.17674 0.0
C262 C 0.27923 0.96716 0.22429 0.0
C263 C 0.25343 0.99124 0.17602 0.0
O264 O 0.24994 0.02474 0.00809 0.0
O265 O 0.26437 0.04522 0.08094 0.0
O266 O 0.25519 0.01037 0.19774 0.0
O267 O 0.24141 0.98964 0.12411 0.0
H268 H 0.30356 0.04124 0.08044 0.0
H269 H 0.33767 0.03553 0.03107 0.0
H270 H 0.3082 0.01807 0.849 0.0
H271 H 0.27404 0.02375 0.89848 0.0
H272 H 0.13622 0.05027 0.2152 0.0
H273 H 0.16402 0.05422 0.13435 0.0
H274 H 0.17723 0.01371 0.33703 0.0
H275 H 0.2051 0.01802 0.25591 0.0
H276 H 0.304 0.95024 0.26904 0.0
H277 H 0.31795 0.97979 0.08367 0.0
H278 H 0.28267 0.99397 0.0806 0.0
H279 H 0.26869 0.96414 0.26466 0.0
C280 C 0.48254 0.28636 0.97822 0.0
C281 C 0.50235 0.29351 0.95927 0.0
C282 C 0.48788 0.32725 0.92764 0.0
C283 C 0.505 0.31373 0.93472 0.0
C284 C 0.4681 0.31992 0.94654 0.0
C285 C 0.46551 0.29981 0.97155 0.0
U286 U 0.49267 0.23916 0.09297 0.0
O287 O 0.46899 0.21897 0.13757 0.0
O288 O 0.4924 0.20546 0.07217 0.0
C289 C 0.47728 0.20187 0.11413 0.0
C290 C 0.47887 0.26484 1.00227 0.0
C291 C 0.48093 0.18512 0.16255 0.0
C292 C 0.47925 0.14845 0.19169 0.0
C293 C 0.47684 0.1644 0.14552 0.0
C294 C 0.49008 0.17368 0.27274 0.0
C295 C 0.48573 0.15285 0.25624 0.0
C296 C 0.48778 0.1896 0.22641 0.0
C297 C 0.53404 0.27238 0.17391 0.0
C298 C 0.5541 0.29649 0.23966 0.0
C299 C 0.54126 0.30702 0.13294 0.0
C300 C 0.53238 0.2874 0.12448 0.0
C301 C 0.55177 0.31196 0.19142 0.0
C302 C 0.54528 0.27685 0.23089 0.0
C303 C 0.52267 0.25273 0.16883 0.0
O304 O 0.49348 0.25094 0.99147 0.0
O305 O 0.47046 0.26316 0.06076 0.0
O306 O 0.50288 0.25394 0.18453 0.0
O307 O 0.52604 0.24195 0.11517 0.0
H308 H 0.5158 0.28348 0.96314 0.0
H309 H 0.52052 0.31878 0.92163 0.0
H310 H 0.45442 0.32954 0.94077 0.0
H311 H 0.45003 0.29464 0.98492 0.0
H312 H 0.47611 0.13263 0.17654 0.0
H313 H 0.47161 0.16057 0.09649 0.0
H314 H 0.49483 0.17782 0.32194 0.0
H315 H 0.49106 0.20547 0.24081 0.0
H316 H 0.56177 0.29984 0.28572 0.0
H317 H 0.53938 0.31849 0.09455 0.0
H318 H 0.52364 0.28414 0.08037 0.0
H319 H 0.54657 0.26542 0.26968 0.0
Tb320 Tb 0.02464 1.00449 0.75307 0.0
Eu321 Eu 0.98871 0.01689 0.64616 0.0
C322 C 0.03721 0.0186 0.61114 0.0
C323 C 0.01033 0.0513 0.73651 0.0
C324 C 0.05868 0.97595 0.86974 0.0
C325 C 0.07673 0.95969 0.96069 0.0
C326 C 0.07124 0.97752 0.92566 0.0
C327 C 0.05166 0.95641 0.84892 0.0
C328 C 0.05725 0.93859 0.88357 0.0
C329 C 0.06981 0.94005 0.93987 0.0
C330 C 0.05287 0.99476 0.83377 0.0
O331 O 0.99564 0.99363 0.79814 0.0
O332 O 0.97258 0.01466 0.74364 0.0
O333 O 0.9868 0.98217 0.65824 0.0
O334 O 0.02014 0.97652 0.69351 0.0
C335 C 0.97725 1.00254 0.79322 0.0
O336 O 0.96216 0.03562 0.61565 0.0
O337 O 0.97332 0.01096 0.55282 0.0
O338 O 0.01863 0.01352 0.58995 0.0
O339 O 0.04086 0.02087 0.67415 0.0
O340 O 0.01562 0.03625 0.77671 0.0
O341 O 1.0035 0.0473 0.67704 0.0
C342 C 1.00279 0.96978 0.66653 0.0
O343 O 0.05497 0.99388 0.77036 0.0
O344 O 0.03526 1.00319 0.85049 0.0
C345 C 0.96024 0.0409 0.50221 0.0
C346 C 0.9587 0.06999 0.39951 0.0
C347 C 0.94059 0.05943 0.41937 0.0
C348 C 0.94137 0.04496 0.47042 0.0
C349 C 0.97844 0.05098 0.48161 0.0
C350 C 0.97769 0.06539 0.4306 0.0
C351 C 0.9608 0.02676 0.55833 0.0
H352 H 0.08646 0.96124 1.00376 0.0
H353 H 0.07674 0.99254 0.9423 0.0
H354 H 0.04179 0.95495 0.8061 0.0
H355 H 0.05138 0.9237 0.86708 0.0
H356 H 0.92578 0.06254 0.39602 0.0
H357 H 0.92721 0.03723 0.48582 0.0
H358 H 0.99313 0.04803 0.50598 0.0
H359 H 0.99184 0.0735 0.41729 0.0
Tb360 Tb 0.51465 0.02757 0.74346 0.0
Eu361 Eu 0.50201 0.99229 0.63567 0.0
C362 C 0.50105 0.04067 0.59986 0.0
C363 C 0.46791 0.015 0.72592 0.0
C364 C 0.53596 0.04896 0.89467 0.0
C365 C 0.56618 0.05549 0.96296 0.0
C366 C 0.55322 0.06123 0.91102 0.0
C367 C 0.53108 0.0316 0.9336 0.0
C368 C 0.54399 0.02586 0.98537 0.0
C369 C 0.56207 0.03732 0.9991 0.0
C370 C 0.52479 0.05268 0.83279 0.0
O371 O 0.5104 0.99882 0.7987 0.0
O372 O 0.51751 0.97504 0.71858 0.0
O373 O 0.53456 1.00293 0.61271 0.0
O374 O 0.54408 0.0128 0.71569 0.0
C375 C 0.51535 0.97985 0.78073 0.0
O376 O 0.48466 0.96456 0.6066 0.0
O377 O 0.50702 0.97816 0.54004 0.0
O378 O 0.49139 0.02278 0.5923 0.0
O379 O 0.51356 0.04405 0.64993 0.0
O380 O 0.48109 0.03054 0.73092 0.0
O381 O 0.4736 0.99733 0.69922 0.0
C382 C 0.54906 1.00756 0.65541 0.0
O383 O 0.53569 0.04989 0.77969 0.0
O384 O 0.50645 0.04422 0.82795 0.0
C385 C 0.47785 0.96198 0.4937 0.0
C386 C 0.44912 0.95744 0.39076 0.0
C387 C 0.46097 0.94038 0.41207 0.0
C388 C 0.47527 0.94267 0.46316 0.0
C389 C 0.46628 0.9791 0.47224 0.0
C390 C 0.45204 0.97687 0.42108 0.0
C391 C 0.49262 0.96413 0.54787 0.0
H392 H 0.58012 0.06452 0.972 0.0
H393 H 0.55729 0.07462 0.88146 0.0
H394 H 0.51781 0.02187 0.92228 0.0
H395 H 0.54031 0.01193 0.01289 0.0
H396 H 0.45913 0.92528 0.38939 0.0
H397 H 0.4842 0.92933 0.47914 0.0
H398 H 0.4681 0.99413 0.49552 0.0
H399 H 0.44289 0.99021 0.4066 0.0
Tb400 Tb 0.49096 0.51799 0.74535 0.0
Eu401 Eu 0.52718 0.50427 0.64087 0.0
C402 C 0.47908 0.50282 0.60153 0.0
C403 C 0.50378 0.47095 0.73223 0.0
C404 C 0.46123 0.54271 0.88284 0.0
C405 C 0.44472 0.57295 0.93121 0.0
C406 C 0.44657 0.55878 0.87979 0.0
C407 C 0.47362 0.54062 0.93923 0.0
C408 C 0.47165 0.55469 0.991 0.0
C409 C 0.45737 0.5712 0.98723 0.0
C410 C 0.46322 0.5284 0.82679 0.0
O411 O 0.51941 0.5156 0.80362 0.0
O412 O 0.54394 0.52044 0.7235 0.0
O413 O 0.5173 0.53674 0.61561 0.0
O414 O 0.50556 0.54738 0.71586 0.0
C415 C 0.53867 0.51961 0.78563 0.0
O416 O 0.55556 0.48725 0.61673 0.0
O417 O 0.54172 0.50779 0.54515 0.0
O418 O 0.49704 0.49324 0.59548 0.0
O419 O 0.47548 0.51568 0.65035 0.0
O420 O 0.48833 0.48423 0.73737 0.0
O421 O 0.52152 0.47638 0.70535 0.0
C422 C 0.51209 0.55163 0.65616 0.0
O423 O 0.46549 0.53697 0.76938 0.0
O424 O 0.47542 0.51242 0.83405 0.0
C425 C 0.55844 0.47796 0.50575 0.0
C426 C 0.56339 0.44708 0.4096 0.0
C427 C 0.58081 0.4577 0.43456 0.0
C428 C 0.57832 0.47309 0.48224 0.0
C429 C 0.54102 0.46744 0.48099 0.0
C430 C 0.54347 0.45218 0.43315 0.0
C431 C 0.55597 0.49387 0.55638 0.0
H432 H 0.43382 0.58564 0.92598 0.0
H433 H 0.43677 0.56062 0.83696 0.0
H434 H 0.48497 0.52827 0.94326 0.0
H435 H 0.48143 0.55271 0.03376 0.0
H436 H 0.59632 0.45412 0.41715 0.0
H437 H 0.5919 0.48111 0.501 0.0
H438 H 0.52556 0.47094 0.49902 0.0
H439 H 0.52981 0.44399 0.41578 0.0
Tb440 Tb 1.00314 0.49269 0.73985 0.0
Eu441 Eu 0.01587 0.52929 0.63675 0.0
C442 C 0.01737 0.48137 0.59443 0.0
C443 C 0.0489 0.50848 0.73188 0.0
C444 C 0.97971 0.4612 0.87469 0.0
C445 C 0.96004 0.43792 0.94468 0.0
C446 C 0.97488 0.44105 0.89567 0.0
C447 C 0.97004 0.47829 0.90433 0.0
C448 C 0.95528 0.47518 0.95358 0.0
C449 C 0.94988 0.45494 0.97348 0.0
C450 C 0.99407 0.46407 0.81979 0.0
O451 O 1.00342 0.52089 0.79999 0.0
O452 O 1.00097 0.54624 0.72084 0.0
O453 O 0.9846 0.51643 0.60712 0.0
O454 O 0.97374 0.5069 0.70916 0.0
C455 C 1.00038 0.54037 0.7825 0.0
O456 O 0.03923 0.54909 0.59132 0.0
O457 O 1.00691 0.55246 0.56373 0.0
O458 O 0.02617 0.49967 0.58741 0.0
O459 O 1.00547 0.47707 0.64513 0.0
O460 O 0.03697 0.49193 0.72976 0.0
O461 O 0.04185 0.52636 0.7107 0.0
C462 C 0.96951 0.51193 0.64805 0.0
O463 O 0.98541 0.46625 0.76251 0.0
O464 O 0.00909 0.47738 0.8287 0.0
C465 C 0.0325 0.55599 0.48148 0.0
C466 C 0.05355 0.54798 0.36339 0.0
C467 C 0.05709 0.56658 0.39799 0.0
C468 C 0.04664 0.57052 0.45664 0.0
C469 C 0.02752 0.53831 0.44439 0.0
C470 C 0.03784 0.53443 0.38544 0.0
C471 C 0.02613 0.55739 0.55027 0.0
H472 H 0.95627 0.42218 0.95934 0.0
H473 H 0.98226 0.42772 0.87313 0.0
H474 H 0.97353 0.49396 0.88828 0.0
H475 H 0.94747 0.48858 0.97413 0.0
H476 H 0.06921 0.57728 0.38306 0.0
H477 H 0.05077 0.58415 0.485 0.0
H478 H 0.01669 0.52683 0.46308 0.0
H479 H 0.0345 0.52013 0.35946 0.0
H480 H 0.15736 0.03309 0.4178 0.0
H481 H 0.03481 0.0175 0.47694 0.0
H482 H 0.11251 0.0255 0.26215 0.0
H483 H 0.07883 0.02606 0.63447 0.0
H484 H 0.06318 0.02064 0.3981 0.0
H485 H 0.12913 0.03032 0.49797 0.0
C486 C 0.14163 0.0307 0.40035 0.0
C487 C 0.13741 0.02957 0.33277 0.0
C488 C 0.06668 0.02188 0.44987 0.0
C489 C 0.10486 0.02661 0.42476 0.0
C490 C 0.05043 0.0201 0.49512 0.0
C491 C 0.05435 0.02149 0.56276 0.0
C492 C 0.08715 0.02503 0.47202 0.0
C493 C 0.075 0.02491 0.58293 0.0
C494 C 0.12547 0.02926 0.44627 0.0
C495 C 0.11658 0.02678 0.31347 0.0
N496 N 0.09059 0.02651 0.53786 0.0
N497 N 0.10117 0.02539 0.35906 0.0
H498 H 0.46132 0.11784 0.27202 0.0
H499 H 0.52119 0.07819 0.59304 0.0
H500 H 0.5147 0.14894 0.35534 0.0
H501 H 0.47502 0.04134 0.49224 0.0
H502 H 0.51743 0.10514 0.50986 0.0
H503 H 0.46484 0.09052 0.35448 0.0
C504 C 0.47389 0.11892 0.30719 0.0
C505 C 0.48774 0.13588 0.30622 0.0
C506 C 0.5081 0.09118 0.50583 0.0
C507 C 0.49158 0.10461 0.40205 0.0
C508 C 0.51019 0.07574 0.55356 0.0
C509 C 0.49841 0.05736 0.54993 0.0
C510 C 0.49403 0.08841 0.45387 0.0
C511 C 0.48446 0.0552 0.49723 0.0
C512 C 0.47579 0.10332 0.35464 0.0
C513 C 0.50342 0.13645 0.35434 0.0
N514 N 0.48264 0.07052 0.45142 0.0
N515 N 0.50487 0.12113 0.40012 0.0
H516 H 0.36631 0.51514 0.37079 0.0
H517 H 0.48015 0.47932 0.48808 0.0
H518 H 0.40462 0.47271 0.26024 0.0
H519 H 0.44008 0.51995 0.59922 0.0
H520 H 0.4528 0.4762 0.40464 0.0
H521 H 0.39311 0.51648 0.45546 0.0
C522 C 0.38025 0.50595 0.36437 0.0
C523 C 0.38306 0.49379 0.30783 0.0
C524 C 0.45 0.48575 0.44742 0.0
C525 C 0.4142 0.4955 0.405 0.0
C526 C 0.46562 0.48752 0.49519 0.0
C527 C 0.46252 0.49995 0.55101 0.0
C528 C 0.4311 0.49649 0.4553 0.0
C529 C 0.44331 0.51021 0.5572 0.0
C530 C 0.39567 0.50683 0.41275 0.0
C531 C 0.40178 0.48255 0.30227 0.0
N532 N 0.42844 0.50829 0.51009 0.0
N533 N 0.41658 0.48369 0.35004 0.0
H534 H 1.00289 0.37142 0.35314 0.0
H535 H 0.03993 0.48366 0.47931 0.0
H536 H 0.04924 0.40815 0.25264 0.0
H537 H 1.00045 0.44228 0.59036 0.0
H538 H 0.04276 0.45703 0.39376 0.0
H539 H 1.00105 0.39794 0.43827 0.0
C540 C 0.01281 0.38496 0.34898 0.0
C541 C 0.02631 0.38736 0.29525 0.0
C542 C 0.03354 0.45378 0.43699 0.0
C543 C 0.02399 0.4182 0.39293 0.0
C544 C 0.03193 0.46899 0.48598 0.0
C545 C 0.01996 0.46527 0.5425 0.0
C546 C 0.02302 0.43474 0.44422 0.0
C547 C 0.00988 0.44594 0.54794 0.0
C548 C 0.01165 0.40022 0.39764 0.0
C549 C 0.03839 0.40562 0.29241 0.0
N550 N 0.0116 0.4315 0.49956 0.0
N551 N 0.03694 0.42029 0.34039 0.0
H552 H 0.91191 0.99133 0.16526 0.0
H553 H 0.93554 0.01035 0.78533 0.0
H554 H 0.86408 0.99938 0.0188 0.0
H555 H 0.98221 0.98771 0.91946 0.0
H556 H 0.90953 1.00742 0.87177 0.0
H557 H 0.93804 0.9907 0.07804 0.0
C558 C 0.90679 0.99277 0.11491 0.0
C559 C 0.88558 0.99551 0.09993 0.0
C560 C 0.92541 1.00296 0.8824 0.0
C561 C 0.91571 0.99518 0.99949 0.0
C562 C 0.94035 1.00466 0.83295 0.0
C563 C 0.96119 0.99931 0.84495 0.0
C564 C 0.93125 0.99608 0.94508 0.0
C565 C 0.96634 0.99195 0.9078 0.0
C566 C 0.92181 0.99252 0.06508 0.0
C567 C 0.88016 0.99766 0.03342 0.0
N568 N 0.95153 0.99073 0.95564 0.0
N569 N 0.89507 0.99756 0.98602 0.0
H570 H 0.5275 0.86298 0.99334 0.0
H571 H 0.51247 0.98418 0.91423 0.0
H572 H 0.51757 0.90992 0.14106 0.0
H573 H 0.52288 0.93797 0.76456 0.0
H574 H 0.51468 0.95711 0.99751 0.0
H575 H 0.5257 0.88993 0.90882 0.0
C576 C 0.5248 0.87891 0.00813 0.0
C577 C 0.52271 0.88409 0.07479 0.0
C578 C 0.51652 0.95285 0.9465 0.0
C579 C 0.52088 0.91518 0.97782 0.0
C580 C 0.51531 0.96836 0.8987 0.0
C581 C 0.51749 0.96346 0.83192 0.0
C582 C 0.5199 0.93212 0.92782 0.0
C583 C 0.5211 0.94256 0.81528 0.0
C584 C 0.52392 0.89433 0.95973 0.0
C585 C 0.51957 0.90512 0.09062 0.0
N586 N 0.52214 0.9277 0.8628 0.0
N587 N 0.51874 0.91981 0.04267 0.0
H588 H 0.65605 0.5319 0.99576 0.0
H589 H 0.53408 0.51885 0.91967 0.0
H590 H 0.60932 0.52364 0.14547 0.0
H591 H 0.58073 0.52605 0.7691 0.0
H592 H 0.56135 0.52134 1.00284 0.0
H593 H 0.62879 0.53005 0.91225 0.0
C594 C 0.64011 0.52955 0.01124 0.0
C595 C 0.6351 0.52793 0.07817 0.0
C596 C 0.56564 0.52243 0.95163 0.0
C597 C 0.6036 0.52607 0.98221 0.0
C598 C 0.55003 0.52104 0.90393 0.0
C599 C 0.55502 0.52221 0.83693 0.0
C600 C 0.58651 0.52499 0.93257 0.0
C601 C 0.57605 0.52507 0.81998 0.0
C602 C 0.62449 0.52865 0.96338 0.0
C603 C 0.61401 0.52527 0.09479 0.0
N604 N 0.59097 0.52631 0.86733 0.0
N605 N 0.59912 0.52441 0.04732 0.0
H606 H 0.99044 0.65759 0.98965 0.0
H607 H 0.99776 0.53526 0.91657 0.0
H608 H 0.98821 0.61105 0.14182 0.0
H609 H 0.99607 0.58248 0.76638 0.0
H610 H 0.9944 0.56246 0.99998 0.0
H611 H 0.99278 0.63008 0.90783 0.0
C612 C 0.99031 0.64159 1.00602 0.0
C613 C 0.989 0.63676 0.07312 0.0
C614 C 0.99471 0.56684 0.94874 0.0
C615 C 0.99196 0.60493 0.97889 0.0
C616 C 0.9966 0.5513 0.90097 0.0
C617 C 0.99724 0.5565 0.83404 0.0
C618 C 0.9935 0.5878 0.92967 0.0
C619 C 0.99566 0.57762 0.81715 0.0
C620 C 0.99176 0.62584 0.95909 0.0
C621 C 0.98939 0.61563 0.09092 0.0
N622 N 0.99393 0.59241 0.86448 0.0
N623 N 0.9908 0.60054 0.0442 0.0
H624 H 0.93762 0.19091 0.23942 0.0
H625 H 0.98614 0.07866 0.30012 0.0
H626 H 0.99741 0.17131 0.16577 0.0
H627 H 0.92906 0.10024 0.38815 0.0
H628 H 0.98708 0.10997 0.23245 0.0
H629 H 0.93087 0.15538 0.2759 0.0
C630 C 0.94923 0.17908 0.23036 0.0
C631 C 0.96824 0.18416 0.20048 0.0
C632 C 0.97419 0.10772 0.26591 0.0
C633 C 0.96063 0.14348 0.24198 0.0
C634 C 0.97369 0.08989 0.3047 0.0
C635 C 0.95768 0.087 0.35061 0.0
C636 C 0.95863 0.12283 0.27338 0.0
C637 C 0.9417 0.1018 0.35343 0.0
C638 C 0.94535 0.15879 0.25096 0.0
C639 C 0.98254 0.16812 0.18858 0.0
N640 N 0.94274 0.11922 0.31604 0.0
N641 N 0.97856 0.14857 0.21018 0.0
H642 H 0.33091 0.92792 0.22496 0.0
H643 H 0.43976 0.98341 0.2885 0.0
H644 H 0.34761 0.98847 0.15045 0.0
H645 H 0.42109 0.92564 0.37846 0.0
H646 H 0.40926 0.98161 0.21729 0.0
H647 H 0.3669 0.92296 0.26044 0.0
C648 C 0.3422 0.94003 0.21518 0.0
C649 C 0.33613 0.95879 0.18579 0.0
C650 C 0.41199 0.96916 0.25194 0.0
C651 C 0.37728 0.95324 0.22629 0.0
C652 C 0.42934 0.97024 0.29277 0.0
C653 C 0.43274 0.95486 0.3403 0.0
C654 C 0.39783 0.95267 0.25905 0.0
C655 C 0.41904 0.93787 0.34264 0.0
C656 C 0.36275 0.93717 0.23529 0.0
C657 C 0.35152 0.97375 0.17294 0.0
N658 N 0.402 0.9374 0.30331 0.0
N659 N 0.3713 0.97079 0.19422 0.0
H660 H 0.58699 0.32573 0.25482 0.0
H661 H 0.54014 0.43939 0.29996 0.0
H662 H 0.53088 0.34771 0.16143 0.0
H663 H 0.5922 0.41579 0.41071 0.0
H664 H 0.54117 0.40836 0.23127 0.0
H665 H 0.59365 0.36095 0.29464 0.0
C666 C 0.57621 0.33799 0.242 0.0
C667 C 0.55817 0.33366 0.20561 0.0
C668 C 0.55255 0.41007 0.27006 0.0
C669 C 0.56574 0.37396 0.25075 0.0
C670 C 0.55191 0.42774 0.3094 0.0
C671 C 0.56587 0.42997 0.36177 0.0
C672 C 0.56715 0.39442 0.28351 0.0
C673 C 0.58111 0.41466 0.37092 0.0
C674 C 0.58006 0.3581 0.26454 0.0
C675 C 0.54501 0.35026 0.18916 0.0
N676 N 0.58115 0.39737 0.33277 0.0
N677 N 0.54892 0.36959 0.21259 0.0
H678 H 0.16225 0.48653 0.23725 0.0
H679 H 0.07309 0.5713 0.26795 0.0
H680 H 0.16841 0.54968 0.16894 0.0
H681 H 0.06934 0.50899 0.34565 0.0
H682 H 0.10453 0.56143 0.20812 0.0
H683 H 0.12516 0.49238 0.25488 0.0
C684 C 0.15573 0.5016 0.22561 0.0
C685 C 0.16845 0.51777 0.20288 0.0
C686 C 0.09654 0.54982 0.23719 0.0
C687 C 0.12603 0.52461 0.22284 0.0
C688 C 0.0786 0.55545 0.27141 0.0
C689 C 0.06877 0.54111 0.31312 0.0
C690 C 0.10472 0.52975 0.24503 0.0
C691 C 0.07632 0.52065 0.31436 0.0
C692 C 0.13454 0.5049 0.23526 0.0
C693 C 0.15914 0.53682 0.18691 0.0
N694 N 0.09404 0.5157 0.28187 0.0
N695 N 0.13853 0.53983 0.19819 0.0
H696 H 0.06612 0.84539 0.23605 0.0
H697 H 0.08251 0.9024 0.89288 0.0
H698 H 0.07545 0.81389 0.05149 0.0
H699 H 0.06863 0.93464 0.07302 0.0
H700 H 0.08656 0.87021 0.95471 0.0
H701 H 0.07358 0.87847 0.18177 0.0
C702 C 0.07 0.84537 0.18439 0.0
C703 C 0.06987 0.82682 0.14817 0.0
C704 C 0.08285 0.88435 0.98092 0.0
C705 C 0.07845 0.86456 0.08589 0.0
C706 C 0.08046 0.9027 0.94558 0.0
C707 C 0.0749 0.92112 0.97778 0.0
C708 C 0.07948 0.88435 0.04896 0.0
C709 C 0.07288 0.92076 0.04628 0.0
C710 C 0.07432 0.86425 0.15349 0.0
C711 C 0.07544 0.82771 0.08166 0.0
N712 N 0.07489 0.90259 0.07955 0.0
N713 N 0.07923 0.84627 0.05257 0.0
H714 H 0.66829 0.96828 0.11191 0.0
H715 H 0.58518 0.05821 0.09144 0.0
H716 H 0.67046 0.02207 0.23774 0.0
H717 H 0.57547 0.9973 0.00842 0.0
H718 H 0.61508 0.04465 0.15228 0.0
H719 H 0.63289 0.97764 0.07981 0.0
C720 C 0.66116 0.98192 0.13335 0.0
C721 C 0.67229 0.99454 0.17696 0.0
C722 C 0.60616 0.03418 0.12168 0.0
C723 C 0.632 1.00553 0.14003 0.0
C724 C 0.58917 0.04194 0.08679 0.0
C725 C 0.57795 0.02891 0.04448 0.0
C726 C 0.61211 0.01335 0.11322 0.0
C727 C 0.5836 0.00788 0.04075 0.0
C728 C 0.64095 0.98724 0.11528 0.0
C729 C 0.66234 0.01194 0.20397 0.0
N730 N 0.60047 1.00084 0.07386 0.0
N731 N 0.64285 0.01714 0.1842 0.0
H732 H 0.49307 0.6727 0.23452 0.0
H733 H 0.42318 0.5919 0.03557 0.0
H734 H 0.43045 0.68569 0.1701 0.0
H735 H 0.48991 0.58769 0.05695 0.0
H736 H 0.42325 0.62203 0.10857 0.0
H737 H 0.48927 0.6371 0.19563 0.0
C738 C 0.47832 0.66795 0.21362 0.0
C739 C 0.46212 0.68228 0.20479 0.0
C740 C 0.43781 0.61429 0.09788 0.0
C741 C 0.45786 0.64163 0.15897 0.0
C742 C 0.43783 0.59717 0.05593 0.0
C743 C 0.45663 0.58742 0.03902 0.0
C744 C 0.45671 0.62164 0.12339 0.0
C745 C 0.47502 0.59459 0.06853 0.0
C746 C 0.47624 0.64765 0.19088 0.0
C747 C 0.44346 0.67525 0.17668 0.0
N748 N 0.47462 0.61139 0.10869 0.0
N749 N 0.44191 0.65545 0.15403 0.0
H750 H 0.85305 0.47907 0.25273 0.0
H751 H 0.91811 0.42692 0.96352 0.0
H752 H 0.82612 0.44342 0.0946 0.0
H753 H 0.94178 0.47574 0.08796 0.0
H754 H 0.88673 0.42529 0.03082 0.0
H755 H 0.88772 0.47051 0.21151 0.0
C756 C 0.8544 0.46925 0.20984 0.0
C757 C 0.8366 0.46233 0.17627 0.0
C758 C 0.89893 0.43615 0.04397 0.0
C759 C 0.87618 0.4523 0.12956 0.0
C760 C 0.9169 0.43699 1.00587 0.0
C761 C 0.93244 0.45169 0.01974 0.0
C762 C 0.89649 0.45008 0.0963 0.0
C763 C 0.92997 0.46447 0.07488 0.0
C764 C 0.87419 0.46431 0.18657 0.0
C765 C 0.83933 0.44914 0.12214 0.0
N766 N 0.91221 0.46353 0.11082 0.0
N767 N 0.85874 0.44478 0.09998 0.0
H768 H 0.01361 0.18634 0.77842 0.0
H769 H 0.02058 0.0647 0.85972 0.0
H770 H 0.02269 0.1615 0.97289 0.0
H771 H 1.00317 0.08794 0.66898 0.0
H772 H 0.02254 0.10023 0.90005 0.0
H773 H 0.0104 0.15087 0.7363 0.0
C774 C 0.01477 0.17351 0.81252 0.0
C775 C 0.0185 0.17712 0.87959 0.0
C776 C 0.01827 0.09764 0.84935 0.0
C777 C 0.01516 0.13624 0.83101 0.0
C778 C 0.01719 0.07726 0.82606 0.0
C779 C 0.01171 0.07316 0.76058 0.0
C780 C 0.01395 0.1143 0.80708 0.0
C781 C 1.00746 0.09026 0.71976 0.0
C782 C 0.01306 0.1532 0.7882 0.0
C783 C 0.02019 0.15966 0.92075 0.0
N784 N 0.00871 0.11005 0.74361 0.0
N785 N 0.01857 0.1401 0.89585 0.0
H786 H 0.3394 0.99601 0.85099 0.0
H787 H 0.45178 0.0478 0.79528 0.0
H788 H 0.35992 0.05196 0.9479 0.0
H789 H 0.43515 0.98732 0.72038 0.0
H790 H 0.41739 0.0505 0.84555 0.0
H791 H 0.37349 0.99338 0.79772 0.0
C792 C 0.35103 0.00778 0.861 0.0
C793 C 0.34669 0.02423 0.90424 0.0
C794 C 0.42122 0.03664 0.818 0.0
C795 C 0.38589 0.0213 0.84311 0.0
C796 C 0.44088 0.03511 0.78892 0.0
C797 C 0.4465 0.01729 0.75331 0.0
C798 C 0.40686 0.02028 0.81144 0.0
C799 C 0.4316 1.00136 0.74728 0.0
C800 C 0.37054 1.00621 0.83072 0.0
C801 C 0.36255 0.03886 0.91571 0.0
N802 N 0.41253 1.00323 0.77598 0.0
N803 N 0.38133 0.03709 0.88526 0.0
H804 H 0.46682 0.36313 0.96069 0.0
H805 H 0.5295 0.43731 0.71444 0.0
H806 H 0.51482 0.34072 0.83067 0.0
H807 H 0.47253 0.45546 0.81045 0.0
H808 H 0.52587 0.40253 0.76169 0.0
H809 H 0.47023 0.39757 0.91175 0.0
C810 C 0.47801 0.36532 0.92163 0.0
C811 C 0.49044 0.34871 0.8998 0.0
C812 C 0.51412 0.41409 0.77224 0.0
C813 C 0.49468 0.38858 0.84403 0.0
C814 C 0.51618 0.43401 0.74527 0.0
C815 C 0.50128 0.44944 0.75826 0.0
C816 C 0.49715 0.40952 0.81325 0.0
C817 C 0.48437 0.44412 0.79869 0.0
C818 C 0.48001 0.38511 0.89387 0.0
C819 C 0.50503 0.35293 0.85 0.0
N820 N 0.48283 0.4247 0.82492 0.0
N821 N 0.50673 0.37237 0.82395 0.0
H822 H 0.17711 0.53271 0.84777 0.0
H823 H 0.06804 0.47467 0.78796 0.0
H824 H 0.16382 0.4707 0.91689 0.0
H825 H 0.07915 0.53878 0.73679 0.0
H826 H 0.10333 0.47262 0.83246 0.0
H827 H 0.14164 0.53502 0.8053 0.0
C828 C 0.16675 0.5196 0.85462 0.0
C829 C 0.17369 0.50146 0.88624 0.0
C830 C 0.09807 0.48715 0.81151 0.0
C831 C 0.13283 0.50393 0.83628 0.0
C832 C 0.07788 0.48833 0.78587 0.0
C833 C 0.0705 0.50693 0.75835 0.0
C834 C 0.11115 0.50467 0.80956 0.0
C835 C 0.08407 0.5241 0.75742 0.0
C836 C 0.14647 0.52091 0.82983 0.0
C837 C 0.15945 0.48491 0.89214 0.0
N838 N 0.10368 0.52254 0.78247 0.0
N839 N 0.13981 0.48654 0.86743 0.0
H840 H 0.96956 0.8599 0.44302 0.0
H841 H 0.03124 0.93804 0.68063 0.0
H842 H 0.02393 0.84173 0.55286 0.0
H843 H 0.97174 0.95194 0.59304 0.0
H844 H 0.02966 0.90319 0.63229 0.0
H845 H 0.9712 0.89421 0.49394 0.0
C846 C 0.98197 0.86314 0.47744 0.0
C847 C 0.99667 0.84779 0.49332 0.0
C848 C 0.01692 0.91385 0.62391 0.0
C849 C 0.99852 0.88727 0.55274 0.0
C850 C 0.0178 0.93378 0.65156 0.0
C851 C 1.0016 0.94807 0.64105 0.0
C852 C 0.9998 0.90812 0.58488 0.0
C853 C 0.98459 0.94154 0.6028 0.0
C854 C 0.9828 0.88274 0.50699 0.0
C855 C 0.01215 0.85294 0.53939 0.0
N856 N 0.98421 0.92217 0.57599 0.0
N857 N 0.01271 0.8722 0.56722 0.0
H858 H 0.68481 0.00914 0.6279 0.0
H859 H 0.56406 1.00051 0.53186 0.0
H860 H 0.66232 1.00417 0.42924 0.0
H861 H 0.58486 0.01365 0.72872 0.0
H862 H 0.60011 1.00028 0.49521 0.0
H863 H 0.64875 0.00927 0.66701 0.0
C864 C 0.67233 0.00797 0.59243 0.0
C865 C 0.67674 1.00663 0.52499 0.0
C866 C 0.59687 1.00321 0.54646 0.0
C867 C 0.63524 1.00686 0.56973 0.0
C868 C 0.57619 1.0033 0.56765 0.0
C869 C 0.57126 1.00709 0.63374 0.0
C870 C 0.61299 1.00684 0.59148 0.0
C871 C 0.58783 0.01066 0.67737 0.0
C872 C 0.6517 0.00817 0.61487 0.0
C873 C 0.65979 1.00547 0.48154 0.0
N874 N 0.60792 0.01041 0.65552 0.0
N875 N 0.6399 1.00554 0.50462 0.0
H876 H 0.50396 0.68611 0.59448 0.0
H877 H 0.52794 0.56508 0.53951 0.0
H878 H 0.53453 0.66077 0.42409 0.0
H879 H 0.49962 0.5882 0.71691 0.0
H880 H 0.52975 0.60029 0.49744 0.0
H881 H 0.50116 0.65088 0.63996 0.0
C882 C 0.50997 0.67317 0.56637 0.0
C883 C 0.51961 0.67654 0.5053 0.0
C884 C 0.52314 0.59778 0.54563 0.0
C885 C 0.51658 0.63612 0.55755 0.0
C886 C 0.52209 0.57756 0.56993 0.0
C887 C 0.51359 0.5735 0.63214 0.0
C888 C 0.51561 0.61438 0.58338 0.0
C889 C 0.50634 0.59052 0.66881 0.0
C890 C 0.50848 0.65307 0.59265 0.0
C891 C 0.52729 0.65911 0.4717 0.0
N892 N 0.50748 0.61021 0.64385 0.0
N893 N 0.52561 0.63978 0.49818 0.0
H894 H 0.85896 0.51781 0.40271 0.0
H895 H 0.93303 0.50897 0.71919 0.0
H896 H 0.83602 0.52231 0.60093 0.0
H897 H 0.95584 0.51643 0.52161 0.0
H898 H 0.89727 0.51087 0.67719 0.0
H899 H 0.89432 0.51406 0.44564 0.0
C900 C 0.8613 0.51785 0.45529 0.0
C901 C 0.84437 0.52047 0.49811 0.0
C902 C 0.91012 0.51207 0.64308 0.0
C903 C 0.88506 0.51626 0.54788 0.0
C904 C 0.93057 0.51095 0.66704 0.0
C905 C 0.94758 0.51261 0.62405 0.0
C906 C 0.90658 0.51469 0.57549 0.0
C907 C 0.94331 0.51517 0.55686 0.0
C908 C 0.88156 0.51584 0.47981 0.0
C909 C 0.84855 0.52062 0.56588 0.0
N910 N 0.92334 0.51609 0.5348 0.0
N911 N 0.86839 0.51853 0.58857 0.0
loop_
_geom_bond_atom_site_label_1
_geom_bond_atom_site_label_2
_geom_bond_distance
_geom_bond_site_symmetry_2
_ccdc_geom_bond_type
C0 C1 1.264 . S
C0 C5 1.479 . S
C0 C10 1.465 . S
C1 C0 1.264 . S
C1 C3 1.339 . S
C1 H28 0.931 . S
C2 C3 1.395 . S
C2 C4 1.320 . S
C3 C1 1.339 . S
C3 C2 1.395 . S
C3 H29 0.929 . S
C4 C2 1.320 . S
C4 C5 1.405 . S
C4 H30 0.930 . S
C5 C0 1.479 . S
C5 C4 1.405 . S
C5 H31 0.931 . S
U6 O7 2.454 . S
U6 O8 2.458 . S
U6 C9 2.984 . S
U6 C10 2.847 . S
U6 C23 2.882 . S
U6 O24 2.441 . S
U6 O25 2.420 . S
U6 O26 2.455 . S
U6 O27 2.449 . S
O7 U6 2.454 . S
O7 C9 1.353 . S
O8 U6 2.458 . S
O8 C9 1.286 . S
C9 U6 2.984 . S
C9 O7 1.353 . S
C9 O8 1.286 . S
C9 C11 1.363 . S
C10 C0 1.465 . S
C10 U6 2.847 . S
C10 O24 1.249 . S
C10 O25 1.202 . S
C11 C9 1.363 . S
C11 C13 1.408 . S
C11 C16 1.342 . S
C12 C13 1.310 . S
C12 C15 1.461 . S
C12 H32 0.932 . S
C13 C11 1.408 . S
C13 C12 1.310 . S
C13 H33 0.930 . S
C14 C15 1.474 . S
C14 C16 1.285 . S
C14 H34 0.929 . S
C15 C12 1.461 . S
C15 C14 1.474 . S
C16 C11 1.342 . S
C16 C14 1.285 . S
C16 H35 0.930 . S
C17 C20 1.424 . S
C17 C22 1.245 . S
C17 C23 1.428 . S
C18 C21 1.260 . S
C18 C22 1.477 . S
C18 H36 0.932 . S
C19 C20 1.384 . S
C19 C21 1.479 . S
C19 H37 0.929 . S
C20 C17 1.424 . S
C20 C19 1.384 . S
C20 H38 0.928 . S
C21 C18 1.260 . S
C21 C19 1.479 . S
C22 C17 1.245 . S
C22 C18 1.477 . S
C22 H39 0.932 . S
C23 U6 2.882 . S
C23 C17 1.428 . S
C23 O26 1.301 . S
C23 O27 1.282 . S
O24 U6 2.441 . S
O24 C10 1.249 . S
O25 U6 2.420 . S
O25 C10 1.202 . S
O26 U6 2.455 . S
O26 C23 1.301 . S
O27 U6 2.449 . S
O27 C23 1.282 . S
H28 C1 0.931 . S
H29 C3 0.929 . S
H30 C4 0.930 . S
H31 C5 0.931 . S
H32 C12 0.932 . S
H33 C13 0.930 . S
H34 C14 0.929 . S
H35 C16 0.930 . S
H36 C18 0.932 . S
H37 C19 0.929 . S
H38 C20 0.928 . S
H39 C22 0.932 . S
C40 C41 1.264 . S
C40 C45 1.479 . S
C40 C50 1.465 . S
C41 C40 1.264 . S
C41 C43 1.339 . S
C41 H68 0.931 . S
C42 C43 1.395 . S
C42 C44 1.320 . S
C43 C41 1.339 . S
C43 C42 1.395 . S
C43 H69 0.929 . S
C44 C42 1.320 . S
C44 C45 1.405 . S
C44 H70 0.921 1_455 S
C45 C40 1.479 . S
C45 C44 1.405 . S
C45 H71 0.931 . S
U46 O47 2.454 . S
U46 O48 2.458 . S
U46 C49 2.984 . S
U46 C50 2.847 . S
U46 C63 2.882 . S
U46 O64 2.441 . S
U46 O65 2.420 . S
U46 O66 2.455 . S
U46 O67 2.449 . S
O47 U46 2.454 . S
O47 C49 1.353 . S
O48 U46 2.458 . S
O48 C49 1.286 . S
C49 U46 2.984 . S
C49 O47 1.353 . S
C49 O48 1.286 . S
C49 C51 1.363 . S
C50 C40 1.465 . S
C50 U46 2.847 . S
C50 O64 1.249 . S
C50 O65 1.202 . S
C51 C49 1.363 . S
C51 C53 1.408 . S
C51 C56 1.342 . S
C52 C53 1.310 . S
C52 C55 1.461 . S
C52 H72 0.932 . S
C53 C51 1.408 . S
C53 C52 1.310 . S
C53 H73 0.930 . S
C54 C55 1.474 1_655 S
C54 C56 1.285 1_655 S
C54 H74 0.930 . S
C55 C52 1.461 . S
C55 C54 1.474 1_455 S
C56 C51 1.342 . S
C56 C54 1.285 1_455 S
C56 H75 0.932 . S
C57 C60 1.424 . S
C57 C62 1.245 . S
C57 C63 1.428 . S
C58 C61 1.260 . S
C58 C62 1.477 . S
C58 H76 0.932 . S
C59 C60 1.384 . S
C59 C61 1.479 . S
C59 H77 0.929 . S
C60 C57 1.424 . S
C60 C59 1.384 . S
C60 H78 0.928 . S
C61 C58 1.260 . S
C61 C59 1.479 . S
C62 C57 1.245 . S
C62 C58 1.477 . S
C62 H79 0.932 . S
C63 U46 2.882 . S
C63 C57 1.428 . S
C63 O66 1.301 . S
C63 O67 1.282 . S
O64 U46 2.441 . S
O64 C50 1.249 . S
O65 U46 2.420 . S
O65 C50 1.202 . S
O66 U46 2.455 . S
O66 C63 1.301 . S
O67 U46 2.449 . S
O67 C63 1.282 . S
H68 C41 0.931 . S
H69 C43 0.929 . S
H70 C44 0.921 1_655 S
H71 C45 0.931 . S
H72 C52 0.932 . S
H73 C53 0.930 . S
H74 C54 0.930 . S
H75 C56 0.932 . S
H76 C58 0.932 . S
H77 C59 0.929 . S
H78 C60 0.928 . S
H79 C62 0.932 . S
C80 C81 1.264 . S
C80 C85 1.479 . S
C80 C90 1.465 . S
C81 C80 1.264 . S
C81 C83 1.339 . S
C81 H108 0.931 . S
C82 C83 1.395 . S
C82 C84 1.320 . S
C83 C81 1.339 . S
C83 C82 1.395 . S
C83 H109 0.929 . S
C84 C82 1.320 . S
C84 C85 1.405 . S
C84 H110 0.921 1_545 S
C85 C80 1.479 . S
C85 C84 1.405 . S
C85 H111 0.931 . S
U86 O87 2.454 . S
U86 O88 2.458 . S
U86 C89 2.984 . S
U86 C90 2.847 . S
U86 C103 2.882 . S
U86 O104 2.441 . S
U86 O105 2.420 . S
U86 O106 2.455 . S
U86 O107 2.449 . S
O87 U86 2.454 . S
O87 C89 1.353 . S
O88 U86 2.458 . S
O88 C89 1.286 . S
C89 U86 2.984 . S
C89 O87 1.353 . S
C89 O88 1.286 . S
C89 C91 1.363 . S
C90 C80 1.465 . S
C90 U86 2.847 . S
C90 O104 1.249 . S
C90 O105 1.202 . S
C91 C89 1.363 . S
C91 C93 1.408 . S
C91 C96 1.342 . S
C92 C93 1.310 . S
C92 C95 1.461 . S
C92 H112 0.932 . S
C93 C91 1.408 . S
C93 C92 1.310 . S
C93 H113 0.930 . S
C94 C95 1.474 1_565 S
C94 C96 1.285 1_565 S
C94 H114 0.930 . S
C95 C92 1.461 . S
C95 C94 1.474 1_545 S
C96 C91 1.342 . S
C96 C94 1.285 1_545 S
C96 H115 0.932 . S
C97 C100 1.424 . S
C97 C102 1.245 . S
C97 C103 1.428 . S
C98 C101 1.260 . S
C98 C102 1.477 . S
C98 H116 0.932 . S
C99 C100 1.384 . S
C99 C101 1.479 . S
C99 H117 0.929 . S
C100 C97 1.424 . S
C100 C99 1.384 . S
C100 H118 0.928 . S
C101 C98 1.260 . S
C101 C99 1.479 . S
C102 C97 1.245 . S
C102 C98 1.477 . S
C102 H119 0.932 . S
C103 U86 2.882 . S
C103 C97 1.428 . S
C103 O106 1.301 . S
C103 O107 1.282 . S
O104 U86 2.441 . S
O104 C90 1.249 . S
O105 U86 2.420 . S
O105 C90 1.202 . S
O106 U86 2.455 . S
O106 C103 1.301 . S
O107 U86 2.449 . S
O107 C103 1.282 . S
H108 C81 0.931 . S
H109 C83 0.929 . S
H110 C84 0.921 1_565 S
H111 C85 0.931 . S
H112 C92 0.932 . S
H113 C93 0.930 . S
H114 C94 0.930 . S
H115 C96 0.932 . S
H116 C98 0.932 . S
H117 C99 0.929 . S
H118 C100 0.928 . S
H119 C102 0.932 . S
C120 C121 1.264 . S
C120 C125 1.479 . S
C120 C130 1.465 . S
C121 C120 1.264 . S
C121 C123 1.339 . S
C121 H148 0.931 . S
C122 C123 1.395 . S
C122 C124 1.320 . S
C123 C121 1.339 . S
C123 C122 1.395 . S
C123 H149 0.929 . S
C124 C122 1.320 . S
C124 C125 1.405 . S
C124 H150 0.930 . S
C125 C120 1.479 . S
C125 C124 1.405 . S
C125 H151 0.931 . S
U126 O127 2.454 . S
U126 O128 2.458 . S
U126 C129 2.984 . S
U126 C130 2.847 . S
U126 C143 2.882 . S
U126 O144 2.441 . S
U126 O145 2.420 . S
U126 O146 2.455 . S
U126 O147 2.449 . S
O127 U126 2.454 . S
O127 C129 1.353 . S
O128 U126 2.458 . S
O128 C129 1.286 . S
C129 U126 2.984 . S
C129 O127 1.353 . S
C129 O128 1.286 . S
C129 C131 1.363 . S
C130 C120 1.465 . S
C130 U126 2.847 . S
C130 O144 1.249 . S
C130 O145 1.202 . S
C131 C129 1.363 . S
C131 C133 1.408 . S
C131 C136 1.342 . S
C132 C133 1.310 . S
C132 C135 1.461 . S
C132 H152 0.932 . S
C133 C131 1.408 . S
C133 C132 1.310 . S
C133 H153 0.930 . S
C134 C135 1.474 . S
C134 C136 1.285 . S
C134 H154 0.929 . S
C135 C132 1.461 . S
C135 C134 1.474 . S
C136 C131 1.342 . S
C136 C134 1.285 . S
C136 H155 0.930 . S
C137 C140 1.424 . S
C137 C142 1.245 . S
C137 C143 1.428 . S
C138 C141 1.260 . S
C138 C142 1.477 . S
C138 H156 0.932 . S
C139 C140 1.384 . S
C139 C141 1.479 . S
C139 H157 0.929 . S
C140 C137 1.424 . S
C140 C139 1.384 . S
C140 H158 0.928 . S
C141 C138 1.260 . S
C141 C139 1.479 . S
C142 C137 1.245 . S
C142 C138 1.477 . S
C142 H159 0.932 . S
C143 U126 2.882 . S
C143 C137 1.428 . S
C143 O146 1.301 . S
C143 O147 1.282 . S
O144 U126 2.441 . S
O144 C130 1.249 . S
O145 U126 2.420 . S
O145 C130 1.202 . S
O146 U126 2.455 . S
O146 C143 1.301 . S
O147 U126 2.449 . S
O147 C143 1.282 . S
H148 C121 0.931 . S
H149 C123 0.929 . S
H150 C124 0.930 . S
H151 C125 0.931 . S
H152 C132 0.932 . S
H153 C133 0.930 . S
H154 C134 0.929 . S
H155 C136 0.930 . S
H156 C138 0.932 . S
H157 C139 0.929 . S
H158 C140 0.928 . S
H159 C142 0.932 . S
C160 C161 1.264 . S
C160 C165 1.479 . S
C160 C170 1.465 . S
C161 C160 1.264 . S
C161 C163 1.339 . S
C161 H188 0.931 . S
C162 C163 1.395 . S
C162 C164 1.320 . S
C163 C161 1.339 . S
C163 C162 1.395 . S
C163 H189 0.929 . S
C164 C162 1.320 . S
C164 C165 1.405 . S
C164 H190 0.930 . S
C165 C160 1.479 . S
C165 C164 1.405 . S
C165 H191 0.931 . S
U166 O167 2.454 . S
U166 O168 2.458 . S
U166 C169 2.984 . S
U166 C170 2.847 1_554 S
U166 C183 2.882 . S
U166 O184 2.441 1_554 S
U166 O185 2.420 1_554 S
U166 O186 2.455 . S
U166 O187 2.449 . S
O167 U166 2.454 . S
O167 C169 1.353 . S
O168 U166 2.458 . S
O168 C169 1.286 . S
C169 U166 2.984 . S
C169 O167 1.353 . S
C169 O168 1.286 . S
C169 C171 1.363 . S
C170 C160 1.465 . S
C170 U166 2.847 1_556 S
C170 O184 1.249 . S
C170 O185 1.202 . S
C171 C169 1.363 . S
C171 C173 1.408 . S
C171 C176 1.342 . S
C172 C173 1.310 . S
C172 C175 1.461 . S
C172 H192 0.932 . S
C173 C171 1.408 . S
C173 C172 1.310 . S
C173 H193 0.930 . S
C174 C175 1.474 . S
C174 C176 1.285 . S
C174 H194 0.929 . S
C175 C172 1.461 . S
C175 C174 1.474 . S
C176 C171 1.342 . S
C176 C174 1.285 . S
C176 H195 0.930 . S
C177 C180 1.424 . S
C177 C182 1.245 . S
C177 C183 1.428 . S
C178 C181 1.260 . S
C178 C182 1.477 . S
C178 H196 0.932 . S
C179 C180 1.384 . S
C179 C181 1.479 . S
C179 H197 0.929 . S
C180 C177 1.424 . S
C180 C179 1.384 . S
C180 H198 0.928 . S
C181 C178 1.260 . S
C181 C179 1.479 . S
C182 C177 1.245 . S
C182 C178 1.477 . S
C182 H199 0.932 . S
C183 U166 2.882 . S
C183 C177 1.428 . S
C183 O186 1.301 . S
C183 O187 1.282 . S
O184 U166 2.441 1_556 S
O184 C170 1.249 . S
O185 U166 2.420 1_556 S
O185 C170 1.202 . S
O186 U166 2.455 . S
O186 C183 1.301 . S
O187 U166 2.449 . S
O187 C183 1.282 . S
H188 C161 0.931 . S
H189 C163 0.929 . S
H190 C164 0.930 . S
H191 C165 0.931 . S
H192 C172 0.932 . S
H193 C173 0.930 . S
H194 C174 0.929 . S
H195 C176 0.930 . S
H196 C178 0.932 . S
H197 C179 0.929 . S
H198 C180 0.928 . S
H199 C182 0.932 . S
C200 C201 1.264 . S
C200 C205 1.479 . S
C200 C210 1.465 . S
C201 C200 1.264 . S
C201 C203 1.339 . S
C201 H228 0.931 . S
C202 C203 1.395 . S
C202 C204 1.320 . S
C203 C201 1.339 . S
C203 C202 1.395 . S
C203 H229 0.929 . S
C204 C202 1.320 . S
C204 C205 1.405 . S
C204 H230 0.923 1_455 S
C205 C200 1.479 . S
C205 C204 1.405 . S
C205 H231 0.931 . S
U206 O207 2.454 . S
U206 O208 2.458 . S
U206 C209 2.984 . S
U206 C210 2.847 1_554 S
U206 C223 2.882 . S
U206 O224 2.441 1_554 S
U206 O225 2.420 1_554 S
U206 O226 2.455 . S
U206 O227 2.449 . S
O207 U206 2.454 . S
O207 C209 1.353 . S
O208 U206 2.458 . S
O208 C209 1.286 . S
C209 U206 2.984 . S
C209 O207 1.353 . S
C209 O208 1.286 . S
C209 C211 1.363 . S
C210 C200 1.465 . S
C210 U206 2.847 1_556 S
C210 O224 1.249 . S
C210 O225 1.202 . S
C211 C209 1.363 . S
C211 C213 1.408 . S
C211 C216 1.342 . S
C212 C213 1.310 . S
C212 C215 1.462 . S
C212 H232 0.932 . S
C213 C211 1.408 . S
C213 C212 1.310 . S
C213 H233 0.930 . S
C214 C215 1.474 1_655 S
C214 C216 1.286 1_655 S
C214 H234 0.929 . S
C215 C212 1.462 . S
C215 C214 1.474 1_455 S
C216 C211 1.342 . S
C216 C214 1.286 1_455 S
C216 H235 0.934 . S
C217 C220 1.424 . S
C217 C222 1.245 . S
C217 C223 1.428 . S
C218 C221 1.260 . S
C218 C222 1.477 . S
C218 H236 0.932 . S
C219 C220 1.384 . S
C219 C221 1.479 . S
C219 H237 0.929 . S
C220 C217 1.424 . S
C220 C219 1.384 . S
C220 H238 0.928 . S
C221 C218 1.260 . S
C221 C219 1.479 . S
C222 C217 1.245 . S
C222 C218 1.477 . S
C222 H239 0.932 . S
C223 U206 2.882 . S
C223 C217 1.428 . S
C223 O226 1.301 . S
C223 O227 1.282 . S
O224 U206 2.441 1_556 S
O224 C210 1.249 . S
O225 U206 2.420 1_556 S
O225 C210 1.202 . S
O226 U206 2.455 . S
O226 C223 1.301 . S
O227 U206 2.449 . S
O227 C223 1.282 . S
H228 C201 0.931 . S
H229 C203 0.929 . S
H230 C204 0.923 1_655 S
H231 C205 0.931 . S
H232 C212 0.932 . S
H233 C213 0.930 . S
H234 C214 0.929 . S
H235 C216 0.934 . S
H236 C218 0.932 . S
H237 C219 0.929 . S
H238 C220 0.928 . S
H239 C222 0.932 . S
C240 C241 1.264 . S
C240 C245 1.479 . S
C240 C250 1.465 . S
C241 C240 1.264 . S
C241 C243 1.339 . S
C241 H268 0.931 . S
C242 C243 1.395 . S
C242 C244 1.320 . S
C243 C241 1.339 . S
C243 C242 1.395 . S
C243 H269 0.929 . S
C244 C242 1.320 . S
C244 C245 1.405 . S
C244 H270 0.923 1_545 S
C245 C240 1.479 . S
C245 C244 1.405 . S
C245 H271 0.931 . S
U246 O247 2.454 . S
U246 O248 2.458 . S
U246 C249 2.984 . S
U246 C250 2.847 1_554 S
U246 C263 2.882 . S
U246 O264 2.441 1_554 S
U246 O265 2.420 1_554 S
U246 O266 2.455 . S
U246 O267 2.449 . S
O247 U246 2.454 . S
O247 C249 1.353 . S
O248 U246 2.458 . S
O248 C249 1.286 . S
C249 U246 2.984 . S
C249 O247 1.353 . S
C249 O248 1.286 . S
C249 C251 1.363 . S
C250 C240 1.465 . S
C250 U246 2.847 1_556 S
C250 O264 1.249 . S
C250 O265 1.202 . S
C251 C249 1.363 . S
C251 C253 1.408 . S
C251 C256 1.342 . S
C252 C253 1.310 . S
C252 C255 1.462 . S
C252 H272 0.932 . S
C253 C251 1.408 . S
C253 C252 1.310 . S
C253 H273 0.930 . S
C254 C255 1.474 1_565 S
C254 C256 1.286 1_565 S
C254 H274 0.929 . S
C255 C252 1.462 . S
C255 C254 1.474 1_545 S
C256 C251 1.342 . S
C256 C254 1.286 1_545 S
C256 H275 0.933 . S
C257 C260 1.424 . S
C257 C262 1.245 . S
C257 C263 1.428 . S
C258 C261 1.260 . S
C258 C262 1.477 . S
C258 H276 0.932 . S
C259 C260 1.384 . S
C259 C261 1.479 . S
C259 H277 0.929 . S
C260 C257 1.424 . S
C260 C259 1.384 . S
C260 H278 0.928 . S
C261 C258 1.260 . S
C261 C259 1.479 . S
C262 C257 1.245 . S
C262 C258 1.477 . S
C262 H279 0.932 . S
C263 U246 2.882 . S
C263 C257 1.428 . S
C263 O266 1.301 . S
C263 O267 1.282 . S
O264 U246 2.441 1_556 S
O264 C250 1.249 . S
O265 U246 2.420 1_556 S
O265 C250 1.202 . S
O266 U246 2.455 . S
O266 C263 1.301 . S
O267 U246 2.449 . S
O267 C263 1.282 . S
H268 C241 0.931 . S
H269 C243 0.929 . S
H270 C244 0.923 1_565 S
H271 C245 0.931 . S
H272 C252 0.932 . S
H273 C253 0.930 . S
H274 C254 0.929 . S
H275 C256 0.933 . S
H276 C258 0.932 . S
H277 C259 0.929 . S
H278 C260 0.928 . S
H279 C262 0.932 . S
C280 C281 1.264 . S
C280 C285 1.479 . S
C280 C290 1.465 . S
C281 C280 1.264 . S
C281 C283 1.339 . S
C281 H308 0.931 . S
C282 C283 1.395 . S
C282 C284 1.320 . S
C283 C281 1.339 . S
C283 C282 1.395 . S
C283 H309 0.929 . S
C284 C282 1.320 . S
C284 C285 1.405 . S
C284 H310 0.930 . S
C285 C280 1.479 . S
C285 C284 1.405 . S
C285 H311 0.931 . S
U286 O287 2.454 . S
U286 O288 2.458 . S
U286 C289 2.984 . S
U286 C290 2.847 1_554 S
U286 C303 2.882 . S
U286 O304 2.441 1_554 S
U286 O305 2.420 1_554 S
U286 O306 2.455 . S
U286 O307 2.449 . S
O287 U286 2.454 . S
O287 C289 1.353 . S
O288 U286 2.458 . S
O288 C289 1.286 . S
C289 U286 2.984 . S
C289 O287 1.353 . S
C289 O288 1.286 . S
C289 C291 1.363 . S
C290 C280 1.465 . S
C290 U286 2.847 1_556 S
C290 O304 1.249 . S
C290 O305 1.202 . S
C291 C289 1.363 . S
C291 C293 1.408 . S
C291 C296 1.342 . S
C292 C293 1.310 . S
C292 C295 1.461 . S
C292 H312 0.932 . S
C293 C291 1.408 . S
C293 C292 1.310 . S
C293 H313 0.930 . S
C294 C295 1.474 . S
C294 C296 1.285 . S
C294 H314 0.929 . S
C295 C292 1.461 . S
C295 C294 1.474 . S
C296 C291 1.342 . S
C296 C294 1.285 . S
C296 H315 0.930 . S
C297 C300 1.424 . S
C297 C302 1.245 . S
C297 C303 1.428 . S
C298 C301 1.260 . S
C298 C302 1.477 . S
C298 H316 0.932 . S
C299 C300 1.384 . S
C299 C301 1.479 . S
C299 H317 0.929 . S
C300 C297 1.424 . S
C300 C299 1.384 . S
C300 H318 0.928 . S
C301 C298 1.260 . S
C301 C299 1.479 . S
C302 C297 1.245 . S
C302 C298 1.477 . S
C302 H319 0.932 . S
C303 U286 2.882 . S
C303 C297 1.428 . S
C303 O306 1.301 . S
C303 O307 1.282 . S
O304 U286 2.441 1_556 S
O304 C290 1.249 . S
O305 U286 2.420 1_556 S
O305 C290 1.202 . S
O306 U286 2.455 . S
O306 C303 1.301 . S
O307 U286 2.449 . S
O307 C303 1.282 . S
H308 C281 0.931 . S
H309 C283 0.929 . S
H310 C284 0.930 . S
H311 C285 0.931 . S
H312 C292 0.932 . S
H313 C293 0.930 . S
H314 C294 0.929 . S
H315 C296 0.930 . S
H316 C298 0.932 . S
H317 C299 0.929 . S
H318 C300 0.928 . S
H319 C302 0.932 . S
Tb320 C330 2.825 . S
Tb320 O331 2.347 1_455 S
Tb320 O334 2.366 . S
Tb320 O339 2.418 . S
Tb320 O340 2.384 1_565 S
Tb320 O343 2.479 . S
Tb320 O344 2.471 . S
Eu321 O332 2.418 . S
Eu321 O333 2.384 1_545 S
Eu321 O336 2.479 . S
Eu321 O337 2.471 . S
Eu321 O338 2.347 1_655 S
Eu321 O341 2.366 . S
Eu321 C351 2.825 . S
C322 O338 1.259 1_565 S
C322 O339 1.265 . S
C323 O340 1.255 . S
C323 O341 1.265 1_455 S
C324 C326 1.380 . S
C324 C327 1.374 . S
C324 C330 1.507 . S
C325 C326 1.384 . S
C325 C329 1.387 . S
C325 H352 0.930 . S
C326 C324 1.380 . S
C326 C325 1.384 . S
C326 H353 0.931 . S
C327 C324 1.374 . S
C327 C328 1.390 . S
C327 H354 0.930 1_455 S
C328 C327 1.390 . S
C328 C329 1.391 . S
C328 H355 0.930 1_455 S
C329 C325 1.387 . S
C329 C328 1.391 . S
C330 Tb320 2.825 . S
C330 C324 1.507 . S
C330 O343 1.238 . S
C330 O344 1.247 . S
O331 Tb320 2.347 1_655 S
O331 C335 1.259 1_565 S
O332 Eu321 2.418 . S
O332 C335 1.265 . S
O333 Eu321 2.384 1_565 S
O333 C342 1.255 . S
O334 Tb320 2.366 . S
O334 C342 1.265 1_455 S
C335 O331 1.259 1_545 S
C335 O332 1.265 . S
O336 Eu321 2.479 . S
O336 C351 1.238 . S
O337 Eu321 2.471 . S
O337 C351 1.247 . S
O338 Eu321 2.347 1_455 S
O338 C322 1.259 1_545 S
O339 Tb320 2.418 . S
O339 C322 1.265 . S
O340 Tb320 2.384 1_545 S
O340 C323 1.255 . S
O341 Eu321 2.366 . S
O341 C323 1.265 1_655 S
C342 O333 1.255 . S
C342 O334 1.265 1_655 S
O343 Tb320 2.479 . S
O343 C330 1.238 . S
O344 Tb320 2.471 . S
O344 C330 1.247 . S
C345 C348 1.380 . S
C345 C349 1.374 . S
C345 C351 1.507 . S
C346 C347 1.387 . S
C346 C350 1.391 . S
C347 C346 1.387 . S
C347 C348 1.384 . S
C347 H356 0.930 . S
C348 C345 1.380 . S
C348 C347 1.384 . S
C348 H357 0.931 . S
C349 C345 1.374 . S
C349 C350 1.390 . S
C349 H358 0.930 1_655 S
C350 C346 1.391 . S
C350 C349 1.390 . S
C350 H359 0.930 1_655 S
C351 Eu321 2.825 . S
C351 O336 1.238 . S
C351 O337 1.247 . S
C351 C345 1.507 . S
H352 C325 0.930 . S
H353 C326 0.931 . S
H354 C327 0.930 1_655 S
H355 C328 0.930 1_655 S
H356 C347 0.930 . S
H357 C348 0.931 . S
H358 C349 0.930 1_455 S
H359 C350 0.930 1_455 S
Tb360 C370 2.825 . S
Tb360 O371 2.347 1_545 S
Tb360 O374 2.366 . S
Tb360 O379 2.418 . S
Tb360 O380 2.384 . S
Tb360 O383 2.479 . S
Tb360 O384 2.471 . S
Eu361 O372 2.418 . S
Eu361 O373 2.384 . S
Eu361 O376 2.479 . S
Eu361 O377 2.471 . S
Eu361 O378 2.347 1_565 S
Eu361 O381 2.366 . S
Eu361 C391 2.825 . S
C362 O378 1.259 . S
C362 O379 1.265 . S
C363 O380 1.255 . S
C363 O381 1.265 1_545 S
C364 C366 1.380 . S
C364 C367 1.374 . S
C364 C370 1.507 . S
C365 C366 1.384 . S
C365 C369 1.387 . S
C365 H392 0.930 . S
C366 C364 1.380 . S
C366 C365 1.384 . S
C366 H393 0.931 . S
C367 C364 1.374 . S
C367 C368 1.390 . S
C367 H394 0.930 1_545 S
C368 C367 1.390 . S
C368 C369 1.391 . S
C368 H395 0.930 1_545 S
C369 C365 1.387 . S
C369 C368 1.391 . S
C370 Tb360 2.825 . S
C370 C364 1.507 . S
C370 O383 1.238 . S
C370 O384 1.247 . S
O371 Tb360 2.347 1_565 S
O371 C375 1.259 . S
O372 Eu361 2.418 . S
O372 C375 1.265 . S
O373 Eu361 2.384 . S
O373 C382 1.255 . S
O374 Tb360 2.366 . S
O374 C382 1.265 1_545 S
C375 O371 1.259 . S
C375 O372 1.265 . S
O376 Eu361 2.479 . S
O376 C391 1.238 . S
O377 Eu361 2.471 . S
O377 C391 1.247 . S
O378 Eu361 2.347 1_545 S
O378 C362 1.259 . S
O379 Tb360 2.418 . S
O379 C362 1.265 . S
O380 Tb360 2.384 . S
O380 C363 1.255 . S
O381 Eu361 2.366 . S
O381 C363 1.265 1_565 S
C382 O373 1.255 . S
C382 O374 1.265 1_565 S
O383 Tb360 2.479 . S
O383 C370 1.238 . S
O384 Tb360 2.471 . S
O384 C370 1.247 . S
C385 C388 1.380 . S
C385 C389 1.374 . S
C385 C391 1.507 . S
C386 C387 1.387 . S
C386 C390 1.391 . S
C387 C386 1.387 . S
C387 C388 1.384 . S
C387 H396 0.930 . S
C388 C385 1.380 . S
C388 C387 1.384 . S
C388 H397 0.931 . S
C389 C385 1.374 . S
C389 C390 1.390 . S
C389 H398 0.930 1_565 S
C390 C386 1.391 . S
C390 C389 1.390 . S
C390 H399 0.930 1_565 S
C391 Eu361 2.825 . S
C391 O376 1.238 . S
C391 O377 1.247 . S
C391 C385 1.507 . S
H392 C365 0.930 . S
H393 C366 0.931 . S
H394 C367 0.930 1_565 S
H395 C368 0.930 1_565 S
H396 C387 0.930 . S
H397 C388 0.931 . S
H398 C389 0.930 1_545 S
H399 C390 0.930 1_545 S
Tb400 C410 2.825 . S
Tb400 O411 2.347 . S
Tb400 O414 2.366 . S
Tb400 O419 2.418 . S
Tb400 O420 2.384 . S
Tb400 O423 2.479 . S
Tb400 O424 2.471 . S
Eu401 O412 2.418 . S
Eu401 O413 2.384 . S
Eu401 O416 2.479 . S
Eu401 O417 2.471 . S
Eu401 O418 2.347 . S
Eu401 O421 2.366 . S
Eu401 C431 2.825 . S
C402 O418 1.259 . S
C402 O419 1.265 . S
C403 O420 1.255 . S
C403 O421 1.265 . S
C404 C406 1.380 . S
C404 C407 1.374 . S
C404 C410 1.507 . S
C405 C406 1.384 . S
C405 C409 1.387 . S
C405 H432 0.930 . S
C406 C404 1.380 . S
C406 C405 1.384 . S
C406 H433 0.931 . S
C407 C404 1.374 . S
C407 C408 1.390 . S
C407 H434 0.930 . S
C408 C407 1.390 . S
C408 C409 1.391 . S
C408 H435 0.930 . S
C409 C405 1.387 . S
C409 C408 1.391 . S
C410 Tb400 2.825 . S
C410 C404 1.507 . S
C410 O423 1.238 . S
C410 O424 1.247 . S
O411 Tb400 2.347 . S
O411 C415 1.259 . S
O412 Eu401 2.418 . S
O412 C415 1.265 . S
O413 Eu401 2.384 . S
O413 C422 1.255 . S
O414 Tb400 2.366 . S
O414 C422 1.265 . S
C415 O411 1.259 . S
C415 O412 1.265 . S
O416 Eu401 2.479 . S
O416 C431 1.238 . S
O417 Eu401 2.471 . S
O417 C431 1.247 . S
O418 Eu401 2.347 . S
O418 C402 1.259 . S
O419 Tb400 2.418 . S
O419 C402 1.265 . S
O420 Tb400 2.384 . S
O420 C403 1.255 . S
O421 Eu401 2.366 . S
O421 C403 1.265 . S
C422 O413 1.255 . S
C422 O414 1.265 . S
O423 Tb400 2.479 . S
O423 C410 1.238 . S
O424 Tb400 2.471 . S
O424 C410 1.247 . S
C425 C428 1.380 . S
C425 C429 1.374 . S
C425 C431 1.507 . S
C426 C427 1.387 . S
C426 C430 1.391 . S
C427 C426 1.387 . S
C427 C428 1.384 . S
C427 H436 0.930 . S
C428 C425 1.380 . S
C428 C427 1.384 . S
C428 H437 0.931 . S
C429 C425 1.374 . S
C429 C430 1.390 . S
C429 H438 0.930 . S
C430 C426 1.391 . S
C430 C429 1.390 . S
C430 H439 0.930 . S
C431 Eu401 2.825 . S
C431 O416 1.238 . S
C431 O417 1.247 . S
C431 C425 1.507 . S
H432 C405 0.930 . S
H433 C406 0.931 . S
H434 C407 0.930 . S
H435 C408 0.930 . S
H436 C427 0.930 . S
H437 C428 0.931 . S
H438 C429 0.930 . S
H439 C430 0.930 . S
Tb440 C450 2.825 . S
Tb440 O451 2.347 . S
Tb440 O454 2.366 . S
Tb440 O459 2.418 . S
Tb440 O460 2.384 1_655 S
Tb440 O463 2.479 . S
Tb440 O464 2.471 . S
Eu441 O452 2.418 . S
Eu441 O453 2.384 1_455 S
Eu441 O456 2.479 . S
Eu441 O457 2.471 . S
Eu441 O458 2.347 . S
Eu441 O461 2.366 . S
Eu441 C471 2.825 . S
C442 O458 1.259 1_655 S
C442 O459 1.265 . S
C443 O460 1.255 . S
C443 O461 1.265 . S
C444 C446 1.380 . S
C444 C447 1.374 . S
C444 C450 1.507 . S
C445 C446 1.384 . S
C445 C449 1.387 . S
C445 H472 0.930 . S
C446 C444 1.380 . S
C446 C445 1.384 . S
C446 H473 0.931 . S
C447 C444 1.374 . S
C447 C448 1.390 . S
C447 H474 0.930 . S
C448 C447 1.390 . S
C448 C449 1.391 . S
C448 H475 0.930 . S
C449 C445 1.387 . S
C449 C448 1.391 . S
C450 Tb440 2.825 . S
C450 C444 1.507 . S
C450 O463 1.238 . S
C450 O464 1.247 . S
O451 Tb440 2.347 . S
O451 C455 1.259 1_655 S
O452 Eu441 2.418 . S
O452 C455 1.265 . S
O453 Eu441 2.384 1_655 S
O453 C462 1.255 . S
O454 Tb440 2.366 . S
O454 C462 1.265 . S
C455 O451 1.259 1_455 S
C455 O452 1.265 . S
O456 Eu441 2.479 . S
O456 C471 1.238 . S
O457 Eu441 2.471 . S
O457 C471 1.247 . S
O458 Eu441 2.347 . S
O458 C442 1.259 1_455 S
O459 Tb440 2.418 . S
O459 C442 1.265 . S
O460 Tb440 2.384 1_455 S
O460 C443 1.255 . S
O461 Eu441 2.366 . S
O461 C443 1.265 . S
C462 O453 1.255 . S
C462 O454 1.265 . S
O463 Tb440 2.479 . S
O463 C450 1.238 . S
O464 Tb440 2.471 . S
O464 C450 1.247 . S
C465 C468 1.380 . S
C465 C469 1.374 . S
C465 C471 1.507 . S
C466 C467 1.387 . S
C466 C470 1.391 . S
C467 C466 1.387 . S
C467 C468 1.384 . S
C467 H476 0.930 . S
C468 C465 1.380 . S
C468 C467 1.384 . S
C468 H477 0.931 . S
C469 C465 1.374 . S
C469 C470 1.390 . S
C469 H478 0.930 . S
C470 C466 1.391 . S
C470 C469 1.390 . S
C470 H479 0.930 . S
C471 Eu441 2.825 . S
C471 O456 1.238 . S
C471 O457 1.247 . S
C471 C465 1.507 . S
H472 C445 0.930 . S
H473 C446 0.931 . S
H474 C447 0.930 . S
H475 C448 0.930 . S
H476 C467 0.930 . S
H477 C468 0.931 . S
H478 C469 0.930 . S
H479 C470 0.930 . S
H480 C486 0.930 . S
H481 C490 0.930 . S
H482 C495 0.929 . S
H483 C493 0.929 . S
H484 C488 0.929 . S
H485 C494 0.929 . S
C486 H480 0.930 . S
C486 C487 1.396 . S
C486 C494 1.378 . S
C487 C486 1.396 . S
C487 C495 1.404 1_545 S
C488 H484 0.929 . S
C488 C490 1.378 . S
C488 C492 1.355 . S
C489 C492 1.461 1_545 S
C489 C494 1.399 . S
C489 N497 1.378 1_545 S
C490 H481 0.930 . S
C490 C488 1.378 . S
C490 C491 1.363 1_565 S
C491 C490 1.363 1_545 S
C491 C493 1.437 . S
C492 C488 1.355 . S
C492 C489 1.461 1_565 S
C492 N496 1.423 1_565 S
C493 H483 0.929 . S
C493 C491 1.437 . S
C493 N496 1.384 . S
C494 H485 0.929 . S
C494 C486 1.378 . S
C494 C489 1.399 . S
C495 H482 0.929 . S
C495 C487 1.404 1_565 S
C495 N497 1.384 . S
N496 C492 1.423 1_545 S
N496 C493 1.384 . S
N497 C489 1.378 1_565 S
N497 C495 1.384 . S
H498 C504 0.930 . S
H499 C508 0.930 . S
H500 C513 0.929 . S
H501 C511 0.929 . S
H502 C506 0.929 . S
H503 C512 0.929 . S
C504 H498 0.930 . S
C504 C505 1.367 . S
C504 C512 1.378 . S
C505 C504 1.367 . S
C505 C513 1.433 . S
C506 H502 0.929 . S
C506 C508 1.378 . S
C506 C510 1.350 . S
C507 C510 1.463 . S
C507 C512 1.350 . S
C507 N515 1.427 . S
C508 H499 0.930 . S
C508 C506 1.378 . S
C508 C509 1.367 . S
C509 C508 1.367 . S
C509 C511 1.433 . S
C510 C506 1.350 . S
C510 C507 1.463 . S
C510 N514 1.427 . S
C511 H501 0.929 . S
C511 C509 1.433 . S
C511 N514 1.384 . S
C512 H503 0.929 . S
C512 C504 1.378 . S
C512 C507 1.350 . S
C513 H500 0.929 . S
C513 C505 1.433 . S
C513 N515 1.384 . S
N514 C510 1.427 . S
N514 C511 1.384 . S
N515 C507 1.427 . S
N515 C513 1.384 . S
H516 C522 0.930 . S
H517 C526 0.930 . S
H518 C531 0.929 . S
H519 C529 0.929 . S
H520 C524 0.929 . S
H521 C530 0.929 . S
C522 H516 0.930 . S
C522 C523 1.367 . S
C522 C530 1.378 . S
C523 C522 1.367 . S
C523 C531 1.433 . S
C524 H520 0.929 . S
C524 C526 1.378 . S
C524 C528 1.350 . S
C525 C528 1.463 . S
C525 C530 1.350 . S
C525 N533 1.427 . S
C526 H517 0.930 . S
C526 C524 1.378 . S
C526 C527 1.367 . S
C527 C526 1.367 . S
C527 C529 1.433 . S
C528 C524 1.350 . S
C528 C525 1.463 . S
C528 N532 1.427 . S
C529 H519 0.929 . S
C529 C527 1.433 . S
C529 N532 1.384 . S
C530 H521 0.929 . S
C530 C522 1.378 . S
C530 C525 1.350 . S
C531 H518 0.929 . S
C531 C523 1.433 . S
C531 N533 1.384 . S
N532 C528 1.427 . S
N532 C529 1.384 . S
N533 C525 1.427 . S
N533 C531 1.384 . S
H534 C540 0.930 . S
H535 C544 0.930 . S
H536 C549 0.929 . S
H537 C547 0.929 . S
H538 C542 0.929 . S
H539 C548 0.929 . S
C540 H534 0.930 . S
C540 C541 1.367 . S
C540 C548 1.378 . S
C541 C540 1.367 . S
C541 C549 1.433 1_655 S
C542 H538 0.929 . S
C542 C544 1.378 . S
C542 C546 1.350 . S
C543 C546 1.463 1_655 S
C543 C548 1.346 . S
C543 N551 1.431 1_655 S
C544 H535 0.930 . S
C544 C542 1.378 . S
C544 C545 1.367 . S
C545 C544 1.367 . S
C545 C547 1.433 1_455 S
C546 C542 1.350 . S
C546 C543 1.463 1_455 S
C546 N550 1.427 1_455 S
C547 H537 0.929 . S
C547 C545 1.433 1_655 S
C547 N550 1.384 . S
C548 H539 0.929 . S
C548 C540 1.378 . S
C548 C543 1.346 . S
C549 H536 0.929 . S
C549 C541 1.433 1_455 S
C549 N551 1.384 . S
N550 C546 1.427 1_655 S
N550 C547 1.384 . S
N551 C543 1.431 1_455 S
N551 C549 1.384 . S
H552 C558 0.930 . S
H553 C562 0.930 . S
H554 C567 0.929 . S
H555 C565 0.929 . S
H556 C560 0.929 . S
H557 C566 0.929 . S
C558 H552 0.930 . S
C558 C559 1.381 . S
C558 C566 1.378 . S
C559 C558 1.381 . S
C559 C567 1.419 1_545 S
C560 H556 0.929 . S
C560 C562 1.378 . S
C560 C564 1.385 . S
C561 C564 1.460 1_544 S
C561 C566 1.365 . S
C561 N569 1.412 1_545 S
C562 H553 0.930 . S
C562 C560 1.378 . S
C562 C563 1.400 . S
C563 C562 1.400 . S
C563 C565 1.400 1_565 S
C564 C560 1.385 . S
C564 C561 1.460 1_566 S
C564 N568 1.393 1_565 S
C565 H555 0.929 . S
C565 C563 1.400 1_545 S
C565 N568 1.384 . S
C566 H557 0.929 . S
C566 C558 1.378 . S
C566 C561 1.365 . S
C567 H554 0.929 . S
C567 C559 1.419 1_565 S
C567 N569 1.384 . S
N568 C564 1.393 1_545 S
N568 C565 1.384 . S
N569 C561 1.412 1_565 S
N569 C567 1.384 . S
H570 C576 0.930 . S
H571 C580 0.930 . S
H572 C585 0.929 . S
H573 C583 0.929 . S
H574 C578 0.929 . S
H575 C584 0.929 . S
C576 H570 0.930 . S
C576 C577 1.367 . S
C576 C584 1.378 . S
C577 C576 1.367 . S
C577 C585 1.433 . S
C578 H574 0.929 . S
C578 C580 1.378 . S
C578 C582 1.350 . S
C579 C582 1.463 1_554 S
C579 C584 1.350 . S
C579 N587 1.427 . S
C580 H571 0.930 . S
C580 C578 1.378 . S
C580 C581 1.367 . S
C581 C580 1.367 . S
C581 C583 1.433 . S
C582 C578 1.350 . S
C582 C579 1.463 1_556 S
C582 N586 1.427 . S
C583 H573 0.929 . S
C583 C581 1.433 . S
C583 N586 1.384 . S
C584 H575 0.929 . S
C584 C576 1.378 . S
C584 C579 1.350 . S
C585 H572 0.929 . S
C585 C577 1.433 . S
C585 N587 1.384 . S
N586 C582 1.427 . S
N586 C583 1.384 . S
N587 C579 1.427 . S
N587 C585 1.384 . S
H588 C594 0.930 . S
H589 C598 0.930 . S
H590 C603 0.929 . S
H591 C601 0.929 . S
H592 C596 0.929 . S
H593 C602 0.929 . S
C594 H588 0.930 . S
C594 C595 1.367 . S
C594 C602 1.378 . S
C595 C594 1.367 . S
C595 C603 1.433 . S
C596 H592 0.929 . S
C596 C598 1.378 . S
C596 C600 1.350 . S
C597 C600 1.463 1_554 S
C597 C602 1.350 . S
C597 N605 1.427 . S
C598 H589 0.930 . S
C598 C596 1.378 . S
C598 C599 1.367 . S
C599 C598 1.367 . S
C599 C601 1.433 . S
C600 C596 1.350 . S
C600 C597 1.463 1_556 S
C600 N604 1.427 . S
C601 H591 0.929 . S
C601 C599 1.433 . S
C601 N604 1.384 . S
C602 H593 0.929 . S
C602 C594 1.378 . S
C602 C597 1.350 . S
C603 H590 0.929 . S
C603 C595 1.433 . S
C603 N605 1.384 . S
N604 C600 1.427 . S
N604 C601 1.384 . S
N605 C597 1.427 . S
N605 C603 1.384 . S
H606 C612 0.930 . S
H607 C616 0.930 . S
H608 C621 0.929 . S
H609 C619 0.929 . S
H610 C614 0.929 . S
H611 C620 0.929 . S
C612 H606 0.930 . S
C612 C613 1.366 1_455 S
C612 C620 1.378 . S
C613 C612 1.366 1_655 S
C613 C621 1.434 . S
C614 H610 0.929 . S
C614 C616 1.378 . S
C614 C618 1.356 . S
C615 C618 1.462 1_554 S
C615 C620 1.347 1_655 S
C615 N623 1.430 . S
C616 H607 0.930 . S
C616 C614 1.378 . S
C616 C617 1.375 . S
C617 C616 1.375 . S
C617 C619 1.426 1_655 S
C618 C614 1.356 . S
C618 C615 1.462 1_556 S
C618 N622 1.422 1_655 S
C619 H609 0.929 . S
C619 C617 1.426 1_455 S
C619 N622 1.384 . S
C620 H611 0.929 . S
C620 C612 1.378 . S
C620 C615 1.347 1_455 S
C621 H608 0.929 . S
C621 C613 1.434 . S
C621 N623 1.384 . S
N622 C618 1.422 1_455 S
N622 C619 1.384 . S
N623 C615 1.430 . S
N623 C621 1.384 . S
H624 C630 0.930 . S
H625 C634 0.930 . S
H626 C639 0.929 . S
H627 C637 0.929 . S
H628 C632 0.929 1_455 S
H629 C638 0.929 . S
C630 H624 0.930 . S
C630 C631 1.367 1_655 S
C630 C638 1.378 . S
C631 C630 1.367 1_455 S
C631 C639 1.433 . S
C632 H628 0.929 1_655 S
C632 C634 1.378 . S
C632 C636 1.350 . S
C633 C636 1.463 . S
C633 C638 1.350 . S
C633 N641 1.427 1_655 S
C634 H625 0.930 . S
C634 C632 1.378 . S
C634 C635 1.367 . S
C635 C634 1.367 . S
C635 C637 1.433 . S
C636 C632 1.350 . S
C636 C633 1.463 . S
C636 N640 1.427 . S
C637 H627 0.929 . S
C637 C635 1.433 . S
C637 N640 1.384 . S
C638 H629 0.929 . S
C638 C630 1.378 . S
C638 C633 1.350 . S
C639 H626 0.929 . S
C639 C631 1.433 . S
C639 N641 1.384 . S
N640 C636 1.427 . S
N640 C637 1.384 . S
N641 C633 1.427 1_455 S
N641 C639 1.384 . S
H642 C648 0.930 . S
H643 C652 0.930 . S
H644 C657 0.929 . S
H645 C655 0.929 . S
H646 C650 0.929 1_545 S
H647 C656 0.929 . S
C648 H642 0.930 . S
C648 C649 1.367 1_565 S
C648 C656 1.378 . S
C649 C648 1.367 1_545 S
C649 C657 1.433 . S
C650 H646 0.929 1_565 S
C650 C652 1.378 . S
C650 C654 1.350 . S
C651 C654 1.463 . S
C651 C656 1.350 . S
C651 N659 1.427 1_565 S
C652 H643 0.930 . S
C652 C650 1.378 . S
C652 C653 1.367 . S
C653 C652 1.367 . S
C653 C655 1.433 . S
C654 C650 1.350 . S
C654 C651 1.463 . S
C654 N658 1.427 . S
C655 H645 0.929 . S
C655 C653 1.433 . S
C655 N658 1.384 . S
C656 H647 0.929 . S
C656 C648 1.378 . S
C656 C651 1.350 . S
C657 H644 0.929 . S
C657 C649 1.433 . S
C657 N659 1.384 . S
N658 C654 1.427 . S
N658 C655 1.384 . S
N659 C651 1.427 1_545 S
N659 C657 1.384 . S
H660 C666 0.930 . S
H661 C670 0.930 . S
H662 C675 0.929 . S
H663 C673 0.929 . S
H664 C668 0.929 . S
H665 C674 0.929 . S
C666 H660 0.930 . S
C666 C667 1.367 . S
C666 C674 1.378 . S
C667 C666 1.367 . S
C667 C675 1.433 . S
C668 H664 0.929 . S
C668 C670 1.378 . S
C668 C672 1.350 . S
C669 C672 1.463 . S
C669 C674 1.350 . S
C669 N677 1.427 . S
C670 H661 0.930 . S
C670 C668 1.378 . S
C670 C671 1.367 . S
C671 C670 1.367 . S
C671 C673 1.433 . S
C672 C668 1.350 . S
C672 C669 1.463 . S
C672 N676 1.427 . S
C673 H663 0.929 . S
C673 C671 1.433 . S
C673 N676 1.384 . S
C674 H665 0.929 . S
C674 C666 1.378 . S
C674 C669 1.350 . S
C675 H662 0.929 . S
C675 C667 1.433 . S
C675 N677 1.384 . S
N676 C672 1.427 . S
N676 C673 1.384 . S
N677 C669 1.427 . S
N677 C675 1.384 . S
H678 C684 0.930 . S
H679 C688 0.930 . S
H680 C693 0.929 . S
H681 C691 0.929 . S
H682 C686 0.929 . S
H683 C692 0.929 . S
C684 H678 0.930 . S
C684 C685 1.367 . S
C684 C692 1.378 . S
C685 C684 1.367 . S
C685 C693 1.433 . S
C686 H682 0.929 . S
C686 C688 1.378 . S
C686 C690 1.350 . S
C687 C690 1.463 . S
C687 C692 1.350 . S
C687 N695 1.427 . S
C688 H679 0.930 . S
C688 C686 1.378 . S
C688 C689 1.367 . S
C689 C688 1.367 . S
C689 C691 1.433 . S
C690 C686 1.350 . S
C690 C687 1.463 . S
C690 N694 1.427 . S
C691 H681 0.929 . S
C691 C689 1.433 . S
C691 N694 1.384 . S
C692 H683 0.929 . S
C692 C684 1.378 . S
C692 C687 1.350 . S
C693 H680 0.929 . S
C693 C685 1.433 . S
C693 N695 1.384 . S
N694 C690 1.427 . S
N694 C691 1.384 . S
N695 C687 1.427 . S
N695 C693 1.384 . S
H696 C702 0.930 . S
H697 C706 0.930 . S
H698 C711 0.929 . S
H699 C709 0.929 1_554 S
H700 C704 0.929 . S
H701 C710 0.929 . S
C702 H696 0.930 . S
C702 C703 1.367 1_455 S
C702 C710 1.378 . S
C703 C702 1.367 1_655 S
C703 C711 1.433 1_554 S
C704 H700 0.929 . S
C704 C706 1.378 . S
C704 C708 1.350 . S
C705 C708 1.463 1_554 S
C705 C710 1.350 . S
C705 N713 1.427 1_554 S
C706 H697 0.930 . S
C706 C704 1.378 . S
C706 C707 1.367 . S
C707 C706 1.367 . S
C707 C709 1.433 . S
C708 C704 1.350 . S
C708 C705 1.463 1_556 S
C708 N712 1.427 1_556 S
C709 H699 0.929 1_556 S
C709 C707 1.433 . S
C709 N712 1.384 1_556 S
C710 H701 0.929 . S
C710 C702 1.378 . S
C710 C705 1.350 . S
C711 H698 0.929 . S
C711 C703 1.433 1_556 S
C711 N713 1.384 1_655 S
N712 C708 1.427 1_554 S
N712 C709 1.384 1_554 S
N713 C705 1.427 1_556 S
N713 C711 1.384 1_455 S
H714 C720 0.930 . S
H715 C724 0.930 1_554 S
H716 C729 0.929 . S
H717 C727 0.929 . S
H718 C722 0.929 . S
H719 C728 0.923 1_565 S
C720 H714 0.930 . S
C720 C721 1.367 1_556 S
C720 C728 1.367 1_565 S
C721 C720 1.367 1_554 S
C721 C729 1.433 1_565 S
C722 H718 0.929 . S
C722 C724 1.378 1_554 S
C722 C726 1.350 1_554 S
C723 C726 1.463 1_554 S
C723 C728 1.368 1_554 S
C723 N731 1.427 . S
C724 H715 0.930 1_556 S
C724 C722 1.378 1_556 S
C724 C725 1.367 . S
C725 C724 1.367 . S
C725 C727 1.433 . S
C726 C722 1.350 1_556 S
C726 C723 1.463 1_556 S
C726 N730 1.427 . S
C727 H717 0.929 . S
C727 C725 1.433 . S
C727 N730 1.384 . S
C728 H719 0.923 1_545 S
C728 C720 1.367 1_545 S
C728 C723 1.368 1_556 S
C729 H716 0.929 . S
C729 C721 1.433 1_545 S
C729 N731 1.384 . S
N730 C726 1.427 . S
N730 C727 1.384 . S
N731 C723 1.427 . S
N731 C729 1.384 . S
H732 C738 0.930 . S
H733 C742 0.930 . S
H734 C747 0.929 . S
H735 C745 0.929 . S
H736 C740 0.929 1_554 S
H737 C746 0.929 . S
C738 H732 0.930 . S
C738 C739 1.367 . S
C738 C746 1.378 1_554 S
C739 C738 1.367 . S
C739 C747 1.433 . S
C740 H736 0.929 1_556 S
C740 C742 1.378 . S
C740 C744 1.350 . S
C741 C744 1.463 1_554 S
C741 C746 1.350 1_554 S
C741 N749 1.427 . S
C742 H733 0.930 . S
C742 C740 1.378 . S
C742 C743 1.367 . S
C743 C742 1.367 . S
C743 C745 1.433 . S
C744 C740 1.350 . S
C744 C741 1.463 1_556 S
C744 N748 1.427 . S
C745 H735 0.929 . S
C745 C743 1.433 . S
C745 N748 1.384 . S
C746 H737 0.929 . S
C746 C738 1.378 1_556 S
C746 C741 1.350 1_556 S
C747 H734 0.929 . S
C747 C739 1.433 . S
C747 N749 1.384 . S
N748 C744 1.427 . S
N748 C745 1.384 . S
N749 C741 1.427 . S
N749 C747 1.384 . S
H750 C756 0.930 . S
H751 C760 0.930 . S
H752 C765 0.929 . S
H753 C763 0.929 1_554 S
H754 C758 0.929 . S
H755 C764 0.929 . S
C756 H750 0.930 . S
C756 C757 1.367 . S
C756 C764 1.378 . S
C757 C756 1.367 . S
C757 C765 1.433 1_554 S
C758 H754 0.929 . S
C758 C760 1.378 . S
C758 C762 1.350 . S
C759 C762 1.463 1_554 S
C759 C764 1.350 . S
C759 N767 1.427 1_554 S
C760 H751 0.930 . S
C760 C758 1.378 . S
C760 C761 1.367 . S
C761 C760 1.367 . S
C761 C763 1.433 . S
C762 C758 1.350 . S
C762 C759 1.463 1_556 S
C762 N766 1.427 1_556 S
C763 H753 0.929 1_556 S
C763 C761 1.433 . S
C763 N766 1.384 1_556 S
C764 H755 0.929 . S
C764 C756 1.378 . S
C764 C759 1.350 . S
C765 H752 0.929 . S
C765 C757 1.433 1_556 S
C765 N767 1.384 . S
N766 C762 1.427 1_554 S
N766 C763 1.384 1_554 S
N767 C759 1.427 1_556 S
N767 C765 1.384 . S
H768 C774 0.930 . S
H769 C778 0.930 . S
H770 C783 0.929 . S
H771 C781 0.929 . S
H772 C776 0.929 . S
H773 C782 0.929 . S
C774 H768 0.930 . S
C774 C775 1.367 . S
C774 C782 1.378 . S
C775 C774 1.367 . S
C775 C783 1.433 1_455 S
C776 H772 0.929 . S
C776 C778 1.378 . S
C776 C780 1.350 1_655 S
C777 C780 1.463 . S
C777 C782 1.350 . S
C777 N785 1.427 1_455 S
C778 H769 0.930 . S
C778 C776 1.378 . S
C778 C779 1.367 1_655 S
C779 C778 1.367 1_455 S
C779 C781 1.433 . S
C780 C776 1.350 1_455 S
C780 C777 1.463 . S
C780 N784 1.427 . S
C781 H771 0.929 . S
C781 C779 1.433 . S
C781 N784 1.384 . S
C782 H773 0.929 . S
C782 C774 1.378 . S
C782 C777 1.350 . S
C783 H770 0.929 . S
C783 C775 1.433 1_655 S
C783 N785 1.384 . S
N784 C780 1.427 . S
N784 C781 1.384 . S
N785 C777 1.427 1_655 S
N785 C783 1.384 . S
H786 C792 0.930 . S
H787 C796 0.930 . S
H788 C801 0.929 . S
H789 C799 0.929 . S
H790 C794 0.929 . S
H791 C800 0.929 . S
C792 H786 0.930 . S
C792 C793 1.367 1_565 S
C792 C800 1.378 . S
C793 C792 1.367 1_545 S
C793 C801 1.433 . S
C794 H790 0.929 . S
C794 C796 1.378 . S
C794 C798 1.350 . S
C795 C798 1.463 . S
C795 C800 1.350 1_545 S
C795 N803 1.427 . S
C796 H787 0.930 . S
C796 C794 1.378 . S
C796 C797 1.367 . S
C797 C796 1.367 . S
C797 C799 1.433 1_545 S
C798 C794 1.350 . S
C798 C795 1.463 . S
C798 N802 1.427 1_545 S
C799 H789 0.929 . S
C799 C797 1.433 1_565 S
C799 N802 1.384 . S
C800 H791 0.929 . S
C800 C792 1.378 . S
C800 C795 1.350 1_565 S
C801 H788 0.929 . S
C801 C793 1.433 . S
C801 N803 1.384 . S
N802 C798 1.427 1_565 S
N802 C799 1.384 . S
N803 C795 1.427 . S
N803 C801 1.384 . S
H804 C810 0.930 . S
H805 C814 0.930 . S
H806 C819 0.929 . S
H807 C817 0.929 . S
H808 C812 0.929 . S
H809 C818 0.929 . S
C810 H804 0.930 . S
C810 C811 1.367 . S
C810 C818 1.378 . S
C811 C810 1.367 . S
C811 C819 1.433 . S
C812 H808 0.929 . S
C812 C814 1.378 . S
C812 C816 1.350 . S
C813 C816 1.463 . S
C813 C818 1.350 . S
C813 N821 1.427 . S
C814 H805 0.930 . S
C814 C812 1.378 . S
C814 C815 1.367 . S
C815 C814 1.367 . S
C815 C817 1.433 . S
C816 C812 1.350 . S
C816 C813 1.463 . S
C816 N820 1.427 . S
C817 H807 0.929 . S
C817 C815 1.433 . S
C817 N820 1.384 . S
C818 H809 0.929 . S
C818 C810 1.378 . S
C818 C813 1.350 . S
C819 H806 0.929 . S
C819 C811 1.433 . S
C819 N821 1.384 . S
N820 C816 1.427 . S
N820 C817 1.384 . S
N821 C813 1.427 . S
N821 C819 1.384 . S
H822 C828 0.930 . S
H823 C832 0.930 . S
H824 C837 0.929 . S
H825 C835 0.929 . S
H826 C830 0.929 . S
H827 C836 0.929 . S
C828 H822 0.930 . S
C828 C829 1.367 . S
C828 C836 1.378 . S
C829 C828 1.367 . S
C829 C837 1.433 . S
C830 H826 0.929 . S
C830 C832 1.378 . S
C830 C834 1.350 . S
C831 C834 1.463 . S
C831 C836 1.350 . S
C831 N839 1.427 . S
C832 H823 0.930 . S
C832 C830 1.378 . S
C832 C833 1.367 . S
C833 C832 1.367 . S
C833 C835 1.433 . S
C834 C830 1.350 . S
C834 C831 1.463 . S
C834 N838 1.427 . S
C835 H825 0.929 . S
C835 C833 1.433 . S
C835 N838 1.384 . S
C836 H827 0.929 . S
C836 C828 1.378 . S
C836 C831 1.350 . S
C837 H824 0.929 . S
C837 C829 1.433 . S
C837 N839 1.384 . S
N838 C834 1.427 . S
N838 C835 1.384 . S
N839 C831 1.427 . S
N839 C837 1.384 . S
H840 C846 0.930 1_455 S
H841 C850 0.930 . S
H842 C855 0.929 . S
H843 C853 0.929 . S
H844 C848 0.929 . S
H845 C854 0.928 1_455 S
C846 H840 0.930 1_655 S
C846 C847 1.367 . S
C846 C854 1.378 . S
C847 C846 1.367 . S
C847 C855 1.433 . S
C848 H844 0.929 . S
C848 C850 1.378 . S
C848 C852 1.350 . S
C849 C852 1.463 . S
C849 C854 1.350 . S
C849 N857 1.427 . S
C850 H841 0.930 . S
C850 C848 1.378 . S
C850 C851 1.367 . S
C851 C850 1.367 . S
C851 C853 1.433 . S
C852 C848 1.350 . S
C852 C849 1.463 . S
C852 N856 1.427 . S
C853 H843 0.929 . S
C853 C851 1.433 . S
C853 N856 1.384 . S
C854 H845 0.928 1_655 S
C854 C846 1.378 . S
C854 C849 1.350 . S
C855 H842 0.929 . S
C855 C847 1.433 . S
C855 N857 1.384 . S
N856 C852 1.427 . S
N856 C853 1.384 . S
N857 C849 1.427 . S
N857 C855 1.384 . S
H858 C864 0.930 . S
H859 C868 0.930 . S
H860 C873 0.929 . S
H861 C871 0.929 . S
H862 C866 0.929 . S
H863 C872 0.929 . S
C864 H858 0.930 . S
C864 C865 1.367 1_545 S
C864 C872 1.378 . S
C865 C864 1.367 1_565 S
C865 C873 1.433 . S
C866 H862 0.929 . S
C866 C868 1.378 . S
C866 C870 1.350 . S
C867 C870 1.463 . S
C867 C872 1.350 1_565 S
C867 N875 1.427 . S
C868 H859 0.930 . S
C868 C866 1.378 . S
C868 C869 1.367 . S
C869 C868 1.367 . S
C869 C871 1.433 1_565 S
C870 C866 1.350 . S
C870 C867 1.463 . S
C870 N874 1.427 1_565 S
C871 H861 0.929 . S
C871 C869 1.433 1_545 S
C871 N874 1.384 . S
C872 H863 0.929 . S
C872 C864 1.378 . S
C872 C867 1.350 1_545 S
C873 H860 0.929 . S
C873 C865 1.433 . S
C873 N875 1.384 . S
N874 C870 1.427 1_545 S
N874 C871 1.384 . S
N875 C867 1.427 . S
N875 C873 1.384 . S
H876 C882 0.930 . S
H877 C886 0.930 . S
H878 C891 0.929 . S
H879 C889 0.929 . S
H880 C884 0.929 . S
H881 C890 0.929 . S
C882 H876 0.930 . S
C882 C883 1.367 . S
C882 C890 1.378 . S
C883 C882 1.367 . S
C883 C891 1.433 . S
C884 H880 0.929 . S
C884 C886 1.378 . S
C884 C888 1.350 . S
C885 C888 1.463 . S
C885 C890 1.350 . S
C885 N893 1.427 . S
C886 H877 0.930 . S
C886 C884 1.378 . S
C886 C887 1.367 . S
C887 C886 1.367 . S
C887 C889 1.433 . S
C888 C884 1.350 . S
C888 C885 1.463 . S
C888 N892 1.427 . S
C889 H879 0.929 . S
C889 C887 1.433 . S
C889 N892 1.384 . S
C890 H881 0.929 . S
C890 C882 1.378 . S
C890 C885 1.350 . S
C891 H878 0.929 . S
C891 C883 1.433 . S
C891 N893 1.384 . S
N892 C888 1.427 . S
N892 C889 1.384 . S
N893 C885 1.427 . S
N893 C891 1.384 . S
H894 C900 0.930 . S
H895 C904 0.930 . S
H896 C909 0.929 . S
H897 C907 0.929 . S
H898 C902 0.929 . S
H899 C908 0.929 . S
C900 H894 0.930 . S
C900 C901 1.367 . S
C900 C908 1.378 . S
C901 C900 1.367 . S
C901 C909 1.433 . S
C902 H898 0.929 . S
C902 C904 1.378 . S
C902 C906 1.350 . S
C903 C906 1.463 . S
C903 C908 1.350 . S
C903 N911 1.427 . S
C904 H895 0.930 . S
C904 C902 1.378 . S
C904 C905 1.367 . S
C905 C904 1.367 . S
C905 C907 1.433 . S
C906 C902 1.350 . S
C906 C903 1.463 . S
C906 N910 1.427 . S
C907 H897 0.929 . S
C907 C905 1.433 . S
C907 N910 1.384 . S
C908 H899 0.929 . S
C908 C900 1.378 . S
C908 C903 1.350 . S
C909 H896 0.929 . S
C909 C901 1.433 . S
C909 N911 1.384 . S
N910 C906 1.427 . S
N910 C907 1.384 . S
N911 C903 1.427 . S
N911 C909 1.384 . S
C487 C255 2.273 . S
C491 C322 2.472 1_545 S
C509 C362 2.484 . S
C505 C295 2.283 . S
C527 C402 2.486 . S
C523 C175 2.280 . S
C545 C442 2.479 1_455 S
C541 C215 2.273 1_655 S
C563 C335 2.478 1_565 S
C559 C95 2.283 . S
C577 C135 2.282 . S
C581 C375 2.486 . S
C595 C15 2.281 . S
C599 C415 2.483 . S
C613 C55 2.270 1_655 S
C617 C455 2.475 1_655 S
C635 C346 0.360 . S
C631 C221 0.401 . S
C653 C386 0.365 . S
C649 C261 0.408 . S
C671 C426 0.368 . S
C667 C301 0.412 . S
C685 C181 0.398 . S
C689 C466 0.376 . S
C703 C61 0.465 1_655 S
C707 C329 0.370 . S
C725 C369 0.382 . S
C721 C101 0.502 1_565 S
C743 C409 0.388 . S
C739 C141 0.504 . S
C757 C21 0.453 . S
C761 C449 0.365 . S
C775 C202 3.139 . S
C779 C323 3.479 . S
C793 C242 3.121 . S
C797 C363 3.471 . S
C815 C403 3.464 . S
C811 C282 3.113 . S
C833 C443 3.480 . S
C829 C162 3.124 . S
C847 C42 3.142 1_655 S
C851 C342 3.489 . S
C869 C382 3.472 . S
C865 C82 3.134 1_565 S
C887 C422 3.464 . S
C883 C122 3.125 . S
C901 C2 3.138 . S
C905 C462 3.482 . S
