# Generated by pormake.
# Topology ctn, (3,4)-cn, num edge types: 1
# Building blocks:
#     Node 0, Type 0, BuildingBlock: WUSLED_clean_sbu_0, # of connection points: 3
#     Node 1, Type 0, BuildingBlock: WUSLED_clean_sbu_0, # of connection points: 3
#     Node 2, Type 0, BuildingBlock: WUSLED_clean_sbu_0, # of connection points: 3
#     Node 3, Type 0, BuildingBlock: WUSLED_clean_sbu_0, # of connection points: 3
#     Node 4, Type 0, BuildingBlock: WUSLED_clean_sbu_0, # of connection points: 3
#     Node 5, Type 0, BuildingBlock: WUSLED_clean_sbu_0, # of connection points: 3
#     Node 6, Type 0, BuildingBlock: WUSLED_clean_sbu_0, # of connection points: 3
#     Node 7, Type 0, BuildingBlock: WUSLED_clean_sbu_0, # of connection points: 3
#     Node 8, Type 0, BuildingBlock: WUSLED_clean_sbu_0, # of connection points: 3
#     Node 9, Type 0, BuildingBlock: WUSLED_clean_sbu_0, # of connection points: 3
#     Node 10, Type 0, BuildingBlock: WUSLED_clean_sbu_0, # of connection points: 3
#     Node 11, Type 0, BuildingBlock: WUSLED_clean_sbu_0, # of connection points: 3
#     Node 12, Type 0, BuildingBlock: WUSLED_clean_sbu_0, # of connection points: 3
#     Node 13, Type 0, BuildingBlock: WUSLED_clean_sbu_0, # of connection points: 3
#     Node 14, Type 0, BuildingBlock: WUSLED_clean_sbu_0, # of connection points: 3
#     Node 15, Type 0, BuildingBlock: WUSLED_clean_sbu_0, # of connection points: 3
#     Node 16, Type 1, BuildingBlock: UXUYUI_clean_sbu_0, # of connection points: 4
#     Node 17, Type 1, BuildingBlock: UXUYUI_clean_sbu_0, # of connection points: 4
#     Node 18, Type 1, BuildingBlock: UXUYUI_clean_sbu_0, # of connection points: 4
#     Node 19, Type 1, BuildingBlock: UXUYUI_clean_sbu_0, # of connection points: 4
#     Node 20, Type 1, BuildingBlock: UXUYUI_clean_sbu_0, # of connection points: 4
#     Node 21, Type 1, BuildingBlock: UXUYUI_clean_sbu_0, # of connection points: 4
#     Node 22, Type 1, BuildingBlock: UXUYUI_clean_sbu_0, # of connection points: 4
#     Node 23, Type 1, BuildingBlock: UXUYUI_clean_sbu_0, # of connection points: 4
#     Node 24, Type 1, BuildingBlock: UXUYUI_clean_sbu_0, # of connection points: 4
#     Node 25, Type 1, BuildingBlock: UXUYUI_clean_sbu_0, # of connection points: 4
#     Node 26, Type 1, BuildingBlock: UXUYUI_clean_sbu_0, # of connection points: 4
#     Node 27, Type 1, BuildingBlock: UXUYUI_clean_sbu_0, # of connection points: 4
#     Edge 28, Type (0, 1), BuildingBlock: XIVTED_clean_linker_0, # of connection points: 2
#     Edge 29, Type (0, 1), BuildingBlock: XIVTED_clean_linker_0, # of connection points: 2
#     Edge 30, Type (0, 1), BuildingBlock: XIVTED_clean_linker_0, # of connection points: 2
#     Edge 31, Type (0, 1), BuildingBlock: XIVTED_clean_linker_0, # of connection points: 2
#     Edge 32, Type (0, 1), BuildingBlock: XIVTED_clean_linker_0, # of connection points: 2
#     Edge 33, Type (0, 1), BuildingBlock: XIVTED_clean_linker_0, # of connection points: 2
#     Edge 34, Type (0, 1), BuildingBlock: XIVTED_clean_linker_0, # of connection points: 2
#     Edge 35, Type (0, 1), BuildingBlock: XIVTED_clean_linker_0, # of connection points: 2
#     Edge 36, Type (0, 1), BuildingBlock: XIVTED_clean_linker_0, # of connection points: 2
#     Edge 37, Type (0, 1), BuildingBlock: XIVTED_clean_linker_0, # of connection points: 2
#     Edge 38, Type (0, 1), BuildingBlock: XIVTED_clean_linker_0, # of connection points: 2
#     Edge 39, Type (0, 1), BuildingBlock: XIVTED_clean_linker_0, # of connection points: 2
#     Edge 40, Type (0, 1), BuildingBlock: XIVTED_clean_linker_0, # of connection points: 2
#     Edge 41, Type (0, 1), BuildingBlock: XIVTED_clean_linker_0, # of connection points: 2
#     Edge 42, Type (0, 1), BuildingBlock: XIVTED_clean_linker_0, # of connection points: 2
#     Edge 43, Type (0, 1), BuildingBlock: XIVTED_clean_linker_0, # of connection points: 2
#     Edge 44, Type (0, 1), BuildingBlock: XIVTED_clean_linker_0, # of connection points: 2
#     Edge 45, Type (0, 1), BuildingBlock: XIVTED_clean_linker_0, # of connection points: 2
#     Edge 46, Type (0, 1), BuildingBlock: XIVTED_clean_linker_0, # of connection points: 2
#     Edge 47, Type (0, 1), BuildingBlock: XIVTED_clean_linker_0, # of connection points: 2
#     Edge 48, Type (0, 1), BuildingBlock: XIVTED_clean_linker_0, # of connection points: 2
#     Edge 49, Type (0, 1), BuildingBlock: XIVTED_clean_linker_0, # of connection points: 2
#     Edge 50, Type (0, 1), BuildingBlock: XIVTED_clean_linker_0, # of connection points: 2
#     Edge 51, Type (0, 1), BuildingBlock: XIVTED_clean_linker_0, # of connection points: 2
#     Edge 52, Type (0, 1), BuildingBlock: XIVTED_clean_linker_0, # of connection points: 2
#     Edge 53, Type (0, 1), BuildingBlock: XIVTED_clean_linker_0, # of connection points: 2
#     Edge 54, Type (0, 1), BuildingBlock: XIVTED_clean_linker_0, # of connection points: 2
#     Edge 55, Type (0, 1), BuildingBlock: XIVTED_clean_linker_0, # of connection points: 2
#     Edge 56, Type (0, 1), BuildingBlock: XIVTED_clean_linker_0, # of connection points: 2
#     Edge 57, Type (0, 1), BuildingBlock: XIVTED_clean_linker_0, # of connection points: 2
#     Edge 58, Type (0, 1), BuildingBlock: XIVTED_clean_linker_0, # of connection points: 2
#     Edge 59, Type (0, 1), BuildingBlock: XIVTED_clean_linker_0, # of connection points: 2
#     Edge 60, Type (0, 1), BuildingBlock: XIVTED_clean_linker_0, # of connection points: 2
#     Edge 61, Type (0, 1), BuildingBlock: XIVTED_clean_linker_0, # of connection points: 2
#     Edge 62, Type (0, 1), BuildingBlock: XIVTED_clean_linker_0, # of connection points: 2
#     Edge 63, Type (0, 1), BuildingBlock: XIVTED_clean_linker_0, # of connection points: 2
#     Edge 64, Type (0, 1), BuildingBlock: XIVTED_clean_linker_0, # of connection points: 2
#     Edge 65, Type (0, 1), BuildingBlock: XIVTED_clean_linker_0, # of connection points: 2
#     Edge 66, Type (0, 1), BuildingBlock: XIVTED_clean_linker_0, # of connection points: 2
#     Edge 67, Type (0, 1), BuildingBlock: XIVTED_clean_linker_0, # of connection points: 2
#     Edge 68, Type (0, 1), BuildingBlock: XIVTED_clean_linker_0, # of connection points: 2
#     Edge 69, Type (0, 1), BuildingBlock: XIVTED_clean_linker_0, # of connection points: 2
#     Edge 70, Type (0, 1), BuildingBlock: XIVTED_clean_linker_0, # of connection points: 2
#     Edge 71, Type (0, 1), BuildingBlock: XIVTED_clean_linker_0, # of connection points: 2
#     Edge 72, Type (0, 1), BuildingBlock: XIVTED_clean_linker_0, # of connection points: 2
#     Edge 73, Type (0, 1), BuildingBlock: XIVTED_clean_linker_0, # of connection points: 2
#     Edge 74, Type (0, 1), BuildingBlock: XIVTED_clean_linker_0, # of connection points: 2
#     Edge 75, Type (0, 1), BuildingBlock: XIVTED_clean_linker_0, # of connection points: 2
# Relax obj value: 0.001
# Max RMSD: 0.015
# Mean RMSD: 0.010
data_MOF--net-ctn--node1-WUSLED_clean_sbu_0--node2-UXUYUI_clean_sbu_0--edge1-XIVTED_clean_linker_0
_symmetry_space_group_name_H-M    P1
_symmetry_Int_Tables_number       1
_symmetry_cell_setting            triclinic
loop_
_symmetry_equiv_pos_as_xyz
'x, y, z'
_cell_length_a     84.198188
_cell_length_b     84.574541
_cell_length_c     84.426011
_cell_angle_alpha  90.616389
_cell_angle_beta   90.022924
_cell_angle_gamma 89.994501
loop_
_atom_site_label
_atom_site_type_symbol
_atom_site_fract_x
_atom_site_fract_y
_atom_site_fract_z
_atom_type_partial_charge
C0 C 0.01638 0.05683 0.08133 0.0
C1 C 0.02252 0.04665 0.09284 0.0
C2 C 0.99769 0.04827 0.10774 0.0
C3 C 0.01328 0.04244 0.10596 0.0
C4 C 0.99162 0.05841 0.09608 0.0
C5 C 1.00088 0.06263 0.08304 0.0
U6 U 0.05188 0.0523 0.05295 0.0
O7 O 0.05266 0.05496 0.02702 0.0
O8 O 0.06688 0.07062 0.04229 0.0
C9 C 0.06196 0.06742 0.02782 0.0
C10 C 0.02587 0.06166 0.06753 0.0
C11 C 0.05703 0.08109 0.01829 0.0
C12 C 0.04246 0.10573 0.01511 0.0
C13 C 0.04665 0.09267 0.02433 0.0
C14 C 0.05879 0.09564 0.99367 0.0
C15 C 0.04851 0.10739 0.99966 0.0
C16 C 0.063 0.08266 1.0029 0.0
C17 C 0.082 0.01862 0.0595 0.0
C18 C 0.10457 0.01294 0.04235 0.0
C19 C 0.10035 0.99746 0.06595 0.0
C20 C 0.08679 1.00637 0.06946 0.0
C21 C 0.10947 1.00063 0.05237 0.0
C22 C 0.09096 0.02188 0.0459 0.0
C23 C 0.06762 0.02772 0.06356 0.0
O24 O 0.04002 0.06749 0.07066 0.0
O25 O 0.02583 0.05179 0.0554 0.0
O26 O 0.05576 0.02658 0.05349 0.0
O27 O 0.06997 0.04224 0.06876 0.0
H28 H 0.03446 0.04198 0.09169 0.0
H29 H 0.01827 0.03448 0.1146 0.0
H30 H 0.97979 0.06331 0.09716 0.0
H31 H 0.99594 0.07053 0.0743 0.0
H32 H 0.03438 0.11444 0.02003 0.0
H33 H 0.04183 0.09163 0.03618 0.0
H34 H 0.06385 0.09661 0.98193 0.0
H35 H 0.07106 0.07386 0.99805 0.0
H36 H 0.11137 0.01581 0.03189 0.0
H37 H 0.10357 0.98794 0.0738 0.0
H38 H 0.07998 1.00364 0.07997 0.0
H39 H 0.08745 0.03133 0.03808 0.0
C40 C 0.28435 0.74319 0.18731 0.0
C41 C 0.29638 0.7546 0.18613 0.0
C42 C 0.28278 0.76661 0.16368 0.0
C43 C 0.29562 0.76621 0.17439 0.0
C44 C 0.27082 0.75507 0.16496 0.0
C45 C 0.27161 0.7435 0.17664 0.0
U46 U 0.30247 0.72266 0.22371 0.0
O47 O 0.29014 0.71222 0.24413 0.0
O48 O 0.30473 0.69725 0.22853 0.0
C49 C 0.29448 0.69775 0.24028 0.0
C50 C 0.28473 0.73085 0.19949 0.0
C51 C 0.28178 0.68555 0.24027 0.0
C52 C 0.26903 0.66219 0.22883 0.0
C53 C 0.28044 0.6742 0.22803 0.0
C54 C 0.25985 0.67274 0.25395 0.0
C55 C 0.25865 0.66124 0.24184 0.0
C56 C 0.27132 0.68469 0.2532 0.0
C57 C 0.34076 0.73905 0.24292 0.0
C58 C 0.35201 0.73049 0.26798 0.0
C59 C 0.36692 0.74811 0.25114 0.0
C60 C 0.35451 0.74792 0.24014 0.0
C61 C 0.36586 0.7394 0.26522 0.0
C62 C 0.33958 0.73028 0.2569 0.0
C63 C 0.32788 0.73926 0.23109 0.0
O64 O 0.2964 0.72059 0.19841 0.0
O65 O 0.28202 0.73565 0.2141 0.0
O66 O 0.3136 0.7426 0.23646 0.0
O67 O 0.32796 0.72763 0.22064 0.0
H68 H 0.30631 0.75455 0.1943 0.0
H69 H 0.30496 0.77498 0.17386 0.0
H70 H 0.26091 0.75481 0.15678 0.0
H71 H 0.26224 0.73475 0.17733 0.0
H72 H 0.26832 0.65363 0.21921 0.0
H73 H 0.28831 0.67446 0.2179 0.0
H74 H 0.25219 0.67227 0.26424 0.0
H75 H 0.27218 0.69315 0.26289 0.0
H76 H 0.35085 0.72353 0.27861 0.0
H77 H 0.37727 0.75529 0.24872 0.0
H78 H 0.35562 0.7548 0.22944 0.0
H79 H 0.32907 0.72329 0.25923 0.0
C80 C 0.9688 0.44336 0.01686 0.0
C81 C 0.98052 0.43302 0.02245 0.0
C82 C 0.97773 0.41652 0.99867 0.0
C83 C 0.98494 0.41969 0.01344 0.0
C84 C 0.96602 0.427 0.99318 0.0
C85 C 0.96162 0.44026 1.00219 0.0
U86 U 0.97275 0.47264 0.05189 0.0
O87 O 0.96946 0.49845 0.05243 0.0
O88 O 0.95395 0.48335 0.06664 0.0
C89 C 0.95668 0.49767 0.06136 0.0
C90 C 0.96372 0.45732 0.02614 0.0
C91 C 0.94257 0.50686 0.05621 0.0
C92 C 0.91532 0.51546 0.06098 0.0
C93 C 0.92846 0.5062 0.06507 0.0
C94 C 0.9301 0.52634 0.03909 0.0
C95 C 0.916 0.52574 0.04801 0.0
C96 C 0.94323 0.51702 0.04313 0.0
C97 C 1.00673 0.46705 0.0821 0.0
C98 C 0.01159 0.484 0.10508 0.0
C99 C 0.02865 0.46147 0.09991 0.0
C100 C 0.01977 0.45775 0.08638 0.0
C101 C 0.02467 0.4746 0.10949 0.0
C102 C 1.00268 0.48024 0.0915 0.0
C103 C 0.99763 0.46269 0.0678 0.0
O104 O 0.95794 0.45447 0.04029 0.0
O105 O 0.97341 0.4695 0.02596 0.0
O106 O 0.99859 0.47253 0.05589 0.0
O107 O 0.98315 0.45743 0.07018 0.0
H108 H 0.98623 0.43525 0.03376 0.0
H109 H 0.99411 0.41198 0.01797 0.0
H110 H 0.96003 0.42483 0.98201 0.0
H111 H 0.9525 0.44808 0.99771 0.0
H112 H 0.90476 0.51485 0.06826 0.0
H113 H 0.92765 0.49868 0.07534 0.0
H114 H 0.931 0.534 0.02893 0.0
H115 H 0.95392 0.51794 0.03607 0.0
H116 H 1.0081 0.49411 0.11224 0.0
H117 H 0.03878 0.45413 0.10274 0.0
H118 H 0.02311 0.44757 0.07923 0.0
H119 H 0.99262 0.48756 0.08836 0.0
C120 C 0.71739 0.7668 0.19552 0.0
C121 C 0.73095 0.77043 0.1866 0.0
C122 C 0.7252 0.74856 0.16834 0.0
C123 C 0.73484 0.76137 0.17314 0.0
C124 C 0.71167 0.745 0.17742 0.0
C125 C 0.70782 0.75402 0.19085 0.0
U126 U 0.72307 0.80151 0.22486 0.0
O127 O 0.70499 0.81694 0.23582 0.0
O128 O 0.72003 0.80205 0.25075 0.0
C129 C 0.70784 0.81174 0.25015 0.0
C130 C 0.71288 0.77618 0.20962 0.0
C131 C 0.69377 0.80711 0.25939 0.0
C132 C 0.6729 0.78837 0.26593 0.0
C133 C 0.68624 0.79248 0.25692 0.0
C134 C 0.67445 0.81349 0.27987 0.0
C135 C 0.66681 0.79885 0.27751 0.0
C136 C 0.68778 0.81756 0.27091 0.0
C137 C 0.75775 0.83065 0.21899 0.0
C138 C 0.76214 0.85445 0.23487 0.0
C139 C 0.78074 0.84728 0.21413 0.0
C140 C 0.77167 0.83386 0.21054 0.0
C141 C 0.77606 0.85783 0.22627 0.0
C142 C 0.75305 0.84098 0.23124 0.0
C143 C 0.74831 0.8166 0.21462 0.0
O144 O 0.72277 0.77564 0.22165 0.0
O145 O 0.70755 0.79049 0.20688 0.0
O146 O 0.73386 0.81935 0.20944 0.0
O147 O 0.74903 0.80467 0.22444 0.0
H148 H 0.73845 0.7803 0.19002 0.0
H149 H 0.74525 0.76455 0.16635 0.0
H150 H 0.70411 0.73509 0.17426 0.0
H151 H 0.69734 0.75101 0.19762 0.0
H152 H 0.66722 0.77707 0.26368 0.0
H153 H 0.69066 0.78427 0.24802 0.0
H154 H 0.67027 0.82176 0.28882 0.0
H155 H 0.69346 0.82888 0.27301 0.0
H156 H 0.7581 0.86236 0.2442 0.0
H157 H 0.79151 0.84931 0.20744 0.0
H158 H 0.77553 0.82599 0.20109 0.0
H159 H 0.74231 0.83868 0.23789 0.0
C160 C 0.01688 0.96789 0.44392 0.0
C161 C 0.02229 0.97967 0.43365 0.0
C162 C 0.99863 0.97636 0.41717 0.0
C163 C 0.01326 0.98385 0.42036 0.0
C164 C 0.99334 0.96455 0.42755 0.0
C165 C 1.00237 0.96038 0.44076 0.0
U166 U 0.05114 0.97313 0.4738 0.0
O167 O 0.05079 0.97021 0.49973 0.0
O168 O 0.06614 0.9551 0.48499 0.0
C169 C 0.06036 0.95794 0.49922 0.0
C170 C 0.02606 0.96323 0.45798 0.0
C171 C 0.05548 0.94408 0.50866 0.0
C172 C 0.04957 0.916 0.51122 0.0
C173 C 0.05318 0.92905 0.50175 0.0
C174 C 0.05013 0.93285 0.53455 0.0
C175 C 0.04816 0.91769 0.52778 0.0
C176 C 0.05379 0.94585 0.52511 0.0
C177 C 0.08057 1.00776 0.46946 0.0
C178 C 0.10616 1.01036 0.48267 0.0
C179 C 0.09479 0.03277 0.46912 0.0
C180 C 0.0816 0.0236 0.46489 0.0
C181 C 0.10729 0.02627 0.47801 0.0
C182 C 0.09289 1.0012 0.47848 0.0
C183 C 0.06667 0.99833 0.46443 0.0
O184 O 0.0405 0.95793 0.45532 0.0
O185 O 0.02524 0.97293 0.47022 0.0
O186 O 0.05425 0.99901 0.47384 0.0
O187 O 0.06961 0.98398 0.45906 0.0
H188 H 0.03345 0.98565 0.43594 0.0
H189 H 0.01762 0.99309 0.41273 0.0
H190 H 0.98229 0.95835 0.42535 0.0
H191 H 0.99803 0.95123 0.44853 0.0
H192 H 0.0483 0.90452 0.50557 0.0
H193 H 0.05441 0.92729 0.48909 0.0
H194 H 0.04884 0.93472 0.5472 0.0
H195 H 0.05549 0.95731 0.53072 0.0
H196 H 0.11547 1.00503 0.48967 0.0
H197 H 0.09533 0.04489 0.46513 0.0
H198 H 0.07223 0.02887 0.4579 0.0
H199 H 0.09229 0.989 0.48222 0.0
C200 C 0.21821 0.75803 0.83308 0.0
C201 C 0.23074 0.75336 0.84296 0.0
C202 C 0.226 0.77618 0.86033 0.0
C203 C 0.23461 0.76237 0.85646 0.0
C204 C 0.21355 0.7808 0.85024 0.0
C205 C 0.20971 0.77181 0.83678 0.0
U206 U 0.22369 0.72337 0.80362 0.0
O207 O 0.20553 0.70804 0.79266 0.0
O208 O 0.22053 0.72295 0.77774 0.0
C209 C 0.20832 0.7133 0.77834 0.0
C210 C 0.21364 0.74867 0.81898 0.0
C211 C 0.19421 0.71805 0.76921 0.0
C212 C 0.1728 0.73649 0.76359 0.0
C213 C 0.18621 0.73228 0.77246 0.0
C214 C 0.17526 0.71227 0.74822 0.0
C215 C 0.16712 0.72651 0.75137 0.0
C216 C 0.18865 0.70811 0.75705 0.0
C217 C 0.25833 0.69412 0.80912 0.0
C218 C 0.2623 0.67017 0.79336 0.0
C219 C 0.28154 0.67763 0.81342 0.0
C220 C 0.27254 0.69105 0.81716 0.0
C221 C 0.27651 0.66693 0.80155 0.0
C222 C 0.25328 0.68365 0.79713 0.0
C223 C 0.24896 0.70817 0.81365 0.0
O224 O 0.22348 0.74924 0.80691 0.0
O225 O 0.20831 0.73435 0.8217 0.0
O226 O 0.23454 0.70543 0.81889 0.0
O227 O 0.24966 0.72016 0.80389 0.0
H228 H 0.23743 0.74272 0.84028 0.0
H229 H 0.24417 0.75837 0.86402 0.0
H230 H 0.20684 0.79148 0.85265 0.0
H231 H 0.20005 0.77563 0.82925 0.0
H232 H 0.16674 0.74745 0.76646 0.0
H233 H 0.19031 0.74009 0.78186 0.0
H234 H 0.17141 0.70441 0.73876 0.0
H235 H 0.1947 0.6971 0.75434 0.0
H236 H 0.25799 0.66215 0.78426 0.0
H237 H 0.29253 0.67571 0.81978 0.0
H238 H 0.27667 0.69904 0.8264 0.0
H239 H 0.24232 0.68583 0.7908 0.0
C240 C 0.96898 0.58366 0.50783 0.0
C241 C 0.96085 0.598 0.50566 0.0
C242 C 0.97714 0.611 0.52585 0.0
C243 C 0.96491 0.6115 0.5145 0.0
C244 C 0.98538 0.59669 0.52791 0.0
C245 C 0.98132 0.58318 0.51906 0.0
U246 U 0.97211 0.55238 0.47417 0.0
O247 O 0.96873 0.52654 0.47509 0.0
O248 O 0.95322 0.54097 0.46015 0.0
C249 C 0.95596 0.52693 0.46612 0.0
C250 C 0.96374 0.56911 0.49925 0.0
C251 C 0.942 0.51792 0.47183 0.0
C252 C 0.9136 0.51555 0.47693 0.0
C253 C 0.92674 0.52467 0.47255 0.0
C254 C 0.93072 0.49285 0.4803 0.0
C255 C 0.9154 0.49949 0.48075 0.0
C256 C 0.94384 0.50194 0.47583 0.0
C257 C 1.00539 0.55669 0.44295 0.0
C258 C 0.01391 0.53679 0.4237 0.0
C259 C 0.02322 0.56378 0.42153 0.0
C260 C 0.01447 0.56799 0.43499 0.0
C261 C 0.0231 0.54812 0.4157 0.0
C262 C 1.00509 0.54105 0.43719 0.0
C263 C 0.99661 0.56158 0.45729 0.0
O264 O 0.95744 0.57107 0.48514 0.0
O265 O 0.97318 0.55673 0.49989 0.0
O266 O 0.99784 0.55228 0.46962 0.0
O267 O 0.98209 0.5668 0.45501 0.0
H268 H 0.95117 0.59875 0.49724 0.0
H269 H 0.95843 0.62234 0.51244 0.0
H270 H 0.9947 0.59578 0.5367 0.0
H271 H 0.98769 0.5723 0.52126 0.0
H272 H 0.902 0.52108 0.47733 0.0
H273 H 0.92488 0.53695 0.46956 0.0
H274 H 0.93253 0.48049 0.48298 0.0
H275 H 0.95542 0.49639 0.47523 0.0
H276 H 0.01341 0.52468 0.41946 0.0
H277 H 0.03032 0.57276 0.41585 0.0
H278 H 0.01489 0.5801 0.43928 0.0
H279 H 0.99809 0.53216 0.44314 0.0
C280 C 0.78623 0.78161 0.84099 0.0
C281 C 0.79282 0.7852 0.85591 0.0
C282 C 0.7846 0.75955 0.86607 0.0
C283 C 0.79207 0.7743 0.86826 0.0
C284 C 0.77815 0.7559 0.85109 0.0
C285 C 0.77891 0.7668 0.83873 0.0
U286 U 0.80287 0.80157 0.80342 0.0
O287 O 0.79007 0.81092 0.78274 0.0
O288 O 0.80452 0.8268 0.79758 0.0
C289 C 0.79443 0.82557 0.78574 0.0
C290 C 0.78596 0.79372 0.82832 0.0
C291 C 0.78172 0.83757 0.78519 0.0
C292 C 0.76188 0.85429 0.798 0.0
C293 C 0.77351 0.84245 0.79887 0.0
C294 C 0.76636 0.85627 0.76975 0.0
C295 C 0.75819 0.86138 0.78342 0.0
C296 C 0.778 0.84451 0.77065 0.0
C297 C 0.84086 0.78483 0.78401 0.0
C298 C 0.85353 0.79568 0.76061 0.0
C299 C 0.86432 0.77224 0.77285 0.0
C300 C 0.85236 0.77287 0.78431 0.0
C301 C 0.86505 0.7836 0.7608 0.0
C302 C 0.8415 0.79627 0.77211 0.0
C303 C 0.82835 0.78501 0.79621 0.0
O304 O 0.79721 0.80451 0.82875 0.0
O305 O 0.78277 0.78872 0.81386 0.0
O306 O 0.81401 0.78123 0.79132 0.0
O307 O 0.82849 0.79713 0.80608 0.0
H308 H 0.79838 0.79656 0.85815 0.0
H309 H 0.79734 0.77748 0.87956 0.0
H310 H 0.77209 0.74478 0.849 0.0
H311 H 0.77346 0.7637 0.8275 0.0
H312 H 0.7557 0.85782 0.80871 0.0
H313 H 0.77614 0.83719 0.81021 0.0
H314 H 0.76401 0.86158 0.75838 0.0
H315 H 0.78423 0.84093 0.75997 0.0
H316 H 0.85365 0.80453 0.75144 0.0
H317 H 0.87312 0.76294 0.77355 0.0
H318 H 0.85209 0.76397 0.79345 0.0
H319 H 0.83269 0.80559 0.77169 0.0
C320 C 0.28459 0.28119 0.33868 0.0
C321 C 0.2938 0.28254 0.35255 0.0
C322 C 0.28228 0.25826 0.36291 0.0
C323 C 0.29269 0.2712 0.36448 0.0
C324 C 0.27322 0.25682 0.34896 0.0
C325 C 0.27431 0.26816 0.33705 0.0
U326 U 0.30158 0.3022 0.30182 0.0
O327 O 0.28889 0.31289 0.28178 0.0
O328 O 0.30403 0.32762 0.29711 0.0
C329 C 0.29396 0.32722 0.28521 0.0
C330 C 0.28467 0.29383 0.32656 0.0
C331 C 0.28193 0.33987 0.28493 0.0
C332 C 0.26025 0.35481 0.29691 0.0
C333 C 0.27126 0.34235 0.29748 0.0
C334 C 0.2704 0.36221 0.27121 0.0
C335 C 0.25978 0.36499 0.2838 0.0
C336 C 0.28135 0.34982 0.27179 0.0
C337 C 0.33883 0.28552 0.28066 0.0
C338 C 0.36398 0.29512 0.27011 0.0
C339 C 0.35033 0.27357 0.25688 0.0
C340 C 0.33823 0.27435 0.26822 0.0
C341 C 0.36347 0.28383 0.25774 0.0
C342 C 0.35184 0.29594 0.28144 0.0
C343 C 0.32646 0.28538 0.29322 0.0
O344 O 0.29629 0.30422 0.3273 0.0
O345 O 0.28118 0.28952 0.31195 0.0
O346 O 0.31189 0.28206 0.28863 0.0
O347 O 0.32703 0.29672 0.304 0.0
H348 H 0.30166 0.29253 0.35437 0.0
H349 H 0.29968 0.27285 0.37514 0.0
H350 H 0.26522 0.24693 0.34722 0.0
H351 H 0.2669 0.26683 0.32663 0.0
H352 H 0.25233 0.35665 0.30687 0.0
H353 H 0.27154 0.33477 0.30774 0.0
H354 H 0.27021 0.36958 0.26079 0.0
H355 H 0.28944 0.34803 0.26195 0.0
H356 H 0.374 0.30307 0.27133 0.0
H357 H 0.34938 0.26486 0.24742 0.0
H358 H 0.32846 0.26605 0.26735 0.0
H359 H 0.35284 0.30457 0.29095 0.0
C360 C 0.46694 0.94089 0.52008 0.0
C361 C 0.48253 0.935 0.52057 0.0
C362 C 0.47512 0.9132 0.50282 0.0
C363 C 0.4866 0.92129 0.51198 0.0
C364 C 0.45951 0.91913 0.50255 0.0
C365 C 0.45549 0.93282 0.51108 0.0
U366 U 0.472 0.97293 0.55268 0.0
O367 O 0.46867 0.9987 0.55093 0.0
O368 O 0.45365 0.98495 0.56692 0.0
C369 C 0.45624 0.99874 0.56034 0.0
C370 C 0.46234 0.95555 0.52852 0.0
C371 C 0.44214 1.00771 0.55482 0.0
C372 C 0.41346 1.01108 0.55244 0.0
C373 C 0.42661 1.00187 0.55665 0.0
C374 C 0.43107 0.03205 0.54424 0.0
C375 C 0.4155 0.02637 0.54631 0.0
C376 C 0.44419 0.02287 0.54851 0.0
C377 C 0.50664 0.97042 0.58278 0.0
C378 C 0.5096 0.97588 0.61106 0.0
C379 C 0.53236 0.97797 0.59373 0.0
C380 C 0.52285 0.97373 0.58077 0.0
C381 C 0.52593 0.9789 0.6091 0.0
C382 C 0.50007 0.97169 0.59807 0.0
C383 C 0.49722 0.96468 0.56901 0.0
O384 O 0.45692 0.95384 0.54299 0.0
O385 O 0.47204 0.96764 0.52711 0.0
O386 O 0.49797 0.97321 0.5561 0.0
O387 O 0.48286 0.9593 0.5719 0.0
H388 H 0.49155 0.94103 0.52752 0.0
H389 H 0.49868 0.91697 0.5126 0.0
H390 H 0.45042 0.91338 0.49547 0.0
H391 H 0.44341 0.9372 0.51051 0.0
H392 H 0.40168 1.00636 0.5544 0.0
H393 H 0.42455 0.99029 0.56161 0.0
H394 H 0.43315 0.04364 0.53934 0.0
H395 H 0.456 0.02775 0.54705 0.0
H396 H 0.50424 0.97629 0.62272 0.0
H397 H 0.5448 0.98047 0.59168 0.0
H398 H 0.52824 0.9728 0.56915 0.0
H399 H 0.48763 0.96915 0.60007 0.0
C400 C 0.21861 0.26685 0.69573 0.0
C401 C 0.22996 0.27235 0.68492 0.0
C402 C 0.2271 0.24818 0.66905 0.0
C403 C 0.23414 0.26311 0.67167 0.0
C404 C 0.21578 0.24278 0.68 0.0
C405 C 0.21159 0.25203 0.69318 0.0
U406 U 0.22385 0.30172 0.72494 0.0
O407 O 0.20569 0.31719 0.73571 0.0
O408 O 0.2206 0.30233 0.7508 0.0
C409 C 0.20845 0.31206 0.75009 0.0
C410 C 0.21384 0.27635 0.70967 0.0
C411 C 0.19433 0.30754 0.7593 0.0
C412 C 0.17276 0.28938 0.76523 0.0
C413 C 0.18617 0.29336 0.75624 0.0
C414 C 0.17556 0.31372 0.78033 0.0
C415 C 0.16726 0.29955 0.77736 0.0
C416 C 0.18894 0.31766 0.77139 0.0
C417 C 0.25874 0.33067 0.71962 0.0
C418 C 0.26466 0.35262 0.73754 0.0
C419 C 0.28086 0.34825 0.71421 0.0
C420 C 0.27152 0.33517 0.71008 0.0
C421 C 0.27762 0.35713 0.72804 0.0
C422 C 0.25531 0.33949 0.73338 0.0
C423 C 0.24928 0.31671 0.715 0.0
O424 O 0.22349 0.27582 0.72189 0.0
O425 O 0.20859 0.29067 0.70678 0.0
O426 O 0.23491 0.31958 0.70968 0.0
O427 O 0.24981 0.30472 0.72477 0.0
H428 H 0.23556 0.28376 0.68673 0.0
H429 H 0.24301 0.26756 0.66358 0.0
H430 H 0.20994 0.23149 0.67827 0.0
H431 H 0.20278 0.24762 0.70137 0.0
H432 H 0.16658 0.27845 0.76251 0.0
H433 H 0.19014 0.28541 0.74691 0.0
H434 H 0.17184 0.32172 0.78972 0.0
H435 H 0.19512 0.32863 0.77396 0.0
H436 H 0.26189 0.35908 0.74834 0.0
H437 H 0.29053 0.3515 0.70644 0.0
H438 H 0.27431 0.32854 0.69938 0.0
H439 H 0.24546 0.33617 0.74091 0.0
C440 C 0.78318 0.24274 0.68739 0.0
C441 C 0.79585 0.25328 0.68522 0.0
C442 C 0.78206 0.26524 0.66286 0.0
C443 C 0.79529 0.26446 0.67307 0.0
C444 C 0.76932 0.25477 0.66533 0.0
C445 C 0.7699 0.24366 0.67745 0.0
U446 U 0.80097 0.2219 0.72395 0.0
O447 O 0.7885 0.21106 0.74398 0.0
O448 O 0.80309 0.1963 0.72817 0.0
C449 C 0.79284 0.19663 0.73992 0.0
C450 C 0.78356 0.23042 0.6996 0.0
C451 C 0.78029 0.18432 0.73955 0.0
C452 C 0.77325 0.15637 0.73892 0.0
C453 C 0.78471 0.16834 0.73835 0.0
C454 C 0.75263 0.17612 0.74188 0.0
C455 C 0.75707 0.16009 0.74084 0.0
C456 C 0.7641 0.1881 0.74121 0.0
C457 C 0.83898 0.23766 0.74459 0.0
C458 C 0.86496 0.22861 0.75359 0.0
C459 C 0.85066 0.24828 0.76894 0.0
C460 C 0.83823 0.24775 0.75792 0.0
C461 C 0.86426 0.23882 0.76684 0.0
C462 C 0.8525 0.22805 0.7426 0.0
C463 C 0.8263 0.23815 0.73232 0.0
O464 O 0.79528 0.22019 0.69856 0.0
O465 O 0.78069 0.23512 0.71421 0.0
O466 O 0.81189 0.24164 0.73724 0.0
O467 O 0.82647 0.22695 0.72138 0.0
H468 H 0.80622 0.25273 0.6928 0.0
H469 H 0.80535 0.27225 0.67145 0.0
H470 H 0.75882 0.2552 0.65794 0.0
H471 H 0.75997 0.23566 0.67898 0.0
H472 H 0.77713 0.14417 0.73829 0.0
H473 H 0.7971 0.16508 0.73721 0.0
H474 H 0.74027 0.17941 0.74318 0.0
H475 H 0.76027 0.2003 0.74216 0.0
H476 H 0.87516 0.22103 0.75168 0.0
H477 H 0.8498 0.25646 0.77886 0.0
H478 H 0.82813 0.25552 0.75969 0.0
H479 H 0.85361 0.22024 0.73241 0.0
C480 C 0.51663 0.5578 0.58262 0.0
C481 C 0.5217 0.54566 0.59264 0.0
C482 C 0.4981 0.54924 0.60914 0.0
C483 C 0.51253 0.54143 0.6058 0.0
C484 C 0.49314 0.56139 0.59899 0.0
C485 C 0.50231 0.5656 0.58588 0.0
U486 U 0.55167 0.5526 0.55387 0.0
O487 O 0.55242 0.55561 0.52801 0.0
O488 O 0.56721 0.57061 0.54338 0.0
C489 C 0.56221 0.56769 0.5289 0.0
C490 C 0.52608 0.56257 0.56878 0.0
C491 C 0.55783 0.58162 0.51951 0.0
C492 C 0.54072 0.60416 0.5142 0.0
C493 C 0.54452 0.59091 0.52333 0.0
C494 C 0.56345 0.59889 0.49739 0.0
C495 C 0.55019 0.60836 0.50113 0.0
C496 C 0.56721 0.58569 0.50649 0.0
C497 C 0.58088 0.51805 0.55967 0.0
C498 C 0.60454 0.51361 0.54369 0.0
C499 C 0.59767 0.4952 0.56437 0.0
C500 C 0.58425 0.50426 0.56806 0.0
C501 C 0.60806 0.49978 0.55219 0.0
C502 C 0.59107 0.52267 0.54741 0.0
C503 C 0.56675 0.52742 0.56403 0.0
O504 O 0.54042 0.56792 0.57186 0.0
O505 O 0.52565 0.55287 0.55653 0.0
O506 O 0.5548 0.52674 0.55402 0.0
O507 O 0.56951 0.54179 0.56944 0.0
H508 H 0.53272 0.53946 0.59027 0.0
H509 H 0.51664 0.53192 0.61324 0.0
H510 H 0.48225 0.56783 0.60129 0.0
H511 H 0.49824 0.57504 0.57831 0.0
H512 H 0.53052 0.61124 0.51753 0.0
H513 H 0.53714 0.58795 0.53338 0.0
H514 H 0.57086 0.60157 0.48728 0.0
H515 H 0.57749 0.57862 0.50332 0.0
H516 H 0.61234 0.51757 0.53434 0.0
H517 H 0.5998 0.48451 0.57098 0.0
H518 H 0.57647 0.50046 0.57752 0.0
H519 H 0.58865 0.53332 0.54081 0.0
C520 C 0.51629 0.46788 0.94487 0.0
C521 C 0.52266 0.47768 0.93316 0.0
C522 C 0.49762 0.47675 0.91854 0.0
C523 C 0.51342 0.48204 0.92008 0.0
C524 C 0.4913 0.46706 0.93044 0.0
C525 C 0.50055 0.46267 0.94344 0.0
U526 U 0.55179 0.47187 0.97336 0.0
O527 O 0.5528 0.46827 0.99911 0.0
O528 O 0.56712 0.45331 0.98325 0.0
C529 C 0.5623 0.45599 0.99784 0.0
C530 C 0.52584 0.46273 0.95853 0.0
C531 C 0.55776 0.44191 1.00694 0.0
C532 C 0.53851 0.42199 0.01478 0.0
C533 C 0.54251 0.43528 1.00581 0.0
C534 C 0.56501 0.42176 0.02595 0.0
C535 C 0.54973 0.41505 0.02497 0.0
C536 C 0.56895 0.43504 0.01704 0.0
C537 C 0.58166 0.50591 0.9679 0.0
C538 C 0.60309 0.51237 0.98621 0.0
C539 C 0.601 0.52613 0.96129 0.0
C540 C 0.58749 0.51727 0.95744 0.0
C541 C 0.60899 0.52383 0.97573 0.0
C542 C 0.58956 0.50346 0.98231 0.0
C543 C 0.5673 0.49692 0.96353 0.0
O544 O 0.54003 0.45711 0.95523 0.0
O545 O 0.52572 0.47221 0.97097 0.0
O546 O 0.55546 0.49763 0.97367 0.0
O547 O 0.56969 0.48261 0.95778 0.0
H548 H 0.53477 0.4819 0.93409 0.0
H549 H 0.51861 0.48966 0.91125 0.0
H550 H 0.47928 0.46258 0.92956 0.0
H551 H 0.49543 0.45507 0.95234 0.0
H552 H 0.52671 0.41705 0.0136 0.0
H553 H 0.53372 0.44039 0.99801 0.0
H554 H 0.57388 0.41691 0.03382 0.0
H555 H 0.58078 0.44001 0.0181 0.0
H556 H 0.60904 0.51016 0.99735 0.0
H557 H 0.60503 0.53499 0.95304 0.0
H558 H 0.58152 0.51936 0.94628 0.0
H559 H 0.58526 0.49469 0.99053 0.0
C560 C 0.71794 0.25628 0.33384 0.0
C561 C 0.73362 0.26125 0.33674 0.0
C562 C 0.7253 0.27476 0.36108 0.0
C563 C 0.73725 0.27041 0.3502 0.0
C564 C 0.70969 0.26945 0.35826 0.0
C565 C 0.70607 0.26037 0.34479 0.0
U566 U 0.7234 0.22257 0.30311 0.0
O567 O 0.70529 0.20783 0.29131 0.0
O568 O 0.72079 0.223 0.27716 0.0
C569 C 0.7085 0.21342 0.2772 0.0
C570 C 0.71348 0.24739 0.31929 0.0
C571 C 0.69473 0.21844 0.26772 0.0
C572 C 0.67125 0.23474 0.26382 0.0
C573 C 0.68433 0.23031 0.27308 0.0
C574 C 0.67892 0.21552 0.24377 0.0
C575 C 0.66839 0.2274 0.24902 0.0
C576 C 0.69193 0.2111 0.25303 0.0
C577 C 0.75763 0.19278 0.30831 0.0
C578 C 0.76307 0.17073 0.29036 0.0
C579 C 0.77922 0.17458 0.31383 0.0
C580 C 0.77027 0.18794 0.3179 0.0
C581 C 0.77572 0.16574 0.30004 0.0
C582 C 0.75408 0.18412 0.29448 0.0
C583 C 0.74831 0.20677 0.31311 0.0
O584 O 0.72326 0.24829 0.30718 0.0
O585 O 0.70781 0.23309 0.32138 0.0
O586 O 0.73376 0.20398 0.31796 0.0
O587 O 0.74931 0.21907 0.30378 0.0
H588 H 0.74305 0.25826 0.32851 0.0
H589 H 0.74936 0.27439 0.35185 0.0
H590 H 0.70022 0.27227 0.36649 0.0
H591 H 0.6939 0.25665 0.34284 0.0
H592 H 0.6635 0.24403 0.26817 0.0
H593 H 0.68634 0.23615 0.28439 0.0
H594 H 0.67698 0.20943 0.23259 0.0
H595 H 0.6998 0.20187 0.24872 0.0
H596 H 0.75995 0.16414 0.27974 0.0
H597 H 0.78902 0.17128 0.32142 0.0
H598 H 0.77322 0.19451 0.32859 0.0
H599 H 0.74432 0.18768 0.28694 0.0
C600 C 0.4667 0.08124 1.0085 0.0
C601 C 0.47961 0.09073 1.00413 0.0
C602 C 0.47456 0.10846 0.02662 0.0
C603 C 0.48353 0.10423 0.01313 0.0
C604 C 0.46172 0.09877 0.03094 0.0
C605 C 0.45784 0.08532 0.02197 0.0
U606 U 0.472 0.05187 0.97372 0.0
O607 O 0.46893 0.02603 0.97327 0.0
O608 O 0.45375 0.04091 0.95847 0.0
C609 C 0.45665 0.02661 0.96366 0.0
C610 C 0.46211 0.06715 0.99916 0.0
C611 C 0.44264 0.01735 0.96838 0.0
C612 C 0.42224 1.01034 0.98748 0.0
C613 C 0.43552 0.01939 0.9833 0.0
C614 C 0.42301 0.99724 0.96184 0.0
C615 C 0.4158 0.99916 0.97678 0.0
C616 C 0.43629 1.00623 0.95771 0.0
C617 C 0.50614 0.05725 0.94402 0.0
C618 C 0.51119 0.03939 0.92179 0.0
C619 C 0.5276 0.06264 0.92561 0.0
C620 C 0.51881 0.06673 0.93909 0.0
C621 C 0.5239 0.04893 0.91674 0.0
C622 C 0.50236 0.04353 0.9353 0.0
C623 C 0.49706 0.06194 0.95822 0.0
O624 O 0.45664 0.06985 0.98487 0.0
O625 O 0.472 0.05514 0.99963 0.0
O626 O 0.49791 0.05226 0.97026 0.0
O627 O 0.4826 0.06717 0.95564 0.0
H628 H 0.48658 0.08777 0.99372 0.0
H629 H 0.4934 0.11148 1.00935 0.0
H630 H 0.45471 0.10147 0.04138 0.0
H631 H 0.44787 0.07809 0.02556 0.0
H632 H 0.41689 0.01225 0.99901 0.0
H633 H 0.44023 0.02798 0.99168 0.0
H634 H 0.41855 0.9886 0.95339 0.0
H635 H 0.44164 1.00447 0.94616 0.0
H636 H 0.5079 0.02885 0.91517 0.0
H637 H 0.53745 0.07013 0.92226 0.0
H638 H 0.52193 0.07734 0.9457 0.0
H639 H 0.49258 0.03608 0.93892 0.0
Li640 Li 0.27765 0.89723 0.0127 0.0
Li641 Li 0.26524 0.87745 0.03027 0.0
Li642 Li 0.25936 0.87744 1.00065 0.0
Li643 Li 0.24807 0.89774 0.01879 0.0
C644 C 0.2949 0.86944 1.00758 0.0
N645 N 0.32536 0.86097 0.99874 0.0
C646 C 0.30566 0.86399 0.01889 0.0
C647 C 0.29955 0.87032 0.99173 0.0
C648 C 0.32102 0.85983 0.0142 0.0
C649 C 0.31502 0.86606 0.98751 0.0
C650 C 0.27067 0.90308 0.04885 0.0
C651 C 0.26384 0.90333 0.0766 0.0
N652 N 0.27912 0.9071 0.08027 0.0
C653 C 0.28626 0.9071 0.05289 0.0
C654 C 0.25932 0.90132 0.06078 0.0
C655 C 0.29031 0.90904 0.06885 0.0
C656 C 0.29352 0.92394 1.0006 0.0
N657 N 0.29594 0.91038 1.00876 0.0
C658 C 0.32373 0.91618 1.01092 0.0
C659 C 0.31067 0.90646 0.01408 0.0
C660 C 0.32163 0.93013 1.00224 0.0
C661 C 0.30623 0.93397 0.99713 0.0
H662 H 0.28167 0.92702 0.99679 0.0
H663 H 0.31232 0.89588 0.0209 0.0
C664 C 0.25715 0.85277 0.05117 0.0
N665 N 0.26832 0.864 0.04836 0.0
C666 C 0.25861 0.8427 0.06411 0.0
C667 C 0.28325 0.85566 0.07097 0.0
C668 C 0.28129 0.86552 0.05789 0.0
C669 C 0.27179 0.84406 0.07428 0.0
H670 H 0.2471 0.85154 0.04329 0.0
H671 H 0.29016 0.87434 0.05534 0.0
C672 C 0.25813 0.90474 0.98262 0.0
N673 N 0.25589 0.91243 0.95096 0.0
C674 C 0.24387 0.91051 0.97649 0.0
C675 C 0.27133 0.90315 0.97271 0.0
C676 C 0.24295 0.91425 0.96044 0.0
C677 C 0.26995 0.90703 0.95672 0.0
C678 C 0.22882 0.87261 0.02203 0.0
C679 C 0.21838 0.86784 1.01003 0.0
C680 C 0.22298 0.8756 0.03726 0.0
C681 C 0.2022 0.8664 0.01341 0.0
C682 C 0.20673 0.87406 0.04017 0.0
N683 N 0.19676 0.86954 0.02828 0.0
C684 C 0.26412 0.85104 0.97993 0.0
C685 C 0.24349 0.86827 0.97205 0.0
C686 C 0.26131 0.84119 0.9668 0.0
N687 N 0.25532 0.86436 0.98226 0.0
C688 C 0.24025 0.85875 0.9588 0.0
C689 C 0.2492 0.84496 0.95601 0.0
H690 H 0.27323 0.84796 0.98838 0.0
H691 H 0.23638 0.87868 0.9743 0.0
C692 C 0.23113 0.92268 0.03402 0.0
N693 N 0.23005 0.91133 0.02254 0.0
C694 C 0.21831 0.93277 0.03714 0.0
C695 C 0.2035 0.91946 0.01645 0.0
C696 C 0.21662 0.90965 0.01372 0.0
C697 C 0.2042 0.93123 0.02833 0.0
H698 H 0.24201 0.92399 0.04071 0.0
H699 H 0.21607 0.90068 1.00453 0.0
O700 O 0.27982 0.87363 0.012 0.0
O701 O 0.26652 0.90103 0.0333 0.0
O702 O 0.25921 0.90092 0.9983 0.0
O703 O 0.24467 0.87426 0.0189 0.0
H704 H 0.30222 0.86306 0.03117 0.0
H705 H 0.29128 0.8741 0.98276 0.0
H706 H 0.3295 0.8557 0.02285 0.0
H707 H 0.31879 0.86674 0.97528 0.0
H708 H 0.2552 0.90191 0.08595 0.0
H709 H 0.29517 0.90863 0.04383 0.0
H710 H 0.24716 0.89844 0.05787 0.0
H711 H 0.30236 0.91206 0.07214 0.0
H712 H 0.33537 0.91268 0.01507 0.0
H713 H 0.30395 0.94474 0.99068 0.0
H714 H 0.24963 0.83375 0.06596 0.0
H715 H 0.29355 0.85725 0.0785 0.0
H716 H 0.23358 0.91198 0.98401 0.0
H717 H 0.28257 0.89912 0.97732 0.0
H718 H 0.23194 0.91861 0.95551 0.0
H719 H 0.28007 0.9058 0.94891 0.0
H720 H 0.22269 0.86532 0.99822 0.0
H721 H 0.23091 0.87909 0.04673 0.0
H722 H 0.19398 0.86281 1.00421 0.0
H723 H 0.20204 0.87643 0.05189 0.0
H724 H 0.26834 0.83055 0.96532 0.0
H725 H 0.23086 0.86222 0.95078 0.0
H726 H 0.21956 0.94182 0.04622 0.0
H727 H 0.19286 0.91768 1.00945 0.0
Li728 Li 0.12696 0.51509 0.27788 0.0
Li729 Li 0.14724 0.49794 0.26532 0.0
Li730 Li 0.1471 0.52739 0.26014 0.0
Li731 Li 0.12701 0.50932 0.24833 0.0
C732 C 0.15552 0.52219 0.29452 0.0
N733 N 0.16586 0.53497 0.32297 0.0
C734 C 0.16193 0.51242 0.30614 0.0
C735 C 0.15462 0.53849 0.29727 0.0
C736 C 0.16702 0.5191 0.32048 0.0
C737 C 0.15984 0.54472 0.31175 0.0
C738 C 0.12283 0.47905 0.27039 0.0
C739 C 0.12536 0.4514 0.26357 0.0
N740 N 0.12168 0.44758 0.27874 0.0
C741 C 0.11897 0.47486 0.28588 0.0
C742 C 0.12595 0.46725 0.2591 0.0
C743 C 0.11847 0.45888 0.28988 0.0
C744 C 0.09881 0.52474 0.29332 0.0
N745 N 0.11346 0.51852 0.29599 0.0
C746 C 0.10815 0.5174 0.32383 0.0
C747 C 0.11818 0.51467 0.31087 0.0
C748 C 0.09305 0.5241 0.32148 0.0
C749 C 0.08842 0.5277 0.30593 0.0
H750 H 0.09519 0.52742 0.28136 0.0
H751 H 0.12969 0.50938 0.31271 0.0
C752 C 0.17127 0.47596 0.25681 0.0
N753 N 0.16099 0.48006 0.26856 0.0
C754 C 0.18174 0.46328 0.25871 0.0
C755 C 0.17086 0.45917 0.28481 0.0
C756 C 0.16064 0.47199 0.28241 0.0
C757 C 0.18169 0.45471 0.2729 0.0
H758 H 0.17144 0.48261 0.24595 0.0
H759 H 0.1525 0.47555 0.29167 0.0
C760 C 0.11809 0.54498 0.25997 0.0
N761 N 0.10699 0.57574 0.26037 0.0
C762 C 0.11171 0.55157 0.24625 0.0
C763 C 0.11859 0.55397 0.27396 0.0
C764 C 0.10623 0.56716 0.24668 0.0
C765 C 0.11298 0.56951 0.2739 0.0
C766 C 0.15193 0.50808 0.229 0.0
C767 C 0.156 0.52128 0.22006 0.0
C768 C 0.14918 0.49357 0.2214 0.0
C769 C 0.15706 0.51979 0.20359 0.0
C770 C 0.15033 0.49257 0.20492 0.0
N771 N 0.15421 0.50559 0.19643 0.0
C772 C 0.17582 0.54416 0.2626 0.0
C773 C 0.15578 0.55868 0.24949 0.0
C774 C 0.1866 0.55659 0.26079 0.0
N775 N 0.16071 0.54542 0.25705 0.0
C776 C 0.16616 0.57144 0.2475 0.0
C777 C 0.18183 0.5705 0.25316 0.0
H778 H 0.1795 0.53346 0.26847 0.0
H779 H 0.14389 0.55934 0.24481 0.0
C780 C 0.10307 0.49337 0.23071 0.0
N781 N 0.11347 0.50565 0.23024 0.0
C782 C 0.09304 0.49016 0.21787 0.0
C783 C 0.10445 0.51239 0.20424 0.0
C784 C 0.11423 0.51519 0.21738 0.0
C785 C 0.09365 0.49969 0.20432 0.0
H786 H 0.10248 0.48609 0.24113 0.0
H787 H 0.12249 0.52497 0.21728 0.0
O788 O 0.15051 0.51583 0.2804 0.0
O789 O 0.1236 0.49464 0.26631 0.0
O790 O 0.1235 0.52972 0.25975 0.0
O791 O 0.15067 0.50935 0.24511 0.0
H792 H 0.16289 0.49981 0.30415 0.0
H793 H 0.15011 0.54629 0.28828 0.0
H794 H 0.1719 0.51166 0.32962 0.0
H795 H 0.15917 0.55731 0.31405 0.0
H796 H 0.12785 0.44215 0.25498 0.0
H797 H 0.11648 0.48384 0.29475 0.0
H798 H 0.12891 0.4703 0.24705 0.0
H799 H 0.11558 0.45546 0.30184 0.0
H800 H 0.11229 0.51449 0.33559 0.0
H801 H 0.07681 0.53259 0.30346 0.0
H802 H 0.18972 0.46019 0.24912 0.0
H803 H 0.17052 0.45306 0.29601 0.0
H804 H 0.11107 0.54475 0.23537 0.0
H805 H 0.12308 0.54896 0.28479 0.0
H806 H 0.10136 0.57243 0.23611 0.0
H807 H 0.11333 0.5766 0.28464 0.0
H808 H 0.15821 0.53259 0.22575 0.0
H809 H 0.14606 0.48323 0.22816 0.0
H810 H 0.16013 0.52992 0.19651 0.0
H811 H 0.14813 0.48144 0.19887 0.0
H812 H 0.19851 0.55537 0.26548 0.0
H813 H 0.16202 0.58181 0.24131 0.0
H814 H 0.08474 0.48043 0.21865 0.0
H815 H 0.10551 0.51997 0.19405 0.0
Li816 Li 0.74718 0.62708 1.00995 0.0
Li817 Li 0.75873 0.64718 0.02814 0.0
Li818 Li 0.76468 0.64777 0.9986 0.0
Li819 Li 0.77678 0.62778 0.01615 0.0
C820 C 0.72904 0.65413 1.00492 0.0
N821 N 0.69873 0.6614 0.99473 0.0
C822 C 0.71753 0.65917 0.01578 0.0
C823 C 0.7252 0.65306 0.98884 0.0
C824 C 0.70226 0.66271 1.01041 0.0
C825 C 0.7098 0.65672 0.98392 0.0
C826 C 0.7549 0.62136 0.04608 0.0
C827 C 0.76249 0.62209 0.07362 0.0
N828 N 0.7477 0.61711 0.07768 0.0
C829 C 0.73982 0.6161 0.0505 0.0
C830 C 0.76638 0.62425 0.05771 0.0
C831 C 0.73639 0.61407 0.06654 0.0
C832 C 0.73145 0.60033 0.99669 0.0
N833 N 0.72922 0.61347 1.00585 0.0
C834 C 0.70175 0.6069 1.00924 0.0
C835 C 0.71476 0.61679 0.01225 0.0
C836 C 0.70362 0.59337 0.99959 0.0
C837 C 0.71877 0.59014 0.99333 0.0
H838 H 0.74312 0.5977 0.99203 0.0
H839 H 0.71331 0.62705 0.01983 0.0
C840 C 0.7651 0.67174 0.0506 0.0
N841 N 0.7546 0.66015 0.04658 0.0
C842 C 0.7623 0.68154 0.06378 0.0
C843 C 0.73789 0.66736 0.06845 0.0
C844 C 0.74115 0.65786 0.05518 0.0
C845 C 0.74849 0.67946 0.07291 0.0
H846 H 0.77559 0.67352 0.04347 0.0
H847 H 0.73288 0.6487 0.0517 0.0
C848 C 0.76745 0.62057 0.97974 0.0
N849 N 0.77086 0.61304 0.94798 0.0
C850 C 0.78217 0.61563 0.97384 0.0
C851 C 0.75441 0.6214 0.96954 0.0
C852 C 0.78367 0.61196 0.95773 0.0
C853 C 0.75639 0.61762 0.95351 0.0
C854 C 0.79506 0.65375 0.01957 0.0
C855 C 0.80486 0.65848 1.00713 0.0
C856 C 0.80155 0.65153 0.03462 0.0
C857 C 0.82108 0.66066 1.00991 0.0
C858 C 0.81783 0.65381 0.03691 0.0
N859 N 0.82718 0.65827 0.02461 0.0
C860 C 0.75896 0.67496 0.98018 0.0
C861 C 0.77879 0.65822 0.96938 0.0
C862 C 0.76072 0.68551 0.96765 0.0
N863 N 0.76783 0.66154 0.98078 0.0
C864 C 0.78096 0.66844 0.95663 0.0
C865 C 0.77186 0.68234 0.95561 0.0
H866 H 0.75049 0.67752 0.98949 0.0
H867 H 0.78609 0.64778 0.97029 0.0
C868 C 0.79418 0.60326 0.03088 0.0
N869 N 0.79523 0.61476 0.0198 0.0
C870 C 0.80714 0.59341 0.03394 0.0
C871 C 0.82208 0.60726 0.01402 0.0
C872 C 0.80882 0.61685 1.01135 0.0
C873 C 0.82137 0.59529 0.02545 0.0
H874 H 0.78323 0.60167 0.03734 0.0
H875 H 0.80935 0.62587 1.00241 0.0
O876 O 0.74403 0.6505 1.00999 0.0
O877 O 0.75842 0.62358 0.03044 0.0
O878 O 0.76579 0.62429 0.99547 0.0
O879 O 0.77917 0.65142 0.01704 0.0
H880 H 0.72032 0.66024 0.02823 0.0
H881 H 0.73405 0.64962 0.98021 0.0
H882 H 0.69321 0.66651 0.01871 0.0
H883 H 0.70666 0.65589 0.97152 0.0
H884 H 0.77124 0.62437 0.08275 0.0
H885 H 0.73084 0.61368 0.04166 0.0
H886 H 0.77816 0.62812 0.05449 0.0
H887 H 0.72474 0.6101 0.07013 0.0
H888 H 0.69032 0.60994 0.01428 0.0
H889 H 0.72089 0.5797 0.98609 0.0
H890 H 0.7707 0.69085 0.06656 0.0
H891 H 0.72719 0.66515 0.07519 0.0
H892 H 0.79234 0.61474 0.98157 0.0
H893 H 0.74285 0.62475 0.97396 0.0
H894 H 0.79502 0.60824 0.95299 0.0
H895 H 0.7464 0.61827 0.94549 0.0
H896 H 0.80002 0.66037 0.99545 0.0
H897 H 0.79412 0.64809 0.04442 0.0
H898 H 0.82881 0.66423 1.00037 0.0
H899 H 0.82302 0.65205 0.04848 0.0
H900 H 0.75331 0.69596 0.96735 0.0
H901 H 0.78993 0.66563 0.94785 0.0
H902 H 0.80604 0.5845 0.04298 0.0
H903 H 0.83267 0.60903 1.00698 0.0
Li904 Li 0.87772 0.02688 0.26557 0.0
Li905 Li 0.89791 1.00929 0.27743 0.0
Li906 Li 0.89775 0.01527 0.24788 0.0
Li907 Li 0.8777 0.9973 0.25945 0.0
C908 C 0.90353 0.04543 0.26988 0.0
N909 N 0.90761 0.07712 0.27711 0.0
C910 C 0.90832 0.05011 0.28508 0.0
C911 C 0.90105 0.05685 0.2583 0.0
C912 C 0.91026 0.06619 0.28852 0.0
C913 C 0.9031 0.07281 0.26221 0.0
C914 C 0.8703 1.00361 0.29483 0.0
C915 C 0.86763 0.9827 0.31385 0.0
N916 N 0.86232 0.99338 0.32477 0.0
C917 C 0.86461 0.01435 0.30618 0.0
C918 C 0.87165 0.98763 0.29863 0.0
C919 C 0.86072 1.00896 0.32128 0.0
C920 C 0.85297 0.04896 0.25904 0.0
N921 N 0.86446 0.04505 0.26963 0.0
C922 C 0.85691 0.06671 0.28652 0.0
C923 C 0.86653 0.05361 0.2832 0.0
C924 C 0.8449 0.07104 0.27583 0.0
C925 C 0.84305 0.06197 0.26189 0.0
H926 H 0.85135 0.04185 0.24845 0.0
H927 H 0.87561 0.05022 0.29155 0.0
C928 C 0.92452 0.99689 0.29409 0.0
N929 N 0.9111 1.00572 0.29574 0.0
C930 C 0.93426 0.99396 0.30718 0.0
C931 C 0.91647 1.0096 0.32337 0.0
C932 C 0.90708 0.01221 0.30999 0.0
C933 C 0.93026 1.00028 0.32213 0.0
H934 H 0.92766 0.99206 0.28261 0.0
H935 H 0.89667 0.01962 0.31095 0.0
C936 C 0.87174 0.01831 0.22927 0.0
N937 N 0.86732 0.02377 0.19736 0.0
C938 C 0.86699 1.006 0.21916 0.0
C939 C 0.87401 0.03345 0.2232 0.0
C940 C 0.86488 1.00899 0.20305 0.0
C941 C 0.87179 0.03596 0.20702 0.0
C942 C 0.90553 0.97925 0.25728 0.0
C943 C 0.91104 0.97342 0.24273 0.0
C944 C 0.90459 0.96913 0.27022 0.0
C945 C 0.91517 0.95747 0.24129 0.0
C946 C 0.90883 0.95326 0.26831 0.0
N947 N 0.91397 0.9478 0.25399 0.0
C948 C 0.92254 0.03014 0.23065 0.0
C949 C 0.9088 1.01036 0.21609 0.0
C950 C 0.93235 0.03319 0.21766 0.0
N951 N 0.91097 0.01895 0.22964 0.0
C952 C 0.9183 0.01305 0.2028 0.0
C953 C 0.93029 0.02462 0.20344 0.0
H954 H 0.9242 0.0367 0.24158 0.0
H955 H 0.89975 1.00132 0.21561 0.0
C956 C 0.85098 0.97727 0.2643 0.0
N957 N 0.86448 0.97901 0.25563 0.0
C958 C 0.84102 0.96423 0.26176 0.0
C959 C 0.85881 0.95513 0.24119 0.0
C960 C 0.86844 0.96831 0.24416 0.0
C961 C 0.84486 0.95293 0.25004 0.0
H962 H 0.84786 0.98609 0.27312 0.0
H963 H 0.87897 0.9701 0.23711 0.0
O964 O 0.9014 0.02974 0.26635 0.0
O965 O 0.8743 1.00871 0.28002 0.0
O966 O 0.87404 0.01556 0.24505 0.0
O967 O 0.90135 0.99483 0.25887 0.0
H968 H 0.91044 0.04144 0.29414 0.0
H969 H 0.8976 0.05343 0.24643 0.0
H970 H 0.91387 0.06998 0.30025 0.0
H971 H 0.90114 0.08178 0.25337 0.0
H972 H 0.86867 0.97036 0.31695 0.0
H973 H 0.8633 0.02672 0.30341 0.0
H974 H 0.87559 0.97909 0.28989 0.0
H975 H 0.85642 0.01717 0.33021 0.0
H976 H 0.85895 0.07341 0.29733 0.0
H977 H 0.83382 0.06467 0.25341 0.0
H978 H 0.94469 0.98662 0.30561 0.0
H979 H 0.91306 0.01503 0.33454 0.0
H980 H 0.86504 0.99425 0.22366 0.0
H981 H 0.87743 0.04315 0.23088 0.0
H982 H 0.8613 0.99955 0.19507 0.0
H983 H 0.87359 0.0476 0.20215 0.0
H984 H 0.91204 0.9811 0.23263 0.0
H985 H 0.9008 0.97351 0.28167 0.0
H986 H 0.91934 0.95278 0.23006 0.0
H987 H 0.90811 0.9453 0.27823 0.0
H988 H 0.94132 0.04231 0.2187 0.0
H989 H 0.91641 1.00596 0.19221 0.0
H990 H 0.83026 0.96321 0.26869 0.0
H991 H 0.86234 0.94672 0.23209 0.0
Li992 Li 0.25845 0.14856 0.52717 0.0
Li993 Li 0.24692 0.12843 0.50905 0.0
Li994 Li 0.27657 0.12878 0.51452 0.0
Li995 Li 0.26369 0.14875 0.49749 0.0
C996 C 0.25898 0.12027 0.54475 0.0
N997 N 0.26003 0.11051 0.57587 0.0
C998 C 0.24552 0.1137 0.55179 0.0
C999 C 0.27304 0.12162 0.55346 0.0
C1000 C 0.24627 0.10892 0.56757 0.0
C1001 C 0.27332 0.11668 0.56919 0.0
C1002 C 0.22732 0.15304 0.50723 0.0
C1003 C 0.20407 0.15102 0.49064 0.0
N1004 N 0.19479 0.15483 0.5033 0.0
C1005 C 0.21757 0.15706 0.52005 0.0
C1006 C 0.22054 0.15013 0.49237 0.0
C1007 C 0.20115 0.15786 0.51783 0.0
C1008 C 0.26228 0.17586 0.54674 0.0
N1009 N 0.25487 0.16159 0.54569 0.0
C1010 C 0.2422 0.16616 0.57073 0.0
C1011 C 0.24484 0.15671 0.55728 0.0
C1012 C 0.24986 0.18087 0.57227 0.0
C1013 C 0.25999 0.18569 0.55999 0.0
H1014 H 0.27 0.17962 0.53727 0.0
H1015 H 0.23866 0.14559 0.556 0.0
C1016 C 0.22873 0.10465 0.49318 0.0
N1017 N 0.22877 0.11494 0.50567 0.0
C1018 C 0.21563 0.09482 0.49038 0.0
C1019 C 0.20285 0.10625 0.51339 0.0
C1020 C 0.21622 0.1158 0.51578 0.0
C1021 C 0.20241 0.09556 0.50053 0.0
H1022 H 0.23887 0.10407 0.48535 0.0
H1023 H 0.21657 0.12393 0.52574 0.0
C1024 C 0.29319 0.15752 0.52062 0.0
N1025 N 0.32248 0.16812 0.53103 0.0
C1026 C 0.3041 0.16375 0.50988 0.0
C1027 C 0.29709 0.15694 0.53669 0.0
C1028 C 0.31887 0.16897 0.51536 0.0
C1029 C 0.31198 0.16229 0.54172 0.0
C1030 C 0.2692 0.1238 0.47853 0.0
C1031 C 0.28474 0.11966 0.4744 0.0
C1032 C 0.25799 0.12647 0.46664 0.0
C1033 C 0.28887 0.11847 0.45841 0.0
C1034 C 0.26259 0.12519 0.45078 0.0
N1035 N 0.27781 0.12126 0.44703 0.0
C1036 C 0.29289 0.10129 0.52443 0.0
C1037 C 0.30977 0.12069 0.51346 0.0
C1038 C 0.30588 0.0914 0.52731 0.0
N1039 N 0.29505 0.11572 0.51779 0.0
C1040 C 0.32309 0.1112 0.51615 0.0
C1041 C 0.32128 0.09634 0.52325 0.0
H1042 H 0.28106 0.09749 0.52759 0.0
H1043 H 0.31121 0.13194 0.50774 0.0
C1044 C 0.25517 0.17303 0.47609 0.0
N1045 N 0.26669 0.16233 0.47951 0.0
C1046 C 0.25685 0.18318 0.46323 0.0
C1047 C 0.28229 0.17122 0.4576 0.0
C1048 C 0.28013 0.16132 0.4706 0.0
C1049 C 0.27056 0.18238 0.45373 0.0
H1050 H 0.2447 0.17381 0.48346 0.0
H1051 H 0.28921 0.15284 0.47358 0.0
O1052 O 0.25843 0.12507 0.52932 0.0
O1053 O 0.2434 0.15195 0.50923 0.0
O1054 O 0.27867 0.15233 0.51543 0.0
O1055 O 0.26499 0.12518 0.49413 0.0
H1056 H 0.23459 0.11239 0.5452 0.0
H1057 H 0.28368 0.12623 0.54809 0.0
H1058 H 0.2359 0.10392 0.5732 0.0
H1059 H 0.28412 0.1177 0.57607 0.0
H1060 H 0.19866 0.14869 0.47922 0.0
H1061 H 0.22262 0.15944 0.53161 0.0
H1062 H 0.22792 0.14712 0.48231 0.0
H1063 H 0.19345 0.16087 0.52767 0.0
H1064 H 0.23401 0.16207 0.57968 0.0
H1065 H 0.26624 0.19686 0.56065 0.0
H1066 H 0.21579 0.08688 0.48022 0.0
H1067 H 0.19306 0.10709 0.52167 0.0
H1068 H 0.30124 0.16446 0.49743 0.0
H1069 H 0.28866 0.15262 0.54525 0.0
H1070 H 0.32746 0.17371 0.50716 0.0
H1071 H 0.31515 0.16188 0.55412 0.0
H1072 H 0.29354 0.11747 0.48345 0.0
H1073 H 0.2459 0.12958 0.46962 0.0
H1074 H 0.30087 0.11535 0.45504 0.0
H1075 H 0.25406 0.12732 0.44146 0.0
H1076 H 0.30388 0.08011 0.53289 0.0
H1077 H 0.33467 0.11538 0.5125 0.0
H1078 H 0.24761 0.19176 0.46093 0.0
H1079 H 0.29299 0.17001 0.45058 0.0
Li1080 Li 0.39774 0.50949 0.77824 0.0
Li1081 Li 0.37749 0.52735 0.7669 0.0
Li1082 Li 0.37758 0.49776 0.76087 0.0
Li1083 Li 0.39755 0.51539 0.74871 0.0
C1084 C 0.37231 0.50655 0.79726 0.0
N1085 N 0.36905 0.50145 0.82938 0.0
C1086 C 0.3678 0.51894 0.80738 0.0
C1087 C 0.37493 0.49151 0.80345 0.0
C1088 C 0.36627 0.51614 0.82359 0.0
C1089 C 0.3733 0.48919 0.81972 0.0
C1090 C 0.4054 0.54552 0.76813 0.0
C1091 C 0.40846 0.57107 0.75609 0.0
N1092 N 0.41408 0.577 0.77004 0.0
C1093 C 0.41141 0.55181 0.78229 0.0
C1094 C 0.40408 0.55518 0.75487 0.0
C1095 C 0.41565 0.56777 0.78304 0.0
C1096 C 0.42222 0.49427 0.79568 0.0
N1097 N 0.41113 0.50595 0.7964 0.0
C1098 C 0.41896 0.51247 0.82296 0.0
C1099 C 0.40945 0.51509 0.80965 0.0
C1100 C 0.43045 0.50041 0.82263 0.0
C1101 C 0.43203 0.49128 0.80869 0.0
H1102 H 0.42347 0.48725 0.78498 0.0
H1103 H 0.40074 0.52447 0.8099 0.0
C1104 C 0.35049 0.54718 0.76262 0.0
N1105 N 0.36428 0.54561 0.77086 0.0
C1106 C 0.34056 0.56021 0.76531 0.0
C1107 C 0.35901 0.56966 0.78516 0.0
C1108 C 0.36859 0.55648 0.78205 0.0
C1109 C 0.34475 0.57169 0.77674 0.0
H1110 H 0.34712 0.53824 0.75402 0.0
H1111 H 0.37936 0.55482 0.78877 0.0
C1112 C 0.4033 0.47936 0.75588 0.0
N1113 N 0.40712 0.44783 0.74787 0.0
C1114 C 0.40802 0.47502 0.74057 0.0
C1115 C 0.40076 0.46767 0.76718 0.0
C1116 C 0.40983 0.45902 0.73674 0.0
C1117 C 0.40268 0.45179 0.76288 0.0
C1118 C 0.3694 0.52084 0.73169 0.0
C1119 C 0.36361 0.50996 0.72052 0.0
C1120 C 0.37028 0.53684 0.72783 0.0
C1121 C 0.35916 0.51523 0.70554 0.0
C1122 C 0.3657 0.54165 0.71272 0.0
N1123 N 0.36031 0.53083 0.70197 0.0
C1124 C 0.35315 0.47562 0.76805 0.0
C1125 C 0.36626 0.47069 0.7437 0.0
C1126 C 0.34345 0.46236 0.76571 0.0
N1127 N 0.36436 0.47948 0.75715 0.0
C1128 C 0.35688 0.4573 0.74091 0.0
C1129 C 0.34527 0.45294 0.75201 0.0
H1130 H 0.35172 0.48285 0.77858 0.0
H1131 H 0.37504 0.4741 0.73506 0.0
C1132 C 0.42427 0.52745 0.73208 0.0
N1133 N 0.41059 0.51905 0.73031 0.0
C1134 C 0.43396 0.53049 0.719 0.0
C1135 C 0.41558 0.51585 0.70252 0.0
C1136 C 0.40624 0.5131 0.71591 0.0
C1137 C 0.42964 0.52472 0.70391 0.0
H1138 H 0.42765 0.53184 0.74367 0.0
H1139 H 0.39563 0.50601 0.71483 0.0
O1140 O 0.37408 0.50912 0.78139 0.0
O1141 O 0.4011 0.52992 0.76721 0.0
O1142 O 0.40128 0.49498 0.7598 0.0
O1143 O 0.3739 0.51586 0.7464 0.0
H1144 H 0.3656 0.53062 0.8028 0.0
H1145 H 0.37822 0.48175 0.79577 0.0
H1146 H 0.36289 0.52565 0.83157 0.0
H1147 H 0.37539 0.47763 0.82467 0.0
H1148 H 0.40746 0.57868 0.74592 0.0
H1149 H 0.41269 0.54448 0.79262 0.0
H1150 H 0.3999 0.55043 0.7437 0.0
H1151 H 0.4202 0.57282 0.79396 0.0
H1152 H 0.41747 0.51999 0.83332 0.0
H1153 H 0.4406 0.48176 0.8079 0.0
H1154 H 0.32957 0.56111 0.75872 0.0
H1155 H 0.36281 0.57821 0.79401 0.0
H1156 H 0.41017 0.4839 0.73172 0.0
H1157 H 0.39731 0.47082 0.77912 0.0
H1158 H 0.41338 0.45549 0.7249 0.0
H1159 H 0.40065 0.44262 0.77148 0.0
H1160 H 0.36266 0.49757 0.72335 0.0
H1161 H 0.37427 0.54549 0.73645 0.0
H1162 H 0.35478 0.50691 0.69674 0.0
H1163 H 0.36637 0.554 0.70957 0.0
H1164 H 0.33475 0.45942 0.77465 0.0
H1165 H 0.35855 0.45059 0.73005 0.0
H1166 H 0.44462 0.53747 0.72068 0.0
H1167 H 0.41191 0.51084 0.69124 0.0
Li1168 Li 0.77676 0.39698 0.51308 0.0
Li1169 Li 0.76409 0.3769 0.53009 0.0
Li1170 Li 0.75815 0.37755 0.50055 0.0
Li1171 Li 0.74734 0.39757 0.51925 0.0
C1172 C 0.79274 0.36785 0.50601 0.0
N1173 N 0.82124 0.35634 0.49444 0.0
C1174 C 0.80396 0.36144 0.51634 0.0
C1175 C 0.79591 0.36814 0.48977 0.0
C1176 C 0.81832 0.35576 0.51027 0.0
C1177 C 0.81041 0.36233 0.48416 0.0
C1178 C 0.77064 0.40127 0.54925 0.0
C1179 C 0.76516 0.39917 0.57718 0.0
N1180 N 0.78057 0.40281 0.58042 0.0
C1181 C 0.78639 0.40509 0.55284 0.0
C1182 C 0.7599 0.39839 0.5615 0.0
C1183 C 0.79119 0.40578 0.56868 0.0
C1184 C 0.79249 0.42498 0.50424 0.0
N1185 N 0.79514 0.41008 0.50953 0.0
C1186 C 0.82323 0.4146 0.50946 0.0
C1187 C 0.81014 0.40484 0.51233 0.0
C1188 C 0.8209 0.43 0.50376 0.0
C1189 C 0.80522 0.43515 0.50123 0.0
H1190 H 0.78045 0.42899 0.50234 0.0
H1191 H 0.81202 0.39312 0.51689 0.0
C1192 C 0.75555 0.35242 0.5511 0.0
N1193 N 0.76728 0.36292 0.54773 0.0
C1194 C 0.75726 0.34184 0.56359 0.0
C1195 C 0.78311 0.353 0.56904 0.0
C1196 C 0.78092 0.36334 0.55638 0.0
C1197 C 0.77122 0.34197 0.57276 0.0
H1198 H 0.74487 0.35218 0.544 0.0
H1199 H 0.79017 0.37164 0.55341 0.0
C1200 C 0.75911 0.40643 0.48354 0.0
N1201 N 0.76068 0.41739 0.45286 0.0
C1202 C 0.74597 0.41386 0.47675 0.0
C1203 C 0.77312 0.40481 0.47481 0.0
C1204 C 0.74698 0.41925 0.4612 0.0
C1205 C 0.77367 0.41037 0.4593 0.0
C1206 C 0.7274 0.37344 0.52087 0.0
C1207 C 0.71746 0.36999 0.50803 0.0
C1208 C 0.72081 0.37624 0.53583 0.0
C1209 C 0.70104 0.3696 0.51034 0.0
C1210 C 0.70433 0.37577 0.53765 0.0
N1211 N 0.69486 0.3725 0.52497 0.0
C1212 C 0.76016 0.34984 0.48146 0.0
C1213 C 0.74474 0.37019 0.47009 0.0
C1214 C 0.7573 0.33994 0.46837 0.0
N1215 N 0.75398 0.3647 0.48205 0.0
C1216 C 0.7416 0.36071 0.45677 0.0
C1217 C 0.74789 0.34532 0.45575 0.0
H1218 H 0.76725 0.34563 0.49123 0.0
H1219 H 0.73961 0.38186 0.47093 0.0
C1220 C 0.72966 0.42088 0.53625 0.0
N1221 N 0.72946 0.41125 0.52325 0.0
C1222 C 0.71677 0.43081 0.5396 0.0
C1223 C 0.70373 0.4209 0.51604 0.0
C1224 C 0.71688 0.41119 0.51313 0.0
C1225 C 0.70351 0.4309 0.52946 0.0
H1226 H 0.73986 0.42091 0.54402 0.0
H1227 H 0.717 0.40349 0.50283 0.0
O1228 O 0.7786 0.37344 0.51178 0.0
O1229 O 0.76576 0.4004 0.53381 0.0
O1230 O 0.75829 0.40105 0.49875 0.0
O1231 O 0.74349 0.37411 0.51879 0.0
H1232 H 0.80165 0.36096 0.52891 0.0
H1233 H 0.78722 0.37262 0.48155 0.0
H1234 H 0.82715 0.35089 0.51814 0.0
H1235 H 0.81303 0.36253 0.47162 0.0
H1236 H 0.75701 0.39687 0.58678 0.0
H1237 H 0.79484 0.4074 0.54351 0.0
H1238 H 0.74766 0.39547 0.55892 0.0
H1239 H 0.80336 0.40865 0.57164 0.0
H1240 H 0.83505 0.41002 0.5115 0.0
H1241 H 0.80275 0.44699 0.49715 0.0
H1242 H 0.74769 0.3337 0.56609 0.0
H1243 H 0.79415 0.35342 0.57562 0.0
H1244 H 0.73509 0.41537 0.48338 0.0
H1245 H 0.78353 0.39949 0.47999 0.0
H1246 H 0.73687 0.42492 0.45576 0.0
H1247 H 0.78444 0.40916 0.45241 0.0
H1248 H 0.72237 0.36775 0.49638 0.0
H1249 H 0.72834 0.37886 0.5459 0.0
H1250 H 0.69319 0.36703 0.50049 0.0
H1251 H 0.69906 0.37803 0.54914 0.0
H1252 H 0.76218 0.3281 0.46831 0.0
H1253 H 0.73439 0.36547 0.44733 0.0
H1254 H 0.71731 0.43848 0.54994 0.0
H1255 H 0.69374 0.42038 0.50797 0.0
Li1256 Li 0.64765 0.99635 0.76762 0.0
Li1257 Li 0.6273 0.01359 0.77886 0.0
Li1258 Li 0.62729 1.00869 0.74971 0.0
Li1259 Li 0.64746 0.02538 0.76285 0.0
C1260 C 0.61738 0.98224 0.77691 0.0
N1261 N 0.6034 0.9605 0.79676 0.0
C1262 C 0.62585 0.97617 0.78973 0.0
C1263 C 0.60181 0.97719 0.77417 0.0
C1264 C 0.61858 0.96522 0.79963 0.0
C1265 C 0.59494 0.96621 0.78434 0.0
C1266 C 0.65174 0.01623 0.79901 0.0
C1267 C 0.64773 0.03247 0.82234 0.0
N1268 N 0.65354 0.02064 0.83145 0.0
C1269 C 0.65776 1.00426 0.80861 0.0
C1270 C 0.64676 0.03049 0.80592 0.0
C1271 C 0.65855 1.00671 0.82498 0.0
C1272 C 0.6764 0.9808 0.77511 0.0
N1273 N 0.66127 0.97827 0.77006 0.0
C1274 C 0.66602 0.95039 0.76833 0.0
C1275 C 0.65598 0.96344 0.76658 0.0
C1276 C 0.68169 0.95259 0.7737 0.0
C1277 C 0.68682 0.96809 0.77709 0.0
H1278 H 0.68037 0.99273 0.77762 0.0
H1279 H 0.64393 0.96172 0.76246 0.0
C1280 C 0.60137 0.02787 0.7949 0.0
N1281 N 0.61305 0.01691 0.79664 0.0
C1282 C 0.59093 0.03128 0.80736 0.0
C1283 C 0.60445 1.01186 0.82318 0.0
C1284 C 0.61463 1.00883 0.81042 0.0
C1285 C 0.59243 0.02331 0.82182 0.0
H1286 H 0.60018 0.03403 0.78381 0.0
H1287 H 0.62398 1.00022 0.81169 0.0
C1288 C 0.65579 0.9975 0.73571 0.0
N1289 N 0.66596 0.9762 0.71284 0.0
C1290 C 0.66946 1.00062 0.72691 0.0
C1291 C 0.64729 0.98354 0.73291 0.0
C1292 C 0.6744 0.9897 0.71538 0.0
C1293 C 0.65263 0.97293 0.72129 0.0
C1294 C 0.62395 0.04425 0.75694 0.0
C1295 C 0.62362 0.04799 0.74087 0.0
C1296 C 0.62469 0.05636 0.76831 0.0
C1297 C 0.62418 0.06384 0.73641 0.0
C1298 C 0.62524 0.07207 0.76337 0.0
N1299 N 0.62499 0.07545 0.74766 0.0
C1300 C 0.59864 1.00253 0.73318 0.0
C1301 C 0.62053 1.00743 0.71635 0.0
C1302 C 0.58868 1.00015 0.72009 0.0
N1303 N 0.61429 1.00589 0.73111 0.0
C1304 C 0.61102 1.00509 0.70293 0.0
C1305 C 0.59486 1.0013 0.70467 0.0
H1306 H 0.59388 1.00172 0.74502 0.0
H1307 H 0.6329 1.01053 0.71495 0.0
C1308 C 0.66725 0.05146 0.77198 0.0
N1309 N 0.66094 0.04343 0.75944 0.0
C1310 C 0.67708 0.06454 0.76957 0.0
C1311 C 0.67392 0.06083 0.74135 0.0
C1312 C 0.66411 0.04782 0.74431 0.0
C1313 C 0.68058 0.0694 0.75408 0.0
H1314 H 0.6648 0.04765 0.78388 0.0
H1315 H 0.659 0.04121 0.73453 0.0
O1316 O 0.62432 0.99294 0.76702 0.0
O1317 O 0.65086 0.01403 0.78294 0.0
O1318 O 0.65089 1.00801 0.74711 0.0
O1319 O 0.62388 0.02879 0.76152 0.0
H1320 H 0.63785 0.98001 0.79212 0.0
H1321 H 0.59508 0.98166 0.76427 0.0
H1322 H 0.62499 0.9605 0.80963 0.0
H1323 H 0.58289 0.96221 0.78235 0.0
H1324 H 0.64379 0.0434 0.82784 0.0
H1325 H 0.66173 0.99318 0.8035 0.0
H1326 H 0.64196 0.03982 0.79871 0.0
H1327 H 0.66312 0.99753 0.83255 0.0
H1328 H 0.66147 0.93867 0.7657 0.0
H1329 H 0.69885 0.97042 0.78101 0.0
H1330 H 0.5817 0.04001 0.80562 0.0
H1331 H 0.60624 1.00555 0.83413 0.0
H1332 H 0.67617 1.01136 0.72897 0.0
H1333 H 0.63668 0.98094 0.73961 0.0
H1334 H 0.68496 0.99196 0.70847 0.0
H1335 H 0.64617 0.96208 0.719 0.0
H1336 H 0.62314 0.03876 0.73192 0.0
H1337 H 0.6249 0.05367 0.7808 0.0
H1338 H 0.62403 0.06692 0.72401 0.0
H1339 H 0.62589 0.08156 0.77204 0.0
H1340 H 0.57634 0.99718 0.72206 0.0
H1341 H 0.61626 1.00643 0.6913 0.0
H1342 H 0.68215 0.07058 0.77976 0.0
H1343 H 0.67613 0.0642 0.72921 0.0
Li1344 Li 0.02881 0.26319 0.87876 0.0
Li1345 Li 0.01109 0.2754 0.89878 0.0
Li1346 Li 0.01683 0.24581 0.89835 0.0
Li1347 Li 0.99914 0.25767 0.8782 0.0
C1348 C 0.0473 0.26724 0.90421 0.0
N1349 N 0.07925 0.274 0.90749 0.0
C1350 C 0.05217 0.28232 0.90908 0.0
C1351 C 0.05866 0.25554 0.90121 0.0
C1352 C 0.06838 0.28552 0.91062 0.0
C1353 C 0.07476 0.25921 0.90287 0.0
C1354 C 1.00508 0.2925 0.87106 0.0
C1355 C 0.98323 0.3106 0.86767 0.0
N1356 N 0.99354 0.32179 0.86249 0.0
C1357 C 0.01543 0.30411 0.86549 0.0
C1358 C 0.98883 0.29571 0.87198 0.0
C1359 C 1.00938 0.31887 0.8613 0.0
C1360 C 0.05168 0.25609 0.85473 0.0
N1361 N 0.04717 0.26704 0.86576 0.0
C1362 C 0.0684 0.28414 0.85803 0.0
C1363 C 0.05523 0.28088 0.86753 0.0
C1364 C 0.07332 0.27311 0.84645 0.0
C1365 C 0.06478 0.25887 0.84494 0.0
H1366 H 0.04497 0.24526 0.85338 0.0
H1367 H 0.05139 0.28946 0.8763 0.0
C1368 C 0.9988 0.29241 0.92543 0.0
N1369 N 1.00758 0.29378 0.912 0.0
C1370 C 0.9959 0.30564 0.93511 0.0
C1371 C 0.0115 0.3214 0.91722 0.0
C1372 C 0.01408 0.30788 0.9079 0.0
C1373 C 1.0022 0.32045 0.93102 0.0
H1374 H 0.99399 0.28104 0.92864 0.0
H1375 H 0.02146 0.30861 0.89748 0.0
C1376 C 0.01918 0.22698 0.8725 0.0
N1377 N 0.02271 0.19472 0.86834 0.0
C1378 C 1.00623 0.2177 0.86781 0.0
C1379 C 0.03397 0.21988 0.87486 0.0
C1380 C 1.00825 0.2014 0.86582 0.0
C1381 C 0.0355 0.20354 0.87277 0.0
C1382 C 0.98071 0.2562 0.90614 0.0
C1383 C 0.97455 0.24194 0.91169 0.0
C1384 C 0.9709 0.2695 0.90543 0.0
C1385 C 0.95857 0.24114 0.91608 0.0
C1386 C 0.95499 0.26824 0.90993 0.0
N1387 N 0.9492 0.25419 0.91509 0.0
C1388 C 0.03169 0.22825 0.92281 0.0
C1389 C 0.01123 0.21433 0.90942 0.0
C1390 C 0.03456 0.21527 0.93254 0.0
N1391 N 0.02024 0.22755 0.91145 0.0
C1392 C 0.01375 0.20105 0.91883 0.0
C1393 C 0.02557 0.20137 0.9306 0.0
H1394 H 0.0386 0.23892 0.92435 0.0
H1395 H 1.002 0.21409 0.90053 0.0
C1396 C 0.98119 0.26199 0.85026 0.0
N1397 N 0.98109 0.25449 0.86443 0.0
C1398 C 0.96849 0.26023 0.8397 0.0
C1399 C 0.95586 0.2428 0.85831 0.0
C1400 C 0.96882 0.24488 0.86851 0.0
C1401 C 0.95555 0.25054 0.84366 0.0
H1402 H 0.99115 0.26941 0.84716 0.0
H1403 H 0.96916 0.23861 0.87956 0.0
O1404 O 0.03149 0.26394 0.90241 0.0
O1405 O 1.01083 0.27801 0.87531 0.0
O1406 O 0.01739 0.24293 0.87466 0.0
O1407 O 0.99632 0.25715 0.90174 0.0
H1408 H 0.04354 0.29147 0.91156 0.0
H1409 H 0.05509 0.24377 0.8976 0.0
H1410 H 0.07232 0.29717 0.9143 0.0
H1411 H 0.08368 0.25029 0.9005 0.0
H1412 H 0.97067 0.31324 0.86837 0.0
H1413 H 0.02801 0.30179 0.86451 0.0
H1414 H 0.98059 0.28675 0.87581 0.0
H1415 H 0.01728 0.32799 0.8571 0.0
H1416 H 0.07469 0.29518 0.85981 0.0
H1417 H 0.06795 0.2501 0.83606 0.0
H1418 H 0.98858 0.3043 0.94555 0.0
H1419 H 0.01693 0.33244 0.91376 0.0
H1420 H 0.99473 0.223 0.86584 0.0
H1421 H 0.04414 0.2269 0.87832 0.0
H1422 H 0.99831 0.19407 0.86228 0.0
H1423 H 0.04685 0.19788 0.87466 0.0
H1424 H 0.98198 0.23157 0.91251 0.0
H1425 H 0.97554 0.28074 0.90163 0.0
H1426 H 0.95363 0.23015 0.92028 0.0
H1427 H 0.94727 0.27844 0.90939 0.0
H1428 H 0.04389 0.21605 0.94134 0.0
H1429 H 1.00633 0.19072 0.91705 0.0
H1430 H 0.96875 0.26655 0.82861 0.0
H1431 H 0.94633 0.23495 0.86176 0.0
Li1432 Li 0.52828 0.76329 0.37918 0.0
Li1433 Li 0.51051 0.77522 0.39937 0.0
Li1434 Li 0.51689 0.74581 0.39887 0.0
Li1435 Li 0.49883 0.75721 0.37882 0.0
C1436 C 0.54681 0.76855 0.40402 0.0
N1437 N 0.57832 0.77744 0.406 0.0
C1438 C 0.55082 0.78407 0.40822 0.0
C1439 C 0.55881 0.75751 0.40099 0.0
C1440 C 0.56683 0.78834 0.40913 0.0
C1441 C 0.57467 0.76225 0.402 0.0
C1442 C 0.50319 0.79172 0.37126 0.0
C1443 C 0.48008 0.80821 0.36791 0.0
N1444 N 0.48942 0.81972 0.36173 0.0
C1445 C 0.51253 0.80364 0.36469 0.0
C1446 C 0.48681 0.79396 0.37273 0.0
C1447 C 0.50535 0.81774 0.36002 0.0
C1448 C 0.55183 0.75617 0.3558 0.0
N1449 N 0.54644 0.7675 0.36602 0.0
C1450 C 0.56661 0.7854 0.35738 0.0
C1451 C 0.55354 0.78192 0.36693 0.0
C1452 C 0.57244 0.77397 0.34664 0.0
C1453 C 0.56487 0.75915 0.34599 0.0
H1454 H 0.54589 0.74485 0.35512 0.0
H1455 H 0.54904 0.79076 0.37511 0.0
C1456 C 0.49988 0.79086 0.42727 0.0
N1457 N 0.5067 0.7933 0.4129 0.0
C1458 C 0.49683 0.80359 0.43754 0.0
C1459 C 0.50821 0.82113 0.41825 0.0
C1460 C 0.51102 0.80806 0.40834 0.0
C1461 C 0.50095 0.81903 0.43308 0.0
H1462 H 0.49683 0.77898 0.43078 0.0
H1463 H 0.51679 0.80972 0.39706 0.0
C1464 C 0.51916 0.72679 0.37353 0.0
N1465 N 0.52282 0.69444 0.37044 0.0
C1466 C 0.5063 0.71735 0.36898 0.0
C1467 C 0.53393 0.71982 0.37635 0.0
C1468 C 0.50838 0.70101 0.36751 0.0
C1469 C 0.53553 0.70343 0.37478 0.0
C1470 C 0.48071 0.75584 0.40732 0.0
C1471 C 0.4745 0.74151 0.41262 0.0
C1472 C 0.47116 0.76936 0.40752 0.0
C1473 C 0.45872 0.74087 0.41769 0.0
C1474 C 0.45545 0.76825 0.41268 0.0
N1475 N 0.44959 0.75414 0.4176 0.0
C1476 C 0.5327 0.72883 0.42302 0.0
C1477 C 0.51185 0.71445 0.41077 0.0
C1478 C 0.53607 0.71611 0.43293 0.0
N1479 N 0.52082 0.72778 0.41214 0.0
C1480 C 0.51482 0.70143 0.42044 0.0
C1481 C 0.52711 0.70212 0.43172 0.0
H1482 H 0.53953 0.73961 0.42409 0.0
H1483 H 0.50239 0.71387 0.40214 0.0
C1484 C 0.48132 0.76061 0.35059 0.0
N1485 N 0.48084 0.75369 0.36505 0.0
C1486 C 0.46878 0.75867 0.33989 0.0
C1487 C 0.4555 0.74223 0.35896 0.0
C1488 C 0.46831 0.7445 0.36931 0.0
C1489 C 0.45559 0.74937 0.34399 0.0
H1490 H 0.49148 0.76772 0.34738 0.0
H1491 H 0.46833 0.73871 0.38063 0.0
O1492 O 0.5312 0.76421 0.40281 0.0
O1493 O 0.51005 0.77785 0.37592 0.0
O1494 O 0.51731 0.74279 0.37518 0.0
O1495 O 0.49616 0.75666 0.40235 0.0
H1496 H 0.54169 0.79274 0.41066 0.0
H1497 H 0.5559 0.74544 0.39781 0.0
H1498 H 0.57011 0.80033 0.41228 0.0
H1499 H 0.58408 0.75385 0.39959 0.0
H1500 H 0.46742 0.81009 0.36902 0.0
H1501 H 0.52519 0.80207 0.36328 0.0
H1502 H 0.47934 0.78472 0.37735 0.0
H1503 H 0.51246 0.8271 0.35502 0.0
H1504 H 0.57215 0.79691 0.3585 0.0
H1505 H 0.56876 0.75003 0.33777 0.0
H1506 H 0.49149 0.80131 0.44895 0.0
H1507 H 0.51154 0.83279 0.41422 0.0
H1508 H 0.49481 0.72255 0.3667 0.0
H1509 H 0.54402 0.72696 0.3798 0.0
H1510 H 0.49851 0.69354 0.36407 0.0
H1511 H 0.54686 0.69786 0.37702 0.0
H1512 H 0.48174 0.73097 0.41273 0.0
H1513 H 0.47586 0.78065 0.40392 0.0
H1514 H 0.45374 0.72983 0.42171 0.0
H1515 H 0.44793 0.77862 0.41286 0.0
H1516 H 0.54547 0.71735 0.44161 0.0
H1517 H 0.50769 0.69087 0.41892 0.0
H1518 H 0.46936 0.76455 0.32858 0.0
H1519 H 0.44576 0.73471 0.36255 0.0
Li1520 Li 0.01806 0.77914 0.62914 0.0
Li1521 Li 1.00017 0.76642 0.64985 0.0
Li1522 Li 0.02862 0.76119 0.64909 0.0
Li1523 Li 0.01173 0.74946 0.62928 0.0
C1524 C 0.02599 0.788 0.66494 0.0
N1525 N 0.04364 0.79885 0.69039 0.0
C1526 C 0.022 0.78349 0.68031 0.0
C1527 C 0.03889 0.79808 0.6625 0.0
C1528 C 0.0311 0.78909 0.69303 0.0
C1529 C 0.04767 0.80343 0.67553 0.0
C1530 C 0.98199 0.77317 0.62424 0.0
C1531 C 0.95369 0.7687 0.62409 0.0
N1532 N 0.95132 0.78416 0.62049 0.0
C1533 C 0.97927 0.78899 0.62045 0.0
C1534 C 0.96911 0.76291 0.62598 0.0
C1535 C 0.96367 0.79432 0.61863 0.0
C1536 C 0.0241 0.79479 0.6003 0.0
N1537 N 0.0216 0.79716 0.61606 0.0
C1538 C 0.02406 0.82515 0.61297 0.0
C1539 C 0.02145 0.81196 0.62249 0.0
C1540 C 0.02677 0.82311 0.59662 0.0
C1541 C 0.02672 0.80764 0.59033 0.0
H1542 H 0.02414 0.78288 0.5955 0.0
H1543 H 0.01922 0.81354 0.63503 0.0
C1544 C 0.97924 0.7588 0.67479 0.0
N1545 N 0.98213 0.76982 0.66354 0.0
C1546 C 0.96624 0.76038 0.68497 0.0
C1547 C 0.95962 0.78494 0.67224 0.0
C1548 C 0.97281 0.7829 0.66232 0.0
C1549 C 0.95608 0.77351 0.6837 0.0
H1550 H 0.98711 0.74879 0.67596 0.0
H1551 H 0.97558 0.79176 0.65363 0.0
C1552 C 0.04813 0.75778 0.62403 0.0
N1553 N 0.08029 0.75216 0.62078 0.0
C1554 C 0.05455 0.74327 0.62854 0.0
C1555 C 0.05805 0.76942 0.61781 0.0
C1556 C 0.07084 0.74067 0.62683 0.0
C1557 C 0.07428 0.76635 0.61626 0.0
C1558 C 1.00696 0.73043 0.65304 0.0
C1559 C 0.01844 0.71878 0.65558 0.0
C1560 C 0.99113 0.72603 0.6507 0.0
C1561 C 0.01387 0.7029 0.65569 0.0
C1562 C 0.98704 0.71003 0.65086 0.0
N1563 N 0.9984 0.69889 0.65333 0.0
C1564 C 0.04473 0.7481 0.67536 0.0
C1565 C 0.06087 0.76542 0.66055 0.0
C1566 C 0.05732 0.74493 0.68566 0.0
N1567 N 0.04676 0.75793 0.66289 0.0
C1568 C 0.07379 0.7626 0.67055 0.0
C1569 C 0.07219 0.75207 0.68324 0.0
H1570 H 0.03327 0.74274 0.67739 0.0
H1571 H 0.06214 0.7736 0.65089 0.0
C1572 C 0.99515 0.73236 0.60523 0.0
N1573 N 1.00768 0.7316 0.61537 0.0
C1574 C 0.9916 0.71962 0.59513 0.0
C1575 C 0.01401 0.70555 0.60589 0.0
C1576 C 0.01718 0.71859 0.6157 0.0
C1577 C 1.00103 0.70589 0.5954 0.0
H1578 H 0.98793 0.7429 0.6049 0.0
H1579 H 0.02716 0.71822 0.62369 0.0
O1580 O 0.01751 0.78228 0.65233 0.0
O1581 O 0.99718 0.76775 0.62611 0.0
O1582 O 0.03222 0.7606 0.62561 0.0
O1583 O 0.01121 0.74605 0.65271 0.0
H1584 H 0.0121 0.77561 0.68237 0.0
H1585 H 0.04222 0.80153 0.65065 0.0
H1586 H 0.02822 0.78563 0.70499 0.0
H1587 H 0.05775 0.81116 0.67382 0.0
H1588 H 0.94362 0.7609 0.62547 0.0
H1589 H 0.98907 0.7971 0.61902 0.0
H1590 H 0.97098 0.75061 0.62878 0.0
H1591 H 0.9614 0.80655 0.61576 0.0
H1592 H 0.02374 0.83684 0.61832 0.0
H1593 H 0.02892 0.80545 0.57786 0.0
H1594 H 0.96431 0.75148 0.69388 0.0
H1595 H 0.95216 0.79525 0.67078 0.0
H1596 H 0.0471 0.73426 0.63364 0.0
H1597 H 0.05328 0.78073 0.61429 0.0
H1598 H 0.07599 0.72954 0.6304 0.0
H1599 H 0.08211 0.77525 0.6115 0.0
H1600 H 0.03078 0.72192 0.65721 0.0
H1601 H 0.98209 0.73487 0.64874 0.0
H1602 H 0.02264 0.69376 0.65756 0.0
H1603 H 0.97483 0.70646 0.64902 0.0
H1604 H 0.05536 0.73707 0.6955 0.0
H1605 H 0.08499 0.76839 0.66818 0.0
H1606 H 0.98167 0.72062 0.58705 0.0
H1607 H 0.02154 0.69521 0.6067 0.0
Li1608 Li 0.51671 0.27786 0.12753 0.0
Li1609 Li 0.49945 0.2655 0.14771 0.0
Li1610 Li 0.52917 0.25994 0.14721 0.0
Li1611 Li 0.51086 0.2484 0.12722 0.0
C1612 C 0.52244 0.29504 0.15577 0.0
N1613 N 0.53213 0.32489 0.16526 0.0
C1614 C 0.51136 0.30598 0.16153 0.0
C1615 C 0.53849 0.2992 0.1551 0.0
C1616 C 0.51648 0.32104 0.16619 0.0
C1617 C 0.54314 0.31437 0.15988 0.0
C1618 C 0.4805 0.27078 0.12276 0.0
C1619 C 0.45264 0.2643 0.12416 0.0
N1620 N 0.44896 0.27939 0.12012 0.0
C1621 C 0.47645 0.28619 0.1185 0.0
C1622 C 0.46852 0.2597 0.12549 0.0
C1623 C 0.46043 0.29032 0.11726 0.0
C1624 C 0.52765 0.29341 0.10012 0.0
N1625 N 0.52028 0.29597 0.11426 0.0
C1626 C 0.51828 0.32366 0.10883 0.0
C1627 C 0.51544 0.31073 0.11865 0.0
C1628 C 0.52614 0.32142 0.09428 0.0
C1629 C 0.53077 0.30599 0.08997 0.0
H1630 H 0.53109 0.28154 0.0967 0.0
H1631 H 0.50923 0.3125 0.1297 0.0
C1632 C 0.47849 0.25736 0.17254 0.0
N1633 N 0.48144 0.26859 0.16153 0.0
C1634 C 0.46551 0.25882 0.18279 0.0
C1635 C 0.45887 0.28354 0.17037 0.0
C1636 C 0.47201 0.28161 0.16039 0.0
C1637 C 0.45541 0.27202 0.18177 0.0
H1638 H 0.48627 0.24725 0.17345 0.0
H1639 H 0.47465 0.2905 0.15169 0.0
C1640 C 0.5469 0.25937 0.11904 0.0
N1641 N 0.57836 0.25893 0.10973 0.0
C1642 C 0.55354 0.24559 0.11261 0.0
C1643 C 0.55619 0.273 0.12049 0.0
C1644 C 0.56949 0.24557 0.10804 0.0
C1645 C 0.57208 0.27252 0.11578 0.0
C1646 C 0.50867 0.22925 0.15203 0.0
C1647 C 0.52132 0.21934 0.15598 0.0
C1648 C 0.49362 0.22278 0.1494 0.0
C1649 C 0.51874 0.20306 0.157 0.0
C1650 C 0.49151 0.20645 0.15051 0.0
N1651 N 0.50402 0.19701 0.15424 0.0
C1652 C 0.54901 0.2643 0.17414 0.0
C1653 C 0.55893 0.24573 0.15546 0.0
C1654 C 0.5622 0.26196 0.18394 0.0
N1655 N 0.54768 0.25633 0.16012 0.0
C1656 C 0.57231 0.24303 0.16487 0.0
C1657 C 0.57413 0.25122 0.17935 0.0
H1658 H 0.5398 0.27249 0.17775 0.0
H1659 H 0.55742 0.23914 0.14454 0.0
C1660 C 0.49464 0.23073 0.10341 0.0
N1661 N 0.50704 0.23028 0.11371 0.0
C1662 C 0.49128 0.21774 0.09358 0.0
C1663 C 0.51365 0.20406 0.10494 0.0
C1664 C 0.51659 0.21733 0.11453 0.0
C1665 C 0.5008 0.2041 0.09429 0.0
H1666 H 0.48736 0.24123 0.10276 0.0
H1667 H 0.52646 0.21725 0.12272 0.0
O1668 O 0.51762 0.28025 0.15112 0.0
O1669 O 0.49612 0.26656 0.12416 0.0
O1670 O 0.53131 0.25956 0.12364 0.0
O1671 O 0.51102 0.24519 0.15076 0.0
H1672 H 0.49892 0.30292 0.16229 0.0
H1673 H 0.54729 0.29077 0.15111 0.0
H1674 H 0.50801 0.32965 0.17056 0.0
H1675 H 0.55552 0.31775 0.15938 0.0
H1676 H 0.44325 0.25588 0.12633 0.0
H1677 H 0.48555 0.29488 0.11624 0.0
H1678 H 0.47144 0.24771 0.12866 0.0
H1679 H 0.45712 0.30222 0.11405 0.0
H1680 H 0.51453 0.33532 0.11271 0.0
H1681 H 0.53658 0.3036 0.07876 0.0
H1682 H 0.46357 0.24978 0.19156 0.0
H1683 H 0.45139 0.29385 0.16901 0.0
H1684 H 0.54649 0.23498 0.11123 0.0
H1685 H 0.55115 0.28387 0.12504 0.0
H1686 H 0.57481 0.23495 0.10315 0.0
H1687 H 0.57941 0.28298 0.11688 0.0
H1688 H 0.53302 0.22415 0.15815 0.0
H1689 H 0.48368 0.23029 0.14647 0.0
H1690 H 0.52844 0.19525 0.15997 0.0
H1691 H 0.47994 0.20128 0.1484 0.0
H1692 H 0.56309 0.26864 0.19493 0.0
H1693 H 0.58098 0.23437 0.16098 0.0
H1694 H 0.48143 0.21848 0.08538 0.0
H1695 H 0.52123 0.19379 0.10605 0.0
H1696 H 0.25539 0.78349 0.8728 0.0
H1697 H 0.22011 0.83671 0.94372 0.0
H1698 H 0.20531 0.79068 0.88101 0.0
H1699 H 0.2703 0.82915 0.93657 0.0
H1700 H 0.2146 0.81978 0.92079 0.0
H1701 H 0.26121 0.79973 0.89628 0.0
C1702 C 0.24561 0.78837 0.87957 0.0
C1703 C 0.22982 0.78573 0.87482 0.0
C1704 C 0.22683 0.8218 0.92422 0.0
C1705 C 0.23642 0.80451 0.90168 0.0
C1706 C 0.23 0.83158 0.93728 0.0
C1707 C 0.24572 0.83447 0.9421 0.0
C1708 C 0.23944 0.81481 0.9158 0.0
C1709 C 0.258 0.82717 0.93342 0.0
C1710 C 0.24894 0.79773 0.89294 0.0
C1711 C 0.21766 0.79258 0.88401 0.0
N1712 N 0.2546 0.81773 0.92069 0.0
N1713 N 0.22121 0.80163 0.89694 0.0
H1714 H 0.04089 0.52126 0.41045 0.0
H1715 H 0.07354 0.54975 0.32618 0.0
H1716 H 0.02724 0.56501 0.38841 0.0
H1717 H 0.08787 0.50609 0.348 0.0
H1718 H 0.05593 0.55505 0.34856 0.0
H1719 H 0.05742 0.51496 0.38737 0.0
C1720 C 0.04125 0.52948 0.40072 0.0
C1721 C 0.03268 0.54373 0.40145 0.0
C1722 C 0.0629 0.54429 0.34847 0.0
C1723 C 0.05176 0.53666 0.37502 0.0
C1724 C 0.07292 0.5412 0.33561 0.0
C1725 C 0.08224 0.52743 0.33513 0.0
C1726 C 0.06212 0.53354 0.36102 0.0
C1727 C 0.08108 0.51696 0.34791 0.0
C1728 C 0.05078 0.52592 0.38758 0.0
C1729 C 0.0338 0.55401 0.38852 0.0
N1730 N 0.07122 0.52022 0.3603 0.0
N1731 N 0.04316 0.55028 0.3759 0.0
H1732 H 0.77849 0.76615 0.89744 0.0
H1733 H 0.77758 0.67544 0.92416 0.0
H1734 H 0.78722 0.72705 0.86533 0.0
H1735 H 0.77122 0.71488 0.95643 0.0
H1736 H 0.78114 0.69404 0.90248 0.0
H1737 H 0.77582 0.7475 0.91913 0.0
C1738 C 0.77999 0.75366 0.89494 0.0
C1739 C 0.78314 0.74823 0.87946 0.0
C1740 C 0.77897 0.69863 0.91431 0.0
C1741 C 0.77984 0.72667 0.90435 0.0
C1742 C 0.77702 0.688 0.92674 0.0
C1743 C 0.77406 0.69354 0.94222 0.0
C1744 C 0.77797 0.71497 0.9173 0.0
C1745 C 0.77322 0.70999 0.9447 0.0
C1746 C 0.77835 0.74298 0.90735 0.0
C1747 C 0.78461 0.73182 0.87698 0.0
N1748 N 0.77516 0.72008 0.93241 0.0
N1749 N 0.78295 0.72165 0.88927 0.0
H1750 H 1.00873 0.98316 0.38696 0.0
H1751 H 0.92064 0.99462 0.35266 0.0
H1752 H 0.96621 0.97951 0.41521 0.0
H1753 H 0.96291 0.99879 0.32409 0.0
H1754 H 0.93726 0.98958 0.37575 0.0
H1755 H 0.99232 0.98949 0.36394 0.0
C1756 C 0.99597 0.9838 0.38838 0.0
C1757 C 0.98888 0.98072 0.40309 0.0
C1758 C 0.94292 0.99161 0.36444 0.0
C1759 C 0.96996 0.98782 0.37667 0.0
C1760 C 0.93342 0.99459 0.35123 0.0
C1761 C 0.94033 0.99717 0.33633 0.0
C1762 C 0.95953 0.99118 0.36284 0.0
C1763 C 0.957 0.99667 0.33525 0.0
C1764 C 0.98659 0.98732 0.37518 0.0
C1765 C 0.97223 0.98153 0.40409 0.0
N1766 N 0.966 0.99375 0.34829 0.0
N1767 N 0.96338 0.98497 0.3911 0.0
H1768 H 0.2316 0.21603 0.66753 0.0
H1769 H 0.24687 0.21329 0.57378 0.0
H1770 H 0.23243 0.25764 0.63839 0.0
H1771 H 0.2467 0.17197 0.60335 0.0
H1772 H 0.24222 0.2298 0.59728 0.0
H1773 H 0.23753 0.19982 0.64417 0.0
C1774 C 0.23297 0.22178 0.65621 0.0
C1775 C 0.23141 0.23826 0.65496 0.0
C1776 C 0.24322 0.21712 0.59863 0.0
C1777 C 0.23837 0.21968 0.62806 0.0
C1778 C 0.24597 0.20767 0.58521 0.0
C1779 C 0.24717 0.19115 0.58652 0.0
C1780 C 0.24164 0.21006 0.61354 0.0
C1781 C 0.24563 0.18459 0.60167 0.0
C1782 C 0.23645 0.2125 0.64287 0.0
C1783 C 0.23366 0.24501 0.63998 0.0
N1784 N 0.24295 0.19403 0.61454 0.0
N1785 N 0.23695 0.23571 0.62714 0.0
H1786 H 0.50812 0.54151 0.63913 0.0
H1787 H 0.41995 0.53154 0.67364 0.0
H1788 H 0.46559 0.54701 0.61117 0.0
H1789 H 0.4623 0.52533 0.70173 0.0
H1790 H 0.43655 0.5368 0.65058 0.0
H1791 H 0.49166 0.53506 0.66205 0.0
C1792 C 0.49534 0.54126 0.63775 0.0
C1793 C 0.48828 0.54488 0.62315 0.0
C1794 C 0.44223 0.53428 0.66178 0.0
C1795 C 0.4693 0.53765 0.64948 0.0
C1796 C 0.43274 0.53117 0.67497 0.0
C1797 C 0.43969 0.52796 0.68973 0.0
C1798 C 0.45885 0.53419 0.66327 0.0
C1799 C 0.45637 0.52795 0.69069 0.0
C1800 C 0.48593 0.53766 0.6509 0.0
C1801 C 0.4716 0.54456 0.62221 0.0
N1802 N 0.46535 0.531 0.67767 0.0
N1803 N 0.46272 0.54103 0.63516 0.0
H1804 H 0.79206 0.29631 0.66251 0.0
H1805 H 0.76277 0.31065 0.57335 0.0
H1806 H 0.7708 0.26033 0.6327 0.0
H1807 H 0.78473 0.34701 0.60214 0.0
H1808 H 0.76594 0.2921 0.59504 0.0
H1809 H 0.79014 0.31496 0.64056 0.0
C1810 C 0.78709 0.29228 0.65134 0.0
C1811 C 0.78149 0.2767 0.64954 0.0
C1812 C 0.77009 0.30413 0.59664 0.0
C1813 C 0.77913 0.29807 0.62437 0.0
C1814 C 0.76818 0.31478 0.58427 0.0
C1815 C 0.7734 0.3305 0.5859 0.0
C1816 C 0.77725 0.30914 0.61087 0.0
C1817 C 0.78064 0.33501 0.60026 0.0
C1818 C 0.78592 0.30297 0.63883 0.0
C1819 C 0.77501 0.27226 0.6348 0.0
N1820 N 0.7823 0.32441 0.6122 0.0
N1821 N 0.77399 0.28286 0.62285 0.0
H1822 H 0.55659 0.9691 0.61447 0.0
H1823 H 0.56383 1.01048 0.70005 0.0
H1824 H 0.51904 0.99685 0.63573 0.0
H1825 H 0.6023 0.98561 0.67698 0.0
H1826 H 0.54708 1.00527 0.6769 0.0
H1827 H 0.57336 0.97493 0.63735 0.0
C1828 C 0.55188 0.97654 0.62386 0.0
C1829 C 0.53632 0.98252 0.62304 0.0
C1830 C 0.55919 1.00098 0.67689 0.0
C1831 C 0.55551 0.98906 0.64958 0.0
C1832 C 0.56876 1.00387 0.69016 0.0
C1833 C 0.58455 0.99847 0.69053 0.0
C1834 C 0.56539 0.99255 0.66385 0.0
C1835 C 0.59029 0.99018 0.6772 0.0
C1836 C 0.56146 0.97978 0.63702 0.0
C1837 C 0.53085 0.99181 0.63585 0.0
N1838 N 0.58073 0.98745 0.66447 0.0
N1839 N 0.54041 0.99477 0.64855 0.0
H1840 H 0.8962 0.23872 0.76016 0.0
H1841 H 0.92369 0.2488 0.85071 0.0
H1842 H 0.86342 0.24169 0.79937 0.0
H1843 H 0.95618 0.24748 0.81119 0.0
H1844 H 0.90153 0.24544 0.83225 0.0
H1845 H 0.9183 0.2411 0.77878 0.0
C1846 C 0.89363 0.23974 0.7727 0.0
C1847 C 0.87786 0.23997 0.77816 0.0
C1848 C 0.9135 0.24589 0.82761 0.0
C1849 C 0.90324 0.24291 0.79963 0.0
C1850 C 0.9262 0.24772 0.83817 0.0
C1851 C 0.94189 0.24845 0.83254 0.0
C1852 C 0.91646 0.24473 0.81126 0.0
C1853 C 0.94431 0.24721 0.8161 0.0
C1854 C 0.90628 0.24121 0.78333 0.0
C1855 C 0.87533 0.24163 0.79456 0.0
N1856 N 0.93177 0.2454 0.80608 0.0
N1857 N 0.88786 0.24302 0.80469 0.0
H1858 H 0.45771 0.886 0.49872 0.0
H1859 H 0.51962 0.84523 0.43875 0.0
H1860 H 0.50216 0.90744 0.48534 0.0
H1861 H 0.47482 0.82434 0.45192 0.0
H1862 H 0.51377 0.86784 0.45608 0.0
H1863 H 0.46417 0.86305 0.48216 0.0
C1864 C 0.46882 0.88591 0.49227 0.0
C1865 C 0.47935 0.89877 0.49339 0.0
C1866 C 0.50523 0.85829 0.45521 0.0
C1867 C 0.48691 0.87234 0.47441 0.0
C1868 C 0.50851 0.8454 0.44522 0.0
C1869 C 0.49769 0.83281 0.4438 0.0
C1870 C 0.49099 0.85868 0.46387 0.0
C1871 C 0.48363 0.83363 0.45274 0.0
C1872 C 0.47254 0.87274 0.48286 0.0
C1873 C 0.49373 0.89779 0.48497 0.0
N1874 N 0.48068 0.84633 0.46233 0.0
N1875 N 0.49704 0.88486 0.4758 0.0
H1876 H 0.1434 0.31932 0.78751 0.0
H1877 H 0.09652 0.25269 0.83562 0.0
H1878 H 0.15839 0.27056 0.78908 0.0
H1879 H 0.08158 0.30142 0.83305 0.0
H1880 H 0.11895 0.25876 0.8183 0.0
H1881 H 0.12058 0.31279 0.804 0.0
C1882 C 0.14194 0.30723 0.79137 0.0
C1883 C 0.15294 0.29551 0.78694 0.0
C1884 C 0.11076 0.26812 0.82153 0.0
C1885 C 0.12661 0.28788 0.80581 0.0
C1886 C 0.09788 0.26465 0.83136 0.0
C1887 C 0.08709 0.27656 0.83589 0.0
C1888 C 0.11293 0.28362 0.81611 0.0
C1889 C 0.08967 0.29188 0.83014 0.0
C1890 C 0.12883 0.30349 0.80074 0.0
C1891 C 0.15018 0.27998 0.79207 0.0
N1892 N 0.10228 0.29495 0.82059 0.0
N1893 N 0.13735 0.27664 0.80127 0.0
H1894 H 0.52083 0.61916 0.49166 0.0
H1895 H 0.55619 0.69107 0.44146 0.0
H1896 H 0.57081 0.62993 0.48835 0.0
H1897 H 0.50599 0.68171 0.4458 0.0
H1898 H 0.56164 0.66875 0.45872 0.0
H1899 H 0.51503 0.64206 0.47513 0.0
C1900 C 0.53059 0.62638 0.48757 0.0
C1901 C 0.54636 0.62251 0.4914 0.0
C1902 C 0.54942 0.67157 0.45591 0.0
C1903 C 0.53979 0.64871 0.47227 0.0
C1904 C 0.54628 0.6844 0.44611 0.0
C1905 C 0.53058 0.68837 0.44214 0.0
C1906 C 0.5368 0.66253 0.46187 0.0
C1907 C 0.51829 0.67902 0.44833 0.0
C1908 C 0.52727 0.63941 0.47804 0.0
C1909 C 0.5585 0.63224 0.48553 0.0
N1910 N 0.52166 0.66658 0.45788 0.0
N1911 N 0.55496 0.64483 0.47628 0.0
H1912 H 0.88238 0.8079 0.74784 0.0
H1913 H 0.93594 0.75023 0.69396 0.0
H1914 H 0.87684 0.7572 0.74572 0.0
H1915 H 0.94389 0.80056 0.69766 0.0
H1916 H 0.91351 0.75289 0.71203 0.0
H1917 H 0.90391 0.80582 0.72841 0.0
C1918 C 0.88559 0.79635 0.74322 0.0
C1919 C 0.8778 0.7827 0.74854 0.0
C1920 C 0.92013 0.76338 0.70889 0.0
C1921 C 0.90257 0.78022 0.72635 0.0
C1922 C 0.93304 0.76185 0.69861 0.0
C1923 C 0.94198 0.77517 0.69431 0.0
C1924 C 0.91599 0.77834 0.71498 0.0
C1925 C 0.93732 0.78997 0.7005 0.0
C1926 C 0.89796 0.79516 0.73219 0.0
C1927 C 0.88264 0.76803 0.74222 0.0
N1928 N 0.9247 0.79114 0.71055 0.0
N1929 N 0.89468 0.76719 0.73152 0.0
H1930 H 0.06053 0.91129 0.55717 0.0
H1931 H 0.01581 0.8282 0.56637 0.0
H1932 H 0.02869 0.89205 0.5218 0.0
H1933 H 0.04442 0.84974 0.60313 0.0
H1934 H 0.02099 0.85099 0.54953 0.0
H1935 H 0.05515 0.88855 0.57385 0.0
C1936 C 0.0523 0.90236 0.55292 0.0
C1937 C 0.045 0.90372 0.53802 0.0
C1938 C 0.02612 0.85074 0.56129 0.0
C1939 C 0.03897 0.87735 0.5571 0.0
C1940 C 0.02325 0.83767 0.5709 0.0
C1941 C 0.02968 0.83699 0.58624 0.0
C1942 C 0.03557 0.86325 0.56699 0.0
C1943 C 0.03903 0.84979 0.59149 0.0
C1944 C 0.04931 0.88929 0.56245 0.0
C1945 C 0.03474 0.89149 0.53309 0.0
N1946 N 0.04171 0.86233 0.5819 0.0
N1947 N 0.03203 0.87886 0.54259 0.0
H1948 H 0.15849 0.75573 0.7401 0.0
H1949 H 0.08046 0.72343 0.69583 0.0
H1950 H 0.143 0.70711 0.74103 0.0
H1951 H 0.0954 0.77222 0.6946 0.0
H1952 H 0.10303 0.71749 0.71288 0.0
H1953 H 0.13523 0.76225 0.72403 0.0
C1954 C 0.15016 0.74644 0.73704 0.0
C1955 C 0.1528 0.73082 0.74191 0.0
C1956 C 0.10139 0.72951 0.70891 0.0
C1957 C 0.12616 0.73819 0.72334 0.0
C1958 C 0.08841 0.73295 0.69923 0.0
C1959 C 0.08594 0.74838 0.69375 0.0
C1960 C 0.11208 0.74157 0.71322 0.0
C1961 C 0.09689 0.76012 0.69836 0.0
C1962 C 0.13692 0.75016 0.72777 0.0
C1963 C 0.14165 0.71926 0.73737 0.0
N1964 N 0.10945 0.75647 0.70781 0.0
N1965 N 0.12888 0.72317 0.72836 0.0
H1966 H 1.00652 0.62187 0.53528 0.0
H1967 H 0.97174 0.69423 0.58671 0.0
H1968 H 0.95654 0.63253 0.53919 0.0
H1969 H 0.02189 0.68583 0.58004 0.0
H1970 H 0.96599 0.67156 0.56951 0.0
H1971 H 0.01241 0.6449 0.55205 0.0
C1972 C 0.99677 0.62901 0.53969 0.0
C1973 C 0.98099 0.6252 0.53577 0.0
C1974 C 0.97826 0.67468 0.5718 0.0
C1975 C 0.98768 0.65173 0.55495 0.0
C1976 C 0.98157 0.68771 0.58156 0.0
C1977 C 0.99735 0.69205 0.58488 0.0
C1978 C 0.9908 0.66579 0.56527 0.0
C1979 C 1.00954 0.68287 0.57805 0.0
C1980 C 1.00015 0.64223 0.54921 0.0
C1981 C 0.96889 0.63508 0.54169 0.0
N1982 N 1.00601 0.67021 0.56861 0.0
N1983 N 0.97248 0.64782 0.55098 0.0
H1984 H 0.79069 0.87755 0.20517 0.0
H1985 H 0.82867 0.93467 0.27151 0.0
H1986 H 0.78333 0.87126 0.2553 0.0
H1987 H 0.83681 0.93955 0.22133 0.0
H1988 H 0.81143 0.91198 0.26593 0.0
H1989 H 0.80711 0.90063 0.21099 0.0
C1990 C 0.79258 0.88096 0.21743 0.0
C1991 C 0.78566 0.87231 0.22976 0.0
C1992 C 0.81699 0.91802 0.25615 0.0
C1993 C 0.80442 0.89901 0.23653 0.0
C1994 C 0.82678 0.93105 0.25931 0.0
C1995 C 0.83428 0.93907 0.24688 0.0
C1996 C 0.8146 0.91295 0.24042 0.0
C1997 C 0.83152 0.93364 0.23133 0.0
C1998 C 0.80191 0.89423 0.22074 0.0
C1999 C 0.78829 0.87759 0.24539 0.0
N2000 N 0.82193 0.92096 0.22856 0.0
N2001 N 0.79749 0.89055 0.24832 0.0
H2002 H 0.78626 0.15575 0.27069 0.0
H2003 H 0.83227 0.08018 0.3045 0.0
H2004 H 0.78695 0.1429 0.32002 0.0
H2005 H 0.83307 0.09322 0.25522 0.0
H2006 H 0.81519 0.10283 0.31017 0.0
H2007 H 0.80256 0.1325 0.26451 0.0
C2008 C 0.78973 0.148 0.28021 0.0
C2009 C 0.78526 0.15138 0.29592 0.0
C2010 C 0.81908 0.10076 0.2981 0.0
C2011 C 0.80408 0.12477 0.28894 0.0
C2012 C 0.82895 0.08785 0.29486 0.0
C2013 C 0.83425 0.08476 0.27935 0.0
C2014 C 0.81439 0.11076 0.28577 0.0
C2015 C 0.8292 0.095 0.26733 0.0
C2016 C 0.79913 0.13476 0.27668 0.0
C2017 C 0.7903 0.14097 0.30777 0.0
N2018 N 0.8196 0.10753 0.2708 0.0
N2019 N 0.79942 0.12819 0.30404 0.0
H2020 H 0.40899 0.98516 1.00528 0.0
H2021 H 0.32772 0.94586 0.97461 0.0
H2022 H 0.39031 0.99099 0.9581 0.0
H2023 H 0.34696 0.93829 0.02131 0.0
H2024 H 0.35019 0.96305 0.96871 0.0
H2025 H 0.386 0.96873 0.01175 0.0
C2026 C 0.40001 0.98309 0.99631 0.0
C2027 C 0.40166 0.98946 0.98109 0.0
C2028 C 0.34952 0.95765 0.98026 0.0
C2029 C 0.37533 0.97049 0.98839 0.0
C2030 C 0.33661 0.94788 0.98368 0.0
C2031 C 0.33538 0.94059 0.99851 0.0
C2032 C 0.36135 0.96024 0.99174 0.0
C2033 C 0.34747 0.94348 1.00966 0.0
C2034 C 0.38693 0.97361 0.99999 0.0
C2035 C 0.38971 0.98616 0.96991 0.0
N2036 N 0.35992 0.95308 1.00606 0.0
N2037 N 0.37709 0.97693 0.97378 0.0
H2038 H 0.26526 0.3949 0.27284 0.0
H2039 H 0.17639 0.42605 0.28719 0.0
H2040 H 0.22845 0.36613 0.29338 0.0
H2041 H 0.21305 0.45305 0.26417 0.0
H2042 H 0.19537 0.40441 0.29076 0.0
H2043 H 0.24641 0.41663 0.27067 0.0
C2044 C 0.25318 0.3931 0.27684 0.0
C2045 C 0.24845 0.37855 0.28318 0.0
C2046 C 0.19925 0.41508 0.28494 0.0
C2047 C 0.2267 0.40362 0.28087 0.0
C2048 C 0.18844 0.42748 0.28296 0.0
C2049 C 0.19307 0.44142 0.2753 0.0
C2050 C 0.21486 0.41661 0.27928 0.0
C2051 C 0.20882 0.44247 0.26991 0.0
C2052 C 0.24242 0.40558 0.27567 0.0
C2053 C 0.2327 0.37714 0.28851 0.0
N2054 N 0.2191 0.43028 0.272 0.0
N2055 N 0.22238 0.38947 0.28718 0.0
H2056 H 0.13876 0.01752 0.4777 0.0
H2057 H 0.17085 0.1033 0.50368 0.0
H2058 H 0.10825 0.05739 0.4877 0.0
H2059 H 0.20159 0.06436 0.49094 0.0
H2060 H 0.14782 0.08632 0.49898 0.0
H2061 H 0.16188 0.03407 0.48369 0.0
C2062 C 0.1369 0.02971 0.48128 0.0
C2063 C 0.12149 0.03605 0.48215 0.0
C2064 C 0.1596 0.08147 0.49721 0.0
C2065 C 0.14799 0.05516 0.48888 0.0
C2066 C 0.17278 0.09115 0.49999 0.0
C2067 C 0.18824 0.08529 0.49771 0.0
C2068 C 0.1618 0.06574 0.49215 0.0
C2069 C 0.18993 0.06948 0.49266 0.0
C2070 C 0.15013 0.0392 0.48459 0.0
C2071 C 0.11988 0.05202 0.48665 0.0
N2072 N 0.1769 0.06027 0.49008 0.0
N2073 N 0.13293 0.061 0.48983 0.0
H2074 H 0.73158 0.15857 0.76109 0.0
H2075 H 0.70364 0.07257 0.73126 0.0
H2076 H 0.75502 0.13228 0.72377 0.0
H2077 H 0.68211 0.09761 0.77055 0.0
H2078 H 0.72157 0.09492 0.72736 0.0
H2079 H 0.71244 0.13702 0.76373 0.0
C2080 C 0.73263 0.14833 0.75334 0.0
C2081 C 0.74498 0.14727 0.74219 0.0
C2082 C 0.71291 0.09554 0.73683 0.0
C2083 C 0.72312 0.12239 0.74528 0.0
C2084 C 0.70257 0.08281 0.739 0.0
C2085 C 0.69132 0.08314 0.75129 0.0
C2086 C 0.71201 0.1088 0.74697 0.0
C2087 C 0.69072 0.09669 0.76107 0.0
C2088 C 0.72174 0.13597 0.75493 0.0
C2089 C 0.74584 0.13356 0.73266 0.0
N2090 N 0.70089 0.10894 0.7587 0.0
N2091 N 0.73509 0.12169 0.73443 0.0
H2092 H 0.38689 0.01751 0.533 0.0
H2093 H 0.35075 0.10529 0.53405 0.0
H2094 H 0.41202 0.05843 0.55096 0.0
H2095 H 0.32396 0.06403 0.51978 0.0
H2096 H 0.37365 0.08838 0.53926 0.0
H2097 H 0.36401 0.03435 0.52734 0.0
C2098 C 0.38761 0.03001 0.53582 0.0
C2099 C 0.4015 0.0365 0.54248 0.0
C2100 C 0.36277 0.08301 0.53499 0.0
C2101 C 0.37529 0.05594 0.53583 0.0
C2102 C 0.34969 0.09268 0.53191 0.0
C2103 C 0.33535 0.08611 0.52644 0.0
C2104 C 0.3616 0.06659 0.53256 0.0
C2105 C 0.33467 0.06963 0.52416 0.0
C2106 C 0.37454 0.03964 0.5325 0.0
C2107 C 0.40173 0.05287 0.5456 0.0
N2108 N 0.34759 0.06046 0.52719 0.0
N2109 N 0.38887 0.06198 0.54227 0.0
H2110 H 0.62092 0.49251 0.52298 0.0
H2111 H 0.69017 0.43812 0.55837 0.0
H2112 H 0.62818 0.48499 0.57295 0.0
H2113 H 0.68488 0.4474 0.50847 0.0
H2114 H 0.66745 0.45524 0.56382 0.0
H2115 H 0.64427 0.47615 0.51733 0.0
C2116 C 0.62746 0.48753 0.53278 0.0
C2117 C 0.62247 0.49013 0.54848 0.0
C2118 C 0.67125 0.45356 0.55167 0.0
C2119 C 0.64919 0.47119 0.54205 0.0
C2120 C 0.68432 0.44383 0.54854 0.0
C2121 C 0.68955 0.44128 0.53292 0.0
C2122 C 0.66324 0.46085 0.5391 0.0
C2123 C 0.68121 0.44881 0.52068 0.0
C2124 C 0.64076 0.4781 0.52953 0.0
C2125 C 0.63136 0.48313 0.56065 0.0
N2126 N 0.6685 0.45824 0.52403 0.0
N2127 N 0.64422 0.47401 0.55718 0.0
H2128 H 0.75203 0.2747 0.38002 0.0
H2129 H 0.72013 0.34273 0.43871 0.0
H2130 H 0.707 0.29841 0.37431 0.0
H2131 H 0.76776 0.32397 0.44079 0.0
H2132 H 0.71481 0.32578 0.41575 0.0
H2133 H 0.75771 0.29183 0.40286 0.0
C2134 C 0.74335 0.28354 0.38348 0.0
C2135 C 0.72897 0.28502 0.37515 0.0
C2136 C 0.72644 0.32538 0.42121 0.0
C2137 C 0.73536 0.3046 0.40152 0.0
C2138 C 0.72953 0.33515 0.4343 0.0
C2139 C 0.74447 0.3349 0.44175 0.0
C2140 C 0.73831 0.31515 0.41546 0.0
C2141 C 0.75602 0.32449 0.43561 0.0
C2142 C 0.74658 0.29327 0.3966 0.0
C2143 C 0.71812 0.29657 0.38045 0.0
N2144 N 0.7527 0.31506 0.42286 0.0
N2145 N 0.72153 0.30586 0.39325 0.0
H2146 H 0.53391 0.01948 0.90668 0.0
H2147 H 0.58115 0.05237 0.83139 0.0
H2148 H 0.53544 0.06872 0.89384 0.0
H2149 H 0.57933 1.00294 0.84348 0.0
H2150 H 0.56394 0.05841 0.85391 0.0
H2151 H 0.54997 0.01303 0.88333 0.0
C2152 C 0.53751 0.02893 0.89891 0.0
C2153 C 0.53333 0.04469 0.90233 0.0
C2154 C 0.56727 0.04623 0.85163 0.0
C2155 C 0.5519 0.03738 0.87559 0.0
C2156 C 0.57704 0.04274 0.83869 0.0
C2157 C 0.58174 0.0271 0.83545 0.0
C2158 C 0.56209 0.034 0.86152 0.0
C2159 C 0.57622 0.0152 0.84558 0.0
C2160 C 0.54677 0.02524 0.88561 0.0
C2161 C 0.53856 0.05644 0.89188 0.0
N2162 N 0.56671 0.01889 0.85813 0.0
N2163 N 0.54755 0.05255 0.87904 0.0
H2164 H 0.25502 0.24389 0.37346 0.0
H2165 H 0.29792 0.19695 0.44353 0.0
H2166 H 0.30548 0.246 0.38231 0.0
H2167 H 0.24801 0.19265 0.43258 0.0
H2168 H 0.30097 0.21485 0.42121 0.0
H2169 H 0.25229 0.22511 0.39503 0.0
C2170 C 0.26557 0.24032 0.37983 0.0
C2171 C 0.28053 0.24658 0.37596 0.0
C2172 C 0.28935 0.20998 0.42367 0.0
C2173 C 0.27741 0.22514 0.40098 0.0
C2174 C 0.2876 0.19965 0.43639 0.0
C2175 C 0.27266 0.19322 0.44003 0.0
C2176 C 0.27607 0.21398 0.41446 0.0
C2177 C 0.25971 0.19745 0.43044 0.0
C2178 C 0.26398 0.22964 0.39225 0.0
C2179 C 0.29368 0.24169 0.38494 0.0
N2180 N 0.26172 0.20754 0.41815 0.0
N2181 N 0.29181 0.23129 0.397 0.0
H2182 H 0.46607 0.48506 0.91783 0.0
H2183 H 0.46224 0.49289 0.8233 0.0
H2184 H 0.50664 0.47833 0.88727 0.0
H2185 H 0.42211 0.50097 0.85412 0.0
H2186 H 0.4787 0.4876 0.84652 0.0
H2187 H 0.44988 0.49109 0.89465 0.0
C2188 C 0.47158 0.4848 0.90624 0.0
C2189 C 0.48777 0.4811 0.90454 0.0
C2190 C 0.4663 0.49056 0.84821 0.0
C2191 C 0.46923 0.48813 0.87785 0.0
C2192 C 0.45685 0.49349 0.83493 0.0
C2193 C 0.44071 0.49736 0.8367 0.0
C2194 C 0.4596 0.49145 0.86344 0.0
C2195 C 0.43451 0.49822 0.85214 0.0
C2196 C 0.46233 0.48834 0.89299 0.0
C2197 C 0.49427 0.48125 0.88921 0.0
N2198 N 0.44393 0.49524 0.86487 0.0
N2199 N 0.48499 0.48464 0.87648 0.0
H2200 H 0.75453 0.73841 0.15795 0.0
H2201 H 0.7197 0.69154 0.08245 0.0
H2202 H 0.70477 0.73672 0.14579 0.0
H2203 H 0.76938 0.69154 0.0951 0.0
H2204 H 0.7142 0.70852 0.10534 0.0
H2205 H 0.76043 0.72205 0.13458 0.0
C2206 C 0.74485 0.73471 0.15032 0.0
C2207 C 0.72911 0.73894 0.15393 0.0
C2208 C 0.72631 0.70482 0.10313 0.0
C2209 C 0.73578 0.72003 0.12718 0.0
C2210 C 0.72946 0.69501 0.09009 0.0
C2211 C 0.74504 0.68998 0.08681 0.0
C2212 C 0.73881 0.70972 0.11307 0.0
C2213 C 0.75721 0.69521 0.09701 0.0
C2214 C 0.74822 0.72527 0.13702 0.0
C2215 C 0.71705 0.73358 0.14367 0.0
N2216 N 0.75384 0.70475 0.10967 0.0
N2217 N 0.72063 0.72443 0.13082 0.0
H2218 H 0.96588 0.0411 0.10848 0.0
H2219 H 0.96236 0.03086 0.20276 0.0
H2220 H 1.00685 0.04565 0.13891 0.0
H2221 H 0.92172 0.02541 0.17202 0.0
H2222 H 0.97887 0.03617 0.1796 0.0
H2223 H 0.94962 0.03511 0.13161 0.0
C2224 C 0.97147 0.04089 0.12003 0.0
C2225 C 0.98779 0.04397 0.12171 0.0
C2226 C 0.96634 0.03379 0.17791 0.0
C2227 C 0.96918 0.03697 0.14834 0.0
C2228 C 0.95687 0.03085 0.19116 0.0
C2229 C 0.94057 0.0277 0.1894 0.0
C2230 C 0.95951 0.03364 0.16272 0.0
C2231 C 0.93423 0.02758 0.17399 0.0
C2232 C 0.96217 0.03738 0.13325 0.0
C2233 C 0.99438 0.04322 0.13699 0.0
N2234 N 0.94369 0.03055 0.16129 0.0
N2235 N 0.98505 0.03987 0.14969 0.0
H2236 H 0.30682 0.77874 0.14528 0.0
H2237 H 0.24859 0.83363 0.0945 0.0
H2238 H 0.25638 0.78266 0.15351 0.0
H2239 H 0.29897 0.83009 0.08577 0.0
H2240 H 0.25147 0.81547 0.11659 0.0
H2241 H 0.30451 0.79823 0.12416 0.0
C2242 C 0.29528 0.78377 0.14275 0.0
C2243 C 0.28176 0.77893 0.15118 0.0
C2244 C 0.26192 0.81868 0.10987 0.0
C2245 C 0.279 0.80118 0.12684 0.0
C2246 C 0.26027 0.829 0.09717 0.0
C2247 C 0.27354 0.83338 0.08814 0.0
C2248 C 0.27697 0.81259 0.11366 0.0
C2249 C 0.28842 0.82719 0.09244 0.0
C2250 C 0.29395 0.79484 0.13061 0.0
C2251 C 0.26709 0.78577 0.14719 0.0
N2252 N 0.28971 0.81709 0.10483 0.0
N2253 N 0.26611 0.79648 0.13533 0.0
H2254 H 0.03717 0.45396 0.13106 0.0
H2255 H 0.07859 0.52094 0.18484 0.0
H2256 H 0.0339 0.5038 0.1211 0.0
H2257 H 0.08466 0.47083 0.19197 0.0
H2258 H 0.06154 0.51509 0.16206 0.0
H2259 H 0.05369 0.46011 0.15405 0.0
C2260 C 0.03997 0.46621 0.13365 0.0
C2261 C 0.03419 0.47836 0.12399 0.0
C2262 C 0.06659 0.50538 0.16862 0.0
C2263 C 0.05306 0.48553 0.15056 0.0
C2264 C 0.07643 0.5087 0.1816 0.0
C2265 C 0.08314 0.49637 0.19042 0.0
C2266 C 0.06338 0.4896 0.16437 0.0
C2267 C 0.07962 0.48075 0.18574 0.0
C2268 C 0.04937 0.46973 0.14686 0.0
C2269 C 0.03796 0.49404 0.12823 0.0
N2270 N 0.07002 0.47784 0.17307 0.0
N2271 N 0.04719 0.49716 0.14115 0.0
H2272 H 0.39792 0.73868 0.25934 0.0
H2273 H 0.42354 0.74818 0.35046 0.0
H2274 H 0.36424 0.74096 0.29781 0.0
H2275 H 0.45681 0.74532 0.31165 0.0
H2276 H 0.40169 0.74481 0.3316 0.0
H2277 H 0.41958 0.74055 0.27848 0.0
C2278 C 0.39506 0.73962 0.27182 0.0
C2279 C 0.37917 0.73976 0.27692 0.0
C2280 C 0.41378 0.7449 0.32721 0.0
C2281 C 0.40406 0.74179 0.29903 0.0
C2282 C 0.42629 0.74674 0.338 0.0
C2283 C 0.44211 0.7471 0.33268 0.0
C2284 C 0.41705 0.74338 0.31095 0.0
C2285 C 0.44484 0.74539 0.31633 0.0
C2286 C 0.40746 0.74061 0.28277 0.0
C2287 C 0.37627 0.74068 0.2933 0.0
N2288 N 0.43248 0.74363 0.30609 0.0
N2289 N 0.38857 0.74173 0.30375 0.0
H2290 H 0.98427 0.38638 1.00888 0.0
H2291 H 0.99649 0.35083 0.92126 0.0
H2292 H 0.98146 0.41417 0.96639 0.0
H2293 H 1.0007 0.32293 0.96357 0.0
H2294 H 0.99137 0.37418 0.93771 0.0
H2295 H 0.99078 0.36312 0.99266 0.0
C2296 C 0.98514 0.38765 0.99616 0.0
C2297 C 0.98224 0.40231 0.98903 0.0
C2298 C 0.99343 0.36296 0.94342 0.0
C2299 C 0.98953 0.3756 0.97032 0.0
C2300 C 0.99646 0.3496 0.93402 0.0
C2301 C 0.99907 0.33481 0.94099 0.0
C2302 C 0.99297 0.36162 0.95999 0.0
C2303 C 0.99856 0.33399 0.95762 0.0
C2304 C 0.98877 0.37432 0.98689 0.0
C2305 C 0.98334 0.40311 0.97244 0.0
N2306 N 0.99558 0.34718 0.96652 0.0
N2307 N 0.98686 0.38998 0.96368 0.0
H2308 H 0.6592 0.77011 0.29055 0.0
H2309 H 0.57914 0.80179 0.33149 0.0
H2310 H 0.64193 0.81795 0.28652 0.0
H2311 H 0.59707 0.75441 0.3375 0.0
H2312 H 0.60177 0.80763 0.3145 0.0
H2313 H 0.63611 0.76376 0.30691 0.0
C2314 C 0.65051 0.77926 0.29299 0.0
C2315 C 0.6526 0.79462 0.28715 0.0
C2316 C 0.60078 0.79595 0.31952 0.0
C2317 C 0.62614 0.78745 0.30605 0.0
C2318 C 0.58788 0.79262 0.32934 0.0
C2319 C 0.58616 0.77759 0.33606 0.0
C2320 C 0.61214 0.78418 0.31631 0.0
C2321 C 0.59776 0.76612 0.33249 0.0
C2322 C 0.63737 0.77564 0.30243 0.0
C2323 C 0.641 0.80602 0.29093 0.0
N2324 N 0.61024 0.76966 0.3229 0.0
N2325 N 0.62833 0.8022 0.30011 0.0
H2326 H 0.04581 0.13854 1.00902 0.0
H2327 H 0.02557 0.16994 0.92194 0.0
H2328 H 0.0417 0.10816 0.96782 0.0
H2329 H 0.03221 0.20071 0.96252 0.0
H2330 H 0.0304 0.14713 0.93879 0.0
H2331 H 0.03972 0.16133 0.99247 0.0
C2332 C 0.0435 0.13662 0.99652 0.0
C2333 C 0.04432 0.12136 0.98983 0.0
C2334 C 0.0308 0.15887 0.94403 0.0
C2335 C 0.03748 0.14751 0.97073 0.0
C2336 C 0.02794 0.17192 0.93441 0.0
C2337 C 0.02847 0.18733 0.94078 0.0
C2338 C 0.03418 0.16115 0.96019 0.0
C2339 C 0.03187 0.1891 0.95701 0.0
C2340 C 0.04013 0.14968 0.98705 0.0
C2341 C 0.04144 0.1197 0.97349 0.0
N2342 N 0.03457 0.1762 0.96614 0.0
N2343 N 0.03816 0.13257 0.96454 0.0
H2344 H 0.38105 0.30768 0.24426 0.0
H2345 H 0.43525 0.24884 0.19238 0.0
H2346 H 0.37638 0.25685 0.2446 0.0
H2347 H 0.44358 0.29913 0.19585 0.0
H2348 H 0.41288 0.25177 0.21054 0.0
H2349 H 0.40317 0.30499 0.22565 0.0
C2350 C 0.38468 0.29594 0.24049 0.0
C2351 C 0.37675 0.28247 0.24607 0.0
C2352 C 0.41959 0.26217 0.20733 0.0
C2353 C 0.40206 0.27934 0.22455 0.0
C2354 C 0.43246 0.2605 0.19701 0.0
C2355 C 0.44145 0.27374 0.19257 0.0
C2356 C 0.41556 0.27721 0.21332 0.0
C2357 C 0.43694 0.28859 0.19875 0.0
C2358 C 0.39728 0.29443 0.22978 0.0
C2359 C 0.3819 0.2676 0.24049 0.0
N2360 N 0.42436 0.28991 0.20881 0.0
N2361 N 0.39419 0.26645 0.23009 0.0
H2362 H 0.52192 0.40887 0.0409 0.0
H2363 H 0.55296 0.32693 0.07665 0.0
H2364 H 0.56816 0.38902 0.03115 0.0
H2365 H 0.50713 0.34706 0.08772 0.0
H2366 H 0.55832 0.34923 0.05933 0.0
H2367 H 0.51585 0.38598 0.05736 0.0
C2368 C 0.53076 0.39966 0.04211 0.0
C2369 C 0.54561 0.40095 0.03463 0.0
C2370 C 0.54708 0.34878 0.06553 0.0
C2371 C 0.53878 0.37473 0.05363 0.0
C2372 C 0.54396 0.33598 0.07538 0.0
C2373 C 0.52954 0.33504 0.08369 0.0
C2374 C 0.53571 0.36083 0.0639 0.0
C2375 C 0.51849 0.34733 0.08173 0.0
C2376 C 0.52732 0.38663 0.0516 0.0
C2377 C 0.55665 0.3887 0.03684 0.0
N2378 N 0.52179 0.35968 0.07204 0.0
N2379 N 0.55302 0.37615 0.04612 0.0
H2380 H 0.6379 0.23441 0.2586 0.0
H2381 H 0.60515 0.24657 0.17029 0.0
H2382 H 0.66709 0.23077 0.21671 0.0
H2383 H 0.57548 0.24949 0.2119 0.0
H2384 H 0.62805 0.24141 0.18722 0.0
H2385 H 0.61512 0.24094 0.24188 0.0
C2386 C 0.63957 0.2351 0.24591 0.0
C2387 C 0.65448 0.23195 0.23908 0.0
C2388 C 0.61654 0.24321 0.19267 0.0
C2389 C 0.62833 0.23928 0.21981 0.0
C2390 C 0.60341 0.24607 0.18298 0.0
C2391 C 0.58828 0.24843 0.18962 0.0
C2392 C 0.61462 0.24266 0.20919 0.0
C2393 C 0.5869 0.24792 0.20621 0.0
C2394 C 0.62651 0.23874 0.23635 0.0
C2395 C 0.65581 0.23284 0.22251 0.0
N2396 N 0.59986 0.24506 0.2154 0.0
N2397 N 0.64294 0.23639 0.21348 0.0
H2398 H 0.45393 0.12981 0.04015 0.0
H2399 H 0.52188 0.1841 0.07914 0.0
H2400 H 0.50401 0.12026 0.03482 0.0
H2401 H 0.47166 0.19188 0.08598 0.0
H2402 H 0.51572 0.16104 0.06252 0.0
H2403 H 0.46034 0.15294 0.05642 0.0
C2404 C 0.46629 0.13251 0.04245 0.0
C2405 C 0.47843 0.12294 0.03614 0.0
C2406 C 0.50605 0.1678 0.06765 0.0
C2407 C 0.48589 0.14968 0.05473 0.0
C2408 C 0.50955 0.18094 0.07724 0.0
C2409 C 0.49728 0.19002 0.08403 0.0
C2410 C 0.49014 0.16364 0.06479 0.0
C2411 C 0.48154 0.18543 0.08086 0.0
C2412 C 0.46995 0.14581 0.0517 0.0
C2413 C 0.49424 0.12732 0.0393 0.0
N2414 N 0.47845 0.1726 0.07152 0.0
N2415 N 0.4975 0.14032 0.04839 0.0
H2416 H 0.31001 0.35997 0.7254 0.0
H2417 H 0.31334 0.44935 0.75798 0.0
H2418 H 0.26853 0.38591 0.74075 0.0
H2419 H 0.354 0.42402 0.73969 0.0
H2420 H 0.29692 0.42594 0.75299 0.0
H2421 H 0.32638 0.38302 0.7316 0.0
C2422 C 0.3043 0.37053 0.73001 0.0
C2423 C 0.28779 0.37097 0.73242 0.0
C2424 C 0.30943 0.4255 0.75008 0.0
C2425 C 0.30662 0.39749 0.73977 0.0
C2426 C 0.31885 0.43884 0.75301 0.0
C2427 C 0.33511 0.43871 0.74923 0.0
C2428 C 0.31629 0.41185 0.74335 0.0
C2429 C 0.3415 0.42479 0.7426 0.0
C2430 C 0.3137 0.38369 0.73363 0.0
C2431 C 0.28119 0.38493 0.73879 0.0
N2432 N 0.3321 0.41196 0.73989 0.0
N2433 N 0.2906 0.39763 0.74218 0.0
H2434 H 0.2919 0.64751 0.8224 0.0
H2435 H 0.32776 0.58961 0.75558 0.0
H2436 H 0.28285 0.65316 0.77246 0.0
H2437 H 0.33763 0.58542 0.80553 0.0
H2438 H 0.31065 0.61234 0.76142 0.0
H2439 H 0.30818 0.62438 0.81633 0.0
C2440 C 0.29339 0.64395 0.81013 0.0
C2441 C 0.28603 0.65244 0.79793 0.0
C2442 C 0.31656 0.60644 0.7711 0.0
C2443 C 0.30462 0.62568 0.79088 0.0
C2444 C 0.32628 0.59339 0.76779 0.0
C2445 C 0.33423 0.58555 0.78007 0.0
C2446 C 0.3147 0.61172 0.78683 0.0
C2447 C 0.33198 0.59118 0.79563 0.0
C2448 C 0.30264 0.63065 0.80668 0.0
C2449 C 0.28815 0.64696 0.78228 0.0
N2450 N 0.32245 0.60387 0.79855 0.0
N2451 N 0.29728 0.63398 0.77921 0.0
H2452 H 0.91276 0.47709 0.50398 0.0
H2453 H 0.82441 0.45124 0.47953 0.0
H2454 H 0.886 0.49916 0.46663 0.0
H2455 H 0.84895 0.43301 0.52037 0.0
H2456 H 0.84703 0.46849 0.47436 0.0
H2457 H 0.88981 0.46036 0.50976 0.0
C2458 C 0.90207 0.47841 0.49697 0.0
C2459 C 0.90135 0.48957 0.48478 0.0
C2460 C 0.84746 0.46074 0.48447 0.0
C2461 C 0.87495 0.47044 0.49138 0.0
C2462 C 0.83448 0.45092 0.4875 0.0
C2463 C 0.83468 0.4406 0.50045 0.0
C2464 C 0.86084 0.46027 0.4944 0.0
C2465 C 0.84828 0.44056 0.51013 0.0
C2466 C 0.88894 0.46889 0.50033 0.0
C2467 C 0.88708 0.49087 0.47625 0.0
N2468 N 0.86078 0.45021 0.5069 0.0
N2469 N 0.8745 0.48139 0.47966 0.0
H2470 H 0.73563 0.86592 0.76038 0.0
H2471 H 0.7034 0.94751 0.79746 0.0
H2472 H 0.75318 0.88627 0.80408 0.0
H2473 H 0.68498 0.92631 0.75451 0.0
H2474 H 0.72154 0.92513 0.80023 0.0
H2475 H 0.71679 0.88776 0.75824 0.0
C2476 C 0.73556 0.87499 0.76953 0.0
C2477 C 0.7461 0.87424 0.7824 0.0
C2478 C 0.71351 0.92535 0.79021 0.0
C2479 C 0.7244 0.89935 0.78007 0.0
C2480 C 0.7032 0.93819 0.78856 0.0
C2481 C 0.69263 0.93887 0.7757 0.0
C2482 C 0.71334 0.91305 0.77889 0.0
C2483 C 0.69276 0.92626 0.76471 0.0
C2484 C 0.72473 0.88744 0.76833 0.0
C2485 C 0.74521 0.88624 0.79402 0.0
N2486 N 0.70297 0.91393 0.76654 0.0
N2487 N 0.73463 0.89831 0.79254 0.0
H2488 H 0.6173 0.53699 1.00454 0.0
H2489 H 0.69617 0.57844 0.97149 0.0
H2490 H 0.63343 0.53268 0.95617 0.0
H2491 H 0.67972 0.58393 0.01964 0.0
H2492 H 0.67367 0.56103 0.96595 0.0
H2493 H 0.64049 0.55344 1.0106 0.0
C2494 C 0.62576 0.53939 0.99521 0.0
C2495 C 0.62332 0.53345 0.97979 0.0
C2496 C 0.67497 0.56602 0.97774 0.0
C2497 C 0.64988 0.55246 0.98663 0.0
C2498 C 0.68789 0.57592 0.98095 0.0
C2499 C 0.68991 0.58271 0.99608 0.0
C2500 C 0.6639 0.5628 0.98973 0.0
C2501 C 0.67858 0.57916 1.00775 0.0
C2502 C 0.63896 0.54888 0.99866 0.0
C2503 C 0.63464 0.53717 0.96816 0.0
N2504 N 0.6661 0.56946 1.00434 0.0
N2505 N 0.64737 0.54641 0.97181 0.0
H2506 H 0.22758 0.66267 0.25182 0.0
H2507 H 0.21336 0.5691 0.24494 0.0
H2508 H 0.26293 0.62978 0.23464 0.0
H2509 H 0.1762 0.6024 0.25653 0.0
H2510 H 0.23187 0.59113 0.2419 0.0
H2511 H 0.2088 0.64076 0.25435 0.0
C2512 C 0.23141 0.65084 0.24861 0.0
C2513 C 0.2469 0.6481 0.24301 0.0
C2514 C 0.21966 0.59364 0.24508 0.0
C2515 C 0.22538 0.6229 0.24584 0.0
C2516 C 0.2091 0.58104 0.24692 0.0
C2517 C 0.19317 0.58386 0.25105 0.0
C2518 C 0.21436 0.60923 0.24746 0.0
C2519 C 0.18831 0.59964 0.25319 0.0
C2520 C 0.22065 0.63834 0.24998 0.0
C2521 C 0.25109 0.63252 0.23883 0.0
N2522 N 0.19885 0.6117 0.25144 0.0
N2523 N 0.24044 0.62053 0.2404 0.0
H2524 H 0.91621 0.55683 0.03883 0.0
H2525 H 0.82145 0.56344 0.03178 0.0
H2526 H 0.88423 0.51819 0.04821 0.0
H2527 H 0.85316 0.60304 0.02584 0.0
H2528 H 0.84432 0.54653 0.03699 0.0
H2529 H 0.89338 0.57362 0.03289 0.0
C2530 C 0.9044 0.55182 0.03952 0.0
C2531 C 0.90219 0.53603 0.04404 0.0
C2532 C 0.84629 0.55892 0.03454 0.0
C2533 C 0.87589 0.55531 0.03738 0.0
C2534 C 0.8332 0.56864 0.03166 0.0
C2535 C 0.8353 0.58477 0.02841 0.0
C2536 C 0.86169 0.5653 0.03418 0.0
C2537 C 0.85091 0.59067 0.02809 0.0
C2538 C 0.89135 0.56147 0.03623 0.0
C2539 C 0.88654 0.53032 0.04497 0.0
N2540 N 0.86347 0.58096 0.03096 0.0
N2541 N 0.87403 0.53993 0.04167 0.0
H2542 H 0.132 0.98977 0.07313 0.0
H2543 H 0.1834 0.9443 1.00692 0.0
H2544 H 0.12007 0.98959 0.02341 0.0
H2545 H 0.19327 0.94242 0.05704 0.0
H2546 H 0.16065 0.96144 0.01252 0.0
H2547 H 0.155 0.97317 0.06725 0.0
C2548 C 0.13416 0.9862 0.06096 0.0
C2549 C 0.12395 0.99105 0.04877 0.0
C2550 C 0.1678 0.95729 0.02229 0.0
C2551 C 0.15051 0.97207 0.0419 0.0
C2552 C 0.18077 0.9474 0.01912 0.0
C2553 C 0.19033 0.94183 0.03152 0.0
C2554 C 0.16431 0.96169 0.038 0.0
C2555 C 0.18643 0.94655 0.04706 0.0
C2556 C 0.14737 0.97676 0.0576 0.0
C2557 C 0.12763 0.98628 0.03319 0.0
N2558 N 0.17375 0.95616 0.04983 0.0
N2559 N 0.14056 0.97703 0.03022 0.0
loop_
_geom_bond_atom_site_label_1
_geom_bond_atom_site_label_2
_geom_bond_distance
_geom_bond_site_symmetry_2
_ccdc_geom_bond_type
C0 C1 1.254 1_655 S
C0 C5 1.479 . S
C0 C10 1.465 1_655 S
C1 C0 1.254 1_455 S
C1 C3 1.303 1_455 S
C1 H28 0.982 . S
C2 C3 1.395 . S
C2 C4 1.320 . S
C3 C1 1.303 1_655 S
C3 C2 1.395 . S
C3 H29 0.929 1_545 S
C4 C2 1.320 . S
C4 C5 1.405 . S
C4 H30 0.930 . S
C5 C0 1.479 . S
C5 C4 1.405 . S
C5 H31 0.931 . S
U6 O7 2.454 . S
U6 O8 2.458 . S
U6 C9 2.984 . S
U6 C10 2.847 . S
U6 C23 2.882 . S
U6 O24 2.441 . S
U6 O25 2.420 . S
U6 O26 2.455 . S
U6 O27 2.449 . S
O7 U6 2.454 . S
O7 C9 1.353 . S
O8 U6 2.458 . S
O8 C9 1.286 . S
C9 U6 2.984 . S
C9 O7 1.353 . S
C9 O8 1.286 . S
C9 C11 1.363 . S
C10 C0 1.465 1_455 S
C10 U6 2.847 . S
C10 O24 1.249 . S
C10 O25 1.202 . S
C11 C9 1.363 . S
C11 C13 1.408 . S
C11 C16 1.342 1_554 S
C12 C13 1.310 1_556 S
C12 C15 1.461 . S
C12 H32 0.932 . S
C13 C11 1.408 . S
C13 C12 1.310 1_554 S
C13 H33 0.930 . S
C14 C15 1.474 . S
C14 C16 1.285 . S
C14 H34 0.929 . S
C15 C12 1.461 . S
C15 C14 1.474 . S
C16 C11 1.342 1_556 S
C16 C14 1.285 . S
C16 H35 0.930 . S
C17 C20 1.424 . S
C17 C22 1.233 1_565 S
C17 C23 1.428 1_565 S
C18 C21 1.260 . S
C18 C22 1.437 1_565 S
C18 H36 0.932 . S
C19 C20 1.384 . S
C19 C21 1.479 . S
C19 H37 0.929 . S
C20 C17 1.424 . S
C20 C19 1.384 . S
C20 H38 0.928 . S
C21 C18 1.260 . S
C21 C19 1.479 . S
C22 C17 1.233 1_545 S
C22 C18 1.437 1_545 S
C22 H39 0.985 . S
C23 U6 2.882 . S
C23 C17 1.428 1_545 S
C23 O26 1.301 . S
C23 O27 1.282 . S
O24 U6 2.441 . S
O24 C10 1.249 . S
O25 U6 2.420 . S
O25 C10 1.202 . S
O26 U6 2.455 . S
O26 C23 1.301 . S
O27 U6 2.449 . S
O27 C23 1.282 . S
H28 C1 0.982 . S
H29 C3 0.929 1_565 S
H30 C4 0.930 . S
H31 C5 0.931 . S
H32 C12 0.932 . S
H33 C13 0.930 . S
H34 C14 0.929 . S
H35 C16 0.930 . S
H36 C18 0.932 . S
H37 C19 0.929 . S
H38 C20 0.928 . S
H39 C22 0.985 . S
C40 C41 1.264 . S
C40 C45 1.479 . S
C40 C50 1.465 . S
C41 C40 1.264 . S
C41 C43 1.339 . S
C41 H68 0.931 . S
C42 C43 1.395 . S
C42 C44 1.320 . S
C43 C41 1.339 . S
C43 C42 1.395 . S
C43 H69 0.929 . S
C44 C42 1.320 . S
C44 C45 1.405 . S
C44 H70 0.930 . S
C45 C40 1.479 . S
C45 C44 1.405 . S
C45 H71 0.931 . S
U46 O47 2.454 . S
U46 O48 2.458 . S
U46 C49 2.984 . S
U46 C50 2.847 . S
U46 C63 2.882 . S
U46 O64 2.441 . S
U46 O65 2.420 . S
U46 O66 2.455 . S
U46 O67 2.449 . S
O47 U46 2.454 . S
O47 C49 1.353 . S
O48 U46 2.458 . S
O48 C49 1.286 . S
C49 U46 2.984 . S
C49 O47 1.353 . S
C49 O48 1.286 . S
C49 C51 1.363 . S
C50 C40 1.465 . S
C50 U46 2.847 . S
C50 O64 1.249 . S
C50 O65 1.202 . S
C51 C49 1.363 . S
C51 C53 1.408 . S
C51 C56 1.342 . S
C52 C53 1.310 . S
C52 C55 1.461 . S
C52 H72 0.932 . S
C53 C51 1.408 . S
C53 C52 1.310 . S
C53 H73 0.930 . S
C54 C55 1.474 . S
C54 C56 1.285 . S
C54 H74 0.929 . S
C55 C52 1.461 . S
C55 C54 1.474 . S
C56 C51 1.342 . S
C56 C54 1.285 . S
C56 H75 0.930 . S
C57 C60 1.424 . S
C57 C62 1.245 . S
C57 C63 1.428 . S
C58 C61 1.260 . S
C58 C62 1.477 . S
C58 H76 0.932 . S
C59 C60 1.384 . S
C59 C61 1.479 . S
C59 H77 0.929 . S
C60 C57 1.424 . S
C60 C59 1.384 . S
C60 H78 0.928 . S
C61 C58 1.260 . S
C61 C59 1.479 . S
C62 C57 1.245 . S
C62 C58 1.477 . S
C62 H79 0.932 . S
C63 U46 2.882 . S
C63 C57 1.428 . S
C63 O66 1.301 . S
C63 O67 1.282 . S
O64 U46 2.441 . S
O64 C50 1.249 . S
O65 U46 2.420 . S
O65 C50 1.202 . S
O66 U46 2.455 . S
O66 C63 1.301 . S
O67 U46 2.449 . S
O67 C63 1.282 . S
H68 C41 0.931 . S
H69 C43 0.929 . S
H70 C44 0.930 . S
H71 C45 0.931 . S
H72 C52 0.932 . S
H73 C53 0.930 . S
H74 C54 0.929 . S
H75 C56 0.930 . S
H76 C58 0.932 . S
H77 C59 0.929 . S
H78 C60 0.928 . S
H79 C62 0.932 . S
C80 C81 1.257 1_556 S
C80 C85 1.479 . S
C80 C90 1.465 1_556 S
C81 C80 1.257 1_554 S
C81 C83 1.319 1_554 S
C81 H108 0.960 1_655 S
C82 C83 1.395 . S
C82 C84 1.320 . S
C83 C81 1.319 1_556 S
C83 C82 1.395 . S
C83 H109 0.929 1_655 S
C84 C82 1.320 . S
C84 C85 1.405 . S
C84 H110 0.930 . S
C85 C80 1.479 . S
C85 C84 1.405 . S
C85 H111 0.931 . S
U86 O87 2.454 . S
U86 O88 2.458 . S
U86 C89 2.984 . S
U86 C90 2.847 . S
U86 C103 2.882 . S
U86 O104 2.441 . S
U86 O105 2.420 . S
U86 O106 2.455 . S
U86 O107 2.449 . S
O87 U86 2.454 . S
O87 C89 1.353 . S
O88 U86 2.458 . S
O88 C89 1.286 . S
C89 U86 2.984 . S
C89 O87 1.353 . S
C89 O88 1.286 . S
C89 C91 1.363 . S
C90 C80 1.465 1_554 S
C90 U86 2.847 . S
C90 O104 1.249 . S
C90 O105 1.202 . S
C91 C89 1.363 . S
C91 C93 1.408 . S
C91 C96 1.342 . S
C92 C93 1.310 . S
C92 C95 1.461 . S
C92 H112 0.932 . S
C93 C91 1.408 . S
C93 C92 1.310 . S
C93 H113 0.930 . S
C94 C95 1.474 . S
C94 C96 1.285 . S
C94 H114 0.929 . S
C95 C92 1.461 . S
C95 C94 1.474 . S
C96 C91 1.342 . S
C96 C94 1.285 . S
C96 H115 0.930 . S
C97 C100 1.424 . S
C97 C102 1.245 . S
C97 C103 1.428 1_455 S
C98 C101 1.260 . S
C98 C102 1.477 . S
C98 H116 0.932 . S
C99 C100 1.384 . S
C99 C101 1.479 . S
C99 H117 0.929 . S
C100 C97 1.424 . S
C100 C99 1.384 . S
C100 H118 0.928 . S
C101 C98 1.260 . S
C101 C99 1.479 . S
C102 C97 1.245 . S
C102 C98 1.477 . S
C102 H119 0.932 1_455 S
C103 U86 2.882 . S
C103 C97 1.428 1_655 S
C103 O106 1.301 . S
C103 O107 1.282 . S
O104 U86 2.441 . S
O104 C90 1.249 . S
O105 U86 2.420 . S
O105 C90 1.202 . S
O106 U86 2.455 . S
O106 C103 1.301 . S
O107 U86 2.449 . S
O107 C103 1.282 . S
H108 C81 0.960 1_455 S
H109 C83 0.929 1_455 S
H110 C84 0.930 . S
H111 C85 0.931 . S
H112 C92 0.932 . S
H113 C93 0.930 . S
H114 C94 0.929 . S
H115 C96 0.930 . S
H116 C98 0.932 . S
H117 C99 0.929 . S
H118 C100 0.928 . S
H119 C102 0.932 1_655 S
C120 C121 1.264 . S
C120 C125 1.479 . S
C120 C130 1.465 . S
C121 C120 1.264 . S
C121 C123 1.339 . S
C121 H148 0.931 . S
C122 C123 1.395 . S
C122 C124 1.320 . S
C123 C121 1.339 . S
C123 C122 1.395 . S
C123 H149 0.929 . S
C124 C122 1.320 . S
C124 C125 1.405 . S
C124 H150 0.930 . S
C125 C120 1.479 . S
C125 C124 1.405 . S
C125 H151 0.931 . S
U126 O127 2.454 . S
U126 O128 2.458 . S
U126 C129 2.984 . S
U126 C130 2.847 . S
U126 C143 2.882 . S
U126 O144 2.441 . S
U126 O145 2.420 . S
U126 O146 2.455 . S
U126 O147 2.449 . S
O127 U126 2.454 . S
O127 C129 1.353 . S
O128 U126 2.458 . S
O128 C129 1.286 . S
C129 U126 2.984 . S
C129 O127 1.353 . S
C129 O128 1.286 . S
C129 C131 1.363 . S
C130 C120 1.465 . S
C130 U126 2.847 . S
C130 O144 1.249 . S
C130 O145 1.202 . S
C131 C129 1.363 . S
C131 C133 1.408 . S
C131 C136 1.342 . S
C132 C133 1.310 . S
C132 C135 1.461 . S
C132 H152 0.932 . S
C133 C131 1.408 . S
C133 C132 1.310 . S
C133 H153 0.930 . S
C134 C135 1.474 . S
C134 C136 1.285 . S
C134 H154 0.929 . S
C135 C132 1.461 . S
C135 C134 1.474 . S
C136 C131 1.342 . S
C136 C134 1.285 . S
C136 H155 0.930 . S
C137 C140 1.424 . S
C137 C142 1.245 . S
C137 C143 1.428 . S
C138 C141 1.260 . S
C138 C142 1.477 . S
C138 H156 0.932 . S
C139 C140 1.384 . S
C139 C141 1.479 . S
C139 H157 0.929 . S
C140 C137 1.424 . S
C140 C139 1.384 . S
C140 H158 0.928 . S
C141 C138 1.260 . S
C141 C139 1.479 . S
C142 C137 1.245 . S
C142 C138 1.477 . S
C142 H159 0.932 . S
C143 U126 2.882 . S
C143 C137 1.428 . S
C143 O146 1.301 . S
C143 O147 1.282 . S
O144 U126 2.441 . S
O144 C130 1.249 . S
O145 U126 2.420 . S
O145 C130 1.202 . S
O146 U126 2.455 . S
O146 C143 1.301 . S
O147 U126 2.449 . S
O147 C143 1.282 . S
H148 C121 0.931 . S
H149 C123 0.929 . S
H150 C124 0.930 . S
H151 C125 0.931 . S
H152 C132 0.932 . S
H153 C133 0.930 . S
H154 C134 0.929 . S
H155 C136 0.930 . S
H156 C138 0.932 . S
H157 C139 0.929 . S
H158 C140 0.928 . S
H159 C142 0.932 . S
C160 C161 1.254 1_655 S
C160 C165 1.479 . S
C160 C170 1.465 1_655 S
C161 C160 1.254 1_455 S
C161 C163 1.304 1_455 S
C161 H188 1.009 . S
C162 C163 1.395 . S
C162 C164 1.320 . S
C163 C161 1.304 1_655 S
C163 C162 1.395 . S
C163 H189 0.929 1_565 S
C164 C162 1.320 . S
C164 C165 1.405 . S
C164 H190 0.930 . S
C165 C160 1.479 . S
C165 C164 1.405 . S
C165 H191 0.931 . S
U166 O167 2.454 . S
U166 O168 2.458 . S
U166 C169 2.984 . S
U166 C170 2.847 . S
U166 C183 2.882 . S
U166 O184 2.441 . S
U166 O185 2.420 . S
U166 O186 2.455 . S
U166 O187 2.449 . S
O167 U166 2.454 . S
O167 C169 1.353 . S
O168 U166 2.458 . S
O168 C169 1.286 . S
C169 U166 2.984 . S
C169 O167 1.353 . S
C169 O168 1.286 . S
C169 C171 1.363 . S
C170 C160 1.465 1_455 S
C170 U166 2.847 . S
C170 O184 1.249 . S
C170 O185 1.202 . S
C171 C169 1.363 . S
C171 C173 1.408 . S
C171 C176 1.342 . S
C172 C173 1.310 . S
C172 C175 1.461 . S
C172 H192 0.932 . S
C173 C171 1.408 . S
C173 C172 1.310 . S
C173 H193 0.930 . S
C174 C175 1.474 . S
C174 C176 1.285 . S
C174 H194 0.929 . S
C175 C172 1.461 . S
C175 C174 1.474 . S
C176 C171 1.342 . S
C176 C174 1.285 . S
C176 H195 0.930 . S
C177 C180 1.424 . S
C177 C182 1.246 1_545 S
C177 C183 1.428 1_545 S
C178 C181 1.260 . S
C178 C182 1.479 1_545 S
C178 H196 0.932 . S
C179 C180 1.384 . S
C179 C181 1.479 . S
C179 H197 0.929 . S
C180 C177 1.424 . S
C180 C179 1.384 . S
C180 H198 0.928 . S
C181 C178 1.260 . S
C181 C179 1.479 . S
C182 C177 1.246 1_565 S
C182 C178 1.479 1_565 S
C182 H199 0.930 . S
C183 U166 2.882 . S
C183 C177 1.428 1_565 S
C183 O186 1.301 . S
C183 O187 1.282 . S
O184 U166 2.441 . S
O184 C170 1.249 . S
O185 U166 2.420 . S
O185 C170 1.202 . S
O186 U166 2.455 . S
O186 C183 1.301 . S
O187 U166 2.449 . S
O187 C183 1.282 . S
H188 C161 1.009 . S
H189 C163 0.929 1_545 S
H190 C164 0.930 . S
H191 C165 0.931 . S
H192 C172 0.932 . S
H193 C173 0.930 . S
H194 C174 0.929 . S
H195 C176 0.930 . S
H196 C178 0.932 . S
H197 C179 0.929 . S
H198 C180 0.928 . S
H199 C182 0.930 . S
C200 C201 1.264 . S
C200 C205 1.479 . S
C200 C210 1.465 . S
C201 C200 1.264 . S
C201 C203 1.339 . S
C201 H228 0.931 . S
C202 C203 1.395 . S
C202 C204 1.320 . S
C203 C201 1.339 . S
C203 C202 1.395 . S
C203 H229 0.929 . S
C204 C202 1.320 . S
C204 C205 1.405 . S
C204 H230 0.930 . S
C205 C200 1.479 . S
C205 C204 1.405 . S
C205 H231 0.931 . S
U206 O207 2.454 . S
U206 O208 2.458 . S
U206 C209 2.984 . S
U206 C210 2.847 . S
U206 C223 2.882 . S
U206 O224 2.441 . S
U206 O225 2.420 . S
U206 O226 2.455 . S
U206 O227 2.449 . S
O207 U206 2.454 . S
O207 C209 1.353 . S
O208 U206 2.458 . S
O208 C209 1.286 . S
C209 U206 2.984 . S
C209 O207 1.353 . S
C209 O208 1.286 . S
C209 C211 1.363 . S
C210 C200 1.465 . S
C210 U206 2.847 . S
C210 O224 1.249 . S
C210 O225 1.202 . S
C211 C209 1.363 . S
C211 C213 1.408 . S
C211 C216 1.342 . S
C212 C213 1.310 . S
C212 C215 1.461 . S
C212 H232 0.932 . S
C213 C211 1.408 . S
C213 C212 1.310 . S
C213 H233 0.930 . S
C214 C215 1.474 . S
C214 C216 1.285 . S
C214 H234 0.929 . S
C215 C212 1.461 . S
C215 C214 1.474 . S
C216 C211 1.342 . S
C216 C214 1.285 . S
C216 H235 0.930 . S
C217 C220 1.424 . S
C217 C222 1.245 . S
C217 C223 1.428 . S
C218 C221 1.260 . S
C218 C222 1.477 . S
C218 H236 0.932 . S
C219 C220 1.384 . S
C219 C221 1.479 . S
C219 H237 0.929 . S
C220 C217 1.424 . S
C220 C219 1.384 . S
C220 H238 0.928 . S
C221 C218 1.260 . S
C221 C219 1.479 . S
C222 C217 1.245 . S
C222 C218 1.477 . S
C222 H239 0.932 . S
C223 U206 2.882 . S
C223 C217 1.428 . S
C223 O226 1.301 . S
C223 O227 1.282 . S
O224 U206 2.441 . S
O224 C210 1.249 . S
O225 U206 2.420 . S
O225 C210 1.202 . S
O226 U206 2.455 . S
O226 C223 1.301 . S
O227 U206 2.449 . S
O227 C223 1.282 . S
H228 C201 0.931 . S
H229 C203 0.929 . S
H230 C204 0.930 . S
H231 C205 0.931 . S
H232 C212 0.932 . S
H233 C213 0.930 . S
H234 C214 0.929 . S
H235 C216 0.930 . S
H236 C218 0.932 . S
H237 C219 0.929 . S
H238 C220 0.928 . S
H239 C222 0.932 . S
C240 C241 1.264 . S
C240 C245 1.479 . S
C240 C250 1.465 . S
C241 C240 1.264 . S
C241 C243 1.339 . S
C241 H268 0.931 1_655 S
C242 C243 1.395 . S
C242 C244 1.320 . S
C243 C241 1.339 . S
C243 C242 1.395 . S
C243 H269 0.929 1_655 S
C244 C242 1.320 . S
C244 C245 1.405 . S
C244 H270 0.930 . S
C245 C240 1.479 . S
C245 C244 1.405 . S
C245 H271 0.931 . S
U246 O247 2.454 . S
U246 O248 2.458 . S
U246 C249 2.984 . S
U246 C250 2.847 . S
U246 C263 2.882 . S
U246 O264 2.441 . S
U246 O265 2.420 . S
U246 O266 2.455 . S
U246 O267 2.449 . S
O247 U246 2.454 . S
O247 C249 1.353 . S
O248 U246 2.458 . S
O248 C249 1.286 . S
C249 U246 2.984 . S
C249 O247 1.353 . S
C249 O248 1.286 . S
C249 C251 1.363 . S
C250 C240 1.465 . S
C250 U246 2.847 . S
C250 O264 1.249 . S
C250 O265 1.202 . S
C251 C249 1.363 . S
C251 C253 1.408 . S
C251 C256 1.342 . S
C252 C253 1.310 . S
C252 C255 1.461 . S
C252 H272 0.932 . S
C253 C251 1.408 . S
C253 C252 1.310 . S
C253 H273 0.930 . S
C254 C255 1.474 . S
C254 C256 1.285 . S
C254 H274 0.929 . S
C255 C252 1.461 . S
C255 C254 1.474 . S
C256 C251 1.342 . S
C256 C254 1.285 . S
C256 H275 0.930 . S
C257 C260 1.424 . S
C257 C262 1.245 . S
C257 C263 1.428 1_455 S
C258 C261 1.260 . S
C258 C262 1.477 . S
C258 H276 0.932 . S
C259 C260 1.384 . S
C259 C261 1.479 . S
C259 H277 0.929 . S
C260 C257 1.424 . S
C260 C259 1.384 . S
C260 H278 0.928 . S
C261 C258 1.260 . S
C261 C259 1.479 . S
C262 C257 1.245 . S
C262 C258 1.477 . S
C262 H279 0.932 1_455 S
C263 U246 2.882 . S
C263 C257 1.428 1_655 S
C263 O266 1.301 . S
C263 O267 1.282 . S
O264 U246 2.441 . S
O264 C250 1.249 . S
O265 U246 2.420 . S
O265 C250 1.202 . S
O266 U246 2.455 . S
O266 C263 1.301 . S
O267 U246 2.449 . S
O267 C263 1.282 . S
H268 C241 0.931 1_455 S
H269 C243 0.929 1_455 S
H270 C244 0.930 . S
H271 C245 0.931 . S
H272 C252 0.932 . S
H273 C253 0.930 . S
H274 C254 0.929 . S
H275 C256 0.930 . S
H276 C258 0.932 . S
H277 C259 0.929 . S
H278 C260 0.928 . S
H279 C262 0.932 1_655 S
C280 C281 1.264 . S
C280 C285 1.479 . S
C280 C290 1.465 . S
C281 C280 1.264 . S
C281 C283 1.339 . S
C281 H308 0.931 . S
C282 C283 1.395 . S
C282 C284 1.320 . S
C283 C281 1.339 . S
C283 C282 1.395 . S
C283 H309 0.929 . S
C284 C282 1.320 . S
C284 C285 1.405 . S
C284 H310 0.930 . S
C285 C280 1.479 . S
C285 C284 1.405 . S
C285 H311 0.931 . S
U286 O287 2.454 . S
U286 O288 2.458 . S
U286 C289 2.984 . S
U286 C290 2.847 . S
U286 C303 2.882 . S
U286 O304 2.441 . S
U286 O305 2.420 . S
U286 O306 2.455 . S
U286 O307 2.449 . S
O287 U286 2.454 . S
O287 C289 1.353 . S
O288 U286 2.458 . S
O288 C289 1.286 . S
C289 U286 2.984 . S
C289 O287 1.353 . S
C289 O288 1.286 . S
C289 C291 1.363 . S
C290 C280 1.465 . S
C290 U286 2.847 . S
C290 O304 1.249 . S
C290 O305 1.202 . S
C291 C289 1.363 . S
C291 C293 1.408 . S
C291 C296 1.342 . S
C292 C293 1.310 . S
C292 C295 1.461 . S
C292 H312 0.932 . S
C293 C291 1.408 . S
C293 C292 1.310 . S
C293 H313 0.930 . S
C294 C295 1.474 . S
C294 C296 1.285 . S
C294 H314 0.929 . S
C295 C292 1.461 . S
C295 C294 1.474 . S
C296 C291 1.342 . S
C296 C294 1.285 . S
C296 H315 0.930 . S
C297 C300 1.424 . S
C297 C302 1.245 . S
C297 C303 1.428 . S
C298 C301 1.260 . S
C298 C302 1.477 . S
C298 H316 0.932 . S
C299 C300 1.384 . S
C299 C301 1.479 . S
C299 H317 0.929 . S
C300 C297 1.424 . S
C300 C299 1.384 . S
C300 H318 0.928 . S
C301 C298 1.260 . S
C301 C299 1.479 . S
C302 C297 1.245 . S
C302 C298 1.477 . S
C302 H319 0.932 . S
C303 U286 2.882 . S
C303 C297 1.428 . S
C303 O306 1.301 . S
C303 O307 1.282 . S
O304 U286 2.441 . S
O304 C290 1.249 . S
O305 U286 2.420 . S
O305 C290 1.202 . S
O306 U286 2.455 . S
O306 C303 1.301 . S
O307 U286 2.449 . S
O307 C303 1.282 . S
H308 C281 0.931 . S
H309 C283 0.929 . S
H310 C284 0.930 . S
H311 C285 0.931 . S
H312 C292 0.932 . S
H313 C293 0.930 . S
H314 C294 0.929 . S
H315 C296 0.930 . S
H316 C298 0.932 . S
H317 C299 0.929 . S
H318 C300 0.928 . S
H319 C302 0.932 . S
C320 C321 1.264 . S
C320 C325 1.479 . S
C320 C330 1.465 . S
C321 C320 1.264 . S
C321 C323 1.339 . S
C321 H348 0.931 . S
C322 C323 1.395 . S
C322 C324 1.320 . S
C323 C321 1.339 . S
C323 C322 1.395 . S
C323 H349 0.929 . S
C324 C322 1.320 . S
C324 C325 1.405 . S
C324 H350 0.930 . S
C325 C320 1.479 . S
C325 C324 1.405 . S
C325 H351 0.931 . S
U326 O327 2.454 . S
U326 O328 2.458 . S
U326 C329 2.984 . S
U326 C330 2.847 . S
U326 C343 2.882 . S
U326 O344 2.441 . S
U326 O345 2.420 . S
U326 O346 2.455 . S
U326 O347 2.449 . S
O327 U326 2.454 . S
O327 C329 1.353 . S
O328 U326 2.458 . S
O328 C329 1.286 . S
C329 U326 2.984 . S
C329 O327 1.353 . S
C329 O328 1.286 . S
C329 C331 1.363 . S
C330 C320 1.465 . S
C330 U326 2.847 . S
C330 O344 1.249 . S
C330 O345 1.202 . S
C331 C329 1.363 . S
C331 C333 1.408 . S
C331 C336 1.342 . S
C332 C333 1.310 . S
C332 C335 1.461 . S
C332 H352 0.932 . S
C333 C331 1.408 . S
C333 C332 1.310 . S
C333 H353 0.930 . S
C334 C335 1.474 . S
C334 C336 1.285 . S
C334 H354 0.929 . S
C335 C332 1.461 . S
C335 C334 1.474 . S
C336 C331 1.342 . S
C336 C334 1.285 . S
C336 H355 0.930 . S
C337 C340 1.424 . S
C337 C342 1.245 . S
C337 C343 1.428 . S
C338 C341 1.260 . S
C338 C342 1.477 . S
C338 H356 0.932 . S
C339 C340 1.384 . S
C339 C341 1.479 . S
C339 H357 0.929 . S
C340 C337 1.424 . S
C340 C339 1.384 . S
C340 H358 0.928 . S
C341 C338 1.260 . S
C341 C339 1.479 . S
C342 C337 1.245 . S
C342 C338 1.477 . S
C342 H359 0.932 . S
C343 U326 2.882 . S
C343 C337 1.428 . S
C343 O346 1.301 . S
C343 O347 1.282 . S
O344 U326 2.441 . S
O344 C330 1.249 . S
O345 U326 2.420 . S
O345 C330 1.202 . S
O346 U326 2.455 . S
O346 C343 1.301 . S
O347 U326 2.449 . S
O347 C343 1.282 . S
H348 C321 0.931 . S
H349 C323 0.929 . S
H350 C324 0.930 . S
H351 C325 0.931 . S
H352 C332 0.932 . S
H353 C333 0.930 . S
H354 C334 0.929 . S
H355 C336 0.930 . S
H356 C338 0.932 . S
H357 C339 0.929 . S
H358 C340 0.928 . S
H359 C342 0.932 . S
C360 C361 1.264 . S
C360 C365 1.479 . S
C360 C370 1.465 . S
C361 C360 1.264 . S
C361 C363 1.339 . S
C361 H388 0.931 . S
C362 C363 1.395 . S
C362 C364 1.320 . S
C363 C361 1.339 . S
C363 C362 1.395 . S
C363 H389 0.929 . S
C364 C362 1.320 . S
C364 C365 1.405 . S
C364 H390 0.930 . S
C365 C360 1.479 . S
C365 C364 1.405 . S
C365 H391 0.931 . S
U366 O367 2.454 . S
U366 O368 2.458 . S
U366 C369 2.984 . S
U366 C370 2.847 . S
U366 C383 2.882 . S
U366 O384 2.441 . S
U366 O385 2.420 . S
U366 O386 2.455 . S
U366 O387 2.449 . S
O367 U366 2.454 . S
O367 C369 1.353 . S
O368 U366 2.458 . S
O368 C369 1.286 . S
C369 U366 2.984 . S
C369 O367 1.353 . S
C369 O368 1.286 . S
C369 C371 1.363 1_565 S
C370 C360 1.465 . S
C370 U366 2.847 . S
C370 O384 1.249 . S
C370 O385 1.202 . S
C371 C369 1.363 1_545 S
C371 C373 1.407 . S
C371 C376 1.342 . S
C372 C373 1.310 . S
C372 C375 1.461 . S
C372 H392 0.932 . S
C373 C371 1.407 . S
C373 C372 1.310 . S
C373 H393 0.930 1_545 S
C374 C375 1.474 . S
C374 C376 1.285 . S
C374 H394 0.929 . S
C375 C372 1.461 . S
C375 C374 1.474 . S
C376 C371 1.342 . S
C376 C374 1.285 . S
C376 H395 0.930 . S
C377 C380 1.424 . S
C377 C382 1.245 . S
C377 C383 1.428 . S
C378 C381 1.260 . S
C378 C382 1.477 . S
C378 H396 0.881 1_565 S
C379 C380 1.384 . S
C379 C381 1.479 . S
C379 H397 0.929 . S
C380 C377 1.424 . S
C380 C379 1.384 . S
C380 H398 0.928 . S
C381 C378 1.260 . S
C381 C379 1.479 . S
C382 C377 1.245 . S
C382 C378 1.477 . S
C382 H399 0.932 . S
C383 U366 2.882 . S
C383 C377 1.428 . S
C383 O386 1.301 . S
C383 O387 1.282 . S
O384 U366 2.441 . S
O384 C370 1.249 . S
O385 U366 2.420 . S
O385 C370 1.202 . S
O386 U366 2.455 . S
O386 C383 1.301 . S
O387 U366 2.449 . S
O387 C383 1.282 . S
H388 C361 0.931 . S
H389 C363 0.929 . S
H390 C364 0.930 . S
H391 C365 0.931 . S
H392 C372 0.932 . S
H393 C373 0.930 1_565 S
H394 C374 0.929 . S
H395 C376 0.930 . S
H396 C378 0.881 1_545 S
H397 C379 0.929 . S
H398 C380 0.928 . S
H399 C382 0.932 . S
C400 C401 1.264 . S
C400 C405 1.479 . S
C400 C410 1.465 . S
C401 C400 1.264 . S
C401 C403 1.339 . S
C401 H428 0.931 . S
C402 C403 1.395 . S
C402 C404 1.320 . S
C403 C401 1.339 . S
C403 C402 1.395 . S
C403 H429 0.929 . S
C404 C402 1.320 . S
C404 C405 1.405 . S
C404 H430 0.930 . S
C405 C400 1.479 . S
C405 C404 1.405 . S
C405 H431 0.931 . S
U406 O407 2.454 . S
U406 O408 2.458 . S
U406 C409 2.984 . S
U406 C410 2.847 . S
U406 C423 2.882 . S
U406 O424 2.441 . S
U406 O425 2.420 . S
U406 O426 2.455 . S
U406 O427 2.449 . S
O407 U406 2.454 . S
O407 C409 1.353 . S
O408 U406 2.458 . S
O408 C409 1.286 . S
C409 U406 2.984 . S
C409 O407 1.353 . S
C409 O408 1.286 . S
C409 C411 1.363 . S
C410 C400 1.465 . S
C410 U406 2.847 . S
C410 O424 1.249 . S
C410 O425 1.202 . S
C411 C409 1.363 . S
C411 C413 1.408 . S
C411 C416 1.342 . S
C412 C413 1.310 . S
C412 C415 1.461 . S
C412 H432 0.932 . S
C413 C411 1.408 . S
C413 C412 1.310 . S
C413 H433 0.930 . S
C414 C415 1.474 . S
C414 C416 1.285 . S
C414 H434 0.929 . S
C415 C412 1.461 . S
C415 C414 1.474 . S
C416 C411 1.342 . S
C416 C414 1.285 . S
C416 H435 0.930 . S
C417 C420 1.424 . S
C417 C422 1.245 . S
C417 C423 1.428 . S
C418 C421 1.260 . S
C418 C422 1.477 . S
C418 H436 0.932 . S
C419 C420 1.384 . S
C419 C421 1.479 . S
C419 H437 0.929 . S
C420 C417 1.424 . S
C420 C419 1.384 . S
C420 H438 0.928 . S
C421 C418 1.260 . S
C421 C419 1.479 . S
C422 C417 1.245 . S
C422 C418 1.477 . S
C422 H439 0.932 . S
C423 U406 2.882 . S
C423 C417 1.428 . S
C423 O426 1.301 . S
C423 O427 1.282 . S
O424 U406 2.441 . S
O424 C410 1.249 . S
O425 U406 2.420 . S
O425 C410 1.202 . S
O426 U406 2.455 . S
O426 C423 1.301 . S
O427 U406 2.449 . S
O427 C423 1.282 . S
H428 C401 0.931 . S
H429 C403 0.929 . S
H430 C404 0.930 . S
H431 C405 0.931 . S
H432 C412 0.932 . S
H433 C413 0.930 . S
H434 C414 0.929 . S
H435 C416 0.930 . S
H436 C418 0.932 . S
H437 C419 0.929 . S
H438 C420 0.928 . S
H439 C422 0.932 . S
C440 C441 1.264 . S
C440 C445 1.479 . S
C440 C450 1.465 . S
C441 C440 1.264 . S
C441 C443 1.339 . S
C441 H468 0.931 . S
C442 C443 1.395 . S
C442 C444 1.320 . S
C443 C441 1.339 . S
C443 C442 1.395 . S
C443 H469 0.929 . S
C444 C442 1.320 . S
C444 C445 1.405 . S
C444 H470 0.930 . S
C445 C440 1.479 . S
C445 C444 1.405 . S
C445 H471 0.931 . S
U446 O447 2.454 . S
U446 O448 2.458 . S
U446 C449 2.984 . S
U446 C450 2.847 . S
U446 C463 2.882 . S
U446 O464 2.441 . S
U446 O465 2.420 . S
U446 O466 2.455 . S
U446 O467 2.449 . S
O447 U446 2.454 . S
O447 C449 1.353 . S
O448 U446 2.458 . S
O448 C449 1.286 . S
C449 U446 2.984 . S
C449 O447 1.353 . S
C449 O448 1.286 . S
C449 C451 1.363 . S
C450 C440 1.465 . S
C450 U446 2.847 . S
C450 O464 1.249 . S
C450 O465 1.202 . S
C451 C449 1.363 . S
C451 C453 1.408 . S
C451 C456 1.342 . S
C452 C453 1.310 . S
C452 C455 1.461 . S
C452 H472 0.932 . S
C453 C451 1.408 . S
C453 C452 1.310 . S
C453 H473 0.930 . S
C454 C455 1.474 . S
C454 C456 1.285 . S
C454 H474 0.929 . S
C455 C452 1.461 . S
C455 C454 1.474 . S
C456 C451 1.342 . S
C456 C454 1.285 . S
C456 H475 0.930 . S
C457 C460 1.424 . S
C457 C462 1.245 . S
C457 C463 1.428 . S
C458 C461 1.260 . S
C458 C462 1.477 . S
C458 H476 0.932 . S
C459 C460 1.384 . S
C459 C461 1.479 . S
C459 H477 0.929 . S
C460 C457 1.424 . S
C460 C459 1.384 . S
C460 H478 0.928 . S
C461 C458 1.260 . S
C461 C459 1.479 . S
C462 C457 1.245 . S
C462 C458 1.477 . S
C462 H479 0.932 . S
C463 U446 2.882 . S
C463 C457 1.428 . S
C463 O466 1.301 . S
C463 O467 1.282 . S
O464 U446 2.441 . S
O464 C450 1.249 . S
O465 U446 2.420 . S
O465 C450 1.202 . S
O466 U446 2.455 . S
O466 C463 1.301 . S
O467 U446 2.449 . S
O467 C463 1.282 . S
H468 C441 0.931 . S
H469 C443 0.929 . S
H470 C444 0.930 . S
H471 C445 0.931 . S
H472 C452 0.932 . S
H473 C453 0.930 . S
H474 C454 0.929 . S
H475 C456 0.930 . S
H476 C458 0.932 . S
H477 C459 0.929 . S
H478 C460 0.928 . S
H479 C462 0.932 . S
C480 C481 1.264 . S
C480 C485 1.479 . S
C480 C490 1.465 . S
C481 C480 1.264 . S
C481 C483 1.339 . S
C481 H508 0.931 . S
C482 C483 1.395 . S
C482 C484 1.320 . S
C483 C481 1.339 . S
C483 C482 1.395 . S
C483 H509 0.929 . S
C484 C482 1.320 . S
C484 C485 1.405 . S
C484 H510 0.930 . S
C485 C480 1.479 . S
C485 C484 1.405 . S
C485 H511 0.931 . S
U486 O487 2.454 . S
U486 O488 2.458 . S
U486 C489 2.984 . S
U486 C490 2.847 . S
U486 C503 2.882 . S
U486 O504 2.441 . S
U486 O505 2.420 . S
U486 O506 2.455 . S
U486 O507 2.449 . S
O487 U486 2.454 . S
O487 C489 1.353 . S
O488 U486 2.458 . S
O488 C489 1.286 . S
C489 U486 2.984 . S
C489 O487 1.353 . S
C489 O488 1.286 . S
C489 C491 1.363 . S
C490 C480 1.465 . S
C490 U486 2.847 . S
C490 O504 1.249 . S
C490 O505 1.202 . S
C491 C489 1.363 . S
C491 C493 1.408 . S
C491 C496 1.342 . S
C492 C493 1.310 . S
C492 C495 1.461 . S
C492 H512 0.932 . S
C493 C491 1.408 . S
C493 C492 1.310 . S
C493 H513 0.930 . S
C494 C495 1.474 . S
C494 C496 1.285 . S
C494 H514 0.929 . S
C495 C492 1.461 . S
C495 C494 1.474 . S
C496 C491 1.342 . S
C496 C494 1.285 . S
C496 H515 0.930 . S
C497 C500 1.424 . S
C497 C502 1.245 . S
C497 C503 1.428 . S
C498 C501 1.260 . S
C498 C502 1.477 . S
C498 H516 0.932 . S
C499 C500 1.384 . S
C499 C501 1.479 . S
C499 H517 0.929 . S
C500 C497 1.424 . S
C500 C499 1.384 . S
C500 H518 0.928 . S
C501 C498 1.260 . S
C501 C499 1.479 . S
C502 C497 1.245 . S
C502 C498 1.477 . S
C502 H519 0.932 . S
C503 U486 2.882 . S
C503 C497 1.428 . S
C503 O506 1.301 . S
C503 O507 1.282 . S
O504 U486 2.441 . S
O504 C490 1.249 . S
O505 U486 2.420 . S
O505 C490 1.202 . S
O506 U486 2.455 . S
O506 C503 1.301 . S
O507 U486 2.449 . S
O507 C503 1.282 . S
H508 C481 0.931 . S
H509 C483 0.929 . S
H510 C484 0.930 . S
H511 C485 0.931 . S
H512 C492 0.932 . S
H513 C493 0.930 . S
H514 C494 0.929 . S
H515 C496 0.930 . S
H516 C498 0.932 . S
H517 C499 0.929 . S
H518 C500 0.928 . S
H519 C502 0.932 . S
C520 C521 1.264 . S
C520 C525 1.479 . S
C520 C530 1.465 . S
C521 C520 1.264 . S
C521 C523 1.339 . S
C521 H548 0.931 . S
C522 C523 1.395 . S
C522 C524 1.320 . S
C523 C521 1.339 . S
C523 C522 1.395 . S
C523 H549 0.929 . S
C524 C522 1.320 . S
C524 C525 1.405 . S
C524 H550 0.930 . S
C525 C520 1.479 . S
C525 C524 1.405 . S
C525 H551 0.931 . S
U526 O527 2.454 . S
U526 O528 2.458 . S
U526 C529 2.984 . S
U526 C530 2.847 . S
U526 C543 2.882 . S
U526 O544 2.441 . S
U526 O545 2.420 . S
U526 O546 2.455 . S
U526 O547 2.449 . S
O527 U526 2.454 . S
O527 C529 1.353 . S
O528 U526 2.458 . S
O528 C529 1.286 . S
C529 U526 2.984 . S
C529 O527 1.353 . S
C529 O528 1.286 . S
C529 C531 1.363 1_556 S
C530 C520 1.465 . S
C530 U526 2.847 . S
C530 O544 1.249 . S
C530 O545 1.202 . S
C531 C529 1.363 1_554 S
C531 C533 1.408 . S
C531 C536 1.342 . S
C532 C533 1.310 . S
C532 C535 1.461 . S
C532 H552 0.932 . S
C533 C531 1.408 . S
C533 C532 1.310 . S
C533 H553 0.930 1_554 S
C534 C535 1.474 . S
C534 C536 1.285 . S
C534 H554 0.929 . S
C535 C532 1.461 . S
C535 C534 1.474 . S
C536 C531 1.342 . S
C536 C534 1.285 . S
C536 H555 0.930 . S
C537 C540 1.424 . S
C537 C542 1.245 . S
C537 C543 1.428 . S
C538 C541 1.260 . S
C538 C542 1.477 . S
C538 H556 0.932 1_556 S
C539 C540 1.384 . S
C539 C541 1.479 . S
C539 H557 0.929 . S
C540 C537 1.424 . S
C540 C539 1.384 . S
C540 H558 0.928 . S
C541 C538 1.260 . S
C541 C539 1.479 . S
C542 C537 1.245 . S
C542 C538 1.477 . S
C542 H559 0.932 . S
C543 U526 2.882 . S
C543 C537 1.428 . S
C543 O546 1.301 . S
C543 O547 1.282 . S
O544 U526 2.441 . S
O544 C530 1.249 . S
O545 U526 2.420 . S
O545 C530 1.202 . S
O546 U526 2.455 . S
O546 C543 1.301 . S
O547 U526 2.449 . S
O547 C543 1.282 . S
H548 C521 0.931 . S
H549 C523 0.929 . S
H550 C524 0.930 . S
H551 C525 0.931 . S
H552 C532 0.932 . S
H553 C533 0.930 1_556 S
H554 C534 0.929 . S
H555 C536 0.930 . S
H556 C538 0.932 1_554 S
H557 C539 0.929 . S
H558 C540 0.928 . S
H559 C542 0.932 . S
C560 C561 1.264 . S
C560 C565 1.479 . S
C560 C570 1.465 . S
C561 C560 1.264 . S
C561 C563 1.339 . S
C561 H588 0.931 . S
C562 C563 1.395 . S
C562 C564 1.320 . S
C563 C561 1.339 . S
C563 C562 1.395 . S
C563 H589 0.929 . S
C564 C562 1.320 . S
C564 C565 1.405 . S
C564 H590 0.930 . S
C565 C560 1.479 . S
C565 C564 1.405 . S
C565 H591 0.931 . S
U566 O567 2.454 . S
U566 O568 2.458 . S
U566 C569 2.984 . S
U566 C570 2.847 . S
U566 C583 2.882 . S
U566 O584 2.441 . S
U566 O585 2.420 . S
U566 O586 2.455 . S
U566 O587 2.449 . S
O567 U566 2.454 . S
O567 C569 1.353 . S
O568 U566 2.458 . S
O568 C569 1.286 . S
C569 U566 2.984 . S
C569 O567 1.353 . S
C569 O568 1.286 . S
C569 C571 1.363 . S
C570 C560 1.465 . S
C570 U566 2.847 . S
C570 O584 1.249 . S
C570 O585 1.202 . S
C571 C569 1.363 . S
C571 C573 1.408 . S
C571 C576 1.342 . S
C572 C573 1.310 . S
C572 C575 1.461 . S
C572 H592 0.932 . S
C573 C571 1.408 . S
C573 C572 1.310 . S
C573 H593 0.930 . S
C574 C575 1.474 . S
C574 C576 1.285 . S
C574 H594 0.929 . S
C575 C572 1.461 . S
C575 C574 1.474 . S
C576 C571 1.342 . S
C576 C574 1.285 . S
C576 H595 0.930 . S
C577 C580 1.424 . S
C577 C582 1.245 . S
C577 C583 1.428 . S
C578 C581 1.260 . S
C578 C582 1.477 . S
C578 H596 0.932 . S
C579 C580 1.384 . S
C579 C581 1.479 . S
C579 H597 0.929 . S
C580 C577 1.424 . S
C580 C579 1.384 . S
C580 H598 0.928 . S
C581 C578 1.260 . S
C581 C579 1.479 . S
C582 C577 1.245 . S
C582 C578 1.477 . S
C582 H599 0.932 . S
C583 U566 2.882 . S
C583 C577 1.428 . S
C583 O586 1.301 . S
C583 O587 1.282 . S
O584 U566 2.441 . S
O584 C570 1.249 . S
O585 U566 2.420 . S
O585 C570 1.202 . S
O586 U566 2.455 . S
O586 C583 1.301 . S
O587 U566 2.449 . S
O587 C583 1.282 . S
H588 C561 0.931 . S
H589 C563 0.929 . S
H590 C564 0.930 . S
H591 C565 0.931 . S
H592 C572 0.932 . S
H593 C573 0.930 . S
H594 C574 0.929 . S
H595 C576 0.930 . S
H596 C578 0.932 . S
H597 C579 0.929 . S
H598 C580 0.928 . S
H599 C582 0.932 . S
C600 C601 1.264 . S
C600 C605 1.479 . S
C600 C610 1.465 1_554 S
C601 C600 1.264 . S
C601 C603 1.339 . S
C601 H628 0.931 1_554 S
C602 C603 1.395 . S
C602 C604 1.320 . S
C603 C601 1.339 . S
C603 C602 1.395 . S
C603 H629 0.929 . S
C604 C602 1.320 . S
C604 C605 1.405 . S
C604 H630 0.930 . S
C605 C600 1.479 . S
C605 C604 1.405 . S
C605 H631 0.931 . S
U606 O607 2.454 . S
U606 O608 2.458 . S
U606 C609 2.984 . S
U606 C610 2.847 . S
U606 C623 2.882 . S
U606 O624 2.453 . S
U606 O625 2.420 . S
U606 O626 2.455 . S
U606 O627 2.449 . S
O607 U606 2.454 . S
O607 C609 1.353 . S
O608 U606 2.458 . S
O608 C609 1.286 . S
C609 U606 2.984 . S
C609 O607 1.353 . S
C609 O608 1.286 . S
C609 C611 1.363 1_545 S
C610 C600 1.465 1_556 S
C610 U606 2.847 . S
C610 O624 1.251 . S
C610 O625 1.202 . S
C611 C609 1.363 1_565 S
C611 C613 1.401 1_565 S
C611 C616 1.342 . S
C612 C613 1.280 1_565 S
C612 C615 1.461 . S
C612 H632 0.932 1_556 S
C613 C611 1.401 1_545 S
C613 C612 1.280 1_545 S
C613 H633 0.936 1_556 S
C614 C615 1.474 . S
C614 C616 1.285 . S
C614 H634 0.929 . S
C615 C612 1.461 . S
C615 C614 1.474 . S
C616 C611 1.342 . S
C616 C614 1.285 . S
C616 H635 0.930 . S
C617 C620 1.424 . S
C617 C622 1.245 . S
C617 C623 1.428 . S
C618 C621 1.260 . S
C618 C622 1.477 . S
C618 H636 0.937 1_545 S
C619 C620 1.384 . S
C619 C621 1.479 . S
C619 H637 0.929 . S
C620 C617 1.424 . S
C620 C619 1.384 . S
C620 H638 0.928 . S
C621 C618 1.260 . S
C621 C619 1.479 . S
C622 C617 1.245 . S
C622 C618 1.477 . S
C622 H639 0.932 . S
C623 U606 2.882 . S
C623 C617 1.428 . S
C623 O626 1.301 . S
C623 O627 1.282 . S
O624 U606 2.453 . S
O624 C610 1.251 . S
O625 U606 2.420 . S
O625 C610 1.202 . S
O626 U606 2.455 . S
O626 C623 1.301 . S
O627 U606 2.449 . S
O627 C623 1.282 . S
H628 C601 0.931 1_556 S
H629 C603 0.929 . S
H630 C604 0.930 . S
H631 C605 0.931 . S
H632 C612 0.932 1_554 S
H633 C613 0.936 1_554 S
H634 C614 0.929 . S
H635 C616 0.930 . S
H636 C618 0.937 1_565 S
H637 C619 0.929 . S
H638 C620 0.928 . S
H639 C622 0.932 . S
Li640 N657 1.990 1_554 S
Li640 O700 1.956 . S
Li640 O701 1.970 . S
Li640 O702 1.961 1_554 S
Li641 N665 1.990 . S
Li641 O700 1.970 . S
Li641 O701 1.956 . S
Li641 O703 1.961 . S
Li642 N687 1.990 . S
Li642 O700 1.961 1_556 S
Li642 O702 1.956 . S
Li642 O703 1.970 1_556 S
Li643 N693 1.990 . S
Li643 O701 1.961 . S
Li643 O702 1.970 1_554 S
Li643 O703 1.956 . S
C644 C646 1.364 . S
C644 C647 1.337 1_554 S
C644 O700 1.328 . S
N645 C648 1.314 1_556 S
N645 C649 1.279 . S
C646 C644 1.364 . S
C646 C648 1.353 . S
C646 H704 0.929 . S
C647 C644 1.337 1_556 S
C647 C649 1.358 . S
C647 H705 0.930 . S
C648 N645 1.314 1_554 S
C648 C646 1.353 . S
C648 H706 0.930 . S
C649 N645 1.279 . S
C649 C647 1.358 . S
C649 H707 0.930 . S
C650 C653 1.348 . S
C650 C654 1.356 . S
C650 O701 1.325 . S
C651 N652 1.279 . S
C651 C654 1.358 . S
C651 H708 0.930 . S
N652 C651 1.279 . S
N652 C655 1.314 . S
C653 C650 1.348 . S
C653 C655 1.353 . S
C653 H709 0.929 . S
C654 C650 1.356 . S
C654 C651 1.358 . S
C654 H710 0.930 . S
C655 N652 1.314 . S
C655 C653 1.353 . S
C655 H711 0.930 . S
C656 N657 1.314 . S
C656 C661 1.353 . S
C656 H662 0.930 . S
N657 Li640 1.990 1_556 S
N657 C656 1.314 . S
N657 C659 1.278 . S
C658 C659 1.358 . S
C658 C660 1.356 . S
C658 H712 0.934 . S
C659 N657 1.278 . S
C659 C658 1.358 . S
C659 H663 0.932 1_556 S
C660 C658 1.356 . S
C660 C661 1.348 . S
C661 C656 1.353 . S
C661 C660 1.348 . S
C661 H713 0.929 . S
H662 C656 0.930 . S
H663 C659 0.932 1_554 S
C664 N665 1.314 . S
C664 C666 1.353 . S
C664 H670 0.930 . S
N665 Li641 1.990 . S
N665 C664 1.314 . S
N665 C668 1.279 . S
C666 C664 1.353 . S
C666 C669 1.348 . S
C666 H714 0.929 . S
C667 C668 1.358 . S
C667 C669 1.356 . S
C667 H715 0.930 . S
C668 N665 1.279 . S
C668 C667 1.358 . S
C668 H671 0.930 . S
C669 C666 1.348 . S
C669 C667 1.356 . S
H670 C664 0.930 . S
H671 C668 0.930 . S
C672 C674 1.348 . S
C672 C675 1.356 . S
C672 O702 1.325 . S
N673 C676 1.314 . S
N673 C677 1.279 . S
C674 C672 1.348 . S
C674 C676 1.353 . S
C674 H716 0.929 . S
C675 C672 1.356 . S
C675 C677 1.358 . S
C675 H717 0.930 . S
C676 N673 1.314 . S
C676 C674 1.353 . S
C676 H718 0.930 . S
C677 N673 1.279 . S
C677 C675 1.358 . S
C677 H719 0.930 . S
C678 C679 1.348 1_554 S
C678 C680 1.356 . S
C678 O703 1.325 . S
C679 C678 1.348 1_556 S
C679 C681 1.352 . S
C679 H720 0.929 . S
C680 C678 1.356 . S
C680 C682 1.358 . S
C680 H721 0.930 . S
C681 C679 1.352 . S
C681 N683 1.320 1_556 S
C681 H722 0.924 . S
C682 C680 1.358 . S
C682 N683 1.279 . S
C682 H723 0.930 . S
N683 C681 1.320 1_554 S
N683 C682 1.279 . S
C684 C686 1.353 . S
C684 N687 1.314 . S
C684 H690 0.930 . S
C685 N687 1.279 . S
C685 C688 1.358 . S
C685 H691 0.930 . S
C686 C684 1.353 . S
C686 C689 1.348 . S
C686 H724 0.929 . S
N687 Li642 1.990 . S
N687 C684 1.314 . S
N687 C685 1.279 . S
C688 C685 1.358 . S
C688 C689 1.356 . S
C688 H725 0.930 . S
C689 C686 1.348 . S
C689 C688 1.356 . S
H690 C684 0.930 . S
H691 C685 0.930 . S
C692 N693 1.314 . S
C692 C694 1.353 . S
C692 H698 0.930 . S
N693 Li643 1.990 . S
N693 C692 1.314 . S
N693 C696 1.279 . S
C694 C692 1.353 . S
C694 C697 1.348 . S
C694 H726 0.929 . S
C695 C696 1.358 . S
C695 C697 1.356 . S
C695 H727 0.930 . S
C696 N693 1.279 . S
C696 C695 1.358 . S
C696 H699 0.930 . S
C697 C694 1.348 . S
C697 C695 1.356 . S
H698 C692 0.930 . S
H699 C696 0.930 . S
O700 Li640 1.956 . S
O700 Li641 1.970 . S
O700 Li642 1.961 1_554 S
O700 C644 1.328 . S
O701 Li640 1.970 . S
O701 Li641 1.956 . S
O701 Li643 1.961 . S
O701 C650 1.325 . S
O702 Li640 1.961 1_556 S
O702 Li642 1.956 . S
O702 Li643 1.970 1_556 S
O702 C672 1.325 . S
O703 Li641 1.961 . S
O703 Li642 1.970 1_554 S
O703 Li643 1.956 . S
O703 C678 1.325 . S
H704 C646 0.929 . S
H705 C647 0.930 . S
H706 C648 0.930 . S
H707 C649 0.930 . S
H708 C651 0.930 . S
H709 C653 0.929 . S
H710 C654 0.930 . S
H711 C655 0.930 . S
H712 C658 0.934 . S
H713 C661 0.929 . S
H714 C666 0.929 . S
H715 C667 0.930 . S
H716 C674 0.929 . S
H717 C675 0.930 . S
H718 C676 0.930 . S
H719 C677 0.930 . S
H720 C679 0.929 . S
H721 C680 0.930 . S
H722 C681 0.924 . S
H723 C682 0.930 . S
H724 C686 0.929 . S
H725 C688 0.930 . S
H726 C694 0.929 . S
H727 C695 0.930 . S
Li728 N745 1.990 . S
Li728 O788 1.956 . S
Li728 O789 1.970 . S
Li728 O790 1.961 . S
Li729 N753 1.990 . S
Li729 O788 1.970 . S
Li729 O789 1.956 . S
Li729 O791 1.961 . S
Li730 N775 1.990 . S
Li730 O788 1.961 . S
Li730 O790 1.956 . S
Li730 O791 1.970 . S
Li731 N781 1.990 . S
Li731 O789 1.961 . S
Li731 O790 1.970 . S
Li731 O791 1.956 . S
C732 C734 1.348 . S
C732 C735 1.356 . S
C732 O788 1.325 . S
N733 C736 1.314 . S
N733 C737 1.279 . S
C734 C732 1.348 . S
C734 C736 1.353 . S
C734 H792 0.929 . S
C735 C732 1.356 . S
C735 C737 1.358 . S
C735 H793 0.930 . S
C736 N733 1.314 . S
C736 C734 1.353 . S
C736 H794 0.930 . S
C737 N733 1.279 . S
C737 C735 1.358 . S
C737 H795 0.930 . S
C738 C741 1.348 . S
C738 C742 1.356 . S
C738 O789 1.325 . S
C739 N740 1.279 . S
C739 C742 1.358 . S
C739 H796 0.930 . S
N740 C739 1.279 . S
N740 C743 1.314 . S
C741 C738 1.348 . S
C741 C743 1.353 . S
C741 H797 0.929 . S
C742 C738 1.356 . S
C742 C739 1.358 . S
C742 H798 0.930 . S
C743 N740 1.314 . S
C743 C741 1.353 . S
C743 H799 0.930 . S
C744 N745 1.314 . S
C744 C749 1.353 . S
C744 H750 0.930 . S
N745 Li728 1.990 . S
N745 C744 1.314 . S
N745 C747 1.279 . S
C746 C747 1.358 . S
C746 C748 1.356 . S
C746 H800 0.930 . S
C747 N745 1.279 . S
C747 C746 1.358 . S
C747 H751 0.930 . S
C748 C746 1.356 . S
C748 C749 1.348 . S
C749 C744 1.353 . S
C749 C748 1.348 . S
C749 H801 0.929 . S
H750 C744 0.930 . S
H751 C747 0.930 . S
C752 N753 1.314 . S
C752 C754 1.353 . S
C752 H758 0.930 . S
N753 Li729 1.990 . S
N753 C752 1.314 . S
N753 C756 1.279 . S
C754 C752 1.353 . S
C754 C757 1.348 . S
C754 H802 0.929 . S
C755 C756 1.358 . S
C755 C757 1.356 . S
C755 H803 0.930 . S
C756 N753 1.279 . S
C756 C755 1.358 . S
C756 H759 0.930 . S
C757 C754 1.348 . S
C757 C755 1.356 . S
H758 C752 0.930 . S
H759 C756 0.930 . S
C760 C762 1.348 . S
C760 C763 1.356 . S
C760 O790 1.325 . S
N761 C764 1.314 . S
N761 C765 1.279 . S
C762 C760 1.348 . S
C762 C764 1.353 . S
C762 H804 0.929 . S
C763 C760 1.356 . S
C763 C765 1.358 . S
C763 H805 0.930 . S
C764 N761 1.314 . S
C764 C762 1.353 . S
C764 H806 0.930 . S
C765 N761 1.279 . S
C765 C763 1.358 . S
C765 H807 0.930 . S
C766 C767 1.348 . S
C766 C768 1.356 . S
C766 O791 1.325 . S
C767 C766 1.348 . S
C767 C769 1.353 . S
C767 H808 0.929 . S
C768 C766 1.356 . S
C768 C770 1.358 . S
C768 H809 0.930 . S
C769 C767 1.353 . S
C769 N771 1.314 . S
C769 H810 0.930 . S
C770 C768 1.358 . S
C770 N771 1.279 . S
C770 H811 0.930 . S
N771 C769 1.314 . S
N771 C770 1.279 . S
C772 C774 1.353 . S
C772 N775 1.314 . S
C772 H778 0.930 . S
C773 N775 1.279 . S
C773 C776 1.358 . S
C773 H779 0.930 . S
C774 C772 1.353 . S
C774 C777 1.348 . S
C774 H812 0.929 . S
N775 Li730 1.990 . S
N775 C772 1.314 . S
N775 C773 1.279 . S
C776 C773 1.358 . S
C776 C777 1.356 . S
C776 H813 0.930 . S
C777 C774 1.348 . S
C777 C776 1.356 . S
H778 C772 0.930 . S
H779 C773 0.930 . S
C780 N781 1.314 . S
C780 C782 1.353 . S
C780 H786 0.930 . S
N781 Li731 1.990 . S
N781 C780 1.314 . S
N781 C784 1.279 . S
C782 C780 1.353 . S
C782 C785 1.348 . S
C782 H814 0.929 . S
C783 C784 1.358 . S
C783 C785 1.356 . S
C783 H815 0.930 . S
C784 N781 1.279 . S
C784 C783 1.358 . S
C784 H787 0.930 . S
C785 C782 1.348 . S
C785 C783 1.356 . S
H786 C780 0.930 . S
H787 C784 0.930 . S
O788 Li728 1.956 . S
O788 Li729 1.970 . S
O788 Li730 1.961 . S
O788 C732 1.325 . S
O789 Li728 1.970 . S
O789 Li729 1.956 . S
O789 Li731 1.961 . S
O789 C738 1.325 . S
O790 Li728 1.961 . S
O790 Li730 1.956 . S
O790 Li731 1.970 . S
O790 C760 1.325 . S
O791 Li729 1.961 . S
O791 Li730 1.970 . S
O791 Li731 1.956 . S
O791 C766 1.325 . S
H792 C734 0.929 . S
H793 C735 0.930 . S
H794 C736 0.930 . S
H795 C737 0.930 . S
H796 C739 0.930 . S
H797 C741 0.929 . S
H798 C742 0.930 . S
H799 C743 0.930 . S
H800 C746 0.930 . S
H801 C749 0.929 . S
H802 C754 0.929 . S
H803 C755 0.930 . S
H804 C762 0.929 . S
H805 C763 0.930 . S
H806 C764 0.930 . S
H807 C765 0.930 . S
H808 C767 0.929 . S
H809 C768 0.930 . S
H810 C769 0.930 . S
H811 C770 0.930 . S
H812 C774 0.929 . S
H813 C776 0.930 . S
H814 C782 0.929 . S
H815 C783 0.930 . S
Li816 N833 1.990 . S
Li816 O876 1.956 . S
Li816 O877 1.970 1_556 S
Li816 O878 1.961 . S
Li817 N841 1.990 . S
Li817 O876 1.970 1_554 S
Li817 O877 1.956 . S
Li817 O879 1.961 . S
Li818 N863 1.990 . S
Li818 O876 1.961 . S
Li818 O878 1.956 . S
Li818 O879 1.970 1_556 S
Li819 N869 1.990 . S
Li819 O877 1.961 . S
Li819 O878 1.970 1_554 S
Li819 O879 1.956 . S
C820 C822 1.348 1_556 S
C820 C823 1.356 . S
C820 O876 1.325 . S
N821 C824 1.314 1_556 S
N821 C825 1.279 . S
C822 C820 1.348 1_554 S
C822 C824 1.353 . S
C822 H880 0.929 . S
C823 C820 1.356 . S
C823 C825 1.358 . S
C823 H881 0.930 . S
C824 N821 1.314 1_554 S
C824 C822 1.353 . S
C824 H882 0.930 . S
C825 N821 1.279 . S
C825 C823 1.358 . S
C825 H883 0.930 . S
C826 C829 1.348 . S
C826 C830 1.356 . S
C826 O877 1.325 . S
C827 N828 1.279 . S
C827 C830 1.358 . S
C827 H884 0.930 . S
N828 C827 1.279 . S
N828 C831 1.314 . S
C829 C826 1.348 . S
C829 C831 1.353 . S
C829 H885 0.929 . S
C830 C826 1.356 . S
C830 C827 1.358 . S
C830 H886 0.930 . S
C831 N828 1.314 . S
C831 C829 1.353 . S
C831 H887 0.930 . S
C832 N833 1.314 . S
C832 C837 1.353 . S
C832 H838 0.930 . S
N833 Li816 1.990 . S
N833 C832 1.314 . S
N833 C835 1.279 . S
C834 C835 1.358 . S
C834 C836 1.356 . S
C834 H888 0.930 . S
C835 N833 1.279 . S
C835 C834 1.358 . S
C835 H839 0.930 . S
C836 C834 1.356 . S
C836 C837 1.348 . S
C837 C832 1.353 . S
C837 C836 1.348 . S
C837 H889 0.929 . S
H838 C832 0.930 . S
H839 C835 0.930 . S
C840 N841 1.314 . S
C840 C842 1.353 . S
C840 H846 0.930 . S
N841 Li817 1.990 . S
N841 C840 1.314 . S
N841 C844 1.279 . S
C842 C840 1.353 . S
C842 C845 1.348 . S
C842 H890 0.929 . S
C843 C844 1.358 . S
C843 C845 1.356 . S
C843 H891 0.930 . S
C844 N841 1.279 . S
C844 C843 1.358 . S
C844 H847 0.930 . S
C845 C842 1.348 . S
C845 C843 1.356 . S
H846 C840 0.930 . S
H847 C844 0.930 . S
C848 C850 1.348 . S
C848 C851 1.356 . S
C848 O878 1.325 . S
N849 C852 1.314 . S
N849 C853 1.279 . S
C850 C848 1.348 . S
C850 C852 1.353 . S
C850 H892 0.929 . S
C851 C848 1.356 . S
C851 C853 1.358 . S
C851 H893 0.930 . S
C852 N849 1.314 . S
C852 C850 1.353 . S
C852 H894 0.930 . S
C853 N849 1.279 . S
C853 C851 1.358 . S
C853 H895 0.930 . S
C854 C855 1.348 1_554 S
C854 C856 1.356 . S
C854 O879 1.325 . S
C855 C854 1.348 1_556 S
C855 C857 1.353 . S
C855 H896 0.929 . S
C856 C854 1.356 . S
C856 C858 1.358 . S
C856 H897 0.930 . S
C857 C855 1.353 . S
C857 N859 1.314 1_556 S
C857 H898 0.930 . S
C858 C856 1.358 . S
C858 N859 1.279 . S
C858 H899 0.930 . S
N859 C857 1.314 1_554 S
N859 C858 1.279 . S
C860 C862 1.353 . S
C860 N863 1.314 . S
C860 H866 0.930 . S
C861 N863 1.279 . S
C861 C864 1.358 . S
C861 H867 0.930 . S
C862 C860 1.353 . S
C862 C865 1.348 . S
C862 H900 0.929 . S
N863 Li818 1.990 . S
N863 C860 1.314 . S
N863 C861 1.279 . S
C864 C861 1.358 . S
C864 C865 1.356 . S
C864 H901 0.930 . S
C865 C862 1.348 . S
C865 C864 1.356 . S
H866 C860 0.930 . S
H867 C861 0.930 . S
C868 N869 1.314 . S
C868 C870 1.353 . S
C868 H874 0.930 . S
N869 Li819 1.990 . S
N869 C868 1.314 . S
N869 C872 1.279 . S
C870 C868 1.353 . S
C870 C873 1.348 . S
C870 H902 0.929 . S
C871 C872 1.358 . S
C871 C873 1.356 . S
C871 H903 0.930 . S
C872 N869 1.279 . S
C872 C871 1.358 . S
C872 H875 0.930 . S
C873 C870 1.348 . S
C873 C871 1.356 . S
H874 C868 0.930 . S
H875 C872 0.930 . S
O876 Li816 1.956 . S
O876 Li817 1.970 1_556 S
O876 Li818 1.961 . S
O876 C820 1.325 . S
O877 Li816 1.970 1_554 S
O877 Li817 1.956 . S
O877 Li819 1.961 . S
O877 C826 1.325 . S
O878 Li816 1.961 . S
O878 Li818 1.956 . S
O878 Li819 1.970 1_556 S
O878 C848 1.325 . S
O879 Li817 1.961 . S
O879 Li818 1.970 1_554 S
O879 Li819 1.956 . S
O879 C854 1.325 . S
H880 C822 0.929 . S
H881 C823 0.930 . S
H882 C824 0.930 . S
H883 C825 0.930 . S
H884 C827 0.930 . S
H885 C829 0.929 . S
H886 C830 0.930 . S
H887 C831 0.930 . S
H888 C834 0.930 . S
H889 C837 0.929 . S
H890 C842 0.929 . S
H891 C843 0.930 . S
H892 C850 0.929 . S
H893 C851 0.930 . S
H894 C852 0.930 . S
H895 C853 0.930 . S
H896 C855 0.929 . S
H897 C856 0.930 . S
H898 C857 0.930 . S
H899 C858 0.930 . S
H900 C862 0.929 . S
H901 C864 0.930 . S
H902 C870 0.929 . S
H903 C871 0.930 . S
Li904 N921 1.990 . S
Li904 O964 1.956 . S
Li904 O965 1.970 1_545 S
Li904 O966 1.961 . S
Li905 N929 1.990 . S
Li905 O964 1.970 1_565 S
Li905 O965 1.956 . S
Li905 O967 1.961 . S
Li906 N951 1.990 . S
Li906 O964 1.961 . S
Li906 O966 1.956 . S
Li906 O967 1.970 1_545 S
Li907 N957 1.990 . S
Li907 O965 1.961 . S
Li907 O966 1.970 1_565 S
Li907 O967 1.956 . S
C908 C910 1.348 . S
C908 C911 1.356 . S
C908 O964 1.325 . S
N909 C912 1.314 . S
N909 C913 1.279 . S
C910 C908 1.348 . S
C910 C912 1.353 . S
C910 H968 0.929 . S
C911 C908 1.356 . S
C911 C913 1.358 . S
C911 H969 0.930 . S
C912 N909 1.314 . S
C912 C910 1.353 . S
C912 H970 0.930 . S
C913 N909 1.279 . S
C913 C911 1.358 . S
C913 H971 0.930 . S
C914 C917 1.348 1_565 S
C914 C918 1.356 . S
C914 O965 1.325 . S
C915 N916 1.279 . S
C915 C918 1.358 . S
C915 H972 0.930 . S
N916 C915 1.279 . S
N916 C919 1.314 1_565 S
C917 C914 1.348 1_545 S
C917 C919 1.353 . S
C917 H973 0.929 . S
C918 C914 1.356 . S
C918 C915 1.358 . S
C918 H974 0.930 . S
C919 N916 1.314 1_545 S
C919 C917 1.353 . S
C919 H975 0.930 . S
C920 N921 1.314 . S
C920 C925 1.353 . S
C920 H926 0.930 . S
N921 Li904 1.990 . S
N921 C920 1.314 . S
N921 C923 1.279 . S
C922 C923 1.358 . S
C922 C924 1.356 . S
C922 H976 0.930 . S
C923 N921 1.279 . S
C923 C922 1.358 . S
C923 H927 0.930 . S
C924 C922 1.356 . S
C924 C925 1.348 . S
C925 C920 1.353 . S
C925 C924 1.348 . S
C925 H977 0.929 . S
H926 C920 0.930 . S
H927 C923 0.930 . S
C928 N929 1.314 . S
C928 C930 1.353 . S
C928 H934 0.930 . S
N929 Li905 1.990 . S
N929 C928 1.314 . S
N929 C932 1.279 . S
C930 C928 1.353 . S
C930 C933 1.348 . S
C930 H978 0.929 . S
C931 C932 1.358 . S
C931 C933 1.356 . S
C931 H979 0.930 . S
C932 N929 1.279 . S
C932 C931 1.358 . S
C932 H935 0.930 . S
C933 C930 1.348 . S
C933 C931 1.356 . S
H934 C928 0.930 . S
H935 C932 0.930 . S
C936 C938 1.348 1_545 S
C936 C939 1.356 . S
C936 O966 1.325 . S
N937 C940 1.314 1_545 S
N937 C941 1.279 . S
C938 C936 1.348 1_565 S
C938 C940 1.353 . S
C938 H980 0.929 . S
C939 C936 1.356 . S
C939 C941 1.358 . S
C939 H981 0.930 . S
C940 N937 1.314 1_565 S
C940 C938 1.353 . S
C940 H982 0.930 . S
C941 N937 1.279 . S
C941 C939 1.358 . S
C941 H983 0.930 . S
C942 C943 1.348 . S
C942 C944 1.356 . S
C942 O967 1.325 . S
C943 C942 1.348 . S
C943 C945 1.353 . S
C943 H984 0.929 . S
C944 C942 1.356 . S
C944 C946 1.358 . S
C944 H985 0.930 . S
C945 C943 1.353 . S
C945 N947 1.314 . S
C945 H986 0.930 . S
C946 C944 1.358 . S
C946 N947 1.279 . S
C946 H987 0.930 . S
N947 C945 1.314 . S
N947 C946 1.279 . S
C948 C950 1.353 . S
C948 N951 1.314 . S
C948 H954 0.930 . S
C949 N951 1.279 . S
C949 C952 1.358 . S
C949 H955 0.930 . S
C950 C948 1.353 . S
C950 C953 1.348 . S
C950 H988 0.929 . S
N951 Li906 1.990 . S
N951 C948 1.314 . S
N951 C949 1.279 . S
C952 C949 1.358 . S
C952 C953 1.356 . S
C952 H989 0.930 . S
C953 C950 1.348 . S
C953 C952 1.356 . S
H954 C948 0.930 . S
H955 C949 0.930 . S
C956 N957 1.314 . S
C956 C958 1.353 . S
C956 H962 0.930 . S
N957 Li907 1.990 . S
N957 C956 1.314 . S
N957 C960 1.279 . S
C958 C956 1.353 . S
C958 C961 1.348 . S
C958 H990 0.929 . S
C959 C960 1.358 . S
C959 C961 1.356 . S
C959 H991 0.930 . S
C960 N957 1.279 . S
C960 C959 1.358 . S
C960 H963 0.930 . S
C961 C958 1.348 . S
C961 C959 1.356 . S
H962 C956 0.930 . S
H963 C960 0.930 . S
O964 Li904 1.956 . S
O964 Li905 1.970 1_545 S
O964 Li906 1.961 . S
O964 C908 1.325 . S
O965 Li904 1.970 1_565 S
O965 Li905 1.956 . S
O965 Li907 1.961 . S
O965 C914 1.325 . S
O966 Li904 1.961 . S
O966 Li906 1.956 . S
O966 Li907 1.970 1_545 S
O966 C936 1.325 . S
O967 Li905 1.961 . S
O967 Li906 1.970 1_565 S
O967 Li907 1.956 . S
O967 C942 1.325 . S
H968 C910 0.929 . S
H969 C911 0.930 . S
H970 C912 0.930 . S
H971 C913 0.930 . S
H972 C915 0.930 . S
H973 C917 0.929 . S
H974 C918 0.930 . S
H975 C919 0.930 . S
H976 C922 0.930 . S
H977 C925 0.929 . S
H978 C930 0.929 . S
H979 C931 0.930 . S
H980 C938 0.929 . S
H981 C939 0.930 . S
H982 C940 0.930 . S
H983 C941 0.930 . S
H984 C943 0.929 . S
H985 C944 0.930 . S
H986 C945 0.930 . S
H987 C946 0.930 . S
H988 C950 0.929 . S
H989 C952 0.930 . S
H990 C958 0.929 . S
H991 C959 0.930 . S
Li992 N1009 1.990 . S
Li992 O1052 1.956 . S
Li992 O1053 1.970 . S
Li992 O1054 1.961 . S
Li993 N1017 1.990 . S
Li993 O1052 1.970 . S
Li993 O1053 1.956 . S
Li993 O1055 1.961 . S
Li994 N1039 1.990 . S
Li994 O1052 1.961 . S
Li994 O1054 1.956 . S
Li994 O1055 1.970 . S
Li995 N1045 1.990 . S
Li995 O1053 1.961 . S
Li995 O1054 1.970 . S
Li995 O1055 1.956 . S
C996 C998 1.348 . S
C996 C999 1.356 . S
C996 O1052 1.325 . S
N997 C1000 1.314 . S
N997 C1001 1.279 . S
C998 C996 1.348 . S
C998 C1000 1.353 . S
C998 H1056 0.929 . S
C999 C996 1.356 . S
C999 C1001 1.358 . S
C999 H1057 0.930 . S
C1000 N997 1.314 . S
C1000 C998 1.353 . S
C1000 H1058 0.930 . S
C1001 N997 1.279 . S
C1001 C999 1.358 . S
C1001 H1059 0.930 . S
C1002 C1005 1.348 . S
C1002 C1006 1.356 . S
C1002 O1053 1.325 . S
C1003 N1004 1.279 . S
C1003 C1006 1.358 . S
C1003 H1060 0.930 . S
N1004 C1003 1.279 . S
N1004 C1007 1.314 . S
C1005 C1002 1.348 . S
C1005 C1007 1.353 . S
C1005 H1061 0.929 . S
C1006 C1002 1.356 . S
C1006 C1003 1.358 . S
C1006 H1062 0.930 . S
C1007 N1004 1.314 . S
C1007 C1005 1.353 . S
C1007 H1063 0.930 . S
C1008 N1009 1.314 . S
C1008 C1013 1.353 . S
C1008 H1014 0.930 . S
N1009 Li992 1.990 . S
N1009 C1008 1.314 . S
N1009 C1011 1.279 . S
C1010 C1011 1.358 . S
C1010 C1012 1.356 . S
C1010 H1064 0.930 . S
C1011 N1009 1.279 . S
C1011 C1010 1.358 . S
C1011 H1015 0.930 . S
C1012 C1010 1.356 . S
C1012 C1013 1.348 . S
C1013 C1008 1.353 . S
C1013 C1012 1.348 . S
C1013 H1065 0.929 . S
H1014 C1008 0.930 . S
H1015 C1011 0.930 . S
C1016 N1017 1.314 . S
C1016 C1018 1.353 . S
C1016 H1022 0.930 . S
N1017 Li993 1.990 . S
N1017 C1016 1.314 . S
N1017 C1020 1.279 . S
C1018 C1016 1.353 . S
C1018 C1021 1.348 . S
C1018 H1066 0.929 . S
C1019 C1020 1.358 . S
C1019 C1021 1.356 . S
C1019 H1067 0.930 . S
C1020 N1017 1.279 . S
C1020 C1019 1.358 . S
C1020 H1023 0.930 . S
C1021 C1018 1.348 . S
C1021 C1019 1.356 . S
H1022 C1016 0.930 . S
H1023 C1020 0.930 . S
C1024 C1026 1.348 . S
C1024 C1027 1.356 . S
C1024 O1054 1.325 . S
N1025 C1028 1.314 . S
N1025 C1029 1.279 . S
C1026 C1024 1.348 . S
C1026 C1028 1.353 . S
C1026 H1068 0.929 . S
C1027 C1024 1.356 . S
C1027 C1029 1.358 . S
C1027 H1069 0.930 . S
C1028 N1025 1.314 . S
C1028 C1026 1.353 . S
C1028 H1070 0.930 . S
C1029 N1025 1.279 . S
C1029 C1027 1.358 . S
C1029 H1071 0.930 . S
C1030 C1031 1.348 . S
C1030 C1032 1.356 . S
C1030 O1055 1.325 . S
C1031 C1030 1.348 . S
C1031 C1033 1.353 . S
C1031 H1072 0.929 . S
C1032 C1030 1.356 . S
C1032 C1034 1.358 . S
C1032 H1073 0.930 . S
C1033 C1031 1.353 . S
C1033 N1035 1.314 . S
C1033 H1074 0.930 . S
C1034 C1032 1.358 . S
C1034 N1035 1.279 . S
C1034 H1075 0.930 . S
N1035 C1033 1.314 . S
N1035 C1034 1.279 . S
C1036 C1038 1.353 . S
C1036 N1039 1.314 . S
C1036 H1042 0.930 . S
C1037 N1039 1.279 . S
C1037 C1040 1.358 . S
C1037 H1043 0.930 . S
C1038 C1036 1.353 . S
C1038 C1041 1.348 . S
C1038 H1076 0.929 . S
N1039 Li994 1.990 . S
N1039 C1036 1.314 . S
N1039 C1037 1.279 . S
C1040 C1037 1.358 . S
C1040 C1041 1.356 . S
C1040 H1077 0.930 . S
C1041 C1038 1.348 . S
C1041 C1040 1.356 . S
H1042 C1036 0.930 . S
H1043 C1037 0.930 . S
C1044 N1045 1.314 . S
C1044 C1046 1.353 . S
C1044 H1050 0.930 . S
N1045 Li995 1.990 . S
N1045 C1044 1.314 . S
N1045 C1048 1.279 . S
C1046 C1044 1.353 . S
C1046 C1049 1.348 . S
C1046 H1078 0.929 . S
C1047 C1048 1.358 . S
C1047 C1049 1.356 . S
C1047 H1079 0.930 . S
C1048 N1045 1.279 . S
C1048 C1047 1.358 . S
C1048 H1051 0.930 . S
C1049 C1046 1.348 . S
C1049 C1047 1.356 . S
H1050 C1044 0.930 . S
H1051 C1048 0.930 . S
O1052 Li992 1.956 . S
O1052 Li993 1.970 . S
O1052 Li994 1.961 . S
O1052 C996 1.325 . S
O1053 Li992 1.970 . S
O1053 Li993 1.956 . S
O1053 Li995 1.961 . S
O1053 C1002 1.325 . S
O1054 Li992 1.961 . S
O1054 Li994 1.956 . S
O1054 Li995 1.970 . S
O1054 C1024 1.325 . S
O1055 Li993 1.961 . S
O1055 Li994 1.970 . S
O1055 Li995 1.956 . S
O1055 C1030 1.325 . S
H1056 C998 0.929 . S
H1057 C999 0.930 . S
H1058 C1000 0.930 . S
H1059 C1001 0.930 . S
H1060 C1003 0.930 . S
H1061 C1005 0.929 . S
H1062 C1006 0.930 . S
H1063 C1007 0.930 . S
H1064 C1010 0.930 . S
H1065 C1013 0.929 . S
H1066 C1018 0.929 . S
H1067 C1019 0.930 . S
H1068 C1026 0.929 . S
H1069 C1027 0.930 . S
H1070 C1028 0.930 . S
H1071 C1029 0.930 . S
H1072 C1031 0.929 . S
H1073 C1032 0.930 . S
H1074 C1033 0.930 . S
H1075 C1034 0.930 . S
H1076 C1038 0.929 . S
H1077 C1040 0.930 . S
H1078 C1046 0.929 . S
H1079 C1047 0.930 . S
Li1080 N1097 1.990 . S
Li1080 O1140 1.956 . S
Li1080 O1141 1.970 . S
Li1080 O1142 1.961 . S
Li1081 N1105 1.990 . S
Li1081 O1140 1.970 . S
Li1081 O1141 1.956 . S
Li1081 O1143 1.961 . S
Li1082 N1127 1.990 . S
Li1082 O1140 1.961 . S
Li1082 O1142 1.956 . S
Li1082 O1143 1.970 . S
Li1083 N1133 1.990 . S
Li1083 O1141 1.961 . S
Li1083 O1142 1.970 . S
Li1083 O1143 1.956 . S
C1084 C1086 1.348 . S
C1084 C1087 1.356 . S
C1084 O1140 1.325 . S
N1085 C1088 1.314 . S
N1085 C1089 1.279 . S
C1086 C1084 1.348 . S
C1086 C1088 1.353 . S
C1086 H1144 0.929 . S
C1087 C1084 1.356 . S
C1087 C1089 1.358 . S
C1087 H1145 0.930 . S
C1088 N1085 1.314 . S
C1088 C1086 1.353 . S
C1088 H1146 0.930 . S
C1089 N1085 1.279 . S
C1089 C1087 1.358 . S
C1089 H1147 0.930 . S
C1090 C1093 1.348 . S
C1090 C1094 1.356 . S
C1090 O1141 1.325 . S
C1091 N1092 1.279 . S
C1091 C1094 1.358 . S
C1091 H1148 0.930 . S
N1092 C1091 1.279 . S
N1092 C1095 1.314 . S
C1093 C1090 1.348 . S
C1093 C1095 1.353 . S
C1093 H1149 0.929 . S
C1094 C1090 1.356 . S
C1094 C1091 1.358 . S
C1094 H1150 0.930 . S
C1095 N1092 1.314 . S
C1095 C1093 1.353 . S
C1095 H1151 0.930 . S
C1096 N1097 1.314 . S
C1096 C1101 1.353 . S
C1096 H1102 0.930 . S
N1097 Li1080 1.990 . S
N1097 C1096 1.314 . S
N1097 C1099 1.279 . S
C1098 C1099 1.358 . S
C1098 C1100 1.356 . S
C1098 H1152 0.930 . S
C1099 N1097 1.279 . S
C1099 C1098 1.358 . S
C1099 H1103 0.930 . S
C1100 C1098 1.356 . S
C1100 C1101 1.348 . S
C1101 C1096 1.353 . S
C1101 C1100 1.348 . S
C1101 H1153 0.929 . S
H1102 C1096 0.930 . S
H1103 C1099 0.930 . S
C1104 N1105 1.314 . S
C1104 C1106 1.353 . S
C1104 H1110 0.930 . S
N1105 Li1081 1.990 . S
N1105 C1104 1.314 . S
N1105 C1108 1.279 . S
C1106 C1104 1.353 . S
C1106 C1109 1.348 . S
C1106 H1154 0.929 . S
C1107 C1108 1.358 . S
C1107 C1109 1.356 . S
C1107 H1155 0.930 . S
C1108 N1105 1.279 . S
C1108 C1107 1.358 . S
C1108 H1111 0.930 . S
C1109 C1106 1.348 . S
C1109 C1107 1.356 . S
H1110 C1104 0.930 . S
H1111 C1108 0.930 . S
C1112 C1114 1.348 . S
C1112 C1115 1.356 . S
C1112 O1142 1.325 . S
N1113 C1116 1.314 . S
N1113 C1117 1.279 . S
C1114 C1112 1.348 . S
C1114 C1116 1.353 . S
C1114 H1156 0.929 . S
C1115 C1112 1.356 . S
C1115 C1117 1.358 . S
C1115 H1157 0.930 . S
C1116 N1113 1.314 . S
C1116 C1114 1.353 . S
C1116 H1158 0.930 . S
C1117 N1113 1.279 . S
C1117 C1115 1.358 . S
C1117 H1159 0.930 . S
C1118 C1119 1.348 . S
C1118 C1120 1.356 . S
C1118 O1143 1.325 . S
C1119 C1118 1.348 . S
C1119 C1121 1.353 . S
C1119 H1160 0.929 . S
C1120 C1118 1.356 . S
C1120 C1122 1.358 . S
C1120 H1161 0.930 . S
C1121 C1119 1.353 . S
C1121 N1123 1.314 . S
C1121 H1162 0.930 . S
C1122 C1120 1.358 . S
C1122 N1123 1.279 . S
C1122 H1163 0.930 . S
N1123 C1121 1.314 . S
N1123 C1122 1.279 . S
C1124 C1126 1.353 . S
C1124 N1127 1.314 . S
C1124 H1130 0.930 . S
C1125 N1127 1.279 . S
C1125 C1128 1.358 . S
C1125 H1131 0.930 . S
C1126 C1124 1.353 . S
C1126 C1129 1.348 . S
C1126 H1164 0.929 . S
N1127 Li1082 1.990 . S
N1127 C1124 1.314 . S
N1127 C1125 1.279 . S
C1128 C1125 1.358 . S
C1128 C1129 1.356 . S
C1128 H1165 0.930 . S
C1129 C1126 1.348 . S
C1129 C1128 1.356 . S
H1130 C1124 0.930 . S
H1131 C1125 0.930 . S
C1132 N1133 1.314 . S
C1132 C1134 1.353 . S
C1132 H1138 0.930 . S
N1133 Li1083 1.990 . S
N1133 C1132 1.314 . S
N1133 C1136 1.279 . S
C1134 C1132 1.353 . S
C1134 C1137 1.348 . S
C1134 H1166 0.929 . S
C1135 C1136 1.358 . S
C1135 C1137 1.356 . S
C1135 H1167 0.930 . S
C1136 N1133 1.279 . S
C1136 C1135 1.358 . S
C1136 H1139 0.930 . S
C1137 C1134 1.348 . S
C1137 C1135 1.356 . S
H1138 C1132 0.930 . S
H1139 C1136 0.930 . S
O1140 Li1080 1.956 . S
O1140 Li1081 1.970 . S
O1140 Li1082 1.961 . S
O1140 C1084 1.325 . S
O1141 Li1080 1.970 . S
O1141 Li1081 1.956 . S
O1141 Li1083 1.961 . S
O1141 C1090 1.325 . S
O1142 Li1080 1.961 . S
O1142 Li1082 1.956 . S
O1142 Li1083 1.970 . S
O1142 C1112 1.325 . S
O1143 Li1081 1.961 . S
O1143 Li1082 1.970 . S
O1143 Li1083 1.956 . S
O1143 C1118 1.325 . S
H1144 C1086 0.929 . S
H1145 C1087 0.930 . S
H1146 C1088 0.930 . S
H1147 C1089 0.930 . S
H1148 C1091 0.930 . S
H1149 C1093 0.929 . S
H1150 C1094 0.930 . S
H1151 C1095 0.930 . S
H1152 C1098 0.930 . S
H1153 C1101 0.929 . S
H1154 C1106 0.929 . S
H1155 C1107 0.930 . S
H1156 C1114 0.929 . S
H1157 C1115 0.930 . S
H1158 C1116 0.930 . S
H1159 C1117 0.930 . S
H1160 C1119 0.929 . S
H1161 C1120 0.930 . S
H1162 C1121 0.930 . S
H1163 C1122 0.930 . S
H1164 C1126 0.929 . S
H1165 C1128 0.930 . S
H1166 C1134 0.929 . S
H1167 C1135 0.930 . S
Li1168 N1185 1.990 . S
Li1168 O1228 1.956 . S
Li1168 O1229 1.970 . S
Li1168 O1230 1.961 . S
Li1169 N1193 1.990 . S
Li1169 O1228 1.970 . S
Li1169 O1229 1.956 . S
Li1169 O1231 1.961 . S
Li1170 N1215 1.990 . S
Li1170 O1228 1.961 . S
Li1170 O1230 1.956 . S
Li1170 O1231 1.970 . S
Li1171 N1221 1.990 . S
Li1171 O1229 1.961 . S
Li1171 O1230 1.970 . S
Li1171 O1231 1.956 . S
C1172 C1174 1.348 . S
C1172 C1175 1.356 . S
C1172 O1228 1.325 . S
N1173 C1176 1.314 . S
N1173 C1177 1.279 . S
C1174 C1172 1.348 . S
C1174 C1176 1.353 . S
C1174 H1232 0.929 . S
C1175 C1172 1.356 . S
C1175 C1177 1.358 . S
C1175 H1233 0.930 . S
C1176 N1173 1.314 . S
C1176 C1174 1.353 . S
C1176 H1234 0.930 . S
C1177 N1173 1.279 . S
C1177 C1175 1.358 . S
C1177 H1235 0.930 . S
C1178 C1181 1.348 . S
C1178 C1182 1.356 . S
C1178 O1229 1.325 . S
C1179 N1180 1.279 . S
C1179 C1182 1.358 . S
C1179 H1236 0.930 . S
N1180 C1179 1.279 . S
N1180 C1183 1.314 . S
C1181 C1178 1.348 . S
C1181 C1183 1.353 . S
C1181 H1237 0.929 . S
C1182 C1178 1.356 . S
C1182 C1179 1.358 . S
C1182 H1238 0.930 . S
C1183 N1180 1.314 . S
C1183 C1181 1.353 . S
C1183 H1239 0.930 . S
C1184 N1185 1.314 . S
C1184 C1189 1.353 . S
C1184 H1190 0.930 . S
N1185 Li1168 1.990 . S
N1185 C1184 1.314 . S
N1185 C1187 1.279 . S
C1186 C1187 1.358 . S
C1186 C1188 1.356 . S
C1186 H1240 0.930 . S
C1187 N1185 1.279 . S
C1187 C1186 1.358 . S
C1187 H1191 0.930 . S
C1188 C1186 1.356 . S
C1188 C1189 1.348 . S
C1189 C1184 1.353 . S
C1189 C1188 1.348 . S
C1189 H1241 0.929 . S
H1190 C1184 0.930 . S
H1191 C1187 0.930 . S
C1192 N1193 1.314 . S
C1192 C1194 1.353 . S
C1192 H1198 0.930 . S
N1193 Li1169 1.990 . S
N1193 C1192 1.314 . S
N1193 C1196 1.279 . S
C1194 C1192 1.353 . S
C1194 C1197 1.348 . S
C1194 H1242 0.929 . S
C1195 C1196 1.358 . S
C1195 C1197 1.356 . S
C1195 H1243 0.930 . S
C1196 N1193 1.279 . S
C1196 C1195 1.358 . S
C1196 H1199 0.930 . S
C1197 C1194 1.348 . S
C1197 C1195 1.356 . S
H1198 C1192 0.930 . S
H1199 C1196 0.930 . S
C1200 C1202 1.348 . S
C1200 C1203 1.356 . S
C1200 O1230 1.325 . S
N1201 C1204 1.314 . S
N1201 C1205 1.279 . S
C1202 C1200 1.348 . S
C1202 C1204 1.353 . S
C1202 H1244 0.929 . S
C1203 C1200 1.356 . S
C1203 C1205 1.358 . S
C1203 H1245 0.930 . S
C1204 N1201 1.314 . S
C1204 C1202 1.353 . S
C1204 H1246 0.930 . S
C1205 N1201 1.279 . S
C1205 C1203 1.358 . S
C1205 H1247 0.930 . S
C1206 C1207 1.348 . S
C1206 C1208 1.356 . S
C1206 O1231 1.325 . S
C1207 C1206 1.348 . S
C1207 C1209 1.353 . S
C1207 H1248 0.929 . S
C1208 C1206 1.356 . S
C1208 C1210 1.358 . S
C1208 H1249 0.930 . S
C1209 C1207 1.353 . S
C1209 N1211 1.314 . S
C1209 H1250 0.930 . S
C1210 C1208 1.358 . S
C1210 N1211 1.279 . S
C1210 H1251 0.930 . S
N1211 C1209 1.314 . S
N1211 C1210 1.279 . S
C1212 C1214 1.353 . S
C1212 N1215 1.314 . S
C1212 H1218 0.930 . S
C1213 N1215 1.279 . S
C1213 C1216 1.358 . S
C1213 H1219 0.930 . S
C1214 C1212 1.353 . S
C1214 C1217 1.348 . S
C1214 H1252 0.929 . S
N1215 Li1170 1.990 . S
N1215 C1212 1.314 . S
N1215 C1213 1.279 . S
C1216 C1213 1.358 . S
C1216 C1217 1.356 . S
C1216 H1253 0.930 . S
C1217 C1214 1.348 . S
C1217 C1216 1.356 . S
H1218 C1212 0.930 . S
H1219 C1213 0.930 . S
C1220 N1221 1.314 . S
C1220 C1222 1.353 . S
C1220 H1226 0.930 . S
N1221 Li1171 1.990 . S
N1221 C1220 1.314 . S
N1221 C1224 1.279 . S
C1222 C1220 1.353 . S
C1222 C1225 1.348 . S
C1222 H1254 0.929 . S
C1223 C1224 1.358 . S
C1223 C1225 1.356 . S
C1223 H1255 0.930 . S
C1224 N1221 1.279 . S
C1224 C1223 1.358 . S
C1224 H1227 0.930 . S
C1225 C1222 1.348 . S
C1225 C1223 1.356 . S
H1226 C1220 0.930 . S
H1227 C1224 0.930 . S
O1228 Li1168 1.956 . S
O1228 Li1169 1.970 . S
O1228 Li1170 1.961 . S
O1228 C1172 1.325 . S
O1229 Li1168 1.970 . S
O1229 Li1169 1.956 . S
O1229 Li1171 1.961 . S
O1229 C1178 1.325 . S
O1230 Li1168 1.961 . S
O1230 Li1170 1.956 . S
O1230 Li1171 1.970 . S
O1230 C1200 1.325 . S
O1231 Li1169 1.961 . S
O1231 Li1170 1.970 . S
O1231 Li1171 1.956 . S
O1231 C1206 1.325 . S
H1232 C1174 0.929 . S
H1233 C1175 0.930 . S
H1234 C1176 0.930 . S
H1235 C1177 0.930 . S
H1236 C1179 0.930 . S
H1237 C1181 0.929 . S
H1238 C1182 0.930 . S
H1239 C1183 0.930 . S
H1240 C1186 0.930 . S
H1241 C1189 0.929 . S
H1242 C1194 0.929 . S
H1243 C1195 0.930 . S
H1244 C1202 0.929 . S
H1245 C1203 0.930 . S
H1246 C1204 0.930 . S
H1247 C1205 0.930 . S
H1248 C1207 0.929 . S
H1249 C1208 0.930 . S
H1250 C1209 0.930 . S
H1251 C1210 0.930 . S
H1252 C1214 0.929 . S
H1253 C1216 0.930 . S
H1254 C1222 0.929 . S
H1255 C1223 0.930 . S
Li1256 N1273 1.990 . S
Li1256 O1316 1.956 . S
Li1256 O1317 1.970 1_565 S
Li1256 O1318 1.961 . S
Li1257 N1281 1.990 . S
Li1257 O1316 1.970 1_545 S
Li1257 O1317 1.956 . S
Li1257 O1319 1.961 . S
Li1258 N1303 1.990 . S
Li1258 O1316 1.961 . S
Li1258 O1318 1.956 . S
Li1258 O1319 1.970 1_565 S
Li1259 N1309 1.990 . S
Li1259 O1317 1.961 . S
Li1259 O1318 1.970 1_545 S
Li1259 O1319 1.956 . S
C1260 C1262 1.348 . S
C1260 C1263 1.356 . S
C1260 O1316 1.325 . S
N1261 C1264 1.314 . S
N1261 C1265 1.279 . S
C1262 C1260 1.348 . S
C1262 C1264 1.353 . S
C1262 H1320 0.929 . S
C1263 C1260 1.356 . S
C1263 C1265 1.358 . S
C1263 H1321 0.930 . S
C1264 N1261 1.314 . S
C1264 C1262 1.353 . S
C1264 H1322 0.930 . S
C1265 N1261 1.279 . S
C1265 C1263 1.358 . S
C1265 H1323 0.930 . S
C1266 C1269 1.348 1_545 S
C1266 C1270 1.356 . S
C1266 O1317 1.325 . S
C1267 N1268 1.279 . S
C1267 C1270 1.358 . S
C1267 H1324 0.930 . S
N1268 C1267 1.279 . S
N1268 C1271 1.314 1_545 S
C1269 C1266 1.348 1_565 S
C1269 C1271 1.353 . S
C1269 H1325 0.929 . S
C1270 C1266 1.356 . S
C1270 C1267 1.358 . S
C1270 H1326 0.930 . S
C1271 N1268 1.314 1_565 S
C1271 C1269 1.353 . S
C1271 H1327 0.930 . S
C1272 N1273 1.314 . S
C1272 C1277 1.353 . S
C1272 H1278 0.930 . S
N1273 Li1256 1.990 . S
N1273 C1272 1.314 . S
N1273 C1275 1.279 . S
C1274 C1275 1.358 . S
C1274 C1276 1.356 . S
C1274 H1328 0.930 . S
C1275 N1273 1.279 . S
C1275 C1274 1.358 . S
C1275 H1279 0.930 . S
C1276 C1274 1.356 . S
C1276 C1277 1.348 . S
C1277 C1272 1.353 . S
C1277 C1276 1.348 . S
C1277 H1329 0.929 . S
H1278 C1272 0.930 . S
H1279 C1275 0.930 . S
C1280 N1281 1.314 . S
C1280 C1282 1.353 . S
C1280 H1286 0.930 . S
N1281 Li1257 1.990 . S
N1281 C1280 1.314 . S
N1281 C1284 1.279 . S
C1282 C1280 1.353 . S
C1282 C1285 1.348 . S
C1282 H1330 0.929 . S
C1283 C1284 1.358 . S
C1283 C1285 1.356 . S
C1283 H1331 0.930 . S
C1284 N1281 1.279 . S
C1284 C1283 1.358 . S
C1284 H1287 0.930 . S
C1285 C1282 1.348 . S
C1285 C1283 1.356 . S
H1286 C1280 0.930 . S
H1287 C1284 0.930 . S
C1288 C1290 1.348 1_565 S
C1288 C1291 1.356 . S
C1288 O1318 1.325 . S
N1289 C1292 1.314 1_565 S
N1289 C1293 1.279 . S
C1290 C1288 1.348 1_545 S
C1290 C1292 1.353 . S
C1290 H1332 0.929 . S
C1291 C1288 1.356 . S
C1291 C1293 1.358 . S
C1291 H1333 0.930 . S
C1292 N1289 1.314 1_545 S
C1292 C1290 1.353 . S
C1292 H1334 0.930 . S
C1293 N1289 1.279 . S
C1293 C1291 1.358 . S
C1293 H1335 0.930 . S
C1294 C1295 1.348 . S
C1294 C1296 1.356 . S
C1294 O1319 1.325 . S
C1295 C1294 1.348 . S
C1295 C1297 1.353 . S
C1295 H1336 0.929 . S
C1296 C1294 1.356 . S
C1296 C1298 1.358 . S
C1296 H1337 0.930 . S
C1297 C1295 1.353 . S
C1297 N1299 1.314 . S
C1297 H1338 0.930 . S
C1298 C1296 1.358 . S
C1298 N1299 1.279 . S
C1298 H1339 0.930 . S
N1299 C1297 1.314 . S
N1299 C1298 1.279 . S
C1300 C1302 1.353 . S
C1300 N1303 1.314 . S
C1300 H1306 0.930 . S
C1301 N1303 1.279 . S
C1301 C1304 1.358 . S
C1301 H1307 0.930 . S
C1302 C1300 1.353 . S
C1302 C1305 1.348 . S
C1302 H1340 0.929 . S
N1303 Li1258 1.990 . S
N1303 C1300 1.314 . S
N1303 C1301 1.279 . S
C1304 C1301 1.358 . S
C1304 C1305 1.356 . S
C1304 H1341 0.930 . S
C1305 C1302 1.348 . S
C1305 C1304 1.356 . S
H1306 C1300 0.930 . S
H1307 C1301 0.930 . S
C1308 N1309 1.314 . S
C1308 C1310 1.353 . S
C1308 H1314 0.930 . S
N1309 Li1259 1.990 . S
N1309 C1308 1.314 . S
N1309 C1312 1.279 . S
C1310 C1308 1.353 . S
C1310 C1313 1.348 . S
C1310 H1342 0.929 . S
C1311 C1312 1.358 . S
C1311 C1313 1.356 . S
C1311 H1343 0.930 . S
C1312 N1309 1.279 . S
C1312 C1311 1.358 . S
C1312 H1315 0.930 . S
C1313 C1310 1.348 . S
C1313 C1311 1.356 . S
H1314 C1308 0.930 . S
H1315 C1312 0.930 . S
O1316 Li1256 1.956 . S
O1316 Li1257 1.970 1_565 S
O1316 Li1258 1.961 . S
O1316 C1260 1.325 . S
O1317 Li1256 1.970 1_545 S
O1317 Li1257 1.956 . S
O1317 Li1259 1.961 . S
O1317 C1266 1.325 . S
O1318 Li1256 1.961 . S
O1318 Li1258 1.956 . S
O1318 Li1259 1.970 1_565 S
O1318 C1288 1.325 . S
O1319 Li1257 1.961 . S
O1319 Li1258 1.970 1_545 S
O1319 Li1259 1.956 . S
O1319 C1294 1.325 . S
H1320 C1262 0.929 . S
H1321 C1263 0.930 . S
H1322 C1264 0.930 . S
H1323 C1265 0.930 . S
H1324 C1267 0.930 . S
H1325 C1269 0.929 . S
H1326 C1270 0.930 . S
H1327 C1271 0.930 . S
H1328 C1274 0.930 . S
H1329 C1277 0.929 . S
H1330 C1282 0.929 . S
H1331 C1283 0.930 . S
H1332 C1290 0.929 . S
H1333 C1291 0.930 . S
H1334 C1292 0.930 . S
H1335 C1293 0.930 . S
H1336 C1295 0.929 . S
H1337 C1296 0.930 . S
H1338 C1297 0.930 . S
H1339 C1298 0.930 . S
H1340 C1302 0.929 . S
H1341 C1304 0.930 . S
H1342 C1310 0.929 . S
H1343 C1311 0.930 . S
Li1344 N1361 1.990 . S
Li1344 O1404 1.956 . S
Li1344 O1405 1.989 . S
Li1344 O1406 1.961 . S
Li1345 N1369 1.990 1_455 S
Li1345 O1404 1.971 . S
Li1345 O1405 1.956 . S
Li1345 O1407 1.961 1_455 S
Li1346 N1391 1.990 . S
Li1346 O1404 1.961 . S
Li1346 O1406 1.956 . S
Li1346 O1407 1.970 1_455 S
Li1347 N1397 1.990 . S
Li1347 O1405 1.947 1_655 S
Li1347 O1406 1.970 1_655 S
Li1347 O1407 1.956 . S
C1348 C1350 1.348 . S
C1348 C1351 1.356 . S
C1348 O1404 1.325 . S
N1349 C1352 1.314 . S
N1349 C1353 1.279 . S
C1350 C1348 1.348 . S
C1350 C1352 1.353 . S
C1350 H1408 0.929 . S
C1351 C1348 1.356 . S
C1351 C1353 1.358 . S
C1351 H1409 0.930 . S
C1352 N1349 1.314 . S
C1352 C1350 1.353 . S
C1352 H1410 0.930 . S
C1353 N1349 1.279 . S
C1353 C1351 1.358 . S
C1353 H1411 0.930 . S
C1354 C1357 1.348 1_655 S
C1354 C1358 1.356 . S
C1354 O1405 1.322 1_655 S
C1355 N1356 1.279 . S
C1355 C1358 1.358 . S
C1355 H1412 0.930 . S
N1356 C1355 1.279 . S
N1356 C1359 1.314 1_655 S
C1357 C1354 1.348 1_455 S
C1357 C1359 1.353 . S
C1357 H1413 0.929 . S
C1358 C1354 1.356 . S
C1358 C1355 1.358 . S
C1358 H1414 0.930 . S
C1359 N1356 1.314 1_455 S
C1359 C1357 1.353 . S
C1359 H1415 0.930 . S
C1360 N1361 1.314 . S
C1360 C1365 1.353 . S
C1360 H1366 0.930 . S
N1361 Li1344 1.990 . S
N1361 C1360 1.314 . S
N1361 C1363 1.279 . S
C1362 C1363 1.358 . S
C1362 C1364 1.356 . S
C1362 H1416 0.930 . S
C1363 N1361 1.279 . S
C1363 C1362 1.358 . S
C1363 H1367 0.930 . S
C1364 C1362 1.356 . S
C1364 C1365 1.348 . S
C1365 C1360 1.353 . S
C1365 C1364 1.348 . S
C1365 H1417 0.929 . S
H1366 C1360 0.930 . S
H1367 C1363 0.930 . S
C1368 N1369 1.314 . S
C1368 C1370 1.353 . S
C1368 H1374 0.930 . S
N1369 Li1345 1.990 1_655 S
N1369 C1368 1.314 . S
N1369 C1372 1.279 . S
C1370 C1368 1.353 . S
C1370 C1373 1.348 . S
C1370 H1418 0.929 . S
C1371 C1372 1.358 . S
C1371 C1373 1.356 . S
C1371 H1419 0.930 . S
C1372 N1369 1.279 . S
C1372 C1371 1.358 . S
C1372 H1375 0.929 1_655 S
C1373 C1370 1.348 . S
C1373 C1371 1.356 . S
H1374 C1368 0.930 . S
H1375 C1372 0.929 1_455 S
C1376 C1378 1.348 1_455 S
C1376 C1379 1.356 . S
C1376 O1406 1.325 . S
N1377 C1380 1.314 1_455 S
N1377 C1381 1.279 . S
C1378 C1376 1.348 1_655 S
C1378 C1380 1.353 . S
C1378 H1420 0.929 . S
C1379 C1376 1.356 . S
C1379 C1381 1.358 . S
C1379 H1421 0.930 . S
C1380 N1377 1.314 1_655 S
C1380 C1378 1.353 . S
C1380 H1422 0.930 . S
C1381 N1377 1.279 . S
C1381 C1379 1.358 . S
C1381 H1423 0.930 . S
C1382 C1383 1.348 . S
C1382 C1384 1.356 . S
C1382 O1407 1.325 . S
C1383 C1382 1.348 . S
C1383 C1385 1.353 . S
C1383 H1424 0.929 . S
C1384 C1382 1.356 . S
C1384 C1386 1.358 . S
C1384 H1425 0.930 . S
C1385 C1383 1.353 . S
C1385 N1387 1.314 . S
C1385 H1426 0.930 . S
C1386 C1384 1.358 . S
C1386 N1387 1.279 . S
C1386 H1427 0.930 . S
N1387 C1385 1.314 . S
N1387 C1386 1.279 . S
C1388 C1390 1.353 . S
C1388 N1391 1.314 . S
C1388 H1394 0.930 . S
C1389 N1391 1.279 . S
C1389 C1392 1.358 . S
C1389 H1395 0.930 . S
C1390 C1388 1.353 . S
C1390 C1393 1.348 . S
C1390 H1428 0.929 . S
N1391 Li1346 1.990 . S
N1391 C1388 1.314 . S
N1391 C1389 1.279 . S
C1392 C1389 1.358 . S
C1392 C1393 1.356 . S
C1392 H1429 0.930 . S
C1393 C1390 1.348 . S
C1393 C1392 1.356 . S
H1394 C1388 0.930 . S
H1395 C1389 0.930 . S
C1396 N1397 1.314 . S
C1396 C1398 1.353 . S
C1396 H1402 0.930 . S
N1397 Li1347 1.990 . S
N1397 C1396 1.314 . S
N1397 C1400 1.279 . S
C1398 C1396 1.353 . S
C1398 C1401 1.348 . S
C1398 H1430 0.929 . S
C1399 C1400 1.358 . S
C1399 C1401 1.356 . S
C1399 H1431 0.930 . S
C1400 N1397 1.279 . S
C1400 C1399 1.358 . S
C1400 H1403 0.930 . S
C1401 C1398 1.348 . S
C1401 C1399 1.356 . S
H1402 C1396 0.930 . S
H1403 C1400 0.930 . S
O1404 Li1344 1.956 . S
O1404 Li1345 1.971 . S
O1404 Li1346 1.961 . S
O1404 C1348 1.325 . S
O1405 Li1344 1.989 . S
O1405 Li1345 1.956 . S
O1405 Li1347 1.947 1_455 S
O1405 C1354 1.322 1_455 S
O1406 Li1344 1.961 . S
O1406 Li1346 1.956 . S
O1406 Li1347 1.970 1_455 S
O1406 C1376 1.325 . S
O1407 Li1345 1.961 1_655 S
O1407 Li1346 1.970 1_655 S
O1407 Li1347 1.956 . S
O1407 C1382 1.325 . S
H1408 C1350 0.929 . S
H1409 C1351 0.930 . S
H1410 C1352 0.930 . S
H1411 C1353 0.930 . S
H1412 C1355 0.930 . S
H1413 C1357 0.929 . S
H1414 C1358 0.930 . S
H1415 C1359 0.930 . S
H1416 C1362 0.930 . S
H1417 C1365 0.929 . S
H1418 C1370 0.929 . S
H1419 C1371 0.930 . S
H1420 C1378 0.929 . S
H1421 C1379 0.930 . S
H1422 C1380 0.930 . S
H1423 C1381 0.930 . S
H1424 C1383 0.929 . S
H1425 C1384 0.930 . S
H1426 C1385 0.930 . S
H1427 C1386 0.930 . S
H1428 C1390 0.929 . S
H1429 C1392 0.930 . S
H1430 C1398 0.929 . S
H1431 C1399 0.930 . S
Li1432 N1449 1.990 . S
Li1432 O1492 1.956 . S
Li1432 O1493 1.970 . S
Li1432 O1494 1.961 . S
Li1433 N1457 1.990 . S
Li1433 O1492 1.970 . S
Li1433 O1493 1.956 . S
Li1433 O1495 1.961 . S
Li1434 N1479 1.990 . S
Li1434 O1492 1.961 . S
Li1434 O1494 1.956 . S
Li1434 O1495 1.970 . S
Li1435 N1485 1.990 . S
Li1435 O1493 1.961 . S
Li1435 O1494 1.970 . S
Li1435 O1495 1.956 . S
C1436 C1438 1.348 . S
C1436 C1439 1.356 . S
C1436 O1492 1.325 . S
N1437 C1440 1.314 . S
N1437 C1441 1.279 . S
C1438 C1436 1.348 . S
C1438 C1440 1.353 . S
C1438 H1496 0.929 . S
C1439 C1436 1.356 . S
C1439 C1441 1.358 . S
C1439 H1497 0.930 . S
C1440 N1437 1.314 . S
C1440 C1438 1.353 . S
C1440 H1498 0.930 . S
C1441 N1437 1.279 . S
C1441 C1439 1.358 . S
C1441 H1499 0.930 . S
C1442 C1445 1.348 . S
C1442 C1446 1.356 . S
C1442 O1493 1.325 . S
C1443 N1444 1.279 . S
C1443 C1446 1.358 . S
C1443 H1500 0.930 . S
N1444 C1443 1.279 . S
N1444 C1447 1.314 . S
C1445 C1442 1.348 . S
C1445 C1447 1.353 . S
C1445 H1501 0.929 . S
C1446 C1442 1.356 . S
C1446 C1443 1.358 . S
C1446 H1502 0.930 . S
C1447 N1444 1.314 . S
C1447 C1445 1.353 . S
C1447 H1503 0.930 . S
C1448 N1449 1.314 . S
C1448 C1453 1.353 . S
C1448 H1454 0.930 . S
N1449 Li1432 1.990 . S
N1449 C1448 1.314 . S
N1449 C1451 1.279 . S
C1450 C1451 1.358 . S
C1450 C1452 1.356 . S
C1450 H1504 0.930 . S
C1451 N1449 1.279 . S
C1451 C1450 1.358 . S
C1451 H1455 0.930 . S
C1452 C1450 1.356 . S
C1452 C1453 1.348 . S
C1453 C1448 1.353 . S
C1453 C1452 1.348 . S
C1453 H1505 0.929 . S
H1454 C1448 0.930 . S
H1455 C1451 0.930 . S
C1456 N1457 1.314 . S
C1456 C1458 1.353 . S
C1456 H1462 0.930 . S
N1457 Li1433 1.990 . S
N1457 C1456 1.314 . S
N1457 C1460 1.279 . S
C1458 C1456 1.353 . S
C1458 C1461 1.348 . S
C1458 H1506 0.929 . S
C1459 C1460 1.358 . S
C1459 C1461 1.356 . S
C1459 H1507 0.930 . S
C1460 N1457 1.279 . S
C1460 C1459 1.358 . S
C1460 H1463 0.930 . S
C1461 C1458 1.348 . S
C1461 C1459 1.356 . S
H1462 C1456 0.930 . S
H1463 C1460 0.930 . S
C1464 C1466 1.348 . S
C1464 C1467 1.356 . S
C1464 O1494 1.325 . S
N1465 C1468 1.314 . S
N1465 C1469 1.279 . S
C1466 C1464 1.348 . S
C1466 C1468 1.353 . S
C1466 H1508 0.929 . S
C1467 C1464 1.356 . S
C1467 C1469 1.358 . S
C1467 H1509 0.930 . S
C1468 N1465 1.314 . S
C1468 C1466 1.353 . S
C1468 H1510 0.930 . S
C1469 N1465 1.279 . S
C1469 C1467 1.358 . S
C1469 H1511 0.930 . S
C1470 C1471 1.348 . S
C1470 C1472 1.356 . S
C1470 O1495 1.325 . S
C1471 C1470 1.348 . S
C1471 C1473 1.353 . S
C1471 H1512 0.929 . S
C1472 C1470 1.356 . S
C1472 C1474 1.358 . S
C1472 H1513 0.930 . S
C1473 C1471 1.353 . S
C1473 N1475 1.314 . S
C1473 H1514 0.930 . S
C1474 C1472 1.358 . S
C1474 N1475 1.279 . S
C1474 H1515 0.930 . S
N1475 C1473 1.314 . S
N1475 C1474 1.279 . S
C1476 C1478 1.353 . S
C1476 N1479 1.314 . S
C1476 H1482 0.930 . S
C1477 N1479 1.279 . S
C1477 C1480 1.358 . S
C1477 H1483 0.930 . S
C1478 C1476 1.353 . S
C1478 C1481 1.348 . S
C1478 H1516 0.929 . S
N1479 Li1434 1.990 . S
N1479 C1476 1.314 . S
N1479 C1477 1.279 . S
C1480 C1477 1.358 . S
C1480 C1481 1.356 . S
C1480 H1517 0.930 . S
C1481 C1478 1.348 . S
C1481 C1480 1.356 . S
H1482 C1476 0.930 . S
H1483 C1477 0.930 . S
C1484 N1485 1.314 . S
C1484 C1486 1.353 . S
C1484 H1490 0.930 . S
N1485 Li1435 1.990 . S
N1485 C1484 1.314 . S
N1485 C1488 1.279 . S
C1486 C1484 1.353 . S
C1486 C1489 1.348 . S
C1486 H1518 0.929 . S
C1487 C1488 1.358 . S
C1487 C1489 1.356 . S
C1487 H1519 0.930 . S
C1488 N1485 1.279 . S
C1488 C1487 1.358 . S
C1488 H1491 0.930 . S
C1489 C1486 1.348 . S
C1489 C1487 1.356 . S
H1490 C1484 0.930 . S
H1491 C1488 0.930 . S
O1492 Li1432 1.956 . S
O1492 Li1433 1.970 . S
O1492 Li1434 1.961 . S
O1492 C1436 1.325 . S
O1493 Li1432 1.970 . S
O1493 Li1433 1.956 . S
O1493 Li1435 1.961 . S
O1493 C1442 1.325 . S
O1494 Li1432 1.961 . S
O1494 Li1434 1.956 . S
O1494 Li1435 1.970 . S
O1494 C1464 1.325 . S
O1495 Li1433 1.961 . S
O1495 Li1434 1.970 . S
O1495 Li1435 1.956 . S
O1495 C1470 1.325 . S
H1496 C1438 0.929 . S
H1497 C1439 0.930 . S
H1498 C1440 0.930 . S
H1499 C1441 0.930 . S
H1500 C1443 0.930 . S
H1501 C1445 0.929 . S
H1502 C1446 0.930 . S
H1503 C1447 0.930 . S
H1504 C1450 0.930 . S
H1505 C1453 0.929 . S
H1506 C1458 0.929 . S
H1507 C1459 0.930 . S
H1508 C1466 0.929 . S
H1509 C1467 0.930 . S
H1510 C1468 0.930 . S
H1511 C1469 0.930 . S
H1512 C1471 0.929 . S
H1513 C1472 0.930 . S
H1514 C1473 0.930 . S
H1515 C1474 0.930 . S
H1516 C1478 0.929 . S
H1517 C1480 0.930 . S
H1518 C1486 0.929 . S
H1519 C1487 0.930 . S
Li1520 N1537 1.990 . S
Li1520 O1580 1.956 . S
Li1520 O1581 1.970 1_455 S
Li1520 O1582 1.961 . S
Li1521 N1545 1.990 . S
Li1521 O1580 1.970 1_655 S
Li1521 O1581 1.956 . S
Li1521 O1583 1.947 1_655 S
Li1522 N1567 1.990 . S
Li1522 O1580 1.961 . S
Li1522 O1582 1.956 . S
Li1522 O1583 1.989 . S
Li1523 N1573 1.990 1_455 S
Li1523 O1581 1.961 1_455 S
Li1523 O1582 1.970 . S
Li1523 O1583 1.956 . S
C1524 C1526 1.348 1_455 S
C1524 C1527 1.356 . S
C1524 O1580 1.325 . S
N1525 C1528 1.314 1_455 S
N1525 C1529 1.279 . S
C1526 C1524 1.348 1_655 S
C1526 C1528 1.353 . S
C1526 H1584 0.929 . S
C1527 C1524 1.356 . S
C1527 C1529 1.358 . S
C1527 H1585 0.930 . S
C1528 N1525 1.314 1_655 S
C1528 C1526 1.353 . S
C1528 H1586 0.930 . S
C1529 N1525 1.279 . S
C1529 C1527 1.358 . S
C1529 H1587 0.930 . S
C1530 C1533 1.348 . S
C1530 C1534 1.356 . S
C1530 O1581 1.325 . S
C1531 N1532 1.279 . S
C1531 C1534 1.358 . S
C1531 H1588 0.930 . S
N1532 C1531 1.279 . S
N1532 C1535 1.314 . S
C1533 C1530 1.348 . S
C1533 C1535 1.353 . S
C1533 H1589 0.929 . S
C1534 C1530 1.356 . S
C1534 C1531 1.358 . S
C1534 H1590 0.930 . S
C1535 N1532 1.314 . S
C1535 C1533 1.353 . S
C1535 H1591 0.930 . S
C1536 N1537 1.314 . S
C1536 C1541 1.353 . S
C1536 H1542 0.930 . S
N1537 Li1520 1.990 . S
N1537 C1536 1.314 . S
N1537 C1539 1.279 . S
C1538 C1539 1.358 . S
C1538 C1540 1.356 . S
C1538 H1592 0.930 . S
C1539 N1537 1.279 . S
C1539 C1538 1.358 . S
C1539 H1543 0.930 . S
C1540 C1538 1.356 . S
C1540 C1541 1.348 . S
C1541 C1536 1.353 . S
C1541 C1540 1.348 . S
C1541 H1593 0.929 . S
H1542 C1536 0.930 . S
H1543 C1539 0.930 . S
C1544 N1545 1.314 . S
C1544 C1546 1.353 . S
C1544 H1550 0.930 . S
N1545 Li1521 1.990 . S
N1545 C1544 1.314 . S
N1545 C1548 1.279 . S
C1546 C1544 1.353 . S
C1546 C1549 1.348 . S
C1546 H1594 0.929 . S
C1547 C1548 1.358 . S
C1547 C1549 1.356 . S
C1547 H1595 0.930 . S
C1548 N1545 1.279 . S
C1548 C1547 1.358 . S
C1548 H1551 0.930 . S
C1549 C1546 1.348 . S
C1549 C1547 1.356 . S
H1550 C1544 0.930 . S
H1551 C1548 0.930 . S
C1552 C1554 1.348 . S
C1552 C1555 1.356 . S
C1552 O1582 1.325 . S
N1553 C1556 1.314 . S
N1553 C1557 1.279 . S
C1554 C1552 1.348 . S
C1554 C1556 1.353 . S
C1554 H1596 0.929 . S
C1555 C1552 1.356 . S
C1555 C1557 1.358 . S
C1555 H1597 0.930 . S
C1556 N1553 1.314 . S
C1556 C1554 1.353 . S
C1556 H1598 0.930 . S
C1557 N1553 1.279 . S
C1557 C1555 1.358 . S
C1557 H1599 0.930 . S
C1558 C1559 1.348 1_655 S
C1558 C1560 1.356 . S
C1558 O1583 1.322 1_655 S
C1559 C1558 1.348 1_455 S
C1559 C1561 1.353 . S
C1559 H1600 0.929 . S
C1560 C1558 1.356 . S
C1560 C1562 1.358 . S
C1560 H1601 0.930 . S
C1561 C1559 1.353 . S
C1561 N1563 1.314 1_455 S
C1561 H1602 0.930 . S
C1562 C1560 1.358 . S
C1562 N1563 1.279 . S
C1562 H1603 0.930 . S
N1563 C1561 1.314 1_655 S
N1563 C1562 1.279 . S
C1564 C1566 1.353 . S
C1564 N1567 1.314 . S
C1564 H1570 0.930 . S
C1565 N1567 1.279 . S
C1565 C1568 1.358 . S
C1565 H1571 0.930 . S
C1566 C1564 1.353 . S
C1566 C1569 1.348 . S
C1566 H1604 0.929 . S
N1567 Li1522 1.990 . S
N1567 C1564 1.314 . S
N1567 C1565 1.279 . S
C1568 C1565 1.358 . S
C1568 C1569 1.356 . S
C1568 H1605 0.930 . S
C1569 C1566 1.348 . S
C1569 C1568 1.356 . S
H1570 C1564 0.930 . S
H1571 C1565 0.930 . S
C1572 N1573 1.314 . S
C1572 C1574 1.353 . S
C1572 H1578 0.930 . S
N1573 Li1523 1.990 1_655 S
N1573 C1572 1.314 . S
N1573 C1576 1.279 . S
C1574 C1572 1.353 . S
C1574 C1577 1.348 . S
C1574 H1606 0.929 . S
C1575 C1576 1.358 . S
C1575 C1577 1.356 . S
C1575 H1607 0.930 . S
C1576 N1573 1.279 . S
C1576 C1575 1.358 . S
C1576 H1579 0.929 1_655 S
C1577 C1574 1.348 . S
C1577 C1575 1.356 . S
H1578 C1572 0.930 . S
H1579 C1576 0.929 1_455 S
O1580 Li1520 1.956 . S
O1580 Li1521 1.970 1_455 S
O1580 Li1522 1.961 . S
O1580 C1524 1.325 . S
O1581 Li1520 1.970 1_655 S
O1581 Li1521 1.956 . S
O1581 Li1523 1.961 1_655 S
O1581 C1530 1.325 . S
O1582 Li1520 1.961 . S
O1582 Li1522 1.956 . S
O1582 Li1523 1.970 . S
O1582 C1552 1.325 . S
O1583 Li1521 1.947 1_455 S
O1583 Li1522 1.989 . S
O1583 Li1523 1.956 . S
O1583 C1558 1.322 1_455 S
H1584 C1526 0.929 . S
H1585 C1527 0.930 . S
H1586 C1528 0.930 . S
H1587 C1529 0.930 . S
H1588 C1531 0.930 . S
H1589 C1533 0.929 . S
H1590 C1534 0.930 . S
H1591 C1535 0.930 . S
H1592 C1538 0.930 . S
H1593 C1541 0.929 . S
H1594 C1546 0.929 . S
H1595 C1547 0.930 . S
H1596 C1554 0.929 . S
H1597 C1555 0.930 . S
H1598 C1556 0.930 . S
H1599 C1557 0.930 . S
H1600 C1559 0.929 . S
H1601 C1560 0.930 . S
H1602 C1561 0.930 . S
H1603 C1562 0.930 . S
H1604 C1566 0.929 . S
H1605 C1568 0.930 . S
H1606 C1574 0.929 . S
H1607 C1575 0.930 . S
Li1608 N1625 1.990 . S
Li1608 O1668 1.956 . S
Li1608 O1669 1.970 . S
Li1608 O1670 1.961 . S
Li1609 N1633 1.990 . S
Li1609 O1668 1.970 . S
Li1609 O1669 1.956 . S
Li1609 O1671 1.961 . S
Li1610 N1655 1.990 . S
Li1610 O1668 1.961 . S
Li1610 O1670 1.956 . S
Li1610 O1671 1.970 . S
Li1611 N1661 1.990 . S
Li1611 O1669 1.961 . S
Li1611 O1670 1.970 . S
Li1611 O1671 1.956 . S
C1612 C1614 1.348 . S
C1612 C1615 1.356 . S
C1612 O1668 1.325 . S
N1613 C1616 1.314 . S
N1613 C1617 1.279 . S
C1614 C1612 1.348 . S
C1614 C1616 1.353 . S
C1614 H1672 0.929 . S
C1615 C1612 1.356 . S
C1615 C1617 1.358 . S
C1615 H1673 0.930 . S
C1616 N1613 1.314 . S
C1616 C1614 1.353 . S
C1616 H1674 0.930 . S
C1617 N1613 1.279 . S
C1617 C1615 1.358 . S
C1617 H1675 0.930 . S
C1618 C1621 1.348 . S
C1618 C1622 1.356 . S
C1618 O1669 1.325 . S
C1619 N1620 1.279 . S
C1619 C1622 1.358 . S
C1619 H1676 0.930 . S
N1620 C1619 1.279 . S
N1620 C1623 1.314 . S
C1621 C1618 1.348 . S
C1621 C1623 1.353 . S
C1621 H1677 0.929 . S
C1622 C1618 1.356 . S
C1622 C1619 1.358 . S
C1622 H1678 0.930 . S
C1623 N1620 1.314 . S
C1623 C1621 1.353 . S
C1623 H1679 0.930 . S
C1624 N1625 1.314 . S
C1624 C1629 1.353 . S
C1624 H1630 0.930 . S
N1625 Li1608 1.990 . S
N1625 C1624 1.314 . S
N1625 C1627 1.279 . S
C1626 C1627 1.358 . S
C1626 C1628 1.356 . S
C1626 H1680 0.930 . S
C1627 N1625 1.279 . S
C1627 C1626 1.358 . S
C1627 H1631 0.930 . S
C1628 C1626 1.356 . S
C1628 C1629 1.348 . S
C1629 C1624 1.353 . S
C1629 C1628 1.348 . S
C1629 H1681 0.929 . S
H1630 C1624 0.930 . S
H1631 C1627 0.930 . S
C1632 N1633 1.314 . S
C1632 C1634 1.353 . S
C1632 H1638 0.930 . S
N1633 Li1609 1.990 . S
N1633 C1632 1.314 . S
N1633 C1636 1.279 . S
C1634 C1632 1.353 . S
C1634 C1637 1.348 . S
C1634 H1682 0.929 . S
C1635 C1636 1.358 . S
C1635 C1637 1.356 . S
C1635 H1683 0.930 . S
C1636 N1633 1.279 . S
C1636 C1635 1.358 . S
C1636 H1639 0.930 . S
C1637 C1634 1.348 . S
C1637 C1635 1.356 . S
H1638 C1632 0.930 . S
H1639 C1636 0.930 . S
C1640 C1642 1.348 . S
C1640 C1643 1.356 . S
C1640 O1670 1.325 . S
N1641 C1644 1.314 . S
N1641 C1645 1.279 . S
C1642 C1640 1.348 . S
C1642 C1644 1.353 . S
C1642 H1684 0.929 . S
C1643 C1640 1.356 . S
C1643 C1645 1.358 . S
C1643 H1685 0.930 . S
C1644 N1641 1.314 . S
C1644 C1642 1.353 . S
C1644 H1686 0.930 . S
C1645 N1641 1.279 . S
C1645 C1643 1.358 . S
C1645 H1687 0.930 . S
C1646 C1647 1.348 . S
C1646 C1648 1.356 . S
C1646 O1671 1.325 . S
C1647 C1646 1.348 . S
C1647 C1649 1.353 . S
C1647 H1688 0.929 . S
C1648 C1646 1.356 . S
C1648 C1650 1.358 . S
C1648 H1689 0.930 . S
C1649 C1647 1.353 . S
C1649 N1651 1.314 . S
C1649 H1690 0.930 . S
C1650 C1648 1.358 . S
C1650 N1651 1.279 . S
C1650 H1691 0.930 . S
N1651 C1649 1.314 . S
N1651 C1650 1.279 . S
C1652 C1654 1.353 . S
C1652 N1655 1.314 . S
C1652 H1658 0.930 . S
C1653 N1655 1.279 . S
C1653 C1656 1.358 . S
C1653 H1659 0.930 . S
C1654 C1652 1.353 . S
C1654 C1657 1.348 . S
C1654 H1692 0.929 . S
N1655 Li1610 1.990 . S
N1655 C1652 1.314 . S
N1655 C1653 1.279 . S
C1656 C1653 1.358 . S
C1656 C1657 1.356 . S
C1656 H1693 0.930 . S
C1657 C1654 1.348 . S
C1657 C1656 1.356 . S
H1658 C1652 0.930 . S
H1659 C1653 0.930 . S
C1660 N1661 1.314 . S
C1660 C1662 1.353 . S
C1660 H1666 0.930 . S
N1661 Li1611 1.990 . S
N1661 C1660 1.314 . S
N1661 C1664 1.279 . S
C1662 C1660 1.353 . S
C1662 C1665 1.348 . S
C1662 H1694 0.929 . S
C1663 C1664 1.358 . S
C1663 C1665 1.356 . S
C1663 H1695 0.930 . S
C1664 N1661 1.279 . S
C1664 C1663 1.358 . S
C1664 H1667 0.930 . S
C1665 C1662 1.348 . S
C1665 C1663 1.356 . S
H1666 C1660 0.930 . S
H1667 C1664 0.930 . S
O1668 Li1608 1.956 . S
O1668 Li1609 1.970 . S
O1668 Li1610 1.961 . S
O1668 C1612 1.325 . S
O1669 Li1608 1.970 . S
O1669 Li1609 1.956 . S
O1669 Li1611 1.961 . S
O1669 C1618 1.325 . S
O1670 Li1608 1.961 . S
O1670 Li1610 1.956 . S
O1670 Li1611 1.970 . S
O1670 C1640 1.325 . S
O1671 Li1609 1.961 . S
O1671 Li1610 1.970 . S
O1671 Li1611 1.956 . S
O1671 C1646 1.325 . S
H1672 C1614 0.929 . S
H1673 C1615 0.930 . S
H1674 C1616 0.930 . S
H1675 C1617 0.930 . S
H1676 C1619 0.930 . S
H1677 C1621 0.929 . S
H1678 C1622 0.930 . S
H1679 C1623 0.930 . S
H1680 C1626 0.930 . S
H1681 C1629 0.929 . S
H1682 C1634 0.929 . S
H1683 C1635 0.930 . S
H1684 C1642 0.929 . S
H1685 C1643 0.930 . S
H1686 C1644 0.930 . S
H1687 C1645 0.930 . S
H1688 C1647 0.929 . S
H1689 C1648 0.930 . S
H1690 C1649 0.930 . S
H1691 C1650 0.930 . S
H1692 C1654 0.929 . S
H1693 C1656 0.930 . S
H1694 C1662 0.929 . S
H1695 C1663 0.930 . S
H1696 C1702 0.930 . S
H1697 C1706 0.930 . S
H1698 C1711 0.929 . S
H1699 C1709 0.929 . S
H1700 C1704 0.929 . S
H1701 C1710 0.929 . S
C1702 H1696 0.930 . S
C1702 C1703 1.367 . S
C1702 C1710 1.378 . S
C1703 C1702 1.367 . S
C1703 C1711 1.433 . S
C1704 H1700 0.929 . S
C1704 C1706 1.378 . S
C1704 C1708 1.350 . S
C1705 C1708 1.463 . S
C1705 C1710 1.350 . S
C1705 N1713 1.427 . S
C1706 H1697 0.930 . S
C1706 C1704 1.378 . S
C1706 C1707 1.367 . S
C1707 C1706 1.367 . S
C1707 C1709 1.433 . S
C1708 C1704 1.350 . S
C1708 C1705 1.463 . S
C1708 N1712 1.427 . S
C1709 H1699 0.929 . S
C1709 C1707 1.433 . S
C1709 N1712 1.384 . S
C1710 H1701 0.929 . S
C1710 C1702 1.378 . S
C1710 C1705 1.350 . S
C1711 H1698 0.929 . S
C1711 C1703 1.433 . S
C1711 N1713 1.384 . S
N1712 C1708 1.427 . S
N1712 C1709 1.384 . S
N1713 C1705 1.427 . S
N1713 C1711 1.384 . S
H1714 C1720 0.930 . S
H1715 C1724 0.930 . S
H1716 C1729 0.929 . S
H1717 C1727 0.929 . S
H1718 C1722 0.929 . S
H1719 C1728 0.929 . S
C1720 H1714 0.930 . S
C1720 C1721 1.367 . S
C1720 C1728 1.378 . S
C1721 C1720 1.367 . S
C1721 C1729 1.433 . S
C1722 H1718 0.929 . S
C1722 C1724 1.378 . S
C1722 C1726 1.350 . S
C1723 C1726 1.463 . S
C1723 C1728 1.350 . S
C1723 N1731 1.427 . S
C1724 H1715 0.930 . S
C1724 C1722 1.378 . S
C1724 C1725 1.367 . S
C1725 C1724 1.367 . S
C1725 C1727 1.433 . S
C1726 C1722 1.350 . S
C1726 C1723 1.463 . S
C1726 N1730 1.427 . S
C1727 H1717 0.929 . S
C1727 C1725 1.433 . S
C1727 N1730 1.384 . S
C1728 H1719 0.929 . S
C1728 C1720 1.378 . S
C1728 C1723 1.350 . S
C1729 H1716 0.929 . S
C1729 C1721 1.433 . S
C1729 N1731 1.384 . S
N1730 C1726 1.427 . S
N1730 C1727 1.384 . S
N1731 C1723 1.427 . S
N1731 C1729 1.384 . S
H1732 C1738 0.930 . S
H1733 C1742 0.930 . S
H1734 C1747 0.929 . S
H1735 C1745 0.929 . S
H1736 C1740 0.929 . S
H1737 C1746 0.929 . S
C1738 H1732 0.930 . S
C1738 C1739 1.367 . S
C1738 C1746 1.378 . S
C1739 C1738 1.367 . S
C1739 C1747 1.433 . S
C1740 H1736 0.929 . S
C1740 C1742 1.378 . S
C1740 C1744 1.350 . S
C1741 C1744 1.463 . S
C1741 C1746 1.350 . S
C1741 N1749 1.427 . S
C1742 H1733 0.930 . S
C1742 C1740 1.378 . S
C1742 C1743 1.367 . S
C1743 C1742 1.367 . S
C1743 C1745 1.433 . S
C1744 C1740 1.350 . S
C1744 C1741 1.463 . S
C1744 N1748 1.427 . S
C1745 H1735 0.929 . S
C1745 C1743 1.433 . S
C1745 N1748 1.384 . S
C1746 H1737 0.929 . S
C1746 C1738 1.378 . S
C1746 C1741 1.350 . S
C1747 H1734 0.929 . S
C1747 C1739 1.433 . S
C1747 N1749 1.384 . S
N1748 C1744 1.427 . S
N1748 C1745 1.384 . S
N1749 C1741 1.427 . S
N1749 C1747 1.384 . S
H1750 C1756 0.926 1_545 S
H1751 C1760 0.930 . S
H1752 C1765 0.929 . S
H1753 C1763 0.899 1_545 S
H1754 C1758 0.929 . S
H1755 C1764 0.929 1_545 S
C1756 H1750 0.926 1_565 S
C1756 C1757 1.367 . S
C1756 C1764 1.378 . S
C1757 C1756 1.367 . S
C1757 C1765 1.433 . S
C1758 H1754 0.929 . S
C1758 C1760 1.378 . S
C1758 C1762 1.350 . S
C1759 C1762 1.463 . S
C1759 C1764 1.350 . S
C1759 N1767 1.427 . S
C1760 H1751 0.930 . S
C1760 C1758 1.378 . S
C1760 C1761 1.367 . S
C1761 C1760 1.367 . S
C1761 C1763 1.462 . S
C1762 C1758 1.350 . S
C1762 C1759 1.463 . S
C1762 N1766 1.427 . S
C1763 H1753 0.899 1_565 S
C1763 C1761 1.462 . S
C1763 N1766 1.389 . S
C1764 H1755 0.929 1_565 S
C1764 C1756 1.378 . S
C1764 C1759 1.350 . S
C1765 H1752 0.929 . S
C1765 C1757 1.433 . S
C1765 N1767 1.384 . S
N1766 C1762 1.427 . S
N1766 C1763 1.389 . S
N1767 C1759 1.427 . S
N1767 C1765 1.384 . S
H1768 C1774 0.930 . S
H1769 C1778 0.930 . S
H1770 C1783 0.929 . S
H1771 C1781 0.929 . S
H1772 C1776 0.929 . S
H1773 C1782 0.929 . S
C1774 H1768 0.930 . S
C1774 C1775 1.367 . S
C1774 C1782 1.378 . S
C1775 C1774 1.367 . S
C1775 C1783 1.433 . S
C1776 H1772 0.929 . S
C1776 C1778 1.378 . S
C1776 C1780 1.350 . S
C1777 C1780 1.463 . S
C1777 C1782 1.350 . S
C1777 N1785 1.427 . S
C1778 H1769 0.930 . S
C1778 C1776 1.378 . S
C1778 C1779 1.367 . S
C1779 C1778 1.367 . S
C1779 C1781 1.433 . S
C1780 C1776 1.350 . S
C1780 C1777 1.463 . S
C1780 N1784 1.427 . S
C1781 H1771 0.929 . S
C1781 C1779 1.433 . S
C1781 N1784 1.384 . S
C1782 H1773 0.929 . S
C1782 C1774 1.378 . S
C1782 C1777 1.350 . S
C1783 H1770 0.929 . S
C1783 C1775 1.433 . S
C1783 N1785 1.384 . S
N1784 C1780 1.427 . S
N1784 C1781 1.384 . S
N1785 C1777 1.427 . S
N1785 C1783 1.384 . S
H1786 C1792 0.930 . S
H1787 C1796 0.930 . S
H1788 C1801 0.929 . S
H1789 C1799 0.929 . S
H1790 C1794 0.929 . S
H1791 C1800 0.929 . S
C1792 H1786 0.930 . S
C1792 C1793 1.367 . S
C1792 C1800 1.378 . S
C1793 C1792 1.367 . S
C1793 C1801 1.433 . S
C1794 H1790 0.929 . S
C1794 C1796 1.378 . S
C1794 C1798 1.350 . S
C1795 C1798 1.463 . S
C1795 C1800 1.350 . S
C1795 N1803 1.427 . S
C1796 H1787 0.930 . S
C1796 C1794 1.378 . S
C1796 C1797 1.367 . S
C1797 C1796 1.367 . S
C1797 C1799 1.433 . S
C1798 C1794 1.350 . S
C1798 C1795 1.463 . S
C1798 N1802 1.427 . S
C1799 H1789 0.929 . S
C1799 C1797 1.433 . S
C1799 N1802 1.384 . S
C1800 H1791 0.929 . S
C1800 C1792 1.378 . S
C1800 C1795 1.350 . S
C1801 H1788 0.929 . S
C1801 C1793 1.433 . S
C1801 N1803 1.384 . S
N1802 C1798 1.427 . S
N1802 C1799 1.384 . S
N1803 C1795 1.427 . S
N1803 C1801 1.384 . S
H1804 C1810 0.930 . S
H1805 C1814 0.930 . S
H1806 C1819 0.929 . S
H1807 C1817 0.929 . S
H1808 C1812 0.929 . S
H1809 C1818 0.929 . S
C1810 H1804 0.930 . S
C1810 C1811 1.367 . S
C1810 C1818 1.378 . S
C1811 C1810 1.367 . S
C1811 C1819 1.433 . S
C1812 H1808 0.929 . S
C1812 C1814 1.378 . S
C1812 C1816 1.350 . S
C1813 C1816 1.463 . S
C1813 C1818 1.350 . S
C1813 N1821 1.427 . S
C1814 H1805 0.930 . S
C1814 C1812 1.378 . S
C1814 C1815 1.367 . S
C1815 C1814 1.367 . S
C1815 C1817 1.433 . S
C1816 C1812 1.350 . S
C1816 C1813 1.463 . S
C1816 N1820 1.427 . S
C1817 H1807 0.929 . S
C1817 C1815 1.433 . S
C1817 N1820 1.384 . S
C1818 H1809 0.929 . S
C1818 C1810 1.378 . S
C1818 C1813 1.350 . S
C1819 H1806 0.929 . S
C1819 C1811 1.433 . S
C1819 N1821 1.384 . S
N1820 C1816 1.427 . S
N1820 C1817 1.384 . S
N1821 C1813 1.427 . S
N1821 C1819 1.384 . S
H1822 C1828 0.930 . S
H1823 C1832 0.930 . S
H1824 C1837 0.929 1_545 S
H1825 C1835 0.929 . S
H1826 C1830 0.989 . S
H1827 C1836 0.929 . S
C1828 H1822 0.930 . S
C1828 C1829 1.367 . S
C1828 C1836 1.378 . S
C1829 C1828 1.367 . S
C1829 C1837 1.433 . S
C1830 H1826 0.989 . S
C1830 C1832 1.386 . S
C1830 C1834 1.285 1_545 S
C1831 C1834 1.463 . S
C1831 C1836 1.350 . S
C1831 N1839 1.427 . S
C1832 H1823 0.930 . S
C1832 C1830 1.386 . S
C1832 C1833 1.367 1_545 S
C1833 C1832 1.367 1_565 S
C1833 C1835 1.433 . S
C1834 C1830 1.285 1_565 S
C1834 C1831 1.463 . S
C1834 N1838 1.427 . S
C1835 H1825 0.929 . S
C1835 C1833 1.433 . S
C1835 N1838 1.384 . S
C1836 H1827 0.929 . S
C1836 C1828 1.378 . S
C1836 C1831 1.350 . S
C1837 H1824 0.929 1_565 S
C1837 C1829 1.433 . S
C1837 N1839 1.384 . S
N1838 C1834 1.427 . S
N1838 C1835 1.384 . S
N1839 C1831 1.427 . S
N1839 C1837 1.384 . S
H1840 C1846 0.930 . S
H1841 C1850 0.930 . S
H1842 C1855 0.929 . S
H1843 C1853 0.929 . S
H1844 C1848 0.929 . S
H1845 C1854 0.929 . S
C1846 H1840 0.930 . S
C1846 C1847 1.367 . S
C1846 C1854 1.378 . S
C1847 C1846 1.367 . S
C1847 C1855 1.433 . S
C1848 H1844 0.929 . S
C1848 C1850 1.378 . S
C1848 C1852 1.350 . S
C1849 C1852 1.463 . S
C1849 C1854 1.350 . S
C1849 N1857 1.427 . S
C1850 H1841 0.930 . S
C1850 C1848 1.378 . S
C1850 C1851 1.367 . S
C1851 C1850 1.367 . S
C1851 C1853 1.433 . S
C1852 C1848 1.350 . S
C1852 C1849 1.463 . S
C1852 N1856 1.427 . S
C1853 H1843 0.929 . S
C1853 C1851 1.433 . S
C1853 N1856 1.384 . S
C1854 H1845 0.929 . S
C1854 C1846 1.378 . S
C1854 C1849 1.350 . S
C1855 H1842 0.929 . S
C1855 C1847 1.433 . S
C1855 N1857 1.384 . S
N1856 C1852 1.427 . S
N1856 C1853 1.384 . S
N1857 C1849 1.427 . S
N1857 C1855 1.384 . S
H1858 C1864 0.930 . S
H1859 C1868 0.930 . S
H1860 C1873 0.929 . S
H1861 C1871 0.929 . S
H1862 C1866 0.929 . S
H1863 C1872 0.929 . S
C1864 H1858 0.930 . S
C1864 C1865 1.367 . S
C1864 C1872 1.378 . S
C1865 C1864 1.367 . S
C1865 C1873 1.433 . S
C1866 H1862 0.929 . S
C1866 C1868 1.378 . S
C1866 C1870 1.350 . S
C1867 C1870 1.463 . S
C1867 C1872 1.350 . S
C1867 N1875 1.427 . S
C1868 H1859 0.930 . S
C1868 C1866 1.378 . S
C1868 C1869 1.367 . S
C1869 C1868 1.367 . S
C1869 C1871 1.433 . S
C1870 C1866 1.350 . S
C1870 C1867 1.463 . S
C1870 N1874 1.427 . S
C1871 H1861 0.929 . S
C1871 C1869 1.433 . S
C1871 N1874 1.384 . S
C1872 H1863 0.929 . S
C1872 C1864 1.378 . S
C1872 C1867 1.350 . S
C1873 H1860 0.929 . S
C1873 C1865 1.433 . S
C1873 N1875 1.384 . S
N1874 C1870 1.427 . S
N1874 C1871 1.384 . S
N1875 C1867 1.427 . S
N1875 C1873 1.384 . S
H1876 C1882 0.930 . S
H1877 C1886 0.930 . S
H1878 C1891 0.929 . S
H1879 C1889 0.929 . S
H1880 C1884 0.929 . S
H1881 C1890 0.929 . S
C1882 H1876 0.930 . S
C1882 C1883 1.367 . S
C1882 C1890 1.378 . S
C1883 C1882 1.367 . S
C1883 C1891 1.433 . S
C1884 H1880 0.929 . S
C1884 C1886 1.378 . S
C1884 C1888 1.350 . S
C1885 C1888 1.463 . S
C1885 C1890 1.350 . S
C1885 N1893 1.427 . S
C1886 H1877 0.930 . S
C1886 C1884 1.378 . S
C1886 C1887 1.367 . S
C1887 C1886 1.367 . S
C1887 C1889 1.433 . S
C1888 C1884 1.350 . S
C1888 C1885 1.463 . S
C1888 N1892 1.427 . S
C1889 H1879 0.929 . S
C1889 C1887 1.433 . S
C1889 N1892 1.384 . S
C1890 H1881 0.929 . S
C1890 C1882 1.378 . S
C1890 C1885 1.350 . S
C1891 H1878 0.929 . S
C1891 C1883 1.433 . S
C1891 N1893 1.384 . S
N1892 C1888 1.427 . S
N1892 C1889 1.384 . S
N1893 C1885 1.427 . S
N1893 C1891 1.384 . S
H1894 C1900 0.930 . S
H1895 C1904 0.930 . S
H1896 C1909 0.929 . S
H1897 C1907 0.929 . S
H1898 C1902 0.929 . S
H1899 C1908 0.929 . S
C1900 H1894 0.930 . S
C1900 C1901 1.367 . S
C1900 C1908 1.378 . S
C1901 C1900 1.367 . S
C1901 C1909 1.433 . S
C1902 H1898 0.929 . S
C1902 C1904 1.378 . S
C1902 C1906 1.350 . S
C1903 C1906 1.463 . S
C1903 C1908 1.350 . S
C1903 N1911 1.427 . S
C1904 H1895 0.930 . S
C1904 C1902 1.378 . S
C1904 C1905 1.367 . S
C1905 C1904 1.367 . S
C1905 C1907 1.433 . S
C1906 C1902 1.350 . S
C1906 C1903 1.463 . S
C1906 N1910 1.427 . S
C1907 H1897 0.929 . S
C1907 C1905 1.433 . S
C1907 N1910 1.384 . S
C1908 H1899 0.929 . S
C1908 C1900 1.378 . S
C1908 C1903 1.350 . S
C1909 H1896 0.929 . S
C1909 C1901 1.433 . S
C1909 N1911 1.384 . S
N1910 C1906 1.427 . S
N1910 C1907 1.384 . S
N1911 C1903 1.427 . S
N1911 C1909 1.384 . S
H1912 C1918 0.930 . S
H1913 C1922 0.930 . S
H1914 C1927 0.929 . S
H1915 C1925 0.929 . S
H1916 C1920 0.929 . S
H1917 C1926 0.929 . S
C1918 H1912 0.930 . S
C1918 C1919 1.367 . S
C1918 C1926 1.378 . S
C1919 C1918 1.367 . S
C1919 C1927 1.433 . S
C1920 H1916 0.929 . S
C1920 C1922 1.378 . S
C1920 C1924 1.350 . S
C1921 C1924 1.463 . S
C1921 C1926 1.350 . S
C1921 N1929 1.427 . S
C1922 H1913 0.930 . S
C1922 C1920 1.378 . S
C1922 C1923 1.367 . S
C1923 C1922 1.367 . S
C1923 C1925 1.433 . S
C1924 C1920 1.350 . S
C1924 C1921 1.463 . S
C1924 N1928 1.427 . S
C1925 H1915 0.929 . S
C1925 C1923 1.433 . S
C1925 N1928 1.384 . S
C1926 H1917 0.929 . S
C1926 C1918 1.378 . S
C1926 C1921 1.350 . S
C1927 H1914 0.929 . S
C1927 C1919 1.433 . S
C1927 N1929 1.384 . S
N1928 C1924 1.427 . S
N1928 C1925 1.384 . S
N1929 C1921 1.427 . S
N1929 C1927 1.384 . S
H1930 C1936 0.930 . S
H1931 C1940 0.900 1_655 S
H1932 C1945 0.929 1_655 S
H1933 C1943 0.929 . S
H1934 C1938 0.929 1_655 S
H1935 C1944 0.929 . S
C1936 H1930 0.930 . S
C1936 C1937 1.367 . S
C1936 C1944 1.378 . S
C1937 C1936 1.367 . S
C1937 C1945 1.433 . S
C1938 H1934 0.929 1_455 S
C1938 C1940 1.381 . S
C1938 C1942 1.350 . S
C1939 C1942 1.463 . S
C1939 C1944 1.350 . S
C1939 N1947 1.427 . S
C1940 H1931 0.900 1_455 S
C1940 C1938 1.381 . S
C1940 C1941 1.394 . S
C1941 C1940 1.394 . S
C1941 C1943 1.433 . S
C1942 C1938 1.350 . S
C1942 C1939 1.463 . S
C1942 N1946 1.427 . S
C1943 H1933 0.929 . S
C1943 C1941 1.433 . S
C1943 N1946 1.384 . S
C1944 H1935 0.929 . S
C1944 C1936 1.378 . S
C1944 C1939 1.350 . S
C1945 H1932 0.929 1_455 S
C1945 C1937 1.433 . S
C1945 N1947 1.384 . S
N1946 C1942 1.427 . S
N1946 C1943 1.384 . S
N1947 C1939 1.427 . S
N1947 C1945 1.384 . S
H1948 C1954 0.930 . S
H1949 C1958 0.930 . S
H1950 C1963 0.929 . S
H1951 C1961 0.929 . S
H1952 C1956 0.929 . S
H1953 C1962 0.929 . S
C1954 H1948 0.930 . S
C1954 C1955 1.367 . S
C1954 C1962 1.378 . S
C1955 C1954 1.367 . S
C1955 C1963 1.433 . S
C1956 H1952 0.929 . S
C1956 C1958 1.378 . S
C1956 C1960 1.350 . S
C1957 C1960 1.463 . S
C1957 C1962 1.350 . S
C1957 N1965 1.427 . S
C1958 H1949 0.930 . S
C1958 C1956 1.378 . S
C1958 C1959 1.367 . S
C1959 C1958 1.367 . S
C1959 C1961 1.433 . S
C1960 C1956 1.350 . S
C1960 C1957 1.463 . S
C1960 N1964 1.427 . S
C1961 H1951 0.929 . S
C1961 C1959 1.433 . S
C1961 N1964 1.384 . S
C1962 H1953 0.929 . S
C1962 C1954 1.378 . S
C1962 C1957 1.350 . S
C1963 H1950 0.929 . S
C1963 C1955 1.433 . S
C1963 N1965 1.384 . S
N1964 C1960 1.427 . S
N1964 C1961 1.384 . S
N1965 C1957 1.427 . S
N1965 C1963 1.384 . S
H1966 C1972 0.930 . S
H1967 C1976 0.930 . S
H1968 C1981 0.929 . S
H1969 C1979 0.900 1_455 S
H1970 C1974 0.929 . S
H1971 C1980 0.911 1_455 S
C1972 H1966 0.930 . S
C1972 C1973 1.367 . S
C1972 C1980 1.378 . S
C1973 C1972 1.367 . S
C1973 C1981 1.433 . S
C1974 H1970 0.929 . S
C1974 C1976 1.378 . S
C1974 C1978 1.350 . S
C1975 C1978 1.463 . S
C1975 C1980 1.350 . S
C1975 N1983 1.427 . S
C1976 H1967 0.930 . S
C1976 C1974 1.378 . S
C1976 C1977 1.367 . S
C1977 C1976 1.367 . S
C1977 C1979 1.462 . S
C1978 C1974 1.350 . S
C1978 C1975 1.463 . S
C1978 N1982 1.427 . S
C1979 H1969 0.900 1_655 S
C1979 C1977 1.462 . S
C1979 N1982 1.390 . S
C1980 H1971 0.911 1_655 S
C1980 C1972 1.378 . S
C1980 C1975 1.350 . S
C1981 H1968 0.929 . S
C1981 C1973 1.433 . S
C1981 N1983 1.384 . S
N1982 C1978 1.427 . S
N1982 C1979 1.390 . S
N1983 C1975 1.427 . S
N1983 C1981 1.384 . S
H1984 C1990 0.930 . S
H1985 C1994 0.930 . S
H1986 C1999 0.929 . S
H1987 C1997 0.929 . S
H1988 C1992 0.929 . S
H1989 C1998 0.929 . S
C1990 H1984 0.930 . S
C1990 C1991 1.367 . S
C1990 C1998 1.378 . S
C1991 C1990 1.367 . S
C1991 C1999 1.433 . S
C1992 H1988 0.929 . S
C1992 C1994 1.378 . S
C1992 C1996 1.350 . S
C1993 C1996 1.463 . S
C1993 C1998 1.350 . S
C1993 N2001 1.427 . S
C1994 H1985 0.930 . S
C1994 C1992 1.378 . S
C1994 C1995 1.367 . S
C1995 C1994 1.367 . S
C1995 C1997 1.433 . S
C1996 C1992 1.350 . S
C1996 C1993 1.463 . S
C1996 N2000 1.427 . S
C1997 H1987 0.929 . S
C1997 C1995 1.433 . S
C1997 N2000 1.384 . S
C1998 H1989 0.929 . S
C1998 C1990 1.378 . S
C1998 C1993 1.350 . S
C1999 H1986 0.929 . S
C1999 C1991 1.433 . S
C1999 N2001 1.384 . S
N2000 C1996 1.427 . S
N2000 C1997 1.384 . S
N2001 C1993 1.427 . S
N2001 C1999 1.384 . S
H2002 C2008 0.930 . S
H2003 C2012 0.930 . S
H2004 C2017 0.929 . S
H2005 C2015 0.929 . S
H2006 C2010 0.929 . S
H2007 C2016 0.929 . S
C2008 H2002 0.930 . S
C2008 C2009 1.367 . S
C2008 C2016 1.378 . S
C2009 C2008 1.367 . S
C2009 C2017 1.433 . S
C2010 H2006 0.929 . S
C2010 C2012 1.378 . S
C2010 C2014 1.350 . S
C2011 C2014 1.463 . S
C2011 C2016 1.350 . S
C2011 N2019 1.427 . S
C2012 H2003 0.930 . S
C2012 C2010 1.378 . S
C2012 C2013 1.367 . S
C2013 C2012 1.367 . S
C2013 C2015 1.433 . S
C2014 C2010 1.350 . S
C2014 C2011 1.463 . S
C2014 N2018 1.427 . S
C2015 H2005 0.929 . S
C2015 C2013 1.433 . S
C2015 N2018 1.384 . S
C2016 H2007 0.929 . S
C2016 C2008 1.378 . S
C2016 C2011 1.350 . S
C2017 H2004 0.929 . S
C2017 C2009 1.433 . S
C2017 N2019 1.384 . S
N2018 C2014 1.427 . S
N2018 C2015 1.384 . S
N2019 C2011 1.427 . S
N2019 C2017 1.384 . S
H2020 C2026 0.930 1_554 S
H2021 C2030 0.930 . S
H2022 C2035 0.929 . S
H2023 C2033 0.929 . S
H2024 C2028 0.929 . S
H2025 C2034 0.929 1_554 S
C2026 H2020 0.930 1_556 S
C2026 C2027 1.367 . S
C2026 C2034 1.378 . S
C2027 C2026 1.367 . S
C2027 C2035 1.433 . S
C2028 H2024 0.929 . S
C2028 C2030 1.378 . S
C2028 C2032 1.350 . S
C2029 C2032 1.463 . S
C2029 C2034 1.350 . S
C2029 N2037 1.427 . S
C2030 H2021 0.930 . S
C2030 C2028 1.378 . S
C2030 C2031 1.367 . S
C2031 C2030 1.367 . S
C2031 C2033 1.433 1_556 S
C2032 C2028 1.350 . S
C2032 C2029 1.463 . S
C2032 N2036 1.427 1_556 S
C2033 H2023 0.929 . S
C2033 C2031 1.433 1_554 S
C2033 N2036 1.384 . S
C2034 H2025 0.929 1_556 S
C2034 C2026 1.378 . S
C2034 C2029 1.350 . S
C2035 H2022 0.929 . S
C2035 C2027 1.433 . S
C2035 N2037 1.384 . S
N2036 C2032 1.427 1_554 S
N2036 C2033 1.384 . S
N2037 C2029 1.427 . S
N2037 C2035 1.384 . S
H2038 C2044 0.930 . S
H2039 C2048 0.930 . S
H2040 C2053 0.929 . S
H2041 C2051 0.929 . S
H2042 C2046 0.929 . S
H2043 C2052 0.929 . S
C2044 H2038 0.930 . S
C2044 C2045 1.367 . S
C2044 C2052 1.378 . S
C2045 C2044 1.367 . S
C2045 C2053 1.433 . S
C2046 H2042 0.929 . S
C2046 C2048 1.378 . S
C2046 C2050 1.350 . S
C2047 C2050 1.463 . S
C2047 C2052 1.350 . S
C2047 N2055 1.427 . S
C2048 H2039 0.930 . S
C2048 C2046 1.378 . S
C2048 C2049 1.367 . S
C2049 C2048 1.367 . S
C2049 C2051 1.433 . S
C2050 C2046 1.350 . S
C2050 C2047 1.463 . S
C2050 N2054 1.427 . S
C2051 H2041 0.929 . S
C2051 C2049 1.433 . S
C2051 N2054 1.384 . S
C2052 H2043 0.929 . S
C2052 C2044 1.378 . S
C2052 C2047 1.350 . S
C2053 H2040 0.929 . S
C2053 C2045 1.433 . S
C2053 N2055 1.384 . S
N2054 C2050 1.427 . S
N2054 C2051 1.384 . S
N2055 C2047 1.427 . S
N2055 C2053 1.384 . S
H2056 C2062 0.930 . S
H2057 C2066 0.930 . S
H2058 C2071 0.929 . S
H2059 C2069 0.929 . S
H2060 C2064 0.929 . S
H2061 C2070 0.929 . S
C2062 H2056 0.930 . S
C2062 C2063 1.367 . S
C2062 C2070 1.378 . S
C2063 C2062 1.367 . S
C2063 C2071 1.433 . S
C2064 H2060 0.929 . S
C2064 C2066 1.378 . S
C2064 C2068 1.350 . S
C2065 C2068 1.463 . S
C2065 C2070 1.350 . S
C2065 N2073 1.427 . S
C2066 H2057 0.930 . S
C2066 C2064 1.378 . S
C2066 C2067 1.367 . S
C2067 C2066 1.367 . S
C2067 C2069 1.433 . S
C2068 C2064 1.350 . S
C2068 C2065 1.463 . S
C2068 N2072 1.427 . S
C2069 H2059 0.929 . S
C2069 C2067 1.433 . S
C2069 N2072 1.384 . S
C2070 H2061 0.929 . S
C2070 C2062 1.378 . S
C2070 C2065 1.350 . S
C2071 H2058 0.929 . S
C2071 C2063 1.433 . S
C2071 N2073 1.384 . S
N2072 C2068 1.427 . S
N2072 C2069 1.384 . S
N2073 C2065 1.427 . S
N2073 C2071 1.384 . S
H2074 C2080 0.930 . S
H2075 C2084 0.930 . S
H2076 C2089 0.929 . S
H2077 C2087 0.929 . S
H2078 C2082 0.929 . S
H2079 C2088 0.929 . S
C2080 H2074 0.930 . S
C2080 C2081 1.367 . S
C2080 C2088 1.378 . S
C2081 C2080 1.367 . S
C2081 C2089 1.433 . S
C2082 H2078 0.929 . S
C2082 C2084 1.378 . S
C2082 C2086 1.350 . S
C2083 C2086 1.463 . S
C2083 C2088 1.350 . S
C2083 N2091 1.427 . S
C2084 H2075 0.930 . S
C2084 C2082 1.378 . S
C2084 C2085 1.367 . S
C2085 C2084 1.367 . S
C2085 C2087 1.433 . S
C2086 C2082 1.350 . S
C2086 C2083 1.463 . S
C2086 N2090 1.427 . S
C2087 H2077 0.929 . S
C2087 C2085 1.433 . S
C2087 N2090 1.384 . S
C2088 H2079 0.929 . S
C2088 C2080 1.378 . S
C2088 C2083 1.350 . S
C2089 H2076 0.929 . S
C2089 C2081 1.433 . S
C2089 N2091 1.384 . S
N2090 C2086 1.427 . S
N2090 C2087 1.384 . S
N2091 C2083 1.427 . S
N2091 C2089 1.384 . S
H2092 C2098 0.930 . S
H2093 C2102 0.930 . S
H2094 C2107 0.929 . S
H2095 C2105 0.929 . S
H2096 C2100 0.929 . S
H2097 C2106 0.929 . S
C2098 H2092 0.930 . S
C2098 C2099 1.367 . S
C2098 C2106 1.378 . S
C2099 C2098 1.367 . S
C2099 C2107 1.433 . S
C2100 H2096 0.929 . S
C2100 C2102 1.378 . S
C2100 C2104 1.350 . S
C2101 C2104 1.463 . S
C2101 C2106 1.350 . S
C2101 N2109 1.427 . S
C2102 H2093 0.930 . S
C2102 C2100 1.378 . S
C2102 C2103 1.367 . S
C2103 C2102 1.367 . S
C2103 C2105 1.433 . S
C2104 C2100 1.350 . S
C2104 C2101 1.463 . S
C2104 N2108 1.427 . S
C2105 H2095 0.929 . S
C2105 C2103 1.433 . S
C2105 N2108 1.384 . S
C2106 H2097 0.929 . S
C2106 C2098 1.378 . S
C2106 C2101 1.350 . S
C2107 H2094 0.929 . S
C2107 C2099 1.433 . S
C2107 N2109 1.384 . S
N2108 C2104 1.427 . S
N2108 C2105 1.384 . S
N2109 C2101 1.427 . S
N2109 C2107 1.384 . S
H2110 C2116 0.930 . S
H2111 C2120 0.930 . S
H2112 C2125 0.929 . S
H2113 C2123 0.929 . S
H2114 C2118 0.929 . S
H2115 C2124 0.929 . S
C2116 H2110 0.930 . S
C2116 C2117 1.367 . S
C2116 C2124 1.378 . S
C2117 C2116 1.367 . S
C2117 C2125 1.433 . S
C2118 H2114 0.929 . S
C2118 C2120 1.378 . S
C2118 C2122 1.350 . S
C2119 C2122 1.463 . S
C2119 C2124 1.350 . S
C2119 N2127 1.427 . S
C2120 H2111 0.930 . S
C2120 C2118 1.378 . S
C2120 C2121 1.367 . S
C2121 C2120 1.367 . S
C2121 C2123 1.433 . S
C2122 C2118 1.350 . S
C2122 C2119 1.463 . S
C2122 N2126 1.427 . S
C2123 H2113 0.929 . S
C2123 C2121 1.433 . S
C2123 N2126 1.384 . S
C2124 H2115 0.929 . S
C2124 C2116 1.378 . S
C2124 C2119 1.350 . S
C2125 H2112 0.929 . S
C2125 C2117 1.433 . S
C2125 N2127 1.384 . S
N2126 C2122 1.427 . S
N2126 C2123 1.384 . S
N2127 C2119 1.427 . S
N2127 C2125 1.384 . S
H2128 C2134 0.930 . S
H2129 C2138 0.930 . S
H2130 C2143 0.929 . S
H2131 C2141 0.929 . S
H2132 C2136 0.929 . S
H2133 C2142 0.929 . S
C2134 H2128 0.930 . S
C2134 C2135 1.367 . S
C2134 C2142 1.378 . S
C2135 C2134 1.367 . S
C2135 C2143 1.433 . S
C2136 H2132 0.929 . S
C2136 C2138 1.378 . S
C2136 C2140 1.350 . S
C2137 C2140 1.463 . S
C2137 C2142 1.350 . S
C2137 N2145 1.427 . S
C2138 H2129 0.930 . S
C2138 C2136 1.378 . S
C2138 C2139 1.367 . S
C2139 C2138 1.367 . S
C2139 C2141 1.433 . S
C2140 C2136 1.350 . S
C2140 C2137 1.463 . S
C2140 N2144 1.427 . S
C2141 H2131 0.929 . S
C2141 C2139 1.433 . S
C2141 N2144 1.384 . S
C2142 H2133 0.929 . S
C2142 C2134 1.378 . S
C2142 C2137 1.350 . S
C2143 H2130 0.929 . S
C2143 C2135 1.433 . S
C2143 N2145 1.384 . S
N2144 C2140 1.427 . S
N2144 C2141 1.384 . S
N2145 C2137 1.427 . S
N2145 C2143 1.384 . S
H2146 C2152 0.930 1_565 S
H2147 C2156 0.930 . S
H2148 C2161 0.929 . S
H2149 C2159 0.929 . S
H2150 C2154 0.929 . S
H2151 C2160 0.929 1_565 S
C2152 H2146 0.930 1_545 S
C2152 C2153 1.367 . S
C2152 C2160 1.378 . S
C2153 C2152 1.367 . S
C2153 C2161 1.433 . S
C2154 H2150 0.929 . S
C2154 C2156 1.378 . S
C2154 C2158 1.350 . S
C2155 C2158 1.463 . S
C2155 C2160 1.350 . S
C2155 N2163 1.427 . S
C2156 H2147 0.930 . S
C2156 C2154 1.378 . S
C2156 C2157 1.367 . S
C2157 C2156 1.367 . S
C2157 C2159 1.433 1_545 S
C2158 C2154 1.350 . S
C2158 C2155 1.463 . S
C2158 N2162 1.393 1_545 S
C2159 H2149 0.929 . S
C2159 C2157 1.433 1_565 S
C2159 N2162 1.388 . S
C2160 H2151 0.929 1_545 S
C2160 C2152 1.378 . S
C2160 C2155 1.350 . S
C2161 H2148 0.929 . S
C2161 C2153 1.433 . S
C2161 N2163 1.384 . S
N2162 C2158 1.393 1_565 S
N2162 C2159 1.388 . S
N2163 C2155 1.427 . S
N2163 C2161 1.384 . S
H2164 C2170 0.930 . S
H2165 C2174 0.930 . S
H2166 C2179 0.929 . S
H2167 C2177 0.929 . S
H2168 C2172 0.929 . S
H2169 C2178 0.929 . S
C2170 H2164 0.930 . S
C2170 C2171 1.367 . S
C2170 C2178 1.378 . S
C2171 C2170 1.367 . S
C2171 C2179 1.433 . S
C2172 H2168 0.929 . S
C2172 C2174 1.378 . S
C2172 C2176 1.350 . S
C2173 C2176 1.463 . S
C2173 C2178 1.350 . S
C2173 N2181 1.427 . S
C2174 H2165 0.930 . S
C2174 C2172 1.378 . S
C2174 C2175 1.367 . S
C2175 C2174 1.367 . S
C2175 C2177 1.433 . S
C2176 C2172 1.350 . S
C2176 C2173 1.463 . S
C2176 N2180 1.427 . S
C2177 H2167 0.929 . S
C2177 C2175 1.433 . S
C2177 N2180 1.384 . S
C2178 H2169 0.929 . S
C2178 C2170 1.378 . S
C2178 C2173 1.350 . S
C2179 H2166 0.929 . S
C2179 C2171 1.433 . S
C2179 N2181 1.384 . S
N2180 C2176 1.427 . S
N2180 C2177 1.384 . S
N2181 C2173 1.427 . S
N2181 C2179 1.384 . S
H2182 C2188 0.930 . S
H2183 C2192 0.930 . S
H2184 C2197 0.929 . S
H2185 C2195 0.929 . S
H2186 C2190 0.929 . S
H2187 C2196 0.929 . S
C2188 H2182 0.930 . S
C2188 C2189 1.367 . S
C2188 C2196 1.378 . S
C2189 C2188 1.367 . S
C2189 C2197 1.433 . S
C2190 H2186 0.929 . S
C2190 C2192 1.378 . S
C2190 C2194 1.350 . S
C2191 C2194 1.463 . S
C2191 C2196 1.350 . S
C2191 N2199 1.427 . S
C2192 H2183 0.930 . S
C2192 C2190 1.378 . S
C2192 C2193 1.367 . S
C2193 C2192 1.367 . S
C2193 C2195 1.433 . S
C2194 C2190 1.350 . S
C2194 C2191 1.463 . S
C2194 N2198 1.427 . S
C2195 H2185 0.929 . S
C2195 C2193 1.433 . S
C2195 N2198 1.384 . S
C2196 H2187 0.929 . S
C2196 C2188 1.378 . S
C2196 C2191 1.350 . S
C2197 H2184 0.929 . S
C2197 C2189 1.433 . S
C2197 N2199 1.384 . S
N2198 C2194 1.427 . S
N2198 C2195 1.384 . S
N2199 C2191 1.427 . S
N2199 C2197 1.384 . S
H2200 C2206 0.930 . S
H2201 C2210 0.930 . S
H2202 C2215 0.929 . S
H2203 C2213 0.929 . S
H2204 C2208 0.929 . S
H2205 C2214 0.929 . S
C2206 H2200 0.930 . S
C2206 C2207 1.367 . S
C2206 C2214 1.378 . S
C2207 C2206 1.367 . S
C2207 C2215 1.433 . S
C2208 H2204 0.929 . S
C2208 C2210 1.378 . S
C2208 C2212 1.350 . S
C2209 C2212 1.463 . S
C2209 C2214 1.350 . S
C2209 N2217 1.427 . S
C2210 H2201 0.930 . S
C2210 C2208 1.378 . S
C2210 C2211 1.367 . S
C2211 C2210 1.367 . S
C2211 C2213 1.433 . S
C2212 C2208 1.350 . S
C2212 C2209 1.463 . S
C2212 N2216 1.427 . S
C2213 H2203 0.929 . S
C2213 C2211 1.433 . S
C2213 N2216 1.384 . S
C2214 H2205 0.929 . S
C2214 C2206 1.378 . S
C2214 C2209 1.350 . S
C2215 H2202 0.929 . S
C2215 C2207 1.433 . S
C2215 N2217 1.384 . S
N2216 C2212 1.427 . S
N2216 C2213 1.384 . S
N2217 C2209 1.427 . S
N2217 C2215 1.384 . S
H2218 C2224 0.930 . S
H2219 C2228 0.963 . S
H2220 C2233 0.929 1_565 S
H2221 C2231 0.929 . S
H2222 C2226 0.901 1_565 S
H2223 C2232 0.929 . S
C2224 H2218 0.930 . S
C2224 C2225 1.367 . S
C2224 C2232 1.378 . S
C2225 C2224 1.367 . S
C2225 C2233 1.433 . S
C2226 H2222 0.901 1_545 S
C2226 C2228 1.373 1_545 S
C2226 C2230 1.382 . S
C2227 C2230 1.463 . S
C2227 C2232 1.350 . S
C2227 N2235 1.427 . S
C2228 H2219 0.963 . S
C2228 C2226 1.373 1_565 S
C2228 C2229 1.339 1_565 S
C2229 C2228 1.339 1_545 S
C2229 C2231 1.433 . S
C2230 C2226 1.382 . S
C2230 C2227 1.463 . S
C2230 N2234 1.427 . S
C2231 H2221 0.929 . S
C2231 C2229 1.433 . S
C2231 N2234 1.384 . S
C2232 H2223 0.929 . S
C2232 C2224 1.378 . S
C2232 C2227 1.350 . S
C2233 H2220 0.929 1_545 S
C2233 C2225 1.433 . S
C2233 N2235 1.384 . S
N2234 C2230 1.427 . S
N2234 C2231 1.384 . S
N2235 C2227 1.427 . S
N2235 C2233 1.384 . S
H2236 C2242 0.930 . S
H2237 C2246 0.930 . S
H2238 C2251 0.929 . S
H2239 C2249 0.929 . S
H2240 C2244 0.929 . S
H2241 C2250 0.929 . S
C2242 H2236 0.930 . S
C2242 C2243 1.367 . S
C2242 C2250 1.378 . S
C2243 C2242 1.367 . S
C2243 C2251 1.433 . S
C2244 H2240 0.929 . S
C2244 C2246 1.378 . S
C2244 C2248 1.350 . S
C2245 C2248 1.463 . S
C2245 C2250 1.350 . S
C2245 N2253 1.427 . S
C2246 H2237 0.930 . S
C2246 C2244 1.378 . S
C2246 C2247 1.367 . S
C2247 C2246 1.367 . S
C2247 C2249 1.433 . S
C2248 C2244 1.350 . S
C2248 C2245 1.463 . S
C2248 N2252 1.427 . S
C2249 H2239 0.929 . S
C2249 C2247 1.433 . S
C2249 N2252 1.384 . S
C2250 H2241 0.929 . S
C2250 C2242 1.378 . S
C2250 C2245 1.350 . S
C2251 H2238 0.929 . S
C2251 C2243 1.433 . S
C2251 N2253 1.384 . S
N2252 C2248 1.427 . S
N2252 C2249 1.384 . S
N2253 C2245 1.427 . S
N2253 C2251 1.384 . S
H2254 C2260 0.930 . S
H2255 C2264 0.930 . S
H2256 C2269 0.929 . S
H2257 C2267 0.929 . S
H2258 C2262 0.929 . S
H2259 C2268 0.929 . S
C2260 H2254 0.930 . S
C2260 C2261 1.367 . S
C2260 C2268 1.378 . S
C2261 C2260 1.367 . S
C2261 C2269 1.433 . S
C2262 H2258 0.929 . S
C2262 C2264 1.378 . S
C2262 C2266 1.350 . S
C2263 C2266 1.463 . S
C2263 C2268 1.350 . S
C2263 N2271 1.427 . S
C2264 H2255 0.930 . S
C2264 C2262 1.378 . S
C2264 C2265 1.367 . S
C2265 C2264 1.367 . S
C2265 C2267 1.433 . S
C2266 C2262 1.350 . S
C2266 C2263 1.463 . S
C2266 N2270 1.427 . S
C2267 H2257 0.929 . S
C2267 C2265 1.433 . S
C2267 N2270 1.384 . S
C2268 H2259 0.929 . S
C2268 C2260 1.378 . S
C2268 C2263 1.350 . S
C2269 H2256 0.929 . S
C2269 C2261 1.433 . S
C2269 N2271 1.384 . S
N2270 C2266 1.427 . S
N2270 C2267 1.384 . S
N2271 C2263 1.427 . S
N2271 C2269 1.384 . S
H2272 C2278 0.930 . S
H2273 C2282 0.930 . S
H2274 C2287 0.929 . S
H2275 C2285 0.929 . S
H2276 C2280 0.929 . S
H2277 C2286 0.929 . S
C2278 H2272 0.930 . S
C2278 C2279 1.367 . S
C2278 C2286 1.378 . S
C2279 C2278 1.367 . S
C2279 C2287 1.433 . S
C2280 H2276 0.929 . S
C2280 C2282 1.378 . S
C2280 C2284 1.350 . S
C2281 C2284 1.463 . S
C2281 C2286 1.350 . S
C2281 N2289 1.427 . S
C2282 H2273 0.930 . S
C2282 C2280 1.378 . S
C2282 C2283 1.367 . S
C2283 C2282 1.367 . S
C2283 C2285 1.433 . S
C2284 C2280 1.350 . S
C2284 C2281 1.463 . S
C2284 N2288 1.427 . S
C2285 H2275 0.929 . S
C2285 C2283 1.433 . S
C2285 N2288 1.384 . S
C2286 H2277 0.929 . S
C2286 C2278 1.378 . S
C2286 C2281 1.350 . S
C2287 H2274 0.929 . S
C2287 C2279 1.433 . S
C2287 N2289 1.384 . S
N2288 C2284 1.427 . S
N2288 C2285 1.384 . S
N2289 C2281 1.427 . S
N2289 C2287 1.384 . S
H2290 C2296 0.930 . S
H2291 C2300 0.930 . S
H2292 C2305 0.929 . S
H2293 C2303 0.929 . S
H2294 C2298 0.929 . S
H2295 C2304 0.929 . S
C2296 H2290 0.930 . S
C2296 C2297 1.367 . S
C2296 C2304 1.378 . S
C2297 C2296 1.367 . S
C2297 C2305 1.433 . S
C2298 H2294 0.929 . S
C2298 C2300 1.378 . S
C2298 C2302 1.350 . S
C2299 C2302 1.463 . S
C2299 C2304 1.350 . S
C2299 N2307 1.427 . S
C2300 H2291 0.930 . S
C2300 C2298 1.378 . S
C2300 C2301 1.367 . S
C2301 C2300 1.367 . S
C2301 C2303 1.433 . S
C2302 C2298 1.350 . S
C2302 C2299 1.463 . S
C2302 N2306 1.427 . S
C2303 H2293 0.929 . S
C2303 C2301 1.433 . S
C2303 N2306 1.384 . S
C2304 H2295 0.929 . S
C2304 C2296 1.378 . S
C2304 C2299 1.350 . S
C2305 H2292 0.929 . S
C2305 C2297 1.433 . S
C2305 N2307 1.384 . S
N2306 C2302 1.427 . S
N2306 C2303 1.384 . S
N2307 C2299 1.427 . S
N2307 C2305 1.384 . S
H2308 C2314 0.930 . S
H2309 C2318 0.930 . S
H2310 C2323 0.929 . S
H2311 C2321 0.929 . S
H2312 C2316 0.929 . S
H2313 C2322 0.929 . S
C2314 H2308 0.930 . S
C2314 C2315 1.367 . S
C2314 C2322 1.378 . S
C2315 C2314 1.367 . S
C2315 C2323 1.433 . S
C2316 H2312 0.929 . S
C2316 C2318 1.378 . S
C2316 C2320 1.350 . S
C2317 C2320 1.463 . S
C2317 C2322 1.350 . S
C2317 N2325 1.427 . S
C2318 H2309 0.930 . S
C2318 C2316 1.378 . S
C2318 C2319 1.367 . S
C2319 C2318 1.367 . S
C2319 C2321 1.433 . S
C2320 C2316 1.350 . S
C2320 C2317 1.463 . S
C2320 N2324 1.427 . S
C2321 H2311 0.929 . S
C2321 C2319 1.433 . S
C2321 N2324 1.384 . S
C2322 H2313 0.929 . S
C2322 C2314 1.378 . S
C2322 C2317 1.350 . S
C2323 H2310 0.929 . S
C2323 C2315 1.433 . S
C2323 N2325 1.384 . S
N2324 C2320 1.427 . S
N2324 C2321 1.384 . S
N2325 C2317 1.427 . S
N2325 C2323 1.384 . S
H2326 C2332 0.930 . S
H2327 C2336 0.930 . S
H2328 C2341 0.929 . S
H2329 C2339 0.894 1_655 S
H2330 C2334 0.929 . S
H2331 C2340 0.929 . S
C2332 H2326 0.930 . S
C2332 C2333 1.367 . S
C2332 C2340 1.378 . S
C2333 C2332 1.367 . S
C2333 C2341 1.433 . S
C2334 H2330 0.929 . S
C2334 C2336 1.378 . S
C2334 C2338 1.350 . S
C2335 C2338 1.463 . S
C2335 C2340 1.350 . S
C2335 N2343 1.427 . S
C2336 H2327 0.930 . S
C2336 C2334 1.378 . S
C2336 C2337 1.367 . S
C2337 C2336 1.367 . S
C2337 C2339 1.433 . S
C2338 C2334 1.350 . S
C2338 C2335 1.463 . S
C2338 N2342 1.427 . S
C2339 H2329 0.894 1_455 S
C2339 C2337 1.433 . S
C2339 N2342 1.384 . S
C2340 H2331 0.929 . S
C2340 C2332 1.378 . S
C2340 C2335 1.350 . S
C2341 H2328 0.929 . S
C2341 C2333 1.433 . S
C2341 N2343 1.384 . S
N2342 C2338 1.427 . S
N2342 C2339 1.384 . S
N2343 C2335 1.427 . S
N2343 C2341 1.384 . S
H2344 C2350 0.930 . S
H2345 C2354 0.930 . S
H2346 C2359 0.929 . S
H2347 C2357 0.929 . S
H2348 C2352 0.929 . S
H2349 C2358 0.929 . S
C2350 H2344 0.930 . S
C2350 C2351 1.367 . S
C2350 C2358 1.378 . S
C2351 C2350 1.367 . S
C2351 C2359 1.433 . S
C2352 H2348 0.929 . S
C2352 C2354 1.378 . S
C2352 C2356 1.350 . S
C2353 C2356 1.463 . S
C2353 C2358 1.350 . S
C2353 N2361 1.427 . S
C2354 H2345 0.930 . S
C2354 C2352 1.378 . S
C2354 C2355 1.367 . S
C2355 C2354 1.367 . S
C2355 C2357 1.433 . S
C2356 C2352 1.350 . S
C2356 C2353 1.463 . S
C2356 N2360 1.427 . S
C2357 H2347 0.929 . S
C2357 C2355 1.433 . S
C2357 N2360 1.384 . S
C2358 H2349 0.929 . S
C2358 C2350 1.378 . S
C2358 C2353 1.350 . S
C2359 H2346 0.929 . S
C2359 C2351 1.433 . S
C2359 N2361 1.384 . S
N2360 C2356 1.427 . S
N2360 C2357 1.384 . S
N2361 C2353 1.427 . S
N2361 C2359 1.384 . S
H2362 C2368 0.930 . S
H2363 C2372 0.930 . S
H2364 C2377 0.929 . S
H2365 C2375 0.929 . S
H2366 C2370 0.929 . S
H2367 C2376 0.929 . S
C2368 H2362 0.930 . S
C2368 C2369 1.367 . S
C2368 C2376 1.378 . S
C2369 C2368 1.367 . S
C2369 C2377 1.433 . S
C2370 H2366 0.929 . S
C2370 C2372 1.378 . S
C2370 C2374 1.350 . S
C2371 C2374 1.463 . S
C2371 C2376 1.350 . S
C2371 N2379 1.427 . S
C2372 H2363 0.930 . S
C2372 C2370 1.378 . S
C2372 C2373 1.367 . S
C2373 C2372 1.367 . S
C2373 C2375 1.433 . S
C2374 C2370 1.350 . S
C2374 C2371 1.463 . S
C2374 N2378 1.427 . S
C2375 H2365 0.929 . S
C2375 C2373 1.433 . S
C2375 N2378 1.384 . S
C2376 H2367 0.929 . S
C2376 C2368 1.378 . S
C2376 C2371 1.350 . S
C2377 H2364 0.929 . S
C2377 C2369 1.433 . S
C2377 N2379 1.384 . S
N2378 C2374 1.427 . S
N2378 C2375 1.384 . S
N2379 C2371 1.427 . S
N2379 C2377 1.384 . S
H2380 C2386 0.930 . S
H2381 C2390 0.930 . S
H2382 C2395 0.929 . S
H2383 C2393 0.929 . S
H2384 C2388 0.929 . S
H2385 C2394 0.929 . S
C2386 H2380 0.930 . S
C2386 C2387 1.367 . S
C2386 C2394 1.378 . S
C2387 C2386 1.367 . S
C2387 C2395 1.433 . S
C2388 H2384 0.929 . S
C2388 C2390 1.378 . S
C2388 C2392 1.350 . S
C2389 C2392 1.463 . S
C2389 C2394 1.350 . S
C2389 N2397 1.427 . S
C2390 H2381 0.930 . S
C2390 C2388 1.378 . S
C2390 C2391 1.367 . S
C2391 C2390 1.367 . S
C2391 C2393 1.433 . S
C2392 C2388 1.350 . S
C2392 C2389 1.463 . S
C2392 N2396 1.427 . S
C2393 H2383 0.929 . S
C2393 C2391 1.433 . S
C2393 N2396 1.384 . S
C2394 H2385 0.929 . S
C2394 C2386 1.378 . S
C2394 C2389 1.350 . S
C2395 H2382 0.929 . S
C2395 C2387 1.433 . S
C2395 N2397 1.384 . S
N2396 C2392 1.427 . S
N2396 C2393 1.384 . S
N2397 C2389 1.427 . S
N2397 C2395 1.384 . S
H2398 C2404 0.930 . S
H2399 C2408 0.930 . S
H2400 C2413 0.929 . S
H2401 C2411 0.929 . S
H2402 C2406 0.929 . S
H2403 C2412 0.929 . S
C2404 H2398 0.930 . S
C2404 C2405 1.367 . S
C2404 C2412 1.378 . S
C2405 C2404 1.367 . S
C2405 C2413 1.433 . S
C2406 H2402 0.929 . S
C2406 C2408 1.378 . S
C2406 C2410 1.350 . S
C2407 C2410 1.463 . S
C2407 C2412 1.350 . S
C2407 N2415 1.427 . S
C2408 H2399 0.930 . S
C2408 C2406 1.378 . S
C2408 C2409 1.367 . S
C2409 C2408 1.367 . S
C2409 C2411 1.433 . S
C2410 C2406 1.350 . S
C2410 C2407 1.463 . S
C2410 N2414 1.427 . S
C2411 H2401 0.929 . S
C2411 C2409 1.433 . S
C2411 N2414 1.384 . S
C2412 H2403 0.929 . S
C2412 C2404 1.378 . S
C2412 C2407 1.350 . S
C2413 H2400 0.929 . S
C2413 C2405 1.433 . S
C2413 N2415 1.384 . S
N2414 C2410 1.427 . S
N2414 C2411 1.384 . S
N2415 C2407 1.427 . S
N2415 C2413 1.384 . S
H2416 C2422 0.930 . S
H2417 C2426 0.930 . S
H2418 C2431 0.929 . S
H2419 C2429 0.929 . S
H2420 C2424 0.929 . S
H2421 C2430 0.929 . S
C2422 H2416 0.930 . S
C2422 C2423 1.367 . S
C2422 C2430 1.378 . S
C2423 C2422 1.367 . S
C2423 C2431 1.433 . S
C2424 H2420 0.929 . S
C2424 C2426 1.378 . S
C2424 C2428 1.350 . S
C2425 C2428 1.463 . S
C2425 C2430 1.350 . S
C2425 N2433 1.427 . S
C2426 H2417 0.930 . S
C2426 C2424 1.378 . S
C2426 C2427 1.367 . S
C2427 C2426 1.367 . S
C2427 C2429 1.433 . S
C2428 C2424 1.350 . S
C2428 C2425 1.463 . S
C2428 N2432 1.427 . S
C2429 H2419 0.929 . S
C2429 C2427 1.433 . S
C2429 N2432 1.384 . S
C2430 H2421 0.929 . S
C2430 C2422 1.378 . S
C2430 C2425 1.350 . S
C2431 H2418 0.929 . S
C2431 C2423 1.433 . S
C2431 N2433 1.384 . S
N2432 C2428 1.427 . S
N2432 C2429 1.384 . S
N2433 C2425 1.427 . S
N2433 C2431 1.384 . S
H2434 C2440 0.930 . S
H2435 C2444 0.930 . S
H2436 C2449 0.929 . S
H2437 C2447 0.929 . S
H2438 C2442 0.929 . S
H2439 C2448 0.929 . S
C2440 H2434 0.930 . S
C2440 C2441 1.367 . S
C2440 C2448 1.378 . S
C2441 C2440 1.367 . S
C2441 C2449 1.433 . S
C2442 H2438 0.929 . S
C2442 C2444 1.378 . S
C2442 C2446 1.350 . S
C2443 C2446 1.463 . S
C2443 C2448 1.350 . S
C2443 N2451 1.427 . S
C2444 H2435 0.930 . S
C2444 C2442 1.378 . S
C2444 C2445 1.367 . S
C2445 C2444 1.367 . S
C2445 C2447 1.433 . S
C2446 C2442 1.350 . S
C2446 C2443 1.463 . S
C2446 N2450 1.427 . S
C2447 H2437 0.929 . S
C2447 C2445 1.433 . S
C2447 N2450 1.384 . S
C2448 H2439 0.929 . S
C2448 C2440 1.378 . S
C2448 C2443 1.350 . S
C2449 H2436 0.929 . S
C2449 C2441 1.433 . S
C2449 N2451 1.384 . S
N2450 C2446 1.427 . S
N2450 C2447 1.384 . S
N2451 C2443 1.427 . S
N2451 C2449 1.384 . S
H2452 C2458 0.930 . S
H2453 C2462 0.930 . S
H2454 C2467 0.929 . S
H2455 C2465 0.929 . S
H2456 C2460 0.929 . S
H2457 C2466 0.929 . S
C2458 H2452 0.930 . S
C2458 C2459 1.367 . S
C2458 C2466 1.378 . S
C2459 C2458 1.367 . S
C2459 C2467 1.433 . S
C2460 H2456 0.929 . S
C2460 C2462 1.378 . S
C2460 C2464 1.350 . S
C2461 C2464 1.463 . S
C2461 C2466 1.350 . S
C2461 N2469 1.427 . S
C2462 H2453 0.930 . S
C2462 C2460 1.378 . S
C2462 C2463 1.367 . S
C2463 C2462 1.367 . S
C2463 C2465 1.433 . S
C2464 C2460 1.350 . S
C2464 C2461 1.463 . S
C2464 N2468 1.427 . S
C2465 H2455 0.929 . S
C2465 C2463 1.433 . S
C2465 N2468 1.384 . S
C2466 H2457 0.929 . S
C2466 C2458 1.378 . S
C2466 C2461 1.350 . S
C2467 H2454 0.929 . S
C2467 C2459 1.433 . S
C2467 N2469 1.384 . S
N2468 C2464 1.427 . S
N2468 C2465 1.384 . S
N2469 C2461 1.427 . S
N2469 C2467 1.384 . S
H2470 C2476 0.930 . S
H2471 C2480 0.930 . S
H2472 C2485 0.929 . S
H2473 C2483 0.929 . S
H2474 C2478 0.929 . S
H2475 C2484 0.929 . S
C2476 H2470 0.930 . S
C2476 C2477 1.367 . S
C2476 C2484 1.378 . S
C2477 C2476 1.367 . S
C2477 C2485 1.433 . S
C2478 H2474 0.929 . S
C2478 C2480 1.378 . S
C2478 C2482 1.350 . S
C2479 C2482 1.463 . S
C2479 C2484 1.350 . S
C2479 N2487 1.427 . S
C2480 H2471 0.930 . S
C2480 C2478 1.378 . S
C2480 C2481 1.367 . S
C2481 C2480 1.367 . S
C2481 C2483 1.433 . S
C2482 C2478 1.350 . S
C2482 C2479 1.463 . S
C2482 N2486 1.427 . S
C2483 H2473 0.929 . S
C2483 C2481 1.433 . S
C2483 N2486 1.384 . S
C2484 H2475 0.929 . S
C2484 C2476 1.378 . S
C2484 C2479 1.350 . S
C2485 H2472 0.929 . S
C2485 C2477 1.433 . S
C2485 N2487 1.384 . S
N2486 C2482 1.427 . S
N2486 C2483 1.384 . S
N2487 C2479 1.427 . S
N2487 C2485 1.384 . S
H2488 C2494 0.930 1_554 S
H2489 C2498 0.930 . S
H2490 C2503 0.929 . S
H2491 C2501 0.929 . S
H2492 C2496 0.929 . S
H2493 C2502 0.912 1_554 S
C2494 H2488 0.930 1_556 S
C2494 C2495 1.367 . S
C2494 C2502 1.379 . S
C2495 C2494 1.367 . S
C2495 C2503 1.433 . S
C2496 H2492 0.929 . S
C2496 C2498 1.378 . S
C2496 C2500 1.350 . S
C2497 C2500 1.463 . S
C2497 C2502 1.366 . S
C2497 N2505 1.427 . S
C2498 H2489 0.930 . S
C2498 C2496 1.378 . S
C2498 C2499 1.367 . S
C2499 C2498 1.367 . S
C2499 C2501 1.433 1_556 S
C2500 C2496 1.350 . S
C2500 C2497 1.463 . S
C2500 N2504 1.427 1_556 S
C2501 H2491 0.929 . S
C2501 C2499 1.433 1_554 S
C2501 N2504 1.384 . S
C2502 H2493 0.912 1_556 S
C2502 C2494 1.379 . S
C2502 C2497 1.366 . S
C2503 H2490 0.929 . S
C2503 C2495 1.433 . S
C2503 N2505 1.384 . S
N2504 C2500 1.427 1_554 S
N2504 C2501 1.384 . S
N2505 C2497 1.427 . S
N2505 C2503 1.384 . S
H2506 C2512 0.930 . S
H2507 C2516 0.930 . S
H2508 C2521 0.929 . S
H2509 C2519 0.929 . S
H2510 C2514 0.929 . S
H2511 C2520 0.929 . S
C2512 H2506 0.930 . S
C2512 C2513 1.367 . S
C2512 C2520 1.378 . S
C2513 C2512 1.367 . S
C2513 C2521 1.433 . S
C2514 H2510 0.929 . S
C2514 C2516 1.378 . S
C2514 C2518 1.350 . S
C2515 C2518 1.463 . S
C2515 C2520 1.350 . S
C2515 N2523 1.427 . S
C2516 H2507 0.930 . S
C2516 C2514 1.378 . S
C2516 C2517 1.367 . S
C2517 C2516 1.367 . S
C2517 C2519 1.433 . S
C2518 C2514 1.350 . S
C2518 C2515 1.463 . S
C2518 N2522 1.427 . S
C2519 H2509 0.929 . S
C2519 C2517 1.433 . S
C2519 N2522 1.384 . S
C2520 H2511 0.929 . S
C2520 C2512 1.378 . S
C2520 C2515 1.350 . S
C2521 H2508 0.929 . S
C2521 C2513 1.433 . S
C2521 N2523 1.384 . S
N2522 C2518 1.427 . S
N2522 C2519 1.384 . S
N2523 C2515 1.427 . S
N2523 C2521 1.384 . S
H2524 C2530 0.930 . S
H2525 C2534 0.930 . S
H2526 C2539 0.929 1_556 S
H2527 C2537 0.929 . S
H2528 C2532 0.897 1_556 S
H2529 C2538 0.929 . S
C2530 H2524 0.930 . S
C2530 C2531 1.367 . S
C2530 C2538 1.378 . S
C2531 C2530 1.367 . S
C2531 C2539 1.433 . S
C2532 H2528 0.897 1_554 S
C2532 C2534 1.373 1_554 S
C2532 C2536 1.388 . S
C2533 C2536 1.463 . S
C2533 C2538 1.350 . S
C2533 N2541 1.427 . S
C2534 H2525 0.930 . S
C2534 C2532 1.373 1_556 S
C2534 C2535 1.367 1_556 S
C2535 C2534 1.367 1_554 S
C2535 C2537 1.433 . S
C2536 C2532 1.388 . S
C2536 C2533 1.463 . S
C2536 N2540 1.427 . S
C2537 H2527 0.929 . S
C2537 C2535 1.433 . S
C2537 N2540 1.384 . S
C2538 H2529 0.929 . S
C2538 C2530 1.378 . S
C2538 C2533 1.350 . S
C2539 H2526 0.929 1_554 S
C2539 C2531 1.433 . S
C2539 N2541 1.384 . S
N2540 C2536 1.427 . S
N2540 C2537 1.384 . S
N2541 C2533 1.427 . S
N2541 C2539 1.384 . S
H2542 C2548 0.930 . S
H2543 C2552 0.930 1_556 S
H2544 C2557 0.929 1_556 S
H2545 C2555 0.929 . S
H2546 C2550 0.929 1_556 S
H2547 C2556 0.929 . S
C2548 H2542 0.930 . S
C2548 C2549 1.367 . S
C2548 C2556 1.378 . S
C2549 C2548 1.367 . S
C2549 C2557 1.433 . S
C2550 H2546 0.929 1_554 S
C2550 C2552 1.378 . S
C2550 C2554 1.350 . S
C2551 C2554 1.463 . S
C2551 C2556 1.350 . S
C2551 N2559 1.427 . S
C2552 H2543 0.930 1_554 S
C2552 C2550 1.378 . S
C2552 C2553 1.367 . S
C2553 C2552 1.367 . S
C2553 C2555 1.433 . S
C2554 C2550 1.350 . S
C2554 C2551 1.463 . S
C2554 N2558 1.427 . S
C2555 H2545 0.929 . S
C2555 C2553 1.433 . S
C2555 N2558 1.384 . S
C2556 H2547 0.929 . S
C2556 C2548 1.378 . S
C2556 C2551 1.350 . S
C2557 H2544 0.929 1_554 S
C2557 C2549 1.433 . S
C2557 N2559 1.384 . S
N2558 C2554 1.427 . S
N2558 C2555 1.384 . S
N2559 C2551 1.427 . S
N2559 C2557 1.384 . S
C1707 C689 1.493 . S
C1703 C202 1.472 . S
C1725 C748 1.544 . S
C1721 C261 1.540 . S
C1739 C282 1.518 . S
C1743 C865 1.528 . S
C1761 C933 1.525 . S
C1757 C162 1.522 . S
C1779 C1012 1.493 . S
C1775 C402 1.468 . S
C1797 C1137 1.525 . S
C1793 C482 1.522 . S
C1811 C442 1.515 . S
C1815 C1197 1.523 . S
C1833 C1305 1.543 . S
C1829 C381 1.542 . S
C1847 C461 1.562 . S
C1851 C1401 1.560 . S
C1869 C1461 1.494 . S
C1865 C362 1.491 . S
C1883 C415 1.460 . S
C1887 C1364 1.462 . S
C1905 C1481 1.545 . S
C1901 C495 1.545 . S
C1919 C301 1.562 . S
C1923 C1549 1.561 . S
C1937 C175 1.544 . S
C1941 C1540 1.545 . S
C1955 C215 1.462 . S
C1959 C1569 1.463 . S
C1973 C242 1.488 . S
C1977 C1577 1.496 . S
C1991 C141 1.528 . S
C1995 C961 1.552 . S
C2009 C581 1.534 . S
C2013 C924 1.554 . S
C2031 C660 1.466 . S
C2027 C615 1.466 . S
C2049 C757 1.496 . S
C2045 C335 1.495 . S
C2063 C181 1.585 . S
C2067 C1021 1.586 . S
C2085 C1313 1.497 . S
C2081 C455 1.497 . S
C2103 C1041 1.464 . S
C2099 C375 1.463 . S
C2121 C1225 1.586 . S
C2117 C501 1.583 . S
C2139 C1217 1.492 . S
C2135 C562 1.467 . S
C2153 C621 1.540 . S
C2157 C1285 1.543 . S
C2171 C322 1.514 . S
C2175 C1049 1.521 . S
C2193 C1100 1.526 . S
C2189 C522 1.517 . S
C2207 C122 1.470 . S
C2211 C845 1.485 . S
C2229 C953 1.526 . S
C2225 C2 1.517 . S
C2247 C669 1.522 . S
C2243 C42 1.518 . S
C2265 C785 1.542 . S
C2261 C101 1.543 . S
C2279 C61 1.561 . S
C2283 C1489 1.560 . S
C2297 C82 1.491 . S
C2301 C1373 1.494 . S
C2315 C135 1.461 . S
C2319 C1452 1.462 . S
C2333 C15 1.543 . S
C2337 C1393 1.544 . S
C2355 C1637 1.561 . S
C2351 C341 1.560 . S
C2373 C1628 1.546 . S
C2369 C535 1.546 . S
C2391 C1657 1.461 . S
C2387 C575 1.458 . S
C2405 C602 1.490 . S
C2409 C1665 1.494 . S
C2423 C421 1.535 . S
C2427 C1129 1.554 . S
C2445 C1109 1.553 . S
C2441 C221 1.529 . S
C2463 C1188 1.466 . S
C2459 C255 1.466 . S
C2481 C1276 1.498 . S
C2477 C295 1.498 . S
C2495 C541 1.583 . S
C2499 C836 1.587 . S
C2517 C777 1.498 . S
C2513 C55 1.498 . S
C2531 C95 1.464 . S
C2535 C873 1.465 . S
C2553 C697 1.585 . S
C2549 C21 1.584 . S
