# Generated by pormake.
# Topology pts, (4,4)-cn, num edge types: 1
# Building blocks:
#     Node 0, Type 0, BuildingBlock: KOZSID_clean_sbu_0, # of connection points: 4
#     Node 1, Type 0, BuildingBlock: KOZSID_clean_sbu_0, # of connection points: 4
#     Node 2, Type 1, BuildingBlock: QUQFOY_clean_sbu_1, # of connection points: 4
#     Node 3, Type 1, BuildingBlock: QUQFOY_clean_sbu_1, # of connection points: 4
#     Edge 4, Type (0, 1), BuildingBlock: FUNLAD_clean_linker_1, # of connection points: 2
#     Edge 5, Type (0, 1), BuildingBlock: FUNLAD_clean_linker_1, # of connection points: 2
#     Edge 6, Type (0, 1), BuildingBlock: FUNLAD_clean_linker_1, # of connection points: 2
#     Edge 7, Type (0, 1), BuildingBlock: FUNLAD_clean_linker_1, # of connection points: 2
#     Edge 8, Type (0, 1), BuildingBlock: FUNLAD_clean_linker_1, # of connection points: 2
#     Edge 9, Type (0, 1), BuildingBlock: FUNLAD_clean_linker_1, # of connection points: 2
#     Edge 10, Type (0, 1), BuildingBlock: FUNLAD_clean_linker_1, # of connection points: 2
#     Edge 11, Type (0, 1), BuildingBlock: FUNLAD_clean_linker_1, # of connection points: 2
# Relax obj value: 0.094
# Max RMSD: 0.254
# Mean RMSD: 0.145
data_MOF--net-pts--node1-KOZSID_clean_sbu_0--node2-QUQFOY_clean_sbu_1--edge1-FUNLAD_clean_linker_1
_symmetry_space_group_name_H-M    P1
_symmetry_Int_Tables_number       1
_symmetry_cell_setting            triclinic
loop_
_symmetry_equiv_pos_as_xyz
'x, y, z'
_cell_length_a     26.295265
_cell_length_b     29.280731
_cell_length_c     43.229638
_cell_angle_alpha  86.426392
_cell_angle_beta   94.097593
_cell_angle_gamma 90.13696
loop_
_atom_site_label
_atom_site_type_symbol
_atom_site_fract_x
_atom_site_fract_y
_atom_site_fract_z
_atom_type_partial_charge
C0 C 0.63478 0.09602 0.06276 0.0
C1 C 0.6648 0.13401 0.06979 0.0
C2 C 0.65327 0.16781 0.04727 0.0
C3 C 0.61785 0.14912 0.02723 0.0
N4 N 0.60559 0.10565 0.03578 0.0
Co5 Co 0.56145 0.0657 0.00952 0.0
N6 N 0.53064 0.11892 0.98414 0.0
C7 C 0.55153 0.1608 0.98145 0.0
C8 C 0.52449 0.19036 0.96073 0.0
C9 C 0.48402 0.16547 0.94938 0.0
C10 C 0.48849 0.12172 0.96403 0.0
N11 N 0.51766 0.02591 0.98309 0.0
C12 C 0.47692 0.03641 0.96276 0.0
C13 C 0.46421 0.99902 0.9453 0.0
C14 C 0.49596 0.96387 0.95624 0.0
C15 C 0.52744 0.98174 0.97895 0.0
N16 N 0.59266 0.01229 0.03446 0.0
C17 C 0.59082 0.96874 0.02602 0.0
C18 C 0.61447 0.93831 0.04761 0.0
C19 C 0.63345 0.96425 0.07092 0.0
C20 C 0.62127 0.00978 0.06198 0.0
N21 N 0.50777 0.06861 0.03843 0.0
C22 C 0.42975 0.07385 0.0793 0.0
C23 C 0.44345 0.03174 0.06823 0.0
C24 C 0.48253 0.02994 0.04792 0.0
C25 C 0.4562 0.11302 0.06929 0.0
C26 C 0.49487 0.10974 0.04897 0.0
N27 N 0.61529 0.06307 0.98043 0.0
C28 C 0.70426 0.05828 0.97108 0.0
C29 C 0.69285 0.06433 0.93898 0.0
C30 C 0.64152 0.06925 0.92801 0.0
C31 C 0.60351 0.06839 0.94905 0.0
C32 C 0.66514 0.05744 0.99133 0.0
H33 H 0.56459 0.07288 0.93983 0.0
H34 H 0.67553 0.05287 0.01585 0.0
H35 H 0.49212 0.99724 0.03969 0.0
H36 H 0.51422 0.14062 0.04165 0.0
C37 C 0.5928 0.17238 1.00142 0.0
C38 C 0.64158 0.04953 0.07864 0.0
C39 C 0.45471 0.08284 0.95671 0.0
C40 C 0.56209 0.95703 0.99932 0.0
H41 H 0.69459 0.13746 0.08789 0.0
H42 H 0.66949 0.20181 0.0455 0.0
H43 H 0.53265 0.22599 0.95493 0.0
H44 H 0.45561 0.17841 0.93175 0.0
H45 H 0.43654 0.99704 0.92577 0.0
H46 H 0.49591 0.92937 0.94858 0.0
H47 H 0.6167 0.90149 0.04687 0.0
H48 H 0.65437 0.95049 0.09184 0.0
H49 H 0.42431 1.00027 0.07469 0.0
H50 H 0.44694 0.14628 0.07706 0.0
H51 H 0.74339 0.05443 0.98058 0.0
H52 H 0.63038 0.07505 0.90352 0.0
C53 C 0.11593 0.49802 0.55943 0.0
C54 C 0.16381 0.48876 0.57432 0.0
C55 C 0.19738 0.51739 0.56037 0.0
C56 C 0.16834 0.54295 0.53818 0.0
N57 N 0.11798 0.53319 0.53751 0.0
Co58 Co 0.06278 0.56237 0.50848 0.0
N59 N 0.11325 0.59952 0.48477 0.0
C60 C 0.16462 0.59733 0.48963 0.0
C61 C 0.18997 0.62417 0.46882 0.0
C62 C 0.15268 0.64557 0.44982 0.0
C63 C 0.10617 0.63173 0.46073 0.0
N64 N 0.00756 0.59179 0.47937 0.0
C65 C 0.00995 0.62407 0.45542 0.0
C66 C 0.96132 0.63463 0.44185 0.0
C67 C 0.92765 0.60882 0.45778 0.0
C68 C 0.95694 0.58408 0.48016 0.0
N69 N 0.01239 0.52471 0.53218 0.0
C70 C 0.96115 0.52547 0.5264 0.0
C71 C 0.93603 0.49363 0.54391 0.0
C72 C 0.97327 0.47033 0.5617 0.0
C73 C 0.01975 0.48991 0.55459 0.0
N74 N 0.05718 0.61316 0.53682 0.0
C75 C 0.04946 0.68723 0.57542 0.0
C76 C 0.00637 0.66279 0.56531 0.0
C77 C 0.01094 0.62642 0.54609 0.0
C78 C 0.0967 0.67332 0.56628 0.0
C79 C 0.09958 0.63669 0.54717 0.0
N80 N 0.06855 0.51158 0.48023 0.0
C81 C 0.02936 0.45339 0.44883 0.0
C82 C 0.07709 0.43509 0.44398 0.0
C83 C 0.12024 0.4562 0.45724 0.0
C84 C 0.11525 0.49421 0.47483 0.0
C85 C 0.02606 0.49131 0.46685 0.0
H86 H 0.14981 0.5084 0.48428 0.0
H87 H 0.98863 0.50303 0.47014 0.0
H88 H 0.97646 0.60975 0.53894 0.0
H89 H 0.13669 0.62819 0.54108 0.0
C90 C 0.18795 0.57179 0.51505 0.0
C91 C 0.07016 0.47189 0.56692 0.0
C92 C 0.05632 0.64897 0.44704 0.0
C93 C 0.93792 0.5534 0.50229 0.0
H94 H 0.17374 0.46316 0.5929 0.0
H95 H 0.23838 0.51808 0.56496 0.0
H96 H 0.23077 0.62802 0.46772 0.0
H97 H 0.15966 0.66859 0.43013 0.0
H98 H 0.95022 0.65929 0.42297 0.0
H99 H 0.88652 0.60872 0.45384 0.0
H100 H 0.89556 0.48645 0.54264 0.0
H101 H 0.96561 0.44084 0.57669 0.0
H102 H 0.96898 0.67196 0.57201 0.0
H103 H 0.13174 0.68978 0.5741 0.0
H104 H 0.99446 0.43795 0.43972 0.0
H105 H 0.15801 0.44326 0.45415 0.0
O106 O 0.97276 0.02753 0.24478 0.0
Cd107 Cd 0.04435 0.01012 0.26578 0.0
Cd108 Cd 0.05753 0.10916 0.2593 0.0
O109 O 0.98562 0.10202 0.23733 0.0
O110 O 0.03943 0.94395 0.28051 0.0
O111 O 0.05749 0.99886 0.31234 0.0
C112 C 0.05052 0.95588 0.30839 0.0
C113 C 0.06609 0.17176 0.2909 0.0
C114 C 0.9574 0.06707 0.23424 0.0
C115 C 0.13192 0.04917 0.22951 0.0
O116 O 0.11983 0.08929 0.23623 0.0
O117 O 0.10643 0.01445 0.23855 0.0
O118 O 0.06404 0.17714 0.26107 0.0
O119 O 0.06464 0.1305 0.30325 0.0
O120 O 0.99193 0.10437 0.77743 0.0
Cd121 Cd 0.06096 0.12245 0.76009 0.0
Cd122 Cd 0.06234 0.02417 0.75131 0.0
O123 O 0.992 0.0304 0.76941 0.0
O124 O 0.0596 0.19103 0.75672 0.0
O125 O 0.06594 0.14982 0.71607 0.0
C126 C 0.06326 0.18957 0.72727 0.0
C127 C 0.06612 0.97367 0.71116 0.0
C128 C 0.97093 0.0652 0.77922 0.0
C129 C 0.14534 0.06508 0.79442 0.0
O130 O 0.12686 0.03017 0.78154 0.0
O131 O 0.12528 0.10449 0.78861 0.0
O132 O 0.06274 0.95886 0.73962 0.0
O133 O 0.06797 0.01738 0.70528 0.0
H134 H 0.37834 0.11377 0.10591 0.0
C135 C 0.38802 0.07914 0.10061 0.0
H136 H 0.37095 0.00911 0.11055 0.0
H137 H 0.27226 0.03941 0.23668 0.0
H138 H 0.35133 1.0014 0.25535 0.0
H139 H 0.41726 0.98647 0.21942 0.0
H140 H 0.40465 0.0097 0.16459 0.0
C141 C 0.36159 0.04443 0.11375 0.0
C142 C 0.32087 0.05295 0.13521 0.0
C143 C 0.3283 0.03841 0.16715 0.0
C144 C 0.28988 0.04647 0.18785 0.0
C145 C 0.29939 0.03308 0.21978 0.0
C146 C 0.34482 0.01149 0.23087 0.0
C147 C 0.38197 1.00313 0.21064 0.0
C148 C 0.37413 0.01653 0.17918 0.0
H149 H 0.18467 0.0071 0.20557 0.0
C150 C 0.17543 0.04203 0.21033 0.0
H151 H 0.19262 0.11188 0.20136 0.0
H152 H 0.29175 0.08137 0.07494 0.0
H153 H 0.21282 0.11952 0.05631 0.0
H154 H 0.14721 0.13503 0.09232 0.0
H155 H 0.15997 0.11208 0.14717 0.0
C156 C 0.20264 0.07668 0.19789 0.0
C157 C 0.24357 0.06844 0.17652 0.0
C158 C 0.23617 0.08304 0.14459 0.0
C159 C 0.2745 0.07484 0.12387 0.0
C160 C 0.26482 0.08797 0.09189 0.0
C161 C 0.21944 0.10962 0.08081 0.0
C162 C 0.18247 0.11829 0.10108 0.0
C163 C 0.19039 0.10505 0.13256 0.0
H164 H 0.11118 0.40889 0.5799 0.0
C165 C 0.07707 0.42835 0.58326 0.0
H166 H 0.02016 0.43316 0.61675 0.0
H167 H 0.00263 0.21479 0.63602 0.0
H168 H 0.94136 0.22448 0.59151 0.0
H169 H 0.93347 0.29814 0.5606 0.0
H170 H 0.9866 0.3627 0.57424 0.0
C171 C 0.04766 0.41139 0.60725 0.0
C172 C 0.05759 0.36535 0.62337 0.0
C173 C 0.02753 0.32739 0.61461 0.0
C174 C 0.033 0.28452 0.63206 0.0
C175 C 1.0009 0.24785 0.62337 0.0
C176 C 0.96541 0.25296 0.59787 0.0
C177 C 0.96088 0.29446 0.58051 0.0
C178 C 0.99143 0.33134 0.58868 0.0
H179 H 0.05528 0.26421 0.71843 0.0
C180 C 0.06323 0.23276 0.70754 0.0
H181 H 0.07961 0.20365 0.66598 0.0
H182 H 0.12295 0.43039 0.64538 0.0
H183 H 0.18914 0.41945 0.68725 0.0
H184 H 0.20299 0.3439 0.71511 0.0
H185 H 0.15025 0.27905 0.70167 0.0
C186 C 0.07258 0.23491 0.67728 0.0
C187 C 0.0694 0.27929 0.65793 0.0
C188 C 0.10195 0.31653 0.66531 0.0
C189 C 0.09525 0.35978 0.64845 0.0
C190 C 0.12691 0.39672 0.6571 0.0
C191 C 0.16508 0.3909 0.68107 0.0
C192 C 0.17279 0.34839 0.6968 0.0
C193 C 0.14187 0.31151 0.68905 0.0
H194 H 0.69778 0.0084 0.10712 0.0
C195 C 0.67767 0.0408 0.10458 0.0
H196 H 0.66767 0.10025 0.13088 0.0
H197 H 0.80694 0.03169 0.25008 0.0
H198 H 0.72315 0.0312 0.27036 0.0
H199 H 0.64572 0.04476 0.23532 0.0
H200 H 0.65148 0.05908 0.17978 0.0
C201 C 0.69167 0.07107 0.12758 0.0
C202 C 0.73866 0.06273 0.14883 0.0
C203 C 0.73471 0.05436 0.18124 0.0
C204 C 0.77941 0.04607 0.20147 0.0
C205 C 0.77424 0.03794 0.23371 0.0
C206 C 0.7264 0.03757 0.24565 0.0
C207 C 0.6828 0.04524 0.22591 0.0
C208 C 0.68665 0.05352 0.19408 0.0
H209 H 0.89799 0.10733 0.2062 0.0
C210 C 0.90745 0.07324 0.21639 0.0
H211 H 0.88292 1.00442 0.22094 0.0
H212 H 0.76156 0.0818 0.08822 0.0
H213 H 0.84473 0.07975 0.06809 0.0
H214 H 0.92128 0.06072 0.10278 0.0
H215 H 0.91487 0.04439 0.15796 0.0
C216 C 0.87506 0.03868 0.21062 0.0
C217 C 0.82809 0.04628 0.18934 0.0
C218 C 0.83209 0.05403 0.15687 0.0
C219 C 0.78757 0.06312 0.13668 0.0
C220 C 0.79342 0.07306 0.10461 0.0
C221 C 0.84119 0.07227 0.09268 0.0
C222 C 0.88428 0.06171 0.11221 0.0
C223 C 0.88003 0.05265 0.14392 0.0
H224 H 0.00958 0.72643 0.6088 0.0
C225 C 0.04394 0.72547 0.59626 0.0
H226 H 0.11307 0.75975 0.58766 0.0
H227 H 0.98344 0.9195 0.65224 0.0
H228 H 0.92622 0.92 0.60574 0.0
H229 H 0.93676 0.86449 0.56603 0.0
H230 H 0.00402 0.80749 0.57291 0.0
C231 C 0.07859 0.75909 0.60002 0.0
C232 C 0.07344 0.7947 0.62295 0.0
C233 C 0.03516 0.82901 0.61804 0.0
C234 C 0.03053 0.86243 0.64033 0.0
C235 C 0.9901 0.89452 0.63558 0.0
C236 C 0.95671 0.89502 0.60905 0.0
C237 C 0.96254 0.86366 0.58674 0.0
C238 C 1.00119 0.83096 0.59106 0.0
H239 H 0.07584 0.95531 0.66293 0.0
C240 C 0.06806 0.9416 0.68605 0.0
H241 H 0.05364 0.88251 0.71449 0.0
H242 H 0.1511 0.73404 0.63954 0.0
H243 H 0.21037 0.73509 0.68508 0.0
H244 H 0.20471 0.79475 0.72253 0.0
H245 H 0.13963 0.85359 0.71478 0.0
C246 C 0.06041 0.8963 0.69122 0.0
C247 C 0.06554 0.86269 0.66693 0.0
C248 C 0.10435 0.82881 0.67149 0.0
C249 C 0.10817 0.79481 0.64959 0.0
C250 C 0.14682 0.76104 0.65515 0.0
C251 C 0.18107 0.76115 0.68125 0.0
C252 C 0.17784 0.79469 0.70236 0.0
C253 C 0.1401 0.82821 0.69765 0.0
H254 H 0.39848 0.12537 0.92923 0.0
C255 C 0.40714 0.09133 0.93942 0.0
H256 H 0.36823 0.02684 0.94791 0.0
H257 H 0.15443 0.09279 0.88419 0.0
H258 H 0.13661 0.09003 0.93857 0.0
H259 H 0.20574 0.07721 0.97986 0.0
H260 H 0.29318 0.0669 0.96702 0.0
C261 C 0.36892 0.05879 0.93381 0.0
C262 C 0.32737 0.06773 0.90877 0.0
C263 C 0.2765 0.07366 0.91658 0.0
C264 C 0.2367 0.08157 0.89272 0.0
C265 C 0.18621 0.08716 0.90131 0.0
C266 C 0.17542 0.08556 0.93245 0.0
C267 C 0.21433 0.07829 0.9557 0.0
C268 C 0.26434 0.07235 0.94801 0.0
H269 H 0.20847 0.02562 0.81985 0.0
C270 C 0.1897 0.05882 0.81737 0.0
H271 H 0.18568 0.12424 0.83511 0.0
H272 H 0.42035 0.05544 0.88518 0.0
H273 H 0.43841 0.06045 0.83105 0.0
H274 H 0.37006 0.07757 0.78991 0.0
H275 H 0.28306 0.08914 0.80279 0.0
C276 C 0.20571 0.0917 0.83619 0.0
C277 C 0.24775 0.08337 0.86101 0.0
C278 C 0.29878 0.07801 0.85316 0.0
C279 C 0.3385 0.06962 0.87701 0.0
C280 C 0.38876 0.06289 0.8683 0.0
C281 C 0.39973 0.06558 0.8372 0.0
C282 C 0.36124 0.0751 0.81404 0.0
C283 C 0.31135 0.08139 0.82178 0.0
H284 H 0.11886 0.37397 0.43159 0.0
C285 C 0.08351 0.39315 0.42673 0.0
H286 H 0.01356 0.39692 0.39929 0.0
H287 H 0.15588 0.25205 0.3279 0.0
H288 H 0.21357 0.3157 0.31993 0.0
H289 H 0.19853 0.38975 0.34199 0.0
H290 H 0.12663 0.40017 0.37286 0.0
C291 C 0.04908 0.37848 0.40496 0.0
C292 C 0.05654 0.3351 0.38922 0.0
C293 C 0.09727 0.33038 0.36975 0.0
C294 C 0.10406 0.28857 0.35528 0.0
C295 C 0.14726 0.28377 0.33797 0.0
C296 C 0.18098 0.31992 0.33344 0.0
C297 C 0.17265 0.36153 0.34598 0.0
C298 C 0.13137 0.36692 0.3639 0.0
H299 H 0.06458 0.2458 0.29698 0.0
C300 C 0.06784 0.21249 0.30956 0.0
H301 H 0.07353 0.17718 0.35368 0.0
H302 H 0.97567 0.33173 0.42579 0.0
H303 H 0.91582 0.26931 0.43182 0.0
H304 H 0.92423 0.19897 0.40405 0.0
H305 H 0.99282 0.19036 0.37035 0.0
C306 C 0.0717 0.2103 0.34083 0.0
C307 C 0.06812 0.25255 0.35846 0.0
C308 C 0.02737 0.25734 0.37787 0.0
C309 C 0.02183 0.2984 0.3934 0.0
C310 C 0.98125 0.30173 0.41302 0.0
C311 C 0.94663 0.26609 0.41677 0.0
C312 C 0.95142 0.22646 0.40117 0.0
C313 C 0.99113 0.22196 0.38192 0.0
H314 H 0.77337 0.07457 0.92853 0.0
C315 C 0.73554 0.06734 0.91811 0.0
H316 H 0.69368 0.05313 0.87604 0.0
H317 H 0.84684 0.15205 0.78806 0.0
H318 H 0.77281 0.20167 0.77953 0.0
H319 H 0.6991 0.19036 0.81138 0.0
H320 H 0.69876 0.12916 0.85181 0.0
C321 C 0.73049 0.06078 0.88747 0.0
C322 C 0.77471 0.06644 0.86777 0.0
C323 C 0.77442 0.10251 0.84428 0.0
C324 C 0.81731 0.1095 0.82624 0.0
C325 C 0.81565 0.14554 0.80274 0.0
C326 C 0.77333 0.17424 0.79754 0.0
C327 C 0.73181 0.16784 0.81545 0.0
C328 C 0.73211 0.13249 0.83857 0.0
H329 H 0.90317 0.02627 0.79289 0.0
C330 C 0.92297 0.05873 0.79478 0.0
H331 H 0.92548 0.12214 0.81559 0.0
H332 H 0.78473 0.98973 0.90742 0.0
H333 H 0.86023 0.9424 0.91787 0.0
H334 H 0.93791 0.95932 0.8905 0.0
H335 H 0.94006 0.02278 0.852 0.0
C336 C 0.90613 0.08952 0.81353 0.0
C337 C 0.8607 0.08071 0.83185 0.0
C338 C 0.86116 0.04478 0.85556 0.0
C339 C 0.81749 0.03675 0.87279 0.0
C340 C 0.81769 0.99877 0.89476 0.0
C341 C 0.86067 0.97109 0.90084 0.0
C342 C 0.9043 0.98048 0.88533 0.0
C343 C 0.90482 0.01687 0.86301 0.0
H344 H 0.01929 0.69024 0.40836 0.0
C345 C 0.0517 0.6877 0.4253 0.0
H346 H 0.11158 0.73054 0.44496 0.0
H347 H 0.09976 0.82764 0.30307 0.0
H348 H 0.14751 0.76119 0.2911 0.0
H349 H 0.16153 0.69582 0.32955 0.0
H350 H 0.1282 0.69679 0.38031 0.0
C351 C 0.0833 0.72643 0.4258 0.0
C352 C 0.0739 0.76574 0.40234 0.0
C353 C 0.09254 0.76438 0.37245 0.0
C354 C 0.08346 0.80177 0.35004 0.0
C355 C 0.10426 0.7999 0.32077 0.0
C356 C 0.13205 0.762 0.31361 0.0
C357 C 0.14002 0.72524 0.33527 0.0
C358 C 0.12069 0.72627 0.36437 0.0
H359 H 0.07557 0.93158 0.35665 0.0
C360 C 0.05719 0.92122 0.33489 0.0
H361 H 0.02468 0.86727 0.31031 0.0
H362 H 0.03383 0.77962 0.45752 0.0
H363 H 0.98213 0.84416 0.469 0.0
H364 H 0.96092 0.90641 0.42911 0.0
H365 H 0.99185 0.90502 0.37776 0.0
C366 C 0.04243 0.87741 0.33231 0.0
C367 C 0.05444 0.84017 0.35715 0.0
C368 C 0.03487 0.84105 0.38694 0.0
C369 C 0.04564 0.80428 0.40971 0.0
C370 C 0.02643 0.8064 0.43936 0.0
C371 C 0.99663 0.84317 0.44623 0.0
C372 C 0.98479 0.87828 0.42379 0.0
C373 C 0.00329 0.87728 0.39443 0.0
loop_
_geom_bond_atom_site_label_1
_geom_bond_atom_site_label_2
_geom_bond_distance
_geom_bond_site_symmetry_2
_ccdc_geom_bond_type
C0 C1 1.443 . S
C0 N4 1.376 . S
C0 C38 1.389 . S
C1 C0 1.443 . S
C1 C2 1.340 . S
C1 H41 0.951 . S
C2 C1 1.340 . S
C2 C3 1.439 . S
C2 H42 0.950 . S
C3 C2 1.439 . S
C3 N4 1.374 . S
C3 C37 1.395 1_554 S
N4 C0 1.376 . S
N4 C3 1.374 . S
N4 Co5 2.008 . S
Co5 N4 2.008 . S
Co5 N6 1.995 1_554 S
Co5 N11 2.008 1_554 S
Co5 N16 1.995 . S
Co5 N21 2.282 . S
Co5 N27 2.282 1_554 S
N6 Co5 1.995 1_556 S
N6 C7 1.376 . S
N6 C10 1.383 . S
C7 N6 1.376 . S
C7 C8 1.446 . S
C7 C37 1.391 . S
C8 C7 1.446 . S
C8 C9 1.339 . S
C8 H43 0.949 . S
C9 C8 1.339 . S
C9 C10 1.439 . S
C9 H44 0.950 . S
C10 N6 1.383 . S
C10 C9 1.439 . S
C10 C39 1.392 . S
N11 Co5 2.008 1_556 S
N11 C12 1.376 . S
N11 C15 1.374 1_545 S
C12 N11 1.376 . S
C12 C13 1.443 1_545 S
C12 C39 1.389 . S
C13 C12 1.443 1_565 S
C13 C14 1.340 . S
C13 H45 0.951 . S
C14 C13 1.340 . S
C14 C15 1.439 . S
C14 H46 0.950 . S
C15 N11 1.374 1_565 S
C15 C14 1.439 . S
C15 C40 1.395 1_556 S
N16 Co5 1.995 . S
N16 C17 1.376 1_545 S
N16 C20 1.383 . S
C17 N16 1.376 1_565 S
C17 C18 1.446 . S
C17 C40 1.391 . S
C18 C17 1.446 . S
C18 C19 1.339 . S
C18 H47 0.949 . S
C19 C18 1.339 . S
C19 C20 1.439 1_565 S
C19 H48 0.950 . S
C20 N16 1.383 . S
C20 C19 1.439 1_545 S
C20 C38 1.392 . S
N21 Co5 2.282 . S
N21 C24 1.332 . S
N21 C26 1.332 . S
C22 C23 1.386 . S
C22 C25 1.388 . S
C23 C22 1.386 . S
C23 C24 1.382 . S
C23 H49 0.961 . S
C24 N21 1.332 . S
C24 C23 1.382 . S
C24 H35 0.952 . S
C25 C22 1.388 . S
C25 C26 1.382 . S
C25 H50 0.950 . S
C26 N21 1.332 . S
C26 C25 1.382 . S
C26 H36 0.948 . S
N27 Co5 2.282 1_556 S
N27 C31 1.332 . S
N27 C32 1.332 . S
C28 C29 1.388 . S
C28 C32 1.382 . S
C28 H51 0.950 . S
C29 C28 1.388 . S
C29 C30 1.386 . S
C30 C29 1.386 . S
C30 C31 1.382 . S
C30 H52 0.950 . S
C31 N27 1.332 . S
C31 C30 1.382 . S
C31 H33 0.952 . S
C32 N27 1.332 . S
C32 C28 1.382 . S
C32 H34 0.948 . S
H33 C31 0.952 . S
H34 C32 0.948 . S
H35 C24 0.952 . S
H36 C26 0.948 . S
C37 C3 1.395 1_556 S
C37 C7 1.391 . S
C38 C0 1.389 . S
C38 C20 1.392 . S
C39 C10 1.392 . S
C39 C12 1.389 . S
C40 C15 1.395 1_554 S
C40 C17 1.391 . S
H41 C1 0.951 . S
H42 C2 0.950 . S
H43 C8 0.949 . S
H44 C9 0.950 . S
H45 C13 0.951 . S
H46 C14 0.950 . S
H47 C18 0.949 . S
H48 C19 0.950 . S
H49 C23 0.961 . S
H50 C25 0.950 . S
H51 C28 0.950 . S
H52 C30 0.950 . S
C53 C54 1.443 . S
C53 N57 1.376 . S
C53 C91 1.389 . S
C54 C53 1.443 . S
C54 C55 1.340 . S
C54 H94 0.951 . S
C55 C54 1.340 . S
C55 C56 1.439 . S
C55 H95 0.950 . S
C56 C55 1.439 . S
C56 N57 1.374 . S
C56 C90 1.395 . S
N57 C53 1.376 . S
N57 C56 1.374 . S
N57 Co58 2.008 . S
Co58 N57 2.008 . S
Co58 N59 1.995 . S
Co58 N64 2.008 . S
Co58 N69 1.995 . S
Co58 N74 2.282 . S
Co58 N80 2.282 . S
N59 Co58 1.995 . S
N59 C60 1.376 . S
N59 C63 1.383 . S
C60 N59 1.376 . S
C60 C61 1.446 . S
C60 C90 1.391 . S
C61 C60 1.446 . S
C61 C62 1.339 . S
C61 H96 0.949 . S
C62 C61 1.339 . S
C62 C63 1.439 . S
C62 H97 0.950 . S
C63 N59 1.383 . S
C63 C62 1.439 . S
C63 C92 1.392 . S
N64 Co58 2.008 . S
N64 C65 1.376 . S
N64 C68 1.374 1_455 S
C65 N64 1.376 . S
C65 C66 1.443 1_455 S
C65 C92 1.389 . S
C66 C65 1.443 1_655 S
C66 C67 1.340 . S
C66 H98 0.951 . S
C67 C66 1.340 . S
C67 C68 1.439 . S
C67 H99 0.950 . S
C68 N64 1.374 1_655 S
C68 C67 1.439 . S
C68 C93 1.395 . S
N69 Co58 1.995 . S
N69 C70 1.376 1_455 S
N69 C73 1.383 . S
C70 N69 1.376 1_655 S
C70 C71 1.446 . S
C70 C93 1.391 . S
C71 C70 1.446 . S
C71 C72 1.339 . S
C71 H100 0.949 . S
C72 C71 1.339 . S
C72 C73 1.439 1_655 S
C72 H101 0.950 . S
C73 N69 1.383 . S
C73 C72 1.439 1_455 S
C73 C91 1.392 . S
N74 Co58 2.282 . S
N74 C77 1.332 . S
N74 C79 1.332 . S
C75 C76 1.386 . S
C75 C78 1.388 . S
C76 C75 1.386 . S
C76 C77 1.382 . S
C76 H102 0.950 1_455 S
C77 N74 1.332 . S
C77 C76 1.382 . S
C77 H88 0.952 1_455 S
C78 C75 1.388 . S
C78 C79 1.382 . S
C78 H103 0.950 . S
C79 N74 1.332 . S
C79 C78 1.382 . S
C79 H89 0.948 . S
N80 Co58 2.282 . S
N80 C84 1.332 . S
N80 C85 1.332 . S
C81 C82 1.388 . S
C81 C85 1.382 . S
C81 H104 0.950 1_455 S
C82 C81 1.388 . S
C82 C83 1.386 . S
C83 C82 1.386 . S
C83 C84 1.382 . S
C83 H105 0.950 . S
C84 N80 1.332 . S
C84 C83 1.382 . S
C84 H86 0.952 . S
C85 N80 1.332 . S
C85 C81 1.382 . S
C85 H87 0.948 1_455 S
H86 C84 0.952 . S
H87 C85 0.948 1_655 S
H88 C77 0.952 1_655 S
H89 C79 0.948 . S
C90 C56 1.395 . S
C90 C60 1.391 . S
C91 C53 1.389 . S
C91 C73 1.392 . S
C92 C63 1.392 . S
C92 C65 1.389 . S
C93 C68 1.395 . S
C93 C70 1.391 . S
H94 C54 0.951 . S
H95 C55 0.950 . S
H96 C61 0.949 . S
H97 C62 0.950 . S
H98 C66 0.951 . S
H99 C67 0.950 . S
H100 C71 0.949 . S
H101 C72 0.950 . S
H102 C76 0.950 1_655 S
H103 C78 0.950 . S
H104 C81 0.950 1_655 S
H105 C83 0.950 . S
O106 Cd107 2.223 . S
O106 C114 1.315 1_465 S
Cd107 O106 2.223 . S
Cd107 O110 2.297 . S
Cd107 O111 2.439 . S
Cd107 O117 2.240 1_565 S
Cd108 O109 2.240 1_455 S
Cd108 O116 2.223 . S
Cd108 O118 2.297 . S
Cd108 O119 2.439 . S
O109 Cd108 2.240 1_655 S
O109 C114 1.279 . S
O110 Cd107 2.297 . S
O110 C112 1.247 . S
O111 Cd107 2.439 . S
O111 C112 1.208 . S
C112 O110 1.247 . S
C112 O111 1.208 . S
C113 O118 1.247 . S
C113 O119 1.208 . S
C114 O106 1.315 1_645 S
C114 O109 1.279 . S
C115 O116 1.315 . S
C115 O117 1.279 . S
O116 Cd108 2.223 . S
O116 C115 1.315 . S
O117 Cd107 2.240 1_545 S
O117 C115 1.279 . S
O118 Cd108 2.297 . S
O118 C113 1.247 . S
O119 Cd108 2.439 . S
O119 C113 1.208 . S
O120 Cd121 2.223 . S
O120 C128 1.315 . S
Cd121 O120 2.223 . S
Cd121 O124 2.297 . S
Cd121 O125 2.439 . S
Cd121 O131 2.240 . S
Cd122 O123 2.240 . S
Cd122 O130 2.223 . S
Cd122 O132 2.297 1_545 S
Cd122 O133 2.439 . S
O123 Cd122 2.240 . S
O123 C128 1.279 . S
O124 Cd121 2.297 . S
O124 C126 1.247 . S
O125 Cd121 2.439 . S
O125 C126 1.208 . S
C126 O124 1.247 . S
C126 O125 1.208 . S
C127 O132 1.247 . S
C127 O133 1.208 1_565 S
C128 O120 1.315 . S
C128 O123 1.279 . S
C129 O130 1.315 . S
C129 O131 1.279 . S
O130 Cd122 2.223 . S
O130 C129 1.315 . S
O131 Cd121 2.240 . S
O131 C129 1.279 . S
O132 Cd122 2.297 1_565 S
O132 C127 1.247 . S
O133 Cd122 2.439 . S
O133 C127 1.208 1_545 S
H134 C135 0.951 . S
C135 H134 0.951 . S
C135 C141 1.265 . S
H136 C141 0.950 . S
H137 C145 0.949 . S
H138 C146 0.950 . S
H139 C147 0.951 . S
H140 C148 0.951 . S
C141 C135 1.265 . S
C141 H136 0.950 . S
C141 C142 1.478 . S
C142 C141 1.478 . S
C142 C143 1.397 . S
C142 C159 1.394 . S
C143 C142 1.397 . S
C143 C144 1.438 . S
C143 C148 1.429 1_545 S
C144 C143 1.438 . S
C144 C145 1.428 1_545 S
C144 C157 1.394 . S
C145 H137 0.949 . S
C145 C144 1.428 1_565 S
C145 C146 1.345 . S
C146 H138 0.950 . S
C146 C145 1.345 . S
C146 C147 1.424 . S
C147 H139 0.951 . S
C147 C146 1.424 . S
C147 C148 1.347 . S
C148 H140 0.951 . S
C148 C143 1.429 1_565 S
C148 C147 1.347 . S
H149 C150 0.951 . S
C150 H149 0.951 . S
C150 C156 1.265 . S
H151 C156 0.950 . S
H152 C160 0.949 . S
H153 C161 0.950 . S
H154 C162 0.951 . S
H155 C163 0.951 . S
C156 C150 1.265 . S
C156 H151 0.950 . S
C156 C157 1.478 . S
C157 C144 1.394 . S
C157 C156 1.478 . S
C157 C158 1.397 . S
C158 C157 1.397 . S
C158 C159 1.438 . S
C158 C163 1.429 . S
C159 C142 1.394 . S
C159 C158 1.438 . S
C159 C160 1.428 . S
C160 H152 0.949 . S
C160 C159 1.428 . S
C160 C161 1.345 . S
C161 H153 0.950 . S
C161 C160 1.345 . S
C161 C162 1.424 . S
C162 H154 0.951 . S
C162 C161 1.424 . S
C162 C163 1.347 . S
C163 H155 0.951 . S
C163 C158 1.429 . S
C163 C162 1.347 . S
H164 C165 0.951 . S
C165 H164 0.951 . S
C165 C171 1.265 . S
H166 C171 0.950 . S
H167 C175 0.949 . S
H168 C176 0.950 . S
H169 C177 0.951 . S
H170 C178 0.951 . S
C171 C165 1.265 . S
C171 H166 0.950 . S
C171 C172 1.478 . S
C172 C171 1.478 . S
C172 C173 1.397 . S
C172 C189 1.394 . S
C173 C172 1.397 . S
C173 C174 1.438 . S
C173 C178 1.429 1_455 S
C174 C173 1.438 . S
C174 C175 1.428 1_455 S
C174 C187 1.394 . S
C175 H167 0.949 . S
C175 C174 1.428 1_655 S
C175 C176 1.345 . S
C176 H168 0.950 . S
C176 C175 1.345 . S
C176 C177 1.424 . S
C177 H169 0.951 . S
C177 C176 1.424 . S
C177 C178 1.347 . S
C178 H170 0.951 . S
C178 C173 1.429 1_655 S
C178 C177 1.347 . S
H179 C180 0.951 1_655 S
C180 H179 0.951 1_455 S
C180 C186 1.265 . S
H181 C186 0.950 . S
H182 C190 0.949 . S
H183 C191 0.950 . S
H184 C192 0.951 . S
H185 C193 0.951 . S
C186 C180 1.265 . S
C186 H181 0.950 . S
C186 C187 1.478 . S
C187 C174 1.394 . S
C187 C186 1.478 . S
C187 C188 1.397 . S
C188 C187 1.397 . S
C188 C189 1.438 . S
C188 C193 1.429 . S
C189 C172 1.394 . S
C189 C188 1.438 . S
C189 C190 1.428 . S
C190 H182 0.949 . S
C190 C189 1.428 . S
C190 C191 1.345 . S
C191 H183 0.950 . S
C191 C190 1.345 . S
C191 C192 1.424 . S
C192 H184 0.951 . S
C192 C191 1.424 . S
C192 C193 1.347 . S
C193 H185 0.951 . S
C193 C188 1.429 . S
C193 C192 1.347 . S
H194 C195 0.951 . S
C195 H194 0.951 . S
C195 C201 1.265 . S
H196 C201 0.950 . S
H197 C205 0.949 . S
H198 C206 0.950 . S
H199 C207 0.951 . S
H200 C208 0.951 . S
C201 C195 1.265 . S
C201 H196 0.950 . S
C201 C202 1.478 . S
C202 C201 1.478 . S
C202 C203 1.397 . S
C202 C219 1.394 . S
C203 C202 1.397 . S
C203 C204 1.438 . S
C203 C208 1.429 . S
C204 C203 1.438 . S
C204 C205 1.428 1_545 S
C204 C217 1.394 . S
C205 H197 0.949 . S
C205 C204 1.428 1_565 S
C205 C206 1.345 . S
C206 H198 0.950 . S
C206 C205 1.345 . S
C206 C207 1.424 . S
C207 H199 0.951 . S
C207 C206 1.424 . S
C207 C208 1.347 1_565 S
C208 H200 0.951 . S
C208 C203 1.429 . S
C208 C207 1.347 1_545 S
H209 C210 0.951 . S
C210 H209 0.951 . S
C210 C216 1.265 . S
H211 C216 0.950 . S
H212 C220 0.949 . S
H213 C221 0.950 . S
H214 C222 0.951 . S
H215 C223 0.951 . S
C216 C210 1.265 . S
C216 H211 0.950 . S
C216 C217 1.478 . S
C217 C204 1.394 . S
C217 C216 1.478 . S
C217 C218 1.397 . S
C218 C217 1.397 . S
C218 C219 1.438 . S
C218 C223 1.429 . S
C219 C202 1.394 . S
C219 C218 1.438 . S
C219 C220 1.428 . S
C220 H212 0.949 . S
C220 C219 1.428 . S
C220 C221 1.345 . S
C221 H213 0.950 . S
C221 C220 1.345 . S
C221 C222 1.424 . S
C222 H214 0.951 . S
C222 C221 1.424 . S
C222 C223 1.347 . S
C223 H215 0.951 . S
C223 C218 1.429 . S
C223 C222 1.347 . S
H224 C225 0.951 . S
C225 H224 0.951 . S
C225 C231 1.265 . S
H226 C231 0.950 . S
H227 C235 0.949 . S
H228 C236 0.950 . S
H229 C237 0.951 . S
H230 C238 0.951 . S
C231 C225 1.265 . S
C231 H226 0.950 . S
C231 C232 1.478 . S
C232 C231 1.478 . S
C232 C233 1.397 . S
C232 C249 1.394 . S
C233 C232 1.397 . S
C233 C234 1.438 . S
C233 C238 1.429 . S
C234 C233 1.438 . S
C234 C235 1.428 . S
C234 C247 1.394 . S
C235 H227 0.949 . S
C235 C234 1.428 . S
C235 C236 1.345 . S
C236 H228 0.950 . S
C236 C235 1.345 . S
C236 C237 1.424 . S
C237 H229 0.951 . S
C237 C236 1.424 . S
C237 C238 1.347 . S
C238 H230 0.951 . S
C238 C233 1.429 . S
C238 C237 1.347 . S
H239 C240 0.951 . S
C240 H239 0.951 . S
C240 C246 1.265 . S
H241 C246 0.950 . S
H242 C250 0.949 . S
H243 C251 0.950 . S
H244 C252 0.951 . S
H245 C253 0.951 . S
C246 C240 1.265 . S
C246 H241 0.950 . S
C246 C247 1.478 . S
C247 C234 1.394 . S
C247 C246 1.478 . S
C247 C248 1.397 . S
C248 C247 1.397 . S
C248 C249 1.438 . S
C248 C253 1.429 . S
C249 C232 1.394 . S
C249 C248 1.438 . S
C249 C250 1.428 . S
C250 H242 0.949 . S
C250 C249 1.428 . S
C250 C251 1.345 . S
C251 H243 0.950 . S
C251 C250 1.345 . S
C251 C252 1.424 . S
C252 H244 0.951 . S
C252 C251 1.424 . S
C252 C253 1.347 . S
C253 H245 0.951 . S
C253 C248 1.429 . S
C253 C252 1.347 . S
H254 C255 0.951 . S
C255 H254 0.951 . S
C255 C261 1.265 . S
H256 C261 0.950 . S
H257 C265 0.949 . S
H258 C266 0.950 . S
H259 C267 0.951 . S
H260 C268 0.951 . S
C261 C255 1.265 . S
C261 H256 0.950 . S
C261 C262 1.478 . S
C262 C261 1.478 . S
C262 C263 1.397 . S
C262 C279 1.394 . S
C263 C262 1.397 . S
C263 C264 1.438 . S
C263 C268 1.429 . S
C264 C263 1.438 . S
C264 C265 1.428 . S
C264 C277 1.394 . S
C265 H257 0.949 . S
C265 C264 1.428 . S
C265 C266 1.345 . S
C266 H258 0.950 . S
C266 C265 1.345 . S
C266 C267 1.424 . S
C267 H259 0.951 . S
C267 C266 1.424 . S
C267 C268 1.347 . S
C268 H260 0.951 . S
C268 C263 1.429 . S
C268 C267 1.347 . S
H269 C270 0.951 . S
C270 H269 0.951 . S
C270 C276 1.265 . S
H271 C276 0.950 . S
H272 C280 0.949 . S
H273 C281 0.950 . S
H274 C282 0.951 . S
H275 C283 0.951 . S
C276 C270 1.265 . S
C276 H271 0.950 . S
C276 C277 1.478 . S
C277 C264 1.394 . S
C277 C276 1.478 . S
C277 C278 1.397 . S
C278 C277 1.397 . S
C278 C279 1.438 . S
C278 C283 1.429 1_545 S
C279 C262 1.394 . S
C279 C278 1.438 . S
C279 C280 1.428 1_545 S
C280 H272 0.949 . S
C280 C279 1.428 1_565 S
C280 C281 1.345 . S
C281 H273 0.950 . S
C281 C280 1.345 . S
C281 C282 1.424 . S
C282 H274 0.951 . S
C282 C281 1.424 . S
C282 C283 1.347 . S
C283 H275 0.951 . S
C283 C278 1.429 1_565 S
C283 C282 1.347 . S
H284 C285 0.951 . S
C285 H284 0.951 . S
C285 C291 1.265 . S
H286 C291 0.950 . S
H287 C295 0.949 . S
H288 C296 0.950 . S
H289 C297 0.951 . S
H290 C298 0.951 . S
C291 C285 1.265 . S
C291 H286 0.950 . S
C291 C292 1.478 . S
C292 C291 1.478 . S
C292 C293 1.397 . S
C292 C309 1.394 . S
C293 C292 1.397 . S
C293 C294 1.438 . S
C293 C298 1.429 . S
C294 C293 1.438 . S
C294 C295 1.428 . S
C294 C307 1.394 . S
C295 H287 0.949 . S
C295 C294 1.428 . S
C295 C296 1.345 . S
C296 H288 0.950 . S
C296 C295 1.345 . S
C296 C297 1.424 . S
C297 H289 0.951 . S
C297 C296 1.424 . S
C297 C298 1.347 . S
C298 H290 0.951 . S
C298 C293 1.429 . S
C298 C297 1.347 . S
H299 C300 0.951 . S
C300 H299 0.951 . S
C300 C306 1.265 . S
H301 C306 0.950 . S
H302 C310 0.949 . S
H303 C311 0.950 . S
H304 C312 0.951 . S
H305 C313 0.951 . S
C306 C300 1.265 . S
C306 H301 0.950 . S
C306 C307 1.478 . S
C307 C294 1.394 . S
C307 C306 1.478 . S
C307 C308 1.397 . S
C308 C307 1.397 . S
C308 C309 1.438 . S
C308 C313 1.429 . S
C309 C292 1.394 . S
C309 C308 1.438 . S
C309 C310 1.428 . S
C310 H302 0.949 . S
C310 C309 1.428 . S
C310 C311 1.345 . S
C311 H303 0.950 . S
C311 C310 1.345 . S
C311 C312 1.424 . S
C312 H304 0.951 . S
C312 C311 1.424 . S
C312 C313 1.347 . S
C313 H305 0.951 . S
C313 C308 1.429 . S
C313 C312 1.347 . S
H314 C315 0.951 . S
C315 H314 0.951 . S
C315 C321 1.265 . S
H316 C321 0.950 . S
H317 C325 0.949 . S
H318 C326 0.950 . S
H319 C327 0.951 . S
H320 C328 0.951 . S
C321 C315 1.265 . S
C321 H316 0.950 . S
C321 C322 1.478 . S
C322 C321 1.478 . S
C322 C323 1.397 . S
C322 C339 1.394 . S
C323 C322 1.397 . S
C323 C324 1.438 . S
C323 C328 1.429 . S
C324 C323 1.438 . S
C324 C325 1.428 . S
C324 C337 1.394 . S
C325 H317 0.949 . S
C325 C324 1.428 . S
C325 C326 1.345 . S
C326 H318 0.950 . S
C326 C325 1.345 . S
C326 C327 1.424 . S
C327 H319 0.951 . S
C327 C326 1.424 . S
C327 C328 1.347 . S
C328 H320 0.951 . S
C328 C323 1.429 . S
C328 C327 1.347 . S
H329 C330 0.951 . S
C330 H329 0.951 . S
C330 C336 1.265 . S
H331 C336 0.950 . S
H332 C340 0.948 1_565 S
H333 C341 0.950 . S
H334 C342 0.951 . S
H335 C343 0.951 . S
C336 C330 1.265 . S
C336 H331 0.950 . S
C336 C337 1.478 . S
C337 C324 1.394 . S
C337 C336 1.478 . S
C337 C338 1.397 . S
C338 C337 1.397 . S
C338 C339 1.438 . S
C338 C343 1.429 . S
C339 C322 1.394 . S
C339 C338 1.438 . S
C339 C340 1.428 . S
C340 H332 0.948 1_545 S
C340 C339 1.428 . S
C340 C341 1.345 1_545 S
C341 H333 0.950 . S
C341 C340 1.345 1_565 S
C341 C342 1.424 . S
C342 H334 0.951 . S
C342 C341 1.424 . S
C342 C343 1.347 1_565 S
C343 H335 0.951 . S
C343 C338 1.429 . S
C343 C342 1.347 1_545 S
H344 C345 0.951 . S
C345 H344 0.951 . S
C345 C351 1.265 . S
H346 C351 0.950 . S
H347 C355 0.949 . S
H348 C356 0.950 . S
H349 C357 0.951 . S
H350 C358 0.951 . S
C351 C345 1.265 . S
C351 H346 0.950 . S
C351 C352 1.478 . S
C352 C351 1.478 . S
C352 C353 1.397 . S
C352 C369 1.394 . S
C353 C352 1.397 . S
C353 C354 1.438 . S
C353 C358 1.429 . S
C354 C353 1.438 . S
C354 C355 1.428 . S
C354 C367 1.394 . S
C355 H347 0.949 . S
C355 C354 1.428 . S
C355 C356 1.345 . S
C356 H348 0.950 . S
C356 C355 1.345 . S
C356 C357 1.424 . S
C357 H349 0.951 . S
C357 C356 1.424 . S
C357 C358 1.347 . S
C358 H350 0.951 . S
C358 C353 1.429 . S
C358 C357 1.347 . S
H359 C360 0.951 . S
C360 H359 0.951 . S
C360 C366 1.265 1_455 S
H361 C366 0.950 . S
H362 C370 0.949 . S
H363 C371 0.950 . S
H364 C372 0.951 . S
H365 C373 0.951 . S
C366 C360 1.265 1_655 S
C366 H361 0.950 . S
C366 C367 1.478 1_655 S
C367 C354 1.394 . S
C367 C366 1.478 1_455 S
C367 C368 1.397 . S
C368 C367 1.397 . S
C368 C369 1.438 . S
C368 C373 1.429 1_455 S
C369 C352 1.394 . S
C369 C368 1.438 . S
C369 C370 1.428 . S
C370 H362 0.949 . S
C370 C369 1.428 . S
C370 C371 1.345 1_455 S
C371 H363 0.950 . S
C371 C370 1.345 1_655 S
C371 C372 1.424 . S
C372 H364 0.951 . S
C372 C371 1.424 . S
C372 C373 1.347 . S
C373 H365 0.951 . S
C373 C368 1.429 1_655 S
C373 C372 1.347 . S
C150 C115 1.586 . S
C135 C22 1.567 . S
C180 C126 1.549 . S
C165 C91 1.612 . S
C210 C114 1.602 . S
C195 C38 1.607 . S
C240 C127 1.550 . S
C225 C75 1.576 . S
C270 C129 1.613 . S
C255 C39 1.591 . S
C300 C113 1.461 . S
C285 C82 1.570 . S
C330 C128 1.569 1_655 S
C315 C29 1.583 . S
C345 C92 1.586 . S
C360 C112 1.494 . S
