# Generated by pormake.
# Topology ocu, (6,8)-cn, num edge types: 1
# Building blocks:
#     Node 0, Type 0, BuildingBlock: PAMTUU_clean_sbu_0, # of connection points: 6
#     Node 1, Type 0, BuildingBlock: PAMTUU_clean_sbu_0, # of connection points: 6
#     Node 2, Type 0, BuildingBlock: PAMTUU_clean_sbu_0, # of connection points: 6
#     Node 3, Type 0, BuildingBlock: PAMTUU_clean_sbu_0, # of connection points: 6
#     Node 4, Type 0, BuildingBlock: PAMTUU_clean_sbu_0, # of connection points: 6
#     Node 5, Type 0, BuildingBlock: PAMTUU_clean_sbu_0, # of connection points: 6
#     Node 6, Type 0, BuildingBlock: PAMTUU_clean_sbu_0, # of connection points: 6
#     Node 7, Type 0, BuildingBlock: PAMTUU_clean_sbu_0, # of connection points: 6
#     Node 8, Type 1, BuildingBlock: VETTIZ_charged_sbu_0, # of connection points: 8
#     Node 9, Type 1, BuildingBlock: VETTIZ_charged_sbu_0, # of connection points: 8
#     Node 10, Type 1, BuildingBlock: VETTIZ_charged_sbu_0, # of connection points: 8
#     Node 11, Type 1, BuildingBlock: VETTIZ_charged_sbu_0, # of connection points: 8
#     Node 12, Type 1, BuildingBlock: VETTIZ_charged_sbu_0, # of connection points: 8
#     Node 13, Type 1, BuildingBlock: VETTIZ_charged_sbu_0, # of connection points: 8
#     Edge 14, Type (0, 1), BuildingBlock: CIFDUS_clean_linker_0, # of connection points: 2
#     Edge 15, Type (0, 1), BuildingBlock: CIFDUS_clean_linker_0, # of connection points: 2
#     Edge 16, Type (0, 1), BuildingBlock: CIFDUS_clean_linker_0, # of connection points: 2
#     Edge 17, Type (0, 1), BuildingBlock: CIFDUS_clean_linker_0, # of connection points: 2
#     Edge 18, Type (0, 1), BuildingBlock: CIFDUS_clean_linker_0, # of connection points: 2
#     Edge 19, Type (0, 1), BuildingBlock: CIFDUS_clean_linker_0, # of connection points: 2
#     Edge 20, Type (0, 1), BuildingBlock: CIFDUS_clean_linker_0, # of connection points: 2
#     Edge 21, Type (0, 1), BuildingBlock: CIFDUS_clean_linker_0, # of connection points: 2
#     Edge 22, Type (0, 1), BuildingBlock: CIFDUS_clean_linker_0, # of connection points: 2
#     Edge 23, Type (0, 1), BuildingBlock: CIFDUS_clean_linker_0, # of connection points: 2
#     Edge 24, Type (0, 1), BuildingBlock: CIFDUS_clean_linker_0, # of connection points: 2
#     Edge 25, Type (0, 1), BuildingBlock: CIFDUS_clean_linker_0, # of connection points: 2
#     Edge 26, Type (0, 1), BuildingBlock: CIFDUS_clean_linker_0, # of connection points: 2
#     Edge 27, Type (0, 1), BuildingBlock: CIFDUS_clean_linker_0, # of connection points: 2
#     Edge 28, Type (0, 1), BuildingBlock: CIFDUS_clean_linker_0, # of connection points: 2
#     Edge 29, Type (0, 1), BuildingBlock: CIFDUS_clean_linker_0, # of connection points: 2
#     Edge 30, Type (0, 1), BuildingBlock: CIFDUS_clean_linker_0, # of connection points: 2
#     Edge 31, Type (0, 1), BuildingBlock: CIFDUS_clean_linker_0, # of connection points: 2
#     Edge 32, Type (0, 1), BuildingBlock: CIFDUS_clean_linker_0, # of connection points: 2
#     Edge 33, Type (0, 1), BuildingBlock: CIFDUS_clean_linker_0, # of connection points: 2
#     Edge 34, Type (0, 1), BuildingBlock: CIFDUS_clean_linker_0, # of connection points: 2
#     Edge 35, Type (0, 1), BuildingBlock: CIFDUS_clean_linker_0, # of connection points: 2
#     Edge 36, Type (0, 1), BuildingBlock: CIFDUS_clean_linker_0, # of connection points: 2
#     Edge 37, Type (0, 1), BuildingBlock: CIFDUS_clean_linker_0, # of connection points: 2
#     Edge 38, Type (0, 1), BuildingBlock: CIFDUS_clean_linker_0, # of connection points: 2
#     Edge 39, Type (0, 1), BuildingBlock: CIFDUS_clean_linker_0, # of connection points: 2
#     Edge 40, Type (0, 1), BuildingBlock: CIFDUS_clean_linker_0, # of connection points: 2
#     Edge 41, Type (0, 1), BuildingBlock: CIFDUS_clean_linker_0, # of connection points: 2
#     Edge 42, Type (0, 1), BuildingBlock: CIFDUS_clean_linker_0, # of connection points: 2
#     Edge 43, Type (0, 1), BuildingBlock: CIFDUS_clean_linker_0, # of connection points: 2
#     Edge 44, Type (0, 1), BuildingBlock: CIFDUS_clean_linker_0, # of connection points: 2
#     Edge 45, Type (0, 1), BuildingBlock: CIFDUS_clean_linker_0, # of connection points: 2
#     Edge 46, Type (0, 1), BuildingBlock: CIFDUS_clean_linker_0, # of connection points: 2
#     Edge 47, Type (0, 1), BuildingBlock: CIFDUS_clean_linker_0, # of connection points: 2
#     Edge 48, Type (0, 1), BuildingBlock: CIFDUS_clean_linker_0, # of connection points: 2
#     Edge 49, Type (0, 1), BuildingBlock: CIFDUS_clean_linker_0, # of connection points: 2
#     Edge 50, Type (0, 1), BuildingBlock: CIFDUS_clean_linker_0, # of connection points: 2
#     Edge 51, Type (0, 1), BuildingBlock: CIFDUS_clean_linker_0, # of connection points: 2
#     Edge 52, Type (0, 1), BuildingBlock: CIFDUS_clean_linker_0, # of connection points: 2
#     Edge 53, Type (0, 1), BuildingBlock: CIFDUS_clean_linker_0, # of connection points: 2
#     Edge 54, Type (0, 1), BuildingBlock: CIFDUS_clean_linker_0, # of connection points: 2
#     Edge 55, Type (0, 1), BuildingBlock: CIFDUS_clean_linker_0, # of connection points: 2
#     Edge 56, Type (0, 1), BuildingBlock: CIFDUS_clean_linker_0, # of connection points: 2
#     Edge 57, Type (0, 1), BuildingBlock: CIFDUS_clean_linker_0, # of connection points: 2
#     Edge 58, Type (0, 1), BuildingBlock: CIFDUS_clean_linker_0, # of connection points: 2
#     Edge 59, Type (0, 1), BuildingBlock: CIFDUS_clean_linker_0, # of connection points: 2
#     Edge 60, Type (0, 1), BuildingBlock: CIFDUS_clean_linker_0, # of connection points: 2
#     Edge 61, Type (0, 1), BuildingBlock: CIFDUS_clean_linker_0, # of connection points: 2
# Relax obj value: 0.147
# Max RMSD: 0.240
# Mean RMSD: 0.150
data_MOF--net-ocu--node1-PAMTUU_clean_sbu_0--node2-VETTIZ_charged_sbu_0--edge1-CIFDUS_clean_linker_0
_symmetry_space_group_name_H-M    P1
_symmetry_Int_Tables_number       1
_symmetry_cell_setting            triclinic
loop_
_symmetry_equiv_pos_as_xyz
'x, y, z'
_cell_length_a     33.865498
_cell_length_b     37.020179
_cell_length_c     36.450143
_cell_angle_alpha  83.684738
_cell_angle_beta   96.222407
_cell_angle_gamma 103.90482
loop_
_atom_site_label
_atom_site_type_symbol
_atom_site_fract_x
_atom_site_fract_y
_atom_site_fract_z
_atom_type_partial_charge
Tb0 Tb 0.27039 0.28234 0.25441 0.0
Tb1 Tb 0.33577 0.28895 0.31675 0.0
C2 C 0.25795 0.23059 0.32795 0.0
C3 C 0.16747 0.26775 0.21078 0.0
C4 C 0.09792 0.29549 0.1938 0.0
C5 C 0.10027 0.26236 0.17929 0.0
C6 C 0.13608 0.24946 0.18658 0.0
C7 C 0.15988 0.29367 0.23271 0.0
C8 C 0.12502 0.30739 0.22453 0.0
C9 C 0.20936 0.26472 0.20917 0.0
O10 O 0.24891 0.32444 0.28597 0.0
O11 O 0.2926 0.32241 0.33722 0.0
O12 O 0.36626 0.32251 0.2712 0.0
O13 O 0.31167 0.33305 0.23339 0.0
O14 O 0.36096 0.2717 0.36855 0.0
O15 O 0.38755 0.32522 0.34051 0.0
O16 O 0.36309 0.25532 0.2792 0.0
O17 O 0.31225 0.24846 0.23303 0.0
O18 O 0.24344 0.25441 0.30454 0.0
O19 O 0.29733 0.23401 0.33156 0.0
C20 C 0.25994 0.33461 0.32068 0.0
O21 O 0.23601 0.29671 0.20635 0.0
O22 O 0.22182 0.24075 0.23383 0.0
C23 C 0.35088 0.3407 0.24284 0.0
C24 C 0.43137 0.28907 0.36998 0.0
C25 C 0.49036 0.25039 0.39674 0.0
C26 C 0.49414 0.28681 0.40683 0.0
C27 C 0.46365 0.3057 0.39431 0.0
C28 C 0.43353 0.25741 0.35321 0.0
C29 C 0.46296 0.23799 0.36653 0.0
C30 C 0.39259 0.29985 0.36707 0.0
C31 C 0.34874 0.24157 0.24621 0.0
H32 H 0.07805 0.25055 0.15758 0.0
H33 H 0.14075 0.22797 0.17073 0.0
H34 H 0.18291 0.3068 0.2529 0.0
H35 H 0.12376 0.33153 0.23821 0.0
H36 H 0.5168 0.29804 0.42851 0.0
H37 H 0.46309 0.33101 0.40641 0.0
H38 H 0.40929 0.24459 0.33371 0.0
H39 H 0.45953 0.21064 0.35703 0.0
Tb40 Tb 0.7885 0.31646 0.2965 0.0
Tb41 Tb 0.85471 0.26706 0.29185 0.0
C42 C 0.86274 0.32122 0.35198 0.0
C43 C 0.72908 0.3734 0.25771 0.0
C44 C 0.75309 0.4123 0.18956 0.0
C45 C 0.75893 0.43068 0.2226 0.0
C46 C 0.74588 0.41177 0.25569 0.0
C47 C 0.72231 0.35489 0.22509 0.0
C48 C 0.73502 0.37376 0.19184 0.0
C49 C 0.73527 0.35185 0.29307 0.0
O50 O 0.82625 0.34908 0.25351 0.0
O51 O 0.88008 0.32006 0.26132 0.0
O52 O 0.80155 0.24402 0.2566 0.0
O53 O 0.7779 0.2967 0.24228 0.0
O54 O 0.9071 0.25096 0.31663 0.0
O55 O 0.87982 0.23272 0.26336 0.0
O56 O 0.80714 0.22681 0.31926 0.0
O57 O 0.77158 0.26722 0.33589 0.0
O58 O 0.84019 0.34074 0.33157 0.0
O59 O 0.86239 0.28708 0.346 0.0
C60 C 0.86317 0.34731 0.2466 0.0
O61 O 0.72582 0.31555 0.29193 0.0
O62 O 0.77131 0.36364 0.31027 0.0
C63 C 0.77779 0.26277 0.23643 0.0
C64 C 0.89508 0.18728 0.31001 0.0
C65 C 0.86842 0.11805 0.35053 0.0
C66 C 0.85169 0.12422 0.31422 0.0
C67 C 0.8646 0.15881 0.29418 0.0
C68 C 0.91256 0.18047 0.34587 0.0
C69 C 0.8992 0.14657 0.36595 0.0
C70 C 0.90307 0.22595 0.29306 0.0
C71 C 0.77863 0.23361 0.33725 0.0
H72 H 0.77304 0.46002 0.22357 0.0
H73 H 0.75246 0.42654 0.28054 0.0
H74 H 0.70987 0.32503 0.22556 0.0
H75 H 0.72999 0.35774 0.16801 0.0
H76 H 0.82879 0.10239 0.30149 0.0
H77 H 0.85008 0.16347 0.26668 0.0
H78 H 0.93569 0.20191 0.359 0.0
H79 H 0.91396 0.14262 0.39346 0.0
Tb80 Tb 0.8529 0.80045 0.26341 0.0
Tb81 Tb 0.78702 0.76675 0.31539 0.0
C82 C 0.85068 0.84049 0.33566 0.0
C83 C 0.94437 0.80857 0.21541 0.0
C84 C 0.98191 0.76292 0.18277 0.0
C85 C 0.98556 0.80034 0.16848 0.0
C86 C 0.96595 0.82299 0.18445 0.0
C87 C 0.94783 0.77403 0.23358 0.0
C88 C 0.96644 0.75116 0.21736 0.0
C89 C 0.91204 0.82511 0.22399 0.0
O90 O 0.87929 0.75256 0.29745 0.0
O91 O 0.83482 0.73413 0.34172 0.0
O92 O 0.78903 0.7233 0.28162 0.0
O93 O 0.80321 0.76354 0.23212 0.0
O94 O 0.76292 0.74923 0.3666 0.0
O95 O 0.72476 0.74037 0.31556 0.0
O96 O 0.75665 0.80787 0.27318 0.0
O97 O 0.80976 0.83812 0.24031 0.0
O98 O 0.86257 0.84297 0.30232 0.0
O99 O 0.82252 0.81195 0.34737 0.0
C100 C 0.86931 0.73064 0.32876 0.0
O101 O 0.8756 0.80835 0.21116 0.0
O102 O 0.91291 0.83155 0.25843 0.0
C103 C 0.78477 0.73048 0.24605 0.0
C104 C 0.69991 0.76283 0.36329 0.0
C105 C 0.67457 0.8132 0.40119 0.0
C106 C 0.66405 0.7748 0.41254 0.0
C107 C 0.67703 0.74957 0.39367 0.0
C108 C 0.70611 0.8005 0.34969 0.0
C109 C 0.69345 0.82556 0.3684 0.0
C110 C 0.72568 0.74103 0.35129 0.0
C111 C 0.77065 0.83485 0.24628 0.0
H112 H 0.99861 0.81032 0.14236 0.0
H113 H 0.96423 0.85007 0.1706 0.0
H114 H 0.93243 0.76289 0.25804 0.0
H115 H 0.96332 0.72263 0.22941 0.0
H116 H 0.64876 0.76482 0.43757 0.0
H117 H 0.67226 0.72057 0.40456 0.0
H118 H 0.72454 0.81151 0.32698 0.0
H119 H 0.70235 0.85502 0.35927 0.0
Tb120 Tb 0.34443 0.77136 0.29994 0.0
Tb121 Tb 0.27138 0.81314 0.29842 0.0
C122 C 0.2773 0.74523 0.34937 0.0
C123 C 0.40931 0.7195 0.27019 0.0
C124 C 0.42895 0.69217 0.20839 0.0
C125 C 0.43003 0.67134 0.24289 0.0
C126 C 0.42033 0.68514 0.27394 0.0
C127 C 0.40732 0.73969 0.23536 0.0
C128 C 0.41754 0.72622 0.20462 0.0
C129 C 0.39609 0.7331 0.30144 0.0
O130 O 0.29687 0.74539 0.25817 0.0
O131 O 0.25546 0.78725 0.24683 0.0
O132 O 0.32164 0.85237 0.27503 0.0
O133 O 0.35109 0.81108 0.25206 0.0
O134 O 0.22039 0.81582 0.32472 0.0
O135 O 0.23936 0.85394 0.27696 0.0
O136 O 0.31455 0.83325 0.34549 0.0
O137 O 0.3729 0.81991 0.32951 0.0
O138 O 0.31639 0.75795 0.35105 0.0
O139 O 0.25446 0.75603 0.32133 0.0
C140 C 0.26701 0.75803 0.23844 0.0
O141 O 0.40573 0.76938 0.30189 0.0
O142 O 0.35802 0.71859 0.30755 0.0
C143 C 0.3463 0.84492 0.25332 0.0
C144 C 0.22851 0.87989 0.32974 0.0
C145 C 0.25412 0.94075 0.37325 0.0
C146 C 0.2452 0.94677 0.33482 0.0
C147 C 0.23248 0.91651 0.3132 0.0
C148 C 0.23909 0.87416 0.36796 0.0
C149 C 0.25187 0.90421 0.38937 0.0
C150 C 0.21971 0.84825 0.30676 0.0
C151 C 0.35468 0.83811 0.34868 0.0
H152 H 0.4386 0.64472 0.24572 0.0
H153 H 0.42094 0.66898 0.30057 0.0
H154 H 0.39759 0.76576 0.23183 0.0
H155 H 0.41612 0.7421 0.17789 0.0
H156 H 0.24616 0.97472 0.3219 0.0
H157 H 0.22561 0.92167 0.28363 0.0
H158 H 0.23745 0.8464 0.38165 0.0
H159 H 0.25747 0.89853 0.41904 0.0
Tb160 Tb 0.28211 0.81705 0.78871 0.0
Tb161 Tb 0.33107 0.75688 0.811 0.0
C162 C 0.34853 0.83058 0.856 0.0
C163 C 0.27913 0.89527 0.72877 0.0
C164 C 0.29929 0.93867 0.66433 0.0
C165 C 0.31064 0.95471 0.69824 0.0
C166 C 0.29678 0.93342 0.73031 0.0
C167 C 0.28375 0.8779 0.6974 0.0
C168 C 0.29622 0.90005 0.6652 0.0
C169 C 0.25977 0.87334 0.76067 0.0
O170 O 0.34088 0.83573 0.76678 0.0
O171 O 0.35456 0.78053 0.75949 0.0
O172 O 0.2883 0.72782 0.76727 0.0
O173 O 0.25869 0.77602 0.74513 0.0
O174 O 0.38121 0.74333 0.84396 0.0
O175 O 0.34069 0.70318 0.81036 0.0
O176 O 0.28089 0.74264 0.8461 0.0
O177 O 0.23837 0.78081 0.82205 0.0
O178 O 0.30992 0.83056 0.84559 0.0
O179 O 0.36496 0.80861 0.8388 0.0
C180 C 0.35933 0.81598 0.75025 0.0
O181 O 0.23819 0.83985 0.75498 0.0
O182 O 0.28378 0.87382 0.79099 0.0
C183 C 0.26297 0.74145 0.74268 0.0
C184 C 0.35435 0.68346 0.87138 0.0
C185 C 0.32829 0.63584 0.93341 0.0
C186 C 0.33816 0.62147 0.90214 0.0
C187 C 0.35166 0.64529 0.87156 0.0
C188 C 0.3391 0.69708 0.90014 0.0
C189 C 0.32575 0.6733 0.93087 0.0
C190 C 0.36724 0.70811 0.83883 0.0
C191 C 0.24592 0.75247 0.84383 0.0
H192 H 0.31911 0.9848 0.69882 0.0
H193 H 0.29762 0.94697 0.75535 0.0
H194 H 0.27433 0.84787 0.69655 0.0
H195 H 0.29221 0.8868 0.63956 0.0
H196 H 0.34042 0.5927 0.90297 0.0
H197 H 0.36131 0.63413 0.84864 0.0
H198 H 0.33897 0.72637 0.89959 0.0
H199 H 0.31833 0.68506 0.95447 0.0
Tb200 Tb 0.34619 0.28884 0.76983 0.0
Tb201 Tb 0.27258 0.28105 0.82151 0.0
C202 C 0.35184 0.34599 0.8249 0.0
C203 C 0.42256 0.26316 0.7205 0.0
C204 C 0.4514 0.20736 0.69314 0.0
C205 C 0.46851 0.24525 0.68339 0.0
C206 C 0.45419 0.27301 0.69706 0.0
C207 C 0.40682 0.22536 0.73188 0.0
C208 C 0.42131 0.19753 0.71834 0.0
C209 C 0.40358 0.29198 0.73023 0.0
O210 O 0.36594 0.26238 0.82423 0.0
O211 O 0.30318 0.23639 0.84524 0.0
O212 O 0.24927 0.24229 0.77898 0.0
O213 O 0.30945 0.2333 0.76296 0.0
O214 O 0.25228 0.28049 0.87407 0.0
O215 O 0.20968 0.27335 0.82567 0.0
O216 O 0.26686 0.32915 0.78174 0.0
O217 O 0.29962 0.314 0.73606 0.0
O218 O 0.35541 0.34288 0.79026 0.0
O219 O 0.3262 0.32052 0.84406 0.0
C220 C 0.34298 0.23875 0.84758 0.0
O221 O 0.3656 0.28856 0.71732 0.0
O222 O 0.40927 0.29916 0.76485 0.0
C223 C 0.26964 0.22413 0.76188 0.0
C224 C 0.1966 0.30842 0.87065 0.0
C225 C 0.16703 0.36466 0.89654 0.0
C226 C 0.14827 0.32691 0.90485 0.0
C227 C 0.16289 0.29891 0.89181 0.0
C228 C 0.21394 0.3462 0.86059 0.0
C229 C 0.1992 0.37421 0.8735 0.0
C230 C 0.21477 0.2791 0.86059 0.0
C231 C 0.27455 0.33253 0.74674 0.0
H232 H 0.49206 0.25328 0.66422 0.0
H233 H 0.4667 0.30206 0.68821 0.0
H234 H 0.38231 0.21738 0.75006 0.0
H235 H 0.40769 0.16845 0.72604 0.0
H236 H 0.12373 0.31915 0.92301 0.0
H237 H 0.14901 0.26988 0.89953 0.0
H238 H 0.23994 0.35398 0.84411 0.0
H239 H 0.21448 0.4032 0.86741 0.0
Tb240 Tb 0.84805 0.25965 0.81135 0.0
Tb241 Tb 0.78681 0.31199 0.78191 0.0
C242 C 0.76193 0.24829 0.85003 0.0
C243 C 0.89763 0.18895 0.79711 0.0
C244 C 0.90094 0.14641 0.73909 0.0
C245 C 0.90231 0.1305 0.77589 0.0
C246 C 0.90015 0.15163 0.80482 0.0
C247 C 0.89789 0.20513 0.76045 0.0
C248 C 0.89928 0.18399 0.73167 0.0
C249 C 0.88613 0.20887 0.82509 0.0
O250 O 0.82156 0.24644 0.75639 0.0
O251 O 0.76085 0.26316 0.75295 0.0
O252 O 0.83634 0.3285 0.7417 0.0
O253 O 0.88591 0.30156 0.77301 0.0
O254 O 0.73052 0.32638 0.76592 0.0
O255 O 0.78677 0.3686 0.76863 0.0
O256 O 0.81401 0.32833 0.83571 0.0
O257 O 0.87054 0.30369 0.84646 0.0
O258 O 0.79926 0.24242 0.85132 0.0
O259 O 0.75051 0.27244 0.82371 0.0
C260 C 0.78338 0.2422 0.7438 0.0
O261 O 0.90404 0.24429 0.8253 0.0
O262 O 0.84671 0.20312 0.82569 0.0
C263 C 0.87471 0.3244 0.74528 0.0
C264 C 0.73339 0.37954 0.79709 0.0
C265 C 0.7222 0.41658 0.85695 0.0
C266 C 0.72396 0.43518 0.82123 0.0
C267 C 0.72987 0.41677 0.79138 0.0
C268 C 0.73058 0.36098 0.83282 0.0
C269 C 0.72505 0.37933 0.86248 0.0
C270 C 0.74719 0.3618 0.7683 0.0
C271 C 0.84884 0.32613 0.85399 0.0
H272 H 0.90405 0.10161 0.78209 0.0
H273 H 0.89902 0.13858 0.83291 0.0
H274 H 0.89546 0.23379 0.75384 0.0
H275 H 0.8992 0.1971 0.70358 0.0
H276 H 0.72115 0.46389 0.8166 0.0
H277 H 0.73276 0.43178 0.7642 0.0
H278 H 0.73393 0.33254 0.83815 0.0
H279 H 0.7233 0.36455 0.88984 0.0
Tb280 Tb 0.82556 0.82799 0.82887 0.0
Tb281 Tb 0.8229 0.77383 0.76229 0.0
C282 C 0.88316 0.85159 0.76371 0.0
C283 C 0.7919 0.88967 0.88739 0.0
C284 C 0.7428 0.93531 0.90677 0.0
C285 C 0.77711 0.95081 0.88679 0.0
C286 C 0.80151 0.92829 0.8774 0.0
C287 C 0.75654 0.87389 0.90588 0.0
C288 C 0.7322 0.89645 0.91538 0.0
C289 C 0.81959 0.86617 0.88045 0.0
O290 O 0.77626 0.83863 0.78909 0.0
O291 O 0.79309 0.81741 0.73688 0.0
O292 O 0.76515 0.75661 0.78616 0.0
O293 O 0.79183 0.7712 0.84384 0.0
O294 O 0.83508 0.76363 0.70954 0.0
O295 O 0.80219 0.7194 0.74615 0.0
O296 O 0.85779 0.7533 0.81085 0.0
O297 O 0.87924 0.80552 0.84322 0.0
O298 O 0.86109 0.86249 0.78596 0.0
O299 O 0.87922 0.81621 0.75888 0.0
C300 C 0.77418 0.83768 0.75301 0.0
O301 O 0.80352 0.8306 0.87976 0.0
O302 O 0.84425 0.8784 0.85441 0.0
C303 C 0.76422 0.75081 0.82194 0.0
C304 C 0.84258 0.70191 0.70616 0.0
C305 C 0.88479 0.65134 0.68588 0.0
C306 C 0.84248 0.64049 0.68889 0.0
C307 C 0.82159 0.66561 0.69881 0.0
C308 C 0.8851 0.71249 0.70472 0.0
C309 C 0.90605 0.68739 0.69455 0.0
C310 C 0.81911 0.72791 0.71501 0.0
C311 C 0.88157 0.77184 0.83705 0.0
H312 H 0.78578 0.98061 0.87928 0.0
H313 H 0.82847 0.94132 0.86311 0.0
H314 H 0.74828 0.8442 0.91409 0.0
H315 H 0.70629 0.88361 0.93111 0.0
H316 H 0.82538 0.61275 0.68291 0.0
H317 H 0.78883 0.65683 0.70023 0.0
H318 H 0.90199 0.74029 0.71071 0.0
H319 H 0.93859 0.69668 0.6921 0.0
Fe320 Fe 0.07524 0.1242 0.54214 0.0
O321 O 0.06728 0.06998 0.55919 0.0
Fe322 Fe 0.11277 0.04314 0.5529 0.0
Fe323 Fe 1.02011 0.03139 0.53869 0.0
O324 O 0.07114 0.07166 0.55699 0.0
O325 O 0.06619 1.00637 0.52858 0.0
O326 O 0.06187 1.00503 0.52928 0.0
Fe327 Fe 0.05621 0.95189 0.54391 0.0
C328 C 0.99509 0.09148 0.57608 0.0
O329 O 1.02795 0.11607 0.50085 0.0
O330 O 1.02883 0.05989 0.48828 0.0
O331 O 0.10756 0.95959 0.51659 0.0
O332 O 0.15041 1.00773 0.5461 0.0
O333 O 0.12994 0.07047 0.50254 0.0
O334 O 0.11778 0.12724 0.50426 0.0
O335 O 0.97602 0.98842 0.51196 0.0
O336 O 1.01344 0.94718 0.49902 0.0
C337 C 0.13405 0.10469 0.4903 0.0
O338 O 0.09389 0.95919 0.59161 0.0
O339 O 0.09742 0.01729 0.60349 0.0
O340 O 1.02954 0.11638 0.5764 0.0
O341 O 0.98337 0.06487 0.55376 0.0
C342 C 1.01442 0.08843 0.48156 0.0
C343 C 0.98113 0.96086 0.49451 0.0
C344 C 0.99814 0.96753 0.59508 0.0
O345 O 1.01045 1.00282 0.59041 0.0
O346 O 1.0071 0.94624 0.57397 0.0
C347 C 0.14225 0.98342 0.52169 0.0
O348 O 0.15641 0.08417 0.5801 0.0
O349 O 0.12328 0.13127 0.58332 0.0
C350 C 0.09979 0.98423 0.61429 0.0
C351 C 0.15309 0.11479 0.59255 0.0
Fe352 Fe 0.54246 1.01161 0.06994 0.0
O353 O 0.58049 0.05511 0.09174 0.0
Fe354 Fe 0.45128 0.04903 0.05275 0.0
Fe355 Fe 0.63975 0.06605 0.08999 0.0
O356 O 0.51198 0.05466 0.05161 0.0
O357 O 0.51393 0.06329 0.05612 0.0
O358 O 0.57696 0.07134 0.09044 0.0
Fe359 Fe 0.54746 0.11745 0.06461 0.0
C360 C 0.6187 0.97877 0.12007 0.0
O361 O 0.57101 0.01938 0.02188 0.0
O362 O 0.63548 0.03852 0.04375 0.0
O363 O 0.506 0.1375 0.02284 0.0
O364 O 0.45084 0.09072 1.00929 0.0
O365 O 0.44861 1.00583 1.01662 0.0
O366 O 0.49525 0.97144 0.04008 0.0
O367 O 0.64781 0.11676 0.05488 0.0
O368 O 0.58938 0.12238 0.02158 0.0
C369 C 0.46385 0.97648 0.01699 0.0
O370 O 0.50771 0.1258 0.10794 0.0
O371 O 0.44709 0.09011 0.09152 0.0
O372 O 0.58329 0.97248 0.09842 0.0
O373 O 0.63818 1.01334 0.12321 0.0
C374 C 0.60891 0.02486 0.01874 0.0
C375 C 0.62907 0.12777 0.0245 0.0
C376 C 0.62202 0.11587 0.13536 0.0
O377 O 0.64642 0.0946 0.13507 0.0
O378 O 0.59388 0.1165 0.10869 0.0
C379 C 0.47186 0.1245 1.00356 0.0
O380 O 0.44957 1.00836 0.09566 0.0
O381 O 0.51265 1.00138 0.11632 0.0
C382 C 0.46808 0.11698 0.11103 0.0
C383 C 0.47455 0.99507 0.11872 0.0
Fe384 Fe 1.04381 0.60252 0.03275 0.0
O385 O 1.00589 0.55808 1.01131 0.0
Fe386 Fe 0.13145 0.56833 0.06126 0.0
Fe387 Fe 0.94572 0.54657 1.0115 0.0
O388 O 0.07268 0.56502 0.0598 0.0
O389 O 0.0718 0.56142 0.06094 0.0
O390 O 1.0046 0.55457 1.01306 0.0
Fe391 Fe 1.03449 0.51775 0.03839 0.0
C392 C 0.97205 0.59107 0.07782 0.0
O393 O 1.0069 0.63594 0.99951 0.0
O394 O 0.95398 0.59163 0.97364 0.0
O395 O 0.06861 0.52615 0.99352 0.0
O396 O 0.12843 0.52828 0.02517 0.0
O397 O 0.13978 0.60801 0.01723 0.0
O398 O 0.07831 0.61026 0.98869 0.0
O399 O 0.94737 0.5069 0.9771 0.0
O400 O 0.99373 0.47667 1.01061 0.0
C401 C 0.11673 0.61524 0.98883 0.0
O402 O 0.07027 0.4848 0.06738 0.0
O403 O 0.12039 0.52437 0.10157 0.0
O404 O 1.00998 0.59454 0.07667 0.0
O405 O 0.94634 0.58301 0.05012 0.0
C406 C 0.97643 0.62526 0.97449 0.0
C407 C 0.96537 0.47937 0.98429 0.0
C408 C 0.96005 0.49445 0.08126 0.0
O409 O 0.93851 0.50338 0.05251 0.0
O410 O 0.99894 0.50563 0.0837 0.0
C411 C 0.1042 0.52029 0.9965 0.0
O412 O 0.13391 0.61132 0.09294 0.0
O413 O 0.08849 0.6442 0.06126 0.0
C414 C 0.09706 0.49189 0.0954 0.0
C415 C 0.11917 0.64088 0.08588 0.0
Fe416 Fe 0.56825 0.54028 0.99082 0.0
O417 O 0.59452 0.57432 0.02977 0.0
Fe418 Fe 0.46547 0.5008 0.02623 0.0
Fe419 Fe 0.65338 0.58352 0.04219 0.0
O420 O 0.52711 0.51784 0.03007 0.0
O421 O 0.5261 0.51656 0.03476 0.0
O422 O 0.5926 0.57514 0.03355 0.0
Fe423 Fe 0.55593 0.55032 0.07372 0.0
C424 C 0.63704 0.50744 1.00911 0.0
O425 O 0.61363 0.56836 0.95517 0.0
O426 O 0.65399 0.61223 0.99169 0.0
O427 O 0.51586 0.58441 0.06067 0.0
O428 O 0.45676 0.54029 0.05815 0.0
O429 O 0.51108 0.53962 1.00754 0.0
O430 O 0.5383 0.58033 0.96698 0.0
O431 O 0.64413 0.62392 0.07203 0.0
O432 O 0.59326 0.5907 0.10862 0.0
C433 C 0.5073 0.56691 0.98338 0.0
O434 O 0.51601 0.51973 0.11205 0.0
O435 O 0.4794 0.47322 0.07701 0.0
O436 O 0.59968 0.50208 1.01363 0.0
O437 O 0.66106 0.53898 1.01479 0.0
C438 C 0.63919 0.60036 0.95991 0.0
C439 C 0.62355 0.6193 0.10091 0.0
C440 C 0.627 0.52461 0.10496 0.0
O441 O 0.65199 0.55285 0.09167 0.0
O442 O 0.59149 0.51362 0.08994 0.0
C443 C 0.47747 0.57314 0.06451 0.0
O444 O 0.47831 0.46602 0.99051 0.0
O445 O 0.53224 0.49979 0.95635 0.0
C446 C 0.49089 0.48756 0.10833 0.0
C447 C 0.50149 0.47139 0.96311 0.0
Fe448 Fe 0.09934 0.43658 0.53393 0.0
O449 O 0.1095 0.49241 0.53156 0.0
Fe450 Fe 0.08102 0.519 0.47831 0.0
Fe451 Fe 0.09026 0.51593 0.57237 0.0
O452 O 0.10752 0.49237 0.52399 0.0
O453 O 0.06517 0.54369 0.52061 0.0
O454 O 0.06675 0.54415 0.52711 0.0
Fe455 Fe 0.07101 0.5985 0.52362 0.0
C456 C 1.03164 0.4413 0.58623 0.0
O457 O 0.14499 0.44569 0.57643 0.0
O458 O 0.12001 0.4807 0.61294 0.0
O459 O 0.11367 0.61122 0.48521 0.0
O460 O 0.133 0.55896 0.47536 0.0
O461 O 0.11045 0.48141 0.44349 0.0
O462 O 0.13631 0.44263 0.48875 0.0
O463 O 0.14464 0.55952 0.58081 0.0
O464 O 0.11705 0.60844 0.56721 0.0
C465 C 0.13308 0.45502 0.45375 0.0
O466 O 1.02559 0.59459 0.4788 0.0
O467 O 1.04388 0.55826 0.4391 0.0
O468 O 0.05804 0.42484 0.57731 0.0
O469 O 1.03433 0.47535 0.57372 0.0
C470 C 0.14326 0.45782 0.60817 0.0
C471 C 0.14407 0.59356 0.5858 0.0
C472 C 1.03741 0.56475 0.59747 0.0
O473 O 0.06327 0.54355 0.60675 0.0
O474 O 1.03244 0.58283 0.56529 0.0
C475 C 0.13743 0.59412 0.47291 0.0
O476 O 1.02797 0.47986 0.48172 0.0
O477 O 0.05106 0.42782 0.49508 0.0
C478 C 1.0231 0.58428 0.4456 0.0
C479 C 1.0229 0.44477 0.4842 0.0
Fe480 Fe 0.55219 0.93185 0.55698 0.0
O481 O 0.5645 0.98507 0.56223 0.0
Fe482 Fe 0.59158 0.02201 0.51946 0.0
Fe483 Fe 0.59605 1.00943 0.60592 0.0
O484 O 0.56432 0.98561 0.55861 0.0
O485 O 0.62475 0.04571 0.56292 0.0
O486 O 0.62616 0.04455 0.56716 0.0
Fe487 Fe 0.63475 0.09902 0.56817 0.0
C488 C 0.52612 0.94448 0.63063 0.0
O489 O 0.59476 0.92196 0.59837 0.0
O490 O 0.63786 0.97571 0.61129 0.0
O491 O 0.6696 0.10245 0.52454 0.0
O492 O 0.6249 0.06563 0.48388 0.0
O493 O 0.6344 0.99298 0.51722 0.0
O494 O 0.5937 0.93539 0.51905 0.0
O495 O 0.6335 0.042 0.64623 0.0
O496 O 0.67549 0.0877 0.6106 0.0
C497 C 0.62656 0.95894 0.51124 0.0
O498 O 0.58898 0.10662 0.52885 0.0
O499 O 0.54809 0.0507 0.52044 0.0
O500 O 0.51619 0.93113 0.59855 0.0
O501 O 0.55847 0.96992 0.63978 0.0
C502 C 0.62784 0.93999 0.61407 0.0
C503 C 0.66543 0.06964 0.64204 0.0
C504 C 0.56187 0.07344 0.61457 0.0
O505 O 0.55328 0.04054 0.60476 0.0
O506 O 0.59554 0.09617 0.60851 0.0
C507 C 0.65605 0.09319 0.49141 0.0
O508 O 0.55274 0.9905 0.47869 0.0
O509 O 0.51201 0.94279 0.51307 0.0
C510 C 0.55507 0.08586 0.51772 0.0
C511 C 0.52091 0.96268 0.48234 0.0
H512 H 0.27451 0.1776 0.38435 0.0
H513 H 0.17686 0.22482 0.32841 0.0
H514 H 0.13013 0.18897 0.37195 0.0
H515 H 0.11716 0.14809 0.42888 0.0
H516 H 0.21111 0.0962 0.4837 0.0
H517 H 0.25858 0.1295 0.43804 0.0
C518 C 0.24294 0.17975 0.38153 0.0
C519 C 0.22976 0.20469 0.35329 0.0
C520 C 0.21537 0.15832 0.40675 0.0
C521 C 0.18843 0.20652 0.34996 0.0
C522 C 0.16139 0.18593 0.37495 0.0
C523 C 0.14788 0.14371 0.4305 0.0
C524 C 0.16069 0.12004 0.45973 0.0
C525 C 0.17462 0.1624 0.40388 0.0
C526 C 0.20046 0.11426 0.46133 0.0
C527 C 0.22769 0.1335 0.43532 0.0
H528 H 0.84004 0.09749 0.41875 0.0
H529 H 0.87887 0.05231 0.32945 0.0
H530 H 0.93082 0.02987 0.37113 0.0
H531 H 0.98159 0.04872 0.4236 0.0
H532 H 0.9524 0.11295 0.50449 0.0
H533 H 0.8827 0.10439 0.47651 0.0
C534 C 0.85847 0.08067 0.40921 0.0
C535 C 0.86004 0.08064 0.37093 0.0
C536 C 0.89258 0.07424 0.43194 0.0
C537 C 0.88004 0.05563 0.35874 0.0
C538 C 0.91081 0.04396 0.38234 0.0
C539 C 0.95968 0.06042 0.43515 0.0
C540 C 0.97228 0.08257 0.46497 0.0
C541 C 0.92046 0.05758 0.41742 0.0
C542 C 0.94369 0.09696 0.48055 0.0
C543 C 0.9036 0.09153 0.46498 0.0
H544 H 0.853 0.83713 0.41157 0.0
H545 H 0.8968 0.91016 0.31661 0.0
H546 H 0.93715 0.95613 0.35725 0.0
H547 H 0.96521 0.97352 0.42011 0.0
H548 H 0.92388 0.89963 0.51491 0.0
H549 H 0.87758 0.85647 0.47443 0.0
C550 C 0.87078 0.86336 0.39971 0.0
C551 C 0.8716 0.86995 0.36088 0.0
C552 C 0.89462 0.88968 0.4234 0.0
C553 C 0.89547 0.90405 0.34626 0.0
C554 C 0.91869 0.93049 0.36954 0.0
C555 C 0.945 0.94856 0.4318 0.0
C556 C 0.94695 0.94028 0.47047 0.0
C557 C 0.91911 0.92339 0.40817 0.0
C558 C 0.92186 0.90714 0.4853 0.0
C559 C 0.89574 0.88224 0.46209 0.0
H560 H 0.19953 0.98218 0.36835 0.0
H561 H 0.3064 0.96144 0.43458 0.0
H562 H 0.28361 0.98166 0.48884 0.0
H563 H 0.22358 0.9869 0.51985 0.0
H564 H 0.11388 0.99881 0.45242 0.0
H565 H 0.1469 0.99992 0.39635 0.0
C566 C 0.21897 0.98397 0.39413 0.0
C567 C 0.2539 0.96956 0.39793 0.0
C568 C 0.20403 0.99242 0.42544 0.0
C569 C 0.27893 0.97202 0.4314 0.0
C570 C 0.26552 0.98289 0.46251 0.0
C571 C 0.20766 0.99074 0.49275 0.0
C572 C 0.16632 0.99151 0.48979 0.0
C573 C 0.22652 0.99014 0.46043 0.0
C574 C 0.1456 0.99708 0.45491 0.0
C575 C 0.16446 0.99799 0.4229 0.0
H576 H 0.22028 0.90099 0.65984 0.0
H577 H 0.2995 1.00751 0.62765 0.0
H578 H 0.24161 0.03718 0.62489 0.0
H579 H 0.16997 0.03202 0.63399 0.0
H580 H 0.09324 0.92528 0.66699 0.0
H581 H 0.15234 0.89738 0.67554 0.0
C582 C 0.2254 0.93067 0.65171 0.0
C583 C 0.26461 0.9522 0.64443 0.0
C584 C 0.19385 0.94782 0.65425 0.0
C585 C 0.26958 0.99039 0.633 0.0
C586 C 0.23705 1.00748 0.63289 0.0
C587 C 0.16657 1.00293 0.64436 0.0
C588 C 0.12748 0.97954 0.64671 0.0
C589 C 0.19956 0.98657 0.64467 0.0
C590 C 0.1233 0.94307 0.66336 0.0
C591 C 0.1566 0.92686 0.66654 0.0
H592 H 0.28855 0.21472 0.69392 0.0
H593 H 0.19947 0.1715 0.7733 0.0
H594 H 0.15792 0.12987 0.72872 0.0
H595 H 0.14351 0.11084 0.66502 0.0
H596 H 0.2299 0.1572 0.58418 0.0
H597 H 0.27597 0.19289 0.63116 0.0
C598 C 0.26038 0.19566 0.70161 0.0
C599 C 0.24701 0.19597 0.73682 0.0
C600 C 0.23603 0.17285 0.67536 0.0
C601 C 0.21018 0.17174 0.7463 0.0
C602 C 0.18646 0.14804 0.72081 0.0
C603 C 0.17286 0.12822 0.65806 0.0
C604 C 0.18375 0.13128 0.62155 0.0
C605 C 0.19856 0.14908 0.68498 0.0
C606 C 0.22142 0.1541 0.61237 0.0
C607 C 0.24752 0.17463 0.63914 0.0
H608 H 0.95791 0.1082 0.73437 0.0
H609 H 0.85247 0.13883 0.67464 0.0
H610 H 0.8682 0.11758 0.61788 0.0
H611 H 0.9195 0.10122 0.58343 0.0
H612 H 1.02683 0.07428 0.64372 0.0
H613 H 1.00292 0.08256 0.70223 0.0
C614 C 0.93769 0.10896 0.70921 0.0
C615 C 0.90441 0.12531 0.7082 0.0
C616 C 0.94774 0.09783 0.67673 0.0
C617 C 0.87852 0.12665 0.67553 0.0
C618 C 0.8876 0.11465 0.64318 0.0
C619 C 0.93665 0.09602 0.60959 0.0
C620 C 0.97465 0.08754 0.60981 0.0
C621 C 0.92323 0.10183 0.64307 0.0
C622 C 0.99735 0.08103 0.64345 0.0
C623 C 0.98385 0.08587 0.67678 0.0
H624 H 0.8745 0.85298 0.69024 0.0
H625 H 0.94352 0.91358 0.77948 0.0
H626 H 0.98357 0.95858 0.73468 0.0
H627 H 1.00176 0.97752 0.66935 0.0
H628 H 0.92906 0.91639 0.58164 0.0
H629 H 0.88684 0.87548 0.62631 0.0
C630 C 0.89839 0.87607 0.69981 0.0
C631 C 0.90699 0.87966 0.73786 0.0
C632 C 0.92023 0.90196 0.67406 0.0
C633 C 0.93699 0.91017 0.75014 0.0
C634 C 0.9597 0.93585 0.72455 0.0
C635 C 0.97605 0.9558 0.66018 0.0
C636 C 0.96868 0.94963 0.62235 0.0
C637 C 0.95196 0.93176 0.68633 0.0
C638 C 0.93546 0.92132 0.61068 0.0
C639 C 0.91143 0.8978 0.63619 0.0
H640 H 0.33012 0.17316 0.20195 0.0
H641 H 0.43315 0.26058 0.23358 0.0
H642 H 0.47641 0.2349 0.19851 0.0
H643 H 0.48909 0.1861 0.15649 0.0
H644 H 0.38621 0.09671 0.1287 0.0
H645 H 0.34344 0.12298 0.1631 0.0
C646 C 0.36203 0.18731 0.20177 0.0
C647 C 0.37587 0.22095 0.22253 0.0
C648 C 0.38891 0.17088 0.18115 0.0
C649 C 0.41881 0.23572 0.21973 0.0
C650 C 0.44459 0.22045 0.19886 0.0
C651 C 0.45739 0.17153 0.15756 0.0
C652 C 0.44334 0.13735 0.13743 0.0
C653 C 0.4308 0.18766 0.17902 0.0
C654 C 0.40077 0.12198 0.14178 0.0
C655 C 0.37516 0.13762 0.16224 0.0
H656 H 0.83473 0.38628 0.18537 0.0
H657 H 0.94594 0.3734 0.24931 0.0
H658 H 0.98633 0.41834 0.20539 0.0
H659 H 0.99037 0.46039 0.14692 0.0
H660 H 0.8778 0.47003 0.0826 0.0
H661 H 0.8386 0.42755 0.12772 0.0
C662 C 0.86777 0.39362 0.18991 0.0
C663 C 0.88712 0.37652 0.22076 0.0
C664 C 0.89098 0.41894 0.16403 0.0
C665 C 0.93012 0.38599 0.22575 0.0
C666 C 0.95334 0.41176 0.20059 0.0
C667 C 0.9573 0.45347 0.14294 0.0
C668 C 0.93755 0.46905 0.11112 0.0
C669 C 0.93419 0.4283 0.1693 0.0
C670 C 0.89442 0.45905 0.10661 0.0
C671 C 0.8716 0.43455 0.13256 0.0
H672 H 0.68004 0.83829 0.23241 0.0
H673 H 0.79803 0.8997 0.20021 0.0
H674 H 0.76592 0.94492 0.16221 0.0
H675 H 0.70418 0.97162 0.13593 0.0
H676 H 0.5848 0.90937 0.16269 0.0
H677 H 0.6164 0.86379 0.20238 0.0
C678 C 0.69957 0.86139 0.2174 0.0
C679 C 0.74403 0.86325 0.22178 0.0
C680 C 0.67968 0.88897 0.19319 0.0
C681 C 0.76519 0.89503 0.19984 0.0
C682 C 0.74618 0.92195 0.1772 0.0
C683 C 0.68412 0.94806 0.14985 0.0
C684 C 0.63996 0.94624 0.14383 0.0
C685 C 0.70332 0.91995 0.17319 0.0
C686 C 0.61768 0.91376 0.16415 0.0
C687 C 0.63649 0.88686 0.18786 0.0
H688 H 0.18758 0.75275 0.2095 0.0
H689 H 0.29783 0.71952 0.19345 0.0
H690 H 0.26281 0.68582 0.14081 0.0
H691 H 0.20008 0.66142 0.10281 0.0
H692 H 0.08765 0.68939 0.12067 0.0
H693 H 0.12431 0.73018 0.16849 0.0
C694 C 0.20397 0.7383 0.19431 0.0
C695 C 0.24534 0.73842 0.20575 0.0
C696 C 0.18322 0.71814 0.16434 0.0
C697 C 0.26599 0.71947 0.18575 0.0
C698 C 0.246 0.70034 0.15548 0.0
C699 C 0.18359 0.6769 0.11675 0.0
C700 C 0.14109 0.6723 0.10814 0.0
C701 C 0.20452 0.6989 0.14502 0.0
C702 C 0.12035 0.69276 0.12631 0.0
C703 C 0.14131 0.71567 0.15403 0.0
H704 H 0.33153 0.85219 0.92468 0.0
H705 H 0.42697 0.87358 0.85072 0.0
H706 H 0.47034 0.91836 0.89153 0.0
H707 H 0.48295 0.95314 0.94962 0.0
H708 H 0.38828 0.92978 0.02455 0.0
H709 H 0.34511 0.88495 0.98375 0.0
C710 C 0.36185 0.86642 0.91729 0.0
C711 C 0.37506 0.85838 0.88355 0.0
C712 C 0.38787 0.89222 0.94205 0.0
C713 C 0.4151 0.87794 0.87589 0.0
C714 C 0.44031 0.90402 0.89959 0.0
C715 C 0.45313 0.93796 0.95753 0.0
C716 C 0.43997 0.94548 0.99155 0.0
C717 C 0.42747 0.91153 0.9331 0.0
C718 C 0.40031 0.92525 0.99953 0.0
C719 C 0.37514 0.89934 0.97572 0.0
H720 H 0.12219 0.41703 0.87461 0.0
H721 H 0.19461 0.37519 0.9667 0.0
H722 H 0.18388 0.42161 1.00482 0.0
H723 H 0.15305 0.47253 1.01262 0.0
H724 H 0.07614 0.51308 0.92338 0.0
H725 H 0.08958 0.46902 0.88316 0.0
C726 C 0.13548 0.41837 0.90301 0.0
C727 C 0.15911 0.39303 0.91815 0.0
C728 C 0.12858 0.44488 0.92502 0.0
C729 C 0.17626 0.39455 0.95484 0.0
C730 C 0.17023 0.42106 0.97651 0.0
C731 C 0.13966 0.47219 0.98419 0.0
C732 C 0.1141 0.49625 0.9708 0.0
C733 C 0.14646 0.44624 0.96194 0.0
C734 C 0.09615 0.49484 0.93419 0.0
C735 C 0.10373 0.46962 0.91129 0.0
H736 H 0.77616 0.21156 0.92115 0.0
H737 H 0.67709 0.2354 0.84548 0.0
H738 H 0.62796 0.20137 0.88923 0.0
H739 H 0.61132 0.16389 0.95109 0.0
H740 H 0.71258 0.14298 0.02632 0.0
H741 H 0.76012 0.17601 0.98217 0.0
C742 C 0.74386 0.20951 0.91389 0.0
C743 C 0.7315 0.22686 0.87887 0.0
C744 C 0.71497 0.18992 0.94002 0.0
C745 C 0.68878 0.22318 0.87152 0.0
C746 C 0.66016 0.20333 0.89694 0.0
C747 C 0.6437 0.16635 0.95812 0.0
C748 C 0.65687 0.14975 0.99353 0.0
C749 C 0.67252 0.18641 0.93167 0.0
C750 C 0.69984 0.15445 1.00038 0.0
C751 C 0.72783 0.17373 0.97465 0.0
H752 H 0.88665 0.69999 0.83828 0.0
H753 H 0.93685 0.79969 0.89443 0.0
H754 H 0.97445 0.76465 0.9409 0.0
H755 H 0.98781 0.7032 0.96904 0.0
H756 H 0.93707 0.60574 0.90884 0.0
H757 H 0.90494 0.64226 0.86156 0.0
C758 C 0.90614 0.71438 0.86036 0.0
C759 C 0.90842 0.75235 0.86292 0.0
C760 C 0.92732 0.69417 0.887 0.0
C761 C 0.9341 0.7703 0.89186 0.0
C762 C 0.95561 0.75024 0.91857 0.0
C763 C 0.97047 0.69024 0.94521 0.0
C764 C 0.96441 0.6514 0.94343 0.0
C765 C 0.95177 0.71178 0.91698 0.0
C766 C 0.94181 0.6353 0.91193 0.0
C767 C 0.92329 0.65618 0.88445 0.0
H768 H 0.07084 0.35496 0.21271 0.0
H769 H 0.092 0.30325 0.11783 0.0
H770 H 0.09832 0.36161 0.0806 0.0
H771 H 0.10714 0.42857 0.07616 0.0
H772 H 0.08974 0.48315 0.16955 0.0
H773 H 0.07665 0.42287 0.20732 0.0
C774 C 0.07645 0.3563 0.18382 0.0
C775 C 0.08251 0.32462 0.169 0.0
C776 C 0.08332 0.39087 0.16285 0.0
C777 C 0.08737 0.32666 0.13079 0.0
C778 C 0.09215 0.36047 0.10935 0.0
C779 C 0.10126 0.42717 0.10507 0.0
C780 C 0.10026 0.45964 0.12072 0.0
C781 C 0.09231 0.39284 0.12563 0.0
C782 C 0.09196 0.45817 0.15773 0.0
C783 C 0.0835 0.42378 0.17883 0.0
H784 H 0.23978 0.68135 0.87111 0.0
H785 H 0.18055 0.77302 0.86625 0.0
H786 H 0.13014 0.73554 0.90697 0.0
H787 H 0.10781 0.67893 0.94896 0.0
H788 H 0.17033 0.58948 0.95572 0.0
H789 H 0.21419 0.62352 0.90819 0.0
C790 C 0.21582 0.69316 0.87894 0.0
C791 C 0.21418 0.73 0.86651 0.0
C792 C 0.18746 0.67172 0.90229 0.0
C793 C 0.18247 0.74471 0.87594 0.0
C794 C 0.15371 0.72334 0.8991 0.0
C795 C 0.13047 0.66676 0.93924 0.0
C796 C 0.13649 0.63224 0.95559 0.0
C797 C 0.15649 0.6871 0.91307 0.0
C798 C 0.16583 0.61636 0.94339 0.0
C799 C 0.19087 0.63579 0.91647 0.0
H800 H 0.425 0.2449 0.87431 0.0
H801 H 0.30429 0.17655 0.88908 0.0
H802 H 0.33275 0.13598 0.93668 0.0
H803 H 0.39172 0.1188 0.97485 0.0
H804 H 0.51236 0.18846 0.96368 0.0
H805 H 0.48442 0.22878 0.91476 0.0
C806 C 0.40482 0.22107 0.88779 0.0
C807 C 0.36207 0.2141 0.87724 0.0
C808 C 0.42156 0.19769 0.9162 0.0
C809 C 0.337 0.18308 0.89593 0.0
C810 C 0.35339 0.15961 0.92341 0.0
C811 C 0.41216 0.14271 0.96174 0.0
C812 C 0.45459 0.14993 0.97335 0.0
C813 C 0.39561 0.16645 0.93385 0.0
C814 C 0.47982 0.18172 0.95586 0.0
C815 C 0.46371 0.20493 0.92762 0.0
H816 H 0.92703 0.34856 0.88177 0.0
H817 H 0.80437 0.35937 0.89119 0.0
H818 H 0.83029 0.40766 0.93358 0.0
H819 H 0.88773 0.44934 0.96436 0.0
H820 H 1.0106 0.4393 0.95599 0.0
H821 H 0.98471 0.38774 0.91642 0.0
C822 C 0.90603 0.36106 0.89367 0.0
C823 C 0.86406 0.35095 0.88328 0.0
C824 C 0.92114 0.38899 0.91766 0.0
C825 C 0.83694 0.36727 0.89856 0.0
C826 C 0.85166 0.3948 0.92273 0.0
C827 C 0.90868 0.43572 0.95381 0.0
C828 C 0.95065 0.44781 0.96226 0.0
C829 C 0.89367 0.40637 0.93171 0.0
C830 C 0.97797 0.42998 0.94943 0.0
C831 C 0.96325 0.40073 0.92694 0.0
H832 H 0.66037 0.92529 0.91192 0.0
H833 H 0.77694 1.00025 0.93767 0.0
H834 H 0.74398 0.03804 0.96902 0.0
H835 H 0.68411 0.04635 0.99486 0.0
H836 H 0.56756 0.96988 0.97428 0.0
H837 H 0.5982 0.93675 0.93447 0.0
C838 C 0.67844 0.95007 0.92416 0.0
C839 C 0.72113 0.95993 0.92224 0.0
C840 C 0.65931 0.97147 0.94304 0.0
C841 C 0.74403 0.9923 0.93801 0.0
C842 C 0.72525 0.01385 0.95627 0.0
C843 C 0.66516 0.02277 0.98122 0.0
C844 C 0.62377 1.01036 0.98788 0.0
C845 C 0.68317 1.00325 0.95962 0.0
C846 C 0.59953 0.9801 0.96955 0.0
C847 C 0.61716 0.96089 0.94713 0.0
H848 H 1.00813 0.69855 0.19861 0.0
H849 H 0.94937 0.76167 0.11168 0.0
H850 H 0.93078 0.70839 0.07522 0.0
H851 H 0.93233 0.64496 0.06714 0.0
H852 H 0.99376 0.58199 0.15132 0.0
H853 H 1.00659 0.63298 0.1917 0.0
C854 C 0.99161 0.70065 0.17154 0.0
C855 C 0.98069 0.73412 0.15774 0.0
C856 C 0.97949 0.66944 0.15124 0.0
C857 C 0.95937 0.73662 0.12256 0.0
C858 C 0.94765 0.70588 0.10205 0.0
C859 C 0.94687 0.64185 0.095 0.0
C860 C 0.96202 0.6103 0.10665 0.0
C861 C 0.95711 0.67215 0.11632 0.0
C862 C 0.98149 0.60631 0.14238 0.0
C863 C 0.98978 0.63572 0.16488 0.0
H864 H 0.38186 0.84359 0.19136 0.0
H865 H 0.37099 0.91538 0.27359 0.0
H866 H 0.41405 0.96862 0.24068 0.0
H867 H 0.45021 0.99557 0.18587 0.0
H868 H 0.45946 0.92438 0.10291 0.0
H869 H 0.42151 0.8697 0.13867 0.0
C870 C 0.38921 0.87089 0.20202 0.0
C871 C 0.37297 0.87609 0.23407 0.0
C872 C 0.41348 0.90127 0.18289 0.0
C873 C 0.38258 0.91127 0.24817 0.0
C874 C 0.40732 0.94158 0.22963 0.0
C875 C 0.44434 0.96786 0.17633 0.0
C876 C 0.4572 0.96312 0.14264 0.0
C877 C 0.42222 0.93702 0.19662 0.0
C878 C 0.4497 0.92775 0.12944 0.0
C879 C 0.428 0.89678 0.14961 0.0
H880 H 0.73205 0.19621 0.25601 0.0
H881 H 0.74517 0.28595 0.16897 0.0
H882 H 0.68635 0.25038 0.1323 0.0
H883 H 0.63897 0.18986 0.12218 0.0
H884 H 0.62904 0.10012 0.20905 0.0
H885 H 0.67739 0.14052 0.25018 0.0
C886 C 0.72197 0.20782 0.22892 0.0
C887 C 0.74329 0.24254 0.21408 0.0
C888 C 0.68813 0.18778 0.20883 0.0
C889 C 0.72941 0.2585 0.17997 0.0
C890 C 0.69574 0.23845 0.15939 0.0
C891 C 0.64584 0.18004 0.1508 0.0
C892 C 0.63108 0.14252 0.16299 0.0
C893 C 0.67559 0.20264 0.1732 0.0
C894 C 0.6402 0.12928 0.19967 0.0
C895 C 0.66841 0.15203 0.22275 0.0
H896 H 0.71103 0.74996 0.87135 0.0
H897 H 0.75527 0.67816 0.80874 0.0
H898 H 0.71563 0.62271 0.8429 0.0
H899 H 0.67444 0.59543 0.89647 0.0
H900 H 0.62804 0.6692 0.95527 0.0
H901 H 0.66151 0.72293 0.91639 0.0
C902 C 0.71123 0.72211 0.86478 0.0
C903 C 0.73591 0.71783 0.83803 0.0
C904 C 0.68788 0.6907 0.88386 0.0
C905 C 0.73614 0.68183 0.82936 0.0
C906 C 0.71364 0.6502 0.84894 0.0
C907 C 0.67047 0.62311 0.89959 0.0
C908 C 0.649 0.62854 0.92861 0.0
C909 C 0.69004 0.65429 0.87695 0.0
C910 C 0.64448 0.66455 0.93296 0.0
C911 C 0.66386 0.69534 0.91099 0.0
H912 H 0.38499 0.667 0.98453 0.0
H913 H 0.29919 0.56343 0.96501 0.0
H914 H 0.35332 0.52952 0.98097 0.0
H915 H 0.42718 0.53297 0.97988 0.0
H916 H 0.51252 0.64002 0.98334 0.0
H917 H 0.45717 0.67022 0.98918 0.0
C918 C 0.37777 0.63673 0.98515 0.0
C919 C 0.33953 0.61793 0.96986 0.0
C920 C 0.40995 0.61899 0.98744 0.0
C921 C 0.32935 0.5787 0.97456 0.0
C922 C 0.36062 0.55955 0.98203 0.0
C923 C 0.43325 0.56289 0.98166 0.0
C924 C 0.47316 0.58461 0.98058 0.0
C925 C 0.40134 0.58 0.9846 0.0
C926 C 0.48149 0.62326 0.98308 0.0
C927 C 0.45016 0.64028 0.9874 0.0
H928 H 0.39501 0.33457 0.8893 0.0
H929 H 0.37954 0.41942 0.80174 0.0
H930 H 0.43212 0.4659 0.83401 0.0
H931 H 0.4771 0.48309 0.89068 0.0
H932 H 0.4924 0.39717 0.9772 0.0
H933 H 0.44661 0.34984 0.94113 0.0
C934 C 0.40311 0.36332 0.87748 0.0
C935 C 0.38279 0.37415 0.84406 0.0
C936 C 0.43394 0.38932 0.89557 0.0
C937 C 0.39439 0.41094 0.82802 0.0
C938 C 0.42456 0.43733 0.84627 0.0
C939 C 0.47167 0.45378 0.90075 0.0
C940 C 0.48802 0.44335 0.93627 0.0
C941 C 0.4441 0.42694 0.8804 0.0
C942 C 0.48027 0.40551 0.94966 0.0
C943 C 0.45364 0.37862 0.92936 0.0
H944 H 0.64944 0.41406 0.87951 0.0
H945 H 0.77805 0.45722 0.90526 0.0
H946 H 0.76384 0.48651 0.95832 0.0
H947 H 0.71355 0.50352 0.99409 0.0
H948 H 0.5852 0.45479 0.96952 0.0
H949 H 0.60049 0.42418 0.91942 0.0
C950 C 0.67419 0.43007 0.89678 0.0
C951 C 0.71443 0.43474 0.88831 0.0
C952 C 0.66581 0.4459 0.92729 0.0
C953 C 0.7467 0.45447 0.91105 0.0
C954 C 0.73858 0.47088 0.94137 0.0
C955 C 0.6891 0.48567 0.97817 0.0
C956 C 0.6483 0.48242 0.98509 0.0
C957 C 0.69809 0.46732 0.94938 0.0
C958 C 0.61693 0.4585 0.96465 0.0
C959 C 0.62553 0.44092 0.93574 0.0
H960 H 0.7821 0.4897 0.16977 0.0
H961 H 0.73693 0.39155 0.11378 0.0
H962 H 0.67503 0.41298 0.08979 0.0
H963 H 0.62876 0.45436 0.09653 0.0
H964 H 0.66879 0.54261 0.16951 0.0
H965 H 0.73442 0.52567 0.18414 0.0
C966 C 0.7576 0.47215 0.15366 0.0
C967 C 0.75692 0.4344 0.15253 0.0
C968 C 0.71975 0.48122 0.14738 0.0
C969 C 0.73284 0.41745 0.12218 0.0
C970 C 0.69702 0.42896 0.10927 0.0
C971 C 0.65103 0.46842 0.11715 0.0
C972 C 0.64543 0.5003 0.13107 0.0
C973 C 0.68862 0.45905 0.12477 0.0
C974 C 0.67352 0.51812 0.15839 0.0
C975 C 0.71146 0.50963 0.16542 0.0
H976 H 0.7482 0.74624 0.17792 0.0
H977 H 0.74623 0.65841 0.26634 0.0
H978 H 0.68973 0.61773 0.23236 0.0
H979 H 0.6446 0.60525 0.17461 0.0
H980 H 0.64679 0.69391 0.08716 0.0
H981 H 0.69844 0.73618 0.12389 0.0
C982 C 0.73567 0.7181 0.18964 0.0
C983 C 0.75224 0.70515 0.22417 0.0
C984 C 0.70257 0.69509 0.17032 0.0
C985 C 0.73471 0.6689 0.2394 0.0
C986 C 0.7021 0.64567 0.22013 0.0
C987 C 0.65516 0.63426 0.16436 0.0
C988 C 0.6416 0.64653 0.12835 0.0
C989 C 0.68598 0.65828 0.18531 0.0
C990 C 0.65635 0.68398 0.11502 0.0
C991 C 0.68641 0.70802 0.13576 0.0
H992 H 0.38611 0.63371 0.17332 0.0
H993 H 0.49579 0.72141 0.17189 0.0
H994 H 0.51773 0.69554 0.12061 0.0
H995 H 0.50934 0.64368 0.08265 0.0
H996 H 0.39956 0.5553 0.08482 0.0
H997 H 0.373 0.58662 0.12843 0.0
C998 C 0.41453 0.64712 0.16129 0.0
C999 C 0.44001 0.67856 0.1761 0.0
C1000 C 0.42662 0.63226 0.13207 0.0
C1001 C 0.47637 0.6967 0.16059 0.0
C1002 C 0.48871 0.68207 0.13143 0.0
C1003 C 0.47928 0.63165 0.0921 0.0
C1004 C 0.45717 0.59671 0.08177 0.0
C1005 C 0.46462 0.64924 0.11777 0.0
C1006 C 0.41767 0.58189 0.09318 0.0
C1007 C 0.40248 0.59959 0.11827 0.0
H1008 H 0.36455 0.41623 0.22567 0.0
H1009 H 0.40273 0.31772 0.20562 0.0
H1010 H 0.45276 0.35504 0.16478 0.0
H1011 H 0.48292 0.41507 0.13197 0.0
H1012 H 0.44853 0.51481 0.15377 0.0
H1013 H 0.40024 0.47811 0.19706 0.0
C1014 C 0.38374 0.40317 0.21204 0.0
C1015 C 0.3795 0.36432 0.21762 0.0
C1016 C 0.41334 0.42508 0.18934 0.0
C1017 C 0.40518 0.34756 0.20097 0.0
C1018 C 0.43387 0.36887 0.17783 0.0
C1019 C 0.46551 0.42877 0.14695 0.0
C1020 C 0.46942 0.46743 0.1402 0.0
C1021 C 0.43796 0.40755 0.17155 0.0
C1022 C 0.44655 0.48509 0.1593 0.0
C1023 C 0.41856 0.46405 0.18361 0.0
H1024 H 0.95967 0.63727 0.70902 0.0
H1025 H 0.8572 0.61007 0.62733 0.0
H1026 H 0.89357 0.57429 0.59694 0.0
H1027 H 0.95713 0.55782 0.5886 0.0
H1028 H 0.06186 0.58749 0.66681 0.0
H1029 H 1.02191 0.61466 0.70408 0.0
C1030 C 0.94528 0.62321 0.68476 0.0
C1031 C 0.90584 0.62644 0.67042 0.0
C1032 C 0.96673 0.60311 0.6669 0.0
C1033 C 0.8873 0.60771 0.63923 0.0
C1034 C 0.90815 0.5874 0.62166 0.0
C1035 C 0.97074 0.56931 0.61443 0.0
C1036 C 1.01203 0.57079 0.62521 0.0
C1037 C 0.94814 0.58578 0.63468 0.0
C1038 C 1.0298 0.58571 0.65847 0.0
C1039 C 1.00715 0.60167 0.67937 0.0
H1040 H 0.39091 0.89019 0.7403 0.0
H1041 H 0.39697 0.78395 0.70515 0.0
H1042 H 0.45226 0.81519 0.66714 0.0
H1043 H 0.4982 0.87197 0.64426 0.0
H1044 H 0.49319 0.97852 0.67836 0.0
H1045 H 0.43831 0.94751 0.71798 0.0
C1046 C 0.40431 0.8739 0.72428 0.0
C1047 C 0.3904 0.83489 0.7256 0.0
C1048 C 0.43637 0.89187 0.70311 0.0
C1049 C 0.40765 0.81402 0.70467 0.0
C1050 C 0.43921 0.83176 0.68311 0.0
C1051 C 0.48523 0.88824 0.66074 0.0
C1052 C 0.49901 0.92704 0.65884 0.0
C1053 C 0.45386 0.87049 0.68244 0.0
C1054 C 0.48285 0.94836 0.68015 0.0
C1055 C 0.45138 0.93075 0.70225 0.0
H1056 H 0.22024 0.37734 0.75537 0.0
H1057 H 0.28258 0.34338 0.67246 0.0
H1058 H 0.25012 0.38017 0.62453 0.0
H1059 H 0.20308 0.4204 0.60466 0.0
H1060 H 0.13829 0.45527 0.68481 0.0
H1061 H 0.17303 0.42069 0.73467 0.0
C1062 C 0.22691 0.37808 0.72685 0.0
C1063 C 0.25432 0.35703 0.71811 0.0
C1064 C 0.20772 0.3998 0.6986 0.0
C1065 C 0.26206 0.35881 0.68067 0.0
C1066 C 0.24336 0.38005 0.65294 0.0
C1067 C 0.19637 0.4209 0.63299 0.0
C1068 C 0.16758 0.44091 0.64036 0.0
C1069 C 0.21602 0.40047 0.66142 0.0
C1070 C 0.16023 0.44074 0.67774 0.0
C1071 C 0.18002 0.42056 0.70639 0.0
H1072 H 0.70912 0.19546 0.74749 0.0
H1073 H 0.81988 0.21853 0.69197 0.0
H1074 H 0.79533 0.16106 0.66116 0.0
H1075 H 0.74392 0.10438 0.65097 0.0
H1076 H 0.63055 0.08264 0.70186 0.0
H1077 H 0.65654 0.13742 0.73702 0.0
C1078 C 0.7276 0.18784 0.72841 0.0
C1079 C 0.76585 0.21103 0.72143 0.0
C1080 C 0.71424 0.15393 0.71219 0.0
C1081 C 0.79017 0.20094 0.69737 0.0
C1082 C 0.77669 0.16779 0.68053 0.0
C1083 C 0.72548 0.11098 0.67076 0.0
C1084 C 0.68557 0.08966 0.67398 0.0
C1085 C 0.73927 0.14382 0.68832 0.0
C1086 C 0.6617 0.09831 0.69949 0.0
C1087 C 0.67615 0.13018 0.71878 0.0
H1088 H 0.85708 0.36289 0.40616 0.0
H1089 H 0.94133 0.32469 0.34765 0.0
H1090 H 0.99908 0.36175 0.38316 0.0
H1091 H 1.02499 0.40323 0.43112 0.0
H1092 H 0.94295 0.44201 0.49152 0.0
H1093 H 0.88393 0.40578 0.45528 0.0
C1094 C 0.8882 0.36246 0.40195 0.0
C1095 C 0.89575 0.34068 0.37572 0.0
C1096 C 0.921 0.38344 0.42266 0.0
C1097 C 0.93559 0.3405 0.36904 0.0
C1098 C 0.96834 0.3618 0.38891 0.0
C1099 C 0.99407 0.40334 0.43648 0.0
C1100 C 0.98744 0.42418 0.46377 0.0
C1101 C 0.96128 0.3829 0.41595 0.0
C1102 C 0.94789 0.42556 0.47034 0.0
C1103 C 0.91453 0.405 0.44983 0.0
H1104 H 0.65044 0.87787 0.38345 0.0
H1105 H 0.69862 0.81146 0.47435 0.0
H1106 H 0.69892 0.8583 0.51638 0.0
H1107 H 0.67573 0.91284 0.52854 0.0
H1108 H 0.62649 0.9787 0.43843 0.0
H1109 H 0.63851 0.93845 0.39395 0.0
C1110 C 0.66122 0.87389 0.41241 0.0
C1111 C 0.67296 0.84087 0.42631 0.0
C1112 C 0.66207 0.90112 0.43613 0.0
C1113 C 0.68758 0.83602 0.46362 0.0
C1114 C 0.68855 0.86301 0.48744 0.0
C1115 C 0.66968 0.91917 0.49894 0.0
C1116 C 0.6505 0.94795 0.48618 0.0
C1117 C 0.67475 0.89504 0.47418 0.0
C1118 C 0.64198 0.95654 0.4482 0.0
C1119 C 0.64798 0.93317 0.42303 0.0
H1120 H 0.2214 0.68311 0.33772 0.0
H1121 H 0.29523 0.74631 0.42331 0.0
H1122 H 0.2598 0.70235 0.47113 0.0
H1123 H 0.20281 0.64951 0.48729 0.0
H1124 H 0.13246 0.58476 0.40109 0.0
H1125 H 0.17187 0.62568 0.35412 0.0
C1126 C 0.22969 0.68689 0.36691 0.0
C1127 C 0.25957 0.7177 0.37763 0.0
C1128 C 0.20999 0.66146 0.39371 0.0
C1129 C 0.27157 0.72251 0.41511 0.0
C1130 C 0.25144 0.69761 0.4422 0.0
C1131 C 0.19695 0.64432 0.45824 0.0
C1132 C 0.16524 0.61505 0.44696 0.0
C1133 C 0.2199 0.66754 0.4317 0.0
C1134 C 0.15725 0.60756 0.4097 0.0
C1135 C 0.17944 0.63087 0.38303 0.0
H1136 H 0.51137 0.18627 0.38377 0.0
H1137 H 0.49305 0.24884 0.47172 0.0
H1138 H 0.50255 0.19851 0.51704 0.0
H1139 H 0.52236 0.14004 0.53209 0.0
H1140 H 0.53397 0.07359 0.44594 0.0
H1141 H 0.51773 0.12152 0.39875 0.0
C1142 C 0.50919 0.18891 0.41277 0.0
C1143 C 0.50288 0.22203 0.42413 0.0
C1144 C 0.51198 0.15885 0.43875 0.0
C1145 C 0.50012 0.22473 0.46199 0.0
C1146 C 0.50436 0.19551 0.48804 0.0
C1147 C 0.5188 0.13506 0.50311 0.0
C1148 C 0.52871 0.10378 0.49217 0.0
C1149 C 0.51068 0.16278 0.47672 0.0
C1150 C 0.52565 0.09769 0.45456 0.0
C1151 C 0.51737 0.12535 0.42776 0.0
H1152 H 0.70164 0.81732 0.71386 0.0
H1153 H 0.79781 0.91276 0.73942 0.0
H1154 H 0.76224 0.95398 0.69798 0.0
H1155 H 0.70285 0.96246 0.65402 0.0
H1156 H 0.60683 0.86506 0.63092 0.0
H1157 H 0.64268 0.8257 0.67185 0.0
C1158 C 0.71454 0.84718 0.71035 0.0
C1159 C 0.75187 0.86225 0.72945 0.0
C1160 C 0.69385 0.87052 0.68684 0.0
C1161 C 0.76867 0.90086 0.72498 0.0
C1162 C 0.74844 0.92432 0.70125 0.0
C1163 C 0.68998 0.93264 0.65777 0.0
C1164 C 0.65232 0.91709 0.63871 0.0
C1165 C 0.71088 0.90947 0.68188 0.0
C1166 C 0.63599 0.87823 0.64448 0.0
C1167 C 0.65638 0.85536 0.66815 0.0
H1168 H 0.73169 0.23819 0.39207 0.0
H1169 H 0.77092 0.15844 0.3352 0.0
H1170 H 0.73328 0.10712 0.37508 0.0
H1171 H 0.6921 0.08474 0.4293 0.0
H1172 H 0.65641 0.16579 0.48707 0.0
H1173 H 0.68912 0.21622 0.44381 0.0
C1174 C 0.73183 0.20959 0.38818 0.0
C1175 C 0.75442 0.20238 0.36076 0.0
C1176 C 0.71061 0.18017 0.4116 0.0
C1177 C 0.75421 0.165 0.35632 0.0
C1178 C 0.73254 0.13551 0.3791 0.0
C1179 C 0.69107 0.11339 0.4319 0.0
C1180 C 0.67198 0.12156 0.46136 0.0
C1181 C 0.71101 0.1427 0.40725 0.0
C1182 C 0.67112 0.15886 0.46468 0.0
C1183 C 0.68989 0.18777 0.44 0.0
H1184 H 0.90841 0.66848 0.31154 0.0
H1185 H 0.9005 0.73009 0.40308 0.0
H1186 H 0.94364 0.69468 0.44264 0.0
H1187 H 0.98491 0.64474 0.45516 0.0
H1188 H 0.99242 0.57948 0.36653 0.0
H1189 H 0.94994 0.61551 0.32528 0.0
C1190 C 0.91574 0.67478 0.34012 0.0
C1191 C 0.89885 0.70449 0.35237 0.0
C1192 C 0.94149 0.65228 0.36476 0.0
C1193 C 0.91076 0.70907 0.39067 0.0
C1194 C 0.93631 0.68809 0.41412 0.0
C1195 C 0.97783 0.63753 0.42683 0.0
C1196 C 0.99453 0.60717 0.41617 0.0
C1197 C 0.95211 0.65925 0.40215 0.0
C1198 C 0.98245 0.60119 0.37803 0.0
C1199 C 0.95725 0.62261 0.35364 0.0
H1200 H 0.43785 0.85633 0.36013 0.0
H1201 H 0.32983 0.88263 0.39256 0.0
H1202 H 0.37217 0.92754 0.43338 0.0
H1203 H 0.43996 0.95591 0.4636 0.0
H1204 H 0.54758 0.93038 0.43015 0.0
H1205 H 0.50551 0.88859 0.38609 0.0
C1206 C 0.42342 0.87187 0.37603 0.0
C1207 C 0.38045 0.86558 0.37353 0.0
C1208 C 0.44804 0.89798 0.39919 0.0
C1209 C 0.36263 0.88643 0.39418 0.0
C1210 C 0.3869 0.91228 0.41748 0.0
C1211 C 0.45413 0.94221 0.44559 0.0
C1212 C 0.49683 0.94703 0.44919 0.0
C1213 C 0.42961 0.91799 0.42054 0.0
C1214 C 0.51493 0.9282 0.42675 0.0
C1215 C 0.49079 0.90383 0.40203 0.0
H1216 H 0.24711 0.34511 0.39951 0.0
H1217 H 0.21234 0.3862 0.2888 0.0
H1218 H 0.17437 0.42536 0.31395 0.0
H1219 H 0.14653 0.45036 0.3692 0.0
H1220 H 0.1816 0.40508 0.47891 0.0
H1221 H 0.21938 0.36848 0.45302 0.0
C1222 C 0.23165 0.36246 0.38002 0.0
C1223 C 0.23518 0.36057 0.34036 0.0
C1224 C 0.20765 0.38585 0.39533 0.0
C1225 C 0.21245 0.38478 0.31863 0.0
C1226 C 0.18978 0.4081 0.33358 0.0
C1227 C 0.16229 0.43299 0.38834 0.0
C1228 C 0.15844 0.43361 0.42853 0.0
C1229 C 0.1863 0.40946 0.37231 0.0
C1230 C 0.18115 0.4084 0.44903 0.0
C1231 C 0.20408 0.38617 0.43374 0.0
H1232 H 0.48497 0.14998 0.72387 0.0
H1233 H 0.44228 0.20093 0.6198 0.0
H1234 H 0.46633 0.15803 0.5861 0.0
H1235 H 0.50619 0.11105 0.58613 0.0
H1236 H 0.55542 0.06409 0.68879 0.0
H1237 H 0.52101 0.09894 0.72364 0.0
C1238 C 0.48053 0.15111 0.69387 0.0
C1239 C 0.46246 0.17861 0.6741 0.0
C1240 C 0.49547 0.12699 0.67465 0.0
C1241 C 0.45668 0.18014 0.63531 0.0
C1242 C 0.47026 0.15563 0.61611 0.0
C1243 C 0.50888 0.10838 0.61602 0.0
C1244 C 0.53342 0.08586 0.63499 0.0
C1245 C 0.49071 0.12973 0.63543 0.0
C1246 C 0.53648 0.08155 0.67383 0.0
C1247 C 0.51713 0.10166 0.69363 0.0
H1248 H 0.86827 0.36785 0.6745 0.0
H1249 H 0.95759 0.33006 0.75321 0.0
H1250 H 1.01135 0.36032 0.71327 0.0
H1251 H 1.03568 0.39746 0.65474 0.0
H1252 H 0.94842 0.43838 0.57665 0.0
H1253 H 0.89337 0.40722 0.61599 0.0
C1254 C 0.8994 0.36605 0.6832 0.0
C1255 C 0.90736 0.34545 0.71799 0.0
C1256 C 0.93162 0.3842 0.65932 0.0
C1257 C 0.94891 0.34461 0.7273 0.0
C1258 C 0.98036 0.36224 0.70409 0.0
C1259 C 1.00464 0.39957 0.64598 0.0
C1260 C 0.99727 0.42068 0.61161 0.0
C1261 C 0.97246 0.38198 0.66976 0.0
C1262 C 0.95616 0.42286 0.60228 0.0
C1263 C 0.92421 0.40478 0.62515 0.0
H1264 H 0.27464 0.6757 0.71484 0.0
H1265 H 0.193 0.75037 0.69963 0.0
H1266 H 0.1512 0.7128 0.65221 0.0
H1267 H 0.13626 0.65863 0.61376 0.0
H1268 H 0.21687 0.5832 0.62717 0.0
H1269 H 0.25971 0.62081 0.67483 0.0
C1270 C 0.24779 0.68405 0.70121 0.0
C1271 C 0.23794 0.71699 0.71187 0.0
C1272 C 0.22327 0.66189 0.67276 0.0
C1273 C 0.20253 0.72617 0.69285 0.0
C1274 C 0.17819 0.70431 0.66535 0.0
C1275 C 0.16332 0.65012 0.62671 0.0
C1276 C 0.17253 0.61719 0.61557 0.0
C1277 C 0.18808 0.67212 0.65478 0.0
C1278 C 0.20802 0.60767 0.63411 0.0
C1279 C 0.23282 0.62951 0.66179 0.0
loop_
_geom_bond_atom_site_label_1
_geom_bond_atom_site_label_2
_geom_bond_distance
_geom_bond_site_symmetry_2
_ccdc_geom_bond_type
Tb0 C9 2.764 . S
Tb0 O10 2.325 . S
Tb0 O13 2.303 . S
Tb0 O17 2.322 . S
Tb0 O18 2.349 . S
Tb0 O21 2.415 . S
Tb0 O22 2.399 . S
Tb1 O11 2.322 . S
Tb1 O12 2.349 . S
Tb1 O14 2.415 . S
Tb1 O15 2.399 . S
Tb1 O16 2.325 . S
Tb1 O19 2.303 . S
Tb1 C30 2.764 . S
C2 O18 1.261 . S
C2 O19 1.257 . S
C3 C6 1.358 . S
C3 C7 1.332 . S
C3 C9 1.504 . S
C4 C5 1.373 . S
C4 C8 1.308 . S
C5 C4 1.373 . S
C5 C6 1.429 . S
C5 H32 0.932 . S
C6 C3 1.358 . S
C6 C5 1.429 . S
C6 H33 0.930 . S
C7 C3 1.332 . S
C7 C8 1.394 . S
C7 H34 0.932 . S
C8 C4 1.308 . S
C8 C7 1.394 . S
C8 H35 0.929 . S
C9 Tb0 2.764 . S
C9 C3 1.504 . S
C9 O21 1.239 . S
C9 O22 1.263 . S
O10 Tb0 2.325 . S
O10 C20 1.236 . S
O11 Tb1 2.322 . S
O11 C20 1.257 . S
O12 Tb1 2.349 . S
O12 C23 1.261 . S
O13 Tb0 2.303 . S
O13 C23 1.257 . S
O14 Tb1 2.415 . S
O14 C30 1.239 . S
O15 Tb1 2.399 . S
O15 C30 1.263 . S
O16 Tb1 2.325 . S
O16 C31 1.236 . S
O17 Tb0 2.322 . S
O17 C31 1.257 . S
O18 Tb0 2.349 . S
O18 C2 1.261 . S
O19 Tb1 2.303 . S
O19 C2 1.257 . S
C20 O10 1.236 . S
C20 O11 1.257 . S
O21 Tb0 2.415 . S
O21 C9 1.239 . S
O22 Tb0 2.399 . S
O22 C9 1.263 . S
C23 O12 1.261 . S
C23 O13 1.257 . S
C24 C27 1.358 . S
C24 C28 1.332 . S
C24 C30 1.504 . S
C25 C26 1.373 . S
C25 C29 1.308 . S
C26 C25 1.373 . S
C26 C27 1.429 . S
C26 H36 0.932 . S
C27 C24 1.358 . S
C27 C26 1.429 . S
C27 H37 0.930 . S
C28 C24 1.332 . S
C28 C29 1.394 . S
C28 H38 0.932 . S
C29 C25 1.308 . S
C29 C28 1.394 . S
C29 H39 0.929 . S
C30 Tb1 2.764 . S
C30 O14 1.239 . S
C30 O15 1.263 . S
C30 C24 1.504 . S
C31 O16 1.236 . S
C31 O17 1.257 . S
H32 C5 0.932 . S
H33 C6 0.930 . S
H34 C7 0.932 . S
H35 C8 0.929 . S
H36 C26 0.932 . S
H37 C27 0.930 . S
H38 C28 0.932 . S
H39 C29 0.929 . S
Tb40 C49 2.764 . S
Tb40 O50 2.325 . S
Tb40 O53 2.303 . S
Tb40 O57 2.322 . S
Tb40 O58 2.349 . S
Tb40 O61 2.415 . S
Tb40 O62 2.399 . S
Tb41 O51 2.322 . S
Tb41 O52 2.349 . S
Tb41 O54 2.415 . S
Tb41 O55 2.399 . S
Tb41 O56 2.325 . S
Tb41 O59 2.303 . S
Tb41 C70 2.764 . S
C42 O58 1.261 . S
C42 O59 1.257 . S
C43 C46 1.358 . S
C43 C47 1.332 . S
C43 C49 1.504 . S
C44 C45 1.373 . S
C44 C48 1.308 . S
C45 C44 1.373 . S
C45 C46 1.429 . S
C45 H72 0.932 . S
C46 C43 1.358 . S
C46 C45 1.429 . S
C46 H73 0.930 . S
C47 C43 1.332 . S
C47 C48 1.394 . S
C47 H74 0.932 . S
C48 C44 1.308 . S
C48 C47 1.394 . S
C48 H75 0.929 . S
C49 Tb40 2.764 . S
C49 C43 1.504 . S
C49 O61 1.239 . S
C49 O62 1.263 . S
O50 Tb40 2.325 . S
O50 C60 1.236 . S
O51 Tb41 2.322 . S
O51 C60 1.257 . S
O52 Tb41 2.349 . S
O52 C63 1.261 . S
O53 Tb40 2.303 . S
O53 C63 1.257 . S
O54 Tb41 2.415 . S
O54 C70 1.239 . S
O55 Tb41 2.399 . S
O55 C70 1.263 . S
O56 Tb41 2.325 . S
O56 C71 1.236 . S
O57 Tb40 2.322 . S
O57 C71 1.257 . S
O58 Tb40 2.349 . S
O58 C42 1.261 . S
O59 Tb41 2.303 . S
O59 C42 1.257 . S
C60 O50 1.236 . S
C60 O51 1.257 . S
O61 Tb40 2.415 . S
O61 C49 1.239 . S
O62 Tb40 2.399 . S
O62 C49 1.263 . S
C63 O52 1.261 . S
C63 O53 1.257 . S
C64 C67 1.358 . S
C64 C68 1.332 . S
C64 C70 1.504 . S
C65 C66 1.373 . S
C65 C69 1.308 . S
C66 C65 1.373 . S
C66 C67 1.429 . S
C66 H76 0.932 . S
C67 C64 1.358 . S
C67 C66 1.429 . S
C67 H77 0.930 . S
C68 C64 1.332 . S
C68 C69 1.394 . S
C68 H78 0.932 . S
C69 C65 1.308 . S
C69 C68 1.394 . S
C69 H79 0.929 . S
C70 Tb41 2.764 . S
C70 O54 1.239 . S
C70 O55 1.263 . S
C70 C64 1.504 . S
C71 O56 1.236 . S
C71 O57 1.257 . S
H72 C45 0.932 . S
H73 C46 0.930 . S
H74 C47 0.932 . S
H75 C48 0.929 . S
H76 C66 0.932 . S
H77 C67 0.930 . S
H78 C68 0.932 . S
H79 C69 0.929 . S
Tb80 C89 2.764 . S
Tb80 O90 2.325 . S
Tb80 O93 2.303 . S
Tb80 O97 2.322 . S
Tb80 O98 2.349 . S
Tb80 O101 2.415 . S
Tb80 O102 2.399 . S
Tb81 O91 2.322 . S
Tb81 O92 2.349 . S
Tb81 O94 2.415 . S
Tb81 O95 2.399 . S
Tb81 O96 2.325 . S
Tb81 O99 2.303 . S
Tb81 C110 2.764 . S
C82 O98 1.261 . S
C82 O99 1.257 . S
C83 C86 1.358 . S
C83 C87 1.332 . S
C83 C89 1.504 . S
C84 C85 1.373 . S
C84 C88 1.308 . S
C85 C84 1.373 . S
C85 C86 1.429 . S
C85 H112 0.932 . S
C86 C83 1.358 . S
C86 C85 1.429 . S
C86 H113 0.930 . S
C87 C83 1.332 . S
C87 C88 1.394 . S
C87 H114 0.932 . S
C88 C84 1.308 . S
C88 C87 1.394 . S
C88 H115 0.929 . S
C89 Tb80 2.764 . S
C89 C83 1.504 . S
C89 O101 1.239 . S
C89 O102 1.263 . S
O90 Tb80 2.325 . S
O90 C100 1.236 . S
O91 Tb81 2.322 . S
O91 C100 1.257 . S
O92 Tb81 2.349 . S
O92 C103 1.261 . S
O93 Tb80 2.303 . S
O93 C103 1.257 . S
O94 Tb81 2.415 . S
O94 C110 1.239 . S
O95 Tb81 2.399 . S
O95 C110 1.263 . S
O96 Tb81 2.325 . S
O96 C111 1.236 . S
O97 Tb80 2.322 . S
O97 C111 1.257 . S
O98 Tb80 2.349 . S
O98 C82 1.261 . S
O99 Tb81 2.303 . S
O99 C82 1.257 . S
C100 O90 1.236 . S
C100 O91 1.257 . S
O101 Tb80 2.415 . S
O101 C89 1.239 . S
O102 Tb80 2.399 . S
O102 C89 1.263 . S
C103 O92 1.261 . S
C103 O93 1.257 . S
C104 C107 1.358 . S
C104 C108 1.332 . S
C104 C110 1.504 . S
C105 C106 1.373 . S
C105 C109 1.308 . S
C106 C105 1.373 . S
C106 C107 1.429 . S
C106 H116 0.932 . S
C107 C104 1.358 . S
C107 C106 1.429 . S
C107 H117 0.930 . S
C108 C104 1.332 . S
C108 C109 1.394 . S
C108 H118 0.932 . S
C109 C105 1.308 . S
C109 C108 1.394 . S
C109 H119 0.929 . S
C110 Tb81 2.764 . S
C110 O94 1.239 . S
C110 O95 1.263 . S
C110 C104 1.504 . S
C111 O96 1.236 . S
C111 O97 1.257 . S
H112 C85 0.932 . S
H113 C86 0.930 . S
H114 C87 0.932 . S
H115 C88 0.929 . S
H116 C106 0.932 . S
H117 C107 0.930 . S
H118 C108 0.932 . S
H119 C109 0.929 . S
Tb120 C129 2.764 . S
Tb120 O130 2.325 . S
Tb120 O133 2.303 . S
Tb120 O137 2.322 . S
Tb120 O138 2.349 . S
Tb120 O141 2.415 . S
Tb120 O142 2.399 . S
Tb121 O131 2.322 . S
Tb121 O132 2.349 . S
Tb121 O134 2.415 . S
Tb121 O135 2.399 . S
Tb121 O136 2.325 . S
Tb121 O139 2.303 . S
Tb121 C150 2.764 . S
C122 O138 1.261 . S
C122 O139 1.257 . S
C123 C126 1.358 . S
C123 C127 1.332 . S
C123 C129 1.504 . S
C124 C125 1.373 . S
C124 C128 1.308 . S
C125 C124 1.373 . S
C125 C126 1.429 . S
C125 H152 0.932 . S
C126 C123 1.358 . S
C126 C125 1.429 . S
C126 H153 0.930 . S
C127 C123 1.332 . S
C127 C128 1.394 . S
C127 H154 0.932 . S
C128 C124 1.308 . S
C128 C127 1.394 . S
C128 H155 0.929 . S
C129 Tb120 2.764 . S
C129 C123 1.504 . S
C129 O141 1.239 . S
C129 O142 1.263 . S
O130 Tb120 2.325 . S
O130 C140 1.236 . S
O131 Tb121 2.322 . S
O131 C140 1.257 . S
O132 Tb121 2.349 . S
O132 C143 1.261 . S
O133 Tb120 2.303 . S
O133 C143 1.257 . S
O134 Tb121 2.415 . S
O134 C150 1.239 . S
O135 Tb121 2.399 . S
O135 C150 1.263 . S
O136 Tb121 2.325 . S
O136 C151 1.236 . S
O137 Tb120 2.322 . S
O137 C151 1.257 . S
O138 Tb120 2.349 . S
O138 C122 1.261 . S
O139 Tb121 2.303 . S
O139 C122 1.257 . S
C140 O130 1.236 . S
C140 O131 1.257 . S
O141 Tb120 2.415 . S
O141 C129 1.239 . S
O142 Tb120 2.399 . S
O142 C129 1.263 . S
C143 O132 1.261 . S
C143 O133 1.257 . S
C144 C147 1.358 . S
C144 C148 1.332 . S
C144 C150 1.504 . S
C145 C146 1.373 . S
C145 C149 1.308 . S
C146 C145 1.373 . S
C146 C147 1.429 . S
C146 H156 0.932 . S
C147 C144 1.358 . S
C147 C146 1.429 . S
C147 H157 0.930 . S
C148 C144 1.332 . S
C148 C149 1.394 . S
C148 H158 0.932 . S
C149 C145 1.308 . S
C149 C148 1.394 . S
C149 H159 0.929 . S
C150 Tb121 2.764 . S
C150 O134 1.239 . S
C150 O135 1.263 . S
C150 C144 1.504 . S
C151 O136 1.236 . S
C151 O137 1.257 . S
H152 C125 0.932 . S
H153 C126 0.930 . S
H154 C127 0.932 . S
H155 C128 0.929 . S
H156 C146 0.932 . S
H157 C147 0.930 . S
H158 C148 0.932 . S
H159 C149 0.929 . S
Tb160 C169 2.764 . S
Tb160 O170 2.325 . S
Tb160 O173 2.303 . S
Tb160 O177 2.322 . S
Tb160 O178 2.349 . S
Tb160 O181 2.415 . S
Tb160 O182 2.399 . S
Tb161 O171 2.322 . S
Tb161 O172 2.349 . S
Tb161 O174 2.415 . S
Tb161 O175 2.399 . S
Tb161 O176 2.325 . S
Tb161 O179 2.303 . S
Tb161 C190 2.764 . S
C162 O178 1.261 . S
C162 O179 1.257 . S
C163 C166 1.358 . S
C163 C167 1.332 . S
C163 C169 1.504 . S
C164 C165 1.373 . S
C164 C168 1.308 . S
C165 C164 1.373 . S
C165 C166 1.429 . S
C165 H192 0.932 . S
C166 C163 1.358 . S
C166 C165 1.429 . S
C166 H193 0.930 . S
C167 C163 1.332 . S
C167 C168 1.394 . S
C167 H194 0.932 . S
C168 C164 1.308 . S
C168 C167 1.394 . S
C168 H195 0.929 . S
C169 Tb160 2.764 . S
C169 C163 1.504 . S
C169 O181 1.239 . S
C169 O182 1.263 . S
O170 Tb160 2.325 . S
O170 C180 1.236 . S
O171 Tb161 2.322 . S
O171 C180 1.257 . S
O172 Tb161 2.349 . S
O172 C183 1.261 . S
O173 Tb160 2.303 . S
O173 C183 1.257 . S
O174 Tb161 2.415 . S
O174 C190 1.239 . S
O175 Tb161 2.399 . S
O175 C190 1.263 . S
O176 Tb161 2.325 . S
O176 C191 1.236 . S
O177 Tb160 2.322 . S
O177 C191 1.257 . S
O178 Tb160 2.349 . S
O178 C162 1.261 . S
O179 Tb161 2.303 . S
O179 C162 1.257 . S
C180 O170 1.236 . S
C180 O171 1.257 . S
O181 Tb160 2.415 . S
O181 C169 1.239 . S
O182 Tb160 2.399 . S
O182 C169 1.263 . S
C183 O172 1.261 . S
C183 O173 1.257 . S
C184 C187 1.358 . S
C184 C188 1.332 . S
C184 C190 1.504 . S
C185 C186 1.373 . S
C185 C189 1.308 . S
C186 C185 1.373 . S
C186 C187 1.429 . S
C186 H196 0.932 . S
C187 C184 1.358 . S
C187 C186 1.429 . S
C187 H197 0.930 . S
C188 C184 1.332 . S
C188 C189 1.394 . S
C188 H198 0.932 . S
C189 C185 1.308 . S
C189 C188 1.394 . S
C189 H199 0.929 . S
C190 Tb161 2.764 . S
C190 O174 1.239 . S
C190 O175 1.263 . S
C190 C184 1.504 . S
C191 O176 1.236 . S
C191 O177 1.257 . S
H192 C165 0.932 . S
H193 C166 0.930 . S
H194 C167 0.932 . S
H195 C168 0.929 . S
H196 C186 0.932 . S
H197 C187 0.930 . S
H198 C188 0.932 . S
H199 C189 0.929 . S
Tb200 C209 2.764 . S
Tb200 O210 2.325 . S
Tb200 O213 2.303 . S
Tb200 O217 2.322 . S
Tb200 O218 2.349 . S
Tb200 O221 2.415 . S
Tb200 O222 2.399 . S
Tb201 O211 2.322 . S
Tb201 O212 2.349 . S
Tb201 O214 2.415 . S
Tb201 O215 2.399 . S
Tb201 O216 2.325 . S
Tb201 O219 2.303 . S
Tb201 C230 2.764 . S
C202 O218 1.261 . S
C202 O219 1.257 . S
C203 C206 1.358 . S
C203 C207 1.332 . S
C203 C209 1.504 . S
C204 C205 1.373 . S
C204 C208 1.308 . S
C205 C204 1.373 . S
C205 C206 1.429 . S
C205 H232 0.932 . S
C206 C203 1.358 . S
C206 C205 1.429 . S
C206 H233 0.930 . S
C207 C203 1.332 . S
C207 C208 1.394 . S
C207 H234 0.932 . S
C208 C204 1.308 . S
C208 C207 1.394 . S
C208 H235 0.929 . S
C209 Tb200 2.764 . S
C209 C203 1.504 . S
C209 O221 1.239 . S
C209 O222 1.263 . S
O210 Tb200 2.325 . S
O210 C220 1.236 . S
O211 Tb201 2.322 . S
O211 C220 1.257 . S
O212 Tb201 2.349 . S
O212 C223 1.261 . S
O213 Tb200 2.303 . S
O213 C223 1.257 . S
O214 Tb201 2.415 . S
O214 C230 1.239 . S
O215 Tb201 2.399 . S
O215 C230 1.263 . S
O216 Tb201 2.325 . S
O216 C231 1.236 . S
O217 Tb200 2.322 . S
O217 C231 1.257 . S
O218 Tb200 2.349 . S
O218 C202 1.261 . S
O219 Tb201 2.303 . S
O219 C202 1.257 . S
C220 O210 1.236 . S
C220 O211 1.257 . S
O221 Tb200 2.415 . S
O221 C209 1.239 . S
O222 Tb200 2.399 . S
O222 C209 1.263 . S
C223 O212 1.261 . S
C223 O213 1.257 . S
C224 C227 1.358 . S
C224 C228 1.332 . S
C224 C230 1.504 . S
C225 C226 1.373 . S
C225 C229 1.308 . S
C226 C225 1.373 . S
C226 C227 1.429 . S
C226 H236 0.932 . S
C227 C224 1.358 . S
C227 C226 1.429 . S
C227 H237 0.930 . S
C228 C224 1.332 . S
C228 C229 1.394 . S
C228 H238 0.932 . S
C229 C225 1.308 . S
C229 C228 1.394 . S
C229 H239 0.929 . S
C230 Tb201 2.764 . S
C230 O214 1.239 . S
C230 O215 1.263 . S
C230 C224 1.504 . S
C231 O216 1.236 . S
C231 O217 1.257 . S
H232 C205 0.932 . S
H233 C206 0.930 . S
H234 C207 0.932 . S
H235 C208 0.929 . S
H236 C226 0.932 . S
H237 C227 0.930 . S
H238 C228 0.932 . S
H239 C229 0.929 . S
Tb240 C249 2.764 . S
Tb240 O250 2.325 . S
Tb240 O253 2.303 . S
Tb240 O257 2.322 . S
Tb240 O258 2.349 . S
Tb240 O261 2.415 . S
Tb240 O262 2.399 . S
Tb241 O251 2.322 . S
Tb241 O252 2.349 . S
Tb241 O254 2.415 . S
Tb241 O255 2.399 . S
Tb241 O256 2.325 . S
Tb241 O259 2.303 . S
Tb241 C270 2.764 . S
C242 O258 1.261 . S
C242 O259 1.257 . S
C243 C246 1.358 . S
C243 C247 1.332 . S
C243 C249 1.504 . S
C244 C245 1.373 . S
C244 C248 1.308 . S
C245 C244 1.373 . S
C245 C246 1.429 . S
C245 H272 0.932 . S
C246 C243 1.358 . S
C246 C245 1.429 . S
C246 H273 0.930 . S
C247 C243 1.332 . S
C247 C248 1.394 . S
C247 H274 0.932 . S
C248 C244 1.308 . S
C248 C247 1.394 . S
C248 H275 0.929 . S
C249 Tb240 2.764 . S
C249 C243 1.504 . S
C249 O261 1.239 . S
C249 O262 1.263 . S
O250 Tb240 2.325 . S
O250 C260 1.236 . S
O251 Tb241 2.322 . S
O251 C260 1.257 . S
O252 Tb241 2.349 . S
O252 C263 1.261 . S
O253 Tb240 2.303 . S
O253 C263 1.257 . S
O254 Tb241 2.415 . S
O254 C270 1.239 . S
O255 Tb241 2.399 . S
O255 C270 1.263 . S
O256 Tb241 2.325 . S
O256 C271 1.236 . S
O257 Tb240 2.322 . S
O257 C271 1.257 . S
O258 Tb240 2.349 . S
O258 C242 1.261 . S
O259 Tb241 2.303 . S
O259 C242 1.257 . S
C260 O250 1.236 . S
C260 O251 1.257 . S
O261 Tb240 2.415 . S
O261 C249 1.239 . S
O262 Tb240 2.399 . S
O262 C249 1.263 . S
C263 O252 1.261 . S
C263 O253 1.257 . S
C264 C267 1.358 . S
C264 C268 1.332 . S
C264 C270 1.504 . S
C265 C266 1.373 . S
C265 C269 1.308 . S
C266 C265 1.373 . S
C266 C267 1.429 . S
C266 H276 0.932 . S
C267 C264 1.358 . S
C267 C266 1.429 . S
C267 H277 0.930 . S
C268 C264 1.332 . S
C268 C269 1.394 . S
C268 H278 0.932 . S
C269 C265 1.308 . S
C269 C268 1.394 . S
C269 H279 0.929 . S
C270 Tb241 2.764 . S
C270 O254 1.239 . S
C270 O255 1.263 . S
C270 C264 1.504 . S
C271 O256 1.236 . S
C271 O257 1.257 . S
H272 C245 0.932 . S
H273 C246 0.930 . S
H274 C247 0.932 . S
H275 C248 0.929 . S
H276 C266 0.932 . S
H277 C267 0.930 . S
H278 C268 0.932 . S
H279 C269 0.929 . S
Tb280 C289 2.764 . S
Tb280 O290 2.325 . S
Tb280 O293 2.303 . S
Tb280 O297 2.322 . S
Tb280 O298 2.349 . S
Tb280 O301 2.415 . S
Tb280 O302 2.399 . S
Tb281 O291 2.322 . S
Tb281 O292 2.349 . S
Tb281 O294 2.415 . S
Tb281 O295 2.399 . S
Tb281 O296 2.325 . S
Tb281 O299 2.303 . S
Tb281 C310 2.764 . S
C282 O298 1.261 . S
C282 O299 1.257 . S
C283 C286 1.358 . S
C283 C287 1.332 . S
C283 C289 1.504 . S
C284 C285 1.373 . S
C284 C288 1.308 . S
C285 C284 1.373 . S
C285 C286 1.429 . S
C285 H312 0.932 . S
C286 C283 1.358 . S
C286 C285 1.429 . S
C286 H313 0.930 . S
C287 C283 1.332 . S
C287 C288 1.394 . S
C287 H314 0.932 . S
C288 C284 1.308 . S
C288 C287 1.394 . S
C288 H315 0.929 . S
C289 Tb280 2.764 . S
C289 C283 1.504 . S
C289 O301 1.239 . S
C289 O302 1.263 . S
O290 Tb280 2.325 . S
O290 C300 1.236 . S
O291 Tb281 2.322 . S
O291 C300 1.257 . S
O292 Tb281 2.349 . S
O292 C303 1.261 . S
O293 Tb280 2.303 . S
O293 C303 1.257 . S
O294 Tb281 2.415 . S
O294 C310 1.239 . S
O295 Tb281 2.399 . S
O295 C310 1.263 . S
O296 Tb281 2.325 . S
O296 C311 1.236 . S
O297 Tb280 2.322 . S
O297 C311 1.257 . S
O298 Tb280 2.349 . S
O298 C282 1.261 . S
O299 Tb281 2.303 . S
O299 C282 1.257 . S
C300 O290 1.236 . S
C300 O291 1.257 . S
O301 Tb280 2.415 . S
O301 C289 1.239 . S
O302 Tb280 2.399 . S
O302 C289 1.263 . S
C303 O292 1.261 . S
C303 O293 1.257 . S
C304 C307 1.358 . S
C304 C308 1.332 . S
C304 C310 1.504 . S
C305 C306 1.373 . S
C305 C309 1.308 . S
C306 C305 1.373 . S
C306 C307 1.429 . S
C306 H316 0.932 . S
C307 C304 1.358 . S
C307 C306 1.429 . S
C307 H317 0.930 . S
C308 C304 1.332 . S
C308 C309 1.394 . S
C308 H318 0.932 . S
C309 C305 1.308 . S
C309 C308 1.394 . S
C309 H319 0.929 . S
C310 Tb281 2.764 . S
C310 O294 1.239 . S
C310 O295 1.263 . S
C310 C304 1.504 . S
C311 O296 1.236 . S
C311 O297 1.257 . S
H312 C285 0.932 . S
H313 C286 0.930 . S
H314 C287 0.932 . S
H315 C288 0.929 . S
H316 C306 0.932 . S
H317 C307 0.930 . S
H318 C308 0.932 . S
H319 C309 0.929 . S
Fe320 O321 1.886 1_455 S
Fe320 O324 1.715 . S
Fe320 O329 2.077 1_455 S
Fe320 O334 1.935 . S
Fe320 O340 2.077 1_455 S
Fe320 O349 1.935 . S
O321 Fe320 1.886 1_655 S
O321 Fe323 1.715 . S
Fe322 O324 1.886 . S
Fe322 O325 1.715 1_545 S
Fe322 O332 1.935 . S
Fe322 O333 2.077 . S
Fe322 O339 1.935 . S
Fe322 O348 2.077 . S
Fe323 O321 1.715 . S
Fe323 O326 1.886 1_545 S
Fe323 O330 1.935 . S
Fe323 O335 2.077 1_545 S
Fe323 O341 1.935 . S
Fe323 O345 2.077 1_545 S
O324 Fe320 1.715 . S
O324 Fe322 1.886 . S
O325 Fe322 1.715 1_565 S
O325 Fe327 1.886 . S
O326 Fe323 1.886 1_565 S
O326 Fe327 1.715 1_655 S
Fe327 O325 1.886 . S
Fe327 O326 1.715 1_455 S
Fe327 O331 2.077 . S
Fe327 O336 1.935 1_455 S
Fe327 O338 2.077 . S
Fe327 O346 1.935 1_455 S
C328 O340 1.381 . S
C328 O341 1.421 . S
O329 Fe320 2.077 1_655 S
O329 C342 1.381 . S
O330 Fe323 1.935 . S
O330 C342 1.421 . S
O331 Fe327 2.077 . S
O331 C347 1.381 . S
O332 Fe322 1.935 . S
O332 C347 1.421 1_545 S
O333 Fe322 2.077 . S
O333 C337 1.381 . S
O334 Fe320 1.935 . S
O334 C337 1.421 . S
O335 Fe323 2.077 1_565 S
O335 C343 1.381 . S
O336 Fe327 1.935 1_655 S
O336 C343 1.421 . S
C337 O333 1.381 . S
C337 O334 1.421 . S
O338 Fe327 2.077 . S
O338 C350 1.381 . S
O339 Fe322 1.935 . S
O339 C350 1.421 1_545 S
O340 Fe320 2.077 1_655 S
O340 C328 1.381 . S
O341 Fe323 1.935 . S
O341 C328 1.421 . S
C342 O329 1.381 . S
C342 O330 1.421 . S
C343 O335 1.381 . S
C343 O336 1.421 . S
C344 O345 1.381 . S
C344 O346 1.421 . S
O345 Fe323 2.077 1_565 S
O345 C344 1.381 . S
O346 Fe327 1.935 1_655 S
O346 C344 1.421 . S
C347 O331 1.381 . S
C347 O332 1.421 1_565 S
O348 Fe322 2.077 . S
O348 C351 1.381 . S
O349 Fe320 1.935 . S
O349 C351 1.421 . S
C350 O338 1.381 . S
C350 O339 1.421 1_565 S
C351 O348 1.381 . S
C351 O349 1.421 . S
Fe352 O353 1.886 1_565 S
Fe352 O356 1.715 . S
Fe352 O361 2.077 . S
Fe352 O366 1.935 . S
Fe352 O372 2.077 . S
Fe352 O381 1.935 . S
O353 Fe352 1.886 1_545 S
O353 Fe355 1.715 . S
Fe354 O356 1.886 1_545 S
Fe354 O357 1.715 . S
Fe354 O364 1.935 . S
Fe354 O365 2.077 1_545 S
Fe354 O371 1.935 . S
Fe354 O380 2.077 1_545 S
Fe355 O353 1.715 . S
Fe355 O358 1.886 . S
Fe355 O362 1.935 . S
Fe355 O367 2.077 . S
Fe355 O373 1.935 . S
Fe355 O377 2.077 . S
O356 Fe352 1.715 . S
O356 Fe354 1.886 1_565 S
O357 Fe354 1.715 . S
O357 Fe359 1.886 . S
O358 Fe355 1.886 . S
O358 Fe359 1.715 . S
Fe359 O357 1.886 . S
Fe359 O358 1.715 . S
Fe359 O363 2.077 . S
Fe359 O368 1.935 . S
Fe359 O370 2.077 . S
Fe359 O378 1.935 . S
C360 O372 1.381 . S
C360 O373 1.421 1_565 S
O361 Fe352 2.077 . S
O361 C374 1.384 . S
O362 Fe355 1.935 . S
O362 C374 1.422 1_545 S
O363 Fe359 2.077 . S
O363 C379 1.381 1_554 S
O364 Fe354 1.935 . S
O364 C379 1.421 1_554 S
O365 Fe354 2.077 1_565 S
O365 C369 1.381 1_554 S
O366 Fe352 1.935 . S
O366 C369 1.421 1_554 S
O367 Fe355 2.077 . S
O367 C375 1.381 1_554 S
O368 Fe359 1.935 . S
O368 C375 1.421 1_554 S
C369 O365 1.381 1_556 S
C369 O366 1.421 1_556 S
O370 Fe359 2.077 . S
O370 C382 1.381 . S
O371 Fe354 1.935 . S
O371 C382 1.421 . S
O372 Fe352 2.077 . S
O372 C360 1.381 . S
O373 Fe355 1.935 . S
O373 C360 1.421 1_545 S
C374 O361 1.384 . S
C374 O362 1.422 1_565 S
C375 O367 1.381 1_556 S
C375 O368 1.421 1_556 S
C376 O377 1.381 . S
C376 O378 1.421 . S
O377 Fe355 2.077 . S
O377 C376 1.381 . S
O378 Fe359 1.935 . S
O378 C376 1.421 . S
C379 O363 1.381 1_556 S
C379 O364 1.421 1_556 S
O380 Fe354 2.077 1_565 S
O380 C383 1.381 . S
O381 Fe352 1.935 . S
O381 C383 1.421 . S
C382 O370 1.381 . S
C382 O371 1.421 . S
C383 O380 1.381 . S
C383 O381 1.421 . S
Fe384 O385 1.886 1_455 S
Fe384 O388 1.717 1_556 S
Fe384 O393 2.098 1_455 S
Fe384 O398 1.961 . S
Fe384 O404 2.054 1_456 S
Fe384 O413 1.910 1_556 S
O385 Fe384 1.886 1_655 S
O385 Fe387 1.715 . S
Fe386 O388 1.886 . S
Fe386 O389 1.715 . S
Fe386 O396 1.935 1_554 S
Fe386 O397 2.077 1_554 S
Fe386 O403 1.935 . S
Fe386 O412 2.077 . S
Fe387 O385 1.715 . S
Fe387 O390 1.887 1_556 S
Fe387 O394 1.935 . S
Fe387 O399 2.077 . S
Fe387 O405 1.935 1_556 S
Fe387 O409 2.077 1_556 S
O388 Fe384 1.717 1_554 S
O388 Fe386 1.886 . S
O389 Fe386 1.715 . S
O389 Fe391 1.886 1_455 S
O390 Fe387 1.887 1_554 S
O390 Fe391 1.714 . S
Fe391 O389 1.886 1_655 S
Fe391 O390 1.714 . S
Fe391 O395 2.077 1_654 S
Fe391 O400 1.935 1_554 S
Fe391 O402 2.077 1_655 S
Fe391 O410 1.935 . S
C392 O404 1.381 . S
C392 O405 1.421 . S
O393 Fe384 2.098 1_655 S
O393 C406 1.381 . S
O394 Fe387 1.935 . S
O394 C406 1.421 . S
O395 Fe391 2.077 1_456 S
O395 C411 1.381 . S
O396 Fe386 1.935 1_556 S
O396 C411 1.421 . S
O397 Fe386 2.077 1_556 S
O397 C401 1.381 . S
O398 Fe384 1.961 . S
O398 C401 1.421 . S
O399 Fe387 2.077 . S
O399 C407 1.381 . S
O400 Fe391 1.935 1_556 S
O400 C407 1.421 . S
C401 O397 1.381 . S
C401 O398 1.421 . S
O402 Fe391 2.077 1_455 S
O402 C414 1.381 . S
O403 Fe386 1.935 . S
O403 C414 1.421 . S
O404 Fe384 2.054 1_654 S
O404 C392 1.381 . S
O405 Fe387 1.935 1_554 S
O405 C392 1.421 . S
C406 O393 1.381 . S
C406 O394 1.421 . S
C407 O399 1.381 . S
C407 O400 1.421 . S
C408 O409 1.381 . S
C408 O410 1.421 . S
O409 Fe387 2.077 1_554 S
O409 C408 1.381 . S
O410 Fe391 1.935 . S
O410 C408 1.421 . S
C411 O395 1.381 . S
C411 O396 1.421 . S
O412 Fe386 2.077 . S
O412 C415 1.381 . S
O413 Fe384 1.910 1_554 S
O413 C415 1.421 . S
C414 O402 1.381 . S
C414 O403 1.421 . S
C415 O412 1.381 . S
C415 O413 1.421 . S
Fe416 O417 1.886 . S
Fe416 O420 1.715 . S
Fe416 O425 2.077 . S
Fe416 O430 1.935 . S
Fe416 O436 2.077 . S
Fe416 O445 1.935 . S
O417 Fe416 1.886 . S
O417 Fe419 1.715 1_556 S
Fe418 O420 1.886 1_554 S
Fe418 O421 1.715 . S
Fe418 O428 1.935 . S
Fe418 O429 2.077 1_554 S
Fe418 O435 1.935 . S
Fe418 O444 2.077 1_554 S
Fe419 O417 1.715 1_554 S
Fe419 O422 1.886 . S
Fe419 O426 1.936 . S
Fe419 O431 2.077 . S
Fe419 O437 1.935 . S
Fe419 O441 2.077 . S
O420 Fe416 1.715 . S
O420 Fe418 1.886 1_556 S
O421 Fe418 1.715 . S
O421 Fe423 1.886 . S
O422 Fe419 1.886 . S
O422 Fe423 1.715 . S
Fe423 O421 1.886 . S
Fe423 O422 1.715 . S
Fe423 O427 2.077 . S
Fe423 O432 1.935 . S
Fe423 O434 2.077 . S
Fe423 O442 1.935 . S
C424 O436 1.381 . S
C424 O437 1.421 1_556 S
O425 Fe416 2.077 . S
O425 C438 1.381 . S
O426 Fe419 1.936 . S
O426 C438 1.420 1_554 S
O427 Fe423 2.077 . S
O427 C443 1.381 . S
O428 Fe418 1.935 . S
O428 C443 1.421 . S
O429 Fe418 2.077 1_556 S
O429 C433 1.381 . S
O430 Fe416 1.935 . S
O430 C433 1.421 . S
O431 Fe419 2.077 . S
O431 C439 1.381 . S
O432 Fe423 1.935 . S
O432 C439 1.421 . S
C433 O429 1.381 . S
C433 O430 1.421 . S
O434 Fe423 2.077 . S
O434 C446 1.381 . S
O435 Fe418 1.935 . S
O435 C446 1.421 . S
O436 Fe416 2.077 . S
O436 C424 1.381 . S
O437 Fe419 1.935 . S
O437 C424 1.421 1_554 S
C438 O425 1.381 . S
C438 O426 1.420 1_556 S
C439 O431 1.381 . S
C439 O432 1.421 . S
C440 O441 1.381 . S
C440 O442 1.421 . S
O441 Fe419 2.077 . S
O441 C440 1.381 . S
O442 Fe423 1.935 . S
O442 C440 1.421 . S
C443 O427 1.381 . S
C443 O428 1.421 . S
O444 Fe418 2.077 1_556 S
O444 C447 1.381 . S
O445 Fe416 1.935 . S
O445 C447 1.421 . S
C446 O434 1.381 . S
C446 O435 1.421 . S
C447 O444 1.381 . S
C447 O445 1.421 . S
Fe448 O449 1.886 . S
Fe448 O452 1.715 . S
Fe448 O457 2.077 . S
Fe448 O462 1.935 . S
Fe448 O468 2.077 1_455 S
Fe448 O477 1.935 1_455 S
O449 Fe448 1.886 . S
O449 Fe451 1.715 . S
Fe450 O452 1.886 . S
Fe450 O453 1.715 . S
Fe450 O460 1.935 . S
Fe450 O461 2.077 . S
Fe450 O467 1.935 1_455 S
Fe450 O476 2.077 1_455 S
Fe451 O449 1.715 . S
Fe451 O454 1.886 . S
Fe451 O458 1.935 . S
Fe451 O463 2.077 . S
Fe451 O469 1.935 1_455 S
Fe451 O473 2.077 . S
O452 Fe448 1.715 . S
O452 Fe450 1.886 . S
O453 Fe450 1.715 . S
O453 Fe455 1.886 . S
O454 Fe451 1.886 . S
O454 Fe455 1.715 . S
Fe455 O453 1.886 . S
Fe455 O454 1.715 . S
Fe455 O459 2.077 . S
Fe455 O464 1.935 . S
Fe455 O466 2.077 . S
Fe455 O474 1.935 . S
C456 O468 1.381 . S
C456 O469 1.421 . S
O457 Fe448 2.077 . S
O457 C470 1.381 . S
O458 Fe451 1.935 . S
O458 C470 1.421 . S
O459 Fe455 2.077 . S
O459 C475 1.381 . S
O460 Fe450 1.935 . S
O460 C475 1.421 . S
O461 Fe450 2.077 . S
O461 C465 1.381 . S
O462 Fe448 1.935 . S
O462 C465 1.421 . S
O463 Fe451 2.077 . S
O463 C471 1.381 . S
O464 Fe455 1.935 . S
O464 C471 1.421 . S
C465 O461 1.381 . S
C465 O462 1.421 . S
O466 Fe455 2.077 . S
O466 C478 1.381 1_455 S
O467 Fe450 1.935 1_655 S
O467 C478 1.421 . S
O468 Fe448 2.077 1_655 S
O468 C456 1.381 . S
O469 Fe451 1.935 1_655 S
O469 C456 1.421 . S
C470 O457 1.381 . S
C470 O458 1.421 . S
C471 O463 1.381 . S
C471 O464 1.421 . S
C472 O473 1.381 1_655 S
C472 O474 1.421 1_655 S
O473 Fe451 2.077 . S
O473 C472 1.381 1_455 S
O474 Fe455 1.935 . S
O474 C472 1.421 1_455 S
C475 O459 1.381 . S
C475 O460 1.421 . S
O476 Fe450 2.077 1_655 S
O476 C479 1.381 . S
O477 Fe448 1.935 1_655 S
O477 C479 1.421 . S
C478 O466 1.381 1_655 S
C478 O467 1.421 . S
C479 O476 1.381 . S
C479 O477 1.421 . S
Fe480 O481 1.886 . S
Fe480 O484 1.715 . S
Fe480 O489 2.077 . S
Fe480 O494 1.935 . S
Fe480 O500 2.077 . S
Fe480 O509 1.935 . S
O481 Fe480 1.886 . S
O481 Fe483 1.715 1_565 S
Fe482 O484 1.886 1_545 S
Fe482 O485 1.715 . S
Fe482 O492 1.935 . S
Fe482 O493 2.077 1_545 S
Fe482 O499 1.935 . S
Fe482 O508 2.077 1_545 S
Fe483 O481 1.715 1_545 S
Fe483 O486 1.886 . S
Fe483 O490 1.935 1_545 S
Fe483 O495 2.077 . S
Fe483 O501 1.935 1_545 S
Fe483 O505 2.077 . S
O484 Fe480 1.715 . S
O484 Fe482 1.886 1_565 S
O485 Fe482 1.715 . S
O485 Fe487 1.886 . S
O486 Fe483 1.886 . S
O486 Fe487 1.715 . S
Fe487 O485 1.886 . S
Fe487 O486 1.715 . S
Fe487 O491 2.077 . S
Fe487 O496 1.935 . S
Fe487 O498 2.077 . S
Fe487 O506 1.935 . S
C488 O500 1.381 . S
C488 O501 1.421 . S
O489 Fe480 2.077 . S
O489 C502 1.381 . S
O490 Fe483 1.935 1_565 S
O490 C502 1.421 . S
O491 Fe487 2.077 . S
O491 C507 1.381 . S
O492 Fe482 1.935 . S
O492 C507 1.421 . S
O493 Fe482 2.077 1_565 S
O493 C497 1.381 . S
O494 Fe480 1.935 . S
O494 C497 1.421 . S
O495 Fe483 2.077 . S
O495 C503 1.381 . S
O496 Fe487 1.935 . S
O496 C503 1.421 . S
C497 O493 1.381 . S
C497 O494 1.421 . S
O498 Fe487 2.077 . S
O498 C510 1.381 . S
O499 Fe482 1.935 . S
O499 C510 1.421 . S
O500 Fe480 2.077 . S
O500 C488 1.381 . S
O501 Fe483 1.935 1_565 S
O501 C488 1.421 . S
C502 O489 1.381 . S
C502 O490 1.421 . S
C503 O495 1.381 . S
C503 O496 1.421 . S
C504 O505 1.381 . S
C504 O506 1.421 . S
O505 Fe483 2.077 . S
O505 C504 1.381 . S
O506 Fe487 1.935 . S
O506 C504 1.421 . S
C507 O491 1.381 . S
C507 O492 1.421 . S
O508 Fe482 2.077 1_565 S
O508 C511 1.381 . S
O509 Fe480 1.935 . S
O509 C511 1.421 . S
C510 O498 1.381 . S
C510 O499 1.421 . S
C511 O508 1.381 . S
C511 O509 1.421 . S
H512 C518 0.930 . S
H513 C521 0.930 . S
H514 C522 0.930 . S
H515 C523 0.930 . S
H516 C526 0.930 . S
H517 C527 0.930 . S
C518 H512 0.930 . S
C518 C519 1.355 . S
C518 C520 1.415 . S
C519 C518 1.355 . S
C519 C521 1.419 . S
C520 C518 1.415 . S
C520 C525 1.425 . S
C520 C527 1.409 . S
C521 H513 0.930 . S
C521 C519 1.419 . S
C521 C522 1.362 . S
C522 H514 0.930 . S
C522 C521 1.362 . S
C522 C525 1.409 . S
C523 H515 0.930 . S
C523 C524 1.355 . S
C523 C525 1.415 . S
C524 C523 1.355 . S
C524 C526 1.419 . S
C525 C520 1.425 . S
C525 C522 1.409 . S
C525 C523 1.415 . S
C526 H516 0.930 . S
C526 C524 1.419 . S
C526 C527 1.362 . S
C527 H517 0.930 . S
C527 C520 1.409 . S
C527 C526 1.362 . S
H528 C534 0.930 . S
H529 C537 0.930 . S
H530 C538 0.930 . S
H531 C539 0.930 . S
H532 C542 0.930 . S
H533 C543 0.930 . S
C534 H528 0.930 . S
C534 C535 1.355 . S
C534 C536 1.415 . S
C535 C534 1.355 . S
C535 C537 1.419 . S
C536 C534 1.415 . S
C536 C541 1.425 . S
C536 C543 1.409 . S
C537 H529 0.930 . S
C537 C535 1.419 . S
C537 C538 1.362 . S
C538 H530 0.930 . S
C538 C537 1.362 . S
C538 C541 1.409 . S
C539 H531 0.930 . S
C539 C540 1.355 . S
C539 C541 1.415 . S
C540 C539 1.355 . S
C540 C542 1.419 . S
C541 C536 1.425 . S
C541 C538 1.409 . S
C541 C539 1.415 . S
C542 H532 0.930 . S
C542 C540 1.419 . S
C542 C543 1.362 . S
C543 H533 0.930 . S
C543 C536 1.409 . S
C543 C542 1.362 . S
H544 C550 0.930 . S
H545 C553 0.930 . S
H546 C554 0.930 . S
H547 C555 0.930 . S
H548 C558 0.930 . S
H549 C559 0.930 . S
C550 H544 0.930 . S
C550 C551 1.355 . S
C550 C552 1.415 . S
C551 C550 1.355 . S
C551 C553 1.419 . S
C552 C550 1.415 . S
C552 C557 1.425 . S
C552 C559 1.409 . S
C553 H545 0.930 . S
C553 C551 1.419 . S
C553 C554 1.362 . S
C554 H546 0.930 . S
C554 C553 1.362 . S
C554 C557 1.409 . S
C555 H547 0.930 . S
C555 C556 1.355 . S
C555 C557 1.415 . S
C556 C555 1.355 . S
C556 C558 1.419 . S
C557 C552 1.425 . S
C557 C554 1.409 . S
C557 C555 1.415 . S
C558 H548 0.930 . S
C558 C556 1.419 . S
C558 C559 1.362 . S
C559 H549 0.930 . S
C559 C552 1.409 . S
C559 C558 1.362 . S
H560 C566 0.930 . S
H561 C569 0.930 . S
H562 C570 0.930 . S
H563 C571 0.930 . S
H564 C574 0.930 . S
H565 C575 0.930 . S
C566 H560 0.930 . S
C566 C567 1.355 . S
C566 C568 1.415 . S
C567 C566 1.355 . S
C567 C569 1.419 . S
C568 C566 1.415 . S
C568 C573 1.425 . S
C568 C575 1.409 . S
C569 H561 0.930 . S
C569 C567 1.419 . S
C569 C570 1.362 . S
C570 H562 0.930 . S
C570 C569 1.362 . S
C570 C573 1.409 . S
C571 H563 0.930 . S
C571 C572 1.355 . S
C571 C573 1.415 . S
C572 C571 1.355 . S
C572 C574 1.419 . S
C573 C568 1.425 . S
C573 C570 1.409 . S
C573 C571 1.415 . S
C574 H564 0.930 . S
C574 C572 1.419 . S
C574 C575 1.362 . S
C575 H565 0.930 . S
C575 C568 1.409 . S
C575 C574 1.362 . S
H576 C582 0.930 . S
H577 C585 0.930 . S
H578 C586 0.930 . S
H579 C587 0.930 1_545 S
H580 C590 0.930 . S
H581 C591 0.930 . S
C582 H576 0.930 . S
C582 C583 1.355 . S
C582 C584 1.415 . S
C583 C582 1.355 . S
C583 C585 1.419 . S
C584 C582 1.415 . S
C584 C589 1.425 . S
C584 C591 1.409 . S
C585 H577 0.930 . S
C585 C583 1.419 . S
C585 C586 1.362 . S
C586 H578 0.930 . S
C586 C585 1.362 . S
C586 C589 1.409 . S
C587 H579 0.930 1_565 S
C587 C588 1.355 . S
C587 C589 1.415 . S
C588 C587 1.355 . S
C588 C590 1.419 . S
C589 C584 1.425 . S
C589 C586 1.409 . S
C589 C587 1.415 . S
C590 H580 0.930 . S
C590 C588 1.419 . S
C590 C591 1.362 . S
C591 H581 0.930 . S
C591 C584 1.409 . S
C591 C590 1.362 . S
H592 C598 0.930 . S
H593 C601 0.930 . S
H594 C602 0.930 . S
H595 C603 0.930 . S
H596 C606 0.930 . S
H597 C607 0.930 . S
C598 H592 0.930 . S
C598 C599 1.355 . S
C598 C600 1.415 . S
C599 C598 1.355 . S
C599 C601 1.419 . S
C600 C598 1.415 . S
C600 C605 1.425 . S
C600 C607 1.409 . S
C601 H593 0.930 . S
C601 C599 1.419 . S
C601 C602 1.362 . S
C602 H594 0.930 . S
C602 C601 1.362 . S
C602 C605 1.409 . S
C603 H595 0.930 . S
C603 C604 1.355 . S
C603 C605 1.415 . S
C604 C603 1.355 . S
C604 C606 1.419 . S
C605 C600 1.425 . S
C605 C602 1.409 . S
C605 C603 1.415 . S
C606 H596 0.930 . S
C606 C604 1.419 . S
C606 C607 1.362 . S
C607 H597 0.930 . S
C607 C600 1.409 . S
C607 C606 1.362 . S
H608 C614 0.930 . S
H609 C617 0.930 . S
H610 C618 0.930 . S
H611 C619 0.930 . S
H612 C622 0.942 . S
H613 C623 0.930 . S
C614 H608 0.930 . S
C614 C615 1.355 . S
C614 C616 1.415 . S
C615 C614 1.355 . S
C615 C617 1.419 . S
C616 C614 1.415 . S
C616 C621 1.425 . S
C616 C623 1.409 . S
C617 H609 0.930 . S
C617 C615 1.419 . S
C617 C618 1.362 . S
C618 H610 0.930 . S
C618 C617 1.362 . S
C618 C621 1.409 . S
C619 H611 0.930 . S
C619 C620 1.355 . S
C619 C621 1.415 . S
C620 C619 1.355 . S
C620 C622 1.419 . S
C621 C616 1.425 . S
C621 C618 1.409 . S
C621 C619 1.415 . S
C622 H612 0.942 . S
C622 C620 1.419 . S
C622 C623 1.362 . S
C623 H613 0.930 . S
C623 C616 1.409 . S
C623 C622 1.362 . S
H624 C630 0.930 . S
H625 C633 0.930 . S
H626 C634 0.930 . S
H627 C635 0.930 . S
H628 C638 0.930 . S
H629 C639 0.930 . S
C630 H624 0.930 . S
C630 C631 1.355 . S
C630 C632 1.415 . S
C631 C630 1.355 . S
C631 C633 1.419 . S
C632 C630 1.415 . S
C632 C637 1.425 . S
C632 C639 1.409 . S
C633 H625 0.930 . S
C633 C631 1.419 . S
C633 C634 1.362 . S
C634 H626 0.930 . S
C634 C633 1.362 . S
C634 C637 1.409 . S
C635 H627 0.930 . S
C635 C636 1.355 . S
C635 C637 1.415 . S
C636 C635 1.355 . S
C636 C638 1.419 . S
C637 C632 1.425 . S
C637 C634 1.409 . S
C637 C635 1.415 . S
C638 H628 0.930 . S
C638 C636 1.419 . S
C638 C639 1.362 . S
C639 H629 0.930 . S
C639 C632 1.409 . S
C639 C638 1.362 . S
H640 C646 0.930 . S
H641 C649 0.930 . S
H642 C650 0.930 . S
H643 C651 0.930 . S
H644 C654 0.930 . S
H645 C655 0.930 . S
C646 H640 0.930 . S
C646 C647 1.355 . S
C646 C648 1.415 . S
C647 C646 1.355 . S
C647 C649 1.419 . S
C648 C646 1.415 . S
C648 C653 1.425 . S
C648 C655 1.409 . S
C649 H641 0.930 . S
C649 C647 1.419 . S
C649 C650 1.362 . S
C650 H642 0.930 . S
C650 C649 1.362 . S
C650 C653 1.409 . S
C651 H643 0.930 . S
C651 C652 1.355 . S
C651 C653 1.415 . S
C652 C651 1.355 . S
C652 C654 1.419 . S
C653 C648 1.425 . S
C653 C650 1.409 . S
C653 C651 1.415 . S
C654 H644 0.930 . S
C654 C652 1.419 . S
C654 C655 1.362 . S
C655 H645 0.930 . S
C655 C648 1.409 . S
C655 C654 1.362 . S
H656 C662 0.930 . S
H657 C665 0.930 . S
H658 C666 0.930 . S
H659 C667 0.930 . S
H660 C670 0.930 . S
H661 C671 0.930 . S
C662 H656 0.930 . S
C662 C663 1.355 . S
C662 C664 1.415 . S
C663 C662 1.355 . S
C663 C665 1.419 . S
C664 C662 1.415 . S
C664 C669 1.425 . S
C664 C671 1.409 . S
C665 H657 0.930 . S
C665 C663 1.419 . S
C665 C666 1.362 . S
C666 H658 0.930 . S
C666 C665 1.362 . S
C666 C669 1.409 . S
C667 H659 0.930 . S
C667 C668 1.355 . S
C667 C669 1.415 . S
C668 C667 1.355 . S
C668 C670 1.419 . S
C669 C664 1.425 . S
C669 C666 1.409 . S
C669 C667 1.415 . S
C670 H660 0.930 . S
C670 C668 1.419 . S
C670 C671 1.362 . S
C671 H661 0.930 . S
C671 C664 1.409 . S
C671 C670 1.362 . S
H672 C678 0.930 . S
H673 C681 0.930 . S
H674 C682 0.930 . S
H675 C683 0.930 . S
H676 C686 0.930 . S
H677 C687 0.930 . S
C678 H672 0.930 . S
C678 C679 1.355 . S
C678 C680 1.415 . S
C679 C678 1.355 . S
C679 C681 1.419 . S
C680 C678 1.415 . S
C680 C685 1.425 . S
C680 C687 1.409 . S
C681 H673 0.930 . S
C681 C679 1.419 . S
C681 C682 1.362 . S
C682 H674 0.930 . S
C682 C681 1.362 . S
C682 C685 1.409 . S
C683 H675 0.930 . S
C683 C684 1.355 . S
C683 C685 1.415 . S
C684 C683 1.355 . S
C684 C686 1.419 . S
C685 C680 1.425 . S
C685 C682 1.409 . S
C685 C683 1.415 . S
C686 H676 0.930 . S
C686 C684 1.419 . S
C686 C687 1.362 . S
C687 H677 0.930 . S
C687 C680 1.409 . S
C687 C686 1.362 . S
H688 C694 0.930 . S
H689 C697 0.930 . S
H690 C698 0.930 . S
H691 C699 0.930 . S
H692 C702 0.930 . S
H693 C703 0.930 . S
C694 H688 0.930 . S
C694 C695 1.355 . S
C694 C696 1.415 . S
C695 C694 1.355 . S
C695 C697 1.419 . S
C696 C694 1.415 . S
C696 C701 1.425 . S
C696 C703 1.409 . S
C697 H689 0.930 . S
C697 C695 1.419 . S
C697 C698 1.362 . S
C698 H690 0.930 . S
C698 C697 1.362 . S
C698 C701 1.409 . S
C699 H691 0.930 . S
C699 C700 1.355 . S
C699 C701 1.415 . S
C700 C699 1.355 . S
C700 C702 1.419 . S
C701 C696 1.425 . S
C701 C698 1.409 . S
C701 C699 1.415 . S
C702 H692 0.930 . S
C702 C700 1.419 . S
C702 C703 1.362 . S
C703 H693 0.930 . S
C703 C696 1.409 . S
C703 C702 1.362 . S
H704 C710 0.930 . S
H705 C713 0.930 . S
H706 C714 0.930 . S
H707 C715 0.930 . S
H708 C718 0.954 . S
H709 C719 0.930 . S
C710 H704 0.930 . S
C710 C711 1.355 . S
C710 C712 1.415 . S
C711 C710 1.355 . S
C711 C713 1.419 . S
C712 C710 1.415 . S
C712 C717 1.425 . S
C712 C719 1.409 . S
C713 H705 0.930 . S
C713 C711 1.419 . S
C713 C714 1.362 . S
C714 H706 0.930 . S
C714 C713 1.362 . S
C714 C717 1.409 . S
C715 H707 0.930 . S
C715 C716 1.355 . S
C715 C717 1.415 . S
C716 C715 1.355 . S
C716 C718 1.419 . S
C717 C712 1.425 . S
C717 C714 1.409 . S
C717 C715 1.415 . S
C718 H708 0.954 . S
C718 C716 1.419 . S
C718 C719 1.362 . S
C719 H709 0.930 . S
C719 C712 1.409 . S
C719 C718 1.362 . S
H720 C726 0.930 . S
H721 C729 0.930 . S
H722 C730 0.930 . S
H723 C731 0.930 . S
H724 C734 0.930 . S
H725 C735 0.930 . S
C726 H720 0.930 . S
C726 C727 1.355 . S
C726 C728 1.415 . S
C727 C726 1.355 . S
C727 C729 1.419 . S
C728 C726 1.415 . S
C728 C733 1.425 . S
C728 C735 1.409 . S
C729 H721 0.930 . S
C729 C727 1.419 . S
C729 C730 1.362 . S
C730 H722 0.930 . S
C730 C729 1.362 . S
C730 C733 1.409 . S
C731 H723 0.930 . S
C731 C732 1.355 . S
C731 C733 1.415 . S
C732 C731 1.355 . S
C732 C734 1.419 . S
C733 C728 1.425 . S
C733 C730 1.409 . S
C733 C731 1.415 . S
C734 H724 0.930 . S
C734 C732 1.419 . S
C734 C735 1.362 . S
C735 H725 0.930 . S
C735 C728 1.409 . S
C735 C734 1.362 . S
H736 C742 0.930 . S
H737 C745 0.930 . S
H738 C746 0.930 . S
H739 C747 0.930 . S
H740 C750 0.902 1_554 S
H741 C751 0.930 . S
C742 H736 0.930 . S
C742 C743 1.355 . S
C742 C744 1.415 . S
C743 C742 1.355 . S
C743 C745 1.419 . S
C744 C742 1.415 . S
C744 C749 1.425 . S
C744 C751 1.409 . S
C745 H737 0.930 . S
C745 C743 1.419 . S
C745 C746 1.362 . S
C746 H738 0.930 . S
C746 C745 1.362 . S
C746 C749 1.409 . S
C747 H739 0.930 . S
C747 C748 1.355 . S
C747 C749 1.415 . S
C748 C747 1.355 . S
C748 C750 1.419 . S
C749 C744 1.425 . S
C749 C746 1.409 . S
C749 C747 1.415 . S
C750 H740 0.902 1_556 S
C750 C748 1.419 . S
C750 C751 1.362 . S
C751 H741 0.930 . S
C751 C744 1.409 . S
C751 C750 1.362 . S
H752 C758 0.930 . S
H753 C761 0.930 . S
H754 C762 0.930 . S
H755 C763 0.930 . S
H756 C766 0.930 . S
H757 C767 0.930 . S
C758 H752 0.930 . S
C758 C759 1.355 . S
C758 C760 1.415 . S
C759 C758 1.355 . S
C759 C761 1.419 . S
C760 C758 1.415 . S
C760 C765 1.425 . S
C760 C767 1.409 . S
C761 H753 0.930 . S
C761 C759 1.419 . S
C761 C762 1.362 . S
C762 H754 0.930 . S
C762 C761 1.362 . S
C762 C765 1.409 . S
C763 H755 0.930 . S
C763 C764 1.355 . S
C763 C765 1.415 . S
C764 C763 1.355 . S
C764 C766 1.419 . S
C765 C760 1.425 . S
C765 C762 1.409 . S
C765 C763 1.415 . S
C766 H756 0.930 . S
C766 C764 1.419 . S
C766 C767 1.362 . S
C767 H757 0.930 . S
C767 C760 1.409 . S
C767 C766 1.362 . S
H768 C774 0.930 . S
H769 C777 0.930 . S
H770 C778 0.930 . S
H771 C779 0.930 . S
H772 C782 0.930 . S
H773 C783 0.930 . S
C774 H768 0.930 . S
C774 C775 1.355 . S
C774 C776 1.415 . S
C775 C774 1.355 . S
C775 C777 1.419 . S
C776 C774 1.415 . S
C776 C781 1.425 . S
C776 C783 1.409 . S
C777 H769 0.930 . S
C777 C775 1.419 . S
C777 C778 1.362 . S
C778 H770 0.930 . S
C778 C777 1.362 . S
C778 C781 1.409 . S
C779 H771 0.930 . S
C779 C780 1.355 . S
C779 C781 1.415 . S
C780 C779 1.355 . S
C780 C782 1.419 . S
C781 C776 1.425 . S
C781 C778 1.409 . S
C781 C779 1.415 . S
C782 H772 0.930 . S
C782 C780 1.419 . S
C782 C783 1.362 . S
C783 H773 0.930 . S
C783 C776 1.409 . S
C783 C782 1.362 . S
H784 C790 0.930 . S
H785 C793 0.930 . S
H786 C794 0.930 . S
H787 C795 0.930 . S
H788 C798 0.930 . S
H789 C799 0.930 . S
C790 H784 0.930 . S
C790 C791 1.355 . S
C790 C792 1.415 . S
C791 C790 1.355 . S
C791 C793 1.419 . S
C792 C790 1.415 . S
C792 C797 1.425 . S
C792 C799 1.409 . S
C793 H785 0.930 . S
C793 C791 1.419 . S
C793 C794 1.362 . S
C794 H786 0.930 . S
C794 C793 1.362 . S
C794 C797 1.409 . S
C795 H787 0.930 . S
C795 C796 1.355 . S
C795 C797 1.415 . S
C796 C795 1.355 . S
C796 C798 1.419 . S
C797 C792 1.425 . S
C797 C794 1.409 . S
C797 C795 1.415 . S
C798 H788 0.930 . S
C798 C796 1.419 . S
C798 C799 1.362 . S
C799 H789 0.930 . S
C799 C792 1.409 . S
C799 C798 1.362 . S
H800 C806 0.930 . S
H801 C809 0.930 . S
H802 C810 0.930 . S
H803 C811 0.930 . S
H804 C814 0.930 . S
H805 C815 0.930 . S
C806 H800 0.930 . S
C806 C807 1.355 . S
C806 C808 1.415 . S
C807 C806 1.355 . S
C807 C809 1.419 . S
C808 C806 1.415 . S
C808 C813 1.425 . S
C808 C815 1.409 . S
C809 H801 0.930 . S
C809 C807 1.419 . S
C809 C810 1.362 . S
C810 H802 0.930 . S
C810 C809 1.362 . S
C810 C813 1.409 . S
C811 H803 0.930 . S
C811 C812 1.355 . S
C811 C813 1.415 . S
C812 C811 1.355 . S
C812 C814 1.419 . S
C813 C808 1.425 . S
C813 C810 1.409 . S
C813 C811 1.415 . S
C814 H804 0.930 . S
C814 C812 1.419 . S
C814 C815 1.362 . S
C815 H805 0.930 . S
C815 C808 1.409 . S
C815 C814 1.362 . S
H816 C822 0.930 . S
H817 C825 0.930 . S
H818 C826 0.930 . S
H819 C827 0.930 . S
H820 C830 0.930 . S
H821 C831 0.930 . S
C822 H816 0.930 . S
C822 C823 1.355 . S
C822 C824 1.415 . S
C823 C822 1.355 . S
C823 C825 1.419 . S
C824 C822 1.415 . S
C824 C829 1.425 . S
C824 C831 1.409 . S
C825 H817 0.930 . S
C825 C823 1.419 . S
C825 C826 1.362 . S
C826 H818 0.930 . S
C826 C825 1.362 . S
C826 C829 1.409 . S
C827 H819 0.930 . S
C827 C828 1.355 . S
C827 C829 1.415 . S
C828 C827 1.355 . S
C828 C830 1.419 . S
C829 C824 1.425 . S
C829 C826 1.409 . S
C829 C827 1.415 . S
C830 H820 0.930 . S
C830 C828 1.419 . S
C830 C831 1.362 . S
C831 H821 0.930 . S
C831 C824 1.409 . S
C831 C830 1.362 . S
H832 C838 0.930 . S
H833 C841 0.930 . S
H834 C842 0.930 1_545 S
H835 C843 0.930 1_545 S
H836 C846 0.930 . S
H837 C847 0.930 . S
C838 H832 0.930 . S
C838 C839 1.355 . S
C838 C840 1.415 . S
C839 C838 1.355 . S
C839 C841 1.419 . S
C840 C838 1.415 . S
C840 C845 1.425 . S
C840 C847 1.409 . S
C841 H833 0.930 . S
C841 C839 1.419 . S
C841 C842 1.362 . S
C842 H834 0.930 1_565 S
C842 C841 1.362 . S
C842 C845 1.409 . S
C843 H835 0.930 1_565 S
C843 C844 1.355 . S
C843 C845 1.415 . S
C844 C843 1.355 . S
C844 C846 1.419 . S
C845 C840 1.425 . S
C845 C842 1.409 . S
C845 C843 1.415 . S
C846 H836 0.930 . S
C846 C844 1.419 . S
C846 C847 1.362 . S
C847 H837 0.930 . S
C847 C840 1.409 . S
C847 C846 1.362 . S
H848 C854 0.930 . S
H849 C857 0.930 . S
H850 C858 0.930 . S
H851 C859 0.930 . S
H852 C862 0.930 . S
H853 C863 0.930 1_455 S
C854 H848 0.930 . S
C854 C855 1.355 . S
C854 C856 1.415 . S
C855 C854 1.355 . S
C855 C857 1.419 . S
C856 C854 1.415 . S
C856 C861 1.425 . S
C856 C863 1.409 . S
C857 H849 0.930 . S
C857 C855 1.419 . S
C857 C858 1.362 . S
C858 H850 0.930 . S
C858 C857 1.362 . S
C858 C861 1.409 . S
C859 H851 0.930 . S
C859 C860 1.355 . S
C859 C861 1.415 . S
C860 C859 1.355 . S
C860 C862 1.419 . S
C861 C856 1.425 . S
C861 C858 1.409 . S
C861 C859 1.415 . S
C862 H852 0.930 . S
C862 C860 1.419 . S
C862 C863 1.362 . S
C863 H853 0.930 1_655 S
C863 C856 1.409 . S
C863 C862 1.362 . S
H864 C870 0.930 . S
H865 C873 0.930 . S
H866 C874 0.930 . S
H867 C875 0.930 . S
H868 C878 0.930 . S
H869 C879 0.930 . S
C870 H864 0.930 . S
C870 C871 1.355 . S
C870 C872 1.415 . S
C871 C870 1.355 . S
C871 C873 1.419 . S
C872 C870 1.415 . S
C872 C877 1.425 . S
C872 C879 1.409 . S
C873 H865 0.930 . S
C873 C871 1.419 . S
C873 C874 1.362 . S
C874 H866 0.930 . S
C874 C873 1.362 . S
C874 C877 1.409 . S
C875 H867 0.930 . S
C875 C876 1.355 . S
C875 C877 1.415 . S
C876 C875 1.355 . S
C876 C878 1.419 . S
C877 C872 1.425 . S
C877 C874 1.409 . S
C877 C875 1.415 . S
C878 H868 0.930 . S
C878 C876 1.419 . S
C878 C879 1.362 . S
C879 H869 0.930 . S
C879 C872 1.409 . S
C879 C878 1.362 . S
H880 C886 0.930 . S
H881 C889 0.930 . S
H882 C890 0.930 . S
H883 C891 0.930 . S
H884 C894 0.930 . S
H885 C895 0.930 . S
C886 H880 0.930 . S
C886 C887 1.355 . S
C886 C888 1.415 . S
C887 C886 1.355 . S
C887 C889 1.419 . S
C888 C886 1.415 . S
C888 C893 1.425 . S
C888 C895 1.409 . S
C889 H881 0.930 . S
C889 C887 1.419 . S
C889 C890 1.362 . S
C890 H882 0.930 . S
C890 C889 1.362 . S
C890 C893 1.409 . S
C891 H883 0.930 . S
C891 C892 1.355 . S
C891 C893 1.415 . S
C892 C891 1.355 . S
C892 C894 1.419 . S
C893 C888 1.425 . S
C893 C890 1.409 . S
C893 C891 1.415 . S
C894 H884 0.930 . S
C894 C892 1.419 . S
C894 C895 1.362 . S
C895 H885 0.930 . S
C895 C888 1.409 . S
C895 C894 1.362 . S
H896 C902 0.930 . S
H897 C905 0.930 . S
H898 C906 0.930 . S
H899 C907 0.930 . S
H900 C910 0.930 . S
H901 C911 0.930 . S
C902 H896 0.930 . S
C902 C903 1.355 . S
C902 C904 1.415 . S
C903 C902 1.355 . S
C903 C905 1.419 . S
C904 C902 1.415 . S
C904 C909 1.425 . S
C904 C911 1.409 . S
C905 H897 0.930 . S
C905 C903 1.419 . S
C905 C906 1.362 . S
C906 H898 0.930 . S
C906 C905 1.362 . S
C906 C909 1.409 . S
C907 H899 0.930 . S
C907 C908 1.355 . S
C907 C909 1.415 . S
C908 C907 1.355 . S
C908 C910 1.419 . S
C909 C904 1.425 . S
C909 C906 1.409 . S
C909 C907 1.415 . S
C910 H900 0.930 . S
C910 C908 1.419 . S
C910 C911 1.362 . S
C911 H901 0.930 . S
C911 C904 1.409 . S
C911 C910 1.362 . S
H912 C918 0.930 . S
H913 C921 0.930 . S
H914 C922 0.930 . S
H915 C923 0.930 . S
H916 C926 0.930 . S
H917 C927 0.930 . S
C918 H912 0.930 . S
C918 C919 1.355 . S
C918 C920 1.415 . S
C919 C918 1.355 . S
C919 C921 1.419 . S
C920 C918 1.415 . S
C920 C925 1.425 . S
C920 C927 1.409 . S
C921 H913 0.930 . S
C921 C919 1.419 . S
C921 C922 1.362 . S
C922 H914 0.930 . S
C922 C921 1.362 . S
C922 C925 1.409 . S
C923 H915 0.930 . S
C923 C924 1.355 . S
C923 C925 1.415 . S
C924 C923 1.355 . S
C924 C926 1.419 . S
C925 C920 1.425 . S
C925 C922 1.409 . S
C925 C923 1.415 . S
C926 H916 0.930 . S
C926 C924 1.419 . S
C926 C927 1.362 . S
C927 H917 0.930 . S
C927 C920 1.409 . S
C927 C926 1.362 . S
H928 C934 0.930 . S
H929 C937 0.930 . S
H930 C938 0.930 . S
H931 C939 0.930 . S
H932 C942 0.930 . S
H933 C943 0.930 . S
C934 H928 0.930 . S
C934 C935 1.355 . S
C934 C936 1.415 . S
C935 C934 1.355 . S
C935 C937 1.419 . S
C936 C934 1.415 . S
C936 C941 1.425 . S
C936 C943 1.409 . S
C937 H929 0.930 . S
C937 C935 1.419 . S
C937 C938 1.362 . S
C938 H930 0.930 . S
C938 C937 1.362 . S
C938 C941 1.409 . S
C939 H931 0.930 . S
C939 C940 1.355 . S
C939 C941 1.415 . S
C940 C939 1.355 . S
C940 C942 1.419 . S
C941 C936 1.425 . S
C941 C938 1.409 . S
C941 C939 1.415 . S
C942 H932 0.930 . S
C942 C940 1.419 . S
C942 C943 1.362 . S
C943 H933 0.930 . S
C943 C936 1.409 . S
C943 C942 1.362 . S
H944 C950 0.930 . S
H945 C953 0.930 . S
H946 C954 0.930 . S
H947 C955 0.930 . S
H948 C958 0.930 . S
H949 C959 0.930 . S
C950 H944 0.930 . S
C950 C951 1.355 . S
C950 C952 1.415 . S
C951 C950 1.355 . S
C951 C953 1.419 . S
C952 C950 1.415 . S
C952 C957 1.425 . S
C952 C959 1.409 . S
C953 H945 0.930 . S
C953 C951 1.419 . S
C953 C954 1.362 . S
C954 H946 0.930 . S
C954 C953 1.362 . S
C954 C957 1.409 . S
C955 H947 0.930 . S
C955 C956 1.355 . S
C955 C957 1.415 . S
C956 C955 1.355 . S
C956 C958 1.419 . S
C957 C952 1.425 . S
C957 C954 1.409 . S
C957 C955 1.415 . S
C958 H948 0.930 . S
C958 C956 1.419 . S
C958 C959 1.362 . S
C959 H949 0.930 . S
C959 C952 1.409 . S
C959 C958 1.362 . S
H960 C966 0.930 . S
H961 C969 0.930 . S
H962 C970 0.930 . S
H963 C971 0.930 . S
H964 C974 0.930 . S
H965 C975 0.930 . S
C966 H960 0.930 . S
C966 C967 1.355 . S
C966 C968 1.415 . S
C967 C966 1.355 . S
C967 C969 1.419 . S
C968 C966 1.415 . S
C968 C973 1.425 . S
C968 C975 1.409 . S
C969 H961 0.930 . S
C969 C967 1.419 . S
C969 C970 1.362 . S
C970 H962 0.930 . S
C970 C969 1.362 . S
C970 C973 1.409 . S
C971 H963 0.930 . S
C971 C972 1.355 . S
C971 C973 1.415 . S
C972 C971 1.355 . S
C972 C974 1.419 . S
C973 C968 1.425 . S
C973 C970 1.409 . S
C973 C971 1.415 . S
C974 H964 0.930 . S
C974 C972 1.419 . S
C974 C975 1.362 . S
C975 H965 0.930 . S
C975 C968 1.409 . S
C975 C974 1.362 . S
H976 C982 0.930 . S
H977 C985 0.930 . S
H978 C986 0.930 . S
H979 C987 0.930 . S
H980 C990 0.930 . S
H981 C991 0.930 . S
C982 H976 0.930 . S
C982 C983 1.355 . S
C982 C984 1.415 . S
C983 C982 1.355 . S
C983 C985 1.419 . S
C984 C982 1.415 . S
C984 C989 1.425 . S
C984 C991 1.409 . S
C985 H977 0.930 . S
C985 C983 1.419 . S
C985 C986 1.362 . S
C986 H978 0.930 . S
C986 C985 1.362 . S
C986 C989 1.409 . S
C987 H979 0.930 . S
C987 C988 1.355 . S
C987 C989 1.415 . S
C988 C987 1.355 . S
C988 C990 1.419 . S
C989 C984 1.425 . S
C989 C986 1.409 . S
C989 C987 1.415 . S
C990 H980 0.930 . S
C990 C988 1.419 . S
C990 C991 1.362 . S
C991 H981 0.930 . S
C991 C984 1.409 . S
C991 C990 1.362 . S
H992 C998 0.930 . S
H993 C1001 0.930 . S
H994 C1002 0.930 . S
H995 C1003 0.930 . S
H996 C1006 0.930 . S
H997 C1007 0.930 . S
C998 H992 0.930 . S
C998 C999 1.355 . S
C998 C1000 1.415 . S
C999 C998 1.355 . S
C999 C1001 1.419 . S
C1000 C998 1.415 . S
C1000 C1005 1.425 . S
C1000 C1007 1.409 . S
C1001 H993 0.930 . S
C1001 C999 1.419 . S
C1001 C1002 1.362 . S
C1002 H994 0.930 . S
C1002 C1001 1.362 . S
C1002 C1005 1.409 . S
C1003 H995 0.930 . S
C1003 C1004 1.355 . S
C1003 C1005 1.415 . S
C1004 C1003 1.355 . S
C1004 C1006 1.419 . S
C1005 C1000 1.425 . S
C1005 C1002 1.409 . S
C1005 C1003 1.415 . S
C1006 H996 0.930 . S
C1006 C1004 1.419 . S
C1006 C1007 1.362 . S
C1007 H997 0.930 . S
C1007 C1000 1.409 . S
C1007 C1006 1.362 . S
H1008 C1014 0.930 . S
H1009 C1017 0.930 . S
H1010 C1018 0.930 . S
H1011 C1019 0.930 . S
H1012 C1022 0.930 . S
H1013 C1023 0.930 . S
C1014 H1008 0.930 . S
C1014 C1015 1.355 . S
C1014 C1016 1.415 . S
C1015 C1014 1.355 . S
C1015 C1017 1.419 . S
C1016 C1014 1.415 . S
C1016 C1021 1.425 . S
C1016 C1023 1.409 . S
C1017 H1009 0.930 . S
C1017 C1015 1.419 . S
C1017 C1018 1.362 . S
C1018 H1010 0.930 . S
C1018 C1017 1.362 . S
C1018 C1021 1.409 . S
C1019 H1011 0.930 . S
C1019 C1020 1.355 . S
C1019 C1021 1.415 . S
C1020 C1019 1.355 . S
C1020 C1022 1.419 . S
C1021 C1016 1.425 . S
C1021 C1018 1.409 . S
C1021 C1019 1.415 . S
C1022 H1012 0.930 . S
C1022 C1020 1.419 . S
C1022 C1023 1.362 . S
C1023 H1013 0.930 . S
C1023 C1016 1.409 . S
C1023 C1022 1.362 . S
H1024 C1030 0.930 . S
H1025 C1033 0.930 . S
H1026 C1034 0.930 . S
H1027 C1035 0.930 . S
H1028 C1038 0.930 1_455 S
H1029 C1039 0.930 . S
C1030 H1024 0.930 . S
C1030 C1031 1.355 . S
C1030 C1032 1.415 . S
C1031 C1030 1.355 . S
C1031 C1033 1.419 . S
C1032 C1030 1.415 . S
C1032 C1037 1.425 . S
C1032 C1039 1.409 . S
C1033 H1025 0.930 . S
C1033 C1031 1.419 . S
C1033 C1034 1.362 . S
C1034 H1026 0.930 . S
C1034 C1033 1.362 . S
C1034 C1037 1.409 . S
C1035 H1027 0.930 . S
C1035 C1036 1.355 . S
C1035 C1037 1.415 . S
C1036 C1035 1.355 . S
C1036 C1038 1.419 . S
C1037 C1032 1.425 . S
C1037 C1034 1.409 . S
C1037 C1035 1.415 . S
C1038 H1028 0.930 1_655 S
C1038 C1036 1.419 . S
C1038 C1039 1.362 . S
C1039 H1029 0.930 . S
C1039 C1032 1.409 . S
C1039 C1038 1.362 . S
H1040 C1046 0.930 . S
H1041 C1049 0.930 . S
H1042 C1050 0.930 . S
H1043 C1051 0.930 . S
H1044 C1054 0.930 . S
H1045 C1055 0.930 . S
C1046 H1040 0.930 . S
C1046 C1047 1.355 . S
C1046 C1048 1.415 . S
C1047 C1046 1.355 . S
C1047 C1049 1.419 . S
C1048 C1046 1.415 . S
C1048 C1053 1.425 . S
C1048 C1055 1.409 . S
C1049 H1041 0.930 . S
C1049 C1047 1.419 . S
C1049 C1050 1.362 . S
C1050 H1042 0.930 . S
C1050 C1049 1.362 . S
C1050 C1053 1.409 . S
C1051 H1043 0.930 . S
C1051 C1052 1.355 . S
C1051 C1053 1.415 . S
C1052 C1051 1.355 . S
C1052 C1054 1.419 . S
C1053 C1048 1.425 . S
C1053 C1050 1.409 . S
C1053 C1051 1.415 . S
C1054 H1044 0.930 . S
C1054 C1052 1.419 . S
C1054 C1055 1.362 . S
C1055 H1045 0.930 . S
C1055 C1048 1.409 . S
C1055 C1054 1.362 . S
H1056 C1062 0.930 . S
H1057 C1065 0.930 . S
H1058 C1066 0.930 . S
H1059 C1067 0.930 . S
H1060 C1070 0.930 . S
H1061 C1071 0.930 . S
C1062 H1056 0.930 . S
C1062 C1063 1.355 . S
C1062 C1064 1.415 . S
C1063 C1062 1.355 . S
C1063 C1065 1.419 . S
C1064 C1062 1.415 . S
C1064 C1069 1.425 . S
C1064 C1071 1.409 . S
C1065 H1057 0.930 . S
C1065 C1063 1.419 . S
C1065 C1066 1.362 . S
C1066 H1058 0.930 . S
C1066 C1065 1.362 . S
C1066 C1069 1.409 . S
C1067 H1059 0.930 . S
C1067 C1068 1.355 . S
C1067 C1069 1.415 . S
C1068 C1067 1.355 . S
C1068 C1070 1.419 . S
C1069 C1064 1.425 . S
C1069 C1066 1.409 . S
C1069 C1067 1.415 . S
C1070 H1060 0.930 . S
C1070 C1068 1.419 . S
C1070 C1071 1.362 . S
C1071 H1061 0.930 . S
C1071 C1064 1.409 . S
C1071 C1070 1.362 . S
H1072 C1078 0.930 . S
H1073 C1081 0.930 . S
H1074 C1082 0.930 . S
H1075 C1083 0.930 . S
H1076 C1086 0.930 . S
H1077 C1087 0.930 . S
C1078 H1072 0.930 . S
C1078 C1079 1.355 . S
C1078 C1080 1.415 . S
C1079 C1078 1.355 . S
C1079 C1081 1.419 . S
C1080 C1078 1.415 . S
C1080 C1085 1.425 . S
C1080 C1087 1.409 . S
C1081 H1073 0.930 . S
C1081 C1079 1.419 . S
C1081 C1082 1.362 . S
C1082 H1074 0.930 . S
C1082 C1081 1.362 . S
C1082 C1085 1.409 . S
C1083 H1075 0.930 . S
C1083 C1084 1.355 . S
C1083 C1085 1.415 . S
C1084 C1083 1.355 . S
C1084 C1086 1.419 . S
C1085 C1080 1.425 . S
C1085 C1082 1.409 . S
C1085 C1083 1.415 . S
C1086 H1076 0.930 . S
C1086 C1084 1.419 . S
C1086 C1087 1.362 . S
C1087 H1077 0.930 . S
C1087 C1080 1.409 . S
C1087 C1086 1.362 . S
H1088 C1094 0.930 . S
H1089 C1097 0.930 . S
H1090 C1098 0.930 . S
H1091 C1099 0.930 . S
H1092 C1102 0.930 . S
H1093 C1103 0.930 . S
C1094 H1088 0.930 . S
C1094 C1095 1.355 . S
C1094 C1096 1.415 . S
C1095 C1094 1.355 . S
C1095 C1097 1.419 . S
C1096 C1094 1.415 . S
C1096 C1101 1.425 . S
C1096 C1103 1.409 . S
C1097 H1089 0.930 . S
C1097 C1095 1.419 . S
C1097 C1098 1.362 . S
C1098 H1090 0.930 . S
C1098 C1097 1.362 . S
C1098 C1101 1.409 . S
C1099 H1091 0.930 . S
C1099 C1100 1.355 . S
C1099 C1101 1.415 . S
C1100 C1099 1.355 . S
C1100 C1102 1.419 . S
C1101 C1096 1.425 . S
C1101 C1098 1.409 . S
C1101 C1099 1.415 . S
C1102 H1092 0.930 . S
C1102 C1100 1.419 . S
C1102 C1103 1.362 . S
C1103 H1093 0.930 . S
C1103 C1096 1.409 . S
C1103 C1102 1.362 . S
H1104 C1110 0.930 . S
H1105 C1113 0.930 . S
H1106 C1114 0.930 . S
H1107 C1115 0.930 . S
H1108 C1118 0.930 . S
H1109 C1119 0.930 . S
C1110 H1104 0.930 . S
C1110 C1111 1.355 . S
C1110 C1112 1.415 . S
C1111 C1110 1.355 . S
C1111 C1113 1.419 . S
C1112 C1110 1.415 . S
C1112 C1117 1.425 . S
C1112 C1119 1.409 . S
C1113 H1105 0.930 . S
C1113 C1111 1.419 . S
C1113 C1114 1.362 . S
C1114 H1106 0.930 . S
C1114 C1113 1.362 . S
C1114 C1117 1.409 . S
C1115 H1107 0.930 . S
C1115 C1116 1.355 . S
C1115 C1117 1.415 . S
C1116 C1115 1.355 . S
C1116 C1118 1.419 . S
C1117 C1112 1.425 . S
C1117 C1114 1.409 . S
C1117 C1115 1.415 . S
C1118 H1108 0.930 . S
C1118 C1116 1.419 . S
C1118 C1119 1.362 . S
C1119 H1109 0.930 . S
C1119 C1112 1.409 . S
C1119 C1118 1.362 . S
H1120 C1126 0.930 . S
H1121 C1129 0.930 . S
H1122 C1130 0.930 . S
H1123 C1131 0.930 . S
H1124 C1134 0.930 . S
H1125 C1135 0.930 . S
C1126 H1120 0.930 . S
C1126 C1127 1.355 . S
C1126 C1128 1.415 . S
C1127 C1126 1.355 . S
C1127 C1129 1.419 . S
C1128 C1126 1.415 . S
C1128 C1133 1.425 . S
C1128 C1135 1.409 . S
C1129 H1121 0.930 . S
C1129 C1127 1.419 . S
C1129 C1130 1.362 . S
C1130 H1122 0.930 . S
C1130 C1129 1.362 . S
C1130 C1133 1.409 . S
C1131 H1123 0.930 . S
C1131 C1132 1.355 . S
C1131 C1133 1.415 . S
C1132 C1131 1.355 . S
C1132 C1134 1.419 . S
C1133 C1128 1.425 . S
C1133 C1130 1.409 . S
C1133 C1131 1.415 . S
C1134 H1124 0.930 . S
C1134 C1132 1.419 . S
C1134 C1135 1.362 . S
C1135 H1125 0.930 . S
C1135 C1128 1.409 . S
C1135 C1134 1.362 . S
H1136 C1142 0.930 . S
H1137 C1145 0.930 . S
H1138 C1146 0.930 . S
H1139 C1147 0.930 . S
H1140 C1150 0.930 . S
H1141 C1151 0.930 . S
C1142 H1136 0.930 . S
C1142 C1143 1.355 . S
C1142 C1144 1.415 . S
C1143 C1142 1.355 . S
C1143 C1145 1.419 . S
C1144 C1142 1.415 . S
C1144 C1149 1.425 . S
C1144 C1151 1.409 . S
C1145 H1137 0.930 . S
C1145 C1143 1.419 . S
C1145 C1146 1.362 . S
C1146 H1138 0.930 . S
C1146 C1145 1.362 . S
C1146 C1149 1.409 . S
C1147 H1139 0.930 . S
C1147 C1148 1.355 . S
C1147 C1149 1.415 . S
C1148 C1147 1.355 . S
C1148 C1150 1.419 . S
C1149 C1144 1.425 . S
C1149 C1146 1.409 . S
C1149 C1147 1.415 . S
C1150 H1140 0.930 . S
C1150 C1148 1.419 . S
C1150 C1151 1.362 . S
C1151 H1141 0.930 . S
C1151 C1144 1.409 . S
C1151 C1150 1.362 . S
H1152 C1158 0.930 . S
H1153 C1161 0.930 . S
H1154 C1162 0.930 . S
H1155 C1163 0.930 . S
H1156 C1166 0.930 . S
H1157 C1167 0.930 . S
C1158 H1152 0.930 . S
C1158 C1159 1.355 . S
C1158 C1160 1.415 . S
C1159 C1158 1.355 . S
C1159 C1161 1.419 . S
C1160 C1158 1.415 . S
C1160 C1165 1.425 . S
C1160 C1167 1.409 . S
C1161 H1153 0.930 . S
C1161 C1159 1.419 . S
C1161 C1162 1.362 . S
C1162 H1154 0.930 . S
C1162 C1161 1.362 . S
C1162 C1165 1.409 . S
C1163 H1155 0.930 . S
C1163 C1164 1.355 . S
C1163 C1165 1.415 . S
C1164 C1163 1.355 . S
C1164 C1166 1.419 . S
C1165 C1160 1.425 . S
C1165 C1162 1.409 . S
C1165 C1163 1.415 . S
C1166 H1156 0.930 . S
C1166 C1164 1.419 . S
C1166 C1167 1.362 . S
C1167 H1157 0.930 . S
C1167 C1160 1.409 . S
C1167 C1166 1.362 . S
H1168 C1174 0.930 . S
H1169 C1177 0.930 . S
H1170 C1178 0.930 . S
H1171 C1179 0.930 . S
H1172 C1182 0.930 . S
H1173 C1183 0.930 . S
C1174 H1168 0.930 . S
C1174 C1175 1.355 . S
C1174 C1176 1.415 . S
C1175 C1174 1.355 . S
C1175 C1177 1.419 . S
C1176 C1174 1.415 . S
C1176 C1181 1.425 . S
C1176 C1183 1.409 . S
C1177 H1169 0.930 . S
C1177 C1175 1.419 . S
C1177 C1178 1.362 . S
C1178 H1170 0.930 . S
C1178 C1177 1.362 . S
C1178 C1181 1.409 . S
C1179 H1171 0.930 . S
C1179 C1180 1.355 . S
C1179 C1181 1.415 . S
C1180 C1179 1.355 . S
C1180 C1182 1.419 . S
C1181 C1176 1.425 . S
C1181 C1178 1.409 . S
C1181 C1179 1.415 . S
C1182 H1172 0.930 . S
C1182 C1180 1.419 . S
C1182 C1183 1.362 . S
C1183 H1173 0.930 . S
C1183 C1176 1.409 . S
C1183 C1182 1.362 . S
H1184 C1190 0.930 . S
H1185 C1193 0.930 . S
H1186 C1194 0.930 . S
H1187 C1195 0.930 . S
H1188 C1198 0.930 . S
H1189 C1199 0.930 . S
C1190 H1184 0.930 . S
C1190 C1191 1.355 . S
C1190 C1192 1.415 . S
C1191 C1190 1.355 . S
C1191 C1193 1.419 . S
C1192 C1190 1.415 . S
C1192 C1197 1.425 . S
C1192 C1199 1.409 . S
C1193 H1185 0.930 . S
C1193 C1191 1.419 . S
C1193 C1194 1.362 . S
C1194 H1186 0.930 . S
C1194 C1193 1.362 . S
C1194 C1197 1.409 . S
C1195 H1187 0.930 . S
C1195 C1196 1.355 . S
C1195 C1197 1.415 . S
C1196 C1195 1.355 . S
C1196 C1198 1.419 . S
C1197 C1192 1.425 . S
C1197 C1194 1.409 . S
C1197 C1195 1.415 . S
C1198 H1188 0.930 . S
C1198 C1196 1.419 . S
C1198 C1199 1.362 . S
C1199 H1189 0.930 . S
C1199 C1192 1.409 . S
C1199 C1198 1.362 . S
H1200 C1206 0.930 . S
H1201 C1209 0.930 . S
H1202 C1210 0.930 . S
H1203 C1211 0.930 . S
H1204 C1214 0.930 . S
H1205 C1215 0.930 . S
C1206 H1200 0.930 . S
C1206 C1207 1.355 . S
C1206 C1208 1.415 . S
C1207 C1206 1.355 . S
C1207 C1209 1.419 . S
C1208 C1206 1.415 . S
C1208 C1213 1.425 . S
C1208 C1215 1.409 . S
C1209 H1201 0.930 . S
C1209 C1207 1.419 . S
C1209 C1210 1.362 . S
C1210 H1202 0.930 . S
C1210 C1209 1.362 . S
C1210 C1213 1.409 . S
C1211 H1203 0.930 . S
C1211 C1212 1.355 . S
C1211 C1213 1.415 . S
C1212 C1211 1.355 . S
C1212 C1214 1.419 . S
C1213 C1208 1.425 . S
C1213 C1210 1.409 . S
C1213 C1211 1.415 . S
C1214 H1204 0.930 . S
C1214 C1212 1.419 . S
C1214 C1215 1.362 . S
C1215 H1205 0.930 . S
C1215 C1208 1.409 . S
C1215 C1214 1.362 . S
H1216 C1222 0.930 . S
H1217 C1225 0.930 . S
H1218 C1226 0.930 . S
H1219 C1227 0.930 . S
H1220 C1230 0.930 . S
H1221 C1231 0.930 . S
C1222 H1216 0.930 . S
C1222 C1223 1.355 . S
C1222 C1224 1.415 . S
C1223 C1222 1.355 . S
C1223 C1225 1.419 . S
C1224 C1222 1.415 . S
C1224 C1229 1.425 . S
C1224 C1231 1.409 . S
C1225 H1217 0.930 . S
C1225 C1223 1.419 . S
C1225 C1226 1.362 . S
C1226 H1218 0.930 . S
C1226 C1225 1.362 . S
C1226 C1229 1.409 . S
C1227 H1219 0.930 . S
C1227 C1228 1.355 . S
C1227 C1229 1.415 . S
C1228 C1227 1.355 . S
C1228 C1230 1.419 . S
C1229 C1224 1.425 . S
C1229 C1226 1.409 . S
C1229 C1227 1.415 . S
C1230 H1220 0.930 . S
C1230 C1228 1.419 . S
C1230 C1231 1.362 . S
C1231 H1221 0.930 . S
C1231 C1224 1.409 . S
C1231 C1230 1.362 . S
H1232 C1238 0.930 . S
H1233 C1241 0.930 . S
H1234 C1242 0.930 . S
H1235 C1243 0.930 . S
H1236 C1246 0.930 . S
H1237 C1247 0.930 . S
C1238 H1232 0.930 . S
C1238 C1239 1.355 . S
C1238 C1240 1.415 . S
C1239 C1238 1.355 . S
C1239 C1241 1.419 . S
C1240 C1238 1.415 . S
C1240 C1245 1.425 . S
C1240 C1247 1.409 . S
C1241 H1233 0.930 . S
C1241 C1239 1.419 . S
C1241 C1242 1.362 . S
C1242 H1234 0.930 . S
C1242 C1241 1.362 . S
C1242 C1245 1.409 . S
C1243 H1235 0.930 . S
C1243 C1244 1.355 . S
C1243 C1245 1.415 . S
C1244 C1243 1.355 . S
C1244 C1246 1.419 . S
C1245 C1240 1.425 . S
C1245 C1242 1.409 . S
C1245 C1243 1.415 . S
C1246 H1236 0.930 . S
C1246 C1244 1.419 . S
C1246 C1247 1.362 . S
C1247 H1237 0.930 . S
C1247 C1240 1.409 . S
C1247 C1246 1.362 . S
H1248 C1254 0.930 . S
H1249 C1257 0.930 . S
H1250 C1258 0.930 . S
H1251 C1259 0.930 . S
H1252 C1262 0.930 . S
H1253 C1263 0.930 . S
C1254 H1248 0.930 . S
C1254 C1255 1.355 . S
C1254 C1256 1.415 . S
C1255 C1254 1.355 . S
C1255 C1257 1.419 . S
C1256 C1254 1.415 . S
C1256 C1261 1.425 . S
C1256 C1263 1.409 . S
C1257 H1249 0.930 . S
C1257 C1255 1.419 . S
C1257 C1258 1.362 . S
C1258 H1250 0.930 . S
C1258 C1257 1.362 . S
C1258 C1261 1.409 . S
C1259 H1251 0.930 . S
C1259 C1260 1.355 . S
C1259 C1261 1.415 . S
C1260 C1259 1.355 . S
C1260 C1262 1.419 . S
C1261 C1256 1.425 . S
C1261 C1258 1.409 . S
C1261 C1259 1.415 . S
C1262 H1252 0.930 . S
C1262 C1260 1.419 . S
C1262 C1263 1.362 . S
C1263 H1253 0.930 . S
C1263 C1256 1.409 . S
C1263 C1262 1.362 . S
H1264 C1270 0.930 . S
H1265 C1273 0.930 . S
H1266 C1274 0.930 . S
H1267 C1275 0.930 . S
H1268 C1278 0.930 . S
H1269 C1279 0.930 . S
C1270 H1264 0.930 . S
C1270 C1271 1.355 . S
C1270 C1272 1.415 . S
C1271 C1270 1.355 . S
C1271 C1273 1.419 . S
C1272 C1270 1.415 . S
C1272 C1277 1.425 . S
C1272 C1279 1.409 . S
C1273 H1265 0.930 . S
C1273 C1271 1.419 . S
C1273 C1274 1.362 . S
C1274 H1266 0.930 . S
C1274 C1273 1.362 . S
C1274 C1277 1.409 . S
C1275 H1267 0.930 . S
C1275 C1276 1.355 . S
C1275 C1277 1.415 . S
C1276 C1275 1.355 . S
C1276 C1278 1.419 . S
C1277 C1272 1.425 . S
C1277 C1274 1.409 . S
C1277 C1275 1.415 . S
C1278 H1268 0.930 . S
C1278 C1276 1.419 . S
C1278 C1279 1.362 . S
C1279 H1269 0.930 . S
C1279 C1272 1.409 . S
C1279 C1278 1.362 . S
C524 C337 1.635 . S
C519 C2 1.611 . S
C540 C342 0.310 . S
C535 C65 0.244 . S
C556 C343 1.621 . S
C551 C82 1.650 . S
C567 C145 0.753 . S
C572 C347 0.774 . S
C583 C164 0.435 . S
C588 C350 0.724 . S
C604 C351 1.607 . S
C599 C223 1.621 . S
C615 C244 0.903 . S
C620 C328 0.982 . S
C631 C282 1.612 . S
C636 C344 1.612 . S
C652 C382 3.112 . S
C647 C31 3.140 . S
C663 C60 1.833 . S
C668 C408 1.820 . S
C684 C360 3.174 . S
C679 C111 3.253 . S
C700 C415 1.744 . S
C695 C140 1.756 . S
C711 C162 1.781 . S
C716 C369 1.783 . S
C732 C411 1.204 . S
C727 C225 1.166 . S
C743 C242 1.901 . S
C748 C375 1.876 . S
C759 C311 2.327 . S
C764 C406 2.285 . S
C775 C4 0.916 . S
C780 C414 0.976 . S
C791 C191 1.132 . S
C796 C401 1.118 . S
C812 C379 2.789 . S
C807 C220 2.822 . S
C828 C407 1.252 . S
C823 C271 1.293 . S
C839 C284 1.497 . S
C844 C374 1.450 1_556 S
C855 C84 0.824 . S
C860 C392 0.904 . S
C876 C383 1.194 . S
C871 C143 1.220 . S
C887 C63 1.344 . S
C892 C376 1.336 . S
C903 C303 1.547 . S
C908 C438 1.568 . S
C919 C185 0.440 . S
C924 C433 0.566 . S
C940 C447 1.559 . S
C935 C202 1.607 . S
C956 C424 0.910 . S
C951 C265 0.897 . S
C967 C44 0.130 . S
C972 C440 0.293 . S
C988 C439 1.549 . S
C983 C103 1.596 . S
C999 C124 0.675 . S
C1004 C443 0.640 . S
C1015 C23 1.569 . S
C1020 C446 1.498 . S
C1031 C305 1.483 . S
C1036 C472 1.490 . S
C1052 C488 1.176 . S
C1047 C180 1.174 . S
C1063 C231 2.813 . S
C1068 C470 2.804 . S
C1079 C260 1.278 . S
C1084 C503 1.165 . S
C1100 C479 1.310 . S
C1095 C42 1.292 . S
C1111 C105 0.805 . S
C1116 C497 0.751 . S
C1132 C475 1.163 . S
C1127 C122 1.235 . S
C1148 C510 0.843 . S
C1143 C25 0.899 . S
C1164 C502 2.299 . S
C1159 C300 2.321 . S
C1175 C71 1.835 . S
C1180 C507 1.759 . S
C1191 C100 3.257 . S
C1196 C478 3.275 . S
C1212 C511 1.667 . S
C1207 C151 1.758 . S
C1223 C20 3.176 . S
C1228 C465 3.166 . S
C1239 C204 1.196 . S
C1244 C504 1.130 . S
C1260 C456 1.868 . S
C1255 C263 1.895 . S
C1276 C471 1.738 . S
C1271 C183 1.795 . S
