# Generated by pormake.
# Topology iac, (4,6)-cn, num edge types: 1
# Building blocks:
#     Node 0, Type 0, BuildingBlock: UXUYUI_clean_sbu_0, # of connection points: 4
#     Node 1, Type 0, BuildingBlock: UXUYUI_clean_sbu_0, # of connection points: 4
#     Node 2, Type 0, BuildingBlock: UXUYUI_clean_sbu_0, # of connection points: 4
#     Node 3, Type 0, BuildingBlock: UXUYUI_clean_sbu_0, # of connection points: 4
#     Node 4, Type 0, BuildingBlock: UXUYUI_clean_sbu_0, # of connection points: 4
#     Node 5, Type 0, BuildingBlock: UXUYUI_clean_sbu_0, # of connection points: 4
#     Node 6, Type 0, BuildingBlock: UXUYUI_clean_sbu_0, # of connection points: 4
#     Node 7, Type 0, BuildingBlock: UXUYUI_clean_sbu_0, # of connection points: 4
#     Node 8, Type 0, BuildingBlock: UXUYUI_clean_sbu_0, # of connection points: 4
#     Node 9, Type 0, BuildingBlock: UXUYUI_clean_sbu_0, # of connection points: 4
#     Node 10, Type 0, BuildingBlock: UXUYUI_clean_sbu_0, # of connection points: 4
#     Node 11, Type 0, BuildingBlock: UXUYUI_clean_sbu_0, # of connection points: 4
#     Node 12, Type 0, BuildingBlock: UXUYUI_clean_sbu_0, # of connection points: 4
#     Node 13, Type 0, BuildingBlock: UXUYUI_clean_sbu_0, # of connection points: 4
#     Node 14, Type 0, BuildingBlock: UXUYUI_clean_sbu_0, # of connection points: 4
#     Node 15, Type 0, BuildingBlock: UXUYUI_clean_sbu_0, # of connection points: 4
#     Node 16, Type 0, BuildingBlock: UXUYUI_clean_sbu_0, # of connection points: 4
#     Node 17, Type 0, BuildingBlock: UXUYUI_clean_sbu_0, # of connection points: 4
#     Node 18, Type 0, BuildingBlock: UXUYUI_clean_sbu_0, # of connection points: 4
#     Node 19, Type 0, BuildingBlock: UXUYUI_clean_sbu_0, # of connection points: 4
#     Node 20, Type 0, BuildingBlock: UXUYUI_clean_sbu_0, # of connection points: 4
#     Node 21, Type 0, BuildingBlock: UXUYUI_clean_sbu_0, # of connection points: 4
#     Node 22, Type 0, BuildingBlock: UXUYUI_clean_sbu_0, # of connection points: 4
#     Node 23, Type 0, BuildingBlock: UXUYUI_clean_sbu_0, # of connection points: 4
#     Node 24, Type 1, BuildingBlock: LEVNOQ01_clean_sbu_1, # of connection points: 6
#     Node 25, Type 1, BuildingBlock: LEVNOQ01_clean_sbu_1, # of connection points: 6
#     Node 26, Type 1, BuildingBlock: LEVNOQ01_clean_sbu_1, # of connection points: 6
#     Node 27, Type 1, BuildingBlock: LEVNOQ01_clean_sbu_1, # of connection points: 6
#     Node 28, Type 1, BuildingBlock: LEVNOQ01_clean_sbu_1, # of connection points: 6
#     Node 29, Type 1, BuildingBlock: LEVNOQ01_clean_sbu_1, # of connection points: 6
#     Node 30, Type 1, BuildingBlock: LEVNOQ01_clean_sbu_1, # of connection points: 6
#     Node 31, Type 1, BuildingBlock: LEVNOQ01_clean_sbu_1, # of connection points: 6
#     Node 32, Type 1, BuildingBlock: LEVNOQ01_clean_sbu_1, # of connection points: 6
#     Node 33, Type 1, BuildingBlock: LEVNOQ01_clean_sbu_1, # of connection points: 6
#     Node 34, Type 1, BuildingBlock: LEVNOQ01_clean_sbu_1, # of connection points: 6
#     Node 35, Type 1, BuildingBlock: LEVNOQ01_clean_sbu_1, # of connection points: 6
#     Node 36, Type 1, BuildingBlock: LEVNOQ01_clean_sbu_1, # of connection points: 6
#     Node 37, Type 1, BuildingBlock: LEVNOQ01_clean_sbu_1, # of connection points: 6
#     Node 38, Type 1, BuildingBlock: LEVNOQ01_clean_sbu_1, # of connection points: 6
#     Node 39, Type 1, BuildingBlock: LEVNOQ01_clean_sbu_1, # of connection points: 6
#     Edge 40, Type (0, 1), BuildingBlock: UVAHIK_clean_linker_0, # of connection points: 2
#     Edge 41, Type (0, 1), BuildingBlock: UVAHIK_clean_linker_0, # of connection points: 2
#     Edge 42, Type (0, 1), BuildingBlock: UVAHIK_clean_linker_0, # of connection points: 2
#     Edge 43, Type (0, 1), BuildingBlock: UVAHIK_clean_linker_0, # of connection points: 2
#     Edge 44, Type (0, 1), BuildingBlock: UVAHIK_clean_linker_0, # of connection points: 2
#     Edge 45, Type (0, 1), BuildingBlock: UVAHIK_clean_linker_0, # of connection points: 2
#     Edge 46, Type (0, 1), BuildingBlock: UVAHIK_clean_linker_0, # of connection points: 2
#     Edge 47, Type (0, 1), BuildingBlock: UVAHIK_clean_linker_0, # of connection points: 2
#     Edge 48, Type (0, 1), BuildingBlock: UVAHIK_clean_linker_0, # of connection points: 2
#     Edge 49, Type (0, 1), BuildingBlock: UVAHIK_clean_linker_0, # of connection points: 2
#     Edge 50, Type (0, 1), BuildingBlock: UVAHIK_clean_linker_0, # of connection points: 2
#     Edge 51, Type (0, 1), BuildingBlock: UVAHIK_clean_linker_0, # of connection points: 2
#     Edge 52, Type (0, 1), BuildingBlock: UVAHIK_clean_linker_0, # of connection points: 2
#     Edge 53, Type (0, 1), BuildingBlock: UVAHIK_clean_linker_0, # of connection points: 2
#     Edge 54, Type (0, 1), BuildingBlock: UVAHIK_clean_linker_0, # of connection points: 2
#     Edge 55, Type (0, 1), BuildingBlock: UVAHIK_clean_linker_0, # of connection points: 2
#     Edge 56, Type (0, 1), BuildingBlock: UVAHIK_clean_linker_0, # of connection points: 2
#     Edge 57, Type (0, 1), BuildingBlock: UVAHIK_clean_linker_0, # of connection points: 2
#     Edge 58, Type (0, 1), BuildingBlock: UVAHIK_clean_linker_0, # of connection points: 2
#     Edge 59, Type (0, 1), BuildingBlock: UVAHIK_clean_linker_0, # of connection points: 2
#     Edge 60, Type (0, 1), BuildingBlock: UVAHIK_clean_linker_0, # of connection points: 2
#     Edge 61, Type (0, 1), BuildingBlock: UVAHIK_clean_linker_0, # of connection points: 2
#     Edge 62, Type (0, 1), BuildingBlock: UVAHIK_clean_linker_0, # of connection points: 2
#     Edge 63, Type (0, 1), BuildingBlock: UVAHIK_clean_linker_0, # of connection points: 2
#     Edge 64, Type (0, 1), BuildingBlock: UVAHIK_clean_linker_0, # of connection points: 2
#     Edge 65, Type (0, 1), BuildingBlock: UVAHIK_clean_linker_0, # of connection points: 2
#     Edge 66, Type (0, 1), BuildingBlock: UVAHIK_clean_linker_0, # of connection points: 2
#     Edge 67, Type (0, 1), BuildingBlock: UVAHIK_clean_linker_0, # of connection points: 2
#     Edge 68, Type (0, 1), BuildingBlock: UVAHIK_clean_linker_0, # of connection points: 2
#     Edge 69, Type (0, 1), BuildingBlock: UVAHIK_clean_linker_0, # of connection points: 2
#     Edge 70, Type (0, 1), BuildingBlock: UVAHIK_clean_linker_0, # of connection points: 2
#     Edge 71, Type (0, 1), BuildingBlock: UVAHIK_clean_linker_0, # of connection points: 2
#     Edge 72, Type (0, 1), BuildingBlock: UVAHIK_clean_linker_0, # of connection points: 2
#     Edge 73, Type (0, 1), BuildingBlock: UVAHIK_clean_linker_0, # of connection points: 2
#     Edge 74, Type (0, 1), BuildingBlock: UVAHIK_clean_linker_0, # of connection points: 2
#     Edge 75, Type (0, 1), BuildingBlock: UVAHIK_clean_linker_0, # of connection points: 2
#     Edge 76, Type (0, 1), BuildingBlock: UVAHIK_clean_linker_0, # of connection points: 2
#     Edge 77, Type (0, 1), BuildingBlock: UVAHIK_clean_linker_0, # of connection points: 2
#     Edge 78, Type (0, 1), BuildingBlock: UVAHIK_clean_linker_0, # of connection points: 2
#     Edge 79, Type (0, 1), BuildingBlock: UVAHIK_clean_linker_0, # of connection points: 2
#     Edge 80, Type (0, 1), BuildingBlock: UVAHIK_clean_linker_0, # of connection points: 2
#     Edge 81, Type (0, 1), BuildingBlock: UVAHIK_clean_linker_0, # of connection points: 2
#     Edge 82, Type (0, 1), BuildingBlock: UVAHIK_clean_linker_0, # of connection points: 2
#     Edge 83, Type (0, 1), BuildingBlock: UVAHIK_clean_linker_0, # of connection points: 2
#     Edge 84, Type (0, 1), BuildingBlock: UVAHIK_clean_linker_0, # of connection points: 2
#     Edge 85, Type (0, 1), BuildingBlock: UVAHIK_clean_linker_0, # of connection points: 2
#     Edge 86, Type (0, 1), BuildingBlock: UVAHIK_clean_linker_0, # of connection points: 2
#     Edge 87, Type (0, 1), BuildingBlock: UVAHIK_clean_linker_0, # of connection points: 2
#     Edge 88, Type (0, 1), BuildingBlock: UVAHIK_clean_linker_0, # of connection points: 2
#     Edge 89, Type (0, 1), BuildingBlock: UVAHIK_clean_linker_0, # of connection points: 2
#     Edge 90, Type (0, 1), BuildingBlock: UVAHIK_clean_linker_0, # of connection points: 2
#     Edge 91, Type (0, 1), BuildingBlock: UVAHIK_clean_linker_0, # of connection points: 2
#     Edge 92, Type (0, 1), BuildingBlock: UVAHIK_clean_linker_0, # of connection points: 2
#     Edge 93, Type (0, 1), BuildingBlock: UVAHIK_clean_linker_0, # of connection points: 2
#     Edge 94, Type (0, 1), BuildingBlock: UVAHIK_clean_linker_0, # of connection points: 2
#     Edge 95, Type (0, 1), BuildingBlock: UVAHIK_clean_linker_0, # of connection points: 2
#     Edge 96, Type (0, 1), BuildingBlock: UVAHIK_clean_linker_0, # of connection points: 2
#     Edge 97, Type (0, 1), BuildingBlock: UVAHIK_clean_linker_0, # of connection points: 2
#     Edge 98, Type (0, 1), BuildingBlock: UVAHIK_clean_linker_0, # of connection points: 2
#     Edge 99, Type (0, 1), BuildingBlock: UVAHIK_clean_linker_0, # of connection points: 2
#     Edge 100, Type (0, 1), BuildingBlock: UVAHIK_clean_linker_0, # of connection points: 2
#     Edge 101, Type (0, 1), BuildingBlock: UVAHIK_clean_linker_0, # of connection points: 2
#     Edge 102, Type (0, 1), BuildingBlock: UVAHIK_clean_linker_0, # of connection points: 2
#     Edge 103, Type (0, 1), BuildingBlock: UVAHIK_clean_linker_0, # of connection points: 2
#     Edge 104, Type (0, 1), BuildingBlock: UVAHIK_clean_linker_0, # of connection points: 2
#     Edge 105, Type (0, 1), BuildingBlock: UVAHIK_clean_linker_0, # of connection points: 2
#     Edge 106, Type (0, 1), BuildingBlock: UVAHIK_clean_linker_0, # of connection points: 2
#     Edge 107, Type (0, 1), BuildingBlock: UVAHIK_clean_linker_0, # of connection points: 2
#     Edge 108, Type (0, 1), BuildingBlock: UVAHIK_clean_linker_0, # of connection points: 2
#     Edge 109, Type (0, 1), BuildingBlock: UVAHIK_clean_linker_0, # of connection points: 2
#     Edge 110, Type (0, 1), BuildingBlock: UVAHIK_clean_linker_0, # of connection points: 2
#     Edge 111, Type (0, 1), BuildingBlock: UVAHIK_clean_linker_0, # of connection points: 2
#     Edge 112, Type (0, 1), BuildingBlock: UVAHIK_clean_linker_0, # of connection points: 2
#     Edge 113, Type (0, 1), BuildingBlock: UVAHIK_clean_linker_0, # of connection points: 2
#     Edge 114, Type (0, 1), BuildingBlock: UVAHIK_clean_linker_0, # of connection points: 2
#     Edge 115, Type (0, 1), BuildingBlock: UVAHIK_clean_linker_0, # of connection points: 2
#     Edge 116, Type (0, 1), BuildingBlock: UVAHIK_clean_linker_0, # of connection points: 2
#     Edge 117, Type (0, 1), BuildingBlock: UVAHIK_clean_linker_0, # of connection points: 2
#     Edge 118, Type (0, 1), BuildingBlock: UVAHIK_clean_linker_0, # of connection points: 2
#     Edge 119, Type (0, 1), BuildingBlock: UVAHIK_clean_linker_0, # of connection points: 2
#     Edge 120, Type (0, 1), BuildingBlock: UVAHIK_clean_linker_0, # of connection points: 2
#     Edge 121, Type (0, 1), BuildingBlock: UVAHIK_clean_linker_0, # of connection points: 2
#     Edge 122, Type (0, 1), BuildingBlock: UVAHIK_clean_linker_0, # of connection points: 2
#     Edge 123, Type (0, 1), BuildingBlock: UVAHIK_clean_linker_0, # of connection points: 2
#     Edge 124, Type (0, 1), BuildingBlock: UVAHIK_clean_linker_0, # of connection points: 2
#     Edge 125, Type (0, 1), BuildingBlock: UVAHIK_clean_linker_0, # of connection points: 2
#     Edge 126, Type (0, 1), BuildingBlock: UVAHIK_clean_linker_0, # of connection points: 2
#     Edge 127, Type (0, 1), BuildingBlock: UVAHIK_clean_linker_0, # of connection points: 2
#     Edge 128, Type (0, 1), BuildingBlock: UVAHIK_clean_linker_0, # of connection points: 2
#     Edge 129, Type (0, 1), BuildingBlock: UVAHIK_clean_linker_0, # of connection points: 2
#     Edge 130, Type (0, 1), BuildingBlock: UVAHIK_clean_linker_0, # of connection points: 2
#     Edge 131, Type (0, 1), BuildingBlock: UVAHIK_clean_linker_0, # of connection points: 2
#     Edge 132, Type (0, 1), BuildingBlock: UVAHIK_clean_linker_0, # of connection points: 2
#     Edge 133, Type (0, 1), BuildingBlock: UVAHIK_clean_linker_0, # of connection points: 2
#     Edge 134, Type (0, 1), BuildingBlock: UVAHIK_clean_linker_0, # of connection points: 2
#     Edge 135, Type (0, 1), BuildingBlock: UVAHIK_clean_linker_0, # of connection points: 2
# Relax obj value: 0.124
# Max RMSD: 0.161
# Mean RMSD: 0.151
data_MOF--net-iac--node1-UXUYUI_clean_sbu_0--node2-LEVNOQ01_clean_sbu_1--edge1-UVAHIK_clean_linker_0
_symmetry_space_group_name_H-M    P1
_symmetry_Int_Tables_number       1
_symmetry_cell_setting            triclinic
loop_
_symmetry_equiv_pos_as_xyz
'x, y, z'
_cell_length_a     81.831837
_cell_length_b     81.689528
_cell_length_c     81.78698
_cell_angle_alpha  90.263496
_cell_angle_beta   90.033654
_cell_angle_gamma 90.23019
loop_
_atom_site_label
_atom_site_type_symbol
_atom_site_fract_x
_atom_site_fract_y
_atom_site_fract_z
_atom_type_partial_charge
Li0 Li -0.00153 0.26615 0.10342 0.0
Li1 Li 0.0124 0.25239 0.1263 0.0
Li2 Li -0.0028 0.23674 0.1045 0.0
Li3 Li 0.98227 0.25249 0.12576 0.0
C4 C 0.02792 0.25525 0.09092 0.0
N5 N 0.05038 0.26377 0.06722 0.0
C6 C 0.04327 0.26133 0.09543 0.0
C7 C 0.02401 0.25344 0.07438 0.0
C8 C 0.05445 0.26559 0.08326 0.0
C9 C 0.03552 0.25785 0.06258 0.0
C10 C -0.00069 0.2823 0.13962 0.0
C11 C -0.00243 0.289 0.16831 0.0
N12 N 0.00311 0.30436 0.16505 0.0
C13 C 0.00488 0.29818 0.13653 0.0
C14 C 0.99552 0.27768 0.15561 0.0
C15 C 0.00676 0.30915 0.14956 0.0
C16 C 0.98503 0.28878 0.08172 0.0
N17 N -0.00105 0.28454 0.0897 0.0
C18 C 0.01241 0.30877 0.08064 0.0
C19 C 0.01259 0.29403 0.08913 0.0
C20 C -0.00201 0.31379 0.07284 0.0
C21 C 0.9843 0.3034 0.07305 0.0
H22 H 0.97425 0.28117 0.08271 0.0
H23 H 0.02337 0.29051 0.09587 0.0
C24 C 0.03649 0.23738 0.14524 0.0
N25 N 0.03064 0.25216 0.14048 0.0
C26 C 0.04929 0.23651 0.15646 0.0
C27 C 0.05021 0.2661 0.15717 0.0
C28 C 0.03739 0.26639 0.14594 0.0
C29 C 0.05622 0.25102 0.16267 0.0
H30 H 0.03108 0.22625 0.14045 0.0
H31 H 0.03287 0.27796 0.14157 0.0
C32 C 0.96779 0.24643 0.09044 0.0
N33 N 0.94529 0.23568 0.06757 0.0
C34 C 0.95253 0.24061 0.09547 0.0
C35 C 0.97161 0.24682 0.07379 0.0
C36 C 0.94132 0.23522 0.08371 0.0
C37 C 0.96008 0.2413 0.06242 0.0
C38 C -0.00414 0.22237 0.14068 0.0
C39 C 0.99201 0.2061 0.13694 0.0
C40 C -0.00127 0.22694 0.15693 0.0
C41 C 0.99102 0.19466 0.14955 0.0
C42 C -0.00237 0.21514 0.16919 0.0
N43 N 0.99383 0.19938 0.16528 0.0
C44 C 0.01297 0.21324 0.0861 0.0
C45 C 0.9847 0.20763 0.08942 0.0
C46 C 0.0151 0.19877 0.07736 0.0
N47 N -0.00202 0.21738 0.09189 0.0
C48 C 0.98632 0.19287 0.08089 0.0
C49 C 0.00172 0.1883 0.07486 0.0
H50 H 0.0234 0.22096 0.08866 0.0
H51 H 0.97299 0.21107 0.09445 0.0
C52 C 0.95625 0.2692 0.13998 0.0
N53 N 0.96361 0.25433 0.1392 0.0
C54 C 0.94287 0.27162 0.15028 0.0
C55 C 0.945 0.24338 0.15877 0.0
C56 C 0.95817 0.24145 0.14816 0.0
C57 C 0.93723 0.25863 0.15993 0.0
H58 H 0.9609 0.27921 0.1327 0.0
H59 H 0.96403 0.22968 0.1471 0.0
O60 O 0.01705 0.25051 0.10268 0.0
O61 O -0.00255 0.27143 0.12699 0.0
O62 O 0.97864 0.25234 0.10173 0.0
O63 O -0.00292 0.23364 0.12842 0.0
H64 H 0.04652 0.26267 0.1082 0.0
H65 H 0.01227 0.24855 0.07071 0.0
H66 H 0.06639 0.27029 0.08656 0.0
H67 H 0.03268 0.25648 0.04972 0.0
H68 H 0.99471 0.28558 0.18075 0.0
H69 H 0.00778 0.30197 0.12421 0.0
H70 H 0.99095 0.26554 0.15818 0.0
H71 H 0.01112 0.32146 0.14736 0.0
H72 H 0.02323 0.31646 0.08069 0.0
H73 H 0.97289 0.30699 0.06742 0.0
H74 H 0.05357 0.22463 0.16038 0.0
H75 H 0.0555 0.27756 0.16133 0.0
H76 H 0.94935 0.24037 0.10832 0.0
H77 H 0.98328 0.2515 0.0697 0.0
H78 H 0.92944 0.23073 0.08742 0.0
H79 H 0.96285 0.24156 0.04949 0.0
H80 H 0.98983 0.20233 0.12443 0.0
H81 H 0.00195 0.23942 0.16002 0.0
H82 H 0.98805 0.18202 0.14683 0.0
H83 H -0.00015 0.2185 0.1818 0.0
H84 H 0.02722 0.19547 0.07321 0.0
H85 H 0.97576 0.185 0.07924 0.0
H86 H 0.93714 0.28354 0.15086 0.0
H87 H 0.94076 0.233 0.16582 0.0
Li88 Li 0.98791 0.74772 0.36159 0.0
Li89 Li 0.00047 0.76392 0.38433 0.0
Li90 Li 0.01733 0.75015 0.36277 0.0
Li91 Li 0.00255 0.73448 0.38425 0.0
C92 C -0.0 0.7793 0.34831 0.0
N93 N -0.00245 0.80244 0.32391 0.0
C94 C 0.99428 0.795 0.35193 0.0
C95 C 0.00454 0.77538 0.33229 0.0
C96 C 0.99311 0.80652 0.33942 0.0
C97 C 0.0032 0.78724 0.32012 0.0
C98 C 0.97099 0.74583 0.39699 0.0
C99 C 0.96361 0.74178 0.42522 0.0
N100 N 0.94756 0.74146 0.42089 0.0
C101 C 0.95443 0.74545 0.3928 0.0
C102 C 0.97564 0.74398 0.41332 0.0
C103 C 0.94277 0.74324 0.40507 0.0
C104 C 0.96216 0.7302 0.34955 0.0
N105 N 0.96998 0.74479 0.34784 0.0
C106 C 0.94966 0.75427 0.32938 0.0
C107 C 0.9643 0.75664 0.33776 0.0
C108 C 0.94084 0.73973 0.33175 0.0
C109 C 0.94739 0.7274 0.34159 0.0
H110 H 0.96704 0.7211 0.35776 0.0
H111 H 0.97062 0.7682 0.33682 0.0
C112 C 0.01333 0.79168 0.39752 0.0
N113 N -0.00029 0.7822 0.39781 0.0
C114 C 0.01404 0.80596 0.40675 0.0
C115 C 0.98692 0.79998 0.41701 0.0
C116 C 0.98667 0.78588 0.40738 0.0
C117 C 0.00059 0.81043 0.41644 0.0
H118 H 0.02349 0.78827 0.38976 0.0
H119 H 0.97598 0.77811 0.4073 0.0
C120 C 0.00382 0.71857 0.34854 0.0
N121 N 0.00399 0.69536 0.32388 0.0
C122 C 0.00546 0.702 0.35232 0.0
C123 C 0.00218 0.72335 0.33225 0.0
C124 C 0.00555 0.69045 0.33967 0.0
C125 C 0.00231 0.71143 0.31995 0.0
C126 C 0.03153 0.75084 0.39912 0.0
C127 C 0.04796 0.74763 0.39583 0.0
C128 C 0.02657 0.7541 0.41514 0.0
C129 C 0.05918 0.7476 0.40871 0.0
C130 C 0.03816 0.75395 0.42769 0.0
N131 N 0.05409 0.75072 0.42424 0.0
C132 C 0.04188 0.76685 0.3462 0.0
C133 C 0.04183 0.73797 0.34276 0.0
C134 C 0.05435 0.7685 0.33475 0.0
N135 N 0.03575 0.75178 0.34966 0.0
C136 C 0.05424 0.73904 0.33122 0.0
C137 C 0.06043 0.75447 0.32694 0.0
H138 H 0.03673 0.77758 0.352 0.0
H139 H 0.03687 0.72615 0.34601 0.0
C140 C 0.9882 0.70815 0.39991 0.0
N141 N 0.00254 0.7163 0.39779 0.0
C142 C 0.98738 0.69497 0.41059 0.0
C143 C 0.01625 0.69857 0.41618 0.0
C144 C 0.01648 0.71172 0.40548 0.0
C145 C 0.00156 0.69009 0.41881 0.0
H146 H 0.97742 0.71191 0.39329 0.0
H147 H 0.02777 0.71817 0.40324 0.0
O148 O 0.00134 0.76798 0.36049 0.0
O149 O 0.98252 0.74786 0.38506 0.0
O150 O 0.0041 0.72999 0.3608 0.0
O151 O 0.02044 0.75083 0.38661 0.0
H152 H 0.99079 0.79824 0.3643 0.0
H153 H 0.00914 0.76336 0.3293 0.0
H154 H 0.98869 0.81872 0.34204 0.0
H155 H 0.00667 0.78438 0.30768 0.0
H156 H 0.96703 0.74029 0.43791 0.0
H157 H 0.95063 0.74687 0.38022 0.0
H158 H 0.98839 0.7441 0.41674 0.0
H159 H 0.92991 0.74293 0.40201 0.0
H160 H 0.94473 0.76413 0.32209 0.0
H161 H 0.94075 0.71611 0.34372 0.0
H162 H 0.02471 0.81376 0.40566 0.0
H163 H 0.97637 0.80288 0.42444 0.0
H164 H 0.00677 0.69812 0.36489 0.0
H165 H 0.0008 0.73611 0.32914 0.0
H166 H 0.00688 0.67758 0.34241 0.0
H167 H 0.00108 0.71495 0.30727 0.0
H168 H 0.05198 0.74513 0.38346 0.0
H169 H 0.01394 0.7568 0.41787 0.0
H170 H 0.07194 0.74509 0.40636 0.0
H171 H 0.0345 0.75642 0.44016 0.0
H172 H 0.05894 0.78058 0.33179 0.0
H173 H 0.05898 0.72792 0.32577 0.0
H174 H 0.97594 0.68843 0.41208 0.0
H175 H 0.02744 0.695 0.42226 0.0
Li176 Li 0.51333 0.75214 0.62709 0.0
Li177 Li 0.49963 0.76604 0.60402 0.0
Li178 Li 0.4832 0.75289 0.62643 0.0
Li179 Li 0.49796 0.73657 0.6053 0.0
C180 C 0.49948 0.78245 0.64016 0.0
N181 N 0.50085 0.80479 0.66556 0.0
C182 C 0.50357 0.79877 0.63709 0.0
C183 C 0.49599 0.77749 0.6561 0.0
C184 C 0.50423 0.80988 0.65011 0.0
C185 C 0.49678 0.78897 0.66879 0.0
C186 C 0.52897 0.75336 0.59138 0.0
C187 C 0.53653 0.75354 0.5629 0.0
N188 N 0.5516 0.75929 0.56707 0.0
C189 C 0.54454 0.75919 0.5954 0.0
C190 C 0.52493 0.75042 0.57503 0.0
C191 C 0.55581 0.76214 0.58292 0.0
C192 C 0.53806 0.73687 0.64474 0.0
N193 N 0.53155 0.75171 0.64121 0.0
C194 C 0.55064 0.76513 0.65887 0.0
C195 C 0.53769 0.76575 0.6478 0.0
C196 C 0.55741 0.74993 0.663 0.0
C197 C 0.55103 0.73567 0.65571 0.0
H198 H 0.53302 0.72593 0.63915 0.0
H199 H 0.53256 0.77742 0.64447 0.0
C200 C 0.48599 0.78958 0.58384 0.0
N201 N 0.50032 0.78435 0.59033 0.0
C202 C 0.48535 0.80437 0.57549 0.0
C203 C 0.51434 0.80788 0.58035 0.0
C204 C 0.51442 0.79298 0.58856 0.0
C205 C 0.49955 0.81392 0.57411 0.0
H206 H 0.47489 0.78269 0.58586 0.0
H207 H 0.52554 0.7887 0.59422 0.0
C208 C 0.49676 0.72217 0.64124 0.0
N209 N 0.49528 0.69858 0.66529 0.0
C210 C 0.49237 0.7061 0.63725 0.0
C211 C 0.50044 0.72626 0.65745 0.0
C212 C 0.49168 0.69435 0.64959 0.0
C213 C 0.49961 0.71415 0.66944 0.0
C214 C 0.46863 0.74823 0.59064 0.0
C215 C 0.45286 0.74339 0.59508 0.0
C216 C 0.47285 0.74918 0.57412 0.0
C217 C 0.44155 0.73947 0.58286 0.0
C218 C 0.4612 0.74514 0.56227 0.0
N219 N 0.44592 0.74042 0.56684 0.0
C220 C 0.45626 0.76964 0.63884 0.0
C221 C 0.4596 0.74308 0.64992 0.0
C222 C 0.44261 0.77235 0.6487 0.0
N223 N 0.46442 0.7552 0.63966 0.0
C224 C 0.44617 0.74534 0.66013 0.0
C225 C 0.43751 0.76013 0.65958 0.0
H226 H 0.46045 0.77906 0.63057 0.0
H227 H 0.46613 0.73164 0.65019 0.0
C228 C 0.51361 0.71109 0.58979 0.0
N229 N 0.4985 0.71722 0.59279 0.0
C230 C 0.51539 0.69662 0.58094 0.0
C231 C 0.48597 0.69509 0.57831 0.0
C232 C 0.48477 0.70956 0.58733 0.0
C233 C 0.50145 0.68835 0.57516 0.0
H234 H 0.52429 0.71734 0.59454 0.0
H235 H 0.47288 0.71451 0.59015 0.0
O236 O 0.49883 0.77146 0.62753 0.0
O237 O 0.51794 0.75008 0.60348 0.0
O238 O 0.49763 0.73375 0.62926 0.0
O239 O 0.47971 0.75245 0.60246 0.0
H240 H 0.50626 0.80279 0.62478 0.0
H241 H 0.49265 0.76495 0.65864 0.0
H242 H 0.50742 0.82255 0.64794 0.0
H243 H 0.49412 0.78531 0.68121 0.0
H244 H 0.53358 0.75134 0.55018 0.0
H245 H 0.54788 0.76138 0.60804 0.0
H246 H 0.51301 0.74566 0.57175 0.0
H247 H 0.56791 0.76666 0.58584 0.0
H248 H 0.55545 0.77642 0.66395 0.0
H249 H 0.55588 0.72371 0.65861 0.0
H250 H 0.47367 0.80878 0.57112 0.0
H251 H 0.52553 0.81495 0.57951 0.0
H252 H 0.48954 0.70273 0.62475 0.0
H253 H 0.504 0.73859 0.66074 0.0
H254 H 0.4883 0.68185 0.64668 0.0
H255 H 0.50244 0.71713 0.68203 0.0
H256 H 0.44939 0.74271 0.60783 0.0
H257 H 0.48494 0.75311 0.57049 0.0
H258 H 0.42928 0.73572 0.5861 0.0
H259 H 0.46428 0.74583 0.54943 0.0
H260 H 0.43621 0.78391 0.64796 0.0
H261 H 0.4424 0.73552 0.66816 0.0
H262 H 0.52753 0.69171 0.57912 0.0
H263 H 0.47491 0.68918 0.57399 0.0
Li264 Li 0.48664 0.24587 0.86009 0.0
Li265 Li 0.49798 0.26362 0.88222 0.0
Li266 Li 0.51468 0.2522 0.86021 0.0
Li267 Li 0.50338 0.23446 0.8819 0.0
C268 C 0.50097 0.27946 0.8473 0.0
N269 N 0.51019 0.30288 0.82482 0.0
C270 C 0.50391 0.29557 0.85236 0.0
C271 C 0.5026 0.27529 0.83079 0.0
C272 C 0.50858 0.30723 0.84081 0.0
C273 C 0.50734 0.28729 0.81962 0.0
C274 C 0.47116 0.24628 0.8962 0.0
C275 C 0.46469 0.24567 0.92495 0.0
N276 N 0.44867 0.24813 0.9213 0.0
C277 C 0.45464 0.24875 0.89272 0.0
C278 C 0.47625 0.24468 0.91243 0.0
C279 C 0.44345 0.24967 0.90558 0.0
C280 C 0.46036 0.22703 0.84999 0.0
N281 N 0.46835 0.24136 0.8473 0.0
C282 C 0.44794 0.25006 0.82857 0.0
C283 C 0.46273 0.25267 0.8366 0.0
C284 C 0.43895 0.23576 0.8318 0.0
C285 C 0.44556 0.2239 0.84221 0.0
H286 H 0.46518 0.21838 0.85871 0.0
H287 H 0.46929 0.26404 0.83494 0.0
C288 C 0.51055 0.2901 0.8976 0.0
N289 N 0.49633 0.2816 0.89625 0.0
C290 C 0.5113 0.30422 0.90705 0.0
C291 C 0.4829 0.30015 0.91427 0.0
C292 C 0.48264 0.28617 0.90443 0.0
C293 C 0.49727 0.30961 0.91531 0.0
H294 H 0.52119 0.28616 0.89082 0.0
H295 H 0.47145 0.27927 0.90306 0.0
C296 C 0.50026 0.21812 0.84759 0.0
N297 N 0.49171 0.19349 0.82592 0.0
C298 C 0.49807 0.20211 0.85314 0.0
C299 C 0.49814 0.2216 0.83101 0.0
C300 C 0.49374 0.18983 0.84199 0.0
C301 C 0.49379 0.20899 0.82025 0.0
C302 C 0.53078 0.25089 0.8956 0.0
C303 C 0.54671 0.24664 0.8912 0.0
C304 C 0.52681 0.25303 0.91209 0.0
C305 C 0.55838 0.24433 0.90344 0.0
C306 C 0.53883 0.25061 0.92396 0.0
N307 N 0.55423 0.24633 0.91942 0.0
C308 C 0.5411 0.27041 0.84732 0.0
C309 C 0.53676 0.24378 0.83638 0.0
C310 C 0.5544 0.27282 0.83692 0.0
N311 N 0.53265 0.25606 0.84677 0.0
C312 C 0.54979 0.24568 0.82574 0.0
C313 C 0.5588 0.2603 0.82598 0.0
H314 H 0.53757 0.27989 0.85587 0.0
H315 H 0.53009 0.23237 0.83654 0.0
C316 C 0.49075 0.20895 0.89933 0.0
N317 N 0.50514 0.21648 0.89577 0.0
C318 C 0.4903 0.19616 0.91044 0.0
C319 C 0.51964 0.19866 0.91351 0.0
C320 C 0.5195 0.21147 0.90236 0.0
C321 C 0.50487 0.19096 0.91771 0.0
H322 H 0.4796 0.21291 0.8935 0.0
H323 H 0.53081 0.21735 0.89898 0.0
O324 O 0.49598 0.26798 0.85838 0.0
O325 O 0.48222 0.24517 0.88372 0.0
O326 O 0.50522 0.23013 0.85822 0.0
O327 O 0.5192 0.25307 0.88377 0.0
H328 H 0.50245 0.29908 0.86503 0.0
H329 H 0.50024 0.26292 0.82665 0.0
H330 H 0.51086 0.31976 0.84454 0.0
H331 H 0.5087 0.28422 0.80682 0.0
H332 H 0.46845 0.24446 0.93757 0.0
H333 H 0.45051 0.24995 0.8802 0.0
H334 H 0.48897 0.24263 0.91532 0.0
H335 H 0.43062 0.2516 0.90308 0.0
H336 H 0.44307 0.25961 0.82085 0.0
H337 H 0.43893 0.21273 0.84494 0.0
H338 H 0.52254 0.31126 0.90713 0.0
H339 H 0.47185 0.30377 0.92058 0.0
H340 H 0.49989 0.19914 0.86589 0.0
H341 H 0.49993 0.23388 0.82648 0.0
H342 H 0.49208 0.17737 0.84611 0.0
H343 H 0.49213 0.21151 0.80738 0.0
H344 H 0.54997 0.24502 0.87846 0.0
H345 H 0.51459 0.25654 0.91568 0.0
H346 H 0.57074 0.24094 0.90023 0.0
H347 H 0.53592 0.25214 0.93677 0.0
H348 H 0.56127 0.28416 0.83752 0.0
H349 H 0.55319 0.23555 0.81786 0.0
H350 H 0.47876 0.19017 0.91303 0.0
H351 H 0.53113 0.19482 0.9188 0.0
Li352 Li 0.12099 -0.00235 0.26756 0.0
Li353 Li 0.14238 0.01247 0.25134 0.0
Li354 Li 0.12049 -0.00431 0.23766 0.0
Li355 Li 0.14336 0.98253 0.25303 0.0
C356 C 0.10641 0.02686 0.25359 0.0
N357 N 0.08224 0.04995 0.25806 0.0
C358 C 0.11042 0.04253 0.25927 0.0
C359 C 0.09013 0.02295 0.25008 0.0
C360 C 0.09801 0.05403 0.26148 0.0
C361 C 0.07808 0.03479 0.25246 0.0
C362 C 0.15734 -0.00065 0.28215 0.0
C363 C 0.18583 -0.00368 0.28893 0.0
N364 N 0.18249 0.00067 0.30464 0.0
C365 C 0.15415 0.00372 0.29836 0.0
C366 C 0.17328 -0.00445 0.27737 0.0
C367 C 0.16705 0.00435 0.30956 0.0
C368 C 0.10881 0.98231 0.29491 0.0
N369 N 0.10792 -0.00336 0.28657 0.0
C370 C 0.08768 0.00676 0.30497 0.0
C371 C 0.09777 0.00886 0.29139 0.0
C372 C 0.08828 0.99205 0.31374 0.0
C373 C 0.0991 0.97977 0.30868 0.0
H374 H 0.11699 0.97281 0.29073 0.0
H375 H 0.09742 0.02023 0.28476 0.0
C376 C 0.15304 0.0399 0.2345 0.0
N377 N 0.15506 0.03162 0.24873 0.0
C378 C 0.16225 0.05394 0.23137 0.0
C379 C 0.17557 0.05053 0.25754 0.0
C380 C 0.16599 0.03665 0.26023 0.0
C381 C 0.17372 0.05936 0.24296 0.0
H382 H 0.14427 0.03551 0.22557 0.0
H383 H 0.16727 0.02995 0.2715 0.0
C384 C 0.10677 0.96711 0.25232 0.0
N385 N 0.08076 0.94575 0.24882 0.0
C386 C 0.10948 0.9509 0.24754 0.0
C387 C 0.09088 0.97245 0.25544 0.0
C388 C 0.09616 0.9403 0.2458 0.0
C389 C 0.07788 0.96146 0.25357 0.0
C390 C 0.15649 -0.00342 0.22192 0.0
C391 C 0.15317 0.99235 0.20569 0.0
C392 C 0.17232 0.00117 0.22647 0.0
C393 C 0.16583 0.99265 0.19424 0.0
C394 C 0.18465 0.00133 0.21467 0.0
N395 N 0.18118 -0.00291 0.19893 0.0
C396 C 0.10388 0.01022 0.21238 0.0
C397 C 0.09986 0.98146 0.21302 0.0
C398 C 0.09366 0.01157 0.19885 0.0
N399 N 0.1067 0.99537 0.21919 0.0
C400 C 0.0895 0.98225 0.19948 0.0
C401 C 0.08636 -0.00254 0.1922 0.0
H402 H 0.10962 0.02104 0.21749 0.0
H403 H 0.10255 0.96977 0.21847 0.0
C404 C 0.15616 0.95614 0.26958 0.0
N405 N 0.15709 0.9642 0.25512 0.0
C406 C 0.16567 0.94229 0.27228 0.0
C407 C 0.17711 0.94547 0.24521 0.0
C408 C 0.16729 0.95922 0.243 0.0
C409 C 0.17626 0.93676 0.25996 0.0
H410 H 0.14792 0.96047 0.27899 0.0
H411 H 0.16767 0.96574 0.23155 0.0
O412 O 0.11843 0.01553 0.25126 0.0
O413 O 0.14482 -0.00129 0.27109 0.0
O414 O 0.11969 0.97763 0.25395 0.0
O415 O 0.14418 -0.00364 0.23322 0.0
H416 H 0.12299 0.04575 0.26196 0.0
H417 H 0.08684 0.01093 0.24554 0.0
H418 H 0.10093 0.0662 0.26589 0.0
H419 H 0.06543 0.03193 0.24983 0.0
H420 H 0.19823 0.99343 0.28541 0.0
H421 H 0.14185 0.00664 0.30224 0.0
H422 H 0.17592 0.99201 0.26491 0.0
H423 H 0.16478 0.00776 0.32215 0.0
H424 H 0.07968 0.01662 0.30872 0.0
H425 H 0.09987 0.96826 0.31517 0.0
H426 H 0.16052 0.06043 0.21998 0.0
H427 H 0.18409 0.05452 0.2669 0.0
H428 H 0.12176 0.94661 0.24513 0.0
H429 H 0.08861 0.98491 0.25928 0.0
H430 H 0.09805 0.92773 0.24205 0.0
H431 H 0.06549 0.96542 0.25591 0.0
H432 H 0.14094 0.98884 0.20198 0.0
H433 H 0.17506 0.00463 0.23895 0.0
H434 H 0.16346 0.98936 0.18163 0.0
H435 H 0.19697 0.00484 0.218 0.0
H436 H 0.09148 0.02354 0.19364 0.0
H437 H 0.08434 0.97105 0.19452 0.0
H438 H 0.16473 0.93594 0.28384 0.0
H439 H 0.18492 0.94143 0.23531 0.0
Li440 Li 0.23757 0.88312 0.49843 0.0
Li441 Li 0.25241 0.86201 0.51435 0.0
Li442 Li 0.26651 0.88537 0.50217 0.0
Li443 Li 0.25512 0.86252 0.48486 0.0
C444 C 0.25151 0.89701 0.53114 0.0
N445 N 0.25529 0.92053 0.55525 0.0
C446 C 0.2547 0.89237 0.54726 0.0
C447 C 0.2501 0.9136 0.52732 0.0
C448 C 0.25658 0.90445 0.55927 0.0
C449 C 0.25212 0.92531 0.53966 0.0
C450 C 0.22305 0.84778 0.49854 0.0
C451 C 0.21325 0.82011 0.49499 0.0
N452 N 0.19842 0.82469 0.50093 0.0
C453 C 0.2077 0.85223 0.50454 0.0
C454 C 0.22585 0.83162 0.49364 0.0
C455 C 0.19541 0.84037 0.50567 0.0
C456 C 0.21115 0.89912 0.48265 0.0
N457 N 0.21841 0.8953 0.49708 0.0
C458 C 0.19894 0.9108 0.51205 0.0
C459 C 0.21245 0.90064 0.51161 0.0
C460 C 0.19136 0.91533 0.49737 0.0
C461 C 0.19752 0.90932 0.4825 0.0
H462 H 0.216 0.89439 0.4713 0.0
H463 H 0.21829 0.89709 0.52289 0.0
C464 C 0.2671 0.84703 0.54067 0.0
N465 N 0.25281 0.84786 0.53224 0.0
C466 C 0.26867 0.8362 0.55365 0.0
C467 C 0.24073 0.82746 0.54907 0.0
C468 C 0.2397 0.83848 0.53623 0.0
C469 C 0.25536 0.82624 0.55793 0.0
H470 H 0.27726 0.85479 0.53726 0.0
H471 H 0.22838 0.83962 0.52961 0.0
C472 C 0.25051 0.89839 0.47019 0.0
N473 N 0.24286 0.92227 0.44764 0.0
C474 C 0.24748 0.89414 0.45389 0.0
C475 C 0.24984 0.91482 0.47497 0.0
C476 C 0.2436 0.90638 0.44268 0.0
C477 C 0.24587 0.9267 0.46341 0.0
C478 C 0.28291 0.84878 0.5028 0.0
C479 C 0.29978 0.8511 0.50421 0.0
C480 C 0.27641 0.83294 0.503 0.0
C481 C 0.30991 0.83746 0.50572 0.0
C482 C 0.28694 0.81963 0.50458 0.0
N483 N 0.30333 0.82214 0.50588 0.0
C484 C 0.29038 0.90269 0.5199 0.0
C485 C 0.28968 0.9076 0.49134 0.0
C486 C 0.30388 0.91296 0.52169 0.0
N487 N 0.2837 0.90018 0.50489 0.0
C488 C 0.30329 0.91775 0.49251 0.0
C489 C 0.3108 0.92026 0.50779 0.0
H490 H 0.28557 0.89632 0.5304 0.0
H491 H 0.28428 0.90507 0.47953 0.0
C492 C 0.24207 0.84889 0.45768 0.0
N493 N 0.2562 0.84933 0.46633 0.0
C494 C 0.24119 0.84017 0.44311 0.0
C495 C 0.26919 0.8316 0.44721 0.0
C496 C 0.2696 0.84078 0.46162 0.0
C497 C 0.25497 0.8316 0.43751 0.0
H498 H 0.23164 0.85583 0.46188 0.0
H499 H 0.28066 0.84134 0.46882 0.0
O500 O 0.24935 0.88529 0.51931 0.0
O501 O 0.23519 0.85925 0.49735 0.0
O502 O 0.25455 0.88656 0.48126 0.0
O503 O 0.27287 0.86204 0.50147 0.0
H504 H 0.25563 0.87958 0.55047 0.0
H505 H 0.24737 0.91739 0.51499 0.0
H506 H 0.25904 0.90103 0.57179 0.0
H507 H 0.25111 0.93819 0.53686 0.0
H508 H 0.21525 0.80755 0.49129 0.0
H509 H 0.20533 0.86469 0.50836 0.0
H510 H 0.23759 0.82798 0.48882 0.0
H511 H 0.18349 0.84363 0.51034 0.0
H512 H 0.19464 0.91529 0.52375 0.0
H513 H 0.19181 0.91239 0.47096 0.0
H514 H 0.28011 0.83565 0.56029 0.0
H515 H 0.23005 0.82033 0.55233 0.0
H516 H 0.24823 0.88155 0.44988 0.0
H517 H 0.25243 0.91837 0.48744 0.0
H518 H 0.24122 0.90325 0.43004 0.0
H519 H 0.24526 0.93946 0.46696 0.0
H520 H 0.30497 0.86331 0.50413 0.0
H521 H 0.26337 0.83098 0.50206 0.0
H522 H 0.323 0.83906 0.50678 0.0
H523 H 0.28208 0.8073 0.50479 0.0
H524 H 0.30923 0.91463 0.5337 0.0
H525 H 0.30841 0.92275 0.48138 0.0
H526 H 0.23008 0.84085 0.43596 0.0
H527 H 0.28 0.82497 0.4435 0.0
Li528 Li 0.36532 0.98901 0.74657 0.0
Li529 Li 0.38725 0.00422 0.76092 0.0
Li530 Li 0.36493 0.01853 0.74616 0.0
Li531 Li 0.3871 0.00423 0.73136 0.0
C532 C 0.35225 0.00053 0.77704 0.0
N533 N 0.32946 0.99362 0.80095 0.0
C534 C 0.35727 0.99428 0.7921 0.0
C535 C 0.33566 0.00334 0.77415 0.0
C536 C 0.34555 0.99084 0.80403 0.0
C537 C 0.32433 -0.00026 0.78639 0.0
C538 C 0.40045 0.9735 0.74922 0.0
C539 C 0.42823 0.96376 0.74857 0.0
N540 N 0.42324 0.94946 0.75545 0.0
C541 C 0.39558 0.9587 0.75625 0.0
C542 C 0.41689 0.97605 0.74529 0.0
C543 C 0.4073 0.9467 0.75931 0.0
C544 C 0.35172 0.96347 0.72998 0.0
N545 N 0.35231 0.97019 0.74518 0.0
C546 C 0.33627 0.94841 0.75604 0.0
C547 C 0.34465 0.96316 0.75812 0.0
C548 C 0.33614 0.94086 0.7406 0.0
C549 C 0.34365 0.94868 0.72738 0.0
H550 H 0.35805 0.96937 0.71998 0.0
H551 H 0.34556 0.96855 0.77014 0.0
C552 C 0.39949 0.02098 0.787 0.0
N553 N 0.40056 0.00622 0.77939 0.0
C554 C 0.40761 0.02369 0.80172 0.0
C555 C 0.41851 -0.00377 0.79994 0.0
C556 C 0.41 0.99398 0.78536 0.0
C557 C 0.41693 0.01107 0.80845 0.0
H558 H 0.39182 0.03043 0.7819 0.0
H559 H 0.41045 0.98227 0.77927 0.0
C560 C 0.35034 0.00562 0.71709 0.0
N561 N 0.32409 0.01049 0.69649 0.0
C562 C 0.35293 0.01081 0.70105 0.0
C563 C 0.33445 0.00277 0.72265 0.0
C564 C 0.33948 0.01322 0.69082 0.0
C565 C 0.32133 0.00535 0.71205 0.0
C566 C 0.40173 0.03356 0.74521 0.0
C567 C 0.39946 0.05016 0.74191 0.0
C568 C 0.4175 0.0275 0.74746 0.0
C569 C 0.41308 0.06045 0.74081 0.0
C570 C 0.43081 0.03818 0.74625 0.0
N571 N 0.42834 0.0543 0.74297 0.0
C572 C 0.34724 0.04177 0.76268 0.0
C573 C 0.34434 0.04331 0.73385 0.0
C574 C 0.33598 0.05429 0.76487 0.0
N575 N 0.35095 0.03643 0.74738 0.0
C576 C 0.33299 0.05585 0.73546 0.0
C577 C 0.32864 0.06138 0.75114 0.0
H578 H 0.35293 0.03617 0.77318 0.0
H579 H 0.34787 0.0391 0.72183 0.0
C580 C 0.40433 0.98791 0.70766 0.0
N581 N 0.40091 0.00316 0.71334 0.0
C582 C 0.4159 0.98578 0.69541 0.0
C583 C 0.41973 0.01518 0.69471 0.0
C584 C 0.40808 0.01674 0.70701 0.0
C585 C 0.42386 -0.00047 0.68891 0.0
H586 H 0.3983 0.97739 0.71294 0.0
H587 H 0.40488 0.02872 0.71161 0.0
O588 O 0.3636 0.00422 0.76536 0.0
O589 O 0.3891 0.98526 0.74593 0.0
O590 O 0.36339 0.00326 0.72722 0.0
O591 O 0.38848 0.02338 0.74624 0.0
H592 H 0.37009 0.99213 0.79454 0.0
H593 H 0.3316 0.00833 0.76263 0.0
H594 H 0.34924 0.98599 0.81574 0.0
H595 H 0.31145 0.00186 0.78433 0.0
H596 H 0.44099 0.96558 0.74561 0.0
H597 H 0.38289 0.95651 0.75929 0.0
H598 H 0.42085 0.98738 0.73975 0.0
H599 H 0.40372 0.93518 0.76475 0.0
H600 H 0.33085 0.94249 0.76656 0.0
H601 H 0.34381 0.94309 0.71534 0.0
H602 H 0.40609 0.03523 0.80811 0.0
H603 H 0.42537 0.98614 0.80504 0.0
H604 H 0.36519 0.01299 0.69658 0.0
H605 H 0.33228 -0.0014 0.73499 0.0
H606 H 0.34128 0.01728 0.67837 0.0
H607 H 0.30894 0.00326 0.71618 0.0
H608 H 0.38728 0.05501 0.74017 0.0
H609 H 0.41943 0.0147 0.75013 0.0
H610 H 0.41151 0.07333 0.73823 0.0
H611 H 0.44311 0.03367 0.74793 0.0
H612 H 0.33299 0.05832 0.77714 0.0
H613 H 0.32792 0.06138 0.72457 0.0
H614 H 0.41875 0.97352 0.69122 0.0
H615 H 0.4253 0.0261 0.68968 0.0
Li616 Li 0.25139 0.13767 0.01181 0.0
Li617 Li 0.26615 0.11554 -0.00343 0.0
Li618 Li 0.24878 0.1364 0.98218 0.0
Li619 Li 0.23654 0.11433 -0.00076 0.0
C620 C 0.28059 0.15145 -0.00347 0.0
N621 N 0.30445 0.17532 -0.00085 0.0
C622 C 0.29615 0.14743 0.00224 0.0
C623 C 0.27717 0.16757 0.99205 0.0
C624 C 0.30805 0.15968 0.0035 0.0
C625 C 0.2894 0.17947 0.9935 0.0
C626 C 0.25222 0.10239 0.02856 0.0
C627 C 0.2494 0.07413 0.03649 0.0
N628 N 0.25079 0.07865 0.05246 0.0
C629 C 0.25357 0.10677 0.04505 0.0
C630 C 0.25009 0.08596 0.02422 0.0
C631 C 0.25283 0.09458 0.05695 0.0
C632 C 0.23764 0.14979 0.0398 0.0
N633 N 0.25123 0.15125 0.0304 0.0
C634 C 0.26376 0.16891 0.05006 0.0
C635 C 0.26406 0.16079 0.03503 0.0
C636 C 0.25026 0.16688 0.06049 0.0
C637 C 0.23689 0.15751 0.05498 0.0
H638 H 0.2277 0.14198 0.03579 0.0
H639 H 0.27478 0.16168 0.02744 0.0
C640 C 0.29258 0.10226 0.97992 0.0
N641 N 0.28505 0.10291 0.99471 0.0
C642 C 0.30627 0.0924 0.97773 0.0
C643 C 0.30406 0.0841 0.00603 0.0
C644 C 0.29054 0.09425 0.00771 0.0
C645 C 0.31203 0.08308 0.99087 0.0
H646 H 0.28781 0.10931 0.96983 0.0
H647 H 0.28441 0.09518 0.01937 0.0
C648 C 0.22046 0.15063 -0.00119 0.0
N649 N 0.19872 0.17638 -0.00082 0.0
C650 C 0.20366 0.1476 -0.00183 0.0
C651 C 0.22623 0.16672 -0.00028 0.0
C652 C 0.19286 0.16079 -0.00164 0.0
C653 C 0.21504 0.17958 -0.00014 0.0
C654 C 0.24839 0.09961 0.9683 0.0
C655 C 0.24181 0.1022 0.95277 0.0
C656 C 0.2537 0.08399 0.97269 0.0
C657 C 0.24051 0.08903 0.94187 0.0
C658 C 0.25219 0.07115 0.96145 0.0
N659 N 0.24568 0.07391 0.94641 0.0
C660 C 0.26269 0.15129 0.95589 0.0
C661 C 0.23409 0.15587 0.95728 0.0
C662 C 0.26394 0.16093 0.94199 0.0
N663 N 0.24799 0.14907 0.96324 0.0
C664 C 0.23476 0.16554 0.94326 0.0
C665 C 0.24986 0.16818 0.93551 0.0
H666 H 0.27346 0.14553 0.96088 0.0
H667 H 0.22256 0.15378 0.96338 0.0
C668 C 0.21082 0.10238 0.01731 0.0
N669 N 0.21831 0.10068 0.00258 0.0
C670 C 0.19605 0.09442 0.02033 0.0
C671 C 0.19742 0.08248 0.99324 0.0
C672 C 0.21213 0.09076 0.9907 0.0
C673 C 0.189 0.08468 0.00803 0.0
H674 H 0.21602 0.11047 0.02646 0.0
H675 H 0.21817 0.08981 0.97902 0.0
O676 O 0.26889 0.13955 0.99503 0.0
O677 O 0.25321 0.11418 0.01679 0.0
O678 O 0.23114 0.13781 -0.00131 0.0
O679 O 0.24985 0.11242 0.97901 0.0
H680 H 0.29899 0.13498 0.00567 0.0
H681 H 0.26525 0.17086 0.98743 0.0
H682 H 0.32015 0.15676 0.00792 0.0
H683 H 0.28693 0.192 0.9901 0.0
H684 H 0.24777 0.06136 0.03331 0.0
H685 H 0.25532 0.11943 0.04861 0.0
H686 H 0.24895 0.08239 0.01154 0.0
H687 H 0.25392 0.09778 0.06976 0.0
H688 H 0.27421 0.17624 0.05368 0.0
H689 H 0.22633 0.15538 0.06266 0.0
H690 H 0.31217 0.09189 0.96588 0.0
H691 H 0.30838 0.07729 0.0165 0.0
H692 H 0.19903 0.13517 -0.00247 0.0
H693 H 0.2392 0.16922 0.00038 0.0
H694 H 0.17981 0.15864 -0.00215 0.0
H695 H 0.21932 0.19211 0.00055 0.0
H696 H 0.23774 0.11426 0.94918 0.0
H697 H 0.259 0.08182 0.98458 0.0
H698 H 0.23542 0.09084 0.92981 0.0
H699 H 0.25623 0.05899 0.96467 0.0
H700 H 0.27574 0.16239 0.93617 0.0
H701 H 0.22364 0.17093 0.93857 0.0
H702 H 0.18989 0.09636 0.03189 0.0
H703 H 0.1922 0.07527 0.98336 0.0
Li704 Li 0.73635 0.38635 -0.00152 0.0
Li705 Li 0.75118 0.36477 0.01341 0.0
Li706 Li 0.76585 0.38789 0.00047 0.0
Li707 Li 0.75343 0.36532 0.98408 0.0
C708 C 0.74827 0.40052 0.02959 0.0
N709 N 0.74471 0.42539 0.05227 0.0
C710 C 0.74454 0.39684 0.04583 0.0
C711 C 0.7503 0.41682 0.02488 0.0
C712 C 0.74276 0.40959 0.05712 0.0
C713 C 0.74841 0.42923 0.03653 0.0
C714 C 0.72206 0.35023 -0.00184 0.0
C715 C 0.71443 0.32179 0.99564 0.0
N716 N 0.69899 0.32557 0.00043 0.0
C717 C 0.70608 0.35387 0.00294 0.0
C718 C 0.72627 0.33409 0.99436 0.0
C719 C 0.6946 0.34122 0.00406 0.0
C720 C 0.71224 0.4038 0.98232 0.0
N721 N 0.71774 0.39928 -0.0027 0.0
C722 C 0.69827 0.41629 0.01058 0.0
C723 C 0.71082 0.4049 0.0113 0.0
C724 C 0.69278 0.42172 0.99529 0.0
C725 C 0.69966 0.41513 0.98101 0.0
H726 H 0.71795 0.39893 0.97143 0.0
H727 H 0.71522 0.40075 0.02302 0.0
C728 C 0.76567 0.34776 0.03878 0.0
N729 N 0.75117 0.35093 0.03135 0.0
C730 C 0.76626 0.33713 0.052 0.0
C731 C 0.73693 0.33366 0.04984 0.0
C732 C 0.73692 0.34431 0.03667 0.0
C733 C 0.75172 0.33006 0.05766 0.0
H734 H 0.77673 0.35361 0.03451 0.0
H735 H 0.72554 0.34746 0.03088 0.0
C736 C 0.75407 0.40135 0.96919 0.0
N737 N 0.75737 0.42562 0.94601 0.0
C738 C 0.75996 0.39754 0.9536 0.0
C739 C 0.74981 0.41748 0.97299 0.0
C740 C 0.76155 0.40999 0.94205 0.0
C741 C 0.75159 0.42958 0.9611 0.0
C742 C 0.7824 0.35192 0.00063 0.0
C743 C 0.79912 0.35543 0.00014 0.0
C744 C 0.77711 0.33568 0.0018 0.0
C745 C 0.8103 0.34257 0.00077 0.0
C746 C 0.78868 0.32317 0.00241 0.0
N747 N 0.80489 0.32685 0.00188 0.0
C748 C 0.79083 0.40077 0.01844 0.0
C749 C 0.79002 0.41125 0.99142 0.0
C750 C 0.80548 0.40891 0.02152 0.0
N751 N 0.78371 0.40178 0.00348 0.0
C752 C 0.80458 0.41975 0.99402 0.0
C753 C 0.81269 0.41814 0.00904 0.0
H754 H 0.78547 0.39302 0.02771 0.0
H755 H 0.78426 0.41159 0.97956 0.0
C756 C 0.74013 0.35066 0.95727 0.0
N757 N 0.75437 0.35212 0.96564 0.0
C758 C 0.73949 0.34135 0.94303 0.0
C759 C 0.76807 0.33474 0.94674 0.0
C760 C 0.7682 0.34435 0.96083 0.0
C761 C 0.75367 0.33349 0.93745 0.0
H762 H 0.72938 0.35706 0.96151 0.0
H763 H 0.77938 0.34586 0.96768 0.0
O764 O 0.7499 0.38814 0.01843 0.0
O765 O 0.73339 0.36251 -0.003 0.0
O766 O 0.75218 0.38922 0.9805 0.0
O767 O 0.77134 0.36442 0.00017 0.0
H768 H 0.74297 0.38426 0.04965 0.0
H769 H 0.75334 0.41985 0.0124 0.0
H770 H 0.73983 0.40693 0.06973 0.0
H771 H 0.74991 0.44191 0.03307 0.0
H772 H 0.71752 0.30923 0.99278 0.0
H773 H 0.70263 0.36633 0.00583 0.0
H774 H 0.73848 0.33109 0.99037 0.0
H775 H 0.68221 0.34384 0.00781 0.0
H776 H 0.6929 0.42078 0.02183 0.0
H777 H 0.69564 0.41899 0.96902 0.0
H778 H 0.77782 0.3349 0.05804 0.0
H779 H 0.72547 0.32848 0.05403 0.0
H780 H 0.76321 0.38509 0.95046 0.0
H781 H 0.74507 0.42061 0.98492 0.0
H782 H 0.76608 0.40723 0.92993 0.0
H783 H 0.74833 0.44211 0.96386 0.0
H784 H 0.80339 0.36796 -0.0007 0.0
H785 H 0.76423 0.33279 0.00237 0.0
H786 H 0.82329 0.34509 0.0004 0.0
H787 H 0.78476 0.31055 0.00335 0.0
H788 H 0.81151 0.40739 0.03321 0.0
H789 H 0.81001 0.42654 0.98404 0.0
H790 H 0.72821 0.341 0.93611 0.0
H791 H 0.77923 0.32874 0.94293 0.0
Li792 Li 0.88915 0.50346 0.2606 0.0
Li793 Li 0.86736 0.48924 0.24529 0.0
Li794 Li 0.88996 0.50375 0.23116 0.0
Li795 Li 0.86786 0.51882 0.24524 0.0
C796 C 0.90208 0.47277 0.24938 0.0
N797 N 0.92442 0.44866 0.25681 0.0
C798 C 0.89679 0.458 0.25617 0.0
C799 C 0.9187 0.47526 0.2463 0.0
C800 C 0.90829 0.44596 0.25986 0.0
C801 C 0.92981 0.46293 0.25017 0.0
C802 C 0.85418 0.50091 0.27608 0.0
C803 C 0.82665 0.50193 0.28654 0.0
N804 N 0.83174 0.49446 0.30046 0.0
C805 C 0.85916 0.49329 0.2905 0.0
C806 C 0.83781 0.50533 0.27408 0.0
C807 C 0.84762 0.49012 0.30268 0.0
C808 C 0.90061 0.51989 0.28701 0.0
N809 N 0.9018 0.50509 0.27949 0.0
C810 C 0.91916 0.49511 0.30054 0.0
C811 C 0.91099 0.49281 0.28577 0.0
C812 C 0.91748 0.51002 0.30889 0.0
C813 C 0.90835 0.52264 0.3019 0.0
H814 H 0.89315 0.52936 0.28164 0.0
H815 H 0.91154 0.48107 0.27976 0.0
C816 C 0.8558 0.46269 0.22883 0.0
N817 N 0.85397 0.47079 0.24324 0.0
C818 C 0.84769 0.44793 0.22615 0.0
C819 C 0.83519 0.45069 0.25285 0.0
C820 C 0.84373 0.4653 0.2551 0.0
C821 C 0.83754 0.44169 0.23843 0.0
H822 H 0.86406 0.46746 0.21967 0.0
H823 H 0.84261 0.47179 0.26652 0.0
C824 C 0.90477 0.53278 0.24485 0.0
N825 N 0.93142 0.55335 0.24179 0.0
C826 C 0.90255 0.54915 0.24056 0.0
C827 C 0.9205 0.52686 0.24769 0.0
C828 C 0.91619 0.55936 0.23906 0.0
C829 C 0.93384 0.53746 0.24604 0.0
C830 C 0.85281 0.50507 0.21645 0.0
C831 C 0.85448 0.5084 0.1998 0.0
C832 C 0.83726 0.50296 0.22317 0.0
C833 C 0.84048 0.50967 0.19011 0.0
C834 C 0.82356 0.50433 0.21307 0.0
N835 N 0.82544 0.50763 0.19689 0.0
C836 C 0.90837 0.48748 0.20817 0.0
C837 C 0.91057 0.51643 0.20681 0.0
C838 C 0.91995 0.48567 0.19587 0.0
N839 N 0.90419 0.50266 0.21351 0.0
C840 C 0.92217 0.51521 0.19445 0.0
C841 C 0.92705 0.49967 0.18894 0.0
H842 H 0.90284 0.47678 0.21363 0.0
H843 H 0.90668 0.52832 0.21107 0.0
C844 C 0.85069 0.54265 0.26141 0.0
N845 N 0.8545 0.53711 0.24621 0.0
C846 C 0.83898 0.55477 0.26339 0.0
C847 C 0.83614 0.55591 0.23394 0.0
C848 C 0.84785 0.54368 0.23254 0.0
C849 C 0.83134 0.56133 0.24954 0.0
H850 H 0.85638 0.53722 0.27201 0.0
H851 H 0.85138 0.5392 0.22062 0.0
O852 O 0.89096 0.48457 0.24548 0.0
O853 O 0.86536 0.50432 0.26414 0.0
O854 O 0.89151 0.52268 0.2463 0.0
O855 O 0.86643 0.50391 0.22604 0.0
H856 H 0.88395 0.45586 0.25856 0.0
H857 H 0.92299 0.48658 0.24097 0.0
H858 H 0.90439 0.43447 0.26513 0.0
H859 H 0.94271 0.46469 0.24787 0.0
H860 H 0.81394 0.50525 0.28515 0.0
H861 H 0.8718 0.48986 0.29227 0.0
H862 H 0.83375 0.51132 0.26305 0.0
H863 H 0.85128 0.48423 0.31391 0.0
H864 H 0.92587 0.48503 0.30586 0.0
H865 H 0.90675 0.53422 0.3082 0.0
H866 H 0.84979 0.44114 0.21495 0.0
H867 H 0.82767 0.44598 0.26267 0.0
H868 H 0.8904 0.55389 0.23838 0.0
H869 H 0.92239 0.51425 0.25114 0.0
H870 H 0.91467 0.57206 0.23571 0.0
H871 H 0.9461 0.53306 0.24815 0.0
H872 H 0.86647 0.51003 0.19444 0.0
H873 H 0.83579 0.50029 0.23602 0.0
H874 H 0.84158 0.51227 0.1772 0.0
H875 H 0.81143 0.50276 0.2181 0.0
H876 H 0.92335 0.4735 0.19187 0.0
H877 H 0.92701 0.52629 0.18904 0.0
H878 H 0.83563 0.55862 0.27562 0.0
H879 H 0.83087 0.56101 0.22295 0.0
Li880 Li 0.75488 0.63861 0.51298 0.0
Li881 Li 0.76897 0.61685 0.49661 0.0
Li882 Li 0.75181 0.63873 0.48357 0.0
Li883 Li 0.7393 0.61629 0.49944 0.0
C884 C 0.7833 0.65322 0.49919 0.0
N885 N 0.80568 0.67793 0.50514 0.0
C886 C 0.79931 0.6494 0.50368 0.0
C887 C 0.77868 0.66959 0.49763 0.0
C888 C 0.81044 0.66208 0.50667 0.0
C889 C 0.79017 0.68191 0.50072 0.0
C890 C 0.7536 0.60335 0.52887 0.0
C891 C 0.75058 0.57529 0.53743 0.0
N892 N 0.74857 0.58045 0.55313 0.0
C893 C 0.75153 0.60837 0.54509 0.0
C894 C 0.75316 0.58667 0.52499 0.0
C895 C 0.74899 0.59661 0.55718 0.0
C896 C 0.74041 0.65358 0.53932 0.0
N897 N 0.7551 0.6517 0.53184 0.0
C898 C 0.76868 0.66587 0.55346 0.0
C899 C 0.76909 0.6578 0.53843 0.0
C900 C 0.7538 0.66717 0.56194 0.0
C901 C 0.73947 0.66129 0.55448 0.0
H902 H 0.72954 0.64832 0.53386 0.0
H903 H 0.78065 0.65587 0.53242 0.0
C904 C 0.79497 0.60307 0.47929 0.0
N905 N 0.7875 0.60374 0.49411 0.0
C906 C 0.80844 0.59291 0.47694 0.0
C907 C 0.80608 0.58432 0.50514 0.0
C908 C 0.79281 0.59477 0.50698 0.0
C909 C 0.81402 0.58331 0.48997 0.0
H910 H 0.79036 0.61036 0.46929 0.0
H911 H 0.78674 0.59574 0.51866 0.0
C912 C 0.72293 0.65152 0.49797 0.0
N913 N 0.6992 0.67506 0.49369 0.0
C914 C 0.70702 0.64693 0.49369 0.0
C915 C 0.72677 0.66806 0.50018 0.0
C916 C 0.69519 0.65902 0.49157 0.0
C917 C 0.71461 0.67979 0.4979 0.0
C918 C 0.75106 0.60243 0.46813 0.0
C919 C 0.74589 0.60558 0.45217 0.0
C920 C 0.75507 0.58648 0.47266 0.0
C921 C 0.74471 0.59263 0.441 0.0
C922 C 0.75375 0.57387 0.46114 0.0
N923 N 0.74862 0.57718 0.44568 0.0
C924 C 0.76473 0.65763 0.45903 0.0
C925 C 0.73592 0.65465 0.4573 0.0
C926 C 0.76506 0.66645 0.44455 0.0
N927 N 0.75035 0.65192 0.46502 0.0
C928 C 0.73569 0.66328 0.44262 0.0
C929 C 0.75045 0.66908 0.43603 0.0
H930 H 0.77605 0.65482 0.46518 0.0
H931 H 0.72471 0.64965 0.46221 0.0
C932 C 0.71384 0.59968 0.51579 0.0
N933 N 0.72043 0.60314 0.50094 0.0
C934 C 0.69867 0.59192 0.51681 0.0
C935 C 0.69741 0.59151 0.48725 0.0
C936 C 0.71266 0.5991 0.4868 0.0
C937 C 0.69014 0.58814 0.5024 0.0
H938 H 0.71996 0.60361 0.52684 0.0
H939 H 0.71791 0.60249 0.47519 0.0
O940 O 0.77235 0.64094 0.49604 0.0
O941 O 0.75631 0.61474 0.51694 0.0
O942 O 0.73453 0.6398 0.50047 0.0
O943 O 0.75236 0.61502 0.47914 0.0
H944 H 0.80308 0.63676 0.50485 0.0
H945 H 0.76639 0.67273 0.49397 0.0
H946 H 0.82287 0.65931 0.51019 0.0
H947 H 0.78677 0.69464 0.49955 0.0
H948 H 0.7502 0.56234 0.5346 0.0
H949 H 0.75197 0.62121 0.54835 0.0
H950 H 0.75476 0.58256 0.51254 0.0
H951 H 0.74739 0.60033 0.56979 0.0
H952 H 0.77999 0.67044 0.55865 0.0
H953 H 0.72778 0.66177 0.56067 0.0
H954 H 0.81431 0.59242 0.46509 0.0
H955 H 0.81027 0.57731 0.51553 0.0
H956 H 0.70382 0.63415 0.49208 0.0
H957 H 0.73896 0.67178 0.50374 0.0
H958 H 0.68282 0.65564 0.48828 0.0
H959 H 0.7174 0.69265 0.49956 0.0
H960 H 0.74281 0.61789 0.44846 0.0
H961 H 0.7593 0.58388 0.48488 0.0
H962 H 0.7407 0.59487 0.42861 0.0
H963 H 0.75683 0.56146 0.46447 0.0
H964 H 0.77671 0.67039 0.43962 0.0
H965 H 0.72421 0.66503 0.43626 0.0
H966 H 0.69328 0.58973 0.5287 0.0
H967 H 0.69114 0.58876 0.47589 0.0
Li968 Li 0.64147 0.5136 0.7509 0.0
Li969 Li 0.62035 0.49836 0.76715 0.0
Li970 Li 0.64273 0.48362 0.75251 0.0
Li971 Li 0.61968 0.49656 0.73729 0.0
C972 C 0.65667 0.50024 0.78162 0.0
N973 N 0.68179 0.50098 0.80416 0.0
C974 C 0.65339 0.50363 0.79805 0.0
C975 C 0.6727 0.49715 0.77665 0.0
C976 C 0.66627 0.50398 0.80926 0.0
C977 C 0.68524 0.49759 0.78824 0.0
C978 C 0.60528 0.52736 0.75407 0.0
C979 C 0.57685 0.53496 0.75359 0.0
N980 N 0.58087 0.5499 0.75985 0.0
C981 C 0.60916 0.5428 0.76044 0.0
C982 C 0.58902 0.52341 0.75053 0.0
C983 C 0.59663 0.55402 0.7633 0.0
C984 C 0.65239 0.54031 0.7333 0.0
N985 N 0.65395 0.53282 0.74801 0.0
C986 C 0.67376 0.55253 0.75667 0.0
C987 C 0.66432 0.5386 0.75968 0.0
C988 C 0.6724 0.56057 0.74156 0.0
C989 C 0.66153 0.55431 0.7298 0.0
H990 H 0.64409 0.53531 0.72425 0.0
H991 H 0.66524 0.53244 0.7713 0.0
C992 C 0.60842 0.48189 0.79365 0.0
N993 N 0.60761 0.49675 0.78632 0.0
C994 C 0.59935 0.47872 0.80771 0.0
C995 C 0.58878 0.50629 0.80645 0.0
C996 C 0.59811 0.50894 0.79242 0.0
C997 C 0.58936 0.49101 0.81428 0.0
H998 H 0.61611 0.47245 0.78848 0.0
H999 H 0.5978 0.52071 0.7865 0.0
C1000 C 0.65556 0.49705 0.7214 0.0
N1001 N 0.68008 0.4961 0.69824 0.0
C1002 C 0.65215 0.49169 0.70551 0.0
C1003 C 0.67141 0.50202 0.7255 0.0
C1004 C 0.66472 0.49127 0.69397 0.0
C1005 C 0.68365 0.50142 0.71362 0.0
C1006 C 0.60638 0.46775 0.75182 0.0
C1007 C 0.60929 0.45157 0.74707 0.0
C1008 C 0.59042 0.4729 0.75491 0.0
C1009 C 0.59609 0.4408 0.74535 0.0
C1010 C 0.57755 0.46175 0.75305 0.0
N1011 N 0.58063 0.44607 0.74833 0.0
C1012 C 0.6555 0.45721 0.76904 0.0
C1013 C 0.66679 0.46031 0.74253 0.0
C1014 C 0.66489 0.44327 0.77173 0.0
N1015 N 0.65656 0.46532 0.75461 0.0
C1016 C 0.6765 0.44649 0.74474 0.0
C1017 C 0.6755 0.43772 0.75945 0.0
H1018 H 0.64721 0.46153 0.77841 0.0
H1019 H 0.66726 0.46683 0.7311 0.0
C1020 C 0.60368 0.51111 0.71171 0.0
N1021 N 0.606 0.49629 0.71879 0.0
C1022 C 0.59384 0.51248 0.6979 0.0
C1023 C 0.58887 0.48329 0.69896 0.0
C1024 C 0.59894 0.48246 0.71271 0.0
C1025 C 0.58633 0.49844 0.69136 0.0
H1026 H 0.60957 0.52186 0.7168 0.0
H1027 H 0.60124 0.47078 0.71836 0.0
O1028 O 0.64416 0.49985 0.77055 0.0
O1029 O 0.61742 0.51635 0.75097 0.0
O1030 O 0.64335 0.49758 0.73277 0.0
O1031 O 0.61917 0.47843 0.75343 0.0
H1032 H 0.64101 0.506 0.80207 0.0
H1033 H 0.67542 0.49434 0.76401 0.0
H1034 H 0.66392 0.50662 0.82202 0.0
H1035 H 0.69771 0.49522 0.78458 0.0
H1036 H 0.56421 0.53207 0.75093 0.0
H1037 H 0.62172 0.54606 0.76312 0.0
H1038 H 0.58585 0.51159 0.7454 0.0
H1039 H 0.59944 0.56601 0.76824 0.0
H1040 H 0.68179 0.55714 0.76617 0.0
H1041 H 0.6602 0.56011 0.71799 0.0
H1042 H 0.60007 0.46675 0.8133 0.0
H1043 H 0.58143 0.51618 0.81131 0.0
H1044 H 0.63991 0.48787 0.70215 0.0
H1045 H 0.67422 0.50635 0.7377 0.0
H1046 H 0.66227 0.48713 0.68163 0.0
H1047 H 0.69597 0.50522 0.71662 0.0
H1048 H 0.62162 0.44742 0.74468 0.0
H1049 H 0.588 0.48535 0.75873 0.0
H1050 H 0.59814 0.42825 0.74162 0.0
H1051 H 0.56512 0.46556 0.75536 0.0
H1052 H 0.66382 0.43686 0.78325 0.0
H1053 H 0.68433 0.44243 0.73487 0.0
H1054 H 0.59212 0.52438 0.69239 0.0
H1055 H 0.58351 0.47215 0.69407 0.0
Li1056 Li 0.98843 0.75188 0.86634 0.0
Li1057 Li 0.00499 0.76662 0.88746 0.0
Li1058 Li 0.01835 0.74936 0.86575 0.0
Li1059 Li 0.0026 0.7369 0.88896 0.0
C1060 C 0.00361 0.78045 0.85103 0.0
N1061 N 0.00032 0.80294 0.82614 0.0
C1062 C -0.00077 0.7966 0.85459 0.0
C1063 C 0.00648 0.77578 0.83483 0.0
C1064 C -0.00241 0.80778 0.84183 0.0
C1065 C 0.0047 0.78732 0.82241 0.0
C1066 C 0.97346 0.75101 0.90202 0.0
C1067 C 0.96611 0.74835 0.93042 0.0
N1068 N 0.95015 0.74668 0.92604 0.0
C1069 C 0.957 0.74925 0.89778 0.0
C1070 C 0.97807 0.75063 0.91846 0.0
C1071 C 0.94539 0.74711 0.91011 0.0
C1072 C 0.96171 0.73781 0.85035 0.0
N1073 N 0.96944 0.7523 0.85313 0.0
C1074 C 0.9501 0.76639 0.8365 0.0
C1075 C 0.96381 0.7665 0.84666 0.0
C1076 C 0.94205 0.75153 0.83313 0.0
C1077 C 0.94798 0.73712 0.84028 0.0
H1078 H 0.96629 0.72675 0.8559 0.0
H1079 H 0.96988 0.77793 0.84943 0.0
C1080 C 0.01809 0.79341 0.90686 0.0
N1081 N 0.00481 0.78622 0.89979 0.0
C1082 C 0.01631 0.80792 0.9158 0.0
C1083 C 0.98744 0.80758 0.90938 0.0
C1084 C 0.98971 0.79297 0.9009 0.0
C1085 C 0.00083 0.81514 0.91699 0.0
H1086 H 0.03005 0.78802 0.90548 0.0
H1087 H 0.97943 0.78704 0.89499 0.0
C1088 C 0.00088 0.72046 0.85296 0.0
N1089 N -0.00055 0.69764 0.82797 0.0
C1090 C 0.00245 0.70381 0.8564 0.0
C1091 C -0.00147 0.72552 0.83683 0.0
C1092 C 0.00172 0.69245 0.84359 0.0
C1093 C -0.00215 0.7138 0.82437 0.0
C1094 C 0.03483 0.75418 0.90074 0.0
C1095 C 0.05084 0.75686 0.89544 0.0
C1096 C 0.0312 0.75511 0.91742 0.0
C1097 C 0.06299 0.76044 0.90694 0.0
C1098 C 0.04367 0.75878 0.92853 0.0
N1099 N 0.05918 0.76133 0.92311 0.0
C1100 C 0.04454 0.76013 0.84635 0.0
C1101 C 0.04116 0.73131 0.84731 0.0
C1102 C 0.05814 0.75847 0.83622 0.0
N1103 N 0.03643 0.74664 0.8517 0.0
C1104 C 0.05461 0.72907 0.83711 0.0
C1105 C 0.06342 0.74276 0.83158 0.0
H1106 H 0.0406 0.77216 0.85022 0.0
H1107 H 0.03465 0.72078 0.85194 0.0
C1108 C 0.98856 0.70872 0.9034 0.0
N1109 N 0.00201 0.71852 0.90279 0.0
C1110 C 0.98904 0.69408 0.91218 0.0
C1111 C 0.01691 0.70035 0.91994 0.0
C1112 C 0.01598 0.71466 0.91084 0.0
C1113 C 0.00345 0.68972 0.92042 0.0
H1114 H 0.97771 0.712 0.89663 0.0
H1115 H 0.02666 0.72233 0.90968 0.0
O1116 O 0.00535 0.7694 0.86342 0.0
O1117 O 0.9849 0.75346 0.89009 0.0
O1118 O 0.00151 0.73169 0.86539 0.0
O1119 O 0.02293 0.75012 0.88967 0.0
H1120 H -0.0029 0.80046 0.86707 0.0
H1121 H 0.01018 0.76343 0.83188 0.0
H1122 H 0.99416 0.8203 0.8444 0.0
H1123 H 0.00687 0.78386 0.80982 0.0
H1124 H 0.96951 0.74796 0.9432 0.0
H1125 H 0.95322 0.74968 0.88511 0.0
H1126 H 0.99073 0.75206 0.92194 0.0
H1127 H 0.9326 0.74581 0.90701 0.0
H1128 H 0.94572 0.77783 0.83155 0.0
H1129 H 0.94221 0.72538 0.83796 0.0
H1130 H 0.0269 0.81362 0.92143 0.0
H1131 H 0.97535 0.81289 0.91008 0.0
H1132 H 0.00424 0.6997 0.86884 0.0
H1133 H -0.00293 0.73833 0.83401 0.0
H1134 H 0.00295 0.67952 0.84606 0.0
H1135 H -0.00401 0.71754 0.81183 0.0
H1136 H 0.05389 0.75603 0.88258 0.0
H1137 H 0.01893 0.75294 0.92175 0.0
H1138 H 0.07545 0.76246 0.90302 0.0
H1139 H 0.04103 0.75955 0.94147 0.0
H1140 H 0.06478 0.76934 0.83255 0.0
H1141 H 0.05822 0.71676 0.83378 0.0
H1142 H 0.97843 0.68612 0.91225 0.0
H1143 H 0.02833 0.69723 0.92583 0.0
Li1144 Li 0.00091 0.2628 0.61451 0.0
Li1145 Li 0.01537 0.2484 0.63648 0.0
Li1146 Li 0.00015 0.23308 0.61417 0.0
Li1147 Li 0.98609 0.24807 0.63649 0.0
C1148 C 0.03107 0.2479 0.60075 0.0
N1149 N 0.05465 0.249 0.57662 0.0
C1150 C 0.04728 0.2516 0.60477 0.0
C1151 C 0.02687 0.24465 0.5845 0.0
C1152 C 0.05902 0.25213 0.59238 0.0
C1153 C 0.03897 0.24529 0.57247 0.0
C1154 C 0.00477 0.27866 0.64984 0.0
C1155 C 0.00777 0.2866 0.67811 0.0
N1156 N 0.01276 0.30174 0.67332 0.0
C1157 C 0.00992 0.29428 0.64518 0.0
C1158 C 0.00366 0.27476 0.66642 0.0
C1159 C 0.01392 0.30579 0.65724 0.0
C1160 C 0.98695 0.28825 0.59657 0.0
N1161 N 0.00124 0.28085 0.60052 0.0
C1162 C 0.01625 0.29889 0.5833 0.0
C1163 C 0.01576 0.28601 0.59434 0.0
C1164 C 0.00167 0.30663 0.57882 0.0
C1165 C 0.98686 0.30119 0.58556 0.0
H1166 H 0.97564 0.28418 0.60206 0.0
H1167 H 0.02699 0.28028 0.59809 0.0
C1168 C 0.0393 0.2326 0.65376 0.0
N1169 N 0.03408 0.24776 0.64956 0.0
C1170 C 0.05422 0.2307 0.66162 0.0
C1171 C 0.05774 0.26014 0.66138 0.0
C1172 C 0.04277 0.26147 0.65337 0.0
C1173 C 0.06378 0.24455 0.66507 0.0
H1174 H 0.03223 0.22193 0.6503 0.0
H1175 H 0.03852 0.27333 0.64948 0.0
C1176 C 0.97018 0.25061 0.60092 0.0
N1177 N 0.94702 0.25579 0.57693 0.0
C1178 C 0.95381 0.25287 0.60518 0.0
C1179 C 0.97478 0.25098 0.58448 0.0
C1180 C 0.94227 0.25545 0.59286 0.0
C1181 C 0.9629 0.25364 0.57253 0.0
C1182 C -0.00321 0.2181 0.64986 0.0
C1183 C 0.99098 0.20257 0.6455 0.0
C1184 C -0.00149 0.22225 0.66636 0.0
C1185 C 0.98681 0.19148 0.65778 0.0
C1186 C 0.99418 0.21083 0.67828 0.0
N1187 N 0.98847 0.19581 0.67377 0.0
C1188 C 0.01372 0.20651 0.59805 0.0
C1189 C 0.98537 0.21022 0.59329 0.0
C1190 C 0.01374 0.19254 0.58828 0.0
N1191 N -0.00036 0.21487 0.60044 0.0
C1192 C 0.98485 0.19641 0.58328 0.0
C1193 C -0.00089 0.18721 0.58091 0.0
H1194 H 0.02483 0.21054 0.60404 0.0
H1195 H 0.97432 0.21703 0.59562 0.0
C1196 C 0.96349 0.26167 0.65811 0.0
N1197 N 0.96786 0.24781 0.65004 0.0
C1198 C 0.9499 0.26162 0.66832 0.0
C1199 C 0.94558 0.23304 0.66154 0.0
C1200 C 0.95921 0.23367 0.65144 0.0
C1201 C 0.94073 0.24719 0.66999 0.0
H1202 H 0.97037 0.27284 0.65638 0.0
H1203 H 0.96279 0.22297 0.64453 0.0
O1204 O 0.01944 0.2475 0.61275 0.0
O1205 O 0.00034 0.26745 0.63817 0.0
O1206 O 0.98156 0.24799 0.61287 0.0
O1207 O 0.00113 0.22899 0.63798 0.0
H1208 H 0.05073 0.25412 0.61731 0.0
H1209 H 0.01445 0.24159 0.5812 0.0
H1210 H 0.0716 0.25504 0.5953 0.0
H1211 H 0.03589 0.24282 0.55983 0.0
H1212 H 0.00693 0.28378 0.69099 0.0
H1213 H 0.01074 0.2975 0.63238 0.0
H1214 H -0.00048 0.26279 0.67022 0.0
H1215 H 0.01789 0.31794 0.65382 0.0
H1216 H 0.02792 0.30285 0.57845 0.0
H1217 H 0.97542 0.30719 0.58276 0.0
H1218 H 0.05863 0.2185 0.66426 0.0
H1219 H 0.065 0.27104 0.66366 0.0
H1220 H 0.95005 0.2526 0.61787 0.0
H1221 H 0.98739 0.24932 0.58099 0.0
H1222 H 0.92955 0.25719 0.59597 0.0
H1223 H 0.96629 0.254 0.55975 0.0
H1224 H 0.9897 0.19914 0.63275 0.0
H1225 H 0.00321 0.23413 0.66992 0.0
H1226 H 0.98228 0.17942 0.65459 0.0
H1227 H 0.99541 0.21389 0.6911 0.0
H1228 H 0.02495 0.18563 0.58711 0.0
H1229 H 0.97335 0.19278 0.57776 0.0
H1230 H 0.94625 0.27287 0.67434 0.0
H1231 H 0.93873 0.22171 0.66251 0.0
Li1232 Li 0.48761 0.2517 0.36481 0.0
Li1233 Li 0.50273 0.26673 0.38655 0.0
Li1234 Li 0.51743 0.25196 0.36366 0.0
Li1235 Li 0.50414 0.23668 0.38605 0.0
C1236 C 0.50076 0.28233 0.35073 0.0
N1237 N 0.49753 0.30568 0.32664 0.0
C1238 C 0.49633 0.29833 0.35485 0.0
C1239 C 0.50367 0.27823 0.3344 0.0
C1240 C 0.49473 0.30996 0.34249 0.0
C1241 C 0.50193 0.2902 0.32238 0.0
C1242 C 0.47303 0.25148 0.40078 0.0
C1243 C 0.46525 0.25015 0.42918 0.0
N1244 N 0.44959 0.25373 0.42496 0.0
C1245 C 0.45685 0.2551 0.39672 0.0
C1246 C 0.47729 0.24897 0.41713 0.0
C1247 C 0.44518 0.2562 0.40913 0.0
C1248 C 0.46165 0.2363 0.34893 0.0
N1249 N 0.46854 0.25115 0.352 0.0
C1250 C 0.44805 0.26457 0.33629 0.0
C1251 C 0.46201 0.26518 0.34605 0.0
C1252 C 0.44071 0.24938 0.3328 0.0
C1253 C 0.44766 0.23512 0.33927 0.0
H1254 H 0.46708 0.22538 0.35398 0.0
H1255 H 0.46752 0.27686 0.34899 0.0
C1256 C 0.5163 0.29442 0.40251 0.0
N1257 N 0.50239 0.28556 0.40008 0.0
C1258 C 0.51591 0.30869 0.412 0.0
C1259 C 0.48706 0.30407 0.4166 0.0
C1260 C 0.48792 0.29021 0.40673 0.0
C1261 C 0.50113 0.31353 0.4192 0.0
H1262 H 0.5276 0.29053 0.39687 0.0
H1263 H 0.47692 0.28342 0.4041 0.0
C1264 C 0.50329 0.22212 0.3495 0.0
N1265 N 0.50501 0.20026 0.32371 0.0
C1266 C 0.50757 0.20583 0.35229 0.0
C1267 C 0.49975 0.22728 0.33363 0.0
C1268 C 0.50842 0.19497 0.33908 0.0
C1269 C 0.50071 0.21604 0.32074 0.0
C1270 C 0.53332 0.25137 0.39987 0.0
C1271 C 0.54959 0.24738 0.39659 0.0
C1272 C 0.52841 0.2544 0.41595 0.0
C1273 C 0.56068 0.24637 0.40953 0.0
C1274 C 0.53987 0.25324 0.42856 0.0
N1275 N 0.55563 0.24929 0.42511 0.0
C1276 C 0.54323 0.26584 0.34564 0.0
C1277 C 0.54214 0.23681 0.34591 0.0
C1278 C 0.5579 0.26547 0.33699 0.0
N1279 N 0.53583 0.25162 0.35003 0.0
C1280 C 0.5566 0.23586 0.33704 0.0
C1281 C 0.56481 0.2503 0.33284 0.0
H1282 H 0.53804 0.27743 0.34938 0.0
H1283 H 0.53635 0.22571 0.3501 0.0
C1284 C 0.49319 0.2108 0.40629 0.0
N1285 N 0.50625 0.21753 0.39852 0.0
C1286 C 0.495 0.19632 0.41506 0.0
C1287 C 0.52351 0.19577 0.4072 0.0
C1288 C 0.52119 0.21036 0.39877 0.0
C1289 C 0.5103 0.18862 0.41548 0.0
H1290 H 0.48134 0.21652 0.40546 0.0
H1291 H 0.53125 0.21585 0.39218 0.0
O1292 O 0.5025 0.27089 0.36274 0.0
O1293 O 0.48458 0.2505 0.38876 0.0
O1294 O 0.50249 0.23289 0.36232 0.0
O1295 O 0.52243 0.25277 0.38729 0.0
H1296 H 0.49413 0.30172 0.36748 0.0
H1297 H 0.50739 0.26599 0.33104 0.0
H1298 H 0.49128 0.32239 0.34549 0.0
H1299 H 0.50413 0.28719 0.30968 0.0
H1300 H 0.46836 0.24821 0.44188 0.0
H1301 H 0.45338 0.25711 0.38412 0.0
H1302 H 0.48971 0.24603 0.42047 0.0
H1303 H 0.43262 0.25904 0.40617 0.0
H1304 H 0.44288 0.27588 0.33181 0.0
H1305 H 0.44241 0.22317 0.33682 0.0
H1306 H 0.52693 0.3159 0.41365 0.0
H1307 H 0.47539 0.30773 0.42165 0.0
H1308 H 0.51028 0.20164 0.36453 0.0
H1309 H 0.49617 0.23976 0.33129 0.0
H1310 H 0.51178 0.18234 0.34105 0.0
H1311 H 0.49801 0.21985 0.30839 0.0
H1312 H 0.55359 0.24514 0.38416 0.0
H1313 H 0.51594 0.25777 0.41864 0.0
H1314 H 0.57332 0.24331 0.40718 0.0
H1315 H 0.53625 0.25556 0.44107 0.0
H1316 H 0.56404 0.27684 0.33401 0.0
H1317 H 0.56181 0.22397 0.33437 0.0
H1318 H 0.48449 0.19097 0.4211 0.0
H1319 H 0.53546 0.19013 0.40727 0.0
Li1320 Li 0.49912 0.76252 0.11346 0.0
Li1321 Li 0.51463 0.74945 0.13558 0.0
Li1322 Li 0.49909 0.73301 0.11442 0.0
Li1323 Li 0.48518 0.74845 0.13641 0.0
C1324 C 0.52998 0.74864 0.10014 0.0
N1325 N 0.5542 0.75073 0.07671 0.0
C1326 C 0.54607 0.7522 0.10472 0.0
C1327 C 0.52622 0.74607 0.08366 0.0
C1328 C 0.55814 0.75322 0.09269 0.0
C1329 C 0.53863 0.7472 0.07199 0.0
C1330 C 0.50146 0.77896 0.14935 0.0
C1331 C 0.50198 0.78531 0.17816 0.0
N1332 N 0.50539 0.80121 0.17458 0.0
C1333 C 0.50492 0.79535 0.14594 0.0
C1334 C 0.49994 0.77387 0.16557 0.0
C1335 C 0.50689 0.80642 0.15887 0.0
C1336 C 0.48492 0.787 0.09405 0.0
N1337 N 0.49914 0.78026 0.09923 0.0
C1338 C 0.5148 0.79953 0.08408 0.0
C1339 C 0.5139 0.7863 0.09462 0.0
C1340 C 0.50034 0.80683 0.07858 0.0
C1341 C 0.48523 0.80036 0.08355 0.0
H1342 H 0.47336 0.78227 0.09836 0.0
H1343 H 0.525 0.78109 0.09941 0.0
C1344 C 0.53961 0.73663 0.15426 0.0
N1345 N 0.53336 0.75079 0.1484 0.0
C1346 C 0.55383 0.73691 0.16354 0.0
C1347 C 0.55482 0.76639 0.16062 0.0
C1348 C 0.54058 0.76551 0.15133 0.0
C1349 C 0.56168 0.75192 0.1667 0.0
H1350 H 0.53372 0.7251 0.1514 0.0
H1351 H 0.53548 0.77652 0.14618 0.0
C1352 C 0.46873 0.74878 0.10074 0.0
N1353 N 0.44577 0.75174 0.07618 0.0
C1354 C 0.45232 0.75138 0.10465 0.0
C1355 C 0.47346 0.74764 0.08437 0.0
C1356 C 0.44089 0.75283 0.09205 0.0
C1357 C 0.46168 0.7492 0.07213 0.0
C1358 C 0.49789 0.7185 0.15029 0.0
C1359 C 0.49214 0.70293 0.14599 0.0
C1360 C 0.50105 0.72221 0.16669 0.0
C1361 C 0.48949 0.69135 0.15823 0.0
C1362 C 0.49822 0.7103 0.17857 0.0
N1363 N 0.49255 0.69525 0.17413 0.0
C1364 C 0.51285 0.70778 0.09659 0.0
C1365 C 0.48383 0.70813 0.09677 0.0
C1366 C 0.51283 0.69373 0.08697 0.0
N1367 N 0.4985 0.71451 0.10133 0.0
C1368 C 0.48322 0.69407 0.08713 0.0
C1369 C 0.49787 0.68658 0.08234 0.0
H1370 H 0.52428 0.71313 0.10059 0.0
H1371 H 0.47264 0.7138 0.10089 0.0
C1372 C 0.46132 0.76452 0.15356 0.0
N1373 N 0.46728 0.74934 0.15046 0.0
C1374 C 0.44818 0.76651 0.16411 0.0
C1375 C 0.44739 0.73713 0.16787 0.0
C1376 C 0.46056 0.73572 0.15719 0.0
C1377 C 0.44104 0.75269 0.17134 0.0
H1378 H 0.46676 0.77507 0.14775 0.0
H1379 H 0.46522 0.72376 0.15412 0.0
O1380 O 0.51804 0.74767 0.11182 0.0
O1381 O 0.4993 0.76807 0.13679 0.0
O1382 O 0.48002 0.74738 0.11297 0.0
O1383 O 0.50079 0.72986 0.1384 0.0
H1384 H 0.54921 0.75419 0.11742 0.0
H1385 H 0.5139 0.74318 0.0799 0.0
H1386 H 0.57064 0.75598 0.09606 0.0
H1387 H 0.53589 0.74526 0.05919 0.0
H1388 H 0.50081 0.78156 0.19077 0.0
H1389 H 0.50606 0.79947 0.13342 0.0
H1390 H 0.49706 0.76128 0.16839 0.0
H1391 H 0.50957 0.81915 0.15642 0.0
H1392 H 0.52667 0.80424 0.08056 0.0
H1393 H 0.47383 0.80596 0.0799 0.0
H1394 H 0.55894 0.72543 0.16764 0.0
H1395 H 0.56054 0.77818 0.16278 0.0
H1396 H 0.44847 0.75226 0.11728 0.0
H1397 H 0.48609 0.74562 0.08117 0.0
H1398 H 0.42814 0.75484 0.09488 0.0
H1399 H 0.46518 0.7484 0.0594 0.0
H1400 H 0.48976 0.69982 0.13333 0.0
H1401 H 0.50575 0.7341 0.1702 0.0
H1402 H 0.48503 0.67925 0.15509 0.0
H1403 H 0.50059 0.71301 0.19131 0.0
H1404 H 0.52439 0.68812 0.08384 0.0
H1405 H 0.47147 0.6889 0.08378 0.0
H1406 H 0.44357 0.7787 0.1665 0.0
H1407 H 0.44192 0.72617 0.17294 0.0
Li1408 Li 0.88514 -0.00352 0.76154 0.0
Li1409 Li 0.86322 0.98208 0.74647 0.0
Li1410 Li 0.88582 -0.00282 0.73175 0.0
Li1411 Li 0.86352 0.01188 0.74609 0.0
C1412 C 0.89942 0.96692 0.7487 0.0
N1413 N 0.92435 0.94487 0.75392 0.0
C1414 C 0.89585 0.9511 0.75409 0.0
C1415 C 0.91562 0.97149 0.74579 0.0
C1416 C 0.90864 0.94013 0.75669 0.0
C1417 C 0.92807 0.96018 0.74857 0.0
C1418 C 0.84928 -0.00284 0.77666 0.0
C1419 C 0.82098 0.00014 0.78424 0.0
N1420 N 0.82493 -0.00326 0.80002 0.0
C1421 C 0.85308 0.99376 0.79295 0.0
C1422 C 0.83313 0.00043 0.77225 0.0
C1423 C 0.84059 0.99357 0.80458 0.0
C1424 C 0.90168 0.01172 0.7867 0.0
N1425 N 0.8981 -0.00329 0.78046 0.0
C1426 C 0.91323 0.98366 0.80164 0.0
C1427 C 0.90349 0.98277 0.78765 0.0
C1428 C 0.91723 -0.00095 0.80826 0.0
C1429 C 0.91137 0.01319 0.80059 0.0
H1430 H 0.89695 0.02257 0.78087 0.0
H1431 H 0.90008 0.97097 0.78269 0.0
C1432 C 0.8464 0.95548 0.7325 0.0
N1433 N 0.84975 0.96352 0.7467 0.0
C1434 C 0.83761 0.94082 0.7328 0.0
C1435 C 0.83537 0.9435 0.76221 0.0
C1436 C 0.8444 0.95792 0.76136 0.0
C1437 C 0.83221 0.93463 0.74785 0.0
H1438 H 0.85101 0.96019 0.72105 0.0
H1439 H 0.84766 0.96429 0.77248 0.0
C1440 C 0.89954 0.0271 0.74612 0.0
N1441 N 0.92424 0.0501 0.74376 0.0
C1442 C 0.89587 0.04329 0.74211 0.0
C1443 C 0.91574 0.02262 0.74903 0.0
C1444 C 0.90854 0.05473 0.74093 0.0
C1445 C 0.92806 0.03443 0.74776 0.0
C1446 C 0.84977 -0.00252 0.71599 0.0
C1447 C 0.85344 0.00084 0.69966 0.0
C1448 C 0.83355 0.995 0.72069 0.0
C1449 C 0.84074 0.0018 0.68828 0.0
C1450 C 0.82119 -0.00391 0.70896 0.0
N1451 N 0.82502 -0.00056 0.69313 0.0
C1452 C 0.90293 0.98356 0.70542 0.0
C1453 C 0.90417 0.01254 0.70724 0.0
C1454 C 0.9116 0.98383 0.69075 0.0
N1455 N 0.89926 -0.00219 0.71318 0.0
C1456 C 0.91313 0.01337 0.69282 0.0
C1457 C 0.9166 -0.00108 0.68426 0.0
H1458 H 0.89865 0.97205 0.71036 0.0
H1459 H 0.9006 0.0237 0.71332 0.0
C1460 C 0.84761 0.03861 0.76005 0.0
N1461 N 0.85062 0.03075 0.74571 0.0
C1462 C 0.83908 0.05333 0.76009 0.0
C1463 C 0.83661 0.0513 0.73065 0.0
C1464 C 0.84534 0.03672 0.73117 0.0
C1465 C 0.83367 0.05988 0.74522 0.0
H1466 H 0.8522 0.03363 0.77138 0.0
H1467 H 0.84836 0.0305 0.71991 0.0
O1468 O 0.88702 0.97773 0.74597 0.0
O1469 O 0.86142 -0.00262 0.76518 0.0
O1470 O 0.88724 0.01579 0.74729 0.0
O1471 O 0.86209 -0.00341 0.72724 0.0
H1472 H 0.88333 0.94735 0.75626 0.0
H1473 H 0.91854 0.98359 0.74133 0.0
H1474 H 0.90608 0.92785 0.7609 0.0
H1475 H 0.94067 0.96356 0.74641 0.0
H1476 H 0.80843 0.00266 0.78101 0.0
H1477 H 0.86555 0.99124 0.79656 0.0
H1478 H 0.83002 0.00328 0.75974 0.0
H1479 H 0.84334 0.99092 0.81723 0.0
H1480 H 0.91727 0.97247 0.80739 0.0
H1481 H 0.91427 0.02529 0.80525 0.0
H1482 H 0.83541 0.93419 0.72151 0.0
H1483 H 0.83167 0.93887 0.77404 0.0
H1484 H 0.88337 0.04694 0.73987 0.0
H1485 H 0.91875 0.01021 0.75236 0.0
H1486 H 0.9059 0.06729 0.73778 0.0
H1487 H 0.94066 0.03115 0.74999 0.0
H1488 H 0.86597 0.00274 0.69584 0.0
H1489 H 0.83054 0.9922 0.73324 0.0
H1490 H 0.84339 0.00443 0.67561 0.0
H1491 H 0.80857 0.99423 0.71242 0.0
H1492 H 0.91402 0.97247 0.68433 0.0
H1493 H 0.91652 0.02521 0.68793 0.0
H1494 H 0.83704 0.05971 0.77155 0.0
H1495 H 0.8329 0.0562 0.71894 0.0
Li1496 Li 0.7558 0.13691 0.516 0.0
Li1497 Li 0.76872 0.11427 0.50022 0.0
Li1498 Li 0.75288 0.13622 0.48654 0.0
Li1499 Li 0.73921 0.11448 0.50258 0.0
C1500 C 0.78397 0.15083 0.49866 0.0
N1501 N 0.80569 0.17671 0.4967 0.0
C1502 C 0.80079 0.14795 0.49883 0.0
C1503 C 0.77818 0.16685 0.49749 0.0
C1504 C 0.81158 0.16121 0.49783 0.0
C1505 C 0.78936 0.17977 0.49651 0.0
C1506 C 0.75542 0.10015 0.53107 0.0
C1507 C 0.75238 0.0713 0.53635 0.0
N1508 N 0.75538 0.07412 0.55248 0.0
C1509 C 0.75839 0.1028 0.5477 0.0
C1510 C 0.75232 0.08431 0.52533 0.0
C1511 C 0.75834 0.08946 0.55833 0.0
C1512 C 0.74301 0.15419 0.54182 0.0
N1513 N 0.75723 0.15093 0.53399 0.0
C1514 C 0.77226 0.16747 0.55284 0.0
C1515 C 0.77171 0.15737 0.53906 0.0
C1516 C 0.7578 0.17071 0.56148 0.0
C1517 C 0.74299 0.16412 0.55566 0.0
H1518 H 0.73173 0.14874 0.53751 0.0
H1519 H 0.78285 0.15441 0.53264 0.0
C1520 C 0.79276 0.09786 0.48311 0.0
N1521 N 0.78673 0.10059 0.49833 0.0
C1522 C 0.80569 0.08708 0.48087 0.0
C1523 C 0.80622 0.08259 0.51011 0.0
C1524 C 0.79322 0.09341 0.51177 0.0
C1525 C 0.81253 0.07926 0.49449 0.0
H1526 H 0.78739 0.10395 0.47271 0.0
H1527 H 0.78836 0.09611 0.52375 0.0
C1528 C 0.72347 0.14972 0.50129 0.0
N1529 N 0.69908 0.17262 0.49713 0.0
C1530 C 0.70776 0.14473 0.49668 0.0
C1531 C 0.72673 0.16632 0.50397 0.0
C1532 C 0.69561 0.15651 0.4946 0.0
C1533 C 0.71425 0.17772 0.50174 0.0
C1534 C 0.75154 0.10098 0.47043 0.0
C1535 C 0.74722 0.10559 0.45458 0.0
C1536 C 0.75515 0.08461 0.47372 0.0
C1537 C 0.74654 0.09371 0.44226 0.0
C1538 C 0.75436 0.0731 0.46106 0.0
N1539 N 0.75009 0.07785 0.44572 0.0
C1540 C 0.76618 0.1534 0.46059 0.0
C1541 C 0.73733 0.15535 0.46263 0.0
C1542 C 0.76626 0.16377 0.44714 0.0
N1543 N 0.75187 0.14961 0.46811 0.0
C1544 C 0.73683 0.16577 0.44925 0.0
C1545 C 0.75143 0.17005 0.44135 0.0
H1546 H 0.77751 0.14826 0.46496 0.0
H1547 H 0.7261 0.15172 0.46848 0.0
C1548 C 0.71283 0.1017 0.51924 0.0
N1549 N 0.72037 0.10156 0.50447 0.0
C1550 C 0.69766 0.09419 0.52108 0.0
C1551 C 0.69875 0.08579 0.49268 0.0
C1552 C 0.71387 0.09359 0.49135 0.0
C1553 C 0.6903 0.08652 0.50756 0.0
H1554 H 0.71833 0.10825 0.52938 0.0
H1555 H 0.72001 0.09392 0.47968 0.0
O1556 O 0.77332 0.13792 0.4994 0.0
O1557 O 0.7555 0.1131 0.52054 0.0
O1558 O 0.73549 0.13834 0.50336 0.0
O1559 O 0.75239 0.11254 0.48255 0.0
H1560 H 0.80544 0.13559 0.49967 0.0
H1561 H 0.76521 0.16925 0.49718 0.0
H1562 H 0.82463 0.15917 0.49793 0.0
H1563 H 0.78506 0.19223 0.49554 0.0
H1564 H 0.75002 0.05896 0.53208 0.0
H1565 H 0.76075 0.11503 0.55231 0.0
H1566 H 0.74978 0.08211 0.51255 0.0
H1567 H 0.76067 0.09131 0.57123 0.0
H1568 H 0.78391 0.17235 0.5569 0.0
H1569 H 0.7316 0.16594 0.56214 0.0
H1570 H 0.8102 0.08481 0.46862 0.0
H1571 H 0.81143 0.07713 0.52096 0.0
H1572 H 0.70501 0.13191 0.49463 0.0
H1573 H 0.73874 0.17037 0.50778 0.0
H1574 H 0.68341 0.15284 0.49096 0.0
H1575 H 0.71662 0.19061 0.50371 0.0
H1576 H 0.74442 0.11822 0.45183 0.0
H1577 H 0.75873 0.08085 0.48584 0.0
H1578 H 0.7432 0.09711 0.42993 0.0
H1579 H 0.75717 0.0604 0.46341 0.0
H1580 H 0.77771 0.16644 0.44107 0.0
H1581 H 0.72514 0.1703 0.44503 0.0
H1582 H 0.69145 0.09491 0.53275 0.0
H1583 H 0.6933 0.08014 0.48196 0.0
Li1584 Li 0.61553 0.00233 0.26345 0.0
Li1585 Li 0.63784 0.01567 0.2486 0.0
Li1586 Li 0.61443 0.00208 0.23382 0.0
Li1587 Li 0.63609 0.98626 0.24739 0.0
C1588 C 0.6023 0.0327 0.24998 0.0
N1589 N 0.57798 0.05593 0.25239 0.0
C1590 C 0.60632 0.04908 0.25299 0.0
C1591 C 0.58593 0.02814 0.24812 0.0
C1592 C 0.59384 0.06065 0.25418 0.0
C1593 C 0.5738 0.04006 0.24942 0.0
C1594 C 0.65096 0.0039 0.2783 0.0
C1595 C 0.6792 0.0049 0.28668 0.0
N1596 N 0.67454 0.01085 0.30151 0.0
C1597 C 0.64644 0.00994 0.29365 0.0
C1598 C 0.66745 0.00127 0.27479 0.0
C1599 C 0.65855 0.01342 0.30521 0.0
C1600 C 0.59927 0.98791 0.28895 0.0
N1601 N 0.60261 0.00265 0.28213 0.0
C1602 C 0.58675 0.01653 0.30225 0.0
C1603 C 0.5968 0.01686 0.28852 0.0
C1604 C 0.58299 0.00145 0.30946 0.0
C1605 C 0.58936 0.98701 0.30269 0.0
H1606 H 0.60429 0.97687 0.28366 0.0
H1607 H 0.60005 0.02843 0.28307 0.0
C1608 C 0.65791 0.03887 0.23408 0.0
N1609 N 0.65193 0.03371 0.24867 0.0
C1610 C 0.66642 0.0536 0.23313 0.0
C1611 C 0.66305 0.05704 0.26236 0.0
C1612 C 0.65449 0.04227 0.26273 0.0
C1613 C 0.66867 0.06293 0.24735 0.0
H1614 H 0.65525 0.03204 0.22305 0.0
H1615 H 0.64908 0.03817 0.27403 0.0
C1616 C 0.6002 0.97178 0.24866 0.0
N1617 N 0.576 0.94812 0.24941 0.0
C1618 C 0.60412 0.95533 0.24612 0.0
C1619 C 0.58399 0.9762 0.25163 0.0
C1620 C 0.59171 0.94355 0.24654 0.0
C1621 C 0.57193 0.96406 0.25193 0.0
C1622 C 0.65009 -0.00259 0.21801 0.0
C1623 C 0.64593 0.99258 0.20213 0.0
C1624 C 0.66651 -0.00193 0.22267 0.0
C1625 C 0.65833 0.98836 0.19117 0.0
C1626 C 0.67854 0.99372 0.21137 0.0
N1627 N 0.67424 0.989 0.19598 0.0
C1628 C 0.59686 0.01728 0.20907 0.0
C1629 C 0.59571 0.98821 0.20884 0.0
C1630 C 0.58824 0.01791 0.19442 0.0
N1631 N 0.6006 0.00258 0.21575 0.0
C1632 C 0.58711 0.98827 0.19414 0.0
C1633 C 0.58367 0.00326 0.18672 0.0
H1634 H 0.60125 0.02846 0.2147 0.0
H1635 H 0.59921 0.97672 0.2143 0.0
C1636 C 0.65453 0.96221 0.26153 0.0
N1637 N 0.6486 0.96723 0.2469 0.0
C1638 C 0.66483 0.94877 0.2623 0.0
C1639 C 0.66234 0.94562 0.23295 0.0
C1640 C 0.65201 0.95914 0.23276 0.0
C1641 C 0.66891 0.94038 0.24788 0.0
H1642 H 0.65135 0.96875 0.27258 0.0
H1643 H 0.64676 0.96319 0.22137 0.0
O1644 O 0.61441 0.02129 0.24866 0.0
O1645 O 0.63921 0.0 0.26702 0.0
O1646 O 0.61232 0.98337 0.24862 0.0
O1647 O 0.63812 0.00177 0.22881 0.0
H1648 H 0.61896 0.05282 0.25436 0.0
H1649 H 0.58263 0.01558 0.24556 0.0
H1650 H 0.59677 0.07337 0.2565 0.0
H1651 H 0.56108 0.03671 0.248 0.0
H1652 H 0.69201 0.00292 0.28414 0.0
H1653 H 0.6337 0.01191 0.2966 0.0
H1654 H 0.67114 -0.00367 0.26308 0.0
H1655 H 0.65523 0.01812 0.31713 0.0
H1656 H 0.58224 0.02791 0.30735 0.0
H1657 H 0.58663 0.97515 0.30792 0.0
H1658 H 0.6703 0.05816 0.22133 0.0
H1659 H 0.66423 0.0643 0.27342 0.0
H1660 H 0.61663 0.95169 0.24392 0.0
H1661 H 0.58078 0.98882 0.25388 0.0
H1662 H 0.59457 0.93076 0.24462 0.0
H1663 H 0.55933 0.9673 0.25425 0.0
H1664 H 0.63327 0.99212 0.19832 0.0
H1665 H 0.66992 0.00197 0.23485 0.0
H1666 H 0.6553 0.98459 0.17883 0.0
H1667 H 0.6913 0.99415 0.21481 0.0
H1668 H 0.58604 0.02962 0.18867 0.0
H1669 H 0.58405 0.9768 0.18817 0.0
H1670 H 0.66971 0.94513 0.27404 0.0
H1671 H 0.665 0.93923 0.22163 0.0
Li1672 Li 0.73163 0.88647 0.00363 0.0
Li1673 Li 0.74585 0.86472 0.0186 0.0
Li1674 Li 0.76136 0.88725 0.00445 0.0
Li1675 Li 0.74824 0.86489 0.98908 0.0
C1676 C 0.74431 0.90104 0.03384 0.0
N1677 N 0.74092 0.92646 0.05593 0.0
C1678 C 0.74046 0.89777 0.05014 0.0
C1679 C 0.74657 0.91719 0.02877 0.0
C1680 C 0.73877 0.9108 0.06113 0.0
C1681 C 0.74475 0.92989 0.04012 0.0
C1682 C 0.71716 0.85029 0.00554 0.0
C1683 C 0.7103 0.82161 0.00721 0.0
N1684 N 0.69499 0.82564 0.01224 0.0
C1685 C 0.70131 0.85415 0.01058 0.0
C1686 C 0.72167 0.8339 0.0037 0.0
C1687 C 0.6903 0.84151 0.01397 0.0
C1688 C 0.70579 0.90407 0.98955 0.0
N1689 N 0.71269 0.89915 0.0038 0.0
C1690 C 0.69119 0.91114 0.01935 0.0
C1691 C 0.70575 0.90246 0.01852 0.0
C1692 C 0.68361 0.91608 0.00485 0.0
C1693 C 0.69108 0.91261 0.98979 0.0
H1694 H 0.71152 0.901 0.97802 0.0
H1695 H 0.71121 0.89788 0.0296 0.0
C1696 C 0.75888 0.84601 0.04394 0.0
N1697 N 0.74477 0.8517 0.03736 0.0
C1698 C 0.75853 0.83737 0.05858 0.0
C1699 C 0.72911 0.84035 0.05914 0.0
C1700 C 0.73007 0.84913 0.04463 0.0
C1701 C 0.7435 0.83461 0.06638 0.0
H1702 H 0.77043 0.84861 0.03808 0.0
H1703 H 0.71915 0.85439 0.03948 0.0
C1704 C 0.74921 0.90079 0.97372 0.0
N1705 N 0.75312 0.92489 0.95046 0.0
C1706 C 0.75519 0.89682 0.95821 0.0
C1707 C 0.74512 0.91698 0.97738 0.0
C1708 C 0.7571 0.90919 0.94662 0.0
C1709 C 0.74722 0.929 0.96546 0.0
C1710 C 0.77744 0.85176 0.00266 0.0
C1711 C 0.79337 0.85627 -0.00159 0.0
C1712 C 0.77343 0.83522 0.00441 0.0
C1713 C 0.80503 0.84409 -0.00415 0.0
C1714 C 0.78544 0.82341 0.00172 0.0
N1715 N 0.80086 0.82805 -0.00246 0.0
C1716 C 0.78673 0.902 0.02096 0.0
C1717 C 0.78774 0.90614 0.99227 0.0
C1718 C 0.80217 0.90894 0.02284 0.0
N1719 N 0.78007 0.90041 0.00584 0.0
C1720 C 0.8032 0.91327 0.99359 0.0
C1721 C 0.81077 0.91416 0.00897 0.0
H1722 H 0.7804 0.89706 0.03146 0.0
H1723 H 0.78234 0.90432 0.98036 0.0
C1724 C 0.73557 0.84598 0.96395 0.0
N1725 N 0.74977 0.85174 0.97036 0.0
C1726 C 0.73566 0.83729 0.94929 0.0
C1727 C 0.76508 0.84027 0.94833 0.0
C1728 C 0.7644 0.849 0.963 0.0
C1729 C 0.75052 0.83459 0.94114 0.0
H1730 H 0.72411 0.84864 0.96995 0.0
H1731 H 0.77546 0.85405 0.96821 0.0
O1732 O 0.74596 0.88839 0.02297 0.0
O1733 O 0.72805 0.86253 0.00211 0.0
O1734 O 0.74693 0.88874 0.98505 0.0
O1735 O 0.76597 0.86356 0.0055 0.0
H1736 H 0.73875 0.8853 0.05425 0.0
H1737 H 0.74977 0.91989 0.01625 0.0
H1738 H 0.73575 0.90847 0.07378 0.0
H1739 H 0.74642 0.94247 0.03638 0.0
H1740 H 0.71363 0.80887 0.00589 0.0
H1741 H 0.69759 0.86678 0.01193 0.0
H1742 H 0.73378 0.83072 -0.00047 0.0
H1743 H 0.67802 0.84431 0.01796 0.0
H1744 H 0.68554 0.91328 0.03114 0.0
H1745 H 0.68545 0.91619 0.97837 0.0
H1746 H 0.76987 0.83319 0.06394 0.0
H1747 H 0.71737 0.83876 0.06504 0.0
H1748 H 0.75828 0.88431 0.95514 0.0
H1749 H 0.7402 0.92021 0.98922 0.0
H1750 H 0.76172 0.9063 0.93456 0.0
H1751 H 0.7441 0.94159 0.96812 0.0
H1752 H 0.79668 0.86904 -0.00287 0.0
H1753 H 0.76124 0.83156 0.00794 0.0
H1754 H 0.81741 0.84739 0.99256 0.0
H1755 H 0.78252 0.81056 0.00303 0.0
H1756 H 0.80765 0.90952 0.03489 0.0
H1757 H 0.80959 0.917 0.98262 0.0
H1758 H 0.7241 0.83349 0.94403 0.0
H1759 H 0.7768 0.83839 0.94248 0.0
Li1760 Li 0.25166 0.63694 0.01467 0.0
Li1761 Li 0.26767 0.61483 0.00136 0.0
Li1762 Li 0.25319 0.63587 0.9853 0.0
Li1763 Li 0.23817 0.61384 -0.00051 0.0
C1764 C 0.2824 0.65007 0.9956 0.0
N1765 N 0.30455 0.67295 0.98421 0.0
C1766 C 0.29795 0.64518 0.99055 0.0
C1767 C 0.27817 0.66662 0.995 0.0
C1768 C 0.30897 0.65693 0.98482 0.0
C1769 C 0.28951 0.67799 0.98914 0.0
C1770 C 0.25452 0.60079 0.03029 0.0
C1771 C 0.2568 0.57203 0.03634 0.0
N1772 N 0.26085 0.57584 0.05204 0.0
C1773 C 0.25863 0.60444 0.04649 0.0
C1774 C 0.25351 0.58447 0.02517 0.0
C1775 C 0.2618 0.59164 0.05731 0.0
C1776 C 0.23717 0.65246 0.04164 0.0
N1777 N 0.25099 0.6511 0.0326 0.0
C1778 C 0.26544 0.66916 0.05049 0.0
C1779 C 0.26491 0.6593 0.03658 0.0
C1780 C 0.25156 0.67033 0.06047 0.0
C1781 C 0.23717 0.6621 0.05573 0.0
H1782 H 0.22634 0.64565 0.03817 0.0
H1783 H 0.27577 0.6578 0.02924 0.0
C1784 C 0.29264 0.59758 0.98731 0.0
N1785 N 0.28631 0.60169 0.0021 0.0
C1786 C 0.30617 0.58741 0.98637 0.0
C1787 C 0.3064 0.58585 0.01593 0.0
C1788 C 0.29301 0.59634 0.01631 0.0
C1789 C 0.31305 0.58135 0.0008 0.0
H1790 H 0.28715 0.60225 0.97625 0.0
H1791 H 0.28803 0.6002 0.02791 0.0
C1792 C 0.22151 0.64884 0.00126 0.0
N1793 N 0.19717 0.67188 0.00506 0.0
C1794 C 0.20513 0.64395 0.00184 0.0
C1795 C 0.22551 0.66543 0.00264 0.0
C1796 C 0.193 0.65579 0.00372 0.0
C1797 C 0.21303 0.67689 0.00459 0.0
C1798 C 0.25089 0.60035 0.97013 0.0
C1799 C 0.24472 0.6048 0.95485 0.0
C1800 C 0.25387 0.58388 0.97351 0.0
C1801 C 0.24145 0.59263 0.94324 0.0
C1802 C 0.25043 0.57207 0.96157 0.0
N1803 N 0.24434 0.57666 0.94681 0.0
C1804 C 0.26718 0.65166 0.95807 0.0
C1805 C 0.23885 0.65613 0.96226 0.0
C1806 C 0.26721 0.66235 0.94486 0.0
N1807 N 0.2532 0.64908 0.96664 0.0
C1808 C 0.23829 0.6668 0.94909 0.0
C1809 C 0.25263 0.6701 0.94032 0.0
H1810 H 0.27828 0.64545 0.96151 0.0
H1811 H 0.22782 0.65346 0.96896 0.0
C1812 C 0.21363 0.5947 0.01327 0.0
N1813 N 0.21949 0.60044 -0.00116 0.0
C1814 C 0.19843 0.58704 0.01385 0.0
C1815 C 0.19584 0.59084 0.98463 0.0
C1816 C 0.21111 0.59847 0.9846 0.0
C1817 C 0.18929 0.58544 -0.00054 0.0
H1818 H 0.2203 0.59692 0.02446 0.0
H1819 H 0.2158 0.60369 0.97344 0.0
O1820 O 0.27154 0.63874 0.00142 0.0
O1821 O 0.2514 0.61318 0.01958 0.0
O1822 O 0.23346 0.63744 -0.00126 0.0
O1823 O 0.25452 0.61215 0.98148 0.0
H1824 H 0.30149 0.63245 0.99108 0.0
H1825 H 0.26626 0.67064 -0.001 0.0
H1826 H 0.32104 0.65331 0.98085 0.0
H1827 H 0.28636 0.69082 0.98854 0.0
H1828 H 0.2561 0.55935 0.03254 0.0
H1829 H 0.2594 0.61702 0.05064 0.0
H1830 H 0.25017 0.58147 0.01272 0.0
H1831 H 0.26503 0.59427 0.06988 0.0
H1832 H 0.27673 0.67539 0.05364 0.0
H1833 H 0.22628 0.66241 0.06324 0.0
H1834 H 0.31115 0.58419 0.97452 0.0
H1835 H 0.31169 0.58154 0.02727 0.0
H1836 H 0.20181 0.63117 0.00065 0.0
H1837 H 0.23809 0.66942 0.00214 0.0
H1838 H 0.18027 0.6522 0.00407 0.0
H1839 H 0.21595 0.68978 0.00567 0.0
H1840 H 0.24249 0.61753 0.95201 0.0
H1841 H 0.25892 0.58026 0.98515 0.0
H1842 H 0.23664 0.59589 0.93137 0.0
H1843 H 0.25268 0.55927 0.96401 0.0
H1844 H 0.27842 0.66431 0.93808 0.0
H1845 H 0.2268 0.67247 0.94584 0.0
H1846 H 0.19342 0.5833 0.02552 0.0
H1847 H 0.18879 0.59012 0.97343 0.0
Li1848 Li 0.139 0.51609 0.74971 0.0
Li1849 Li 0.11674 0.50251 0.76465 0.0
Li1850 Li 0.13684 0.48661 0.74786 0.0
Li1851 Li 0.1154 0.50288 0.73503 0.0
C1852 C 0.15256 0.50323 0.77882 0.0
N1853 N 0.17682 0.50892 0.80166 0.0
C1854 C 0.1486 0.50956 0.79421 0.0
C1855 C 0.16882 0.49965 0.77508 0.0
C1856 C 0.16105 0.5124 0.80558 0.0
C1857 C 0.18092 0.50265 0.78679 0.0
C1858 C 0.10333 0.53259 0.75408 0.0
C1859 C 0.07473 0.53902 0.75677 0.0
N1860 N 0.07878 0.55455 0.76134 0.0
C1861 C 0.10723 0.54859 0.75879 0.0
C1862 C 0.08697 0.52775 0.75302 0.0
C1863 C 0.09464 0.55952 0.76242 0.0
C1864 C 0.15667 0.54009 0.73422 0.0
N1865 N 0.15317 0.53418 0.74931 0.0
C1866 C 0.16628 0.55702 0.76209 0.0
C1867 C 0.15801 0.5421 0.76316 0.0
C1868 C 0.16915 0.56382 0.74666 0.0
C1869 C 0.16472 0.55502 0.73259 0.0
H1870 H 0.15236 0.53367 0.72346 0.0
H1871 H 0.15463 0.53739 0.77499 0.0
C1872 C 0.09964 0.48645 0.78835 0.0
N1873 N 0.10394 0.50173 0.78348 0.0
C1874 C 0.08931 0.48437 0.80165 0.0
C1875 C 0.0884 0.51382 0.80496 0.0
C1876 C 0.0988 0.51533 0.79156 0.0
C1877 C 0.08352 0.49816 0.81007 0.0
H1878 H 0.10413 0.47589 0.78176 0.0
H1879 H 0.10276 0.52732 0.78764 0.0
C1880 C 0.15093 0.49799 0.7189 0.0
N1881 N 0.17511 0.48909 0.6971 0.0
C1882 C 0.14679 0.49268 0.70316 0.0
C1883 C 0.16735 0.49896 0.72351 0.0
C1884 C 0.1592 0.4882 0.69232 0.0
C1885 C 0.1794 0.49434 0.71233 0.0
C1886 C 0.10087 0.47298 0.74592 0.0
C1887 C 0.10468 0.45798 0.73861 0.0
C1888 C 0.08467 0.47646 0.75002 0.0
C1889 C 0.09216 0.44674 0.73538 0.0
C1890 C 0.0725 0.4649 0.74659 0.0
N1891 N 0.07646 0.4504 0.7394 0.0
C1892 C 0.15263 0.46156 0.76266 0.0
C1893 C 0.15374 0.45942 0.73373 0.0
C1894 C 0.16208 0.4476 0.76431 0.0
N1895 N 0.14889 0.46727 0.74757 0.0
C1896 C 0.16334 0.4454 0.73481 0.0
C1897 C 0.16761 0.43942 0.75028 0.0
H1898 H 0.14832 0.46793 0.77342 0.0
H1899 H 0.15015 0.46395 0.72189 0.0
C1900 C 0.09489 0.51898 0.71297 0.0
N1901 N 0.10127 0.50424 0.71708 0.0
C1902 C 0.0851 0.5204 0.69913 0.0
C1903 C 0.08882 0.49146 0.69398 0.0
C1904 C 0.09837 0.49058 0.70802 0.0
C1905 C 0.08226 0.50658 0.68922 0.0
H1906 H 0.09775 0.52973 0.72016 0.0
H1907 H 0.10402 0.47914 0.71134 0.0
O1908 O 0.14047 0.50005 0.76771 0.0
O1909 O 0.11552 0.52185 0.75023 0.0
O1910 O 0.13893 0.50245 0.72962 0.0
O1911 O 0.11307 0.48387 0.74967 0.0
H1912 H 0.13604 0.51226 0.79733 0.0
H1913 H 0.17205 0.49447 0.76334 0.0
H1914 H 0.15818 0.51733 0.81753 0.0
H1915 H 0.19356 0.49995 0.78407 0.0
H1916 H 0.06201 0.53545 0.75598 0.0
H1917 H 0.11986 0.55253 0.75959 0.0
H1918 H 0.08376 0.51547 0.7492 0.0
H1919 H 0.09746 0.57196 0.76606 0.0
H1920 H 0.16927 0.56375 0.77315 0.0
H1921 H 0.16662 0.5601 0.72053 0.0
H1922 H 0.08577 0.4721 0.80521 0.0
H1923 H 0.08442 0.52472 0.81139 0.0
H1924 H 0.13413 0.49198 0.69938 0.0
H1925 H 0.17074 0.50326 0.73557 0.0
H1926 H 0.15619 0.48401 0.68012 0.0
H1927 H 0.19216 0.49495 0.71574 0.0
H1928 H 0.11718 0.45503 0.73551 0.0
H1929 H 0.08153 0.48785 0.75599 0.0
H1930 H 0.09493 0.43508 0.72972 0.0
H1931 H 0.05991 0.46742 0.74972 0.0
H1932 H 0.1652 0.44337 0.77645 0.0
H1933 H 0.16717 0.43918 0.72374 0.0
H1934 H 0.08022 0.53228 0.69598 0.0
H1935 H 0.08731 0.48057 0.68652 0.0
Li1936 Li 0.23049 0.38516 0.50311 0.0
Li1937 Li 0.2449 0.36375 0.51906 0.0
Li1938 Li 0.26005 0.38595 0.50444 0.0
Li1939 Li 0.24725 0.3631 0.48924 0.0
C1940 C 0.2447 0.4002 0.53362 0.0
N1941 N 0.245 0.4257 0.5559 0.0
C1942 C 0.24339 0.39701 0.55034 0.0
C1943 C 0.24625 0.41633 0.52822 0.0
C1944 C 0.24355 0.41008 0.56141 0.0
C1945 C 0.24636 0.42906 0.53968 0.0
C1946 C 0.21641 0.34852 0.50455 0.0
C1947 C 0.20997 0.31971 0.50357 0.0
N1948 N 0.19429 0.32314 0.50786 0.0
C1949 C 0.20023 0.35177 0.50888 0.0
C1950 C 0.22133 0.33239 0.50178 0.0
C1951 C 0.18923 0.33876 0.51052 0.0
C1952 C 0.20383 0.40094 0.48845 0.0
N1953 N 0.21155 0.39772 0.50277 0.0
C1954 C 0.19094 0.41147 0.51805 0.0
C1955 C 0.20549 0.40278 0.51739 0.0
C1956 C 0.18246 0.41459 0.50353 0.0
C1957 C 0.18907 0.40941 0.48855 0.0
H1958 H 0.20893 0.39657 0.47705 0.0
H1959 H 0.21168 0.39963 0.5286 0.0
C1960 C 0.25665 0.34417 0.54502 0.0
N1961 N 0.24327 0.35121 0.53818 0.0
C1962 C 0.2551 0.33517 0.5594 0.0
C1963 C 0.22621 0.34142 0.55967 0.0
C1964 C 0.22827 0.3501 0.5452 0.0
C1965 C 0.23973 0.33383 0.56681 0.0
H1966 H 0.26852 0.34573 0.53946 0.0
H1967 H 0.21797 0.3562 0.53968 0.0
C1968 C 0.24757 0.39889 0.47321 0.0
N1969 N 0.25031 0.42292 0.44971 0.0
C1970 C 0.25354 0.39502 0.45767 0.0
C1971 C 0.24287 0.41494 0.47677 0.0
C1972 C 0.25486 0.40735 0.44596 0.0
C1973 C 0.24439 0.42693 0.46473 0.0
C1974 C 0.27678 0.35062 0.50507 0.0
C1975 C 0.29306 0.3552 0.50259 0.0
C1976 C 0.27278 0.33412 0.50712 0.0
C1977 C 0.30511 0.34314 0.50221 0.0
C1978 C 0.28518 0.32243 0.50667 0.0
N1979 N 0.30095 0.32714 0.50425 0.0
C1980 C 0.28563 0.40016 0.52078 0.0
C1981 C 0.28556 0.40613 0.4924 0.0
C1982 C 0.30093 0.40739 0.52259 0.0
N1983 N 0.27852 0.39935 0.50581 0.0
C1984 C 0.30088 0.41355 0.49366 0.0
C1985 C 0.30894 0.41365 0.5088 0.0
H1986 H 0.27979 0.3944 0.53114 0.0
H1987 H 0.27979 0.40497 0.48058 0.0
C1988 C 0.23439 0.34676 0.46257 0.0
N1989 N 0.2486 0.34954 0.47069 0.0
C1990 C 0.23442 0.338 0.44793 0.0
C1991 C 0.26367 0.3347 0.45057 0.0
C1992 C 0.26308 0.34367 0.46511 0.0
C1993 C 0.24923 0.33204 0.4416 0.0
H1994 H 0.22311 0.35181 0.46723 0.0
H1995 H 0.27425 0.34631 0.47167 0.0
O1996 O 0.24431 0.38751 0.52266 0.0
O1997 O 0.22719 0.36116 0.50252 0.0
O1998 O 0.24599 0.38689 0.4847 0.0
O1999 O 0.26492 0.36234 0.50578 0.0
H2000 H 0.24219 0.38458 0.5547 0.0
H2001 H 0.24742 0.41898 0.51535 0.0
H2002 H 0.24249 0.40781 0.57439 0.0
H2003 H 0.24753 0.44162 0.53568 0.0
H2004 H 0.2136 0.30716 0.50147 0.0
H2005 H 0.19621 0.36423 0.51091 0.0
H2006 H 0.23373 0.3297 0.49813 0.0
H2007 H 0.17666 0.34109 0.51387 0.0
H2008 H 0.18597 0.41498 0.52982 0.0
H2009 H 0.18272 0.41158 0.47714 0.0
H2010 H 0.26579 0.32966 0.56487 0.0
H2011 H 0.21424 0.34069 0.56527 0.0
H2012 H 0.2571 0.38261 0.45469 0.0
H2013 H 0.23795 0.41809 0.48862 0.0
H2014 H 0.25948 0.40455 0.43388 0.0
H2015 H 0.24081 0.43941 0.46732 0.0
H2016 H 0.29636 0.36795 0.50103 0.0
H2017 H 0.26027 0.33041 0.50923 0.0
H2018 H 0.31777 0.3465 0.50033 0.0
H2019 H 0.28227 0.30961 0.5083 0.0
H2020 H 0.3068 0.40736 0.53447 0.0
H2021 H 0.30681 0.4181 0.48274 0.0
H2022 H 0.22304 0.3366 0.4413 0.0
H2023 H 0.27533 0.33023 0.44621 0.0
Li2024 Li 0.38519 0.49658 0.26169 0.0
Li2025 Li 0.36325 0.48224 0.24698 0.0
Li2026 Li 0.38582 0.49698 0.23184 0.0
Li2027 Li 0.36375 0.51192 0.24577 0.0
C2028 C 0.39919 0.46671 0.2494 0.0
N2029 N 0.42366 0.44427 0.25514 0.0
C2030 C 0.39529 0.45104 0.25502 0.0
C2031 C 0.4155 0.47092 0.24654 0.0
C2032 C 0.40785 0.43988 0.25788 0.0
C2033 C 0.4277 0.45942 0.24958 0.0
C2034 C 0.34937 0.49557 0.27661 0.0
C2035 C 0.32093 0.49558 0.28428 0.0
N2036 N 0.32514 0.49086 0.29964 0.0
C2037 C 0.35344 0.49081 0.29249 0.0
C2038 C 0.333 0.49806 0.27247 0.0
C2039 C 0.34101 0.48845 0.30395 0.0
C2040 C 0.40182 0.51201 0.2867 0.0
N2041 N 0.39815 0.49694 0.28065 0.0
C2042 C 0.41287 0.48405 0.30222 0.0
C2043 C 0.4033 0.48305 0.28811 0.0
C2044 C 0.4169 0.49949 0.3087 0.0
C2045 C 0.41131 0.51358 0.30072 0.0
H2046 H 0.39729 0.52281 0.28064 0.0
H2047 H 0.39981 0.47122 0.2833 0.0
C2048 C 0.34411 0.45693 0.23351 0.0
N2049 N 0.34974 0.46369 0.24765 0.0
C2050 C 0.33518 0.44237 0.23391 0.0
C2051 C 0.33752 0.44247 0.26342 0.0
C2052 C 0.34665 0.45682 0.26242 0.0
C2053 C 0.33199 0.43494 0.24903 0.0
H2054 H 0.34702 0.46256 0.22193 0.0
H2055 H 0.35179 0.46212 0.27339 0.0
C2056 C 0.40002 0.52666 0.24551 0.0
N2057 N 0.42525 0.54899 0.24238 0.0
C2058 C 0.39673 0.5428 0.24103 0.0
C2059 C 0.41612 0.5219 0.24854 0.0
C2060 C 0.40966 0.5539 0.23946 0.0
C2061 C 0.42871 0.53337 0.24686 0.0
C2062 C 0.34986 0.49933 0.21635 0.0
C2063 C 0.35375 0.50436 0.2005 0.0
C2064 C 0.33351 0.49735 0.22084 0.0
C2065 C 0.34115 0.50751 0.18944 0.0
C2066 C 0.32126 0.50065 0.20944 0.0
N2067 N 0.3253 0.50562 0.1941 0.0
C2068 C 0.40465 0.48343 0.20638 0.0
C2069 C 0.4029 0.51242 0.20676 0.0
C2070 C 0.41379 0.48391 0.19199 0.0
N2071 N 0.39936 0.49758 0.21333 0.0
C2072 C 0.41224 0.51349 0.19259 0.0
C2073 C 0.41753 0.4991 0.18493 0.0
H2074 H 0.40141 0.4718 0.21177 0.0
H2075 H 0.39802 0.52342 0.21219 0.0
C2076 C 0.345 0.53728 0.25894 0.0
N2077 N 0.35106 0.53095 0.24483 0.0
C2078 C 0.33626 0.55188 0.25869 0.0
C2079 C 0.34009 0.55302 0.22937 0.0
C2080 C 0.34886 0.53847 0.23021 0.0
C2081 C 0.33387 0.55998 0.24377 0.0
H2082 H 0.34725 0.53119 0.27041 0.0
H2083 H 0.35432 0.53345 0.21929 0.0
O2084 O 0.38701 0.47769 0.24637 0.0
O2085 O 0.36144 0.4981 0.26534 0.0
O2086 O 0.38746 0.5157 0.24714 0.0
O2087 O 0.36207 0.4961 0.22727 0.0
H2088 H 0.3827 0.44756 0.25716 0.0
H2089 H 0.41869 0.48288 0.2419 0.0
H2090 H 0.40502 0.42772 0.26226 0.0
H2091 H 0.44039 0.46252 0.24745 0.0
H2092 H 0.3082 0.49746 0.28125 0.0
H2093 H 0.36607 0.48892 0.29591 0.0
H2094 H 0.32967 0.50199 0.26033 0.0
H2095 H 0.34397 0.48472 0.31627 0.0
H2096 H 0.41673 0.47291 0.30819 0.0
H2097 H 0.41424 0.52571 0.30528 0.0
H2098 H 0.33117 0.43674 0.22257 0.0
H2099 H 0.3356 0.43683 0.27523 0.0
H2100 H 0.38431 0.54669 0.23873 0.0
H2101 H 0.41884 0.50954 0.25229 0.0
H2102 H 0.4073 0.56642 0.23594 0.0
H2103 H 0.44123 0.52986 0.24917 0.0
H2104 H 0.36637 0.50584 0.19682 0.0
H2105 H 0.33032 0.49322 0.23297 0.0
H2106 H 0.34396 0.51145 0.17715 0.0
H2107 H 0.30854 0.4992 0.21275 0.0
H2108 H 0.41761 0.47257 0.18626 0.0
H2109 H 0.4146 0.52537 0.18723 0.0
H2110 H 0.33165 0.55692 0.27005 0.0
H2111 H 0.33878 0.55911 0.21771 0.0
O2112 O 0.96353 0.01916 0.97835 0.0
Mg2113 Mg 0.96154 0.01905 0.00456 0.0
O2114 O 0.98717 0.00583 0.97612 0.0
Mg2115 Mg -0.00125 0.00136 0.00105 0.0
O2116 O 0.98482 0.02203 0.01164 0.0
O2117 O 0.96652 0.03998 0.01927 0.0
O2118 O 0.01084 -0.00315 0.02578 0.0
O2119 O 0.01908 0.02037 0.99512 0.0
Mg2120 Mg 0.03608 0.98607 0.99462 0.0
O2121 O 0.01255 0.98082 0.99023 0.0
O2122 O 0.03628 0.98808 0.02095 0.0
O2123 O 0.03979 0.00847 0.98224 0.0
O2124 O 0.03144 0.96377 0.98198 0.0
C2125 C 0.9639 0.98283 0.01335 0.0
C2126 C 0.97473 0.01262 0.9697 0.0
C2127 C 0.98157 0.03546 0.01902 0.0
C2128 C 0.0249 0.99231 0.03076 0.0
C2129 C 0.03243 0.02125 0.98709 0.0
C2130 C 0.01618 0.96725 0.9833 0.0
O2131 O 0.95576 -0.004 0.01471 0.0
O2132 O 0.97841 0.98253 0.00758 0.0
O2133 O 0.26108 0.75279 0.29371 0.0
Mg2134 Mg 0.25205 0.72892 0.28883 0.0
O2135 O 0.25341 0.7641 0.27014 0.0
Mg2136 Mg 0.24853 0.74432 0.25052 0.0
O2137 O 0.25946 0.72506 0.26577 0.0
O2138 O 0.26786 0.70866 0.28505 0.0
O2139 O 0.2443 0.72328 0.23152 0.0
O2140 O 0.27334 0.74867 0.23973 0.0
Mg2141 Mg 0.24229 0.75367 0.21501 0.0
O2142 O 0.23778 0.76599 0.23595 0.0
O2143 O 0.2266 0.73328 0.21432 0.0
O2144 O 0.26847 0.75129 0.21312 0.0
O2145 O 0.23161 0.776 0.21146 0.0
C2146 C 0.21736 0.73275 0.27418 0.0
C2147 C 0.25885 0.76524 0.28471 0.0
C2148 C 0.26775 0.7125 0.26982 0.0
C2149 C 0.2338 0.72106 0.22024 0.0
C2150 C 0.27836 0.75009 0.2251 0.0
C2151 C 0.23186 0.77772 0.22715 0.0
O2152 O 0.22595 0.72777 0.28618 0.0
O2153 O 0.22366 0.73902 0.26139 0.0
O2154 O 0.53127 0.98261 0.47607 0.0
Mg2155 Mg 0.53363 0.98294 0.50208 0.0
O2156 O 0.50879 -0.00221 0.47377 0.0
Mg2157 Mg 0.49782 0.00304 0.49878 0.0
O2158 O 0.51033 0.98159 0.50942 0.0
O2159 O 0.5277 0.96271 0.51697 0.0
O2160 O 0.48689 0.00827 0.52361 0.0
O2161 O 0.47643 0.98547 0.49195 0.0
Mg2162 Mg 0.46146 0.02204 0.49525 0.0
O2163 O 0.48503 0.02452 0.48872 0.0
O2164 O 0.46266 0.02062 0.52155 0.0
O2165 O 0.455 -6e-05 0.48347 0.0
O2166 O 0.46746 0.04341 0.48182 0.0
C2167 C 0.5339 0.01925 0.5108 0.0
C2168 C 0.5206 0.98989 0.46741 0.0
C2169 C 0.51303 0.96831 0.51718 0.0
C2170 C 0.47425 0.01463 0.53003 0.0
C2171 C 0.46234 0.98639 0.48527 0.0
C2172 C 0.48229 0.03825 0.48183 0.0
O2173 O 0.54118 0.0056 0.51207 0.0
O2174 O 0.51937 0.02046 0.50523 0.0
O2175 O 0.29352 0.26929 0.75867 0.0
Mg2176 Mg 0.28981 0.25874 0.73521 0.0
O2177 O 0.27215 0.25656 0.76967 0.0
Mg2178 Mg 0.25233 0.25093 0.75038 0.0
O2179 O 0.26613 0.26324 0.73076 0.0
O2180 O 0.28463 0.27297 0.71409 0.0
O2181 O 0.23216 0.24467 0.73134 0.0
O2182 O 0.24034 0.27499 0.75664 0.0
Mg2183 Mg 0.21541 0.24563 0.76837 0.0
O2184 O 0.2388 0.23871 0.77032 0.0
O2185 O 0.20976 0.23665 0.74484 0.0
O2186 O 0.21707 0.27185 0.77042 0.0
O2187 O 0.22088 0.22971 0.78801 0.0
C2188 C 0.27854 0.2224 0.7386 0.0
C2189 C 0.28558 0.26441 0.77108 0.0
C2190 C 0.26944 0.27103 0.71765 0.0
C2191 C 0.21778 0.2385 0.73167 0.0
C2192 C 0.22811 0.28093 0.76417 0.0
C2193 C 0.23583 0.2304 0.78319 0.0
O2194 O 0.29008 0.23225 0.73483 0.0
O2195 O 0.26479 0.22722 0.74403 0.0
O2196 O -0.00397 0.95534 0.49487 0.0
Mg2197 Mg 0.00454 0.9617 0.51864 0.0
O2198 O 0.00027 0.97915 0.48211 0.0
Mg2199 Mg 0.0044 -0.00052 0.50115 0.0
O2200 O 0.99512 0.98408 0.52099 0.0
O2201 O 0.98861 0.96551 0.53896 0.0
O2202 O 0.00794 0.01871 0.52205 0.0
O2203 O 0.97878 0.00837 0.4969 0.0
Mg2204 Mg 0.00846 0.03477 0.49221 0.0
O2205 O 0.01368 0.01436 0.47916 0.0
O2206 O 0.02517 0.0362 0.51166 0.0
O2207 O 0.98239 0.03534 0.49627 0.0
O2208 O 0.01773 0.03944 0.46939 0.0
C2209 C 0.03771 0.97914 0.51312 0.0
C2210 C -0.00356 0.96401 0.48198 0.0
C2211 C 0.9874 0.98037 0.53399 0.0
C2212 C 0.01855 0.02995 0.52406 0.0
C2213 C 0.97308 0.02281 0.49653 0.0
C2214 C 0.01864 0.02378 0.46746 0.0
O2215 O 0.03018 0.96716 0.51969 0.0
O2216 O 0.03023 0.99063 0.5058 0.0
O2217 O 0.25649 0.7165 0.76911 0.0
Mg2218 Mg 0.25952 0.71951 0.74312 0.0
O2219 O 0.25705 0.74308 0.77489 0.0
Mg2220 Mg 0.25133 0.75369 0.75025 0.0
O2221 O 0.27313 0.73965 0.73855 0.0
O2222 O 0.28156 0.71431 0.73278 0.0
O2223 O 0.2454 0.764 0.72525 0.0
O2224 O 0.27215 0.77267 0.75408 0.0
Mg2225 Mg 0.23991 0.79014 0.75413 0.0
O2226 O 0.23074 0.7686 0.76258 0.0
O2227 O 0.23791 0.78993 0.72813 0.0
O2228 O 0.26254 0.79536 0.76507 0.0
O2229 O 0.21939 0.79274 0.76812 0.0
C2230 C 0.22767 0.72411 0.73502 0.0
C2231 C 0.25722 0.72822 0.7794 0.0
C2232 C 0.2841 0.72991 0.73252 0.0
C2233 C 0.24063 0.77747 0.71918 0.0
C2234 C 0.27446 0.78648 0.76095 0.0
C2235 C 0.21919 0.77701 0.76949 0.0
O2236 O 0.23974 0.71917 0.72689 0.0
O2237 O 0.2301 0.73445 0.74648 0.0
O2238 O 0.49731 0.98137 0.03394 0.0
Mg2239 Mg 0.49256 0.00706 0.03042 0.0
O2240 O 0.49606 0.97497 0.00761 0.0
Mg2241 Mg 0.50101 1e-05 -0.00233 0.0
O2242 O 0.47805 0.01039 0.01069 0.0
O2243 O 0.47006 0.01563 0.03636 0.0
O2244 O 0.50659 0.02519 0.98766 0.0
O2245 O 0.48303 0.99494 0.97658 0.0
Mg2246 Mg 0.5204 -0.0026 0.96076 0.0
O2247 O 0.52128 0.98975 0.9838 0.0
O2248 O 0.52121 0.02341 0.96466 0.0
O2249 O 0.49693 0.98844 0.95391 0.0
O2250 O 0.5402 0.98156 0.96694 0.0
C2251 C 0.52343 0.01612 0.02736 0.0
C2252 C 0.49679 0.97074 0.02251 0.0
C2253 C 0.46705 0.01557 0.02087 0.0
C2254 C 0.51442 0.03181 0.97595 0.0
C2255 C 0.4836 0.98983 0.96182 0.0
C2256 C 0.53428 0.98157 0.9815 0.0
O2257 O 0.51133 0.02475 0.0312 0.0
O2258 O 0.52113 0.00417 0.0176 0.0
O2259 O 0.25673 0.24636 0.20712 0.0
Mg2260 Mg 0.24606 0.26919 0.21328 0.0
O2261 O 0.25156 0.23298 0.23039 0.0
Mg2262 Mg 0.24625 0.25163 0.25118 0.0
O2263 O 0.25424 0.27201 0.23605 0.0
O2264 O 0.26056 0.29056 0.21805 0.0
O2265 O 0.24155 0.27213 0.27096 0.0
O2266 O 0.27243 0.2491 0.26018 0.0
Mg2267 Mg 0.24324 0.24206 0.28645 0.0
O2268 O 0.23851 0.22897 0.2659 0.0
O2269 O 0.22551 0.26038 0.28871 0.0
O2270 O 0.26895 0.248 0.28711 0.0
O2271 O 0.23542 0.21859 0.29083 0.0
C2272 C 0.21264 0.26075 0.22945 0.0
C2273 C 0.25622 0.23326 0.21548 0.0
C2274 C 0.26165 0.28532 0.23281 0.0
C2275 C 0.2314 0.27329 0.2827 0.0
C2276 C 0.2782 0.2491 0.27463 0.0
C2277 C 0.23438 0.21684 0.27517 0.0
O2278 O 0.2203 0.26716 0.2175 0.0
O2279 O 0.21985 0.25462 0.24184 0.0
O2280 O 0.47622 0.53019 0.98206 0.0
Mg2281 Mg 0.50184 0.5351 0.9831 0.0
O2282 O 0.47719 0.50734 -0.00321 0.0
Mg2283 Mg 0.50341 0.49859 0.0003 0.0
O2284 O 0.51267 0.51331 0.97889 0.0
O2285 O 0.51665 0.53421 0.96235 0.0
O2286 O 0.52907 0.48905 0.00447 0.0
O2287 O 0.49843 0.47793 0.98184 0.0
Mg2288 Mg 0.50202 0.46087 0.01763 0.0
O2289 O 0.49444 0.48391 0.02076 0.0
O2290 O 0.528 0.46445 0.01645 0.0
O2291 O 0.49152 0.45483 0.99464 0.0
O2292 O 0.48774 0.46565 0.03897 0.0
C2293 C 0.5129 0.53402 0.01867 0.0
C2294 C 0.46923 0.51842 0.98941 0.0
C2295 C 0.51931 0.5191 0.96585 0.0
C2296 C 0.53598 0.47654 0.01063 0.0
C2297 C 0.49319 0.46322 0.98167 0.0
C2298 C 0.4872 0.48059 0.03414 0.0
O2299 O 0.51176 0.54249 0.00574 0.0
O2300 O 0.50912 0.5189 0.01911 0.0
O2301 O 0.75345 0.21786 0.26805 0.0
Mg2302 Mg 0.75831 0.22211 0.24255 0.0
O2303 O 0.75438 0.24415 0.2745 0.0
Mg2304 Mg 0.74906 0.25341 0.24925 0.0
O2305 O 0.77301 0.2417 0.23882 0.0
O2306 O 0.78078 0.21573 0.23451 0.0
O2307 O 0.74317 0.26262 0.22392 0.0
O2308 O 0.76616 0.27521 0.25408 0.0
Mg2309 Mg 0.72846 0.28945 0.25074 0.0
O2310 O 0.72803 0.26658 0.25931 0.0
O2311 O 0.72756 0.28494 0.2249 0.0
O2312 O 0.75155 0.29766 0.25956 0.0
O2313 O 0.70871 0.28348 0.2666 0.0
C2314 C 0.7277 0.22312 0.23312 0.0
C2315 C 0.75387 0.22923 0.27872 0.0
C2316 C 0.78394 0.23121 0.23406 0.0
C2317 C 0.73484 0.27368 0.21689 0.0
C2318 C 0.7651 0.2901 0.25868 0.0
C2319 C 0.71487 0.26904 0.26727 0.0
O2320 O 0.74004 0.22 0.22454 0.0
O2321 O 0.72951 0.23269 0.24529 0.0
O2322 O -0.0027 0.47992 0.53401 0.0
Mg2323 Mg 0.99358 0.50597 0.53164 0.0
O2324 O -0.00388 0.4741 0.5075 0.0
Mg2325 Mg 0.00182 0.49927 0.49825 0.0
O2326 O 0.97941 0.50987 0.51178 0.0
O2327 O 0.9712 0.51545 0.53724 0.0
O2328 O 0.00812 0.52463 0.48912 0.0
O2329 O 0.9838 0.49541 0.47702 0.0
Mg2330 Mg 0.02153 0.49745 0.46126 0.0
O2331 O 0.02167 0.48917 0.48402 0.0
O2332 O 0.02278 0.52331 0.46611 0.0
O2333 O -0.00223 0.48929 0.45425 0.0
O2334 O 0.04107 0.4812 0.46772 0.0
C2335 C 0.02498 0.51346 0.52807 0.0
C2336 C -0.00343 0.46955 0.52232 0.0
C2337 C 0.96836 0.51534 0.52172 0.0
C2338 C 0.01615 0.53147 0.47767 0.0
C2339 C 0.98442 0.49071 0.46213 0.0
C2340 C 0.03469 0.48101 0.48208 0.0
O2341 O 0.01336 0.52269 0.53208 0.0
O2342 O 0.02198 0.50178 0.51824 0.0
O2343 O 0.71832 0.77546 0.27071 0.0
Mg2344 Mg 0.7148 0.74957 0.27309 0.0
O2345 O 0.74039 0.77547 0.25466 0.0
Mg2346 Mg 0.75035 0.74971 0.25132 0.0
O2347 O 0.7378 0.74174 0.2734 0.0
O2348 O 0.72215 0.73622 0.29423 0.0
O2349 O 0.76024 0.72398 0.24803 0.0
O2350 O 0.77206 0.75647 0.26783 0.0
Mg2351 Mg 0.78637 0.74985 0.23088 0.0
O2352 O 0.76332 0.75801 0.22934 0.0
O2353 O 0.78282 0.72389 0.23258 0.0
O2354 O 0.79452 0.76098 0.253 0.0
O2355 O 0.78062 0.7639 0.20986 0.0
C2356 C 0.71387 0.7371 0.23746 0.0
C2357 C 0.72906 0.78299 0.26228 0.0
C2358 C 0.73623 0.7351 0.28736 0.0
C2359 C 0.7717 0.71652 0.24062 0.0
C2360 C 0.78689 0.7611 0.26655 0.0
C2361 C 0.7661 0.76509 0.21574 0.0
O2362 O 0.70691 0.73766 0.25138 0.0
O2363 O 0.7284 0.74232 0.23508 0.0
O2364 O 0.76196 0.24998 0.79405 0.0
Mg2365 Mg 0.75314 0.22615 0.78831 0.0
O2366 O 0.75312 0.26232 0.77144 0.0
Mg2367 Mg 0.74814 0.24369 0.751 0.0
O2368 O 0.75954 0.22387 0.76485 0.0
O2369 O 0.76884 0.20621 0.78249 0.0
O2370 O 0.74382 0.22331 0.73119 0.0
O2371 O 0.77273 0.24907 0.74027 0.0
Mg2372 Mg 0.74075 0.25292 0.71768 0.0
O2373 O 0.73715 0.2665 0.73809 0.0
O2374 O 0.72386 0.23348 0.71706 0.0
O2375 O 0.76666 0.24959 0.71389 0.0
O2376 O 0.73105 0.27533 0.713 0.0
C2377 C 0.71787 0.23015 0.77481 0.0
C2378 C 0.75908 0.26283 0.78583 0.0
C2379 C 0.76797 0.21108 0.76759 0.0
C2380 C 0.73215 0.22121 0.7211 0.0
C2381 C 0.77716 0.24957 0.72541 0.0
C2382 C 0.73145 0.27783 0.72858 0.0
O2383 O 0.72707 0.22465 0.7861 0.0
O2384 O 0.72351 0.23741 0.7622 0.0
O2385 O 0.7589 0.74657 0.70867 0.0
Mg2386 Mg 0.74647 0.76852 0.71473 0.0
O2387 O 0.75351 0.73282 0.73164 0.0
Mg2388 Mg 0.74739 0.7509 0.75256 0.0
O2389 O 0.754 0.77185 0.73758 0.0
O2390 O 0.75883 0.79113 0.71991 0.0
O2391 O 0.74064 0.77005 0.77274 0.0
O2392 O 0.77433 0.75003 0.76085 0.0
Mg2393 Mg 0.75005 0.73666 0.78946 0.0
O2394 O 0.74083 0.72868 0.76779 0.0
O2395 O 0.7361 0.75702 0.79609 0.0
O2396 O 0.77567 0.7407 0.78635 0.0
O2397 O 0.73942 0.71357 0.79014 0.0
C2398 C 0.71343 0.75767 0.73057 0.0
C2399 C 0.75845 0.73335 0.71684 0.0
C2400 C 0.76017 0.78584 0.73462 0.0
C2401 C 0.73544 0.76982 0.78744 0.0
C2402 C 0.78249 0.74617 0.77351 0.0
C2403 C 0.73635 0.71526 0.77477 0.0
O2404 O 0.72097 0.76438 0.7187 0.0
O2405 O 0.72074 0.75226 0.74327 0.0
O2406 O 0.53845 0.50633 0.48069 0.0
Mg2407 Mg 0.53478 0.48382 0.49295 0.0
O2408 O 0.52013 0.5177 0.49684 0.0
Mg2409 Mg 0.4985 0.49983 0.50083 0.0
O2410 O 0.51106 0.47891 0.48906 0.0
O2411 O 0.52968 0.46195 0.47992 0.0
O2412 O 0.47693 0.4821 0.50607 0.0
O2413 O 0.48768 0.5065 0.47603 0.0
Mg2414 Mg 0.4625 0.5197 0.5048 0.0
O2415 O 0.48581 0.52066 0.51242 0.0
O2416 O 0.45502 0.49657 0.51356 0.0
O2417 O 0.4649 0.52116 0.47865 0.0
O2418 O 0.46861 0.53932 0.52081 0.0
C2419 C 0.52433 0.48887 0.52965 0.0
C2420 C 0.53299 0.51878 0.48814 0.0
C2421 C 0.51448 0.4655 0.48169 0.0
C2422 C 0.46239 0.48302 0.51165 0.0
C2423 C 0.47582 0.51441 0.4698 0.0
C2424 C 0.48332 0.5338 0.52057 0.0
O2425 O 0.53551 0.48532 0.51934 0.0
O2426 O 0.51005 0.49335 0.52528 0.0
O2427 O 0.03479 0.4842 0.97914 0.0
Mg2428 Mg 0.03563 0.48555 0.00544 0.0
O2429 O 0.0114 0.4976 0.97544 0.0
Mg2430 Mg -0.00101 0.5038 -0.00073 0.0
O2431 O 0.012 0.48368 0.01142 0.0
O2432 O 0.02914 0.46538 0.02045 0.0
O2433 O 0.98638 0.51024 0.02292 0.0
O2434 O 0.97915 0.48449 0.99341 0.0
Mg2435 Mg 0.96179 0.51903 0.99166 0.0
O2436 O 0.9855 0.52365 0.98673 0.0
O2437 O 0.96126 0.51983 0.01803 0.0
O2438 O 0.95756 0.49558 0.98132 0.0
O2439 O 0.96652 0.53978 0.97696 0.0
C2440 C 0.03358 0.52225 0.01245 0.0
C2441 C 0.02395 0.49035 0.96981 0.0
C2442 C 0.01432 0.47043 0.01932 0.0
C2443 C 0.97274 0.51591 0.0278 0.0
C2444 C 0.96563 0.48313 0.98579 0.0
C2445 C 0.9818 0.53646 0.97859 0.0
O2446 O 0.04121 0.50897 0.01506 0.0
O2447 O 0.0195 0.52258 0.00566 0.0
C2448 C -0.00127 0.15798 0.07525 0.0
C2449 C 0.00433 0.17209 0.06729 0.0
C2450 C 0.00268 0.14254 0.06919 0.0
C2451 C 0.01254 0.12027 0.03238 0.0
H2452 H 0.02502 0.08658 0.06323 0.0
C2453 C 0.0053 0.05371 0.0145 0.0
C2454 C 0.99426 0.04637 0.02536 0.0
C2455 C 0.01401 0.06769 0.01927 0.0
C2456 C 0.0218 0.09589 0.05441 0.0
H2457 H 0.01795 0.18127 0.04652 0.0
H2458 H 0.02454 0.15405 0.03561 0.0
H2459 H 0.02455 0.11521 0.07197 0.0
H2460 H 0.98443 0.04674 0.04986 0.0
H2461 H -0.0003 0.07093 0.05837 0.0
H2462 H 0.0086 0.10092 0.01517 0.0
C2463 C 0.01733 0.15502 0.04668 0.0
C2464 C 0.02145 0.11222 0.05942 0.0
C2465 C 0.01356 0.17051 0.05288 0.0
C2466 C 0.99306 0.05218 0.04142 0.0
C2467 C 0.00188 0.06598 0.04626 0.0
C2468 C 0.0128 0.10391 0.02739 0.0
C2469 C 0.01218 0.14091 0.05497 0.0
C2470 C 0.01604 0.12441 0.04868 0.0
C2471 C 0.01175 0.0744 0.03496 0.0
C2472 C 0.01661 0.09149 0.03862 0.0
H2473 H 0.99173 0.15888 0.08646 0.0
H2474 H -0.00174 0.13183 0.07561 0.0
H2475 H 0.00835 0.12947 0.02387 0.0
H2476 H 0.00606 0.04959 0.00192 0.0
H2477 H 0.02158 0.07389 0.01035 0.0
C2478 C 0.08758 0.76513 0.31829 0.0
C2479 C 0.07365 0.7557 0.31482 0.0
C2480 C 0.10119 0.7642 0.30814 0.0
C2481 C 0.12068 0.73371 0.28271 0.0
H2482 H 0.15355 0.76781 0.27894 0.0
C2483 C 0.18998 0.73132 0.26114 0.0
C2484 C 0.19954 0.73253 0.27539 0.0
C2485 C 0.17314 0.73362 0.26192 0.0
C2486 C 0.14434 0.75827 0.27966 0.0
H2487 H 0.06227 0.7392 0.29733 0.0
H2488 H 0.08614 0.73762 0.27948 0.0
H2489 H 0.12544 0.77518 0.28584 0.0
H2490 H 0.19916 0.73648 0.30162 0.0
H2491 H 0.1696 0.74082 0.3029 0.0
H2492 H 0.1399 0.71681 0.27715 0.0
C2493 C 0.08664 0.74546 0.29019 0.0
C2494 C 0.12835 0.76243 0.28364 0.0
C2495 C 0.07305 0.74632 0.30039 0.0
C2496 C 0.192 0.73536 0.29052 0.0
C2497 C 0.17521 0.73792 0.29124 0.0
C2498 C 0.13666 0.72958 0.27858 0.0
C2499 C 0.10105 0.75389 0.29432 0.0
C2500 C 0.11656 0.75012 0.28596 0.0
C2501 C 0.16583 0.73738 0.27691 0.0
C2502 C 0.14861 0.7418 0.2777 0.0
H2503 H 0.08835 0.77238 0.32939 0.0
H2504 H 0.11218 0.77068 0.31181 0.0
H2505 H 0.11192 0.72392 0.28458 0.0
H2506 H 0.1956 0.72905 0.24936 0.0
H2507 H 0.16594 0.73312 0.25081 0.0
C2508 C 0.50534 0.84356 0.57776 0.0
C2509 C 0.49841 0.83095 0.56833 0.0
C2510 C 0.50291 0.85984 0.57356 0.0
C2511 C 0.47648 0.88699 0.54876 0.0
H2512 H 0.51271 0.91705 0.55512 0.0
C2513 C 0.49162 0.94725 0.51592 0.0
C2514 C 0.50016 0.95895 0.52517 0.0
C2515 C 0.48499 0.9335 0.52355 0.0
C2516 C 0.50232 0.9089 0.55365 0.0
H2517 H 0.48381 0.82535 0.5469 0.0
H2518 H 0.48005 0.85398 0.53908 0.0
H2519 H 0.516 0.88857 0.56218 0.0
H2520 H 0.50692 0.96683 0.54951 0.0
H2521 H 0.49531 0.94279 0.56293 0.0
H2522 H 0.46332 0.90751 0.53903 0.0
C2523 C 0.48698 0.85126 0.55002 0.0
C2524 C 0.50423 0.89252 0.55764 0.0
C2525 C 0.48925 0.8349 0.55437 0.0
C2526 C 0.50021 0.95795 0.54224 0.0
C2527 C 0.4936 0.94422 0.54988 0.0
C2528 C 0.47468 0.90345 0.54445 0.0
C2529 C 0.49368 0.86392 0.55966 0.0
C2530 C 0.49136 0.88134 0.55528 0.0
C2531 C 0.48719 0.9313 0.54041 0.0
C2532 C 0.48761 0.91452 0.54692 0.0
H2533 H 0.51213 0.84088 0.5888 0.0
H2534 H 0.50798 0.86924 0.58146 0.0
H2535 H 0.46627 0.87871 0.54695 0.0
H2536 H 0.49173 0.94777 0.50268 0.0
H2537 H 0.48012 0.92369 0.51599 0.0
C2538 C 0.41698 0.2392 0.81086 0.0
C2539 C 0.42173 0.23468 0.82668 0.0
C2540 C 0.40047 0.24127 0.80718 0.0
C2541 C 0.35829 0.23561 0.82374 0.0
H2542 H 0.34994 0.27309 0.7962 0.0
C2543 C 0.29711 0.24808 0.79334 0.0
C2544 C 0.29457 0.26356 0.78648 0.0
C2545 C 0.31074 0.24534 0.80312 0.0
C2546 C 0.35196 0.26287 0.80432 0.0
H2547 H 0.41309 0.22806 0.85082 0.0
H2548 H 0.38448 0.23206 0.84461 0.0
H2549 H 0.37773 0.26507 0.80149 0.0
H2550 H 0.3024 0.28886 0.78639 0.0
H2551 H 0.32556 0.28444 0.80462 0.0
H2552 H 0.33246 0.23389 0.82714 0.0
C2553 C 0.39329 0.23364 0.83487 0.0
C2554 C 0.36798 0.25795 0.80695 0.0
C2555 C 0.40973 0.23133 0.83845 0.0
C2556 C 0.30427 0.2768 0.79151 0.0
C2557 C 0.31765 0.27417 0.80172 0.0
C2558 C 0.34222 0.24075 0.82139 0.0
C2559 C 0.3885 0.23918 0.81937 0.0
C2560 C 0.37135 0.2441 0.81645 0.0
C2561 C 0.32184 0.25814 0.80638 0.0
C2562 C 0.33882 0.25428 0.81139 0.0
H2563 H 0.42605 0.2417 0.80154 0.0
H2564 H 0.39716 0.24507 0.79496 0.0
H2565 H 0.36043 0.22483 0.83108 0.0
H2566 H 0.2899 0.23763 0.78939 0.0
H2567 H 0.31342 0.23283 0.80647 0.0
C2568 C 0.01451 0.8342 0.43009 0.0
C2569 C 0.00014 0.82686 0.42408 0.0
C2570 C 0.01485 0.85086 0.43383 0.0
C2571 C 0.99198 0.88856 0.42383 0.0
H2572 H 0.01767 0.90747 0.45901 0.0
C2573 C 0.98154 0.94539 0.46349 0.0
C2574 C 0.99519 0.95535 0.46646 0.0
C2575 C 0.98268 0.93239 0.4525 0.0
C2576 C 0.01077 0.90233 0.44888 0.0
H2577 H 0.97445 0.83093 0.41878 0.0
H2578 H 0.97477 0.85956 0.42641 0.0
H2579 H 0.01824 0.878 0.45451 0.0
H2580 H 0.02013 0.96083 0.45947 0.0
H2581 H 0.02235 0.93756 0.44067 0.0
H2582 H 0.98349 0.91293 0.41926 0.0
C2583 C 0.98601 0.85269 0.4274 0.0
C2584 C 0.01103 0.88548 0.44634 0.0
C2585 C 0.98575 0.83614 0.42337 0.0
C2586 C 0.00939 0.95338 0.45708 0.0
C2587 C 0.01069 0.9401 0.44641 0.0
C2588 C 0.99146 0.90539 0.42663 0.0
C2589 C 0.00072 0.86039 0.43192 0.0
C2590 C 0.00135 0.87837 0.43402 0.0
C2591 C -0.00237 0.92906 0.44483 0.0
C2592 C 0.00067 0.91229 0.43931 0.0
H2593 H 0.0257 0.82725 0.43118 0.0
H2594 H 0.02636 0.85636 0.43744 0.0
H2595 H 0.98476 0.88351 0.41391 0.0
H2596 H 0.97057 0.94669 0.4708 0.0
H2597 H 0.97255 0.92385 0.45152 0.0
C2598 C 0.42324 0.75825 0.68653 0.0
C2599 C 0.42285 0.76238 0.6699 0.0
C2600 C 0.40895 0.75855 0.69584 0.0
C2601 C 0.36494 0.77078 0.69525 0.0
H2602 H 0.3599 0.7318 0.72165 0.0
C2603 C 0.30414 0.75284 0.72785 0.0
C2604 C 0.29989 0.73621 0.72641 0.0
C2605 C 0.31957 0.75834 0.72283 0.0
C2606 C 0.36111 0.74276 0.71433 0.0
H2607 H 0.40748 0.77075 0.65009 0.0
H2608 H 0.38241 0.7708 0.66614 0.0
H2609 H 0.38625 0.73801 0.70962 0.0
H2610 H 0.3083 0.7124 0.71811 0.0
H2611 H 0.33487 0.72196 0.70919 0.0
H2612 H 0.33939 0.77488 0.69926 0.0
C2613 C 0.39376 0.7677 0.67217 0.0
C2614 C 0.37631 0.74648 0.70761 0.0
C2615 C 0.4081 0.76759 0.66292 0.0
C2616 C 0.3112 0.72528 0.71955 0.0
C2617 C 0.32652 0.73073 0.71455 0.0
C2618 C 0.34966 0.767 0.70193 0.0
C2619 C 0.39393 0.76275 0.68863 0.0
C2620 C 0.37834 0.7603 0.69764 0.0
C2621 C 0.33099 0.74727 0.71632 0.0
C2622 C 0.3475 0.75267 0.71112 0.0
H2623 H 0.43454 0.75445 0.69225 0.0
H2624 H 0.4096 0.75503 0.70857 0.0
H2625 H 0.36615 0.78167 0.68784 0.0
H2626 H 0.29567 0.76153 0.73309 0.0
H2627 H 0.32267 0.77117 0.72434 0.0
C2628 C 0.49277 0.17497 0.94079 0.0
C2629 C 0.50478 0.17669 0.92859 0.0
C2630 C 0.49186 0.16061 0.94994 0.0
C2631 C 0.49617 0.11873 0.94463 0.0
H2632 H 0.51399 0.1112 0.98794 0.0
C2633 C 0.52159 0.0575 0.96133 0.0
C2634 C 0.51442 0.04977 0.97483 0.0
C2635 C 0.51924 0.07413 0.95884 0.0
C2636 C 0.50872 0.11324 0.97597 0.0
H2637 H 0.52531 0.16507 0.91653 0.0
H2638 H 0.52365 0.14001 0.93249 0.0
H2639 H 0.51056 0.13942 0.97803 0.0
H2640 H 0.50049 0.05365 -0.00284 0.0
H2641 H 0.49644 0.0829 0.99266 0.0
H2642 H 0.49514 0.09275 0.94206 0.0
C2643 C 0.51514 0.14984 0.93505 0.0
C2644 C 0.5067 0.12925 0.9704 0.0
C2645 C 0.51612 0.16414 0.92602 0.0
C2646 C 0.50598 0.05924 0.9865 0.0
C2647 C 0.50369 0.07594 0.98401 0.0
C2648 C 0.49823 0.10285 0.95013 0.0
C2649 C 0.50288 0.14792 0.94682 0.0
C2650 C 0.50099 0.13194 0.95448 0.0
C2651 C 0.50977 0.08328 0.96984 0.0
C2652 C 0.50517 0.10002 0.96553 0.0
H2653 H 0.48395 0.18458 0.943 0.0
H2654 H 0.48228 0.15916 0.95896 0.0
H2655 H 0.49177 0.1207 0.93229 0.0
H2656 H 0.52838 0.0506 0.95227 0.0
H2657 H 0.5243 0.07975 0.94798 0.0
C2658 C 0.07059 0.2614 0.18779 0.0
C2659 C 0.06993 0.25045 0.17449 0.0
C2660 C 0.08402 0.26147 0.19835 0.0
C2661 C 0.12062 0.23744 0.21013 0.0
H2662 H 0.14014 0.28007 0.21822 0.0
C2663 C 0.18904 0.24824 0.2155 0.0
C2664 C 0.195 0.25857 0.22784 0.0
C2665 C 0.17229 0.2463 0.21327 0.0
C2666 C 0.13465 0.26811 0.2164 0.0
H2667 H 0.08267 0.23083 0.16198 0.0
H2668 H 0.10609 0.23102 0.18025 0.0
H2669 H 0.11287 0.27826 0.20627 0.0
H2670 H 0.18858 0.27498 0.24763 0.0
H2671 H 0.15888 0.27208 0.24332 0.0
H2672 H 0.14289 0.22734 0.21931 0.0
C2673 C 0.09613 0.23935 0.18276 0.0
C2674 C 0.11904 0.26705 0.20956 0.0
C2675 C 0.08272 0.23927 0.17223 0.0
C2676 C 0.18408 0.26691 0.23808 0.0
C2677 C 0.16721 0.26526 0.23562 0.0
C2678 C 0.13625 0.23851 0.21684 0.0
C2679 C 0.09703 0.25058 0.19581 0.0
C2680 C 0.11212 0.25169 0.2058 0.0
C2681 C 0.16123 0.25492 0.22318 0.0
C2682 C 0.14361 0.25384 0.21948 0.0
H2683 H 0.06077 0.26998 0.18998 0.0
H2684 H 0.08428 0.27014 0.20841 0.0
H2685 H 0.11545 0.22544 0.20771 0.0
H2686 H 0.19737 0.24172 0.20751 0.0
H2687 H 0.16798 0.23846 0.20344 0.0
C2688 C 0.08152 0.00824 0.16414 0.0
C2689 C 0.07625 -0.00146 0.17725 0.0
C2690 C 0.07259 0.0087 0.14966 0.0
C2691 C 0.04329 0.98425 0.12572 0.0
H2692 H 0.04377 0.02297 0.09842 0.0
C2693 C 0.01594 0.98937 0.05977 0.0
C2694 C 0.02831 0.99286 0.04838 0.0
C2695 C 0.01912 0.9905 0.07652 0.0
C2696 C 0.04343 0.01214 0.10602 0.0
H2697 H 0.05717 0.98219 0.18575 0.0
H2698 H 0.04135 0.98313 0.16039 0.0
H2699 H 0.05325 0.02488 0.12668 0.0
H2700 H 0.05352 0.00051 0.04539 0.0
H2701 H 0.05891 0.003 0.07472 0.0
H2702 H 0.03347 0.97159 0.10484 0.0
C2703 C 0.05258 0.99016 0.16124 0.0
C2704 C 0.04894 0.01317 0.12212 0.0
C2705 C 0.06161 0.98961 0.17574 0.0
C2706 C 0.04385 -0.0024 0.05395 0.0
C2707 C 0.04689 -0.00086 0.07065 0.0
C2708 C 0.03751 0.9833 0.10966 0.0
C2709 C 0.05808 -0.00043 0.14796 0.0
C2710 C 0.04952 -0.0009 0.13196 0.0
C2711 C 0.03456 -0.0044 0.08202 0.0
C2712 C 0.03808 -0.00288 0.09959 0.0
H2713 H 0.09289 0.01505 0.16485 0.0
H2714 H 0.07742 0.01578 0.13959 0.0
H2715 H 0.04368 0.97315 0.13289 0.0
H2716 H 0.00386 0.98567 0.0557 0.0
H2717 H 0.0095 0.98768 0.08517 0.0
C2718 C 0.26891 0.82611 0.41091 0.0
C2719 C 0.25498 0.82454 0.42081 0.0
C2720 C 0.26814 0.82233 0.39433 0.0
C2721 C 0.24285 0.8021 0.36258 0.0
H2722 H 0.26894 0.82969 0.33406 0.0
C2723 C 0.24425 0.78929 0.29512 0.0
C2724 C 0.25914 0.78114 0.29285 0.0
C2725 C 0.24242 0.80016 0.30817 0.0
C2726 C 0.26136 0.82216 0.3419 0.0
H2727 H 0.22972 0.8163 0.42133 0.0
H2728 H 0.22814 0.81053 0.39221 0.0
H2729 H 0.26797 0.83559 0.36336 0.0
H2730 H 0.28426 0.7792 0.30078 0.0
H2731 H 0.28129 0.7988 0.32323 0.0
H2732 H 0.23631 0.78871 0.34102 0.0
C2733 C 0.2397 0.8146 0.39726 0.0
C2734 C 0.26101 0.82529 0.35867 0.0
C2735 C 0.24056 0.81807 0.41395 0.0
C2736 C 0.27276 0.78556 0.30228 0.0
C2737 C 0.27104 0.79674 0.31507 0.0
C2738 C 0.24292 0.79922 0.34579 0.0
C2739 C 0.25336 0.8172 0.38719 0.0
C2740 C 0.25223 0.81492 0.36925 0.0
C2741 C 0.25559 0.80316 0.31874 0.0
C2742 C 0.25255 0.80894 0.33544 0.0
H2743 H 0.28022 0.8311 0.4157 0.0
H2744 H 0.27907 0.82387 0.38703 0.0
H2745 H 0.23608 0.79379 0.37035 0.0
H2746 H 0.2335 0.78572 0.2882 0.0
H2747 H 0.2304 0.80493 0.31095 0.0
C2748 C 0.45014 0.00711 0.67524 0.0
C2749 C 0.43575 -0.00233 0.67551 0.0
C2750 C 0.46024 0.00689 0.66151 0.0
C2751 C 0.46609 0.98648 0.62102 0.0
H2752 H 0.47345 0.03091 0.60605 0.0
C2753 C 0.45882 0.00771 0.5551 0.0
C2754 C 0.47293 0.01408 0.54781 0.0
C2755 C 0.45855 0.00483 0.57188 0.0
C2756 C 0.47176 0.01845 0.61022 0.0
H2757 H 0.42111 0.97993 0.66215 0.0
H2758 H 0.43844 0.97974 0.63819 0.0
H2759 H 0.46658 0.02609 0.63463 0.0
H2760 H 0.49757 0.023 0.55197 0.0
H2761 H 0.49672 0.01879 0.58168 0.0
H2762 H 0.46985 0.97913 0.59613 0.0
C2763 C 0.44221 0.98707 0.6486 0.0
C2764 C 0.46796 0.01562 0.62658 0.0
C2765 C 0.43219 0.98724 0.66232 0.0
C2766 C 0.48655 0.01814 0.55749 0.0
C2767 C 0.48612 0.01568 0.57434 0.0
C2768 C 0.46961 0.98935 0.60463 0.0
C2769 C 0.45605 -0.0027 0.64783 0.0
C2770 C 0.46435 -0.00032 0.63196 0.0
C2771 C 0.47226 0.00866 0.58151 0.0
C2772 C 0.47182 0.0054 0.59908 0.0
H2773 H 0.45331 0.01501 0.68544 0.0
H2774 H 0.47096 0.01471 0.66135 0.0
H2775 H 0.46374 0.97403 0.62492 0.0
H2776 H 0.44831 0.00428 0.54775 0.0
H2777 H 0.44771 -0.00047 0.57734 0.0
C2778 C 0.26396 0.18869 0.91769 0.0
C2779 C 0.25099 0.17764 0.9202 0.0
C2780 C 0.26599 0.19628 0.90257 0.0
C2781 C 0.24411 0.20596 0.86457 0.0
H2782 H 0.28681 0.20429 0.84385 0.0
C2783 C 0.24842 0.20737 0.79769 0.0
C2784 C 0.2487 0.224 0.79368 0.0
C2785 C 0.25519 0.20216 0.8124 0.0
C2786 C 0.27493 0.20494 0.84964 0.0
H2787 H 0.22983 0.16609 0.90905 0.0
H2788 H 0.23331 0.17935 0.8827 0.0
H2789 H 0.28368 0.19549 0.87245 0.0
H2790 H 0.25761 0.24801 0.80064 0.0
H2791 H 0.26918 0.23893 0.82665 0.0
H2792 H 0.23527 0.21486 0.8417 0.0
C2793 C 0.24181 0.18231 0.89244 0.0
C2794 C 0.27311 0.20002 0.86593 0.0
C2795 C 0.23978 0.17474 0.90753 0.0
C2796 C 0.25756 0.23506 0.80344 0.0
C2797 C 0.26417 0.22989 0.81829 0.0
C2798 C 0.24594 0.21084 0.84843 0.0
C2799 C 0.25505 0.19298 0.88974 0.0
C2800 C 0.25758 0.20011 0.87336 0.0
C2801 C 0.262 0.21364 0.82328 0.0
C2802 C 0.26124 0.21002 0.84079 0.0
H2803 H 0.27265 0.19129 0.92736 0.0
H2804 H 0.27615 0.20464 0.90086 0.0
H2805 H 0.23208 0.20642 0.87006 0.0
H2806 H 0.24143 0.19874 0.79037 0.0
H2807 H 0.25325 0.18961 0.81619 0.0
C2808 C 0.06132 0.99373 0.328 0.0
C2809 C 0.078 0.98982 0.32841 0.0
C2810 C 0.05198 0.99318 0.34226 0.0
C2811 C 0.05292 0.98099 0.38635 0.0
H2812 H 0.02622 0.01976 0.39143 0.0
C2813 C 0.02255 0.00026 0.44795 0.0
C2814 C 0.02416 0.01702 0.45166 0.0
C2815 C 0.02688 0.99433 0.43246 0.0
C2816 C 0.03361 0.00885 0.39021 0.0
H2817 H 0.09788 0.98164 0.34378 0.0
H2818 H 0.0818 0.98124 0.36881 0.0
H2819 H 0.03772 0.01331 0.36492 0.0
H2820 H 0.03206 0.04057 0.44228 0.0
H2821 H 0.03983 0.03026 0.41561 0.0
H2822 H 0.0496 0.97727 0.41206 0.0
C2823 C 0.07574 0.98431 0.35747 0.0
C2824 C 0.04002 0.00499 0.37491 0.0
C2825 C 0.08501 0.98464 0.34315 0.0
C2826 C 0.03051 0.02762 0.43978 0.0
C2827 C 0.03483 0.02173 0.42441 0.0
C2828 C 0.04657 0.98494 0.40174 0.0
C2829 C 0.0592 0.98898 0.35727 0.0
C2830 C 0.05019 0.9913 0.37288 0.0
C2831 C 0.03285 0.00509 0.42047 0.0
C2832 C 0.03734 -0.00075 0.4039 0.0
H2833 H 0.05559 -0.00251 0.31668 0.0
H2834 H 0.0392 -0.0035 0.34159 0.0
H2835 H 0.06044 0.97018 0.38513 0.0
H2836 H 0.01769 0.99182 0.45687 0.0
H2837 H 0.02524 0.98143 0.42977 0.0
C2838 C 0.26224 0.82204 0.58721 0.0
C2839 C 0.25605 0.81571 0.57246 0.0
C2840 C 0.26014 0.81339 0.60167 0.0
C2841 C 0.25676 0.78018 0.62522 0.0
H2842 H 0.21866 0.79875 0.64659 0.0
C2843 C 0.24053 0.76459 0.69149 0.0
C2844 C 0.23872 0.77862 0.70134 0.0
C2845 C 0.24013 0.76584 0.67452 0.0
C2846 C 0.22921 0.79333 0.6407 0.0
H2847 H 0.24414 0.79487 0.56092 0.0
H2848 H 0.24027 0.7798 0.58653 0.0
H2849 H 0.22498 0.80617 0.61835 0.0
H2850 H 0.23425 0.80479 0.70123 0.0
H2851 H 0.23378 0.807 0.6716 0.0
H2852 H 0.2616 0.76809 0.64782 0.0
C2853 C 0.24669 0.79142 0.58673 0.0
C2854 C 0.23274 0.79749 0.62461 0.0
C2855 C 0.24881 0.80006 0.57221 0.0
C2856 C 0.23573 0.79378 0.69395 0.0
C2857 C 0.23533 0.79502 0.67699 0.0
C2858 C 0.25322 0.77597 0.64133 0.0
C2859 C 0.25191 0.79834 0.60151 0.0
C2860 C 0.24676 0.7913 0.61703 0.0
C2861 C 0.23787 0.78112 0.66715 0.0
C2862 C 0.23973 0.78298 0.64936 0.0
H2863 H 0.26771 0.83412 0.58777 0.0
H2864 H 0.26408 0.81888 0.61311 0.0
H2865 H 0.2677 0.77547 0.61946 0.0
H2866 H 0.24264 0.75267 0.69684 0.0
H2867 H 0.24195 0.75494 0.66716 0.0
C2868 C 0.41107 0.01474 0.83782 0.0
C2869 C 0.42259 0.01219 0.82543 0.0
C2870 C 0.41537 0.01259 0.85411 0.0
C2871 C 0.4466 0.99116 0.87863 0.0
H2872 H 0.42457 0.01284 0.91458 0.0
C2873 C 0.46588 0.97503 0.94229 0.0
C2874 C 0.46856 0.98866 0.95235 0.0
C2875 C 0.45552 0.97627 0.92883 0.0
C2876 C 0.43093 0.0067 0.90472 0.0
H2877 H 0.44785 0.00664 0.82005 0.0
H2878 H 0.45583 0.00395 0.84869 0.0
H2879 H 0.41891 0.0212 0.88678 0.0
H2880 H 0.46153 0.01362 0.95764 0.0
H2881 H 0.44441 0.01628 0.93369 0.0
H2882 H 0.45976 0.97774 0.8964 0.0
C2883 C 0.44324 0.00684 0.84588 0.0
C2884 C 0.42754 0.01139 0.8887 0.0
C2885 C 0.43879 0.00858 0.82952 0.0
C2886 C 0.45947 0.00293 0.94999 0.0
C2887 C 0.44963 0.00441 0.93618 0.0
C2888 C 0.45036 0.98683 0.89461 0.0
C2889 C 0.4314 0.00815 0.85834 0.0
C2890 C 0.43538 0.00371 0.87545 0.0
C2891 C 0.44845 0.99143 0.92483 0.0
C2892 C 0.44265 0.99459 0.90792 0.0
H2893 H 0.39843 0.01733 0.83485 0.0
H2894 H 0.40585 0.01351 0.86324 0.0
H2895 H 0.45258 0.9846 0.86879 0.0
H2896 H 0.47277 0.96388 0.94406 0.0
H2897 H 0.45425 0.96576 0.92082 0.0
C2898 C 0.26537 0.17199 0.08662 0.0
C2899 C 0.25078 0.17294 0.0776 0.0
C2900 C 0.26558 0.17579 0.10323 0.0
C2901 C 0.24177 0.19612 0.13598 0.0
H2902 H 0.27083 0.17125 0.16393 0.0
C2903 C 0.24428 0.20789 0.20428 0.0
C2904 C 0.25807 0.21796 0.20638 0.0
C2905 C 0.24324 0.19752 0.19071 0.0
C2906 C 0.26251 0.17806 0.15625 0.0
H2907 H 0.22513 0.17944 0.07885 0.0
H2908 H 0.22532 0.18542 0.10801 0.0
H2909 H 0.2686 0.16422 0.13491 0.0
H2910 H 0.28224 0.22386 0.19743 0.0
H2911 H 0.28074 0.20507 0.17411 0.0
H2912 H 0.23568 0.20985 0.15746 0.0
C2913 C 0.23668 0.18191 0.1022 0.0
C2914 C 0.26138 0.17426 0.13963 0.0
C2915 C 0.23652 0.17832 0.08549 0.0
C2916 C 0.27161 0.21601 0.19608 0.0
C2917 C 0.27073 0.20533 0.18277 0.0
C2918 C 0.24265 0.19966 0.15263 0.0
C2919 C 0.25116 0.1804 0.11132 0.0
C2920 C 0.25131 0.18353 0.12921 0.0
C2921 C 0.25615 0.19686 0.17947 0.0
C2922 C 0.25324 0.19086 0.16278 0.0
H2923 H 0.27657 0.16771 0.08102 0.0
H2924 H 0.27706 0.17495 0.10975 0.0
H2925 H 0.2341 0.20369 0.12834 0.0
H2926 H 0.23359 0.20948 0.21193 0.0
H2927 H 0.23186 0.19115 0.18822 0.0
C2928 C 0.16763 0.06289 0.0047 0.0
C2929 C 0.172 0.07878 0.00961 0.0
C2930 C 0.15118 0.05835 0.00376 0.0
C2931 C 0.10876 0.07243 0.01361 0.0
H2932 H 0.09831 0.04493 0.97634 0.0
C2933 C 0.04601 0.04243 0.00366 0.0
C2934 C 0.0423 0.03619 0.98809 0.0
C2935 C 0.06033 0.05141 0.00616 0.0
C2936 C 0.10088 0.05299 0.98657 0.0
H2937 H 0.16278 0.10219 0.01799 0.0
H2938 H 0.13421 0.09455 0.01586 0.0
H2939 H 0.12647 0.0513 0.98225 0.0
H2940 H 0.04908 0.03627 0.96256 0.0
H2941 H 0.07336 0.05322 0.96657 0.0
H2942 H 0.08304 0.07478 0.01738 0.0
C2943 C 0.14332 0.08537 0.01313 0.0
C2944 C 0.11718 0.05627 0.99025 0.0
C2945 C 0.15973 0.08979 0.01433 0.0
C2946 C 0.05177 0.04097 0.97468 0.0
C2947 C 0.06584 0.05039 0.97708 0.0
C2948 C 0.09239 0.06943 0.00971 0.0
C2949 C 0.13881 0.06975 0.00738 0.0
C2950 C 0.12137 0.0659 0.0039 0.0
C2951 C 0.07098 0.05455 0.99302 0.0
C2952 C 0.08822 0.05954 -0.0038 0.0
H2953 H 0.17691 0.05414 0.00117 0.0
H2954 H 0.14819 0.04604 -0.00024 0.0
H2955 H 0.1115 0.07977 0.02432 0.0
H2956 H 0.039 0.03866 0.01424 0.0
H2957 H 0.06374 0.05436 0.01862 0.0
C2958 C 0.67981 0.44771 0.00468 0.0
C2959 C 0.67964 0.43393 0.99434 0.0
C2960 C 0.66652 0.45833 0.00502 0.0
C2961 C 0.6272 0.46771 0.98424 0.0
H2962 H 0.61126 0.47346 0.02857 0.0
C2963 C 0.56134 0.46107 0.00537 0.0
C2964 C 0.55377 0.47573 0.00997 0.0
C2965 C 0.57817 0.46066 0.00305 0.0
C2966 C 0.61577 0.4723 0.01617 0.0
H2967 H 0.66595 0.42079 0.97574 0.0
H2968 H 0.64262 0.43904 0.97654 0.0
H2969 H 0.63943 0.46486 0.02408 0.0
H2970 H 0.55754 0.50126 0.01637 0.0
H2971 H 0.5874 0.50026 0.01297 0.0
H2972 H 0.60293 0.47368 0.97653 0.0
C2973 C 0.6531 0.44194 0.98413 0.0
C2974 C 0.63186 0.46746 0.01355 0.0
C2975 C 0.6664 0.4314 0.98373 0.0
C2976 C 0.56324 0.48985 0.01276 0.0
C2977 C 0.58017 0.48932 0.01082 0.0
C2978 C 0.61107 0.47235 0.98689 0.0
C2979 C 0.65284 0.45527 0.99508 0.0
C2980 C 0.63749 0.46439 -0.00243 0.0
C2981 C 0.58759 0.4748 0.00566 0.0
C2982 C 0.60518 0.47404 0.00287 0.0
H2983 H 0.69006 0.45005 0.01276 0.0
H2984 H 0.66672 0.46861 0.01342 0.0
H2985 H 0.63132 0.46572 0.9718 0.0
H2986 H 0.5542 0.45012 0.00298 0.0
H2987 H 0.58385 0.44934 -0.00088 0.0
C2988 C 0.84312 0.41211 0.23623 0.0
C2989 C 0.83167 0.42475 0.23752 0.0
C2990 C 0.83834 0.39595 0.23866 0.0
C2991 C 0.80515 0.37268 0.25865 0.0
H2992 H 0.82722 0.33557 0.23907 0.0
C2993 C 0.78207 0.30996 0.27401 0.0
C2994 C 0.77994 0.29984 0.26033 0.0
C2995 C 0.79304 0.32301 0.27337 0.0
C2996 C 0.82086 0.34577 0.24462 0.0
H2997 H 0.80619 0.43069 0.24112 0.0
H2998 H 0.79748 0.40225 0.24426 0.0
H2999 H 0.83455 0.36305 0.2307 0.0
H3000 H 0.78838 0.29409 0.23593 0.0
H3001 H 0.80659 0.31744 0.23422 0.0
H3002 H 0.79041 0.3556 0.27142 0.0
C3003 C 0.8103 0.40479 0.24216 0.0
C3004 C 0.8252 0.36159 0.23993 0.0
C3005 C 0.81518 0.42102 0.24015 0.0
C3006 C 0.78998 0.30181 0.24664 0.0
C3007 C 0.80048 0.31523 0.24572 0.0
C3008 C 0.8005 0.35691 0.26297 0.0
C3009 C 0.82195 0.39213 0.24212 0.0
C3010 C 0.81728 0.37524 0.24679 0.0
C3011 C 0.80132 0.32659 0.25871 0.0
C3012 C 0.80815 0.3432 0.2559 0.0
H3013 H 0.85596 0.41483 0.23442 0.0
H3014 H 0.84771 0.38663 0.23871 0.0
H3015 H 0.79911 0.38285 0.2646 0.0
H3016 H 0.77446 0.30843 0.28474 0.0
H3017 H 0.79397 0.33104 0.2839 0.0
C3018 C 0.82812 0.55657 0.49377 0.0
C3019 C 0.82847 0.57274 0.48809 0.0
C3020 C 0.84234 0.54721 0.49384 0.0
C3021 C 0.88593 0.54668 0.48024 0.0
H3022 H 0.89215 0.52434 0.52148 0.0
C3023 C 0.94763 0.5175 0.49926 0.0
C3024 C 0.95223 0.5204 0.51558 0.0
C3025 C 0.93194 0.52152 0.49389 0.0
C3026 C 0.89061 0.53053 0.5099 0.0
H3027 H 0.84362 0.59166 0.47738 0.0
H3028 H 0.86859 0.57558 0.47799 0.0
H3029 H 0.86556 0.53546 0.51487 0.0
H3030 H 0.94422 0.5302 0.53894 0.0
H3031 H 0.91716 0.53755 0.52953 0.0
H3032 H 0.91139 0.54264 0.47586 0.0
C3033 C 0.85733 0.56989 0.48201 0.0
C3034 C 0.87528 0.53669 0.50597 0.0
C3035 C 0.84305 0.57916 0.48173 0.0
C3036 C 0.94101 0.52767 0.52632 0.0
C3037 C 0.92542 0.53175 0.52096 0.0
C3038 C 0.90135 0.54062 0.48425 0.0
C3039 C 0.85723 0.55396 0.48848 0.0
C3040 C 0.87284 0.54524 0.4913 0.0
C3041 C 0.92063 0.52855 0.50475 0.0
C3042 C 0.90394 0.53294 0.49936 0.0
H3043 H 0.81693 0.5513 0.4985 0.0
H3044 H 0.84176 0.53486 0.49858 0.0
H3045 H 0.88438 0.55295 0.46871 0.0
H3046 H 0.95603 0.51185 0.49072 0.0
H3047 H 0.92857 0.51888 0.48134 0.0
C3048 C 0.17529 0.08893 0.23538 0.0
C3049 C 0.18321 0.07457 0.24032 0.0
C3050 C 0.18378 0.10377 0.23492 0.0
C3051 C 0.21879 0.12317 0.25523 0.0
H3052 H 0.20654 0.16001 0.22816 0.0
C3053 C 0.22436 0.18832 0.27869 0.0
C3054 C 0.22979 0.20077 0.26823 0.0
C3055 C 0.22099 0.17275 0.27262 0.0
C3056 C 0.21031 0.1498 0.23564 0.0
H3057 H 0.20646 0.06412 0.24734 0.0
H3058 H 0.22143 0.08999 0.24618 0.0
H3059 H 0.19727 0.13248 0.2208 0.0
H3060 H 0.23564 0.20677 0.24311 0.0
H3061 H 0.22978 0.1793 0.2324 0.0
H3062 H 0.23173 0.14041 0.27011 0.0
C3063 C 0.20856 0.08991 0.24313 0.0
C3064 C 0.20487 0.13405 0.23154 0.0
C3065 C 0.20001 0.0751 0.24378 0.0
C3066 C 0.23146 0.1974 0.25144 0.0
C3067 C 0.22811 0.1817 0.24533 0.0
C3068 C 0.22429 0.13883 0.25925 0.0
C3069 C 0.20041 0.10453 0.23924 0.0
C3070 C 0.20857 0.12065 0.24163 0.0
C3071 C 0.22306 0.16917 0.25594 0.0
C3072 C 0.21957 0.15239 0.24989 0.0
H3073 H 0.16232 0.08885 0.23274 0.0
H3074 H 0.17703 0.11478 0.23209 0.0
H3075 H 0.22182 0.11323 0.26338 0.0
H3076 H 0.22278 0.19055 0.29166 0.0
H3077 H 0.21668 0.16349 0.28104 0.0
C3078 C 0.33104 0.94102 0.49786 0.0
C3079 C 0.32705 0.92823 0.5086 0.0
C3080 C 0.34731 0.94547 0.49547 0.0
C3081 C 0.38879 0.94319 0.51116 0.0
H3082 H 0.40095 0.93894 0.46546 0.0
C3083 C 0.45291 0.95887 0.49379 0.0
C3084 C 0.45273 0.9715 0.48226 0.0
C3085 C 0.43955 0.94829 0.49504 0.0
C3086 C 0.39776 0.9401 0.47826 0.0
H3087 H 0.33686 0.91135 0.52656 0.0
H3088 H 0.36512 0.91966 0.52281 0.0
H3089 H 0.37254 0.93483 0.47362 0.0
H3090 H 0.44011 0.98139 0.46126 0.0
H3091 H 0.41674 0.96329 0.46354 0.0
H3092 H 0.41369 0.94929 0.51584 0.0
C3093 C 0.35567 0.92594 0.51603 0.0
C3094 C 0.38152 0.9379 0.48289 0.0
C3095 C 0.33944 0.92129 0.51824 0.0
C3096 C 0.44035 0.97184 0.47041 0.0
C3097 C 0.42698 0.96137 0.4717 0.0
C3098 C 0.40499 0.94561 0.50653 0.0
C3099 C 0.35974 0.93742 0.50403 0.0
C3100 C 0.37691 0.93973 0.49932 0.0
C3101 C 0.42588 0.95042 0.48486 0.0
C3102 C 0.4096 0.9444 0.48997 0.0
H3103 H 0.3217 0.94692 0.49061 0.0
H3104 H 0.35024 0.95466 0.48641 0.0
H3105 H 0.38544 0.94457 0.52391 0.0
H3106 H 0.46228 0.95843 0.5031 0.0
H3107 H 0.43921 0.93962 0.50502 0.0
C3108 C 0.80475 0.57364 0.24107 0.0
C3109 C 0.81856 0.57391 0.25129 0.0
C3110 C 0.79355 0.58642 0.24156 0.0
C3111 C 0.78107 0.62335 0.26452 0.0
H3112 H 0.77932 0.64337 0.22165 0.0
C3113 C 0.78058 0.69219 0.2557 0.0
C3114 C 0.77245 0.69887 0.24229 0.0
C3115 C 0.78103 0.6753 0.25772 0.0
C3116 C 0.77922 0.63782 0.23365 0.0
H3117 H 0.831 0.58725 0.27068 0.0
H3118 H 0.81142 0.60954 0.27154 0.0
H3119 H 0.78874 0.61539 0.22425 0.0
H3120 H 0.7578 0.69383 0.22083 0.0
H3121 H 0.75851 0.66403 0.22428 0.0
H3122 H 0.77223 0.64609 0.27398 0.0
C3123 C 0.80917 0.59937 0.26328 0.0
C3124 C 0.78462 0.62176 0.23513 0.0
C3125 C 0.82042 0.58665 0.26272 0.0
C3126 C 0.76436 0.68869 0.2311 0.0
C3127 C 0.76473 0.67175 0.23312 0.0
C3128 C 0.77553 0.63938 0.26302 0.0
C3129 C 0.79592 0.5996 0.25236 0.0
C3130 C 0.78629 0.61468 0.25064 0.0
C3131 C 0.7732 0.66489 0.24638 0.0
C3132 C 0.77532 0.647 0.24765 0.0
H3133 H 0.80282 0.56374 0.23242 0.0
H3134 H 0.78335 0.58631 0.23311 0.0
H3135 H 0.78208 0.61802 0.27658 0.0
H3136 H 0.7867 0.70004 0.26453 0.0
H3137 H 0.78793 0.6704 0.26787 0.0
C3138 C 0.70115 0.42129 0.75656 0.0
C3139 C 0.68475 0.42232 0.76149 0.0
C3140 C 0.70926 0.40628 0.75677 0.0
C3141 C 0.70566 0.36274 0.77026 0.0
H3142 H 0.7286 0.35426 0.72966 0.0
C3143 C 0.73052 0.29855 0.75136 0.0
C3144 C 0.72708 0.29412 0.73508 0.0
C3145 C 0.7276 0.31452 0.75689 0.0
C3146 C 0.72227 0.35645 0.74109 0.0
H3147 H 0.66418 0.40864 0.77111 0.0
H3148 H 0.67815 0.38242 0.77113 0.0
H3149 H 0.71977 0.38188 0.73602 0.0
H3150 H 0.71749 0.30284 0.71196 0.0
H3151 H 0.71225 0.33043 0.72158 0.0
H3152 H 0.70739 0.33696 0.77476 0.0
C3153 C 0.68492 0.39321 0.76744 0.0
C3154 C 0.71739 0.37234 0.74486 0.0
C3155 C 0.67686 0.40823 0.76737 0.0
C3156 C 0.72037 0.30584 0.72456 0.0
C3157 C 0.7175 0.32173 0.73003 0.0
C3158 C 0.71051 0.34677 0.76645 0.0
C3159 C 0.70108 0.39197 0.76174 0.0
C3160 C 0.70859 0.37561 0.75925 0.0
C3161 C 0.72128 0.32632 0.74616 0.0
C3162 C 0.71837 0.34341 0.75155 0.0
H3163 H 0.70759 0.43204 0.75223 0.0
H3164 H 0.72181 0.40582 0.75259 0.0
H3165 H 0.69914 0.3649 0.78158 0.0
H3166 H 0.73584 0.2898 0.75967 0.0
H3167 H 0.73063 0.31773 0.76939 0.0
C3168 C 0.0017 0.83188 0.94257 0.0
C3169 C -0.0015 0.83071 0.92577 0.0
C3170 C -0.00145 0.84645 0.951 0.0
C3171 C 0.97774 0.88709 0.94627 0.0
H3172 H 0.00837 0.90019 0.98006 0.0
C3173 C 0.00159 0.95135 0.96209 0.0
C3174 C 0.00386 0.95515 0.97864 0.0
C3175 C 0.99437 0.93649 0.95758 0.0
C3176 C -0.00053 0.89654 0.97091 0.0
H3177 H 0.98992 0.84363 0.90443 0.0
H3178 H 0.98539 0.86938 0.91878 0.0
H3179 H 0.01028 0.87302 0.9682 0.0
H3180 H -0.0006 0.94746 0.00352 0.0
H3181 H 0.98723 0.9211 0.99564 0.0
H3182 H 0.96806 0.91144 0.94811 0.0
C3183 C 0.98957 0.85898 0.92575 0.0
C3184 C 0.00054 0.88092 0.96408 0.0
C3185 C 0.99238 0.84432 0.91744 0.0
C3186 C -0.00244 0.94473 0.99067 0.0
C3187 C 0.99065 0.92971 0.98618 0.0
C3188 C 0.97695 0.90289 0.95286 0.0
C3189 C 0.99249 0.86024 0.94268 0.0
C3190 C 0.98997 0.87611 0.95136 0.0
C3191 C 0.98981 0.92516 0.96963 0.0
C3192 C 0.98803 0.9078 0.965 0.0
H3193 H 0.00627 0.82141 0.94922 0.0
H3194 H 0.00073 0.84681 0.96404 0.0
H3195 H 0.96907 0.88369 0.93684 0.0
H3196 H 0.00657 0.95923 0.95269 0.0
H3197 H 0.99397 0.93316 0.94475 0.0
C3198 C 0.9112 0.24061 0.67192 0.0
C3199 C 0.92526 0.24735 0.67915 0.0
C3200 C 0.89617 0.24204 0.67961 0.0
C3201 C 0.87388 0.24432 0.71575 0.0
H3202 H 0.84255 0.26936 0.69057 0.0
C3203 C 0.80616 0.2518 0.73449 0.0
C3204 C 0.79474 0.25015 0.72172 0.0
C3205 C 0.82282 0.25267 0.73111 0.0
C3206 C 0.85114 0.2623 0.6977 0.0
H3207 H 0.93487 0.2603 0.70031 0.0
H3208 H 0.90818 0.26266 0.71397 0.0
H3209 H 0.87109 0.26862 0.68205 0.0
H3210 H 0.79179 0.24758 0.69547 0.0
H3211 H 0.82093 0.24882 0.68958 0.0
H3212 H 0.85377 0.23723 0.73091 0.0
C3213 C 0.90901 0.25637 0.70232 0.0
C3214 C 0.86742 0.26203 0.69293 0.0
C3215 C 0.92413 0.25508 0.6945 0.0
C3216 C 0.80029 0.24907 0.70554 0.0
C3217 C 0.81695 0.24987 0.70217 0.0
C3218 C 0.8575 0.24447 0.72048 0.0
C3219 C 0.89497 0.25013 0.69469 0.0
C3220 C 0.87875 0.25271 0.70167 0.0
C3221 C 0.82834 0.25187 0.71491 0.0
C3222 C 0.84592 0.25308 0.71118 0.0
H3223 H 0.91171 0.23479 0.66 0.0
H3224 H 0.88537 0.23714 0.67363 0.0
H3225 H 0.88254 0.23698 0.72252 0.0
H3226 H 0.80227 0.2526 0.74712 0.0
H3227 H 0.83133 0.25427 0.74114 0.0
C3228 C 0.51949 0.15955 0.41602 0.0
C3229 C 0.51235 0.17293 0.42407 0.0
C3230 C 0.52077 0.14447 0.42385 0.0
C3231 C 0.50248 0.1214 0.45818 0.0
H3232 H 0.53641 0.09008 0.44739 0.0
C3233 C 0.50365 0.05879 0.48733 0.0
C3234 C 0.49538 0.04885 0.476 0.0
C3235 C 0.51152 0.07301 0.48209 0.0
C3236 C 0.52705 0.09885 0.45064 0.0
H3237 H 0.50152 0.18137 0.44671 0.0
H3238 H 0.50433 0.15525 0.4607 0.0
H3239 H 0.53817 0.11807 0.43683 0.0
H3240 H 0.49008 0.04465 0.45042 0.0
H3241 H 0.50439 0.06933 0.44113 0.0
H3242 H 0.49148 0.10215 0.47203 0.0
C3243 C 0.50847 0.15615 0.44816 0.0
C3244 C 0.52789 0.11478 0.44448 0.0
C3245 C 0.50691 0.17114 0.44021 0.0
C3246 C 0.4966 0.05214 0.45926 0.0
C3247 C 0.50477 0.06617 0.45398 0.0
C3248 C 0.50186 0.10566 0.46459 0.0
C3249 C 0.51517 0.14252 0.43999 0.0
C3250 C 0.51539 0.12615 0.44788 0.0
C3251 C 0.51141 0.07714 0.46547 0.0
C3252 C 0.51396 0.09423 0.46063 0.0
H3253 H 0.52362 0.16063 0.40349 0.0
H3254 H 0.52567 0.13423 0.41701 0.0
H3255 H 0.49242 0.12957 0.46079 0.0
H3256 H 0.50259 0.05648 0.50033 0.0
H3257 H 0.51642 0.08147 0.4911 0.0
C3258 C 0.58078 0.74146 0.18797 0.0
C3259 C 0.57773 0.7521 0.17491 0.0
C3260 C 0.59664 0.73927 0.19367 0.0
C3261 C 0.63887 0.74254 0.17891 0.0
H3262 H 0.64929 0.73379 0.22423 0.0
C3263 C 0.70213 0.74286 0.21025 0.0
C3264 C 0.70368 0.73226 0.22359 0.0
C3265 C 0.68799 0.74233 0.2007 0.0
C3266 C 0.64648 0.73591 0.21147 0.0
H3267 H 0.58862 0.7698 0.15843 0.0
H3268 H 0.61627 0.76647 0.16886 0.0
H3269 H 0.62169 0.74173 0.21695 0.0
H3270 H 0.69349 0.71112 0.23585 0.0
H3271 H 0.66898 0.70995 0.21894 0.0
H3272 H 0.66401 0.73726 0.17366 0.0
C3273 C 0.60647 0.75942 0.17431 0.0
C3274 C 0.6307 0.74055 0.20733 0.0
C3275 C 0.59061 0.7615 0.16852 0.0
C3276 C 0.69236 0.71952 0.22569 0.0
C3277 C 0.67835 0.71889 0.21609 0.0
C3278 C 0.65477 0.73806 0.1831 0.0
C3279 C 0.60971 0.74783 0.1865 0.0
C3280 C 0.6267 0.74384 0.191 0.0
C3281 C 0.6755 0.73114 0.20447 0.0
C3282 C 0.65862 0.73457 0.1994 0.0
H3283 H 0.571 0.73429 0.19332 0.0
H3284 H 0.59873 0.73025 0.2031 0.0
H3285 H 0.63607 0.74475 0.16617 0.0
H3286 H 0.71074 0.75281 0.2085 0.0
H3287 H 0.68605 0.75185 0.19174 0.0
C3288 C 0.9854 0.16039 0.57527 0.0
C3289 C -0.0015 0.17119 0.57244 0.0
C3290 C 0.98636 0.1441 0.57027 0.0
C3291 C 0.01142 0.11462 0.54648 0.0
H3292 H -0.00181 0.08446 0.58065 0.0
C3293 C 0.03208 0.05004 0.54213 0.0
C3294 C 0.01852 0.03996 0.53897 0.0
C3295 C 0.02999 0.06487 0.55028 0.0
C3296 C 0.00197 0.0928 0.5711 0.0
H3297 H 0.02201 0.17391 0.5605 0.0
H3298 H 0.02404 0.14538 0.55241 0.0
H3299 H 0.99203 0.1136 0.58342 0.0
H3300 H 0.99289 0.03579 0.54438 0.0
H3301 H 0.98929 0.06169 0.55878 0.0
H3302 H 0.02167 0.09386 0.53437 0.0
C3303 C 0.01297 0.14942 0.55842 0.0
C3304 C -0.00174 0.10941 0.57251 0.0
C3305 C 0.01192 0.16575 0.56323 0.0
C3306 C 0.00354 0.04339 0.54663 0.0
C3307 C 0.00144 0.05827 0.55479 0.0
C3308 C 0.01532 0.09811 0.5452 0.0
C3309 C 0.00051 0.13828 0.56253 0.0
C3310 C 0.00307 0.1205 0.56026 0.0
C3311 C 0.01434 0.06962 0.55538 0.0
C3312 C 0.01079 0.08712 0.55758 0.0
H3313 H 0.97486 0.16417 0.58231 0.0
H3314 H 0.97636 0.1359 0.57317 0.0
H3315 H 0.015 0.12276 0.53669 0.0
H3316 H 0.04379 0.04748 0.53651 0.0
H3317 H 0.04017 0.07336 0.55097 0.0
C3318 C 0.59419 0.25752 0.33432 0.0
C3319 C 0.58146 0.2494 0.32615 0.0
C3320 C 0.61026 0.25549 0.32925 0.0
C3321 C 0.63722 0.22906 0.30388 0.0
H3322 H 0.66543 0.26718 0.30677 0.0
C3323 C 0.69488 0.24653 0.26734 0.0
C3324 C 0.70632 0.25605 0.27591 0.0
C3325 C 0.68191 0.23925 0.27571 0.0
C3326 C 0.65781 0.2563 0.30624 0.0
H3327 H 0.57532 0.23296 0.30621 0.0
H3328 H 0.60353 0.23005 0.29667 0.0
H3329 H 0.63733 0.26931 0.31541 0.0
H3330 H 0.71485 0.26378 0.29974 0.0
H3331 H 0.69224 0.25096 0.31446 0.0
H3332 H 0.65784 0.21654 0.29342 0.0
C3333 C 0.60115 0.23758 0.30733 0.0
C3334 C 0.64165 0.25753 0.31117 0.0
C3335 C 0.58502 0.23938 0.31263 0.0
C3336 C 0.70609 0.25639 0.293 0.0
C3337 C 0.6932 0.24906 0.30138 0.0
C3338 C 0.65346 0.22793 0.2986 0.0
C3339 C 0.61397 0.24556 0.31566 0.0
C3340 C 0.63114 0.24394 0.31016 0.0
C3341 C 0.68032 0.2417 0.29263 0.0
C3342 C 0.66387 0.24156 0.29987 0.0
H3343 H 0.59176 0.265 0.34501 0.0
H3344 H 0.61982 0.26152 0.33622 0.0
H3345 H 0.62947 0.21832 0.30305 0.0
H3346 H 0.6949 0.24628 0.25409 0.0
H3347 H 0.67212 0.23363 0.26871 0.0
C3348 C 0.51176 0.83465 0.07431 0.0
C3349 C 0.50104 0.82217 0.06923 0.0
C3350 C 0.51126 0.84989 0.06694 0.0
C3351 C 0.50081 0.87367 0.03211 0.0
H3352 H 0.4909 0.90748 0.06407 0.0
C3353 C 0.49087 0.94168 0.01542 0.0
C3354 C 0.49727 0.95328 0.02644 0.0
C3355 C 0.49105 0.92509 0.01929 0.0
C3356 C 0.49386 0.89822 0.05503 0.0
H3357 H 0.48203 0.81546 0.05193 0.0
H3358 H 0.48117 0.8425 0.03893 0.0
H3359 H 0.49204 0.87903 0.07257 0.0
H3360 H 0.50966 0.95678 0.04963 0.0
H3361 H 0.51044 0.92778 0.0562 0.0
H3362 H 0.50322 0.89298 0.01465 0.0
C3363 C 0.4899 0.84028 0.04863 0.0
C3364 C 0.49438 0.88199 0.05987 0.0
C3365 C 0.49032 0.82496 0.05611 0.0
C3366 C 0.50433 0.94807 0.04111 0.0
C3367 C 0.50473 0.93149 0.04486 0.0
C3368 C 0.50049 0.89003 0.02725 0.0
C3369 C 0.50008 0.8529 0.05435 0.0
C3370 C 0.49813 0.86968 0.04853 0.0
C3371 C 0.49782 0.91988 0.03414 0.0
C3372 C 0.49731 0.90246 0.03878 0.0
H3373 H 0.51999 0.8329 0.08453 0.0
H3374 H 0.51922 0.85954 0.07145 0.0
H3375 H 0.50373 0.86424 0.02324 0.0
H3376 H 0.4854 0.94544 0.00398 0.0
H3377 H 0.48554 0.91642 0.01085 0.0
C3378 C 0.91398 0.74107 0.82664 0.0
C3379 C 0.92735 0.75106 0.82251 0.0
C3380 C 0.90006 0.74066 0.81681 0.0
C3381 C 0.87664 0.7654 0.7886 0.0
H3382 H 0.85325 0.72459 0.78138 0.0
C3383 C 0.80716 0.75976 0.78471 0.0
C3384 C 0.80021 0.74865 0.7736 0.0
C3385 C 0.82409 0.76123 0.78593 0.0
C3386 C 0.85977 0.73606 0.78298 0.0
H3387 H 0.93668 0.76828 0.80464 0.0
H3388 H 0.91211 0.76776 0.78757 0.0
H3389 H 0.88086 0.72408 0.79265 0.0
H3390 H 0.80508 0.73075 0.75466 0.0
H3391 H 0.83497 0.73284 0.75724 0.0
H3392 H 0.85519 0.77738 0.77965 0.0
C3393 C 0.91249 0.76026 0.79845 0.0
C3394 C 0.87549 0.73577 0.78958 0.0
C3395 C 0.92649 0.76061 0.80826 0.0
C3396 C 0.81032 0.73939 0.76331 0.0
C3397 C 0.82732 0.74059 0.76478 0.0
C3398 C 0.86084 0.76568 0.78213 0.0
C3399 C 0.89915 0.75027 0.80265 0.0
C3400 C 0.88385 0.75046 0.79298 0.0
C3401 C 0.83434 0.75136 0.7763 0.0
C3402 C 0.85207 0.75104 0.77979 0.0
H3403 H 0.9141 0.73382 0.8377 0.0
H3404 H 0.88981 0.73313 0.82056 0.0
H3405 H 0.8828 0.7769 0.79111 0.0
H3406 H 0.79947 0.76706 0.79267 0.0
H3407 H 0.82916 0.76949 0.79503 0.0
C3408 C 0.92233 0.01182 0.8355 0.0
C3409 C 0.92694 0.00048 0.82344 0.0
C3410 C 0.93148 0.01356 0.84972 0.0
C3411 C 0.95874 0.99177 0.87686 0.0
H3412 H 0.96467 0.03518 0.89547 0.0
C3413 C 0.98345 0.00245 0.9422 0.0
C3414 C 0.97318 0.01244 0.95174 0.0
C3415 C 0.98146 0.00161 0.92527 0.0
C3416 C 0.96319 0.023 0.89037 0.0
H3417 H 0.94469 0.98194 0.81684 0.0
H3418 H 0.96071 0.98488 0.84203 0.0
H3419 H 0.95467 0.03222 0.86751 0.0
H3420 H 0.95311 0.0297 0.95099 0.0
H3421 H 0.94967 0.02821 0.92145 0.0
H3422 H 0.96672 0.98256 0.89998 0.0
C3423 C 0.95 0.99243 0.84033 0.0
C3424 C 0.95747 0.0213 0.87442 0.0
C3425 C 0.94082 0.99071 0.826 0.0
C3426 C 0.96118 0.02188 0.94399 0.0
C3427 C 0.95931 0.02113 0.92707 0.0
C3428 C 0.96453 0.99347 0.89284 0.0
C3429 C 0.94545 0.00397 0.85226 0.0
C3430 C 0.95456 0.00567 0.86776 0.0
C3431 C 0.96931 0.01086 0.91759 0.0
C3432 C 0.96619 0.0091 0.89991 0.0
H3433 H 0.91148 0.01922 0.83406 0.0
H3434 H 0.92741 0.02222 0.85892 0.0
H3435 H 0.95655 0.97958 0.87203 0.0
H3436 H 0.99281 0.995 0.94781 0.0
H3437 H 0.98933 0.99363 0.91821 0.0
C3438 C 0.77044 0.17521 0.58894 0.0
C3439 C 0.7582 0.17908 0.57755 0.0
C3440 C 0.76877 0.1798 0.60527 0.0
C3441 C 0.74319 0.20379 0.63425 0.0
H3442 H 0.75293 0.16778 0.6635 0.0
C3443 C 0.71943 0.20545 0.69851 0.0
C3444 C 0.7326 0.20752 0.70937 0.0
C3445 C 0.72202 0.19853 0.68315 0.0
C3446 C 0.75013 0.17785 0.65541 0.0
H3447 H 0.7357 0.19253 0.57389 0.0
H3448 H 0.73242 0.19995 0.60247 0.0
H3449 H 0.76042 0.16579 0.63466 0.0
H3450 H 0.75801 0.20146 0.71385 0.0
H3451 H 0.76232 0.18889 0.68719 0.0
H3452 H 0.73251 0.21562 0.65499 0.0
C3453 C 0.74333 0.19341 0.59887 0.0
C3454 C 0.75461 0.17688 0.63898 0.0
C3455 C 0.74511 0.18901 0.58249 0.0
C3456 C 0.74762 0.20002 0.70577 0.0
C3457 C 0.75015 0.19294 0.69043 0.0
C3458 C 0.7385 0.20464 0.65059 0.0
C3459 C 0.75475 0.18816 0.61055 0.0
C3460 C 0.75115 0.18983 0.62821 0.0
C3461 C 0.7377 0.19334 0.67865 0.0
C3462 C 0.74184 0.19164 0.66124 0.0
H3463 H 0.78071 0.16761 0.58554 0.0
H3464 H 0.77804 0.17603 0.61392 0.0
H3465 H 0.74059 0.21408 0.62637 0.0
H3466 H 0.70767 0.21091 0.70111 0.0
H3467 H 0.71218 0.19865 0.67428 0.0
C3468 C 0.57778 0.99082 0.33732 0.0
C3469 C 0.57281 0.00063 0.32424 0.0
C3470 C 0.56792 0.9892 0.35101 0.0
C3471 C 0.5368 0.00907 0.37501 0.0
H3472 H 0.53321 0.96576 0.39404 0.0
C3473 C 0.51102 -0.00185 0.43964 0.0
C3474 C 0.52211 0.9895 0.4495 0.0
C3475 C 0.51306 -0.00146 0.42273 0.0
C3476 C 0.53396 0.97789 0.38877 0.0
H3477 H 0.55393 0.01683 0.31524 0.0
H3478 H 0.53655 0.01406 0.33954 0.0
H3479 H 0.54472 0.96888 0.36674 0.0
H3480 H 0.5437 0.97413 0.44934 0.0
H3481 H 0.54727 0.97493 0.4199 0.0
H3482 H 0.52677 0.01813 0.39744 0.0
C3483 C 0.54807 0.00759 0.33904 0.0
C3484 C 0.54054 0.97967 0.37322 0.0
C3485 C 0.55799 0.00921 0.32525 0.0
C3486 C 0.53495 0.98088 0.4421 0.0
C3487 C 0.53692 0.98123 0.42523 0.0
C3488 C 0.53017 0.00727 0.39061 0.0
C3489 C 0.55288 -0.00265 0.35189 0.0
C3490 C 0.5427 0.99533 0.36655 0.0
C3491 C 0.5261 0.99019 0.41544 0.0
C3492 C 0.52941 0.99173 0.39785 0.0
H3493 H 0.58934 0.98439 0.33696 0.0
H3494 H 0.57213 0.98164 0.36101 0.0
H3495 H 0.53836 0.02127 0.37008 0.0
H3496 H 0.50096 0.00488 0.44499 0.0
H3497 H 0.50458 0.00551 0.41537 0.0
C3498 C 0.73174 0.81481 0.0865 0.0
C3499 C 0.74295 0.82731 0.08278 0.0
C3500 C 0.73076 0.80865 0.10238 0.0
C3501 C 0.75463 0.80706 0.14069 0.0
H3502 H 0.71323 0.79524 0.16068 0.0
C3503 C 0.7556 0.79132 0.20589 0.0
C3504 C 0.7537 0.77434 0.20704 0.0
C3505 C 0.74853 0.79968 0.19292 0.0
C3506 C 0.72479 0.79866 0.15519 0.0
H3507 H 0.76158 0.84349 0.0926 0.0
H3508 H 0.75965 0.83314 0.1203 0.0
H3509 H 0.71376 0.8054 0.13242 0.0
H3510 H 0.74155 0.75292 0.19716 0.0
H3511 H 0.72933 0.76755 0.17413 0.0
H3512 H 0.76565 0.80055 0.16334 0.0
C3513 C 0.75196 0.82765 0.11097 0.0
C3514 C 0.72516 0.80427 0.13904 0.0
C3515 C 0.75309 0.83361 0.09512 0.0
C3516 C 0.74299 0.76609 0.19643 0.0
C3517 C 0.73598 0.77445 0.18334 0.0
C3518 C 0.75421 0.80178 0.15677 0.0
C3519 C 0.74085 0.81506 0.1148 0.0
C3520 C 0.74012 0.80862 0.13168 0.0
C3521 C 0.73981 0.79102 0.18086 0.0
C3522 C 0.73932 0.79766 0.1642 0.0
H3523 H 0.72381 0.80979 0.0771 0.0
H3524 H 0.72225 0.79879 0.10488 0.0
H3525 H 0.7664 0.80977 0.13528 0.0
H3526 H 0.76391 0.7978 0.21398 0.0
H3527 H 0.75154 0.81249 0.19121 0.0
C3528 C 0.93809 0.00855 0.66475 0.0
C3529 C 0.9236 -0.00018 0.66773 0.0
C3530 C 0.94398 0.01016 0.6488 0.0
C3531 C 0.93948 0.99128 0.6078 0.0
H3532 H 0.96205 0.03036 0.59301 0.0
C3533 C 0.96139 0.99187 0.54371 0.0
C3534 C 0.97847 0.9924 0.54364 0.0
C3535 C 0.9528 -0.00141 0.5568 0.0
C3536 C 0.95558 0.01949 0.59699 0.0
H3537 H 0.90359 0.98642 0.65662 0.0
H3538 H 0.91341 0.98964 0.62882 0.0
H3539 H 0.95117 0.02927 0.62094 0.0
H3540 H 7e-05 0.00174 0.5558 0.0
H3541 H 0.98508 0.01328 0.57897 0.0
H3542 H 0.94388 0.98143 0.58408 0.0
C3543 C 0.92066 0.99475 0.6387 0.0
C3544 C 0.94954 0.01875 0.61299 0.0
C3545 C 0.91499 0.99288 0.65461 0.0
C3546 C 0.98683 0.00133 0.5557 0.0
C3547 C 0.97825 0.00797 0.56889 0.0
C3548 C 0.94522 0.99213 0.59186 0.0
C3549 C 0.93528 0.0033 0.63557 0.0
C3550 C 0.9415 0.00456 0.61858 0.0
C3551 C 0.96129 0.00555 0.57009 0.0
C3552 C 0.9534 0.00617 0.5863 0.0
H3553 H 0.94486 0.01405 0.67477 0.0
H3554 H 0.9554 0.0166 0.64686 0.0
H3555 H 0.93383 0.97997 0.61176 0.0
H3556 H 0.9548 0.98496 0.53445 0.0
H3557 H 0.93968 -0.00319 0.55738 0.0
C3558 C 0.76278 0.19206 0.42338 0.0
C3559 C 0.75107 0.17976 0.42624 0.0
C3560 C 0.76343 0.19987 0.40824 0.0
C3561 C 0.75722 0.19012 0.36654 0.0
H3562 H 0.75083 0.23608 0.35682 0.0
C3563 C 0.74618 0.21068 0.30136 0.0
C3564 C 0.75367 0.22517 0.29612 0.0
C3565 C 0.74621 0.20665 0.31786 0.0
C3566 C 0.75289 0.22326 0.35939 0.0
H3567 H 0.7306 0.1663 0.41584 0.0
H3568 H 0.73182 0.1799 0.38945 0.0
H3569 H 0.75061 0.22686 0.38533 0.0
H3570 H 0.76677 0.24703 0.30378 0.0
H3571 H 0.76743 0.23962 0.33266 0.0
H3572 H 0.75976 0.18632 0.3409 0.0
C3573 C 0.74038 0.18353 0.39894 0.0
C3574 C 0.75273 0.21805 0.37563 0.0
C3575 C 0.73964 0.17585 0.41403 0.0
C3576 C 0.76094 0.23575 0.30761 0.0
C3577 C 0.76123 0.23157 0.32411 0.0
C3578 C 0.7576 0.19532 0.35042 0.0
C3579 C 0.75248 0.19528 0.39585 0.0
C3580 C 0.75447 0.20138 0.37918 0.0
C3581 C 0.75404 0.21687 0.32935 0.0
C3582 C 0.75499 0.21185 0.34663 0.0
H3583 H 0.77164 0.19535 0.43269 0.0
H3584 H 0.77287 0.2089 0.40596 0.0
H3585 H 0.75883 0.17723 0.36915 0.0
H3586 H 0.74019 0.20253 0.29274 0.0
H3587 H 0.74013 0.19548 0.3216 0.0
C3588 C 0.59058 0.00392 0.15755 0.0
C3589 C 0.57851 0.00362 0.16964 0.0
C3590 C 0.58623 0.00522 0.14119 0.0
C3591 C 0.55371 -0.00218 0.11211 0.0
H3592 H 0.57623 0.03057 0.08611 0.0
C3593 C 0.5436 0.00062 0.04366 0.0
C3594 C 0.53713 0.01578 0.03892 0.0
C3595 C 0.55182 -0.00078 0.0585 0.0
C3596 C 0.56996 0.02133 0.09323 0.0
H3597 H 0.55256 0.00411 0.17463 0.0
H3598 H 0.54475 0.00627 0.14561 0.0
H3599 H 0.58249 0.02802 0.11524 0.0
H3600 H 0.53594 0.04165 0.04472 0.0
H3601 H 0.55058 0.03924 0.07059 0.0
H3602 H 0.54104 0.99123 0.09016 0.0
C3603 C 0.55757 0.0055 0.14885 0.0
C3604 C 0.5735 0.01987 0.10982 0.0
C3605 C 0.56197 0.0043 0.16532 0.0
C3606 C 0.5408 0.02984 0.04818 0.0
C3607 C 0.54913 0.02845 0.06296 0.0
C3608 C 0.55029 -0.00084 0.09548 0.0
C3609 C 0.56973 0.00619 0.13671 0.0
C3610 C 0.56543 0.00808 0.11936 0.0
C3611 C 0.5538 0.01298 0.06865 0.0
C3612 C 0.55842 0.0109 0.08591 0.0
H3613 H 0.60341 0.00336 0.16081 0.0
H3614 H 0.59578 0.00547 0.13202 0.0
H3615 H 0.54738 0.98862 0.11924 0.0
H3616 H 0.54083 0.98955 0.03685 0.0
H3617 H 0.55557 0.98721 0.06258 0.0
C3618 C 0.76021 0.83444 0.91213 0.0
C3619 C 0.75044 0.82751 0.92445 0.0
C3620 C 0.75805 0.82982 0.89584 0.0
C3621 C 0.7379 0.79896 0.86912 0.0
H3622 H 0.73868 0.83413 0.83732 0.0
C3623 C 0.71736 0.78455 0.80626 0.0
C3624 C 0.73101 0.78493 0.79593 0.0
C3625 C 0.71707 0.79425 0.82028 0.0
C3626 C 0.73833 0.82429 0.84614 0.0
H3627 H 0.73179 0.8093 0.92952 0.0
H3628 H 0.72757 0.80169 0.90111 0.0
H3629 H 0.74545 0.83995 0.86594 0.0
H3630 H 0.75373 0.79739 0.79043 0.0
H3631 H 0.75326 0.81441 0.81508 0.0
H3632 H 0.73058 0.78337 0.84943 0.0
C3633 C 0.73697 0.81062 0.90397 0.0
C3634 C 0.7424 0.82751 0.86245 0.0
C3635 C 0.73926 0.8151 0.92026 0.0
C3636 C 0.74304 0.79701 0.79823 0.0
C3637 C 0.74281 0.80668 0.81238 0.0
C3638 C 0.73359 0.79583 0.85296 0.0
C3639 C 0.746 0.81829 0.89152 0.0
C3640 C 0.74225 0.81485 0.87411 0.0
C3641 C 0.7305 0.80427 0.82411 0.0
C3642 C 0.73372 0.80845 0.84135 0.0
H3643 H 0.76891 0.84407 0.91492 0.0
H3644 H 0.76552 0.83563 0.88658 0.0
H3645 H 0.73799 0.78887 0.87766 0.0
H3646 H 0.70796 0.7753 0.80462 0.0
H3647 H 0.70733 0.79243 0.82908 0.0
C3648 C 0.8388 0.90794 0.01871 0.0
C3649 C 0.82824 0.91844 0.01028 0.0
C3650 C 0.8555 0.91118 0.01929 0.0
C3651 C 0.88811 0.93466 -0.00125 0.0
H3652 H 0.91109 0.9288 0.0398 0.0
C3653 C 0.95391 0.95563 0.00421 0.0
C3654 C 0.95509 0.96756 0.01654 0.0
C3655 C 0.94095 0.94444 0.00433 0.0
C3656 C 0.90488 0.93029 0.02821 0.0
H3657 H 0.82667 0.94058 -0.00408 0.0
H3658 H 0.85597 0.94661 -0.00267 0.0
H3659 H 0.88228 0.92142 0.03783 0.0
H3660 H 0.94526 0.97603 0.03961 0.0
H3661 H 0.9229 0.9564 0.04006 0.0
H3662 H 0.91045 0.94449 0.98943 0.0
C3663 C 0.85137 0.93565 0.00319 0.0
C3664 C 0.88839 0.92603 0.02705 0.0
C3665 C 0.83463 0.93231 0.00247 0.0
C3666 C 0.94452 0.96688 0.02999 0.0
C3667 C 0.93174 0.95561 0.03023 0.0
C3668 C 0.90459 0.93895 -8e-05 0.0
C3669 C 0.86199 0.92505 0.01155 0.0
C3670 C 0.87975 0.92851 0.01241 0.0
C3671 C 0.92922 0.94501 0.01688 0.0
C3672 C 0.91303 0.93717 0.01478 0.0
H3673 H 0.8342 0.89696 0.02451 0.0
H3674 H 0.86337 0.90263 0.02558 0.0
H3675 H 0.88185 0.93645 0.98722 0.0
H3676 H 0.96188 0.95607 0.99364 0.0
H3677 H 0.93938 0.93622 0.994 0.0
C3678 C 0.32708 0.55484 0.00601 0.0
C3679 C 0.32749 0.57085 -0.00011 0.0
C3680 C 0.34055 0.54457 0.00391 0.0
C3681 C 0.37817 0.54112 0.97888 0.0
H3682 H 0.39388 0.51401 0.01424 0.0
C3683 C 0.44254 0.51638 0.97531 0.0
C3684 C 0.45145 0.51776 0.98984 0.0
C3685 C 0.42553 0.51701 0.97567 0.0
C3686 C 0.3897 0.52156 0.00425 0.0
H3687 H 0.34212 0.5891 0.98755 0.0
H3688 H 0.36587 0.57159 0.98452 0.0
H3689 H 0.36768 0.52777 0.01691 0.0
H3690 H 0.4501 0.52001 0.01615 0.0
H3691 H 0.42051 0.52259 0.01681 0.0
H3692 H 0.4006 0.53646 0.96683 0.0
C3693 C 0.35505 0.56658 0.99028 0.0
C3694 C 0.37455 0.52926 0.0057 0.0
C3695 C 0.34157 0.57669 0.99215 0.0
C3696 C 0.44329 0.51905 0.00481 0.0
C3697 C 0.42631 0.52028 0.00515 0.0
C3698 C 0.3934 0.53379 0.97759 0.0
C3699 C 0.35459 0.5503 0.99582 0.0
C3700 C 0.369 0.5397 0.99329 0.0
C3701 C 0.41722 0.51977 0.99051 0.0
C3702 C 0.39968 0.52443 0.99053 0.0
H3703 H 0.31622 0.55017 0.01198 0.0
H3704 H 0.33984 0.53211 0.00831 0.0
H3705 H 0.37396 0.54864 0.96886 0.0
H3706 H 0.44875 0.51501 0.96369 0.0
H3707 H 0.41896 0.51596 0.96421 0.0
C3708 C 0.18875 0.58703 0.75115 0.0
C3709 C 0.17377 0.58112 0.74522 0.0
C3710 C 0.19251 0.6037 0.74993 0.0
C3711 C 0.1793 0.64142 0.72833 0.0
H3712 H 0.2037 0.66318 0.76277 0.0
C3713 C 0.20981 0.70402 0.72105 0.0
C3714 C 0.21324 0.71334 0.7351 0.0
C3715 C 0.20131 0.68929 0.72232 0.0
C3716 C 0.19653 0.65738 0.75322 0.0
H3717 H 0.15076 0.58763 0.73401 0.0
H3718 H 0.15691 0.61667 0.73249 0.0
H3719 H 0.19765 0.63413 0.76504 0.0
H3720 H 0.20856 0.71583 0.76108 0.0
H3721 H 0.19301 0.69044 0.76318 0.0
H3722 H 0.17776 0.66473 0.71673 0.0
C3723 C 0.16611 0.60858 0.73742 0.0
C3724 C 0.19339 0.64062 0.75435 0.0
C3725 C 0.16253 0.59198 0.73835 0.0
C3726 C 0.20605 0.70892 0.75003 0.0
C3727 C 0.19744 0.69418 0.75129 0.0
C3728 C 0.18222 0.6582 0.72732 0.0
C3729 C 0.18118 0.61467 0.74308 0.0
C3730 C 0.1848 0.63243 0.74188 0.0
C3731 C 0.19594 0.68373 0.73765 0.0
C3732 C 0.191 0.66637 0.73966 0.0
H3733 H 0.19753 0.57875 0.75654 0.0
H3734 H 0.20431 0.60795 0.75424 0.0
H3735 H 0.17289 0.63548 0.71834 0.0
H3736 H 0.21517 0.70725 0.70938 0.0
H3737 H 0.20037 0.68162 0.71153 0.0
C3738 C 0.15297 0.41305 0.49695 0.0
C3739 C 0.16593 0.42152 0.50433 0.0
C3740 C 0.13701 0.41844 0.49899 0.0
C3741 C 0.11092 0.44555 0.52447 0.0
H3742 H 0.08217 0.44113 0.48703 0.0
C3743 C 0.05451 0.48212 0.50463 0.0
C3744 C 0.04299 0.47312 0.49562 0.0
C3745 C 0.06697 0.47398 0.51288 0.0
C3746 C 0.08993 0.44208 0.49774 0.0
H3747 H 0.17267 0.44236 0.51938 0.0
H3748 H 0.14466 0.4524 0.52231 0.0
H3749 H 0.11008 0.43201 0.48488 0.0
H3750 H 0.03352 0.44902 0.48998 0.0
H3751 H 0.05531 0.4347 0.50444 0.0
H3752 H 0.09065 0.45696 0.53675 0.0
C3753 C 0.14677 0.44128 0.51539 0.0
C3754 C 0.10597 0.43688 0.4965 0.0
C3755 C 0.16277 0.43568 0.51357 0.0
C3756 C 0.04244 0.45607 0.49685 0.0
C3757 C 0.05481 0.44793 0.50518 0.0
C3758 C 0.09479 0.45111 0.5256 0.0
C3759 C 0.1337 0.43263 0.50819 0.0
C3760 C 0.11667 0.43844 0.50983 0.0
C3761 C 0.06794 0.45686 0.51188 0.0
C3762 C 0.08418 0.44926 0.51224 0.0
H3763 H 0.15511 0.40189 0.49007 0.0
H3764 H 0.12724 0.41126 0.49357 0.0
H3765 H 0.11885 0.44683 0.535 0.0
H3766 H 0.05499 0.49535 0.50376 0.0
H3767 H 0.07695 0.4811 0.51799 0.0
C3768 C 0.83353 0.90483 0.74219 0.0
C3769 C 0.82509 0.91811 0.74895 0.0
C3770 C 0.82806 0.88891 0.74482 0.0
C3771 C 0.80024 0.86424 0.7712 0.0
H3772 H 0.80496 0.83293 0.7358 0.0
C3773 C 0.76065 0.80864 0.75443 0.0
C3774 C 0.7687 0.79547 0.74701 0.0
C3775 C 0.76971 0.82143 0.7613 0.0
C3776 C 0.80393 0.84141 0.74597 0.0
H3777 H 0.80414 0.92543 0.76334 0.0
H3778 H 0.79394 0.89756 0.76722 0.0
H3779 H 0.8153 0.86044 0.73242 0.0
H3780 H 0.79204 0.78396 0.74257 0.0
H3781 H 0.80799 0.80652 0.75434 0.0
H3782 H 0.7875 0.84519 0.78408 0.0
C3783 C 0.80514 0.89935 0.76041 0.0
C3784 C 0.80984 0.85724 0.74403 0.0
C3785 C 0.81082 0.9153 0.75803 0.0
C3786 C 0.7857 0.79411 0.74829 0.0
C3787 C 0.79477 0.80694 0.75503 0.0
C3788 C 0.79398 0.84839 0.773 0.0
C3789 C 0.81383 0.88594 0.754 0.0
C3790 C 0.80798 0.86892 0.75654 0.0
C3791 C 0.78684 0.8212 0.76043 0.0
C3792 C 0.79572 0.83691 0.76033 0.0
H3793 H 0.84475 0.90672 0.73541 0.0
H3794 H 0.83526 0.87893 0.73995 0.0
H3795 H 0.79884 0.87285 0.7812 0.0
H3796 H 0.7475 0.80979 0.75348 0.0
H3797 H 0.76335 0.83231 0.76538 0.0
C3798 C 0.66138 0.09227 0.51433 0.0
C3799 C 0.6731 0.08124 0.50846 0.0
C3800 C 0.64495 0.08791 0.51466 0.0
C3801 C 0.61497 0.0593 0.49696 0.0
H3802 H 0.58935 0.07165 0.53497 0.0
C3803 C 0.54711 0.04405 0.49991 0.0
C3804 C 0.5439 0.03387 0.51329 0.0
C3805 C 0.56131 0.05359 0.4997 0.0
C3806 C 0.59634 0.06828 0.52423 0.0
H3807 H 0.67703 0.05707 0.49826 0.0
H3808 H 0.64809 0.04915 0.49926 0.0
H3809 H 0.61826 0.07886 0.53379 0.0
H3810 H 0.55156 0.02691 0.53759 0.0
H3811 H 0.57599 0.04405 0.53755 0.0
H3812 H 0.59312 0.04813 0.48773 0.0
C3813 C 0.65163 0.06128 0.50335 0.0
C3814 C 0.61285 0.07241 0.52351 0.0
C3815 C 0.66814 0.06574 0.50286 0.0
C3816 C 0.55382 0.03483 0.52723 0.0
C3817 C 0.56781 0.04457 0.52715 0.0
C3818 C 0.59842 0.05519 0.49766 0.0
C3819 C 0.63988 0.07237 0.50927 0.0
C3820 C 0.62236 0.06789 0.50992 0.0
C3821 C 0.57217 0.05323 0.513 0.0
C3822 C 0.589 0.05956 0.51136 0.0
H3823 H 0.66489 0.10445 0.51834 0.0
H3824 H 0.63616 0.09684 0.51893 0.0
H3825 H 0.62195 0.05577 0.48627 0.0
H3826 H 0.53968 0.04327 0.48895 0.0
H3827 H 0.56436 0.06032 0.48873 0.0
C3828 C 0.17302 0.41261 0.76333 0.0
C3829 C 0.17759 0.42459 0.75199 0.0
C3830 C 0.18274 0.39894 0.7657 0.0
C3831 C 0.21242 0.37305 0.74551 0.0
H3832 H 0.21646 0.35508 0.78918 0.0
C3833 C 0.23781 0.30881 0.75655 0.0
C3834 C 0.22674 0.29886 0.76519 0.0
C3835 C 0.23596 0.32573 0.75646 0.0
C3836 C 0.21555 0.36005 0.77696 0.0
H3837 H 0.19575 0.43173 0.73407 0.0
H3838 H 0.21287 0.40753 0.73816 0.0
H3839 H 0.20558 0.38262 0.78559 0.0
H3840 H 0.20556 0.29885 0.78114 0.0
H3841 H 0.20228 0.3285 0.78089 0.0
H3842 H 0.22182 0.35023 0.73684 0.0
C3843 C 0.20174 0.40882 0.74521 0.0
C3844 C 0.20932 0.37573 0.77489 0.0
C3845 C 0.19195 0.42256 0.74282 0.0
C3846 C 0.21421 0.30619 0.7743 0.0
C3847 C 0.21243 0.32315 0.77429 0.0
C3848 C 0.21875 0.35739 0.74759 0.0
C3849 C 0.19726 0.39698 0.75679 0.0
C3850 C 0.20703 0.38205 0.75911 0.0
C3851 C 0.22311 0.33299 0.76511 0.0
C3852 C 0.21972 0.35055 0.76328 0.0
H3853 H 0.16183 0.41377 0.77032 0.0
H3854 H 0.17872 0.38974 0.77433 0.0
H3855 H 0.21072 0.37761 0.73321 0.0
H3856 H 0.24768 0.30355 0.74946 0.0
H3857 H 0.24435 0.33312 0.74936 0.0
C3858 C 0.31447 0.58018 0.23147 0.0
C3859 C 0.32615 0.57625 0.24342 0.0
C3860 C 0.30775 0.59588 0.23093 0.0
C3861 C 0.302 0.63229 0.257 0.0
H3862 H 0.29628 0.65586 0.21627 0.0
C3863 C 0.29274 0.69902 0.26004 0.0
C3864 C 0.27609 0.70217 0.25788 0.0
C3865 C 0.29969 0.68521 0.2529 0.0
C3866 C 0.29785 0.64932 0.22765 0.0
H3867 H 0.3403 0.58564 0.26384 0.0
H3868 H 0.3288 0.61295 0.26283 0.0
H3869 H 0.30595 0.62734 0.21573 0.0
H3870 H 0.25388 0.69459 0.24558 0.0
H3871 H 0.26607 0.67015 0.23317 0.0
H3872 H 0.29435 0.65422 0.26895 0.0
C3873 C 0.32446 0.60388 0.25413 0.0
C3874 C 0.30323 0.63305 0.22738 0.0
C3875 C 0.33105 0.58824 0.25473 0.0
C3876 C 0.26685 0.69247 0.2471 0.0
C3877 C 0.27379 0.67853 0.24002 0.0
C3878 C 0.29688 0.64845 0.25726 0.0
C3879 C 0.31268 0.60786 0.2423 0.0
C3880 C 0.30564 0.62452 0.24212 0.0
C3881 C 0.28996 0.67432 0.24378 0.0
C3882 C 0.29505 0.65716 0.24266 0.0
H3883 H 0.31048 0.57108 0.22264 0.0
H3884 H 0.29858 0.59857 0.22179 0.0
H3885 H 0.30328 0.62592 0.26852 0.0
H3886 H 0.29999 0.70639 0.2684 0.0
H3887 H 0.31218 0.68209 0.25596 0.0
C3888 C 0.51611 0.66907 0.55617 0.0
C3889 C 0.50306 0.67224 0.56692 0.0
C3890 C 0.51827 0.65343 0.54951 0.0
C3891 C 0.49607 0.61573 0.54023 0.0
H3892 H 0.53705 0.5928 0.54686 0.0
C3893 C 0.4953 0.54921 0.54354 0.0
C3894 C 0.49657 0.54373 0.52735 0.0
C3895 C 0.50298 0.56371 0.5483 0.0
C3896 C 0.52568 0.59921 0.54476 0.0
H3897 H 0.48202 0.66148 0.57902 0.0
H3898 H 0.48553 0.63446 0.56708 0.0
H3899 H 0.53502 0.62215 0.5538 0.0
H3900 H 0.50815 0.54776 0.50392 0.0
H3901 H 0.52125 0.57347 0.51215 0.0
H3902 H 0.48654 0.59284 0.53174 0.0
C3903 C 0.49405 0.64407 0.56377 0.0
C3904 C 0.52451 0.6159 0.54864 0.0
C3905 C 0.49199 0.65958 0.57053 0.0
C3906 C 0.50731 0.55165 0.51657 0.0
C3907 C 0.51479 0.56635 0.52125 0.0
C3908 C 0.49727 0.59923 0.5363 0.0
C3909 C 0.50727 0.64082 0.55333 0.0
C3910 C 0.50952 0.6241 0.54686 0.0
C3911 C 0.51166 0.57297 0.53677 0.0
C3912 C 0.51191 0.59079 0.53895 0.0
H3913 H 0.52471 0.67864 0.55296 0.0
H3914 H 0.52845 0.65121 0.54136 0.0
H3915 H 0.48445 0.62183 0.53858 0.0
H3916 H 0.48695 0.5433 0.55195 0.0
H3917 H 0.50033 0.56877 0.56028 0.0
C3918 C 0.58867 0.26503 0.82396 0.0
C3919 C 0.57381 0.26134 0.81618 0.0
C3920 C 0.60336 0.26168 0.8161 0.0
C3921 C 0.62685 0.25576 0.78123 0.0
H3922 H 0.64476 0.21716 0.80212 0.0
C3923 C 0.68975 0.23172 0.7633 0.0
C3924 C 0.70007 0.2291 0.77675 0.0
C3925 C 0.67294 0.23305 0.76553 0.0
C3926 C 0.63991 0.22791 0.79615 0.0
H3927 H 0.56247 0.25295 0.79367 0.0
H3928 H 0.58842 0.24727 0.77981 0.0
H3929 H 0.61816 0.22759 0.81066 0.0
H3930 H 0.70093 0.22477 0.80289 0.0
H3931 H 0.67171 0.22755 0.80689 0.0
H3932 H 0.64895 0.25679 0.7674 0.0
C3933 C 0.58856 0.25258 0.79198 0.0
C3934 C 0.62475 0.23381 0.801 0.0
C3935 C 0.57383 0.25579 0.79988 0.0
C3936 C 0.69326 0.2268 0.7923 0.0
C3937 C 0.67648 0.22829 0.79456 0.0
C3938 C 0.64215 0.24998 0.77649 0.0
C3939 C 0.6033 0.25486 0.80036 0.0
C3940 C 0.61838 0.24795 0.79383 0.0
C3941 C 0.66623 0.23191 0.78127 0.0
C3942 C 0.649 0.23626 0.78423 0.0
H3943 H 0.58894 0.26916 0.83657 0.0
H3944 H 0.61475 0.26346 0.82267 0.0
H3945 H 0.62197 0.26669 0.77561 0.0
H3946 H 0.6947 0.23325 0.75111 0.0
H3947 H 0.66527 0.23551 0.75504 0.0
C3948 C 0.00218 0.34378 0.0758 0.0
C3949 C -0.0034 0.33056 0.06631 0.0
C3950 C 9e-05 0.35975 0.07044 0.0
C3951 C 0.97676 0.38567 0.04174 0.0
H3952 H 0.01236 0.41576 0.05101 0.0
C3953 C 0.99399 0.44891 0.0136 0.0
C3954 C 0.00097 0.45994 0.02483 0.0
C3955 C 0.98722 0.4342 0.01909 0.0
C3956 C 0.00218 0.40756 0.04859 0.0
H3957 H 0.98445 0.3236 0.04376 0.0
H3958 H 0.98122 0.35176 0.03404 0.0
H3959 H 0.01504 0.38726 0.05837 0.0
H3960 H 0.00452 0.46564 0.0504 0.0
H3961 H 0.99241 0.44009 0.06007 0.0
H3962 H 0.96439 0.40627 0.03107 0.0
C3963 C 0.98693 0.34971 0.0458 0.0
C3964 C 0.00372 0.39121 0.05278 0.0
C3965 C 0.98888 0.33362 0.05128 0.0
C3966 C -0.00092 0.45729 0.0416 0.0
C3967 C 0.9922 0.44269 0.04709 0.0
C3968 C 0.97533 0.40215 0.03725 0.0
C3969 C 0.99255 0.36294 0.05535 0.0
C3970 C 0.99095 0.38009 0.04971 0.0
C3971 C 0.98754 0.4305 0.03582 0.0
C3972 C 0.98795 0.41324 0.04097 0.0
H3973 H 0.00779 0.3418 0.08762 0.0
H3974 H 0.0042 0.36964 0.07831 0.0
H3975 H 0.9667 0.37738 0.03922 0.0
H3976 H 0.99552 0.45075 0.00057 0.0
H3977 H 0.98371 0.42497 0.01019 0.0
C3978 C 0.91151 0.73698 0.33828 0.0
C3979 C 0.92374 0.7388 0.32644 0.0
C3980 C 0.8952 0.73935 0.33418 0.0
C3981 C 0.8706 0.76012 0.30256 0.0
H3982 H 0.8346 0.74002 0.3259 0.0
C3983 C 0.80706 0.77644 0.28316 0.0
C3984 C 0.79671 0.7629 0.28131 0.0
C3985 C 0.82059 0.77547 0.29345 0.0
C3986 C 0.84447 0.74571 0.31916 0.0
H3987 H 0.92876 0.7433 0.30089 0.0
H3988 H 0.90006 0.74636 0.29332 0.0
H3989 H 0.8623 0.73134 0.3315 0.0
H3990 H 0.79107 0.73845 0.28968 0.0
H3991 H 0.81512 0.73618 0.30664 0.0
H3992 H 0.85292 0.77334 0.2891 0.0
C3993 C 0.90304 0.74388 0.30597 0.0
C3994 C 0.86044 0.74085 0.32253 0.0
C3995 C 0.91943 0.74192 0.31019 0.0
C3996 C 0.79893 0.74908 0.2911 0.0
C3997 C 0.8128 0.74782 0.30086 0.0
C3998 C 0.85466 0.7646 0.29884 0.0
C3999 C 0.89078 0.74329 0.31807 0.0
C4000 C 0.87371 0.74795 0.3142 0.0
C4001 C 0.8244 0.76061 0.30125 0.0
C4002 C 0.84132 0.75741 0.307 0.0
H4003 H 0.91465 0.7348 0.35096 0.0
H4004 H 0.88623 0.739 0.34389 0.0
H4005 H 0.88046 0.76625 0.2962 0.0
H4006 H 0.80539 0.78725 0.27572 0.0
H4007 H 0.82879 0.78588 0.29412 0.0
C4008 C 0.51134 0.33246 0.93038 0.0
C4009 C 0.49718 0.32606 0.92293 0.0
C4010 C 0.5124 0.34908 0.93421 0.0
C4011 C 0.49315 0.38817 0.92223 0.0
H4012 H 0.51453 0.40527 0.96102 0.0
C4013 C 0.4796 0.44413 0.96255 0.0
C4014 C 0.49296 0.45423 0.96628 0.0
C4015 C 0.48156 0.43105 0.95177 0.0
C4016 C 0.50887 0.40061 0.94994 0.0
H4017 H 0.47252 0.33185 0.91502 0.0
H4018 H 0.47399 0.36041 0.92274 0.0
H4019 H 0.51478 0.37588 0.95573 0.0
H4020 H 0.51835 0.45965 0.96102 0.0
H4021 H 0.5219 0.43631 0.94257 0.0
H4022 H 0.48609 0.41293 0.91734 0.0
C4023 C 0.48458 0.3528 0.92484 0.0
C4024 C 0.50896 0.38383 0.94693 0.0
C4025 C 0.48361 0.33629 0.92077 0.0
C4026 C 0.5078 0.45218 0.95795 0.0
C4027 C 0.50989 0.43884 0.94751 0.0
C4028 C 0.49278 0.40492 0.92544 0.0
C4029 C 0.49922 0.35951 0.9309 0.0
C4030 C 0.50068 0.37739 0.9333 0.0
C4031 C 0.49699 0.42779 0.94508 0.0
C4032 C 0.50036 0.41113 0.93947 0.0
H4033 H 0.52187 0.32478 0.93258 0.0
H4034 H 0.5238 0.35384 0.93905 0.0
H4035 H 0.4871 0.38361 0.91134 0.0
H4036 H 0.46816 0.44545 0.96908 0.0
H4037 H 0.47155 0.42246 0.95014 0.0
C4038 C 0.92355 0.25515 0.18698 0.0
C4039 C 0.92296 0.26066 0.17077 0.0
C4040 C 0.90955 0.25542 0.1967 0.0
C4041 C 0.86624 0.26986 0.19828 0.0
H4042 H 0.86002 0.22951 0.22228 0.0
C4043 C 0.80524 0.25313 0.23067 0.0
C4044 C 0.80019 0.23678 0.22858 0.0
C4045 C 0.82091 0.25804 0.22584 0.0
C4046 C 0.86154 0.24084 0.21562 0.0
H4047 H 0.90759 0.2714 0.15216 0.0
H4048 H 0.88295 0.27134 0.16887 0.0
H4049 H 0.88625 0.23519 0.20982 0.0
H4050 H 0.8074 0.21288 0.21949 0.0
H4051 H 0.83436 0.22146 0.21077 0.0
H4052 H 0.84106 0.27489 0.20325 0.0
C4053 C 0.89426 0.26719 0.1743 0.0
C4054 C 0.8767 0.24425 0.20868 0.0
C4055 C 0.90834 0.26715 0.16467 0.0
C4056 C 0.81097 0.22553 0.22142 0.0
C4057 C 0.82651 0.23042 0.21653 0.0
C4058 C 0.85097 0.26636 0.20513 0.0
C4059 C 0.8946 0.26094 0.19031 0.0
C4060 C 0.87915 0.25861 0.19957 0.0
C4061 C 0.83174 0.24668 0.21881 0.0
C4062 C 0.84836 0.25158 0.21346 0.0
H4063 H 0.93479 0.25034 0.19203 0.0
H4064 H 0.91035 0.25087 0.2091 0.0
H4065 H 0.86779 0.28117 0.19159 0.0
H4066 H 0.7972 0.26207 0.23621 0.0
H4067 H 0.82462 0.27064 0.22781 0.0
C4068 C 0.01333 0.6634 0.42655 0.0
C4069 C 0.00138 0.67539 0.42906 0.0
C4070 C 0.01283 0.64897 0.43539 0.0
C4071 C 0.0044 0.62844 0.47105 0.0
H4072 H -0.00198 0.59065 0.44279 0.0
C4073 C 0.00687 0.55867 0.48809 0.0
C4074 C 0.0163 0.54945 0.47699 0.0
C4075 C 0.00432 0.57531 0.48547 0.0
C4076 C -0.00028 0.60111 0.45082 0.0
H4077 H 0.97981 0.68208 0.44292 0.0
H4078 H 0.97903 0.65642 0.45864 0.0
H4079 H 0.99286 0.61801 0.43224 0.0
H4080 H 0.03199 0.55078 0.45563 0.0
H4081 H 0.02749 0.57983 0.45111 0.0
H4082 H 0.01205 0.61138 0.48943 0.0
C4083 C 0.9887 0.65841 0.44981 0.0
C4084 C -0.00338 0.61664 0.44487 0.0
C4085 C 0.9891 0.6729 0.44081 0.0
C4086 C 0.0244 0.55746 0.46419 0.0
C4087 C 0.02183 0.57405 0.46159 0.0
C4088 C 0.00749 0.61277 0.47709 0.0
C4089 C 0.00045 0.64635 0.4469 0.0
C4090 C -0.00046 0.63037 0.45474 0.0
C4091 C 0.01118 0.58284 0.47176 0.0
C4092 C 0.00582 0.59914 0.46671 0.0
H4093 H 0.02276 0.66496 0.4174 0.0
H4094 H 0.02194 0.63966 0.433 0.0
H4095 H 0.00681 0.63903 0.47872 0.0
H4096 H 0.00065 0.55287 0.49823 0.0
H4097 H -0.00385 0.58199 0.49348 0.0
C4098 C 0.5846 0.73875 0.67109 0.0
C4099 C 0.5713 0.74897 0.67456 0.0
C4100 C 0.59799 0.73824 0.68159 0.0
C4101 C 0.61952 0.76306 0.71232 0.0
H4102 H 0.64505 0.72337 0.71629 0.0
C4103 C 0.68485 0.75864 0.74144 0.0
C4104 C 0.69581 0.75497 0.72874 0.0
C4105 C 0.668 0.75682 0.73893 0.0
C4106 C 0.63787 0.73446 0.71554 0.0
H4107 H 0.56133 0.76631 0.69202 0.0
H4108 H 0.58479 0.76536 0.7105 0.0
H4109 H 0.61769 0.72202 0.70442 0.0
H4110 H 0.69812 0.746 0.70389 0.0
H4111 H 0.66881 0.74224 0.69976 0.0
H4112 H 0.64006 0.77548 0.72307 0.0
C4113 C 0.58493 0.75791 0.69952 0.0
C4114 C 0.62232 0.73375 0.70861 0.0
C4115 C 0.57153 0.75847 0.68894 0.0
C4116 C 0.68984 0.74898 0.7138 0.0
C4117 C 0.67315 0.74674 0.71148 0.0
C4118 C 0.63502 0.76372 0.71947 0.0
C4119 C 0.59837 0.74787 0.69589 0.0
C4120 C 0.61328 0.74815 0.70623 0.0
C4121 C 0.66211 0.7508 0.72393 0.0
C4122 C 0.64452 0.74952 0.7205 0.0
H4123 H 0.58488 0.73149 0.65997 0.0
H4124 H 0.6083 0.73067 0.67819 0.0
H4125 H 0.61294 0.7744 0.71059 0.0
H4126 H 0.68928 0.76335 0.75303 0.0
H4127 H 0.65959 0.76012 0.74862 0.0
C4128 C 0.58282 0.50814 0.66273 0.0
C4129 C 0.57665 0.49947 0.67615 0.0
C4130 C 0.57433 0.50827 0.64796 0.0
C4131 C 0.544 0.4841 0.6248 0.0
H4132 H 0.54743 0.52076 0.595 0.0
C4133 C 0.51635 0.48661 0.55902 0.0
C4134 C 0.52843 0.48936 0.54713 0.0
C4135 C 0.52009 0.48832 0.57561 0.0
C4136 C 0.54632 0.5105 0.60328 0.0
H4137 H 0.55646 0.48473 0.68498 0.0
H4138 H 0.54135 0.48524 0.6592 0.0
H4139 H 0.55693 0.52386 0.62314 0.0
H4140 H 0.55375 0.49621 0.54311 0.0
H4141 H 0.56013 0.49957 0.57213 0.0
H4142 H 0.53329 0.47085 0.60476 0.0
C4143 C 0.55295 0.49161 0.65996 0.0
C4144 C 0.55183 0.5122 0.61933 0.0
C4145 C 0.56156 0.49134 0.67472 0.0
C4146 C 0.54428 0.49381 0.55206 0.0
C4147 C 0.54788 0.49589 0.56858 0.0
C4148 C 0.53824 0.48251 0.6088 0.0
C4149 C 0.55938 0.49987 0.64633 0.0
C4150 C 0.55123 0.49886 0.63013 0.0
C4151 C 0.53581 0.49323 0.58045 0.0
C4152 C 0.53982 0.49554 0.59784 0.0
H4153 H 0.59453 0.51433 0.66345 0.0
H4154 H 0.57985 0.51446 0.63766 0.0
H4155 H 0.54351 0.47351 0.6327 0.0
H4156 H 0.50404 0.4832 0.55548 0.0
H4157 H 0.51064 0.48618 0.58464 0.0
C4158 C 0.76719 0.3287 0.91062 0.0
C4159 C 0.75384 0.32592 0.92103 0.0
C4160 C 0.76633 0.32425 0.89424 0.0
C4161 C 0.74349 0.29948 0.86432 0.0
H4162 H 0.76423 0.32951 0.83392 0.0
C4163 C 0.74457 0.287 0.7962 0.0
C4164 C 0.75928 0.27835 0.79465 0.0
C4165 C 0.74247 0.2979 0.80916 0.0
C4166 C 0.75813 0.32126 0.84229 0.0
H4167 H 0.72966 0.31505 0.92277 0.0
H4168 H 0.72793 0.30777 0.89389 0.0
H4169 H 0.76277 0.33662 0.86297 0.0
H4170 H 0.78387 0.27545 0.80386 0.0
H4171 H 0.7804 0.29509 0.82624 0.0
H4172 H 0.739 0.28412 0.84353 0.0
C4173 C 0.73906 0.3134 0.89844 0.0
C4174 C 0.7575 0.32513 0.85888 0.0
C4175 C 0.74 0.31766 0.91494 0.0
C4176 C 0.77252 0.28217 0.80483 0.0
C4177 C 0.77054 0.29337 0.81754 0.0
C4178 C 0.74385 0.29578 0.8477 0.0
C4179 C 0.75203 0.31716 0.88784 0.0
C4180 C 0.75074 0.31398 0.87012 0.0
C4181 C 0.75521 0.30044 0.82032 0.0
C4182 C 0.75159 0.30644 0.83674 0.0
H4183 H 0.778 0.33512 0.91486 0.0
H4184 H 0.77676 0.32678 0.88648 0.0
H4185 H 0.7383 0.2906 0.87265 0.0
H4186 H 0.7341 0.28389 0.78868 0.0
H4187 H 0.73051 0.30311 0.81136 0.0
C4188 C 0.93506 0.48742 0.16225 0.0
C4189 C 0.93857 0.49821 0.17518 0.0
C4190 C 0.94422 0.48798 0.14796 0.0
C4191 C 0.9654 0.51885 0.12453 0.0
H4192 H 0.96951 0.48285 0.09375 0.0
C4193 C 0.98219 0.5238 0.0554 0.0
C4194 C 0.97015 0.5167 0.04538 0.0
C4195 C 0.98144 0.52191 0.0723 0.0
C4196 C 0.96853 0.49296 0.10231 0.0
H4197 H 0.95534 0.51683 0.18409 0.0
H4198 H 0.97142 0.51785 0.15895 0.0
H4199 H 0.96539 0.47706 0.12275 0.0
H4200 H 0.94787 0.50234 0.04474 0.0
H4201 H 0.94672 0.4987 0.07447 0.0
H4202 H 0.96823 0.53469 0.10391 0.0
C4203 C 0.96141 0.50918 0.15979 0.0
C4204 C 0.96622 0.48969 0.11883 0.0
C4205 C 0.9522 0.50864 0.17411 0.0
C4206 C 0.95709 0.50812 0.05237 0.0
C4207 C 0.95656 0.50588 0.06923 0.0
C4208 C 0.96796 0.52211 0.10802 0.0
C4209 C 0.95706 0.49934 0.14634 0.0
C4210 C 0.96387 0.5026 0.12997 0.0
C4211 C 0.96891 0.5125 0.07921 0.0
C4212 C 0.96884 0.50917 0.09679 0.0
H4213 H 0.92455 0.47933 0.16271 0.0
H4214 H 0.94039 0.48038 0.13776 0.0
H4215 H 0.96345 0.52907 0.13276 0.0
H4216 H 0.99242 0.53035 0.0501 0.0
H4217 H 0.99099 0.52716 0.07988 0.0
C4218 C 0.74364 0.66764 0.40648 0.0
C4219 C 0.75108 0.67606 0.41947 0.0
C4220 C 0.74611 0.67274 0.39046 0.0
C4221 C 0.77371 0.69826 0.3649 0.0
H4222 H 0.7379 0.69436 0.33411 0.0
C4223 C 0.75816 0.73546 0.30786 0.0
C4224 C 0.74963 0.72693 0.29564 0.0
C4225 C 0.76539 0.72688 0.32065 0.0
C4226 C 0.74817 0.69513 0.34246 0.0
H4227 H 0.76635 0.69676 0.42615 0.0
H4228 H 0.77008 0.70623 0.3981 0.0
H4229 H 0.73394 0.68568 0.36204 0.0
H4230 H 0.7439 0.70312 0.28546 0.0
H4231 H 0.75644 0.68804 0.30792 0.0
H4232 H 0.7874 0.70907 0.34523 0.0
C4233 C 0.76282 0.69533 0.40021 0.0
C4234 C 0.74588 0.69021 0.35852 0.0
C4235 C 0.76054 0.69005 0.41626 0.0
C4236 C 0.75047 0.70984 0.29487 0.0
C4237 C 0.75765 0.70125 0.30766 0.0
C4238 C 0.77589 0.70354 0.34879 0.0
C4239 C 0.75585 0.68655 0.3871 0.0
C4240 C 0.75858 0.69173 0.36997 0.0
C4241 C 0.76379 0.70979 0.32132 0.0
C4242 C 0.7631 0.70198 0.33748 0.0
H4243 H 0.73654 0.65663 0.40863 0.0
H4244 H 0.74075 0.66552 0.38068 0.0
H4245 H 0.78383 0.69941 0.37338 0.0
H4246 H 0.75756 0.7487 0.30855 0.0
H4247 H 0.7701 0.73371 0.33103 0.0
C4248 C 0.58748 0.48027 0.84287 0.0
C4249 C 0.58006 0.48812 0.82954 0.0
C4250 C 0.57931 0.47897 0.8578 0.0
C4251 C 0.54928 0.50189 0.88099 0.0
H4252 H 0.55345 0.46687 0.91265 0.0
C4253 C 0.54286 0.51601 0.94743 0.0
C4254 C 0.5289 0.50907 0.95452 0.0
C4255 C 0.54941 0.5093 0.93324 0.0
C4256 C 0.55213 0.47663 0.90384 0.0
H4257 H 0.55783 0.49962 0.82099 0.0
H4258 H 0.54355 0.49738 0.84709 0.0
H4259 H 0.56254 0.46249 0.88426 0.0
H4260 H 0.51147 0.48914 0.95325 0.0
H4261 H 0.52309 0.47719 0.92818 0.0
H4262 H 0.53937 0.51617 0.90049 0.0
C4263 C 0.55579 0.49248 0.84607 0.0
C4264 C 0.55734 0.47419 0.88768 0.0
C4265 C 0.56398 0.49383 0.83116 0.0
C4266 C 0.52246 0.49443 0.94813 0.0
C4267 C 0.52902 0.48769 0.93378 0.0
C4268 C 0.54426 0.50434 0.89703 0.0
C4269 C 0.56356 0.48549 0.85968 0.0
C4270 C 0.55621 0.48693 0.87618 0.0
C4271 C 0.542 0.49564 0.92583 0.0
C4272 C 0.54599 0.4919 0.90866 0.0
H4273 H 0.5999 0.47584 0.84201 0.0
H4274 H 0.5857 0.47371 0.8681 0.0
H4275 H 0.54843 0.51202 0.87254 0.0
H4276 H 0.54798 0.52733 0.95219 0.0
H4277 H 0.55952 0.51552 0.92734 0.0
C4278 C 0.76313 0.30767 0.07501 0.0
C4279 C 0.75169 0.32023 0.07263 0.0
C4280 C 0.76332 0.29902 0.08971 0.0
C4281 C 0.75563 0.30535 0.1318 0.0
H4282 H 0.73962 0.26089 0.13719 0.0
C4283 C 0.72682 0.28679 0.19071 0.0
C4284 C 0.73489 0.27416 0.19894 0.0
C4285 C 0.72949 0.28911 0.17411 0.0
C4286 C 0.74433 0.27322 0.13576 0.0
H4287 H 0.73165 0.33375 0.08348 0.0
H4288 H 0.73206 0.31874 0.10908 0.0
H4289 H 0.74545 0.27135 0.10956 0.0
H4290 H 0.75057 0.25288 0.19595 0.0
H4291 H 0.75529 0.25718 0.16682 0.0
H4292 H 0.75378 0.30766 0.15771 0.0
C4293 C 0.7407 0.31548 0.09958 0.0
C4294 C 0.74776 0.2791 0.12011 0.0
C4295 C 0.74041 0.32396 0.08496 0.0
C4296 C 0.74439 0.26292 0.18997 0.0
C4297 C 0.74705 0.26527 0.17332 0.0
C4298 C 0.75217 0.29955 0.1473 0.0
C4299 C 0.75223 0.30312 0.10208 0.0
C4300 C 0.75281 0.29539 0.11811 0.0
C4301 C 0.74023 0.27883 0.16554 0.0
C4302 C 0.74585 0.28371 0.1493 0.0
H4303 H 0.77191 0.30463 0.06558 0.0
H4304 H 0.7723 0.2895 0.09159 0.0
H4305 H 0.75957 0.31795 0.13039 0.0
H4306 H 0.71917 0.29543 0.19721 0.0
H4307 H 0.72389 0.29949 0.16813 0.0
C4308 C 0.91122 0.51365 0.33817 0.0
C4309 C 0.92292 0.5113 0.3259 0.0
C4310 C 0.91545 0.51171 0.35451 0.0
C4311 C 0.94683 0.49102 0.3793 0.0
H4312 H 0.92473 0.51294 0.41507 0.0
C4313 C 0.96647 0.47579 0.44293 0.0
C4314 C 0.96939 0.48961 0.45267 0.0
C4315 C 0.95592 0.47681 0.42962 0.0
C4316 C 0.93108 0.50673 0.40525 0.0
H4317 H 0.94835 0.50633 0.32075 0.0
H4318 H 0.95615 0.504 0.34948 0.0
H4319 H 0.91883 0.52086 0.38714 0.0
H4320 H 0.96262 0.51471 0.45756 0.0
H4321 H 0.94512 0.51699 0.43379 0.0
H4322 H 0.96015 0.47793 0.3972 0.0
C4323 C 0.94352 0.50658 0.34654 0.0
C4324 C 0.92757 0.51117 0.38918 0.0
C4325 C 0.93917 0.50811 0.33014 0.0
C4326 C 0.96039 0.5039 0.45014 0.0
C4327 C 0.95032 0.50514 0.43647 0.0
C4328 C 0.95065 0.48691 0.39531 0.0
C4329 C 0.93154 0.50769 0.35888 0.0
C4330 C 0.9355 0.50343 0.37602 0.0
C4331 C 0.94888 0.49193 0.42543 0.0
C4332 C 0.94293 0.49477 0.40854 0.0
H4333 H 0.89856 0.51593 0.33506 0.0
H4334 H 0.90585 0.51247 0.36358 0.0
H4335 H 0.95286 0.48443 0.36952 0.0
H4336 H 0.9733 0.46462 0.44486 0.0
H4337 H 0.95447 0.46616 0.42183 0.0
C4338 C 0.74017 0.68162 0.58543 0.0
C4339 C 0.75351 0.67279 0.57918 0.0
C4340 C 0.73921 0.68521 0.60211 0.0
C4341 C 0.75645 0.67219 0.64199 0.0
H4342 H 0.7428 0.71521 0.65657 0.0
C4343 C 0.7729 0.71645 0.69648 0.0
C4344 C 0.75989 0.7182 0.70746 0.0
C4345 C 0.77131 0.70607 0.68301 0.0
C4346 C 0.74637 0.70306 0.6526 0.0
H4347 H 0.77642 0.66108 0.58555 0.0
H4348 H 0.77518 0.66812 0.61427 0.0
H4349 H 0.74102 0.70817 0.6276 0.0
H4350 H 0.73561 0.70976 0.71391 0.0
H4351 H 0.73276 0.69175 0.69008 0.0
H4352 H 0.76279 0.66765 0.66705 0.0
C4353 C 0.7652 0.67182 0.60643 0.0
C4354 C 0.74532 0.69901 0.63608 0.0
C4355 C 0.76608 0.6681 0.58985 0.0
C4356 C 0.74597 0.70821 0.70581 0.0
C4357 C 0.74426 0.69804 0.69216 0.0
C4358 C 0.75767 0.67634 0.65851 0.0
C4359 C 0.75162 0.68012 0.61281 0.0
C4360 C 0.75077 0.68368 0.63054 0.0
C4361 C 0.75661 0.69761 0.68034 0.0
C4362 C 0.75294 0.6919 0.66377 0.0
H4363 H 0.73037 0.68557 0.57748 0.0
H4364 H 0.7286 0.69167 0.60665 0.0
H4365 H 0.7604 0.66014 0.63811 0.0
H4366 H 0.7836 0.72425 0.69745 0.0
H4367 H 0.78086 0.70594 0.67384 0.0
C4368 C 0.66105 0.58986 0.49379 0.0
C4369 C 0.67315 0.58213 0.50311 0.0
C4370 C 0.6449 0.5845 0.49447 0.0
C4371 C 0.62027 0.54833 0.50369 0.0
H4372 H 0.58428 0.57918 0.50301 0.0
C4373 C 0.55413 0.52711 0.50753 0.0
C4374 C 0.54531 0.53066 0.49329 0.0
C4375 C 0.56867 0.53529 0.51091 0.0
C4376 C 0.59426 0.57051 0.50319 0.0
H4377 H 0.67797 0.56289 0.52057 0.0
H4378 H 0.64957 0.55338 0.52175 0.0
H4379 H 0.61243 0.58932 0.50527 0.0
H4380 H 0.54385 0.54606 0.47192 0.0
H4381 H 0.56923 0.56116 0.47828 0.0
H4382 H 0.60208 0.52954 0.50164 0.0
C4383 C 0.65263 0.56356 0.51387 0.0
C4384 C 0.61031 0.57624 0.50444 0.0
C4385 C 0.66882 0.56901 0.51327 0.0
C4386 C 0.55047 0.54335 0.48304 0.0
C4387 C 0.56491 0.55188 0.48666 0.0
C4388 C 0.60425 0.54261 0.50261 0.0
C4389 C 0.64052 0.57127 0.50445 0.0
C4390 C 0.62347 0.56521 0.50448 0.0
C4391 C 0.57441 0.54737 0.50024 0.0
C4392 C 0.59116 0.55366 0.50221 0.0
H4393 H 0.66407 0.60017 0.48605 0.0
H4394 H 0.63589 0.59055 0.48692 0.0
H4395 H 0.63016 0.53955 0.5034 0.0
H4396 H 0.5504 0.51715 0.51543 0.0
H4397 H 0.57583 0.53165 0.52143 0.0
C4398 C 0.16512 0.924 0.50986 0.0
C4399 C 0.17713 0.9263 0.49786 0.0
C4400 C 0.15243 0.93508 0.51152 0.0
C4401 C 0.12765 0.96372 0.4897 0.0
H4402 H 0.11416 0.97537 0.53373 0.0
C4403 C 0.06426 0.98994 0.50272 0.0
C4404 C 0.05566 0.97949 0.51334 0.0
C4405 C 0.08122 0.98903 0.5016 0.0
C4406 C 0.11793 0.97245 0.52136 0.0
H4407 H 0.18503 0.94165 0.47775 0.0
H4408 H 0.16231 0.96101 0.48042 0.0
H4409 H 0.1408 0.96275 0.52929 0.0
H4410 H 0.05807 0.96076 0.53189 0.0
H4411 H 0.08769 0.95918 0.52992 0.0
H4412 H 0.10435 0.9725 0.48189 0.0
C4413 C 0.16301 0.95069 0.48867 0.0
C4414 C 0.13309 0.96523 0.51882 0.0
C4415 C 0.17586 0.93959 0.48708 0.0
C4416 C 0.06437 0.96884 0.5235 0.0
C4417 C 0.08132 0.96807 0.52251 0.0
C4418 C 0.11248 0.97101 0.49223 0.0
C4419 C 0.15141 0.94866 0.50113 0.0
C4420 C 0.13765 0.96003 0.50309 0.0
C4421 C 0.08982 0.97785 0.51124 0.0
C4422 C 0.10721 0.97463 0.50819 0.0
H4423 H 0.16559 0.91363 0.51807 0.0
H4424 H 0.1433 0.93295 0.52087 0.0
H4425 H 0.13093 0.95978 0.47747 0.0
H4426 H 0.05787 -0.00166 0.49478 0.0
H4427 H 0.08757 -0.00333 0.49285 0.0
C4428 C 0.34142 0.912 0.73309 0.0
C4429 C 0.33052 0.92383 0.73897 0.0
C4430 C 0.33757 0.89544 0.73418 0.0
C4431 C 0.31123 0.86821 0.75858 0.0
H4432 H 0.32857 0.83491 0.72955 0.0
C4433 C 0.29653 0.80318 0.77311 0.0
C4434 C 0.29031 0.79458 0.75964 0.0
C4435 C 0.30674 0.81665 0.77069 0.0
C4436 C 0.3236 0.84403 0.73778 0.0
H4437 H 0.3066 0.92799 0.7494 0.0
H4438 H 0.29933 0.89897 0.7505 0.0
H4439 H 0.33217 0.86362 0.72282 0.0
H4440 H 0.29126 0.79172 0.73335 0.0
H4441 H 0.3082 0.81557 0.72895 0.0
H4442 H 0.30148 0.84888 0.77284 0.0
C4443 C 0.31118 0.90239 0.74569 0.0
C4444 C 0.32578 0.86054 0.73398 0.0
C4445 C 0.31521 0.91898 0.74493 0.0
C4446 C 0.29609 0.79814 0.74393 0.0
C4447 C 0.30581 0.81195 0.74143 0.0
C4448 C 0.30872 0.85178 0.76216 0.0
C4449 C 0.3226 0.89041 0.74095 0.0
C4450 C 0.3196 0.87283 0.74435 0.0
C4451 C 0.31012 0.82209 0.75472 0.0
C4452 C 0.31484 0.83942 0.75182 0.0
H4453 H 0.35339 0.9155 0.72862 0.0
H4454 H 0.34676 0.88665 0.73059 0.0
H4455 H 0.30662 0.87727 0.76709 0.0
H4456 H 0.29223 0.8005 0.78534 0.0
H4457 H 0.31055 0.82372 0.78126 0.0
C4458 C 0.3264 0.05653 0.99476 0.0
C4459 C 0.3266 0.0727 0.98907 0.0
C4460 C 0.34069 0.04728 0.99475 0.0
C4461 C 0.38409 0.04698 0.98071 0.0
H4462 H 0.39082 0.02448 0.02178 0.0
C4463 C 0.44595 0.01759 -0.00124 0.0
C4464 C 0.45079 0.0205 0.01501 0.0
C4465 C 0.43018 0.02163 0.99363 0.0
C4466 C 0.38914 0.03072 0.01025 0.0
H4467 H 0.34153 0.09175 0.97831 0.0
H4468 H 0.36665 0.07586 0.97878 0.0
H4469 H 0.36416 0.03566 0.01557 0.0
H4470 H 0.44314 0.03029 0.03849 0.0
H4471 H 0.41595 0.03766 0.0295 0.0
H4472 H 0.40948 0.04292 0.97599 0.0
C4473 C 0.35544 0.07009 0.98287 0.0
C4474 C 0.37376 0.03691 0.00655 0.0
C4475 C 0.3411 0.07925 0.98267 0.0
C4476 C 0.43973 0.02775 0.02593 0.0
C4477 C 0.42408 0.03185 0.02081 0.0
C4478 C 0.39955 0.04088 0.98449 0.0
C4479 C 0.35549 0.05415 0.98929 0.0
C4480 C 0.37115 0.04549 0.99193 0.0
C4481 C 0.41905 0.02868 0.00467 0.0
C4482 C 0.40232 0.03313 -0.00047 0.0
H4483 H 0.31526 0.05116 -0.00047 0.0
H4484 H 0.34023 0.03492 -0.00054 0.0
H4485 H 0.3824 0.05329 0.96922 0.0
H4486 H 0.45422 0.01195 0.99009 0.0
H4487 H 0.42662 0.019 0.98113 0.0
C4488 C 0.67405 0.58952 0.73171 0.0
C4489 C 0.68179 0.57578 0.73845 0.0
C4490 C 0.68226 0.60452 0.73082 0.0
C4491 C 0.71372 0.62608 0.75383 0.0
H4492 H 0.7059 0.66093 0.72271 0.0
C4493 C 0.71752 0.69161 0.77415 0.0
C4494 C 0.72857 0.7017 0.7658 0.0
C4495 C 0.71243 0.67686 0.7673 0.0
C4496 C 0.70832 0.65123 0.73136 0.0
H4497 H 0.70461 0.56654 0.74811 0.0
H4498 H 0.719 0.59269 0.74643 0.0
H4499 H 0.69751 0.63274 0.71601 0.0
H4500 H 0.7423 0.70487 0.74344 0.0
H4501 H 0.73325 0.67876 0.73124 0.0
H4502 H 0.72406 0.64447 0.76934 0.0
C4503 C 0.70648 0.59199 0.7422 0.0
C4504 C 0.70347 0.63517 0.7276 0.0
C4505 C 0.69824 0.57703 0.7432 0.0
C4506 C 0.73358 0.69736 0.74995 0.0
C4507 C 0.7285 0.68243 0.74305 0.0
C4508 C 0.71844 0.64202 0.75757 0.0
C4509 C 0.69838 0.60604 0.73659 0.0
C4510 C 0.70576 0.6225 0.73901 0.0
C4511 C 0.71842 0.67181 0.75202 0.0
C4512 C 0.71533 0.65481 0.74663 0.0
H4513 H 0.66136 0.58893 0.728 0.0
H4514 H 0.6756 0.61512 0.72659 0.0
H4515 H 0.71551 0.61673 0.763 0.0
H4516 H 0.71335 0.6948 0.78633 0.0
H4517 H 0.70438 0.66899 0.7743 0.0
C4518 C 0.84182 0.41217 0.01436 0.0
C4519 C 0.82973 0.42366 0.01055 0.0
C4520 C 0.85826 0.41613 0.01253 0.0
C4521 C 0.88381 0.44495 0.98913 0.0
H4522 H 0.91898 0.42528 0.01388 0.0
C4523 C 0.94762 0.46265 0.97251 0.0
C4524 C 0.9569 0.46751 0.98607 0.0
C4525 C 0.93442 0.45201 0.97455 0.0
C4526 C 0.90932 0.43091 0.00684 0.0
H4527 H 0.82509 0.44861 0.00317 0.0
H4528 H 0.85395 0.45597 0.00085 0.0
H4529 H 0.89083 0.42044 0.02201 0.0
H4530 H 0.96112 0.46387 0.01192 0.0
H4531 H 0.93776 0.44614 0.01575 0.0
H4532 H 0.90205 0.45651 0.97479 0.0
C4533 C 0.85077 0.44365 0.00456 0.0
C4534 C 0.89314 0.42803 0.01144 0.0
C4535 C 0.83428 0.43956 0.00606 0.0
C4536 C 0.95417 0.46012 0.00125 0.0
C4537 C 0.94066 0.44993 0.00343 0.0
C4538 C 0.89992 0.44813 0.98478 0.0
C4539 C 0.86293 0.43175 0.00708 0.0
C4540 C 0.88019 0.43512 0.00269 0.0
C4541 C 0.92993 0.44679 0.99032 0.0
C4542 C 0.91293 0.44126 0.99362 0.0
H4543 H 0.83854 0.39975 0.01766 0.0
H4544 H 0.8672 0.4066 0.01443 0.0
H4545 H 0.87419 0.45027 0.98179 0.0
H4546 H 0.94967 0.46817 0.96066 0.0
H4547 H 0.92687 0.44918 0.96403 0.0
C4548 C 0.30318 0.07625 0.74344 0.0
C4549 C 0.31737 0.07526 0.75303 0.0
C4550 C 0.29385 0.0905 0.74353 0.0
C4551 C 0.28982 0.13126 0.76379 0.0
H4552 H 0.28302 0.14637 0.71939 0.0
C4553 C 0.29547 0.19806 0.74446 0.0
C4554 C 0.28121 0.20476 0.73785 0.0
C4555 C 0.29663 0.18119 0.74657 0.0
C4556 C 0.28465 0.14218 0.73183 0.0
H4557 H 0.33247 0.08786 0.77091 0.0
H4558 H 0.31651 0.11275 0.77085 0.0
H4559 H 0.28925 0.11763 0.72423 0.0
H4560 H 0.25738 0.19945 0.72746 0.0
H4561 H 0.25983 0.1697 0.73042 0.0
H4562 H 0.28643 0.15621 0.77113 0.0
C4563 C 0.31228 0.10251 0.76351 0.0
C4564 C 0.28804 0.12574 0.73467 0.0
C4565 C 0.32151 0.08826 0.76349 0.0
C4566 C 0.2685 0.19442 0.73255 0.0
C4567 C 0.26984 0.17753 0.73428 0.0
C4568 C 0.2867 0.14773 0.76091 0.0
C4569 C 0.29868 0.10399 0.75311 0.0
C4570 C 0.29128 0.12025 0.75062 0.0
C4571 C 0.2837 0.17091 0.74174 0.0
C4572 C 0.28465 0.15332 0.74488 0.0
H4573 H 0.2996 0.06621 0.73549 0.0
H4574 H 0.28328 0.0912 0.7356 0.0
H4575 H 0.29191 0.1273 0.77624 0.0
H4576 H 0.30528 0.2059 0.74882 0.0
H4577 H 0.30748 0.17618 0.75222 0.0
C4578 C 0.17785 0.90737 0.26814 0.0
C4579 C 0.18561 0.92143 0.26204 0.0
C4580 C 0.18598 0.89239 0.26829 0.0
C4581 C 0.21809 0.87149 0.24536 0.0
H4582 H 0.20829 0.83611 0.27534 0.0
C4583 C 0.21967 0.80538 0.22441 0.0
C4584 C 0.22709 0.79359 0.23438 0.0
C4585 C 0.21681 0.8211 0.23031 0.0
C4586 C 0.21135 0.84592 0.267 0.0
H4587 H 0.20832 0.93117 0.25247 0.0
H4588 H 0.22266 0.90501 0.25294 0.0
H4589 H 0.20044 0.86414 0.28239 0.0
H4590 H 0.23679 0.78888 0.25851 0.0
H4591 H 0.2316 0.81657 0.269 0.0
H4592 H 0.22876 0.85334 0.22989 0.0
C4593 C 0.21015 0.90547 0.25725 0.0
C4594 C 0.20674 0.86193 0.27096 0.0
C4595 C 0.20197 0.92043 0.25697 0.0
C4596 C 0.231 0.7977 0.25062 0.0
C4597 C 0.22809 0.81353 0.25658 0.0
C4598 C 0.2227 0.85556 0.24146 0.0
C4599 C 0.20208 0.89116 0.26244 0.0
C4600 C 0.20956 0.87481 0.25991 0.0
C4601 C 0.2213 0.82547 0.24631 0.0
C4602 C 0.21882 0.84253 0.25193 0.0
H4603 H 0.16519 0.90775 0.27199 0.0
H4604 H 0.17928 0.88161 0.27213 0.0
H4605 H 0.22038 0.88102 0.23649 0.0
H4606 H 0.21634 0.80259 0.21188 0.0
H4607 H 0.21115 0.82991 0.22224 0.0
C4608 C 0.50296 0.34385 0.42028 0.0
C4609 C 0.49976 0.32905 0.42826 0.0
C4610 C 0.4992 0.35869 0.42786 0.0
C4611 C 0.49359 0.37873 0.467 0.0
H4612 H 0.47136 0.41132 0.44083 0.0
C4613 C 0.49366 0.44456 0.4883 0.0
C4614 C 0.50196 0.45382 0.47652 0.0
C4615 C 0.48623 0.42975 0.48385 0.0
C4616 C 0.47735 0.40227 0.44838 0.0
H4617 H 0.49085 0.31791 0.45053 0.0
H4618 H 0.48481 0.34405 0.46414 0.0
H4619 H 0.47447 0.38347 0.43028 0.0
H4620 H 0.5077 0.45619 0.45086 0.0
H4621 H 0.49451 0.43064 0.44293 0.0
H4622 H 0.49748 0.39773 0.48462 0.0
C4623 C 0.48993 0.34414 0.45193 0.0
C4624 C 0.47923 0.38641 0.44231 0.0
C4625 C 0.49342 0.32926 0.44422 0.0
C4626 C 0.50124 0.44919 0.46006 0.0
C4627 C 0.49363 0.43457 0.45556 0.0
C4628 C 0.4918 0.39463 0.47304 0.0
C4629 C 0.49239 0.35894 0.44363 0.0
C4630 C 0.48797 0.37473 0.45127 0.0
C4631 C 0.48698 0.42421 0.46756 0.0
C4632 C 0.48431 0.40674 0.46346 0.0
H4633 H 0.50771 0.34392 0.40791 0.0
H4634 H 0.5015 0.36998 0.42134 0.0
H4635 H 0.50036 0.3699 0.47414 0.0
H4636 H 0.49423 0.44798 0.50111 0.0
H4637 H 0.48105 0.42207 0.49329 0.0
C4638 C 0.4135 0.7644 0.17601 0.0
C4639 C 0.42628 0.75442 0.18145 0.0
C4640 C 0.39897 0.7652 0.18473 0.0
C4641 C 0.37388 0.74053 0.21173 0.0
H4642 H 0.34746 0.77987 0.21206 0.0
C4643 C 0.30665 0.74353 0.23389 0.0
C4644 C 0.29604 0.75036 0.22225 0.0
C4645 C 0.3235 0.74441 0.23171 0.0
C4646 C 0.35477 0.76884 0.21211 0.0
H4647 H 0.43425 0.73792 0.20052 0.0
H4648 H 0.40864 0.73938 0.21594 0.0
H4649 H 0.37629 0.78164 0.20465 0.0
H4650 H 0.29458 0.76317 0.19915 0.0
H4651 H 0.32418 0.76489 0.19543 0.0
H4652 H 0.35217 0.72774 0.21896 0.0
C4653 C 0.40988 0.74644 0.20483 0.0
C4654 C 0.37121 0.76983 0.2079 0.0
C4655 C 0.42447 0.74559 0.19603 0.0
C4656 C 0.30251 0.75785 0.20828 0.0
C4657 C 0.31938 0.75894 0.20624 0.0
C4658 C 0.35746 0.73958 0.21615 0.0
C4659 C 0.39692 0.75608 0.1991 0.0
C4660 C 0.38073 0.75558 0.207 0.0
C4661 C 0.32995 0.75234 0.218 0.0
C4662 C 0.3477 0.75364 0.21575 0.0
H4663 H 0.41448 0.77109 0.16465 0.0
H4664 H 0.38908 0.77242 0.17976 0.0
H4665 H 0.38089 0.72933 0.21103 0.0
H4666 H 0.30194 0.73752 0.2447 0.0
H4667 H 0.33149 0.73918 0.24085 0.0
C4668 C 0.01254 0.67202 0.94362 0.0
C4669 C 0.00515 0.67352 0.92818 0.0
C4670 C 0.01565 0.65656 0.95015 0.0
C4671 C 0.02091 0.61345 0.9378 0.0
H4672 H 0.00574 0.60327 0.98147 0.0
C4673 C 0.99315 0.55311 0.95624 0.0
C4674 C 0.99413 0.54783 0.97245 0.0
C4675 C 0.00158 0.56708 0.95134 0.0
C4676 C 0.01054 0.60597 0.96944 0.0
H4677 H 0.9951 0.66015 0.90753 0.0
H4678 H 0.00032 0.63318 0.919 0.0
H4679 H 0.00554 0.63153 0.97215 0.0
H4680 H 0.00528 0.55206 -0.00391 0.0
H4681 H 0.01995 0.57683 0.9876 0.0
H4682 H 0.02502 0.58774 0.93477 0.0
C4683 C 0.00389 0.64392 0.92597 0.0
C4684 C 0.01032 0.62216 0.96408 0.0
C4685 C 0.00066 0.65934 0.91952 0.0
C4686 C 0.0046 0.55587 0.98344 0.0
C4687 C 0.01286 0.57007 0.97862 0.0
C4688 C 0.02115 0.59727 0.94317 0.0
C4689 C 0.01159 0.64238 0.94125 0.0
C4690 C 0.01479 0.62592 0.94796 0.0
C4691 C 0.0108 0.57619 0.96272 0.0
C4692 C 0.01524 0.59329 0.95877 0.0
H4693 H 0.01607 0.6828 0.95054 0.0
H4694 H 0.0215 0.6557 0.962 0.0
H4695 H 0.0248 0.61611 0.92543 0.0
H4696 H 0.98501 0.54706 0.94765 0.0
H4697 H -0.00039 0.57156 0.93905 0.0
C4698 C 0.08728 0.25089 0.68364 0.0
C4699 C 0.08089 0.24255 0.67004 0.0
C4700 C 0.10385 0.24947 0.6875 0.0
C4701 C 0.14027 0.22394 0.67882 0.0
H4702 H 0.1634 0.2619 0.69566 0.0
C4703 C 0.1989 0.22126 0.71572 0.0
C4704 C 0.20894 0.23518 0.7165 0.0
C4705 C 0.1856 0.22086 0.70515 0.0
C4706 C 0.15725 0.25129 0.69055 0.0
H4707 H 0.0865 0.22659 0.64961 0.0
H4708 H 0.1154 0.22452 0.65595 0.0
H4709 H 0.13469 0.2642 0.68857 0.0
H4710 H 0.21437 0.2587 0.70572 0.0
H4711 H 0.19133 0.25784 0.68671 0.0
H4712 H 0.1629 0.21108 0.68066 0.0
C4713 C 0.1077 0.23166 0.66402 0.0
C4714 C 0.14067 0.25251 0.68685 0.0
C4715 C 0.09118 0.23286 0.66036 0.0
C4716 C 0.20688 0.24776 0.70511 0.0
C4717 C 0.19353 0.24737 0.69448 0.0
C4718 C 0.15689 0.22276 0.68234 0.0
C4719 C 0.11426 0.23995 0.6776 0.0
C4720 C 0.13195 0.23879 0.68119 0.0
C4721 C 0.18215 0.23443 0.69526 0.0
C4722 C 0.16549 0.23634 0.68853 0.0
H4723 H 0.07948 0.25843 0.69124 0.0
H4724 H 0.10848 0.2558 0.69822 0.0
H4725 H 0.13388 0.21306 0.67464 0.0
H4726 H 0.20035 0.21144 0.72447 0.0
H4727 H 0.17711 0.2107 0.7061 0.0
C4728 C 0.50952 0.66655 0.06247 0.0
C4729 C 0.49778 0.67038 0.07438 0.0
C4730 C 0.51203 0.65035 0.05782 0.0
C4731 C 0.50705 0.60922 0.07502 0.0
H4732 H 0.51999 0.5954 0.03158 0.0
C4733 C 0.50586 0.54517 0.04574 0.0
C4734 C 0.51761 0.54266 0.03355 0.0
C4735 C 0.50677 0.55919 0.05552 0.0
C4736 C 0.51674 0.59918 0.04386 0.0
H4737 H 0.47839 0.66055 0.0896 0.0
H4738 H 0.48231 0.63233 0.08092 0.0
H4739 H 0.51195 0.62361 0.03616 0.0
H4740 H 0.54084 0.55063 0.02374 0.0
H4741 H 0.54262 0.57492 0.04105 0.0
H4742 H 0.51115 0.58439 0.08241 0.0
C4743 C 0.48996 0.64177 0.07564 0.0
C4744 C 0.51202 0.6153 0.04644 0.0
C4745 C 0.48754 0.65796 0.08039 0.0
C4746 C 0.53164 0.55252 0.03308 0.0
C4747 C 0.53263 0.56639 0.04292 0.0
C4748 C 0.51158 0.59298 0.07237 0.0
C4749 C 0.50272 0.63775 0.06491 0.0
C4750 C 0.50711 0.62049 0.06203 0.0
C4751 C 0.51944 0.57056 0.05304 0.0
C4752 C 0.51652 0.5879 0.05678 0.0
H4753 H 0.51736 0.67598 0.05743 0.0
H4754 H 0.52191 0.64766 0.04944 0.0
H4755 H 0.50361 0.61298 0.08725 0.0
H4756 H 0.49491 0.53768 0.04616 0.0
H4757 H 0.49649 0.56217 0.06332 0.0
C4758 C 0.09016 0.72868 0.82703 0.0
C4759 C 0.07885 0.74069 0.82229 0.0
C4760 C 0.10578 0.72837 0.82019 0.0
C4761 C 0.13787 0.74994 0.81531 0.0
H4762 H 0.15404 0.73765 0.77241 0.0
C4763 C 0.19415 0.77897 0.78649 0.0
C4764 C 0.2052 0.76915 0.77775 0.0
C4765 C 0.17975 0.77235 0.79263 0.0
C4766 C 0.14974 0.74087 0.78452 0.0
H4767 H 0.07456 0.76086 0.80568 0.0
H4768 H 0.10205 0.76033 0.79383 0.0
H4769 H 0.12564 0.73122 0.78 0.0
H4770 H 0.21022 0.74454 0.76932 0.0
H4771 H 0.18467 0.73285 0.77998 0.0
H4772 H 0.16152 0.76025 0.81971 0.0
C4773 C 0.09869 0.75122 0.80283 0.0
C4774 C 0.13354 0.7373 0.78877 0.0
C4775 C 0.08309 0.75162 0.80973 0.0
C4776 C 0.20186 0.75237 0.77589 0.0
C4777 C 0.18726 0.74573 0.78192 0.0
C4778 C 0.15392 0.75366 0.81103 0.0
C4779 C 0.11024 0.73991 0.8084 0.0
C4780 C 0.12753 0.74205 0.80411 0.0
C4781 C 0.176 0.75576 0.79016 0.0
C4782 C 0.15991 0.74946 0.79549 0.0
H4783 H 0.08736 0.72018 0.83675 0.0
H4784 H 0.11465 0.71969 0.82472 0.0
H4785 H 0.13334 0.75374 0.82718 0.0
H4786 H 0.19637 0.79195 0.78821 0.0
H4787 H 0.17122 0.78041 0.79878 0.0
C4788 C 0.01356 0.33369 0.57177 0.0
C4789 C 0.00205 0.32133 0.56848 0.0
C4790 C 0.0126 0.34862 0.56378 0.0
C4791 C 0.00024 0.37231 0.53024 0.0
H4792 H 0.98917 0.40543 0.56252 0.0
C4793 C 0.99014 0.44071 0.51463 0.0
C4794 C -0.00336 0.452 0.52591 0.0
C4795 C 0.99003 0.42403 0.51818 0.0
C4796 C 0.99239 0.39637 0.55338 0.0
H4797 H 0.98123 0.31436 0.55351 0.0
H4798 H 0.97957 0.34083 0.53946 0.0
H4799 H 0.99098 0.37689 0.57067 0.0
H4800 H 0.00887 0.45484 0.54927 0.0
H4801 H 0.00913 0.42573 0.55529 0.0
H4802 H 0.00235 0.39192 0.51305 0.0
C4803 C 0.98926 0.33878 0.54823 0.0
C4804 C 0.99329 0.38009 0.55803 0.0
C4805 C 0.99014 0.3238 0.55633 0.0
C4806 C 0.00346 0.44639 0.54055 0.0
C4807 C 0.00356 0.42975 0.54399 0.0
C4808 C -0.00047 0.38873 0.52558 0.0
C4809 C 0.0002 0.35137 0.55234 0.0
C4810 C -0.00247 0.36806 0.54658 0.0
C4811 C -0.00341 0.41843 0.53298 0.0
C4812 C -0.00402 0.40092 0.53725 0.0
H4813 H 0.02274 0.33219 0.58119 0.0
H4814 H 0.02108 0.35831 0.56709 0.0
H4815 H 0.00353 0.36306 0.5213 0.0
H4816 H 0.98485 0.44478 0.50321 0.0
H4817 H 0.98451 0.41559 0.50952 0.0
C4818 C 0.42361 0.25822 0.30899 0.0
C4819 C 0.42553 0.2485 0.32299 0.0
C4820 C 0.40891 0.25801 0.30031 0.0
C4821 C 0.37099 0.23427 0.29407 0.0
H4822 H 0.35096 0.27651 0.28635 0.0
C4823 C 0.30644 0.24149 0.26641 0.0
C4824 C 0.29596 0.25014 0.2769 0.0
C4825 C 0.32329 0.24171 0.26911 0.0
C4826 C 0.35651 0.26466 0.2883 0.0
H4827 H 0.41364 0.23087 0.33881 0.0
H4828 H 0.38804 0.23045 0.32365 0.0
H4829 H 0.37913 0.27523 0.2963 0.0
H4830 H 0.29465 0.26643 0.29781 0.0
H4831 H 0.32425 0.26724 0.30225 0.0
H4832 H 0.34817 0.22374 0.28655 0.0
C4833 C 0.39797 0.23803 0.31923 0.0
C4834 C 0.37261 0.26391 0.29387 0.0
C4835 C 0.41262 0.23829 0.32792 0.0
C4836 C 0.30255 0.25954 0.2897 0.0
C4837 C 0.31942 0.26011 0.29213 0.0
C4838 C 0.35496 0.23502 0.28831 0.0
C4839 C 0.39591 0.24802 0.30545 0.0
C4840 C 0.37983 0.24871 0.29725 0.0
C4841 C 0.32988 0.25097 0.28203 0.0
C4842 C 0.34747 0.25023 0.28581 0.0
H4843 H 0.43346 0.26604 0.30478 0.0
H4844 H 0.40766 0.26572 0.28964 0.0
H4845 H 0.37633 0.2224 0.29646 0.0
H4846 H 0.30156 0.23415 0.25647 0.0
H4847 H 0.33116 0.23457 0.2612 0.0
C4848 C 0.44032 0.49151 0.32679 0.0
C4849 C 0.42635 0.50106 0.32402 0.0
C4850 C 0.4494 0.49354 0.34116 0.0
C4851 C 0.45631 0.52316 0.37477 0.0
H4852 H 0.46757 0.4851 0.40051 0.0
C4853 C 0.46219 0.5244 0.44436 0.0
C4854 C 0.47438 0.51496 0.45182 0.0
C4855 C 0.46001 0.52379 0.42746 0.0
C4856 C 0.46481 0.49584 0.39331 0.0
H4857 H 0.41052 0.51966 0.33431 0.0
H4858 H 0.42622 0.52315 0.35928 0.0
H4859 H 0.45677 0.48142 0.3729 0.0
H4860 H 0.49426 0.49795 0.44731 0.0
H4861 H 0.49029 0.49684 0.41779 0.0
H4862 H 0.46365 0.53755 0.39545 0.0
C4863 C 0.43048 0.51445 0.35021 0.0
C4864 C 0.45864 0.49373 0.37752 0.0
C4865 C 0.42146 0.51242 0.33594 0.0
C4866 C 0.48471 0.50534 0.44196 0.0
C4867 C 0.48243 0.50465 0.42507 0.0
C4868 C 0.46241 0.52526 0.39055 0.0
C4869 C 0.44462 0.50517 0.35292 0.0
C4870 C 0.45379 0.50736 0.36835 0.0
C4871 C 0.46991 0.51367 0.41771 0.0
C4872 C 0.46619 0.51161 0.40015 0.0
H4873 H 0.44439 0.4827 0.31774 0.0
H4874 H 0.46024 0.48621 0.34297 0.0
H4875 H 0.45301 0.53389 0.36779 0.0
H4876 H 0.45408 0.53197 0.45159 0.0
H4877 H 0.45012 0.53073 0.4221 0.0
C4878 C 0.23906 0.6868 0.08305 0.0
C4879 C 0.25255 0.67837 0.07668 0.0
C4880 C 0.23869 0.69131 0.09949 0.0
C4881 C 0.25585 0.67717 0.13834 0.0
H4882 H 0.23159 0.71394 0.15575 0.0
C4883 C 0.25024 0.70034 0.20561 0.0
C4884 C 0.23476 0.70659 0.20961 0.0
C4885 C 0.25284 0.69322 0.19028 0.0
C4886 C 0.23824 0.70351 0.15098 0.0
H4887 H 0.27691 0.66942 0.08218 0.0
H4888 H 0.2765 0.6779 0.11068 0.0
H4889 H 0.2374 0.71265 0.12658 0.0
H4890 H 0.20935 0.7076 0.20233 0.0
H4891 H 0.21386 0.69501 0.17565 0.0
H4892 H 0.25698 0.66835 0.16301 0.0
C4893 C 0.26598 0.68053 0.1031 0.0
C4894 C 0.24163 0.70282 0.13433 0.0
C4895 C 0.26629 0.67589 0.08669 0.0
C4896 C 0.22141 0.70301 0.19941 0.0
C4897 C 0.22401 0.69596 0.18411 0.0
C4898 C 0.25265 0.678 0.15509 0.0
C4899 C 0.25188 0.68759 0.10984 0.0
C4900 C 0.25017 0.68947 0.12776 0.0
C4901 C 0.23994 0.69227 0.17901 0.0
C4902 C 0.24348 0.69098 0.16143 0.0
H4903 H 0.22844 0.68919 0.07552 0.0
H4904 H 0.22762 0.69676 0.10426 0.0
H4905 H 0.2623 0.6666 0.13363 0.0
H4906 H 0.26077 0.70303 0.21321 0.0
H4907 H 0.26521 0.69033 0.18659 0.0
C4908 C 0.05908 0.50601 0.82668 0.0
C4909 C 0.0729 0.4961 0.82445 0.0
C4910 C 0.04934 0.50417 0.84055 0.0
C4911 C 0.04125 0.47612 0.87515 0.0
H4912 H 0.03267 0.51611 0.89933 0.0
C4913 C 0.03795 0.4796 0.94485 0.0
C4914 C 0.02584 0.48944 0.95195 0.0
C4915 C 0.03986 0.47923 0.92792 0.0
C4916 C 0.03468 0.50486 0.89258 0.0
H4917 H 0.08745 0.47663 0.83486 0.0
H4918 H 0.07066 0.47356 0.8591 0.0
H4919 H 0.04263 0.51772 0.87133 0.0
H4920 H 0.00607 0.50644 0.94692 0.0
H4921 H 0.00963 0.50586 0.9174 0.0
H4922 H 0.03419 0.46332 0.89681 0.0
C4923 C 0.06703 0.48242 0.84999 0.0
C4924 C 0.04032 0.50577 0.87654 0.0
C4925 C 0.07671 0.48423 0.83616 0.0
C4926 C 0.01553 0.49871 0.94182 0.0
C4927 C 0.01754 0.49843 0.92493 0.0
C4928 C 0.03573 0.47522 0.89122 0.0
C4929 C 0.05332 0.49243 0.85238 0.0
C4930 C 0.04423 0.49141 0.86791 0.0
C4931 C 0.02979 0.48879 0.91788 0.0
C4932 C 0.03294 0.48959 0.9002 0.0
H4933 H 0.05581 0.51513 0.81769 0.0
H4934 H 0.03879 0.51199 0.8421 0.0
H4935 H 0.04385 0.46486 0.86862 0.0
H4936 H 0.04603 0.47232 0.95235 0.0
H4937 H 0.04956 0.47188 0.92272 0.0
C4938 C 0.23464 0.33409 0.59667 0.0
C4939 C 0.23787 0.3252 0.58239 0.0
C4940 C 0.23297 0.32604 0.61156 0.0
C4941 C 0.24357 0.28711 0.63178 0.0
H4942 H 0.21773 0.30616 0.66674 0.0
C4943 C 0.249 0.26342 0.69678 0.0
C4944 C 0.25685 0.27567 0.70595 0.0
C4945 C 0.24077 0.26748 0.68241 0.0
C4946 C 0.22474 0.30056 0.65699 0.0
H4947 H 0.2416 0.30111 0.57203 0.0
H4948 H 0.23802 0.28677 0.59799 0.0
H4949 H 0.21506 0.31667 0.63894 0.0
H4950 H 0.26135 0.30165 0.70845 0.0
H4951 H 0.24635 0.30889 0.68363 0.0
H4952 H 0.25334 0.27114 0.64994 0.0
C4953 C 0.2372 0.3 0.5979 0.0
C4954 C 0.22342 0.30668 0.64113 0.0
C4955 C 0.23919 0.30813 0.58304 0.0
C4956 C 0.25517 0.29211 0.70155 0.0
C4957 C 0.24659 0.29621 0.68742 0.0
C4958 C 0.24462 0.28079 0.64755 0.0
C4959 C 0.23419 0.30887 0.61239 0.0
C4960 C 0.23335 0.3005 0.62848 0.0
C4961 C 0.24005 0.28385 0.67734 0.0
C4962 C 0.23567 0.28787 0.66036 0.0
H4963 H 0.2337 0.34732 0.59633 0.0
H4964 H 0.23114 0.33337 0.62246 0.0
H4965 H 0.25157 0.28213 0.62249 0.0
H4966 H 0.2504 0.25064 0.69996 0.0
H4967 H 0.23585 0.25778 0.67475 0.0
C4968 C 0.43874 0.51028 0.16592 0.0
C4969 C 0.42529 0.49995 0.16872 0.0
C4970 C 0.44526 0.51177 0.15019 0.0
C4971 C 0.44507 0.49053 0.11007 0.0
H4972 H 0.46182 0.53178 0.09352 0.0
C4973 C 0.46196 0.49269 0.04496 0.0
C4974 C 0.47902 0.49298 0.04402 0.0
C4975 C 0.45415 0.49951 0.05848 0.0
C4976 C 0.45701 0.52028 0.09803 0.0
H4977 H 0.40774 0.48351 0.15748 0.0
H4978 H 0.41861 0.48645 0.13006 0.0
H4979 H 0.45114 0.53031 0.12158 0.0
H4980 H 0.50133 0.50216 0.05498 0.0
H4981 H 0.48764 0.51391 0.07893 0.0
H4982 H 0.45068 0.48054 0.08664 0.0
C4983 C 0.42463 0.49296 0.13995 0.0
C4984 C 0.4511 0.51935 0.11409 0.0
C4985 C 0.41836 0.49125 0.15565 0.0
C4986 C 0.4881 0.50193 0.05556 0.0
C4987 C 0.48028 0.50869 0.06918 0.0
C4988 C 0.45062 0.49155 0.09409 0.0
C4989 C 0.43821 0.50315 0.13701 0.0
C4990 C 0.44497 0.50443 0.12023 0.0
C4991 C 0.46341 0.50638 0.07127 0.0
C4992 C 0.45653 0.5064 0.08789 0.0
H4993 H 0.44422 0.51713 0.1759 0.0
H4994 H 0.45585 0.51954 0.1484 0.0
H4995 H 0.441 0.47872 0.1145 0.0
H4996 H 0.45482 0.48579 0.03612 0.0
H4997 H 0.44109 0.49771 0.05986 0.0
C4998 C 0.26442 0.69277 0.9236 0.0
C4999 C 0.2522 0.68092 0.92599 0.0
C5000 C 0.26457 0.70214 0.90938 0.0
C5001 C 0.23969 0.71236 0.87272 0.0
H5002 H 0.28185 0.71402 0.85109 0.0
C5003 C 0.24853 0.71173 0.8033 0.0
C5004 C 0.25762 0.72479 0.79692 0.0
C5005 C 0.24782 0.7094 0.82015 0.0
C5006 C 0.27007 0.71384 0.85712 0.0
H5007 H 0.2304 0.66973 0.91575 0.0
H5008 H 0.23084 0.6857 0.89084 0.0
H5009 H 0.28026 0.70536 0.87954 0.0
H5010 H 0.27347 0.74535 0.80275 0.0
H5011 H 0.27277 0.74076 0.83234 0.0
H5012 H 0.22949 0.71975 0.8498 0.0
C5013 C 0.24006 0.68817 0.90003 0.0
C5014 C 0.26913 0.70901 0.87341 0.0
C5015 C 0.23985 0.67893 0.91426 0.0
C5016 C 0.26635 0.73521 0.8075 0.0
C5017 C 0.26596 0.73264 0.82431 0.0
C5018 C 0.24062 0.71691 0.85637 0.0
C5019 C 0.25257 0.69967 0.8973 0.0
C5020 C 0.25387 0.70772 0.88121 0.0
C5021 C 0.25648 0.71988 0.83071 0.0
C5022 C 0.25576 0.71723 0.8484 0.0
H5023 H 0.27394 0.69465 0.93263 0.0
H5024 H 0.27424 0.71107 0.9077 0.0
H5025 H 0.22781 0.71185 0.87852 0.0
H5026 H 0.2416 0.70366 0.79533 0.0
H5027 H 0.24057 0.69939 0.82495 0.0
C5028 C 0.06449 0.49547 0.6667 0.0
C5029 C 0.0742 0.50822 0.67311 0.0
C5030 C 0.05926 0.49591 0.65047 0.0
C5031 C 0.05231 0.52236 0.61556 0.0
H5032 H 0.06789 0.48614 0.58905 0.0
C5033 C 0.04487 0.52594 0.54719 0.0
C5034 C 0.03826 0.51185 0.53993 0.0
C5035 C 0.05232 0.52499 0.56247 0.0
C5036 C 0.06332 0.49627 0.59626 0.0
H5037 H 0.08527 0.53183 0.6677 0.0
H5038 H 0.07559 0.53279 0.63967 0.0
H5039 H 0.07128 0.48543 0.6187 0.0
H5040 H 0.03582 0.48549 0.54177 0.0
H5041 H 0.04807 0.48387 0.5687 0.0
H5042 H 0.0438 0.53305 0.59348 0.0
C5043 C 0.07217 0.52244 0.6472 0.0
C5044 C 0.06521 0.49582 0.61322 0.0
C5045 C 0.07761 0.52191 0.6633 0.0
C5046 C 0.04091 0.49654 0.54715 0.0
C5047 C 0.04791 0.49564 0.56266 0.0
C5048 C 0.05016 0.52271 0.59869 0.0
C5049 C 0.06341 0.50923 0.64054 0.0
C5050 C 0.05986 0.50894 0.62293 0.0
C5051 C 0.05273 0.51002 0.57091 0.0
C5052 C 0.05584 0.50978 0.58878 0.0
H5053 H 0.06137 0.48493 0.67407 0.0
H5054 H 0.05231 0.48569 0.64556 0.0
H5055 H 0.04803 0.53257 0.62289 0.0
H5056 H 0.04305 0.53784 0.5417 0.0
H5057 H 0.05659 0.5362 0.5682 0.0
C5058 C 0.2366 0.3148 0.4195 0.0
C5059 C 0.24967 0.32456 0.42505 0.0
C5060 C 0.23552 0.31022 0.4031 0.0
C5061 C 0.24984 0.32396 0.36255 0.0
H5062 H 0.22852 0.28395 0.34828 0.0
C5063 C 0.24604 0.2959 0.29687 0.0
C5064 C 0.23124 0.28785 0.29331 0.0
C5065 C 0.248 0.30405 0.31183 0.0
C5066 C 0.23432 0.29527 0.35213 0.0
H5067 H 0.27252 0.33608 0.4179 0.0
H5068 H 0.27104 0.32737 0.38948 0.0
H5069 H 0.2345 0.28793 0.37713 0.0
H5070 H 0.20618 0.28427 0.30101 0.0
H5071 H 0.20953 0.2987 0.32696 0.0
H5072 H 0.25009 0.3309 0.33724 0.0
C5073 C 0.2613 0.32379 0.3977 0.0
C5074 C 0.23778 0.29755 0.36865 0.0
C5075 C 0.26229 0.32855 0.41408 0.0
C5076 C 0.21774 0.29027 0.30359 0.0
C5077 C 0.2197 0.29838 0.31848 0.0
C5078 C 0.2466 0.32154 0.34592 0.0
C5079 C 0.24762 0.31509 0.39189 0.0
C5080 C 0.24534 0.31203 0.37413 0.0
C5081 C 0.23515 0.30423 0.32319 0.0
C5082 C 0.23853 0.30731 0.34065 0.0
H5083 H 0.22686 0.31121 0.42772 0.0
H5084 H 0.22477 0.30355 0.39911 0.0
H5085 H 0.25549 0.33537 0.36635 0.0
H5086 H 0.25667 0.29415 0.28918 0.0
H5087 H 0.26001 0.30857 0.3152 0.0
C5088 C 0.3373 0.40727 0.51728 0.0
C5089 C 0.32636 0.4181 0.5098 0.0
C5090 C 0.35396 0.4107 0.51754 0.0
C5091 C 0.38564 0.43533 0.49724 0.0
H5092 H 0.40962 0.42866 0.53759 0.0
C5093 C 0.45154 0.45633 0.50195 0.0
C5094 C 0.45284 0.46813 0.51438 0.0
C5095 C 0.43856 0.44517 0.50206 0.0
C5096 C 0.40312 0.43035 0.52618 0.0
H5097 H 0.32406 0.44098 0.49675 0.0
H5098 H 0.35334 0.44729 0.49755 0.0
H5099 H 0.38086 0.4209 0.53605 0.0
H5100 H 0.44309 0.47658 0.5375 0.0
H5101 H 0.42063 0.45702 0.5379 0.0
H5102 H 0.40765 0.44567 0.48769 0.0
C5103 C 0.34903 0.43598 0.50295 0.0
C5104 C 0.38669 0.42591 0.52528 0.0
C5105 C 0.33232 0.43247 0.50258 0.0
C5106 C 0.44224 0.46752 0.52781 0.0
C5107 C 0.42944 0.45628 0.52804 0.0
C5108 C 0.40207 0.43977 0.49815 0.0
C5109 C 0.36 0.42506 0.51038 0.0
C5110 C 0.3777 0.4287 0.51091 0.0
C5111 C 0.42694 0.44567 0.51471 0.0
C5112 C 0.41085 0.43769 0.51276 0.0
H5113 H 0.33302 0.39591 0.52259 0.0
H5114 H 0.36213 0.40194 0.52311 0.0
H5115 H 0.37906 0.43739 0.48594 0.0
H5116 H 0.45951 0.45677 0.49139 0.0
H5117 H 0.43692 0.437 0.49172 0.0
C5118 C 0.83946 0.07248 0.48194 0.0
C5119 C 0.82666 0.06824 0.49254 0.0
C5120 C 0.85351 0.06297 0.48123 0.0
C5121 C 0.8782 0.03869 0.50775 0.0
H5122 H 0.90299 0.03004 0.46824 0.0
C5123 C 0.94807 0.03822 0.50423 0.0
C5124 C 0.95532 0.02485 0.4963 0.0
C5125 C 0.93114 0.03992 0.50412 0.0
C5126 C 0.89608 0.03215 0.47934 0.0
H5127 H 0.81805 0.0502 0.50997 0.0
H5128 H 0.84293 0.03375 0.50899 0.0
H5129 H 0.87446 0.03869 0.46617 0.0
H5130 H 0.95086 0.00284 0.48202 0.0
H5131 H 0.92116 0.00624 0.4813 0.0
H5132 H 0.9001 0.03303 0.52087 0.0
C5133 C 0.84201 0.04446 0.50129 0.0
C5134 C 0.87985 0.03713 0.47816 0.0
C5135 C 0.82788 0.05392 0.50191 0.0
C5136 C 0.94547 0.01323 0.48825 0.0
C5137 C 0.92857 0.01514 0.48782 0.0
C5138 C 0.89447 0.03392 0.50891 0.0
C5139 C 0.85505 0.04912 0.49118 0.0
C5140 C 0.87095 0.04087 0.49235 0.0
C5141 C 0.92132 0.02848 0.49579 0.0
C5142 C 0.90361 0.03107 0.4947 0.0
H5143 H 0.83897 0.08357 0.47474 0.0
H5144 H 0.86353 0.06697 0.47355 0.0
H5145 H 0.87161 0.04164 0.51886 0.0
H5146 H 0.95547 0.04722 0.51063 0.0
H5147 H 0.92572 0.05039 0.51021 0.0
C5148 C 0.68939 0.08534 0.2495 0.0
C5149 C 0.67348 0.08009 0.24591 0.0
C5150 C 0.69352 0.10187 0.24781 0.0
C5151 C 0.67991 0.13938 0.22708 0.0
H5152 H 0.70586 0.16157 0.26012 0.0
C5153 C 0.71186 0.20148 0.21879 0.0
C5154 C 0.71412 0.21132 0.23272 0.0
C5155 C 0.70348 0.18666 0.21997 0.0
C5156 C 0.69835 0.15559 0.25094 0.0
H5157 H 0.64932 0.08739 0.2382 0.0
H5158 H 0.65634 0.11627 0.23553 0.0
H5159 H 0.69965 0.13254 0.26318 0.0
H5160 H 0.70764 0.21453 0.25826 0.0
H5161 H 0.69264 0.18883 0.2602 0.0
H5162 H 0.67857 0.16244 0.21488 0.0
C5163 C 0.66575 0.10777 0.23924 0.0
C5164 C 0.69507 0.13892 0.25255 0.0
C5165 C 0.66171 0.09134 0.24084 0.0
C5166 C 0.70609 0.2072 0.24731 0.0
C5167 C 0.69771 0.19236 0.24849 0.0
C5168 C 0.68319 0.15604 0.22548 0.0
C5169 C 0.6817 0.1132 0.24259 0.0
C5170 C 0.68578 0.13069 0.24065 0.0
C5171 C 0.69722 0.18156 0.2351 0.0
C5172 C 0.69241 0.1643 0.2374 0.0
H5173 H 0.69857 0.07668 0.25344 0.0
H5174 H 0.70593 0.10575 0.25037 0.0
H5175 H 0.67289 0.13326 0.21761 0.0
H5176 H 0.71783 0.2045 0.20736 0.0
H5177 H 0.70322 0.17861 0.20941 0.0
C5178 C 0.65462 0.91626 -0.00393 0.0
C5179 C 0.66716 0.92325 0.00547 0.0
C5180 C 0.6387 0.92191 -0.00245 0.0
C5181 C 0.61111 0.94591 0.02436 0.0
H5182 H 0.58537 0.94729 0.98459 0.0
C5183 C 0.55378 0.98273 0.00436 0.0
C5184 C 0.54291 0.97352 0.99475 0.0
C5185 C 0.56668 0.97496 0.01231 0.0
C5186 C 0.59235 0.94669 0.99585 0.0
H5187 H 0.67313 0.94172 0.02363 0.0
H5188 H 0.6452 0.9522 0.02574 0.0
H5189 H 0.61353 0.93855 0.98326 0.0
H5190 H 0.53526 0.9492 0.98749 0.0
H5191 H 0.55784 0.93556 0.00138 0.0
H5192 H 0.58976 0.95522 0.03661 0.0
C5193 C 0.64762 0.94204 0.01757 0.0
C5194 C 0.60849 0.94169 0.9951 0.0
C5195 C 0.66358 0.93617 0.01625 0.0
C5196 C 0.54358 0.95642 0.99492 0.0
C5197 C 0.5564 0.94866 0.00292 0.0
C5198 C 0.59489 0.95127 0.02504 0.0
C5199 C 0.635 0.9349 0.00826 0.0
C5200 C 0.61802 0.941 0.00933 0.0
C5201 C 0.56874 0.95802 0.01044 0.0
C5202 C 0.58539 0.95141 0.01079 0.0
H5203 H 0.65704 0.90604 0.98794 0.0
H5204 H 0.62923 0.91587 0.99047 0.0
H5205 H 0.61816 0.94547 0.03555 0.0
H5206 H 0.55341 -0.00402 0.0042 0.0
H5207 H 0.57613 0.98238 0.01798 0.0
C5208 C 0.31182 0.41498 0.26043 0.0
C5209 C 0.32481 0.41844 0.24978 0.0
C5210 C 0.30622 0.39891 0.26222 0.0
C5211 C 0.30806 0.35839 0.2418 0.0
H5212 H 0.29212 0.34242 0.2835 0.0
C5213 C 0.28816 0.29416 0.24392 0.0
C5214 C 0.2711 0.29434 0.24497 0.0
C5215 C 0.29723 0.30693 0.25074 0.0
C5216 C 0.29678 0.34674 0.2719 0.0
H5217 H 0.34233 0.40809 0.23288 0.0
H5218 H 0.33306 0.38008 0.23634 0.0
H5219 H 0.30243 0.37059 0.28136 0.0
H5220 H 0.25009 0.30634 0.25557 0.0
H5221 H 0.26596 0.32897 0.26732 0.0
H5222 H 0.30251 0.3347 0.23232 0.0
C5223 C 0.32672 0.38967 0.24292 0.0
C5224 C 0.30245 0.36287 0.27057 0.0
C5225 C 0.33207 0.40571 0.2409 0.0
C5226 C 0.26331 0.3061 0.2547 0.0
C5227 C 0.27238 0.31895 0.26149 0.0
C5228 C 0.30277 0.3423 0.24321 0.0
C5229 C 0.31374 0.38604 0.2536 0.0
C5230 C 0.30802 0.3689 0.25543 0.0
C5231 C 0.28922 0.32008 0.25836 0.0
C5232 C 0.29699 0.33635 0.2582 0.0
H5233 H 0.30609 0.42469 0.26741 0.0
H5234 H 0.296 0.39661 0.2703 0.0
H5235 H 0.31176 0.36267 0.22984 0.0
H5236 H 0.2943 0.28509 0.23644 0.0
H5237 H 0.31024 0.30754 0.24833 0.0
C5238 C 0.16634 0.56532 -0.00266 0.0
C5239 C 0.17194 0.58123 0.00054 0.0
C5240 C 0.14973 0.56163 -0.00101 0.0
C5241 C 0.11268 0.57571 0.01988 0.0
H5242 H 0.09001 0.55018 0.9868 0.0
C5243 C 0.05336 0.53892 0.02814 0.0
C5244 C 0.04305 0.53733 0.01451 0.0
C5245 C 0.06716 0.54893 0.02736 0.0
C5246 C 0.09612 0.55759 -0.00402 0.0
H5247 H 0.16514 0.6058 0.00767 0.0
H5248 H 0.13607 0.59945 0.01045 0.0
H5249 H 0.11889 0.55668 0.98317 0.0
H5250 H 0.03793 0.54606 0.99011 0.0
H5251 H 0.06196 0.56379 0.98879 0.0
H5252 H 0.08995 0.57621 0.03289 0.0
C5253 C 0.14439 0.58978 0.00691 0.0
C5254 C 0.11269 0.56106 0.99403 0.0
C5255 C 0.16091 0.59343 0.00524 0.0
C5256 C 0.04552 0.54738 0.00089 0.0
C5257 C 0.05941 0.55729 3e-05 0.0
C5258 C 0.09613 0.5721 0.02191 0.0
C5259 C 0.13865 0.57385 0.0039 0.0
C5260 C 0.12112 0.5701 0.00598 0.0
C5261 C 0.07085 0.55728 0.01285 0.0
C5262 C 0.08772 0.56299 0.00998 0.0
H5263 H 0.17481 0.55579 0.99376 0.0
H5264 H 0.14558 0.54921 -0.00327 0.0
H5265 H 0.11898 0.58258 0.02934 0.0
H5266 H 0.05167 0.53116 0.03872 0.0
H5267 H 0.07579 0.54871 0.03741 0.0
C5268 C 0.67752 0.91445 0.26103 0.0
C5269 C 0.67974 0.92603 0.24863 0.0
C5270 C 0.68791 0.90111 0.26223 0.0
C5271 C 0.71343 0.87441 0.23828 0.0
H5272 H 0.7257 0.8589 0.28134 0.0
C5273 C 0.73795 0.80929 0.24954 0.0
C5274 C 0.72836 0.80093 0.26112 0.0
C5275 C 0.73674 0.82623 0.24797 0.0
C5276 C 0.72255 0.86319 0.26923 0.0
H5277 H 0.69446 0.9328 0.22766 0.0
H5278 H 0.71265 0.90908 0.22962 0.0
H5279 H 0.71491 0.88651 0.27825 0.0
H5280 H 0.71035 0.80377 0.28039 0.0
H5281 H 0.70826 0.8333 0.27763 0.0
H5282 H 0.72028 0.85072 0.2294 0.0
C5283 C 0.70288 0.91049 0.23844 0.0
C5284 C 0.71638 0.87892 0.26746 0.0
C5285 C 0.69245 0.92394 0.23727 0.0
C5286 C 0.71787 0.80985 0.27135 0.0
C5287 C 0.7168 0.82676 0.26988 0.0
C5288 C 0.71967 0.85865 0.24004 0.0
C5289 C 0.70073 0.89906 0.25102 0.0
C5290 C 0.71099 0.88433 0.25211 0.0
C5291 C 0.7261 0.83506 0.25809 0.0
C5292 C 0.7235 0.85269 0.25565 0.0
H5293 H 0.6676 0.91558 0.26973 0.0
H5294 H 0.68568 0.8922 0.27174 0.0
H5295 H 0.70934 0.87831 0.22632 0.0
H5296 H 0.74615 0.80273 0.24147 0.0
H5297 H 0.74398 0.83241 0.23877 0.0
C5298 C 0.83459 0.08938 0.75245 0.0
C5299 C 0.82651 0.07637 0.74465 0.0
C5300 C 0.82873 0.10525 0.75104 0.0
C5301 C 0.80123 0.13154 0.72654 0.0
H5302 H 0.80494 0.15932 0.76492 0.0
C5303 C 0.76605 0.19009 0.74601 0.0
C5304 C 0.77556 0.20158 0.75457 0.0
C5305 C 0.77353 0.17661 0.73865 0.0
C5306 C 0.80411 0.15179 0.754 0.0
H5307 H 0.80589 0.06954 0.72943 0.0
H5308 H 0.79511 0.09739 0.72749 0.0
H5309 H 0.81411 0.13127 0.76629 0.0
H5310 H 0.80006 0.20956 0.76054 0.0
H5311 H 0.81321 0.18605 0.74755 0.0
H5312 H 0.79013 0.15221 0.71473 0.0
C5313 C 0.80626 0.09537 0.73432 0.0
C5314 C 0.80935 0.1357 0.75478 0.0
C5315 C 0.81231 0.07945 0.73554 0.0
C5316 C 0.79261 0.20077 0.75391 0.0
C5317 C 0.80008 0.18738 0.74648 0.0
C5318 C 0.79565 0.14771 0.72587 0.0
C5319 C 0.81446 0.10845 0.74203 0.0
C5320 C 0.80818 0.1254 0.74104 0.0
C5321 C 0.79049 0.1746 0.74001 0.0
C5322 C 0.7973 0.15797 0.73957 0.0
H5323 H 0.84576 0.08734 0.75926 0.0
H5324 H 0.83557 0.11506 0.75683 0.0
H5325 H 0.80022 0.12392 0.71572 0.0
H5326 H 0.75283 0.19056 0.74657 0.0
H5327 H 0.76592 0.16687 0.73376 0.0
loop_
_geom_bond_atom_site_label_1
_geom_bond_atom_site_label_2
_geom_bond_distance
_geom_bond_site_symmetry_2
_ccdc_geom_bond_type
Li0 N17 1.990 . S
Li0 O60 1.956 . S
Li0 O61 1.970 . S
Li0 O62 1.961 1_455 S
Li1 N25 1.990 . S
Li1 O60 1.970 . S
Li1 O61 1.956 . S
Li1 O63 1.961 . S
Li2 N47 1.990 . S
Li2 O60 1.961 . S
Li2 O62 1.956 1_455 S
Li2 O63 1.970 . S
Li3 N53 1.990 . S
Li3 O61 1.961 1_655 S
Li3 O62 1.970 . S
Li3 O63 1.956 1_655 S
C4 C6 1.348 . S
C4 C7 1.356 . S
C4 O60 1.325 . S
N5 C8 1.314 . S
N5 C9 1.279 . S
C6 C4 1.348 . S
C6 C8 1.353 . S
C6 H64 0.929 . S
C7 C4 1.356 . S
C7 C9 1.358 . S
C7 H65 0.930 . S
C8 N5 1.314 . S
C8 C6 1.353 . S
C8 H66 0.930 . S
C9 N5 1.279 . S
C9 C7 1.358 . S
C9 H67 0.930 . S
C10 C13 1.348 . S
C10 C14 1.368 . S
C10 O61 1.325 . S
C11 N12 1.279 . S
C11 C14 1.361 . S
C11 H68 0.930 1_455 S
N12 C11 1.279 . S
N12 C15 1.314 . S
C13 C10 1.348 . S
C13 C15 1.353 . S
C13 H69 0.929 . S
C14 C10 1.368 . S
C14 C11 1.361 . S
C14 H70 0.919 1_455 S
C15 N12 1.314 . S
C15 C13 1.353 . S
C15 H71 0.930 . S
C16 N17 1.314 1_655 S
C16 C21 1.353 . S
C16 H22 0.930 . S
N17 Li0 1.990 . S
N17 C16 1.314 1_455 S
N17 C19 1.279 . S
C18 C19 1.358 . S
C18 C20 1.356 . S
C18 H72 0.930 . S
C19 N17 1.279 . S
C19 C18 1.358 . S
C19 H23 0.930 . S
C20 C18 1.356 . S
C20 C21 1.348 1_455 S
C21 C16 1.353 . S
C21 C20 1.348 1_655 S
C21 H73 0.929 . S
H22 C16 0.930 . S
H23 C19 0.930 . S
C24 N25 1.314 . S
C24 C26 1.353 . S
C24 H30 0.930 . S
N25 Li1 1.990 . S
N25 C24 1.314 . S
N25 C28 1.279 . S
C26 C24 1.353 . S
C26 C29 1.348 . S
C26 H74 0.929 . S
C27 C28 1.358 . S
C27 C29 1.356 . S
C27 H75 0.930 . S
C28 N25 1.279 . S
C28 C27 1.358 . S
C28 H31 0.930 . S
C29 C26 1.348 . S
C29 C27 1.356 . S
H30 C24 0.930 . S
H31 C28 0.930 . S
C32 C34 1.348 . S
C32 C35 1.356 . S
C32 O62 1.325 . S
N33 C36 1.314 . S
N33 C37 1.279 . S
C34 C32 1.348 . S
C34 C36 1.353 . S
C34 H76 0.929 . S
C35 C32 1.356 . S
C35 C37 1.358 . S
C35 H77 0.930 . S
C36 N33 1.314 . S
C36 C34 1.353 . S
C36 H78 0.930 . S
C37 N33 1.279 . S
C37 C35 1.358 . S
C37 H79 0.930 . S
C38 C39 1.348 1_455 S
C38 C40 1.356 . S
C38 O63 1.325 . S
C39 C38 1.348 1_655 S
C39 C41 1.353 . S
C39 H80 0.929 . S
C40 C38 1.356 . S
C40 C42 1.358 . S
C40 H81 0.930 . S
C41 C39 1.353 . S
C41 N43 1.314 1_655 S
C41 H82 0.930 . S
C42 C40 1.358 . S
C42 N43 1.279 . S
C42 H83 0.930 . S
N43 C41 1.314 1_455 S
N43 C42 1.279 . S
C44 C46 1.353 . S
C44 N47 1.314 . S
C44 H50 0.930 . S
C45 N47 1.279 1_655 S
C45 C48 1.358 . S
C45 H51 0.930 . S
C46 C44 1.353 . S
C46 C49 1.348 . S
C46 H84 0.929 . S
N47 Li2 1.990 . S
N47 C44 1.314 . S
N47 C45 1.279 1_455 S
C48 C45 1.358 . S
C48 C49 1.356 1_655 S
C48 H85 0.930 . S
C49 C46 1.348 . S
C49 C48 1.356 1_455 S
H50 C44 0.930 . S
H51 C45 0.930 . S
C52 N53 1.314 . S
C52 C54 1.353 . S
C52 H58 0.930 . S
N53 Li3 1.990 . S
N53 C52 1.314 . S
N53 C56 1.279 . S
C54 C52 1.353 . S
C54 C57 1.348 . S
C54 H86 0.929 . S
C55 C56 1.358 . S
C55 C57 1.356 . S
C55 H87 0.930 . S
C56 N53 1.279 . S
C56 C55 1.358 . S
C56 H59 0.930 . S
C57 C54 1.348 . S
C57 C55 1.356 . S
H58 C52 0.930 . S
H59 C56 0.930 . S
O60 Li0 1.956 . S
O60 Li1 1.970 . S
O60 Li2 1.961 . S
O60 C4 1.325 . S
O61 Li0 1.970 . S
O61 Li1 1.956 . S
O61 Li3 1.961 1_455 S
O61 C10 1.325 . S
O62 Li0 1.961 1_655 S
O62 Li2 1.956 1_655 S
O62 Li3 1.970 . S
O62 C32 1.325 . S
O63 Li1 1.961 . S
O63 Li2 1.970 . S
O63 Li3 1.956 1_455 S
O63 C38 1.325 . S
H64 C6 0.929 . S
H65 C7 0.930 . S
H66 C8 0.930 . S
H67 C9 0.930 . S
H68 C11 0.930 1_655 S
H69 C13 0.929 . S
H70 C14 0.919 1_655 S
H71 C15 0.930 . S
H72 C18 0.930 . S
H73 C21 0.929 . S
H74 C26 0.929 . S
H75 C27 0.930 . S
H76 C34 0.929 . S
H77 C35 0.930 . S
H78 C36 0.930 . S
H79 C37 0.930 . S
H80 C39 0.929 . S
H81 C40 0.930 . S
H82 C41 0.930 . S
H83 C42 0.930 . S
H84 C46 0.929 . S
H85 C48 0.930 . S
H86 C54 0.929 . S
H87 C55 0.930 . S
Li88 N105 1.990 . S
Li88 O148 1.956 1_655 S
Li88 O149 1.970 . S
Li88 O150 1.961 1_655 S
Li89 N113 1.990 . S
Li89 O148 1.970 . S
Li89 O149 1.956 1_455 S
Li89 O151 1.961 . S
Li90 N135 1.990 . S
Li90 O148 1.961 . S
Li90 O150 1.956 . S
Li90 O151 1.970 . S
Li91 N141 1.990 . S
Li91 O149 1.961 1_455 S
Li91 O150 1.970 . S
Li91 O151 1.956 . S
C92 C94 1.348 . S
C92 C95 1.356 . S
C92 O148 1.325 . S
N93 C96 1.314 . S
N93 C97 1.279 . S
C94 C92 1.348 . S
C94 C96 1.353 . S
C94 H152 0.913 1_455 S
C95 C92 1.356 . S
C95 C97 1.358 . S
C95 H153 0.930 . S
C96 N93 1.314 . S
C96 C94 1.353 . S
C96 H154 0.924 1_455 S
C97 N93 1.279 . S
C97 C95 1.358 . S
C97 H155 0.930 . S
C98 C101 1.348 . S
C98 C102 1.356 . S
C98 O149 1.325 . S
C99 N100 1.279 . S
C99 C102 1.358 . S
C99 H156 0.930 . S
N100 C99 1.279 . S
N100 C103 1.314 . S
C101 C98 1.348 . S
C101 C103 1.353 . S
C101 H157 0.929 . S
C102 C98 1.356 . S
C102 C99 1.358 . S
C102 H158 0.930 . S
C103 N100 1.314 . S
C103 C101 1.353 . S
C103 H159 0.930 . S
C104 N105 1.314 . S
C104 C109 1.353 . S
C104 H110 0.930 . S
N105 Li88 1.990 . S
N105 C104 1.314 . S
N105 C107 1.279 . S
C106 C107 1.358 . S
C106 C108 1.356 . S
C106 H160 0.930 . S
C107 N105 1.279 . S
C107 C106 1.358 . S
C107 H111 0.930 . S
C108 C106 1.356 . S
C108 C109 1.348 . S
C109 C104 1.353 . S
C109 C108 1.348 . S
C109 H161 0.929 . S
H110 C104 0.930 . S
H111 C107 0.930 . S
C112 N113 1.314 . S
C112 C114 1.353 . S
C112 H118 0.930 . S
N113 Li89 1.990 . S
N113 C112 1.314 . S
N113 C116 1.279 1_455 S
C114 C112 1.353 . S
C114 C117 1.348 . S
C114 H162 0.929 . S
C115 C116 1.358 . S
C115 C117 1.356 1_655 S
C115 H163 0.930 . S
C116 N113 1.279 1_655 S
C116 C115 1.358 . S
C116 H119 0.930 . S
C117 C114 1.348 . S
C117 C115 1.356 1_455 S
H118 C112 0.930 . S
H119 C116 0.930 . S
C120 C122 1.348 . S
C120 C123 1.356 . S
C120 O150 1.325 . S
N121 C124 1.314 . S
N121 C125 1.279 . S
C122 C120 1.348 . S
C122 C124 1.353 . S
C122 H164 0.929 . S
C123 C120 1.356 . S
C123 C125 1.358 . S
C123 H165 0.930 . S
C124 N121 1.314 . S
C124 C122 1.353 . S
C124 H166 0.930 . S
C125 N121 1.279 . S
C125 C123 1.358 . S
C125 H167 0.930 . S
C126 C127 1.348 . S
C126 C128 1.356 . S
C126 O151 1.325 . S
C127 C126 1.348 . S
C127 C129 1.353 . S
C127 H168 0.929 . S
C128 C126 1.356 . S
C128 C130 1.358 . S
C128 H169 0.930 . S
C129 C127 1.353 . S
C129 N131 1.314 . S
C129 H170 0.930 . S
C130 C128 1.358 . S
C130 N131 1.279 . S
C130 H171 0.930 . S
N131 C129 1.314 . S
N131 C130 1.279 . S
C132 C134 1.353 . S
C132 N135 1.314 . S
C132 H138 0.930 . S
C133 N135 1.279 . S
C133 C136 1.358 . S
C133 H139 0.930 . S
C134 C132 1.353 . S
C134 C137 1.348 . S
C134 H172 0.929 . S
N135 Li90 1.990 . S
N135 C132 1.314 . S
N135 C133 1.279 . S
C136 C133 1.358 . S
C136 C137 1.356 . S
C136 H173 0.930 . S
C137 C134 1.348 . S
C137 C136 1.356 . S
H138 C132 0.930 . S
H139 C133 0.930 . S
C140 N141 1.314 1_655 S
C140 C142 1.353 . S
C140 H146 0.930 . S
N141 Li91 1.990 . S
N141 C140 1.314 1_455 S
N141 C144 1.279 . S
C142 C140 1.353 . S
C142 C145 1.348 1_655 S
C142 H174 0.929 . S
C143 C144 1.358 . S
C143 C145 1.356 . S
C143 H175 0.930 . S
C144 N141 1.279 . S
C144 C143 1.358 . S
C144 H147 0.930 . S
C145 C142 1.348 1_455 S
C145 C143 1.356 . S
H146 C140 0.930 . S
H147 C144 0.930 . S
O148 Li88 1.956 1_455 S
O148 Li89 1.970 . S
O148 Li90 1.961 . S
O148 C92 1.325 . S
O149 Li88 1.970 . S
O149 Li89 1.956 1_655 S
O149 Li91 1.961 1_655 S
O149 C98 1.325 . S
O150 Li88 1.961 1_455 S
O150 Li90 1.956 . S
O150 Li91 1.970 . S
O150 C120 1.325 . S
O151 Li89 1.961 . S
O151 Li90 1.970 . S
O151 Li91 1.956 . S
O151 C126 1.325 . S
H152 C94 0.913 1_655 S
H153 C95 0.930 . S
H154 C96 0.924 1_655 S
H155 C97 0.930 . S
H156 C99 0.930 . S
H157 C101 0.929 . S
H158 C102 0.930 . S
H159 C103 0.930 . S
H160 C106 0.930 . S
H161 C109 0.929 . S
H162 C114 0.929 . S
H163 C115 0.930 . S
H164 C122 0.929 . S
H165 C123 0.930 . S
H166 C124 0.930 . S
H167 C125 0.930 . S
H168 C127 0.929 . S
H169 C128 0.930 . S
H170 C129 0.930 . S
H171 C130 0.930 . S
H172 C134 0.929 . S
H173 C136 0.930 . S
H174 C142 0.929 . S
H175 C143 0.930 . S
Li176 N193 1.990 . S
Li176 O236 1.956 . S
Li176 O237 1.970 . S
Li176 O238 1.961 . S
Li177 N201 1.990 . S
Li177 O236 1.970 . S
Li177 O237 1.956 . S
Li177 O239 1.961 . S
Li178 N223 1.990 . S
Li178 O236 1.961 . S
Li178 O238 1.956 . S
Li178 O239 1.970 . S
Li179 N229 1.990 . S
Li179 O237 1.961 . S
Li179 O238 1.970 . S
Li179 O239 1.956 . S
C180 C182 1.348 . S
C180 C183 1.356 . S
C180 O236 1.325 . S
N181 C184 1.314 . S
N181 C185 1.279 . S
C182 C180 1.348 . S
C182 C184 1.353 . S
C182 H240 0.929 . S
C183 C180 1.356 . S
C183 C185 1.358 . S
C183 H241 0.930 . S
C184 N181 1.314 . S
C184 C182 1.353 . S
C184 H242 0.930 . S
C185 N181 1.279 . S
C185 C183 1.358 . S
C185 H243 0.930 . S
C186 C189 1.348 . S
C186 C190 1.356 . S
C186 O237 1.325 . S
C187 N188 1.279 . S
C187 C190 1.358 . S
C187 H244 0.930 . S
N188 C187 1.279 . S
N188 C191 1.314 . S
C189 C186 1.348 . S
C189 C191 1.353 . S
C189 H245 0.929 . S
C190 C186 1.356 . S
C190 C187 1.358 . S
C190 H246 0.930 . S
C191 N188 1.314 . S
C191 C189 1.353 . S
C191 H247 0.930 . S
C192 N193 1.314 . S
C192 C197 1.353 . S
C192 H198 0.930 . S
N193 Li176 1.990 . S
N193 C192 1.314 . S
N193 C195 1.279 . S
C194 C195 1.358 . S
C194 C196 1.356 . S
C194 H248 0.930 . S
C195 N193 1.279 . S
C195 C194 1.358 . S
C195 H199 0.930 . S
C196 C194 1.356 . S
C196 C197 1.348 . S
C197 C192 1.353 . S
C197 C196 1.348 . S
C197 H249 0.929 . S
H198 C192 0.930 . S
H199 C195 0.930 . S
C200 N201 1.314 . S
C200 C202 1.353 . S
C200 H206 0.930 . S
N201 Li177 1.990 . S
N201 C200 1.314 . S
N201 C204 1.279 . S
C202 C200 1.353 . S
C202 C205 1.348 . S
C202 H250 0.929 . S
C203 C204 1.358 . S
C203 C205 1.356 . S
C203 H251 0.930 . S
C204 N201 1.279 . S
C204 C203 1.358 . S
C204 H207 0.930 . S
C205 C202 1.348 . S
C205 C203 1.356 . S
H206 C200 0.930 . S
H207 C204 0.930 . S
C208 C210 1.348 . S
C208 C211 1.356 . S
C208 O238 1.325 . S
N209 C212 1.314 . S
N209 C213 1.279 . S
C210 C208 1.348 . S
C210 C212 1.353 . S
C210 H252 0.929 . S
C211 C208 1.356 . S
C211 C213 1.358 . S
C211 H253 0.930 . S
C212 N209 1.314 . S
C212 C210 1.353 . S
C212 H254 0.930 . S
C213 N209 1.279 . S
C213 C211 1.358 . S
C213 H255 0.930 . S
C214 C215 1.348 . S
C214 C216 1.356 . S
C214 O239 1.325 . S
C215 C214 1.348 . S
C215 C217 1.353 . S
C215 H256 0.929 . S
C216 C214 1.356 . S
C216 C218 1.358 . S
C216 H257 0.930 . S
C217 C215 1.353 . S
C217 N219 1.314 . S
C217 H258 0.930 . S
C218 C216 1.358 . S
C218 N219 1.279 . S
C218 H259 0.930 . S
N219 C217 1.314 . S
N219 C218 1.279 . S
C220 C222 1.353 . S
C220 N223 1.314 . S
C220 H226 0.930 . S
C221 N223 1.279 . S
C221 C224 1.358 . S
C221 H227 0.930 . S
C222 C220 1.353 . S
C222 C225 1.348 . S
C222 H260 0.929 . S
N223 Li178 1.990 . S
N223 C220 1.314 . S
N223 C221 1.279 . S
C224 C221 1.358 . S
C224 C225 1.356 . S
C224 H261 0.930 . S
C225 C222 1.348 . S
C225 C224 1.356 . S
H226 C220 0.930 . S
H227 C221 0.930 . S
C228 N229 1.314 . S
C228 C230 1.353 . S
C228 H234 0.930 . S
N229 Li179 1.990 . S
N229 C228 1.314 . S
N229 C232 1.279 . S
C230 C228 1.353 . S
C230 C233 1.348 . S
C230 H262 0.929 . S
C231 C232 1.358 . S
C231 C233 1.356 . S
C231 H263 0.930 . S
C232 N229 1.279 . S
C232 C231 1.358 . S
C232 H235 0.930 . S
C233 C230 1.348 . S
C233 C231 1.356 . S
H234 C228 0.930 . S
H235 C232 0.930 . S
O236 Li176 1.956 . S
O236 Li177 1.970 . S
O236 Li178 1.961 . S
O236 C180 1.325 . S
O237 Li176 1.970 . S
O237 Li177 1.956 . S
O237 Li179 1.961 . S
O237 C186 1.325 . S
O238 Li176 1.961 . S
O238 Li178 1.956 . S
O238 Li179 1.970 . S
O238 C208 1.325 . S
O239 Li177 1.961 . S
O239 Li178 1.970 . S
O239 Li179 1.956 . S
O239 C214 1.325 . S
H240 C182 0.929 . S
H241 C183 0.930 . S
H242 C184 0.930 . S
H243 C185 0.930 . S
H244 C187 0.930 . S
H245 C189 0.929 . S
H246 C190 0.930 . S
H247 C191 0.930 . S
H248 C194 0.930 . S
H249 C197 0.929 . S
H250 C202 0.929 . S
H251 C203 0.930 . S
H252 C210 0.929 . S
H253 C211 0.930 . S
H254 C212 0.930 . S
H255 C213 0.930 . S
H256 C215 0.929 . S
H257 C216 0.930 . S
H258 C217 0.930 . S
H259 C218 0.930 . S
H260 C222 0.929 . S
H261 C224 0.930 . S
H262 C230 0.929 . S
H263 C231 0.930 . S
Li264 N281 1.990 . S
Li264 O324 1.956 . S
Li264 O325 1.970 . S
Li264 O326 1.961 . S
Li265 N289 1.990 . S
Li265 O324 1.970 . S
Li265 O325 1.956 . S
Li265 O327 1.961 . S
Li266 N311 1.990 . S
Li266 O324 1.961 . S
Li266 O326 1.956 . S
Li266 O327 1.970 . S
Li267 N317 1.990 . S
Li267 O325 1.961 . S
Li267 O326 1.970 . S
Li267 O327 1.956 . S
C268 C270 1.348 . S
C268 C271 1.356 . S
C268 O324 1.325 . S
N269 C272 1.314 . S
N269 C273 1.279 . S
C270 C268 1.348 . S
C270 C272 1.353 . S
C270 H328 0.929 . S
C271 C268 1.356 . S
C271 C273 1.358 . S
C271 H329 0.930 . S
C272 N269 1.314 . S
C272 C270 1.353 . S
C272 H330 0.930 . S
C273 N269 1.279 . S
C273 C271 1.358 . S
C273 H331 0.930 . S
C274 C277 1.348 . S
C274 C278 1.356 . S
C274 O325 1.325 . S
C275 N276 1.279 . S
C275 C278 1.358 . S
C275 H332 0.930 . S
N276 C275 1.279 . S
N276 C279 1.314 . S
C277 C274 1.348 . S
C277 C279 1.353 . S
C277 H333 0.929 . S
C278 C274 1.356 . S
C278 C275 1.358 . S
C278 H334 0.930 . S
C279 N276 1.314 . S
C279 C277 1.353 . S
C279 H335 0.930 . S
C280 N281 1.314 . S
C280 C285 1.353 . S
C280 H286 0.930 . S
N281 Li264 1.990 . S
N281 C280 1.314 . S
N281 C283 1.279 . S
C282 C283 1.358 . S
C282 C284 1.356 . S
C282 H336 0.930 . S
C283 N281 1.279 . S
C283 C282 1.358 . S
C283 H287 0.930 . S
C284 C282 1.356 . S
C284 C285 1.348 . S
C285 C280 1.353 . S
C285 C284 1.348 . S
C285 H337 0.929 . S
H286 C280 0.930 . S
H287 C283 0.930 . S
C288 N289 1.314 . S
C288 C290 1.353 . S
C288 H294 0.930 . S
N289 Li265 1.990 . S
N289 C288 1.314 . S
N289 C292 1.279 . S
C290 C288 1.353 . S
C290 C293 1.348 . S
C290 H338 0.929 . S
C291 C292 1.358 . S
C291 C293 1.356 . S
C291 H339 0.930 . S
C292 N289 1.279 . S
C292 C291 1.358 . S
C292 H295 0.930 . S
C293 C290 1.348 . S
C293 C291 1.356 . S
H294 C288 0.930 . S
H295 C292 0.930 . S
C296 C298 1.348 . S
C296 C299 1.356 . S
C296 O326 1.325 . S
N297 C300 1.314 . S
N297 C301 1.279 . S
C298 C296 1.348 . S
C298 C300 1.353 . S
C298 H340 0.929 . S
C299 C296 1.356 . S
C299 C301 1.358 . S
C299 H341 0.930 . S
C300 N297 1.314 . S
C300 C298 1.353 . S
C300 H342 0.930 . S
C301 N297 1.279 . S
C301 C299 1.358 . S
C301 H343 0.930 . S
C302 C303 1.348 . S
C302 C304 1.356 . S
C302 O327 1.325 . S
C303 C302 1.348 . S
C303 C305 1.353 . S
C303 H344 0.929 . S
C304 C302 1.356 . S
C304 C306 1.358 . S
C304 H345 0.930 . S
C305 C303 1.353 . S
C305 N307 1.314 . S
C305 H346 0.930 . S
C306 C304 1.358 . S
C306 N307 1.279 . S
C306 H347 0.930 . S
N307 C305 1.314 . S
N307 C306 1.279 . S
C308 C310 1.353 . S
C308 N311 1.314 . S
C308 H314 0.930 . S
C309 N311 1.279 . S
C309 C312 1.358 . S
C309 H315 0.930 . S
C310 C308 1.353 . S
C310 C313 1.348 . S
C310 H348 0.929 . S
N311 Li266 1.990 . S
N311 C308 1.314 . S
N311 C309 1.279 . S
C312 C309 1.358 . S
C312 C313 1.356 . S
C312 H349 0.930 . S
C313 C310 1.348 . S
C313 C312 1.356 . S
H314 C308 0.930 . S
H315 C309 0.930 . S
C316 N317 1.314 . S
C316 C318 1.353 . S
C316 H322 0.930 . S
N317 Li267 1.990 . S
N317 C316 1.314 . S
N317 C320 1.279 . S
C318 C316 1.353 . S
C318 C321 1.348 . S
C318 H350 0.929 . S
C319 C320 1.358 . S
C319 C321 1.356 . S
C319 H351 0.930 . S
C320 N317 1.279 . S
C320 C319 1.358 . S
C320 H323 0.930 . S
C321 C318 1.348 . S
C321 C319 1.356 . S
H322 C316 0.930 . S
H323 C320 0.930 . S
O324 Li264 1.956 . S
O324 Li265 1.970 . S
O324 Li266 1.961 . S
O324 C268 1.325 . S
O325 Li264 1.970 . S
O325 Li265 1.956 . S
O325 Li267 1.961 . S
O325 C274 1.325 . S
O326 Li264 1.961 . S
O326 Li266 1.956 . S
O326 Li267 1.970 . S
O326 C296 1.325 . S
O327 Li265 1.961 . S
O327 Li266 1.970 . S
O327 Li267 1.956 . S
O327 C302 1.325 . S
H328 C270 0.929 . S
H329 C271 0.930 . S
H330 C272 0.930 . S
H331 C273 0.930 . S
H332 C275 0.930 . S
H333 C277 0.929 . S
H334 C278 0.930 . S
H335 C279 0.930 . S
H336 C282 0.930 . S
H337 C285 0.929 . S
H338 C290 0.929 . S
H339 C291 0.930 . S
H340 C298 0.929 . S
H341 C299 0.930 . S
H342 C300 0.930 . S
H343 C301 0.930 . S
H344 C303 0.929 . S
H345 C304 0.930 . S
H346 C305 0.930 . S
H347 C306 0.930 . S
H348 C310 0.929 . S
H349 C312 0.930 . S
H350 C318 0.929 . S
H351 C319 0.930 . S
Li352 N369 1.990 . S
Li352 O412 1.956 . S
Li352 O413 1.970 . S
Li352 O414 1.961 1_545 S
Li353 N377 1.990 . S
Li353 O412 1.970 . S
Li353 O413 1.956 . S
Li353 O415 1.961 . S
Li354 N399 1.990 . S
Li354 O412 1.961 . S
Li354 O414 1.956 1_545 S
Li354 O415 1.970 . S
Li355 N405 1.990 . S
Li355 O413 1.961 1_565 S
Li355 O414 1.970 . S
Li355 O415 1.956 1_565 S
C356 C358 1.348 . S
C356 C359 1.356 . S
C356 O412 1.325 . S
N357 C360 1.314 . S
N357 C361 1.279 . S
C358 C356 1.348 . S
C358 C360 1.353 . S
C358 H416 0.929 . S
C359 C356 1.356 . S
C359 C361 1.358 . S
C359 H417 0.930 . S
C360 N357 1.314 . S
C360 C358 1.353 . S
C360 H418 0.930 . S
C361 N357 1.279 . S
C361 C359 1.358 . S
C361 H419 0.930 . S
C362 C365 1.348 . S
C362 C366 1.355 1_545 S
C362 O413 1.325 . S
C363 N364 1.284 . S
C363 C366 1.358 1_545 S
C363 H420 0.926 1_545 S
N364 C363 1.284 . S
N364 C367 1.314 . S
C365 C362 1.348 . S
C365 C367 1.353 . S
C365 H421 0.929 . S
C366 C362 1.355 1_565 S
C366 C363 1.358 1_565 S
C366 H422 0.930 . S
C367 N364 1.314 . S
C367 C365 1.353 . S
C367 H423 0.930 . S
C368 N369 1.314 1_565 S
C368 C373 1.353 . S
C368 H374 0.930 . S
N369 Li352 1.990 . S
N369 C368 1.314 1_545 S
N369 C371 1.279 . S
C370 C371 1.358 . S
C370 C372 1.356 . S
C370 H424 0.930 . S
C371 N369 1.279 . S
C371 C370 1.358 . S
C371 H375 0.930 . S
C372 C370 1.356 . S
C372 C373 1.348 1_545 S
C373 C368 1.353 . S
C373 C372 1.348 1_565 S
C373 H425 0.929 . S
H374 C368 0.930 . S
H375 C371 0.930 . S
C376 N377 1.314 . S
C376 C378 1.353 . S
C376 H382 0.930 . S
N377 Li353 1.990 . S
N377 C376 1.314 . S
N377 C380 1.279 . S
C378 C376 1.353 . S
C378 C381 1.348 . S
C378 H426 0.929 . S
C379 C380 1.358 . S
C379 C381 1.356 . S
C379 H427 0.930 . S
C380 N377 1.279 . S
C380 C379 1.358 . S
C380 H383 0.930 . S
C381 C378 1.348 . S
C381 C379 1.356 . S
H382 C376 0.930 . S
H383 C380 0.930 . S
C384 C386 1.348 . S
C384 C387 1.356 . S
C384 O414 1.325 . S
N385 C388 1.314 . S
N385 C389 1.279 . S
C386 C384 1.348 . S
C386 C388 1.353 . S
C386 H428 0.929 . S
C387 C384 1.356 . S
C387 C389 1.358 . S
C387 H429 0.930 . S
C388 N385 1.314 . S
C388 C386 1.353 . S
C388 H430 0.930 . S
C389 N385 1.279 . S
C389 C387 1.358 . S
C389 H431 0.930 . S
C390 C391 1.348 1_545 S
C390 C392 1.356 . S
C390 O415 1.325 . S
C391 C390 1.348 1_565 S
C391 C393 1.353 . S
C391 H432 0.929 . S
C392 C390 1.356 . S
C392 C394 1.358 . S
C392 H433 0.930 . S
C393 C391 1.353 . S
C393 N395 1.314 1_565 S
C393 H434 0.930 . S
C394 C392 1.358 . S
C394 N395 1.279 . S
C394 H435 0.930 . S
N395 C393 1.314 1_545 S
N395 C394 1.279 . S
C396 C398 1.353 . S
C396 N399 1.314 . S
C396 H402 0.930 . S
C397 N399 1.279 1_565 S
C397 C400 1.358 . S
C397 H403 0.930 . S
C398 C396 1.353 . S
C398 C401 1.348 . S
C398 H436 0.929 . S
N399 Li354 1.990 . S
N399 C396 1.314 . S
N399 C397 1.279 1_545 S
C400 C397 1.358 . S
C400 C401 1.356 1_565 S
C400 H437 0.930 . S
C401 C398 1.348 . S
C401 C400 1.356 1_545 S
H402 C396 0.930 . S
H403 C397 0.930 . S
C404 N405 1.314 . S
C404 C406 1.353 . S
C404 H410 0.930 . S
N405 Li355 1.990 . S
N405 C404 1.314 . S
N405 C408 1.279 . S
C406 C404 1.353 . S
C406 C409 1.348 . S
C406 H438 0.929 . S
C407 C408 1.358 . S
C407 C409 1.356 . S
C407 H439 0.930 . S
C408 N405 1.279 . S
C408 C407 1.358 . S
C408 H411 0.930 . S
C409 C406 1.348 . S
C409 C407 1.356 . S
H410 C404 0.930 . S
H411 C408 0.930 . S
O412 Li352 1.956 . S
O412 Li353 1.970 . S
O412 Li354 1.961 . S
O412 C356 1.325 . S
O413 Li352 1.970 . S
O413 Li353 1.956 . S
O413 Li355 1.961 1_545 S
O413 C362 1.325 . S
O414 Li352 1.961 1_565 S
O414 Li354 1.956 1_565 S
O414 Li355 1.970 . S
O414 C384 1.325 . S
O415 Li353 1.961 . S
O415 Li354 1.970 . S
O415 Li355 1.956 1_545 S
O415 C390 1.325 . S
H416 C358 0.929 . S
H417 C359 0.930 . S
H418 C360 0.930 . S
H419 C361 0.930 . S
H420 C363 0.926 1_565 S
H421 C365 0.929 . S
H422 C366 0.930 . S
H423 C367 0.930 . S
H424 C370 0.930 . S
H425 C373 0.929 . S
H426 C378 0.929 . S
H427 C379 0.930 . S
H428 C386 0.929 . S
H429 C387 0.930 . S
H430 C388 0.930 . S
H431 C389 0.930 . S
H432 C391 0.929 . S
H433 C392 0.930 . S
H434 C393 0.930 . S
H435 C394 0.930 . S
H436 C398 0.929 . S
H437 C400 0.930 . S
H438 C406 0.929 . S
H439 C407 0.930 . S
Li440 N457 1.990 . S
Li440 O500 1.956 . S
Li440 O501 1.970 . S
Li440 O502 1.961 . S
Li441 N465 1.990 . S
Li441 O500 1.970 . S
Li441 O501 1.956 . S
Li441 O503 1.961 . S
Li442 N487 1.990 . S
Li442 O500 1.961 . S
Li442 O502 1.956 . S
Li442 O503 1.970 . S
Li443 N493 1.990 . S
Li443 O501 1.961 . S
Li443 O502 1.970 . S
Li443 O503 1.956 . S
C444 C446 1.348 . S
C444 C447 1.356 . S
C444 O500 1.325 . S
N445 C448 1.314 . S
N445 C449 1.279 . S
C446 C444 1.348 . S
C446 C448 1.353 . S
C446 H504 0.929 . S
C447 C444 1.356 . S
C447 C449 1.358 . S
C447 H505 0.930 . S
C448 N445 1.314 . S
C448 C446 1.353 . S
C448 H506 0.930 . S
C449 N445 1.279 . S
C449 C447 1.358 . S
C449 H507 0.930 . S
C450 C453 1.348 . S
C450 C454 1.356 . S
C450 O501 1.325 . S
C451 N452 1.279 . S
C451 C454 1.358 . S
C451 H508 0.930 . S
N452 C451 1.279 . S
N452 C455 1.314 . S
C453 C450 1.348 . S
C453 C455 1.353 . S
C453 H509 0.929 . S
C454 C450 1.356 . S
C454 C451 1.358 . S
C454 H510 0.930 . S
C455 N452 1.314 . S
C455 C453 1.353 . S
C455 H511 0.930 . S
C456 N457 1.314 . S
C456 C461 1.353 . S
C456 H462 0.930 . S
N457 Li440 1.990 . S
N457 C456 1.314 . S
N457 C459 1.279 . S
C458 C459 1.358 . S
C458 C460 1.356 . S
C458 H512 0.930 . S
C459 N457 1.279 . S
C459 C458 1.358 . S
C459 H463 0.930 . S
C460 C458 1.356 . S
C460 C461 1.348 . S
C461 C456 1.353 . S
C461 C460 1.348 . S
C461 H513 0.929 . S
H462 C456 0.930 . S
H463 C459 0.930 . S
C464 N465 1.314 . S
C464 C466 1.353 . S
C464 H470 0.930 . S
N465 Li441 1.990 . S
N465 C464 1.314 . S
N465 C468 1.279 . S
C466 C464 1.353 . S
C466 C469 1.348 . S
C466 H514 0.929 . S
C467 C468 1.358 . S
C467 C469 1.356 . S
C467 H515 0.930 . S
C468 N465 1.279 . S
C468 C467 1.358 . S
C468 H471 0.930 . S
C469 C466 1.348 . S
C469 C467 1.356 . S
H470 C464 0.930 . S
H471 C468 0.930 . S
C472 C474 1.348 . S
C472 C475 1.356 . S
C472 O502 1.325 . S
N473 C476 1.314 . S
N473 C477 1.279 . S
C474 C472 1.348 . S
C474 C476 1.353 . S
C474 H516 0.929 . S
C475 C472 1.356 . S
C475 C477 1.358 . S
C475 H517 0.930 . S
C476 N473 1.314 . S
C476 C474 1.353 . S
C476 H518 0.930 . S
C477 N473 1.279 . S
C477 C475 1.358 . S
C477 H519 0.930 . S
C478 C479 1.348 . S
C478 C480 1.356 . S
C478 O503 1.325 . S
C479 C478 1.348 . S
C479 C481 1.353 . S
C479 H520 0.929 . S
C480 C478 1.356 . S
C480 C482 1.358 . S
C480 H521 0.930 . S
C481 C479 1.353 . S
C481 N483 1.314 . S
C481 H522 0.930 . S
C482 C480 1.358 . S
C482 N483 1.279 . S
C482 H523 0.930 . S
N483 C481 1.314 . S
N483 C482 1.279 . S
C484 C486 1.353 . S
C484 N487 1.314 . S
C484 H490 0.930 . S
C485 N487 1.279 . S
C485 C488 1.358 . S
C485 H491 0.930 . S
C486 C484 1.353 . S
C486 C489 1.348 . S
C486 H524 0.929 . S
N487 Li442 1.990 . S
N487 C484 1.314 . S
N487 C485 1.279 . S
C488 C485 1.358 . S
C488 C489 1.356 . S
C488 H525 0.930 . S
C489 C486 1.348 . S
C489 C488 1.356 . S
H490 C484 0.930 . S
H491 C485 0.930 . S
C492 N493 1.314 . S
C492 C494 1.353 . S
C492 H498 0.930 . S
N493 Li443 1.990 . S
N493 C492 1.314 . S
N493 C496 1.279 . S
C494 C492 1.353 . S
C494 C497 1.348 . S
C494 H526 0.929 . S
C495 C496 1.358 . S
C495 C497 1.356 . S
C495 H527 0.930 . S
C496 N493 1.279 . S
C496 C495 1.358 . S
C496 H499 0.930 . S
C497 C494 1.348 . S
C497 C495 1.356 . S
H498 C492 0.930 . S
H499 C496 0.930 . S
O500 Li440 1.956 . S
O500 Li441 1.970 . S
O500 Li442 1.961 . S
O500 C444 1.325 . S
O501 Li440 1.970 . S
O501 Li441 1.956 . S
O501 Li443 1.961 . S
O501 C450 1.325 . S
O502 Li440 1.961 . S
O502 Li442 1.956 . S
O502 Li443 1.970 . S
O502 C472 1.325 . S
O503 Li441 1.961 . S
O503 Li442 1.970 . S
O503 Li443 1.956 . S
O503 C478 1.325 . S
H504 C446 0.929 . S
H505 C447 0.930 . S
H506 C448 0.930 . S
H507 C449 0.930 . S
H508 C451 0.930 . S
H509 C453 0.929 . S
H510 C454 0.930 . S
H511 C455 0.930 . S
H512 C458 0.930 . S
H513 C461 0.929 . S
H514 C466 0.929 . S
H515 C467 0.930 . S
H516 C474 0.929 . S
H517 C475 0.930 . S
H518 C476 0.930 . S
H519 C477 0.930 . S
H520 C479 0.929 . S
H521 C480 0.930 . S
H522 C481 0.930 . S
H523 C482 0.930 . S
H524 C486 0.929 . S
H525 C488 0.930 . S
H526 C494 0.929 . S
H527 C495 0.930 . S
Li528 N545 1.990 . S
Li528 O588 1.956 1_565 S
Li528 O589 1.970 . S
Li528 O590 1.961 1_565 S
Li529 N553 1.990 . S
Li529 O588 1.970 . S
Li529 O589 1.956 1_545 S
Li529 O591 1.961 . S
Li530 N575 1.990 . S
Li530 O588 1.961 . S
Li530 O590 1.956 . S
Li530 O591 1.970 . S
Li531 N581 1.990 . S
Li531 O589 1.961 1_545 S
Li531 O590 1.970 . S
Li531 O591 1.956 . S
C532 C534 1.348 . S
C532 C535 1.356 . S
C532 O588 1.325 . S
N533 C536 1.314 . S
N533 C537 1.279 . S
C534 C532 1.348 . S
C534 C536 1.353 . S
C534 H592 0.929 1_545 S
C535 C532 1.356 . S
C535 C537 1.358 . S
C535 H593 0.930 . S
C536 N533 1.314 . S
C536 C534 1.353 . S
C536 H594 0.930 1_545 S
C537 N533 1.279 . S
C537 C535 1.358 . S
C537 H595 0.930 . S
C538 C541 1.348 . S
C538 C542 1.356 . S
C538 O589 1.325 . S
C539 N540 1.279 . S
C539 C542 1.358 . S
C539 H596 0.930 . S
N540 C539 1.279 . S
N540 C543 1.314 . S
C541 C538 1.348 . S
C541 C543 1.353 . S
C541 H597 0.929 . S
C542 C538 1.356 . S
C542 C539 1.358 . S
C542 H598 0.930 . S
C543 N540 1.314 . S
C543 C541 1.353 . S
C543 H599 0.930 . S
C544 N545 1.314 . S
C544 C549 1.353 . S
C544 H550 0.930 . S
N545 Li528 1.990 . S
N545 C544 1.314 . S
N545 C547 1.279 . S
C546 C547 1.358 . S
C546 C548 1.356 . S
C546 H600 0.930 . S
C547 N545 1.279 . S
C547 C546 1.358 . S
C547 H551 0.930 . S
C548 C546 1.356 . S
C548 C549 1.348 . S
C549 C544 1.353 . S
C549 C548 1.348 . S
C549 H601 0.929 . S
H550 C544 0.930 . S
H551 C547 0.930 . S
C552 N553 1.314 . S
C552 C554 1.353 . S
C552 H558 0.930 . S
N553 Li529 1.990 . S
N553 C552 1.314 . S
N553 C556 1.279 1_545 S
C554 C552 1.353 . S
C554 C557 1.348 . S
C554 H602 0.929 . S
C555 C556 1.358 . S
C555 C557 1.356 1_565 S
C555 H603 0.930 . S
C556 N553 1.279 1_565 S
C556 C555 1.358 . S
C556 H559 0.930 . S
C557 C554 1.348 . S
C557 C555 1.356 1_545 S
H558 C552 0.930 . S
H559 C556 0.930 . S
C560 C562 1.348 . S
C560 C563 1.356 . S
C560 O590 1.325 . S
N561 C564 1.314 . S
N561 C565 1.279 . S
C562 C560 1.348 . S
C562 C564 1.353 . S
C562 H604 0.929 . S
C563 C560 1.356 . S
C563 C565 1.358 . S
C563 H605 0.930 . S
C564 N561 1.314 . S
C564 C562 1.353 . S
C564 H606 0.930 . S
C565 N561 1.279 . S
C565 C563 1.358 . S
C565 H607 0.930 . S
C566 C567 1.348 . S
C566 C568 1.356 . S
C566 O591 1.325 . S
C567 C566 1.348 . S
C567 C569 1.353 . S
C567 H608 0.929 . S
C568 C566 1.356 . S
C568 C570 1.358 . S
C568 H609 0.930 . S
C569 C567 1.353 . S
C569 N571 1.314 . S
C569 H610 0.930 . S
C570 C568 1.358 . S
C570 N571 1.279 . S
C570 H611 0.930 . S
N571 C569 1.314 . S
N571 C570 1.279 . S
C572 C574 1.353 . S
C572 N575 1.314 . S
C572 H578 0.930 . S
C573 N575 1.279 . S
C573 C576 1.358 . S
C573 H579 0.930 . S
C574 C572 1.353 . S
C574 C577 1.348 . S
C574 H612 0.929 . S
N575 Li530 1.990 . S
N575 C572 1.314 . S
N575 C573 1.279 . S
C576 C573 1.358 . S
C576 C577 1.356 . S
C576 H613 0.930 . S
C577 C574 1.348 . S
C577 C576 1.356 . S
H578 C572 0.930 . S
H579 C573 0.930 . S
C580 N581 1.314 1_565 S
C580 C582 1.353 . S
C580 H586 0.930 . S
N581 Li531 1.990 . S
N581 C580 1.314 1_545 S
N581 C584 1.279 . S
C582 C580 1.353 . S
C582 C585 1.348 1_565 S
C582 H614 0.929 . S
C583 C584 1.358 . S
C583 C585 1.356 . S
C583 H615 0.930 . S
C584 N581 1.279 . S
C584 C583 1.358 . S
C584 H587 0.930 . S
C585 C582 1.348 1_545 S
C585 C583 1.356 . S
H586 C580 0.930 . S
H587 C584 0.930 . S
O588 Li528 1.956 1_545 S
O588 Li529 1.970 . S
O588 Li530 1.961 . S
O588 C532 1.325 . S
O589 Li528 1.970 . S
O589 Li529 1.956 1_565 S
O589 Li531 1.961 1_565 S
O589 C538 1.325 . S
O590 Li528 1.961 1_545 S
O590 Li530 1.956 . S
O590 Li531 1.970 . S
O590 C560 1.325 . S
O591 Li529 1.961 . S
O591 Li530 1.970 . S
O591 Li531 1.956 . S
O591 C566 1.325 . S
H592 C534 0.929 1_565 S
H593 C535 0.930 . S
H594 C536 0.930 1_565 S
H595 C537 0.930 . S
H596 C539 0.930 . S
H597 C541 0.929 . S
H598 C542 0.930 . S
H599 C543 0.930 . S
H600 C546 0.930 . S
H601 C549 0.929 . S
H602 C554 0.929 . S
H603 C555 0.930 . S
H604 C562 0.929 . S
H605 C563 0.930 . S
H606 C564 0.930 . S
H607 C565 0.930 . S
H608 C567 0.929 . S
H609 C568 0.930 . S
H610 C569 0.930 . S
H611 C570 0.930 . S
H612 C574 0.929 . S
H613 C576 0.930 . S
H614 C582 0.929 . S
H615 C583 0.930 . S
Li616 N633 1.990 . S
Li616 O676 1.956 . S
Li616 O677 1.970 . S
Li616 O678 1.961 . S
Li617 N641 1.990 . S
Li617 O676 1.970 . S
Li617 O677 1.956 . S
Li617 O679 1.961 1_554 S
Li618 N663 1.990 . S
Li618 O676 1.961 1_556 S
Li618 O678 1.956 1_556 S
Li618 O679 1.970 . S
Li619 N669 1.990 . S
Li619 O677 1.961 . S
Li619 O678 1.970 . S
Li619 O679 1.956 1_554 S
C620 C622 1.348 . S
C620 C623 1.356 . S
C620 O676 1.325 . S
N621 C624 1.314 . S
N621 C625 1.279 . S
C622 C620 1.348 . S
C622 C624 1.353 . S
C622 H680 0.929 . S
C623 C620 1.356 . S
C623 C625 1.358 . S
C623 H681 0.929 . S
C624 N621 1.314 . S
C624 C622 1.353 . S
C624 H682 0.930 . S
C625 N621 1.279 . S
C625 C623 1.358 . S
C625 H683 0.933 . S
C626 C629 1.348 . S
C626 C630 1.356 . S
C626 O677 1.325 . S
C627 N628 1.279 . S
C627 C630 1.358 . S
C627 H684 0.930 . S
N628 C627 1.279 . S
N628 C631 1.314 . S
C629 C626 1.348 . S
C629 C631 1.353 . S
C629 H685 0.929 . S
C630 C626 1.356 . S
C630 C627 1.358 . S
C630 H686 0.930 . S
C631 N628 1.314 . S
C631 C629 1.353 . S
C631 H687 0.930 . S
C632 N633 1.314 . S
C632 C637 1.353 . S
C632 H638 0.930 . S
N633 Li616 1.990 . S
N633 C632 1.314 . S
N633 C635 1.279 . S
C634 C635 1.358 . S
C634 C636 1.356 . S
C634 H688 0.930 . S
C635 N633 1.279 . S
C635 C634 1.358 . S
C635 H639 0.930 . S
C636 C634 1.356 . S
C636 C637 1.348 . S
C637 C632 1.353 . S
C637 C636 1.348 . S
C637 H689 0.929 . S
H638 C632 0.930 . S
H639 C635 0.930 . S
C640 N641 1.314 1_556 S
C640 C642 1.353 . S
C640 H646 0.930 . S
N641 Li617 1.990 . S
N641 C640 1.314 1_554 S
N641 C644 1.279 . S
C642 C640 1.353 . S
C642 C645 1.348 1_556 S
C642 H690 0.929 . S
C643 C644 1.358 . S
C643 C645 1.356 . S
C643 H691 0.930 . S
C644 N641 1.279 . S
C644 C643 1.358 . S
C644 H647 0.930 . S
C645 C642 1.348 1_554 S
C645 C643 1.356 . S
H646 C640 0.930 . S
H647 C644 0.930 . S
C648 C650 1.360 . S
C648 C651 1.356 . S
C648 O678 1.325 . S
N649 C652 1.324 . S
N649 C653 1.279 . S
C650 C648 1.360 . S
C650 C652 1.353 . S
C650 H692 0.919 1_554 S
C651 C648 1.356 . S
C651 C653 1.358 . S
C651 H693 0.930 . S
C652 N649 1.324 . S
C652 C650 1.353 . S
C652 H694 0.920 1_554 S
C653 N649 1.279 . S
C653 C651 1.358 . S
C653 H695 0.930 . S
C654 C655 1.348 . S
C654 C656 1.356 . S
C654 O679 1.325 . S
C655 C654 1.348 . S
C655 C657 1.353 . S
C655 H696 0.929 . S
C656 C654 1.356 . S
C656 C658 1.358 . S
C656 H697 0.930 . S
C657 C655 1.353 . S
C657 N659 1.314 . S
C657 H698 0.930 . S
C658 C656 1.358 . S
C658 N659 1.279 . S
C658 H699 0.930 . S
N659 C657 1.314 . S
N659 C658 1.279 . S
C660 C662 1.353 . S
C660 N663 1.314 . S
C660 H666 0.930 . S
C661 N663 1.279 . S
C661 C664 1.358 . S
C661 H667 0.930 . S
C662 C660 1.353 . S
C662 C665 1.348 . S
C662 H700 0.929 . S
N663 Li618 1.990 . S
N663 C660 1.314 . S
N663 C661 1.279 . S
C664 C661 1.358 . S
C664 C665 1.356 . S
C664 H701 0.930 . S
C665 C662 1.348 . S
C665 C664 1.356 . S
H666 C660 0.930 . S
H667 C661 0.930 . S
C668 N669 1.314 . S
C668 C670 1.353 . S
C668 H674 0.930 . S
N669 Li619 1.990 . S
N669 C668 1.314 . S
N669 C672 1.279 1_554 S
C670 C668 1.353 . S
C670 C673 1.348 . S
C670 H702 0.929 . S
C671 C672 1.358 . S
C671 C673 1.356 1_556 S
C671 H703 0.930 . S
C672 N669 1.279 1_556 S
C672 C671 1.358 . S
C672 H675 0.930 . S
C673 C670 1.348 . S
C673 C671 1.356 1_554 S
H674 C668 0.930 . S
H675 C672 0.930 . S
O676 Li616 1.956 . S
O676 Li617 1.970 . S
O676 Li618 1.961 1_554 S
O676 C620 1.325 . S
O677 Li616 1.970 . S
O677 Li617 1.956 . S
O677 Li619 1.961 . S
O677 C626 1.325 . S
O678 Li616 1.961 . S
O678 Li618 1.956 1_554 S
O678 Li619 1.970 . S
O678 C648 1.325 . S
O679 Li617 1.961 1_556 S
O679 Li618 1.970 . S
O679 Li619 1.956 1_556 S
O679 C654 1.325 . S
H680 C622 0.929 . S
H681 C623 0.929 . S
H682 C624 0.930 . S
H683 C625 0.933 . S
H684 C627 0.930 . S
H685 C629 0.929 . S
H686 C630 0.930 . S
H687 C631 0.930 . S
H688 C634 0.930 . S
H689 C637 0.929 . S
H690 C642 0.929 . S
H691 C643 0.930 . S
H692 C650 0.919 1_556 S
H693 C651 0.930 . S
H694 C652 0.920 1_556 S
H695 C653 0.930 . S
H696 C655 0.929 . S
H697 C656 0.930 . S
H698 C657 0.930 . S
H699 C658 0.930 . S
H700 C662 0.929 . S
H701 C664 0.930 . S
H702 C670 0.929 . S
H703 C671 0.930 . S
Li704 N721 1.990 . S
Li704 O764 1.956 . S
Li704 O765 1.970 . S
Li704 O766 1.961 1_554 S
Li705 N729 1.990 . S
Li705 O764 1.970 . S
Li705 O765 1.956 . S
Li705 O767 1.961 . S
Li706 N751 1.990 . S
Li706 O764 1.961 . S
Li706 O766 1.956 1_554 S
Li706 O767 1.970 . S
Li707 N757 1.990 . S
Li707 O765 1.961 1_556 S
Li707 O766 1.970 . S
Li707 O767 1.956 1_556 S
C708 C710 1.348 . S
C708 C711 1.356 . S
C708 O764 1.325 . S
N709 C712 1.314 . S
N709 C713 1.279 . S
C710 C708 1.348 . S
C710 C712 1.353 . S
C710 H768 0.929 . S
C711 C708 1.356 . S
C711 C713 1.358 . S
C711 H769 0.930 . S
C712 N709 1.314 . S
C712 C710 1.353 . S
C712 H770 0.930 . S
C713 N709 1.279 . S
C713 C711 1.358 . S
C713 H771 0.930 . S
C714 C717 1.348 . S
C714 C718 1.356 . S
C714 O765 1.325 . S
C715 N716 1.279 . S
C715 C718 1.358 . S
C715 H772 0.925 1_554 S
N716 C715 1.279 . S
N716 C719 1.314 . S
C717 C714 1.348 . S
C717 C719 1.353 . S
C717 H773 0.929 . S
C718 C714 1.356 . S
C718 C715 1.358 . S
C718 H774 0.924 1_554 S
C719 N716 1.314 . S
C719 C717 1.353 . S
C719 H775 0.930 . S
C720 N721 1.314 1_556 S
C720 C725 1.353 . S
C720 H726 0.930 . S
N721 Li704 1.990 . S
N721 C720 1.314 1_554 S
N721 C723 1.279 . S
C722 C723 1.358 . S
C722 C724 1.356 . S
C722 H776 0.930 . S
C723 N721 1.279 . S
C723 C722 1.358 . S
C723 H727 0.930 . S
C724 C722 1.356 . S
C724 C725 1.348 1_554 S
C725 C720 1.353 . S
C725 C724 1.348 1_556 S
C725 H777 0.929 . S
H726 C720 0.930 . S
H727 C723 0.930 . S
C728 N729 1.314 . S
C728 C730 1.353 . S
C728 H734 0.930 . S
N729 Li705 1.990 . S
N729 C728 1.314 . S
N729 C732 1.279 . S
C730 C728 1.353 . S
C730 C733 1.348 . S
C730 H778 0.929 . S
C731 C732 1.358 . S
C731 C733 1.356 . S
C731 H779 0.930 . S
C732 N729 1.279 . S
C732 C731 1.358 . S
C732 H735 0.930 . S
C733 C730 1.348 . S
C733 C731 1.356 . S
H734 C728 0.930 . S
H735 C732 0.930 . S
C736 C738 1.348 . S
C736 C739 1.356 . S
C736 O766 1.325 . S
N737 C740 1.314 . S
N737 C741 1.279 . S
C738 C736 1.348 . S
C738 C740 1.353 . S
C738 H780 0.929 . S
C739 C736 1.356 . S
C739 C741 1.358 . S
C739 H781 0.930 . S
C740 N737 1.314 . S
C740 C738 1.353 . S
C740 H782 0.930 . S
C741 N737 1.279 . S
C741 C739 1.358 . S
C741 H783 0.930 . S
C742 C743 1.350 . S
C742 C744 1.356 . S
C742 O767 1.325 . S
C743 C742 1.350 . S
C743 C745 1.353 . S
C743 H784 0.927 1_554 S
C744 C742 1.356 . S
C744 C746 1.358 . S
C744 H785 0.930 . S
C745 C743 1.353 . S
C745 N747 1.316 . S
C745 H786 0.928 1_554 S
C746 C744 1.358 . S
C746 N747 1.279 . S
C746 H787 0.930 . S
N747 C745 1.316 . S
N747 C746 1.279 . S
C748 C750 1.353 . S
C748 N751 1.314 . S
C748 H754 0.930 . S
C749 N751 1.279 1_556 S
C749 C752 1.358 . S
C749 H755 0.930 . S
C750 C748 1.353 . S
C750 C753 1.348 . S
C750 H788 0.929 . S
N751 Li706 1.990 . S
N751 C748 1.314 . S
N751 C749 1.279 1_554 S
C752 C749 1.358 . S
C752 C753 1.356 1_556 S
C752 H789 0.930 . S
C753 C750 1.348 . S
C753 C752 1.356 1_554 S
H754 C748 0.930 . S
H755 C749 0.930 . S
C756 N757 1.314 . S
C756 C758 1.353 . S
C756 H762 0.930 . S
N757 Li707 1.990 . S
N757 C756 1.314 . S
N757 C760 1.279 . S
C758 C756 1.353 . S
C758 C761 1.348 . S
C758 H790 0.929 . S
C759 C760 1.358 . S
C759 C761 1.356 . S
C759 H791 0.930 . S
C760 N757 1.279 . S
C760 C759 1.358 . S
C760 H763 0.930 . S
C761 C758 1.348 . S
C761 C759 1.356 . S
H762 C756 0.930 . S
H763 C760 0.930 . S
O764 Li704 1.956 . S
O764 Li705 1.970 . S
O764 Li706 1.961 . S
O764 C708 1.325 . S
O765 Li704 1.970 . S
O765 Li705 1.956 . S
O765 Li707 1.961 1_554 S
O765 C714 1.325 . S
O766 Li704 1.961 1_556 S
O766 Li706 1.956 1_556 S
O766 Li707 1.970 . S
O766 C736 1.325 . S
O767 Li705 1.961 . S
O767 Li706 1.970 . S
O767 Li707 1.956 1_554 S
O767 C742 1.325 . S
H768 C710 0.929 . S
H769 C711 0.930 . S
H770 C712 0.930 . S
H771 C713 0.930 . S
H772 C715 0.925 1_556 S
H773 C717 0.929 . S
H774 C718 0.924 1_556 S
H775 C719 0.930 . S
H776 C722 0.930 . S
H777 C725 0.929 . S
H778 C730 0.929 . S
H779 C731 0.930 . S
H780 C738 0.929 . S
H781 C739 0.930 . S
H782 C740 0.930 . S
H783 C741 0.930 . S
H784 C743 0.927 1_556 S
H785 C744 0.930 . S
H786 C745 0.928 1_556 S
H787 C746 0.930 . S
H788 C750 0.929 . S
H789 C752 0.930 . S
H790 C758 0.929 . S
H791 C759 0.930 . S
Li792 N809 1.990 . S
Li792 O852 1.956 . S
Li792 O853 1.970 . S
Li792 O854 1.961 . S
Li793 N817 1.990 . S
Li793 O852 1.970 . S
Li793 O853 1.956 . S
Li793 O855 1.961 . S
Li794 N839 1.990 . S
Li794 O852 1.961 . S
Li794 O854 1.956 . S
Li794 O855 1.970 . S
Li795 N845 1.990 . S
Li795 O853 1.961 . S
Li795 O854 1.970 . S
Li795 O855 1.956 . S
C796 C798 1.348 . S
C796 C799 1.356 . S
C796 O852 1.325 . S
N797 C800 1.314 . S
N797 C801 1.279 . S
C798 C796 1.348 . S
C798 C800 1.353 . S
C798 H856 0.929 . S
C799 C796 1.356 . S
C799 C801 1.358 . S
C799 H857 0.930 . S
C800 N797 1.314 . S
C800 C798 1.353 . S
C800 H858 0.930 . S
C801 N797 1.279 . S
C801 C799 1.358 . S
C801 H859 0.930 . S
C802 C805 1.348 . S
C802 C806 1.356 . S
C802 O853 1.325 . S
C803 N804 1.279 . S
C803 C806 1.358 . S
C803 H860 0.930 . S
N804 C803 1.279 . S
N804 C807 1.314 . S
C805 C802 1.348 . S
C805 C807 1.353 . S
C805 H861 0.929 . S
C806 C802 1.356 . S
C806 C803 1.358 . S
C806 H862 0.930 . S
C807 N804 1.314 . S
C807 C805 1.353 . S
C807 H863 0.930 . S
C808 N809 1.314 . S
C808 C813 1.353 . S
C808 H814 0.930 . S
N809 Li792 1.990 . S
N809 C808 1.314 . S
N809 C811 1.279 . S
C810 C811 1.358 . S
C810 C812 1.356 . S
C810 H864 0.930 . S
C811 N809 1.279 . S
C811 C810 1.358 . S
C811 H815 0.930 . S
C812 C810 1.356 . S
C812 C813 1.348 . S
C813 C808 1.353 . S
C813 C812 1.348 . S
C813 H865 0.929 . S
H814 C808 0.930 . S
H815 C811 0.930 . S
C816 N817 1.314 . S
C816 C818 1.353 . S
C816 H822 0.930 . S
N817 Li793 1.990 . S
N817 C816 1.314 . S
N817 C820 1.279 . S
C818 C816 1.353 . S
C818 C821 1.348 . S
C818 H866 0.929 . S
C819 C820 1.358 . S
C819 C821 1.356 . S
C819 H867 0.930 . S
C820 N817 1.279 . S
C820 C819 1.358 . S
C820 H823 0.930 . S
C821 C818 1.348 . S
C821 C819 1.356 . S
H822 C816 0.930 . S
H823 C820 0.930 . S
C824 C826 1.348 . S
C824 C827 1.356 . S
C824 O854 1.325 . S
N825 C828 1.314 . S
N825 C829 1.279 . S
C826 C824 1.348 . S
C826 C828 1.353 . S
C826 H868 0.929 . S
C827 C824 1.356 . S
C827 C829 1.358 . S
C827 H869 0.930 . S
C828 N825 1.314 . S
C828 C826 1.353 . S
C828 H870 0.930 . S
C829 N825 1.279 . S
C829 C827 1.358 . S
C829 H871 0.930 . S
C830 C831 1.348 . S
C830 C832 1.356 . S
C830 O855 1.325 . S
C831 C830 1.348 . S
C831 C833 1.353 . S
C831 H872 0.929 . S
C832 C830 1.356 . S
C832 C834 1.358 . S
C832 H873 0.930 . S
C833 C831 1.353 . S
C833 N835 1.314 . S
C833 H874 0.930 . S
C834 C832 1.358 . S
C834 N835 1.279 . S
C834 H875 0.930 . S
N835 C833 1.314 . S
N835 C834 1.279 . S
C836 C838 1.353 . S
C836 N839 1.314 . S
C836 H842 0.930 . S
C837 N839 1.279 . S
C837 C840 1.358 . S
C837 H843 0.930 . S
C838 C836 1.353 . S
C838 C841 1.348 . S
C838 H876 0.929 . S
N839 Li794 1.990 . S
N839 C836 1.314 . S
N839 C837 1.279 . S
C840 C837 1.358 . S
C840 C841 1.356 . S
C840 H877 0.930 . S
C841 C838 1.348 . S
C841 C840 1.356 . S
H842 C836 0.930 . S
H843 C837 0.930 . S
C844 N845 1.314 . S
C844 C846 1.353 . S
C844 H850 0.930 . S
N845 Li795 1.990 . S
N845 C844 1.314 . S
N845 C848 1.279 . S
C846 C844 1.353 . S
C846 C849 1.348 . S
C846 H878 0.929 . S
C847 C848 1.358 . S
C847 C849 1.356 . S
C847 H879 0.930 . S
C848 N845 1.279 . S
C848 C847 1.358 . S
C848 H851 0.930 . S
C849 C846 1.348 . S
C849 C847 1.356 . S
H850 C844 0.930 . S
H851 C848 0.930 . S
O852 Li792 1.956 . S
O852 Li793 1.970 . S
O852 Li794 1.961 . S
O852 C796 1.325 . S
O853 Li792 1.970 . S
O853 Li793 1.956 . S
O853 Li795 1.961 . S
O853 C802 1.325 . S
O854 Li792 1.961 . S
O854 Li794 1.956 . S
O854 Li795 1.970 . S
O854 C824 1.325 . S
O855 Li793 1.961 . S
O855 Li794 1.970 . S
O855 Li795 1.956 . S
O855 C830 1.325 . S
H856 C798 0.929 . S
H857 C799 0.930 . S
H858 C800 0.930 . S
H859 C801 0.930 . S
H860 C803 0.930 . S
H861 C805 0.929 . S
H862 C806 0.930 . S
H863 C807 0.930 . S
H864 C810 0.930 . S
H865 C813 0.929 . S
H866 C818 0.929 . S
H867 C819 0.930 . S
H868 C826 0.929 . S
H869 C827 0.930 . S
H870 C828 0.930 . S
H871 C829 0.930 . S
H872 C831 0.929 . S
H873 C832 0.930 . S
H874 C833 0.930 . S
H875 C834 0.930 . S
H876 C838 0.929 . S
H877 C840 0.930 . S
H878 C846 0.929 . S
H879 C847 0.930 . S
Li880 N897 1.990 . S
Li880 O940 1.956 . S
Li880 O941 1.970 . S
Li880 O942 1.961 . S
Li881 N905 1.990 . S
Li881 O940 1.970 . S
Li881 O941 1.956 . S
Li881 O943 1.961 . S
Li882 N927 1.990 . S
Li882 O940 1.961 . S
Li882 O942 1.956 . S
Li882 O943 1.970 . S
Li883 N933 1.990 . S
Li883 O941 1.961 . S
Li883 O942 1.970 . S
Li883 O943 1.956 . S
C884 C886 1.348 . S
C884 C887 1.356 . S
C884 O940 1.325 . S
N885 C888 1.314 . S
N885 C889 1.279 . S
C886 C884 1.348 . S
C886 C888 1.353 . S
C886 H944 0.929 . S
C887 C884 1.356 . S
C887 C889 1.358 . S
C887 H945 0.930 . S
C888 N885 1.314 . S
C888 C886 1.353 . S
C888 H946 0.930 . S
C889 N885 1.279 . S
C889 C887 1.358 . S
C889 H947 0.930 . S
C890 C893 1.348 . S
C890 C894 1.356 . S
C890 O941 1.325 . S
C891 N892 1.279 . S
C891 C894 1.358 . S
C891 H948 0.930 . S
N892 C891 1.279 . S
N892 C895 1.314 . S
C893 C890 1.348 . S
C893 C895 1.353 . S
C893 H949 0.929 . S
C894 C890 1.356 . S
C894 C891 1.358 . S
C894 H950 0.930 . S
C895 N892 1.314 . S
C895 C893 1.353 . S
C895 H951 0.930 . S
C896 N897 1.314 . S
C896 C901 1.353 . S
C896 H902 0.930 . S
N897 Li880 1.990 . S
N897 C896 1.314 . S
N897 C899 1.279 . S
C898 C899 1.358 . S
C898 C900 1.356 . S
C898 H952 0.930 . S
C899 N897 1.279 . S
C899 C898 1.358 . S
C899 H903 0.930 . S
C900 C898 1.356 . S
C900 C901 1.348 . S
C901 C896 1.353 . S
C901 C900 1.348 . S
C901 H953 0.929 . S
H902 C896 0.930 . S
H903 C899 0.930 . S
C904 N905 1.314 . S
C904 C906 1.353 . S
C904 H910 0.930 . S
N905 Li881 1.990 . S
N905 C904 1.314 . S
N905 C908 1.279 . S
C906 C904 1.353 . S
C906 C909 1.348 . S
C906 H954 0.929 . S
C907 C908 1.358 . S
C907 C909 1.356 . S
C907 H955 0.930 . S
C908 N905 1.279 . S
C908 C907 1.358 . S
C908 H911 0.930 . S
C909 C906 1.348 . S
C909 C907 1.356 . S
H910 C904 0.930 . S
H911 C908 0.930 . S
C912 C914 1.348 . S
C912 C915 1.356 . S
C912 O942 1.325 . S
N913 C916 1.314 . S
N913 C917 1.279 . S
C914 C912 1.348 . S
C914 C916 1.353 . S
C914 H956 0.929 . S
C915 C912 1.356 . S
C915 C917 1.358 . S
C915 H957 0.930 . S
C916 N913 1.314 . S
C916 C914 1.353 . S
C916 H958 0.930 . S
C917 N913 1.279 . S
C917 C915 1.358 . S
C917 H959 0.930 . S
C918 C919 1.348 . S
C918 C920 1.356 . S
C918 O943 1.325 . S
C919 C918 1.348 . S
C919 C921 1.353 . S
C919 H960 0.929 . S
C920 C918 1.356 . S
C920 C922 1.358 . S
C920 H961 0.930 . S
C921 C919 1.353 . S
C921 N923 1.314 . S
C921 H962 0.930 . S
C922 C920 1.358 . S
C922 N923 1.279 . S
C922 H963 0.930 . S
N923 C921 1.314 . S
N923 C922 1.279 . S
C924 C926 1.353 . S
C924 N927 1.314 . S
C924 H930 0.930 . S
C925 N927 1.279 . S
C925 C928 1.358 . S
C925 H931 0.930 . S
C926 C924 1.353 . S
C926 C929 1.348 . S
C926 H964 0.929 . S
N927 Li882 1.990 . S
N927 C924 1.314 . S
N927 C925 1.279 . S
C928 C925 1.358 . S
C928 C929 1.356 . S
C928 H965 0.930 . S
C929 C926 1.348 . S
C929 C928 1.356 . S
H930 C924 0.930 . S
H931 C925 0.930 . S
C932 N933 1.314 . S
C932 C934 1.353 . S
C932 H938 0.930 . S
N933 Li883 1.990 . S
N933 C932 1.314 . S
N933 C936 1.279 . S
C934 C932 1.353 . S
C934 C937 1.348 . S
C934 H966 0.929 . S
C935 C936 1.358 . S
C935 C937 1.356 . S
C935 H967 0.930 . S
C936 N933 1.279 . S
C936 C935 1.358 . S
C936 H939 0.930 . S
C937 C934 1.348 . S
C937 C935 1.356 . S
H938 C932 0.930 . S
H939 C936 0.930 . S
O940 Li880 1.956 . S
O940 Li881 1.970 . S
O940 Li882 1.961 . S
O940 C884 1.325 . S
O941 Li880 1.970 . S
O941 Li881 1.956 . S
O941 Li883 1.961 . S
O941 C890 1.325 . S
O942 Li880 1.961 . S
O942 Li882 1.956 . S
O942 Li883 1.970 . S
O942 C912 1.325 . S
O943 Li881 1.961 . S
O943 Li882 1.970 . S
O943 Li883 1.956 . S
O943 C918 1.325 . S
H944 C886 0.929 . S
H945 C887 0.930 . S
H946 C888 0.930 . S
H947 C889 0.930 . S
H948 C891 0.930 . S
H949 C893 0.929 . S
H950 C894 0.930 . S
H951 C895 0.930 . S
H952 C898 0.930 . S
H953 C901 0.929 . S
H954 C906 0.929 . S
H955 C907 0.930 . S
H956 C914 0.929 . S
H957 C915 0.930 . S
H958 C916 0.930 . S
H959 C917 0.930 . S
H960 C919 0.929 . S
H961 C920 0.930 . S
H962 C921 0.930 . S
H963 C922 0.930 . S
H964 C926 0.929 . S
H965 C928 0.930 . S
H966 C934 0.929 . S
H967 C935 0.930 . S
Li968 N985 1.990 . S
Li968 O1028 1.956 . S
Li968 O1029 1.970 . S
Li968 O1030 1.961 . S
Li969 N993 1.990 . S
Li969 O1028 1.970 . S
Li969 O1029 1.956 . S
Li969 O1031 1.961 . S
Li970 N1015 1.990 . S
Li970 O1028 1.961 . S
Li970 O1030 1.956 . S
Li970 O1031 1.970 . S
Li971 N1021 1.990 . S
Li971 O1029 1.961 . S
Li971 O1030 1.970 . S
Li971 O1031 1.956 . S
C972 C974 1.348 . S
C972 C975 1.356 . S
C972 O1028 1.325 . S
N973 C976 1.314 . S
N973 C977 1.279 . S
C974 C972 1.348 . S
C974 C976 1.353 . S
C974 H1032 0.929 . S
C975 C972 1.356 . S
C975 C977 1.358 . S
C975 H1033 0.930 . S
C976 N973 1.314 . S
C976 C974 1.353 . S
C976 H1034 0.930 . S
C977 N973 1.279 . S
C977 C975 1.358 . S
C977 H1035 0.930 . S
C978 C981 1.348 . S
C978 C982 1.356 . S
C978 O1029 1.325 . S
C979 N980 1.279 . S
C979 C982 1.358 . S
C979 H1036 0.930 . S
N980 C979 1.279 . S
N980 C983 1.314 . S
C981 C978 1.348 . S
C981 C983 1.353 . S
C981 H1037 0.929 . S
C982 C978 1.356 . S
C982 C979 1.358 . S
C982 H1038 0.930 . S
C983 N980 1.314 . S
C983 C981 1.353 . S
C983 H1039 0.930 . S
C984 N985 1.314 . S
C984 C989 1.353 . S
C984 H990 0.930 . S
N985 Li968 1.990 . S
N985 C984 1.314 . S
N985 C987 1.279 . S
C986 C987 1.358 . S
C986 C988 1.356 . S
C986 H1040 0.930 . S
C987 N985 1.279 . S
C987 C986 1.358 . S
C987 H991 0.930 . S
C988 C986 1.356 . S
C988 C989 1.348 . S
C989 C984 1.353 . S
C989 C988 1.348 . S
C989 H1041 0.929 . S
H990 C984 0.930 . S
H991 C987 0.930 . S
C992 N993 1.314 . S
C992 C994 1.353 . S
C992 H998 0.930 . S
N993 Li969 1.990 . S
N993 C992 1.314 . S
N993 C996 1.279 . S
C994 C992 1.353 . S
C994 C997 1.348 . S
C994 H1042 0.929 . S
C995 C996 1.358 . S
C995 C997 1.356 . S
C995 H1043 0.930 . S
C996 N993 1.279 . S
C996 C995 1.358 . S
C996 H999 0.930 . S
C997 C994 1.348 . S
C997 C995 1.356 . S
H998 C992 0.930 . S
H999 C996 0.930 . S
C1000 C1002 1.348 . S
C1000 C1003 1.356 . S
C1000 O1030 1.325 . S
N1001 C1004 1.314 . S
N1001 C1005 1.279 . S
C1002 C1000 1.348 . S
C1002 C1004 1.353 . S
C1002 H1044 0.929 . S
C1003 C1000 1.356 . S
C1003 C1005 1.358 . S
C1003 H1045 0.930 . S
C1004 N1001 1.314 . S
C1004 C1002 1.353 . S
C1004 H1046 0.930 . S
C1005 N1001 1.279 . S
C1005 C1003 1.358 . S
C1005 H1047 0.930 . S
C1006 C1007 1.348 . S
C1006 C1008 1.356 . S
C1006 O1031 1.325 . S
C1007 C1006 1.348 . S
C1007 C1009 1.353 . S
C1007 H1048 0.929 . S
C1008 C1006 1.356 . S
C1008 C1010 1.358 . S
C1008 H1049 0.930 . S
C1009 C1007 1.353 . S
C1009 N1011 1.314 . S
C1009 H1050 0.930 . S
C1010 C1008 1.358 . S
C1010 N1011 1.279 . S
C1010 H1051 0.930 . S
N1011 C1009 1.314 . S
N1011 C1010 1.279 . S
C1012 C1014 1.353 . S
C1012 N1015 1.314 . S
C1012 H1018 0.930 . S
C1013 N1015 1.279 . S
C1013 C1016 1.358 . S
C1013 H1019 0.930 . S
C1014 C1012 1.353 . S
C1014 C1017 1.348 . S
C1014 H1052 0.929 . S
N1015 Li970 1.990 . S
N1015 C1012 1.314 . S
N1015 C1013 1.279 . S
C1016 C1013 1.358 . S
C1016 C1017 1.356 . S
C1016 H1053 0.930 . S
C1017 C1014 1.348 . S
C1017 C1016 1.356 . S
H1018 C1012 0.930 . S
H1019 C1013 0.930 . S
C1020 N1021 1.314 . S
C1020 C1022 1.353 . S
C1020 H1026 0.930 . S
N1021 Li971 1.990 . S
N1021 C1020 1.314 . S
N1021 C1024 1.279 . S
C1022 C1020 1.353 . S
C1022 C1025 1.348 . S
C1022 H1054 0.929 . S
C1023 C1024 1.358 . S
C1023 C1025 1.356 . S
C1023 H1055 0.930 . S
C1024 N1021 1.279 . S
C1024 C1023 1.358 . S
C1024 H1027 0.930 . S
C1025 C1022 1.348 . S
C1025 C1023 1.356 . S
H1026 C1020 0.930 . S
H1027 C1024 0.930 . S
O1028 Li968 1.956 . S
O1028 Li969 1.970 . S
O1028 Li970 1.961 . S
O1028 C972 1.325 . S
O1029 Li968 1.970 . S
O1029 Li969 1.956 . S
O1029 Li971 1.961 . S
O1029 C978 1.325 . S
O1030 Li968 1.961 . S
O1030 Li970 1.956 . S
O1030 Li971 1.970 . S
O1030 C1000 1.325 . S
O1031 Li969 1.961 . S
O1031 Li970 1.970 . S
O1031 Li971 1.956 . S
O1031 C1006 1.325 . S
H1032 C974 0.929 . S
H1033 C975 0.930 . S
H1034 C976 0.930 . S
H1035 C977 0.930 . S
H1036 C979 0.930 . S
H1037 C981 0.929 . S
H1038 C982 0.930 . S
H1039 C983 0.930 . S
H1040 C986 0.930 . S
H1041 C989 0.929 . S
H1042 C994 0.929 . S
H1043 C995 0.930 . S
H1044 C1002 0.929 . S
H1045 C1003 0.930 . S
H1046 C1004 0.930 . S
H1047 C1005 0.930 . S
H1048 C1007 0.929 . S
H1049 C1008 0.930 . S
H1050 C1009 0.930 . S
H1051 C1010 0.930 . S
H1052 C1014 0.929 . S
H1053 C1016 0.930 . S
H1054 C1022 0.929 . S
H1055 C1023 0.930 . S
Li1056 N1073 1.990 . S
Li1056 O1116 1.956 1_655 S
Li1056 O1117 1.970 . S
Li1056 O1118 1.961 1_655 S
Li1057 N1081 1.990 . S
Li1057 O1116 1.970 . S
Li1057 O1117 1.956 1_455 S
Li1057 O1119 1.961 . S
Li1058 N1103 1.990 . S
Li1058 O1116 1.961 . S
Li1058 O1118 1.956 . S
Li1058 O1119 1.970 . S
Li1059 N1109 1.990 . S
Li1059 O1117 1.961 1_455 S
Li1059 O1118 1.970 . S
Li1059 O1119 1.956 . S
C1060 C1062 1.348 . S
C1060 C1063 1.356 . S
C1060 O1116 1.325 . S
N1061 C1064 1.314 . S
N1061 C1065 1.279 . S
C1062 C1060 1.348 . S
C1062 C1064 1.353 . S
C1062 H1120 0.929 1_455 S
C1063 C1060 1.356 . S
C1063 C1065 1.358 . S
C1063 H1121 0.930 . S
C1064 N1061 1.314 . S
C1064 C1062 1.353 . S
C1064 H1122 0.930 1_455 S
C1065 N1061 1.279 . S
C1065 C1063 1.358 . S
C1065 H1123 0.930 . S
C1066 C1069 1.348 . S
C1066 C1070 1.356 . S
C1066 O1117 1.325 . S
C1067 N1068 1.279 . S
C1067 C1070 1.358 . S
C1067 H1124 0.930 . S
N1068 C1067 1.279 . S
N1068 C1071 1.314 . S
C1069 C1066 1.348 . S
C1069 C1071 1.353 . S
C1069 H1125 0.929 . S
C1070 C1066 1.356 . S
C1070 C1067 1.358 . S
C1070 H1126 0.930 . S
C1071 N1068 1.314 . S
C1071 C1069 1.353 . S
C1071 H1127 0.930 . S
C1072 N1073 1.314 . S
C1072 C1077 1.353 . S
C1072 H1078 0.930 . S
N1073 Li1056 1.990 . S
N1073 C1072 1.314 . S
N1073 C1075 1.279 . S
C1074 C1075 1.358 . S
C1074 C1076 1.356 . S
C1074 H1128 0.930 . S
C1075 N1073 1.279 . S
C1075 C1074 1.358 . S
C1075 H1079 0.930 . S
C1076 C1074 1.356 . S
C1076 C1077 1.348 . S
C1077 C1072 1.353 . S
C1077 C1076 1.348 . S
C1077 H1129 0.929 . S
H1078 C1072 0.930 . S
H1079 C1075 0.930 . S
C1080 N1081 1.314 . S
C1080 C1082 1.353 . S
C1080 H1086 0.930 . S
N1081 Li1057 1.990 . S
N1081 C1080 1.314 . S
N1081 C1084 1.279 1_455 S
C1082 C1080 1.353 . S
C1082 C1085 1.348 . S
C1082 H1130 0.929 . S
C1083 C1084 1.358 . S
C1083 C1085 1.356 1_655 S
C1083 H1131 0.930 . S
C1084 N1081 1.279 1_655 S
C1084 C1083 1.358 . S
C1084 H1087 0.930 . S
C1085 C1082 1.348 . S
C1085 C1083 1.356 1_455 S
H1086 C1080 0.930 . S
H1087 C1084 0.930 . S
C1088 C1090 1.348 . S
C1088 C1091 1.356 . S
C1088 O1118 1.325 . S
N1089 C1092 1.314 . S
N1089 C1093 1.279 . S
C1090 C1088 1.348 . S
C1090 C1092 1.353 . S
C1090 H1132 0.929 . S
C1091 C1088 1.356 . S
C1091 C1093 1.358 . S
C1091 H1133 0.930 . S
C1092 N1089 1.314 . S
C1092 C1090 1.353 . S
C1092 H1134 0.930 . S
C1093 N1089 1.279 . S
C1093 C1091 1.358 . S
C1093 H1135 0.930 . S
C1094 C1095 1.348 . S
C1094 C1096 1.356 . S
C1094 O1119 1.325 . S
C1095 C1094 1.348 . S
C1095 C1097 1.353 . S
C1095 H1136 0.929 . S
C1096 C1094 1.356 . S
C1096 C1098 1.358 . S
C1096 H1137 0.930 . S
C1097 C1095 1.353 . S
C1097 N1099 1.314 . S
C1097 H1138 0.930 . S
C1098 C1096 1.358 . S
C1098 N1099 1.279 . S
C1098 H1139 0.930 . S
N1099 C1097 1.314 . S
N1099 C1098 1.279 . S
C1100 C1102 1.353 . S
C1100 N1103 1.314 . S
C1100 H1106 0.930 . S
C1101 N1103 1.279 . S
C1101 C1104 1.358 . S
C1101 H1107 0.930 . S
C1102 C1100 1.353 . S
C1102 C1105 1.348 . S
C1102 H1140 0.929 . S
N1103 Li1058 1.990 . S
N1103 C1100 1.314 . S
N1103 C1101 1.279 . S
C1104 C1101 1.358 . S
C1104 C1105 1.356 . S
C1104 H1141 0.930 . S
C1105 C1102 1.348 . S
C1105 C1104 1.356 . S
H1106 C1100 0.930 . S
H1107 C1101 0.930 . S
C1108 N1109 1.314 1_655 S
C1108 C1110 1.353 . S
C1108 H1114 0.930 . S
N1109 Li1059 1.990 . S
N1109 C1108 1.314 1_455 S
N1109 C1112 1.279 . S
C1110 C1108 1.353 . S
C1110 C1113 1.348 1_655 S
C1110 H1142 0.929 . S
C1111 C1112 1.358 . S
C1111 C1113 1.356 . S
C1111 H1143 0.930 . S
C1112 N1109 1.279 . S
C1112 C1111 1.358 . S
C1112 H1115 0.930 . S
C1113 C1110 1.348 1_455 S
C1113 C1111 1.356 . S
H1114 C1108 0.930 . S
H1115 C1112 0.930 . S
O1116 Li1056 1.956 1_455 S
O1116 Li1057 1.970 . S
O1116 Li1058 1.961 . S
O1116 C1060 1.325 . S
O1117 Li1056 1.970 . S
O1117 Li1057 1.956 1_655 S
O1117 Li1059 1.961 1_655 S
O1117 C1066 1.325 . S
O1118 Li1056 1.961 1_455 S
O1118 Li1058 1.956 . S
O1118 Li1059 1.970 . S
O1118 C1088 1.325 . S
O1119 Li1057 1.961 . S
O1119 Li1058 1.970 . S
O1119 Li1059 1.956 . S
O1119 C1094 1.325 . S
H1120 C1062 0.929 1_655 S
H1121 C1063 0.930 . S
H1122 C1064 0.930 1_655 S
H1123 C1065 0.930 . S
H1124 C1067 0.930 . S
H1125 C1069 0.929 . S
H1126 C1070 0.930 . S
H1127 C1071 0.930 . S
H1128 C1074 0.930 . S
H1129 C1077 0.929 . S
H1130 C1082 0.929 . S
H1131 C1083 0.930 . S
H1132 C1090 0.929 . S
H1133 C1091 0.930 . S
H1134 C1092 0.930 . S
H1135 C1093 0.930 . S
H1136 C1095 0.929 . S
H1137 C1096 0.930 . S
H1138 C1097 0.930 . S
H1139 C1098 0.930 . S
H1140 C1102 0.929 . S
H1141 C1104 0.930 . S
H1142 C1110 0.929 . S
H1143 C1111 0.930 . S
Li1144 N1161 1.990 . S
Li1144 O1204 1.956 . S
Li1144 O1205 1.970 . S
Li1144 O1206 1.961 1_455 S
Li1145 N1169 1.990 . S
Li1145 O1204 1.970 . S
Li1145 O1205 1.956 . S
Li1145 O1207 1.961 . S
Li1146 N1191 1.990 . S
Li1146 O1204 1.961 . S
Li1146 O1206 1.956 1_455 S
Li1146 O1207 1.970 . S
Li1147 N1197 1.990 . S
Li1147 O1205 1.961 1_655 S
Li1147 O1206 1.970 . S
Li1147 O1207 1.956 1_655 S
C1148 C1150 1.348 . S
C1148 C1151 1.356 . S
C1148 O1204 1.325 . S
N1149 C1152 1.314 . S
N1149 C1153 1.279 . S
C1150 C1148 1.348 . S
C1150 C1152 1.353 . S
C1150 H1208 0.929 . S
C1151 C1148 1.356 . S
C1151 C1153 1.358 . S
C1151 H1209 0.930 . S
C1152 N1149 1.314 . S
C1152 C1150 1.353 . S
C1152 H1210 0.930 . S
C1153 N1149 1.279 . S
C1153 C1151 1.358 . S
C1153 H1211 0.930 . S
C1154 C1157 1.348 . S
C1154 C1158 1.356 . S
C1154 O1205 1.325 . S
C1155 N1156 1.279 . S
C1155 C1158 1.358 . S
C1155 H1212 0.918 1_455 S
N1156 C1155 1.279 . S
N1156 C1159 1.314 . S
C1157 C1154 1.348 . S
C1157 C1159 1.353 . S
C1157 H1213 0.929 . S
C1158 C1154 1.356 . S
C1158 C1155 1.358 . S
C1158 H1214 0.919 1_455 S
C1159 N1156 1.314 . S
C1159 C1157 1.353 . S
C1159 H1215 0.930 . S
C1160 N1161 1.314 1_655 S
C1160 C1165 1.353 . S
C1160 H1166 0.930 . S
N1161 Li1144 1.990 . S
N1161 C1160 1.314 1_455 S
N1161 C1163 1.279 . S
C1162 C1163 1.358 . S
C1162 C1164 1.356 . S
C1162 H1216 0.930 . S
C1163 N1161 1.279 . S
C1163 C1162 1.358 . S
C1163 H1167 0.930 . S
C1164 C1162 1.356 . S
C1164 C1165 1.348 1_455 S
C1165 C1160 1.353 . S
C1165 C1164 1.348 1_655 S
C1165 H1217 0.929 . S
H1166 C1160 0.930 . S
H1167 C1163 0.930 . S
C1168 N1169 1.314 . S
C1168 C1170 1.353 . S
C1168 H1174 0.930 . S
N1169 Li1145 1.990 . S
N1169 C1168 1.314 . S
N1169 C1172 1.279 . S
C1170 C1168 1.353 . S
C1170 C1173 1.348 . S
C1170 H1218 0.929 . S
C1171 C1172 1.358 . S
C1171 C1173 1.356 . S
C1171 H1219 0.930 . S
C1172 N1169 1.279 . S
C1172 C1171 1.358 . S
C1172 H1175 0.930 . S
C1173 C1170 1.348 . S
C1173 C1171 1.356 . S
H1174 C1168 0.930 . S
H1175 C1172 0.930 . S
C1176 C1178 1.348 . S
C1176 C1179 1.356 . S
C1176 O1206 1.325 . S
N1177 C1180 1.314 . S
N1177 C1181 1.279 . S
C1178 C1176 1.348 . S
C1178 C1180 1.353 . S
C1178 H1220 0.929 . S
C1179 C1176 1.356 . S
C1179 C1181 1.358 . S
C1179 H1221 0.930 . S
C1180 N1177 1.314 . S
C1180 C1178 1.353 . S
C1180 H1222 0.930 . S
C1181 N1177 1.279 . S
C1181 C1179 1.358 . S
C1181 H1223 0.930 . S
C1182 C1183 1.347 1_455 S
C1182 C1184 1.356 . S
C1182 O1207 1.325 . S
C1183 C1182 1.347 1_655 S
C1183 C1185 1.353 . S
C1183 H1224 0.930 . S
C1184 C1182 1.356 . S
C1184 C1186 1.358 . S
C1184 H1225 0.930 . S
C1185 C1183 1.353 . S
C1185 N1187 1.314 1_655 S
C1185 H1226 0.930 . S
C1186 C1184 1.358 . S
C1186 N1187 1.279 . S
C1186 H1227 0.930 . S
N1187 C1185 1.314 1_455 S
N1187 C1186 1.279 . S
C1188 C1190 1.353 . S
C1188 N1191 1.314 . S
C1188 H1194 0.930 . S
C1189 N1191 1.279 1_655 S
C1189 C1192 1.358 . S
C1189 H1195 0.930 . S
C1190 C1188 1.353 . S
C1190 C1193 1.348 . S
C1190 H1228 0.929 . S
N1191 Li1146 1.990 . S
N1191 C1188 1.314 . S
N1191 C1189 1.279 1_455 S
C1192 C1189 1.358 . S
C1192 C1193 1.356 1_655 S
C1192 H1229 0.930 . S
C1193 C1190 1.348 . S
C1193 C1192 1.356 1_455 S
H1194 C1188 0.930 . S
H1195 C1189 0.930 . S
C1196 N1197 1.314 . S
C1196 C1198 1.353 . S
C1196 H1202 0.930 . S
N1197 Li1147 1.990 . S
N1197 C1196 1.314 . S
N1197 C1200 1.279 . S
C1198 C1196 1.353 . S
C1198 C1201 1.348 . S
C1198 H1230 0.929 . S
C1199 C1200 1.358 . S
C1199 C1201 1.356 . S
C1199 H1231 0.930 . S
C1200 N1197 1.279 . S
C1200 C1199 1.358 . S
C1200 H1203 0.930 . S
C1201 C1198 1.348 . S
C1201 C1199 1.356 . S
H1202 C1196 0.930 . S
H1203 C1200 0.930 . S
O1204 Li1144 1.956 . S
O1204 Li1145 1.970 . S
O1204 Li1146 1.961 . S
O1204 C1148 1.325 . S
O1205 Li1144 1.970 . S
O1205 Li1145 1.956 . S
O1205 Li1147 1.961 1_455 S
O1205 C1154 1.325 . S
O1206 Li1144 1.961 1_655 S
O1206 Li1146 1.956 1_655 S
O1206 Li1147 1.970 . S
O1206 C1176 1.325 . S
O1207 Li1145 1.961 . S
O1207 Li1146 1.970 . S
O1207 Li1147 1.956 1_455 S
O1207 C1182 1.325 . S
H1208 C1150 0.929 . S
H1209 C1151 0.930 . S
H1210 C1152 0.930 . S
H1211 C1153 0.930 . S
H1212 C1155 0.918 1_655 S
H1213 C1157 0.929 . S
H1214 C1158 0.919 1_655 S
H1215 C1159 0.930 . S
H1216 C1162 0.930 . S
H1217 C1165 0.929 . S
H1218 C1170 0.929 . S
H1219 C1171 0.930 . S
H1220 C1178 0.929 . S
H1221 C1179 0.930 . S
H1222 C1180 0.930 . S
H1223 C1181 0.930 . S
H1224 C1183 0.930 . S
H1225 C1184 0.930 . S
H1226 C1185 0.930 . S
H1227 C1186 0.930 . S
H1228 C1190 0.929 . S
H1229 C1192 0.930 . S
H1230 C1198 0.929 . S
H1231 C1199 0.930 . S
Li1232 N1249 1.990 . S
Li1232 O1292 1.956 . S
Li1232 O1293 1.970 . S
Li1232 O1294 1.961 . S
Li1233 N1257 1.990 . S
Li1233 O1292 1.970 . S
Li1233 O1293 1.956 . S
Li1233 O1295 1.961 . S
Li1234 N1279 1.990 . S
Li1234 O1292 1.961 . S
Li1234 O1294 1.956 . S
Li1234 O1295 1.970 . S
Li1235 N1285 1.990 . S
Li1235 O1293 1.961 . S
Li1235 O1294 1.970 . S
Li1235 O1295 1.956 . S
C1236 C1238 1.348 . S
C1236 C1239 1.356 . S
C1236 O1292 1.325 . S
N1237 C1240 1.314 . S
N1237 C1241 1.279 . S
C1238 C1236 1.348 . S
C1238 C1240 1.353 . S
C1238 H1296 0.929 . S
C1239 C1236 1.356 . S
C1239 C1241 1.358 . S
C1239 H1297 0.930 . S
C1240 N1237 1.314 . S
C1240 C1238 1.353 . S
C1240 H1298 0.930 . S
C1241 N1237 1.279 . S
C1241 C1239 1.358 . S
C1241 H1299 0.930 . S
C1242 C1245 1.348 . S
C1242 C1246 1.356 . S
C1242 O1293 1.325 . S
C1243 N1244 1.279 . S
C1243 C1246 1.358 . S
C1243 H1300 0.930 . S
N1244 C1243 1.279 . S
N1244 C1247 1.314 . S
C1245 C1242 1.348 . S
C1245 C1247 1.353 . S
C1245 H1301 0.929 . S
C1246 C1242 1.356 . S
C1246 C1243 1.358 . S
C1246 H1302 0.930 . S
C1247 N1244 1.314 . S
C1247 C1245 1.353 . S
C1247 H1303 0.930 . S
C1248 N1249 1.314 . S
C1248 C1253 1.353 . S
C1248 H1254 0.930 . S
N1249 Li1232 1.990 . S
N1249 C1248 1.314 . S
N1249 C1251 1.279 . S
C1250 C1251 1.358 . S
C1250 C1252 1.356 . S
C1250 H1304 0.930 . S
C1251 N1249 1.279 . S
C1251 C1250 1.358 . S
C1251 H1255 0.930 . S
C1252 C1250 1.356 . S
C1252 C1253 1.348 . S
C1253 C1248 1.353 . S
C1253 C1252 1.348 . S
C1253 H1305 0.929 . S
H1254 C1248 0.930 . S
H1255 C1251 0.930 . S
C1256 N1257 1.314 . S
C1256 C1258 1.353 . S
C1256 H1262 0.930 . S
N1257 Li1233 1.990 . S
N1257 C1256 1.314 . S
N1257 C1260 1.279 . S
C1258 C1256 1.353 . S
C1258 C1261 1.348 . S
C1258 H1306 0.929 . S
C1259 C1260 1.358 . S
C1259 C1261 1.356 . S
C1259 H1307 0.930 . S
C1260 N1257 1.279 . S
C1260 C1259 1.358 . S
C1260 H1263 0.930 . S
C1261 C1258 1.348 . S
C1261 C1259 1.356 . S
H1262 C1256 0.930 . S
H1263 C1260 0.930 . S
C1264 C1266 1.348 . S
C1264 C1267 1.356 . S
C1264 O1294 1.325 . S
N1265 C1268 1.314 . S
N1265 C1269 1.279 . S
C1266 C1264 1.348 . S
C1266 C1268 1.353 . S
C1266 H1308 0.929 . S
C1267 C1264 1.356 . S
C1267 C1269 1.358 . S
C1267 H1309 0.930 . S
C1268 N1265 1.314 . S
C1268 C1266 1.353 . S
C1268 H1310 0.930 . S
C1269 N1265 1.279 . S
C1269 C1267 1.358 . S
C1269 H1311 0.930 . S
C1270 C1271 1.348 . S
C1270 C1272 1.356 . S
C1270 O1295 1.325 . S
C1271 C1270 1.348 . S
C1271 C1273 1.353 . S
C1271 H1312 0.929 . S
C1272 C1270 1.356 . S
C1272 C1274 1.358 . S
C1272 H1313 0.930 . S
C1273 C1271 1.353 . S
C1273 N1275 1.314 . S
C1273 H1314 0.930 . S
C1274 C1272 1.358 . S
C1274 N1275 1.279 . S
C1274 H1315 0.930 . S
N1275 C1273 1.314 . S
N1275 C1274 1.279 . S
C1276 C1278 1.353 . S
C1276 N1279 1.314 . S
C1276 H1282 0.930 . S
C1277 N1279 1.279 . S
C1277 C1280 1.358 . S
C1277 H1283 0.930 . S
C1278 C1276 1.353 . S
C1278 C1281 1.348 . S
C1278 H1316 0.929 . S
N1279 Li1234 1.990 . S
N1279 C1276 1.314 . S
N1279 C1277 1.279 . S
C1280 C1277 1.358 . S
C1280 C1281 1.356 . S
C1280 H1317 0.930 . S
C1281 C1278 1.348 . S
C1281 C1280 1.356 . S
H1282 C1276 0.930 . S
H1283 C1277 0.930 . S
C1284 N1285 1.314 . S
C1284 C1286 1.353 . S
C1284 H1290 0.930 . S
N1285 Li1235 1.990 . S
N1285 C1284 1.314 . S
N1285 C1288 1.279 . S
C1286 C1284 1.353 . S
C1286 C1289 1.348 . S
C1286 H1318 0.929 . S
C1287 C1288 1.358 . S
C1287 C1289 1.356 . S
C1287 H1319 0.930 . S
C1288 N1285 1.279 . S
C1288 C1287 1.358 . S
C1288 H1291 0.930 . S
C1289 C1286 1.348 . S
C1289 C1287 1.356 . S
H1290 C1284 0.930 . S
H1291 C1288 0.930 . S
O1292 Li1232 1.956 . S
O1292 Li1233 1.970 . S
O1292 Li1234 1.961 . S
O1292 C1236 1.325 . S
O1293 Li1232 1.970 . S
O1293 Li1233 1.956 . S
O1293 Li1235 1.961 . S
O1293 C1242 1.325 . S
O1294 Li1232 1.961 . S
O1294 Li1234 1.956 . S
O1294 Li1235 1.970 . S
O1294 C1264 1.325 . S
O1295 Li1233 1.961 . S
O1295 Li1234 1.970 . S
O1295 Li1235 1.956 . S
O1295 C1270 1.325 . S
H1296 C1238 0.929 . S
H1297 C1239 0.930 . S
H1298 C1240 0.930 . S
H1299 C1241 0.930 . S
H1300 C1243 0.930 . S
H1301 C1245 0.929 . S
H1302 C1246 0.930 . S
H1303 C1247 0.930 . S
H1304 C1250 0.930 . S
H1305 C1253 0.929 . S
H1306 C1258 0.929 . S
H1307 C1259 0.930 . S
H1308 C1266 0.929 . S
H1309 C1267 0.930 . S
H1310 C1268 0.930 . S
H1311 C1269 0.930 . S
H1312 C1271 0.929 . S
H1313 C1272 0.930 . S
H1314 C1273 0.930 . S
H1315 C1274 0.930 . S
H1316 C1278 0.929 . S
H1317 C1280 0.930 . S
H1318 C1286 0.929 . S
H1319 C1287 0.930 . S
Li1320 N1337 1.990 . S
Li1320 O1380 1.956 . S
Li1320 O1381 1.970 . S
Li1320 O1382 1.961 . S
Li1321 N1345 1.990 . S
Li1321 O1380 1.970 . S
Li1321 O1381 1.956 . S
Li1321 O1383 1.961 . S
Li1322 N1367 1.990 . S
Li1322 O1380 1.961 . S
Li1322 O1382 1.956 . S
Li1322 O1383 1.970 . S
Li1323 N1373 1.990 . S
Li1323 O1381 1.961 . S
Li1323 O1382 1.970 . S
Li1323 O1383 1.956 . S
C1324 C1326 1.348 . S
C1324 C1327 1.356 . S
C1324 O1380 1.325 . S
N1325 C1328 1.314 . S
N1325 C1329 1.279 . S
C1326 C1324 1.348 . S
C1326 C1328 1.353 . S
C1326 H1384 0.929 . S
C1327 C1324 1.356 . S
C1327 C1329 1.358 . S
C1327 H1385 0.930 . S
C1328 N1325 1.314 . S
C1328 C1326 1.353 . S
C1328 H1386 0.930 . S
C1329 N1325 1.279 . S
C1329 C1327 1.358 . S
C1329 H1387 0.930 . S
C1330 C1333 1.348 . S
C1330 C1334 1.356 . S
C1330 O1381 1.325 . S
C1331 N1332 1.279 . S
C1331 C1334 1.358 . S
C1331 H1388 0.930 . S
N1332 C1331 1.279 . S
N1332 C1335 1.314 . S
C1333 C1330 1.348 . S
C1333 C1335 1.353 . S
C1333 H1389 0.929 . S
C1334 C1330 1.356 . S
C1334 C1331 1.358 . S
C1334 H1390 0.930 . S
C1335 N1332 1.314 . S
C1335 C1333 1.353 . S
C1335 H1391 0.930 . S
C1336 N1337 1.314 . S
C1336 C1341 1.353 . S
C1336 H1342 0.930 . S
N1337 Li1320 1.990 . S
N1337 C1336 1.314 . S
N1337 C1339 1.279 . S
C1338 C1339 1.358 . S
C1338 C1340 1.356 . S
C1338 H1392 0.930 . S
C1339 N1337 1.279 . S
C1339 C1338 1.358 . S
C1339 H1343 0.930 . S
C1340 C1338 1.356 . S
C1340 C1341 1.348 . S
C1341 C1336 1.353 . S
C1341 C1340 1.348 . S
C1341 H1393 0.929 . S
H1342 C1336 0.930 . S
H1343 C1339 0.930 . S
C1344 N1345 1.314 . S
C1344 C1346 1.353 . S
C1344 H1350 0.930 . S
N1345 Li1321 1.990 . S
N1345 C1344 1.314 . S
N1345 C1348 1.279 . S
C1346 C1344 1.353 . S
C1346 C1349 1.348 . S
C1346 H1394 0.929 . S
C1347 C1348 1.358 . S
C1347 C1349 1.356 . S
C1347 H1395 0.930 . S
C1348 N1345 1.279 . S
C1348 C1347 1.358 . S
C1348 H1351 0.930 . S
C1349 C1346 1.348 . S
C1349 C1347 1.356 . S
H1350 C1344 0.930 . S
H1351 C1348 0.930 . S
C1352 C1354 1.348 . S
C1352 C1355 1.356 . S
C1352 O1382 1.325 . S
N1353 C1356 1.314 . S
N1353 C1357 1.279 . S
C1354 C1352 1.348 . S
C1354 C1356 1.353 . S
C1354 H1396 0.929 . S
C1355 C1352 1.356 . S
C1355 C1357 1.358 . S
C1355 H1397 0.930 . S
C1356 N1353 1.314 . S
C1356 C1354 1.353 . S
C1356 H1398 0.930 . S
C1357 N1353 1.279 . S
C1357 C1355 1.358 . S
C1357 H1399 0.930 . S
C1358 C1359 1.348 . S
C1358 C1360 1.356 . S
C1358 O1383 1.325 . S
C1359 C1358 1.348 . S
C1359 C1361 1.353 . S
C1359 H1400 0.929 . S
C1360 C1358 1.356 . S
C1360 C1362 1.358 . S
C1360 H1401 0.930 . S
C1361 C1359 1.353 . S
C1361 N1363 1.314 . S
C1361 H1402 0.930 . S
C1362 C1360 1.358 . S
C1362 N1363 1.279 . S
C1362 H1403 0.930 . S
N1363 C1361 1.314 . S
N1363 C1362 1.279 . S
C1364 C1366 1.353 . S
C1364 N1367 1.314 . S
C1364 H1370 0.930 . S
C1365 N1367 1.279 . S
C1365 C1368 1.358 . S
C1365 H1371 0.930 . S
C1366 C1364 1.353 . S
C1366 C1369 1.348 . S
C1366 H1404 0.929 . S
N1367 Li1322 1.990 . S
N1367 C1364 1.314 . S
N1367 C1365 1.279 . S
C1368 C1365 1.358 . S
C1368 C1369 1.356 . S
C1368 H1405 0.930 . S
C1369 C1366 1.348 . S
C1369 C1368 1.356 . S
H1370 C1364 0.930 . S
H1371 C1365 0.930 . S
C1372 N1373 1.314 . S
C1372 C1374 1.353 . S
C1372 H1378 0.930 . S
N1373 Li1323 1.990 . S
N1373 C1372 1.314 . S
N1373 C1376 1.279 . S
C1374 C1372 1.353 . S
C1374 C1377 1.348 . S
C1374 H1406 0.929 . S
C1375 C1376 1.358 . S
C1375 C1377 1.356 . S
C1375 H1407 0.930 . S
C1376 N1373 1.279 . S
C1376 C1375 1.358 . S
C1376 H1379 0.930 . S
C1377 C1374 1.348 . S
C1377 C1375 1.356 . S
H1378 C1372 0.930 . S
H1379 C1376 0.930 . S
O1380 Li1320 1.956 . S
O1380 Li1321 1.970 . S
O1380 Li1322 1.961 . S
O1380 C1324 1.325 . S
O1381 Li1320 1.970 . S
O1381 Li1321 1.956 . S
O1381 Li1323 1.961 . S
O1381 C1330 1.325 . S
O1382 Li1320 1.961 . S
O1382 Li1322 1.956 . S
O1382 Li1323 1.970 . S
O1382 C1352 1.325 . S
O1383 Li1321 1.961 . S
O1383 Li1322 1.970 . S
O1383 Li1323 1.956 . S
O1383 C1358 1.325 . S
H1384 C1326 0.929 . S
H1385 C1327 0.930 . S
H1386 C1328 0.930 . S
H1387 C1329 0.930 . S
H1388 C1331 0.930 . S
H1389 C1333 0.929 . S
H1390 C1334 0.930 . S
H1391 C1335 0.930 . S
H1392 C1338 0.930 . S
H1393 C1341 0.929 . S
H1394 C1346 0.929 . S
H1395 C1347 0.930 . S
H1396 C1354 0.929 . S
H1397 C1355 0.930 . S
H1398 C1356 0.930 . S
H1399 C1357 0.930 . S
H1400 C1359 0.929 . S
H1401 C1360 0.930 . S
H1402 C1361 0.930 . S
H1403 C1362 0.930 . S
H1404 C1366 0.929 . S
H1405 C1368 0.930 . S
H1406 C1374 0.929 . S
H1407 C1375 0.930 . S
Li1408 N1425 1.990 . S
Li1408 O1468 1.956 1_545 S
Li1408 O1469 1.970 . S
Li1408 O1470 1.961 . S
Li1409 N1433 1.990 . S
Li1409 O1468 1.970 . S
Li1409 O1469 1.956 1_565 S
Li1409 O1471 1.961 1_565 S
Li1410 N1455 1.990 . S
Li1410 O1468 1.961 1_545 S
Li1410 O1470 1.956 . S
Li1410 O1471 1.970 . S
Li1411 N1461 1.990 . S
Li1411 O1469 1.961 . S
Li1411 O1470 1.970 . S
Li1411 O1471 1.956 . S
C1412 C1414 1.348 . S
C1412 C1415 1.356 . S
C1412 O1468 1.325 . S
N1413 C1416 1.314 . S
N1413 C1417 1.279 . S
C1414 C1412 1.348 . S
C1414 C1416 1.353 . S
C1414 H1472 0.929 . S
C1415 C1412 1.356 . S
C1415 C1417 1.358 . S
C1415 H1473 0.930 . S
C1416 N1413 1.314 . S
C1416 C1414 1.353 . S
C1416 H1474 0.930 . S
C1417 N1413 1.279 . S
C1417 C1415 1.358 . S
C1417 H1475 0.930 . S
C1418 C1421 1.348 1_545 S
C1418 C1422 1.356 . S
C1418 O1469 1.325 . S
C1419 N1420 1.293 . S
C1419 C1422 1.358 . S
C1419 H1476 0.930 . S
N1420 C1419 1.293 . S
N1420 C1423 1.303 1_545 S
C1421 C1418 1.348 1_565 S
C1421 C1423 1.353 . S
C1421 H1477 0.929 . S
C1422 C1418 1.356 . S
C1422 C1419 1.358 . S
C1422 H1478 0.930 . S
C1423 N1420 1.303 1_565 S
C1423 C1421 1.353 . S
C1423 H1479 0.930 . S
C1424 N1425 1.314 . S
C1424 C1429 1.353 . S
C1424 H1430 0.930 . S
N1425 Li1408 1.990 . S
N1425 C1424 1.314 . S
N1425 C1427 1.279 1_545 S
C1426 C1427 1.358 . S
C1426 C1428 1.356 1_565 S
C1426 H1480 0.930 . S
C1427 N1425 1.279 1_565 S
C1427 C1426 1.358 . S
C1427 H1431 0.930 . S
C1428 C1426 1.356 1_545 S
C1428 C1429 1.348 . S
C1429 C1424 1.353 . S
C1429 C1428 1.348 . S
C1429 H1481 0.929 . S
H1430 C1424 0.930 . S
H1431 C1427 0.930 . S
C1432 N1433 1.314 . S
C1432 C1434 1.353 . S
C1432 H1438 0.930 . S
N1433 Li1409 1.990 . S
N1433 C1432 1.314 . S
N1433 C1436 1.279 . S
C1434 C1432 1.353 . S
C1434 C1437 1.348 . S
C1434 H1482 0.929 . S
C1435 C1436 1.358 . S
C1435 C1437 1.356 . S
C1435 H1483 0.930 . S
C1436 N1433 1.279 . S
C1436 C1435 1.358 . S
C1436 H1439 0.930 . S
C1437 C1434 1.348 . S
C1437 C1435 1.356 . S
H1438 C1432 0.930 . S
H1439 C1436 0.930 . S
C1440 C1442 1.348 . S
C1440 C1443 1.356 . S
C1440 O1470 1.325 . S
N1441 C1444 1.314 . S
N1441 C1445 1.279 . S
C1442 C1440 1.348 . S
C1442 C1444 1.353 . S
C1442 H1484 0.929 . S
C1443 C1440 1.356 . S
C1443 C1445 1.358 . S
C1443 H1485 0.930 . S
C1444 N1441 1.314 . S
C1444 C1442 1.353 . S
C1444 H1486 0.930 . S
C1445 N1441 1.279 . S
C1445 C1443 1.358 . S
C1445 H1487 0.930 . S
C1446 C1447 1.348 . S
C1446 C1448 1.356 1_545 S
C1446 O1471 1.325 . S
C1447 C1446 1.348 . S
C1447 C1449 1.353 . S
C1447 H1488 0.929 . S
C1448 C1446 1.356 1_565 S
C1448 C1450 1.362 . S
C1448 H1489 0.930 . S
C1449 C1447 1.353 . S
C1449 N1451 1.314 . S
C1449 H1490 0.930 . S
C1450 C1448 1.362 . S
C1450 N1451 1.264 1_565 S
C1450 H1491 0.950 . S
N1451 C1449 1.314 . S
N1451 C1450 1.264 1_545 S
C1452 C1454 1.353 . S
C1452 N1455 1.314 1_565 S
C1452 H1458 0.930 . S
C1453 N1455 1.279 . S
C1453 C1456 1.358 . S
C1453 H1459 0.930 . S
C1454 C1452 1.353 . S
C1454 C1457 1.348 1_565 S
C1454 H1492 0.929 . S
N1455 Li1410 1.990 . S
N1455 C1452 1.314 1_545 S
N1455 C1453 1.279 . S
C1456 C1453 1.358 . S
C1456 C1457 1.356 . S
C1456 H1493 0.930 . S
C1457 C1454 1.348 1_545 S
C1457 C1456 1.356 . S
H1458 C1452 0.930 . S
H1459 C1453 0.930 . S
C1460 N1461 1.314 . S
C1460 C1462 1.353 . S
C1460 H1466 0.930 . S
N1461 Li1411 1.990 . S
N1461 C1460 1.314 . S
N1461 C1464 1.279 . S
C1462 C1460 1.353 . S
C1462 C1465 1.348 . S
C1462 H1494 0.929 . S
C1463 C1464 1.358 . S
C1463 C1465 1.356 . S
C1463 H1495 0.930 . S
C1464 N1461 1.279 . S
C1464 C1463 1.358 . S
C1464 H1467 0.930 . S
C1465 C1462 1.348 . S
C1465 C1463 1.356 . S
H1466 C1460 0.930 . S
H1467 C1464 0.930 . S
O1468 Li1408 1.956 1_565 S
O1468 Li1409 1.970 . S
O1468 Li1410 1.961 1_565 S
O1468 C1412 1.325 . S
O1469 Li1408 1.970 . S
O1469 Li1409 1.956 1_545 S
O1469 Li1411 1.961 . S
O1469 C1418 1.325 . S
O1470 Li1408 1.961 . S
O1470 Li1410 1.956 . S
O1470 Li1411 1.970 . S
O1470 C1440 1.325 . S
O1471 Li1409 1.961 1_545 S
O1471 Li1410 1.970 . S
O1471 Li1411 1.956 . S
O1471 C1446 1.325 . S
H1472 C1414 0.929 . S
H1473 C1415 0.930 . S
H1474 C1416 0.930 . S
H1475 C1417 0.930 . S
H1476 C1419 0.930 . S
H1477 C1421 0.929 . S
H1478 C1422 0.930 . S
H1479 C1423 0.930 . S
H1480 C1426 0.930 . S
H1481 C1429 0.929 . S
H1482 C1434 0.929 . S
H1483 C1435 0.930 . S
H1484 C1442 0.929 . S
H1485 C1443 0.930 . S
H1486 C1444 0.930 . S
H1487 C1445 0.930 . S
H1488 C1447 0.929 . S
H1489 C1448 0.930 . S
H1490 C1449 0.930 . S
H1491 C1450 0.950 . S
H1492 C1454 0.929 . S
H1493 C1456 0.930 . S
H1494 C1462 0.929 . S
H1495 C1463 0.930 . S
Li1496 N1513 1.990 . S
Li1496 O1556 1.956 . S
Li1496 O1557 1.970 . S
Li1496 O1558 1.961 . S
Li1497 N1521 1.990 . S
Li1497 O1556 1.970 . S
Li1497 O1557 1.956 . S
Li1497 O1559 1.961 . S
Li1498 N1543 1.990 . S
Li1498 O1556 1.961 . S
Li1498 O1558 1.956 . S
Li1498 O1559 1.970 . S
Li1499 N1549 1.990 . S
Li1499 O1557 1.961 . S
Li1499 O1558 1.970 . S
Li1499 O1559 1.956 . S
C1500 C1502 1.348 . S
C1500 C1503 1.356 . S
C1500 O1556 1.325 . S
N1501 C1504 1.314 . S
N1501 C1505 1.279 . S
C1502 C1500 1.348 . S
C1502 C1504 1.353 . S
C1502 H1560 0.929 . S
C1503 C1500 1.356 . S
C1503 C1505 1.358 . S
C1503 H1561 0.930 . S
C1504 N1501 1.314 . S
C1504 C1502 1.353 . S
C1504 H1562 0.930 . S
C1505 N1501 1.279 . S
C1505 C1503 1.358 . S
C1505 H1563 0.930 . S
C1506 C1509 1.348 . S
C1506 C1510 1.356 . S
C1506 O1557 1.325 . S
C1507 N1508 1.279 . S
C1507 C1510 1.358 . S
C1507 H1564 0.930 . S
N1508 C1507 1.279 . S
N1508 C1511 1.314 . S
C1509 C1506 1.348 . S
C1509 C1511 1.353 . S
C1509 H1565 0.929 . S
C1510 C1506 1.356 . S
C1510 C1507 1.358 . S
C1510 H1566 0.930 . S
C1511 N1508 1.314 . S
C1511 C1509 1.353 . S
C1511 H1567 0.930 . S
C1512 N1513 1.314 . S
C1512 C1517 1.353 . S
C1512 H1518 0.930 . S
N1513 Li1496 1.990 . S
N1513 C1512 1.314 . S
N1513 C1515 1.279 . S
C1514 C1515 1.358 . S
C1514 C1516 1.356 . S
C1514 H1568 0.930 . S
C1515 N1513 1.279 . S
C1515 C1514 1.358 . S
C1515 H1519 0.930 . S
C1516 C1514 1.356 . S
C1516 C1517 1.348 . S
C1517 C1512 1.353 . S
C1517 C1516 1.348 . S
C1517 H1569 0.929 . S
H1518 C1512 0.930 . S
H1519 C1515 0.930 . S
C1520 N1521 1.314 . S
C1520 C1522 1.353 . S
C1520 H1526 0.930 . S
N1521 Li1497 1.990 . S
N1521 C1520 1.314 . S
N1521 C1524 1.279 . S
C1522 C1520 1.353 . S
C1522 C1525 1.348 . S
C1522 H1570 0.929 . S
C1523 C1524 1.358 . S
C1523 C1525 1.356 . S
C1523 H1571 0.930 . S
C1524 N1521 1.279 . S
C1524 C1523 1.358 . S
C1524 H1527 0.930 . S
C1525 C1522 1.348 . S
C1525 C1523 1.356 . S
H1526 C1520 0.930 . S
H1527 C1524 0.930 . S
C1528 C1530 1.348 . S
C1528 C1531 1.356 . S
C1528 O1558 1.325 . S
N1529 C1532 1.314 . S
N1529 C1533 1.279 . S
C1530 C1528 1.348 . S
C1530 C1532 1.353 . S
C1530 H1572 0.929 . S
C1531 C1528 1.356 . S
C1531 C1533 1.358 . S
C1531 H1573 0.930 . S
C1532 N1529 1.314 . S
C1532 C1530 1.353 . S
C1532 H1574 0.930 . S
C1533 N1529 1.279 . S
C1533 C1531 1.358 . S
C1533 H1575 0.930 . S
C1534 C1535 1.348 . S
C1534 C1536 1.356 . S
C1534 O1559 1.325 . S
C1535 C1534 1.348 . S
C1535 C1537 1.353 . S
C1535 H1576 0.929 . S
C1536 C1534 1.356 . S
C1536 C1538 1.358 . S
C1536 H1577 0.930 . S
C1537 C1535 1.353 . S
C1537 N1539 1.314 . S
C1537 H1578 0.930 . S
C1538 C1536 1.358 . S
C1538 N1539 1.279 . S
C1538 H1579 0.930 . S
N1539 C1537 1.314 . S
N1539 C1538 1.279 . S
C1540 C1542 1.353 . S
C1540 N1543 1.314 . S
C1540 H1546 0.930 . S
C1541 N1543 1.279 . S
C1541 C1544 1.358 . S
C1541 H1547 0.930 . S
C1542 C1540 1.353 . S
C1542 C1545 1.348 . S
C1542 H1580 0.929 . S
N1543 Li1498 1.990 . S
N1543 C1540 1.314 . S
N1543 C1541 1.279 . S
C1544 C1541 1.358 . S
C1544 C1545 1.356 . S
C1544 H1581 0.930 . S
C1545 C1542 1.348 . S
C1545 C1544 1.356 . S
H1546 C1540 0.930 . S
H1547 C1541 0.930 . S
C1548 N1549 1.314 . S
C1548 C1550 1.353 . S
C1548 H1554 0.930 . S
N1549 Li1499 1.990 . S
N1549 C1548 1.314 . S
N1549 C1552 1.279 . S
C1550 C1548 1.353 . S
C1550 C1553 1.348 . S
C1550 H1582 0.929 . S
C1551 C1552 1.358 . S
C1551 C1553 1.356 . S
C1551 H1583 0.930 . S
C1552 N1549 1.279 . S
C1552 C1551 1.358 . S
C1552 H1555 0.930 . S
C1553 C1550 1.348 . S
C1553 C1551 1.356 . S
H1554 C1548 0.930 . S
H1555 C1552 0.930 . S
O1556 Li1496 1.956 . S
O1556 Li1497 1.970 . S
O1556 Li1498 1.961 . S
O1556 C1500 1.325 . S
O1557 Li1496 1.970 . S
O1557 Li1497 1.956 . S
O1557 Li1499 1.961 . S
O1557 C1506 1.325 . S
O1558 Li1496 1.961 . S
O1558 Li1498 1.956 . S
O1558 Li1499 1.970 . S
O1558 C1528 1.325 . S
O1559 Li1497 1.961 . S
O1559 Li1498 1.970 . S
O1559 Li1499 1.956 . S
O1559 C1534 1.325 . S
H1560 C1502 0.929 . S
H1561 C1503 0.930 . S
H1562 C1504 0.930 . S
H1563 C1505 0.930 . S
H1564 C1507 0.930 . S
H1565 C1509 0.929 . S
H1566 C1510 0.930 . S
H1567 C1511 0.930 . S
H1568 C1514 0.930 . S
H1569 C1517 0.929 . S
H1570 C1522 0.929 . S
H1571 C1523 0.930 . S
H1572 C1530 0.929 . S
H1573 C1531 0.930 . S
H1574 C1532 0.930 . S
H1575 C1533 0.930 . S
H1576 C1535 0.929 . S
H1577 C1536 0.930 . S
H1578 C1537 0.930 . S
H1579 C1538 0.930 . S
H1580 C1542 0.929 . S
H1581 C1544 0.930 . S
H1582 C1550 0.929 . S
H1583 C1551 0.930 . S
Li1584 N1601 1.990 . S
Li1584 O1644 1.956 . S
Li1584 O1645 1.970 . S
Li1584 O1646 1.961 1_545 S
Li1585 N1609 1.990 . S
Li1585 O1644 1.970 . S
Li1585 O1645 1.956 . S
Li1585 O1647 1.961 . S
Li1586 N1631 1.990 . S
Li1586 O1644 1.961 . S
Li1586 O1646 1.956 1_545 S
Li1586 O1647 1.970 . S
Li1587 N1637 1.990 . S
Li1587 O1645 1.961 1_565 S
Li1587 O1646 1.970 . S
Li1587 O1647 1.956 1_565 S
C1588 C1590 1.348 . S
C1588 C1591 1.356 . S
C1588 O1644 1.325 . S
N1589 C1592 1.314 . S
N1589 C1593 1.279 . S
C1590 C1588 1.348 . S
C1590 C1592 1.353 . S
C1590 H1648 0.929 . S
C1591 C1588 1.356 . S
C1591 C1593 1.358 . S
C1591 H1649 0.930 . S
C1592 N1589 1.314 . S
C1592 C1590 1.353 . S
C1592 H1650 0.930 . S
C1593 N1589 1.279 . S
C1593 C1591 1.358 . S
C1593 H1651 0.930 . S
C1594 C1597 1.348 . S
C1594 C1598 1.356 . S
C1594 O1645 1.325 . S
C1595 N1596 1.279 . S
C1595 C1598 1.358 . S
C1595 H1652 0.919 1_545 S
N1596 C1595 1.279 . S
N1596 C1599 1.314 . S
C1597 C1594 1.348 . S
C1597 C1599 1.353 . S
C1597 H1653 0.929 . S
C1598 C1594 1.356 . S
C1598 C1595 1.358 . S
C1598 H1654 0.917 1_545 S
C1599 N1596 1.314 . S
C1599 C1597 1.353 . S
C1599 H1655 0.930 . S
C1600 N1601 1.314 1_565 S
C1600 C1605 1.353 . S
C1600 H1606 0.930 . S
N1601 Li1584 1.990 . S
N1601 C1600 1.314 1_545 S
N1601 C1603 1.279 . S
C1602 C1603 1.358 . S
C1602 C1604 1.356 . S
C1602 H1656 0.930 . S
C1603 N1601 1.279 . S
C1603 C1602 1.358 . S
C1603 H1607 0.930 . S
C1604 C1602 1.356 . S
C1604 C1605 1.348 1_545 S
C1605 C1600 1.353 . S
C1605 C1604 1.348 1_565 S
C1605 H1657 0.929 . S
H1606 C1600 0.930 . S
H1607 C1603 0.930 . S
C1608 N1609 1.314 . S
C1608 C1610 1.353 . S
C1608 H1614 0.930 . S
N1609 Li1585 1.990 . S
N1609 C1608 1.314 . S
N1609 C1612 1.279 . S
C1610 C1608 1.353 . S
C1610 C1613 1.348 . S
C1610 H1658 0.929 . S
C1611 C1612 1.358 . S
C1611 C1613 1.356 . S
C1611 H1659 0.930 . S
C1612 N1609 1.279 . S
C1612 C1611 1.358 . S
C1612 H1615 0.930 . S
C1613 C1610 1.348 . S
C1613 C1611 1.356 . S
H1614 C1608 0.930 . S
H1615 C1612 0.930 . S
C1616 C1618 1.348 . S
C1616 C1619 1.356 . S
C1616 O1646 1.325 . S
N1617 C1620 1.314 . S
N1617 C1621 1.279 . S
C1618 C1616 1.348 . S
C1618 C1620 1.353 . S
C1618 H1660 0.929 . S
C1619 C1616 1.356 . S
C1619 C1621 1.358 . S
C1619 H1661 0.930 . S
C1620 N1617 1.314 . S
C1620 C1618 1.353 . S
C1620 H1662 0.930 . S
C1621 N1617 1.279 . S
C1621 C1619 1.358 . S
C1621 H1663 0.930 . S
C1622 C1623 1.332 1_545 S
C1622 C1624 1.356 . S
C1622 O1647 1.325 . S
C1623 C1622 1.332 1_565 S
C1623 C1625 1.353 . S
C1623 H1664 0.947 . S
C1624 C1622 1.356 . S
C1624 C1626 1.358 . S
C1624 H1665 0.930 . S
C1625 C1623 1.353 . S
C1625 N1627 1.302 1_565 S
C1625 H1666 0.947 . S
C1626 C1624 1.358 . S
C1626 N1627 1.279 . S
C1626 H1667 0.930 . S
N1627 C1625 1.302 1_545 S
N1627 C1626 1.279 . S
C1628 C1630 1.353 . S
C1628 N1631 1.314 . S
C1628 H1634 0.930 . S
C1629 N1631 1.279 1_565 S
C1629 C1632 1.358 . S
C1629 H1635 0.930 . S
C1630 C1628 1.353 . S
C1630 C1633 1.348 . S
C1630 H1668 0.929 . S
N1631 Li1586 1.990 . S
N1631 C1628 1.314 . S
N1631 C1629 1.279 1_545 S
C1632 C1629 1.358 . S
C1632 C1633 1.356 1_565 S
C1632 H1669 0.930 . S
C1633 C1630 1.348 . S
C1633 C1632 1.356 1_545 S
H1634 C1628 0.930 . S
H1635 C1629 0.930 . S
C1636 N1637 1.314 . S
C1636 C1638 1.353 . S
C1636 H1642 0.930 . S
N1637 Li1587 1.990 . S
N1637 C1636 1.314 . S
N1637 C1640 1.279 . S
C1638 C1636 1.353 . S
C1638 C1641 1.348 . S
C1638 H1670 0.929 . S
C1639 C1640 1.358 . S
C1639 C1641 1.356 . S
C1639 H1671 0.930 . S
C1640 N1637 1.279 . S
C1640 C1639 1.358 . S
C1640 H1643 0.930 . S
C1641 C1638 1.348 . S
C1641 C1639 1.356 . S
H1642 C1636 0.930 . S
H1643 C1640 0.930 . S
O1644 Li1584 1.956 . S
O1644 Li1585 1.970 . S
O1644 Li1586 1.961 . S
O1644 C1588 1.325 . S
O1645 Li1584 1.970 . S
O1645 Li1585 1.956 . S
O1645 Li1587 1.961 1_545 S
O1645 C1594 1.325 . S
O1646 Li1584 1.961 1_565 S
O1646 Li1586 1.956 1_565 S
O1646 Li1587 1.970 . S
O1646 C1616 1.325 . S
O1647 Li1585 1.961 . S
O1647 Li1586 1.970 . S
O1647 Li1587 1.956 1_545 S
O1647 C1622 1.325 . S
H1648 C1590 0.929 . S
H1649 C1591 0.930 . S
H1650 C1592 0.930 . S
H1651 C1593 0.930 . S
H1652 C1595 0.919 1_565 S
H1653 C1597 0.929 . S
H1654 C1598 0.917 1_565 S
H1655 C1599 0.930 . S
H1656 C1602 0.930 . S
H1657 C1605 0.929 . S
H1658 C1610 0.929 . S
H1659 C1611 0.930 . S
H1660 C1618 0.929 . S
H1661 C1619 0.930 . S
H1662 C1620 0.930 . S
H1663 C1621 0.930 . S
H1664 C1623 0.947 . S
H1665 C1624 0.930 . S
H1666 C1625 0.947 . S
H1667 C1626 0.930 . S
H1668 C1630 0.929 . S
H1669 C1632 0.930 . S
H1670 C1638 0.929 . S
H1671 C1639 0.930 . S
Li1672 N1689 1.990 . S
Li1672 O1732 1.956 . S
Li1672 O1733 1.970 . S
Li1672 O1734 1.961 1_554 S
Li1673 N1697 1.990 . S
Li1673 O1732 1.970 . S
Li1673 O1733 1.956 . S
Li1673 O1735 1.961 . S
Li1674 N1719 1.990 . S
Li1674 O1732 1.961 . S
Li1674 O1734 1.956 1_554 S
Li1674 O1735 1.970 . S
Li1675 N1725 1.990 . S
Li1675 O1733 1.961 1_556 S
Li1675 O1734 1.970 . S
Li1675 O1735 1.956 1_556 S
C1676 C1678 1.348 . S
C1676 C1679 1.356 . S
C1676 O1732 1.325 . S
N1677 C1680 1.314 . S
N1677 C1681 1.279 . S
C1678 C1676 1.348 . S
C1678 C1680 1.353 . S
C1678 H1736 0.929 . S
C1679 C1676 1.356 . S
C1679 C1681 1.358 . S
C1679 H1737 0.930 . S
C1680 N1677 1.314 . S
C1680 C1678 1.353 . S
C1680 H1738 0.930 . S
C1681 N1677 1.279 . S
C1681 C1679 1.358 . S
C1681 H1739 0.930 . S
C1682 C1685 1.348 . S
C1682 C1686 1.356 . S
C1682 O1733 1.325 . S
C1683 N1684 1.279 . S
C1683 C1686 1.358 . S
C1683 H1740 0.930 . S
N1684 C1683 1.279 . S
N1684 C1687 1.314 . S
C1685 C1682 1.348 . S
C1685 C1687 1.353 . S
C1685 H1741 0.929 . S
C1686 C1682 1.356 . S
C1686 C1683 1.358 . S
C1686 H1742 0.930 . S
C1687 N1684 1.314 . S
C1687 C1685 1.353 . S
C1687 H1743 0.930 . S
C1688 N1689 1.314 1_556 S
C1688 C1693 1.353 . S
C1688 H1694 0.930 . S
N1689 Li1672 1.990 . S
N1689 C1688 1.314 1_554 S
N1689 C1691 1.279 . S
C1690 C1691 1.358 . S
C1690 C1692 1.356 . S
C1690 H1744 0.930 . S
C1691 N1689 1.279 . S
C1691 C1690 1.358 . S
C1691 H1695 0.930 . S
C1692 C1690 1.356 . S
C1692 C1693 1.348 1_554 S
C1693 C1688 1.353 . S
C1693 C1692 1.348 1_556 S
C1693 H1745 0.929 . S
H1694 C1688 0.930 . S
H1695 C1691 0.930 . S
C1696 N1697 1.314 . S
C1696 C1698 1.353 . S
C1696 H1702 0.930 . S
N1697 Li1673 1.990 . S
N1697 C1696 1.314 . S
N1697 C1700 1.279 . S
C1698 C1696 1.353 . S
C1698 C1701 1.348 . S
C1698 H1746 0.929 . S
C1699 C1700 1.358 . S
C1699 C1701 1.356 . S
C1699 H1747 0.930 . S
C1700 N1697 1.279 . S
C1700 C1699 1.358 . S
C1700 H1703 0.930 . S
C1701 C1698 1.348 . S
C1701 C1699 1.356 . S
H1702 C1696 0.930 . S
H1703 C1700 0.930 . S
C1704 C1706 1.348 . S
C1704 C1707 1.356 . S
C1704 O1734 1.325 . S
N1705 C1708 1.314 . S
N1705 C1709 1.279 . S
C1706 C1704 1.348 . S
C1706 C1708 1.353 . S
C1706 H1748 0.929 . S
C1707 C1704 1.356 . S
C1707 C1709 1.358 . S
C1707 H1749 0.930 . S
C1708 N1705 1.314 . S
C1708 C1706 1.353 . S
C1708 H1750 0.930 . S
C1709 N1705 1.279 . S
C1709 C1707 1.358 . S
C1709 H1751 0.930 . S
C1710 C1711 1.348 . S
C1710 C1712 1.356 . S
C1710 O1735 1.325 . S
C1711 C1710 1.348 . S
C1711 C1713 1.353 . S
C1711 H1752 0.915 1_554 S
C1712 C1710 1.356 . S
C1712 C1714 1.358 . S
C1712 H1753 0.930 . S
C1713 C1711 1.353 . S
C1713 N1715 1.314 . S
C1713 H1754 0.924 1_554 S
C1714 C1712 1.358 . S
C1714 N1715 1.279 . S
C1714 H1755 0.930 . S
N1715 C1713 1.314 . S
N1715 C1714 1.279 . S
C1716 C1718 1.353 . S
C1716 N1719 1.314 . S
C1716 H1722 0.930 . S
C1717 N1719 1.279 1_556 S
C1717 C1720 1.358 . S
C1717 H1723 0.930 . S
C1718 C1716 1.353 . S
C1718 C1721 1.348 . S
C1718 H1756 0.929 . S
N1719 Li1674 1.990 . S
N1719 C1716 1.314 . S
N1719 C1717 1.279 1_554 S
C1720 C1717 1.358 . S
C1720 C1721 1.356 1_556 S
C1720 H1757 0.930 . S
C1721 C1718 1.348 . S
C1721 C1720 1.356 1_554 S
H1722 C1716 0.930 . S
H1723 C1717 0.930 . S
C1724 N1725 1.314 . S
C1724 C1726 1.353 . S
C1724 H1730 0.930 . S
N1725 Li1675 1.990 . S
N1725 C1724 1.314 . S
N1725 C1728 1.279 . S
C1726 C1724 1.353 . S
C1726 C1729 1.348 . S
C1726 H1758 0.929 . S
C1727 C1728 1.358 . S
C1727 C1729 1.356 . S
C1727 H1759 0.930 . S
C1728 N1725 1.279 . S
C1728 C1727 1.358 . S
C1728 H1731 0.930 . S
C1729 C1726 1.348 . S
C1729 C1727 1.356 . S
H1730 C1724 0.930 . S
H1731 C1728 0.930 . S
O1732 Li1672 1.956 . S
O1732 Li1673 1.970 . S
O1732 Li1674 1.961 . S
O1732 C1676 1.325 . S
O1733 Li1672 1.970 . S
O1733 Li1673 1.956 . S
O1733 Li1675 1.961 1_554 S
O1733 C1682 1.325 . S
O1734 Li1672 1.961 1_556 S
O1734 Li1674 1.956 1_556 S
O1734 Li1675 1.970 . S
O1734 C1704 1.325 . S
O1735 Li1673 1.961 . S
O1735 Li1674 1.970 . S
O1735 Li1675 1.956 1_554 S
O1735 C1710 1.325 . S
H1736 C1678 0.929 . S
H1737 C1679 0.930 . S
H1738 C1680 0.930 . S
H1739 C1681 0.930 . S
H1740 C1683 0.930 . S
H1741 C1685 0.929 . S
H1742 C1686 0.930 . S
H1743 C1687 0.930 . S
H1744 C1690 0.930 . S
H1745 C1693 0.929 . S
H1746 C1698 0.929 . S
H1747 C1699 0.930 . S
H1748 C1706 0.929 . S
H1749 C1707 0.930 . S
H1750 C1708 0.930 . S
H1751 C1709 0.930 . S
H1752 C1711 0.915 1_556 S
H1753 C1712 0.930 . S
H1754 C1713 0.924 1_556 S
H1755 C1714 0.930 . S
H1756 C1718 0.929 . S
H1757 C1720 0.930 . S
H1758 C1726 0.929 . S
H1759 C1727 0.930 . S
Li1760 N1777 1.990 . S
Li1760 O1820 1.956 . S
Li1760 O1821 1.970 . S
Li1760 O1822 1.961 . S
Li1761 N1785 1.990 . S
Li1761 O1820 1.970 . S
Li1761 O1821 1.956 . S
Li1761 O1823 1.961 1_554 S
Li1762 N1807 1.990 . S
Li1762 O1820 1.961 1_556 S
Li1762 O1822 1.956 1_556 S
Li1762 O1823 1.970 . S
Li1763 N1813 1.990 . S
Li1763 O1821 2.014 . S
Li1763 O1822 1.974 . S
Li1763 O1823 1.907 1_554 S
C1764 C1766 1.348 . S
C1764 C1767 1.356 1_554 S
C1764 O1820 1.325 . S
N1765 C1768 1.314 . S
N1765 C1769 1.267 1_554 S
C1766 C1764 1.348 . S
C1766 C1768 1.353 . S
C1766 H1824 0.929 . S
C1767 C1764 1.356 1_556 S
C1767 C1769 1.361 . S
C1767 H1825 0.930 . S
C1768 N1765 1.314 . S
C1768 C1766 1.353 . S
C1768 H1826 0.930 . S
C1769 N1765 1.267 1_556 S
C1769 C1767 1.361 . S
C1769 H1827 0.945 . S
C1770 C1773 1.348 . S
C1770 C1774 1.356 . S
C1770 O1821 1.325 . S
C1771 N1772 1.279 . S
C1771 C1774 1.358 . S
C1771 H1828 0.930 . S
N1772 C1771 1.279 . S
N1772 C1775 1.314 . S
C1773 C1770 1.348 . S
C1773 C1775 1.353 . S
C1773 H1829 0.929 . S
C1774 C1770 1.356 . S
C1774 C1771 1.358 . S
C1774 H1830 0.930 . S
C1775 N1772 1.314 . S
C1775 C1773 1.353 . S
C1775 H1831 0.930 . S
C1776 N1777 1.314 . S
C1776 C1781 1.353 . S
C1776 H1782 0.930 . S
N1777 Li1760 1.990 . S
N1777 C1776 1.314 . S
N1777 C1779 1.279 . S
C1778 C1779 1.358 . S
C1778 C1780 1.356 . S
C1778 H1832 0.930 . S
C1779 N1777 1.279 . S
C1779 C1778 1.358 . S
C1779 H1783 0.930 . S
C1780 C1778 1.356 . S
C1780 C1781 1.348 . S
C1781 C1776 1.353 . S
C1781 C1780 1.348 . S
C1781 H1833 0.929 . S
H1782 C1776 0.930 . S
H1783 C1779 0.930 . S
C1784 N1785 1.314 1_556 S
C1784 C1786 1.353 . S
C1784 H1790 0.930 . S
N1785 Li1761 1.990 . S
N1785 C1784 1.314 1_554 S
N1785 C1788 1.279 . S
C1786 C1784 1.353 . S
C1786 C1789 1.348 1_556 S
C1786 H1834 0.929 . S
C1787 C1788 1.358 . S
C1787 C1789 1.356 . S
C1787 H1835 0.930 . S
C1788 N1785 1.279 . S
C1788 C1787 1.358 . S
C1788 H1791 0.930 . S
C1789 C1786 1.348 1_554 S
C1789 C1787 1.356 . S
H1790 C1784 0.930 . S
H1791 C1788 0.930 . S
C1792 C1794 1.348 1_554 S
C1792 C1795 1.356 . S
C1792 O1822 1.325 . S
N1793 C1796 1.309 1_554 S
N1793 C1797 1.286 . S
C1794 C1792 1.348 1_556 S
C1794 C1796 1.353 . S
C1794 H1836 0.929 . S
C1795 C1792 1.356 . S
C1795 C1797 1.358 . S
C1795 H1837 0.930 . S
C1796 N1793 1.309 1_556 S
C1796 C1794 1.353 . S
C1796 H1838 0.930 . S
C1797 N1793 1.286 . S
C1797 C1795 1.358 . S
C1797 H1839 0.930 . S
C1798 C1799 1.348 . S
C1798 C1800 1.356 . S
C1798 O1823 1.325 . S
C1799 C1798 1.348 . S
C1799 C1801 1.353 . S
C1799 H1840 0.929 . S
C1800 C1798 1.356 . S
C1800 C1802 1.358 . S
C1800 H1841 0.930 . S
C1801 C1799 1.353 . S
C1801 N1803 1.314 . S
C1801 H1842 0.930 . S
C1802 C1800 1.358 . S
C1802 N1803 1.279 . S
C1802 H1843 0.930 . S
N1803 C1801 1.314 . S
N1803 C1802 1.279 . S
C1804 C1806 1.353 . S
C1804 N1807 1.314 . S
C1804 H1810 0.930 . S
C1805 N1807 1.279 . S
C1805 C1808 1.358 . S
C1805 H1811 0.930 . S
C1806 C1804 1.353 . S
C1806 C1809 1.348 . S
C1806 H1844 0.929 . S
N1807 Li1762 1.990 . S
N1807 C1804 1.314 . S
N1807 C1805 1.279 . S
C1808 C1805 1.358 . S
C1808 C1809 1.356 . S
C1808 H1845 0.930 . S
C1809 C1806 1.348 . S
C1809 C1808 1.356 . S
H1810 C1804 0.930 . S
H1811 C1805 0.930 . S
C1812 N1813 1.347 . S
C1812 C1814 1.353 . S
C1812 H1818 0.930 . S
N1813 Li1763 1.990 . S
N1813 C1812 1.347 . S
N1813 C1816 1.248 1_554 S
C1814 C1812 1.353 . S
C1814 C1817 1.348 . S
C1814 H1846 0.929 . S
C1815 C1816 1.358 . S
C1815 C1817 1.356 1_556 S
C1815 H1847 0.930 . S
C1816 N1813 1.248 1_556 S
C1816 C1815 1.358 . S
C1816 H1819 0.930 . S
C1817 C1814 1.348 . S
C1817 C1815 1.356 1_554 S
H1818 C1812 0.930 . S
H1819 C1816 0.930 . S
O1820 Li1760 1.956 . S
O1820 Li1761 1.970 . S
O1820 Li1762 1.961 1_554 S
O1820 C1764 1.325 . S
O1821 Li1760 1.970 . S
O1821 Li1761 1.956 . S
O1821 Li1763 2.014 . S
O1821 C1770 1.325 . S
O1822 Li1760 1.961 . S
O1822 Li1762 1.956 1_554 S
O1822 Li1763 1.974 . S
O1822 C1792 1.325 . S
O1823 Li1761 1.961 1_556 S
O1823 Li1762 1.970 . S
O1823 Li1763 1.907 1_556 S
O1823 C1798 1.325 . S
H1824 C1766 0.929 . S
H1825 C1767 0.930 . S
H1826 C1768 0.930 . S
H1827 C1769 0.945 . S
H1828 C1771 0.930 . S
H1829 C1773 0.929 . S
H1830 C1774 0.930 . S
H1831 C1775 0.930 . S
H1832 C1778 0.930 . S
H1833 C1781 0.929 . S
H1834 C1786 0.929 . S
H1835 C1787 0.930 . S
H1836 C1794 0.929 . S
H1837 C1795 0.930 . S
H1838 C1796 0.930 . S
H1839 C1797 0.930 . S
H1840 C1799 0.929 . S
H1841 C1800 0.930 . S
H1842 C1801 0.930 . S
H1843 C1802 0.930 . S
H1844 C1806 0.929 . S
H1845 C1808 0.930 . S
H1846 C1814 0.929 . S
H1847 C1815 0.930 . S
Li1848 N1865 1.990 . S
Li1848 O1908 1.956 . S
Li1848 O1909 1.970 . S
Li1848 O1910 1.961 . S
Li1849 N1873 1.990 . S
Li1849 O1908 1.970 . S
Li1849 O1909 1.956 . S
Li1849 O1911 1.961 . S
Li1850 N1895 1.990 . S
Li1850 O1908 1.961 . S
Li1850 O1910 1.956 . S
Li1850 O1911 1.970 . S
Li1851 N1901 1.990 . S
Li1851 O1909 1.961 . S
Li1851 O1910 1.970 . S
Li1851 O1911 1.956 . S
C1852 C1854 1.348 . S
C1852 C1855 1.356 . S
C1852 O1908 1.325 . S
N1853 C1856 1.314 . S
N1853 C1857 1.279 . S
C1854 C1852 1.348 . S
C1854 C1856 1.353 . S
C1854 H1912 0.929 . S
C1855 C1852 1.356 . S
C1855 C1857 1.358 . S
C1855 H1913 0.930 . S
C1856 N1853 1.314 . S
C1856 C1854 1.353 . S
C1856 H1914 0.930 . S
C1857 N1853 1.279 . S
C1857 C1855 1.358 . S
C1857 H1915 0.930 . S
C1858 C1861 1.348 . S
C1858 C1862 1.356 . S
C1858 O1909 1.325 . S
C1859 N1860 1.279 . S
C1859 C1862 1.358 . S
C1859 H1916 0.930 . S
N1860 C1859 1.279 . S
N1860 C1863 1.314 . S
C1861 C1858 1.348 . S
C1861 C1863 1.353 . S
C1861 H1917 0.929 . S
C1862 C1858 1.356 . S
C1862 C1859 1.358 . S
C1862 H1918 0.930 . S
C1863 N1860 1.314 . S
C1863 C1861 1.353 . S
C1863 H1919 0.930 . S
C1864 N1865 1.314 . S
C1864 C1869 1.353 . S
C1864 H1870 0.930 . S
N1865 Li1848 1.990 . S
N1865 C1864 1.314 . S
N1865 C1867 1.279 . S
C1866 C1867 1.358 . S
C1866 C1868 1.356 . S
C1866 H1920 0.930 . S
C1867 N1865 1.279 . S
C1867 C1866 1.358 . S
C1867 H1871 0.930 . S
C1868 C1866 1.356 . S
C1868 C1869 1.348 . S
C1869 C1864 1.353 . S
C1869 C1868 1.348 . S
C1869 H1921 0.929 . S
H1870 C1864 0.930 . S
H1871 C1867 0.930 . S
C1872 N1873 1.314 . S
C1872 C1874 1.353 . S
C1872 H1878 0.930 . S
N1873 Li1849 1.990 . S
N1873 C1872 1.314 . S
N1873 C1876 1.279 . S
C1874 C1872 1.353 . S
C1874 C1877 1.348 . S
C1874 H1922 0.929 . S
C1875 C1876 1.358 . S
C1875 C1877 1.356 . S
C1875 H1923 0.930 . S
C1876 N1873 1.279 . S
C1876 C1875 1.358 . S
C1876 H1879 0.930 . S
C1877 C1874 1.348 . S
C1877 C1875 1.356 . S
H1878 C1872 0.930 . S
H1879 C1876 0.930 . S
C1880 C1882 1.348 . S
C1880 C1883 1.356 . S
C1880 O1910 1.325 . S
N1881 C1884 1.314 . S
N1881 C1885 1.279 . S
C1882 C1880 1.348 . S
C1882 C1884 1.353 . S
C1882 H1924 0.929 . S
C1883 C1880 1.356 . S
C1883 C1885 1.358 . S
C1883 H1925 0.930 . S
C1884 N1881 1.314 . S
C1884 C1882 1.353 . S
C1884 H1926 0.930 . S
C1885 N1881 1.279 . S
C1885 C1883 1.358 . S
C1885 H1927 0.930 . S
C1886 C1887 1.348 . S
C1886 C1888 1.356 . S
C1886 O1911 1.325 . S
C1887 C1886 1.348 . S
C1887 C1889 1.353 . S
C1887 H1928 0.929 . S
C1888 C1886 1.356 . S
C1888 C1890 1.358 . S
C1888 H1929 0.930 . S
C1889 C1887 1.353 . S
C1889 N1891 1.314 . S
C1889 H1930 0.930 . S
C1890 C1888 1.358 . S
C1890 N1891 1.279 . S
C1890 H1931 0.930 . S
N1891 C1889 1.314 . S
N1891 C1890 1.279 . S
C1892 C1894 1.353 . S
C1892 N1895 1.314 . S
C1892 H1898 0.930 . S
C1893 N1895 1.279 . S
C1893 C1896 1.358 . S
C1893 H1899 0.930 . S
C1894 C1892 1.353 . S
C1894 C1897 1.348 . S
C1894 H1932 0.929 . S
N1895 Li1850 1.990 . S
N1895 C1892 1.314 . S
N1895 C1893 1.279 . S
C1896 C1893 1.358 . S
C1896 C1897 1.356 . S
C1896 H1933 0.930 . S
C1897 C1894 1.348 . S
C1897 C1896 1.356 . S
H1898 C1892 0.930 . S
H1899 C1893 0.930 . S
C1900 N1901 1.314 . S
C1900 C1902 1.353 . S
C1900 H1906 0.930 . S
N1901 Li1851 1.990 . S
N1901 C1900 1.314 . S
N1901 C1904 1.279 . S
C1902 C1900 1.353 . S
C1902 C1905 1.348 . S
C1902 H1934 0.929 . S
C1903 C1904 1.358 . S
C1903 C1905 1.356 . S
C1903 H1935 0.930 . S
C1904 N1901 1.279 . S
C1904 C1903 1.358 . S
C1904 H1907 0.930 . S
C1905 C1902 1.348 . S
C1905 C1903 1.356 . S
H1906 C1900 0.930 . S
H1907 C1904 0.930 . S
O1908 Li1848 1.956 . S
O1908 Li1849 1.970 . S
O1908 Li1850 1.961 . S
O1908 C1852 1.325 . S
O1909 Li1848 1.970 . S
O1909 Li1849 1.956 . S
O1909 Li1851 1.961 . S
O1909 C1858 1.325 . S
O1910 Li1848 1.961 . S
O1910 Li1850 1.956 . S
O1910 Li1851 1.970 . S
O1910 C1880 1.325 . S
O1911 Li1849 1.961 . S
O1911 Li1850 1.970 . S
O1911 Li1851 1.956 . S
O1911 C1886 1.325 . S
H1912 C1854 0.929 . S
H1913 C1855 0.930 . S
H1914 C1856 0.930 . S
H1915 C1857 0.930 . S
H1916 C1859 0.930 . S
H1917 C1861 0.929 . S
H1918 C1862 0.930 . S
H1919 C1863 0.930 . S
H1920 C1866 0.930 . S
H1921 C1869 0.929 . S
H1922 C1874 0.929 . S
H1923 C1875 0.930 . S
H1924 C1882 0.929 . S
H1925 C1883 0.930 . S
H1926 C1884 0.930 . S
H1927 C1885 0.930 . S
H1928 C1887 0.929 . S
H1929 C1888 0.930 . S
H1930 C1889 0.930 . S
H1931 C1890 0.930 . S
H1932 C1894 0.929 . S
H1933 C1896 0.930 . S
H1934 C1902 0.929 . S
H1935 C1903 0.930 . S
Li1936 N1953 1.990 . S
Li1936 O1996 1.956 . S
Li1936 O1997 1.970 . S
Li1936 O1998 1.961 . S
Li1937 N1961 1.990 . S
Li1937 O1996 1.970 . S
Li1937 O1997 1.956 . S
Li1937 O1999 1.961 . S
Li1938 N1983 1.990 . S
Li1938 O1996 1.961 . S
Li1938 O1998 1.956 . S
Li1938 O1999 1.970 . S
Li1939 N1989 1.990 . S
Li1939 O1997 1.961 . S
Li1939 O1998 1.970 . S
Li1939 O1999 1.956 . S
C1940 C1942 1.348 . S
C1940 C1943 1.356 . S
C1940 O1996 1.325 . S
N1941 C1944 1.314 . S
N1941 C1945 1.279 . S
C1942 C1940 1.348 . S
C1942 C1944 1.353 . S
C1942 H2000 0.929 . S
C1943 C1940 1.356 . S
C1943 C1945 1.358 . S
C1943 H2001 0.930 . S
C1944 N1941 1.314 . S
C1944 C1942 1.353 . S
C1944 H2002 0.930 . S
C1945 N1941 1.279 . S
C1945 C1943 1.358 . S
C1945 H2003 0.930 . S
C1946 C1949 1.348 . S
C1946 C1950 1.356 . S
C1946 O1997 1.325 . S
C1947 N1948 1.279 . S
C1947 C1950 1.358 . S
C1947 H2004 0.930 . S
N1948 C1947 1.279 . S
N1948 C1951 1.314 . S
C1949 C1946 1.348 . S
C1949 C1951 1.353 . S
C1949 H2005 0.929 . S
C1950 C1946 1.356 . S
C1950 C1947 1.358 . S
C1950 H2006 0.930 . S
C1951 N1948 1.314 . S
C1951 C1949 1.353 . S
C1951 H2007 0.930 . S
C1952 N1953 1.314 . S
C1952 C1957 1.353 . S
C1952 H1958 0.930 . S
N1953 Li1936 1.990 . S
N1953 C1952 1.314 . S
N1953 C1955 1.279 . S
C1954 C1955 1.358 . S
C1954 C1956 1.356 . S
C1954 H2008 0.930 . S
C1955 N1953 1.279 . S
C1955 C1954 1.358 . S
C1955 H1959 0.930 . S
C1956 C1954 1.356 . S
C1956 C1957 1.348 . S
C1957 C1952 1.353 . S
C1957 C1956 1.348 . S
C1957 H2009 0.929 . S
H1958 C1952 0.930 . S
H1959 C1955 0.930 . S
C1960 N1961 1.314 . S
C1960 C1962 1.353 . S
C1960 H1966 0.930 . S
N1961 Li1937 1.990 . S
N1961 C1960 1.314 . S
N1961 C1964 1.279 . S
C1962 C1960 1.353 . S
C1962 C1965 1.348 . S
C1962 H2010 0.929 . S
C1963 C1964 1.358 . S
C1963 C1965 1.356 . S
C1963 H2011 0.930 . S
C1964 N1961 1.279 . S
C1964 C1963 1.358 . S
C1964 H1967 0.930 . S
C1965 C1962 1.348 . S
C1965 C1963 1.356 . S
H1966 C1960 0.930 . S
H1967 C1964 0.930 . S
C1968 C1970 1.348 . S
C1968 C1971 1.356 . S
C1968 O1998 1.325 . S
N1969 C1972 1.314 . S
N1969 C1973 1.279 . S
C1970 C1968 1.348 . S
C1970 C1972 1.353 . S
C1970 H2012 0.929 . S
C1971 C1968 1.356 . S
C1971 C1973 1.358 . S
C1971 H2013 0.930 . S
C1972 N1969 1.314 . S
C1972 C1970 1.353 . S
C1972 H2014 0.930 . S
C1973 N1969 1.279 . S
C1973 C1971 1.358 . S
C1973 H2015 0.930 . S
C1974 C1975 1.348 . S
C1974 C1976 1.356 . S
C1974 O1999 1.325 . S
C1975 C1974 1.348 . S
C1975 C1977 1.353 . S
C1975 H2016 0.929 . S
C1976 C1974 1.356 . S
C1976 C1978 1.358 . S
C1976 H2017 0.930 . S
C1977 C1975 1.353 . S
C1977 N1979 1.314 . S
C1977 H2018 0.930 . S
C1978 C1976 1.358 . S
C1978 N1979 1.279 . S
C1978 H2019 0.930 . S
N1979 C1977 1.314 . S
N1979 C1978 1.279 . S
C1980 C1982 1.353 . S
C1980 N1983 1.314 . S
C1980 H1986 0.930 . S
C1981 N1983 1.279 . S
C1981 C1984 1.358 . S
C1981 H1987 0.930 . S
C1982 C1980 1.353 . S
C1982 C1985 1.348 . S
C1982 H2020 0.929 . S
N1983 Li1938 1.990 . S
N1983 C1980 1.314 . S
N1983 C1981 1.279 . S
C1984 C1981 1.358 . S
C1984 C1985 1.356 . S
C1984 H2021 0.930 . S
C1985 C1982 1.348 . S
C1985 C1984 1.356 . S
H1986 C1980 0.930 . S
H1987 C1981 0.930 . S
C1988 N1989 1.314 . S
C1988 C1990 1.353 . S
C1988 H1994 0.930 . S
N1989 Li1939 1.990 . S
N1989 C1988 1.314 . S
N1989 C1992 1.279 . S
C1990 C1988 1.353 . S
C1990 C1993 1.348 . S
C1990 H2022 0.929 . S
C1991 C1992 1.358 . S
C1991 C1993 1.356 . S
C1991 H2023 0.930 . S
C1992 N1989 1.279 . S
C1992 C1991 1.358 . S
C1992 H1995 0.930 . S
C1993 C1990 1.348 . S
C1993 C1991 1.356 . S
H1994 C1988 0.930 . S
H1995 C1992 0.930 . S
O1996 Li1936 1.956 . S
O1996 Li1937 1.970 . S
O1996 Li1938 1.961 . S
O1996 C1940 1.325 . S
O1997 Li1936 1.970 . S
O1997 Li1937 1.956 . S
O1997 Li1939 1.961 . S
O1997 C1946 1.325 . S
O1998 Li1936 1.961 . S
O1998 Li1938 1.956 . S
O1998 Li1939 1.970 . S
O1998 C1968 1.325 . S
O1999 Li1937 1.961 . S
O1999 Li1938 1.970 . S
O1999 Li1939 1.956 . S
O1999 C1974 1.325 . S
H2000 C1942 0.929 . S
H2001 C1943 0.930 . S
H2002 C1944 0.930 . S
H2003 C1945 0.930 . S
H2004 C1947 0.930 . S
H2005 C1949 0.929 . S
H2006 C1950 0.930 . S
H2007 C1951 0.930 . S
H2008 C1954 0.930 . S
H2009 C1957 0.929 . S
H2010 C1962 0.929 . S
H2011 C1963 0.930 . S
H2012 C1970 0.929 . S
H2013 C1971 0.930 . S
H2014 C1972 0.930 . S
H2015 C1973 0.930 . S
H2016 C1975 0.929 . S
H2017 C1976 0.930 . S
H2018 C1977 0.930 . S
H2019 C1978 0.930 . S
H2020 C1982 0.929 . S
H2021 C1984 0.930 . S
H2022 C1990 0.929 . S
H2023 C1991 0.930 . S
Li2024 N2041 1.990 . S
Li2024 O2084 1.956 . S
Li2024 O2085 1.970 . S
Li2024 O2086 1.961 . S
Li2025 N2049 1.990 . S
Li2025 O2084 1.970 . S
Li2025 O2085 1.956 . S
Li2025 O2087 1.961 . S
Li2026 N2071 1.990 . S
Li2026 O2084 1.961 . S
Li2026 O2086 1.956 . S
Li2026 O2087 1.970 . S
Li2027 N2077 1.990 . S
Li2027 O2085 1.961 . S
Li2027 O2086 1.970 . S
Li2027 O2087 1.956 . S
C2028 C2030 1.348 . S
C2028 C2031 1.356 . S
C2028 O2084 1.325 . S
N2029 C2032 1.314 . S
N2029 C2033 1.279 . S
C2030 C2028 1.348 . S
C2030 C2032 1.353 . S
C2030 H2088 0.929 . S
C2031 C2028 1.356 . S
C2031 C2033 1.358 . S
C2031 H2089 0.930 . S
C2032 N2029 1.314 . S
C2032 C2030 1.353 . S
C2032 H2090 0.930 . S
C2033 N2029 1.279 . S
C2033 C2031 1.358 . S
C2033 H2091 0.930 . S
C2034 C2037 1.348 . S
C2034 C2038 1.356 . S
C2034 O2085 1.325 . S
C2035 N2036 1.279 . S
C2035 C2038 1.358 . S
C2035 H2092 0.930 . S
N2036 C2035 1.279 . S
N2036 C2039 1.314 . S
C2037 C2034 1.348 . S
C2037 C2039 1.353 . S
C2037 H2093 0.929 . S
C2038 C2034 1.356 . S
C2038 C2035 1.358 . S
C2038 H2094 0.930 . S
C2039 N2036 1.314 . S
C2039 C2037 1.353 . S
C2039 H2095 0.930 . S
C2040 N2041 1.314 . S
C2040 C2045 1.353 . S
C2040 H2046 0.930 . S
N2041 Li2024 1.990 . S
N2041 C2040 1.314 . S
N2041 C2043 1.279 . S
C2042 C2043 1.358 . S
C2042 C2044 1.356 . S
C2042 H2096 0.930 . S
C2043 N2041 1.279 . S
C2043 C2042 1.358 . S
C2043 H2047 0.930 . S
C2044 C2042 1.356 . S
C2044 C2045 1.348 . S
C2045 C2040 1.353 . S
C2045 C2044 1.348 . S
C2045 H2097 0.929 . S
H2046 C2040 0.930 . S
H2047 C2043 0.930 . S
C2048 N2049 1.314 . S
C2048 C2050 1.353 . S
C2048 H2054 0.930 . S
N2049 Li2025 1.990 . S
N2049 C2048 1.314 . S
N2049 C2052 1.279 . S
C2050 C2048 1.353 . S
C2050 C2053 1.348 . S
C2050 H2098 0.929 . S
C2051 C2052 1.358 . S
C2051 C2053 1.356 . S
C2051 H2099 0.930 . S
C2052 N2049 1.279 . S
C2052 C2051 1.358 . S
C2052 H2055 0.930 . S
C2053 C2050 1.348 . S
C2053 C2051 1.356 . S
H2054 C2048 0.930 . S
H2055 C2052 0.930 . S
C2056 C2058 1.348 . S
C2056 C2059 1.356 . S
C2056 O2086 1.325 . S
N2057 C2060 1.314 . S
N2057 C2061 1.279 . S
C2058 C2056 1.348 . S
C2058 C2060 1.353 . S
C2058 H2100 0.929 . S
C2059 C2056 1.356 . S
C2059 C2061 1.358 . S
C2059 H2101 0.930 . S
C2060 N2057 1.314 . S
C2060 C2058 1.353 . S
C2060 H2102 0.930 . S
C2061 N2057 1.279 . S
C2061 C2059 1.358 . S
C2061 H2103 0.930 . S
C2062 C2063 1.348 . S
C2062 C2064 1.356 . S
C2062 O2087 1.325 . S
C2063 C2062 1.348 . S
C2063 C2065 1.353 . S
C2063 H2104 0.929 . S
C2064 C2062 1.356 . S
C2064 C2066 1.358 . S
C2064 H2105 0.930 . S
C2065 C2063 1.353 . S
C2065 N2067 1.314 . S
C2065 H2106 0.930 . S
C2066 C2064 1.358 . S
C2066 N2067 1.279 . S
C2066 H2107 0.930 . S
N2067 C2065 1.314 . S
N2067 C2066 1.279 . S
C2068 C2070 1.353 . S
C2068 N2071 1.314 . S
C2068 H2074 0.930 . S
C2069 N2071 1.279 . S
C2069 C2072 1.358 . S
C2069 H2075 0.930 . S
C2070 C2068 1.353 . S
C2070 C2073 1.348 . S
C2070 H2108 0.929 . S
N2071 Li2026 1.990 . S
N2071 C2068 1.314 . S
N2071 C2069 1.279 . S
C2072 C2069 1.358 . S
C2072 C2073 1.356 . S
C2072 H2109 0.930 . S
C2073 C2070 1.348 . S
C2073 C2072 1.356 . S
H2074 C2068 0.930 . S
H2075 C2069 0.930 . S
C2076 N2077 1.314 . S
C2076 C2078 1.353 . S
C2076 H2082 0.930 . S
N2077 Li2027 1.990 . S
N2077 C2076 1.314 . S
N2077 C2080 1.279 . S
C2078 C2076 1.353 . S
C2078 C2081 1.348 . S
C2078 H2110 0.929 . S
C2079 C2080 1.358 . S
C2079 C2081 1.356 . S
C2079 H2111 0.930 . S
C2080 N2077 1.279 . S
C2080 C2079 1.358 . S
C2080 H2083 0.930 . S
C2081 C2078 1.348 . S
C2081 C2079 1.356 . S
H2082 C2076 0.930 . S
H2083 C2080 0.930 . S
O2084 Li2024 1.956 . S
O2084 Li2025 1.970 . S
O2084 Li2026 1.961 . S
O2084 C2028 1.325 . S
O2085 Li2024 1.970 . S
O2085 Li2025 1.956 . S
O2085 Li2027 1.961 . S
O2085 C2034 1.325 . S
O2086 Li2024 1.961 . S
O2086 Li2026 1.956 . S
O2086 Li2027 1.970 . S
O2086 C2056 1.325 . S
O2087 Li2025 1.961 . S
O2087 Li2026 1.970 . S
O2087 Li2027 1.956 . S
O2087 C2062 1.325 . S
H2088 C2030 0.929 . S
H2089 C2031 0.930 . S
H2090 C2032 0.930 . S
H2091 C2033 0.930 . S
H2092 C2035 0.930 . S
H2093 C2037 0.929 . S
H2094 C2038 0.930 . S
H2095 C2039 0.930 . S
H2096 C2042 0.930 . S
H2097 C2045 0.929 . S
H2098 C2050 0.929 . S
H2099 C2051 0.930 . S
H2100 C2058 0.929 . S
H2101 C2059 0.930 . S
H2102 C2060 0.930 . S
H2103 C2061 0.930 . S
H2104 C2063 0.929 . S
H2105 C2064 0.930 . S
H2106 C2065 0.930 . S
H2107 C2066 0.930 . S
H2108 C2070 0.929 . S
H2109 C2072 0.930 . S
H2110 C2078 0.929 . S
H2111 C2079 0.930 . S
O2112 Mg2113 1.977 1_556 S
O2112 C2126 1.253 . S
Mg2113 O2112 1.977 1_554 S
Mg2113 O2116 2.187 . S
Mg2113 O2117 2.120 . S
Mg2113 O2131 2.031 . S
O2114 Mg2115 2.072 1_656 S
O2114 C2126 1.260 . S
Mg2115 O2114 2.072 1_454 S
Mg2115 O2116 2.099 1_455 S
Mg2115 O2118 2.073 1_545 S
Mg2115 O2119 2.072 . S
Mg2115 O2121 2.099 1_545 S
Mg2115 O2132 2.079 1_445 S
O2116 Mg2113 2.187 . S
O2116 Mg2115 2.099 1_655 S
O2116 C2127 1.279 . S
O2117 Mg2113 2.120 . S
O2117 C2127 1.250 . S
O2118 Mg2115 2.073 1_565 S
O2118 C2128 1.274 . S
O2119 Mg2115 2.072 . S
O2119 C2129 1.260 . S
Mg2120 O2121 2.180 . S
Mg2120 O2122 2.030 . S
Mg2120 O2123 1.976 1_565 S
Mg2120 O2124 2.117 1_554 S
O2121 Mg2115 2.099 1_565 S
O2121 Mg2120 2.180 . S
O2121 C2130 1.279 1_554 S
O2122 Mg2120 2.030 . S
O2122 C2128 1.248 . S
O2123 Mg2120 1.976 1_545 S
O2123 C2129 1.278 . S
O2124 Mg2120 2.117 1_556 S
O2124 C2130 1.250 . S
C2125 O2131 1.248 1_565 S
C2125 O2132 1.264 . S
C2126 O2112 1.253 . S
C2126 O2114 1.260 . S
C2127 O2116 1.279 . S
C2127 O2117 1.250 . S
C2128 O2118 1.274 . S
C2128 O2122 1.248 . S
C2129 O2119 1.260 . S
C2129 O2123 1.278 . S
C2130 O2121 1.279 1_556 S
C2130 O2124 1.250 . S
O2131 Mg2113 2.031 . S
O2131 C2125 1.248 1_545 S
O2132 Mg2115 2.079 1_665 S
O2132 C2125 1.264 . S
O2133 Mg2134 1.990 . S
O2133 C2147 1.253 . S
Mg2134 O2133 1.990 . S
Mg2134 O2137 2.180 . S
Mg2134 O2138 2.117 . S
Mg2134 O2152 2.030 . S
O2135 Mg2136 2.072 . S
O2135 C2147 1.260 . S
Mg2136 O2135 2.072 . S
Mg2136 O2137 2.099 . S
Mg2136 O2139 2.079 . S
Mg2136 O2140 2.072 . S
Mg2136 O2142 2.099 . S
Mg2136 O2153 2.079 . S
O2137 Mg2134 2.180 . S
O2137 Mg2136 2.099 . S
O2137 C2148 1.279 . S
O2138 Mg2134 2.117 . S
O2138 C2148 1.250 . S
O2139 Mg2136 2.079 . S
O2139 C2149 1.264 . S
O2140 Mg2136 2.072 . S
O2140 C2150 1.260 . S
Mg2141 O2142 2.180 . S
Mg2141 O2143 2.030 . S
Mg2141 O2144 1.990 . S
Mg2141 O2145 2.117 . S
O2142 Mg2136 2.099 . S
O2142 Mg2141 2.180 . S
O2142 C2151 1.279 . S
O2143 Mg2141 2.030 . S
O2143 C2149 1.248 . S
O2144 Mg2141 1.990 . S
O2144 C2150 1.253 . S
O2145 Mg2141 2.117 . S
O2145 C2151 1.250 . S
C2146 O2152 1.248 . S
C2146 O2153 1.264 . S
C2147 O2133 1.253 . S
C2147 O2135 1.260 . S
C2148 O2137 1.279 . S
C2148 O2138 1.250 . S
C2149 O2139 1.264 . S
C2149 O2143 1.248 . S
C2150 O2140 1.260 . S
C2150 O2144 1.253 . S
C2151 O2142 1.279 . S
C2151 O2145 1.250 . S
O2152 Mg2134 2.030 . S
O2152 C2146 1.248 . S
O2153 Mg2136 2.079 . S
O2153 C2146 1.264 . S
O2154 Mg2155 1.990 . S
O2154 C2168 1.253 . S
Mg2155 O2154 1.990 . S
Mg2155 O2158 2.180 . S
Mg2155 O2159 2.117 . S
Mg2155 O2173 2.030 1_565 S
O2156 Mg2157 2.072 . S
O2156 C2168 1.260 1_545 S
Mg2157 O2156 2.072 . S
Mg2157 O2158 2.099 1_545 S
Mg2157 O2160 2.079 . S
Mg2157 O2161 2.072 1_545 S
Mg2157 O2163 2.099 . S
Mg2157 O2174 2.079 . S
O2158 Mg2155 2.180 . S
O2158 Mg2157 2.099 1_565 S
O2158 C2169 1.279 . S
O2159 Mg2155 2.117 . S
O2159 C2169 1.250 . S
O2160 Mg2157 2.079 . S
O2160 C2170 1.264 . S
O2161 Mg2157 2.072 1_565 S
O2161 C2171 1.260 . S
Mg2162 O2163 2.180 . S
Mg2162 O2164 2.030 . S
Mg2162 O2165 1.990 . S
Mg2162 O2166 2.117 . S
O2163 Mg2157 2.099 . S
O2163 Mg2162 2.180 . S
O2163 C2172 1.279 . S
O2164 Mg2162 2.030 . S
O2164 C2170 1.248 . S
O2165 Mg2162 1.990 . S
O2165 C2171 1.253 1_545 S
O2166 Mg2162 2.117 . S
O2166 C2172 1.250 . S
C2167 O2173 1.248 . S
C2167 O2174 1.264 . S
C2168 O2154 1.253 . S
C2168 O2156 1.260 1_565 S
C2169 O2158 1.279 . S
C2169 O2159 1.250 . S
C2170 O2160 1.264 . S
C2170 O2164 1.248 . S
C2171 O2161 1.260 . S
C2171 O2165 1.253 1_565 S
C2172 O2163 1.279 . S
C2172 O2166 1.250 . S
O2173 Mg2155 2.030 1_545 S
O2173 C2167 1.248 . S
O2174 Mg2157 2.079 . S
O2174 C2167 1.264 . S
O2175 Mg2176 1.990 . S
O2175 C2189 1.253 . S
Mg2176 O2175 1.990 . S
Mg2176 O2179 2.180 . S
Mg2176 O2180 2.117 . S
Mg2176 O2194 2.030 . S
O2177 Mg2178 2.072 . S
O2177 C2189 1.260 . S
Mg2178 O2177 2.072 . S
Mg2178 O2179 2.099 . S
Mg2178 O2181 2.079 . S
Mg2178 O2182 2.072 . S
Mg2178 O2184 2.099 . S
Mg2178 O2195 2.079 . S
O2179 Mg2176 2.180 . S
O2179 Mg2178 2.099 . S
O2179 C2190 1.279 . S
O2180 Mg2176 2.117 . S
O2180 C2190 1.250 . S
O2181 Mg2178 2.079 . S
O2181 C2191 1.264 . S
O2182 Mg2178 2.072 . S
O2182 C2192 1.260 . S
Mg2183 O2184 2.180 . S
Mg2183 O2185 2.030 . S
Mg2183 O2186 1.990 . S
Mg2183 O2187 2.117 . S
O2184 Mg2178 2.099 . S
O2184 Mg2183 2.180 . S
O2184 C2193 1.279 . S
O2185 Mg2183 2.030 . S
O2185 C2191 1.248 . S
O2186 Mg2183 1.990 . S
O2186 C2192 1.253 . S
O2187 Mg2183 2.117 . S
O2187 C2193 1.250 . S
C2188 O2194 1.248 . S
C2188 O2195 1.264 . S
C2189 O2175 1.253 . S
C2189 O2177 1.260 . S
C2190 O2179 1.279 . S
C2190 O2180 1.250 . S
C2191 O2181 1.264 . S
C2191 O2185 1.248 . S
C2192 O2182 1.260 . S
C2192 O2186 1.253 . S
C2193 O2184 1.279 . S
C2193 O2187 1.250 . S
O2194 Mg2176 2.030 . S
O2194 C2188 1.248 . S
O2195 Mg2178 2.079 . S
O2195 C2188 1.264 . S
O2196 Mg2197 1.990 . S
O2196 C2210 1.253 . S
Mg2197 O2196 1.990 . S
Mg2197 O2200 2.180 . S
Mg2197 O2201 2.117 1_455 S
Mg2197 O2215 2.030 . S
O2198 Mg2199 2.072 1_565 S
O2198 C2210 1.260 . S
Mg2199 O2198 2.072 1_545 S
Mg2199 O2200 2.099 1_545 S
Mg2199 O2202 2.079 . S
Mg2199 O2203 2.072 1_455 S
Mg2199 O2205 2.099 . S
Mg2199 O2216 2.079 1_545 S
O2200 Mg2197 2.180 . S
O2200 Mg2199 2.099 1_565 S
O2200 C2211 1.279 1_455 S
O2201 Mg2197 2.117 1_655 S
O2201 C2211 1.250 . S
O2202 Mg2199 2.079 . S
O2202 C2212 1.264 . S
O2203 Mg2199 2.072 1_655 S
O2203 C2213 1.260 . S
Mg2204 O2205 2.180 . S
Mg2204 O2206 2.030 . S
Mg2204 O2207 1.990 1_455 S
Mg2204 O2208 2.117 . S
O2205 Mg2199 2.099 . S
O2205 Mg2204 2.180 . S
O2205 C2214 1.279 . S
O2206 Mg2204 2.030 . S
O2206 C2212 1.248 . S
O2207 Mg2204 1.990 1_655 S
O2207 C2213 1.253 . S
O2208 Mg2204 2.117 . S
O2208 C2214 1.250 . S
C2209 O2215 1.248 . S
C2209 O2216 1.264 . S
C2210 O2196 1.253 . S
C2210 O2198 1.260 . S
C2211 O2200 1.279 1_655 S
C2211 O2201 1.250 . S
C2212 O2202 1.264 . S
C2212 O2206 1.248 . S
C2213 O2203 1.260 . S
C2213 O2207 1.253 . S
C2214 O2205 1.279 . S
C2214 O2208 1.250 . S
O2215 Mg2197 2.030 . S
O2215 C2209 1.248 . S
O2216 Mg2199 2.079 1_565 S
O2216 C2209 1.264 . S
O2217 Mg2218 1.990 . S
O2217 C2231 1.253 . S
Mg2218 O2217 1.990 . S
Mg2218 O2221 2.180 . S
Mg2218 O2222 2.117 . S
Mg2218 O2236 2.030 . S
O2219 Mg2220 2.072 . S
O2219 C2231 1.260 . S
Mg2220 O2219 2.072 . S
Mg2220 O2221 2.099 . S
Mg2220 O2223 2.079 . S
Mg2220 O2224 2.072 . S
Mg2220 O2226 2.099 . S
Mg2220 O2237 2.079 . S
O2221 Mg2218 2.180 . S
O2221 Mg2220 2.099 . S
O2221 C2232 1.279 . S
O2222 Mg2218 2.117 . S
O2222 C2232 1.250 . S
O2223 Mg2220 2.079 . S
O2223 C2233 1.264 . S
O2224 Mg2220 2.072 . S
O2224 C2234 1.260 . S
Mg2225 O2226 2.180 . S
Mg2225 O2227 2.030 . S
Mg2225 O2228 1.990 . S
Mg2225 O2229 2.117 . S
O2226 Mg2220 2.099 . S
O2226 Mg2225 2.180 . S
O2226 C2235 1.279 . S
O2227 Mg2225 2.030 . S
O2227 C2233 1.248 . S
O2228 Mg2225 1.990 . S
O2228 C2234 1.253 . S
O2229 Mg2225 2.117 . S
O2229 C2235 1.250 . S
C2230 O2236 1.248 . S
C2230 O2237 1.264 . S
C2231 O2217 1.253 . S
C2231 O2219 1.260 . S
C2232 O2221 1.279 . S
C2232 O2222 1.250 . S
C2233 O2223 1.264 . S
C2233 O2227 1.248 . S
C2234 O2224 1.260 . S
C2234 O2228 1.253 . S
C2235 O2226 1.279 . S
C2235 O2229 1.250 . S
O2236 Mg2218 2.030 . S
O2236 C2230 1.248 . S
O2237 Mg2220 2.079 . S
O2237 C2230 1.264 . S
O2238 Mg2239 1.989 . S
O2238 C2252 1.253 . S
Mg2239 O2238 1.989 . S
Mg2239 O2242 2.180 1_565 S
Mg2239 O2243 2.117 1_565 S
Mg2239 O2257 2.030 1_565 S
O2240 Mg2241 2.072 1_565 S
O2240 C2252 1.260 . S
Mg2241 O2240 2.072 1_545 S
Mg2241 O2242 2.099 . S
Mg2241 O2244 2.064 1_554 S
Mg2241 O2245 2.072 1_554 S
Mg2241 O2247 2.099 1_554 S
Mg2241 O2258 2.079 . S
O2242 Mg2239 2.180 1_545 S
O2242 Mg2241 2.099 . S
O2242 C2253 1.279 . S
O2243 Mg2239 2.117 1_545 S
O2243 C2253 1.250 . S
O2244 Mg2241 2.064 1_556 S
O2244 C2254 1.310 . S
O2245 Mg2241 2.072 1_556 S
O2245 C2255 1.266 . S
Mg2246 O2247 2.180 . S
Mg2246 O2248 2.030 . S
Mg2246 O2249 1.989 1_545 S
Mg2246 O2250 2.117 1_545 S
O2247 Mg2241 2.099 1_556 S
O2247 Mg2246 2.180 . S
O2247 C2256 1.279 1_545 S
O2248 Mg2246 2.030 . S
O2248 C2254 1.248 . S
O2249 Mg2246 1.989 1_565 S
O2249 C2255 1.252 1_565 S
O2250 Mg2246 2.117 1_565 S
O2250 C2256 1.250 . S
C2251 O2257 1.248 . S
C2251 O2258 1.264 . S
C2252 O2238 1.253 . S
C2252 O2240 1.260 . S
C2253 O2242 1.279 . S
C2253 O2243 1.250 . S
C2254 O2244 1.310 . S
C2254 O2248 1.248 . S
C2255 O2245 1.266 . S
C2255 O2249 1.252 1_545 S
C2256 O2247 1.279 1_565 S
C2256 O2250 1.250 . S
O2257 Mg2239 2.030 1_545 S
O2257 C2251 1.248 . S
O2258 Mg2241 2.079 . S
O2258 C2251 1.264 . S
O2259 Mg2260 1.990 . S
O2259 C2273 1.253 . S
Mg2260 O2259 1.990 . S
Mg2260 O2263 2.180 . S
Mg2260 O2264 2.117 . S
Mg2260 O2278 2.030 . S
O2261 Mg2262 2.072 . S
O2261 C2273 1.260 . S
Mg2262 O2261 2.072 . S
Mg2262 O2263 2.099 . S
Mg2262 O2265 2.079 . S
Mg2262 O2266 2.072 . S
Mg2262 O2268 2.099 . S
Mg2262 O2279 2.079 . S
O2263 Mg2260 2.180 . S
O2263 Mg2262 2.099 . S
O2263 C2274 1.279 . S
O2264 Mg2260 2.117 . S
O2264 C2274 1.250 . S
O2265 Mg2262 2.079 . S
O2265 C2275 1.264 . S
O2266 Mg2262 2.072 . S
O2266 C2276 1.260 . S
Mg2267 O2268 2.180 . S
Mg2267 O2269 2.030 . S
Mg2267 O2270 1.990 . S
Mg2267 O2271 2.117 . S
O2268 Mg2262 2.099 . S
O2268 Mg2267 2.180 . S
O2268 C2277 1.279 . S
O2269 Mg2267 2.030 . S
O2269 C2275 1.248 . S
O2270 Mg2267 1.990 . S
O2270 C2276 1.253 . S
O2271 Mg2267 2.117 . S
O2271 C2277 1.250 . S
C2272 O2278 1.248 . S
C2272 O2279 1.264 . S
C2273 O2259 1.253 . S
C2273 O2261 1.260 . S
C2274 O2263 1.279 . S
C2274 O2264 1.250 . S
C2275 O2265 1.264 . S
C2275 O2269 1.248 . S
C2276 O2266 1.260 . S
C2276 O2270 1.253 . S
C2277 O2268 1.279 . S
C2277 O2271 1.250 . S
O2278 Mg2260 2.030 . S
O2278 C2272 1.248 . S
O2279 Mg2262 2.079 . S
O2279 C2272 1.264 . S
O2280 Mg2281 1.990 . S
O2280 C2294 1.253 . S
Mg2281 O2280 1.990 . S
Mg2281 O2284 2.180 . S
Mg2281 O2285 2.117 . S
Mg2281 O2299 2.030 1_556 S
O2282 Mg2283 2.072 . S
O2282 C2294 1.260 1_554 S
Mg2283 O2282 2.072 . S
Mg2283 O2284 2.099 1_554 S
Mg2283 O2286 2.079 . S
Mg2283 O2287 2.072 1_554 S
Mg2283 O2289 2.099 . S
Mg2283 O2300 2.079 . S
O2284 Mg2281 2.180 . S
O2284 Mg2283 2.099 1_556 S
O2284 C2295 1.279 . S
O2285 Mg2281 2.117 . S
O2285 C2295 1.250 . S
O2286 Mg2283 2.079 . S
O2286 C2296 1.264 . S
O2287 Mg2283 2.072 1_556 S
O2287 C2297 1.260 . S
Mg2288 O2289 2.180 . S
Mg2288 O2290 2.030 . S
Mg2288 O2291 1.990 . S
Mg2288 O2292 2.117 . S
O2289 Mg2283 2.099 . S
O2289 Mg2288 2.180 . S
O2289 C2298 1.279 . S
O2290 Mg2288 2.030 . S
O2290 C2296 1.248 . S
O2291 Mg2288 1.990 . S
O2291 C2297 1.253 1_554 S
O2292 Mg2288 2.117 . S
O2292 C2298 1.250 . S
C2293 O2299 1.248 . S
C2293 O2300 1.264 . S
C2294 O2280 1.253 . S
C2294 O2282 1.260 1_556 S
C2295 O2284 1.279 . S
C2295 O2285 1.250 . S
C2296 O2286 1.264 . S
C2296 O2290 1.248 . S
C2297 O2287 1.260 . S
C2297 O2291 1.253 1_556 S
C2298 O2289 1.279 . S
C2298 O2292 1.250 . S
O2299 Mg2281 2.030 1_554 S
O2299 C2293 1.248 . S
O2300 Mg2283 2.079 . S
O2300 C2293 1.264 . S
O2301 Mg2302 1.990 . S
O2301 C2315 1.253 . S
Mg2302 O2301 1.990 . S
Mg2302 O2305 2.180 . S
Mg2302 O2306 2.117 . S
Mg2302 O2320 2.030 . S
O2303 Mg2304 2.072 . S
O2303 C2315 1.260 . S
Mg2304 O2303 2.072 . S
Mg2304 O2305 2.099 . S
Mg2304 O2307 2.079 . S
Mg2304 O2308 2.072 . S
Mg2304 O2310 2.099 . S
Mg2304 O2321 2.079 . S
O2305 Mg2302 2.180 . S
O2305 Mg2304 2.099 . S
O2305 C2316 1.279 . S
O2306 Mg2302 2.117 . S
O2306 C2316 1.250 . S
O2307 Mg2304 2.079 . S
O2307 C2317 1.264 . S
O2308 Mg2304 2.072 . S
O2308 C2318 1.260 . S
Mg2309 O2310 2.180 . S
Mg2309 O2311 2.030 . S
Mg2309 O2312 1.990 . S
Mg2309 O2313 2.117 . S
O2310 Mg2304 2.099 . S
O2310 Mg2309 2.180 . S
O2310 C2319 1.279 . S
O2311 Mg2309 2.030 . S
O2311 C2317 1.248 . S
O2312 Mg2309 1.990 . S
O2312 C2318 1.253 . S
O2313 Mg2309 2.117 . S
O2313 C2319 1.250 . S
C2314 O2320 1.248 . S
C2314 O2321 1.264 . S
C2315 O2301 1.253 . S
C2315 O2303 1.260 . S
C2316 O2305 1.279 . S
C2316 O2306 1.250 . S
C2317 O2307 1.264 . S
C2317 O2311 1.248 . S
C2318 O2308 1.260 . S
C2318 O2312 1.253 . S
C2319 O2310 1.279 . S
C2319 O2313 1.250 . S
O2320 Mg2302 2.030 . S
O2320 C2314 1.248 . S
O2321 Mg2304 2.079 . S
O2321 C2314 1.264 . S
O2322 Mg2323 1.990 . S
O2322 C2336 1.253 . S
Mg2323 O2322 1.990 . S
Mg2323 O2326 2.180 . S
Mg2323 O2327 2.117 . S
Mg2323 O2341 2.030 1_655 S
O2324 Mg2325 2.072 . S
O2324 C2336 1.260 1_455 S
Mg2325 O2324 2.072 . S
Mg2325 O2326 2.099 1_455 S
Mg2325 O2328 2.079 . S
Mg2325 O2329 2.072 1_455 S
Mg2325 O2331 2.099 . S
Mg2325 O2342 2.079 . S
O2326 Mg2323 2.180 . S
O2326 Mg2325 2.099 1_655 S
O2326 C2337 1.279 . S
O2327 Mg2323 2.117 . S
O2327 C2337 1.250 . S
O2328 Mg2325 2.079 . S
O2328 C2338 1.264 . S
O2329 Mg2325 2.072 1_655 S
O2329 C2339 1.260 . S
Mg2330 O2331 2.180 . S
Mg2330 O2332 2.030 . S
Mg2330 O2333 1.990 . S
Mg2330 O2334 2.117 . S
O2331 Mg2325 2.099 . S
O2331 Mg2330 2.180 . S
O2331 C2340 1.279 . S
O2332 Mg2330 2.030 . S
O2332 C2338 1.248 . S
O2333 Mg2330 1.990 . S
O2333 C2339 1.253 1_455 S
O2334 Mg2330 2.117 . S
O2334 C2340 1.250 . S
C2335 O2341 1.248 . S
C2335 O2342 1.264 . S
C2336 O2322 1.253 . S
C2336 O2324 1.260 1_655 S
C2337 O2326 1.279 . S
C2337 O2327 1.250 . S
C2338 O2328 1.264 . S
C2338 O2332 1.248 . S
C2339 O2329 1.260 . S
C2339 O2333 1.253 1_655 S
C2340 O2331 1.279 . S
C2340 O2334 1.250 . S
O2341 Mg2323 2.030 1_455 S
O2341 C2335 1.248 . S
O2342 Mg2325 2.079 . S
O2342 C2335 1.264 . S
O2343 Mg2344 1.990 . S
O2343 C2357 1.253 . S
Mg2344 O2343 1.990 . S
Mg2344 O2347 2.180 . S
Mg2344 O2348 2.117 . S
Mg2344 O2362 2.030 . S
O2345 Mg2346 2.072 . S
O2345 C2357 1.260 . S
Mg2346 O2345 2.072 . S
Mg2346 O2347 2.099 . S
Mg2346 O2349 2.079 . S
Mg2346 O2350 2.072 . S
Mg2346 O2352 2.099 . S
Mg2346 O2363 2.079 . S
O2347 Mg2344 2.180 . S
O2347 Mg2346 2.099 . S
O2347 C2358 1.279 . S
O2348 Mg2344 2.117 . S
O2348 C2358 1.250 . S
O2349 Mg2346 2.079 . S
O2349 C2359 1.264 . S
O2350 Mg2346 2.072 . S
O2350 C2360 1.260 . S
Mg2351 O2352 2.180 . S
Mg2351 O2353 2.030 . S
Mg2351 O2354 1.990 . S
Mg2351 O2355 2.117 . S
O2352 Mg2346 2.099 . S
O2352 Mg2351 2.180 . S
O2352 C2361 1.279 . S
O2353 Mg2351 2.030 . S
O2353 C2359 1.248 . S
O2354 Mg2351 1.990 . S
O2354 C2360 1.253 . S
O2355 Mg2351 2.117 . S
O2355 C2361 1.250 . S
C2356 O2362 1.248 . S
C2356 O2363 1.264 . S
C2357 O2343 1.253 . S
C2357 O2345 1.260 . S
C2358 O2347 1.279 . S
C2358 O2348 1.250 . S
C2359 O2349 1.264 . S
C2359 O2353 1.248 . S
C2360 O2350 1.260 . S
C2360 O2354 1.253 . S
C2361 O2352 1.279 . S
C2361 O2355 1.250 . S
O2362 Mg2344 2.030 . S
O2362 C2356 1.248 . S
O2363 Mg2346 2.079 . S
O2363 C2356 1.264 . S
O2364 Mg2365 1.990 . S
O2364 C2378 1.253 . S
Mg2365 O2364 1.990 . S
Mg2365 O2368 2.180 . S
Mg2365 O2369 2.117 . S
Mg2365 O2383 2.030 . S
O2366 Mg2367 2.072 . S
O2366 C2378 1.260 . S
Mg2367 O2366 2.072 . S
Mg2367 O2368 2.099 . S
Mg2367 O2370 2.079 . S
Mg2367 O2371 2.072 . S
Mg2367 O2373 2.099 . S
Mg2367 O2384 2.079 . S
O2368 Mg2365 2.180 . S
O2368 Mg2367 2.099 . S
O2368 C2379 1.279 . S
O2369 Mg2365 2.117 . S
O2369 C2379 1.250 . S
O2370 Mg2367 2.079 . S
O2370 C2380 1.264 . S
O2371 Mg2367 2.072 . S
O2371 C2381 1.260 . S
Mg2372 O2373 2.180 . S
Mg2372 O2374 2.030 . S
Mg2372 O2375 1.990 . S
Mg2372 O2376 2.117 . S
O2373 Mg2367 2.099 . S
O2373 Mg2372 2.180 . S
O2373 C2382 1.279 . S
O2374 Mg2372 2.030 . S
O2374 C2380 1.248 . S
O2375 Mg2372 1.990 . S
O2375 C2381 1.253 . S
O2376 Mg2372 2.117 . S
O2376 C2382 1.250 . S
C2377 O2383 1.248 . S
C2377 O2384 1.264 . S
C2378 O2364 1.253 . S
C2378 O2366 1.260 . S
C2379 O2368 1.279 . S
C2379 O2369 1.250 . S
C2380 O2370 1.264 . S
C2380 O2374 1.248 . S
C2381 O2371 1.260 . S
C2381 O2375 1.253 . S
C2382 O2373 1.279 . S
C2382 O2376 1.250 . S
O2383 Mg2365 2.030 . S
O2383 C2377 1.248 . S
O2384 Mg2367 2.079 . S
O2384 C2377 1.264 . S
O2385 Mg2386 1.990 . S
O2385 C2399 1.253 . S
Mg2386 O2385 1.990 . S
Mg2386 O2389 2.180 . S
Mg2386 O2390 2.117 . S
Mg2386 O2404 2.030 . S
O2387 Mg2388 2.072 . S
O2387 C2399 1.260 . S
Mg2388 O2387 2.072 . S
Mg2388 O2389 2.099 . S
Mg2388 O2391 2.079 . S
Mg2388 O2392 2.072 . S
Mg2388 O2394 2.099 . S
Mg2388 O2405 2.079 . S
O2389 Mg2386 2.180 . S
O2389 Mg2388 2.099 . S
O2389 C2400 1.279 . S
O2390 Mg2386 2.117 . S
O2390 C2400 1.250 . S
O2391 Mg2388 2.079 . S
O2391 C2401 1.264 . S
O2392 Mg2388 2.072 . S
O2392 C2402 1.260 . S
Mg2393 O2394 2.180 . S
Mg2393 O2395 2.030 . S
Mg2393 O2396 1.990 . S
Mg2393 O2397 2.117 . S
O2394 Mg2388 2.099 . S
O2394 Mg2393 2.180 . S
O2394 C2403 1.279 . S
O2395 Mg2393 2.030 . S
O2395 C2401 1.248 . S
O2396 Mg2393 1.990 . S
O2396 C2402 1.253 . S
O2397 Mg2393 2.117 . S
O2397 C2403 1.250 . S
C2398 O2404 1.248 . S
C2398 O2405 1.264 . S
C2399 O2385 1.253 . S
C2399 O2387 1.260 . S
C2400 O2389 1.279 . S
C2400 O2390 1.250 . S
C2401 O2391 1.264 . S
C2401 O2395 1.248 . S
C2402 O2392 1.260 . S
C2402 O2396 1.253 . S
C2403 O2394 1.279 . S
C2403 O2397 1.250 . S
O2404 Mg2386 2.030 . S
O2404 C2398 1.248 . S
O2405 Mg2388 2.079 . S
O2405 C2398 1.264 . S
O2406 Mg2407 1.990 . S
O2406 C2420 1.253 . S
Mg2407 O2406 1.990 . S
Mg2407 O2410 2.180 . S
Mg2407 O2411 2.117 . S
Mg2407 O2425 2.030 . S
O2408 Mg2409 2.072 . S
O2408 C2420 1.260 . S
Mg2409 O2408 2.072 . S
Mg2409 O2410 2.099 . S
Mg2409 O2412 2.079 . S
Mg2409 O2413 2.072 . S
Mg2409 O2415 2.099 . S
Mg2409 O2426 2.079 . S
O2410 Mg2407 2.180 . S
O2410 Mg2409 2.099 . S
O2410 C2421 1.279 . S
O2411 Mg2407 2.117 . S
O2411 C2421 1.250 . S
O2412 Mg2409 2.079 . S
O2412 C2422 1.264 . S
O2413 Mg2409 2.072 . S
O2413 C2423 1.260 . S
Mg2414 O2415 2.180 . S
Mg2414 O2416 2.030 . S
Mg2414 O2417 1.990 . S
Mg2414 O2418 2.117 . S
O2415 Mg2409 2.099 . S
O2415 Mg2414 2.180 . S
O2415 C2424 1.279 . S
O2416 Mg2414 2.030 . S
O2416 C2422 1.248 . S
O2417 Mg2414 1.990 . S
O2417 C2423 1.253 . S
O2418 Mg2414 2.117 . S
O2418 C2424 1.250 . S
C2419 O2425 1.248 . S
C2419 O2426 1.264 . S
C2420 O2406 1.253 . S
C2420 O2408 1.260 . S
C2421 O2410 1.279 . S
C2421 O2411 1.250 . S
C2422 O2412 1.264 . S
C2422 O2416 1.248 . S
C2423 O2413 1.260 . S
C2423 O2417 1.253 . S
C2424 O2415 1.279 . S
C2424 O2418 1.250 . S
O2425 Mg2407 2.030 . S
O2425 C2419 1.248 . S
O2426 Mg2409 2.079 . S
O2426 C2419 1.264 . S
O2427 Mg2428 1.990 . S
O2427 C2441 1.253 . S
Mg2428 O2427 1.990 . S
Mg2428 O2431 2.180 1_556 S
Mg2428 O2432 2.117 1_556 S
Mg2428 O2446 2.026 1_556 S
O2429 Mg2430 2.072 1_556 S
O2429 C2441 1.260 . S
Mg2430 O2429 2.072 1_554 S
Mg2430 O2431 2.099 . S
Mg2430 O2433 2.080 . S
Mg2430 O2434 2.072 1_455 S
Mg2430 O2436 2.099 1_455 S
Mg2430 O2447 2.079 . S
O2431 Mg2428 2.180 1_554 S
O2431 Mg2430 2.099 . S
O2431 C2442 1.279 . S
O2432 Mg2428 2.117 1_554 S
O2432 C2442 1.250 . S
O2433 Mg2430 2.080 . S
O2433 C2443 1.259 1_455 S
O2434 Mg2430 2.072 1_655 S
O2434 C2444 1.257 1_554 S
Mg2435 O2436 2.180 . S
Mg2435 O2437 2.030 . S
Mg2435 O2438 1.990 1_554 S
Mg2435 O2439 2.117 1_554 S
O2436 Mg2430 2.099 1_655 S
O2436 Mg2435 2.180 . S
O2436 C2445 1.279 1_554 S
O2437 Mg2435 2.030 . S
O2437 C2443 1.248 . S
O2438 Mg2435 1.990 1_556 S
O2438 C2444 1.255 . S
O2439 Mg2435 2.117 1_556 S
O2439 C2445 1.250 . S
C2440 O2446 1.269 . S
C2440 O2447 1.264 . S
C2441 O2427 1.253 . S
C2441 O2429 1.260 . S
C2442 O2431 1.279 . S
C2442 O2432 1.250 . S
C2443 O2433 1.259 1_655 S
C2443 O2437 1.248 . S
C2444 O2434 1.257 1_556 S
C2444 O2438 1.255 . S
C2445 O2436 1.279 1_556 S
C2445 O2439 1.250 . S
O2446 Mg2428 2.026 1_554 S
O2446 C2440 1.269 . S
O2447 Mg2430 2.079 . S
O2447 C2440 1.264 . S
C2448 C2449 1.349 . S
C2448 C2450 1.327 . S
C2448 H2473 0.950 . S
C2449 C2448 1.349 . S
C2449 C2465 1.349 . S
C2450 C2448 1.327 . S
C2450 C2469 1.429 . S
C2450 H2474 0.950 . S
C2451 C2468 1.575 . S
C2451 C2470 1.368 . S
C2451 H2475 0.952 . S
H2452 C2456 0.949 . S
C2453 C2454 1.348 . S
C2453 C2455 1.327 . S
C2453 H2476 0.956 1_554 S
C2454 C2453 1.348 . S
C2454 C2466 1.347 1_655 S
C2455 C2453 1.327 . S
C2455 C2471 1.426 1_655 S
C2455 H2477 0.949 . S
C2456 H2452 0.949 . S
C2456 C2464 1.574 . S
C2456 C2472 1.368 . S
H2457 C2465 0.950 . S
H2458 C2463 0.950 . S
H2459 C2464 0.949 . S
H2460 C2466 0.949 . S
H2461 C2467 0.956 . S
H2462 C2468 0.948 1_655 S
C2463 H2458 0.950 . S
C2463 C2465 1.327 . S
C2463 C2469 1.429 . S
C2464 C2456 1.574 . S
C2464 H2459 0.949 . S
C2464 C2470 1.368 . S
C2465 C2449 1.349 . S
C2465 H2457 0.950 . S
C2465 C2463 1.327 . S
C2466 C2454 1.347 1_455 S
C2466 H2460 0.949 . S
C2466 C2467 1.327 . S
C2467 H2461 0.956 . S
C2467 C2466 1.327 . S
C2467 C2471 1.428 . S
C2468 C2451 1.575 . S
C2468 H2462 0.948 1_455 S
C2468 C2472 1.370 . S
C2469 C2450 1.429 . S
C2469 C2463 1.429 . S
C2469 C2470 1.523 . S
C2470 C2451 1.368 . S
C2470 C2464 1.368 . S
C2470 C2469 1.523 . S
C2471 C2455 1.426 1_455 S
C2471 C2467 1.428 . S
C2471 C2472 1.524 . S
C2472 C2456 1.368 . S
C2472 C2468 1.370 . S
C2472 C2471 1.524 . S
H2473 C2448 0.950 . S
H2474 C2450 0.950 . S
H2475 C2451 0.952 . S
H2476 C2453 0.956 1_556 S
H2477 C2455 0.949 . S
C2478 C2479 1.349 . S
C2478 C2480 1.327 . S
C2478 H2503 0.950 . S
C2479 C2478 1.349 . S
C2479 C2495 1.349 . S
C2480 C2478 1.327 . S
C2480 C2499 1.429 . S
C2480 H2504 0.950 . S
C2481 C2498 1.574 . S
C2481 C2500 1.368 . S
C2481 H2505 0.949 . S
H2482 C2486 0.949 . S
C2483 C2484 1.349 . S
C2483 C2485 1.327 . S
C2483 H2506 0.950 . S
C2484 C2483 1.349 . S
C2484 C2496 1.349 . S
C2485 C2483 1.327 . S
C2485 C2501 1.429 . S
C2485 H2507 0.950 . S
C2486 H2482 0.949 . S
C2486 C2494 1.574 . S
C2486 C2502 1.368 . S
H2487 C2495 0.950 . S
H2488 C2493 0.950 . S
H2489 C2494 0.949 . S
H2490 C2496 0.950 . S
H2491 C2497 0.950 . S
H2492 C2498 0.949 . S
C2493 H2488 0.950 . S
C2493 C2495 1.327 . S
C2493 C2499 1.429 . S
C2494 C2486 1.574 . S
C2494 H2489 0.949 . S
C2494 C2500 1.368 . S
C2495 C2479 1.349 . S
C2495 H2487 0.950 . S
C2495 C2493 1.327 . S
C2496 C2484 1.349 . S
C2496 H2490 0.950 . S
C2496 C2497 1.327 . S
C2497 H2491 0.950 . S
C2497 C2496 1.327 . S
C2497 C2501 1.429 . S
C2498 C2481 1.574 . S
C2498 H2492 0.949 . S
C2498 C2502 1.368 . S
C2499 C2480 1.429 . S
C2499 C2493 1.429 . S
C2499 C2500 1.523 . S
C2500 C2481 1.368 . S
C2500 C2494 1.368 . S
C2500 C2499 1.523 . S
C2501 C2485 1.429 . S
C2501 C2497 1.429 . S
C2501 C2502 1.523 . S
C2502 C2486 1.368 . S
C2502 C2498 1.368 . S
C2502 C2501 1.523 . S
H2503 C2478 0.950 . S
H2504 C2480 0.950 . S
H2505 C2481 0.949 . S
H2506 C2483 0.950 . S
H2507 C2485 0.950 . S
C2508 C2509 1.349 . S
C2508 C2510 1.327 . S
C2508 H2533 0.950 . S
C2509 C2508 1.349 . S
C2509 C2525 1.349 . S
C2510 C2508 1.327 . S
C2510 C2529 1.429 . S
C2510 H2534 0.950 . S
C2511 C2528 1.574 . S
C2511 C2530 1.368 . S
C2511 H2535 0.949 . S
H2512 C2516 0.949 . S
C2513 C2514 1.349 . S
C2513 C2515 1.327 . S
C2513 H2536 0.950 . S
C2514 C2513 1.349 . S
C2514 C2526 1.349 . S
C2515 C2513 1.327 . S
C2515 C2531 1.429 . S
C2515 H2537 0.950 . S
C2516 H2512 0.949 . S
C2516 C2524 1.574 . S
C2516 C2532 1.368 . S
H2517 C2525 0.950 . S
H2518 C2523 0.950 . S
H2519 C2524 0.949 . S
H2520 C2526 0.950 . S
H2521 C2527 0.950 . S
H2522 C2528 0.949 . S
C2523 H2518 0.950 . S
C2523 C2525 1.327 . S
C2523 C2529 1.429 . S
C2524 C2516 1.574 . S
C2524 H2519 0.949 . S
C2524 C2530 1.368 . S
C2525 C2509 1.349 . S
C2525 H2517 0.950 . S
C2525 C2523 1.327 . S
C2526 C2514 1.349 . S
C2526 H2520 0.950 . S
C2526 C2527 1.327 . S
C2527 H2521 0.950 . S
C2527 C2526 1.327 . S
C2527 C2531 1.429 . S
C2528 C2511 1.574 . S
C2528 H2522 0.949 . S
C2528 C2532 1.368 . S
C2529 C2510 1.429 . S
C2529 C2523 1.429 . S
C2529 C2530 1.523 . S
C2530 C2511 1.368 . S
C2530 C2524 1.368 . S
C2530 C2529 1.523 . S
C2531 C2515 1.429 . S
C2531 C2527 1.429 . S
C2531 C2532 1.523 . S
C2532 C2516 1.368 . S
C2532 C2528 1.368 . S
C2532 C2531 1.523 . S
H2533 C2508 0.950 . S
H2534 C2510 0.950 . S
H2535 C2511 0.949 . S
H2536 C2513 0.950 . S
H2537 C2515 0.950 . S
C2538 C2539 1.349 . S
C2538 C2540 1.327 . S
C2538 H2563 0.950 . S
C2539 C2538 1.349 . S
C2539 C2555 1.349 . S
C2540 C2538 1.327 . S
C2540 C2559 1.429 . S
C2540 H2564 0.950 . S
C2541 C2558 1.574 . S
C2541 C2560 1.368 . S
C2541 H2565 0.949 . S
H2542 C2546 0.949 . S
C2543 C2544 1.349 . S
C2543 C2545 1.327 . S
C2543 H2566 0.950 . S
C2544 C2543 1.349 . S
C2544 C2556 1.349 . S
C2545 C2543 1.327 . S
C2545 C2561 1.429 . S
C2545 H2567 0.950 . S
C2546 H2542 0.949 . S
C2546 C2554 1.574 . S
C2546 C2562 1.368 . S
H2547 C2555 0.950 . S
H2548 C2553 0.950 . S
H2549 C2554 0.949 . S
H2550 C2556 0.950 . S
H2551 C2557 0.950 . S
H2552 C2558 0.949 . S
C2553 H2548 0.950 . S
C2553 C2555 1.327 . S
C2553 C2559 1.429 . S
C2554 C2546 1.574 . S
C2554 H2549 0.949 . S
C2554 C2560 1.368 . S
C2555 C2539 1.349 . S
C2555 H2547 0.950 . S
C2555 C2553 1.327 . S
C2556 C2544 1.349 . S
C2556 H2550 0.950 . S
C2556 C2557 1.327 . S
C2557 H2551 0.950 . S
C2557 C2556 1.327 . S
C2557 C2561 1.429 . S
C2558 C2541 1.574 . S
C2558 H2552 0.949 . S
C2558 C2562 1.368 . S
C2559 C2540 1.429 . S
C2559 C2553 1.429 . S
C2559 C2560 1.523 . S
C2560 C2541 1.368 . S
C2560 C2554 1.368 . S
C2560 C2559 1.523 . S
C2561 C2545 1.429 . S
C2561 C2557 1.429 . S
C2561 C2562 1.523 . S
C2562 C2546 1.368 . S
C2562 C2558 1.368 . S
C2562 C2561 1.523 . S
H2563 C2538 0.950 . S
H2564 C2540 0.950 . S
H2565 C2541 0.949 . S
H2566 C2543 0.950 . S
H2567 C2545 0.950 . S
C2568 C2569 1.349 . S
C2568 C2570 1.327 . S
C2568 H2593 0.950 . S
C2569 C2568 1.349 . S
C2569 C2585 1.349 1_455 S
C2570 C2568 1.327 . S
C2570 C2589 1.429 . S
C2570 H2594 0.950 . S
C2571 C2588 1.574 . S
C2571 C2590 1.368 1_655 S
C2571 H2595 0.949 . S
H2572 C2576 0.949 . S
C2573 C2574 1.349 1_655 S
C2573 C2575 1.327 . S
C2573 H2596 0.950 . S
C2574 C2573 1.349 1_455 S
C2574 C2586 1.349 . S
C2575 C2573 1.327 . S
C2575 C2591 1.429 1_655 S
C2575 H2597 0.950 . S
C2576 H2572 0.949 . S
C2576 C2584 1.574 . S
C2576 C2592 1.368 . S
H2577 C2585 0.950 . S
H2578 C2583 0.950 . S
H2579 C2584 0.949 . S
H2580 C2586 0.950 . S
H2581 C2587 0.950 . S
H2582 C2588 0.949 . S
C2583 H2578 0.950 . S
C2583 C2585 1.327 . S
C2583 C2589 1.429 1_655 S
C2584 C2576 1.574 . S
C2584 H2579 0.949 . S
C2584 C2590 1.368 . S
C2585 C2569 1.349 1_655 S
C2585 H2577 0.950 . S
C2585 C2583 1.327 . S
C2586 C2574 1.349 . S
C2586 H2580 0.950 . S
C2586 C2587 1.327 . S
C2587 H2581 0.950 . S
C2587 C2586 1.327 . S
C2587 C2591 1.429 . S
C2588 C2571 1.574 . S
C2588 H2582 0.949 . S
C2588 C2592 1.368 1_655 S
C2589 C2570 1.429 . S
C2589 C2583 1.429 1_455 S
C2589 C2590 1.523 . S
C2590 C2571 1.368 1_455 S
C2590 C2584 1.368 . S
C2590 C2589 1.523 . S
C2591 C2575 1.429 1_455 S
C2591 C2587 1.429 . S
C2591 C2592 1.523 . S
C2592 C2576 1.368 . S
C2592 C2588 1.368 1_455 S
C2592 C2591 1.523 . S
H2593 C2568 0.950 . S
H2594 C2570 0.950 . S
H2595 C2571 0.949 . S
H2596 C2573 0.950 . S
H2597 C2575 0.950 . S
C2598 C2599 1.349 . S
C2598 C2600 1.327 . S
C2598 H2623 0.950 . S
C2599 C2598 1.349 . S
C2599 C2615 1.349 . S
C2600 C2598 1.327 . S
C2600 C2619 1.429 . S
C2600 H2624 0.950 . S
C2601 C2618 1.574 . S
C2601 C2620 1.368 . S
C2601 H2625 0.949 . S
H2602 C2606 0.949 . S
C2603 C2604 1.349 . S
C2603 C2605 1.327 . S
C2603 H2626 0.950 . S
C2604 C2603 1.349 . S
C2604 C2616 1.349 . S
C2605 C2603 1.327 . S
C2605 C2621 1.429 . S
C2605 H2627 0.950 . S
C2606 H2602 0.949 . S
C2606 C2614 1.574 . S
C2606 C2622 1.368 . S
H2607 C2615 0.950 . S
H2608 C2613 0.950 . S
H2609 C2614 0.949 . S
H2610 C2616 0.950 . S
H2611 C2617 0.950 . S
H2612 C2618 0.949 . S
C2613 H2608 0.950 . S
C2613 C2615 1.327 . S
C2613 C2619 1.429 . S
C2614 C2606 1.574 . S
C2614 H2609 0.949 . S
C2614 C2620 1.368 . S
C2615 C2599 1.349 . S
C2615 H2607 0.950 . S
C2615 C2613 1.327 . S
C2616 C2604 1.349 . S
C2616 H2610 0.950 . S
C2616 C2617 1.327 . S
C2617 H2611 0.950 . S
C2617 C2616 1.327 . S
C2617 C2621 1.429 . S
C2618 C2601 1.574 . S
C2618 H2612 0.949 . S
C2618 C2622 1.368 . S
C2619 C2600 1.429 . S
C2619 C2613 1.429 . S
C2619 C2620 1.523 . S
C2620 C2601 1.368 . S
C2620 C2614 1.368 . S
C2620 C2619 1.523 . S
C2621 C2605 1.429 . S
C2621 C2617 1.429 . S
C2621 C2622 1.523 . S
C2622 C2606 1.368 . S
C2622 C2618 1.368 . S
C2622 C2621 1.523 . S
H2623 C2598 0.950 . S
H2624 C2600 0.950 . S
H2625 C2601 0.949 . S
H2626 C2603 0.950 . S
H2627 C2605 0.950 . S
C2628 C2629 1.349 . S
C2628 C2630 1.327 . S
C2628 H2653 0.950 . S
C2629 C2628 1.349 . S
C2629 C2645 1.349 . S
C2630 C2628 1.327 . S
C2630 C2649 1.429 . S
C2630 H2654 0.950 . S
C2631 C2648 1.574 . S
C2631 C2650 1.368 . S
C2631 H2655 0.949 . S
H2632 C2636 0.949 . S
C2633 C2634 1.349 . S
C2633 C2635 1.327 . S
C2633 H2656 0.950 . S
C2634 C2633 1.349 . S
C2634 C2646 1.349 . S
C2635 C2633 1.327 . S
C2635 C2651 1.429 . S
C2635 H2657 0.950 . S
C2636 H2632 0.949 . S
C2636 C2644 1.574 . S
C2636 C2652 1.368 . S
H2637 C2645 0.950 . S
H2638 C2643 0.950 . S
H2639 C2644 0.949 . S
H2640 C2646 0.950 1_554 S
H2641 C2647 0.950 . S
H2642 C2648 0.949 . S
C2643 H2638 0.950 . S
C2643 C2645 1.327 . S
C2643 C2649 1.429 . S
C2644 C2636 1.574 . S
C2644 H2639 0.949 . S
C2644 C2650 1.368 . S
C2645 C2629 1.349 . S
C2645 H2637 0.950 . S
C2645 C2643 1.327 . S
C2646 C2634 1.349 . S
C2646 H2640 0.950 1_556 S
C2646 C2647 1.327 . S
C2647 H2641 0.950 . S
C2647 C2646 1.327 . S
C2647 C2651 1.429 . S
C2648 C2631 1.574 . S
C2648 H2642 0.949 . S
C2648 C2652 1.368 . S
C2649 C2630 1.429 . S
C2649 C2643 1.429 . S
C2649 C2650 1.523 . S
C2650 C2631 1.368 . S
C2650 C2644 1.368 . S
C2650 C2649 1.523 . S
C2651 C2635 1.429 . S
C2651 C2647 1.429 . S
C2651 C2652 1.523 . S
C2652 C2636 1.368 . S
C2652 C2648 1.368 . S
C2652 C2651 1.523 . S
H2653 C2628 0.950 . S
H2654 C2630 0.950 . S
H2655 C2631 0.949 . S
H2656 C2633 0.950 . S
H2657 C2635 0.950 . S
C2658 C2659 1.349 . S
C2658 C2660 1.327 . S
C2658 H2683 0.950 . S
C2659 C2658 1.349 . S
C2659 C2675 1.349 . S
C2660 C2658 1.327 . S
C2660 C2679 1.429 . S
C2660 H2684 0.950 . S
C2661 C2678 1.574 . S
C2661 C2680 1.368 . S
C2661 H2685 0.949 . S
H2662 C2666 0.949 . S
C2663 C2664 1.349 . S
C2663 C2665 1.327 . S
C2663 H2686 0.950 . S
C2664 C2663 1.349 . S
C2664 C2676 1.349 . S
C2665 C2663 1.327 . S
C2665 C2681 1.429 . S
C2665 H2687 0.950 . S
C2666 H2662 0.949 . S
C2666 C2674 1.574 . S
C2666 C2682 1.368 . S
H2667 C2675 0.950 . S
H2668 C2673 0.950 . S
H2669 C2674 0.949 . S
H2670 C2676 0.950 . S
H2671 C2677 0.950 . S
H2672 C2678 0.949 . S
C2673 H2668 0.950 . S
C2673 C2675 1.327 . S
C2673 C2679 1.429 . S
C2674 C2666 1.574 . S
C2674 H2669 0.949 . S
C2674 C2680 1.368 . S
C2675 C2659 1.349 . S
C2675 H2667 0.950 . S
C2675 C2673 1.327 . S
C2676 C2664 1.349 . S
C2676 H2670 0.950 . S
C2676 C2677 1.327 . S
C2677 H2671 0.950 . S
C2677 C2676 1.327 . S
C2677 C2681 1.429 . S
C2678 C2661 1.574 . S
C2678 H2672 0.949 . S
C2678 C2682 1.368 . S
C2679 C2660 1.429 . S
C2679 C2673 1.429 . S
C2679 C2680 1.523 . S
C2680 C2661 1.368 . S
C2680 C2674 1.368 . S
C2680 C2679 1.523 . S
C2681 C2665 1.429 . S
C2681 C2677 1.429 . S
C2681 C2682 1.523 . S
C2682 C2666 1.368 . S
C2682 C2678 1.368 . S
C2682 C2681 1.523 . S
H2683 C2658 0.950 . S
H2684 C2660 0.950 . S
H2685 C2661 0.949 . S
H2686 C2663 0.950 . S
H2687 C2665 0.950 . S
C2688 C2689 1.349 . S
C2688 C2690 1.327 . S
C2688 H2713 0.950 . S
C2689 C2688 1.349 . S
C2689 C2705 1.349 1_545 S
C2690 C2688 1.327 . S
C2690 C2709 1.429 . S
C2690 H2714 0.950 . S
C2691 C2708 1.574 . S
C2691 C2710 1.347 1_565 S
C2691 H2715 0.949 . S
H2692 C2696 0.949 . S
C2693 C2694 1.349 . S
C2693 C2695 1.327 . S
C2693 H2716 0.950 . S
C2694 C2693 1.349 . S
C2694 C2706 1.349 1_565 S
C2695 C2693 1.327 . S
C2695 C2711 1.429 . S
C2695 H2717 0.950 . S
C2696 H2692 0.949 . S
C2696 C2704 1.574 . S
C2696 C2712 1.332 1_545 S
H2697 C2705 0.950 . S
H2698 C2703 0.950 . S
H2699 C2704 0.949 . S
H2700 C2706 0.950 . S
H2701 C2707 0.950 . S
H2702 C2708 0.949 . S
C2703 H2698 0.950 . S
C2703 C2705 1.327 . S
C2703 C2709 1.429 1_565 S
C2704 C2696 1.574 . S
C2704 H2699 0.949 . S
C2704 C2710 1.389 . S
C2705 C2689 1.349 1_565 S
C2705 H2697 0.950 . S
C2705 C2703 1.327 . S
C2706 C2694 1.349 1_545 S
C2706 H2700 0.950 . S
C2706 C2707 1.327 . S
C2707 H2701 0.950 . S
C2707 C2706 1.327 . S
C2707 C2711 1.429 1_545 S
C2708 C2691 1.574 . S
C2708 H2702 0.949 . S
C2708 C2712 1.405 . S
C2709 C2690 1.429 . S
C2709 C2703 1.429 1_545 S
C2709 C2710 1.524 . S
C2710 C2691 1.347 1_545 S
C2710 C2704 1.389 . S
C2710 C2709 1.524 . S
C2711 C2695 1.429 . S
C2711 C2707 1.429 1_565 S
C2711 C2712 1.525 . S
C2712 C2696 1.332 1_565 S
C2712 C2708 1.405 . S
C2712 C2711 1.525 . S
H2713 C2688 0.950 . S
H2714 C2690 0.950 . S
H2715 C2691 0.949 . S
H2716 C2693 0.950 . S
H2717 C2695 0.950 . S
C2718 C2719 1.349 . S
C2718 C2720 1.327 . S
C2718 H2743 0.950 . S
C2719 C2718 1.349 . S
C2719 C2735 1.349 . S
C2720 C2718 1.327 . S
C2720 C2739 1.429 . S
C2720 H2744 0.950 . S
C2721 C2738 1.574 . S
C2721 C2740 1.368 . S
C2721 H2745 0.949 . S
H2722 C2726 0.949 . S
C2723 C2724 1.349 . S
C2723 C2725 1.327 . S
C2723 H2746 0.950 . S
C2724 C2723 1.349 . S
C2724 C2736 1.349 . S
C2725 C2723 1.327 . S
C2725 C2741 1.429 . S
C2725 H2747 0.950 . S
C2726 H2722 0.949 . S
C2726 C2734 1.574 . S
C2726 C2742 1.368 . S
H2727 C2735 0.950 . S
H2728 C2733 0.950 . S
H2729 C2734 0.949 . S
H2730 C2736 0.950 . S
H2731 C2737 0.950 . S
H2732 C2738 0.949 . S
C2733 H2728 0.950 . S
C2733 C2735 1.327 . S
C2733 C2739 1.429 . S
C2734 C2726 1.574 . S
C2734 H2729 0.949 . S
C2734 C2740 1.368 . S
C2735 C2719 1.349 . S
C2735 H2727 0.950 . S
C2735 C2733 1.327 . S
C2736 C2724 1.349 . S
C2736 H2730 0.950 . S
C2736 C2737 1.327 . S
C2737 H2731 0.950 . S
C2737 C2736 1.327 . S
C2737 C2741 1.429 . S
C2738 C2721 1.574 . S
C2738 H2732 0.949 . S
C2738 C2742 1.368 . S
C2739 C2720 1.429 . S
C2739 C2733 1.429 . S
C2739 C2740 1.523 . S
C2740 C2721 1.368 . S
C2740 C2734 1.368 . S
C2740 C2739 1.523 . S
C2741 C2725 1.429 . S
C2741 C2737 1.429 . S
C2741 C2742 1.523 . S
C2742 C2726 1.368 . S
C2742 C2738 1.368 . S
C2742 C2741 1.523 . S
H2743 C2718 0.950 . S
H2744 C2720 0.950 . S
H2745 C2721 0.949 . S
H2746 C2723 0.950 . S
H2747 C2725 0.950 . S
C2748 C2749 1.349 . S
C2748 C2750 1.327 . S
C2748 H2773 0.950 . S
C2749 C2748 1.349 . S
C2749 C2765 1.349 1_545 S
C2750 C2748 1.327 . S
C2750 C2769 1.429 . S
C2750 H2774 0.950 . S
C2751 C2768 1.574 . S
C2751 C2770 1.368 1_565 S
C2751 H2775 0.949 . S
H2752 C2756 0.949 . S
C2753 C2754 1.349 . S
C2753 C2755 1.329 . S
C2753 H2776 0.950 1_545 S
C2754 C2753 1.349 . S
C2754 C2766 1.349 . S
C2755 C2753 1.329 . S
C2755 C2771 1.444 . S
C2755 H2777 0.933 1_545 S
C2756 H2752 0.949 . S
C2756 C2764 1.574 . S
C2756 C2772 1.368 . S
H2757 C2765 0.950 . S
H2758 C2763 0.950 . S
H2759 C2764 0.949 . S
H2760 C2766 0.950 . S
H2761 C2767 0.950 . S
H2762 C2768 0.949 . S
C2763 H2758 0.950 . S
C2763 C2765 1.327 . S
C2763 C2769 1.429 1_565 S
C2764 C2756 1.574 . S
C2764 H2759 0.949 . S
C2764 C2770 1.368 . S
C2765 C2749 1.349 1_565 S
C2765 H2757 0.950 . S
C2765 C2763 1.327 . S
C2766 C2754 1.349 . S
C2766 H2760 0.950 . S
C2766 C2767 1.327 . S
C2767 H2761 0.950 . S
C2767 C2766 1.327 . S
C2767 C2771 1.429 . S
C2768 C2751 1.574 . S
C2768 H2762 0.949 . S
C2768 C2772 1.368 1_565 S
C2769 C2750 1.429 . S
C2769 C2763 1.429 1_545 S
C2769 C2770 1.523 . S
C2770 C2751 1.368 1_545 S
C2770 C2764 1.368 . S
C2770 C2769 1.523 . S
C2771 C2755 1.444 . S
C2771 C2767 1.429 . S
C2771 C2772 1.523 . S
C2772 C2756 1.368 . S
C2772 C2768 1.368 1_545 S
C2772 C2771 1.523 . S
H2773 C2748 0.950 . S
H2774 C2750 0.950 . S
H2775 C2751 0.949 . S
H2776 C2753 0.950 1_565 S
H2777 C2755 0.933 1_565 S
C2778 C2779 1.349 . S
C2778 C2780 1.327 . S
C2778 H2803 0.950 . S
C2779 C2778 1.349 . S
C2779 C2795 1.349 . S
C2780 C2778 1.327 . S
C2780 C2799 1.429 . S
C2780 H2804 0.950 . S
C2781 C2798 1.574 . S
C2781 C2800 1.368 . S
C2781 H2805 0.949 . S
H2782 C2786 0.949 . S
C2783 C2784 1.349 . S
C2783 C2785 1.327 . S
C2783 H2806 0.950 . S
C2784 C2783 1.349 . S
C2784 C2796 1.349 . S
C2785 C2783 1.327 . S
C2785 C2801 1.429 . S
C2785 H2807 0.950 . S
C2786 H2782 0.949 . S
C2786 C2794 1.574 . S
C2786 C2802 1.368 . S
H2787 C2795 0.950 . S
H2788 C2793 0.950 . S
H2789 C2794 0.949 . S
H2790 C2796 0.950 . S
H2791 C2797 0.950 . S
H2792 C2798 0.949 . S
C2793 H2788 0.950 . S
C2793 C2795 1.327 . S
C2793 C2799 1.429 . S
C2794 C2786 1.574 . S
C2794 H2789 0.949 . S
C2794 C2800 1.368 . S
C2795 C2779 1.349 . S
C2795 H2787 0.950 . S
C2795 C2793 1.327 . S
C2796 C2784 1.349 . S
C2796 H2790 0.950 . S
C2796 C2797 1.327 . S
C2797 H2791 0.950 . S
C2797 C2796 1.327 . S
C2797 C2801 1.429 . S
C2798 C2781 1.574 . S
C2798 H2792 0.949 . S
C2798 C2802 1.368 . S
C2799 C2780 1.429 . S
C2799 C2793 1.429 . S
C2799 C2800 1.523 . S
C2800 C2781 1.368 . S
C2800 C2794 1.368 . S
C2800 C2799 1.523 . S
C2801 C2785 1.429 . S
C2801 C2797 1.429 . S
C2801 C2802 1.523 . S
C2802 C2786 1.368 . S
C2802 C2798 1.368 . S
C2802 C2801 1.523 . S
H2803 C2778 0.950 . S
H2804 C2780 0.950 . S
H2805 C2781 0.949 . S
H2806 C2783 0.950 . S
H2807 C2785 0.950 . S
C2808 C2809 1.349 . S
C2808 C2810 1.327 . S
C2808 H2833 0.950 . S
C2809 C2808 1.349 . S
C2809 C2825 1.349 1_545 S
C2810 C2808 1.327 . S
C2810 C2829 1.429 . S
C2810 H2834 0.950 . S
C2811 C2828 1.574 . S
C2811 C2830 1.368 1_565 S
C2811 H2835 0.949 . S
H2812 C2816 0.949 . S
C2813 C2814 1.349 1_565 S
C2813 C2815 1.327 . S
C2813 H2836 0.950 . S
C2814 C2813 1.349 1_545 S
C2814 C2826 1.349 . S
C2815 C2813 1.327 . S
C2815 C2831 1.429 1_565 S
C2815 H2837 0.950 . S
C2816 H2812 0.949 . S
C2816 C2824 1.574 . S
C2816 C2832 1.368 . S
H2817 C2825 0.950 . S
H2818 C2823 0.950 . S
H2819 C2824 0.949 . S
H2820 C2826 0.950 . S
H2821 C2827 0.950 . S
H2822 C2828 0.949 . S
C2823 H2818 0.950 . S
C2823 C2825 1.327 . S
C2823 C2829 1.429 1_565 S
C2824 C2816 1.574 . S
C2824 H2819 0.949 . S
C2824 C2830 1.368 . S
C2825 C2809 1.349 1_565 S
C2825 H2817 0.950 . S
C2825 C2823 1.327 . S
C2826 C2814 1.349 . S
C2826 H2820 0.950 . S
C2826 C2827 1.327 . S
C2827 H2821 0.950 . S
C2827 C2826 1.327 . S
C2827 C2831 1.429 . S
C2828 C2811 1.574 . S
C2828 H2822 0.949 . S
C2828 C2832 1.368 1_565 S
C2829 C2810 1.429 . S
C2829 C2823 1.429 1_545 S
C2829 C2830 1.523 . S
C2830 C2811 1.368 1_545 S
C2830 C2824 1.368 . S
C2830 C2829 1.523 . S
C2831 C2815 1.429 1_545 S
C2831 C2827 1.429 . S
C2831 C2832 1.523 . S
C2832 C2816 1.368 . S
C2832 C2828 1.368 1_545 S
C2832 C2831 1.523 . S
H2833 C2808 0.950 . S
H2834 C2810 0.950 . S
H2835 C2811 0.949 . S
H2836 C2813 0.950 . S
H2837 C2815 0.950 . S
C2838 C2839 1.349 . S
C2838 C2840 1.327 . S
C2838 H2863 0.950 . S
C2839 C2838 1.349 . S
C2839 C2855 1.349 . S
C2840 C2838 1.327 . S
C2840 C2859 1.429 . S
C2840 H2864 0.950 . S
C2841 C2858 1.574 . S
C2841 C2860 1.368 . S
C2841 H2865 0.949 . S
H2842 C2846 0.949 . S
C2843 C2844 1.349 . S
C2843 C2845 1.327 . S
C2843 H2866 0.950 . S
C2844 C2843 1.349 . S
C2844 C2856 1.349 . S
C2845 C2843 1.327 . S
C2845 C2861 1.429 . S
C2845 H2867 0.950 . S
C2846 H2842 0.949 . S
C2846 C2854 1.574 . S
C2846 C2862 1.368 . S
H2847 C2855 0.950 . S
H2848 C2853 0.950 . S
H2849 C2854 0.949 . S
H2850 C2856 0.950 . S
H2851 C2857 0.950 . S
H2852 C2858 0.949 . S
C2853 H2848 0.950 . S
C2853 C2855 1.327 . S
C2853 C2859 1.429 . S
C2854 C2846 1.574 . S
C2854 H2849 0.949 . S
C2854 C2860 1.368 . S
C2855 C2839 1.349 . S
C2855 H2847 0.950 . S
C2855 C2853 1.327 . S
C2856 C2844 1.349 . S
C2856 H2850 0.950 . S
C2856 C2857 1.327 . S
C2857 H2851 0.950 . S
C2857 C2856 1.327 . S
C2857 C2861 1.429 . S
C2858 C2841 1.574 . S
C2858 H2852 0.949 . S
C2858 C2862 1.368 . S
C2859 C2840 1.429 . S
C2859 C2853 1.429 . S
C2859 C2860 1.523 . S
C2860 C2841 1.368 . S
C2860 C2854 1.368 . S
C2860 C2859 1.523 . S
C2861 C2845 1.429 . S
C2861 C2857 1.429 . S
C2861 C2862 1.523 . S
C2862 C2846 1.368 . S
C2862 C2858 1.368 . S
C2862 C2861 1.523 . S
H2863 C2838 0.950 . S
H2864 C2840 0.950 . S
H2865 C2841 0.949 . S
H2866 C2843 0.950 . S
H2867 C2845 0.950 . S
C2868 C2869 1.349 . S
C2868 C2870 1.327 . S
C2868 H2893 0.950 . S
C2869 C2868 1.349 . S
C2869 C2885 1.349 1_545 S
C2870 C2868 1.327 . S
C2870 C2889 1.429 . S
C2870 H2894 0.950 . S
C2871 C2888 1.574 . S
C2871 C2890 1.368 1_565 S
C2871 H2895 0.949 . S
H2872 C2876 0.949 . S
C2873 C2874 1.333 1_565 S
C2873 C2875 1.327 . S
C2873 H2896 0.950 . S
C2874 C2873 1.333 1_545 S
C2874 C2886 1.366 . S
C2875 C2873 1.327 . S
C2875 C2891 1.429 1_565 S
C2875 H2897 0.950 . S
C2876 H2872 0.949 . S
C2876 C2884 1.574 . S
C2876 C2892 1.368 . S
H2877 C2885 0.950 . S
H2878 C2883 0.950 . S
H2879 C2884 0.949 . S
H2880 C2886 0.950 . S
H2881 C2887 0.950 . S
H2882 C2888 0.949 . S
C2883 H2878 0.950 . S
C2883 C2885 1.327 . S
C2883 C2889 1.429 1_565 S
C2884 C2876 1.574 . S
C2884 H2879 0.949 . S
C2884 C2890 1.368 . S
C2885 C2869 1.349 1_565 S
C2885 H2877 0.950 . S
C2885 C2883 1.327 . S
C2886 C2874 1.366 . S
C2886 H2880 0.950 . S
C2886 C2887 1.327 . S
C2887 H2881 0.950 . S
C2887 C2886 1.327 . S
C2887 C2891 1.429 . S
C2888 C2871 1.574 . S
C2888 H2882 0.949 . S
C2888 C2892 1.368 1_565 S
C2889 C2870 1.429 . S
C2889 C2883 1.429 1_545 S
C2889 C2890 1.523 . S
C2890 C2871 1.368 1_545 S
C2890 C2884 1.368 . S
C2890 C2889 1.523 . S
C2891 C2875 1.429 1_545 S
C2891 C2887 1.429 . S
C2891 C2892 1.523 . S
C2892 C2876 1.368 . S
C2892 C2888 1.368 1_545 S
C2892 C2891 1.523 . S
H2893 C2868 0.950 . S
H2894 C2870 0.950 . S
H2895 C2871 0.949 . S
H2896 C2873 0.950 . S
H2897 C2875 0.950 . S
C2898 C2899 1.349 . S
C2898 C2900 1.327 . S
C2898 H2923 0.950 . S
C2899 C2898 1.349 . S
C2899 C2915 1.349 . S
C2900 C2898 1.327 . S
C2900 C2919 1.429 . S
C2900 H2924 0.950 . S
C2901 C2918 1.574 . S
C2901 C2920 1.368 . S
C2901 H2925 0.949 . S
H2902 C2906 0.949 . S
C2903 C2904 1.349 . S
C2903 C2905 1.327 . S
C2903 H2926 0.950 . S
C2904 C2903 1.349 . S
C2904 C2916 1.349 . S
C2905 C2903 1.327 . S
C2905 C2921 1.429 . S
C2905 H2927 0.950 . S
C2906 H2902 0.949 . S
C2906 C2914 1.574 . S
C2906 C2922 1.368 . S
H2907 C2915 0.950 . S
H2908 C2913 0.950 . S
H2909 C2914 0.949 . S
H2910 C2916 0.950 . S
H2911 C2917 0.950 . S
H2912 C2918 0.949 . S
C2913 H2908 0.950 . S
C2913 C2915 1.327 . S
C2913 C2919 1.429 . S
C2914 C2906 1.574 . S
C2914 H2909 0.949 . S
C2914 C2920 1.368 . S
C2915 C2899 1.349 . S
C2915 H2907 0.950 . S
C2915 C2913 1.327 . S
C2916 C2904 1.349 . S
C2916 H2910 0.950 . S
C2916 C2917 1.327 . S
C2917 H2911 0.950 . S
C2917 C2916 1.327 . S
C2917 C2921 1.429 . S
C2918 C2901 1.574 . S
C2918 H2912 0.949 . S
C2918 C2922 1.368 . S
C2919 C2900 1.429 . S
C2919 C2913 1.429 . S
C2919 C2920 1.523 . S
C2920 C2901 1.368 . S
C2920 C2914 1.368 . S
C2920 C2919 1.523 . S
C2921 C2905 1.429 . S
C2921 C2917 1.429 . S
C2921 C2922 1.523 . S
C2922 C2906 1.368 . S
C2922 C2918 1.368 . S
C2922 C2921 1.523 . S
H2923 C2898 0.950 . S
H2924 C2900 0.950 . S
H2925 C2901 0.949 . S
H2926 C2903 0.950 . S
H2927 C2905 0.950 . S
C2928 C2929 1.349 1_556 S
C2928 C2930 1.327 . S
C2928 H2953 0.950 . S
C2929 C2928 1.349 1_554 S
C2929 C2945 1.349 . S
C2930 C2928 1.327 . S
C2930 C2949 1.429 1_556 S
C2930 H2954 0.950 . S
C2931 C2948 1.574 . S
C2931 C2950 1.368 . S
C2931 H2955 0.949 . S
H2932 C2936 0.949 . S
C2933 C2934 1.383 . S
C2933 C2935 1.327 . S
C2933 H2956 0.950 . S
C2934 C2933 1.383 . S
C2934 C2946 1.317 1_554 S
C2935 C2933 1.327 . S
C2935 C2951 1.429 . S
C2935 H2957 0.950 . S
C2936 H2932 0.949 . S
C2936 C2944 1.574 . S
C2936 C2952 1.368 1_556 S
H2937 C2945 0.950 . S
H2938 C2943 0.950 . S
H2939 C2944 0.949 . S
H2940 C2946 0.950 . S
H2941 C2947 0.950 . S
H2942 C2948 0.949 . S
C2943 H2938 0.950 . S
C2943 C2945 1.327 . S
C2943 C2949 1.429 . S
C2944 C2936 1.574 . S
C2944 H2939 0.949 . S
C2944 C2950 1.368 1_556 S
C2945 C2929 1.349 . S
C2945 H2937 0.950 . S
C2945 C2943 1.327 . S
C2946 C2934 1.317 1_556 S
C2946 H2940 0.950 . S
C2946 C2947 1.327 . S
C2947 H2941 0.950 . S
C2947 C2946 1.327 . S
C2947 C2951 1.429 1_556 S
C2948 C2931 1.574 . S
C2948 H2942 0.949 . S
C2948 C2952 1.368 . S
C2949 C2930 1.429 1_554 S
C2949 C2943 1.429 . S
C2949 C2950 1.523 . S
C2950 C2931 1.368 . S
C2950 C2944 1.368 1_554 S
C2950 C2949 1.523 . S
C2951 C2935 1.429 . S
C2951 C2947 1.429 1_554 S
C2951 C2952 1.523 . S
C2952 C2936 1.368 1_554 S
C2952 C2948 1.368 . S
C2952 C2951 1.523 . S
H2953 C2928 0.950 . S
H2954 C2930 0.950 . S
H2955 C2931 0.949 . S
H2956 C2933 0.950 . S
H2957 C2935 0.950 . S
C2958 C2959 1.349 . S
C2958 C2960 1.327 . S
C2958 H2983 0.950 . S
C2959 C2958 1.349 . S
C2959 C2975 1.349 1_554 S
C2960 C2958 1.327 . S
C2960 C2979 1.429 . S
C2960 H2984 0.950 . S
C2961 C2978 1.574 . S
C2961 C2980 1.368 1_556 S
C2961 H2985 0.949 . S
H2962 C2966 0.949 . S
C2963 C2964 1.349 1_556 S
C2963 C2965 1.327 . S
C2963 H2986 0.950 . S
C2964 C2963 1.349 1_554 S
C2964 C2976 1.349 . S
C2965 C2963 1.327 . S
C2965 C2981 1.429 1_556 S
C2965 H2987 0.950 . S
C2966 H2962 0.949 . S
C2966 C2974 1.574 . S
C2966 C2982 1.368 . S
H2967 C2975 0.950 . S
H2968 C2973 0.950 . S
H2969 C2974 0.949 . S
H2970 C2976 0.950 . S
H2971 C2977 0.950 . S
H2972 C2978 0.949 . S
C2973 H2968 0.950 . S
C2973 C2975 1.327 . S
C2973 C2979 1.429 1_556 S
C2974 C2966 1.574 . S
C2974 H2969 0.949 . S
C2974 C2980 1.368 . S
C2975 C2959 1.349 1_556 S
C2975 H2967 0.950 . S
C2975 C2973 1.327 . S
C2976 C2964 1.349 . S
C2976 H2970 0.950 . S
C2976 C2977 1.327 . S
C2977 H2971 0.950 . S
C2977 C2976 1.327 . S
C2977 C2981 1.429 . S
C2978 C2961 1.574 . S
C2978 H2972 0.949 . S
C2978 C2982 1.368 1_556 S
C2979 C2960 1.429 . S
C2979 C2973 1.429 1_554 S
C2979 C2980 1.523 . S
C2980 C2961 1.368 1_554 S
C2980 C2974 1.368 . S
C2980 C2979 1.523 . S
C2981 C2965 1.429 1_554 S
C2981 C2977 1.429 . S
C2981 C2982 1.523 . S
C2982 C2966 1.368 . S
C2982 C2978 1.368 1_554 S
C2982 C2981 1.523 . S
H2983 C2958 0.950 . S
H2984 C2960 0.950 . S
H2985 C2961 0.949 . S
H2986 C2963 0.950 . S
H2987 C2965 0.950 . S
C2988 C2989 1.349 . S
C2988 C2990 1.327 . S
C2988 H3013 0.950 . S
C2989 C2988 1.349 . S
C2989 C3005 1.349 . S
C2990 C2988 1.327 . S
C2990 C3009 1.429 . S
C2990 H3014 0.950 . S
C2991 C3008 1.574 . S
C2991 C3010 1.368 . S
C2991 H3015 0.949 . S
H2992 C2996 0.949 . S
C2993 C2994 1.349 . S
C2993 C2995 1.327 . S
C2993 H3016 0.950 . S
C2994 C2993 1.349 . S
C2994 C3006 1.349 . S
C2995 C2993 1.327 . S
C2995 C3011 1.429 . S
C2995 H3017 0.950 . S
C2996 H2992 0.949 . S
C2996 C3004 1.574 . S
C2996 C3012 1.368 . S
H2997 C3005 0.950 . S
H2998 C3003 0.950 . S
H2999 C3004 0.949 . S
H3000 C3006 0.950 . S
H3001 C3007 0.950 . S
H3002 C3008 0.949 . S
C3003 H2998 0.950 . S
C3003 C3005 1.327 . S
C3003 C3009 1.429 . S
C3004 C2996 1.574 . S
C3004 H2999 0.949 . S
C3004 C3010 1.368 . S
C3005 C2989 1.349 . S
C3005 H2997 0.950 . S
C3005 C3003 1.327 . S
C3006 C2994 1.349 . S
C3006 H3000 0.950 . S
C3006 C3007 1.327 . S
C3007 H3001 0.950 . S
C3007 C3006 1.327 . S
C3007 C3011 1.429 . S
C3008 C2991 1.574 . S
C3008 H3002 0.949 . S
C3008 C3012 1.368 . S
C3009 C2990 1.429 . S
C3009 C3003 1.429 . S
C3009 C3010 1.523 . S
C3010 C2991 1.368 . S
C3010 C3004 1.368 . S
C3010 C3009 1.523 . S
C3011 C2995 1.429 . S
C3011 C3007 1.429 . S
C3011 C3012 1.523 . S
C3012 C2996 1.368 . S
C3012 C3008 1.368 . S
C3012 C3011 1.523 . S
H3013 C2988 0.950 . S
H3014 C2990 0.950 . S
H3015 C2991 0.949 . S
H3016 C2993 0.950 . S
H3017 C2995 0.950 . S
C3018 C3019 1.349 . S
C3018 C3020 1.327 . S
C3018 H3043 0.950 . S
C3019 C3018 1.349 . S
C3019 C3035 1.349 . S
C3020 C3018 1.327 . S
C3020 C3039 1.429 . S
C3020 H3044 0.950 . S
C3021 C3038 1.574 . S
C3021 C3040 1.368 . S
C3021 H3045 0.949 . S
H3022 C3026 0.949 . S
C3023 C3024 1.349 . S
C3023 C3025 1.327 . S
C3023 H3046 0.950 . S
C3024 C3023 1.349 . S
C3024 C3036 1.349 . S
C3025 C3023 1.327 . S
C3025 C3041 1.429 . S
C3025 H3047 0.950 . S
C3026 H3022 0.949 . S
C3026 C3034 1.574 . S
C3026 C3042 1.368 . S
H3027 C3035 0.950 . S
H3028 C3033 0.950 . S
H3029 C3034 0.949 . S
H3030 C3036 0.950 . S
H3031 C3037 0.950 . S
H3032 C3038 0.949 . S
C3033 H3028 0.950 . S
C3033 C3035 1.327 . S
C3033 C3039 1.429 . S
C3034 C3026 1.574 . S
C3034 H3029 0.949 . S
C3034 C3040 1.368 . S
C3035 C3019 1.349 . S
C3035 H3027 0.950 . S
C3035 C3033 1.327 . S
C3036 C3024 1.349 . S
C3036 H3030 0.950 . S
C3036 C3037 1.327 . S
C3037 H3031 0.950 . S
C3037 C3036 1.327 . S
C3037 C3041 1.429 . S
C3038 C3021 1.574 . S
C3038 H3032 0.949 . S
C3038 C3042 1.368 . S
C3039 C3020 1.429 . S
C3039 C3033 1.429 . S
C3039 C3040 1.523 . S
C3040 C3021 1.368 . S
C3040 C3034 1.368 . S
C3040 C3039 1.523 . S
C3041 C3025 1.429 . S
C3041 C3037 1.429 . S
C3041 C3042 1.523 . S
C3042 C3026 1.368 . S
C3042 C3038 1.368 . S
C3042 C3041 1.523 . S
H3043 C3018 0.950 . S
H3044 C3020 0.950 . S
H3045 C3021 0.949 . S
H3046 C3023 0.950 . S
H3047 C3025 0.950 . S
C3048 C3049 1.349 . S
C3048 C3050 1.327 . S
C3048 H3073 0.950 . S
C3049 C3048 1.349 . S
C3049 C3065 1.349 . S
C3050 C3048 1.327 . S
C3050 C3069 1.429 . S
C3050 H3074 0.950 . S
C3051 C3068 1.574 . S
C3051 C3070 1.368 . S
C3051 H3075 0.949 . S
H3052 C3056 0.949 . S
C3053 C3054 1.349 . S
C3053 C3055 1.327 . S
C3053 H3076 0.950 . S
C3054 C3053 1.349 . S
C3054 C3066 1.349 . S
C3055 C3053 1.327 . S
C3055 C3071 1.429 . S
C3055 H3077 0.950 . S
C3056 H3052 0.949 . S
C3056 C3064 1.574 . S
C3056 C3072 1.368 . S
H3057 C3065 0.950 . S
H3058 C3063 0.950 . S
H3059 C3064 0.949 . S
H3060 C3066 0.950 . S
H3061 C3067 0.950 . S
H3062 C3068 0.949 . S
C3063 H3058 0.950 . S
C3063 C3065 1.327 . S
C3063 C3069 1.429 . S
C3064 C3056 1.574 . S
C3064 H3059 0.949 . S
C3064 C3070 1.368 . S
C3065 C3049 1.349 . S
C3065 H3057 0.950 . S
C3065 C3063 1.327 . S
C3066 C3054 1.349 . S
C3066 H3060 0.950 . S
C3066 C3067 1.327 . S
C3067 H3061 0.950 . S
C3067 C3066 1.327 . S
C3067 C3071 1.429 . S
C3068 C3051 1.574 . S
C3068 H3062 0.949 . S
C3068 C3072 1.368 . S
C3069 C3050 1.429 . S
C3069 C3063 1.429 . S
C3069 C3070 1.523 . S
C3070 C3051 1.368 . S
C3070 C3064 1.368 . S
C3070 C3069 1.523 . S
C3071 C3055 1.429 . S
C3071 C3067 1.429 . S
C3071 C3072 1.523 . S
C3072 C3056 1.368 . S
C3072 C3068 1.368 . S
C3072 C3071 1.523 . S
H3073 C3048 0.950 . S
H3074 C3050 0.950 . S
H3075 C3051 0.949 . S
H3076 C3053 0.950 . S
H3077 C3055 0.950 . S
C3078 C3079 1.349 . S
C3078 C3080 1.327 . S
C3078 H3103 0.950 . S
C3079 C3078 1.349 . S
C3079 C3095 1.349 . S
C3080 C3078 1.327 . S
C3080 C3099 1.429 . S
C3080 H3104 0.950 . S
C3081 C3098 1.574 . S
C3081 C3100 1.368 . S
C3081 H3105 0.949 . S
H3082 C3086 0.949 . S
C3083 C3084 1.349 . S
C3083 C3085 1.327 . S
C3083 H3106 0.950 . S
C3084 C3083 1.349 . S
C3084 C3096 1.349 . S
C3085 C3083 1.327 . S
C3085 C3101 1.429 . S
C3085 H3107 0.950 . S
C3086 H3082 0.949 . S
C3086 C3094 1.574 . S
C3086 C3102 1.368 . S
H3087 C3095 0.950 . S
H3088 C3093 0.950 . S
H3089 C3094 0.949 . S
H3090 C3096 0.950 . S
H3091 C3097 0.950 . S
H3092 C3098 0.949 . S
C3093 H3088 0.950 . S
C3093 C3095 1.327 . S
C3093 C3099 1.429 . S
C3094 C3086 1.574 . S
C3094 H3089 0.949 . S
C3094 C3100 1.368 . S
C3095 C3079 1.349 . S
C3095 H3087 0.950 . S
C3095 C3093 1.327 . S
C3096 C3084 1.349 . S
C3096 H3090 0.950 . S
C3096 C3097 1.327 . S
C3097 H3091 0.950 . S
C3097 C3096 1.327 . S
C3097 C3101 1.429 . S
C3098 C3081 1.574 . S
C3098 H3092 0.949 . S
C3098 C3102 1.368 . S
C3099 C3080 1.429 . S
C3099 C3093 1.429 . S
C3099 C3100 1.523 . S
C3100 C3081 1.368 . S
C3100 C3094 1.368 . S
C3100 C3099 1.523 . S
C3101 C3085 1.429 . S
C3101 C3097 1.429 . S
C3101 C3102 1.523 . S
C3102 C3086 1.368 . S
C3102 C3098 1.368 . S
C3102 C3101 1.523 . S
H3103 C3078 0.950 . S
H3104 C3080 0.950 . S
H3105 C3081 0.949 . S
H3106 C3083 0.950 . S
H3107 C3085 0.950 . S
C3108 C3109 1.349 . S
C3108 C3110 1.327 . S
C3108 H3133 0.950 . S
C3109 C3108 1.349 . S
C3109 C3125 1.349 . S
C3110 C3108 1.327 . S
C3110 C3129 1.429 . S
C3110 H3134 0.950 . S
C3111 C3128 1.574 . S
C3111 C3130 1.368 . S
C3111 H3135 0.949 . S
H3112 C3116 0.949 . S
C3113 C3114 1.349 . S
C3113 C3115 1.327 . S
C3113 H3136 0.950 . S
C3114 C3113 1.349 . S
C3114 C3126 1.349 . S
C3115 C3113 1.327 . S
C3115 C3131 1.429 . S
C3115 H3137 0.950 . S
C3116 H3112 0.949 . S
C3116 C3124 1.574 . S
C3116 C3132 1.368 . S
H3117 C3125 0.950 . S
H3118 C3123 0.950 . S
H3119 C3124 0.949 . S
H3120 C3126 0.950 . S
H3121 C3127 0.950 . S
H3122 C3128 0.949 . S
C3123 H3118 0.950 . S
C3123 C3125 1.327 . S
C3123 C3129 1.429 . S
C3124 C3116 1.574 . S
C3124 H3119 0.949 . S
C3124 C3130 1.368 . S
C3125 C3109 1.349 . S
C3125 H3117 0.950 . S
C3125 C3123 1.327 . S
C3126 C3114 1.349 . S
C3126 H3120 0.950 . S
C3126 C3127 1.327 . S
C3127 H3121 0.950 . S
C3127 C3126 1.327 . S
C3127 C3131 1.429 . S
C3128 C3111 1.574 . S
C3128 H3122 0.949 . S
C3128 C3132 1.368 . S
C3129 C3110 1.429 . S
C3129 C3123 1.429 . S
C3129 C3130 1.523 . S
C3130 C3111 1.368 . S
C3130 C3124 1.368 . S
C3130 C3129 1.523 . S
C3131 C3115 1.429 . S
C3131 C3127 1.429 . S
C3131 C3132 1.523 . S
C3132 C3116 1.368 . S
C3132 C3128 1.368 . S
C3132 C3131 1.523 . S
H3133 C3108 0.950 . S
H3134 C3110 0.950 . S
H3135 C3111 0.949 . S
H3136 C3113 0.950 . S
H3137 C3115 0.950 . S
C3138 C3139 1.349 . S
C3138 C3140 1.327 . S
C3138 H3163 0.950 . S
C3139 C3138 1.349 . S
C3139 C3155 1.349 . S
C3140 C3138 1.327 . S
C3140 C3159 1.429 . S
C3140 H3164 0.950 . S
C3141 C3158 1.574 . S
C3141 C3160 1.368 . S
C3141 H3165 0.949 . S
H3142 C3146 0.949 . S
C3143 C3144 1.349 . S
C3143 C3145 1.327 . S
C3143 H3166 0.950 . S
C3144 C3143 1.349 . S
C3144 C3156 1.349 . S
C3145 C3143 1.327 . S
C3145 C3161 1.429 . S
C3145 H3167 0.950 . S
C3146 H3142 0.949 . S
C3146 C3154 1.574 . S
C3146 C3162 1.368 . S
H3147 C3155 0.950 . S
H3148 C3153 0.950 . S
H3149 C3154 0.949 . S
H3150 C3156 0.950 . S
H3151 C3157 0.950 . S
H3152 C3158 0.949 . S
C3153 H3148 0.950 . S
C3153 C3155 1.327 . S
C3153 C3159 1.429 . S
C3154 C3146 1.574 . S
C3154 H3149 0.949 . S
C3154 C3160 1.368 . S
C3155 C3139 1.349 . S
C3155 H3147 0.950 . S
C3155 C3153 1.327 . S
C3156 C3144 1.349 . S
C3156 H3150 0.950 . S
C3156 C3157 1.327 . S
C3157 H3151 0.950 . S
C3157 C3156 1.327 . S
C3157 C3161 1.429 . S
C3158 C3141 1.574 . S
C3158 H3152 0.949 . S
C3158 C3162 1.368 . S
C3159 C3140 1.429 . S
C3159 C3153 1.429 . S
C3159 C3160 1.523 . S
C3160 C3141 1.368 . S
C3160 C3154 1.368 . S
C3160 C3159 1.523 . S
C3161 C3145 1.429 . S
C3161 C3157 1.429 . S
C3161 C3162 1.523 . S
C3162 C3146 1.368 . S
C3162 C3158 1.368 . S
C3162 C3161 1.523 . S
H3163 C3138 0.950 . S
H3164 C3140 0.950 . S
H3165 C3141 0.949 . S
H3166 C3143 0.950 . S
H3167 C3145 0.950 . S
C3168 C3169 1.349 . S
C3168 C3170 1.327 . S
C3168 H3193 0.950 . S
C3169 C3168 1.349 . S
C3169 C3185 1.349 1_455 S
C3170 C3168 1.327 . S
C3170 C3189 1.429 . S
C3170 H3194 0.950 . S
C3171 C3188 1.573 1_655 S
C3171 C3190 1.365 1_655 S
C3171 H3195 0.952 . S
H3172 C3176 0.949 . S
C3173 C3174 1.349 . S
C3173 C3175 1.327 . S
C3173 H3196 0.950 1_455 S
C3174 C3173 1.349 . S
C3174 C3186 1.349 . S
C3175 C3173 1.327 . S
C3175 C3191 1.429 . S
C3175 H3197 0.950 1_455 S
C3176 H3172 0.949 . S
C3176 C3184 1.574 . S
C3176 C3192 1.368 . S
H3177 C3185 0.950 . S
H3178 C3183 0.986 . S
H3179 C3184 0.949 . S
H3180 C3186 0.950 1_554 S
H3181 C3187 0.950 . S
H3182 C3188 0.934 1_655 S
C3183 H3178 0.986 . S
C3183 C3185 1.330 . S
C3183 C3189 1.395 1_655 S
C3184 C3176 1.574 . S
C3184 H3179 0.949 . S
C3184 C3190 1.368 . S
C3185 C3169 1.349 1_655 S
C3185 H3177 0.950 . S
C3185 C3183 1.330 . S
C3186 C3174 1.349 . S
C3186 H3180 0.950 1_556 S
C3186 C3187 1.327 . S
C3187 H3181 0.950 . S
C3187 C3186 1.327 . S
C3187 C3191 1.429 . S
C3188 C3171 1.573 1_455 S
C3188 H3182 0.934 1_455 S
C3188 C3192 1.387 . S
C3189 C3170 1.429 . S
C3189 C3183 1.395 1_455 S
C3189 C3190 1.523 . S
C3190 C3171 1.365 1_455 S
C3190 C3184 1.368 . S
C3190 C3189 1.523 . S
C3191 C3175 1.429 . S
C3191 C3187 1.429 . S
C3191 C3192 1.523 . S
C3192 C3176 1.368 . S
C3192 C3188 1.387 . S
C3192 C3191 1.523 . S
H3193 C3168 0.950 . S
H3194 C3170 0.950 . S
H3195 C3171 0.952 . S
H3196 C3173 0.950 1_655 S
H3197 C3175 0.950 1_655 S
C3198 C3199 1.349 . S
C3198 C3200 1.327 . S
C3198 H3223 0.950 . S
C3199 C3198 1.349 . S
C3199 C3215 1.349 . S
C3200 C3198 1.327 . S
C3200 C3219 1.429 . S
C3200 H3224 0.950 . S
C3201 C3218 1.574 . S
C3201 C3220 1.368 . S
C3201 H3225 0.949 . S
H3202 C3206 0.949 . S
C3203 C3204 1.349 . S
C3203 C3205 1.327 . S
C3203 H3226 0.950 . S
C3204 C3203 1.349 . S
C3204 C3216 1.349 . S
C3205 C3203 1.327 . S
C3205 C3221 1.429 . S
C3205 H3227 0.950 . S
C3206 H3202 0.949 . S
C3206 C3214 1.574 . S
C3206 C3222 1.368 . S
H3207 C3215 0.950 . S
H3208 C3213 0.950 . S
H3209 C3214 0.949 . S
H3210 C3216 0.950 . S
H3211 C3217 0.950 . S
H3212 C3218 0.949 . S
C3213 H3208 0.950 . S
C3213 C3215 1.327 . S
C3213 C3219 1.429 . S
C3214 C3206 1.574 . S
C3214 H3209 0.949 . S
C3214 C3220 1.368 . S
C3215 C3199 1.349 . S
C3215 H3207 0.950 . S
C3215 C3213 1.327 . S
C3216 C3204 1.349 . S
C3216 H3210 0.950 . S
C3216 C3217 1.327 . S
C3217 H3211 0.950 . S
C3217 C3216 1.327 . S
C3217 C3221 1.429 . S
C3218 C3201 1.574 . S
C3218 H3212 0.949 . S
C3218 C3222 1.368 . S
C3219 C3200 1.429 . S
C3219 C3213 1.429 . S
C3219 C3220 1.523 . S
C3220 C3201 1.368 . S
C3220 C3214 1.368 . S
C3220 C3219 1.523 . S
C3221 C3205 1.429 . S
C3221 C3217 1.429 . S
C3221 C3222 1.523 . S
C3222 C3206 1.368 . S
C3222 C3218 1.368 . S
C3222 C3221 1.523 . S
H3223 C3198 0.950 . S
H3224 C3200 0.950 . S
H3225 C3201 0.949 . S
H3226 C3203 0.950 . S
H3227 C3205 0.950 . S
C3228 C3229 1.349 . S
C3228 C3230 1.327 . S
C3228 H3253 0.950 . S
C3229 C3228 1.349 . S
C3229 C3245 1.349 . S
C3230 C3228 1.327 . S
C3230 C3249 1.429 . S
C3230 H3254 0.950 . S
C3231 C3248 1.574 . S
C3231 C3250 1.368 . S
C3231 H3255 0.949 . S
H3232 C3236 0.949 . S
C3233 C3234 1.349 . S
C3233 C3235 1.327 . S
C3233 H3256 0.950 . S
C3234 C3233 1.349 . S
C3234 C3246 1.349 . S
C3235 C3233 1.327 . S
C3235 C3251 1.429 . S
C3235 H3257 0.950 . S
C3236 H3232 0.949 . S
C3236 C3244 1.574 . S
C3236 C3252 1.368 . S
H3237 C3245 0.950 . S
H3238 C3243 0.950 . S
H3239 C3244 0.949 . S
H3240 C3246 0.950 . S
H3241 C3247 0.950 . S
H3242 C3248 0.949 . S
C3243 H3238 0.950 . S
C3243 C3245 1.327 . S
C3243 C3249 1.429 . S
C3244 C3236 1.574 . S
C3244 H3239 0.949 . S
C3244 C3250 1.368 . S
C3245 C3229 1.349 . S
C3245 H3237 0.950 . S
C3245 C3243 1.327 . S
C3246 C3234 1.349 . S
C3246 H3240 0.950 . S
C3246 C3247 1.327 . S
C3247 H3241 0.950 . S
C3247 C3246 1.327 . S
C3247 C3251 1.429 . S
C3248 C3231 1.574 . S
C3248 H3242 0.949 . S
C3248 C3252 1.368 . S
C3249 C3230 1.429 . S
C3249 C3243 1.429 . S
C3249 C3250 1.523 . S
C3250 C3231 1.368 . S
C3250 C3244 1.368 . S
C3250 C3249 1.523 . S
C3251 C3235 1.429 . S
C3251 C3247 1.429 . S
C3251 C3252 1.523 . S
C3252 C3236 1.368 . S
C3252 C3248 1.368 . S
C3252 C3251 1.523 . S
H3253 C3228 0.950 . S
H3254 C3230 0.950 . S
H3255 C3231 0.949 . S
H3256 C3233 0.950 . S
H3257 C3235 0.950 . S
C3258 C3259 1.349 . S
C3258 C3260 1.327 . S
C3258 H3283 0.950 . S
C3259 C3258 1.349 . S
C3259 C3275 1.349 . S
C3260 C3258 1.327 . S
C3260 C3279 1.429 . S
C3260 H3284 0.950 . S
C3261 C3278 1.574 . S
C3261 C3280 1.368 . S
C3261 H3285 0.949 . S
H3262 C3266 0.949 . S
C3263 C3264 1.349 . S
C3263 C3265 1.327 . S
C3263 H3286 0.950 . S
C3264 C3263 1.349 . S
C3264 C3276 1.349 . S
C3265 C3263 1.327 . S
C3265 C3281 1.429 . S
C3265 H3287 0.950 . S
C3266 H3262 0.949 . S
C3266 C3274 1.574 . S
C3266 C3282 1.368 . S
H3267 C3275 0.950 . S
H3268 C3273 0.950 . S
H3269 C3274 0.949 . S
H3270 C3276 0.950 . S
H3271 C3277 0.950 . S
H3272 C3278 0.949 . S
C3273 H3268 0.950 . S
C3273 C3275 1.327 . S
C3273 C3279 1.429 . S
C3274 C3266 1.574 . S
C3274 H3269 0.949 . S
C3274 C3280 1.368 . S
C3275 C3259 1.349 . S
C3275 H3267 0.950 . S
C3275 C3273 1.327 . S
C3276 C3264 1.349 . S
C3276 H3270 0.950 . S
C3276 C3277 1.327 . S
C3277 H3271 0.950 . S
C3277 C3276 1.327 . S
C3277 C3281 1.429 . S
C3278 C3261 1.574 . S
C3278 H3272 0.949 . S
C3278 C3282 1.368 . S
C3279 C3260 1.429 . S
C3279 C3273 1.429 . S
C3279 C3280 1.523 . S
C3280 C3261 1.368 . S
C3280 C3274 1.368 . S
C3280 C3279 1.523 . S
C3281 C3265 1.429 . S
C3281 C3277 1.429 . S
C3281 C3282 1.523 . S
C3282 C3266 1.368 . S
C3282 C3278 1.368 . S
C3282 C3281 1.523 . S
H3283 C3258 0.950 . S
H3284 C3260 0.950 . S
H3285 C3261 0.949 . S
H3286 C3263 0.950 . S
H3287 C3265 0.950 . S
C3288 C3289 1.349 1_655 S
C3288 C3290 1.327 . S
C3288 H3313 0.950 . S
C3289 C3288 1.349 1_455 S
C3289 C3305 1.349 . S
C3290 C3288 1.327 . S
C3290 C3309 1.429 1_655 S
C3290 H3314 0.950 . S
C3291 C3308 1.574 . S
C3291 C3310 1.368 . S
C3291 H3315 0.949 . S
H3292 C3296 0.949 . S
C3293 C3294 1.349 . S
C3293 C3295 1.327 . S
C3293 H3316 0.950 . S
C3294 C3293 1.349 . S
C3294 C3306 1.349 . S
C3295 C3293 1.327 . S
C3295 C3311 1.429 . S
C3295 H3317 0.950 . S
C3296 H3292 0.949 . S
C3296 C3304 1.574 . S
C3296 C3312 1.368 1_655 S
H3297 C3305 0.950 . S
H3298 C3303 0.950 . S
H3299 C3304 0.949 . S
H3300 C3306 0.950 1_655 S
H3301 C3307 0.954 1_655 S
H3302 C3308 0.949 . S
C3303 H3298 0.950 . S
C3303 C3305 1.327 . S
C3303 C3309 1.429 . S
C3304 C3296 1.574 . S
C3304 H3299 0.949 . S
C3304 C3310 1.368 1_655 S
C3305 C3289 1.349 . S
C3305 H3297 0.950 . S
C3305 C3303 1.327 . S
C3306 C3294 1.349 . S
C3306 H3300 0.950 1_455 S
C3306 C3307 1.327 . S
C3307 H3301 0.954 1_455 S
C3307 C3306 1.327 . S
C3307 C3311 1.425 . S
C3308 C3291 1.574 . S
C3308 H3302 0.949 . S
C3308 C3312 1.368 . S
C3309 C3290 1.429 1_455 S
C3309 C3303 1.429 . S
C3309 C3310 1.523 . S
C3310 C3291 1.368 . S
C3310 C3304 1.368 1_455 S
C3310 C3309 1.523 . S
C3311 C3295 1.429 . S
C3311 C3307 1.425 . S
C3311 C3312 1.523 . S
C3312 C3296 1.368 1_455 S
C3312 C3308 1.368 . S
C3312 C3311 1.523 . S
H3313 C3288 0.950 . S
H3314 C3290 0.950 . S
H3315 C3291 0.949 . S
H3316 C3293 0.950 . S
H3317 C3295 0.950 . S
C3318 C3319 1.349 . S
C3318 C3320 1.327 . S
C3318 H3343 0.950 . S
C3319 C3318 1.349 . S
C3319 C3335 1.349 . S
C3320 C3318 1.327 . S
C3320 C3339 1.429 . S
C3320 H3344 0.950 . S
C3321 C3338 1.574 . S
C3321 C3340 1.368 . S
C3321 H3345 0.949 . S
H3322 C3326 0.949 . S
C3323 C3324 1.349 . S
C3323 C3325 1.327 . S
C3323 H3346 0.950 . S
C3324 C3323 1.349 . S
C3324 C3336 1.349 . S
C3325 C3323 1.327 . S
C3325 C3341 1.429 . S
C3325 H3347 0.950 . S
C3326 H3322 0.949 . S
C3326 C3334 1.574 . S
C3326 C3342 1.368 . S
H3327 C3335 0.950 . S
H3328 C3333 0.950 . S
H3329 C3334 0.949 . S
H3330 C3336 0.950 . S
H3331 C3337 0.950 . S
H3332 C3338 0.949 . S
C3333 H3328 0.950 . S
C3333 C3335 1.327 . S
C3333 C3339 1.429 . S
C3334 C3326 1.574 . S
C3334 H3329 0.949 . S
C3334 C3340 1.368 . S
C3335 C3319 1.349 . S
C3335 H3327 0.950 . S
C3335 C3333 1.327 . S
C3336 C3324 1.349 . S
C3336 H3330 0.950 . S
C3336 C3337 1.327 . S
C3337 H3331 0.950 . S
C3337 C3336 1.327 . S
C3337 C3341 1.429 . S
C3338 C3321 1.574 . S
C3338 H3332 0.949 . S
C3338 C3342 1.368 . S
C3339 C3320 1.429 . S
C3339 C3333 1.429 . S
C3339 C3340 1.523 . S
C3340 C3321 1.368 . S
C3340 C3334 1.368 . S
C3340 C3339 1.523 . S
C3341 C3325 1.429 . S
C3341 C3337 1.429 . S
C3341 C3342 1.523 . S
C3342 C3326 1.368 . S
C3342 C3338 1.368 . S
C3342 C3341 1.523 . S
H3343 C3318 0.950 . S
H3344 C3320 0.950 . S
H3345 C3321 0.949 . S
H3346 C3323 0.950 . S
H3347 C3325 0.950 . S
C3348 C3349 1.349 . S
C3348 C3350 1.327 . S
C3348 H3373 0.950 . S
C3349 C3348 1.349 . S
C3349 C3365 1.349 . S
C3350 C3348 1.327 . S
C3350 C3369 1.429 . S
C3350 H3374 0.950 . S
C3351 C3368 1.574 . S
C3351 C3370 1.368 . S
C3351 H3375 0.949 . S
H3352 C3356 0.949 . S
C3353 C3354 1.349 . S
C3353 C3355 1.327 . S
C3353 H3376 0.950 . S
C3354 C3353 1.349 . S
C3354 C3366 1.349 . S
C3355 C3353 1.327 . S
C3355 C3371 1.429 . S
C3355 H3377 0.950 . S
C3356 H3352 0.949 . S
C3356 C3364 1.574 . S
C3356 C3372 1.368 . S
H3357 C3365 0.950 . S
H3358 C3363 0.950 . S
H3359 C3364 0.949 . S
H3360 C3366 0.950 . S
H3361 C3367 0.950 . S
H3362 C3368 0.949 . S
C3363 H3358 0.950 . S
C3363 C3365 1.327 . S
C3363 C3369 1.429 . S
C3364 C3356 1.574 . S
C3364 H3359 0.949 . S
C3364 C3370 1.368 . S
C3365 C3349 1.349 . S
C3365 H3357 0.950 . S
C3365 C3363 1.327 . S
C3366 C3354 1.349 . S
C3366 H3360 0.950 . S
C3366 C3367 1.327 . S
C3367 H3361 0.950 . S
C3367 C3366 1.327 . S
C3367 C3371 1.429 . S
C3368 C3351 1.574 . S
C3368 H3362 0.949 . S
C3368 C3372 1.368 . S
C3369 C3350 1.429 . S
C3369 C3363 1.429 . S
C3369 C3370 1.523 . S
C3370 C3351 1.368 . S
C3370 C3364 1.368 . S
C3370 C3369 1.523 . S
C3371 C3355 1.429 . S
C3371 C3367 1.429 . S
C3371 C3372 1.523 . S
C3372 C3356 1.368 . S
C3372 C3368 1.368 . S
C3372 C3371 1.523 . S
H3373 C3348 0.950 . S
H3374 C3350 0.950 . S
H3375 C3351 0.949 . S
H3376 C3353 0.950 . S
H3377 C3355 0.950 . S
C3378 C3379 1.349 . S
C3378 C3380 1.327 . S
C3378 H3403 0.950 . S
C3379 C3378 1.349 . S
C3379 C3395 1.349 . S
C3380 C3378 1.327 . S
C3380 C3399 1.429 . S
C3380 H3404 0.950 . S
C3381 C3398 1.574 . S
C3381 C3400 1.368 . S
C3381 H3405 0.949 . S
H3382 C3386 0.949 . S
C3383 C3384 1.349 . S
C3383 C3385 1.327 . S
C3383 H3406 0.950 . S
C3384 C3383 1.349 . S
C3384 C3396 1.349 . S
C3385 C3383 1.327 . S
C3385 C3401 1.429 . S
C3385 H3407 0.950 . S
C3386 H3382 0.949 . S
C3386 C3394 1.574 . S
C3386 C3402 1.368 . S
H3387 C3395 0.950 . S
H3388 C3393 0.950 . S
H3389 C3394 0.949 . S
H3390 C3396 0.950 . S
H3391 C3397 0.950 . S
H3392 C3398 0.949 . S
C3393 H3388 0.950 . S
C3393 C3395 1.327 . S
C3393 C3399 1.429 . S
C3394 C3386 1.574 . S
C3394 H3389 0.949 . S
C3394 C3400 1.368 . S
C3395 C3379 1.349 . S
C3395 H3387 0.950 . S
C3395 C3393 1.327 . S
C3396 C3384 1.349 . S
C3396 H3390 0.950 . S
C3396 C3397 1.327 . S
C3397 H3391 0.950 . S
C3397 C3396 1.327 . S
C3397 C3401 1.429 . S
C3398 C3381 1.574 . S
C3398 H3392 0.949 . S
C3398 C3402 1.368 . S
C3399 C3380 1.429 . S
C3399 C3393 1.429 . S
C3399 C3400 1.523 . S
C3400 C3381 1.368 . S
C3400 C3394 1.368 . S
C3400 C3399 1.523 . S
C3401 C3385 1.429 . S
C3401 C3397 1.429 . S
C3401 C3402 1.523 . S
C3402 C3386 1.368 . S
C3402 C3398 1.368 . S
C3402 C3401 1.523 . S
H3403 C3378 0.950 . S
H3404 C3380 0.950 . S
H3405 C3381 0.949 . S
H3406 C3383 0.950 . S
H3407 C3385 0.950 . S
C3408 C3409 1.349 . S
C3408 C3410 1.327 . S
C3408 H3433 0.950 . S
C3409 C3408 1.349 . S
C3409 C3425 1.349 1_545 S
C3410 C3408 1.327 . S
C3410 C3429 1.429 . S
C3410 H3434 0.950 . S
C3411 C3428 1.574 . S
C3411 C3430 1.368 1_565 S
C3411 H3435 0.949 . S
H3412 C3416 0.949 . S
C3413 C3414 1.349 1_565 S
C3413 C3415 1.327 . S
C3413 H3436 0.950 . S
C3414 C3413 1.349 1_545 S
C3414 C3426 1.349 . S
C3415 C3413 1.327 . S
C3415 C3431 1.429 1_565 S
C3415 H3437 0.950 . S
C3416 H3412 0.949 . S
C3416 C3424 1.574 . S
C3416 C3432 1.368 . S
H3417 C3425 0.950 . S
H3418 C3423 0.950 . S
H3419 C3424 0.949 . S
H3420 C3426 0.950 . S
H3421 C3427 0.950 . S
H3422 C3428 0.949 . S
C3423 H3418 0.950 . S
C3423 C3425 1.327 . S
C3423 C3429 1.429 1_565 S
C3424 C3416 1.574 . S
C3424 H3419 0.949 . S
C3424 C3430 1.368 . S
C3425 C3409 1.349 1_565 S
C3425 H3417 0.950 . S
C3425 C3423 1.327 . S
C3426 C3414 1.349 . S
C3426 H3420 0.950 . S
C3426 C3427 1.327 . S
C3427 H3421 0.950 . S
C3427 C3426 1.327 . S
C3427 C3431 1.429 . S
C3428 C3411 1.574 . S
C3428 H3422 0.949 . S
C3428 C3432 1.368 1_565 S
C3429 C3410 1.429 . S
C3429 C3423 1.429 1_545 S
C3429 C3430 1.523 . S
C3430 C3411 1.368 1_545 S
C3430 C3424 1.368 . S
C3430 C3429 1.523 . S
C3431 C3415 1.429 1_545 S
C3431 C3427 1.429 . S
C3431 C3432 1.523 . S
C3432 C3416 1.368 . S
C3432 C3428 1.368 1_545 S
C3432 C3431 1.523 . S
H3433 C3408 0.950 . S
H3434 C3410 0.950 . S
H3435 C3411 0.949 . S
H3436 C3413 0.950 . S
H3437 C3415 0.950 . S
C3438 C3439 1.349 . S
C3438 C3440 1.327 . S
C3438 H3463 0.950 . S
C3439 C3438 1.349 . S
C3439 C3455 1.349 . S
C3440 C3438 1.327 . S
C3440 C3459 1.429 . S
C3440 H3464 0.950 . S
C3441 C3458 1.574 . S
C3441 C3460 1.368 . S
C3441 H3465 0.949 . S
H3442 C3446 0.949 . S
C3443 C3444 1.349 . S
C3443 C3445 1.327 . S
C3443 H3466 0.950 . S
C3444 C3443 1.349 . S
C3444 C3456 1.349 . S
C3445 C3443 1.327 . S
C3445 C3461 1.429 . S
C3445 H3467 0.950 . S
C3446 H3442 0.949 . S
C3446 C3454 1.574 . S
C3446 C3462 1.368 . S
H3447 C3455 0.950 . S
H3448 C3453 0.950 . S
H3449 C3454 0.949 . S
H3450 C3456 0.950 . S
H3451 C3457 0.950 . S
H3452 C3458 0.949 . S
C3453 H3448 0.950 . S
C3453 C3455 1.327 . S
C3453 C3459 1.429 . S
C3454 C3446 1.574 . S
C3454 H3449 0.949 . S
C3454 C3460 1.368 . S
C3455 C3439 1.349 . S
C3455 H3447 0.950 . S
C3455 C3453 1.327 . S
C3456 C3444 1.349 . S
C3456 H3450 0.950 . S
C3456 C3457 1.327 . S
C3457 H3451 0.950 . S
C3457 C3456 1.327 . S
C3457 C3461 1.429 . S
C3458 C3441 1.574 . S
C3458 H3452 0.949 . S
C3458 C3462 1.368 . S
C3459 C3440 1.429 . S
C3459 C3453 1.429 . S
C3459 C3460 1.523 . S
C3460 C3441 1.368 . S
C3460 C3454 1.368 . S
C3460 C3459 1.523 . S
C3461 C3445 1.429 . S
C3461 C3457 1.429 . S
C3461 C3462 1.523 . S
C3462 C3446 1.368 . S
C3462 C3458 1.368 . S
C3462 C3461 1.523 . S
H3463 C3438 0.950 . S
H3464 C3440 0.950 . S
H3465 C3441 0.949 . S
H3466 C3443 0.950 . S
H3467 C3445 0.950 . S
C3468 C3469 1.349 1_565 S
C3468 C3470 1.327 . S
C3468 H3493 0.950 . S
C3469 C3468 1.349 1_545 S
C3469 C3485 1.349 . S
C3470 C3468 1.327 . S
C3470 C3489 1.429 1_565 S
C3470 H3494 0.950 . S
C3471 C3488 1.574 . S
C3471 C3490 1.368 . S
C3471 H3495 0.949 . S
H3472 C3476 0.949 . S
C3473 C3474 1.349 . S
C3473 C3475 1.327 . S
C3473 H3496 0.950 . S
C3474 C3473 1.349 . S
C3474 C3486 1.349 1_545 S
C3475 C3473 1.327 . S
C3475 C3491 1.429 . S
C3475 H3497 0.950 . S
C3476 H3472 0.949 . S
C3476 C3484 1.574 . S
C3476 C3492 1.368 1_565 S
H3477 C3485 0.950 . S
H3478 C3483 0.950 . S
H3479 C3484 0.949 . S
H3480 C3486 0.950 . S
H3481 C3487 0.950 . S
H3482 C3488 0.949 . S
C3483 H3478 0.950 . S
C3483 C3485 1.327 . S
C3483 C3489 1.429 . S
C3484 C3476 1.574 . S
C3484 H3479 0.949 . S
C3484 C3490 1.368 1_565 S
C3485 C3469 1.349 . S
C3485 H3477 0.950 . S
C3485 C3483 1.327 . S
C3486 C3474 1.349 1_565 S
C3486 H3480 0.950 . S
C3486 C3487 1.327 . S
C3487 H3481 0.950 . S
C3487 C3486 1.327 . S
C3487 C3491 1.429 1_565 S
C3488 C3471 1.574 . S
C3488 H3482 0.949 . S
C3488 C3492 1.368 . S
C3489 C3470 1.429 1_545 S
C3489 C3483 1.429 . S
C3489 C3490 1.523 . S
C3490 C3471 1.368 . S
C3490 C3484 1.368 1_545 S
C3490 C3489 1.523 . S
C3491 C3475 1.429 . S
C3491 C3487 1.429 1_545 S
C3491 C3492 1.523 . S
C3492 C3476 1.368 1_545 S
C3492 C3488 1.368 . S
C3492 C3491 1.523 . S
H3493 C3468 0.950 . S
H3494 C3470 0.950 . S
H3495 C3471 0.949 . S
H3496 C3473 0.950 . S
H3497 C3475 0.950 . S
C3498 C3499 1.349 . S
C3498 C3500 1.327 . S
C3498 H3523 0.950 . S
C3499 C3498 1.349 . S
C3499 C3515 1.349 . S
C3500 C3498 1.327 . S
C3500 C3519 1.429 . S
C3500 H3524 0.950 . S
C3501 C3518 1.574 . S
C3501 C3520 1.368 . S
C3501 H3525 0.949 . S
H3502 C3506 0.949 . S
C3503 C3504 1.349 . S
C3503 C3505 1.327 . S
C3503 H3526 0.950 . S
C3504 C3503 1.349 . S
C3504 C3516 1.349 . S
C3505 C3503 1.327 . S
C3505 C3521 1.429 . S
C3505 H3527 0.950 . S
C3506 H3502 0.949 . S
C3506 C3514 1.574 . S
C3506 C3522 1.368 . S
H3507 C3515 0.950 . S
H3508 C3513 0.950 . S
H3509 C3514 0.949 . S
H3510 C3516 0.950 . S
H3511 C3517 0.950 . S
H3512 C3518 0.949 . S
C3513 H3508 0.950 . S
C3513 C3515 1.327 . S
C3513 C3519 1.429 . S
C3514 C3506 1.574 . S
C3514 H3509 0.949 . S
C3514 C3520 1.368 . S
C3515 C3499 1.349 . S
C3515 H3507 0.950 . S
C3515 C3513 1.327 . S
C3516 C3504 1.349 . S
C3516 H3510 0.950 . S
C3516 C3517 1.327 . S
C3517 H3511 0.950 . S
C3517 C3516 1.327 . S
C3517 C3521 1.429 . S
C3518 C3501 1.574 . S
C3518 H3512 0.949 . S
C3518 C3522 1.368 . S
C3519 C3500 1.429 . S
C3519 C3513 1.429 . S
C3519 C3520 1.523 . S
C3520 C3501 1.368 . S
C3520 C3514 1.368 . S
C3520 C3519 1.523 . S
C3521 C3505 1.429 . S
C3521 C3517 1.429 . S
C3521 C3522 1.523 . S
C3522 C3506 1.368 . S
C3522 C3518 1.368 . S
C3522 C3521 1.523 . S
H3523 C3498 0.950 . S
H3524 C3500 0.950 . S
H3525 C3501 0.949 . S
H3526 C3503 0.950 . S
H3527 C3505 0.950 . S
C3528 C3529 1.349 . S
C3528 C3530 1.327 . S
C3528 H3553 0.950 . S
C3529 C3528 1.349 . S
C3529 C3545 1.349 1_545 S
C3530 C3528 1.327 . S
C3530 C3549 1.431 1_545 S
C3530 H3554 0.950 . S
C3531 C3548 1.574 . S
C3531 C3550 1.395 . S
C3531 H3555 0.949 . S
H3532 C3536 0.949 . S
C3533 C3534 1.349 . S
C3533 C3535 1.327 . S
C3533 H3556 0.950 . S
C3534 C3533 1.349 . S
C3534 C3546 1.349 1_565 S
C3535 C3533 1.327 . S
C3535 C3551 1.429 . S
C3535 H3557 0.950 . S
C3536 H3532 0.949 . S
C3536 C3544 1.574 . S
C3536 C3552 1.368 1_545 S
H3537 C3545 0.950 . S
H3538 C3543 0.950 . S
H3539 C3544 0.949 . S
H3540 C3546 0.950 1_455 S
H3541 C3547 0.950 . S
H3542 C3548 0.949 . S
C3543 H3538 0.950 . S
C3543 C3545 1.327 . S
C3543 C3549 1.427 . S
C3544 C3536 1.574 . S
C3544 H3539 0.949 . S
C3544 C3550 1.345 1_545 S
C3545 C3529 1.349 1_565 S
C3545 H3537 0.950 . S
C3545 C3543 1.327 . S
C3546 C3534 1.349 1_545 S
C3546 H3540 0.950 1_655 S
C3546 C3547 1.327 . S
C3547 H3541 0.950 . S
C3547 C3546 1.327 . S
C3547 C3551 1.429 1_545 S
C3548 C3531 1.574 . S
C3548 H3542 0.949 . S
C3548 C3552 1.368 . S
C3549 C3530 1.431 1_565 S
C3549 C3543 1.427 . S
C3549 C3550 1.522 . S
C3550 C3531 1.395 . S
C3550 C3544 1.345 1_565 S
C3550 C3549 1.522 . S
C3551 C3535 1.429 . S
C3551 C3547 1.429 1_565 S
C3551 C3552 1.523 . S
C3552 C3536 1.368 1_565 S
C3552 C3548 1.368 . S
C3552 C3551 1.523 . S
H3553 C3528 0.950 . S
H3554 C3530 0.950 . S
H3555 C3531 0.949 . S
H3556 C3533 0.950 . S
H3557 C3535 0.950 . S
C3558 C3559 1.349 . S
C3558 C3560 1.327 . S
C3558 H3583 0.950 . S
C3559 C3558 1.349 . S
C3559 C3575 1.349 . S
C3560 C3558 1.327 . S
C3560 C3579 1.429 . S
C3560 H3584 0.950 . S
C3561 C3578 1.574 . S
C3561 C3580 1.368 . S
C3561 H3585 0.949 . S
H3562 C3566 0.949 . S
C3563 C3564 1.349 . S
C3563 C3565 1.327 . S
C3563 H3586 0.950 . S
C3564 C3563 1.349 . S
C3564 C3576 1.349 . S
C3565 C3563 1.327 . S
C3565 C3581 1.429 . S
C3565 H3587 0.950 . S
C3566 H3562 0.949 . S
C3566 C3574 1.574 . S
C3566 C3582 1.368 . S
H3567 C3575 0.950 . S
H3568 C3573 0.950 . S
H3569 C3574 0.949 . S
H3570 C3576 0.950 . S
H3571 C3577 0.950 . S
H3572 C3578 0.949 . S
C3573 H3568 0.950 . S
C3573 C3575 1.327 . S
C3573 C3579 1.429 . S
C3574 C3566 1.574 . S
C3574 H3569 0.949 . S
C3574 C3580 1.368 . S
C3575 C3559 1.349 . S
C3575 H3567 0.950 . S
C3575 C3573 1.327 . S
C3576 C3564 1.349 . S
C3576 H3570 0.950 . S
C3576 C3577 1.327 . S
C3577 H3571 0.950 . S
C3577 C3576 1.327 . S
C3577 C3581 1.429 . S
C3578 C3561 1.574 . S
C3578 H3572 0.949 . S
C3578 C3582 1.368 . S
C3579 C3560 1.429 . S
C3579 C3573 1.429 . S
C3579 C3580 1.523 . S
C3580 C3561 1.368 . S
C3580 C3574 1.368 . S
C3580 C3579 1.523 . S
C3581 C3565 1.429 . S
C3581 C3577 1.429 . S
C3581 C3582 1.523 . S
C3582 C3566 1.368 . S
C3582 C3578 1.368 . S
C3582 C3581 1.523 . S
H3583 C3558 0.950 . S
H3584 C3560 0.950 . S
H3585 C3561 0.949 . S
H3586 C3563 0.950 . S
H3587 C3565 0.950 . S
C3588 C3589 1.349 . S
C3588 C3590 1.327 . S
C3588 H3613 0.950 . S
C3589 C3588 1.349 . S
C3589 C3605 1.349 1_545 S
C3590 C3588 1.327 . S
C3590 C3609 1.429 . S
C3590 H3614 0.950 . S
C3591 C3608 1.574 . S
C3591 C3610 1.368 1_565 S
C3591 H3615 0.949 . S
H3592 C3596 0.949 . S
C3593 C3594 1.349 . S
C3593 C3595 1.328 1_545 S
C3593 H3616 0.950 1_545 S
C3594 C3593 1.349 . S
C3594 C3606 1.349 . S
C3595 C3593 1.328 1_565 S
C3595 C3611 1.432 1_565 S
C3595 H3617 0.945 . S
C3596 H3592 0.949 . S
C3596 C3604 1.574 . S
C3596 C3612 1.368 . S
H3597 C3605 0.950 . S
H3598 C3603 0.950 . S
H3599 C3604 0.949 . S
H3600 C3606 0.950 . S
H3601 C3607 0.950 . S
H3602 C3608 0.949 . S
C3603 H3598 0.950 . S
C3603 C3605 1.327 . S
C3603 C3609 1.429 1_565 S
C3604 C3596 1.574 . S
C3604 H3599 0.949 . S
C3604 C3610 1.368 . S
C3605 C3589 1.349 1_565 S
C3605 H3597 0.950 . S
C3605 C3603 1.327 . S
C3606 C3594 1.349 . S
C3606 H3600 0.950 . S
C3606 C3607 1.327 . S
C3607 H3601 0.950 . S
C3607 C3606 1.327 . S
C3607 C3611 1.429 . S
C3608 C3591 1.574 . S
C3608 H3602 0.949 . S
C3608 C3612 1.368 1_565 S
C3609 C3590 1.429 . S
C3609 C3603 1.429 1_545 S
C3609 C3610 1.523 . S
C3610 C3591 1.368 1_545 S
C3610 C3604 1.368 . S
C3610 C3609 1.523 . S
C3611 C3595 1.432 1_545 S
C3611 C3607 1.429 . S
C3611 C3612 1.523 . S
C3612 C3596 1.368 . S
C3612 C3608 1.368 1_545 S
C3612 C3611 1.523 . S
H3613 C3588 0.950 . S
H3614 C3590 0.950 . S
H3615 C3591 0.949 . S
H3616 C3593 0.950 1_565 S
H3617 C3595 0.945 . S
C3618 C3619 1.349 . S
C3618 C3620 1.327 . S
C3618 H3643 0.950 . S
C3619 C3618 1.349 . S
C3619 C3635 1.349 . S
C3620 C3618 1.327 . S
C3620 C3639 1.429 . S
C3620 H3644 0.950 . S
C3621 C3638 1.574 . S
C3621 C3640 1.368 . S
C3621 H3645 0.949 . S
H3622 C3626 0.949 . S
C3623 C3624 1.349 . S
C3623 C3625 1.327 . S
C3623 H3646 0.950 . S
C3624 C3623 1.349 . S
C3624 C3636 1.349 . S
C3625 C3623 1.327 . S
C3625 C3641 1.429 . S
C3625 H3647 0.950 . S
C3626 H3622 0.949 . S
C3626 C3634 1.574 . S
C3626 C3642 1.368 . S
H3627 C3635 0.950 . S
H3628 C3633 0.950 . S
H3629 C3634 0.949 . S
H3630 C3636 0.950 . S
H3631 C3637 0.950 . S
H3632 C3638 0.949 . S
C3633 H3628 0.950 . S
C3633 C3635 1.327 . S
C3633 C3639 1.429 . S
C3634 C3626 1.574 . S
C3634 H3629 0.949 . S
C3634 C3640 1.368 . S
C3635 C3619 1.349 . S
C3635 H3627 0.950 . S
C3635 C3633 1.327 . S
C3636 C3624 1.349 . S
C3636 H3630 0.950 . S
C3636 C3637 1.327 . S
C3637 H3631 0.950 . S
C3637 C3636 1.327 . S
C3637 C3641 1.429 . S
C3638 C3621 1.574 . S
C3638 H3632 0.949 . S
C3638 C3642 1.368 . S
C3639 C3620 1.429 . S
C3639 C3633 1.429 . S
C3639 C3640 1.523 . S
C3640 C3621 1.368 . S
C3640 C3634 1.368 . S
C3640 C3639 1.523 . S
C3641 C3625 1.429 . S
C3641 C3637 1.429 . S
C3641 C3642 1.523 . S
C3642 C3626 1.368 . S
C3642 C3638 1.368 . S
C3642 C3641 1.523 . S
H3643 C3618 0.950 . S
H3644 C3620 0.950 . S
H3645 C3621 0.949 . S
H3646 C3623 0.950 . S
H3647 C3625 0.950 . S
C3648 C3649 1.349 . S
C3648 C3650 1.327 . S
C3648 H3673 0.950 . S
C3649 C3648 1.349 . S
C3649 C3665 1.349 1_554 S
C3650 C3648 1.327 . S
C3650 C3669 1.429 . S
C3650 H3674 0.950 . S
C3651 C3668 1.574 . S
C3651 C3670 1.368 1_556 S
C3651 H3675 0.949 . S
H3652 C3656 0.949 . S
C3653 C3654 1.371 . S
C3653 C3655 1.326 1_554 S
C3653 H3676 0.929 1_554 S
C3654 C3653 1.371 . S
C3654 C3666 1.349 . S
C3655 C3653 1.326 1_556 S
C3655 C3671 1.416 1_556 S
C3655 H3677 0.963 . S
C3656 H3652 0.949 . S
C3656 C3664 1.574 . S
C3656 C3672 1.368 . S
H3657 C3665 0.950 . S
H3658 C3663 0.950 . S
H3659 C3664 0.949 . S
H3660 C3666 0.950 . S
H3661 C3667 0.950 . S
H3662 C3668 0.949 . S
C3663 H3658 0.950 . S
C3663 C3665 1.327 . S
C3663 C3669 1.429 1_556 S
C3664 C3656 1.574 . S
C3664 H3659 0.949 . S
C3664 C3670 1.368 . S
C3665 C3649 1.349 1_556 S
C3665 H3657 0.950 . S
C3665 C3663 1.327 . S
C3666 C3654 1.349 . S
C3666 H3660 0.950 . S
C3666 C3667 1.327 . S
C3667 H3661 0.950 . S
C3667 C3666 1.327 . S
C3667 C3671 1.429 . S
C3668 C3651 1.574 . S
C3668 H3662 0.949 . S
C3668 C3672 1.368 1_556 S
C3669 C3650 1.429 . S
C3669 C3663 1.429 1_554 S
C3669 C3670 1.523 . S
C3670 C3651 1.368 1_554 S
C3670 C3664 1.368 . S
C3670 C3669 1.523 . S
C3671 C3655 1.416 1_554 S
C3671 C3667 1.429 . S
C3671 C3672 1.523 . S
C3672 C3656 1.368 . S
C3672 C3668 1.368 1_554 S
C3672 C3671 1.523 . S
H3673 C3648 0.950 . S
H3674 C3650 0.950 . S
H3675 C3651 0.949 . S
H3676 C3653 0.929 1_556 S
H3677 C3655 0.963 . S
C3678 C3679 1.349 . S
C3678 C3680 1.327 . S
C3678 H3703 0.950 . S
C3679 C3678 1.349 . S
C3679 C3695 1.349 1_554 S
C3680 C3678 1.327 . S
C3680 C3699 1.444 . S
C3680 H3704 0.950 . S
C3681 C3698 1.574 . S
C3681 C3700 1.363 . S
C3681 H3705 0.949 . S
H3682 C3686 0.949 . S
C3683 C3684 1.349 . S
C3683 C3685 1.327 . S
C3683 H3706 0.950 . S
C3684 C3683 1.349 . S
C3684 C3696 1.349 1_556 S
C3685 C3683 1.327 . S
C3685 C3701 1.429 . S
C3685 H3707 0.950 . S
C3686 H3682 0.949 . S
C3686 C3694 1.574 . S
C3686 C3702 1.331 1_554 S
H3687 C3695 0.950 . S
H3688 C3693 0.950 . S
H3689 C3694 0.949 . S
H3690 C3696 0.950 . S
H3691 C3697 0.950 . S
H3692 C3698 0.949 . S
C3693 H3688 0.950 . S
C3693 C3695 1.327 . S
C3693 C3699 1.413 1_556 S
C3694 C3686 1.574 . S
C3694 H3689 0.949 . S
C3694 C3700 1.373 1_554 S
C3695 C3679 1.349 1_556 S
C3695 H3687 0.950 . S
C3695 C3693 1.327 . S
C3696 C3684 1.349 1_554 S
C3696 H3690 0.950 . S
C3696 C3697 1.327 . S
C3697 H3691 0.950 . S
C3697 C3696 1.327 . S
C3697 C3701 1.429 1_554 S
C3698 C3681 1.574 . S
C3698 H3692 0.949 . S
C3698 C3702 1.406 . S
C3699 C3680 1.444 . S
C3699 C3693 1.413 1_554 S
C3699 C3700 1.523 1_554 S
C3700 C3681 1.363 . S
C3700 C3694 1.373 1_556 S
C3700 C3699 1.523 1_556 S
C3701 C3685 1.429 . S
C3701 C3697 1.429 1_556 S
C3701 C3702 1.525 . S
C3702 C3686 1.331 1_556 S
C3702 C3698 1.406 . S
C3702 C3701 1.525 . S
H3703 C3678 0.950 . S
H3704 C3680 0.950 . S
H3705 C3681 0.949 . S
H3706 C3683 0.950 . S
H3707 C3685 0.950 . S
C3708 C3709 1.349 . S
C3708 C3710 1.327 . S
C3708 H3733 0.950 . S
C3709 C3708 1.349 . S
C3709 C3725 1.349 . S
C3710 C3708 1.327 . S
C3710 C3729 1.429 . S
C3710 H3734 0.950 . S
C3711 C3728 1.574 . S
C3711 C3730 1.368 . S
C3711 H3735 0.949 . S
H3712 C3716 0.949 . S
C3713 C3714 1.349 . S
C3713 C3715 1.327 . S
C3713 H3736 0.950 . S
C3714 C3713 1.349 . S
C3714 C3726 1.349 . S
C3715 C3713 1.327 . S
C3715 C3731 1.429 . S
C3715 H3737 0.950 . S
C3716 H3712 0.949 . S
C3716 C3724 1.574 . S
C3716 C3732 1.368 . S
H3717 C3725 0.950 . S
H3718 C3723 0.950 . S
H3719 C3724 0.949 . S
H3720 C3726 0.950 . S
H3721 C3727 0.950 . S
H3722 C3728 0.949 . S
C3723 H3718 0.950 . S
C3723 C3725 1.327 . S
C3723 C3729 1.429 . S
C3724 C3716 1.574 . S
C3724 H3719 0.949 . S
C3724 C3730 1.368 . S
C3725 C3709 1.349 . S
C3725 H3717 0.950 . S
C3725 C3723 1.327 . S
C3726 C3714 1.349 . S
C3726 H3720 0.950 . S
C3726 C3727 1.327 . S
C3727 H3721 0.950 . S
C3727 C3726 1.327 . S
C3727 C3731 1.429 . S
C3728 C3711 1.574 . S
C3728 H3722 0.949 . S
C3728 C3732 1.368 . S
C3729 C3710 1.429 . S
C3729 C3723 1.429 . S
C3729 C3730 1.523 . S
C3730 C3711 1.368 . S
C3730 C3724 1.368 . S
C3730 C3729 1.523 . S
C3731 C3715 1.429 . S
C3731 C3727 1.429 . S
C3731 C3732 1.523 . S
C3732 C3716 1.368 . S
C3732 C3728 1.368 . S
C3732 C3731 1.523 . S
H3733 C3708 0.950 . S
H3734 C3710 0.950 . S
H3735 C3711 0.949 . S
H3736 C3713 0.950 . S
H3737 C3715 0.950 . S
C3738 C3739 1.349 . S
C3738 C3740 1.327 . S
C3738 H3763 0.950 . S
C3739 C3738 1.349 . S
C3739 C3755 1.349 . S
C3740 C3738 1.327 . S
C3740 C3759 1.429 . S
C3740 H3764 0.950 . S
C3741 C3758 1.574 . S
C3741 C3760 1.368 . S
C3741 H3765 0.949 . S
H3742 C3746 0.949 . S
C3743 C3744 1.349 . S
C3743 C3745 1.327 . S
C3743 H3766 0.950 . S
C3744 C3743 1.349 . S
C3744 C3756 1.349 . S
C3745 C3743 1.327 . S
C3745 C3761 1.429 . S
C3745 H3767 0.950 . S
C3746 H3742 0.949 . S
C3746 C3754 1.574 . S
C3746 C3762 1.368 . S
H3747 C3755 0.950 . S
H3748 C3753 0.950 . S
H3749 C3754 0.949 . S
H3750 C3756 0.950 . S
H3751 C3757 0.950 . S
H3752 C3758 0.949 . S
C3753 H3748 0.950 . S
C3753 C3755 1.327 . S
C3753 C3759 1.429 . S
C3754 C3746 1.574 . S
C3754 H3749 0.949 . S
C3754 C3760 1.368 . S
C3755 C3739 1.349 . S
C3755 H3747 0.950 . S
C3755 C3753 1.327 . S
C3756 C3744 1.349 . S
C3756 H3750 0.950 . S
C3756 C3757 1.327 . S
C3757 H3751 0.950 . S
C3757 C3756 1.327 . S
C3757 C3761 1.429 . S
C3758 C3741 1.574 . S
C3758 H3752 0.949 . S
C3758 C3762 1.368 . S
C3759 C3740 1.429 . S
C3759 C3753 1.429 . S
C3759 C3760 1.523 . S
C3760 C3741 1.368 . S
C3760 C3754 1.368 . S
C3760 C3759 1.523 . S
C3761 C3745 1.429 . S
C3761 C3757 1.429 . S
C3761 C3762 1.523 . S
C3762 C3746 1.368 . S
C3762 C3758 1.368 . S
C3762 C3761 1.523 . S
H3763 C3738 0.950 . S
H3764 C3740 0.950 . S
H3765 C3741 0.949 . S
H3766 C3743 0.950 . S
H3767 C3745 0.950 . S
C3768 C3769 1.349 . S
C3768 C3770 1.327 . S
C3768 H3793 0.950 . S
C3769 C3768 1.349 . S
C3769 C3785 1.349 . S
C3770 C3768 1.327 . S
C3770 C3789 1.429 . S
C3770 H3794 0.950 . S
C3771 C3788 1.574 . S
C3771 C3790 1.368 . S
C3771 H3795 0.949 . S
H3772 C3776 0.949 . S
C3773 C3774 1.349 . S
C3773 C3775 1.327 . S
C3773 H3796 0.950 . S
C3774 C3773 1.349 . S
C3774 C3786 1.349 . S
C3775 C3773 1.327 . S
C3775 C3791 1.429 . S
C3775 H3797 0.950 . S
C3776 H3772 0.949 . S
C3776 C3784 1.574 . S
C3776 C3792 1.368 . S
H3777 C3785 0.950 . S
H3778 C3783 0.950 . S
H3779 C3784 0.949 . S
H3780 C3786 0.950 . S
H3781 C3787 0.950 . S
H3782 C3788 0.949 . S
C3783 H3778 0.950 . S
C3783 C3785 1.327 . S
C3783 C3789 1.429 . S
C3784 C3776 1.574 . S
C3784 H3779 0.949 . S
C3784 C3790 1.368 . S
C3785 C3769 1.349 . S
C3785 H3777 0.950 . S
C3785 C3783 1.327 . S
C3786 C3774 1.349 . S
C3786 H3780 0.950 . S
C3786 C3787 1.327 . S
C3787 H3781 0.950 . S
C3787 C3786 1.327 . S
C3787 C3791 1.429 . S
C3788 C3771 1.574 . S
C3788 H3782 0.949 . S
C3788 C3792 1.368 . S
C3789 C3770 1.429 . S
C3789 C3783 1.429 . S
C3789 C3790 1.523 . S
C3790 C3771 1.368 . S
C3790 C3784 1.368 . S
C3790 C3789 1.523 . S
C3791 C3775 1.429 . S
C3791 C3787 1.429 . S
C3791 C3792 1.523 . S
C3792 C3776 1.368 . S
C3792 C3788 1.368 . S
C3792 C3791 1.523 . S
H3793 C3768 0.950 . S
H3794 C3770 0.950 . S
H3795 C3771 0.949 . S
H3796 C3773 0.950 . S
H3797 C3775 0.950 . S
C3798 C3799 1.349 . S
C3798 C3800 1.327 . S
C3798 H3823 0.950 . S
C3799 C3798 1.349 . S
C3799 C3815 1.349 . S
C3800 C3798 1.327 . S
C3800 C3819 1.429 . S
C3800 H3824 0.950 . S
C3801 C3818 1.574 . S
C3801 C3820 1.368 . S
C3801 H3825 0.949 . S
H3802 C3806 0.949 . S
C3803 C3804 1.349 . S
C3803 C3805 1.327 . S
C3803 H3826 0.950 . S
C3804 C3803 1.349 . S
C3804 C3816 1.349 . S
C3805 C3803 1.327 . S
C3805 C3821 1.429 . S
C3805 H3827 0.950 . S
C3806 H3802 0.949 . S
C3806 C3814 1.574 . S
C3806 C3822 1.368 . S
H3807 C3815 0.950 . S
H3808 C3813 0.950 . S
H3809 C3814 0.949 . S
H3810 C3816 0.950 . S
H3811 C3817 0.950 . S
H3812 C3818 0.949 . S
C3813 H3808 0.950 . S
C3813 C3815 1.327 . S
C3813 C3819 1.429 . S
C3814 C3806 1.574 . S
C3814 H3809 0.949 . S
C3814 C3820 1.368 . S
C3815 C3799 1.349 . S
C3815 H3807 0.950 . S
C3815 C3813 1.327 . S
C3816 C3804 1.349 . S
C3816 H3810 0.950 . S
C3816 C3817 1.327 . S
C3817 H3811 0.950 . S
C3817 C3816 1.327 . S
C3817 C3821 1.429 . S
C3818 C3801 1.574 . S
C3818 H3812 0.949 . S
C3818 C3822 1.368 . S
C3819 C3800 1.429 . S
C3819 C3813 1.429 . S
C3819 C3820 1.523 . S
C3820 C3801 1.368 . S
C3820 C3814 1.368 . S
C3820 C3819 1.523 . S
C3821 C3805 1.429 . S
C3821 C3817 1.429 . S
C3821 C3822 1.523 . S
C3822 C3806 1.368 . S
C3822 C3818 1.368 . S
C3822 C3821 1.523 . S
H3823 C3798 0.950 . S
H3824 C3800 0.950 . S
H3825 C3801 0.949 . S
H3826 C3803 0.950 . S
H3827 C3805 0.950 . S
C3828 C3829 1.349 . S
C3828 C3830 1.327 . S
C3828 H3853 0.950 . S
C3829 C3828 1.349 . S
C3829 C3845 1.349 . S
C3830 C3828 1.327 . S
C3830 C3849 1.429 . S
C3830 H3854 0.950 . S
C3831 C3848 1.574 . S
C3831 C3850 1.368 . S
C3831 H3855 0.949 . S
H3832 C3836 0.949 . S
C3833 C3834 1.349 . S
C3833 C3835 1.327 . S
C3833 H3856 0.950 . S
C3834 C3833 1.349 . S
C3834 C3846 1.349 . S
C3835 C3833 1.327 . S
C3835 C3851 1.429 . S
C3835 H3857 0.950 . S
C3836 H3832 0.949 . S
C3836 C3844 1.574 . S
C3836 C3852 1.368 . S
H3837 C3845 0.950 . S
H3838 C3843 0.950 . S
H3839 C3844 0.949 . S
H3840 C3846 0.950 . S
H3841 C3847 0.950 . S
H3842 C3848 0.949 . S
C3843 H3838 0.950 . S
C3843 C3845 1.327 . S
C3843 C3849 1.429 . S
C3844 C3836 1.574 . S
C3844 H3839 0.949 . S
C3844 C3850 1.368 . S
C3845 C3829 1.349 . S
C3845 H3837 0.950 . S
C3845 C3843 1.327 . S
C3846 C3834 1.349 . S
C3846 H3840 0.950 . S
C3846 C3847 1.327 . S
C3847 H3841 0.950 . S
C3847 C3846 1.327 . S
C3847 C3851 1.429 . S
C3848 C3831 1.574 . S
C3848 H3842 0.949 . S
C3848 C3852 1.368 . S
C3849 C3830 1.429 . S
C3849 C3843 1.429 . S
C3849 C3850 1.523 . S
C3850 C3831 1.368 . S
C3850 C3844 1.368 . S
C3850 C3849 1.523 . S
C3851 C3835 1.429 . S
C3851 C3847 1.429 . S
C3851 C3852 1.523 . S
C3852 C3836 1.368 . S
C3852 C3848 1.368 . S
C3852 C3851 1.523 . S
H3853 C3828 0.950 . S
H3854 C3830 0.950 . S
H3855 C3831 0.949 . S
H3856 C3833 0.950 . S
H3857 C3835 0.950 . S
C3858 C3859 1.349 . S
C3858 C3860 1.327 . S
C3858 H3883 0.950 . S
C3859 C3858 1.349 . S
C3859 C3875 1.349 . S
C3860 C3858 1.327 . S
C3860 C3879 1.429 . S
C3860 H3884 0.950 . S
C3861 C3878 1.574 . S
C3861 C3880 1.368 . S
C3861 H3885 0.949 . S
H3862 C3866 0.949 . S
C3863 C3864 1.349 . S
C3863 C3865 1.327 . S
C3863 H3886 0.950 . S
C3864 C3863 1.349 . S
C3864 C3876 1.349 . S
C3865 C3863 1.327 . S
C3865 C3881 1.429 . S
C3865 H3887 0.950 . S
C3866 H3862 0.949 . S
C3866 C3874 1.574 . S
C3866 C3882 1.368 . S
H3867 C3875 0.950 . S
H3868 C3873 0.950 . S
H3869 C3874 0.949 . S
H3870 C3876 0.950 . S
H3871 C3877 0.950 . S
H3872 C3878 0.949 . S
C3873 H3868 0.950 . S
C3873 C3875 1.327 . S
C3873 C3879 1.429 . S
C3874 C3866 1.574 . S
C3874 H3869 0.949 . S
C3874 C3880 1.368 . S
C3875 C3859 1.349 . S
C3875 H3867 0.950 . S
C3875 C3873 1.327 . S
C3876 C3864 1.349 . S
C3876 H3870 0.950 . S
C3876 C3877 1.327 . S
C3877 H3871 0.950 . S
C3877 C3876 1.327 . S
C3877 C3881 1.429 . S
C3878 C3861 1.574 . S
C3878 H3872 0.949 . S
C3878 C3882 1.368 . S
C3879 C3860 1.429 . S
C3879 C3873 1.429 . S
C3879 C3880 1.523 . S
C3880 C3861 1.368 . S
C3880 C3874 1.368 . S
C3880 C3879 1.523 . S
C3881 C3865 1.429 . S
C3881 C3877 1.429 . S
C3881 C3882 1.523 . S
C3882 C3866 1.368 . S
C3882 C3878 1.368 . S
C3882 C3881 1.523 . S
H3883 C3858 0.950 . S
H3884 C3860 0.950 . S
H3885 C3861 0.949 . S
H3886 C3863 0.950 . S
H3887 C3865 0.950 . S
C3888 C3889 1.349 . S
C3888 C3890 1.327 . S
C3888 H3913 0.950 . S
C3889 C3888 1.349 . S
C3889 C3905 1.349 . S
C3890 C3888 1.327 . S
C3890 C3909 1.429 . S
C3890 H3914 0.950 . S
C3891 C3908 1.574 . S
C3891 C3910 1.368 . S
C3891 H3915 0.949 . S
H3892 C3896 0.949 . S
C3893 C3894 1.349 . S
C3893 C3895 1.327 . S
C3893 H3916 0.950 . S
C3894 C3893 1.349 . S
C3894 C3906 1.349 . S
C3895 C3893 1.327 . S
C3895 C3911 1.429 . S
C3895 H3917 0.950 . S
C3896 H3892 0.949 . S
C3896 C3904 1.574 . S
C3896 C3912 1.368 . S
H3897 C3905 0.950 . S
H3898 C3903 0.950 . S
H3899 C3904 0.949 . S
H3900 C3906 0.950 . S
H3901 C3907 0.950 . S
H3902 C3908 0.949 . S
C3903 H3898 0.950 . S
C3903 C3905 1.327 . S
C3903 C3909 1.429 . S
C3904 C3896 1.574 . S
C3904 H3899 0.949 . S
C3904 C3910 1.368 . S
C3905 C3889 1.349 . S
C3905 H3897 0.950 . S
C3905 C3903 1.327 . S
C3906 C3894 1.349 . S
C3906 H3900 0.950 . S
C3906 C3907 1.327 . S
C3907 H3901 0.950 . S
C3907 C3906 1.327 . S
C3907 C3911 1.429 . S
C3908 C3891 1.574 . S
C3908 H3902 0.949 . S
C3908 C3912 1.368 . S
C3909 C3890 1.429 . S
C3909 C3903 1.429 . S
C3909 C3910 1.523 . S
C3910 C3891 1.368 . S
C3910 C3904 1.368 . S
C3910 C3909 1.523 . S
C3911 C3895 1.429 . S
C3911 C3907 1.429 . S
C3911 C3912 1.523 . S
C3912 C3896 1.368 . S
C3912 C3908 1.368 . S
C3912 C3911 1.523 . S
H3913 C3888 0.950 . S
H3914 C3890 0.950 . S
H3915 C3891 0.949 . S
H3916 C3893 0.950 . S
H3917 C3895 0.950 . S
C3918 C3919 1.349 . S
C3918 C3920 1.327 . S
C3918 H3943 0.950 . S
C3919 C3918 1.349 . S
C3919 C3935 1.349 . S
C3920 C3918 1.327 . S
C3920 C3939 1.429 . S
C3920 H3944 0.950 . S
C3921 C3938 1.574 . S
C3921 C3940 1.368 . S
C3921 H3945 0.949 . S
H3922 C3926 0.949 . S
C3923 C3924 1.349 . S
C3923 C3925 1.327 . S
C3923 H3946 0.950 . S
C3924 C3923 1.349 . S
C3924 C3936 1.349 . S
C3925 C3923 1.327 . S
C3925 C3941 1.429 . S
C3925 H3947 0.950 . S
C3926 H3922 0.949 . S
C3926 C3934 1.574 . S
C3926 C3942 1.368 . S
H3927 C3935 0.950 . S
H3928 C3933 0.950 . S
H3929 C3934 0.949 . S
H3930 C3936 0.950 . S
H3931 C3937 0.950 . S
H3932 C3938 0.949 . S
C3933 H3928 0.950 . S
C3933 C3935 1.327 . S
C3933 C3939 1.429 . S
C3934 C3926 1.574 . S
C3934 H3929 0.949 . S
C3934 C3940 1.368 . S
C3935 C3919 1.349 . S
C3935 H3927 0.950 . S
C3935 C3933 1.327 . S
C3936 C3924 1.349 . S
C3936 H3930 0.950 . S
C3936 C3937 1.327 . S
C3937 H3931 0.950 . S
C3937 C3936 1.327 . S
C3937 C3941 1.429 . S
C3938 C3921 1.574 . S
C3938 H3932 0.949 . S
C3938 C3942 1.368 . S
C3939 C3920 1.429 . S
C3939 C3933 1.429 . S
C3939 C3940 1.523 . S
C3940 C3921 1.368 . S
C3940 C3934 1.368 . S
C3940 C3939 1.523 . S
C3941 C3925 1.429 . S
C3941 C3937 1.429 . S
C3941 C3942 1.523 . S
C3942 C3926 1.368 . S
C3942 C3938 1.368 . S
C3942 C3941 1.523 . S
H3943 C3918 0.950 . S
H3944 C3920 0.950 . S
H3945 C3921 0.949 . S
H3946 C3923 0.950 . S
H3947 C3925 0.950 . S
C3948 C3949 1.349 . S
C3948 C3950 1.327 . S
C3948 H3973 0.950 . S
C3949 C3948 1.349 . S
C3949 C3965 1.349 1_455 S
C3950 C3948 1.327 . S
C3950 C3969 1.429 . S
C3950 H3974 0.950 . S
C3951 C3968 1.572 1_655 S
C3951 C3970 1.362 1_655 S
C3951 H3975 0.955 . S
H3952 C3956 0.949 . S
C3953 C3954 1.349 . S
C3953 C3955 1.327 . S
C3953 H3976 0.906 1_454 S
C3954 C3953 1.349 . S
C3954 C3966 1.349 . S
C3955 C3953 1.327 . S
C3955 C3971 1.429 . S
C3955 H3977 0.950 1_455 S
C3956 H3952 0.949 . S
C3956 C3964 1.574 . S
C3956 C3972 1.368 . S
H3957 C3965 0.950 . S
H3958 C3963 0.950 . S
H3959 C3964 0.949 . S
H3960 C3966 0.950 . S
H3961 C3967 0.950 . S
H3962 C3968 0.936 1_655 S
C3963 H3958 0.950 . S
C3963 C3965 1.327 . S
C3963 C3969 1.429 1_655 S
C3964 C3956 1.574 . S
C3964 H3959 0.949 . S
C3964 C3970 1.368 . S
C3965 C3949 1.349 1_655 S
C3965 H3957 0.950 . S
C3965 C3963 1.327 . S
C3966 C3954 1.349 . S
C3966 H3960 0.950 . S
C3966 C3967 1.327 . S
C3967 H3961 0.950 . S
C3967 C3966 1.327 . S
C3967 C3971 1.429 . S
C3968 C3951 1.572 1_455 S
C3968 H3962 0.936 1_455 S
C3968 C3972 1.385 . S
C3969 C3950 1.429 . S
C3969 C3963 1.429 1_455 S
C3969 C3970 1.523 . S
C3970 C3951 1.362 1_455 S
C3970 C3964 1.368 . S
C3970 C3969 1.523 . S
C3971 C3955 1.429 . S
C3971 C3967 1.429 . S
C3971 C3972 1.523 . S
C3972 C3956 1.368 . S
C3972 C3968 1.385 . S
C3972 C3971 1.523 . S
H3973 C3948 0.950 . S
H3974 C3950 0.950 . S
H3975 C3951 0.955 . S
H3976 C3953 0.906 1_656 S
H3977 C3955 0.950 1_655 S
C3978 C3979 1.349 . S
C3978 C3980 1.327 . S
C3978 H4003 0.950 . S
C3979 C3978 1.349 . S
C3979 C3995 1.349 . S
C3980 C3978 1.327 . S
C3980 C3999 1.429 . S
C3980 H4004 0.950 . S
C3981 C3998 1.574 . S
C3981 C4000 1.368 . S
C3981 H4005 0.949 . S
H3982 C3986 0.949 . S
C3983 C3984 1.349 . S
C3983 C3985 1.327 . S
C3983 H4006 0.950 . S
C3984 C3983 1.349 . S
C3984 C3996 1.349 . S
C3985 C3983 1.327 . S
C3985 C4001 1.429 . S
C3985 H4007 0.950 . S
C3986 H3982 0.949 . S
C3986 C3994 1.574 . S
C3986 C4002 1.368 . S
H3987 C3995 0.950 . S
H3988 C3993 0.950 . S
H3989 C3994 0.949 . S
H3990 C3996 0.950 . S
H3991 C3997 0.950 . S
H3992 C3998 0.949 . S
C3993 H3988 0.950 . S
C3993 C3995 1.327 . S
C3993 C3999 1.429 . S
C3994 C3986 1.574 . S
C3994 H3989 0.949 . S
C3994 C4000 1.368 . S
C3995 C3979 1.349 . S
C3995 H3987 0.950 . S
C3995 C3993 1.327 . S
C3996 C3984 1.349 . S
C3996 H3990 0.950 . S
C3996 C3997 1.327 . S
C3997 H3991 0.950 . S
C3997 C3996 1.327 . S
C3997 C4001 1.429 . S
C3998 C3981 1.574 . S
C3998 H3992 0.949 . S
C3998 C4002 1.368 . S
C3999 C3980 1.429 . S
C3999 C3993 1.429 . S
C3999 C4000 1.523 . S
C4000 C3981 1.368 . S
C4000 C3994 1.368 . S
C4000 C3999 1.523 . S
C4001 C3985 1.429 . S
C4001 C3997 1.429 . S
C4001 C4002 1.523 . S
C4002 C3986 1.368 . S
C4002 C3998 1.368 . S
C4002 C4001 1.523 . S
H4003 C3978 0.950 . S
H4004 C3980 0.950 . S
H4005 C3981 0.949 . S
H4006 C3983 0.950 . S
H4007 C3985 0.950 . S
C4008 C4009 1.349 . S
C4008 C4010 1.327 . S
C4008 H4033 0.950 . S
C4009 C4008 1.349 . S
C4009 C4025 1.349 . S
C4010 C4008 1.327 . S
C4010 C4029 1.429 . S
C4010 H4034 0.950 . S
C4011 C4028 1.574 . S
C4011 C4030 1.368 . S
C4011 H4035 0.949 . S
H4012 C4016 0.949 . S
C4013 C4014 1.349 . S
C4013 C4015 1.327 . S
C4013 H4036 0.950 . S
C4014 C4013 1.349 . S
C4014 C4026 1.349 . S
C4015 C4013 1.327 . S
C4015 C4031 1.429 . S
C4015 H4037 0.950 . S
C4016 H4012 0.949 . S
C4016 C4024 1.574 . S
C4016 C4032 1.368 . S
H4017 C4025 0.950 . S
H4018 C4023 0.950 . S
H4019 C4024 0.949 . S
H4020 C4026 0.950 1_554 S
H4021 C4027 0.950 . S
H4022 C4028 0.949 . S
C4023 H4018 0.950 . S
C4023 C4025 1.327 . S
C4023 C4029 1.429 . S
C4024 C4016 1.574 . S
C4024 H4019 0.949 . S
C4024 C4030 1.368 . S
C4025 C4009 1.349 . S
C4025 H4017 0.950 . S
C4025 C4023 1.327 . S
C4026 C4014 1.349 . S
C4026 H4020 0.950 1_556 S
C4026 C4027 1.327 . S
C4027 H4021 0.950 . S
C4027 C4026 1.327 . S
C4027 C4031 1.429 . S
C4028 C4011 1.574 . S
C4028 H4022 0.949 . S
C4028 C4032 1.368 . S
C4029 C4010 1.429 . S
C4029 C4023 1.429 . S
C4029 C4030 1.523 . S
C4030 C4011 1.368 . S
C4030 C4024 1.368 . S
C4030 C4029 1.523 . S
C4031 C4015 1.429 . S
C4031 C4027 1.429 . S
C4031 C4032 1.523 . S
C4032 C4016 1.368 . S
C4032 C4028 1.368 . S
C4032 C4031 1.523 . S
H4033 C4008 0.950 . S
H4034 C4010 0.950 . S
H4035 C4011 0.949 . S
H4036 C4013 0.950 . S
H4037 C4015 0.950 . S
C4038 C4039 1.349 . S
C4038 C4040 1.327 . S
C4038 H4063 0.950 . S
C4039 C4038 1.349 . S
C4039 C4055 1.349 . S
C4040 C4038 1.327 . S
C4040 C4059 1.429 . S
C4040 H4064 0.950 . S
C4041 C4058 1.574 . S
C4041 C4060 1.368 . S
C4041 H4065 0.949 . S
H4042 C4046 0.949 . S
C4043 C4044 1.349 . S
C4043 C4045 1.327 . S
C4043 H4066 0.950 . S
C4044 C4043 1.349 . S
C4044 C4056 1.349 . S
C4045 C4043 1.327 . S
C4045 C4061 1.429 . S
C4045 H4067 0.950 . S
C4046 H4042 0.949 . S
C4046 C4054 1.574 . S
C4046 C4062 1.368 . S
H4047 C4055 0.950 . S
H4048 C4053 0.950 . S
H4049 C4054 0.949 . S
H4050 C4056 0.950 . S
H4051 C4057 0.950 . S
H4052 C4058 0.949 . S
C4053 H4048 0.950 . S
C4053 C4055 1.327 . S
C4053 C4059 1.429 . S
C4054 C4046 1.574 . S
C4054 H4049 0.949 . S
C4054 C4060 1.368 . S
C4055 C4039 1.349 . S
C4055 H4047 0.950 . S
C4055 C4053 1.327 . S
C4056 C4044 1.349 . S
C4056 H4050 0.950 . S
C4056 C4057 1.327 . S
C4057 H4051 0.950 . S
C4057 C4056 1.327 . S
C4057 C4061 1.429 . S
C4058 C4041 1.574 . S
C4058 H4052 0.949 . S
C4058 C4062 1.368 . S
C4059 C4040 1.429 . S
C4059 C4053 1.429 . S
C4059 C4060 1.523 . S
C4060 C4041 1.368 . S
C4060 C4054 1.368 . S
C4060 C4059 1.523 . S
C4061 C4045 1.429 . S
C4061 C4057 1.429 . S
C4061 C4062 1.523 . S
C4062 C4046 1.368 . S
C4062 C4058 1.368 . S
C4062 C4061 1.523 . S
H4063 C4038 0.950 . S
H4064 C4040 0.950 . S
H4065 C4041 0.949 . S
H4066 C4043 0.950 . S
H4067 C4045 0.950 . S
C4068 C4069 1.349 . S
C4068 C4070 1.327 . S
C4068 H4093 0.950 . S
C4069 C4068 1.349 . S
C4069 C4085 1.322 1_455 S
C4070 C4068 1.327 . S
C4070 C4089 1.429 . S
C4070 H4094 0.950 . S
C4071 C4088 1.575 . S
C4071 C4090 1.381 . S
C4071 H4095 0.937 1_455 S
H4072 C4076 0.949 . S
C4073 C4074 1.349 . S
C4073 C4075 1.327 . S
C4073 H4096 0.950 1_455 S
C4074 C4073 1.349 . S
C4074 C4086 1.349 . S
C4075 C4073 1.327 . S
C4075 C4091 1.429 . S
C4075 H4097 0.950 1_455 S
C4076 H4072 0.949 . S
C4076 C4084 1.574 . S
C4076 C4092 1.368 . S
H4077 C4085 0.982 . S
H4078 C4083 0.963 . S
H4079 C4084 0.949 . S
H4080 C4086 0.950 . S
H4081 C4087 0.950 . S
H4082 C4088 0.949 1_655 S
C4083 H4078 0.963 . S
C4083 C4085 1.327 . S
C4083 C4089 1.415 1_655 S
C4084 C4076 1.574 . S
C4084 H4079 0.949 . S
C4084 C4090 1.368 . S
C4085 C4069 1.322 1_655 S
C4085 H4077 0.982 . S
C4085 C4083 1.327 . S
C4086 C4074 1.349 . S
C4086 H4080 0.950 . S
C4086 C4087 1.327 . S
C4087 H4081 0.950 . S
C4087 C4086 1.327 . S
C4087 C4091 1.429 . S
C4088 C4071 1.575 . S
C4088 H4082 0.949 1_455 S
C4088 C4092 1.368 . S
C4089 C4070 1.429 . S
C4089 C4083 1.415 1_455 S
C4089 C4090 1.523 . S
C4090 C4071 1.381 . S
C4090 C4084 1.368 . S
C4090 C4089 1.523 . S
C4091 C4075 1.429 . S
C4091 C4087 1.429 . S
C4091 C4092 1.523 . S
C4092 C4076 1.368 . S
C4092 C4088 1.368 . S
C4092 C4091 1.523 . S
H4093 C4068 0.950 . S
H4094 C4070 0.950 . S
H4095 C4071 0.937 1_655 S
H4096 C4073 0.950 1_655 S
H4097 C4075 0.950 1_655 S
C4098 C4099 1.349 . S
C4098 C4100 1.327 . S
C4098 H4123 0.950 . S
C4099 C4098 1.349 . S
C4099 C4115 1.349 . S
C4100 C4098 1.327 . S
C4100 C4119 1.429 . S
C4100 H4124 0.950 . S
C4101 C4118 1.574 . S
C4101 C4120 1.368 . S
C4101 H4125 0.949 . S
H4102 C4106 0.949 . S
C4103 C4104 1.349 . S
C4103 C4105 1.327 . S
C4103 H4126 0.950 . S
C4104 C4103 1.349 . S
C4104 C4116 1.349 . S
C4105 C4103 1.327 . S
C4105 C4121 1.429 . S
C4105 H4127 0.950 . S
C4106 H4102 0.949 . S
C4106 C4114 1.574 . S
C4106 C4122 1.368 . S
H4107 C4115 0.950 . S
H4108 C4113 0.950 . S
H4109 C4114 0.949 . S
H4110 C4116 0.950 . S
H4111 C4117 0.950 . S
H4112 C4118 0.949 . S
C4113 H4108 0.950 . S
C4113 C4115 1.327 . S
C4113 C4119 1.429 . S
C4114 C4106 1.574 . S
C4114 H4109 0.949 . S
C4114 C4120 1.368 . S
C4115 C4099 1.349 . S
C4115 H4107 0.950 . S
C4115 C4113 1.327 . S
C4116 C4104 1.349 . S
C4116 H4110 0.950 . S
C4116 C4117 1.327 . S
C4117 H4111 0.950 . S
C4117 C4116 1.327 . S
C4117 C4121 1.429 . S
C4118 C4101 1.574 . S
C4118 H4112 0.949 . S
C4118 C4122 1.368 . S
C4119 C4100 1.429 . S
C4119 C4113 1.429 . S
C4119 C4120 1.523 . S
C4120 C4101 1.368 . S
C4120 C4114 1.368 . S
C4120 C4119 1.523 . S
C4121 C4105 1.429 . S
C4121 C4117 1.429 . S
C4121 C4122 1.523 . S
C4122 C4106 1.368 . S
C4122 C4118 1.368 . S
C4122 C4121 1.523 . S
H4123 C4098 0.950 . S
H4124 C4100 0.950 . S
H4125 C4101 0.949 . S
H4126 C4103 0.950 . S
H4127 C4105 0.950 . S
C4128 C4129 1.349 . S
C4128 C4130 1.327 . S
C4128 H4153 0.950 . S
C4129 C4128 1.349 . S
C4129 C4145 1.349 . S
C4130 C4128 1.327 . S
C4130 C4149 1.429 . S
C4130 H4154 0.950 . S
C4131 C4148 1.574 . S
C4131 C4150 1.368 . S
C4131 H4155 0.949 . S
H4132 C4136 0.949 . S
C4133 C4134 1.349 . S
C4133 C4135 1.327 . S
C4133 H4156 0.950 . S
C4134 C4133 1.349 . S
C4134 C4146 1.349 . S
C4135 C4133 1.327 . S
C4135 C4151 1.429 . S
C4135 H4157 0.950 . S
C4136 H4132 0.949 . S
C4136 C4144 1.574 . S
C4136 C4152 1.368 . S
H4137 C4145 0.950 . S
H4138 C4143 0.950 . S
H4139 C4144 0.949 . S
H4140 C4146 0.950 . S
H4141 C4147 0.950 . S
H4142 C4148 0.949 . S
C4143 H4138 0.950 . S
C4143 C4145 1.327 . S
C4143 C4149 1.429 . S
C4144 C4136 1.574 . S
C4144 H4139 0.949 . S
C4144 C4150 1.368 . S
C4145 C4129 1.349 . S
C4145 H4137 0.950 . S
C4145 C4143 1.327 . S
C4146 C4134 1.349 . S
C4146 H4140 0.950 . S
C4146 C4147 1.327 . S
C4147 H4141 0.950 . S
C4147 C4146 1.327 . S
C4147 C4151 1.429 . S
C4148 C4131 1.574 . S
C4148 H4142 0.949 . S
C4148 C4152 1.368 . S
C4149 C4130 1.429 . S
C4149 C4143 1.429 . S
C4149 C4150 1.523 . S
C4150 C4131 1.368 . S
C4150 C4144 1.368 . S
C4150 C4149 1.523 . S
C4151 C4135 1.429 . S
C4151 C4147 1.429 . S
C4151 C4152 1.523 . S
C4152 C4136 1.368 . S
C4152 C4148 1.368 . S
C4152 C4151 1.523 . S
H4153 C4128 0.950 . S
H4154 C4130 0.950 . S
H4155 C4131 0.949 . S
H4156 C4133 0.950 . S
H4157 C4135 0.950 . S
C4158 C4159 1.349 . S
C4158 C4160 1.327 . S
C4158 H4183 0.950 . S
C4159 C4158 1.349 . S
C4159 C4175 1.349 . S
C4160 C4158 1.327 . S
C4160 C4179 1.429 . S
C4160 H4184 0.950 . S
C4161 C4178 1.574 . S
C4161 C4180 1.368 . S
C4161 H4185 0.949 . S
H4162 C4166 0.949 . S
C4163 C4164 1.349 . S
C4163 C4165 1.327 . S
C4163 H4186 0.950 . S
C4164 C4163 1.349 . S
C4164 C4176 1.349 . S
C4165 C4163 1.327 . S
C4165 C4181 1.429 . S
C4165 H4187 0.950 . S
C4166 H4162 0.949 . S
C4166 C4174 1.574 . S
C4166 C4182 1.368 . S
H4167 C4175 0.950 . S
H4168 C4173 0.950 . S
H4169 C4174 0.949 . S
H4170 C4176 0.950 . S
H4171 C4177 0.950 . S
H4172 C4178 0.949 . S
C4173 H4168 0.950 . S
C4173 C4175 1.327 . S
C4173 C4179 1.429 . S
C4174 C4166 1.574 . S
C4174 H4169 0.949 . S
C4174 C4180 1.368 . S
C4175 C4159 1.349 . S
C4175 H4167 0.950 . S
C4175 C4173 1.327 . S
C4176 C4164 1.349 . S
C4176 H4170 0.950 . S
C4176 C4177 1.327 . S
C4177 H4171 0.950 . S
C4177 C4176 1.327 . S
C4177 C4181 1.429 . S
C4178 C4161 1.574 . S
C4178 H4172 0.949 . S
C4178 C4182 1.368 . S
C4179 C4160 1.429 . S
C4179 C4173 1.429 . S
C4179 C4180 1.523 . S
C4180 C4161 1.368 . S
C4180 C4174 1.368 . S
C4180 C4179 1.523 . S
C4181 C4165 1.429 . S
C4181 C4177 1.429 . S
C4181 C4182 1.523 . S
C4182 C4166 1.368 . S
C4182 C4178 1.368 . S
C4182 C4181 1.523 . S
H4183 C4158 0.950 . S
H4184 C4160 0.950 . S
H4185 C4161 0.949 . S
H4186 C4163 0.950 . S
H4187 C4165 0.950 . S
C4188 C4189 1.349 . S
C4188 C4190 1.327 . S
C4188 H4213 0.950 . S
C4189 C4188 1.349 . S
C4189 C4205 1.349 . S
C4190 C4188 1.327 . S
C4190 C4209 1.429 . S
C4190 H4214 0.950 . S
C4191 C4208 1.574 . S
C4191 C4210 1.368 . S
C4191 H4215 0.949 . S
H4192 C4196 0.949 . S
C4193 C4194 1.349 . S
C4193 C4195 1.327 . S
C4193 H4216 0.950 . S
C4194 C4193 1.349 . S
C4194 C4206 1.349 . S
C4195 C4193 1.327 . S
C4195 C4211 1.429 . S
C4195 H4217 0.950 . S
C4196 H4192 0.949 . S
C4196 C4204 1.574 . S
C4196 C4212 1.368 . S
H4197 C4205 0.950 . S
H4198 C4203 0.950 . S
H4199 C4204 0.949 . S
H4200 C4206 0.950 . S
H4201 C4207 0.950 . S
H4202 C4208 0.949 . S
C4203 H4198 0.950 . S
C4203 C4205 1.327 . S
C4203 C4209 1.429 . S
C4204 C4196 1.574 . S
C4204 H4199 0.949 . S
C4204 C4210 1.368 . S
C4205 C4189 1.349 . S
C4205 H4197 0.950 . S
C4205 C4203 1.327 . S
C4206 C4194 1.349 . S
C4206 H4200 0.950 . S
C4206 C4207 1.327 . S
C4207 H4201 0.950 . S
C4207 C4206 1.327 . S
C4207 C4211 1.429 . S
C4208 C4191 1.574 . S
C4208 H4202 0.949 . S
C4208 C4212 1.368 . S
C4209 C4190 1.429 . S
C4209 C4203 1.429 . S
C4209 C4210 1.523 . S
C4210 C4191 1.368 . S
C4210 C4204 1.368 . S
C4210 C4209 1.523 . S
C4211 C4195 1.429 . S
C4211 C4207 1.429 . S
C4211 C4212 1.523 . S
C4212 C4196 1.368 . S
C4212 C4208 1.368 . S
C4212 C4211 1.523 . S
H4213 C4188 0.950 . S
H4214 C4190 0.950 . S
H4215 C4191 0.949 . S
H4216 C4193 0.950 . S
H4217 C4195 0.950 . S
C4218 C4219 1.349 . S
C4218 C4220 1.327 . S
C4218 H4243 0.950 . S
C4219 C4218 1.349 . S
C4219 C4235 1.349 . S
C4220 C4218 1.327 . S
C4220 C4239 1.429 . S
C4220 H4244 0.950 . S
C4221 C4238 1.574 . S
C4221 C4240 1.368 . S
C4221 H4245 0.949 . S
H4222 C4226 0.949 . S
C4223 C4224 1.349 . S
C4223 C4225 1.327 . S
C4223 H4246 0.950 . S
C4224 C4223 1.349 . S
C4224 C4236 1.349 . S
C4225 C4223 1.327 . S
C4225 C4241 1.429 . S
C4225 H4247 0.950 . S
C4226 H4222 0.949 . S
C4226 C4234 1.574 . S
C4226 C4242 1.368 . S
H4227 C4235 0.950 . S
H4228 C4233 0.950 . S
H4229 C4234 0.949 . S
H4230 C4236 0.950 . S
H4231 C4237 0.950 . S
H4232 C4238 0.949 . S
C4233 H4228 0.950 . S
C4233 C4235 1.327 . S
C4233 C4239 1.429 . S
C4234 C4226 1.574 . S
C4234 H4229 0.949 . S
C4234 C4240 1.368 . S
C4235 C4219 1.349 . S
C4235 H4227 0.950 . S
C4235 C4233 1.327 . S
C4236 C4224 1.349 . S
C4236 H4230 0.950 . S
C4236 C4237 1.327 . S
C4237 H4231 0.950 . S
C4237 C4236 1.327 . S
C4237 C4241 1.429 . S
C4238 C4221 1.574 . S
C4238 H4232 0.949 . S
C4238 C4242 1.368 . S
C4239 C4220 1.429 . S
C4239 C4233 1.429 . S
C4239 C4240 1.523 . S
C4240 C4221 1.368 . S
C4240 C4234 1.368 . S
C4240 C4239 1.523 . S
C4241 C4225 1.429 . S
C4241 C4237 1.429 . S
C4241 C4242 1.523 . S
C4242 C4226 1.368 . S
C4242 C4238 1.368 . S
C4242 C4241 1.523 . S
H4243 C4218 0.950 . S
H4244 C4220 0.950 . S
H4245 C4221 0.949 . S
H4246 C4223 0.950 . S
H4247 C4225 0.950 . S
C4248 C4249 1.349 . S
C4248 C4250 1.327 . S
C4248 H4273 0.950 . S
C4249 C4248 1.349 . S
C4249 C4265 1.349 . S
C4250 C4248 1.327 . S
C4250 C4269 1.429 . S
C4250 H4274 0.950 . S
C4251 C4268 1.574 . S
C4251 C4270 1.368 . S
C4251 H4275 0.949 . S
H4252 C4256 0.949 . S
C4253 C4254 1.349 . S
C4253 C4255 1.327 . S
C4253 H4276 0.950 . S
C4254 C4253 1.349 . S
C4254 C4266 1.349 . S
C4255 C4253 1.327 . S
C4255 C4271 1.429 . S
C4255 H4277 0.950 . S
C4256 H4252 0.949 . S
C4256 C4264 1.574 . S
C4256 C4272 1.368 . S
H4257 C4265 0.950 . S
H4258 C4263 0.950 . S
H4259 C4264 0.949 . S
H4260 C4266 0.950 . S
H4261 C4267 0.950 . S
H4262 C4268 0.949 . S
C4263 H4258 0.950 . S
C4263 C4265 1.327 . S
C4263 C4269 1.429 . S
C4264 C4256 1.574 . S
C4264 H4259 0.949 . S
C4264 C4270 1.368 . S
C4265 C4249 1.349 . S
C4265 H4257 0.950 . S
C4265 C4263 1.327 . S
C4266 C4254 1.349 . S
C4266 H4260 0.950 . S
C4266 C4267 1.327 . S
C4267 H4261 0.950 . S
C4267 C4266 1.327 . S
C4267 C4271 1.429 . S
C4268 C4251 1.574 . S
C4268 H4262 0.949 . S
C4268 C4272 1.368 . S
C4269 C4250 1.429 . S
C4269 C4263 1.429 . S
C4269 C4270 1.523 . S
C4270 C4251 1.368 . S
C4270 C4264 1.368 . S
C4270 C4269 1.523 . S
C4271 C4255 1.429 . S
C4271 C4267 1.429 . S
C4271 C4272 1.523 . S
C4272 C4256 1.368 . S
C4272 C4268 1.368 . S
C4272 C4271 1.523 . S
H4273 C4248 0.950 . S
H4274 C4250 0.950 . S
H4275 C4251 0.949 . S
H4276 C4253 0.950 . S
H4277 C4255 0.950 . S
C4278 C4279 1.349 . S
C4278 C4280 1.327 . S
C4278 H4303 0.950 . S
C4279 C4278 1.349 . S
C4279 C4295 1.349 . S
C4280 C4278 1.327 . S
C4280 C4299 1.429 . S
C4280 H4304 0.950 . S
C4281 C4298 1.574 . S
C4281 C4300 1.368 . S
C4281 H4305 0.949 . S
H4282 C4286 0.949 . S
C4283 C4284 1.349 . S
C4283 C4285 1.327 . S
C4283 H4306 0.950 . S
C4284 C4283 1.349 . S
C4284 C4296 1.349 . S
C4285 C4283 1.327 . S
C4285 C4301 1.429 . S
C4285 H4307 0.950 . S
C4286 H4282 0.949 . S
C4286 C4294 1.574 . S
C4286 C4302 1.368 . S
H4287 C4295 0.950 . S
H4288 C4293 0.950 . S
H4289 C4294 0.949 . S
H4290 C4296 0.950 . S
H4291 C4297 0.950 . S
H4292 C4298 0.949 . S
C4293 H4288 0.950 . S
C4293 C4295 1.327 . S
C4293 C4299 1.429 . S
C4294 C4286 1.574 . S
C4294 H4289 0.949 . S
C4294 C4300 1.368 . S
C4295 C4279 1.349 . S
C4295 H4287 0.950 . S
C4295 C4293 1.327 . S
C4296 C4284 1.349 . S
C4296 H4290 0.950 . S
C4296 C4297 1.327 . S
C4297 H4291 0.950 . S
C4297 C4296 1.327 . S
C4297 C4301 1.429 . S
C4298 C4281 1.574 . S
C4298 H4292 0.949 . S
C4298 C4302 1.368 . S
C4299 C4280 1.429 . S
C4299 C4293 1.429 . S
C4299 C4300 1.523 . S
C4300 C4281 1.368 . S
C4300 C4294 1.368 . S
C4300 C4299 1.523 . S
C4301 C4285 1.429 . S
C4301 C4297 1.429 . S
C4301 C4302 1.523 . S
C4302 C4286 1.368 . S
C4302 C4298 1.368 . S
C4302 C4301 1.523 . S
H4303 C4278 0.950 . S
H4304 C4280 0.950 . S
H4305 C4281 0.949 . S
H4306 C4283 0.950 . S
H4307 C4285 0.950 . S
C4308 C4309 1.349 . S
C4308 C4310 1.327 . S
C4308 H4333 0.950 . S
C4309 C4308 1.349 . S
C4309 C4325 1.349 . S
C4310 C4308 1.327 . S
C4310 C4329 1.429 . S
C4310 H4334 0.950 . S
C4311 C4328 1.574 . S
C4311 C4330 1.368 . S
C4311 H4335 0.949 . S
H4312 C4316 0.949 . S
C4313 C4314 1.349 . S
C4313 C4315 1.327 . S
C4313 H4336 0.950 . S
C4314 C4313 1.349 . S
C4314 C4326 1.349 . S
C4315 C4313 1.327 . S
C4315 C4331 1.429 . S
C4315 H4337 0.950 . S
C4316 H4312 0.949 . S
C4316 C4324 1.574 . S
C4316 C4332 1.368 . S
H4317 C4325 0.950 . S
H4318 C4323 0.950 . S
H4319 C4324 0.949 . S
H4320 C4326 0.950 . S
H4321 C4327 0.950 . S
H4322 C4328 0.949 . S
C4323 H4318 0.950 . S
C4323 C4325 1.327 . S
C4323 C4329 1.429 . S
C4324 C4316 1.574 . S
C4324 H4319 0.949 . S
C4324 C4330 1.368 . S
C4325 C4309 1.349 . S
C4325 H4317 0.950 . S
C4325 C4323 1.327 . S
C4326 C4314 1.349 . S
C4326 H4320 0.950 . S
C4326 C4327 1.327 . S
C4327 H4321 0.950 . S
C4327 C4326 1.327 . S
C4327 C4331 1.429 . S
C4328 C4311 1.574 . S
C4328 H4322 0.949 . S
C4328 C4332 1.368 . S
C4329 C4310 1.429 . S
C4329 C4323 1.429 . S
C4329 C4330 1.523 . S
C4330 C4311 1.368 . S
C4330 C4324 1.368 . S
C4330 C4329 1.523 . S
C4331 C4315 1.429 . S
C4331 C4327 1.429 . S
C4331 C4332 1.523 . S
C4332 C4316 1.368 . S
C4332 C4328 1.368 . S
C4332 C4331 1.523 . S
H4333 C4308 0.950 . S
H4334 C4310 0.950 . S
H4335 C4311 0.949 . S
H4336 C4313 0.950 . S
H4337 C4315 0.950 . S
C4338 C4339 1.349 . S
C4338 C4340 1.327 . S
C4338 H4363 0.950 . S
C4339 C4338 1.349 . S
C4339 C4355 1.349 . S
C4340 C4338 1.327 . S
C4340 C4359 1.429 . S
C4340 H4364 0.950 . S
C4341 C4358 1.574 . S
C4341 C4360 1.368 . S
C4341 H4365 0.949 . S
H4342 C4346 0.949 . S
C4343 C4344 1.349 . S
C4343 C4345 1.327 . S
C4343 H4366 0.950 . S
C4344 C4343 1.349 . S
C4344 C4356 1.349 . S
C4345 C4343 1.327 . S
C4345 C4361 1.429 . S
C4345 H4367 0.950 . S
C4346 H4342 0.949 . S
C4346 C4354 1.574 . S
C4346 C4362 1.368 . S
H4347 C4355 0.950 . S
H4348 C4353 0.950 . S
H4349 C4354 0.949 . S
H4350 C4356 0.950 . S
H4351 C4357 0.950 . S
H4352 C4358 0.949 . S
C4353 H4348 0.950 . S
C4353 C4355 1.327 . S
C4353 C4359 1.429 . S
C4354 C4346 1.574 . S
C4354 H4349 0.949 . S
C4354 C4360 1.368 . S
C4355 C4339 1.349 . S
C4355 H4347 0.950 . S
C4355 C4353 1.327 . S
C4356 C4344 1.349 . S
C4356 H4350 0.950 . S
C4356 C4357 1.327 . S
C4357 H4351 0.950 . S
C4357 C4356 1.327 . S
C4357 C4361 1.429 . S
C4358 C4341 1.574 . S
C4358 H4352 0.949 . S
C4358 C4362 1.368 . S
C4359 C4340 1.429 . S
C4359 C4353 1.429 . S
C4359 C4360 1.523 . S
C4360 C4341 1.368 . S
C4360 C4354 1.368 . S
C4360 C4359 1.523 . S
C4361 C4345 1.429 . S
C4361 C4357 1.429 . S
C4361 C4362 1.523 . S
C4362 C4346 1.368 . S
C4362 C4358 1.368 . S
C4362 C4361 1.523 . S
H4363 C4338 0.950 . S
H4364 C4340 0.950 . S
H4365 C4341 0.949 . S
H4366 C4343 0.950 . S
H4367 C4345 0.950 . S
C4368 C4369 1.349 . S
C4368 C4370 1.327 . S
C4368 H4393 0.950 . S
C4369 C4368 1.349 . S
C4369 C4385 1.349 . S
C4370 C4368 1.327 . S
C4370 C4389 1.429 . S
C4370 H4394 0.950 . S
C4371 C4388 1.574 . S
C4371 C4390 1.368 . S
C4371 H4395 0.949 . S
H4372 C4376 0.949 . S
C4373 C4374 1.349 . S
C4373 C4375 1.327 . S
C4373 H4396 0.950 . S
C4374 C4373 1.349 . S
C4374 C4386 1.349 . S
C4375 C4373 1.327 . S
C4375 C4391 1.429 . S
C4375 H4397 0.950 . S
C4376 H4372 0.949 . S
C4376 C4384 1.574 . S
C4376 C4392 1.368 . S
H4377 C4385 0.950 . S
H4378 C4383 0.950 . S
H4379 C4384 0.949 . S
H4380 C4386 0.950 . S
H4381 C4387 0.950 . S
H4382 C4388 0.949 . S
C4383 H4378 0.950 . S
C4383 C4385 1.327 . S
C4383 C4389 1.429 . S
C4384 C4376 1.574 . S
C4384 H4379 0.949 . S
C4384 C4390 1.368 . S
C4385 C4369 1.349 . S
C4385 H4377 0.950 . S
C4385 C4383 1.327 . S
C4386 C4374 1.349 . S
C4386 H4380 0.950 . S
C4386 C4387 1.327 . S
C4387 H4381 0.950 . S
C4387 C4386 1.327 . S
C4387 C4391 1.429 . S
C4388 C4371 1.574 . S
C4388 H4382 0.949 . S
C4388 C4392 1.368 . S
C4389 C4370 1.429 . S
C4389 C4383 1.429 . S
C4389 C4390 1.523 . S
C4390 C4371 1.368 . S
C4390 C4384 1.368 . S
C4390 C4389 1.523 . S
C4391 C4375 1.429 . S
C4391 C4387 1.429 . S
C4391 C4392 1.523 . S
C4392 C4376 1.368 . S
C4392 C4388 1.368 . S
C4392 C4391 1.523 . S
H4393 C4368 0.950 . S
H4394 C4370 0.950 . S
H4395 C4371 0.949 . S
H4396 C4373 0.950 . S
H4397 C4375 0.950 . S
C4398 C4399 1.349 . S
C4398 C4400 1.327 . S
C4398 H4423 0.950 . S
C4399 C4398 1.349 . S
C4399 C4415 1.349 . S
C4400 C4398 1.327 . S
C4400 C4419 1.429 . S
C4400 H4424 0.950 . S
C4401 C4418 1.574 . S
C4401 C4420 1.368 . S
C4401 H4425 0.949 . S
H4402 C4406 0.949 . S
C4403 C4404 1.349 . S
C4403 C4405 1.327 . S
C4403 H4426 0.950 . S
C4404 C4403 1.349 . S
C4404 C4416 1.349 . S
C4405 C4403 1.327 . S
C4405 C4421 1.429 . S
C4405 H4427 0.950 . S
C4406 H4402 0.949 . S
C4406 C4414 1.574 . S
C4406 C4422 1.368 . S
H4407 C4415 0.950 . S
H4408 C4413 0.950 . S
H4409 C4414 0.949 . S
H4410 C4416 0.950 . S
H4411 C4417 0.950 . S
H4412 C4418 0.949 . S
C4413 H4408 0.950 . S
C4413 C4415 1.327 . S
C4413 C4419 1.429 . S
C4414 C4406 1.574 . S
C4414 H4409 0.949 . S
C4414 C4420 1.368 . S
C4415 C4399 1.349 . S
C4415 H4407 0.950 . S
C4415 C4413 1.327 . S
C4416 C4404 1.349 . S
C4416 H4410 0.950 . S
C4416 C4417 1.327 . S
C4417 H4411 0.950 . S
C4417 C4416 1.327 . S
C4417 C4421 1.429 . S
C4418 C4401 1.574 . S
C4418 H4412 0.949 . S
C4418 C4422 1.368 . S
C4419 C4400 1.429 . S
C4419 C4413 1.429 . S
C4419 C4420 1.523 . S
C4420 C4401 1.368 . S
C4420 C4414 1.368 . S
C4420 C4419 1.523 . S
C4421 C4405 1.429 . S
C4421 C4417 1.429 . S
C4421 C4422 1.523 . S
C4422 C4406 1.368 . S
C4422 C4418 1.368 . S
C4422 C4421 1.523 . S
H4423 C4398 0.950 . S
H4424 C4400 0.950 . S
H4425 C4401 0.949 . S
H4426 C4403 0.950 . S
H4427 C4405 0.950 . S
C4428 C4429 1.349 . S
C4428 C4430 1.327 . S
C4428 H4453 0.950 . S
C4429 C4428 1.349 . S
C4429 C4445 1.349 . S
C4430 C4428 1.327 . S
C4430 C4449 1.429 . S
C4430 H4454 0.950 . S
C4431 C4448 1.574 . S
C4431 C4450 1.368 . S
C4431 H4455 0.949 . S
H4432 C4436 0.949 . S
C4433 C4434 1.349 . S
C4433 C4435 1.327 . S
C4433 H4456 0.950 . S
C4434 C4433 1.349 . S
C4434 C4446 1.349 . S
C4435 C4433 1.327 . S
C4435 C4451 1.429 . S
C4435 H4457 0.950 . S
C4436 H4432 0.949 . S
C4436 C4444 1.574 . S
C4436 C4452 1.368 . S
H4437 C4445 0.950 . S
H4438 C4443 0.950 . S
H4439 C4444 0.949 . S
H4440 C4446 0.950 . S
H4441 C4447 0.950 . S
H4442 C4448 0.949 . S
C4443 H4438 0.950 . S
C4443 C4445 1.327 . S
C4443 C4449 1.429 . S
C4444 C4436 1.574 . S
C4444 H4439 0.949 . S
C4444 C4450 1.368 . S
C4445 C4429 1.349 . S
C4445 H4437 0.950 . S
C4445 C4443 1.327 . S
C4446 C4434 1.349 . S
C4446 H4440 0.950 . S
C4446 C4447 1.327 . S
C4447 H4441 0.950 . S
C4447 C4446 1.327 . S
C4447 C4451 1.429 . S
C4448 C4431 1.574 . S
C4448 H4442 0.949 . S
C4448 C4452 1.368 . S
C4449 C4430 1.429 . S
C4449 C4443 1.429 . S
C4449 C4450 1.523 . S
C4450 C4431 1.368 . S
C4450 C4444 1.368 . S
C4450 C4449 1.523 . S
C4451 C4435 1.429 . S
C4451 C4447 1.429 . S
C4451 C4452 1.523 . S
C4452 C4436 1.368 . S
C4452 C4448 1.368 . S
C4452 C4451 1.523 . S
H4453 C4428 0.950 . S
H4454 C4430 0.950 . S
H4455 C4431 0.949 . S
H4456 C4433 0.950 . S
H4457 C4435 0.950 . S
C4458 C4459 1.349 . S
C4458 C4460 1.327 . S
C4458 H4483 0.950 . S
C4459 C4458 1.349 . S
C4459 C4475 1.349 1_554 S
C4460 C4458 1.327 . S
C4460 C4479 1.429 . S
C4460 H4484 0.950 . S
C4461 C4478 1.574 . S
C4461 C4480 1.368 1_556 S
C4461 H4485 0.949 . S
H4462 C4466 0.949 . S
C4463 C4464 1.349 1_556 S
C4463 C4465 1.327 . S
C4463 H4486 0.950 . S
C4464 C4463 1.349 1_554 S
C4464 C4476 1.349 . S
C4465 C4463 1.327 . S
C4465 C4481 1.429 1_556 S
C4465 H4487 0.950 . S
C4466 H4462 0.949 . S
C4466 C4474 1.574 . S
C4466 C4482 1.368 . S
H4467 C4475 0.950 . S
H4468 C4473 0.950 . S
H4469 C4474 0.949 . S
H4470 C4476 0.950 . S
H4471 C4477 0.950 . S
H4472 C4478 0.949 . S
C4473 H4468 0.950 . S
C4473 C4475 1.327 . S
C4473 C4479 1.429 1_556 S
C4474 C4466 1.574 . S
C4474 H4469 0.949 . S
C4474 C4480 1.368 . S
C4475 C4459 1.349 1_556 S
C4475 H4467 0.950 . S
C4475 C4473 1.327 . S
C4476 C4464 1.349 . S
C4476 H4470 0.950 . S
C4476 C4477 1.327 . S
C4477 H4471 0.950 . S
C4477 C4476 1.327 . S
C4477 C4481 1.429 . S
C4478 C4461 1.574 . S
C4478 H4472 0.949 . S
C4478 C4482 1.368 1_556 S
C4479 C4460 1.429 . S
C4479 C4473 1.429 1_554 S
C4479 C4480 1.523 . S
C4480 C4461 1.368 1_554 S
C4480 C4474 1.368 . S
C4480 C4479 1.523 . S
C4481 C4465 1.429 1_554 S
C4481 C4477 1.429 . S
C4481 C4482 1.523 . S
C4482 C4466 1.368 . S
C4482 C4478 1.368 1_554 S
C4482 C4481 1.523 . S
H4483 C4458 0.950 . S
H4484 C4460 0.950 . S
H4485 C4461 0.949 . S
H4486 C4463 0.950 . S
H4487 C4465 0.950 . S
C4488 C4489 1.349 . S
C4488 C4490 1.327 . S
C4488 H4513 0.950 . S
C4489 C4488 1.349 . S
C4489 C4505 1.349 . S
C4490 C4488 1.327 . S
C4490 C4509 1.429 . S
C4490 H4514 0.950 . S
C4491 C4508 1.574 . S
C4491 C4510 1.368 . S
C4491 H4515 0.949 . S
H4492 C4496 0.949 . S
C4493 C4494 1.349 . S
C4493 C4495 1.327 . S
C4493 H4516 0.950 . S
C4494 C4493 1.349 . S
C4494 C4506 1.349 . S
C4495 C4493 1.327 . S
C4495 C4511 1.429 . S
C4495 H4517 0.950 . S
C4496 H4492 0.949 . S
C4496 C4504 1.574 . S
C4496 C4512 1.368 . S
H4497 C4505 0.950 . S
H4498 C4503 0.950 . S
H4499 C4504 0.949 . S
H4500 C4506 0.950 . S
H4501 C4507 0.950 . S
H4502 C4508 0.949 . S
C4503 H4498 0.950 . S
C4503 C4505 1.327 . S
C4503 C4509 1.429 . S
C4504 C4496 1.574 . S
C4504 H4499 0.949 . S
C4504 C4510 1.368 . S
C4505 C4489 1.349 . S
C4505 H4497 0.950 . S
C4505 C4503 1.327 . S
C4506 C4494 1.349 . S
C4506 H4500 0.950 . S
C4506 C4507 1.327 . S
C4507 H4501 0.950 . S
C4507 C4506 1.327 . S
C4507 C4511 1.429 . S
C4508 C4491 1.574 . S
C4508 H4502 0.949 . S
C4508 C4512 1.368 . S
C4509 C4490 1.429 . S
C4509 C4503 1.429 . S
C4509 C4510 1.523 . S
C4510 C4491 1.368 . S
C4510 C4504 1.368 . S
C4510 C4509 1.523 . S
C4511 C4495 1.429 . S
C4511 C4507 1.429 . S
C4511 C4512 1.523 . S
C4512 C4496 1.368 . S
C4512 C4508 1.368 . S
C4512 C4511 1.523 . S
H4513 C4488 0.950 . S
H4514 C4490 0.950 . S
H4515 C4491 0.949 . S
H4516 C4493 0.950 . S
H4517 C4495 0.950 . S
C4518 C4519 1.349 . S
C4518 C4520 1.327 . S
C4518 H4543 0.950 . S
C4519 C4518 1.349 . S
C4519 C4535 1.349 1_554 S
C4520 C4518 1.327 . S
C4520 C4539 1.429 . S
C4520 H4544 0.950 . S
C4521 C4538 1.574 . S
C4521 C4540 1.368 1_556 S
C4521 H4545 0.949 . S
H4522 C4526 0.949 . S
C4523 C4524 1.381 . S
C4523 C4525 1.327 . S
C4523 H4546 0.950 . S
C4524 C4523 1.381 . S
C4524 C4536 1.315 1_556 S
C4525 C4523 1.327 . S
C4525 C4541 1.398 1_556 S
C4525 H4547 0.950 . S
C4526 H4522 0.949 . S
C4526 C4534 1.574 . S
C4526 C4542 1.368 . S
H4527 C4535 0.950 . S
H4528 C4533 0.950 . S
H4529 C4534 0.949 . S
H4530 C4536 0.950 . S
H4531 C4537 0.950 . S
H4532 C4538 0.949 . S
C4533 H4528 0.950 . S
C4533 C4535 1.327 . S
C4533 C4539 1.429 1_556 S
C4534 C4526 1.574 . S
C4534 H4529 0.949 . S
C4534 C4540 1.368 . S
C4535 C4519 1.349 1_556 S
C4535 H4527 0.950 . S
C4535 C4533 1.327 . S
C4536 C4524 1.315 1_554 S
C4536 H4530 0.950 . S
C4536 C4537 1.327 . S
C4537 H4531 0.950 . S
C4537 C4536 1.327 . S
C4537 C4541 1.458 . S
C4538 C4521 1.574 . S
C4538 H4532 0.949 . S
C4538 C4542 1.368 1_556 S
C4539 C4520 1.429 . S
C4539 C4533 1.429 1_554 S
C4539 C4540 1.523 . S
C4540 C4521 1.368 1_554 S
C4540 C4534 1.368 . S
C4540 C4539 1.523 . S
C4541 C4525 1.398 1_554 S
C4541 C4537 1.458 . S
C4541 C4542 1.526 . S
C4542 C4526 1.368 . S
C4542 C4538 1.368 1_554 S
C4542 C4541 1.526 . S
H4543 C4518 0.950 . S
H4544 C4520 0.950 . S
H4545 C4521 0.949 . S
H4546 C4523 0.950 . S
H4547 C4525 0.950 . S
C4548 C4549 1.349 . S
C4548 C4550 1.327 . S
C4548 H4573 0.950 . S
C4549 C4548 1.349 . S
C4549 C4565 1.349 . S
C4550 C4548 1.327 . S
C4550 C4569 1.429 . S
C4550 H4574 0.950 . S
C4551 C4568 1.574 . S
C4551 C4570 1.368 . S
C4551 H4575 0.949 . S
H4552 C4556 0.949 . S
C4553 C4554 1.349 . S
C4553 C4555 1.327 . S
C4553 H4576 0.950 . S
C4554 C4553 1.349 . S
C4554 C4566 1.349 . S
C4555 C4553 1.327 . S
C4555 C4571 1.429 . S
C4555 H4577 0.950 . S
C4556 H4552 0.949 . S
C4556 C4564 1.574 . S
C4556 C4572 1.368 . S
H4557 C4565 0.950 . S
H4558 C4563 0.950 . S
H4559 C4564 0.949 . S
H4560 C4566 0.950 . S
H4561 C4567 0.950 . S
H4562 C4568 0.949 . S
C4563 H4558 0.950 . S
C4563 C4565 1.327 . S
C4563 C4569 1.429 . S
C4564 C4556 1.574 . S
C4564 H4559 0.949 . S
C4564 C4570 1.368 . S
C4565 C4549 1.349 . S
C4565 H4557 0.950 . S
C4565 C4563 1.327 . S
C4566 C4554 1.349 . S
C4566 H4560 0.950 . S
C4566 C4567 1.327 . S
C4567 H4561 0.950 . S
C4567 C4566 1.327 . S
C4567 C4571 1.429 . S
C4568 C4551 1.574 . S
C4568 H4562 0.949 . S
C4568 C4572 1.368 . S
C4569 C4550 1.429 . S
C4569 C4563 1.429 . S
C4569 C4570 1.523 . S
C4570 C4551 1.368 . S
C4570 C4564 1.368 . S
C4570 C4569 1.523 . S
C4571 C4555 1.429 . S
C4571 C4567 1.429 . S
C4571 C4572 1.523 . S
C4572 C4556 1.368 . S
C4572 C4568 1.368 . S
C4572 C4571 1.523 . S
H4573 C4548 0.950 . S
H4574 C4550 0.950 . S
H4575 C4551 0.949 . S
H4576 C4553 0.950 . S
H4577 C4555 0.950 . S
C4578 C4579 1.349 . S
C4578 C4580 1.327 . S
C4578 H4603 0.950 . S
C4579 C4578 1.349 . S
C4579 C4595 1.349 . S
C4580 C4578 1.327 . S
C4580 C4599 1.429 . S
C4580 H4604 0.950 . S
C4581 C4598 1.574 . S
C4581 C4600 1.368 . S
C4581 H4605 0.949 . S
H4582 C4586 0.949 . S
C4583 C4584 1.349 . S
C4583 C4585 1.327 . S
C4583 H4606 0.950 . S
C4584 C4583 1.349 . S
C4584 C4596 1.349 . S
C4585 C4583 1.327 . S
C4585 C4601 1.429 . S
C4585 H4607 0.950 . S
C4586 H4582 0.949 . S
C4586 C4594 1.574 . S
C4586 C4602 1.368 . S
H4587 C4595 0.950 . S
H4588 C4593 0.950 . S
H4589 C4594 0.949 . S
H4590 C4596 0.950 . S
H4591 C4597 0.950 . S
H4592 C4598 0.949 . S
C4593 H4588 0.950 . S
C4593 C4595 1.327 . S
C4593 C4599 1.429 . S
C4594 C4586 1.574 . S
C4594 H4589 0.949 . S
C4594 C4600 1.368 . S
C4595 C4579 1.349 . S
C4595 H4587 0.950 . S
C4595 C4593 1.327 . S
C4596 C4584 1.349 . S
C4596 H4590 0.950 . S
C4596 C4597 1.327 . S
C4597 H4591 0.950 . S
C4597 C4596 1.327 . S
C4597 C4601 1.429 . S
C4598 C4581 1.574 . S
C4598 H4592 0.949 . S
C4598 C4602 1.368 . S
C4599 C4580 1.429 . S
C4599 C4593 1.429 . S
C4599 C4600 1.523 . S
C4600 C4581 1.368 . S
C4600 C4594 1.368 . S
C4600 C4599 1.523 . S
C4601 C4585 1.429 . S
C4601 C4597 1.429 . S
C4601 C4602 1.523 . S
C4602 C4586 1.368 . S
C4602 C4598 1.368 . S
C4602 C4601 1.523 . S
H4603 C4578 0.950 . S
H4604 C4580 0.950 . S
H4605 C4581 0.949 . S
H4606 C4583 0.950 . S
H4607 C4585 0.950 . S
C4608 C4609 1.349 . S
C4608 C4610 1.327 . S
C4608 H4633 0.950 . S
C4609 C4608 1.349 . S
C4609 C4625 1.349 . S
C4610 C4608 1.327 . S
C4610 C4629 1.429 . S
C4610 H4634 0.950 . S
C4611 C4628 1.574 . S
C4611 C4630 1.368 . S
C4611 H4635 0.949 . S
H4612 C4616 0.949 . S
C4613 C4614 1.349 . S
C4613 C4615 1.327 . S
C4613 H4636 0.950 . S
C4614 C4613 1.349 . S
C4614 C4626 1.349 . S
C4615 C4613 1.327 . S
C4615 C4631 1.429 . S
C4615 H4637 0.950 . S
C4616 H4612 0.949 . S
C4616 C4624 1.574 . S
C4616 C4632 1.368 . S
H4617 C4625 0.950 . S
H4618 C4623 0.950 . S
H4619 C4624 0.949 . S
H4620 C4626 0.950 . S
H4621 C4627 0.950 . S
H4622 C4628 0.949 . S
C4623 H4618 0.950 . S
C4623 C4625 1.327 . S
C4623 C4629 1.429 . S
C4624 C4616 1.574 . S
C4624 H4619 0.949 . S
C4624 C4630 1.368 . S
C4625 C4609 1.349 . S
C4625 H4617 0.950 . S
C4625 C4623 1.327 . S
C4626 C4614 1.349 . S
C4626 H4620 0.950 . S
C4626 C4627 1.327 . S
C4627 H4621 0.950 . S
C4627 C4626 1.327 . S
C4627 C4631 1.429 . S
C4628 C4611 1.574 . S
C4628 H4622 0.949 . S
C4628 C4632 1.368 . S
C4629 C4610 1.429 . S
C4629 C4623 1.429 . S
C4629 C4630 1.523 . S
C4630 C4611 1.368 . S
C4630 C4624 1.368 . S
C4630 C4629 1.523 . S
C4631 C4615 1.429 . S
C4631 C4627 1.429 . S
C4631 C4632 1.523 . S
C4632 C4616 1.368 . S
C4632 C4628 1.368 . S
C4632 C4631 1.523 . S
H4633 C4608 0.950 . S
H4634 C4610 0.950 . S
H4635 C4611 0.949 . S
H4636 C4613 0.950 . S
H4637 C4615 0.950 . S
C4638 C4639 1.349 . S
C4638 C4640 1.327 . S
C4638 H4663 0.950 . S
C4639 C4638 1.349 . S
C4639 C4655 1.349 . S
C4640 C4638 1.327 . S
C4640 C4659 1.429 . S
C4640 H4664 0.950 . S
C4641 C4658 1.574 . S
C4641 C4660 1.368 . S
C4641 H4665 0.949 . S
H4642 C4646 0.949 . S
C4643 C4644 1.349 . S
C4643 C4645 1.327 . S
C4643 H4666 0.950 . S
C4644 C4643 1.349 . S
C4644 C4656 1.349 . S
C4645 C4643 1.327 . S
C4645 C4661 1.429 . S
C4645 H4667 0.950 . S
C4646 H4642 0.949 . S
C4646 C4654 1.574 . S
C4646 C4662 1.368 . S
H4647 C4655 0.950 . S
H4648 C4653 0.950 . S
H4649 C4654 0.949 . S
H4650 C4656 0.950 . S
H4651 C4657 0.950 . S
H4652 C4658 0.949 . S
C4653 H4648 0.950 . S
C4653 C4655 1.327 . S
C4653 C4659 1.429 . S
C4654 C4646 1.574 . S
C4654 H4649 0.949 . S
C4654 C4660 1.368 . S
C4655 C4639 1.349 . S
C4655 H4647 0.950 . S
C4655 C4653 1.327 . S
C4656 C4644 1.349 . S
C4656 H4650 0.950 . S
C4656 C4657 1.327 . S
C4657 H4651 0.950 . S
C4657 C4656 1.327 . S
C4657 C4661 1.429 . S
C4658 C4641 1.574 . S
C4658 H4652 0.949 . S
C4658 C4662 1.368 . S
C4659 C4640 1.429 . S
C4659 C4653 1.429 . S
C4659 C4660 1.523 . S
C4660 C4641 1.368 . S
C4660 C4654 1.368 . S
C4660 C4659 1.523 . S
C4661 C4645 1.429 . S
C4661 C4657 1.429 . S
C4661 C4662 1.523 . S
C4662 C4646 1.368 . S
C4662 C4658 1.368 . S
C4662 C4661 1.523 . S
H4663 C4638 0.950 . S
H4664 C4640 0.950 . S
H4665 C4641 0.949 . S
H4666 C4643 0.950 . S
H4667 C4645 0.950 . S
C4668 C4669 1.371 . S
C4668 C4670 1.325 1_455 S
C4668 H4693 0.934 1_455 S
C4669 C4668 1.371 . S
C4669 C4685 1.349 . S
C4670 C4668 1.325 1_655 S
C4670 C4689 1.427 1_655 S
C4670 H4694 0.952 . S
C4671 C4688 1.574 . S
C4671 C4690 1.368 . S
C4671 H4695 0.949 . S
H4672 C4676 0.949 . S
C4673 C4674 1.349 1_455 S
C4673 C4675 1.327 . S
C4673 H4696 0.950 . S
C4674 C4673 1.349 1_655 S
C4674 C4686 1.349 . S
C4675 C4673 1.327 . S
C4675 C4691 1.437 . S
C4675 H4697 0.950 . S
C4676 H4672 0.949 . S
C4676 C4684 1.574 . S
C4676 C4692 1.368 1_655 S
H4677 C4685 0.950 . S
H4678 C4683 0.950 . S
H4679 C4684 0.949 . S
H4680 C4686 0.950 1_554 S
H4681 C4687 0.950 . S
H4682 C4688 0.949 . S
C4683 H4678 0.950 . S
C4683 C4685 1.327 . S
C4683 C4689 1.429 . S
C4684 C4676 1.574 . S
C4684 H4679 0.949 . S
C4684 C4690 1.368 1_655 S
C4685 C4669 1.349 . S
C4685 H4677 0.950 . S
C4685 C4683 1.327 . S
C4686 C4674 1.349 . S
C4686 H4680 0.950 1_556 S
C4686 C4687 1.327 . S
C4687 H4681 0.950 . S
C4687 C4686 1.327 . S
C4687 C4691 1.419 1_655 S
C4688 C4671 1.574 . S
C4688 H4682 0.949 . S
C4688 C4692 1.368 . S
C4689 C4670 1.427 1_455 S
C4689 C4683 1.429 . S
C4689 C4690 1.523 . S
C4690 C4671 1.368 . S
C4690 C4684 1.368 1_455 S
C4690 C4689 1.523 . S
C4691 C4675 1.437 . S
C4691 C4687 1.419 1_455 S
C4691 C4692 1.525 . S
C4692 C4676 1.368 1_455 S
C4692 C4688 1.368 . S
C4692 C4691 1.525 . S
H4693 C4668 0.934 1_655 S
H4694 C4670 0.952 . S
H4695 C4671 0.949 . S
H4696 C4673 0.950 . S
H4697 C4675 0.950 . S
C4698 C4699 1.349 . S
C4698 C4700 1.327 . S
C4698 H4723 0.950 . S
C4699 C4698 1.349 . S
C4699 C4715 1.349 . S
C4700 C4698 1.327 . S
C4700 C4719 1.429 . S
C4700 H4724 0.950 . S
C4701 C4718 1.574 . S
C4701 C4720 1.368 . S
C4701 H4725 0.949 . S
H4702 C4706 0.949 . S
C4703 C4704 1.349 . S
C4703 C4705 1.327 . S
C4703 H4726 0.950 . S
C4704 C4703 1.349 . S
C4704 C4716 1.349 . S
C4705 C4703 1.327 . S
C4705 C4721 1.429 . S
C4705 H4727 0.950 . S
C4706 H4702 0.949 . S
C4706 C4714 1.574 . S
C4706 C4722 1.368 . S
H4707 C4715 0.950 . S
H4708 C4713 0.950 . S
H4709 C4714 0.949 . S
H4710 C4716 0.950 . S
H4711 C4717 0.950 . S
H4712 C4718 0.949 . S
C4713 H4708 0.950 . S
C4713 C4715 1.327 . S
C4713 C4719 1.429 . S
C4714 C4706 1.574 . S
C4714 H4709 0.949 . S
C4714 C4720 1.368 . S
C4715 C4699 1.349 . S
C4715 H4707 0.950 . S
C4715 C4713 1.327 . S
C4716 C4704 1.349 . S
C4716 H4710 0.950 . S
C4716 C4717 1.327 . S
C4717 H4711 0.950 . S
C4717 C4716 1.327 . S
C4717 C4721 1.429 . S
C4718 C4701 1.574 . S
C4718 H4712 0.949 . S
C4718 C4722 1.368 . S
C4719 C4700 1.429 . S
C4719 C4713 1.429 . S
C4719 C4720 1.523 . S
C4720 C4701 1.368 . S
C4720 C4714 1.368 . S
C4720 C4719 1.523 . S
C4721 C4705 1.429 . S
C4721 C4717 1.429 . S
C4721 C4722 1.523 . S
C4722 C4706 1.368 . S
C4722 C4718 1.368 . S
C4722 C4721 1.523 . S
H4723 C4698 0.950 . S
H4724 C4700 0.950 . S
H4725 C4701 0.949 . S
H4726 C4703 0.950 . S
H4727 C4705 0.950 . S
C4728 C4729 1.349 . S
C4728 C4730 1.327 . S
C4728 H4753 0.950 . S
C4729 C4728 1.349 . S
C4729 C4745 1.349 . S
C4730 C4728 1.327 . S
C4730 C4749 1.429 . S
C4730 H4754 0.950 . S
C4731 C4748 1.574 . S
C4731 C4750 1.368 . S
C4731 H4755 0.949 . S
H4732 C4736 0.949 . S
C4733 C4734 1.349 . S
C4733 C4735 1.327 . S
C4733 H4756 0.950 . S
C4734 C4733 1.349 . S
C4734 C4746 1.349 . S
C4735 C4733 1.327 . S
C4735 C4751 1.429 . S
C4735 H4757 0.950 . S
C4736 H4732 0.949 . S
C4736 C4744 1.574 . S
C4736 C4752 1.368 . S
H4737 C4745 0.950 . S
H4738 C4743 0.950 . S
H4739 C4744 0.949 . S
H4740 C4746 0.950 . S
H4741 C4747 0.950 . S
H4742 C4748 0.949 . S
C4743 H4738 0.950 . S
C4743 C4745 1.327 . S
C4743 C4749 1.429 . S
C4744 C4736 1.574 . S
C4744 H4739 0.949 . S
C4744 C4750 1.368 . S
C4745 C4729 1.349 . S
C4745 H4737 0.950 . S
C4745 C4743 1.327 . S
C4746 C4734 1.349 . S
C4746 H4740 0.950 . S
C4746 C4747 1.327 . S
C4747 H4741 0.950 . S
C4747 C4746 1.327 . S
C4747 C4751 1.429 . S
C4748 C4731 1.574 . S
C4748 H4742 0.949 . S
C4748 C4752 1.368 . S
C4749 C4730 1.429 . S
C4749 C4743 1.429 . S
C4749 C4750 1.523 . S
C4750 C4731 1.368 . S
C4750 C4744 1.368 . S
C4750 C4749 1.523 . S
C4751 C4735 1.429 . S
C4751 C4747 1.429 . S
C4751 C4752 1.523 . S
C4752 C4736 1.368 . S
C4752 C4748 1.368 . S
C4752 C4751 1.523 . S
H4753 C4728 0.950 . S
H4754 C4730 0.950 . S
H4755 C4731 0.949 . S
H4756 C4733 0.950 . S
H4757 C4735 0.950 . S
C4758 C4759 1.349 . S
C4758 C4760 1.327 . S
C4758 H4783 0.950 . S
C4759 C4758 1.349 . S
C4759 C4775 1.349 . S
C4760 C4758 1.327 . S
C4760 C4779 1.429 . S
C4760 H4784 0.950 . S
C4761 C4778 1.574 . S
C4761 C4780 1.368 . S
C4761 H4785 0.949 . S
H4762 C4766 0.949 . S
C4763 C4764 1.349 . S
C4763 C4765 1.327 . S
C4763 H4786 0.950 . S
C4764 C4763 1.349 . S
C4764 C4776 1.349 . S
C4765 C4763 1.327 . S
C4765 C4781 1.429 . S
C4765 H4787 0.950 . S
C4766 H4762 0.949 . S
C4766 C4774 1.574 . S
C4766 C4782 1.368 . S
H4767 C4775 0.950 . S
H4768 C4773 0.950 . S
H4769 C4774 0.949 . S
H4770 C4776 0.950 . S
H4771 C4777 0.950 . S
H4772 C4778 0.949 . S
C4773 H4768 0.950 . S
C4773 C4775 1.327 . S
C4773 C4779 1.429 . S
C4774 C4766 1.574 . S
C4774 H4769 0.949 . S
C4774 C4780 1.368 . S
C4775 C4759 1.349 . S
C4775 H4767 0.950 . S
C4775 C4773 1.327 . S
C4776 C4764 1.349 . S
C4776 H4770 0.950 . S
C4776 C4777 1.327 . S
C4777 H4771 0.950 . S
C4777 C4776 1.327 . S
C4777 C4781 1.429 . S
C4778 C4761 1.574 . S
C4778 H4772 0.949 . S
C4778 C4782 1.368 . S
C4779 C4760 1.429 . S
C4779 C4773 1.429 . S
C4779 C4780 1.523 . S
C4780 C4761 1.368 . S
C4780 C4774 1.368 . S
C4780 C4779 1.523 . S
C4781 C4765 1.429 . S
C4781 C4777 1.429 . S
C4781 C4782 1.523 . S
C4782 C4766 1.368 . S
C4782 C4778 1.368 . S
C4782 C4781 1.523 . S
H4783 C4758 0.950 . S
H4784 C4760 0.950 . S
H4785 C4761 0.949 . S
H4786 C4763 0.950 . S
H4787 C4765 0.950 . S
C4788 C4789 1.349 . S
C4788 C4790 1.327 . S
C4788 H4813 0.950 . S
C4789 C4788 1.349 . S
C4789 C4805 1.349 1_455 S
C4790 C4788 1.327 . S
C4790 C4809 1.429 . S
C4790 H4814 0.950 . S
C4791 C4808 1.574 . S
C4791 C4810 1.368 1_655 S
C4791 H4815 0.949 . S
H4792 C4796 0.949 . S
C4793 C4794 1.349 . S
C4793 C4795 1.327 . S
C4793 H4816 0.950 . S
C4794 C4793 1.349 . S
C4794 C4806 1.349 1_655 S
C4795 C4793 1.327 . S
C4795 C4811 1.424 1_655 S
C4795 H4817 0.950 . S
C4796 H4792 0.949 . S
C4796 C4804 1.574 . S
C4796 C4812 1.404 . S
H4797 C4805 0.950 . S
H4798 C4803 0.950 . S
H4799 C4804 0.949 . S
H4800 C4806 0.950 . S
H4801 C4807 0.950 . S
H4802 C4808 0.949 . S
C4803 H4798 0.950 . S
C4803 C4805 1.327 . S
C4803 C4809 1.429 1_655 S
C4804 C4796 1.574 . S
C4804 H4799 0.949 . S
C4804 C4810 1.368 . S
C4805 C4789 1.349 1_655 S
C4805 H4797 0.950 . S
C4805 C4803 1.327 . S
C4806 C4794 1.349 1_455 S
C4806 H4800 0.950 . S
C4806 C4807 1.327 . S
C4807 H4801 0.950 . S
C4807 C4806 1.327 . S
C4807 C4811 1.432 . S
C4808 C4791 1.574 . S
C4808 H4802 0.949 . S
C4808 C4812 1.338 1_655 S
C4809 C4790 1.429 . S
C4809 C4803 1.429 1_455 S
C4809 C4810 1.523 . S
C4810 C4791 1.368 1_455 S
C4810 C4804 1.368 . S
C4810 C4809 1.523 . S
C4811 C4795 1.424 1_455 S
C4811 C4807 1.432 . S
C4811 C4812 1.522 . S
C4812 C4796 1.404 . S
C4812 C4808 1.338 1_455 S
C4812 C4811 1.522 . S
H4813 C4788 0.950 . S
H4814 C4790 0.950 . S
H4815 C4791 0.949 . S
H4816 C4793 0.950 . S
H4817 C4795 0.950 . S
C4818 C4819 1.349 . S
C4818 C4820 1.327 . S
C4818 H4843 0.950 . S
C4819 C4818 1.349 . S
C4819 C4835 1.349 . S
C4820 C4818 1.327 . S
C4820 C4839 1.429 . S
C4820 H4844 0.950 . S
C4821 C4838 1.574 . S
C4821 C4840 1.368 . S
C4821 H4845 0.949 . S
H4822 C4826 0.949 . S
C4823 C4824 1.349 . S
C4823 C4825 1.327 . S
C4823 H4846 0.950 . S
C4824 C4823 1.349 . S
C4824 C4836 1.349 . S
C4825 C4823 1.327 . S
C4825 C4841 1.429 . S
C4825 H4847 0.950 . S
C4826 H4822 0.949 . S
C4826 C4834 1.574 . S
C4826 C4842 1.368 . S
H4827 C4835 0.950 . S
H4828 C4833 0.950 . S
H4829 C4834 0.949 . S
H4830 C4836 0.950 . S
H4831 C4837 0.950 . S
H4832 C4838 0.949 . S
C4833 H4828 0.950 . S
C4833 C4835 1.327 . S
C4833 C4839 1.429 . S
C4834 C4826 1.574 . S
C4834 H4829 0.949 . S
C4834 C4840 1.368 . S
C4835 C4819 1.349 . S
C4835 H4827 0.950 . S
C4835 C4833 1.327 . S
C4836 C4824 1.349 . S
C4836 H4830 0.950 . S
C4836 C4837 1.327 . S
C4837 H4831 0.950 . S
C4837 C4836 1.327 . S
C4837 C4841 1.429 . S
C4838 C4821 1.574 . S
C4838 H4832 0.949 . S
C4838 C4842 1.368 . S
C4839 C4820 1.429 . S
C4839 C4833 1.429 . S
C4839 C4840 1.523 . S
C4840 C4821 1.368 . S
C4840 C4834 1.368 . S
C4840 C4839 1.523 . S
C4841 C4825 1.429 . S
C4841 C4837 1.429 . S
C4841 C4842 1.523 . S
C4842 C4826 1.368 . S
C4842 C4838 1.368 . S
C4842 C4841 1.523 . S
H4843 C4818 0.950 . S
H4844 C4820 0.950 . S
H4845 C4821 0.949 . S
H4846 C4823 0.950 . S
H4847 C4825 0.950 . S
C4848 C4849 1.349 . S
C4848 C4850 1.327 . S
C4848 H4873 0.950 . S
C4849 C4848 1.349 . S
C4849 C4865 1.349 . S
C4850 C4848 1.327 . S
C4850 C4869 1.429 . S
C4850 H4874 0.950 . S
C4851 C4868 1.574 . S
C4851 C4870 1.368 . S
C4851 H4875 0.949 . S
H4852 C4856 0.949 . S
C4853 C4854 1.349 . S
C4853 C4855 1.327 . S
C4853 H4876 0.950 . S
C4854 C4853 1.349 . S
C4854 C4866 1.349 . S
C4855 C4853 1.327 . S
C4855 C4871 1.429 . S
C4855 H4877 0.950 . S
C4856 H4852 0.949 . S
C4856 C4864 1.574 . S
C4856 C4872 1.368 . S
H4857 C4865 0.950 . S
H4858 C4863 0.950 . S
H4859 C4864 0.949 . S
H4860 C4866 0.950 . S
H4861 C4867 0.950 . S
H4862 C4868 0.949 . S
C4863 H4858 0.950 . S
C4863 C4865 1.327 . S
C4863 C4869 1.429 . S
C4864 C4856 1.574 . S
C4864 H4859 0.949 . S
C4864 C4870 1.368 . S
C4865 C4849 1.349 . S
C4865 H4857 0.950 . S
C4865 C4863 1.327 . S
C4866 C4854 1.349 . S
C4866 H4860 0.950 . S
C4866 C4867 1.327 . S
C4867 H4861 0.950 . S
C4867 C4866 1.327 . S
C4867 C4871 1.429 . S
C4868 C4851 1.574 . S
C4868 H4862 0.949 . S
C4868 C4872 1.368 . S
C4869 C4850 1.429 . S
C4869 C4863 1.429 . S
C4869 C4870 1.523 . S
C4870 C4851 1.368 . S
C4870 C4864 1.368 . S
C4870 C4869 1.523 . S
C4871 C4855 1.429 . S
C4871 C4867 1.429 . S
C4871 C4872 1.523 . S
C4872 C4856 1.368 . S
C4872 C4868 1.368 . S
C4872 C4871 1.523 . S
H4873 C4848 0.950 . S
H4874 C4850 0.950 . S
H4875 C4851 0.949 . S
H4876 C4853 0.950 . S
H4877 C4855 0.950 . S
C4878 C4879 1.349 . S
C4878 C4880 1.327 . S
C4878 H4903 0.950 . S
C4879 C4878 1.349 . S
C4879 C4895 1.349 . S
C4880 C4878 1.327 . S
C4880 C4899 1.429 . S
C4880 H4904 0.950 . S
C4881 C4898 1.574 . S
C4881 C4900 1.368 . S
C4881 H4905 0.949 . S
H4882 C4886 0.949 . S
C4883 C4884 1.349 . S
C4883 C4885 1.327 . S
C4883 H4906 0.950 . S
C4884 C4883 1.349 . S
C4884 C4896 1.349 . S
C4885 C4883 1.327 . S
C4885 C4901 1.429 . S
C4885 H4907 0.950 . S
C4886 H4882 0.949 . S
C4886 C4894 1.574 . S
C4886 C4902 1.368 . S
H4887 C4895 0.950 . S
H4888 C4893 0.950 . S
H4889 C4894 0.949 . S
H4890 C4896 0.950 . S
H4891 C4897 0.950 . S
H4892 C4898 0.949 . S
C4893 H4888 0.950 . S
C4893 C4895 1.327 . S
C4893 C4899 1.429 . S
C4894 C4886 1.574 . S
C4894 H4889 0.949 . S
C4894 C4900 1.368 . S
C4895 C4879 1.349 . S
C4895 H4887 0.950 . S
C4895 C4893 1.327 . S
C4896 C4884 1.349 . S
C4896 H4890 0.950 . S
C4896 C4897 1.327 . S
C4897 H4891 0.950 . S
C4897 C4896 1.327 . S
C4897 C4901 1.429 . S
C4898 C4881 1.574 . S
C4898 H4892 0.949 . S
C4898 C4902 1.368 . S
C4899 C4880 1.429 . S
C4899 C4893 1.429 . S
C4899 C4900 1.523 . S
C4900 C4881 1.368 . S
C4900 C4894 1.368 . S
C4900 C4899 1.523 . S
C4901 C4885 1.429 . S
C4901 C4897 1.429 . S
C4901 C4902 1.523 . S
C4902 C4886 1.368 . S
C4902 C4898 1.368 . S
C4902 C4901 1.523 . S
H4903 C4878 0.950 . S
H4904 C4880 0.950 . S
H4905 C4881 0.949 . S
H4906 C4883 0.950 . S
H4907 C4885 0.950 . S
C4908 C4909 1.349 . S
C4908 C4910 1.327 . S
C4908 H4933 0.950 . S
C4909 C4908 1.349 . S
C4909 C4925 1.349 . S
C4910 C4908 1.327 . S
C4910 C4929 1.429 . S
C4910 H4934 0.950 . S
C4911 C4928 1.574 . S
C4911 C4930 1.368 . S
C4911 H4935 0.949 . S
H4912 C4916 0.949 . S
C4913 C4914 1.349 . S
C4913 C4915 1.327 . S
C4913 H4936 0.950 . S
C4914 C4913 1.349 . S
C4914 C4926 1.349 . S
C4915 C4913 1.327 . S
C4915 C4931 1.429 . S
C4915 H4937 0.950 . S
C4916 H4912 0.949 . S
C4916 C4924 1.574 . S
C4916 C4932 1.368 . S
H4917 C4925 0.950 . S
H4918 C4923 0.950 . S
H4919 C4924 0.949 . S
H4920 C4926 0.950 . S
H4921 C4927 0.950 . S
H4922 C4928 0.949 . S
C4923 H4918 0.950 . S
C4923 C4925 1.327 . S
C4923 C4929 1.429 . S
C4924 C4916 1.574 . S
C4924 H4919 0.949 . S
C4924 C4930 1.368 . S
C4925 C4909 1.349 . S
C4925 H4917 0.950 . S
C4925 C4923 1.327 . S
C4926 C4914 1.349 . S
C4926 H4920 0.950 . S
C4926 C4927 1.327 . S
C4927 H4921 0.950 . S
C4927 C4926 1.327 . S
C4927 C4931 1.429 . S
C4928 C4911 1.574 . S
C4928 H4922 0.949 . S
C4928 C4932 1.368 . S
C4929 C4910 1.429 . S
C4929 C4923 1.429 . S
C4929 C4930 1.523 . S
C4930 C4911 1.368 . S
C4930 C4924 1.368 . S
C4930 C4929 1.523 . S
C4931 C4915 1.429 . S
C4931 C4927 1.429 . S
C4931 C4932 1.523 . S
C4932 C4916 1.368 . S
C4932 C4928 1.368 . S
C4932 C4931 1.523 . S
H4933 C4908 0.950 . S
H4934 C4910 0.950 . S
H4935 C4911 0.949 . S
H4936 C4913 0.950 . S
H4937 C4915 0.950 . S
C4938 C4939 1.349 . S
C4938 C4940 1.327 . S
C4938 H4963 0.950 . S
C4939 C4938 1.349 . S
C4939 C4955 1.349 . S
C4940 C4938 1.327 . S
C4940 C4959 1.429 . S
C4940 H4964 0.950 . S
C4941 C4958 1.574 . S
C4941 C4960 1.368 . S
C4941 H4965 0.949 . S
H4942 C4946 0.949 . S
C4943 C4944 1.349 . S
C4943 C4945 1.327 . S
C4943 H4966 0.950 . S
C4944 C4943 1.349 . S
C4944 C4956 1.349 . S
C4945 C4943 1.327 . S
C4945 C4961 1.429 . S
C4945 H4967 0.950 . S
C4946 H4942 0.949 . S
C4946 C4954 1.574 . S
C4946 C4962 1.368 . S
H4947 C4955 0.950 . S
H4948 C4953 0.950 . S
H4949 C4954 0.949 . S
H4950 C4956 0.950 . S
H4951 C4957 0.950 . S
H4952 C4958 0.949 . S
C4953 H4948 0.950 . S
C4953 C4955 1.327 . S
C4953 C4959 1.429 . S
C4954 C4946 1.574 . S
C4954 H4949 0.949 . S
C4954 C4960 1.368 . S
C4955 C4939 1.349 . S
C4955 H4947 0.950 . S
C4955 C4953 1.327 . S
C4956 C4944 1.349 . S
C4956 H4950 0.950 . S
C4956 C4957 1.327 . S
C4957 H4951 0.950 . S
C4957 C4956 1.327 . S
C4957 C4961 1.429 . S
C4958 C4941 1.574 . S
C4958 H4952 0.949 . S
C4958 C4962 1.368 . S
C4959 C4940 1.429 . S
C4959 C4953 1.429 . S
C4959 C4960 1.523 . S
C4960 C4941 1.368 . S
C4960 C4954 1.368 . S
C4960 C4959 1.523 . S
C4961 C4945 1.429 . S
C4961 C4957 1.429 . S
C4961 C4962 1.523 . S
C4962 C4946 1.368 . S
C4962 C4958 1.368 . S
C4962 C4961 1.523 . S
H4963 C4938 0.950 . S
H4964 C4940 0.950 . S
H4965 C4941 0.949 . S
H4966 C4943 0.950 . S
H4967 C4945 0.950 . S
C4968 C4969 1.349 . S
C4968 C4970 1.327 . S
C4968 H4993 0.950 . S
C4969 C4968 1.349 . S
C4969 C4985 1.349 . S
C4970 C4968 1.327 . S
C4970 C4989 1.429 . S
C4970 H4994 0.950 . S
C4971 C4988 1.574 . S
C4971 C4990 1.368 . S
C4971 H4995 0.949 . S
H4972 C4976 0.949 . S
C4973 C4974 1.349 . S
C4973 C4975 1.327 . S
C4973 H4996 0.950 . S
C4974 C4973 1.349 . S
C4974 C4986 1.349 . S
C4975 C4973 1.327 . S
C4975 C4991 1.429 . S
C4975 H4997 0.950 . S
C4976 H4972 0.949 . S
C4976 C4984 1.574 . S
C4976 C4992 1.368 . S
H4977 C4985 0.950 . S
H4978 C4983 0.950 . S
H4979 C4984 0.949 . S
H4980 C4986 0.950 . S
H4981 C4987 0.950 . S
H4982 C4988 0.949 . S
C4983 H4978 0.950 . S
C4983 C4985 1.327 . S
C4983 C4989 1.429 . S
C4984 C4976 1.574 . S
C4984 H4979 0.949 . S
C4984 C4990 1.368 . S
C4985 C4969 1.349 . S
C4985 H4977 0.950 . S
C4985 C4983 1.327 . S
C4986 C4974 1.349 . S
C4986 H4980 0.950 . S
C4986 C4987 1.327 . S
C4987 H4981 0.950 . S
C4987 C4986 1.327 . S
C4987 C4991 1.429 . S
C4988 C4971 1.574 . S
C4988 H4982 0.949 . S
C4988 C4992 1.368 . S
C4989 C4970 1.429 . S
C4989 C4983 1.429 . S
C4989 C4990 1.523 . S
C4990 C4971 1.368 . S
C4990 C4984 1.368 . S
C4990 C4989 1.523 . S
C4991 C4975 1.429 . S
C4991 C4987 1.429 . S
C4991 C4992 1.523 . S
C4992 C4976 1.368 . S
C4992 C4988 1.368 . S
C4992 C4991 1.523 . S
H4993 C4968 0.950 . S
H4994 C4970 0.950 . S
H4995 C4971 0.949 . S
H4996 C4973 0.950 . S
H4997 C4975 0.950 . S
C4998 C4999 1.349 . S
C4998 C5000 1.327 . S
C4998 H5023 0.950 . S
C4999 C4998 1.349 . S
C4999 C5015 1.349 . S
C5000 C4998 1.327 . S
C5000 C5019 1.429 . S
C5000 H5024 0.950 . S
C5001 C5018 1.574 . S
C5001 C5020 1.368 . S
C5001 H5025 0.949 . S
H5002 C5006 0.949 . S
C5003 C5004 1.349 . S
C5003 C5005 1.327 . S
C5003 H5026 0.950 . S
C5004 C5003 1.349 . S
C5004 C5016 1.349 . S
C5005 C5003 1.327 . S
C5005 C5021 1.429 . S
C5005 H5027 0.950 . S
C5006 H5002 0.949 . S
C5006 C5014 1.574 . S
C5006 C5022 1.368 . S
H5007 C5015 0.950 . S
H5008 C5013 0.950 . S
H5009 C5014 0.949 . S
H5010 C5016 0.950 . S
H5011 C5017 0.950 . S
H5012 C5018 0.949 . S
C5013 H5008 0.950 . S
C5013 C5015 1.327 . S
C5013 C5019 1.429 . S
C5014 C5006 1.574 . S
C5014 H5009 0.949 . S
C5014 C5020 1.368 . S
C5015 C4999 1.349 . S
C5015 H5007 0.950 . S
C5015 C5013 1.327 . S
C5016 C5004 1.349 . S
C5016 H5010 0.950 . S
C5016 C5017 1.327 . S
C5017 H5011 0.950 . S
C5017 C5016 1.327 . S
C5017 C5021 1.429 . S
C5018 C5001 1.574 . S
C5018 H5012 0.949 . S
C5018 C5022 1.368 . S
C5019 C5000 1.429 . S
C5019 C5013 1.429 . S
C5019 C5020 1.523 . S
C5020 C5001 1.368 . S
C5020 C5014 1.368 . S
C5020 C5019 1.523 . S
C5021 C5005 1.429 . S
C5021 C5017 1.429 . S
C5021 C5022 1.523 . S
C5022 C5006 1.368 . S
C5022 C5018 1.368 . S
C5022 C5021 1.523 . S
H5023 C4998 0.950 . S
H5024 C5000 0.950 . S
H5025 C5001 0.949 . S
H5026 C5003 0.950 . S
H5027 C5005 0.950 . S
C5028 C5029 1.349 . S
C5028 C5030 1.327 . S
C5028 H5053 0.950 . S
C5029 C5028 1.349 . S
C5029 C5045 1.349 . S
C5030 C5028 1.327 . S
C5030 C5049 1.429 . S
C5030 H5054 0.950 . S
C5031 C5048 1.574 . S
C5031 C5050 1.368 . S
C5031 H5055 0.949 . S
H5032 C5036 0.949 . S
C5033 C5034 1.349 . S
C5033 C5035 1.327 . S
C5033 H5056 0.950 . S
C5034 C5033 1.349 . S
C5034 C5046 1.349 . S
C5035 C5033 1.327 . S
C5035 C5051 1.429 . S
C5035 H5057 0.950 . S
C5036 H5032 0.949 . S
C5036 C5044 1.574 . S
C5036 C5052 1.368 . S
H5037 C5045 0.950 . S
H5038 C5043 0.950 . S
H5039 C5044 0.949 . S
H5040 C5046 0.950 . S
H5041 C5047 0.950 . S
H5042 C5048 0.949 . S
C5043 H5038 0.950 . S
C5043 C5045 1.327 . S
C5043 C5049 1.429 . S
C5044 C5036 1.574 . S
C5044 H5039 0.949 . S
C5044 C5050 1.368 . S
C5045 C5029 1.349 . S
C5045 H5037 0.950 . S
C5045 C5043 1.327 . S
C5046 C5034 1.349 . S
C5046 H5040 0.950 . S
C5046 C5047 1.327 . S
C5047 H5041 0.950 . S
C5047 C5046 1.327 . S
C5047 C5051 1.429 . S
C5048 C5031 1.574 . S
C5048 H5042 0.949 . S
C5048 C5052 1.368 . S
C5049 C5030 1.429 . S
C5049 C5043 1.429 . S
C5049 C5050 1.523 . S
C5050 C5031 1.368 . S
C5050 C5044 1.368 . S
C5050 C5049 1.523 . S
C5051 C5035 1.429 . S
C5051 C5047 1.429 . S
C5051 C5052 1.523 . S
C5052 C5036 1.368 . S
C5052 C5048 1.368 . S
C5052 C5051 1.523 . S
H5053 C5028 0.950 . S
H5054 C5030 0.950 . S
H5055 C5031 0.949 . S
H5056 C5033 0.950 . S
H5057 C5035 0.950 . S
C5058 C5059 1.349 . S
C5058 C5060 1.327 . S
C5058 H5083 0.950 . S
C5059 C5058 1.349 . S
C5059 C5075 1.349 . S
C5060 C5058 1.327 . S
C5060 C5079 1.429 . S
C5060 H5084 0.950 . S
C5061 C5078 1.574 . S
C5061 C5080 1.368 . S
C5061 H5085 0.949 . S
H5062 C5066 0.949 . S
C5063 C5064 1.349 . S
C5063 C5065 1.327 . S
C5063 H5086 0.950 . S
C5064 C5063 1.349 . S
C5064 C5076 1.349 . S
C5065 C5063 1.327 . S
C5065 C5081 1.429 . S
C5065 H5087 0.950 . S
C5066 H5062 0.949 . S
C5066 C5074 1.574 . S
C5066 C5082 1.368 . S
H5067 C5075 0.950 . S
H5068 C5073 0.950 . S
H5069 C5074 0.949 . S
H5070 C5076 0.950 . S
H5071 C5077 0.950 . S
H5072 C5078 0.949 . S
C5073 H5068 0.950 . S
C5073 C5075 1.327 . S
C5073 C5079 1.429 . S
C5074 C5066 1.574 . S
C5074 H5069 0.949 . S
C5074 C5080 1.368 . S
C5075 C5059 1.349 . S
C5075 H5067 0.950 . S
C5075 C5073 1.327 . S
C5076 C5064 1.349 . S
C5076 H5070 0.950 . S
C5076 C5077 1.327 . S
C5077 H5071 0.950 . S
C5077 C5076 1.327 . S
C5077 C5081 1.429 . S
C5078 C5061 1.574 . S
C5078 H5072 0.949 . S
C5078 C5082 1.368 . S
C5079 C5060 1.429 . S
C5079 C5073 1.429 . S
C5079 C5080 1.523 . S
C5080 C5061 1.368 . S
C5080 C5074 1.368 . S
C5080 C5079 1.523 . S
C5081 C5065 1.429 . S
C5081 C5077 1.429 . S
C5081 C5082 1.523 . S
C5082 C5066 1.368 . S
C5082 C5078 1.368 . S
C5082 C5081 1.523 . S
H5083 C5058 0.950 . S
H5084 C5060 0.950 . S
H5085 C5061 0.949 . S
H5086 C5063 0.950 . S
H5087 C5065 0.950 . S
C5088 C5089 1.349 . S
C5088 C5090 1.327 . S
C5088 H5113 0.950 . S
C5089 C5088 1.349 . S
C5089 C5105 1.349 . S
C5090 C5088 1.327 . S
C5090 C5109 1.429 . S
C5090 H5114 0.950 . S
C5091 C5108 1.574 . S
C5091 C5110 1.368 . S
C5091 H5115 0.949 . S
H5092 C5096 0.949 . S
C5093 C5094 1.349 . S
C5093 C5095 1.327 . S
C5093 H5116 0.950 . S
C5094 C5093 1.349 . S
C5094 C5106 1.349 . S
C5095 C5093 1.327 . S
C5095 C5111 1.429 . S
C5095 H5117 0.950 . S
C5096 H5092 0.949 . S
C5096 C5104 1.574 . S
C5096 C5112 1.368 . S
H5097 C5105 0.950 . S
H5098 C5103 0.950 . S
H5099 C5104 0.949 . S
H5100 C5106 0.950 . S
H5101 C5107 0.950 . S
H5102 C5108 0.949 . S
C5103 H5098 0.950 . S
C5103 C5105 1.327 . S
C5103 C5109 1.429 . S
C5104 C5096 1.574 . S
C5104 H5099 0.949 . S
C5104 C5110 1.368 . S
C5105 C5089 1.349 . S
C5105 H5097 0.950 . S
C5105 C5103 1.327 . S
C5106 C5094 1.349 . S
C5106 H5100 0.950 . S
C5106 C5107 1.327 . S
C5107 H5101 0.950 . S
C5107 C5106 1.327 . S
C5107 C5111 1.429 . S
C5108 C5091 1.574 . S
C5108 H5102 0.949 . S
C5108 C5112 1.368 . S
C5109 C5090 1.429 . S
C5109 C5103 1.429 . S
C5109 C5110 1.523 . S
C5110 C5091 1.368 . S
C5110 C5104 1.368 . S
C5110 C5109 1.523 . S
C5111 C5095 1.429 . S
C5111 C5107 1.429 . S
C5111 C5112 1.523 . S
C5112 C5096 1.368 . S
C5112 C5108 1.368 . S
C5112 C5111 1.523 . S
H5113 C5088 0.950 . S
H5114 C5090 0.950 . S
H5115 C5091 0.949 . S
H5116 C5093 0.950 . S
H5117 C5095 0.950 . S
C5118 C5119 1.349 . S
C5118 C5120 1.327 . S
C5118 H5143 0.950 . S
C5119 C5118 1.349 . S
C5119 C5135 1.349 . S
C5120 C5118 1.327 . S
C5120 C5139 1.429 . S
C5120 H5144 0.950 . S
C5121 C5138 1.574 . S
C5121 C5140 1.368 . S
C5121 H5145 0.949 . S
H5122 C5126 0.949 . S
C5123 C5124 1.349 . S
C5123 C5125 1.327 . S
C5123 H5146 0.950 . S
C5124 C5123 1.349 . S
C5124 C5136 1.349 . S
C5125 C5123 1.327 . S
C5125 C5141 1.429 . S
C5125 H5147 0.950 . S
C5126 H5122 0.949 . S
C5126 C5134 1.574 . S
C5126 C5142 1.368 . S
H5127 C5135 0.950 . S
H5128 C5133 0.950 . S
H5129 C5134 0.949 . S
H5130 C5136 0.950 . S
H5131 C5137 0.950 . S
H5132 C5138 0.949 . S
C5133 H5128 0.950 . S
C5133 C5135 1.327 . S
C5133 C5139 1.429 . S
C5134 C5126 1.574 . S
C5134 H5129 0.949 . S
C5134 C5140 1.368 . S
C5135 C5119 1.349 . S
C5135 H5127 0.950 . S
C5135 C5133 1.327 . S
C5136 C5124 1.349 . S
C5136 H5130 0.950 . S
C5136 C5137 1.327 . S
C5137 H5131 0.950 . S
C5137 C5136 1.327 . S
C5137 C5141 1.429 . S
C5138 C5121 1.574 . S
C5138 H5132 0.949 . S
C5138 C5142 1.368 . S
C5139 C5120 1.429 . S
C5139 C5133 1.429 . S
C5139 C5140 1.523 . S
C5140 C5121 1.368 . S
C5140 C5134 1.368 . S
C5140 C5139 1.523 . S
C5141 C5125 1.429 . S
C5141 C5137 1.429 . S
C5141 C5142 1.523 . S
C5142 C5126 1.368 . S
C5142 C5138 1.368 . S
C5142 C5141 1.523 . S
H5143 C5118 0.950 . S
H5144 C5120 0.950 . S
H5145 C5121 0.949 . S
H5146 C5123 0.950 . S
H5147 C5125 0.950 . S
C5148 C5149 1.349 . S
C5148 C5150 1.327 . S
C5148 H5173 0.950 . S
C5149 C5148 1.349 . S
C5149 C5165 1.349 . S
C5150 C5148 1.327 . S
C5150 C5169 1.429 . S
C5150 H5174 0.950 . S
C5151 C5168 1.574 . S
C5151 C5170 1.368 . S
C5151 H5175 0.949 . S
H5152 C5156 0.949 . S
C5153 C5154 1.349 . S
C5153 C5155 1.327 . S
C5153 H5176 0.950 . S
C5154 C5153 1.349 . S
C5154 C5166 1.349 . S
C5155 C5153 1.327 . S
C5155 C5171 1.429 . S
C5155 H5177 0.950 . S
C5156 H5152 0.949 . S
C5156 C5164 1.574 . S
C5156 C5172 1.368 . S
H5157 C5165 0.950 . S
H5158 C5163 0.950 . S
H5159 C5164 0.949 . S
H5160 C5166 0.950 . S
H5161 C5167 0.950 . S
H5162 C5168 0.949 . S
C5163 H5158 0.950 . S
C5163 C5165 1.327 . S
C5163 C5169 1.429 . S
C5164 C5156 1.574 . S
C5164 H5159 0.949 . S
C5164 C5170 1.368 . S
C5165 C5149 1.349 . S
C5165 H5157 0.950 . S
C5165 C5163 1.327 . S
C5166 C5154 1.349 . S
C5166 H5160 0.950 . S
C5166 C5167 1.327 . S
C5167 H5161 0.950 . S
C5167 C5166 1.327 . S
C5167 C5171 1.429 . S
C5168 C5151 1.574 . S
C5168 H5162 0.949 . S
C5168 C5172 1.368 . S
C5169 C5150 1.429 . S
C5169 C5163 1.429 . S
C5169 C5170 1.523 . S
C5170 C5151 1.368 . S
C5170 C5164 1.368 . S
C5170 C5169 1.523 . S
C5171 C5155 1.429 . S
C5171 C5167 1.429 . S
C5171 C5172 1.523 . S
C5172 C5156 1.368 . S
C5172 C5168 1.368 . S
C5172 C5171 1.523 . S
H5173 C5148 0.950 . S
H5174 C5150 0.950 . S
H5175 C5151 0.949 . S
H5176 C5153 0.950 . S
H5177 C5155 0.950 . S
C5178 C5179 1.349 1_556 S
C5178 C5180 1.327 . S
C5178 H5203 0.950 . S
C5179 C5178 1.349 1_554 S
C5179 C5195 1.349 . S
C5180 C5178 1.327 . S
C5180 C5199 1.429 1_556 S
C5180 H5204 0.950 . S
C5181 C5198 1.574 . S
C5181 C5200 1.368 . S
C5181 H5205 0.949 . S
H5182 C5186 0.949 . S
C5183 C5184 1.349 1_554 S
C5183 C5185 1.327 . S
C5183 H5206 0.950 . S
C5184 C5183 1.349 1_556 S
C5184 C5196 1.349 . S
C5185 C5183 1.327 . S
C5185 C5201 1.428 1_554 S
C5185 H5207 0.950 . S
C5186 H5182 0.949 . S
C5186 C5194 1.574 . S
C5186 C5202 1.368 1_556 S
H5187 C5195 0.950 . S
H5188 C5193 0.950 . S
H5189 C5194 0.949 . S
H5190 C5196 0.950 . S
H5191 C5197 0.950 . S
H5192 C5198 0.949 . S
C5193 H5188 0.950 . S
C5193 C5195 1.327 . S
C5193 C5199 1.429 . S
C5194 C5186 1.574 . S
C5194 H5189 0.949 . S
C5194 C5200 1.368 1_556 S
C5195 C5179 1.349 . S
C5195 H5187 0.950 . S
C5195 C5193 1.327 . S
C5196 C5184 1.349 . S
C5196 H5190 0.950 . S
C5196 C5197 1.327 . S
C5197 H5191 0.950 . S
C5197 C5196 1.327 . S
C5197 C5201 1.429 . S
C5198 C5181 1.574 . S
C5198 H5192 0.949 . S
C5198 C5202 1.368 . S
C5199 C5180 1.429 1_554 S
C5199 C5193 1.429 . S
C5199 C5200 1.523 . S
C5200 C5181 1.368 . S
C5200 C5194 1.368 1_554 S
C5200 C5199 1.523 . S
C5201 C5185 1.428 1_556 S
C5201 C5197 1.429 . S
C5201 C5202 1.523 1_556 S
C5202 C5186 1.368 1_554 S
C5202 C5198 1.368 . S
C5202 C5201 1.523 1_554 S
H5203 C5178 0.950 . S
H5204 C5180 0.950 . S
H5205 C5181 0.949 . S
H5206 C5183 0.950 . S
H5207 C5185 0.950 . S
C5208 C5209 1.349 . S
C5208 C5210 1.327 . S
C5208 H5233 0.950 . S
C5209 C5208 1.349 . S
C5209 C5225 1.349 . S
C5210 C5208 1.327 . S
C5210 C5229 1.429 . S
C5210 H5234 0.950 . S
C5211 C5228 1.574 . S
C5211 C5230 1.368 . S
C5211 H5235 0.949 . S
H5212 C5216 0.949 . S
C5213 C5214 1.349 . S
C5213 C5215 1.327 . S
C5213 H5236 0.950 . S
C5214 C5213 1.349 . S
C5214 C5226 1.349 . S
C5215 C5213 1.327 . S
C5215 C5231 1.429 . S
C5215 H5237 0.950 . S
C5216 H5212 0.949 . S
C5216 C5224 1.574 . S
C5216 C5232 1.368 . S
H5217 C5225 0.950 . S
H5218 C5223 0.950 . S
H5219 C5224 0.949 . S
H5220 C5226 0.950 . S
H5221 C5227 0.950 . S
H5222 C5228 0.949 . S
C5223 H5218 0.950 . S
C5223 C5225 1.327 . S
C5223 C5229 1.429 . S
C5224 C5216 1.574 . S
C5224 H5219 0.949 . S
C5224 C5230 1.368 . S
C5225 C5209 1.349 . S
C5225 H5217 0.950 . S
C5225 C5223 1.327 . S
C5226 C5214 1.349 . S
C5226 H5220 0.950 . S
C5226 C5227 1.327 . S
C5227 H5221 0.950 . S
C5227 C5226 1.327 . S
C5227 C5231 1.429 . S
C5228 C5211 1.574 . S
C5228 H5222 0.949 . S
C5228 C5232 1.368 . S
C5229 C5210 1.429 . S
C5229 C5223 1.429 . S
C5229 C5230 1.523 . S
C5230 C5211 1.368 . S
C5230 C5224 1.368 . S
C5230 C5229 1.523 . S
C5231 C5215 1.429 . S
C5231 C5227 1.429 . S
C5231 C5232 1.523 . S
C5232 C5216 1.368 . S
C5232 C5228 1.368 . S
C5232 C5231 1.523 . S
H5233 C5208 0.950 . S
H5234 C5210 0.950 . S
H5235 C5211 0.949 . S
H5236 C5213 0.950 . S
H5237 C5215 0.950 . S
C5238 C5239 1.349 1_556 S
C5238 C5240 1.327 . S
C5238 H5263 0.950 . S
C5239 C5238 1.349 1_554 S
C5239 C5255 1.349 . S
C5240 C5238 1.327 . S
C5240 C5259 1.429 1_556 S
C5240 H5264 0.950 . S
C5241 C5258 1.574 . S
C5241 C5260 1.368 . S
C5241 H5265 0.949 . S
H5242 C5246 0.949 . S
C5243 C5244 1.349 . S
C5243 C5245 1.327 . S
C5243 H5266 0.950 . S
C5244 C5243 1.349 . S
C5244 C5256 1.349 1_554 S
C5245 C5243 1.327 . S
C5245 C5261 1.429 . S
C5245 H5267 0.950 . S
C5246 H5242 0.949 . S
C5246 C5254 1.574 . S
C5246 C5262 1.368 1_556 S
H5247 C5255 0.950 . S
H5248 C5253 0.950 . S
H5249 C5254 0.949 . S
H5250 C5256 0.950 . S
H5251 C5257 0.950 . S
H5252 C5258 0.949 . S
C5253 H5248 0.950 . S
C5253 C5255 1.327 . S
C5253 C5259 1.429 . S
C5254 C5246 1.574 . S
C5254 H5249 0.949 . S
C5254 C5260 1.368 1_556 S
C5255 C5239 1.349 . S
C5255 H5247 0.950 . S
C5255 C5253 1.327 . S
C5256 C5244 1.349 1_556 S
C5256 H5250 0.950 . S
C5256 C5257 1.327 . S
C5257 H5251 0.950 . S
C5257 C5256 1.327 . S
C5257 C5261 1.429 1_556 S
C5258 C5241 1.574 . S
C5258 H5252 0.949 . S
C5258 C5262 1.368 . S
C5259 C5240 1.429 1_554 S
C5259 C5253 1.429 . S
C5259 C5260 1.523 . S
C5260 C5241 1.368 . S
C5260 C5254 1.368 1_554 S
C5260 C5259 1.523 . S
C5261 C5245 1.429 . S
C5261 C5257 1.429 1_554 S
C5261 C5262 1.523 . S
C5262 C5246 1.368 1_554 S
C5262 C5258 1.368 . S
C5262 C5261 1.523 . S
H5263 C5238 0.950 . S
H5264 C5240 0.950 . S
H5265 C5241 0.949 . S
H5266 C5243 0.950 . S
H5267 C5245 0.950 . S
C5268 C5269 1.349 . S
C5268 C5270 1.327 . S
C5268 H5293 0.950 . S
C5269 C5268 1.349 . S
C5269 C5285 1.349 . S
C5270 C5268 1.327 . S
C5270 C5289 1.429 . S
C5270 H5294 0.950 . S
C5271 C5288 1.574 . S
C5271 C5290 1.368 . S
C5271 H5295 0.949 . S
H5272 C5276 0.949 . S
C5273 C5274 1.349 . S
C5273 C5275 1.327 . S
C5273 H5296 0.950 . S
C5274 C5273 1.349 . S
C5274 C5286 1.349 . S
C5275 C5273 1.327 . S
C5275 C5291 1.429 . S
C5275 H5297 0.950 . S
C5276 H5272 0.949 . S
C5276 C5284 1.574 . S
C5276 C5292 1.368 . S
H5277 C5285 0.950 . S
H5278 C5283 0.950 . S
H5279 C5284 0.949 . S
H5280 C5286 0.950 . S
H5281 C5287 0.950 . S
H5282 C5288 0.949 . S
C5283 H5278 0.950 . S
C5283 C5285 1.327 . S
C5283 C5289 1.429 . S
C5284 C5276 1.574 . S
C5284 H5279 0.949 . S
C5284 C5290 1.368 . S
C5285 C5269 1.349 . S
C5285 H5277 0.950 . S
C5285 C5283 1.327 . S
C5286 C5274 1.349 . S
C5286 H5280 0.950 . S
C5286 C5287 1.327 . S
C5287 H5281 0.950 . S
C5287 C5286 1.327 . S
C5287 C5291 1.429 . S
C5288 C5271 1.574 . S
C5288 H5282 0.949 . S
C5288 C5292 1.368 . S
C5289 C5270 1.429 . S
C5289 C5283 1.429 . S
C5289 C5290 1.523 . S
C5290 C5271 1.368 . S
C5290 C5284 1.368 . S
C5290 C5289 1.523 . S
C5291 C5275 1.429 . S
C5291 C5287 1.429 . S
C5291 C5292 1.523 . S
C5292 C5276 1.368 . S
C5292 C5288 1.368 . S
C5292 C5291 1.523 . S
H5293 C5268 0.950 . S
H5294 C5270 0.950 . S
H5295 C5271 0.949 . S
H5296 C5273 0.950 . S
H5297 C5275 0.950 . S
C5298 C5299 1.349 . S
C5298 C5300 1.327 . S
C5298 H5323 0.950 . S
C5299 C5298 1.349 . S
C5299 C5315 1.349 . S
C5300 C5298 1.327 . S
C5300 C5319 1.429 . S
C5300 H5324 0.950 . S
C5301 C5318 1.574 . S
C5301 C5320 1.368 . S
C5301 H5325 0.949 . S
H5302 C5306 0.949 . S
C5303 C5304 1.349 . S
C5303 C5305 1.327 . S
C5303 H5326 0.950 . S
C5304 C5303 1.349 . S
C5304 C5316 1.349 . S
C5305 C5303 1.327 . S
C5305 C5321 1.429 . S
C5305 H5327 0.950 . S
C5306 H5302 0.949 . S
C5306 C5314 1.574 . S
C5306 C5322 1.368 . S
H5307 C5315 0.950 . S
H5308 C5313 0.950 . S
H5309 C5314 0.949 . S
H5310 C5316 0.950 . S
H5311 C5317 0.950 . S
H5312 C5318 0.949 . S
C5313 H5308 0.950 . S
C5313 C5315 1.327 . S
C5313 C5319 1.429 . S
C5314 C5306 1.574 . S
C5314 H5309 0.949 . S
C5314 C5320 1.368 . S
C5315 C5299 1.349 . S
C5315 H5307 0.950 . S
C5315 C5313 1.327 . S
C5316 C5304 1.349 . S
C5316 H5310 0.950 . S
C5316 C5317 1.327 . S
C5317 H5311 0.950 . S
C5317 C5316 1.327 . S
C5317 C5321 1.429 . S
C5318 C5301 1.574 . S
C5318 H5312 0.949 . S
C5318 C5322 1.368 . S
C5319 C5300 1.429 . S
C5319 C5313 1.429 . S
C5319 C5320 1.523 . S
C5320 C5301 1.368 . S
C5320 C5314 1.368 . S
C5320 C5319 1.523 . S
C5321 C5305 1.429 . S
C5321 C5317 1.429 . S
C5321 C5322 1.523 . S
C5322 C5306 1.368 . S
C5322 C5318 1.368 . S
C5322 C5321 1.523 . S
H5323 C5298 0.950 . S
H5324 C5300 0.950 . S
H5325 C5301 0.949 . S
H5326 C5303 0.950 . S
H5327 C5305 0.950 . S
C2454 C2127 1.052 . S
C2449 C49 1.126 . S
C2479 C137 0.978 . S
C2484 C2146 0.966 . S
C2509 C205 1.122 . S
C2514 C2169 1.035 . S
C2544 C2189 1.170 . S
C2539 C284 1.208 . S
C2569 C117 1.176 . S
C2574 C2210 1.141 . S
C2604 C2232 1.105 . S
C2599 C225 1.200 . S
C2634 C2254 0.942 . S
C2629 C321 0.955 . S
C2659 C29 1.119 . S
C2664 C2272 1.097 . S
C2689 C401 1.119 . S
C2694 C2128 1.097 . S
C2719 C497 1.210 . S
C2724 C2147 1.174 . S
C2754 C2170 0.966 . S
C2749 C585 0.978 . S
C2784 C2193 1.113 . S
C2779 C665 1.214 . S
C2809 C372 1.200 . S
C2814 C2214 1.105 . S
C2844 C2233 0.923 . S
C2839 C469 0.933 . S
C2874 C2255 1.170 . S
C2869 C557 1.208 . S
C2904 C2273 1.078 . S
C2899 C636 1.109 . S
C2934 C2129 1.080 . S
C2929 C673 1.109 . S
C2964 C2296 0.923 . S
C2959 C724 0.933 . S
C2989 C821 1.176 . S
C2994 C2318 1.141 . S
C3024 C2337 1.113 . S
C3019 C909 1.214 . S
C3049 C381 1.126 . S
C3054 C2277 1.036 . S
C3084 C2171 1.174 . S
C3079 C489 1.210 . S
C3109 C849 0.955 . S
C3114 C2359 0.942 . S
C3144 C2382 1.035 . S
C3139 C1017 1.122 . S
C3169 C1085 1.089 . S
C3174 C2130 1.006 . S
C3204 C2381 1.085 . S
C3199 C1201 1.100 . S
C3229 C1289 1.240 . S
C3234 C2172 1.138 . S
C3259 C1349 1.017 . S
C3264 C2356 0.988 . S
C3294 C2212 0.998 . S
C3289 C1193 1.029 . S
C3324 C2319 1.107 . S
C3319 C1281 1.209 . S
C3354 C2252 1.130 . S
C3349 C1340 1.144 . S
C3384 C2402 1.218 . S
C3379 C1076 1.233 . S
C3414 C2126 1.218 . S
C3409 C1428 1.233 . S
C3439 C1516 1.040 . S
C3444 C2380 1.007 . S
C3474 C2168 1.085 1_545 S
C3469 C1604 1.100 . S
C3499 C1701 1.163 . S
C3504 C2361 1.074 . S
C3529 C1457 1.209 . S
C3534 C2211 1.107 . S
C3559 C1545 1.142 . S
C3564 C2315 1.127 . S
C3594 C2251 0.988 . S
C3589 C1633 1.017 . S
C3619 C1729 1.075 . S
C3624 C2401 1.041 . S
C3649 C1721 1.075 . S
C3654 C2125 1.041 . S
C3679 C1789 1.142 . S
C3684 C2294 1.127 . S
C3709 C1868 1.029 . S
C3714 C2230 0.997 . S
C3739 C1956 1.163 . S
C3744 C2340 1.075 . S
C3774 C2400 1.006 . S
C3769 C1437 1.089 . S
C3804 C2167 1.007 . S
C3799 C1553 1.040 . S
C3834 C2192 1.130 . S
C3829 C1897 1.144 . S
C3864 C2148 1.138 . S
C3859 C2081 1.240 . S
C3889 C233 1.126 . S
C3894 C2424 1.036 . S
C3924 C2377 0.966 . S
C3919 C313 0.978 . S
C3954 C2442 1.035 . S
C3949 C20 1.122 . S
C3979 C108 1.209 . S
C3984 C2360 1.171 . S
C4009 C293 1.176 . S
C4014 C2297 1.141 . S
C4044 C2316 1.105 . S
C4039 C57 1.200 . S
C4074 C2338 0.942 . S
C4069 C145 0.955 . S
C4104 C2398 1.097 . S
C4099 C196 1.119 . S
C4134 C2419 1.097 . S
C4129 C1025 1.119 . S
C4159 C761 1.209 . S
C4164 C2378 1.174 . S
C4189 C841 0.978 . S
C4194 C2443 0.966 . S
C4224 C2358 1.113 . S
C4219 C929 1.214 . S
C4254 C2295 1.105 . S
C4249 C997 1.200 . S
C4279 C733 0.933 . S
C4284 C2317 0.923 . S
C4314 C2339 1.170 . S
C4309 C812 1.208 . S
C4339 C900 1.109 . S
C4344 C2399 1.078 . S
C4374 C2420 1.078 . S
C4369 C937 1.109 . S
C4404 C2209 0.923 . S
C4399 C460 0.933 . S
C4434 C2234 1.141 . S
C4429 C548 1.176 . S
C4459 C645 1.214 . S
C4464 C2253 1.113 . S
C4494 C2403 1.036 . S
C4489 C988 1.126 . S
C4519 C753 1.210 . S
C4524 C2444 1.174 . S
C4554 C2188 0.942 . S
C4549 C577 0.955 . S
C4584 C2151 1.035 . S
C4579 C409 1.122 . S
C4609 C1261 1.089 . S
C4614 C2421 1.006 . S
C4644 C2150 1.085 . S
C4639 C1377 1.100 . S
C4674 C2445 1.138 . S
C4669 C1113 1.240 . S
C4699 C1173 1.017 . S
C4704 C2191 0.988 . S
C4729 C1369 1.029 . S
C4734 C2293 0.998 . S
C4759 C1105 1.209 . S
C4764 C2235 1.107 . S
C4789 C1164 1.144 . S
C4794 C2336 1.130 . S
C4819 C1252 1.233 . S
C4824 C2276 1.218 . S
C4854 C2423 1.218 . S
C4849 C2044 1.232 . S
C4879 C1780 1.040 . S
C4884 C2149 1.007 . S
C4914 C2441 1.086 . S
C4909 C1877 1.100 . S
C4939 C1965 1.163 . S
C4944 C2190 1.075 . S
C4969 C2073 1.209 . S
C4974 C2298 1.107 . S
C5004 C2231 1.127 . S
C4999 C1809 1.142 . S
C5029 C1905 1.017 . S
C5034 C2335 0.988 . S
C5064 C2275 1.041 . S
C5059 C1993 1.075 . S
C5094 C2422 1.041 . S
C5089 C1985 1.075 . S
C5124 C2213 1.127 . S
C5119 C1525 1.142 . S
C5149 C1613 1.029 . S
C5154 C2314 0.998 . S
C5184 C2256 1.075 . S
C5179 C1692 1.163 . S
C5214 C2274 1.006 . S
C5209 C2053 1.089 . S
C5239 C1817 1.040 . S
C5244 C2440 1.007 . S
C5274 C2357 1.130 . S
C5269 C1641 1.144 . S
C5304 C2379 1.138 . S
C5299 C1465 1.240 . S
