# Generated by pormake.
# Topology ibd, (4,6)-cn, num edge types: 1
# Building blocks:
#     Node 0, Type 0, BuildingBlock: GALJAG_clean_sbu_0, # of connection points: 4
#     Node 1, Type 0, BuildingBlock: GALJAG_clean_sbu_0, # of connection points: 4
#     Node 2, Type 0, BuildingBlock: GALJAG_clean_sbu_0, # of connection points: 4
#     Node 3, Type 0, BuildingBlock: GALJAG_clean_sbu_0, # of connection points: 4
#     Node 4, Type 0, BuildingBlock: GALJAG_clean_sbu_0, # of connection points: 4
#     Node 5, Type 0, BuildingBlock: GALJAG_clean_sbu_0, # of connection points: 4
#     Node 6, Type 0, BuildingBlock: GALJAG_clean_sbu_0, # of connection points: 4
#     Node 7, Type 0, BuildingBlock: GALJAG_clean_sbu_0, # of connection points: 4
#     Node 8, Type 0, BuildingBlock: GALJAG_clean_sbu_0, # of connection points: 4
#     Node 9, Type 0, BuildingBlock: GALJAG_clean_sbu_0, # of connection points: 4
#     Node 10, Type 0, BuildingBlock: GALJAG_clean_sbu_0, # of connection points: 4
#     Node 11, Type 0, BuildingBlock: GALJAG_clean_sbu_0, # of connection points: 4
#     Node 12, Type 0, BuildingBlock: GALJAG_clean_sbu_0, # of connection points: 4
#     Node 13, Type 0, BuildingBlock: GALJAG_clean_sbu_0, # of connection points: 4
#     Node 14, Type 0, BuildingBlock: GALJAG_clean_sbu_0, # of connection points: 4
#     Node 15, Type 0, BuildingBlock: GALJAG_clean_sbu_0, # of connection points: 4
#     Node 16, Type 0, BuildingBlock: GALJAG_clean_sbu_0, # of connection points: 4
#     Node 17, Type 0, BuildingBlock: GALJAG_clean_sbu_0, # of connection points: 4
#     Node 18, Type 0, BuildingBlock: GALJAG_clean_sbu_0, # of connection points: 4
#     Node 19, Type 0, BuildingBlock: GALJAG_clean_sbu_0, # of connection points: 4
#     Node 20, Type 0, BuildingBlock: GALJAG_clean_sbu_0, # of connection points: 4
#     Node 21, Type 0, BuildingBlock: GALJAG_clean_sbu_0, # of connection points: 4
#     Node 22, Type 0, BuildingBlock: GALJAG_clean_sbu_0, # of connection points: 4
#     Node 23, Type 0, BuildingBlock: GALJAG_clean_sbu_0, # of connection points: 4
#     Node 24, Type 1, BuildingBlock: OJICUG_clean_sbu_0, # of connection points: 6
#     Node 25, Type 1, BuildingBlock: OJICUG_clean_sbu_0, # of connection points: 6
#     Node 26, Type 1, BuildingBlock: OJICUG_clean_sbu_0, # of connection points: 6
#     Node 27, Type 1, BuildingBlock: OJICUG_clean_sbu_0, # of connection points: 6
#     Node 28, Type 1, BuildingBlock: OJICUG_clean_sbu_0, # of connection points: 6
#     Node 29, Type 1, BuildingBlock: OJICUG_clean_sbu_0, # of connection points: 6
#     Node 30, Type 1, BuildingBlock: OJICUG_clean_sbu_0, # of connection points: 6
#     Node 31, Type 1, BuildingBlock: OJICUG_clean_sbu_0, # of connection points: 6
#     Node 32, Type 1, BuildingBlock: OJICUG_clean_sbu_0, # of connection points: 6
#     Node 33, Type 1, BuildingBlock: OJICUG_clean_sbu_0, # of connection points: 6
#     Node 34, Type 1, BuildingBlock: OJICUG_clean_sbu_0, # of connection points: 6
#     Node 35, Type 1, BuildingBlock: OJICUG_clean_sbu_0, # of connection points: 6
#     Node 36, Type 1, BuildingBlock: OJICUG_clean_sbu_0, # of connection points: 6
#     Node 37, Type 1, BuildingBlock: OJICUG_clean_sbu_0, # of connection points: 6
#     Node 38, Type 1, BuildingBlock: OJICUG_clean_sbu_0, # of connection points: 6
#     Node 39, Type 1, BuildingBlock: OJICUG_clean_sbu_0, # of connection points: 6
#     Edge 40, Type (0, 1), BuildingBlock: KIFKEQ_clean_linker_1, # of connection points: 2
#     Edge 41, Type (0, 1), BuildingBlock: KIFKEQ_clean_linker_1, # of connection points: 2
#     Edge 42, Type (0, 1), BuildingBlock: KIFKEQ_clean_linker_1, # of connection points: 2
#     Edge 43, Type (0, 1), BuildingBlock: KIFKEQ_clean_linker_1, # of connection points: 2
#     Edge 44, Type (0, 1), BuildingBlock: KIFKEQ_clean_linker_1, # of connection points: 2
#     Edge 45, Type (0, 1), BuildingBlock: KIFKEQ_clean_linker_1, # of connection points: 2
#     Edge 46, Type (0, 1), BuildingBlock: KIFKEQ_clean_linker_1, # of connection points: 2
#     Edge 47, Type (0, 1), BuildingBlock: KIFKEQ_clean_linker_1, # of connection points: 2
#     Edge 48, Type (0, 1), BuildingBlock: KIFKEQ_clean_linker_1, # of connection points: 2
#     Edge 49, Type (0, 1), BuildingBlock: KIFKEQ_clean_linker_1, # of connection points: 2
#     Edge 50, Type (0, 1), BuildingBlock: KIFKEQ_clean_linker_1, # of connection points: 2
#     Edge 51, Type (0, 1), BuildingBlock: KIFKEQ_clean_linker_1, # of connection points: 2
#     Edge 52, Type (0, 1), BuildingBlock: KIFKEQ_clean_linker_1, # of connection points: 2
#     Edge 53, Type (0, 1), BuildingBlock: KIFKEQ_clean_linker_1, # of connection points: 2
#     Edge 54, Type (0, 1), BuildingBlock: KIFKEQ_clean_linker_1, # of connection points: 2
#     Edge 55, Type (0, 1), BuildingBlock: KIFKEQ_clean_linker_1, # of connection points: 2
#     Edge 56, Type (0, 1), BuildingBlock: KIFKEQ_clean_linker_1, # of connection points: 2
#     Edge 57, Type (0, 1), BuildingBlock: KIFKEQ_clean_linker_1, # of connection points: 2
#     Edge 58, Type (0, 1), BuildingBlock: KIFKEQ_clean_linker_1, # of connection points: 2
#     Edge 59, Type (0, 1), BuildingBlock: KIFKEQ_clean_linker_1, # of connection points: 2
#     Edge 60, Type (0, 1), BuildingBlock: KIFKEQ_clean_linker_1, # of connection points: 2
#     Edge 61, Type (0, 1), BuildingBlock: KIFKEQ_clean_linker_1, # of connection points: 2
#     Edge 62, Type (0, 1), BuildingBlock: KIFKEQ_clean_linker_1, # of connection points: 2
#     Edge 63, Type (0, 1), BuildingBlock: KIFKEQ_clean_linker_1, # of connection points: 2
#     Edge 64, Type (0, 1), BuildingBlock: KIFKEQ_clean_linker_1, # of connection points: 2
#     Edge 65, Type (0, 1), BuildingBlock: KIFKEQ_clean_linker_1, # of connection points: 2
#     Edge 66, Type (0, 1), BuildingBlock: KIFKEQ_clean_linker_1, # of connection points: 2
#     Edge 67, Type (0, 1), BuildingBlock: KIFKEQ_clean_linker_1, # of connection points: 2
#     Edge 68, Type (0, 1), BuildingBlock: KIFKEQ_clean_linker_1, # of connection points: 2
#     Edge 69, Type (0, 1), BuildingBlock: KIFKEQ_clean_linker_1, # of connection points: 2
#     Edge 70, Type (0, 1), BuildingBlock: KIFKEQ_clean_linker_1, # of connection points: 2
#     Edge 71, Type (0, 1), BuildingBlock: KIFKEQ_clean_linker_1, # of connection points: 2
#     Edge 72, Type (0, 1), BuildingBlock: KIFKEQ_clean_linker_1, # of connection points: 2
#     Edge 73, Type (0, 1), BuildingBlock: KIFKEQ_clean_linker_1, # of connection points: 2
#     Edge 74, Type (0, 1), BuildingBlock: KIFKEQ_clean_linker_1, # of connection points: 2
#     Edge 75, Type (0, 1), BuildingBlock: KIFKEQ_clean_linker_1, # of connection points: 2
#     Edge 76, Type (0, 1), BuildingBlock: KIFKEQ_clean_linker_1, # of connection points: 2
#     Edge 77, Type (0, 1), BuildingBlock: KIFKEQ_clean_linker_1, # of connection points: 2
#     Edge 78, Type (0, 1), BuildingBlock: KIFKEQ_clean_linker_1, # of connection points: 2
#     Edge 79, Type (0, 1), BuildingBlock: KIFKEQ_clean_linker_1, # of connection points: 2
#     Edge 80, Type (0, 1), BuildingBlock: KIFKEQ_clean_linker_1, # of connection points: 2
#     Edge 81, Type (0, 1), BuildingBlock: KIFKEQ_clean_linker_1, # of connection points: 2
#     Edge 82, Type (0, 1), BuildingBlock: KIFKEQ_clean_linker_1, # of connection points: 2
#     Edge 83, Type (0, 1), BuildingBlock: KIFKEQ_clean_linker_1, # of connection points: 2
#     Edge 84, Type (0, 1), BuildingBlock: KIFKEQ_clean_linker_1, # of connection points: 2
#     Edge 85, Type (0, 1), BuildingBlock: KIFKEQ_clean_linker_1, # of connection points: 2
#     Edge 86, Type (0, 1), BuildingBlock: KIFKEQ_clean_linker_1, # of connection points: 2
#     Edge 87, Type (0, 1), BuildingBlock: KIFKEQ_clean_linker_1, # of connection points: 2
#     Edge 88, Type (0, 1), BuildingBlock: KIFKEQ_clean_linker_1, # of connection points: 2
#     Edge 89, Type (0, 1), BuildingBlock: KIFKEQ_clean_linker_1, # of connection points: 2
#     Edge 90, Type (0, 1), BuildingBlock: KIFKEQ_clean_linker_1, # of connection points: 2
#     Edge 91, Type (0, 1), BuildingBlock: KIFKEQ_clean_linker_1, # of connection points: 2
#     Edge 92, Type (0, 1), BuildingBlock: KIFKEQ_clean_linker_1, # of connection points: 2
#     Edge 93, Type (0, 1), BuildingBlock: KIFKEQ_clean_linker_1, # of connection points: 2
#     Edge 94, Type (0, 1), BuildingBlock: KIFKEQ_clean_linker_1, # of connection points: 2
#     Edge 95, Type (0, 1), BuildingBlock: KIFKEQ_clean_linker_1, # of connection points: 2
#     Edge 96, Type (0, 1), BuildingBlock: KIFKEQ_clean_linker_1, # of connection points: 2
#     Edge 97, Type (0, 1), BuildingBlock: KIFKEQ_clean_linker_1, # of connection points: 2
#     Edge 98, Type (0, 1), BuildingBlock: KIFKEQ_clean_linker_1, # of connection points: 2
#     Edge 99, Type (0, 1), BuildingBlock: KIFKEQ_clean_linker_1, # of connection points: 2
#     Edge 100, Type (0, 1), BuildingBlock: KIFKEQ_clean_linker_1, # of connection points: 2
#     Edge 101, Type (0, 1), BuildingBlock: KIFKEQ_clean_linker_1, # of connection points: 2
#     Edge 102, Type (0, 1), BuildingBlock: KIFKEQ_clean_linker_1, # of connection points: 2
#     Edge 103, Type (0, 1), BuildingBlock: KIFKEQ_clean_linker_1, # of connection points: 2
#     Edge 104, Type (0, 1), BuildingBlock: KIFKEQ_clean_linker_1, # of connection points: 2
#     Edge 105, Type (0, 1), BuildingBlock: KIFKEQ_clean_linker_1, # of connection points: 2
#     Edge 106, Type (0, 1), BuildingBlock: KIFKEQ_clean_linker_1, # of connection points: 2
#     Edge 107, Type (0, 1), BuildingBlock: KIFKEQ_clean_linker_1, # of connection points: 2
#     Edge 108, Type (0, 1), BuildingBlock: KIFKEQ_clean_linker_1, # of connection points: 2
#     Edge 109, Type (0, 1), BuildingBlock: KIFKEQ_clean_linker_1, # of connection points: 2
#     Edge 110, Type (0, 1), BuildingBlock: KIFKEQ_clean_linker_1, # of connection points: 2
#     Edge 111, Type (0, 1), BuildingBlock: KIFKEQ_clean_linker_1, # of connection points: 2
#     Edge 112, Type (0, 1), BuildingBlock: KIFKEQ_clean_linker_1, # of connection points: 2
#     Edge 113, Type (0, 1), BuildingBlock: KIFKEQ_clean_linker_1, # of connection points: 2
#     Edge 114, Type (0, 1), BuildingBlock: KIFKEQ_clean_linker_1, # of connection points: 2
#     Edge 115, Type (0, 1), BuildingBlock: KIFKEQ_clean_linker_1, # of connection points: 2
#     Edge 116, Type (0, 1), BuildingBlock: KIFKEQ_clean_linker_1, # of connection points: 2
#     Edge 117, Type (0, 1), BuildingBlock: KIFKEQ_clean_linker_1, # of connection points: 2
#     Edge 118, Type (0, 1), BuildingBlock: KIFKEQ_clean_linker_1, # of connection points: 2
#     Edge 119, Type (0, 1), BuildingBlock: KIFKEQ_clean_linker_1, # of connection points: 2
#     Edge 120, Type (0, 1), BuildingBlock: KIFKEQ_clean_linker_1, # of connection points: 2
#     Edge 121, Type (0, 1), BuildingBlock: KIFKEQ_clean_linker_1, # of connection points: 2
#     Edge 122, Type (0, 1), BuildingBlock: KIFKEQ_clean_linker_1, # of connection points: 2
#     Edge 123, Type (0, 1), BuildingBlock: KIFKEQ_clean_linker_1, # of connection points: 2
#     Edge 124, Type (0, 1), BuildingBlock: KIFKEQ_clean_linker_1, # of connection points: 2
#     Edge 125, Type (0, 1), BuildingBlock: KIFKEQ_clean_linker_1, # of connection points: 2
#     Edge 126, Type (0, 1), BuildingBlock: KIFKEQ_clean_linker_1, # of connection points: 2
#     Edge 127, Type (0, 1), BuildingBlock: KIFKEQ_clean_linker_1, # of connection points: 2
#     Edge 128, Type (0, 1), BuildingBlock: KIFKEQ_clean_linker_1, # of connection points: 2
#     Edge 129, Type (0, 1), BuildingBlock: KIFKEQ_clean_linker_1, # of connection points: 2
#     Edge 130, Type (0, 1), BuildingBlock: KIFKEQ_clean_linker_1, # of connection points: 2
#     Edge 131, Type (0, 1), BuildingBlock: KIFKEQ_clean_linker_1, # of connection points: 2
#     Edge 132, Type (0, 1), BuildingBlock: KIFKEQ_clean_linker_1, # of connection points: 2
#     Edge 133, Type (0, 1), BuildingBlock: KIFKEQ_clean_linker_1, # of connection points: 2
#     Edge 134, Type (0, 1), BuildingBlock: KIFKEQ_clean_linker_1, # of connection points: 2
#     Edge 135, Type (0, 1), BuildingBlock: KIFKEQ_clean_linker_1, # of connection points: 2
# Relax obj value: 0.277
# Max RMSD: 0.280
# Mean RMSD: 0.234
data_MOF--net-ibd--node1-GALJAG_clean_sbu_0--node2-OJICUG_clean_sbu_0--edge1-KIFKEQ_clean_linker_1
_symmetry_space_group_name_H-M    P1
_symmetry_Int_Tables_number       1
_symmetry_cell_setting            triclinic
loop_
_symmetry_equiv_pos_as_xyz
'x, y, z'
_cell_length_a     50.785857
_cell_length_b     50.832258
_cell_length_c     50.728553
_cell_angle_alpha  90.088652
_cell_angle_beta   89.964025
_cell_angle_gamma 89.980398
loop_
_atom_site_label
_atom_site_type_symbol
_atom_site_fract_x
_atom_site_fract_y
_atom_site_fract_z
_atom_type_partial_charge
In0 In 0.99137 0.24675 0.36708 0.0
O1 O 0.01999 0.24745 0.33247 0.0
O2 O 0.01417 0.21119 0.35227 0.0
C3 C 0.01122 0.28622 0.39594 0.0
C4 C 0.9507 0.26427 0.33786 0.0
C5 C 0.97693 0.21309 0.40497 0.0
O6 O 0.02441 0.27489 0.37811 0.0
O7 O 0.98801 0.27782 0.39885 0.0
O8 O 0.9622 0.21858 0.38573 0.0
O9 O -0.00102 0.2245 0.40502 0.0
C10 C 0.02558 0.22334 0.33395 0.0
O11 O 0.95543 0.24016 0.34099 0.0
O12 O 0.96651 0.27951 0.34937 0.0
In13 In 0.98889 0.75599 0.6147 0.0
O14 O 0.96209 0.78694 0.63248 0.0
O15 O 0.94885 0.74734 0.6332 0.0
C16 C 0.00752 0.79706 0.58748 0.0
C17 C 0.02355 0.73958 0.65136 0.0
C18 C 0.97864 0.71821 0.57888 0.0
O19 O 0.98368 0.79007 0.58655 0.0
O20 O 0.02197 0.78337 0.60239 0.0
O21 O 0.97099 0.71659 0.60245 0.0
O22 O 0.99123 0.73884 0.57345 0.0
C23 C 0.94435 0.77099 0.63923 0.0
O24 O 0.02335 0.73053 0.62825 0.0
O25 O 0.00667 0.7572 0.65576 0.0
In26 In 0.49358 0.73941 0.86324 0.0
O27 O 0.53053 0.71464 0.85624 0.0
O28 O 0.51697 0.73914 0.82523 0.0
C29 C 0.50983 0.77047 0.90305 0.0
C30 C 0.46007 0.7654 0.83204 0.0
C31 C 0.46727 0.69825 0.88347 0.0
O32 O 0.52088 0.77047 0.88083 0.0
O33 O 0.49076 0.75482 0.90514 0.0
O34 O 0.45606 0.71922 0.87644 0.0
O35 O 0.49184 0.69782 0.87984 0.0
C36 C 0.53389 0.72281 0.83304 0.0
O37 O 0.46292 0.74074 0.83092 0.0
O38 O 0.47422 0.77696 0.84891 0.0
In39 In 0.49129 0.23241 0.11682 0.0
O40 O 0.52354 0.20541 0.13236 0.0
O41 O 0.51327 0.2389 0.1552 0.0
C42 C 0.47866 0.19253 0.08424 0.0
C43 C 0.44927 0.25132 0.1429 0.0
C44 C 0.51025 0.2711 0.08663 0.0
O45 O 0.46655 0.19653 0.10556 0.0
O46 O 0.49687 0.20862 0.07947 0.0
O47 O 0.48665 0.26342 0.08521 0.0
O48 O 0.52429 0.25923 0.10337 0.0
C49 C 0.52746 0.2187 0.15296 0.0
O50 O 0.46246 0.26491 0.12689 0.0
O51 O 0.45682 0.22778 0.14522 0.0
In52 In 0.00065 0.72847 0.11697 0.0
O53 O 0.97358 0.76127 0.10237 0.0
O54 O 0.00314 0.74744 0.07638 0.0
C55 C 0.96129 0.7161 0.15018 0.0
C56 C 0.02028 0.68609 0.09217 0.0
C57 C 0.03936 0.74618 0.14811 0.0
O58 O 0.96512 0.70364 0.129 0.0
O59 O 0.9772 0.73464 0.15439 0.0
O60 O 0.03069 0.72296 0.14937 0.0
O61 O 0.02859 0.76053 0.13089 0.0
C62 C 0.98405 0.76281 0.07995 0.0
O63 O 0.03458 0.7037 0.10222 0.0
O64 O -0.00418 0.68963 0.09496 0.0
In65 In 0.47655 0.75378 0.37331 0.0
O66 O 0.49125 0.71485 0.39001 0.0
O67 O 0.48839 0.74747 0.41601 0.0
C68 C 0.44654 0.73494 0.33401 0.0
C69 C 0.44416 0.78858 0.39615 0.0
C70 C 0.52103 0.77095 0.35014 0.0
O71 O 0.45078 0.72217 0.35485 0.0
O72 O 0.4571 0.75734 0.3332 0.0
O73 O 0.50458 0.78618 0.36074 0.0
O74 O 0.51528 0.74689 0.35158 0.0
C75 C 0.49423 0.72356 0.41306 0.0
O76 O 0.46678 0.79464 0.38787 0.0
O77 O 0.43775 0.76479 0.39279 0.0
In78 In 0.49275 0.25834 0.62263 0.0
O79 O 0.51461 0.2202 0.61237 0.0
O80 O 0.49302 0.23928 0.58218 0.0
C81 C 0.53572 0.27945 0.64503 0.0
C82 C 0.46978 0.29595 0.59373 0.0
C83 C 0.45983 0.24206 0.66103 0.0
O84 O 0.53387 0.25517 0.64019 0.0
O85 O 0.51601 0.29296 0.63831 0.0
O86 O 0.45891 0.23295 0.63795 0.0
O87 O 0.47732 0.25919 0.66471 0.0
C88 C 0.50762 0.22032 0.58854 0.0
O89 O 0.45672 0.28057 0.60825 0.0
O90 O 0.49439 0.29246 0.5941 0.0
In91 In 0.00903 0.24077 0.86738 0.0
O92 O 0.00803 0.19836 0.88154 0.0
O93 O 0.04426 0.21918 0.88405 0.0
C94 C 0.96705 0.22748 0.83799 0.0
C95 C -0.00623 0.27371 0.90612 0.0
C96 C 0.04503 0.26206 0.83532 0.0
O97 O 0.9699 0.21941 0.8613 0.0
O98 O 0.98525 0.24214 0.82973 0.0
O99 O 0.03322 0.27528 0.85278 0.0
O100 O 0.03885 0.23803 0.8343 0.0
C101 C 0.03194 0.19806 0.88825 0.0
O102 O 0.98564 0.27589 0.8828 0.0
O103 O 0.00959 0.25503 0.90985 0.0
In104 In 0.36375 0.99018 0.2465 0.0
O105 O 0.33947 0.95289 0.24617 0.0
O106 O 0.35062 0.96876 0.28348 0.0
C107 C 0.39073 0.97085 0.20508 0.0
C108 C 0.32592 0.02362 0.23003 0.0
C109 C 0.39879 0.01004 0.28094 0.0
O110 O 0.37747 0.95661 0.22044 0.0
O111 O 0.39002 -0.00489 0.21028 0.0
O112 O 0.37713 0.02116 0.27621 0.0
O113 O 0.40263 0.98898 0.2684 0.0
C114 C 0.33861 0.95091 0.27098 0.0
O115 O 0.34925 0.02495 0.2217 0.0
O116 O 0.32183 0.00555 0.24642 0.0
In117 In 0.23142 0.12027 0.47099 0.0
O118 O 0.20217 0.13446 0.50168 0.0
O119 O 0.23634 0.1577 0.49481 0.0
C120 C 0.1973 0.09214 0.44208 0.0
C121 C 0.2551 0.1512 0.43562 0.0
C122 C 0.26026 0.08663 0.49988 0.0
O123 O 0.18983 0.10935 0.45831 0.0
O124 O 0.22186 0.08897 0.44067 0.0
O125 O 0.26765 0.09482 0.47767 0.0
O126 O 0.23799 0.09474 0.50713 0.0
C127 C 0.21526 0.15469 0.5076 0.0
O128 O 0.26765 0.13705 0.45169 0.0
O129 O 0.23033 0.14996 0.43752 0.0
In130 In 0.11084 -0.00097 0.76197 0.0
O131 O 0.09698 0.96651 0.78978 0.0
O132 O 0.07062 -0.00227 0.78158 0.0
C133 C 0.14836 0.9656 0.74516 0.0
C134 C 0.0856 0.0211 0.72105 0.0
C135 C 0.13776 0.03786 0.78529 0.0
O136 O 0.12542 0.96552 0.73567 0.0
O137 O 0.15222 0.98243 0.76297 0.0
O138 O 0.13634 0.03525 0.7606 0.0
O139 O 0.12548 0.0207 0.79849 0.0
C140 C 0.07447 0.97627 0.79329 0.0
O141 O 0.09259 0.03377 0.74122 0.0
O142 O 0.09136 -0.00306 0.72135 0.0
In143 In 0.2512 0.86665 0.97744 0.0
O144 O 0.2147 0.87912 0.00049 0.0
O145 O 0.24142 0.90882 0.98854 0.0
C146 C 0.22955 0.83259 0.9436 0.0
C147 C 0.28692 0.88827 0.94522 0.0
C148 C 0.27005 0.83974 0.01876 0.0
O149 O 0.2183 0.85379 0.95002 0.0
O150 O 0.25172 0.82878 0.95415 0.0
O151 O 0.28165 0.85974 0.00975 0.0
O152 O 0.24905 0.83364 0.00704 0.0
C153 C 0.22034 0.9032 0.0003 0.0
O154 O 0.29316 0.87829 0.96711 0.0
O155 O 0.26273 0.88722 0.93969 0.0
In156 In 0.22799 0.3668 -0.0002 0.0
O157 O 0.23074 0.33487 0.96856 0.0
O158 O 0.26442 0.34199 0.99235 0.0
C159 C 0.19578 0.39653 0.97043 0.0
C160 C 0.20211 0.33729 0.03515 0.0
C161 C 0.25966 0.40433 0.0192 0.0
O162 O 0.2153 0.38456 0.96081 0.0
O163 O 0.19267 0.39369 -0.00507 0.0
O164 O 0.24126 0.3943 0.03251 0.0
O165 O 0.26183 0.39566 -0.00399 0.0
C166 C 0.25427 0.329 0.9738 0.0
O167 O 0.22568 0.34432 0.03847 0.0
O168 O 0.19171 0.34514 0.01402 0.0
In169 In 0.73836 0.10766 0.98853 0.0
O170 O 0.72424 0.08655 0.02524 0.0
O171 O 0.70265 0.08078 0.98976 0.0
C172 C 0.76224 0.14643 0.01547 0.0
C173 C 0.77232 0.072 0.96905 0.0
C174 C 0.71191 0.13797 0.95435 0.0
O175 O 0.74306 0.13377 0.02478 0.0
O176 O 0.76956 0.13927 -0.00716 0.0
O177 O 0.73438 0.12868 0.94938 0.0
O178 O 0.70267 0.13187 0.97661 0.0
C179 C 0.70503 0.07559 0.01395 0.0
O180 O 0.75326 0.08105 0.95605 0.0
O181 O 0.77435 0.08087 0.99218 0.0
In182 In 0.12659 0.49235 0.22651 0.0
O183 O 0.14405 0.47048 0.26116 0.0
O184 O 0.1623 0.46562 0.22367 0.0
C185 C 0.08854 0.51549 0.25489 0.0
C186 C 0.15485 0.53259 0.20695 0.0
C187 C 0.09777 0.45899 0.19755 0.0
O188 O 0.10991 0.50806 0.26507 0.0
O189 O 0.08656 0.51148 0.23045 0.0
O190 O 0.10564 0.48081 0.18868 0.0
O191 O 0.10466 0.45401 0.2209 0.0
C192 C 0.16198 0.45967 0.24781 0.0
O193 O 0.14613 0.51426 0.19267 0.0
O194 O 0.14943 0.53053 0.23108 0.0
In195 In 0.75223 0.86952 0.49755 0.0
O196 O 0.75122 0.84163 0.46251 0.0
O197 O 0.78757 0.84659 0.48262 0.0
C198 C 0.71743 0.90287 0.4762 0.0
C199 C 0.72844 0.83612 0.53086 0.0
C200 C 0.78605 0.90395 0.51899 0.0
O201 O 0.7348 0.8913 0.46269 0.0
O202 O 0.71795 0.89794 0.50055 0.0
O203 O 0.77002 0.89076 0.5326 0.0
O204 O 0.7849 0.89988 0.4945 0.0
C205 C 0.77524 0.83563 0.46407 0.0
O206 O 0.75279 0.84081 0.53198 0.0
O207 O 0.7163 0.84807 0.51284 0.0
In208 In 0.86155 0.98505 0.2444 0.0
O209 O 0.89146 0.9899 0.27732 0.0
O210 O 0.87405 0.95222 0.27181 0.0
C211 C 0.82806 0.02253 0.26163 0.0
C212 C 0.89598 0.0005 0.20714 0.0
C213 C 0.83281 0.94529 0.22515 0.0
O214 O 0.85022 0.01876 0.27207 0.0
O215 O 0.82304 0.00773 0.24237 0.0
O216 O 0.84729 0.95939 0.2107 0.0
O217 O 0.83279 0.95136 0.24929 0.0
C218 C 0.89019 0.96616 0.28452 0.0
O219 O 0.87471 0.01262 0.2113 0.0
O220 O 0.89976 0.98087 0.22174 0.0
In221 In 0.26379 0.6209 0.49035 0.0
O222 O 0.28052 0.60238 0.45314 0.0
O223 O 0.30019 0.59492 0.48928 0.0
C224 C 0.23842 0.65558 0.45976 0.0
C225 C 0.23249 0.58416 0.5115 0.0
C226 C 0.28189 0.65377 0.52748 0.0
O227 O 0.26322 0.65451 0.46077 0.0
O228 O 0.2266 0.63919 0.47412 0.0
O229 O 0.25838 0.64586 0.52701 0.0
O230 O 0.29623 0.64525 0.50903 0.0
C231 C 0.29933 0.59115 0.46475 0.0
O232 O 0.25109 0.59469 0.52412 0.0
O233 O 0.23013 0.59164 0.48794 0.0
In234 In 0.36745 0.49087 0.75252 0.0
O235 O 0.39705 0.49655 0.78558 0.0
O236 O 0.38156 0.45815 0.77934 0.0
C237 C 0.33609 0.53025 0.76845 0.0
C238 C 0.4027 0.50874 0.7173 0.0
C239 C 0.33512 0.45385 0.73276 0.0
O240 O 0.34947 0.51668 0.78438 0.0
O241 O 0.33864 0.52396 0.74452 0.0
O242 O 0.35581 0.46097 0.72105 0.0
O243 O 0.33092 0.46526 0.75441 0.0
C244 C 0.39702 0.47265 0.7923 0.0
O245 O 0.38199 0.52118 0.72294 0.0
O246 O 0.40543 0.48716 0.72916 0.0
In247 In 0.61706 0.98855 0.74463 0.0
O248 O 0.64711 0.97675 0.77531 0.0
O249 O 0.62928 0.94605 0.75323 0.0
C250 C 0.58563 0.00688 0.78266 0.0
C251 C 0.65133 0.02076 0.72053 0.0
C252 C 0.5819 0.9788 0.70622 0.0
O253 O 0.58541 0.98295 0.77581 0.0
O254 O 0.60173 0.02123 0.77036 0.0
O255 O 0.60172 0.9643 0.70994 0.0
O256 O 0.57995 -0.00198 0.72179 0.0
C257 C 0.64518 0.95241 0.77121 0.0
O258 O 0.64635 -0.00198 0.71198 0.0
O259 O 0.63938 0.02699 0.74134 0.0
In260 In 0.74295 0.609 0.01831 0.0
O261 O 0.70518 0.62271 0.03793 0.0
O262 O 0.74151 0.63666 0.05347 0.0
C263 C 0.71068 0.57215 -0.00177 0.0
C264 C 0.7591 0.6422 0.98044 0.0
C265 C 0.78561 0.58613 0.03971 0.0
O266 O 0.71057 0.59564 0.9904 0.0
O267 O 0.727 0.56726 0.01627 0.0
O268 O 0.78552 0.59504 0.01654 0.0
O269 O 0.76422 0.58887 0.05205 0.0
C270 C 0.7167 0.63671 0.05492 0.0
O271 O 0.76213 0.61766 0.97865 0.0
O272 O 0.74811 0.64994 0.00136 0.0
In273 In 0.86614 0.49279 0.74115 0.0
O274 O 0.85145 0.4517 0.75148 0.0
O275 O 0.83216 0.48461 0.76881 0.0
C276 C 0.90425 0.47815 0.70747 0.0
C277 C 0.83686 0.52389 0.71 0.0
C278 C 0.89278 0.51122 0.78265 0.0
O279 O 0.88323 0.46526 0.71015 0.0
O280 O 0.9061 0.49825 0.7219 0.0
O281 O 0.87855 0.52573 0.76834 0.0
O282 O 0.89358 0.48728 0.77593 0.0
C283 C 0.83384 0.45994 0.76693 0.0
O284 O 0.84999 0.53273 0.72909 0.0
O285 O 0.83813 0.49933 0.70692 0.0
In286 In 0.75095 0.36841 0.49696 0.0
O287 O 0.714 0.38086 0.51943 0.0
O288 O 0.73432 0.40985 0.49733 0.0
C289 C 0.73155 0.3325 0.46321 0.0
C290 C 0.78986 0.39428 0.47274 0.0
C291 C 0.77066 0.34379 0.53952 0.0
O292 O 0.72185 0.35519 0.46549 0.0
O293 O 0.75103 0.32799 0.47787 0.0
O294 O 0.78493 0.35323 0.52156 0.0
O295 O 0.74627 0.34697 0.53618 0.0
C296 C 0.71507 0.40446 0.512 0.0
O297 O 0.78651 0.39518 0.4974 0.0
O298 O 0.77349 0.38029 0.46028 0.0
In299 In 0.62024 0.50025 0.23995 0.0
O300 O 0.60995 0.46829 0.2693 0.0
O301 O 0.58341 0.50046 0.26524 0.0
C302 C 0.65396 0.47093 0.21159 0.0
C303 C 0.58643 0.51749 0.20328 0.0
C304 C 0.64979 0.533 0.26923 0.0
O305 O 0.63665 0.46096 0.22626 0.0
O306 O 0.65448 0.49571 0.21142 0.0
O307 O 0.64027 0.53973 0.24732 0.0
O308 O 0.64469 0.50976 0.27607 0.0
C309 C 0.58878 0.47903 0.27657 0.0
O310 O 0.59814 0.53275 0.21902 0.0
O311 O 0.5915 0.49339 0.20628 0.0
Sc312 Sc 0.07922 0.13553 0.11027 0.0
Sc313 Sc 0.1092 0.08162 0.1418 0.0
Sc314 Sc 0.14124 0.11361 0.08947 0.0
O315 O 0.10988 0.1102 0.1139 0.0
C316 C 0.09273 0.12403 0.05071 0.0
C317 C 0.04947 0.08196 0.12374 0.0
C318 C 0.13271 0.05195 0.09151 0.0
C319 C 0.08641 0.13197 0.17218 0.0
C320 C 0.12884 0.17319 0.10118 0.0
C321 C 0.16926 0.09859 0.14363 0.0
O322 O 0.07595 0.12842 0.06876 0.0
O323 O 0.06972 0.0701 0.13227 0.0
O324 O 0.13965 0.0729 0.07986 0.0
O325 O 0.08016 0.14437 0.15138 0.0
O326 O 0.14522 0.15476 0.09717 0.0
O327 O 0.14855 0.08988 0.15456 0.0
O328 O 0.10433 0.16916 0.1042 0.0
O329 O 0.09586 0.10875 0.1719 0.0
O330 O 0.16978 0.10673 0.12 0.0
O331 O 0.04978 0.10579 0.11632 0.0
O332 O 0.11704 0.12045 0.05537 0.0
O333 O 0.12273 0.05164 0.11455 0.0
Sc334 Sc 0.13983 0.87341 0.39495 0.0
Sc335 Sc 0.08786 0.83625 0.36799 0.0
Sc336 Sc 0.11579 0.88823 0.33174 0.0
O337 O 0.11451 0.86593 0.36489 0.0
C338 C 0.12452 0.93111 0.37666 0.0
C339 C 0.08773 0.85939 0.42653 0.0
C340 C 0.05419 0.88245 0.34257 0.0
C341 C 0.13977 0.81074 0.39197 0.0
C342 C 0.17654 0.88091 0.34439 0.0
C343 C 0.10427 0.83174 0.30748 0.0
O344 O 0.13202 0.91483 0.39407 0.0
O345 O 0.07771 0.84618 0.40782 0.0
O346 O 0.07399 0.89379 0.3323 0.0
O347 O 0.14984 0.83265 0.39864 0.0
O348 O 0.15769 0.8848 0.32843 0.0
O349 O 0.09438 0.82244 0.32847 0.0
O350 O 0.17307 0.87729 0.36892 0.0
O351 O 0.11749 0.80877 0.38069 0.0
O352 O 0.11287 0.85508 0.30586 0.0
O353 O 0.11003 0.87046 0.4248 0.0
O354 O 0.11895 0.92446 0.35321 0.0
O355 O 0.05593 0.8613 0.35582 0.0
Sc356 Sc 0.39071 0.85484 0.61427 0.0
Sc357 Sc 0.32822 0.87775 0.59689 0.0
Sc358 Sc 0.36341 0.90883 0.64788 0.0
O359 O 0.36078 0.88052 0.61976 0.0
C360 C 0.38706 0.85801 0.67646 0.0
C361 C 0.3399 0.81814 0.60748 0.0
C362 C 0.30326 0.89337 0.6525 0.0
C363 C 0.3742 0.86573 0.55561 0.0
C364 C 0.42212 0.90773 0.62679 0.0
C365 C 0.33835 0.93907 0.59883 0.0
O366 O 0.39161 0.84551 0.65524 0.0
O367 O 0.32341 0.83676 0.60512 0.0
O368 O 0.32473 0.90087 0.66282 0.0
O369 O 0.39208 0.86233 0.57276 0.0
O370 O 0.4025 0.92001 0.63625 0.0
O371 O 0.33091 0.91837 0.58693 0.0
O372 O 0.42095 0.88393 0.61931 0.0
O373 O 0.35017 0.86924 0.56158 0.0
O374 O 0.34873 0.93897 0.62167 0.0
O375 O 0.3646 0.82194 0.60887 0.0
O376 O 0.37822 0.88146 0.67691 0.0
O377 O 0.30146 0.88599 0.62867 0.0
Sc378 Sc 0.36355 0.09494 0.83568 0.0
Sc379 Sc 0.39571 0.14322 0.87367 0.0
Sc380 Sc 0.34156 0.10902 0.89978 0.0
O381 O 0.36691 0.11585 0.86966 0.0
C382 C 0.3039 0.10559 0.84934 0.0
C383 C 0.37988 0.15139 0.81365 0.0
C384 C 0.34568 0.17127 0.89957 0.0
C385 C 0.42526 0.09539 0.84567 0.0
C386 C 0.35272 0.05131 0.8795 0.0
C387 C 0.39493 0.11839 0.93107 0.0
O388 O 0.3222 0.10289 0.83247 0.0
O389 O 0.38876 0.1599 0.83543 0.0
O390 O 0.33326 0.15001 0.90387 0.0
O391 O 0.40446 0.0851 0.83634 0.0
O392 O 0.34823 0.06748 0.89807 0.0
O393 O 0.40658 0.12974 0.91213 0.0
O394 O 0.3565 0.0584 0.85581 0.0
O395 O 0.42533 0.11687 0.85856 0.0
O396 O 0.37117 0.11087 0.9299 0.0
O397 O 0.37076 0.12832 0.8108 0.0
O398 O 0.30812 0.10644 0.87399 0.0
O399 O 0.36869 0.17197 0.8896 0.0
Sc400 Sc 0.64631 0.35971 0.89979 0.0
Sc401 Sc 0.59018 0.33719 0.86621 0.0
Sc402 Sc 0.62278 0.39425 0.84455 0.0
O403 O 0.61977 0.36372 0.87018 0.0
C404 C 0.63699 0.42133 0.89955 0.0
C405 C 0.59222 0.34458 0.92813 0.0
C406 C 0.56107 0.39145 0.85344 0.0
C407 C 0.63854 0.30041 0.88203 0.0
C408 C 0.68256 0.37783 0.85183 0.0
C409 C 0.60712 0.34654 0.80674 0.0
O410 O 0.64238 0.39995 0.91123 0.0
O411 O 0.57978 0.33968 0.90699 0.0
O412 O 0.58192 0.40423 0.84829 0.0
O413 O 0.6526 0.3189 0.89127 0.0
O414 O 0.66378 0.3871 0.83823 0.0
O415 O 0.59796 0.33215 0.82502 0.0
O416 O 0.67954 0.36847 0.87484 0.0
O417 O 0.61536 0.30393 0.87335 0.0
O418 O 0.61546 0.36977 0.81067 0.0
O419 O 0.61642 0.35087 0.92851 0.0
O420 O 0.63082 0.42252 0.87529 0.0
O421 O 0.56112 0.3671 0.85904 0.0
Sc422 Sc 0.89435 0.33135 0.11986 0.0
Sc423 Sc 0.87034 0.38957 0.14819 0.0
Sc424 Sc 0.84817 0.37011 0.08552 0.0
O425 O 0.87087 0.3636 0.11785 0.0
C426 C 0.9012 0.34841 0.06001 0.0
C427 C 0.9311 0.37675 0.14289 0.0
C428 C 0.86687 0.42805 0.09851 0.0
C429 C 0.87469 0.33488 0.17892 0.0
C430 C 0.8423 0.30836 0.09308 0.0
C431 C 0.81011 0.38637 0.13309 0.0
O432 O 0.90945 0.33767 0.081 0.0
O433 O 0.91234 0.39245 0.14813 0.0
O434 O 0.86037 0.41032 0.08212 0.0
O435 O 0.88206 0.3216 0.15905 0.0
O436 O 0.83377 0.3305 0.08521 0.0
O437 O 0.82829 0.38868 0.15013 0.0
O438 O 0.8639 0.30562 0.10543 0.0
O439 O 0.87089 0.35954 0.17799 0.0
O440 O 0.81441 0.38118 0.10893 0.0
O441 O 0.92754 0.35356 0.13418 0.0
O442 O 0.87911 0.36 0.05834 0.0
O443 O 0.86973 0.42351 0.12294 0.0
Sc444 Sc 0.86896 0.58638 0.33919 0.0
Sc445 Sc 0.90135 0.64135 0.36564 0.0
Sc446 Sc 0.84771 0.61348 0.39918 0.0
O447 O 0.87272 0.61372 0.36803 0.0
C448 C 0.80946 0.59995 0.35115 0.0
C449 C 0.8822 0.6383 0.30646 0.0
C450 C 0.85249 0.67429 0.38786 0.0
C451 C 0.93071 0.58979 0.3444 0.0
C452 C 0.85857 0.55281 0.3914 0.0
C453 C 0.90274 0.6279 0.42634 0.0
O454 O 0.82778 0.59384 0.33528 0.0
O455 O 0.89065 0.65136 0.32606 0.0
O456 O 0.83915 0.65437 0.39483 0.0
O457 O 0.90979 0.57678 0.34036 0.0
O458 O 0.8542 0.57253 0.40615 0.0
O459 O 0.91446 0.63394 0.40508 0.0
O460 O 0.86245 0.55479 0.36673 0.0
O461 O 0.93064 0.61361 0.35211 0.0
O462 O 0.8785 0.6217 0.42722 0.0
O463 O 0.87537 0.61431 0.30794 0.0
O464 O 0.81352 0.60555 0.37523 0.0
O465 O 0.87574 0.67262 0.3787 0.0
Sc466 Sc 0.887 0.82087 0.86277 0.0
Sc467 Sc 0.83346 0.84779 0.89767 0.0
Sc468 Sc 0.85545 0.87769 0.8398 0.0
O469 O 0.85866 0.84873 0.86676 0.0
C470 C 0.91694 0.87383 0.84698 0.0
C471 C 0.88809 0.83086 0.92414 0.0
C472 C 0.84429 0.90847 0.89383 0.0
C473 C 0.8371 0.78779 0.88219 0.0
C474 C 0.86904 0.82783 0.80371 0.0
C475 C 0.79587 0.86465 0.85001 0.0
O476 O 0.91682 0.84921 0.8515 0.0
O477 O 0.86382 0.83692 0.92544 0.0
O478 O 0.8477 0.90754 0.86901 0.0
O479 O 0.86074 0.78917 0.87393 0.0
O480 O 0.86272 0.85181 0.80694 0.0
O481 O 0.7997 0.85853 0.87401 0.0
O482 O 0.87677 0.81328 0.8225 0.0
O483 O 0.82407 0.80766 0.88992 0.0
O484 O 0.81445 0.87024 0.83425 0.0
O485 O 0.89984 0.82606 0.90258 0.0
O486 O 0.89614 0.88725 0.84368 0.0
O487 O 0.84077 0.88804 0.90775 0.0
Sc488 Sc 0.84288 0.12586 0.59749 0.0
Sc489 Sc 0.89781 0.15311 0.62919 0.0
Sc490 Sc 0.86913 0.09532 0.65374 0.0
O491 O 0.86995 0.12474 0.62681 0.0
C492 C 0.80847 0.1065 0.64642 0.0
C493 C 0.84627 0.18577 0.61365 0.0
C494 C 0.88238 0.14543 0.68913 0.0
C495 C 0.89527 0.14401 0.56782 0.0
C496 C 0.85621 0.06528 0.59975 0.0
C497 C 0.9303 0.10121 0.64367 0.0
O498 O 0.81094 0.11437 0.6228 0.0
O499 O 0.87023 0.18426 0.62079 0.0
O500 O 0.87633 0.1213 0.68667 0.0
O501 O 0.87116 0.13737 0.5681 0.0
O502 O 0.86184 0.06571 0.62417 0.0
O503 O 0.92891 0.12549 0.63785 0.0
O504 O 0.85028 0.08581 0.5868 0.0
O505 O 0.90832 0.14894 0.58856 0.0
O506 O 0.91018 0.0874 0.64898 0.0
O507 O 0.83315 0.16596 0.60591 0.0
O508 O 0.82793 0.1004 0.66086 0.0
O509 O 0.88955 0.15975 0.66996 0.0
Sc510 Sc 0.61412 0.08967 0.34804 0.0
Sc511 Sc 0.64313 0.11801 0.40335 0.0
Sc512 Sc 0.58769 0.14681 0.37491 0.0
O513 O 0.61497 0.11813 0.37551 0.0
C514 C 0.59946 0.14104 0.315 0.0
C515 C 0.67448 0.1008 0.35138 0.0
C516 C 0.64 0.17791 0.39038 0.0
C517 C 0.63064 0.05808 0.39999 0.0
C518 C 0.55434 0.09561 0.3599 0.0
C519 C 0.59151 0.13551 0.43526 0.0
O520 O 0.60234 0.11624 0.31693 0.0
O521 O 0.67356 0.10521 0.3761 0.0
O522 O 0.61525 0.17714 0.38659 0.0
O523 O 0.62588 0.0593 0.37539 0.0
O524 O 0.55634 0.12039 0.363 0.0
O525 O 0.61616 0.13084 0.43409 0.0
O526 O 0.57415 0.0806 0.35731 0.0
O527 O 0.63444 0.07837 0.41409 0.0
O528 O 0.57737 0.13909 0.41494 0.0
O529 O 0.65405 0.09734 0.33739 0.0
O530 O 0.59679 0.156 0.33487 0.0
O531 O 0.65384 0.15749 0.39414 0.0
Sc532 Sc 0.63931 0.85773 0.09893 0.0
Sc533 Sc 0.58126 0.83346 0.12798 0.0
Sc534 Sc 0.61217 0.88968 0.1542 0.0
O535 O 0.61088 0.86032 0.127 0.0
C536 C 0.67249 0.87377 0.14978 0.0
C537 C 0.63117 0.79776 0.11452 0.0
C538 C 0.59431 0.84056 0.18889 0.0
C539 C 0.58763 0.84304 0.0665 0.0
C540 C 0.62964 0.91942 0.10165 0.0
C541 C 0.55102 0.88699 0.14107 0.0
O542 O 0.67069 0.86468 0.12652 0.0
O543 O 0.60757 0.80056 0.1224 0.0
O544 O 0.60374 0.86357 0.18647 0.0
O545 O 0.61156 0.85016 0.06782 0.0
O546 O 0.62113 0.91927 0.12522 0.0
O547 O 0.55145 0.86312 0.1336 0.0
O548 O 0.63649 0.89867 0.08947 0.0
O549 O 0.57408 0.83683 0.08657 0.0
O550 O 0.57142 0.89913 0.1489 0.0
O551 O 0.64495 0.81668 0.10583 0.0
O552 O 0.65297 0.88318 0.16227 0.0
O553 O 0.58552 0.82738 0.16952 0.0
Sc554 Sc 0.34134 0.62675 0.08151 0.0
Sc555 Sc 0.40317 0.64822 0.10405 0.0
Sc556 Sc 0.3697 0.59737 0.13727 0.0
O557 O 0.37144 0.62406 0.10762 0.0
C558 C 0.31015 0.61613 0.13501 0.0
C559 C 0.35515 0.68661 0.09195 0.0
C560 C 0.39366 0.64782 0.16602 0.0
C561 C 0.39157 0.63429 0.04431 0.0
C562 C 0.34711 0.56502 0.0882 0.0
C563 C 0.43011 0.5942 0.12097 0.0
O564 O 0.31128 0.62322 0.11107 0.0
O565 O 0.37937 0.68255 0.09666 0.0
O566 O 0.38205 0.62567 0.16631 0.0
O567 O 0.36716 0.63037 0.04803 0.0
O568 O 0.35682 0.56637 0.11128 0.0
O569 O 0.43091 0.61712 0.11112 0.0
O570 O 0.34118 0.5852 0.07467 0.0
O571 O 0.40731 0.64014 0.06283 0.0
O572 O 0.40933 0.58437 0.13078 0.0
O573 O 0.33883 0.6684 0.08687 0.0
O574 O 0.3299 0.60713 0.14736 0.0
O575 O 0.4022 0.65846 0.14504 0.0
Sc576 Sc 0.11144 0.58997 0.83327 0.0
Sc577 Sc 0.14161 0.61514 0.89031 0.0
Sc578 Sc 0.08287 0.64331 0.86753 0.0
O579 O 0.11197 0.61613 0.86365 0.0
C580 C 0.09285 0.64325 0.80574 0.0
C581 C 0.17222 0.60356 0.8365 0.0
C582 C 0.13425 0.67627 0.8816 0.0
C583 C 0.12989 0.55453 0.88178 0.0
C584 C 0.05119 0.59206 0.84995 0.0
C585 C 0.0917 0.62654 0.92694 0.0
O586 O 0.10129 0.61972 0.80469 0.0
O587 O 0.1714 0.60969 0.86075 0.0
O588 O 0.10988 0.67485 0.87618 0.0
O589 O 0.1214 0.55711 0.85834 0.0
O590 O 0.05229 0.61515 0.8595 0.0
O591 O 0.11566 0.6202 0.92356 0.0
O592 O 0.07101 0.58044 0.84009 0.0
O593 O 0.13727 0.57381 0.89588 0.0
O594 O 0.07715 0.6347 0.90835 0.0
O595 O 0.15198 0.59668 0.82354 0.0
O596 O 0.08593 0.65444 0.82703 0.0
O597 O 0.14845 0.65636 0.88652 0.0
Sc598 Sc 0.15146 0.36926 0.58528 0.0
Sc599 Sc 0.0921 0.34572 0.61024 0.0
Sc600 Sc 0.12344 0.39861 0.64085 0.0
O601 O 0.12231 0.37129 0.61214 0.0
C602 C 0.18295 0.38255 0.63798 0.0
C603 C 0.14157 0.30981 0.59558 0.0
C604 C 0.10345 0.34706 0.67092 0.0
C605 C 0.09991 0.35857 0.55079 0.0
C606 C 0.14334 0.4301 0.58995 0.0
C607 C 0.06321 0.39868 0.62798 0.0
O608 O 0.1822 0.37833 0.61329 0.0
O609 O 0.11688 0.31326 0.59809 0.0
O610 O 0.11012 0.37121 0.67052 0.0
O611 O 0.12481 0.35988 0.55328 0.0
O612 O 0.13728 0.42891 0.6143 0.0
O613 O 0.06318 0.37436 0.62219 0.0
O614 O 0.14684 0.40982 0.57571 0.0
O615 O 0.08435 0.3564 0.57026 0.0
O616 O 0.08414 0.41147 0.63269 0.0
O617 O 0.1578 0.32867 0.5937 0.0
O618 O 0.16266 0.38784 0.65155 0.0
O619 O 0.09821 0.334 0.6502 0.0
Sc620 Sc 0.59171 0.64742 0.62535 0.0
Sc621 Sc 0.6218 0.58912 0.64516 0.0
Sc622 Sc 0.64024 0.61845 0.58588 0.0
O623 O 0.61782 0.61834 0.61867 0.0
C624 C 0.58455 0.63882 0.56439 0.0
C625 C 0.56074 0.5953 0.64256 0.0
C626 C 0.62885 0.55845 0.59043 0.0
C627 C 0.61289 0.63872 0.68252 0.0
C628 C 0.64116 0.67833 0.60185 0.0
C629 C 0.68041 0.60077 0.63099 0.0
O630 O 0.57483 0.64337 0.587 0.0
O631 O 0.58082 0.5804 0.64266 0.0
O632 O 0.62962 0.57892 0.57618 0.0
O633 O 0.60684 0.65426 0.66399 0.0
O634 O 0.65264 0.65794 0.59305 0.0
O635 O 0.66292 0.59689 0.64848 0.0
O636 O 0.61821 0.67782 0.61192 0.0
O637 O 0.61555 0.61409 0.67918 0.0
O638 O 0.675 0.60547 0.60693 0.0
O639 O 0.56209 0.62017 0.63963 0.0
O640 O 0.60831 0.63157 0.56099 0.0
O641 O 0.62876 0.55943 0.61547 0.0
Sc642 Sc 0.34703 0.37004 0.38899 0.0
Sc643 Sc 0.38116 0.39446 0.334 0.0
Sc644 Sc 0.40351 0.33705 0.36564 0.0
O645 O 0.37724 0.36718 0.36289 0.0
C646 C 0.39464 0.35227 0.42582 0.0
C647 C 0.36452 0.42975 0.38318 0.0
C648 C 0.44044 0.38549 0.35175 0.0
C649 C 0.3193 0.38631 0.335 0.0
C650 C 0.34881 0.30866 0.37773 0.0
C651 C 0.39488 0.34099 0.30381 0.0
O652 O 0.37187 0.36199 0.42236 0.0
O653 O 0.37428 0.42702 0.36028 0.0
O654 O 0.43726 0.36214 0.35999 0.0
O655 O 0.31849 0.3785 0.35877 0.0
O656 O 0.37299 0.30826 0.37131 0.0
O657 O 0.38813 0.36507 0.30411 0.0
O658 O 0.33684 0.32953 0.38448 0.0
O659 O 0.34056 0.39249 0.32344 0.0
O660 O 0.40104 0.32839 0.32448 0.0
O661 O 0.35429 0.4109 0.39597 0.0
O662 O 0.4084 0.34278 0.40717 0.0
O663 O 0.42207 0.39935 0.34211 0.0
H664 H 0.05627 0.24569 0.29611 0.0
H665 H 0.03131 0.17058 0.32705 0.0
H666 H 0.07724 0.22345 0.259 0.0
H667 H 0.05135 0.1484 0.2895 0.0
H668 H 0.09798 0.11393 0.22194 0.0
H669 H 0.08989 0.13643 0.26379 0.0
H670 H 0.05725 0.20265 0.22158 0.0
H671 H 0.06581 0.18079 0.18017 0.0
C672 C 0.05558 0.22441 0.29512 0.0
C673 C 0.04184 0.20985 0.31413 0.0
C674 C 0.06746 0.21168 0.27386 0.0
C675 C 0.0655 0.18422 0.27107 0.0
C676 C 0.05335 0.16955 0.29113 0.0
C677 C 0.04171 0.18227 0.31256 0.0
C678 C 0.08926 0.13338 0.22164 0.0
C679 C 0.08237 0.14545 0.19769 0.0
C680 C 0.08463 0.14623 0.24559 0.0
C681 C 0.07307 0.17137 0.24598 0.0
C682 C 0.0667 0.18355 0.22201 0.0
C683 C 0.07135 0.17081 0.19819 0.0
H684 H 0.05907 0.8091 0.57918 0.0
H685 H 0.98016 0.83009 0.55535 0.0
H686 H 0.07686 0.83387 0.54232 0.0
H687 H -0.00199 0.8556 0.5188 0.0
H688 H 0.03782 0.84245 0.43661 0.0
H689 H 0.01714 0.8371 0.47925 0.0
H690 H 0.08414 0.87375 0.51682 0.0
H691 H 0.10531 0.87864 0.47391 0.0
C692 C 0.04558 0.81975 0.56656 0.0
C693 C 0.01825 0.81716 0.56965 0.0
C694 C 0.05578 0.83414 0.54552 0.0
C695 C 0.03879 0.84628 0.52736 0.0
C696 C 0.01154 0.84597 0.53217 0.0
C697 C 0.00134 0.83143 0.55311 0.0
C698 C 0.04803 0.84978 0.45386 0.0
C699 C 0.07349 0.86039 0.45191 0.0
C700 C 0.036 0.84701 0.47836 0.0
C701 C 0.04911 0.85484 0.50146 0.0
C702 C 0.07373 0.86725 0.49936 0.0
C703 C 0.08581 0.87006 0.47478 0.0
H704 H 0.45821 0.81829 0.82382 0.0
H705 H 0.42368 0.74476 0.79865 0.0
H706 H 0.43532 0.84111 0.78837 0.0
H707 H 0.40007 0.76768 0.76376 0.0
H708 H 0.38231 0.87743 0.72686 0.0
H709 H 0.39408 0.85517 0.76787 0.0
H710 H 0.41687 0.78619 0.72345 0.0
H711 H 0.40467 0.80786 0.68292 0.0
C712 C 0.44522 0.80714 0.81108 0.0
C713 C 0.44306 0.77973 0.81357 0.0
C714 C 0.43196 0.82023 0.79091 0.0
C715 C 0.4162 0.80611 0.77307 0.0
C716 C 0.41254 0.77897 0.77688 0.0
C717 C 0.42598 0.76587 0.79687 0.0
C718 C 0.38959 0.85742 0.72592 0.0
C719 C 0.39276 0.84452 0.70158 0.0
C720 C 0.39635 0.84472 0.74939 0.0
C721 C 0.4063 0.81892 0.74888 0.0
C722 C 0.40878 0.80588 0.7246 0.0
C723 C 0.40204 0.81848 0.70127 0.0
H724 H 0.49737 0.18602 0.03469 0.0
H725 H 0.44238 0.15331 0.09073 0.0
H726 H 0.47961 0.15813 0.00051 0.0
H727 H 0.42521 0.12403 0.05659 0.0
H728 H 0.37379 0.12257 0.98004 0.0
H729 H 0.39754 0.13159 0.02051 0.0
H730 H 0.47136 0.11812 0.97999 0.0
H731 H 0.44736 0.11082 0.93902 0.0
C732 C 0.48192 0.17226 0.03986 0.0
C733 C 0.47084 0.1722 0.06516 0.0
C734 C 0.47188 0.15594 0.02027 0.0
C735 C 0.45073 0.13888 0.02564 0.0
C736 C 0.44111 0.13731 0.05163 0.0
C737 C 0.45097 0.15399 0.0712 0.0
C738 C 0.39506 0.12088 0.97999 0.0
C739 C 0.40884 0.11672 0.95639 0.0
C740 C 0.40876 0.12587 0.00328 0.0
C741 C 0.43647 0.12628 0.00341 0.0
C742 C 0.45005 0.11888 0.98037 0.0
C743 C 0.43636 0.11456 0.95695 0.0
H744 H 0.06669 0.71846 0.18492 0.0
H745 H 0.05471 0.79704 0.15487 0.0
H746 H 0.09145 0.73637 0.22201 0.0
H747 H 0.07873 0.815 0.19222 0.0
H748 H 0.08218 0.78316 0.30095 0.0
H749 H 0.07479 0.76012 0.25976 0.0
H750 H 0.11854 0.81992 0.21799 0.0
H751 H 0.12546 0.84346 0.25926 0.0
C752 C 0.06976 0.73952 0.18602 0.0
C753 C 0.05841 0.75645 0.16736 0.0
C754 C 0.08386 0.74976 0.20726 0.0
C755 C 0.08667 0.77709 0.21027 0.0
C756 C 0.0771 0.79383 0.1904 0.0
C757 C 0.06315 0.78357 0.16908 0.0
C758 C 0.09067 0.79121 0.2831 0.0
C759 C 0.10388 0.81547 0.28333 0.0
C760 C 0.08663 0.77784 0.25945 0.0
C761 C 0.09585 0.78837 0.23556 0.0
C762 C 0.11082 0.81158 0.23605 0.0
C763 C 0.11478 0.82503 0.25971 0.0
H764 H 0.39699 0.77902 0.41985 0.0
H765 H 0.45543 0.83962 0.40782 0.0
H766 H 0.37618 0.80583 0.45378 0.0
H767 H 0.43439 0.86659 0.4416 0.0
H768 H 0.42339 0.86758 0.53417 0.0
H769 H 0.43586 0.85612 0.48941 0.0
H770 H 0.35389 0.84718 0.46851 0.0
H771 H 0.34126 0.8585 0.51356 0.0
C772 C 0.40489 0.7984 0.4239 0.0
C773 C 0.42814 0.80701 0.41173 0.0
C774 C 0.39286 0.81386 0.44319 0.0
C775 C 0.40395 0.83811 0.45055 0.0
C776 C 0.42571 0.84779 0.43652 0.0
C777 C 0.43771 0.83235 0.41721 0.0
C778 C 0.40797 0.86367 0.51995 0.0
C779 C 0.38139 0.86341 0.52753 0.0
C780 C 0.4151 0.8574 0.49419 0.0
C781 C 0.3958 0.85061 0.47555 0.0
C782 C 0.36912 0.85215 0.4826 0.0
C783 C 0.36195 0.85865 0.50836 0.0
H784 H 0.41574 0.21168 0.65676 0.0
H785 H 0.4652 0.25145 0.71341 0.0
H786 H 0.38923 0.19371 0.69263 0.0
H787 H 0.43975 0.23262 0.74919 0.0
H788 H 0.3871 0.20466 0.8115 0.0
H789 H 0.40026 0.23039 0.77321 0.0
H790 H 0.39479 0.16068 0.7245 0.0
H791 H 0.38046 0.13546 0.76235 0.0
C792 C 0.42086 0.21661 0.6769 0.0
C793 C 0.44262 0.23271 0.68239 0.0
C794 C 0.40576 0.20627 0.69745 0.0
C795 C 0.41241 0.21154 0.72386 0.0
C796 C 0.43369 0.22846 0.72916 0.0
C797 C 0.4485 0.23907 0.70864 0.0
C798 C 0.38817 0.19502 0.79247 0.0
C799 C 0.38313 0.16796 0.79001 0.0
C800 C 0.39587 0.20971 0.77055 0.0
C801 C 0.39914 0.19753 0.74584 0.0
C802 C 0.39231 0.17085 0.74311 0.0
C803 C 0.3842 0.15629 0.76492 0.0
H804 H 0.00727 0.15406 0.9066 0.0
H805 H 0.08247 0.19374 0.90515 0.0
H806 H 0.02315 0.12542 0.94176 0.0
H807 H 0.0981 0.16567 0.94045 0.0
H808 H 0.12243 0.11638 0.00624 0.0
H809 H 0.10897 0.12366 0.96073 0.0
H810 H 0.02972 0.14015 0.9871 0.0
H811 H 0.04289 0.13242 0.03232 0.0
C812 C 0.02742 0.15614 0.91326 0.0
C813 C 0.04345 0.17652 0.90372 0.0
C814 C 0.03647 0.13982 0.93341 0.0
C815 C 0.06164 0.14369 0.94424 0.0
C816 C 0.07863 0.16211 0.93253 0.0
C817 C 0.0696 0.17839 0.91242 0.0
C818 C 0.10201 0.12108 0.00228 0.0
C819 C 0.08387 0.1245 0.02298 0.0
C820 C 0.09432 0.12516 0.9762 0.0
C821 C 0.06838 0.13272 0.97037 0.0
C822 C 0.04981 0.13408 0.99087 0.0
C823 C 0.05746 0.12998 0.0169 0.0
H824 H 0.32965 0.06524 0.19608 0.0
H825 H 0.27419 0.02066 0.24266 0.0
H826 H 0.29337 0.09117 0.17792 0.0
H827 H 0.23814 0.04563 0.22403 0.0
H828 H 0.17583 0.09753 0.19694 0.0
H829 H 0.21588 0.08642 0.22084 0.0
H830 H 0.25867 0.08293 0.14719 0.0
H831 H 0.21893 0.09517 0.12351 0.0
C832 C 0.30974 0.06114 0.20255 0.0
C833 C 0.30465 0.04083 0.22057 0.0
C834 C 0.28899 0.0759 0.19212 0.0
C835 C 0.26283 0.07048 0.19948 0.0
C836 C 0.25802 0.05075 0.21827 0.0
C837 C 0.27869 0.03619 0.22877 0.0
C838 C 0.19395 0.09493 0.18596 0.0
C839 C 0.19419 0.09672 0.15835 0.0
C840 C 0.21686 0.08846 0.19961 0.0
C841 C 0.24034 0.08318 0.18588 0.0
C842 C 0.241 0.08698 0.15843 0.0
C843 C 0.21815 0.09387 0.14481 0.0
H844 H 0.20752 0.06453 0.3976 0.0
H845 H 0.14588 0.08218 0.45363 0.0
H846 H 0.18002 0.03066 0.37782 0.0
H847 H 0.11834 0.0478 0.43395 0.0
H848 H 0.12158 0.95282 0.42568 0.0
H849 H 0.1305 -0.00162 0.43743 0.0
H850 H 0.13623 0.01858 0.35498 0.0
H851 H 0.12715 0.97292 0.34306 0.0
C852 C 0.18782 0.06154 0.40524 0.0
C853 C 0.1789 0.07551 0.42734 0.0
C854 C 0.17197 0.04239 0.39376 0.0
C855 C 0.14713 0.03667 0.40447 0.0
C856 C 0.13744 0.05195 0.42541 0.0
C857 C 0.15317 0.0715 0.43663 0.0
C858 C 0.12408 0.9671 0.41004 0.0
C859 C 0.12434 0.95925 0.3835 0.0
C860 C 0.12884 -0.00677 0.41676 0.0
C861 C 0.13422 0.01182 0.39706 0.0
C862 C 0.1322 0.00449 0.37046 0.0
C863 C 0.12708 0.97839 0.36371 0.0
H864 H 0.20015 0.96821 0.7577 0.0
H865 H 0.14449 0.92484 0.71018 0.0
H866 H 0.23618 0.94419 0.73765 0.0
H867 H 0.18065 0.89972 0.69074 0.0
H868 H 0.25297 0.89764 0.63441 0.0
H869 H 0.21411 0.9092 0.65972 0.0
H870 H 0.25944 0.90457 0.73173 0.0
H871 H 0.29871 0.8942 0.70612 0.0
C872 C 0.19561 0.95308 0.74334 0.0
C873 C 0.1696 0.9486 0.73521 0.0
C874 C 0.21627 0.93907 0.732 0.0
C875 C 0.21137 0.92002 0.71248 0.0
C876 C 0.18514 0.91456 0.7054 0.0
C877 C 0.16444 0.92884 0.71657 0.0
C878 C 0.25454 0.89862 0.65569 0.0
C879 C 0.27897 0.89555 0.66826 0.0
C880 C 0.23217 0.90508 0.67027 0.0
C881 C 0.23371 0.90822 0.69777 0.0
C882 C 0.25774 0.90299 0.71051 0.0
C883 C 0.28021 0.89696 0.69587 0.0
H884 H 0.27813 0.90971 0.89703 0.0
H885 H 0.33756 0.90141 0.95738 0.0
H886 H 0.30363 0.94456 0.87662 0.0
H887 H 0.36339 0.93621 0.93664 0.0
H888 H 0.35566 0.02861 0.92797 0.0
H889 H 0.34903 0.98267 0.93879 0.0
H890 H 0.34349 0.96359 0.85593 0.0
H891 H 0.34988 0.00992 0.84497 0.0
C892 C 0.2971 0.91475 0.90541 0.0
C893 C 0.30555 0.90349 0.92918 0.0
C894 C 0.31186 0.93455 0.89356 0.0
C895 C 0.33524 0.94342 0.90537 0.0
C896 C 0.34519 0.92999 0.92741 0.0
C897 C 0.33043 0.91009 0.93924 0.0
C898 C 0.35345 0.01461 0.912 0.0
C899 C 0.35261 0.02297 0.88566 0.0
C900 C 0.35006 0.98817 0.91819 0.0
C901 C 0.34565 0.96956 0.89817 0.0
C902 C 0.34671 0.9776 0.87172 0.0
C903 C 0.35029 0.0041 0.86549 0.0
H904 H 0.32398 0.95 0.32256 0.0
H905 H 0.31518 0.90805 0.24897 0.0
H906 H 0.28817 0.92455 0.34149 0.0
H907 H 0.27989 0.88181 0.2682 0.0
H908 H 0.22276 0.8764 0.37203 0.0
H909 H 0.26721 0.88432 0.35563 0.0
H910 H 0.23597 0.8966 0.27736 0.0
H911 H 0.19197 0.88807 0.2934 0.0
C912 C 0.31495 0.9347 0.31073 0.0
C913 C 0.32182 0.93139 0.28414 0.0
C914 C 0.29453 0.91995 0.32163 0.0
C915 C 0.28085 0.90151 0.30615 0.0
C916 C 0.28967 0.89633 0.2804 0.0
C917 C 0.3099 0.91128 0.26942 0.0
C918 C 0.22546 0.88032 0.35122 0.0
C919 C 0.20374 0.88213 0.33412 0.0
C920 C 0.25092 0.88486 0.34187 0.0
C921 C 0.25511 0.89129 0.31526 0.0
C922 C 0.23355 0.89138 0.2979 0.0
C923 C 0.20819 0.8868 0.3072 0.0
H924 H 0.24917 0.06864 0.54909 0.0
H925 H 0.30777 0.06515 0.48736 0.0
H926 H 0.27424 0.03678 0.57471 0.0
H927 H 0.33301 0.03343 0.51317 0.0
H928 H 0.33545 0.94721 0.5462 0.0
H929 H 0.32157 0.98698 0.52373 0.0
H930 H 0.31704 0.02776 0.59839 0.0
H931 H 0.33093 0.98758 0.62113 0.0
C932 C 0.26758 0.06129 0.54117 0.0
C933 C 0.27636 0.06896 0.5161 0.0
C934 C 0.28207 0.04332 0.55596 0.0
C935 C 0.30552 0.03269 0.54586 0.0
C936 C 0.31488 0.04126 0.52128 0.0
C937 C 0.30043 0.0593 0.50652 0.0
C938 C 0.33187 0.96476 0.55782 0.0
C939 C 0.33383 0.96427 0.58542 0.0
C940 C 0.3242 0.9876 0.54492 0.0
C941 C 0.31814 0.01035 0.55938 0.0
C942 C 0.32145 0.01035 0.58688 0.0
C943 C 0.32946 0.98746 0.59983 0.0
H944 H 0.16008 0.08023 0.76162 0.0
H945 H 0.15522 0.03929 0.83601 0.0
H946 H 0.19664 0.1064 0.77839 0.0
H947 H 0.19225 0.06479 0.85253 0.0
H948 H 0.28604 0.0988 0.79901 0.0
H949 H 0.24104 0.09112 0.78525 0.0
H950 H 0.21394 0.10549 0.86477 0.0
H951 H 0.25924 0.11263 0.87881 0.0
C952 C 0.16651 0.07723 0.78175 0.0
C953 C 0.1553 0.0574 0.79738 0.0
C954 C 0.18745 0.09215 0.79131 0.0
C955 C 0.19768 0.08727 0.81655 0.0
C956 C 0.18477 0.06914 0.83303 0.0
C957 C 0.16365 0.05438 0.82354 0.0
C958 C 0.2705 0.10083 0.81351 0.0
C959 C 0.27632 0.10569 0.84013 0.0
C960 C 0.24459 0.09668 0.80555 0.0
C961 C 0.22393 0.09745 0.82401 0.0
C962 C 0.22951 0.10436 0.85022 0.0
C963 C 0.25547 0.10844 0.85821 0.0
H964 H 0.22599 0.95608 -0.00289 0.0
H965 H 0.17758 0.89553 0.0321 0.0
H966 H 0.1995 0.98965 0.01865 0.0
H967 H 0.15085 0.92944 0.05379 0.0
H968 H 0.14146 0.00319 0.11289 0.0
H969 H 0.1589 0.96463 0.08964 0.0
H970 H 0.15302 0.00631 0.01576 0.0
H971 H 0.13598 0.04467 0.03876 0.0
C972 C 0.20958 0.94997 0.00931 0.0
C973 C 0.20378 0.92327 0.01295 0.0
C974 C 0.19431 0.96917 0.02149 0.0
C975 C 0.17301 0.96206 0.03765 0.0
C976 C 0.16718 0.93535 0.0414 0.0
C977 C 0.18239 0.91605 0.02897 0.0
C978 C 0.14331 0.00381 0.09163 0.0
C979 C 0.13798 0.02705 0.07767 0.0
C980 C 0.15322 0.98179 0.07835 0.0
C981 C 0.15775 0.98283 0.05104 0.0
C982 C 0.15023 0.00528 0.03691 0.0
C983 C 0.14049 0.02719 0.05009 0.0
H984 H 0.22145 0.3151 0.08008 0.0
H985 H 0.15223 0.31856 0.03071 0.0
H986 H 0.20175 0.27911 0.1051 0.0
H987 H 0.13287 0.28238 0.05519 0.0
H988 H 0.09993 0.21871 0.10331 0.0
H989 H 0.11583 0.26336 0.09592 0.0
H990 H 0.1955 0.23396 0.09024 0.0
H991 H 0.17987 0.18966 0.09814 0.0
C992 C 0.20184 0.3085 0.07492 0.0
C993 C 0.18855 0.31917 0.05316 0.0
C994 C 0.1906 0.28792 0.08919 0.0
C995 C 0.16595 0.27771 0.08187 0.0
C996 C 0.1518 0.28992 0.06148 0.0
C997 C 0.163 0.31049 0.04726 0.0
C998 C 0.1209 0.22185 0.101 0.0
C999 C 0.13857 0.20055 0.1007 0.0
C1000 C 0.12997 0.24742 0.09677 0.0
C1001 C 0.15685 0.25211 0.09224 0.0
C1002 C 0.17469 0.23106 0.09391 0.0
C1003 C 0.16566 0.20556 0.09812 0.0
H1004 H 0.66281 0.15876 0.95973 0.0
H1005 H 0.73115 0.15899 0.90892 0.0
H1006 H 0.6438 0.19467 0.93428 0.0
H1007 H 0.71203 0.19491 0.88339 0.0
H1008 H 0.61078 0.25438 0.87971 0.0
H1009 H 0.62704 0.2104 0.89016 0.0
H1010 H 0.70571 0.24152 0.89871 0.0
H1011 H 0.68964 0.28531 0.88821 0.0
C1012 C 0.67348 0.16612 0.94278 0.0
C1013 C 0.69859 0.15645 0.93652 0.0
C1014 C 0.66251 0.1865 0.92807 0.0
C1015 C 0.67656 0.19762 0.90699 0.0
C1016 C 0.70093 0.18678 0.89969 0.0
C1017 C 0.71182 0.16626 0.91429 0.0
C1018 C 0.63164 0.25171 0.8832 0.0
C1019 C 0.64888 0.27335 0.88359 0.0
C1020 C 0.64089 0.22658 0.88924 0.0
C1021 C 0.66754 0.22266 0.89541 0.0
C1022 C 0.68509 0.24394 0.89382 0.0
C1023 C 0.67583 0.26907 0.88806 0.0
H1024 H 0.07399 0.46927 0.15058 0.0
H1025 H 0.07915 0.41106 0.21238 0.0
H1026 H 0.03631 0.44603 0.13186 0.0
H1027 H 0.04143 0.38798 0.19373 0.0
H1028 H 0.97633 0.34763 0.14712 0.0
H1029 H 0.02104 0.36414 0.15443 0.0
H1030 H 0.99155 0.44385 0.15346 0.0
H1031 H 0.94721 0.4276 0.14622 0.0
C1032 C 0.06749 0.45118 0.15976 0.0
C1033 C 0.07909 0.4422 0.18318 0.0
C1034 C 0.04593 0.43795 0.14909 0.0
C1035 C 0.03582 0.41549 0.16161 0.0
C1036 C 0.04892 0.40521 0.18366 0.0
C1037 C 0.07038 0.41852 0.19442 0.0
C1038 C 0.9795 0.36867 0.14826 0.0
C1039 C 0.95826 0.38632 0.14641 0.0
C1040 C 0.00502 0.37806 0.15239 0.0
C1041 C 0.00968 0.40522 0.15428 0.0
C1042 C 0.98856 0.42282 0.15164 0.0
C1043 C 0.96311 0.41348 0.14785 0.0
H1044 H 0.82601 0.81867 0.46506 0.0
H1045 H 0.75229 0.80864 0.42375 0.0
H1046 H 0.84493 0.78235 0.44012 0.0
H1047 H 0.77142 0.77253 0.39837 0.0
H1048 H 0.80157 0.68575 0.40038 0.0
H1049 H 0.78352 0.72813 0.41284 0.0
H1050 H 0.85847 0.76498 0.39672 0.0
H1051 H 0.87688 0.72227 0.3846 0.0
C1052 C 0.81403 0.80901 0.45028 0.0
C1053 C 0.78759 0.81612 0.4466 0.0
C1054 C 0.82493 0.78837 0.43582 0.0
C1055 C 0.80957 0.77453 0.41744 0.0
C1056 C 0.78357 0.78269 0.41267 0.0
C1057 C 0.77266 0.80333 0.42715 0.0
C1058 C 0.81418 0.70288 0.39916 0.0
C1059 C 0.8408 0.70056 0.39194 0.0
C1060 C 0.80372 0.72725 0.40603 0.0
C1061 C 0.81964 0.74982 0.40586 0.0
C1062 C 0.84587 0.7478 0.39728 0.0
C1063 C 0.85635 0.72337 0.39028 0.0
H1064 H 0.94607 0.98297 0.20212 0.0
H1065 H 0.89028 0.03761 0.1686 0.0
H1066 H 0.98043 0.00054 0.1742 0.0
H1067 H 0.92454 0.05454 0.13935 0.0
H1068 H 0.00132 0.10408 0.13124 0.0
H1069 H 0.96139 0.08172 0.14479 0.0
H1070 H -0.00034 0.00655 0.13294 0.0
H1071 H 0.0402 0.0292 0.12088 0.0
C1072 C 0.94104 -0.00162 0.18828 0.0
C1073 C 0.91566 0.00923 0.18777 0.0
C1074 C 0.96071 0.0083 0.17197 0.0
C1075 C 0.95536 0.02907 0.15447 0.0
C1076 C 0.92947 0.03888 0.15292 0.0
C1077 C 0.90984 0.02916 0.16958 0.0
C1078 C 0.001 0.08277 0.13094 0.0
C1079 C 0.02396 0.06835 0.1256 0.0
C1080 C 0.978 0.06988 0.13858 0.0
C1081 C 0.97742 0.04228 0.14055 0.0
C1082 C -0.00032 0.02785 0.13248 0.0
C1083 C 0.02285 0.04077 0.12541 0.0
H1084 H 0.33078 0.67518 0.53077 0.0
H1085 H 0.25435 0.67532 0.56826 0.0
H1086 H 0.34456 0.71143 0.55879 0.0
H1087 H 0.26836 0.71137 0.59685 0.0
H1088 H 0.28973 0.80151 0.59748 0.0
H1089 H 0.27604 0.75733 0.58576 0.0
H1090 H 0.35424 0.72838 0.60267 0.0
H1091 H 0.36824 0.77281 0.61388 0.0
C1092 C 0.31714 0.6826 0.54543 0.0
C1093 C 0.29138 0.67284 0.54705 0.0
C1094 C 0.32511 0.70319 0.5617 0.0
C1095 C 0.30745 0.71433 0.57992 0.0
C1096 C 0.28224 0.70335 0.58274 0.0
C1097 C 0.27425 0.68275 0.56641 0.0
C1098 C 0.3039 0.78568 0.59927 0.0
C1099 C 0.33026 0.7908 0.6059 0.0
C1100 C 0.29597 0.76026 0.59276 0.0
C1101 C 0.31421 0.73948 0.59291 0.0
C1102 C 0.33993 0.74416 0.6019 0.0
C1103 C 0.3479 0.76961 0.60832 0.0
H1104 H 0.09021 0.53324 0.30574 0.0
H1105 H 0.03827 0.52321 0.23899 0.0
H1106 H 0.05329 0.55056 0.3318 0.0
H1107 H 0.00167 0.5401 0.26502 0.0
H1108 H 0.93829 0.53983 0.32635 0.0
H1109 H 0.97829 0.52156 0.30752 0.0
H1110 H 0.02056 0.59245 0.32748 0.0
H1111 H 0.98035 0.61121 0.34635 0.0
C1112 C 0.07096 0.53478 0.29669 0.0
C1113 C 0.06697 0.52687 0.27044 0.0
C1114 C 0.04999 0.54468 0.31154 0.0
C1115 C 0.02478 0.54629 0.30038 0.0
C1116 C 0.02093 0.53865 0.27408 0.0
C1117 C 0.04187 0.52917 0.25919 0.0
C1118 C 0.95612 0.5515 0.32715 0.0
C1119 C 0.95598 0.57723 0.33738 0.0
C1120 C 0.97897 0.54098 0.31634 0.0
C1121 C 0.00219 0.55584 0.31578 0.0
C1122 C 0.00275 0.58073 0.32773 0.0
C1123 C 0.97975 0.59142 0.33841 0.0
H1124 H 0.4057 0.42115 0.80366 0.0
H1125 H 0.43231 0.49968 0.82245 0.0
H1126 H 0.44394 0.40287 0.82569 0.0
H1127 H 0.47029 0.48135 0.84542 0.0
H1128 H 0.55142 0.44052 0.83391 0.0
H1129 H 0.50899 0.4613 0.82718 0.0
H1130 H 0.47036 0.39505 0.86396 0.0
H1131 H 0.51293 0.37377 0.87001 0.0
C1132 C 0.41932 0.43448 0.81324 0.0
C1133 C 0.41638 0.46182 0.8109 0.0
C1134 C 0.4412 0.42399 0.82605 0.0
C1135 C 0.46042 0.44069 0.83691 0.0
C1136 C 0.45612 0.46801 0.8367 0.0
C1137 C 0.43432 0.4785 0.82369 0.0
C1138 C 0.53394 0.43049 0.84087 0.0
C1139 C 0.53553 0.40527 0.85204 0.0
C1140 C 0.50957 0.44255 0.83727 0.0
C1141 C 0.48625 0.42978 0.84495 0.0
C1142 C 0.48795 0.40521 0.85748 0.0
C1143 C 0.51234 0.39303 0.86092 0.0
H1144 H 0.90798 0.73933 0.663 0.0
H1145 H 0.93136 0.82057 0.65433 0.0
H1146 H 0.87902 0.75164 0.69946 0.0
H1147 H 0.9031 0.83275 0.69091 0.0
H1148 H 0.85354 0.85209 0.75806 0.0
H1149 H 0.86119 0.83689 0.71312 0.0
H1150 H 0.89323 0.76415 0.74332 0.0
H1151 H 0.88506 0.77893 0.788 0.0
C1152 C 0.90639 0.75989 0.66843 0.0
C1153 C 0.92232 0.77894 0.65632 0.0
C1154 C 0.8899 0.76691 0.68934 0.0
C1155 C 0.88916 0.79306 0.69839 0.0
C1156 C 0.90308 0.81244 0.6844 0.0
C1157 C 0.91949 0.80543 0.66354 0.0
C1158 C 0.86171 0.83262 0.75509 0.0
C1159 C 0.86933 0.81699 0.77665 0.0
C1160 C 0.86606 0.82393 0.72934 0.0
C1161 C 0.87814 0.7995 0.72466 0.0
C1162 C 0.88368 0.783 0.74617 0.0
C1163 C 0.87926 0.79163 0.77188 0.0
H1164 H 0.93648 0.17802 0.40491 0.0
H1165 H -0.00245 0.21079 0.45419 0.0
H1166 H 0.91871 0.15433 0.44271 0.0
H1167 H 0.97912 0.1885 0.49222 0.0
H1168 H 0.94772 0.1402 0.55714 0.0
H1169 H 0.96976 0.15 0.51563 0.0
H1170 H 0.89426 0.1667 0.47984 0.0
H1171 H 0.87235 0.15553 0.52082 0.0
C1172 C 0.94616 0.17999 0.42384 0.0
C1173 C 0.96816 0.19637 0.42681 0.0
C1174 C 0.93593 0.16657 0.4455 0.0
C1175 C 0.94722 0.16978 0.47062 0.0
C1176 C 0.97007 0.18522 0.47317 0.0
C1177 C 0.98056 0.1982 0.45141 0.0
C1178 C 0.9359 0.14562 0.54023 0.0
C1179 C 0.90839 0.14742 0.54221 0.0
C1180 C 0.94849 0.15132 0.51648 0.0
C1181 C 0.93384 0.15946 0.49444 0.0
C1182 C 0.9062 0.16012 0.49622 0.0
C1183 C 0.8936 0.15393 0.51981 0.0
H1184 H 0.56213 0.1777 0.15159 0.0
H1185 H 0.53334 0.24041 0.20147 0.0
H1186 H 0.58758 0.16022 0.18844 0.0
H1187 H 0.55775 0.22253 0.23838 0.0
H1188 H 0.60801 0.19213 0.30126 0.0
H1189 H 0.59841 0.21276 0.25905 0.0
H1190 H 0.57518 0.1372 0.22741 0.0
H1191 H 0.58583 0.11651 0.26919 0.0
C1192 C 0.5615 0.18788 0.17036 0.0
C1193 C 0.54555 0.21017 0.17385 0.0
C1194 C 0.57596 0.17784 0.19145 0.0
C1195 C 0.57449 0.1898 0.21642 0.0
C1196 C 0.55966 0.21299 0.21938 0.0
C1197 C 0.54545 0.22314 0.19826 0.0
C1198 C 0.60126 0.17991 0.28511 0.0
C1199 C 0.59719 0.15281 0.2886 0.0
C1200 C 0.59572 0.19172 0.26096 0.0
C1201 C 0.58561 0.17672 0.23999 0.0
C1202 C 0.58318 0.14933 0.24303 0.0
C1203 C 0.58909 0.13746 0.26707 0.0
H1204 H 0.54798 0.8083 0.90254 0.0
H1205 H 0.49238 0.76897 0.95352 0.0
H1206 H 0.56516 0.83274 0.94031 0.0
H1207 H 0.51001 0.79246 0.99121 0.0
H1208 H 0.61215 0.83451 0.01943 0.0
H1209 H 0.5915 0.82214 0.97797 0.0
H1210 H 0.51467 0.83357 0.01299 0.0
H1211 H 0.53539 0.84486 0.05477 0.0
C1212 C 0.53937 0.80501 0.9218 0.0
C1213 C 0.51902 0.78665 0.92522 0.0
C1214 C 0.54924 0.81891 0.9434 0.0
C1215 C 0.539 0.81452 0.96877 0.0
C1216 C 0.51805 0.79672 0.97191 0.0
C1217 C 0.50809 0.78303 0.95034 0.0
C1218 C 0.59086 0.83482 0.01811 0.0
C1219 C 0.57534 0.8401 0.04041 0.0
C1220 C 0.579 0.82789 -0.0057 0.0
C1221 C 0.55142 0.82647 0.99232 0.0
C1222 C 0.53597 0.83382 0.0141 0.0
C1223 C 0.54781 0.84036 0.03798 0.0
H1224 H 0.95523 0.24618 0.78954 0.0
H1225 H 0.93047 0.18909 0.84747 0.0
H1226 H 0.92518 0.22732 0.75777 0.0
H1227 H 0.89959 0.17028 0.81554 0.0
H1228 H 0.89574 0.12174 0.73537 0.0
H1229 H 0.90756 0.14399 0.77628 0.0
H1230 H 0.88139 0.21799 0.74349 0.0
H1231 H 0.87077 0.19583 0.70222 0.0
C1232 C 0.94285 0.22994 0.79566 0.0
C1233 C 0.94546 0.2188 0.82076 0.0
C1234 C 0.92534 0.21927 0.77752 0.0
C1235 C 0.91001 0.19719 0.78409 0.0
C1236 C 0.91134 0.18712 0.80985 0.0
C1237 C 0.92892 0.19791 0.82811 0.0
C1238 C 0.89187 0.14262 0.73724 0.0
C1239 C 0.88307 0.15726 0.71555 0.0
C1240 C 0.89846 0.15538 0.76073 0.0
C1241 C 0.89598 0.18288 0.76287 0.0
C1242 C 0.8842 0.1969 0.74215 0.0
C1243 C 0.8781 0.18425 0.71857 0.0
H1244 H 0.54535 0.18239 0.59507 0.0
H1245 H 0.49183 0.2154 0.5378 0.0
H1246 H 0.56469 0.1545 0.5607 0.0
H1247 H 0.51122 0.18814 0.50367 0.0
H1248 H 0.53955 0.13023 0.4471 0.0
H1249 H 0.51742 0.14387 0.48742 0.0
H1250 H 0.5926 0.16357 0.52209 0.0
H1251 H 0.61484 0.14917 0.48193 0.0
C1252 C 0.53749 0.18338 0.57525 0.0
C1253 C 0.51725 0.20115 0.569 0.0
C1254 C 0.54861 0.16754 0.5556 0.0
C1255 C 0.5395 0.16912 0.52949 0.0
C1256 C 0.51844 0.18609 0.52365 0.0
C1257 C 0.50745 0.20191 0.54317 0.0
C1258 C 0.55139 0.13701 0.46352 0.0
C1259 C 0.57887 0.13916 0.4612 0.0
C1260 C 0.53871 0.14484 0.48659 0.0
C1261 C 0.55322 0.15529 0.50771 0.0
C1262 C 0.58087 0.1555 0.50619 0.0
C1263 C 0.59362 0.14738 0.48314 0.0
H1264 H 0.53336 0.82195 0.33998 0.0
H1265 H 0.55731 0.74218 0.32279 0.0
H1266 H 0.56037 0.83782 0.3039 0.0
H1267 H 0.58515 0.75818 0.28702 0.0
H1268 H 0.57681 0.79152 0.20173 0.0
H1269 H 0.56892 0.77398 0.24529 0.0
H1270 H 0.60108 0.84464 0.28015 0.0
H1271 H 0.60846 0.86269 0.23621 0.0
C1272 C 0.54514 0.8079 0.32904 0.0
C1273 C 0.54271 0.78079 0.33364 0.0
C1274 C 0.56082 0.81702 0.30846 0.0
C1275 C 0.57444 0.79917 0.29223 0.0
C1276 C 0.57436 0.77232 0.29884 0.0
C1277 C 0.55852 0.76317 0.31935 0.0
C1278 C 0.58253 0.80327 0.21861 0.0
C1279 C 0.59269 0.82878 0.21545 0.0
C1280 C 0.57835 0.79301 0.24368 0.0
C1281 C 0.5843 0.80796 0.26622 0.0
C1282 C 0.59603 0.8328 0.26312 0.0
C1283 C 0.60021 0.84312 0.23795 0.0
H1284 H -0.00138 0.76305 0.02845 0.0
H1285 H 0.94483 0.79937 0.08355 0.0
H1286 H 0.97661 0.785 0.9922 0.0
H1287 H 0.92326 0.82234 0.04725 0.0
H1288 H 0.86907 0.82058 0.9734 0.0
H1289 H 0.89443 0.80954 0.01252 0.0
H1290 H 0.96663 0.82451 0.96986 0.0
H1291 H 0.94122 0.83444 0.93045 0.0
C1292 C 0.98246 0.77626 0.03285 0.0
C1293 C 0.97323 0.7793 0.05873 0.0
C1294 C 0.96991 0.78903 0.01207 0.0
C1295 C 0.94802 0.80535 0.01677 0.0
C1296 C 0.93975 0.80954 0.04291 0.0
C1297 C 0.95219 0.79653 0.0637 0.0
C1298 C 0.89034 0.82187 0.97252 0.0
C1299 C 0.90319 0.8279 0.94878 0.0
C1300 C 0.90492 0.81572 -0.005 0.0
C1301 C 0.93262 0.81584 -0.00574 0.0
C1302 C 0.94535 0.82361 0.97093 0.0
C1303 C 0.9308 0.82937 0.94838 0.0
H1304 H 0.65556 0.90126 0.75808 0.0
H1305 H 0.67073 0.96051 0.81729 0.0
H1306 H 0.68701 0.87177 0.77978 0.0
H1307 H 0.70179 0.93123 0.83888 0.0
H1308 H 0.75134 0.87339 0.87907 0.0
H1309 H 0.70863 0.88787 0.86231 0.0
H1310 H 0.73656 0.87785 0.78249 0.0
H1311 H 0.77907 0.86336 0.79909 0.0
C1312 C 0.6652 0.90773 0.776 0.0
C1313 C 0.66111 0.93323 0.78585 0.0
C1314 C 0.6831 0.8909 0.78838 0.0
C1315 C 0.69676 0.89925 0.81098 0.0
C1316 C 0.69128 0.92413 0.82171 0.0
C1317 C 0.67374 0.94101 0.80917 0.0
C1318 C 0.7481 0.87356 0.85797 0.0
C1319 C 0.76868 0.86782 0.84036 0.0
C1320 C 0.72369 0.88187 0.84841 0.0
C1321 C 0.71946 0.88421 0.82115 0.0
C1322 C 0.73923 0.87608 0.80361 0.0
C1323 C 0.76367 0.86806 0.81312 0.0
H1324 H 0.78961 0.91774 0.57062 0.0
H1325 H 0.82199 0.93476 0.49372 0.0
H1326 H 0.81406 0.95442 0.58921 0.0
H1327 H 0.84708 0.97122 0.51248 0.0
H1328 H 0.84253 0.05589 0.54853 0.0
H1329 H 0.83242 0.01377 0.52854 0.0
H1330 H 0.85638 0.97408 0.59989 0.0
H1331 H 0.86596 0.01642 0.62031 0.0
C1332 C 0.8024 0.92902 0.55781 0.0
C1333 C 0.8036 0.92375 0.53069 0.0
C1334 C 0.81663 0.94988 0.5685 0.0
C1335 C 0.83238 0.9658 0.55226 0.0
C1336 C 0.83481 0.95949 0.52538 0.0
C1337 C 0.8205 0.93863 0.51467 0.0
C1338 C 0.84607 0.03821 0.55989 0.0
C1339 C 0.85448 0.03958 0.58625 0.0
C1340 C 0.84051 0.01399 0.54829 0.0
C1341 C 0.84334 0.99063 0.56277 0.0
C1342 C 0.85359 -0.00816 0.58845 0.0
C1343 C 0.85912 0.01609 0.6001 0.0
H1344 H 0.77826 0.03069 0.24417 0.0
H1345 H 0.83366 0.05572 0.30372 0.0
H1346 H 0.74384 0.05603 0.26546 0.0
H1347 H 0.79922 0.08201 0.32476 0.0
H1348 H 0.72071 0.08463 0.37352 0.0
H1349 H 0.76072 0.07175 0.35031 0.0
H1350 H 0.7266 0.09791 0.2768 0.0
H1351 H 0.68625 0.10971 0.2999 0.0
C1352 C 0.7832 0.04212 0.26152 0.0
C1353 C 0.80852 0.04102 0.27247 0.0
C1354 C 0.7635 0.05687 0.27364 0.0
C1355 C 0.76873 0.07102 0.29691 0.0
C1356 C 0.79448 0.07103 0.30708 0.0
C1357 C 0.81421 0.05611 0.29497 0.0
C1358 C 0.722 0.08807 0.35249 0.0
C1359 C 0.70024 0.09763 0.33841 0.0
C1360 C 0.74499 0.08084 0.33918 0.0
C1361 C 0.74669 0.08339 0.31161 0.0
C1362 C 0.72565 0.09504 0.29793 0.0
C1363 C 0.70259 0.10188 0.31116 0.0
H1364 H 0.66416 0.04769 -0.00683 0.0
H1365 H 0.70692 0.06126 0.06555 0.0
H1366 H 0.63903 0.0128 0.01463 0.0
H1367 H 0.68218 0.0262 0.08681 0.0
H1368 H 0.62679 0.96884 0.12314 0.0
H1369 H 0.63881 0.01025 0.10204 0.0
H1370 H 0.65326 0.96886 0.02899 0.0
H1371 H 0.64093 0.9277 0.04976 0.0
C1372 C 0.66793 0.04343 0.01374 0.0
C1373 C 0.68771 0.05687 0.02763 0.0
C1374 C 0.6536 0.02348 0.02598 0.0
C1375 C 0.65879 0.01669 0.05231 0.0
C1376 C 0.67754 0.03118 0.06658 0.0
C1377 C 0.69188 0.05109 0.05434 0.0
C1378 C 0.63206 0.96865 0.10245 0.0
C1379 C 0.63333 0.94491 0.08824 0.0
C1380 C 0.63902 -0.00766 0.09043 0.0
C1381 C 0.64715 -0.00728 0.06396 0.0
C1382 C 0.64684 0.96924 0.04936 0.0
C1383 C 0.64002 0.94559 0.06136 0.0
H1384 H 0.67627 0.0134 0.67362 0.0
H1385 H 0.66889 0.06799 0.73864 0.0
H1386 H 0.71066 0.04085 0.65444 0.0
H1387 H 0.70331 0.09548 0.71936 0.0
H1388 H 0.79403 0.10084 0.69783 0.0
H1389 H 0.75182 0.08537 0.71435 0.0
H1390 H 0.72044 0.08596 0.63524 0.0
H1391 H 0.76277 0.10141 0.61853 0.0
C1392 C 0.68177 0.03144 0.6836 0.0
C1393 C 0.67025 0.03844 0.70774 0.0
C1394 C 0.70123 0.04727 0.67251 0.0
C1395 C 0.70955 0.07022 0.68549 0.0
C1396 C 0.69726 0.07778 0.70908 0.0
C1397 C 0.67765 0.06206 0.72007 0.0
C1398 C 0.778 0.09816 0.68401 0.0
C1399 C 0.78182 0.1019 0.65685 0.0
C1400 C 0.75378 0.08952 0.6935 0.0
C1401 C 0.73305 0.08429 0.67598 0.0
C1402 C 0.73628 0.08966 0.64905 0.0
C1403 C 0.76045 0.09858 0.63956 0.0
H1404 H 0.71562 0.91983 0.42543 0.0
H1405 H 0.67651 0.92742 0.50074 0.0
H1406 H 0.68739 0.95395 0.40731 0.0
H1407 H 0.64767 0.96114 0.48239 0.0
H1408 H 0.64147 0.04746 0.45157 0.0
H1409 H 0.65644 0.0061 0.46983 0.0
H1410 H 0.64342 0.96797 0.39475 0.0
H1411 H 0.62901 0.00971 0.37609 0.0
C1412 C 0.70064 0.92848 0.43796 0.0
C1413 C 0.69851 0.92137 0.46457 0.0
C1414 C 0.68427 0.94783 0.42751 0.0
C1415 C 0.66537 0.96031 0.44348 0.0
C1416 C 0.6623 0.95211 0.46974 0.0
C1417 C 0.67878 0.93284 0.48022 0.0
C1418 C 0.64133 0.03021 0.43901 0.0
C1419 C 0.63464 0.03204 0.4122 0.0
C1420 C 0.6497 0.00639 0.44958 0.0
C1421 C 0.65143 0.98386 0.43362 0.0
C1422 C 0.64273 0.98517 0.40737 0.0
C1423 C 0.63439 0.00906 0.39674 0.0
H1424 H 0.82221 0.93559 0.17353 0.0
H1425 H 0.80361 0.90961 0.25242 0.0
H1426 H 0.78629 0.90918 0.15621 0.0
H1427 H 0.76815 0.88232 0.235 0.0
H1428 H 0.6837 0.88941 0.19992 0.0
H1429 H 0.7266 0.89776 0.2187 0.0
H1430 H 0.76369 0.86813 0.14789 0.0
H1431 H 0.72039 0.86036 0.12858 0.0
C1432 C 0.81092 0.92358 0.18706 0.0
C1433 C 0.81516 0.92511 0.21434 0.0
C1434 C 0.79047 0.90823 0.17712 0.0
C1435 C 0.77409 0.89401 0.19432 0.0
C1436 C 0.7801 0.89354 0.22136 0.0
C1437 C 0.80038 0.90911 0.23132 0.0
C1438 C 0.70094 0.88429 0.18841 0.0
C1439 C 0.6986 0.87482 0.16249 0.0
C1440 C 0.72563 0.88877 0.19936 0.0
C1441 C 0.74858 0.88377 0.1847 0.0
C1442 C 0.74632 0.8725 0.1595 0.0
C1443 C 0.72152 0.86805 0.14847 0.0
H1444 H 0.77401 0.05437 0.91866 0.0
H1445 H 0.80992 0.04365 -0.0049 0.0
H1446 H 0.79875 0.01721 0.90158 0.0
H1447 H 0.83515 0.00635 0.9778 0.0
H1448 H 0.83166 0.91922 0.94518 0.0
H1449 H 0.82103 0.96189 0.96404 0.0
H1450 H 0.84229 -0.00048 0.89075 0.0
H1451 H 0.85249 0.95677 0.87158 0.0
C1452 C 0.78757 0.04431 0.93169 0.0
C1453 C 0.78984 0.05163 0.95826 0.0
C1454 C 0.80196 0.02317 0.92184 0.0
C1455 C 0.81887 0.00886 0.93838 0.0
C1456 C 0.82209 0.01695 0.96469 0.0
C1457 C 0.80773 0.03827 0.97455 0.0
C1458 C 0.83454 0.93659 0.93318 0.0
C1459 C 0.84231 0.93451 0.90665 0.0
C1460 C 0.82866 0.9611 0.9441 0.0
C1461 C 0.83051 0.98397 0.92873 0.0
C1462 C 0.84025 0.98211 0.90288 0.0
C1463 C 0.84609 0.95762 0.89193 0.0
H1464 H 0.74793 0.69416 0.9769 0.0
H1465 H 0.79078 0.63165 0.93812 0.0
H1466 H 0.7651 0.72554 0.94522 0.0
H1467 H 0.80808 0.66334 0.90609 0.0
H1468 H 0.86116 0.7408 0.89247 0.0
H1469 H 0.83979 0.7016 0.91029 0.0
H1470 H 0.76364 0.73734 0.89779 0.0
H1471 H 0.78494 0.7766 0.8805 0.0
C1472 C 0.7608 0.6871 0.96139 0.0
C1473 C 0.76817 0.66057 0.96003 0.0
C1474 C 0.77043 0.70501 0.94307 0.0
C1475 C 0.78776 0.6968 0.92307 0.0
C1476 C 0.79474 0.67012 0.92132 0.0
C1477 C 0.78484 0.65207 0.93959 0.0
C1478 C 0.83985 0.73988 0.89273 0.0
C1479 C 0.82468 0.76189 0.88576 0.0
C1480 C 0.82762 0.71744 0.90287 0.0
C1481 C 0.80011 0.71677 0.90595 0.0
C1482 C 0.78492 0.73764 0.89616 0.0
C1483 C 0.7971 0.76006 0.88626 0.0
H1484 H 0.24876 0.79548 0.03922 0.0
H1485 H 0.31712 0.84579 0.04432 0.0
H1486 H 0.2707 0.76274 0.0657 0.0
H1487 H 0.33905 0.81317 0.07206 0.0
H1488 H 0.37894 0.7295 0.07065 0.0
H1489 H 0.3583 0.77182 0.06162 0.0
H1490 H 0.2891 0.74726 0.1049 0.0
H1491 H 0.30926 0.70439 0.11229 0.0
C1492 C 0.26827 0.79984 0.04669 0.0
C1493 C 0.28147 0.82288 0.0393 0.0
C1494 C 0.28082 0.78114 0.06219 0.0
C1495 C 0.30682 0.78516 0.07086 0.0
C1496 C 0.31921 0.80927 0.06528 0.0
C1497 C 0.30664 0.82799 0.04953 0.0
C1498 C 0.35955 0.73349 0.07864 0.0
C1499 C 0.34532 0.7137 0.09151 0.0
C1500 C 0.34776 0.7578 0.07371 0.0
C1501 C 0.32176 0.76274 0.08206 0.0
C1502 C 0.3088 0.74379 0.09749 0.0
C1503 C 0.32032 0.71931 0.10179 0.0
H1504 H 0.90008 0.56273 0.79494 0.0
H1505 H 0.92405 0.4842 0.81686 0.0
H1506 H 0.93584 0.58097 0.82084 0.0
H1507 H 0.95945 0.50252 0.84369 0.0
H1508 H 0.00309 0.61042 0.86649 0.0
H1509 H 0.96043 0.58912 0.86074 0.0
H1510 H -0.00087 0.52151 0.82633 0.0
H1511 H 0.04145 0.54225 0.83265 0.0
C1512 C 0.91249 0.54941 0.80603 0.0
C1513 C 0.90985 0.52207 0.80333 0.0
C1514 C 0.93288 0.55988 0.8211 0.0
C1515 C 0.95081 0.54313 0.83386 0.0
C1516 C 0.94628 0.51585 0.83354 0.0
C1517 C 0.92602 0.50538 0.81824 0.0
C1518 C 0.00248 0.59082 0.85811 0.0
C1519 C 0.02562 0.57828 0.84946 0.0
C1520 C 0.97806 0.57863 0.85487 0.0
C1521 C 0.97638 0.55373 0.84294 0.0
C1522 C -0.00032 0.54055 0.83593 0.0
C1523 C 0.02401 0.55265 0.83921 0.0
H1524 H 0.23727 0.20192 0.51916 0.0
H1525 H 0.17278 0.15066 0.54024 0.0
H1526 H 0.21974 0.23584 0.54789 0.0
H1527 H 0.15555 0.18443 0.5699 0.0
H1528 H 0.11491 0.26701 0.57735 0.0
H1529 H 0.13399 0.22572 0.56248 0.0
H1530 H 0.21013 0.25038 0.59155 0.0
H1531 H 0.19117 0.29218 0.60545 0.0
C1532 C 0.2196 0.19775 0.53038 0.0
C1533 C 0.20614 0.17389 0.52723 0.0
C1534 C 0.20967 0.21708 0.5471 0.0
C1535 C 0.18619 0.21284 0.56118 0.0
C1536 C 0.17348 0.18838 0.55904 0.0
C1537 C 0.18335 0.16907 0.54212 0.0
C1538 C 0.13559 0.26334 0.5811 0.0
C1539 C 0.15172 0.28297 0.59195 0.0
C1540 C 0.14652 0.2396 0.57272 0.0
C1541 C 0.1737 0.23501 0.57539 0.0
C1542 C 0.18927 0.25367 0.5886 0.0
C1543 C 0.17842 0.27754 0.59661 0.0
H1544 H 0.07775 0.92975 0.82004 0.0
H1545 H 0.02356 0.9915 0.79819 0.0
H1546 H 0.04133 0.90458 0.83891 0.0
H1547 H 0.98727 0.9662 0.81598 0.0
H1548 H 0.92639 0.92444 0.86065 0.0
H1549 H 0.96663 0.94946 0.85408 0.0
H1550 H 0.00449 0.88016 0.8221 0.0
H1551 H 0.96438 0.85481 0.82994 0.0
C1552 C 0.0581 0.93804 0.81955 0.0
C1553 C 0.0534 0.96249 0.80758 0.0
C1554 C 0.03725 0.92357 0.83016 0.0
C1555 C 0.01136 0.93329 0.82885 0.0
C1556 C 0.00697 0.95826 0.81776 0.0
C1557 C 0.02777 0.97274 0.80737 0.0
C1558 C 0.94343 0.91451 0.85249 0.0
C1559 C 0.94222 0.88784 0.84535 0.0
C1560 C 0.96646 0.92884 0.84866 0.0
C1561 C 0.98863 0.91696 0.83711 0.0
C1562 C 0.98784 0.88988 0.83123 0.0
C1563 C 0.96485 0.87538 0.83553 0.0
H1564 H 0.7475 0.28185 0.45792 0.0
H1565 H 0.68981 0.33759 0.42971 0.0
H1566 H 0.72582 0.24698 0.43354 0.0
H1567 H 0.66836 0.30265 0.40449 0.0
H1568 H 0.61834 0.22486 0.40493 0.0
H1569 H 0.64197 0.26495 0.41646 0.0
H1570 H 0.71502 0.22909 0.3913 0.0
H1571 H 0.69149 0.18871 0.38074 0.0
C1572 C 0.73046 0.28672 0.44606 0.0
C1573 C 0.72014 0.3123 0.44591 0.0
C1574 C 0.71814 0.26678 0.43186 0.0
C1575 C 0.69533 0.27205 0.41707 0.0
C1576 C 0.68572 0.29795 0.41596 0.0
C1577 C 0.69803 0.31793 0.4303 0.0
C1578 C 0.63935 0.22578 0.40138 0.0
C1579 C 0.65321 0.20357 0.39253 0.0
C1580 C 0.65289 0.24879 0.40784 0.0
C1581 C 0.68044 0.25 0.40522 0.0
C1582 C 0.69389 0.22849 0.39416 0.0
C1583 C 0.68043 0.20542 0.38807 0.0
H1584 H 0.95453 0.49612 0.70675 0.0
H1585 H 0.90201 0.44119 0.66859 0.0
H1586 H 0.99118 0.47884 0.68135 0.0
H1587 H 0.93852 0.42459 0.64206 0.0
H1588 H 0.01551 0.37599 0.63696 0.0
H1589 H 0.97531 0.39772 0.65076 0.0
H1590 H 0.01268 0.47348 0.64048 0.0
H1591 H 0.05345 0.45154 0.62781 0.0
C1592 C 0.95076 0.48071 0.69246 0.0
C1593 C 0.9256 0.46969 0.68986 0.0
C1594 C 0.97173 0.47095 0.67768 0.0
C1595 C 0.96785 0.45021 0.65971 0.0
C1596 C 0.94227 0.44022 0.65609 0.0
C1597 C 0.92136 0.44975 0.67119 0.0
C1598 C 0.01503 0.3973 0.6372 0.0
C1599 C 0.03775 0.41207 0.63178 0.0
C1600 C 0.99187 0.40981 0.64494 0.0
C1601 C 0.99084 0.43737 0.64706 0.0
C1602 C 0.01302 0.45219 0.63968 0.0
C1603 C 0.03633 0.43965 0.63232 0.0
H1604 H 0.57396 0.5683 0.19264 0.0
H1605 H 0.5558 0.48833 0.17009 0.0
H1606 H 0.53867 0.58424 0.16457 0.0
H1607 H 0.52055 0.50438 0.14152 0.0
H1608 H 0.47984 0.61006 0.10737 0.0
H1609 H 0.52112 0.58904 0.11974 0.0
H1610 H 0.47788 0.52398 0.15322 0.0
H1611 H 0.43671 0.54456 0.1405 0.0
C1612 C 0.56271 0.55417 0.18129 0.0
C1613 C 0.56729 0.52709 0.18383 0.0
C1614 C 0.54268 0.56331 0.16497 0.0
C1615 C 0.52683 0.54552 0.15089 0.0
C1616 C 0.53235 0.51848 0.15234 0.0
C1617 C 0.55248 0.50933 0.16866 0.0
C1618 C 0.47913 0.59098 0.11682 0.0
C1619 C 0.45495 0.5793 0.12355 0.0
C1620 C 0.50279 0.579 0.12393 0.0
C1621 C 0.50268 0.55512 0.13781 0.0
C1622 C 0.47861 0.54234 0.14244 0.0
C1623 C 0.45497 0.55429 0.13535 0.0
H1624 H 0.56763 0.68174 0.84179 0.0
H1625 H 0.54693 0.74131 0.7848 0.0
H1626 H 0.59749 0.66156 0.80966 0.0
H1627 H 0.57602 0.72115 0.75283 0.0
H1628 H 0.62873 0.68763 0.69702 0.0
H1629 H 0.61951 0.70942 0.73884 0.0
H1630 H 0.58821 0.63663 0.76973 0.0
H1631 H 0.59852 0.61466 0.72828 0.0
C1632 C 0.56985 0.69076 0.82259 0.0
C1633 C 0.55474 0.71281 0.81557 0.0
C1634 C 0.58686 0.67921 0.80423 0.0
C1635 C 0.58908 0.68967 0.77868 0.0
C1636 C 0.57517 0.71276 0.77242 0.0
C1637 C 0.5582 0.72419 0.79066 0.0
C1638 C 0.62064 0.67615 0.71309 0.0
C1639 C 0.61372 0.64968 0.70934 0.0
C1640 C 0.61532 0.6886 0.73698 0.0
C1641 C 0.60245 0.67494 0.7573 0.0
C1642 C 0.59816 0.64773 0.75449 0.0
C1643 C 0.60393 0.63514 0.73069 0.0
H1644 H 0.4833 0.30301 0.0531 0.0
H1645 H 0.56186 0.28279 0.07867 0.0
H1646 H 0.5017 0.32927 0.01737 0.0
H1647 H 0.58025 0.30806 0.04248 0.0
H1648 H 0.54296 0.32475 0.93593 0.0
H1649 H 0.52199 0.31467 0.97752 0.0
H1650 H 0.58795 0.34848 0.01943 0.0
H1651 H 0.60951 0.3579 0.97754 0.0
C1652 C 0.5045 0.30451 0.05128 0.0
C1653 C 0.5212 0.29052 0.06825 0.0
C1654 C 0.51503 0.31945 0.03081 0.0
C1655 C 0.54241 0.32034 0.02679 0.0
C1656 C 0.55909 0.30797 0.04509 0.0
C1657 C 0.54856 0.29329 0.06573 0.0
C1658 C 0.55291 0.33039 0.95396 0.0
C1659 C 0.57816 0.34164 0.95341 0.0
C1660 C 0.54071 0.32485 0.97789 0.0
C1661 C 0.55337 0.33065 0.00182 0.0
C1662 C 0.57791 0.3434 0.0013 0.0
C1663 C 0.59023 0.34879 0.97731 0.0
H1664 H 0.94046 0.31499 0.32452 0.0
H1665 H 0.914 0.23528 0.31139 0.0
H1666 H 0.91188 0.33029 0.28945 0.0
H1667 H 0.88459 0.25072 0.27662 0.0
H1668 H 0.86077 0.35621 0.22662 0.0
H1669 H 0.86936 0.33749 0.26993 0.0
H1670 H 0.89583 0.26542 0.23313 0.0
H1671 H 0.88658 0.28368 0.19011 0.0
C1672 C 0.92797 0.30084 0.31457 0.0
C1673 C 0.92985 0.2739 0.32021 0.0
C1674 C 0.91133 0.30963 0.29462 0.0
C1675 C 0.89613 0.29166 0.28002 0.0
C1676 C 0.8964 0.26496 0.28723 0.0
C1677 C 0.91319 0.25614 0.30712 0.0
C1678 C 0.86776 0.33611 0.2278 0.0
C1679 C 0.87374 0.32171 0.20487 0.0
C1680 C 0.87273 0.32542 0.25264 0.0
C1681 C 0.88385 0.30021 0.25496 0.0
C1682 C 0.8872 0.28488 0.23213 0.0
C1683 C 0.88211 0.29548 0.20734 0.0
H1684 H -0.00765 0.71892 0.52722 0.0
H1685 H 0.95058 0.67275 0.58516 0.0
H1686 H 0.97759 0.68939 0.49271 0.0
H1687 H 0.93625 0.6425 0.5505 0.0
H1688 H 0.88222 0.63149 0.47598 0.0
H1689 H 0.90473 0.64687 0.51526 0.0
H1690 H 0.97867 0.64652 0.47301 0.0
H1691 H 0.95595 0.63194 0.43333 0.0
C1692 C 0.98042 0.70211 0.53263 0.0
C1693 C 0.97228 0.69832 0.55877 0.0
C1694 C 0.97217 0.68497 0.51287 0.0
C1695 C 0.95569 0.66357 0.51884 0.0
C1696 C 0.9487 0.65898 0.54526 0.0
C1697 C 0.95692 0.67624 0.56508 0.0
C1698 C 0.90337 0.63408 0.4752 0.0
C1699 C 0.9172 0.63118 0.45137 0.0
C1700 C 0.91634 0.64276 0.49783 0.0
C1701 C 0.94342 0.64842 0.4971 0.0
C1702 C 0.95766 0.64296 0.47397 0.0
C1703 C 0.94466 0.63455 0.45127 0.0
H1704 H 0.57698 0.25338 0.66748 0.0
H1705 H 0.54267 0.33066 0.65869 0.0
H1706 H 0.60515 0.26997 0.70276 0.0
H1707 H 0.57021 0.34704 0.69416 0.0
H1708 H 0.61837 0.37272 0.76084 0.0
H1709 H 0.6119 0.35667 0.71594 0.0
H1710 H 0.58889 0.2808 0.7466 0.0
H1711 H 0.5958 0.29647 0.79112 0.0
C1712 C 0.57599 0.27406 0.67259 0.0
C1713 C 0.5572 0.29061 0.66092 0.0
C1714 C 0.59205 0.28353 0.6928 0.0
C1715 C 0.58946 0.30964 0.70161 0.0
C1716 C 0.57276 0.32684 0.68783 0.0
C1717 C 0.55677 0.31739 0.66764 0.0
C1718 C 0.61244 0.35245 0.75795 0.0
C1719 C 0.60695 0.33606 0.77957 0.0
C1720 C 0.60879 0.34329 0.73224 0.0
C1721 C 0.5997 0.31757 0.72774 0.0
C1722 C 0.5962 0.30063 0.74932 0.0
C1723 C 0.59979 0.30977 0.77494 0.0
H1724 H 0.96301 0.31758 0.90246 0.0
H1725 H 0.00305 0.26759 0.95837 0.0
H1726 H 0.94388 0.34276 0.93878 0.0
H1727 H 0.98328 0.29184 -0.00551 0.0
H1728 H 0.95439 0.34299 0.05736 0.0
H1729 H 0.98047 0.33148 0.01873 0.0
H1730 H 0.91029 0.33465 0.97055 0.0
H1731 H 0.88455 0.34734 0.00898 0.0
C1732 C 0.96785 0.31213 0.92252 0.0
C1733 C 0.98429 0.29054 0.92769 0.0
C1734 C 0.95684 0.32645 0.94328 0.0
C1735 C 0.96193 0.31926 0.96954 0.0
C1736 C 0.97926 0.29827 0.97456 0.0
C1737 C 0.99044 0.28417 0.95384 0.0
C1738 C 0.94469 0.34169 0.03838 0.0
C1739 C 0.91742 0.3456 0.03616 0.0
C1740 C 0.95958 0.33501 0.01629 0.0
C1741 C 0.94739 0.33163 0.99166 0.0
C1742 C 0.92038 0.33728 0.98916 0.0
C1743 C 0.90557 0.34441 0.01121 0.0
H1744 H 0.95471 0.73625 0.19918 0.0
H1745 H 0.92303 0.67854 0.14527 0.0
H1746 H 0.92707 0.71932 0.23403 0.0
H1747 H 0.89412 0.66212 0.18008 0.0
H1748 H 0.89023 0.61475 0.25898 0.0
H1749 H 0.90165 0.63635 0.21791 0.0
H1750 H 0.88612 0.71209 0.25372 0.0
H1751 H 0.87618 0.69034 0.29532 0.0
C1752 C 0.94127 0.72034 0.19462 0.0
C1753 C 0.94132 0.70839 0.16969 0.0
C1754 C 0.92512 0.71076 0.21458 0.0
C1755 C 0.90839 0.68918 0.20998 0.0
C1756 C 0.90712 0.67844 0.18443 0.0
C1757 C 0.92357 0.68788 0.16447 0.0
C1758 C 0.88868 0.63597 0.25787 0.0
C1759 C 0.88296 0.65095 0.28042 0.0
C1760 C 0.89505 0.64841 0.23423 0.0
C1761 C 0.89537 0.67605 0.23262 0.0
C1762 C 0.88688 0.69082 0.25451 0.0
C1763 C 0.88107 0.6784 0.2783 0.0
H1764 H 0.49648 0.7367 0.46486 0.0
H1765 H 0.51472 0.67398 0.4102 0.0
H1766 H 0.51538 0.71114 0.50069 0.0
H1767 H 0.53365 0.64824 0.44629 0.0
H1768 H 0.59898 0.63723 0.51233 0.0
H1769 H 0.57394 0.65387 0.47492 0.0
H1770 H 0.50789 0.66981 0.52616 0.0
H1771 H 0.5328 0.65346 0.56363 0.0
C1772 C 0.50433 0.71733 0.46058 0.0
C1773 C 0.50429 0.70734 0.4348 0.0
C1774 C 0.51494 0.70261 0.48111 0.0
C1775 C 0.52585 0.67768 0.47623 0.0
C1776 C 0.52542 0.66745 0.45051 0.0
C1777 C 0.51457 0.68213 0.42994 0.0
C1778 C 0.57895 0.64382 0.51557 0.0
C1779 C 0.5681 0.64451 0.54107 0.0
C1780 C 0.56458 0.65322 0.4941 0.0
C1781 C 0.53916 0.66345 0.49779 0.0
C1782 C 0.52765 0.66244 0.52291 0.0
C1783 C 0.54194 0.65302 0.54434 0.0
H1784 H 0.82603 0.57596 0.71685 0.0
H1785 H 0.80997 0.50962 0.66596 0.0
H1786 H 0.79316 0.60192 0.6932 0.0
H1787 H 0.77713 0.53544 0.64253 0.0
H1788 H 0.72241 0.58769 0.59986 0.0
H1789 H 0.76643 0.57516 0.61488 0.0
H1790 H 0.74448 0.59452 0.69489 0.0
H1791 H 0.70082 0.60706 0.68001 0.0
C1792 C 0.81584 0.56712 0.70031 0.0
C1793 C 0.82008 0.54067 0.69351 0.0
C1794 C 0.79712 0.58197 0.68679 0.0
C1795 C 0.78256 0.57062 0.66618 0.0
C1796 C 0.78826 0.54478 0.65817 0.0
C1797 C 0.80684 0.5299 0.67177 0.0
C1798 C 0.72727 0.58989 0.62053 0.0
C1799 C 0.70812 0.59782 0.63888 0.0
C1800 C 0.75239 0.58269 0.62909 0.0
C1801 C 0.75872 0.58371 0.65602 0.0
C1802 C 0.74022 0.59374 0.67398 0.0
C1803 C 0.71511 0.60063 0.6655 0.0
H1804 H 0.67357 0.57828 0.95986 0.0
H1805 H 0.71048 0.51996 0.00951 0.0
H1806 H 0.64889 0.54364 0.9374 0.0
H1807 H 0.68654 0.48542 0.98673 0.0
H1808 H 0.63274 0.42739 0.95261 0.0
H1809 H 0.64434 0.46604 0.97847 0.0
H1810 H 0.66019 0.50895 0.90668 0.0
H1811 H 0.64767 0.47052 0.8808 0.0
C1812 C 0.67623 0.55808 0.96609 0.0
C1813 C 0.69405 0.55171 0.98626 0.0
C1814 C 0.66219 0.53828 0.95319 0.0
C1815 C 0.66579 0.5118 0.96024 0.0
C1816 C 0.68295 0.50565 0.98109 0.0
C1817 C 0.69686 0.52541 -0.00598 0.0
C1818 C 0.63827 0.44524 0.94237 0.0
C1819 C 0.63979 0.44586 0.91473 0.0
C1820 C 0.64498 0.46733 0.95717 0.0
C1821 C 0.65368 0.49036 0.94464 0.0
C1822 C 0.65342 0.49155 0.91693 0.0
C1823 C 0.64638 0.46951 0.90209 0.0
H1824 H 0.66316 0.4184 0.21643 0.0
H1825 H 0.6868 0.48733 0.17263 0.0
H1826 H 0.69717 0.39262 0.19401 0.0
H1827 H 0.72056 0.46151 0.15014 0.0
H1828 H 0.76954 0.40484 0.10312 0.0
H1829 H 0.72723 0.42152 0.11909 0.0
H1830 H 0.74755 0.39766 0.19817 0.0
H1831 H 0.78978 0.3812 0.18239 0.0
C1832 C 0.67536 0.4279 0.20174 0.0
C1833 C 0.67265 0.45487 0.19642 0.0
C1834 C 0.69472 0.41317 0.18894 0.0
C1835 C 0.71133 0.42513 0.17039 0.0
C1836 C 0.70775 0.45179 0.16416 0.0
C1837 C 0.68865 0.46659 0.17719 0.0
C1838 C 0.76467 0.4026 0.12379 0.0
C1839 C 0.783 0.39205 0.14161 0.0
C1840 C 0.74057 0.41221 0.13289 0.0
C1841 C 0.73433 0.41094 0.15982 0.0
C1842 C 0.75186 0.39868 0.17728 0.0
C1843 C 0.77608 0.38946 0.16828 0.0
H1844 H 0.7926 0.40541 0.42042 0.0
H1845 H 0.83091 0.42063 0.49489 0.0
H1846 H 0.81796 0.44045 0.40009 0.0
H1847 H 0.8572 0.45509 0.47432 0.0
H1848 H 0.86519 0.50504 0.36697 0.0
H1849 H 0.8579 0.46162 0.38603 0.0
H1850 H 0.84206 0.49768 0.46165 0.0
H1851 H 0.85005 0.54064 0.44301 0.0
C1852 C 0.8071 0.4157 0.43221 0.0
C1853 C 0.80937 0.41086 0.45933 0.0
C1854 C 0.82182 0.43567 0.42052 0.0
C1855 C 0.83923 0.45091 0.43574 0.0
C1856 C 0.84345 0.44411 0.46226 0.0
C1857 C 0.82848 0.42437 0.47401 0.0
C1858 C 0.86062 0.50362 0.38778 0.0
C1859 C 0.85765 0.52635 0.40335 0.0
C1860 C 0.85644 0.47875 0.39866 0.0
C1861 C 0.84919 0.47619 0.42528 0.0
C1862 C 0.84795 0.49883 0.44116 0.0
C1863 C 0.85221 0.5236 0.43035 0.0
H1864 H 0.80639 0.47166 0.81115 0.0
H1865 H 0.82238 0.40858 0.75624 0.0
H1866 H 0.77476 0.44388 0.83411 0.0
H1867 H 0.79012 0.3808 0.77909 0.0
H1868 H 0.69681 0.37624 0.80029 0.0
H1869 H 0.73897 0.38974 0.78171 0.0
H1870 H 0.77049 0.39936 0.86015 0.0
H1871 H 0.72829 0.38545 0.87887 0.0
C1872 C 0.8033 0.45174 0.8042 0.0
C1873 C 0.81649 0.44229 0.78181 0.0
C1874 C 0.78547 0.43576 0.81751 0.0
C1875 C 0.78022 0.41022 0.80839 0.0
C1876 C 0.79403 0.40042 0.78649 0.0
C1877 C 0.81232 0.41628 0.77345 0.0
C1878 C 0.71298 0.38052 0.81354 0.0
C1879 C 0.70928 0.38024 0.84097 0.0
C1880 C 0.73713 0.38801 0.80291 0.0
C1881 C 0.75777 0.39572 0.81957 0.0
C1882 C 0.75474 0.39352 0.847 0.0
C1883 C 0.73068 0.38555 0.85765 0.0
H1884 H 0.83034 0.57072 0.0141 0.0
H1885 H 0.79062 0.56685 0.08933 0.0
H1886 H 0.86175 0.5375 0.02896 0.0
H1887 H 0.82156 0.53357 0.10399 0.0
H1888 H 0.86128 0.44607 0.04809 0.0
H1889 H 0.85166 0.49083 0.03492 0.0
H1890 H 0.86571 0.51762 0.11455 0.0
H1891 H 0.87489 0.47256 0.12801 0.0
C1892 C 0.82875 0.56327 0.03403 0.0
C1893 C 0.80774 0.57084 0.0504 0.0
C1894 C 0.8467 0.54427 0.04251 0.0
C1895 C 0.84392 0.53267 0.06749 0.0
C1896 C 0.82441 0.54222 0.0847 0.0
C1897 C 0.80647 0.56112 0.07621 0.0
C1898 C 0.863 0.46153 0.06271 0.0
C1899 C 0.86796 0.4556 0.08929 0.0
C1900 C 0.85775 0.48732 0.05507 0.0
C1901 C 0.85743 0.50768 0.07384 0.0
C1902 C 0.86534 0.5022 0.09979 0.0
C1903 C 0.87059 0.47637 0.10746 0.0
H1904 H 0.66976 0.52325 0.31786 0.0
H1905 H 0.66888 0.58132 0.25574 0.0
H1906 H 0.70417 0.54769 0.34042 0.0
H1907 H 0.70324 0.60609 0.27861 0.0
H1908 H 0.79353 0.60129 0.30003 0.0
H1909 H 0.74975 0.59261 0.28311 0.0
H1910 H 0.71963 0.58836 0.36268 0.0
H1911 H 0.76382 0.59678 0.3798 0.0
C1912 C 0.67653 0.54158 0.30935 0.0
C1913 C 0.66714 0.55014 0.28481 0.0
C1914 C 0.69603 0.55574 0.32242 0.0
C1915 C 0.70651 0.57867 0.31113 0.0
C1916 C 0.69566 0.5883 0.28757 0.0
C1917 C 0.67605 0.57415 0.27451 0.0
C1918 C 0.77753 0.59893 0.31396 0.0
C1919 C 0.7822 0.59911 0.34124 0.0
C1920 C 0.75234 0.5943 0.30424 0.0
C1921 C 0.73133 0.58964 0.3216 0.0
C1922 C 0.73559 0.59167 0.3489 0.0
C1923 C 0.76084 0.59651 0.35866 0.0
H1924 H 0.71316 0.45551 0.4967 0.0
H1925 H 0.67387 0.39857 0.54615 0.0
H1926 H 0.68449 0.48988 0.51348 0.0
H1927 H 0.64464 0.43311 0.56274 0.0
H1928 H 0.63807 0.51083 0.61363 0.0
H1929 H 0.65247 0.47077 0.59184 0.0
H1930 H 0.63981 0.50706 0.51593 0.0
H1931 H 0.62596 0.54749 0.5377 0.0
C1932 C 0.69808 0.45028 0.51087 0.0
C1933 C 0.69592 0.42449 0.52039 0.0
C1934 C 0.68143 0.46992 0.52028 0.0
C1935 C 0.66226 0.46418 0.53941 0.0
C1936 C 0.65936 0.43811 0.54813 0.0
C1937 C 0.67605 0.41839 0.53864 0.0
C1938 C 0.63774 0.51012 0.59229 0.0
C1939 C 0.63155 0.53258 0.5774 0.0
C1940 C 0.64585 0.48705 0.57979 0.0
C1941 C 0.64774 0.48598 0.55219 0.0
C1942 C 0.63909 0.50757 0.53727 0.0
C1943 C 0.63111 0.53069 0.54976 0.0
H1944 H 0.67651 0.82341 0.5315 0.0
H1945 H 0.75073 0.80593 0.56926 0.0
H1946 H 0.65567 0.78786 0.55578 0.0
H1947 H 0.72967 0.77052 0.59405 0.0
H1948 H 0.69251 0.68646 0.58869 0.0
H1949 H 0.71359 0.72791 0.57821 0.0
H1950 H 0.64223 0.76958 0.59862 0.0
H1951 H 0.62075 0.72782 0.60873 0.0
C1952 C 0.68824 0.81227 0.54539 0.0
C1953 C 0.7153 0.81706 0.5482 0.0
C1954 C 0.67624 0.79208 0.55951 0.0
C1955 C 0.6911 0.77633 0.57668 0.0
C1956 C 0.71785 0.78218 0.58068 0.0
C1957 C 0.72987 0.80242 0.56654 0.0
C1958 C 0.68134 0.70444 0.59127 0.0
C1959 C 0.65478 0.7038 0.59904 0.0
C1960 C 0.69356 0.72826 0.58555 0.0
C1961 C 0.6795 0.75196 0.58747 0.0
C1962 C 0.65341 0.75152 0.59672 0.0
C1963 C 0.64117 0.72764 0.60254 0.0
H1964 H 0.25935 0.69379 0.42846 0.0
H1965 H 0.18544 0.66227 0.45648 0.0
H1966 H 0.23577 0.72974 0.40704 0.0
H1967 H 0.16199 0.69842 0.43562 0.0
H1968 H 0.12522 0.75955 0.38285 0.0
H1969 H 0.14984 0.71988 0.39404 0.0
H1970 H 0.21274 0.76776 0.42547 0.0
H1971 H 0.18864 0.80722 0.41394 0.0
C1972 C 0.23807 0.69442 0.42979 0.0
C1973 C 0.22421 0.6755 0.44436 0.0
C1974 C 0.2246 0.715 0.41763 0.0
C1975 C 0.19709 0.71699 0.4199 0.0
C1976 C 0.18317 0.69727 0.43334 0.0
C1977 C 0.19662 0.67669 0.44545 0.0
C1978 C 0.14438 0.7616 0.39197 0.0
C1979 C 0.15483 0.78657 0.39772 0.0
C1980 C 0.15844 0.73889 0.39838 0.0
C1981 C 0.1832 0.74075 0.41058 0.0
C1982 C 0.1939 0.76569 0.4157 0.0
C1983 C 0.1799 0.78833 0.40933 0.0
H1984 H 0.58455 0.94402 0.66517 0.0
H1985 H 0.53302 -0.00011 0.70339 0.0
H1986 H 0.54852 0.93046 0.63634 0.0
H1987 H 0.49682 0.98551 0.67599 0.0
H1988 H 0.43282 0.9604 0.62579 0.0
H1989 H 0.47471 0.98135 0.63623 0.0
H1990 H 0.51123 0.90465 0.64224 0.0
H1991 H 0.46998 0.88409 0.63024 0.0
C1992 C 0.56555 0.9535 0.66724 0.0
C1993 C 0.5614 0.97271 0.68669 0.0
C1994 C 0.54488 0.94569 0.65083 0.0
C1995 C 0.51957 0.95659 0.65398 0.0
C1996 C 0.51601 0.97687 0.67256 0.0
C1997 C 0.53675 0.98498 0.68856 0.0
C1998 C 0.45005 0.94815 0.62867 0.0
C1999 C 0.44808 0.92063 0.62769 0.0
C2000 C 0.47402 0.9601 0.63482 0.0
C2001 C 0.49628 0.94472 0.6408 0.0
C2002 C 0.49469 0.91726 0.63763 0.0
C2003 C 0.47089 0.90538 0.6309 0.0
H2004 H 0.23614 0.29823 0.93381 0.0
H2005 H 0.30481 0.31307 0.98187 0.0
H2006 H 0.25913 0.26204 0.9121 0.0
H2007 H 0.32764 0.27662 0.96044 0.0
H2008 H 0.36749 0.22055 0.90276 0.0
H2009 H 0.34589 0.261 0.91744 0.0
H2010 H 0.27307 0.21837 0.92794 0.0
H2011 H 0.29426 0.17827 0.91305 0.0
C2012 C 0.25618 0.29383 0.93962 0.0
C2013 C 0.26864 0.30822 0.95967 0.0
C2014 C 0.2693 0.27313 0.92724 0.0
C2015 C 0.29509 0.26649 0.93471 0.0
C2016 C 0.30786 0.2815 0.95412 0.0
C2017 C 0.29472 0.30219 0.96653 0.0
C2018 C 0.34681 0.2199 0.90796 0.0
C2019 C 0.33265 0.19617 0.90694 0.0
C2020 C 0.33452 0.243 0.91645 0.0
C2021 C 0.30784 0.24276 0.9238 0.0
C2022 C 0.29356 0.2192 0.92208 0.0
C2023 C 0.30582 0.19617 0.91377 0.0
H2024 H 0.4515 0.48885 0.70847 0.0
H2025 H 0.4002 0.55336 0.68762 0.0
H2026 H 0.48757 0.50981 0.6852 0.0
H2027 H 0.43618 0.57404 0.66335 0.0
H2028 H 0.51655 0.61822 0.6629 0.0
H2029 H 0.4759 0.59627 0.67573 0.0
H2030 H 0.50567 0.52298 0.64415 0.0
H2031 H 0.54667 0.54473 0.63235 0.0
C2032 C 0.44781 0.50725 0.69837 0.0
C2033 C 0.4232 0.51964 0.70005 0.0
C2034 C 0.46843 0.51921 0.68484 0.0
C2035 C 0.46478 0.54369 0.6725 0.0
C2036 C 0.43971 0.5554 0.67303 0.0
C2037 C 0.4191 0.54351 0.68678 0.0
C2038 C 0.51421 0.59751 0.6584 0.0
C2039 C 0.53489 0.58305 0.6471 0.0
C2040 C 0.49086 0.58494 0.66557 0.0
C2041 C 0.48768 0.55778 0.66124 0.0
C2042 C 0.50776 0.54378 0.64833 0.0
C2043 C 0.53121 0.55624 0.64152 0.0
H2044 H 0.79387 0.18374 -0.00574 0.0
H2045 H 0.75711 0.16003 0.06734 0.0
H2046 H 0.81124 0.22298 0.01587 0.0
H2047 H 0.7751 0.19929 0.0891 0.0
H2048 H 0.84646 0.2588 0.11387 0.0
H2049 H 0.82578 0.21855 0.09714 0.0
H2050 H 0.78484 0.26387 0.03815 0.0
H2051 H 0.80497 0.30405 0.05483 0.0
C2052 C 0.78975 0.18679 0.015 0.0
C2053 C 0.77412 0.16897 0.02916 0.0
C2054 C 0.79955 0.20925 0.02727 0.0
C2055 C 0.79425 0.21403 0.05398 0.0
C2056 C 0.77934 0.19587 0.06845 0.0
C2057 C 0.76909 0.17356 0.05602 0.0
C2058 C 0.83274 0.26021 0.09758 0.0
C2059 C 0.82752 0.28455 0.08551 0.0
C2060 C 0.8209 0.23725 0.08815 0.0
C2061 C 0.80405 0.23832 0.0663 0.0
C2062 C 0.79798 0.26269 0.05493 0.0
C2063 C 0.80943 0.28563 0.06457 0.0
H2064 H 0.54648 0.98113 0.80889 0.0
H2065 H 0.5809 0.05802 0.79741 0.0
H2066 H 0.50908 0.00133 0.8314 0.0
H2067 H 0.54334 0.07819 0.81912 0.0
H2068 H 0.47409 0.10842 0.86476 0.0
H2069 H 0.51537 0.08483 0.85766 0.0
H2070 H 0.47412 0.02686 0.81094 0.0
H2071 H 0.43306 0.04986 0.81834 0.0
C2072 C 0.5463 0.00227 0.81166 0.0
C2073 C 0.56622 0.0181 0.80096 0.0
C2074 C 0.52489 0.01382 0.82442 0.0
C2075 C 0.52308 0.04135 0.82651 0.0
C2076 C 0.5442 0.05693 0.8179 0.0
C2077 C 0.56564 0.04538 0.80527 0.0
C2078 C 0.47384 0.09056 0.85309 0.0
C2079 C 0.45032 0.0812 0.84186 0.0
C2080 C 0.49745 0.07704 0.84913 0.0
C2081 C 0.49792 0.05394 0.8339 0.0
C2082 C 0.47432 0.0443 0.82324 0.0
C2083 C 0.4508 0.05773 0.8272 0.0
H2084 H 0.92716 -0.00821 0.31375 0.0
H2085 H 0.89622 0.91442 0.29672 0.0
H2086 H 0.96513 0.97185 0.33531 0.0
H2087 H 0.93447 0.89453 0.31754 0.0
H2088 H 0.00628 0.86519 0.36087 0.0
H2089 H 0.96353 0.88661 0.35543 0.0
H2090 H 0.0009 0.94961 0.31226 0.0
H2091 H 0.04329 0.92874 0.31794 0.0
C2092 C 0.92817 0.97055 0.31518 0.0
C2093 C 0.90914 0.95462 0.30308 0.0
C2094 C 0.94993 0.95914 0.3274 0.0
C2095 C 0.95304 0.93166 0.32749 0.0
C2096 C 0.93262 0.91576 0.31778 0.0
C2097 C 0.91078 0.92717 0.30571 0.0
C2098 C 0.00534 0.88368 0.35034 0.0
C2099 C 0.02819 0.89511 0.33962 0.0
C2100 C 0.9809 0.89595 0.34732 0.0
C2101 C 0.97892 0.91989 0.33366 0.0
C2102 C 0.00183 0.93148 0.32342 0.0
C2103 C 0.02614 0.91927 0.32636 0.0
H2104 H 0.43701 0.30316 0.14733 0.0
H2105 H 0.41859 0.2267 0.1795 0.0
H2106 H 0.41596 0.3241 0.18479 0.0
H2107 H 0.3964 0.2477 0.21664 0.0
H2108 H 0.41381 0.29169 0.29454 0.0
H2109 H 0.41755 0.2691 0.25276 0.0
H2110 H 0.38015 0.33469 0.21356 0.0
H2111 H 0.37709 0.35787 0.25563 0.0
C2112 C 0.42758 0.29083 0.16196 0.0
C2113 C 0.43004 0.26333 0.16095 0.0
C2114 C 0.41533 0.30286 0.1834 0.0
C2115 C 0.4051 0.28755 0.20406 0.0
C2116 C 0.40479 0.26 0.20138 0.0
C2117 C 0.41733 0.24797 0.18005 0.0
C2118 C 0.40616 0.3013 0.27711 0.0
C2119 C 0.39556 0.32679 0.27839 0.0
C2120 C 0.40797 0.28814 0.25311 0.0
C2121 C 0.39904 0.30003 0.22978 0.0
C2122 C 0.38743 0.32511 0.23116 0.0
C2123 C 0.38575 0.3384 0.25524 0.0
H2124 H 0.41539 0.69721 0.89651 0.0
H2125 H 0.488 0.65385 0.90546 0.0
H2126 H 0.39563 0.67172 0.9317 0.0
H2127 H 0.46792 0.62766 0.94038 0.0
H2128 H 0.44276 0.63891 0.02869 0.0
H2129 H 0.45916 0.64425 0.98424 0.0
H2130 H 0.38076 0.63202 0.95346 0.0
H2131 H 0.36405 0.62724 -0.0017 0.0
C2132 C 0.42682 0.68156 0.90538 0.0
C2133 C 0.45343 0.67799 0.89884 0.0
C2134 C 0.41542 0.66676 0.92546 0.0
C2135 C 0.43043 0.64806 0.93923 0.0
C2136 C 0.45609 0.64236 0.93048 0.0
C2137 C 0.46754 0.65728 0.91044 0.0
C2138 C 0.42901 0.63694 0.01249 0.0
C2139 C 0.40198 0.63333 0.01711 0.0
C2140 C 0.43851 0.63964 0.98689 0.0
C2141 C 0.42121 0.63873 0.96529 0.0
C2142 C 0.39449 0.63313 0.96976 0.0
C2143 C 0.38494 0.63043 -0.00456 0.0
H2144 H 0.02312 0.75277 0.70318 0.0
H2145 H 0.06139 0.70162 0.64686 0.0
H2146 H 0.04567 0.73063 0.73891 0.0
H2147 H 0.08489 0.67986 0.68275 0.0
H2148 H 0.08375 0.6243 0.75618 0.0
H2149 H 0.07264 0.64987 0.7171 0.0
H2150 H 0.08588 0.72182 0.76073 0.0
H2151 H 0.09581 0.69624 0.79998 0.0
C2152 C 0.03686 0.73716 0.69841 0.0
C2153 C 0.04032 0.72872 0.67231 0.0
C2154 C 0.04998 0.72455 0.7189 0.0
C2155 C 0.06705 0.70337 0.71371 0.0
C2156 C 0.07157 0.69585 0.68741 0.0
C2157 C 0.05826 0.70839 0.66687 0.0
C2158 C 0.08465 0.64557 0.75723 0.0
C2159 C 0.09008 0.65833 0.78116 0.0
C2160 C 0.07846 0.66025 0.73482 0.0
C2161 C 0.078 0.68792 0.73591 0.0
C2162 C 0.08539 0.70056 0.75942 0.0
C2163 C 0.09113 0.68592 0.78187 0.0
H2164 H 0.05867 0.31113 0.39147 0.0
H2165 H 0.99015 0.30456 0.44149 0.0
H2166 H 0.08061 0.33754 0.42516 0.0
H2167 H 0.01227 0.32951 0.47552 0.0
H2168 H 0.05201 0.37638 0.53486 0.0
H2169 H 0.03045 0.36775 0.49284 0.0
H2170 H 0.10033 0.32722 0.46556 0.0
H2171 H 0.1222 0.33735 0.50691 0.0
C2172 C 0.04821 0.31563 0.40955 0.0
C2173 C 0.02289 0.30555 0.41408 0.0
C2174 C 0.0608 0.3306 0.42891 0.0
C2175 C 0.04842 0.33538 0.45328 0.0
C2176 C 0.02239 0.32663 0.45696 0.0
C2177 C 0.00971 0.31206 0.43749 0.0
C2178 C 0.06286 0.36614 0.51957 0.0
C2179 C 0.08856 0.35713 0.52417 0.0
C2180 C 0.05051 0.36108 0.49556 0.0
C2181 C 0.06339 0.34626 0.47596 0.0
C2182 C 0.0898 0.33888 0.48 0.0
C2183 C 0.10235 0.3445 0.50381 0.0
H2184 H 0.43143 0.68405 0.32712 0.0
H2185 H 0.43049 0.76032 0.28969 0.0
H2186 H 0.4148 0.66403 0.28681 0.0
H2187 H 0.41291 0.7405 0.24962 0.0
H2188 H 0.37181 0.63658 0.21408 0.0
H2189 H 0.37931 0.65937 0.25572 0.0
H2190 H 0.43234 0.71309 0.21648 0.0
H2191 H 0.42431 0.69096 0.17491 0.0
C2192 C 0.42706 0.6966 0.31045 0.0
C2193 C 0.43256 0.72364 0.31132 0.0
C2194 C 0.41739 0.68517 0.2874 0.0
C2195 C 0.41286 0.70065 0.26491 0.0
C2196 C 0.41678 0.72798 0.26644 0.0
C2197 C 0.42668 0.73935 0.2894 0.0
C2198 C 0.38496 0.65335 0.21434 0.0
C2199 C 0.39758 0.66186 0.1912 0.0
C2200 C 0.38927 0.66637 0.2382 0.0
C2201 C 0.40637 0.68806 0.2394 0.0
C2202 C 0.41864 0.69678 0.21617 0.0
C2203 C 0.41422 0.68391 0.19233 0.0
H2204 H -0.00642 0.64861 0.0643 0.0
H2205 H 0.07182 0.67761 0.08075 0.0
H2206 H 0.01086 0.62322 0.02725 0.0
H2207 H 0.08888 0.65316 0.04343 0.0
H2208 H 0.11609 0.6116 0.97284 0.0
H2209 H 0.09842 0.61471 0.01748 0.0
H2210 H 0.02422 0.64201 0.98598 0.0
H2211 H 0.04142 0.63825 0.94172 0.0
C2212 C 0.01455 0.64901 0.06042 0.0
C2213 C 0.03127 0.6656 0.07486 0.0
C2214 C 0.02443 0.63457 0.03917 0.0
C2215 C 0.0511 0.63673 0.03198 0.0
C2216 C 0.06825 0.65099 0.04837 0.0
C2217 C 0.05842 0.66524 0.06968 0.0
C2218 C 0.09586 0.61784 0.97546 0.0
C2219 C 0.08037 0.62529 0.95374 0.0
C2220 C 0.08575 0.61956 0.00102 0.0
C2221 C 0.06 0.62879 0.00532 0.0
C2222 C 0.04402 0.63449 0.98346 0.0
C2223 C 0.05405 0.6327 0.95799 0.0
H2224 H 0.05252 0.31433 0.82685 0.0
H2225 H 0.07571 0.2374 0.79889 0.0
H2226 H 0.073 0.33438 0.7885 0.0
H2227 H 0.09711 0.25753 0.76091 0.0
H2228 H 0.1176 0.36581 0.71957 0.0
H2229 H 0.11119 0.34444 0.7621 0.0
H2230 H 0.07728 0.27703 0.72271 0.0
H2231 H 0.08427 0.29788 0.68042 0.0
C2232 C 0.0627 0.30179 0.81288 0.0
C2233 C 0.06212 0.27432 0.81548 0.0
C2234 C 0.07458 0.31328 0.79097 0.0
C2235 C 0.08628 0.29748 0.77145 0.0
C2236 C 0.0877 0.27014 0.77533 0.0
C2237 C 0.07558 0.25864 0.79711 0.0
C2238 C 0.109 0.34632 0.72 0.0
C2239 C 0.10114 0.33368 0.69662 0.0
C2240 C 0.10536 0.3341 0.74436 0.0
C2241 C 0.09372 0.30908 0.74577 0.0
C2242 C 0.08674 0.29612 0.72232 0.0
C2243 C 0.09049 0.30823 0.69803 0.0
H2244 H 0.41769 0.29917 0.58148 0.0
H2245 H 0.49361 0.3329 0.56323 0.0
H2246 H 0.39888 0.32058 0.54295 0.0
H2247 H 0.47463 0.35497 0.52507 0.0
H2248 H 0.4444 0.33847 0.44026 0.0
H2249 H 0.46155 0.33322 0.48442 0.0
H2250 H 0.38741 0.35964 0.51691 0.0
H2251 H 0.36985 0.3645 0.47236 0.0
C2252 C 0.43014 0.31188 0.56971 0.0
C2253 C 0.45721 0.31391 0.57488 0.0
C2254 C 0.41933 0.32428 0.54773 0.0
C2255 C 0.43544 0.33901 0.53072 0.0
C2256 C 0.46191 0.34323 0.53754 0.0
C2257 C 0.47275 0.33068 0.55939 0.0
C2258 C 0.43175 0.34342 0.45674 0.0
C2259 C 0.40561 0.3515 0.45276 0.0
C2260 C 0.44173 0.34074 0.48211 0.0
C2261 C 0.42584 0.34609 0.50415 0.0
C2262 C 0.40003 0.35524 0.50025 0.0
C2263 C 0.39001 0.358 0.47476 0.0
H2264 H 0.1707 0.45163 0.29999 0.0
H2265 H 0.19739 0.42833 0.22251 0.0
H2266 H 0.20671 0.42719 0.31985 0.0
H2267 H 0.2329 0.40287 0.2424 0.0
H2268 H 0.3132 0.40516 0.28514 0.0
H2269 H 0.27259 0.4166 0.26322 0.0
H2270 H 0.22808 0.38608 0.32911 0.0
H2271 H 0.26908 0.37533 0.3517 0.0
C2272 C 0.18398 0.44079 0.28725 0.0
C2273 C 0.18167 0.44224 0.25974 0.0
C2274 C 0.20446 0.42655 0.29863 0.0
C2275 C 0.2228 0.41328 0.28267 0.0
C2276 C 0.21936 0.41333 0.25517 0.0
C2277 C 0.19906 0.42785 0.24379 0.0
C2278 C 0.29481 0.40056 0.29492 0.0
C2279 C 0.29442 0.38981 0.32042 0.0
C2280 C 0.27143 0.40688 0.28217 0.0
C2281 C 0.24709 0.4024 0.29449 0.0
C2282 C 0.24659 0.39015 0.31932 0.0
C2283 C 0.27006 0.38395 0.33221 0.0
H2284 H 0.29933 0.42972 -0.00642 0.0
H2285 H 0.25912 0.42531 0.06856 0.0
H2286 H 0.32618 0.46594 0.01022 0.0
H2287 H 0.28567 0.4617 0.08503 0.0
H2288 H 0.34748 0.51749 0.11355 0.0
H2289 H 0.33101 0.47564 0.09673 0.0
H2290 H 0.31523 0.5119 0.02141 0.0
H2291 H 0.33198 0.55351 0.03789 0.0
C2292 C 0.29637 0.43638 0.01366 0.0
C2293 C 0.27699 0.42496 0.02973 0.0
C2294 C 0.31171 0.45708 0.02314 0.0
C2295 C 0.30795 0.46662 0.04886 0.0
C2296 C 0.28923 0.45452 0.06523 0.0
C2297 C 0.27386 0.43387 0.05573 0.0
C2298 C 0.34094 0.51642 0.09326 0.0
C2299 C 0.34067 0.53892 0.07717 0.0
C2300 C 0.33141 0.4925 0.0837 0.0
C2301 C 0.32164 0.49063 0.05788 0.0
C2302 C 0.32282 0.51271 0.04135 0.0
C2303 C 0.33222 0.53662 0.05089 0.0
H2304 H 0.30577 0.56214 0.73781 0.0
H2305 H 0.32304 0.54286 0.8189 0.0
H2306 H 0.26868 0.58912 0.75221 0.0
H2307 H 0.28569 0.5691 0.83324 0.0
H2308 H 0.21979 0.61981 0.85599 0.0
H2309 H 0.26315 0.6108 0.83751 0.0
H2310 H 0.22667 0.57497 0.76938 0.0
H2311 H 0.1835 0.5845 0.7874 0.0
C2312 C 0.30189 0.56404 0.75873 0.0
C2313 C 0.3169 0.55007 0.77725 0.0
C2314 C 0.28065 0.57942 0.76695 0.0
C2315 C 0.27403 0.58094 0.7938 0.0
C2316 C 0.29036 0.56856 0.81241 0.0
C2317 C 0.31166 0.55331 0.8042 0.0
C2318 C 0.22102 0.61046 0.83682 0.0
C2319 C 0.19819 0.60231 0.82343 0.0
C2320 C 0.24587 0.6053 0.82627 0.0
C2321 C 0.24834 0.59185 0.8022 0.0
C2322 C 0.22549 0.58557 0.78788 0.0
C2323 C 0.20067 0.59083 0.79835 0.0
H2324 H 0.18954 0.56101 0.4892 0.0
H2325 H 0.23522 0.56399 0.56099 0.0
H2326 H 0.16123 0.52743 0.50865 0.0
H2327 H 0.20741 0.53008 0.58016 0.0
H2328 H 0.14707 0.47784 0.61483 0.0
H2329 H 0.16328 0.51886 0.59594 0.0
H2330 H 0.1688 0.48151 0.51954 0.0
H2331 H 0.1521 0.44092 0.53808 0.0
C2332 C 0.19345 0.55453 0.50915 0.0
C2333 C 0.21473 0.56478 0.52351 0.0
C2334 C 0.17725 0.53538 0.52027 0.0
C2335 C 0.18214 0.52614 0.54589 0.0
C2336 C 0.20289 0.5371 0.56053 0.0
C2337 C 0.21902 0.55629 0.54945 0.0
C2338 C 0.15121 0.47856 0.5939 0.0
C2339 C 0.14881 0.45598 0.57806 0.0
C2340 C 0.1606 0.502 0.58313 0.0
C2341 C 0.16763 0.50325 0.55637 0.0
C2342 C 0.1634 0.48123 0.5402 0.0
C2343 C 0.15405 0.45785 0.55092 0.0
H2344 H 0.17847 0.57209 0.23461 0.0
H2345 H 0.16965 0.54034 0.15605 0.0
H2346 H 0.21211 0.60242 0.21853 0.0
H2347 H 0.20342 0.57022 0.1401 0.0
H2348 H 0.26185 0.6266 0.1134 0.0
H2349 H 0.21913 0.61515 0.13201 0.0
H2350 H 0.25702 0.59177 0.20452 0.0
H2351 H 0.29952 0.60359 0.18628 0.0
C2352 C 0.18339 0.57193 0.21383 0.0
C2353 C 0.17187 0.55359 0.19663 0.0
C2354 C 0.20261 0.58928 0.20466 0.0
C2355 C 0.21054 0.58855 0.17813 0.0
C2356 C 0.19756 0.57149 0.1606 0.0
C2357 C 0.17839 0.55416 0.16977 0.0
C2358 C 0.26101 0.6197 0.13357 0.0
C2359 C 0.28417 0.6153 0.14811 0.0
C2360 C 0.23653 0.6131 0.14417 0.0
C2361 C 0.23481 0.60212 0.1695 0.0
C2362 C 0.25767 0.60027 0.18496 0.0
C2363 C 0.28212 0.60682 0.17438 0.0
H2364 H 0.20296 0.41113 0.91933 0.0
H2365 H 0.15092 0.4214 0.98598 0.0
H2366 H 0.17978 0.44587 0.89584 0.0
H2367 H 0.12723 0.45568 0.96219 0.0
H2368 H 0.13395 0.54229 0.93363 0.0
H2369 H 0.14315 0.49974 0.95281 0.0
H2370 H 0.1394 0.46381 0.87562 0.0
H2371 H 0.13055 0.50695 0.85611 0.0
C2372 C 0.18614 0.42038 0.92868 0.0
C2373 C 0.17907 0.41408 0.95466 0.0
C2374 C 0.1727 0.4401 0.91513 0.0
C2375 C 0.15191 0.4537 0.92734 0.0
C2376 C 0.14349 0.44581 0.95251 0.0
C2377 C 0.15704 0.42622 0.96611 0.0
C2378 C 0.13479 0.52532 0.9207 0.0
C2379 C 0.13201 0.52803 0.8933 0.0
C2380 C 0.13972 0.50083 0.93177 0.0
C2381 C 0.14203 0.47844 0.91571 0.0
C2382 C 0.1379 0.48083 0.88841 0.0
C2383 C 0.13278 0.50545 0.87729 0.0
H2384 H 0.28594 0.44288 0.75034 0.0
H2385 H 0.34139 0.42358 0.68867 0.0
H2386 H 0.25202 0.41822 0.72769 0.0
H2387 H 0.30761 0.39762 0.66635 0.0
H2388 H 0.22986 0.39807 0.61728 0.0
H2389 H 0.26981 0.40838 0.64157 0.0
H2390 H 0.23414 0.37843 0.71296 0.0
H2391 H 0.19367 0.36957 0.68877 0.0
C2392 C 0.29103 0.43275 0.73223 0.0
C2393 C 0.31612 0.43544 0.72103 0.0
C2394 C 0.27163 0.41834 0.71931 0.0
C2395 C 0.27699 0.406 0.69504 0.0
C2396 C 0.30268 0.40729 0.68474 0.0
C2397 C 0.32205 0.42203 0.69756 0.0
C2398 C 0.23082 0.39321 0.63804 0.0
C2399 C 0.20861 0.38357 0.65132 0.0
C2400 C 0.25379 0.39895 0.652 0.0
C2401 C 0.25505 0.39469 0.67938 0.0
C2402 C 0.23356 0.38269 0.69206 0.0
C2403 C 0.21044 0.37749 0.67822 0.0
H2404 H 0.34052 0.56415 0.48592 0.0
H2405 H 0.29861 0.57714 0.41298 0.0
H2406 H 0.36508 0.52834 0.46529 0.0
H2407 H 0.32271 0.54108 0.39257 0.0
H2408 H 0.37204 0.47732 0.35895 0.0
H2409 H 0.36452 0.52089 0.37798 0.0
H2410 H 0.34748 0.4851 0.4533 0.0
H2411 H 0.35532 0.44192 0.4346 0.0
C2412 C 0.33692 0.55966 0.46535 0.0
C2413 C 0.31733 0.57299 0.45115 0.0
C2414 C 0.35095 0.53919 0.45358 0.0
C2415 C 0.34554 0.53172 0.42746 0.0
C2416 C 0.32746 0.54651 0.41266 0.0
C2417 C 0.31347 0.567 0.42442 0.0
C2418 C 0.36722 0.47885 0.3797 0.0
C2419 C 0.36377 0.45619 0.39517 0.0
C2420 C 0.36288 0.50375 0.39054 0.0
C2421 C 0.35528 0.50636 0.41705 0.0
C2422 C 0.3536 0.48378 0.43288 0.0
C2423 C 0.35777 0.45897 0.42206 0.0
H2424 H 0.30777 0.15848 0.43061 0.0
H2425 H 0.23279 0.18554 0.40087 0.0
H2426 H 0.32978 0.19447 0.40834 0.0
H2427 H 0.25501 0.22134 0.37776 0.0
H2428 H 0.29745 0.30151 0.39165 0.0
H2429 H 0.2743 0.2603 0.39704 0.0
H2430 H 0.34264 0.21794 0.36896 0.0
H2431 H 0.36631 0.25941 0.36417 0.0
C2432 C 0.29608 0.17176 0.41871 0.0
C2433 C 0.26854 0.16967 0.41794 0.0
C2434 C 0.30874 0.19225 0.4057 0.0
C2435 C 0.29407 0.21095 0.39159 0.0
C2436 C 0.26673 0.20746 0.38892 0.0
C2437 C 0.25404 0.18699 0.40207 0.0
C2438 C 0.30754 0.28349 0.38631 0.0
C2439 C 0.33395 0.28372 0.37805 0.0
C2440 C 0.29409 0.25983 0.38907 0.0
C2441 C 0.30669 0.23586 0.38351 0.0
C2442 C 0.33257 0.23614 0.3737 0.0
C2443 C 0.3461 0.25987 0.37101 0.0
H2444 H 0.82218 0.33301 0.54877 0.0
H2445 H 0.74376 0.31713 0.57769 0.0
H2446 H 0.83952 0.29801 0.57617 0.0
H2447 H 0.76127 0.28236 0.60585 0.0
H2448 H 0.79561 0.19695 0.5997 0.0
H2449 H 0.77673 0.23982 0.59126 0.0
H2450 H 0.84852 0.27695 0.6179 0.0
H2451 H 0.86786 0.23376 0.62579 0.0
C2452 C 0.80876 0.32254 0.56163 0.0
C2453 C 0.78157 0.32729 0.56065 0.0
C2454 C 0.81874 0.3026 0.57756 0.0
C2455 C 0.80168 0.28711 0.59286 0.0
C2456 C 0.7748 0.29367 0.59386 0.0
C2457 C 0.76479 0.3136 0.57782 0.0
C2458 C 0.80731 0.2142 0.60418 0.0
C2459 C 0.83351 0.21188 0.61276 0.0
C2460 C 0.79631 0.23888 0.59965 0.0
C2461 C 0.81122 0.26181 0.60369 0.0
C2462 C 0.83671 0.25959 0.61424 0.0
C2463 C 0.84776 0.23484 0.61874 0.0
H2464 H 0.44801 0.99152 0.28996 0.0
H2465 H 0.39452 0.05401 0.3117 0.0
H2466 H 0.4827 0.01223 0.31537 0.0
H2467 H 0.42919 0.07449 0.3381 0.0
H2468 H 0.50969 0.11945 0.34205 0.0
H2469 H 0.46909 0.09787 0.32851 0.0
H2470 H 0.49886 0.02374 0.35775 0.0
H2471 H 0.53988 0.04518 0.37023 0.0
C2472 C 0.44355 0.00946 0.30063 0.0
C2473 C 0.4187 0.02132 0.29867 0.0
C2474 C 0.46337 0.02124 0.31544 0.0
C2475 C 0.45872 0.04504 0.32883 0.0
C2476 C 0.43347 0.05633 0.32776 0.0
C2477 C 0.41363 0.04459 0.31274 0.0
C2478 C 0.5073 0.09866 0.34607 0.0
C2479 C 0.52807 0.08385 0.35667 0.0
C2480 C 0.48398 0.08629 0.33843 0.0
C2481 C 0.48094 0.05897 0.34162 0.0
C2482 C 0.50089 0.04468 0.35438 0.0
C2483 C 0.52432 0.05695 0.36162 0.0
H2484 H 0.73665 0.66537 0.09567 0.0
H2485 H 0.66428 0.64773 0.05458 0.0
H2486 H 0.71457 0.70089 0.11933 0.0
H2487 H 0.64248 0.68374 0.07742 0.0
H2488 H 0.60687 0.75003 0.12196 0.0
H2489 H 0.62653 0.70644 0.11649 0.0
H2490 H 0.70203 0.74259 0.10112 0.0
H2491 H 0.6828 0.78563 0.10717 0.0
C2492 C 0.7159 0.6688 0.09207 0.0
C2493 C 0.70228 0.65426 0.07291 0.0
C2494 C 0.70328 0.68914 0.10555 0.0
C2495 C 0.67695 0.69547 0.09983 0.0
C2496 C 0.66273 0.67933 0.0824 0.0
C2497 C 0.67529 0.65881 0.06913 0.0
C2498 C 0.62777 0.74858 0.11791 0.0
C2499 C 0.64317 0.7713 0.1145 0.0
C2500 C 0.63899 0.72364 0.11474 0.0
C2501 C 0.66579 0.72106 0.10826 0.0
C2502 C 0.68141 0.74378 0.10647 0.0
C2503 C 0.67026 0.76857 0.10957 0.0
H2504 H 0.59727 0.43457 0.30545 0.0
H2505 H 0.54006 0.49572 0.29071 0.0
H2506 H 0.5655 0.41163 0.33334 0.0
H2507 H 0.50818 0.47259 0.31756 0.0
H2508 H 0.45344 0.43411 0.36858 0.0
H2509 H 0.49425 0.45755 0.3593 0.0
H2510 H 0.52649 0.38695 0.32407 0.0
H2511 H 0.48612 0.3633 0.33488 0.0
C2512 C 0.57799 0.44321 0.30841 0.0
C2513 C 0.57093 0.46672 0.29572 0.0
C2514 C 0.55982 0.43007 0.32431 0.0
C2515 C 0.53427 0.44018 0.32762 0.0
C2516 C 0.5278 0.46441 0.3159 0.0
C2517 C 0.54599 0.47759 0.30023 0.0
C2518 C 0.46968 0.4235 0.35965 0.0
C2519 C 0.46675 0.39716 0.35202 0.0
C2520 C 0.49293 0.43689 0.35419 0.0
C2521 C 0.51331 0.42434 0.34026 0.0
C2522 C 0.51123 0.39722 0.33489 0.0
C2523 C 0.48811 0.38365 0.34094 0.0
H2524 H 0.18322 0.83684 0.91664 0.0
H2525 H 0.24729 0.78342 0.9332 0.0
H2526 H 0.1598 0.80162 0.8937 0.0
H2527 H 0.2237 0.7482 0.91149 0.0
H2528 H 0.18361 0.68833 0.86575 0.0
H2529 H 0.20699 0.72957 0.87258 0.0
H2530 H 0.13699 0.76317 0.9078 0.0
H2531 H 0.11329 0.72228 0.89947 0.0
C2532 C 0.19238 0.81764 0.91511 0.0
C2533 C 0.21689 0.81269 0.92689 0.0
C2534 C 0.17895 0.79748 0.90211 0.0
C2535 C 0.18976 0.77204 0.90091 0.0
C2536 C 0.21491 0.76761 0.9116 0.0
C2537 C 0.22839 0.78776 0.92431 0.0
C2538 C 0.17317 0.70476 0.87453 0.0
C2539 C 0.14689 0.70216 0.8826 0.0
C2540 C 0.18653 0.72832 0.87849 0.0
C2541 C 0.17405 0.74947 0.89126 0.0
C2542 C 0.14717 0.74736 0.89774 0.0
C2543 C 0.13362 0.72391 0.89319 0.0
H2544 H 0.39836 0.91908 0.19419 0.0
H2545 H 0.42392 -0.00304 0.17178 0.0
H2546 H 0.43506 0.90003 0.17024 0.0
H2547 H 0.46037 0.9778 0.14692 0.0
H2548 H 0.5418 0.9371 0.15808 0.0
H2549 H 0.49968 0.95838 0.1645 0.0
H2550 H 0.46015 0.8908 0.13114 0.0
H2551 H 0.50254 0.86898 0.12534 0.0
C2552 C 0.41138 0.93209 0.18342 0.0
C2553 C 0.40871 0.95951 0.18534 0.0
C2554 C 0.43235 0.92114 0.16948 0.0
C2555 C 0.45094 0.93743 0.15707 0.0
C2556 C 0.44668 0.96478 0.15679 0.0
C2557 C 0.42576 0.97575 0.1709 0.0
C2558 C 0.52421 0.92682 0.15177 0.0
C2559 C 0.52554 0.90108 0.14173 0.0
C2560 C 0.49999 0.93922 0.15515 0.0
C2561 C 0.4765 0.92624 0.14845 0.0
C2562 C 0.4779 0.90115 0.13684 0.0
C2563 C 0.50219 0.88866 0.13354 0.0
H2564 H 0.07389 0.07284 0.71586 0.0
H2565 H 0.06077 -0.00307 0.67978 0.0
H2566 H 0.04001 0.09194 0.68825 0.0
H2567 H 0.02704 0.01629 0.65141 0.0
H2568 H 0.94102 0.04979 0.65471 0.0
H2569 H 0.98343 0.03047 0.66452 0.0
H2570 H 0.02164 0.10415 0.64607 0.0
H2571 H 0.97885 0.1239 0.63684 0.0
C2572 C 0.06422 0.06039 0.70147 0.0
C2573 C 0.06946 0.0333 0.70035 0.0
C2574 C 0.04496 0.07141 0.6854 0.0
C2575 C 0.03058 0.05554 0.66788 0.0
C2576 C 0.03753 0.02889 0.66507 0.0
C2577 C 0.05685 0.01783 0.68122 0.0
C2578 C 0.95843 0.06186 0.65236 0.0
C2579 C 0.95646 0.08861 0.64566 0.0
C2580 C 0.98286 0.05063 0.65765 0.0
C2581 C 0.0059 0.06584 0.65628 0.0
C2582 C 0.00416 0.09205 0.64765 0.0
C2583 C 0.97965 0.10336 0.64239 0.0
loop_
_geom_bond_atom_site_label_1
_geom_bond_atom_site_label_2
_geom_bond_distance
_geom_bond_site_symmetry_2
_ccdc_geom_bond_type
In0 O1 2.306 . S
In0 O2 2.325 1_455 S
In0 O6 2.278 . S
In0 O7 2.324 1_455 S
In0 O8 2.254 1_455 S
In0 O9 2.328 . S
In0 O11 2.282 1_455 S
In0 O12 2.328 . S
O1 In0 2.306 . S
O1 C10 1.240 . S
O2 In0 2.325 1_655 S
O2 C10 1.252 1_655 S
C3 O6 1.252 . S
C3 O7 1.260 1_455 S
C4 O11 1.240 . S
C4 O12 1.252 1_655 S
C5 O8 1.252 . S
C5 O9 1.260 1_655 S
O6 In0 2.278 . S
O6 C3 1.252 . S
O7 In0 2.324 1_655 S
O7 C3 1.260 1_655 S
O8 In0 2.254 1_655 S
O8 C5 1.252 . S
O9 In0 2.328 . S
O9 C5 1.260 1_455 S
C10 O1 1.240 . S
C10 O2 1.252 1_455 S
O11 In0 2.282 1_655 S
O11 C4 1.240 . S
O12 In0 2.328 . S
O12 C4 1.252 1_455 S
In13 O14 2.285 1_455 S
In13 O15 2.311 1_455 S
In13 O19 2.275 . S
In13 O20 2.342 . S
In13 O21 2.258 1_455 S
In13 O22 2.310 1_455 S
In13 O24 2.303 . S
In13 O25 2.342 . S
O14 In13 2.285 1_655 S
O14 C23 1.240 . S
O15 In13 2.311 1_655 S
O15 C23 1.252 . S
C16 O19 1.252 . S
C16 O20 1.260 . S
C17 O24 1.240 . S
C17 O25 1.252 . S
C18 O21 1.252 . S
C18 O22 1.260 . S
O19 In13 2.275 . S
O19 C16 1.252 . S
O20 In13 2.342 . S
O20 C16 1.260 . S
O21 In13 2.258 1_655 S
O21 C18 1.252 . S
O22 In13 2.310 1_655 S
O22 C18 1.260 . S
C23 O14 1.240 . S
C23 O15 1.252 . S
O24 In13 2.303 . S
O24 C17 1.240 . S
O25 In13 2.342 . S
O25 C17 1.252 . S
In26 O27 2.294 . S
In26 O28 2.326 . S
In26 O32 2.266 . S
In26 O33 2.326 . S
In26 O34 2.266 . S
In26 O35 2.326 . S
In26 O37 2.294 . S
In26 O38 2.326 . S
O27 In26 2.294 . S
O27 C36 1.240 . S
O28 In26 2.326 . S
O28 C36 1.252 . S
C29 O32 1.252 . S
C29 O33 1.260 . S
C30 O37 1.240 . S
C30 O38 1.252 . S
C31 O34 1.252 . S
C31 O35 1.260 . S
O32 In26 2.266 . S
O32 C29 1.252 . S
O33 In26 2.326 . S
O33 C29 1.260 . S
O34 In26 2.266 . S
O34 C31 1.252 . S
O35 In26 2.326 . S
O35 C31 1.260 . S
C36 O27 1.240 . S
C36 O28 1.252 . S
O37 In26 2.294 . S
O37 C30 1.240 . S
O38 In26 2.326 . S
O38 C30 1.252 . S
In39 O40 2.294 . S
In39 O41 2.326 . S
In39 O45 2.266 . S
In39 O46 2.326 . S
In39 O47 2.266 . S
In39 O48 2.326 . S
In39 O50 2.294 . S
In39 O51 2.326 . S
O40 In39 2.294 . S
O40 C49 1.240 . S
O41 In39 2.326 . S
O41 C49 1.252 . S
C42 O45 1.252 . S
C42 O46 1.260 . S
C43 O50 1.240 . S
C43 O51 1.252 . S
C44 O47 1.252 . S
C44 O48 1.260 . S
O45 In39 2.266 . S
O45 C42 1.252 . S
O46 In39 2.326 . S
O46 C42 1.260 . S
O47 In39 2.266 . S
O47 C44 1.252 . S
O48 In39 2.326 . S
O48 C44 1.260 . S
C49 O40 1.240 . S
C49 O41 1.252 . S
O50 In39 2.294 . S
O50 C43 1.240 . S
O51 In39 2.326 . S
O51 C43 1.252 . S
In52 O53 2.269 1_455 S
In52 O54 2.330 . S
In52 O58 2.241 1_455 S
In52 O59 2.330 . S
In52 O60 2.291 . S
In52 O61 2.322 1_455 S
In52 O63 2.319 . S
In52 O64 2.323 1_455 S
O53 In52 2.269 1_655 S
O53 C62 1.240 . S
O54 In52 2.330 . S
O54 C62 1.252 1_455 S
C55 O58 1.252 . S
C55 O59 1.260 1_655 S
C56 O63 1.240 . S
C56 O64 1.252 1_455 S
C57 O60 1.252 . S
C57 O61 1.260 1_455 S
O58 In52 2.241 1_655 S
O58 C55 1.252 . S
O59 In52 2.330 . S
O59 C55 1.260 1_455 S
O60 In52 2.291 . S
O60 C57 1.252 . S
O61 In52 2.322 1_655 S
O61 C57 1.260 1_655 S
C62 O53 1.240 . S
C62 O54 1.252 1_655 S
O63 In52 2.319 . S
O63 C56 1.240 . S
O64 In52 2.323 1_655 S
O64 C56 1.252 1_655 S
In65 O66 2.294 . S
In65 O67 2.326 . S
In65 O71 2.266 . S
In65 O72 2.326 . S
In65 O73 2.266 . S
In65 O74 2.326 . S
In65 O76 2.294 . S
In65 O77 2.326 . S
O66 In65 2.294 . S
O66 C75 1.240 . S
O67 In65 2.326 . S
O67 C75 1.252 . S
C68 O71 1.252 . S
C68 O72 1.260 . S
C69 O76 1.240 . S
C69 O77 1.252 . S
C70 O73 1.252 . S
C70 O74 1.260 . S
O71 In65 2.266 . S
O71 C68 1.252 . S
O72 In65 2.326 . S
O72 C68 1.260 . S
O73 In65 2.266 . S
O73 C70 1.252 . S
O74 In65 2.326 . S
O74 C70 1.260 . S
C75 O66 1.240 . S
C75 O67 1.252 . S
O76 In65 2.294 . S
O76 C69 1.240 . S
O77 In65 2.326 . S
O77 C69 1.252 . S
In78 O79 2.294 . S
In78 O80 2.326 . S
In78 O84 2.266 . S
In78 O85 2.326 . S
In78 O86 2.266 . S
In78 O87 2.326 . S
In78 O89 2.294 . S
In78 O90 2.326 . S
O79 In78 2.294 . S
O79 C88 1.240 . S
O80 In78 2.326 . S
O80 C88 1.252 . S
C81 O84 1.252 . S
C81 O85 1.260 . S
C82 O89 1.240 . S
C82 O90 1.252 . S
C83 O86 1.252 . S
C83 O87 1.260 . S
O84 In78 2.266 . S
O84 C81 1.252 . S
O85 In78 2.326 . S
O85 C81 1.260 . S
O86 In78 2.266 . S
O86 C83 1.252 . S
O87 In78 2.326 . S
O87 C83 1.260 . S
C88 O79 1.240 . S
C88 O80 1.252 . S
O89 In78 2.294 . S
O89 C82 1.240 . S
O90 In78 2.326 . S
O90 C82 1.252 . S
In91 O92 2.296 . S
In91 O93 2.330 . S
In91 O97 2.264 1_455 S
In91 O98 2.321 1_455 S
In91 O99 2.269 . S
In91 O100 2.330 . S
In91 O102 2.291 1_455 S
In91 O103 2.322 1_455 S
O92 In91 2.296 . S
O92 C101 1.240 . S
O93 In91 2.330 . S
O93 C101 1.252 . S
C94 O97 1.252 . S
C94 O98 1.260 . S
C95 O102 1.240 . S
C95 O103 1.252 . S
C96 O99 1.252 . S
C96 O100 1.260 . S
O97 In91 2.264 1_655 S
O97 C94 1.252 . S
O98 In91 2.321 1_655 S
O98 C94 1.260 . S
O99 In91 2.269 . S
O99 C96 1.252 . S
O100 In91 2.330 . S
O100 C96 1.260 . S
C101 O92 1.240 . S
C101 O93 1.252 . S
O102 In91 2.291 1_655 S
O102 C95 1.240 . S
O103 In91 2.322 1_655 S
O103 C95 1.252 . S
In104 O105 2.282 1_545 S
In104 O106 2.328 . S
In104 O110 2.254 1_545 S
In104 O111 2.328 . S
In104 O112 2.278 . S
In104 O113 2.324 1_545 S
In104 O115 2.306 . S
In104 O116 2.325 1_545 S
O105 In104 2.282 1_565 S
O105 C114 1.240 . S
O106 In104 2.328 . S
O106 C114 1.252 1_545 S
C107 O110 1.252 . S
C107 O111 1.260 1_565 S
C108 O115 1.240 . S
C108 O116 1.252 1_545 S
C109 O112 1.252 . S
C109 O113 1.260 1_545 S
O110 In104 2.254 1_565 S
O110 C107 1.252 . S
O111 In104 2.328 . S
O111 C107 1.260 1_545 S
O112 In104 2.278 . S
O112 C109 1.252 . S
O113 In104 2.324 1_565 S
O113 C109 1.260 1_565 S
C114 O105 1.240 . S
C114 O106 1.252 1_565 S
O115 In104 2.306 . S
O115 C108 1.240 . S
O116 In104 2.325 1_565 S
O116 C108 1.252 1_565 S
In117 O118 2.294 . S
In117 O119 2.326 . S
In117 O123 2.266 . S
In117 O124 2.326 . S
In117 O125 2.266 . S
In117 O126 2.326 . S
In117 O128 2.294 . S
In117 O129 2.326 . S
O118 In117 2.294 . S
O118 C127 1.240 . S
O119 In117 2.326 . S
O119 C127 1.252 . S
C120 O123 1.252 . S
C120 O124 1.260 . S
C121 O128 1.240 . S
C121 O129 1.252 . S
C122 O125 1.252 . S
C122 O126 1.260 . S
O123 In117 2.266 . S
O123 C120 1.252 . S
O124 In117 2.326 . S
O124 C120 1.260 . S
O125 In117 2.266 . S
O125 C122 1.252 . S
O126 In117 2.326 . S
O126 C122 1.260 . S
C127 O118 1.240 . S
C127 O119 1.252 . S
O128 In117 2.294 . S
O128 C121 1.240 . S
O129 In117 2.326 . S
O129 C121 1.252 . S
In130 O131 2.269 1_545 S
In130 O132 2.330 . S
In130 O136 2.241 1_545 S
In130 O137 2.330 . S
In130 O138 2.291 . S
In130 O139 2.322 1_545 S
In130 O141 2.319 . S
In130 O142 2.323 1_545 S
O131 In130 2.269 1_565 S
O131 C140 1.240 . S
O132 In130 2.330 . S
O132 C140 1.252 1_545 S
C133 O136 1.252 . S
C133 O137 1.260 1_565 S
C134 O141 1.240 . S
C134 O142 1.252 1_545 S
C135 O138 1.252 . S
C135 O139 1.260 1_545 S
O136 In130 2.241 1_565 S
O136 C133 1.252 . S
O137 In130 2.330 . S
O137 C133 1.260 1_545 S
O138 In130 2.291 . S
O138 C135 1.252 . S
O139 In130 2.322 1_565 S
O139 C135 1.260 1_565 S
C140 O131 1.240 . S
C140 O132 1.252 1_565 S
O141 In130 2.319 . S
O141 C134 1.240 . S
O142 In130 2.323 1_565 S
O142 C134 1.252 1_565 S
In143 O144 2.296 . S
In143 O145 2.330 . S
In143 O149 2.264 1_554 S
In143 O150 2.321 1_554 S
In143 O151 2.269 . S
In143 O152 2.330 . S
In143 O154 2.291 1_554 S
In143 O155 2.322 1_554 S
O144 In143 2.296 . S
O144 C153 1.240 . S
O145 In143 2.330 . S
O145 C153 1.252 . S
C146 O149 1.252 . S
C146 O150 1.260 . S
C147 O154 1.240 . S
C147 O155 1.252 . S
C148 O151 1.252 . S
C148 O152 1.260 . S
O149 In143 2.264 1_556 S
O149 C146 1.252 . S
O150 In143 2.321 1_556 S
O150 C146 1.260 . S
O151 In143 2.269 . S
O151 C148 1.252 . S
O152 In143 2.330 . S
O152 C148 1.260 . S
C153 O144 1.240 . S
C153 O145 1.252 . S
O154 In143 2.291 1_556 S
O154 C147 1.240 . S
O155 In143 2.322 1_556 S
O155 C147 1.252 . S
In156 O157 2.282 1_554 S
In156 O158 2.328 . S
In156 O162 2.254 1_554 S
In156 O163 2.328 . S
In156 O164 2.278 . S
In156 O165 2.324 1_554 S
In156 O167 2.306 . S
In156 O168 2.325 1_554 S
O157 In156 2.282 1_556 S
O157 C166 1.240 . S
O158 In156 2.328 . S
O158 C166 1.252 1_554 S
C159 O162 1.252 . S
C159 O163 1.260 1_556 S
C160 O167 1.240 . S
C160 O168 1.252 1_554 S
C161 O164 1.252 . S
C161 O165 1.260 1_554 S
O162 In156 2.254 1_556 S
O162 C159 1.252 . S
O163 In156 2.328 . S
O163 C159 1.260 1_554 S
O164 In156 2.278 . S
O164 C161 1.252 . S
O165 In156 2.324 1_556 S
O165 C161 1.260 1_556 S
C166 O157 1.240 . S
C166 O158 1.252 1_556 S
O167 In156 2.306 . S
O167 C160 1.240 . S
O168 In156 2.325 1_556 S
O168 C160 1.252 1_556 S
In169 O170 2.319 . S
In169 O171 2.323 1_554 S
In169 O175 2.291 . S
In169 O176 2.322 1_554 S
In169 O177 2.241 1_554 S
In169 O178 2.330 . S
In169 O180 2.269 1_554 S
In169 O181 2.330 . S
O170 In169 2.319 . S
O170 C179 1.240 . S
O171 In169 2.323 1_556 S
O171 C179 1.252 1_556 S
C172 O175 1.252 . S
C172 O176 1.260 1_554 S
C173 O180 1.240 . S
C173 O181 1.252 1_556 S
C174 O177 1.252 . S
C174 O178 1.260 1_556 S
O175 In169 2.291 . S
O175 C172 1.252 . S
O176 In169 2.322 1_556 S
O176 C172 1.260 1_556 S
O177 In169 2.241 1_556 S
O177 C174 1.252 . S
O178 In169 2.330 . S
O178 C174 1.260 1_554 S
C179 O170 1.240 . S
C179 O171 1.252 1_554 S
O180 In169 2.269 1_556 S
O180 C173 1.240 . S
O181 In169 2.330 . S
O181 C173 1.252 1_554 S
In182 O183 2.294 . S
In182 O184 2.326 . S
In182 O188 2.266 . S
In182 O189 2.326 . S
In182 O190 2.266 . S
In182 O191 2.326 . S
In182 O193 2.294 . S
In182 O194 2.326 . S
O183 In182 2.294 . S
O183 C192 1.240 . S
O184 In182 2.326 . S
O184 C192 1.252 . S
C185 O188 1.252 . S
C185 O189 1.260 . S
C186 O193 1.240 . S
C186 O194 1.252 . S
C187 O190 1.252 . S
C187 O191 1.260 . S
O188 In182 2.266 . S
O188 C185 1.252 . S
O189 In182 2.326 . S
O189 C185 1.260 . S
O190 In182 2.266 . S
O190 C187 1.252 . S
O191 In182 2.326 . S
O191 C187 1.260 . S
C192 O183 1.240 . S
C192 O184 1.252 . S
O193 In182 2.294 . S
O193 C186 1.240 . S
O194 In182 2.326 . S
O194 C186 1.252 . S
In195 O196 2.294 . S
In195 O197 2.326 . S
In195 O201 2.266 . S
In195 O202 2.326 . S
In195 O203 2.266 . S
In195 O204 2.326 . S
In195 O206 2.294 . S
In195 O207 2.326 . S
O196 In195 2.294 . S
O196 C205 1.240 . S
O197 In195 2.326 . S
O197 C205 1.252 . S
C198 O201 1.252 . S
C198 O202 1.260 . S
C199 O206 1.240 . S
C199 O207 1.252 . S
C200 O203 1.252 . S
C200 O204 1.260 . S
O201 In195 2.266 . S
O201 C198 1.252 . S
O202 In195 2.326 . S
O202 C198 1.260 . S
O203 In195 2.266 . S
O203 C200 1.252 . S
O204 In195 2.326 . S
O204 C200 1.260 . S
C205 O196 1.240 . S
C205 O197 1.252 . S
O206 In195 2.294 . S
O206 C199 1.240 . S
O207 In195 2.326 . S
O207 C199 1.252 . S
In208 O209 2.291 1_545 S
In208 O210 2.322 1_545 S
In208 O214 2.269 . S
In208 O215 2.330 . S
In208 O216 2.264 1_545 S
In208 O217 2.321 1_545 S
In208 O219 2.296 . S
In208 O220 2.330 . S
O209 In208 2.291 1_565 S
O209 C218 1.240 . S
O210 In208 2.322 1_565 S
O210 C218 1.252 . S
C211 O214 1.252 . S
C211 O215 1.260 . S
C212 O219 1.240 . S
C212 O220 1.252 . S
C213 O216 1.252 . S
C213 O217 1.260 . S
O214 In208 2.269 . S
O214 C211 1.252 . S
O215 In208 2.330 . S
O215 C211 1.260 . S
O216 In208 2.264 1_565 S
O216 C213 1.252 . S
O217 In208 2.321 1_565 S
O217 C213 1.260 . S
C218 O209 1.240 . S
C218 O210 1.252 . S
O219 In208 2.296 . S
O219 C212 1.240 . S
O220 In208 2.330 . S
O220 C212 1.252 . S
In221 O222 2.294 . S
In221 O223 2.326 . S
In221 O227 2.266 . S
In221 O228 2.326 . S
In221 O229 2.266 . S
In221 O230 2.326 . S
In221 O232 2.294 . S
In221 O233 2.326 . S
O222 In221 2.294 . S
O222 C231 1.240 . S
O223 In221 2.326 . S
O223 C231 1.252 . S
C224 O227 1.252 . S
C224 O228 1.260 . S
C225 O232 1.240 . S
C225 O233 1.252 . S
C226 O229 1.252 . S
C226 O230 1.260 . S
O227 In221 2.266 . S
O227 C224 1.252 . S
O228 In221 2.326 . S
O228 C224 1.260 . S
O229 In221 2.266 . S
O229 C226 1.252 . S
O230 In221 2.326 . S
O230 C226 1.260 . S
C231 O222 1.240 . S
C231 O223 1.252 . S
O232 In221 2.294 . S
O232 C225 1.240 . S
O233 In221 2.326 . S
O233 C225 1.252 . S
In234 O235 2.294 . S
In234 O236 2.326 . S
In234 O240 2.266 . S
In234 O241 2.326 . S
In234 O242 2.266 . S
In234 O243 2.326 . S
In234 O245 2.294 . S
In234 O246 2.326 . S
O235 In234 2.294 . S
O235 C244 1.240 . S
O236 In234 2.326 . S
O236 C244 1.252 . S
C237 O240 1.252 . S
C237 O241 1.260 . S
C238 O245 1.240 . S
C238 O246 1.252 . S
C239 O242 1.252 . S
C239 O243 1.260 . S
O240 In234 2.266 . S
O240 C237 1.252 . S
O241 In234 2.326 . S
O241 C237 1.260 . S
O242 In234 2.266 . S
O242 C239 1.252 . S
O243 In234 2.326 . S
O243 C239 1.260 . S
C244 O235 1.240 . S
C244 O236 1.252 . S
O245 In234 2.294 . S
O245 C238 1.240 . S
O246 In234 2.326 . S
O246 C238 1.252 . S
In247 O248 2.285 1_545 S
In247 O249 2.311 1_545 S
In247 O253 2.275 . S
In247 O254 2.342 . S
In247 O255 2.258 1_545 S
In247 O256 2.310 1_545 S
In247 O258 2.303 . S
In247 O259 2.342 . S
O248 In247 2.285 1_565 S
O248 C257 1.240 . S
O249 In247 2.311 1_565 S
O249 C257 1.252 . S
C250 O253 1.252 . S
C250 O254 1.260 . S
C251 O258 1.240 . S
C251 O259 1.252 . S
C252 O255 1.252 . S
C252 O256 1.260 . S
O253 In247 2.275 . S
O253 C250 1.252 . S
O254 In247 2.342 . S
O254 C250 1.260 . S
O255 In247 2.258 1_565 S
O255 C252 1.252 . S
O256 In247 2.310 1_565 S
O256 C252 1.260 . S
C257 O248 1.240 . S
C257 O249 1.252 . S
O258 In247 2.303 . S
O258 C251 1.240 . S
O259 In247 2.342 . S
O259 C251 1.252 . S
In260 O261 2.303 . S
In260 O262 2.342 . S
In260 O266 2.258 1_554 S
In260 O267 2.310 1_554 S
In260 O268 2.275 . S
In260 O269 2.342 . S
In260 O271 2.285 1_554 S
In260 O272 2.311 1_554 S
O261 In260 2.303 . S
O261 C270 1.240 . S
O262 In260 2.342 . S
O262 C270 1.252 . S
C263 O266 1.252 . S
C263 O267 1.260 . S
C264 O271 1.240 . S
C264 O272 1.252 . S
C265 O268 1.252 . S
C265 O269 1.260 . S
O266 In260 2.258 1_556 S
O266 C263 1.252 . S
O267 In260 2.310 1_556 S
O267 C263 1.260 . S
O268 In260 2.275 . S
O268 C265 1.252 . S
O269 In260 2.342 . S
O269 C265 1.260 . S
C270 O261 1.240 . S
C270 O262 1.252 . S
O271 In260 2.285 1_556 S
O271 C264 1.240 . S
O272 In260 2.311 1_556 S
O272 C264 1.252 . S
In273 O274 2.294 . S
In273 O275 2.326 . S
In273 O279 2.266 . S
In273 O280 2.326 . S
In273 O281 2.266 . S
In273 O282 2.326 . S
In273 O284 2.294 . S
In273 O285 2.326 . S
O274 In273 2.294 . S
O274 C283 1.240 . S
O275 In273 2.326 . S
O275 C283 1.252 . S
C276 O279 1.252 . S
C276 O280 1.260 . S
C277 O284 1.240 . S
C277 O285 1.252 . S
C278 O281 1.252 . S
C278 O282 1.260 . S
O279 In273 2.266 . S
O279 C276 1.252 . S
O280 In273 2.326 . S
O280 C276 1.260 . S
O281 In273 2.266 . S
O281 C278 1.252 . S
O282 In273 2.326 . S
O282 C278 1.260 . S
C283 O274 1.240 . S
C283 O275 1.252 . S
O284 In273 2.294 . S
O284 C277 1.240 . S
O285 In273 2.326 . S
O285 C277 1.252 . S
In286 O287 2.294 . S
In286 O288 2.326 . S
In286 O292 2.266 . S
In286 O293 2.326 . S
In286 O294 2.266 . S
In286 O295 2.326 . S
In286 O297 2.294 . S
In286 O298 2.326 . S
O287 In286 2.294 . S
O287 C296 1.240 . S
O288 In286 2.326 . S
O288 C296 1.252 . S
C289 O292 1.252 . S
C289 O293 1.260 . S
C290 O297 1.240 . S
C290 O298 1.252 . S
C291 O294 1.252 . S
C291 O295 1.260 . S
O292 In286 2.266 . S
O292 C289 1.252 . S
O293 In286 2.326 . S
O293 C289 1.260 . S
O294 In286 2.266 . S
O294 C291 1.252 . S
O295 In286 2.326 . S
O295 C291 1.260 . S
C296 O287 1.240 . S
C296 O288 1.252 . S
O297 In286 2.294 . S
O297 C290 1.240 . S
O298 In286 2.326 . S
O298 C290 1.252 . S
In299 O300 2.294 . S
In299 O301 2.326 . S
In299 O305 2.266 . S
In299 O306 2.326 . S
In299 O307 2.266 . S
In299 O308 2.326 . S
In299 O310 2.294 . S
In299 O311 2.326 . S
O300 In299 2.294 . S
O300 C309 1.240 . S
O301 In299 2.326 . S
O301 C309 1.252 . S
C302 O305 1.252 . S
C302 O306 1.260 . S
C303 O310 1.240 . S
C303 O311 1.252 . S
C304 O307 1.252 . S
C304 O308 1.260 . S
O305 In299 2.266 . S
O305 C302 1.252 . S
O306 In299 2.326 . S
O306 C302 1.260 . S
O307 In299 2.266 . S
O307 C304 1.252 . S
O308 In299 2.326 . S
O308 C304 1.260 . S
C309 O300 1.240 . S
C309 O301 1.252 . S
O310 In299 2.294 . S
O310 C303 1.240 . S
O311 In299 2.326 . S
O311 C303 1.252 . S
Sc312 O315 2.025 . S
Sc312 O322 2.105 . S
Sc312 O325 2.105 . S
Sc312 O328 2.105 . S
Sc312 O331 2.105 . S
Sc313 O315 2.025 . S
Sc313 O323 2.105 . S
Sc313 O327 2.105 . S
Sc313 O329 2.105 . S
Sc313 O333 2.105 . S
Sc314 O315 2.025 . S
Sc314 O324 2.105 . S
Sc314 O326 2.105 . S
Sc314 O330 2.105 . S
Sc314 O332 2.105 . S
O315 Sc312 2.025 . S
O315 Sc313 2.025 . S
O315 Sc314 2.025 . S
C316 O322 1.268 . S
C316 O332 1.268 . S
C317 O323 1.268 . S
C317 O331 1.268 . S
C318 O324 1.268 . S
C318 O333 1.268 . S
C319 O325 1.268 . S
C319 O329 1.268 . S
C320 O326 1.268 . S
C320 O328 1.268 . S
C321 O327 1.268 . S
C321 O330 1.268 . S
O322 Sc312 2.105 . S
O322 C316 1.268 . S
O323 Sc313 2.105 . S
O323 C317 1.268 . S
O324 Sc314 2.105 . S
O324 C318 1.268 . S
O325 Sc312 2.105 . S
O325 C319 1.268 . S
O326 Sc314 2.105 . S
O326 C320 1.268 . S
O327 Sc313 2.105 . S
O327 C321 1.268 . S
O328 Sc312 2.105 . S
O328 C320 1.268 . S
O329 Sc313 2.105 . S
O329 C319 1.268 . S
O330 Sc314 2.105 . S
O330 C321 1.268 . S
O331 Sc312 2.105 . S
O331 C317 1.268 . S
O332 Sc314 2.105 . S
O332 C316 1.268 . S
O333 Sc313 2.105 . S
O333 C318 1.268 . S
Sc334 O337 2.025 . S
Sc334 O344 2.105 . S
Sc334 O347 2.105 . S
Sc334 O350 2.105 . S
Sc334 O353 2.105 . S
Sc335 O337 2.025 . S
Sc335 O345 2.105 . S
Sc335 O349 2.105 . S
Sc335 O351 2.105 . S
Sc335 O355 2.105 . S
Sc336 O337 2.025 . S
Sc336 O346 2.105 . S
Sc336 O348 2.105 . S
Sc336 O352 2.105 . S
Sc336 O354 2.105 . S
O337 Sc334 2.025 . S
O337 Sc335 2.025 . S
O337 Sc336 2.025 . S
C338 O344 1.268 . S
C338 O354 1.268 . S
C339 O345 1.268 . S
C339 O353 1.268 . S
C340 O346 1.268 . S
C340 O355 1.268 . S
C341 O347 1.268 . S
C341 O351 1.268 . S
C342 O348 1.268 . S
C342 O350 1.268 . S
C343 O349 1.268 . S
C343 O352 1.268 . S
O344 Sc334 2.105 . S
O344 C338 1.268 . S
O345 Sc335 2.105 . S
O345 C339 1.268 . S
O346 Sc336 2.105 . S
O346 C340 1.268 . S
O347 Sc334 2.105 . S
O347 C341 1.268 . S
O348 Sc336 2.105 . S
O348 C342 1.268 . S
O349 Sc335 2.105 . S
O349 C343 1.268 . S
O350 Sc334 2.105 . S
O350 C342 1.268 . S
O351 Sc335 2.105 . S
O351 C341 1.268 . S
O352 Sc336 2.105 . S
O352 C343 1.268 . S
O353 Sc334 2.105 . S
O353 C339 1.268 . S
O354 Sc336 2.105 . S
O354 C338 1.268 . S
O355 Sc335 2.105 . S
O355 C340 1.268 . S
Sc356 O359 2.025 . S
Sc356 O366 2.105 . S
Sc356 O369 2.105 . S
Sc356 O372 2.105 . S
Sc356 O375 2.105 . S
Sc357 O359 2.025 . S
Sc357 O367 2.105 . S
Sc357 O371 2.105 . S
Sc357 O373 2.105 . S
Sc357 O377 2.105 . S
Sc358 O359 2.025 . S
Sc358 O368 2.105 . S
Sc358 O370 2.105 . S
Sc358 O374 2.105 . S
Sc358 O376 2.105 . S
O359 Sc356 2.025 . S
O359 Sc357 2.025 . S
O359 Sc358 2.025 . S
C360 O366 1.268 . S
C360 O376 1.268 . S
C361 O367 1.268 . S
C361 O375 1.268 . S
C362 O368 1.268 . S
C362 O377 1.268 . S
C363 O369 1.268 . S
C363 O373 1.268 . S
C364 O370 1.268 . S
C364 O372 1.268 . S
C365 O371 1.268 . S
C365 O374 1.268 . S
O366 Sc356 2.105 . S
O366 C360 1.268 . S
O367 Sc357 2.105 . S
O367 C361 1.268 . S
O368 Sc358 2.105 . S
O368 C362 1.268 . S
O369 Sc356 2.105 . S
O369 C363 1.268 . S
O370 Sc358 2.105 . S
O370 C364 1.268 . S
O371 Sc357 2.105 . S
O371 C365 1.268 . S
O372 Sc356 2.105 . S
O372 C364 1.268 . S
O373 Sc357 2.105 . S
O373 C363 1.268 . S
O374 Sc358 2.105 . S
O374 C365 1.268 . S
O375 Sc356 2.105 . S
O375 C361 1.268 . S
O376 Sc358 2.105 . S
O376 C360 1.268 . S
O377 Sc357 2.105 . S
O377 C362 1.268 . S
Sc378 O381 2.025 . S
Sc378 O388 2.105 . S
Sc378 O391 2.105 . S
Sc378 O394 2.105 . S
Sc378 O397 2.105 . S
Sc379 O381 2.025 . S
Sc379 O389 2.105 . S
Sc379 O393 2.105 . S
Sc379 O395 2.105 . S
Sc379 O399 2.105 . S
Sc380 O381 2.025 . S
Sc380 O390 2.105 . S
Sc380 O392 2.105 . S
Sc380 O396 2.105 . S
Sc380 O398 2.105 . S
O381 Sc378 2.025 . S
O381 Sc379 2.025 . S
O381 Sc380 2.025 . S
C382 O388 1.268 . S
C382 O398 1.268 . S
C383 O389 1.268 . S
C383 O397 1.268 . S
C384 O390 1.268 . S
C384 O399 1.268 . S
C385 O391 1.268 . S
C385 O395 1.268 . S
C386 O392 1.268 . S
C386 O394 1.268 . S
C387 O393 1.268 . S
C387 O396 1.268 . S
O388 Sc378 2.105 . S
O388 C382 1.268 . S
O389 Sc379 2.105 . S
O389 C383 1.268 . S
O390 Sc380 2.105 . S
O390 C384 1.268 . S
O391 Sc378 2.105 . S
O391 C385 1.268 . S
O392 Sc380 2.105 . S
O392 C386 1.268 . S
O393 Sc379 2.105 . S
O393 C387 1.268 . S
O394 Sc378 2.105 . S
O394 C386 1.268 . S
O395 Sc379 2.105 . S
O395 C385 1.268 . S
O396 Sc380 2.105 . S
O396 C387 1.268 . S
O397 Sc378 2.105 . S
O397 C383 1.268 . S
O398 Sc380 2.105 . S
O398 C382 1.268 . S
O399 Sc379 2.105 . S
O399 C384 1.268 . S
Sc400 O403 2.025 . S
Sc400 O410 2.105 . S
Sc400 O413 2.105 . S
Sc400 O416 2.105 . S
Sc400 O419 2.105 . S
Sc401 O403 2.025 . S
Sc401 O411 2.105 . S
Sc401 O415 2.105 . S
Sc401 O417 2.105 . S
Sc401 O421 2.105 . S
Sc402 O403 2.025 . S
Sc402 O412 2.105 . S
Sc402 O414 2.105 . S
Sc402 O418 2.105 . S
Sc402 O420 2.105 . S
O403 Sc400 2.025 . S
O403 Sc401 2.025 . S
O403 Sc402 2.025 . S
C404 O410 1.268 . S
C404 O420 1.268 . S
C405 O411 1.268 . S
C405 O419 1.268 . S
C406 O412 1.268 . S
C406 O421 1.268 . S
C407 O413 1.268 . S
C407 O417 1.268 . S
C408 O414 1.268 . S
C408 O416 1.268 . S
C409 O415 1.268 . S
C409 O418 1.268 . S
O410 Sc400 2.105 . S
O410 C404 1.268 . S
O411 Sc401 2.105 . S
O411 C405 1.268 . S
O412 Sc402 2.105 . S
O412 C406 1.268 . S
O413 Sc400 2.105 . S
O413 C407 1.268 . S
O414 Sc402 2.105 . S
O414 C408 1.268 . S
O415 Sc401 2.105 . S
O415 C409 1.268 . S
O416 Sc400 2.105 . S
O416 C408 1.268 . S
O417 Sc401 2.105 . S
O417 C407 1.268 . S
O418 Sc402 2.105 . S
O418 C409 1.268 . S
O419 Sc400 2.105 . S
O419 C405 1.268 . S
O420 Sc402 2.105 . S
O420 C404 1.268 . S
O421 Sc401 2.105 . S
O421 C406 1.268 . S
Sc422 O425 2.025 . S
Sc422 O432 2.105 . S
Sc422 O435 2.105 . S
Sc422 O438 2.105 . S
Sc422 O441 2.105 . S
Sc423 O425 2.025 . S
Sc423 O433 2.105 . S
Sc423 O437 2.105 . S
Sc423 O439 2.105 . S
Sc423 O443 2.105 . S
Sc424 O425 2.025 . S
Sc424 O434 2.105 . S
Sc424 O436 2.105 . S
Sc424 O440 2.105 . S
Sc424 O442 2.105 . S
O425 Sc422 2.025 . S
O425 Sc423 2.025 . S
O425 Sc424 2.025 . S
C426 O432 1.268 . S
C426 O442 1.268 . S
C427 O433 1.268 . S
C427 O441 1.268 . S
C428 O434 1.268 . S
C428 O443 1.268 . S
C429 O435 1.268 . S
C429 O439 1.268 . S
C430 O436 1.268 . S
C430 O438 1.268 . S
C431 O437 1.268 . S
C431 O440 1.268 . S
O432 Sc422 2.105 . S
O432 C426 1.268 . S
O433 Sc423 2.105 . S
O433 C427 1.268 . S
O434 Sc424 2.105 . S
O434 C428 1.268 . S
O435 Sc422 2.105 . S
O435 C429 1.268 . S
O436 Sc424 2.105 . S
O436 C430 1.268 . S
O437 Sc423 2.105 . S
O437 C431 1.268 . S
O438 Sc422 2.105 . S
O438 C430 1.268 . S
O439 Sc423 2.105 . S
O439 C429 1.268 . S
O440 Sc424 2.105 . S
O440 C431 1.268 . S
O441 Sc422 2.105 . S
O441 C427 1.268 . S
O442 Sc424 2.105 . S
O442 C426 1.268 . S
O443 Sc423 2.105 . S
O443 C428 1.268 . S
Sc444 O447 2.025 . S
Sc444 O454 2.105 . S
Sc444 O457 2.105 . S
Sc444 O460 2.105 . S
Sc444 O463 2.105 . S
Sc445 O447 2.025 . S
Sc445 O455 2.105 . S
Sc445 O459 2.105 . S
Sc445 O461 2.105 . S
Sc445 O465 2.105 . S
Sc446 O447 2.025 . S
Sc446 O456 2.105 . S
Sc446 O458 2.105 . S
Sc446 O462 2.105 . S
Sc446 O464 2.105 . S
O447 Sc444 2.025 . S
O447 Sc445 2.025 . S
O447 Sc446 2.025 . S
C448 O454 1.268 . S
C448 O464 1.268 . S
C449 O455 1.268 . S
C449 O463 1.268 . S
C450 O456 1.268 . S
C450 O465 1.268 . S
C451 O457 1.268 . S
C451 O461 1.268 . S
C452 O458 1.268 . S
C452 O460 1.268 . S
C453 O459 1.268 . S
C453 O462 1.268 . S
O454 Sc444 2.105 . S
O454 C448 1.268 . S
O455 Sc445 2.105 . S
O455 C449 1.268 . S
O456 Sc446 2.105 . S
O456 C450 1.268 . S
O457 Sc444 2.105 . S
O457 C451 1.268 . S
O458 Sc446 2.105 . S
O458 C452 1.268 . S
O459 Sc445 2.105 . S
O459 C453 1.268 . S
O460 Sc444 2.105 . S
O460 C452 1.268 . S
O461 Sc445 2.105 . S
O461 C451 1.268 . S
O462 Sc446 2.105 . S
O462 C453 1.268 . S
O463 Sc444 2.105 . S
O463 C449 1.268 . S
O464 Sc446 2.105 . S
O464 C448 1.268 . S
O465 Sc445 2.105 . S
O465 C450 1.268 . S
Sc466 O469 2.025 . S
Sc466 O476 2.105 . S
Sc466 O479 2.105 . S
Sc466 O482 2.105 . S
Sc466 O485 2.105 . S
Sc467 O469 2.025 . S
Sc467 O477 2.105 . S
Sc467 O481 2.105 . S
Sc467 O483 2.105 . S
Sc467 O487 2.105 . S
Sc468 O469 2.025 . S
Sc468 O478 2.105 . S
Sc468 O480 2.105 . S
Sc468 O484 2.105 . S
Sc468 O486 2.105 . S
O469 Sc466 2.025 . S
O469 Sc467 2.025 . S
O469 Sc468 2.025 . S
C470 O476 1.268 . S
C470 O486 1.268 . S
C471 O477 1.268 . S
C471 O485 1.268 . S
C472 O478 1.268 . S
C472 O487 1.268 . S
C473 O479 1.268 . S
C473 O483 1.268 . S
C474 O480 1.268 . S
C474 O482 1.268 . S
C475 O481 1.268 . S
C475 O484 1.268 . S
O476 Sc466 2.105 . S
O476 C470 1.268 . S
O477 Sc467 2.105 . S
O477 C471 1.268 . S
O478 Sc468 2.105 . S
O478 C472 1.268 . S
O479 Sc466 2.105 . S
O479 C473 1.268 . S
O480 Sc468 2.105 . S
O480 C474 1.268 . S
O481 Sc467 2.105 . S
O481 C475 1.268 . S
O482 Sc466 2.105 . S
O482 C474 1.268 . S
O483 Sc467 2.105 . S
O483 C473 1.268 . S
O484 Sc468 2.105 . S
O484 C475 1.268 . S
O485 Sc466 2.105 . S
O485 C471 1.268 . S
O486 Sc468 2.105 . S
O486 C470 1.268 . S
O487 Sc467 2.105 . S
O487 C472 1.268 . S
Sc488 O491 2.025 . S
Sc488 O498 2.105 . S
Sc488 O501 2.105 . S
Sc488 O504 2.105 . S
Sc488 O507 2.105 . S
Sc489 O491 2.025 . S
Sc489 O499 2.105 . S
Sc489 O503 2.105 . S
Sc489 O505 2.105 . S
Sc489 O509 2.105 . S
Sc490 O491 2.025 . S
Sc490 O500 2.105 . S
Sc490 O502 2.105 . S
Sc490 O506 2.105 . S
Sc490 O508 2.105 . S
O491 Sc488 2.025 . S
O491 Sc489 2.025 . S
O491 Sc490 2.025 . S
C492 O498 1.268 . S
C492 O508 1.268 . S
C493 O499 1.268 . S
C493 O507 1.268 . S
C494 O500 1.268 . S
C494 O509 1.268 . S
C495 O501 1.268 . S
C495 O505 1.268 . S
C496 O502 1.268 . S
C496 O504 1.268 . S
C497 O503 1.268 . S
C497 O506 1.268 . S
O498 Sc488 2.105 . S
O498 C492 1.268 . S
O499 Sc489 2.105 . S
O499 C493 1.268 . S
O500 Sc490 2.105 . S
O500 C494 1.268 . S
O501 Sc488 2.105 . S
O501 C495 1.268 . S
O502 Sc490 2.105 . S
O502 C496 1.268 . S
O503 Sc489 2.105 . S
O503 C497 1.268 . S
O504 Sc488 2.105 . S
O504 C496 1.268 . S
O505 Sc489 2.105 . S
O505 C495 1.268 . S
O506 Sc490 2.105 . S
O506 C497 1.268 . S
O507 Sc488 2.105 . S
O507 C493 1.268 . S
O508 Sc490 2.105 . S
O508 C492 1.268 . S
O509 Sc489 2.105 . S
O509 C494 1.268 . S
Sc510 O513 2.025 . S
Sc510 O520 2.105 . S
Sc510 O523 2.105 . S
Sc510 O526 2.105 . S
Sc510 O529 2.105 . S
Sc511 O513 2.025 . S
Sc511 O521 2.105 . S
Sc511 O525 2.105 . S
Sc511 O527 2.105 . S
Sc511 O531 2.105 . S
Sc512 O513 2.025 . S
Sc512 O522 2.105 . S
Sc512 O524 2.105 . S
Sc512 O528 2.105 . S
Sc512 O530 2.105 . S
O513 Sc510 2.025 . S
O513 Sc511 2.025 . S
O513 Sc512 2.025 . S
C514 O520 1.268 . S
C514 O530 1.268 . S
C515 O521 1.268 . S
C515 O529 1.268 . S
C516 O522 1.268 . S
C516 O531 1.268 . S
C517 O523 1.268 . S
C517 O527 1.268 . S
C518 O524 1.268 . S
C518 O526 1.268 . S
C519 O525 1.268 . S
C519 O528 1.268 . S
O520 Sc510 2.105 . S
O520 C514 1.268 . S
O521 Sc511 2.105 . S
O521 C515 1.268 . S
O522 Sc512 2.105 . S
O522 C516 1.268 . S
O523 Sc510 2.105 . S
O523 C517 1.268 . S
O524 Sc512 2.105 . S
O524 C518 1.268 . S
O525 Sc511 2.105 . S
O525 C519 1.268 . S
O526 Sc510 2.105 . S
O526 C518 1.268 . S
O527 Sc511 2.105 . S
O527 C517 1.268 . S
O528 Sc512 2.105 . S
O528 C519 1.268 . S
O529 Sc510 2.105 . S
O529 C515 1.268 . S
O530 Sc512 2.105 . S
O530 C514 1.268 . S
O531 Sc511 2.105 . S
O531 C516 1.268 . S
Sc532 O535 2.025 . S
Sc532 O542 2.105 . S
Sc532 O545 2.105 . S
Sc532 O548 2.105 . S
Sc532 O551 2.105 . S
Sc533 O535 2.025 . S
Sc533 O543 2.105 . S
Sc533 O547 2.105 . S
Sc533 O549 2.105 . S
Sc533 O553 2.105 . S
Sc534 O535 2.025 . S
Sc534 O544 2.105 . S
Sc534 O546 2.105 . S
Sc534 O550 2.105 . S
Sc534 O552 2.105 . S
O535 Sc532 2.025 . S
O535 Sc533 2.025 . S
O535 Sc534 2.025 . S
C536 O542 1.268 . S
C536 O552 1.268 . S
C537 O543 1.268 . S
C537 O551 1.268 . S
C538 O544 1.268 . S
C538 O553 1.268 . S
C539 O545 1.268 . S
C539 O549 1.268 . S
C540 O546 1.268 . S
C540 O548 1.268 . S
C541 O547 1.268 . S
C541 O550 1.268 . S
O542 Sc532 2.105 . S
O542 C536 1.268 . S
O543 Sc533 2.105 . S
O543 C537 1.268 . S
O544 Sc534 2.105 . S
O544 C538 1.268 . S
O545 Sc532 2.105 . S
O545 C539 1.268 . S
O546 Sc534 2.105 . S
O546 C540 1.268 . S
O547 Sc533 2.105 . S
O547 C541 1.268 . S
O548 Sc532 2.105 . S
O548 C540 1.268 . S
O549 Sc533 2.105 . S
O549 C539 1.268 . S
O550 Sc534 2.105 . S
O550 C541 1.268 . S
O551 Sc532 2.105 . S
O551 C537 1.268 . S
O552 Sc534 2.105 . S
O552 C536 1.268 . S
O553 Sc533 2.105 . S
O553 C538 1.268 . S
Sc554 O557 2.025 . S
Sc554 O564 2.105 . S
Sc554 O567 2.105 . S
Sc554 O570 2.105 . S
Sc554 O573 2.105 . S
Sc555 O557 2.025 . S
Sc555 O565 2.105 . S
Sc555 O569 2.105 . S
Sc555 O571 2.105 . S
Sc555 O575 2.105 . S
Sc556 O557 2.025 . S
Sc556 O566 2.105 . S
Sc556 O568 2.105 . S
Sc556 O572 2.105 . S
Sc556 O574 2.105 . S
O557 Sc554 2.025 . S
O557 Sc555 2.025 . S
O557 Sc556 2.025 . S
C558 O564 1.268 . S
C558 O574 1.268 . S
C559 O565 1.268 . S
C559 O573 1.268 . S
C560 O566 1.268 . S
C560 O575 1.268 . S
C561 O567 1.268 . S
C561 O571 1.268 . S
C562 O568 1.268 . S
C562 O570 1.268 . S
C563 O569 1.268 . S
C563 O572 1.268 . S
O564 Sc554 2.105 . S
O564 C558 1.268 . S
O565 Sc555 2.105 . S
O565 C559 1.268 . S
O566 Sc556 2.105 . S
O566 C560 1.268 . S
O567 Sc554 2.105 . S
O567 C561 1.268 . S
O568 Sc556 2.105 . S
O568 C562 1.268 . S
O569 Sc555 2.105 . S
O569 C563 1.268 . S
O570 Sc554 2.105 . S
O570 C562 1.268 . S
O571 Sc555 2.105 . S
O571 C561 1.268 . S
O572 Sc556 2.105 . S
O572 C563 1.268 . S
O573 Sc554 2.105 . S
O573 C559 1.268 . S
O574 Sc556 2.105 . S
O574 C558 1.268 . S
O575 Sc555 2.105 . S
O575 C560 1.268 . S
Sc576 O579 2.025 . S
Sc576 O586 2.105 . S
Sc576 O589 2.105 . S
Sc576 O592 2.105 . S
Sc576 O595 2.105 . S
Sc577 O579 2.025 . S
Sc577 O587 2.105 . S
Sc577 O591 2.105 . S
Sc577 O593 2.105 . S
Sc577 O597 2.105 . S
Sc578 O579 2.025 . S
Sc578 O588 2.105 . S
Sc578 O590 2.105 . S
Sc578 O594 2.105 . S
Sc578 O596 2.105 . S
O579 Sc576 2.025 . S
O579 Sc577 2.025 . S
O579 Sc578 2.025 . S
C580 O586 1.268 . S
C580 O596 1.268 . S
C581 O587 1.268 . S
C581 O595 1.268 . S
C582 O588 1.268 . S
C582 O597 1.268 . S
C583 O589 1.268 . S
C583 O593 1.268 . S
C584 O590 1.268 . S
C584 O592 1.268 . S
C585 O591 1.268 . S
C585 O594 1.268 . S
O586 Sc576 2.105 . S
O586 C580 1.268 . S
O587 Sc577 2.105 . S
O587 C581 1.268 . S
O588 Sc578 2.105 . S
O588 C582 1.268 . S
O589 Sc576 2.105 . S
O589 C583 1.268 . S
O590 Sc578 2.105 . S
O590 C584 1.268 . S
O591 Sc577 2.105 . S
O591 C585 1.268 . S
O592 Sc576 2.105 . S
O592 C584 1.268 . S
O593 Sc577 2.105 . S
O593 C583 1.268 . S
O594 Sc578 2.105 . S
O594 C585 1.268 . S
O595 Sc576 2.105 . S
O595 C581 1.268 . S
O596 Sc578 2.105 . S
O596 C580 1.268 . S
O597 Sc577 2.105 . S
O597 C582 1.268 . S
Sc598 O601 2.025 . S
Sc598 O608 2.105 . S
Sc598 O611 2.105 . S
Sc598 O614 2.105 . S
Sc598 O617 2.105 . S
Sc599 O601 2.025 . S
Sc599 O609 2.105 . S
Sc599 O613 2.105 . S
Sc599 O615 2.105 . S
Sc599 O619 2.105 . S
Sc600 O601 2.025 . S
Sc600 O610 2.105 . S
Sc600 O612 2.105 . S
Sc600 O616 2.105 . S
Sc600 O618 2.105 . S
O601 Sc598 2.025 . S
O601 Sc599 2.025 . S
O601 Sc600 2.025 . S
C602 O608 1.268 . S
C602 O618 1.268 . S
C603 O609 1.268 . S
C603 O617 1.268 . S
C604 O610 1.268 . S
C604 O619 1.268 . S
C605 O611 1.268 . S
C605 O615 1.268 . S
C606 O612 1.268 . S
C606 O614 1.268 . S
C607 O613 1.268 . S
C607 O616 1.268 . S
O608 Sc598 2.105 . S
O608 C602 1.268 . S
O609 Sc599 2.105 . S
O609 C603 1.268 . S
O610 Sc600 2.105 . S
O610 C604 1.268 . S
O611 Sc598 2.105 . S
O611 C605 1.268 . S
O612 Sc600 2.105 . S
O612 C606 1.268 . S
O613 Sc599 2.105 . S
O613 C607 1.268 . S
O614 Sc598 2.105 . S
O614 C606 1.268 . S
O615 Sc599 2.105 . S
O615 C605 1.268 . S
O616 Sc600 2.105 . S
O616 C607 1.268 . S
O617 Sc598 2.105 . S
O617 C603 1.268 . S
O618 Sc600 2.105 . S
O618 C602 1.268 . S
O619 Sc599 2.105 . S
O619 C604 1.268 . S
Sc620 O623 2.025 . S
Sc620 O630 2.105 . S
Sc620 O633 2.105 . S
Sc620 O636 2.105 . S
Sc620 O639 2.105 . S
Sc621 O623 2.025 . S
Sc621 O631 2.105 . S
Sc621 O635 2.105 . S
Sc621 O637 2.105 . S
Sc621 O641 2.105 . S
Sc622 O623 2.025 . S
Sc622 O632 2.105 . S
Sc622 O634 2.105 . S
Sc622 O638 2.105 . S
Sc622 O640 2.105 . S
O623 Sc620 2.025 . S
O623 Sc621 2.025 . S
O623 Sc622 2.025 . S
C624 O630 1.268 . S
C624 O640 1.268 . S
C625 O631 1.268 . S
C625 O639 1.268 . S
C626 O632 1.268 . S
C626 O641 1.268 . S
C627 O633 1.268 . S
C627 O637 1.268 . S
C628 O634 1.268 . S
C628 O636 1.268 . S
C629 O635 1.268 . S
C629 O638 1.268 . S
O630 Sc620 2.105 . S
O630 C624 1.268 . S
O631 Sc621 2.105 . S
O631 C625 1.268 . S
O632 Sc622 2.105 . S
O632 C626 1.268 . S
O633 Sc620 2.105 . S
O633 C627 1.268 . S
O634 Sc622 2.105 . S
O634 C628 1.268 . S
O635 Sc621 2.105 . S
O635 C629 1.268 . S
O636 Sc620 2.105 . S
O636 C628 1.268 . S
O637 Sc621 2.105 . S
O637 C627 1.268 . S
O638 Sc622 2.105 . S
O638 C629 1.268 . S
O639 Sc620 2.105 . S
O639 C625 1.268 . S
O640 Sc622 2.105 . S
O640 C624 1.268 . S
O641 Sc621 2.105 . S
O641 C626 1.268 . S
Sc642 O645 2.025 . S
Sc642 O652 2.105 . S
Sc642 O655 2.105 . S
Sc642 O658 2.105 . S
Sc642 O661 2.105 . S
Sc643 O645 2.025 . S
Sc643 O653 2.105 . S
Sc643 O657 2.105 . S
Sc643 O659 2.105 . S
Sc643 O663 2.105 . S
Sc644 O645 2.025 . S
Sc644 O654 2.105 . S
Sc644 O656 2.105 . S
Sc644 O660 2.105 . S
Sc644 O662 2.105 . S
O645 Sc642 2.025 . S
O645 Sc643 2.025 . S
O645 Sc644 2.025 . S
C646 O652 1.268 . S
C646 O662 1.268 . S
C647 O653 1.268 . S
C647 O661 1.268 . S
C648 O654 1.268 . S
C648 O663 1.268 . S
C649 O655 1.268 . S
C649 O659 1.268 . S
C650 O656 1.268 . S
C650 O658 1.268 . S
C651 O657 1.268 . S
C651 O660 1.268 . S
O652 Sc642 2.105 . S
O652 C646 1.268 . S
O653 Sc643 2.105 . S
O653 C647 1.268 . S
O654 Sc644 2.105 . S
O654 C648 1.268 . S
O655 Sc642 2.105 . S
O655 C649 1.268 . S
O656 Sc644 2.105 . S
O656 C650 1.268 . S
O657 Sc643 2.105 . S
O657 C651 1.268 . S
O658 Sc642 2.105 . S
O658 C650 1.268 . S
O659 Sc643 2.105 . S
O659 C649 1.268 . S
O660 Sc644 2.105 . S
O660 C651 1.268 . S
O661 Sc642 2.105 . S
O661 C647 1.268 . S
O662 Sc644 2.105 . S
O662 C646 1.268 . S
O663 Sc643 2.105 . S
O663 C648 1.268 . S
H664 C672 0.950 . S
H665 C677 0.950 . S
H666 C674 0.950 . S
H667 C676 0.950 . S
H668 C678 0.950 . S
H669 C680 0.950 . S
H670 C682 0.950 . S
H671 C683 0.950 . S
C672 H664 0.950 . S
C672 C673 1.386 . S
C672 C674 1.391 . S
C673 C672 1.386 . S
C673 C677 1.393 . S
C674 H666 0.950 . S
C674 C672 1.391 . S
C674 C675 1.400 . S
C675 C674 1.400 . S
C675 C676 1.398 . S
C675 C681 1.491 . S
C676 H667 0.950 . S
C676 C675 1.398 . S
C676 C677 1.391 . S
C677 H665 0.950 . S
C677 C673 1.393 . S
C677 C676 1.391 . S
C678 H668 0.950 . S
C678 C679 1.386 . S
C678 C680 1.391 . S
C679 C678 1.386 . S
C679 C683 1.393 . S
C680 H669 0.950 . S
C680 C678 1.391 . S
C680 C681 1.400 . S
C681 C675 1.491 . S
C681 C680 1.400 . S
C681 C682 1.398 . S
C682 H670 0.950 . S
C682 C681 1.398 . S
C682 C683 1.391 . S
C683 H671 0.950 . S
C683 C679 1.393 . S
C683 C682 1.391 . S
H684 C692 0.950 . S
H685 C697 0.950 . S
H686 C694 0.950 . S
H687 C696 0.950 . S
H688 C698 0.950 . S
H689 C700 0.950 . S
H690 C702 0.950 . S
H691 C703 0.950 . S
C692 H684 0.950 . S
C692 C693 1.386 . S
C692 C694 1.391 . S
C693 C692 1.386 . S
C693 C697 1.393 . S
C694 H686 0.950 . S
C694 C692 1.391 . S
C694 C695 1.400 . S
C695 C694 1.400 . S
C695 C696 1.398 . S
C695 C701 1.491 . S
C696 H687 0.950 . S
C696 C695 1.398 . S
C696 C697 1.391 . S
C697 H685 0.950 . S
C697 C693 1.393 . S
C697 C696 1.391 . S
C698 H688 0.950 . S
C698 C699 1.386 . S
C698 C700 1.391 . S
C699 C698 1.386 . S
C699 C703 1.393 . S
C700 H689 0.950 . S
C700 C698 1.391 . S
C700 C701 1.400 . S
C701 C695 1.491 . S
C701 C700 1.400 . S
C701 C702 1.398 . S
C702 H690 0.950 . S
C702 C701 1.398 . S
C702 C703 1.391 . S
C703 H691 0.950 . S
C703 C699 1.393 . S
C703 C702 1.391 . S
H704 C712 0.950 . S
H705 C717 0.950 . S
H706 C714 0.950 . S
H707 C716 0.950 . S
H708 C718 0.950 . S
H709 C720 0.950 . S
H710 C722 0.950 . S
H711 C723 0.950 . S
C712 H704 0.950 . S
C712 C713 1.386 . S
C712 C714 1.391 . S
C713 C712 1.386 . S
C713 C717 1.393 . S
C714 H706 0.950 . S
C714 C712 1.391 . S
C714 C715 1.400 . S
C715 C714 1.400 . S
C715 C716 1.398 . S
C715 C721 1.491 . S
C716 H707 0.950 . S
C716 C715 1.398 . S
C716 C717 1.391 . S
C717 H705 0.950 . S
C717 C713 1.393 . S
C717 C716 1.391 . S
C718 H708 0.950 . S
C718 C719 1.386 . S
C718 C720 1.391 . S
C719 C718 1.386 . S
C719 C723 1.393 . S
C720 H709 0.950 . S
C720 C718 1.391 . S
C720 C721 1.400 . S
C721 C715 1.491 . S
C721 C720 1.400 . S
C721 C722 1.398 . S
C722 H710 0.950 . S
C722 C721 1.398 . S
C722 C723 1.391 . S
C723 H711 0.950 . S
C723 C719 1.393 . S
C723 C722 1.391 . S
H724 C732 0.950 . S
H725 C737 0.950 . S
H726 C734 0.950 . S
H727 C736 0.950 . S
H728 C738 0.950 . S
H729 C740 0.950 . S
H730 C742 0.950 . S
H731 C743 0.950 . S
C732 H724 0.950 . S
C732 C733 1.386 . S
C732 C734 1.391 . S
C733 C732 1.386 . S
C733 C737 1.393 . S
C734 H726 0.950 . S
C734 C732 1.391 . S
C734 C735 1.400 . S
C735 C734 1.400 . S
C735 C736 1.398 . S
C735 C741 1.516 . S
C736 H727 0.950 . S
C736 C735 1.398 . S
C736 C737 1.391 . S
C737 H725 0.950 . S
C737 C733 1.393 . S
C737 C736 1.391 . S
C738 H728 0.950 . S
C738 C739 1.386 . S
C738 C740 1.391 1_556 S
C739 C738 1.386 . S
C739 C743 1.393 . S
C740 H729 0.950 . S
C740 C738 1.391 1_554 S
C740 C741 1.404 . S
C741 C735 1.516 . S
C741 C740 1.404 . S
C741 C742 1.368 1_554 S
C742 H730 0.950 . S
C742 C741 1.368 1_556 S
C742 C743 1.391 . S
C743 H731 0.950 . S
C743 C739 1.393 . S
C743 C742 1.391 . S
H744 C752 0.950 . S
H745 C757 0.950 . S
H746 C754 0.950 . S
H747 C756 0.950 . S
H748 C758 0.950 . S
H749 C760 0.950 . S
H750 C762 0.950 . S
H751 C763 0.950 . S
C752 H744 0.950 . S
C752 C753 1.386 . S
C752 C754 1.391 . S
C753 C752 1.386 . S
C753 C757 1.393 . S
C754 H746 0.950 . S
C754 C752 1.391 . S
C754 C755 1.400 . S
C755 C754 1.400 . S
C755 C756 1.398 . S
C755 C761 1.491 . S
C756 H747 0.950 . S
C756 C755 1.398 . S
C756 C757 1.391 . S
C757 H745 0.950 . S
C757 C753 1.393 . S
C757 C756 1.391 . S
C758 H748 0.950 . S
C758 C759 1.386 . S
C758 C760 1.391 . S
C759 C758 1.386 . S
C759 C763 1.393 . S
C760 H749 0.950 . S
C760 C758 1.391 . S
C760 C761 1.400 . S
C761 C755 1.491 . S
C761 C760 1.400 . S
C761 C762 1.398 . S
C762 H750 0.950 . S
C762 C761 1.398 . S
C762 C763 1.391 . S
C763 H751 0.950 . S
C763 C759 1.393 . S
C763 C762 1.391 . S
H764 C772 0.950 . S
H765 C777 0.950 . S
H766 C774 0.950 . S
H767 C776 0.950 . S
H768 C778 0.950 . S
H769 C780 0.950 . S
H770 C782 0.950 . S
H771 C783 0.950 . S
C772 H764 0.950 . S
C772 C773 1.386 . S
C772 C774 1.391 . S
C773 C772 1.386 . S
C773 C777 1.393 . S
C774 H766 0.950 . S
C774 C772 1.391 . S
C774 C775 1.400 . S
C775 C774 1.400 . S
C775 C776 1.398 . S
C775 C781 1.491 . S
C776 H767 0.950 . S
C776 C775 1.398 . S
C776 C777 1.391 . S
C777 H765 0.950 . S
C777 C773 1.393 . S
C777 C776 1.391 . S
C778 H768 0.950 . S
C778 C779 1.386 . S
C778 C780 1.391 . S
C779 C778 1.386 . S
C779 C783 1.393 . S
C780 H769 0.950 . S
C780 C778 1.391 . S
C780 C781 1.400 . S
C781 C775 1.491 . S
C781 C780 1.400 . S
C781 C782 1.398 . S
C782 H770 0.950 . S
C782 C781 1.398 . S
C782 C783 1.391 . S
C783 H771 0.950 . S
C783 C779 1.393 . S
C783 C782 1.391 . S
H784 C792 0.950 . S
H785 C797 0.950 . S
H786 C794 0.950 . S
H787 C796 0.950 . S
H788 C798 0.950 . S
H789 C800 0.950 . S
H790 C802 0.950 . S
H791 C803 0.950 . S
C792 H784 0.950 . S
C792 C793 1.386 . S
C792 C794 1.391 . S
C793 C792 1.386 . S
C793 C797 1.393 . S
C794 H786 0.950 . S
C794 C792 1.391 . S
C794 C795 1.400 . S
C795 C794 1.400 . S
C795 C796 1.398 . S
C795 C801 1.491 . S
C796 H787 0.950 . S
C796 C795 1.398 . S
C796 C797 1.391 . S
C797 H785 0.950 . S
C797 C793 1.393 . S
C797 C796 1.391 . S
C798 H788 0.950 . S
C798 C799 1.386 . S
C798 C800 1.391 . S
C799 C798 1.386 . S
C799 C803 1.393 . S
C800 H789 0.950 . S
C800 C798 1.391 . S
C800 C801 1.400 . S
C801 C795 1.491 . S
C801 C800 1.400 . S
C801 C802 1.398 . S
C802 H790 0.950 . S
C802 C801 1.398 . S
C802 C803 1.391 . S
C803 H791 0.950 . S
C803 C799 1.393 . S
C803 C802 1.391 . S
H804 C812 0.950 . S
H805 C817 0.950 . S
H806 C814 0.950 . S
H807 C816 0.950 . S
H808 C818 0.950 . S
H809 C820 0.950 . S
H810 C822 0.950 . S
H811 C823 0.950 . S
C812 H804 0.950 . S
C812 C813 1.386 . S
C812 C814 1.391 . S
C813 C812 1.386 . S
C813 C817 1.393 . S
C814 H806 0.950 . S
C814 C812 1.391 . S
C814 C815 1.400 . S
C815 C814 1.400 . S
C815 C816 1.398 . S
C815 C821 1.483 1_556 S
C816 H807 0.950 . S
C816 C815 1.398 . S
C816 C817 1.391 . S
C817 H805 0.950 . S
C817 C813 1.393 . S
C817 C816 1.391 . S
C818 H808 0.950 . S
C818 C819 1.386 . S
C818 C820 1.391 . S
C819 C818 1.386 . S
C819 C823 1.393 . S
C820 H809 0.950 . S
C820 C818 1.391 . S
C820 C821 1.404 . S
C821 C815 1.483 1_554 S
C821 C820 1.404 . S
C821 C822 1.402 . S
C822 H810 0.950 . S
C822 C821 1.402 . S
C822 C823 1.391 . S
C823 H811 0.950 . S
C823 C819 1.393 . S
C823 C822 1.391 . S
H824 C832 0.950 . S
H825 C837 0.950 . S
H826 C834 0.950 . S
H827 C836 0.950 . S
H828 C838 0.950 . S
H829 C840 0.950 . S
H830 C842 0.950 . S
H831 C843 0.950 . S
C832 H824 0.950 . S
C832 C833 1.386 . S
C832 C834 1.391 . S
C833 C832 1.386 . S
C833 C837 1.393 . S
C834 H826 0.950 . S
C834 C832 1.391 . S
C834 C835 1.400 . S
C835 C834 1.400 . S
C835 C836 1.398 . S
C835 C841 1.491 . S
C836 H827 0.950 . S
C836 C835 1.398 . S
C836 C837 1.391 . S
C837 H825 0.950 . S
C837 C833 1.393 . S
C837 C836 1.391 . S
C838 H828 0.950 . S
C838 C839 1.386 . S
C838 C840 1.391 . S
C839 C838 1.386 . S
C839 C843 1.393 . S
C840 H829 0.950 . S
C840 C838 1.391 . S
C840 C841 1.400 . S
C841 C835 1.491 . S
C841 C840 1.400 . S
C841 C842 1.398 . S
C842 H830 0.950 . S
C842 C841 1.398 . S
C842 C843 1.391 . S
C843 H831 0.950 . S
C843 C839 1.393 . S
C843 C842 1.391 . S
H844 C852 0.950 . S
H845 C857 0.950 . S
H846 C854 0.950 . S
H847 C856 0.950 . S
H848 C858 0.950 . S
H849 C860 0.950 . S
H850 C862 0.950 1_545 S
H851 C863 0.950 . S
C852 H844 0.950 . S
C852 C853 1.386 . S
C852 C854 1.391 . S
C853 C852 1.386 . S
C853 C857 1.393 . S
C854 H846 0.950 . S
C854 C852 1.391 . S
C854 C855 1.400 . S
C855 C854 1.400 . S
C855 C856 1.398 . S
C855 C861 1.491 . S
C856 H847 0.950 . S
C856 C855 1.398 . S
C856 C857 1.391 . S
C857 H845 0.950 . S
C857 C853 1.393 . S
C857 C856 1.391 . S
C858 H848 0.950 . S
C858 C859 1.386 . S
C858 C860 1.391 . S
C859 C858 1.386 . S
C859 C863 1.393 . S
C860 H849 0.950 . S
C860 C858 1.391 . S
C860 C861 1.400 1_565 S
C861 C855 1.491 . S
C861 C860 1.400 1_545 S
C861 C862 1.398 1_545 S
C862 H850 0.950 1_565 S
C862 C861 1.398 1_565 S
C862 C863 1.391 . S
C863 H851 0.950 . S
C863 C859 1.393 . S
C863 C862 1.391 . S
H864 C872 0.950 . S
H865 C877 0.950 . S
H866 C874 0.950 . S
H867 C876 0.950 . S
H868 C878 0.950 . S
H869 C880 0.950 . S
H870 C882 0.950 . S
H871 C883 0.950 . S
C872 H864 0.950 . S
C872 C873 1.386 . S
C872 C874 1.391 . S
C873 C872 1.386 . S
C873 C877 1.393 . S
C874 H866 0.950 . S
C874 C872 1.391 . S
C874 C875 1.400 . S
C875 C874 1.400 . S
C875 C876 1.398 . S
C875 C881 1.491 . S
C876 H867 0.950 . S
C876 C875 1.398 . S
C876 C877 1.391 . S
C877 H865 0.950 . S
C877 C873 1.393 . S
C877 C876 1.391 . S
C878 H868 0.950 . S
C878 C879 1.386 . S
C878 C880 1.391 . S
C879 C878 1.386 . S
C879 C883 1.393 . S
C880 H869 0.950 . S
C880 C878 1.391 . S
C880 C881 1.400 . S
C881 C875 1.491 . S
C881 C880 1.400 . S
C881 C882 1.398 . S
C882 H870 0.950 . S
C882 C881 1.398 . S
C882 C883 1.391 . S
C883 H871 0.950 . S
C883 C879 1.393 . S
C883 C882 1.391 . S
H884 C892 0.950 . S
H885 C897 0.950 . S
H886 C894 0.950 . S
H887 C896 0.950 . S
H888 C898 0.950 . S
H889 C900 0.950 . S
H890 C902 0.950 . S
H891 C903 0.950 . S
C892 H884 0.950 . S
C892 C893 1.386 . S
C892 C894 1.391 . S
C893 C892 1.386 . S
C893 C897 1.393 . S
C894 H886 0.950 . S
C894 C892 1.391 . S
C894 C895 1.400 . S
C895 C894 1.400 . S
C895 C896 1.398 . S
C895 C901 1.493 . S
C896 H887 0.950 . S
C896 C895 1.398 . S
C896 C897 1.391 . S
C897 H885 0.950 . S
C897 C893 1.393 . S
C897 C896 1.391 . S
C898 H888 0.950 . S
C898 C899 1.386 . S
C898 C900 1.391 1_545 S
C899 C898 1.386 . S
C899 C903 1.393 . S
C900 H889 0.950 . S
C900 C898 1.391 1_565 S
C900 C901 1.400 . S
C901 C895 1.493 . S
C901 C900 1.400 . S
C901 C902 1.395 1_565 S
C902 H890 0.950 . S
C902 C901 1.395 1_545 S
C902 C903 1.391 . S
C903 H891 0.950 . S
C903 C899 1.393 . S
C903 C902 1.391 . S
H904 C912 0.950 . S
H905 C917 0.950 . S
H906 C914 0.950 . S
H907 C916 0.950 . S
H908 C918 0.950 . S
H909 C920 0.950 . S
H910 C922 0.950 . S
H911 C923 0.950 . S
C912 H904 0.950 . S
C912 C913 1.386 . S
C912 C914 1.391 . S
C913 C912 1.386 . S
C913 C917 1.393 . S
C914 H906 0.950 . S
C914 C912 1.391 . S
C914 C915 1.400 . S
C915 C914 1.400 . S
C915 C916 1.398 . S
C915 C921 1.491 . S
C916 H907 0.950 . S
C916 C915 1.398 . S
C916 C917 1.391 . S
C917 H905 0.950 . S
C917 C913 1.393 . S
C917 C916 1.391 . S
C918 H908 0.950 . S
C918 C919 1.386 . S
C918 C920 1.391 . S
C919 C918 1.386 . S
C919 C923 1.393 . S
C920 H909 0.950 . S
C920 C918 1.391 . S
C920 C921 1.400 . S
C921 C915 1.491 . S
C921 C920 1.400 . S
C921 C922 1.398 . S
C922 H910 0.950 . S
C922 C921 1.398 . S
C922 C923 1.391 . S
C923 H911 0.950 . S
C923 C919 1.393 . S
C923 C922 1.391 . S
H924 C932 0.950 . S
H925 C937 0.950 . S
H926 C934 0.950 . S
H927 C936 0.950 . S
H928 C938 0.950 . S
H929 C940 0.950 . S
H930 C942 0.950 . S
H931 C943 0.950 . S
C932 H924 0.950 . S
C932 C933 1.386 . S
C932 C934 1.391 . S
C933 C932 1.386 . S
C933 C937 1.393 . S
C934 H926 0.950 . S
C934 C932 1.391 . S
C934 C935 1.400 . S
C935 C934 1.400 . S
C935 C936 1.398 . S
C935 C941 1.491 . S
C936 H927 0.950 . S
C936 C935 1.398 . S
C936 C937 1.391 . S
C937 H925 0.950 . S
C937 C933 1.393 . S
C937 C936 1.391 . S
C938 H928 0.950 . S
C938 C939 1.386 . S
C938 C940 1.391 1_565 S
C939 C938 1.386 . S
C939 C943 1.393 . S
C940 H929 0.950 . S
C940 C938 1.391 1_545 S
C940 C941 1.400 . S
C941 C935 1.491 . S
C941 C940 1.400 . S
C941 C942 1.398 1_545 S
C942 H930 0.950 . S
C942 C941 1.398 1_565 S
C942 C943 1.391 . S
C943 H931 0.950 . S
C943 C939 1.393 . S
C943 C942 1.391 . S
H944 C952 0.950 . S
H945 C957 0.950 . S
H946 C954 0.950 . S
H947 C956 0.950 . S
H948 C958 0.950 . S
H949 C960 0.950 . S
H950 C962 0.950 . S
H951 C963 0.950 . S
C952 H944 0.950 . S
C952 C953 1.386 . S
C952 C954 1.391 . S
C953 C952 1.386 . S
C953 C957 1.393 . S
C954 H946 0.950 . S
C954 C952 1.391 . S
C954 C955 1.400 . S
C955 C954 1.400 . S
C955 C956 1.398 . S
C955 C961 1.491 . S
C956 H947 0.950 . S
C956 C955 1.398 . S
C956 C957 1.391 . S
C957 H945 0.950 . S
C957 C953 1.393 . S
C957 C956 1.391 . S
C958 H948 0.950 . S
C958 C959 1.386 . S
C958 C960 1.391 . S
C959 C958 1.386 . S
C959 C963 1.393 . S
C960 H949 0.950 . S
C960 C958 1.391 . S
C960 C961 1.400 . S
C961 C955 1.491 . S
C961 C960 1.400 . S
C961 C962 1.398 . S
C962 H950 0.950 . S
C962 C961 1.398 . S
C962 C963 1.391 . S
C963 H951 0.950 . S
C963 C959 1.393 . S
C963 C962 1.391 . S
H964 C972 0.950 . S
H965 C977 0.950 . S
H966 C974 0.950 . S
H967 C976 0.950 . S
H968 C978 0.950 . S
H969 C980 0.950 1_565 S
H970 C982 0.950 . S
H971 C983 0.950 . S
C972 H964 0.950 . S
C972 C973 1.386 . S
C972 C974 1.391 . S
C973 C972 1.386 . S
C973 C977 1.393 . S
C974 H966 0.950 . S
C974 C972 1.391 . S
C974 C975 1.400 . S
C975 C974 1.400 . S
C975 C976 1.398 . S
C975 C981 1.486 1_565 S
C976 H967 0.950 . S
C976 C975 1.398 . S
C976 C977 1.391 . S
C977 H965 0.950 . S
C977 C973 1.393 . S
C977 C976 1.391 . S
C978 H968 0.950 . S
C978 C979 1.386 . S
C978 C980 1.391 . S
C979 C978 1.386 . S
C979 C983 1.393 . S
C980 H969 0.950 1_545 S
C980 C978 1.391 . S
C980 C981 1.400 . S
C981 C975 1.486 1_545 S
C981 C980 1.400 . S
C981 C982 1.403 . S
C982 H970 0.950 . S
C982 C981 1.403 . S
C982 C983 1.391 . S
C983 H971 0.950 . S
C983 C979 1.393 . S
C983 C982 1.391 . S
H984 C992 0.950 . S
H985 C997 0.950 . S
H986 C994 0.950 . S
H987 C996 0.950 . S
H988 C998 0.950 . S
H989 C1000 0.950 . S
H990 C1002 0.950 . S
H991 C1003 0.950 . S
C992 H984 0.950 . S
C992 C993 1.386 . S
C992 C994 1.391 . S
C993 C992 1.386 . S
C993 C997 1.393 . S
C994 H986 0.950 . S
C994 C992 1.391 . S
C994 C995 1.400 . S
C995 C994 1.400 . S
C995 C996 1.398 . S
C995 C1001 1.491 . S
C996 H987 0.950 . S
C996 C995 1.398 . S
C996 C997 1.391 . S
C997 H985 0.950 . S
C997 C993 1.393 . S
C997 C996 1.391 . S
C998 H988 0.950 . S
C998 C999 1.386 . S
C998 C1000 1.391 . S
C999 C998 1.386 . S
C999 C1003 1.393 . S
C1000 H989 0.950 . S
C1000 C998 1.391 . S
C1000 C1001 1.400 . S
C1001 C995 1.491 . S
C1001 C1000 1.400 . S
C1001 C1002 1.398 . S
C1002 H990 0.950 . S
C1002 C1001 1.398 . S
C1002 C1003 1.391 . S
C1003 H991 0.950 . S
C1003 C999 1.393 . S
C1003 C1002 1.391 . S
H1004 C1012 0.950 . S
H1005 C1017 0.950 . S
H1006 C1014 0.950 . S
H1007 C1016 0.950 . S
H1008 C1018 0.950 . S
H1009 C1020 0.950 . S
H1010 C1022 0.950 . S
H1011 C1023 0.950 . S
C1012 H1004 0.950 . S
C1012 C1013 1.386 . S
C1012 C1014 1.391 . S
C1013 C1012 1.386 . S
C1013 C1017 1.393 . S
C1014 H1006 0.950 . S
C1014 C1012 1.391 . S
C1014 C1015 1.400 . S
C1015 C1014 1.400 . S
C1015 C1016 1.398 . S
C1015 C1021 1.491 . S
C1016 H1007 0.950 . S
C1016 C1015 1.398 . S
C1016 C1017 1.391 . S
C1017 H1005 0.950 . S
C1017 C1013 1.393 . S
C1017 C1016 1.391 . S
C1018 H1008 0.950 . S
C1018 C1019 1.386 . S
C1018 C1020 1.391 . S
C1019 C1018 1.386 . S
C1019 C1023 1.393 . S
C1020 H1009 0.950 . S
C1020 C1018 1.391 . S
C1020 C1021 1.400 . S
C1021 C1015 1.491 . S
C1021 C1020 1.400 . S
C1021 C1022 1.398 . S
C1022 H1010 0.950 . S
C1022 C1021 1.398 . S
C1022 C1023 1.391 . S
C1023 H1011 0.950 . S
C1023 C1019 1.393 . S
C1023 C1022 1.391 . S
H1024 C1032 0.950 . S
H1025 C1037 0.950 . S
H1026 C1034 0.950 . S
H1027 C1036 0.950 . S
H1028 C1038 0.950 . S
H1029 C1040 0.950 . S
H1030 C1042 0.950 1_455 S
H1031 C1043 0.950 . S
C1032 H1024 0.950 . S
C1032 C1033 1.386 . S
C1032 C1034 1.391 . S
C1033 C1032 1.386 . S
C1033 C1037 1.393 . S
C1034 H1026 0.950 . S
C1034 C1032 1.391 . S
C1034 C1035 1.400 . S
C1035 C1034 1.400 . S
C1035 C1036 1.398 . S
C1035 C1041 1.509 . S
C1036 H1027 0.950 . S
C1036 C1035 1.398 . S
C1036 C1037 1.391 . S
C1037 H1025 0.950 . S
C1037 C1033 1.393 . S
C1037 C1036 1.391 . S
C1038 H1028 0.950 . S
C1038 C1039 1.386 . S
C1038 C1040 1.391 . S
C1039 C1038 1.386 . S
C1039 C1043 1.393 . S
C1040 H1029 0.950 . S
C1040 C1038 1.391 . S
C1040 C1041 1.387 1_655 S
C1041 C1035 1.509 . S
C1041 C1040 1.387 1_455 S
C1041 C1042 1.393 1_455 S
C1042 H1030 0.950 1_655 S
C1042 C1041 1.393 1_655 S
C1042 C1043 1.391 . S
C1043 H1031 0.950 . S
C1043 C1039 1.393 . S
C1043 C1042 1.391 . S
H1044 C1052 0.950 . S
H1045 C1057 0.950 . S
H1046 C1054 0.950 . S
H1047 C1056 0.950 . S
H1048 C1058 0.950 . S
H1049 C1060 0.950 . S
H1050 C1062 0.950 . S
H1051 C1063 0.950 . S
C1052 H1044 0.950 . S
C1052 C1053 1.386 . S
C1052 C1054 1.391 . S
C1053 C1052 1.386 . S
C1053 C1057 1.393 . S
C1054 H1046 0.950 . S
C1054 C1052 1.391 . S
C1054 C1055 1.400 . S
C1055 C1054 1.400 . S
C1055 C1056 1.398 . S
C1055 C1061 1.491 . S
C1056 H1047 0.950 . S
C1056 C1055 1.398 . S
C1056 C1057 1.391 . S
C1057 H1045 0.950 . S
C1057 C1053 1.393 . S
C1057 C1056 1.391 . S
C1058 H1048 0.950 . S
C1058 C1059 1.386 . S
C1058 C1060 1.391 . S
C1059 C1058 1.386 . S
C1059 C1063 1.393 . S
C1060 H1049 0.950 . S
C1060 C1058 1.391 . S
C1060 C1061 1.400 . S
C1061 C1055 1.491 . S
C1061 C1060 1.400 . S
C1061 C1062 1.398 . S
C1062 H1050 0.950 . S
C1062 C1061 1.398 . S
C1062 C1063 1.391 . S
C1063 H1051 0.950 . S
C1063 C1059 1.393 . S
C1063 C1062 1.391 . S
H1064 C1072 0.950 . S
H1065 C1077 0.950 . S
H1066 C1074 0.950 . S
H1067 C1076 0.950 . S
H1068 C1078 0.950 . S
H1069 C1080 0.950 . S
H1070 C1082 0.950 . S
H1071 C1083 0.950 . S
C1072 H1064 0.950 . S
C1072 C1073 1.386 . S
C1072 C1074 1.391 . S
C1073 C1072 1.386 . S
C1073 C1077 1.393 . S
C1074 H1066 0.950 . S
C1074 C1072 1.391 . S
C1074 C1075 1.400 . S
C1075 C1074 1.400 . S
C1075 C1076 1.398 . S
C1075 C1081 1.492 1_655 S
C1076 H1067 0.950 . S
C1076 C1075 1.398 . S
C1076 C1077 1.391 . S
C1077 H1065 0.950 . S
C1077 C1073 1.393 . S
C1077 C1076 1.391 . S
C1078 H1068 0.950 . S
C1078 C1079 1.386 . S
C1078 C1080 1.391 1_455 S
C1079 C1078 1.386 . S
C1079 C1083 1.393 . S
C1080 H1069 0.950 . S
C1080 C1078 1.391 1_655 S
C1080 C1081 1.400 1_655 S
C1081 C1075 1.492 1_455 S
C1081 C1080 1.400 1_455 S
C1081 C1082 1.397 . S
C1082 H1070 0.950 . S
C1082 C1081 1.397 . S
C1082 C1083 1.391 . S
C1083 H1071 0.950 . S
C1083 C1079 1.393 . S
C1083 C1082 1.391 . S
H1084 C1092 0.950 . S
H1085 C1097 0.950 . S
H1086 C1094 0.950 . S
H1087 C1096 0.950 . S
H1088 C1098 0.950 . S
H1089 C1100 0.950 . S
H1090 C1102 0.950 . S
H1091 C1103 0.950 . S
C1092 H1084 0.950 . S
C1092 C1093 1.386 . S
C1092 C1094 1.391 . S
C1093 C1092 1.386 . S
C1093 C1097 1.393 . S
C1094 H1086 0.950 . S
C1094 C1092 1.391 . S
C1094 C1095 1.400 . S
C1095 C1094 1.400 . S
C1095 C1096 1.398 . S
C1095 C1101 1.491 . S
C1096 H1087 0.950 . S
C1096 C1095 1.398 . S
C1096 C1097 1.391 . S
C1097 H1085 0.950 . S
C1097 C1093 1.393 . S
C1097 C1096 1.391 . S
C1098 H1088 0.950 . S
C1098 C1099 1.386 . S
C1098 C1100 1.391 . S
C1099 C1098 1.386 . S
C1099 C1103 1.393 . S
C1100 H1089 0.950 . S
C1100 C1098 1.391 . S
C1100 C1101 1.400 . S
C1101 C1095 1.491 . S
C1101 C1100 1.400 . S
C1101 C1102 1.398 . S
C1102 H1090 0.950 . S
C1102 C1101 1.398 . S
C1102 C1103 1.391 . S
C1103 H1091 0.950 . S
C1103 C1099 1.393 . S
C1103 C1102 1.391 . S
H1104 C1112 0.950 . S
H1105 C1117 0.950 . S
H1106 C1114 0.950 . S
H1107 C1116 0.950 . S
H1108 C1118 0.950 . S
H1109 C1120 0.950 . S
H1110 C1122 0.950 . S
H1111 C1123 0.950 . S
C1112 H1104 0.950 . S
C1112 C1113 1.386 . S
C1112 C1114 1.391 . S
C1113 C1112 1.386 . S
C1113 C1117 1.393 . S
C1114 H1106 0.950 . S
C1114 C1112 1.391 . S
C1114 C1115 1.400 . S
C1115 C1114 1.400 . S
C1115 C1116 1.398 . S
C1115 C1121 1.491 . S
C1116 H1107 0.950 . S
C1116 C1115 1.398 . S
C1116 C1117 1.391 . S
C1117 H1105 0.950 . S
C1117 C1113 1.393 . S
C1117 C1116 1.391 . S
C1118 H1108 0.950 . S
C1118 C1119 1.386 . S
C1118 C1120 1.391 . S
C1119 C1118 1.386 . S
C1119 C1123 1.393 . S
C1120 H1109 0.950 . S
C1120 C1118 1.391 . S
C1120 C1121 1.400 1_655 S
C1121 C1115 1.491 . S
C1121 C1120 1.400 1_455 S
C1121 C1122 1.398 . S
C1122 H1110 0.950 . S
C1122 C1121 1.398 . S
C1122 C1123 1.391 1_455 S
C1123 H1111 0.950 . S
C1123 C1119 1.393 . S
C1123 C1122 1.391 1_655 S
H1124 C1132 0.950 . S
H1125 C1137 0.950 . S
H1126 C1134 0.950 . S
H1127 C1136 0.950 . S
H1128 C1138 0.950 . S
H1129 C1140 0.950 . S
H1130 C1142 0.950 . S
H1131 C1143 0.950 . S
C1132 H1124 0.950 . S
C1132 C1133 1.386 . S
C1132 C1134 1.391 . S
C1133 C1132 1.386 . S
C1133 C1137 1.393 . S
C1134 H1126 0.950 . S
C1134 C1132 1.391 . S
C1134 C1135 1.400 . S
C1135 C1134 1.400 . S
C1135 C1136 1.398 . S
C1135 C1141 1.491 . S
C1136 H1127 0.950 . S
C1136 C1135 1.398 . S
C1136 C1137 1.391 . S
C1137 H1125 0.950 . S
C1137 C1133 1.393 . S
C1137 C1136 1.391 . S
C1138 H1128 0.950 . S
C1138 C1139 1.386 . S
C1138 C1140 1.391 . S
C1139 C1138 1.386 . S
C1139 C1143 1.393 . S
C1140 H1129 0.950 . S
C1140 C1138 1.391 . S
C1140 C1141 1.400 . S
C1141 C1135 1.491 . S
C1141 C1140 1.400 . S
C1141 C1142 1.398 . S
C1142 H1130 0.950 . S
C1142 C1141 1.398 . S
C1142 C1143 1.391 . S
C1143 H1131 0.950 . S
C1143 C1139 1.393 . S
C1143 C1142 1.391 . S
H1144 C1152 0.950 . S
H1145 C1157 0.950 . S
H1146 C1154 0.950 . S
H1147 C1156 0.950 . S
H1148 C1158 0.950 . S
H1149 C1160 0.950 . S
H1150 C1162 0.950 . S
H1151 C1163 0.950 . S
C1152 H1144 0.950 . S
C1152 C1153 1.386 . S
C1152 C1154 1.391 . S
C1153 C1152 1.386 . S
C1153 C1157 1.393 . S
C1154 H1146 0.950 . S
C1154 C1152 1.391 . S
C1154 C1155 1.400 . S
C1155 C1154 1.400 . S
C1155 C1156 1.398 . S
C1155 C1161 1.491 . S
C1156 H1147 0.950 . S
C1156 C1155 1.398 . S
C1156 C1157 1.391 . S
C1157 H1145 0.950 . S
C1157 C1153 1.393 . S
C1157 C1156 1.391 . S
C1158 H1148 0.950 . S
C1158 C1159 1.386 . S
C1158 C1160 1.391 . S
C1159 C1158 1.386 . S
C1159 C1163 1.393 . S
C1160 H1149 0.950 . S
C1160 C1158 1.391 . S
C1160 C1161 1.400 . S
C1161 C1155 1.491 . S
C1161 C1160 1.400 . S
C1161 C1162 1.398 . S
C1162 H1150 0.950 . S
C1162 C1161 1.398 . S
C1162 C1163 1.391 . S
C1163 H1151 0.950 . S
C1163 C1159 1.393 . S
C1163 C1162 1.391 . S
H1164 C1172 0.950 . S
H1165 C1177 0.950 . S
H1166 C1174 0.950 . S
H1167 C1176 0.950 . S
H1168 C1178 0.950 . S
H1169 C1180 0.950 . S
H1170 C1182 0.950 . S
H1171 C1183 0.950 . S
C1172 H1164 0.950 . S
C1172 C1173 1.386 . S
C1172 C1174 1.391 . S
C1173 C1172 1.386 . S
C1173 C1177 1.393 . S
C1174 H1166 0.950 . S
C1174 C1172 1.391 . S
C1174 C1175 1.400 . S
C1175 C1174 1.400 . S
C1175 C1176 1.398 . S
C1175 C1181 1.491 . S
C1176 H1167 0.950 . S
C1176 C1175 1.398 . S
C1176 C1177 1.391 . S
C1177 H1165 0.950 . S
C1177 C1173 1.393 . S
C1177 C1176 1.391 . S
C1178 H1168 0.950 . S
C1178 C1179 1.386 . S
C1178 C1180 1.391 . S
C1179 C1178 1.386 . S
C1179 C1183 1.393 . S
C1180 H1169 0.950 . S
C1180 C1178 1.391 . S
C1180 C1181 1.400 . S
C1181 C1175 1.491 . S
C1181 C1180 1.400 . S
C1181 C1182 1.398 . S
C1182 H1170 0.950 . S
C1182 C1181 1.398 . S
C1182 C1183 1.391 . S
C1183 H1171 0.950 . S
C1183 C1179 1.393 . S
C1183 C1182 1.391 . S
H1184 C1192 0.950 . S
H1185 C1197 0.950 . S
H1186 C1194 0.950 . S
H1187 C1196 0.950 . S
H1188 C1198 0.950 . S
H1189 C1200 0.950 . S
H1190 C1202 0.950 . S
H1191 C1203 0.950 . S
C1192 H1184 0.950 . S
C1192 C1193 1.386 . S
C1192 C1194 1.391 . S
C1193 C1192 1.386 . S
C1193 C1197 1.393 . S
C1194 H1186 0.950 . S
C1194 C1192 1.391 . S
C1194 C1195 1.400 . S
C1195 C1194 1.400 . S
C1195 C1196 1.398 . S
C1195 C1201 1.491 . S
C1196 H1187 0.950 . S
C1196 C1195 1.398 . S
C1196 C1197 1.391 . S
C1197 H1185 0.950 . S
C1197 C1193 1.393 . S
C1197 C1196 1.391 . S
C1198 H1188 0.950 . S
C1198 C1199 1.386 . S
C1198 C1200 1.391 . S
C1199 C1198 1.386 . S
C1199 C1203 1.393 . S
C1200 H1189 0.950 . S
C1200 C1198 1.391 . S
C1200 C1201 1.400 . S
C1201 C1195 1.491 . S
C1201 C1200 1.400 . S
C1201 C1202 1.398 . S
C1202 H1190 0.950 . S
C1202 C1201 1.398 . S
C1202 C1203 1.391 . S
C1203 H1191 0.950 . S
C1203 C1199 1.393 . S
C1203 C1202 1.391 . S
H1204 C1212 0.950 . S
H1205 C1217 0.950 . S
H1206 C1214 0.950 . S
H1207 C1216 0.950 . S
H1208 C1218 0.950 . S
H1209 C1220 0.950 . S
H1210 C1222 0.950 1_556 S
H1211 C1223 0.950 . S
C1212 H1204 0.950 . S
C1212 C1213 1.386 . S
C1212 C1214 1.391 . S
C1213 C1212 1.386 . S
C1213 C1217 1.393 . S
C1214 H1206 0.950 . S
C1214 C1212 1.391 . S
C1214 C1215 1.400 . S
C1215 C1214 1.400 . S
C1215 C1216 1.398 . S
C1215 C1221 1.487 . S
C1216 H1207 0.950 . S
C1216 C1215 1.398 . S
C1216 C1217 1.391 . S
C1217 H1205 0.950 . S
C1217 C1213 1.393 . S
C1217 C1216 1.391 . S
C1218 H1208 0.950 . S
C1218 C1219 1.386 . S
C1218 C1220 1.391 . S
C1219 C1218 1.386 . S
C1219 C1223 1.393 . S
C1220 H1209 0.950 . S
C1220 C1218 1.391 . S
C1220 C1221 1.403 1_554 S
C1221 C1215 1.487 . S
C1221 C1220 1.403 1_556 S
C1221 C1222 1.399 1_556 S
C1222 H1210 0.950 1_554 S
C1222 C1221 1.399 1_554 S
C1222 C1223 1.391 . S
C1223 H1211 0.950 . S
C1223 C1219 1.393 . S
C1223 C1222 1.391 . S
H1224 C1232 0.950 . S
H1225 C1237 0.950 . S
H1226 C1234 0.950 . S
H1227 C1236 0.950 . S
H1228 C1238 0.950 . S
H1229 C1240 0.950 . S
H1230 C1242 0.950 . S
H1231 C1243 0.950 . S
C1232 H1224 0.950 . S
C1232 C1233 1.386 . S
C1232 C1234 1.391 . S
C1233 C1232 1.386 . S
C1233 C1237 1.393 . S
C1234 H1226 0.950 . S
C1234 C1232 1.391 . S
C1234 C1235 1.400 . S
C1235 C1234 1.400 . S
C1235 C1236 1.398 . S
C1235 C1241 1.491 . S
C1236 H1227 0.950 . S
C1236 C1235 1.398 . S
C1236 C1237 1.391 . S
C1237 H1225 0.950 . S
C1237 C1233 1.393 . S
C1237 C1236 1.391 . S
C1238 H1228 0.950 . S
C1238 C1239 1.386 . S
C1238 C1240 1.391 . S
C1239 C1238 1.386 . S
C1239 C1243 1.393 . S
C1240 H1229 0.950 . S
C1240 C1238 1.391 . S
C1240 C1241 1.400 . S
C1241 C1235 1.491 . S
C1241 C1240 1.400 . S
C1241 C1242 1.398 . S
C1242 H1230 0.950 . S
C1242 C1241 1.398 . S
C1242 C1243 1.391 . S
C1243 H1231 0.950 . S
C1243 C1239 1.393 . S
C1243 C1242 1.391 . S
H1244 C1252 0.950 . S
H1245 C1257 0.950 . S
H1246 C1254 0.950 . S
H1247 C1256 0.950 . S
H1248 C1258 0.950 . S
H1249 C1260 0.950 . S
H1250 C1262 0.950 . S
H1251 C1263 0.950 . S
C1252 H1244 0.950 . S
C1252 C1253 1.386 . S
C1252 C1254 1.391 . S
C1253 C1252 1.386 . S
C1253 C1257 1.393 . S
C1254 H1246 0.950 . S
C1254 C1252 1.391 . S
C1254 C1255 1.400 . S
C1255 C1254 1.400 . S
C1255 C1256 1.398 . S
C1255 C1261 1.491 . S
C1256 H1247 0.950 . S
C1256 C1255 1.398 . S
C1256 C1257 1.391 . S
C1257 H1245 0.950 . S
C1257 C1253 1.393 . S
C1257 C1256 1.391 . S
C1258 H1248 0.950 . S
C1258 C1259 1.386 . S
C1258 C1260 1.391 . S
C1259 C1258 1.386 . S
C1259 C1263 1.393 . S
C1260 H1249 0.950 . S
C1260 C1258 1.391 . S
C1260 C1261 1.400 . S
C1261 C1255 1.491 . S
C1261 C1260 1.400 . S
C1261 C1262 1.398 . S
C1262 H1250 0.950 . S
C1262 C1261 1.398 . S
C1262 C1263 1.391 . S
C1263 H1251 0.950 . S
C1263 C1259 1.393 . S
C1263 C1262 1.391 . S
H1264 C1272 0.950 . S
H1265 C1277 0.950 . S
H1266 C1274 0.950 . S
H1267 C1276 0.950 . S
H1268 C1278 0.950 . S
H1269 C1280 0.950 . S
H1270 C1282 0.950 . S
H1271 C1283 0.950 . S
C1272 H1264 0.950 . S
C1272 C1273 1.386 . S
C1272 C1274 1.391 . S
C1273 C1272 1.386 . S
C1273 C1277 1.393 . S
C1274 H1266 0.950 . S
C1274 C1272 1.391 . S
C1274 C1275 1.400 . S
C1275 C1274 1.400 . S
C1275 C1276 1.398 . S
C1275 C1281 1.491 . S
C1276 H1267 0.950 . S
C1276 C1275 1.398 . S
C1276 C1277 1.391 . S
C1277 H1265 0.950 . S
C1277 C1273 1.393 . S
C1277 C1276 1.391 . S
C1278 H1268 0.950 . S
C1278 C1279 1.386 . S
C1278 C1280 1.391 . S
C1279 C1278 1.386 . S
C1279 C1283 1.393 . S
C1280 H1269 0.950 . S
C1280 C1278 1.391 . S
C1280 C1281 1.400 . S
C1281 C1275 1.491 . S
C1281 C1280 1.400 . S
C1281 C1282 1.398 . S
C1282 H1270 0.950 . S
C1282 C1281 1.398 . S
C1282 C1283 1.391 . S
C1283 H1271 0.950 . S
C1283 C1279 1.393 . S
C1283 C1282 1.391 . S
H1284 C1292 0.950 . S
H1285 C1297 0.950 . S
H1286 C1294 0.950 . S
H1287 C1296 0.950 . S
H1288 C1298 0.950 . S
H1289 C1300 0.950 . S
H1290 C1302 0.950 . S
H1291 C1303 0.950 . S
C1292 H1284 0.950 . S
C1292 C1293 1.386 . S
C1292 C1294 1.391 . S
C1293 C1292 1.386 . S
C1293 C1297 1.393 . S
C1294 H1286 0.950 . S
C1294 C1292 1.391 . S
C1294 C1295 1.400 . S
C1295 C1294 1.400 . S
C1295 C1296 1.398 . S
C1295 C1301 1.523 . S
C1296 H1287 0.950 . S
C1296 C1295 1.398 . S
C1296 C1297 1.391 . S
C1297 H1285 0.950 . S
C1297 C1293 1.393 . S
C1297 C1296 1.391 . S
C1298 H1288 0.950 . S
C1298 C1299 1.386 . S
C1298 C1300 1.391 1_556 S
C1299 C1298 1.386 . S
C1299 C1303 1.393 . S
C1300 H1289 0.950 . S
C1300 C1298 1.391 1_554 S
C1300 C1301 1.406 . S
C1301 C1295 1.523 . S
C1301 C1300 1.406 . S
C1301 C1302 1.361 1_554 S
C1302 H1290 0.950 . S
C1302 C1301 1.361 1_556 S
C1302 C1303 1.391 . S
C1303 H1291 0.950 . S
C1303 C1299 1.393 . S
C1303 C1302 1.391 . S
H1304 C1312 0.950 . S
H1305 C1317 0.950 . S
H1306 C1314 0.950 . S
H1307 C1316 0.950 . S
H1308 C1318 0.950 . S
H1309 C1320 0.950 . S
H1310 C1322 0.950 . S
H1311 C1323 0.950 . S
C1312 H1304 0.950 . S
C1312 C1313 1.386 . S
C1312 C1314 1.391 . S
C1313 C1312 1.386 . S
C1313 C1317 1.393 . S
C1314 H1306 0.950 . S
C1314 C1312 1.391 . S
C1314 C1315 1.400 . S
C1315 C1314 1.400 . S
C1315 C1316 1.398 . S
C1315 C1321 1.491 . S
C1316 H1307 0.950 . S
C1316 C1315 1.398 . S
C1316 C1317 1.391 . S
C1317 H1305 0.950 . S
C1317 C1313 1.393 . S
C1317 C1316 1.391 . S
C1318 H1308 0.950 . S
C1318 C1319 1.386 . S
C1318 C1320 1.391 . S
C1319 C1318 1.386 . S
C1319 C1323 1.393 . S
C1320 H1309 0.950 . S
C1320 C1318 1.391 . S
C1320 C1321 1.400 . S
C1321 C1315 1.491 . S
C1321 C1320 1.400 . S
C1321 C1322 1.398 . S
C1322 H1310 0.950 . S
C1322 C1321 1.398 . S
C1322 C1323 1.391 . S
C1323 H1311 0.950 . S
C1323 C1319 1.393 . S
C1323 C1322 1.391 . S
H1324 C1332 0.950 . S
H1325 C1337 0.950 . S
H1326 C1334 0.950 . S
H1327 C1336 0.950 . S
H1328 C1338 0.950 . S
H1329 C1340 0.950 . S
H1330 C1342 0.950 . S
H1331 C1343 0.950 . S
C1332 H1324 0.950 . S
C1332 C1333 1.386 . S
C1332 C1334 1.391 . S
C1333 C1332 1.386 . S
C1333 C1337 1.393 . S
C1334 H1326 0.950 . S
C1334 C1332 1.391 . S
C1334 C1335 1.400 . S
C1335 C1334 1.400 . S
C1335 C1336 1.398 . S
C1335 C1341 1.487 1_565 S
C1336 H1327 0.950 . S
C1336 C1335 1.398 . S
C1336 C1337 1.391 . S
C1337 H1325 0.950 . S
C1337 C1333 1.393 . S
C1337 C1336 1.391 . S
C1338 H1328 0.950 . S
C1338 C1339 1.386 . S
C1338 C1340 1.391 . S
C1339 C1338 1.386 . S
C1339 C1343 1.393 . S
C1340 H1329 0.950 . S
C1340 C1338 1.391 . S
C1340 C1341 1.405 . S
C1341 C1335 1.487 1_545 S
C1341 C1340 1.405 . S
C1341 C1342 1.398 1_545 S
C1342 H1330 0.950 . S
C1342 C1341 1.398 1_565 S
C1342 C1343 1.391 1_565 S
C1343 H1331 0.950 . S
C1343 C1339 1.393 . S
C1343 C1342 1.391 1_545 S
H1344 C1352 0.950 . S
H1345 C1357 0.950 . S
H1346 C1354 0.950 . S
H1347 C1356 0.950 . S
H1348 C1358 0.950 . S
H1349 C1360 0.950 . S
H1350 C1362 0.950 . S
H1351 C1363 0.950 . S
C1352 H1344 0.950 . S
C1352 C1353 1.386 . S
C1352 C1354 1.391 . S
C1353 C1352 1.386 . S
C1353 C1357 1.393 . S
C1354 H1346 0.950 . S
C1354 C1352 1.391 . S
C1354 C1355 1.400 . S
C1355 C1354 1.400 . S
C1355 C1356 1.398 . S
C1355 C1361 1.491 . S
C1356 H1347 0.950 . S
C1356 C1355 1.398 . S
C1356 C1357 1.391 . S
C1357 H1345 0.950 . S
C1357 C1353 1.393 . S
C1357 C1356 1.391 . S
C1358 H1348 0.950 . S
C1358 C1359 1.386 . S
C1358 C1360 1.391 . S
C1359 C1358 1.386 . S
C1359 C1363 1.393 . S
C1360 H1349 0.950 . S
C1360 C1358 1.391 . S
C1360 C1361 1.400 . S
C1361 C1355 1.491 . S
C1361 C1360 1.400 . S
C1361 C1362 1.398 . S
C1362 H1350 0.950 . S
C1362 C1361 1.398 . S
C1362 C1363 1.391 . S
C1363 H1351 0.950 . S
C1363 C1359 1.393 . S
C1363 C1362 1.391 . S
H1364 C1372 0.950 . S
H1365 C1377 0.950 . S
H1366 C1374 0.950 . S
H1367 C1376 0.950 . S
H1368 C1378 0.950 . S
H1369 C1380 0.950 . S
H1370 C1382 0.950 1_545 S
H1371 C1383 0.950 . S
C1372 H1364 0.950 . S
C1372 C1373 1.386 . S
C1372 C1374 1.391 . S
C1373 C1372 1.386 . S
C1373 C1377 1.393 . S
C1374 H1366 0.950 . S
C1374 C1372 1.391 . S
C1374 C1375 1.400 . S
C1375 C1374 1.400 . S
C1375 C1376 1.398 . S
C1375 C1381 1.491 . S
C1376 H1367 0.950 . S
C1376 C1375 1.398 . S
C1376 C1377 1.391 . S
C1377 H1365 0.950 . S
C1377 C1373 1.393 . S
C1377 C1376 1.391 . S
C1378 H1368 0.950 . S
C1378 C1379 1.386 . S
C1378 C1380 1.391 . S
C1379 C1378 1.386 . S
C1379 C1383 1.393 . S
C1380 H1369 0.950 . S
C1380 C1378 1.391 . S
C1380 C1381 1.400 1_565 S
C1381 C1375 1.491 . S
C1381 C1380 1.400 1_545 S
C1381 C1382 1.398 1_545 S
C1382 H1370 0.950 1_565 S
C1382 C1381 1.398 1_565 S
C1382 C1383 1.391 . S
C1383 H1371 0.950 . S
C1383 C1379 1.393 . S
C1383 C1382 1.391 . S
H1384 C1392 0.950 . S
H1385 C1397 0.950 . S
H1386 C1394 0.950 . S
H1387 C1396 0.950 . S
H1388 C1398 0.950 . S
H1389 C1400 0.950 . S
H1390 C1402 0.950 . S
H1391 C1403 0.950 . S
C1392 H1384 0.950 . S
C1392 C1393 1.386 . S
C1392 C1394 1.391 . S
C1393 C1392 1.386 . S
C1393 C1397 1.393 . S
C1394 H1386 0.950 . S
C1394 C1392 1.391 . S
C1394 C1395 1.400 . S
C1395 C1394 1.400 . S
C1395 C1396 1.398 . S
C1395 C1401 1.491 . S
C1396 H1387 0.950 . S
C1396 C1395 1.398 . S
C1396 C1397 1.391 . S
C1397 H1385 0.950 . S
C1397 C1393 1.393 . S
C1397 C1396 1.391 . S
C1398 H1388 0.950 . S
C1398 C1399 1.386 . S
C1398 C1400 1.391 . S
C1399 C1398 1.386 . S
C1399 C1403 1.393 . S
C1400 H1389 0.950 . S
C1400 C1398 1.391 . S
C1400 C1401 1.400 . S
C1401 C1395 1.491 . S
C1401 C1400 1.400 . S
C1401 C1402 1.398 . S
C1402 H1390 0.950 . S
C1402 C1401 1.398 . S
C1402 C1403 1.391 . S
C1403 H1391 0.950 . S
C1403 C1399 1.393 . S
C1403 C1402 1.391 . S
H1404 C1412 0.950 . S
H1405 C1417 0.950 . S
H1406 C1414 0.950 . S
H1407 C1416 0.950 . S
H1408 C1418 0.950 . S
H1409 C1420 0.950 . S
H1410 C1422 0.950 . S
H1411 C1423 0.950 . S
C1412 H1404 0.950 . S
C1412 C1413 1.386 . S
C1412 C1414 1.391 . S
C1413 C1412 1.386 . S
C1413 C1417 1.393 . S
C1414 H1406 0.950 . S
C1414 C1412 1.391 . S
C1414 C1415 1.400 . S
C1415 C1414 1.400 . S
C1415 C1416 1.398 . S
C1415 C1421 1.490 1_565 S
C1416 H1407 0.950 . S
C1416 C1415 1.398 . S
C1416 C1417 1.391 . S
C1417 H1405 0.950 . S
C1417 C1413 1.393 . S
C1417 C1416 1.391 . S
C1418 H1408 0.950 . S
C1418 C1419 1.386 . S
C1418 C1420 1.391 . S
C1419 C1418 1.386 . S
C1419 C1423 1.393 . S
C1420 H1409 0.950 . S
C1420 C1418 1.391 . S
C1420 C1421 1.401 . S
C1421 C1415 1.490 1_545 S
C1421 C1420 1.401 . S
C1421 C1422 1.399 . S
C1422 H1410 0.950 . S
C1422 C1421 1.399 . S
C1422 C1423 1.391 . S
C1423 H1411 0.950 . S
C1423 C1419 1.393 . S
C1423 C1422 1.391 . S
H1424 C1432 0.950 . S
H1425 C1437 0.950 . S
H1426 C1434 0.950 . S
H1427 C1436 0.950 . S
H1428 C1438 0.950 . S
H1429 C1440 0.950 . S
H1430 C1442 0.950 . S
H1431 C1443 0.950 . S
C1432 H1424 0.950 . S
C1432 C1433 1.386 . S
C1432 C1434 1.391 . S
C1433 C1432 1.386 . S
C1433 C1437 1.393 . S
C1434 H1426 0.950 . S
C1434 C1432 1.391 . S
C1434 C1435 1.400 . S
C1435 C1434 1.400 . S
C1435 C1436 1.398 . S
C1435 C1441 1.491 . S
C1436 H1427 0.950 . S
C1436 C1435 1.398 . S
C1436 C1437 1.391 . S
C1437 H1425 0.950 . S
C1437 C1433 1.393 . S
C1437 C1436 1.391 . S
C1438 H1428 0.950 . S
C1438 C1439 1.386 . S
C1438 C1440 1.391 . S
C1439 C1438 1.386 . S
C1439 C1443 1.393 . S
C1440 H1429 0.950 . S
C1440 C1438 1.391 . S
C1440 C1441 1.400 . S
C1441 C1435 1.491 . S
C1441 C1440 1.400 . S
C1441 C1442 1.398 . S
C1442 H1430 0.950 . S
C1442 C1441 1.398 . S
C1442 C1443 1.391 . S
C1443 H1431 0.950 . S
C1443 C1439 1.393 . S
C1443 C1442 1.391 . S
H1444 C1452 0.950 . S
H1445 C1457 0.950 . S
H1446 C1454 0.950 . S
H1447 C1456 0.950 . S
H1448 C1458 0.950 . S
H1449 C1460 0.950 . S
H1450 C1462 0.950 . S
H1451 C1463 0.950 . S
C1452 H1444 0.950 . S
C1452 C1453 1.386 . S
C1452 C1454 1.391 . S
C1453 C1452 1.386 . S
C1453 C1457 1.393 . S
C1454 H1446 0.950 . S
C1454 C1452 1.391 . S
C1454 C1455 1.400 . S
C1455 C1454 1.400 . S
C1455 C1456 1.398 . S
C1455 C1461 1.511 . S
C1456 H1447 0.950 . S
C1456 C1455 1.398 . S
C1456 C1457 1.391 . S
C1457 H1445 0.950 . S
C1457 C1453 1.393 . S
C1457 C1456 1.391 . S
C1458 H1448 0.950 . S
C1458 C1459 1.386 . S
C1458 C1460 1.391 . S
C1459 C1458 1.386 . S
C1459 C1463 1.393 . S
C1460 H1449 0.950 . S
C1460 C1458 1.391 . S
C1460 C1461 1.390 1_565 S
C1461 C1455 1.511 . S
C1461 C1460 1.390 1_545 S
C1461 C1462 1.387 1_545 S
C1462 H1450 0.950 . S
C1462 C1461 1.387 1_565 S
C1462 C1463 1.391 . S
C1463 H1451 0.950 . S
C1463 C1459 1.393 . S
C1463 C1462 1.391 . S
H1464 C1472 0.950 . S
H1465 C1477 0.950 . S
H1466 C1474 0.950 . S
H1467 C1476 0.950 . S
H1468 C1478 0.950 . S
H1469 C1480 0.950 . S
H1470 C1482 0.950 . S
H1471 C1483 0.950 . S
C1472 H1464 0.950 . S
C1472 C1473 1.386 . S
C1472 C1474 1.391 . S
C1473 C1472 1.386 . S
C1473 C1477 1.393 . S
C1474 H1466 0.950 . S
C1474 C1472 1.391 . S
C1474 C1475 1.400 . S
C1475 C1474 1.400 . S
C1475 C1476 1.398 . S
C1475 C1481 1.491 . S
C1476 H1467 0.950 . S
C1476 C1475 1.398 . S
C1476 C1477 1.391 . S
C1477 H1465 0.950 . S
C1477 C1473 1.393 . S
C1477 C1476 1.391 . S
C1478 H1468 0.950 . S
C1478 C1479 1.386 . S
C1478 C1480 1.391 . S
C1479 C1478 1.386 . S
C1479 C1483 1.393 . S
C1480 H1469 0.950 . S
C1480 C1478 1.391 . S
C1480 C1481 1.400 . S
C1481 C1475 1.491 . S
C1481 C1480 1.400 . S
C1481 C1482 1.398 . S
C1482 H1470 0.950 . S
C1482 C1481 1.398 . S
C1482 C1483 1.391 . S
C1483 H1471 0.950 . S
C1483 C1479 1.393 . S
C1483 C1482 1.391 . S
H1484 C1492 0.950 . S
H1485 C1497 0.950 . S
H1486 C1494 0.950 . S
H1487 C1496 0.950 . S
H1488 C1498 0.950 . S
H1489 C1500 0.950 . S
H1490 C1502 0.950 . S
H1491 C1503 0.950 . S
C1492 H1484 0.950 . S
C1492 C1493 1.386 . S
C1492 C1494 1.391 . S
C1493 C1492 1.386 . S
C1493 C1497 1.393 . S
C1494 H1486 0.950 . S
C1494 C1492 1.391 . S
C1494 C1495 1.400 . S
C1495 C1494 1.400 . S
C1495 C1496 1.398 . S
C1495 C1501 1.491 . S
C1496 H1487 0.950 . S
C1496 C1495 1.398 . S
C1496 C1497 1.391 . S
C1497 H1485 0.950 . S
C1497 C1493 1.393 . S
C1497 C1496 1.391 . S
C1498 H1488 0.950 . S
C1498 C1499 1.386 . S
C1498 C1500 1.391 . S
C1499 C1498 1.386 . S
C1499 C1503 1.393 . S
C1500 H1489 0.950 . S
C1500 C1498 1.391 . S
C1500 C1501 1.400 . S
C1501 C1495 1.491 . S
C1501 C1500 1.400 . S
C1501 C1502 1.398 . S
C1502 H1490 0.950 . S
C1502 C1501 1.398 . S
C1502 C1503 1.391 . S
C1503 H1491 0.950 . S
C1503 C1499 1.393 . S
C1503 C1502 1.391 . S
H1504 C1512 0.950 . S
H1505 C1517 0.950 . S
H1506 C1514 0.950 . S
H1507 C1516 0.950 . S
H1508 C1518 0.950 . S
H1509 C1520 0.986 . S
H1510 C1522 0.950 . S
H1511 C1523 0.950 . S
C1512 H1504 0.950 . S
C1512 C1513 1.386 . S
C1512 C1514 1.391 . S
C1513 C1512 1.386 . S
C1513 C1517 1.393 . S
C1514 H1506 0.950 . S
C1514 C1512 1.391 . S
C1514 C1515 1.400 . S
C1515 C1514 1.400 . S
C1515 C1516 1.398 . S
C1515 C1521 1.478 1_655 S
C1516 H1507 0.950 . S
C1516 C1515 1.398 . S
C1516 C1517 1.391 . S
C1517 H1505 0.950 . S
C1517 C1513 1.393 . S
C1517 C1516 1.391 . S
C1518 H1508 0.950 . S
C1518 C1519 1.386 . S
C1518 C1520 1.358 1_455 S
C1519 C1518 1.386 . S
C1519 C1523 1.393 . S
C1520 H1509 0.986 . S
C1520 C1518 1.358 1_655 S
C1520 C1521 1.399 1_655 S
C1521 C1515 1.478 1_455 S
C1521 C1520 1.399 1_455 S
C1521 C1522 1.413 . S
C1522 H1510 0.950 . S
C1522 C1521 1.413 . S
C1522 C1523 1.391 . S
C1523 H1511 0.950 . S
C1523 C1519 1.393 . S
C1523 C1522 1.391 . S
H1524 C1532 0.950 . S
H1525 C1537 0.950 . S
H1526 C1534 0.950 . S
H1527 C1536 0.950 . S
H1528 C1538 0.950 . S
H1529 C1540 0.950 . S
H1530 C1542 0.950 . S
H1531 C1543 0.950 . S
C1532 H1524 0.950 . S
C1532 C1533 1.386 . S
C1532 C1534 1.391 . S
C1533 C1532 1.386 . S
C1533 C1537 1.393 . S
C1534 H1526 0.950 . S
C1534 C1532 1.391 . S
C1534 C1535 1.400 . S
C1535 C1534 1.400 . S
C1535 C1536 1.398 . S
C1535 C1541 1.491 . S
C1536 H1527 0.950 . S
C1536 C1535 1.398 . S
C1536 C1537 1.391 . S
C1537 H1525 0.950 . S
C1537 C1533 1.393 . S
C1537 C1536 1.391 . S
C1538 H1528 0.950 . S
C1538 C1539 1.386 . S
C1538 C1540 1.391 . S
C1539 C1538 1.386 . S
C1539 C1543 1.393 . S
C1540 H1529 0.950 . S
C1540 C1538 1.391 . S
C1540 C1541 1.400 . S
C1541 C1535 1.491 . S
C1541 C1540 1.400 . S
C1541 C1542 1.398 . S
C1542 H1530 0.950 . S
C1542 C1541 1.398 . S
C1542 C1543 1.391 . S
C1543 H1531 0.950 . S
C1543 C1539 1.393 . S
C1543 C1542 1.391 . S
H1544 C1552 0.950 . S
H1545 C1557 0.938 1_545 S
H1546 C1554 0.950 . S
H1547 C1556 0.950 . S
H1548 C1558 0.950 . S
H1549 C1560 0.950 . S
H1550 C1562 0.950 . S
H1551 C1563 0.950 . S
C1552 H1544 0.950 . S
C1552 C1553 1.386 . S
C1552 C1554 1.391 . S
C1553 C1552 1.386 . S
C1553 C1557 1.393 . S
C1554 H1546 0.950 . S
C1554 C1552 1.391 . S
C1554 C1555 1.400 . S
C1555 C1554 1.400 . S
C1555 C1556 1.398 . S
C1555 C1561 1.520 . S
C1556 H1547 0.950 . S
C1556 C1555 1.398 . S
C1556 C1557 1.391 . S
C1557 H1545 0.938 1_565 S
C1557 C1553 1.393 . S
C1557 C1556 1.391 . S
C1558 H1548 0.950 . S
C1558 C1559 1.386 . S
C1558 C1560 1.391 . S
C1559 C1558 1.386 . S
C1559 C1563 1.393 . S
C1560 H1549 0.950 . S
C1560 C1558 1.391 . S
C1560 C1561 1.367 1_655 S
C1561 C1555 1.520 . S
C1561 C1560 1.367 1_455 S
C1561 C1562 1.402 . S
C1562 H1550 0.950 . S
C1562 C1561 1.402 . S
C1562 C1563 1.391 1_455 S
C1563 H1551 0.950 . S
C1563 C1559 1.393 . S
C1563 C1562 1.391 1_655 S
H1564 C1572 0.950 . S
H1565 C1577 0.950 . S
H1566 C1574 0.950 . S
H1567 C1576 0.950 . S
H1568 C1578 0.950 . S
H1569 C1580 0.950 . S
H1570 C1582 0.950 . S
H1571 C1583 0.950 . S
C1572 H1564 0.950 . S
C1572 C1573 1.386 . S
C1572 C1574 1.391 . S
C1573 C1572 1.386 . S
C1573 C1577 1.393 . S
C1574 H1566 0.950 . S
C1574 C1572 1.391 . S
C1574 C1575 1.400 . S
C1575 C1574 1.400 . S
C1575 C1576 1.398 . S
C1575 C1581 1.491 . S
C1576 H1567 0.950 . S
C1576 C1575 1.398 . S
C1576 C1577 1.391 . S
C1577 H1565 0.950 . S
C1577 C1573 1.393 . S
C1577 C1576 1.391 . S
C1578 H1568 0.950 . S
C1578 C1579 1.386 . S
C1578 C1580 1.391 . S
C1579 C1578 1.386 . S
C1579 C1583 1.393 . S
C1580 H1569 0.950 . S
C1580 C1578 1.391 . S
C1580 C1581 1.400 . S
C1581 C1575 1.491 . S
C1581 C1580 1.400 . S
C1581 C1582 1.398 . S
C1582 H1570 0.950 . S
C1582 C1581 1.398 . S
C1582 C1583 1.391 . S
C1583 H1571 0.950 . S
C1583 C1579 1.393 . S
C1583 C1582 1.391 . S
H1584 C1592 0.950 . S
H1585 C1597 0.950 . S
H1586 C1594 0.950 . S
H1587 C1596 0.950 . S
H1588 C1598 0.950 . S
H1589 C1600 0.950 . S
H1590 C1602 0.950 . S
H1591 C1603 0.950 . S
C1592 H1584 0.950 . S
C1592 C1593 1.386 . S
C1592 C1594 1.391 . S
C1593 C1592 1.386 . S
C1593 C1597 1.393 . S
C1594 H1586 0.950 . S
C1594 C1592 1.391 . S
C1594 C1595 1.400 . S
C1595 C1594 1.400 . S
C1595 C1596 1.398 . S
C1595 C1601 1.490 . S
C1596 H1587 0.950 . S
C1596 C1595 1.398 . S
C1596 C1597 1.391 . S
C1597 H1585 0.950 . S
C1597 C1593 1.393 . S
C1597 C1596 1.391 . S
C1598 H1588 0.950 . S
C1598 C1599 1.386 . S
C1598 C1600 1.391 1_455 S
C1599 C1598 1.386 . S
C1599 C1603 1.393 . S
C1600 H1589 0.950 . S
C1600 C1598 1.391 1_655 S
C1600 C1601 1.400 . S
C1601 C1595 1.490 . S
C1601 C1600 1.400 . S
C1601 C1602 1.399 1_655 S
C1602 H1590 0.950 . S
C1602 C1601 1.399 1_455 S
C1602 C1603 1.391 . S
C1603 H1591 0.950 . S
C1603 C1599 1.393 . S
C1603 C1602 1.391 . S
H1604 C1612 0.950 . S
H1605 C1617 0.950 . S
H1606 C1614 0.950 . S
H1607 C1616 0.950 . S
H1608 C1618 0.950 . S
H1609 C1620 0.950 . S
H1610 C1622 0.950 . S
H1611 C1623 0.950 . S
C1612 H1604 0.950 . S
C1612 C1613 1.386 . S
C1612 C1614 1.391 . S
C1613 C1612 1.386 . S
C1613 C1617 1.393 . S
C1614 H1606 0.950 . S
C1614 C1612 1.391 . S
C1614 C1615 1.400 . S
C1615 C1614 1.400 . S
C1615 C1616 1.398 . S
C1615 C1621 1.491 . S
C1616 H1607 0.950 . S
C1616 C1615 1.398 . S
C1616 C1617 1.391 . S
C1617 H1605 0.950 . S
C1617 C1613 1.393 . S
C1617 C1616 1.391 . S
C1618 H1608 0.950 . S
C1618 C1619 1.386 . S
C1618 C1620 1.391 . S
C1619 C1618 1.386 . S
C1619 C1623 1.393 . S
C1620 H1609 0.950 . S
C1620 C1618 1.391 . S
C1620 C1621 1.400 . S
C1621 C1615 1.491 . S
C1621 C1620 1.400 . S
C1621 C1622 1.398 . S
C1622 H1610 0.950 . S
C1622 C1621 1.398 . S
C1622 C1623 1.391 . S
C1623 H1611 0.950 . S
C1623 C1619 1.393 . S
C1623 C1622 1.391 . S
H1624 C1632 0.950 . S
H1625 C1637 0.950 . S
H1626 C1634 0.950 . S
H1627 C1636 0.950 . S
H1628 C1638 0.950 . S
H1629 C1640 0.950 . S
H1630 C1642 0.950 . S
H1631 C1643 0.950 . S
C1632 H1624 0.950 . S
C1632 C1633 1.386 . S
C1632 C1634 1.391 . S
C1633 C1632 1.386 . S
C1633 C1637 1.393 . S
C1634 H1626 0.950 . S
C1634 C1632 1.391 . S
C1634 C1635 1.400 . S
C1635 C1634 1.400 . S
C1635 C1636 1.398 . S
C1635 C1641 1.491 . S
C1636 H1627 0.950 . S
C1636 C1635 1.398 . S
C1636 C1637 1.391 . S
C1637 H1625 0.950 . S
C1637 C1633 1.393 . S
C1637 C1636 1.391 . S
C1638 H1628 0.950 . S
C1638 C1639 1.386 . S
C1638 C1640 1.391 . S
C1639 C1638 1.386 . S
C1639 C1643 1.393 . S
C1640 H1629 0.950 . S
C1640 C1638 1.391 . S
C1640 C1641 1.400 . S
C1641 C1635 1.491 . S
C1641 C1640 1.400 . S
C1641 C1642 1.398 . S
C1642 H1630 0.950 . S
C1642 C1641 1.398 . S
C1642 C1643 1.391 . S
C1643 H1631 0.950 . S
C1643 C1639 1.393 . S
C1643 C1642 1.391 . S
H1644 C1652 0.950 . S
H1645 C1657 0.950 . S
H1646 C1654 0.950 . S
H1647 C1656 0.950 . S
H1648 C1658 0.950 . S
H1649 C1660 0.950 . S
H1650 C1662 0.950 . S
H1651 C1663 0.950 . S
C1652 H1644 0.950 . S
C1652 C1653 1.386 . S
C1652 C1654 1.391 . S
C1653 C1652 1.386 . S
C1653 C1657 1.393 . S
C1654 H1646 0.950 . S
C1654 C1652 1.391 . S
C1654 C1655 1.400 . S
C1655 C1654 1.400 . S
C1655 C1656 1.398 . S
C1655 C1661 1.491 . S
C1656 H1647 0.950 . S
C1656 C1655 1.398 . S
C1656 C1657 1.391 . S
C1657 H1645 0.950 . S
C1657 C1653 1.393 . S
C1657 C1656 1.391 . S
C1658 H1648 0.950 . S
C1658 C1659 1.386 . S
C1658 C1660 1.391 . S
C1659 C1658 1.386 . S
C1659 C1663 1.393 . S
C1660 H1649 0.950 . S
C1660 C1658 1.391 . S
C1660 C1661 1.400 1_556 S
C1661 C1655 1.491 . S
C1661 C1660 1.400 1_554 S
C1661 C1662 1.398 . S
C1662 H1650 0.950 . S
C1662 C1661 1.398 . S
C1662 C1663 1.391 1_554 S
C1663 H1651 0.950 . S
C1663 C1659 1.393 . S
C1663 C1662 1.391 1_556 S
H1664 C1672 0.950 . S
H1665 C1677 0.950 . S
H1666 C1674 0.950 . S
H1667 C1676 0.950 . S
H1668 C1678 0.950 . S
H1669 C1680 0.950 . S
H1670 C1682 0.950 . S
H1671 C1683 0.950 . S
C1672 H1664 0.950 . S
C1672 C1673 1.386 . S
C1672 C1674 1.391 . S
C1673 C1672 1.386 . S
C1673 C1677 1.393 . S
C1674 H1666 0.950 . S
C1674 C1672 1.391 . S
C1674 C1675 1.400 . S
C1675 C1674 1.400 . S
C1675 C1676 1.398 . S
C1675 C1681 1.491 . S
C1676 H1667 0.950 . S
C1676 C1675 1.398 . S
C1676 C1677 1.391 . S
C1677 H1665 0.950 . S
C1677 C1673 1.393 . S
C1677 C1676 1.391 . S
C1678 H1668 0.950 . S
C1678 C1679 1.386 . S
C1678 C1680 1.391 . S
C1679 C1678 1.386 . S
C1679 C1683 1.393 . S
C1680 H1669 0.950 . S
C1680 C1678 1.391 . S
C1680 C1681 1.400 . S
C1681 C1675 1.491 . S
C1681 C1680 1.400 . S
C1681 C1682 1.398 . S
C1682 H1670 0.950 . S
C1682 C1681 1.398 . S
C1682 C1683 1.391 . S
C1683 H1671 0.950 . S
C1683 C1679 1.393 . S
C1683 C1682 1.391 . S
H1684 C1692 0.950 . S
H1685 C1697 0.950 . S
H1686 C1694 0.950 . S
H1687 C1696 0.950 . S
H1688 C1698 0.950 . S
H1689 C1700 0.950 . S
H1690 C1702 0.950 . S
H1691 C1703 0.950 . S
C1692 H1684 0.950 . S
C1692 C1693 1.386 . S
C1692 C1694 1.391 . S
C1693 C1692 1.386 . S
C1693 C1697 1.393 . S
C1694 H1686 0.950 . S
C1694 C1692 1.391 . S
C1694 C1695 1.400 . S
C1695 C1694 1.400 . S
C1695 C1696 1.398 . S
C1695 C1701 1.491 . S
C1696 H1687 0.950 . S
C1696 C1695 1.398 . S
C1696 C1697 1.391 . S
C1697 H1685 0.950 . S
C1697 C1693 1.393 . S
C1697 C1696 1.391 . S
C1698 H1688 0.950 . S
C1698 C1699 1.386 . S
C1698 C1700 1.391 . S
C1699 C1698 1.386 . S
C1699 C1703 1.393 . S
C1700 H1689 0.950 . S
C1700 C1698 1.391 . S
C1700 C1701 1.400 . S
C1701 C1695 1.491 . S
C1701 C1700 1.400 . S
C1701 C1702 1.398 . S
C1702 H1690 0.950 . S
C1702 C1701 1.398 . S
C1702 C1703 1.391 . S
C1703 H1691 0.950 . S
C1703 C1699 1.393 . S
C1703 C1702 1.391 . S
H1704 C1712 0.950 . S
H1705 C1717 0.950 . S
H1706 C1714 0.950 . S
H1707 C1716 0.950 . S
H1708 C1718 0.950 . S
H1709 C1720 0.950 . S
H1710 C1722 0.950 . S
H1711 C1723 0.950 . S
C1712 H1704 0.950 . S
C1712 C1713 1.386 . S
C1712 C1714 1.391 . S
C1713 C1712 1.386 . S
C1713 C1717 1.393 . S
C1714 H1706 0.950 . S
C1714 C1712 1.391 . S
C1714 C1715 1.400 . S
C1715 C1714 1.400 . S
C1715 C1716 1.398 . S
C1715 C1721 1.491 . S
C1716 H1707 0.950 . S
C1716 C1715 1.398 . S
C1716 C1717 1.391 . S
C1717 H1705 0.950 . S
C1717 C1713 1.393 . S
C1717 C1716 1.391 . S
C1718 H1708 0.950 . S
C1718 C1719 1.386 . S
C1718 C1720 1.391 . S
C1719 C1718 1.386 . S
C1719 C1723 1.393 . S
C1720 H1709 0.950 . S
C1720 C1718 1.391 . S
C1720 C1721 1.400 . S
C1721 C1715 1.491 . S
C1721 C1720 1.400 . S
C1721 C1722 1.398 . S
C1722 H1710 0.950 . S
C1722 C1721 1.398 . S
C1722 C1723 1.391 . S
C1723 H1711 0.950 . S
C1723 C1719 1.393 . S
C1723 C1722 1.391 . S
H1724 C1732 0.950 . S
H1725 C1737 0.950 . S
H1726 C1734 0.950 . S
H1727 C1736 0.950 . S
H1728 C1738 0.950 . S
H1729 C1740 0.950 . S
H1730 C1742 0.950 . S
H1731 C1743 0.950 . S
C1732 H1724 0.950 . S
C1732 C1733 1.386 . S
C1732 C1734 1.391 . S
C1733 C1732 1.386 . S
C1733 C1737 1.393 . S
C1734 H1726 0.950 . S
C1734 C1732 1.391 . S
C1734 C1735 1.400 . S
C1735 C1734 1.400 . S
C1735 C1736 1.398 . S
C1735 C1741 1.489 . S
C1736 H1727 0.950 . S
C1736 C1735 1.398 . S
C1736 C1737 1.391 . S
C1737 H1725 0.950 . S
C1737 C1733 1.393 . S
C1737 C1736 1.391 . S
C1738 H1728 0.950 . S
C1738 C1739 1.386 . S
C1738 C1740 1.391 . S
C1739 C1738 1.386 . S
C1739 C1743 1.393 . S
C1740 H1729 0.950 . S
C1740 C1738 1.391 . S
C1740 C1741 1.402 1_554 S
C1741 C1735 1.489 . S
C1741 C1740 1.402 1_556 S
C1741 C1742 1.398 . S
C1742 H1730 0.950 . S
C1742 C1741 1.398 . S
C1742 C1743 1.391 1_556 S
C1743 H1731 0.950 . S
C1743 C1739 1.393 . S
C1743 C1742 1.391 1_554 S
H1744 C1752 0.950 . S
H1745 C1757 0.950 . S
H1746 C1754 0.950 . S
H1747 C1756 0.950 . S
H1748 C1758 0.950 . S
H1749 C1760 0.950 . S
H1750 C1762 0.950 . S
H1751 C1763 0.950 . S
C1752 H1744 0.950 . S
C1752 C1753 1.386 . S
C1752 C1754 1.391 . S
C1753 C1752 1.386 . S
C1753 C1757 1.393 . S
C1754 H1746 0.950 . S
C1754 C1752 1.391 . S
C1754 C1755 1.400 . S
C1755 C1754 1.400 . S
C1755 C1756 1.398 . S
C1755 C1761 1.491 . S
C1756 H1747 0.950 . S
C1756 C1755 1.398 . S
C1756 C1757 1.391 . S
C1757 H1745 0.950 . S
C1757 C1753 1.393 . S
C1757 C1756 1.391 . S
C1758 H1748 0.950 . S
C1758 C1759 1.386 . S
C1758 C1760 1.391 . S
C1759 C1758 1.386 . S
C1759 C1763 1.393 . S
C1760 H1749 0.950 . S
C1760 C1758 1.391 . S
C1760 C1761 1.400 . S
C1761 C1755 1.491 . S
C1761 C1760 1.400 . S
C1761 C1762 1.398 . S
C1762 H1750 0.950 . S
C1762 C1761 1.398 . S
C1762 C1763 1.391 . S
C1763 H1751 0.950 . S
C1763 C1759 1.393 . S
C1763 C1762 1.391 . S
H1764 C1772 0.950 . S
H1765 C1777 0.950 . S
H1766 C1774 0.950 . S
H1767 C1776 0.950 . S
H1768 C1778 0.950 . S
H1769 C1780 0.950 . S
H1770 C1782 0.950 . S
H1771 C1783 0.950 . S
C1772 H1764 0.950 . S
C1772 C1773 1.386 . S
C1772 C1774 1.391 . S
C1773 C1772 1.386 . S
C1773 C1777 1.393 . S
C1774 H1766 0.950 . S
C1774 C1772 1.391 . S
C1774 C1775 1.400 . S
C1775 C1774 1.400 . S
C1775 C1776 1.398 . S
C1775 C1781 1.491 . S
C1776 H1767 0.950 . S
C1776 C1775 1.398 . S
C1776 C1777 1.391 . S
C1777 H1765 0.950 . S
C1777 C1773 1.393 . S
C1777 C1776 1.391 . S
C1778 H1768 0.950 . S
C1778 C1779 1.386 . S
C1778 C1780 1.391 . S
C1779 C1778 1.386 . S
C1779 C1783 1.393 . S
C1780 H1769 0.950 . S
C1780 C1778 1.391 . S
C1780 C1781 1.400 . S
C1781 C1775 1.491 . S
C1781 C1780 1.400 . S
C1781 C1782 1.398 . S
C1782 H1770 0.950 . S
C1782 C1781 1.398 . S
C1782 C1783 1.391 . S
C1783 H1771 0.950 . S
C1783 C1779 1.393 . S
C1783 C1782 1.391 . S
H1784 C1792 0.950 . S
H1785 C1797 0.950 . S
H1786 C1794 0.950 . S
H1787 C1796 0.950 . S
H1788 C1798 0.950 . S
H1789 C1800 0.950 . S
H1790 C1802 0.950 . S
H1791 C1803 0.950 . S
C1792 H1784 0.950 . S
C1792 C1793 1.386 . S
C1792 C1794 1.391 . S
C1793 C1792 1.386 . S
C1793 C1797 1.393 . S
C1794 H1786 0.950 . S
C1794 C1792 1.391 . S
C1794 C1795 1.400 . S
C1795 C1794 1.400 . S
C1795 C1796 1.398 . S
C1795 C1801 1.491 . S
C1796 H1787 0.950 . S
C1796 C1795 1.398 . S
C1796 C1797 1.391 . S
C1797 H1785 0.950 . S
C1797 C1793 1.393 . S
C1797 C1796 1.391 . S
C1798 H1788 0.950 . S
C1798 C1799 1.386 . S
C1798 C1800 1.391 . S
C1799 C1798 1.386 . S
C1799 C1803 1.393 . S
C1800 H1789 0.950 . S
C1800 C1798 1.391 . S
C1800 C1801 1.400 . S
C1801 C1795 1.491 . S
C1801 C1800 1.400 . S
C1801 C1802 1.398 . S
C1802 H1790 0.950 . S
C1802 C1801 1.398 . S
C1802 C1803 1.391 . S
C1803 H1791 0.950 . S
C1803 C1799 1.393 . S
C1803 C1802 1.391 . S
H1804 C1812 0.950 . S
H1805 C1817 0.950 . S
H1806 C1814 0.950 . S
H1807 C1816 0.950 . S
H1808 C1818 0.950 . S
H1809 C1820 0.950 . S
H1810 C1822 0.950 . S
H1811 C1823 0.950 . S
C1812 H1804 0.950 . S
C1812 C1813 1.386 . S
C1812 C1814 1.391 . S
C1813 C1812 1.386 . S
C1813 C1817 1.393 . S
C1814 H1806 0.950 . S
C1814 C1812 1.391 . S
C1814 C1815 1.400 . S
C1815 C1814 1.400 . S
C1815 C1816 1.398 . S
C1815 C1821 1.491 . S
C1816 H1807 0.950 . S
C1816 C1815 1.398 . S
C1816 C1817 1.391 . S
C1817 H1805 0.950 . S
C1817 C1813 1.393 . S
C1817 C1816 1.391 . S
C1818 H1808 0.950 . S
C1818 C1819 1.386 . S
C1818 C1820 1.391 . S
C1819 C1818 1.386 . S
C1819 C1823 1.393 . S
C1820 H1809 0.950 . S
C1820 C1818 1.391 . S
C1820 C1821 1.400 . S
C1821 C1815 1.491 . S
C1821 C1820 1.400 . S
C1821 C1822 1.398 . S
C1822 H1810 0.950 . S
C1822 C1821 1.398 . S
C1822 C1823 1.391 . S
C1823 H1811 0.950 . S
C1823 C1819 1.393 . S
C1823 C1822 1.391 . S
H1824 C1832 0.950 . S
H1825 C1837 0.950 . S
H1826 C1834 0.950 . S
H1827 C1836 0.950 . S
H1828 C1838 0.950 . S
H1829 C1840 0.950 . S
H1830 C1842 0.950 . S
H1831 C1843 0.950 . S
C1832 H1824 0.950 . S
C1832 C1833 1.386 . S
C1832 C1834 1.391 . S
C1833 C1832 1.386 . S
C1833 C1837 1.393 . S
C1834 H1826 0.950 . S
C1834 C1832 1.391 . S
C1834 C1835 1.400 . S
C1835 C1834 1.400 . S
C1835 C1836 1.398 . S
C1835 C1841 1.491 . S
C1836 H1827 0.950 . S
C1836 C1835 1.398 . S
C1836 C1837 1.391 . S
C1837 H1825 0.950 . S
C1837 C1833 1.393 . S
C1837 C1836 1.391 . S
C1838 H1828 0.950 . S
C1838 C1839 1.386 . S
C1838 C1840 1.391 . S
C1839 C1838 1.386 . S
C1839 C1843 1.393 . S
C1840 H1829 0.950 . S
C1840 C1838 1.391 . S
C1840 C1841 1.400 . S
C1841 C1835 1.491 . S
C1841 C1840 1.400 . S
C1841 C1842 1.398 . S
C1842 H1830 0.950 . S
C1842 C1841 1.398 . S
C1842 C1843 1.391 . S
C1843 H1831 0.950 . S
C1843 C1839 1.393 . S
C1843 C1842 1.391 . S
H1844 C1852 0.950 . S
H1845 C1857 0.950 . S
H1846 C1854 0.950 . S
H1847 C1856 0.950 . S
H1848 C1858 0.950 . S
H1849 C1860 0.950 . S
H1850 C1862 0.950 . S
H1851 C1863 0.950 . S
C1852 H1844 0.950 . S
C1852 C1853 1.386 . S
C1852 C1854 1.391 . S
C1853 C1852 1.386 . S
C1853 C1857 1.393 . S
C1854 H1846 0.950 . S
C1854 C1852 1.391 . S
C1854 C1855 1.400 . S
C1855 C1854 1.400 . S
C1855 C1856 1.398 . S
C1855 C1861 1.491 . S
C1856 H1847 0.950 . S
C1856 C1855 1.398 . S
C1856 C1857 1.391 . S
C1857 H1845 0.950 . S
C1857 C1853 1.393 . S
C1857 C1856 1.391 . S
C1858 H1848 0.950 . S
C1858 C1859 1.386 . S
C1858 C1860 1.391 . S
C1859 C1858 1.386 . S
C1859 C1863 1.393 . S
C1860 H1849 0.950 . S
C1860 C1858 1.391 . S
C1860 C1861 1.400 . S
C1861 C1855 1.491 . S
C1861 C1860 1.400 . S
C1861 C1862 1.398 . S
C1862 H1850 0.950 . S
C1862 C1861 1.398 . S
C1862 C1863 1.391 . S
C1863 H1851 0.950 . S
C1863 C1859 1.393 . S
C1863 C1862 1.391 . S
H1864 C1872 0.950 . S
H1865 C1877 0.950 . S
H1866 C1874 0.950 . S
H1867 C1876 0.950 . S
H1868 C1878 0.950 . S
H1869 C1880 0.950 . S
H1870 C1882 0.950 . S
H1871 C1883 0.950 . S
C1872 H1864 0.950 . S
C1872 C1873 1.386 . S
C1872 C1874 1.391 . S
C1873 C1872 1.386 . S
C1873 C1877 1.393 . S
C1874 H1866 0.950 . S
C1874 C1872 1.391 . S
C1874 C1875 1.400 . S
C1875 C1874 1.400 . S
C1875 C1876 1.398 . S
C1875 C1881 1.491 . S
C1876 H1867 0.950 . S
C1876 C1875 1.398 . S
C1876 C1877 1.391 . S
C1877 H1865 0.950 . S
C1877 C1873 1.393 . S
C1877 C1876 1.391 . S
C1878 H1868 0.950 . S
C1878 C1879 1.386 . S
C1878 C1880 1.391 . S
C1879 C1878 1.386 . S
C1879 C1883 1.393 . S
C1880 H1869 0.950 . S
C1880 C1878 1.391 . S
C1880 C1881 1.400 . S
C1881 C1875 1.491 . S
C1881 C1880 1.400 . S
C1881 C1882 1.398 . S
C1882 H1870 0.950 . S
C1882 C1881 1.398 . S
C1882 C1883 1.391 . S
C1883 H1871 0.950 . S
C1883 C1879 1.393 . S
C1883 C1882 1.391 . S
H1884 C1892 0.950 . S
H1885 C1897 0.950 . S
H1886 C1894 0.950 . S
H1887 C1896 0.950 . S
H1888 C1898 0.950 . S
H1889 C1900 0.950 . S
H1890 C1902 0.950 . S
H1891 C1903 0.950 . S
C1892 H1884 0.950 . S
C1892 C1893 1.386 . S
C1892 C1894 1.391 . S
C1893 C1892 1.386 . S
C1893 C1897 1.393 . S
C1894 H1886 0.950 . S
C1894 C1892 1.391 . S
C1894 C1895 1.400 . S
C1895 C1894 1.400 . S
C1895 C1896 1.398 . S
C1895 C1901 1.491 . S
C1896 H1887 0.950 . S
C1896 C1895 1.398 . S
C1896 C1897 1.391 . S
C1897 H1885 0.950 . S
C1897 C1893 1.393 . S
C1897 C1896 1.391 . S
C1898 H1888 0.950 . S
C1898 C1899 1.386 . S
C1898 C1900 1.391 . S
C1899 C1898 1.386 . S
C1899 C1903 1.393 . S
C1900 H1889 0.950 . S
C1900 C1898 1.391 . S
C1900 C1901 1.400 . S
C1901 C1895 1.491 . S
C1901 C1900 1.400 . S
C1901 C1902 1.398 . S
C1902 H1890 0.950 . S
C1902 C1901 1.398 . S
C1902 C1903 1.391 . S
C1903 H1891 0.950 . S
C1903 C1899 1.393 . S
C1903 C1902 1.391 . S
H1904 C1912 0.950 . S
H1905 C1917 0.950 . S
H1906 C1914 0.950 . S
H1907 C1916 0.950 . S
H1908 C1918 0.950 . S
H1909 C1920 0.950 . S
H1910 C1922 0.950 . S
H1911 C1923 0.950 . S
C1912 H1904 0.950 . S
C1912 C1913 1.386 . S
C1912 C1914 1.391 . S
C1913 C1912 1.386 . S
C1913 C1917 1.393 . S
C1914 H1906 0.950 . S
C1914 C1912 1.391 . S
C1914 C1915 1.400 . S
C1915 C1914 1.400 . S
C1915 C1916 1.398 . S
C1915 C1921 1.491 . S
C1916 H1907 0.950 . S
C1916 C1915 1.398 . S
C1916 C1917 1.391 . S
C1917 H1905 0.950 . S
C1917 C1913 1.393 . S
C1917 C1916 1.391 . S
C1918 H1908 0.950 . S
C1918 C1919 1.386 . S
C1918 C1920 1.391 . S
C1919 C1918 1.386 . S
C1919 C1923 1.393 . S
C1920 H1909 0.950 . S
C1920 C1918 1.391 . S
C1920 C1921 1.400 . S
C1921 C1915 1.491 . S
C1921 C1920 1.400 . S
C1921 C1922 1.398 . S
C1922 H1910 0.950 . S
C1922 C1921 1.398 . S
C1922 C1923 1.391 . S
C1923 H1911 0.950 . S
C1923 C1919 1.393 . S
C1923 C1922 1.391 . S
H1924 C1932 0.950 . S
H1925 C1937 0.950 . S
H1926 C1934 0.950 . S
H1927 C1936 0.950 . S
H1928 C1938 0.950 . S
H1929 C1940 0.950 . S
H1930 C1942 0.950 . S
H1931 C1943 0.950 . S
C1932 H1924 0.950 . S
C1932 C1933 1.386 . S
C1932 C1934 1.391 . S
C1933 C1932 1.386 . S
C1933 C1937 1.393 . S
C1934 H1926 0.950 . S
C1934 C1932 1.391 . S
C1934 C1935 1.400 . S
C1935 C1934 1.400 . S
C1935 C1936 1.398 . S
C1935 C1941 1.491 . S
C1936 H1927 0.950 . S
C1936 C1935 1.398 . S
C1936 C1937 1.391 . S
C1937 H1925 0.950 . S
C1937 C1933 1.393 . S
C1937 C1936 1.391 . S
C1938 H1928 0.950 . S
C1938 C1939 1.386 . S
C1938 C1940 1.391 . S
C1939 C1938 1.386 . S
C1939 C1943 1.393 . S
C1940 H1929 0.950 . S
C1940 C1938 1.391 . S
C1940 C1941 1.400 . S
C1941 C1935 1.491 . S
C1941 C1940 1.400 . S
C1941 C1942 1.398 . S
C1942 H1930 0.950 . S
C1942 C1941 1.398 . S
C1942 C1943 1.391 . S
C1943 H1931 0.950 . S
C1943 C1939 1.393 . S
C1943 C1942 1.391 . S
H1944 C1952 0.950 . S
H1945 C1957 0.950 . S
H1946 C1954 0.950 . S
H1947 C1956 0.950 . S
H1948 C1958 0.950 . S
H1949 C1960 0.950 . S
H1950 C1962 0.950 . S
H1951 C1963 0.950 . S
C1952 H1944 0.950 . S
C1952 C1953 1.386 . S
C1952 C1954 1.391 . S
C1953 C1952 1.386 . S
C1953 C1957 1.393 . S
C1954 H1946 0.950 . S
C1954 C1952 1.391 . S
C1954 C1955 1.400 . S
C1955 C1954 1.400 . S
C1955 C1956 1.398 . S
C1955 C1961 1.491 . S
C1956 H1947 0.950 . S
C1956 C1955 1.398 . S
C1956 C1957 1.391 . S
C1957 H1945 0.950 . S
C1957 C1953 1.393 . S
C1957 C1956 1.391 . S
C1958 H1948 0.950 . S
C1958 C1959 1.386 . S
C1958 C1960 1.391 . S
C1959 C1958 1.386 . S
C1959 C1963 1.393 . S
C1960 H1949 0.950 . S
C1960 C1958 1.391 . S
C1960 C1961 1.400 . S
C1961 C1955 1.491 . S
C1961 C1960 1.400 . S
C1961 C1962 1.398 . S
C1962 H1950 0.950 . S
C1962 C1961 1.398 . S
C1962 C1963 1.391 . S
C1963 H1951 0.950 . S
C1963 C1959 1.393 . S
C1963 C1962 1.391 . S
H1964 C1972 0.950 . S
H1965 C1977 0.950 . S
H1966 C1974 0.950 . S
H1967 C1976 0.950 . S
H1968 C1978 0.950 . S
H1969 C1980 0.950 . S
H1970 C1982 0.950 . S
H1971 C1983 0.950 . S
C1972 H1964 0.950 . S
C1972 C1973 1.386 . S
C1972 C1974 1.391 . S
C1973 C1972 1.386 . S
C1973 C1977 1.393 . S
C1974 H1966 0.950 . S
C1974 C1972 1.391 . S
C1974 C1975 1.400 . S
C1975 C1974 1.400 . S
C1975 C1976 1.398 . S
C1975 C1981 1.491 . S
C1976 H1967 0.950 . S
C1976 C1975 1.398 . S
C1976 C1977 1.391 . S
C1977 H1965 0.950 . S
C1977 C1973 1.393 . S
C1977 C1976 1.391 . S
C1978 H1968 0.950 . S
C1978 C1979 1.386 . S
C1978 C1980 1.391 . S
C1979 C1978 1.386 . S
C1979 C1983 1.393 . S
C1980 H1969 0.950 . S
C1980 C1978 1.391 . S
C1980 C1981 1.400 . S
C1981 C1975 1.491 . S
C1981 C1980 1.400 . S
C1981 C1982 1.398 . S
C1982 H1970 0.950 . S
C1982 C1981 1.398 . S
C1982 C1983 1.391 . S
C1983 H1971 0.950 . S
C1983 C1979 1.393 . S
C1983 C1982 1.391 . S
H1984 C1992 0.950 . S
H1985 C1997 0.950 . S
H1986 C1994 0.950 . S
H1987 C1996 0.950 . S
H1988 C1998 0.950 . S
H1989 C2000 0.950 . S
H1990 C2002 0.950 . S
H1991 C2003 0.950 . S
C1992 H1984 0.950 . S
C1992 C1993 1.386 . S
C1992 C1994 1.391 . S
C1993 C1992 1.386 . S
C1993 C1997 1.393 . S
C1994 H1986 0.950 . S
C1994 C1992 1.391 . S
C1994 C1995 1.400 . S
C1995 C1994 1.400 . S
C1995 C1996 1.398 . S
C1995 C2001 1.491 . S
C1996 H1987 0.950 . S
C1996 C1995 1.398 . S
C1996 C1997 1.391 . S
C1997 H1985 0.950 . S
C1997 C1993 1.393 . S
C1997 C1996 1.391 . S
C1998 H1988 0.950 . S
C1998 C1999 1.386 . S
C1998 C2000 1.391 . S
C1999 C1998 1.386 . S
C1999 C2003 1.393 . S
C2000 H1989 0.950 . S
C2000 C1998 1.391 . S
C2000 C2001 1.400 . S
C2001 C1995 1.491 . S
C2001 C2000 1.400 . S
C2001 C2002 1.398 . S
C2002 H1990 0.950 . S
C2002 C2001 1.398 . S
C2002 C2003 1.391 . S
C2003 H1991 0.950 . S
C2003 C1999 1.393 . S
C2003 C2002 1.391 . S
H2004 C2012 0.950 . S
H2005 C2017 0.910 1_554 S
H2006 C2014 0.950 . S
H2007 C2016 0.950 . S
H2008 C2018 0.950 . S
H2009 C2020 0.950 . S
H2010 C2022 0.950 . S
H2011 C2023 0.950 . S
C2012 H2004 0.950 . S
C2012 C2013 1.386 . S
C2012 C2014 1.391 . S
C2013 C2012 1.386 . S
C2013 C2017 1.393 . S
C2014 H2006 0.950 . S
C2014 C2012 1.391 . S
C2014 C2015 1.400 . S
C2015 C2014 1.400 . S
C2015 C2016 1.398 . S
C2015 C2021 1.491 . S
C2016 H2007 0.950 . S
C2016 C2015 1.398 . S
C2016 C2017 1.391 . S
C2017 H2005 0.910 1_556 S
C2017 C2013 1.393 . S
C2017 C2016 1.391 . S
C2018 H2008 0.950 . S
C2018 C2019 1.386 . S
C2018 C2020 1.391 . S
C2019 C2018 1.386 . S
C2019 C2023 1.393 . S
C2020 H2009 0.950 . S
C2020 C2018 1.391 . S
C2020 C2021 1.400 . S
C2021 C2015 1.491 . S
C2021 C2020 1.400 . S
C2021 C2022 1.398 . S
C2022 H2010 0.950 . S
C2022 C2021 1.398 . S
C2022 C2023 1.391 . S
C2023 H2011 0.950 . S
C2023 C2019 1.393 . S
C2023 C2022 1.391 . S
H2024 C2032 0.950 . S
H2025 C2037 0.950 . S
H2026 C2034 0.950 . S
H2027 C2036 0.950 . S
H2028 C2038 0.950 . S
H2029 C2040 0.950 . S
H2030 C2042 0.950 . S
H2031 C2043 0.950 . S
C2032 H2024 0.950 . S
C2032 C2033 1.386 . S
C2032 C2034 1.391 . S
C2033 C2032 1.386 . S
C2033 C2037 1.393 . S
C2034 H2026 0.950 . S
C2034 C2032 1.391 . S
C2034 C2035 1.400 . S
C2035 C2034 1.400 . S
C2035 C2036 1.398 . S
C2035 C2041 1.491 . S
C2036 H2027 0.950 . S
C2036 C2035 1.398 . S
C2036 C2037 1.391 . S
C2037 H2025 0.950 . S
C2037 C2033 1.393 . S
C2037 C2036 1.391 . S
C2038 H2028 0.950 . S
C2038 C2039 1.386 . S
C2038 C2040 1.391 . S
C2039 C2038 1.386 . S
C2039 C2043 1.393 . S
C2040 H2029 0.950 . S
C2040 C2038 1.391 . S
C2040 C2041 1.400 . S
C2041 C2035 1.491 . S
C2041 C2040 1.400 . S
C2041 C2042 1.398 . S
C2042 H2030 0.950 . S
C2042 C2041 1.398 . S
C2042 C2043 1.391 . S
C2043 H2031 0.950 . S
C2043 C2039 1.393 . S
C2043 C2042 1.391 . S
H2044 C2052 0.950 . S
H2045 C2057 0.950 . S
H2046 C2054 0.950 . S
H2047 C2056 0.950 . S
H2048 C2058 0.950 . S
H2049 C2060 0.950 . S
H2050 C2062 0.950 . S
H2051 C2063 0.950 . S
C2052 H2044 0.950 . S
C2052 C2053 1.386 . S
C2052 C2054 1.391 . S
C2053 C2052 1.386 . S
C2053 C2057 1.393 . S
C2054 H2046 0.950 . S
C2054 C2052 1.391 . S
C2054 C2055 1.400 . S
C2055 C2054 1.400 . S
C2055 C2056 1.398 . S
C2055 C2061 1.491 . S
C2056 H2047 0.950 . S
C2056 C2055 1.398 . S
C2056 C2057 1.391 . S
C2057 H2045 0.950 . S
C2057 C2053 1.393 . S
C2057 C2056 1.391 . S
C2058 H2048 0.950 . S
C2058 C2059 1.386 . S
C2058 C2060 1.391 . S
C2059 C2058 1.386 . S
C2059 C2063 1.393 . S
C2060 H2049 0.950 . S
C2060 C2058 1.391 . S
C2060 C2061 1.400 . S
C2061 C2055 1.491 . S
C2061 C2060 1.400 . S
C2061 C2062 1.398 . S
C2062 H2050 0.950 . S
C2062 C2061 1.398 . S
C2062 C2063 1.391 . S
C2063 H2051 0.950 . S
C2063 C2059 1.393 . S
C2063 C2062 1.391 . S
H2064 C2072 0.950 . S
H2065 C2077 0.950 . S
H2066 C2074 0.950 . S
H2067 C2076 0.950 . S
H2068 C2078 0.950 . S
H2069 C2080 0.950 . S
H2070 C2082 0.950 . S
H2071 C2083 0.950 . S
C2072 H2064 0.950 . S
C2072 C2073 1.386 . S
C2072 C2074 1.391 . S
C2073 C2072 1.386 . S
C2073 C2077 1.393 . S
C2074 H2066 0.950 . S
C2074 C2072 1.391 . S
C2074 C2075 1.400 . S
C2075 C2074 1.400 . S
C2075 C2076 1.398 . S
C2075 C2081 1.491 . S
C2076 H2067 0.950 . S
C2076 C2075 1.398 . S
C2076 C2077 1.391 . S
C2077 H2065 0.950 . S
C2077 C2073 1.393 . S
C2077 C2076 1.391 . S
C2078 H2068 0.950 . S
C2078 C2079 1.386 . S
C2078 C2080 1.391 . S
C2079 C2078 1.386 . S
C2079 C2083 1.393 . S
C2080 H2069 0.950 . S
C2080 C2078 1.391 . S
C2080 C2081 1.400 . S
C2081 C2075 1.491 . S
C2081 C2080 1.400 . S
C2081 C2082 1.398 . S
C2082 H2070 0.950 . S
C2082 C2081 1.398 . S
C2082 C2083 1.391 . S
C2083 H2071 0.950 . S
C2083 C2079 1.393 . S
C2083 C2082 1.391 . S
H2084 C2092 0.950 . S
H2085 C2097 0.950 . S
H2086 C2094 0.950 . S
H2087 C2096 0.950 . S
H2088 C2098 0.950 . S
H2089 C2100 0.950 . S
H2090 C2102 0.965 . S
H2091 C2103 0.950 . S
C2092 H2084 0.950 . S
C2092 C2093 1.386 . S
C2092 C2094 1.391 . S
C2093 C2092 1.386 . S
C2093 C2097 1.393 . S
C2094 H2086 0.950 . S
C2094 C2092 1.391 . S
C2094 C2095 1.400 . S
C2095 C2094 1.400 . S
C2095 C2096 1.398 . S
C2095 C2101 1.484 1_655 S
C2096 H2087 0.950 . S
C2096 C2095 1.398 . S
C2096 C2097 1.391 . S
C2097 H2085 0.950 . S
C2097 C2093 1.393 . S
C2097 C2096 1.391 . S
C2098 H2088 0.950 . S
C2098 C2099 1.386 . S
C2098 C2100 1.391 . S
C2099 C2098 1.386 . S
C2099 C2103 1.393 . S
C2100 H2089 0.950 . S
C2100 C2098 1.391 . S
C2100 C2101 1.405 . S
C2101 C2095 1.484 1_455 S
C2101 C2100 1.405 . S
C2101 C2102 1.401 . S
C2102 H2090 0.965 . S
C2102 C2101 1.401 . S
C2102 C2103 1.391 . S
C2103 H2091 0.950 . S
C2103 C2099 1.393 . S
C2103 C2102 1.391 . S
H2104 C2112 0.950 . S
H2105 C2117 0.950 . S
H2106 C2114 0.950 . S
H2107 C2116 0.950 . S
H2108 C2118 0.950 . S
H2109 C2120 0.950 . S
H2110 C2122 0.950 . S
H2111 C2123 0.950 . S
C2112 H2104 0.950 . S
C2112 C2113 1.386 . S
C2112 C2114 1.391 . S
C2113 C2112 1.386 . S
C2113 C2117 1.393 . S
C2114 H2106 0.950 . S
C2114 C2112 1.391 . S
C2114 C2115 1.400 . S
C2115 C2114 1.400 . S
C2115 C2116 1.398 . S
C2115 C2121 1.491 . S
C2116 H2107 0.950 . S
C2116 C2115 1.398 . S
C2116 C2117 1.391 . S
C2117 H2105 0.950 . S
C2117 C2113 1.393 . S
C2117 C2116 1.391 . S
C2118 H2108 0.950 . S
C2118 C2119 1.386 . S
C2118 C2120 1.391 . S
C2119 C2118 1.386 . S
C2119 C2123 1.393 . S
C2120 H2109 0.950 . S
C2120 C2118 1.391 . S
C2120 C2121 1.400 . S
C2121 C2115 1.491 . S
C2121 C2120 1.400 . S
C2121 C2122 1.398 . S
C2122 H2110 0.950 . S
C2122 C2121 1.398 . S
C2122 C2123 1.391 . S
C2123 H2111 0.950 . S
C2123 C2119 1.393 . S
C2123 C2122 1.391 . S
H2124 C2132 0.950 . S
H2125 C2137 0.950 . S
H2126 C2134 0.950 . S
H2127 C2136 0.950 . S
H2128 C2138 0.950 . S
H2129 C2140 0.950 . S
H2130 C2142 0.950 1_556 S
H2131 C2143 0.950 . S
C2132 H2124 0.950 . S
C2132 C2133 1.386 . S
C2132 C2134 1.391 . S
C2133 C2132 1.386 . S
C2133 C2137 1.393 . S
C2134 H2126 0.950 . S
C2134 C2132 1.391 . S
C2134 C2135 1.400 . S
C2135 C2134 1.400 . S
C2135 C2136 1.398 . S
C2135 C2141 1.494 1_556 S
C2136 H2127 0.950 . S
C2136 C2135 1.398 . S
C2136 C2137 1.391 . S
C2137 H2125 0.950 . S
C2137 C2133 1.393 . S
C2137 C2136 1.391 . S
C2138 H2128 0.950 . S
C2138 C2139 1.386 . S
C2138 C2140 1.391 . S
C2139 C2138 1.386 . S
C2139 C2143 1.393 . S
C2140 H2129 0.950 . S
C2140 C2138 1.391 . S
C2140 C2141 1.397 . S
C2141 C2135 1.494 1_554 S
C2141 C2140 1.397 . S
C2141 C2142 1.398 . S
C2142 H2130 0.950 1_554 S
C2142 C2141 1.398 . S
C2142 C2143 1.391 . S
C2143 H2131 0.950 . S
C2143 C2139 1.393 . S
C2143 C2142 1.391 . S
H2144 C2152 0.950 . S
H2145 C2157 0.950 . S
H2146 C2154 0.950 . S
H2147 C2156 0.950 . S
H2148 C2158 0.950 . S
H2149 C2160 0.950 . S
H2150 C2162 0.950 . S
H2151 C2163 0.950 . S
C2152 H2144 0.950 . S
C2152 C2153 1.386 . S
C2152 C2154 1.391 . S
C2153 C2152 1.386 . S
C2153 C2157 1.393 . S
C2154 H2146 0.950 . S
C2154 C2152 1.391 . S
C2154 C2155 1.400 . S
C2155 C2154 1.400 . S
C2155 C2156 1.398 . S
C2155 C2161 1.491 . S
C2156 H2147 0.950 . S
C2156 C2155 1.398 . S
C2156 C2157 1.391 . S
C2157 H2145 0.950 . S
C2157 C2153 1.393 . S
C2157 C2156 1.391 . S
C2158 H2148 0.950 . S
C2158 C2159 1.386 . S
C2158 C2160 1.391 . S
C2159 C2158 1.386 . S
C2159 C2163 1.393 . S
C2160 H2149 0.950 . S
C2160 C2158 1.391 . S
C2160 C2161 1.400 . S
C2161 C2155 1.491 . S
C2161 C2160 1.400 . S
C2161 C2162 1.398 . S
C2162 H2150 0.950 . S
C2162 C2161 1.398 . S
C2162 C2163 1.391 . S
C2163 H2151 0.950 . S
C2163 C2159 1.393 . S
C2163 C2162 1.391 . S
H2164 C2172 0.950 . S
H2165 C2177 0.923 1_655 S
H2166 C2174 0.950 . S
H2167 C2176 0.950 . S
H2168 C2178 0.950 . S
H2169 C2180 0.950 . S
H2170 C2182 0.950 . S
H2171 C2183 0.950 . S
C2172 H2164 0.950 . S
C2172 C2173 1.386 . S
C2172 C2174 1.391 . S
C2173 C2172 1.386 . S
C2173 C2177 1.393 . S
C2174 H2166 0.950 . S
C2174 C2172 1.391 . S
C2174 C2175 1.400 . S
C2175 C2174 1.400 . S
C2175 C2176 1.398 . S
C2175 C2181 1.491 . S
C2176 H2167 0.950 . S
C2176 C2175 1.398 . S
C2176 C2177 1.391 . S
C2177 H2165 0.923 1_455 S
C2177 C2173 1.393 . S
C2177 C2176 1.391 . S
C2178 H2168 0.950 . S
C2178 C2179 1.386 . S
C2178 C2180 1.391 . S
C2179 C2178 1.386 . S
C2179 C2183 1.393 . S
C2180 H2169 0.950 . S
C2180 C2178 1.391 . S
C2180 C2181 1.400 . S
C2181 C2175 1.491 . S
C2181 C2180 1.400 . S
C2181 C2182 1.398 . S
C2182 H2170 0.950 . S
C2182 C2181 1.398 . S
C2182 C2183 1.391 . S
C2183 H2171 0.950 . S
C2183 C2179 1.393 . S
C2183 C2182 1.391 . S
H2184 C2192 0.950 . S
H2185 C2197 0.950 . S
H2186 C2194 0.950 . S
H2187 C2196 0.950 . S
H2188 C2198 0.950 . S
H2189 C2200 0.950 . S
H2190 C2202 0.950 . S
H2191 C2203 0.950 . S
C2192 H2184 0.950 . S
C2192 C2193 1.386 . S
C2192 C2194 1.391 . S
C2193 C2192 1.386 . S
C2193 C2197 1.393 . S
C2194 H2186 0.950 . S
C2194 C2192 1.391 . S
C2194 C2195 1.400 . S
C2195 C2194 1.400 . S
C2195 C2196 1.398 . S
C2195 C2201 1.491 . S
C2196 H2187 0.950 . S
C2196 C2195 1.398 . S
C2196 C2197 1.391 . S
C2197 H2185 0.950 . S
C2197 C2193 1.393 . S
C2197 C2196 1.391 . S
C2198 H2188 0.950 . S
C2198 C2199 1.386 . S
C2198 C2200 1.391 . S
C2199 C2198 1.386 . S
C2199 C2203 1.393 . S
C2200 H2189 0.950 . S
C2200 C2198 1.391 . S
C2200 C2201 1.400 . S
C2201 C2195 1.491 . S
C2201 C2200 1.400 . S
C2201 C2202 1.398 . S
C2202 H2190 0.950 . S
C2202 C2201 1.398 . S
C2202 C2203 1.391 . S
C2203 H2191 0.950 . S
C2203 C2199 1.393 . S
C2203 C2202 1.391 . S
H2204 C2212 0.950 1_655 S
H2205 C2217 0.950 . S
H2206 C2214 0.950 . S
H2207 C2216 0.950 . S
H2208 C2218 0.950 . S
H2209 C2220 0.950 1_554 S
H2210 C2222 0.950 . S
H2211 C2223 0.950 . S
C2212 H2204 0.950 1_455 S
C2212 C2213 1.386 . S
C2212 C2214 1.391 . S
C2213 C2212 1.386 . S
C2213 C2217 1.393 . S
C2214 H2206 0.950 . S
C2214 C2212 1.391 . S
C2214 C2215 1.400 . S
C2215 C2214 1.400 . S
C2215 C2216 1.398 . S
C2215 C2221 1.491 . S
C2216 H2207 0.950 . S
C2216 C2215 1.398 . S
C2216 C2217 1.391 . S
C2217 H2205 0.950 . S
C2217 C2213 1.393 . S
C2217 C2216 1.391 . S
C2218 H2208 0.950 . S
C2218 C2219 1.386 . S
C2218 C2220 1.391 . S
C2219 C2218 1.386 . S
C2219 C2223 1.393 . S
C2220 H2209 0.950 1_556 S
C2220 C2218 1.391 . S
C2220 C2221 1.400 1_556 S
C2221 C2215 1.491 . S
C2221 C2220 1.400 1_554 S
C2221 C2222 1.398 1_554 S
C2222 H2210 0.950 . S
C2222 C2221 1.398 1_556 S
C2222 C2223 1.391 . S
C2223 H2211 0.950 . S
C2223 C2219 1.393 . S
C2223 C2222 1.391 . S
H2224 C2232 0.950 . S
H2225 C2237 0.950 . S
H2226 C2234 0.950 . S
H2227 C2236 0.950 . S
H2228 C2238 0.950 . S
H2229 C2240 0.950 . S
H2230 C2242 0.950 . S
H2231 C2243 0.950 . S
C2232 H2224 0.950 . S
C2232 C2233 1.386 . S
C2232 C2234 1.391 . S
C2233 C2232 1.386 . S
C2233 C2237 1.393 . S
C2234 H2226 0.950 . S
C2234 C2232 1.391 . S
C2234 C2235 1.400 . S
C2235 C2234 1.400 . S
C2235 C2236 1.398 . S
C2235 C2241 1.491 . S
C2236 H2227 0.950 . S
C2236 C2235 1.398 . S
C2236 C2237 1.391 . S
C2237 H2225 0.950 . S
C2237 C2233 1.393 . S
C2237 C2236 1.391 . S
C2238 H2228 0.950 . S
C2238 C2239 1.386 . S
C2238 C2240 1.391 . S
C2239 C2238 1.386 . S
C2239 C2243 1.393 . S
C2240 H2229 0.950 . S
C2240 C2238 1.391 . S
C2240 C2241 1.400 . S
C2241 C2235 1.491 . S
C2241 C2240 1.400 . S
C2241 C2242 1.398 . S
C2242 H2230 0.950 . S
C2242 C2241 1.398 . S
C2242 C2243 1.391 . S
C2243 H2231 0.950 . S
C2243 C2239 1.393 . S
C2243 C2242 1.391 . S
H2244 C2252 0.950 . S
H2245 C2257 0.950 . S
H2246 C2254 0.950 . S
H2247 C2256 0.950 . S
H2248 C2258 0.950 . S
H2249 C2260 0.950 . S
H2250 C2262 0.950 . S
H2251 C2263 0.950 . S
C2252 H2244 0.950 . S
C2252 C2253 1.386 . S
C2252 C2254 1.391 . S
C2253 C2252 1.386 . S
C2253 C2257 1.393 . S
C2254 H2246 0.950 . S
C2254 C2252 1.391 . S
C2254 C2255 1.400 . S
C2255 C2254 1.400 . S
C2255 C2256 1.398 . S
C2255 C2261 1.491 . S
C2256 H2247 0.950 . S
C2256 C2255 1.398 . S
C2256 C2257 1.391 . S
C2257 H2245 0.950 . S
C2257 C2253 1.393 . S
C2257 C2256 1.391 . S
C2258 H2248 0.950 . S
C2258 C2259 1.386 . S
C2258 C2260 1.391 . S
C2259 C2258 1.386 . S
C2259 C2263 1.393 . S
C2260 H2249 0.950 . S
C2260 C2258 1.391 . S
C2260 C2261 1.400 . S
C2261 C2255 1.491 . S
C2261 C2260 1.400 . S
C2261 C2262 1.398 . S
C2262 H2250 0.950 . S
C2262 C2261 1.398 . S
C2262 C2263 1.391 . S
C2263 H2251 0.950 . S
C2263 C2259 1.393 . S
C2263 C2262 1.391 . S
H2264 C2272 0.950 . S
H2265 C2277 0.950 . S
H2266 C2274 0.950 . S
H2267 C2276 0.950 . S
H2268 C2278 0.950 . S
H2269 C2280 0.950 . S
H2270 C2282 0.950 . S
H2271 C2283 0.950 . S
C2272 H2264 0.950 . S
C2272 C2273 1.386 . S
C2272 C2274 1.391 . S
C2273 C2272 1.386 . S
C2273 C2277 1.393 . S
C2274 H2266 0.950 . S
C2274 C2272 1.391 . S
C2274 C2275 1.400 . S
C2275 C2274 1.400 . S
C2275 C2276 1.398 . S
C2275 C2281 1.491 . S
C2276 H2267 0.950 . S
C2276 C2275 1.398 . S
C2276 C2277 1.391 . S
C2277 H2265 0.950 . S
C2277 C2273 1.393 . S
C2277 C2276 1.391 . S
C2278 H2268 0.950 . S
C2278 C2279 1.386 . S
C2278 C2280 1.391 . S
C2279 C2278 1.386 . S
C2279 C2283 1.393 . S
C2280 H2269 0.950 . S
C2280 C2278 1.391 . S
C2280 C2281 1.400 . S
C2281 C2275 1.491 . S
C2281 C2280 1.400 . S
C2281 C2282 1.398 . S
C2282 H2270 0.950 . S
C2282 C2281 1.398 . S
C2282 C2283 1.391 . S
C2283 H2271 0.950 . S
C2283 C2279 1.393 . S
C2283 C2282 1.391 . S
H2284 C2292 0.950 1_556 S
H2285 C2297 0.950 . S
H2286 C2294 0.950 . S
H2287 C2296 0.950 . S
H2288 C2298 0.950 . S
H2289 C2300 0.950 . S
H2290 C2302 0.950 . S
H2291 C2303 0.950 . S
C2292 H2284 0.950 1_554 S
C2292 C2293 1.386 . S
C2292 C2294 1.391 . S
C2293 C2292 1.386 . S
C2293 C2297 1.393 . S
C2294 H2286 0.950 . S
C2294 C2292 1.391 . S
C2294 C2295 1.400 . S
C2295 C2294 1.400 . S
C2295 C2296 1.398 . S
C2295 C2301 1.491 . S
C2296 H2287 0.950 . S
C2296 C2295 1.398 . S
C2296 C2297 1.391 . S
C2297 H2285 0.950 . S
C2297 C2293 1.393 . S
C2297 C2296 1.391 . S
C2298 H2288 0.950 . S
C2298 C2299 1.386 . S
C2298 C2300 1.391 . S
C2299 C2298 1.386 . S
C2299 C2303 1.393 . S
C2300 H2289 0.950 . S
C2300 C2298 1.391 . S
C2300 C2301 1.400 . S
C2301 C2295 1.491 . S
C2301 C2300 1.400 . S
C2301 C2302 1.398 . S
C2302 H2290 0.950 . S
C2302 C2301 1.398 . S
C2302 C2303 1.391 . S
C2303 H2291 0.950 . S
C2303 C2299 1.393 . S
C2303 C2302 1.391 . S
H2304 C2312 0.950 . S
H2305 C2317 0.950 . S
H2306 C2314 0.950 . S
H2307 C2316 0.950 . S
H2308 C2318 0.950 . S
H2309 C2320 0.950 . S
H2310 C2322 0.950 . S
H2311 C2323 0.950 . S
C2312 H2304 0.950 . S
C2312 C2313 1.386 . S
C2312 C2314 1.391 . S
C2313 C2312 1.386 . S
C2313 C2317 1.393 . S
C2314 H2306 0.950 . S
C2314 C2312 1.391 . S
C2314 C2315 1.400 . S
C2315 C2314 1.400 . S
C2315 C2316 1.398 . S
C2315 C2321 1.491 . S
C2316 H2307 0.950 . S
C2316 C2315 1.398 . S
C2316 C2317 1.391 . S
C2317 H2305 0.950 . S
C2317 C2313 1.393 . S
C2317 C2316 1.391 . S
C2318 H2308 0.950 . S
C2318 C2319 1.386 . S
C2318 C2320 1.391 . S
C2319 C2318 1.386 . S
C2319 C2323 1.393 . S
C2320 H2309 0.950 . S
C2320 C2318 1.391 . S
C2320 C2321 1.400 . S
C2321 C2315 1.491 . S
C2321 C2320 1.400 . S
C2321 C2322 1.398 . S
C2322 H2310 0.950 . S
C2322 C2321 1.398 . S
C2322 C2323 1.391 . S
C2323 H2311 0.950 . S
C2323 C2319 1.393 . S
C2323 C2322 1.391 . S
H2324 C2332 0.950 . S
H2325 C2337 0.950 . S
H2326 C2334 0.950 . S
H2327 C2336 0.950 . S
H2328 C2338 0.950 . S
H2329 C2340 0.950 . S
H2330 C2342 0.950 . S
H2331 C2343 0.950 . S
C2332 H2324 0.950 . S
C2332 C2333 1.386 . S
C2332 C2334 1.391 . S
C2333 C2332 1.386 . S
C2333 C2337 1.393 . S
C2334 H2326 0.950 . S
C2334 C2332 1.391 . S
C2334 C2335 1.400 . S
C2335 C2334 1.400 . S
C2335 C2336 1.398 . S
C2335 C2341 1.491 . S
C2336 H2327 0.950 . S
C2336 C2335 1.398 . S
C2336 C2337 1.391 . S
C2337 H2325 0.950 . S
C2337 C2333 1.393 . S
C2337 C2336 1.391 . S
C2338 H2328 0.950 . S
C2338 C2339 1.386 . S
C2338 C2340 1.391 . S
C2339 C2338 1.386 . S
C2339 C2343 1.393 . S
C2340 H2329 0.950 . S
C2340 C2338 1.391 . S
C2340 C2341 1.400 . S
C2341 C2335 1.491 . S
C2341 C2340 1.400 . S
C2341 C2342 1.398 . S
C2342 H2330 0.950 . S
C2342 C2341 1.398 . S
C2342 C2343 1.391 . S
C2343 H2331 0.950 . S
C2343 C2339 1.393 . S
C2343 C2342 1.391 . S
H2344 C2352 0.950 . S
H2345 C2357 0.950 . S
H2346 C2354 0.950 . S
H2347 C2356 0.950 . S
H2348 C2358 0.950 . S
H2349 C2360 0.950 . S
H2350 C2362 0.950 . S
H2351 C2363 0.950 . S
C2352 H2344 0.950 . S
C2352 C2353 1.386 . S
C2352 C2354 1.391 . S
C2353 C2352 1.386 . S
C2353 C2357 1.393 . S
C2354 H2346 0.950 . S
C2354 C2352 1.391 . S
C2354 C2355 1.400 . S
C2355 C2354 1.400 . S
C2355 C2356 1.398 . S
C2355 C2361 1.491 . S
C2356 H2347 0.950 . S
C2356 C2355 1.398 . S
C2356 C2357 1.391 . S
C2357 H2345 0.950 . S
C2357 C2353 1.393 . S
C2357 C2356 1.391 . S
C2358 H2348 0.950 . S
C2358 C2359 1.386 . S
C2358 C2360 1.391 . S
C2359 C2358 1.386 . S
C2359 C2363 1.393 . S
C2360 H2349 0.950 . S
C2360 C2358 1.391 . S
C2360 C2361 1.400 . S
C2361 C2355 1.491 . S
C2361 C2360 1.400 . S
C2361 C2362 1.398 . S
C2362 H2350 0.950 . S
C2362 C2361 1.398 . S
C2362 C2363 1.391 . S
C2363 H2351 0.950 . S
C2363 C2359 1.393 . S
C2363 C2362 1.391 . S
H2364 C2372 0.950 . S
H2365 C2377 0.950 . S
H2366 C2374 0.950 . S
H2367 C2376 0.950 . S
H2368 C2378 0.950 . S
H2369 C2380 0.950 . S
H2370 C2382 0.950 . S
H2371 C2383 0.950 . S
C2372 H2364 0.950 . S
C2372 C2373 1.386 . S
C2372 C2374 1.391 . S
C2373 C2372 1.386 . S
C2373 C2377 1.393 . S
C2374 H2366 0.950 . S
C2374 C2372 1.391 . S
C2374 C2375 1.400 . S
C2375 C2374 1.400 . S
C2375 C2376 1.398 . S
C2375 C2381 1.491 . S
C2376 H2367 0.950 . S
C2376 C2375 1.398 . S
C2376 C2377 1.391 . S
C2377 H2365 0.950 . S
C2377 C2373 1.393 . S
C2377 C2376 1.391 . S
C2378 H2368 0.950 . S
C2378 C2379 1.386 . S
C2378 C2380 1.391 . S
C2379 C2378 1.386 . S
C2379 C2383 1.393 . S
C2380 H2369 0.950 . S
C2380 C2378 1.391 . S
C2380 C2381 1.400 . S
C2381 C2375 1.491 . S
C2381 C2380 1.400 . S
C2381 C2382 1.398 . S
C2382 H2370 0.950 . S
C2382 C2381 1.398 . S
C2382 C2383 1.391 . S
C2383 H2371 0.950 . S
C2383 C2379 1.393 . S
C2383 C2382 1.391 . S
H2384 C2392 0.950 . S
H2385 C2397 0.950 . S
H2386 C2394 0.950 . S
H2387 C2396 0.950 . S
H2388 C2398 0.950 . S
H2389 C2400 0.950 . S
H2390 C2402 0.950 . S
H2391 C2403 0.950 . S
C2392 H2384 0.950 . S
C2392 C2393 1.386 . S
C2392 C2394 1.391 . S
C2393 C2392 1.386 . S
C2393 C2397 1.393 . S
C2394 H2386 0.950 . S
C2394 C2392 1.391 . S
C2394 C2395 1.400 . S
C2395 C2394 1.400 . S
C2395 C2396 1.398 . S
C2395 C2401 1.491 . S
C2396 H2387 0.950 . S
C2396 C2395 1.398 . S
C2396 C2397 1.391 . S
C2397 H2385 0.950 . S
C2397 C2393 1.393 . S
C2397 C2396 1.391 . S
C2398 H2388 0.950 . S
C2398 C2399 1.386 . S
C2398 C2400 1.391 . S
C2399 C2398 1.386 . S
C2399 C2403 1.393 . S
C2400 H2389 0.950 . S
C2400 C2398 1.391 . S
C2400 C2401 1.400 . S
C2401 C2395 1.491 . S
C2401 C2400 1.400 . S
C2401 C2402 1.398 . S
C2402 H2390 0.950 . S
C2402 C2401 1.398 . S
C2402 C2403 1.391 . S
C2403 H2391 0.950 . S
C2403 C2399 1.393 . S
C2403 C2402 1.391 . S
H2404 C2412 0.950 . S
H2405 C2417 0.950 . S
H2406 C2414 0.950 . S
H2407 C2416 0.950 . S
H2408 C2418 0.950 . S
H2409 C2420 0.950 . S
H2410 C2422 0.950 . S
H2411 C2423 0.950 . S
C2412 H2404 0.950 . S
C2412 C2413 1.386 . S
C2412 C2414 1.391 . S
C2413 C2412 1.386 . S
C2413 C2417 1.393 . S
C2414 H2406 0.950 . S
C2414 C2412 1.391 . S
C2414 C2415 1.400 . S
C2415 C2414 1.400 . S
C2415 C2416 1.398 . S
C2415 C2421 1.491 . S
C2416 H2407 0.950 . S
C2416 C2415 1.398 . S
C2416 C2417 1.391 . S
C2417 H2405 0.950 . S
C2417 C2413 1.393 . S
C2417 C2416 1.391 . S
C2418 H2408 0.950 . S
C2418 C2419 1.386 . S
C2418 C2420 1.391 . S
C2419 C2418 1.386 . S
C2419 C2423 1.393 . S
C2420 H2409 0.950 . S
C2420 C2418 1.391 . S
C2420 C2421 1.400 . S
C2421 C2415 1.491 . S
C2421 C2420 1.400 . S
C2421 C2422 1.398 . S
C2422 H2410 0.950 . S
C2422 C2421 1.398 . S
C2422 C2423 1.391 . S
C2423 H2411 0.950 . S
C2423 C2419 1.393 . S
C2423 C2422 1.391 . S
H2424 C2432 0.950 . S
H2425 C2437 0.950 . S
H2426 C2434 0.950 . S
H2427 C2436 0.950 . S
H2428 C2438 0.950 . S
H2429 C2440 0.950 . S
H2430 C2442 0.950 . S
H2431 C2443 0.950 . S
C2432 H2424 0.950 . S
C2432 C2433 1.386 . S
C2432 C2434 1.391 . S
C2433 C2432 1.386 . S
C2433 C2437 1.393 . S
C2434 H2426 0.950 . S
C2434 C2432 1.391 . S
C2434 C2435 1.400 . S
C2435 C2434 1.400 . S
C2435 C2436 1.398 . S
C2435 C2441 1.491 . S
C2436 H2427 0.950 . S
C2436 C2435 1.398 . S
C2436 C2437 1.391 . S
C2437 H2425 0.950 . S
C2437 C2433 1.393 . S
C2437 C2436 1.391 . S
C2438 H2428 0.950 . S
C2438 C2439 1.386 . S
C2438 C2440 1.391 . S
C2439 C2438 1.386 . S
C2439 C2443 1.393 . S
C2440 H2429 0.950 . S
C2440 C2438 1.391 . S
C2440 C2441 1.400 . S
C2441 C2435 1.491 . S
C2441 C2440 1.400 . S
C2441 C2442 1.398 . S
C2442 H2430 0.950 . S
C2442 C2441 1.398 . S
C2442 C2443 1.391 . S
C2443 H2431 0.950 . S
C2443 C2439 1.393 . S
C2443 C2442 1.391 . S
H2444 C2452 0.950 . S
H2445 C2457 0.950 . S
H2446 C2454 0.950 . S
H2447 C2456 0.950 . S
H2448 C2458 0.950 . S
H2449 C2460 0.950 . S
H2450 C2462 0.950 . S
H2451 C2463 0.950 . S
C2452 H2444 0.950 . S
C2452 C2453 1.386 . S
C2452 C2454 1.391 . S
C2453 C2452 1.386 . S
C2453 C2457 1.393 . S
C2454 H2446 0.950 . S
C2454 C2452 1.391 . S
C2454 C2455 1.400 . S
C2455 C2454 1.400 . S
C2455 C2456 1.398 . S
C2455 C2461 1.491 . S
C2456 H2447 0.950 . S
C2456 C2455 1.398 . S
C2456 C2457 1.391 . S
C2457 H2445 0.950 . S
C2457 C2453 1.393 . S
C2457 C2456 1.391 . S
C2458 H2448 0.950 . S
C2458 C2459 1.386 . S
C2458 C2460 1.391 . S
C2459 C2458 1.386 . S
C2459 C2463 1.393 . S
C2460 H2449 0.950 . S
C2460 C2458 1.391 . S
C2460 C2461 1.400 . S
C2461 C2455 1.491 . S
C2461 C2460 1.400 . S
C2461 C2462 1.398 . S
C2462 H2450 0.950 . S
C2462 C2461 1.398 . S
C2462 C2463 1.391 . S
C2463 H2451 0.950 . S
C2463 C2459 1.393 . S
C2463 C2462 1.391 . S
H2464 C2472 0.950 . S
H2465 C2477 0.950 . S
H2466 C2474 0.950 . S
H2467 C2476 0.950 . S
H2468 C2478 0.950 . S
H2469 C2480 0.950 . S
H2470 C2482 0.950 . S
H2471 C2483 0.950 . S
C2472 H2464 0.950 . S
C2472 C2473 1.386 . S
C2472 C2474 1.391 . S
C2473 C2472 1.386 . S
C2473 C2477 1.393 . S
C2474 H2466 0.950 . S
C2474 C2472 1.391 . S
C2474 C2475 1.400 . S
C2475 C2474 1.400 . S
C2475 C2476 1.398 . S
C2475 C2481 1.491 . S
C2476 H2467 0.950 . S
C2476 C2475 1.398 . S
C2476 C2477 1.391 . S
C2477 H2465 0.950 . S
C2477 C2473 1.393 . S
C2477 C2476 1.391 . S
C2478 H2468 0.950 . S
C2478 C2479 1.386 . S
C2478 C2480 1.391 . S
C2479 C2478 1.386 . S
C2479 C2483 1.393 . S
C2480 H2469 0.950 . S
C2480 C2478 1.391 . S
C2480 C2481 1.400 . S
C2481 C2475 1.491 . S
C2481 C2480 1.400 . S
C2481 C2482 1.398 . S
C2482 H2470 0.950 . S
C2482 C2481 1.398 . S
C2482 C2483 1.391 . S
C2483 H2471 0.950 . S
C2483 C2479 1.393 . S
C2483 C2482 1.391 . S
H2484 C2492 0.950 . S
H2485 C2497 0.950 . S
H2486 C2494 0.950 . S
H2487 C2496 0.950 . S
H2488 C2498 0.950 . S
H2489 C2500 0.950 . S
H2490 C2502 0.950 . S
H2491 C2503 0.950 . S
C2492 H2484 0.950 . S
C2492 C2493 1.386 . S
C2492 C2494 1.391 . S
C2493 C2492 1.386 . S
C2493 C2497 1.393 . S
C2494 H2486 0.950 . S
C2494 C2492 1.391 . S
C2494 C2495 1.400 . S
C2495 C2494 1.400 . S
C2495 C2496 1.398 . S
C2495 C2501 1.491 . S
C2496 H2487 0.950 . S
C2496 C2495 1.398 . S
C2496 C2497 1.391 . S
C2497 H2485 0.950 . S
C2497 C2493 1.393 . S
C2497 C2496 1.391 . S
C2498 H2488 0.950 . S
C2498 C2499 1.386 . S
C2498 C2500 1.391 . S
C2499 C2498 1.386 . S
C2499 C2503 1.393 . S
C2500 H2489 0.950 . S
C2500 C2498 1.391 . S
C2500 C2501 1.400 . S
C2501 C2495 1.491 . S
C2501 C2500 1.400 . S
C2501 C2502 1.398 . S
C2502 H2490 0.950 . S
C2502 C2501 1.398 . S
C2502 C2503 1.391 . S
C2503 H2491 0.950 . S
C2503 C2499 1.393 . S
C2503 C2502 1.391 . S
H2504 C2512 0.950 . S
H2505 C2517 0.950 . S
H2506 C2514 0.950 . S
H2507 C2516 0.950 . S
H2508 C2518 0.950 . S
H2509 C2520 0.950 . S
H2510 C2522 0.950 . S
H2511 C2523 0.950 . S
C2512 H2504 0.950 . S
C2512 C2513 1.386 . S
C2512 C2514 1.391 . S
C2513 C2512 1.386 . S
C2513 C2517 1.393 . S
C2514 H2506 0.950 . S
C2514 C2512 1.391 . S
C2514 C2515 1.400 . S
C2515 C2514 1.400 . S
C2515 C2516 1.398 . S
C2515 C2521 1.491 . S
C2516 H2507 0.950 . S
C2516 C2515 1.398 . S
C2516 C2517 1.391 . S
C2517 H2505 0.950 . S
C2517 C2513 1.393 . S
C2517 C2516 1.391 . S
C2518 H2508 0.950 . S
C2518 C2519 1.386 . S
C2518 C2520 1.391 . S
C2519 C2518 1.386 . S
C2519 C2523 1.393 . S
C2520 H2509 0.950 . S
C2520 C2518 1.391 . S
C2520 C2521 1.400 . S
C2521 C2515 1.491 . S
C2521 C2520 1.400 . S
C2521 C2522 1.398 . S
C2522 H2510 0.950 . S
C2522 C2521 1.398 . S
C2522 C2523 1.391 . S
C2523 H2511 0.950 . S
C2523 C2519 1.393 . S
C2523 C2522 1.391 . S
H2524 C2532 0.950 . S
H2525 C2537 0.950 . S
H2526 C2534 0.950 . S
H2527 C2536 0.950 . S
H2528 C2538 0.950 . S
H2529 C2540 0.950 . S
H2530 C2542 0.950 . S
H2531 C2543 0.950 . S
C2532 H2524 0.950 . S
C2532 C2533 1.386 . S
C2532 C2534 1.391 . S
C2533 C2532 1.386 . S
C2533 C2537 1.393 . S
C2534 H2526 0.950 . S
C2534 C2532 1.391 . S
C2534 C2535 1.400 . S
C2535 C2534 1.400 . S
C2535 C2536 1.398 . S
C2535 C2541 1.491 . S
C2536 H2527 0.950 . S
C2536 C2535 1.398 . S
C2536 C2537 1.391 . S
C2537 H2525 0.950 . S
C2537 C2533 1.393 . S
C2537 C2536 1.391 . S
C2538 H2528 0.950 . S
C2538 C2539 1.386 . S
C2538 C2540 1.391 . S
C2539 C2538 1.386 . S
C2539 C2543 1.393 . S
C2540 H2529 0.950 . S
C2540 C2538 1.391 . S
C2540 C2541 1.400 . S
C2541 C2535 1.491 . S
C2541 C2540 1.400 . S
C2541 C2542 1.398 . S
C2542 H2530 0.950 . S
C2542 C2541 1.398 . S
C2542 C2543 1.391 . S
C2543 H2531 0.950 . S
C2543 C2539 1.393 . S
C2543 C2542 1.391 . S
H2544 C2552 0.950 . S
H2545 C2557 0.950 . S
H2546 C2554 0.950 . S
H2547 C2556 0.950 . S
H2548 C2558 0.950 . S
H2549 C2560 0.950 . S
H2550 C2562 0.950 . S
H2551 C2563 0.950 . S
C2552 H2544 0.950 . S
C2552 C2553 1.386 . S
C2552 C2554 1.391 . S
C2553 C2552 1.386 . S
C2553 C2557 1.393 . S
C2554 H2546 0.950 . S
C2554 C2552 1.391 . S
C2554 C2555 1.400 . S
C2555 C2554 1.400 . S
C2555 C2556 1.398 . S
C2555 C2561 1.491 . S
C2556 H2547 0.950 . S
C2556 C2555 1.398 . S
C2556 C2557 1.391 . S
C2557 H2545 0.950 . S
C2557 C2553 1.393 . S
C2557 C2556 1.391 . S
C2558 H2548 0.950 . S
C2558 C2559 1.386 . S
C2558 C2560 1.391 . S
C2559 C2558 1.386 . S
C2559 C2563 1.393 . S
C2560 H2549 0.950 . S
C2560 C2558 1.391 . S
C2560 C2561 1.400 . S
C2561 C2555 1.491 . S
C2561 C2560 1.400 . S
C2561 C2562 1.398 . S
C2562 H2550 0.950 . S
C2562 C2561 1.398 . S
C2562 C2563 1.391 . S
C2563 H2551 0.950 . S
C2563 C2559 1.393 . S
C2563 C2562 1.391 . S
H2564 C2572 0.950 . S
H2565 C2577 0.950 . S
H2566 C2574 0.950 . S
H2567 C2576 0.950 . S
H2568 C2578 0.950 . S
H2569 C2580 0.950 . S
H2570 C2582 0.950 . S
H2571 C2583 0.950 . S
C2572 H2564 0.950 . S
C2572 C2573 1.386 . S
C2572 C2574 1.391 . S
C2573 C2572 1.386 . S
C2573 C2577 1.393 . S
C2574 H2566 0.950 . S
C2574 C2572 1.391 . S
C2574 C2575 1.400 . S
C2575 C2574 1.400 . S
C2575 C2576 1.398 . S
C2575 C2581 1.491 . S
C2576 H2567 0.950 . S
C2576 C2575 1.398 . S
C2576 C2577 1.391 . S
C2577 H2565 0.950 . S
C2577 C2573 1.393 . S
C2577 C2576 1.391 . S
C2578 H2568 0.950 . S
C2578 C2579 1.386 . S
C2578 C2580 1.391 . S
C2579 C2578 1.386 . S
C2579 C2583 1.393 . S
C2580 H2569 0.950 . S
C2580 C2578 1.391 . S
C2580 C2581 1.400 1_655 S
C2581 C2575 1.491 . S
C2581 C2580 1.400 1_455 S
C2581 C2582 1.398 . S
C2582 H2570 0.950 . S
C2582 C2581 1.398 . S
C2582 C2583 1.391 1_455 S
C2583 H2571 0.950 . S
C2583 C2579 1.393 . S
C2583 C2582 1.391 1_655 S
C679 C319 1.203 . S
C673 C10 1.273 . S
C693 C16 1.270 . S
C699 C339 1.218 . S
C719 C360 1.184 . S
C713 C30 1.258 . S
C739 C387 1.185 . S
C733 C42 1.265 . S
C759 C343 1.225 . S
C753 C57 1.276 . S
C773 C69 1.257 . S
C779 C363 1.199 . S
C799 C383 1.223 . S
C793 C83 1.274 . S
C813 C101 1.269 . S
C819 C316 1.191 . S
C833 C108 1.275 . S
C839 C321 1.216 . S
C859 C338 1.220 . S
C853 C120 1.271 . S
C879 C362 1.183 . S
C873 C133 1.265 . S
C899 C386 1.193 . S
C893 C147 1.256 . S
C919 C342 1.190 . S
C913 C114 1.256 . S
C939 C365 1.195 . S
C933 C122 1.262 . S
C953 C135 1.278 . S
C959 C382 1.225 . S
C979 C318 1.183 . S
C973 C153 1.262 . S
C993 C160 1.264 . S
C999 C320 1.184 . S
C1013 C174 1.265 . S
C1019 C407 1.183 . S
C1039 C427 1.200 . S
C1033 C187 1.277 . S
C1059 C450 1.215 . S
C1053 C205 1.262 . S
C1073 C212 1.257 . S
C1079 C317 1.183 . S
C1093 C226 1.273 . S
C1099 C361 1.222 . S
C1119 C451 1.218 . S
C1113 C185 1.279 . S
C1139 C406 1.216 . S
C1133 C244 1.263 . S
C1159 C474 1.191 . S
C1153 C23 1.233 . S
C1179 C495 1.171 . S
C1173 C5 1.242 . S
C1193 C49 1.241 . S
C1199 C514 1.168 . S
C1213 C29 1.239 . S
C1219 C539 1.189 . S
C1233 C94 1.235 . S
C1239 C494 1.205 . S
C1253 C88 1.239 . S
C1259 C519 1.173 . S
C1279 C538 1.168 . S
C1273 C70 1.243 . S
C1293 C62 1.232 . S
C1299 C471 1.199 . S
C1313 C257 1.231 . S
C1319 C475 1.196 . S
C1339 C496 1.175 . S
C1333 C200 1.242 . S
C1359 C515 1.202 . S
C1353 C211 1.235 . S
C1379 C540 1.194 . S
C1373 C179 1.232 . S
C1399 C492 1.179 . S
C1393 C251 1.238 . S
C1419 C517 1.174 . S
C1413 C198 1.243 . S
C1439 C536 1.176 . S
C1433 C213 1.242 . S
C1453 C173 1.240 . S
C1459 C472 1.173 . S
C1479 C473 1.201 . S
C1473 C264 1.231 . S
C1493 C148 1.235 . S
C1499 C559 1.203 . S
C1519 C584 1.193 . S
C1513 C278 1.240 . S
C1533 C127 1.231 . S
C1539 C603 1.201 . S
C1559 C470 1.169 . S
C1553 C140 1.241 . S
C1579 C516 1.198 . S
C1573 C289 1.238 . S
C1599 C607 1.195 . S
C1593 C276 1.237 . S
C1613 C303 1.235 . S
C1619 C563 1.190 . S
C1633 C36 1.270 . S
C1639 C627 1.222 . S
C1653 C44 1.279 . S
C1659 C405 1.219 . S
C1679 C429 1.185 . S
C1673 C4 1.257 . S
C1693 C18 1.269 . S
C1699 C453 1.185 . S
C1713 C81 1.279 . S
C1719 C409 1.204 . S
C1733 C95 1.275 . S
C1739 C426 1.219 . S
C1759 C449 1.183 . S
C1753 C55 1.266 . S
C1779 C624 1.184 . S
C1773 C75 1.257 . S
C1799 C629 1.208 . S
C1793 C277 1.275 . S
C1819 C404 1.223 . S
C1813 C263 1.279 . S
C1839 C431 1.206 . S
C1833 C302 1.278 . S
C1853 C290 1.256 . S
C1859 C452 1.188 . S
C1879 C408 1.220 . S
C1873 C283 1.266 . S
C1893 C265 1.279 . S
C1899 C428 1.213 . S
C1919 C448 1.216 . S
C1913 C304 1.269 . S
C1933 C296 1.258 . S
C1939 C626 1.183 . S
C1959 C628 1.195 . S
C1953 C199 1.256 . S
C1973 C224 1.274 . S
C1979 C341 1.192 . S
C1999 C364 1.225 . S
C1993 C252 1.277 . S
C2013 C166 1.275 . S
C2019 C384 1.209 . S
C2039 C625 1.182 . S
C2033 C238 1.259 . S
C2059 C430 1.194 . S
C2053 C172 1.264 . S
C2079 C385 1.189 . S
C2073 C250 1.272 . S
C2099 C340 1.195 . S
C2093 C218 1.271 . S
C2113 C43 1.236 . S
C2119 C651 1.180 . S
C2133 C31 1.243 . S
C2139 C561 1.168 . S
C2153 C17 1.231 . S
C2159 C580 1.200 . S
C2179 C605 1.170 . S
C2173 C3 1.244 . S
C2199 C560 1.190 . S
C2193 C68 1.241 . S
C2213 C56 1.229 . S
C2219 C585 1.203 . S
C2239 C604 1.194 . S
C2233 C96 1.237 . S
C2253 C82 1.242 . S
C2259 C646 1.167 . S
C2279 C649 1.173 . S
C2273 C192 1.240 . S
C2293 C161 1.235 . S
C2299 C562 1.205 . S
C2313 C237 1.236 . S
C2319 C581 1.192 . S
C2339 C606 1.192 . S
C2333 C225 1.232 . S
C2359 C558 1.201 . S
C2353 C186 1.230 . S
C2373 C159 1.240 . S
C2379 C583 1.179 . S
C2399 C602 1.201 . S
C2393 C239 1.237 . S
C2419 C647 1.203 . S
C2413 C231 1.229 . S
C2439 C650 1.175 . S
C2433 C121 1.240 . S
C2459 C493 1.178 . S
C2453 C291 1.240 . S
C2473 C109 1.238 . S
C2479 C518 1.201 . S
C2493 C270 1.229 . S
C2499 C537 1.203 . S
C2519 C648 1.167 . S
C2513 C309 1.241 . S
C2539 C582 1.172 . S
C2533 C146 1.244 . S
C2559 C541 1.180 . S
C2553 C107 1.239 . S
C2579 C497 1.178 . S
C2573 C134 1.237 . S
