# Generated by pormake.
# Topology gar, (4,6)-cn, num edge types: 1
# Building blocks:
#     Node 0, Type 0, BuildingBlock: NAHDIM_clean_sbu_0, # of connection points: 4
#     Node 1, Type 0, BuildingBlock: NAHDIM_clean_sbu_0, # of connection points: 4
#     Node 2, Type 0, BuildingBlock: NAHDIM_clean_sbu_0, # of connection points: 4
#     Node 3, Type 0, BuildingBlock: NAHDIM_clean_sbu_0, # of connection points: 4
#     Node 4, Type 0, BuildingBlock: NAHDIM_clean_sbu_0, # of connection points: 4
#     Node 5, Type 0, BuildingBlock: NAHDIM_clean_sbu_0, # of connection points: 4
#     Node 6, Type 0, BuildingBlock: NAHDIM_clean_sbu_0, # of connection points: 4
#     Node 7, Type 0, BuildingBlock: NAHDIM_clean_sbu_0, # of connection points: 4
#     Node 8, Type 0, BuildingBlock: NAHDIM_clean_sbu_0, # of connection points: 4
#     Node 9, Type 0, BuildingBlock: NAHDIM_clean_sbu_0, # of connection points: 4
#     Node 10, Type 0, BuildingBlock: NAHDIM_clean_sbu_0, # of connection points: 4
#     Node 11, Type 0, BuildingBlock: NAHDIM_clean_sbu_0, # of connection points: 4
#     Node 12, Type 0, BuildingBlock: NAHDIM_clean_sbu_0, # of connection points: 4
#     Node 13, Type 0, BuildingBlock: NAHDIM_clean_sbu_0, # of connection points: 4
#     Node 14, Type 0, BuildingBlock: NAHDIM_clean_sbu_0, # of connection points: 4
#     Node 15, Type 0, BuildingBlock: NAHDIM_clean_sbu_0, # of connection points: 4
#     Node 16, Type 0, BuildingBlock: NAHDIM_clean_sbu_0, # of connection points: 4
#     Node 17, Type 0, BuildingBlock: NAHDIM_clean_sbu_0, # of connection points: 4
#     Node 18, Type 0, BuildingBlock: NAHDIM_clean_sbu_0, # of connection points: 4
#     Node 19, Type 0, BuildingBlock: NAHDIM_clean_sbu_0, # of connection points: 4
#     Node 20, Type 0, BuildingBlock: NAHDIM_clean_sbu_0, # of connection points: 4
#     Node 21, Type 0, BuildingBlock: NAHDIM_clean_sbu_0, # of connection points: 4
#     Node 22, Type 0, BuildingBlock: NAHDIM_clean_sbu_0, # of connection points: 4
#     Node 23, Type 0, BuildingBlock: NAHDIM_clean_sbu_0, # of connection points: 4
#     Node 24, Type 1, BuildingBlock: GEDQOX_clean_sbu_0, # of connection points: 6
#     Node 25, Type 1, BuildingBlock: GEDQOX_clean_sbu_0, # of connection points: 6
#     Node 26, Type 1, BuildingBlock: GEDQOX_clean_sbu_0, # of connection points: 6
#     Node 27, Type 1, BuildingBlock: GEDQOX_clean_sbu_0, # of connection points: 6
#     Node 28, Type 1, BuildingBlock: GEDQOX_clean_sbu_0, # of connection points: 6
#     Node 29, Type 1, BuildingBlock: GEDQOX_clean_sbu_0, # of connection points: 6
#     Node 30, Type 1, BuildingBlock: GEDQOX_clean_sbu_0, # of connection points: 6
#     Node 31, Type 1, BuildingBlock: GEDQOX_clean_sbu_0, # of connection points: 6
#     Node 32, Type 1, BuildingBlock: GEDQOX_clean_sbu_0, # of connection points: 6
#     Node 33, Type 1, BuildingBlock: GEDQOX_clean_sbu_0, # of connection points: 6
#     Node 34, Type 1, BuildingBlock: GEDQOX_clean_sbu_0, # of connection points: 6
#     Node 35, Type 1, BuildingBlock: GEDQOX_clean_sbu_0, # of connection points: 6
#     Node 36, Type 1, BuildingBlock: GEDQOX_clean_sbu_0, # of connection points: 6
#     Node 37, Type 1, BuildingBlock: GEDQOX_clean_sbu_0, # of connection points: 6
#     Node 38, Type 1, BuildingBlock: GEDQOX_clean_sbu_0, # of connection points: 6
#     Node 39, Type 1, BuildingBlock: GEDQOX_clean_sbu_0, # of connection points: 6
#     Edge 40, Type (0, 1), BuildingBlock: AJUNOK_clean_linker_0, # of connection points: 2
#     Edge 41, Type (0, 1), BuildingBlock: AJUNOK_clean_linker_0, # of connection points: 2
#     Edge 42, Type (0, 1), BuildingBlock: AJUNOK_clean_linker_0, # of connection points: 2
#     Edge 43, Type (0, 1), BuildingBlock: AJUNOK_clean_linker_0, # of connection points: 2
#     Edge 44, Type (0, 1), BuildingBlock: AJUNOK_clean_linker_0, # of connection points: 2
#     Edge 45, Type (0, 1), BuildingBlock: AJUNOK_clean_linker_0, # of connection points: 2
#     Edge 46, Type (0, 1), BuildingBlock: AJUNOK_clean_linker_0, # of connection points: 2
#     Edge 47, Type (0, 1), BuildingBlock: AJUNOK_clean_linker_0, # of connection points: 2
#     Edge 48, Type (0, 1), BuildingBlock: AJUNOK_clean_linker_0, # of connection points: 2
#     Edge 49, Type (0, 1), BuildingBlock: AJUNOK_clean_linker_0, # of connection points: 2
#     Edge 50, Type (0, 1), BuildingBlock: AJUNOK_clean_linker_0, # of connection points: 2
#     Edge 51, Type (0, 1), BuildingBlock: AJUNOK_clean_linker_0, # of connection points: 2
#     Edge 52, Type (0, 1), BuildingBlock: AJUNOK_clean_linker_0, # of connection points: 2
#     Edge 53, Type (0, 1), BuildingBlock: AJUNOK_clean_linker_0, # of connection points: 2
#     Edge 54, Type (0, 1), BuildingBlock: AJUNOK_clean_linker_0, # of connection points: 2
#     Edge 55, Type (0, 1), BuildingBlock: AJUNOK_clean_linker_0, # of connection points: 2
#     Edge 56, Type (0, 1), BuildingBlock: AJUNOK_clean_linker_0, # of connection points: 2
#     Edge 57, Type (0, 1), BuildingBlock: AJUNOK_clean_linker_0, # of connection points: 2
#     Edge 58, Type (0, 1), BuildingBlock: AJUNOK_clean_linker_0, # of connection points: 2
#     Edge 59, Type (0, 1), BuildingBlock: AJUNOK_clean_linker_0, # of connection points: 2
#     Edge 60, Type (0, 1), BuildingBlock: AJUNOK_clean_linker_0, # of connection points: 2
#     Edge 61, Type (0, 1), BuildingBlock: AJUNOK_clean_linker_0, # of connection points: 2
#     Edge 62, Type (0, 1), BuildingBlock: AJUNOK_clean_linker_0, # of connection points: 2
#     Edge 63, Type (0, 1), BuildingBlock: AJUNOK_clean_linker_0, # of connection points: 2
#     Edge 64, Type (0, 1), BuildingBlock: AJUNOK_clean_linker_0, # of connection points: 2
#     Edge 65, Type (0, 1), BuildingBlock: AJUNOK_clean_linker_0, # of connection points: 2
#     Edge 66, Type (0, 1), BuildingBlock: AJUNOK_clean_linker_0, # of connection points: 2
#     Edge 67, Type (0, 1), BuildingBlock: AJUNOK_clean_linker_0, # of connection points: 2
#     Edge 68, Type (0, 1), BuildingBlock: AJUNOK_clean_linker_0, # of connection points: 2
#     Edge 69, Type (0, 1), BuildingBlock: AJUNOK_clean_linker_0, # of connection points: 2
#     Edge 70, Type (0, 1), BuildingBlock: AJUNOK_clean_linker_0, # of connection points: 2
#     Edge 71, Type (0, 1), BuildingBlock: AJUNOK_clean_linker_0, # of connection points: 2
#     Edge 72, Type (0, 1), BuildingBlock: AJUNOK_clean_linker_0, # of connection points: 2
#     Edge 73, Type (0, 1), BuildingBlock: AJUNOK_clean_linker_0, # of connection points: 2
#     Edge 74, Type (0, 1), BuildingBlock: AJUNOK_clean_linker_0, # of connection points: 2
#     Edge 75, Type (0, 1), BuildingBlock: AJUNOK_clean_linker_0, # of connection points: 2
#     Edge 76, Type (0, 1), BuildingBlock: AJUNOK_clean_linker_0, # of connection points: 2
#     Edge 77, Type (0, 1), BuildingBlock: AJUNOK_clean_linker_0, # of connection points: 2
#     Edge 78, Type (0, 1), BuildingBlock: AJUNOK_clean_linker_0, # of connection points: 2
#     Edge 79, Type (0, 1), BuildingBlock: AJUNOK_clean_linker_0, # of connection points: 2
#     Edge 80, Type (0, 1), BuildingBlock: AJUNOK_clean_linker_0, # of connection points: 2
#     Edge 81, Type (0, 1), BuildingBlock: AJUNOK_clean_linker_0, # of connection points: 2
#     Edge 82, Type (0, 1), BuildingBlock: AJUNOK_clean_linker_0, # of connection points: 2
#     Edge 83, Type (0, 1), BuildingBlock: AJUNOK_clean_linker_0, # of connection points: 2
#     Edge 84, Type (0, 1), BuildingBlock: AJUNOK_clean_linker_0, # of connection points: 2
#     Edge 85, Type (0, 1), BuildingBlock: AJUNOK_clean_linker_0, # of connection points: 2
#     Edge 86, Type (0, 1), BuildingBlock: AJUNOK_clean_linker_0, # of connection points: 2
#     Edge 87, Type (0, 1), BuildingBlock: AJUNOK_clean_linker_0, # of connection points: 2
#     Edge 88, Type (0, 1), BuildingBlock: AJUNOK_clean_linker_0, # of connection points: 2
#     Edge 89, Type (0, 1), BuildingBlock: AJUNOK_clean_linker_0, # of connection points: 2
#     Edge 90, Type (0, 1), BuildingBlock: AJUNOK_clean_linker_0, # of connection points: 2
#     Edge 91, Type (0, 1), BuildingBlock: AJUNOK_clean_linker_0, # of connection points: 2
#     Edge 92, Type (0, 1), BuildingBlock: AJUNOK_clean_linker_0, # of connection points: 2
#     Edge 93, Type (0, 1), BuildingBlock: AJUNOK_clean_linker_0, # of connection points: 2
#     Edge 94, Type (0, 1), BuildingBlock: AJUNOK_clean_linker_0, # of connection points: 2
#     Edge 95, Type (0, 1), BuildingBlock: AJUNOK_clean_linker_0, # of connection points: 2
#     Edge 96, Type (0, 1), BuildingBlock: AJUNOK_clean_linker_0, # of connection points: 2
#     Edge 97, Type (0, 1), BuildingBlock: AJUNOK_clean_linker_0, # of connection points: 2
#     Edge 98, Type (0, 1), BuildingBlock: AJUNOK_clean_linker_0, # of connection points: 2
#     Edge 99, Type (0, 1), BuildingBlock: AJUNOK_clean_linker_0, # of connection points: 2
#     Edge 100, Type (0, 1), BuildingBlock: AJUNOK_clean_linker_0, # of connection points: 2
#     Edge 101, Type (0, 1), BuildingBlock: AJUNOK_clean_linker_0, # of connection points: 2
#     Edge 102, Type (0, 1), BuildingBlock: AJUNOK_clean_linker_0, # of connection points: 2
#     Edge 103, Type (0, 1), BuildingBlock: AJUNOK_clean_linker_0, # of connection points: 2
#     Edge 104, Type (0, 1), BuildingBlock: AJUNOK_clean_linker_0, # of connection points: 2
#     Edge 105, Type (0, 1), BuildingBlock: AJUNOK_clean_linker_0, # of connection points: 2
#     Edge 106, Type (0, 1), BuildingBlock: AJUNOK_clean_linker_0, # of connection points: 2
#     Edge 107, Type (0, 1), BuildingBlock: AJUNOK_clean_linker_0, # of connection points: 2
#     Edge 108, Type (0, 1), BuildingBlock: AJUNOK_clean_linker_0, # of connection points: 2
#     Edge 109, Type (0, 1), BuildingBlock: AJUNOK_clean_linker_0, # of connection points: 2
#     Edge 110, Type (0, 1), BuildingBlock: AJUNOK_clean_linker_0, # of connection points: 2
#     Edge 111, Type (0, 1), BuildingBlock: AJUNOK_clean_linker_0, # of connection points: 2
#     Edge 112, Type (0, 1), BuildingBlock: AJUNOK_clean_linker_0, # of connection points: 2
#     Edge 113, Type (0, 1), BuildingBlock: AJUNOK_clean_linker_0, # of connection points: 2
#     Edge 114, Type (0, 1), BuildingBlock: AJUNOK_clean_linker_0, # of connection points: 2
#     Edge 115, Type (0, 1), BuildingBlock: AJUNOK_clean_linker_0, # of connection points: 2
#     Edge 116, Type (0, 1), BuildingBlock: AJUNOK_clean_linker_0, # of connection points: 2
#     Edge 117, Type (0, 1), BuildingBlock: AJUNOK_clean_linker_0, # of connection points: 2
#     Edge 118, Type (0, 1), BuildingBlock: AJUNOK_clean_linker_0, # of connection points: 2
#     Edge 119, Type (0, 1), BuildingBlock: AJUNOK_clean_linker_0, # of connection points: 2
#     Edge 120, Type (0, 1), BuildingBlock: AJUNOK_clean_linker_0, # of connection points: 2
#     Edge 121, Type (0, 1), BuildingBlock: AJUNOK_clean_linker_0, # of connection points: 2
#     Edge 122, Type (0, 1), BuildingBlock: AJUNOK_clean_linker_0, # of connection points: 2
#     Edge 123, Type (0, 1), BuildingBlock: AJUNOK_clean_linker_0, # of connection points: 2
#     Edge 124, Type (0, 1), BuildingBlock: AJUNOK_clean_linker_0, # of connection points: 2
#     Edge 125, Type (0, 1), BuildingBlock: AJUNOK_clean_linker_0, # of connection points: 2
#     Edge 126, Type (0, 1), BuildingBlock: AJUNOK_clean_linker_0, # of connection points: 2
#     Edge 127, Type (0, 1), BuildingBlock: AJUNOK_clean_linker_0, # of connection points: 2
#     Edge 128, Type (0, 1), BuildingBlock: AJUNOK_clean_linker_0, # of connection points: 2
#     Edge 129, Type (0, 1), BuildingBlock: AJUNOK_clean_linker_0, # of connection points: 2
#     Edge 130, Type (0, 1), BuildingBlock: AJUNOK_clean_linker_0, # of connection points: 2
#     Edge 131, Type (0, 1), BuildingBlock: AJUNOK_clean_linker_0, # of connection points: 2
#     Edge 132, Type (0, 1), BuildingBlock: AJUNOK_clean_linker_0, # of connection points: 2
#     Edge 133, Type (0, 1), BuildingBlock: AJUNOK_clean_linker_0, # of connection points: 2
#     Edge 134, Type (0, 1), BuildingBlock: AJUNOK_clean_linker_0, # of connection points: 2
#     Edge 135, Type (0, 1), BuildingBlock: AJUNOK_clean_linker_0, # of connection points: 2
# Relax obj value: 0.360
# Max RMSD: 0.528
# Mean RMSD: 0.206
data_MOF--net-gar--node1-NAHDIM_clean_sbu_0--node2-GEDQOX_clean_sbu_0--edge1-AJUNOK_clean_linker_0
_symmetry_space_group_name_H-M    P1
_symmetry_Int_Tables_number       1
_symmetry_cell_setting            triclinic
loop_
_symmetry_equiv_pos_as_xyz
'x, y, z'
_cell_length_a     46.183425
_cell_length_b     44.129384
_cell_length_c     38.38678
_cell_angle_alpha  99.882974
_cell_angle_beta   97.907931
_cell_angle_gamma 98.341708
loop_
_atom_site_label
_atom_site_type_symbol
_atom_site_fract_x
_atom_site_fract_y
_atom_site_fract_z
_atom_type_partial_charge
C0 C 0.19288 0.36374 0.44856 0.0
O1 O 0.16918 0.34967 0.45843 0.0
O2 O 0.17945 0.36381 0.53686 0.0
Zn3 Zn 0.18665 0.39957 0.51151 0.0
O4 O 0.198 0.4419 0.54503 0.0
C5 C 0.12303 0.39553 0.499 0.0
O6 O 0.12437 0.38625 0.52981 0.0
O7 O 0.20803 0.38811 0.4697 0.0
C8 C 0.18596 0.44392 0.5731 0.0
O9 O 0.17753 0.41818 0.58447 0.0
C10 C 0.19395 0.35575 0.56327 0.0
O11 O 0.21991 0.37231 0.57882 0.0
O12 O 0.14669 0.40248 0.48666 0.0
C13 C 1.00169 0.78037 0.75777 0.0
O14 O 1.02111 0.76169 0.76115 0.0
O15 O 0.99593 0.72615 0.65428 0.0
Zn16 Zn 1.01044 0.76988 0.68354 0.0
O17 O 1.01297 0.80262 0.65305 0.0
C18 C 0.06268 0.74708 0.71203 0.0
O19 O 0.04547 0.71964 0.70498 0.0
O20 O 0.99129 0.78408 0.72651 0.0
C21 C 1.03384 0.8042 0.63463 0.0
O22 O 0.05094 0.78282 0.63366 0.0
C23 C 0.99623 0.71987 0.62065 0.0
O24 O 0.99359 0.74204 0.6022 0.0
O25 O 0.05235 0.77083 0.7049 0.0
C26 C 0.69671 0.87554 0.94664 0.0
O27 O 0.69237 0.85589 0.96829 0.0
O28 O 0.66237 0.88557 0.02345 0.0
Zn29 Zn 0.6836 0.92139 1.00492 0.0
O30 O 0.71838 0.94588 0.0422 0.0
C31 C 0.63056 0.94752 1.00522 0.0
O32 O 0.62843 0.93421 0.03307 0.0
O33 O 0.69582 0.90426 0.95748 0.0
C34 C 0.71875 0.96894 0.06741 0.0
O35 O 0.74369 0.98097 0.0894 0.0
C36 C 0.67005 0.87978 0.05438 0.0
O37 O 0.69369 0.897 0.07529 0.0
O38 O 0.65388 0.94759 0.99125 0.0
C39 C 0.51156 0.28907 0.21089 0.0
O40 O 0.49799 0.2983 0.18319 0.0
O41 O 0.48766 0.23642 0.12417 0.0
Zn42 Zn 0.52908 0.25674 0.15132 0.0
O43 O 0.54134 0.29725 0.13476 0.0
C44 C 0.58188 0.22189 0.15131 0.0
O45 O 0.59504 0.20259 0.13157 0.0
O46 O 0.52774 0.26834 0.20487 0.0
C47 C 0.56191 0.30079 0.11614 0.0
O48 O 0.57492 0.27704 0.10583 0.0
C49 C 0.47899 0.20835 0.10709 0.0
O50 O 0.45214 0.20038 0.08826 0.0
O51 O 0.55784 0.22863 0.13697 0.0
C52 C 1.02356 0.82084 0.27548 0.0
O53 O 1.02476 0.8131 0.24118 0.0
O54 O 0.08335 0.77953 0.24137 0.0
Zn55 Zn 0.08809 0.82368 0.27141 0.0
O56 O 0.08137 0.85089 0.23386 0.0
C57 C 0.15241 0.81543 0.30043 0.0
O58 O 0.14007 0.78582 0.29183 0.0
O59 O 0.04864 0.82641 0.29716 0.0
C60 C 0.09825 0.87466 0.22884 0.0
O61 O 0.12422 0.88421 0.24961 0.0
C62 C 0.09757 0.77669 0.21512 0.0
O63 O 0.11436 0.80171 0.21005 0.0
O64 O 0.13523 0.83584 0.29719 0.0
C65 C 0.66637 0.87388 0.39052 0.0
O66 O 0.66783 0.89169 0.42205 0.0
O67 O 0.60098 0.83303 0.43265 0.0
Zn68 Zn 0.60062 0.86525 0.39911 0.0
O69 O 0.60843 0.90847 0.4321 0.0
C70 C 0.53159 0.84808 0.38159 0.0
O71 O 0.53634 0.83456 0.40926 0.0
O72 O 0.64016 0.86128 0.37299 0.0
C73 C 0.59324 0.91346 0.45716 0.0
O74 O 0.57317 0.8905 0.46105 0.0
C75 C 0.61951 0.83846 0.46189 0.0
O76 O 0.63788 0.86523 0.47069 0.0
O77 O 0.55467 0.86112 0.3705 0.0
C78 C 0.52655 0.32314 0.77845 0.0
O79 O 0.5277 0.31852 0.74398 0.0
O80 O 0.58605 0.28273 0.74165 0.0
Zn81 Zn 0.59116 0.32644 0.77385 0.0
O82 O 0.58572 0.35728 0.73943 0.0
C83 C 0.65973 0.33353 0.78618 0.0
O84 O 0.65432 0.32703 0.75099 0.0
O85 O 0.55163 0.32722 0.7998 0.0
C86 C 0.60431 0.37837 0.73168 0.0
O87 O 0.632 0.38361 0.74792 0.0
C88 C 0.59108 0.27986 0.70949 0.0
O89 O 0.59878 0.3053 0.6972 0.0
O90 O 0.63728 0.33505 0.80292 0.0
C91 C 0.16936 0.3786 0.88822 0.0
O92 O 0.16941 0.396 0.91961 0.0
O93 O 0.10559 0.33519 0.92744 0.0
Zn94 Zn 0.10415 0.36806 0.89519 0.0
O95 O 0.11095 0.41062 0.92919 0.0
C96 C 1.0357 0.34834 0.87753 0.0
O97 O 1.04124 0.33309 0.90353 0.0
O98 O 0.14374 0.36549 0.86957 0.0
C99 C 0.09518 0.41391 0.95387 0.0
O100 O 0.07511 0.39015 0.95572 0.0
C101 C 0.12291 0.34122 0.95762 0.0
O102 O 0.13919 0.36912 0.96831 0.0
O103 O 0.05823 0.36322 0.86721 0.0
C104 C 0.4787 0.20778 0.29991 0.0
O105 O 0.47642 0.18732 0.27004 0.0
O106 O 0.52427 0.14493 0.28577 0.0
Zn107 Zn 0.50656 0.1612 0.32899 0.0
O108 O 0.52963 0.15424 0.37525 0.0
C109 C 0.47008 0.10321 0.32245 0.0
O110 O 0.49512 0.09389 0.31696 0.0
O111 O 0.49334 0.20307 0.32863 0.0
C112 C 0.54651 0.16921 0.40387 0.0
O113 O 0.55436 0.19962 0.40828 0.0
C114 C 0.54844 0.13418 0.28723 0.0
O115 O 0.56529 0.13668 0.31842 0.0
O116 O 0.46883 0.13206 0.32607 0.0
C117 C 0.33644 0.12533 0.44322 0.0
O118 O 0.34059 0.14956 0.42774 0.0
O119 O 0.31599 0.18211 0.50821 0.0
Zn120 Zn 0.29132 0.15593 0.46342 0.0
O121 O 0.29325 0.18353 0.42685 0.0
C122 C 0.24296 0.12291 0.49021 0.0
O123 O 0.2618 0.1039 0.49555 0.0
O124 O 0.3122 0.11929 0.45472 0.0
C125 C 0.28558 0.21002 0.43521 0.0
O126 O 0.2732 0.21578 0.46394 0.0
C127 C 0.33857 0.20246 0.50847 0.0
O128 O 0.34643 0.20788 0.47824 0.0
O129 O 0.25023 0.14562 0.47498 0.0
C130 C 0.25719 1.02045 0.84379 0.0
O131 O 0.22843 1.0144 0.83241 0.0
O132 O 0.21259 0.08516 0.81205 0.0
Zn133 Zn 0.24353 0.09088 0.8598 0.0
O134 O 0.21734 0.09159 0.90528 0.0
C135 C 0.26209 0.15959 0.84591 0.0
O136 O 0.23498 0.15263 0.82767 0.0
O137 O 0.2687 0.04974 0.85592 0.0
C138 C 0.19059 0.0975 0.90494 0.0
O139 O 0.17729 0.10365 0.87509 0.0
C140 C 0.21834 0.07896 0.78011 0.0
O141 O 0.24499 0.07344 0.77605 0.0
O142 O 0.27145 0.13822 0.86185 0.0
C143 C 0.22471 0.97849 0.11517 0.0
O144 O 0.23407 0.96902 0.14468 0.0
O145 O 0.27942 0.92597 0.13043 0.0
Zn146 Zn 0.26896 0.94353 0.08465 0.0
O147 O 0.26918 0.9127 0.0369 0.0
C148 C 0.32264 0.99056 0.11082 0.0
O149 O 0.31974 0.98596 0.14316 0.0
O150 O 0.2345 0.96871 0.08648 0.0
C151 C 0.29467 0.90593 0.03262 0.0
O152 O 0.31706 0.91675 0.05902 0.0
C153 C 0.28845 0.90024 0.1325 0.0
O154 O 0.2889 0.88062 0.10278 0.0
O155 O 0.3033 0.97604 0.08427 0.0
C156 C 0.35336 0.56346 0.22865 0.0
O157 O 0.34688 0.53695 0.2394 0.0
O158 O 0.40671 0.50723 0.23896 0.0
Zn159 Zn 0.39695 0.53178 0.20116 0.0
O160 O 0.36807 0.50028 0.16483 0.0
C161 C 0.45563 0.56045 0.19077 0.0
O162 O 0.45917 0.57404 0.22465 0.0
O163 O 0.37689 0.56818 0.21525 0.0
C164 C 0.34323 0.501 0.1465 0.0
O165 O 0.33265 0.52721 0.14878 0.0
C166 C 0.41552 0.48204 0.22687 0.0
O167 O 0.42203 0.47785 0.19432 0.0
O168 O 0.43137 0.54253 0.17642 0.0
C169 C 0.96032 0.2117 0.05756 0.0
O170 O 0.94754 0.21694 0.02694 0.0
O171 O 0.9148 0.27321 0.13778 0.0
Zn172 Zn 0.91781 0.24848 0.08776 0.0
O173 O 0.91182 0.27185 0.04646 0.0
C174 C 0.866 0.20237 0.04944 0.0
O175 O 0.87194 0.2113 0.01991 0.0
O176 O 0.95281 0.22443 0.08667 0.0
C177 C 0.88889 0.28436 0.0403 0.0
O178 O 0.87016 0.28507 0.06312 0.0
C179 C 0.91082 0.30119 0.14814 0.0
O180 O 0.91197 0.32053 0.12571 0.0
O181 O 0.88244 0.21479 0.07924 0.0
C182 C 0.23961 0.47639 0.35978 0.0
O183 O 0.24375 0.49814 0.38889 0.0
O184 O 0.18211 0.52949 0.29104 0.0
Zn185 Zn 0.20446 0.51955 0.33675 0.0
O186 O 0.18374 0.52803 0.38019 0.0
C187 C 0.23844 0.58037 0.35318 0.0
O188 O 0.21244 0.58739 0.35812 0.0
O189 O 0.2213 0.47888 0.33267 0.0
C190 C 0.16133 0.54174 0.38141 0.0
O191 O 0.14857 0.54912 0.35202 0.0
C192 C 0.1589 0.51837 0.26773 0.0
O193 O 0.14249 0.49206 0.26991 0.0
O194 O 0.24093 0.55186 0.34562 0.0
C195 C 0.85385 0.04089 0.7024 0.0
O196 O 0.85082 1.0118 0.70677 0.0
O197 O 0.91287 1.01352 0.7578 0.0
Zn198 Zn 0.91224 0.03161 0.71318 0.0
O199 O 0.89905 0.99321 0.67531 0.0
C200 C 0.97645 0.05942 0.71763 0.0
O201 O 0.98241 0.05283 0.74966 0.0
O202 O 0.87985 0.05661 0.70693 0.0
C203 C 0.91713 0.97691 0.66291 0.0
O204 O 0.94576 0.98673 0.67318 0.0
C205 C 0.92943 0.99354 0.76298 0.0
O206 O 0.95212 0.99191 0.74606 0.0
O207 O 0.94989 0.05344 0.70116 0.0
C208 C 0.93374 0.17733 0.3318 0.0
O209 O 0.96216 0.18501 0.34513 0.0
O210 O 0.97781 0.10047 0.27441 0.0
Zn211 Zn 0.94938 0.1063 0.31768 0.0
O212 O 0.97804 0.11388 0.368 0.0
C213 C 0.92738 0.03253 0.30865 0.0
O214 O 0.94999 0.03097 0.29146 0.0
O215 O 0.92379 0.14769 0.31891 0.0
C216 C 0.99375 0.09352 0.37589 0.0
O217 O 0.99334 0.069 0.3509 0.0
C218 C 0.99354 0.12074 0.2606 0.0
O219 O 0.99279 0.15037 0.27213 0.0
O220 O 0.92141 0.06015 0.31936 0.0
C221 C 0.46099 0.70895 0.55683 0.0
O222 O 0.43558 0.69765 0.53554 0.0
O223 O 0.42427 0.78087 0.63609 0.0
Zn224 Zn 0.42495 0.75368 0.58566 0.0
O225 O 0.41314 0.77457 0.54305 0.0
C226 C 0.37482 0.70284 0.55444 0.0
O227 O 0.37686 0.71121 0.52352 0.0
O228 O 0.46278 0.73381 0.58044 0.0
C229 C 0.38747 0.78182 0.53616 0.0
O230 O 0.36838 0.77722 0.55793 0.0
C231 C 0.41427 0.80655 0.64143 0.0
O232 O 0.40761 0.81973 0.6139 0.0
O233 O 0.39258 0.71741 0.5825 0.0
C234 C 0.44008 0.67956 0.83365 0.0
O235 O 0.46869 0.68398 0.84571 0.0
O236 O 0.47611 0.60549 0.77385 0.0
Zn237 Zn 0.45069 0.60854 0.81929 0.0
O238 O 0.48057 0.61747 0.86809 0.0
C239 C 0.42763 0.53424 0.81108 0.0
O240 O 0.44989 0.53148 0.79352 0.0
O241 O 0.42717 0.65069 0.82142 0.0
C242 C 0.49443 0.59642 0.87782 0.0
O243 O 0.4911 0.56964 0.85537 0.0
C244 C 0.50395 0.60432 0.77316 0.0
O245 O 0.52095 0.60419 0.8035 0.0
O246 O 0.42272 0.56236 0.82182 0.0
C247 C 0.73465 0.98287 0.82858 0.0
O248 O 0.74087 1.00012 0.805 0.0
O249 O 0.66787 1.0211 0.78588 0.0
Zn250 Zn 0.69361 1.02482 0.83517 0.0
O251 O 0.66994 0.03749 0.8744 0.0
C252 C 0.74989 0.07192 0.85773 0.0
O253 O 0.75302 0.0654 0.89002 0.0
O254 O 0.7127 0.98718 0.84439 0.0
C255 C 0.67374 0.06486 0.89333 0.0
O256 O 0.69444 0.08662 0.88824 0.0
C257 C 0.65837 0.04653 0.78328 0.0
O258 O 0.66401 0.06896 0.81185 0.0
O259 O 0.7273 0.05876 0.83451 0.0
C260 C 0.84121 0.62758 0.95022 0.0
O261 O 0.84536 0.65349 0.93771 0.0
O262 O 0.81968 0.68281 1.00544 0.0
Zn263 Zn 0.79292 0.6531 0.964 0.0
O264 O 0.78896 0.67732 0.92426 0.0
C265 C 0.74825 0.65637 1.00745 0.0
O266 O 0.76703 0.68194 0.02292 0.0
O267 O 0.81558 0.61789 0.95638 0.0
C268 C 0.77752 0.70191 0.92988 0.0
O269 O 0.76415 0.70695 0.95785 0.0
C270 C 0.83738 0.70732 1.00403 0.0
O271 O 0.83966 0.71549 0.97309 0.0
O272 O 0.75388 0.63948 0.97971 0.0
C273 C 0.97033 0.71104 0.81525 0.0
O274 O 0.96607 0.69054 0.78507 0.0
O275 O 1.023 0.65421 0.79374 0.0
Zn276 Zn 1.00666 0.66776 0.8398 0.0
O277 O 1.03449 0.66561 0.88597 0.0
C278 C 0.95991 0.6119 0.81594 0.0
O279 O 0.97215 0.60526 0.78728 0.0
O280 O 0.98898 0.70785 0.84163 0.0
C281 C 1.03854 0.63803 0.88857 0.0
O282 O 1.02685 0.61525 0.86127 0.0
C283 C 0.04873 0.64753 0.79185 0.0
O284 O 0.06818 0.65211 0.82143 0.0
O285 O 0.97117 0.63611 0.83955 0.0
C286 C 0.73689 0.48831 0.61677 0.0
O287 O 0.76157 0.49941 0.63961 0.0
O288 O 0.78794 0.42921 0.63396 0.0
Zn289 Zn 0.77519 0.44613 0.58897 0.0
O290 O 0.77777 0.41527 0.54207 0.0
C291 C 0.82487 0.4978 0.6161 0.0
O292 O 0.82397 0.49003 0.64751 0.0
O293 O 0.73642 0.46438 0.59232 0.0
C294 C 0.80384 0.40985 0.5386 0.0
O295 O 0.82587 0.42314 0.56469 0.0
C296 C 0.79627 0.40317 0.63591 0.0
O297 O 0.79514 0.38282 0.60625 0.0
O298 O 0.80609 0.48283 0.58913 0.0
C299 C 0.75554 0.52034 0.34265 0.0
O300 O 0.72679 0.51385 0.33104 0.0
O301 O 0.71066 0.58615 0.31432 0.0
Zn302 Zn 0.743 0.59145 0.35979 0.0
O303 O 0.71864 0.59353 0.40585 0.0
C304 C 0.75936 0.65993 0.34737 0.0
O305 O 0.73047 0.65424 0.33676 0.0
O306 O 0.76695 0.54963 0.35505 0.0
C307 C 0.69038 0.59286 0.40483 0.0
O308 O 0.67417 0.59107 0.3734 0.0
C309 C 0.71654 0.58388 0.2825 0.0
O310 O 0.74392 0.58213 0.27768 0.0
O311 O 0.77087 0.63782 0.35942 0.0
Nd312 Nd 0.11411 0.12516 0.09646 0.0
Nd313 Nd 0.07688 0.07092 0.07705 0.0
C314 C 0.14871 0.18049 0.11492 0.0
C315 C 0.14915 0.20577 0.09376 0.0
C316 C 0.14114 0.23439 0.10763 0.0
C317 C 0.13686 0.25634 0.08579 0.0
C318 C 0.14029 0.25004 0.04951 0.0
C319 C 0.14941 0.22193 0.03605 0.0
C320 C 0.15373 0.20006 0.05783 0.0
C321 C 0.11722 0.10244 0.02436 0.0
C322 C 0.04885 0.1305 0.0615 0.0
C323 C 0.04389 1.01492 0.05665 0.0
C324 C 0.04822 0.98769 0.07373 0.0
C325 C 0.07521 0.97625 0.07487 0.0
C326 C 0.082 0.95557 0.09742 0.0
C327 C 0.06201 0.94568 0.11938 0.0
C328 C 1.0345 0.95602 0.1171 0.0
C329 C 1.02766 0.97669 0.09446 0.0
C330 C 0.07227 0.09498 0.14874 0.0
C331 C 0.14103 0.06491 0.11376 0.0
O332 O 0.12459 0.17389 0.12818 0.0
O333 O 0.15802 0.15532 0.10116 0.0
O334 O 0.11022 0.12902 0.03681 0.0
O335 O 0.11687 0.08622 0.04892 0.0
O336 O 0.0719 0.14524 0.08502 0.0
O337 O 0.0471 0.10054 0.04847 0.0
O338 O 0.06443 1.02502 0.03916 0.0
O339 O 1.03555 0.03784 0.07677 0.0
O340 O 0.0778 0.06748 0.13698 0.0
O341 O 0.07411 0.11064 0.12389 0.0
O342 O 0.11793 0.05001 0.09064 0.0
O343 O 0.1432 0.09516 0.12583 0.0
H344 H 0.13719 0.23933 0.13505 0.0
H345 H 0.12996 0.27786 0.09697 0.0
H346 H 0.153 0.21671 1.00852 0.0
H347 H 0.15982 0.17827 0.04605 0.0
H348 H 0.0918 0.98436 0.05963 0.0
H349 H 0.10331 0.94794 0.09839 0.0
H350 H 1.01881 0.94938 0.13413 0.0
H351 H 1.00692 0.98542 0.09466 0.0
Nd352 Nd 0.34875 0.87367 0.35443 0.0
Nd353 Nd 0.33898 0.81379 0.31581 0.0
C354 C 0.35175 0.92956 0.39488 0.0
C355 C 0.35788 0.96064 0.38598 0.0
C356 C 0.35144 0.9638 0.35011 0.0
C357 C 0.36431 0.99029 0.3391 0.0
C358 C 0.38353 1.01415 0.36395 0.0
C359 C 0.38792 1.0124 0.40044 0.0
C360 C 0.37524 0.98559 0.41141 0.0
C361 C 0.40324 0.85671 0.34011 0.0
C362 C 0.335 0.86872 0.26957 0.0
C363 C 0.33852 0.75823 0.27625 0.0
C364 C 0.33816 0.72766 0.28635 0.0
C365 C 0.3486 0.7261 0.32203 0.0
C366 C 0.33956 0.6994 0.33526 0.0
C367 C 0.32025 0.67397 0.31285 0.0
C368 C 0.31261 0.67415 0.27621 0.0
C369 C 0.3214 0.70103 0.26303 0.0
C370 C 0.28476 0.82853 0.33244 0.0
C371 C 0.34977 0.81906 0.40041 0.0
O372 O 0.3268 0.91184 0.37867 0.0
O373 O 0.37396 0.91449 0.39455 0.0
O374 O 0.39434 0.88231 0.33432 0.0
O375 O 0.38239 0.84013 0.35032 0.0
O376 O 0.33422 0.88656 0.30034 0.0
O377 O 0.34171 0.84069 0.26925 0.0
O378 O 0.36267 0.77885 0.28813 0.0
O379 O 0.31464 0.76995 0.28046 0.0
O380 O 0.29515 0.80358 0.33773 0.0
O381 O 0.30435 0.84634 0.32138 0.0
O382 O 0.35409 0.80222 0.37055 0.0
O383 O 0.34147 0.84626 0.39966 0.0
H384 H 0.33824 0.94481 0.33014 0.0
H385 H 0.36085 0.99123 0.31083 0.0
H386 H 0.403 0.03058 0.41988 0.0
H387 H 0.38069 0.98344 0.43914 0.0
H388 H 0.36161 0.74637 0.34045 0.0
H389 H 0.34564 0.69957 0.3636 0.0
H390 H 0.29755 0.6547 0.25862 0.0
H391 H 0.31297 0.70192 0.23551 0.0
Nd392 Nd 0.62471 0.10744 0.58819 0.0
Nd393 Nd 0.56732 0.08477 0.58606 0.0
C394 C 0.68129 0.12231 0.58288 0.0
C395 C 0.7071 0.11275 0.60189 0.0
C396 C 0.73493 0.11787 0.59129 0.0
C397 C 0.75892 0.10726 0.60897 0.0
C398 C 0.75516 0.09139 0.63728 0.0
C399 C 0.7274 0.08712 0.64834 0.0
C400 C 0.70352 0.09745 0.63057 0.0
C401 C 0.6174 0.08681 0.65148 0.0
C402 C 0.60115 0.03517 0.55065 0.0
C403 C 0.51012 0.06915 0.58921 0.0
C404 C 0.48357 0.07121 0.56436 0.0
C405 C 0.45563 0.06905 0.57502 0.0
C406 C 0.43109 0.07384 0.55204 0.0
C407 C 0.43441 0.08098 0.51833 0.0
C408 C 0.4621 0.08165 0.50718 0.0
C409 C 0.48645 0.07697 0.53006 0.0
C410 C 0.57538 0.10588 0.52294 0.0
C411 C 0.59044 0.15646 0.62311 0.0
O412 O 0.66298 0.09988 0.56046 0.0
O413 O 0.66757 0.14016 0.60313 0.0
O414 O 0.63211 0.11341 0.6496 0.0
O415 O 0.60584 0.07191 0.62054 0.0
O416 O 0.61767 0.06091 0.5468 0.0
O417 O 0.58215 0.0377 0.57295 0.0
O418 O 0.52622 0.09577 0.60583 0.0
O419 O 0.52629 0.04937 0.57672 0.0
O420 O 0.5611 0.07901 0.52457 0.0
O421 O 0.58647 0.12043 0.5541 0.0
O422 O 0.57546 0.13061 0.62906 0.0
O423 O 0.60825 0.15377 0.59936 0.0
H424 H 0.73797 0.12958 0.56913 0.0
H425 H 0.78017 0.11075 0.59999 0.0
H426 H 0.72408 0.07552 0.67053 0.0
H427 H 0.68213 0.09317 0.63901 0.0
H428 H 0.45299 0.06461 0.60139 0.0
H429 H 0.4099 0.07338 0.56121 0.0
H430 H 0.46513 0.08685 0.48119 0.0
H431 H 0.50767 0.0787 0.5212 0.0
Nd432 Nd 0.35922 0.3532 0.867 0.0
Nd433 Nd 0.33643 0.34278 0.80354 0.0
C434 C 0.36749 0.35824 0.93743 0.0
C435 C 0.35497 0.37588 0.96611 0.0
C436 C 0.33796 0.35991 0.9871 0.0
C437 C 0.32625 0.37649 0.01465 0.0
C438 C 0.33173 0.40929 0.02184 0.0
C439 C 0.34771 0.42512 0.99979 0.0
C440 C 0.35912 0.40862 0.97215 0.0
C441 C 0.37676 0.40882 0.84187 0.0
C442 C 0.28906 0.36417 0.84965 0.0
C443 C 0.32647 0.33683 0.73292 0.0
C444 C 0.33631 0.31787 0.70277 0.0
C445 C 0.35643 0.33199 0.68355 0.0
C446 C 0.36529 0.31425 0.65439 0.0
C447 C 0.35412 0.28214 0.64402 0.0
C448 C 0.33433 0.26804 0.66362 0.0
C449 C 0.32563 0.28564 0.69278 0.0
C450 C 0.31886 0.28781 0.82997 0.0
C451 C 0.40678 0.33235 0.82039 0.0
O452 O 0.34903 0.33568 0.91556 0.0
O453 O 0.38508 0.3743 0.92085 0.0
O454 O 0.39387 0.3938 0.85936 0.0
O455 O 0.35024 0.39323 0.83592 0.0
O456 O 0.31035 0.35958 0.87386 0.0
O457 O 0.29486 0.36298 0.81704 0.0
O458 O 0.3467 0.35831 0.75393 0.0
O459 O 0.30881 0.32218 0.75062 0.0
O460 O 0.3016 0.3029 0.81286 0.0
O461 O 0.34546 0.3029 0.8346 0.0
O462 O 0.38513 0.3363 0.79619 0.0
O463 O 0.4014 0.33414 0.85329 0.0
H464 H 0.33401 0.33462 0.98244 0.0
H465 H 0.31356 0.36371 0.03085 0.0
H466 H 0.35259 0.4504 1.00491 0.0
H467 H 0.37169 0.42162 0.95603 0.0
H468 H 0.36498 0.35682 0.69078 0.0
H469 H 0.38037 0.32571 0.63951 0.0
H470 H 0.32447 0.24357 0.65552 0.0
H471 H 0.31003 0.27402 0.70693 0.0
Nd472 Nd 0.09385 0.1223 0.60145 0.0
Nd473 Nd 0.09841 0.05336 0.5711 0.0
C474 C 0.08302 0.17505 0.63632 0.0
C475 C 0.1005 0.2065 0.64126 0.0
C476 C 0.08608 0.23143 0.63533 0.0
C477 C 0.10215 0.25875 0.62909 0.0
C478 C 0.13277 0.26129 0.62845 0.0
C479 C 0.14761 0.23762 0.63797 0.0
C480 C 0.13157 0.21034 0.64421 0.0
C481 C 0.14201 0.12184 0.56535 0.0
C482 C 0.06175 0.09338 0.51906 0.0
C483 C 0.0986 0.99621 0.53717 0.0
C484 C 0.08798 0.9653 0.5452 0.0
C485 C 0.10834 0.94676 0.55645 0.0
C486 C 0.09855 0.91937 0.56828 0.0
C487 C 0.06825 0.91016 0.56908 0.0
C488 C 0.04778 0.92777 0.55606 0.0
C489 C 0.0575 0.95506 0.54428 0.0
C490 C 0.06081 0.06142 0.62034 0.0
C491 C 0.13711 0.08483 0.64866 0.0
O492 O 0.07074 0.16296 0.60308 0.0
O493 O 0.09538 0.1552 0.65256 0.0
O494 O 0.13416 0.14718 0.58056 0.0
O495 O 0.12451 0.09894 0.56973 0.0
O496 O 0.06098 0.11411 0.54813 0.0
O497 O 0.07774 0.07082 0.52091 0.0
O498 O 0.12196 1.01327 0.55871 0.0
O499 O 0.07807 1.01249 0.52877 0.0
O500 O 0.07674 0.03964 0.6178 0.0
O501 O 0.06325 0.07657 0.59564 0.0
O502 O 0.13767 0.06546 0.61833 0.0
O503 O 0.11864 0.10526 0.64958 0.0
H504 H 0.06214 0.22884 0.63274 0.0
H505 H 0.09036 0.27698 0.6222 0.0
H506 H 0.17118 0.23907 0.63757 0.0
H507 H 0.14322 0.19132 0.64848 0.0
H508 H 0.1319 0.95399 0.55722 0.0
H509 H 0.11474 0.90603 0.57808 0.0
H510 H 1.02425 0.92073 0.55564 0.0
H511 H 1.04108 0.96854 0.53546 0.0
Nd512 Nd 0.37704 0.8706 0.85812 0.0
Nd513 Nd 0.32809 0.83444 0.81788 0.0
C514 C 0.42264 0.91551 0.88735 0.0
C515 C 0.45466 0.92545 0.89763 0.0
C516 C 0.47439 0.905 0.88966 0.0
C517 C 0.50455 0.91401 0.90388 0.0
C518 C 0.51513 0.94344 0.92628 0.0
C519 C 0.49536 0.96415 0.93319 0.0
C520 C 0.4653 0.9552 0.91883 0.0
C521 C 0.33732 0.85475 0.90258 0.0
C522 C 0.38248 0.79616 0.84239 0.0
C523 C 0.28096 0.79115 0.79134 0.0
C524 C 0.24864 0.7862 0.7877 0.0
C525 C 0.2338 0.75866 0.7952 0.0
C526 C 0.20291 0.75185 0.78844 0.0
C527 C 0.18658 0.77234 0.77356 0.0
C528 C 0.20149 0.80068 0.76781 0.0
C529 C 0.23233 0.80766 0.77501 0.0
C530 C 0.36807 0.84936 0.7732 0.0
C531 C 0.32122 0.90808 0.83431 0.0
O532 O 0.41119 0.91004 0.85331 0.0
O533 O 0.41003 0.89597 0.90497 0.0
O534 O 0.36487 0.85113 0.90705 0.0
O535 O 0.33089 0.86351 0.87325 0.0
O536 O 0.39842 0.8248 0.85176 0.0
O537 O 0.35354 0.79406 0.83228 0.0
O538 O 0.29575 0.79406 0.82364 0.0
O539 O 0.29312 0.81017 0.77273 0.0
O540 O 0.34049 0.85283 0.76828 0.0
O541 O 0.37437 0.84107 0.80287 0.0
O542 O 0.30589 0.87929 0.82495 0.0
O543 O 0.35035 0.91071 0.84405 0.0
H544 H 0.46634 0.88181 0.87365 0.0
H545 H 0.51934 0.89741 0.89883 0.0
H546 H 0.50304 0.98684 0.95051 0.0
H547 H 0.45015 0.9711 0.92539 0.0
H548 H 0.24615 0.74204 0.8054 0.0
H549 H 0.19184 0.73025 0.79397 0.0
H550 H 0.18939 0.81688 0.75633 0.0
H551 H 0.24337 0.8293 0.76949 0.0
Nd552 Nd 0.56972 0.05925 0.06761 0.0
Nd553 Nd 0.62099 0.10766 0.10235 0.0
C554 C 0.51784 0.02834 0.03283 0.0
C555 C 0.48842 0.02904 0.04239 0.0
C556 C 0.48475 0.05204 0.07086 0.0
C557 C 0.45751 0.05119 0.08272 0.0
C558 C 0.4337 1.02731 0.06623 0.0
C559 C 0.43717 1.00495 0.03692 0.0
C560 C 0.46448 1.00575 0.02513 0.0
C561 C 0.62034 0.035 0.08588 0.0
C562 C 0.58105 0.07843 0.1533 0.0
C563 C 0.67334 0.14303 0.12427 0.0
C564 C 0.7006 0.14695 0.10869 0.0
C565 C 0.71183 0.12096 0.09268 0.0
C566 C 0.73751 0.12526 0.07742 0.0
C567 C 0.75184 0.15551 0.07741 0.0
C568 C 0.74018 0.18138 0.09258 0.0
C569 C 0.71479 0.17712 0.10827 0.0
C570 C 0.56822 0.12917 0.10465 0.0
C571 C 0.61219 0.08562 0.01485 0.0
O572 O 0.53067 0.05427 0.02534 0.0
O573 O 0.53556 1.01646 0.0542 0.0
O574 O 0.59412 1.02253 0.09006 0.0
O575 O 0.61876 0.05887 0.07256 0.0
O576 O 0.56023 0.07138 0.12469 0.0
O577 O 0.6091 0.08543 0.14959 0.0
O578 O 0.666 0.11634 0.13421 0.0
O579 O 0.6508 0.15276 0.10767 0.0
O580 O 0.59061 0.13652 0.13052 0.0
O581 O 0.57447 0.11201 0.07772 0.0
O582 O 0.62642 0.10615 0.04341 0.0
O583 O 0.59 0.06411 0.01732 0.0
H584 H 0.50316 0.07022 0.08444 0.0
H585 H 0.45515 0.06882 0.10505 0.0
H586 H 0.41905 0.98622 0.02399 0.0
H587 H 0.46713 0.98779 1.00329 0.0
H588 H 0.70089 0.09739 0.09206 0.0
H589 H 0.74627 0.10507 0.06581 0.0
H590 H 0.75118 0.20492 0.0931 0.0
H591 H 0.70625 0.19738 0.12012 0.0
Nd592 Nd 0.33678 0.32443 0.29941 0.0
Nd593 Nd 0.38172 0.35842 0.3575 0.0
C594 C 0.29197 0.29676 0.25017 0.0
C595 C 0.26206 0.299 0.25961 0.0
C596 C 0.2521 0.32789 0.26189 0.0
C597 C 0.23464 0.33704 0.28749 0.0
C598 C 0.22625 0.31723 0.31069 0.0
C599 C 0.23225 0.28662 0.30459 0.0
C600 C 0.24956 0.2774 0.27883 0.0
C601 C 0.3273 0.31011 0.3647 0.0
C602 C 0.32127 0.38674 0.34443 0.0
C603 C 0.42742 0.38231 0.40738 0.0
C604 C 0.45675 0.3748 0.40007 0.0
C605 C 0.46201 0.34391 0.3983 0.0
C606 C 0.47946 0.33142 0.37425 0.0
C607 C 0.49209 0.34962 0.35175 0.0
C608 C 0.49137 0.38187 0.3585 0.0
C609 C 0.47406 0.3944 0.38265 0.0
C610 C 0.38947 0.37452 0.29229 0.0
C611 C 0.39722 0.29711 0.31176 0.0
O612 O 0.30798 0.32302 0.24736 0.0
O613 O 0.30748 0.28075 0.269 0.0
O614 O 0.3077 0.31815 0.34243 0.0
O615 O 0.35176 0.31241 0.35357 0.0
O616 O 0.31806 0.36928 0.31227 0.0
O617 O 0.34248 0.38389 0.37011 0.0
O618 O 0.40787 0.35889 0.41103 0.0
O619 O 0.41557 0.39934 0.38649 0.0
O620 O 0.40989 0.36657 0.31364 0.0
O621 O 0.3655 0.37075 0.30415 0.0
O622 O 0.39924 0.31317 0.34428 0.0
O623 O 0.37699 0.30109 0.28581 0.0
H624 H 0.26073 0.34502 0.24712 0.0
H625 H 0.22968 0.36052 0.29107 0.0
H626 H 0.22616 0.27077 0.32205 0.0
H627 H 0.25641 0.25482 0.27756 0.0
H628 H 0.44969 0.32814 0.41192 0.0
H629 H 0.48024 0.30674 0.37059 0.0
H630 H 0.50172 0.39683 0.34243 0.0
H631 H 0.47115 0.41847 0.38388 0.0
Nd632 Nd 0.59513 0.6293 0.1051 0.0
Nd633 Nd 0.59999 0.56646 0.07267 0.0
C634 C 0.58058 0.68428 0.12753 0.0
C635 C 0.58636 0.71353 0.11441 0.0
C636 C 0.58361 0.74194 0.13536 0.0
C637 C 0.59379 0.77017 0.12542 0.0
C638 C 0.60716 0.77028 0.09461 0.0
C639 C 0.60859 0.74163 0.0729 0.0
C640 C 0.59834 0.71352 0.08275 0.0
C641 C 0.6459 0.62796 0.07562 0.0
C642 C 0.5658 0.60237 0.01968 0.0
C643 C 0.61323 0.51098 0.04923 0.0
C644 C 0.60931 0.48083 0.06063 0.0
C645 C 0.61058 0.45357 0.03654 0.0
C646 C 0.60434 0.42444 0.04609 0.0
C647 C 0.59683 0.42223 0.07996 0.0
C648 C 0.5959 0.44971 0.10417 0.0
C649 C 0.60206 0.47881 0.09457 0.0
C650 C 0.55069 0.56992 0.10624 0.0
C651 C 0.63333 0.59327 0.15534 0.0
O652 O 0.56211 0.6613 0.10591 0.0
O653 O 0.60442 0.67535 0.14174 0.0
O654 O 0.64416 0.64578 0.10537 0.0
O655 O 0.62084 0.61233 0.06098 0.0
O656 O 0.56275 0.62032 0.04995 0.0
O657 O 0.58451 0.58261 0.02089 0.0
O658 O 0.63215 0.53367 0.07066 0.0
O659 O 0.58868 0.51985 0.03708 0.0
O660 O 0.55022 0.55182 0.07583 0.0
O661 O 0.57649 0.58417 0.11836 0.0
O662 O 0.63516 0.57597 0.12431 0.0
O663 O 0.61418 0.61284 0.15634 0.0
H664 H 0.57456 0.74233 0.15998 0.0
H665 H 0.59186 0.7919 0.14225 0.0
H666 H 0.6189 0.74097 0.04913 0.0
H667 H 0.60095 0.69176 0.06646 0.0
H668 H 0.61573 0.45476 1.01005 0.0
H669 H 0.60459 0.40362 0.02661 0.0
H670 H 0.5902 0.44865 0.13044 0.0
H671 H 0.60066 0.49969 0.11334 0.0
Nd672 Nd 0.8706 0.36644 0.35096 0.0
Nd673 Nd 0.81461 0.32849 0.32319 0.0
C674 C 0.92229 0.40456 0.366 0.0
C675 C 0.95232 0.40402 0.38393 0.0
C676 C 0.96611 0.37795 0.37564 0.0
C677 C 0.99425 0.37746 0.39385 0.0
C678 C 1.00881 0.40284 0.42077 0.0
C679 C 0.99497 0.42877 0.42927 0.0
C680 C 0.96693 0.42943 0.41078 0.0
C681 C 0.83998 0.35318 0.40552 0.0
C682 C 0.8699 0.29003 0.34192 0.0
C683 C 0.75927 0.2991 0.30421 0.0
C684 C 0.72732 0.30081 0.29985 0.0
C685 C 0.70867 0.2822 0.31677 0.0
C686 C 0.67814 0.27483 0.30393 0.0
C687 C 0.66611 0.28519 0.27329 0.0
C688 C 0.68418 0.30736 0.25982 0.0
C689 C 0.71452 0.3152 0.27307 0.0
C690 C 0.8523 0.32559 0.27336 0.0
C691 C 0.81621 0.40617 0.33383 0.0
O692 O 0.91283 0.38541 0.33522 0.0
O693 O 0.90212 0.4058 0.38661 0.0
O694 O 0.86744 0.35002 0.40463 0.0
O695 O 0.82929 0.36061 0.37682 0.0
O696 O 0.88653 0.31756 0.3431 0.0
O697 O 0.84074 0.28923 0.34082 0.0
O698 O 0.77438 0.30097 0.33629 0.0
O699 O 0.77469 0.31172 0.28258 0.0
O700 O 0.83559 0.30183 0.27978 0.0
O701 O 0.84877 0.35063 0.29289 0.0
O702 O 0.79961 0.37784 0.32314 0.0
O703 O 0.84505 0.40804 0.34451 0.0
H704 H 0.95509 0.35785 0.35539 0.0
H705 H 1.00447 0.35706 0.38732 0.0
H706 H 1.00593 0.44853 0.45004 0.0
H707 H 0.9565 0.44962 0.41766 0.0
H708 H 0.71794 0.2711 0.33775 0.0
H709 H 0.66451 0.25855 0.31567 0.0
H710 H 0.67563 0.31606 0.23644 0.0
H711 H 0.72822 0.33009 0.25982 0.0
Nd712 Nd 0.07059 0.5752 0.56623 0.0
Nd713 Nd 0.12995 0.61199 0.60337 0.0
C714 C 1.01411 0.55477 0.53905 0.0
C715 C 0.98506 0.55581 0.54961 0.0
C716 C 0.98105 0.57874 0.57792 0.0
C717 C 0.95371 0.57715 0.58989 0.0
C718 C 0.93036 0.5526 0.57366 0.0
C719 C 0.93421 0.53058 0.54433 0.0
C720 C 0.9614 0.53217 0.53244 0.0
C721 C 0.11299 0.53877 0.57687 0.0
C722 C 0.08269 0.59824 0.65469 0.0
C723 C 0.18566 0.63832 0.62815 0.0
C724 C 0.2141 0.63761 0.61578 0.0
C725 C 0.21511 0.62584 0.57972 0.0
C726 C 0.24215 0.62802 0.56727 0.0
C727 C 0.26849 0.64245 0.59067 0.0
C728 C 0.26742 0.65329 0.62709 0.0
C729 C 0.24039 0.65069 0.63957 0.0
C730 C 0.08591 0.64708 0.59384 0.0
C731 C 0.12016 0.58299 0.5165 0.0
O732 O 1.02878 0.58108 0.53452 0.0
O733 O 1.03075 0.53848 0.55595 0.0
O734 O 0.09188 0.5326 0.54938 0.0
O735 O 0.10986 0.56191 0.59957 0.0
O736 O 0.06292 0.59031 0.62476 0.0
O737 O 0.11138 0.60317 0.65352 0.0
O738 O 0.1733 0.61269 0.63683 0.0
O739 O 0.16686 0.65123 0.60938 0.0
O740 O 0.10553 0.65161 0.62249 0.0
O741 O 0.09057 0.62513 0.57071 0.0
O742 O 0.13906 0.59198 0.54694 0.0
O743 O 0.09131 0.5798 0.51617 0.0
H744 H 0.99921 0.59728 0.59126 0.0
H745 H 0.95096 0.59456 0.61218 0.0
H746 H 0.91656 0.51128 0.53161 0.0
H747 H 0.96425 0.51432 0.51058 0.0
H748 H 0.19493 0.61594 0.56099 0.0
H749 H 0.24234 0.61957 0.5391 0.0
H750 H 0.2872 0.66539 0.64556 0.0
H751 H 0.23987 0.6601 0.66744 0.0
Nd752 Nd 0.85658 0.85268 0.36491 0.0
Nd753 Nd 0.83281 0.84237 0.30086 0.0
C754 C 0.87246 0.85772 0.43471 0.0
C755 C 0.86326 0.85827 0.46981 0.0
C756 C 0.8773 0.84168 0.49318 0.0
C757 C 0.87901 0.85092 0.5301 0.0
C758 C 0.86722 0.87724 0.54365 0.0
C759 C 0.84873 0.89007 0.52008 0.0
C760 C 0.84674 0.88061 0.48317 0.0
C761 C 0.87487 0.90695 0.33773 0.0
C762 C 0.78571 0.86017 0.34985 0.0
C763 C 0.82228 0.8385 0.23053 0.0
C764 C 0.8321 0.82048 0.19966 0.0
C765 C 0.8508 0.83581 0.17979 0.0
C766 C 0.85986 0.819 0.15014 0.0
C767 C 0.85032 0.78658 0.1399 0.0
C768 C 0.83195 0.77127 0.16013 0.0
C769 C 0.82306 0.78798 0.18979 0.0
C770 C 0.815 0.78727 0.32654 0.0
C771 C 0.90369 0.83244 0.3163 0.0
O772 O 0.86832 0.83117 0.41224 0.0
O773 O 0.86906 0.88134 0.41924 0.0
O774 O 0.89196 0.89112 0.35396 0.0
O775 O 0.8481 0.89244 0.33349 0.0
O776 O 0.80682 0.85325 0.37258 0.0
O777 O 0.79196 0.86252 0.31794 0.0
O778 O 0.84254 0.85965 0.25199 0.0
O779 O 0.80479 0.82309 0.24781 0.0
O780 O 0.79796 0.80178 0.30822 0.0
O781 O 0.84154 0.80263 0.33217 0.0
O782 O 0.88074 0.83328 0.29195 0.0
O783 O 0.89986 0.8374 0.34985 0.0
H784 H 0.88981 0.82403 0.48325 0.0
H785 H 0.89278 0.84023 0.54794 0.0
H786 H 0.83906 0.91016 0.52993 0.0
H787 H 0.83519 0.89328 0.4655 0.0
H788 H 0.85812 0.86087 0.18695 0.0
H789 H 0.87385 0.83137 0.13481 0.0
H790 H 0.82341 0.74647 0.15222 0.0
H791 H 0.80865 0.77542 0.20451 0.0
Nd792 Nd 0.85471 0.37759 0.85803 0.0
Nd793 Nd 0.84148 0.31746 0.8197 0.0
C794 C 0.85972 0.43393 0.89829 0.0
C795 C 0.86281 0.46496 0.88885 0.0
C796 C 0.85137 0.46798 0.85406 0.0
C797 C 0.86103 0.49476 0.84126 0.0
C798 C 0.88192 0.5191 0.86332 0.0
C799 C 0.89132 0.51728 0.89921 0.0
C800 C 0.88194 0.49022 0.91185 0.0
C801 C 0.9074 0.35824 0.84147 0.0
C802 C 0.84165 0.37222 0.77325 0.0
C803 C 0.83619 0.26118 0.77958 0.0
C804 C 0.83256 0.22969 0.7878 0.0
C805 C 0.8481 0.22371 0.81935 0.0
C806 C 0.84023 0.19544 0.83029 0.0
C807 C 0.81663 0.17284 0.80995 0.0
C808 C 0.80195 0.17855 0.7777 0.0
C809 C 0.81001 0.2066 0.76663 0.0
C810 C 0.78875 0.33729 0.8353 0.0
C811 C 0.85436 0.32227 0.90407 0.0
O812 O 0.83432 0.41532 0.8863 0.0
O813 O 0.88214 0.41977 0.89368 0.0
O814 O 0.89932 0.38432 0.83629 0.0
O815 O 0.88655 0.34217 0.85247 0.0
O816 O 0.84052 0.3903 0.80377 0.0
O817 O 0.84735 0.34386 0.77335 0.0
O818 O 0.86172 0.27945 0.79188 0.0
O819 O 0.81385 0.27554 0.78393 0.0
O820 O 0.79695 0.3116 0.84183 0.0
O821 O 0.80985 0.353 0.82436 0.0
O822 O 0.8554 0.30427 0.87352 0.0
O823 O 0.8489 0.35077 0.90424 0.0
H824 H 0.8365 0.44877 0.8361 0.0
H825 H 0.85349 0.49579 0.81357 0.0
H826 H 0.90766 0.53571 0.91663 0.0
H827 H 0.8912 0.4882 0.93869 0.0
H828 H 0.86542 0.24136 0.83632 0.0
H829 H 0.8519 0.1917 0.85524 0.0
H830 H 0.78307 0.16212 0.76194 0.0
H831 H 0.79746 0.21099 0.74255 0.0
Nd832 Nd 0.83165 0.82961 0.80852 0.0
Nd833 Nd 0.86887 0.86244 0.87496 0.0
C834 C 0.79155 0.80586 0.75232 0.0
C835 C 0.76099 0.81154 0.75597 0.0
C836 C 0.75609 0.84266 0.76259 0.0
C837 C 0.73783 0.852 0.78716 0.0
C838 C 0.72305 0.83017 0.80428 0.0
C839 C 0.72313 0.79825 0.79174 0.0
C840 C 0.74184 0.78899 0.76763 0.0
C841 C 0.81494 0.80963 0.86864 0.0
C842 C 0.81094 0.8907 0.84903 0.0
C843 C 0.90699 0.88538 0.93328 0.0
C844 C 0.93809 0.88049 0.93159 0.0
C845 C 0.94517 0.85075 0.93344 0.0
C846 C 0.9639 0.83813 0.91131 0.0
C847 C 0.97584 0.85507 0.88726 0.0
C848 C 0.97426 0.88704 0.89173 0.0
C849 C 0.95574 0.89979 0.91407 0.0
C850 C 0.88724 0.88306 0.81651 0.0
C851 C 0.89111 0.80316 0.82962 0.0
O852 O 0.81126 0.83052 0.75259 0.0
O853 O 0.80193 0.78821 0.77343 0.0
O854 O 0.79712 0.8182 0.84472 0.0
O855 O 0.84084 0.81505 0.86217 0.0
O856 O 0.81293 0.87425 0.81789 0.0
O857 O 0.82731 0.88682 0.87859 0.0
O858 O 0.88746 0.86009 0.93103 0.0
O859 O 0.89711 0.90349 0.91242 0.0
O860 O 0.90432 0.87498 0.84153 0.0
O861 O 0.86068 0.87721 0.82108 0.0
O862 O 0.89057 0.81911 0.8618 0.0
O863 O 0.87313 0.80713 0.80151 0.0
H864 H 0.76972 0.86072 0.75328 0.0
H865 H 0.7382 0.87674 0.79558 0.0
H866 H 0.71108 0.78063 0.80332 0.0
H867 H 0.74443 0.76469 0.76242 0.0
H868 H 0.93297 0.83551 0.94775 0.0
H869 H 0.96619 0.81397 0.91008 0.0
H870 H 0.98486 0.90138 0.87524 0.0
H871 H 0.95191 0.92331 0.91315 0.0
Nd872 Nd 0.61706 0.62098 0.60267 0.0
Nd873 Nd 0.5772 0.57436 0.57526 0.0
C874 C 0.64372 0.67996 0.62327 0.0
C875 C 0.64221 0.70386 0.60055 0.0
C876 C 0.64544 0.73571 0.6156 0.0
C877 C 0.6411 0.75756 0.59351 0.0
C878 C 0.63305 0.74788 0.55599 0.0
C879 C 0.63028 0.71599 0.54109 0.0
C880 C 0.63467 0.69428 0.56307 0.0
C881 C 0.63205 0.5973 0.53616 0.0
C882 C 0.55534 0.63377 0.55898 0.0
C883 C 0.54972 0.5156 0.55571 0.0
C884 C 0.55091 0.4911 0.57789 0.0
C885 C 0.5624 0.46408 0.56596 0.0
C886 C 0.56933 0.44403 0.58941 0.0
C887 C 0.56457 0.45041 0.62514 0.0
C888 C 0.55149 0.47637 0.6365 0.0
C889 C 0.54497 0.49665 0.61328 0.0
C890 C 0.56204 0.59929 0.64138 0.0
C891 C 0.63994 0.56102 0.61571 0.0
O892 O 0.6187 0.6694 0.63255 0.0
O893 O 0.65767 0.65739 0.61252 0.0
O894 O 0.64939 0.60382 0.56673 0.0
O895 O 0.60558 0.60072 0.54095 0.0
O896 O 0.57711 0.64405 0.58597 0.0
O897 O 0.55186 0.60437 0.543 0.0
O898 O 0.5746 0.52562 0.54572 0.0
O899 O 0.53621 0.53854 0.56652 0.0
O900 O 0.54513 0.59311 0.61055 0.0
O901 O 0.58836 0.59488 0.63693 0.0
O902 O 0.61764 0.55126 0.5893 0.0
O903 O 0.64327 0.59008 0.63289 0.0
H904 H 0.6508 0.74362 0.64441 0.0
H905 H 0.64339 0.78196 0.60583 0.0
H906 H 0.62479 0.70775 0.51234 0.0
H907 H 0.63165 0.66979 0.55075 0.0
H908 H 0.56744 0.45932 0.53902 0.0
H909 H 0.5792 0.424 0.57995 0.0
H910 H 0.54764 0.48184 0.66391 0.0
H911 H 0.53649 0.51741 0.62365 0.0
Nd912 Nd 0.12839 0.60546 0.08779 0.0
Nd913 Nd 0.07189 0.58287 0.08868 0.0
C914 C 0.18457 0.62232 0.08247 0.0
C915 C 0.21125 0.61733 0.10512 0.0
C916 C 0.21364 0.58745 0.11193 0.0
C917 C 0.23647 0.58343 0.13754 0.0
C918 C 0.25715 0.60922 0.15741 0.0
C919 C 0.25528 0.63903 0.15001 0.0
C920 C 0.23245 0.64305 0.12408 0.0
C921 C 0.12467 0.58408 0.15179 0.0
C922 C 0.10499 0.53343 0.05179 0.0
C923 C 1.01536 0.56788 0.0947 0.0
C924 C 0.98919 0.57361 0.07213 0.0
C925 C 0.96036 0.56345 0.07787 0.0
C926 C 0.9359 0.57008 0.05633 0.0
C927 C 0.94019 0.58693 0.02895 0.0
C928 C 0.96908 0.59596 0.02257 0.0
C929 C 0.99333 0.58963 0.04416 0.0
C930 C 0.07725 0.60124 0.02362 0.0
C931 C 0.09522 0.65462 0.12474 0.0
O932 O 0.16762 0.5976 0.06202 0.0
O933 O 0.16932 0.64111 0.0989 0.0
O934 O 0.13895 0.61064 0.14909 0.0
O935 O 0.11121 0.56982 0.1213 0.0
O936 O 0.12041 0.5591 0.04606 0.0
O937 O 0.08764 0.53625 0.07607 0.0
O938 O 1.03281 0.59283 0.11372 0.0
O939 O 1.03011 0.5484 0.07849 0.0
O940 O 0.06308 0.57493 0.02715 0.0
O941 O 0.08902 0.61733 0.05396 0.0
O942 O 0.08063 0.62886 0.13119 0.0
O943 O 0.11207 0.65175 0.10003 0.0
H944 H 0.19748 0.56717 0.09811 0.0
H945 H 0.23797 0.56001 0.14171 0.0
H946 H 0.27113 0.65924 0.1647 0.0
H947 H 0.23079 0.66637 0.11961 0.0
H948 H 0.95681 0.55091 0.09925 0.0
H949 H 0.91378 0.56294 0.06174 0.0
H950 H 0.97295 0.60851 1.00127 0.0
H951 H 1.0154 0.59771 0.03934 0.0
C952 C 0.14301 0.32625 0.01517 0.0
C953 C 0.12569 0.31736 0.98061 0.0
C954 C 0.14725 0.30451 0.0373 0.0
C955 C 0.13456 0.2728 0.02583 0.0
H956 H 0.15366 0.35029 0.02533 0.0
H957 H 0.16109 0.31253 0.0634 0.0
S958 S 0.08594 0.23729 0.93875 0.0
N959 N 0.09483 0.27447 0.93662 0.0
N960 N 0.10273 0.2337 0.97831 0.0
C961 C 0.11677 0.26355 0.99164 0.0
C962 C 0.11232 0.28576 0.96908 0.0
C963 C 0.20063 0.80136 0.32822 0.0
C964 C 0.18619 0.82306 0.31238 0.0
C965 C 0.23194 0.80425 0.33551 0.0
C966 C 0.25128 0.82885 0.3271 0.0
H967 H 0.18749 0.78126 0.33457 0.0
H968 H 0.24106 0.78629 0.34718 0.0
S969 S 0.22588 0.89275 0.28564 0.0
N970 N 0.19454 0.87089 0.28915 0.0
N971 N 0.25306 0.87611 0.30238 0.0
C972 C 0.23736 0.8513 0.31197 0.0
C973 C 0.20514 0.84849 0.3048 0.0
C974 C 0.57959 0.94877 0.5085 0.0
C975 C 0.59729 0.94459 0.48153 0.0
C976 C 0.58166 0.97782 0.53113 0.0
C977 C 0.60151 1.00421 0.52793 0.0
H978 H 0.56358 0.92951 0.51205 0.0
H979 H 0.56708 0.9796 0.55093 0.0
S980 S 0.65418 1.00572 0.46303 0.0
N981 N 0.63638 0.9693 0.45394 0.0
N982 N 0.64023 1.02392 0.49641 0.0
C983 C 0.61994 1.0003 0.50168 0.0
C984 C 0.61784 0.97056 0.47854 0.0
C985 C 0.49214 0.33213 0.82639 0.0
C986 C 0.49602 0.32393 0.79019 0.0
C987 C 0.46353 0.33401 0.83619 0.0
C988 C 0.43715 0.32798 0.81039 0.0
H989 H 0.51139 0.3376 0.84738 0.0
H990 H 0.46222 0.34098 0.8643 0.0
S991 S 0.43392 0.30347 0.71212 0.0
N992 N 0.46953 0.3081 0.72865 0.0
N993 N 0.41727 0.31198 0.74698 0.0
C994 C 0.44071 0.31917 0.77434 0.0
C995 C 0.46953 0.31706 0.76437 0.0
C996 C 0.05791 0.82847 0.58931 0.0
C997 C 1.04049 0.83089 0.6167 0.0
C998 C 0.06655 0.85409 0.57371 0.0
C999 C 0.05811 0.88305 0.58498 0.0
H1000 H 0.06514 0.80666 0.57999 0.0
H1001 H 0.07999 0.85126 0.55275 0.0
S1002 S 1.01427 0.90235 0.65729 0.0
N1003 N 1.01587 0.86496 0.65511 0.0
N1004 N 1.03256 0.91319 0.62617 0.0
C1005 C 1.04073 0.88584 0.61231 0.0
C1006 C 1.03177 0.85974 0.62806 0.0
C1007 C 0.57957 0.95988 1.00266 0.0
C1008 C 0.60348 0.95415 0.98493 0.0
C1009 C 0.55129 0.95851 0.98327 0.0
C1010 C 0.54597 0.95093 0.94558 0.0
H1011 H 0.58237 0.96377 0.03166 0.0
H1012 H 0.53309 0.96132 0.99791 0.0
S1013 S 0.60178 0.93843 0.88634 0.0
N1014 N 0.62069 0.94449 0.92739 0.0
N1015 N 0.56721 0.9411 0.89117 0.0
C1016 C 0.57002 0.94737 0.92753 0.0
C1017 C 0.59894 0.94937 0.94718 0.0
C1018 C 0.5056 0.17038 0.07376 0.0
C1019 C 0.49904 0.18521 0.10652 0.0
C1020 C 0.52684 0.15054 0.07296 0.0
C1021 C 0.54202 0.14492 0.10492 0.0
H1022 H 0.4952 0.17523 0.04872 0.0
H1023 H 0.53246 0.14088 0.04736 0.0
S1024 S 0.52903 0.17426 0.19712 0.0
N1025 N 0.50641 0.18996 0.17112 0.0
N1026 N 0.54627 0.15282 0.16989 0.0
C1027 C 0.53378 0.15767 0.13759 0.0
C1028 C 0.51224 0.1778 0.13834 0.0
C1029 C 0.22405 0.3684 0.40035 0.0
C1030 C 0.20037 0.35201 0.41276 0.0
C1031 C 0.23143 0.3575 0.36673 0.0
C1032 C 0.21554 0.32982 0.34415 0.0
H1033 H 0.23725 0.38961 0.41683 0.0
H1034 H 0.2504 0.37028 0.35885 0.0
S1035 S 0.15066 0.27894 0.36277 0.0
N1036 N 0.16027 0.30697 0.39879 0.0
N1037 N 0.17434 0.28697 0.33574 0.0
C1038 C 0.19147 0.31355 0.35577 0.0
C1039 C 0.18383 0.32457 0.38996 0.0
C1040 C 1.02655 0.13625 0.2153 0.0
C1041 C 1.01329 0.11257 0.23199 0.0
C1042 C 0.04546 0.13059 0.1893 0.0
C1043 C 0.05289 0.10088 0.17821 0.0
H1044 H 1.02215 0.15978 0.22218 0.0
H1045 H 0.0543 0.1499 0.17765 0.0
S1046 S 1.0249 0.03009 0.21286 0.0
N1047 N 1.00965 0.05764 0.23458 0.0
N1048 N 0.04491 0.04709 0.18677 0.0
C1049 C 1.04001 0.07691 0.19477 0.0
C1050 C 1.02045 0.08265 0.2211 0.0
C1051 C 0.38902 0.78114 0.47096 0.0
C1052 C 0.37793 0.79223 0.50218 0.0
C1053 C 0.37899 0.78915 0.43805 0.0
C1054 C 0.35802 0.80923 0.43515 0.0
H1055 H 0.40516 0.76564 0.47175 0.0
H1056 H 0.38821 0.77992 0.41482 0.0
S1057 S 0.32225 0.84484 0.50908 0.0
N1058 N 0.34455 0.82407 0.52807 0.0
N1059 N 0.32651 0.83995 0.46657 0.0
C1060 C 0.34691 0.82064 0.46623 0.0
C1061 C 0.35664 0.81193 0.4996 0.0
C1062 C 0.63342 0.08161 0.74912 0.0
C1063 C 0.64404 0.05315 0.74868 0.0
C1064 C 0.62358 0.09142 0.71741 0.0
C1065 C 0.62323 0.07296 0.68372 0.0
H1066 H 0.63365 0.09723 0.77426 0.0
H1067 H 0.61688 0.11411 0.71928 0.0
S1068 S 0.64739 0.99599 0.66679 0.0
N1069 N 0.65274 1.00615 0.71099 0.0
N1070 N 0.63347 1.02445 0.65128 0.0
C1071 C 0.6324 0.04381 0.6825 0.0
C1072 C 0.64295 0.03392 0.71498 0.0
C1073 C 0.31669 0.47855 0.08437 0.0
C1074 C 0.33043 0.47395 0.11757 0.0
C1075 C 0.31391 0.45563 0.05338 0.0
C1076 C 0.32479 0.42756 0.05479 0.0
H1077 H 0.31071 0.50098 0.08164 0.0
H1078 H 0.30555 0.46099 0.02775 0.0
S1079 S 0.35588 0.40172 0.13698 0.0
N1080 N 0.34934 0.43711 0.1514 0.0
N1081 N 0.34508 0.39447 0.09311 0.0
C1082 C 0.33496 0.4212 0.08856 0.0
C1083 C 0.33756 0.44439 0.12004 0.0
C1084 C 1.02831 0.0721 0.41874 0.0
C1085 C 1.01143 0.09558 0.41281 0.0
C1086 C 0.04431 0.07186 0.45271 0.0
C1087 C 0.04445 0.09504 0.48305 0.0
H1088 H 1.02915 0.05332 0.39687 0.0
H1089 H 0.05658 0.05297 0.45508 0.0
S1090 S 1.00447 0.16245 0.4827 0.0
N1091 N 0.99633 0.14315 0.44075 0.0
N1092 N 1.02624 0.14278 0.50441 0.0
C1093 C 1.02788 0.11893 0.47762 0.0
C1094 C 1.01151 0.11919 0.44274 0.0
C1095 C 0.38665 0.84159 0.67852 0.0
C1096 C 0.4059 0.81944 0.67689 0.0
C1097 C 0.37558 0.85194 0.71006 0.0
C1098 C 0.38355 0.84113 0.74185 0.0
H1099 H 0.37907 0.85032 0.65479 0.0
H1100 H 0.36002 0.86807 0.70924 0.0
S1101 S 0.43502 0.7848 0.75334 0.0
N1102 N 0.43352 0.78815 0.71094 0.0
N1103 N 0.41337 0.80812 0.77025 0.0
C1104 C 0.40385 0.82005 0.74123 0.0
C1105 C 0.41479 0.80908 0.70884 0.0
C1106 C 0.66803 0.09555 0.95219 0.0
C1107 C 0.65605 0.07183 0.92212 0.0
C1108 C 0.65291 0.10099 0.98125 0.0
C1109 C 0.62504 0.08309 0.98128 0.0
H1110 H 0.68982 0.10927 0.95397 0.0
H1111 H 0.66381 0.11859 1.00442 0.0
S1112 S 0.58188 1.02175 0.90609 0.0
N1113 N 0.61333 0.03266 0.89219 0.0
N1114 N 0.5846 0.04305 0.94656 0.0
C1115 C 0.612 0.06058 0.95032 0.0
C1116 C 0.62759 0.05487 0.92085 0.0
C1117 C 0.39235 0.45493 0.27052 0.0
C1118 C 0.41161 0.4552 0.24519 0.0
C1119 C 0.38497 0.42841 0.28493 0.0
C1120 C 0.39692 0.40125 0.27504 0.0
H1121 H 0.38211 0.47503 0.27858 0.0
H1122 H 0.36992 0.42933 0.30425 0.0
S1123 S 0.44908 0.3899 0.21088 0.0
N1124 N 0.44292 0.42591 0.21127 0.0
N1125 N 0.42935 0.37617 0.23932 0.0
C1126 C 0.41672 0.40127 0.25053 0.0
C1127 C 0.42397 0.4282 0.23533 0.0
C1128 C 0.1824 1.00134 0.13813 0.0
C1129 C 0.20466 1.0022 0.1164 0.0
C1130 C 0.16295 1.02322 0.13931 0.0
C1131 C 0.16589 0.04769 0.12018 0.0
H1132 H 0.17924 0.98289 0.15327 0.0
H1133 H 0.14488 1.02038 0.15438 0.0
S1134 S 0.22125 0.0615 0.06078 0.0
N1135 N 0.22875 0.03015 0.07591 0.0
N1136 N 0.19302 0.07176 0.07936 0.0
C1137 C 0.18866 0.04947 0.09943 0.0
C1138 C 0.20786 1.02669 0.09729 0.0
C1139 C 0.72089 0.66249 0.05869 0.0
C1140 C 0.72189 0.64728 0.02367 0.0
C1141 C 0.69644 0.65538 0.07524 0.0
C1142 C 0.67178 0.63294 0.05742 0.0
H1143 H 0.73917 0.68016 0.0737 0.0
H1144 H 0.69682 0.66799 0.10218 0.0
S1145 S 0.66338 0.58562 0.9658 0.0
N1146 N 0.69631 0.608 0.97187 0.0
N1147 N 0.64994 0.59476 1.00321 0.0
C1148 C 0.67249 0.61705 0.02262 0.0
C1149 C 0.69765 0.6242 1.00568 0.0
C1150 C 0.75734 0.46149 0.32634 0.0
C1151 C 0.77282 0.49246 0.34065 0.0
C1152 C 0.77131 0.43454 0.32396 0.0
C1153 C 0.80204 0.4362 0.33555 0.0
H1154 H 0.73368 0.4577 0.3168 0.0
H1155 H 0.75756 0.41197 0.31292 0.0
S1156 S 0.85392 0.51102 0.37535 0.0
N1157 N 0.82159 0.52241 0.36669 0.0
N1158 N 0.84764 0.47263 0.36229 0.0
C1159 C 0.81802 0.46702 0.34982 0.0
C1160 C 0.80365 0.49462 0.35232 0.0
C1161 C 0.84959 0.52808 0.57619 0.0
C1162 C 0.85035 0.51952 0.60997 0.0
C1163 C 0.87538 0.5417 0.56573 0.0
C1164 C 0.90278 0.54748 0.58873 0.0
H1165 H 0.82932 0.52237 0.5567 0.0
H1166 H 0.87425 0.54582 0.53858 0.0
S1167 S 0.91598 0.53487 0.68223 0.0
N1168 N 0.88012 0.52209 0.6683 0.0
N1169 N 0.92876 0.54754 0.64827 0.0
C1170 C 0.90341 0.54211 0.62383 0.0
C1171 C 0.87709 0.52817 0.63458 0.0
C1172 C 0.4506 0.24303 0.33443 0.0
C1173 C 0.45944 0.23208 0.30169 0.0
C1174 C 0.43 0.26329 0.33669 0.0
C1175 C 0.41758 0.27412 0.3065 0.0
H1176 H 0.45902 0.23529 0.35854 0.0
H1177 H 0.42381 0.27053 0.36267 0.0
S1178 S 0.43442 0.25384 0.21455 0.0
N1179 N 0.45467 0.23409 0.2382 0.0
N1180 N 0.41642 0.2731 0.24286 0.0
C1181 C 0.42645 0.26378 0.27356 0.0
C1182 C 0.44732 0.24267 0.2711 0.0
C1183 C 0.35834 0.08284 0.46725 0.0
C1184 C 0.36229 0.11256 0.45807 0.0
C1185 C 0.38189 0.07229 0.48615 0.0
C1186 C 0.41009 0.09113 0.49643 0.0
H1187 H 0.33674 0.06797 0.46047 0.0
H1188 H 0.37796 0.04945 0.49314 0.0
S1189 S 0.43179 0.17123 0.48058 0.0
N1190 N 0.3966 0.1609 0.46172 0.0
N1191 N 0.4406 0.14094 0.49693 0.0
C1192 C 0.41443 0.12064 0.48706 0.0
C1193 C 0.39059 0.1314 0.46795 0.0
C1194 C 0.75987 0.71255 0.32814 0.0
C1195 C 0.77629 0.69199 0.34367 0.0
C1196 C 0.77286 0.74233 0.32327 0.0
C1197 C 0.80352 0.75446 0.33343 0.0
H1198 H 0.73617 0.70567 0.31928 0.0
H1199 H 0.75825 0.75614 0.31115 0.0
S1200 S 0.85787 0.71151 0.3759 0.0
N1201 N 0.82606 0.687 0.36961 0.0
N1202 N 0.85032 0.7428 0.36054 0.0
C1203 C 0.82063 0.73451 0.34923 0.0
C1204 C 0.8072 0.70364 0.35424 0.0
C1205 C 0.93136 0.55776 0.80709 0.0
C1206 C 0.93593 0.5894 0.82379 0.0
C1207 C 0.91238 0.5353 0.81882 0.0
C1208 C 0.89739 0.54378 0.84758 0.0
H1209 H 0.94365 0.55 0.78614 0.0
H1210 H 0.91068 0.51095 0.80658 0.0
S1211 S 0.89751 0.62407 0.89541 0.0
N1212 N 0.92067 0.62855 0.86691 0.0
N1213 N 0.88535 0.58613 0.88926 0.0
C1214 C 0.90014 0.57549 0.86274 0.0
C1215 C 0.91927 0.59836 0.85068 0.0
C1216 C 0.10744 0.91807 0.19483 0.0
C1217 C 0.08853 0.89178 0.20013 0.0
C1218 C 0.0988 0.93499 0.16849 0.0
C1219 C 0.07082 0.92647 0.14627 0.0
H1220 H 0.12912 0.9259 0.21132 0.0
H1221 H 0.11404 0.95532 0.16597 0.0
S1222 S 1.01332 0.85878 0.14771 0.0
N1223 N 1.04057 0.8576 0.17988 0.0
N1224 N 1.02462 0.88929 0.13037 0.0
C1225 C 0.05178 0.90007 0.1509 0.0
C1226 C 0.06057 0.88276 0.17772 0.0
C1227 C 0.99382 0.3752 0.85108 0.0
C1228 C 1.00313 0.3492 0.86348 0.0
C1229 C 0.96317 0.37756 0.84319 0.0
C1230 C 0.93999 0.35404 0.84706 0.0
H1231 H 1.01035 0.3945 0.84876 0.0
H1232 H 0.95765 0.39852 0.83479 0.0
S1233 S 0.95176 0.27957 0.87482 0.0
N1234 N 0.98572 0.2983 0.87651 0.0
N1235 N 0.92922 0.30276 0.86174 0.0
C1236 C 0.94901 0.32745 0.85797 0.0
C1237 C 0.98007 0.32507 0.86612 0.0
C1238 C 0.57972 0.2208 0.69828 0.0
C1239 C 0.58961 0.24846 0.68644 0.0
C1240 C 0.5792 0.19111 0.67731 0.0
C1241 C 0.58884 0.18785 0.64381 0.0
H1242 H 0.57255 0.22203 0.72411 0.0
H1243 H 0.57188 0.17059 0.68787 0.0
S1244 S 0.61527 0.25256 0.59934 0.0
N1245 N 0.6081 0.27023 0.63789 0.0
N1246 N 0.60725 0.21485 0.59905 0.0
C1247 C 0.59818 0.21524 0.63134 0.0
C1248 C 0.59853 0.24537 0.65246 0.0
C1249 C 0.70112 0.86567 0.34293 0.0
C1250 C 0.6958 0.86788 0.37866 0.0
C1251 C 0.72992 0.86356 0.33378 0.0
C1252 C 0.75495 0.86312 0.35971 0.0
H1253 H 0.68314 0.86643 0.32196 0.0
H1254 H 0.73253 0.86222 0.30599 0.0
S1255 S 0.75289 0.86643 0.45683 0.0
N1256 N 0.71853 0.86826 0.43978 0.0
N1257 N 0.77127 0.86405 0.42281 0.0
C1258 C 0.74957 0.86459 0.39526 0.0
C1259 C 0.72058 0.86703 0.40458 0.0
C1260 C 0.19027 0.3267 0.61378 0.0
C1261 C 0.1792 0.33049 0.57901 0.0
C1262 C 0.17506 0.30451 0.63003 0.0
C1263 C 0.14816 0.28565 0.61215 0.0
H1264 H 0.21055 0.34128 0.62882 0.0
H1265 H 0.18421 0.30226 0.65682 0.0
S1266 S 0.11124 0.2839 0.51954 0.0
N1267 N 0.14065 0.31163 0.52636 0.0
N1268 N 0.11226 0.27032 0.55706 0.0
C1269 C 0.13727 0.2886 0.57714 0.0
C1270 C 0.15275 0.3109 0.56052 0.0
C1271 C 0.59815 0.26845 0.20118 0.0
C1272 C 0.59649 0.23639 0.18817 0.0
C1273 C 0.61875 0.284 0.23167 0.0
C1274 C 0.63813 0.26787 0.25006 0.0
H1275 H 0.58539 0.28208 0.18613 0.0
H1276 H 0.6211 0.30915 0.23924 0.0
S1277 S 0.63812 0.18241 0.22985 0.0
N1278 N 0.61232 0.18819 0.19867 0.0
N1279 N 0.65123 0.21709 0.25535 0.0
C1280 C 0.63422 0.23516 0.2393 0.0
C1281 C 0.61338 0.21951 0.20839 0.0
C1282 C 0.68812 1.00833 0.05324 0.0
C1283 C 0.6925 0.9838 0.07112 0.0
C1284 C 0.66489 1.0249 0.0586 0.0
C1285 C 0.64504 1.01736 0.08189 0.0
H1286 H 0.70297 1.015 0.03527 0.0
H1287 H 0.66239 0.04362 0.04409 0.0
S1288 S 0.64789 0.9556 0.13601 0.0
N1289 N 0.67618 0.95348 0.11414 0.0
N1290 N 0.6317 0.98388 0.12331 0.0
C1291 C 0.64927 0.99285 0.09999 0.0
C1292 C 0.6733 0.97632 0.09494 0.0
C1293 C 1.00679 0.79553 0.82481 0.0
C1294 C 0.99513 0.79986 0.79041 0.0
C1295 C 1.00143 0.81408 0.85607 0.0
C1296 C 0.98466 0.83812 0.85426 0.0
H1297 H 1.01986 0.77736 0.82774 0.0
H1298 H 1.01032 0.80938 0.88183 0.0
S1299 S 0.94907 0.85897 0.77067 0.0
N1300 N 0.96597 0.82995 0.75652 0.0
N1301 N 0.95626 0.86484 0.81481 0.0
C1302 C 0.9733 0.84291 0.81996 0.0
C1303 C 0.97842 0.82381 0.78821 0.0
C1304 C 0.17499 0.07875 0.96216 0.0
C1305 C 0.17361 0.09901 0.93712 0.0
C1306 C 0.15646 0.07892 0.98944 0.0
C1307 C 0.13569 0.0996 0.99361 0.0
H1308 H 0.19005 0.06211 0.96027 0.0
H1309 H 0.15866 0.06284 1.0076 0.0
S1310 S 0.12391 0.15842 0.93655 0.0
N1311 N 0.14962 0.14091 0.91988 0.0
N1312 N 0.116 0.14138 0.96992 0.0
C1313 C 0.13454 0.12008 0.96901 0.0
C1314 C 0.15301 0.11973 0.94135 0.0
C1315 C 0.8199 0.3686 0.67289 0.0
C1316 C 0.80849 0.39636 0.67125 0.0
C1317 C 0.83152 0.36154 0.70578 0.0
C1318 C 0.83232 0.38194 0.73857 0.0
H1319 H 0.81972 0.35194 0.64857 0.0
H1320 H 0.83947 0.33959 0.70541 0.0
S1321 S 0.80574 0.45812 0.74917 0.0
N1322 N 0.79922 0.44467 0.70552 0.0
N1323 N 0.82098 0.43155 0.76698 0.0
C1324 C 0.82144 0.41006 0.73724 0.0
C1325 C 0.80954 0.41721 0.70376 0.0
C1326 C 0.57435 0.16796 0.46494 0.0
C1327 C 0.55523 0.1522 0.43312 0.0
C1328 C 0.58145 0.15267 0.4935 0.0
C1329 C 0.56974 0.121 0.49143 0.0
H1330 H 0.58362 0.19246 0.46811 0.0
H1331 H 0.59581 0.16596 0.51764 0.0
S1332 S 0.51902 0.06869 0.41405 0.0
N1333 N 0.52508 0.1026 0.40139 0.0
N1334 N 0.53855 0.07418 0.45464 0.0
C1335 C 0.55111 0.10477 0.45956 0.0
C1336 C 0.54383 0.12027 0.43057 0.0
C1337 C 0.84621 0.76091 0.04034 0.0
C1338 C 0.84956 0.72952 0.03764 0.0
C1339 C 0.84921 0.78041 0.07395 0.0
C1340 C 0.85594 0.7691 0.10571 0.0
H1341 H 0.8386 0.76966 0.0166 0.0
H1342 H 0.84374 0.80357 0.07499 0.0
S1343 S 0.87439 0.691 0.1121 0.0
N1344 N 0.86493 0.68951 0.06867 0.0
N1345 N 0.87167 0.72653 0.132 0.0
C1346 C 0.86284 0.73888 0.10303 0.0
C1347 C 0.85934 0.71894 0.06888 0.0
C1348 C 0.20128 0.06694 0.71281 0.0
C1349 C 0.19622 0.07956 0.74742 0.0
C1350 C 0.18206 0.06841 0.68138 0.0
C1351 C 0.15694 0.08305 0.68275 0.0
H1352 H 0.22042 0.05577 0.7098 0.0
H1353 H 0.18729 0.05837 0.6557 0.0
S1354 S 0.13285 0.11925 0.76646 0.0
N1355 N 0.16342 0.10664 0.78085 0.0
N1356 N 0.1277 0.10977 0.72226 0.0
C1357 C 0.15141 0.09556 0.7172 0.0
C1358 C 0.17083 0.09371 0.74928 0.0
C1359 C 0.7931 0.38871 0.47151 0.0
C1360 C 0.81055 0.39086 0.50524 0.0
C1361 C 0.802 0.37503 0.43953 0.0
C1362 C 0.82861 0.36268 0.43986 0.0
H1363 H 0.77318 0.39901 0.46963 0.0
H1364 H 0.78844 0.37526 0.41423 0.0
S1365 S 0.88004 0.35837 0.52144 0.0
N1366 N 0.85421 0.37644 0.53703 0.0
N1367 N 0.8706 0.35077 0.47736 0.0
C1368 C 0.8452 0.36291 0.47354 0.0
C1369 C 0.83629 0.37699 0.50601 0.0
C1370 C 0.58627 0.11654 0.251 0.0
C1371 C 0.55638 0.11703 0.25422 0.0
C1372 C 0.59415 0.10206 0.21898 0.0
C1373 C 0.57239 0.08717 0.18913 0.0
H1374 H 0.60376 0.12852 0.27287 0.0
H1375 H 0.61751 0.1038 0.21719 0.0
S1376 S 0.4907 0.07805 0.18607 0.0
N1377 N 0.50485 0.09873 0.2264 0.0
N1378 N 0.51939 0.07101 0.16662 0.0
C1379 C 0.54232 0.08563 0.19307 0.0
C1380 C 0.53438 0.10077 0.22544 0.0
C1381 C 0.77248 0.75503 0.91752 0.0
C1382 C 0.78519 0.72781 0.91089 0.0
C1383 C 0.78214 0.78154 0.90377 0.0
C1384 C 0.80501 0.78185 0.88326 0.0
H1385 H 0.75534 0.75617 0.9341 0.0
H1386 H 0.77219 0.80215 0.90996 0.0
S1387 S 0.84469 0.71643 0.85631 0.0
N1388 N 0.82118 0.70271 0.88088 0.0
N1389 N 0.83922 0.75241 0.85531 0.0
C1390 C 0.81747 0.75468 0.8757 0.0
C1391 C 0.80752 0.72765 0.88935 0.0
C1392 C 0.99939 0.18567 0.03042 0.0
C1393 C 0.98175 0.18942 0.05762 0.0
C1394 C 1.02006 0.16505 0.03029 0.0
C1395 C 1.02311 0.14671 0.05666 0.0
H1396 H 0.9979 0.1995 1.00971 0.0
H1397 H 1.03435 0.16418 1.01012 0.0
S1398 S 0.98081 0.14559 0.13191 0.0
N1399 N 0.968 0.17164 0.1106 0.0
N1400 N 1.00616 0.13261 0.1097 0.0
C1401 C 1.00496 0.1494 0.08314 0.0
C1402 C 0.98441 0.17075 0.08376 0.0
C1403 C 0.47697 0.54556 0.13503 0.0
C1404 C 0.47987 0.56443 0.16937 0.0
C1405 C 0.49979 0.54785 0.11455 0.0
C1406 C 0.52635 0.56906 0.12749 0.0
H1407 H 0.45715 0.52854 0.12399 0.0
H1408 H 0.49668 0.53248 0.08849 0.0
S1409 S 0.54453 0.62526 0.21455 0.0
N1410 N 0.51111 0.60604 0.21465 0.0
N1411 N 0.55381 0.61046 0.17601 0.0
C1412 C 0.52931 0.58862 0.16135 0.0
C1413 C 0.50614 0.58626 0.18233 0.0
C1414 C 0.39355 0.7078 0.82736 0.0
C1415 C 0.4247 0.70895 0.83518 0.0
C1416 C 0.38021 0.73549 0.82996 0.0
C1417 C 0.397 0.76633 0.8406 0.0
H1418 H 0.37917 0.68527 0.81927 0.0
H1419 H 0.35629 0.73256 0.82344 0.0
S1420 S 0.4794 0.78358 0.86293 0.0
N1421 N 0.47175 0.74509 0.85333 0.0
N1422 N 0.44708 0.79541 0.85811 0.0
C1423 C 0.42805 0.76773 0.84818 0.0
C1424 C 0.44162 0.73979 0.84552 0.0
C1425 C 0.32128 0.68013 0.53767 0.0
C1426 C 0.34898 0.6808 0.55836 0.0
C1427 C 0.29523 0.66542 0.5467 0.0
C1428 C 0.29615 0.65062 0.57645 0.0
H1429 H 0.31945 0.6931 0.51615 0.0
H1430 H 0.27419 0.6677 0.53189 0.0
S1431 S 0.36382 0.63958 0.63362 0.0
N1432 N 0.37636 0.66129 0.60605 0.0
N1433 N 0.3273 0.63277 0.62243 0.0
C1434 C 0.32395 0.64834 0.59491 0.0
C1435 C 0.35043 0.66365 0.58599 0.0
C1436 C 0.77047 0.94896 0.81024 0.0
C1437 C 0.75358 0.95939 0.83611 0.0
C1438 C 0.78945 0.92778 0.81585 0.0
C1439 C 0.79268 0.91576 0.84764 0.0
H1440 H 0.76893 0.957 0.78502 0.0
H1441 H 0.80154 0.9205 0.79452 0.0
S1442 S 0.75545 0.93743 0.9255 0.0
N1443 N 0.7426 0.9576 0.89607 0.0
N1444 N 0.77836 0.91706 0.90633 0.0
C1445 C 0.77658 0.92645 0.87436 0.0
C1446 C 0.75692 0.94828 0.86859 0.0
C1447 C 0.83139 0.08511 0.68373 0.0
C1448 C 0.82794 0.05368 0.68762 0.0
C1449 C 0.80776 0.0972 0.66745 0.0
C1450 C 0.77983 0.07834 0.65458 0.0
H1451 H 0.85256 0.1005 0.69305 0.0
H1452 H 0.81132 0.12152 0.66505 0.0
S1453 S 0.75897 0.99458 0.65776 0.0
N1454 N 0.79409 1.00397 0.67713 0.0
N1455 N 0.74994 1.02676 0.64625 0.0
C1456 C 0.77596 0.04698 0.6584 0.0
C1457 C 0.79994 0.03463 0.67498 0.0
C1458 C 0.38193 0.49217 0.81481 0.0
C1459 C 0.41287 0.50447 0.82246 0.0
C1460 C 0.36995 0.46179 0.82093 0.0
C1461 C 0.38817 0.44193 0.83522 0.0
H1462 H 0.36686 0.50561 0.80287 0.0
H1463 H 0.34624 0.45372 0.814 0.0
S1464 S 0.4705 0.46322 0.86106 0.0
N1465 N 0.4609 0.49378 0.846 0.0
N1466 N 0.43929 0.43855 0.85743 0.0
C1467 C 0.41897 0.45453 0.84346 0.0
C1468 C 0.43096 0.48498 0.83712 0.0
C1469 C 0.28501 0.59629 0.32975 0.0
C1470 C 0.26254 0.60474 0.34899 0.0
C1471 C 0.30468 0.6189 0.31918 0.0
C1472 C 0.30311 0.65065 0.32862 0.0
H1473 H 0.28647 0.57197 0.3211 0.0
H1474 H 0.3206 0.61152 0.30271 0.0
S1475 S 0.25109 0.6854 0.38243 0.0
N1476 N 0.24171 0.64739 0.37956 0.0
N1477 N 0.2792 0.68985 0.36039 0.0
C1478 C 0.2822 0.65959 0.34989 0.0
C1479 C 0.26183 0.63662 0.36004 0.0
C1480 C 0.6458 0.82001 0.51396 0.0
C1481 C 0.62155 0.81503 0.48568 0.0
C1482 C 0.64905 0.79853 0.53672 0.0
C1483 C 0.62822 0.77099 0.53232 0.0
H1484 H 0.66281 0.84058 0.51843 0.0
H1485 H 0.66842 0.80328 0.55752 0.0
S1486 S 0.55931 0.74775 0.4646 0.0
N1487 N 0.57544 0.78092 0.45591 0.0
N1488 N 0.58138 0.74079 0.49891 0.0
C1489 C 0.60349 0.76593 0.5047 0.0
C1490 C 0.60019 0.78783 0.48139 0.0
C1491 C 0.70267 0.32139 0.82927 0.0
C1492 C 0.69221 0.33897 0.80418 0.0
C1493 C 0.73362 0.32173 0.83997 0.0
C1494 C 0.75592 0.34002 0.82667 0.0
H1495 H 0.68682 0.30594 0.83932 0.0
H1496 H 0.74011 0.30681 0.85823 0.0
S1497 S 0.74067 0.39166 0.76179 0.0
N1498 N 0.7073 0.37593 0.76724 0.0
N1499 N 0.76444 0.37732 0.78791 0.0
C1500 C 0.74567 0.35866 0.80276 0.0
C1501 C 0.71429 0.35786 0.79141 0.0
C1502 C 0.11491 0.47157 0.97377 0.0
C1503 C 0.09917 0.44384 0.98027 0.0
C1504 C 0.11747 0.50029 0.99752 0.0
C1505 C 0.10452 0.50243 0.02883 0.0
H1506 H 0.12476 0.47129 0.94971 0.0
H1507 H 0.12908 0.52106 0.99075 0.0
S1508 S 0.06345 0.4362 0.06013 0.0
N1509 N 0.07217 0.42014 0.02176 0.0
N1510 N 0.07709 0.47375 0.06619 0.0
C1511 C 0.08965 0.47467 0.03628 0.0
C1512 C 0.08695 0.44552 0.01208 0.0
C1513 C 0.98882 0.83092 0.32269 0.0
C1514 C 0.99301 0.82316 0.2866 0.0
C1515 C 0.9602 0.8333 0.33212 0.0
C1516 C 0.93404 0.8282 0.30607 0.0
H1517 H 1.00781 0.83536 0.34395 0.0
H1518 H 0.95869 0.83964 0.36025 0.0
S1519 S 0.93184 0.80677 0.20764 0.0
N1520 N 0.96721 0.80997 0.22463 0.0
N1521 N 0.91484 0.81456 0.24234 0.0
C1522 C 0.93793 0.82027 0.27003 0.0
C1523 C 0.96682 0.81773 0.2604 0.0
C1524 C 0.55413 0.35515 0.11219 0.0
C1525 C 0.57146 0.33154 0.10682 0.0
C1526 C 0.56261 0.38443 0.10367 0.0
C1527 C 0.58879 0.39128 0.08952 0.0
H1528 H 0.53366 0.35096 0.12278 0.0
H1529 H 0.54832 0.40169 0.10771 0.0
S1530 S 0.64319 0.33864 0.07274 0.0
N1531 N 0.61683 0.31764 0.0878 0.0
N1532 N 0.63279 0.37282 0.07223 0.0
C1533 C 0.60658 0.36815 0.08451 0.0
C1534 C 0.59793 0.33828 0.09307 0.0
C1535 C 0.07023 0.40235 0.4966 0.0
C1536 C 0.09428 0.39782 0.47863 0.0
C1537 C 1.0427 0.40463 0.47773 0.0
C1538 C 1.0383 0.40194 0.44032 0.0
H1539 H 0.07273 0.40439 0.52543 0.0
H1540 H 1.02459 0.40796 0.49239 0.0
S1541 S 0.09405 0.39032 0.38075 0.0
N1542 N 0.11194 0.39112 0.42131 0.0
N1543 N 0.06001 0.39514 0.38598 0.0
C1544 C 0.06211 0.39757 0.42206 0.0
C1545 C 0.0902 0.39561 0.44122 0.0
C1546 C 1.02133 0.67527 0.63113 0.0
C1547 C 1.01149 0.69381 0.60713 0.0
C1548 C 0.04475 0.6593 0.62566 0.0
C1549 C 0.05761 0.65875 0.59458 0.0
H1550 H 1.01291 0.67539 0.65611 0.0
H1551 H 0.05396 0.64882 0.64705 0.0
S1552 S 1.03488 0.69631 0.51861 0.0
N1553 N 1.01336 0.70661 0.54802 0.0
N1554 N 0.05575 0.6737 0.53655 0.0
C1555 C 0.04535 0.67343 0.56792 0.0
C1556 C 1.02239 0.69131 0.57427 0.0
C1557 C 0.71465 0.8371 0.90245 0.0
C1558 C 0.70188 0.86404 0.90969 0.0
C1559 C 0.72021 0.82583 0.86803 0.0
C1560 C 0.71299 0.84075 0.83912 0.0
H1561 H 0.72109 0.82498 0.92376 0.0
H1562 H 0.73118 0.80573 0.8644 0.0
S1563 S 0.6756 0.91003 0.84303 0.0
N1564 N 0.67994 0.90409 0.88461 0.0
N1565 N 0.68992 0.88259 0.81972 0.0
C1566 C 0.69915 0.86713 0.84574 0.0
C1567 C 0.6937 0.87879 0.88099 0.0
C1568 C 0.54818 0.59847 0.73957 0.0
C1569 C 0.51833 0.60348 0.73916 0.0
C1570 C 0.56262 0.59779 0.70888 0.0
C1571 C 0.54815 0.60223 0.67574 0.0
H1572 H 0.56071 0.59472 0.76398 0.0
H1573 H 0.58516 0.59328 0.71109 0.0
S1574 S 0.47062 0.61802 0.65975 0.0
N1575 N 0.47555 0.61398 0.70202 0.0
N1576 N 0.50203 0.61314 0.64535 0.0
C1577 C 0.51849 0.60781 0.67516 0.0
C1578 C 0.50383 0.60831 0.70631 0.0
C1579 C 0.86553 0.31924 1.00379 0.0
C1580 C 0.8811 0.29424 1.00561 0.0
C1581 C 0.85675 0.32806 0.97092 0.0
C1582 C 0.86244 0.31163 0.93843 0.0
H1583 H 0.86033 0.33231 0.02803 0.0
H1584 H 0.8453 0.34781 0.97101 0.0
S1585 S 0.90076 0.24282 0.92855 0.0
N1586 N 0.90108 0.25259 0.97208 0.0
N1587 N 0.88383 0.2682 0.91039 0.0
C1588 C 0.87745 0.28608 0.93992 0.0
C1589 C 0.887 0.27766 0.97345 0.0
C1590 C 0.12645 0.52231 0.21048 0.0
C1591 C 0.15019 0.53576 0.23872 0.0
C1592 C 0.11807 0.53818 0.18282 0.0
C1593 C 0.13284 0.56832 0.18233 0.0
H1594 H 0.11435 0.49916 0.20946 0.0
H1595 H 0.09994 0.52663 0.16152 0.0
S1596 S 0.19628 0.6144 0.24999 0.0
N1597 N 0.18824 0.58147 0.26425 0.0
N1598 N 0.17236 0.61112 0.21285 0.0
C1599 C 0.15639 0.58221 0.21057 0.0
C1600 C 0.1651 0.566 0.23853 0.0
C1601 C 0.87519 0.93519 0.63011 0.0
C1602 C 0.90569 0.94787 0.63619 0.0
C1603 C 0.86295 0.91017 0.6018 0.0
C1604 C 0.88084 0.89682 0.57886 0.0
H1605 H 0.86039 0.94546 0.6464 0.0
H1606 H 0.83915 0.90231 0.59663 0.0
S1607 S 0.96218 0.92006 0.58454 0.0
N1608 N 0.95374 0.94384 0.61827 0.0
N1609 N 0.93072 0.89704 0.56493 0.0
C1610 C 0.91164 0.90797 0.58602 0.0
C1611 C 0.92409 0.93346 0.61476 0.0
C1612 C 0.53187 0.57857 0.92021 0.0
C1613 C 0.51343 0.60061 0.9141 0.0
C1614 C 0.54874 0.57989 0.95399 0.0
C1615 C 0.54805 0.60317 0.98391 0.0
H1616 H 0.53322 0.55972 0.89866 0.0
H1617 H 0.56215 0.56195 0.95662 0.0
S1618 S 0.5043 0.66743 0.98271 0.0
N1619 N 0.49624 0.64728 0.94111 0.0
N1620 N 0.52776 0.64959 1.00471 0.0
C1621 C 0.53009 0.62577 0.97827 0.0
C1622 C 0.51294 0.62456 0.94348 0.0
C1623 C 0.89148 0.28639 0.20206 0.0
C1624 C 0.89977 0.30984 0.18289 0.0
C1625 C 0.87721 0.29238 0.23186 0.0
C1626 C 0.87072 0.32216 0.24436 0.0
H1627 H 0.89498 0.26273 0.19325 0.0
H1628 H 0.87059 0.2731 0.2448 0.0
S1629 S 0.89041 0.39281 0.20666 0.0
N1630 N 0.9023 0.36501 0.18061 0.0
N1631 N 0.87573 0.37609 0.23704 0.0
C1632 C 0.88027 0.34636 0.22692 0.0
C1633 C 0.89467 0.34023 0.19613 0.0
C1634 C 0.12387 0.56241 0.4167 0.0
C1635 C 0.15112 0.55161 0.41618 0.0
C1636 C 0.11412 0.5727 0.44914 0.0
C1637 C 0.13142 0.57313 0.48247 0.0
H1638 H 0.10981 0.56282 0.39182 0.0
H1639 H 0.09292 0.58055 0.44804 0.0
S1640 S 0.20426 0.5467 0.49611 0.0
N1641 N 0.19505 0.54162 0.45218 0.0
N1642 N 0.17686 0.56095 0.51277 0.0
C1643 C 0.15868 0.56235 0.48233 0.0
C1644 C 0.16847 0.55158 0.44934 0.0
C1645 C 0.9367 0.95488 0.80212 0.0
C1646 C 0.91794 0.96634 0.77755 0.0
C1647 C 0.92675 0.9276 0.81414 0.0
C1648 C 0.89804 0.91017 0.80098 0.0
H1649 H 0.95909 0.9673 0.81243 0.0
H1650 H 0.9416 0.92055 0.8344 0.0
S1651 S 0.84139 0.92906 0.73361 0.0
N1652 N 0.86988 0.95774 0.73907 0.0
N1653 N 0.85152 0.90582 0.76075 0.0
C1654 C 0.87935 0.92108 0.77569 0.0
C1655 C 0.88924 0.94926 0.76411 0.0
C1656 C 0.7147 0.53537 0.64012 0.0
C1657 C 0.71099 0.50514 0.6187 0.0
C1658 C 0.6914 0.55283 0.64061 0.0
C1659 C 0.6632 0.54077 0.61993 0.0
H1660 H 0.73612 0.54619 0.65591 0.0
H1661 H 0.69588 0.57635 0.65634 0.0
S1662 S 0.64091 0.46147 0.56199 0.0
N1663 N 0.67621 0.46324 0.57824 0.0
N1664 N 0.63248 0.49528 0.57941 0.0
C1665 C 0.65884 0.50989 0.59978 0.0
C1666 C 0.68264 0.49234 0.59905 0.0
C1667 C 0.20352 0.14819 0.51585 0.0
C1668 C 0.21572 0.12104 0.50673 0.0
C1669 C 0.17961 0.14807 0.53468 0.0
C1670 C 0.16661 0.1207 0.54458 0.0
H1671 H 0.21307 0.17004 0.50941 0.0
H1672 H 0.17137 0.1697 0.5417 0.0
S1673 S 0.18893 0.04294 0.52538 0.0
N1674 N 0.21226 0.06571 0.50802 0.0
N1675 N 0.16683 0.06544 0.54278 0.0
C1676 C 0.17792 0.09315 0.53475 0.0
C1677 C 0.20261 0.09335 0.516 0.0
C1678 C 0.30575 0.99515 0.85034 0.0
C1679 C 0.27439 0.9923 0.84182 0.0
C1680 C 0.32068 0.9685 0.84768 0.0
C1681 C 0.30538 0.93708 0.83628 0.0
H1682 H 0.31904 1.01823 0.85913 0.0
H1683 H 0.34462 0.9727 0.85481 0.0
S1684 S 0.22321 0.91545 0.81144 0.0
N1685 N 0.22894 0.95392 0.82186 0.0
N1686 N 0.25639 0.9056 0.81698 0.0
C1687 C 0.27415 0.93402 0.82789 0.0
C1688 C 0.25901 0.96087 0.8306 0.0
C1689 C 0.35172 1.01277 0.06852 0.0
C1690 C 0.35067 1.00691 0.10332 0.0
C1691 C 0.37874 1.02112 0.0573 0.0
C1692 C 0.40565 1.02429 0.08057 0.0
H1693 H 0.33159 1.00923 0.04905 0.0
H1694 H 0.37864 1.02384 0.02976 0.0
S1695 S 0.41524 1.01555 0.17563 0.0
N1696 N 0.37896 1.00803 0.16209 0.0
N1697 N 0.4299 1.02375 0.14075 0.0
C1698 C 0.40499 1.02097 0.11623 0.0
C1699 C 0.37741 1.01235 0.12772 0.0
C1700 C 0.93862 0.74645 0.78965 0.0
C1701 C 0.9508 0.73505 0.81954 0.0
C1702 C 0.91942 0.76848 0.79293 0.0
C1703 C 0.91107 0.77943 0.8261 0.0
H1704 H 0.94435 0.73867 0.76355 0.0
H1705 H 0.9113 0.77717 0.76937 0.0
S1706 S 0.93165 0.75165 0.91083 0.0
N1707 N 0.95027 0.73363 0.88239 0.0
N1708 N 0.91323 0.77351 0.88829 0.0
C1709 C 0.92185 0.76685 0.85575 0.0
C1710 C 0.94191 0.74507 0.85256 0.0
C1711 C 0.86574 0.58543 0.97153 0.0
C1712 C 0.86696 0.61693 0.96864 0.0
C1713 C 0.88951 0.57565 0.99105 0.0
C1714 C 0.91503 0.59716 1.00854 0.0
H1715 H 0.84636 0.56827 0.95854 0.0
H1716 H 0.88801 0.55114 0.99231 0.0
S1717 S 0.92779 0.68271 0.01235 0.0
N1718 N 0.8951 0.6698 0.98673 0.0
N1719 N 0.93924 0.65151 0.02377 0.0
C1720 C 0.91619 0.62876 1.00641 0.0
C1721 C 0.89227 0.63863 0.9864 0.0
C1722 C 0.30987 0.20048 0.84535 0.0
C1723 C 0.27923 0.19297 0.84772 0.0
C1724 C 0.32337 0.23101 0.84114 0.0
C1725 C 0.307 0.25579 0.8389 0.0
H1726 H 0.3233 0.18231 0.84522 0.0
H1727 H 0.34653 0.23478 0.83824 0.0
S1728 S 0.22727 0.25022 0.84811 0.0
N1729 N 0.2342 0.21496 0.85065 0.0
N1730 N 0.25876 0.27043 0.8428 0.0
C1731 C 0.27688 0.24873 0.84288 0.0
C1732 C 0.26335 0.21814 0.84721 0.0
C1733 C 0.44596 0.04884 0.32161 0.0
C1734 C 0.44547 0.08105 0.32967 0.0
C1735 C 0.42508 0.02738 0.3319 0.0
C1736 C 0.4032 0.03739 0.35092 0.0
H1737 H 0.46297 0.04012 0.30792 0.0
H1738 H 0.42661 1.00281 0.32593 0.0
S1739 S 0.39044 0.11846 0.37595 0.0
N1740 N 0.41973 0.12162 0.35572 0.0
N1741 N 0.38082 0.08086 0.37563 0.0
C1742 C 0.40172 0.06923 0.35824 0.0
C1743 C 0.42274 0.09118 0.34734 0.0
C1744 C 0.56442 0.39852 0.69511 0.0
C1745 C 0.59467 0.39654 0.70405 0.0
C1746 C 0.55479 0.41586 0.66954 0.0
C1747 C 0.5749 0.4313 0.65128 0.0
H1748 H 0.54804 0.38698 0.70835 0.0
H1749 H 0.5314 0.4171 0.6639 0.0
S1750 S 0.65629 0.43351 0.66412 0.0
N1751 N 0.64464 0.41179 0.69215 0.0
N1752 N 0.62635 0.44376 0.64391 0.0
C1753 C 0.60508 0.4293 0.65959 0.0
C1754 C 0.615 0.41212 0.686 0.0
C1755 C 0.49008 0.87418 0.35221 0.0
C1756 C 0.49919 0.84869 0.36607 0.0
C1757 C 0.45942 0.87635 0.3431 0.0
C1758 C 0.43603 0.85307 0.34703 0.0
H1759 H 0.50674 0.89329 0.34972 0.0
H1760 H 0.45403 0.89693 0.33364 0.0
S1761 S 0.44728 0.78001 0.37883 0.0
N1762 N 0.48134 0.79864 0.38089 0.0
N1763 N 0.42499 0.80259 0.36366 0.0
C1764 C 0.44493 0.82698 0.35944 0.0
C1765 C 0.47593 0.82487 0.36893 0.0
C1766 C 0.08133 0.71811 0.19878 0.0
C1767 C 0.09599 0.74585 0.19099 0.0
C1768 C 0.08062 0.6888 0.17691 0.0
C1769 C 0.09452 0.68599 0.14632 0.0
H1770 H 0.07065 0.71892 0.22225 0.0
H1771 H 0.06949 0.66816 0.18445 0.0
S1772 S 0.13427 0.75156 0.1126 0.0
N1773 N 0.1236 0.76851 0.14927 0.0
N1774 N 0.12222 0.71386 0.10853 0.0
C1775 C 0.10864 0.71362 0.13777 0.0
C1776 C 0.10939 0.74337 0.15997 0.0
C1777 C 0.20395 0.36599 0.84152 0.0
C1778 C 0.19947 0.37394 0.87748 0.0
C1779 C 0.2327 0.36353 0.83258 0.0
C1780 C 0.25853 0.36841 0.85906 0.0
H1781 H 0.18519 0.36208 0.82003 0.0
H1782 H 0.23461 0.35737 0.80454 0.0
S1783 S 0.25937 0.38856 0.95734 0.0
N1784 N 0.22422 0.38591 0.93973 0.0
N1785 N 0.2769 0.38109 0.92305 0.0
C1786 C 0.25418 0.37592 0.89498 0.0
C1787 C 0.22522 0.37872 0.90406 0.0
C1788 C 0.63168 0.83119 0.04088 0.0
C1789 C 0.65291 0.85327 0.06606 0.0
C1790 C 0.61632 0.80497 0.05058 0.0
C1791 C 0.62135 0.79988 0.08593 0.0
H1792 H 0.62729 0.83373 0.01316 0.0
H1793 H 0.60062 0.7883 0.03012 0.0
S1794 S 0.67345 0.85133 0.16258 0.0
N1795 N 0.67711 0.86894 0.12842 0.0
N1796 N 0.64852 0.81943 0.14645 0.0
C1797 C 0.64184 0.8222 0.11165 0.0
C1798 C 0.65757 0.8489 0.10177 0.0
C1799 C 0.10599 0.77974 0.75358 0.0
C1800 C 0.09337 0.75123 0.73041 0.0
C1801 C 0.1359 0.78574 0.76904 0.0
C1802 C 0.15425 0.76357 0.7615 0.0
H1803 H 0.09276 0.79778 0.7594 0.0
H1804 H 0.14491 0.80823 0.78626 0.0
S1805 S 0.13171 0.68519 0.70287 0.0
N1806 N 0.10091 0.70017 0.70158 0.0
N1807 N 0.15769 0.71186 0.72973 0.0
C1808 C 0.14167 0.73454 0.73926 0.0
C1809 C 0.11104 0.72826 0.7239 0.0
C1810 C 0.13842 0.46215 0.57979 0.0
C1811 C 0.16928 0.46965 0.58103 0.0
C1812 C 0.12055 0.48513 0.58032 0.0
C1813 C 0.13298 0.5166 0.58359 0.0
H1814 H 0.12765 0.43811 0.57628 0.0
H1815 H 0.0967 0.47807 0.57697 0.0
S1816 S 0.21299 0.54906 0.59366 0.0
N1817 N 0.21183 0.51094 0.58875 0.0
N1818 N 0.17823 0.55467 0.59194 0.0
C1819 C 0.16399 0.52482 0.58768 0.0
C1820 C 0.18218 0.50117 0.58584 0.0
C1821 C 0.49194 0.32847 0.2517 0.0
C1822 C 0.50815 0.3038 0.24776 0.0
C1823 C 0.48784 0.34337 0.28538 0.0
C1824 C 0.49971 0.33444 0.31706 0.0
H1825 H 0.48199 0.33641 0.22845 0.0
H1826 H 0.4745 0.36165 0.28646 0.0
S1827 S 0.54413 0.27115 0.3221 0.0
N1828 N 0.53632 0.27096 0.27874 0.0
N1829 N 0.5286 0.29916 0.34241 0.0
C1830 C 0.516 0.30972 0.31377 0.0
C1831 C 0.5203 0.29447 0.27913 0.0
C1832 C 0.6904 0.59321 0.47221 0.0
C1833 C 0.67493 0.59374 0.43801 0.0
C1834 C 0.6761 0.59384 0.50285 0.0
C1835 C 0.64537 0.59511 0.50155 0.0
H1836 H 0.7139 0.59228 0.47549 0.0
H1837 H 0.68959 0.59346 0.52814 0.0
S1838 S 0.59397 0.59708 0.41909 0.0
N1839 N 0.62618 0.59561 0.40531 0.0
N1840 N 0.60012 0.59689 0.46245 0.0
C1841 C 0.62954 0.59554 0.46764 0.0
C1842 C 0.64403 0.59486 0.43627 0.0
C1843 C 0.31393 0.86662 0.16928 0.0
C1844 C 0.30039 0.89317 0.16794 0.0
C1845 C 0.32579 0.85947 0.20204 0.0
C1846 C 0.32473 0.87851 0.23512 0.0
H1847 H 0.31542 0.85105 0.14475 0.0
H1848 H 0.33558 0.83855 0.20133 0.0
S1849 S 0.29149 0.95079 0.24679 0.0
N1850 N 0.28674 0.9387 0.20294 0.0
N1851 N 0.30862 0.92522 0.26423 0.0
C1852 C 0.31139 0.90528 0.23418 0.0
C1853 C 0.29935 0.91259 0.20077 0.0
C1854 C 0.05786 0.65199 0.95554 0.0
C1855 C 0.05307 0.63048 0.92264 0.0
C1856 C 0.06752 0.64326 0.98839 0.0
C1857 C 0.07249 0.61267 0.98942 0.0
H1858 H 0.0529 0.6753 0.95614 0.0
H1859 H 0.06957 0.66002 0.01316 0.0
S1860 S 0.06756 0.54887 0.91111 0.0
N1861 N 0.05761 0.57817 0.89353 0.0
N1862 N 0.0749 0.56197 0.95485 0.0
C1863 C 0.06944 0.59163 0.95676 0.0
C1864 C 0.05998 0.60046 0.9235 0.0
C1865 C 0.35045 0.25594 0.54475 0.0
C1866 C 0.35139 0.22402 0.54217 0.0
C1867 C 0.35425 0.27566 0.57833 0.0
C1868 C 0.3594 0.26395 0.6101 0.0
H1869 H 0.3441 0.26511 0.52091 0.0
H1870 H 0.35055 0.29946 0.57931 0.0
S1871 S 0.37122 0.18365 0.61662 0.0
N1872 N 0.36256 0.18255 0.57315 0.0
N1873 N 0.37111 0.21993 0.6365 0.0
C1874 C 0.36393 0.23287 0.6075 0.0
C1875 C 0.35949 0.21274 0.57338 0.0
C1876 C 0.69849 0.57425 0.21595 0.0
C1877 C 0.69367 0.58507 0.25107 0.0
C1878 C 0.6787 0.57664 0.18559 0.0
C1879 C 0.65325 0.59047 0.18866 0.0
H1880 H 0.71789 0.56386 0.21172 0.0
H1881 H 0.6838 0.568 0.15937 0.0
S1882 S 0.62984 0.62222 0.27442 0.0
N1883 N 0.6609 0.60968 0.28704 0.0
N1884 N 0.62408 0.61466 0.23012 0.0
C1885 C 0.64796 0.60123 0.22362 0.0
C1886 C 0.66797 0.59836 0.25468 0.0
C1887 C 0.32511 0.87212 0.99956 0.0
C1888 C 0.30078 0.8881 0.99833 0.0
C1889 C 0.3354 0.85965 0.9683 0.0
C1890 C 0.32211 0.86284 0.93415 0.0
H1891 H 0.33709 0.87012 0.02516 0.0
H1892 H 0.35487 0.84867 0.97119 0.0
S1893 S 0.25611 0.90037 0.91548 0.0
N1894 N 0.2623 0.90447 0.95962 0.0
N1895 N 0.28168 0.88127 0.90083 0.0
C1896 C 0.29667 0.87721 0.93223 0.0
C1897 C 0.28601 0.88976 0.96426 0.0
C1898 C 0.08604 0.63062 0.75408 0.0
C1899 C 0.0564 0.63328 0.75688 0.0
C1900 C 0.09402 0.61765 0.72147 0.0
C1901 C 0.07276 0.60672 0.69006 0.0
H1902 H 0.10345 0.63919 0.77712 0.0
H1903 H 0.11731 0.61712 0.72078 0.0
S1904 S 0.99151 0.60513 0.6839 0.0
N1905 N 1.00532 0.62181 0.72587 0.0
N1906 N 1.02014 0.59692 0.66496 0.0
C1907 C 1.04278 0.60774 0.69295 0.0
C1908 C 1.03469 0.62131 0.72612 0.0
C1909 C 0.32123 0.23553 0.40122 0.0
C1910 C 0.29563 0.23582 0.41729 0.0
C1911 C 0.33238 0.26056 0.38601 0.0
C1912 C 0.31797 0.2865 0.3857 0.0
H1913 H 0.33302 0.21599 0.40072 0.0
H1914 H 0.35186 0.25905 0.3734 0.0
S1915 S 0.25065 0.29903 0.4248 0.0
N1916 N 0.25674 0.26474 0.43287 0.0
N1917 N 0.27719 0.31134 0.40317 0.0
C1918 C 0.29252 0.28723 0.40183 0.0
C1919 C 0.28147 0.26201 0.41791 0.0
C1920 C 0.48025 0.65901 0.53852 0.0
C1921 C 0.48608 0.69111 0.55449 0.0
C1922 C 0.50295 0.64083 0.53787 0.0
C1923 C 0.53253 0.65402 0.55294 0.0
H1924 H 0.45773 0.64743 0.5275 0.0
H1925 H 0.497 0.61602 0.52698 0.0
S1926 S 0.56041 0.73792 0.59312 0.0
N1927 N 0.5242 0.73579 0.58244 0.0
N1928 N 0.56681 0.70211 0.58087 0.0
C1929 C 0.53889 0.68649 0.56706 0.0
C1930 C 0.51575 0.70488 0.568 0.0
C1931 C 1.02632 0.05314 0.70266 0.0
C1932 C 1.00043 0.06607 0.69674 0.0
C1933 C 0.04629 0.05286 0.67831 0.0
C1934 C 1.04136 0.06595 0.64753 0.0
H1935 H 1.0303 0.0414 0.72499 0.0
H1936 H 0.06528 0.0414 0.68307 0.0
S1937 S 0.97922 0.1067 0.62254 0.0
N1938 N 0.97241 0.09501 0.65971 0.0
N1939 N 1.01049 0.0951 0.61441 0.0
C1940 C 1.01681 0.08105 0.6427 0.0
C1941 C 0.99618 0.08091 0.6672 0.0
C1942 C 0.93048 0.23606 0.34235 0.0
C1943 C 0.91533 0.20453 0.33292 0.0
C1944 C 0.9158 0.26253 0.3453 0.0
C1945 C 0.88449 0.26004 0.33956 0.0
H1946 H 0.9545 0.24071 0.34756 0.0
H1947 H 0.92949 0.28549 0.35237 0.0
S1948 S 0.83289 0.18354 0.31376 0.0
N1949 N 0.866 0.17314 0.31739 0.0
N1950 N 0.83867 0.22214 0.3232 0.0
C1951 C 0.86876 0.2287 0.33005 0.0
C1952 C 0.8839 0.20147 0.32668 0.0
C1953 C 0.81138 0.1891 0.02993 0.0
C1954 C 0.83718 0.18355 0.0501 0.0
C1955 C 0.7833 0.17812 0.0373 0.0
C1956 C 0.78031 0.16072 0.06441 0.0
H1957 H 0.81294 0.20407 1.01041 0.0
H1958 H 0.76394 0.18462 0.02307 0.0
S1959 S 0.8408 0.13621 0.12104 0.0
N1960 N 0.8579 0.15698 0.09558 0.0
N1961 N 0.80499 0.13578 0.10887 0.0
C1962 C 0.80574 0.15277 0.08254 0.0
C1963 C 0.83429 0.16434 0.07548 0.0
C1964 C 0.2619 0.43566 0.32351 0.0
C1965 C 0.25911 0.45213 0.35726 0.0
C1966 C 0.2822 0.41501 0.32 0.0
C1967 C 0.30063 0.40959 0.35006 0.0
H1968 H 0.2488 0.43922 0.29936 0.0
H1969 H 0.28348 0.40335 0.29316 0.0
S1970 S 0.30024 0.44474 0.44491 0.0
N1971 N 0.27544 0.46026 0.42178 0.0
N1972 N 0.3134 0.42125 0.41501 0.0
C1973 C 0.29762 0.42532 0.3841 0.0
C1974 C 0.2769 0.44651 0.38772 0.0
C1975 C 0.33477 0.60529 0.20011 0.0
C1976 C 0.32969 0.58185 0.22042 0.0
C1977 C 0.31114 0.61613 0.182 0.0
C1978 C 0.28164 0.60418 0.1839 0.0
H1979 H 0.35696 0.61351 0.19563 0.0
H1980 H 0.31596 0.63207 0.16418 0.0
S1981 S 0.25666 0.54944 0.24133 0.0
N1982 N 0.29308 0.55177 0.24691 0.0
N1983 N 0.24883 0.57295 0.21358 0.0
C1984 C 0.27645 0.58394 0.20779 0.0
C1985 C 0.30046 0.57265 0.22599 0.0
C1986 C 0.88157 0.9923 0.3163 0.0
C1987 C 0.91265 1.00195 0.31845 0.0
C1988 C 0.86902 0.96194 0.32192 0.0
C1989 C 0.88682 0.9396 0.33046 0.0
H1990 H 0.86669 1.00794 0.3093 0.0
H1991 H 0.84516 0.95603 0.3196 0.0
S1992 S 0.96941 0.95325 0.34081 0.0
N1993 N 0.96048 0.98595 0.33085 0.0
N1994 N 0.93771 0.93077 0.34124 0.0
C1995 C 0.91781 0.94945 0.33316 0.0
C1996 C 0.93038 0.97983 0.32724 0.0
C1997 C 0.78336 0.12382 0.87143 0.0
C1998 C 0.77168 0.09534 0.84781 0.0
C1999 C 0.7996 0.14838 0.8596 0.0
C2000 C 0.80495 0.14499 0.82394 0.0
H2001 H 0.77831 0.12782 0.89842 0.0
H2002 H 0.80644 0.17069 0.87788 0.0
S2003 S 0.78378 0.07275 0.75415 0.0
N2004 N 0.76954 0.06367 0.78889 0.0
N2005 N 0.801 0.1093 0.76702 0.0
C2006 C 0.79551 0.11564 0.80118 0.0
C2007 C 0.77863 0.09094 0.81303 0.0
loop_
_geom_bond_atom_site_label_1
_geom_bond_atom_site_label_2
_geom_bond_distance
_geom_bond_site_symmetry_2
_ccdc_geom_bond_type
C0 O1 1.160 . S
C0 O7 1.185 . S
O1 C0 1.160 . S
O2 Zn3 1.899 . S
O2 C10 1.284 . S
Zn3 O2 1.899 . S
Zn3 O4 2.032 . S
Zn3 O7 2.086 . S
Zn3 O12 1.977 . S
O4 Zn3 2.032 . S
O4 C8 1.278 . S
C5 O6 1.203 . S
C5 O12 1.267 . S
O6 C5 1.203 . S
O7 C0 1.185 . S
O7 Zn3 2.086 . S
C8 O4 1.278 . S
C8 O9 1.211 . S
O9 C8 1.211 . S
C10 O2 1.284 . S
C10 O11 1.273 . S
O11 C10 1.273 . S
O12 Zn3 1.977 . S
O12 C5 1.267 . S
C13 O14 1.160 . S
C13 O20 1.185 . S
O14 C13 1.160 . S
O15 Zn16 1.899 . S
O15 C23 1.284 . S
Zn16 O15 1.899 . S
Zn16 O17 2.032 . S
Zn16 O20 2.086 . S
Zn16 O25 1.977 1_655 S
O17 Zn16 2.032 . S
O17 C21 1.278 1_655 S
C18 O19 1.203 . S
C18 O25 1.267 . S
O19 C18 1.203 . S
O20 C13 1.185 . S
O20 Zn16 2.086 . S
C21 O17 1.278 1_455 S
C21 O22 1.211 . S
O22 C21 1.211 . S
C23 O15 1.284 . S
C23 O24 1.273 1_655 S
O24 C23 1.273 1_455 S
O25 Zn16 1.977 1_455 S
O25 C18 1.267 . S
C26 O27 1.160 . S
C26 O33 1.185 . S
O27 C26 1.160 . S
O28 Zn29 1.899 1_554 S
O28 C36 1.284 . S
Zn29 O28 1.899 1_556 S
Zn29 O30 2.032 1_556 S
Zn29 O33 2.086 . S
Zn29 O38 1.977 . S
O30 Zn29 2.032 1_554 S
O30 C34 1.278 . S
C31 O32 1.203 . S
C31 O38 1.267 . S
O32 C31 1.203 . S
O33 C26 1.185 . S
O33 Zn29 2.086 . S
C34 O30 1.278 . S
C34 O35 1.211 . S
O35 C34 1.211 . S
C36 O28 1.284 . S
C36 O37 1.273 . S
O37 C36 1.273 . S
O38 Zn29 1.977 . S
O38 C31 1.267 . S
C39 O40 1.160 . S
C39 O46 1.185 . S
O40 C39 1.160 . S
O41 Zn42 1.899 . S
O41 C49 1.284 . S
Zn42 O41 1.899 . S
Zn42 O43 2.032 . S
Zn42 O46 2.086 . S
Zn42 O51 1.977 . S
O43 Zn42 2.032 . S
O43 C47 1.278 . S
C44 O45 1.203 . S
C44 O51 1.267 . S
O45 C44 1.203 . S
O46 C39 1.185 . S
O46 Zn42 2.086 . S
C47 O43 1.278 . S
C47 O48 1.211 . S
O48 C47 1.211 . S
C49 O41 1.284 . S
C49 O50 1.273 . S
O50 C49 1.273 . S
O51 Zn42 1.977 . S
O51 C44 1.267 . S
C52 O53 1.160 1_455 S
C52 O59 1.185 . S
O53 C52 1.160 1_655 S
O54 Zn55 1.899 . S
O54 C62 1.284 . S
Zn55 O54 1.899 . S
Zn55 O56 2.032 . S
Zn55 O59 2.086 . S
Zn55 O64 1.977 . S
O56 Zn55 2.032 . S
O56 C60 1.278 . S
C57 O58 1.203 . S
C57 O64 1.267 . S
O58 C57 1.203 . S
O59 C52 1.185 . S
O59 Zn55 2.086 . S
C60 O56 1.278 . S
C60 O61 1.211 . S
O61 C60 1.211 . S
C62 O54 1.284 . S
C62 O63 1.273 . S
O63 C62 1.273 . S
O64 Zn55 1.977 . S
O64 C57 1.267 . S
C65 O66 1.160 . S
C65 O72 1.185 . S
O66 C65 1.160 . S
O67 Zn68 1.899 . S
O67 C75 1.284 . S
Zn68 O67 1.899 . S
Zn68 O69 2.032 . S
Zn68 O72 2.086 . S
Zn68 O77 1.977 . S
O69 Zn68 2.032 . S
O69 C73 1.278 . S
C70 O71 1.203 . S
C70 O77 1.267 . S
O71 C70 1.203 . S
O72 C65 1.185 . S
O72 Zn68 2.086 . S
C73 O69 1.278 . S
C73 O74 1.211 . S
O74 C73 1.211 . S
C75 O67 1.284 . S
C75 O76 1.273 . S
O76 C75 1.273 . S
O77 Zn68 1.977 . S
O77 C70 1.267 . S
C78 O79 1.160 . S
C78 O85 1.185 . S
O79 C78 1.160 . S
O80 Zn81 1.899 . S
O80 C88 1.284 . S
Zn81 O80 1.899 . S
Zn81 O82 2.032 . S
Zn81 O85 2.086 . S
Zn81 O90 1.977 . S
O82 Zn81 2.032 . S
O82 C86 1.278 . S
C83 O84 1.203 . S
C83 O90 1.267 . S
O84 C83 1.203 . S
O85 C78 1.185 . S
O85 Zn81 2.086 . S
C86 O82 1.278 . S
C86 O87 1.211 . S
O87 C86 1.211 . S
C88 O80 1.284 . S
C88 O89 1.273 . S
O89 C88 1.273 . S
O90 Zn81 1.977 . S
O90 C83 1.267 . S
C91 O92 1.160 . S
C91 O98 1.185 . S
O92 C91 1.160 . S
O93 Zn94 1.899 . S
O93 C101 1.284 . S
Zn94 O93 1.899 . S
Zn94 O95 2.032 . S
Zn94 O98 2.086 . S
Zn94 O103 1.977 . S
O95 Zn94 2.032 . S
O95 C99 1.278 . S
C96 O97 1.205 . S
C96 O103 1.267 . S
O97 C96 1.205 . S
O98 C91 1.185 . S
O98 Zn94 2.086 . S
C99 O95 1.278 . S
C99 O100 1.211 . S
O100 C99 1.211 . S
C101 O93 1.284 . S
C101 O102 1.273 . S
O102 C101 1.273 . S
O103 Zn94 1.977 . S
O103 C96 1.267 . S
C104 O105 1.160 . S
C104 O111 1.185 . S
O105 C104 1.160 . S
O106 Zn107 1.899 . S
O106 C114 1.284 . S
Zn107 O106 1.899 . S
Zn107 O108 2.032 . S
Zn107 O111 2.086 . S
Zn107 O116 1.977 . S
O108 Zn107 2.032 . S
O108 C112 1.278 . S
C109 O110 1.203 . S
C109 O116 1.267 . S
O110 C109 1.203 . S
O111 C104 1.185 . S
O111 Zn107 2.086 . S
C112 O108 1.278 . S
C112 O113 1.211 . S
O113 C112 1.211 . S
C114 O106 1.284 . S
C114 O115 1.273 . S
O115 C114 1.273 . S
O116 Zn107 1.977 . S
O116 C109 1.267 . S
C117 O118 1.160 . S
C117 O124 1.185 . S
O118 C117 1.160 . S
O119 Zn120 1.899 . S
O119 C127 1.284 . S
Zn120 O119 1.899 . S
Zn120 O121 2.032 . S
Zn120 O124 2.086 . S
Zn120 O129 1.977 . S
O121 Zn120 2.032 . S
O121 C125 1.278 . S
C122 O123 1.203 . S
C122 O129 1.267 . S
O123 C122 1.203 . S
O124 C117 1.185 . S
O124 Zn120 2.086 . S
C125 O121 1.278 . S
C125 O126 1.211 . S
O126 C125 1.211 . S
C127 O119 1.284 . S
C127 O128 1.273 . S
O128 C127 1.273 . S
O129 Zn120 1.977 . S
O129 C122 1.267 . S
C130 O131 1.160 . S
C130 O137 1.185 1_565 S
O131 C130 1.160 . S
O132 Zn133 1.899 . S
O132 C140 1.284 . S
Zn133 O132 1.899 . S
Zn133 O134 2.032 . S
Zn133 O137 2.086 . S
Zn133 O142 1.977 . S
O134 Zn133 2.032 . S
O134 C138 1.278 . S
C135 O136 1.203 . S
C135 O142 1.267 . S
O136 C135 1.203 . S
O137 C130 1.185 1_545 S
O137 Zn133 2.086 . S
C138 O134 1.278 . S
C138 O139 1.211 . S
O139 C138 1.211 . S
C140 O132 1.284 . S
C140 O141 1.273 . S
O141 C140 1.273 . S
O142 Zn133 1.977 . S
O142 C135 1.267 . S
C143 O144 1.160 . S
C143 O150 1.185 . S
O144 C143 1.160 . S
O145 Zn146 1.899 . S
O145 C153 1.284 . S
Zn146 O145 1.899 . S
Zn146 O147 2.032 . S
Zn146 O150 2.086 . S
Zn146 O155 1.977 . S
O147 Zn146 2.032 . S
O147 C151 1.278 . S
C148 O149 1.203 . S
C148 O155 1.267 . S
O149 C148 1.203 . S
O150 C143 1.185 . S
O150 Zn146 2.086 . S
C151 O147 1.278 . S
C151 O152 1.211 . S
O152 C151 1.211 . S
C153 O145 1.284 . S
C153 O154 1.273 . S
O154 C153 1.273 . S
O155 Zn146 1.977 . S
O155 C148 1.267 . S
C156 O157 1.160 . S
C156 O163 1.185 . S
O157 C156 1.160 . S
O158 Zn159 1.899 . S
O158 C166 1.284 . S
Zn159 O158 1.899 . S
Zn159 O160 2.032 . S
Zn159 O163 2.086 . S
Zn159 O168 1.977 . S
O160 Zn159 2.032 . S
O160 C164 1.278 . S
C161 O162 1.203 . S
C161 O168 1.267 . S
O162 C161 1.203 . S
O163 C156 1.185 . S
O163 Zn159 2.086 . S
C164 O160 1.278 . S
C164 O165 1.211 . S
O165 C164 1.211 . S
C166 O158 1.284 . S
C166 O167 1.273 . S
O167 C166 1.273 . S
O168 Zn159 1.977 . S
O168 C161 1.267 . S
C169 O170 1.160 . S
C169 O176 1.185 . S
O170 C169 1.160 . S
O171 Zn172 1.899 . S
O171 C179 1.284 . S
Zn172 O171 1.899 . S
Zn172 O173 2.032 . S
Zn172 O176 2.086 . S
Zn172 O181 1.977 . S
O173 Zn172 2.032 . S
O173 C177 1.278 . S
C174 O175 1.203 . S
C174 O181 1.267 . S
O175 C174 1.203 . S
O176 C169 1.185 . S
O176 Zn172 2.086 . S
C177 O173 1.278 . S
C177 O178 1.211 . S
O178 C177 1.211 . S
C179 O171 1.284 . S
C179 O180 1.273 . S
O180 C179 1.273 . S
O181 Zn172 1.977 . S
O181 C174 1.267 . S
C182 O183 1.160 . S
C182 O189 1.185 . S
O183 C182 1.160 . S
O184 Zn185 1.899 . S
O184 C192 1.284 . S
Zn185 O184 1.899 . S
Zn185 O186 2.032 . S
Zn185 O189 2.086 . S
Zn185 O194 1.977 . S
O186 Zn185 2.032 . S
O186 C190 1.278 . S
C187 O188 1.203 . S
C187 O194 1.267 . S
O188 C187 1.203 . S
O189 C182 1.185 . S
O189 Zn185 2.086 . S
C190 O186 1.278 . S
C190 O191 1.211 . S
O191 C190 1.211 . S
C192 O184 1.284 . S
C192 O193 1.273 . S
O193 C192 1.273 . S
O194 Zn185 1.977 . S
O194 C187 1.267 . S
C195 O196 1.160 . S
C195 O202 1.185 . S
O196 C195 1.160 . S
O197 Zn198 1.899 1_565 S
O197 C205 1.284 . S
Zn198 O197 1.899 1_545 S
Zn198 O199 2.032 1_545 S
Zn198 O202 2.086 . S
Zn198 O207 1.977 . S
O199 Zn198 2.032 1_565 S
O199 C203 1.278 . S
C200 O201 1.203 . S
C200 O207 1.267 . S
O201 C200 1.203 . S
O202 C195 1.185 . S
O202 Zn198 2.086 . S
C203 O199 1.278 . S
C203 O204 1.211 . S
O204 C203 1.211 . S
C205 O197 1.284 . S
C205 O206 1.273 . S
O206 C205 1.273 . S
O207 Zn198 1.977 . S
O207 C200 1.267 . S
C208 O209 1.160 . S
C208 O215 1.185 . S
O209 C208 1.160 . S
O210 Zn211 1.899 . S
O210 C218 1.284 . S
Zn211 O210 1.899 . S
Zn211 O212 2.032 . S
Zn211 O215 2.086 . S
Zn211 O220 1.977 . S
O212 Zn211 2.032 . S
O212 C216 1.278 . S
C213 O214 1.203 . S
C213 O220 1.267 . S
O214 C213 1.203 . S
O215 C208 1.185 . S
O215 Zn211 2.086 . S
C216 O212 1.278 . S
C216 O217 1.211 . S
O217 C216 1.211 . S
C218 O210 1.284 . S
C218 O219 1.273 . S
O219 C218 1.273 . S
O220 Zn211 1.977 . S
O220 C213 1.267 . S
C221 O222 1.160 . S
C221 O228 1.185 . S
O222 C221 1.160 . S
O223 Zn224 1.899 . S
O223 C231 1.284 . S
Zn224 O223 1.899 . S
Zn224 O225 2.032 . S
Zn224 O228 2.086 . S
Zn224 O233 1.977 . S
O225 Zn224 2.032 . S
O225 C229 1.278 . S
C226 O227 1.203 . S
C226 O233 1.267 . S
O227 C226 1.203 . S
O228 C221 1.185 . S
O228 Zn224 2.086 . S
C229 O225 1.278 . S
C229 O230 1.211 . S
O230 C229 1.211 . S
C231 O223 1.284 . S
C231 O232 1.273 . S
O232 C231 1.273 . S
O233 Zn224 1.977 . S
O233 C226 1.267 . S
C234 O235 1.160 . S
C234 O241 1.185 . S
O235 C234 1.160 . S
O236 Zn237 1.899 . S
O236 C244 1.284 . S
Zn237 O236 1.899 . S
Zn237 O238 2.032 . S
Zn237 O241 2.086 . S
Zn237 O246 1.977 . S
O238 Zn237 2.032 . S
O238 C242 1.278 . S
C239 O240 1.203 . S
C239 O246 1.267 . S
O240 C239 1.203 . S
O241 C234 1.185 . S
O241 Zn237 2.086 . S
C242 O238 1.278 . S
C242 O243 1.211 . S
O243 C242 1.211 . S
C244 O236 1.284 . S
C244 O245 1.273 . S
O245 C244 1.273 . S
O246 Zn237 1.977 . S
O246 C239 1.267 . S
C247 O248 1.160 . S
C247 O254 1.185 . S
O248 C247 1.160 . S
O249 Zn250 1.899 . S
O249 C257 1.284 . S
Zn250 O249 1.899 . S
Zn250 O251 2.032 . S
Zn250 O254 2.086 . S
Zn250 O259 1.977 1_565 S
O251 Zn250 2.032 . S
O251 C255 1.278 1_565 S
C252 O253 1.203 . S
C252 O259 1.267 . S
O253 C252 1.203 . S
O254 C247 1.185 . S
O254 Zn250 2.086 . S
C255 O251 1.278 1_545 S
C255 O256 1.211 . S
O256 C255 1.211 . S
C257 O249 1.284 . S
C257 O258 1.273 1_565 S
O258 C257 1.273 1_545 S
O259 Zn250 1.977 1_545 S
O259 C252 1.267 . S
C260 O261 1.160 . S
C260 O267 1.185 1_554 S
O261 C260 1.160 . S
O262 Zn263 1.899 . S
O262 C270 1.284 . S
Zn263 O262 1.899 . S
Zn263 O264 2.032 1_554 S
Zn263 O267 2.086 1_554 S
Zn263 O272 1.977 1_554 S
O264 Zn263 2.032 1_556 S
O264 C268 1.278 . S
C265 O266 1.203 1_556 S
C265 O272 1.267 . S
O266 C265 1.203 1_554 S
O267 C260 1.185 1_556 S
O267 Zn263 2.086 1_556 S
C268 O264 1.278 . S
C268 O269 1.211 . S
O269 C268 1.211 . S
C270 O262 1.284 . S
C270 O271 1.273 . S
O271 C270 1.273 . S
O272 Zn263 1.977 1_556 S
O272 C265 1.267 . S
C273 O274 1.160 . S
C273 O280 1.185 . S
O274 C273 1.160 . S
O275 Zn276 1.899 . S
O275 C283 1.284 1_655 S
Zn276 O275 1.899 . S
Zn276 O277 2.032 1_655 S
Zn276 O280 2.086 . S
Zn276 O285 1.977 . S
O277 Zn276 2.032 1_455 S
O277 C281 1.277 . S
C278 O279 1.203 . S
C278 O285 1.267 . S
O279 C278 1.203 . S
O280 C273 1.185 . S
O280 Zn276 2.086 . S
C281 O277 1.277 . S
C281 O282 1.211 . S
O282 C281 1.211 . S
C283 O275 1.284 1_455 S
C283 O284 1.273 . S
O284 C283 1.273 . S
O285 Zn276 1.977 . S
O285 C278 1.267 . S
C286 O287 1.160 . S
C286 O293 1.185 . S
O287 C286 1.160 . S
O288 Zn289 1.899 . S
O288 C296 1.284 . S
Zn289 O288 1.899 . S
Zn289 O290 2.032 . S
Zn289 O293 2.086 . S
Zn289 O298 1.977 . S
O290 Zn289 2.032 . S
O290 C294 1.278 . S
C291 O292 1.203 . S
C291 O298 1.267 . S
O292 C291 1.203 . S
O293 C286 1.185 . S
O293 Zn289 2.086 . S
C294 O290 1.278 . S
C294 O295 1.211 . S
O295 C294 1.211 . S
C296 O288 1.284 . S
C296 O297 1.273 . S
O297 C296 1.273 . S
O298 Zn289 1.977 . S
O298 C291 1.267 . S
C299 O300 1.160 . S
C299 O306 1.185 . S
O300 C299 1.160 . S
O301 Zn302 1.899 . S
O301 C309 1.284 . S
Zn302 O301 1.899 . S
Zn302 O303 2.032 . S
Zn302 O306 2.086 . S
Zn302 O311 1.977 . S
O303 Zn302 2.032 . S
O303 C307 1.278 . S
C304 O305 1.203 . S
C304 O311 1.267 . S
O305 C304 1.203 . S
O306 C299 1.185 . S
O306 Zn302 2.086 . S
C307 O303 1.278 . S
C307 O308 1.211 . S
O308 C307 1.211 . S
C309 O301 1.284 . S
C309 O310 1.273 . S
O310 C309 1.273 . S
O311 Zn302 1.977 . S
O311 C304 1.267 . S
Nd312 C314 2.836 . S
Nd312 O332 2.500 . S
Nd312 O333 2.492 . S
Nd312 O334 2.487 . S
Nd312 O335 2.682 . S
Nd312 O336 2.410 . S
Nd312 O341 2.414 . S
Nd312 O343 2.424 . S
Nd313 C323 2.836 1_545 S
Nd313 O335 2.414 . S
Nd313 O337 2.424 1_455 S
Nd313 O338 2.500 1_545 S
Nd313 O339 2.492 1_545 S
Nd313 O340 2.487 . S
Nd313 O341 2.682 . S
Nd313 O342 2.410 . S
C314 Nd312 2.836 . S
C314 C315 1.498 . S
C314 O332 1.258 . S
C314 O333 1.239 . S
C315 C314 1.498 . S
C315 C316 1.366 . S
C315 C320 1.407 . S
C316 C315 1.366 . S
C316 C317 1.392 . S
C316 H344 0.930 . S
C317 C316 1.392 . S
C317 C318 1.398 . S
C317 H345 0.929 . S
C318 C317 1.398 . S
C318 C319 1.352 . S
C319 C318 1.352 . S
C319 C320 1.384 . S
C319 H346 0.930 . S
C320 C315 1.407 . S
C320 C319 1.384 . S
C320 H347 0.929 . S
C321 O334 1.241 . S
C321 O335 1.273 . S
C322 O336 1.251 . S
C322 O337 1.268 1_455 S
C323 Nd313 2.836 1_565 S
C323 C324 1.498 . S
C323 O338 1.258 . S
C323 O339 1.239 . S
C324 C323 1.498 . S
C324 C325 1.366 . S
C324 C329 1.407 . S
C325 C324 1.366 . S
C325 C326 1.392 . S
C325 H348 0.930 . S
C326 C325 1.392 . S
C326 C327 1.398 . S
C326 H349 0.929 . S
C327 C326 1.398 . S
C327 C328 1.352 . S
C328 C327 1.352 . S
C328 C329 1.384 . S
C328 H350 0.930 . S
C329 C324 1.407 . S
C329 C328 1.384 . S
C329 H351 0.929 . S
C330 O340 1.241 . S
C330 O341 1.273 . S
C331 O342 1.251 . S
C331 O343 1.268 . S
O332 Nd312 2.500 . S
O332 C314 1.258 . S
O333 Nd312 2.492 . S
O333 C314 1.239 . S
O334 Nd312 2.487 . S
O334 C321 1.241 . S
O335 Nd312 2.682 . S
O335 Nd313 2.414 . S
O335 C321 1.273 . S
O336 Nd312 2.410 . S
O336 C322 1.251 . S
O337 Nd313 2.424 1_655 S
O337 C322 1.268 1_655 S
O338 Nd313 2.500 1_565 S
O338 C323 1.258 . S
O339 Nd313 2.492 1_565 S
O339 C323 1.239 . S
O340 Nd313 2.487 . S
O340 C330 1.241 . S
O341 Nd312 2.414 . S
O341 Nd313 2.682 . S
O341 C330 1.273 . S
O342 Nd313 2.410 . S
O342 C331 1.251 . S
O343 Nd312 2.424 . S
O343 C331 1.268 . S
H344 C316 0.930 . S
H345 C317 0.929 . S
H346 C319 0.930 . S
H347 C320 0.929 . S
H348 C325 0.930 . S
H349 C326 0.929 . S
H350 C328 0.930 . S
H351 C329 0.929 . S
Nd352 C354 2.836 . S
Nd352 O372 2.500 . S
Nd352 O373 2.492 . S
Nd352 O374 2.487 . S
Nd352 O375 2.682 . S
Nd352 O376 2.410 . S
Nd352 O381 2.414 . S
Nd352 O383 2.424 . S
Nd353 C363 2.836 . S
Nd353 O375 2.414 . S
Nd353 O377 2.424 . S
Nd353 O378 2.500 . S
Nd353 O379 2.492 . S
Nd353 O380 2.487 . S
Nd353 O381 2.682 . S
Nd353 O382 2.410 . S
C354 Nd352 2.836 . S
C354 C355 1.498 . S
C354 O372 1.258 . S
C354 O373 1.239 . S
C355 C354 1.498 . S
C355 C356 1.366 . S
C355 C360 1.407 . S
C356 C355 1.366 . S
C356 C357 1.392 . S
C356 H384 0.930 . S
C357 C356 1.392 . S
C357 C358 1.391 1_565 S
C357 H385 0.929 . S
C358 C357 1.391 1_545 S
C358 C359 1.340 1_545 S
C359 C358 1.340 1_565 S
C359 C360 1.384 . S
C359 H386 0.930 1_565 S
C360 C355 1.407 . S
C360 C359 1.384 . S
C360 H387 0.929 . S
C361 O374 1.241 . S
C361 O375 1.273 . S
C362 O376 1.251 . S
C362 O377 1.268 . S
C363 Nd353 2.836 . S
C363 C364 1.498 . S
C363 O378 1.258 . S
C363 O379 1.239 . S
C364 C363 1.498 . S
C364 C365 1.366 . S
C364 C369 1.407 . S
C365 C364 1.366 . S
C365 C366 1.392 . S
C365 H388 0.930 . S
C366 C365 1.392 . S
C366 C367 1.398 . S
C366 H389 0.929 . S
C367 C366 1.398 . S
C367 C368 1.352 . S
C368 C367 1.352 . S
C368 C369 1.384 . S
C368 H390 0.930 . S
C369 C364 1.407 . S
C369 C368 1.384 . S
C369 H391 0.929 . S
C370 O380 1.241 . S
C370 O381 1.273 . S
C371 O382 1.251 . S
C371 O383 1.268 . S
O372 Nd352 2.500 . S
O372 C354 1.258 . S
O373 Nd352 2.492 . S
O373 C354 1.239 . S
O374 Nd352 2.487 . S
O374 C361 1.241 . S
O375 Nd352 2.682 . S
O375 Nd353 2.414 . S
O375 C361 1.273 . S
O376 Nd352 2.410 . S
O376 C362 1.251 . S
O377 Nd353 2.424 . S
O377 C362 1.268 . S
O378 Nd353 2.500 . S
O378 C363 1.258 . S
O379 Nd353 2.492 . S
O379 C363 1.239 . S
O380 Nd353 2.487 . S
O380 C370 1.241 . S
O381 Nd352 2.414 . S
O381 Nd353 2.682 . S
O381 C370 1.273 . S
O382 Nd353 2.410 . S
O382 C371 1.251 . S
O383 Nd352 2.424 . S
O383 C371 1.268 . S
H384 C356 0.930 . S
H385 C357 0.929 . S
H386 C359 0.930 1_545 S
H387 C360 0.929 . S
H388 C365 0.930 . S
H389 C366 0.929 . S
H390 C368 0.930 . S
H391 C369 0.929 . S
Nd392 C394 2.836 . S
Nd392 O412 2.500 . S
Nd392 O413 2.492 . S
Nd392 O414 2.487 . S
Nd392 O415 2.682 . S
Nd392 O416 2.410 . S
Nd392 O421 2.414 . S
Nd392 O423 2.424 . S
Nd393 C403 2.836 . S
Nd393 O415 2.414 . S
Nd393 O417 2.424 . S
Nd393 O418 2.500 . S
Nd393 O419 2.492 . S
Nd393 O420 2.487 . S
Nd393 O421 2.682 . S
Nd393 O422 2.410 . S
C394 Nd392 2.836 . S
C394 C395 1.498 . S
C394 O412 1.258 . S
C394 O413 1.239 . S
C395 C394 1.498 . S
C395 C396 1.366 . S
C395 C400 1.407 . S
C396 C395 1.366 . S
C396 C397 1.392 . S
C396 H424 0.930 . S
C397 C396 1.392 . S
C397 C398 1.398 . S
C397 H425 0.929 . S
C398 C397 1.398 . S
C398 C399 1.352 . S
C399 C398 1.352 . S
C399 C400 1.384 . S
C399 H426 0.930 . S
C400 C395 1.407 . S
C400 C399 1.384 . S
C400 H427 0.929 . S
C401 O414 1.241 . S
C401 O415 1.273 . S
C402 O416 1.251 . S
C402 O417 1.268 . S
C403 Nd393 2.836 . S
C403 C404 1.498 . S
C403 O418 1.258 . S
C403 O419 1.239 . S
C404 C403 1.498 . S
C404 C405 1.366 . S
C404 C409 1.407 . S
C405 C404 1.366 . S
C405 C406 1.392 . S
C405 H428 0.930 . S
C406 C405 1.392 . S
C406 C407 1.398 . S
C406 H429 0.929 . S
C407 C406 1.398 . S
C407 C408 1.352 . S
C408 C407 1.352 . S
C408 C409 1.384 . S
C408 H430 0.930 . S
C409 C404 1.407 . S
C409 C408 1.384 . S
C409 H431 0.929 . S
C410 O420 1.241 . S
C410 O421 1.273 . S
C411 O422 1.251 . S
C411 O423 1.268 . S
O412 Nd392 2.500 . S
O412 C394 1.258 . S
O413 Nd392 2.492 . S
O413 C394 1.239 . S
O414 Nd392 2.487 . S
O414 C401 1.241 . S
O415 Nd392 2.682 . S
O415 Nd393 2.414 . S
O415 C401 1.273 . S
O416 Nd392 2.410 . S
O416 C402 1.251 . S
O417 Nd393 2.424 . S
O417 C402 1.268 . S
O418 Nd393 2.500 . S
O418 C403 1.258 . S
O419 Nd393 2.492 . S
O419 C403 1.239 . S
O420 Nd393 2.487 . S
O420 C410 1.241 . S
O421 Nd392 2.414 . S
O421 Nd393 2.682 . S
O421 C410 1.273 . S
O422 Nd393 2.410 . S
O422 C411 1.251 . S
O423 Nd392 2.424 . S
O423 C411 1.268 . S
H424 C396 0.930 . S
H425 C397 0.929 . S
H426 C399 0.930 . S
H427 C400 0.929 . S
H428 C405 0.930 . S
H429 C406 0.929 . S
H430 C408 0.930 . S
H431 C409 0.929 . S
Nd432 C434 2.836 . S
Nd432 O452 2.500 . S
Nd432 O453 2.492 . S
Nd432 O454 2.487 . S
Nd432 O455 2.682 . S
Nd432 O456 2.410 . S
Nd432 O461 2.414 . S
Nd432 O463 2.424 . S
Nd433 C443 2.836 . S
Nd433 O455 2.414 . S
Nd433 O457 2.424 . S
Nd433 O458 2.500 . S
Nd433 O459 2.492 . S
Nd433 O460 2.487 . S
Nd433 O461 2.682 . S
Nd433 O462 2.410 . S
C434 Nd432 2.836 . S
C434 C435 1.498 . S
C434 O452 1.258 . S
C434 O453 1.239 . S
C435 C434 1.498 . S
C435 C436 1.366 . S
C435 C440 1.407 . S
C436 C435 1.366 . S
C436 C437 1.392 1_556 S
C436 H464 0.930 . S
C437 C436 1.392 1_554 S
C437 C438 1.398 . S
C437 H465 0.929 . S
C438 C437 1.398 . S
C438 C439 1.352 . S
C439 C438 1.352 . S
C439 C440 1.384 1_554 S
C439 H466 0.930 . S
C440 C435 1.407 . S
C440 C439 1.384 1_556 S
C440 H467 0.929 . S
C441 O454 1.241 . S
C441 O455 1.273 . S
C442 O456 1.251 . S
C442 O457 1.268 . S
C443 Nd433 2.836 . S
C443 C444 1.498 . S
C443 O458 1.258 . S
C443 O459 1.239 . S
C444 C443 1.498 . S
C444 C445 1.366 . S
C444 C449 1.407 . S
C445 C444 1.366 . S
C445 C446 1.392 . S
C445 H468 0.930 . S
C446 C445 1.392 . S
C446 C447 1.398 . S
C446 H469 0.929 . S
C447 C446 1.398 . S
C447 C448 1.352 . S
C448 C447 1.352 . S
C448 C449 1.384 . S
C448 H470 0.930 . S
C449 C444 1.407 . S
C449 C448 1.384 . S
C449 H471 0.929 . S
C450 O460 1.241 . S
C450 O461 1.273 . S
C451 O462 1.251 . S
C451 O463 1.268 . S
O452 Nd432 2.500 . S
O452 C434 1.258 . S
O453 Nd432 2.492 . S
O453 C434 1.239 . S
O454 Nd432 2.487 . S
O454 C441 1.241 . S
O455 Nd432 2.682 . S
O455 Nd433 2.414 . S
O455 C441 1.273 . S
O456 Nd432 2.410 . S
O456 C442 1.251 . S
O457 Nd433 2.424 . S
O457 C442 1.268 . S
O458 Nd433 2.500 . S
O458 C443 1.258 . S
O459 Nd433 2.492 . S
O459 C443 1.239 . S
O460 Nd433 2.487 . S
O460 C450 1.241 . S
O461 Nd432 2.414 . S
O461 Nd433 2.682 . S
O461 C450 1.273 . S
O462 Nd433 2.410 . S
O462 C451 1.251 . S
O463 Nd432 2.424 . S
O463 C451 1.268 . S
H464 C436 0.930 . S
H465 C437 0.929 . S
H466 C439 0.930 . S
H467 C440 0.929 . S
H468 C445 0.930 . S
H469 C446 0.929 . S
H470 C448 0.930 . S
H471 C449 0.929 . S
Nd472 C474 2.836 . S
Nd472 O492 2.500 . S
Nd472 O493 2.492 . S
Nd472 O494 2.487 . S
Nd472 O495 2.682 . S
Nd472 O496 2.410 . S
Nd472 O501 2.414 . S
Nd472 O503 2.424 . S
Nd473 C483 2.836 1_545 S
Nd473 O495 2.414 . S
Nd473 O497 2.424 . S
Nd473 O498 2.500 1_545 S
Nd473 O499 2.492 1_545 S
Nd473 O500 2.487 1_455 S
Nd473 O501 2.682 . S
Nd473 O502 2.410 . S
C474 Nd472 2.836 . S
C474 C475 1.498 . S
C474 O492 1.258 . S
C474 O493 1.239 . S
C475 C474 1.498 . S
C475 C476 1.366 . S
C475 C480 1.407 . S
C476 C475 1.366 . S
C476 C477 1.392 . S
C476 H504 0.930 . S
C477 C476 1.392 . S
C477 C478 1.398 . S
C477 H505 0.929 1_455 S
C478 C477 1.398 . S
C478 C479 1.352 . S
C479 C478 1.352 . S
C479 C480 1.384 . S
C479 H506 0.930 . S
C480 C475 1.407 . S
C480 C479 1.384 . S
C480 H507 0.929 . S
C481 O494 1.241 . S
C481 O495 1.273 . S
C482 O496 1.251 . S
C482 O497 1.268 . S
C483 Nd473 2.836 1_565 S
C483 C484 1.498 . S
C483 O498 1.258 . S
C483 O499 1.239 . S
C484 C483 1.498 . S
C484 C485 1.366 . S
C484 C489 1.407 . S
C485 C484 1.366 . S
C485 C486 1.392 . S
C485 H508 0.930 . S
C486 C485 1.392 . S
C486 C487 1.398 . S
C486 H509 0.929 . S
C487 C486 1.398 . S
C487 C488 1.352 . S
C488 C487 1.352 . S
C488 C489 1.384 . S
C488 H510 0.930 . S
C489 C484 1.407 . S
C489 C488 1.384 . S
C489 H511 0.929 . S
C490 O500 1.241 1_455 S
C490 O501 1.273 . S
C491 O502 1.251 . S
C491 O503 1.268 . S
O492 Nd472 2.500 . S
O492 C474 1.258 . S
O493 Nd472 2.492 . S
O493 C474 1.239 . S
O494 Nd472 2.487 . S
O494 C481 1.241 . S
O495 Nd472 2.682 . S
O495 Nd473 2.414 . S
O495 C481 1.273 . S
O496 Nd472 2.410 . S
O496 C482 1.251 . S
O497 Nd473 2.424 . S
O497 C482 1.268 . S
O498 Nd473 2.500 1_565 S
O498 C483 1.258 . S
O499 Nd473 2.492 1_565 S
O499 C483 1.239 . S
O500 Nd473 2.487 1_655 S
O500 C490 1.241 1_655 S
O501 Nd472 2.414 . S
O501 Nd473 2.682 . S
O501 C490 1.273 . S
O502 Nd473 2.410 . S
O502 C491 1.251 . S
O503 Nd472 2.424 . S
O503 C491 1.268 . S
H504 C476 0.930 . S
H505 C477 0.929 1_655 S
H506 C479 0.930 . S
H507 C480 0.929 . S
H508 C485 0.930 . S
H509 C486 0.929 . S
H510 C488 0.930 . S
H511 C489 0.929 . S
Nd512 C514 2.836 . S
Nd512 O532 2.500 . S
Nd512 O533 2.492 . S
Nd512 O534 2.487 . S
Nd512 O535 2.682 . S
Nd512 O536 2.410 . S
Nd512 O541 2.414 . S
Nd512 O543 2.424 . S
Nd513 C523 2.836 . S
Nd513 O535 2.414 . S
Nd513 O537 2.424 . S
Nd513 O538 2.500 . S
Nd513 O539 2.492 . S
Nd513 O540 2.487 . S
Nd513 O541 2.682 . S
Nd513 O542 2.410 . S
C514 Nd512 2.836 . S
C514 C515 1.498 . S
C514 O532 1.258 . S
C514 O533 1.239 . S
C515 C514 1.498 . S
C515 C516 1.366 . S
C515 C520 1.407 . S
C516 C515 1.366 . S
C516 C517 1.392 . S
C516 H544 0.930 . S
C517 C516 1.392 . S
C517 C518 1.398 . S
C517 H545 0.929 . S
C518 C517 1.398 . S
C518 C519 1.352 . S
C519 C518 1.352 . S
C519 C520 1.384 . S
C519 H546 0.930 . S
C520 C515 1.407 . S
C520 C519 1.384 . S
C520 H547 0.929 . S
C521 O534 1.241 . S
C521 O535 1.273 . S
C522 O536 1.251 . S
C522 O537 1.268 . S
C523 Nd513 2.836 . S
C523 C524 1.498 . S
C523 O538 1.258 . S
C523 O539 1.239 . S
C524 C523 1.498 . S
C524 C525 1.366 . S
C524 C529 1.407 . S
C525 C524 1.366 . S
C525 C526 1.392 . S
C525 H548 0.930 . S
C526 C525 1.392 . S
C526 C527 1.398 . S
C526 H549 0.929 . S
C527 C526 1.398 . S
C527 C528 1.352 . S
C528 C527 1.352 . S
C528 C529 1.384 . S
C528 H550 0.930 . S
C529 C524 1.407 . S
C529 C528 1.384 . S
C529 H551 0.929 . S
C530 O540 1.241 . S
C530 O541 1.273 . S
C531 O542 1.251 . S
C531 O543 1.268 . S
O532 Nd512 2.500 . S
O532 C514 1.258 . S
O533 Nd512 2.492 . S
O533 C514 1.239 . S
O534 Nd512 2.487 . S
O534 C521 1.241 . S
O535 Nd512 2.682 . S
O535 Nd513 2.414 . S
O535 C521 1.273 . S
O536 Nd512 2.410 . S
O536 C522 1.251 . S
O537 Nd513 2.424 . S
O537 C522 1.268 . S
O538 Nd513 2.500 . S
O538 C523 1.258 . S
O539 Nd513 2.492 . S
O539 C523 1.239 . S
O540 Nd513 2.487 . S
O540 C530 1.241 . S
O541 Nd512 2.414 . S
O541 Nd513 2.682 . S
O541 C530 1.273 . S
O542 Nd513 2.410 . S
O542 C531 1.251 . S
O543 Nd512 2.424 . S
O543 C531 1.268 . S
H544 C516 0.930 . S
H545 C517 0.929 . S
H546 C519 0.930 . S
H547 C520 0.929 . S
H548 C525 0.930 . S
H549 C526 0.929 . S
H550 C528 0.930 . S
H551 C529 0.929 . S
Nd552 C554 2.836 . S
Nd552 O572 2.500 . S
Nd552 O573 2.492 . S
Nd552 O574 2.487 1_545 S
Nd552 O575 2.682 . S
Nd552 O576 2.410 . S
Nd552 O581 2.414 . S
Nd552 O583 2.424 . S
Nd553 C563 2.836 . S
Nd553 O575 2.414 . S
Nd553 O577 2.424 . S
Nd553 O578 2.500 . S
Nd553 O579 2.492 . S
Nd553 O580 2.487 . S
Nd553 O581 2.682 . S
Nd553 O582 2.410 . S
C554 Nd552 2.836 . S
C554 C555 1.498 . S
C554 O572 1.258 . S
C554 O573 1.239 . S
C555 C554 1.498 . S
C555 C556 1.366 . S
C555 C560 1.407 1_545 S
C556 C555 1.366 . S
C556 C557 1.392 . S
C556 H584 0.930 . S
C557 C556 1.392 . S
C557 C558 1.398 . S
C557 H585 0.929 . S
C558 C557 1.398 . S
C558 C559 1.352 1_545 S
C559 C558 1.352 1_565 S
C559 C560 1.384 . S
C559 H586 0.930 . S
C560 C555 1.407 1_565 S
C560 C559 1.384 . S
C560 H587 0.929 . S
C561 O574 1.241 1_545 S
C561 O575 1.273 . S
C562 O576 1.251 . S
C562 O577 1.268 . S
C563 Nd553 2.836 . S
C563 C564 1.498 . S
C563 O578 1.258 . S
C563 O579 1.239 . S
C564 C563 1.498 . S
C564 C565 1.366 . S
C564 C569 1.407 . S
C565 C564 1.366 . S
C565 C566 1.392 . S
C565 H588 0.930 . S
C566 C565 1.392 . S
C566 C567 1.398 . S
C566 H589 0.929 . S
C567 C566 1.398 . S
C567 C568 1.352 . S
C568 C567 1.352 . S
C568 C569 1.384 . S
C568 H590 0.930 . S
C569 C564 1.407 . S
C569 C568 1.384 . S
C569 H591 0.929 . S
C570 O580 1.241 . S
C570 O581 1.273 . S
C571 O582 1.251 . S
C571 O583 1.268 . S
O572 Nd552 2.500 . S
O572 C554 1.258 . S
O573 Nd552 2.492 . S
O573 C554 1.239 . S
O574 Nd552 2.487 1_565 S
O574 C561 1.241 1_565 S
O575 Nd552 2.682 . S
O575 Nd553 2.414 . S
O575 C561 1.273 . S
O576 Nd552 2.410 . S
O576 C562 1.251 . S
O577 Nd553 2.424 . S
O577 C562 1.268 . S
O578 Nd553 2.500 . S
O578 C563 1.258 . S
O579 Nd553 2.492 . S
O579 C563 1.239 . S
O580 Nd553 2.487 . S
O580 C570 1.241 . S
O581 Nd552 2.414 . S
O581 Nd553 2.682 . S
O581 C570 1.273 . S
O582 Nd553 2.410 . S
O582 C571 1.251 . S
O583 Nd552 2.424 . S
O583 C571 1.268 . S
H584 C556 0.930 . S
H585 C557 0.929 . S
H586 C559 0.930 . S
H587 C560 0.929 . S
H588 C565 0.930 . S
H589 C566 0.929 . S
H590 C568 0.930 . S
H591 C569 0.929 . S
Nd592 C594 2.836 . S
Nd592 O612 2.500 . S
Nd592 O613 2.492 . S
Nd592 O614 2.487 . S
Nd592 O615 2.682 . S
Nd592 O616 2.410 . S
Nd592 O621 2.414 . S
Nd592 O623 2.424 . S
Nd593 C603 2.836 . S
Nd593 O615 2.414 . S
Nd593 O617 2.424 . S
Nd593 O618 2.500 . S
Nd593 O619 2.492 . S
Nd593 O620 2.487 . S
Nd593 O621 2.682 . S
Nd593 O622 2.410 . S
C594 Nd592 2.836 . S
C594 C595 1.498 . S
C594 O612 1.258 . S
C594 O613 1.239 . S
C595 C594 1.498 . S
C595 C596 1.366 . S
C595 C600 1.407 . S
C596 C595 1.366 . S
C596 C597 1.392 . S
C596 H624 0.930 . S
C597 C596 1.392 . S
C597 C598 1.398 . S
C597 H625 0.929 . S
C598 C597 1.398 . S
C598 C599 1.352 . S
C599 C598 1.352 . S
C599 C600 1.384 . S
C599 H626 0.930 . S
C600 C595 1.407 . S
C600 C599 1.384 . S
C600 H627 0.929 . S
C601 O614 1.241 . S
C601 O615 1.273 . S
C602 O616 1.251 . S
C602 O617 1.268 . S
C603 Nd593 2.836 . S
C603 C604 1.498 . S
C603 O618 1.258 . S
C603 O619 1.239 . S
C604 C603 1.498 . S
C604 C605 1.366 . S
C604 C609 1.407 . S
C605 C604 1.366 . S
C605 C606 1.392 . S
C605 H628 0.930 . S
C606 C605 1.392 . S
C606 C607 1.398 . S
C606 H629 0.929 . S
C607 C606 1.398 . S
C607 C608 1.352 . S
C608 C607 1.352 . S
C608 C609 1.384 . S
C608 H630 0.930 . S
C609 C604 1.407 . S
C609 C608 1.384 . S
C609 H631 0.929 . S
C610 O620 1.241 . S
C610 O621 1.273 . S
C611 O622 1.251 . S
C611 O623 1.268 . S
O612 Nd592 2.500 . S
O612 C594 1.258 . S
O613 Nd592 2.492 . S
O613 C594 1.239 . S
O614 Nd592 2.487 . S
O614 C601 1.241 . S
O615 Nd592 2.682 . S
O615 Nd593 2.414 . S
O615 C601 1.273 . S
O616 Nd592 2.410 . S
O616 C602 1.251 . S
O617 Nd593 2.424 . S
O617 C602 1.268 . S
O618 Nd593 2.500 . S
O618 C603 1.258 . S
O619 Nd593 2.492 . S
O619 C603 1.239 . S
O620 Nd593 2.487 . S
O620 C610 1.241 . S
O621 Nd592 2.414 . S
O621 Nd593 2.682 . S
O621 C610 1.273 . S
O622 Nd593 2.410 . S
O622 C611 1.251 . S
O623 Nd592 2.424 . S
O623 C611 1.268 . S
H624 C596 0.930 . S
H625 C597 0.929 . S
H626 C599 0.930 . S
H627 C600 0.929 . S
H628 C605 0.930 . S
H629 C606 0.929 . S
H630 C608 0.930 . S
H631 C609 0.929 . S
Nd632 C634 2.836 . S
Nd632 O652 2.500 . S
Nd632 O653 2.492 . S
Nd632 O654 2.487 . S
Nd632 O655 2.682 . S
Nd632 O656 2.410 . S
Nd632 O661 2.414 . S
Nd632 O663 2.424 . S
Nd633 C643 2.836 . S
Nd633 O655 2.414 . S
Nd633 O657 2.424 . S
Nd633 O658 2.500 . S
Nd633 O659 2.492 . S
Nd633 O660 2.487 . S
Nd633 O661 2.682 . S
Nd633 O662 2.410 . S
C634 Nd632 2.836 . S
C634 C635 1.498 . S
C634 O652 1.258 . S
C634 O653 1.239 . S
C635 C634 1.498 . S
C635 C636 1.366 . S
C635 C640 1.407 . S
C636 C635 1.366 . S
C636 C637 1.392 . S
C636 H664 0.930 . S
C637 C636 1.392 . S
C637 C638 1.398 . S
C637 H665 0.929 . S
C638 C637 1.398 . S
C638 C639 1.352 . S
C639 C638 1.352 . S
C639 C640 1.384 . S
C639 H666 0.930 . S
C640 C635 1.407 . S
C640 C639 1.384 . S
C640 H667 0.929 . S
C641 O654 1.241 . S
C641 O655 1.273 . S
C642 O656 1.251 . S
C642 O657 1.268 . S
C643 Nd633 2.836 . S
C643 C644 1.498 . S
C643 O658 1.258 . S
C643 O659 1.239 . S
C644 C643 1.498 . S
C644 C645 1.366 . S
C644 C649 1.407 . S
C645 C644 1.366 . S
C645 C646 1.392 . S
C645 H668 0.930 . S
C646 C645 1.392 . S
C646 C647 1.398 . S
C646 H669 0.929 . S
C647 C646 1.398 . S
C647 C648 1.352 . S
C648 C647 1.352 . S
C648 C649 1.384 . S
C648 H670 0.930 . S
C649 C644 1.407 . S
C649 C648 1.384 . S
C649 H671 0.929 . S
C650 O660 1.241 . S
C650 O661 1.273 . S
C651 O662 1.251 . S
C651 O663 1.268 . S
O652 Nd632 2.500 . S
O652 C634 1.258 . S
O653 Nd632 2.492 . S
O653 C634 1.239 . S
O654 Nd632 2.487 . S
O654 C641 1.241 . S
O655 Nd632 2.682 . S
O655 Nd633 2.414 . S
O655 C641 1.273 . S
O656 Nd632 2.410 . S
O656 C642 1.251 . S
O657 Nd633 2.424 . S
O657 C642 1.268 . S
O658 Nd633 2.500 . S
O658 C643 1.258 . S
O659 Nd633 2.492 . S
O659 C643 1.239 . S
O660 Nd633 2.487 . S
O660 C650 1.241 . S
O661 Nd632 2.414 . S
O661 Nd633 2.682 . S
O661 C650 1.273 . S
O662 Nd633 2.410 . S
O662 C651 1.251 . S
O663 Nd632 2.424 . S
O663 C651 1.268 . S
H664 C636 0.930 . S
H665 C637 0.929 . S
H666 C639 0.930 . S
H667 C640 0.929 . S
H668 C645 0.930 . S
H669 C646 0.929 . S
H670 C648 0.930 . S
H671 C649 0.929 . S
Nd672 C674 2.836 . S
Nd672 O692 2.500 . S
Nd672 O693 2.492 . S
Nd672 O694 2.487 . S
Nd672 O695 2.682 . S
Nd672 O696 2.410 . S
Nd672 O701 2.414 . S
Nd672 O703 2.424 . S
Nd673 C683 2.836 . S
Nd673 O695 2.414 . S
Nd673 O697 2.424 . S
Nd673 O698 2.500 . S
Nd673 O699 2.492 . S
Nd673 O700 2.487 . S
Nd673 O701 2.682 . S
Nd673 O702 2.410 . S
C674 Nd672 2.836 . S
C674 C675 1.498 . S
C674 O692 1.258 . S
C674 O693 1.239 . S
C675 C674 1.498 . S
C675 C676 1.366 . S
C675 C680 1.407 . S
C676 C675 1.366 . S
C676 C677 1.392 . S
C676 H704 0.930 . S
C677 C676 1.392 . S
C677 C678 1.398 . S
C677 H705 0.929 . S
C678 C677 1.398 . S
C678 C679 1.352 . S
C679 C678 1.352 . S
C679 C680 1.384 . S
C679 H706 0.930 . S
C680 C675 1.407 . S
C680 C679 1.384 . S
C680 H707 0.929 . S
C681 O694 1.241 . S
C681 O695 1.273 . S
C682 O696 1.251 . S
C682 O697 1.268 . S
C683 Nd673 2.836 . S
C683 C684 1.498 . S
C683 O698 1.258 . S
C683 O699 1.239 . S
C684 C683 1.498 . S
C684 C685 1.366 . S
C684 C689 1.407 . S
C685 C684 1.366 . S
C685 C686 1.392 . S
C685 H708 0.930 . S
C686 C685 1.392 . S
C686 C687 1.398 . S
C686 H709 0.929 . S
C687 C686 1.398 . S
C687 C688 1.352 . S
C688 C687 1.352 . S
C688 C689 1.384 . S
C688 H710 0.930 . S
C689 C684 1.407 . S
C689 C688 1.384 . S
C689 H711 0.929 . S
C690 O700 1.241 . S
C690 O701 1.273 . S
C691 O702 1.251 . S
C691 O703 1.268 . S
O692 Nd672 2.500 . S
O692 C674 1.258 . S
O693 Nd672 2.492 . S
O693 C674 1.239 . S
O694 Nd672 2.487 . S
O694 C681 1.241 . S
O695 Nd672 2.682 . S
O695 Nd673 2.414 . S
O695 C681 1.273 . S
O696 Nd672 2.410 . S
O696 C682 1.251 . S
O697 Nd673 2.424 . S
O697 C682 1.268 . S
O698 Nd673 2.500 . S
O698 C683 1.258 . S
O699 Nd673 2.492 . S
O699 C683 1.239 . S
O700 Nd673 2.487 . S
O700 C690 1.241 . S
O701 Nd672 2.414 . S
O701 Nd673 2.682 . S
O701 C690 1.273 . S
O702 Nd673 2.410 . S
O702 C691 1.251 . S
O703 Nd672 2.424 . S
O703 C691 1.268 . S
H704 C676 0.930 . S
H705 C677 0.929 . S
H706 C679 0.930 . S
H707 C680 0.929 . S
H708 C685 0.930 . S
H709 C686 0.929 . S
H710 C688 0.930 . S
H711 C689 0.929 . S
Nd712 C714 2.836 1_455 S
Nd712 O732 2.500 1_455 S
Nd712 O733 2.492 1_455 S
Nd712 O734 2.487 . S
Nd712 O735 2.682 . S
Nd712 O736 2.410 . S
Nd712 O741 2.414 . S
Nd712 O743 2.424 . S
Nd713 C723 2.836 . S
Nd713 O735 2.414 . S
Nd713 O737 2.424 . S
Nd713 O738 2.500 . S
Nd713 O739 2.492 . S
Nd713 O740 2.487 . S
Nd713 O741 2.682 . S
Nd713 O742 2.410 . S
C714 Nd712 2.836 1_655 S
C714 C715 1.498 . S
C714 O732 1.258 . S
C714 O733 1.239 . S
C715 C714 1.498 . S
C715 C716 1.366 . S
C715 C720 1.407 . S
C716 C715 1.366 . S
C716 C717 1.392 . S
C716 H744 0.930 . S
C717 C716 1.392 . S
C717 C718 1.398 . S
C717 H745 0.929 . S
C718 C717 1.398 . S
C718 C719 1.352 . S
C719 C718 1.352 . S
C719 C720 1.384 . S
C719 H746 0.930 . S
C720 C715 1.407 . S
C720 C719 1.384 . S
C720 H747 0.929 . S
C721 O734 1.241 . S
C721 O735 1.273 . S
C722 O736 1.251 . S
C722 O737 1.268 . S
C723 Nd713 2.836 . S
C723 C724 1.498 . S
C723 O738 1.258 . S
C723 O739 1.239 . S
C724 C723 1.498 . S
C724 C725 1.366 . S
C724 C729 1.407 . S
C725 C724 1.366 . S
C725 C726 1.392 . S
C725 H748 0.930 . S
C726 C725 1.392 . S
C726 C727 1.398 . S
C726 H749 0.929 . S
C727 C726 1.398 . S
C727 C728 1.352 . S
C728 C727 1.352 . S
C728 C729 1.384 . S
C728 H750 0.930 . S
C729 C724 1.407 . S
C729 C728 1.384 . S
C729 H751 0.929 . S
C730 O740 1.241 . S
C730 O741 1.273 . S
C731 O742 1.251 . S
C731 O743 1.268 . S
O732 Nd712 2.500 1_655 S
O732 C714 1.258 . S
O733 Nd712 2.492 1_655 S
O733 C714 1.239 . S
O734 Nd712 2.487 . S
O734 C721 1.241 . S
O735 Nd712 2.682 . S
O735 Nd713 2.414 . S
O735 C721 1.273 . S
O736 Nd712 2.410 . S
O736 C722 1.251 . S
O737 Nd713 2.424 . S
O737 C722 1.268 . S
O738 Nd713 2.500 . S
O738 C723 1.258 . S
O739 Nd713 2.492 . S
O739 C723 1.239 . S
O740 Nd713 2.487 . S
O740 C730 1.241 . S
O741 Nd712 2.414 . S
O741 Nd713 2.682 . S
O741 C730 1.273 . S
O742 Nd713 2.410 . S
O742 C731 1.251 . S
O743 Nd712 2.424 . S
O743 C731 1.268 . S
H744 C716 0.930 . S
H745 C717 0.929 . S
H746 C719 0.930 . S
H747 C720 0.929 . S
H748 C725 0.930 . S
H749 C726 0.929 . S
H750 C728 0.930 . S
H751 C729 0.929 . S
Nd752 C754 2.836 . S
Nd752 O772 2.500 . S
Nd752 O773 2.492 . S
Nd752 O774 2.487 . S
Nd752 O775 2.682 . S
Nd752 O776 2.410 . S
Nd752 O781 2.414 . S
Nd752 O783 2.424 . S
Nd753 C763 2.836 . S
Nd753 O775 2.414 . S
Nd753 O777 2.424 . S
Nd753 O778 2.500 . S
Nd753 O779 2.492 . S
Nd753 O780 2.487 . S
Nd753 O781 2.682 . S
Nd753 O782 2.410 . S
C754 Nd752 2.836 . S
C754 C755 1.498 . S
C754 O772 1.258 . S
C754 O773 1.239 . S
C755 C754 1.498 . S
C755 C756 1.366 . S
C755 C760 1.407 . S
C756 C755 1.366 . S
C756 C757 1.392 . S
C756 H784 0.930 . S
C757 C756 1.392 . S
C757 C758 1.398 . S
C757 H785 0.929 . S
C758 C757 1.398 . S
C758 C759 1.352 . S
C759 C758 1.352 . S
C759 C760 1.384 . S
C759 H786 0.930 . S
C760 C755 1.407 . S
C760 C759 1.384 . S
C760 H787 0.929 . S
C761 O774 1.241 . S
C761 O775 1.273 . S
C762 O776 1.251 . S
C762 O777 1.268 . S
C763 Nd753 2.836 . S
C763 C764 1.498 . S
C763 O778 1.258 . S
C763 O779 1.239 . S
C764 C763 1.498 . S
C764 C765 1.366 . S
C764 C769 1.407 . S
C765 C764 1.366 . S
C765 C766 1.392 . S
C765 H788 0.930 . S
C766 C765 1.392 . S
C766 C767 1.398 . S
C766 H789 0.929 . S
C767 C766 1.398 . S
C767 C768 1.352 . S
C768 C767 1.352 . S
C768 C769 1.384 . S
C768 H790 0.930 . S
C769 C764 1.407 . S
C769 C768 1.384 . S
C769 H791 0.929 . S
C770 O780 1.241 . S
C770 O781 1.273 . S
C771 O782 1.251 . S
C771 O783 1.268 . S
O772 Nd752 2.500 . S
O772 C754 1.258 . S
O773 Nd752 2.492 . S
O773 C754 1.239 . S
O774 Nd752 2.487 . S
O774 C761 1.241 . S
O775 Nd752 2.682 . S
O775 Nd753 2.414 . S
O775 C761 1.273 . S
O776 Nd752 2.410 . S
O776 C762 1.251 . S
O777 Nd753 2.424 . S
O777 C762 1.268 . S
O778 Nd753 2.500 . S
O778 C763 1.258 . S
O779 Nd753 2.492 . S
O779 C763 1.239 . S
O780 Nd753 2.487 . S
O780 C770 1.241 . S
O781 Nd752 2.414 . S
O781 Nd753 2.682 . S
O781 C770 1.273 . S
O782 Nd753 2.410 . S
O782 C771 1.251 . S
O783 Nd752 2.424 . S
O783 C771 1.268 . S
H784 C756 0.930 . S
H785 C757 0.929 . S
H786 C759 0.930 . S
H787 C760 0.929 . S
H788 C765 0.930 . S
H789 C766 0.929 . S
H790 C768 0.930 . S
H791 C769 0.929 . S
Nd792 C794 2.836 . S
Nd792 O812 2.500 . S
Nd792 O813 2.492 . S
Nd792 O814 2.487 . S
Nd792 O815 2.682 . S
Nd792 O816 2.410 . S
Nd792 O821 2.414 . S
Nd792 O823 2.424 . S
Nd793 C803 2.836 . S
Nd793 O815 2.414 . S
Nd793 O817 2.424 . S
Nd793 O818 2.500 . S
Nd793 O819 2.492 . S
Nd793 O820 2.487 . S
Nd793 O821 2.682 . S
Nd793 O822 2.410 . S
C794 Nd792 2.836 . S
C794 C795 1.498 . S
C794 O812 1.258 . S
C794 O813 1.239 . S
C795 C794 1.498 . S
C795 C796 1.366 . S
C795 C800 1.407 . S
C796 C795 1.366 . S
C796 C797 1.392 . S
C796 H824 0.930 . S
C797 C796 1.392 . S
C797 C798 1.398 . S
C797 H825 0.929 . S
C798 C797 1.398 . S
C798 C799 1.352 . S
C799 C798 1.352 . S
C799 C800 1.384 . S
C799 H826 0.930 . S
C800 C795 1.407 . S
C800 C799 1.384 . S
C800 H827 0.929 . S
C801 O814 1.241 . S
C801 O815 1.273 . S
C802 O816 1.251 . S
C802 O817 1.268 . S
C803 Nd793 2.836 . S
C803 C804 1.498 . S
C803 O818 1.258 . S
C803 O819 1.239 . S
C804 C803 1.498 . S
C804 C805 1.366 . S
C804 C809 1.407 . S
C805 C804 1.366 . S
C805 C806 1.392 . S
C805 H828 0.930 . S
C806 C805 1.392 . S
C806 C807 1.398 . S
C806 H829 0.929 . S
C807 C806 1.398 . S
C807 C808 1.352 . S
C808 C807 1.352 . S
C808 C809 1.384 . S
C808 H830 0.930 . S
C809 C804 1.407 . S
C809 C808 1.384 . S
C809 H831 0.929 . S
C810 O820 1.241 . S
C810 O821 1.273 . S
C811 O822 1.251 . S
C811 O823 1.268 . S
O812 Nd792 2.500 . S
O812 C794 1.258 . S
O813 Nd792 2.492 . S
O813 C794 1.239 . S
O814 Nd792 2.487 . S
O814 C801 1.241 . S
O815 Nd792 2.682 . S
O815 Nd793 2.414 . S
O815 C801 1.273 . S
O816 Nd792 2.410 . S
O816 C802 1.251 . S
O817 Nd793 2.424 . S
O817 C802 1.268 . S
O818 Nd793 2.500 . S
O818 C803 1.258 . S
O819 Nd793 2.492 . S
O819 C803 1.239 . S
O820 Nd793 2.487 . S
O820 C810 1.241 . S
O821 Nd792 2.414 . S
O821 Nd793 2.682 . S
O821 C810 1.273 . S
O822 Nd793 2.410 . S
O822 C811 1.251 . S
O823 Nd792 2.424 . S
O823 C811 1.268 . S
H824 C796 0.930 . S
H825 C797 0.929 . S
H826 C799 0.930 . S
H827 C800 0.929 . S
H828 C805 0.930 . S
H829 C806 0.929 . S
H830 C808 0.930 . S
H831 C809 0.929 . S
Nd832 C834 2.836 . S
Nd832 O852 2.500 . S
Nd832 O853 2.492 . S
Nd832 O854 2.487 . S
Nd832 O855 2.682 . S
Nd832 O856 2.410 . S
Nd832 O861 2.414 . S
Nd832 O863 2.424 . S
Nd833 C843 2.836 . S
Nd833 O855 2.414 . S
Nd833 O857 2.424 . S
Nd833 O858 2.500 . S
Nd833 O859 2.492 . S
Nd833 O860 2.487 . S
Nd833 O861 2.682 . S
Nd833 O862 2.410 . S
C834 Nd832 2.836 . S
C834 C835 1.498 . S
C834 O852 1.258 . S
C834 O853 1.239 . S
C835 C834 1.498 . S
C835 C836 1.366 . S
C835 C840 1.407 . S
C836 C835 1.366 . S
C836 C837 1.392 . S
C836 H864 0.930 . S
C837 C836 1.392 . S
C837 C838 1.398 . S
C837 H865 0.929 . S
C838 C837 1.398 . S
C838 C839 1.352 . S
C839 C838 1.352 . S
C839 C840 1.384 . S
C839 H866 0.930 . S
C840 C835 1.407 . S
C840 C839 1.384 . S
C840 H867 0.929 . S
C841 O854 1.241 . S
C841 O855 1.273 . S
C842 O856 1.251 . S
C842 O857 1.268 . S
C843 Nd833 2.836 . S
C843 C844 1.498 . S
C843 O858 1.258 . S
C843 O859 1.239 . S
C844 C843 1.498 . S
C844 C845 1.366 . S
C844 C849 1.407 . S
C845 C844 1.366 . S
C845 C846 1.392 . S
C845 H868 0.930 . S
C846 C845 1.392 . S
C846 C847 1.398 . S
C846 H869 0.929 . S
C847 C846 1.398 . S
C847 C848 1.352 . S
C848 C847 1.352 . S
C848 C849 1.384 . S
C848 H870 0.930 . S
C849 C844 1.407 . S
C849 C848 1.384 . S
C849 H871 0.929 . S
C850 O860 1.241 . S
C850 O861 1.273 . S
C851 O862 1.251 . S
C851 O863 1.268 . S
O852 Nd832 2.500 . S
O852 C834 1.258 . S
O853 Nd832 2.492 . S
O853 C834 1.239 . S
O854 Nd832 2.487 . S
O854 C841 1.241 . S
O855 Nd832 2.682 . S
O855 Nd833 2.414 . S
O855 C841 1.273 . S
O856 Nd832 2.410 . S
O856 C842 1.251 . S
O857 Nd833 2.424 . S
O857 C842 1.268 . S
O858 Nd833 2.500 . S
O858 C843 1.258 . S
O859 Nd833 2.492 . S
O859 C843 1.239 . S
O860 Nd833 2.487 . S
O860 C850 1.241 . S
O861 Nd832 2.414 . S
O861 Nd833 2.682 . S
O861 C850 1.273 . S
O862 Nd833 2.410 . S
O862 C851 1.251 . S
O863 Nd832 2.424 . S
O863 C851 1.268 . S
H864 C836 0.930 . S
H865 C837 0.929 . S
H866 C839 0.930 . S
H867 C840 0.929 . S
H868 C845 0.930 . S
H869 C846 0.929 . S
H870 C848 0.930 . S
H871 C849 0.929 . S
Nd872 C874 2.836 . S
Nd872 O892 2.500 . S
Nd872 O893 2.492 . S
Nd872 O894 2.487 . S
Nd872 O895 2.682 . S
Nd872 O896 2.410 . S
Nd872 O901 2.414 . S
Nd872 O903 2.424 . S
Nd873 C883 2.836 . S
Nd873 O895 2.414 . S
Nd873 O897 2.424 . S
Nd873 O898 2.500 . S
Nd873 O899 2.492 . S
Nd873 O900 2.487 . S
Nd873 O901 2.682 . S
Nd873 O902 2.410 . S
C874 Nd872 2.836 . S
C874 C875 1.498 . S
C874 O892 1.258 . S
C874 O893 1.239 . S
C875 C874 1.498 . S
C875 C876 1.366 . S
C875 C880 1.407 . S
C876 C875 1.366 . S
C876 C877 1.392 . S
C876 H904 0.930 . S
C877 C876 1.392 . S
C877 C878 1.398 . S
C877 H905 0.929 . S
C878 C877 1.398 . S
C878 C879 1.352 . S
C879 C878 1.352 . S
C879 C880 1.384 . S
C879 H906 0.930 . S
C880 C875 1.407 . S
C880 C879 1.384 . S
C880 H907 0.929 . S
C881 O894 1.241 . S
C881 O895 1.273 . S
C882 O896 1.251 . S
C882 O897 1.268 . S
C883 Nd873 2.836 . S
C883 C884 1.498 . S
C883 O898 1.258 . S
C883 O899 1.239 . S
C884 C883 1.498 . S
C884 C885 1.366 . S
C884 C889 1.407 . S
C885 C884 1.366 . S
C885 C886 1.392 . S
C885 H908 0.930 . S
C886 C885 1.392 . S
C886 C887 1.398 . S
C886 H909 0.929 . S
C887 C886 1.398 . S
C887 C888 1.352 . S
C888 C887 1.352 . S
C888 C889 1.384 . S
C888 H910 0.930 . S
C889 C884 1.407 . S
C889 C888 1.384 . S
C889 H911 0.929 . S
C890 O900 1.241 . S
C890 O901 1.273 . S
C891 O902 1.251 . S
C891 O903 1.268 . S
O892 Nd872 2.500 . S
O892 C874 1.258 . S
O893 Nd872 2.492 . S
O893 C874 1.239 . S
O894 Nd872 2.487 . S
O894 C881 1.241 . S
O895 Nd872 2.682 . S
O895 Nd873 2.414 . S
O895 C881 1.273 . S
O896 Nd872 2.410 . S
O896 C882 1.251 . S
O897 Nd873 2.424 . S
O897 C882 1.268 . S
O898 Nd873 2.500 . S
O898 C883 1.258 . S
O899 Nd873 2.492 . S
O899 C883 1.239 . S
O900 Nd873 2.487 . S
O900 C890 1.241 . S
O901 Nd872 2.414 . S
O901 Nd873 2.682 . S
O901 C890 1.273 . S
O902 Nd873 2.410 . S
O902 C891 1.251 . S
O903 Nd872 2.424 . S
O903 C891 1.268 . S
H904 C876 0.930 . S
H905 C877 0.929 . S
H906 C879 0.930 . S
H907 C880 0.929 . S
H908 C885 0.930 . S
H909 C886 0.929 . S
H910 C888 0.930 . S
H911 C889 0.929 . S
Nd912 C914 2.836 . S
Nd912 O932 2.500 . S
Nd912 O933 2.492 . S
Nd912 O934 2.487 . S
Nd912 O935 2.682 . S
Nd912 O936 2.410 . S
Nd912 O941 2.414 . S
Nd912 O943 2.424 . S
Nd913 C923 2.836 1_455 S
Nd913 O935 2.414 . S
Nd913 O937 2.424 . S
Nd913 O938 2.500 1_455 S
Nd913 O939 2.492 1_455 S
Nd913 O940 2.487 . S
Nd913 O941 2.682 . S
Nd913 O942 2.410 . S
C914 Nd912 2.836 . S
C914 C915 1.498 . S
C914 O932 1.258 . S
C914 O933 1.239 . S
C915 C914 1.498 . S
C915 C916 1.366 . S
C915 C920 1.407 . S
C916 C915 1.366 . S
C916 C917 1.392 . S
C916 H944 0.930 . S
C917 C916 1.392 . S
C917 C918 1.398 . S
C917 H945 0.929 . S
C918 C917 1.398 . S
C918 C919 1.352 . S
C919 C918 1.352 . S
C919 C920 1.384 . S
C919 H946 0.930 . S
C920 C915 1.407 . S
C920 C919 1.384 . S
C920 H947 0.929 . S
C921 O934 1.241 . S
C921 O935 1.273 . S
C922 O936 1.251 . S
C922 O937 1.268 . S
C923 Nd913 2.836 1_655 S
C923 C924 1.498 . S
C923 O938 1.258 . S
C923 O939 1.239 . S
C924 C923 1.498 . S
C924 C925 1.366 . S
C924 C929 1.407 . S
C925 C924 1.366 . S
C925 C926 1.392 . S
C925 H948 0.930 . S
C926 C925 1.392 . S
C926 C927 1.398 . S
C926 H949 0.929 . S
C927 C926 1.398 . S
C927 C928 1.352 . S
C928 C927 1.352 . S
C928 C929 1.384 . S
C928 H950 0.930 . S
C929 C924 1.407 . S
C929 C928 1.384 . S
C929 H951 0.929 . S
C930 O940 1.241 . S
C930 O941 1.273 . S
C931 O942 1.251 . S
C931 O943 1.268 . S
O932 Nd912 2.500 . S
O932 C914 1.258 . S
O933 Nd912 2.492 . S
O933 C914 1.239 . S
O934 Nd912 2.487 . S
O934 C921 1.241 . S
O935 Nd912 2.682 . S
O935 Nd913 2.414 . S
O935 C921 1.273 . S
O936 Nd912 2.410 . S
O936 C922 1.251 . S
O937 Nd913 2.424 . S
O937 C922 1.268 . S
O938 Nd913 2.500 1_655 S
O938 C923 1.258 . S
O939 Nd913 2.492 1_655 S
O939 C923 1.239 . S
O940 Nd913 2.487 . S
O940 C930 1.241 . S
O941 Nd912 2.414 . S
O941 Nd913 2.682 . S
O941 C930 1.273 . S
O942 Nd913 2.410 . S
O942 C931 1.251 . S
O943 Nd912 2.424 . S
O943 C931 1.268 . S
H944 C916 0.930 . S
H945 C917 0.929 . S
H946 C919 0.930 . S
H947 C920 0.929 . S
H948 C925 0.930 . S
H949 C926 0.929 . S
H950 C928 0.930 . S
H951 C929 0.929 . S
C952 C953 1.360 1_554 S
C952 C954 1.429 . S
C952 H956 0.926 1_554 S
C953 C952 1.360 1_556 S
C953 C962 1.429 . S
C954 C952 1.429 . S
C954 C955 1.363 . S
C954 H957 0.929 . S
C955 C954 1.363 . S
C955 C961 1.428 . S
H956 C952 0.926 1_556 S
H957 C954 0.929 . S
S958 N959 1.613 . S
S958 N960 1.610 1_556 S
N959 S958 1.613 . S
N959 C962 1.350 . S
N960 S958 1.610 1_554 S
N960 C961 1.351 . S
C961 C955 1.428 . S
C961 N960 1.351 . S
C961 C962 1.434 1_554 S
C962 C953 1.429 . S
C962 N959 1.350 . S
C962 C961 1.434 1_556 S
C963 C964 1.369 . S
C963 C965 1.419 . S
C963 H967 0.930 . S
C964 C963 1.369 . S
C964 C973 1.429 . S
C965 C963 1.419 . S
C965 C966 1.363 . S
C965 H968 0.929 . S
C966 C965 1.363 . S
C966 C972 1.428 . S
H967 C963 0.930 . S
H968 C965 0.929 . S
S969 N970 1.613 . S
S969 N971 1.610 . S
N970 S969 1.613 . S
N970 C973 1.350 . S
N971 S969 1.610 . S
N971 C972 1.351 . S
C972 C966 1.428 . S
C972 N971 1.351 . S
C972 C973 1.434 . S
C973 C964 1.429 . S
C973 N970 1.350 . S
C973 C972 1.434 . S
C974 C975 1.369 . S
C974 C976 1.419 . S
C974 H978 0.930 . S
C975 C974 1.369 . S
C975 C984 1.429 . S
C976 C974 1.419 . S
C976 C977 1.363 . S
C976 H979 0.929 . S
C977 C976 1.363 . S
C977 C983 1.428 . S
H978 C974 0.930 . S
H979 C976 0.929 . S
S980 N981 1.613 . S
S980 N982 1.610 1_565 S
N981 S980 1.613 . S
N981 C984 1.350 . S
N982 S980 1.610 1_545 S
N982 C983 1.351 1_545 S
C983 C977 1.428 . S
C983 N982 1.351 1_565 S
C983 C984 1.434 . S
C984 C975 1.429 . S
C984 N981 1.350 . S
C984 C983 1.434 . S
C985 C986 1.369 . S
C985 C987 1.419 . S
C985 H989 0.930 . S
C986 C985 1.369 . S
C986 C995 1.429 . S
C987 C985 1.419 . S
C987 C988 1.363 . S
C987 H990 0.929 . S
C988 C987 1.363 . S
C988 C994 1.428 . S
H989 C985 0.930 . S
H990 C987 0.929 . S
S991 N992 1.613 . S
S991 N993 1.610 . S
N992 S991 1.613 . S
N992 C995 1.350 . S
N993 S991 1.610 . S
N993 C994 1.351 . S
C994 C988 1.428 . S
C994 N993 1.351 . S
C994 C995 1.434 . S
C995 C986 1.429 . S
C995 N992 1.350 . S
C995 C994 1.434 . S
C996 C997 1.369 . S
C996 C998 1.419 . S
C996 H1000 0.930 . S
C997 C996 1.369 . S
C997 C1006 1.429 . S
C998 C996 1.419 . S
C998 C999 1.363 . S
C998 H1001 0.929 . S
C999 C998 1.363 . S
C999 C1005 1.428 . S
H1000 C996 0.930 . S
H1001 C998 0.929 . S
S1002 N1003 1.613 . S
S1002 N1004 1.610 1_655 S
N1003 S1002 1.613 . S
N1003 C1006 1.350 1_655 S
N1004 S1002 1.610 1_455 S
N1004 C1005 1.351 . S
C1005 C999 1.428 . S
C1005 N1004 1.351 . S
C1005 C1006 1.434 . S
C1006 C997 1.429 . S
C1006 N1003 1.350 1_455 S
C1006 C1005 1.434 . S
C1007 C1008 1.369 . S
C1007 C1009 1.419 . S
C1007 H1011 0.930 . S
C1008 C1007 1.369 . S
C1008 C1017 1.429 . S
C1009 C1007 1.419 . S
C1009 C1010 1.363 . S
C1009 H1012 0.929 . S
C1010 C1009 1.363 . S
C1010 C1016 1.428 . S
H1011 C1007 0.930 . S
H1012 C1009 0.929 . S
S1013 N1014 1.613 . S
S1013 N1015 1.610 . S
N1014 S1013 1.613 . S
N1014 C1017 1.350 . S
N1015 S1013 1.610 . S
N1015 C1016 1.351 . S
C1016 C1010 1.428 . S
C1016 N1015 1.351 . S
C1016 C1017 1.434 . S
C1017 C1008 1.429 . S
C1017 N1014 1.350 . S
C1017 C1016 1.434 . S
C1018 C1019 1.369 . S
C1018 C1020 1.419 . S
C1018 H1022 0.930 . S
C1019 C1018 1.369 . S
C1019 C1028 1.429 . S
C1020 C1018 1.419 . S
C1020 C1021 1.363 . S
C1020 H1023 0.929 . S
C1021 C1020 1.363 . S
C1021 C1027 1.428 . S
H1022 C1018 0.930 . S
H1023 C1020 0.929 . S
S1024 N1025 1.613 . S
S1024 N1026 1.610 . S
N1025 S1024 1.613 . S
N1025 C1028 1.350 . S
N1026 S1024 1.610 . S
N1026 C1027 1.351 . S
C1027 C1021 1.428 . S
C1027 N1026 1.351 . S
C1027 C1028 1.434 . S
C1028 C1019 1.429 . S
C1028 N1025 1.350 . S
C1028 C1027 1.434 . S
C1029 C1030 1.369 . S
C1029 C1031 1.419 . S
C1029 H1033 0.930 . S
C1030 C1029 1.369 . S
C1030 C1039 1.429 . S
C1031 C1029 1.419 . S
C1031 C1032 1.363 . S
C1031 H1034 0.929 . S
C1032 C1031 1.363 . S
C1032 C1038 1.428 . S
H1033 C1029 0.930 . S
H1034 C1031 0.929 . S
S1035 N1036 1.613 . S
S1035 N1037 1.610 . S
N1036 S1035 1.613 . S
N1036 C1039 1.350 . S
N1037 S1035 1.610 . S
N1037 C1038 1.351 . S
C1038 C1032 1.428 . S
C1038 N1037 1.351 . S
C1038 C1039 1.434 . S
C1039 C1030 1.429 . S
C1039 N1036 1.350 . S
C1039 C1038 1.434 . S
C1040 C1041 1.369 1_455 S
C1040 C1042 1.419 . S
C1040 H1044 0.930 . S
C1041 C1040 1.369 1_655 S
C1041 C1050 1.429 . S
C1042 C1040 1.419 . S
C1042 C1043 1.363 . S
C1042 H1045 0.929 . S
C1043 C1042 1.363 . S
C1043 C1049 1.428 1_455 S
H1044 C1040 0.930 . S
H1045 C1042 0.929 . S
S1046 N1047 1.613 . S
S1046 N1048 1.610 . S
N1047 S1046 1.613 . S
N1047 C1050 1.350 . S
N1048 S1046 1.610 . S
N1048 C1049 1.351 . S
C1049 C1043 1.428 1_655 S
C1049 N1048 1.351 . S
C1049 C1050 1.434 . S
C1050 C1041 1.429 . S
C1050 N1047 1.350 . S
C1050 C1049 1.434 . S
C1051 C1052 1.369 . S
C1051 C1053 1.419 . S
C1051 H1055 0.930 . S
C1052 C1051 1.369 . S
C1052 C1061 1.429 . S
C1053 C1051 1.419 . S
C1053 C1054 1.363 . S
C1053 H1056 0.929 . S
C1054 C1053 1.363 . S
C1054 C1060 1.428 . S
H1055 C1051 0.930 . S
H1056 C1053 0.929 . S
S1057 N1058 1.613 . S
S1057 N1059 1.610 . S
N1058 S1057 1.613 . S
N1058 C1061 1.350 . S
N1059 S1057 1.610 . S
N1059 C1060 1.351 . S
C1060 C1054 1.428 . S
C1060 N1059 1.351 . S
C1060 C1061 1.434 . S
C1061 C1052 1.429 . S
C1061 N1058 1.350 . S
C1061 C1060 1.434 . S
C1062 C1063 1.369 . S
C1062 C1064 1.419 . S
C1062 H1066 0.930 . S
C1063 C1062 1.369 . S
C1063 C1072 1.427 1_545 S
C1064 C1062 1.419 . S
C1064 C1065 1.363 . S
C1064 H1067 0.929 . S
C1065 C1064 1.363 . S
C1065 C1071 1.428 . S
H1066 C1062 0.930 . S
H1067 C1064 0.929 . S
S1068 N1069 1.613 . S
S1068 N1070 1.610 1_565 S
N1069 S1068 1.613 . S
N1069 C1072 1.373 . S
N1070 S1068 1.610 1_545 S
N1070 C1071 1.351 . S
C1071 C1065 1.428 . S
C1071 N1070 1.351 . S
C1071 C1072 1.411 1_545 S
C1072 C1063 1.427 1_565 S
C1072 N1069 1.373 . S
C1072 C1071 1.411 1_565 S
C1073 C1074 1.369 . S
C1073 C1075 1.419 . S
C1073 H1077 0.930 . S
C1074 C1073 1.369 . S
C1074 C1083 1.429 . S
C1075 C1073 1.419 . S
C1075 C1076 1.363 . S
C1075 H1078 0.929 . S
C1076 C1075 1.363 . S
C1076 C1082 1.428 . S
H1077 C1073 0.930 . S
H1078 C1075 0.929 . S
S1079 N1080 1.613 . S
S1079 N1081 1.610 . S
N1080 S1079 1.613 . S
N1080 C1083 1.350 . S
N1081 S1079 1.610 . S
N1081 C1082 1.351 . S
C1082 C1076 1.428 . S
C1082 N1081 1.351 . S
C1082 C1083 1.434 . S
C1083 C1074 1.429 . S
C1083 N1080 1.350 . S
C1083 C1082 1.434 . S
C1084 C1085 1.369 . S
C1084 C1086 1.419 1_655 S
C1084 H1088 0.930 1_655 S
C1085 C1084 1.369 . S
C1085 C1094 1.429 . S
C1086 C1084 1.419 1_455 S
C1086 C1087 1.363 . S
C1086 H1089 0.929 . S
C1087 C1086 1.363 . S
C1087 C1093 1.428 1_455 S
H1088 C1084 0.930 1_455 S
H1089 C1086 0.929 . S
S1090 N1091 1.613 . S
S1090 N1092 1.610 . S
N1091 S1090 1.613 . S
N1091 C1094 1.350 . S
N1092 S1090 1.610 . S
N1092 C1093 1.351 . S
C1093 C1087 1.428 1_655 S
C1093 N1092 1.351 . S
C1093 C1094 1.434 . S
C1094 C1085 1.429 . S
C1094 N1091 1.350 . S
C1094 C1093 1.434 . S
C1095 C1096 1.369 . S
C1095 C1097 1.419 . S
C1095 H1099 0.930 . S
C1096 C1095 1.369 . S
C1096 C1105 1.429 . S
C1097 C1095 1.419 . S
C1097 C1098 1.363 . S
C1097 H1100 0.929 . S
C1098 C1097 1.363 . S
C1098 C1104 1.428 . S
H1099 C1095 0.930 . S
H1100 C1097 0.929 . S
S1101 N1102 1.613 . S
S1101 N1103 1.610 . S
N1102 S1101 1.613 . S
N1102 C1105 1.350 . S
N1103 S1101 1.610 . S
N1103 C1104 1.351 . S
C1104 C1098 1.428 . S
C1104 N1103 1.351 . S
C1104 C1105 1.434 . S
C1105 C1096 1.429 . S
C1105 N1102 1.350 . S
C1105 C1104 1.434 . S
C1106 C1107 1.369 . S
C1106 C1108 1.419 . S
C1106 H1110 0.930 . S
C1107 C1106 1.369 . S
C1107 C1116 1.429 . S
C1108 C1106 1.419 . S
C1108 C1109 1.363 . S
C1108 H1111 0.904 1_556 S
C1109 C1108 1.363 . S
C1109 C1115 1.428 . S
H1110 C1106 0.930 . S
H1111 C1108 0.904 1_554 S
S1112 N1113 1.613 . S
S1112 N1114 1.610 . S
N1113 S1112 1.613 . S
N1113 C1116 1.350 . S
N1114 S1112 1.610 . S
N1114 C1115 1.351 . S
C1115 C1109 1.428 . S
C1115 N1114 1.351 . S
C1115 C1116 1.434 . S
C1116 C1107 1.429 . S
C1116 N1113 1.350 . S
C1116 C1115 1.434 . S
C1117 C1118 1.369 . S
C1117 C1119 1.419 . S
C1117 H1121 0.930 . S
C1118 C1117 1.369 . S
C1118 C1127 1.429 . S
C1119 C1117 1.419 . S
C1119 C1120 1.363 . S
C1119 H1122 0.929 . S
C1120 C1119 1.363 . S
C1120 C1126 1.428 . S
H1121 C1117 0.930 . S
H1122 C1119 0.929 . S
S1123 N1124 1.613 . S
S1123 N1125 1.610 . S
N1124 S1123 1.613 . S
N1124 C1127 1.350 . S
N1125 S1123 1.610 . S
N1125 C1126 1.351 . S
C1126 C1120 1.428 . S
C1126 N1125 1.351 . S
C1126 C1127 1.434 . S
C1127 C1118 1.429 . S
C1127 N1124 1.350 . S
C1127 C1126 1.434 . S
C1128 C1129 1.369 . S
C1128 C1130 1.419 . S
C1128 H1132 0.930 . S
C1129 C1128 1.369 . S
C1129 C1138 1.429 . S
C1130 C1128 1.419 . S
C1130 C1131 1.363 1_565 S
C1130 H1133 0.929 . S
C1131 C1130 1.363 1_545 S
C1131 C1137 1.428 . S
H1132 C1128 0.930 . S
H1133 C1130 0.929 . S
S1134 N1135 1.613 1_545 S
S1134 N1136 1.610 . S
N1135 S1134 1.613 1_565 S
N1135 C1138 1.350 . S
N1136 S1134 1.610 . S
N1136 C1137 1.351 . S
C1137 C1131 1.428 . S
C1137 N1136 1.351 . S
C1137 C1138 1.434 1_545 S
C1138 C1129 1.429 . S
C1138 N1135 1.350 . S
C1138 C1137 1.434 1_565 S
C1139 C1140 1.369 . S
C1139 C1141 1.419 . S
C1139 H1143 0.930 . S
C1140 C1139 1.369 . S
C1140 C1149 1.429 . S
C1141 C1139 1.419 . S
C1141 C1142 1.363 . S
C1141 H1144 0.929 . S
C1142 C1141 1.363 . S
C1142 C1148 1.428 . S
H1143 C1139 0.930 . S
H1144 C1141 0.929 . S
S1145 N1146 1.613 1_554 S
S1145 N1147 1.610 . S
N1146 S1145 1.613 1_556 S
N1146 C1149 1.350 1_556 S
N1147 S1145 1.610 . S
N1147 C1148 1.351 . S
C1148 C1142 1.428 . S
C1148 N1147 1.351 . S
C1148 C1149 1.434 . S
C1149 C1140 1.429 . S
C1149 N1146 1.350 1_554 S
C1149 C1148 1.434 . S
C1150 C1151 1.369 . S
C1150 C1152 1.419 . S
C1150 H1154 0.930 . S
C1151 C1150 1.369 . S
C1151 C1160 1.429 . S
C1152 C1150 1.419 . S
C1152 C1153 1.363 . S
C1152 H1155 0.929 . S
C1153 C1152 1.363 . S
C1153 C1159 1.428 . S
H1154 C1150 0.930 . S
H1155 C1152 0.929 . S
S1156 N1157 1.613 . S
S1156 N1158 1.610 . S
N1157 S1156 1.613 . S
N1157 C1160 1.350 . S
N1158 S1156 1.610 . S
N1158 C1159 1.351 . S
C1159 C1153 1.428 . S
C1159 N1158 1.351 . S
C1159 C1160 1.434 . S
C1160 C1151 1.429 . S
C1160 N1157 1.350 . S
C1160 C1159 1.434 . S
C1161 C1162 1.369 . S
C1161 C1163 1.419 . S
C1161 H1165 0.930 . S
C1162 C1161 1.369 . S
C1162 C1171 1.429 . S
C1163 C1161 1.419 . S
C1163 C1164 1.363 . S
C1163 H1166 0.929 . S
C1164 C1163 1.363 . S
C1164 C1170 1.428 . S
H1165 C1161 0.930 . S
H1166 C1163 0.929 . S
S1167 N1168 1.613 . S
S1167 N1169 1.610 . S
N1168 S1167 1.613 . S
N1168 C1171 1.350 . S
N1169 S1167 1.610 . S
N1169 C1170 1.351 . S
C1170 C1164 1.428 . S
C1170 N1169 1.351 . S
C1170 C1171 1.434 . S
C1171 C1162 1.429 . S
C1171 N1168 1.350 . S
C1171 C1170 1.434 . S
C1172 C1173 1.369 . S
C1172 C1174 1.419 . S
C1172 H1176 0.930 . S
C1173 C1172 1.369 . S
C1173 C1182 1.429 . S
C1174 C1172 1.419 . S
C1174 C1175 1.363 . S
C1174 H1177 0.929 . S
C1175 C1174 1.363 . S
C1175 C1181 1.428 . S
H1176 C1172 0.930 . S
H1177 C1174 0.929 . S
S1178 N1179 1.613 . S
S1178 N1180 1.610 . S
N1179 S1178 1.613 . S
N1179 C1182 1.350 . S
N1180 S1178 1.610 . S
N1180 C1181 1.351 . S
C1181 C1175 1.428 . S
C1181 N1180 1.351 . S
C1181 C1182 1.434 . S
C1182 C1173 1.429 . S
C1182 N1179 1.350 . S
C1182 C1181 1.434 . S
C1183 C1184 1.369 . S
C1183 C1185 1.419 . S
C1183 H1187 0.930 . S
C1184 C1183 1.369 . S
C1184 C1193 1.429 . S
C1185 C1183 1.419 . S
C1185 C1186 1.363 . S
C1185 H1188 0.929 . S
C1186 C1185 1.363 . S
C1186 C1192 1.428 . S
H1187 C1183 0.930 . S
H1188 C1185 0.929 . S
S1189 N1190 1.613 . S
S1189 N1191 1.610 . S
N1190 S1189 1.613 . S
N1190 C1193 1.350 . S
N1191 S1189 1.610 . S
N1191 C1192 1.351 . S
C1192 C1186 1.428 . S
C1192 N1191 1.351 . S
C1192 C1193 1.434 . S
C1193 C1184 1.429 . S
C1193 N1190 1.350 . S
C1193 C1192 1.434 . S
C1194 C1195 1.369 . S
C1194 C1196 1.419 . S
C1194 H1198 0.930 . S
C1195 C1194 1.369 . S
C1195 C1204 1.429 . S
C1196 C1194 1.419 . S
C1196 C1197 1.363 . S
C1196 H1199 0.929 . S
C1197 C1196 1.363 . S
C1197 C1203 1.428 . S
H1198 C1194 0.930 . S
H1199 C1196 0.929 . S
S1200 N1201 1.613 . S
S1200 N1202 1.610 . S
N1201 S1200 1.613 . S
N1201 C1204 1.350 . S
N1202 S1200 1.610 . S
N1202 C1203 1.351 . S
C1203 C1197 1.428 . S
C1203 N1202 1.351 . S
C1203 C1204 1.434 . S
C1204 C1195 1.429 . S
C1204 N1201 1.350 . S
C1204 C1203 1.434 . S
C1205 C1206 1.369 . S
C1205 C1207 1.419 . S
C1205 H1209 0.930 . S
C1206 C1205 1.369 . S
C1206 C1215 1.429 . S
C1207 C1205 1.419 . S
C1207 C1208 1.363 . S
C1207 H1210 0.929 . S
C1208 C1207 1.363 . S
C1208 C1214 1.428 . S
H1209 C1205 0.930 . S
H1210 C1207 0.929 . S
S1211 N1212 1.613 . S
S1211 N1213 1.610 . S
N1212 S1211 1.613 . S
N1212 C1215 1.350 . S
N1213 S1211 1.610 . S
N1213 C1214 1.351 . S
C1214 C1208 1.428 . S
C1214 N1213 1.351 . S
C1214 C1215 1.434 . S
C1215 C1206 1.429 . S
C1215 N1212 1.350 . S
C1215 C1214 1.434 . S
C1216 C1217 1.369 . S
C1216 C1218 1.419 . S
C1216 H1220 0.930 . S
C1217 C1216 1.369 . S
C1217 C1226 1.429 . S
C1218 C1216 1.419 . S
C1218 C1219 1.363 . S
C1218 H1221 0.929 . S
C1219 C1218 1.363 . S
C1219 C1225 1.428 . S
H1220 C1216 0.930 . S
H1221 C1218 0.929 . S
S1222 N1223 1.593 1_655 S
S1222 N1224 1.610 . S
N1223 S1222 1.593 1_455 S
N1223 C1226 1.378 . S
N1224 S1222 1.610 . S
N1224 C1225 1.351 1_655 S
C1225 C1219 1.428 . S
C1225 N1224 1.351 1_455 S
C1225 C1226 1.434 . S
C1226 C1217 1.429 . S
C1226 N1223 1.378 . S
C1226 C1225 1.434 . S
C1227 C1228 1.369 . S
C1227 C1229 1.419 . S
C1227 H1231 0.930 . S
C1228 C1227 1.369 . S
C1228 C1237 1.429 . S
C1229 C1227 1.419 . S
C1229 C1230 1.363 . S
C1229 H1232 0.929 . S
C1230 C1229 1.363 . S
C1230 C1236 1.428 . S
H1231 C1227 0.930 . S
H1232 C1229 0.929 . S
S1233 N1234 1.613 . S
S1233 N1235 1.610 . S
N1234 S1233 1.613 . S
N1234 C1237 1.350 . S
N1235 S1233 1.610 . S
N1235 C1236 1.351 . S
C1236 C1230 1.428 . S
C1236 N1235 1.351 . S
C1236 C1237 1.434 . S
C1237 C1228 1.429 . S
C1237 N1234 1.350 . S
C1237 C1236 1.434 . S
C1238 C1239 1.369 . S
C1238 C1240 1.419 . S
C1238 H1242 0.930 . S
C1239 C1238 1.369 . S
C1239 C1248 1.429 . S
C1240 C1238 1.419 . S
C1240 C1241 1.363 . S
C1240 H1243 0.929 . S
C1241 C1240 1.363 . S
C1241 C1247 1.428 . S
H1242 C1238 0.930 . S
H1243 C1240 0.929 . S
S1244 N1245 1.613 . S
S1244 N1246 1.610 . S
N1245 S1244 1.613 . S
N1245 C1248 1.350 . S
N1246 S1244 1.610 . S
N1246 C1247 1.351 . S
C1247 C1241 1.428 . S
C1247 N1246 1.351 . S
C1247 C1248 1.434 . S
C1248 C1239 1.429 . S
C1248 N1245 1.350 . S
C1248 C1247 1.434 . S
C1249 C1250 1.369 . S
C1249 C1251 1.419 . S
C1249 H1253 0.930 . S
C1250 C1249 1.369 . S
C1250 C1259 1.429 . S
C1251 C1249 1.419 . S
C1251 C1252 1.363 . S
C1251 H1254 0.929 . S
C1252 C1251 1.363 . S
C1252 C1258 1.428 . S
H1253 C1249 0.930 . S
H1254 C1251 0.929 . S
S1255 N1256 1.613 . S
S1255 N1257 1.610 . S
N1256 S1255 1.613 . S
N1256 C1259 1.350 . S
N1257 S1255 1.610 . S
N1257 C1258 1.351 . S
C1258 C1252 1.428 . S
C1258 N1257 1.351 . S
C1258 C1259 1.434 . S
C1259 C1250 1.429 . S
C1259 N1256 1.350 . S
C1259 C1258 1.434 . S
C1260 C1261 1.369 . S
C1260 C1262 1.419 . S
C1260 H1264 0.930 . S
C1261 C1260 1.369 . S
C1261 C1270 1.429 . S
C1262 C1260 1.419 . S
C1262 C1263 1.363 . S
C1262 H1265 0.929 . S
C1263 C1262 1.363 . S
C1263 C1269 1.428 . S
H1264 C1260 0.930 . S
H1265 C1262 0.929 . S
S1266 N1267 1.613 . S
S1266 N1268 1.610 . S
N1267 S1266 1.613 . S
N1267 C1270 1.350 . S
N1268 S1266 1.610 . S
N1268 C1269 1.351 . S
C1269 C1263 1.428 . S
C1269 N1268 1.351 . S
C1269 C1270 1.434 . S
C1270 C1261 1.429 . S
C1270 N1267 1.350 . S
C1270 C1269 1.434 . S
C1271 C1272 1.369 . S
C1271 C1273 1.419 . S
C1271 H1275 0.930 . S
C1272 C1271 1.369 . S
C1272 C1281 1.429 . S
C1273 C1271 1.419 . S
C1273 C1274 1.363 . S
C1273 H1276 0.929 . S
C1274 C1273 1.363 . S
C1274 C1280 1.428 . S
H1275 C1271 0.930 . S
H1276 C1273 0.929 . S
S1277 N1278 1.613 . S
S1277 N1279 1.610 . S
N1278 S1277 1.613 . S
N1278 C1281 1.350 . S
N1279 S1277 1.610 . S
N1279 C1280 1.351 . S
C1280 C1274 1.428 . S
C1280 N1279 1.351 . S
C1280 C1281 1.434 . S
C1281 C1272 1.429 . S
C1281 N1278 1.350 . S
C1281 C1280 1.434 . S
C1282 C1283 1.369 . S
C1282 C1284 1.419 . S
C1282 H1286 0.930 . S
C1283 C1282 1.369 . S
C1283 C1292 1.429 . S
C1284 C1282 1.419 . S
C1284 C1285 1.363 1_565 S
C1284 H1287 0.929 . S
C1285 C1284 1.363 1_545 S
C1285 C1291 1.428 . S
H1286 C1282 0.930 . S
H1287 C1284 0.929 . S
S1288 N1289 1.613 1_545 S
S1288 N1290 1.610 . S
N1289 S1288 1.613 1_565 S
N1289 C1292 1.350 . S
N1290 S1288 1.610 . S
N1290 C1291 1.351 . S
C1291 C1285 1.428 . S
C1291 N1290 1.351 . S
C1291 C1292 1.434 1_545 S
C1292 C1283 1.429 . S
C1292 N1289 1.350 . S
C1292 C1291 1.434 1_565 S
C1293 C1294 1.369 . S
C1293 C1295 1.419 . S
C1293 H1297 0.954 . S
C1294 C1293 1.369 . S
C1294 C1303 1.429 . S
C1295 C1293 1.419 . S
C1295 C1296 1.363 . S
C1295 H1298 0.929 1_655 S
C1296 C1295 1.363 . S
C1296 C1302 1.428 . S
H1297 C1293 0.954 . S
H1298 C1295 0.929 1_455 S
S1299 N1300 1.613 . S
S1299 N1301 1.610 . S
N1300 S1299 1.613 . S
N1300 C1303 1.350 . S
N1301 S1299 1.610 . S
N1301 C1302 1.351 . S
C1302 C1296 1.428 . S
C1302 N1301 1.351 . S
C1302 C1303 1.434 . S
C1303 C1294 1.429 . S
C1303 N1300 1.350 . S
C1303 C1302 1.434 . S
C1304 C1305 1.369 . S
C1304 C1306 1.419 . S
C1304 H1308 0.930 . S
C1305 C1304 1.369 . S
C1305 C1314 1.429 . S
C1306 C1304 1.419 . S
C1306 C1307 1.363 . S
C1306 H1309 0.929 1_556 S
C1307 C1306 1.363 . S
C1307 C1313 1.428 . S
H1308 C1304 0.930 . S
H1309 C1306 0.929 1_554 S
S1310 N1311 1.613 . S
S1310 N1312 1.610 . S
N1311 S1310 1.613 . S
N1311 C1314 1.350 . S
N1312 S1310 1.610 . S
N1312 C1313 1.351 . S
C1313 C1307 1.428 . S
C1313 N1312 1.351 . S
C1313 C1314 1.434 . S
C1314 C1305 1.429 . S
C1314 N1311 1.350 . S
C1314 C1313 1.434 . S
C1315 C1316 1.369 . S
C1315 C1317 1.419 . S
C1315 H1319 0.930 . S
C1316 C1315 1.369 . S
C1316 C1325 1.429 . S
C1317 C1315 1.419 . S
C1317 C1318 1.363 . S
C1317 H1320 0.929 . S
C1318 C1317 1.363 . S
C1318 C1324 1.428 . S
H1319 C1315 0.930 . S
H1320 C1317 0.929 . S
S1321 N1322 1.613 . S
S1321 N1323 1.610 . S
N1322 S1321 1.613 . S
N1322 C1325 1.350 . S
N1323 S1321 1.610 . S
N1323 C1324 1.351 . S
C1324 C1318 1.428 . S
C1324 N1323 1.351 . S
C1324 C1325 1.434 . S
C1325 C1316 1.429 . S
C1325 N1322 1.350 . S
C1325 C1324 1.434 . S
C1326 C1327 1.369 . S
C1326 C1328 1.419 . S
C1326 H1330 0.930 . S
C1327 C1326 1.369 . S
C1327 C1336 1.429 . S
C1328 C1326 1.419 . S
C1328 C1329 1.363 . S
C1328 H1331 0.929 . S
C1329 C1328 1.363 . S
C1329 C1335 1.428 . S
H1330 C1326 0.930 . S
H1331 C1328 0.929 . S
S1332 N1333 1.613 . S
S1332 N1334 1.610 . S
N1333 S1332 1.613 . S
N1333 C1336 1.350 . S
N1334 S1332 1.610 . S
N1334 C1335 1.351 . S
C1335 C1329 1.428 . S
C1335 N1334 1.351 . S
C1335 C1336 1.434 . S
C1336 C1327 1.429 . S
C1336 N1333 1.350 . S
C1336 C1335 1.434 . S
C1337 C1338 1.369 . S
C1337 C1339 1.419 . S
C1337 H1341 0.930 . S
C1338 C1337 1.369 . S
C1338 C1347 1.429 . S
C1339 C1337 1.419 . S
C1339 C1340 1.363 . S
C1339 H1342 0.929 . S
C1340 C1339 1.363 . S
C1340 C1346 1.428 . S
H1341 C1337 0.930 . S
H1342 C1339 0.929 . S
S1343 N1344 1.613 . S
S1343 N1345 1.610 . S
N1344 S1343 1.613 . S
N1344 C1347 1.350 . S
N1345 S1343 1.610 . S
N1345 C1346 1.351 . S
C1346 C1340 1.428 . S
C1346 N1345 1.351 . S
C1346 C1347 1.434 . S
C1347 C1338 1.429 . S
C1347 N1344 1.350 . S
C1347 C1346 1.434 . S
C1348 C1349 1.369 . S
C1348 C1350 1.419 . S
C1348 H1352 0.930 . S
C1349 C1348 1.369 . S
C1349 C1358 1.429 . S
C1350 C1348 1.419 . S
C1350 C1351 1.363 . S
C1350 H1353 0.929 . S
C1351 C1350 1.363 . S
C1351 C1357 1.428 . S
H1352 C1348 0.930 . S
H1353 C1350 0.929 . S
S1354 N1355 1.613 . S
S1354 N1356 1.610 . S
N1355 S1354 1.613 . S
N1355 C1358 1.350 . S
N1356 S1354 1.610 . S
N1356 C1357 1.351 . S
C1357 C1351 1.428 . S
C1357 N1356 1.351 . S
C1357 C1358 1.434 . S
C1358 C1349 1.429 . S
C1358 N1355 1.350 . S
C1358 C1357 1.434 . S
C1359 C1360 1.369 . S
C1359 C1361 1.419 . S
C1359 H1363 0.930 . S
C1360 C1359 1.369 . S
C1360 C1369 1.429 . S
C1361 C1359 1.419 . S
C1361 C1362 1.363 . S
C1361 H1364 0.929 . S
C1362 C1361 1.363 . S
C1362 C1368 1.428 . S
H1363 C1359 0.930 . S
H1364 C1361 0.929 . S
S1365 N1366 1.613 . S
S1365 N1367 1.610 . S
N1366 S1365 1.613 . S
N1366 C1369 1.350 . S
N1367 S1365 1.610 . S
N1367 C1368 1.351 . S
C1368 C1362 1.428 . S
C1368 N1367 1.351 . S
C1368 C1369 1.434 . S
C1369 C1360 1.429 . S
C1369 N1366 1.350 . S
C1369 C1368 1.434 . S
C1370 C1371 1.369 . S
C1370 C1372 1.419 . S
C1370 H1374 0.930 . S
C1371 C1370 1.369 . S
C1371 C1380 1.429 . S
C1372 C1370 1.419 . S
C1372 C1373 1.363 . S
C1372 H1375 0.929 . S
C1373 C1372 1.363 . S
C1373 C1379 1.428 . S
H1374 C1370 0.930 . S
H1375 C1372 0.929 . S
S1376 N1377 1.613 . S
S1376 N1378 1.610 . S
N1377 S1376 1.613 . S
N1377 C1380 1.350 . S
N1378 S1376 1.610 . S
N1378 C1379 1.351 . S
C1379 C1373 1.428 . S
C1379 N1378 1.351 . S
C1379 C1380 1.434 . S
C1380 C1371 1.429 . S
C1380 N1377 1.350 . S
C1380 C1379 1.434 . S
C1381 C1382 1.369 . S
C1381 C1383 1.419 . S
C1381 H1385 0.930 . S
C1382 C1381 1.369 . S
C1382 C1391 1.429 . S
C1383 C1381 1.419 . S
C1383 C1384 1.363 . S
C1383 H1386 0.929 . S
C1384 C1383 1.363 . S
C1384 C1390 1.428 . S
H1385 C1381 0.930 . S
H1386 C1383 0.929 . S
S1387 N1388 1.613 1_554 S
S1387 N1389 1.610 1_554 S
N1388 S1387 1.613 1_556 S
N1388 C1391 1.350 . S
N1389 S1387 1.610 1_556 S
N1389 C1390 1.351 . S
C1390 C1384 1.428 . S
C1390 N1389 1.351 . S
C1390 C1391 1.434 . S
C1391 C1382 1.429 . S
C1391 N1388 1.350 . S
C1391 C1390 1.434 . S
C1392 C1393 1.369 . S
C1392 C1394 1.419 . S
C1392 H1396 0.930 . S
C1393 C1392 1.369 . S
C1393 C1402 1.429 . S
C1394 C1392 1.419 . S
C1394 C1395 1.363 . S
C1394 H1397 0.929 . S
C1395 C1394 1.363 . S
C1395 C1401 1.428 . S
H1396 C1392 0.930 . S
H1397 C1394 0.929 . S
S1398 N1399 1.613 . S
S1398 N1400 1.610 . S
N1399 S1398 1.613 . S
N1399 C1402 1.350 . S
N1400 S1398 1.610 . S
N1400 C1401 1.351 . S
C1401 C1395 1.428 . S
C1401 N1400 1.351 . S
C1401 C1402 1.434 . S
C1402 C1393 1.429 . S
C1402 N1399 1.350 . S
C1402 C1401 1.434 . S
C1403 C1404 1.369 . S
C1403 C1405 1.419 . S
C1403 H1407 0.930 . S
C1404 C1403 1.369 . S
C1404 C1413 1.429 . S
C1405 C1403 1.419 . S
C1405 C1406 1.363 . S
C1405 H1408 0.929 . S
C1406 C1405 1.363 . S
C1406 C1412 1.428 . S
H1407 C1403 0.930 . S
H1408 C1405 0.929 . S
S1409 N1410 1.613 . S
S1409 N1411 1.610 . S
N1410 S1409 1.613 . S
N1410 C1413 1.350 . S
N1411 S1409 1.610 . S
N1411 C1412 1.351 . S
C1412 C1406 1.428 . S
C1412 N1411 1.351 . S
C1412 C1413 1.434 . S
C1413 C1404 1.429 . S
C1413 N1410 1.350 . S
C1413 C1412 1.434 . S
C1414 C1415 1.369 . S
C1414 C1416 1.419 . S
C1414 H1418 0.930 . S
C1415 C1414 1.369 . S
C1415 C1424 1.429 . S
C1416 C1414 1.419 . S
C1416 C1417 1.363 . S
C1416 H1419 0.929 . S
C1417 C1416 1.363 . S
C1417 C1423 1.428 . S
H1418 C1414 0.930 . S
H1419 C1416 0.929 . S
S1420 N1421 1.613 . S
S1420 N1422 1.610 . S
N1421 S1420 1.613 . S
N1421 C1424 1.350 . S
N1422 S1420 1.610 . S
N1422 C1423 1.351 . S
C1423 C1417 1.428 . S
C1423 N1422 1.351 . S
C1423 C1424 1.434 . S
C1424 C1415 1.429 . S
C1424 N1421 1.350 . S
C1424 C1423 1.434 . S
C1425 C1426 1.369 . S
C1425 C1427 1.419 . S
C1425 H1429 0.930 . S
C1426 C1425 1.369 . S
C1426 C1435 1.429 . S
C1427 C1425 1.419 . S
C1427 C1428 1.363 . S
C1427 H1430 0.929 . S
C1428 C1427 1.363 . S
C1428 C1434 1.428 . S
H1429 C1425 0.930 . S
H1430 C1427 0.929 . S
S1431 N1432 1.613 . S
S1431 N1433 1.610 . S
N1432 S1431 1.613 . S
N1432 C1435 1.350 . S
N1433 S1431 1.610 . S
N1433 C1434 1.351 . S
C1434 C1428 1.428 . S
C1434 N1433 1.351 . S
C1434 C1435 1.434 . S
C1435 C1426 1.429 . S
C1435 N1432 1.350 . S
C1435 C1434 1.434 . S
C1436 C1437 1.369 . S
C1436 C1438 1.419 . S
C1436 H1440 0.930 . S
C1437 C1436 1.369 . S
C1437 C1446 1.429 . S
C1438 C1436 1.419 . S
C1438 C1439 1.363 . S
C1438 H1441 0.929 . S
C1439 C1438 1.363 . S
C1439 C1445 1.428 . S
H1440 C1436 0.930 . S
H1441 C1438 0.929 . S
S1442 N1443 1.613 . S
S1442 N1444 1.610 . S
N1443 S1442 1.613 . S
N1443 C1446 1.350 . S
N1444 S1442 1.610 . S
N1444 C1445 1.351 . S
C1445 C1439 1.428 . S
C1445 N1444 1.351 . S
C1445 C1446 1.434 . S
C1446 C1437 1.429 . S
C1446 N1443 1.350 . S
C1446 C1445 1.434 . S
C1447 C1448 1.369 . S
C1447 C1449 1.419 . S
C1447 H1451 0.930 . S
C1448 C1447 1.369 . S
C1448 C1457 1.429 . S
C1449 C1447 1.419 . S
C1449 C1450 1.363 . S
C1449 H1452 0.929 . S
C1450 C1449 1.363 . S
C1450 C1456 1.428 . S
H1451 C1447 0.930 . S
H1452 C1449 0.929 . S
S1453 N1454 1.613 . S
S1453 N1455 1.610 . S
N1454 S1453 1.613 . S
N1454 C1457 1.350 1_565 S
N1455 S1453 1.610 . S
N1455 C1456 1.351 1_565 S
C1456 C1450 1.428 . S
C1456 N1455 1.351 1_545 S
C1456 C1457 1.434 . S
C1457 C1448 1.429 . S
C1457 N1454 1.350 1_545 S
C1457 C1456 1.434 . S
C1458 C1459 1.369 . S
C1458 C1460 1.419 . S
C1458 H1462 0.930 . S
C1459 C1458 1.369 . S
C1459 C1468 1.429 . S
C1460 C1458 1.419 . S
C1460 C1461 1.363 . S
C1460 H1463 0.929 . S
C1461 C1460 1.363 . S
C1461 C1467 1.428 . S
H1462 C1458 0.930 . S
H1463 C1460 0.929 . S
S1464 N1465 1.613 . S
S1464 N1466 1.610 . S
N1465 S1464 1.613 . S
N1465 C1468 1.350 . S
N1466 S1464 1.610 . S
N1466 C1467 1.351 . S
C1467 C1461 1.428 . S
C1467 N1466 1.351 . S
C1467 C1468 1.434 . S
C1468 C1459 1.429 . S
C1468 N1465 1.350 . S
C1468 C1467 1.434 . S
C1469 C1470 1.369 . S
C1469 C1471 1.419 . S
C1469 H1473 0.930 . S
C1470 C1469 1.369 . S
C1470 C1479 1.429 . S
C1471 C1469 1.419 . S
C1471 C1472 1.363 . S
C1471 H1474 0.929 . S
C1472 C1471 1.363 . S
C1472 C1478 1.428 . S
H1473 C1469 0.930 . S
H1474 C1471 0.929 . S
S1475 N1476 1.613 . S
S1475 N1477 1.610 . S
N1476 S1475 1.613 . S
N1476 C1479 1.350 . S
N1477 S1475 1.610 . S
N1477 C1478 1.351 . S
C1478 C1472 1.428 . S
C1478 N1477 1.351 . S
C1478 C1479 1.434 . S
C1479 C1470 1.429 . S
C1479 N1476 1.350 . S
C1479 C1478 1.434 . S
C1480 C1481 1.369 . S
C1480 C1482 1.419 . S
C1480 H1484 0.930 . S
C1481 C1480 1.369 . S
C1481 C1490 1.429 . S
C1482 C1480 1.419 . S
C1482 C1483 1.363 . S
C1482 H1485 0.929 . S
C1483 C1482 1.363 . S
C1483 C1489 1.428 . S
H1484 C1480 0.930 . S
H1485 C1482 0.929 . S
S1486 N1487 1.613 . S
S1486 N1488 1.610 . S
N1487 S1486 1.613 . S
N1487 C1490 1.350 . S
N1488 S1486 1.610 . S
N1488 C1489 1.351 . S
C1489 C1483 1.428 . S
C1489 N1488 1.351 . S
C1489 C1490 1.434 . S
C1490 C1481 1.429 . S
C1490 N1487 1.350 . S
C1490 C1489 1.434 . S
C1491 C1492 1.369 . S
C1491 C1493 1.419 . S
C1491 H1495 0.930 . S
C1492 C1491 1.369 . S
C1492 C1501 1.429 . S
C1493 C1491 1.419 . S
C1493 C1494 1.363 . S
C1493 H1496 0.929 . S
C1494 C1493 1.363 . S
C1494 C1500 1.428 . S
H1495 C1491 0.930 . S
H1496 C1493 0.929 . S
S1497 N1498 1.613 . S
S1497 N1499 1.610 . S
N1498 S1497 1.613 . S
N1498 C1501 1.350 . S
N1499 S1497 1.610 . S
N1499 C1500 1.351 . S
C1500 C1494 1.428 . S
C1500 N1499 1.351 . S
C1500 C1501 1.434 . S
C1501 C1492 1.429 . S
C1501 N1498 1.350 . S
C1501 C1500 1.434 . S
C1502 C1503 1.369 . S
C1502 C1504 1.419 . S
C1502 H1506 0.930 . S
C1503 C1502 1.369 . S
C1503 C1512 1.429 1_556 S
C1504 C1502 1.419 . S
C1504 C1505 1.363 1_556 S
C1504 H1507 0.929 . S
C1505 C1504 1.363 1_554 S
C1505 C1511 1.428 . S
H1506 C1502 0.930 . S
H1507 C1504 0.929 . S
S1508 N1509 1.613 . S
S1508 N1510 1.610 . S
N1509 S1508 1.613 . S
N1509 C1512 1.350 . S
N1510 S1508 1.610 . S
N1510 C1511 1.351 . S
C1511 C1505 1.428 . S
C1511 N1510 1.351 . S
C1511 C1512 1.434 . S
C1512 C1503 1.429 1_554 S
C1512 N1509 1.350 . S
C1512 C1511 1.434 . S
C1513 C1514 1.369 . S
C1513 C1515 1.419 . S
C1513 H1517 0.930 . S
C1514 C1513 1.369 . S
C1514 C1523 1.429 . S
C1515 C1513 1.419 . S
C1515 C1516 1.363 . S
C1515 H1518 0.929 . S
C1516 C1515 1.363 . S
C1516 C1522 1.428 . S
H1517 C1513 0.930 . S
H1518 C1515 0.929 . S
S1519 N1520 1.613 . S
S1519 N1521 1.610 . S
N1520 S1519 1.613 . S
N1520 C1523 1.350 . S
N1521 S1519 1.610 . S
N1521 C1522 1.351 . S
C1522 C1516 1.428 . S
C1522 N1521 1.351 . S
C1522 C1523 1.434 . S
C1523 C1514 1.429 . S
C1523 N1520 1.350 . S
C1523 C1522 1.434 . S
C1524 C1525 1.369 . S
C1524 C1526 1.419 . S
C1524 H1528 0.930 . S
C1525 C1524 1.369 . S
C1525 C1534 1.429 . S
C1526 C1524 1.419 . S
C1526 C1527 1.363 . S
C1526 H1529 0.929 . S
C1527 C1526 1.363 . S
C1527 C1533 1.428 . S
H1528 C1524 0.930 . S
H1529 C1526 0.929 . S
S1530 N1531 1.613 . S
S1530 N1532 1.610 . S
N1531 S1530 1.613 . S
N1531 C1534 1.350 . S
N1532 S1530 1.610 . S
N1532 C1533 1.351 . S
C1533 C1527 1.428 . S
C1533 N1532 1.351 . S
C1533 C1534 1.434 . S
C1534 C1525 1.429 . S
C1534 N1531 1.350 . S
C1534 C1533 1.434 . S
C1535 C1536 1.369 . S
C1535 C1537 1.419 1_455 S
C1535 H1539 0.930 . S
C1536 C1535 1.369 . S
C1536 C1545 1.429 . S
C1537 C1535 1.419 1_655 S
C1537 C1538 1.363 . S
C1537 H1540 0.929 . S
C1538 C1537 1.363 . S
C1538 C1544 1.428 1_655 S
H1539 C1535 0.930 . S
H1540 C1537 0.929 . S
S1541 N1542 1.613 . S
S1541 N1543 1.610 . S
N1542 S1541 1.613 . S
N1542 C1545 1.350 . S
N1543 S1541 1.610 . S
N1543 C1544 1.351 . S
C1544 C1538 1.428 1_455 S
C1544 N1543 1.351 . S
C1544 C1545 1.434 . S
C1545 C1536 1.429 . S
C1545 N1542 1.350 . S
C1545 C1544 1.434 . S
C1546 C1547 1.369 . S
C1546 C1548 1.419 1_655 S
C1546 H1550 0.930 . S
C1547 C1546 1.369 . S
C1547 C1556 1.429 1_655 S
C1548 C1546 1.419 1_455 S
C1548 C1549 1.363 . S
C1548 H1551 0.929 1_455 S
C1549 C1548 1.363 . S
C1549 C1555 1.428 . S
H1550 C1546 0.930 . S
H1551 C1548 0.929 1_655 S
S1552 N1553 1.613 . S
S1552 N1554 1.610 . S
N1553 S1552 1.613 . S
N1553 C1556 1.350 . S
N1554 S1552 1.610 . S
N1554 C1555 1.351 . S
C1555 C1549 1.428 . S
C1555 N1554 1.351 . S
C1555 C1556 1.434 . S
C1556 C1547 1.429 1_455 S
C1556 N1553 1.350 . S
C1556 C1555 1.434 . S
C1557 C1558 1.369 . S
C1557 C1559 1.419 . S
C1557 H1561 0.930 . S
C1558 C1557 1.369 . S
C1558 C1567 1.429 . S
C1559 C1557 1.419 . S
C1559 C1560 1.363 . S
C1559 H1562 0.929 . S
C1560 C1559 1.363 . S
C1560 C1566 1.428 . S
H1561 C1557 0.930 . S
H1562 C1559 0.929 . S
S1563 N1564 1.613 . S
S1563 N1565 1.610 . S
N1564 S1563 1.613 . S
N1564 C1567 1.350 . S
N1565 S1563 1.610 . S
N1565 C1566 1.351 . S
C1566 C1560 1.428 . S
C1566 N1565 1.351 . S
C1566 C1567 1.434 . S
C1567 C1558 1.429 . S
C1567 N1564 1.350 . S
C1567 C1566 1.434 . S
C1568 C1569 1.369 . S
C1568 C1570 1.419 . S
C1568 H1572 0.930 . S
C1569 C1568 1.369 . S
C1569 C1578 1.429 . S
C1570 C1568 1.419 . S
C1570 C1571 1.363 . S
C1570 H1573 0.929 . S
C1571 C1570 1.363 . S
C1571 C1577 1.428 . S
H1572 C1568 0.930 . S
H1573 C1570 0.929 . S
S1574 N1575 1.613 . S
S1574 N1576 1.610 . S
N1575 S1574 1.613 . S
N1575 C1578 1.350 . S
N1576 S1574 1.610 . S
N1576 C1577 1.351 . S
C1577 C1571 1.428 . S
C1577 N1576 1.351 . S
C1577 C1578 1.434 . S
C1578 C1569 1.429 . S
C1578 N1575 1.350 . S
C1578 C1577 1.434 . S
C1579 C1580 1.369 . S
C1579 C1581 1.419 . S
C1579 H1583 0.930 1_556 S
C1580 C1579 1.369 . S
C1580 C1589 1.429 . S
C1581 C1579 1.419 . S
C1581 C1582 1.363 . S
C1581 H1584 0.929 . S
C1582 C1581 1.363 . S
C1582 C1588 1.428 . S
H1583 C1579 0.930 1_554 S
H1584 C1581 0.929 . S
S1585 N1586 1.613 . S
S1585 N1587 1.610 . S
N1586 S1585 1.613 . S
N1586 C1589 1.350 . S
N1587 S1585 1.610 . S
N1587 C1588 1.351 . S
C1588 C1582 1.428 . S
C1588 N1587 1.351 . S
C1588 C1589 1.434 . S
C1589 C1580 1.429 . S
C1589 N1586 1.350 . S
C1589 C1588 1.434 . S
C1590 C1591 1.369 . S
C1590 C1592 1.419 . S
C1590 H1594 0.930 . S
C1591 C1590 1.369 . S
C1591 C1600 1.429 . S
C1592 C1590 1.419 . S
C1592 C1593 1.363 . S
C1592 H1595 0.929 . S
C1593 C1592 1.363 . S
C1593 C1599 1.428 . S
H1594 C1590 0.930 . S
H1595 C1592 0.929 . S
S1596 N1597 1.613 . S
S1596 N1598 1.610 . S
N1597 S1596 1.613 . S
N1597 C1600 1.350 . S
N1598 S1596 1.610 . S
N1598 C1599 1.351 . S
C1599 C1593 1.428 . S
C1599 N1598 1.351 . S
C1599 C1600 1.434 . S
C1600 C1591 1.429 . S
C1600 N1597 1.350 . S
C1600 C1599 1.434 . S
C1601 C1602 1.369 . S
C1601 C1603 1.419 . S
C1601 H1605 0.930 . S
C1602 C1601 1.369 . S
C1602 C1611 1.429 . S
C1603 C1601 1.419 . S
C1603 C1604 1.363 . S
C1603 H1606 0.929 . S
C1604 C1603 1.363 . S
C1604 C1610 1.428 . S
H1605 C1601 0.930 . S
H1606 C1603 0.929 . S
S1607 N1608 1.613 . S
S1607 N1609 1.610 . S
N1608 S1607 1.613 . S
N1608 C1611 1.350 . S
N1609 S1607 1.610 . S
N1609 C1610 1.351 . S
C1610 C1604 1.428 . S
C1610 N1609 1.351 . S
C1610 C1611 1.434 . S
C1611 C1602 1.429 . S
C1611 N1608 1.350 . S
C1611 C1610 1.434 . S
C1612 C1613 1.369 . S
C1612 C1614 1.419 . S
C1612 H1616 0.930 . S
C1613 C1612 1.369 . S
C1613 C1622 1.429 . S
C1614 C1612 1.419 . S
C1614 C1615 1.363 . S
C1614 H1617 0.929 . S
C1615 C1614 1.363 . S
C1615 C1621 1.428 . S
H1616 C1612 0.930 . S
H1617 C1614 0.929 . S
S1618 N1619 1.613 . S
S1618 N1620 1.610 . S
N1619 S1618 1.613 . S
N1619 C1622 1.350 . S
N1620 S1618 1.610 . S
N1620 C1621 1.351 . S
C1621 C1615 1.428 . S
C1621 N1620 1.351 . S
C1621 C1622 1.434 . S
C1622 C1613 1.429 . S
C1622 N1619 1.350 . S
C1622 C1621 1.434 . S
C1623 C1624 1.369 . S
C1623 C1625 1.419 . S
C1623 H1627 0.930 . S
C1624 C1623 1.369 . S
C1624 C1633 1.429 . S
C1625 C1623 1.419 . S
C1625 C1626 1.363 . S
C1625 H1628 0.929 . S
C1626 C1625 1.363 . S
C1626 C1632 1.428 . S
H1627 C1623 0.930 . S
H1628 C1625 0.929 . S
S1629 N1630 1.613 . S
S1629 N1631 1.610 . S
N1630 S1629 1.613 . S
N1630 C1633 1.350 . S
N1631 S1629 1.610 . S
N1631 C1632 1.351 . S
C1632 C1626 1.428 . S
C1632 N1631 1.351 . S
C1632 C1633 1.434 . S
C1633 C1624 1.429 . S
C1633 N1630 1.350 . S
C1633 C1632 1.434 . S
C1634 C1635 1.369 . S
C1634 C1636 1.419 . S
C1634 H1638 0.930 . S
C1635 C1634 1.369 . S
C1635 C1644 1.429 . S
C1636 C1634 1.419 . S
C1636 C1637 1.363 . S
C1636 H1639 0.929 . S
C1637 C1636 1.363 . S
C1637 C1643 1.428 . S
H1638 C1634 0.930 . S
H1639 C1636 0.929 . S
S1640 N1641 1.613 . S
S1640 N1642 1.610 . S
N1641 S1640 1.613 . S
N1641 C1644 1.350 . S
N1642 S1640 1.610 . S
N1642 C1643 1.351 . S
C1643 C1637 1.428 . S
C1643 N1642 1.351 . S
C1643 C1644 1.434 . S
C1644 C1635 1.429 . S
C1644 N1641 1.350 . S
C1644 C1643 1.434 . S
C1645 C1646 1.369 . S
C1645 C1647 1.419 . S
C1645 H1649 0.930 . S
C1646 C1645 1.369 . S
C1646 C1655 1.429 . S
C1647 C1645 1.419 . S
C1647 C1648 1.363 . S
C1647 H1650 0.929 . S
C1648 C1647 1.363 . S
C1648 C1654 1.428 . S
H1649 C1645 0.930 . S
H1650 C1647 0.929 . S
S1651 N1652 1.613 . S
S1651 N1653 1.610 . S
N1652 S1651 1.613 . S
N1652 C1655 1.350 . S
N1653 S1651 1.610 . S
N1653 C1654 1.351 . S
C1654 C1648 1.428 . S
C1654 N1653 1.351 . S
C1654 C1655 1.434 . S
C1655 C1646 1.429 . S
C1655 N1652 1.350 . S
C1655 C1654 1.434 . S
C1656 C1657 1.369 . S
C1656 C1658 1.419 . S
C1656 H1660 0.930 . S
C1657 C1656 1.369 . S
C1657 C1666 1.429 . S
C1658 C1656 1.419 . S
C1658 C1659 1.363 . S
C1658 H1661 0.929 . S
C1659 C1658 1.363 . S
C1659 C1665 1.428 . S
H1660 C1656 0.930 . S
H1661 C1658 0.929 . S
S1662 N1663 1.613 . S
S1662 N1664 1.610 . S
N1663 S1662 1.613 . S
N1663 C1666 1.350 . S
N1664 S1662 1.610 . S
N1664 C1665 1.351 . S
C1665 C1659 1.428 . S
C1665 N1664 1.351 . S
C1665 C1666 1.434 . S
C1666 C1657 1.429 . S
C1666 N1663 1.350 . S
C1666 C1665 1.434 . S
C1667 C1668 1.369 . S
C1667 C1669 1.419 . S
C1667 H1671 0.930 . S
C1668 C1667 1.369 . S
C1668 C1677 1.429 . S
C1669 C1667 1.419 . S
C1669 C1670 1.363 . S
C1669 H1672 0.929 . S
C1670 C1669 1.363 . S
C1670 C1676 1.428 . S
H1671 C1667 0.930 . S
H1672 C1669 0.929 . S
S1673 N1674 1.613 . S
S1673 N1675 1.610 . S
N1674 S1673 1.613 . S
N1674 C1677 1.350 . S
N1675 S1673 1.610 . S
N1675 C1676 1.351 . S
C1676 C1670 1.428 . S
C1676 N1675 1.351 . S
C1676 C1677 1.434 . S
C1677 C1668 1.429 . S
C1677 N1674 1.350 . S
C1677 C1676 1.434 . S
C1678 C1679 1.369 . S
C1678 C1680 1.419 . S
C1678 H1682 0.930 . S
C1679 C1678 1.369 . S
C1679 C1688 1.429 . S
C1680 C1678 1.419 . S
C1680 C1681 1.363 . S
C1680 H1683 0.929 . S
C1681 C1680 1.363 . S
C1681 C1687 1.428 . S
H1682 C1678 0.930 . S
H1683 C1680 0.929 . S
S1684 N1685 1.613 . S
S1684 N1686 1.610 . S
N1685 S1684 1.613 . S
N1685 C1688 1.350 . S
N1686 S1684 1.610 . S
N1686 C1687 1.351 . S
C1687 C1681 1.428 . S
C1687 N1686 1.351 . S
C1687 C1688 1.434 . S
C1688 C1679 1.429 . S
C1688 N1685 1.350 . S
C1688 C1687 1.434 . S
C1689 C1690 1.369 . S
C1689 C1691 1.419 . S
C1689 H1693 0.930 . S
C1690 C1689 1.369 . S
C1690 C1699 1.429 . S
C1691 C1689 1.419 . S
C1691 C1692 1.363 . S
C1691 H1694 0.929 . S
C1692 C1691 1.363 . S
C1692 C1698 1.428 . S
H1693 C1689 0.930 . S
H1694 C1691 0.929 . S
S1695 N1696 1.613 . S
S1695 N1697 1.610 1_565 S
N1696 S1695 1.613 . S
N1696 C1699 1.350 . S
N1697 S1695 1.610 1_545 S
N1697 C1698 1.351 1_545 S
C1698 C1692 1.428 . S
C1698 N1697 1.351 1_565 S
C1698 C1699 1.434 . S
C1699 C1690 1.429 . S
C1699 N1696 1.350 . S
C1699 C1698 1.434 . S
C1700 C1701 1.369 . S
C1700 C1702 1.419 . S
C1700 H1704 0.930 . S
C1701 C1700 1.369 . S
C1701 C1710 1.429 . S
C1702 C1700 1.419 . S
C1702 C1703 1.363 . S
C1702 H1705 0.929 . S
C1703 C1702 1.363 . S
C1703 C1709 1.428 . S
H1704 C1700 0.930 . S
H1705 C1702 0.929 . S
S1706 N1707 1.613 . S
S1706 N1708 1.610 . S
N1707 S1706 1.613 . S
N1707 C1710 1.350 . S
N1708 S1706 1.610 . S
N1708 C1709 1.351 . S
C1709 C1703 1.428 . S
C1709 N1708 1.351 . S
C1709 C1710 1.434 . S
C1710 C1701 1.429 . S
C1710 N1707 1.350 . S
C1710 C1709 1.434 . S
C1711 C1712 1.369 . S
C1711 C1713 1.419 . S
C1711 H1715 0.930 . S
C1712 C1711 1.369 . S
C1712 C1721 1.429 . S
C1713 C1711 1.419 . S
C1713 C1714 1.363 . S
C1713 H1716 0.929 . S
C1714 C1713 1.363 . S
C1714 C1720 1.428 . S
H1715 C1711 0.930 . S
H1716 C1713 0.929 . S
S1717 N1718 1.613 . S
S1717 N1719 1.610 . S
N1718 S1717 1.613 . S
N1718 C1721 1.350 . S
N1719 S1717 1.610 . S
N1719 C1720 1.351 . S
C1720 C1714 1.428 . S
C1720 N1719 1.351 . S
C1720 C1721 1.434 . S
C1721 C1712 1.429 . S
C1721 N1718 1.350 . S
C1721 C1720 1.434 . S
C1722 C1723 1.369 . S
C1722 C1724 1.419 . S
C1722 H1726 0.930 . S
C1723 C1722 1.369 . S
C1723 C1732 1.429 . S
C1724 C1722 1.419 . S
C1724 C1725 1.363 . S
C1724 H1727 0.929 . S
C1725 C1724 1.363 . S
C1725 C1731 1.428 . S
H1726 C1722 0.930 . S
H1727 C1724 0.929 . S
S1728 N1729 1.613 . S
S1728 N1730 1.610 . S
N1729 S1728 1.613 . S
N1729 C1732 1.350 . S
N1730 S1728 1.610 . S
N1730 C1731 1.351 . S
C1731 C1725 1.428 . S
C1731 N1730 1.351 . S
C1731 C1732 1.434 . S
C1732 C1723 1.429 . S
C1732 N1729 1.350 . S
C1732 C1731 1.434 . S
C1733 C1734 1.369 . S
C1733 C1735 1.419 . S
C1733 H1737 0.930 . S
C1734 C1733 1.369 . S
C1734 C1743 1.429 . S
C1735 C1733 1.419 . S
C1735 C1736 1.363 . S
C1735 H1738 0.916 1_545 S
C1736 C1735 1.363 . S
C1736 C1742 1.428 . S
H1737 C1733 0.930 . S
H1738 C1735 0.916 1_565 S
S1739 N1740 1.613 . S
S1739 N1741 1.610 . S
N1740 S1739 1.613 . S
N1740 C1743 1.350 . S
N1741 S1739 1.610 . S
N1741 C1742 1.351 . S
C1742 C1736 1.428 . S
C1742 N1741 1.351 . S
C1742 C1743 1.434 . S
C1743 C1734 1.429 . S
C1743 N1740 1.350 . S
C1743 C1742 1.434 . S
C1744 C1745 1.369 . S
C1744 C1746 1.419 . S
C1744 H1748 0.930 . S
C1745 C1744 1.369 . S
C1745 C1754 1.429 . S
C1746 C1744 1.419 . S
C1746 C1747 1.363 . S
C1746 H1749 0.929 . S
C1747 C1746 1.363 . S
C1747 C1753 1.428 . S
H1748 C1744 0.930 . S
H1749 C1746 0.929 . S
S1750 N1751 1.613 . S
S1750 N1752 1.610 . S
N1751 S1750 1.613 . S
N1751 C1754 1.350 . S
N1752 S1750 1.610 . S
N1752 C1753 1.351 . S
C1753 C1747 1.428 . S
C1753 N1752 1.351 . S
C1753 C1754 1.434 . S
C1754 C1745 1.429 . S
C1754 N1751 1.350 . S
C1754 C1753 1.434 . S
C1755 C1756 1.369 . S
C1755 C1757 1.419 . S
C1755 H1759 0.930 . S
C1756 C1755 1.369 . S
C1756 C1765 1.429 . S
C1757 C1755 1.419 . S
C1757 C1758 1.363 . S
C1757 H1760 0.929 . S
C1758 C1757 1.363 . S
C1758 C1764 1.428 . S
H1759 C1755 0.930 . S
H1760 C1757 0.929 . S
S1761 N1762 1.613 . S
S1761 N1763 1.610 . S
N1762 S1761 1.613 . S
N1762 C1765 1.350 . S
N1763 S1761 1.610 . S
N1763 C1764 1.351 . S
C1764 C1758 1.428 . S
C1764 N1763 1.351 . S
C1764 C1765 1.434 . S
C1765 C1756 1.429 . S
C1765 N1762 1.350 . S
C1765 C1764 1.434 . S
C1766 C1767 1.369 . S
C1766 C1768 1.419 . S
C1766 H1770 0.930 . S
C1767 C1766 1.369 . S
C1767 C1776 1.429 . S
C1768 C1766 1.419 . S
C1768 C1769 1.363 . S
C1768 H1771 0.929 . S
C1769 C1768 1.363 . S
C1769 C1775 1.428 . S
H1770 C1766 0.930 . S
H1771 C1768 0.929 . S
S1772 N1773 1.613 . S
S1772 N1774 1.610 . S
N1773 S1772 1.613 . S
N1773 C1776 1.350 . S
N1774 S1772 1.610 . S
N1774 C1775 1.351 . S
C1775 C1769 1.428 . S
C1775 N1774 1.351 . S
C1775 C1776 1.434 . S
C1776 C1767 1.429 . S
C1776 N1773 1.350 . S
C1776 C1775 1.434 . S
C1777 C1778 1.369 . S
C1777 C1779 1.419 . S
C1777 H1781 0.930 . S
C1778 C1777 1.369 . S
C1778 C1787 1.429 . S
C1779 C1777 1.419 . S
C1779 C1780 1.363 . S
C1779 H1782 0.929 . S
C1780 C1779 1.363 . S
C1780 C1786 1.428 . S
H1781 C1777 0.930 . S
H1782 C1779 0.929 . S
S1783 N1784 1.613 . S
S1783 N1785 1.610 . S
N1784 S1783 1.613 . S
N1784 C1787 1.350 . S
N1785 S1783 1.610 . S
N1785 C1786 1.351 . S
C1786 C1780 1.428 . S
C1786 N1785 1.351 . S
C1786 C1787 1.434 . S
C1787 C1778 1.429 . S
C1787 N1784 1.350 . S
C1787 C1786 1.434 . S
C1788 C1789 1.369 . S
C1788 C1790 1.419 . S
C1788 H1792 0.930 . S
C1789 C1788 1.369 . S
C1789 C1798 1.429 . S
C1790 C1788 1.419 . S
C1790 C1791 1.363 . S
C1790 H1793 0.929 1_554 S
C1791 C1790 1.363 . S
C1791 C1797 1.428 . S
H1792 C1788 0.930 . S
H1793 C1790 0.929 1_556 S
S1794 N1795 1.613 . S
S1794 N1796 1.610 . S
N1795 S1794 1.613 . S
N1795 C1798 1.350 . S
N1796 S1794 1.610 . S
N1796 C1797 1.351 . S
C1797 C1791 1.428 . S
C1797 N1796 1.351 . S
C1797 C1798 1.434 . S
C1798 C1789 1.429 . S
C1798 N1795 1.350 . S
C1798 C1797 1.434 . S
C1799 C1800 1.369 . S
C1799 C1801 1.419 . S
C1799 H1803 0.930 . S
C1800 C1799 1.369 . S
C1800 C1809 1.429 . S
C1801 C1799 1.419 . S
C1801 C1802 1.363 . S
C1801 H1804 0.929 . S
C1802 C1801 1.363 . S
C1802 C1808 1.428 . S
H1803 C1799 0.930 . S
H1804 C1801 0.929 . S
S1805 N1806 1.613 . S
S1805 N1807 1.610 . S
N1806 S1805 1.613 . S
N1806 C1809 1.350 . S
N1807 S1805 1.610 . S
N1807 C1808 1.351 . S
C1808 C1802 1.428 . S
C1808 N1807 1.351 . S
C1808 C1809 1.434 . S
C1809 C1800 1.429 . S
C1809 N1806 1.350 . S
C1809 C1808 1.434 . S
C1810 C1811 1.369 . S
C1810 C1812 1.419 . S
C1810 H1814 0.930 . S
C1811 C1810 1.369 . S
C1811 C1820 1.429 . S
C1812 C1810 1.419 . S
C1812 C1813 1.363 . S
C1812 H1815 0.929 . S
C1813 C1812 1.363 . S
C1813 C1819 1.428 . S
H1814 C1810 0.930 . S
H1815 C1812 0.929 . S
S1816 N1817 1.613 . S
S1816 N1818 1.610 . S
N1817 S1816 1.613 . S
N1817 C1820 1.350 . S
N1818 S1816 1.610 . S
N1818 C1819 1.351 . S
C1819 C1813 1.428 . S
C1819 N1818 1.351 . S
C1819 C1820 1.434 . S
C1820 C1811 1.429 . S
C1820 N1817 1.350 . S
C1820 C1819 1.434 . S
C1821 C1822 1.369 . S
C1821 C1823 1.419 . S
C1821 H1825 0.930 . S
C1822 C1821 1.369 . S
C1822 C1831 1.429 . S
C1823 C1821 1.419 . S
C1823 C1824 1.363 . S
C1823 H1826 0.929 . S
C1824 C1823 1.363 . S
C1824 C1830 1.428 . S
H1825 C1821 0.930 . S
H1826 C1823 0.929 . S
S1827 N1828 1.613 . S
S1827 N1829 1.610 . S
N1828 S1827 1.613 . S
N1828 C1831 1.350 . S
N1829 S1827 1.610 . S
N1829 C1830 1.351 . S
C1830 C1824 1.428 . S
C1830 N1829 1.351 . S
C1830 C1831 1.434 . S
C1831 C1822 1.429 . S
C1831 N1828 1.350 . S
C1831 C1830 1.434 . S
C1832 C1833 1.369 . S
C1832 C1834 1.419 . S
C1832 H1836 0.930 . S
C1833 C1832 1.369 . S
C1833 C1842 1.429 . S
C1834 C1832 1.419 . S
C1834 C1835 1.363 . S
C1834 H1837 0.929 . S
C1835 C1834 1.363 . S
C1835 C1841 1.428 . S
H1836 C1832 0.930 . S
H1837 C1834 0.929 . S
S1838 N1839 1.613 . S
S1838 N1840 1.610 . S
N1839 S1838 1.613 . S
N1839 C1842 1.350 . S
N1840 S1838 1.610 . S
N1840 C1841 1.351 . S
C1841 C1835 1.428 . S
C1841 N1840 1.351 . S
C1841 C1842 1.434 . S
C1842 C1833 1.429 . S
C1842 N1839 1.350 . S
C1842 C1841 1.434 . S
C1843 C1844 1.369 . S
C1843 C1845 1.419 . S
C1843 H1847 0.930 . S
C1844 C1843 1.369 . S
C1844 C1853 1.429 . S
C1845 C1843 1.419 . S
C1845 C1846 1.363 . S
C1845 H1848 0.929 . S
C1846 C1845 1.363 . S
C1846 C1852 1.428 . S
H1847 C1843 0.930 . S
H1848 C1845 0.929 . S
S1849 N1850 1.613 . S
S1849 N1851 1.610 . S
N1850 S1849 1.613 . S
N1850 C1853 1.350 . S
N1851 S1849 1.610 . S
N1851 C1852 1.351 . S
C1852 C1846 1.428 . S
C1852 N1851 1.351 . S
C1852 C1853 1.434 . S
C1853 C1844 1.429 . S
C1853 N1850 1.350 . S
C1853 C1852 1.434 . S
C1854 C1855 1.369 . S
C1854 C1856 1.419 . S
C1854 H1858 0.930 . S
C1855 C1854 1.369 . S
C1855 C1864 1.429 . S
C1856 C1854 1.419 . S
C1856 C1857 1.363 . S
C1856 H1859 0.929 1_556 S
C1857 C1856 1.363 . S
C1857 C1863 1.428 . S
H1858 C1854 0.930 . S
H1859 C1856 0.929 1_554 S
S1860 N1861 1.613 . S
S1860 N1862 1.610 . S
N1861 S1860 1.613 . S
N1861 C1864 1.350 . S
N1862 S1860 1.610 . S
N1862 C1863 1.351 . S
C1863 C1857 1.428 . S
C1863 N1862 1.351 . S
C1863 C1864 1.434 . S
C1864 C1855 1.429 . S
C1864 N1861 1.350 . S
C1864 C1863 1.434 . S
C1865 C1866 1.369 . S
C1865 C1867 1.419 . S
C1865 H1869 0.930 . S
C1866 C1865 1.369 . S
C1866 C1875 1.429 . S
C1867 C1865 1.419 . S
C1867 C1868 1.363 . S
C1867 H1870 0.929 . S
C1868 C1867 1.363 . S
C1868 C1874 1.428 . S
H1869 C1865 0.930 . S
H1870 C1867 0.929 . S
S1871 N1872 1.613 . S
S1871 N1873 1.610 . S
N1872 S1871 1.613 . S
N1872 C1875 1.350 . S
N1873 S1871 1.610 . S
N1873 C1874 1.351 . S
C1874 C1868 1.428 . S
C1874 N1873 1.351 . S
C1874 C1875 1.434 . S
C1875 C1866 1.429 . S
C1875 N1872 1.350 . S
C1875 C1874 1.434 . S
C1876 C1877 1.369 . S
C1876 C1878 1.419 . S
C1876 H1880 0.930 . S
C1877 C1876 1.369 . S
C1877 C1886 1.429 . S
C1878 C1876 1.419 . S
C1878 C1879 1.363 . S
C1878 H1881 0.929 . S
C1879 C1878 1.363 . S
C1879 C1885 1.428 . S
H1880 C1876 0.930 . S
H1881 C1878 0.929 . S
S1882 N1883 1.613 . S
S1882 N1884 1.610 . S
N1883 S1882 1.613 . S
N1883 C1886 1.350 . S
N1884 S1882 1.610 . S
N1884 C1885 1.351 . S
C1885 C1879 1.428 . S
C1885 N1884 1.351 . S
C1885 C1886 1.434 . S
C1886 C1877 1.429 . S
C1886 N1883 1.350 . S
C1886 C1885 1.434 . S
C1887 C1888 1.369 . S
C1887 C1889 1.419 . S
C1887 H1891 0.930 . S
C1888 C1887 1.369 . S
C1888 C1897 1.429 . S
C1889 C1887 1.419 . S
C1889 C1890 1.363 . S
C1889 H1892 0.929 . S
C1890 C1889 1.363 . S
C1890 C1896 1.428 . S
H1891 C1887 0.930 . S
H1892 C1889 0.929 . S
S1893 N1894 1.613 . S
S1893 N1895 1.610 . S
N1894 S1893 1.613 . S
N1894 C1897 1.350 . S
N1895 S1893 1.610 . S
N1895 C1896 1.351 . S
C1896 C1890 1.428 . S
C1896 N1895 1.351 . S
C1896 C1897 1.434 . S
C1897 C1888 1.429 . S
C1897 N1894 1.350 . S
C1897 C1896 1.434 . S
C1898 C1899 1.369 . S
C1898 C1900 1.419 . S
C1898 H1902 0.930 . S
C1899 C1898 1.369 . S
C1899 C1908 1.429 1_455 S
C1900 C1898 1.419 . S
C1900 C1901 1.363 . S
C1900 H1903 0.929 . S
C1901 C1900 1.363 . S
C1901 C1907 1.428 . S
H1902 C1898 0.930 . S
H1903 C1900 0.929 . S
S1904 N1905 1.613 . S
S1904 N1906 1.610 . S
N1905 S1904 1.613 . S
N1905 C1908 1.350 . S
N1906 S1904 1.610 . S
N1906 C1907 1.351 1_655 S
C1907 C1901 1.428 . S
C1907 N1906 1.351 1_455 S
C1907 C1908 1.434 1_455 S
C1908 C1899 1.429 1_655 S
C1908 N1905 1.350 . S
C1908 C1907 1.434 1_655 S
C1909 C1910 1.369 . S
C1909 C1911 1.419 . S
C1909 H1913 0.930 . S
C1910 C1909 1.369 . S
C1910 C1919 1.429 . S
C1911 C1909 1.419 . S
C1911 C1912 1.363 . S
C1911 H1914 0.929 . S
C1912 C1911 1.363 . S
C1912 C1918 1.428 . S
H1913 C1909 0.930 . S
H1914 C1911 0.929 . S
S1915 N1916 1.613 . S
S1915 N1917 1.610 . S
N1916 S1915 1.613 . S
N1916 C1919 1.350 . S
N1917 S1915 1.610 . S
N1917 C1918 1.351 . S
C1918 C1912 1.428 . S
C1918 N1917 1.351 . S
C1918 C1919 1.434 . S
C1919 C1910 1.429 . S
C1919 N1916 1.350 . S
C1919 C1918 1.434 . S
C1920 C1921 1.369 . S
C1920 C1922 1.419 . S
C1920 H1924 0.930 . S
C1921 C1920 1.369 . S
C1921 C1930 1.429 . S
C1922 C1920 1.419 . S
C1922 C1923 1.363 . S
C1922 H1925 0.929 . S
C1923 C1922 1.363 . S
C1923 C1929 1.428 . S
H1924 C1920 0.930 . S
H1925 C1922 0.929 . S
S1926 N1927 1.613 . S
S1926 N1928 1.610 . S
N1927 S1926 1.613 . S
N1927 C1930 1.350 . S
N1928 S1926 1.610 . S
N1928 C1929 1.351 . S
C1929 C1923 1.428 . S
C1929 N1928 1.351 . S
C1929 C1930 1.434 . S
C1930 C1921 1.429 . S
C1930 N1927 1.350 . S
C1930 C1929 1.434 . S
C1931 C1932 1.369 . S
C1931 C1933 1.419 . S
C1931 H1935 0.930 . S
C1932 C1931 1.369 . S
C1932 C1941 1.429 . S
C1933 C1931 1.419 . S
C1933 C1934 1.363 . S
C1933 H1936 0.929 . S
C1934 C1933 1.363 . S
C1934 C1940 1.428 . S
H1935 C1931 0.930 . S
H1936 C1933 0.929 . S
S1937 N1938 1.613 . S
S1937 N1939 1.610 . S
N1938 S1937 1.613 . S
N1938 C1941 1.350 . S
N1939 S1937 1.610 . S
N1939 C1940 1.351 . S
C1940 C1934 1.428 . S
C1940 N1939 1.351 . S
C1940 C1941 1.434 . S
C1941 C1932 1.429 . S
C1941 N1938 1.350 . S
C1941 C1940 1.434 . S
C1942 C1943 1.369 . S
C1942 C1944 1.419 . S
C1942 H1946 0.930 . S
C1943 C1942 1.369 . S
C1943 C1952 1.429 . S
C1944 C1942 1.419 . S
C1944 C1945 1.363 . S
C1944 H1947 0.929 . S
C1945 C1944 1.363 . S
C1945 C1951 1.428 . S
H1946 C1942 0.930 . S
H1947 C1944 0.929 . S
S1948 N1949 1.613 . S
S1948 N1950 1.610 . S
N1949 S1948 1.613 . S
N1949 C1952 1.350 . S
N1950 S1948 1.610 . S
N1950 C1951 1.351 . S
C1951 C1945 1.428 . S
C1951 N1950 1.351 . S
C1951 C1952 1.434 . S
C1952 C1943 1.429 . S
C1952 N1949 1.350 . S
C1952 C1951 1.434 . S
C1953 C1954 1.369 . S
C1953 C1955 1.419 . S
C1953 H1957 0.930 . S
C1954 C1953 1.369 . S
C1954 C1963 1.429 . S
C1955 C1953 1.419 . S
C1955 C1956 1.363 . S
C1955 H1958 0.929 . S
C1956 C1955 1.363 . S
C1956 C1962 1.428 . S
H1957 C1953 0.930 . S
H1958 C1955 0.929 . S
S1959 N1960 1.613 . S
S1959 N1961 1.610 . S
N1960 S1959 1.613 . S
N1960 C1963 1.350 . S
N1961 S1959 1.610 . S
N1961 C1962 1.351 . S
C1962 C1956 1.428 . S
C1962 N1961 1.351 . S
C1962 C1963 1.434 . S
C1963 C1954 1.429 . S
C1963 N1960 1.350 . S
C1963 C1962 1.434 . S
C1964 C1965 1.369 . S
C1964 C1966 1.419 . S
C1964 H1968 0.930 . S
C1965 C1964 1.369 . S
C1965 C1974 1.429 . S
C1966 C1964 1.419 . S
C1966 C1967 1.363 . S
C1966 H1969 0.929 . S
C1967 C1966 1.363 . S
C1967 C1973 1.428 . S
H1968 C1964 0.930 . S
H1969 C1966 0.929 . S
S1970 N1971 1.613 . S
S1970 N1972 1.610 . S
N1971 S1970 1.613 . S
N1971 C1974 1.350 . S
N1972 S1970 1.610 . S
N1972 C1973 1.351 . S
C1973 C1967 1.428 . S
C1973 N1972 1.351 . S
C1973 C1974 1.434 . S
C1974 C1965 1.429 . S
C1974 N1971 1.350 . S
C1974 C1973 1.434 . S
C1975 C1976 1.369 . S
C1975 C1977 1.419 . S
C1975 H1979 0.930 . S
C1976 C1975 1.369 . S
C1976 C1985 1.429 . S
C1977 C1975 1.419 . S
C1977 C1978 1.363 . S
C1977 H1980 0.929 . S
C1978 C1977 1.363 . S
C1978 C1984 1.428 . S
H1979 C1975 0.930 . S
H1980 C1977 0.929 . S
S1981 N1982 1.613 . S
S1981 N1983 1.610 . S
N1982 S1981 1.613 . S
N1982 C1985 1.350 . S
N1983 S1981 1.610 . S
N1983 C1984 1.351 . S
C1984 C1978 1.428 . S
C1984 N1983 1.351 . S
C1984 C1985 1.434 . S
C1985 C1976 1.429 . S
C1985 N1982 1.350 . S
C1985 C1984 1.434 . S
C1986 C1987 1.369 . S
C1986 C1988 1.419 . S
C1986 H1990 0.930 . S
C1987 C1986 1.369 . S
C1987 C1996 1.429 . S
C1988 C1986 1.419 . S
C1988 C1989 1.363 . S
C1988 H1991 0.929 . S
C1989 C1988 1.363 . S
C1989 C1995 1.428 . S
H1990 C1986 0.930 . S
H1991 C1988 0.929 . S
S1992 N1993 1.613 . S
S1992 N1994 1.610 . S
N1993 S1992 1.613 . S
N1993 C1996 1.350 . S
N1994 S1992 1.610 . S
N1994 C1995 1.351 . S
C1995 C1989 1.428 . S
C1995 N1994 1.351 . S
C1995 C1996 1.434 . S
C1996 C1987 1.429 . S
C1996 N1993 1.350 . S
C1996 C1995 1.434 . S
C1997 C1998 1.369 . S
C1997 C1999 1.419 . S
C1997 H2001 0.930 . S
C1998 C1997 1.369 . S
C1998 C2007 1.429 . S
C1999 C1997 1.419 . S
C1999 C2000 1.363 . S
C1999 H2002 0.929 . S
C2000 C1999 1.363 . S
C2000 C2006 1.428 . S
H2001 C1997 0.930 . S
H2002 C1999 0.929 . S
S2003 N2004 1.613 . S
S2003 N2005 1.610 . S
N2004 S2003 1.613 . S
N2004 C2007 1.350 . S
N2005 S2003 1.610 . S
N2005 C2006 1.351 . S
C2006 C2000 1.428 . S
C2006 N2005 1.351 . S
C2006 C2007 1.434 . S
C2007 C1998 1.429 . S
C2007 N2004 1.350 . S
C2007 C2006 1.434 . S
C953 C101 1.447 . S
C955 C318 1.372 . S
C964 C57 2.049 . S
C966 C370 2.061 . S
C975 C73 1.398 . S
C977 C402 1.455 1_565 S
C988 C451 2.588 . S
C986 C78 2.528 . S
C997 C21 1.345 . S
C999 C487 1.549 . S
C1010 C518 0.636 . S
C1008 C31 0.655 . S
C1021 C570 0.929 . S
C1019 C49 0.853 . S
C1030 C0 2.519 . S
C1032 C598 2.303 . S
C1043 C330 2.071 . S
C1041 C218 2.222 . S
C1052 C229 1.659 . S
C1054 C371 1.833 . S
C1065 C401 1.922 . S
C1063 C257 2.004 1_545 S
C1076 C438 0.933 . S
C1074 C164 1.012 . S
C1085 C216 1.769 . S
C1087 C482 1.877 . S
C1098 C530 2.065 . S
C1096 C231 1.974 . S
C1109 C571 1.830 1_556 S
C1107 C255 1.665 . S
C1120 C610 1.811 . S
C1118 C166 1.904 . S
C1131 C331 2.304 . S
C1129 C143 2.269 . S
C1140 C265 1.700 1_554 S
C1142 C641 1.838 . S
C1153 C691 2.431 . S
C1151 C299 2.370 . S
C1164 C718 1.021 . S
C1162 C291 1.013 . S
C1173 C104 2.576 . S
C1175 C611 2.544 . S
C1184 C117 1.651 . S
C1186 C407 1.804 . S
C1195 C304 2.454 . S
C1197 C770 2.435 . S
C1208 C798 1.341 . S
C1206 C278 1.513 . S
C1219 C327 1.525 . S
C1217 C60 1.686 . S
C1230 C801 2.019 . S
C1228 C96 2.026 1_655 S
C1239 C88 1.428 . S
C1241 C411 1.441 . S
C1250 C65 2.341 . S
C1252 C762 2.473 . S
C1263 C478 1.442 . S
C1261 C10 1.487 . S
C1272 C44 0.895 . S
C1274 C687 0.843 . S
C1285 C561 0.610 . S
C1283 C34 0.679 . S
C1296 C847 2.658 . S
C1294 C13 3.062 . S
C1307 C321 2.009 1_556 S
C1305 C138 2.179 . S
C1318 C802 1.856 . S
C1316 C296 1.818 . S
C1327 C112 1.818 . S
C1329 C410 1.930 . S
C1338 C270 0.745 . S
C1340 C767 0.721 . S
C1349 C140 1.808 . S
C1351 C491 1.790 . S
C1362 C681 2.048 . S
C1360 C294 1.807 . S
C1371 C114 1.907 . S
C1373 C562 1.928 . S
C1382 C268 2.249 . S
C1384 C841 2.000 . S
C1393 C169 2.279 . S
C1395 C322 2.256 1_655 S
C1404 C161 1.920 . S
C1406 C650 1.987 . S
C1415 C234 2.294 . S
C1417 C522 2.299 . S
C1426 C226 0.928 . S
C1428 C727 0.946 . S
C1439 C842 2.614 . S
C1437 C247 2.727 . S
C1448 C195 2.029 . S
C1450 C398 1.776 . S
C1461 C441 2.389 . S
C1459 C239 2.421 . S
C1472 C367 1.337 . S
C1470 C187 1.495 . S
C1481 C75 1.403 . S
C1483 C878 1.325 . S
C1494 C810 2.106 . S
C1492 C83 2.135 . S
C1503 C99 1.477 . S
C1505 C922 1.549 . S
C1514 C52 2.524 1_655 S
C1516 C771 2.587 . S
C1525 C47 1.358 . S
C1527 C647 1.559 . S
C1538 C678 0.914 . S
C1536 C5 0.949 . S
C1549 C730 1.033 . S
C1547 C23 0.901 . S
C1560 C838 1.407 . S
C1558 C26 1.535 . S
C1571 C890 1.970 . S
C1569 C244 2.119 . S
C1580 C177 1.777 1_556 S
C1582 C811 1.961 . S
C1593 C921 1.998 . S
C1591 C192 2.027 . S
C1604 C758 0.726 . S
C1602 C203 0.722 . S
C1615 C642 1.993 1_556 S
C1613 C242 1.893 . S
C1624 C179 2.082 . S
C1626 C690 2.125 . S
C1637 C731 1.916 . S
C1635 C190 1.751 . S
C1646 C205 1.728 . S
C1648 C850 1.617 . S
C1659 C891 2.269 . S
C1657 C286 2.238 . S
C1668 C122 1.947 . S
C1670 C481 2.181 . S
C1681 C531 2.425 . S
C1679 C130 2.361 . S
C1692 C558 1.102 1_565 S
C1690 C148 1.108 . S
C1703 C851 2.485 . S
C1701 C273 2.516 . S
C1712 C260 1.325 . S
C1714 C927 1.429 . S
C1725 C450 2.523 . S
C1723 C135 2.520 . S
C1736 C358 1.377 . S
C1734 C109 1.538 . S
C1745 C86 1.680 . S
C1747 C887 1.502 . S
C1758 C361 2.059 . S
C1756 C70 2.098 . S
C1767 C62 1.465 . S
C1769 C931 1.482 . S
C1778 C91 2.339 . S
C1780 C442 2.474 . S
C1789 C36 1.334 . S
C1791 C638 1.270 . S
C1802 C527 0.825 . S
C1800 C18 0.879 . S
C1811 C8 0.768 . S
C1813 C721 0.832 . S
C1822 C39 2.789 . S
C1824 C607 2.433 . S
C1835 C881 1.956 . S
C1833 C307 2.140 . S
C1844 C153 1.864 . S
C1846 C362 1.897 . S
C1857 C930 2.040 1_556 S
C1855 C281 1.903 . S
C1866 C127 0.847 . S
C1868 C447 0.815 . S
C1877 C309 1.903 . S
C1879 C651 1.911 . S
C1890 C521 2.157 . S
C1888 C151 1.983 1_556 S
C1899 C283 1.854 . S
C1901 C722 1.880 . S
C1912 C601 1.907 . S
C1910 C125 2.222 . S
C1923 C882 2.250 . S
C1921 C221 2.269 . S
C1934 C490 2.091 1_655 S
C1932 C200 2.010 . S
C1943 C208 2.299 . S
C1945 C682 2.291 . S
C1956 C567 1.007 . S
C1954 C174 1.002 . S
C1965 C182 2.757 . S
C1967 C602 2.601 . S
C1976 C156 1.936 . S
C1978 C918 1.679 . S
C1989 C761 2.439 . S
C1987 C213 2.452 1_565 S
C2000 C807 1.236 . S
C1998 C252 1.381 . S
