# Generated by pormake.
# Topology pth, (4,4)-cn, num edge types: 1
# Building blocks:
#     Node 0, Type 0, BuildingBlock: CEKHIL_clean_sbu_0, # of connection points: 4
#     Node 1, Type 0, BuildingBlock: CEKHIL_clean_sbu_0, # of connection points: 4
#     Node 2, Type 0, BuildingBlock: CEKHIL_clean_sbu_0, # of connection points: 4
#     Node 3, Type 1, BuildingBlock: NAWXER_clean_sbu_0, # of connection points: 4
#     Node 4, Type 1, BuildingBlock: NAWXER_clean_sbu_0, # of connection points: 4
#     Node 5, Type 1, BuildingBlock: NAWXER_clean_sbu_0, # of connection points: 4
#     Edge 6, Type (0, 1), BuildingBlock: FUNLAD_clean_linker_1, # of connection points: 2
#     Edge 7, Type (0, 1), BuildingBlock: FUNLAD_clean_linker_1, # of connection points: 2
#     Edge 8, Type (0, 1), BuildingBlock: FUNLAD_clean_linker_1, # of connection points: 2
#     Edge 9, Type (0, 1), BuildingBlock: FUNLAD_clean_linker_1, # of connection points: 2
#     Edge 10, Type (0, 1), BuildingBlock: FUNLAD_clean_linker_1, # of connection points: 2
#     Edge 11, Type (0, 1), BuildingBlock: FUNLAD_clean_linker_1, # of connection points: 2
#     Edge 12, Type (0, 1), BuildingBlock: FUNLAD_clean_linker_1, # of connection points: 2
#     Edge 13, Type (0, 1), BuildingBlock: FUNLAD_clean_linker_1, # of connection points: 2
#     Edge 14, Type (0, 1), BuildingBlock: FUNLAD_clean_linker_1, # of connection points: 2
#     Edge 15, Type (0, 1), BuildingBlock: FUNLAD_clean_linker_1, # of connection points: 2
#     Edge 16, Type (0, 1), BuildingBlock: FUNLAD_clean_linker_1, # of connection points: 2
#     Edge 17, Type (0, 1), BuildingBlock: FUNLAD_clean_linker_1, # of connection points: 2
# Relax obj value: 0.003
# Max RMSD: 0.042
# Mean RMSD: 0.026
data_MOF--net-pth--node1-CEKHIL_clean_sbu_0--node2-NAWXER_clean_sbu_0--edge1-FUNLAD_clean_linker_1
_symmetry_space_group_name_H-M    P1
_symmetry_Int_Tables_number       1
_symmetry_cell_setting            triclinic
loop_
_symmetry_equiv_pos_as_xyz
'x, y, z'
_cell_length_a     23.436397
_cell_length_b     23.650356
_cell_length_c     59.644177
_cell_angle_alpha  91.209349
_cell_angle_beta   89.992761
_cell_angle_gamma 120.13125
loop_
_atom_site_label
_atom_site_type_symbol
_atom_site_fract_x
_atom_site_fract_y
_atom_site_fract_z
_atom_type_partial_charge
Co0 Co 0.02814 0.04615 0.09123 0.0
O1 O 0.98665 0.98116 0.1139 0.0
O2 O 0.07053 0.99344 0.09342 0.0
C3 C 0.03602 0.12974 0.11298 0.0
O4 O 0.08553 0.10921 0.06685 0.0
Co5 Co 0.96268 0.12104 0.07251 0.0
O6 O 0.05241 0.18214 0.06133 0.0
C7 C 0.9163 0.98493 0.05659 0.0
C8 C 0.02938 0.96317 0.10947 0.0
C9 C 0.09369 0.16264 0.05851 0.0
O10 O 0.96313 0.98407 0.06766 0.0
O11 O 0.90541 0.03285 0.05759 0.0
O12 O 0.08013 0.11214 0.11435 0.0
O13 O 0.98669 0.09431 0.09965 0.0
Co14 Co 0.05443 0.0778 0.4035 0.0
O15 O 0.01124 0.09323 0.3788 0.0
O16 O 0.09046 0.17136 0.39977 0.0
C17 C 0.0691 1.00292 0.38391 0.0
O18 O 0.11398 0.08202 0.42951 0.0
Co19 Co 0.99985 0.94382 0.425 0.0
O20 O 0.09114 0.98015 0.43682 0.0
C21 C 0.94218 0.02657 0.43721 0.0
C22 C 0.05044 0.15517 0.38264 0.0
C23 C 0.12795 0.04189 0.43896 0.0
O24 O 0.9857 0.07311 0.42527 0.0
O25 O 0.93745 0.97031 0.43829 0.0
O26 O 0.11058 0.065 0.38226 0.0
O27 O 0.01888 0.98767 0.39659 0.0
Co28 Co 0.037 0.04148 0.74313 0.0
O29 O 0.10401 0.07741 0.72032 0.0
O30 O 0.08917 0.99859 0.74308 0.0
C31 C 0.95418 0.03192 0.72074 0.0
O32 O 0.97124 0.98775 0.76751 0.0
Co33 Co 0.9637 0.11065 0.76055 0.0
O34 O 0.90288 0.02638 0.77477 0.0
C35 C 0.10074 0.15882 0.77576 0.0
C36 C 0.12131 0.03582 0.72652 0.0
C37 C 0.91981 0.98336 0.77703 0.0
O38 O 0.09958 0.10901 0.76606 0.0
O39 O 0.05344 0.17086 0.77411 0.0
O40 O 0.97124 0.98748 0.72027 0.0
O41 O 0.98988 0.08253 0.73356 0.0
C42 C 0.98881 0.62127 0.27239 0.0
C43 C 0.97903 0.45997 0.21696 0.0
O44 O 0.04583 0.62899 0.26784 0.0
Zn45 Zn 0.08651 0.58308 0.24646 0.0
O46 O 0.93769 0.57535 0.26269 0.0
Zn47 Zn 0.98218 0.54051 0.24463 0.0
O48 O 0.0172 0.50281 0.27033 0.0
O49 O 0.12562 0.5506 0.26816 0.0
O50 O 0.93125 0.46473 0.22487 0.0
O51 O 0.03803 0.50076 0.22358 0.0
O52 O 0.14169 0.65415 0.22652 0.0
O53 O 0.03554 0.61806 0.22157 0.0
C54 C 0.07201 0.50985 0.27743 0.0
C55 C 0.09571 0.6573 0.21635 0.0
C56 C 0.64193 0.09908 0.61181 0.0
C57 C 0.49736 0.102 0.55264 0.0
O58 O 0.59649 0.04152 0.6056 0.0
Zn59 Zn 0.51485 0.99868 0.58197 0.0
O60 O 0.64451 0.14865 0.60291 0.0
Zn61 Zn 0.57016 0.10216 0.58232 0.0
O62 O 0.48713 0.0607 0.60488 0.0
O63 O 0.43835 0.95331 0.60088 0.0
O64 O 0.5478 0.15089 0.56149 0.0
O65 O 0.4805 0.04414 0.55883 0.0
O66 O 0.53961 0.94849 0.56209 0.0
O67 O 0.60542 0.05494 0.55947 0.0
C68 C 0.4411 1.00344 0.6102 0.0
C69 C 0.58934 0.99644 0.55334 0.0
C70 C 0.44783 0.48739 0.94753 0.0
C71 C 0.57818 0.6404 0.88872 0.0
O72 O 0.43699 0.52908 0.93828 0.0
Zn73 Zn 0.50994 0.56201 0.91732 0.0
O74 O 0.49561 0.4799 0.9408 0.0
Zn75 Zn 0.57004 0.51899 0.91517 0.0
O76 O 0.64941 0.5512 0.93328 0.0
O77 O 0.59639 0.60526 0.93929 0.0
O78 O 0.59832 0.60045 0.89328 0.0
O79 O 0.52773 0.63515 0.89858 0.0
O80 O 0.47512 0.48206 0.89346 0.0
O81 O 0.54426 0.44478 0.89452 0.0
C82 C 0.64515 0.59654 0.94358 0.0
C83 C 0.49245 0.44134 0.88645 0.0
H84 H 0.08628 0.21475 0.13635 0.0
C85 C 0.04111 0.18492 0.12672 0.0
H86 H 0.94432 0.16566 0.12001 0.0
H87 H 0.95189 0.29653 0.21646 0.0
H88 H 0.8954 0.18252 0.2264 0.0
H89 H 0.88265 0.09714 0.19905 0.0
H90 H 0.9272 0.12555 0.1616 0.0
C91 C 0.99082 0.1967 0.12877 0.0
C92 C 0.99498 0.24829 0.14468 0.0
C93 C 0.96665 0.23089 0.16624 0.0
C94 C 0.97257 0.28012 0.18184 0.0
C95 C 0.94703 0.26131 0.20366 0.0
C96 C 0.91482 0.19593 0.20967 0.0
C97 C 0.90773 0.14787 0.19428 0.0
C98 C 0.93346 0.16485 0.17283 0.0
H99 H 0.91615 0.37326 0.19514 0.0
C100 C 0.96668 0.40714 0.20044 0.0
H101 H 0.06688 0.43441 0.19698 0.0
H102 H 0.05173 0.29777 0.10441 0.0
H103 H 0.10657 0.41171 0.09398 0.0
H104 H 0.11505 0.4969 0.12063 0.0
H105 H 0.06891 0.46883 0.15787 0.0
C106 C 0.01611 0.39953 0.19224 0.0
C107 C 1.00519 0.34671 0.17561 0.0
C108 C 0.0323 0.3638 0.15384 0.0
C109 C 0.02725 0.31463 0.1384 0.0
C110 C 0.05456 0.33321 0.11679 0.0
C111 C 0.08601 0.3984 0.11058 0.0
C112 C 0.09082 0.44637 0.12559 0.0
C113 C 0.06431 0.42959 0.14696 0.0
H114 H 0.90259 0.0881 0.45067 0.0
C115 C 0.8971 0.03971 0.45102 0.0
H116 H 0.84451 0.94537 0.46465 0.0
H117 H 0.78772 0.10101 0.54613 0.0
H118 H 0.90475 0.15239 0.55423 0.0
H119 H 0.97883 0.13768 0.52845 0.0
H120 H 0.93633 0.0716 0.4944 0.0
C121 C 0.85166 0.99443 0.46454 0.0
C122 C 0.80809 0.00784 0.47935 0.0
C123 C 0.83374 0.04694 0.4992 0.0
C124 C 0.79081 0.05518 0.51415 0.0
C125 C 0.81788 0.09361 0.53402 0.0
C126 C 0.88504 0.12322 0.53896 0.0
C127 C 0.92674 0.11493 0.52445 0.0
C128 C 0.90166 0.07705 0.50487 0.0
H129 H 0.61852 0.93499 0.53343 0.0
C130 C 0.62918 0.98484 0.5365 0.0
H131 H 0.68955 0.08408 0.52852 0.0
H132 H 0.74293 0.92997 0.44289 0.0
H133 H 0.62612 0.88027 0.43426 0.0
H134 H 0.55249 0.89798 0.45931 0.0
H135 H 0.59486 0.96462 0.49325 0.0
C136 C 0.67806 0.03409 0.52516 0.0
C137 C 0.72209 0.0241 0.50935 0.0
C138 C 0.69671 0.98613 0.48923 0.0
C139 C 0.73957 0.97724 0.47445 0.0
C140 C 0.71268 0.93834 0.45468 0.0
C141 C 0.64576 0.90974 0.44947 0.0
C142 C 0.60429 0.91962 0.46359 0.0
C143 C 0.62923 0.9576 0.48317 0.0
H144 H 0.89679 0.89205 0.79415 0.0
C145 C 0.87996 0.92671 0.79156 0.0
H146 H 0.80805 0.95245 0.79963 0.0
H147 H 0.64984 0.63838 0.82632 0.0
H148 H 0.65581 0.61516 0.78688 0.0
H149 H 0.71948 0.70443 0.76078 0.0
H150 H 0.77804 0.81734 0.77395 0.0
C151 C 0.82429 0.91712 0.80163 0.0
C152 C 0.78583 0.8621 0.81725 0.0
C153 C 0.75115 0.79616 0.80922 0.0
C154 C 0.71334 0.74459 0.82424 0.0
C155 C 0.67939 0.67936 0.81572 0.0
C156 C 0.68218 0.66533 0.79309 0.0
C157 C 0.71809 0.71558 0.7784 0.0
C158 C 0.75194 0.78028 0.78624 0.0
H159 H 0.59599 0.72654 0.86929 0.0
C160 C 0.61462 0.69372 0.87269 0.0
H161 H 0.68906 0.67055 0.86578 0.0
H162 H 0.84517 0.98252 0.83825 0.0
H163 H 0.83825 0.00568 0.87761 0.0
H164 H 0.77368 0.91647 0.9036 0.0
H165 H 0.71578 0.80358 0.89047 0.0
C166 C 0.67086 0.70399 0.86292 0.0
C167 C 0.70889 0.75879 0.84721 0.0
C168 C 0.74338 0.82472 0.85523 0.0
C169 C 0.78132 0.87628 0.84022 0.0
C170 C 0.81529 0.9415 0.84879 0.0
C171 C 0.81201 0.95552 0.87139 0.0
C172 C 0.77568 0.90529 0.88603 0.0
C173 C 0.74214 0.8406 0.87819 0.0
H174 H 0.99361 0.88991 0.13585 0.0
C175 C 0.03196 0.91339 0.12342 0.0
H176 H 0.11981 0.92187 0.11044 0.0
H177 H 0.0954 0.80887 0.21407 0.0
H178 H 0.12062 0.9175 0.22627 0.0
H179 H 0.13201 0.99898 0.19881 0.0
H180 H 0.11715 0.97197 0.15899 0.0
C181 C 0.08117 0.89969 0.12282 0.0
C182 C 0.08364 0.85367 0.1392 0.0
C183 C 0.0952 0.871 0.16239 0.0
C184 C 0.09087 0.82463 0.17821 0.0
C185 C 0.09948 0.84245 0.2013 0.0
C186 C 0.11391 0.90467 0.20855 0.0
C187 C 0.12016 0.9505 0.19309 0.0
C188 C 0.11107 0.93419 0.17028 0.0
H189 H 0.16262 0.7435 0.19628 0.0
C190 C 0.11128 0.7073 0.1991 0.0
H191 H 0.01203 0.67273 0.18967 0.0
H192 H 0.06487 0.80643 0.09601 0.0
H193 H 0.04432 0.69924 0.08366 0.0
H194 H 0.03907 0.61985 0.11095 0.0
H195 H 0.05425 0.64706 0.15082 0.0
C196 C 0.06336 0.70982 0.1874 0.0
C197 C 0.07694 0.76151 0.1708 0.0
C198 C 0.0689 0.74547 0.14753 0.0
C199 C 0.0724 0.79154 0.13173 0.0
C200 C 0.06305 0.7735 0.10867 0.0
C201 C 0.0512 0.71214 0.10137 0.0
C202 C 0.04818 0.6674 0.11674 0.0
C203 C 0.05681 0.68356 0.13957 0.0
H204 H 0.19194 0.10787 0.46632 0.0
C205 C 0.18377 0.0675 0.45518 0.0
H206 H 0.21142 0.99888 0.44578 0.0
H207 H 0.43072 0.2011 0.52519 0.0
H208 H 0.44904 0.29221 0.50242 0.0
H209 H 0.38841 0.27371 0.46671 0.0
H210 H 0.30687 0.16422 0.45414 0.0
C211 C 0.2204 0.03855 0.45744 0.0
C212 C 0.26583 0.05102 0.47706 0.0
C213 C 0.31781 0.11487 0.48308 0.0
C214 C 0.35764 0.12503 0.50257 0.0
C215 C 0.40305 0.19001 0.50965 0.0
C216 C 0.41348 0.2429 0.49686 0.0
C217 C 0.37901 0.23253 0.47684 0.0
C218 C 0.33172 0.1694 0.46995 0.0
H219 H 0.48655 0.13867 0.52002 0.0
C220 C 0.45973 0.1103 0.53438 0.0
H221 H 0.36866 0.05159 0.5495 0.0
H222 H 0.16802 0.92231 0.47188 0.0
H223 H 0.15809 0.83053 0.49207 0.0
H224 H 0.23804 0.84628 0.52184 0.0
H225 H 0.32718 0.9541 0.53198 0.0
C226 C 0.39329 0.07879 0.53465 0.0
C227 C 0.35079 0.07066 0.51458 0.0
C228 C 0.30096 0.00651 0.50783 0.0
C229 C 0.25716 0.99698 0.48969 0.0
C230 C 0.20484 0.93264 0.48469 0.0
C231 C 0.19811 0.87921 0.49628 0.0
C232 C 0.2429 0.88811 0.51309 0.0
C233 C 0.29373 0.95069 0.51885 0.0
H234 H 0.1585 0.2483 0.79653 0.0
C235 C 0.15816 0.20491 0.78993 0.0
H236 H 0.20755 0.15075 0.7902 0.0
H237 H 0.43445 0.45349 0.82498 0.0
H238 H 0.43237 0.4835 0.78645 0.0
H239 H 0.35343 0.40297 0.75887 0.0
H240 H 0.27578 0.29201 0.76967 0.0
C241 C 0.208 0.19507 0.79569 0.0
C242 C 0.2615 0.24174 0.8115 0.0
C243 C 0.3074 0.30616 0.80487 0.0
C244 C 0.35356 0.35244 0.82074 0.0
C245 C 0.3982 0.41654 0.81366 0.0
C246 C 0.39771 0.43434 0.79157 0.0
C247 C 0.35323 0.389 0.77605 0.0
C248 C 0.30863 0.32558 0.78251 0.0
H249 H 0.46646 0.35479 0.86435 0.0
C250 C 0.45173 0.39 0.86939 0.0
H251 H 0.38295 0.42172 0.86476 0.0
H252 H 0.18498 0.12106 0.82927 0.0
H253 H 0.18885 0.09029 0.86754 0.0
H254 H 0.26784 0.17069 0.89512 0.0
H255 H 0.34372 0.2822 0.88461 0.0
C256 C 0.39685 0.3855 0.86032 0.0
C257 C 0.35467 0.33424 0.84317 0.0
C258 C 0.31091 0.26894 0.84954 0.0
C259 C 0.26471 0.22261 0.83365 0.0
C260 C 0.22101 0.15813 0.8406 0.0
C261 C 0.22263 0.13983 0.86253 0.0
C262 C 0.26715 0.18509 0.87806 0.0
C263 C 0.31066 0.24897 0.87177 0.0
H264 H 0.87157 0.98127 0.69645 0.0
C265 C 0.90057 0.02652 0.70608 0.0
H266 H 0.92023 0.12303 0.71197 0.0
H267 H 0.80907 0.13397 0.61586 0.0
H268 H 0.92647 0.2029 0.61056 0.0
H269 H 1.00593 0.21414 0.63988 0.0
H270 H 0.96825 0.15544 0.67456 0.0
C271 C 0.8894 0.0765 0.70325 0.0
C272 C 0.84036 0.07263 0.6863 0.0
C273 C 0.86281 0.10928 0.66645 0.0
C274 C 0.81672 0.10446 0.64981 0.0
C275 C 0.84125 0.13805 0.62952 0.0
C276 C 0.90877 0.17737 0.62614 0.0
C277 C 0.9535 0.18357 0.64262 0.0
C278 C 0.93114 0.14973 0.66249 0.0
H279 H 0.72444 0.15681 0.63578 0.0
C280 C 0.69161 0.10784 0.62903 0.0
H281 H 0.66508 0.00846 0.62937 0.0
H282 H 0.78035 0.99916 0.72295 0.0
H283 H 0.66272 0.93094 0.72861 0.0
H284 H 0.58274 0.9238 0.70021 0.0
H285 H 0.61979 0.98483 0.66599 0.0
C286 C 0.69842 0.05754 0.63593 0.0
C287 C 0.7478 0.06495 0.65343 0.0
C288 C 0.72545 0.02887 0.67344 0.0
C289 C 0.77164 0.03275 0.68985 0.0
C290 C 0.74761 0.99708 0.70977 0.0
C291 C 0.68015 0.95799 0.7133 0.0
C292 C 0.63512 0.95398 0.69731 0.0
C293 C 0.65716 0.98911 0.67767 0.0
H294 H 0.83283 0.93193 0.03298 0.0
C295 C 0.87336 0.92995 0.04107 0.0
H296 H 0.92322 0.87649 0.04341 0.0
H297 H 0.67219 0.61546 1.00514 0.0
H298 H 0.6786 0.58556 0.04332 0.0
H299 H 0.75928 0.66659 0.07038 0.0
H300 H 0.83397 0.77822 0.05946 0.0
C301 C 0.88382 0.88052 0.0354 0.0
C302 C 0.84061 0.82956 0.01827 0.0
C303 C 0.79833 0.76408 0.02472 0.0
C304 C 0.75203 0.71709 1.00902 0.0
C305 C 0.70883 0.6528 0.01623 0.0
C306 C 0.71186 0.63503 0.03813 0.0
C307 C 0.75728 0.68068 0.05338 0.0
C308 C 0.79991 0.74457 0.04688 0.0
H309 H 0.73684 0.63037 0.96363 0.0
C310 C 0.69655 0.63938 0.96026 0.0
H311 H 0.65632 0.70015 0.96715 0.0
H312 H 0.92305 0.94692 0.99902 0.0
H313 H 0.91891 0.97588 0.96054 0.0
H314 H 0.83697 0.8954 0.93368 0.0
H315 H 0.75866 0.78534 0.9451 0.0
C316 C 0.69514 0.68937 0.97097 0.0
C317 C 0.74858 0.73545 0.98678 0.0
C318 C 0.79324 0.79998 0.98001 0.0
C319 C 0.83979 0.84679 0.99564 0.0
C320 C 0.88524 0.9101 0.9881 0.0
C321 C 0.88378 0.92723 0.96599 0.0
C322 C 0.83764 0.88191 0.95086 0.0
C323 C 0.79287 0.81895 0.95766 0.0
H324 H 0.11966 0.97028 0.36014 0.0
C325 C 0.07471 0.95409 0.36964 0.0
H326 H 0.97747 0.8772 0.37482 0.0
H327 H 0.96573 0.76121 0.27645 0.0
H328 H 0.90166 0.8143 0.27095 0.0
H329 H 0.89267 0.88234 0.30108 0.0
H330 H 0.94884 0.89856 0.33679 0.0
C331 C 0.02397 0.89277 0.36639 0.0
C332 C 0.02627 0.84783 0.34891 0.0
C333 C 0.99096 0.83648 0.32842 0.0
C334 C 0.99422 0.79522 0.31131 0.0
C335 C 0.9624 0.78907 0.29046 0.0
C336 C 0.92595 0.81997 0.28696 0.0
C337 C 0.92103 0.85841 0.3039 0.0
C338 C 0.95339 0.86712 0.32435 0.0
H339 H 0.93334 0.65184 0.29484 0.0
C340 C 0.98241 0.66486 0.28915 0.0
H341 H 0.0844 0.73228 0.29183 0.0
H342 H 0.09759 0.85715 0.38645 0.0
H343 H 0.1603 0.80253 0.39246 0.0
H344 H 0.16352 0.72844 0.36341 0.0
H345 H 0.10428 0.70856 0.32818 0.0
C346 C 0.0353 0.71981 0.29731 0.0
C347 C 0.03046 0.76281 0.3151 0.0
C348 C 0.06526 0.7738 0.33573 0.0
C349 C 0.06332 0.81644 0.35258 0.0
C350 C 0.09803 0.8259 0.37302 0.0
C351 C 0.134 0.79464 0.37674 0.0
C352 C 0.13582 0.75294 0.36037 0.0
C353 C 0.10177 0.74222 0.34015 0.0
H354 H 0.20483 0.01708 0.72493 0.0
C355 C 0.17468 0.03067 0.71513 0.0
H356 H 0.15313 0.05304 0.68351 0.0
H357 H 0.40984 0.15077 0.6298 0.0
H358 H 0.39352 0.24383 0.63015 0.0
H359 H 0.30956 0.24674 0.65426 0.0
H360 H 0.24046 0.15593 0.67779 0.0
C361 C 0.18474 0.04048 0.69295 0.0
C362 C 0.24059 0.04031 0.68063 0.0
C363 C 0.28311 0.09531 0.6677 0.0
C364 C 0.33375 0.09493 0.65456 0.0
C365 C 0.37233 0.14905 0.64079 0.0
C366 C 0.36329 0.20289 0.6407 0.0
C367 C 0.3159 0.20444 0.6542 0.0
C368 C 0.27622 0.15157 0.66756 0.0
H369 H 0.34087 0.95188 0.62441 0.0
C370 C 0.38895 0.9959 0.62595 0.0
H371 H 0.4476 0.08604 0.64279 0.0
H372 H 0.16142 0.9209 0.69955 0.0
H373 H 0.18459 0.83244 0.70229 0.0
H374 H 0.28437 0.84068 0.68531 0.0
H375 H 0.35987 0.93628 0.66461 0.0
C376 C 0.39905 0.04252 0.64142 0.0
C377 C 0.34464 0.04103 0.65519 0.0
C378 C 0.30428 0.98741 0.66901 0.0
C379 C 0.25013 0.98544 0.6807 0.0
C380 C 0.20612 0.92758 0.69192 0.0
C381 C 0.21839 0.87593 0.69339 0.0
C382 C 0.2743 0.88037 0.6837 0.0
C383 C 0.31689 0.93529 0.67164 0.0
H384 H 0.15912 0.17016 0.03067 0.0
C385 C 0.14796 0.19858 0.04256 0.0
H386 H 0.16697 0.29104 0.05372 0.0
H387 H 0.38416 0.33004 0.97154 0.0
H388 H 0.41106 0.25922 0.99215 0.0
H389 H 0.3571 0.21296 0.02803 0.0
H390 H 0.27343 0.23451 0.04282 0.0
C391 C 0.17887 0.26431 0.04132 0.0
C392 C 0.22188 0.30196 0.0221 0.0
C393 C 0.27583 0.29465 0.01501 0.0
C394 C 0.31233 0.32737 0.99563 0.0
C395 C 0.35915 0.31145 0.98719 0.0
C396 C 0.37449 0.27011 0.99872 0.0
C397 C 0.34374 0.24365 0.01882 0.0
C398 C 0.29507 0.25571 0.02697 0.0
H399 H 0.43448 0.44823 0.98153 0.0
C400 C 0.40823 0.44945 0.96671 0.0
H401 H 0.31666 0.41403 0.95052 0.0
H402 H 0.11966 0.32554 0.02965 0.0
H403 H 0.10136 0.40545 1.01158 0.0
H404 H 0.17531 0.47423 0.9819 0.0
H405 H 0.26711 0.46221 0.96976 0.0
C406 C 0.34198 0.41318 0.96567 0.0
C407 C 0.30096 0.37427 0.98504 0.0
C408 C 0.24905 0.38386 0.99278 0.0
C409 C 0.20836 0.3464 1.01075 0.0
C410 C 0.15422 0.35434 0.01689 0.0
C411 C 0.14266 0.39988 1.00651 0.0
C412 C 0.18413 0.43842 0.98976 0.0
C413 C 0.23662 0.4307 0.98288 0.0
H414 H 0.03243 0.18396 0.34988 0.0
C415 C 0.053 0.20301 0.3665 0.0
H416 H 0.10067 0.28647 0.38764 0.0
H417 H 0.22607 0.50437 0.31539 0.0
H418 H 0.31954 0.52554 0.33876 0.0
H419 H 0.30821 0.44959 0.36839 0.0
H420 H 0.20322 0.35281 0.37519 0.0
C421 C 0.07973 0.26746 0.37107 0.0
C422 C 0.08587 0.31453 0.35331 0.0
C423 C 0.14841 0.37016 0.34901 0.0
C424 C 0.1556 0.41298 0.33132 0.0
C425 C 0.21803 0.46939 0.32816 0.0
C426 C 0.27219 0.48229 0.3415 0.0
C427 C 0.26577 0.43959 0.35821 0.0
C428 C 0.2049 0.38415 0.36197 0.0
H429 H 0.03152 0.45849 0.30883 0.0
C430 C 0.07058 0.47103 0.29675 0.0
H431 H 0.14788 0.45595 0.28639 0.0
H432 H 0.95535 0.22526 0.36037 0.0
H433 H 0.86401 0.19753 0.33488 0.0
H434 H 0.88154 0.25679 0.29967 0.0
H435 H 0.98951 0.34638 0.29049 0.0
C436 C 0.10932 0.44438 0.29859 0.0
C437 C 0.10105 0.39899 0.31721 0.0
C438 C 0.03902 0.34209 0.32105 0.0
C439 C 0.03047 0.30286 0.33998 0.0
C440 C 0.9659 0.25264 0.34515 0.0
C441 C 0.91281 0.23677 0.33081 0.0
C442 C 0.92256 0.27045 0.3111 0.0
C443 C 0.98476 0.32246 0.30618 0.0
loop_
_geom_bond_atom_site_label_1
_geom_bond_atom_site_label_2
_geom_bond_distance
_geom_bond_site_symmetry_2
_ccdc_geom_bond_type
Co0 O1 2.216 1_445 S
Co0 O2 2.091 1_545 S
Co0 O4 2.004 . S
Co0 O10 2.021 1_445 S
Co0 O12 2.137 . S
Co0 O13 2.244 1_455 S
O1 Co0 2.216 1_665 S
O1 C8 1.247 1_655 S
O2 Co0 2.091 1_565 S
O2 C8 1.261 . S
C3 O12 1.247 . S
C3 O13 1.272 1_455 S
O4 Co0 2.004 . S
O4 C9 1.259 . S
Co5 O6 2.061 1_655 S
Co5 O11 2.052 . S
Co5 O13 2.135 . S
O6 Co5 2.061 1_455 S
O6 C9 1.235 . S
C7 O10 1.238 . S
C7 O11 1.241 1_565 S
C8 O1 1.247 1_455 S
C8 O2 1.261 . S
C9 O4 1.259 . S
C9 O6 1.235 . S
O10 Co0 2.021 1_665 S
O10 C7 1.238 . S
O11 Co5 2.052 . S
O11 C7 1.241 1_545 S
O12 Co0 2.137 . S
O12 C3 1.247 . S
O13 Co0 2.244 1_655 S
O13 C3 1.272 1_655 S
O13 Co5 2.135 . S
Co14 O15 2.216 1_455 S
Co14 O16 2.091 . S
Co14 O18 2.004 . S
Co14 O24 2.021 . S
Co14 O26 2.137 . S
Co14 O27 2.244 1_545 S
O15 Co14 2.216 1_655 S
O15 C22 1.247 1_655 S
O16 Co14 2.091 . S
O16 C22 1.261 . S
C17 O26 1.247 1_565 S
C17 O27 1.272 . S
O18 Co14 2.004 . S
O18 C23 1.259 . S
Co19 O20 2.061 1_655 S
Co19 O25 2.052 . S
Co19 O27 2.135 1_655 S
O20 Co19 2.061 1_455 S
O20 C23 1.235 1_565 S
C21 O24 1.238 1_655 S
C21 O25 1.241 1_545 S
C22 O15 1.247 1_455 S
C22 O16 1.261 . S
C23 O18 1.259 . S
C23 O20 1.235 1_545 S
O24 Co14 2.021 . S
O24 C21 1.238 1_455 S
O25 Co19 2.052 . S
O25 C21 1.241 1_565 S
O26 Co14 2.137 . S
O26 C17 1.247 1_545 S
O27 Co14 2.244 1_565 S
O27 C17 1.272 . S
O27 Co19 2.135 1_455 S
Co28 O29 2.216 . S
Co28 O30 2.091 1_545 S
Co28 O32 2.004 1_445 S
Co28 O38 2.021 . S
Co28 O40 2.138 1_445 S
Co28 O41 2.244 1_455 S
O29 Co28 2.216 . S
O29 C36 1.247 . S
O30 Co28 2.091 1_565 S
O30 C36 1.261 1_565 S
C31 O40 1.239 1_545 S
C31 O41 1.272 . S
O32 Co28 2.004 1_665 S
O32 C37 1.259 . S
Co33 O34 2.061 . S
Co33 O39 2.052 1_655 S
Co33 O41 2.135 . S
O34 Co33 2.061 . S
O34 C37 1.235 1_545 S
C35 O38 1.238 . S
C35 O39 1.241 . S
C36 O29 1.247 . S
C36 O30 1.261 1_545 S
C37 O32 1.259 . S
C37 O34 1.235 1_565 S
O38 Co28 2.021 . S
O38 C35 1.238 . S
O39 Co33 2.052 1_455 S
O39 C35 1.241 . S
O40 Co28 2.138 1_665 S
O40 C31 1.239 1_565 S
O41 Co28 2.244 1_655 S
O41 C31 1.272 . S
O41 Co33 2.135 . S
C42 O44 1.247 . S
C42 O46 1.258 1_455 S
C43 O50 1.247 1_455 S
C43 O51 1.258 . S
O44 C42 1.247 . S
O44 Zn45 2.028 . S
Zn45 O44 2.028 . S
Zn45 O49 2.035 . S
Zn45 O51 2.035 . S
Zn45 O52 2.028 . S
O46 C42 1.258 1_655 S
O46 Zn47 2.035 . S
Zn47 O46 2.035 . S
Zn47 O48 2.028 . S
Zn47 O50 2.028 . S
Zn47 O53 2.035 . S
O48 Zn47 2.028 . S
O48 C54 1.247 1_655 S
O49 Zn45 2.035 . S
O49 C54 1.258 . S
O50 C43 1.247 1_655 S
O50 Zn47 2.028 . S
O51 C43 1.258 . S
O51 Zn45 2.035 . S
O52 Zn45 2.028 . S
O52 C55 1.247 . S
O53 Zn47 2.035 . S
O53 C55 1.258 1_655 S
C54 O48 1.247 1_455 S
C54 O49 1.258 . S
C55 O52 1.247 . S
C55 O53 1.258 1_455 S
C56 O58 1.247 1_545 S
C56 O60 1.258 . S
C57 O64 1.247 . S
C57 O65 1.258 1_545 S
O58 C56 1.247 1_565 S
O58 Zn59 2.028 . S
Zn59 O58 2.028 . S
Zn59 O63 2.035 . S
Zn59 O65 2.035 . S
Zn59 O66 2.028 . S
O60 C56 1.258 . S
O60 Zn61 2.035 . S
Zn61 O60 2.035 . S
Zn61 O62 2.028 . S
Zn61 O64 2.028 . S
Zn61 O67 2.035 . S
O62 Zn61 2.028 . S
O62 C68 1.247 . S
O63 Zn59 2.035 . S
O63 C68 1.258 1_565 S
O64 C57 1.247 . S
O64 Zn61 2.028 . S
O65 C57 1.258 1_565 S
O65 Zn59 2.035 . S
O66 Zn59 2.028 . S
O66 C69 1.247 1_565 S
O67 Zn61 2.035 . S
O67 C69 1.258 . S
C68 O62 1.247 . S
C68 O63 1.258 1_545 S
C69 O66 1.247 1_545 S
C69 O67 1.258 . S
C70 O72 1.247 . S
C70 O74 1.258 . S
C71 O78 1.247 . S
C71 O79 1.258 . S
O72 C70 1.247 . S
O72 Zn73 2.028 . S
Zn73 O72 2.028 . S
Zn73 O77 2.035 . S
Zn73 O79 2.035 . S
Zn73 O80 2.028 . S
O74 C70 1.258 . S
O74 Zn75 2.035 . S
Zn75 O74 2.035 . S
Zn75 O76 2.028 . S
Zn75 O78 2.028 . S
Zn75 O81 2.035 . S
O76 Zn75 2.028 . S
O76 C82 1.247 . S
O77 Zn73 2.035 . S
O77 C82 1.258 . S
O78 C71 1.247 . S
O78 Zn75 2.028 . S
O79 C71 1.258 . S
O79 Zn73 2.035 . S
O80 Zn73 2.028 . S
O80 C83 1.247 . S
O81 Zn75 2.035 . S
O81 C83 1.258 . S
C82 O76 1.247 . S
C82 O77 1.258 . S
C83 O80 1.247 . S
C83 O81 1.258 . S
H84 C85 0.951 . S
C85 H84 0.951 . S
C85 C91 1.265 1_455 S
H86 C91 0.950 . S
H87 C95 0.949 . S
H88 C96 0.950 . S
H89 C97 0.951 . S
H90 C98 0.951 . S
C91 C85 1.265 1_655 S
C91 H86 0.950 . S
C91 C92 1.478 1_655 S
C92 C91 1.478 1_455 S
C92 C93 1.397 1_455 S
C92 C109 1.394 . S
C93 C92 1.397 1_655 S
C93 C94 1.438 1_655 S
C93 C98 1.429 . S
C94 C93 1.438 1_455 S
C94 C95 1.428 1_455 S
C94 C107 1.394 . S
C95 H87 0.949 . S
C95 C94 1.428 1_655 S
C95 C96 1.345 . S
C96 H88 0.950 . S
C96 C95 1.345 . S
C96 C97 1.424 . S
C97 H89 0.951 . S
C97 C96 1.424 . S
C97 C98 1.347 . S
C98 H90 0.951 . S
C98 C93 1.429 . S
C98 C97 1.347 . S
H99 C100 0.951 1_655 S
C100 H99 0.951 1_455 S
C100 C106 1.265 . S
H101 C106 0.950 . S
H102 C110 0.949 . S
H103 C111 0.950 . S
H104 C112 0.951 . S
H105 C113 0.951 . S
C106 C100 1.265 . S
C106 H101 0.950 . S
C106 C107 1.478 . S
C107 C94 1.394 . S
C107 C106 1.478 . S
C107 C108 1.397 . S
C108 C107 1.397 . S
C108 C109 1.438 . S
C108 C113 1.429 . S
C109 C92 1.394 . S
C109 C108 1.438 . S
C109 C110 1.428 . S
C110 H102 0.949 . S
C110 C109 1.428 . S
C110 C111 1.345 . S
C111 H103 0.950 . S
C111 C110 1.345 . S
C111 C112 1.424 . S
C112 H104 0.951 . S
C112 C111 1.424 . S
C112 C113 1.347 . S
C113 H105 0.951 . S
C113 C108 1.429 . S
C113 C112 1.347 . S
H114 C115 0.951 . S
C115 H114 0.951 . S
C115 C121 1.265 . S
H116 C121 0.950 . S
H117 C125 0.949 . S
H118 C126 0.950 . S
H119 C127 0.951 . S
H120 C128 0.951 . S
C121 C115 1.265 . S
C121 H116 0.950 . S
C121 C122 1.478 . S
C122 C121 1.478 . S
C122 C123 1.397 . S
C122 C139 1.394 1_545 S
C123 C122 1.397 . S
C123 C124 1.438 . S
C123 C128 1.429 . S
C124 C123 1.438 . S
C124 C125 1.428 . S
C124 C137 1.394 . S
C125 H117 0.949 . S
C125 C124 1.428 . S
C125 C126 1.345 . S
C126 H118 0.950 . S
C126 C125 1.345 . S
C126 C127 1.424 . S
C127 H119 0.951 . S
C127 C126 1.424 . S
C127 C128 1.347 . S
C128 H120 0.951 . S
C128 C123 1.429 . S
C128 C127 1.347 . S
H129 C130 0.951 . S
C130 H129 0.951 . S
C130 C136 1.265 . S
H131 C136 0.950 . S
H132 C140 0.949 . S
H133 C141 0.950 . S
H134 C142 0.951 . S
H135 C143 0.951 . S
C136 C130 1.265 . S
C136 H131 0.950 . S
C136 C137 1.478 . S
C137 C124 1.394 . S
C137 C136 1.478 . S
C137 C138 1.397 1_545 S
C138 C137 1.397 1_565 S
C138 C139 1.438 . S
C138 C143 1.429 . S
C139 C122 1.394 1_565 S
C139 C138 1.438 . S
C139 C140 1.428 . S
C140 H132 0.949 . S
C140 C139 1.428 . S
C140 C141 1.345 . S
C141 H133 0.950 . S
C141 C140 1.345 . S
C141 C142 1.424 . S
C142 H134 0.951 . S
C142 C141 1.424 . S
C142 C143 1.347 . S
C143 H135 0.951 . S
C143 C138 1.429 . S
C143 C142 1.347 . S
H144 C145 0.951 . S
C145 H144 0.951 . S
C145 C151 1.265 . S
H146 C151 0.950 . S
H147 C155 0.949 . S
H148 C156 0.950 . S
H149 C157 0.951 . S
H150 C158 0.951 . S
C151 C145 1.265 . S
C151 H146 0.950 . S
C151 C152 1.478 . S
C152 C151 1.478 . S
C152 C153 1.397 . S
C152 C169 1.394 . S
C153 C152 1.397 . S
C153 C154 1.438 . S
C153 C158 1.429 . S
C154 C153 1.438 . S
C154 C155 1.428 . S
C154 C167 1.394 . S
C155 H147 0.949 . S
C155 C154 1.428 . S
C155 C156 1.345 . S
C156 H148 0.950 . S
C156 C155 1.345 . S
C156 C157 1.424 . S
C157 H149 0.951 . S
C157 C156 1.424 . S
C157 C158 1.347 . S
C158 H150 0.951 . S
C158 C153 1.429 . S
C158 C157 1.347 . S
H159 C160 0.951 . S
C160 H159 0.951 . S
C160 C166 1.265 . S
H161 C166 0.950 . S
H162 C170 0.949 . S
H163 C171 0.950 1_545 S
H164 C172 0.951 . S
H165 C173 0.951 . S
C166 C160 1.265 . S
C166 H161 0.950 . S
C166 C167 1.478 . S
C167 C154 1.394 . S
C167 C166 1.478 . S
C167 C168 1.397 . S
C168 C167 1.397 . S
C168 C169 1.438 . S
C168 C173 1.429 . S
C169 C152 1.394 . S
C169 C168 1.438 . S
C169 C170 1.428 . S
C170 H162 0.949 . S
C170 C169 1.428 . S
C170 C171 1.345 . S
C171 H163 0.950 1_565 S
C171 C170 1.345 . S
C171 C172 1.424 . S
C172 H164 0.951 . S
C172 C171 1.424 . S
C172 C173 1.347 . S
C173 H165 0.951 . S
C173 C168 1.429 . S
C173 C172 1.347 . S
H174 C175 0.951 1_655 S
C175 H174 0.951 1_455 S
C175 C181 1.265 . S
H176 C181 0.950 . S
H177 C185 0.949 . S
H178 C186 0.950 . S
H179 C187 0.951 . S
H180 C188 0.951 . S
C181 C175 1.265 . S
C181 H176 0.950 . S
C181 C182 1.478 . S
C182 C181 1.478 . S
C182 C183 1.397 . S
C182 C199 1.394 . S
C183 C182 1.397 . S
C183 C184 1.438 . S
C183 C188 1.429 . S
C184 C183 1.438 . S
C184 C185 1.428 . S
C184 C197 1.394 . S
C185 H177 0.949 . S
C185 C184 1.428 . S
C185 C186 1.345 . S
C186 H178 0.950 . S
C186 C185 1.345 . S
C186 C187 1.424 . S
C187 H179 0.951 . S
C187 C186 1.424 . S
C187 C188 1.347 . S
C188 H180 0.951 . S
C188 C183 1.429 . S
C188 C187 1.347 . S
H189 C190 0.951 . S
C190 H189 0.951 . S
C190 C196 1.265 1_455 S
H191 C196 0.950 . S
H192 C200 0.949 . S
H193 C201 0.950 . S
H194 C202 0.951 1_655 S
H195 C203 0.951 1_655 S
C196 C190 1.265 1_655 S
C196 H191 0.950 . S
C196 C197 1.478 1_655 S
C197 C184 1.394 . S
C197 C196 1.478 1_455 S
C197 C198 1.397 . S
C198 C197 1.397 . S
C198 C199 1.438 . S
C198 C203 1.429 . S
C199 C182 1.394 . S
C199 C198 1.438 . S
C199 C200 1.428 . S
C200 H192 0.949 . S
C200 C199 1.428 . S
C200 C201 1.345 . S
C201 H193 0.950 . S
C201 C200 1.345 . S
C201 C202 1.424 . S
C202 H194 0.951 1_455 S
C202 C201 1.424 . S
C202 C203 1.347 . S
C203 H195 0.951 1_455 S
C203 C198 1.429 . S
C203 C202 1.347 . S
H204 C205 0.951 . S
C205 H204 0.951 . S
C205 C211 1.265 . S
H206 C211 0.950 . S
H207 C215 0.949 . S
H208 C216 0.950 . S
H209 C217 0.951 . S
H210 C218 0.951 . S
C211 C205 1.265 . S
C211 H206 0.950 . S
C211 C212 1.478 . S
C212 C211 1.478 . S
C212 C213 1.397 . S
C212 C229 1.390 1_545 S
C213 C212 1.397 . S
C213 C214 1.438 . S
C213 C218 1.429 . S
C214 C213 1.438 . S
C214 C215 1.428 . S
C214 C227 1.394 . S
C215 H207 0.949 . S
C215 C214 1.428 . S
C215 C216 1.345 . S
C216 H208 0.950 . S
C216 C215 1.345 . S
C216 C217 1.424 . S
C217 H209 0.951 . S
C217 C216 1.424 . S
C217 C218 1.347 . S
C218 H210 0.951 . S
C218 C213 1.429 . S
C218 C217 1.347 . S
H219 C220 0.951 . S
C220 H219 0.951 . S
C220 C226 1.265 . S
H221 C226 0.950 . S
H222 C230 0.949 . S
H223 C231 0.950 . S
H224 C232 0.951 . S
H225 C233 0.951 . S
C226 C220 1.265 . S
C226 H221 0.950 . S
C226 C227 1.478 . S
C227 C214 1.394 . S
C227 C226 1.478 . S
C227 C228 1.397 1_545 S
C228 C227 1.397 1_565 S
C228 C229 1.440 . S
C228 C233 1.429 . S
C229 C212 1.390 1_565 S
C229 C228 1.440 . S
C229 C230 1.430 . S
C230 H222 0.949 . S
C230 C229 1.430 . S
C230 C231 1.345 . S
C231 H223 0.950 . S
C231 C230 1.345 . S
C231 C232 1.424 . S
C232 H224 0.951 . S
C232 C231 1.424 . S
C232 C233 1.347 . S
C233 H225 0.951 . S
C233 C228 1.429 . S
C233 C232 1.347 . S
H234 C235 0.951 . S
C235 H234 0.951 . S
C235 C241 1.265 . S
H236 C241 0.950 . S
H237 C245 0.949 . S
H238 C246 0.950 . S
H239 C247 0.951 . S
H240 C248 0.951 . S
C241 C235 1.265 . S
C241 H236 0.950 . S
C241 C242 1.478 . S
C242 C241 1.478 . S
C242 C243 1.397 . S
C242 C259 1.394 . S
C243 C242 1.397 . S
C243 C244 1.438 . S
C243 C248 1.429 . S
C244 C243 1.438 . S
C244 C245 1.428 . S
C244 C257 1.394 . S
C245 H237 0.949 . S
C245 C244 1.428 . S
C245 C246 1.345 . S
C246 H238 0.950 . S
C246 C245 1.345 . S
C246 C247 1.424 . S
C247 H239 0.951 . S
C247 C246 1.424 . S
C247 C248 1.347 . S
C248 H240 0.951 . S
C248 C243 1.429 . S
C248 C247 1.347 . S
H249 C250 0.951 . S
C250 H249 0.951 . S
C250 C256 1.265 . S
H251 C256 0.950 . S
H252 C260 0.949 . S
H253 C261 0.950 . S
H254 C262 0.951 . S
H255 C263 0.951 . S
C256 C250 1.265 . S
C256 H251 0.950 . S
C256 C257 1.478 . S
C257 C244 1.394 . S
C257 C256 1.478 . S
C257 C258 1.397 . S
C258 C257 1.397 . S
C258 C259 1.438 . S
C258 C263 1.429 . S
C259 C242 1.394 . S
C259 C258 1.438 . S
C259 C260 1.428 . S
C260 H252 0.949 . S
C260 C259 1.428 . S
C260 C261 1.345 . S
C261 H253 0.950 . S
C261 C260 1.345 . S
C261 C262 1.424 . S
C262 H254 0.951 . S
C262 C261 1.424 . S
C262 C263 1.347 . S
C263 H255 0.951 . S
C263 C258 1.429 . S
C263 C262 1.347 . S
H264 C265 0.951 . S
C265 H264 0.951 . S
C265 C271 1.265 . S
H266 C271 0.950 . S
H267 C275 0.949 . S
H268 C276 0.950 . S
H269 C277 0.951 . S
H270 C278 0.951 . S
C271 C265 1.265 . S
C271 H266 0.950 . S
C271 C272 1.478 . S
C272 C271 1.478 . S
C272 C273 1.397 . S
C272 C289 1.394 1_545 S
C273 C272 1.397 . S
C273 C274 1.438 . S
C273 C278 1.429 . S
C274 C273 1.438 . S
C274 C275 1.428 . S
C274 C287 1.394 . S
C275 H267 0.949 . S
C275 C274 1.428 . S
C275 C276 1.345 . S
C276 H268 0.950 . S
C276 C275 1.345 . S
C276 C277 1.424 . S
C277 H269 0.951 . S
C277 C276 1.424 . S
C277 C278 1.347 . S
C278 H270 0.951 . S
C278 C273 1.429 . S
C278 C277 1.347 . S
H279 C280 0.951 . S
C280 H279 0.951 . S
C280 C286 1.265 . S
H281 C286 0.950 . S
H282 C290 0.949 . S
H283 C291 0.950 . S
H284 C292 0.951 . S
H285 C293 0.951 . S
C286 C280 1.265 . S
C286 H281 0.950 . S
C286 C287 1.478 . S
C287 C274 1.394 . S
C287 C286 1.478 . S
C287 C288 1.397 1_545 S
C288 C287 1.397 1_565 S
C288 C289 1.438 . S
C288 C293 1.429 . S
C289 C272 1.394 1_565 S
C289 C288 1.438 . S
C289 C290 1.428 . S
C290 H282 0.949 . S
C290 C289 1.428 . S
C290 C291 1.345 . S
C291 H283 0.950 . S
C291 C290 1.345 . S
C291 C292 1.424 . S
C292 H284 0.951 . S
C292 C291 1.424 . S
C292 C293 1.347 . S
C293 H285 0.951 . S
C293 C288 1.429 . S
C293 C292 1.347 . S
H294 C295 0.951 . S
C295 H294 0.951 . S
C295 C301 1.265 . S
H296 C301 0.950 . S
H297 C305 0.949 . S
H298 C306 0.950 . S
H299 C307 0.951 . S
H300 C308 0.951 . S
C301 C295 1.265 . S
C301 H296 0.950 . S
C301 C302 1.478 . S
C302 C301 1.478 . S
C302 C303 1.397 . S
C302 C319 1.394 1_554 S
C303 C302 1.397 . S
C303 C304 1.438 1_554 S
C303 C308 1.429 . S
C304 C303 1.438 1_556 S
C304 C305 1.428 . S
C304 C317 1.394 . S
C305 H297 0.949 . S
C305 C304 1.428 . S
C305 C306 1.345 1_556 S
C306 H298 0.950 . S
C306 C305 1.345 1_554 S
C306 C307 1.424 . S
C307 H299 0.951 . S
C307 C306 1.424 . S
C307 C308 1.347 . S
C308 H300 0.951 . S
C308 C303 1.429 . S
C308 C307 1.347 . S
H309 C310 0.951 . S
C310 H309 0.951 . S
C310 C316 1.265 . S
H311 C316 0.950 . S
H312 C320 0.949 . S
H313 C321 0.950 1_545 S
H314 C322 0.951 . S
H315 C323 0.951 . S
C316 C310 1.265 . S
C316 H311 0.950 . S
C316 C317 1.478 . S
C317 C304 1.394 . S
C317 C316 1.478 . S
C317 C318 1.397 . S
C318 C317 1.397 . S
C318 C319 1.438 . S
C318 C323 1.429 . S
C319 C302 1.394 1_556 S
C319 C318 1.438 . S
C319 C320 1.428 . S
C320 H312 0.949 . S
C320 C319 1.428 . S
C320 C321 1.345 . S
C321 H313 0.950 1_565 S
C321 C320 1.345 . S
C321 C322 1.424 . S
C322 H314 0.951 . S
C322 C321 1.424 . S
C322 C323 1.347 . S
C323 H315 0.951 . S
C323 C318 1.429 . S
C323 C322 1.347 . S
H324 C325 0.951 . S
C325 H324 0.951 . S
C325 C331 1.265 . S
H326 C331 0.950 . S
H327 C335 0.949 . S
H328 C336 0.950 . S
H329 C337 0.951 . S
H330 C338 0.951 . S
C331 C325 1.265 . S
C331 H326 0.950 . S
C331 C332 1.478 . S
C332 C331 1.478 . S
C332 C333 1.397 1_455 S
C332 C349 1.394 . S
C333 C332 1.397 1_655 S
C333 C334 1.438 . S
C333 C338 1.429 . S
C334 C333 1.438 . S
C334 C335 1.428 . S
C334 C347 1.394 1_655 S
C335 H327 0.949 . S
C335 C334 1.428 . S
C335 C336 1.345 . S
C336 H328 0.950 . S
C336 C335 1.345 . S
C336 C337 1.424 . S
C337 H329 0.951 . S
C337 C336 1.424 . S
C337 C338 1.347 . S
C338 H330 0.951 . S
C338 C333 1.429 . S
C338 C337 1.347 . S
H339 C340 0.951 . S
C340 H339 0.951 . S
C340 C346 1.265 . S
H341 C346 0.950 . S
H342 C350 0.949 . S
H343 C351 0.950 . S
H344 C352 0.951 . S
H345 C353 0.951 . S
C346 C340 1.265 . S
C346 H341 0.950 . S
C346 C347 1.478 . S
C347 C334 1.394 1_455 S
C347 C346 1.478 . S
C347 C348 1.397 . S
C348 C347 1.397 . S
C348 C349 1.438 . S
C348 C353 1.429 . S
C349 C332 1.394 . S
C349 C348 1.438 . S
C349 C350 1.428 . S
C350 H342 0.949 . S
C350 C349 1.428 . S
C350 C351 1.345 . S
C351 H343 0.950 . S
C351 C350 1.345 . S
C351 C352 1.424 . S
C352 H344 0.951 . S
C352 C351 1.424 . S
C352 C353 1.347 . S
C353 H345 0.951 . S
C353 C348 1.429 . S
C353 C352 1.347 . S
H354 C355 0.951 . S
C355 H354 0.951 . S
C355 C361 1.265 . S
H356 C361 0.950 . S
H357 C365 0.949 . S
H358 C366 0.950 . S
H359 C367 0.951 . S
H360 C368 0.951 . S
C361 C355 1.265 . S
C361 H356 0.950 . S
C361 C362 1.478 . S
C362 C361 1.478 . S
C362 C363 1.397 . S
C362 C379 1.394 1_545 S
C363 C362 1.397 . S
C363 C364 1.438 . S
C363 C368 1.429 . S
C364 C363 1.438 . S
C364 C365 1.428 . S
C364 C377 1.394 . S
C365 H357 0.949 . S
C365 C364 1.428 . S
C365 C366 1.345 . S
C366 H358 0.950 . S
C366 C365 1.345 . S
C366 C367 1.424 . S
C367 H359 0.951 . S
C367 C366 1.424 . S
C367 C368 1.347 . S
C368 H360 0.951 . S
C368 C363 1.429 . S
C368 C367 1.347 . S
H369 C370 0.951 . S
C370 H369 0.951 . S
C370 C376 1.265 . S
H371 C376 0.950 . S
H372 C380 0.949 . S
H373 C381 0.950 . S
H374 C382 0.951 . S
H375 C383 0.951 . S
C376 C370 1.265 . S
C376 H371 0.950 . S
C376 C377 1.478 . S
C377 C364 1.394 . S
C377 C376 1.478 . S
C377 C378 1.397 1_545 S
C378 C377 1.397 1_565 S
C378 C379 1.438 . S
C378 C383 1.429 . S
C379 C362 1.394 1_565 S
C379 C378 1.438 . S
C379 C380 1.428 . S
C380 H372 0.949 . S
C380 C379 1.428 . S
C380 C381 1.345 . S
C381 H373 0.950 . S
C381 C380 1.345 . S
C381 C382 1.424 . S
C382 H374 0.951 . S
C382 C381 1.424 . S
C382 C383 1.347 . S
C383 H375 0.951 . S
C383 C378 1.429 . S
C383 C382 1.347 . S
H384 C385 0.951 . S
C385 H384 0.951 . S
C385 C391 1.265 . S
H386 C391 0.950 . S
H387 C395 0.949 . S
H388 C396 0.950 . S
H389 C397 0.951 . S
H390 C398 0.951 1_554 S
C391 C385 1.265 . S
C391 H386 0.950 . S
C391 C392 1.478 . S
C392 C391 1.478 . S
C392 C393 1.397 1_554 S
C392 C409 1.401 . S
C393 C392 1.397 1_556 S
C393 C394 1.438 . S
C393 C398 1.429 . S
C394 C393 1.438 . S
C394 C395 1.428 . S
C394 C407 1.394 . S
C395 H387 0.949 . S
C395 C394 1.428 . S
C395 C396 1.345 . S
C396 H388 0.950 . S
C396 C395 1.345 . S
C396 C397 1.424 . S
C397 H389 0.951 . S
C397 C396 1.424 . S
C397 C398 1.347 . S
C398 H390 0.951 1_556 S
C398 C393 1.429 . S
C398 C397 1.347 . S
H399 C400 0.951 . S
C400 H399 0.951 . S
C400 C406 1.265 . S
H401 C406 0.950 . S
H402 C410 0.949 . S
H403 C411 0.950 . S
H404 C412 0.951 . S
H405 C413 0.951 . S
C406 C400 1.265 . S
C406 H401 0.950 . S
C406 C407 1.478 . S
C407 C394 1.394 . S
C407 C406 1.478 . S
C407 C408 1.397 . S
C408 C407 1.397 . S
C408 C409 1.402 1_556 S
C408 C413 1.429 . S
C409 C392 1.401 . S
C409 C408 1.402 1_554 S
C409 C410 1.458 . S
C410 H402 0.949 . S
C410 C409 1.458 . S
C410 C411 1.345 . S
C411 H403 0.950 . S
C411 C410 1.345 . S
C411 C412 1.424 1_554 S
C412 H404 0.951 . S
C412 C411 1.424 1_556 S
C412 C413 1.347 . S
C413 H405 0.951 . S
C413 C408 1.429 . S
C413 C412 1.347 . S
H414 C415 0.951 . S
C415 H414 0.951 . S
C415 C421 1.265 . S
H416 C421 0.950 . S
H417 C425 0.949 . S
H418 C426 0.950 . S
H419 C427 0.951 . S
H420 C428 0.951 . S
C421 C415 1.265 . S
C421 H416 0.950 . S
C421 C422 1.478 . S
C422 C421 1.478 . S
C422 C423 1.397 . S
C422 C439 1.394 1_455 S
C423 C422 1.397 . S
C423 C424 1.438 . S
C423 C428 1.429 . S
C424 C423 1.438 . S
C424 C425 1.428 . S
C424 C437 1.394 . S
C425 H417 0.949 . S
C425 C424 1.428 . S
C425 C426 1.345 . S
C426 H418 0.950 . S
C426 C425 1.345 . S
C426 C427 1.424 . S
C427 H419 0.951 . S
C427 C426 1.424 . S
C427 C428 1.347 . S
C428 H420 0.951 . S
C428 C423 1.429 . S
C428 C427 1.347 . S
H429 C430 0.951 . S
C430 H429 0.951 . S
C430 C436 1.265 . S
H431 C436 0.950 . S
H432 C440 0.949 . S
H433 C441 0.950 . S
H434 C442 0.951 . S
H435 C443 0.951 . S
C436 C430 1.265 . S
C436 H431 0.950 . S
C436 C437 1.478 . S
C437 C424 1.394 . S
C437 C436 1.478 . S
C437 C438 1.397 1_455 S
C438 C437 1.397 1_655 S
C438 C439 1.438 . S
C438 C443 1.429 . S
C439 C422 1.394 1_655 S
C439 C438 1.438 . S
C439 C440 1.428 . S
C440 H432 0.949 . S
C440 C439 1.428 . S
C440 C441 1.345 . S
C441 H433 0.950 . S
C441 C440 1.345 . S
C441 C442 1.424 . S
C442 H434 0.951 . S
C442 C441 1.424 . S
C442 C443 1.347 . S
C443 H435 0.951 . S
C443 C438 1.429 . S
C443 C442 1.347 . S
C100 C43 1.461 . S
C85 C3 1.445 . S
C115 C21 1.489 . S
C130 C69 1.502 . S
C145 C37 1.454 . S
C160 C71 1.464 . S
C175 C8 1.466 . S
C190 C55 1.460 . S
C220 C57 1.462 . S
C205 C23 1.438 . S
C235 C35 1.412 . S
C250 C83 1.462 . S
C280 C56 1.452 . S
C265 C31 1.446 . S
C295 C7 1.424 . S
C310 C82 1.466 . S
C340 C42 1.455 . S
C325 C17 1.447 . S
C370 C68 1.441 . S
C355 C36 1.440 . S
C400 C70 1.461 . S
C385 C9 1.426 . S
C415 C22 1.456 . S
C430 C54 1.456 . S
