# Generated by pormake.
# Topology zzz, (3,6)-cn, num edge types: 1
# Building blocks:
#     Node 0, Type 0, BuildingBlock: OLANEW_clean_sbu_2, # of connection points: 3
#     Node 1, Type 0, BuildingBlock: OLANEW_clean_sbu_2, # of connection points: 3
#     Node 2, Type 0, BuildingBlock: OLANEW_clean_sbu_2, # of connection points: 3
#     Node 3, Type 0, BuildingBlock: OLANEW_clean_sbu_2, # of connection points: 3
#     Node 4, Type 0, BuildingBlock: OLANEW_clean_sbu_2, # of connection points: 3
#     Node 5, Type 0, BuildingBlock: OLANEW_clean_sbu_2, # of connection points: 3
#     Node 6, Type 0, BuildingBlock: OLANEW_clean_sbu_2, # of connection points: 3
#     Node 7, Type 0, BuildingBlock: OLANEW_clean_sbu_2, # of connection points: 3
#     Node 8, Type 1, BuildingBlock: VOLQOD_clean_sbu_1, # of connection points: 6
#     Node 9, Type 1, BuildingBlock: VOLQOD_clean_sbu_1, # of connection points: 6
#     Node 10, Type 1, BuildingBlock: VOLQOD_clean_sbu_1, # of connection points: 6
#     Node 11, Type 1, BuildingBlock: VOLQOD_clean_sbu_1, # of connection points: 6
#     Edge 12, Type (0, 1), BuildingBlock: XUDNAN_clean_linker_2, # of connection points: 2
#     Edge 13, Type (0, 1), BuildingBlock: XUDNAN_clean_linker_2, # of connection points: 2
#     Edge 14, Type (0, 1), BuildingBlock: XUDNAN_clean_linker_2, # of connection points: 2
#     Edge 15, Type (0, 1), BuildingBlock: XUDNAN_clean_linker_2, # of connection points: 2
#     Edge 16, Type (0, 1), BuildingBlock: XUDNAN_clean_linker_2, # of connection points: 2
#     Edge 17, Type (0, 1), BuildingBlock: XUDNAN_clean_linker_2, # of connection points: 2
#     Edge 18, Type (0, 1), BuildingBlock: XUDNAN_clean_linker_2, # of connection points: 2
#     Edge 19, Type (0, 1), BuildingBlock: XUDNAN_clean_linker_2, # of connection points: 2
#     Edge 20, Type (0, 1), BuildingBlock: XUDNAN_clean_linker_2, # of connection points: 2
#     Edge 21, Type (0, 1), BuildingBlock: XUDNAN_clean_linker_2, # of connection points: 2
#     Edge 22, Type (0, 1), BuildingBlock: XUDNAN_clean_linker_2, # of connection points: 2
#     Edge 23, Type (0, 1), BuildingBlock: XUDNAN_clean_linker_2, # of connection points: 2
#     Edge 24, Type (0, 1), BuildingBlock: XUDNAN_clean_linker_2, # of connection points: 2
#     Edge 25, Type (0, 1), BuildingBlock: XUDNAN_clean_linker_2, # of connection points: 2
#     Edge 26, Type (0, 1), BuildingBlock: XUDNAN_clean_linker_2, # of connection points: 2
#     Edge 27, Type (0, 1), BuildingBlock: XUDNAN_clean_linker_2, # of connection points: 2
#     Edge 28, Type (0, 1), BuildingBlock: XUDNAN_clean_linker_2, # of connection points: 2
#     Edge 29, Type (0, 1), BuildingBlock: XUDNAN_clean_linker_2, # of connection points: 2
#     Edge 30, Type (0, 1), BuildingBlock: XUDNAN_clean_linker_2, # of connection points: 2
#     Edge 31, Type (0, 1), BuildingBlock: XUDNAN_clean_linker_2, # of connection points: 2
#     Edge 32, Type (0, 1), BuildingBlock: XUDNAN_clean_linker_2, # of connection points: 2
#     Edge 33, Type (0, 1), BuildingBlock: XUDNAN_clean_linker_2, # of connection points: 2
#     Edge 34, Type (0, 1), BuildingBlock: XUDNAN_clean_linker_2, # of connection points: 2
#     Edge 35, Type (0, 1), BuildingBlock: XUDNAN_clean_linker_2, # of connection points: 2
# Relax obj value: 0.181
# Max RMSD: 0.232
# Mean RMSD: 0.108
data_MOF--net-zzz--node1-OLANEW_clean_sbu_2--node2-VOLQOD_clean_sbu_1--edge1-XUDNAN_clean_linker_2
_symmetry_space_group_name_H-M    P1
_symmetry_Int_Tables_number       1
_symmetry_cell_setting            triclinic
loop_
_symmetry_equiv_pos_as_xyz
'x, y, z'
_cell_length_a     53.957101
_cell_length_b     53.468031
_cell_length_c     19.071742
_cell_angle_alpha  90.20016
_cell_angle_beta   89.810279
_cell_angle_gamma 91.145275
loop_
_atom_site_label
_atom_site_type_symbol
_atom_site_fract_x
_atom_site_fract_y
_atom_site_fract_z
_atom_type_partial_charge
O0 O 0.77683 0.38676 0.96703 0.0
Cd1 Cd 0.73356 0.37444 0.98452 0.0
O2 O 0.77864 0.39455 0.07995 0.0
Cd3 Cd 0.79821 0.40667 0.17538 0.0
O4 O 0.82484 0.42235 0.25072 0.0
C5 C 0.83017 0.44563 0.24989 0.0
O6 O 0.81881 0.46007 0.20518 0.0
C7 C 0.78885 0.39504 0.01963 0.0
C8 C 0.70416 0.4048 0.90221 0.0
O9 O 0.71288 0.41257 0.96092 0.0
O10 O 0.70892 0.38244 0.88265 0.0
O11 O 0.91465 0.79551 0.84049 0.0
Cd12 Cd 0.88705 0.75973 0.86299 0.0
O13 O 0.91664 0.80382 0.95328 0.0
Cd14 Cd 0.92731 0.82997 0.03678 0.0
O15 O 0.94194 0.86296 0.09151 0.0
C16 C 0.9309 0.87183 0.14468 0.0
O17 O 0.91058 0.86059 0.16761 0.0
C18 C 0.92288 0.80899 0.89056 0.0
C19 C 0.91252 0.71498 0.86818 0.0
O20 O 0.90903 0.72806 0.92365 0.0
O21 O 0.90402 0.72313 0.81007 0.0
O22 O 0.71962 0.0859 0.04 0.0
Cd23 Cd 0.76182 0.10013 0.06829 0.0
O24 O 0.70908 0.09134 0.15013 0.0
Cd25 Cd 0.68277 0.09085 0.23827 0.0
O26 O 0.65289 0.07655 0.30587 0.0
C27 C 0.63045 0.07791 0.28632 0.0
O28 O 0.62546 0.08936 0.22734 0.0
C29 C 0.70346 0.08401 0.08844 0.0
C30 C 0.79547 0.08668 0.96416 0.0
O31 O 0.78694 0.07064 0.00818 0.0
O32 O 0.78828 0.10931 0.96909 0.0
O33 O 0.64735 0.71489 0.8653 0.0
Cd34 Cd 0.67005 0.7539 0.8891 0.0
O35 O 0.62447 0.72394 0.95687 0.0
Cd36 Cd 0.59326 0.71622 0.02742 0.0
O37 O 0.57024 0.69076 0.0899 0.0
C38 C 0.58115 0.67923 0.13865 0.0
O39 O 0.60465 0.68448 0.15077 0.0
C40 C 0.62965 0.70915 0.90672 0.0
C41 C 0.63669 0.79273 0.90079 0.0
O42 O 0.64768 0.7883 0.84251 0.0
O43 O 0.64183 0.77912 0.95372 0.0
O44 O 0.20912 0.61395 0.50812 0.0
Cd45 Cd 0.24658 0.63911 0.48661 0.0
O46 O 0.20996 0.60106 0.39871 0.0
Cd47 Cd 0.19435 0.57791 0.31462 0.0
O48 O 0.17203 0.55414 0.24535 0.0
C49 C 0.15738 0.53798 0.27263 0.0
O50 O 0.15684 0.53561 0.34116 0.0
C51 C 0.19945 0.6013 0.45844 0.0
C52 C 0.28892 0.6175 0.54065 0.0
O53 O 0.27577 0.63213 0.57822 0.0
O54 O 0.28193 0.61299 0.47761 0.0
O55 O 0.16004 0.22158 0.47453 0.0
Cd56 Cd 0.14393 0.22618 0.59397 0.0
O57 O 0.15943 0.20781 0.36614 0.0
Cd58 Cd 0.14332 0.18506 0.28143 0.0
O59 O 0.11732 0.16592 0.211 0.0
C60 C 0.12174 0.14518 0.18114 0.0
O61 O 0.14313 0.13452 0.19179 0.0
C62 C 0.14888 0.20971 0.42568 0.0
C63 C 0.1116 0.26582 0.60774 0.0
O64 O 0.13495 0.26901 0.61745 0.0
O65 O 0.10358 0.24387 0.59105 0.0
O66 O 0.27534 0.86229 0.55804 0.0
Cd67 Cd 0.23641 0.85337 0.49768 0.0
O68 O 0.28356 0.89089 0.4795 0.0
Cd69 Cd 0.30228 0.92091 0.42059 0.0
O70 O 0.32939 0.939 0.35145 0.0
C71 C 0.33568 0.962 0.35449 0.0
O72 O 0.32519 0.97652 0.40119 0.0
C73 C 0.28994 0.87924 0.5346 0.0
C74 C 0.20465 0.89364 0.50936 0.0
O75 O 0.20451 0.87622 0.55537 0.0
O76 O 0.21976 0.89195 0.45764 0.0
O77 O 0.46654 0.27324 0.39495 0.0
Cd78 Cd 0.46797 0.22914 0.36315 0.0
O79 O 0.44852 0.27923 0.29386 0.0
Cd80 Cd 0.43696 0.30356 0.20915 0.0
O81 O 0.43365 0.33057 0.12503 0.0
C82 C 0.44371 0.35217 0.1309 0.0
O83 O 0.45553 0.35806 0.18894 0.0
C84 C 0.45729 0.28807 0.35074 0.0
C85 C 0.45505 0.19674 0.47169 0.0
O86 O 0.4774 0.20492 0.46438 0.0
O87 O 0.43873 0.20426 0.42831 0.0
O88 O 0.06011 0.00421 0.66582 0.0
Zn89 Zn 0.02826 0.01414 0.71332 0.0
O90 O 0.006 0.02993 0.64539 0.0
Zn91 Zn 0.99576 0.06258 0.68086 0.0
Zn92 Zn 0.02252 0.03379 0.55443 0.0
Zn93 Zn 0.97675 0.00889 0.63186 0.0
O94 O 0.9583 0.06456 0.69356 0.0
O95 O 0.94609 0.02642 0.66092 0.0
O96 O 0.03643 0.03767 0.7943 0.0
O97 O 0.01097 0.06905 0.77497 0.0
O98 O 0.00942 0.09034 0.61903 0.0
O99 O 0.02706 0.07011 0.53023 0.0
O100 O 0.00434 0.0156 0.47625 0.0
O101 O 0.01292 0.98213 0.7525 0.0
O102 O 0.97292 0.99736 0.53257 0.0
O103 O 0.97845 0.97812 0.69004 0.0
C104 C 0.06865 0.00738 0.60405 0.0
C105 C 0.94119 0.04809 0.68424 0.0
C106 C 0.02127 0.09032 0.56112 0.0
C107 C 0.02717 0.05849 0.81243 0.0
C108 C 0.9851 0.0014 0.47643 0.0
C109 C 0.99325 0.96994 0.73592 0.0
O110 O 0.05636 0.01872 0.55744 0.0
O111 O 0.47591 0.05079 0.81784 0.0
Zn112 Zn 0.48905 0.02169 0.87317 0.0
O113 O 0.49182 0.9924 0.81245 0.0
Zn114 Zn 0.47794 0.96347 0.86046 0.0
Zn115 Zn 0.47389 0.99781 0.7254 0.0
Zn116 Zn 0.52652 0.98665 0.79114 0.0
O117 O 0.50394 0.93786 0.87859 0.0
O118 O 0.53569 0.95109 0.81299 0.0
O119 O 0.46563 0.01469 0.95413 0.0
O120 O 0.46146 0.97332 0.95065 0.0
O121 O 0.45122 0.94713 0.80241 0.0
O122 O 0.44804 0.9706 0.70719 0.0
O123 O 0.49762 0.00085 0.64318 0.0
O124 O 0.52232 0.031 0.91504 0.0
O125 O 0.53449 0.99501 0.69101 0.0
O126 O 0.54845 0.00849 0.85145 0.0
C127 C 0.46177 0.05084 0.76438 0.0
C128 C 0.52545 0.93472 0.85264 0.0
C129 C 0.44115 0.95177 0.74373 0.0
C130 C 0.45706 0.99427 0.97963 0.0
C131 C 0.52116 0.00015 0.6382 0.0
C132 C 0.54423 0.02457 0.8991 0.0
O133 O 0.45723 0.03107 0.72888 0.0
O134 O 0.46223 0.53928 0.68455 0.0
Zn135 Zn 0.49502 0.52409 0.70913 0.0
O136 O 0.51071 0.51199 0.62265 0.0
Zn137 Zn 0.51919 0.47747 0.63401 0.0
Zn138 Zn 0.48856 0.5142 0.54224 0.0
Zn139 Zn 0.54108 0.53089 0.60548 0.0
O140 O 0.55536 0.47336 0.65296 0.0
O141 O 0.57144 0.51048 0.62448 0.0
O142 O 0.4868 0.49545 0.77579 0.0
O143 O 0.49992 0.463 0.71365 0.0
O144 O 0.50935 0.45683 0.55148 0.0
O145 O 0.48155 0.48005 0.49809 0.0
O146 O 0.50386 0.53672 0.46831 0.0
O147 O 0.51621 0.55107 0.7569 0.0
O148 O 0.54153 0.5458 0.50908 0.0
O149 O 0.54378 0.55934 0.67286 0.0
C150 C 0.44899 0.53947 0.62928 0.0
C151 C 0.57399 0.4881 0.64558 0.0
C152 C 0.49275 0.45943 0.50509 0.0
C153 C 0.48879 0.47196 0.7666 0.0
C154 C 0.52504 0.54748 0.46174 0.0
C155 C 0.53411 0.56429 0.73206 0.0
O156 O 0.45648 0.52976 0.57205 0.0
O157 O 0.97139 0.50381 0.6121 0.0
Zn158 Zn 0.99731 0.51283 0.6847 0.0
O159 O 0.00238 0.48511 0.75006 0.0
Zn160 Zn 0.99337 0.49548 0.84441 0.0
Zn161 Zn 0.98115 0.45661 0.72337 0.0
Zn162 Zn 0.03729 0.47552 0.74984 0.0
O163 O 0.02067 0.48972 0.91276 0.0
O164 O 0.05274 0.47938 0.84617 0.0
O165 O 0.98627 0.54398 0.73615 0.0
O166 O 0.9858 0.53196 0.84744 0.0
O167 O 0.96317 0.4771 0.87907 0.0
O168 O 0.95555 0.44827 0.7978 0.0
O169 O 0.00147 0.42628 0.70424 0.0
O170 O 0.02924 0.5216 0.63407 0.0
O171 O 0.04044 0.4393 0.71988 0.0
O172 O 0.05719 0.4972 0.68309 0.0
C173 C 0.95927 0.48364 0.59896 0.0
C174 C 0.04337 0.48425 0.90596 0.0
C175 C 0.95037 0.45864 0.85608 0.0
C176 C 0.98307 0.54872 0.80107 0.0
C177 C 0.02464 0.42214 0.70414 0.0
C178 C 0.05147 0.51429 0.63999 0.0
O179 O 0.96184 0.4642 0.63639 0.0
H180 H 0.17139 0.90293 0.61484 0.0
H181 H 0.19918 0.93226 0.41702 0.0
H182 H 0.16952 0.96674 0.42463 0.0
H183 H 0.10844 0.91484 0.58501 0.0
H184 H 0.10165 0.92343 0.6744 0.0
H185 H 0.12629 0.90219 0.65586 0.0
H186 H 0.15715 0.93118 0.72322 0.0
H187 H 0.13256 0.95256 0.74183 0.0
H188 H 0.1604 0.96359 0.69844 0.0
H189 H 0.13474 0.99605 0.4492 0.0
H190 H 0.09746 0.01812 0.48914 0.0
H191 H 0.09309 0.97022 0.67231 0.0
C192 C 0.17144 0.91674 0.57345 0.0
C193 C 0.18762 0.9149 0.51532 0.0
C194 C 0.18699 0.9333 0.46211 0.0
C195 C 0.17025 0.953 0.46604 0.0
C196 C 0.15441 0.95413 0.52377 0.0
C197 C 0.15494 0.93656 0.57668 0.0
C198 C 0.13525 0.94141 0.63155 0.0
C199 C 0.11682 0.91915 0.63698 0.0
C200 C 0.14705 0.94756 0.70299 0.0
C201 C 0.12319 0.96414 0.60043 0.0
C202 C 0.1346 0.97127 0.53847 0.0
C203 C 0.12584 0.99085 0.4981 0.0
C204 C 0.10463 0.00324 0.52116 0.0
C205 C 0.09246 0.99603 0.5841 0.0
C206 C 0.1022 0.97648 0.62464 0.0
H207 H 0.48463 0.17987 0.57729 0.0
H208 H 0.4113 0.17055 0.48685 0.0
H209 H 0.40252 0.13541 0.56723 0.0
H210 H 0.49767 0.11783 0.59027 0.0
H211 H 0.51392 0.11983 0.6726 0.0
H212 H 0.51295 0.14667 0.61638 0.0
H213 H 0.49432 0.17281 0.71769 0.0
H214 H 0.49525 0.14593 0.77442 0.0
H215 H 0.46648 0.1618 0.76116 0.0
H216 H 0.40459 0.09707 0.64058 0.0
H217 H 0.41674 0.05948 0.70627 0.0
H218 H 0.48752 0.09492 0.75523 0.0
C219 C 0.46648 0.17086 0.57564 0.0
C220 C 0.44864 0.17796 0.52585 0.0
C221 C 0.42522 0.16553 0.52479 0.0
C222 C 0.42003 0.14558 0.57039 0.0
C223 C 0.43828 0.1386 0.61756 0.0
C224 C 0.46092 0.15109 0.62126 0.0
C225 C 0.47811 0.13857 0.6724 0.0
C226 C 0.50206 0.13023 0.63569 0.0
C227 C 0.48387 0.15581 0.73515 0.0
C228 C 0.46205 0.11638 0.69424 0.0
C229 C 0.43904 0.11687 0.66249 0.0
C230 C 0.4222 0.09683 0.66751 0.0
C231 C 0.42925 0.07558 0.70472 0.0
C232 C 0.45278 0.07468 0.73697 0.0
C233 C 0.46906 0.09559 0.73321 0.0
H234 H 0.32232 0.58848 0.47076 0.0
H235 H 0.30726 0.62185 0.67399 0.0
H236 H 0.346 0.60444 0.71999 0.0
H237 H 0.34913 0.53139 0.53557 0.0
H238 H 0.37209 0.53022 0.46682 0.0
H239 H 0.34271 0.54454 0.45077 0.0
H240 H 0.36548 0.58543 0.41249 0.0
H241 H 0.39491 0.57126 0.42849 0.0
H242 H 0.38741 0.60027 0.47124 0.0
H243 H 0.38693 0.5843 0.74285 0.0
H244 H 0.42718 0.5632 0.74074 0.0
H245 H 0.41542 0.54331 0.52211 0.0
C246 C 0.32705 0.59199 0.52509 0.0
C247 C 0.31174 0.60648 0.56884 0.0
C248 C 0.3187 0.61078 0.63951 0.0
C249 C 0.34065 0.60095 0.66615 0.0
C250 C 0.3554 0.58688 0.62145 0.0
C251 C 0.34889 0.58239 0.55246 0.0
C252 C 0.36828 0.56721 0.51489 0.0
C253 C 0.3574 0.54184 0.4906 0.0
C254 C 0.37969 0.58193 0.45314 0.0
C255 C 0.38682 0.56404 0.57339 0.0
C256 C 0.379 0.57541 0.63451 0.0
C257 C 0.39321 0.57525 0.69535 0.0
C258 C 0.41606 0.56322 0.69358 0.0
C259 C 0.42453 0.55157 0.63128 0.0
C260 C 0.40954 0.55198 0.57064 0.0
H261 H 0.12302 0.31427 0.64531 0.0
H262 H 0.06123 0.26478 0.59052 0.0
H263 H 0.03238 0.29955 0.6077 0.0
H264 H 0.09188 0.34792 0.7805 0.0
H265 H 0.10641 0.3776 0.75934 0.0
H266 H 0.1223 0.34899 0.74108 0.0
H267 H 0.12705 0.36182 0.61071 0.0
H268 H 0.11121 0.39049 0.62861 0.0
H269 H 0.0999 0.36958 0.56109 0.0
H270 H 0.01022 0.33939 0.63296 0.0
H271 H 0.99619 0.38162 0.66369 0.0
H272 H 0.0725 0.4052 0.70197 0.0
C273 C 0.10344 0.31074 0.63662 0.0
C274 C 0.09438 0.28679 0.61651 0.0
C275 C 0.06861 0.28296 0.60588 0.0
C276 C 0.05207 0.3026 0.6155 0.0
C277 C 0.06161 0.32593 0.63566 0.0
C278 C 0.08668 0.33011 0.64598 0.0
C279 C 0.0921 0.35688 0.66832 0.0
C280 C 0.10386 0.35789 0.74167 0.0
C281 C 0.10853 0.37049 0.61392 0.0
C282 C 0.06612 0.36707 0.66927 0.0
C283 C 0.04883 0.34891 0.65018 0.0
C284 C 0.0236 0.35379 0.64783 0.0
C285 C 0.01582 0.37786 0.66548 0.0
C286 C 0.03322 0.39682 0.68528 0.0
C287 C 0.05871 0.39122 0.68698 0.0
H288 H 0.83717 0.11195 0.91899 0.0
H289 H 0.79368 0.04378 0.88815 0.0
H290 H 0.82399 0.02944 0.80005 0.0
H291 H 0.8612 0.11894 0.73736 0.0
H292 H 0.89157 0.12898 0.76641 0.0
H293 H 0.86467 0.13583 0.81885 0.0
H294 H 0.88445 0.11405 0.92552 0.0
H295 H 0.91139 0.10723 0.87355 0.0
H296 H 0.89454 0.08224 0.91686 0.0
H297 H 0.85964 0.0213 0.7219 0.0
H298 H 0.90075 0.01717 0.66803 0.0
H299 H 0.92335 0.0893 0.75493 0.0
C300 C 0.83383 0.0943 0.89228 0.0
C301 C 0.81299 0.07906 0.90914 0.0
C302 C 0.80951 0.0557 0.87531 0.0
C303 C 0.82651 0.04752 0.82499 0.0
C304 C 0.84706 0.06279 0.80996 0.0
C305 C 0.85101 0.08554 0.84313 0.0
C306 C 0.87612 0.09682 0.82354 0.0
C307 C 0.8732 0.12161 0.78419 0.0
C308 C 0.89259 0.10027 0.88874 0.0
C309 C 0.88583 0.07659 0.77536 0.0
C310 C 0.86848 0.05745 0.76714 0.0
C311 C 0.87335 0.03621 0.72758 0.0
C312 C 0.89684 0.03406 0.69719 0.0
C313 C 0.91542 0.05288 0.70728 0.0
C314 C 0.90954 0.0747 0.74562 0.0
H315 H 0.62967 0.83177 0.81072 0.0
H316 H 0.60184 0.79848 0.0035 0.0
H317 H 0.56989 0.83084 0.01113 0.0
H318 H 0.62159 0.89588 0.86459 0.0
H319 H 0.61272 0.90617 0.7785 0.0
H320 H 0.63312 0.88013 0.78772 0.0
H321 H 0.60309 0.85247 0.71354 0.0
H322 H 0.58256 0.87839 0.70433 0.0
H323 H 0.57107 0.84919 0.73993 0.0
H324 H 0.54014 0.86587 0.99551 0.0
H325 H 0.51659 0.90316 0.96283 0.0
H326 H 0.56512 0.91476 0.78326 0.0
C327 C 0.61685 0.83129 0.85453 0.0
C328 C 0.61815 0.81259 0.90642 0.0
C329 C 0.6012 0.8127 0.96328 0.0
C330 C 0.58294 0.83093 0.96793 0.0
C331 C 0.58209 0.84904 0.91571 0.0
C332 C 0.59874 0.84954 0.8605 0.0
C333 C 0.5942 0.87141 0.8123 0.0
C334 C 0.61675 0.88946 0.81072 0.0
C335 C 0.58731 0.86231 0.73814 0.0
C336 C 0.5723 0.88306 0.84884 0.0
C337 C 0.56547 0.86973 0.90802 0.0
C338 C 0.5454 0.87655 0.94953 0.0
C339 C 0.53209 0.8977 0.93037 0.0
C340 C 0.53908 0.91193 0.87068 0.0
C341 C 0.55945 0.9044 0.82949 0.0
H342 H 0.66561 0.3913 0.81659 0.0
H343 H 0.70855 0.45543 0.89079 0.0
H344 H 0.68285 0.4834 0.81952 0.0
H345 H 0.65243 0.41416 0.63879 0.0
H346 H 0.62111 0.40179 0.63982 0.0
H347 H 0.64491 0.38647 0.68884 0.0
H348 H 0.61862 0.39028 0.80229 0.0
H349 H 0.59474 0.40542 0.75356 0.0
H350 H 0.60807 0.4206 0.82951 0.0
H351 H 0.65148 0.50445 0.74452 0.0
H352 H 0.61358 0.51772 0.68416 0.0
H353 H 0.58928 0.44009 0.66561 0.0
C354 C 0.66984 0.41119 0.81665 0.0
C355 C 0.68919 0.42128 0.85826 0.0
C356 C 0.69382 0.44742 0.8589 0.0
C357 C 0.67946 0.46339 0.81825 0.0
C358 C 0.66037 0.45291 0.77803 0.0
C359 C 0.65531 0.42745 0.77767 0.0
C360 C 0.63206 0.42126 0.73633 0.0
C361 C 0.63799 0.40496 0.67213 0.0
C362 C 0.61221 0.40866 0.78323 0.0
C363 C 0.62459 0.44725 0.71461 0.0
C364 C 0.64149 0.46517 0.73771 0.0
C365 C 0.63818 0.49058 0.72581 0.0
C366 C 0.61664 0.49793 0.69119 0.0
C367 C 0.59848 0.47994 0.67019 0.0
C368 C 0.60286 0.45426 0.68083 0.0
H369 H 0.92354 0.68337 0.75911 0.0
H370 H 0.93092 0.69217 0.98459 0.0
H371 H 0.95145 0.65141 0.99084 0.0
H372 H 0.90954 0.61828 0.75957 0.0
H373 H 0.92685 0.61163 0.68093 0.0
H374 H 0.91381 0.64205 0.69354 0.0
H375 H 0.95724 0.66272 0.6762 0.0
H376 H 0.97043 0.63234 0.66348 0.0
H377 H 0.98266 0.65306 0.7302 0.0
H378 H 0.96914 0.60898 0.9737 0.0
H379 H 0.98345 0.56776 0.93425 0.0
H380 H 0.96525 0.5867 0.71942 0.0
C381 C 0.92963 0.67683 0.80976 0.0
C382 C 0.92562 0.69097 0.8714 0.0
C383 C 0.93381 0.68169 0.93666 0.0
C384 C 0.94551 0.65857 0.94075 0.0
C385 C 0.94901 0.64504 0.87909 0.0
C386 C 0.94142 0.65383 0.81478 0.0
C387 C 0.94687 0.6353 0.75672 0.0
C388 C 0.92283 0.62628 0.72059 0.0
C389 C 0.96541 0.64653 0.70352 0.0
C390 C 0.95839 0.61454 0.79863 0.0
C391 C 0.95949 0.6206 0.86908 0.0
C392 C 0.96855 0.60409 0.91861 0.0
C393 C 0.97658 0.58069 0.89563 0.0
C394 C 0.97555 0.57399 0.82367 0.0
C395 C 0.96652 0.59132 0.77463 0.0
H396 H 0.13325 0.18573 0.54478 0.0
H397 H 0.1096 0.20574 0.33577 0.0
H398 H 0.07118 0.18047 0.35175 0.0
H399 H 0.11228 0.12521 0.5476 0.0
H400 H 0.10136 0.12514 0.63702 0.0
H401 H 0.12583 0.14647 0.61102 0.0
H402 H 0.10032 0.1839 0.65578 0.0
H403 H 0.07573 0.16262 0.68235 0.0
H404 H 0.06928 0.18807 0.62384 0.0
H405 H 0.03926 0.14746 0.38379 0.0
H406 H 0.01433 0.11233 0.43398 0.0
H407 H 0.05541 0.11892 0.62789 0.0
C408 C 0.1196 0.18557 0.50338 0.0
C409 C 0.1246 0.19727 0.43856 0.0
C410 C 0.10653 0.19609 0.38491 0.0
C411 C 0.08447 0.18214 0.39395 0.0
C412 C 0.08038 0.17024 0.45794 0.0
C413 C 0.09719 0.17233 0.51235 0.0
C414 C 0.08888 0.15694 0.57489 0.0
C415 C 0.10823 0.13728 0.59366 0.0
C416 C 0.08321 0.17389 0.63795 0.0
C417 C 0.06543 0.14487 0.54592 0.0
C418 C 0.06079 0.15281 0.47836 0.0
C419 C 0.04211 0.14176 0.43752 0.0
C420 C 0.02806 0.12189 0.46621 0.0
C421 C 0.0325 0.11375 0.53532 0.0
C422 C 0.05103 0.12569 0.57599 0.0
H423 H 0.33146 0.90715 0.49107 0.0
H424 H 0.30189 0.8643 0.66641 0.0
H425 H 0.33913 0.87534 0.73488 0.0
H426 H 0.39621 0.89516 0.51679 0.0
H427 H 0.40613 0.92657 0.49481 0.0
H428 H 0.37836 0.91333 0.45635 0.0
H429 H 0.353 0.9505 0.5029 0.0
H430 H 0.38074 0.96407 0.54034 0.0
H431 H 0.35391 0.9582 0.59492 0.0
H432 H 0.3783 0.89259 0.78658 0.0
H433 H 0.41575 0.91663 0.82063 0.0
H434 H 0.4182 0.95116 0.61473 0.0
C435 C 0.33228 0.90047 0.544 0.0
C436 C 0.31317 0.88531 0.57335 0.0
C437 C 0.31613 0.87601 0.64236 0.0
C438 C 0.33725 0.88216 0.68184 0.0
C439 C 0.35531 0.89772 0.65181 0.0
C440 C 0.35301 0.90687 0.58463 0.0
C441 C 0.37434 0.92456 0.56632 0.0
C442 C 0.38967 0.91427 0.50493 0.0
C443 C 0.36493 0.9509 0.55021 0.0
C444 C 0.3888 0.9242 0.63426 0.0
C445 C 0.37767 0.90826 0.68238 0.0
C446 C 0.38725 0.90506 0.74931 0.0
C447 C 0.40858 0.91881 0.76807 0.0
C448 C 0.41995 0.93584 0.7204 0.0
C449 C 0.40999 0.9383 0.65234 0.0
H450 H 0.49425 0.31457 0.41533 0.0
H451 H 0.4226 0.32276 0.31682 0.0
H452 H 0.42549 0.36856 0.33527 0.0
H453 H 0.48539 0.3598 0.54899 0.0
H454 H 0.51715 0.37091 0.5481 0.0
H455 H 0.5098 0.33918 0.52283 0.0
H456 H 0.53217 0.34643 0.4038 0.0
H457 H 0.53935 0.3783 0.42851 0.0
H458 H 0.52283 0.37177 0.34832 0.0
H459 H 0.43591 0.41357 0.36857 0.0
H460 H 0.45145 0.45316 0.42166 0.0
H461 H 0.51606 0.41469 0.49822 0.0
C462 C 0.47922 0.32604 0.39741 0.0
C463 C 0.45847 0.3153 0.36318 0.0
C464 C 0.43903 0.33079 0.3411 0.0
C465 C 0.44045 0.35678 0.35173 0.0
C466 C 0.46145 0.36688 0.38441 0.0
C467 C 0.48041 0.35194 0.40729 0.0
C468 C 0.50045 0.36714 0.44384 0.0
C469 C 0.50335 0.35876 0.52047 0.0
C470 C 0.52516 0.36583 0.4037 0.0
C471 C 0.4896 0.39293 0.43928 0.0
C472 C 0.46726 0.39254 0.40415 0.0
C473 C 0.45347 0.41412 0.39584 0.0
C474 C 0.46249 0.43654 0.4259 0.0
C475 C 0.48496 0.43706 0.46416 0.0
C476 C 0.49884 0.41501 0.46925 0.0
H477 H 0.18698 0.57069 0.56775 0.0
H478 H 0.15862 0.60195 0.37538 0.0
H479 H 0.11784 0.58141 0.39773 0.0
H480 H 0.15346 0.51026 0.55139 0.0
H481 H 0.14833 0.5077 0.64455 0.0
H482 H 0.17545 0.5241 0.61176 0.0
H483 H 0.16341 0.56346 0.68289 0.0
H484 H 0.13627 0.54721 0.71575 0.0
H485 H 0.1332 0.57659 0.67081 0.0
H486 H 0.07934 0.56051 0.44669 0.0
H487 H 0.04655 0.53841 0.51461 0.0
H488 H 0.10086 0.51843 0.67103 0.0
C489 C 0.1722 0.57293 0.53014 0.0
C490 C 0.1758 0.58768 0.46969 0.0
C491 C 0.15617 0.59039 0.4215 0.0
C492 C 0.13298 0.57891 0.43393 0.0
C493 C 0.12996 0.56444 0.49413 0.0
C494 C 0.14913 0.56113 0.54096 0.0
C495 C 0.14099 0.54476 0.60179 0.0
C496 C 0.15541 0.52025 0.60237 0.0
C497 C 0.14362 0.55886 0.67194 0.0
C498 C 0.11405 0.54007 0.58308 0.0
C499 C 0.10804 0.55157 0.52079 0.0
C500 C 0.0839 0.55111 0.49498 0.0
C501 C 0.0654 0.5386 0.534 0.0
C502 C 0.07122 0.52653 0.59767 0.0
C503 C 0.09594 0.52712 0.62192 0.0
H504 H 0.91635 0.84258 0.7858 0.0
H505 H 0.96411 0.82569 0.96095 0.0
H506 H 0.9881 0.86494 0.94012 0.0
H507 H 0.96407 0.87047 0.67379 0.0
H508 H 0.94372 0.8939 0.64022 0.0
H509 H 0.93123 0.864 0.6676 0.0
H510 H 0.90113 0.8863 0.75247 0.0
H511 H 0.91363 0.91624 0.72563 0.0
H512 H 0.91345 0.90784 0.81708 0.0
H513 H 0.00619 0.9068 0.90098 0.0
H514 H 0.0167 0.94774 0.84708 0.0
H515 H 0.95649 0.9367 0.69887 0.0
C516 C 0.93205 0.84705 0.81917 0.0
C517 C 0.93824 0.83143 0.87555 0.0
C518 C 0.95879 0.83781 0.91844 0.0
C519 C 0.97261 0.85992 0.90667 0.0
C520 C 0.96567 0.87527 0.85151 0.0
C521 C 0.94591 0.86906 0.80835 0.0
C522 C 0.94172 0.88907 0.75413 0.0
C523 C 0.94542 0.87874 0.67953 0.0
C524 C 0.91596 0.90054 0.7629 0.0
C525 C 0.96211 0.90757 0.77368 0.0
C526 C 0.97585 0.8993 0.82966 0.0
C527 C 0.99559 0.91344 0.85698 0.0
C528 C 0.00141 0.93666 0.82609 0.0
C529 C 0.9874 0.9455 0.76891 0.0
C530 C 0.96754 0.93061 0.74269 0.0
H531 H 0.67841 0.08548 0.9637 0.0
H532 H 0.67342 0.05565 0.17442 0.0
H533 H 0.63075 0.04075 0.15155 0.0
H534 H 0.61534 0.10351 0.94045 0.0
H535 H 0.61316 0.09219 0.8515 0.0
H536 H 0.64267 0.10263 0.88592 0.0
H537 H 0.66166 0.05986 0.85445 0.0
H538 H 0.63229 0.04941 0.81926 0.0
H539 H 0.64708 0.0315 0.88659 0.0
H540 H 0.58763 0.03166 0.10828 0.0
H541 H 0.5502 0.02026 0.03931 0.0
H542 H 0.58544 0.04968 0.8516 0.0
C543 C 0.66822 0.07603 0.00521 0.0
C544 C 0.67854 0.07343 0.07275 0.0
C545 C 0.66511 0.05988 0.12452 0.0
C546 C 0.64101 0.05088 0.11149 0.0
C547 C 0.6309 0.05485 0.04556 0.0
C548 C 0.64435 0.06632 0.99247 0.0
C549 C 0.63 0.06595 0.92429 0.0
C550 C 0.625 0.09266 0.89909 0.0
C551 C 0.64356 0.05077 0.86783 0.0
C552 C 0.6063 0.05276 0.94775 0.0
C553 C 0.60702 0.04703 0.01832 0.0
C554 C 0.58694 0.03572 0.05277 0.0
C555 C 0.56577 0.0295 0.01352 0.0
C556 C 0.5652 0.03411 0.94065 0.0
C557 C 0.58562 0.04597 0.9074 0.0
H558 H 0.61609 0.6884 0.78136 0.0
H559 H 0.61124 0.67679 0.00562 0.0
H560 H 0.5834 0.64011 0.98663 0.0
H561 H 0.55397 0.66959 0.7367 0.0
H562 H 0.56285 0.65359 0.65742 0.0
H563 H 0.58132 0.67965 0.68918 0.0
H564 H 0.62027 0.65201 0.69022 0.0
H565 H 0.60195 0.62598 0.65777 0.0
H566 H 0.61939 0.62289 0.73762 0.0
H567 H 0.55527 0.60494 0.94184 0.0
H568 H 0.53335 0.5714 0.87498 0.0
H569 H 0.55947 0.60471 0.68047 0.0
C570 C 0.60916 0.6781 0.82638 0.0
C571 C 0.61478 0.68604 0.89518 0.0
C572 C 0.60587 0.67182 0.95276 0.0
C573 C 0.59035 0.65079 0.94237 0.0
C574 C 0.58443 0.64391 0.87383 0.0
C575 C 0.59393 0.6569 0.81681 0.0
C576 C 0.58575 0.645 0.74847 0.0
C577 C 0.57004 0.66304 0.70543 0.0
C578 C 0.60818 0.63593 0.70605 0.0
C579 C 0.57022 0.62328 0.77589 0.0
C580 C 0.56937 0.62309 0.84827 0.0
C581 C 0.5559 0.60483 0.88511 0.0
C582 C 0.54341 0.58596 0.84682 0.0
C583 C 0.54484 0.5854 0.77271 0.0
C584 C 0.55818 0.60453 0.73716 0.0
H585 H 0.82403 0.38168 0.92305 0.0
H586 H 0.80902 0.43518 0.08806 0.0
H587 H 0.85068 0.45403 0.07286 0.0
H588 H 0.89058 0.37483 0.95371 0.0
H589 H 0.8981 0.37418 0.86157 0.0
H590 H 0.86829 0.36266 0.89147 0.0
H591 H 0.8465 0.3931 0.80725 0.0
H592 H 0.87621 0.40466 0.77706 0.0
H593 H 0.8539 0.42609 0.81197 0.0
H594 H 0.89284 0.46827 0.03668 0.0
H595 H 0.93165 0.47958 0.97547 0.0
H596 H 0.91852 0.41905 0.82662 0.0
C597 C 0.82976 0.39707 0.95673 0.0
C598 C 0.81393 0.40602 0.00995 0.0
C599 C 0.82159 0.42683 0.05098 0.0
C600 C 0.84506 0.43795 0.04175 0.0
C601 C 0.86044 0.42839 0.9899 0.0
C602 C 0.85304 0.40865 0.94735 0.0
C603 C 0.87233 0.4035 0.89144 0.0
C604 C 0.88295 0.37723 0.9001 0.0
C605 C 0.86159 0.40706 0.81757 0.0
C606 C 0.89152 0.42365 0.90877 0.0
C607 C 0.88439 0.43753 0.96636 0.0
C608 C 0.8987 0.45751 0.99163 0.0
C609 C 0.92074 0.46376 0.95643 0.0
C610 C 0.92818 0.45024 0.89608 0.0
C611 C 0.91343 0.42972 0.87265 0.0
H612 H 0.12672 0.10362 0.097 0.0
H613 H 0.07443 0.16048 0.15842 0.0
H614 H 0.04356 0.14223 0.07717 0.0
H615 H 0.11175 0.10305 0.91688 0.0
H616 H 0.11502 0.0698 0.90556 0.0
H617 H 0.13246 0.08608 0.97246 0.0
H618 H 0.11421 0.05599 0.06642 0.0
H619 H 0.09666 0.03961 -0.00029 0.0
H620 H 0.08105 0.05237 0.07509 0.0
H621 H 0.01946 0.11996 0.98448 0.0
H622 H 0.00355 0.09508 0.88482 0.0
H623 H 0.07099 0.05209 0.88332 0.0
C624 C 0.10868 0.11206 0.09398 0.0
C625 C 0.10301 0.13349 0.13418 0.0
C626 C 0.07925 0.1441 0.12815 0.0
C627 C 0.06153 0.13381 0.08233 0.0
C628 C 0.06779 0.11286 0.04303 0.0
C629 C 0.09074 0.10204 0.04836 0.0
C630 C 0.09308 0.08031 0.99757 0.0
C631 C 0.11433 0.08511 0.94501 0.0
C632 C 0.09644 0.0556 0.03708 0.0
C633 C 0.06802 0.08095 0.96197 0.0
C634 C 0.05371 0.09979 0.98945 0.0
C635 C 0.03037 0.10498 0.96297 0.0
C636 C 0.02153 0.09077 0.90621 0.0
C637 C 0.03597 0.07156 0.87646 0.0
C638 C 0.05937 0.06638 0.90561 0.0
H639 H 0.36206 0.93604 0.25678 0.0
H640 H 0.35235 0.01071 0.34132 0.0
H641 H 0.38365 0.02723 0.2574 0.0
H642 H 0.42816 0.94146 0.22748 0.0
H643 H 0.42701 0.9234 0.14753 0.0
H644 H 0.40445 0.9176 0.21567 0.0
H645 H 0.36895 0.92484 0.12715 0.0
H646 H 0.39138 0.93064 0.05878 0.0
H647 H 0.36841 0.95367 0.07851 0.0
H648 H 0.41518 0.03558 0.1604 0.0
H649 H 0.44406 0.03501 0.05945 0.0
H650 H 0.43279 0.95459 0.0412 0.0
C651 C 0.36653 0.95587 0.25802 0.0
C652 C 0.35471 0.9721 0.30558 0.0
C653 C 0.36116 0.99792 0.30533 0.0
C654 C 0.37893 0.00746 0.25793 0.0
C655 C 0.39012 0.99091 0.21148 0.0
C656 C 0.38418 0.96565 0.2114 0.0
C657 C 0.39842 0.95179 0.15558 0.0
C658 C 0.41553 0.93242 0.18855 0.0
C659 C 0.38073 0.93953 0.10183 0.0
C660 C 0.41316 0.97322 0.12356 0.0
C661 C 0.40823 0.99565 0.15649 0.0
C662 C 0.41928 0.01809 0.13452 0.0
C663 C 0.43565 0.01758 0.07711 0.0
C664 C 0.44079 0.99476 0.04238 0.0
C665 C 0.42945 0.97235 0.06665 0.0
H666 H 0.46441 0.39951 0.12443 0.0
H667 H 0.42397 0.34388 0.001 0.0
H668 H 0.42781 0.37091 0.89718 0.0
H669 H 0.43888 0.45521 0.0353 0.0
H670 H 0.468 0.47225 0.04013 0.0
H671 H 0.45975 0.44984 0.10708 0.0
H672 H 0.50072 0.42667 0.0842 0.0
H673 H 0.50903 0.44888 0.01708 0.0
H674 H 0.50774 0.41593 0.99677 0.0
H675 H 0.44067 0.40051 0.80447 0.0
H676 H 0.45979 0.43276 0.7283 0.0
H677 H 0.49019 0.47085 0.91074 0.0
C678 C 0.45594 0.39323 0.0759 0.0
C679 C 0.4439 0.36955 0.07084 0.0
C680 C 0.43325 0.36193 0.00624 0.0
C681 C 0.43528 0.37718 0.94696 0.0
C682 C 0.44774 0.40012 0.95331 0.0
C683 C 0.45765 0.40832 0.01619 0.0
C684 C 0.47135 0.43318 0.00751 0.0
C685 C 0.45873 0.45384 0.05003 0.0
C686 C 0.49883 0.43101 0.02756 0.0
C687 C 0.46831 0.43719 0.92941 0.0
C688 C 0.45452 0.41787 0.89944 0.0
C689 C 0.45101 0.41603 0.82737 0.0
C690 C 0.46202 0.43432 0.78461 0.0
C691 C 0.47611 0.4543 0.81407 0.0
C692 C 0.47898 0.45602 0.88741 0.0
H693 H 0.15823 0.53252 0.12961 0.0
H694 H 0.11626 0.51154 0.31563 0.0
H695 H 0.08445 0.49108 0.2412 0.0
H696 H 0.10851 0.54819 0.02598 0.0
H697 H 0.12063 0.53571 0.94521 0.0
H698 H 0.14152 0.54606 0.01309 0.0
H699 H 0.16177 0.50251 0.01388 0.0
H700 H 0.14091 0.49202 0.94571 0.0
H701 H 0.14262 0.47488 0.0267 0.0
H702 H 0.05466 0.47845 0.14718 0.0
H703 H 0.02987 0.47238 0.03956 0.0
H704 H 0.09202 0.49925 0.9142 0.0
C705 C 0.14258 0.52321 0.15472 0.0
C706 C 0.13971 0.5236 0.22839 0.0
C707 C 0.11892 0.51133 0.25931 0.0
C708 C 0.10076 0.49964 0.21748 0.0
C709 C 0.1039 0.50002 0.14494 0.0
C710 C 0.12445 0.51117 0.11378 0.0
C711 C 0.12269 0.51014 0.03454 0.0
C712 C 0.12337 0.5366 0.00289 0.0
C713 C 0.14322 0.49392 0.00339 0.0
C714 C 0.09744 0.49764 0.02604 0.0
C715 C 0.087 0.49181 0.0904 0.0
C716 C 0.06284 0.48236 0.09642 0.0
C717 C 0.04889 0.47907 0.03513 0.0
C718 C 0.05921 0.48501 0.96877 0.0
C719 C 0.08395 0.49393 0.96418 0.0
H720 H 0.91544 0.89197 0.26924 0.0
H721 H 0.96927 0.90256 0.1017 0.0
H722 H 0.98672 0.93954 0.16349 0.0
H723 H 0.90568 0.9582 0.30686 0.0
H724 H 0.9033 0.95316 0.40007 0.0
H725 H 0.89381 0.92875 0.33995 0.0
H726 H 0.92378 0.89815 0.39982 0.0
H727 H 0.93324 0.92241 0.4602 0.0
H728 H 0.95612 0.90677 0.40783 0.0
H729 H -0.00018 0.97397 0.24716 0.0
H730 H 0.00862 0.00176 0.3482 0.0
H731 H 0.94616 0.96829 0.46027 0.0
C732 C 0.9307 0.90222 0.24505 0.0
C733 C 0.94093 0.89441 0.18054 0.0
C734 C 0.96111 0.90819 0.15112 0.0
C735 C 0.97109 0.92929 0.18564 0.0
C736 C 0.96066 0.93639 0.24943 0.0
C737 C 0.94094 0.92323 0.27888 0.0
C738 C 0.93404 0.93379 0.34984 0.0
C739 C 0.90764 0.94409 0.34909 0.0
C740 C 0.93698 0.91411 0.40782 0.0
C741 C 0.95325 0.95465 0.35634 0.0
C742 C 0.96827 0.95606 0.29764 0.0
C743 C 0.98803 0.97319 0.29314 0.0
C744 C 0.99286 0.98894 0.35079 0.0
C745 C 0.97807 0.9873 0.41223 0.0
C746 C 0.95774 0.97022 0.41403 0.0
H747 H 0.63424 0.05421 0.41312 0.0
H748 H 0.58118 0.07381 0.25272 0.0
H749 H 0.54772 0.05309 0.32111 0.0
H750 H 0.60715 0.99331 0.45529 0.0
H751 H 0.61347 0.99641 0.54769 0.0
H752 H 0.63342 0.01185 0.48467 0.0
H753 H 0.62619 0.05444 0.54608 0.0
H754 H 0.60642 0.03911 0.6095 0.0
H755 H 0.59494 0.06488 0.55922 0.0
H756 H 0.51972 0.03167 0.40979 0.0
H757 H 0.4993 0.01281 0.51354 0.0
H758 H 0.57098 0.00691 0.61448 0.0
C759 C 0.61562 0.05407 0.39212 0.0
C760 C 0.61034 0.06569 0.32758 0.0
C761 C 0.58568 0.06513 0.30217 0.0
C762 C 0.56656 0.05329 0.34047 0.0
C763 C 0.57241 0.04202 0.40391 0.0
C764 C 0.59634 0.04236 0.42958 0.0
C765 C 0.59762 0.0297 0.50029 0.0
C766 C 0.61388 0.00643 0.49673 0.0
C767 C 0.60683 0.04813 0.55711 0.0
C768 C 0.5706 0.02253 0.51095 0.0
C769 C 0.55636 0.02961 0.4546 0.0
C770 C 0.53072 0.02586 0.45397 0.0
C771 C 0.51929 0.01508 0.51315 0.0
C772 C 0.53349 0.00824 0.57221 0.0
C773 C 0.55955 0.01163 0.57008 0.0
H774 H 0.59855 0.65368 0.25151 0.0
H775 H 0.5348 0.65895 0.11442 0.0
H776 H 0.51418 0.62409 0.17822 0.0
H777 H 0.59775 0.58666 0.2671 0.0
H778 H 0.60667 0.58716 0.35811 0.0
H779 H 0.61649 0.61223 0.30093 0.0
H780 H 0.59669 0.64455 0.38472 0.0
H781 H 0.58701 0.61962 0.4424 0.0
H782 H 0.56448 0.64088 0.40876 0.0
H783 H 0.50047 0.58882 0.25844 0.0
H784 H 0.49387 0.55755 0.35207 0.0
H785 H 0.5669 0.57577 0.43531 0.0
C786 C 0.58025 0.64754 0.23476 0.0
C787 C 0.56827 0.65903 0.178 0.0
C788 C 0.54429 0.65047 0.15797 0.0
C789 C 0.53249 0.63061 0.19366 0.0
C790 C 0.54493 0.61959 0.24915 0.0
C791 C 0.56822 0.62785 0.26978 0.0
C792 C 0.5774 0.61331 0.33208 0.0
C793 C 0.60097 0.59899 0.3134 0.0
C794 C 0.58163 0.63062 0.39574 0.0
C795 C 0.55556 0.59563 0.34363 0.0
C796 C 0.53707 0.59941 0.29511 0.0
C797 C 0.51487 0.58564 0.29657 0.0
C798 C 0.51132 0.56788 0.34989 0.0
C799 C 0.52987 0.56412 0.40109 0.0
C800 C 0.55238 0.578 0.39687 0.0
H801 H 0.85566 0.42145 0.35303 0.0
H802 H 0.84848 0.49377 0.25297 0.0
H803 H 0.88126 0.5113 0.3298 0.0
H804 H 0.86558 0.44496 0.52759 0.0
H805 H 0.88763 0.4214 0.54975 0.0
H806 H 0.86374 0.41458 0.48642 0.0
H807 H 0.89717 0.40228 0.39534 0.0
H808 H 0.92117 0.40914 0.45834 0.0
H809 H 0.92178 0.42429 0.37405 0.0
H810 H 0.91505 0.5209 0.41758 0.0
H811 H 0.94637 0.52206 0.51178 0.0
H812 H 0.93105 0.44347 0.55421 0.0
C813 C 0.86095 0.44098 0.34722 0.0
C814 C 0.84948 0.45623 0.29693 0.0
C815 C 0.85694 0.48171 0.29119 0.0
C816 C 0.87559 0.49184 0.33449 0.0
C817 C 0.88656 0.47627 0.38333 0.0
C818 C 0.87945 0.45141 0.39008 0.0
C819 C 0.89398 0.43873 0.44714 0.0
C820 C 0.8767 0.42938 0.50622 0.0
C821 C 0.90944 0.41735 0.41688 0.0
C822 C 0.91035 0.46034 0.4715 0.0
C823 C 0.90587 0.48182 0.43396 0.0
C824 C 0.91872 0.50419 0.44734 0.0
C825 C 0.93651 0.50465 0.5009 0.0
C826 C 0.94122 0.48288 0.54053 0.0
C827 C 0.92796 0.46046 0.52504 0.0
loop_
_geom_bond_atom_site_label_1
_geom_bond_atom_site_label_2
_geom_bond_distance
_geom_bond_site_symmetry_2
_ccdc_geom_bond_type
O0 Cd1 2.300 . S
O0 C7 1.275 . S
Cd1 O0 2.300 . S
Cd1 O9 2.381 . S
Cd1 O10 2.378 1_556 S
O2 Cd3 2.385 . S
O2 C7 1.255 1_554 S
Cd3 O2 2.385 . S
Cd3 O4 2.317 . S
O4 Cd3 2.317 . S
O4 C5 1.232 . S
C5 O4 1.232 . S
C5 O6 1.218 . S
O6 C5 1.218 . S
C7 O0 1.275 . S
C7 O2 1.255 1_556 S
C8 O9 1.258 . S
C8 O10 1.256 1_556 S
O9 Cd1 2.381 . S
O9 C8 1.258 . S
O10 Cd1 2.378 1_554 S
O10 C8 1.256 1_554 S
O11 Cd12 2.300 1_655 S
O11 C18 1.275 1_655 S
Cd12 O11 2.300 1_455 S
Cd12 O20 2.381 1_455 S
Cd12 O21 2.378 . S
O13 Cd14 2.385 . S
O13 C18 1.255 . S
Cd14 O13 2.385 . S
Cd14 O15 2.317 . S
O15 Cd14 2.317 . S
O15 C16 1.232 . S
C16 O15 1.232 . S
C16 O17 1.218 . S
O17 C16 1.218 . S
C18 O11 1.275 1_455 S
C18 O13 1.255 . S
C19 O20 1.254 1_455 S
C19 O21 1.261 . S
O20 Cd12 2.381 1_655 S
O20 C19 1.254 1_655 S
O21 Cd12 2.378 . S
O21 C19 1.261 . S
O22 Cd23 2.300 1_566 S
O22 C29 1.273 1_566 S
Cd23 O22 2.300 1_544 S
Cd23 O31 2.381 1_544 S
Cd23 O32 2.378 . S
O24 Cd25 2.385 . S
O24 C29 1.259 . S
Cd25 O24 2.385 . S
Cd25 O26 2.317 . S
O26 Cd25 2.317 . S
O26 C27 1.232 . S
C27 O26 1.232 . S
C27 O28 1.218 . S
O28 C27 1.218 . S
C29 O22 1.273 1_544 S
C29 O24 1.259 . S
C30 O31 1.258 1_544 S
C30 O32 1.256 . S
O31 Cd23 2.381 1_566 S
O31 C30 1.258 1_566 S
O32 Cd23 2.378 . S
O32 C30 1.256 . S
O33 Cd34 2.300 1_556 S
O33 C40 1.275 . S
Cd34 O33 2.300 1_554 S
Cd34 O42 2.381 1_554 S
Cd34 O43 2.378 . S
O35 Cd36 2.385 . S
O35 C40 1.255 1_554 S
Cd36 O35 2.385 . S
Cd36 O37 2.317 . S
O37 Cd36 2.317 . S
O37 C38 1.232 . S
C38 O37 1.232 . S
C38 O39 1.218 . S
O39 C38 1.218 . S
C40 O33 1.275 . S
C40 O35 1.255 1_556 S
C41 O42 1.258 . S
C41 O43 1.256 1_556 S
O42 Cd34 2.381 1_556 S
O42 C41 1.258 . S
O43 Cd34 2.378 . S
O43 C41 1.256 1_554 S
O44 Cd45 2.300 . S
O44 C51 1.275 . S
Cd45 O44 2.300 . S
Cd45 O53 2.381 . S
Cd45 O54 2.378 . S
O46 Cd47 2.385 . S
O46 C51 1.255 . S
Cd47 O46 2.385 . S
Cd47 O48 2.317 . S
O48 Cd47 2.317 . S
O48 C49 1.232 . S
C49 O48 1.232 . S
C49 O50 1.218 . S
O50 C49 1.218 . S
C51 O44 1.275 . S
C51 O46 1.255 . S
C52 O53 1.258 . S
C52 O54 1.256 . S
O53 Cd45 2.381 . S
O53 C52 1.258 . S
O54 Cd45 2.378 . S
O54 C52 1.256 . S
O55 Cd56 2.300 . S
O55 C62 1.275 . S
Cd56 O55 2.300 . S
Cd56 O64 2.381 . S
Cd56 O65 2.378 . S
O57 Cd58 2.385 . S
O57 C62 1.255 . S
Cd58 O57 2.385 . S
Cd58 O59 2.317 . S
O59 Cd58 2.317 . S
O59 C60 1.232 . S
C60 O59 1.232 . S
C60 O61 1.218 . S
O61 C60 1.218 . S
C62 O55 1.275 . S
C62 O57 1.255 . S
C63 O64 1.258 . S
C63 O65 1.256 . S
O64 Cd56 2.381 . S
O64 C63 1.258 . S
O65 Cd56 2.378 . S
O65 C63 1.256 . S
O66 Cd67 2.300 . S
O66 C73 1.275 . S
Cd67 O66 2.300 . S
Cd67 O75 2.381 1_545 S
Cd67 O76 2.378 . S
O68 Cd69 2.385 . S
O68 C73 1.255 . S
Cd69 O68 2.385 . S
Cd69 O70 2.317 . S
O70 Cd69 2.317 . S
O70 C71 1.232 . S
C71 O70 1.232 . S
C71 O72 1.218 . S
O72 C71 1.218 . S
C73 O66 1.275 . S
C73 O68 1.255 . S
C74 O75 1.258 1_545 S
C74 O76 1.256 . S
O75 Cd67 2.381 1_565 S
O75 C74 1.258 1_565 S
O76 Cd67 2.378 . S
O76 C74 1.256 . S
O77 Cd78 2.300 . S
O77 C84 1.275 . S
Cd78 O77 2.300 . S
Cd78 O86 2.381 . S
Cd78 O87 2.378 . S
O79 Cd80 2.385 . S
O79 C84 1.255 . S
Cd80 O79 2.385 . S
Cd80 O81 2.317 . S
O81 Cd80 2.317 . S
O81 C82 1.232 . S
C82 O81 1.232 . S
C82 O83 1.218 . S
O83 C82 1.218 . S
C84 O77 1.275 . S
C84 O79 1.255 . S
C85 O86 1.258 . S
C85 O87 1.256 . S
O86 Cd78 2.381 . S
O86 C85 1.258 . S
O87 Cd78 2.378 . S
O87 C85 1.256 . S
O88 Zn89 1.953 . S
O88 C104 1.225 1_545 S
Zn89 O88 1.953 . S
Zn89 O90 1.949 1_545 S
Zn89 O96 1.924 . S
Zn89 O101 1.918 1_545 S
O90 Zn89 1.949 1_565 S
O90 Zn91 1.881 1_465 S
O90 Zn92 1.952 . S
O90 Zn93 1.965 1_455 S
Zn91 O90 1.881 1_645 S
Zn91 O94 1.969 . S
Zn91 O97 1.928 1_655 S
Zn91 O98 1.962 1_655 S
Zn92 O90 1.952 . S
Zn92 O99 1.938 1_565 S
Zn92 O100 1.906 . S
Zn92 O110 1.953 . S
Zn93 O90 1.965 1_655 S
Zn93 O95 1.932 . S
Zn93 O102 1.977 . S
Zn93 O103 1.910 1_655 S
O94 Zn91 1.969 . S
O94 C105 1.226 . S
O95 Zn93 1.932 . S
O95 C105 1.307 1_565 S
O96 Zn89 1.924 . S
O96 C107 1.253 . S
O97 Zn91 1.928 1_455 S
O97 C107 1.283 . S
O98 Zn91 1.962 1_455 S
O98 C106 1.303 . S
O99 Zn92 1.938 1_545 S
O99 C106 1.247 . S
O100 Zn92 1.906 . S
O100 C108 1.304 1_455 S
O101 Zn89 1.918 1_565 S
O101 C109 1.311 . S
O102 Zn93 1.977 . S
O102 C108 1.272 . S
O103 Zn93 1.910 1_455 S
O103 C109 1.231 . S
C104 O88 1.225 1_565 S
C104 O110 1.298 . S
C105 O94 1.226 . S
C105 O95 1.307 1_545 S
C106 O98 1.303 . S
C106 O99 1.247 . S
C107 O96 1.253 . S
C107 O97 1.283 . S
C108 O100 1.304 1_655 S
C108 O102 1.272 . S
C109 O101 1.311 . S
C109 O103 1.231 . S
O110 Zn92 1.953 . S
O110 C104 1.298 . S
O111 Zn112 1.953 . S
O111 C127 1.225 . S
Zn112 O111 1.953 . S
Zn112 O113 1.949 . S
Zn112 O119 1.919 . S
Zn112 O124 1.924 . S
O113 Zn112 1.949 . S
O113 Zn114 1.923 1_545 S
O113 Zn115 1.950 . S
O113 Zn116 1.945 1_545 S
Zn114 O113 1.923 1_565 S
Zn114 O117 1.933 . S
Zn114 O120 1.941 . S
Zn114 O121 1.965 . S
Zn115 O113 1.950 . S
Zn115 O122 1.938 . S
Zn115 O123 1.906 . S
Zn115 O133 1.953 . S
Zn116 O113 1.945 1_565 S
Zn116 O118 1.932 . S
Zn116 O125 1.977 . S
Zn116 O126 1.910 1_565 S
O117 Zn114 1.933 . S
O117 C128 1.226 . S
O118 Zn116 1.932 . S
O118 C128 1.307 . S
O119 Zn112 1.919 . S
O119 C130 1.253 . S
O120 Zn114 1.941 . S
O120 C130 1.283 1_565 S
O121 Zn114 1.965 . S
O121 C129 1.303 1_565 S
O122 Zn115 1.938 . S
O122 C129 1.247 . S
O123 Zn115 1.906 . S
O123 C131 1.304 1_545 S
O124 Zn112 1.924 . S
O124 C132 1.311 . S
O125 Zn116 1.977 . S
O125 C131 1.272 . S
O126 Zn116 1.910 1_545 S
O126 C132 1.231 . S
C127 O111 1.225 . S
C127 O133 1.298 . S
C128 O117 1.226 . S
C128 O118 1.307 . S
C129 O121 1.303 1_545 S
C129 O122 1.247 . S
C130 O119 1.253 . S
C130 O120 1.283 1_545 S
C131 O123 1.304 1_565 S
C131 O125 1.272 . S
C132 O124 1.311 . S
C132 O126 1.231 . S
O133 Zn115 1.953 . S
O133 C127 1.298 . S
O134 Zn135 1.953 . S
O134 C150 1.225 . S
Zn135 O134 1.953 . S
Zn135 O136 1.949 . S
Zn135 O142 1.919 . S
Zn135 O147 1.924 . S
O136 Zn135 1.949 . S
O136 Zn137 1.923 . S
O136 Zn138 1.950 . S
O136 Zn139 1.945 . S
Zn137 O136 1.923 . S
Zn137 O140 1.933 . S
Zn137 O143 1.941 . S
Zn137 O144 1.965 . S
Zn138 O136 1.950 . S
Zn138 O145 1.938 . S
Zn138 O146 1.906 . S
Zn138 O156 1.953 . S
Zn139 O136 1.945 . S
Zn139 O141 1.932 . S
Zn139 O148 1.977 . S
Zn139 O149 1.910 . S
O140 Zn137 1.933 . S
O140 C151 1.226 . S
O141 Zn139 1.932 . S
O141 C151 1.307 . S
O142 Zn135 1.919 . S
O142 C153 1.253 . S
O143 Zn137 1.941 . S
O143 C153 1.283 . S
O144 Zn137 1.965 . S
O144 C152 1.303 . S
O145 Zn138 1.938 . S
O145 C152 1.247 . S
O146 Zn138 1.906 . S
O146 C154 1.304 . S
O147 Zn135 1.924 . S
O147 C155 1.311 . S
O148 Zn139 1.977 . S
O148 C154 1.272 . S
O149 Zn139 1.910 . S
O149 C155 1.231 . S
C150 O134 1.225 . S
C150 O156 1.298 . S
C151 O140 1.226 . S
C151 O141 1.307 . S
C152 O144 1.303 . S
C152 O145 1.247 . S
C153 O142 1.253 . S
C153 O143 1.283 . S
C154 O146 1.304 . S
C154 O148 1.272 . S
C155 O147 1.311 . S
C155 O149 1.231 . S
O156 Zn138 1.953 . S
O156 C150 1.298 . S
O157 Zn158 1.953 1_655 S
O157 C173 1.225 . S
Zn158 O157 1.953 1_455 S
Zn158 O159 1.949 . S
Zn158 O165 1.919 . S
Zn158 O170 1.924 . S
O159 Zn158 1.949 . S
O159 Zn160 1.917 1_455 S
O159 Zn161 1.929 1_455 S
O159 Zn162 1.973 . S
Zn160 O159 1.917 1_655 S
Zn160 O163 1.933 1_655 S
Zn160 O166 1.941 . S
Zn160 O167 1.965 . S
Zn161 O159 1.929 1_655 S
Zn161 O168 1.938 . S
Zn161 O169 1.906 . S
Zn161 O179 1.953 . S
Zn162 O159 1.973 . S
Zn162 O164 1.932 . S
Zn162 O171 1.977 . S
Zn162 O172 1.910 . S
O163 Zn160 1.933 1_455 S
O163 C174 1.226 . S
O164 Zn162 1.932 . S
O164 C174 1.307 . S
O165 Zn158 1.919 . S
O165 C176 1.252 1_455 S
O166 Zn160 1.941 . S
O166 C176 1.287 . S
O167 Zn160 1.965 . S
O167 C175 1.303 . S
O168 Zn161 1.938 . S
O168 C175 1.247 . S
O169 Zn161 1.906 . S
O169 C177 1.304 1_655 S
O170 Zn158 1.924 . S
O170 C178 1.311 . S
O171 Zn162 1.977 . S
O171 C177 1.272 . S
O172 Zn162 1.910 . S
O172 C178 1.231 . S
C173 O157 1.225 . S
C173 O179 1.298 . S
C174 O163 1.226 . S
C174 O164 1.307 . S
C175 O167 1.303 . S
C175 O168 1.247 . S
C176 O165 1.252 1_655 S
C176 O166 1.287 . S
C177 O169 1.304 1_455 S
C177 O171 1.272 . S
C178 O170 1.311 . S
C178 O172 1.231 . S
O179 Zn161 1.953 . S
O179 C173 1.298 . S
H180 C192 0.930 . S
H181 C194 0.930 . S
H182 C195 0.930 . S
H183 C199 0.959 . S
H184 C199 0.959 . S
H185 C199 0.961 . S
H186 C200 0.960 . S
H187 C200 0.961 . S
H188 C200 0.959 . S
H189 C203 0.929 . S
H190 C204 0.931 . S
H191 C206 0.930 . S
C192 H180 0.930 . S
C192 C193 1.399 1_565 S
C192 C197 1.399 . S
C193 C192 1.399 1_545 S
C193 C194 1.376 . S
C194 H181 0.930 . S
C194 C193 1.376 . S
C194 C195 1.388 . S
C195 H182 0.930 . S
C195 C194 1.388 . S
C195 C196 1.390 . S
C196 C195 1.390 . S
C196 C197 1.394 1_545 S
C196 C202 1.465 . S
C197 C192 1.399 . S
C197 C196 1.394 1_565 S
C197 C198 1.516 . S
C198 C197 1.516 . S
C198 C199 1.502 . S
C198 C200 1.561 . S
C198 C201 1.526 . S
C199 H183 0.959 . S
C199 H184 0.959 . S
C199 H185 0.961 . S
C199 C198 1.502 . S
C200 H186 0.960 . S
C200 H187 0.961 . S
C200 H188 0.959 . S
C200 C198 1.561 . S
C201 C198 1.526 . S
C201 C202 1.396 1_565 S
C201 C206 1.390 . S
C202 C196 1.465 . S
C202 C201 1.396 1_545 S
C202 C203 1.399 . S
C203 H189 0.929 . S
C203 C202 1.399 . S
C203 C204 1.385 . S
C204 H190 0.931 . S
C204 C203 1.385 . S
C204 C205 1.410 . S
C205 C204 1.410 . S
C205 C206 1.371 1_545 S
C206 H191 0.930 . S
C206 C201 1.390 . S
C206 C205 1.371 1_565 S
H207 C219 0.930 . S
H208 C221 0.930 . S
H209 C222 0.930 . S
H210 C226 0.959 . S
H211 C226 0.959 . S
H212 C226 0.961 . S
H213 C227 0.960 . S
H214 C227 0.961 . S
H215 C227 0.959 . S
H216 C230 0.929 . S
H217 C231 0.931 . S
H218 C233 0.930 . S
C219 H207 0.930 . S
C219 C220 1.399 . S
C219 C224 1.399 . S
C220 C219 1.399 . S
C220 C221 1.376 . S
C221 H208 0.930 . S
C221 C220 1.376 . S
C221 C222 1.388 . S
C222 H209 0.930 . S
C222 C221 1.388 . S
C222 C223 1.390 . S
C223 C222 1.390 . S
C223 C224 1.394 . S
C223 C229 1.465 . S
C224 C219 1.399 . S
C224 C223 1.394 . S
C224 C225 1.516 . S
C225 C224 1.516 . S
C225 C226 1.502 . S
C225 C227 1.561 . S
C225 C228 1.526 . S
C226 H210 0.959 . S
C226 H211 0.959 . S
C226 H212 0.961 . S
C226 C225 1.502 . S
C227 H213 0.960 . S
C227 H214 0.961 . S
C227 H215 0.959 . S
C227 C225 1.561 . S
C228 C225 1.526 . S
C228 C229 1.396 . S
C228 C233 1.390 . S
C229 C223 1.465 . S
C229 C228 1.396 . S
C229 C230 1.399 . S
C230 H216 0.929 . S
C230 C229 1.399 . S
C230 C231 1.385 . S
C231 H217 0.931 . S
C231 C230 1.385 . S
C231 C232 1.389 . S
C232 C231 1.389 . S
C232 C233 1.387 . S
C233 H218 0.930 . S
C233 C228 1.390 . S
C233 C232 1.387 . S
H234 C246 0.930 . S
H235 C248 0.930 . S
H236 C249 0.930 . S
H237 C253 0.959 . S
H238 C253 0.959 . S
H239 C253 0.961 . S
H240 C254 0.960 . S
H241 C254 0.961 . S
H242 C254 0.959 . S
H243 C257 0.929 . S
H244 C258 0.931 . S
H245 C260 0.930 . S
C246 H234 0.930 . S
C246 C247 1.399 . S
C246 C251 1.399 . S
C247 C246 1.399 . S
C247 C248 1.376 . S
C248 H235 0.930 . S
C248 C247 1.376 . S
C248 C249 1.388 . S
C249 H236 0.930 . S
C249 C248 1.388 . S
C249 C250 1.390 . S
C250 C249 1.390 . S
C250 C251 1.394 . S
C250 C256 1.465 . S
C251 C246 1.399 . S
C251 C250 1.394 . S
C251 C252 1.516 . S
C252 C251 1.516 . S
C252 C253 1.502 . S
C252 C254 1.561 . S
C252 C255 1.526 . S
C253 H237 0.959 . S
C253 H238 0.959 . S
C253 H239 0.961 . S
C253 C252 1.502 . S
C254 H240 0.960 . S
C254 H241 0.961 . S
C254 H242 0.959 . S
C254 C252 1.561 . S
C255 C252 1.526 . S
C255 C256 1.396 . S
C255 C260 1.390 . S
C256 C250 1.465 . S
C256 C255 1.396 . S
C256 C257 1.399 . S
C257 H243 0.929 . S
C257 C256 1.399 . S
C257 C258 1.385 . S
C258 H244 0.931 . S
C258 C257 1.385 . S
C258 C259 1.389 . S
C259 C258 1.389 . S
C259 C260 1.387 . S
C260 H245 0.930 . S
C260 C255 1.390 . S
C260 C259 1.387 . S
H261 C273 0.930 . S
H262 C275 0.930 . S
H263 C276 0.930 . S
H264 C280 0.959 . S
H265 C280 0.959 . S
H266 C280 0.961 . S
H267 C281 0.960 . S
H268 C281 0.961 . S
H269 C281 0.959 . S
H270 C284 0.929 . S
H271 C285 0.931 . S
H272 C287 0.930 . S
C273 H261 0.930 . S
C273 C274 1.399 . S
C273 C278 1.399 . S
C274 C273 1.399 . S
C274 C275 1.376 . S
C275 H262 0.930 . S
C275 C274 1.376 . S
C275 C276 1.388 . S
C276 H263 0.930 . S
C276 C275 1.388 . S
C276 C277 1.390 . S
C277 C276 1.390 . S
C277 C278 1.394 . S
C277 C283 1.465 . S
C278 C273 1.399 . S
C278 C277 1.394 . S
C278 C279 1.516 . S
C279 C278 1.516 . S
C279 C280 1.502 1_455 S
C279 C281 1.561 . S
C279 C282 1.526 . S
C280 H264 0.959 . S
C280 H265 0.959 . S
C280 H266 0.961 . S
C280 C279 1.502 1_655 S
C281 H267 0.960 . S
C281 H268 0.961 . S
C281 H269 0.959 . S
C281 C279 1.561 . S
C282 C279 1.526 . S
C282 C283 1.396 . S
C282 C287 1.390 . S
C283 C277 1.465 . S
C283 C282 1.396 . S
C283 C284 1.399 . S
C284 H270 0.929 . S
C284 C283 1.399 . S
C284 C285 1.385 . S
C285 H271 0.931 . S
C285 C284 1.385 . S
C285 C286 1.389 . S
C286 C285 1.389 . S
C286 C287 1.387 . S
C287 H272 0.930 . S
C287 C282 1.390 . S
C287 C286 1.387 . S
H288 C300 0.930 . S
H289 C302 0.930 . S
H290 C303 0.930 . S
H291 C307 0.959 . S
H292 C307 0.959 . S
H293 C307 0.961 . S
H294 C308 0.960 . S
H295 C308 0.961 . S
H296 C308 0.959 . S
H297 C311 0.929 . S
H298 C312 0.931 . S
H299 C314 0.930 . S
C300 H288 0.930 . S
C300 C301 1.399 1_545 S
C300 C305 1.399 . S
C301 C300 1.399 1_565 S
C301 C302 1.376 1_556 S
C302 H289 0.930 . S
C302 C301 1.376 1_554 S
C302 C303 1.388 1_554 S
C303 H290 0.930 . S
C303 C302 1.388 1_556 S
C303 C304 1.390 . S
C304 C303 1.390 . S
C304 C305 1.394 1_565 S
C304 C310 1.465 . S
C305 C300 1.399 . S
C305 C304 1.394 1_545 S
C305 C306 1.516 . S
C306 C305 1.516 . S
C306 C307 1.502 . S
C306 C308 1.561 . S
C306 C309 1.526 . S
C307 H291 0.959 . S
C307 H292 0.959 . S
C307 H293 0.961 . S
C307 C306 1.502 . S
C308 H294 0.960 . S
C308 H295 0.961 . S
C308 H296 0.959 . S
C308 C306 1.561 . S
C309 C306 1.526 . S
C309 C310 1.396 1_545 S
C309 C314 1.390 . S
C310 C304 1.465 . S
C310 C309 1.396 1_565 S
C310 C311 1.399 . S
C311 H297 0.929 . S
C311 C310 1.399 . S
C311 C312 1.385 . S
C312 H298 0.931 . S
C312 C311 1.385 . S
C312 C313 1.388 1_565 S
C313 C312 1.388 1_545 S
C313 C314 1.388 . S
C314 H299 0.930 . S
C314 C309 1.390 . S
C314 C313 1.388 . S
H315 C327 0.930 . S
H316 C329 0.930 1_554 S
H317 C330 0.930 . S
H318 C334 0.959 . S
H319 C334 0.959 . S
H320 C334 0.961 . S
H321 C335 0.960 . S
H322 C335 0.961 . S
H323 C335 0.959 . S
H324 C338 0.929 . S
H325 C339 0.931 . S
H326 C341 0.930 . S
C327 H315 0.930 . S
C327 C328 1.399 . S
C327 C332 1.399 . S
C328 C327 1.399 . S
C328 C329 1.376 . S
C329 H316 0.930 1_556 S
C329 C328 1.376 . S
C329 C330 1.388 . S
C330 H317 0.930 . S
C330 C329 1.388 . S
C330 C331 1.390 . S
C331 C330 1.390 . S
C331 C332 1.394 . S
C331 C337 1.465 . S
C332 C327 1.399 . S
C332 C331 1.394 . S
C332 C333 1.516 . S
C333 C332 1.516 . S
C333 C334 1.502 . S
C333 C335 1.561 . S
C333 C336 1.526 . S
C334 H318 0.959 . S
C334 H319 0.959 . S
C334 H320 0.961 . S
C334 C333 1.502 . S
C335 H321 0.960 . S
C335 H322 0.961 . S
C335 H323 0.959 . S
C335 C333 1.561 . S
C336 C333 1.526 . S
C336 C337 1.396 . S
C336 C341 1.390 . S
C337 C331 1.465 . S
C337 C336 1.396 . S
C337 C338 1.399 . S
C338 H324 0.929 . S
C338 C337 1.399 . S
C338 C339 1.385 . S
C339 H325 0.931 . S
C339 C338 1.385 . S
C339 C340 1.389 . S
C340 C339 1.389 . S
C340 C341 1.387 . S
C341 H326 0.930 . S
C341 C336 1.390 . S
C341 C340 1.387 . S
H342 C354 0.930 . S
H343 C356 0.930 . S
H344 C357 0.930 . S
H345 C361 0.959 . S
H346 C361 0.959 . S
H347 C361 0.961 . S
H348 C362 0.960 . S
H349 C362 0.961 . S
H350 C362 0.959 . S
H351 C365 0.929 . S
H352 C366 0.931 . S
H353 C368 0.930 . S
C354 H342 0.930 . S
C354 C355 1.399 . S
C354 C359 1.399 . S
C355 C354 1.399 . S
C355 C356 1.376 . S
C356 H343 0.930 . S
C356 C355 1.376 . S
C356 C357 1.388 . S
C357 H344 0.930 . S
C357 C356 1.388 . S
C357 C358 1.390 . S
C358 C357 1.390 . S
C358 C359 1.394 . S
C358 C364 1.465 . S
C359 C354 1.399 . S
C359 C358 1.394 . S
C359 C360 1.516 . S
C360 C359 1.516 . S
C360 C361 1.502 . S
C360 C362 1.561 . S
C360 C363 1.526 . S
C361 H345 0.959 . S
C361 H346 0.959 . S
C361 H347 0.961 . S
C361 C360 1.502 . S
C362 H348 0.960 . S
C362 H349 0.961 . S
C362 H350 0.959 . S
C362 C360 1.561 . S
C363 C360 1.526 . S
C363 C364 1.396 . S
C363 C368 1.390 . S
C364 C358 1.465 . S
C364 C363 1.396 . S
C364 C365 1.399 . S
C365 H351 0.929 . S
C365 C364 1.399 . S
C365 C366 1.385 . S
C366 H352 0.931 . S
C366 C365 1.385 . S
C366 C367 1.389 . S
C367 C366 1.389 . S
C367 C368 1.387 . S
C368 H353 0.930 . S
C368 C363 1.390 . S
C368 C367 1.387 . S
H369 C381 0.930 . S
H370 C383 0.930 . S
H371 C384 0.930 . S
H372 C388 0.959 . S
H373 C388 0.959 1_455 S
H374 C388 0.961 . S
H375 C389 0.960 . S
H376 C389 0.961 . S
H377 C389 0.959 . S
H378 C392 0.929 . S
H379 C393 0.931 . S
H380 C395 0.930 . S
C381 H369 0.930 . S
C381 C382 1.399 1_456 S
C381 C386 1.399 . S
C382 C381 1.399 1_654 S
C382 C383 1.376 . S
C383 H370 0.930 . S
C383 C382 1.376 . S
C383 C384 1.388 . S
C384 H371 0.930 . S
C384 C383 1.388 . S
C384 C385 1.391 1_554 S
C385 C384 1.391 1_556 S
C385 C386 1.393 1_655 S
C385 C391 1.464 1_655 S
C386 C381 1.399 . S
C386 C385 1.393 1_455 S
C386 C387 1.516 . S
C387 C386 1.516 . S
C387 C388 1.502 1_455 S
C387 C389 1.561 . S
C387 C390 1.526 . S
C388 H372 0.959 . S
C388 H373 0.959 1_655 S
C388 H374 0.961 . S
C388 C387 1.502 1_655 S
C389 H375 0.960 . S
C389 H376 0.961 . S
C389 H377 0.959 . S
C389 C387 1.561 . S
C390 C387 1.526 . S
C390 C391 1.402 . S
C390 C395 1.390 . S
C391 C385 1.464 1_455 S
C391 C390 1.402 . S
C391 C392 1.395 1_455 S
C392 H378 0.929 . S
C392 C391 1.395 1_655 S
C392 C393 1.385 . S
C393 H379 0.931 . S
C393 C392 1.385 . S
C393 C394 1.389 1_655 S
C394 C393 1.389 1_455 S
C394 C395 1.387 . S
C395 H380 0.930 . S
C395 C390 1.390 . S
C395 C394 1.387 . S
H396 C408 0.930 . S
H397 C410 0.930 . S
H398 C411 0.930 . S
H399 C415 0.959 . S
H400 C415 0.959 . S
H401 C415 0.961 . S
H402 C416 0.960 . S
H403 C416 0.961 . S
H404 C416 0.959 1_655 S
H405 C419 0.929 . S
H406 C420 0.931 . S
H407 C422 0.930 . S
C408 H396 0.930 . S
C408 C409 1.399 . S
C408 C413 1.399 . S
C409 C408 1.399 . S
C409 C410 1.376 . S
C410 H397 0.930 . S
C410 C409 1.376 . S
C410 C411 1.388 . S
C411 H398 0.930 . S
C411 C410 1.388 . S
C411 C412 1.390 . S
C412 C411 1.390 . S
C412 C413 1.394 . S
C412 C418 1.465 . S
C413 C408 1.399 . S
C413 C412 1.394 . S
C413 C414 1.516 . S
C414 C413 1.516 . S
C414 C415 1.502 . S
C414 C416 1.561 . S
C414 C417 1.526 . S
C415 H399 0.959 . S
C415 H400 0.959 . S
C415 H401 0.961 . S
C415 C414 1.502 . S
C416 H402 0.960 . S
C416 H403 0.961 . S
C416 H404 0.959 1_455 S
C416 C414 1.561 . S
C417 C414 1.526 . S
C417 C418 1.396 . S
C417 C422 1.390 . S
C418 C412 1.465 . S
C418 C417 1.396 . S
C418 C419 1.399 . S
C419 H405 0.929 . S
C419 C418 1.399 . S
C419 C420 1.385 . S
C420 H406 0.931 . S
C420 C419 1.385 . S
C420 C421 1.389 . S
C421 C420 1.389 . S
C421 C422 1.387 . S
C422 H407 0.930 . S
C422 C417 1.390 . S
C422 C421 1.387 . S
H423 C435 0.930 . S
H424 C437 0.930 . S
H425 C438 0.930 . S
H426 C442 0.959 . S
H427 C442 0.959 . S
H428 C442 0.961 . S
H429 C443 0.960 . S
H430 C443 0.961 . S
H431 C443 0.959 . S
H432 C446 0.929 . S
H433 C447 0.931 . S
H434 C449 0.930 . S
C435 H423 0.930 . S
C435 C436 1.399 . S
C435 C440 1.399 . S
C436 C435 1.399 . S
C436 C437 1.376 1_545 S
C437 H424 0.930 . S
C437 C436 1.376 1_565 S
C437 C438 1.388 . S
C438 H425 0.930 . S
C438 C437 1.388 . S
C438 C439 1.390 . S
C439 C438 1.390 . S
C439 C440 1.394 1_565 S
C439 C445 1.465 . S
C440 C435 1.399 . S
C440 C439 1.394 1_545 S
C440 C441 1.516 . S
C441 C440 1.516 . S
C441 C442 1.502 . S
C441 C443 1.561 . S
C441 C444 1.526 . S
C442 H426 0.959 . S
C442 H427 0.959 . S
C442 H428 0.961 . S
C442 C441 1.502 . S
C443 H429 0.960 . S
C443 H430 0.961 . S
C443 H431 0.959 . S
C443 C441 1.561 . S
C444 C441 1.526 . S
C444 C445 1.396 1_545 S
C444 C449 1.390 . S
C445 C439 1.465 . S
C445 C444 1.396 1_565 S
C445 C446 1.399 . S
C446 H432 0.929 . S
C446 C445 1.399 . S
C446 C447 1.385 . S
C447 H433 0.931 . S
C447 C446 1.385 . S
C447 C448 1.389 1_565 S
C448 C447 1.389 1_545 S
C448 C449 1.387 . S
C449 H434 0.930 . S
C449 C444 1.390 . S
C449 C448 1.387 . S
H450 C462 0.930 . S
H451 C464 0.930 . S
H452 C465 0.930 . S
H453 C469 0.959 . S
H454 C469 0.959 . S
H455 C469 0.961 . S
H456 C470 0.960 . S
H457 C470 0.961 . S
H458 C470 0.959 . S
H459 C473 0.929 . S
H460 C474 0.931 . S
H461 C476 0.930 . S
C462 H450 0.930 . S
C462 C463 1.399 . S
C462 C467 1.399 . S
C463 C462 1.399 . S
C463 C464 1.376 . S
C464 H451 0.930 . S
C464 C463 1.376 . S
C464 C465 1.388 . S
C465 H452 0.930 . S
C465 C464 1.388 . S
C465 C466 1.390 . S
C466 C465 1.390 . S
C466 C467 1.394 . S
C466 C472 1.465 . S
C467 C462 1.399 . S
C467 C466 1.394 . S
C467 C468 1.516 . S
C468 C467 1.516 . S
C468 C469 1.502 . S
C468 C470 1.561 . S
C468 C471 1.526 . S
C469 H453 0.959 . S
C469 H454 0.959 . S
C469 H455 0.961 . S
C469 C468 1.502 . S
C470 H456 0.960 . S
C470 H457 0.961 . S
C470 H458 0.959 . S
C470 C468 1.561 . S
C471 C468 1.526 . S
C471 C472 1.396 . S
C471 C476 1.390 . S
C472 C466 1.465 . S
C472 C471 1.396 . S
C472 C473 1.399 . S
C473 H459 0.929 . S
C473 C472 1.399 . S
C473 C474 1.385 . S
C474 H460 0.931 . S
C474 C473 1.385 . S
C474 C475 1.389 . S
C475 C474 1.389 . S
C475 C476 1.387 . S
C476 H461 0.930 . S
C476 C471 1.390 . S
C476 C475 1.387 . S
H477 C489 0.930 . S
H478 C491 0.930 . S
H479 C492 0.930 . S
H480 C496 0.959 . S
H481 C496 0.959 . S
H482 C496 0.961 . S
H483 C497 0.960 . S
H484 C497 0.961 . S
H485 C497 0.959 . S
H486 C500 0.929 . S
H487 C501 0.931 . S
H488 C503 0.930 . S
C489 H477 0.930 . S
C489 C490 1.399 . S
C489 C494 1.399 . S
C490 C489 1.399 . S
C490 C491 1.376 . S
C491 H478 0.930 . S
C491 C490 1.376 . S
C491 C492 1.388 . S
C492 H479 0.930 . S
C492 C491 1.388 . S
C492 C493 1.390 . S
C493 C492 1.390 . S
C493 C494 1.394 . S
C493 C499 1.465 . S
C494 C489 1.399 . S
C494 C493 1.394 . S
C494 C495 1.516 . S
C495 C494 1.516 . S
C495 C496 1.502 . S
C495 C497 1.561 . S
C495 C498 1.526 . S
C496 H480 0.959 . S
C496 H481 0.959 . S
C496 H482 0.961 . S
C496 C495 1.502 . S
C497 H483 0.960 . S
C497 H484 0.961 . S
C497 H485 0.959 . S
C497 C495 1.561 . S
C498 C495 1.526 . S
C498 C499 1.396 . S
C498 C503 1.390 . S
C499 C493 1.465 . S
C499 C498 1.396 . S
C499 C500 1.399 . S
C500 H486 0.929 . S
C500 C499 1.399 . S
C500 C501 1.385 . S
C501 H487 0.931 . S
C501 C500 1.385 . S
C501 C502 1.389 . S
C502 C501 1.389 . S
C502 C503 1.387 . S
C503 H488 0.930 . S
C503 C498 1.390 . S
C503 C502 1.387 . S
H504 C516 0.930 . S
H505 C518 0.947 . S
H506 C519 0.930 . S
H507 C523 0.959 . S
H508 C523 0.959 . S
H509 C523 0.961 . S
H510 C524 0.960 . S
H511 C524 0.961 . S
H512 C524 0.959 . S
H513 C527 0.929 . S
H514 C528 0.931 . S
H515 C530 0.930 . S
C516 H504 0.930 . S
C516 C517 1.399 . S
C516 C521 1.399 . S
C517 C516 1.399 . S
C517 C518 1.373 1_454 S
C518 H505 0.947 . S
C518 C517 1.373 1_656 S
C518 C519 1.378 1_655 S
C519 H506 0.930 . S
C519 C518 1.378 1_455 S
C519 C520 1.390 . S
C520 C519 1.390 . S
C520 C521 1.394 1_556 S
C520 C526 1.465 . S
C521 C516 1.399 . S
C521 C520 1.394 1_554 S
C521 C522 1.516 . S
C522 C521 1.516 . S
C522 C523 1.502 . S
C522 C524 1.561 . S
C522 C525 1.526 1_554 S
C523 H507 0.959 . S
C523 H508 0.959 . S
C523 H509 0.961 . S
C523 C522 1.502 . S
C524 H510 0.960 . S
C524 H511 0.961 . S
C524 H512 0.959 . S
C524 C522 1.561 . S
C525 C522 1.526 1_556 S
C525 C526 1.396 . S
C525 C530 1.390 . S
C526 C520 1.465 . S
C526 C525 1.396 . S
C526 C527 1.399 . S
C527 H513 0.929 . S
C527 C526 1.399 . S
C527 C528 1.385 . S
C528 H514 0.931 . S
C528 C527 1.385 . S
C528 C529 1.389 . S
C529 C528 1.389 . S
C529 C530 1.387 . S
C530 H515 0.930 . S
C530 C525 1.390 . S
C530 C529 1.387 . S
H531 C543 0.930 . S
H532 C545 0.930 1_554 S
H533 C546 0.930 . S
H534 C550 0.959 . S
H535 C550 0.959 . S
H536 C550 0.961 . S
H537 C551 0.960 . S
H538 C551 0.961 . S
H539 C551 0.959 . S
H540 C554 0.929 . S
H541 C555 0.931 1_565 S
H542 C557 0.930 . S
C543 H531 0.930 . S
C543 C544 1.399 1_545 S
C543 C548 1.399 . S
C544 C543 1.399 1_565 S
C544 C545 1.376 . S
C545 H532 0.930 1_556 S
C545 C544 1.376 . S
C545 C546 1.388 . S
C546 H533 0.930 . S
C546 C545 1.388 . S
C546 C547 1.368 1_565 S
C547 C546 1.368 1_545 S
C547 C548 1.414 . S
C547 C553 1.472 . S
C548 C543 1.399 . S
C548 C547 1.414 . S
C548 C549 1.516 . S
C549 C548 1.516 . S
C549 C550 1.502 . S
C549 C551 1.561 . S
C549 C552 1.526 . S
C550 H534 0.959 . S
C550 H535 0.959 . S
C550 H536 0.961 . S
C550 C549 1.502 . S
C551 H537 0.960 . S
C551 H538 0.961 . S
C551 H539 0.959 . S
C551 C549 1.561 . S
C552 C549 1.526 . S
C552 C553 1.396 . S
C552 C557 1.390 . S
C553 C547 1.472 . S
C553 C552 1.396 . S
C553 C554 1.399 1_545 S
C554 H540 0.929 . S
C554 C553 1.399 1_565 S
C554 C555 1.385 1_565 S
C555 H541 0.931 1_545 S
C555 C554 1.385 1_545 S
C555 C556 1.389 . S
C556 C555 1.389 . S
C556 C557 1.387 . S
C557 H542 0.930 . S
C557 C552 1.390 . S
C557 C556 1.387 . S
H558 C570 0.930 . S
H559 C572 0.930 . S
H560 C573 0.930 . S
H561 C577 0.959 . S
H562 C577 0.959 . S
H563 C577 0.961 . S
H564 C578 0.960 . S
H565 C578 0.961 . S
H566 C578 0.959 . S
H567 C581 0.929 . S
H568 C582 0.931 . S
H569 C584 0.930 . S
C570 H558 0.930 . S
C570 C571 1.399 . S
C570 C575 1.399 . S
C571 C570 1.399 . S
C571 C572 1.376 1_556 S
C572 H559 0.930 . S
C572 C571 1.376 1_554 S
C572 C573 1.388 . S
C573 H560 0.930 . S
C573 C572 1.388 . S
C573 C574 1.390 1_554 S
C574 C573 1.390 1_556 S
C574 C575 1.394 . S
C574 C580 1.465 . S
C575 C570 1.399 . S
C575 C574 1.394 . S
C575 C576 1.516 . S
C576 C575 1.516 . S
C576 C577 1.502 . S
C576 C578 1.561 . S
C576 C579 1.526 . S
C577 H561 0.959 . S
C577 H562 0.959 . S
C577 H563 0.961 . S
C577 C576 1.502 . S
C578 H564 0.960 . S
C578 H565 0.961 . S
C578 H566 0.959 . S
C578 C576 1.561 . S
C579 C576 1.526 . S
C579 C580 1.396 . S
C579 C584 1.390 . S
C580 C574 1.465 . S
C580 C579 1.396 . S
C580 C581 1.399 . S
C581 H567 0.929 . S
C581 C580 1.399 . S
C581 C582 1.385 . S
C582 H568 0.931 . S
C582 C581 1.385 . S
C582 C583 1.389 . S
C583 C582 1.389 . S
C583 C584 1.387 . S
C584 H569 0.930 . S
C584 C579 1.390 . S
C584 C583 1.387 . S
H585 C597 0.930 . S
H586 C599 0.930 . S
H587 C600 0.930 . S
H588 C604 0.959 . S
H589 C604 0.959 . S
H590 C604 0.961 . S
H591 C605 0.960 . S
H592 C605 0.961 . S
H593 C605 0.959 . S
H594 C608 0.929 . S
H595 C609 0.931 . S
H596 C611 0.930 . S
C597 H585 0.930 . S
C597 C598 1.399 . S
C597 C602 1.399 . S
C598 C597 1.399 . S
C598 C599 1.376 . S
C599 H586 0.930 . S
C599 C598 1.376 . S
C599 C600 1.388 . S
C600 H587 0.930 . S
C600 C599 1.388 . S
C600 C601 1.390 . S
C601 C600 1.390 . S
C601 C602 1.394 . S
C601 C607 1.465 . S
C602 C597 1.399 . S
C602 C601 1.394 . S
C602 C603 1.516 . S
C603 C602 1.516 . S
C603 C604 1.502 . S
C603 C605 1.561 . S
C603 C606 1.526 . S
C604 H588 0.959 . S
C604 H589 0.959 . S
C604 H590 0.961 . S
C604 C603 1.502 . S
C605 H591 0.960 . S
C605 H592 0.961 . S
C605 H593 0.959 . S
C605 C603 1.561 . S
C606 C603 1.526 . S
C606 C607 1.396 . S
C606 C611 1.390 . S
C607 C601 1.465 . S
C607 C606 1.396 . S
C607 C608 1.399 . S
C608 H594 0.929 . S
C608 C607 1.399 . S
C608 C609 1.385 . S
C609 H595 0.931 . S
C609 C608 1.385 . S
C609 C610 1.389 . S
C610 C609 1.389 . S
C610 C611 1.387 . S
C611 H596 0.930 . S
C611 C606 1.390 . S
C611 C610 1.387 . S
H612 C624 0.930 . S
H613 C626 0.930 . S
H614 C627 0.930 1_655 S
H615 C631 0.959 . S
H616 C631 0.959 . S
H617 C631 0.961 1_554 S
H618 C632 0.960 . S
H619 C632 0.961 . S
H620 C632 0.959 . S
H621 C635 0.928 1_655 S
H622 C636 0.905 1_655 S
H623 C638 0.930 . S
C624 H612 0.930 . S
C624 C625 1.399 . S
C624 C629 1.399 . S
C625 C624 1.399 . S
C625 C626 1.376 . S
C626 H613 0.930 . S
C626 C625 1.376 . S
C626 C627 1.388 . S
C627 H614 0.930 1_455 S
C627 C626 1.388 . S
C627 C628 1.390 . S
C628 C627 1.390 . S
C628 C629 1.394 . S
C628 C634 1.465 . S
C629 C624 1.399 . S
C629 C628 1.394 . S
C629 C630 1.516 . S
C630 C629 1.516 . S
C630 C631 1.502 1_554 S
C630 C632 1.561 . S
C630 C633 1.526 . S
C631 H615 0.959 . S
C631 H616 0.959 . S
C631 H617 0.961 1_556 S
C631 C630 1.502 1_556 S
C632 H618 0.960 . S
C632 H619 0.961 . S
C632 H620 0.959 . S
C632 C630 1.561 . S
C633 C630 1.526 . S
C633 C634 1.396 . S
C633 C638 1.390 1_554 S
C634 C628 1.465 . S
C634 C633 1.396 . S
C634 C635 1.400 . S
C635 H621 0.928 1_455 S
C635 C634 1.400 . S
C635 C636 1.385 1_554 S
C636 H622 0.905 1_455 S
C636 C635 1.385 1_556 S
C636 C637 1.416 . S
C637 C636 1.416 . S
C637 C638 1.387 . S
C638 H623 0.930 . S
C638 C633 1.390 1_556 S
C638 C637 1.387 . S
H639 C651 0.930 . S
H640 C653 0.930 . S
H641 C654 0.930 . S
H642 C658 0.959 . S
H643 C658 0.959 . S
H644 C658 0.961 . S
H645 C659 0.960 . S
H646 C659 0.961 . S
H647 C659 0.919 1_565 S
H648 C662 0.929 . S
H649 C663 0.931 . S
H650 C665 0.930 . S
C651 H639 0.930 . S
C651 C652 1.399 . S
C651 C656 1.399 . S
C652 C651 1.399 . S
C652 C653 1.376 1_545 S
C653 H640 0.930 . S
C653 C652 1.376 1_565 S
C653 C654 1.388 . S
C654 H641 0.930 . S
C654 C653 1.388 . S
C654 C655 1.390 . S
C655 C654 1.390 . S
C655 C656 1.394 1_565 S
C655 C661 1.465 1_554 S
C656 C651 1.399 . S
C656 C655 1.394 1_545 S
C656 C657 1.516 . S
C657 C656 1.516 . S
C657 C658 1.502 . S
C657 C659 1.561 . S
C657 C660 1.526 . S
C658 H642 0.959 . S
C658 H643 0.959 . S
C658 H644 0.961 . S
C658 C657 1.502 . S
C659 H645 0.960 . S
C659 H646 0.961 . S
C659 H647 0.919 1_545 S
C659 C657 1.561 . S
C660 C657 1.526 . S
C660 C661 1.396 1_544 S
C660 C665 1.390 1_554 S
C661 C655 1.465 1_556 S
C661 C660 1.396 1_566 S
C661 C662 1.399 . S
C662 H648 0.929 . S
C662 C661 1.399 . S
C662 C663 1.385 . S
C663 H649 0.931 . S
C663 C662 1.385 . S
C663 C664 1.389 1_565 S
C664 C663 1.389 1_545 S
C664 C665 1.387 . S
C665 H650 0.930 . S
C665 C660 1.390 1_556 S
C665 C664 1.387 . S
H666 C678 0.930 . S
H667 C680 0.930 . S
H668 C681 0.930 1_556 S
H669 C685 0.959 . S
H670 C685 0.959 . S
H671 C685 0.961 . S
H672 C686 0.960 . S
H673 C686 0.961 . S
H674 C686 0.959 . S
H675 C689 0.929 . S
H676 C690 0.931 . S
H677 C692 0.930 . S
C678 H666 0.930 . S
C678 C679 1.399 . S
C678 C683 1.399 . S
C679 C678 1.399 . S
C679 C680 1.376 . S
C680 H667 0.930 . S
C680 C679 1.376 . S
C680 C681 1.388 . S
C681 H668 0.930 1_554 S
C681 C680 1.388 . S
C681 C682 1.390 . S
C682 C681 1.390 . S
C682 C683 1.394 . S
C682 C688 1.465 1_554 S
C683 C678 1.399 . S
C683 C682 1.394 . S
C683 C684 1.516 . S
C684 C683 1.516 . S
C684 C685 1.502 . S
C684 C686 1.561 . S
C684 C687 1.526 1_554 S
C685 H669 0.959 . S
C685 H670 0.959 . S
C685 H671 0.961 . S
C685 C684 1.502 . S
C686 H672 0.960 . S
C686 H673 0.961 . S
C686 H674 0.959 . S
C686 C684 1.561 . S
C687 C684 1.526 1_556 S
C687 C688 1.396 . S
C687 C692 1.390 . S
C688 C682 1.465 1_556 S
C688 C687 1.396 . S
C688 C689 1.399 . S
C689 H675 0.929 . S
C689 C688 1.399 . S
C689 C690 1.385 . S
C690 H676 0.931 . S
C690 C689 1.385 . S
C690 C691 1.389 . S
C691 C690 1.389 . S
C691 C692 1.387 . S
C692 H677 0.930 . S
C692 C687 1.390 . S
C692 C691 1.387 . S
H693 C705 0.930 . S
H694 C707 0.930 . S
H695 C708 0.930 . S
H696 C712 0.959 . S
H697 C712 0.959 . S
H698 C712 0.961 . S
H699 C713 0.960 . S
H700 C713 0.961 . S
H701 C713 0.959 . S
H702 C716 0.929 . S
H703 C717 0.931 . S
H704 C719 0.930 . S
C705 H693 0.930 . S
C705 C706 1.399 . S
C705 C710 1.399 . S
C706 C705 1.399 . S
C706 C707 1.376 . S
C707 H694 0.930 . S
C707 C706 1.376 . S
C707 C708 1.388 . S
C708 H695 0.930 . S
C708 C707 1.388 . S
C708 C709 1.390 . S
C709 C708 1.390 . S
C709 C710 1.394 . S
C709 C715 1.465 1_554 S
C710 C705 1.399 . S
C710 C709 1.394 . S
C710 C711 1.516 . S
C711 C710 1.516 . S
C711 C712 1.502 1_554 S
C711 C713 1.561 . S
C711 C714 1.526 1_554 S
C712 H696 0.959 . S
C712 H697 0.959 . S
C712 H698 0.961 . S
C712 C711 1.502 1_556 S
C713 H699 0.960 . S
C713 H700 0.961 . S
C713 H701 0.959 . S
C713 C711 1.561 . S
C714 C711 1.526 1_556 S
C714 C715 1.396 . S
C714 C719 1.390 . S
C715 C709 1.465 1_556 S
C715 C714 1.396 . S
C715 C716 1.399 . S
C716 H702 0.929 . S
C716 C715 1.399 . S
C716 C717 1.385 . S
C717 H703 0.931 . S
C717 C716 1.385 . S
C717 C718 1.389 . S
C718 C717 1.389 . S
C718 C719 1.387 . S
C719 H704 0.930 . S
C719 C714 1.390 . S
C719 C718 1.387 . S
H720 C732 0.930 . S
H721 C734 0.930 . S
H722 C735 0.930 . S
H723 C739 0.959 . S
H724 C739 0.959 . S
H725 C739 0.961 . S
H726 C740 0.960 . S
H727 C740 0.961 . S
H728 C740 0.959 . S
H729 C743 0.929 . S
H730 C744 0.931 . S
H731 C746 0.930 . S
C732 H720 0.930 . S
C732 C733 1.399 1_655 S
C732 C737 1.399 . S
C733 C732 1.399 1_455 S
C733 C734 1.376 . S
C734 H721 0.930 . S
C734 C733 1.376 . S
C734 C735 1.388 . S
C735 H722 0.930 . S
C735 C734 1.388 . S
C735 C736 1.390 . S
C736 C735 1.390 . S
C736 C737 1.394 1_455 S
C736 C742 1.469 . S
C737 C732 1.399 . S
C737 C736 1.394 1_655 S
C737 C738 1.516 . S
C738 C737 1.516 . S
C738 C739 1.502 . S
C738 C740 1.561 1_655 S
C738 C741 1.526 . S
C739 H723 0.959 . S
C739 H724 0.959 . S
C739 H725 0.961 . S
C739 C738 1.502 . S
C740 H726 0.960 . S
C740 H727 0.961 . S
C740 H728 0.959 . S
C740 C738 1.561 1_455 S
C741 C738 1.526 . S
C741 C742 1.385 1_655 S
C741 C746 1.390 . S
C742 C736 1.469 . S
C742 C741 1.385 1_455 S
C742 C743 1.405 . S
C743 H729 0.929 . S
C743 C742 1.405 . S
C743 C744 1.385 . S
C744 H730 0.931 . S
C744 C743 1.385 . S
C744 C745 1.389 1_455 S
C745 C744 1.389 1_655 S
C745 C746 1.387 . S
C746 H731 0.930 . S
C746 C741 1.390 . S
C746 C745 1.387 . S
H747 C759 0.930 . S
H748 C761 0.930 . S
H749 C762 0.930 . S
H750 C766 0.959 1_565 S
H751 C766 0.959 . S
H752 C766 0.961 . S
H753 C767 0.960 . S
H754 C767 0.961 . S
H755 C767 0.959 . S
H756 C770 0.929 . S
H757 C771 0.931 . S
H758 C773 0.930 1_545 S
C759 H747 0.930 . S
C759 C760 1.399 1_545 S
C759 C764 1.399 . S
C760 C759 1.399 1_565 S
C760 C761 1.376 . S
C761 H748 0.930 . S
C761 C760 1.376 . S
C761 C762 1.388 . S
C762 H749 0.930 . S
C762 C761 1.388 . S
C762 C763 1.390 . S
C763 C762 1.390 . S
C763 C764 1.394 1_565 S
C763 C769 1.465 . S
C764 C759 1.399 . S
C764 C763 1.394 1_545 S
C764 C765 1.516 . S
C765 C764 1.516 . S
C765 C766 1.502 . S
C765 C767 1.561 . S
C765 C768 1.526 1_545 S
C766 H750 0.959 1_545 S
C766 H751 0.959 . S
C766 H752 0.961 . S
C766 C765 1.502 . S
C767 H753 0.960 . S
C767 H754 0.961 . S
C767 H755 0.959 . S
C767 C765 1.561 . S
C768 C765 1.526 1_565 S
C768 C769 1.396 . S
C768 C773 1.390 . S
C769 C763 1.465 . S
C769 C768 1.396 . S
C769 C770 1.399 . S
C770 H756 0.929 . S
C770 C769 1.399 . S
C770 C771 1.385 . S
C771 H757 0.931 . S
C771 C770 1.385 . S
C771 C772 1.389 . S
C772 C771 1.389 . S
C772 C773 1.387 . S
C773 H758 0.930 1_565 S
C773 C768 1.390 . S
C773 C772 1.387 . S
H774 C786 0.930 . S
H775 C788 0.930 . S
H776 C789 0.930 . S
H777 C793 0.959 . S
H778 C793 0.959 . S
H779 C793 0.961 . S
H780 C794 0.960 . S
H781 C794 0.961 . S
H782 C794 0.959 . S
H783 C797 0.929 . S
H784 C798 0.931 . S
H785 C800 0.930 . S
C786 H774 0.930 . S
C786 C787 1.399 . S
C786 C791 1.399 . S
C787 C786 1.399 . S
C787 C788 1.376 . S
C788 H775 0.930 . S
C788 C787 1.376 . S
C788 C789 1.388 . S
C789 H776 0.930 . S
C789 C788 1.388 . S
C789 C790 1.390 . S
C790 C789 1.390 . S
C790 C791 1.394 . S
C790 C796 1.465 . S
C791 C786 1.399 . S
C791 C790 1.394 . S
C791 C792 1.516 . S
C792 C791 1.516 . S
C792 C793 1.502 . S
C792 C794 1.561 . S
C792 C795 1.526 . S
C793 H777 0.959 . S
C793 H778 0.959 . S
C793 H779 0.961 . S
C793 C792 1.502 . S
C794 H780 0.960 . S
C794 H781 0.961 . S
C794 H782 0.959 . S
C794 C792 1.561 . S
C795 C792 1.526 . S
C795 C796 1.396 . S
C795 C800 1.390 . S
C796 C790 1.465 . S
C796 C795 1.396 . S
C796 C797 1.399 . S
C797 H783 0.929 . S
C797 C796 1.399 . S
C797 C798 1.385 . S
C798 H784 0.931 . S
C798 C797 1.385 . S
C798 C799 1.389 . S
C799 C798 1.389 . S
C799 C800 1.387 . S
C800 H785 0.930 . S
C800 C795 1.390 . S
C800 C799 1.387 . S
H801 C813 0.930 . S
H802 C815 0.930 . S
H803 C816 0.930 . S
H804 C820 0.959 . S
H805 C820 0.959 . S
H806 C820 0.961 . S
H807 C821 0.960 . S
H808 C821 0.961 . S
H809 C821 0.959 . S
H810 C824 0.929 . S
H811 C825 0.931 . S
H812 C827 0.930 . S
C813 H801 0.930 . S
C813 C814 1.399 . S
C813 C818 1.399 . S
C814 C813 1.399 . S
C814 C815 1.376 . S
C815 H802 0.930 . S
C815 C814 1.376 . S
C815 C816 1.388 . S
C816 H803 0.930 . S
C816 C815 1.388 . S
C816 C817 1.390 . S
C817 C816 1.390 . S
C817 C818 1.394 . S
C817 C823 1.465 . S
C818 C813 1.399 . S
C818 C817 1.394 . S
C818 C819 1.516 . S
C819 C818 1.516 . S
C819 C820 1.502 . S
C819 C821 1.561 . S
C819 C822 1.526 . S
C820 H804 0.959 . S
C820 H805 0.959 . S
C820 H806 0.961 . S
C820 C819 1.502 . S
C821 H807 0.960 . S
C821 H808 0.961 . S
C821 H809 0.959 . S
C821 C819 1.561 . S
C822 C819 1.526 . S
C822 C823 1.396 . S
C822 C827 1.390 . S
C823 C817 1.465 . S
C823 C822 1.396 . S
C823 C824 1.399 . S
C824 H810 0.929 . S
C824 C823 1.399 . S
C824 C825 1.385 . S
C825 H811 0.931 . S
C825 C824 1.385 . S
C825 C826 1.389 . S
C826 C825 1.389 . S
C826 C827 1.387 . S
C827 H812 0.930 . S
C827 C822 1.390 . S
C827 C826 1.387 . S
C193 C74 1.504 . S
C205 C104 1.528 1_545 S
C232 C127 1.562 . S
C220 C85 1.596 . S
C259 C150 1.581 . S
C247 C52 1.610 . S
C286 C177 1.447 . S
C274 C63 1.576 . S
C313 C105 1.515 . S
C301 C30 1.529 1_566 S
C328 C41 1.423 . S
C340 C128 1.462 . S
C355 C8 1.445 . S
C367 C151 1.435 . S
C382 C19 1.548 1_655 S
C394 C176 1.522 1_455 S
C421 C106 0.425 . S
C409 C62 0.447 . S
C448 C129 0.359 . S
C436 C73 0.470 . S
C475 C152 0.505 . S
C463 C84 0.399 . S
C490 C51 0.589 . S
C502 C178 0.622 . S
C517 C18 0.678 . S
C529 C109 0.734 . S
C556 C132 0.594 . S
C544 C29 0.776 1_566 S
C583 C155 0.704 . S
C571 C40 0.712 . S
C598 C7 0.534 . S
C610 C175 0.470 . S
C625 C60 1.449 . S
C637 C107 1.578 . S
C652 C71 1.376 . S
C664 C130 1.505 . S
C691 C153 1.522 . S
C679 C82 1.428 . S
C718 C174 1.344 . S
C706 C49 1.156 . S
C733 C16 1.313 . S
C745 C108 1.516 . S
C772 C131 1.511 . S
C760 C27 1.346 1_565 S
C799 C154 1.412 . S
C787 C38 1.261 . S
C814 C5 1.449 . S
C826 C173 1.714 . S
