# Generated by pormake.
# Topology gar, (4,6)-cn, num edge types: 1
# Building blocks:
#     Node 0, Type 0, BuildingBlock: UXUYUI_clean_sbu_0, # of connection points: 4
#     Node 1, Type 0, BuildingBlock: UXUYUI_clean_sbu_0, # of connection points: 4
#     Node 2, Type 0, BuildingBlock: UXUYUI_clean_sbu_0, # of connection points: 4
#     Node 3, Type 0, BuildingBlock: UXUYUI_clean_sbu_0, # of connection points: 4
#     Node 4, Type 0, BuildingBlock: UXUYUI_clean_sbu_0, # of connection points: 4
#     Node 5, Type 0, BuildingBlock: UXUYUI_clean_sbu_0, # of connection points: 4
#     Node 6, Type 0, BuildingBlock: UXUYUI_clean_sbu_0, # of connection points: 4
#     Node 7, Type 0, BuildingBlock: UXUYUI_clean_sbu_0, # of connection points: 4
#     Node 8, Type 0, BuildingBlock: UXUYUI_clean_sbu_0, # of connection points: 4
#     Node 9, Type 0, BuildingBlock: UXUYUI_clean_sbu_0, # of connection points: 4
#     Node 10, Type 0, BuildingBlock: UXUYUI_clean_sbu_0, # of connection points: 4
#     Node 11, Type 0, BuildingBlock: UXUYUI_clean_sbu_0, # of connection points: 4
#     Node 12, Type 0, BuildingBlock: UXUYUI_clean_sbu_0, # of connection points: 4
#     Node 13, Type 0, BuildingBlock: UXUYUI_clean_sbu_0, # of connection points: 4
#     Node 14, Type 0, BuildingBlock: UXUYUI_clean_sbu_0, # of connection points: 4
#     Node 15, Type 0, BuildingBlock: UXUYUI_clean_sbu_0, # of connection points: 4
#     Node 16, Type 0, BuildingBlock: UXUYUI_clean_sbu_0, # of connection points: 4
#     Node 17, Type 0, BuildingBlock: UXUYUI_clean_sbu_0, # of connection points: 4
#     Node 18, Type 0, BuildingBlock: UXUYUI_clean_sbu_0, # of connection points: 4
#     Node 19, Type 0, BuildingBlock: UXUYUI_clean_sbu_0, # of connection points: 4
#     Node 20, Type 0, BuildingBlock: UXUYUI_clean_sbu_0, # of connection points: 4
#     Node 21, Type 0, BuildingBlock: UXUYUI_clean_sbu_0, # of connection points: 4
#     Node 22, Type 0, BuildingBlock: UXUYUI_clean_sbu_0, # of connection points: 4
#     Node 23, Type 0, BuildingBlock: UXUYUI_clean_sbu_0, # of connection points: 4
#     Node 24, Type 1, BuildingBlock: KUMBUR_clean_sbu_0, # of connection points: 6
#     Node 25, Type 1, BuildingBlock: KUMBUR_clean_sbu_0, # of connection points: 6
#     Node 26, Type 1, BuildingBlock: KUMBUR_clean_sbu_0, # of connection points: 6
#     Node 27, Type 1, BuildingBlock: KUMBUR_clean_sbu_0, # of connection points: 6
#     Node 28, Type 1, BuildingBlock: KUMBUR_clean_sbu_0, # of connection points: 6
#     Node 29, Type 1, BuildingBlock: KUMBUR_clean_sbu_0, # of connection points: 6
#     Node 30, Type 1, BuildingBlock: KUMBUR_clean_sbu_0, # of connection points: 6
#     Node 31, Type 1, BuildingBlock: KUMBUR_clean_sbu_0, # of connection points: 6
#     Node 32, Type 1, BuildingBlock: KUMBUR_clean_sbu_0, # of connection points: 6
#     Node 33, Type 1, BuildingBlock: KUMBUR_clean_sbu_0, # of connection points: 6
#     Node 34, Type 1, BuildingBlock: KUMBUR_clean_sbu_0, # of connection points: 6
#     Node 35, Type 1, BuildingBlock: KUMBUR_clean_sbu_0, # of connection points: 6
#     Node 36, Type 1, BuildingBlock: KUMBUR_clean_sbu_0, # of connection points: 6
#     Node 37, Type 1, BuildingBlock: KUMBUR_clean_sbu_0, # of connection points: 6
#     Node 38, Type 1, BuildingBlock: KUMBUR_clean_sbu_0, # of connection points: 6
#     Node 39, Type 1, BuildingBlock: KUMBUR_clean_sbu_0, # of connection points: 6
#     Edge 40, Type (0, 1), BuildingBlock: KIFKEQ_clean_linker_1, # of connection points: 2
#     Edge 41, Type (0, 1), BuildingBlock: KIFKEQ_clean_linker_1, # of connection points: 2
#     Edge 42, Type (0, 1), BuildingBlock: KIFKEQ_clean_linker_1, # of connection points: 2
#     Edge 43, Type (0, 1), BuildingBlock: KIFKEQ_clean_linker_1, # of connection points: 2
#     Edge 44, Type (0, 1), BuildingBlock: KIFKEQ_clean_linker_1, # of connection points: 2
#     Edge 45, Type (0, 1), BuildingBlock: KIFKEQ_clean_linker_1, # of connection points: 2
#     Edge 46, Type (0, 1), BuildingBlock: KIFKEQ_clean_linker_1, # of connection points: 2
#     Edge 47, Type (0, 1), BuildingBlock: KIFKEQ_clean_linker_1, # of connection points: 2
#     Edge 48, Type (0, 1), BuildingBlock: KIFKEQ_clean_linker_1, # of connection points: 2
#     Edge 49, Type (0, 1), BuildingBlock: KIFKEQ_clean_linker_1, # of connection points: 2
#     Edge 50, Type (0, 1), BuildingBlock: KIFKEQ_clean_linker_1, # of connection points: 2
#     Edge 51, Type (0, 1), BuildingBlock: KIFKEQ_clean_linker_1, # of connection points: 2
#     Edge 52, Type (0, 1), BuildingBlock: KIFKEQ_clean_linker_1, # of connection points: 2
#     Edge 53, Type (0, 1), BuildingBlock: KIFKEQ_clean_linker_1, # of connection points: 2
#     Edge 54, Type (0, 1), BuildingBlock: KIFKEQ_clean_linker_1, # of connection points: 2
#     Edge 55, Type (0, 1), BuildingBlock: KIFKEQ_clean_linker_1, # of connection points: 2
#     Edge 56, Type (0, 1), BuildingBlock: KIFKEQ_clean_linker_1, # of connection points: 2
#     Edge 57, Type (0, 1), BuildingBlock: KIFKEQ_clean_linker_1, # of connection points: 2
#     Edge 58, Type (0, 1), BuildingBlock: KIFKEQ_clean_linker_1, # of connection points: 2
#     Edge 59, Type (0, 1), BuildingBlock: KIFKEQ_clean_linker_1, # of connection points: 2
#     Edge 60, Type (0, 1), BuildingBlock: KIFKEQ_clean_linker_1, # of connection points: 2
#     Edge 61, Type (0, 1), BuildingBlock: KIFKEQ_clean_linker_1, # of connection points: 2
#     Edge 62, Type (0, 1), BuildingBlock: KIFKEQ_clean_linker_1, # of connection points: 2
#     Edge 63, Type (0, 1), BuildingBlock: KIFKEQ_clean_linker_1, # of connection points: 2
#     Edge 64, Type (0, 1), BuildingBlock: KIFKEQ_clean_linker_1, # of connection points: 2
#     Edge 65, Type (0, 1), BuildingBlock: KIFKEQ_clean_linker_1, # of connection points: 2
#     Edge 66, Type (0, 1), BuildingBlock: KIFKEQ_clean_linker_1, # of connection points: 2
#     Edge 67, Type (0, 1), BuildingBlock: KIFKEQ_clean_linker_1, # of connection points: 2
#     Edge 68, Type (0, 1), BuildingBlock: KIFKEQ_clean_linker_1, # of connection points: 2
#     Edge 69, Type (0, 1), BuildingBlock: KIFKEQ_clean_linker_1, # of connection points: 2
#     Edge 70, Type (0, 1), BuildingBlock: KIFKEQ_clean_linker_1, # of connection points: 2
#     Edge 71, Type (0, 1), BuildingBlock: KIFKEQ_clean_linker_1, # of connection points: 2
#     Edge 72, Type (0, 1), BuildingBlock: KIFKEQ_clean_linker_1, # of connection points: 2
#     Edge 73, Type (0, 1), BuildingBlock: KIFKEQ_clean_linker_1, # of connection points: 2
#     Edge 74, Type (0, 1), BuildingBlock: KIFKEQ_clean_linker_1, # of connection points: 2
#     Edge 75, Type (0, 1), BuildingBlock: KIFKEQ_clean_linker_1, # of connection points: 2
#     Edge 76, Type (0, 1), BuildingBlock: KIFKEQ_clean_linker_1, # of connection points: 2
#     Edge 77, Type (0, 1), BuildingBlock: KIFKEQ_clean_linker_1, # of connection points: 2
#     Edge 78, Type (0, 1), BuildingBlock: KIFKEQ_clean_linker_1, # of connection points: 2
#     Edge 79, Type (0, 1), BuildingBlock: KIFKEQ_clean_linker_1, # of connection points: 2
#     Edge 80, Type (0, 1), BuildingBlock: KIFKEQ_clean_linker_1, # of connection points: 2
#     Edge 81, Type (0, 1), BuildingBlock: KIFKEQ_clean_linker_1, # of connection points: 2
#     Edge 82, Type (0, 1), BuildingBlock: KIFKEQ_clean_linker_1, # of connection points: 2
#     Edge 83, Type (0, 1), BuildingBlock: KIFKEQ_clean_linker_1, # of connection points: 2
#     Edge 84, Type (0, 1), BuildingBlock: KIFKEQ_clean_linker_1, # of connection points: 2
#     Edge 85, Type (0, 1), BuildingBlock: KIFKEQ_clean_linker_1, # of connection points: 2
#     Edge 86, Type (0, 1), BuildingBlock: KIFKEQ_clean_linker_1, # of connection points: 2
#     Edge 87, Type (0, 1), BuildingBlock: KIFKEQ_clean_linker_1, # of connection points: 2
#     Edge 88, Type (0, 1), BuildingBlock: KIFKEQ_clean_linker_1, # of connection points: 2
#     Edge 89, Type (0, 1), BuildingBlock: KIFKEQ_clean_linker_1, # of connection points: 2
#     Edge 90, Type (0, 1), BuildingBlock: KIFKEQ_clean_linker_1, # of connection points: 2
#     Edge 91, Type (0, 1), BuildingBlock: KIFKEQ_clean_linker_1, # of connection points: 2
#     Edge 92, Type (0, 1), BuildingBlock: KIFKEQ_clean_linker_1, # of connection points: 2
#     Edge 93, Type (0, 1), BuildingBlock: KIFKEQ_clean_linker_1, # of connection points: 2
#     Edge 94, Type (0, 1), BuildingBlock: KIFKEQ_clean_linker_1, # of connection points: 2
#     Edge 95, Type (0, 1), BuildingBlock: KIFKEQ_clean_linker_1, # of connection points: 2
#     Edge 96, Type (0, 1), BuildingBlock: KIFKEQ_clean_linker_1, # of connection points: 2
#     Edge 97, Type (0, 1), BuildingBlock: KIFKEQ_clean_linker_1, # of connection points: 2
#     Edge 98, Type (0, 1), BuildingBlock: KIFKEQ_clean_linker_1, # of connection points: 2
#     Edge 99, Type (0, 1), BuildingBlock: KIFKEQ_clean_linker_1, # of connection points: 2
#     Edge 100, Type (0, 1), BuildingBlock: KIFKEQ_clean_linker_1, # of connection points: 2
#     Edge 101, Type (0, 1), BuildingBlock: KIFKEQ_clean_linker_1, # of connection points: 2
#     Edge 102, Type (0, 1), BuildingBlock: KIFKEQ_clean_linker_1, # of connection points: 2
#     Edge 103, Type (0, 1), BuildingBlock: KIFKEQ_clean_linker_1, # of connection points: 2
#     Edge 104, Type (0, 1), BuildingBlock: KIFKEQ_clean_linker_1, # of connection points: 2
#     Edge 105, Type (0, 1), BuildingBlock: KIFKEQ_clean_linker_1, # of connection points: 2
#     Edge 106, Type (0, 1), BuildingBlock: KIFKEQ_clean_linker_1, # of connection points: 2
#     Edge 107, Type (0, 1), BuildingBlock: KIFKEQ_clean_linker_1, # of connection points: 2
#     Edge 108, Type (0, 1), BuildingBlock: KIFKEQ_clean_linker_1, # of connection points: 2
#     Edge 109, Type (0, 1), BuildingBlock: KIFKEQ_clean_linker_1, # of connection points: 2
#     Edge 110, Type (0, 1), BuildingBlock: KIFKEQ_clean_linker_1, # of connection points: 2
#     Edge 111, Type (0, 1), BuildingBlock: KIFKEQ_clean_linker_1, # of connection points: 2
#     Edge 112, Type (0, 1), BuildingBlock: KIFKEQ_clean_linker_1, # of connection points: 2
#     Edge 113, Type (0, 1), BuildingBlock: KIFKEQ_clean_linker_1, # of connection points: 2
#     Edge 114, Type (0, 1), BuildingBlock: KIFKEQ_clean_linker_1, # of connection points: 2
#     Edge 115, Type (0, 1), BuildingBlock: KIFKEQ_clean_linker_1, # of connection points: 2
#     Edge 116, Type (0, 1), BuildingBlock: KIFKEQ_clean_linker_1, # of connection points: 2
#     Edge 117, Type (0, 1), BuildingBlock: KIFKEQ_clean_linker_1, # of connection points: 2
#     Edge 118, Type (0, 1), BuildingBlock: KIFKEQ_clean_linker_1, # of connection points: 2
#     Edge 119, Type (0, 1), BuildingBlock: KIFKEQ_clean_linker_1, # of connection points: 2
#     Edge 120, Type (0, 1), BuildingBlock: KIFKEQ_clean_linker_1, # of connection points: 2
#     Edge 121, Type (0, 1), BuildingBlock: KIFKEQ_clean_linker_1, # of connection points: 2
#     Edge 122, Type (0, 1), BuildingBlock: KIFKEQ_clean_linker_1, # of connection points: 2
#     Edge 123, Type (0, 1), BuildingBlock: KIFKEQ_clean_linker_1, # of connection points: 2
#     Edge 124, Type (0, 1), BuildingBlock: KIFKEQ_clean_linker_1, # of connection points: 2
#     Edge 125, Type (0, 1), BuildingBlock: KIFKEQ_clean_linker_1, # of connection points: 2
#     Edge 126, Type (0, 1), BuildingBlock: KIFKEQ_clean_linker_1, # of connection points: 2
#     Edge 127, Type (0, 1), BuildingBlock: KIFKEQ_clean_linker_1, # of connection points: 2
#     Edge 128, Type (0, 1), BuildingBlock: KIFKEQ_clean_linker_1, # of connection points: 2
#     Edge 129, Type (0, 1), BuildingBlock: KIFKEQ_clean_linker_1, # of connection points: 2
#     Edge 130, Type (0, 1), BuildingBlock: KIFKEQ_clean_linker_1, # of connection points: 2
#     Edge 131, Type (0, 1), BuildingBlock: KIFKEQ_clean_linker_1, # of connection points: 2
#     Edge 132, Type (0, 1), BuildingBlock: KIFKEQ_clean_linker_1, # of connection points: 2
#     Edge 133, Type (0, 1), BuildingBlock: KIFKEQ_clean_linker_1, # of connection points: 2
#     Edge 134, Type (0, 1), BuildingBlock: KIFKEQ_clean_linker_1, # of connection points: 2
#     Edge 135, Type (0, 1), BuildingBlock: KIFKEQ_clean_linker_1, # of connection points: 2
# Relax obj value: 0.141
# Max RMSD: 0.309
# Mean RMSD: 0.195
data_MOF--net-gar--node1-UXUYUI_clean_sbu_0--node2-KUMBUR_clean_sbu_0--edge1-KIFKEQ_clean_linker_1
_symmetry_space_group_name_H-M    P1
_symmetry_Int_Tables_number       1
_symmetry_cell_setting            triclinic
loop_
_symmetry_equiv_pos_as_xyz
'x, y, z'
_cell_length_a     74.184741
_cell_length_b     69.992304
_cell_length_c     69.895404
_cell_angle_alpha  100.1764
_cell_angle_beta   93.069616
_cell_angle_gamma 102.21038
loop_
_atom_site_label
_atom_site_type_symbol
_atom_site_fract_x
_atom_site_fract_y
_atom_site_fract_z
_atom_type_partial_charge
Li0 Li 0.08342 0.30926 0.372 0.0
Li1 Li 0.10181 0.33051 0.39877 0.0
Li2 Li 0.11664 0.31308 0.37317 0.0
Li3 Li 0.09726 0.2951 0.39704 0.0
C4 C 0.09702 0.34181 0.35679 0.0
N5 N 0.08551 0.35893 0.32698 0.0
C6 C 0.08373 0.35327 0.3596 0.0
C7 C 0.10463 0.33926 0.3389 0.0
C8 C 0.07802 0.36172 0.34432 0.0
C9 C 0.0986 0.34801 0.32399 0.0
C10 C 0.0692 0.3201 0.41325 0.0
C11 C 0.05925 0.3248 0.44572 0.0
N12 N 0.05061 0.339 0.4413 0.0
C13 C 0.0601 0.33463 0.409 0.0
C14 C 0.0687 0.31506 0.43173 0.0
C15 C 0.05084 0.34406 0.42339 0.0
C16 C 0.04498 0.30221 0.36407 0.0
N17 N 0.06102 0.30552 0.3554 0.0
C18 C 0.04465 0.3082 0.32597 0.0
C19 C 0.06101 0.30757 0.33641 0.0
C20 C 0.02813 0.30634 0.33509 0.0
C21 C 0.02831 0.30264 0.35418 0.0
H22 H 0.0452 0.29997 0.37896 0.0
H23 H 0.07376 0.30941 0.32952 0.0
C24 C 0.10879 0.37178 0.40679 0.0
N25 N 0.10483 0.35577 0.41558 0.0
C26 C 0.10767 0.3905 0.41666 0.0
C27 C 0.10017 0.3763 0.44514 0.0
C28 C 0.10153 0.35784 0.4347 0.0
C29 C 0.10252 0.39272 0.4358 0.0
H30 H 0.11209 0.36993 0.39182 0.0
H31 H 0.09904 0.34503 0.4416 0.0
C32 C 0.08634 0.27529 0.35237 0.0
N33 N 0.06301 0.25161 0.32109 0.0
C34 C 0.07038 0.262 0.35557 0.0
C35 C 0.09051 0.27649 0.3333 0.0
C36 C 0.05874 0.25018 0.33955 0.0
C37 C 0.07852 0.26439 0.31767 0.0
C38 C 0.13081 0.32665 0.41914 0.0
C39 C 0.14489 0.34322 0.41839 0.0
C40 C 0.12629 0.32209 0.43722 0.0
C41 C 0.15416 0.35505 0.43579 0.0
C42 C 0.13591 0.33426 0.45429 0.0
N43 N 0.14952 0.35036 0.45323 0.0
C44 C 0.14845 0.33431 0.36121 0.0
C45 C 0.14265 0.29958 0.34864 0.0
C46 C 0.16451 0.33763 0.35167 0.0
N47 N 0.138 0.31555 0.35961 0.0
C48 C 0.15855 0.30224 0.33867 0.0
C49 C 0.16972 0.32147 0.34022 0.0
H50 H 0.14418 0.34673 0.36982 0.0
H51 H 0.13405 0.28483 0.34768 0.0
C52 C 0.07615 0.26651 0.41446 0.0
N53 N 0.0938 0.27425 0.41109 0.0
C54 C 0.07266 0.25263 0.4266 0.0
C55 C 0.10554 0.25408 0.43062 0.0
C56 C 0.10841 0.26816 0.41857 0.0
C57 C 0.08747 0.24638 0.43508 0.0
H58 H 0.06483 0.27172 0.40829 0.0
H59 H 0.12231 0.27461 0.41557 0.0
O60 O 0.10283 0.33347 0.37161 0.0
O61 O 0.07838 0.31072 0.39933 0.0
O62 O 0.09764 0.28734 0.36784 0.0
O63 O 0.12135 0.31509 0.40229 0.0
H64 H 0.07786 0.3556 0.37341 0.0
H65 H 0.11487 0.33039 0.33641 0.0
H66 H 0.06766 0.37051 0.34625 0.0
H67 H 0.10427 0.34605 0.31003 0.0
H68 H 0.05888 0.32116 0.46012 0.0
H69 H 0.06022 0.33861 0.39475 0.0
H70 H 0.07584 0.30406 0.43542 0.0
H71 H 0.04383 0.35541 0.42031 0.0
H72 H 0.04501 0.31063 0.3111 0.0
H73 H 0.01589 0.30111 0.36178 0.0
H74 H 0.11013 0.40296 0.40914 0.0
H75 H 0.09626 0.37741 0.45994 0.0
H76 H 0.06694 0.261 0.37026 0.0
H77 H 0.10271 0.28687 0.3306 0.0
H78 H 0.04628 0.2399 0.34178 0.0
H79 H 0.0815 0.26524 0.30282 0.0
H80 H 0.14852 0.347 0.40454 0.0
H81 H 0.11528 0.30947 0.43808 0.0
H82 H 0.16503 0.36797 0.43543 0.0
H83 H 0.13249 0.33098 0.46839 0.0
H84 H 0.17265 0.35269 0.35305 0.0
H85 H 0.16224 0.28938 0.33014 0.0
H86 H 0.05854 0.24743 0.42981 0.0
H87 H 0.11736 0.24945 0.43652 0.0
Li88 Li 0.01913 0.79553 0.64804 0.0
Li89 Li 0.03219 0.78115 0.67451 0.0
Li90 Li 0.01037 0.76061 0.64847 0.0
Li91 Li 0.99972 0.78281 0.67278 0.0
C92 C 0.04177 0.76471 0.63195 0.0
N93 N 0.05309 0.73897 0.60278 0.0
C94 C 0.05369 0.75286 0.63665 0.0
C95 C 0.03581 0.76367 0.61241 0.0
C96 C 0.05921 0.73989 0.62169 0.0
C97 C 0.04164 0.75051 0.59788 0.0
C98 C 0.02385 0.81536 0.6963 0.0
C99 C 0.02516 0.81452 0.73068 0.0
N100 N 0.02764 0.83468 0.73482 0.0
C101 C 0.0264 0.83606 0.70088 0.0
C102 C 0.02322 0.80447 0.71129 0.0
C103 C 0.02829 0.84556 0.72046 0.0
C104 C 0.01082 0.82476 0.62859 0.0
N105 N 0.02389 0.81452 0.63209 0.0
C106 C 0.04304 0.82923 0.60985 0.0
C107 C 0.03989 0.81668 0.6233 0.0
C108 C 0.02962 0.83969 0.60557 0.0
C109 C 0.01344 0.83757 0.6153 0.0
H110 H 0.99818 0.82253 0.63575 0.0
H111 H 0.05003 0.80834 0.62647 0.0
C112 C 0.0547 0.76252 0.693 0.0
N113 N 0.05325 0.78094 0.6905 0.0
C114 C 0.07015 0.76006 0.70362 0.0
C115 C 0.08226 0.79572 0.70921 0.0
C116 C 0.06652 0.79747 0.69834 0.0
C117 C 0.08425 0.77677 0.71182 0.0
H118 H 0.04401 0.74965 0.68628 0.0
H119 H 0.06497 0.81193 0.69598 0.0
C120 C 0.98049 0.77174 0.62921 0.0
N121 N 0.953 0.75804 0.5986 0.0
C122 C 0.96288 0.76157 0.63237 0.0
C123 C 0.98397 0.77535 0.61056 0.0
C124 C 0.94922 0.75464 0.61669 0.0
C125 C 0.96993 0.76819 0.59525 0.0
C126 C 0.99888 0.74521 0.68259 0.0
C127 C 0.98212 0.73566 0.67156 0.0
C128 C 1.00354 0.73931 0.69993 0.0
C129 C 0.97019 0.72044 0.67815 0.0
C130 C 0.99123 0.72404 0.70606 0.0
N131 N 0.97494 0.715 0.69514 0.0
C132 C 0.01446 0.72219 0.64131 0.0
C133 C 0.99742 0.72903 0.61465 0.0
C134 C 0.0152 0.70368 0.63067 0.0
N135 N 0.00599 0.73458 0.63309 0.0
C136 C 0.99776 0.71056 0.60345 0.0
C137 C 0.00712 0.69784 0.61133 0.0
H138 H 0.02158 0.72719 0.65582 0.0
H139 H 0.99111 0.73918 0.60822 0.0
C140 C 0.96702 0.7954 0.67927 0.0
N141 N 0.97946 0.78648 0.68704 0.0
C142 C 0.95067 0.79654 0.68791 0.0
C143 C 0.96055 0.77976 0.71267 0.0
C144 C 0.97681 0.77922 0.70372 0.0
C145 C 0.94716 0.78822 0.70455 0.0
H146 H 0.96956 0.80106 0.66599 0.0
H147 H 0.98707 0.77257 0.70983 0.0
O148 O 0.03569 0.77699 0.64643 0.0
O149 O 0.02188 0.8059 0.67719 0.0
O150 O 0.99399 0.77882 0.64444 0.0
O151 O 0.01079 0.76022 0.6765 0.0
H152 H 0.05846 0.75349 0.65169 0.0
H153 H 0.02655 0.77269 0.60853 0.0
H154 H 0.0683 0.7305 0.62513 0.0
H155 H 0.03698 0.74941 0.58271 0.0
H156 H 0.02469 0.80627 0.74243 0.0
H157 H 0.02689 0.84469 0.68942 0.0
H158 H 0.02126 0.78845 0.70805 0.0
H159 H 0.03028 0.86158 0.72423 0.0
H160 H 0.0558 0.8307 0.60283 0.0
H161 H 1.0027 0.84525 0.61225 0.0
H162 H 0.07127 0.74514 0.70486 0.0
H163 H 0.09276 0.80899 0.7154 0.0
H164 H 0.95973 0.75917 0.64681 0.0
H165 H 0.99742 0.78339 0.60785 0.0
H166 H 0.93557 0.74664 0.61891 0.0
H167 H 0.97249 0.7707 0.58071 0.0
H168 H 0.97847 0.73984 0.65798 0.0
H169 H 0.01647 0.74658 0.70865 0.0
H170 H 0.95717 0.71292 0.66975 0.0
H171 H 0.99461 0.71938 0.71951 0.0
H172 H 0.0229 0.69454 0.63718 0.0
H173 H 0.99127 0.70654 0.58862 0.0
H174 H 0.94057 0.80308 0.68123 0.0
H175 H 0.95833 0.77341 0.72564 0.0
Li176 Li 0.58249 0.81522 0.87389 0.0
Li177 Li 0.60511 0.83379 0.89943 0.0
Li178 Li 0.61536 0.81454 0.87356 0.0
Li179 Li 0.59737 0.79878 0.89832 0.0
C180 C 0.6024 0.83981 0.853 0.0
N181 N 0.59954 0.84509 0.81474 0.0
C182 C 0.60282 0.85874 0.84889 0.0
C183 C 0.60041 0.82357 0.83758 0.0
C184 C 0.60137 0.8611 0.82948 0.0
C185 C 0.59904 0.82654 0.81837 0.0
C186 C 0.57342 0.82736 0.91729 0.0
C187 C 0.56638 0.83259 0.95086 0.0
N188 N 0.55925 0.84833 0.94796 0.0
C189 C 0.5659 0.8435 0.91461 0.0
C190 C 0.5736 0.82178 0.93554 0.0
C191 C 0.55886 0.85396 0.93032 0.0
C192 C 0.54765 0.79862 0.85098 0.0
N193 N 0.56031 0.8154 0.85961 0.0
C194 C 0.54097 0.83602 0.85027 0.0
C195 C 0.55736 0.83383 0.85928 0.0
C196 C 0.52742 0.81906 0.84155 0.0
C197 C 0.53097 0.80012 0.84168 0.0
H198 H 0.55036 0.78415 0.85164 0.0
H199 H 0.56767 0.84689 0.86633 0.0
C200 C 0.61517 0.87495 0.90735 0.0
N201 N 0.61114 0.85915 0.91641 0.0
C202 C 0.61583 0.89408 0.9175 0.0
C203 C 0.60998 0.88058 0.94669 0.0
C204 C 0.60948 0.86167 0.93593 0.0
C205 C 0.61237 0.8969 0.9372 0.0
H206 H 0.61704 0.87261 0.89199 0.0
H207 H 0.60666 0.84894 0.94293 0.0
C208 C 0.59526 0.77369 0.85819 0.0
N209 N 0.59901 0.73788 0.83664 0.0
C210 C 0.60579 0.76219 0.86622 0.0
C211 C 0.58648 0.7669 0.83927 0.0
C212 C 0.60756 0.74415 0.85508 0.0
C213 C 0.5886 0.74879 0.82858 0.0
C214 C 0.63428 0.82757 0.91691 0.0
C215 C 0.64857 0.84292 0.91376 0.0
C216 C 0.63196 0.82429 0.93587 0.0
C217 C 0.66023 0.85488 0.9297 0.0
C218 C 0.64395 0.83655 0.95142 0.0
N219 N 0.6577 0.85148 0.94804 0.0
C220 C 0.64553 0.83342 0.85724 0.0
C221 C 0.64138 0.7983 0.84989 0.0
C222 C 0.66168 0.83589 0.84778 0.0
N223 N 0.63583 0.81488 0.85826 0.0
C224 C 0.65755 0.80008 0.84038 0.0
C225 C 0.66803 0.8191 0.83951 0.0
H226 H 0.64097 0.84638 0.86427 0.0
H227 H 0.63361 0.78374 0.85095 0.0
C228 C 0.57494 0.77085 0.9158 0.0
N229 N 0.59279 0.77805 0.91262 0.0
C230 C 0.57087 0.75699 0.92792 0.0
C231 C 0.60355 0.75751 0.93245 0.0
C232 C 0.60702 0.7716 0.92047 0.0
C233 C 0.58531 0.75032 0.93653 0.0
H234 H 0.56394 0.77635 0.90937 0.0
H235 H 0.62109 0.77772 0.91774 0.0
O236 O 0.60351 0.8373 0.87203 0.0
O237 O 0.58045 0.81697 0.90213 0.0
O238 O 0.59306 0.79123 0.86895 0.0
O239 O 0.62257 0.81587 0.90152 0.0
H240 H 0.60405 0.8715 0.86054 0.0
H241 H 0.60004 0.80885 0.84033 0.0
H242 H 0.60165 0.87567 0.82613 0.0
H243 H 0.59757 0.81408 0.80634 0.0
H244 H 0.56655 0.82852 0.96509 0.0
H245 H 0.56574 0.84811 0.90067 0.0
H246 H 0.57953 0.80948 0.93797 0.0
H247 H 0.55314 0.86659 0.92849 0.0
H248 H 0.53891 0.85088 0.85021 0.0
H249 H 0.52078 0.78669 0.83518 0.0
H250 H 0.61817 0.90641 0.90981 0.0
H251 H 0.60725 0.88214 0.96189 0.0
H252 H 0.61283 0.76732 0.88073 0.0
H253 H 0.57811 0.77551 0.83289 0.0
H254 H 0.61578 0.73517 0.86106 0.0
H255 H 0.58194 0.74338 0.8139 0.0
H256 H 0.65053 0.84569 0.8992 0.0
H257 H 0.62084 0.81264 0.93861 0.0
H258 H 0.67129 0.86689 0.92749 0.0
H259 H 0.64224 0.83428 0.96619 0.0
H260 H 0.6695 0.8508 0.84767 0.0
H261 H 0.66197 0.78675 0.83405 0.0
H262 H 0.55661 0.75163 0.93063 0.0
H263 H 0.61504 0.75279 0.93895 0.0
Li264 Li 0.51846 0.29308 0.14493 0.0
Li265 Li 0.53247 0.2801 0.1719 0.0
Li266 Li 0.50966 0.25871 0.14729 0.0
Li267 Li 0.5001 0.28223 0.17115 0.0
C268 C 0.54041 0.26125 0.12947 0.0
N269 N 0.55075 0.23387 0.10109 0.0
C270 C 0.55269 0.24991 0.13451 0.0
C271 C 0.53363 0.25889 0.10995 0.0
C272 C 0.55769 0.23609 0.11996 0.0
C273 C 0.53895 0.24491 0.09583 0.0
C274 C 0.5251 0.31545 0.19255 0.0
C275 C 0.52795 0.31676 0.22731 0.0
N276 N 0.53032 0.33691 0.23035 0.0
C277 C 0.52755 0.33615 0.196 0.0
C278 C 0.52529 0.30564 0.20831 0.0
C279 C 0.53018 0.34674 0.21522 0.0
C280 C 0.51003 0.32203 0.12526 0.0
N281 N 0.52279 0.31124 0.12812 0.0
C282 C 0.54141 0.32529 0.10513 0.0
C283 C 0.53834 0.3127 0.11856 0.0
C284 C 0.52838 0.33649 0.10167 0.0
C285 C 0.51257 0.33488 0.11201 0.0
H286 H 0.49775 0.32038 0.13306 0.0
H287 H 0.54826 0.30395 0.12126 0.0
C288 C 0.55545 0.26213 0.19046 0.0
N289 N 0.55399 0.28036 0.18739 0.0
C290 C 0.57113 0.25989 0.20081 0.0
C291 C 0.58344 0.29543 0.20509 0.0
C292 C 0.56747 0.29695 0.19445 0.0
C293 C 0.58545 0.27665 0.20826 0.0
H294 H 0.54455 0.24921 0.18439 0.0
H295 H 0.5659 0.31126 0.19167 0.0
C296 C 0.47965 0.26905 0.12776 0.0
N297 N 0.45208 0.25397 0.09737 0.0
C298 C 0.46203 0.25931 0.13134 0.0
C299 C 0.4831 0.27157 0.10879 0.0
C300 C 0.44833 0.25165 0.11576 0.0
C301 C 0.46902 0.26373 0.09361 0.0
C302 C 0.49937 0.24552 0.18268 0.0
C303 C 0.48217 0.23609 0.17252 0.0
C304 C 0.5046 0.24016 0.20013 0.0
C305 C 0.47036 0.2215 0.18008 0.0
C306 C 0.4924 0.22551 0.20723 0.0
N307 N 0.47567 0.21657 0.19715 0.0
C308 C 0.51404 0.22065 0.14212 0.0
C309 C 0.49482 0.22484 0.1157 0.0
C310 C 0.51443 0.20156 0.13269 0.0
N311 N 0.50469 0.232 0.1334 0.0
C312 C 0.49469 0.20567 0.10574 0.0
C313 C 0.50496 0.19396 0.11408 0.0
H314 H 0.5221 0.22688 0.15601 0.0
H315 H 0.4877 0.23412 0.10886 0.0
C316 C 0.46777 0.29542 0.17843 0.0
N317 N 0.48067 0.28709 0.18624 0.0
C318 C 0.45207 0.29745 0.188 0.0
C319 C 0.46352 0.28273 0.21364 0.0
C320 C 0.4791 0.28124 0.20373 0.0
C321 C 0.44966 0.29063 0.20559 0.0
H322 H 0.46945 0.29993 0.16449 0.0
H323 H 0.4897 0.27497 0.20977 0.0
O324 O 0.53484 0.27436 0.1436 0.0
O325 O 0.5224 0.30492 0.17379 0.0
O326 O 0.49319 0.27679 0.14287 0.0
O327 O 0.51117 0.25991 0.17563 0.0
H328 H 0.55815 0.2516 0.14952 0.0
H329 H 0.52418 0.26757 0.10579 0.0
H330 H 0.56705 0.22709 0.12367 0.0
H331 H 0.53366 0.2428 0.0807 0.0
H332 H 0.52812 0.30937 0.23964 0.0
H333 H 0.52741 0.34394 0.18393 0.0
H334 H 0.52341 0.28963 0.20594 0.0
H335 H 0.5321 0.36278 0.21812 0.0
H336 H 0.55389 0.32634 0.09764 0.0
H337 H 0.50213 0.34314 0.10959 0.0
H338 H 0.57223 0.24507 0.20247 0.0
H339 H 0.59408 0.30875 0.21069 0.0
H340 H 0.45889 0.25779 0.14601 0.0
H341 H 0.49651 0.2794 0.10577 0.0
H342 H 0.43467 0.24396 0.11831 0.0
H343 H 0.47155 0.2654 0.07883 0.0
H344 H 0.47806 0.23988 0.15889 0.0
H345 H 0.51788 0.24735 0.20817 0.0
H346 H 0.457 0.21408 0.17236 0.0
H347 H 0.49622 0.22127 0.22077 0.0
H348 H 0.52289 0.19332 0.13951 0.0
H349 H 0.48708 0.20031 0.09147 0.0
H350 H 0.44156 0.30349 0.18132 0.0
H351 H 0.46215 0.27748 0.22729 0.0
Li352 Li 0.08682 0.83283 0.11035 0.0
Li353 Li 0.10507 0.81869 0.13472 0.0
Li354 Li 0.0828 0.7946 0.10719 0.0
Li355 Li 0.07012 0.81416 0.13542 0.0
C356 C 0.11499 0.8223 0.09072 0.0
N357 N 0.13297 0.83666 0.06086 0.0
C358 C 0.12961 0.83912 0.09495 0.0
C359 C 0.10956 0.81271 0.07135 0.0
C360 C 0.1385 0.84618 0.07962 0.0
C361 C 0.11883 0.82021 0.05645 0.0
C362 C 0.10046 0.85568 0.15247 0.0
C363 C 0.10949 0.87492 0.18502 0.0
N364 N 0.12199 0.88834 0.17775 0.0
C365 C 0.11336 0.86966 0.1453 0.0
C366 C 0.09842 0.85833 0.17246 0.0
C367 C 0.12412 0.88609 0.15833 0.0
C368 C 0.08005 0.8722 0.10925 0.0
N369 N 0.08511 0.85674 0.09763 0.0
C370 C 0.08553 0.87469 0.07086 0.0
C371 C 0.08777 0.85781 0.0786 0.0
C372 C 0.08055 0.89102 0.08265 0.0
C373 C 0.07784 0.88933 0.10218 0.0
H374 H 0.07752 0.87123 0.12418 0.0
H375 H 0.0915 0.84554 0.06922 0.0
C376 C 0.13099 0.80052 0.15226 0.0
N377 N 0.12846 0.81892 0.15067 0.0
C378 C 0.14653 0.79817 0.16325 0.0
C379 C 0.15737 0.83378 0.17055 0.0
C380 C 0.14142 0.83546 0.15956 0.0
C381 C 0.16024 0.81489 0.17265 0.0
H382 H 0.12082 0.78743 0.145 0.0
H383 H 0.13959 0.85003 0.15809 0.0
C384 C 0.05091 0.80176 0.09116 0.0
N385 N 0.02581 0.78234 0.05956 0.0
C386 C 0.03396 0.78993 0.09402 0.0
C387 C 0.05508 0.80383 0.07228 0.0
C388 C 0.02146 0.78019 0.07784 0.0
C389 C 0.0422 0.79388 0.05647 0.0
C390 C 0.08317 0.78586 0.15158 0.0
C391 C 0.07584 0.76542 0.14947 0.0
C392 C 0.08802 0.79763 0.17022 0.0
C393 C 0.07338 0.75709 0.16615 0.0
C394 C 0.08537 0.78873 0.18654 0.0
N395 N 0.07816 0.76881 0.18418 0.0
C396 C 0.09351 0.76008 0.08417 0.0
C397 C 0.06283 0.75371 0.09293 0.0
C398 C 0.09192 0.73961 0.07682 0.0
N399 N 0.07912 0.76681 0.09222 0.0
C400 C 0.06065 0.73318 0.08575 0.0
C401 C 0.07541 0.72561 0.07786 0.0
H402 H 0.10658 0.77048 0.08421 0.0
H403 H 0.0517 0.75904 0.09991 0.0
C404 C 0.04462 0.82987 0.16 0.0
N405 N 0.04916 0.81276 0.15131 0.0
C406 C 0.02906 0.82922 0.17067 0.0
C407 C 0.02309 0.79336 0.16345 0.0
C408 C 0.03867 0.7947 0.1528 0.0
C409 C 0.01792 0.81077 0.17258 0.0
H410 H 0.05296 0.84409 0.15843 0.0
H411 H 0.04229 0.78124 0.14556 0.0
O412 O 0.10595 0.81534 0.10547 0.0
O413 O 0.08975 0.83956 0.13995 0.0
O414 O 0.06342 0.81117 0.10677 0.0
O415 O 0.08554 0.79434 0.13546 0.0
H416 H 0.13399 0.84664 0.1099 0.0
H417 H 0.09824 0.79968 0.06788 0.0
H418 H 0.14981 0.85922 0.08265 0.0
H419 H 0.11475 0.81299 0.04137 0.0
H420 H 0.1081 0.87715 0.20053 0.0
H421 H 0.1151 0.86781 0.12987 0.0
H422 H 0.08838 0.84772 0.1782 0.0
H423 H 0.13419 0.89701 0.15301 0.0
H424 H 0.08792 0.87499 0.05576 0.0
H425 H 0.07364 0.90105 0.11199 0.0
H426 H 0.14753 0.78324 0.16448 0.0
H427 H 0.16747 0.84725 0.17706 0.0
H428 H 0.03057 0.78818 0.10857 0.0
H429 H 0.06813 0.81298 0.06986 0.0
H430 H 0.00832 0.77089 0.07981 0.0
H431 H 0.04524 0.7953 0.04176 0.0
H432 H 0.07204 0.75612 0.13512 0.0
H433 H 0.09378 0.81345 0.17204 0.0
H434 H 0.06768 0.74129 0.16477 0.0
H435 H 0.08904 0.79765 0.20107 0.0
H436 H 0.10386 0.73475 0.07121 0.0
H437 H 0.04752 0.72331 0.08676 0.0
H438 H 0.02564 0.84312 0.17703 0.0
H439 H 0.01527 0.77875 0.16461 0.0
Li440 Li 0.52528 0.79231 0.43953 0.0
Li441 Li 0.50341 0.76832 0.41186 0.0
Li442 Li 0.52367 0.75421 0.437 0.0
Li443 Li 0.53858 0.77226 0.41172 0.0
C444 C 0.49636 0.77557 0.45874 0.0
N445 N 0.48316 0.78776 0.49397 0.0
C446 C 0.48106 0.78428 0.45926 0.0
C447 C 0.50482 0.77282 0.47607 0.0
C448 C 0.47463 0.79042 0.47724 0.0
C449 C 0.49797 0.77914 0.49376 0.0
C450 C 0.52364 0.80487 0.39861 0.0
C451 C 0.5165 0.81154 0.36672 0.0
N452 N 0.52532 0.83096 0.37303 0.0
C453 C 0.53264 0.82488 0.40479 0.0
C454 C 0.51551 0.79812 0.37944 0.0
C455 C 0.53334 0.83783 0.39163 0.0
C456 C 0.54402 0.83174 0.46305 0.0
N457 N 0.52755 0.81998 0.45429 0.0
C458 C 0.51344 0.84826 0.46019 0.0
C459 C 0.51241 0.82796 0.45285 0.0
C460 C 0.5303 0.86092 0.46905 0.0
C461 C 0.54566 0.85216 0.47064 0.0
H462 H 0.55617 0.82554 0.46344 0.0
H463 H 0.49958 0.81873 0.44527 0.0
C464 C 0.47153 0.75227 0.3813 0.0
N465 N 0.47969 0.76731 0.39643 0.0
C466 C 0.45536 0.75329 0.37026 0.0
C467 C 0.45605 0.78508 0.3905 0.0
C468 C 0.4722 0.78353 0.40104 0.0
C469 C 0.44727 0.76989 0.37473 0.0
H470 H 0.47764 0.73953 0.37761 0.0
H471 H 0.479 0.79556 0.4128 0.0
C472 C 0.55889 0.77874 0.45517 0.0
N473 N 0.58538 0.78084 0.48525 0.0
C474 C 0.57445 0.77089 0.45142 0.0
C475 C 0.55682 0.78773 0.47419 0.0
C476 C 0.58767 0.77206 0.46684 0.0
C477 C 0.57037 0.78864 0.4892 0.0
C478 C 0.52307 0.73476 0.39181 0.0
C479 C 0.53167 0.71943 0.39473 0.0
C480 C 0.51939 0.73774 0.37288 0.0
C481 C 0.53659 0.7074 0.37861 0.0
C482 C 0.52452 0.72539 0.35713 0.0
N483 N 0.53296 0.71061 0.3603 0.0
C484 C 0.514 0.71244 0.44255 0.0
C485 C 0.53827 0.732 0.46535 0.0
C486 C 0.5157 0.69515 0.44971 0.0
N487 N 0.52534 0.73058 0.45018 0.0
C488 C 0.54052 0.71508 0.47286 0.0
C489 C 0.52933 0.69601 0.465 0.0
H490 H 0.50376 0.71121 0.43052 0.0
H491 H 0.54723 0.74622 0.47161 0.0
C492 C 0.56548 0.78958 0.38697 0.0
N493 N 0.55979 0.77367 0.39569 0.0
C494 C 0.58125 0.79114 0.37658 0.0
C495 C 0.58521 0.75992 0.38411 0.0
C496 C 0.56945 0.75904 0.39448 0.0
C497 C 0.59145 0.7762 0.37501 0.0
H498 H 0.55799 0.80131 0.38826 0.0
H499 H 0.5652 0.74681 0.40194 0.0
O500 O 0.50306 0.76973 0.44135 0.0
O501 O 0.52277 0.79197 0.41129 0.0
O502 O 0.5458 0.77772 0.44029 0.0
O503 O 0.5183 0.74682 0.40741 0.0
H504 H 0.47428 0.78636 0.44594 0.0
H505 H 0.51657 0.76591 0.47587 0.0
H506 H 0.46286 0.7973 0.47789 0.0
H507 H 0.50443 0.77719 0.50731 0.0
H508 H 0.51026 0.80653 0.35184 0.0
H509 H 0.53913 0.83033 0.41953 0.0
H510 H 0.50847 0.78271 0.37442 0.0
H511 H 0.54027 0.85335 0.3962 0.0
H512 H 0.50109 0.85398 0.45866 0.0
H513 H 0.55908 0.86114 0.47694 0.0
H514 H 0.4492 0.74105 0.35841 0.0
H515 H 0.45076 0.79838 0.39445 0.0
H516 H 0.57625 0.76388 0.4368 0.0
H517 H 0.54486 0.79387 0.47734 0.0
H518 H 0.59975 0.76598 0.46417 0.0
H519 H 0.56894 0.79552 0.504 0.0
H520 H 0.53474 0.71702 0.4093 0.0
H521 H 0.5127 0.74949 0.37037 0.0
H522 H 0.54335 0.69555 0.38065 0.0
H523 H 0.52181 0.72756 0.3424 0.0
H524 H 0.50628 0.68121 0.44317 0.0
H525 H 0.5514 0.71701 0.48444 0.0
H526 H 0.58534 0.80392 0.36974 0.0
H527 H 0.5927 0.74817 0.38366 0.0
Li528 Li 0.58767 0.3321 0.60881 0.0
Li529 Li 0.60663 0.31756 0.6322 0.0
Li530 Li 0.58383 0.29452 0.60628 0.0
Li531 Li 0.57084 0.31332 0.63433 0.0
C532 C 0.61317 0.31882 0.58607 0.0
N533 N 0.6262 0.32739 0.55157 0.0
C534 C 0.62887 0.33403 0.58645 0.0
C535 C 0.60414 0.3079 0.56818 0.0
C536 C 0.63522 0.33816 0.56883 0.0
C537 C 0.61094 0.31247 0.55089 0.0
C538 C 0.60263 0.35509 0.6495 0.0
C539 C 0.6116 0.37808 0.68018 0.0
N540 N 0.62593 0.38839 0.67212 0.0
C541 C 0.61743 0.36588 0.6415 0.0
C542 C 0.59965 0.36119 0.66897 0.0
C543 C 0.62905 0.38269 0.65318 0.0
C544 C 0.5818 0.37193 0.60843 0.0
N545 N 0.58585 0.35608 0.59641 0.0
C546 C 0.58512 0.37372 0.56952 0.0
C547 C 0.58746 0.35682 0.57714 0.0
C548 C 0.58109 0.3904 0.58168 0.0
C549 C 0.57947 0.38908 0.60146 0.0
H550 H 0.58011 0.37125 0.62358 0.0
H551 H 0.59043 0.34424 0.56748 0.0
C552 C 0.64328 0.31036 0.63801 0.0
N553 N 0.63056 0.31902 0.64742 0.0
C554 C 0.65957 0.30868 0.64825 0.0
C555 C 0.64992 0.32537 0.67775 0.0
C556 C 0.63369 0.32655 0.66698 0.0
C557 C 0.66313 0.31605 0.66852 0.0
H558 H 0.64057 0.30422 0.62254 0.0
H559 H 0.62337 0.33304 0.67442 0.0
C560 C 0.55042 0.3014 0.59145 0.0
N561 N 0.52238 0.2827 0.56238 0.0
C562 C 0.53405 0.28979 0.596 0.0
C563 C 0.55246 0.30373 0.57219 0.0
C564 C 0.52005 0.28038 0.58107 0.0
C565 C 0.53814 0.2941 0.55768 0.0
C566 C 0.58472 0.27452 0.63582 0.0
C567 C 0.56715 0.26299 0.63716 0.0
C568 C 0.59992 0.26567 0.63459 0.0
C569 C 0.56508 0.24268 0.63715 0.0
C570 C 0.59727 0.2453 0.63458 0.0
N571 N 0.58005 0.23432 0.63584 0.0
C572 C 0.59488 0.25973 0.5844 0.0
C573 C 0.56314 0.25389 0.58944 0.0
C574 C 0.59327 0.23927 0.57696 0.0
N575 N 0.57998 0.26672 0.59074 0.0
C576 C 0.56095 0.23338 0.58222 0.0
C577 C 0.57619 0.22557 0.57616 0.0
H578 H 0.60831 0.26988 0.58599 0.0
H579 H 0.55152 0.25929 0.59507 0.0
C580 C 0.53605 0.32081 0.64575 0.0
N581 N 0.55028 0.31259 0.65072 0.0
C582 C 0.52053 0.31977 0.65648 0.0
C583 C 0.53448 0.30188 0.6774 0.0
C584 C 0.54978 0.30335 0.66632 0.0
C585 C 0.51944 0.31011 0.67259 0.0
H586 H 0.53669 0.32808 0.63328 0.0
H587 H 0.56117 0.29683 0.67002 0.0
O588 O 0.60667 0.31471 0.60315 0.0
O589 O 0.59123 0.3385 0.63836 0.0
O590 O 0.56426 0.31071 0.60585 0.0
O591 O 0.58692 0.29428 0.63518 0.0
H592 H 0.63604 0.34256 0.6002 0.0
H593 H 0.59198 0.29608 0.56766 0.0
H594 H 0.64733 0.34992 0.56888 0.0
H595 H 0.60406 0.30418 0.53693 0.0
H596 H 0.60949 0.38299 0.6953 0.0
H597 H 0.61989 0.36129 0.62643 0.0
H598 H 0.58826 0.35292 0.67535 0.0
H599 H 0.64056 0.3912 0.6472 0.0
H600 H 0.58667 0.37373 0.55421 0.0
H601 H 0.57602 0.40107 0.61158 0.0
H602 H 0.66928 0.30159 0.64028 0.0
H603 H 0.65176 0.33111 0.69333 0.0
H604 H 0.53227 0.28786 0.61086 0.0
H605 H 0.56495 0.31289 0.56849 0.0
H606 H 0.50736 0.27121 0.58435 0.0
H607 H 0.53954 0.29571 0.54268 0.0
H608 H 0.55519 0.26956 0.6378 0.0
H609 H 0.61358 0.27437 0.63339 0.0
H610 H 0.55155 0.23353 0.63802 0.0
H611 H 0.60889 0.2382 0.63349 0.0
H612 H 0.60554 0.23416 0.57275 0.0
H613 H 0.54743 0.22366 0.5818 0.0
H614 H 0.50957 0.32667 0.65226 0.0
H615 H 0.53434 0.294 0.68941 0.0
Li616 Li 0.0266 0.29258 0.93873 0.0
Li617 Li 1.00494 0.26915 0.91057 0.0
Li618 Li 0.02438 0.25428 0.93556 0.0
Li619 Li 0.04009 0.27218 0.91066 0.0
C620 C 0.99391 0.27488 0.9548 0.0
N621 N 0.97308 0.28429 0.98519 0.0
C622 C 0.97762 0.28123 0.9513 0.0
C623 C 0.9995 0.27304 0.97367 0.0
C624 C 0.96731 0.286 0.96689 0.0
C625 C 0.98881 0.27794 0.98886 0.0
C626 C 0.02475 0.30419 0.89653 0.0
C627 C 0.02442 0.30792 0.86289 0.0
N628 N 0.02358 0.32731 0.8685 0.0
C629 C 0.02396 0.32417 0.90198 0.0
C630 C 0.02504 0.29599 0.87685 0.0
C631 C 0.02335 0.33561 0.88758 0.0
C632 C 0.04716 0.33257 0.95576 0.0
N633 N 0.02999 0.32029 0.95399 0.0
C634 C 0.01742 0.34834 0.96758 0.0
C635 C 0.01526 0.32787 0.9599 0.0
C636 C 0.03488 0.36153 0.96902 0.0
C637 C 0.0499 0.35314 0.96321 0.0
H638 H 0.05869 0.32653 0.95066 0.0
H639 H 1.00159 0.31826 0.9579 0.0
C640 C 0.96924 0.2513 0.88567 0.0
N641 N 0.98142 0.26842 0.89468 0.0
C642 C 0.95309 0.25198 0.87436 0.0
C643 C 0.96222 0.28777 0.88151 0.0
C644 C 0.97789 0.28643 0.89298 0.0
C645 C 0.94947 0.27043 0.8719 0.0
H646 H 0.97204 0.23705 0.88716 0.0
H647 H 0.98725 0.29994 0.9006 0.0
C648 C 0.05853 0.27726 0.95505 0.0
N649 N 0.08221 0.27689 0.98676 0.0
C650 C 0.07462 0.27015 0.95223 0.0
C651 C 0.05459 0.28443 0.97394 0.0
C652 C 0.08637 0.27 0.96847 0.0
C653 C 0.06671 0.28407 0.9898 0.0
C654 C 0.02094 0.23454 0.88931 0.0
C655 C 0.02936 0.21861 0.89023 0.0
C656 C 0.01369 0.23703 0.87129 0.0
C657 C 0.03083 0.20571 0.87297 0.0
C658 C 0.01541 0.2238 0.85436 0.0
N659 N 0.0239 0.20856 0.85555 0.0
C660 C 0.01329 0.22124 0.9584 0.0
C661 C 0.04252 0.2241 0.94622 0.0
C662 C 0.01561 0.20439 0.96616 0.0
N663 N 0.02665 0.23082 0.9485 0.0
C664 C 0.04546 0.20752 0.95384 0.0
C665 C 0.03188 0.19699 0.9639 0.0
H666 H 1.00061 0.22641 0.96009 0.0
H667 H 0.05299 0.23147 0.93815 0.0
C668 C 0.06911 0.29081 0.88944 0.0
N669 N 0.06151 0.2735 0.89519 0.0
C670 C 0.0849 0.29236 0.87908 0.0
C671 C 0.08521 0.25841 0.88105 0.0
C672 C 0.06944 0.25753 0.8914 0.0
C673 C 0.09324 0.27601 0.87467 0.0
H674 H 0.06307 0.3036 0.89306 0.0
H675 H 0.06377 0.24417 0.89676 0.0
O676 O 1.00415 0.27013 0.93974 0.0
O677 O 0.02527 0.29275 0.91042 0.0
O678 O 0.04682 0.27743 0.93936 0.0
O679 O 0.01932 0.2473 0.90604 0.0
H680 H 0.97307 0.2826 0.93673 0.0
H681 H 0.01193 0.26783 0.97652 0.0
H682 H 0.95473 0.29106 0.96445 0.0
H683 H 0.99299 0.27666 1.00356 0.0
H684 H 0.02467 0.30178 0.8476 0.0
H685 H 0.02371 0.33075 0.91715 0.0
H686 H 0.02596 0.28067 0.87243 0.0
H687 H 0.02267 0.35107 0.89158 0.0
H688 H 1.00529 0.35388 0.97151 0.0
H689 H 0.0637 0.36244 0.96414 0.0
H690 H 0.94372 0.23817 0.86726 0.0
H691 H 0.95997 0.30235 0.88043 0.0
H692 H 0.0779 0.26469 0.93765 0.0
H693 H 0.04233 0.29027 0.97631 0.0
H694 H 0.09881 0.26441 0.96653 0.0
H695 H 0.06382 0.28952 1.00453 0.0
H696 H 0.03482 0.21631 0.90408 0.0
H697 H 0.00669 0.24895 0.87037 0.0
H698 H 0.03746 0.19342 0.87345 0.0
H699 H 0.00993 0.2256 0.8403 0.0
H700 H 1.00446 0.197 0.97347 0.0
H701 H 0.05846 0.20314 0.95181 0.0
H702 H 0.09041 0.30624 0.87447 0.0
H703 H 0.09127 0.24552 0.87847 0.0
Li704 Li 0.42777 0.05714 0.3219 0.0
Li705 Li 0.40443 0.02903 0.30584 0.0
Li706 Li 0.42708 0.04749 0.28777 0.0
Li707 Li 0.4024 0.06223 0.30109 0.0
C708 C 0.44354 0.02694 0.31986 0.0
N709 N 0.46807 0.01867 0.34671 0.0
C710 C 0.437 0.01489 0.33311 0.0
C711 C 0.46256 0.03469 0.3202 0.0
C712 C 0.44963 0.01088 0.34656 0.0
C713 C 0.47474 0.03037 0.33392 0.0
C714 C 0.38325 0.04876 0.33157 0.0
C715 C 0.35014 0.04085 0.3236 0.0
N716 N 0.34773 0.04392 0.34296 0.0
C717 C 0.38044 0.05192 0.35139 0.0
C718 C 0.36799 0.04322 0.31756 0.0
C719 C 0.36238 0.04935 0.35686 0.0
C720 C 0.46026 0.07926 0.34568 0.0
N721 N 0.44334 0.06695 0.3452 0.0
C722 C 0.44969 0.06295 0.37781 0.0
C723 C 0.43771 0.05918 0.36091 0.0
C724 C 0.46761 0.07484 0.37845 0.0
C725 C 0.47276 0.08337 0.36229 0.0
H726 H 0.46433 0.08519 0.33294 0.0
H727 H 0.42427 0.04917 0.3599 0.0
C728 C 0.39946 0.98872 0.29547 0.0
N729 N 0.39184 1.00256 0.30625 0.0
C730 C 0.39185 0.96852 0.29397 0.0
C731 C 0.36901 0.97703 0.31536 0.0
C732 C 0.37708 0.99714 0.31642 0.0
C733 C 0.37639 0.96246 0.30395 0.0
H734 H 0.41155 0.99342 0.28806 0.0
H735 H 0.37162 0.00822 0.32555 0.0
C736 C 0.44031 0.08652 0.29253 0.0
N737 N 0.46274 0.10929 0.27073 0.0
C738 C 0.43321 0.09931 0.28248 0.0
C739 C 0.45887 0.08546 0.29165 0.0
C740 C 0.44477 0.11066 0.27151 0.0
C741 C 0.46996 0.09703 0.28049 0.0
C742 C 0.39082 0.0232 0.26654 0.0
C743 C 0.40007 0.00958 0.25663 0.0
C744 C 0.37198 0.02137 0.2613 0.0
C745 C 0.39025 0.99412 0.24192 0.0
C746 C 0.36265 1.00572 0.24649 0.0
N747 N 0.3719 0.99252 0.23721 0.0
C748 C 0.45325 0.033 0.26563 0.0
C749 C 0.43799 0.05427 0.25119 0.0
C750 C 0.46401 0.031 0.25002 0.0
N751 N 0.4408 0.04474 0.26604 0.0
C752 C 0.44867 0.05295 0.23542 0.0
C753 C 0.46192 0.04127 0.23484 0.0
H754 H 0.45482 0.02523 0.27744 0.0
H755 H 0.42765 0.06312 0.25178 0.0
C756 C 0.37913 0.08937 0.30981 0.0
N757 N 0.38616 0.07795 0.29564 0.0
C758 C 0.36598 0.09962 0.30471 0.0
C759 C 0.36809 0.08645 0.27064 0.0
C760 C 0.3811 0.07644 0.27639 0.0
C761 C 0.36029 0.0981 0.28489 0.0
H762 H 0.38352 0.09023 0.32501 0.0
H763 H 0.38705 0.06724 0.26554 0.0
O764 O 0.43135 0.03143 0.3069 0.0
O765 O 0.4009 0.05165 0.32606 0.0
O766 O 0.42917 0.07523 0.30327 0.0
O767 O 0.4002 0.03851 0.28097 0.0
H768 H 0.42232 0.00894 0.33321 0.0
H769 H 0.46785 0.04419 0.31019 0.0
H770 H 0.44476 1.00168 0.35697 0.0
H771 H 0.48947 0.03641 0.33445 0.0
H772 H 0.33822 0.03653 0.31289 0.0
H773 H 0.39211 0.05637 0.36244 0.0
H774 H 0.36992 0.04068 0.30222 0.0
H775 H 0.36 0.05172 0.37214 0.0
H776 H 0.44531 0.05577 0.38983 0.0
H777 H 0.48644 0.09268 0.36232 0.0
H778 H 0.3979 0.9578 0.28489 0.0
H779 H 0.3573 0.97293 0.32357 0.0
H780 H 0.41894 0.10046 0.28314 0.0
H781 H 0.46454 0.07546 0.29911 0.0
H782 H 0.43944 0.12057 0.26361 0.0
H783 H 0.48429 0.0962 0.27952 0.0
H784 H 0.41463 0.01076 0.26037 0.0
H785 H 0.36461 0.03196 0.26846 0.0
H786 H 0.39723 0.9834 0.23426 0.0
H787 H 0.34807 1.00411 0.24235 0.0
H788 H 0.47416 0.02191 0.25003 0.0
H789 H 0.44661 0.0609 0.22382 0.0
H790 H 0.36039 0.10867 0.31607 0.0
H791 H 0.36392 0.08476 0.25524 0.0
Li792 Li 0.3017 0.20893 0.53109 0.0
Li793 Li 0.31473 0.18068 0.51081 0.0
Li794 Li 0.30092 0.20354 0.49478 0.0
Li795 Li 0.28086 0.17908 0.50803 0.0
C796 C 0.3351 0.22508 0.50859 0.0
N797 N 0.35871 0.25472 0.49496 0.0
C798 C 0.34515 0.22017 0.49282 0.0
C799 C 0.33716 0.245 0.51757 0.0
C800 C 0.35698 0.2354 0.48609 0.0
C801 C 0.34915 0.25978 0.51044 0.0
C802 C 0.29675 0.16606 0.54308 0.0
C803 C 0.2975 0.13279 0.54731 0.0
N804 N 0.29678 0.13846 0.56685 0.0
C805 C 0.29607 0.1716 0.56319 0.0
C806 C 0.29754 0.14654 0.53507 0.0
C807 C 0.29607 0.15741 0.57497 0.0
C808 C 0.28777 0.22853 0.56464 0.0
N809 N 0.30349 0.22467 0.55717 0.0
C810 C 0.32071 0.2379 0.58844 0.0
C811 C 0.31984 0.22941 0.56858 0.0
C812 C 0.30458 0.24152 0.59678 0.0
C813 C 0.28803 0.23707 0.58441 0.0
H814 H 0.27484 0.22424 0.5554 0.0
H815 H 0.3321 0.22591 0.56242 0.0
C816 C 0.34027 0.15788 0.49538 0.0
N817 N 0.33428 0.16648 0.51213 0.0
C818 C 0.35433 0.14738 0.4961 0.0
C819 C 0.35611 0.15508 0.5313 0.0
C820 C 0.34208 0.1655 0.52989 0.0
C821 C 0.36243 0.14572 0.51426 0.0
H822 H 0.3341 0.15916 0.48142 0.0
H823 H 0.33729 0.17269 0.54303 0.0
C824 C 0.27593 0.22366 0.50507 0.0
N825 N 0.26712 0.25546 0.49122 0.0
C826 C 0.26448 0.22038 0.48772 0.0
C827 C 0.28287 0.24308 0.5154 0.0
C828 C 0.26021 0.23666 0.48095 0.0
C829 C 0.27825 0.25897 0.50817 0.0
C830 C 0.28593 0.15737 0.47602 0.0
C831 C 0.27003 0.15876 0.46516 0.0
C832 C 0.28979 0.13869 0.47611 0.0
C833 C 0.25816 0.1414 0.45471 0.0
C834 C 0.27758 0.12167 0.46546 0.0
N835 N 0.26214 0.12336 0.45509 0.0
C836 C 0.29978 0.20453 0.45419 0.0
C837 C 0.30784 0.23693 0.47345 0.0
C838 C 0.30038 0.21227 0.43703 0.0
N839 N 0.30327 0.21678 0.47203 0.0
C840 C 0.30891 0.24534 0.45661 0.0
C841 C 0.30506 0.233 0.43793 0.0
H842 H 0.2964 0.1886 0.45317 0.0
H843 H 0.31061 0.24657 0.48765 0.0
C844 C 0.25352 0.14232 0.50778 0.0
N845 N 0.25627 0.16184 0.50627 0.0
C846 C 0.23553 0.1307 0.50719 0.0
C847 C 0.22347 0.15923 0.50292 0.0
C848 C 0.24165 0.17031 0.50377 0.0
C849 C 0.22012 0.13916 0.50492 0.0
H850 H 0.26525 0.13573 0.50958 0.0
H851 H 0.24407 0.18581 0.50259 0.0
O852 O 0.32329 0.21045 0.51523 0.0
O853 O 0.2974 0.17993 0.53146 0.0
O854 O 0.2805 0.20796 0.51183 0.0
O855 O 0.29752 0.17421 0.48664 0.0
H856 H 0.34369 0.20478 0.48575 0.0
H857 H 0.32945 0.24898 0.52982 0.0
H858 H 0.36476 0.23187 0.47381 0.0
H859 H 0.35082 0.27529 0.51716 0.0
H860 H 0.29814 0.11763 0.5413 0.0
H861 H 0.29563 0.18671 0.56966 0.0
H862 H 0.29842 0.14213 0.51958 0.0
H863 H 0.29556 0.16149 0.59056 0.0
H864 H 0.33384 0.24123 0.59726 0.0
H865 H 0.27518 0.23928 0.59013 0.0
H866 H 0.35891 0.14079 0.48255 0.0
H867 H 0.36169 0.1541 0.54563 0.0
H868 H 0.25913 0.20545 0.47945 0.0
H869 H 0.29189 0.24589 0.52876 0.0
H870 H 0.25146 0.23437 0.46748 0.0
H871 H 0.28358 0.27409 0.51597 0.0
H872 H 0.26676 0.17309 0.46503 0.0
H873 H 0.30201 0.1373 0.48441 0.0
H874 H 0.24574 0.14225 0.44638 0.0
H875 H 0.28035 0.10711 0.46548 0.0
H876 H 0.29691 0.20194 0.42321 0.0
H877 H 0.31289 0.26138 0.45831 0.0
H878 H 0.2338 0.11539 0.50898 0.0
H879 H 0.21217 0.16642 0.50072 0.0
Li880 Li 0.19124 0.03721 0.77319 0.0
Li881 Li 0.1639 0.01608 0.79005 0.0
Li882 Li 0.18795 0.99584 0.76837 0.0
Li883 Li 0.16387 0.01363 0.75022 0.0
C884 C 0.20509 0.02706 0.80877 0.0
N885 N 0.23139 0.04453 0.83985 0.0
C886 C 0.20101 0.04055 0.82427 0.0
C887 C 0.2225 0.02242 0.80903 0.0
C888 C 0.21451 0.04924 0.83986 0.0
C889 C 0.23562 0.03142 0.8249 0.0
C890 C 0.15392 0.05051 0.77478 0.0
C891 C 0.12566 0.06092 0.76809 0.0
N892 N 0.13306 0.07903 0.77957 0.0
C893 C 0.16126 0.06919 0.78653 0.0
C894 C 0.13599 0.04628 0.76549 0.0
C895 C 0.15049 0.08342 0.78877 0.0
C896 C 0.20496 0.07501 0.7598 0.0
N897 N 0.20727 0.06587 0.77521 0.0
C898 C 0.22817 0.09665 0.79212 0.0
C899 C 0.21878 0.07652 0.79123 0.0
C900 C 0.22613 0.10658 0.77636 0.0
C901 C 0.21426 0.09495 0.75997 0.0
H902 H 0.19562 0.06686 0.74721 0.0
H903 H 0.22054 0.06961 0.80365 0.0
C904 C 0.14479 1.00178 0.82537 0.0
N905 N 0.14976 0.01785 0.81648 0.0
C906 C 0.13629 1.00312 0.84336 0.0
C907 C 0.13773 0.03751 0.8435 0.0
C908 C 0.14619 0.03554 0.82553 0.0
C909 C 0.13249 0.02124 0.8532 0.0
H910 H 0.14758 0.98767 0.81868 0.0
H911 H 0.15004 0.04852 0.81896 0.0
C912 C 0.19449 0.01213 0.72983 0.0
N913 N 0.19839 1.00506 0.6903 0.0
C914 C 0.18658 0.99347 0.71832 0.0
C915 C 0.20443 0.02718 0.72129 0.0
C916 C 0.18869 0.99019 0.69835 0.0
C917 C 0.20623 0.02332 0.70126 0.0
C918 C 0.14323 0.97779 0.75845 0.0
C919 C 0.14434 0.96066 0.74528 0.0
C920 C 0.12593 0.98158 0.76243 0.0
C921 C 0.12801 0.94754 0.73625 0.0
C922 C 0.10992 0.96809 0.75311 0.0
N923 N 0.11129 0.95149 0.74032 0.0
C924 C 0.20635 0.96483 0.78487 0.0
C925 C 0.20793 0.9615 0.75119 0.0
C926 C 0.2157 0.94889 0.78534 0.0
N927 N 0.20241 0.97122 0.76796 0.0
C928 C 0.21734 0.94548 0.75105 0.0
C929 C 0.22166 0.93848 0.7683 0.0
H930 H 0.2022 0.97207 0.79838 0.0
H931 H 0.20515 0.9661 0.73755 0.0
C932 C 0.15619 0.03116 0.71448 0.0
N933 N 0.14914 0.01532 0.72304 0.0
C934 C 0.14787 0.0341 0.69661 0.0
C935 C 0.12453 1.00466 0.69583 0.0
C936 C 0.13338 1.00218 0.71374 0.0
C937 C 0.1316 0.02084 0.68653 0.0
H938 H 0.16848 0.04187 0.72155 0.0
H939 H 0.12744 0.98954 0.72008 0.0
O940 O 0.19211 0.01849 0.79335 0.0
O941 O 0.16421 0.03639 0.7724 0.0
O942 O 0.19212 0.01571 0.74929 0.0
O943 O 0.15901 0.99097 0.76721 0.0
H944 H 0.18762 0.04438 0.82417 0.0
H945 H 0.22584 0.012 0.79709 0.0
H946 H 0.21158 0.05975 0.85195 0.0
H947 H 0.24917 0.02799 0.82532 0.0
H948 H 0.11176 0.05788 0.76098 0.0
H949 H 0.17509 0.07261 0.79391 0.0
H950 H 0.13013 0.03184 0.7564 0.0
H951 H 0.15596 0.09795 0.79783 0.0
H952 H 0.23667 0.10439 0.8054 0.0
H953 H 0.21205 0.10102 0.74709 0.0
H954 H 0.13307 0.98988 0.84961 0.0
H955 H 0.13523 0.05192 0.84958 0.0
H956 H 0.17874 0.98172 0.72473 0.0
H957 H 0.21073 0.04167 0.73002 0.0
H958 H 0.18259 0.97583 0.68925 0.0
H959 H 0.21387 0.03483 0.69443 0.0
H960 H 0.15766 0.95756 0.74207 0.0
H961 H 0.1249 0.99486 0.77255 0.0
H962 H 0.12862 0.93421 0.726 0.0
H963 H 0.09642 0.97083 0.75601 0.0
H964 H 0.21797 0.94473 0.79929 0.0
H965 H 0.22136 0.93884 0.73723 0.0
H966 H 0.1542 0.0471 0.691 0.0
H967 H 0.11227 0.99362 0.68923 0.0
Li968 Li 0.30102 0.9501 0.02163 0.0
Li969 Li 0.31571 0.92676 0.03676 0.0
Li970 Li 0.33445 0.95213 0.022 0.0
Li971 Li 0.31355 0.92422 1.00187 0.0
C972 C 0.33011 0.97251 0.05639 0.0
N973 N 0.35243 1.00641 0.07914 0.0
C974 C 0.34004 0.97128 0.07352 0.0
C975 C 0.3314 0.99096 0.05088 0.0
C976 C 0.35129 0.9886 0.08481 0.0
C977 C 0.34279 0.00793 0.06257 0.0
C978 C 0.27853 0.90635 0.02104 0.0
C979 C 0.2634 0.87168 0.01735 0.0
N980 N 0.24938 0.87699 0.02726 0.0
C981 C 0.26389 0.9115 0.03101 0.0
C982 C 0.27823 0.88631 0.01398 0.0
C983 C 0.24931 0.89641 0.03408 0.0
C984 C 0.27051 0.96512 0.00982 0.0
N985 N 0.2825 0.96449 0.02495 0.0
C986 C 0.26857 0.98568 0.04711 0.0
C987 C 0.28163 0.97423 0.04337 0.0
C988 C 0.25621 0.98698 0.03174 0.0
C989 C 0.25719 0.97644 0.01289 0.0
H990 H 0.27127 0.95679 0.99544 0.0
H991 H 0.29115 0.97316 0.05517 0.0
C992 C 0.33422 0.91235 0.06386 0.0
N993 N 0.3168 0.91263 0.05704 0.0
C994 C 0.33689 0.90043 0.07721 0.0
C995 C 0.30361 0.89025 0.07718 0.0
C996 C 0.30159 0.90235 0.06376 0.0
C997 C 0.32144 0.8889 0.0837 0.0
H998 H 0.34604 0.92101 0.05848 0.0
H999 H 0.28792 0.90314 0.05846 0.0
C1000 C 0.31962 0.95163 0.98049 0.0
N1001 N 0.3243 0.94713 0.94111 0.0
C1002 C 0.3362 0.94797 0.97374 0.0
C1003 C 0.30541 0.95298 0.96719 0.0
C1004 C 0.33831 0.94575 0.95379 0.0
C1005 C 0.30804 0.95067 0.94735 0.0
C1006 C 0.34367 0.90884 0.01671 0.0
C1007 C 0.36233 0.9121 0.01313 0.0
C1008 C 0.33393 0.88965 0.01751 0.0
C1009 C 0.37091 0.89602 0.0103 0.0
C1010 C 0.34302 0.87396 0.01463 0.0
N1011 N 0.36116 0.87744 0.0111 0.0
C1012 C 0.37014 0.96467 0.03858 0.0
C1013 C 0.36434 0.98019 0.01207 0.0
C1014 C 0.38902 0.97271 0.03945 0.0
N1015 N 0.35837 0.96813 0.02475 0.0
C1016 C 0.38324 0.98806 0.01199 0.0
C1017 C 0.39591 0.98378 0.02543 0.0
H1018 H 0.36492 0.95482 0.04832 0.0
H1019 H 0.35456 0.98272 1.00128 0.0
C1020 C 0.29324 0.89798 0.96853 0.0
N1021 N 0.31041 0.90564 0.97806 0.0
C1022 C 0.29097 0.88425 0.95097 0.0
C1023 C 0.32404 0.88655 0.95359 0.0
C1024 C 0.32568 0.90035 0.97086 0.0
C1025 C 0.30653 0.87834 0.94345 0.0
H1026 H 0.28137 0.90263 0.97453 0.0
H1027 H 0.33924 0.90718 0.97825 0.0
O1028 O 0.31926 0.9557 0.04497 0.0
O1029 O 0.2929 0.92093 0.01793 0.0
O1030 O 0.31722 0.95355 0.99996 0.0
O1031 O 0.33509 0.92447 0.01939 0.0
H1032 H 0.33916 0.95709 0.07797 0.0
H1033 H 0.3238 0.9921 0.03762 0.0
H1034 H 0.35914 0.98789 0.09806 0.0
H1035 H 0.344 0.02231 0.05845 0.0
H1036 H 0.26302 0.8561 0.01203 0.0
H1037 H 0.26388 0.92696 0.03647 0.0
H1038 H 0.28927 0.88208 0.00591 0.0
H1039 H 0.23794 0.90015 0.04189 0.0
H1040 H 0.26835 0.99368 0.06182 0.0
H1041 H 0.24766 0.97681 1.00073 0.0
H1042 H 0.35086 0.90004 0.08221 0.0
H1043 H 0.29135 0.88154 0.08186 0.0
H1044 H 0.34719 0.94639 0.98375 0.0
H1045 H 0.29248 0.95576 0.97211 0.0
H1046 H 0.35103 0.94279 0.94838 0.0
H1047 H 0.29715 0.95167 0.9369 0.0
H1048 H 0.37004 0.92687 0.01237 0.0
H1049 H 0.31956 0.88692 0.02045 0.0
H1050 H 0.38532 0.89831 0.00743 0.0
H1051 H 0.33565 0.85902 0.01523 0.0
H1052 H 0.39814 0.96956 0.05052 0.0
H1053 H 0.38785 0.99642 1.00084 0.0
H1054 H 0.27726 0.87828 0.9434 0.0
H1055 H 0.33641 0.88277 0.94792 0.0
Li1056 Li 0.29849 0.40726 0.0367 0.0
Li1057 Li 0.31115 0.38416 0.05319 0.0
Li1058 Li 0.3328 0.41128 0.03988 0.0
Li1059 Li 0.31176 0.38167 0.01657 0.0
C1060 C 0.31423 0.42803 0.07582 0.0
N1061 N 0.31031 0.45752 0.1062 0.0
C1062 C 0.30497 0.42299 0.09176 0.0
C1063 C 0.32173 0.44801 0.07545 0.0
C1064 C 0.30308 0.43814 0.10694 0.0
C1065 C 0.31953 0.46271 0.09092 0.0
C1066 C 0.27269 0.37087 0.03743 0.0
C1067 C 0.24325 0.34723 0.03178 0.0
N1068 N 0.23774 0.35709 0.04821 0.0
C1069 C 0.26675 0.38078 0.05424 0.0
C1070 C 0.26086 0.35399 0.02606 0.0
C1071 C 0.24903 0.37358 0.05944 0.0
C1072 C 0.26906 0.41927 0.01766 0.0
N1073 N 0.27829 0.42118 0.03552 0.0
C1074 C 0.25891 0.44212 0.05006 0.0
C1075 C 0.27324 0.43211 0.05165 0.0
C1076 C 0.24976 0.44109 0.03168 0.0
C1077 C 0.25495 0.4294 0.01535 0.0
H1078 H 0.27281 0.41004 0.0051 0.0
H1079 H 0.28022 0.43313 0.06581 0.0
C1080 C 0.32444 0.37725 0.08949 0.0
N1081 N 0.3097 0.37098 0.07571 0.0
C1082 C 0.32417 0.37012 0.10704 0.0
C1083 C 0.29355 0.35004 0.09604 0.0
C1084 C 0.29453 0.35732 0.07856 0.0
C1085 C 0.30844 0.35651 0.11079 0.0
H1086 H 0.33637 0.38809 0.08697 0.0
H1087 H 0.28298 0.35227 0.06746 0.0
C1088 C 0.31203 0.42371 0.00562 0.0
N1089 N 0.30238 0.45006 0.98399 0.0
C1090 C 0.30724 0.41768 0.98552 0.0
C1091 C 0.31194 0.44314 0.01473 0.0
C1092 C 0.30241 0.43123 0.97483 0.0
C1093 C 0.307 0.45624 1.00354 0.0
C1094 C 0.3361 0.36325 0.03451 0.0
C1095 C 0.35423 0.36082 0.03328 0.0
C1096 C 0.32156 0.34658 0.03328 0.0
C1097 C 0.35755 0.34166 0.03084 0.0
C1098 C 0.32546 0.32768 0.03087 0.0
N1099 N 0.34322 0.32563 0.02971 0.0
C1100 C 0.37148 0.42254 0.05148 0.0
C1101 C 0.36037 0.44574 0.0359 0.0
C1102 C 0.38973 0.43361 0.0525 0.0
N1103 N 0.35725 0.42861 0.04309 0.0
C1104 C 0.37838 0.45732 0.03669 0.0
C1105 C 0.39345 0.45119 0.04483 0.0
H1106 H 0.3687 0.40884 0.05705 0.0
H1107 H 0.34896 0.45024 0.02911 0.0
C1108 C 0.29399 0.36018 0.97938 0.0
N1109 N 0.31045 0.3656 0.99065 0.0
C1110 C 0.29307 0.35132 0.95962 0.0
C1111 C 0.32592 0.35308 0.96344 0.0
C1112 C 0.32624 0.36201 0.98313 0.0
C1113 C 0.30924 0.34799 0.95121 0.0
H1114 H 0.28167 0.36346 0.98555 0.0
H1115 H 0.33925 0.36681 0.99221 0.0
O1116 O 0.31615 0.41343 0.06079 0.0
O1117 O 0.28997 0.37763 0.03203 0.0
O1118 O 0.31654 0.41054 0.01634 0.0
O1119 O 0.3326 0.38187 0.03671 0.0
H1120 H 0.29921 0.40758 0.09234 0.0
H1121 H 0.32917 0.45212 0.06336 0.0
H1122 H 0.29584 0.43448 0.11931 0.0
H1123 H 0.32518 0.47826 0.0908 0.0
H1124 H 0.23396 0.33415 0.02316 0.0
H1125 H 0.27579 0.39379 0.06323 0.0
H1126 H 0.26529 0.34615 0.01302 0.0
H1127 H 0.24426 0.38108 0.07244 0.0
H1128 H 0.25533 0.45096 0.06304 0.0
H1129 H 0.24808 0.42799 1.00094 0.0
H1130 H 0.33626 0.37531 0.11751 0.0
H1131 H 0.28098 0.33981 0.09806 0.0
H1132 H 0.30727 0.4027 0.97824 0.0
H1133 H 0.31535 0.44795 0.03031 0.0
H1134 H 0.29867 0.42677 0.95926 0.0
H1135 H 0.30676 0.47128 0.01042 0.0
H1136 H 0.36561 0.37359 0.03412 0.0
H1137 H 0.30743 0.34819 0.03415 0.0
H1138 H 0.37152 0.33953 0.02984 0.0
H1139 H 0.31436 0.31463 0.02991 0.0
H1140 H 0.40081 0.42838 0.05914 0.0
H1141 H 0.38051 0.47057 0.03035 0.0
H1142 H 0.27984 0.3475 0.95091 0.0
H1143 H 0.3388 0.3511 0.95766 0.0
Li1144 Li 0.80511 0.16343 0.04501 0.0
Li1145 Li 0.8152 0.13713 0.02187 0.0
Li1146 Li 0.79908 0.16077 0.00944 0.0
Li1147 Li 0.78286 0.13465 0.02556 0.0
C1148 C 0.8333 0.18639 0.02737 0.0
N1149 N 0.8525 0.22555 0.03198 0.0
C1150 C 0.85265 0.19103 0.02876 0.0
C1151 C 0.82371 0.20165 0.02825 0.0
C1152 C 0.86211 0.21093 0.03111 0.0
C1153 C 0.83366 0.22135 0.03059 0.0
C1154 C 0.79434 0.12082 0.0561 0.0
C1155 C 0.77846 0.08712 0.05671 0.0
N1156 N 0.77643 0.09267 0.07598 0.0
C1157 C 0.7923 0.12614 0.07596 0.0
C1158 C 0.78756 0.10111 0.04643 0.0
C1159 C 0.78313 0.11171 0.08574 0.0
C1160 C 0.79294 0.17888 0.07897 0.0
N1161 N 0.80822 0.18127 0.06904 0.0
C1162 C 0.8229 0.21049 0.09222 0.0
C1163 C 0.82325 0.19642 0.07546 0.0
C1164 C 0.80706 0.20865 0.10256 0.0
C1165 C 0.79213 0.19229 0.09593 0.0
H1166 H 0.78118 0.16672 0.07339 0.0
H1167 H 0.83531 0.19793 0.06739 0.0
C1168 C 0.84431 0.12564 1.00238 0.0
N1169 N 0.83319 0.12235 0.01683 0.0
C1170 C 0.85682 0.11364 0.99752 0.0
C1171 C 0.84608 0.09524 0.02255 0.0
C1172 C 0.83399 0.10774 0.02708 0.0
C1173 C 0.85755 0.09806 0.00752 0.0
H1174 H 0.8432 0.13736 0.99445 0.0
H1175 H 0.82504 0.10559 0.03856 0.0
C1176 C 0.7684 0.17301 0.03096 0.0
N1177 N 0.7403 0.19352 0.03369 0.0
C1178 C 0.75057 0.1638 0.02214 0.0
C1179 C 0.77188 0.19268 0.04123 0.0
C1180 C 0.73658 0.17441 0.02365 0.0
C1181 C 0.75751 0.20278 0.04243 0.0
C1182 C 0.78901 0.11614 0.98594 0.0
C1183 C 0.77928 0.11858 0.96918 0.0
C1184 C 0.79258 0.09753 0.98708 0.0
C1185 C 0.77308 0.10225 0.95391 0.0
C1186 C 0.78616 0.08158 0.97149 0.0
N1187 N 0.77661 0.08424 0.95537 0.0
C1188 C 0.8108 0.18499 0.98189 0.0
C1189 C 0.77839 0.17521 0.98354 0.0
C1190 C 0.80809 0.19694 0.9685 0.0
N1191 N 0.79603 0.17492 0.98948 0.0
C1192 C 0.77503 0.187 0.97031 0.0
C1193 C 0.79001 0.19831 0.96294 0.0
H1194 H 0.82468 0.18411 0.98657 0.0
H1195 H 0.76693 0.16633 0.98914 0.0
C1196 C 0.75096 0.12281 0.0433 0.0
N1197 N 0.75894 0.11877 0.02642 0.0
C1198 C 0.73225 0.11477 0.04421 0.0
C1199 C 0.73038 0.09831 0.01045 0.0
C1200 C 0.7492 0.1064 0.01028 0.0
C1201 C 0.7217 0.10291 0.02743 0.0
H1202 H 0.7589 0.13319 0.05571 0.0
H1203 H 0.75563 0.10365 0.99694 0.0
O1204 O 0.82389 0.16697 0.02514 0.0
O1205 O 0.80308 0.13482 0.04624 0.0
O1206 O 0.78221 0.16268 0.03 0.0
O1207 O 0.79504 0.13196 1.00105 0.0
H1208 H 0.86026 0.17936 0.02807 0.0
H1209 H 0.80876 0.19829 0.02699 0.0
H1210 H 0.87709 0.21474 0.03225 0.0
H1211 H 0.82641 0.2333 0.03128 0.0
H1212 H 0.77297 0.07187 0.04935 0.0
H1213 H 0.7978 0.1412 0.08379 0.0
H1214 H 0.78904 0.09673 0.03109 0.0
H1215 H 0.78138 0.11565 0.10109 0.0
H1216 H 0.83471 0.22288 0.0967 0.0
H1217 H 0.77984 0.18986 0.10366 0.0
H1218 H 0.86548 0.11616 0.98581 0.0
H1219 H 0.84649 0.08353 0.03073 0.0
H1220 H 0.74758 0.14871 0.01392 0.0
H1221 H 0.78549 0.20009 0.04833 0.0
H1222 H 0.72276 0.16746 0.01681 0.0
H1223 H 0.76003 0.21798 0.05036 0.0
H1224 H 0.77644 0.13289 0.96804 0.0
H1225 H 0.8002 0.09539 0.99984 0.0
H1226 H 0.76545 0.10389 0.94089 0.0
H1227 H 0.78877 0.06708 0.9722 0.0
H1228 H 0.81998 0.20543 0.96301 0.0
H1229 H 0.76087 0.18729 0.96593 0.0
H1230 H 0.72585 0.11883 0.05745 0.0
H1231 H 0.72253 0.08923 0.99724 0.0
Li1232 Li 0.1999 0.55251 0.25418 0.0
Li1233 Li 0.17474 0.53563 0.27073 0.0
Li1234 Li 0.19633 0.5171 0.25327 0.0
Li1235 Li 0.17264 0.52742 0.23528 0.0
C1236 C 0.21677 0.54926 0.28899 0.0
N1237 N 0.24739 0.57038 0.31398 0.0
C1238 C 0.21451 0.55995 0.30724 0.0
C1239 C 0.2346 0.54896 0.28364 0.0
C1240 C 0.23016 0.57064 0.31961 0.0
C1241 C 0.2499 0.55982 0.29641 0.0
C1242 C 0.16077 0.5647 0.25742 0.0
C1243 C 0.12927 0.56682 0.26234 0.0
N1244 N 0.13504 0.58687 0.26846 0.0
C1245 C 0.16636 0.58535 0.26354 0.0
C1246 C 0.14205 0.55538 0.25662 0.0
C1247 C 0.15316 0.59629 0.26914 0.0
C1248 C 0.22619 0.58197 0.24084 0.0
N1249 N 0.21644 0.57733 0.25595 0.0
C1250 C 0.2292 0.60949 0.27533 0.0
C1251 C 0.2176 0.59066 0.27289 0.0
C1252 C 0.23936 0.61479 0.25999 0.0
C1253 C 0.23778 0.60084 0.24253 0.0
H1254 H 0.22469 0.57118 0.2274 0.0
H1255 H 0.20911 0.58683 0.28433 0.0
C1256 C 0.1519 0.52298 0.2992 0.0
N1257 N 0.1617 0.53905 0.29295 0.0
C1258 C 0.14217 0.52566 0.31566 0.0
C1259 C 0.15294 0.56132 0.3188 0.0
C1260 C 0.1627 0.55794 0.30258 0.0
C1261 C 0.14249 0.54506 0.32543 0.0
H1262 H 0.15166 0.50812 0.29143 0.0
H1263 H 0.17119 0.57038 0.29771 0.0
C1264 C 0.21148 0.52348 0.21951 0.0
N1265 N 0.23585 0.50757 0.19643 0.0
C1266 C 0.2048 0.50929 0.20253 0.0
C1267 C 0.23057 0.52987 0.22453 0.0
C1268 C 0.21733 0.50134 0.19111 0.0
C1269 C 0.24266 0.52157 0.21274 0.0
C1270 C 0.15473 0.4931 0.24605 0.0
C1271 C 0.15823 0.47551 0.2356 0.0
C1272 C 0.13647 0.49443 0.24872 0.0
C1273 C 0.14336 0.45974 0.22752 0.0
C1274 C 0.12197 0.47833 0.24043 0.0
N1275 N 0.12569 0.46148 0.23006 0.0
C1276 C 0.2162 0.49771 0.27414 0.0
C1277 C 0.21134 0.48269 0.24055 0.0
C1278 C 0.22604 0.48387 0.27813 0.0
N1279 N 0.20936 0.49712 0.25559 0.0
C1280 C 0.22094 0.46828 0.24393 0.0
C1281 C 0.22854 0.46899 0.26292 0.0
H1282 H 0.21379 0.50879 0.28596 0.0
H1283 H 0.20525 0.48212 0.22604 0.0
C1284 C 0.14863 0.5371 0.20863 0.0
N1285 N 0.15594 0.52182 0.21253 0.0
C1286 C 0.13626 0.5344 0.19222 0.0
C1287 C 0.13967 0.50042 0.18355 0.0
C1288 C 0.1518 0.50372 0.20035 0.0
C1289 C 0.13173 0.5159 0.17945 0.0
H1290 H 0.15267 0.55156 0.21804 0.0
H1291 H 0.15818 0.49196 0.20342 0.0
O1292 O 0.20158 0.53893 0.27655 0.0
O1293 O 0.17354 0.55371 0.25206 0.0
O1294 O 0.1994 0.53145 0.23084 0.0
O1295 O 0.16913 0.50871 0.25401 0.0
H1296 H 0.20083 0.56014 0.31175 0.0
H1297 H 0.2366 0.54035 0.26982 0.0
H1298 H 0.22861 0.57912 0.3337 0.0
H1299 H 0.26378 0.55981 0.29239 0.0
H1300 H 0.11475 0.55977 0.26187 0.0
H1301 H 0.18073 0.59287 0.26398 0.0
H1302 H 0.13746 0.5395 0.25156 0.0
H1303 H 0.15731 0.61227 0.27401 0.0
H1304 H 0.22969 0.62005 0.28881 0.0
H1305 H 0.24532 0.60455 0.23035 0.0
H1306 H 0.13428 0.51282 0.32053 0.0
H1307 H 0.15374 0.57646 0.32627 0.0
H1308 H 0.19011 0.50435 0.19827 0.0
H1309 H 0.23602 0.54124 0.23729 0.0
H1310 H 0.21234 0.49021 0.17803 0.0
H1311 H 0.25747 0.52633 0.21651 0.0
H1312 H 0.17225 0.47414 0.23351 0.0
H1313 H 0.1335 0.50767 0.25721 0.0
H1314 H 0.14587 0.44613 0.21922 0.0
H1315 H 0.10777 0.47921 0.24231 0.0
H1316 H 0.23131 0.48454 0.29305 0.0
H1317 H 0.22248 0.45682 0.23192 0.0
H1318 H 0.13079 0.54684 0.18919 0.0
H1319 H 0.13662 0.48603 0.17381 0.0
Li1320 Li 0.79621 0.90813 0.53768 0.0
Li1321 Li 0.80945 0.88502 0.5547 0.0
Li1322 Li 0.83097 0.91197 0.54061 0.0
Li1323 Li 0.81112 0.88199 0.51809 0.0
C1324 C 0.81094 0.92998 0.57516 0.0
N1325 N 0.8044 0.961 0.60224 0.0
C1326 C 0.80189 0.9261 0.59156 0.0
C1327 C 0.81685 0.94961 0.57263 0.0
C1328 C 0.79866 0.942 0.60506 0.0
C1329 C 0.81336 0.96509 0.58646 0.0
C1330 C 0.77396 0.86392 0.53531 0.0
C1331 C 0.75862 0.82924 0.53094 0.0
N1332 N 0.74403 0.83454 0.53978 0.0
C1333 C 0.75873 0.86904 0.54412 0.0
C1334 C 0.77385 0.84389 0.52846 0.0
C1335 C 0.74376 0.85396 0.54634 0.0
C1336 C 0.77045 0.92458 0.5181 0.0
N1337 N 0.77606 0.9218 0.53606 0.0
C1338 C 0.75355 0.93858 0.55041 0.0
C1339 C 0.76765 0.92824 0.55204 0.0
C1340 C 0.74804 0.94238 0.53215 0.0
C1341 C 0.7566 0.93503 0.51584 0.0
H1342 H 0.7769 0.91885 0.50548 0.0
H1343 H 0.77182 0.92538 0.56609 0.0
C1344 C 0.82343 0.87034 0.58699 0.0
N1345 N 0.8075 0.87223 0.57764 0.0
C1346 C 0.82314 0.863 0.60444 0.0
C1347 C 0.79004 0.85948 0.60248 0.0
C1348 C 0.79098 0.86698 0.58512 0.0
C1349 C 0.80629 0.85751 0.61258 0.0
H1350 H 0.83648 0.87487 0.58105 0.0
H1351 H 0.77852 0.86916 0.578 0.0
C1352 C 0.81811 0.92549 0.50679 0.0
N1353 N 0.82567 0.95507 0.48499 0.0
C1354 C 0.82577 0.9219 0.48904 0.0
C1355 C 0.81423 0.94411 0.51342 0.0
C1356 C 0.82951 0.93705 0.47824 0.0
C1357 C 0.81818 0.95887 0.50221 0.0
C1358 C 0.83737 0.86579 0.53475 0.0
C1359 C 0.85449 0.86595 0.52726 0.0
C1360 C 0.82648 0.84791 0.53781 0.0
C1361 C 0.86035 0.84812 0.5228 0.0
C1362 C 0.83284 0.8304 0.53321 0.0
N1363 N 0.8495 0.83086 0.52584 0.0
C1364 C 0.8699 0.92208 0.54981 0.0
C1365 C 0.85868 0.94785 0.53886 0.0
C1366 C 0.88822 0.93286 0.55061 0.0
N1367 N 0.85554 0.92948 0.54367 0.0
C1368 C 0.87679 0.95913 0.53939 0.0
C1369 C 0.89196 0.95156 0.54503 0.0
H1370 H 0.86714 0.90759 0.55384 0.0
H1371 H 0.84721 0.95372 0.53428 0.0
C1372 C 0.79487 0.85622 0.48115 0.0
N1373 N 0.81095 0.86602 0.49216 0.0
C1374 C 0.79506 0.8474 0.46147 0.0
C1375 C 0.82834 0.85841 0.46494 0.0
C1376 C 0.8275 0.86704 0.48444 0.0
C1377 C 0.81196 0.84875 0.45291 0.0
H1378 H 0.7818 0.85592 0.48739 0.0
H1379 H 0.84007 0.87538 0.49319 0.0
O1380 O 0.81419 0.91461 0.56179 0.0
O1381 O 0.78868 0.87848 0.53292 0.0
O1382 O 0.81385 0.91065 0.51727 0.0
O1383 O 0.8313 0.88306 0.53901 0.0
H1384 H 0.7973 0.91098 0.59376 0.0
H1385 H 0.82405 0.95284 0.56013 0.0
H1386 H 0.79157 0.93923 0.61776 0.0
H1387 H 0.8178 0.98036 0.58466 0.0
H1388 H 0.75837 0.81367 0.52578 0.0
H1389 H 0.75855 0.88449 0.54937 0.0
H1390 H 0.78536 0.8397 0.52122 0.0
H1391 H 0.73194 0.85769 0.55328 0.0
H1392 H 0.74734 0.94392 0.56338 0.0
H1393 H 0.75256 0.93726 0.50142 0.0
H1394 H 0.83605 0.86164 0.61148 0.0
H1395 H 0.77675 0.85585 0.60824 0.0
H1396 H 0.82874 0.90756 0.4836 0.0
H1397 H 0.80831 0.94717 0.52713 0.0
H1398 H 0.83542 0.93446 0.46445 0.0
H1399 H 0.81528 0.97335 0.5072 0.0
H1400 H 0.86306 0.87966 0.52473 0.0
H1401 H 0.81327 0.84756 0.54372 0.0
H1402 H 0.87352 0.848 0.51689 0.0
H1403 H 0.82454 0.81644 0.53549 0.0
H1404 H 0.89934 0.92651 0.55548 0.0
H1405 H 0.87885 0.97337 0.53482 0.0
H1406 H 0.78202 0.8404 0.45285 0.0
H1407 H 0.84174 0.85971 0.45926 0.0
Li1408 Li 0.94908 0.07266 0.29583 0.0
Li1409 Li 0.92025 0.04958 0.27273 0.0
Li1410 Li 0.94696 0.07092 0.25533 0.0
Li1411 Li 0.92361 0.08964 0.27549 0.0
C1412 C 0.95992 0.03811 0.27188 0.0
N1413 N 0.98523 0.01425 0.271 0.0
C1414 C 0.95379 0.01748 0.26964 0.0
C1415 C 0.97889 0.04664 0.27374 0.0
C1416 C 0.96681 1.00566 0.26923 0.0
C1417 C 0.99148 0.03431 0.27321 0.0
C1418 C 0.90724 0.06656 0.30809 0.0
C1419 C 0.8753 0.06309 0.31481 0.0
N1420 N 0.87905 0.05578 0.331 0.0
C1421 C 0.91083 0.05916 0.32486 0.0
C1422 C 0.88938 0.06867 0.30305 0.0
C1423 C 0.89637 0.05373 0.33622 0.0
C1424 C 0.96394 0.08451 0.34024 0.0
N1425 N 0.96393 0.07124 0.32322 0.0
C1426 C 0.9813 0.05356 0.34237 0.0
C1427 C 0.97247 0.05583 0.32446 0.0
C1428 C 0.98149 0.06691 0.36022 0.0
C1429 C 0.97244 0.08262 0.35853 0.0
H1430 H 0.95706 0.09663 0.33989 0.0
H1431 H 0.97223 0.04469 0.31159 0.0
C1432 C 0.89552 0.00909 0.25456 0.0
N1433 N 0.90418 0.02107 0.2716 0.0
C1434 C 0.88602 0.98904 0.25392 0.0
C1435 C 0.89413 0.99351 0.2883 0.0
C1436 C 0.90355 0.01336 0.28827 0.0
C1437 C 0.88516 0.98058 0.27094 0.0
H1438 H 0.89625 0.01489 0.24119 0.0
H1439 H 0.91075 0.02248 0.30172 0.0
C1440 C 0.96721 0.10802 0.27317 0.0
N1441 N 0.99665 0.13271 0.26089 0.0
C1442 C 0.96407 0.11927 0.25921 0.0
C1443 C 0.98528 0.10925 0.28087 0.0
C1444 C 0.97915 0.13168 0.25319 0.0
C1445 C 0.99999 0.12185 0.27448 0.0
C1446 C 0.90216 0.06696 0.24182 0.0
C1447 C 0.90206 0.07739 0.22654 0.0
C1448 C 0.88539 0.05732 0.24751 0.0
C1449 C 0.88514 0.07801 0.21717 0.0
C1450 C 0.86876 0.05826 0.23776 0.0
N1451 N 0.86898 0.06851 0.22292 0.0
C1452 C 0.97495 0.05924 0.2255 0.0
C1453 C 0.9562 0.0786 0.21402 0.0
C1454 C 0.98365 0.05765 0.20766 0.0
N1455 N 0.96128 0.06963 0.22878 0.0
C1456 C 0.96431 0.07705 0.19583 0.0
C1457 C 0.97844 0.06641 0.19202 0.0
H1458 H 0.9792 0.05178 0.23659 0.0
H1459 H 0.94563 0.08707 0.21615 0.0
C1460 C 0.90005 0.12111 0.2916 0.0
N1461 N 0.90919 0.11436 0.27607 0.0
C1462 C 0.89066 0.13715 0.29175 0.0
C1463 C 0.89971 0.13984 0.26002 0.0
C1464 C 0.90893 0.1238 0.26044 0.0
C1465 C 0.89015 0.14728 0.27581 0.0
H1466 H 0.89996 0.11413 0.30423 0.0
H1467 H 0.91592 0.11895 0.24791 0.0
O1468 O 0.94744 0.04998 0.27262 0.0
O1469 O 0.92116 0.07182 0.2967 0.0
O1470 O 0.95269 0.09544 0.27888 0.0
O1471 O 0.91855 0.06636 0.25137 0.0
H1472 H 0.93914 0.01066 0.26826 0.0
H1473 H 0.98382 0.06261 0.27559 0.0
H1474 H 0.96229 0.98966 0.26753 0.0
H1475 H 0.00621 0.04069 0.2746 0.0
H1476 H 0.86139 0.06459 0.31107 0.0
H1477 H 0.9246 0.05747 0.32895 0.0
H1478 H 0.88644 0.07458 0.29023 0.0
H1479 H 0.89891 0.04787 0.34918 0.0
H1480 H 0.98752 0.04088 0.34216 0.0
H1481 H 0.97192 0.09367 0.37131 0.0
H1482 H 0.87983 0.98016 0.23993 0.0
H1483 H 0.89396 0.98847 0.30206 0.0
H1484 H 0.95016 0.11829 0.253 0.0
H1485 H 0.9879 0.10053 0.29163 0.0
H1486 H 0.97695 0.14046 0.24236 0.0
H1487 H 0.01406 0.12297 0.2803 0.0
H1488 H 0.91488 0.0851 0.22209 0.0
H1489 H 0.88522 0.04922 0.25934 0.0
H1490 H 0.88486 0.0861 0.20536 0.0
H1491 H 0.85568 0.05087 0.24201 0.0
H1492 H 0.9942 0.04906 0.20604 0.0
H1493 H 0.95959 0.08448 0.18485 0.0
H1494 H 0.884 0.14165 0.30464 0.0
H1495 H 0.90003 0.14614 0.24697 0.0
Li1496 Li 0.29993 0.66831 0.53526 0.0
Li1497 Li 0.31238 0.64335 0.51423 0.0
Li1498 Li 0.29917 0.66817 0.50145 0.0
Li1499 Li 0.27884 0.64076 0.5131 0.0
C1500 C 0.33387 0.68546 0.51168 0.0
N1501 N 0.35781 0.71074 0.49336 0.0
C1502 C 0.34772 0.67867 0.5015 0.0
C1503 C 0.33229 0.70516 0.51267 0.0
C1504 C 0.35967 0.69167 0.49231 0.0
C1505 C 0.34449 0.71769 0.50327 0.0
C1506 C 0.29671 0.62257 0.54205 0.0
C1507 C 0.29156 0.58681 0.53714 0.0
N1508 N 0.2995 0.58844 0.55553 0.0
C1509 C 0.30472 0.62392 0.56093 0.0
C1510 C 0.29 0.6039 0.53008 0.0
C1511 C 0.30604 0.60648 0.56746 0.0
C1512 C 0.29119 0.67614 0.5735 0.0
N1513 N 0.30192 0.684 0.56043 0.0
C1514 C 0.31168 0.7151 0.5826 0.0
C1515 C 0.31236 0.70292 0.56469 0.0
C1516 C 0.30028 0.70759 0.59624 0.0
C1517 C 0.29021 0.6877 0.59162 0.0
H1518 H 0.28299 0.66104 0.56958 0.0
H1519 H 0.32069 0.70877 0.55393 0.0
C1520 C 0.33353 0.62012 0.49322 0.0
N1521 N 0.33051 0.62819 0.51157 0.0
C1522 C 0.34625 0.60808 0.49039 0.0
C1523 C 0.35304 0.61354 0.52543 0.0
C1524 C 0.34013 0.62546 0.52757 0.0
C1525 C 0.35611 0.60455 0.50663 0.0
H1526 H 0.32602 0.623 0.48077 0.0
H1527 H 0.33777 0.63253 0.54197 0.0
C1528 C 0.26993 0.68116 0.53005 0.0
N1529 N 0.25375 0.70484 0.55667 0.0
C1530 C 0.25487 0.67258 0.53925 0.0
C1531 C 0.27667 0.70182 0.53428 0.0
C1532 C 0.2469 0.6848 0.55269 0.0
C1533 C 0.26833 0.71353 0.54781 0.0
C1534 C 0.28706 0.62598 0.47465 0.0
C1535 C 0.27908 0.63247 0.45911 0.0
C1536 C 0.28718 0.6058 0.47299 0.0
C1537 C 0.27111 0.61861 0.4423 0.0
C1538 C 0.2791 0.59242 0.45593 0.0
N1539 N 0.27128 0.59904 0.44107 0.0
C1540 C 0.31089 0.68062 0.46684 0.0
C1541 C 0.28787 0.69537 0.48179 0.0
C1542 C 0.30987 0.6905 0.45127 0.0
N1543 N 0.2999 0.68321 0.4816 0.0
C1544 C 0.28646 0.70558 0.46664 0.0
C1545 C 0.2974 0.70304 0.45103 0.0
H1546 H 0.32002 0.67046 0.46691 0.0
H1547 H 0.27887 0.69661 0.49334 0.0
C1548 C 0.24757 0.61587 0.52447 0.0
N1549 N 0.25488 0.62381 0.50943 0.0
C1550 C 0.22894 0.60598 0.52272 0.0
C1551 C 0.22607 0.61178 0.48973 0.0
C1552 C 0.24456 0.62193 0.49229 0.0
C1553 C 0.21782 0.60419 0.50527 0.0
H1554 H 0.25591 0.61817 0.53819 0.0
H1555 H 0.25041 0.62906 0.48088 0.0
O1556 O 0.3219 0.67288 0.52056 0.0
O1557 O 0.29545 0.63951 0.53539 0.0
O1558 O 0.27827 0.66937 0.51728 0.0
O1559 O 0.2951 0.63938 0.49117 0.0
H1560 H 0.3492 0.66351 0.50063 0.0
H1561 H 0.32154 0.71062 0.5203 0.0
H1562 H 0.37041 0.68659 0.48432 0.0
H1563 H 0.34331 0.73291 0.50377 0.0
H1564 H 0.28643 0.57225 0.52802 0.0
H1565 H 0.30996 0.6383 0.57037 0.0
H1566 H 0.28352 0.60262 0.51556 0.0
H1567 H 0.31226 0.60728 0.58202 0.0
H1568 H 0.31954 0.73039 0.58547 0.0
H1569 H 0.28155 0.68115 0.60184 0.0
H1570 H 0.34812 0.60138 0.47565 0.0
H1571 H 0.36065 0.61156 0.53833 0.0
H1572 H 0.24947 0.65666 0.53622 0.0
H1573 H 0.28846 0.70873 0.5275 0.0
H1574 H 0.2353 0.67833 0.55999 0.0
H1575 H 0.27352 0.72951 0.55135 0.0
H1576 H 0.27875 0.64797 0.46011 0.0
H1577 H 0.29361 0.60052 0.48465 0.0
H1578 H 0.26476 0.62342 0.43023 0.0
H1579 H 0.2791 0.57677 0.45447 0.0
H1580 H 0.31849 0.68814 0.43943 0.0
H1581 H 0.27633 0.71469 0.46675 0.0
H1582 H 0.22316 0.60074 0.53524 0.0
H1583 H 0.2182 0.61053 0.47589 0.0
Li1584 Li 0.42145 0.54895 0.77231 0.0
Li1585 Li 0.4488 0.57249 0.79548 0.0
Li1586 Li 0.42353 0.58993 0.77496 0.0
Li1587 Li 0.44739 0.57053 0.75599 0.0
C1588 C 0.40763 0.5629 0.80686 0.0
N1589 N 0.38088 0.54564 0.82846 0.0
C1590 C 0.4109 0.54827 0.817 0.0
C1591 C 0.39069 0.5686 0.80751 0.0
C1592 C 0.39722 0.53976 0.82789 0.0
C1593 C 0.37736 0.55974 0.81858 0.0
C1594 C 0.46074 0.53943 0.77904 0.0
C1595 C 0.4914 0.53308 0.78144 0.0
N1596 N 0.48547 0.51925 0.79252 0.0
C1597 C 0.45499 0.52531 0.79061 0.0
C1598 C 0.47914 0.54354 0.7746 0.0
C1599 C 0.46769 0.51522 0.79723 0.0
C1600 C 0.41284 0.50468 0.76234 0.0
N1601 N 0.40523 0.5202 0.76999 0.0
C1602 C 0.37843 0.49599 0.77618 0.0
C1603 C 0.38806 0.51595 0.77658 0.0
C1604 C 0.38618 0.47964 0.76882 0.0
C1605 C 0.4037 0.48458 0.76164 0.0
H1606 H 0.42631 0.50782 0.75689 0.0
H1607 H 0.38177 0.52802 0.78252 0.0
C1608 C 0.45497 0.57326 0.84003 0.0
N1609 N 0.46376 0.57202 0.82321 0.0
C1610 C 0.46334 0.57095 0.85817 0.0
C1611 C 0.49035 0.56665 0.84255 0.0
C1612 C 0.48145 0.56899 0.82464 0.0
C1613 C 0.48148 0.5674 0.86013 0.0
H1614 H 0.4411 0.57581 0.83955 0.0
H1615 H 0.48892 0.56818 0.81178 0.0
C1616 C 0.41513 0.55987 0.73187 0.0
N1617 N 0.40882 0.54727 0.69187 0.0
C1618 C 0.41012 0.57248 0.72015 0.0
C1619 C 0.4169 0.54083 0.72328 0.0
C1620 C 0.40701 0.56584 0.69994 0.0
C1621 C 0.41365 0.53473 0.70303 0.0
C1622 C 0.4675 0.60706 0.77269 0.0
C1623 C 0.4649 0.62068 0.76099 0.0
C1624 C 0.48535 0.60474 0.77742 0.0
C1625 C 0.48031 0.63187 0.75423 0.0
C1626 C 0.50039 0.61621 0.77038 0.0
N1627 N 0.49758 0.62942 0.75903 0.0
C1628 C 0.4002 0.6218 0.79099 0.0
C1629 C 0.40856 0.62384 0.75954 0.0
C1630 C 0.39068 0.63772 0.79095 0.0
N1631 N 0.40903 0.61468 0.77535 0.0
C1632 C 0.39917 0.63972 0.75891 0.0
C1633 C 0.3897 0.64731 0.7747 0.0
H1634 H 0.40043 0.61522 0.80386 0.0
H1635 H 0.41565 0.61902 0.74709 0.0
C1636 C 0.47161 0.55521 0.72403 0.0
N1637 N 0.46142 0.56922 0.72933 0.0
C1638 C 0.48028 0.55355 0.70618 0.0
C1639 C 0.46752 0.58001 0.69821 0.0
C1640 C 0.45943 0.58151 0.71643 0.0
C1641 C 0.4784 0.56591 0.69251 0.0
H1642 H 0.4729 0.5448 0.73344 0.0
H1643 H 0.45126 0.59253 0.72003 0.0
O1644 O 0.4208 0.57128 0.796 0.0
O1645 O 0.44858 0.54967 0.77265 0.0
O1646 O 0.41886 0.56626 0.7516 0.0
O1647 O 0.45259 0.59553 0.77892 0.0
H1648 H 0.42381 0.54345 0.81636 0.0
H1649 H 0.38781 0.57962 0.79944 0.0
H1650 H 0.39957 0.52843 0.83582 0.0
H1651 H 0.36419 0.56402 0.81924 0.0
H1652 H 0.50568 0.53609 0.77811 0.0
H1653 H 0.4409 0.52226 0.79453 0.0
H1654 H 0.484 0.55496 0.7663 0.0
H1655 H 0.46342 0.50423 0.80616 0.0
H1656 H 0.36513 0.49355 0.78208 0.0
H1657 H 0.41044 0.473 0.75533 0.0
H1658 H 0.45518 0.57162 0.87052 0.0
H1659 H 0.50431 0.56436 0.84242 0.0
H1660 H 0.40875 0.58727 0.72656 0.0
H1661 H 0.42095 0.53097 0.73216 0.0
H1662 H 0.40319 0.57548 0.69067 0.0
H1663 H 0.41503 0.52006 0.69617 0.0
H1664 H 0.45113 0.62248 0.75707 0.0
H1665 H 0.48752 0.5941 0.78633 0.0
H1666 H 0.47852 0.64245 0.74513 0.0
H1667 H 0.5143 0.61457 0.77389 0.0
H1668 H 0.38389 0.64223 0.80375 0.0
H1669 H 0.3997 0.64617 0.74593 0.0
H1670 H 0.48806 0.5421 0.70293 0.0
H1671 H 0.46537 0.59013 0.68871 0.0
Li1672 Li 0.68505 0.0301 0.75909 0.0
Li1673 Li 0.712 0.04823 0.74501 0.0
Li1674 Li 0.68588 0.02583 0.72496 0.0
Li1675 Li 0.70707 0.01222 0.74356 0.0
C1676 C 0.67555 0.06012 0.73316 0.0
N1677 N 0.65438 0.07811 0.71134 0.0
C1678 C 0.68405 0.07589 0.7246 0.0
C1679 C 0.65626 0.05369 0.73083 0.0
C1680 C 0.67312 0.08476 0.71358 0.0
C1681 C 0.64581 0.0629 0.71967 0.0
C1682 C 0.72295 0.04031 0.78364 0.0
C1683 C 0.75217 0.0439 0.80238 0.0
N1684 N 0.74586 0.05414 0.81803 0.0
C1685 C 0.71672 0.05073 0.79999 0.0
C1686 C 0.7408 0.03675 0.78489 0.0
C1687 C 0.72853 0.05767 0.8172 0.0
C1688 C 0.66964 0.01978 0.79297 0.0
N1689 N 0.67056 0.03247 0.78024 0.0
C1690 C 0.6507 0.0502 0.79795 0.0
C1691 C 0.66158 0.04762 0.78254 0.0
C1692 C 0.64912 0.03708 0.8111 0.0
C1693 C 0.65875 0.0217 0.80854 0.0
H1694 H 0.67736 0.0082 0.79101 0.0
H1695 H 0.66294 0.05776 0.77245 0.0
C1696 C 0.7363 0.08022 0.73298 0.0
N1697 N 0.72899 0.07303 0.7484 0.0
C1698 C 0.7458 0.10012 0.73543 0.0
C1699 C 0.74115 0.10414 0.76977 0.0
C1700 C 0.73144 0.08444 0.76656 0.0
C1701 C 0.74773 0.11248 0.75394 0.0
H1702 H 0.73372 0.0709 0.71857 0.0
H1703 H 0.72493 0.07867 0.77838 0.0
C1704 C 0.66608 0.99275 0.748 0.0
N1705 N 0.63889 0.96982 0.76512 0.0
C1706 C 0.66981 0.97684 0.75592 0.0
C1707 C 0.64842 0.99677 0.74851 0.0
C1708 C 0.6559 0.96548 0.76457 0.0
C1709 C 0.63489 0.98508 0.75731 0.0
C1710 C 0.72981 0.02659 0.71604 0.0
C1711 C 0.73164 0.01825 0.69675 0.0
C1712 C 0.74556 0.03393 0.7293 0.0
C1713 C 0.74926 0.0173 0.69108 0.0
C1714 C 0.76293 0.03273 0.72308 0.0
N1715 N 0.76441 0.0245 0.70425 0.0
C1716 C 0.67649 0.03447 0.6889 0.0
C1717 C 0.655 0.00805 0.69793 0.0
C1718 C 0.66477 0.03388 0.67248 0.0
N1719 N 0.67118 0.022 0.7014 0.0
C1720 C 0.64295 1.00677 0.68155 0.0
C1721 C 0.64764 0.02005 0.66878 0.0
H1722 H 0.68951 0.04536 0.69213 0.0
H1723 H 0.6513 0.99819 0.70804 0.0
C1724 C 0.72129 0.98888 0.76452 0.0
N1725 N 0.71905 0.99177 0.74593 0.0
C1726 C 0.73086 0.97491 0.76872 0.0
C1727 C 0.73477 0.9662 0.73432 0.0
C1728 C 0.72529 0.98068 0.73079 0.0
C1729 C 0.73781 0.96358 0.75354 0.0
H1730 H 0.71566 0.99754 0.77611 0.0
H1731 H 0.72302 0.98316 0.71611 0.0
O1732 O 0.68607 0.05102 0.74374 0.0
O1733 O 0.71145 0.0332 0.76671 0.0
O1734 O 0.67958 1.00417 0.73962 0.0
O1735 O 0.71262 0.02744 0.72179 0.0
H1736 H 0.69893 0.08116 0.72632 0.0
H1737 H 0.64943 0.0416 0.73743 0.0
H1738 H 0.67953 0.0969 0.70678 0.0
H1739 H 0.63088 0.05795 0.71762 0.0
H1740 H 0.766 0.04124 0.80352 0.0
H1741 H 0.70302 0.05374 0.79934 0.0
H1742 H 0.7458 0.02836 0.7726 0.0
H1743 H 0.72392 0.06588 0.8299 0.0
H1744 H 0.64339 0.06217 0.79941 0.0
H1745 H 0.65803 0.01147 0.81858 0.0
H1746 H 0.75049 0.10602 0.7228 0.0
H1747 H 0.74258 0.11305 0.78434 0.0
H1748 H 0.68326 0.97327 0.75538 0.0
H1749 H 0.64523 0.00893 0.74239 0.0
H1750 H 0.65864 0.95319 0.77085 0.0
H1751 H 0.62123 0.98817 0.75797 0.0
H1752 H 0.71956 0.01251 0.68631 0.0
H1753 H 0.74439 0.04064 0.74418 0.0
H1754 H 0.75088 0.01083 0.6762 0.0
H1755 H 0.77524 0.03839 0.7332 0.0
H1756 H 0.66886 0.04458 0.66318 0.0
H1757 H 0.63006 0.9956 0.67902 0.0
H1758 H 0.73281 0.97294 0.78367 0.0
H1759 H 0.73995 0.95749 0.72235 0.0
Li1760 Li 0.80196 0.70719 0.03257 0.0
Li1761 Li 0.81598 0.68027 0.01266 0.0
Li1762 Li 0.80252 0.70462 0.99614 0.0
Li1763 Li 0.78235 0.67896 0.00914 0.0
C1764 C 0.83434 0.72957 0.02072 0.0
N1765 N 0.85465 0.76844 0.02941 0.0
C1766 C 0.8536 0.73355 0.02438 0.0
C1767 C 0.82538 0.74532 0.02156 0.0
C1768 C 0.86363 0.75332 0.02874 0.0
C1769 C 0.8359 0.76488 0.02593 0.0
C1770 C 0.78716 0.6635 0.03991 0.0
C1771 C 0.77413 0.62863 0.03857 0.0
N1772 N 0.76304 0.63358 0.05264 0.0
C1773 C 0.77572 0.66826 0.05442 0.0
C1774 C 0.78644 0.64355 0.03195 0.0
C1775 C 0.76359 0.65291 0.06064 0.0
C1776 C 0.78776 0.72804 0.06546 0.0
N1777 N 0.80335 0.72321 0.05851 0.0
C1778 C 0.82003 0.73597 0.09012 0.0
C1779 C 0.81939 0.72727 0.07035 0.0
C1780 C 0.80398 0.74047 0.09798 0.0
C1781 C 0.78779 0.73678 0.08516 0.0
H1782 H 0.77506 0.72431 0.05589 0.0
H1783 H 0.83155 0.72308 0.0646 0.0
C1784 C 0.84671 0.66423 0.99913 0.0
N1785 N 0.83535 0.66586 0.01371 0.0
C1786 C 0.86069 0.65362 1.00012 0.0
C1787 C 0.85112 0.6467 0.03114 0.0
C1788 C 0.83742 0.65748 0.02959 0.0
C1789 C 0.86298 0.64453 0.01624 0.0
H1790 H 0.84482 0.67106 0.98666 0.0
H1791 H 0.82839 0.65918 0.04112 0.0
C1792 C 0.76937 0.71567 1.00419 0.0
N1793 N 0.74429 0.73236 0.98608 0.0
C1794 C 0.75851 0.70494 0.98719 0.0
C1795 C 0.76741 0.73481 0.01208 0.0
C1796 C 0.74592 0.71365 0.97823 0.0
C1797 C 0.75467 0.74302 1.00268 0.0
C1798 C 0.79232 0.65897 0.97414 0.0
C1799 C 0.78031 0.66027 0.95856 0.0
C1800 C 0.79737 0.64096 0.97488 0.0
C1801 C 0.77325 0.64337 0.94413 0.0
C1802 C 0.79004 0.6244 0.96014 0.0
N1803 N 0.77821 0.62593 0.94522 0.0
C1804 C 0.81025 0.70751 0.95735 0.0
C1805 C 0.80015 0.73558 0.97319 0.0
C1806 C 0.81064 0.71459 0.9398 0.0
N1807 N 0.80481 0.71782 0.97358 0.0
C1808 C 0.80045 0.74329 0.95592 0.0
C1809 C 0.8055 0.73264 0.93876 0.0
H1810 H 0.81403 0.69351 0.95792 0.0
H1811 H 0.79585 0.74365 0.98614 0.0
C1812 C 0.74525 0.66971 0.01738 0.0
N1813 N 0.75756 0.6618 0.00657 0.0
C1814 C 0.72725 0.65865 0.01774 0.0
C1815 C 0.73455 0.63146 0.99547 0.0
C1816 C 0.75254 0.64296 0.99577 0.0
C1817 C 0.72167 0.63922 0.0067 0.0
H1818 H 0.74954 0.6846 0.02606 0.0
H1819 H 0.76249 0.63657 0.9877 0.0
O1820 O 0.8243 0.71034 0.01683 0.0
O1821 O 0.79858 0.6783 0.03308 0.0
O1822 O 0.78193 0.70754 0.01309 0.0
O1823 O 0.7995 0.67537 0.98834 0.0
H1824 H 0.8607 0.72148 0.02392 0.0
H1825 H 0.81047 0.74246 0.01902 0.0
H1826 H 0.87855 0.75664 0.03163 0.0
H1827 H 0.82916 0.77722 0.02663 0.0
H1828 H 0.77332 0.61313 0.03245 0.0
H1829 H 0.77605 0.68364 0.06062 0.0
H1830 H 0.79512 0.63965 0.0206 0.0
H1831 H 0.75456 0.65636 0.07176 0.0
H1832 H 0.83292 0.73876 0.09926 0.0
H1833 H 0.775 0.7397 0.09047 0.0
H1834 H 0.86937 0.65223 0.98821 0.0
H1835 H 0.8525 0.64027 0.04399 0.0
H1836 H 0.75976 0.69004 0.98104 0.0
H1837 H 0.77573 0.74328 0.02525 0.0
H1838 H 0.73744 0.70554 0.96504 0.0
H1839 H 0.75305 0.75786 0.00856 0.0
H1840 H 0.77653 0.67419 0.95757 0.0
H1841 H 0.80677 0.63974 0.98675 0.0
H1842 H 0.76388 0.64413 0.93203 0.0
H1843 H 0.79373 0.61032 0.96057 0.0
H1844 H 0.81497 0.70597 0.92716 0.0
H1845 H 0.79625 0.75719 0.9559 0.0
H1846 H 0.71776 0.66528 0.02654 0.0
H1847 H 0.73092 0.61644 0.98696 0.0
Li1848 Li 0.91145 0.52495 0.7925 0.0
Li1849 Li 0.93415 0.5504 0.81462 0.0
Li1850 Li 0.91093 0.55992 0.79425 0.0
Li1851 Li 0.93686 0.54727 0.78088 0.0
C1852 C 0.89009 0.54247 0.82244 0.0
N1853 N 0.85599 0.53981 0.8371 0.0
C1854 C 0.88902 0.54768 0.84252 0.0
C1855 C 0.87384 0.53592 0.80982 0.0
C1856 C 0.87164 0.54622 0.84966 0.0
C1857 C 0.85673 0.53468 0.81751 0.0
C1858 C 0.94885 0.51905 0.80817 0.0
C1859 C 0.9781 0.52005 0.82558 0.0
N1860 N 0.96995 0.50404 0.83307 0.0
C1861 C 0.94079 0.50253 0.81594 0.0
C1862 C 0.96769 0.52781 0.81291 0.0
C1863 C 0.95168 0.49518 0.82853 0.0
C1864 C 0.89971 0.48687 0.77086 0.0
N1865 N 0.89722 0.49866 0.78767 0.0
C1866 C 0.87622 0.47159 0.79666 0.0
C1867 C 0.88595 0.49143 0.80067 0.0
C1868 C 0.87824 0.45916 0.77916 0.0
C1869 C 0.89008 0.4671 0.76611 0.0
H1870 H 0.90948 0.49273 0.76131 0.0
H1871 H 0.88487 0.50085 0.81437 0.0
C1872 C 0.96223 0.57175 0.8437 0.0
N1873 N 0.94737 0.55611 0.83924 0.0
C1874 C 0.97348 0.5746 0.86101 0.0
C1875 C 0.95344 0.54557 0.86901 0.0
C1876 C 0.94251 0.5434 0.85163 0.0
C1877 C 0.96931 0.56117 0.87374 0.0
H1878 H 0.96557 0.58175 0.83364 0.0
H1879 H 0.93054 0.53114 0.84759 0.0
C1880 C 0.90033 0.52956 0.75407 0.0
N1881 N 0.87966 0.50875 0.71979 0.0
C1882 C 0.90885 0.52003 0.73899 0.0
C1883 C 0.88135 0.52879 0.75154 0.0
C1884 C 0.89814 0.50949 0.72183 0.0
C1885 C 0.87113 0.51813 0.73415 0.0
C1886 C 0.95032 0.58568 0.79257 0.0
C1887 C 0.9445 0.59995 0.78359 0.0
C1888 C 0.96902 0.58488 0.79356 0.0
C1889 C 0.95747 0.61303 0.7755 0.0
C1890 C 0.98155 0.5982 0.78527 0.0
N1891 N 0.97556 0.61188 0.77647 0.0
C1892 C 0.88684 0.58542 0.80625 0.0
C1893 C 0.89218 0.57962 0.77275 0.0
C1894 C 0.87424 0.59687 0.80263 0.0
N1895 N 0.89523 0.57689 0.79128 0.0
C1896 C 0.87975 0.59089 0.76847 0.0
C1897 C 0.87045 0.59947 0.78347 0.0
H1898 H 0.88973 0.5831 0.82089 0.0
H1899 H 0.89937 0.57288 0.76126 0.0
C1900 C 0.96547 0.53645 0.76064 0.0
N1901 N 0.95304 0.54818 0.76118 0.0
C1902 C 0.97775 0.53639 0.7463 0.0
C1903 C 0.96399 0.56035 0.7332 0.0
C1904 C 0.95186 0.55982 0.74774 0.0
C1905 C 0.97719 0.54855 0.73241 0.0
H1906 H 0.96573 0.52697 0.77122 0.0
H1907 H 0.94154 0.5687 0.74839 0.0
O1908 O 0.90701 0.54383 0.8153 0.0
O1909 O 0.93833 0.52668 0.79611 0.0
O1910 O 0.91065 0.5401 0.77093 0.0
O1911 O 0.93779 0.5726 0.80039 0.0
H1912 H 0.9015 0.55279 0.85248 0.0
H1913 H 0.87447 0.53164 0.79431 0.0
H1914 H 0.8706 0.55017 0.86517 0.0
H1915 H 0.84404 0.52959 0.8079 0.0
H1916 H 0.99265 0.5268 0.82951 0.0
H1917 H 0.92624 0.49556 0.81246 0.0
H1918 H 0.97414 0.54064 0.80708 0.0
H1919 H 0.9456 0.48248 0.83473 0.0
H1920 H 0.86764 0.46595 0.80739 0.0
H1921 H 0.89203 0.45813 0.75242 0.0
H1922 H 0.98537 0.58704 0.86431 0.0
H1923 H 0.94984 0.53473 0.87828 0.0
H1924 H 0.92352 0.5205 0.74061 0.0
H1925 H 0.87457 0.5365 0.76276 0.0
H1926 H 0.90453 0.50189 0.71014 0.0
H1927 H 0.85642 0.51737 0.73204 0.0
H1928 H 0.93013 0.6009 0.78284 0.0
H1929 H 0.97376 0.57387 0.80036 0.0
H1930 H 0.95314 0.62409 0.76843 0.0
H1931 H 0.99602 0.59762 0.78577 0.0
H1932 H 0.86729 0.60329 0.81455 0.0
H1933 H 0.87751 0.59296 0.7536 0.0
H1934 H 0.98738 0.52669 0.74593 0.0
H1935 H 0.96316 0.57001 0.72283 0.0
Li1936 Li 0.81262 0.42211 0.53972 0.0
Li1937 Li 0.80016 0.44702 0.52514 0.0
Li1938 Li 0.81245 0.42084 0.5061 0.0
Li1939 Li 0.83371 0.44705 0.52615 0.0
C1940 C 0.77721 0.40581 0.5289 0.0
N1941 N 0.75117 0.38203 0.54651 0.0
C1942 C 0.76316 0.41349 0.53784 0.0
C1943 C 0.77789 0.38597 0.52873 0.0
C1944 C 0.75015 0.40124 0.5467 0.0
C1945 C 0.76464 0.37421 0.53778 0.0
C1946 C 0.82985 0.46558 0.56153 0.0
C1947 C 0.84526 0.50002 0.57281 0.0
N1948 N 0.85484 0.49477 0.58743 0.0
C1949 C 0.83977 0.46049 0.57669 0.0
C1950 C 0.83253 0.48548 0.55957 0.0
C1951 C 0.85237 0.47548 0.58963 0.0
C1952 C 0.82333 0.39676 0.56204 0.0
N1953 N 0.8109 0.40822 0.56046 0.0
C1954 C 0.79774 0.4001 0.58921 0.0
C1955 C 0.79838 0.41032 0.57374 0.0
C1956 C 0.81032 0.38794 0.59106 0.0
C1957 C 0.82329 0.38643 0.57727 0.0
H1958 H 0.83356 0.39596 0.55169 0.0
H1959 H 0.78899 0.41999 0.57236 0.0
C1960 C 0.77292 0.46678 0.51308 0.0
N1961 N 0.78301 0.46344 0.52845 0.0
C1962 C 0.76038 0.47902 0.51623 0.0
C1963 C 0.76897 0.48429 0.55094 0.0
C1964 C 0.78125 0.47184 0.54712 0.0
C1965 C 0.75831 0.48799 0.53537 0.0
H1966 H 0.7745 0.45995 0.49839 0.0
H1967 H 0.78941 0.46885 0.55907 0.0
C1968 C 0.84115 0.40542 0.51315 0.0
N1969 N 0.85702 0.37826 0.49022 0.0
C1970 C 0.85719 0.41199 0.50432 0.0
C1971 C 0.8333 0.38502 0.51048 0.0
C1972 C 0.86498 0.39803 0.49276 0.0
C1973 C 0.84149 0.37154 0.49877 0.0
C1974 C 0.81255 0.44869 0.48488 0.0
C1975 C 0.82541 0.45725 0.47317 0.0
C1976 C 0.79489 0.43826 0.47648 0.0
C1977 C 0.82039 0.4552 0.45323 0.0
C1978 C 0.79041 0.43653 0.45649 0.0
N1979 N 0.80314 0.44497 0.44538 0.0
C1980 C 0.79687 0.38586 0.47752 0.0
C1981 C 0.82388 0.40688 0.4698 0.0
C1982 C 0.79685 0.37186 0.46058 0.0
N1983 N 0.81041 0.40282 0.48185 0.0
C1984 C 0.82426 0.39351 0.45269 0.0
C1985 C 0.81083 0.37554 0.44803 0.0
H1986 H 0.78637 0.38298 0.48741 0.0
H1987 H 0.83462 0.42035 0.47373 0.0
C1988 C 0.8703 0.45677 0.54144 0.0
N1989 N 0.85812 0.46253 0.52972 0.0
C1990 C 0.88918 0.46507 0.54238 0.0
C1991 C 0.88254 0.48561 0.51967 0.0
C1992 C 0.86371 0.47706 0.51937 0.0
C1993 C 0.89559 0.4792 0.53087 0.0
H1994 H 0.86538 0.44507 0.54941 0.0
H1995 H 0.85363 0.4814 0.51031 0.0
O1996 O 0.79015 0.41761 0.52026 0.0
O1997 O 0.81777 0.4511 0.54847 0.0
O1998 O 0.83313 0.41889 0.52427 0.0
O1999 O 0.81731 0.45025 0.50439 0.0
H2000 H 0.76234 0.42876 0.538 0.0
H2001 H 0.78868 0.37979 0.52192 0.0
H2002 H 0.73925 0.40702 0.55376 0.0
H2003 H 0.76509 0.35889 0.53789 0.0
H2004 H 0.84755 0.51549 0.57143 0.0
H2005 H 0.83788 0.44512 0.57834 0.0
H2006 H 0.82498 0.48959 0.54783 0.0
H2007 H 0.86022 0.47178 0.60139 0.0
H2008 H 0.78756 0.40169 0.59956 0.0
H2009 H 0.83364 0.37776 0.57849 0.0
H2010 H 0.75222 0.48122 0.50381 0.0
H2011 H 0.76798 0.49107 0.56591 0.0
H2012 H 0.86338 0.4277 0.50605 0.0
H2013 H 0.82088 0.37966 0.51716 0.0
H2014 H 0.8773 0.40291 0.48571 0.0
H2015 H 0.83546 0.35573 0.49644 0.0
H2016 H 0.8392 0.46519 0.47931 0.0
H2017 H 0.78489 0.43117 0.48523 0.0
H2018 H 0.83023 0.46168 0.44399 0.0
H2019 H 0.77684 0.42838 0.4498 0.0
H2020 H 0.78628 0.35815 0.45761 0.0
H2021 H 0.83505 0.39724 0.44325 0.0
H2022 H 0.89869 0.46003 0.55158 0.0
H2023 H 0.88683 0.49641 0.51051 0.0
Li2024 Li 0.66381 0.51561 0.29043 0.0
Li2025 Li 0.69052 0.53725 0.27386 0.0
Li2026 Li 0.66336 0.51335 0.25091 0.0
Li2027 Li 0.688 0.49575 0.26895 0.0
C2028 C 0.6523 0.54873 0.27947 0.0
N2029 N 0.62965 0.57373 0.29308 0.0
C2030 C 0.65976 0.56668 0.29239 0.0
C2031 C 0.63334 0.54343 0.27351 0.0
C2032 C 0.64807 0.57914 0.29909 0.0
C2033 C 0.62211 0.55629 0.28055 0.0
C2034 C 0.70361 0.52756 0.31022 0.0
C2035 C 0.73077 0.52976 0.33173 0.0
N2036 N 0.72691 0.54577 0.34352 0.0
C2037 C 0.6999 0.54403 0.32251 0.0
C2038 C 0.71915 0.52034 0.31481 0.0
C2039 C 0.71185 0.55303 0.3393 0.0
C2040 C 0.65897 0.51584 0.33424 0.0
N2041 N 0.64978 0.51697 0.31704 0.0
C2042 C 0.62316 0.52111 0.33561 0.0
C2043 C 0.63195 0.51952 0.31779 0.0
C2044 C 0.63243 0.52032 0.35369 0.0
C2045 C 0.65077 0.51758 0.35236 0.0
H2046 H 0.67294 0.51358 0.33415 0.0
H2047 H 0.6243 0.52045 0.30451 0.0
C2048 C 0.7014 0.57635 0.26246 0.0
N2049 N 0.70635 0.56597 0.27593 0.0
C2050 C 0.71056 0.59634 0.26267 0.0
C2051 C 0.72975 0.59557 0.29104 0.0
C2052 C 0.72044 0.57539 0.29006 0.0
C2053 C 0.72505 0.60679 0.27721 0.0
H2054 H 0.69008 0.56915 0.25141 0.0
H2055 H 0.72446 0.56743 0.30089 0.0
C2056 C 0.64393 0.47707 0.25781 0.0
N2057 N 0.61338 0.45037 0.23714 0.0
C2058 C 0.64625 0.46102 0.24388 0.0
C2059 C 0.62612 0.4796 0.26122 0.0
C2060 C 0.63061 0.44767 0.23358 0.0
C2061 C 0.61083 0.46591 0.25062 0.0
C2062 C 0.69316 0.51246 0.23016 0.0
C2063 C 0.69019 0.49299 0.21957 0.0
C2064 C 0.69706 0.52848 0.22047 0.0
C2065 C 0.69128 0.48987 0.19941 0.0
C2066 C 0.69796 0.52474 0.20028 0.0
N2067 N 0.69508 0.50567 0.19025 0.0
C2068 C 0.64248 0.53175 0.22196 0.0
C2069 C 0.64547 0.5 0.20715 0.0
C2070 C 0.6337 0.5344 0.20416 0.0
N2071 N 0.64832 0.51469 0.22359 0.0
C2072 C 0.63702 0.50222 0.18895 0.0
C2073 C 0.63079 0.51968 0.18683 0.0
H2074 H 0.6449 0.54381 0.23448 0.0
H2075 H 0.64998 0.4864 0.20785 0.0
C2076 C 0.7022 0.46138 0.28423 0.0
N2077 N 0.70286 0.47136 0.26893 0.0
C2078 C 0.71161 0.44552 0.28502 0.0
C2079 C 0.7227 0.4495 0.25434 0.0
C2080 C 0.71317 0.46539 0.25414 0.0
C2081 C 0.72233 0.43889 0.26996 0.0
H2082 H 0.69426 0.46563 0.29618 0.0
H2083 H 0.71427 0.47297 0.24192 0.0
O2084 O 0.66344 0.53619 0.273 0.0
O2085 O 0.69208 0.51858 0.29374 0.0
O2086 O 0.65904 0.49051 0.26774 0.0
O2087 O 0.69172 0.51573 0.24982 0.0
H2088 H 0.67441 0.57092 0.29721 0.0
H2089 H 0.62736 0.52948 0.26364 0.0
H2090 H 0.65364 0.59309 0.30908 0.0
H2091 H 0.6074 0.5524 0.27608 0.0
H2092 H 0.74285 0.52435 0.3355 0.0
H2093 H 0.68792 0.54978 0.3191 0.0
H2094 H 0.72218 0.5076 0.30539 0.0
H2095 H 0.70916 0.56579 0.34896 0.0
H2096 H 0.60917 0.52333 0.33512 0.0
H2097 H 0.65888 0.51645 0.36527 0.0
H2098 H 0.70609 0.60329 0.25122 0.0
H2099 H 0.74041 0.60222 0.30289 0.0
H2100 H 0.65998 0.45895 0.24105 0.0
H2101 H 0.62415 0.49204 0.2719 0.0
H2102 H 0.63217 0.43517 0.22274 0.0
H2103 H 0.59695 0.46766 0.25309 0.0
H2104 H 0.68682 0.48043 0.22682 0.0
H2105 H 0.69933 0.54362 0.22843 0.0
H2106 H 0.68896 0.47487 0.19102 0.0
H2107 H 0.70093 0.53699 0.19257 0.0
H2108 H 0.62967 0.54835 0.20396 0.0
H2109 H 0.63529 0.49005 0.17659 0.0
H2110 H 0.71015 0.43836 0.29753 0.0
H2111 H 0.73063 0.44588 0.24221 0.0
Tb2112 Tb 0.03465 0.0279 0.01119 0.0
C2113 C 0.08486 0.10089 0.06326 0.0
C2114 C 0.08714 0.12637 0.04376 0.0
C2115 C 0.09053 0.13572 0.07913 0.0
C2116 C 0.08387 0.10611 0.04528 0.0
C2117 C 0.08892 0.11564 0.08043 0.0
C2118 C 0.08965 0.14109 0.06078 0.0
C2119 C 0.09266 0.09005 0.09835 0.0
N2120 N 0.08388 0.08145 0.06373 0.0
C2121 C 0.08866 0.07602 0.08088 0.0
C2122 C 0.09236 0.10989 0.0982 0.0
Tb2123 Tb 0.07667 0.05918 0.03451 0.0
N2124 N 0.082 0.09145 0.02933 0.0
C2125 C 0.08557 0.09638 0.01156 0.0
C2126 C 0.08901 0.13128 0.02532 0.0
C2127 C 0.08872 0.11623 0.00923 0.0
H2128 H 0.08898 0.06078 0.08133 0.0
H2129 H 0.09082 0.11988 0.99497 0.0
H2130 H 0.09186 0.15671 0.05991 0.0
H2131 H 0.09594 0.08554 0.11191 0.0
H2132 H 0.08536 0.08508 0.99886 0.0
H2133 H 0.0186 0.96978 0.05361 0.0
H2134 H 0.09155 0.14664 0.0235 0.0
H2135 H 0.02605 0.02441 0.96335 0.0
H2136 H 0.02455 1.00404 0.04809 0.0
H2137 H 0.02061 0.99841 0.93361 0.0
H2138 H 0.09339 0.14726 0.09216 0.0
H2139 H 0.01857 0.9419 0.02639 0.0
H2140 H 0.01959 0.93019 0.9904 0.0
H2141 H 0.0956 0.12076 0.11172 0.0
H2142 H 0.01997 0.93802 0.95742 0.0
N2143 N 0.02876 0.99625 0.01795 0.0
C2144 C 0.02462 0.99224 0.03591 0.0
C2145 C 0.02128 0.95702 0.02383 0.0
C2146 C 0.02389 0.96099 0.00514 0.0
C2147 C 0.0212 0.9727 0.03919 0.0
C2148 C 0.02741 0.98097 1.00265 0.0
H2149 H 0.01978 0.9634 0.93605 0.0
N2150 N 0.02893 1.00455 0.98265 0.0
C2151 C 0.02264 0.99451 0.94776 0.0
C2152 C 0.02747 0.9853 0.98424 0.0
C2153 C 0.02568 0.00922 0.96471 0.0
C2154 C 0.02228 0.9748 0.94918 0.0
C2155 C 0.02426 0.96989 0.96762 0.0
O2156 O 0.0116 0.03458 0.9971 0.0
O2157 O 0.04989 0.05887 0.02033 0.0
O2158 O 0.05643 0.06382 0.05665 0.0
O2159 O 0.03163 0.03739 0.04338 0.0
O2160 O 0.03598 0.05043 0.99306 0.0
O2161 O 0.00937 0.0231 0.02368 0.0
O2162 O 0.0995 0.04944 0.04533 0.0
O2163 O 0.06124 0.02827 0.02543 0.0
O2164 O 0.05583 0.02276 0.99021 0.0
O2165 O 0.07894 0.05108 1.00207 0.0
O2166 O 0.07505 0.03657 0.05266 0.0
O2167 O 0.10194 0.06608 0.02224 0.0
C2168 C 0.04585 0.06543 0.00505 0.0
C2169 C 0.98264 0.01541 1.00152 0.0
C2170 C 0.95014 0.01279 0.99188 0.0
C2171 C 0.96789 0.0244 0.99863 0.0
C2172 C 0.94727 0.99194 0.98785 0.0
C2173 C 0.97978 0.99458 0.99724 0.0
C2174 C 0.96212 0.98291 0.99036 0.0
C2175 C 0.04006 0.052 0.05823 0.0
C2176 C 1.00059 0.02833 0.0096 0.0
C2177 C 0.02221 0.95006 0.96999 0.0
C2178 C 0.02202 0.94561 0.98877 0.0
C2179 C 0.06497 0.02165 0.04074 0.0
C2180 C 0.1287 0.06935 0.04335 0.0
C2181 C 0.14315 0.05945 0.04347 0.0
C2182 C 0.16089 0.06951 0.05211 0.0
C2183 C 0.16404 0.08982 0.06064 0.0
C2184 C 0.13188 0.08959 0.05197 0.0
C2185 C 0.14954 0.09976 0.0606 0.0
C2186 C 0.07135 0.03551 0.98785 0.0
C2187 C 0.11057 0.05795 0.03407 0.0
H2188 H 0.97012 0.04051 1.00222 0.0
H2189 H 0.93361 0.98272 0.98275 0.0
H2190 H 0.99104 0.98736 0.99943 0.0
H2191 H 0.95989 0.96683 0.98718 0.0
H2192 H 0.14061 0.04387 0.03648 0.0
H2193 H 0.17761 0.09791 0.06744 0.0
H2194 H 0.12085 0.0975 0.05194 0.0
H2195 H 0.152 0.11538 0.06724 0.0
Tb2196 Tb 0.31031 0.77888 0.2525 0.0
C2197 C 0.30929 0.84212 0.32089 0.0
C2198 C 0.32589 0.83802 0.35017 0.0
C2199 C 0.32618 0.87125 0.34437 0.0
C2200 C 0.31497 0.82981 0.33225 0.0
C2201 C 0.31418 0.86301 0.32734 0.0
C2202 C 0.33206 0.85877 0.35576 0.0
C2203 C 0.29301 0.86602 0.30128 0.0
N2204 N 0.29767 0.83365 0.30448 0.0
C2205 C 0.28865 0.84529 0.29539 0.0
C2206 C 0.30619 0.87496 0.31701 0.0
Tb2207 Tb 0.29215 0.79945 0.29611 0.0
N2208 N 0.30849 0.80982 0.32656 0.0
C2209 C 0.3108 0.79745 0.33932 0.0
C2210 C 0.32955 0.82523 0.3624 0.0
C2211 C 0.32163 0.80491 0.35713 0.0
H2212 H 0.27792 0.83904 0.28366 0.0
H2213 H 0.32391 0.79493 0.36675 0.0
H2214 H 0.3407 0.86532 0.3693 0.0
H2215 H 0.28614 0.87508 0.29368 0.0
H2216 H 0.30517 0.78164 0.33553 0.0
H2217 H 0.26128 0.70943 0.22371 0.0
H2218 H 0.33787 0.83097 0.37626 0.0
H2219 H 0.35666 0.79001 0.25348 0.0
H2220 H 0.27109 0.74546 0.23601 0.0
H2221 H 0.38168 0.77205 0.25045 0.0
H2222 H 0.33038 0.88725 0.34928 0.0
H2223 H 0.28421 0.68835 0.22259 0.0
H2224 H 0.31741 0.68605 0.22762 0.0
H2225 H 0.30952 0.89102 0.32154 0.0
H2226 H 0.35027 0.70313 0.23528 0.0
N2227 N 0.29954 0.74521 0.24207 0.0
C2228 C 0.28139 0.73664 0.2356 0.0
C2229 C 0.28867 0.70426 0.22796 0.0
C2230 C 0.30731 0.71317 0.23385 0.0
C2231 C 0.27571 0.71611 0.22852 0.0
C2232 C 0.31238 0.73396 0.24063 0.0
H2233 H 0.37439 0.73523 0.24357 0.0
N2234 N 0.33498 0.7637 0.24972 0.0
C2235 C 0.36742 0.76383 0.24901 0.0
C2236 C 0.33077 0.74353 0.24477 0.0
C2237 C 0.35307 0.77397 0.25081 0.0
C2238 C 0.36325 0.74305 0.24515 0.0
C2239 C 0.34473 0.73263 0.24251 0.0
O2240 O 0.32026 0.79811 0.23345 0.0
O2241 O 0.30683 0.8055 0.27179 0.0
O2242 O 0.27978 0.80765 0.27007 0.0
O2243 O 0.28107 0.78051 0.24671 0.0
O2244 O 0.33226 0.80591 0.26127 0.0
O2245 O 0.30156 0.77005 0.22252 0.0
O2246 O 0.26398 0.78468 0.29082 0.0
O2247 O 0.29172 0.77334 0.27443 0.0
O2248 O 0.32775 0.77393 0.27698 0.0
O2249 O 0.32094 0.79596 0.30369 0.0
O2250 O 0.2913 0.77021 0.30323 0.0
O2251 O 0.27349 0.80705 0.31631 0.0
C2252 C 0.32301 0.81585 0.27256 0.0
C2253 C 0.32278 0.78259 0.20154 0.0
C2254 C 0.33252 0.7922 0.17134 0.0
C2255 C 0.32218 0.79431 0.18746 0.0
C2256 C 0.34387 0.77839 0.16962 0.0
C2257 C 0.33387 0.76854 0.1996 0.0
C2258 C 0.34446 0.76655 0.18371 0.0
C2259 C 0.27329 0.79549 0.2532 0.0
C2260 C 0.31179 0.78574 0.21806 0.0
C2261 C 0.33976 0.71179 0.23691 0.0
C2262 C 0.32105 0.70207 0.23254 0.0
C2263 C 0.29171 0.76108 0.28571 0.0
C2264 C 0.24895 0.78023 0.31863 0.0
C2265 C 0.25806 0.77225 0.33228 0.0
C2266 C 0.24802 0.75874 0.34259 0.0
C2267 C 0.2286 0.75325 0.339 0.0
C2268 C 0.22961 0.77462 0.31516 0.0
C2269 C 0.21949 0.76119 0.32535 0.0
C2270 C 0.3314 0.78402 0.2953 0.0
C2271 C 0.25954 0.79349 0.30713 0.0
H2272 H 0.31372 0.8053 0.18918 0.0
H2273 H 0.35201 0.77655 0.15729 0.0
H2274 H 0.33433 0.75915 0.21024 0.0
H2275 H 0.35306 0.75577 0.18227 0.0
H2276 H 0.27298 0.77632 0.33466 0.0
H2277 H 0.22044 0.74306 0.3469 0.0
H2278 H 0.22239 0.7805 0.30447 0.0
H2279 H 0.20454 0.7569 0.32266 0.0
Tb2280 Tb 0.57789 0.04815 0.51512 0.0
C2281 C 0.51289 1.00578 0.55393 0.0
C2282 C 0.49877 0.97632 0.52995 0.0
C2283 C 0.49697 0.97592 0.56451 0.0
C2284 C 0.5091 0.99617 0.53476 0.0
C2285 C 0.50649 0.996 0.56906 0.0
C2286 C 0.49315 0.96607 0.54495 0.0
C2287 C 0.51781 0.02715 0.59173 0.0
N2288 N 0.52188 0.02521 0.55761 0.0
C2289 C 0.52378 0.03619 0.57616 0.0
C2290 C 0.50933 1.00689 0.58821 0.0
Tb2291 Tb 0.53192 0.03864 0.53134 0.0
N2292 N 0.51449 1.00678 0.52079 0.0
C2293 C 0.50857 0.99878 0.50159 0.0
C2294 C 0.49382 0.96765 0.51026 0.0
C2295 C 0.49845 0.97907 0.49604 0.0
H2296 H 0.53032 0.05184 0.57914 0.0
H2297 H 0.49428 0.9727 0.48077 0.0
H2298 H 0.48535 0.95075 0.54158 0.0
H2299 H 0.51973 0.03582 0.60642 0.0
H2300 H 0.51202 0.00723 0.49031 0.0
H2301 H 0.61543 0.11367 0.56616 0.0
H2302 H 0.48595 0.95241 0.50593 0.0
H2303 H 0.57802 0.03563 0.46703 0.0
H2304 H 0.5974 0.07922 0.55637 0.0
H2305 H 0.58851 0.05199 0.43989 0.0
H2306 H 0.49207 0.96806 0.57593 0.0
H2307 H 0.62429 0.13401 0.54116 0.0
H2308 H 0.62494 0.13597 0.50558 0.0
H2309 H 0.50461 0.99995 0.60027 0.0
H2310 H 0.61773 0.11911 0.47112 0.0
N2311 N 0.59532 0.07989 0.52593 0.0
C2312 C 0.60109 0.08775 0.54518 0.0
C2313 C 0.61629 0.11883 0.53672 0.0
C2314 C 0.61134 0.11032 0.51699 0.0
C2315 C 0.61137 0.10738 0.55086 0.0
C2316 C 0.60083 0.09055 0.51204 0.0
H2317 H 0.60439 0.08766 0.44647 0.0
N2318 N 0.58743 0.06186 0.48889 0.0
C2319 C 0.59085 0.06041 0.45471 0.0
C2320 C 0.59677 0.08119 0.49278 0.0
C2321 C 0.58495 0.05117 0.47017 0.0
C2322 C 0.59976 0.08056 0.45847 0.0
C2323 C 0.60307 0.09114 0.47774 0.0
O2324 O 0.59352 0.02802 0.50281 0.0
O2325 O 0.55377 0.02577 0.51875 0.0
O2326 O 0.54932 0.02757 0.55088 0.0
O2327 O 0.57824 0.0463 0.54616 0.0
O2328 O 0.56663 0.0203 0.49409 0.0
O2329 O 0.60225 0.04647 0.53113 0.0
O2330 O 0.51628 0.05904 0.54311 0.0
O2331 O 0.55616 0.06098 0.52791 0.0
O2332 O 0.56022 0.05977 0.49626 0.0
O2333 O 0.53208 0.0394 0.50011 0.0
O2334 O 0.54329 0.06636 0.55248 0.0
O2335 O 0.50803 0.0406 0.51478 0.0
C2336 C 0.5534 0.01277 0.5035 0.0
C2337 C 0.62561 0.03652 0.51259 0.0
C2338 C 0.65568 0.02711 0.51285 0.0
C2339 C 0.6372 0.02431 0.51785 0.0
C2340 C 0.66212 0.04222 0.50231 0.0
C2341 C 0.63255 0.05156 0.50236 0.0
C2342 C 0.65067 0.05434 0.49723 0.0
C2343 C 0.56721 0.03482 0.55588 0.0
C2344 C 0.60624 0.03319 0.51748 0.0
C2345 C 0.61289 0.11111 0.48247 0.0
C2346 C 0.61699 0.12071 0.50208 0.0
C2347 C 0.55664 0.07391 0.54324 0.0
C2348 C 0.48434 0.05047 0.53266 0.0
C2349 C 0.47313 0.06331 0.52807 0.0
C2350 C 0.45439 0.06006 0.53217 0.0
C2351 C 0.44727 0.04392 0.54116 0.0
C2352 C 0.47679 0.03444 0.54143 0.0
C2353 C 0.45838 0.03125 0.54569 0.0
C2354 C 0.54252 0.0517 0.49067 0.0
C2355 C 0.50383 0.0539 0.52822 0.0
H2356 H 0.63187 0.01282 0.52595 0.0
H2357 H 0.67599 0.04455 0.4977 0.0
H2358 H 0.62394 0.06107 0.4982 0.0
H2359 H 0.65585 0.06588 0.48916 0.0
H2360 H 0.47892 0.07558 0.52108 0.0
H2361 H 0.4331 0.04117 0.54491 0.0
H2362 H 0.48511 0.02442 0.545 0.0
H2363 H 0.4527 0.0189 0.55258 0.0
Tb2364 Tb 0.28372 0.29848 0.76976 0.0
C2365 C 0.34368 0.26751 0.81006 0.0
C2366 C 0.35363 0.29214 0.83962 0.0
C2367 C 0.35542 0.2578 0.83914 0.0
C2368 C 0.34594 0.28673 0.82001 0.0
C2369 C 0.34901 0.25292 0.81923 0.0
C2370 C 0.35771 0.27742 0.84935 0.0
C2371 C 0.34377 0.2308 0.78779 0.0
N2372 N 0.3379 0.26365 0.7908 0.0
C2373 C 0.33868 0.24583 0.77939 0.0
C2374 C 0.3486 0.23422 0.80788 0.0
Tb2375 Tb 0.32909 0.2888 0.77821 0.0
N2376 N 0.34228 0.30048 0.80985 0.0
C2377 C 0.34788 0.32031 0.81801 0.0
C2378 C 0.35787 0.31228 0.8485 0.0
C2379 C 0.35536 0.32646 0.83749 0.0
H2380 H 0.3348 0.24293 0.76386 0.0
H2381 H 0.35911 0.34215 0.84401 0.0
H2382 H 0.36338 0.28122 0.8645 0.0
H2383 H 0.34388 0.21657 0.77877 0.0
H2384 H 0.346 0.33161 0.80995 0.0
H2385 H 0.25348 0.24463 0.70435 0.0
H2386 H 0.36374 0.31707 0.86356 0.0
H2387 H 0.27877 0.34475 0.78356 0.0
H2388 H 0.26662 0.25542 0.7384 0.0
H2389 H 0.27019 0.37109 0.76822 0.0
H2390 H 0.35936 0.24674 0.84656 0.0
H2391 H 0.24897 0.26951 0.68453 0.0
H2392 H 0.24959 0.30534 0.68319 0.0
H2393 H 0.35262 0.22259 0.81435 0.0
H2394 H 0.25403 0.34002 0.70073 0.0
N2395 N 0.27043 0.28652 0.73821 0.0
C2396 C 0.2648 0.26665 0.73021 0.0
C2397 C 0.25484 0.27443 0.69958 0.0
C2398 C 0.25918 0.29462 0.70827 0.0
C2399 C 0.25729 0.26035 0.71074 0.0
C2400 C 0.26688 0.30019 0.72788 0.0
H2401 H 0.26123 0.36461 0.73265 0.0
N2402 N 0.27524 0.32361 0.75686 0.0
C2403 C 0.27001 0.35668 0.75939 0.0
C2404 C 0.26937 0.31953 0.73761 0.0
C2405 C 0.27481 0.34166 0.76804 0.0
C2406 C 0.26504 0.353 0.73931 0.0
C2407 C 0.26428 0.33408 0.72821 0.0
O2408 O 0.26549 0.30764 0.78994 0.0
O2409 O 0.30507 0.29627 0.79131 0.0
O2410 O 0.30927 0.26261 0.78505 0.0
O2411 O 0.28148 0.26618 0.77027 0.0
O2412 O 0.29231 0.31968 0.79706 0.0
O2413 O 0.25835 0.2788 0.77164 0.0
O2414 O 0.34736 0.28001 0.75788 0.0
O2415 O 0.3077 0.29096 0.75676 0.0
O2416 O 0.30365 0.32429 0.76244 0.0
O2417 O 0.3312 0.32116 0.77802 0.0
O2418 O 0.3205 0.26767 0.75082 0.0
O2419 O 0.35431 0.30874 0.77638 0.0
C2420 C 0.30433 0.31137 0.80404 0.0
C2421 C 0.23351 0.2936 0.78124 0.0
C2422 C 0.20185 0.29131 0.79106 0.0
C2423 C 0.22041 0.28981 0.79492 0.0
C2424 C 0.1969 0.29711 0.77358 0.0
C2425 C 0.22799 0.29919 0.76395 0.0
C2426 C 0.20986 0.30103 0.76022 0.0
C2427 C 0.29148 0.25535 0.7783 0.0
C2428 C 0.25277 0.29134 0.78474 0.0
C2429 C 0.25779 0.329 0.70831 0.0
C2430 C 0.25526 0.30927 0.69833 0.0
C2431 C 0.3084 0.27593 0.74395 0.0
C2432 C 0.37929 0.29424 0.76668 0.0
C2433 C 0.39227 0.29771 0.75279 0.0
C2434 C 0.4109 0.29654 0.75673 0.0
C2435 C 0.41608 0.2914 0.77447 0.0
C2436 C 0.38502 0.28922 0.7842 0.0
C2437 C 0.40325 0.28771 0.788 0.0
C2438 C 0.32129 0.33178 0.76956 0.0
C2439 C 0.35999 0.29636 0.76318 0.0
H2440 H 0.22452 0.28531 0.80825 0.0
H2441 H 0.18294 0.29875 0.77026 0.0
H2442 H 0.23766 0.30203 0.75323 0.0
H2443 H 0.20579 0.30543 0.74684 0.0
H2444 H 0.388 0.30175 0.73926 0.0
H2445 H 0.43015 0.29012 0.77787 0.0
H2446 H 0.37545 0.28662 0.79505 0.0
H2447 H 0.40749 0.28379 0.80158 0.0
Tb2448 Tb 0.05206 0.06652 0.5359 0.0
C2449 C 0.07878 0.01189 0.47185 0.0
C2450 C 0.05461 1.00414 0.44525 0.0
C2451 C 0.0863 1.00373 0.43838 0.0
C2452 C 0.06051 0.00985 0.46537 0.0
C2453 C 0.09187 0.00848 0.45849 0.0
C2454 C 0.06767 1.00155 0.43176 0.0
C2455 C 0.11456 0.013 0.48592 0.0
N2456 N 0.08349 0.01619 0.49138 0.0
C2457 C 0.10103 0.01611 0.49857 0.0
C2458 C 0.11003 0.00939 0.46578 0.0
Tb2459 Tb 0.06048 0.02177 0.51099 0.0
N2460 N 0.04834 0.01221 0.4789 0.0
C2461 C 0.02973 0.00751 0.47322 0.0
C2462 C 0.03569 1.00052 0.43936 0.0
C2463 C 0.02317 1.00191 0.45344 0.0
H2464 H 0.10488 0.01894 0.51407 0.0
H2465 H 0.00846 0.99875 0.4491 0.0
H2466 H 0.06344 0.99734 0.41624 0.0
H2467 H 0.12848 0.01339 0.49173 0.0
H2468 H 0.01974 0.00852 0.48377 0.0
H2469 H 0.10215 0.08785 0.59949 0.0
H2470 H 0.03058 0.99614 0.42405 0.0
H2471 H 0.00822 0.0718 0.53132 0.0
H2472 H 0.09196 0.07879 0.56453 0.0
H2473 H 0.98421 0.07805 0.5527 0.0
H2474 H 0.09617 1.0012 0.42787 0.0
H2475 H 0.07924 0.0908 0.62365 0.0
H2476 H 0.04624 0.09065 0.63023 0.0
H2477 H 0.12051 1.00688 0.45601 0.0
H2478 H 0.01407 0.08815 0.61745 0.0
N2479 N 0.06319 0.07575 0.56834 0.0
C2480 C 0.08164 0.07994 0.57469 0.0
C2481 C 0.07461 0.08672 0.60821 0.0
C2482 C 0.05592 0.08378 0.60164 0.0
C2483 C 0.08758 0.08515 0.59463 0.0
C2484 C 0.05065 0.07843 0.58137 0.0
H2485 H 0.99089 0.08379 0.58855 0.0
N2486 N 0.02867 0.07318 0.5546 0.0
C2487 C 0.99778 0.07772 0.55898 0.0
C2488 C 0.03272 0.07717 0.57425 0.0
C2489 C 0.01157 0.07413 0.54685 0.0
C2490 C 1.00158 0.08092 0.57919 0.0
C2491 C 0.01932 0.08099 0.58709 0.0
O2492 O 0.04527 0.08914 0.52273 0.0
O2493 O 0.05186 0.04865 0.50645 0.0
O2494 O 0.08146 0.04544 0.5031 0.0
O2495 O 0.08142 0.06908 0.53068 0.0
O2496 O 0.03022 0.06142 0.51173 0.0
O2497 O 0.07051 0.09467 0.54144 0.0
O2498 O 0.06932 0.99853 0.52129 0.0
O2499 O 0.06068 0.0395 0.54038 0.0
O2500 O 0.03057 0.04348 0.5438 0.0
O2501 O 0.03122 0.01859 0.51732 0.0
O2502 O 0.0821 0.02627 0.53531 0.0
O2503 O 0.04172 0.99402 0.50734 0.0
C2504 C 0.03683 0.05103 0.49801 0.0
C2505 C 0.05776 0.12221 0.53795 0.0
C2506 C 0.05964 0.15567 0.53184 0.0
C2507 C 0.06292 0.13655 0.52647 0.0
C2508 C 0.05121 0.16039 0.54905 0.0
C2509 C 0.04954 0.12703 0.55521 0.0
C2510 C 0.04633 0.14614 0.56075 0.0
C2511 C 0.08942 0.06213 0.51531 0.0
C2512 C 0.06013 0.10213 0.53061 0.0
C2513 C 0.0242 0.08533 0.60733 0.0
C2514 C 0.0425 0.08673 0.6146 0.0
C2515 C 0.07549 0.03674 0.54896 0.0
C2516 C 0.05462 0.96587 0.50615 0.0
C2517 C 0.05 0.95077 0.51685 0.0
C2518 C 0.05143 0.9313 0.50924 0.0
C2519 C 0.05762 0.92708 0.49063 0.0
C2520 C 0.0606 0.96157 0.48752 0.0
C2521 C 0.06207 0.94217 0.47979 0.0
C2522 C 0.02298 0.02624 0.53224 0.0
C2523 C 0.05362 0.98595 0.51542 0.0
H2524 H 0.06897 0.13258 0.51294 0.0
H2525 H 0.0485 0.17507 0.55347 0.0
H2526 H 0.04542 0.11604 0.56419 0.0
H2527 H 0.03989 0.14985 0.57402 0.0
H2528 H 0.0457 0.95433 0.53141 0.0
H2529 H 0.05887 0.91215 0.48445 0.0
H2530 H 0.06423 0.97313 0.47908 0.0
H2531 H 0.06675 0.93885 0.46543 0.0
Tb2532 Tb 0.32558 0.80847 0.76632 0.0
C2533 C 0.2769 0.75044 0.80704 0.0
C2534 C 0.28459 0.71881 0.79523 0.0
C2535 C 0.27336 0.72519 0.82724 0.0
C2536 C 0.28351 0.73815 0.79283 0.0
C2537 C 0.27139 0.744 0.82427 0.0
C2538 C 0.27994 0.7126 0.81272 0.0
C2539 C 0.26087 0.77439 0.8335 0.0
N2540 N 0.275 0.76838 0.80347 0.0
C2541 C 0.26644 0.78007 0.81614 0.0
C2542 C 0.26357 0.75639 0.83771 0.0
Tb2543 Tb 0.28491 0.77647 0.7747 0.0
N2544 N 0.2875 0.74458 0.77602 0.0
C2545 C 0.29127 0.73168 0.76041 0.0
C2546 C 0.28958 0.70605 0.7797 0.0
C2547 C 0.29263 0.71241 0.76209 0.0
H2548 H 0.26419 0.79404 0.81327 0.0
H2549 H 0.29609 0.70251 0.74981 0.0
H2550 H 0.28086 0.69788 0.81492 0.0
H2551 H 0.25451 0.78393 0.84362 0.0
H2552 H 0.29371 0.73624 0.74666 0.0
H2553 H 0.31418 0.88261 0.78922 0.0
H2554 H 0.29059 0.69109 0.78095 0.0
H2555 H 0.34724 0.79045 0.72855 0.0
H2556 H 0.31654 0.84908 0.79315 0.0
H2557 H 0.35757 0.80004 0.69828 0.0
H2558 H 0.26934 0.72002 0.84045 0.0
H2559 H 0.32008 0.89338 0.75785 0.0
H2560 H 0.3304 0.88601 0.7242 0.0
H2561 H 0.25917 0.752 0.85114 0.0
H2562 H 0.34248 0.86356 0.69948 0.0
N2563 N 0.32309 0.84021 0.76408 0.0
C2564 C 0.31917 0.85338 0.77935 0.0
C2565 C 0.32106 0.87852 0.75947 0.0
C2566 C 0.32629 0.86551 0.74431 0.0
C2567 C 0.31782 0.87253 0.7772 0.0
C2568 C 0.32734 0.84631 0.74719 0.0
H2569 H 0.35302 0.83165 0.68987 0.0
N2570 N 0.33614 0.81611 0.73755 0.0
C2571 C 0.35095 0.80967 0.70801 0.0
C2572 C 0.33427 0.83387 0.73346 0.0
C2573 C 0.34497 0.80428 0.72535 0.0
C2574 C 0.34831 0.82748 0.70328 0.0
C2575 C 0.34015 0.83999 0.71621 0.0
O2576 O 0.35312 0.80552 0.76992 0.0
O2577 O 0.31495 0.77941 0.77482 0.0
O2578 O 0.30139 0.78607 0.8027 0.0
O2579 O 0.3182 0.81566 0.79633 0.0
O2580 O 0.33453 0.78058 0.75598 0.0
O2581 O 0.34418 0.82958 0.78753 0.0
O2582 O 0.25752 0.77994 0.77165 0.0
O2583 O 0.29551 0.80551 0.76625 0.0
O2584 O 0.30931 0.7989 0.73818 0.0
O2585 O 0.29176 0.7696 0.74448 0.0
O2586 O 0.27596 0.80435 0.78522 0.0
O2587 O 0.26564 0.75521 0.7542 0.0
C2588 C 0.32495 0.76857 0.76542 0.0
C2589 C 0.37537 0.83535 0.78005 0.0
C2590 C 0.40913 0.84368 0.78351 0.0
C2591 C 0.39223 0.83148 0.78634 0.0
C2592 C 0.40889 0.8599 0.77421 0.0
C2593 C 0.37534 0.85162 0.77087 0.0
C2594 C 0.39206 0.8638 0.76795 0.0
C2595 C 0.31148 0.80427 0.80866 0.0
C2596 C 0.35817 0.82181 0.78293 0.0
C2597 C 0.33819 0.85864 0.71272 0.0
C2598 C 0.33128 0.8714 0.72677 0.0
C2599 C 0.28551 0.81635 0.77572 0.0
C2600 C 0.23477 0.75043 0.76287 0.0
C2601 C 0.21798 0.75547 0.75834 0.0
C2602 C 0.20114 0.74419 0.76253 0.0
C2603 C 0.20135 0.72759 0.77125 0.0
C2604 C 0.23477 0.73379 0.77149 0.0
C2605 C 0.21809 0.72244 0.77566 0.0
C2606 C 0.29855 0.78101 0.73222 0.0
C2607 C 0.25195 0.7634 0.75908 0.0
H2608 H 0.39214 0.81906 0.79371 0.0
H2609 H 0.42169 0.86947 0.77167 0.0
H2610 H 0.36249 0.85495 0.76603 0.0
H2611 H 0.39198 0.87631 0.76081 0.0
H2612 H 0.2181 0.76817 0.75139 0.0
H2613 H 0.18863 0.71871 0.77485 0.0
H2614 H 0.24755 0.72958 0.77502 0.0
H2615 H 0.21815 0.70967 0.7824 0.0
Tb2616 Tb 0.56665 0.04129 0.04891 0.0
C2617 C 0.51405 0.06319 0.99021 0.0
C2618 C 0.49079 0.03295 0.97809 0.0
C2619 C 0.48282 0.06513 0.97985 0.0
C2620 C 0.50896 0.04271 0.986 0.0
C2621 C 0.50123 0.07471 0.98669 0.0
C2622 C 0.47759 0.04426 0.97557 0.0
C2623 C 0.52624 0.10403 0.99503 0.0
N2624 N 0.532 0.07179 0.99652 0.0
C2625 C 0.53844 0.09191 0.99822 0.0
C2626 C 0.50749 0.09542 0.98951 0.0
Tb2627 Tb 0.55085 0.05086 1.00184 0.0
N2628 N 0.52221 0.03242 0.98842 0.0
C2629 C 0.5185 0.01227 0.98171 0.0
C2630 C 0.48666 0.01222 0.97226 0.0
C2631 C 0.50067 1.00189 0.97373 0.0
H2632 H 0.55288 0.09869 1.00263 0.0
H2633 H 0.49774 0.98589 0.96888 0.0
H2634 H 0.46349 0.03703 0.96975 0.0
H2635 H 0.53129 0.11998 0.99688 0.0
H2636 H 0.52906 1.00396 0.98289 0.0
H2637 H 0.62119 0.10659 0.07761 0.0
H2638 H 0.47286 1.00413 0.96613 0.0
H2639 H 0.56355 0.99473 0.0537 0.0
H2640 H 0.58952 0.08854 0.06509 0.0
H2641 H 0.58451 0.97346 0.06138 0.0
H2642 H 0.47267 0.0737 0.97726 0.0
H2643 H 0.64565 0.0881 0.0817 0.0
H2644 H 0.65428 0.05503 0.08065 0.0
H2645 H 0.49808 0.10482 0.98697 0.0
H2646 H 0.64428 0.0185 0.07607 0.0
N2647 N 0.59572 0.05974 0.06137 0.0
C2648 C 0.59987 0.08008 0.06677 0.0
C2649 C 0.6317 0.08001 0.07614 0.0
C2650 C 0.62712 0.05919 0.07185 0.0
C2651 C 0.61792 0.09048 0.07391 0.0
C2652 C 0.60877 0.04944 0.06455 0.0
H2653 H 0.61812 0.98789 0.06927 0.0
N2654 N 0.58513 0.02074 0.05641 0.0
C2655 C 0.59002 0.98908 0.06144 0.0
C2656 C 0.60326 0.02909 0.06189 0.0
C2657 C 0.57817 1.00119 0.05713 0.0
C2658 C 0.60898 0.99725 0.0658 0.0
C2659 C 0.61577 0.01763 0.06654 0.0
O2660 O 0.55073 0.02741 0.06872 0.0
O2661 O 0.54441 0.03818 0.02698 0.0
O2662 O 0.53818 0.06762 0.02437 0.0
O2663 O 0.55938 0.07053 0.05114 0.0
O2664 O 0.54299 0.01542 0.0416 0.0
O2665 O 0.56391 0.05867 0.07583 0.0
O2666 O 0.56537 0.0665 0.9823 0.0
O2667 O 0.5734 0.05326 0.02325 0.0
O2668 O 0.57723 0.02145 0.027 0.0
O2669 O 0.559 0.022 0.99854 0.0
O2670 O 0.57433 0.07673 0.00958 0.0
O2671 O 0.55413 0.03472 0.97448 0.0
C2672 C 0.53447 0.02168 0.02832 0.0
C2673 C 0.56065 0.04114 0.10159 0.0
C2674 C 0.55322 0.03781 0.1344 0.0
C2675 C 0.54778 0.03962 0.11541 0.0
C2676 C 0.57169 0.03729 0.13938 0.0
C2677 C 0.57906 0.04061 0.10666 0.0
C2678 C 0.58452 0.0386 0.12549 0.0
C2679 C 0.54555 0.07597 0.04232 0.0
C2680 C 0.55448 0.0435 0.08211 0.0
C2681 C 0.63437 0.02705 0.07266 0.0
C2682 C 0.64005 0.04784 0.07529 0.0
C2683 C 0.58332 0.06978 0.0219 0.0
C2684 C 0.55627 0.05286 0.94916 0.0
C2685 C 0.56825 0.05155 0.93452 0.0
C2686 C 0.56274 0.05338 0.91555 0.0
C2687 C 0.54497 0.05654 0.91139 0.0
C2688 C 0.53859 0.05607 0.94491 0.0
C2689 C 0.53299 0.05792 0.92607 0.0
C2690 C 0.57083 0.01463 0.00843 0.0
C2691 C 0.56261 0.05064 0.96862 0.0
H2692 H 0.53362 0.04034 0.11149 0.0
H2693 H 0.57615 0.03584 0.15396 0.0
H2694 H 0.5892 0.04193 0.09623 0.0
H2695 H 0.59874 0.0382 0.12936 0.0
H2696 H 0.58181 0.04876 0.93784 0.0
H2697 H 0.54043 0.05812 0.89687 0.0
H2698 H 0.52914 0.05708 0.95603 0.0
H2699 H 0.51933 0.06041 0.92283 0.0
Tb2700 Tb 0.3236 0.31883 0.28627 0.0
C2701 C 0.25449 0.26888 0.23569 0.0
C2702 C 0.22949 0.27459 0.25515 0.0
C2703 C 0.22393 0.26663 0.21978 0.0
C2704 C 0.24829 0.27412 0.25368 0.0
C2705 C 0.24227 0.26452 0.21854 0.0
C2706 C 0.21752 0.27156 0.2381 0.0
C2707 C 0.26615 0.25308 0.20069 0.0
N2708 N 0.27207 0.26624 0.23519 0.0
C2709 C 0.27761 0.25723 0.21815 0.0
C2710 C 0.24852 0.25711 0.20081 0.0
Tb2711 Tb 0.28986 0.2738 0.26462 0.0
N2712 N 0.26018 0.27659 0.26981 0.0
C2713 C 0.25365 0.2777 0.28783 0.0
C2714 C 0.22302 0.2768 0.27365 0.0
C2715 C 0.23509 0.27802 0.29003 0.0
H2716 H 0.29097 0.2535 0.21779 0.0
H2717 H 0.23011 0.27921 0.30437 0.0
H2718 H 0.2031 0.27217 0.23893 0.0
H2719 H 0.27085 0.24655 0.18719 0.0
H2720 H 0.26269 0.27849 0.30068 0.0
H2721 H 0.3545 0.37574 0.2471 0.0
H2722 H 0.20858 0.27672 0.27534 0.0
H2723 H 0.34246 0.28566 0.3059 0.0
H2724 H 0.32951 0.35611 0.26216 0.0
H2725 H 0.37311 0.27997 0.31268 0.0
H2726 H 0.21438 0.26355 0.20676 0.0
H2727 H 0.38605 0.36945 0.2495 0.0
H2728 H 0.40787 0.35082 0.26256 0.0
H2729 H 0.23956 0.25358 0.18731 0.0
H2730 H 0.41306 0.32548 0.28124 0.0
N2731 N 0.34618 0.33752 0.2715 0.0
C2732 C 0.34306 0.3527 0.26268 0.0
C2733 C 0.37502 0.36053 0.2558 0.0
C2734 C 0.37845 0.34591 0.26588 0.0
C2735 C 0.35724 0.36407 0.25437 0.0
C2736 C 0.36357 0.33464 0.27375 0.0
H2737 H 0.40032 0.29947 0.30045 0.0
N2738 N 0.35154 0.30978 0.29101 0.0
C2739 C 0.37148 0.29156 0.30477 0.0
C2740 C 0.36643 0.3205 0.28418 0.0
C2741 C 0.35392 0.29522 0.30109 0.0
C2742 C 0.38679 0.30255 0.29782 0.0
C2743 C 0.38436 0.31707 0.28717 0.0
O2744 O 0.32397 0.32759 0.31677 0.0
O2745 O 0.29482 0.30317 0.28266 0.0
O2746 O 0.29138 0.29278 0.24247 0.0
O2747 O 0.31729 0.31898 0.25481 0.0
O2748 O 0.30069 0.33204 0.27878 0.0
O2749 O 0.33048 0.34935 0.29896 0.0
O2750 O 0.29947 0.24721 0.2619 0.0
O2751 O 0.31871 0.28837 0.27236 0.0
O2752 O 0.31837 0.30138 0.30938 0.0
O2753 O 0.29352 0.27495 0.29623 0.0
O2754 O 0.31173 0.2686 0.24596 0.0
O2755 O 0.27259 0.24832 0.27109 0.0
C2756 C 0.28742 0.31705 0.27925 0.0
C2757 C 0.31207 0.35621 0.32477 0.0
C2758 C 0.28864 0.37549 0.32155 0.0
C2759 C 0.30333 0.36762 0.31429 0.0
C2760 C 0.28269 0.37194 0.3396 0.0
C2761 C 0.30618 0.35307 0.34295 0.0
C2762 C 0.29153 0.36088 0.35027 0.0
C2763 C 0.30405 0.30883 0.24081 0.0
C2764 C 0.32618 0.34627 0.31604 0.0
C2765 C 0.39924 0.32804 0.27925 0.0
C2766 C 0.39628 0.34241 0.26857 0.0
C2767 C 0.3251 0.28088 0.25709 0.0
C2768 C 0.27653 0.21754 0.2542 0.0
C2769 C 0.28368 0.20166 0.25823 0.0
C2770 C 0.27679 0.18236 0.24743 0.0
C2771 C 0.2628 0.17915 0.2321 0.0
C2772 C 0.26231 0.21423 0.23911 0.0
C2773 C 0.25557 0.19506 0.22802 0.0
C2774 C 0.3058 0.28527 0.31078 0.0
C2775 C 0.28412 0.23714 0.26645 0.0
H2776 H 0.30757 0.36996 0.30013 0.0
H2777 H 0.27143 0.37795 0.34557 0.0
H2778 H 0.31263 0.34421 0.35126 0.0
H2779 H 0.28692 0.35823 0.3642 0.0
H2780 H 0.29481 0.20442 0.26979 0.0
H2781 H 0.25734 0.16436 0.22349 0.0
H2782 H 0.25636 0.2263 0.23598 0.0
H2783 H 0.24466 0.19252 0.21634 0.0
Tb2784 Tb 0.55307 0.56697 0.03554 0.0
C2785 C 0.57972 0.51191 0.97196 0.0
C2786 C 0.55565 0.50461 0.94533 0.0
C2787 C 0.58723 0.50354 0.93852 0.0
C2788 C 0.56154 0.51026 0.96545 0.0
C2789 C 0.59274 0.50809 0.95865 0.0
C2790 C 0.56869 0.50181 0.93186 0.0
C2791 C 0.61509 0.51152 0.98613 0.0
N2792 N 0.58435 0.51597 0.99151 0.0
C2793 C 0.60165 0.51513 0.99874 0.0
C2794 C 0.6107 0.50827 0.96599 0.0
Tb2795 Tb 0.56149 0.52217 0.01109 0.0
N2796 N 0.54937 0.51268 0.97897 0.0
C2797 C 0.53076 0.50796 0.97329 0.0
C2798 C 0.53675 0.50114 0.93942 0.0
C2799 C 0.52422 0.50248 0.9535 0.0
H2800 H 0.60539 0.51767 0.01424 0.0
H2801 H 0.50951 0.49935 0.94914 0.0
H2802 H 0.56448 0.49767 0.91633 0.0
H2803 H 0.62883 0.51129 0.99197 0.0
H2804 H 0.52076 0.5089 0.98384 0.0
H2805 H 0.60367 0.58875 0.09873 0.0
H2806 H 0.53165 0.49681 0.9241 0.0
H2807 H 0.50934 0.57256 0.0311 0.0
H2808 H 0.59321 0.57908 0.06386 0.0
H2809 H 0.4856 0.57943 0.05262 0.0
H2810 H 0.59706 0.50074 0.92804 0.0
H2811 H 0.58101 0.59249 0.12303 0.0
H2812 H 0.54814 0.59276 0.12982 0.0
H2813 H 0.62111 0.50539 0.95625 0.0
H2814 H 0.51593 0.59032 0.11723 0.0
N2815 N 0.56449 0.57645 0.06787 0.0
C2816 C 0.58298 0.58051 0.07407 0.0
C2817 C 0.57625 0.58813 0.10763 0.0
C2818 C 0.55753 0.58523 0.10119 0.0
C2819 C 0.58907 0.5861 0.09397 0.0
C2820 C 0.55208 0.57953 0.08097 0.0
H2821 H 0.49256 0.58568 0.08845 0.0
N2822 N 0.52988 0.574 0.05432 0.0
C2823 C 0.49916 0.57903 0.05883 0.0
C2824 C 0.53411 0.57829 0.07394 0.0
C2825 C 0.5128 0.57506 0.04663 0.0
C2826 C 0.50313 0.58251 0.07904 0.0
C2827 C 0.52087 0.58251 0.08685 0.0
O2828 O 0.54646 0.58921 0.02165 0.0
O2829 O 0.55291 0.54899 0.00614 0.0
O2830 O 0.58285 0.5455 1.00318 0.0
O2831 O 0.58237 0.56967 0.03019 0.0
O2832 O 0.53106 0.56145 0.01148 0.0
O2833 O 0.57102 0.59544 0.04146 0.0
O2834 O 0.57007 0.49889 0.02163 0.0
O2835 O 0.56167 0.54001 0.04047 0.0
O2836 O 0.53148 0.54419 0.04364 0.0
O2837 O 0.53226 0.51902 0.01747 0.0
O2838 O 0.58318 0.52699 0.03533 0.0
O2839 O 0.54262 0.49449 0.00742 0.0
C2840 C 0.53776 0.55117 0.99774 0.0
C2841 C 0.55787 0.62246 0.03686 0.0
C2842 C 0.55805 0.65528 0.02955 0.0
C2843 C 0.56212 0.6364 0.02479 0.0
C2844 C 0.55007 0.66015 0.04708 0.0
C2845 C 0.54993 0.62745 0.05425 0.0
C2846 C 0.54616 0.64633 0.05937 0.0
C2847 C 0.59051 0.56255 0.01502 0.0
C2848 C 0.5609 0.60254 0.03001 0.0
C2849 C 0.52594 0.5872 0.10706 0.0
C2850 C 0.54426 0.58856 0.11423 0.0
C2851 C 0.57655 0.53736 0.04905 0.0
C2852 C 0.55543 0.4663 0.00615 0.0
C2853 C 0.55081 0.45105 0.01667 0.0
C2854 C 0.55202 0.43157 0.00874 0.0
C2855 C 0.55806 0.42753 0.99003 0.0
C2856 C 0.56125 0.46217 0.98742 0.0
C2857 C 0.56256 0.44279 0.97941 0.0
C2858 C 0.52398 0.5268 0.03229 0.0
C2859 C 0.55441 0.48634 0.01557 0.0
H2860 H 0.56854 0.63237 0.01154 0.0
H2861 H 0.54652 0.67446 0.05114 0.0
H2862 H 0.54652 0.61678 0.0637 0.0
H2863 H 0.53992 0.65017 0.07276 0.0
H2864 H 0.54659 0.45447 0.03128 0.0
H2865 H 0.55912 0.4126 0.9836 0.0
H2866 H 0.56483 0.47381 0.97909 0.0
H2867 H 0.56711 0.4396 0.96497 0.0
Tb2868 Tb 0.82767 0.30986 0.27171 0.0
C2869 C 0.77576 0.24896 0.30631 0.0
C2870 C 0.78433 0.21799 0.29375 0.0
C2871 C 0.77068 0.22213 0.32463 0.0
C2872 C 0.78346 0.23762 0.29227 0.0
C2873 C 0.76884 0.24121 0.32243 0.0
C2874 C 0.77843 0.21053 0.3103 0.0
C2875 C 0.75709 0.27079 0.33182 0.0
N2876 N 0.774 0.26718 0.30346 0.0
C2877 C 0.76416 0.27783 0.31559 0.0
C2878 C 0.75969 0.25254 0.33543 0.0
Tb2879 Tb 0.78611 0.27743 0.27641 0.0
N2880 N 0.78848 0.24518 0.27628 0.0
C2881 C 0.79297 0.23312 0.26045 0.0
C2882 C 0.79024 0.20613 0.27816 0.0
C2883 C 0.79423 0.21362 0.26128 0.0
H2884 H 0.76192 0.29194 0.31312 0.0
H2885 H 0.79832 0.20441 0.24889 0.0
H2886 H 0.77917 0.19557 0.31181 0.0
H2887 H 0.74966 0.27949 0.34154 0.0
H2888 H 0.79608 0.23855 0.24722 0.0
H2889 H 0.81512 0.38272 0.29929 0.0
H2890 H 0.79112 0.19099 0.27872 0.0
H2891 H 0.85226 0.29563 0.23529 0.0
H2892 H 0.81732 0.34856 0.30085 0.0
H2893 H 0.86486 0.3083 0.20712 0.0
H2894 H 0.76562 0.21597 0.33701 0.0
H2895 H 0.8227 0.39637 0.26966 0.0
H2896 H 0.83502 0.39202 0.23675 0.0
H2897 H 0.75414 0.2471 0.34798 0.0
H2898 H 0.84884 0.37178 0.21167 0.0
N2899 N 0.82528 0.34211 0.27192 0.0
C2900 C 0.82059 0.35407 0.2877 0.0
C2901 C 0.82357 0.38121 0.27018 0.0
C2902 C 0.82966 0.36946 0.25464 0.0
C2903 C 0.81936 0.37359 0.28694 0.0
C2904 C 0.8305 0.3498 0.25605 0.0
H2905 H 0.86044 0.34073 0.20074 0.0
N2906 N 0.84003 0.3203 0.24486 0.0
C2907 C 0.8573 0.31691 0.21676 0.0
C2908 C 0.83832 0.33854 0.24207 0.0
C2909 C 0.85003 0.30975 0.23284 0.0
C2910 C 0.85474 0.33519 0.21317 0.0
C2911 C 0.84543 0.34642 0.22609 0.0
O2912 O 0.85487 0.30606 0.27611 0.0
O2913 O 0.81622 0.28007 0.27821 0.0
O2914 O 0.80068 0.28526 0.30547 0.0
O2915 O 0.81936 0.31494 0.30147 0.0
O2916 O 0.83639 0.28218 0.25995 0.0
O2917 O 0.84597 0.32998 0.29394 0.0
O2918 O 0.75887 0.28111 0.2721 0.0
O2919 O 0.79752 0.30716 0.2698 0.0
O2920 O 0.81323 0.30198 0.24259 0.0
O2921 O 0.79435 0.27239 0.24662 0.0
O2922 O 0.77736 0.30511 0.28803 0.0
O2923 O 0.76778 0.25718 0.25429 0.0
C2924 C 0.8264 0.26962 0.26856 0.0
C2925 C 0.87739 0.33553 0.28708 0.0
C2926 C 0.91112 0.34213 0.28874 0.0
C2927 C 0.89405 0.33013 0.29144 0.0
C2928 C 0.91125 0.35973 0.2816 0.0
C2929 C 0.87776 0.3532 0.28009 0.0
C2930 C 0.89465 0.36519 0.27733 0.0
C2931 C 0.81167 0.30276 0.31267 0.0
C2932 C 0.85991 0.32207 0.28946 0.0
C2933 C 0.84363 0.36553 0.22395 0.0
C2934 C 0.83574 0.37703 0.23821 0.0
C2935 C 0.78729 0.31765 0.27935 0.0
C2936 C 0.73642 0.25163 0.26125 0.0
C2937 C 0.71975 0.25667 0.25624 0.0
C2938 C 0.70268 0.2449 0.25927 0.0
C2939 C 0.70259 0.22784 0.26736 0.0
C2940 C 0.73607 0.23445 0.26908 0.0
C2941 C 0.7192 0.22265 0.27215 0.0
C2942 C 0.80216 0.2845 0.23541 0.0
C2943 C 0.75384 0.26507 0.25879 0.0
H2944 H 0.89367 0.31662 0.29713 0.0
H2945 H 0.92415 0.36917 0.27914 0.0
H2946 H 0.86511 0.35775 0.27677 0.0
H2947 H 0.89487 0.37875 0.27184 0.0
H2948 H 0.72015 0.26975 0.24982 0.0
H2949 H 0.6897 0.21859 0.27014 0.0
H2950 H 0.74874 0.23014 0.27284 0.0
H2951 H 0.71901 0.20949 0.27834 0.0
Tb2952 Tb 0.06673 0.54724 0.53948 0.0
C2953 C 1.00374 0.52375 0.4781 0.0
C2954 C 0.0084 0.49866 0.45143 0.0
C2955 C 0.97762 0.49749 0.46203 0.0
C2956 C 0.01542 0.51557 0.46622 0.0
C2957 C 0.98451 0.51539 0.47545 0.0
C2958 C 0.98959 0.4891 0.45002 0.0
C2959 C 0.98009 0.54472 0.49675 0.0
N2960 N 0.01098 0.54123 0.49057 0.0
C2961 C 0.99925 0.5524 0.49878 0.0
C2962 C 0.97271 0.52586 0.48549 0.0
Tb2963 Tb 0.04293 0.55131 0.49414 0.0
N2964 N 0.03327 0.52568 0.46765 0.0
C2965 C 0.04419 0.52127 0.453 0.0
C2966 C 0.02021 0.4927 0.43777 0.0
C2967 C 0.03805 0.50439 0.43826 0.0
H2968 H 1.00431 0.56734 0.50685 0.0
H2969 H 0.04705 0.50047 0.42724 0.0
H2970 H 0.98398 0.47588 0.439 0.0
H2971 H 0.97101 0.55343 0.50381 0.0
H2972 H 0.05795 0.53025 0.4531 0.0
H2973 H 0.12552 0.60996 0.5515 0.0
H2974 H 0.01538 0.47979 0.42619 0.0
H2975 H 0.06351 0.50182 0.54884 0.0
H2976 H 0.0926 0.59321 0.54498 0.0
H2977 H 0.08443 0.4801 0.55481 0.0
H2978 H 0.96295 0.49061 0.46012 0.0
H2979 H 0.14921 0.59033 0.5548 0.0
H2980 H 0.15652 0.55705 0.55613 0.0
H2981 H 0.95786 0.51999 0.48387 0.0
H2982 H 0.14531 0.52141 0.55656 0.0
N2983 N 0.09723 0.56407 0.54449 0.0
C2984 C 0.10262 0.58433 0.54651 0.0
C2985 C 0.1347 0.58285 0.55205 0.0
C2986 C 0.12908 0.56226 0.55075 0.0
C2987 C 0.12136 0.59397 0.55024 0.0
C2988 C 0.11001 0.55329 0.54714 0.0
H2989 H 0.11837 0.49256 0.5563 0.0
N2990 N 0.08522 0.52605 0.54549 0.0
C2991 C 0.09008 0.49503 0.55258 0.0
C2992 C 0.10377 0.53345 0.54747 0.0
C2993 C 0.07824 0.50742 0.5491 0.0
C2994 C 0.10922 0.50209 0.55337 0.0
C2995 C 0.11631 0.52171 0.55131 0.0
O2996 O 0.05202 0.53951 0.56301 0.0
O2997 O 0.04081 0.54237 0.52165 0.0
O2998 O 0.03349 0.56777 0.51995 0.0
O2999 O 0.0607 0.5766 0.53997 0.0
O3000 O 0.04351 0.52125 0.53738 0.0
O3001 O 0.07248 0.56682 0.56663 0.0
O3002 O 0.04911 0.58238 0.49616 0.0
O3003 O 0.06829 0.55946 0.51321 0.0
O3004 O 0.07302 0.52417 0.51746 0.0
O3005 O 0.0515 0.52247 0.49064 0.0
O3006 O 0.07027 0.55343 0.48348 0.0
O3007 O 0.03766 0.56325 0.46921 0.0
C3008 C 0.03265 0.5258 0.52487 0.0
C3009 C 0.06886 0.55112 0.59365 0.0
C3010 C 0.06399 0.54641 0.62675 0.0
C3011 C 0.05737 0.54979 0.60876 0.0
C3012 C 0.08232 0.5443 0.62946 0.0
C3013 C 0.08713 0.54892 0.59644 0.0
C3014 C 0.09379 0.54546 0.61429 0.0
C3015 C 0.04447 0.57984 0.53468 0.0
C3016 C 0.06136 0.55496 0.57528 0.0
C3017 C 0.13542 0.53021 0.55379 0.0
C3018 C 0.1418 0.5505 0.55356 0.0
C3019 C 0.07952 0.55837 0.50028 0.0
C3020 C 0.06121 0.59195 0.46842 0.0
C3021 C 0.06844 0.5822 0.45228 0.0
C3022 C 0.08457 0.5918 0.44522 0.0
C3023 C 0.09343 0.61133 0.45431 0.0
C3024 C 0.07007 0.61161 0.47713 0.0
C3025 C 0.0861 0.6212 0.4701 0.0
C3026 C 0.06404 0.51558 0.50016 0.0
C3027 C 0.04579 0.58129 0.47767 0.0
H3028 H 0.04334 0.55178 0.60661 0.0
H3029 H 0.0877 0.54162 0.64322 0.0
H3030 H 0.09627 0.55004 0.58497 0.0
H3031 H 0.10789 0.54379 0.61641 0.0
H3032 H 0.0619 0.56695 0.44554 0.0
H3033 H 0.10584 0.61903 0.449 0.0
H3034 H 0.06483 0.61937 0.48969 0.0
H3035 H 0.09295 0.63628 0.47702 0.0
Tb3036 Tb 0.78272 0.79903 0.27123 0.0
C3037 C 0.84247 0.76745 0.31072 0.0
C3038 C 0.8526 0.79187 0.3404 0.0
C3039 C 0.8542 0.75743 0.33964 0.0
C3040 C 0.84484 0.78663 0.32081 0.0
C3041 C 0.8478 0.75274 0.31972 0.0
C3042 C 0.85657 0.77701 0.34999 0.0
C3043 C 0.84287 0.73101 0.28807 0.0
N3044 N 0.83677 0.76379 0.29144 0.0
C3045 C 0.83775 0.74614 0.27984 0.0
C3046 C 0.84751 0.73416 0.30818 0.0
Tb3047 Tb 0.82809 0.78914 0.27914 0.0
N3048 N 0.84135 0.80053 0.31076 0.0
C3049 C 0.84718 0.82033 0.31899 0.0
C3050 C 0.85707 0.81199 0.34937 0.0
C3051 C 0.85475 0.82631 0.33846 0.0
H3052 H 0.83405 0.74345 0.2643 0.0
H3053 H 0.8587 0.84198 0.34504 0.0
H3054 H 0.86228 0.78067 0.36512 0.0
H3055 H 0.84313 0.71691 0.2789 0.0
H3056 H 0.84546 0.83172 0.31098 0.0
H3057 H 0.75192 0.74512 0.20606 0.0
H3058 H 0.863 0.81666 0.36441 0.0
H3059 H 0.77767 0.84522 0.28511 0.0
H3060 H 0.76524 0.75594 0.24003 0.0
H3061 H 0.76886 0.87152 0.26987 0.0
H3062 H 0.85811 0.74628 0.34692 0.0
H3063 H 0.74744 0.76999 0.1862 0.0
H3064 H 0.74812 0.80582 0.18483 0.0
H3065 H 0.85156 0.72247 0.31451 0.0
H3066 H 0.75258 0.8405 0.20237 0.0
N3067 N 0.76924 0.78704 0.23975 0.0
C3068 C 0.76345 0.76716 0.23182 0.0
C3069 C 0.75341 0.77491 0.20121 0.0
C3070 C 0.75785 0.79512 0.20986 0.0
C3071 C 0.75583 0.76085 0.2124 0.0
C3072 C 0.76567 0.8007 0.22942 0.0
H3073 H 0.7598 0.86506 0.23432 0.0
N3074 N 0.77409 0.82411 0.25839 0.0
C3075 C 0.7687 0.85713 0.26102 0.0
C3076 C 0.76816 0.82004 0.23916 0.0
C3077 C 0.77363 0.84214 0.26961 0.0
C3078 C 0.76369 0.85346 0.24094 0.0
C3079 C 0.76297 0.83458 0.22981 0.0
O3080 O 0.76443 0.80834 0.29129 0.0
O3081 O 0.80422 0.79675 0.29252 0.0
O3082 O 0.80837 0.7629 0.28596 0.0
O3083 O 0.78043 0.76672 0.27175 0.0
O3084 O 0.79145 0.82009 0.29864 0.0
O3085 O 0.75757 0.7792 0.27355 0.0
O3086 O 0.84591 0.78073 0.25813 0.0
O3087 O 0.80657 0.79148 0.25788 0.0
O3088 O 0.8026 0.82493 0.264 0.0
O3089 O 0.83032 0.82153 0.27901 0.0
O3090 O 0.81921 0.76806 0.2518 0.0
O3091 O 0.85381 0.80861 0.27793 0.0
C3092 C 0.80355 0.81175 0.3054 0.0
C3093 C 0.73249 0.79373 0.28277 0.0
C3094 C 0.70076 0.79104 0.29251 0.0
C3095 C 0.71948 0.7902 0.29661 0.0
C3096 C 0.69554 0.7959 0.27464 0.0
C3097 C 0.72671 0.79849 0.26513 0.0
C3098 C 0.70841 0.79965 0.26116 0.0
C3099 C 0.7905 0.75578 0.2795 0.0
C3100 C 0.75186 0.79188 0.28641 0.0
C3101 C 0.75642 0.82949 0.20993 0.0
C3102 C 0.75388 0.80976 0.19994 0.0
C3103 C 0.80711 0.77639 0.24504 0.0
C3104 C 0.87803 0.79335 0.26704 0.0
C3105 C 0.89127 0.79755 0.25356 0.0
C3106 C 0.9095 0.79473 0.25681 0.0
C3107 C 0.91389 0.78713 0.2734 0.0
C3108 C 0.88312 0.78618 0.28354 0.0
C3109 C 0.90084 0.78296 0.28659 0.0
C3110 C 0.82035 0.83227 0.27083 0.0
C3111 C 0.85902 0.79655 0.26407 0.0
H3112 H 0.72377 0.78636 0.31023 0.0
H3113 H 0.68141 0.79692 0.27112 0.0
H3114 H 0.73632 0.80114 0.25431 0.0
H3115 H 0.70413 0.80336 0.24748 0.0
H3116 H 0.88752 0.80335 0.2409 0.0
H3117 H 0.92748 0.78427 0.27619 0.0
H3118 H 0.87341 0.78312 0.29415 0.0
H3119 H 0.90453 0.77725 0.29933 0.0
Tb3120 Tb 0.81314 0.27527 0.74703 0.0
C3121 C 0.77697 0.33468 0.79663 0.0
C3122 C 0.80009 0.36568 0.8037 0.0
C3123 C 0.76742 0.36621 0.80262 0.0
C3124 C 0.7953 0.34469 0.79883 0.0
C3125 C 0.76281 0.34529 0.79907 0.0
C3126 C 0.78605 0.3764 0.80493 0.0
C3127 C 0.74091 0.31393 0.79683 0.0
N3128 N 0.77313 0.31447 0.79353 0.0
C3129 C 0.75544 0.30408 0.7946 0.0
C3130 C 0.74456 0.33461 0.79875 0.0
Tb3131 Tb 0.79809 0.29985 0.79083 0.0
N3132 N 0.80844 0.33381 0.79789 0.0
C3133 C 0.82662 0.34303 0.80346 0.0
C3134 C 0.81879 0.37521 0.80817 0.0
C3135 C 0.83207 0.3638 0.80844 0.0
H3136 H 0.75231 0.28816 0.79347 0.0
H3137 H 0.84653 0.37099 0.81241 0.0
H3138 H 0.78946 0.39253 0.80841 0.0
H3139 H 0.72692 0.30557 0.79718 0.0
H3140 H 0.83708 0.33447 0.80384 0.0
H3141 H 0.74221 0.23311 0.71808 0.0
H3142 H 0.82305 0.3913 0.81209 0.0
H3143 H 0.85049 0.25704 0.75385 0.0
H3144 H 0.76424 0.25964 0.73884 0.0
H3145 H 0.86079 0.22634 0.74389 0.0
H3146 H 0.75673 0.37463 0.80432 0.0
H3147 H 0.75188 0.20337 0.70149 0.0
H3148 H 0.77651 0.18422 0.69729 0.0
H3149 H 0.73329 0.34221 0.80062 0.0
H3150 H 0.80842 0.18176 0.70549 0.0
N3151 N 0.78855 0.24866 0.73139 0.0
C3152 C 0.76986 0.24848 0.7302 0.0
C3153 C 0.76218 0.21585 0.70979 0.0
C3154 C 0.78062 0.21476 0.71272 0.0
C3155 C 0.75672 0.23263 0.71897 0.0
C3156 C 0.79354 0.23148 0.72375 0.0
H3157 H 0.8396 0.19706 0.72332 0.0
N3158 N 0.82278 0.24566 0.74039 0.0
C3159 C 0.84673 0.227 0.7396 0.0
C3160 C 0.81125 0.22989 0.72861 0.0
C3161 C 0.84058 0.24445 0.74551 0.0
C3162 C 0.8348 0.2106 0.72791 0.0
C3163 C 0.81685 0.21188 0.72223 0.0
O3164 O 0.84153 0.2864 0.74616 0.0
O3165 O 0.81657 0.30265 0.76827 0.0
O3166 O 0.77932 0.30324 0.76624 0.0
O3167 O 0.78824 0.28566 0.73743 0.0
O3168 O 0.81326 0.30382 0.73883 0.0
O3169 O 0.8236 0.27436 0.71951 0.0
O3170 O 0.79024 0.28274 0.81223 0.0
O3171 O 0.80122 0.27237 0.77338 0.0
O3172 O 0.82928 0.27132 0.77338 0.0
O3173 O 0.82745 0.29875 0.7965 0.0
O3174 O 0.77657 0.27212 0.78523 0.0
O3175 O 0.80742 0.31208 0.82031 0.0
C3176 C 0.81639 0.31422 0.75628 0.0
C3177 C 0.84924 0.30161 0.71966 0.0
C3178 C 0.84817 0.32746 0.70062 0.0
C3179 C 0.8395 0.31002 0.70682 0.0
C3180 C 0.86674 0.33645 0.70753 0.0
C3181 C 0.86777 0.31078 0.7263 0.0
C3182 C 0.87642 0.32814 0.72031 0.0
C3183 C 0.77712 0.29621 0.74696 0.0
C3184 C 0.84019 0.28399 0.72724 0.0
C3185 C 0.80434 0.19563 0.71056 0.0
C3186 C 0.78623 0.19708 0.70581 0.0
C3187 C 0.78584 0.26146 0.77473 0.0
C3188 C 0.78721 0.30073 0.84287 0.0
C3189 C 0.78559 0.28781 0.85605 0.0
C3190 C 0.77481 0.29026 0.87178 0.0
C3191 C 0.76577 0.30614 0.87436 0.0
C3192 C 0.77806 0.3165 0.84542 0.0
C3193 C 0.76739 0.31916 0.86117 0.0
C3194 C 0.83572 0.28419 0.78995 0.0
C3195 C 0.79828 0.29686 0.82653 0.0
H3196 H 0.82509 0.30322 0.70194 0.0
H3197 H 0.87393 0.34967 0.70275 0.0
H3198 H 0.87549 0.3046 0.73632 0.0
H3199 H 0.8907 0.33514 0.72552 0.0
H3200 H 0.79298 0.27588 0.85412 0.0
H3201 H 0.75737 0.30835 0.88641 0.0
H3202 H 0.77919 0.32671 0.83537 0.0
H3203 H 0.76035 0.33132 0.86314 0.0
Tb3204 Tb 0.8232 0.81583 0.78689 0.0
C3205 C 0.75229 0.77148 0.73739 0.0
C3206 C 0.72818 0.77883 0.7575 0.0
C3207 C 0.72237 0.77269 0.7222 0.0
C3208 C 0.74658 0.77681 0.75565 0.0
C3209 C 0.74001 0.76862 0.72047 0.0
C3210 C 0.71642 0.77771 0.74072 0.0
C3211 C 0.76191 0.75412 0.70189 0.0
N3212 N 0.76915 0.7669 0.73635 0.0
C3213 C 0.77349 0.75697 0.7191 0.0
C3214 C 0.74532 0.76047 0.70249 0.0
Tb3215 Tb 0.78737 0.77306 0.76538 0.0
N3216 N 0.75823 0.7774 0.77154 0.0
C3217 C 0.75145 0.77748 0.7894 0.0
C3218 C 0.72169 0.78035 0.77598 0.0
C3219 C 0.7332 0.77897 0.79185 0.0
H3220 H 0.78599 0.75146 0.71831 0.0
H3221 H 0.72802 0.77899 0.806 0.0
H3222 H 0.70238 0.77962 0.74189 0.0
H3223 H 0.76574 0.74688 0.68821 0.0
H3224 H 0.75981 0.77632 0.80201 0.0
H3225 H 0.84909 0.87903 0.75373 0.0
H3226 H 0.70757 0.78161 0.778 0.0
H3227 H 0.84562 0.78173 0.80173 0.0
H3228 H 0.82621 0.85684 0.76893 0.0
H3229 H 0.87676 0.77674 0.8037 0.0
H3230 H 0.71285 0.77086 0.70936 0.0
H3231 H 0.88044 0.8727 0.75035 0.0
H3232 H 0.90357 0.85277 0.75729 0.0
H3233 H 0.73627 0.75801 0.68917 0.0
H3234 H 0.91125 0.8256 0.77177 0.0
N3235 N 0.84378 0.83703 0.77254 0.0
C3236 C 0.83966 0.85357 0.76697 0.0
C3237 C 0.8703 0.86269 0.75668 0.0
C3238 C 0.8749 0.84668 0.76374 0.0
C3239 C 0.85265 0.86631 0.75855 0.0
C3240 C 0.86117 0.83403 0.7718 0.0
H3241 H 0.90156 0.79776 0.78962 0.0
N3242 N 0.85174 0.80711 0.78767 0.0
C3243 C 0.87381 0.78875 0.7971 0.0
C3244 C 0.86541 0.81879 0.77994 0.0
C3245 C 0.85588 0.79207 0.79616 0.0
C3246 C 0.88774 0.80057 0.78908 0.0
C3247 C 0.88364 0.81572 0.78025 0.0
O3248 O 0.81904 0.82192 0.81671 0.0
O3249 O 0.79389 0.80215 0.78384 0.0
O3250 O 0.79025 0.79234 0.7433 0.0
O3251 O 0.81648 0.81797 0.75597 0.0
O3252 O 0.80128 0.8311 0.78085 0.0
O3253 O 0.83565 0.84405 0.80415 0.0
O3254 O 0.79734 0.74794 0.76979 0.0
O3255 O 0.81671 0.7858 0.77142 0.0
O3256 O 0.82041 0.79395 0.80614 0.0
O3257 O 0.79021 0.77629 0.79733 0.0
O3258 O 0.80784 0.76653 0.74513 0.0
O3259 O 0.76824 0.74619 0.76524 0.0
C3260 C 0.78732 0.81676 0.78109 0.0
C3261 C 0.81588 0.85424 0.82744 0.0
C3262 C 0.79541 0.87615 0.82213 0.0
C3263 C 0.80898 0.86595 0.8158 0.0
C3264 C 0.78919 0.8752 0.84064 0.0
C3265 C 0.80976 0.85362 0.84601 0.0
C3266 C 0.79654 0.86416 0.85261 0.0
C3267 C 0.80306 0.80842 0.7419 0.0
C3268 C 0.82719 0.84045 0.81927 0.0
C3269 C 0.89726 0.8279 0.77183 0.0
C3270 C 0.89288 0.84332 0.76352 0.0
C3271 C 0.82204 0.77806 0.75562 0.0
C3272 C 0.77898 0.71736 0.75315 0.0
C3273 C 0.78982 0.70434 0.75741 0.0
C3274 C 0.78851 0.68598 0.74494 0.0
C3275 C 0.776 0.68062 0.72806 0.0
C3276 C 0.76646 0.71187 0.73624 0.0
C3277 C 0.76505 0.69357 0.72375 0.0
C3278 C 0.80545 0.78133 0.80948 0.0
C3279 C 0.78096 0.73631 0.76686 0.0
H3280 H 0.81349 0.8664 0.80137 0.0
H3281 H 0.77877 0.88306 0.84586 0.0
H3282 H 0.81474 0.84445 0.85513 0.0
H3283 H 0.7917 0.86345 0.86685 0.0
H3284 H 0.79915 0.70845 0.77071 0.0
H3285 H 0.7748 0.66654 0.71816 0.0
H3286 H 0.75772 0.72159 0.73273 0.0
H3287 H 0.75544 0.68939 0.71073 0.0
Tb3288 Tb 0.53434 0.52804 0.51161 0.0
C3289 C 0.58491 0.60075 0.56257 0.0
C3290 C 0.58746 0.62554 0.54229 0.0
C3291 C 0.59041 0.63581 0.57757 0.0
C3292 C 0.58416 0.60544 0.54437 0.0
C3293 C 0.58879 0.61588 0.57944 0.0
C3294 C 0.58975 0.64065 0.55897 0.0
C3295 C 0.59246 0.59093 0.59822 0.0
N3296 N 0.58399 0.58144 0.56359 0.0
C3297 C 0.58872 0.57652 0.58101 0.0
C3298 C 0.59207 0.61064 0.5975 0.0
Tb3299 Tb 0.57683 0.55844 0.53485 0.0
N3300 N 0.58255 0.59042 0.52879 0.0
C3301 C 0.58645 0.59483 0.51091 0.0
C3302 C 0.58963 0.6299 0.52367 0.0
C3303 C 0.58963 0.6145 0.50801 0.0
H3304 H 0.589 0.56133 0.58184 0.0
H3305 H 0.59199 0.61773 0.49365 0.0
H3306 H 0.59198 0.65615 0.55766 0.0
H3307 H 0.59562 0.5868 0.61202 0.0
H3308 H 0.58644 0.58324 0.49852 0.0
H3309 H 0.51882 0.46876 0.5527 0.0
H3310 H 0.59218 0.64513 0.52142 0.0
H3311 H 0.52363 0.52572 0.46429 0.0
H3312 H 0.5249 0.50335 0.54797 0.0
H3313 H 0.51691 0.50035 0.4341 0.0
H3314 H 0.59312 0.64764 0.59036 0.0
H3315 H 0.51784 0.44132 0.52473 0.0
H3316 H 0.51768 0.43034 0.48844 0.0
H3317 H 0.59515 0.62181 0.61082 0.0
H3318 H 0.51699 0.43901 0.4558 0.0
N3319 N 0.5283 0.49609 0.51759 0.0
C3320 C 0.52456 0.49171 0.53551 0.0
C3321 C 0.52062 0.45657 0.52254 0.0
C3322 C 0.52272 0.46096 0.50393 0.0
C3323 C 0.52107 0.472 0.53832 0.0
C3324 C 0.52635 0.48109 0.50192 0.0
H3325 H 0.51609 0.46508 0.43536 0.0
N3326 N 0.52738 0.50529 0.4827 0.0
C3327 C 0.51956 0.49607 0.44795 0.0
C3328 C 0.52586 0.48589 0.48371 0.0
C3329 C 0.52339 0.51044 0.46517 0.0
C3330 C 0.5192 0.47621 0.44871 0.0
C3331 C 0.52191 0.47081 0.4668 0.0
O3332 O 0.51193 0.53765 0.4997 0.0
O3333 O 0.55019 0.55877 0.52085 0.0
O3334 O 0.55676 0.56297 0.55728 0.0
O3335 O 0.53147 0.53722 0.54384 0.0
O3336 O 0.53657 0.55051 0.49339 0.0
O3337 O 0.50876 0.52184 0.52343 0.0
O3338 O 0.59955 0.54925 0.54671 0.0
O3339 O 0.5609 0.52779 0.52574 0.0
O3340 O 0.55477 0.52264 0.48981 0.0
O3341 O 0.57924 0.54951 0.50249 0.0
O3342 O 0.57486 0.53585 0.55297 0.0
O3343 O 0.60207 0.56403 0.52228 0.0
C3344 C 0.54661 0.56535 0.50545 0.0
C3345 C 0.48228 0.51883 0.50194 0.0
C3346 C 0.45034 0.51963 0.49296 0.0
C3347 C 0.46813 0.52917 0.50185 0.0
C3348 C 0.44682 0.49931 0.4843 0.0
C3349 C 0.4787 0.49861 0.49321 0.0
C3350 C 0.46098 0.4889 0.48443 0.0
C3351 C 0.54019 0.5515 0.55879 0.0
C3352 C 0.50056 0.52986 0.51112 0.0
C3353 C 0.51979 0.45081 0.46862 0.0
C3354 C 0.5202 0.44588 0.4872 0.0
C3355 C 0.56458 0.52108 0.54102 0.0
C3356 C 0.62887 0.56838 0.54363 0.0
C3357 C 0.6435 0.55871 0.54371 0.0
C3358 C 0.66128 0.56908 0.55203 0.0
C3359 C 0.66426 0.58948 0.5602 0.0
C3360 C 0.63193 0.58871 0.55184 0.0
C3361 C 0.64961 0.59919 0.5601 0.0
C3362 C 0.57092 0.53462 0.48788 0.0
C3363 C 0.61064 0.55669 0.53487 0.0
H3364 H 0.47101 0.54473 0.50896 0.0
H3365 H 0.43324 0.49158 0.47724 0.0
H3366 H 0.4895 0.49037 0.4932 0.0
H3367 H 0.45821 0.47329 0.47767 0.0
H3368 H 0.64103 0.54307 0.53699 0.0
H3369 H 0.67781 0.59783 0.56682 0.0
H3370 H 0.62077 0.59644 0.5518 0.0
H3371 H 0.65196 0.61488 0.56645 0.0
Tb3372 Tb 0.08042 0.54848 0.0174 0.0
C3373 C 0.01372 0.50538 0.05315 0.0
C3374 C 0.99995 0.47655 0.02825 0.0
C3375 C 0.99676 0.47525 0.06246 0.0
C3376 C 0.01046 0.49628 0.03378 0.0
C3377 C 0.00652 0.49521 0.06773 0.0
C3378 C 0.99351 0.46591 0.04273 0.0
C3379 C 0.01767 0.52578 0.0913 0.0
N3380 N 0.02299 0.52472 0.05755 0.0
C3381 C 0.02453 0.53522 0.07627 0.0
C3382 C 0.00884 0.50561 0.08706 0.0
Tb3383 Tb 0.03392 0.53887 0.03204 0.0
N3384 N 0.01663 0.50722 0.0203 0.0
C3385 C 0.0115 0.4997 1.00087 0.0
C3386 C 0.99573 0.46836 0.00836 0.0
C3387 C 1.00129 0.48011 0.99462 0.0
H3388 H 0.03139 0.55078 0.0798 0.0
H3389 H 0.99776 0.47409 0.97919 0.0
H3390 H 0.98556 0.45067 0.03879 0.0
H3391 H 0.01924 0.53406 0.10613 0.0
H3392 H 0.01568 0.50847 0.98998 0.0
H3393 H 0.11576 0.61366 0.07033 0.0
H3394 H 0.98776 0.45323 1.00348 0.0
H3395 H 0.08429 0.53651 0.96993 0.0
H3396 H 0.09855 0.57901 0.05951 0.0
H3397 H 0.0959 0.55353 0.94357 0.0
H3398 H 0.99126 0.46709 0.07346 0.0
H3399 H 0.12505 0.6348 0.04608 0.0
H3400 H 0.12697 0.63753 0.01078 0.0
H3401 H 1.00349 0.49835 0.0987 0.0
H3402 H 0.12163 0.62109 0.97612 0.0
N3403 N 0.0973 0.58034 0.0292 0.0
C3404 C 0.10243 0.58789 0.04863 0.0
C3405 C 0.1174 0.61954 0.04119 0.0
C3406 C 0.11324 0.61135 0.02129 0.0
C3407 C 0.11224 0.60763 0.0549 0.0
C3408 C 0.10316 0.59144 0.01574 0.0
H3409 H 0.11033 0.5896 0.9509 0.0
N3410 N 0.09134 0.56282 0.99199 0.0
C3411 C 0.09705 0.56186 0.95835 0.0
C3412 C 0.10009 0.58234 0.99638 0.0
C3413 C 0.09048 0.55226 0.97337 0.0
C3414 C 0.10514 0.58223 0.96253 0.0
C3415 C 0.10707 0.59266 0.98182 0.0
O3416 O 0.09568 0.52751 0.00611 0.0
O3417 O 0.05594 0.52597 0.01995 0.0
O3418 O 0.05065 0.52672 0.05131 0.0
O3419 O 0.07953 0.5463 0.04833 0.0
O3420 O 0.06933 0.52126 0.99556 0.0
O3421 O 0.10497 0.54737 0.03348 0.0
O3422 O 0.01796 0.5588 0.04409 0.0
O3423 O 0.05834 0.56133 0.02943 0.0
O3424 O 0.06378 0.55968 0.99724 0.0
O3425 O 0.03444 0.54136 1.00123 0.0
O3426 O 0.04503 0.56617 0.0538 0.0
O3427 O 0.01027 0.54117 0.01528 0.0
C3428 C 0.05576 0.51342 1.00439 0.0
C3429 C 0.12789 0.53635 0.01491 0.0
C3430 C 0.15761 0.52617 0.01378 0.0
C3431 C 0.13945 0.52391 0.01971 0.0
C3432 C 0.1637 0.54092 1.00272 0.0
C3433 C 0.13461 0.55116 1.00434 0.0
C3434 C 0.15235 0.55335 0.99822 0.0
C3435 C 0.06838 0.5341 0.05732 0.0
C3436 C 0.10871 0.5334 0.02043 0.0
C3437 C 0.11632 0.6128 0.9871 0.0
C3438 C 0.11936 0.62215 0.00683 0.0
C3439 C 0.0585 0.57402 0.04487 0.0
C3440 C 0.98613 0.55043 0.03291 0.0
C3441 C 0.97492 0.56326 0.02826 0.0
C3442 C 0.95605 0.55971 0.03187 0.0
C3443 C 0.9488 0.54333 0.04049 0.0
C3444 C 0.97843 0.53416 0.04129 0.0
C3445 C 0.95991 0.5307 0.04511 0.0
C3446 C 0.04591 0.55277 0.99184 0.0
C3447 C 0.00578 0.55407 0.02894 0.0
H3448 H 0.13432 0.51267 0.02816 0.0
H3449 H 0.17722 0.54278 0.99727 0.0
H3450 H 0.12612 0.56094 1.00064 0.0
H3451 H 0.15729 0.56466 0.98981 0.0
H3452 H 0.9808 0.57575 0.0216 0.0
H3453 H 0.93452 0.54035 0.04388 0.0
H3454 H 0.98671 0.52414 0.04491 0.0
H3455 H 0.95412 0.51816 0.05171 0.0
H3456 H 0.05265 0.16975 0.94957 0.0
H3457 H 0.01748 0.18114 0.99555 0.0
H3458 H 0.05766 0.14074 0.96143 0.0
H3459 H 0.02154 0.15096 0.00667 0.0
H3460 H 0.04236 0.10027 0.03092 0.0
H3461 H 0.03965 0.13234 0.02223 0.0
H3462 H 0.04448 0.10832 0.9619 0.0
H3463 H 0.04783 0.07728 0.9707 0.0
C3464 C 0.04594 0.16628 0.96229 0.0
C3465 C 0.03464 0.17841 0.97143 0.0
C3466 C 0.0486 0.14912 0.969 0.0
C3467 C 0.03989 0.14287 0.98505 0.0
C3468 C 0.02869 0.15503 0.99438 0.0
C3469 C 0.02612 0.17238 0.98773 0.0
C3470 C 0.04321 0.10208 0.0159 0.0
C3471 C 0.0458 0.08617 1.00161 0.0
C3472 C 0.04141 0.12046 0.01079 0.0
C3473 C 0.042 0.12346 0.99122 0.0
C3474 C 0.04444 0.10731 0.97716 0.0
C3475 C 0.04624 0.0892 0.98223 0.0
H3476 H 0.18156 0.84069 0.20471 0.0
H3477 H 0.17816 0.78352 0.16752 0.0
H3478 H 0.20876 0.83672 0.22317 0.0
H3479 H 0.20425 0.77881 0.18694 0.0
H3480 H 0.26153 0.78046 0.21441 0.0
H3481 H 0.23538 0.78577 0.19509 0.0
H3482 H 0.22115 0.82225 0.24615 0.0
H3483 H 0.2479 0.81764 0.26509 0.0
C3484 C 0.18648 0.82722 0.20036 0.0
C3485 C 0.17724 0.81248 0.18437 0.0
C3486 C 0.20209 0.82475 0.2113 0.0
C3487 C 0.20905 0.80734 0.20688 0.0
C3488 C 0.19979 0.79262 0.1909 0.0
C3489 C 0.18437 0.7952 0.17982 0.0
C3490 C 0.25285 0.78968 0.22151 0.0
C3491 C 0.25702 0.79868 0.24137 0.0
C3492 C 0.23761 0.79264 0.2104 0.0
C3493 C 0.22572 0.80448 0.2188 0.0
C3494 C 0.22994 0.81338 0.23877 0.0
C3495 C 0.24535 0.81063 0.2498 0.0
H3496 H 0.55174 0.8869 0.50081 0.0
H3497 H 0.51285 0.88588 0.45223 0.0
H3498 H 0.55533 0.92297 0.51027 0.0
H3499 H 0.51588 0.92157 0.4621 0.0
H3500 H 0.54435 0.98771 0.46883 0.0
H3501 H 0.53783 0.95151 0.46166 0.0
H3502 H 0.54144 0.95091 0.52342 0.0
H3503 H 0.54835 0.98761 0.53052 0.0
C3504 C 0.54387 0.89425 0.49214 0.0
C3505 C 0.532 0.88313 0.47564 0.0
C3506 C 0.54576 0.91503 0.49776 0.0
C3507 C 0.53597 0.92548 0.48699 0.0
C3508 C 0.52389 0.9143 0.47072 0.0
C3509 C 0.52196 0.89359 0.46515 0.0
C3510 C 0.54342 0.97987 0.48092 0.0
C3511 C 0.54652 0.99063 0.50023 0.0
C3512 C 0.53961 0.95898 0.47681 0.0
C3513 C 0.539 0.94796 0.49189 0.0
C3514 C 0.5419 0.95874 0.51135 0.0
C3515 C 0.54561 0.97981 0.51547 0.0
H3516 H 0.48256 0.30601 0.65985 0.0
H3517 H 0.51842 0.31098 0.7121 0.0
H3518 H 0.45598 0.30441 0.67905 0.0
H3519 H 0.49184 0.30812 0.73098 0.0
H3520 H 0.44515 0.32127 0.76512 0.0
H3521 H 0.47046 0.32536 0.74443 0.0
H3522 H 0.43525 0.28476 0.69651 0.0
H3523 H 0.40962 0.28126 0.71733 0.0
C3524 C 0.48487 0.3068 0.67542 0.0
C3525 C 0.50287 0.30871 0.68429 0.0
C3526 C 0.46948 0.3056 0.68645 0.0
C3527 C 0.47156 0.30623 0.70673 0.0
C3528 C 0.48954 0.30796 0.71552 0.0
C3529 C 0.50489 0.30928 0.70455 0.0
C3530 C 0.44274 0.31335 0.7501 0.0
C3531 C 0.42537 0.30082 0.74296 0.0
C3532 C 0.45737 0.31554 0.73822 0.0
C3533 C 0.45523 0.30508 0.71877 0.0
C3534 C 0.43755 0.29316 0.71134 0.0
C3535 C 0.42279 0.29113 0.72326 0.0
H3536 H 0.04207 0.83108 0.56974 0.0
H3537 H 0.02325 0.87697 0.60793 0.0
H3538 H 0.04647 0.852 0.54518 0.0
H3539 H 0.0279 0.89805 0.58354 0.0
H3540 H 0.02117 0.92333 0.5293 0.0
H3541 H 0.01531 0.90037 0.55188 0.0
H3542 H 0.06629 0.8821 0.53949 0.0
H3543 H 0.07191 0.90486 0.5166 0.0
C3544 C 0.03904 0.84573 0.57293 0.0
C3545 C 0.03235 0.85244 0.59073 0.0
C3546 C 0.04156 0.8577 0.55888 0.0
C3547 C 0.03751 0.87666 0.56239 0.0
C3548 C 0.03083 0.88336 0.58023 0.0
C3549 C 0.02822 0.87134 0.59423 0.0
C3550 C 0.03103 0.91426 0.53131 0.0
C3551 C 0.047 0.91584 0.52125 0.0
C3552 C 0.02774 0.90122 0.54432 0.0
C3553 C 0.04042 0.88955 0.54762 0.0
C3554 C 0.05615 0.89072 0.5371 0.0
C3555 C 0.05937 0.90371 0.52399 0.0
H3556 H 0.50624 0.84409 0.85702 0.0
H3557 H 0.50834 0.79926 0.80658 0.0
H3558 H 0.47782 0.84961 0.84225 0.0
H3559 H 0.47982 0.8049 0.79161 0.0
H3560 H 0.41843 0.80757 0.78123 0.0
H3561 H 0.44673 0.80085 0.79524 0.0
H3562 H 0.46844 0.86403 0.81537 0.0
H3563 H 0.43984 0.87069 0.80218 0.0
C3564 C 0.50065 0.8355 0.8427 0.0
C3565 C 0.50958 0.82139 0.83285 0.0
C3566 C 0.4844 0.83869 0.83421 0.0
C3567 C 0.47671 0.82788 0.81565 0.0
C3568 C 0.48537 0.81338 0.80598 0.0
C3569 C 0.50166 0.81014 0.81453 0.0
C3570 C 0.42922 0.82001 0.78874 0.0
C3571 C 0.42686 0.83966 0.7907 0.0
C3572 C 0.4455 0.81617 0.79657 0.0
C3573 C 0.45976 0.8319 0.8065 0.0
C3574 C 0.45757 0.85157 0.80805 0.0
C3575 C 0.44129 0.85541 0.80027 0.0
H3576 H 0.50654 0.16 0.12781 0.0
H3577 H 0.50914 0.1846 0.07516 0.0
H3578 H 0.51521 0.13034 0.11044 0.0
H3579 H 0.51704 0.15457 0.05774 0.0
H3580 H 0.51498 0.08865 0.03106 0.0
H3581 H 0.50308 0.11616 0.04805 0.0
H3582 H 0.54605 0.12648 0.09527 0.0
H3583 H 0.5585 0.09941 0.07802 0.0
C3584 C 0.50876 0.15901 0.11251 0.0
C3585 C 0.50729 0.17474 0.10291 0.0
C3586 C 0.51366 0.14204 0.10262 0.0
C3587 C 0.51687 0.14036 0.08287 0.0
C3588 C 0.51449 0.15554 0.07296 0.0
C3589 C 0.50985 0.17265 0.08292 0.0
C3590 C 0.52211 0.09695 0.04489 0.0
C3591 C 0.53797 0.09215 0.05296 0.0
C3592 C 0.51517 0.11257 0.05466 0.0
C3593 C 0.52369 0.12333 0.07288 0.0
C3594 C 0.5392 0.11823 0.08126 0.0
C3595 C 0.54634 0.10281 0.07134 0.0
H3596 H 0.17458 0.30591 0.30271 0.0
H3597 H 0.20372 0.34425 0.35542 0.0
H3598 H 0.20346 0.30914 0.28723 0.0
H3599 H 0.23264 0.34757 0.33992 0.0
H3600 H 0.2803 0.31891 0.31671 0.0
H3601 H 0.25219 0.32439 0.33108 0.0
H3602 H 0.22896 0.33045 0.27496 0.0
H3603 H 0.2574 0.32484 0.26063 0.0
C3604 C 0.18717 0.31508 0.31094 0.0
C3605 C 0.18697 0.3246 0.33034 0.0
C3606 C 0.20369 0.31707 0.30203 0.0
C3607 C 0.2204 0.32833 0.31246 0.0
C3608 C 0.22004 0.33853 0.33161 0.0
C3609 C 0.20348 0.33673 0.34044 0.0
C3610 C 0.2692 0.32161 0.30756 0.0
C3611 C 0.27058 0.32092 0.28755 0.0
C3612 C 0.25319 0.32495 0.31578 0.0
C3613 C 0.23828 0.32773 0.30412 0.0
C3614 C 0.24013 0.32808 0.28423 0.0
C3615 C 0.25629 0.32487 0.27603 0.0
H3616 H 0.01493 0.06421 0.1843 0.0
H3617 H 0.96293 0.06394 0.15369 0.0
H3618 H 0.02906 0.06109 0.15332 0.0
H3619 H 0.97703 0.06062 0.12268 0.0
H3620 H 1.00401 0.03559 0.0664 0.0
H3621 H 0.98958 0.0391 0.09725 0.0
H3622 H 0.04044 0.07735 0.12638 0.0
H3623 H 0.05455 0.07436 0.09545 0.0
C3624 C 0.00631 0.06341 0.17107 0.0
C3625 C 0.98746 0.06443 0.17224 0.0
C3626 C 0.0146 0.06174 0.15299 0.0
C3627 C 1.00451 0.06053 0.13479 0.0
C3628 C 0.98561 0.06132 0.13592 0.0
C3629 C 0.97742 0.06342 0.15405 0.0
C3630 C 0.01224 0.04489 0.07927 0.0
C3631 C 0.03083 0.05459 0.07776 0.0
C3632 C 1.00381 0.04698 0.09726 0.0
C3633 C 0.01355 0.05852 0.11504 0.0
C3634 C 0.03216 0.0681 0.11352 0.0
C3635 C 0.04042 0.0664 0.09543 0.0
H3636 H 0.29376 0.74099 0.45131 0.0
H3637 H 0.29422 0.68577 0.41247 0.0
H3638 H 0.28404 0.75453 0.42371 0.0
H3639 H 0.28517 0.6996 0.38468 0.0
H3640 H 0.24111 0.72048 0.34876 0.0
H3641 H 0.25618 0.70757 0.37391 0.0
H3642 H 0.29293 0.7654 0.39368 0.0
H3643 H 0.27732 0.77856 0.36914 0.0
C3644 C 0.2921 0.7319 0.4368 0.0
C3645 C 0.29459 0.7123 0.43402 0.0
C3646 C 0.28671 0.7397 0.42098 0.0
C3647 C 0.28374 0.72806 0.40205 0.0
C3648 C 0.28715 0.70881 0.39915 0.0
C3649 C 0.29254 0.70099 0.415 0.0
C3650 C 0.25233 0.73045 0.35855 0.0
C3651 C 0.25785 0.75058 0.35713 0.0
C3652 C 0.26117 0.72299 0.37274 0.0
C3653 C 0.27573 0.7355 0.38577 0.0
C3654 C 0.28163 0.75547 0.38396 0.0
C3655 C 0.27277 0.76295 0.3698 0.0
H3656 H 0.65591 0.02559 0.63228 0.0
H3657 H 0.60987 0.01419 0.66724 0.0
H3658 H 0.63484 0.0274 0.60531 0.0
H3659 H 0.58853 0.01447 0.63963 0.0
H3660 H 0.56103 0.04311 0.59412 0.0
H3661 H 0.57959 0.03753 0.62172 0.0
H3662 H 0.6117 0.00757 0.58143 0.0
H3663 H 0.59361 0.01403 0.55414 0.0
C3664 C 0.64127 0.02332 0.63417 0.0
C3665 C 0.63459 0.01982 0.65193 0.0
C3666 C 0.62912 0.02402 0.61858 0.0
C3667 C 0.60996 0.0209 0.62026 0.0
C3668 C 0.60323 0.01708 0.63792 0.0
C3669 C 0.61543 0.01664 0.65364 0.0
C3670 C 0.5718 0.03497 0.59133 0.0
C3671 C 0.57603 0.02892 0.57227 0.0
C3672 C 0.58244 0.03176 0.60705 0.0
C3673 C 0.59728 0.0223 0.60377 0.0
C3674 C 0.60069 0.01532 0.58448 0.0
C3675 C 0.59028 0.01883 0.56888 0.0
H3676 H 0.28995 0.35823 0.92159 0.0
H3677 H 0.32802 0.32136 0.93174 0.0
H3678 H 0.29021 0.34781 0.88657 0.0
H3679 H 0.32855 0.31119 0.89631 0.0
H3680 H 0.30563 0.28441 0.82875 0.0
H3681 H 0.30769 0.29203 0.86478 0.0
H3682 H 0.31361 0.35445 0.86333 0.0
H3683 H 0.31164 0.34688 0.82787 0.0
C3684 C 0.29824 0.34771 0.9164 0.0
C3685 C 0.30893 0.34065 0.92964 0.0
C3686 C 0.29855 0.34189 0.89623 0.0
C3687 C 0.30954 0.32878 0.88856 0.0
C3688 C 0.31991 0.32126 0.90171 0.0
C3689 C 0.31971 0.32723 0.92201 0.0
C3690 C 0.30782 0.29976 0.83626 0.0
C3691 C 0.30866 0.3151 0.82554 0.0
C3692 C 0.30891 0.30414 0.85685 0.0
C3693 C 0.31049 0.32384 0.86695 0.0
C3694 C 0.31202 0.33909 0.85609 0.0
C3695 C 0.31103 0.33477 0.83575 0.0
H3696 H 0.97308 0.07884 0.39876 0.0
H3697 H 0.01111 0.04873 0.36814 0.0
H3698 H 0.9869 0.07466 0.42968 0.0
H3699 H 0.02473 0.04412 0.39926 0.0
H3700 H 0.05593 0.05201 0.4631 0.0
H3701 H 0.04352 0.05539 0.43056 0.0
H3702 H 0.98989 0.05428 0.45174 0.0
H3703 H 1.00214 0.05089 0.48354 0.0
C3704 C 0.98443 0.07134 0.39835 0.0
C3705 C 0.99057 0.06424 0.3801 0.0
C3706 C 0.99241 0.06865 0.41649 0.0
C3707 C 0.00721 0.05876 0.41779 0.0
C3708 C 0.01356 0.05188 0.39958 0.0
C3709 C 1.00544 0.05442 0.38135 0.0
C3710 C 0.04143 0.05219 0.46077 0.0
C3711 C 0.03019 0.05091 0.47651 0.0
C3712 C 0.03417 0.05424 0.44187 0.0
C3713 C 0.01542 0.05554 0.43782 0.0
C3714 C 1.00438 0.05393 0.45362 0.0
C3715 C 0.01151 0.05173 0.47219 0.0
H3716 H 0.32775 0.73555 0.61981 0.0
H3717 H 0.26915 0.70874 0.61526 0.0
H3718 H 0.32526 0.7554 0.65154 0.0
H3719 H 0.26688 0.72821 0.64724 0.0
H3720 H 0.28082 0.74314 0.71499 0.0
H3721 H 0.27999 0.72719 0.68108 0.0
H3722 H 0.30954 0.78264 0.66768 0.0
H3723 H 0.31001 0.7989 0.70169 0.0
C3724 C 0.31431 0.73407 0.62543 0.0
C3725 C 0.29869 0.72039 0.61509 0.0
C3726 C 0.3129 0.74544 0.64359 0.0
C3727 C 0.29589 0.74325 0.65179 0.0
C3728 C 0.28019 0.72999 0.64128 0.0
C3729 C 0.28155 0.71876 0.62306 0.0
C3730 C 0.28697 0.75208 0.70485 0.0
C3731 C 0.29598 0.7722 0.71119 0.0
C3732 C 0.2864 0.74292 0.68538 0.0
C3733 C 0.29487 0.75366 0.67186 0.0
C3734 C 0.30316 0.77398 0.67794 0.0
C3735 C 0.3035 0.78324 0.69741 0.0
H3736 H 0.64762 0.07133 0.83578 0.0
H3737 H 0.62388 0.00803 0.8226 0.0
H3738 H 0.62665 0.0755 0.86117 0.0
H3739 H 0.60318 0.01212 0.84832 0.0
H3740 H 0.55477 0.03183 0.87846 0.0
H3741 H 0.57622 0.02787 0.85349 0.0
H3742 H 0.62105 0.06636 0.89343 0.0
H3743 H 0.59953 0.07075 0.91819 0.0
C3744 C 0.63794 0.05832 0.8384 0.0
C3745 C 0.63727 0.03938 0.82724 0.0
C3746 C 0.62608 0.06068 0.85299 0.0
C3747 C 0.61327 0.04413 0.85661 0.0
C3748 C 0.61279 0.02514 0.84565 0.0
C3749 C 0.62474 0.02277 0.83111 0.0
C3750 C 0.56916 0.03962 0.88177 0.0
C3751 C 0.57551 0.05161 0.90019 0.0
C3752 C 0.58145 0.03717 0.86761 0.0
C3753 C 0.60028 0.04674 0.8716 0.0
C3754 C 0.60658 0.05892 0.88995 0.0
C3755 C 0.59431 0.06131 0.90413 0.0
H3756 H 0.28979 0.32025 0.11824 0.0
H3757 H 0.32488 0.37651 0.14737 0.0
H3758 H 0.2876 0.30932 0.14923 0.0
H3759 H 0.32408 0.36484 0.17799 0.0
H3760 H 0.30672 0.34678 0.23469 0.0
H3761 H 0.30724 0.35824 0.2037 0.0
H3762 H 0.30236 0.29771 0.17313 0.0
H3763 H 0.30141 0.2865 0.20418 0.0
C3764 C 0.29711 0.33037 0.13117 0.0
C3765 C 0.30752 0.34939 0.12996 0.0
C3766 C 0.29611 0.32389 0.14907 0.0
C3767 C 0.3057 0.33605 0.16642 0.0
C3768 C 0.3162 0.35502 0.16519 0.0
C3769 C 0.31697 0.36162 0.14736 0.0
C3770 C 0.30579 0.33598 0.22131 0.0
C3771 C 0.30383 0.31571 0.22188 0.0
C3772 C 0.30615 0.34253 0.20344 0.0
C3773 C 0.30487 0.329 0.18559 0.0
C3774 C 0.30296 0.30865 0.18633 0.0
C3775 C 0.30236 0.30213 0.20419 0.0
H3776 H 0.24663 0.01235 0.00959 0.0
H3777 H 0.23496 0.9897 0.06233 0.0
H3778 H 0.2242 0.03311 0.01594 0.0
H3779 H 0.2131 0.01102 0.06908 0.0
H3780 H 0.15937 0.03251 0.06 0.0
H3781 H 0.1828 0.01289 0.05544 0.0
H3782 H 0.22003 0.06243 0.03895 0.0
H3783 H 0.19622 0.08185 0.04281 0.0
C3784 C 0.23924 0.0118 0.02251 0.0
C3785 C 0.24249 0.9994 0.03545 0.0
C3786 C 0.22662 0.02388 0.02629 0.0
C3787 C 0.21699 0.02376 0.04306 0.0
C3788 C 0.22024 0.01133 0.05597 0.0
C3789 C 0.23285 0.99926 0.0522 0.0
C3790 C 0.17259 0.03922 0.05545 0.0
C3791 C 0.17597 0.05865 0.05163 0.0
C3792 C 0.18605 0.02805 0.053 0.0
C3793 C 0.2032 0.03611 0.04676 0.0
C3794 C 0.20682 0.05577 0.04354 0.0
C3795 C 0.19332 0.06696 0.04598 0.0
H3796 H 0.69728 0.6166 0.97605 0.0
H3797 H 0.70317 0.63424 0.0388 0.0
H3798 H 0.66564 0.59799 0.97718 0.0
H3799 H 0.67199 0.61511 0.04014 0.0
H3800 H 0.61009 0.59778 0.03691 0.0
H3801 H 0.64118 0.61565 0.03409 0.0
H3802 H 0.64583 0.57016 0.98518 0.0
H3803 H 0.61396 0.55288 0.98723 0.0
C3804 C 0.69187 0.61629 0.99011 0.0
C3805 C 0.70266 0.62708 0.00732 0.0
C3806 C 0.67372 0.60554 0.99079 0.0
C3807 C 0.66599 0.6051 0.00874 0.0
C3808 C 0.67711 0.61547 0.02597 0.0
C3809 C 0.69509 0.62641 0.02524 0.0
C3810 C 0.61764 0.59151 0.02547 0.0
C3811 C 0.6095 0.57356 0.01253 0.0
C3812 C 0.63568 0.60175 0.02398 0.0
C3813 C 0.64638 0.59428 0.00965 0.0
C3814 C 0.63812 0.5765 0.99641 0.0
C3815 C 0.61986 0.56638 0.99773 0.0
H3816 H 0.73552 0.41376 0.23963 0.0
H3817 H 0.73414 0.4233 0.30203 0.0
H3818 H 0.75145 0.38678 0.24102 0.0
H3819 H 0.7501 0.3968 0.3035 0.0
H3820 H 0.76962 0.33946 0.30498 0.0
H3821 H 0.75497 0.3667 0.3025 0.0
H3822 H 0.77306 0.3678 0.245 0.0
H3823 H 0.78736 0.33937 0.24748 0.0
C3824 C 0.73857 0.41044 0.25382 0.0
C3825 C 0.73285 0.42151 0.27067 0.0
C3826 C 0.74797 0.39452 0.25464 0.0
C3827 C 0.75247 0.38844 0.27238 0.0
C3828 C 0.74696 0.39977 0.2892 0.0
C3829 C 0.73751 0.41554 0.28837 0.0
C3830 C 0.77076 0.34546 0.29172 0.0
C3831 C 0.78028 0.33671 0.27667 0.0
C3832 C 0.7622 0.36165 0.29028 0.0
C3833 C 0.7624 0.37064 0.27356 0.0
C3834 C 0.77205 0.36193 0.25831 0.0
C3835 C 0.78064 0.34543 0.25976 0.0
H3836 H 0.92217 0.45745 0.53031 0.0
H3837 H 0.91467 0.5167 0.52834 0.0
H3838 H 0.95523 0.46874 0.52879 0.0
H3839 H 0.94768 0.52768 0.5255 0.0
H3840 H 0.00973 0.54606 0.54358 0.0
H3841 H 0.97651 0.53462 0.54517 0.0
H3842 H 0.97757 0.47898 0.50716 0.0
H3843 H 0.01107 0.49038 0.50637 0.0
C3844 C 0.92757 0.47292 0.52963 0.0
C3845 C 0.91576 0.48624 0.52971 0.0
C3846 C 0.94652 0.4793 0.5284 0.0
C3847 C 0.95412 0.49911 0.52703 0.0
C3848 C 0.9423 0.51238 0.52684 0.0
C3849 C 0.92334 0.50604 0.52824 0.0
C3850 C 1.00272 0.53147 0.53545 0.0
C3851 C 0.01259 0.51922 0.52441 0.0
C3852 C 0.98375 0.52491 0.53633 0.0
C3853 C 0.97433 0.50595 0.52615 0.0
C3854 C 0.98442 0.49358 0.51532 0.0
C3855 C 1.00349 0.50011 0.51467 0.0
H3856 H 0.36109 0.11912 0.25561 0.0
H3857 H 0.32784 0.10047 0.30076 0.0
H3858 H 0.33797 0.1363 0.24564 0.0
H3859 H 0.30454 0.1176 0.29068 0.0
H3860 H 0.28383 0.17439 0.2834 0.0
H3861 H 0.3025 0.15191 0.29191 0.0
H3862 H 0.30639 0.1307 0.23064 0.0
H3863 H 0.28831 0.15394 0.22218 0.0
C3864 C 0.3487 0.11851 0.26323 0.0
C3865 C 0.34623 0.10852 0.27896 0.0
C3866 C 0.33542 0.12824 0.25746 0.0
C3867 C 0.31938 0.12813 0.26727 0.0
C3868 C 0.31684 0.11802 0.28294 0.0
C3869 C 0.33018 0.10832 0.28875 0.0
C3870 C 0.28851 0.16474 0.27175 0.0
C3871 C 0.28487 0.16604 0.25215 0.0
C3872 C 0.29905 0.15175 0.27661 0.0
C3873 C 0.30604 0.1397 0.26194 0.0
C3874 C 0.30139 0.14007 0.24225 0.0
C3875 C 0.29088 0.15316 0.23739 0.0
H3876 H 0.39305 0.15379 0.54099 0.0
H3877 H 0.36519 0.11107 0.49019 0.0
H3878 H 0.41581 0.13373 0.54392 0.0
H3879 H 0.38853 0.09167 0.49246 0.0
H3880 H 0.41817 0.04902 0.51695 0.0
H3881 H 0.39702 0.07019 0.512 0.0
H3882 H 0.44156 0.12233 0.53038 0.0
H3883 H 0.46264 0.10097 0.53626 0.0
C3884 C 0.39178 0.14017 0.53038 0.0
C3885 C 0.37709 0.13406 0.51543 0.0
C3886 C 0.40505 0.12878 0.5319 0.0
C3887 C 0.40407 0.11096 0.51847 0.0
C3888 C 0.38964 0.10511 0.50326 0.0
C3889 C 0.37633 0.11643 0.5018 0.0
C3890 C 0.42349 0.065 0.52004 0.0
C3891 C 0.4421 0.07325 0.52726 0.0
C3892 C 0.41136 0.0772 0.51694 0.0
C3893 C 0.41747 0.09807 0.52082 0.0
C3894 C 0.43625 0.10635 0.52749 0.0
C3895 C 0.44842 0.09409 0.53063 0.0
H3896 H 0.7144 0.63563 0.25818 0.0
H3897 H 0.75867 0.62984 0.29797 0.0
H3898 H 0.72996 0.66936 0.25834 0.0
H3899 H 0.77337 0.66435 0.29958 0.0
H3900 H 0.80501 0.72605 0.29254 0.0
H3901 H 0.79033 0.69133 0.29142 0.0
H3902 H 0.73876 0.70177 0.26843 0.0
H3903 H 0.75401 0.73586 0.26819 0.0
C3904 C 0.72743 0.64121 0.26709 0.0
C3905 C 0.73486 0.62886 0.27793 0.0
C3906 C 0.73643 0.66131 0.2675 0.0
C3907 C 0.7533 0.67064 0.27911 0.0
C3908 C 0.76069 0.65839 0.2901 0.0
C3909 C 0.75185 0.63814 0.28941 0.0
C3910 C 0.79064 0.7209 0.2869 0.0
C3911 C 0.78109 0.7342 0.28009 0.0
C3912 C 0.7819 0.70068 0.2865 0.0
C3913 C 0.76294 0.6927 0.27967 0.0
C3914 C 0.75334 0.70633 0.27335 0.0
C3915 C 0.76219 0.7264 0.27341 0.0
H3916 H 0.89179 0.42765 0.76186 0.0
H3917 H 0.84317 0.44236 0.78676 0.0
H3918 H 0.87624 0.39271 0.75448 0.0
H3919 H 0.82808 0.40713 0.78065 0.0
H3920 H 0.79979 0.34392 0.75125 0.0
H3921 H 0.81461 0.37931 0.75508 0.0
H3922 H 0.86725 0.36641 0.77145 0.0
H3923 H 0.85235 0.33111 0.76696 0.0
C3924 C 0.87774 0.42346 0.7657 0.0
C3925 C 0.86869 0.43784 0.77483 0.0
C3926 C 0.86893 0.40337 0.76173 0.0
C3927 C 0.85098 0.39713 0.76709 0.0
C3928 C 0.84186 0.41148 0.77615 0.0
C3929 C 0.8506 0.43164 0.77991 0.0
C3930 C 0.8145 0.34888 0.75575 0.0
C3931 C 0.82495 0.33531 0.75962 0.0
C3932 C 0.82297 0.36901 0.75797 0.0
C3933 C 0.84206 0.37569 0.76378 0.0
C3934 C 0.85256 0.36176 0.76683 0.0
C3935 C 0.84407 0.34166 0.76457 0.0
H3936 H 0.08909 0.93033 0.102 0.0
H3937 H 0.06694 0.89458 0.0456 0.0
H3938 H 0.08487 0.95997 0.09065 0.0
H3939 H 0.06228 0.9245 0.03416 0.0
H3940 H 0.06954 0.98718 0.01518 0.0
H3941 H 0.07328 0.95556 0.02416 0.0
H3942 H 0.0641 0.97808 0.08361 0.0
H3943 H 0.06111 0.00924 0.07475 0.0
C3944 C 0.08305 0.92862 0.08719 0.0
C3945 C 0.07823 0.90961 0.07497 0.0
C3946 C 0.08052 0.94587 0.08056 0.0
C3947 C 0.07283 0.94509 0.06138 0.0
C3948 C 0.06832 0.92611 0.04896 0.0
C3949 C 0.071 0.90877 0.0556 0.0
C3950 C 0.06811 0.98518 0.03008 0.0
C3951 C 0.0648 1.00085 0.04417 0.0
C3952 C 0.07031 0.96698 0.03534 0.0
C3953 C 0.06942 0.96394 0.05488 0.0
C3954 C 0.06557 0.97959 0.0686 0.0
C3955 C 0.06357 0.9976 0.06343 0.0
H3956 H 0.94763 0.2939 0.84448 0.0
H3957 H 0.91305 0.25026 0.87113 0.0
H3958 H 0.92042 0.29693 0.82482 0.0
H3959 H 0.88571 0.2535 0.85161 0.0
H3960 H 0.83964 0.2837 0.82904 0.0
H3961 H 0.8667 0.27972 0.84854 0.0
H3962 H 0.8967 0.27643 0.79732 0.0
H3963 H 0.86965 0.28031 0.77793 0.0
C3964 C 0.93421 0.28496 0.8462 0.0
C3965 C 0.93266 0.27181 0.85948 0.0
C3966 C 0.91857 0.28662 0.8348 0.0
C3967 C 0.90074 0.2755 0.83656 0.0
C3968 C 0.89915 0.26241 0.84991 0.0
C3969 C 0.91487 0.26043 0.86101 0.0
C3970 C 0.852 0.28203 0.82195 0.0
C3971 C 0.85231 0.28192 0.80181 0.0
C3972 C 0.8675 0.27964 0.83311 0.0
C3973 C 0.88397 0.27761 0.82456 0.0
C3974 C 0.88433 0.27791 0.80446 0.0
C3975 C 0.8687 0.27987 0.79324 0.0
H3976 H 0.55564 0.19549 0.59174 0.0
H3977 H 0.59278 0.20472 0.54711 0.0
H3978 H 0.55257 0.15973 0.58263 0.0
H3979 H 0.59004 0.1686 0.53824 0.0
H3980 H 0.5626 0.09924 0.51627 0.0
H3981 H 0.56849 0.1359 0.52341 0.0
H3982 H 0.57032 0.13518 0.5851 0.0
H3983 H 0.56451 0.09899 0.57793 0.0
C3984 C 0.5631 0.18996 0.57986 0.0
C3985 C 0.5744 0.2033 0.57017 0.0
C3986 C 0.56153 0.16929 0.57476 0.0
C3987 C 0.57116 0.16101 0.55972 0.0
C3988 C 0.58232 0.17427 0.54982 0.0
C3989 C 0.58402 0.19508 0.55505 0.0
C3990 C 0.56472 0.10699 0.53133 0.0
C3991 C 0.56329 0.09612 0.54655 0.0
C3992 C 0.568 0.12805 0.53547 0.0
C3993 C 0.56959 0.13872 0.55489 0.0
C3994 C 0.56878 0.12769 0.56996 0.0
C3995 C 0.56562 0.10685 0.56586 0.0
H3996 H 0.60271 0.74625 0.35089 0.0
H3997 H 0.61898 0.80937 0.37433 0.0
H3998 H 0.63009 0.74857 0.33282 0.0
H3999 H 0.64616 0.81177 0.35587 0.0
H4000 H 0.70191 0.80661 0.33181 0.0
H4001 H 0.67639 0.80247 0.35284 0.0
H4002 H 0.64119 0.76207 0.30488 0.0
H4003 H 0.66658 0.76608 0.28417 0.0
C4004 C 0.61216 0.76063 0.35231 0.0
C4005 C 0.60847 0.77762 0.3641 0.0
C4006 C 0.62784 0.762 0.34178 0.0
C4007 C 0.64043 0.78038 0.34278 0.0
C4008 C 0.63693 0.79732 0.35483 0.0
C4009 C 0.62116 0.79598 0.36526 0.0
C4010 C 0.68881 0.79659 0.32593 0.0
C4011 C 0.68629 0.78673 0.30628 0.0
C4012 C 0.6741 0.79437 0.33789 0.0
C4013 C 0.6566 0.782 0.33059 0.0
C4014 C 0.65442 0.77158 0.31115 0.0
C4015 C 0.66899 0.77397 0.2992 0.0
H4016 H 0.05792 0.21493 0.43397 0.0
H4017 H 0.10926 0.24668 0.46818 0.0
H4018 H 0.05141 0.19391 0.45822 0.0
H4019 H 0.10298 0.22502 0.49191 0.0
H4020 H 0.09233 0.1659 0.51621 0.0
H4021 H 0.09945 0.1878 0.49265 0.0
H4022 H 0.04465 0.19955 0.49431 0.0
H4023 H 0.03752 0.17761 0.5179 0.0
C4024 C 0.06781 0.21749 0.44663 0.0
C4025 C 0.08409 0.23261 0.44911 0.0
C4026 C 0.06408 0.2054 0.46047 0.0
C4027 C 0.07665 0.20796 0.47694 0.0
C4028 C 0.09312 0.22269 0.47925 0.0
C4029 C 0.09675 0.23499 0.46556 0.0
C4030 C 0.08189 0.1733 0.51163 0.0
C4031 C 0.06442 0.17019 0.5189 0.0
C4032 C 0.08597 0.18585 0.49823 0.0
C4033 C 0.07257 0.19527 0.49167 0.0
C4034 C 0.05516 0.19232 0.49907 0.0
C4035 C 0.05116 0.17997 0.51268 0.0
H4036 H 0.58847 0.25198 0.23399 0.0
H4037 H 0.62127 0.29552 0.20548 0.0
H4038 H 0.61672 0.24497 0.2477 0.0
H4039 H 0.64951 0.28883 0.21972 0.0
H4040 H 0.69562 0.28226 0.26347 0.0
H4041 H 0.66726 0.29127 0.25268 0.0
H4042 H 0.64153 0.22906 0.23226 0.0
H4043 H 0.66999 0.21998 0.24244 0.0
C4044 C 0.60169 0.26012 0.23071 0.0
C4045 C 0.6026 0.27417 0.21846 0.0
C4046 C 0.61783 0.25613 0.23861 0.0
C4047 C 0.63523 0.26626 0.23463 0.0
C4048 C 0.63624 0.28092 0.22312 0.0
C4049 C 0.62006 0.28479 0.21504 0.0
C4050 C 0.68397 0.27049 0.25654 0.0
C4051 C 0.68511 0.25037 0.25375 0.0
C4052 C 0.66774 0.27568 0.25045 0.0
C4053 C 0.65225 0.26086 0.2417 0.0
C4054 C 0.65322 0.24076 0.23923 0.0
C4055 C 0.6695 0.23557 0.24512 0.0
H4056 H 0.62475 0.91705 0.9744 0.0
H4057 H 0.59188 0.91965 0.92237 0.0
H4058 H 0.61619 0.94695 0.99149 0.0
H4059 H 0.58316 0.94921 0.93941 0.0
H4060 H 0.58138 0.01083 0.97169 0.0
H4061 H 0.59398 0.98393 0.95415 0.0
H4062 H 0.588 0.95442 1.00359 0.0
H4063 H 0.57553 0.98125 0.02087 0.0
C4064 C 0.61583 0.92412 0.96661 0.0
C4065 C 0.60904 0.91611 0.94708 0.0
C4066 C 0.61088 0.94115 0.97637 0.0
C4067 C 0.59894 0.95036 0.9668 0.0
C4068 C 0.59262 0.94266 0.94709 0.0
C4069 C 0.59763 0.92573 0.93733 0.0
C4070 C 0.58277 0.99853 0.97871 0.0
C4071 C 0.5778 0.99817 0.99774 0.0
C4072 C 0.58999 0.98319 0.96873 0.0
C4073 C 0.59217 0.96717 0.97759 0.0
C4074 C 0.58699 0.96682 0.99658 0.0
C4075 C 0.57989 0.9822 0.00654 0.0
H4076 H 0.92407 0.75556 0.71231 0.0
H4077 H 0.92965 0.81858 0.71469 0.0
H4078 H 0.8937 0.75322 0.72433 0.0
H4079 H 0.89954 0.81661 0.7276 0.0
H4080 H 0.83749 0.80283 0.73187 0.0
H4081 H 0.8677 0.80532 0.7195 0.0
H4082 H 0.87819 0.76048 0.7514 0.0
H4083 H 0.84748 0.75752 0.76289 0.0
C4084 C 0.91886 0.76898 0.71577 0.0
C4085 C 0.92914 0.78726 0.71271 0.0
C4086 C 0.90148 0.76771 0.72275 0.0
C4087 C 0.89414 0.78476 0.72714 0.0
C4088 C 0.9046 0.80311 0.72418 0.0
C4089 C 0.92188 0.80431 0.71689 0.0
C4090 C 0.8464 0.79381 0.73649 0.0
C4091 C 0.84071 0.7808 0.74922 0.0
C4092 C 0.86376 0.7952 0.72938 0.0
C4093 C 0.87561 0.78332 0.73463 0.0
C4094 C 0.86947 0.76977 0.74686 0.0
C4095 C 0.85203 0.76828 0.75375 0.0
H4096 H 0.133 0.0552 0.88231 0.0
H4097 H 0.11072 0.9918 0.87076 0.0
H4098 H 0.11866 0.05831 0.91278 0.0
H4099 H 0.0971 0.99478 0.90173 0.0
H4100 H 0.0627 1.00448 0.95477 0.0
H4101 H 0.07632 1.00125 0.92362 0.0
H4102 H 0.11539 0.05718 0.94471 0.0
H4103 H 0.10121 0.06059 0.97543 0.0
C4104 C 0.12507 0.04173 0.88598 0.0
C4105 C 0.12342 0.02316 0.87307 0.0
C4106 C 0.11683 0.04352 0.90408 0.0
C4107 C 0.10633 0.02688 0.91073 0.0
C4108 C 0.10467 0.00831 0.89783 0.0
C4109 C 0.1129 1.00652 0.8797 0.0
C4110 C 0.07406 0.01628 0.95282 0.0
C4111 C 0.08037 0.03297 0.96821 0.0
C4112 C 0.08223 0.01432 0.93466 0.0
C4113 C 0.09736 0.0289 0.93066 0.0
C4114 C 0.10374 0.04551 0.94624 0.0
C4115 C 0.09553 0.04746 0.96435 0.0
H4116 H 0.80601 0.40195 0.62928 0.0
H4117 H 0.81572 0.35053 0.59049 0.0
H4118 H 0.81047 0.3863 0.65713 0.0
H4119 H 0.82145 0.33555 0.61827 0.0
H4120 H 0.82393 0.30712 0.66914 0.0
H4121 H 0.80976 0.32077 0.64414 0.0
H4122 H 0.83666 0.38035 0.67409 0.0
H4123 H 0.84963 0.36674 0.69991 0.0
C4124 C 0.80883 0.38719 0.62667 0.0
C4125 C 0.81073 0.37756 0.60772 0.0
C4126 C 0.81162 0.37834 0.64265 0.0
C4127 C 0.81652 0.35977 0.63998 0.0
C4128 C 0.8175 0.34975 0.62091 0.0
C4129 C 0.8145 0.35848 0.60497 0.0
C4130 C 0.8264 0.32315 0.67072 0.0
C4131 C 0.83814 0.33584 0.6864 0.0
C4132 C 0.81845 0.33098 0.65622 0.0
C4133 C 0.8223 0.35164 0.65692 0.0
C4134 C 0.83328 0.36437 0.67312 0.0
C4135 C 0.84101 0.35655 0.68777 0.0
H4136 H 0.50363 0.07158 0.37794 0.0
H4137 H 0.46195 0.082 0.41696 0.0
H4138 H 0.52402 0.06872 0.40549 0.0
H4139 H 0.48221 0.07884 0.44431 0.0
H4140 H 0.50719 0.0363 0.47451 0.0
H4141 H 0.49123 0.04582 0.44795 0.0
H4142 H 0.54112 0.08751 0.44063 0.0
H4143 H 0.5574 0.07826 0.46789 0.0
C4144 C 0.49906 0.07384 0.39246 0.0
C4145 C 0.48114 0.07679 0.39534 0.0
C4146 C 0.51071 0.07218 0.40816 0.0
C4147 C 0.50451 0.07335 0.42684 0.0
C4148 C 0.48714 0.07766 0.42992 0.0
C4149 C 0.47557 0.0794 0.41431 0.0
C4150 C 0.5149 0.04752 0.46738 0.0
C4151 C 0.53358 0.05662 0.47344 0.0
C4152 C 0.50567 0.05302 0.4522 0.0
C4153 C 0.51491 0.06761 0.44258 0.0
C4154 C 0.53375 0.07628 0.44801 0.0
C4155 C 0.54303 0.07093 0.4635 0.0
H4156 H 0.82131 0.72861 0.12792 0.0
H4157 H 0.78611 0.76822 0.11718 0.0
H4158 H 0.82047 0.73884 0.16283 0.0
H4159 H 0.78486 0.77811 0.15251 0.0
H4160 H 0.79893 0.7409 0.22116 0.0
H4161 H 0.79712 0.73339 0.18573 0.0
H4162 H 0.80468 0.79602 0.18442 0.0
H4163 H 0.80639 0.80354 0.22043 0.0
C4164 C 0.81351 0.73967 0.13295 0.0
C4165 C 0.80383 0.74758 0.11954 0.0
C4166 C 0.81283 0.74537 0.15308 0.0
C4167 C 0.80242 0.75917 0.16057 0.0
C4168 C 0.79303 0.76749 0.14728 0.0
C4169 C 0.79363 0.76167 0.12701 0.0
C4170 C 0.79989 0.75308 0.21331 0.0
C4171 C 0.80262 0.77277 0.22356 0.0
C4172 C 0.79902 0.74879 0.19298 0.0
C4173 C 0.80112 0.7641 0.18215 0.0
C4174 C 0.80301 0.78385 0.1923 0.0
C4175 C 0.80391 0.78818 0.21289 0.0
H4176 H 0.09454 0.00747 0.66885 0.0
H4177 H 0.14727 0.04145 0.65798 0.0
H4178 H 0.0807 0.01225 0.63792 0.0
H4179 H 0.13341 0.0468 0.62776 0.0
H4180 H 0.11059 0.03952 0.56404 0.0
H4181 H 0.12294 0.03594 0.59569 0.0
H4182 H 0.06844 0.03002 0.61574 0.0
H4183 H 0.05593 0.03331 0.58322 0.0
C4184 C 0.1034 0.01597 0.66008 0.0
C4185 C 0.12245 0.02391 0.66681 0.0
C4186 C 0.09523 0.01896 0.64205 0.0
C4187 C 0.10555 0.02995 0.62941 0.0
C4188 C 0.12453 0.03794 0.63624 0.0
C4189 C 0.13265 0.03503 0.65421 0.0
C4190 C 0.10109 0.03774 0.57517 0.0
C4191 C 0.08211 0.0371 0.57052 0.0
C4192 C 0.10833 0.03571 0.59378 0.0
C4193 C 0.09711 0.03269 0.60924 0.0
C4194 C 0.07795 0.03214 0.6047 0.0
C4195 C 0.07064 0.03429 0.58586 0.0
H4196 H 0.78174 0.3523 0.42271 0.0
H4197 H 0.84154 0.36572 0.43273 0.0
H4198 H 0.78338 0.33119 0.39133 0.0
H4199 H 0.84304 0.34535 0.401 0.0
H4200 H 0.83198 0.33862 0.33232 0.0
H4201 H 0.83255 0.35294 0.36667 0.0
H4202 H 0.79646 0.29888 0.37573 0.0
H4203 H 0.79657 0.28396 0.34134 0.0
C4204 C 0.79519 0.35048 0.41843 0.0
C4205 C 0.81152 0.36097 0.43007 0.0
C4206 C 0.7961 0.33841 0.40048 0.0
C4207 C 0.81334 0.33684 0.39386 0.0
C4208 C 0.82961 0.34652 0.40583 0.0
C4209 C 0.82871 0.35831 0.42386 0.0
C4210 C 0.82435 0.32958 0.34159 0.0
C4211 C 0.81373 0.31031 0.33393 0.0
C4212 C 0.82475 0.3378 0.36128 0.0
C4213 C 0.81441 0.32702 0.37366 0.0
C4214 C 0.80437 0.3075 0.36631 0.0
C4215 C 0.80431 0.29907 0.34663 0.0
H4216 H 0.48188 0.07234 0.22112 0.0
H4217 H 0.46937 0.00813 0.21295 0.0
H4218 H 0.50375 0.07102 0.19621 0.0
H4219 H 0.49131 1.00681 0.18807 0.0
H4220 H 0.51815 0.01484 0.13046 0.0
H4221 H 0.49506 0.01555 0.15414 0.0
H4222 H 0.5347 0.06048 0.19483 0.0
H4223 H 0.55772 0.05989 0.17112 0.0
C4224 C 0.48368 0.05797 0.2138 0.0
C4225 C 0.47404 0.04033 0.21887 0.0
C4226 C 0.49626 0.05722 0.19973 0.0
C4227 C 0.49922 0.03882 0.19039 0.0
C4228 C 0.48918 0.02115 0.19506 0.0
C4229 C 0.47676 0.02191 0.2093 0.0
C4230 C 0.52189 0.0248 0.1445 0.0
C4231 C 0.53967 0.03727 0.14907 0.0
C4232 C 0.50875 0.02515 0.15801 0.0
C4233 C 0.51315 0.03813 0.17619 0.0
C4234 C 0.53096 0.05048 0.1808 0.0
C4235 C 0.54416 0.04999 0.16738 0.0
H4236 H 0.81608 0.77119 0.93278 0.0
H4237 H 0.79416 0.71092 0.90169 0.0
H4238 H 0.8156 0.78305 0.90195 0.0
H4239 H 0.7942 0.72269 0.87088 0.0
H4240 H 0.77899 0.75288 0.82099 0.0
H4241 H 0.77867 0.74155 0.8521 0.0
H4242 H 0.83122 0.78247 0.8722 0.0
H4243 H 0.83146 0.79393 0.84121 0.0
C4244 C 0.81111 0.76045 0.91941 0.0
C4245 C 0.8052 0.74005 0.91986 0.0
C4246 C 0.81102 0.76724 0.90165 0.0
C4247 C 0.80489 0.75386 0.8838 0.0
C4248 C 0.79885 0.73349 0.88428 0.0
C4249 C 0.79904 0.7267 0.902 0.0
C4250 C 0.79047 0.7595 0.83204 0.0
C4251 C 0.80525 0.77433 0.82848 0.0
C4252 C 0.79034 0.7529 0.84989 0.0
C4253 C 0.80492 0.76104 0.86478 0.0
C4254 C 0.81964 0.77598 0.86124 0.0
C4255 C 0.81983 0.78247 0.84334 0.0
H4256 H 0.89432 0.10851 1.00317 0.0
H4257 H 0.84909 0.05759 1.00041 0.0
H4258 H 0.91563 0.08648 0.99692 0.0
H4259 H 0.87017 0.03537 0.9934 0.0
H4260 H 0.91757 1.00562 0.00819 0.0
H4261 H 0.89431 0.02564 0.00999 0.0
H4262 H 0.92481 0.0625 0.97356 0.0
H4263 H 0.94838 0.04286 0.97254 0.0
C4264 C 0.88893 0.09256 1.00086 0.0
C4265 C 0.87017 0.08469 1.00237 0.0
C4266 C 0.90108 0.0799 0.99718 0.0
C4267 C 0.89461 0.05912 0.99467 0.0
C4268 C 0.87567 0.0513 0.99561 0.0
C4269 C 0.86359 0.06398 0.99955 0.0
C4270 C 0.91903 0.01776 1.00028 0.0
C4271 C 0.93468 0.02277 0.99025 0.0
C4272 C 0.90573 0.02924 1.00126 0.0
C4273 C 0.90776 0.04579 0.99202 0.0
C4274 C 0.92302 0.05013 0.98118 0.0
C4275 C 0.93642 0.03881 0.98043 0.0
H4276 H 0.4243 0.43636 0.0374 0.0
H4277 H 0.40683 0.49186 0.05145 0.0
H4278 H 0.4558 0.45468 0.03578 0.0
H4279 H 0.43831 0.51021 0.04918 0.0
H4280 H 0.5015 0.53675 0.06091 0.0
H4281 H 0.47025 0.51889 0.0649 0.0
H4282 H 0.47244 0.47424 0.01437 0.0
H4283 H 0.50344 0.49191 0.01037 0.0
C4284 C 0.42718 0.45249 0.04031 0.0
C4285 C 0.41292 0.46258 0.04456 0.0
C4286 C 0.44525 0.46301 0.03914 0.0
C4287 C 0.44965 0.48396 0.04222 0.0
C4288 C 0.4355 0.4941 0.04685 0.0
C4289 C 0.41737 0.48355 0.04795 0.0
C4290 C 0.49529 0.52319 0.05059 0.0
C4291 C 0.50507 0.51592 0.03524 0.0
C4292 C 0.47733 0.51294 0.05287 0.0
C4293 C 0.46877 0.49505 0.03999 0.0
C4294 C 0.47863 0.48778 0.02475 0.0
C4295 C 0.49647 0.49804 0.0224 0.0
H4296 H 0.37882 0.67414 0.80537 0.0
H4297 H 0.37556 0.66119 0.74258 0.0
H4298 H 0.36288 0.70115 0.80408 0.0
H4299 H 0.35961 0.68771 0.74124 0.0
H4300 H 0.34049 0.74513 0.73904 0.0
H4301 H 0.35511 0.71786 0.74152 0.0
H4302 H 0.34102 0.72005 0.80082 0.0
H4303 H 0.32676 0.74849 0.79829 0.0
C4304 C 0.37474 0.67672 0.79113 0.0
C4305 C 0.37918 0.66469 0.77411 0.0
C4306 C 0.36534 0.69264 0.79037 0.0
C4307 C 0.35957 0.69777 0.77254 0.0
C4308 C 0.3638 0.68549 0.75558 0.0
C4309 C 0.37323 0.66971 0.75633 0.0
C4310 C 0.34021 0.73983 0.7527 0.0
C4311 C 0.33179 0.74947 0.76822 0.0
C4312 C 0.34875 0.72364 0.75416 0.0
C4313 C 0.34966 0.71557 0.77138 0.0
C4314 C 0.34112 0.72518 0.78711 0.0
C4315 C 0.33255 0.74168 0.78564 0.0
H4316 H 0.1907 0.6169 0.48637 0.0
H4317 H 0.1987 0.57341 0.52108 0.0
H4318 H 0.15755 0.6045 0.48431 0.0
H4319 H 0.1652 0.56203 0.52028 0.0
H4320 H 0.10401 0.53438 0.49926 0.0
H4321 H 0.13767 0.54452 0.49952 0.0
H4322 H 0.13341 0.60589 0.50447 0.0
H4323 H 0.09983 0.59546 0.50366 0.0
C4324 C 0.18544 0.60457 0.49346 0.0
C4325 C 0.19748 0.59607 0.50377 0.0
C4326 C 0.16633 0.59771 0.49258 0.0
C4327 C 0.15868 0.58243 0.50232 0.0
C4328 C 0.17065 0.57374 0.5125 0.0
C4329 C 0.18986 0.58044 0.51316 0.0
C4330 C 0.11043 0.55003 0.50074 0.0
C4331 C 0.09968 0.56436 0.50249 0.0
C4332 C 0.12965 0.55585 0.50083 0.0
C4333 C 0.13829 0.57604 0.50218 0.0
C4334 C 0.12726 0.5902 0.50325 0.0
C4335 C 0.1081 0.58435 0.50311 0.0
H4336 H 0.72801 0.92323 0.74365 0.0
H4337 H 0.7707 0.97225 0.77498 0.0
H4338 H 0.74285 0.89973 0.7573 0.0
H4339 H 0.78553 0.94904 0.7886 0.0
H4340 H 0.81421 0.90203 0.80146 0.0
H4341 H 0.80139 0.92104 0.78025 0.0
H4342 H 0.7461 0.89438 0.79213 0.0
H4343 H 0.75893 0.87497 0.81302 0.0
C4344 C 0.74085 0.92882 0.75301 0.0
C4345 C 0.74839 0.94934 0.75831 0.0
C4346 C 0.74922 0.9155 0.76092 0.0
C4347 C 0.76527 0.92263 0.77402 0.0
C4348 C 0.7733 0.94313 0.77836 0.0
C4349 C 0.76485 0.9564 0.77065 0.0
C4350 C 0.79931 0.90009 0.79935 0.0
C4351 C 0.78754 0.88732 0.80907 0.0
C4352 C 0.79201 0.91096 0.78726 0.0
C4353 C 0.7728 0.90918 0.78463 0.0
C4354 C 0.76096 0.89587 0.79379 0.0
C4355 C 0.76829 0.88504 0.80597 0.0
H4356 H 0.7491 0.97208 0.51133 0.0
H4357 H 0.71481 0.93978 0.5484 0.0
H4358 H 0.72619 0.99192 0.50798 0.0
H4359 H 0.69182 0.95987 0.54514 0.0
H4360 H 0.64749 0.98677 0.51339 0.0
H4361 H 0.66921 0.96597 0.51913 0.0
H4362 H 0.71437 0.0179 0.52978 0.0
H4363 H 0.69283 0.03869 0.52466 0.0
C4364 C 0.73661 0.96913 0.51869 0.0
C4365 C 0.73381 0.95431 0.53012 0.0
C4366 C 0.72354 0.98064 0.51691 0.0
C4367 C 0.7072 0.97756 0.52637 0.0
C4368 C 0.70422 0.96256 0.53761 0.0
C4369 C 0.71746 0.95118 0.53959 0.0
C4370 C 0.66199 0.99382 0.5173 0.0
C4371 C 0.66837 0.01443 0.51819 0.0
C4372 C 0.67445 0.98186 0.52053 0.0
C4373 C 0.69357 0.99023 0.52458 0.0
C4374 C 0.6998 0.0109 0.52624 0.0
C4375 C 0.6874 0.02282 0.52323 0.0
H4376 H 0.34821 0.46203 0.7664 0.0
H4377 H 0.40141 0.44672 0.77112 0.0
H4378 H 0.3329 0.42762 0.76665 0.0
H4379 H 0.38613 0.41228 0.77043 0.0
H4380 H 0.35578 0.35391 0.78632 0.0
H4381 H 0.37056 0.38841 0.78636 0.0
H4382 H 0.32323 0.39403 0.75093 0.0
H4383 H 0.30834 0.35936 0.75114 0.0
C4384 C 0.35681 0.4515 0.76751 0.0
C4385 C 0.37635 0.45785 0.76873 0.0
C4386 C 0.34787 0.43138 0.76739 0.0
C4387 C 0.35797 0.4165 0.76855 0.0
C4388 C 0.37751 0.42287 0.76977 0.0
C4389 C 0.38642 0.44294 0.76987 0.0
C4390 C 0.34838 0.36237 0.7785 0.0
C4391 C 0.33053 0.35339 0.76891 0.0
C4392 C 0.35705 0.38244 0.77839 0.0
C4393 C 0.34839 0.39469 0.76864 0.0
C4394 C 0.33053 0.38565 0.75896 0.0
C4395 C 0.32185 0.3655 0.75905 0.0
H4396 H 0.23826 0.63983 0.23457 0.0
H4397 H 0.2646 0.63609 0.28999 0.0
H4398 H 0.25268 0.67539 0.24006 0.0
H4399 H 0.27907 0.67169 0.29544 0.0
H4400 H 0.31275 0.73412 0.28784 0.0
H4401 H 0.30206 0.69762 0.28058 0.0
H4402 H 0.24638 0.70373 0.26649 0.0
H4403 H 0.25715 0.74004 0.2737 0.0
C4404 C 0.24748 0.64654 0.24769 0.0
C4405 C 0.25031 0.63534 0.2619 0.0
C4406 C 0.25559 0.66685 0.25089 0.0
C4407 C 0.26683 0.67618 0.26822 0.0
C4408 C 0.2705 0.66476 0.28194 0.0
C4409 C 0.26219 0.64449 0.27887 0.0
C4410 C 0.29831 0.72749 0.28298 0.0
C4411 C 0.28582 0.7395 0.28042 0.0
C4412 C 0.2922 0.70677 0.27897 0.0
C4413 C 0.27351 0.69799 0.27263 0.0
C4414 C 0.26094 0.71018 0.27089 0.0
C4415 C 0.26704 0.73082 0.27497 0.0
H4416 H 0.5433 0.69198 0.50185 0.0
H4417 H 0.52182 0.65673 0.44493 0.0
H4418 H 0.54868 0.66217 0.51266 0.0
H4419 H 0.52595 0.62705 0.4561 0.0
H4420 H 0.55027 0.57795 0.47156 0.0
H4421 H 0.54695 0.60911 0.46291 0.0
H4422 H 0.53766 0.63108 0.52246 0.0
H4423 H 0.54174 0.59949 0.53123 0.0
C4424 C 0.53965 0.678 0.49151 0.0
C4425 C 0.53209 0.67731 0.47227 0.0
C4426 C 0.54255 0.66065 0.49791 0.0
C4427 C 0.53799 0.64177 0.48539 0.0
C4428 C 0.53016 0.64108 0.46631 0.0
C4429 C 0.52741 0.65836 0.45989 0.0
C4430 C 0.54771 0.58948 0.48294 0.0
C4431 C 0.54653 0.58611 0.50216 0.0
C4432 C 0.54553 0.60747 0.47789 0.0
C4433 C 0.54156 0.62294 0.49172 0.0
C4434 C 0.54072 0.61978 0.51122 0.0
C4435 C 0.5431 0.6016 0.51635 0.0
H4436 H 0.67992 0.28406 0.66383 0.0
H4437 H 0.68527 0.34235 0.69936 0.0
H4438 H 0.70704 0.27978 0.68228 0.0
H4439 H 0.71274 0.33838 0.71757 0.0
H4440 H 0.75239 0.31941 0.7589 0.0
H4441 H 0.72529 0.3238 0.74062 0.0
H4442 H 0.73885 0.28756 0.68907 0.0
H4443 H 0.76534 0.28228 0.70782 0.0
C4444 C 0.687 0.29615 0.67541 0.0
C4445 C 0.68019 0.31361 0.67992 0.0
C4446 C 0.70275 0.29371 0.68608 0.0
C4447 C 0.71248 0.3087 0.70162 0.0
C4448 C 0.70567 0.32621 0.70606 0.0
C4449 C 0.68981 0.32857 0.69549 0.0
C4450 C 0.74953 0.31215 0.74377 0.0
C4451 C 0.76111 0.30017 0.73516 0.0
C4452 C 0.73397 0.31491 0.73305 0.0
C4453 C 0.72945 0.30601 0.71313 0.0
C4454 C 0.74135 0.2944 0.70439 0.0
C4455 C 0.75682 0.29151 0.71519 0.0
H4456 H 0.0572 0.39179 0.95506 0.0
H4457 H 0.01784 0.38236 0.99763 0.0
H4458 H 0.06075 0.4276 0.9647 0.0
H4459 H 0.02111 0.41849 0.00701 0.0
H4460 H 0.04857 0.48746 0.0307 0.0
H4461 H 0.04261 0.4508 0.02302 0.0
H4462 H 0.0436 0.45264 0.96168 0.0
H4463 H 0.04941 0.48882 0.96936 0.0
C4464 C 0.04935 0.39727 0.9666 0.0
C4465 C 0.03724 0.38384 0.97551 0.0
C4466 C 0.05123 0.41798 0.97201 0.0
C4467 C 0.04111 0.42621 0.9866 0.0
C4468 C 0.02921 0.41287 0.99579 0.0
C4469 C 0.02721 0.39204 0.99025 0.0
C4470 C 0.04708 0.47996 0.01558 0.0
C4471 C 0.04926 0.49115 1.00062 0.0
C4472 C 0.04375 0.45889 0.01113 0.0
C4473 C 0.0429 0.44853 0.99167 0.0
C4474 C 0.04454 0.45988 0.97684 0.0
C4475 C 0.04771 0.48072 0.98125 0.0
H4476 H 0.98476 0.78252 0.16579 0.0
H4477 H 0.01267 0.8366 0.20546 0.0
H4478 H 0.95835 0.78005 0.18516 0.0
H4479 H 0.98584 0.83484 0.22399 0.0
H4480 H 0.94591 0.81324 0.26698 0.0
H4481 H 0.97103 0.81745 0.24626 0.0
H4482 H 0.93213 0.7924 0.19524 0.0
H4483 H 0.90687 0.78726 0.21635 0.0
C4484 C 0.98534 0.79395 0.17859 0.0
C4485 C 1.00116 0.80969 0.18399 0.0
C4486 C 0.96995 0.79269 0.18959 0.0
C4487 C 0.96977 0.80718 0.20633 0.0
C4488 C 0.98541 0.82315 0.21145 0.0
C4489 C 1.00083 0.82432 0.20056 0.0
C4490 C 0.94263 0.80857 0.25133 0.0
C4491 C 0.92429 0.79963 0.24344 0.0
C4492 C 0.95712 0.81123 0.23934 0.0
C4493 C 0.95384 0.80524 0.21891 0.0
C4494 C 0.93536 0.79694 0.21089 0.0
C4495 C 0.92078 0.79422 0.22298 0.0
H4496 H 0.52329 0.37439 0.10561 0.0
H4497 H 0.53998 0.32845 0.06532 0.0
H4498 H 0.52839 0.39641 0.0821 0.0
H4499 H 0.54488 0.35038 0.04165 0.0
H4500 H 0.5718 0.40414 0.01496 0.0
H4501 H 0.56567 0.38053 0.03698 0.0
H4502 H 0.51563 0.40016 0.0509 0.0
H4503 H 0.52194 0.4239 0.02915 0.0
C4504 C 0.52786 0.36895 0.09163 0.0
C4505 C 0.53126 0.34974 0.08729 0.0
C4506 C 0.53075 0.38152 0.07815 0.0
C4507 C 0.53699 0.3751 0.05998 0.0
C4508 C 0.54031 0.35585 0.05562 0.0
C4509 C 0.5375 0.3433 0.06915 0.0
C4510 C 0.55936 0.40314 0.0225 0.0
C4511 C 0.54738 0.41585 0.02043 0.0
C4512 C 0.55584 0.38965 0.03512 0.0
C4513 C 0.54023 0.38859 0.04579 0.0
C4514 C 0.52796 0.4009 0.04319 0.0
C4515 C 0.53152 0.41442 0.03068 0.0
H4516 H 0.99239 0.28541 0.33431 0.0
H4517 H 0.02557 0.33553 0.31464 0.0
H4518 H 0.96427 0.29371 0.32171 0.0
H4519 H 0.9975 0.34345 0.30154 0.0
H4520 H 0.94359 0.36629 0.307 0.0
H4521 H 0.97205 0.35665 0.31616 0.0
H4522 H 0.9468 0.2952 0.29108 0.0
H4523 H 0.91835 0.30485 0.28168 0.0
C4524 C 0.99366 0.29805 0.32709 0.0
C4525 C 0.01116 0.30983 0.32548 0.0
C4526 C 0.97759 0.3027 0.31974 0.0
C4527 C 0.9787 0.31929 0.31072 0.0
C4528 C 0.99622 0.33071 0.30861 0.0
C4529 C 0.01229 0.32602 0.31589 0.0
C4530 C 0.9442 0.35077 0.30315 0.0
C4531 C 0.92869 0.33635 0.29363 0.0
C4532 C 0.9605 0.34525 0.30842 0.0
C4533 C 0.96164 0.32517 0.30432 0.0
C4534 C 0.94623 0.31075 0.29463 0.0
C4535 C 0.92995 0.31629 0.28929 0.0
H4536 H 1.00573 0.66171 0.62167 0.0
H4537 H 0.01542 0.69257 0.57347 0.0
H4538 H 0.01419 0.63269 0.60268 0.0
H4539 H 0.02347 0.6634 0.55443 0.0
H4540 H 0.02033 0.59976 0.52112 0.0
H4541 H 0.00933 0.62746 0.53932 0.0
H4542 H 0.04439 0.62658 0.5904 0.0
H4543 H 0.05515 0.59864 0.5723 0.0
C4544 C 0.00953 0.66224 0.60699 0.0
C4545 C 0.00995 0.67942 0.59907 0.0
C4546 C 0.01437 0.64567 0.59616 0.0
C4547 C 0.01957 0.64594 0.57719 0.0
C4548 C 0.01933 0.66279 0.56898 0.0
C4549 C 0.01463 0.67943 0.57985 0.0
C4550 C 0.02548 0.60531 0.5363 0.0
C4551 C 0.03837 0.59693 0.54541 0.0
C4552 C 0.01934 0.62126 0.54663 0.0
C4553 C 0.02591 0.62897 0.56626 0.0
C4554 C 0.03891 0.62067 0.57534 0.0
C4555 C 0.04518 0.60483 0.56495 0.0
H4556 H 0.68191 0.84398 0.81495 0.0
H4557 H 0.69522 0.7999 0.84604 0.0
H4558 H 0.71232 0.84809 0.8022 0.0
H4559 H 0.72517 0.80366 0.83326 0.0
H4560 H 0.78182 0.81921 0.819 0.0
H4561 H 0.75444 0.82494 0.83467 0.0
H4562 H 0.72894 0.83032 0.77931 0.0
H4563 H 0.75713 0.82581 0.76401 0.0
C4564 C 0.69134 0.83518 0.81902 0.0
C4565 C 0.68616 0.82145 0.83129 0.0
C4566 C 0.70869 0.83747 0.81167 0.0
C4567 C 0.72121 0.82621 0.81664 0.0
C4568 C 0.71601 0.81273 0.82918 0.0
C4569 C 0.6987 0.81033 0.83634 0.0
C4570 C 0.77044 0.82195 0.81032 0.0
C4571 C 0.77112 0.82143 0.79026 0.0
C4572 C 0.75473 0.82515 0.81923 0.0
C4573 C 0.73924 0.82746 0.80813 0.0
C4574 C 0.7406 0.82857 0.7883 0.0
C4575 C 0.75656 0.82573 0.77945 0.0
H4576 H 0.51237 0.55629 0.68358 0.0
H4577 H 0.46546 0.57097 0.65545 0.0
H4578 H 0.52659 0.55322 0.65264 0.0
H4579 H 0.47959 0.56762 0.62442 0.0
H4580 H 0.50279 0.54135 0.56582 0.0
H4581 H 0.48832 0.54496 0.59669 0.0
H4582 H 0.54199 0.57045 0.62807 0.0
H4583 H 0.55627 0.56718 0.59725 0.0
C4584 C 0.50488 0.55882 0.67088 0.0
C4585 C 0.48745 0.56398 0.67274 0.0
C4586 C 0.51325 0.55716 0.65285 0.0
C4587 C 0.50456 0.56009 0.63532 0.0
C4588 C 0.48703 0.56503 0.63711 0.0
C4589 C 0.47885 0.56714 0.65526 0.0
C4590 C 0.51164 0.54787 0.57922 0.0
C4591 C 0.53103 0.55411 0.57836 0.0
C4592 C 0.5032 0.55004 0.59722 0.0
C4593 C 0.51366 0.55807 0.61559 0.0
C4594 C 0.53307 0.56407 0.6147 0.0
C4595 C 0.54143 0.56235 0.59667 0.0
H4596 H 0.76747 0.22446 0.96745 0.0
H4597 H 0.8052 0.20234 0.92886 0.0
H4598 H 0.76166 0.24647 0.94542 0.0
H4599 H 0.79961 0.22456 0.90701 0.0
H4600 H 0.76959 0.2499 0.86281 0.0
H4601 H 0.77241 0.22743 0.88519 0.0
H4602 H 0.78026 0.27662 0.9341 0.0
H4603 H 0.77775 0.29927 0.91165 0.0
C4604 C 0.77444 0.22429 0.95421 0.0
C4605 C 0.78672 0.21171 0.94974 0.0
C4606 C 0.77123 0.23695 0.94174 0.0
C4607 C 0.78012 0.23708 0.92454 0.0
C4608 C 0.79242 0.22453 0.9201 0.0
C4609 C 0.79575 0.21199 0.93264 0.0
C4610 C 0.77183 0.2559 0.87835 0.0
C4611 C 0.77366 0.27636 0.88552 0.0
C4612 C 0.77346 0.24306 0.89111 0.0
C4613 C 0.77677 0.2504 0.91128 0.0
C4614 C 0.77763 0.27063 0.91857 0.0
C4615 C 0.77612 0.28355 0.90576 0.0
H4616 H 0.13919 0.50191 0.14269 0.0
H4617 H 0.09812 0.52521 0.17524 0.0
H4618 H 0.12221 0.50321 0.11214 0.0
H4619 H 0.08108 0.52641 0.14463 0.0
H4620 H 0.05069 0.51073 0.08143 0.0
H4621 H 0.06431 0.50287 0.11092 0.0
H4622 H 0.11787 0.53642 0.10144 0.0
H4623 H 0.10438 0.54497 0.07263 0.0
C4624 C 0.12627 0.50677 0.14324 0.0
C4625 C 0.11993 0.51353 0.1612 0.0
C4626 C 0.11665 0.50761 0.12585 0.0
C4627 C 0.10045 0.51495 0.1262 0.0
C4628 C 0.09348 0.52056 0.14409 0.0
C4629 C 0.10325 0.51998 0.16151 0.0
C4630 C 0.0653 0.51664 0.08577 0.0
C4631 C 0.07635 0.52877 0.07486 0.0
C4632 C 0.07307 0.51199 0.10251 0.0
C4633 C 0.09209 0.51894 0.10821 0.0
C4634 C 0.10319 0.53069 0.09712 0.0
C4635 C 0.0954 0.53567 0.08069 0.0
H4636 H 0.79018 0.81516 0.42878 0.0
H4637 H 0.83493 0.86569 0.42796 0.0
H4638 H 0.79013 0.80472 0.39342 0.0
H4639 H 0.83536 0.85483 0.39306 0.0
H4640 H 0.81192 0.84718 0.32948 0.0
H4641 H 0.81513 0.85461 0.36493 0.0
H4642 H 0.80737 0.79186 0.36583 0.0
H4643 H 0.80392 0.78442 0.3298 0.0
C4644 C 0.8001 0.82399 0.42116 0.0
C4645 C 0.81252 0.84136 0.43143 0.0
C4646 C 0.80022 0.81783 0.40088 0.0
C4647 C 0.8127 0.82894 0.39027 0.0
C4648 C 0.8254 0.84598 0.40063 0.0
C4649 C 0.82529 0.85211 0.42081 0.0
C4650 C 0.81122 0.83496 0.33724 0.0
C4651 C 0.80808 0.81528 0.32686 0.0
C4652 C 0.81312 0.83922 0.35762 0.0
C4653 C 0.81164 0.82389 0.3684 0.0
C4654 C 0.80854 0.80405 0.35803 0.0
C4655 C 0.80678 0.79978 0.33742 0.0
H4656 H 0.51247 0.55083 0.86807 0.0
H4657 H 0.47252 0.57769 0.89896 0.0
H4658 H 0.52643 0.5464 0.89901 0.0
H4659 H 0.48628 0.5731 0.92949 0.0
H4660 H 0.50288 0.55016 0.98315 0.0
H4661 H 0.49045 0.55344 0.95142 0.0
H4662 H 0.5444 0.55657 0.93048 0.0
H4663 H 0.55693 0.55308 0.96292 0.0
C4664 C 0.50648 0.55598 0.88123 0.0
C4665 C 0.49078 0.56462 0.87997 0.0
C4666 C 0.5147 0.55335 0.8994 0.0
C4667 C 0.50774 0.55903 0.91759 0.0
C4668 C 0.49222 0.56783 0.91632 0.0
C4669 C 0.48409 0.57055 0.89827 0.0
C4670 C 0.51228 0.55141 0.97187 0.0
C4671 C 0.53109 0.55111 0.97624 0.0
C4672 C 0.50505 0.55357 0.95331 0.0
C4673 C 0.5161 0.55576 0.93758 0.0
C4674 C 0.535 0.55499 0.9417 0.0
C4675 C 0.54235 0.55289 0.96056 0.0
H4676 H 0.83505 0.22895 0.13078 0.0
H4677 H 0.7766 0.22218 0.11436 0.0
H4678 H 0.83243 0.25111 0.16113 0.0
H4679 H 0.77399 0.24333 0.14531 0.0
H4680 H 0.78139 0.24886 0.21574 0.0
H4681 H 0.78189 0.23381 0.18172 0.0
H4682 H 0.8196 0.2869 0.17291 0.0
H4683 H 0.81829 0.30266 0.20682 0.0
C4684 C 0.82174 0.2324 0.13341 0.0
C4685 C 0.80599 0.22351 0.12021 0.0
C4686 C 0.82028 0.24506 0.15079 0.0
C4687 C 0.80302 0.24877 0.15536 0.0
C4688 C 0.78741 0.24056 0.14198 0.0
C4689 C 0.78892 0.22826 0.12443 0.0
C4690 C 0.78956 0.25756 0.20657 0.0
C4691 C 0.80036 0.27676 0.2142 0.0
C4692 C 0.78978 0.24891 0.18709 0.0
C4693 C 0.80095 0.2592 0.17497 0.0
C4694 C 0.81105 0.2787 0.18219 0.0
C4695 C 0.81045 0.28758 0.2016 0.0
H4696 H 0.14467 0.5303 0.35879 0.0
H4697 H 0.11733 0.56798 0.33057 0.0
H4698 H 0.12943 0.53883 0.38847 0.0
H4699 H 0.10199 0.57631 0.36 0.0
H4700 H 0.06573 0.57293 0.41027 0.0
H4701 H 0.07844 0.5584 0.38099 0.0
H4702 H 0.13276 0.57311 0.41252 0.0
H4703 H 0.12005 0.58771 0.44182 0.0
C4704 C 0.13516 0.54012 0.3589 0.0
C4705 C 0.13212 0.54856 0.34257 0.0
C4706 C 0.12657 0.54505 0.3758 0.0
C4707 C 0.11457 0.55816 0.3764 0.0
C4708 C 0.11105 0.56601 0.3598 0.0
C4709 C 0.11987 0.56136 0.34306 0.0
C4710 C 0.08032 0.57279 0.41097 0.0
C4711 C 0.09199 0.58158 0.42814 0.0
C4712 C 0.08757 0.56456 0.39427 0.0
C4713 C 0.10653 0.56473 0.39458 0.0
C4714 C 0.11806 0.57271 0.412 0.0
C4715 C 0.11085 0.5812 0.42864 0.0
H4716 H 0.83117 0.87053 0.64541 0.0
H4717 H 0.77998 0.82803 0.62317 0.0
H4718 H 0.83023 0.85875 0.67624 0.0
H4719 H 0.77873 0.81671 0.65424 0.0
H4720 H 0.79331 0.78666 0.70478 0.0
H4721 H 0.79359 0.79833 0.67398 0.0
H4722 H 0.81384 0.8588 0.70526 0.0
H4723 H 0.81289 0.84698 0.73608 0.0
C4724 C 0.81973 0.85862 0.64701 0.0
C4725 C 0.80569 0.85025 0.63161 0.0
C4726 C 0.81906 0.85202 0.66487 0.0
C4727 C 0.80438 0.83675 0.6679 0.0
C4728 C 0.79037 0.82835 0.65248 0.0
C4729 C 0.79098 0.83501 0.63466 0.0
C4730 C 0.79734 0.80245 0.70518 0.0
C4731 C 0.8029 0.81581 0.72308 0.0
C4732 C 0.79767 0.8092 0.68741 0.0
C4733 C 0.80375 0.82958 0.68696 0.0
C4734 C 0.80934 0.84297 0.70489 0.0
C4735 C 0.80886 0.83618 0.72266 0.0
H4736 H 0.73545 0.4899 0.56471 0.0
H4737 H 0.75103 0.51543 0.51437 0.0
H4738 H 0.71337 0.511 0.57063 0.0
H4739 H 0.72817 0.53569 0.51964 0.0
H4740 H 0.69695 0.58215 0.54383 0.0
H4741 H 0.72141 0.56361 0.54135 0.0
H4742 H 0.68407 0.51306 0.55605 0.0
H4743 H 0.66006 0.5319 0.55953 0.0
C4744 C 0.73423 0.50008 0.55496 0.0
C4745 C 0.74499 0.50098 0.53906 0.0
C4746 C 0.72141 0.512 0.55821 0.0
C4747 C 0.71898 0.52498 0.54557 0.0
C4748 C 0.72987 0.52603 0.52979 0.0
C4749 C 0.74278 0.51419 0.5266 0.0
C4750 C 0.69412 0.56723 0.54691 0.0
C4751 C 0.67657 0.55846 0.5518 0.0
C4752 C 0.70804 0.55651 0.54524 0.0
C4753 C 0.70465 0.53683 0.5484 0.0
C4754 C 0.68722 0.52826 0.55373 0.0
C4755 C 0.67337 0.53898 0.55549 0.0
H4756 H 0.19078 0.15253 0.52042 0.0
H4757 H 0.20527 0.09914 0.49046 0.0
H4758 H 0.15945 0.13395 0.52131 0.0
H4759 H 0.17401 0.08018 0.49251 0.0
H4760 H 0.1104 0.05581 0.48427 0.0
H4761 H 0.14175 0.07396 0.48089 0.0
H4762 H 0.14304 0.11052 0.53787 0.0
H4763 H 0.1119 0.09295 0.54096 0.0
C4764 C 0.18733 0.13683 0.51392 0.0
C4765 C 0.20074 0.12746 0.50532 0.0
C4766 C 0.16931 0.12603 0.51472 0.0
C4767 C 0.1641 0.10542 0.50717 0.0
C4768 C 0.17741 0.09603 0.49837 0.0
C4769 C 0.19547 0.1069 0.49744 0.0
C4770 C 0.11742 0.0677 0.49607 0.0
C4771 C 0.10853 0.07285 0.51289 0.0
C4772 C 0.13545 0.07809 0.49417 0.0
C4773 C 0.14501 0.09389 0.50904 0.0
C4774 C 0.13609 0.0988 0.52589 0.0
C4775 C 0.11815 0.08854 0.52773 0.0
H4776 H 0.23973 0.92692 0.79987 0.0
H4777 H 0.2284 0.90874 0.73743 0.0
H4778 H 0.25542 0.90007 0.80064 0.0
H4779 H 0.24425 0.88163 0.73827 0.0
H4780 H 0.28243 0.83572 0.74263 0.0
H4781 H 0.26824 0.86432 0.74044 0.0
H4782 H 0.25737 0.8685 0.80083 0.0
H4783 H 0.27172 0.84082 0.80291 0.0
C4784 C 0.24021 0.91725 0.78611 0.0
C4785 C 0.23207 0.92092 0.76859 0.0
C4786 C 0.2495 0.90131 0.78657 0.0
C4787 C 0.25148 0.88761 0.76956 0.0
C4788 C 0.24358 0.89135 0.75195 0.0
C4789 C 0.23422 0.90735 0.75149 0.0
C4790 C 0.27734 0.84296 0.75557 0.0
C4791 C 0.27886 0.8356 0.77314 0.0
C4792 C 0.26883 0.85953 0.7543 0.0
C4793 C 0.26125 0.86971 0.77046 0.0
C4794 C 0.26299 0.86216 0.78787 0.0
C4795 C 0.27137 0.8458 0.7891 0.0
H4796 H 0.41608 0.01735 0.01461 0.0
H4797 H 0.4217 0.96258 0.03241 0.0
H4798 H 0.44923 0.02573 0.01172 0.0
H4799 H 0.45477 0.97193 0.03162 0.0
H4800 H 0.51285 0.98473 0.01647 0.0
H4801 H 0.47906 0.97527 0.01252 0.0
H4802 H 0.47707 0.03707 0.0314 0.0
H4803 H 0.51055 0.04628 0.03433 0.0
C4804 C 0.42434 1.00714 0.018 0.0
C4805 C 0.41617 0.98941 0.02402 0.0
C4806 C 0.44342 0.01207 0.0166 0.0
C4807 C 0.45478 0.99958 0.02154 0.0
C4808 C 0.44653 0.98181 0.02736 0.0
C4809 C 0.42749 0.97667 0.02831 0.0
C4810 C 0.50505 0.9962 0.01945 0.0
C4811 C 0.51421 0.01625 0.02499 0.0
C4812 C 0.48573 0.99085 0.01736 0.0
C4813 C 0.47524 1.00541 0.02165 0.0
C4814 C 0.48457 0.02549 0.02742 0.0
C4815 C 0.50385 0.03083 0.0291 0.0
H4816 H 0.86682 0.63526 0.8038 0.0
H4817 H 0.84382 0.59 0.75291 0.0
H4818 H 0.84594 0.65561 0.79489 0.0
H4819 H 0.82347 0.61063 0.74363 0.0
H4820 H 0.77797 0.64594 0.74358 0.0
H4821 H 0.79682 0.62428 0.75407 0.0
H4822 H 0.84391 0.67431 0.76838 0.0
H4823 H 0.82514 0.69588 0.7579 0.0
C4824 C 0.85718 0.62961 0.79083 0.0
C4825 C 0.85699 0.61116 0.77896 0.0
C4826 C 0.8454 0.64132 0.78563 0.0
C4827 C 0.83324 0.63473 0.76849 0.0
C4828 C 0.83264 0.616 0.75697 0.0
C4829 C 0.8444 0.60431 0.76217 0.0
C4830 C 0.79241 0.6522 0.74874 0.0
C4831 C 0.80011 0.67254 0.74997 0.0
C4832 C 0.80315 0.63986 0.75481 0.0
C4833 C 0.82175 0.6477 0.76219 0.0
C4834 C 0.8295 0.66798 0.76313 0.0
C4835 C 0.81879 0.68028 0.75705 0.0
H4836 H 0.85959 0.60926 0.02898 0.0
H4837 H 0.89891 0.65252 0.00628 0.0
H4838 H 0.88281 0.58978 0.03159 0.0
H4839 H 0.92213 0.63256 0.00835 0.0
H4840 H 0.96353 0.60075 0.03717 0.0
H4841 H 0.94169 0.62171 0.03236 0.0
H4842 H 0.8987 0.56897 0.01042 0.0
H4843 H 0.92037 0.5482 0.01515 0.0
C4844 C 0.87321 0.61467 0.02457 0.0
C4845 C 0.87732 0.63253 0.01746 0.0
C4846 C 0.88651 0.60334 0.02585 0.0
C4847 C 0.90436 0.60949 0.02004 0.0
C4848 C 0.90857 0.62742 0.01303 0.0
C4849 C 0.89518 0.63875 0.01166 0.0
C4850 C 0.9495 0.59367 0.03104 0.0
C4851 C 0.94365 0.57276 0.02688 0.0
C4852 C 0.93696 0.60568 0.0283 0.0
C4853 C 0.91831 0.59704 0.02134 0.0
C4854 C 0.91279 0.57617 0.01631 0.0
C4855 C 0.92526 0.56423 0.019 0.0
H4856 H 0.25774 0.1306 0.7998 0.0
H4857 H 0.21735 0.134 0.75444 0.0
H4858 H 0.27253 0.16522 0.80118 0.0
H4859 H 0.23302 0.16791 0.75464 0.0
H4860 H 0.25542 0.23489 0.76543 0.0
H4861 H 0.2402 0.20072 0.76565 0.0
H4862 H 0.29089 0.19135 0.79191 0.0
H4863 H 0.3056 0.22612 0.79283 0.0
C4864 C 0.25183 0.13846 0.79 0.0
C4865 C 0.23594 0.12858 0.777 0.0
C4866 C 0.2607 0.15869 0.79057 0.0
C4867 C 0.25437 0.17026 0.77804 0.0
C4868 C 0.23857 0.16032 0.76496 0.0
C4869 C 0.22957 0.14022 0.76457 0.0
C4870 C 0.26343 0.22566 0.77135 0.0
C4871 C 0.2821 0.23375 0.77888 0.0
C4872 C 0.25461 0.20559 0.77129 0.0
C4873 C 0.26399 0.19229 0.77855 0.0
C4874 C 0.28269 0.20052 0.78625 0.0
C4875 C 0.29142 0.22074 0.78655 0.0
H4876 H 0.39424 0.93223 0.30442 0.0
H4877 H 0.33959 0.94432 0.29942 0.0
H4878 H 0.38061 0.89666 0.29824 0.0
H4879 H 0.32588 0.9087 0.29411 0.0
H4880 H 0.31137 0.84477 0.25822 0.0
H4881 H 0.32417 0.88064 0.26755 0.0
H4882 H 0.3622 0.87025 0.31166 0.0
H4883 H 0.34972 0.83428 0.30162 0.0
C4884 C 0.3793 0.92727 0.30216 0.0
C4885 C 0.36798 0.94103 0.30218 0.0
C4886 C 0.37149 0.90691 0.29887 0.0
C4887 C 0.35219 0.8999 0.29562 0.0
C4888 C 0.34082 0.91368 0.29634 0.0
C4889 C 0.34865 0.93407 0.29958 0.0
C4890 C 0.32229 0.85033 0.27008 0.0
C4891 C 0.32926 0.83717 0.27973 0.0
C4892 C 0.3296 0.87076 0.27544 0.0
C4893 C 0.34405 0.87826 0.29049 0.0
C4894 C 0.35112 0.8649 0.29997 0.0
C4895 C 0.34392 0.84443 0.29442 0.0
H4896 H 0.59071 0.42983 0.6007 0.0
H4897 H 0.56605 0.39384 0.54515 0.0
H4898 H 0.58614 0.45946 0.58954 0.0
H4899 H 0.56119 0.42379 0.53393 0.0
H4900 H 0.56871 0.48671 0.515 0.0
H4901 H 0.57262 0.45498 0.52362 0.0
H4902 H 0.56449 0.47724 0.58346 0.0
H4903 H 0.56123 0.50848 0.57494 0.0
C4904 C 0.58406 0.42806 0.58613 0.0
C4905 C 0.57861 0.40898 0.57409 0.0
C4906 C 0.58135 0.4453 0.57963 0.0
C4907 C 0.57291 0.44443 0.56077 0.0
C4908 C 0.5678 0.42542 0.54849 0.0
C4909 C 0.57062 0.40807 0.555 0.0
C4910 C 0.56755 0.48463 0.5299 0.0
C4911 C 0.56447 0.50024 0.54422 0.0
C4912 C 0.56984 0.46638 0.53495 0.0
C4913 C 0.5693 0.46327 0.55448 0.0
C4914 C 0.56566 0.47884 0.56843 0.0
C4915 C 0.56353 0.49688 0.56346 0.0
H4916 H 0.41806 0.78592 0.38772 0.0
H4917 H 0.43701 0.75774 0.33499 0.0
H4918 H 0.39059 0.78911 0.36902 0.0
H4919 H 0.40968 0.7612 0.31616 0.0
H4920 H 0.35065 0.75425 0.28873 0.0
H4921 H 0.37789 0.75059 0.30755 0.0
H4922 H 0.37811 0.80554 0.34718 0.0
H4923 H 0.35069 0.80893 0.32842 0.0
C4924 C 0.41653 0.78054 0.37209 0.0
C4925 C 0.43002 0.77155 0.36304 0.0
C4926 C 0.40064 0.78243 0.36124 0.0
C4927 C 0.3976 0.77551 0.34084 0.0
C4928 C 0.4111 0.76647 0.3318 0.0
C4929 C 0.42694 0.76447 0.34269 0.0
C4930 C 0.35651 0.7656 0.30144 0.0
C4931 C 0.3482 0.78183 0.30704 0.0
C4932 C 0.37232 0.76355 0.31229 0.0
C4933 C 0.38053 0.77771 0.32914 0.0
C4934 C 0.3722 0.794 0.33464 0.0
C4935 C 0.35635 0.79601 0.32381 0.0
H4936 H 0.09097 0.70487 0.04768 0.0
H4937 H 0.05641 0.69526 0.09441 0.0
H4938 H 0.08892 0.66893 0.03897 0.0
H4939 H 0.05376 0.65966 0.08526 0.0
H4940 H 0.0658 0.59911 0.0796 0.0
H4941 H 0.07102 0.63523 0.0868 0.0
H4942 H 0.06897 0.636 0.02509 0.0
H4943 H 0.06394 0.59942 0.01796 0.0
C4944 C 0.08291 0.69521 0.05613 0.0
C4945 C 0.07385 0.70334 0.07183 0.0
C4946 C 0.08158 0.67445 0.05096 0.0
C4947 C 0.07128 0.66109 0.06142 0.0
C4948 C 0.06212 0.66926 0.07696 0.0
C4949 C 0.06341 0.68988 0.08207 0.0
C4950 C 0.06674 0.60698 0.06754 0.0
C4951 C 0.06463 0.59628 0.04823 0.0
C4952 C 0.06954 0.6278 0.07165 0.0
C4953 C 0.07008 0.63884 0.05659 0.0
C4954 C 0.06868 0.6282 0.03716 0.0
C4955 C 0.06586 0.60717 0.03303 0.0
H4956 H 0.10199 0.24711 0.84689 0.0
H4957 H 0.12308 0.30784 0.87716 0.0
H4958 H 0.1291 0.24927 0.82852 0.0
H4959 H 0.1499 0.31023 0.85821 0.0
H4960 H 0.20386 0.30384 0.83106 0.0
H4961 H 0.17857 0.29931 0.85227 0.0
H4962 H 0.14141 0.2647 0.80272 0.0
H4963 H 0.1666 0.26882 0.78188 0.0
C4964 C 0.11243 0.26092 0.84975 0.0
C4965 C 0.11015 0.2773 0.86356 0.0
C4966 C 0.12796 0.26223 0.83901 0.0
C4967 C 0.14179 0.27997 0.84171 0.0
C4968 C 0.1397 0.29625 0.85578 0.0
C4969 C 0.12412 0.29496 0.8665 0.0
C4970 C 0.19036 0.29497 0.82483 0.0
C4971 C 0.18728 0.28681 0.80472 0.0
C4972 C 0.17577 0.29256 0.83693 0.0
C4973 C 0.15778 0.28172 0.82928 0.0
C4974 C 0.15499 0.27298 0.8093 0.0
C4975 C 0.16947 0.27549 0.79725 0.0
H4976 H 0.59762 0.71628 0.93671 0.0
H4977 H 0.56432 0.75321 0.96722 0.0
H4978 H 0.59114 0.69337 0.95951 0.0
H4979 H 0.55786 0.73034 0.99 0.0
H4980 H 0.57034 0.69598 0.03873 0.0
H4981 H 0.57688 0.71908 0.01626 0.0
H4982 H 0.56172 0.66993 0.96726 0.0
H4983 H 0.55436 0.64688 0.98949 0.0
C4984 C 0.58897 0.71949 0.94833 0.0
C4985 C 0.5814 0.73642 0.95021 0.0
C4986 C 0.58519 0.70638 0.96126 0.0
C4987 C 0.57402 0.71016 0.97647 0.0
C4988 C 0.56662 0.72719 0.97847 0.0
C4989 C 0.57018 0.74015 0.96537 0.0
C4990 C 0.56812 0.69009 0.02318 0.0
C4991 C 0.56188 0.66952 0.01599 0.0
C4992 C 0.57197 0.70332 0.01035 0.0
C4993 C 0.5699 0.69622 0.99009 0.0
C4994 C 0.56369 0.67573 0.98285 0.0
C4995 C 0.55956 0.66254 0.99563 0.0
H4996 H 0.12016 0.79574 0.70983 0.0
H4997 H 0.08676 0.75151 0.73706 0.0
H4998 H 0.14817 0.78876 0.72419 0.0
H4999 H 0.1148 0.74432 0.75111 0.0
H5000 H 0.16802 0.71933 0.74698 0.0
H5001 H 0.13955 0.72854 0.73699 0.0
H5002 H 0.16594 0.79076 0.75622 0.0
H5003 H 0.19435 0.78161 0.76659 0.0
C5004 C 0.11878 0.78481 0.71916 0.0
C5005 C 0.10123 0.77408 0.72219 0.0
C5006 C 0.13483 0.78077 0.72734 0.0
C5007 C 0.13363 0.76588 0.73862 0.0
C5008 C 0.11611 0.75565 0.74221 0.0
C5009 C 0.10008 0.75976 0.73414 0.0
C5010 C 0.16766 0.73496 0.74942 0.0
C5011 C 0.18348 0.74972 0.75751 0.0
C5012 C 0.15137 0.74023 0.74367 0.0
C5013 C 0.15058 0.76037 0.74581 0.0
C5014 C 0.16626 0.77514 0.75419 0.0
C5015 C 0.18251 0.76987 0.76007 0.0
H5016 H 0.11134 0.4123 0.47379 0.0
H5017 H 0.08293 0.41518 0.4191 0.0
H5018 H 0.1021 0.44239 0.48941 0.0
H5019 H 0.07374 0.44508 0.43463 0.0
H5020 H 0.07706 0.50943 0.46476 0.0
H5021 H 0.08719 0.47998 0.44906 0.0
H5022 H 0.07337 0.45228 0.49859 0.0
H5023 H 0.06303 0.48172 0.51401 0.0
C5024 C 0.10316 0.41938 0.46513 0.0
C5025 C 0.09798 0.41151 0.44522 0.0
C5026 C 0.09784 0.43653 0.47405 0.0
C5027 C 0.08722 0.44605 0.4632 0.0
C5028 C 0.08219 0.43825 0.44327 0.0
C5029 C 0.0875 0.42116 0.43437 0.0
C5030 C 0.07584 0.49683 0.472 0.0
C5031 C 0.06915 0.49757 0.49039 0.0
C5032 C 0.08176 0.48008 0.46315 0.0
C5033 C 0.08111 0.46387 0.47265 0.0
C5034 C 0.07432 0.46469 0.49109 0.0
C5035 C 0.0684 0.48145 0.4999 0.0
H5036 H 0.42768 0.25924 0.21677 0.0
H5037 H 0.43227 0.32131 0.21464 0.0
H5038 H 0.39791 0.25777 0.22999 0.0
H5039 H 0.40273 0.32026 0.22879 0.0
H5040 H 0.34 0.30436 0.23216 0.0
H5041 H 0.37068 0.30753 0.2207 0.0
H5042 H 0.38299 0.26713 0.25722 0.0
H5043 H 0.35187 0.26338 0.26777 0.0
C5044 C 0.42242 0.27268 0.21954 0.0
C5045 C 0.43221 0.29039 0.21478 0.0
C5046 C 0.4054 0.27191 0.22721 0.0
C5047 C 0.39791 0.28893 0.23059 0.0
C5048 C 0.40794 0.30679 0.22613 0.0
C5049 C 0.42487 0.30746 0.21813 0.0
C5050 C 0.34944 0.29656 0.23803 0.0
C5051 C 0.34412 0.28457 0.25174 0.0
C5052 C 0.36705 0.29834 0.23146 0.0
C5053 C 0.37947 0.28779 0.23819 0.0
C5054 C 0.37381 0.27539 0.25159 0.0
C5055 C 0.35615 0.27351 0.25795 0.0
H5056 H 0.6487 0.5347 0.39244 0.0
H5057 H 0.59477 0.51063 0.36113 0.0
H5058 H 0.63458 0.53754 0.42325 0.0
H5059 H 0.5806 0.51384 0.39198 0.0
H5060 H 0.55918 0.50671 0.45274 0.0
H5061 H 0.5731 0.5035 0.42167 0.0
H5062 H 0.61796 0.55324 0.44654 0.0
H5063 H 0.60387 0.5565 0.47744 0.0
C5064 C 0.6338 0.52987 0.39186 0.0
C5065 C 0.62327 0.52231 0.37345 0.0
C5066 C 0.6255 0.53175 0.40992 0.0
C5067 C 0.60606 0.52602 0.41094 0.0
C5068 C 0.59552 0.51837 0.39255 0.0
C5069 C 0.60381 0.51669 0.37445 0.0
C5070 C 0.57192 0.51716 0.4517 0.0
C5071 C 0.57997 0.53203 0.46824 0.0
C5072 C 0.58008 0.51531 0.43353 0.0
C5073 C 0.59702 0.52805 0.43076 0.0
C5074 C 0.60516 0.54278 0.44743 0.0
C5075 C 0.59688 0.54475 0.4655 0.0
H5076 H 0.34479 0.86351 0.08044 0.0
H5077 H 0.30351 0.88269 0.11583 0.0
H5078 H 0.34789 0.83928 0.10083 0.0
H5079 H 0.30668 0.85856 0.1363 0.0
H5080 H 0.30133 0.79898 0.15437 0.0
H5081 H 0.29916 0.8224 0.13288 0.0
H5082 H 0.35886 0.83747 0.13411 0.0
H5083 H 0.36099 0.8138 0.15557 0.0
C5084 C 0.33657 0.86271 0.09275 0.0
C5085 C 0.32389 0.87492 0.09659 0.0
C5086 C 0.33834 0.84884 0.10438 0.0
C5087 C 0.32745 0.84698 0.12005 0.0
C5088 C 0.31499 0.85943 0.12407 0.0
C5089 C 0.3132 0.87325 0.11242 0.0
C5090 C 0.31397 0.80724 0.14994 0.0
C5091 C 0.33134 0.80472 0.15666 0.0
C5092 C 0.31274 0.82069 0.13776 0.0
C5093 C 0.32885 0.83192 0.13206 0.0
C5094 C 0.34622 0.8289 0.1382 0.0
C5095 C 0.34745 0.81536 0.15041 0.0
H5096 H 0.0072 0.57096 0.87794 0.0
H5097 H 0.95949 0.55529 0.90965 0.0
H5098 H 0.02761 0.57276 0.90701 0.0
H5099 H 0.97979 0.55574 0.93817 0.0
H5100 H 0.01833 0.57194 0.99162 0.0
H5101 H 1.00109 0.57738 0.96318 0.0
H5102 H 0.03702 0.55022 0.92563 0.0
H5103 H 0.05457 0.5455 0.95434 0.0
C5104 C 1.00107 0.56806 0.89115 0.0
C5105 C 0.98173 0.56301 0.89153 0.0
C5106 C 0.01276 0.56884 0.90771 0.0
C5107 C 1.00533 0.56443 0.92488 0.0
C5108 C 0.98599 0.55958 0.92528 0.0
C5109 C 0.97433 0.55901 0.90883 0.0
C5110 C 0.02269 0.56755 0.97725 0.0
C5111 C 0.03771 0.55845 0.97495 0.0
C5112 C 0.01279 0.57051 0.961 0.0
C5113 C 0.01753 0.56398 0.94214 0.0
C5114 C 0.03316 0.55564 0.93997 0.0
C5115 C 0.04324 0.55295 0.95634 0.0
H5116 H 0.28613 0.26832 0.6165 0.0
H5117 H 0.32321 0.23028 0.62622 0.0
H5118 H 0.28526 0.27785 0.65192 0.0
H5119 H 0.32267 0.24012 0.66127 0.0
H5120 H 0.30737 0.30328 0.71966 0.0
H5121 H 0.30561 0.29616 0.68365 0.0
H5122 H 0.29928 0.23352 0.68429 0.0
H5123 H 0.30102 0.24063 0.71974 0.0
C5124 C 0.29416 0.26205 0.62613 0.0
C5125 C 0.30475 0.24849 0.61838 0.0
C5126 C 0.29377 0.26766 0.64644 0.0
C5127 C 0.30377 0.25965 0.65948 0.0
C5128 C 0.31459 0.24641 0.6517 0.0
C5129 C 0.31508 0.24093 0.63152 0.0
C5130 C 0.30515 0.288 0.71198 0.0
C5131 C 0.30414 0.27246 0.72246 0.0
C5132 C 0.30423 0.2839 0.6914 0.0
C5133 C 0.30263 0.26428 0.68107 0.0
C5134 C 0.3009 0.24883 0.6917 0.0
C5135 C 0.30175 0.25288 0.71204 0.0
H5136 H 0.6041 0.54173 0.17927 0.0
H5137 H 0.63651 0.50449 0.14807 0.0
H5138 H 0.59051 0.54655 0.14813 0.0
H5139 H 0.62292 0.5092 0.11716 0.0
H5140 H 0.6106 0.53501 0.0633 0.0
H5141 H 0.62242 0.53099 0.09504 0.0
H5142 H 0.56977 0.53425 0.11693 0.0
H5143 H 0.55763 0.53791 0.08434 0.0
C5144 C 0.60852 0.53451 0.16592 0.0
C5145 C 0.6218 0.5226 0.167 0.0
C5146 C 0.60044 0.5372 0.14772 0.0
C5147 C 0.60534 0.52848 0.12935 0.0
C5148 C 0.61858 0.51659 0.13048 0.0
C5149 C 0.62642 0.51365 0.1486 0.0
C5150 C 0.60132 0.53497 0.07475 0.0
C5151 C 0.58299 0.53708 0.07058 0.0
C5152 C 0.60822 0.53245 0.09331 0.0
C5153 C 0.59734 0.53193 0.10931 0.0
C5154 C 0.57897 0.53451 0.10544 0.0
C5155 C 0.57188 0.53674 0.08651 0.0
H5156 H 0.3214 0.84578 0.93496 0.0
H5157 H 0.28857 0.88055 0.9093 0.0
H5158 H 0.32256 0.82609 0.90256 0.0
H5159 H 0.28969 0.86086 0.87698 0.0
H5160 H 0.32147 0.84382 0.8246 0.0
H5161 H 0.31851 0.85973 0.85765 0.0
H5162 H 0.30061 0.80212 0.87316 0.0
H5163 H 0.30353 0.78592 0.83976 0.0
C5164 C 0.31421 0.84896 0.9224 0.0
C5165 C 0.30496 0.86467 0.92451 0.0
C5166 C 0.31481 0.83768 0.90397 0.0
C5167 C 0.30636 0.84215 0.8874 0.0
C5168 C 0.29644 0.8573 0.88961 0.0
C5169 C 0.29566 0.86841 0.90804 0.0
C5170 C 0.31698 0.83444 0.83496 0.0
C5171 C 0.3123 0.81359 0.82941 0.0
C5172 C 0.31518 0.8436 0.85387 0.0
C5173 C 0.30895 0.83211 0.86772 0.0
C5174 C 0.30527 0.81125 0.86261 0.0
C5175 C 0.3069 0.80204 0.84354 0.0
H5176 H 0.01382 0.54777 0.73636 0.0
H5177 H 0.96993 0.54948 0.69386 0.0
H5178 H 0.03485 0.54621 0.71092 0.0
H5179 H 0.9913 0.54913 0.66862 0.0
H5180 H 0.02816 0.52594 0.62459 0.0
H5181 H 0.00726 0.52651 0.65032 0.0
H5182 H 0.05124 0.56654 0.69033 0.0
H5183 H 0.0722 0.56561 0.66463 0.0
C5184 C 0.00867 0.54786 0.72159 0.0
C5185 C 0.99019 0.54864 0.7171 0.0
C5186 C 0.0208 0.54722 0.70706 0.0
C5187 C 0.01473 0.54752 0.68777 0.0
C5188 C 0.99631 0.54859 0.68331 0.0
C5189 C 0.98414 0.54908 0.69782 0.0
C5190 C 0.03333 0.53479 0.63892 0.0
C5191 C 0.05176 0.54571 0.64269 0.0
C5192 C 0.02136 0.53522 0.65361 0.0
C5193 C 0.02758 0.54667 0.67232 0.0
C5194 C 0.04611 0.55737 0.67614 0.0
C5195 C 0.05811 0.55683 0.66146 0.0
H5196 H 0.3144 0.21679 0.40181 0.0
H5197 H 0.29745 0.26871 0.43186 0.0
H5198 H 0.31401 0.22961 0.37171 0.0
H5199 H 0.29801 0.28186 0.40176 0.0
H5200 H 0.32085 0.30634 0.34724 0.0
H5201 H 0.32081 0.29432 0.37807 0.0
H5202 H 0.29009 0.23634 0.34813 0.0
H5203 H 0.28995 0.24831 0.31739 0.0
C5204 C 0.31046 0.23086 0.40212 0.0
C5205 C 0.30576 0.24149 0.41954 0.0
C5206 C 0.31036 0.23827 0.38476 0.0
C5207 C 0.3059 0.25672 0.38426 0.0
C5208 C 0.30164 0.26766 0.40166 0.0
C5209 C 0.30143 0.26009 0.419 0.0
C5210 C 0.31403 0.29104 0.34721 0.0
C5211 C 0.30539 0.27831 0.32976 0.0
C5212 C 0.31394 0.28419 0.36493 0.0
C5213 C 0.30551 0.26434 0.36558 0.0
C5214 C 0.29686 0.25165 0.34814 0.0
C5215 C 0.29667 0.25858 0.33051 0.0
H5216 H 0.3618 0.5769 0.52809 0.0
H5217 H 0.38071 0.60285 0.47899 0.0
H5218 H 0.38415 0.55587 0.52382 0.0
H5219 H 0.40229 0.58107 0.47405 0.0
H5220 H 0.45357 0.55741 0.48638 0.0
H5221 H 0.43055 0.57753 0.48962 0.0
H5222 H 0.3906 0.52768 0.50206 0.0
H5223 H 0.41406 0.50781 0.49987 0.0
C5224 C 0.37072 0.5781 0.51639 0.0
C5225 C 0.36953 0.59158 0.50392 0.0
C5226 C 0.38332 0.56584 0.51376 0.0
C5227 C 0.39495 0.56675 0.49856 0.0
C5228 C 0.39366 0.58014 0.48602 0.0
C5229 C 0.38114 0.59247 0.48871 0.0
C5230 C 0.4399 0.55075 0.4899 0.0
C5231 C 0.43567 0.53107 0.49303 0.0
C5232 C 0.42663 0.56222 0.49152 0.0
C5233 C 0.40875 0.55421 0.49612 0.0
C5234 C 0.40434 0.53435 0.49875 0.0
C5235 C 0.41768 0.52288 0.49723 0.0
H5236 H 0.90639 0.99215 0.5543 0.0
H5237 H 0.922 0.93642 0.5343 0.0
H5238 H 0.93786 0.0102 0.5517 0.0
H5239 H 0.95354 0.95437 0.53263 0.0
H5240 H 1.0017 0.99241 0.50924 0.0
H5241 H 0.97056 0.975 0.51303 0.0
H5242 H 0.96978 0.01768 0.56563 0.0
H5243 H 1.00107 0.03537 0.56169 0.0
C5244 C 0.9165 0.9837 0.5494 0.0
C5245 C 0.91149 0.96274 0.54446 0.0
C5246 C 0.93466 0.99408 0.54815 0.0
C5247 C 0.94834 0.98382 0.54188 0.0
C5248 C 0.94338 0.96286 0.53724 0.0
C5249 C 0.92526 0.9525 0.53847 0.0
C5250 C 0.99499 0.99816 0.52166 0.0
C5251 C 1.00399 0.01546 0.53508 0.0
C5252 C 0.97707 0.98803 0.52391 0.0
C5253 C 0.96754 0.99481 0.53968 0.0
C5254 C 0.97654 0.01211 0.55316 0.0
C5255 C 0.99455 0.02226 0.55092 0.0
H5256 H 0.89406 0.17676 0.25219 0.0
H5257 H 0.86268 0.16002 0.29908 0.0
H5258 H 0.87879 0.20391 0.25147 0.0
H5259 H 0.8472 0.18747 0.29829 0.0
H5260 H 0.82732 0.2484 0.30063 0.0
H5261 H 0.84178 0.21999 0.30284 0.0
H5262 H 0.85618 0.2187 0.24376 0.0
H5263 H 0.84227 0.24671 0.24192 0.0
C5264 C 0.88376 0.1784 0.26234 0.0
C5265 C 0.88007 0.16509 0.27559 0.0
C5266 C 0.87466 0.19449 0.2619 0.0
C5267 C 0.86103 0.1987 0.27465 0.0
C5268 C 0.85743 0.18555 0.28809 0.0
C5269 C 0.86657 0.16938 0.28854 0.0
C5270 C 0.8334 0.24196 0.28802 0.0
C5271 C 0.83318 0.25037 0.27095 0.0
C5272 C 0.84192 0.22538 0.28926 0.0
C5273 C 0.85092 0.21633 0.27362 0.0
C5274 C 0.85023 0.22475 0.25661 0.0
C5275 C 0.84183 0.2411 0.25541 0.0
H5276 H 0.70109 0.08271 0.05177 0.0
H5277 H 0.69692 0.11129 1.0023 0.0
H5278 H 0.66713 0.07471 0.05123 0.0
H5279 H 0.66315 0.10367 1.00201 0.0
H5280 H 0.60593 0.10633 0.02637 0.0
H5281 H 0.63992 0.11453 0.02834 0.0
H5282 H 0.64014 0.05221 0.02308 0.0
H5283 H 0.60639 0.044 0.02035 0.0
C5284 C 0.69286 0.08721 0.04083 0.0
C5285 C 0.70141 0.09738 0.02695 0.0
C5286 C 0.67358 0.08268 0.04052 0.0
C5287 C 0.66274 0.08872 0.02664 0.0
C5288 C 0.67133 0.09903 0.01291 0.0
C5289 C 0.69053 0.1032 0.01296 0.0
C5290 C 0.61332 0.09447 0.02572 0.0
C5291 C 0.60365 0.07463 0.02389 0.0
C5292 C 0.63263 0.09913 0.02685 0.0
C5293 C 0.64245 0.08397 0.02613 0.0
C5294 C 0.63279 0.06413 0.02402 0.0
C5295 C 0.6135 0.05946 0.02256 0.0
H5296 H 0.26193 0.47603 0.2836 0.0
H5297 H 0.21753 0.42853 0.25266 0.0
H5298 H 0.27659 0.4518 0.29537 0.0
H5299 H 0.23247 0.40401 0.26413 0.0
H5300 H 0.25166 0.37399 0.31439 0.0
H5301 H 0.23764 0.39528 0.29678 0.0
H5302 H 0.29199 0.42482 0.2848 0.0
H5303 H 0.30598 0.40426 0.30301 0.0
C5304 C 0.25551 0.46032 0.27907 0.0
C5305 C 0.23861 0.45407 0.26736 0.0
C5306 C 0.26394 0.44645 0.28567 0.0
C5307 C 0.25562 0.42603 0.2807 0.0
C5308 C 0.23906 0.41969 0.26831 0.0
C5309 C 0.23064 0.43364 0.2616 0.0
C5310 C 0.26056 0.3851 0.30804 0.0
C5311 C 0.27989 0.38763 0.31024 0.0
C5312 C 0.25255 0.39706 0.29772 0.0
C5313 C 0.26377 0.41173 0.2895 0.0
C5314 C 0.28304 0.41377 0.29118 0.0
C5315 C 0.29102 0.40191 0.30149 0.0
H5316 H 0.2197 0.44284 0.05265 0.0
H5317 H 0.24728 0.46551 0.00577 0.0
H5318 H 0.19647 0.46272 0.04934 0.0
H5319 H 0.22432 0.48552 1.00269 0.0
H5320 H 0.19534 0.53684 0.02244 0.0
H5321 H 0.21661 0.51552 0.02661 0.0
H5322 H 0.17055 0.46515 0.02186 0.0
H5323 H 0.14899 0.48628 0.01658 0.0
C5324 C 0.22078 0.45206 0.04165 0.0
C5325 C 0.2353 0.45262 0.02946 0.0
C5326 C 0.20744 0.46331 0.03969 0.0
C5327 C 0.20863 0.4757 0.0258 0.0
C5328 C 0.22312 0.47619 0.01359 0.0
C5329 C 0.2362 0.46466 0.01528 0.0
C5330 C 0.1896 0.52118 0.02198 0.0
C5331 C 0.17033 0.51331 0.01868 0.0
C5332 C 0.20187 0.50899 0.02452 0.0
C5333 C 0.19526 0.48864 0.0243 0.0
C5334 C 0.17601 0.48082 0.02206 0.0
C5335 C 0.16367 0.49299 0.01914 0.0
H5336 H 0.89142 0.95517 0.29621 0.0
H5337 H 0.85628 0.95498 0.24491 0.0
H5338 H 0.87581 0.92114 0.29627 0.0
H5339 H 0.84149 0.92034 0.24419 0.0
H5340 H 0.80679 0.86051 0.25402 0.0
H5341 H 0.82144 0.89528 0.25441 0.0
H5342 H 0.87077 0.88786 0.28518 0.0
H5343 H 0.85568 0.85363 0.28566 0.0
C5344 C 0.88036 0.94809 0.28485 0.0
C5345 C 0.8754 0.95867 0.27062 0.0
C5346 C 0.87144 0.92801 0.28468 0.0
C5347 C 0.85711 0.91715 0.27016 0.0
C5348 C 0.85215 0.92769 0.25589 0.0
C5349 C 0.861 0.94786 0.25614 0.0
C5350 C 0.82065 0.86632 0.26115 0.0
C5351 C 0.82966 0.85384 0.27011 0.0
C5352 C 0.82932 0.88648 0.26116 0.0
C5353 C 0.84759 0.8952 0.26995 0.0
C5354 C 0.85666 0.88249 0.2786 0.0
C5355 C 0.84793 0.86243 0.27872 0.0
H5356 H 0.7334 0.14083 0.77556 0.0
H5357 H 0.77667 0.13354 0.73766 0.0
H5358 H 0.7436 0.17659 0.78005 0.0
H5359 H 0.78633 0.16985 0.74137 0.0
H5360 H 0.80924 0.23599 0.77371 0.0
H5361 H 0.80067 0.1996 0.767 0.0
H5362 H 0.74286 0.20177 0.76088 0.0
H5363 H 0.75154 0.23804 0.76779 0.0
C5364 C 0.74522 0.14687 0.76828 0.0
C5365 C 0.75442 0.13432 0.75648 0.0
C5366 C 0.75085 0.16741 0.77059 0.0
C5367 C 0.76563 0.17599 0.76091 0.0
C5368 C 0.77493 0.16357 0.74907 0.0
C5369 C 0.76933 0.14285 0.74684 0.0
C5370 C 0.79477 0.22861 0.77054 0.0
C5371 C 0.78103 0.23964 0.77063 0.0
C5372 C 0.78985 0.20783 0.76674 0.0
C5373 C 0.77111 0.19788 0.76338 0.0
C5374 C 0.75742 0.20904 0.76363 0.0
C5375 C 0.76234 0.22974 0.76755 0.0
loop_
_geom_bond_atom_site_label_1
_geom_bond_atom_site_label_2
_geom_bond_distance
_geom_bond_site_symmetry_2
_ccdc_geom_bond_type
Li0 N17 1.990 . S
Li0 O60 1.956 . S
Li0 O61 1.970 . S
Li0 O62 1.961 . S
Li1 N25 1.990 . S
Li1 O60 1.970 . S
Li1 O61 1.956 . S
Li1 O63 1.961 . S
Li2 N47 1.990 . S
Li2 O60 1.961 . S
Li2 O62 1.956 . S
Li2 O63 1.970 . S
Li3 N53 1.990 . S
Li3 O61 1.961 . S
Li3 O62 1.970 . S
Li3 O63 1.956 . S
C4 C6 1.348 . S
C4 C7 1.356 . S
C4 O60 1.325 . S
N5 C8 1.314 . S
N5 C9 1.279 . S
C6 C4 1.348 . S
C6 C8 1.353 . S
C6 H64 0.929 . S
C7 C4 1.356 . S
C7 C9 1.358 . S
C7 H65 0.930 . S
C8 N5 1.314 . S
C8 C6 1.353 . S
C8 H66 0.930 . S
C9 N5 1.279 . S
C9 C7 1.358 . S
C9 H67 0.930 . S
C10 C13 1.348 . S
C10 C14 1.356 . S
C10 O61 1.325 . S
C11 N12 1.279 . S
C11 C14 1.358 . S
C11 H68 0.930 . S
N12 C11 1.279 . S
N12 C15 1.314 . S
C13 C10 1.348 . S
C13 C15 1.353 . S
C13 H69 0.929 . S
C14 C10 1.356 . S
C14 C11 1.358 . S
C14 H70 0.930 . S
C15 N12 1.314 . S
C15 C13 1.353 . S
C15 H71 0.930 . S
C16 N17 1.314 . S
C16 C21 1.353 . S
C16 H22 0.930 . S
N17 Li0 1.990 . S
N17 C16 1.314 . S
N17 C19 1.279 . S
C18 C19 1.358 . S
C18 C20 1.356 . S
C18 H72 0.930 . S
C19 N17 1.279 . S
C19 C18 1.358 . S
C19 H23 0.930 . S
C20 C18 1.356 . S
C20 C21 1.348 . S
C21 C16 1.353 . S
C21 C20 1.348 . S
C21 H73 0.929 . S
H22 C16 0.930 . S
H23 C19 0.930 . S
C24 N25 1.314 . S
C24 C26 1.353 . S
C24 H30 0.930 . S
N25 Li1 1.990 . S
N25 C24 1.314 . S
N25 C28 1.279 . S
C26 C24 1.353 . S
C26 C29 1.348 . S
C26 H74 0.929 . S
C27 C28 1.358 . S
C27 C29 1.356 . S
C27 H75 0.930 . S
C28 N25 1.279 . S
C28 C27 1.358 . S
C28 H31 0.930 . S
C29 C26 1.348 . S
C29 C27 1.356 . S
H30 C24 0.930 . S
H31 C28 0.930 . S
C32 C34 1.348 . S
C32 C35 1.356 . S
C32 O62 1.325 . S
N33 C36 1.314 . S
N33 C37 1.279 . S
C34 C32 1.348 . S
C34 C36 1.353 . S
C34 H76 0.929 . S
C35 C32 1.356 . S
C35 C37 1.358 . S
C35 H77 0.930 . S
C36 N33 1.314 . S
C36 C34 1.353 . S
C36 H78 0.930 . S
C37 N33 1.279 . S
C37 C35 1.358 . S
C37 H79 0.930 . S
C38 C39 1.348 . S
C38 C40 1.356 . S
C38 O63 1.325 . S
C39 C38 1.348 . S
C39 C41 1.353 . S
C39 H80 0.929 . S
C40 C38 1.356 . S
C40 C42 1.358 . S
C40 H81 0.930 . S
C41 C39 1.353 . S
C41 N43 1.314 . S
C41 H82 0.930 . S
C42 C40 1.358 . S
C42 N43 1.279 . S
C42 H83 0.930 . S
N43 C41 1.314 . S
N43 C42 1.279 . S
C44 C46 1.353 . S
C44 N47 1.314 . S
C44 H50 0.930 . S
C45 N47 1.279 . S
C45 C48 1.358 . S
C45 H51 0.930 . S
C46 C44 1.353 . S
C46 C49 1.348 . S
C46 H84 0.929 . S
N47 Li2 1.990 . S
N47 C44 1.314 . S
N47 C45 1.279 . S
C48 C45 1.358 . S
C48 C49 1.356 . S
C48 H85 0.930 . S
C49 C46 1.348 . S
C49 C48 1.356 . S
H50 C44 0.930 . S
H51 C45 0.930 . S
C52 N53 1.314 . S
C52 C54 1.353 . S
C52 H58 0.930 . S
N53 Li3 1.990 . S
N53 C52 1.314 . S
N53 C56 1.279 . S
C54 C52 1.353 . S
C54 C57 1.348 . S
C54 H86 0.929 . S
C55 C56 1.358 . S
C55 C57 1.356 . S
C55 H87 0.930 . S
C56 N53 1.279 . S
C56 C55 1.358 . S
C56 H59 0.930 . S
C57 C54 1.348 . S
C57 C55 1.356 . S
H58 C52 0.930 . S
H59 C56 0.930 . S
O60 Li0 1.956 . S
O60 Li1 1.970 . S
O60 Li2 1.961 . S
O60 C4 1.325 . S
O61 Li0 1.970 . S
O61 Li1 1.956 . S
O61 Li3 1.961 . S
O61 C10 1.325 . S
O62 Li0 1.961 . S
O62 Li2 1.956 . S
O62 Li3 1.970 . S
O62 C32 1.325 . S
O63 Li1 1.961 . S
O63 Li2 1.970 . S
O63 Li3 1.956 . S
O63 C38 1.325 . S
H64 C6 0.929 . S
H65 C7 0.930 . S
H66 C8 0.930 . S
H67 C9 0.930 . S
H68 C11 0.930 . S
H69 C13 0.929 . S
H70 C14 0.930 . S
H71 C15 0.930 . S
H72 C18 0.930 . S
H73 C21 0.929 . S
H74 C26 0.929 . S
H75 C27 0.930 . S
H76 C34 0.929 . S
H77 C35 0.930 . S
H78 C36 0.930 . S
H79 C37 0.930 . S
H80 C39 0.929 . S
H81 C40 0.930 . S
H82 C41 0.930 . S
H83 C42 0.930 . S
H84 C46 0.929 . S
H85 C48 0.930 . S
H86 C54 0.929 . S
H87 C55 0.930 . S
Li88 N105 1.990 . S
Li88 O148 1.956 . S
Li88 O149 1.970 . S
Li88 O150 1.961 1_455 S
Li89 N113 1.990 . S
Li89 O148 1.970 . S
Li89 O149 1.956 . S
Li89 O151 1.935 1_455 S
Li90 N135 1.990 . S
Li90 O148 1.961 1_655 S
Li90 O150 1.956 . S
Li90 O151 1.972 . S
Li91 N141 1.990 . S
Li91 O149 1.961 1_655 S
Li91 O150 1.970 . S
Li91 O151 1.992 . S
C92 C94 1.348 . S
C92 C95 1.356 . S
C92 O148 1.325 . S
N93 C96 1.314 . S
N93 C97 1.279 . S
C94 C92 1.348 . S
C94 C96 1.353 . S
C94 H152 0.929 . S
C95 C92 1.356 . S
C95 C97 1.358 . S
C95 H153 0.930 . S
C96 N93 1.314 . S
C96 C94 1.353 . S
C96 H154 0.930 . S
C97 N93 1.279 . S
C97 C95 1.358 . S
C97 H155 0.930 . S
C98 C101 1.348 . S
C98 C102 1.356 . S
C98 O149 1.325 . S
C99 N100 1.279 . S
C99 C102 1.358 . S
C99 H156 0.930 . S
N100 C99 1.279 . S
N100 C103 1.314 . S
C101 C98 1.348 . S
C101 C103 1.353 . S
C101 H157 0.929 . S
C102 C98 1.356 . S
C102 C99 1.358 . S
C102 H158 0.927 1_455 S
C103 N100 1.314 . S
C103 C101 1.353 . S
C103 H159 0.930 . S
C104 N105 1.314 1_655 S
C104 C109 1.353 . S
C104 H110 0.930 . S
N105 Li88 1.990 . S
N105 C104 1.314 1_455 S
N105 C107 1.279 . S
C106 C107 1.358 . S
C106 C108 1.356 . S
C106 H160 0.930 . S
C107 N105 1.279 . S
C107 C106 1.358 . S
C107 H111 0.930 . S
C108 C106 1.356 . S
C108 C109 1.348 1_455 S
C109 C104 1.353 . S
C109 C108 1.348 1_655 S
C109 H161 0.929 . S
H110 C104 0.930 . S
H111 C107 0.930 . S
C112 N113 1.314 . S
C112 C114 1.353 . S
C112 H118 0.930 . S
N113 Li89 1.990 . S
N113 C112 1.314 . S
N113 C116 1.279 . S
C114 C112 1.353 . S
C114 C117 1.348 . S
C114 H162 0.929 . S
C115 C116 1.358 . S
C115 C117 1.356 . S
C115 H163 0.930 . S
C116 N113 1.279 . S
C116 C115 1.358 . S
C116 H119 0.930 . S
C117 C114 1.348 . S
C117 C115 1.356 . S
H118 C112 0.930 . S
H119 C116 0.930 . S
C120 C122 1.348 . S
C120 C123 1.356 . S
C120 O150 1.325 . S
N121 C124 1.314 . S
N121 C125 1.279 . S
C122 C120 1.348 . S
C122 C124 1.353 . S
C122 H164 0.929 . S
C123 C120 1.356 . S
C123 C125 1.358 . S
C123 H165 0.930 . S
C124 N121 1.314 . S
C124 C122 1.353 . S
C124 H166 0.930 . S
C125 N121 1.279 . S
C125 C123 1.358 . S
C125 H167 0.930 . S
C126 C127 1.348 . S
C126 C128 1.356 1_655 S
C126 O151 1.323 . S
C127 C126 1.348 . S
C127 C129 1.353 . S
C127 H168 0.929 . S
C128 C126 1.356 1_455 S
C128 C130 1.358 . S
C128 H169 0.930 . S
C129 C127 1.353 . S
C129 N131 1.314 . S
C129 H170 0.930 . S
C130 C128 1.358 . S
C130 N131 1.278 1_455 S
C130 H171 0.933 . S
N131 C129 1.314 . S
N131 C130 1.278 1_655 S
C132 C134 1.353 . S
C132 N135 1.314 1_455 S
C132 H138 0.930 . S
C133 N135 1.279 . S
C133 C136 1.358 . S
C133 H139 0.930 . S
C134 C132 1.353 . S
C134 C137 1.348 1_455 S
C134 H172 0.929 . S
N135 Li90 1.990 . S
N135 C132 1.314 1_655 S
N135 C133 1.279 . S
C136 C133 1.358 . S
C136 C137 1.356 . S
C136 H173 0.930 . S
C137 C134 1.348 1_655 S
C137 C136 1.356 . S
H138 C132 0.930 . S
H139 C133 0.930 . S
C140 N141 1.314 . S
C140 C142 1.353 . S
C140 H146 0.930 . S
N141 Li91 1.990 . S
N141 C140 1.314 . S
N141 C144 1.279 . S
C142 C140 1.353 . S
C142 C145 1.348 . S
C142 H174 0.929 . S
C143 C144 1.358 . S
C143 C145 1.356 . S
C143 H175 0.930 . S
C144 N141 1.279 . S
C144 C143 1.358 . S
C144 H147 0.930 . S
C145 C142 1.348 . S
C145 C143 1.356 . S
H146 C140 0.930 . S
H147 C144 0.930 . S
O148 Li88 1.956 . S
O148 Li89 1.970 . S
O148 Li90 1.961 1_455 S
O148 C92 1.325 . S
O149 Li88 1.970 . S
O149 Li89 1.956 . S
O149 Li91 1.961 1_455 S
O149 C98 1.325 . S
O150 Li88 1.961 1_655 S
O150 Li90 1.956 . S
O150 Li91 1.970 . S
O150 C120 1.325 . S
O151 Li89 1.935 1_655 S
O151 Li90 1.972 . S
O151 Li91 1.992 . S
O151 C126 1.323 . S
H152 C94 0.929 . S
H153 C95 0.930 . S
H154 C96 0.930 . S
H155 C97 0.930 . S
H156 C99 0.930 . S
H157 C101 0.929 . S
H158 C102 0.927 1_655 S
H159 C103 0.930 . S
H160 C106 0.930 . S
H161 C109 0.929 . S
H162 C114 0.929 . S
H163 C115 0.930 . S
H164 C122 0.929 . S
H165 C123 0.930 . S
H166 C124 0.930 . S
H167 C125 0.930 . S
H168 C127 0.929 . S
H169 C128 0.930 . S
H170 C129 0.930 . S
H171 C130 0.933 . S
H172 C134 0.929 . S
H173 C136 0.930 . S
H174 C142 0.929 . S
H175 C143 0.930 . S
Li176 N193 1.990 . S
Li176 O236 1.956 . S
Li176 O237 1.970 . S
Li176 O238 1.961 . S
Li177 N201 1.990 . S
Li177 O236 1.970 . S
Li177 O237 1.956 . S
Li177 O239 1.961 . S
Li178 N223 1.990 . S
Li178 O236 1.961 . S
Li178 O238 1.956 . S
Li178 O239 1.970 . S
Li179 N229 1.990 . S
Li179 O237 1.961 . S
Li179 O238 1.970 . S
Li179 O239 1.956 . S
C180 C182 1.348 . S
C180 C183 1.356 . S
C180 O236 1.325 . S
N181 C184 1.314 . S
N181 C185 1.279 . S
C182 C180 1.348 . S
C182 C184 1.353 . S
C182 H240 0.929 . S
C183 C180 1.356 . S
C183 C185 1.358 . S
C183 H241 0.930 . S
C184 N181 1.314 . S
C184 C182 1.353 . S
C184 H242 0.930 . S
C185 N181 1.279 . S
C185 C183 1.358 . S
C185 H243 0.930 . S
C186 C189 1.348 . S
C186 C190 1.356 . S
C186 O237 1.325 . S
C187 N188 1.279 . S
C187 C190 1.358 . S
C187 H244 0.930 . S
N188 C187 1.279 . S
N188 C191 1.314 . S
C189 C186 1.348 . S
C189 C191 1.353 . S
C189 H245 0.929 . S
C190 C186 1.356 . S
C190 C187 1.358 . S
C190 H246 0.930 . S
C191 N188 1.314 . S
C191 C189 1.353 . S
C191 H247 0.930 . S
C192 N193 1.314 . S
C192 C197 1.353 . S
C192 H198 0.930 . S
N193 Li176 1.990 . S
N193 C192 1.314 . S
N193 C195 1.279 . S
C194 C195 1.358 . S
C194 C196 1.356 . S
C194 H248 0.930 . S
C195 N193 1.279 . S
C195 C194 1.358 . S
C195 H199 0.930 . S
C196 C194 1.356 . S
C196 C197 1.348 . S
C197 C192 1.353 . S
C197 C196 1.348 . S
C197 H249 0.929 . S
H198 C192 0.930 . S
H199 C195 0.930 . S
C200 N201 1.314 . S
C200 C202 1.353 . S
C200 H206 0.930 . S
N201 Li177 1.990 . S
N201 C200 1.314 . S
N201 C204 1.279 . S
C202 C200 1.353 . S
C202 C205 1.348 . S
C202 H250 0.929 . S
C203 C204 1.358 . S
C203 C205 1.356 . S
C203 H251 0.930 . S
C204 N201 1.279 . S
C204 C203 1.358 . S
C204 H207 0.930 . S
C205 C202 1.348 . S
C205 C203 1.356 . S
H206 C200 0.930 . S
H207 C204 0.930 . S
C208 C210 1.348 . S
C208 C211 1.356 . S
C208 O238 1.325 . S
N209 C212 1.314 . S
N209 C213 1.279 . S
C210 C208 1.348 . S
C210 C212 1.353 . S
C210 H252 0.929 . S
C211 C208 1.356 . S
C211 C213 1.358 . S
C211 H253 0.930 . S
C212 N209 1.314 . S
C212 C210 1.353 . S
C212 H254 0.930 . S
C213 N209 1.279 . S
C213 C211 1.358 . S
C213 H255 0.930 . S
C214 C215 1.348 . S
C214 C216 1.356 . S
C214 O239 1.325 . S
C215 C214 1.348 . S
C215 C217 1.353 . S
C215 H256 0.929 . S
C216 C214 1.356 . S
C216 C218 1.358 . S
C216 H257 0.930 . S
C217 C215 1.353 . S
C217 N219 1.314 . S
C217 H258 0.930 . S
C218 C216 1.358 . S
C218 N219 1.279 . S
C218 H259 0.930 . S
N219 C217 1.314 . S
N219 C218 1.279 . S
C220 C222 1.353 . S
C220 N223 1.314 . S
C220 H226 0.930 . S
C221 N223 1.279 . S
C221 C224 1.358 . S
C221 H227 0.930 . S
C222 C220 1.353 . S
C222 C225 1.348 . S
C222 H260 0.929 . S
N223 Li178 1.990 . S
N223 C220 1.314 . S
N223 C221 1.279 . S
C224 C221 1.358 . S
C224 C225 1.356 . S
C224 H261 0.930 . S
C225 C222 1.348 . S
C225 C224 1.356 . S
H226 C220 0.930 . S
H227 C221 0.930 . S
C228 N229 1.314 . S
C228 C230 1.353 . S
C228 H234 0.930 . S
N229 Li179 1.990 . S
N229 C228 1.314 . S
N229 C232 1.279 . S
C230 C228 1.353 . S
C230 C233 1.348 . S
C230 H262 0.929 . S
C231 C232 1.358 . S
C231 C233 1.356 . S
C231 H263 0.930 . S
C232 N229 1.279 . S
C232 C231 1.358 . S
C232 H235 0.930 . S
C233 C230 1.348 . S
C233 C231 1.356 . S
H234 C228 0.930 . S
H235 C232 0.930 . S
O236 Li176 1.956 . S
O236 Li177 1.970 . S
O236 Li178 1.961 . S
O236 C180 1.325 . S
O237 Li176 1.970 . S
O237 Li177 1.956 . S
O237 Li179 1.961 . S
O237 C186 1.325 . S
O238 Li176 1.961 . S
O238 Li178 1.956 . S
O238 Li179 1.970 . S
O238 C208 1.325 . S
O239 Li177 1.961 . S
O239 Li178 1.970 . S
O239 Li179 1.956 . S
O239 C214 1.325 . S
H240 C182 0.929 . S
H241 C183 0.930 . S
H242 C184 0.930 . S
H243 C185 0.930 . S
H244 C187 0.930 . S
H245 C189 0.929 . S
H246 C190 0.930 . S
H247 C191 0.930 . S
H248 C194 0.930 . S
H249 C197 0.929 . S
H250 C202 0.929 . S
H251 C203 0.930 . S
H252 C210 0.929 . S
H253 C211 0.930 . S
H254 C212 0.930 . S
H255 C213 0.930 . S
H256 C215 0.929 . S
H257 C216 0.930 . S
H258 C217 0.930 . S
H259 C218 0.930 . S
H260 C222 0.929 . S
H261 C224 0.930 . S
H262 C230 0.929 . S
H263 C231 0.930 . S
Li264 N281 1.990 . S
Li264 O324 1.956 . S
Li264 O325 1.970 . S
Li264 O326 1.961 . S
Li265 N289 1.990 . S
Li265 O324 1.970 . S
Li265 O325 1.956 . S
Li265 O327 1.961 . S
Li266 N311 1.990 . S
Li266 O324 1.961 . S
Li266 O326 1.956 . S
Li266 O327 1.970 . S
Li267 N317 1.990 . S
Li267 O325 1.961 . S
Li267 O326 1.970 . S
Li267 O327 1.956 . S
C268 C270 1.348 . S
C268 C271 1.356 . S
C268 O324 1.325 . S
N269 C272 1.314 . S
N269 C273 1.279 . S
C270 C268 1.348 . S
C270 C272 1.353 . S
C270 H328 0.929 . S
C271 C268 1.356 . S
C271 C273 1.358 . S
C271 H329 0.930 . S
C272 N269 1.314 . S
C272 C270 1.353 . S
C272 H330 0.930 . S
C273 N269 1.279 . S
C273 C271 1.358 . S
C273 H331 0.930 . S
C274 C277 1.348 . S
C274 C278 1.356 . S
C274 O325 1.325 . S
C275 N276 1.279 . S
C275 C278 1.358 . S
C275 H332 0.930 . S
N276 C275 1.279 . S
N276 C279 1.314 . S
C277 C274 1.348 . S
C277 C279 1.353 . S
C277 H333 0.929 . S
C278 C274 1.356 . S
C278 C275 1.358 . S
C278 H334 0.930 . S
C279 N276 1.314 . S
C279 C277 1.353 . S
C279 H335 0.930 . S
C280 N281 1.314 . S
C280 C285 1.353 . S
C280 H286 0.930 . S
N281 Li264 1.990 . S
N281 C280 1.314 . S
N281 C283 1.279 . S
C282 C283 1.358 . S
C282 C284 1.356 . S
C282 H336 0.930 . S
C283 N281 1.279 . S
C283 C282 1.358 . S
C283 H287 0.930 . S
C284 C282 1.356 . S
C284 C285 1.348 . S
C285 C280 1.353 . S
C285 C284 1.348 . S
C285 H337 0.929 . S
H286 C280 0.930 . S
H287 C283 0.930 . S
C288 N289 1.314 . S
C288 C290 1.353 . S
C288 H294 0.930 . S
N289 Li265 1.990 . S
N289 C288 1.314 . S
N289 C292 1.279 . S
C290 C288 1.353 . S
C290 C293 1.348 . S
C290 H338 0.929 . S
C291 C292 1.358 . S
C291 C293 1.356 . S
C291 H339 0.930 . S
C292 N289 1.279 . S
C292 C291 1.358 . S
C292 H295 0.930 . S
C293 C290 1.348 . S
C293 C291 1.356 . S
H294 C288 0.930 . S
H295 C292 0.930 . S
C296 C298 1.348 . S
C296 C299 1.356 . S
C296 O326 1.325 . S
N297 C300 1.314 . S
N297 C301 1.279 . S
C298 C296 1.348 . S
C298 C300 1.353 . S
C298 H340 0.929 . S
C299 C296 1.356 . S
C299 C301 1.358 . S
C299 H341 0.930 . S
C300 N297 1.314 . S
C300 C298 1.353 . S
C300 H342 0.930 . S
C301 N297 1.279 . S
C301 C299 1.358 . S
C301 H343 0.930 . S
C302 C303 1.348 . S
C302 C304 1.356 . S
C302 O327 1.325 . S
C303 C302 1.348 . S
C303 C305 1.353 . S
C303 H344 0.929 . S
C304 C302 1.356 . S
C304 C306 1.358 . S
C304 H345 0.930 . S
C305 C303 1.353 . S
C305 N307 1.314 . S
C305 H346 0.930 . S
C306 C304 1.358 . S
C306 N307 1.279 . S
C306 H347 0.930 . S
N307 C305 1.314 . S
N307 C306 1.279 . S
C308 C310 1.353 . S
C308 N311 1.314 . S
C308 H314 0.930 . S
C309 N311 1.279 . S
C309 C312 1.358 . S
C309 H315 0.930 . S
C310 C308 1.353 . S
C310 C313 1.348 . S
C310 H348 0.929 . S
N311 Li266 1.990 . S
N311 C308 1.314 . S
N311 C309 1.279 . S
C312 C309 1.358 . S
C312 C313 1.356 . S
C312 H349 0.930 . S
C313 C310 1.348 . S
C313 C312 1.356 . S
H314 C308 0.930 . S
H315 C309 0.930 . S
C316 N317 1.314 . S
C316 C318 1.353 . S
C316 H322 0.930 . S
N317 Li267 1.990 . S
N317 C316 1.314 . S
N317 C320 1.279 . S
C318 C316 1.353 . S
C318 C321 1.348 . S
C318 H350 0.929 . S
C319 C320 1.358 . S
C319 C321 1.356 . S
C319 H351 0.930 . S
C320 N317 1.279 . S
C320 C319 1.358 . S
C320 H323 0.930 . S
C321 C318 1.348 . S
C321 C319 1.356 . S
H322 C316 0.930 . S
H323 C320 0.930 . S
O324 Li264 1.956 . S
O324 Li265 1.970 . S
O324 Li266 1.961 . S
O324 C268 1.325 . S
O325 Li264 1.970 . S
O325 Li265 1.956 . S
O325 Li267 1.961 . S
O325 C274 1.325 . S
O326 Li264 1.961 . S
O326 Li266 1.956 . S
O326 Li267 1.970 . S
O326 C296 1.325 . S
O327 Li265 1.961 . S
O327 Li266 1.970 . S
O327 Li267 1.956 . S
O327 C302 1.325 . S
H328 C270 0.929 . S
H329 C271 0.930 . S
H330 C272 0.930 . S
H331 C273 0.930 . S
H332 C275 0.930 . S
H333 C277 0.929 . S
H334 C278 0.930 . S
H335 C279 0.930 . S
H336 C282 0.930 . S
H337 C285 0.929 . S
H338 C290 0.929 . S
H339 C291 0.930 . S
H340 C298 0.929 . S
H341 C299 0.930 . S
H342 C300 0.930 . S
H343 C301 0.930 . S
H344 C303 0.929 . S
H345 C304 0.930 . S
H346 C305 0.930 . S
H347 C306 0.930 . S
H348 C310 0.929 . S
H349 C312 0.930 . S
H350 C318 0.929 . S
H351 C319 0.930 . S
Li352 N369 1.990 . S
Li352 O412 1.956 . S
Li352 O413 1.970 . S
Li352 O414 1.961 . S
Li353 N377 1.990 . S
Li353 O412 1.970 . S
Li353 O413 1.956 . S
Li353 O415 1.961 . S
Li354 N399 1.990 . S
Li354 O412 1.961 . S
Li354 O414 1.956 . S
Li354 O415 1.970 . S
Li355 N405 1.990 . S
Li355 O413 1.961 . S
Li355 O414 1.970 . S
Li355 O415 1.956 . S
C356 C358 1.348 . S
C356 C359 1.356 . S
C356 O412 1.325 . S
N357 C360 1.314 . S
N357 C361 1.279 . S
C358 C356 1.348 . S
C358 C360 1.353 . S
C358 H416 0.929 . S
C359 C356 1.356 . S
C359 C361 1.358 . S
C359 H417 0.930 . S
C360 N357 1.314 . S
C360 C358 1.353 . S
C360 H418 0.930 . S
C361 N357 1.279 . S
C361 C359 1.358 . S
C361 H419 0.930 . S
C362 C365 1.348 . S
C362 C366 1.356 . S
C362 O413 1.325 . S
C363 N364 1.279 . S
C363 C366 1.358 . S
C363 H420 0.930 . S
N364 C363 1.279 . S
N364 C367 1.314 . S
C365 C362 1.348 . S
C365 C367 1.353 . S
C365 H421 0.929 . S
C366 C362 1.356 . S
C366 C363 1.358 . S
C366 H422 0.930 . S
C367 N364 1.314 . S
C367 C365 1.353 . S
C367 H423 0.930 . S
C368 N369 1.314 . S
C368 C373 1.353 . S
C368 H374 0.930 . S
N369 Li352 1.990 . S
N369 C368 1.314 . S
N369 C371 1.279 . S
C370 C371 1.358 . S
C370 C372 1.356 . S
C370 H424 0.930 . S
C371 N369 1.279 . S
C371 C370 1.358 . S
C371 H375 0.930 . S
C372 C370 1.356 . S
C372 C373 1.348 . S
C373 C368 1.353 . S
C373 C372 1.348 . S
C373 H425 0.929 . S
H374 C368 0.930 . S
H375 C371 0.930 . S
C376 N377 1.314 . S
C376 C378 1.353 . S
C376 H382 0.930 . S
N377 Li353 1.990 . S
N377 C376 1.314 . S
N377 C380 1.279 . S
C378 C376 1.353 . S
C378 C381 1.348 . S
C378 H426 0.929 . S
C379 C380 1.358 . S
C379 C381 1.356 . S
C379 H427 0.930 . S
C380 N377 1.279 . S
C380 C379 1.358 . S
C380 H383 0.930 . S
C381 C378 1.348 . S
C381 C379 1.356 . S
H382 C376 0.930 . S
H383 C380 0.930 . S
C384 C386 1.348 . S
C384 C387 1.356 . S
C384 O414 1.325 . S
N385 C388 1.314 . S
N385 C389 1.279 . S
C386 C384 1.348 . S
C386 C388 1.353 . S
C386 H428 0.929 . S
C387 C384 1.356 . S
C387 C389 1.358 . S
C387 H429 0.930 . S
C388 N385 1.314 . S
C388 C386 1.353 . S
C388 H430 0.930 . S
C389 N385 1.279 . S
C389 C387 1.358 . S
C389 H431 0.930 . S
C390 C391 1.348 . S
C390 C392 1.356 . S
C390 O415 1.325 . S
C391 C390 1.348 . S
C391 C393 1.353 . S
C391 H432 0.929 . S
C392 C390 1.356 . S
C392 C394 1.358 . S
C392 H433 0.930 . S
C393 C391 1.353 . S
C393 N395 1.314 . S
C393 H434 0.930 . S
C394 C392 1.358 . S
C394 N395 1.279 . S
C394 H435 0.930 . S
N395 C393 1.314 . S
N395 C394 1.279 . S
C396 C398 1.353 . S
C396 N399 1.314 . S
C396 H402 0.930 . S
C397 N399 1.279 . S
C397 C400 1.358 . S
C397 H403 0.930 . S
C398 C396 1.353 . S
C398 C401 1.348 . S
C398 H436 0.929 . S
N399 Li354 1.990 . S
N399 C396 1.314 . S
N399 C397 1.279 . S
C400 C397 1.358 . S
C400 C401 1.356 . S
C400 H437 0.930 . S
C401 C398 1.348 . S
C401 C400 1.356 . S
H402 C396 0.930 . S
H403 C397 0.930 . S
C404 N405 1.314 . S
C404 C406 1.353 . S
C404 H410 0.930 . S
N405 Li355 1.990 . S
N405 C404 1.314 . S
N405 C408 1.279 . S
C406 C404 1.353 . S
C406 C409 1.348 . S
C406 H438 0.929 . S
C407 C408 1.358 . S
C407 C409 1.356 . S
C407 H439 0.930 . S
C408 N405 1.279 . S
C408 C407 1.358 . S
C408 H411 0.930 . S
C409 C406 1.348 . S
C409 C407 1.356 . S
H410 C404 0.930 . S
H411 C408 0.930 . S
O412 Li352 1.956 . S
O412 Li353 1.970 . S
O412 Li354 1.961 . S
O412 C356 1.325 . S
O413 Li352 1.970 . S
O413 Li353 1.956 . S
O413 Li355 1.961 . S
O413 C362 1.325 . S
O414 Li352 1.961 . S
O414 Li354 1.956 . S
O414 Li355 1.970 . S
O414 C384 1.325 . S
O415 Li353 1.961 . S
O415 Li354 1.970 . S
O415 Li355 1.956 . S
O415 C390 1.325 . S
H416 C358 0.929 . S
H417 C359 0.930 . S
H418 C360 0.930 . S
H419 C361 0.930 . S
H420 C363 0.930 . S
H421 C365 0.929 . S
H422 C366 0.930 . S
H423 C367 0.930 . S
H424 C370 0.930 . S
H425 C373 0.929 . S
H426 C378 0.929 . S
H427 C379 0.930 . S
H428 C386 0.929 . S
H429 C387 0.930 . S
H430 C388 0.930 . S
H431 C389 0.930 . S
H432 C391 0.929 . S
H433 C392 0.930 . S
H434 C393 0.930 . S
H435 C394 0.930 . S
H436 C398 0.929 . S
H437 C400 0.930 . S
H438 C406 0.929 . S
H439 C407 0.930 . S
Li440 N457 1.990 . S
Li440 O500 1.956 . S
Li440 O501 1.970 . S
Li440 O502 1.961 . S
Li441 N465 1.990 . S
Li441 O500 1.970 . S
Li441 O501 1.956 . S
Li441 O503 1.961 . S
Li442 N487 1.990 . S
Li442 O500 1.961 . S
Li442 O502 1.956 . S
Li442 O503 1.970 . S
Li443 N493 1.990 . S
Li443 O501 1.961 . S
Li443 O502 1.970 . S
Li443 O503 1.956 . S
C444 C446 1.348 . S
C444 C447 1.356 . S
C444 O500 1.325 . S
N445 C448 1.314 . S
N445 C449 1.279 . S
C446 C444 1.348 . S
C446 C448 1.353 . S
C446 H504 0.929 . S
C447 C444 1.356 . S
C447 C449 1.358 . S
C447 H505 0.930 . S
C448 N445 1.314 . S
C448 C446 1.353 . S
C448 H506 0.930 . S
C449 N445 1.279 . S
C449 C447 1.358 . S
C449 H507 0.930 . S
C450 C453 1.348 . S
C450 C454 1.356 . S
C450 O501 1.325 . S
C451 N452 1.279 . S
C451 C454 1.358 . S
C451 H508 0.930 . S
N452 C451 1.279 . S
N452 C455 1.314 . S
C453 C450 1.348 . S
C453 C455 1.353 . S
C453 H509 0.929 . S
C454 C450 1.356 . S
C454 C451 1.358 . S
C454 H510 0.930 . S
C455 N452 1.314 . S
C455 C453 1.353 . S
C455 H511 0.930 . S
C456 N457 1.314 . S
C456 C461 1.353 . S
C456 H462 0.930 . S
N457 Li440 1.990 . S
N457 C456 1.314 . S
N457 C459 1.279 . S
C458 C459 1.358 . S
C458 C460 1.356 . S
C458 H512 0.930 . S
C459 N457 1.279 . S
C459 C458 1.358 . S
C459 H463 0.930 . S
C460 C458 1.356 . S
C460 C461 1.348 . S
C461 C456 1.353 . S
C461 C460 1.348 . S
C461 H513 0.929 . S
H462 C456 0.930 . S
H463 C459 0.930 . S
C464 N465 1.314 . S
C464 C466 1.353 . S
C464 H470 0.930 . S
N465 Li441 1.990 . S
N465 C464 1.314 . S
N465 C468 1.279 . S
C466 C464 1.353 . S
C466 C469 1.348 . S
C466 H514 0.929 . S
C467 C468 1.358 . S
C467 C469 1.356 . S
C467 H515 0.930 . S
C468 N465 1.279 . S
C468 C467 1.358 . S
C468 H471 0.930 . S
C469 C466 1.348 . S
C469 C467 1.356 . S
H470 C464 0.930 . S
H471 C468 0.930 . S
C472 C474 1.348 . S
C472 C475 1.356 . S
C472 O502 1.325 . S
N473 C476 1.314 . S
N473 C477 1.279 . S
C474 C472 1.348 . S
C474 C476 1.353 . S
C474 H516 0.929 . S
C475 C472 1.356 . S
C475 C477 1.358 . S
C475 H517 0.930 . S
C476 N473 1.314 . S
C476 C474 1.353 . S
C476 H518 0.930 . S
C477 N473 1.279 . S
C477 C475 1.358 . S
C477 H519 0.930 . S
C478 C479 1.348 . S
C478 C480 1.356 . S
C478 O503 1.325 . S
C479 C478 1.348 . S
C479 C481 1.353 . S
C479 H520 0.929 . S
C480 C478 1.356 . S
C480 C482 1.358 . S
C480 H521 0.930 . S
C481 C479 1.353 . S
C481 N483 1.314 . S
C481 H522 0.930 . S
C482 C480 1.358 . S
C482 N483 1.279 . S
C482 H523 0.930 . S
N483 C481 1.314 . S
N483 C482 1.279 . S
C484 C486 1.353 . S
C484 N487 1.314 . S
C484 H490 0.930 . S
C485 N487 1.279 . S
C485 C488 1.358 . S
C485 H491 0.930 . S
C486 C484 1.353 . S
C486 C489 1.348 . S
C486 H524 0.929 . S
N487 Li442 1.990 . S
N487 C484 1.314 . S
N487 C485 1.279 . S
C488 C485 1.358 . S
C488 C489 1.356 . S
C488 H525 0.930 . S
C489 C486 1.348 . S
C489 C488 1.356 . S
H490 C484 0.930 . S
H491 C485 0.930 . S
C492 N493 1.314 . S
C492 C494 1.353 . S
C492 H498 0.930 . S
N493 Li443 1.990 . S
N493 C492 1.314 . S
N493 C496 1.279 . S
C494 C492 1.353 . S
C494 C497 1.348 . S
C494 H526 0.929 . S
C495 C496 1.358 . S
C495 C497 1.356 . S
C495 H527 0.930 . S
C496 N493 1.279 . S
C496 C495 1.358 . S
C496 H499 0.930 . S
C497 C494 1.348 . S
C497 C495 1.356 . S
H498 C492 0.930 . S
H499 C496 0.930 . S
O500 Li440 1.956 . S
O500 Li441 1.970 . S
O500 Li442 1.961 . S
O500 C444 1.325 . S
O501 Li440 1.970 . S
O501 Li441 1.956 . S
O501 Li443 1.961 . S
O501 C450 1.325 . S
O502 Li440 1.961 . S
O502 Li442 1.956 . S
O502 Li443 1.970 . S
O502 C472 1.325 . S
O503 Li441 1.961 . S
O503 Li442 1.970 . S
O503 Li443 1.956 . S
O503 C478 1.325 . S
H504 C446 0.929 . S
H505 C447 0.930 . S
H506 C448 0.930 . S
H507 C449 0.930 . S
H508 C451 0.930 . S
H509 C453 0.929 . S
H510 C454 0.930 . S
H511 C455 0.930 . S
H512 C458 0.930 . S
H513 C461 0.929 . S
H514 C466 0.929 . S
H515 C467 0.930 . S
H516 C474 0.929 . S
H517 C475 0.930 . S
H518 C476 0.930 . S
H519 C477 0.930 . S
H520 C479 0.929 . S
H521 C480 0.930 . S
H522 C481 0.930 . S
H523 C482 0.930 . S
H524 C486 0.929 . S
H525 C488 0.930 . S
H526 C494 0.929 . S
H527 C495 0.930 . S
Li528 N545 1.990 . S
Li528 O588 1.956 . S
Li528 O589 1.970 . S
Li528 O590 1.961 . S
Li529 N553 1.990 . S
Li529 O588 1.970 . S
Li529 O589 1.956 . S
Li529 O591 1.961 . S
Li530 N575 1.990 . S
Li530 O588 1.961 . S
Li530 O590 1.956 . S
Li530 O591 1.970 . S
Li531 N581 1.990 . S
Li531 O589 1.961 . S
Li531 O590 1.970 . S
Li531 O591 1.956 . S
C532 C534 1.348 . S
C532 C535 1.356 . S
C532 O588 1.325 . S
N533 C536 1.314 . S
N533 C537 1.279 . S
C534 C532 1.348 . S
C534 C536 1.353 . S
C534 H592 0.929 . S
C535 C532 1.356 . S
C535 C537 1.358 . S
C535 H593 0.930 . S
C536 N533 1.314 . S
C536 C534 1.353 . S
C536 H594 0.930 . S
C537 N533 1.279 . S
C537 C535 1.358 . S
C537 H595 0.930 . S
C538 C541 1.348 . S
C538 C542 1.356 . S
C538 O589 1.325 . S
C539 N540 1.279 . S
C539 C542 1.358 . S
C539 H596 0.930 . S
N540 C539 1.279 . S
N540 C543 1.314 . S
C541 C538 1.348 . S
C541 C543 1.353 . S
C541 H597 0.929 . S
C542 C538 1.356 . S
C542 C539 1.358 . S
C542 H598 0.930 . S
C543 N540 1.314 . S
C543 C541 1.353 . S
C543 H599 0.930 . S
C544 N545 1.314 . S
C544 C549 1.353 . S
C544 H550 0.930 . S
N545 Li528 1.990 . S
N545 C544 1.314 . S
N545 C547 1.279 . S
C546 C547 1.358 . S
C546 C548 1.356 . S
C546 H600 0.930 . S
C547 N545 1.279 . S
C547 C546 1.358 . S
C547 H551 0.930 . S
C548 C546 1.356 . S
C548 C549 1.348 . S
C549 C544 1.353 . S
C549 C548 1.348 . S
C549 H601 0.929 . S
H550 C544 0.930 . S
H551 C547 0.930 . S
C552 N553 1.314 . S
C552 C554 1.353 . S
C552 H558 0.930 . S
N553 Li529 1.990 . S
N553 C552 1.314 . S
N553 C556 1.279 . S
C554 C552 1.353 . S
C554 C557 1.348 . S
C554 H602 0.929 . S
C555 C556 1.358 . S
C555 C557 1.356 . S
C555 H603 0.930 . S
C556 N553 1.279 . S
C556 C555 1.358 . S
C556 H559 0.930 . S
C557 C554 1.348 . S
C557 C555 1.356 . S
H558 C552 0.930 . S
H559 C556 0.930 . S
C560 C562 1.348 . S
C560 C563 1.356 . S
C560 O590 1.325 . S
N561 C564 1.314 . S
N561 C565 1.279 . S
C562 C560 1.348 . S
C562 C564 1.353 . S
C562 H604 0.929 . S
C563 C560 1.356 . S
C563 C565 1.358 . S
C563 H605 0.930 . S
C564 N561 1.314 . S
C564 C562 1.353 . S
C564 H606 0.930 . S
C565 N561 1.279 . S
C565 C563 1.358 . S
C565 H607 0.930 . S
C566 C567 1.348 . S
C566 C568 1.356 . S
C566 O591 1.325 . S
C567 C566 1.348 . S
C567 C569 1.353 . S
C567 H608 0.929 . S
C568 C566 1.356 . S
C568 C570 1.358 . S
C568 H609 0.930 . S
C569 C567 1.353 . S
C569 N571 1.314 . S
C569 H610 0.930 . S
C570 C568 1.358 . S
C570 N571 1.279 . S
C570 H611 0.930 . S
N571 C569 1.314 . S
N571 C570 1.279 . S
C572 C574 1.353 . S
C572 N575 1.314 . S
C572 H578 0.930 . S
C573 N575 1.279 . S
C573 C576 1.358 . S
C573 H579 0.930 . S
C574 C572 1.353 . S
C574 C577 1.348 . S
C574 H612 0.929 . S
N575 Li530 1.990 . S
N575 C572 1.314 . S
N575 C573 1.279 . S
C576 C573 1.358 . S
C576 C577 1.356 . S
C576 H613 0.930 . S
C577 C574 1.348 . S
C577 C576 1.356 . S
H578 C572 0.930 . S
H579 C573 0.930 . S
C580 N581 1.314 . S
C580 C582 1.353 . S
C580 H586 0.930 . S
N581 Li531 1.990 . S
N581 C580 1.314 . S
N581 C584 1.279 . S
C582 C580 1.353 . S
C582 C585 1.348 . S
C582 H614 0.929 . S
C583 C584 1.358 . S
C583 C585 1.356 . S
C583 H615 0.930 . S
C584 N581 1.279 . S
C584 C583 1.358 . S
C584 H587 0.930 . S
C585 C582 1.348 . S
C585 C583 1.356 . S
H586 C580 0.930 . S
H587 C584 0.930 . S
O588 Li528 1.956 . S
O588 Li529 1.970 . S
O588 Li530 1.961 . S
O588 C532 1.325 . S
O589 Li528 1.970 . S
O589 Li529 1.956 . S
O589 Li531 1.961 . S
O589 C538 1.325 . S
O590 Li528 1.961 . S
O590 Li530 1.956 . S
O590 Li531 1.970 . S
O590 C560 1.325 . S
O591 Li529 1.961 . S
O591 Li530 1.970 . S
O591 Li531 1.956 . S
O591 C566 1.325 . S
H592 C534 0.929 . S
H593 C535 0.930 . S
H594 C536 0.930 . S
H595 C537 0.930 . S
H596 C539 0.930 . S
H597 C541 0.929 . S
H598 C542 0.930 . S
H599 C543 0.930 . S
H600 C546 0.930 . S
H601 C549 0.929 . S
H602 C554 0.929 . S
H603 C555 0.930 . S
H604 C562 0.929 . S
H605 C563 0.930 . S
H606 C564 0.930 . S
H607 C565 0.930 . S
H608 C567 0.929 . S
H609 C568 0.930 . S
H610 C569 0.930 . S
H611 C570 0.930 . S
H612 C574 0.929 . S
H613 C576 0.930 . S
H614 C582 0.929 . S
H615 C583 0.930 . S
Li616 N633 1.990 . S
Li616 O676 1.960 1_455 S
Li616 O677 1.970 . S
Li616 O678 1.961 . S
Li617 N641 1.951 1_455 S
Li617 O676 1.966 1_455 S
Li617 O677 1.987 . S
Li617 O679 1.999 . S
Li618 N663 1.990 . S
Li618 O676 1.966 1_455 S
Li618 O678 1.956 . S
Li618 O679 1.970 . S
Li619 N669 1.990 . S
Li619 O677 1.961 . S
Li619 O678 1.970 . S
Li619 O679 1.956 . S
C620 C622 1.348 . S
C620 C623 1.356 . S
C620 O676 1.320 . S
N621 C624 1.314 . S
N621 C625 1.279 . S
C622 C620 1.348 . S
C622 C624 1.353 . S
C622 H680 0.929 . S
C623 C620 1.356 . S
C623 C625 1.358 . S
C623 H681 0.930 . S
C624 N621 1.314 . S
C624 C622 1.353 . S
C624 H682 0.930 . S
C625 N621 1.279 . S
C625 C623 1.358 . S
C625 H683 0.930 1_556 S
C626 C629 1.348 . S
C626 C630 1.356 . S
C626 O677 1.325 . S
C627 N628 1.279 . S
C627 C630 1.358 . S
C627 H684 0.930 . S
N628 C627 1.279 . S
N628 C631 1.314 . S
C629 C626 1.348 . S
C629 C631 1.353 . S
C629 H685 0.929 . S
C630 C626 1.356 . S
C630 C627 1.358 . S
C630 H686 0.930 . S
C631 N628 1.314 . S
C631 C629 1.353 . S
C631 H687 0.930 . S
C632 N633 1.314 . S
C632 C637 1.353 . S
C632 H638 0.930 . S
N633 Li616 1.990 . S
N633 C632 1.314 . S
N633 C635 1.279 . S
C634 C635 1.358 . S
C634 C636 1.356 . S
C634 H688 0.933 . S
C635 N633 1.279 . S
C635 C634 1.358 . S
C635 H639 0.943 . S
C636 C634 1.356 . S
C636 C637 1.348 . S
C637 C632 1.353 . S
C637 C636 1.348 . S
C637 H689 0.929 . S
H638 C632 0.930 . S
H639 C635 0.943 . S
C640 N641 1.314 . S
C640 C642 1.353 . S
C640 H646 0.930 . S
N641 Li617 1.951 1_655 S
N641 C640 1.314 . S
N641 C644 1.279 . S
C642 C640 1.353 . S
C642 C645 1.348 . S
C642 H690 0.929 . S
C643 C644 1.358 . S
C643 C645 1.356 . S
C643 H691 0.930 . S
C644 N641 1.279 . S
C644 C643 1.358 . S
C644 H647 0.930 . S
C645 C642 1.348 . S
C645 C643 1.356 . S
H646 C640 0.930 . S
H647 C644 0.930 . S
C648 C650 1.348 . S
C648 C651 1.356 . S
C648 O678 1.325 . S
N649 C652 1.314 . S
N649 C653 1.279 . S
C650 C648 1.348 . S
C650 C652 1.353 . S
C650 H692 0.929 . S
C651 C648 1.356 . S
C651 C653 1.358 . S
C651 H693 0.930 . S
C652 N649 1.314 . S
C652 C650 1.353 . S
C652 H694 0.930 . S
C653 N649 1.279 . S
C653 C651 1.358 . S
C653 H695 0.930 1_556 S
C654 C655 1.348 . S
C654 C656 1.356 . S
C654 O679 1.325 . S
C655 C654 1.348 . S
C655 C657 1.353 . S
C655 H696 0.929 . S
C656 C654 1.356 . S
C656 C658 1.358 . S
C656 H697 0.930 . S
C657 C655 1.353 . S
C657 N659 1.314 . S
C657 H698 0.930 . S
C658 C656 1.358 . S
C658 N659 1.279 . S
C658 H699 0.930 . S
N659 C657 1.314 . S
N659 C658 1.279 . S
C660 C662 1.353 1_455 S
C660 N663 1.314 . S
C660 H666 0.930 1_455 S
C661 N663 1.279 . S
C661 C664 1.358 . S
C661 H667 0.930 . S
C662 C660 1.353 1_655 S
C662 C665 1.348 1_655 S
C662 H700 0.929 . S
N663 Li618 1.990 . S
N663 C660 1.314 . S
N663 C661 1.279 . S
C664 C661 1.358 . S
C664 C665 1.356 . S
C664 H701 0.930 . S
C665 C662 1.348 1_455 S
C665 C664 1.356 . S
H666 C660 0.930 1_655 S
H667 C661 0.930 . S
C668 N669 1.314 . S
C668 C670 1.353 . S
C668 H674 0.930 . S
N669 Li619 1.990 . S
N669 C668 1.314 . S
N669 C672 1.279 . S
C670 C668 1.353 . S
C670 C673 1.348 . S
C670 H702 0.929 . S
C671 C672 1.358 . S
C671 C673 1.356 . S
C671 H703 0.930 . S
C672 N669 1.279 . S
C672 C671 1.358 . S
C672 H675 0.930 . S
C673 C670 1.348 . S
C673 C671 1.356 . S
H674 C668 0.930 . S
H675 C672 0.930 . S
O676 Li616 1.960 1_655 S
O676 Li617 1.966 1_655 S
O676 Li618 1.966 1_655 S
O676 C620 1.320 . S
O677 Li616 1.970 . S
O677 Li617 1.987 . S
O677 Li619 1.961 . S
O677 C626 1.325 . S
O678 Li616 1.961 . S
O678 Li618 1.956 . S
O678 Li619 1.970 . S
O678 C648 1.325 . S
O679 Li617 1.999 . S
O679 Li618 1.970 . S
O679 Li619 1.956 . S
O679 C654 1.325 . S
H680 C622 0.929 . S
H681 C623 0.930 . S
H682 C624 0.930 . S
H683 C625 0.930 1_554 S
H684 C627 0.930 . S
H685 C629 0.929 . S
H686 C630 0.930 . S
H687 C631 0.930 . S
H688 C634 0.933 . S
H689 C637 0.929 . S
H690 C642 0.929 . S
H691 C643 0.930 . S
H692 C650 0.929 . S
H693 C651 0.930 . S
H694 C652 0.930 . S
H695 C653 0.930 1_554 S
H696 C655 0.929 . S
H697 C656 0.930 . S
H698 C657 0.930 . S
H699 C658 0.930 . S
H700 C662 0.929 . S
H701 C664 0.930 . S
H702 C670 0.929 . S
H703 C671 0.930 . S
Li704 N721 1.990 . S
Li704 O764 1.956 . S
Li704 O765 1.970 . S
Li704 O766 1.961 . S
Li705 N729 1.990 1_545 S
Li705 O764 1.970 . S
Li705 O765 1.956 . S
Li705 O767 1.961 . S
Li706 N751 1.990 . S
Li706 O764 1.961 . S
Li706 O766 1.956 . S
Li706 O767 1.970 . S
Li707 N757 1.990 . S
Li707 O765 1.961 . S
Li707 O766 1.970 . S
Li707 O767 1.956 . S
C708 C710 1.348 . S
C708 C711 1.356 . S
C708 O764 1.325 1_565 S
N709 C712 1.314 . S
N709 C713 1.279 . S
C710 C708 1.348 . S
C710 C712 1.353 . S
C710 H768 0.929 . S
C711 C708 1.356 . S
C711 C713 1.358 . S
C711 H769 0.930 1_565 S
C712 N709 1.314 . S
C712 C710 1.353 . S
C712 H770 0.930 . S
C713 N709 1.279 . S
C713 C711 1.358 . S
C713 H771 0.930 . S
C714 C717 1.348 . S
C714 C718 1.356 . S
C714 O765 1.325 . S
C715 N716 1.279 . S
C715 C718 1.358 . S
C715 H772 0.930 . S
N716 C715 1.279 . S
N716 C719 1.314 . S
C717 C714 1.348 . S
C717 C719 1.353 . S
C717 H773 0.929 . S
C718 C714 1.356 . S
C718 C715 1.358 . S
C718 H774 0.930 . S
C719 N716 1.314 . S
C719 C717 1.353 . S
C719 H775 0.930 . S
C720 N721 1.314 . S
C720 C725 1.353 . S
C720 H726 0.930 . S
N721 Li704 1.990 . S
N721 C720 1.314 . S
N721 C723 1.279 . S
C722 C723 1.358 . S
C722 C724 1.356 . S
C722 H776 0.930 . S
C723 N721 1.279 . S
C723 C722 1.358 . S
C723 H727 0.930 . S
C724 C722 1.356 . S
C724 C725 1.348 . S
C725 C720 1.353 . S
C725 C724 1.348 . S
C725 H777 0.929 . S
H726 C720 0.930 . S
H727 C723 0.930 . S
C728 N729 1.314 . S
C728 C730 1.353 . S
C728 H734 0.930 . S
N729 Li705 1.990 1_565 S
N729 C728 1.314 . S
N729 C732 1.279 . S
C730 C728 1.353 . S
C730 C733 1.348 . S
C730 H778 0.929 . S
C731 C732 1.358 . S
C731 C733 1.356 . S
C731 H779 0.930 . S
C732 N729 1.279 . S
C732 C731 1.358 . S
C732 H735 0.930 . S
C733 C730 1.348 . S
C733 C731 1.356 . S
H734 C728 0.930 . S
H735 C732 0.930 . S
C736 C738 1.348 . S
C736 C739 1.356 . S
C736 O766 1.325 . S
N737 C740 1.314 . S
N737 C741 1.279 . S
C738 C736 1.348 . S
C738 C740 1.353 . S
C738 H780 0.929 . S
C739 C736 1.356 . S
C739 C741 1.358 . S
C739 H781 0.930 . S
C740 N737 1.314 . S
C740 C738 1.353 . S
C740 H782 0.930 . S
C741 N737 1.279 . S
C741 C739 1.358 . S
C741 H783 0.930 . S
C742 C743 1.348 . S
C742 C744 1.356 . S
C742 O767 1.325 . S
C743 C742 1.348 . S
C743 C745 1.353 . S
C743 H784 0.929 . S
C744 C742 1.356 . S
C744 C746 1.358 . S
C744 H785 0.930 . S
C745 C743 1.353 . S
C745 N747 1.314 . S
C745 H786 0.930 . S
C746 C744 1.358 . S
C746 N747 1.279 . S
C746 H787 0.930 . S
N747 C745 1.314 . S
N747 C746 1.279 . S
C748 C750 1.353 . S
C748 N751 1.314 . S
C748 H754 0.979 . S
C749 N751 1.279 . S
C749 C752 1.358 . S
C749 H755 0.930 . S
C750 C748 1.353 . S
C750 C753 1.348 . S
C750 H788 0.929 1_545 S
N751 Li706 1.990 . S
N751 C748 1.314 . S
N751 C749 1.279 . S
C752 C749 1.358 . S
C752 C753 1.356 . S
C752 H789 0.930 . S
C753 C750 1.348 . S
C753 C752 1.356 . S
H754 C748 0.979 . S
H755 C749 0.930 . S
C756 N757 1.314 . S
C756 C758 1.353 . S
C756 H762 0.930 . S
N757 Li707 1.990 . S
N757 C756 1.314 . S
N757 C760 1.279 . S
C758 C756 1.353 . S
C758 C761 1.348 . S
C758 H790 0.929 . S
C759 C760 1.358 . S
C759 C761 1.356 . S
C759 H791 0.930 . S
C760 N757 1.279 . S
C760 C759 1.358 . S
C760 H763 0.930 . S
C761 C758 1.348 . S
C761 C759 1.356 . S
H762 C756 0.930 . S
H763 C760 0.930 . S
O764 Li704 1.956 . S
O764 Li705 1.970 . S
O764 Li706 1.961 . S
O764 C708 1.325 1_545 S
O765 Li704 1.970 . S
O765 Li705 1.956 . S
O765 Li707 1.961 . S
O765 C714 1.325 . S
O766 Li704 1.961 . S
O766 Li706 1.956 . S
O766 Li707 1.970 . S
O766 C736 1.325 . S
O767 Li705 1.961 . S
O767 Li706 1.970 . S
O767 Li707 1.956 . S
O767 C742 1.325 . S
H768 C710 0.929 . S
H769 C711 0.930 1_545 S
H770 C712 0.930 . S
H771 C713 0.930 . S
H772 C715 0.930 . S
H773 C717 0.929 . S
H774 C718 0.930 . S
H775 C719 0.930 . S
H776 C722 0.930 . S
H777 C725 0.929 . S
H778 C730 0.929 . S
H779 C731 0.930 . S
H780 C738 0.929 . S
H781 C739 0.930 . S
H782 C740 0.930 . S
H783 C741 0.930 . S
H784 C743 0.929 . S
H785 C744 0.930 . S
H786 C745 0.930 . S
H787 C746 0.930 . S
H788 C750 0.929 1_565 S
H789 C752 0.930 . S
H790 C758 0.929 . S
H791 C759 0.930 . S
Li792 N809 1.990 . S
Li792 O852 1.956 . S
Li792 O853 1.970 . S
Li792 O854 1.961 . S
Li793 N817 1.990 . S
Li793 O852 1.970 . S
Li793 O853 1.956 . S
Li793 O855 1.961 . S
Li794 N839 1.990 . S
Li794 O852 1.961 . S
Li794 O854 1.956 . S
Li794 O855 1.970 . S
Li795 N845 1.990 . S
Li795 O853 1.961 . S
Li795 O854 1.970 . S
Li795 O855 1.956 . S
C796 C798 1.348 . S
C796 C799 1.356 . S
C796 O852 1.325 . S
N797 C800 1.314 . S
N797 C801 1.279 . S
C798 C796 1.348 . S
C798 C800 1.353 . S
C798 H856 0.929 . S
C799 C796 1.356 . S
C799 C801 1.358 . S
C799 H857 0.930 . S
C800 N797 1.314 . S
C800 C798 1.353 . S
C800 H858 0.930 . S
C801 N797 1.279 . S
C801 C799 1.358 . S
C801 H859 0.930 . S
C802 C805 1.348 . S
C802 C806 1.356 . S
C802 O853 1.325 . S
C803 N804 1.279 . S
C803 C806 1.358 . S
C803 H860 0.930 . S
N804 C803 1.279 . S
N804 C807 1.314 . S
C805 C802 1.348 . S
C805 C807 1.353 . S
C805 H861 0.929 . S
C806 C802 1.356 . S
C806 C803 1.358 . S
C806 H862 0.930 . S
C807 N804 1.314 . S
C807 C805 1.353 . S
C807 H863 0.930 . S
C808 N809 1.314 . S
C808 C813 1.353 . S
C808 H814 0.930 . S
N809 Li792 1.990 . S
N809 C808 1.314 . S
N809 C811 1.279 . S
C810 C811 1.358 . S
C810 C812 1.356 . S
C810 H864 0.930 . S
C811 N809 1.279 . S
C811 C810 1.358 . S
C811 H815 0.930 . S
C812 C810 1.356 . S
C812 C813 1.348 . S
C813 C808 1.353 . S
C813 C812 1.348 . S
C813 H865 0.929 . S
H814 C808 0.930 . S
H815 C811 0.930 . S
C816 N817 1.314 . S
C816 C818 1.353 . S
C816 H822 0.930 . S
N817 Li793 1.990 . S
N817 C816 1.314 . S
N817 C820 1.279 . S
C818 C816 1.353 . S
C818 C821 1.348 . S
C818 H866 0.929 . S
C819 C820 1.358 . S
C819 C821 1.356 . S
C819 H867 0.930 . S
C820 N817 1.279 . S
C820 C819 1.358 . S
C820 H823 0.930 . S
C821 C818 1.348 . S
C821 C819 1.356 . S
H822 C816 0.930 . S
H823 C820 0.930 . S
C824 C826 1.348 . S
C824 C827 1.356 . S
C824 O854 1.325 . S
N825 C828 1.314 . S
N825 C829 1.279 . S
C826 C824 1.348 . S
C826 C828 1.353 . S
C826 H868 0.929 . S
C827 C824 1.356 . S
C827 C829 1.358 . S
C827 H869 0.930 . S
C828 N825 1.314 . S
C828 C826 1.353 . S
C828 H870 0.930 . S
C829 N825 1.279 . S
C829 C827 1.358 . S
C829 H871 0.930 . S
C830 C831 1.348 . S
C830 C832 1.356 . S
C830 O855 1.325 . S
C831 C830 1.348 . S
C831 C833 1.353 . S
C831 H872 0.929 . S
C832 C830 1.356 . S
C832 C834 1.358 . S
C832 H873 0.930 . S
C833 C831 1.353 . S
C833 N835 1.314 . S
C833 H874 0.930 . S
C834 C832 1.358 . S
C834 N835 1.279 . S
C834 H875 0.930 . S
N835 C833 1.314 . S
N835 C834 1.279 . S
C836 C838 1.353 . S
C836 N839 1.314 . S
C836 H842 0.930 . S
C837 N839 1.279 . S
C837 C840 1.358 . S
C837 H843 0.930 . S
C838 C836 1.353 . S
C838 C841 1.348 . S
C838 H876 0.929 . S
N839 Li794 1.990 . S
N839 C836 1.314 . S
N839 C837 1.279 . S
C840 C837 1.358 . S
C840 C841 1.356 . S
C840 H877 0.930 . S
C841 C838 1.348 . S
C841 C840 1.356 . S
H842 C836 0.930 . S
H843 C837 0.930 . S
C844 N845 1.314 . S
C844 C846 1.353 . S
C844 H850 0.930 . S
N845 Li795 1.990 . S
N845 C844 1.314 . S
N845 C848 1.279 . S
C846 C844 1.353 . S
C846 C849 1.348 . S
C846 H878 0.929 . S
C847 C848 1.358 . S
C847 C849 1.356 . S
C847 H879 0.930 . S
C848 N845 1.279 . S
C848 C847 1.358 . S
C848 H851 0.930 . S
C849 C846 1.348 . S
C849 C847 1.356 . S
H850 C844 0.930 . S
H851 C848 0.930 . S
O852 Li792 1.956 . S
O852 Li793 1.970 . S
O852 Li794 1.961 . S
O852 C796 1.325 . S
O853 Li792 1.970 . S
O853 Li793 1.956 . S
O853 Li795 1.961 . S
O853 C802 1.325 . S
O854 Li792 1.961 . S
O854 Li794 1.956 . S
O854 Li795 1.970 . S
O854 C824 1.325 . S
O855 Li793 1.961 . S
O855 Li794 1.970 . S
O855 Li795 1.956 . S
O855 C830 1.325 . S
H856 C798 0.929 . S
H857 C799 0.930 . S
H858 C800 0.930 . S
H859 C801 0.930 . S
H860 C803 0.930 . S
H861 C805 0.929 . S
H862 C806 0.930 . S
H863 C807 0.930 . S
H864 C810 0.930 . S
H865 C813 0.929 . S
H866 C818 0.929 . S
H867 C819 0.930 . S
H868 C826 0.929 . S
H869 C827 0.930 . S
H870 C828 0.930 . S
H871 C829 0.930 . S
H872 C831 0.929 . S
H873 C832 0.930 . S
H874 C833 0.930 . S
H875 C834 0.930 . S
H876 C838 0.929 . S
H877 C840 0.930 . S
H878 C846 0.929 . S
H879 C847 0.930 . S
Li880 N897 1.990 . S
Li880 O940 1.956 . S
Li880 O941 1.970 . S
Li880 O942 1.981 . S
Li881 N905 1.990 . S
Li881 O940 1.967 . S
Li881 O941 1.978 . S
Li881 O943 1.942 1_545 S
Li882 N927 1.990 . S
Li882 O940 1.961 1_565 S
Li882 O942 1.930 1_565 S
Li882 O943 1.970 . S
Li883 N933 1.990 . S
Li883 O941 1.961 1_565 S
Li883 O942 1.972 1_565 S
Li883 O943 1.956 . S
C884 C886 1.348 . S
C884 C887 1.356 . S
C884 O940 1.325 . S
N885 C888 1.314 . S
N885 C889 1.279 . S
C886 C884 1.348 . S
C886 C888 1.353 . S
C886 H944 0.929 . S
C887 C884 1.356 . S
C887 C889 1.358 . S
C887 H945 0.930 . S
C888 N885 1.314 . S
C888 C886 1.353 . S
C888 H946 0.930 . S
C889 N885 1.279 . S
C889 C887 1.358 . S
C889 H947 0.930 . S
C890 C893 1.348 . S
C890 C894 1.356 . S
C890 O941 1.325 . S
C891 N892 1.279 . S
C891 C894 1.358 . S
C891 H948 0.930 . S
N892 C891 1.279 . S
N892 C895 1.314 . S
C893 C890 1.348 . S
C893 C895 1.353 . S
C893 H949 0.929 . S
C894 C890 1.356 . S
C894 C891 1.358 . S
C894 H950 0.930 . S
C895 N892 1.314 . S
C895 C893 1.353 . S
C895 H951 0.930 . S
C896 N897 1.314 . S
C896 C901 1.353 . S
C896 H902 0.930 . S
N897 Li880 1.990 . S
N897 C896 1.314 . S
N897 C899 1.279 . S
C898 C899 1.358 . S
C898 C900 1.356 . S
C898 H952 0.930 . S
C899 N897 1.279 . S
C899 C898 1.358 . S
C899 H903 0.930 . S
C900 C898 1.356 . S
C900 C901 1.348 . S
C901 C896 1.353 . S
C901 C900 1.348 . S
C901 H953 0.929 . S
H902 C896 0.930 . S
H903 C899 0.930 . S
C904 N905 1.291 1_565 S
C904 C906 1.353 . S
C904 H910 0.930 . S
N905 Li881 1.990 . S
N905 C904 1.291 1_545 S
N905 C908 1.302 . S
C906 C904 1.353 . S
C906 C909 1.353 1_565 S
C906 H954 0.929 . S
C907 C908 1.358 . S
C907 C909 1.350 . S
C907 H955 0.930 . S
C908 N905 1.302 . S
C908 C907 1.358 . S
C908 H911 0.930 . S
C909 C906 1.353 1_545 S
C909 C907 1.350 . S
H910 C904 0.930 . S
H911 C908 0.930 . S
C912 C914 1.346 1_545 S
C912 C915 1.357 . S
C912 O942 1.325 . S
N913 C916 1.323 . S
N913 C917 1.274 1_565 S
C914 C912 1.346 1_565 S
C914 C916 1.353 . S
C914 H956 0.929 . S
C915 C912 1.357 . S
C915 C917 1.358 . S
C915 H957 0.930 . S
C916 N913 1.323 . S
C916 C914 1.353 . S
C916 H958 0.930 . S
C917 N913 1.274 1_545 S
C917 C915 1.358 . S
C917 H959 0.930 . S
C918 C919 1.348 . S
C918 C920 1.356 . S
C918 O943 1.325 . S
C919 C918 1.348 . S
C919 C921 1.353 . S
C919 H960 0.929 . S
C920 C918 1.356 . S
C920 C922 1.358 . S
C920 H961 0.930 . S
C921 C919 1.353 . S
C921 N923 1.314 . S
C921 H962 0.930 . S
C922 C920 1.358 . S
C922 N923 1.279 . S
C922 H963 0.930 . S
N923 C921 1.314 . S
N923 C922 1.279 . S
C924 C926 1.353 . S
C924 N927 1.314 . S
C924 H930 0.930 . S
C925 N927 1.279 . S
C925 C928 1.358 . S
C925 H931 0.930 . S
C926 C924 1.353 . S
C926 C929 1.348 . S
C926 H964 0.929 . S
N927 Li882 1.990 . S
N927 C924 1.314 . S
N927 C925 1.279 . S
C928 C925 1.358 . S
C928 C929 1.356 . S
C928 H965 0.930 . S
C929 C926 1.348 . S
C929 C928 1.356 . S
H930 C924 0.930 . S
H931 C925 0.930 . S
C932 N933 1.314 1_545 S
C932 C934 1.353 . S
C932 H938 0.930 . S
N933 Li883 1.990 . S
N933 C932 1.314 1_565 S
N933 C936 1.279 . S
C934 C932 1.353 . S
C934 C937 1.348 1_545 S
C934 H966 0.929 . S
C935 C936 1.358 . S
C935 C937 1.356 . S
C935 H967 0.930 . S
C936 N933 1.279 . S
C936 C935 1.358 . S
C936 H939 0.930 . S
C937 C934 1.348 1_565 S
C937 C935 1.356 . S
H938 C932 0.930 . S
H939 C936 0.930 . S
O940 Li880 1.956 . S
O940 Li881 1.967 . S
O940 Li882 1.961 1_545 S
O940 C884 1.325 . S
O941 Li880 1.970 . S
O941 Li881 1.978 . S
O941 Li883 1.961 1_545 S
O941 C890 1.325 . S
O942 Li880 1.981 . S
O942 Li882 1.930 1_545 S
O942 Li883 1.972 1_545 S
O942 C912 1.325 . S
O943 Li881 1.942 1_565 S
O943 Li882 1.970 . S
O943 Li883 1.956 . S
O943 C918 1.325 . S
H944 C886 0.929 . S
H945 C887 0.930 . S
H946 C888 0.930 . S
H947 C889 0.930 . S
H948 C891 0.930 . S
H949 C893 0.929 . S
H950 C894 0.930 . S
H951 C895 0.930 . S
H952 C898 0.930 . S
H953 C901 0.929 . S
H954 C906 0.929 . S
H955 C907 0.930 . S
H956 C914 0.929 . S
H957 C915 0.930 . S
H958 C916 0.930 . S
H959 C917 0.930 . S
H960 C919 0.929 . S
H961 C920 0.930 . S
H962 C921 0.930 . S
H963 C922 0.930 . S
H964 C926 0.929 . S
H965 C928 0.930 . S
H966 C934 0.929 . S
H967 C935 0.930 . S
Li968 N985 1.990 . S
Li968 O1028 1.956 . S
Li968 O1029 1.970 . S
Li968 O1030 1.961 1_554 S
Li969 N993 1.990 . S
Li969 O1028 1.970 . S
Li969 O1029 1.956 . S
Li969 O1031 1.961 . S
Li970 N1015 1.990 . S
Li970 O1028 1.961 . S
Li970 O1030 1.956 1_554 S
Li970 O1031 1.970 . S
Li971 N1021 1.990 . S
Li971 O1029 1.961 1_556 S
Li971 O1030 1.970 . S
Li971 O1031 1.956 1_556 S
C972 C974 1.348 . S
C972 C975 1.356 . S
C972 O1028 1.325 . S
N973 C976 1.314 . S
N973 C977 1.279 . S
C974 C972 1.348 . S
C974 C976 1.353 . S
C974 H1032 0.929 . S
C975 C972 1.356 . S
C975 C977 1.358 . S
C975 H1033 0.930 . S
C976 N973 1.314 . S
C976 C974 1.353 . S
C976 H1034 0.930 . S
C977 N973 1.279 . S
C977 C975 1.358 . S
C977 H1035 0.930 1_565 S
C978 C981 1.348 . S
C978 C982 1.356 . S
C978 O1029 1.325 . S
C979 N980 1.279 . S
C979 C982 1.358 . S
C979 H1036 0.930 1_554 S
N980 C979 1.279 . S
N980 C983 1.314 . S
C981 C978 1.348 . S
C981 C983 1.353 . S
C981 H1037 0.929 . S
C982 C978 1.356 . S
C982 C979 1.358 . S
C982 H1038 0.934 . S
C983 N980 1.314 . S
C983 C981 1.353 . S
C983 H1039 0.930 . S
C984 N985 1.314 . S
C984 C989 1.353 . S
C984 H990 0.930 1_554 S
N985 Li968 1.990 . S
N985 C984 1.314 . S
N985 C987 1.279 . S
C986 C987 1.358 . S
C986 C988 1.356 . S
C986 H1040 0.930 . S
C987 N985 1.279 . S
C987 C986 1.358 . S
C987 H991 0.930 . S
C988 C986 1.356 . S
C988 C989 1.348 . S
C989 C984 1.353 . S
C989 C988 1.348 . S
C989 H1041 0.929 1_554 S
H990 C984 0.930 1_556 S
H991 C987 0.930 . S
C992 N993 1.314 . S
C992 C994 1.353 . S
C992 H998 0.930 . S
N993 Li969 1.990 . S
N993 C992 1.314 . S
N993 C996 1.279 . S
C994 C992 1.353 . S
C994 C997 1.348 . S
C994 H1042 0.929 . S
C995 C996 1.358 . S
C995 C997 1.356 . S
C995 H1043 0.930 . S
C996 N993 1.279 . S
C996 C995 1.358 . S
C996 H999 0.930 . S
C997 C994 1.348 . S
C997 C995 1.356 . S
H998 C992 0.930 . S
H999 C996 0.930 . S
C1000 C1002 1.348 . S
C1000 C1003 1.356 . S
C1000 O1030 1.325 . S
N1001 C1004 1.314 . S
N1001 C1005 1.279 . S
C1002 C1000 1.348 . S
C1002 C1004 1.353 . S
C1002 H1044 0.929 . S
C1003 C1000 1.356 . S
C1003 C1005 1.358 . S
C1003 H1045 0.930 . S
C1004 N1001 1.314 . S
C1004 C1002 1.353 . S
C1004 H1046 0.930 . S
C1005 N1001 1.279 . S
C1005 C1003 1.358 . S
C1005 H1047 0.930 . S
C1006 C1007 1.348 . S
C1006 C1008 1.356 . S
C1006 O1031 1.325 . S
C1007 C1006 1.348 . S
C1007 C1009 1.353 . S
C1007 H1048 0.929 . S
C1008 C1006 1.356 . S
C1008 C1010 1.358 . S
C1008 H1049 0.930 . S
C1009 C1007 1.353 . S
C1009 N1011 1.314 . S
C1009 H1050 0.930 . S
C1010 C1008 1.358 . S
C1010 N1011 1.279 . S
C1010 H1051 0.930 . S
N1011 C1009 1.314 . S
N1011 C1010 1.279 . S
C1012 C1014 1.353 . S
C1012 N1015 1.314 . S
C1012 H1018 0.930 . S
C1013 N1015 1.279 . S
C1013 C1016 1.358 . S
C1013 H1019 0.930 1_554 S
C1014 C1012 1.353 . S
C1014 C1017 1.348 . S
C1014 H1052 0.929 . S
N1015 Li970 1.990 . S
N1015 C1012 1.314 . S
N1015 C1013 1.279 . S
C1016 C1013 1.358 . S
C1016 C1017 1.356 . S
C1016 H1053 0.930 1_554 S
C1017 C1014 1.348 . S
C1017 C1016 1.356 . S
H1018 C1012 0.930 . S
H1019 C1013 0.930 1_556 S
C1020 N1021 1.314 . S
C1020 C1022 1.353 . S
C1020 H1026 0.930 . S
N1021 Li971 1.990 . S
N1021 C1020 1.314 . S
N1021 C1024 1.279 . S
C1022 C1020 1.353 . S
C1022 C1025 1.348 . S
C1022 H1054 0.929 . S
C1023 C1024 1.358 . S
C1023 C1025 1.356 . S
C1023 H1055 0.930 . S
C1024 N1021 1.279 . S
C1024 C1023 1.358 . S
C1024 H1027 0.930 . S
C1025 C1022 1.348 . S
C1025 C1023 1.356 . S
H1026 C1020 0.930 . S
H1027 C1024 0.930 . S
O1028 Li968 1.956 . S
O1028 Li969 1.970 . S
O1028 Li970 1.961 . S
O1028 C972 1.325 . S
O1029 Li968 1.970 . S
O1029 Li969 1.956 . S
O1029 Li971 1.961 1_554 S
O1029 C978 1.325 . S
O1030 Li968 1.961 1_556 S
O1030 Li970 1.956 1_556 S
O1030 Li971 1.970 . S
O1030 C1000 1.325 . S
O1031 Li969 1.961 . S
O1031 Li970 1.970 . S
O1031 Li971 1.956 1_554 S
O1031 C1006 1.325 . S
H1032 C974 0.929 . S
H1033 C975 0.930 . S
H1034 C976 0.930 . S
H1035 C977 0.930 1_545 S
H1036 C979 0.930 1_556 S
H1037 C981 0.929 . S
H1038 C982 0.934 . S
H1039 C983 0.930 . S
H1040 C986 0.930 . S
H1041 C989 0.929 1_556 S
H1042 C994 0.929 . S
H1043 C995 0.930 . S
H1044 C1002 0.929 . S
H1045 C1003 0.930 . S
H1046 C1004 0.930 . S
H1047 C1005 0.930 . S
H1048 C1007 0.929 . S
H1049 C1008 0.930 . S
H1050 C1009 0.930 . S
H1051 C1010 0.930 . S
H1052 C1014 0.929 . S
H1053 C1016 0.930 1_556 S
H1054 C1022 0.929 . S
H1055 C1023 0.930 . S
Li1056 N1073 1.990 . S
Li1056 O1116 1.956 . S
Li1056 O1117 1.970 . S
Li1056 O1118 1.961 . S
Li1057 N1081 1.990 . S
Li1057 O1116 1.970 . S
Li1057 O1117 1.956 . S
Li1057 O1119 1.961 . S
Li1058 N1103 1.990 . S
Li1058 O1116 1.961 . S
Li1058 O1118 1.956 . S
Li1058 O1119 1.970 . S
Li1059 N1109 1.990 1_554 S
Li1059 O1117 1.961 . S
Li1059 O1118 1.970 . S
Li1059 O1119 1.956 . S
C1060 C1062 1.348 . S
C1060 C1063 1.356 . S
C1060 O1116 1.325 . S
N1061 C1064 1.314 . S
N1061 C1065 1.279 . S
C1062 C1060 1.348 . S
C1062 C1064 1.353 . S
C1062 H1120 0.929 . S
C1063 C1060 1.356 . S
C1063 C1065 1.358 . S
C1063 H1121 0.930 . S
C1064 N1061 1.314 . S
C1064 C1062 1.353 . S
C1064 H1122 0.930 . S
C1065 N1061 1.279 . S
C1065 C1063 1.358 . S
C1065 H1123 0.930 . S
C1066 C1069 1.348 . S
C1066 C1070 1.356 . S
C1066 O1117 1.325 . S
C1067 N1068 1.279 . S
C1067 C1070 1.358 . S
C1067 H1124 0.930 . S
N1068 C1067 1.279 . S
N1068 C1071 1.314 . S
C1069 C1066 1.348 . S
C1069 C1071 1.353 . S
C1069 H1125 0.929 . S
C1070 C1066 1.356 . S
C1070 C1067 1.358 . S
C1070 H1126 0.930 . S
C1071 N1068 1.314 . S
C1071 C1069 1.353 . S
C1071 H1127 0.930 . S
C1072 N1073 1.314 . S
C1072 C1077 1.353 . S
C1072 H1078 0.930 . S
N1073 Li1056 1.990 . S
N1073 C1072 1.314 . S
N1073 C1075 1.279 . S
C1074 C1075 1.358 . S
C1074 C1076 1.356 . S
C1074 H1128 0.930 . S
C1075 N1073 1.279 . S
C1075 C1074 1.358 . S
C1075 H1079 0.930 . S
C1076 C1074 1.356 . S
C1076 C1077 1.348 . S
C1077 C1072 1.353 . S
C1077 C1076 1.348 . S
C1077 H1129 0.929 . S
H1078 C1072 0.930 . S
H1079 C1075 0.930 . S
C1080 N1081 1.314 . S
C1080 C1082 1.353 . S
C1080 H1086 0.930 . S
N1081 Li1057 1.990 . S
N1081 C1080 1.314 . S
N1081 C1084 1.279 . S
C1082 C1080 1.353 . S
C1082 C1085 1.348 . S
C1082 H1130 0.929 . S
C1083 C1084 1.358 . S
C1083 C1085 1.356 . S
C1083 H1131 0.930 . S
C1084 N1081 1.279 . S
C1084 C1083 1.358 . S
C1084 H1087 0.930 . S
C1085 C1082 1.348 . S
C1085 C1083 1.356 . S
H1086 C1080 0.930 . S
H1087 C1084 0.930 . S
C1088 C1090 1.348 1_554 S
C1088 C1091 1.356 . S
C1088 O1118 1.325 . S
N1089 C1092 1.314 . S
N1089 C1093 1.279 . S
C1090 C1088 1.348 1_556 S
C1090 C1092 1.353 . S
C1090 H1132 0.929 . S
C1091 C1088 1.356 . S
C1091 C1093 1.358 1_554 S
C1091 H1133 0.930 . S
C1092 N1089 1.314 . S
C1092 C1090 1.353 . S
C1092 H1134 0.930 . S
C1093 N1089 1.279 . S
C1093 C1091 1.358 1_556 S
C1093 H1135 0.930 . S
C1094 C1095 1.348 . S
C1094 C1096 1.356 . S
C1094 O1119 1.325 . S
C1095 C1094 1.348 . S
C1095 C1097 1.353 . S
C1095 H1136 0.929 . S
C1096 C1094 1.356 . S
C1096 C1098 1.358 . S
C1096 H1137 0.930 . S
C1097 C1095 1.353 . S
C1097 N1099 1.314 . S
C1097 H1138 0.930 . S
C1098 C1096 1.358 . S
C1098 N1099 1.279 . S
C1098 H1139 0.930 . S
N1099 C1097 1.314 . S
N1099 C1098 1.279 . S
C1100 C1102 1.353 . S
C1100 N1103 1.314 . S
C1100 H1106 0.930 . S
C1101 N1103 1.279 . S
C1101 C1104 1.358 . S
C1101 H1107 0.930 . S
C1102 C1100 1.353 . S
C1102 C1105 1.348 . S
C1102 H1140 0.929 . S
N1103 Li1058 1.990 . S
N1103 C1100 1.314 . S
N1103 C1101 1.279 . S
C1104 C1101 1.358 . S
C1104 C1105 1.356 . S
C1104 H1141 0.930 . S
C1105 C1102 1.348 . S
C1105 C1104 1.356 . S
H1106 C1100 0.930 . S
H1107 C1101 0.930 . S
C1108 N1109 1.314 . S
C1108 C1110 1.353 . S
C1108 H1114 0.930 . S
N1109 Li1059 1.990 1_556 S
N1109 C1108 1.314 . S
N1109 C1112 1.279 . S
C1110 C1108 1.353 . S
C1110 C1113 1.348 . S
C1110 H1142 0.929 . S
C1111 C1112 1.358 . S
C1111 C1113 1.356 . S
C1111 H1143 0.930 . S
C1112 N1109 1.279 . S
C1112 C1111 1.358 . S
C1112 H1115 0.930 . S
C1113 C1110 1.348 . S
C1113 C1111 1.356 . S
H1114 C1108 0.930 . S
H1115 C1112 0.930 . S
O1116 Li1056 1.956 . S
O1116 Li1057 1.970 . S
O1116 Li1058 1.961 . S
O1116 C1060 1.325 . S
O1117 Li1056 1.970 . S
O1117 Li1057 1.956 . S
O1117 Li1059 1.961 . S
O1117 C1066 1.325 . S
O1118 Li1056 1.961 . S
O1118 Li1058 1.956 . S
O1118 Li1059 1.970 . S
O1118 C1088 1.325 . S
O1119 Li1057 1.961 . S
O1119 Li1058 1.970 . S
O1119 Li1059 1.956 . S
O1119 C1094 1.325 . S
H1120 C1062 0.929 . S
H1121 C1063 0.930 . S
H1122 C1064 0.930 . S
H1123 C1065 0.930 . S
H1124 C1067 0.930 . S
H1125 C1069 0.929 . S
H1126 C1070 0.930 . S
H1127 C1071 0.930 . S
H1128 C1074 0.930 . S
H1129 C1077 0.929 . S
H1130 C1082 0.929 . S
H1131 C1083 0.930 . S
H1132 C1090 0.929 . S
H1133 C1091 0.930 . S
H1134 C1092 0.930 . S
H1135 C1093 0.930 . S
H1136 C1095 0.929 . S
H1137 C1096 0.930 . S
H1138 C1097 0.930 . S
H1139 C1098 0.930 . S
H1140 C1102 0.929 . S
H1141 C1104 0.930 . S
H1142 C1110 0.929 . S
H1143 C1111 0.930 . S
Li1144 N1161 1.990 . S
Li1144 O1204 1.956 . S
Li1144 O1205 1.970 . S
Li1144 O1206 1.961 . S
Li1145 N1169 1.990 . S
Li1145 O1204 1.970 . S
Li1145 O1205 1.956 . S
Li1145 O1207 1.961 1_554 S
Li1146 N1191 1.990 1_554 S
Li1146 O1204 1.961 . S
Li1146 O1206 1.956 . S
Li1146 O1207 1.970 1_554 S
Li1147 N1197 1.990 . S
Li1147 O1205 1.961 . S
Li1147 O1206 1.970 . S
Li1147 O1207 1.956 1_554 S
C1148 C1150 1.348 . S
C1148 C1151 1.356 . S
C1148 O1204 1.325 . S
N1149 C1152 1.314 . S
N1149 C1153 1.279 . S
C1150 C1148 1.348 . S
C1150 C1152 1.353 . S
C1150 H1208 0.929 . S
C1151 C1148 1.356 . S
C1151 C1153 1.358 . S
C1151 H1209 0.930 . S
C1152 N1149 1.314 . S
C1152 C1150 1.353 . S
C1152 H1210 0.930 . S
C1153 N1149 1.279 . S
C1153 C1151 1.358 . S
C1153 H1211 0.930 . S
C1154 C1157 1.348 . S
C1154 C1158 1.356 . S
C1154 O1205 1.325 . S
C1155 N1156 1.279 . S
C1155 C1158 1.358 . S
C1155 H1212 0.930 . S
N1156 C1155 1.279 . S
N1156 C1159 1.314 . S
C1157 C1154 1.348 . S
C1157 C1159 1.353 . S
C1157 H1213 0.929 . S
C1158 C1154 1.356 . S
C1158 C1155 1.358 . S
C1158 H1214 0.930 . S
C1159 N1156 1.314 . S
C1159 C1157 1.353 . S
C1159 H1215 0.930 . S
C1160 N1161 1.314 . S
C1160 C1165 1.353 . S
C1160 H1166 0.930 . S
N1161 Li1144 1.990 . S
N1161 C1160 1.314 . S
N1161 C1163 1.279 . S
C1162 C1163 1.358 . S
C1162 C1164 1.356 . S
C1162 H1216 0.930 . S
C1163 N1161 1.279 . S
C1163 C1162 1.358 . S
C1163 H1167 0.930 . S
C1164 C1162 1.356 . S
C1164 C1165 1.348 . S
C1165 C1160 1.353 . S
C1165 C1164 1.348 . S
C1165 H1217 0.929 . S
H1166 C1160 0.930 . S
H1167 C1163 0.930 . S
C1168 N1169 1.314 . S
C1168 C1170 1.353 . S
C1168 H1174 0.930 1_554 S
N1169 Li1145 1.990 . S
N1169 C1168 1.314 . S
N1169 C1172 1.279 . S
C1170 C1168 1.353 . S
C1170 C1173 1.348 . S
C1170 H1218 0.929 1_554 S
C1171 C1172 1.358 . S
C1171 C1173 1.356 . S
C1171 H1219 0.930 . S
C1172 N1169 1.279 . S
C1172 C1171 1.358 . S
C1172 H1175 0.930 . S
C1173 C1170 1.348 . S
C1173 C1171 1.356 . S
H1174 C1168 0.930 1_556 S
H1175 C1172 0.930 . S
C1176 C1178 1.348 . S
C1176 C1179 1.356 . S
C1176 O1206 1.325 . S
N1177 C1180 1.314 . S
N1177 C1181 1.279 . S
C1178 C1176 1.348 . S
C1178 C1180 1.353 . S
C1178 H1220 0.929 . S
C1179 C1176 1.356 . S
C1179 C1181 1.358 . S
C1179 H1221 0.930 . S
C1180 N1177 1.314 . S
C1180 C1178 1.353 . S
C1180 H1222 0.930 . S
C1181 N1177 1.279 . S
C1181 C1179 1.358 . S
C1181 H1223 0.930 . S
C1182 C1183 1.348 . S
C1182 C1184 1.356 . S
C1182 O1207 1.325 . S
C1183 C1182 1.348 . S
C1183 C1185 1.353 . S
C1183 H1224 0.929 . S
C1184 C1182 1.356 . S
C1184 C1186 1.358 . S
C1184 H1225 0.930 . S
C1185 C1183 1.353 . S
C1185 N1187 1.314 . S
C1185 H1226 0.930 . S
C1186 C1184 1.358 . S
C1186 N1187 1.279 . S
C1186 H1227 0.930 . S
N1187 C1185 1.314 . S
N1187 C1186 1.279 . S
C1188 C1190 1.353 . S
C1188 N1191 1.314 . S
C1188 H1194 0.930 . S
C1189 N1191 1.279 . S
C1189 C1192 1.358 . S
C1189 H1195 0.930 . S
C1190 C1188 1.353 . S
C1190 C1193 1.348 . S
C1190 H1228 0.929 . S
N1191 Li1146 1.990 1_556 S
N1191 C1188 1.314 . S
N1191 C1189 1.279 . S
C1192 C1189 1.358 . S
C1192 C1193 1.356 . S
C1192 H1229 0.930 . S
C1193 C1190 1.348 . S
C1193 C1192 1.356 . S
H1194 C1188 0.930 . S
H1195 C1189 0.930 . S
C1196 N1197 1.314 . S
C1196 C1198 1.353 . S
C1196 H1202 0.930 . S
N1197 Li1147 1.990 . S
N1197 C1196 1.314 . S
N1197 C1200 1.239 1_554 S
C1198 C1196 1.353 . S
C1198 C1201 1.348 . S
C1198 H1230 0.929 . S
C1199 C1200 1.357 . S
C1199 C1201 1.356 1_556 S
C1199 H1231 0.930 . S
C1200 N1197 1.239 1_556 S
C1200 C1199 1.357 . S
C1200 H1203 0.978 . S
C1201 C1198 1.348 . S
C1201 C1199 1.356 1_554 S
H1202 C1196 0.930 . S
H1203 C1200 0.978 . S
O1204 Li1144 1.956 . S
O1204 Li1145 1.970 . S
O1204 Li1146 1.961 . S
O1204 C1148 1.325 . S
O1205 Li1144 1.970 . S
O1205 Li1145 1.956 . S
O1205 Li1147 1.961 . S
O1205 C1154 1.325 . S
O1206 Li1144 1.961 . S
O1206 Li1146 1.956 . S
O1206 Li1147 1.970 . S
O1206 C1176 1.325 . S
O1207 Li1145 1.961 1_556 S
O1207 Li1146 1.970 1_556 S
O1207 Li1147 1.956 1_556 S
O1207 C1182 1.325 . S
H1208 C1150 0.929 . S
H1209 C1151 0.930 . S
H1210 C1152 0.930 . S
H1211 C1153 0.930 . S
H1212 C1155 0.930 . S
H1213 C1157 0.929 . S
H1214 C1158 0.930 . S
H1215 C1159 0.930 . S
H1216 C1162 0.930 . S
H1217 C1165 0.929 . S
H1218 C1170 0.929 1_556 S
H1219 C1171 0.930 . S
H1220 C1178 0.929 . S
H1221 C1179 0.930 . S
H1222 C1180 0.930 . S
H1223 C1181 0.930 . S
H1224 C1183 0.929 . S
H1225 C1184 0.930 . S
H1226 C1185 0.930 . S
H1227 C1186 0.930 . S
H1228 C1190 0.929 . S
H1229 C1192 0.930 . S
H1230 C1198 0.929 . S
H1231 C1199 0.930 . S
Li1232 N1249 1.990 . S
Li1232 O1292 1.956 . S
Li1232 O1293 1.970 . S
Li1232 O1294 1.961 . S
Li1233 N1257 1.990 . S
Li1233 O1292 1.970 . S
Li1233 O1293 1.956 . S
Li1233 O1295 1.961 . S
Li1234 N1279 1.990 . S
Li1234 O1292 1.961 . S
Li1234 O1294 1.956 . S
Li1234 O1295 1.970 . S
Li1235 N1285 1.990 . S
Li1235 O1293 1.961 . S
Li1235 O1294 1.970 . S
Li1235 O1295 1.956 . S
C1236 C1238 1.348 . S
C1236 C1239 1.356 . S
C1236 O1292 1.325 . S
N1237 C1240 1.314 . S
N1237 C1241 1.279 . S
C1238 C1236 1.348 . S
C1238 C1240 1.353 . S
C1238 H1296 0.929 . S
C1239 C1236 1.356 . S
C1239 C1241 1.358 . S
C1239 H1297 0.930 . S
C1240 N1237 1.314 . S
C1240 C1238 1.353 . S
C1240 H1298 0.930 . S
C1241 N1237 1.279 . S
C1241 C1239 1.358 . S
C1241 H1299 0.930 . S
C1242 C1245 1.348 . S
C1242 C1246 1.356 . S
C1242 O1293 1.325 . S
C1243 N1244 1.279 . S
C1243 C1246 1.358 . S
C1243 H1300 0.930 . S
N1244 C1243 1.279 . S
N1244 C1247 1.314 . S
C1245 C1242 1.348 . S
C1245 C1247 1.353 . S
C1245 H1301 0.929 . S
C1246 C1242 1.356 . S
C1246 C1243 1.358 . S
C1246 H1302 0.930 . S
C1247 N1244 1.314 . S
C1247 C1245 1.353 . S
C1247 H1303 0.930 . S
C1248 N1249 1.314 . S
C1248 C1253 1.353 . S
C1248 H1254 0.930 . S
N1249 Li1232 1.990 . S
N1249 C1248 1.314 . S
N1249 C1251 1.279 . S
C1250 C1251 1.358 . S
C1250 C1252 1.356 . S
C1250 H1304 0.930 . S
C1251 N1249 1.279 . S
C1251 C1250 1.358 . S
C1251 H1255 0.930 . S
C1252 C1250 1.356 . S
C1252 C1253 1.348 . S
C1253 C1248 1.353 . S
C1253 C1252 1.348 . S
C1253 H1305 0.929 . S
H1254 C1248 0.930 . S
H1255 C1251 0.930 . S
C1256 N1257 1.314 . S
C1256 C1258 1.353 . S
C1256 H1262 0.930 . S
N1257 Li1233 1.990 . S
N1257 C1256 1.314 . S
N1257 C1260 1.279 . S
C1258 C1256 1.353 . S
C1258 C1261 1.348 . S
C1258 H1306 0.929 . S
C1259 C1260 1.358 . S
C1259 C1261 1.356 . S
C1259 H1307 0.930 . S
C1260 N1257 1.279 . S
C1260 C1259 1.358 . S
C1260 H1263 0.930 . S
C1261 C1258 1.348 . S
C1261 C1259 1.356 . S
H1262 C1256 0.930 . S
H1263 C1260 0.930 . S
C1264 C1266 1.348 . S
C1264 C1267 1.356 . S
C1264 O1294 1.325 . S
N1265 C1268 1.314 . S
N1265 C1269 1.279 . S
C1266 C1264 1.348 . S
C1266 C1268 1.353 . S
C1266 H1308 0.929 . S
C1267 C1264 1.356 . S
C1267 C1269 1.358 . S
C1267 H1309 0.930 . S
C1268 N1265 1.314 . S
C1268 C1266 1.353 . S
C1268 H1310 0.930 . S
C1269 N1265 1.279 . S
C1269 C1267 1.358 . S
C1269 H1311 0.930 . S
C1270 C1271 1.348 . S
C1270 C1272 1.356 . S
C1270 O1295 1.325 . S
C1271 C1270 1.348 . S
C1271 C1273 1.353 . S
C1271 H1312 0.929 . S
C1272 C1270 1.356 . S
C1272 C1274 1.358 . S
C1272 H1313 0.930 . S
C1273 C1271 1.353 . S
C1273 N1275 1.314 . S
C1273 H1314 0.930 . S
C1274 C1272 1.358 . S
C1274 N1275 1.279 . S
C1274 H1315 0.930 . S
N1275 C1273 1.314 . S
N1275 C1274 1.279 . S
C1276 C1278 1.353 . S
C1276 N1279 1.314 . S
C1276 H1282 0.930 . S
C1277 N1279 1.279 . S
C1277 C1280 1.358 . S
C1277 H1283 0.930 . S
C1278 C1276 1.353 . S
C1278 C1281 1.348 . S
C1278 H1316 0.929 . S
N1279 Li1234 1.990 . S
N1279 C1276 1.314 . S
N1279 C1277 1.279 . S
C1280 C1277 1.358 . S
C1280 C1281 1.356 . S
C1280 H1317 0.930 . S
C1281 C1278 1.348 . S
C1281 C1280 1.356 . S
H1282 C1276 0.930 . S
H1283 C1277 0.930 . S
C1284 N1285 1.314 . S
C1284 C1286 1.353 . S
C1284 H1290 0.930 . S
N1285 Li1235 1.990 . S
N1285 C1284 1.314 . S
N1285 C1288 1.279 . S
C1286 C1284 1.353 . S
C1286 C1289 1.348 . S
C1286 H1318 0.929 . S
C1287 C1288 1.358 . S
C1287 C1289 1.356 . S
C1287 H1319 0.930 . S
C1288 N1285 1.279 . S
C1288 C1287 1.358 . S
C1288 H1291 0.930 . S
C1289 C1286 1.348 . S
C1289 C1287 1.356 . S
H1290 C1284 0.930 . S
H1291 C1288 0.930 . S
O1292 Li1232 1.956 . S
O1292 Li1233 1.970 . S
O1292 Li1234 1.961 . S
O1292 C1236 1.325 . S
O1293 Li1232 1.970 . S
O1293 Li1233 1.956 . S
O1293 Li1235 1.961 . S
O1293 C1242 1.325 . S
O1294 Li1232 1.961 . S
O1294 Li1234 1.956 . S
O1294 Li1235 1.970 . S
O1294 C1264 1.325 . S
O1295 Li1233 1.961 . S
O1295 Li1234 1.970 . S
O1295 Li1235 1.956 . S
O1295 C1270 1.325 . S
H1296 C1238 0.929 . S
H1297 C1239 0.930 . S
H1298 C1240 0.930 . S
H1299 C1241 0.930 . S
H1300 C1243 0.930 . S
H1301 C1245 0.929 . S
H1302 C1246 0.930 . S
H1303 C1247 0.930 . S
H1304 C1250 0.930 . S
H1305 C1253 0.929 . S
H1306 C1258 0.929 . S
H1307 C1259 0.930 . S
H1308 C1266 0.929 . S
H1309 C1267 0.930 . S
H1310 C1268 0.930 . S
H1311 C1269 0.930 . S
H1312 C1271 0.929 . S
H1313 C1272 0.930 . S
H1314 C1273 0.930 . S
H1315 C1274 0.930 . S
H1316 C1278 0.929 . S
H1317 C1280 0.930 . S
H1318 C1286 0.929 . S
H1319 C1287 0.930 . S
Li1320 N1337 1.990 . S
Li1320 O1380 1.956 . S
Li1320 O1381 1.970 . S
Li1320 O1382 1.961 . S
Li1321 N1345 1.990 . S
Li1321 O1380 1.970 . S
Li1321 O1381 1.956 . S
Li1321 O1383 1.961 . S
Li1322 N1367 1.990 . S
Li1322 O1380 1.961 . S
Li1322 O1382 1.956 . S
Li1322 O1383 1.970 . S
Li1323 N1373 1.990 . S
Li1323 O1381 1.961 . S
Li1323 O1382 1.970 . S
Li1323 O1383 1.956 . S
C1324 C1326 1.348 . S
C1324 C1327 1.356 . S
C1324 O1380 1.325 . S
N1325 C1328 1.314 . S
N1325 C1329 1.279 . S
C1326 C1324 1.348 . S
C1326 C1328 1.353 . S
C1326 H1384 0.929 . S
C1327 C1324 1.356 . S
C1327 C1329 1.358 . S
C1327 H1385 0.930 . S
C1328 N1325 1.314 . S
C1328 C1326 1.353 . S
C1328 H1386 0.930 . S
C1329 N1325 1.279 . S
C1329 C1327 1.358 . S
C1329 H1387 0.930 . S
C1330 C1333 1.348 . S
C1330 C1334 1.356 . S
C1330 O1381 1.325 . S
C1331 N1332 1.279 . S
C1331 C1334 1.358 . S
C1331 H1388 0.930 . S
N1332 C1331 1.279 . S
N1332 C1335 1.314 . S
C1333 C1330 1.348 . S
C1333 C1335 1.353 . S
C1333 H1389 0.929 . S
C1334 C1330 1.356 . S
C1334 C1331 1.358 . S
C1334 H1390 0.930 . S
C1335 N1332 1.314 . S
C1335 C1333 1.353 . S
C1335 H1391 0.930 . S
C1336 N1337 1.314 . S
C1336 C1341 1.353 . S
C1336 H1342 0.930 . S
N1337 Li1320 1.990 . S
N1337 C1336 1.314 . S
N1337 C1339 1.279 . S
C1338 C1339 1.358 . S
C1338 C1340 1.356 . S
C1338 H1392 0.930 . S
C1339 N1337 1.279 . S
C1339 C1338 1.358 . S
C1339 H1343 0.930 . S
C1340 C1338 1.356 . S
C1340 C1341 1.348 . S
C1341 C1336 1.353 . S
C1341 C1340 1.348 . S
C1341 H1393 0.929 . S
H1342 C1336 0.930 . S
H1343 C1339 0.930 . S
C1344 N1345 1.314 . S
C1344 C1346 1.353 . S
C1344 H1350 0.930 . S
N1345 Li1321 1.990 . S
N1345 C1344 1.314 . S
N1345 C1348 1.279 . S
C1346 C1344 1.353 . S
C1346 C1349 1.348 . S
C1346 H1394 0.929 . S
C1347 C1348 1.358 . S
C1347 C1349 1.356 . S
C1347 H1395 0.930 . S
C1348 N1345 1.279 . S
C1348 C1347 1.358 . S
C1348 H1351 0.930 . S
C1349 C1346 1.348 . S
C1349 C1347 1.356 . S
H1350 C1344 0.930 . S
H1351 C1348 0.930 . S
C1352 C1354 1.348 . S
C1352 C1355 1.356 . S
C1352 O1382 1.325 . S
N1353 C1356 1.314 . S
N1353 C1357 1.279 . S
C1354 C1352 1.348 . S
C1354 C1356 1.353 . S
C1354 H1396 0.929 . S
C1355 C1352 1.356 . S
C1355 C1357 1.358 . S
C1355 H1397 0.930 . S
C1356 N1353 1.314 . S
C1356 C1354 1.353 . S
C1356 H1398 0.930 . S
C1357 N1353 1.279 . S
C1357 C1355 1.358 . S
C1357 H1399 0.930 . S
C1358 C1359 1.348 . S
C1358 C1360 1.356 . S
C1358 O1383 1.325 . S
C1359 C1358 1.348 . S
C1359 C1361 1.353 . S
C1359 H1400 0.929 . S
C1360 C1358 1.356 . S
C1360 C1362 1.358 . S
C1360 H1401 0.930 . S
C1361 C1359 1.353 . S
C1361 N1363 1.314 . S
C1361 H1402 0.930 . S
C1362 C1360 1.358 . S
C1362 N1363 1.279 . S
C1362 H1403 0.930 . S
N1363 C1361 1.314 . S
N1363 C1362 1.279 . S
C1364 C1366 1.353 . S
C1364 N1367 1.314 . S
C1364 H1370 0.930 . S
C1365 N1367 1.279 . S
C1365 C1368 1.358 . S
C1365 H1371 0.930 . S
C1366 C1364 1.353 . S
C1366 C1369 1.348 . S
C1366 H1404 0.929 . S
N1367 Li1322 1.990 . S
N1367 C1364 1.314 . S
N1367 C1365 1.279 . S
C1368 C1365 1.358 . S
C1368 C1369 1.356 . S
C1368 H1405 0.930 . S
C1369 C1366 1.348 . S
C1369 C1368 1.356 . S
H1370 C1364 0.930 . S
H1371 C1365 0.930 . S
C1372 N1373 1.314 . S
C1372 C1374 1.353 . S
C1372 H1378 0.930 . S
N1373 Li1323 1.990 . S
N1373 C1372 1.314 . S
N1373 C1376 1.279 . S
C1374 C1372 1.353 . S
C1374 C1377 1.348 . S
C1374 H1406 0.929 . S
C1375 C1376 1.358 . S
C1375 C1377 1.356 . S
C1375 H1407 0.930 . S
C1376 N1373 1.279 . S
C1376 C1375 1.358 . S
C1376 H1379 0.930 . S
C1377 C1374 1.348 . S
C1377 C1375 1.356 . S
H1378 C1372 0.930 . S
H1379 C1376 0.930 . S
O1380 Li1320 1.956 . S
O1380 Li1321 1.970 . S
O1380 Li1322 1.961 . S
O1380 C1324 1.325 . S
O1381 Li1320 1.970 . S
O1381 Li1321 1.956 . S
O1381 Li1323 1.961 . S
O1381 C1330 1.325 . S
O1382 Li1320 1.961 . S
O1382 Li1322 1.956 . S
O1382 Li1323 1.970 . S
O1382 C1352 1.325 . S
O1383 Li1321 1.961 . S
O1383 Li1322 1.970 . S
O1383 Li1323 1.956 . S
O1383 C1358 1.325 . S
H1384 C1326 0.929 . S
H1385 C1327 0.930 . S
H1386 C1328 0.930 . S
H1387 C1329 0.930 . S
H1388 C1331 0.930 . S
H1389 C1333 0.929 . S
H1390 C1334 0.930 . S
H1391 C1335 0.930 . S
H1392 C1338 0.930 . S
H1393 C1341 0.929 . S
H1394 C1346 0.929 . S
H1395 C1347 0.930 . S
H1396 C1354 0.929 . S
H1397 C1355 0.930 . S
H1398 C1356 0.930 . S
H1399 C1357 0.930 . S
H1400 C1359 0.929 . S
H1401 C1360 0.930 . S
H1402 C1361 0.930 . S
H1403 C1362 0.930 . S
H1404 C1366 0.929 . S
H1405 C1368 0.930 . S
H1406 C1374 0.929 . S
H1407 C1375 0.930 . S
Li1408 N1425 1.990 . S
Li1408 O1468 1.956 . S
Li1408 O1469 1.970 . S
Li1408 O1470 1.961 . S
Li1409 N1433 1.990 . S
Li1409 O1468 1.970 . S
Li1409 O1469 1.956 . S
Li1409 O1471 1.961 . S
Li1410 N1455 1.990 . S
Li1410 O1468 1.961 . S
Li1410 O1470 1.956 . S
Li1410 O1471 1.970 . S
Li1411 N1461 1.990 . S
Li1411 O1469 1.961 . S
Li1411 O1470 1.970 . S
Li1411 O1471 1.956 . S
C1412 C1414 1.348 . S
C1412 C1415 1.356 . S
C1412 O1468 1.325 . S
N1413 C1416 1.314 . S
N1413 C1417 1.279 . S
C1414 C1412 1.348 . S
C1414 C1416 1.353 . S
C1414 H1472 0.929 . S
C1415 C1412 1.356 . S
C1415 C1417 1.358 . S
C1415 H1473 0.930 . S
C1416 N1413 1.314 . S
C1416 C1414 1.353 . S
C1416 H1474 0.930 1_545 S
C1417 N1413 1.279 . S
C1417 C1415 1.358 . S
C1417 H1475 0.930 1_655 S
C1418 C1421 1.348 . S
C1418 C1422 1.356 . S
C1418 O1469 1.325 . S
C1419 N1420 1.279 . S
C1419 C1422 1.358 . S
C1419 H1476 0.930 . S
N1420 C1419 1.279 . S
N1420 C1423 1.314 . S
C1421 C1418 1.348 . S
C1421 C1423 1.353 . S
C1421 H1477 0.929 . S
C1422 C1418 1.356 . S
C1422 C1419 1.358 . S
C1422 H1478 0.930 . S
C1423 N1420 1.314 . S
C1423 C1421 1.353 . S
C1423 H1479 0.930 . S
C1424 N1425 1.314 . S
C1424 C1429 1.353 . S
C1424 H1430 0.930 . S
N1425 Li1408 1.990 . S
N1425 C1424 1.314 . S
N1425 C1427 1.279 . S
C1426 C1427 1.358 . S
C1426 C1428 1.356 . S
C1426 H1480 0.930 . S
C1427 N1425 1.279 . S
C1427 C1426 1.358 . S
C1427 H1431 0.930 . S
C1428 C1426 1.356 . S
C1428 C1429 1.348 . S
C1429 C1424 1.353 . S
C1429 C1428 1.348 . S
C1429 H1481 0.929 . S
H1430 C1424 0.930 . S
H1431 C1427 0.930 . S
C1432 N1433 1.314 . S
C1432 C1434 1.353 1_545 S
C1432 H1438 0.930 . S
N1433 Li1409 1.990 . S
N1433 C1432 1.314 . S
N1433 C1436 1.279 . S
C1434 C1432 1.353 1_565 S
C1434 C1437 1.348 . S
C1434 H1482 0.929 . S
C1435 C1436 1.358 . S
C1435 C1437 1.356 1_545 S
C1435 H1483 0.930 1_545 S
C1436 N1433 1.279 . S
C1436 C1435 1.358 . S
C1436 H1439 0.930 . S
C1437 C1434 1.348 . S
C1437 C1435 1.356 1_565 S
H1438 C1432 0.930 . S
H1439 C1436 0.930 . S
C1440 C1442 1.348 . S
C1440 C1443 1.356 . S
C1440 O1470 1.325 . S
N1441 C1444 1.314 . S
N1441 C1445 1.279 . S
C1442 C1440 1.348 . S
C1442 C1444 1.353 . S
C1442 H1484 0.929 . S
C1443 C1440 1.356 . S
C1443 C1445 1.358 . S
C1443 H1485 0.930 . S
C1444 N1441 1.314 . S
C1444 C1442 1.353 . S
C1444 H1486 0.930 . S
C1445 N1441 1.279 . S
C1445 C1443 1.358 . S
C1445 H1487 0.930 1_655 S
C1446 C1447 1.348 . S
C1446 C1448 1.356 . S
C1446 O1471 1.325 . S
C1447 C1446 1.348 . S
C1447 C1449 1.353 . S
C1447 H1488 0.929 . S
C1448 C1446 1.356 . S
C1448 C1450 1.358 . S
C1448 H1489 0.930 . S
C1449 C1447 1.353 . S
C1449 N1451 1.314 . S
C1449 H1490 0.930 . S
C1450 C1448 1.358 . S
C1450 N1451 1.279 . S
C1450 H1491 0.930 . S
N1451 C1449 1.314 . S
N1451 C1450 1.279 . S
C1452 C1454 1.353 . S
C1452 N1455 1.314 . S
C1452 H1458 0.930 . S
C1453 N1455 1.279 . S
C1453 C1456 1.358 . S
C1453 H1459 0.930 . S
C1454 C1452 1.353 . S
C1454 C1457 1.348 . S
C1454 H1492 0.929 . S
N1455 Li1410 1.990 . S
N1455 C1452 1.314 . S
N1455 C1453 1.279 . S
C1456 C1453 1.358 . S
C1456 C1457 1.356 . S
C1456 H1493 0.930 . S
C1457 C1454 1.348 . S
C1457 C1456 1.356 . S
H1458 C1452 0.930 . S
H1459 C1453 0.930 . S
C1460 N1461 1.314 . S
C1460 C1462 1.353 . S
C1460 H1466 0.930 . S
N1461 Li1411 1.990 . S
N1461 C1460 1.314 . S
N1461 C1464 1.279 . S
C1462 C1460 1.353 . S
C1462 C1465 1.348 . S
C1462 H1494 0.929 . S
C1463 C1464 1.358 . S
C1463 C1465 1.356 . S
C1463 H1495 0.930 . S
C1464 N1461 1.279 . S
C1464 C1463 1.358 . S
C1464 H1467 0.930 . S
C1465 C1462 1.348 . S
C1465 C1463 1.356 . S
H1466 C1460 0.930 . S
H1467 C1464 0.930 . S
O1468 Li1408 1.956 . S
O1468 Li1409 1.970 . S
O1468 Li1410 1.961 . S
O1468 C1412 1.325 . S
O1469 Li1408 1.970 . S
O1469 Li1409 1.956 . S
O1469 Li1411 1.961 . S
O1469 C1418 1.325 . S
O1470 Li1408 1.961 . S
O1470 Li1410 1.956 . S
O1470 Li1411 1.970 . S
O1470 C1440 1.325 . S
O1471 Li1409 1.961 . S
O1471 Li1410 1.970 . S
O1471 Li1411 1.956 . S
O1471 C1446 1.325 . S
H1472 C1414 0.929 . S
H1473 C1415 0.930 . S
H1474 C1416 0.930 1_565 S
H1475 C1417 0.930 1_455 S
H1476 C1419 0.930 . S
H1477 C1421 0.929 . S
H1478 C1422 0.930 . S
H1479 C1423 0.930 . S
H1480 C1426 0.930 . S
H1481 C1429 0.929 . S
H1482 C1434 0.929 . S
H1483 C1435 0.930 1_565 S
H1484 C1442 0.929 . S
H1485 C1443 0.930 . S
H1486 C1444 0.930 . S
H1487 C1445 0.930 1_455 S
H1488 C1447 0.929 . S
H1489 C1448 0.930 . S
H1490 C1449 0.930 . S
H1491 C1450 0.930 . S
H1492 C1454 0.929 . S
H1493 C1456 0.930 . S
H1494 C1462 0.929 . S
H1495 C1463 0.930 . S
Li1496 N1513 1.990 . S
Li1496 O1556 1.956 . S
Li1496 O1557 1.970 . S
Li1496 O1558 1.961 . S
Li1497 N1521 1.990 . S
Li1497 O1556 1.970 . S
Li1497 O1557 1.956 . S
Li1497 O1559 1.961 . S
Li1498 N1543 1.990 . S
Li1498 O1556 1.961 . S
Li1498 O1558 1.956 . S
Li1498 O1559 1.970 . S
Li1499 N1549 1.990 . S
Li1499 O1557 1.961 . S
Li1499 O1558 1.970 . S
Li1499 O1559 1.956 . S
C1500 C1502 1.348 . S
C1500 C1503 1.356 . S
C1500 O1556 1.325 . S
N1501 C1504 1.314 . S
N1501 C1505 1.279 . S
C1502 C1500 1.348 . S
C1502 C1504 1.353 . S
C1502 H1560 0.929 . S
C1503 C1500 1.356 . S
C1503 C1505 1.358 . S
C1503 H1561 0.930 . S
C1504 N1501 1.314 . S
C1504 C1502 1.353 . S
C1504 H1562 0.930 . S
C1505 N1501 1.279 . S
C1505 C1503 1.358 . S
C1505 H1563 0.930 . S
C1506 C1509 1.348 . S
C1506 C1510 1.356 . S
C1506 O1557 1.325 . S
C1507 N1508 1.279 . S
C1507 C1510 1.358 . S
C1507 H1564 0.930 . S
N1508 C1507 1.279 . S
N1508 C1511 1.314 . S
C1509 C1506 1.348 . S
C1509 C1511 1.353 . S
C1509 H1565 0.929 . S
C1510 C1506 1.356 . S
C1510 C1507 1.358 . S
C1510 H1566 0.930 . S
C1511 N1508 1.314 . S
C1511 C1509 1.353 . S
C1511 H1567 0.930 . S
C1512 N1513 1.314 . S
C1512 C1517 1.353 . S
C1512 H1518 0.930 . S
N1513 Li1496 1.990 . S
N1513 C1512 1.314 . S
N1513 C1515 1.279 . S
C1514 C1515 1.358 . S
C1514 C1516 1.356 . S
C1514 H1568 0.930 . S
C1515 N1513 1.279 . S
C1515 C1514 1.358 . S
C1515 H1519 0.930 . S
C1516 C1514 1.356 . S
C1516 C1517 1.348 . S
C1517 C1512 1.353 . S
C1517 C1516 1.348 . S
C1517 H1569 0.929 . S
H1518 C1512 0.930 . S
H1519 C1515 0.930 . S
C1520 N1521 1.314 . S
C1520 C1522 1.353 . S
C1520 H1526 0.930 . S
N1521 Li1497 1.990 . S
N1521 C1520 1.314 . S
N1521 C1524 1.279 . S
C1522 C1520 1.353 . S
C1522 C1525 1.348 . S
C1522 H1570 0.929 . S
C1523 C1524 1.358 . S
C1523 C1525 1.356 . S
C1523 H1571 0.930 . S
C1524 N1521 1.279 . S
C1524 C1523 1.358 . S
C1524 H1527 0.930 . S
C1525 C1522 1.348 . S
C1525 C1523 1.356 . S
H1526 C1520 0.930 . S
H1527 C1524 0.930 . S
C1528 C1530 1.348 . S
C1528 C1531 1.356 . S
C1528 O1558 1.325 . S
N1529 C1532 1.314 . S
N1529 C1533 1.279 . S
C1530 C1528 1.348 . S
C1530 C1532 1.353 . S
C1530 H1572 0.929 . S
C1531 C1528 1.356 . S
C1531 C1533 1.358 . S
C1531 H1573 0.930 . S
C1532 N1529 1.314 . S
C1532 C1530 1.353 . S
C1532 H1574 0.930 . S
C1533 N1529 1.279 . S
C1533 C1531 1.358 . S
C1533 H1575 0.930 . S
C1534 C1535 1.348 . S
C1534 C1536 1.356 . S
C1534 O1559 1.325 . S
C1535 C1534 1.348 . S
C1535 C1537 1.353 . S
C1535 H1576 0.929 . S
C1536 C1534 1.356 . S
C1536 C1538 1.358 . S
C1536 H1577 0.930 . S
C1537 C1535 1.353 . S
C1537 N1539 1.314 . S
C1537 H1578 0.930 . S
C1538 C1536 1.358 . S
C1538 N1539 1.279 . S
C1538 H1579 0.930 . S
N1539 C1537 1.314 . S
N1539 C1538 1.279 . S
C1540 C1542 1.353 . S
C1540 N1543 1.314 . S
C1540 H1546 0.930 . S
C1541 N1543 1.279 . S
C1541 C1544 1.358 . S
C1541 H1547 0.930 . S
C1542 C1540 1.353 . S
C1542 C1545 1.348 . S
C1542 H1580 0.929 . S
N1543 Li1498 1.990 . S
N1543 C1540 1.314 . S
N1543 C1541 1.279 . S
C1544 C1541 1.358 . S
C1544 C1545 1.356 . S
C1544 H1581 0.930 . S
C1545 C1542 1.348 . S
C1545 C1544 1.356 . S
H1546 C1540 0.930 . S
H1547 C1541 0.930 . S
C1548 N1549 1.314 . S
C1548 C1550 1.353 . S
C1548 H1554 0.930 . S
N1549 Li1499 1.990 . S
N1549 C1548 1.314 . S
N1549 C1552 1.279 . S
C1550 C1548 1.353 . S
C1550 C1553 1.348 . S
C1550 H1582 0.929 . S
C1551 C1552 1.358 . S
C1551 C1553 1.356 . S
C1551 H1583 0.930 . S
C1552 N1549 1.279 . S
C1552 C1551 1.358 . S
C1552 H1555 0.930 . S
C1553 C1550 1.348 . S
C1553 C1551 1.356 . S
H1554 C1548 0.930 . S
H1555 C1552 0.930 . S
O1556 Li1496 1.956 . S
O1556 Li1497 1.970 . S
O1556 Li1498 1.961 . S
O1556 C1500 1.325 . S
O1557 Li1496 1.970 . S
O1557 Li1497 1.956 . S
O1557 Li1499 1.961 . S
O1557 C1506 1.325 . S
O1558 Li1496 1.961 . S
O1558 Li1498 1.956 . S
O1558 Li1499 1.970 . S
O1558 C1528 1.325 . S
O1559 Li1497 1.961 . S
O1559 Li1498 1.970 . S
O1559 Li1499 1.956 . S
O1559 C1534 1.325 . S
H1560 C1502 0.929 . S
H1561 C1503 0.930 . S
H1562 C1504 0.930 . S
H1563 C1505 0.930 . S
H1564 C1507 0.930 . S
H1565 C1509 0.929 . S
H1566 C1510 0.930 . S
H1567 C1511 0.930 . S
H1568 C1514 0.930 . S
H1569 C1517 0.929 . S
H1570 C1522 0.929 . S
H1571 C1523 0.930 . S
H1572 C1530 0.929 . S
H1573 C1531 0.930 . S
H1574 C1532 0.930 . S
H1575 C1533 0.930 . S
H1576 C1535 0.929 . S
H1577 C1536 0.930 . S
H1578 C1537 0.930 . S
H1579 C1538 0.930 . S
H1580 C1542 0.929 . S
H1581 C1544 0.930 . S
H1582 C1550 0.929 . S
H1583 C1551 0.930 . S
Li1584 N1601 1.990 . S
Li1584 O1644 1.956 . S
Li1584 O1645 1.970 . S
Li1584 O1646 1.961 . S
Li1585 N1609 1.990 . S
Li1585 O1644 1.970 . S
Li1585 O1645 1.956 . S
Li1585 O1647 1.961 . S
Li1586 N1631 1.990 . S
Li1586 O1644 1.961 . S
Li1586 O1646 1.956 . S
Li1586 O1647 1.970 . S
Li1587 N1637 1.990 . S
Li1587 O1645 1.961 . S
Li1587 O1646 1.970 . S
Li1587 O1647 1.956 . S
C1588 C1590 1.348 . S
C1588 C1591 1.356 . S
C1588 O1644 1.325 . S
N1589 C1592 1.314 . S
N1589 C1593 1.279 . S
C1590 C1588 1.348 . S
C1590 C1592 1.353 . S
C1590 H1648 0.929 . S
C1591 C1588 1.356 . S
C1591 C1593 1.358 . S
C1591 H1649 0.930 . S
C1592 N1589 1.314 . S
C1592 C1590 1.353 . S
C1592 H1650 0.930 . S
C1593 N1589 1.279 . S
C1593 C1591 1.358 . S
C1593 H1651 0.930 . S
C1594 C1597 1.348 . S
C1594 C1598 1.356 . S
C1594 O1645 1.325 . S
C1595 N1596 1.279 . S
C1595 C1598 1.358 . S
C1595 H1652 0.930 . S
N1596 C1595 1.279 . S
N1596 C1599 1.314 . S
C1597 C1594 1.348 . S
C1597 C1599 1.353 . S
C1597 H1653 0.929 . S
C1598 C1594 1.356 . S
C1598 C1595 1.358 . S
C1598 H1654 0.930 . S
C1599 N1596 1.314 . S
C1599 C1597 1.353 . S
C1599 H1655 0.930 . S
C1600 N1601 1.314 . S
C1600 C1605 1.353 . S
C1600 H1606 0.930 . S
N1601 Li1584 1.990 . S
N1601 C1600 1.314 . S
N1601 C1603 1.279 . S
C1602 C1603 1.358 . S
C1602 C1604 1.356 . S
C1602 H1656 0.930 . S
C1603 N1601 1.279 . S
C1603 C1602 1.358 . S
C1603 H1607 0.930 . S
C1604 C1602 1.356 . S
C1604 C1605 1.348 . S
C1605 C1600 1.353 . S
C1605 C1604 1.348 . S
C1605 H1657 0.929 . S
H1606 C1600 0.930 . S
H1607 C1603 0.930 . S
C1608 N1609 1.314 . S
C1608 C1610 1.353 . S
C1608 H1614 0.930 . S
N1609 Li1585 1.990 . S
N1609 C1608 1.314 . S
N1609 C1612 1.279 . S
C1610 C1608 1.353 . S
C1610 C1613 1.348 . S
C1610 H1658 0.929 . S
C1611 C1612 1.358 . S
C1611 C1613 1.356 . S
C1611 H1659 0.930 . S
C1612 N1609 1.279 . S
C1612 C1611 1.358 . S
C1612 H1615 0.930 . S
C1613 C1610 1.348 . S
C1613 C1611 1.356 . S
H1614 C1608 0.930 . S
H1615 C1612 0.930 . S
C1616 C1618 1.348 . S
C1616 C1619 1.356 . S
C1616 O1646 1.325 . S
N1617 C1620 1.314 . S
N1617 C1621 1.279 . S
C1618 C1616 1.348 . S
C1618 C1620 1.353 . S
C1618 H1660 0.929 . S
C1619 C1616 1.356 . S
C1619 C1621 1.358 . S
C1619 H1661 0.930 . S
C1620 N1617 1.314 . S
C1620 C1618 1.353 . S
C1620 H1662 0.930 . S
C1621 N1617 1.279 . S
C1621 C1619 1.358 . S
C1621 H1663 0.930 . S
C1622 C1623 1.348 . S
C1622 C1624 1.356 . S
C1622 O1647 1.325 . S
C1623 C1622 1.348 . S
C1623 C1625 1.353 . S
C1623 H1664 0.929 . S
C1624 C1622 1.356 . S
C1624 C1626 1.358 . S
C1624 H1665 0.930 . S
C1625 C1623 1.353 . S
C1625 N1627 1.314 . S
C1625 H1666 0.930 . S
C1626 C1624 1.358 . S
C1626 N1627 1.279 . S
C1626 H1667 0.930 . S
N1627 C1625 1.314 . S
N1627 C1626 1.279 . S
C1628 C1630 1.353 . S
C1628 N1631 1.314 . S
C1628 H1634 0.930 . S
C1629 N1631 1.279 . S
C1629 C1632 1.358 . S
C1629 H1635 0.930 . S
C1630 C1628 1.353 . S
C1630 C1633 1.348 . S
C1630 H1668 0.929 . S
N1631 Li1586 1.990 . S
N1631 C1628 1.314 . S
N1631 C1629 1.279 . S
C1632 C1629 1.358 . S
C1632 C1633 1.356 . S
C1632 H1669 0.930 . S
C1633 C1630 1.348 . S
C1633 C1632 1.356 . S
H1634 C1628 0.930 . S
H1635 C1629 0.930 . S
C1636 N1637 1.314 . S
C1636 C1638 1.353 . S
C1636 H1642 0.930 . S
N1637 Li1587 1.990 . S
N1637 C1636 1.314 . S
N1637 C1640 1.279 . S
C1638 C1636 1.353 . S
C1638 C1641 1.348 . S
C1638 H1670 0.929 . S
C1639 C1640 1.358 . S
C1639 C1641 1.356 . S
C1639 H1671 0.930 . S
C1640 N1637 1.279 . S
C1640 C1639 1.358 . S
C1640 H1643 0.930 . S
C1641 C1638 1.348 . S
C1641 C1639 1.356 . S
H1642 C1636 0.930 . S
H1643 C1640 0.930 . S
O1644 Li1584 1.956 . S
O1644 Li1585 1.970 . S
O1644 Li1586 1.961 . S
O1644 C1588 1.325 . S
O1645 Li1584 1.970 . S
O1645 Li1585 1.956 . S
O1645 Li1587 1.961 . S
O1645 C1594 1.325 . S
O1646 Li1584 1.961 . S
O1646 Li1586 1.956 . S
O1646 Li1587 1.970 . S
O1646 C1616 1.325 . S
O1647 Li1585 1.961 . S
O1647 Li1586 1.970 . S
O1647 Li1587 1.956 . S
O1647 C1622 1.325 . S
H1648 C1590 0.929 . S
H1649 C1591 0.930 . S
H1650 C1592 0.930 . S
H1651 C1593 0.930 . S
H1652 C1595 0.930 . S
H1653 C1597 0.929 . S
H1654 C1598 0.930 . S
H1655 C1599 0.930 . S
H1656 C1602 0.930 . S
H1657 C1605 0.929 . S
H1658 C1610 0.929 . S
H1659 C1611 0.930 . S
H1660 C1618 0.929 . S
H1661 C1619 0.930 . S
H1662 C1620 0.930 . S
H1663 C1621 0.930 . S
H1664 C1623 0.929 . S
H1665 C1624 0.930 . S
H1666 C1625 0.930 . S
H1667 C1626 0.930 . S
H1668 C1630 0.929 . S
H1669 C1632 0.930 . S
H1670 C1638 0.929 . S
H1671 C1639 0.930 . S
Li1672 N1689 1.990 . S
Li1672 O1732 1.956 . S
Li1672 O1733 1.970 . S
Li1672 O1734 1.961 . S
Li1673 N1697 1.990 . S
Li1673 O1732 1.970 . S
Li1673 O1733 1.956 . S
Li1673 O1735 1.961 . S
Li1674 N1719 1.990 . S
Li1674 O1732 1.961 . S
Li1674 O1734 1.956 . S
Li1674 O1735 1.970 . S
Li1675 N1725 1.990 . S
Li1675 O1733 1.961 . S
Li1675 O1734 1.970 . S
Li1675 O1735 1.956 . S
C1676 C1678 1.348 . S
C1676 C1679 1.356 . S
C1676 O1732 1.325 . S
N1677 C1680 1.314 . S
N1677 C1681 1.279 . S
C1678 C1676 1.348 . S
C1678 C1680 1.353 . S
C1678 H1736 0.929 . S
C1679 C1676 1.356 . S
C1679 C1681 1.358 . S
C1679 H1737 0.930 . S
C1680 N1677 1.314 . S
C1680 C1678 1.353 . S
C1680 H1738 0.930 . S
C1681 N1677 1.279 . S
C1681 C1679 1.358 . S
C1681 H1739 0.930 . S
C1682 C1685 1.348 . S
C1682 C1686 1.356 . S
C1682 O1733 1.325 . S
C1683 N1684 1.279 . S
C1683 C1686 1.358 . S
C1683 H1740 0.930 . S
N1684 C1683 1.279 . S
N1684 C1687 1.314 . S
C1685 C1682 1.348 . S
C1685 C1687 1.353 . S
C1685 H1741 0.929 . S
C1686 C1682 1.356 . S
C1686 C1683 1.358 . S
C1686 H1742 0.930 . S
C1687 N1684 1.314 . S
C1687 C1685 1.353 . S
C1687 H1743 0.930 . S
C1688 N1689 1.314 . S
C1688 C1693 1.353 . S
C1688 H1694 0.930 . S
N1689 Li1672 1.990 . S
N1689 C1688 1.314 . S
N1689 C1691 1.279 . S
C1690 C1691 1.358 . S
C1690 C1692 1.356 . S
C1690 H1744 0.930 . S
C1691 N1689 1.279 . S
C1691 C1690 1.358 . S
C1691 H1695 0.930 . S
C1692 C1690 1.356 . S
C1692 C1693 1.348 . S
C1693 C1688 1.353 . S
C1693 C1692 1.348 . S
C1693 H1745 0.929 . S
H1694 C1688 0.930 . S
H1695 C1691 0.930 . S
C1696 N1697 1.314 . S
C1696 C1698 1.353 . S
C1696 H1702 0.930 . S
N1697 Li1673 1.990 . S
N1697 C1696 1.314 . S
N1697 C1700 1.279 . S
C1698 C1696 1.353 . S
C1698 C1701 1.348 . S
C1698 H1746 0.929 . S
C1699 C1700 1.358 . S
C1699 C1701 1.356 . S
C1699 H1747 0.930 . S
C1700 N1697 1.279 . S
C1700 C1699 1.358 . S
C1700 H1703 0.930 . S
C1701 C1698 1.348 . S
C1701 C1699 1.356 . S
H1702 C1696 0.930 . S
H1703 C1700 0.930 . S
C1704 C1706 1.348 1_545 S
C1704 C1707 1.356 . S
C1704 O1734 1.325 . S
N1705 C1708 1.314 . S
N1705 C1709 1.279 . S
C1706 C1704 1.348 1_565 S
C1706 C1708 1.353 . S
C1706 H1748 0.929 . S
C1707 C1704 1.356 . S
C1707 C1709 1.358 1_545 S
C1707 H1749 0.930 . S
C1708 N1705 1.314 . S
C1708 C1706 1.353 . S
C1708 H1750 0.930 . S
C1709 N1705 1.279 . S
C1709 C1707 1.358 1_565 S
C1709 H1751 0.930 . S
C1710 C1711 1.348 . S
C1710 C1712 1.356 . S
C1710 O1735 1.325 . S
C1711 C1710 1.348 . S
C1711 C1713 1.353 . S
C1711 H1752 0.929 . S
C1712 C1710 1.356 . S
C1712 C1714 1.358 . S
C1712 H1753 0.930 . S
C1713 C1711 1.353 . S
C1713 N1715 1.314 . S
C1713 H1754 0.930 . S
C1714 C1712 1.358 . S
C1714 N1715 1.279 . S
C1714 H1755 0.930 . S
N1715 C1713 1.314 . S
N1715 C1714 1.279 . S
C1716 C1718 1.353 . S
C1716 N1719 1.314 . S
C1716 H1722 0.930 . S
C1717 N1719 1.279 . S
C1717 C1720 1.358 . S
C1717 H1723 0.930 . S
C1718 C1716 1.353 . S
C1718 C1721 1.348 . S
C1718 H1756 0.929 . S
N1719 Li1674 1.990 . S
N1719 C1716 1.314 . S
N1719 C1717 1.279 . S
C1720 C1717 1.358 . S
C1720 C1721 1.356 . S
C1720 H1757 0.930 . S
C1721 C1718 1.348 . S
C1721 C1720 1.356 . S
H1722 C1716 0.930 . S
H1723 C1717 0.930 . S
C1724 N1725 1.314 1_565 S
C1724 C1726 1.353 . S
C1724 H1730 0.930 1_565 S
N1725 Li1675 1.990 . S
N1725 C1724 1.314 1_545 S
N1725 C1728 1.283 . S
C1726 C1724 1.353 . S
C1726 C1729 1.348 . S
C1726 H1758 0.929 . S
C1727 C1728 1.350 1_565 S
C1727 C1729 1.356 . S
C1727 H1759 0.930 . S
C1728 N1725 1.283 . S
C1728 C1727 1.350 1_545 S
C1728 H1731 0.936 . S
C1729 C1726 1.348 . S
C1729 C1727 1.356 . S
H1730 C1724 0.930 1_545 S
H1731 C1728 0.936 . S
O1732 Li1672 1.956 . S
O1732 Li1673 1.970 . S
O1732 Li1674 1.961 . S
O1732 C1676 1.325 . S
O1733 Li1672 1.970 . S
O1733 Li1673 1.956 . S
O1733 Li1675 1.961 . S
O1733 C1682 1.325 . S
O1734 Li1672 1.961 . S
O1734 Li1674 1.956 . S
O1734 Li1675 1.970 . S
O1734 C1704 1.325 . S
O1735 Li1673 1.961 . S
O1735 Li1674 1.970 . S
O1735 Li1675 1.956 . S
O1735 C1710 1.325 . S
H1736 C1678 0.929 . S
H1737 C1679 0.930 . S
H1738 C1680 0.930 . S
H1739 C1681 0.930 . S
H1740 C1683 0.930 . S
H1741 C1685 0.929 . S
H1742 C1686 0.930 . S
H1743 C1687 0.930 . S
H1744 C1690 0.930 . S
H1745 C1693 0.929 . S
H1746 C1698 0.929 . S
H1747 C1699 0.930 . S
H1748 C1706 0.929 . S
H1749 C1707 0.930 . S
H1750 C1708 0.930 . S
H1751 C1709 0.930 . S
H1752 C1711 0.929 . S
H1753 C1712 0.930 . S
H1754 C1713 0.930 . S
H1755 C1714 0.930 . S
H1756 C1718 0.929 . S
H1757 C1720 0.930 . S
H1758 C1726 0.929 . S
H1759 C1727 0.930 . S
Li1760 N1777 1.990 . S
Li1760 O1820 1.956 . S
Li1760 O1821 1.970 . S
Li1760 O1822 1.961 . S
Li1761 N1785 1.990 . S
Li1761 O1820 1.973 1_556 S
Li1761 O1821 1.937 1_556 S
Li1761 O1823 1.980 . S
Li1762 N1807 1.990 . S
Li1762 O1820 1.961 1_556 S
Li1762 O1822 1.956 1_556 S
Li1762 O1823 1.970 . S
Li1763 N1813 1.990 . S
Li1763 O1821 1.961 1_556 S
Li1763 O1822 1.970 1_556 S
Li1763 O1823 1.956 . S
C1764 C1766 1.348 . S
C1764 C1767 1.356 . S
C1764 O1820 1.325 . S
N1765 C1768 1.314 . S
N1765 C1769 1.279 . S
C1766 C1764 1.348 . S
C1766 C1768 1.353 . S
C1766 H1824 0.929 . S
C1767 C1764 1.356 . S
C1767 C1769 1.358 . S
C1767 H1825 0.930 . S
C1768 N1765 1.314 . S
C1768 C1766 1.353 . S
C1768 H1826 0.930 . S
C1769 N1765 1.279 . S
C1769 C1767 1.358 . S
C1769 H1827 0.930 . S
C1770 C1773 1.348 . S
C1770 C1774 1.356 . S
C1770 O1821 1.325 . S
C1771 N1772 1.279 . S
C1771 C1774 1.358 . S
C1771 H1828 0.930 . S
N1772 C1771 1.279 . S
N1772 C1775 1.314 . S
C1773 C1770 1.348 . S
C1773 C1775 1.353 . S
C1773 H1829 0.929 . S
C1774 C1770 1.356 . S
C1774 C1771 1.358 . S
C1774 H1830 0.930 . S
C1775 N1772 1.314 . S
C1775 C1773 1.353 . S
C1775 H1831 0.930 . S
C1776 N1777 1.314 . S
C1776 C1781 1.353 . S
C1776 H1782 0.930 . S
N1777 Li1760 1.990 . S
N1777 C1776 1.314 . S
N1777 C1779 1.279 . S
C1778 C1779 1.358 . S
C1778 C1780 1.356 . S
C1778 H1832 0.930 . S
C1779 N1777 1.279 . S
C1779 C1778 1.358 . S
C1779 H1783 0.930 . S
C1780 C1778 1.356 . S
C1780 C1781 1.348 . S
C1781 C1776 1.353 . S
C1781 C1780 1.348 . S
C1781 H1833 0.929 . S
H1782 C1776 0.930 . S
H1783 C1779 0.930 . S
C1784 N1785 1.314 . S
C1784 C1786 1.353 . S
C1784 H1790 0.930 . S
N1785 Li1761 1.990 . S
N1785 C1784 1.314 . S
N1785 C1788 1.279 1_556 S
C1786 C1784 1.353 . S
C1786 C1789 1.348 . S
C1786 H1834 0.929 . S
C1787 C1788 1.358 . S
C1787 C1789 1.356 1_554 S
C1787 H1835 0.930 . S
C1788 N1785 1.279 1_554 S
C1788 C1787 1.358 . S
C1788 H1791 0.930 . S
C1789 C1786 1.348 . S
C1789 C1787 1.356 1_556 S
H1790 C1784 0.930 . S
H1791 C1788 0.930 . S
C1792 C1794 1.348 1_554 S
C1792 C1795 1.356 . S
C1792 O1822 1.325 . S
N1793 C1796 1.314 1_554 S
N1793 C1797 1.279 . S
C1794 C1792 1.348 1_556 S
C1794 C1796 1.353 . S
C1794 H1836 0.929 . S
C1795 C1792 1.356 . S
C1795 C1797 1.358 . S
C1795 H1837 0.930 . S
C1796 N1793 1.314 1_556 S
C1796 C1794 1.353 . S
C1796 H1838 0.930 . S
C1797 N1793 1.279 . S
C1797 C1795 1.358 . S
C1797 H1839 0.930 . S
C1798 C1799 1.348 . S
C1798 C1800 1.356 . S
C1798 O1823 1.325 . S
C1799 C1798 1.348 . S
C1799 C1801 1.353 . S
C1799 H1840 0.929 . S
C1800 C1798 1.356 . S
C1800 C1802 1.358 . S
C1800 H1841 0.930 . S
C1801 C1799 1.353 . S
C1801 N1803 1.314 . S
C1801 H1842 0.930 . S
C1802 C1800 1.358 . S
C1802 N1803 1.279 . S
C1802 H1843 0.930 . S
N1803 C1801 1.314 . S
N1803 C1802 1.279 . S
C1804 C1806 1.353 . S
C1804 N1807 1.314 . S
C1804 H1810 0.930 . S
C1805 N1807 1.279 . S
C1805 C1808 1.358 . S
C1805 H1811 0.930 . S
C1806 C1804 1.353 . S
C1806 C1809 1.348 . S
C1806 H1844 0.929 . S
N1807 Li1762 1.990 . S
N1807 C1804 1.314 . S
N1807 C1805 1.279 . S
C1808 C1805 1.358 . S
C1808 C1809 1.356 . S
C1808 H1845 0.930 . S
C1809 C1806 1.348 . S
C1809 C1808 1.356 . S
H1810 C1804 0.930 . S
H1811 C1805 0.930 . S
C1812 N1813 1.314 1_554 S
C1812 C1814 1.353 . S
C1812 H1818 0.930 . S
N1813 Li1763 1.990 . S
N1813 C1812 1.314 1_556 S
N1813 C1816 1.279 . S
C1814 C1812 1.353 . S
C1814 C1817 1.348 1_554 S
C1814 H1846 0.929 . S
C1815 C1816 1.358 . S
C1815 C1817 1.356 . S
C1815 H1847 0.930 . S
C1816 N1813 1.279 . S
C1816 C1815 1.358 . S
C1816 H1819 0.930 . S
C1817 C1814 1.348 1_556 S
C1817 C1815 1.356 . S
H1818 C1812 0.930 . S
H1819 C1816 0.930 . S
O1820 Li1760 1.956 . S
O1820 Li1761 1.973 1_554 S
O1820 Li1762 1.961 1_554 S
O1820 C1764 1.325 . S
O1821 Li1760 1.970 . S
O1821 Li1761 1.937 1_554 S
O1821 Li1763 1.961 1_554 S
O1821 C1770 1.325 . S
O1822 Li1760 1.961 . S
O1822 Li1762 1.956 1_554 S
O1822 Li1763 1.970 1_554 S
O1822 C1792 1.325 . S
O1823 Li1761 1.980 . S
O1823 Li1762 1.970 . S
O1823 Li1763 1.956 . S
O1823 C1798 1.325 . S
H1824 C1766 0.929 . S
H1825 C1767 0.930 . S
H1826 C1768 0.930 . S
H1827 C1769 0.930 . S
H1828 C1771 0.930 . S
H1829 C1773 0.929 . S
H1830 C1774 0.930 . S
H1831 C1775 0.930 . S
H1832 C1778 0.930 . S
H1833 C1781 0.929 . S
H1834 C1786 0.929 . S
H1835 C1787 0.930 . S
H1836 C1794 0.929 . S
H1837 C1795 0.930 . S
H1838 C1796 0.930 . S
H1839 C1797 0.930 . S
H1840 C1799 0.929 . S
H1841 C1800 0.930 . S
H1842 C1801 0.930 . S
H1843 C1802 0.930 . S
H1844 C1806 0.929 . S
H1845 C1808 0.930 . S
H1846 C1814 0.929 . S
H1847 C1815 0.930 . S
Li1848 N1865 1.990 . S
Li1848 O1908 1.956 . S
Li1848 O1909 1.970 . S
Li1848 O1910 1.961 . S
Li1849 N1873 1.990 . S
Li1849 O1908 1.970 . S
Li1849 O1909 1.956 . S
Li1849 O1911 1.961 . S
Li1850 N1895 1.990 . S
Li1850 O1908 1.961 . S
Li1850 O1910 1.956 . S
Li1850 O1911 1.970 . S
Li1851 N1901 1.990 . S
Li1851 O1909 1.961 . S
Li1851 O1910 1.970 . S
Li1851 O1911 1.956 . S
C1852 C1854 1.348 . S
C1852 C1855 1.356 . S
C1852 O1908 1.325 . S
N1853 C1856 1.314 . S
N1853 C1857 1.279 . S
C1854 C1852 1.348 . S
C1854 C1856 1.353 . S
C1854 H1912 0.929 . S
C1855 C1852 1.356 . S
C1855 C1857 1.358 . S
C1855 H1913 0.930 . S
C1856 N1853 1.314 . S
C1856 C1854 1.353 . S
C1856 H1914 0.930 . S
C1857 N1853 1.279 . S
C1857 C1855 1.358 . S
C1857 H1915 0.930 . S
C1858 C1861 1.348 . S
C1858 C1862 1.356 . S
C1858 O1909 1.325 . S
C1859 N1860 1.279 . S
C1859 C1862 1.358 . S
C1859 H1916 0.930 . S
N1860 C1859 1.279 . S
N1860 C1863 1.314 . S
C1861 C1858 1.348 . S
C1861 C1863 1.353 . S
C1861 H1917 0.929 . S
C1862 C1858 1.356 . S
C1862 C1859 1.358 . S
C1862 H1918 0.930 . S
C1863 N1860 1.314 . S
C1863 C1861 1.353 . S
C1863 H1919 0.930 . S
C1864 N1865 1.314 . S
C1864 C1869 1.353 . S
C1864 H1870 0.930 . S
N1865 Li1848 1.990 . S
N1865 C1864 1.314 . S
N1865 C1867 1.279 . S
C1866 C1867 1.358 . S
C1866 C1868 1.356 . S
C1866 H1920 0.930 . S
C1867 N1865 1.279 . S
C1867 C1866 1.358 . S
C1867 H1871 0.930 . S
C1868 C1866 1.356 . S
C1868 C1869 1.348 . S
C1869 C1864 1.353 . S
C1869 C1868 1.348 . S
C1869 H1921 0.929 . S
H1870 C1864 0.930 . S
H1871 C1867 0.930 . S
C1872 N1873 1.314 . S
C1872 C1874 1.353 . S
C1872 H1878 0.930 . S
N1873 Li1849 1.990 . S
N1873 C1872 1.314 . S
N1873 C1876 1.279 . S
C1874 C1872 1.353 . S
C1874 C1877 1.348 . S
C1874 H1922 0.929 . S
C1875 C1876 1.358 . S
C1875 C1877 1.356 . S
C1875 H1923 0.930 . S
C1876 N1873 1.279 . S
C1876 C1875 1.358 . S
C1876 H1879 0.930 . S
C1877 C1874 1.348 . S
C1877 C1875 1.356 . S
H1878 C1872 0.930 . S
H1879 C1876 0.930 . S
C1880 C1882 1.348 . S
C1880 C1883 1.356 . S
C1880 O1910 1.325 . S
N1881 C1884 1.314 . S
N1881 C1885 1.279 . S
C1882 C1880 1.348 . S
C1882 C1884 1.353 . S
C1882 H1924 0.929 . S
C1883 C1880 1.356 . S
C1883 C1885 1.358 . S
C1883 H1925 0.930 . S
C1884 N1881 1.314 . S
C1884 C1882 1.353 . S
C1884 H1926 0.930 . S
C1885 N1881 1.279 . S
C1885 C1883 1.358 . S
C1885 H1927 0.930 . S
C1886 C1887 1.348 . S
C1886 C1888 1.356 . S
C1886 O1911 1.325 . S
C1887 C1886 1.348 . S
C1887 C1889 1.353 . S
C1887 H1928 0.929 . S
C1888 C1886 1.356 . S
C1888 C1890 1.358 . S
C1888 H1929 0.930 . S
C1889 C1887 1.353 . S
C1889 N1891 1.314 . S
C1889 H1930 0.930 . S
C1890 C1888 1.358 . S
C1890 N1891 1.279 . S
C1890 H1931 0.930 . S
N1891 C1889 1.314 . S
N1891 C1890 1.279 . S
C1892 C1894 1.353 . S
C1892 N1895 1.314 . S
C1892 H1898 0.930 . S
C1893 N1895 1.279 . S
C1893 C1896 1.358 . S
C1893 H1899 0.930 . S
C1894 C1892 1.353 . S
C1894 C1897 1.348 . S
C1894 H1932 0.929 . S
N1895 Li1850 1.990 . S
N1895 C1892 1.314 . S
N1895 C1893 1.279 . S
C1896 C1893 1.358 . S
C1896 C1897 1.356 . S
C1896 H1933 0.930 . S
C1897 C1894 1.348 . S
C1897 C1896 1.356 . S
H1898 C1892 0.930 . S
H1899 C1893 0.930 . S
C1900 N1901 1.314 . S
C1900 C1902 1.353 . S
C1900 H1906 0.930 . S
N1901 Li1851 1.990 . S
N1901 C1900 1.314 . S
N1901 C1904 1.279 . S
C1902 C1900 1.353 . S
C1902 C1905 1.348 . S
C1902 H1934 0.929 . S
C1903 C1904 1.358 . S
C1903 C1905 1.356 . S
C1903 H1935 0.930 . S
C1904 N1901 1.279 . S
C1904 C1903 1.358 . S
C1904 H1907 0.930 . S
C1905 C1902 1.348 . S
C1905 C1903 1.356 . S
H1906 C1900 0.930 . S
H1907 C1904 0.930 . S
O1908 Li1848 1.956 . S
O1908 Li1849 1.970 . S
O1908 Li1850 1.961 . S
O1908 C1852 1.325 . S
O1909 Li1848 1.970 . S
O1909 Li1849 1.956 . S
O1909 Li1851 1.961 . S
O1909 C1858 1.325 . S
O1910 Li1848 1.961 . S
O1910 Li1850 1.956 . S
O1910 Li1851 1.970 . S
O1910 C1880 1.325 . S
O1911 Li1849 1.961 . S
O1911 Li1850 1.970 . S
O1911 Li1851 1.956 . S
O1911 C1886 1.325 . S
H1912 C1854 0.929 . S
H1913 C1855 0.930 . S
H1914 C1856 0.930 . S
H1915 C1857 0.930 . S
H1916 C1859 0.930 . S
H1917 C1861 0.929 . S
H1918 C1862 0.930 . S
H1919 C1863 0.930 . S
H1920 C1866 0.930 . S
H1921 C1869 0.929 . S
H1922 C1874 0.929 . S
H1923 C1875 0.930 . S
H1924 C1882 0.929 . S
H1925 C1883 0.930 . S
H1926 C1884 0.930 . S
H1927 C1885 0.930 . S
H1928 C1887 0.929 . S
H1929 C1888 0.930 . S
H1930 C1889 0.930 . S
H1931 C1890 0.930 . S
H1932 C1894 0.929 . S
H1933 C1896 0.930 . S
H1934 C1902 0.929 . S
H1935 C1903 0.930 . S
Li1936 N1953 1.990 . S
Li1936 O1996 1.956 . S
Li1936 O1997 1.970 . S
Li1936 O1998 1.961 . S
Li1937 N1961 1.990 . S
Li1937 O1996 1.970 . S
Li1937 O1997 1.956 . S
Li1937 O1999 1.961 . S
Li1938 N1983 1.990 . S
Li1938 O1996 1.961 . S
Li1938 O1998 1.956 . S
Li1938 O1999 1.970 . S
Li1939 N1989 1.990 . S
Li1939 O1997 1.961 . S
Li1939 O1998 1.970 . S
Li1939 O1999 1.956 . S
C1940 C1942 1.348 . S
C1940 C1943 1.356 . S
C1940 O1996 1.325 . S
N1941 C1944 1.314 . S
N1941 C1945 1.279 . S
C1942 C1940 1.348 . S
C1942 C1944 1.353 . S
C1942 H2000 0.929 . S
C1943 C1940 1.356 . S
C1943 C1945 1.358 . S
C1943 H2001 0.930 . S
C1944 N1941 1.314 . S
C1944 C1942 1.353 . S
C1944 H2002 0.930 . S
C1945 N1941 1.279 . S
C1945 C1943 1.358 . S
C1945 H2003 0.930 . S
C1946 C1949 1.348 . S
C1946 C1950 1.356 . S
C1946 O1997 1.325 . S
C1947 N1948 1.279 . S
C1947 C1950 1.358 . S
C1947 H2004 0.930 . S
N1948 C1947 1.279 . S
N1948 C1951 1.314 . S
C1949 C1946 1.348 . S
C1949 C1951 1.353 . S
C1949 H2005 0.929 . S
C1950 C1946 1.356 . S
C1950 C1947 1.358 . S
C1950 H2006 0.930 . S
C1951 N1948 1.314 . S
C1951 C1949 1.353 . S
C1951 H2007 0.930 . S
C1952 N1953 1.314 . S
C1952 C1957 1.353 . S
C1952 H1958 0.930 . S
N1953 Li1936 1.990 . S
N1953 C1952 1.314 . S
N1953 C1955 1.279 . S
C1954 C1955 1.358 . S
C1954 C1956 1.356 . S
C1954 H2008 0.930 . S
C1955 N1953 1.279 . S
C1955 C1954 1.358 . S
C1955 H1959 0.930 . S
C1956 C1954 1.356 . S
C1956 C1957 1.348 . S
C1957 C1952 1.353 . S
C1957 C1956 1.348 . S
C1957 H2009 0.929 . S
H1958 C1952 0.930 . S
H1959 C1955 0.930 . S
C1960 N1961 1.314 . S
C1960 C1962 1.353 . S
C1960 H1966 0.930 . S
N1961 Li1937 1.990 . S
N1961 C1960 1.314 . S
N1961 C1964 1.279 . S
C1962 C1960 1.353 . S
C1962 C1965 1.348 . S
C1962 H2010 0.929 . S
C1963 C1964 1.358 . S
C1963 C1965 1.356 . S
C1963 H2011 0.930 . S
C1964 N1961 1.279 . S
C1964 C1963 1.358 . S
C1964 H1967 0.930 . S
C1965 C1962 1.348 . S
C1965 C1963 1.356 . S
H1966 C1960 0.930 . S
H1967 C1964 0.930 . S
C1968 C1970 1.348 . S
C1968 C1971 1.356 . S
C1968 O1998 1.325 . S
N1969 C1972 1.314 . S
N1969 C1973 1.279 . S
C1970 C1968 1.348 . S
C1970 C1972 1.353 . S
C1970 H2012 0.929 . S
C1971 C1968 1.356 . S
C1971 C1973 1.358 . S
C1971 H2013 0.930 . S
C1972 N1969 1.314 . S
C1972 C1970 1.353 . S
C1972 H2014 0.930 . S
C1973 N1969 1.279 . S
C1973 C1971 1.358 . S
C1973 H2015 0.930 . S
C1974 C1975 1.348 . S
C1974 C1976 1.356 . S
C1974 O1999 1.325 . S
C1975 C1974 1.348 . S
C1975 C1977 1.353 . S
C1975 H2016 0.929 . S
C1976 C1974 1.356 . S
C1976 C1978 1.358 . S
C1976 H2017 0.930 . S
C1977 C1975 1.353 . S
C1977 N1979 1.314 . S
C1977 H2018 0.930 . S
C1978 C1976 1.358 . S
C1978 N1979 1.279 . S
C1978 H2019 0.930 . S
N1979 C1977 1.314 . S
N1979 C1978 1.279 . S
C1980 C1982 1.353 . S
C1980 N1983 1.314 . S
C1980 H1986 0.930 . S
C1981 N1983 1.279 . S
C1981 C1984 1.358 . S
C1981 H1987 0.930 . S
C1982 C1980 1.353 . S
C1982 C1985 1.348 . S
C1982 H2020 0.929 . S
N1983 Li1938 1.990 . S
N1983 C1980 1.314 . S
N1983 C1981 1.279 . S
C1984 C1981 1.358 . S
C1984 C1985 1.356 . S
C1984 H2021 0.930 . S
C1985 C1982 1.348 . S
C1985 C1984 1.356 . S
H1986 C1980 0.930 . S
H1987 C1981 0.930 . S
C1988 N1989 1.314 . S
C1988 C1990 1.353 . S
C1988 H1994 0.930 . S
N1989 Li1939 1.990 . S
N1989 C1988 1.314 . S
N1989 C1992 1.279 . S
C1990 C1988 1.353 . S
C1990 C1993 1.348 . S
C1990 H2022 0.929 . S
C1991 C1992 1.358 . S
C1991 C1993 1.356 . S
C1991 H2023 0.930 . S
C1992 N1989 1.279 . S
C1992 C1991 1.358 . S
C1992 H1995 0.930 . S
C1993 C1990 1.348 . S
C1993 C1991 1.356 . S
H1994 C1988 0.930 . S
H1995 C1992 0.930 . S
O1996 Li1936 1.956 . S
O1996 Li1937 1.970 . S
O1996 Li1938 1.961 . S
O1996 C1940 1.325 . S
O1997 Li1936 1.970 . S
O1997 Li1937 1.956 . S
O1997 Li1939 1.961 . S
O1997 C1946 1.325 . S
O1998 Li1936 1.961 . S
O1998 Li1938 1.956 . S
O1998 Li1939 1.970 . S
O1998 C1968 1.325 . S
O1999 Li1937 1.961 . S
O1999 Li1938 1.970 . S
O1999 Li1939 1.956 . S
O1999 C1974 1.325 . S
H2000 C1942 0.929 . S
H2001 C1943 0.930 . S
H2002 C1944 0.930 . S
H2003 C1945 0.930 . S
H2004 C1947 0.930 . S
H2005 C1949 0.929 . S
H2006 C1950 0.930 . S
H2007 C1951 0.930 . S
H2008 C1954 0.930 . S
H2009 C1957 0.929 . S
H2010 C1962 0.929 . S
H2011 C1963 0.930 . S
H2012 C1970 0.929 . S
H2013 C1971 0.930 . S
H2014 C1972 0.930 . S
H2015 C1973 0.930 . S
H2016 C1975 0.929 . S
H2017 C1976 0.930 . S
H2018 C1977 0.930 . S
H2019 C1978 0.930 . S
H2020 C1982 0.929 . S
H2021 C1984 0.930 . S
H2022 C1990 0.929 . S
H2023 C1991 0.930 . S
Li2024 N2041 1.990 . S
Li2024 O2084 1.956 . S
Li2024 O2085 1.970 . S
Li2024 O2086 1.961 . S
Li2025 N2049 1.990 . S
Li2025 O2084 1.970 . S
Li2025 O2085 1.956 . S
Li2025 O2087 1.961 . S
Li2026 N2071 1.990 . S
Li2026 O2084 1.961 . S
Li2026 O2086 1.956 . S
Li2026 O2087 1.970 . S
Li2027 N2077 1.990 . S
Li2027 O2085 1.961 . S
Li2027 O2086 1.970 . S
Li2027 O2087 1.956 . S
C2028 C2030 1.348 . S
C2028 C2031 1.356 . S
C2028 O2084 1.325 . S
N2029 C2032 1.314 . S
N2029 C2033 1.279 . S
C2030 C2028 1.348 . S
C2030 C2032 1.353 . S
C2030 H2088 0.929 . S
C2031 C2028 1.356 . S
C2031 C2033 1.358 . S
C2031 H2089 0.930 . S
C2032 N2029 1.314 . S
C2032 C2030 1.353 . S
C2032 H2090 0.930 . S
C2033 N2029 1.279 . S
C2033 C2031 1.358 . S
C2033 H2091 0.930 . S
C2034 C2037 1.348 . S
C2034 C2038 1.356 . S
C2034 O2085 1.325 . S
C2035 N2036 1.279 . S
C2035 C2038 1.358 . S
C2035 H2092 0.930 . S
N2036 C2035 1.279 . S
N2036 C2039 1.314 . S
C2037 C2034 1.348 . S
C2037 C2039 1.353 . S
C2037 H2093 0.929 . S
C2038 C2034 1.356 . S
C2038 C2035 1.358 . S
C2038 H2094 0.930 . S
C2039 N2036 1.314 . S
C2039 C2037 1.353 . S
C2039 H2095 0.930 . S
C2040 N2041 1.314 . S
C2040 C2045 1.353 . S
C2040 H2046 0.930 . S
N2041 Li2024 1.990 . S
N2041 C2040 1.314 . S
N2041 C2043 1.279 . S
C2042 C2043 1.358 . S
C2042 C2044 1.356 . S
C2042 H2096 0.930 . S
C2043 N2041 1.279 . S
C2043 C2042 1.358 . S
C2043 H2047 0.930 . S
C2044 C2042 1.356 . S
C2044 C2045 1.348 . S
C2045 C2040 1.353 . S
C2045 C2044 1.348 . S
C2045 H2097 0.929 . S
H2046 C2040 0.930 . S
H2047 C2043 0.930 . S
C2048 N2049 1.314 . S
C2048 C2050 1.353 . S
C2048 H2054 0.930 . S
N2049 Li2025 1.990 . S
N2049 C2048 1.314 . S
N2049 C2052 1.279 . S
C2050 C2048 1.353 . S
C2050 C2053 1.348 . S
C2050 H2098 0.929 . S
C2051 C2052 1.358 . S
C2051 C2053 1.356 . S
C2051 H2099 0.930 . S
C2052 N2049 1.279 . S
C2052 C2051 1.358 . S
C2052 H2055 0.930 . S
C2053 C2050 1.348 . S
C2053 C2051 1.356 . S
H2054 C2048 0.930 . S
H2055 C2052 0.930 . S
C2056 C2058 1.348 . S
C2056 C2059 1.356 . S
C2056 O2086 1.325 . S
N2057 C2060 1.314 . S
N2057 C2061 1.279 . S
C2058 C2056 1.348 . S
C2058 C2060 1.353 . S
C2058 H2100 0.929 . S
C2059 C2056 1.356 . S
C2059 C2061 1.358 . S
C2059 H2101 0.930 . S
C2060 N2057 1.314 . S
C2060 C2058 1.353 . S
C2060 H2102 0.930 . S
C2061 N2057 1.279 . S
C2061 C2059 1.358 . S
C2061 H2103 0.930 . S
C2062 C2063 1.348 . S
C2062 C2064 1.356 . S
C2062 O2087 1.325 . S
C2063 C2062 1.348 . S
C2063 C2065 1.353 . S
C2063 H2104 0.929 . S
C2064 C2062 1.356 . S
C2064 C2066 1.358 . S
C2064 H2105 0.930 . S
C2065 C2063 1.353 . S
C2065 N2067 1.314 . S
C2065 H2106 0.930 . S
C2066 C2064 1.358 . S
C2066 N2067 1.279 . S
C2066 H2107 0.930 . S
N2067 C2065 1.314 . S
N2067 C2066 1.279 . S
C2068 C2070 1.353 . S
C2068 N2071 1.314 . S
C2068 H2074 0.930 . S
C2069 N2071 1.279 . S
C2069 C2072 1.358 . S
C2069 H2075 0.930 . S
C2070 C2068 1.353 . S
C2070 C2073 1.348 . S
C2070 H2108 0.929 . S
N2071 Li2026 1.990 . S
N2071 C2068 1.314 . S
N2071 C2069 1.279 . S
C2072 C2069 1.358 . S
C2072 C2073 1.356 . S
C2072 H2109 0.930 . S
C2073 C2070 1.348 . S
C2073 C2072 1.356 . S
H2074 C2068 0.930 . S
H2075 C2069 0.930 . S
C2076 N2077 1.314 . S
C2076 C2078 1.353 . S
C2076 H2082 0.930 . S
N2077 Li2027 1.990 . S
N2077 C2076 1.314 . S
N2077 C2080 1.279 . S
C2078 C2076 1.353 . S
C2078 C2081 1.348 . S
C2078 H2110 0.929 . S
C2079 C2080 1.358 . S
C2079 C2081 1.356 . S
C2079 H2111 0.930 . S
C2080 N2077 1.279 . S
C2080 C2079 1.358 . S
C2080 H2083 0.930 . S
C2081 C2078 1.348 . S
C2081 C2079 1.356 . S
H2082 C2076 0.930 . S
H2083 C2080 0.930 . S
O2084 Li2024 1.956 . S
O2084 Li2025 1.970 . S
O2084 Li2026 1.961 . S
O2084 C2028 1.325 . S
O2085 Li2024 1.970 . S
O2085 Li2025 1.956 . S
O2085 Li2027 1.961 . S
O2085 C2034 1.325 . S
O2086 Li2024 1.961 . S
O2086 Li2026 1.956 . S
O2086 Li2027 1.970 . S
O2086 C2056 1.325 . S
O2087 Li2025 1.961 . S
O2087 Li2026 1.970 . S
O2087 Li2027 1.956 . S
O2087 C2062 1.325 . S
H2088 C2030 0.929 . S
H2089 C2031 0.930 . S
H2090 C2032 0.930 . S
H2091 C2033 0.930 . S
H2092 C2035 0.930 . S
H2093 C2037 0.929 . S
H2094 C2038 0.930 . S
H2095 C2039 0.930 . S
H2096 C2042 0.930 . S
H2097 C2045 0.929 . S
H2098 C2050 0.929 . S
H2099 C2051 0.930 . S
H2100 C2058 0.929 . S
H2101 C2059 0.930 . S
H2102 C2060 0.930 . S
H2103 C2061 0.930 . S
H2104 C2063 0.929 . S
H2105 C2064 0.930 . S
H2106 C2065 0.930 . S
H2107 C2066 0.930 . S
H2108 C2070 0.929 . S
H2109 C2072 0.930 . S
H2110 C2078 0.929 . S
H2111 C2079 0.930 . S
Tb2112 N2143 2.660 1_545 S
Tb2112 N2150 2.600 1_544 S
Tb2112 O2156 2.546 1_454 S
Tb2112 O2157 2.610 . S
Tb2112 O2159 2.320 . S
Tb2112 O2160 2.552 . S
Tb2112 O2161 2.413 1_455 S
Tb2112 O2163 2.362 . S
Tb2112 O2164 2.421 1_554 S
Tb2112 C2176 2.833 1_454 S
C2113 C2116 1.432 . S
C2113 C2117 1.414 . S
C2113 N2120 1.359 . S
C2114 C2116 1.417 . S
C2114 C2118 1.432 . S
C2114 C2126 1.454 . S
C2115 C2117 1.444 . S
C2115 C2118 1.317 . S
C2115 H2138 0.929 . S
C2116 C2113 1.432 . S
C2116 C2114 1.417 . S
C2116 N2124 1.360 . S
C2117 C2113 1.414 . S
C2117 C2115 1.444 . S
C2117 C2122 1.385 . S
C2118 C2114 1.432 . S
C2118 C2115 1.317 . S
C2118 H2130 0.930 . S
C2119 C2121 1.392 . S
C2119 C2122 1.370 . S
C2119 H2131 0.931 . S
N2120 C2113 1.359 . S
N2120 C2121 1.327 . S
N2120 Tb2123 2.600 . S
C2121 C2119 1.392 . S
C2121 N2120 1.327 . S
C2121 H2128 0.930 . S
C2122 C2117 1.385 . S
C2122 C2119 1.370 . S
C2122 H2141 0.930 . S
Tb2123 N2120 2.600 . S
Tb2123 N2124 2.660 . S
Tb2123 O2157 2.362 . S
Tb2123 O2158 2.421 . S
Tb2123 O2162 2.546 . S
Tb2123 O2163 2.610 . S
Tb2123 O2165 2.320 1_554 S
Tb2123 O2166 2.552 . S
Tb2123 O2167 2.413 . S
Tb2123 C2187 2.833 . S
N2124 C2116 1.360 . S
N2124 Tb2123 2.660 . S
N2124 C2125 1.305 1_554 S
C2125 N2124 1.305 1_556 S
C2125 C2127 1.407 . S
C2125 H2132 0.930 . S
C2126 C2114 1.454 . S
C2126 C2127 1.327 1_554 S
C2126 H2134 0.906 1_554 S
C2127 C2125 1.407 . S
C2127 C2126 1.327 1_556 S
C2127 H2129 0.930 . S
H2128 C2121 0.930 . S
H2129 C2127 0.930 . S
H2130 C2118 0.930 . S
H2131 C2119 0.931 . S
H2132 C2125 0.930 . S
H2133 C2147 0.930 . S
H2134 C2126 0.906 1_556 S
H2135 C2153 0.930 1_545 S
H2136 C2144 0.930 1_545 S
H2137 C2151 0.931 . S
H2138 C2115 0.929 . S
H2139 C2145 0.930 . S
H2140 C2178 0.953 . S
H2141 C2122 0.930 . S
H2142 C2177 0.929 . S
N2143 Tb2112 2.660 1_565 S
N2143 C2144 1.305 . S
N2143 C2148 1.360 . S
C2144 H2136 0.930 1_565 S
C2144 N2143 1.305 . S
C2144 C2147 1.407 . S
C2145 H2139 0.930 . S
C2145 C2146 1.410 . S
C2145 C2147 1.345 1_655 S
C2146 C2145 1.410 . S
C2146 C2148 1.417 1_655 S
C2146 C2178 1.453 . S
C2147 H2133 0.930 . S
C2147 C2144 1.407 . S
C2147 C2145 1.345 1_455 S
C2148 N2143 1.360 . S
C2148 C2146 1.417 1_455 S
C2148 C2152 1.432 1_554 S
H2149 C2154 0.930 . S
N2150 Tb2112 2.600 1_566 S
N2150 C2152 1.359 . S
N2150 C2153 1.327 . S
C2151 H2137 0.931 . S
C2151 C2153 1.402 . S
C2151 C2154 1.360 1_455 S
C2152 C2148 1.432 1_556 S
C2152 N2150 1.359 . S
C2152 C2155 1.414 1_455 S
C2153 H2135 0.930 1_565 S
C2153 N2150 1.327 . S
C2153 C2151 1.402 . S
C2154 H2149 0.930 . S
C2154 C2151 1.360 1_655 S
C2154 C2155 1.385 . S
C2155 C2152 1.414 1_655 S
C2155 C2154 1.385 . S
C2155 C2177 1.444 . S
O2156 Tb2112 2.546 1_656 S
O2156 C2176 1.251 . S
O2157 Tb2112 2.610 . S
O2157 Tb2123 2.362 . S
O2157 C2168 1.283 . S
O2158 Tb2123 2.421 . S
O2158 C2175 1.262 . S
O2159 Tb2112 2.320 . S
O2159 C2175 1.260 . S
O2160 Tb2112 2.552 . S
O2160 C2168 1.243 . S
O2161 Tb2112 2.413 1_655 S
O2161 C2176 1.256 1_554 S
O2162 Tb2123 2.546 . S
O2162 C2187 1.251 . S
O2163 Tb2112 2.362 . S
O2163 Tb2123 2.610 . S
O2163 C2179 1.283 . S
O2164 Tb2112 2.421 1_556 S
O2164 C2186 1.262 . S
O2165 Tb2123 2.320 1_556 S
O2165 C2186 1.260 . S
O2166 Tb2123 2.552 . S
O2166 C2179 1.243 . S
O2167 Tb2123 2.413 . S
O2167 C2187 1.256 . S
C2168 O2157 1.283 . S
C2168 O2160 1.243 . S
C2169 C2171 1.382 1_556 S
C2169 C2173 1.393 . S
C2169 C2176 1.500 . S
C2170 C2171 1.400 . S
C2170 C2172 1.384 1_554 S
C2171 C2169 1.382 1_554 S
C2171 C2170 1.400 . S
C2171 H2188 0.930 . S
C2172 C2170 1.384 1_556 S
C2172 C2174 1.392 . S
C2172 H2189 0.931 . S
C2173 C2169 1.393 . S
C2173 C2174 1.401 . S
C2173 H2190 0.930 . S
C2174 C2172 1.392 . S
C2174 C2173 1.401 . S
C2174 H2191 0.930 . S
C2175 O2158 1.262 . S
C2175 O2159 1.260 . S
C2176 Tb2112 2.833 1_656 S
C2176 O2156 1.251 . S
C2176 O2161 1.256 1_556 S
C2176 C2169 1.500 . S
C2177 H2142 0.929 . S
C2177 C2155 1.444 . S
C2177 C2178 1.275 1_556 S
C2178 H2140 0.953 . S
C2178 C2146 1.453 . S
C2178 C2177 1.275 1_554 S
C2179 O2163 1.283 . S
C2179 O2166 1.243 . S
C2180 C2181 1.382 . S
C2180 C2184 1.393 . S
C2180 C2187 1.500 . S
C2181 C2180 1.382 . S
C2181 C2182 1.400 . S
C2181 H2192 0.930 . S
C2182 C2181 1.400 . S
C2182 C2183 1.384 . S
C2183 C2182 1.384 . S
C2183 C2185 1.392 . S
C2183 H2193 0.931 . S
C2184 C2180 1.393 . S
C2184 C2185 1.401 . S
C2184 H2194 0.930 . S
C2185 C2183 1.392 . S
C2185 C2184 1.401 . S
C2185 H2195 0.930 . S
C2186 O2164 1.262 . S
C2186 O2165 1.260 . S
C2187 Tb2123 2.833 . S
C2187 O2162 1.251 . S
C2187 O2167 1.256 . S
C2187 C2180 1.500 . S
H2188 C2171 0.930 . S
H2189 C2172 0.931 . S
H2190 C2173 0.930 . S
H2191 C2174 0.930 . S
H2192 C2181 0.930 . S
H2193 C2183 0.931 . S
H2194 C2184 0.930 . S
H2195 C2185 0.930 . S
Tb2196 N2227 2.660 . S
Tb2196 N2234 2.600 . S
Tb2196 O2240 2.546 . S
Tb2196 O2241 2.610 . S
Tb2196 O2243 2.320 . S
Tb2196 O2244 2.552 . S
Tb2196 O2245 2.413 . S
Tb2196 O2247 2.362 . S
Tb2196 O2248 2.421 . S
Tb2196 C2260 2.833 . S
C2197 C2200 1.432 . S
C2197 C2201 1.414 . S
C2197 N2204 1.359 . S
C2198 C2200 1.417 . S
C2198 C2202 1.432 . S
C2198 C2210 1.410 . S
C2199 C2201 1.444 . S
C2199 C2202 1.317 . S
C2199 H2222 0.929 . S
C2200 C2197 1.432 . S
C2200 C2198 1.417 . S
C2200 N2208 1.360 . S
C2201 C2197 1.414 . S
C2201 C2199 1.444 . S
C2201 C2206 1.385 . S
C2202 C2198 1.432 . S
C2202 C2199 1.317 . S
C2202 H2214 0.930 . S
C2203 C2205 1.392 . S
C2203 C2206 1.370 . S
C2203 H2215 0.931 . S
N2204 C2197 1.359 . S
N2204 C2205 1.327 . S
N2204 Tb2207 2.600 . S
C2205 C2203 1.392 . S
C2205 N2204 1.327 . S
C2205 H2212 0.930 . S
C2206 C2201 1.385 . S
C2206 C2203 1.370 . S
C2206 H2225 0.930 . S
Tb2207 N2204 2.600 . S
Tb2207 N2208 2.660 . S
Tb2207 O2241 2.362 . S
Tb2207 O2242 2.421 . S
Tb2207 O2246 2.546 . S
Tb2207 O2247 2.610 . S
Tb2207 O2249 2.320 . S
Tb2207 O2250 2.552 . S
Tb2207 O2251 2.413 . S
Tb2207 C2271 2.833 . S
N2208 C2200 1.360 . S
N2208 Tb2207 2.660 . S
N2208 C2209 1.305 . S
C2209 N2208 1.305 . S
C2209 C2211 1.407 . S
C2209 H2216 0.930 . S
C2210 C2198 1.410 . S
C2210 C2211 1.345 . S
C2210 H2218 0.930 . S
C2211 C2209 1.407 . S
C2211 C2210 1.345 . S
C2211 H2213 0.930 . S
H2212 C2205 0.930 . S
H2213 C2211 0.930 . S
H2214 C2202 0.930 . S
H2215 C2203 0.931 . S
H2216 C2209 0.930 . S
H2217 C2231 0.930 . S
H2218 C2210 0.930 . S
H2219 C2237 0.930 . S
H2220 C2228 0.930 . S
H2221 C2235 0.931 . S
H2222 C2199 0.929 . S
H2223 C2229 0.930 . S
H2224 C2262 0.930 . S
H2225 C2206 0.930 . S
H2226 C2261 0.929 . S
N2227 Tb2196 2.660 . S
N2227 C2228 1.305 . S
N2227 C2232 1.360 . S
C2228 H2220 0.930 . S
C2228 N2227 1.305 . S
C2228 C2231 1.407 . S
C2229 H2223 0.930 . S
C2229 C2230 1.410 . S
C2229 C2231 1.345 . S
C2230 C2229 1.410 . S
C2230 C2232 1.417 . S
C2230 C2262 1.432 . S
C2231 H2217 0.930 . S
C2231 C2228 1.407 . S
C2231 C2229 1.345 . S
C2232 N2227 1.360 . S
C2232 C2230 1.417 . S
C2232 C2236 1.432 . S
H2233 C2238 0.930 . S
N2234 Tb2196 2.600 . S
N2234 C2236 1.359 . S
N2234 C2237 1.327 . S
C2235 H2221 0.931 . S
C2235 C2237 1.392 . S
C2235 C2238 1.370 . S
C2236 C2232 1.432 . S
C2236 N2234 1.359 . S
C2236 C2239 1.414 . S
C2237 H2219 0.930 . S
C2237 N2234 1.327 . S
C2237 C2235 1.392 . S
C2238 H2233 0.930 . S
C2238 C2235 1.370 . S
C2238 C2239 1.385 . S
C2239 C2236 1.414 . S
C2239 C2238 1.385 . S
C2239 C2261 1.444 . S
O2240 Tb2196 2.546 . S
O2240 C2260 1.251 . S
O2241 Tb2196 2.610 . S
O2241 Tb2207 2.362 . S
O2241 C2252 1.283 . S
O2242 Tb2207 2.421 . S
O2242 C2259 1.262 . S
O2243 Tb2196 2.320 . S
O2243 C2259 1.260 . S
O2244 Tb2196 2.552 . S
O2244 C2252 1.243 . S
O2245 Tb2196 2.413 . S
O2245 C2260 1.256 . S
O2246 Tb2207 2.546 . S
O2246 C2271 1.251 . S
O2247 Tb2196 2.362 . S
O2247 Tb2207 2.610 . S
O2247 C2263 1.283 . S
O2248 Tb2196 2.421 . S
O2248 C2270 1.262 . S
O2249 Tb2207 2.320 . S
O2249 C2270 1.260 . S
O2250 Tb2207 2.552 . S
O2250 C2263 1.243 . S
O2251 Tb2207 2.413 . S
O2251 C2271 1.256 . S
C2252 O2241 1.283 . S
C2252 O2244 1.243 . S
C2253 C2255 1.382 . S
C2253 C2257 1.393 . S
C2253 C2260 1.500 . S
C2254 C2255 1.400 . S
C2254 C2256 1.384 . S
C2255 C2253 1.382 . S
C2255 C2254 1.400 . S
C2255 H2272 0.930 . S
C2256 C2254 1.384 . S
C2256 C2258 1.392 . S
C2256 H2273 0.931 . S
C2257 C2253 1.393 . S
C2257 C2258 1.401 . S
C2257 H2274 0.930 . S
C2258 C2256 1.392 . S
C2258 C2257 1.401 . S
C2258 H2275 0.930 . S
C2259 O2242 1.262 . S
C2259 O2243 1.260 . S
C2260 Tb2196 2.833 . S
C2260 O2240 1.251 . S
C2260 O2245 1.256 . S
C2260 C2253 1.500 . S
C2261 H2226 0.929 . S
C2261 C2239 1.444 . S
C2261 C2262 1.317 . S
C2262 H2224 0.930 . S
C2262 C2230 1.432 . S
C2262 C2261 1.317 . S
C2263 O2247 1.283 . S
C2263 O2250 1.243 . S
C2264 C2265 1.382 . S
C2264 C2268 1.393 . S
C2264 C2271 1.500 . S
C2265 C2264 1.382 . S
C2265 C2266 1.400 . S
C2265 H2276 0.930 . S
C2266 C2265 1.400 . S
C2266 C2267 1.384 . S
C2267 C2266 1.384 . S
C2267 C2269 1.392 . S
C2267 H2277 0.931 . S
C2268 C2264 1.393 . S
C2268 C2269 1.401 . S
C2268 H2278 0.930 . S
C2269 C2267 1.392 . S
C2269 C2268 1.401 . S
C2269 H2279 0.930 . S
C2270 O2248 1.262 . S
C2270 O2249 1.260 . S
C2271 Tb2207 2.833 . S
C2271 O2246 1.251 . S
C2271 O2251 1.256 . S
C2271 C2264 1.500 . S
H2272 C2255 0.930 . S
H2273 C2256 0.931 . S
H2274 C2257 0.930 . S
H2275 C2258 0.930 . S
H2276 C2265 0.930 . S
H2277 C2267 0.931 . S
H2278 C2268 0.930 . S
H2279 C2269 0.930 . S
Tb2280 N2311 2.660 . S
Tb2280 N2318 2.600 . S
Tb2280 O2324 2.546 . S
Tb2280 O2325 2.610 . S
Tb2280 O2327 2.320 . S
Tb2280 O2328 2.515 1_545 S
Tb2280 O2329 2.413 . S
Tb2280 O2331 2.362 . S
Tb2280 O2332 2.421 . S
Tb2280 C2344 2.833 . S
C2281 C2284 1.432 . S
C2281 C2285 1.414 . S
C2281 N2288 1.359 1_565 S
C2282 C2284 1.417 . S
C2282 C2286 1.432 . S
C2282 C2294 1.410 . S
C2283 C2285 1.444 . S
C2283 C2286 1.317 . S
C2283 H2306 0.929 . S
C2284 C2281 1.432 . S
C2284 C2282 1.417 . S
C2284 N2292 1.330 1_565 S
C2285 C2281 1.414 . S
C2285 C2283 1.444 . S
C2285 C2290 1.385 . S
C2286 C2282 1.432 . S
C2286 C2283 1.317 . S
C2286 H2298 0.930 . S
C2287 C2289 1.392 . S
C2287 C2290 1.370 1_545 S
C2287 H2299 0.931 . S
N2288 C2281 1.359 1_545 S
N2288 C2289 1.327 . S
N2288 Tb2291 2.600 . S
C2289 C2287 1.392 . S
C2289 N2288 1.327 . S
C2289 H2296 0.930 . S
C2290 C2285 1.385 . S
C2290 C2287 1.370 1_565 S
C2290 H2309 0.930 . S
Tb2291 N2288 2.600 . S
Tb2291 N2292 2.693 . S
Tb2291 O2325 2.362 . S
Tb2291 O2326 2.421 . S
Tb2291 O2330 2.546 . S
Tb2291 O2331 2.610 . S
Tb2291 O2333 2.320 . S
Tb2291 O2334 2.552 . S
Tb2291 O2335 2.413 . S
Tb2291 C2355 2.833 . S
N2292 C2284 1.330 1_545 S
N2292 Tb2291 2.693 . S
N2292 C2293 1.300 1_545 S
C2293 N2292 1.300 1_565 S
C2293 C2295 1.407 . S
C2293 H2300 0.930 1_565 S
C2294 C2282 1.410 . S
C2294 C2295 1.345 . S
C2294 H2302 0.930 . S
C2295 C2293 1.407 . S
C2295 C2294 1.345 . S
C2295 H2297 0.930 . S
H2296 C2289 0.930 . S
H2297 C2295 0.930 . S
H2298 C2286 0.930 . S
H2299 C2287 0.931 . S
H2300 C2293 0.930 1_545 S
H2301 C2315 0.930 . S
H2302 C2294 0.930 . S
H2303 C2321 0.930 . S
H2304 C2312 0.930 . S
H2305 C2319 0.931 . S
H2306 C2283 0.929 . S
H2307 C2313 0.930 . S
H2308 C2346 0.930 . S
H2309 C2290 0.930 . S
H2310 C2345 0.929 . S
N2311 Tb2280 2.660 . S
N2311 C2312 1.305 . S
N2311 C2316 1.360 . S
C2312 H2304 0.930 . S
C2312 N2311 1.305 . S
C2312 C2315 1.407 . S
C2313 H2307 0.930 . S
C2313 C2314 1.410 . S
C2313 C2315 1.345 . S
C2314 C2313 1.410 . S
C2314 C2316 1.417 . S
C2314 C2346 1.432 . S
C2315 H2301 0.930 . S
C2315 C2312 1.407 . S
C2315 C2313 1.345 . S
C2316 N2311 1.360 . S
C2316 C2314 1.417 . S
C2316 C2320 1.432 . S
H2317 C2322 0.930 . S
N2318 Tb2280 2.600 . S
N2318 C2320 1.359 . S
N2318 C2321 1.327 . S
C2319 H2305 0.931 . S
C2319 C2321 1.392 . S
C2319 C2322 1.370 . S
C2320 C2316 1.432 . S
C2320 N2318 1.359 . S
C2320 C2323 1.414 . S
C2321 H2303 0.930 . S
C2321 N2318 1.327 . S
C2321 C2319 1.392 . S
C2322 H2317 0.930 . S
C2322 C2319 1.370 . S
C2322 C2323 1.385 . S
C2323 C2320 1.414 . S
C2323 C2322 1.385 . S
C2323 C2345 1.444 . S
O2324 Tb2280 2.546 . S
O2324 C2344 1.251 . S
O2325 Tb2280 2.610 . S
O2325 Tb2291 2.362 . S
O2325 C2336 1.283 1_545 S
O2326 Tb2291 2.421 . S
O2326 C2343 1.262 . S
O2327 Tb2280 2.320 . S
O2327 C2343 1.260 . S
O2328 Tb2280 2.515 1_565 S
O2328 C2336 1.241 . S
O2329 Tb2280 2.413 . S
O2329 C2344 1.256 . S
O2330 Tb2291 2.546 . S
O2330 C2355 1.251 . S
O2331 Tb2280 2.362 . S
O2331 Tb2291 2.610 . S
O2331 C2347 1.283 . S
O2332 Tb2280 2.421 . S
O2332 C2354 1.262 . S
O2333 Tb2291 2.320 . S
O2333 C2354 1.260 . S
O2334 Tb2291 2.552 . S
O2334 C2347 1.243 . S
O2335 Tb2291 2.413 . S
O2335 C2355 1.256 . S
C2336 O2325 1.283 1_565 S
C2336 O2328 1.241 . S
C2337 C2339 1.382 . S
C2337 C2341 1.393 . S
C2337 C2344 1.500 . S
C2338 C2339 1.400 1_565 S
C2338 C2340 1.384 . S
C2339 C2337 1.382 . S
C2339 C2338 1.400 1_545 S
C2339 H2356 0.930 . S
C2340 C2338 1.384 . S
C2340 C2342 1.392 1_565 S
C2340 H2357 0.931 . S
C2341 C2337 1.393 . S
C2341 C2342 1.401 . S
C2341 H2358 0.930 . S
C2342 C2340 1.392 1_545 S
C2342 C2341 1.401 . S
C2342 H2359 0.930 . S
C2343 O2326 1.262 . S
C2343 O2327 1.260 . S
C2344 Tb2280 2.833 . S
C2344 O2324 1.251 . S
C2344 O2329 1.256 . S
C2344 C2337 1.500 . S
C2345 H2310 0.929 . S
C2345 C2323 1.444 . S
C2345 C2346 1.317 . S
C2346 H2308 0.930 . S
C2346 C2314 1.432 . S
C2346 C2345 1.317 . S
C2347 O2331 1.283 . S
C2347 O2334 1.243 . S
C2348 C2349 1.382 . S
C2348 C2352 1.393 . S
C2348 C2355 1.500 . S
C2349 C2348 1.382 . S
C2349 C2350 1.400 . S
C2349 H2360 0.930 . S
C2350 C2349 1.400 . S
C2350 C2351 1.384 . S
C2351 C2350 1.384 . S
C2351 C2353 1.392 . S
C2351 H2361 0.931 . S
C2352 C2348 1.393 . S
C2352 C2353 1.401 . S
C2352 H2362 0.930 . S
C2353 C2351 1.392 . S
C2353 C2352 1.401 . S
C2353 H2363 0.930 . S
C2354 O2332 1.262 . S
C2354 O2333 1.260 . S
C2355 Tb2291 2.833 . S
C2355 O2330 1.251 . S
C2355 O2335 1.256 . S
C2355 C2348 1.500 . S
H2356 C2339 0.930 . S
H2357 C2340 0.931 . S
H2358 C2341 0.930 . S
H2359 C2342 0.930 . S
H2360 C2349 0.930 . S
H2361 C2351 0.931 . S
H2362 C2352 0.930 . S
H2363 C2353 0.930 . S
Tb2364 N2395 2.660 . S
Tb2364 N2402 2.600 . S
Tb2364 O2408 2.546 . S
Tb2364 O2409 2.610 . S
Tb2364 O2411 2.320 . S
Tb2364 O2412 2.552 . S
Tb2364 O2413 2.413 . S
Tb2364 O2415 2.362 . S
Tb2364 O2416 2.421 . S
Tb2364 C2428 2.833 . S
C2365 C2368 1.432 . S
C2365 C2369 1.414 . S
C2365 N2372 1.359 . S
C2366 C2368 1.417 . S
C2366 C2370 1.432 . S
C2366 C2378 1.410 . S
C2367 C2369 1.444 . S
C2367 C2370 1.317 . S
C2367 H2390 0.929 . S
C2368 C2365 1.432 . S
C2368 C2366 1.417 . S
C2368 N2376 1.360 . S
C2369 C2365 1.414 . S
C2369 C2367 1.444 . S
C2369 C2374 1.385 . S
C2370 C2366 1.432 . S
C2370 C2367 1.317 . S
C2370 H2382 0.930 . S
C2371 C2373 1.392 . S
C2371 C2374 1.370 . S
C2371 H2383 0.931 . S
N2372 C2365 1.359 . S
N2372 C2373 1.327 . S
N2372 Tb2375 2.600 . S
C2373 C2371 1.392 . S
C2373 N2372 1.327 . S
C2373 H2380 0.930 . S
C2374 C2369 1.385 . S
C2374 C2371 1.370 . S
C2374 H2393 0.930 . S
Tb2375 N2372 2.600 . S
Tb2375 N2376 2.660 . S
Tb2375 O2409 2.362 . S
Tb2375 O2410 2.421 . S
Tb2375 O2414 2.546 . S
Tb2375 O2415 2.610 . S
Tb2375 O2417 2.320 . S
Tb2375 O2418 2.552 . S
Tb2375 O2419 2.413 . S
Tb2375 C2439 2.833 . S
N2376 C2368 1.360 . S
N2376 Tb2375 2.660 . S
N2376 C2377 1.305 . S
C2377 N2376 1.305 . S
C2377 C2379 1.407 . S
C2377 H2384 0.930 . S
C2378 C2366 1.410 . S
C2378 C2379 1.345 . S
C2378 H2386 0.930 . S
C2379 C2377 1.407 . S
C2379 C2378 1.345 . S
C2379 H2381 0.930 . S
H2380 C2373 0.930 . S
H2381 C2379 0.930 . S
H2382 C2370 0.930 . S
H2383 C2371 0.931 . S
H2384 C2377 0.930 . S
H2385 C2399 0.930 . S
H2386 C2378 0.930 . S
H2387 C2405 0.930 . S
H2388 C2396 0.930 . S
H2389 C2403 0.931 . S
H2390 C2367 0.929 . S
H2391 C2397 0.930 . S
H2392 C2430 0.930 . S
H2393 C2374 0.930 . S
H2394 C2429 0.929 . S
N2395 Tb2364 2.660 . S
N2395 C2396 1.305 . S
N2395 C2400 1.360 . S
C2396 H2388 0.930 . S
C2396 N2395 1.305 . S
C2396 C2399 1.407 . S
C2397 H2391 0.930 . S
C2397 C2398 1.410 . S
C2397 C2399 1.345 . S
C2398 C2397 1.410 . S
C2398 C2400 1.417 . S
C2398 C2430 1.432 . S
C2399 H2385 0.930 . S
C2399 C2396 1.407 . S
C2399 C2397 1.345 . S
C2400 N2395 1.360 . S
C2400 C2398 1.417 . S
C2400 C2404 1.432 . S
H2401 C2406 0.930 . S
N2402 Tb2364 2.600 . S
N2402 C2404 1.359 . S
N2402 C2405 1.327 . S
C2403 H2389 0.931 . S
C2403 C2405 1.392 . S
C2403 C2406 1.370 . S
C2404 C2400 1.432 . S
C2404 N2402 1.359 . S
C2404 C2407 1.414 . S
C2405 H2387 0.930 . S
C2405 N2402 1.327 . S
C2405 C2403 1.392 . S
C2406 H2401 0.930 . S
C2406 C2403 1.370 . S
C2406 C2407 1.385 . S
C2407 C2404 1.414 . S
C2407 C2406 1.385 . S
C2407 C2429 1.444 . S
O2408 Tb2364 2.546 . S
O2408 C2428 1.251 . S
O2409 Tb2364 2.610 . S
O2409 Tb2375 2.362 . S
O2409 C2420 1.283 . S
O2410 Tb2375 2.421 . S
O2410 C2427 1.262 . S
O2411 Tb2364 2.320 . S
O2411 C2427 1.260 . S
O2412 Tb2364 2.552 . S
O2412 C2420 1.243 . S
O2413 Tb2364 2.413 . S
O2413 C2428 1.256 . S
O2414 Tb2375 2.546 . S
O2414 C2439 1.251 . S
O2415 Tb2364 2.362 . S
O2415 Tb2375 2.610 . S
O2415 C2431 1.283 . S
O2416 Tb2364 2.421 . S
O2416 C2438 1.262 . S
O2417 Tb2375 2.320 . S
O2417 C2438 1.260 . S
O2418 Tb2375 2.552 . S
O2418 C2431 1.243 . S
O2419 Tb2375 2.413 . S
O2419 C2439 1.256 . S
C2420 O2409 1.283 . S
C2420 O2412 1.243 . S
C2421 C2423 1.382 . S
C2421 C2425 1.393 . S
C2421 C2428 1.500 . S
C2422 C2423 1.400 . S
C2422 C2424 1.384 . S
C2423 C2421 1.382 . S
C2423 C2422 1.400 . S
C2423 H2440 0.930 . S
C2424 C2422 1.384 . S
C2424 C2426 1.392 . S
C2424 H2441 0.931 . S
C2425 C2421 1.393 . S
C2425 C2426 1.401 . S
C2425 H2442 0.930 . S
C2426 C2424 1.392 . S
C2426 C2425 1.401 . S
C2426 H2443 0.930 . S
C2427 O2410 1.262 . S
C2427 O2411 1.260 . S
C2428 Tb2364 2.833 . S
C2428 O2408 1.251 . S
C2428 O2413 1.256 . S
C2428 C2421 1.500 . S
C2429 H2394 0.929 . S
C2429 C2407 1.444 . S
C2429 C2430 1.317 . S
C2430 H2392 0.930 . S
C2430 C2398 1.432 . S
C2430 C2429 1.317 . S
C2431 O2415 1.283 . S
C2431 O2418 1.243 . S
C2432 C2433 1.382 . S
C2432 C2436 1.393 . S
C2432 C2439 1.500 . S
C2433 C2432 1.382 . S
C2433 C2434 1.400 . S
C2433 H2444 0.930 . S
C2434 C2433 1.400 . S
C2434 C2435 1.384 . S
C2435 C2434 1.384 . S
C2435 C2437 1.392 . S
C2435 H2445 0.931 . S
C2436 C2432 1.393 . S
C2436 C2437 1.401 . S
C2436 H2446 0.930 . S
C2437 C2435 1.392 . S
C2437 C2436 1.401 . S
C2437 H2447 0.930 . S
C2438 O2416 1.262 . S
C2438 O2417 1.260 . S
C2439 Tb2375 2.833 . S
C2439 O2414 1.251 . S
C2439 O2419 1.256 . S
C2439 C2432 1.500 . S
H2440 C2423 0.930 . S
H2441 C2424 0.931 . S
H2442 C2425 0.930 . S
H2443 C2426 0.930 . S
H2444 C2433 0.930 . S
H2445 C2435 0.931 . S
H2446 C2436 0.930 . S
H2447 C2437 0.930 . S
Tb2448 N2479 2.660 . S
Tb2448 N2486 2.600 . S
Tb2448 O2492 2.546 . S
Tb2448 O2493 2.610 . S
Tb2448 O2495 2.320 . S
Tb2448 O2496 2.552 . S
Tb2448 O2497 2.413 . S
Tb2448 O2499 2.362 . S
Tb2448 O2500 2.421 . S
Tb2448 C2512 2.833 . S
C2449 C2452 1.432 . S
C2449 C2453 1.414 . S
C2449 N2456 1.359 . S
C2450 C2452 1.417 . S
C2450 C2454 1.432 . S
C2450 C2462 1.410 . S
C2451 C2453 1.444 . S
C2451 C2454 1.317 . S
C2451 H2474 0.929 . S
C2452 C2449 1.432 . S
C2452 C2450 1.417 . S
C2452 N2460 1.360 . S
C2453 C2449 1.414 . S
C2453 C2451 1.444 . S
C2453 C2458 1.385 . S
C2454 C2450 1.432 . S
C2454 C2451 1.317 . S
C2454 H2466 0.930 . S
C2455 C2457 1.399 . S
C2455 C2458 1.370 . S
C2455 H2467 0.931 . S
N2456 C2449 1.359 . S
N2456 C2457 1.325 . S
N2456 Tb2459 2.600 1_565 S
C2457 C2455 1.399 . S
C2457 N2456 1.325 . S
C2457 H2464 0.925 1_565 S
C2458 C2453 1.385 . S
C2458 C2455 1.370 . S
C2458 H2477 0.930 . S
Tb2459 N2456 2.600 1_545 S
Tb2459 N2460 2.660 1_545 S
Tb2459 O2493 2.362 . S
Tb2459 O2494 2.421 . S
Tb2459 O2498 2.546 1_545 S
Tb2459 O2499 2.610 . S
Tb2459 O2501 2.320 . S
Tb2459 O2502 2.552 . S
Tb2459 O2503 2.413 1_545 S
Tb2459 C2523 2.833 1_545 S
N2460 C2452 1.360 . S
N2460 Tb2459 2.660 1_565 S
N2460 C2461 1.305 . S
C2461 N2460 1.305 . S
C2461 C2463 1.407 . S
C2461 H2468 0.930 . S
C2462 C2450 1.410 . S
C2462 C2463 1.345 . S
C2462 H2470 0.930 . S
C2463 C2461 1.407 . S
C2463 C2462 1.345 . S
C2463 H2465 0.930 1_455 S
H2464 C2457 0.925 1_545 S
H2465 C2463 0.930 1_655 S
H2466 C2454 0.930 . S
H2467 C2455 0.931 . S
H2468 C2461 0.930 . S
H2469 C2483 0.930 . S
H2470 C2462 0.930 . S
H2471 C2489 0.930 . S
H2472 C2480 0.930 . S
H2473 C2487 0.931 1_655 S
H2474 C2451 0.929 . S
H2475 C2481 0.930 . S
H2476 C2514 0.930 . S
H2477 C2458 0.930 . S
H2478 C2513 0.929 . S
N2479 Tb2448 2.660 . S
N2479 C2480 1.305 . S
N2479 C2484 1.360 . S
C2480 H2472 0.930 . S
C2480 N2479 1.305 . S
C2480 C2483 1.407 . S
C2481 H2475 0.930 . S
C2481 C2482 1.410 . S
C2481 C2483 1.345 . S
C2482 C2481 1.410 . S
C2482 C2484 1.417 . S
C2482 C2514 1.432 . S
C2483 H2469 0.930 . S
C2483 C2480 1.407 . S
C2483 C2481 1.345 . S
C2484 N2479 1.360 . S
C2484 C2482 1.417 . S
C2484 C2488 1.432 . S
H2485 C2490 0.930 . S
N2486 Tb2448 2.600 . S
N2486 C2488 1.359 . S
N2486 C2489 1.327 . S
C2487 H2473 0.931 1_455 S
C2487 C2489 1.392 . S
C2487 C2490 1.370 . S
C2488 C2484 1.432 . S
C2488 N2486 1.359 . S
C2488 C2491 1.414 . S
C2489 H2471 0.930 . S
C2489 N2486 1.327 . S
C2489 C2487 1.392 . S
C2490 H2485 0.930 . S
C2490 C2487 1.370 . S
C2490 C2491 1.385 . S
C2491 C2488 1.414 . S
C2491 C2490 1.385 . S
C2491 C2513 1.444 . S
O2492 Tb2448 2.546 . S
O2492 C2512 1.251 . S
O2493 Tb2448 2.610 . S
O2493 Tb2459 2.362 . S
O2493 C2504 1.283 . S
O2494 Tb2459 2.421 . S
O2494 C2511 1.262 . S
O2495 Tb2448 2.320 . S
O2495 C2511 1.260 . S
O2496 Tb2448 2.552 . S
O2496 C2504 1.243 . S
O2497 Tb2448 2.413 . S
O2497 C2512 1.256 . S
O2498 Tb2459 2.546 1_565 S
O2498 C2523 1.251 . S
O2499 Tb2448 2.362 . S
O2499 Tb2459 2.610 . S
O2499 C2515 1.283 . S
O2500 Tb2448 2.421 . S
O2500 C2522 1.262 . S
O2501 Tb2459 2.320 . S
O2501 C2522 1.260 . S
O2502 Tb2459 2.552 . S
O2502 C2515 1.243 . S
O2503 Tb2459 2.413 1_565 S
O2503 C2523 1.256 . S
C2504 O2493 1.283 . S
C2504 O2496 1.243 . S
C2505 C2507 1.382 . S
C2505 C2509 1.393 . S
C2505 C2512 1.500 . S
C2506 C2507 1.400 . S
C2506 C2508 1.384 . S
C2507 C2505 1.382 . S
C2507 C2506 1.400 . S
C2507 H2524 0.930 . S
C2508 C2506 1.384 . S
C2508 C2510 1.392 . S
C2508 H2525 0.931 . S
C2509 C2505 1.393 . S
C2509 C2510 1.401 . S
C2509 H2526 0.930 . S
C2510 C2508 1.392 . S
C2510 C2509 1.401 . S
C2510 H2527 0.930 . S
C2511 O2494 1.262 . S
C2511 O2495 1.260 . S
C2512 Tb2448 2.833 . S
C2512 O2492 1.251 . S
C2512 O2497 1.256 . S
C2512 C2505 1.500 . S
C2513 H2478 0.929 . S
C2513 C2491 1.444 . S
C2513 C2514 1.317 . S
C2514 H2476 0.930 . S
C2514 C2482 1.432 . S
C2514 C2513 1.317 . S
C2515 O2499 1.283 . S
C2515 O2502 1.243 . S
C2516 C2517 1.382 . S
C2516 C2520 1.393 . S
C2516 C2523 1.500 . S
C2517 C2516 1.382 . S
C2517 C2518 1.400 . S
C2517 H2528 0.930 . S
C2518 C2517 1.400 . S
C2518 C2519 1.384 . S
C2519 C2518 1.384 . S
C2519 C2521 1.392 . S
C2519 H2529 0.931 . S
C2520 C2516 1.393 . S
C2520 C2521 1.401 . S
C2520 H2530 0.930 . S
C2521 C2519 1.392 . S
C2521 C2520 1.401 . S
C2521 H2531 0.930 . S
C2522 O2500 1.262 . S
C2522 O2501 1.260 . S
C2523 Tb2459 2.833 1_565 S
C2523 O2498 1.251 . S
C2523 O2503 1.256 . S
C2523 C2516 1.500 . S
H2524 C2507 0.930 . S
H2525 C2508 0.931 . S
H2526 C2509 0.930 . S
H2527 C2510 0.930 . S
H2528 C2517 0.930 . S
H2529 C2519 0.931 . S
H2530 C2520 0.930 . S
H2531 C2521 0.930 . S
Tb2532 N2563 2.660 . S
Tb2532 N2570 2.600 . S
Tb2532 O2576 2.546 . S
Tb2532 O2577 2.610 . S
Tb2532 O2579 2.320 . S
Tb2532 O2580 2.552 . S
Tb2532 O2581 2.413 . S
Tb2532 O2583 2.362 . S
Tb2532 O2584 2.421 . S
Tb2532 C2596 2.833 . S
C2533 C2536 1.432 . S
C2533 C2537 1.414 . S
C2533 N2540 1.359 . S
C2534 C2536 1.417 . S
C2534 C2538 1.432 . S
C2534 C2546 1.410 . S
C2535 C2537 1.444 . S
C2535 C2538 1.317 . S
C2535 H2558 0.929 . S
C2536 C2533 1.432 . S
C2536 C2534 1.417 . S
C2536 N2544 1.360 . S
C2537 C2533 1.414 . S
C2537 C2535 1.444 . S
C2537 C2542 1.385 . S
C2538 C2534 1.432 . S
C2538 C2535 1.317 . S
C2538 H2550 0.930 . S
C2539 C2541 1.392 . S
C2539 C2542 1.370 . S
C2539 H2551 0.931 . S
N2540 C2533 1.359 . S
N2540 C2541 1.327 . S
N2540 Tb2543 2.600 . S
C2541 C2539 1.392 . S
C2541 N2540 1.327 . S
C2541 H2548 0.930 . S
C2542 C2537 1.385 . S
C2542 C2539 1.370 . S
C2542 H2561 0.930 . S
Tb2543 N2540 2.600 . S
Tb2543 N2544 2.660 . S
Tb2543 O2577 2.362 . S
Tb2543 O2578 2.421 . S
Tb2543 O2582 2.546 . S
Tb2543 O2583 2.610 . S
Tb2543 O2585 2.320 . S
Tb2543 O2586 2.552 . S
Tb2543 O2587 2.413 . S
Tb2543 C2607 2.833 . S
N2544 C2536 1.360 . S
N2544 Tb2543 2.660 . S
N2544 C2545 1.305 . S
C2545 N2544 1.305 . S
C2545 C2547 1.407 . S
C2545 H2552 0.930 . S
C2546 C2534 1.410 . S
C2546 C2547 1.345 . S
C2546 H2554 0.930 . S
C2547 C2545 1.407 . S
C2547 C2546 1.345 . S
C2547 H2549 0.930 . S
H2548 C2541 0.930 . S
H2549 C2547 0.930 . S
H2550 C2538 0.930 . S
H2551 C2539 0.931 . S
H2552 C2545 0.930 . S
H2553 C2567 0.930 . S
H2554 C2546 0.930 . S
H2555 C2573 0.930 . S
H2556 C2564 0.930 . S
H2557 C2571 0.931 . S
H2558 C2535 0.929 . S
H2559 C2565 0.930 . S
H2560 C2598 0.930 . S
H2561 C2542 0.930 . S
H2562 C2597 0.929 . S
N2563 Tb2532 2.660 . S
N2563 C2564 1.305 . S
N2563 C2568 1.360 . S
C2564 H2556 0.930 . S
C2564 N2563 1.305 . S
C2564 C2567 1.407 . S
C2565 H2559 0.930 . S
C2565 C2566 1.410 . S
C2565 C2567 1.345 . S
C2566 C2565 1.410 . S
C2566 C2568 1.417 . S
C2566 C2598 1.432 . S
C2567 H2553 0.930 . S
C2567 C2564 1.407 . S
C2567 C2565 1.345 . S
C2568 N2563 1.360 . S
C2568 C2566 1.417 . S
C2568 C2572 1.432 . S
H2569 C2574 0.930 . S
N2570 Tb2532 2.600 . S
N2570 C2572 1.359 . S
N2570 C2573 1.327 . S
C2571 H2557 0.931 . S
C2571 C2573 1.392 . S
C2571 C2574 1.370 . S
C2572 C2568 1.432 . S
C2572 N2570 1.359 . S
C2572 C2575 1.414 . S
C2573 H2555 0.930 . S
C2573 N2570 1.327 . S
C2573 C2571 1.392 . S
C2574 H2569 0.930 . S
C2574 C2571 1.370 . S
C2574 C2575 1.385 . S
C2575 C2572 1.414 . S
C2575 C2574 1.385 . S
C2575 C2597 1.444 . S
O2576 Tb2532 2.546 . S
O2576 C2596 1.251 . S
O2577 Tb2532 2.610 . S
O2577 Tb2543 2.362 . S
O2577 C2588 1.283 . S
O2578 Tb2543 2.421 . S
O2578 C2595 1.262 . S
O2579 Tb2532 2.320 . S
O2579 C2595 1.260 . S
O2580 Tb2532 2.552 . S
O2580 C2588 1.243 . S
O2581 Tb2532 2.413 . S
O2581 C2596 1.256 . S
O2582 Tb2543 2.546 . S
O2582 C2607 1.251 . S
O2583 Tb2532 2.362 . S
O2583 Tb2543 2.610 . S
O2583 C2599 1.283 . S
O2584 Tb2532 2.421 . S
O2584 C2606 1.262 . S
O2585 Tb2543 2.320 . S
O2585 C2606 1.260 . S
O2586 Tb2543 2.552 . S
O2586 C2599 1.243 . S
O2587 Tb2543 2.413 . S
O2587 C2607 1.256 . S
C2588 O2577 1.283 . S
C2588 O2580 1.243 . S
C2589 C2591 1.382 . S
C2589 C2593 1.393 . S
C2589 C2596 1.500 . S
C2590 C2591 1.400 . S
C2590 C2592 1.384 . S
C2591 C2589 1.382 . S
C2591 C2590 1.400 . S
C2591 H2608 0.930 . S
C2592 C2590 1.384 . S
C2592 C2594 1.392 . S
C2592 H2609 0.931 . S
C2593 C2589 1.393 . S
C2593 C2594 1.401 . S
C2593 H2610 0.930 . S
C2594 C2592 1.392 . S
C2594 C2593 1.401 . S
C2594 H2611 0.930 . S
C2595 O2578 1.262 . S
C2595 O2579 1.260 . S
C2596 Tb2532 2.833 . S
C2596 O2576 1.251 . S
C2596 O2581 1.256 . S
C2596 C2589 1.500 . S
C2597 H2562 0.929 . S
C2597 C2575 1.444 . S
C2597 C2598 1.317 . S
C2598 H2560 0.930 . S
C2598 C2566 1.432 . S
C2598 C2597 1.317 . S
C2599 O2583 1.283 . S
C2599 O2586 1.243 . S
C2600 C2601 1.382 . S
C2600 C2604 1.393 . S
C2600 C2607 1.500 . S
C2601 C2600 1.382 . S
C2601 C2602 1.400 . S
C2601 H2612 0.930 . S
C2602 C2601 1.400 . S
C2602 C2603 1.384 . S
C2603 C2602 1.384 . S
C2603 C2605 1.392 . S
C2603 H2613 0.931 . S
C2604 C2600 1.393 . S
C2604 C2605 1.401 . S
C2604 H2614 0.930 . S
C2605 C2603 1.392 . S
C2605 C2604 1.401 . S
C2605 H2615 0.930 . S
C2606 O2584 1.262 . S
C2606 O2585 1.260 . S
C2607 Tb2543 2.833 . S
C2607 O2582 1.251 . S
C2607 O2587 1.256 . S
C2607 C2600 1.500 . S
H2608 C2591 0.930 . S
H2609 C2592 0.931 . S
H2610 C2593 0.930 . S
H2611 C2594 0.930 . S
H2612 C2601 0.930 . S
H2613 C2603 0.931 . S
H2614 C2604 0.930 . S
H2615 C2605 0.930 . S
Tb2616 N2647 2.660 . S
Tb2616 N2654 2.600 . S
Tb2616 O2660 2.546 . S
Tb2616 O2661 2.610 . S
Tb2616 O2663 2.320 . S
Tb2616 O2664 2.552 . S
Tb2616 O2665 2.413 . S
Tb2616 O2667 2.362 . S
Tb2616 O2668 2.458 . S
Tb2616 C2680 2.833 . S
C2617 C2620 1.432 . S
C2617 C2621 1.414 . S
C2617 N2624 1.359 . S
C2618 C2620 1.417 . S
C2618 C2622 1.432 . S
C2618 C2630 1.410 1_545 S
C2619 C2621 1.444 . S
C2619 C2622 1.317 . S
C2619 H2642 0.929 . S
C2620 C2617 1.432 . S
C2620 C2618 1.417 . S
C2620 N2628 1.360 . S
C2621 C2617 1.414 . S
C2621 C2619 1.444 . S
C2621 C2626 1.385 . S
C2622 C2618 1.432 . S
C2622 C2619 1.317 . S
C2622 H2634 0.930 . S
C2623 C2625 1.392 . S
C2623 C2626 1.370 . S
C2623 H2635 0.931 . S
N2624 C2617 1.359 . S
N2624 C2625 1.327 . S
N2624 Tb2627 2.600 . S
C2625 C2623 1.392 . S
C2625 N2624 1.327 . S
C2625 H2632 0.930 . S
C2626 C2621 1.385 . S
C2626 C2623 1.370 . S
C2626 H2645 0.930 . S
Tb2627 N2624 2.600 . S
Tb2627 N2628 2.660 . S
Tb2627 O2661 2.362 1_556 S
Tb2627 O2662 2.421 1_556 S
Tb2627 O2666 2.546 . S
Tb2627 O2667 2.610 1_556 S
Tb2627 O2669 2.320 . S
Tb2627 O2670 2.552 . S
Tb2627 O2671 2.413 . S
Tb2627 C2691 2.833 . S
N2628 C2620 1.360 . S
N2628 Tb2627 2.660 . S
N2628 C2629 1.317 . S
C2629 N2628 1.317 . S
C2629 C2631 1.403 1_545 S
C2629 H2636 0.923 1_545 S
C2630 C2618 1.410 1_565 S
C2630 C2631 1.345 . S
C2630 H2638 0.930 . S
C2631 C2629 1.403 1_565 S
C2631 C2630 1.345 . S
C2631 H2633 0.930 . S
H2632 C2625 0.930 . S
H2633 C2631 0.930 . S
H2634 C2622 0.930 . S
H2635 C2623 0.931 . S
H2636 C2629 0.923 1_565 S
H2637 C2651 0.930 . S
H2638 C2630 0.930 . S
H2639 C2657 0.930 . S
H2640 C2648 0.930 . S
H2641 C2655 0.931 . S
H2642 C2619 0.929 . S
H2643 C2649 0.930 . S
H2644 C2682 0.930 . S
H2645 C2626 0.930 . S
H2646 C2681 0.929 . S
N2647 Tb2616 2.660 . S
N2647 C2648 1.305 . S
N2647 C2652 1.360 . S
C2648 H2640 0.930 . S
C2648 N2647 1.305 . S
C2648 C2651 1.407 . S
C2649 H2643 0.930 . S
C2649 C2650 1.410 . S
C2649 C2651 1.345 . S
C2650 C2649 1.410 . S
C2650 C2652 1.417 . S
C2650 C2682 1.432 . S
C2651 H2637 0.930 . S
C2651 C2648 1.407 . S
C2651 C2649 1.345 . S
C2652 N2647 1.360 . S
C2652 C2650 1.417 . S
C2652 C2656 1.432 . S
H2653 C2658 0.930 . S
N2654 Tb2616 2.600 . S
N2654 C2656 1.359 . S
N2654 C2657 1.327 1_545 S
C2655 H2641 0.931 . S
C2655 C2657 1.392 . S
C2655 C2658 1.370 . S
C2656 C2652 1.432 . S
C2656 N2654 1.359 . S
C2656 C2659 1.414 . S
C2657 H2639 0.930 . S
C2657 N2654 1.327 1_565 S
C2657 C2655 1.392 . S
C2658 H2653 0.930 . S
C2658 C2655 1.370 . S
C2658 C2659 1.385 1_565 S
C2659 C2656 1.414 . S
C2659 C2658 1.385 1_545 S
C2659 C2681 1.444 . S
O2660 Tb2616 2.546 . S
O2660 C2680 1.251 . S
O2661 Tb2616 2.610 . S
O2661 Tb2627 2.362 1_554 S
O2661 C2672 1.283 . S
O2662 Tb2627 2.421 1_554 S
O2662 C2679 1.262 . S
O2663 Tb2616 2.320 . S
O2663 C2679 1.260 . S
O2664 Tb2616 2.552 . S
O2664 C2672 1.243 . S
O2665 Tb2616 2.413 . S
O2665 C2680 1.256 . S
O2666 Tb2627 2.546 . S
O2666 C2691 1.251 . S
O2667 Tb2616 2.362 . S
O2667 Tb2627 2.610 1_554 S
O2667 C2683 1.283 . S
O2668 Tb2616 2.458 . S
O2668 C2690 1.282 . S
O2669 Tb2627 2.320 . S
O2669 C2690 1.255 1_556 S
O2670 Tb2627 2.552 . S
O2670 C2683 1.243 1_556 S
O2671 Tb2627 2.413 . S
O2671 C2691 1.256 . S
C2672 O2661 1.283 . S
C2672 O2664 1.243 . S
C2673 C2675 1.382 . S
C2673 C2677 1.393 1_545 S
C2673 C2680 1.500 . S
C2674 C2675 1.400 . S
C2674 C2676 1.384 . S
C2675 C2673 1.382 . S
C2675 C2674 1.400 . S
C2675 H2692 0.930 . S
C2676 C2674 1.384 . S
C2676 C2678 1.392 1_545 S
C2676 H2693 0.937 . S
C2677 C2673 1.393 1_565 S
C2677 C2678 1.401 . S
C2677 H2694 0.930 . S
C2678 C2676 1.392 1_565 S
C2678 C2677 1.401 . S
C2678 H2695 0.930 . S
C2679 O2662 1.262 . S
C2679 O2663 1.260 . S
C2680 Tb2616 2.833 . S
C2680 O2660 1.251 . S
C2680 O2665 1.256 . S
C2680 C2673 1.500 . S
C2681 H2646 0.929 . S
C2681 C2659 1.444 . S
C2681 C2682 1.317 . S
C2682 H2644 0.930 . S
C2682 C2650 1.432 . S
C2682 C2681 1.317 . S
C2683 O2667 1.283 . S
C2683 O2670 1.243 1_554 S
C2684 C2685 1.382 . S
C2684 C2688 1.393 . S
C2684 C2691 1.500 . S
C2685 C2684 1.382 . S
C2685 C2686 1.400 . S
C2685 H2696 0.930 . S
C2686 C2685 1.400 . S
C2686 C2687 1.384 . S
C2687 C2686 1.384 . S
C2687 C2689 1.392 . S
C2687 H2697 0.931 . S
C2688 C2684 1.393 . S
C2688 C2689 1.401 . S
C2688 H2698 0.930 . S
C2689 C2687 1.392 . S
C2689 C2688 1.401 . S
C2689 H2699 0.930 . S
C2690 O2668 1.282 . S
C2690 O2669 1.255 1_554 S
C2691 Tb2627 2.833 . S
C2691 O2666 1.251 . S
C2691 O2671 1.256 . S
C2691 C2684 1.500 . S
H2692 C2675 0.930 . S
H2693 C2676 0.937 . S
H2694 C2677 0.930 . S
H2695 C2678 0.930 . S
H2696 C2685 0.930 . S
H2697 C2687 0.931 . S
H2698 C2688 0.930 . S
H2699 C2689 0.930 . S
Tb2700 N2731 2.660 . S
Tb2700 N2738 2.600 . S
Tb2700 O2744 2.546 . S
Tb2700 O2745 2.610 . S
Tb2700 O2747 2.320 . S
Tb2700 O2748 2.552 . S
Tb2700 O2749 2.413 . S
Tb2700 O2751 2.362 . S
Tb2700 O2752 2.421 . S
Tb2700 C2764 2.833 . S
C2701 C2704 1.432 . S
C2701 C2705 1.414 . S
C2701 N2708 1.359 . S
C2702 C2704 1.417 . S
C2702 C2706 1.432 . S
C2702 C2714 1.410 . S
C2703 C2705 1.444 . S
C2703 C2706 1.317 . S
C2703 H2726 0.929 . S
C2704 C2701 1.432 . S
C2704 C2702 1.417 . S
C2704 N2712 1.360 . S
C2705 C2701 1.414 . S
C2705 C2703 1.444 . S
C2705 C2710 1.385 . S
C2706 C2702 1.432 . S
C2706 C2703 1.317 . S
C2706 H2718 0.930 . S
C2707 C2709 1.392 . S
C2707 C2710 1.370 . S
C2707 H2719 0.931 . S
N2708 C2701 1.359 . S
N2708 C2709 1.327 . S
N2708 Tb2711 2.600 . S
C2709 C2707 1.392 . S
C2709 N2708 1.327 . S
C2709 H2716 0.930 . S
C2710 C2705 1.385 . S
C2710 C2707 1.370 . S
C2710 H2729 0.930 . S
Tb2711 N2708 2.600 . S
Tb2711 N2712 2.660 . S
Tb2711 O2745 2.362 . S
Tb2711 O2746 2.421 . S
Tb2711 O2750 2.546 . S
Tb2711 O2751 2.610 . S
Tb2711 O2753 2.320 . S
Tb2711 O2754 2.552 . S
Tb2711 O2755 2.413 . S
Tb2711 C2775 2.833 . S
N2712 C2704 1.360 . S
N2712 Tb2711 2.660 . S
N2712 C2713 1.305 . S
C2713 N2712 1.305 . S
C2713 C2715 1.407 . S
C2713 H2720 0.930 . S
C2714 C2702 1.410 . S
C2714 C2715 1.345 . S
C2714 H2722 0.930 . S
C2715 C2713 1.407 . S
C2715 C2714 1.345 . S
C2715 H2717 0.930 . S
H2716 C2709 0.930 . S
H2717 C2715 0.930 . S
H2718 C2706 0.930 . S
H2719 C2707 0.931 . S
H2720 C2713 0.930 . S
H2721 C2735 0.930 . S
H2722 C2714 0.930 . S
H2723 C2741 0.930 . S
H2724 C2732 0.930 . S
H2725 C2739 0.931 . S
H2726 C2703 0.929 . S
H2727 C2733 0.930 . S
H2728 C2766 0.930 . S
H2729 C2710 0.930 . S
H2730 C2765 0.929 . S
N2731 Tb2700 2.660 . S
N2731 C2732 1.305 . S
N2731 C2736 1.360 . S
C2732 H2724 0.930 . S
C2732 N2731 1.305 . S
C2732 C2735 1.407 . S
C2733 H2727 0.930 . S
C2733 C2734 1.410 . S
C2733 C2735 1.345 . S
C2734 C2733 1.410 . S
C2734 C2736 1.417 . S
C2734 C2766 1.432 . S
C2735 H2721 0.930 . S
C2735 C2732 1.407 . S
C2735 C2733 1.345 . S
C2736 N2731 1.360 . S
C2736 C2734 1.417 . S
C2736 C2740 1.432 . S
H2737 C2742 0.930 . S
N2738 Tb2700 2.600 . S
N2738 C2740 1.359 . S
N2738 C2741 1.327 . S
C2739 H2725 0.931 . S
C2739 C2741 1.392 . S
C2739 C2742 1.370 . S
C2740 C2736 1.432 . S
C2740 N2738 1.359 . S
C2740 C2743 1.414 . S
C2741 H2723 0.930 . S
C2741 N2738 1.327 . S
C2741 C2739 1.392 . S
C2742 H2737 0.930 . S
C2742 C2739 1.370 . S
C2742 C2743 1.385 . S
C2743 C2740 1.414 . S
C2743 C2742 1.385 . S
C2743 C2765 1.444 . S
O2744 Tb2700 2.546 . S
O2744 C2764 1.251 . S
O2745 Tb2700 2.610 . S
O2745 Tb2711 2.362 . S
O2745 C2756 1.283 . S
O2746 Tb2711 2.421 . S
O2746 C2763 1.262 . S
O2747 Tb2700 2.320 . S
O2747 C2763 1.260 . S
O2748 Tb2700 2.552 . S
O2748 C2756 1.243 . S
O2749 Tb2700 2.413 . S
O2749 C2764 1.256 . S
O2750 Tb2711 2.546 . S
O2750 C2775 1.251 . S
O2751 Tb2700 2.362 . S
O2751 Tb2711 2.610 . S
O2751 C2767 1.283 . S
O2752 Tb2700 2.421 . S
O2752 C2774 1.262 . S
O2753 Tb2711 2.320 . S
O2753 C2774 1.260 . S
O2754 Tb2711 2.552 . S
O2754 C2767 1.243 . S
O2755 Tb2711 2.413 . S
O2755 C2775 1.256 . S
C2756 O2745 1.283 . S
C2756 O2748 1.243 . S
C2757 C2759 1.382 . S
C2757 C2761 1.393 . S
C2757 C2764 1.500 . S
C2758 C2759 1.400 . S
C2758 C2760 1.384 . S
C2759 C2757 1.382 . S
C2759 C2758 1.400 . S
C2759 H2776 0.930 . S
C2760 C2758 1.384 . S
C2760 C2762 1.392 . S
C2760 H2777 0.931 . S
C2761 C2757 1.393 . S
C2761 C2762 1.401 . S
C2761 H2778 0.930 . S
C2762 C2760 1.392 . S
C2762 C2761 1.401 . S
C2762 H2779 0.930 . S
C2763 O2746 1.262 . S
C2763 O2747 1.260 . S
C2764 Tb2700 2.833 . S
C2764 O2744 1.251 . S
C2764 O2749 1.256 . S
C2764 C2757 1.500 . S
C2765 H2730 0.929 . S
C2765 C2743 1.444 . S
C2765 C2766 1.317 . S
C2766 H2728 0.930 . S
C2766 C2734 1.432 . S
C2766 C2765 1.317 . S
C2767 O2751 1.283 . S
C2767 O2754 1.243 . S
C2768 C2769 1.382 . S
C2768 C2772 1.393 . S
C2768 C2775 1.500 . S
C2769 C2768 1.382 . S
C2769 C2770 1.400 . S
C2769 H2780 0.930 . S
C2770 C2769 1.400 . S
C2770 C2771 1.384 . S
C2771 C2770 1.384 . S
C2771 C2773 1.392 . S
C2771 H2781 0.931 . S
C2772 C2768 1.393 . S
C2772 C2773 1.401 . S
C2772 H2782 0.930 . S
C2773 C2771 1.392 . S
C2773 C2772 1.401 . S
C2773 H2783 0.930 . S
C2774 O2752 1.262 . S
C2774 O2753 1.260 . S
C2775 Tb2711 2.833 . S
C2775 O2750 1.251 . S
C2775 O2755 1.256 . S
C2775 C2768 1.500 . S
H2776 C2759 0.930 . S
H2777 C2760 0.931 . S
H2778 C2761 0.930 . S
H2779 C2762 0.930 . S
H2780 C2769 0.930 . S
H2781 C2771 0.931 . S
H2782 C2772 0.930 . S
H2783 C2773 0.930 . S
Tb2784 N2815 2.660 . S
Tb2784 N2822 2.600 . S
Tb2784 O2828 2.546 . S
Tb2784 O2829 2.610 1_554 S
Tb2784 O2831 2.320 . S
Tb2784 O2832 2.552 1_554 S
Tb2784 O2833 2.413 . S
Tb2784 O2835 2.362 . S
Tb2784 O2836 2.421 . S
Tb2784 C2848 2.833 . S
C2785 C2788 1.432 . S
C2785 C2789 1.414 . S
C2785 N2792 1.359 . S
C2786 C2788 1.417 . S
C2786 C2790 1.432 . S
C2786 C2798 1.410 . S
C2787 C2789 1.444 . S
C2787 C2790 1.317 . S
C2787 H2810 0.929 . S
C2788 C2785 1.432 . S
C2788 C2786 1.417 . S
C2788 N2796 1.360 . S
C2789 C2785 1.414 . S
C2789 C2787 1.444 . S
C2789 C2794 1.385 . S
C2790 C2786 1.432 . S
C2790 C2787 1.317 . S
C2790 H2802 0.930 . S
C2791 C2793 1.392 . S
C2791 C2794 1.370 . S
C2791 H2803 0.931 . S
N2792 C2785 1.359 . S
N2792 C2793 1.327 . S
N2792 Tb2795 2.600 1_556 S
C2793 C2791 1.392 . S
C2793 N2792 1.327 . S
C2793 H2800 0.930 . S
C2794 C2789 1.385 . S
C2794 C2791 1.370 . S
C2794 H2813 0.930 . S
Tb2795 N2792 2.600 1_554 S
Tb2795 N2796 2.660 1_554 S
Tb2795 O2829 2.362 1_554 S
Tb2795 O2830 2.421 . S
Tb2795 O2834 2.546 . S
Tb2795 O2835 2.610 . S
Tb2795 O2837 2.320 . S
Tb2795 O2838 2.552 . S
Tb2795 O2839 2.413 . S
Tb2795 C2859 2.833 . S
N2796 C2788 1.360 . S
N2796 Tb2795 2.660 1_556 S
N2796 C2797 1.305 . S
C2797 N2796 1.305 . S
C2797 C2799 1.407 . S
C2797 H2804 0.930 . S
C2798 C2786 1.410 . S
C2798 C2799 1.345 . S
C2798 H2806 0.930 . S
C2799 C2797 1.407 . S
C2799 C2798 1.345 . S
C2799 H2801 0.930 . S
H2800 C2793 0.930 . S
H2801 C2799 0.930 . S
H2802 C2790 0.930 . S
H2803 C2791 0.931 . S
H2804 C2797 0.930 . S
H2805 C2819 0.930 . S
H2806 C2798 0.930 . S
H2807 C2825 0.930 . S
H2808 C2816 0.930 . S
H2809 C2823 0.931 . S
H2810 C2787 0.929 . S
H2811 C2817 0.930 . S
H2812 C2850 0.930 . S
H2813 C2794 0.930 . S
H2814 C2849 0.929 . S
N2815 Tb2784 2.660 . S
N2815 C2816 1.305 . S
N2815 C2820 1.360 . S
C2816 H2808 0.930 . S
C2816 N2815 1.305 . S
C2816 C2819 1.407 . S
C2817 H2811 0.930 . S
C2817 C2818 1.410 . S
C2817 C2819 1.345 . S
C2818 C2817 1.410 . S
C2818 C2820 1.417 . S
C2818 C2850 1.432 . S
C2819 H2805 0.930 . S
C2819 C2816 1.407 . S
C2819 C2817 1.345 . S
C2820 N2815 1.360 . S
C2820 C2818 1.417 . S
C2820 C2824 1.432 . S
H2821 C2826 0.930 . S
N2822 Tb2784 2.600 . S
N2822 C2824 1.359 . S
N2822 C2825 1.327 . S
C2823 H2809 0.931 . S
C2823 C2825 1.392 . S
C2823 C2826 1.370 . S
C2824 C2820 1.432 . S
C2824 N2822 1.359 . S
C2824 C2827 1.414 . S
C2825 H2807 0.930 . S
C2825 N2822 1.327 . S
C2825 C2823 1.392 . S
C2826 H2821 0.930 . S
C2826 C2823 1.370 . S
C2826 C2827 1.385 . S
C2827 C2824 1.414 . S
C2827 C2826 1.385 . S
C2827 C2849 1.444 . S
O2828 Tb2784 2.546 . S
O2828 C2848 1.251 . S
O2829 Tb2784 2.610 1_556 S
O2829 Tb2795 2.362 1_556 S
O2829 C2840 1.283 . S
O2830 Tb2795 2.421 . S
O2830 C2847 1.262 . S
O2831 Tb2784 2.320 . S
O2831 C2847 1.260 . S
O2832 Tb2784 2.552 1_556 S
O2832 C2840 1.243 . S
O2833 Tb2784 2.413 . S
O2833 C2848 1.256 . S
O2834 Tb2795 2.546 . S
O2834 C2859 1.251 . S
O2835 Tb2784 2.362 . S
O2835 Tb2795 2.610 . S
O2835 C2851 1.283 . S
O2836 Tb2784 2.421 . S
O2836 C2858 1.262 . S
O2837 Tb2795 2.320 . S
O2837 C2858 1.260 . S
O2838 Tb2795 2.552 . S
O2838 C2851 1.243 . S
O2839 Tb2795 2.413 . S
O2839 C2859 1.256 . S
C2840 O2829 1.283 . S
C2840 O2832 1.243 . S
C2841 C2843 1.382 . S
C2841 C2845 1.393 . S
C2841 C2848 1.500 . S
C2842 C2843 1.400 1_556 S
C2842 C2844 1.384 1_556 S
C2843 C2841 1.382 . S
C2843 C2842 1.400 1_554 S
C2843 H2860 0.933 . S
C2844 C2842 1.384 1_554 S
C2844 C2846 1.392 . S
C2844 H2861 0.931 . S
C2845 C2841 1.393 . S
C2845 C2846 1.401 . S
C2845 H2862 0.930 . S
C2846 C2844 1.392 . S
C2846 C2845 1.401 . S
C2846 H2863 0.930 . S
C2847 O2830 1.262 . S
C2847 O2831 1.260 . S
C2848 Tb2784 2.833 . S
C2848 O2828 1.251 . S
C2848 O2833 1.256 . S
C2848 C2841 1.500 . S
C2849 H2814 0.929 . S
C2849 C2827 1.444 . S
C2849 C2850 1.317 . S
C2850 H2812 0.930 . S
C2850 C2818 1.432 . S
C2850 C2849 1.317 . S
C2851 O2835 1.283 . S
C2851 O2838 1.243 . S
C2852 C2853 1.382 . S
C2852 C2856 1.393 . S
C2852 C2859 1.500 . S
C2853 C2852 1.382 . S
C2853 C2854 1.400 . S
C2853 H2864 0.930 . S
C2854 C2853 1.400 . S
C2854 C2855 1.384 . S
C2855 C2854 1.384 . S
C2855 C2857 1.392 . S
C2855 H2865 0.931 . S
C2856 C2852 1.393 . S
C2856 C2857 1.401 . S
C2856 H2866 0.930 . S
C2857 C2855 1.392 . S
C2857 C2856 1.401 . S
C2857 H2867 0.930 . S
C2858 O2836 1.262 . S
C2858 O2837 1.260 . S
C2859 Tb2795 2.833 . S
C2859 O2834 1.251 . S
C2859 O2839 1.256 . S
C2859 C2852 1.500 . S
H2860 C2843 0.933 . S
H2861 C2844 0.931 . S
H2862 C2845 0.930 . S
H2863 C2846 0.930 . S
H2864 C2853 0.930 . S
H2865 C2855 0.931 . S
H2866 C2856 0.930 . S
H2867 C2857 0.930 . S
Tb2868 N2899 2.660 . S
Tb2868 N2906 2.600 . S
Tb2868 O2912 2.546 . S
Tb2868 O2913 2.610 . S
Tb2868 O2915 2.320 . S
Tb2868 O2916 2.552 . S
Tb2868 O2917 2.413 . S
Tb2868 O2919 2.362 . S
Tb2868 O2920 2.421 . S
Tb2868 C2932 2.833 . S
C2869 C2872 1.432 . S
C2869 C2873 1.414 . S
C2869 N2876 1.359 . S
C2870 C2872 1.417 . S
C2870 C2874 1.432 . S
C2870 C2882 1.410 . S
C2871 C2873 1.444 . S
C2871 C2874 1.317 . S
C2871 H2894 0.929 . S
C2872 C2869 1.432 . S
C2872 C2870 1.417 . S
C2872 N2880 1.360 . S
C2873 C2869 1.414 . S
C2873 C2871 1.444 . S
C2873 C2878 1.385 . S
C2874 C2870 1.432 . S
C2874 C2871 1.317 . S
C2874 H2886 0.930 . S
C2875 C2877 1.392 . S
C2875 C2878 1.370 . S
C2875 H2887 0.931 . S
N2876 C2869 1.359 . S
N2876 C2877 1.327 . S
N2876 Tb2879 2.600 . S
C2877 C2875 1.392 . S
C2877 N2876 1.327 . S
C2877 H2884 0.930 . S
C2878 C2873 1.385 . S
C2878 C2875 1.370 . S
C2878 H2897 0.930 . S
Tb2879 N2876 2.600 . S
Tb2879 N2880 2.660 . S
Tb2879 O2913 2.362 . S
Tb2879 O2914 2.421 . S
Tb2879 O2918 2.546 . S
Tb2879 O2919 2.610 . S
Tb2879 O2921 2.320 . S
Tb2879 O2922 2.552 . S
Tb2879 O2923 2.413 . S
Tb2879 C2943 2.833 . S
N2880 C2872 1.360 . S
N2880 Tb2879 2.660 . S
N2880 C2881 1.305 . S
C2881 N2880 1.305 . S
C2881 C2883 1.407 . S
C2881 H2888 0.930 . S
C2882 C2870 1.410 . S
C2882 C2883 1.345 . S
C2882 H2890 0.930 . S
C2883 C2881 1.407 . S
C2883 C2882 1.345 . S
C2883 H2885 0.930 . S
H2884 C2877 0.930 . S
H2885 C2883 0.930 . S
H2886 C2874 0.930 . S
H2887 C2875 0.931 . S
H2888 C2881 0.930 . S
H2889 C2903 0.930 . S
H2890 C2882 0.930 . S
H2891 C2909 0.930 . S
H2892 C2900 0.930 . S
H2893 C2907 0.931 . S
H2894 C2871 0.929 . S
H2895 C2901 0.930 . S
H2896 C2934 0.930 . S
H2897 C2878 0.930 . S
H2898 C2933 0.929 . S
N2899 Tb2868 2.660 . S
N2899 C2900 1.305 . S
N2899 C2904 1.360 . S
C2900 H2892 0.930 . S
C2900 N2899 1.305 . S
C2900 C2903 1.407 . S
C2901 H2895 0.930 . S
C2901 C2902 1.410 . S
C2901 C2903 1.345 . S
C2902 C2901 1.410 . S
C2902 C2904 1.417 . S
C2902 C2934 1.432 . S
C2903 H2889 0.930 . S
C2903 C2900 1.407 . S
C2903 C2901 1.345 . S
C2904 N2899 1.360 . S
C2904 C2902 1.417 . S
C2904 C2908 1.432 . S
H2905 C2910 0.930 . S
N2906 Tb2868 2.600 . S
N2906 C2908 1.359 . S
N2906 C2909 1.327 . S
C2907 H2893 0.931 . S
C2907 C2909 1.392 . S
C2907 C2910 1.370 . S
C2908 C2904 1.432 . S
C2908 N2906 1.359 . S
C2908 C2911 1.414 . S
C2909 H2891 0.930 . S
C2909 N2906 1.327 . S
C2909 C2907 1.392 . S
C2910 H2905 0.930 . S
C2910 C2907 1.370 . S
C2910 C2911 1.385 . S
C2911 C2908 1.414 . S
C2911 C2910 1.385 . S
C2911 C2933 1.444 . S
O2912 Tb2868 2.546 . S
O2912 C2932 1.251 . S
O2913 Tb2868 2.610 . S
O2913 Tb2879 2.362 . S
O2913 C2924 1.283 . S
O2914 Tb2879 2.421 . S
O2914 C2931 1.262 . S
O2915 Tb2868 2.320 . S
O2915 C2931 1.260 . S
O2916 Tb2868 2.552 . S
O2916 C2924 1.243 . S
O2917 Tb2868 2.413 . S
O2917 C2932 1.256 . S
O2918 Tb2879 2.546 . S
O2918 C2943 1.251 . S
O2919 Tb2868 2.362 . S
O2919 Tb2879 2.610 . S
O2919 C2935 1.283 . S
O2920 Tb2868 2.421 . S
O2920 C2942 1.262 . S
O2921 Tb2879 2.320 . S
O2921 C2942 1.260 . S
O2922 Tb2879 2.552 . S
O2922 C2935 1.243 . S
O2923 Tb2879 2.413 . S
O2923 C2943 1.256 . S
C2924 O2913 1.283 . S
C2924 O2916 1.243 . S
C2925 C2927 1.382 . S
C2925 C2929 1.393 . S
C2925 C2932 1.500 . S
C2926 C2927 1.400 . S
C2926 C2928 1.384 . S
C2927 C2925 1.382 . S
C2927 C2926 1.400 . S
C2927 H2944 0.930 . S
C2928 C2926 1.384 . S
C2928 C2930 1.392 . S
C2928 H2945 0.931 . S
C2929 C2925 1.393 . S
C2929 C2930 1.401 . S
C2929 H2946 0.930 . S
C2930 C2928 1.392 . S
C2930 C2929 1.401 . S
C2930 H2947 0.930 . S
C2931 O2914 1.262 . S
C2931 O2915 1.260 . S
C2932 Tb2868 2.833 . S
C2932 O2912 1.251 . S
C2932 O2917 1.256 . S
C2932 C2925 1.500 . S
C2933 H2898 0.929 . S
C2933 C2911 1.444 . S
C2933 C2934 1.317 . S
C2934 H2896 0.930 . S
C2934 C2902 1.432 . S
C2934 C2933 1.317 . S
C2935 O2919 1.283 . S
C2935 O2922 1.243 . S
C2936 C2937 1.382 . S
C2936 C2940 1.393 . S
C2936 C2943 1.500 . S
C2937 C2936 1.382 . S
C2937 C2938 1.400 . S
C2937 H2948 0.930 . S
C2938 C2937 1.400 . S
C2938 C2939 1.384 . S
C2939 C2938 1.384 . S
C2939 C2941 1.392 . S
C2939 H2949 0.931 . S
C2940 C2936 1.393 . S
C2940 C2941 1.401 . S
C2940 H2950 0.930 . S
C2941 C2939 1.392 . S
C2941 C2940 1.401 . S
C2941 H2951 0.930 . S
C2942 O2920 1.262 . S
C2942 O2921 1.260 . S
C2943 Tb2879 2.833 . S
C2943 O2918 1.251 . S
C2943 O2923 1.256 . S
C2943 C2936 1.500 . S
H2944 C2927 0.930 . S
H2945 C2928 0.931 . S
H2946 C2929 0.930 . S
H2947 C2930 0.930 . S
H2948 C2937 0.930 . S
H2949 C2939 0.931 . S
H2950 C2940 0.930 . S
H2951 C2941 0.930 . S
Tb2952 N2983 2.660 . S
Tb2952 N2990 2.600 . S
Tb2952 O2996 2.546 . S
Tb2952 O2997 2.610 . S
Tb2952 O2999 2.320 . S
Tb2952 O3000 2.552 . S
Tb2952 O3001 2.413 . S
Tb2952 O3003 2.362 . S
Tb2952 O3004 2.421 . S
Tb2952 C3016 2.833 . S
C2953 C2956 1.432 . S
C2953 C2957 1.414 1_455 S
C2953 N2960 1.359 . S
C2954 C2956 1.417 1_655 S
C2954 C2958 1.432 . S
C2954 C2966 1.410 . S
C2955 C2957 1.444 . S
C2955 C2958 1.317 . S
C2955 H2978 0.929 . S
C2956 C2953 1.432 . S
C2956 C2954 1.417 1_455 S
C2956 N2964 1.360 . S
C2957 C2953 1.414 1_655 S
C2957 C2955 1.444 . S
C2957 C2962 1.385 . S
C2958 C2954 1.432 . S
C2958 C2955 1.317 . S
C2958 H2970 0.930 . S
C2959 C2961 1.392 . S
C2959 C2962 1.370 1_455 S
C2959 H2971 0.931 . S
N2960 C2953 1.359 . S
N2960 C2961 1.327 . S
N2960 Tb2963 2.600 . S
C2961 C2959 1.392 . S
C2961 N2960 1.327 . S
C2961 H2968 0.930 . S
C2962 C2957 1.385 . S
C2962 C2959 1.370 1_655 S
C2962 H2981 0.930 . S
Tb2963 N2960 2.600 . S
Tb2963 N2964 2.660 . S
Tb2963 O2997 2.362 . S
Tb2963 O2998 2.421 . S
Tb2963 O3002 2.546 . S
Tb2963 O3003 2.610 . S
Tb2963 O3005 2.320 . S
Tb2963 O3006 2.552 . S
Tb2963 O3007 2.413 . S
Tb2963 C3027 2.833 . S
N2964 C2956 1.360 . S
N2964 Tb2963 2.660 . S
N2964 C2965 1.305 . S
C2965 N2964 1.305 . S
C2965 C2967 1.401 1_455 S
C2965 H2972 0.930 . S
C2966 C2954 1.410 . S
C2966 C2967 1.353 . S
C2966 H2974 0.930 . S
C2967 C2965 1.401 1_655 S
C2967 C2966 1.353 . S
C2967 H2969 0.928 . S
H2968 C2961 0.930 . S
H2969 C2967 0.928 . S
H2970 C2958 0.930 . S
H2971 C2959 0.931 . S
H2972 C2965 0.930 . S
H2973 C2987 0.930 . S
H2974 C2966 0.930 . S
H2975 C2993 0.930 . S
H2976 C2984 0.930 . S
H2977 C2991 0.931 . S
H2978 C2955 0.929 . S
H2979 C2985 0.930 . S
H2980 C3018 0.930 . S
H2981 C2962 0.930 . S
H2982 C3017 0.929 . S
N2983 Tb2952 2.660 . S
N2983 C2984 1.305 . S
N2983 C2988 1.360 . S
C2984 H2976 0.930 . S
C2984 N2983 1.305 . S
C2984 C2987 1.407 . S
C2985 H2979 0.930 . S
C2985 C2986 1.410 . S
C2985 C2987 1.345 . S
C2986 C2985 1.410 . S
C2986 C2988 1.417 . S
C2986 C3018 1.432 . S
C2987 H2973 0.930 . S
C2987 C2984 1.407 . S
C2987 C2985 1.345 . S
C2988 N2983 1.360 . S
C2988 C2986 1.417 . S
C2988 C2992 1.432 . S
H2989 C2994 0.930 . S
N2990 Tb2952 2.600 . S
N2990 C2992 1.359 . S
N2990 C2993 1.327 . S
C2991 H2977 0.931 . S
C2991 C2993 1.392 . S
C2991 C2994 1.370 . S
C2992 C2988 1.432 . S
C2992 N2990 1.359 . S
C2992 C2995 1.414 . S
C2993 H2975 0.930 . S
C2993 N2990 1.327 . S
C2993 C2991 1.392 . S
C2994 H2989 0.930 . S
C2994 C2991 1.370 . S
C2994 C2995 1.385 . S
C2995 C2992 1.414 . S
C2995 C2994 1.385 . S
C2995 C3017 1.444 . S
O2996 Tb2952 2.546 . S
O2996 C3016 1.251 . S
O2997 Tb2952 2.610 . S
O2997 Tb2963 2.362 . S
O2997 C3008 1.283 . S
O2998 Tb2963 2.421 . S
O2998 C3015 1.262 . S
O2999 Tb2952 2.320 . S
O2999 C3015 1.260 . S
O3000 Tb2952 2.552 . S
O3000 C3008 1.243 . S
O3001 Tb2952 2.413 . S
O3001 C3016 1.256 . S
O3002 Tb2963 2.546 . S
O3002 C3027 1.251 . S
O3003 Tb2952 2.362 . S
O3003 Tb2963 2.610 . S
O3003 C3019 1.283 . S
O3004 Tb2952 2.421 . S
O3004 C3026 1.262 . S
O3005 Tb2963 2.320 . S
O3005 C3026 1.260 . S
O3006 Tb2963 2.552 . S
O3006 C3019 1.243 . S
O3007 Tb2963 2.413 . S
O3007 C3027 1.256 . S
C3008 O2997 1.283 . S
C3008 O3000 1.243 . S
C3009 C3011 1.382 . S
C3009 C3013 1.393 . S
C3009 C3016 1.500 . S
C3010 C3011 1.400 . S
C3010 C3012 1.384 . S
C3011 C3009 1.382 . S
C3011 C3010 1.400 . S
C3011 H3028 0.930 . S
C3012 C3010 1.384 . S
C3012 C3014 1.392 . S
C3012 H3029 0.931 . S
C3013 C3009 1.393 . S
C3013 C3014 1.401 . S
C3013 H3030 0.930 . S
C3014 C3012 1.392 . S
C3014 C3013 1.401 . S
C3014 H3031 0.930 . S
C3015 O2998 1.262 . S
C3015 O2999 1.260 . S
C3016 Tb2952 2.833 . S
C3016 O2996 1.251 . S
C3016 O3001 1.256 . S
C3016 C3009 1.500 . S
C3017 H2982 0.929 . S
C3017 C2995 1.444 . S
C3017 C3018 1.317 . S
C3018 H2980 0.930 . S
C3018 C2986 1.432 . S
C3018 C3017 1.317 . S
C3019 O3003 1.283 . S
C3019 O3006 1.243 . S
C3020 C3021 1.382 . S
C3020 C3024 1.393 . S
C3020 C3027 1.500 . S
C3021 C3020 1.382 . S
C3021 C3022 1.400 . S
C3021 H3032 0.930 . S
C3022 C3021 1.400 . S
C3022 C3023 1.384 . S
C3023 C3022 1.384 . S
C3023 C3025 1.392 . S
C3023 H3033 0.931 . S
C3024 C3020 1.393 . S
C3024 C3025 1.401 . S
C3024 H3034 0.930 . S
C3025 C3023 1.392 . S
C3025 C3024 1.401 . S
C3025 H3035 0.930 . S
C3026 O3004 1.262 . S
C3026 O3005 1.260 . S
C3027 Tb2963 2.833 . S
C3027 O3002 1.251 . S
C3027 O3007 1.256 . S
C3027 C3020 1.500 . S
H3028 C3011 0.930 . S
H3029 C3012 0.931 . S
H3030 C3013 0.930 . S
H3031 C3014 0.930 . S
H3032 C3021 0.930 . S
H3033 C3023 0.931 . S
H3034 C3024 0.930 . S
H3035 C3025 0.930 . S
Tb3036 N3067 2.660 . S
Tb3036 N3074 2.600 . S
Tb3036 O3080 2.546 . S
Tb3036 O3081 2.610 . S
Tb3036 O3083 2.320 . S
Tb3036 O3084 2.552 . S
Tb3036 O3085 2.413 . S
Tb3036 O3087 2.362 . S
Tb3036 O3088 2.421 . S
Tb3036 C3100 2.833 . S
C3037 C3040 1.432 . S
C3037 C3041 1.414 . S
C3037 N3044 1.359 . S
C3038 C3040 1.417 . S
C3038 C3042 1.432 . S
C3038 C3050 1.410 . S
C3039 C3041 1.444 . S
C3039 C3042 1.317 . S
C3039 H3062 0.929 . S
C3040 C3037 1.432 . S
C3040 C3038 1.417 . S
C3040 N3048 1.360 . S
C3041 C3037 1.414 . S
C3041 C3039 1.444 . S
C3041 C3046 1.385 . S
C3042 C3038 1.432 . S
C3042 C3039 1.317 . S
C3042 H3054 0.930 . S
C3043 C3045 1.392 . S
C3043 C3046 1.370 . S
C3043 H3055 0.931 . S
N3044 C3037 1.359 . S
N3044 C3045 1.327 . S
N3044 Tb3047 2.600 . S
C3045 C3043 1.392 . S
C3045 N3044 1.327 . S
C3045 H3052 0.930 . S
C3046 C3041 1.385 . S
C3046 C3043 1.370 . S
C3046 H3065 0.930 . S
Tb3047 N3044 2.600 . S
Tb3047 N3048 2.660 . S
Tb3047 O3081 2.362 . S
Tb3047 O3082 2.421 . S
Tb3047 O3086 2.546 . S
Tb3047 O3087 2.610 . S
Tb3047 O3089 2.320 . S
Tb3047 O3090 2.552 . S
Tb3047 O3091 2.413 . S
Tb3047 C3111 2.833 . S
N3048 C3040 1.360 . S
N3048 Tb3047 2.660 . S
N3048 C3049 1.305 . S
C3049 N3048 1.305 . S
C3049 C3051 1.407 . S
C3049 H3056 0.930 . S
C3050 C3038 1.410 . S
C3050 C3051 1.345 . S
C3050 H3058 0.930 . S
C3051 C3049 1.407 . S
C3051 C3050 1.345 . S
C3051 H3053 0.930 . S
H3052 C3045 0.930 . S
H3053 C3051 0.930 . S
H3054 C3042 0.930 . S
H3055 C3043 0.931 . S
H3056 C3049 0.930 . S
H3057 C3071 0.930 . S
H3058 C3050 0.930 . S
H3059 C3077 0.930 . S
H3060 C3068 0.930 . S
H3061 C3075 0.931 . S
H3062 C3039 0.929 . S
H3063 C3069 0.930 . S
H3064 C3102 0.930 . S
H3065 C3046 0.930 . S
H3066 C3101 0.929 . S
N3067 Tb3036 2.660 . S
N3067 C3068 1.305 . S
N3067 C3072 1.360 . S
C3068 H3060 0.930 . S
C3068 N3067 1.305 . S
C3068 C3071 1.407 . S
C3069 H3063 0.930 . S
C3069 C3070 1.410 . S
C3069 C3071 1.345 . S
C3070 C3069 1.410 . S
C3070 C3072 1.417 . S
C3070 C3102 1.432 . S
C3071 H3057 0.930 . S
C3071 C3068 1.407 . S
C3071 C3069 1.345 . S
C3072 N3067 1.360 . S
C3072 C3070 1.417 . S
C3072 C3076 1.432 . S
H3073 C3078 0.930 . S
N3074 Tb3036 2.600 . S
N3074 C3076 1.359 . S
N3074 C3077 1.327 . S
C3075 H3061 0.931 . S
C3075 C3077 1.392 . S
C3075 C3078 1.370 . S
C3076 C3072 1.432 . S
C3076 N3074 1.359 . S
C3076 C3079 1.414 . S
C3077 H3059 0.930 . S
C3077 N3074 1.327 . S
C3077 C3075 1.392 . S
C3078 H3073 0.930 . S
C3078 C3075 1.370 . S
C3078 C3079 1.385 . S
C3079 C3076 1.414 . S
C3079 C3078 1.385 . S
C3079 C3101 1.444 . S
O3080 Tb3036 2.546 . S
O3080 C3100 1.251 . S
O3081 Tb3036 2.610 . S
O3081 Tb3047 2.362 . S
O3081 C3092 1.283 . S
O3082 Tb3047 2.421 . S
O3082 C3099 1.262 . S
O3083 Tb3036 2.320 . S
O3083 C3099 1.260 . S
O3084 Tb3036 2.552 . S
O3084 C3092 1.243 . S
O3085 Tb3036 2.413 . S
O3085 C3100 1.256 . S
O3086 Tb3047 2.546 . S
O3086 C3111 1.251 . S
O3087 Tb3036 2.362 . S
O3087 Tb3047 2.610 . S
O3087 C3103 1.283 . S
O3088 Tb3036 2.421 . S
O3088 C3110 1.262 . S
O3089 Tb3047 2.320 . S
O3089 C3110 1.260 . S
O3090 Tb3047 2.552 . S
O3090 C3103 1.243 . S
O3091 Tb3047 2.413 . S
O3091 C3111 1.256 . S
C3092 O3081 1.283 . S
C3092 O3084 1.243 . S
C3093 C3095 1.382 . S
C3093 C3097 1.393 . S
C3093 C3100 1.500 . S
C3094 C3095 1.400 . S
C3094 C3096 1.384 . S
C3095 C3093 1.382 . S
C3095 C3094 1.400 . S
C3095 H3112 0.930 . S
C3096 C3094 1.384 . S
C3096 C3098 1.392 . S
C3096 H3113 0.931 . S
C3097 C3093 1.393 . S
C3097 C3098 1.401 . S
C3097 H3114 0.930 . S
C3098 C3096 1.392 . S
C3098 C3097 1.401 . S
C3098 H3115 0.930 . S
C3099 O3082 1.262 . S
C3099 O3083 1.260 . S
C3100 Tb3036 2.833 . S
C3100 O3080 1.251 . S
C3100 O3085 1.256 . S
C3100 C3093 1.500 . S
C3101 H3066 0.929 . S
C3101 C3079 1.444 . S
C3101 C3102 1.317 . S
C3102 H3064 0.930 . S
C3102 C3070 1.432 . S
C3102 C3101 1.317 . S
C3103 O3087 1.283 . S
C3103 O3090 1.243 . S
C3104 C3105 1.382 . S
C3104 C3108 1.393 . S
C3104 C3111 1.500 . S
C3105 C3104 1.382 . S
C3105 C3106 1.400 . S
C3105 H3116 0.930 . S
C3106 C3105 1.400 . S
C3106 C3107 1.384 . S
C3107 C3106 1.384 . S
C3107 C3109 1.392 . S
C3107 H3117 0.931 . S
C3108 C3104 1.393 . S
C3108 C3109 1.401 . S
C3108 H3118 0.930 . S
C3109 C3107 1.392 . S
C3109 C3108 1.401 . S
C3109 H3119 0.930 . S
C3110 O3088 1.262 . S
C3110 O3089 1.260 . S
C3111 Tb3047 2.833 . S
C3111 O3086 1.251 . S
C3111 O3091 1.256 . S
C3111 C3104 1.500 . S
H3112 C3095 0.930 . S
H3113 C3096 0.931 . S
H3114 C3097 0.930 . S
H3115 C3098 0.930 . S
H3116 C3105 0.930 . S
H3117 C3107 0.931 . S
H3118 C3108 0.930 . S
H3119 C3109 0.930 . S
Tb3120 N3151 2.660 . S
Tb3120 N3158 2.600 . S
Tb3120 O3164 2.546 . S
Tb3120 O3165 2.610 . S
Tb3120 O3167 2.320 . S
Tb3120 O3168 2.552 . S
Tb3120 O3169 2.413 . S
Tb3120 O3171 2.362 . S
Tb3120 O3172 2.421 . S
Tb3120 C3184 2.833 . S
C3121 C3124 1.432 . S
C3121 C3125 1.414 . S
C3121 N3128 1.359 . S
C3122 C3124 1.417 . S
C3122 C3126 1.432 . S
C3122 C3134 1.410 . S
C3123 C3125 1.444 . S
C3123 C3126 1.317 . S
C3123 H3146 0.929 . S
C3124 C3121 1.432 . S
C3124 C3122 1.417 . S
C3124 N3132 1.360 . S
C3125 C3121 1.414 . S
C3125 C3123 1.444 . S
C3125 C3130 1.385 . S
C3126 C3122 1.432 . S
C3126 C3123 1.317 . S
C3126 H3138 0.930 . S
C3127 C3129 1.392 . S
C3127 C3130 1.370 . S
C3127 H3139 0.931 . S
N3128 C3121 1.359 . S
N3128 C3129 1.327 . S
N3128 Tb3131 2.600 . S
C3129 C3127 1.392 . S
C3129 N3128 1.327 . S
C3129 H3136 0.930 . S
C3130 C3125 1.385 . S
C3130 C3127 1.370 . S
C3130 H3149 0.930 . S
Tb3131 N3128 2.600 . S
Tb3131 N3132 2.660 . S
Tb3131 O3165 2.362 . S
Tb3131 O3166 2.421 . S
Tb3131 O3170 2.546 . S
Tb3131 O3171 2.610 . S
Tb3131 O3173 2.320 . S
Tb3131 O3174 2.552 . S
Tb3131 O3175 2.413 . S
Tb3131 C3195 2.833 . S
N3132 C3124 1.360 . S
N3132 Tb3131 2.660 . S
N3132 C3133 1.305 . S
C3133 N3132 1.305 . S
C3133 C3135 1.407 . S
C3133 H3140 0.930 . S
C3134 C3122 1.410 . S
C3134 C3135 1.345 . S
C3134 H3142 0.930 . S
C3135 C3133 1.407 . S
C3135 C3134 1.345 . S
C3135 H3137 0.930 . S
H3136 C3129 0.930 . S
H3137 C3135 0.930 . S
H3138 C3126 0.930 . S
H3139 C3127 0.931 . S
H3140 C3133 0.930 . S
H3141 C3155 0.930 . S
H3142 C3134 0.930 . S
H3143 C3161 0.930 . S
H3144 C3152 0.930 . S
H3145 C3159 0.931 . S
H3146 C3123 0.929 . S
H3147 C3153 0.930 . S
H3148 C3186 0.930 . S
H3149 C3130 0.930 . S
H3150 C3185 0.929 . S
N3151 Tb3120 2.660 . S
N3151 C3152 1.305 . S
N3151 C3156 1.360 . S
C3152 H3144 0.930 . S
C3152 N3151 1.305 . S
C3152 C3155 1.407 . S
C3153 H3147 0.930 . S
C3153 C3154 1.410 . S
C3153 C3155 1.345 . S
C3154 C3153 1.410 . S
C3154 C3156 1.417 . S
C3154 C3186 1.432 . S
C3155 H3141 0.930 . S
C3155 C3152 1.407 . S
C3155 C3153 1.345 . S
C3156 N3151 1.360 . S
C3156 C3154 1.417 . S
C3156 C3160 1.432 . S
H3157 C3162 0.930 . S
N3158 Tb3120 2.600 . S
N3158 C3160 1.359 . S
N3158 C3161 1.327 . S
C3159 H3145 0.931 . S
C3159 C3161 1.392 . S
C3159 C3162 1.370 . S
C3160 C3156 1.432 . S
C3160 N3158 1.359 . S
C3160 C3163 1.414 . S
C3161 H3143 0.930 . S
C3161 N3158 1.327 . S
C3161 C3159 1.392 . S
C3162 H3157 0.930 . S
C3162 C3159 1.370 . S
C3162 C3163 1.385 . S
C3163 C3160 1.414 . S
C3163 C3162 1.385 . S
C3163 C3185 1.444 . S
O3164 Tb3120 2.546 . S
O3164 C3184 1.251 . S
O3165 Tb3120 2.610 . S
O3165 Tb3131 2.362 . S
O3165 C3176 1.283 . S
O3166 Tb3131 2.421 . S
O3166 C3183 1.262 . S
O3167 Tb3120 2.320 . S
O3167 C3183 1.260 . S
O3168 Tb3120 2.552 . S
O3168 C3176 1.243 . S
O3169 Tb3120 2.413 . S
O3169 C3184 1.256 . S
O3170 Tb3131 2.546 . S
O3170 C3195 1.251 . S
O3171 Tb3120 2.362 . S
O3171 Tb3131 2.610 . S
O3171 C3187 1.283 . S
O3172 Tb3120 2.421 . S
O3172 C3194 1.262 . S
O3173 Tb3131 2.320 . S
O3173 C3194 1.260 . S
O3174 Tb3131 2.552 . S
O3174 C3187 1.243 . S
O3175 Tb3131 2.413 . S
O3175 C3195 1.256 . S
C3176 O3165 1.283 . S
C3176 O3168 1.243 . S
C3177 C3179 1.382 . S
C3177 C3181 1.393 . S
C3177 C3184 1.500 . S
C3178 C3179 1.400 . S
C3178 C3180 1.384 . S
C3179 C3177 1.382 . S
C3179 C3178 1.400 . S
C3179 H3196 0.930 . S
C3180 C3178 1.384 . S
C3180 C3182 1.392 . S
C3180 H3197 0.931 . S
C3181 C3177 1.393 . S
C3181 C3182 1.401 . S
C3181 H3198 0.930 . S
C3182 C3180 1.392 . S
C3182 C3181 1.401 . S
C3182 H3199 0.930 . S
C3183 O3166 1.262 . S
C3183 O3167 1.260 . S
C3184 Tb3120 2.833 . S
C3184 O3164 1.251 . S
C3184 O3169 1.256 . S
C3184 C3177 1.500 . S
C3185 H3150 0.929 . S
C3185 C3163 1.444 . S
C3185 C3186 1.317 . S
C3186 H3148 0.930 . S
C3186 C3154 1.432 . S
C3186 C3185 1.317 . S
C3187 O3171 1.283 . S
C3187 O3174 1.243 . S
C3188 C3189 1.382 . S
C3188 C3192 1.393 . S
C3188 C3195 1.500 . S
C3189 C3188 1.382 . S
C3189 C3190 1.400 . S
C3189 H3200 0.930 . S
C3190 C3189 1.400 . S
C3190 C3191 1.384 . S
C3191 C3190 1.384 . S
C3191 C3193 1.392 . S
C3191 H3201 0.931 . S
C3192 C3188 1.393 . S
C3192 C3193 1.401 . S
C3192 H3202 0.930 . S
C3193 C3191 1.392 . S
C3193 C3192 1.401 . S
C3193 H3203 0.930 . S
C3194 O3172 1.262 . S
C3194 O3173 1.260 . S
C3195 Tb3131 2.833 . S
C3195 O3170 1.251 . S
C3195 O3175 1.256 . S
C3195 C3188 1.500 . S
H3196 C3179 0.930 . S
H3197 C3180 0.931 . S
H3198 C3181 0.930 . S
H3199 C3182 0.930 . S
H3200 C3189 0.930 . S
H3201 C3191 0.931 . S
H3202 C3192 0.930 . S
H3203 C3193 0.930 . S
Tb3204 N3235 2.660 . S
Tb3204 N3242 2.600 . S
Tb3204 O3248 2.546 . S
Tb3204 O3249 2.610 . S
Tb3204 O3251 2.320 . S
Tb3204 O3252 2.552 . S
Tb3204 O3253 2.413 . S
Tb3204 O3255 2.362 . S
Tb3204 O3256 2.421 . S
Tb3204 C3268 2.833 . S
C3205 C3208 1.432 . S
C3205 C3209 1.414 . S
C3205 N3212 1.359 . S
C3206 C3208 1.417 . S
C3206 C3210 1.432 . S
C3206 C3218 1.410 . S
C3207 C3209 1.444 . S
C3207 C3210 1.317 . S
C3207 H3230 0.929 . S
C3208 C3205 1.432 . S
C3208 C3206 1.417 . S
C3208 N3216 1.360 . S
C3209 C3205 1.414 . S
C3209 C3207 1.444 . S
C3209 C3214 1.385 . S
C3210 C3206 1.432 . S
C3210 C3207 1.317 . S
C3210 H3222 0.930 . S
C3211 C3213 1.392 . S
C3211 C3214 1.370 . S
C3211 H3223 0.931 . S
N3212 C3205 1.359 . S
N3212 C3213 1.327 . S
N3212 Tb3215 2.600 . S
C3213 C3211 1.392 . S
C3213 N3212 1.327 . S
C3213 H3220 0.930 . S
C3214 C3209 1.385 . S
C3214 C3211 1.370 . S
C3214 H3233 0.930 . S
Tb3215 N3212 2.600 . S
Tb3215 N3216 2.660 . S
Tb3215 O3249 2.362 . S
Tb3215 O3250 2.421 . S
Tb3215 O3254 2.546 . S
Tb3215 O3255 2.610 . S
Tb3215 O3257 2.320 . S
Tb3215 O3258 2.552 . S
Tb3215 O3259 2.413 . S
Tb3215 C3279 2.833 . S
N3216 C3208 1.360 . S
N3216 Tb3215 2.660 . S
N3216 C3217 1.305 . S
C3217 N3216 1.305 . S
C3217 C3219 1.407 . S
C3217 H3224 0.930 . S
C3218 C3206 1.410 . S
C3218 C3219 1.345 . S
C3218 H3226 0.930 . S
C3219 C3217 1.407 . S
C3219 C3218 1.345 . S
C3219 H3221 0.930 . S
H3220 C3213 0.930 . S
H3221 C3219 0.930 . S
H3222 C3210 0.930 . S
H3223 C3211 0.931 . S
H3224 C3217 0.930 . S
H3225 C3239 0.930 . S
H3226 C3218 0.930 . S
H3227 C3245 0.930 . S
H3228 C3236 0.930 . S
H3229 C3243 0.931 . S
H3230 C3207 0.929 . S
H3231 C3237 0.930 . S
H3232 C3270 0.930 . S
H3233 C3214 0.930 . S
H3234 C3269 0.929 . S
N3235 Tb3204 2.660 . S
N3235 C3236 1.305 . S
N3235 C3240 1.360 . S
C3236 H3228 0.930 . S
C3236 N3235 1.305 . S
C3236 C3239 1.407 . S
C3237 H3231 0.930 . S
C3237 C3238 1.410 . S
C3237 C3239 1.345 . S
C3238 C3237 1.410 . S
C3238 C3240 1.417 . S
C3238 C3270 1.432 . S
C3239 H3225 0.930 . S
C3239 C3236 1.407 . S
C3239 C3237 1.345 . S
C3240 N3235 1.360 . S
C3240 C3238 1.417 . S
C3240 C3244 1.432 . S
H3241 C3246 0.930 . S
N3242 Tb3204 2.600 . S
N3242 C3244 1.359 . S
N3242 C3245 1.327 . S
C3243 H3229 0.931 . S
C3243 C3245 1.392 . S
C3243 C3246 1.370 . S
C3244 C3240 1.432 . S
C3244 N3242 1.359 . S
C3244 C3247 1.414 . S
C3245 H3227 0.930 . S
C3245 N3242 1.327 . S
C3245 C3243 1.392 . S
C3246 H3241 0.930 . S
C3246 C3243 1.370 . S
C3246 C3247 1.385 . S
C3247 C3244 1.414 . S
C3247 C3246 1.385 . S
C3247 C3269 1.444 . S
O3248 Tb3204 2.546 . S
O3248 C3268 1.251 . S
O3249 Tb3204 2.610 . S
O3249 Tb3215 2.362 . S
O3249 C3260 1.283 . S
O3250 Tb3215 2.421 . S
O3250 C3267 1.262 . S
O3251 Tb3204 2.320 . S
O3251 C3267 1.260 . S
O3252 Tb3204 2.552 . S
O3252 C3260 1.243 . S
O3253 Tb3204 2.413 . S
O3253 C3268 1.256 . S
O3254 Tb3215 2.546 . S
O3254 C3279 1.251 . S
O3255 Tb3204 2.362 . S
O3255 Tb3215 2.610 . S
O3255 C3271 1.283 . S
O3256 Tb3204 2.421 . S
O3256 C3278 1.262 . S
O3257 Tb3215 2.320 . S
O3257 C3278 1.260 . S
O3258 Tb3215 2.552 . S
O3258 C3271 1.243 . S
O3259 Tb3215 2.413 . S
O3259 C3279 1.256 . S
C3260 O3249 1.283 . S
C3260 O3252 1.243 . S
C3261 C3263 1.382 . S
C3261 C3265 1.393 . S
C3261 C3268 1.500 . S
C3262 C3263 1.400 . S
C3262 C3264 1.384 . S
C3263 C3261 1.382 . S
C3263 C3262 1.400 . S
C3263 H3280 0.930 . S
C3264 C3262 1.384 . S
C3264 C3266 1.392 . S
C3264 H3281 0.931 . S
C3265 C3261 1.393 . S
C3265 C3266 1.401 . S
C3265 H3282 0.930 . S
C3266 C3264 1.392 . S
C3266 C3265 1.401 . S
C3266 H3283 0.930 . S
C3267 O3250 1.262 . S
C3267 O3251 1.260 . S
C3268 Tb3204 2.833 . S
C3268 O3248 1.251 . S
C3268 O3253 1.256 . S
C3268 C3261 1.500 . S
C3269 H3234 0.929 . S
C3269 C3247 1.444 . S
C3269 C3270 1.317 . S
C3270 H3232 0.930 . S
C3270 C3238 1.432 . S
C3270 C3269 1.317 . S
C3271 O3255 1.283 . S
C3271 O3258 1.243 . S
C3272 C3273 1.382 . S
C3272 C3276 1.393 . S
C3272 C3279 1.500 . S
C3273 C3272 1.382 . S
C3273 C3274 1.400 . S
C3273 H3284 0.930 . S
C3274 C3273 1.400 . S
C3274 C3275 1.384 . S
C3275 C3274 1.384 . S
C3275 C3277 1.392 . S
C3275 H3285 0.931 . S
C3276 C3272 1.393 . S
C3276 C3277 1.401 . S
C3276 H3286 0.930 . S
C3277 C3275 1.392 . S
C3277 C3276 1.401 . S
C3277 H3287 0.930 . S
C3278 O3256 1.262 . S
C3278 O3257 1.260 . S
C3279 Tb3215 2.833 . S
C3279 O3254 1.251 . S
C3279 O3259 1.256 . S
C3279 C3272 1.500 . S
H3280 C3263 0.930 . S
H3281 C3264 0.931 . S
H3282 C3265 0.930 . S
H3283 C3266 0.930 . S
H3284 C3273 0.930 . S
H3285 C3275 0.931 . S
H3286 C3276 0.930 . S
H3287 C3277 0.930 . S
Tb3288 N3319 2.660 . S
Tb3288 N3326 2.600 . S
Tb3288 O3332 2.546 . S
Tb3288 O3333 2.610 . S
Tb3288 O3335 2.320 . S
Tb3288 O3336 2.552 . S
Tb3288 O3337 2.413 . S
Tb3288 O3339 2.362 . S
Tb3288 O3340 2.421 . S
Tb3288 C3352 2.833 . S
C3289 C3292 1.432 . S
C3289 C3293 1.414 . S
C3289 N3296 1.359 . S
C3290 C3292 1.417 . S
C3290 C3294 1.432 . S
C3290 C3302 1.410 . S
C3291 C3293 1.444 . S
C3291 C3294 1.317 . S
C3291 H3314 0.929 . S
C3292 C3289 1.432 . S
C3292 C3290 1.417 . S
C3292 N3300 1.360 . S
C3293 C3289 1.414 . S
C3293 C3291 1.444 . S
C3293 C3298 1.385 . S
C3294 C3290 1.432 . S
C3294 C3291 1.317 . S
C3294 H3306 0.930 . S
C3295 C3297 1.392 . S
C3295 C3298 1.370 . S
C3295 H3307 0.931 . S
N3296 C3289 1.359 . S
N3296 C3297 1.327 . S
N3296 Tb3299 2.600 . S
C3297 C3295 1.392 . S
C3297 N3296 1.327 . S
C3297 H3304 0.930 . S
C3298 C3293 1.385 . S
C3298 C3295 1.370 . S
C3298 H3317 0.930 . S
Tb3299 N3296 2.600 . S
Tb3299 N3300 2.660 . S
Tb3299 O3333 2.362 . S
Tb3299 O3334 2.421 . S
Tb3299 O3338 2.546 . S
Tb3299 O3339 2.610 . S
Tb3299 O3341 2.320 . S
Tb3299 O3342 2.552 . S
Tb3299 O3343 2.413 . S
Tb3299 C3363 2.833 . S
N3300 C3292 1.360 . S
N3300 Tb3299 2.660 . S
N3300 C3301 1.305 . S
C3301 N3300 1.305 . S
C3301 C3303 1.407 . S
C3301 H3308 0.930 . S
C3302 C3290 1.410 . S
C3302 C3303 1.345 . S
C3302 H3310 0.930 . S
C3303 C3301 1.407 . S
C3303 C3302 1.345 . S
C3303 H3305 0.930 . S
H3304 C3297 0.930 . S
H3305 C3303 0.930 . S
H3306 C3294 0.930 . S
H3307 C3295 0.931 . S
H3308 C3301 0.930 . S
H3309 C3323 0.930 . S
H3310 C3302 0.930 . S
H3311 C3329 0.930 . S
H3312 C3320 0.930 . S
H3313 C3327 0.931 . S
H3314 C3291 0.929 . S
H3315 C3321 0.930 . S
H3316 C3354 0.930 . S
H3317 C3298 0.930 . S
H3318 C3353 0.929 . S
N3319 Tb3288 2.660 . S
N3319 C3320 1.305 . S
N3319 C3324 1.360 . S
C3320 H3312 0.930 . S
C3320 N3319 1.305 . S
C3320 C3323 1.407 . S
C3321 H3315 0.930 . S
C3321 C3322 1.410 . S
C3321 C3323 1.345 . S
C3322 C3321 1.410 . S
C3322 C3324 1.417 . S
C3322 C3354 1.432 . S
C3323 H3309 0.930 . S
C3323 C3320 1.407 . S
C3323 C3321 1.345 . S
C3324 N3319 1.360 . S
C3324 C3322 1.417 . S
C3324 C3328 1.432 . S
H3325 C3330 0.930 . S
N3326 Tb3288 2.600 . S
N3326 C3328 1.359 . S
N3326 C3329 1.327 . S
C3327 H3313 0.931 . S
C3327 C3329 1.392 . S
C3327 C3330 1.370 . S
C3328 C3324 1.432 . S
C3328 N3326 1.359 . S
C3328 C3331 1.414 . S
C3329 H3311 0.930 . S
C3329 N3326 1.327 . S
C3329 C3327 1.392 . S
C3330 H3325 0.930 . S
C3330 C3327 1.370 . S
C3330 C3331 1.385 . S
C3331 C3328 1.414 . S
C3331 C3330 1.385 . S
C3331 C3353 1.444 . S
O3332 Tb3288 2.546 . S
O3332 C3352 1.251 . S
O3333 Tb3288 2.610 . S
O3333 Tb3299 2.362 . S
O3333 C3344 1.283 . S
O3334 Tb3299 2.421 . S
O3334 C3351 1.262 . S
O3335 Tb3288 2.320 . S
O3335 C3351 1.260 . S
O3336 Tb3288 2.552 . S
O3336 C3344 1.243 . S
O3337 Tb3288 2.413 . S
O3337 C3352 1.256 . S
O3338 Tb3299 2.546 . S
O3338 C3363 1.251 . S
O3339 Tb3288 2.362 . S
O3339 Tb3299 2.610 . S
O3339 C3355 1.283 . S
O3340 Tb3288 2.421 . S
O3340 C3362 1.262 . S
O3341 Tb3299 2.320 . S
O3341 C3362 1.260 . S
O3342 Tb3299 2.552 . S
O3342 C3355 1.243 . S
O3343 Tb3299 2.413 . S
O3343 C3363 1.256 . S
C3344 O3333 1.283 . S
C3344 O3336 1.243 . S
C3345 C3347 1.382 . S
C3345 C3349 1.393 . S
C3345 C3352 1.500 . S
C3346 C3347 1.400 . S
C3346 C3348 1.384 . S
C3347 C3345 1.382 . S
C3347 C3346 1.400 . S
C3347 H3364 0.930 . S
C3348 C3346 1.384 . S
C3348 C3350 1.392 . S
C3348 H3365 0.931 . S
C3349 C3345 1.393 . S
C3349 C3350 1.401 . S
C3349 H3366 0.930 . S
C3350 C3348 1.392 . S
C3350 C3349 1.401 . S
C3350 H3367 0.930 . S
C3351 O3334 1.262 . S
C3351 O3335 1.260 . S
C3352 Tb3288 2.833 . S
C3352 O3332 1.251 . S
C3352 O3337 1.256 . S
C3352 C3345 1.500 . S
C3353 H3318 0.929 . S
C3353 C3331 1.444 . S
C3353 C3354 1.317 . S
C3354 H3316 0.930 . S
C3354 C3322 1.432 . S
C3354 C3353 1.317 . S
C3355 O3339 1.283 . S
C3355 O3342 1.243 . S
C3356 C3357 1.382 . S
C3356 C3360 1.393 . S
C3356 C3363 1.500 . S
C3357 C3356 1.382 . S
C3357 C3358 1.400 . S
C3357 H3368 0.930 . S
C3358 C3357 1.400 . S
C3358 C3359 1.384 . S
C3359 C3358 1.384 . S
C3359 C3361 1.392 . S
C3359 H3369 0.931 . S
C3360 C3356 1.393 . S
C3360 C3361 1.401 . S
C3360 H3370 0.930 . S
C3361 C3359 1.392 . S
C3361 C3360 1.401 . S
C3361 H3371 0.930 . S
C3362 O3340 1.262 . S
C3362 O3341 1.260 . S
C3363 Tb3299 2.833 . S
C3363 O3338 1.251 . S
C3363 O3343 1.256 . S
C3363 C3356 1.500 . S
H3364 C3347 0.930 . S
H3365 C3348 0.931 . S
H3366 C3349 0.930 . S
H3367 C3350 0.930 . S
H3368 C3357 0.930 . S
H3369 C3359 0.931 . S
H3370 C3360 0.930 . S
H3371 C3361 0.930 . S
Tb3372 N3403 2.660 . S
Tb3372 N3410 2.600 1_554 S
Tb3372 O3416 2.546 1_554 S
Tb3372 O3417 2.610 . S
Tb3372 O3419 2.320 . S
Tb3372 O3420 2.552 . S
Tb3372 O3421 2.413 . S
Tb3372 O3423 2.362 . S
Tb3372 O3424 2.421 1_554 S
Tb3372 C3436 2.833 1_554 S
C3373 C3376 1.432 . S
C3373 C3377 1.414 . S
C3373 N3380 1.359 1_655 S
C3374 C3376 1.417 . S
C3374 C3378 1.432 . S
C3374 C3386 1.410 1_554 S
C3375 C3377 1.444 . S
C3375 C3378 1.317 . S
C3375 H3398 0.929 . S
C3376 C3373 1.432 . S
C3376 C3374 1.417 . S
C3376 N3384 1.360 1_655 S
C3377 C3373 1.414 . S
C3377 C3375 1.444 . S
C3377 C3382 1.385 . S
C3378 C3374 1.432 . S
C3378 C3375 1.317 . S
C3378 H3390 0.930 . S
C3379 C3381 1.392 . S
C3379 C3382 1.370 1_455 S
C3379 H3391 0.931 . S
N3380 C3373 1.359 1_455 S
N3380 C3381 1.327 . S
N3380 Tb3383 2.600 . S
C3381 C3379 1.392 . S
C3381 N3380 1.327 . S
C3381 H3388 0.930 . S
C3382 C3377 1.385 . S
C3382 C3379 1.370 1_655 S
C3382 H3401 0.930 . S
Tb3383 N3380 2.600 . S
Tb3383 N3384 2.660 . S
Tb3383 O3417 2.362 . S
Tb3383 O3418 2.421 . S
Tb3383 O3422 2.546 . S
Tb3383 O3423 2.610 . S
Tb3383 O3425 2.320 1_554 S
Tb3383 O3426 2.552 . S
Tb3383 O3427 2.413 1_455 S
Tb3383 C3447 2.833 1_455 S
N3384 C3376 1.360 1_455 S
N3384 Tb3383 2.660 . S
N3384 C3385 1.306 1_554 S
C3385 N3384 1.306 1_556 S
C3385 C3387 1.397 1_455 S
C3385 H3392 0.941 . S
C3386 C3374 1.410 1_556 S
C3386 C3387 1.345 . S
C3386 H3394 0.930 . S
C3387 C3385 1.397 1_655 S
C3387 C3386 1.345 . S
C3387 H3389 0.930 . S
H3388 C3381 0.930 . S
H3389 C3387 0.930 . S
H3390 C3378 0.930 . S
H3391 C3379 0.931 . S
H3392 C3385 0.941 . S
H3393 C3407 0.930 . S
H3394 C3386 0.930 . S
H3395 C3413 0.930 . S
H3396 C3404 0.930 . S
H3397 C3411 0.931 . S
H3398 C3375 0.929 . S
H3399 C3405 0.930 . S
H3400 C3438 0.930 . S
H3401 C3382 0.930 . S
H3402 C3437 0.929 . S
N3403 Tb3372 2.660 . S
N3403 C3404 1.305 . S
N3403 C3408 1.360 . S
C3404 H3396 0.930 . S
C3404 N3403 1.305 . S
C3404 C3407 1.407 . S
C3405 H3399 0.930 . S
C3405 C3406 1.410 . S
C3405 C3407 1.345 . S
C3406 C3405 1.410 . S
C3406 C3408 1.417 . S
C3406 C3438 1.432 . S
C3407 H3393 0.930 . S
C3407 C3404 1.407 . S
C3407 C3405 1.345 . S
C3408 N3403 1.360 . S
C3408 C3406 1.417 . S
C3408 C3412 1.432 1_554 S
H3409 C3414 0.930 . S
N3410 Tb3372 2.600 1_556 S
N3410 C3412 1.359 . S
N3410 C3413 1.327 . S
C3411 H3397 0.931 . S
C3411 C3413 1.392 . S
C3411 C3414 1.370 . S
C3412 C3408 1.432 1_556 S
C3412 N3410 1.359 . S
C3412 C3415 1.414 . S
C3413 H3395 0.930 . S
C3413 N3410 1.327 . S
C3413 C3411 1.392 . S
C3414 H3409 0.930 . S
C3414 C3411 1.370 . S
C3414 C3415 1.385 . S
C3415 C3412 1.414 . S
C3415 C3414 1.385 . S
C3415 C3437 1.444 . S
O3416 Tb3372 2.546 1_556 S
O3416 C3436 1.251 . S
O3417 Tb3372 2.610 . S
O3417 Tb3383 2.362 . S
O3417 C3428 1.283 . S
O3418 Tb3383 2.421 . S
O3418 C3435 1.262 . S
O3419 Tb3372 2.320 . S
O3419 C3435 1.260 . S
O3420 Tb3372 2.552 . S
O3420 C3428 1.243 . S
O3421 Tb3372 2.413 . S
O3421 C3436 1.256 1_554 S
O3422 Tb3383 2.546 . S
O3422 C3447 1.251 1_455 S
O3423 Tb3372 2.362 . S
O3423 Tb3383 2.610 . S
O3423 C3439 1.283 . S
O3424 Tb3372 2.421 1_556 S
O3424 C3446 1.262 . S
O3425 Tb3383 2.320 1_556 S
O3425 C3446 1.260 . S
O3426 Tb3383 2.552 . S
O3426 C3439 1.243 . S
O3427 Tb3383 2.413 1_655 S
O3427 C3447 1.256 . S
C3428 O3417 1.283 . S
C3428 O3420 1.243 . S
C3429 C3431 1.382 1_556 S
C3429 C3433 1.393 . S
C3429 C3436 1.500 . S
C3430 C3431 1.408 . S
C3430 C3432 1.339 1_554 S
C3431 C3429 1.382 1_554 S
C3431 C3430 1.408 . S
C3431 H3448 0.930 . S
C3432 C3430 1.339 1_556 S
C3432 C3434 1.392 . S
C3432 H3449 0.931 . S
C3433 C3429 1.393 . S
C3433 C3434 1.401 . S
C3433 H3450 0.930 . S
C3434 C3432 1.392 . S
C3434 C3433 1.401 . S
C3434 H3451 0.930 . S
C3435 O3418 1.262 . S
C3435 O3419 1.260 . S
C3436 Tb3372 2.833 1_556 S
C3436 O3416 1.251 . S
C3436 O3421 1.256 1_556 S
C3436 C3429 1.500 . S
C3437 H3402 0.929 . S
C3437 C3415 1.444 . S
C3437 C3438 1.317 1_556 S
C3438 H3400 0.930 . S
C3438 C3406 1.432 . S
C3438 C3437 1.317 1_554 S
C3439 O3423 1.283 . S
C3439 O3426 1.243 . S
C3440 C3441 1.382 . S
C3440 C3444 1.393 . S
C3440 C3447 1.500 . S
C3441 C3440 1.382 . S
C3441 C3442 1.400 . S
C3441 H3452 0.930 . S
C3442 C3441 1.400 . S
C3442 C3443 1.384 . S
C3443 C3442 1.384 . S
C3443 C3445 1.392 . S
C3443 H3453 0.931 . S
C3444 C3440 1.393 . S
C3444 C3445 1.401 . S
C3444 H3454 0.930 . S
C3445 C3443 1.392 . S
C3445 C3444 1.401 . S
C3445 H3455 0.930 . S
C3446 O3424 1.262 . S
C3446 O3425 1.260 . S
C3447 Tb3383 2.833 1_655 S
C3447 O3422 1.251 1_655 S
C3447 O3427 1.256 . S
C3447 C3440 1.500 . S
H3448 C3431 0.930 . S
H3449 C3432 0.931 . S
H3450 C3433 0.930 . S
H3451 C3434 0.930 . S
H3452 C3441 0.930 . S
H3453 C3443 0.931 . S
H3454 C3444 0.930 . S
H3455 C3445 0.930 . S
H3456 C3464 0.950 . S
H3457 C3469 0.950 1_655 S
H3458 C3466 0.953 . S
H3459 C3468 0.932 1_654 S
H3460 C3470 0.950 . S
H3461 C3472 0.950 . S
H3462 C3474 0.950 . S
H3463 C3475 0.950 . S
C3464 H3456 0.950 . S
C3464 C3465 1.386 . S
C3464 C3466 1.381 1_556 S
C3465 C3464 1.386 . S
C3465 C3469 1.393 . S
C3466 H3458 0.953 . S
C3466 C3464 1.381 1_554 S
C3466 C3467 1.408 . S
C3467 C3466 1.408 . S
C3467 C3468 1.395 1_554 S
C3467 C3473 1.491 . S
C3468 H3459 0.932 1_456 S
C3468 C3467 1.395 1_556 S
C3468 C3469 1.410 . S
C3469 H3457 0.950 1_455 S
C3469 C3465 1.393 . S
C3469 C3468 1.410 . S
C3470 H3460 0.950 . S
C3470 C3471 1.386 . S
C3470 C3472 1.391 . S
C3471 C3470 1.386 . S
C3471 C3475 1.393 . S
C3472 H3461 0.950 . S
C3472 C3470 1.391 . S
C3472 C3473 1.400 . S
C3473 C3467 1.491 . S
C3473 C3472 1.400 . S
C3473 C3474 1.398 . S
C3474 H3462 0.950 . S
C3474 C3473 1.398 . S
C3474 C3475 1.391 . S
C3475 H3463 0.950 . S
C3475 C3471 1.393 . S
C3475 C3474 1.391 . S
H3476 C3484 0.950 . S
H3477 C3489 0.950 . S
H3478 C3486 0.950 . S
H3479 C3488 0.950 . S
H3480 C3490 0.950 . S
H3481 C3492 0.950 . S
H3482 C3494 0.950 . S
H3483 C3495 0.950 . S
C3484 H3476 0.950 . S
C3484 C3485 1.386 . S
C3484 C3486 1.391 . S
C3485 C3484 1.386 . S
C3485 C3489 1.393 . S
C3486 H3478 0.950 . S
C3486 C3484 1.391 . S
C3486 C3487 1.400 . S
C3487 C3486 1.400 . S
C3487 C3488 1.398 . S
C3487 C3493 1.491 . S
C3488 H3479 0.950 . S
C3488 C3487 1.398 . S
C3488 C3489 1.391 . S
C3489 H3477 0.950 . S
C3489 C3485 1.393 . S
C3489 C3488 1.391 . S
C3490 H3480 0.950 . S
C3490 C3491 1.386 . S
C3490 C3492 1.391 . S
C3491 C3490 1.386 . S
C3491 C3495 1.393 . S
C3492 H3481 0.950 . S
C3492 C3490 1.391 . S
C3492 C3493 1.400 . S
C3493 C3487 1.491 . S
C3493 C3492 1.400 . S
C3493 C3494 1.398 . S
C3494 H3482 0.950 . S
C3494 C3493 1.398 . S
C3494 C3495 1.391 . S
C3495 H3483 0.950 . S
C3495 C3491 1.393 . S
C3495 C3494 1.391 . S
H3496 C3504 0.950 . S
H3497 C3509 0.950 . S
H3498 C3506 0.950 . S
H3499 C3508 0.950 . S
H3500 C3510 0.950 . S
H3501 C3512 0.950 . S
H3502 C3514 0.950 . S
H3503 C3515 0.950 . S
C3504 H3496 0.950 . S
C3504 C3505 1.386 . S
C3504 C3506 1.391 . S
C3505 C3504 1.386 . S
C3505 C3509 1.393 . S
C3506 H3498 0.950 . S
C3506 C3504 1.391 . S
C3506 C3507 1.400 . S
C3507 C3506 1.400 . S
C3507 C3508 1.398 . S
C3507 C3513 1.491 . S
C3508 H3499 0.950 . S
C3508 C3507 1.398 . S
C3508 C3509 1.391 . S
C3509 H3497 0.950 . S
C3509 C3505 1.393 . S
C3509 C3508 1.391 . S
C3510 H3500 0.950 . S
C3510 C3511 1.386 . S
C3510 C3512 1.391 . S
C3511 C3510 1.386 . S
C3511 C3515 1.393 . S
C3512 H3501 0.950 . S
C3512 C3510 1.391 . S
C3512 C3513 1.400 . S
C3513 C3507 1.491 . S
C3513 C3512 1.400 . S
C3513 C3514 1.398 . S
C3514 H3502 0.950 . S
C3514 C3513 1.398 . S
C3514 C3515 1.391 . S
C3515 H3503 0.950 . S
C3515 C3511 1.393 . S
C3515 C3514 1.391 . S
H3516 C3524 0.950 . S
H3517 C3529 0.950 . S
H3518 C3526 0.950 . S
H3519 C3528 0.950 . S
H3520 C3530 0.950 . S
H3521 C3532 0.950 . S
H3522 C3534 0.950 . S
H3523 C3535 0.950 . S
C3524 H3516 0.950 . S
C3524 C3525 1.386 . S
C3524 C3526 1.391 . S
C3525 C3524 1.386 . S
C3525 C3529 1.393 . S
C3526 H3518 0.950 . S
C3526 C3524 1.391 . S
C3526 C3527 1.400 . S
C3527 C3526 1.400 . S
C3527 C3528 1.398 . S
C3527 C3533 1.491 . S
C3528 H3519 0.950 . S
C3528 C3527 1.398 . S
C3528 C3529 1.391 . S
C3529 H3517 0.950 . S
C3529 C3525 1.393 . S
C3529 C3528 1.391 . S
C3530 H3520 0.950 . S
C3530 C3531 1.386 . S
C3530 C3532 1.391 . S
C3531 C3530 1.386 . S
C3531 C3535 1.393 . S
C3532 H3521 0.950 . S
C3532 C3530 1.391 . S
C3532 C3533 1.400 . S
C3533 C3527 1.491 . S
C3533 C3532 1.400 . S
C3533 C3534 1.398 . S
C3534 H3522 0.950 . S
C3534 C3533 1.398 . S
C3534 C3535 1.391 . S
C3535 H3523 0.950 . S
C3535 C3531 1.393 . S
C3535 C3534 1.391 . S
H3536 C3544 0.950 . S
H3537 C3549 0.950 . S
H3538 C3546 0.950 . S
H3539 C3548 0.950 1_655 S
H3540 C3550 0.950 . S
H3541 C3552 0.950 . S
H3542 C3554 0.950 . S
H3543 C3555 0.950 . S
C3544 H3536 0.950 . S
C3544 C3545 1.386 . S
C3544 C3546 1.391 . S
C3545 C3544 1.386 . S
C3545 C3549 1.393 1_455 S
C3546 H3538 0.950 . S
C3546 C3544 1.391 . S
C3546 C3547 1.400 . S
C3547 C3546 1.400 . S
C3547 C3548 1.398 . S
C3547 C3553 1.491 . S
C3548 H3539 0.950 1_455 S
C3548 C3547 1.398 . S
C3548 C3549 1.391 1_455 S
C3549 H3537 0.950 . S
C3549 C3545 1.393 1_655 S
C3549 C3548 1.391 1_655 S
C3550 H3540 0.950 . S
C3550 C3551 1.386 . S
C3550 C3552 1.391 . S
C3551 C3550 1.386 . S
C3551 C3555 1.393 . S
C3552 H3541 0.950 . S
C3552 C3550 1.391 . S
C3552 C3553 1.400 . S
C3553 C3547 1.491 . S
C3553 C3552 1.400 . S
C3553 C3554 1.398 . S
C3554 H3542 0.950 . S
C3554 C3553 1.398 . S
C3554 C3555 1.391 . S
C3555 H3543 0.950 . S
C3555 C3551 1.393 . S
C3555 C3554 1.391 . S
H3556 C3564 0.950 . S
H3557 C3569 0.950 . S
H3558 C3566 0.950 . S
H3559 C3568 0.950 . S
H3560 C3570 0.950 . S
H3561 C3572 0.950 . S
H3562 C3574 0.950 . S
H3563 C3575 0.950 . S
C3564 H3556 0.950 . S
C3564 C3565 1.386 . S
C3564 C3566 1.391 . S
C3565 C3564 1.386 . S
C3565 C3569 1.393 . S
C3566 H3558 0.950 . S
C3566 C3564 1.391 . S
C3566 C3567 1.400 . S
C3567 C3566 1.400 . S
C3567 C3568 1.398 . S
C3567 C3573 1.491 . S
C3568 H3559 0.950 . S
C3568 C3567 1.398 . S
C3568 C3569 1.391 . S
C3569 H3557 0.950 . S
C3569 C3565 1.393 . S
C3569 C3568 1.391 . S
C3570 H3560 0.950 . S
C3570 C3571 1.386 . S
C3570 C3572 1.391 . S
C3571 C3570 1.386 . S
C3571 C3575 1.393 . S
C3572 H3561 0.950 . S
C3572 C3570 1.391 . S
C3572 C3573 1.400 . S
C3573 C3567 1.491 . S
C3573 C3572 1.400 . S
C3573 C3574 1.398 . S
C3574 H3562 0.950 . S
C3574 C3573 1.398 . S
C3574 C3575 1.391 . S
C3575 H3563 0.950 . S
C3575 C3571 1.393 . S
C3575 C3574 1.391 . S
H3576 C3584 0.950 . S
H3577 C3589 0.950 . S
H3578 C3586 0.950 . S
H3579 C3588 0.950 . S
H3580 C3590 0.950 . S
H3581 C3592 0.950 . S
H3582 C3594 0.950 . S
H3583 C3595 0.950 . S
C3584 H3576 0.950 . S
C3584 C3585 1.386 . S
C3584 C3586 1.391 . S
C3585 C3584 1.386 . S
C3585 C3589 1.393 . S
C3586 H3578 0.950 . S
C3586 C3584 1.391 . S
C3586 C3587 1.400 . S
C3587 C3586 1.400 . S
C3587 C3588 1.398 . S
C3587 C3593 1.491 . S
C3588 H3579 0.950 . S
C3588 C3587 1.398 . S
C3588 C3589 1.391 . S
C3589 H3577 0.950 . S
C3589 C3585 1.393 . S
C3589 C3588 1.391 . S
C3590 H3580 0.950 . S
C3590 C3591 1.386 . S
C3590 C3592 1.391 . S
C3591 C3590 1.386 . S
C3591 C3595 1.393 . S
C3592 H3581 0.950 . S
C3592 C3590 1.391 . S
C3592 C3593 1.400 . S
C3593 C3587 1.491 . S
C3593 C3592 1.400 . S
C3593 C3594 1.398 . S
C3594 H3582 0.950 . S
C3594 C3593 1.398 . S
C3594 C3595 1.391 . S
C3595 H3583 0.950 . S
C3595 C3591 1.393 . S
C3595 C3594 1.391 . S
H3596 C3604 0.950 . S
H3597 C3609 0.950 . S
H3598 C3606 0.950 . S
H3599 C3608 0.950 . S
H3600 C3610 0.950 . S
H3601 C3612 0.950 . S
H3602 C3614 0.950 . S
H3603 C3615 0.950 . S
C3604 H3596 0.950 . S
C3604 C3605 1.386 . S
C3604 C3606 1.391 . S
C3605 C3604 1.386 . S
C3605 C3609 1.393 . S
C3606 H3598 0.950 . S
C3606 C3604 1.391 . S
C3606 C3607 1.400 . S
C3607 C3606 1.400 . S
C3607 C3608 1.398 . S
C3607 C3613 1.491 . S
C3608 H3599 0.950 . S
C3608 C3607 1.398 . S
C3608 C3609 1.391 . S
C3609 H3597 0.950 . S
C3609 C3605 1.393 . S
C3609 C3608 1.391 . S
C3610 H3600 0.950 . S
C3610 C3611 1.386 . S
C3610 C3612 1.391 . S
C3611 C3610 1.386 . S
C3611 C3615 1.393 . S
C3612 H3601 0.950 . S
C3612 C3610 1.391 . S
C3612 C3613 1.400 . S
C3613 C3607 1.491 . S
C3613 C3612 1.400 . S
C3613 C3614 1.398 . S
C3614 H3602 0.950 . S
C3614 C3613 1.398 . S
C3614 C3615 1.391 . S
C3615 H3603 0.950 . S
C3615 C3611 1.393 . S
C3615 C3614 1.391 . S
H3616 C3624 0.950 . S
H3617 C3629 0.950 . S
H3618 C3626 0.950 . S
H3619 C3628 0.950 . S
H3620 C3630 0.950 . S
H3621 C3632 0.950 1_655 S
H3622 C3634 0.950 . S
H3623 C3635 0.950 . S
C3624 H3616 0.950 . S
C3624 C3625 1.345 1_455 S
C3624 C3626 1.391 . S
C3625 C3624 1.345 1_655 S
C3625 C3629 1.418 . S
C3626 H3618 0.950 . S
C3626 C3624 1.391 . S
C3626 C3627 1.400 . S
C3627 C3626 1.400 . S
C3627 C3628 1.398 1_455 S
C3627 C3633 1.491 . S
C3628 H3619 0.950 . S
C3628 C3627 1.398 1_655 S
C3628 C3629 1.391 . S
C3629 H3617 0.950 . S
C3629 C3625 1.418 . S
C3629 C3628 1.391 . S
C3630 H3620 0.950 . S
C3630 C3631 1.386 . S
C3630 C3632 1.391 . S
C3631 C3630 1.386 . S
C3631 C3635 1.393 . S
C3632 H3621 0.950 1_455 S
C3632 C3630 1.391 . S
C3632 C3633 1.400 . S
C3633 C3627 1.491 . S
C3633 C3632 1.400 . S
C3633 C3634 1.398 . S
C3634 H3622 0.950 . S
C3634 C3633 1.398 . S
C3634 C3635 1.391 . S
C3635 H3623 0.950 . S
C3635 C3631 1.393 . S
C3635 C3634 1.391 . S
H3636 C3644 0.950 . S
H3637 C3649 0.950 . S
H3638 C3646 0.950 . S
H3639 C3648 0.950 . S
H3640 C3650 0.950 . S
H3641 C3652 0.950 . S
H3642 C3654 0.950 . S
H3643 C3655 0.950 . S
C3644 H3636 0.950 . S
C3644 C3645 1.386 . S
C3644 C3646 1.391 . S
C3645 C3644 1.386 . S
C3645 C3649 1.393 . S
C3646 H3638 0.950 . S
C3646 C3644 1.391 . S
C3646 C3647 1.400 . S
C3647 C3646 1.400 . S
C3647 C3648 1.398 . S
C3647 C3653 1.491 . S
C3648 H3639 0.950 . S
C3648 C3647 1.398 . S
C3648 C3649 1.391 . S
C3649 H3637 0.950 . S
C3649 C3645 1.393 . S
C3649 C3648 1.391 . S
C3650 H3640 0.950 . S
C3650 C3651 1.386 . S
C3650 C3652 1.391 . S
C3651 C3650 1.386 . S
C3651 C3655 1.393 . S
C3652 H3641 0.950 . S
C3652 C3650 1.391 . S
C3652 C3653 1.400 . S
C3653 C3647 1.491 . S
C3653 C3652 1.400 . S
C3653 C3654 1.398 . S
C3654 H3642 0.950 . S
C3654 C3653 1.398 . S
C3654 C3655 1.391 . S
C3655 H3643 0.950 . S
C3655 C3651 1.393 . S
C3655 C3654 1.391 . S
H3656 C3664 0.950 . S
H3657 C3669 0.950 . S
H3658 C3666 0.950 . S
H3659 C3668 0.950 . S
H3660 C3670 0.950 . S
H3661 C3672 0.950 . S
H3662 C3674 0.950 . S
H3663 C3675 0.950 . S
C3664 H3656 0.950 . S
C3664 C3665 1.386 . S
C3664 C3666 1.391 . S
C3665 C3664 1.386 . S
C3665 C3669 1.393 . S
C3666 H3658 0.950 . S
C3666 C3664 1.391 . S
C3666 C3667 1.400 . S
C3667 C3666 1.400 . S
C3667 C3668 1.398 . S
C3667 C3673 1.491 . S
C3668 H3659 0.950 . S
C3668 C3667 1.398 . S
C3668 C3669 1.391 . S
C3669 H3657 0.950 . S
C3669 C3665 1.393 . S
C3669 C3668 1.391 . S
C3670 H3660 0.950 . S
C3670 C3671 1.386 . S
C3670 C3672 1.391 . S
C3671 C3670 1.386 . S
C3671 C3675 1.393 . S
C3672 H3661 0.950 . S
C3672 C3670 1.391 . S
C3672 C3673 1.400 . S
C3673 C3667 1.491 . S
C3673 C3672 1.400 . S
C3673 C3674 1.398 . S
C3674 H3662 0.950 . S
C3674 C3673 1.398 . S
C3674 C3675 1.391 . S
C3675 H3663 0.950 . S
C3675 C3671 1.393 . S
C3675 C3674 1.391 . S
H3676 C3684 0.950 . S
H3677 C3689 0.950 . S
H3678 C3686 0.950 . S
H3679 C3688 0.950 . S
H3680 C3690 0.950 . S
H3681 C3692 0.950 . S
H3682 C3694 0.950 . S
H3683 C3695 0.950 . S
C3684 H3676 0.950 . S
C3684 C3685 1.386 . S
C3684 C3686 1.391 . S
C3685 C3684 1.386 . S
C3685 C3689 1.393 . S
C3686 H3678 0.950 . S
C3686 C3684 1.391 . S
C3686 C3687 1.400 . S
C3687 C3686 1.400 . S
C3687 C3688 1.398 . S
C3687 C3693 1.491 . S
C3688 H3679 0.950 . S
C3688 C3687 1.398 . S
C3688 C3689 1.391 . S
C3689 H3677 0.950 . S
C3689 C3685 1.393 . S
C3689 C3688 1.391 . S
C3690 H3680 0.950 . S
C3690 C3691 1.386 . S
C3690 C3692 1.391 . S
C3691 C3690 1.386 . S
C3691 C3695 1.393 . S
C3692 H3681 0.950 . S
C3692 C3690 1.391 . S
C3692 C3693 1.400 . S
C3693 C3687 1.491 . S
C3693 C3692 1.400 . S
C3693 C3694 1.398 . S
C3694 H3682 0.950 . S
C3694 C3693 1.398 . S
C3694 C3695 1.391 . S
C3695 H3683 0.950 . S
C3695 C3691 1.393 . S
C3695 C3694 1.391 . S
H3696 C3704 0.950 . S
H3697 C3709 0.950 . S
H3698 C3706 0.950 1_655 S
H3699 C3708 0.950 . S
H3700 C3710 0.950 . S
H3701 C3712 0.950 . S
H3702 C3714 0.950 . S
H3703 C3715 0.950 . S
C3704 H3696 0.950 . S
C3704 C3705 1.386 1_655 S
C3704 C3706 1.391 1_655 S
C3705 C3704 1.386 1_455 S
C3705 C3709 1.393 . S
C3706 H3698 0.950 1_455 S
C3706 C3704 1.391 1_455 S
C3706 C3707 1.400 . S
C3707 C3706 1.400 . S
C3707 C3708 1.398 . S
C3707 C3713 1.491 . S
C3708 H3699 0.950 . S
C3708 C3707 1.398 . S
C3708 C3709 1.391 . S
C3709 H3697 0.950 . S
C3709 C3705 1.393 . S
C3709 C3708 1.391 . S
C3710 H3700 0.950 . S
C3710 C3711 1.386 . S
C3710 C3712 1.391 . S
C3711 C3710 1.386 . S
C3711 C3715 1.393 . S
C3712 H3701 0.950 . S
C3712 C3710 1.391 . S
C3712 C3713 1.400 . S
C3713 C3707 1.491 . S
C3713 C3712 1.400 . S
C3713 C3714 1.398 . S
C3714 H3702 0.950 . S
C3714 C3713 1.398 . S
C3714 C3715 1.391 . S
C3715 H3703 0.950 . S
C3715 C3711 1.393 . S
C3715 C3714 1.391 . S
H3716 C3724 0.950 . S
H3717 C3729 0.950 . S
H3718 C3726 0.950 . S
H3719 C3728 0.950 . S
H3720 C3730 0.950 . S
H3721 C3732 0.950 . S
H3722 C3734 0.950 . S
H3723 C3735 0.950 . S
C3724 H3716 0.950 . S
C3724 C3725 1.386 . S
C3724 C3726 1.391 . S
C3725 C3724 1.386 . S
C3725 C3729 1.393 . S
C3726 H3718 0.950 . S
C3726 C3724 1.391 . S
C3726 C3727 1.400 . S
C3727 C3726 1.400 . S
C3727 C3728 1.398 . S
C3727 C3733 1.491 . S
C3728 H3719 0.950 . S
C3728 C3727 1.398 . S
C3728 C3729 1.391 . S
C3729 H3717 0.950 . S
C3729 C3725 1.393 . S
C3729 C3728 1.391 . S
C3730 H3720 0.950 . S
C3730 C3731 1.386 . S
C3730 C3732 1.391 . S
C3731 C3730 1.386 . S
C3731 C3735 1.393 . S
C3732 H3721 0.950 . S
C3732 C3730 1.391 . S
C3732 C3733 1.400 . S
C3733 C3727 1.491 . S
C3733 C3732 1.400 . S
C3733 C3734 1.398 . S
C3734 H3722 0.950 . S
C3734 C3733 1.398 . S
C3734 C3735 1.391 . S
C3735 H3723 0.950 . S
C3735 C3731 1.393 . S
C3735 C3734 1.391 . S
H3736 C3744 0.950 . S
H3737 C3749 0.950 . S
H3738 C3746 0.950 . S
H3739 C3748 0.950 . S
H3740 C3750 0.950 . S
H3741 C3752 0.950 . S
H3742 C3754 0.950 . S
H3743 C3755 0.950 . S
C3744 H3736 0.950 . S
C3744 C3745 1.386 . S
C3744 C3746 1.391 . S
C3745 C3744 1.386 . S
C3745 C3749 1.393 . S
C3746 H3738 0.950 . S
C3746 C3744 1.391 . S
C3746 C3747 1.400 . S
C3747 C3746 1.400 . S
C3747 C3748 1.398 . S
C3747 C3753 1.491 . S
C3748 H3739 0.950 . S
C3748 C3747 1.398 . S
C3748 C3749 1.391 . S
C3749 H3737 0.950 . S
C3749 C3745 1.393 . S
C3749 C3748 1.391 . S
C3750 H3740 0.950 . S
C3750 C3751 1.386 . S
C3750 C3752 1.391 . S
C3751 C3750 1.386 . S
C3751 C3755 1.393 . S
C3752 H3741 0.950 . S
C3752 C3750 1.391 . S
C3752 C3753 1.400 . S
C3753 C3747 1.491 . S
C3753 C3752 1.400 . S
C3753 C3754 1.398 . S
C3754 H3742 0.950 . S
C3754 C3753 1.398 . S
C3754 C3755 1.391 . S
C3755 H3743 0.950 . S
C3755 C3751 1.393 . S
C3755 C3754 1.391 . S
H3756 C3764 0.950 . S
H3757 C3769 0.950 . S
H3758 C3766 0.950 . S
H3759 C3768 0.950 . S
H3760 C3770 0.950 . S
H3761 C3772 0.950 . S
H3762 C3774 0.950 . S
H3763 C3775 0.950 . S
C3764 H3756 0.950 . S
C3764 C3765 1.386 . S
C3764 C3766 1.391 . S
C3765 C3764 1.386 . S
C3765 C3769 1.393 . S
C3766 H3758 0.950 . S
C3766 C3764 1.391 . S
C3766 C3767 1.400 . S
C3767 C3766 1.400 . S
C3767 C3768 1.398 . S
C3767 C3773 1.491 . S
C3768 H3759 0.950 . S
C3768 C3767 1.398 . S
C3768 C3769 1.391 . S
C3769 H3757 0.950 . S
C3769 C3765 1.393 . S
C3769 C3768 1.391 . S
C3770 H3760 0.950 . S
C3770 C3771 1.386 . S
C3770 C3772 1.391 . S
C3771 C3770 1.386 . S
C3771 C3775 1.393 . S
C3772 H3761 0.950 . S
C3772 C3770 1.391 . S
C3772 C3773 1.400 . S
C3773 C3767 1.491 . S
C3773 C3772 1.400 . S
C3773 C3774 1.398 . S
C3774 H3762 0.950 . S
C3774 C3773 1.398 . S
C3774 C3775 1.391 . S
C3775 H3763 0.950 . S
C3775 C3771 1.393 . S
C3775 C3774 1.391 . S
H3776 C3784 0.946 . S
H3777 C3789 0.950 . S
H3778 C3786 0.950 . S
H3779 C3788 0.950 . S
H3780 C3790 0.950 . S
H3781 C3792 0.950 . S
H3782 C3794 0.950 . S
H3783 C3795 0.950 . S
C3784 H3776 0.946 . S
C3784 C3785 1.392 1_545 S
C3784 C3786 1.388 . S
C3785 C3784 1.392 1_565 S
C3785 C3789 1.393 . S
C3786 H3778 0.950 . S
C3786 C3784 1.388 . S
C3786 C3787 1.400 1_545 S
C3787 C3786 1.400 1_565 S
C3787 C3788 1.398 . S
C3787 C3793 1.469 1_565 S
C3788 H3779 0.950 . S
C3788 C3787 1.398 . S
C3788 C3789 1.391 . S
C3789 H3777 0.950 . S
C3789 C3785 1.393 . S
C3789 C3788 1.391 . S
C3790 H3780 0.950 . S
C3790 C3791 1.386 1_565 S
C3790 C3792 1.391 . S
C3791 C3790 1.386 1_545 S
C3791 C3795 1.393 . S
C3792 H3781 0.950 . S
C3792 C3790 1.391 . S
C3792 C3793 1.379 1_565 S
C3793 C3787 1.469 1_545 S
C3793 C3792 1.379 1_545 S
C3793 C3794 1.443 . S
C3794 H3782 0.950 . S
C3794 C3793 1.443 . S
C3794 C3795 1.391 . S
C3795 H3783 0.950 . S
C3795 C3791 1.393 . S
C3795 C3794 1.391 . S
H3796 C3804 0.950 . S
H3797 C3809 0.950 . S
H3798 C3806 0.950 . S
H3799 C3808 0.950 . S
H3800 C3810 0.950 . S
H3801 C3812 0.950 . S
H3802 C3814 0.950 . S
H3803 C3815 0.950 . S
C3804 H3796 0.950 . S
C3804 C3805 1.386 . S
C3804 C3806 1.391 . S
C3805 C3804 1.386 . S
C3805 C3809 1.393 1_556 S
C3806 H3798 0.950 . S
C3806 C3804 1.391 . S
C3806 C3807 1.400 . S
C3807 C3806 1.400 . S
C3807 C3808 1.398 1_556 S
C3807 C3813 1.491 . S
C3808 H3799 0.950 . S
C3808 C3807 1.398 1_554 S
C3808 C3809 1.391 . S
C3809 H3797 0.950 . S
C3809 C3805 1.393 1_554 S
C3809 C3808 1.391 . S
C3810 H3800 0.950 . S
C3810 C3811 1.386 . S
C3810 C3812 1.391 . S
C3811 C3810 1.386 . S
C3811 C3815 1.393 1_554 S
C3812 H3801 0.950 . S
C3812 C3810 1.391 . S
C3812 C3813 1.400 1_554 S
C3813 C3807 1.491 . S
C3813 C3812 1.400 1_556 S
C3813 C3814 1.398 . S
C3814 H3802 0.950 . S
C3814 C3813 1.398 . S
C3814 C3815 1.391 . S
C3815 H3803 0.950 . S
C3815 C3811 1.393 1_556 S
C3815 C3814 1.391 . S
H3816 C3824 0.950 . S
H3817 C3829 0.950 . S
H3818 C3826 0.950 . S
H3819 C3828 0.950 . S
H3820 C3830 0.950 . S
H3821 C3832 0.950 . S
H3822 C3834 0.950 . S
H3823 C3835 0.950 . S
C3824 H3816 0.950 . S
C3824 C3825 1.386 . S
C3824 C3826 1.391 . S
C3825 C3824 1.386 . S
C3825 C3829 1.393 . S
C3826 H3818 0.950 . S
C3826 C3824 1.391 . S
C3826 C3827 1.400 . S
C3827 C3826 1.400 . S
C3827 C3828 1.398 . S
C3827 C3833 1.491 . S
C3828 H3819 0.950 . S
C3828 C3827 1.398 . S
C3828 C3829 1.391 . S
C3829 H3817 0.950 . S
C3829 C3825 1.393 . S
C3829 C3828 1.391 . S
C3830 H3820 0.950 . S
C3830 C3831 1.386 . S
C3830 C3832 1.391 . S
C3831 C3830 1.386 . S
C3831 C3835 1.393 . S
C3832 H3821 0.950 . S
C3832 C3830 1.391 . S
C3832 C3833 1.400 . S
C3833 C3827 1.491 . S
C3833 C3832 1.400 . S
C3833 C3834 1.398 . S
C3834 H3822 0.950 . S
C3834 C3833 1.398 . S
C3834 C3835 1.391 . S
C3835 H3823 0.950 . S
C3835 C3831 1.393 . S
C3835 C3834 1.391 . S
H3836 C3844 0.950 . S
H3837 C3849 0.950 . S
H3838 C3846 0.950 . S
H3839 C3848 0.950 . S
H3840 C3850 0.950 . S
H3841 C3852 0.950 . S
H3842 C3854 0.950 . S
H3843 C3855 0.950 . S
C3844 H3836 0.950 . S
C3844 C3845 1.386 . S
C3844 C3846 1.391 . S
C3845 C3844 1.386 . S
C3845 C3849 1.393 . S
C3846 H3838 0.950 . S
C3846 C3844 1.391 . S
C3846 C3847 1.400 . S
C3847 C3846 1.400 . S
C3847 C3848 1.398 . S
C3847 C3853 1.491 . S
C3848 H3839 0.950 . S
C3848 C3847 1.398 . S
C3848 C3849 1.391 . S
C3849 H3837 0.950 . S
C3849 C3845 1.393 . S
C3849 C3848 1.391 . S
C3850 H3840 0.950 . S
C3850 C3851 1.386 . S
C3850 C3852 1.391 1_455 S
C3851 C3850 1.386 . S
C3851 C3855 1.393 . S
C3852 H3841 0.950 . S
C3852 C3850 1.391 1_655 S
C3852 C3853 1.400 . S
C3853 C3847 1.491 . S
C3853 C3852 1.400 . S
C3853 C3854 1.398 . S
C3854 H3842 0.950 . S
C3854 C3853 1.398 . S
C3854 C3855 1.391 1_655 S
C3855 H3843 0.950 . S
C3855 C3851 1.393 . S
C3855 C3854 1.391 1_455 S
H3856 C3864 0.950 . S
H3857 C3869 0.950 . S
H3858 C3866 0.950 . S
H3859 C3868 0.950 . S
H3860 C3870 0.950 . S
H3861 C3872 0.950 . S
H3862 C3874 0.950 . S
H3863 C3875 0.950 . S
C3864 H3856 0.950 . S
C3864 C3865 1.386 . S
C3864 C3866 1.391 . S
C3865 C3864 1.386 . S
C3865 C3869 1.393 . S
C3866 H3858 0.950 . S
C3866 C3864 1.391 . S
C3866 C3867 1.400 . S
C3867 C3866 1.400 . S
C3867 C3868 1.398 . S
C3867 C3873 1.491 . S
C3868 H3859 0.950 . S
C3868 C3867 1.398 . S
C3868 C3869 1.391 . S
C3869 H3857 0.950 . S
C3869 C3865 1.393 . S
C3869 C3868 1.391 . S
C3870 H3860 0.950 . S
C3870 C3871 1.386 . S
C3870 C3872 1.391 . S
C3871 C3870 1.386 . S
C3871 C3875 1.393 . S
C3872 H3861 0.950 . S
C3872 C3870 1.391 . S
C3872 C3873 1.400 . S
C3873 C3867 1.491 . S
C3873 C3872 1.400 . S
C3873 C3874 1.398 . S
C3874 H3862 0.950 . S
C3874 C3873 1.398 . S
C3874 C3875 1.391 . S
C3875 H3863 0.950 . S
C3875 C3871 1.393 . S
C3875 C3874 1.391 . S
H3876 C3884 0.950 . S
H3877 C3889 0.950 . S
H3878 C3886 0.950 . S
H3879 C3888 0.950 . S
H3880 C3890 0.950 . S
H3881 C3892 0.950 . S
H3882 C3894 0.950 . S
H3883 C3895 0.950 . S
C3884 H3876 0.950 . S
C3884 C3885 1.386 . S
C3884 C3886 1.391 . S
C3885 C3884 1.386 . S
C3885 C3889 1.393 . S
C3886 H3878 0.950 . S
C3886 C3884 1.391 . S
C3886 C3887 1.400 . S
C3887 C3886 1.400 . S
C3887 C3888 1.398 . S
C3887 C3893 1.491 . S
C3888 H3879 0.950 . S
C3888 C3887 1.398 . S
C3888 C3889 1.391 . S
C3889 H3877 0.950 . S
C3889 C3885 1.393 . S
C3889 C3888 1.391 . S
C3890 H3880 0.950 . S
C3890 C3891 1.386 . S
C3890 C3892 1.391 . S
C3891 C3890 1.386 . S
C3891 C3895 1.393 . S
C3892 H3881 0.950 . S
C3892 C3890 1.391 . S
C3892 C3893 1.400 . S
C3893 C3887 1.491 . S
C3893 C3892 1.400 . S
C3893 C3894 1.398 . S
C3894 H3882 0.950 . S
C3894 C3893 1.398 . S
C3894 C3895 1.391 . S
C3895 H3883 0.950 . S
C3895 C3891 1.393 . S
C3895 C3894 1.391 . S
H3896 C3904 0.950 . S
H3897 C3909 0.950 . S
H3898 C3906 0.950 . S
H3899 C3908 0.950 . S
H3900 C3910 0.950 . S
H3901 C3912 0.950 . S
H3902 C3914 0.950 . S
H3903 C3915 0.950 . S
C3904 H3896 0.950 . S
C3904 C3905 1.386 . S
C3904 C3906 1.391 . S
C3905 C3904 1.386 . S
C3905 C3909 1.393 . S
C3906 H3898 0.950 . S
C3906 C3904 1.391 . S
C3906 C3907 1.400 . S
C3907 C3906 1.400 . S
C3907 C3908 1.398 . S
C3907 C3913 1.491 . S
C3908 H3899 0.950 . S
C3908 C3907 1.398 . S
C3908 C3909 1.391 . S
C3909 H3897 0.950 . S
C3909 C3905 1.393 . S
C3909 C3908 1.391 . S
C3910 H3900 0.950 . S
C3910 C3911 1.386 . S
C3910 C3912 1.391 . S
C3911 C3910 1.386 . S
C3911 C3915 1.393 . S
C3912 H3901 0.950 . S
C3912 C3910 1.391 . S
C3912 C3913 1.400 . S
C3913 C3907 1.491 . S
C3913 C3912 1.400 . S
C3913 C3914 1.398 . S
C3914 H3902 0.950 . S
C3914 C3913 1.398 . S
C3914 C3915 1.391 . S
C3915 H3903 0.950 . S
C3915 C3911 1.393 . S
C3915 C3914 1.391 . S
H3916 C3924 0.950 . S
H3917 C3929 0.950 . S
H3918 C3926 0.950 . S
H3919 C3928 0.950 . S
H3920 C3930 0.950 . S
H3921 C3932 0.950 . S
H3922 C3934 0.950 . S
H3923 C3935 0.950 . S
C3924 H3916 0.950 . S
C3924 C3925 1.386 . S
C3924 C3926 1.391 . S
C3925 C3924 1.386 . S
C3925 C3929 1.393 . S
C3926 H3918 0.950 . S
C3926 C3924 1.391 . S
C3926 C3927 1.400 . S
C3927 C3926 1.400 . S
C3927 C3928 1.398 . S
C3927 C3933 1.491 . S
C3928 H3919 0.950 . S
C3928 C3927 1.398 . S
C3928 C3929 1.391 . S
C3929 H3917 0.950 . S
C3929 C3925 1.393 . S
C3929 C3928 1.391 . S
C3930 H3920 0.950 . S
C3930 C3931 1.386 . S
C3930 C3932 1.391 . S
C3931 C3930 1.386 . S
C3931 C3935 1.393 . S
C3932 H3921 0.950 . S
C3932 C3930 1.391 . S
C3932 C3933 1.400 . S
C3933 C3927 1.491 . S
C3933 C3932 1.400 . S
C3933 C3934 1.398 . S
C3934 H3922 0.950 . S
C3934 C3933 1.398 . S
C3934 C3935 1.391 . S
C3935 H3923 0.950 . S
C3935 C3931 1.393 . S
C3935 C3934 1.391 . S
H3936 C3944 0.950 . S
H3937 C3949 0.950 . S
H3938 C3946 0.950 . S
H3939 C3948 0.950 . S
H3940 C3950 0.950 . S
H3941 C3952 0.950 . S
H3942 C3954 0.950 . S
H3943 C3955 0.950 . S
C3944 H3936 0.950 . S
C3944 C3945 1.386 . S
C3944 C3946 1.391 . S
C3945 C3944 1.386 . S
C3945 C3949 1.393 . S
C3946 H3938 0.950 . S
C3946 C3944 1.391 . S
C3946 C3947 1.400 . S
C3947 C3946 1.400 . S
C3947 C3948 1.398 . S
C3947 C3953 1.491 . S
C3948 H3939 0.950 . S
C3948 C3947 1.398 . S
C3948 C3949 1.391 . S
C3949 H3937 0.950 . S
C3949 C3945 1.393 . S
C3949 C3948 1.391 . S
C3950 H3940 0.950 . S
C3950 C3951 1.386 . S
C3950 C3952 1.391 . S
C3951 C3950 1.386 . S
C3951 C3955 1.393 . S
C3952 H3941 0.950 . S
C3952 C3950 1.391 . S
C3952 C3953 1.400 . S
C3953 C3947 1.491 . S
C3953 C3952 1.400 . S
C3953 C3954 1.398 . S
C3954 H3942 0.950 . S
C3954 C3953 1.398 . S
C3954 C3955 1.391 . S
C3955 H3943 0.950 . S
C3955 C3951 1.393 . S
C3955 C3954 1.391 . S
H3956 C3964 0.950 . S
H3957 C3969 0.950 . S
H3958 C3966 0.950 . S
H3959 C3968 0.950 . S
H3960 C3970 0.950 . S
H3961 C3972 0.950 . S
H3962 C3974 0.950 . S
H3963 C3975 0.950 . S
C3964 H3956 0.950 . S
C3964 C3965 1.386 . S
C3964 C3966 1.391 . S
C3965 C3964 1.386 . S
C3965 C3969 1.393 . S
C3966 H3958 0.950 . S
C3966 C3964 1.391 . S
C3966 C3967 1.400 . S
C3967 C3966 1.400 . S
C3967 C3968 1.398 . S
C3967 C3973 1.491 . S
C3968 H3959 0.950 . S
C3968 C3967 1.398 . S
C3968 C3969 1.391 . S
C3969 H3957 0.950 . S
C3969 C3965 1.393 . S
C3969 C3968 1.391 . S
C3970 H3960 0.950 . S
C3970 C3971 1.386 . S
C3970 C3972 1.391 . S
C3971 C3970 1.386 . S
C3971 C3975 1.393 . S
C3972 H3961 0.950 . S
C3972 C3970 1.391 . S
C3972 C3973 1.400 . S
C3973 C3967 1.491 . S
C3973 C3972 1.400 . S
C3973 C3974 1.398 . S
C3974 H3962 0.950 . S
C3974 C3973 1.398 . S
C3974 C3975 1.391 . S
C3975 H3963 0.950 . S
C3975 C3971 1.393 . S
C3975 C3974 1.391 . S
H3976 C3984 0.950 . S
H3977 C3989 0.950 . S
H3978 C3986 0.950 . S
H3979 C3988 0.950 . S
H3980 C3990 0.950 . S
H3981 C3992 0.950 . S
H3982 C3994 0.950 . S
H3983 C3995 0.950 . S
C3984 H3976 0.950 . S
C3984 C3985 1.386 . S
C3984 C3986 1.391 . S
C3985 C3984 1.386 . S
C3985 C3989 1.393 . S
C3986 H3978 0.950 . S
C3986 C3984 1.391 . S
C3986 C3987 1.400 . S
C3987 C3986 1.400 . S
C3987 C3988 1.398 . S
C3987 C3993 1.491 . S
C3988 H3979 0.950 . S
C3988 C3987 1.398 . S
C3988 C3989 1.391 . S
C3989 H3977 0.950 . S
C3989 C3985 1.393 . S
C3989 C3988 1.391 . S
C3990 H3980 0.950 . S
C3990 C3991 1.386 . S
C3990 C3992 1.391 . S
C3991 C3990 1.386 . S
C3991 C3995 1.393 . S
C3992 H3981 0.950 . S
C3992 C3990 1.391 . S
C3992 C3993 1.400 . S
C3993 C3987 1.491 . S
C3993 C3992 1.400 . S
C3993 C3994 1.398 . S
C3994 H3982 0.950 . S
C3994 C3993 1.398 . S
C3994 C3995 1.391 . S
C3995 H3983 0.950 . S
C3995 C3991 1.393 . S
C3995 C3994 1.391 . S
H3996 C4004 0.950 . S
H3997 C4009 0.950 . S
H3998 C4006 0.950 . S
H3999 C4008 0.950 . S
H4000 C4010 0.950 . S
H4001 C4012 0.950 . S
H4002 C4014 0.950 . S
H4003 C4015 0.950 . S
C4004 H3996 0.950 . S
C4004 C4005 1.386 . S
C4004 C4006 1.391 . S
C4005 C4004 1.386 . S
C4005 C4009 1.393 . S
C4006 H3998 0.950 . S
C4006 C4004 1.391 . S
C4006 C4007 1.400 . S
C4007 C4006 1.400 . S
C4007 C4008 1.398 . S
C4007 C4013 1.491 . S
C4008 H3999 0.950 . S
C4008 C4007 1.398 . S
C4008 C4009 1.391 . S
C4009 H3997 0.950 . S
C4009 C4005 1.393 . S
C4009 C4008 1.391 . S
C4010 H4000 0.950 . S
C4010 C4011 1.386 . S
C4010 C4012 1.391 . S
C4011 C4010 1.386 . S
C4011 C4015 1.393 . S
C4012 H4001 0.950 . S
C4012 C4010 1.391 . S
C4012 C4013 1.400 . S
C4013 C4007 1.491 . S
C4013 C4012 1.400 . S
C4013 C4014 1.398 . S
C4014 H4002 0.950 . S
C4014 C4013 1.398 . S
C4014 C4015 1.391 . S
C4015 H4003 0.950 . S
C4015 C4011 1.393 . S
C4015 C4014 1.391 . S
H4016 C4024 0.950 . S
H4017 C4029 0.950 . S
H4018 C4026 0.950 . S
H4019 C4028 0.950 . S
H4020 C4030 0.950 . S
H4021 C4032 0.950 . S
H4022 C4034 0.950 . S
H4023 C4035 0.950 . S
C4024 H4016 0.950 . S
C4024 C4025 1.386 . S
C4024 C4026 1.391 . S
C4025 C4024 1.386 . S
C4025 C4029 1.393 . S
C4026 H4018 0.950 . S
C4026 C4024 1.391 . S
C4026 C4027 1.400 . S
C4027 C4026 1.400 . S
C4027 C4028 1.398 . S
C4027 C4033 1.491 . S
C4028 H4019 0.950 . S
C4028 C4027 1.398 . S
C4028 C4029 1.391 . S
C4029 H4017 0.950 . S
C4029 C4025 1.393 . S
C4029 C4028 1.391 . S
C4030 H4020 0.950 . S
C4030 C4031 1.386 . S
C4030 C4032 1.391 . S
C4031 C4030 1.386 . S
C4031 C4035 1.393 . S
C4032 H4021 0.950 . S
C4032 C4030 1.391 . S
C4032 C4033 1.400 . S
C4033 C4027 1.491 . S
C4033 C4032 1.400 . S
C4033 C4034 1.398 . S
C4034 H4022 0.950 . S
C4034 C4033 1.398 . S
C4034 C4035 1.391 . S
C4035 H4023 0.950 . S
C4035 C4031 1.393 . S
C4035 C4034 1.391 . S
H4036 C4044 0.950 . S
H4037 C4049 0.950 . S
H4038 C4046 0.950 . S
H4039 C4048 0.950 . S
H4040 C4050 0.950 . S
H4041 C4052 0.950 . S
H4042 C4054 0.950 . S
H4043 C4055 0.950 . S
C4044 H4036 0.950 . S
C4044 C4045 1.386 . S
C4044 C4046 1.391 . S
C4045 C4044 1.386 . S
C4045 C4049 1.393 . S
C4046 H4038 0.950 . S
C4046 C4044 1.391 . S
C4046 C4047 1.400 . S
C4047 C4046 1.400 . S
C4047 C4048 1.398 . S
C4047 C4053 1.491 . S
C4048 H4039 0.950 . S
C4048 C4047 1.398 . S
C4048 C4049 1.391 . S
C4049 H4037 0.950 . S
C4049 C4045 1.393 . S
C4049 C4048 1.391 . S
C4050 H4040 0.950 . S
C4050 C4051 1.386 . S
C4050 C4052 1.391 . S
C4051 C4050 1.386 . S
C4051 C4055 1.393 . S
C4052 H4041 0.950 . S
C4052 C4050 1.391 . S
C4052 C4053 1.400 . S
C4053 C4047 1.491 . S
C4053 C4052 1.400 . S
C4053 C4054 1.398 . S
C4054 H4042 0.950 . S
C4054 C4053 1.398 . S
C4054 C4055 1.391 . S
C4055 H4043 0.950 . S
C4055 C4051 1.393 . S
C4055 C4054 1.391 . S
H4056 C4064 0.950 . S
H4057 C4069 0.950 . S
H4058 C4066 0.950 . S
H4059 C4068 0.950 . S
H4060 C4070 0.950 . S
H4061 C4072 0.950 . S
H4062 C4074 0.950 . S
H4063 C4075 0.950 . S
C4064 H4056 0.950 . S
C4064 C4065 1.386 . S
C4064 C4066 1.391 . S
C4065 C4064 1.386 . S
C4065 C4069 1.393 . S
C4066 H4058 0.950 . S
C4066 C4064 1.391 . S
C4066 C4067 1.400 . S
C4067 C4066 1.400 . S
C4067 C4068 1.398 . S
C4067 C4073 1.491 . S
C4068 H4059 0.950 . S
C4068 C4067 1.398 . S
C4068 C4069 1.391 . S
C4069 H4057 0.950 . S
C4069 C4065 1.393 . S
C4069 C4068 1.391 . S
C4070 H4060 0.950 . S
C4070 C4071 1.386 1_545 S
C4070 C4072 1.391 1_545 S
C4071 C4070 1.386 1_565 S
C4071 C4075 1.393 . S
C4072 H4061 0.950 . S
C4072 C4070 1.391 1_565 S
C4072 C4073 1.400 . S
C4073 C4067 1.491 . S
C4073 C4072 1.400 . S
C4073 C4074 1.398 . S
C4074 H4062 0.950 . S
C4074 C4073 1.398 . S
C4074 C4075 1.391 . S
C4075 H4063 0.950 . S
C4075 C4071 1.393 . S
C4075 C4074 1.391 . S
H4076 C4084 0.950 . S
H4077 C4089 0.950 . S
H4078 C4086 0.950 . S
H4079 C4088 0.950 . S
H4080 C4090 0.950 . S
H4081 C4092 0.950 . S
H4082 C4094 0.950 . S
H4083 C4095 0.950 . S
C4084 H4076 0.950 . S
C4084 C4085 1.386 . S
C4084 C4086 1.391 . S
C4085 C4084 1.386 . S
C4085 C4089 1.393 . S
C4086 H4078 0.950 . S
C4086 C4084 1.391 . S
C4086 C4087 1.400 . S
C4087 C4086 1.400 . S
C4087 C4088 1.398 . S
C4087 C4093 1.491 . S
C4088 H4079 0.950 . S
C4088 C4087 1.398 . S
C4088 C4089 1.391 . S
C4089 H4077 0.950 . S
C4089 C4085 1.393 . S
C4089 C4088 1.391 . S
C4090 H4080 0.950 . S
C4090 C4091 1.386 . S
C4090 C4092 1.391 . S
C4091 C4090 1.386 . S
C4091 C4095 1.393 . S
C4092 H4081 0.950 . S
C4092 C4090 1.391 . S
C4092 C4093 1.400 . S
C4093 C4087 1.491 . S
C4093 C4092 1.400 . S
C4093 C4094 1.398 . S
C4094 H4082 0.950 . S
C4094 C4093 1.398 . S
C4094 C4095 1.391 . S
C4095 H4083 0.950 . S
C4095 C4091 1.393 . S
C4095 C4094 1.391 . S
H4096 C4104 0.950 . S
H4097 C4109 0.950 . S
H4098 C4106 0.950 . S
H4099 C4108 0.950 . S
H4100 C4110 0.950 1_565 S
H4101 C4112 0.956 . S
H4102 C4114 0.950 . S
H4103 C4115 0.950 . S
C4104 H4096 0.950 . S
C4104 C4105 1.386 . S
C4104 C4106 1.391 . S
C4105 C4104 1.386 . S
C4105 C4109 1.393 1_545 S
C4106 H4098 0.950 . S
C4106 C4104 1.391 . S
C4106 C4107 1.400 . S
C4107 C4106 1.400 . S
C4107 C4108 1.398 1_545 S
C4107 C4113 1.491 . S
C4108 H4099 0.950 . S
C4108 C4107 1.398 1_565 S
C4108 C4109 1.391 . S
C4109 H4097 0.950 . S
C4109 C4105 1.393 1_565 S
C4109 C4108 1.391 . S
C4110 H4100 0.950 1_545 S
C4110 C4111 1.386 . S
C4110 C4112 1.391 1_545 S
C4111 C4110 1.386 . S
C4111 C4115 1.393 . S
C4112 H4101 0.956 . S
C4112 C4110 1.391 1_565 S
C4112 C4113 1.395 1_565 S
C4113 C4107 1.491 . S
C4113 C4112 1.395 1_545 S
C4113 C4114 1.398 . S
C4114 H4102 0.950 . S
C4114 C4113 1.398 . S
C4114 C4115 1.391 . S
C4115 H4103 0.950 . S
C4115 C4111 1.393 . S
C4115 C4114 1.391 . S
H4116 C4124 0.950 . S
H4117 C4129 0.950 . S
H4118 C4126 0.950 . S
H4119 C4128 0.950 . S
H4120 C4130 0.950 . S
H4121 C4132 0.950 . S
H4122 C4134 0.950 . S
H4123 C4135 0.950 . S
C4124 H4116 0.950 . S
C4124 C4125 1.386 . S
C4124 C4126 1.391 . S
C4125 C4124 1.386 . S
C4125 C4129 1.393 . S
C4126 H4118 0.950 . S
C4126 C4124 1.391 . S
C4126 C4127 1.400 . S
C4127 C4126 1.400 . S
C4127 C4128 1.398 . S
C4127 C4133 1.491 . S
C4128 H4119 0.950 . S
C4128 C4127 1.398 . S
C4128 C4129 1.391 . S
C4129 H4117 0.950 . S
C4129 C4125 1.393 . S
C4129 C4128 1.391 . S
C4130 H4120 0.950 . S
C4130 C4131 1.386 . S
C4130 C4132 1.391 . S
C4131 C4130 1.386 . S
C4131 C4135 1.393 . S
C4132 H4121 0.950 . S
C4132 C4130 1.391 . S
C4132 C4133 1.400 . S
C4133 C4127 1.491 . S
C4133 C4132 1.400 . S
C4133 C4134 1.398 . S
C4134 H4122 0.950 . S
C4134 C4133 1.398 . S
C4134 C4135 1.391 . S
C4135 H4123 0.950 . S
C4135 C4131 1.393 . S
C4135 C4134 1.391 . S
H4136 C4144 0.950 . S
H4137 C4149 0.950 . S
H4138 C4146 0.950 . S
H4139 C4148 0.950 . S
H4140 C4150 0.950 . S
H4141 C4152 0.950 . S
H4142 C4154 0.950 . S
H4143 C4155 0.950 . S
C4144 H4136 0.950 . S
C4144 C4145 1.386 . S
C4144 C4146 1.391 . S
C4145 C4144 1.386 . S
C4145 C4149 1.393 . S
C4146 H4138 0.950 . S
C4146 C4144 1.391 . S
C4146 C4147 1.400 . S
C4147 C4146 1.400 . S
C4147 C4148 1.398 . S
C4147 C4153 1.491 . S
C4148 H4139 0.950 . S
C4148 C4147 1.398 . S
C4148 C4149 1.391 . S
C4149 H4137 0.950 . S
C4149 C4145 1.393 . S
C4149 C4148 1.391 . S
C4150 H4140 0.950 . S
C4150 C4151 1.386 . S
C4150 C4152 1.391 . S
C4151 C4150 1.386 . S
C4151 C4155 1.393 . S
C4152 H4141 0.950 . S
C4152 C4150 1.391 . S
C4152 C4153 1.400 . S
C4153 C4147 1.491 . S
C4153 C4152 1.400 . S
C4153 C4154 1.398 . S
C4154 H4142 0.950 . S
C4154 C4153 1.398 . S
C4154 C4155 1.391 . S
C4155 H4143 0.950 . S
C4155 C4151 1.393 . S
C4155 C4154 1.391 . S
H4156 C4164 0.950 . S
H4157 C4169 0.950 . S
H4158 C4166 0.950 . S
H4159 C4168 0.950 . S
H4160 C4170 0.950 . S
H4161 C4172 0.950 . S
H4162 C4174 0.950 . S
H4163 C4175 0.950 . S
C4164 H4156 0.950 . S
C4164 C4165 1.386 . S
C4164 C4166 1.391 . S
C4165 C4164 1.386 . S
C4165 C4169 1.393 . S
C4166 H4158 0.950 . S
C4166 C4164 1.391 . S
C4166 C4167 1.400 . S
C4167 C4166 1.400 . S
C4167 C4168 1.398 . S
C4167 C4173 1.491 . S
C4168 H4159 0.950 . S
C4168 C4167 1.398 . S
C4168 C4169 1.391 . S
C4169 H4157 0.950 . S
C4169 C4165 1.393 . S
C4169 C4168 1.391 . S
C4170 H4160 0.950 . S
C4170 C4171 1.386 . S
C4170 C4172 1.391 . S
C4171 C4170 1.386 . S
C4171 C4175 1.393 . S
C4172 H4161 0.950 . S
C4172 C4170 1.391 . S
C4172 C4173 1.400 . S
C4173 C4167 1.491 . S
C4173 C4172 1.400 . S
C4173 C4174 1.398 . S
C4174 H4162 0.950 . S
C4174 C4173 1.398 . S
C4174 C4175 1.391 . S
C4175 H4163 0.950 . S
C4175 C4171 1.393 . S
C4175 C4174 1.391 . S
H4176 C4184 0.950 . S
H4177 C4189 0.950 . S
H4178 C4186 0.950 . S
H4179 C4188 0.950 . S
H4180 C4190 0.950 . S
H4181 C4192 0.950 . S
H4182 C4194 0.950 1_565 S
H4183 C4195 0.950 . S
C4184 H4176 0.950 . S
C4184 C4185 1.386 . S
C4184 C4186 1.391 . S
C4185 C4184 1.386 . S
C4185 C4189 1.393 1_565 S
C4186 H4178 0.950 . S
C4186 C4184 1.391 . S
C4186 C4187 1.400 1_565 S
C4187 C4186 1.400 1_545 S
C4187 C4188 1.398 . S
C4187 C4193 1.491 . S
C4188 H4179 0.950 . S
C4188 C4187 1.398 . S
C4188 C4189 1.391 . S
C4189 H4177 0.950 . S
C4189 C4185 1.393 1_545 S
C4189 C4188 1.391 . S
C4190 H4180 0.950 . S
C4190 C4191 1.386 . S
C4190 C4192 1.391 . S
C4191 C4190 1.386 . S
C4191 C4195 1.393 . S
C4192 H4181 0.950 . S
C4192 C4190 1.391 . S
C4192 C4193 1.400 . S
C4193 C4187 1.491 . S
C4193 C4192 1.400 . S
C4193 C4194 1.398 . S
C4194 H4182 0.950 1_545 S
C4194 C4193 1.398 . S
C4194 C4195 1.391 . S
C4195 H4183 0.950 . S
C4195 C4191 1.393 . S
C4195 C4194 1.391 . S
H4196 C4204 0.950 . S
H4197 C4209 0.950 . S
H4198 C4206 0.950 . S
H4199 C4208 0.950 . S
H4200 C4210 0.950 . S
H4201 C4212 0.950 . S
H4202 C4214 0.950 . S
H4203 C4215 0.950 . S
C4204 H4196 0.950 . S
C4204 C4205 1.386 . S
C4204 C4206 1.391 . S
C4205 C4204 1.386 . S
C4205 C4209 1.393 . S
C4206 H4198 0.950 . S
C4206 C4204 1.391 . S
C4206 C4207 1.400 . S
C4207 C4206 1.400 . S
C4207 C4208 1.398 . S
C4207 C4213 1.491 . S
C4208 H4199 0.950 . S
C4208 C4207 1.398 . S
C4208 C4209 1.391 . S
C4209 H4197 0.950 . S
C4209 C4205 1.393 . S
C4209 C4208 1.391 . S
C4210 H4200 0.950 . S
C4210 C4211 1.386 . S
C4210 C4212 1.391 . S
C4211 C4210 1.386 . S
C4211 C4215 1.393 . S
C4212 H4201 0.950 . S
C4212 C4210 1.391 . S
C4212 C4213 1.400 . S
C4213 C4207 1.491 . S
C4213 C4212 1.400 . S
C4213 C4214 1.398 . S
C4214 H4202 0.950 . S
C4214 C4213 1.398 . S
C4214 C4215 1.391 . S
C4215 H4203 0.950 . S
C4215 C4211 1.393 . S
C4215 C4214 1.391 . S
H4216 C4224 0.950 . S
H4217 C4229 0.950 1_565 S
H4218 C4226 0.950 . S
H4219 C4228 0.950 1_565 S
H4220 C4230 0.950 1_565 S
H4221 C4232 0.950 1_565 S
H4222 C4234 0.950 . S
H4223 C4235 0.950 . S
C4224 H4216 0.950 . S
C4224 C4225 1.386 . S
C4224 C4226 1.391 . S
C4225 C4224 1.386 . S
C4225 C4229 1.393 . S
C4226 H4218 0.950 . S
C4226 C4224 1.391 . S
C4226 C4227 1.400 . S
C4227 C4226 1.400 . S
C4227 C4228 1.398 . S
C4227 C4233 1.491 . S
C4228 H4219 0.950 1_545 S
C4228 C4227 1.398 . S
C4228 C4229 1.391 . S
C4229 H4217 0.950 1_545 S
C4229 C4225 1.393 . S
C4229 C4228 1.391 . S
C4230 H4220 0.950 1_545 S
C4230 C4231 1.386 . S
C4230 C4232 1.391 . S
C4231 C4230 1.386 . S
C4231 C4235 1.393 . S
C4232 H4221 0.950 1_545 S
C4232 C4230 1.391 . S
C4232 C4233 1.400 . S
C4233 C4227 1.491 . S
C4233 C4232 1.400 . S
C4233 C4234 1.398 . S
C4234 H4222 0.950 . S
C4234 C4233 1.398 . S
C4234 C4235 1.391 . S
C4235 H4223 0.950 . S
C4235 C4231 1.393 . S
C4235 C4234 1.391 . S
H4236 C4244 0.950 . S
H4237 C4249 0.950 . S
H4238 C4246 0.950 . S
H4239 C4248 0.950 . S
H4240 C4250 0.950 . S
H4241 C4252 0.950 . S
H4242 C4254 0.950 . S
H4243 C4255 0.950 . S
C4244 H4236 0.950 . S
C4244 C4245 1.386 . S
C4244 C4246 1.391 . S
C4245 C4244 1.386 . S
C4245 C4249 1.393 . S
C4246 H4238 0.950 . S
C4246 C4244 1.391 . S
C4246 C4247 1.400 . S
C4247 C4246 1.400 . S
C4247 C4248 1.398 . S
C4247 C4253 1.491 . S
C4248 H4239 0.950 . S
C4248 C4247 1.398 . S
C4248 C4249 1.391 . S
C4249 H4237 0.950 . S
C4249 C4245 1.393 . S
C4249 C4248 1.391 . S
C4250 H4240 0.950 . S
C4250 C4251 1.386 . S
C4250 C4252 1.391 . S
C4251 C4250 1.386 . S
C4251 C4255 1.393 . S
C4252 H4241 0.950 . S
C4252 C4250 1.391 . S
C4252 C4253 1.400 . S
C4253 C4247 1.491 . S
C4253 C4252 1.400 . S
C4253 C4254 1.398 . S
C4254 H4242 0.950 . S
C4254 C4253 1.398 . S
C4254 C4255 1.391 . S
C4255 H4243 0.950 . S
C4255 C4251 1.393 . S
C4255 C4254 1.391 . S
H4256 C4264 0.950 . S
H4257 C4269 0.950 . S
H4258 C4266 0.950 . S
H4259 C4268 0.950 . S
H4260 C4270 0.950 . S
H4261 C4272 0.950 . S
H4262 C4274 0.950 . S
H4263 C4275 0.950 . S
C4264 H4256 0.950 . S
C4264 C4265 1.386 . S
C4264 C4266 1.391 . S
C4265 C4264 1.386 . S
C4265 C4269 1.393 . S
C4266 H4258 0.950 . S
C4266 C4264 1.391 . S
C4266 C4267 1.400 . S
C4267 C4266 1.400 . S
C4267 C4268 1.398 . S
C4267 C4273 1.491 . S
C4268 H4259 0.950 . S
C4268 C4267 1.398 . S
C4268 C4269 1.391 . S
C4269 H4257 0.950 . S
C4269 C4265 1.393 . S
C4269 C4268 1.391 . S
C4270 H4260 0.950 . S
C4270 C4271 1.386 . S
C4270 C4272 1.391 . S
C4271 C4270 1.386 . S
C4271 C4275 1.393 . S
C4272 H4261 0.950 . S
C4272 C4270 1.391 . S
C4272 C4273 1.400 . S
C4273 C4267 1.491 . S
C4273 C4272 1.400 . S
C4273 C4274 1.398 . S
C4274 H4262 0.950 . S
C4274 C4273 1.398 . S
C4274 C4275 1.391 . S
C4275 H4263 0.950 . S
C4275 C4271 1.393 . S
C4275 C4274 1.391 . S
H4276 C4284 0.950 . S
H4277 C4289 0.950 . S
H4278 C4286 0.950 . S
H4279 C4288 0.950 . S
H4280 C4290 0.950 . S
H4281 C4292 0.950 . S
H4282 C4294 0.950 . S
H4283 C4295 0.950 . S
C4284 H4276 0.950 . S
C4284 C4285 1.386 . S
C4284 C4286 1.391 . S
C4285 C4284 1.386 . S
C4285 C4289 1.393 . S
C4286 H4278 0.950 . S
C4286 C4284 1.391 . S
C4286 C4287 1.400 . S
C4287 C4286 1.400 . S
C4287 C4288 1.398 . S
C4287 C4293 1.491 . S
C4288 H4279 0.950 . S
C4288 C4287 1.398 . S
C4288 C4289 1.391 . S
C4289 H4277 0.950 . S
C4289 C4285 1.393 . S
C4289 C4288 1.391 . S
C4290 H4280 0.950 . S
C4290 C4291 1.386 . S
C4290 C4292 1.391 . S
C4291 C4290 1.386 . S
C4291 C4295 1.393 . S
C4292 H4281 0.950 . S
C4292 C4290 1.391 . S
C4292 C4293 1.400 . S
C4293 C4287 1.491 . S
C4293 C4292 1.400 . S
C4293 C4294 1.398 . S
C4294 H4282 0.950 . S
C4294 C4293 1.398 . S
C4294 C4295 1.391 . S
C4295 H4283 0.950 . S
C4295 C4291 1.393 . S
C4295 C4294 1.391 . S
H4296 C4304 0.950 . S
H4297 C4309 0.950 . S
H4298 C4306 0.950 . S
H4299 C4308 0.950 . S
H4300 C4310 0.950 . S
H4301 C4312 0.950 . S
H4302 C4314 0.950 . S
H4303 C4315 0.950 . S
C4304 H4296 0.950 . S
C4304 C4305 1.386 . S
C4304 C4306 1.391 . S
C4305 C4304 1.386 . S
C4305 C4309 1.393 . S
C4306 H4298 0.950 . S
C4306 C4304 1.391 . S
C4306 C4307 1.400 . S
C4307 C4306 1.400 . S
C4307 C4308 1.398 . S
C4307 C4313 1.491 . S
C4308 H4299 0.950 . S
C4308 C4307 1.398 . S
C4308 C4309 1.391 . S
C4309 H4297 0.950 . S
C4309 C4305 1.393 . S
C4309 C4308 1.391 . S
C4310 H4300 0.950 . S
C4310 C4311 1.386 . S
C4310 C4312 1.391 . S
C4311 C4310 1.386 . S
C4311 C4315 1.393 . S
C4312 H4301 0.950 . S
C4312 C4310 1.391 . S
C4312 C4313 1.400 . S
C4313 C4307 1.491 . S
C4313 C4312 1.400 . S
C4313 C4314 1.398 . S
C4314 H4302 0.950 . S
C4314 C4313 1.398 . S
C4314 C4315 1.391 . S
C4315 H4303 0.950 . S
C4315 C4311 1.393 . S
C4315 C4314 1.391 . S
H4316 C4324 0.950 . S
H4317 C4329 0.950 . S
H4318 C4326 0.950 . S
H4319 C4328 0.950 . S
H4320 C4330 0.950 . S
H4321 C4332 0.950 . S
H4322 C4334 0.950 . S
H4323 C4335 0.950 . S
C4324 H4316 0.950 . S
C4324 C4325 1.386 . S
C4324 C4326 1.391 . S
C4325 C4324 1.386 . S
C4325 C4329 1.393 . S
C4326 H4318 0.950 . S
C4326 C4324 1.391 . S
C4326 C4327 1.400 . S
C4327 C4326 1.400 . S
C4327 C4328 1.398 . S
C4327 C4333 1.491 . S
C4328 H4319 0.950 . S
C4328 C4327 1.398 . S
C4328 C4329 1.391 . S
C4329 H4317 0.950 . S
C4329 C4325 1.393 . S
C4329 C4328 1.391 . S
C4330 H4320 0.950 . S
C4330 C4331 1.386 . S
C4330 C4332 1.391 . S
C4331 C4330 1.386 . S
C4331 C4335 1.393 . S
C4332 H4321 0.950 . S
C4332 C4330 1.391 . S
C4332 C4333 1.400 . S
C4333 C4327 1.491 . S
C4333 C4332 1.400 . S
C4333 C4334 1.398 . S
C4334 H4322 0.950 . S
C4334 C4333 1.398 . S
C4334 C4335 1.391 . S
C4335 H4323 0.950 . S
C4335 C4331 1.393 . S
C4335 C4334 1.391 . S
H4336 C4344 0.950 . S
H4337 C4349 0.950 . S
H4338 C4346 0.950 . S
H4339 C4348 0.950 . S
H4340 C4350 0.950 . S
H4341 C4352 0.950 . S
H4342 C4354 0.950 . S
H4343 C4355 0.950 . S
C4344 H4336 0.950 . S
C4344 C4345 1.386 . S
C4344 C4346 1.391 . S
C4345 C4344 1.386 . S
C4345 C4349 1.393 . S
C4346 H4338 0.950 . S
C4346 C4344 1.391 . S
C4346 C4347 1.400 . S
C4347 C4346 1.400 . S
C4347 C4348 1.398 . S
C4347 C4353 1.491 . S
C4348 H4339 0.950 . S
C4348 C4347 1.398 . S
C4348 C4349 1.391 . S
C4349 H4337 0.950 . S
C4349 C4345 1.393 . S
C4349 C4348 1.391 . S
C4350 H4340 0.950 . S
C4350 C4351 1.386 . S
C4350 C4352 1.391 . S
C4351 C4350 1.386 . S
C4351 C4355 1.393 . S
C4352 H4341 0.950 . S
C4352 C4350 1.391 . S
C4352 C4353 1.400 . S
C4353 C4347 1.491 . S
C4353 C4352 1.400 . S
C4353 C4354 1.398 . S
C4354 H4342 0.950 . S
C4354 C4353 1.398 . S
C4354 C4355 1.391 . S
C4355 H4343 0.950 . S
C4355 C4351 1.393 . S
C4355 C4354 1.391 . S
H4356 C4364 0.950 . S
H4357 C4369 0.950 . S
H4358 C4366 0.950 . S
H4359 C4368 0.950 . S
H4360 C4370 0.950 . S
H4361 C4372 0.950 . S
H4362 C4374 0.950 . S
H4363 C4375 0.950 . S
C4364 H4356 0.950 . S
C4364 C4365 1.386 . S
C4364 C4366 1.391 . S
C4365 C4364 1.386 . S
C4365 C4369 1.393 . S
C4366 H4358 0.950 . S
C4366 C4364 1.391 . S
C4366 C4367 1.400 . S
C4367 C4366 1.400 . S
C4367 C4368 1.398 . S
C4367 C4373 1.491 . S
C4368 H4359 0.950 . S
C4368 C4367 1.398 . S
C4368 C4369 1.391 . S
C4369 H4357 0.950 . S
C4369 C4365 1.393 . S
C4369 C4368 1.391 . S
C4370 H4360 0.950 . S
C4370 C4371 1.386 . S
C4370 C4372 1.391 . S
C4371 C4370 1.386 . S
C4371 C4375 1.393 . S
C4372 H4361 0.950 . S
C4372 C4370 1.391 . S
C4372 C4373 1.400 . S
C4373 C4367 1.491 . S
C4373 C4372 1.400 . S
C4373 C4374 1.398 . S
C4374 H4362 0.950 . S
C4374 C4373 1.398 . S
C4374 C4375 1.391 . S
C4375 H4363 0.950 . S
C4375 C4371 1.393 . S
C4375 C4374 1.391 . S
H4376 C4384 0.950 . S
H4377 C4389 0.950 . S
H4378 C4386 0.950 . S
H4379 C4388 0.950 . S
H4380 C4390 0.950 . S
H4381 C4392 0.950 . S
H4382 C4394 0.950 . S
H4383 C4395 0.950 . S
C4384 H4376 0.950 . S
C4384 C4385 1.386 . S
C4384 C4386 1.391 . S
C4385 C4384 1.386 . S
C4385 C4389 1.393 . S
C4386 H4378 0.950 . S
C4386 C4384 1.391 . S
C4386 C4387 1.400 . S
C4387 C4386 1.400 . S
C4387 C4388 1.398 . S
C4387 C4393 1.491 . S
C4388 H4379 0.950 . S
C4388 C4387 1.398 . S
C4388 C4389 1.391 . S
C4389 H4377 0.950 . S
C4389 C4385 1.393 . S
C4389 C4388 1.391 . S
C4390 H4380 0.950 . S
C4390 C4391 1.386 . S
C4390 C4392 1.391 . S
C4391 C4390 1.386 . S
C4391 C4395 1.393 . S
C4392 H4381 0.950 . S
C4392 C4390 1.391 . S
C4392 C4393 1.400 . S
C4393 C4387 1.491 . S
C4393 C4392 1.400 . S
C4393 C4394 1.398 . S
C4394 H4382 0.950 . S
C4394 C4393 1.398 . S
C4394 C4395 1.391 . S
C4395 H4383 0.950 . S
C4395 C4391 1.393 . S
C4395 C4394 1.391 . S
H4396 C4404 0.950 . S
H4397 C4409 0.950 . S
H4398 C4406 0.950 . S
H4399 C4408 0.950 . S
H4400 C4410 0.950 . S
H4401 C4412 0.950 . S
H4402 C4414 0.950 . S
H4403 C4415 0.950 . S
C4404 H4396 0.950 . S
C4404 C4405 1.386 . S
C4404 C4406 1.391 . S
C4405 C4404 1.386 . S
C4405 C4409 1.393 . S
C4406 H4398 0.950 . S
C4406 C4404 1.391 . S
C4406 C4407 1.400 . S
C4407 C4406 1.400 . S
C4407 C4408 1.398 . S
C4407 C4413 1.491 . S
C4408 H4399 0.950 . S
C4408 C4407 1.398 . S
C4408 C4409 1.391 . S
C4409 H4397 0.950 . S
C4409 C4405 1.393 . S
C4409 C4408 1.391 . S
C4410 H4400 0.950 . S
C4410 C4411 1.386 . S
C4410 C4412 1.391 . S
C4411 C4410 1.386 . S
C4411 C4415 1.393 . S
C4412 H4401 0.950 . S
C4412 C4410 1.391 . S
C4412 C4413 1.400 . S
C4413 C4407 1.491 . S
C4413 C4412 1.400 . S
C4413 C4414 1.398 . S
C4414 H4402 0.950 . S
C4414 C4413 1.398 . S
C4414 C4415 1.391 . S
C4415 H4403 0.950 . S
C4415 C4411 1.393 . S
C4415 C4414 1.391 . S
H4416 C4424 0.950 . S
H4417 C4429 0.950 . S
H4418 C4426 0.950 . S
H4419 C4428 0.950 . S
H4420 C4430 0.950 . S
H4421 C4432 0.950 . S
H4422 C4434 0.950 . S
H4423 C4435 0.950 . S
C4424 H4416 0.950 . S
C4424 C4425 1.386 . S
C4424 C4426 1.391 . S
C4425 C4424 1.386 . S
C4425 C4429 1.393 . S
C4426 H4418 0.950 . S
C4426 C4424 1.391 . S
C4426 C4427 1.400 . S
C4427 C4426 1.400 . S
C4427 C4428 1.398 . S
C4427 C4433 1.491 . S
C4428 H4419 0.950 . S
C4428 C4427 1.398 . S
C4428 C4429 1.391 . S
C4429 H4417 0.950 . S
C4429 C4425 1.393 . S
C4429 C4428 1.391 . S
C4430 H4420 0.950 . S
C4430 C4431 1.386 . S
C4430 C4432 1.391 . S
C4431 C4430 1.386 . S
C4431 C4435 1.393 . S
C4432 H4421 0.950 . S
C4432 C4430 1.391 . S
C4432 C4433 1.400 . S
C4433 C4427 1.491 . S
C4433 C4432 1.400 . S
C4433 C4434 1.398 . S
C4434 H4422 0.950 . S
C4434 C4433 1.398 . S
C4434 C4435 1.391 . S
C4435 H4423 0.950 . S
C4435 C4431 1.393 . S
C4435 C4434 1.391 . S
H4436 C4444 0.950 . S
H4437 C4449 0.950 . S
H4438 C4446 0.950 . S
H4439 C4448 0.950 . S
H4440 C4450 0.950 . S
H4441 C4452 0.950 . S
H4442 C4454 0.950 . S
H4443 C4455 0.950 . S
C4444 H4436 0.950 . S
C4444 C4445 1.386 . S
C4444 C4446 1.391 . S
C4445 C4444 1.386 . S
C4445 C4449 1.393 . S
C4446 H4438 0.950 . S
C4446 C4444 1.391 . S
C4446 C4447 1.400 . S
C4447 C4446 1.400 . S
C4447 C4448 1.398 . S
C4447 C4453 1.491 . S
C4448 H4439 0.950 . S
C4448 C4447 1.398 . S
C4448 C4449 1.391 . S
C4449 H4437 0.950 . S
C4449 C4445 1.393 . S
C4449 C4448 1.391 . S
C4450 H4440 0.950 . S
C4450 C4451 1.386 . S
C4450 C4452 1.391 . S
C4451 C4450 1.386 . S
C4451 C4455 1.393 . S
C4452 H4441 0.950 . S
C4452 C4450 1.391 . S
C4452 C4453 1.400 . S
C4453 C4447 1.491 . S
C4453 C4452 1.400 . S
C4453 C4454 1.398 . S
C4454 H4442 0.950 . S
C4454 C4453 1.398 . S
C4454 C4455 1.391 . S
C4455 H4443 0.950 . S
C4455 C4451 1.393 . S
C4455 C4454 1.391 . S
H4456 C4464 0.950 . S
H4457 C4469 0.950 . S
H4458 C4466 0.950 . S
H4459 C4468 0.950 . S
H4460 C4470 0.950 . S
H4461 C4472 0.950 . S
H4462 C4474 0.950 . S
H4463 C4475 0.986 . S
C4464 H4456 0.950 . S
C4464 C4465 1.386 1_556 S
C4464 C4466 1.391 . S
C4465 C4464 1.386 1_554 S
C4465 C4469 1.393 . S
C4466 H4458 0.950 . S
C4466 C4464 1.391 . S
C4466 C4467 1.400 1_556 S
C4467 C4466 1.400 1_554 S
C4467 C4468 1.398 . S
C4467 C4473 1.491 . S
C4468 H4459 0.950 . S
C4468 C4467 1.398 . S
C4468 C4469 1.391 . S
C4469 H4457 0.950 . S
C4469 C4465 1.393 . S
C4469 C4468 1.391 . S
C4470 H4460 0.950 . S
C4470 C4471 1.386 . S
C4470 C4472 1.391 . S
C4471 C4470 1.386 . S
C4471 C4475 1.364 1_554 S
C4472 H4461 0.950 . S
C4472 C4470 1.391 . S
C4472 C4473 1.400 . S
C4473 C4467 1.491 . S
C4473 C4472 1.400 . S
C4473 C4474 1.398 1_554 S
C4474 H4462 0.950 . S
C4474 C4473 1.398 1_556 S
C4474 C4475 1.385 . S
C4475 H4463 0.986 . S
C4475 C4471 1.364 1_556 S
C4475 C4474 1.385 . S
H4476 C4484 0.950 . S
H4477 C4489 0.950 1_455 S
H4478 C4486 0.950 . S
H4479 C4488 0.950 . S
H4480 C4490 0.950 . S
H4481 C4492 0.950 . S
H4482 C4494 0.950 . S
H4483 C4495 0.950 . S
C4484 H4476 0.950 . S
C4484 C4485 1.386 . S
C4484 C4486 1.391 . S
C4485 C4484 1.386 . S
C4485 C4489 1.393 . S
C4486 H4478 0.950 . S
C4486 C4484 1.391 . S
C4486 C4487 1.400 . S
C4487 C4486 1.400 . S
C4487 C4488 1.398 . S
C4487 C4493 1.491 . S
C4488 H4479 0.950 . S
C4488 C4487 1.398 . S
C4488 C4489 1.391 . S
C4489 H4477 0.950 1_655 S
C4489 C4485 1.393 . S
C4489 C4488 1.391 . S
C4490 H4480 0.950 . S
C4490 C4491 1.386 . S
C4490 C4492 1.391 . S
C4491 C4490 1.386 . S
C4491 C4495 1.393 . S
C4492 H4481 0.950 . S
C4492 C4490 1.391 . S
C4492 C4493 1.400 . S
C4493 C4487 1.491 . S
C4493 C4492 1.400 . S
C4493 C4494 1.398 . S
C4494 H4482 0.950 . S
C4494 C4493 1.398 . S
C4494 C4495 1.391 . S
C4495 H4483 0.950 . S
C4495 C4491 1.393 . S
C4495 C4494 1.391 . S
H4496 C4504 0.950 . S
H4497 C4509 0.950 . S
H4498 C4506 0.950 . S
H4499 C4508 0.950 . S
H4500 C4510 0.950 . S
H4501 C4512 0.950 . S
H4502 C4514 0.950 . S
H4503 C4515 0.950 . S
C4504 H4496 0.950 . S
C4504 C4505 1.386 . S
C4504 C4506 1.391 . S
C4505 C4504 1.386 . S
C4505 C4509 1.393 . S
C4506 H4498 0.950 . S
C4506 C4504 1.391 . S
C4506 C4507 1.400 . S
C4507 C4506 1.400 . S
C4507 C4508 1.398 . S
C4507 C4513 1.491 . S
C4508 H4499 0.950 . S
C4508 C4507 1.398 . S
C4508 C4509 1.391 . S
C4509 H4497 0.950 . S
C4509 C4505 1.393 . S
C4509 C4508 1.391 . S
C4510 H4500 0.950 . S
C4510 C4511 1.386 . S
C4510 C4512 1.391 . S
C4511 C4510 1.386 . S
C4511 C4515 1.393 . S
C4512 H4501 0.950 . S
C4512 C4510 1.391 . S
C4512 C4513 1.400 . S
C4513 C4507 1.491 . S
C4513 C4512 1.400 . S
C4513 C4514 1.398 . S
C4514 H4502 0.950 . S
C4514 C4513 1.398 . S
C4514 C4515 1.391 . S
C4515 H4503 0.950 . S
C4515 C4511 1.393 . S
C4515 C4514 1.391 . S
H4516 C4524 0.933 1_455 S
H4517 C4529 0.950 . S
H4518 C4526 0.950 . S
H4519 C4528 0.950 . S
H4520 C4530 0.950 . S
H4521 C4532 0.950 . S
H4522 C4534 0.950 . S
H4523 C4535 0.950 . S
C4524 H4516 0.933 1_655 S
C4524 C4525 1.386 1_655 S
C4524 C4526 1.391 . S
C4525 C4524 1.386 1_455 S
C4525 C4529 1.393 . S
C4526 H4518 0.950 . S
C4526 C4524 1.391 . S
C4526 C4527 1.400 . S
C4527 C4526 1.400 . S
C4527 C4528 1.398 . S
C4527 C4533 1.491 . S
C4528 H4519 0.950 . S
C4528 C4527 1.398 . S
C4528 C4529 1.391 1_655 S
C4529 H4517 0.950 . S
C4529 C4525 1.393 . S
C4529 C4528 1.391 1_455 S
C4530 H4520 0.950 . S
C4530 C4531 1.386 . S
C4530 C4532 1.391 . S
C4531 C4530 1.386 . S
C4531 C4535 1.393 . S
C4532 H4521 0.950 . S
C4532 C4530 1.391 . S
C4532 C4533 1.400 . S
C4533 C4527 1.491 . S
C4533 C4532 1.400 . S
C4533 C4534 1.398 . S
C4534 H4522 0.950 . S
C4534 C4533 1.398 . S
C4534 C4535 1.391 . S
C4535 H4523 0.950 . S
C4535 C4531 1.393 . S
C4535 C4534 1.391 . S
H4536 C4544 0.950 . S
H4537 C4549 0.950 . S
H4538 C4546 0.950 . S
H4539 C4548 0.950 . S
H4540 C4550 0.950 . S
H4541 C4552 0.955 1_655 S
H4542 C4554 0.950 . S
H4543 C4555 0.950 . S
C4544 H4536 0.950 . S
C4544 C4545 1.386 1_455 S
C4544 C4546 1.391 . S
C4545 C4544 1.386 1_655 S
C4545 C4549 1.393 . S
C4546 H4538 0.950 . S
C4546 C4544 1.391 . S
C4546 C4547 1.400 . S
C4547 C4546 1.400 . S
C4547 C4548 1.398 1_455 S
C4547 C4553 1.491 . S
C4548 H4539 0.950 . S
C4548 C4547 1.398 1_655 S
C4548 C4549 1.391 . S
C4549 H4537 0.950 . S
C4549 C4545 1.393 . S
C4549 C4548 1.391 . S
C4550 H4540 0.950 . S
C4550 C4551 1.386 . S
C4550 C4552 1.391 . S
C4551 C4550 1.386 . S
C4551 C4555 1.393 . S
C4552 H4541 0.955 1_455 S
C4552 C4550 1.391 . S
C4552 C4553 1.400 . S
C4553 C4547 1.491 . S
C4553 C4552 1.400 . S
C4553 C4554 1.398 . S
C4554 H4542 0.950 . S
C4554 C4553 1.398 . S
C4554 C4555 1.391 . S
C4555 H4543 0.950 . S
C4555 C4551 1.393 . S
C4555 C4554 1.391 . S
H4556 C4564 0.950 . S
H4557 C4569 0.950 . S
H4558 C4566 0.950 . S
H4559 C4568 0.950 . S
H4560 C4570 0.950 . S
H4561 C4572 0.950 . S
H4562 C4574 0.950 . S
H4563 C4575 0.950 . S
C4564 H4556 0.950 . S
C4564 C4565 1.386 . S
C4564 C4566 1.391 . S
C4565 C4564 1.386 . S
C4565 C4569 1.393 . S
C4566 H4558 0.950 . S
C4566 C4564 1.391 . S
C4566 C4567 1.400 . S
C4567 C4566 1.400 . S
C4567 C4568 1.398 . S
C4567 C4573 1.491 . S
C4568 H4559 0.950 . S
C4568 C4567 1.398 . S
C4568 C4569 1.391 . S
C4569 H4557 0.950 . S
C4569 C4565 1.393 . S
C4569 C4568 1.391 . S
C4570 H4560 0.950 . S
C4570 C4571 1.386 . S
C4570 C4572 1.391 . S
C4571 C4570 1.386 . S
C4571 C4575 1.393 . S
C4572 H4561 0.950 . S
C4572 C4570 1.391 . S
C4572 C4573 1.400 . S
C4573 C4567 1.491 . S
C4573 C4572 1.400 . S
C4573 C4574 1.398 . S
C4574 H4562 0.950 . S
C4574 C4573 1.398 . S
C4574 C4575 1.391 . S
C4575 H4563 0.950 . S
C4575 C4571 1.393 . S
C4575 C4574 1.391 . S
H4576 C4584 0.950 . S
H4577 C4589 0.950 . S
H4578 C4586 0.950 . S
H4579 C4588 0.950 . S
H4580 C4590 0.950 . S
H4581 C4592 0.950 . S
H4582 C4594 0.950 . S
H4583 C4595 0.950 . S
C4584 H4576 0.950 . S
C4584 C4585 1.386 . S
C4584 C4586 1.391 . S
C4585 C4584 1.386 . S
C4585 C4589 1.393 . S
C4586 H4578 0.950 . S
C4586 C4584 1.391 . S
C4586 C4587 1.400 . S
C4587 C4586 1.400 . S
C4587 C4588 1.398 . S
C4587 C4593 1.491 . S
C4588 H4579 0.950 . S
C4588 C4587 1.398 . S
C4588 C4589 1.391 . S
C4589 H4577 0.950 . S
C4589 C4585 1.393 . S
C4589 C4588 1.391 . S
C4590 H4580 0.950 . S
C4590 C4591 1.386 . S
C4590 C4592 1.391 . S
C4591 C4590 1.386 . S
C4591 C4595 1.393 . S
C4592 H4581 0.950 . S
C4592 C4590 1.391 . S
C4592 C4593 1.400 . S
C4593 C4587 1.491 . S
C4593 C4592 1.400 . S
C4593 C4594 1.398 . S
C4594 H4582 0.950 . S
C4594 C4593 1.398 . S
C4594 C4595 1.391 . S
C4595 H4583 0.950 . S
C4595 C4591 1.393 . S
C4595 C4594 1.391 . S
H4596 C4604 0.950 . S
H4597 C4609 0.950 . S
H4598 C4606 0.950 . S
H4599 C4608 0.950 . S
H4600 C4610 0.950 . S
H4601 C4612 0.950 . S
H4602 C4614 0.950 . S
H4603 C4615 0.950 . S
C4604 H4596 0.950 . S
C4604 C4605 1.386 . S
C4604 C4606 1.391 . S
C4605 C4604 1.386 . S
C4605 C4609 1.393 . S
C4606 H4598 0.950 . S
C4606 C4604 1.391 . S
C4606 C4607 1.400 . S
C4607 C4606 1.400 . S
C4607 C4608 1.398 . S
C4607 C4613 1.491 . S
C4608 H4599 0.950 . S
C4608 C4607 1.398 . S
C4608 C4609 1.391 . S
C4609 H4597 0.950 . S
C4609 C4605 1.393 . S
C4609 C4608 1.391 . S
C4610 H4600 0.950 . S
C4610 C4611 1.386 . S
C4610 C4612 1.391 . S
C4611 C4610 1.386 . S
C4611 C4615 1.393 . S
C4612 H4601 0.950 . S
C4612 C4610 1.391 . S
C4612 C4613 1.400 . S
C4613 C4607 1.491 . S
C4613 C4612 1.400 . S
C4613 C4614 1.398 . S
C4614 H4602 0.950 . S
C4614 C4613 1.398 . S
C4614 C4615 1.391 . S
C4615 H4603 0.950 . S
C4615 C4611 1.393 . S
C4615 C4614 1.391 . S
H4616 C4624 0.950 . S
H4617 C4629 0.950 . S
H4618 C4626 0.950 . S
H4619 C4628 0.950 . S
H4620 C4630 0.950 . S
H4621 C4632 0.950 . S
H4622 C4634 0.950 . S
H4623 C4635 0.950 . S
C4624 H4616 0.950 . S
C4624 C4625 1.386 . S
C4624 C4626 1.391 . S
C4625 C4624 1.386 . S
C4625 C4629 1.393 . S
C4626 H4618 0.950 . S
C4626 C4624 1.391 . S
C4626 C4627 1.400 . S
C4627 C4626 1.400 . S
C4627 C4628 1.398 . S
C4627 C4633 1.491 . S
C4628 H4619 0.950 . S
C4628 C4627 1.398 . S
C4628 C4629 1.391 . S
C4629 H4617 0.950 . S
C4629 C4625 1.393 . S
C4629 C4628 1.391 . S
C4630 H4620 0.950 . S
C4630 C4631 1.386 . S
C4630 C4632 1.391 . S
C4631 C4630 1.386 . S
C4631 C4635 1.393 . S
C4632 H4621 0.950 . S
C4632 C4630 1.391 . S
C4632 C4633 1.400 . S
C4633 C4627 1.491 . S
C4633 C4632 1.400 . S
C4633 C4634 1.398 . S
C4634 H4622 0.950 . S
C4634 C4633 1.398 . S
C4634 C4635 1.391 . S
C4635 H4623 0.950 . S
C4635 C4631 1.393 . S
C4635 C4634 1.391 . S
H4636 C4644 0.950 . S
H4637 C4649 0.950 . S
H4638 C4646 0.950 . S
H4639 C4648 0.950 . S
H4640 C4650 0.950 . S
H4641 C4652 0.950 . S
H4642 C4654 0.950 . S
H4643 C4655 0.950 . S
C4644 H4636 0.950 . S
C4644 C4645 1.386 . S
C4644 C4646 1.391 . S
C4645 C4644 1.386 . S
C4645 C4649 1.393 . S
C4646 H4638 0.950 . S
C4646 C4644 1.391 . S
C4646 C4647 1.400 . S
C4647 C4646 1.400 . S
C4647 C4648 1.398 . S
C4647 C4653 1.491 . S
C4648 H4639 0.950 . S
C4648 C4647 1.398 . S
C4648 C4649 1.391 . S
C4649 H4637 0.950 . S
C4649 C4645 1.393 . S
C4649 C4648 1.391 . S
C4650 H4640 0.950 . S
C4650 C4651 1.386 . S
C4650 C4652 1.391 . S
C4651 C4650 1.386 . S
C4651 C4655 1.393 . S
C4652 H4641 0.950 . S
C4652 C4650 1.391 . S
C4652 C4653 1.400 . S
C4653 C4647 1.491 . S
C4653 C4652 1.400 . S
C4653 C4654 1.398 . S
C4654 H4642 0.950 . S
C4654 C4653 1.398 . S
C4654 C4655 1.391 . S
C4655 H4643 0.950 . S
C4655 C4651 1.393 . S
C4655 C4654 1.391 . S
H4656 C4664 0.950 . S
H4657 C4669 0.950 . S
H4658 C4666 0.950 . S
H4659 C4668 0.950 . S
H4660 C4670 0.950 . S
H4661 C4672 0.950 . S
H4662 C4674 0.950 . S
H4663 C4675 0.950 . S
C4664 H4656 0.950 . S
C4664 C4665 1.386 . S
C4664 C4666 1.391 . S
C4665 C4664 1.386 . S
C4665 C4669 1.393 . S
C4666 H4658 0.950 . S
C4666 C4664 1.391 . S
C4666 C4667 1.400 . S
C4667 C4666 1.400 . S
C4667 C4668 1.398 . S
C4667 C4673 1.491 . S
C4668 H4659 0.950 . S
C4668 C4667 1.398 . S
C4668 C4669 1.391 . S
C4669 H4657 0.950 . S
C4669 C4665 1.393 . S
C4669 C4668 1.391 . S
C4670 H4660 0.950 . S
C4670 C4671 1.386 . S
C4670 C4672 1.391 . S
C4671 C4670 1.386 . S
C4671 C4675 1.393 . S
C4672 H4661 0.950 . S
C4672 C4670 1.391 . S
C4672 C4673 1.400 . S
C4673 C4667 1.491 . S
C4673 C4672 1.400 . S
C4673 C4674 1.398 . S
C4674 H4662 0.950 . S
C4674 C4673 1.398 . S
C4674 C4675 1.391 . S
C4675 H4663 0.950 . S
C4675 C4671 1.393 . S
C4675 C4674 1.391 . S
H4676 C4684 0.950 . S
H4677 C4689 0.950 . S
H4678 C4686 0.950 . S
H4679 C4688 0.950 . S
H4680 C4690 0.950 . S
H4681 C4692 0.950 . S
H4682 C4694 0.950 . S
H4683 C4695 0.950 . S
C4684 H4676 0.950 . S
C4684 C4685 1.386 . S
C4684 C4686 1.391 . S
C4685 C4684 1.386 . S
C4685 C4689 1.393 . S
C4686 H4678 0.950 . S
C4686 C4684 1.391 . S
C4686 C4687 1.400 . S
C4687 C4686 1.400 . S
C4687 C4688 1.398 . S
C4687 C4693 1.491 . S
C4688 H4679 0.950 . S
C4688 C4687 1.398 . S
C4688 C4689 1.391 . S
C4689 H4677 0.950 . S
C4689 C4685 1.393 . S
C4689 C4688 1.391 . S
C4690 H4680 0.950 . S
C4690 C4691 1.386 . S
C4690 C4692 1.391 . S
C4691 C4690 1.386 . S
C4691 C4695 1.393 . S
C4692 H4681 0.950 . S
C4692 C4690 1.391 . S
C4692 C4693 1.400 . S
C4693 C4687 1.491 . S
C4693 C4692 1.400 . S
C4693 C4694 1.398 . S
C4694 H4682 0.950 . S
C4694 C4693 1.398 . S
C4694 C4695 1.391 . S
C4695 H4683 0.950 . S
C4695 C4691 1.393 . S
C4695 C4694 1.391 . S
H4696 C4704 0.950 . S
H4697 C4709 0.950 . S
H4698 C4706 0.950 . S
H4699 C4708 0.950 . S
H4700 C4710 0.950 . S
H4701 C4712 0.950 . S
H4702 C4714 0.950 . S
H4703 C4715 0.950 . S
C4704 H4696 0.950 . S
C4704 C4705 1.386 . S
C4704 C4706 1.391 . S
C4705 C4704 1.386 . S
C4705 C4709 1.393 . S
C4706 H4698 0.950 . S
C4706 C4704 1.391 . S
C4706 C4707 1.400 . S
C4707 C4706 1.400 . S
C4707 C4708 1.398 . S
C4707 C4713 1.491 . S
C4708 H4699 0.950 . S
C4708 C4707 1.398 . S
C4708 C4709 1.391 . S
C4709 H4697 0.950 . S
C4709 C4705 1.393 . S
C4709 C4708 1.391 . S
C4710 H4700 0.950 . S
C4710 C4711 1.386 . S
C4710 C4712 1.391 . S
C4711 C4710 1.386 . S
C4711 C4715 1.393 . S
C4712 H4701 0.950 . S
C4712 C4710 1.391 . S
C4712 C4713 1.400 . S
C4713 C4707 1.491 . S
C4713 C4712 1.400 . S
C4713 C4714 1.398 . S
C4714 H4702 0.950 . S
C4714 C4713 1.398 . S
C4714 C4715 1.391 . S
C4715 H4703 0.950 . S
C4715 C4711 1.393 . S
C4715 C4714 1.391 . S
H4716 C4724 0.950 . S
H4717 C4729 0.950 . S
H4718 C4726 0.950 . S
H4719 C4728 0.950 . S
H4720 C4730 0.950 . S
H4721 C4732 0.950 . S
H4722 C4734 0.950 . S
H4723 C4735 0.950 . S
C4724 H4716 0.950 . S
C4724 C4725 1.386 . S
C4724 C4726 1.391 . S
C4725 C4724 1.386 . S
C4725 C4729 1.393 . S
C4726 H4718 0.950 . S
C4726 C4724 1.391 . S
C4726 C4727 1.400 . S
C4727 C4726 1.400 . S
C4727 C4728 1.398 . S
C4727 C4733 1.491 . S
C4728 H4719 0.950 . S
C4728 C4727 1.398 . S
C4728 C4729 1.391 . S
C4729 H4717 0.950 . S
C4729 C4725 1.393 . S
C4729 C4728 1.391 . S
C4730 H4720 0.950 . S
C4730 C4731 1.386 . S
C4730 C4732 1.391 . S
C4731 C4730 1.386 . S
C4731 C4735 1.393 . S
C4732 H4721 0.950 . S
C4732 C4730 1.391 . S
C4732 C4733 1.400 . S
C4733 C4727 1.491 . S
C4733 C4732 1.400 . S
C4733 C4734 1.398 . S
C4734 H4722 0.950 . S
C4734 C4733 1.398 . S
C4734 C4735 1.391 . S
C4735 H4723 0.950 . S
C4735 C4731 1.393 . S
C4735 C4734 1.391 . S
H4736 C4744 0.950 . S
H4737 C4749 0.950 . S
H4738 C4746 0.950 . S
H4739 C4748 0.950 . S
H4740 C4750 0.950 . S
H4741 C4752 0.950 . S
H4742 C4754 0.950 . S
H4743 C4755 0.950 . S
C4744 H4736 0.950 . S
C4744 C4745 1.386 . S
C4744 C4746 1.391 . S
C4745 C4744 1.386 . S
C4745 C4749 1.393 . S
C4746 H4738 0.950 . S
C4746 C4744 1.391 . S
C4746 C4747 1.400 . S
C4747 C4746 1.400 . S
C4747 C4748 1.398 . S
C4747 C4753 1.491 . S
C4748 H4739 0.950 . S
C4748 C4747 1.398 . S
C4748 C4749 1.391 . S
C4749 H4737 0.950 . S
C4749 C4745 1.393 . S
C4749 C4748 1.391 . S
C4750 H4740 0.950 . S
C4750 C4751 1.386 . S
C4750 C4752 1.391 . S
C4751 C4750 1.386 . S
C4751 C4755 1.393 . S
C4752 H4741 0.950 . S
C4752 C4750 1.391 . S
C4752 C4753 1.400 . S
C4753 C4747 1.491 . S
C4753 C4752 1.400 . S
C4753 C4754 1.398 . S
C4754 H4742 0.950 . S
C4754 C4753 1.398 . S
C4754 C4755 1.391 . S
C4755 H4743 0.950 . S
C4755 C4751 1.393 . S
C4755 C4754 1.391 . S
H4756 C4764 0.950 . S
H4757 C4769 0.950 . S
H4758 C4766 0.950 . S
H4759 C4768 0.950 . S
H4760 C4770 0.950 . S
H4761 C4772 0.950 . S
H4762 C4774 0.950 . S
H4763 C4775 0.950 . S
C4764 H4756 0.950 . S
C4764 C4765 1.386 . S
C4764 C4766 1.391 . S
C4765 C4764 1.386 . S
C4765 C4769 1.393 . S
C4766 H4758 0.950 . S
C4766 C4764 1.391 . S
C4766 C4767 1.400 . S
C4767 C4766 1.400 . S
C4767 C4768 1.398 . S
C4767 C4773 1.491 . S
C4768 H4759 0.950 . S
C4768 C4767 1.398 . S
C4768 C4769 1.391 . S
C4769 H4757 0.950 . S
C4769 C4765 1.393 . S
C4769 C4768 1.391 . S
C4770 H4760 0.950 . S
C4770 C4771 1.386 . S
C4770 C4772 1.391 . S
C4771 C4770 1.386 . S
C4771 C4775 1.393 . S
C4772 H4761 0.950 . S
C4772 C4770 1.391 . S
C4772 C4773 1.400 . S
C4773 C4767 1.491 . S
C4773 C4772 1.400 . S
C4773 C4774 1.398 . S
C4774 H4762 0.950 . S
C4774 C4773 1.398 . S
C4774 C4775 1.391 . S
C4775 H4763 0.950 . S
C4775 C4771 1.393 . S
C4775 C4774 1.391 . S
H4776 C4784 0.950 . S
H4777 C4789 0.950 . S
H4778 C4786 0.950 . S
H4779 C4788 0.950 . S
H4780 C4790 0.950 . S
H4781 C4792 0.950 . S
H4782 C4794 0.950 . S
H4783 C4795 0.950 . S
C4784 H4776 0.950 . S
C4784 C4785 1.386 . S
C4784 C4786 1.391 . S
C4785 C4784 1.386 . S
C4785 C4789 1.393 . S
C4786 H4778 0.950 . S
C4786 C4784 1.391 . S
C4786 C4787 1.400 . S
C4787 C4786 1.400 . S
C4787 C4788 1.398 . S
C4787 C4793 1.491 . S
C4788 H4779 0.950 . S
C4788 C4787 1.398 . S
C4788 C4789 1.391 . S
C4789 H4777 0.950 . S
C4789 C4785 1.393 . S
C4789 C4788 1.391 . S
C4790 H4780 0.950 . S
C4790 C4791 1.386 . S
C4790 C4792 1.391 . S
C4791 C4790 1.386 . S
C4791 C4795 1.393 . S
C4792 H4781 0.950 . S
C4792 C4790 1.391 . S
C4792 C4793 1.400 . S
C4793 C4787 1.491 . S
C4793 C4792 1.400 . S
C4793 C4794 1.398 . S
C4794 H4782 0.950 . S
C4794 C4793 1.398 . S
C4794 C4795 1.391 . S
C4795 H4783 0.950 . S
C4795 C4791 1.393 . S
C4795 C4794 1.391 . S
H4796 C4804 0.949 . S
H4797 C4809 0.950 1_556 S
H4798 C4806 0.950 . S
H4799 C4808 0.950 1_556 S
H4800 C4810 0.950 1_556 S
H4801 C4812 0.950 1_556 S
H4802 C4814 0.950 . S
H4803 C4815 0.950 . S
C4804 H4796 0.949 . S
C4804 C4805 1.385 . S
C4804 C4806 1.389 1_565 S
C4805 C4804 1.385 . S
C4805 C4809 1.393 . S
C4806 H4798 0.950 . S
C4806 C4804 1.389 1_545 S
C4806 C4807 1.400 . S
C4807 C4806 1.400 . S
C4807 C4808 1.398 1_545 S
C4807 C4813 1.491 . S
C4808 H4799 0.950 1_554 S
C4808 C4807 1.398 1_565 S
C4808 C4809 1.391 . S
C4809 H4797 0.950 1_554 S
C4809 C4805 1.393 . S
C4809 C4808 1.391 . S
C4810 H4800 0.950 1_554 S
C4810 C4811 1.386 . S
C4810 C4812 1.391 . S
C4811 C4810 1.386 . S
C4811 C4815 1.393 . S
C4812 H4801 0.950 1_554 S
C4812 C4810 1.391 . S
C4812 C4813 1.400 . S
C4813 C4807 1.491 . S
C4813 C4812 1.400 . S
C4813 C4814 1.398 . S
C4814 H4802 0.950 . S
C4814 C4813 1.398 . S
C4814 C4815 1.391 . S
C4815 H4803 0.950 . S
C4815 C4811 1.393 . S
C4815 C4814 1.391 . S
H4816 C4824 0.950 . S
H4817 C4829 0.950 . S
H4818 C4826 0.950 . S
H4819 C4828 0.950 . S
H4820 C4830 0.950 . S
H4821 C4832 0.950 . S
H4822 C4834 0.950 . S
H4823 C4835 0.950 . S
C4824 H4816 0.950 . S
C4824 C4825 1.386 . S
C4824 C4826 1.391 . S
C4825 C4824 1.386 . S
C4825 C4829 1.393 . S
C4826 H4818 0.950 . S
C4826 C4824 1.391 . S
C4826 C4827 1.400 . S
C4827 C4826 1.400 . S
C4827 C4828 1.398 . S
C4827 C4833 1.491 . S
C4828 H4819 0.950 . S
C4828 C4827 1.398 . S
C4828 C4829 1.391 . S
C4829 H4817 0.950 . S
C4829 C4825 1.393 . S
C4829 C4828 1.391 . S
C4830 H4820 0.950 . S
C4830 C4831 1.386 . S
C4830 C4832 1.391 . S
C4831 C4830 1.386 . S
C4831 C4835 1.393 . S
C4832 H4821 0.950 . S
C4832 C4830 1.391 . S
C4832 C4833 1.400 . S
C4833 C4827 1.491 . S
C4833 C4832 1.400 . S
C4833 C4834 1.398 . S
C4834 H4822 0.950 . S
C4834 C4833 1.398 . S
C4834 C4835 1.391 . S
C4835 H4823 0.950 . S
C4835 C4831 1.393 . S
C4835 C4834 1.391 . S
H4836 C4844 0.950 . S
H4837 C4849 0.967 . S
H4838 C4846 0.950 . S
H4839 C4848 0.950 . S
H4840 C4850 0.950 . S
H4841 C4852 0.950 . S
H4842 C4854 0.950 . S
H4843 C4855 0.950 . S
C4844 H4836 0.950 . S
C4844 C4845 1.386 . S
C4844 C4846 1.391 1_556 S
C4845 C4844 1.386 . S
C4845 C4849 1.393 1_556 S
C4846 H4838 0.950 . S
C4846 C4844 1.391 1_554 S
C4846 C4847 1.400 . S
C4847 C4846 1.400 . S
C4847 C4848 1.398 . S
C4847 C4853 1.491 . S
C4848 H4839 0.950 . S
C4848 C4847 1.398 . S
C4848 C4849 1.391 . S
C4849 H4837 0.967 . S
C4849 C4845 1.393 1_554 S
C4849 C4848 1.391 . S
C4850 H4840 0.950 . S
C4850 C4851 1.386 . S
C4850 C4852 1.391 . S
C4851 C4850 1.386 . S
C4851 C4855 1.393 . S
C4852 H4841 0.950 . S
C4852 C4850 1.391 . S
C4852 C4853 1.400 . S
C4853 C4847 1.491 . S
C4853 C4852 1.400 . S
C4853 C4854 1.398 . S
C4854 H4842 0.950 . S
C4854 C4853 1.398 . S
C4854 C4855 1.391 . S
C4855 H4843 0.950 . S
C4855 C4851 1.393 . S
C4855 C4854 1.391 . S
H4856 C4864 0.950 . S
H4857 C4869 0.950 . S
H4858 C4866 0.950 . S
H4859 C4868 0.950 . S
H4860 C4870 0.950 . S
H4861 C4872 0.950 . S
H4862 C4874 0.950 . S
H4863 C4875 0.950 . S
C4864 H4856 0.950 . S
C4864 C4865 1.386 . S
C4864 C4866 1.391 . S
C4865 C4864 1.386 . S
C4865 C4869 1.393 . S
C4866 H4858 0.950 . S
C4866 C4864 1.391 . S
C4866 C4867 1.400 . S
C4867 C4866 1.400 . S
C4867 C4868 1.398 . S
C4867 C4873 1.491 . S
C4868 H4859 0.950 . S
C4868 C4867 1.398 . S
C4868 C4869 1.391 . S
C4869 H4857 0.950 . S
C4869 C4865 1.393 . S
C4869 C4868 1.391 . S
C4870 H4860 0.950 . S
C4870 C4871 1.386 . S
C4870 C4872 1.391 . S
C4871 C4870 1.386 . S
C4871 C4875 1.393 . S
C4872 H4861 0.950 . S
C4872 C4870 1.391 . S
C4872 C4873 1.400 . S
C4873 C4867 1.491 . S
C4873 C4872 1.400 . S
C4873 C4874 1.398 . S
C4874 H4862 0.950 . S
C4874 C4873 1.398 . S
C4874 C4875 1.391 . S
C4875 H4863 0.950 . S
C4875 C4871 1.393 . S
C4875 C4874 1.391 . S
H4876 C4884 0.950 . S
H4877 C4889 0.950 . S
H4878 C4886 0.950 . S
H4879 C4888 0.950 . S
H4880 C4890 0.950 . S
H4881 C4892 0.950 . S
H4882 C4894 0.950 . S
H4883 C4895 0.950 . S
C4884 H4876 0.950 . S
C4884 C4885 1.386 . S
C4884 C4886 1.391 . S
C4885 C4884 1.386 . S
C4885 C4889 1.393 . S
C4886 H4878 0.950 . S
C4886 C4884 1.391 . S
C4886 C4887 1.400 . S
C4887 C4886 1.400 . S
C4887 C4888 1.398 . S
C4887 C4893 1.491 . S
C4888 H4879 0.950 . S
C4888 C4887 1.398 . S
C4888 C4889 1.391 . S
C4889 H4877 0.950 . S
C4889 C4885 1.393 . S
C4889 C4888 1.391 . S
C4890 H4880 0.950 . S
C4890 C4891 1.386 . S
C4890 C4892 1.391 . S
C4891 C4890 1.386 . S
C4891 C4895 1.393 . S
C4892 H4881 0.950 . S
C4892 C4890 1.391 . S
C4892 C4893 1.400 . S
C4893 C4887 1.491 . S
C4893 C4892 1.400 . S
C4893 C4894 1.398 . S
C4894 H4882 0.950 . S
C4894 C4893 1.398 . S
C4894 C4895 1.391 . S
C4895 H4883 0.950 . S
C4895 C4891 1.393 . S
C4895 C4894 1.391 . S
H4896 C4904 0.950 . S
H4897 C4909 0.950 . S
H4898 C4906 0.950 . S
H4899 C4908 0.950 . S
H4900 C4910 0.950 . S
H4901 C4912 0.950 . S
H4902 C4914 0.950 . S
H4903 C4915 0.950 . S
C4904 H4896 0.950 . S
C4904 C4905 1.386 . S
C4904 C4906 1.391 . S
C4905 C4904 1.386 . S
C4905 C4909 1.393 . S
C4906 H4898 0.950 . S
C4906 C4904 1.391 . S
C4906 C4907 1.400 . S
C4907 C4906 1.400 . S
C4907 C4908 1.398 . S
C4907 C4913 1.491 . S
C4908 H4899 0.950 . S
C4908 C4907 1.398 . S
C4908 C4909 1.391 . S
C4909 H4897 0.950 . S
C4909 C4905 1.393 . S
C4909 C4908 1.391 . S
C4910 H4900 0.950 . S
C4910 C4911 1.386 . S
C4910 C4912 1.391 . S
C4911 C4910 1.386 . S
C4911 C4915 1.393 . S
C4912 H4901 0.950 . S
C4912 C4910 1.391 . S
C4912 C4913 1.400 . S
C4913 C4907 1.491 . S
C4913 C4912 1.400 . S
C4913 C4914 1.398 . S
C4914 H4902 0.950 . S
C4914 C4913 1.398 . S
C4914 C4915 1.391 . S
C4915 H4903 0.950 . S
C4915 C4911 1.393 . S
C4915 C4914 1.391 . S
H4916 C4924 0.950 . S
H4917 C4929 0.950 . S
H4918 C4926 0.950 . S
H4919 C4928 0.950 . S
H4920 C4930 0.950 . S
H4921 C4932 0.950 . S
H4922 C4934 0.950 . S
H4923 C4935 0.950 . S
C4924 H4916 0.950 . S
C4924 C4925 1.386 . S
C4924 C4926 1.391 . S
C4925 C4924 1.386 . S
C4925 C4929 1.393 . S
C4926 H4918 0.950 . S
C4926 C4924 1.391 . S
C4926 C4927 1.400 . S
C4927 C4926 1.400 . S
C4927 C4928 1.398 . S
C4927 C4933 1.491 . S
C4928 H4919 0.950 . S
C4928 C4927 1.398 . S
C4928 C4929 1.391 . S
C4929 H4917 0.950 . S
C4929 C4925 1.393 . S
C4929 C4928 1.391 . S
C4930 H4920 0.950 . S
C4930 C4931 1.386 . S
C4930 C4932 1.391 . S
C4931 C4930 1.386 . S
C4931 C4935 1.393 . S
C4932 H4921 0.950 . S
C4932 C4930 1.391 . S
C4932 C4933 1.400 . S
C4933 C4927 1.491 . S
C4933 C4932 1.400 . S
C4933 C4934 1.398 . S
C4934 H4922 0.950 . S
C4934 C4933 1.398 . S
C4934 C4935 1.391 . S
C4935 H4923 0.950 . S
C4935 C4931 1.393 . S
C4935 C4934 1.391 . S
H4936 C4944 0.950 . S
H4937 C4949 0.950 . S
H4938 C4946 0.917 1_556 S
H4939 C4948 0.950 . S
H4940 C4950 0.950 . S
H4941 C4952 0.950 . S
H4942 C4954 0.950 1_556 S
H4943 C4955 0.950 1_556 S
C4944 H4936 0.950 . S
C4944 C4945 1.386 . S
C4944 C4946 1.391 . S
C4945 C4944 1.386 . S
C4945 C4949 1.393 . S
C4946 H4938 0.917 1_554 S
C4946 C4944 1.391 . S
C4946 C4947 1.400 . S
C4947 C4946 1.400 . S
C4947 C4948 1.398 . S
C4947 C4953 1.491 . S
C4948 H4939 0.950 . S
C4948 C4947 1.398 . S
C4948 C4949 1.391 . S
C4949 H4937 0.950 . S
C4949 C4945 1.393 . S
C4949 C4948 1.391 . S
C4950 H4940 0.950 . S
C4950 C4951 1.386 . S
C4950 C4952 1.391 . S
C4951 C4950 1.386 . S
C4951 C4955 1.393 . S
C4952 H4941 0.950 . S
C4952 C4950 1.391 . S
C4952 C4953 1.400 . S
C4953 C4947 1.491 . S
C4953 C4952 1.400 . S
C4953 C4954 1.398 . S
C4954 H4942 0.950 1_554 S
C4954 C4953 1.398 . S
C4954 C4955 1.391 . S
C4955 H4943 0.950 1_554 S
C4955 C4951 1.393 . S
C4955 C4954 1.391 . S
H4956 C4964 0.950 . S
H4957 C4969 0.950 . S
H4958 C4966 0.950 . S
H4959 C4968 0.950 . S
H4960 C4970 0.950 . S
H4961 C4972 0.950 . S
H4962 C4974 0.950 . S
H4963 C4975 0.950 . S
C4964 H4956 0.950 . S
C4964 C4965 1.386 . S
C4964 C4966 1.391 . S
C4965 C4964 1.386 . S
C4965 C4969 1.393 . S
C4966 H4958 0.950 . S
C4966 C4964 1.391 . S
C4966 C4967 1.400 . S
C4967 C4966 1.400 . S
C4967 C4968 1.398 . S
C4967 C4973 1.491 . S
C4968 H4959 0.950 . S
C4968 C4967 1.398 . S
C4968 C4969 1.391 . S
C4969 H4957 0.950 . S
C4969 C4965 1.393 . S
C4969 C4968 1.391 . S
C4970 H4960 0.950 . S
C4970 C4971 1.386 . S
C4970 C4972 1.391 . S
C4971 C4970 1.386 . S
C4971 C4975 1.393 . S
C4972 H4961 0.950 . S
C4972 C4970 1.391 . S
C4972 C4973 1.400 . S
C4973 C4967 1.491 . S
C4973 C4972 1.400 . S
C4973 C4974 1.398 . S
C4974 H4962 0.950 . S
C4974 C4973 1.398 . S
C4974 C4975 1.391 . S
C4975 H4963 0.950 . S
C4975 C4971 1.393 . S
C4975 C4974 1.391 . S
H4976 C4984 0.950 . S
H4977 C4989 0.950 . S
H4978 C4986 0.950 . S
H4979 C4988 0.950 . S
H4980 C4990 0.950 1_554 S
H4981 C4992 0.950 . S
H4982 C4994 0.950 . S
H4983 C4995 0.950 . S
C4984 H4976 0.950 . S
C4984 C4985 1.386 . S
C4984 C4986 1.391 . S
C4985 C4984 1.386 . S
C4985 C4989 1.393 . S
C4986 H4978 0.950 . S
C4986 C4984 1.391 . S
C4986 C4987 1.400 . S
C4987 C4986 1.400 . S
C4987 C4988 1.398 . S
C4987 C4993 1.491 . S
C4988 H4979 0.950 . S
C4988 C4987 1.398 . S
C4988 C4989 1.391 . S
C4989 H4977 0.950 . S
C4989 C4985 1.393 . S
C4989 C4988 1.391 . S
C4990 H4980 0.950 1_556 S
C4990 C4991 1.386 . S
C4990 C4992 1.391 . S
C4991 C4990 1.386 . S
C4991 C4995 1.393 . S
C4992 H4981 0.950 . S
C4992 C4990 1.391 . S
C4992 C4993 1.400 . S
C4993 C4987 1.491 . S
C4993 C4992 1.400 . S
C4993 C4994 1.398 . S
C4994 H4982 0.950 . S
C4994 C4993 1.398 . S
C4994 C4995 1.391 . S
C4995 H4983 0.950 . S
C4995 C4991 1.393 . S
C4995 C4994 1.391 . S
H4996 C5004 0.950 . S
H4997 C5009 0.950 . S
H4998 C5006 0.950 . S
H4999 C5008 0.950 . S
H5000 C5010 0.950 . S
H5001 C5012 0.950 . S
H5002 C5014 0.950 . S
H5003 C5015 0.950 . S
C5004 H4996 0.950 . S
C5004 C5005 1.386 . S
C5004 C5006 1.391 . S
C5005 C5004 1.386 . S
C5005 C5009 1.393 . S
C5006 H4998 0.950 . S
C5006 C5004 1.391 . S
C5006 C5007 1.400 . S
C5007 C5006 1.400 . S
C5007 C5008 1.398 . S
C5007 C5013 1.491 . S
C5008 H4999 0.950 . S
C5008 C5007 1.398 . S
C5008 C5009 1.391 . S
C5009 H4997 0.950 . S
C5009 C5005 1.393 . S
C5009 C5008 1.391 . S
C5010 H5000 0.950 . S
C5010 C5011 1.386 . S
C5010 C5012 1.391 . S
C5011 C5010 1.386 . S
C5011 C5015 1.393 . S
C5012 H5001 0.950 . S
C5012 C5010 1.391 . S
C5012 C5013 1.400 . S
C5013 C5007 1.491 . S
C5013 C5012 1.400 . S
C5013 C5014 1.398 . S
C5014 H5002 0.950 . S
C5014 C5013 1.398 . S
C5014 C5015 1.391 . S
C5015 H5003 0.950 . S
C5015 C5011 1.393 . S
C5015 C5014 1.391 . S
H5016 C5024 0.950 . S
H5017 C5029 0.950 . S
H5018 C5026 0.950 . S
H5019 C5028 0.950 . S
H5020 C5030 0.950 . S
H5021 C5032 0.950 . S
H5022 C5034 0.950 . S
H5023 C5035 0.950 . S
C5024 H5016 0.950 . S
C5024 C5025 1.386 . S
C5024 C5026 1.391 . S
C5025 C5024 1.386 . S
C5025 C5029 1.393 . S
C5026 H5018 0.950 . S
C5026 C5024 1.391 . S
C5026 C5027 1.400 . S
C5027 C5026 1.400 . S
C5027 C5028 1.398 . S
C5027 C5033 1.491 . S
C5028 H5019 0.950 . S
C5028 C5027 1.398 . S
C5028 C5029 1.391 . S
C5029 H5017 0.950 . S
C5029 C5025 1.393 . S
C5029 C5028 1.391 . S
C5030 H5020 0.950 . S
C5030 C5031 1.386 . S
C5030 C5032 1.391 . S
C5031 C5030 1.386 . S
C5031 C5035 1.393 . S
C5032 H5021 0.950 . S
C5032 C5030 1.391 . S
C5032 C5033 1.400 . S
C5033 C5027 1.491 . S
C5033 C5032 1.400 . S
C5033 C5034 1.398 . S
C5034 H5022 0.950 . S
C5034 C5033 1.398 . S
C5034 C5035 1.391 . S
C5035 H5023 0.950 . S
C5035 C5031 1.393 . S
C5035 C5034 1.391 . S
H5036 C5044 0.950 . S
H5037 C5049 0.950 . S
H5038 C5046 0.950 . S
H5039 C5048 0.950 . S
H5040 C5050 0.950 . S
H5041 C5052 0.950 . S
H5042 C5054 0.950 . S
H5043 C5055 0.950 . S
C5044 H5036 0.950 . S
C5044 C5045 1.386 . S
C5044 C5046 1.391 . S
C5045 C5044 1.386 . S
C5045 C5049 1.393 . S
C5046 H5038 0.950 . S
C5046 C5044 1.391 . S
C5046 C5047 1.400 . S
C5047 C5046 1.400 . S
C5047 C5048 1.398 . S
C5047 C5053 1.491 . S
C5048 H5039 0.950 . S
C5048 C5047 1.398 . S
C5048 C5049 1.391 . S
C5049 H5037 0.950 . S
C5049 C5045 1.393 . S
C5049 C5048 1.391 . S
C5050 H5040 0.950 . S
C5050 C5051 1.386 . S
C5050 C5052 1.391 . S
C5051 C5050 1.386 . S
C5051 C5055 1.393 . S
C5052 H5041 0.950 . S
C5052 C5050 1.391 . S
C5052 C5053 1.400 . S
C5053 C5047 1.491 . S
C5053 C5052 1.400 . S
C5053 C5054 1.398 . S
C5054 H5042 0.950 . S
C5054 C5053 1.398 . S
C5054 C5055 1.391 . S
C5055 H5043 0.950 . S
C5055 C5051 1.393 . S
C5055 C5054 1.391 . S
H5056 C5064 0.950 . S
H5057 C5069 0.950 . S
H5058 C5066 0.950 . S
H5059 C5068 0.950 . S
H5060 C5070 0.950 . S
H5061 C5072 0.950 . S
H5062 C5074 0.950 . S
H5063 C5075 0.950 . S
C5064 H5056 0.950 . S
C5064 C5065 1.386 . S
C5064 C5066 1.391 . S
C5065 C5064 1.386 . S
C5065 C5069 1.393 . S
C5066 H5058 0.950 . S
C5066 C5064 1.391 . S
C5066 C5067 1.400 . S
C5067 C5066 1.400 . S
C5067 C5068 1.398 . S
C5067 C5073 1.491 . S
C5068 H5059 0.950 . S
C5068 C5067 1.398 . S
C5068 C5069 1.391 . S
C5069 H5057 0.950 . S
C5069 C5065 1.393 . S
C5069 C5068 1.391 . S
C5070 H5060 0.950 . S
C5070 C5071 1.386 . S
C5070 C5072 1.391 . S
C5071 C5070 1.386 . S
C5071 C5075 1.393 . S
C5072 H5061 0.950 . S
C5072 C5070 1.391 . S
C5072 C5073 1.400 . S
C5073 C5067 1.491 . S
C5073 C5072 1.400 . S
C5073 C5074 1.398 . S
C5074 H5062 0.950 . S
C5074 C5073 1.398 . S
C5074 C5075 1.391 . S
C5075 H5063 0.950 . S
C5075 C5071 1.393 . S
C5075 C5074 1.391 . S
H5076 C5084 0.950 . S
H5077 C5089 0.950 . S
H5078 C5086 0.950 . S
H5079 C5088 0.950 . S
H5080 C5090 0.950 . S
H5081 C5092 0.950 . S
H5082 C5094 0.950 . S
H5083 C5095 0.950 . S
C5084 H5076 0.950 . S
C5084 C5085 1.386 . S
C5084 C5086 1.391 . S
C5085 C5084 1.386 . S
C5085 C5089 1.393 . S
C5086 H5078 0.950 . S
C5086 C5084 1.391 . S
C5086 C5087 1.400 . S
C5087 C5086 1.400 . S
C5087 C5088 1.398 . S
C5087 C5093 1.491 . S
C5088 H5079 0.950 . S
C5088 C5087 1.398 . S
C5088 C5089 1.391 . S
C5089 H5077 0.950 . S
C5089 C5085 1.393 . S
C5089 C5088 1.391 . S
C5090 H5080 0.950 . S
C5090 C5091 1.386 . S
C5090 C5092 1.391 . S
C5091 C5090 1.386 . S
C5091 C5095 1.393 . S
C5092 H5081 0.950 . S
C5092 C5090 1.391 . S
C5092 C5093 1.400 . S
C5093 C5087 1.491 . S
C5093 C5092 1.400 . S
C5093 C5094 1.398 . S
C5094 H5082 0.950 . S
C5094 C5093 1.398 . S
C5094 C5095 1.391 . S
C5095 H5083 0.950 . S
C5095 C5091 1.393 . S
C5095 C5094 1.391 . S
H5096 C5104 0.950 . S
H5097 C5109 0.950 . S
H5098 C5106 0.950 . S
H5099 C5108 0.950 . S
H5100 C5110 0.950 . S
H5101 C5112 0.950 . S
H5102 C5114 0.950 . S
H5103 C5115 0.950 . S
C5104 H5096 0.950 . S
C5104 C5105 1.386 . S
C5104 C5106 1.391 1_655 S
C5105 C5104 1.386 . S
C5105 C5109 1.393 . S
C5106 H5098 0.950 . S
C5106 C5104 1.391 1_455 S
C5106 C5107 1.400 1_455 S
C5107 C5106 1.400 1_655 S
C5107 C5108 1.398 . S
C5107 C5113 1.491 1_655 S
C5108 H5099 0.950 . S
C5108 C5107 1.398 . S
C5108 C5109 1.391 . S
C5109 H5097 0.950 . S
C5109 C5105 1.393 . S
C5109 C5108 1.391 . S
C5110 H5100 0.950 . S
C5110 C5111 1.386 . S
C5110 C5112 1.391 1_455 S
C5111 C5110 1.386 . S
C5111 C5115 1.393 . S
C5112 H5101 0.950 . S
C5112 C5110 1.391 1_655 S
C5112 C5113 1.400 1_655 S
C5113 C5107 1.491 1_455 S
C5113 C5112 1.400 1_455 S
C5113 C5114 1.398 . S
C5114 H5102 0.950 . S
C5114 C5113 1.398 . S
C5114 C5115 1.391 . S
C5115 H5103 0.950 . S
C5115 C5111 1.393 . S
C5115 C5114 1.391 . S
H5116 C5124 0.950 . S
H5117 C5129 0.950 . S
H5118 C5126 0.950 . S
H5119 C5128 0.950 . S
H5120 C5130 0.950 . S
H5121 C5132 0.950 . S
H5122 C5134 0.950 . S
H5123 C5135 0.950 . S
C5124 H5116 0.950 . S
C5124 C5125 1.386 . S
C5124 C5126 1.391 . S
C5125 C5124 1.386 . S
C5125 C5129 1.393 . S
C5126 H5118 0.950 . S
C5126 C5124 1.391 . S
C5126 C5127 1.400 . S
C5127 C5126 1.400 . S
C5127 C5128 1.398 . S
C5127 C5133 1.491 . S
C5128 H5119 0.950 . S
C5128 C5127 1.398 . S
C5128 C5129 1.391 . S
C5129 H5117 0.950 . S
C5129 C5125 1.393 . S
C5129 C5128 1.391 . S
C5130 H5120 0.950 . S
C5130 C5131 1.386 . S
C5130 C5132 1.391 . S
C5131 C5130 1.386 . S
C5131 C5135 1.393 . S
C5132 H5121 0.950 . S
C5132 C5130 1.391 . S
C5132 C5133 1.400 . S
C5133 C5127 1.491 . S
C5133 C5132 1.400 . S
C5133 C5134 1.398 . S
C5134 H5122 0.950 . S
C5134 C5133 1.398 . S
C5134 C5135 1.391 . S
C5135 H5123 0.950 . S
C5135 C5131 1.393 . S
C5135 C5134 1.391 . S
H5136 C5144 0.950 . S
H5137 C5149 0.950 . S
H5138 C5146 0.950 . S
H5139 C5148 0.950 . S
H5140 C5150 0.950 . S
H5141 C5152 0.950 . S
H5142 C5154 0.950 . S
H5143 C5155 0.950 . S
C5144 H5136 0.950 . S
C5144 C5145 1.386 . S
C5144 C5146 1.391 . S
C5145 C5144 1.386 . S
C5145 C5149 1.393 . S
C5146 H5138 0.950 . S
C5146 C5144 1.391 . S
C5146 C5147 1.400 . S
C5147 C5146 1.400 . S
C5147 C5148 1.398 . S
C5147 C5153 1.491 . S
C5148 H5139 0.950 . S
C5148 C5147 1.398 . S
C5148 C5149 1.391 . S
C5149 H5137 0.950 . S
C5149 C5145 1.393 . S
C5149 C5148 1.391 . S
C5150 H5140 0.950 . S
C5150 C5151 1.386 . S
C5150 C5152 1.391 . S
C5151 C5150 1.386 . S
C5151 C5155 1.393 . S
C5152 H5141 0.950 . S
C5152 C5150 1.391 . S
C5152 C5153 1.400 . S
C5153 C5147 1.491 . S
C5153 C5152 1.400 . S
C5153 C5154 1.398 . S
C5154 H5142 0.950 . S
C5154 C5153 1.398 . S
C5154 C5155 1.391 . S
C5155 H5143 0.950 . S
C5155 C5151 1.393 . S
C5155 C5154 1.391 . S
H5156 C5164 0.950 . S
H5157 C5169 0.950 . S
H5158 C5166 0.950 . S
H5159 C5168 0.950 . S
H5160 C5170 0.950 . S
H5161 C5172 0.950 . S
H5162 C5174 0.950 . S
H5163 C5175 0.950 . S
C5164 H5156 0.950 . S
C5164 C5165 1.386 . S
C5164 C5166 1.391 . S
C5165 C5164 1.386 . S
C5165 C5169 1.393 . S
C5166 H5158 0.950 . S
C5166 C5164 1.391 . S
C5166 C5167 1.400 . S
C5167 C5166 1.400 . S
C5167 C5168 1.398 . S
C5167 C5173 1.491 . S
C5168 H5159 0.950 . S
C5168 C5167 1.398 . S
C5168 C5169 1.391 . S
C5169 H5157 0.950 . S
C5169 C5165 1.393 . S
C5169 C5168 1.391 . S
C5170 H5160 0.950 . S
C5170 C5171 1.386 . S
C5170 C5172 1.391 . S
C5171 C5170 1.386 . S
C5171 C5175 1.393 . S
C5172 H5161 0.950 . S
C5172 C5170 1.391 . S
C5172 C5173 1.400 . S
C5173 C5167 1.491 . S
C5173 C5172 1.400 . S
C5173 C5174 1.398 . S
C5174 H5162 0.950 . S
C5174 C5173 1.398 . S
C5174 C5175 1.391 . S
C5175 H5163 0.950 . S
C5175 C5171 1.393 . S
C5175 C5174 1.391 . S
H5176 C5184 0.950 . S
H5177 C5189 0.950 . S
H5178 C5186 0.950 1_455 S
H5179 C5188 0.950 . S
H5180 C5190 0.950 . S
H5181 C5192 0.950 . S
H5182 C5194 0.950 . S
H5183 C5195 0.950 . S
C5184 H5176 0.950 . S
C5184 C5185 1.386 . S
C5184 C5186 1.391 . S
C5185 C5184 1.386 . S
C5185 C5189 1.393 . S
C5186 H5178 0.950 1_655 S
C5186 C5184 1.391 . S
C5186 C5187 1.400 . S
C5187 C5186 1.400 . S
C5187 C5188 1.398 . S
C5187 C5193 1.491 . S
C5188 H5179 0.950 . S
C5188 C5187 1.398 . S
C5188 C5189 1.391 . S
C5189 H5177 0.950 . S
C5189 C5185 1.393 . S
C5189 C5188 1.391 . S
C5190 H5180 0.950 . S
C5190 C5191 1.386 1_655 S
C5190 C5192 1.391 . S
C5191 C5190 1.386 1_455 S
C5191 C5195 1.393 . S
C5192 H5181 0.950 . S
C5192 C5190 1.391 . S
C5192 C5193 1.400 . S
C5193 C5187 1.491 . S
C5193 C5192 1.400 . S
C5193 C5194 1.398 1_655 S
C5194 H5182 0.950 . S
C5194 C5193 1.398 1_455 S
C5194 C5195 1.391 . S
C5195 H5183 0.950 . S
C5195 C5191 1.393 . S
C5195 C5194 1.391 . S
H5196 C5204 0.950 . S
H5197 C5209 0.950 . S
H5198 C5206 0.950 . S
H5199 C5208 0.950 . S
H5200 C5210 0.950 . S
H5201 C5212 0.950 . S
H5202 C5214 0.950 . S
H5203 C5215 0.950 . S
C5204 H5196 0.950 . S
C5204 C5205 1.386 . S
C5204 C5206 1.391 . S
C5205 C5204 1.386 . S
C5205 C5209 1.393 . S
C5206 H5198 0.950 . S
C5206 C5204 1.391 . S
C5206 C5207 1.400 . S
C5207 C5206 1.400 . S
C5207 C5208 1.398 . S
C5207 C5213 1.491 . S
C5208 H5199 0.950 . S
C5208 C5207 1.398 . S
C5208 C5209 1.391 . S
C5209 H5197 0.950 . S
C5209 C5205 1.393 . S
C5209 C5208 1.391 . S
C5210 H5200 0.950 . S
C5210 C5211 1.386 . S
C5210 C5212 1.391 . S
C5211 C5210 1.386 . S
C5211 C5215 1.393 . S
C5212 H5201 0.950 . S
C5212 C5210 1.391 . S
C5212 C5213 1.400 . S
C5213 C5207 1.491 . S
C5213 C5212 1.400 . S
C5213 C5214 1.398 . S
C5214 H5202 0.950 . S
C5214 C5213 1.398 . S
C5214 C5215 1.391 . S
C5215 H5203 0.950 . S
C5215 C5211 1.393 . S
C5215 C5214 1.391 . S
H5216 C5224 0.950 . S
H5217 C5229 0.950 . S
H5218 C5226 0.950 . S
H5219 C5228 0.950 . S
H5220 C5230 0.950 . S
H5221 C5232 0.950 . S
H5222 C5234 0.950 . S
H5223 C5235 0.950 . S
C5224 H5216 0.950 . S
C5224 C5225 1.386 . S
C5224 C5226 1.391 . S
C5225 C5224 1.386 . S
C5225 C5229 1.393 . S
C5226 H5218 0.950 . S
C5226 C5224 1.391 . S
C5226 C5227 1.400 . S
C5227 C5226 1.400 . S
C5227 C5228 1.398 . S
C5227 C5233 1.491 . S
C5228 H5219 0.950 . S
C5228 C5227 1.398 . S
C5228 C5229 1.391 . S
C5229 H5217 0.950 . S
C5229 C5225 1.393 . S
C5229 C5228 1.391 . S
C5230 H5220 0.950 . S
C5230 C5231 1.386 . S
C5230 C5232 1.391 . S
C5231 C5230 1.386 . S
C5231 C5235 1.393 . S
C5232 H5221 0.950 . S
C5232 C5230 1.391 . S
C5232 C5233 1.400 . S
C5233 C5227 1.491 . S
C5233 C5232 1.400 . S
C5233 C5234 1.398 . S
C5234 H5222 0.950 . S
C5234 C5233 1.398 . S
C5234 C5235 1.391 . S
C5235 H5223 0.950 . S
C5235 C5231 1.393 . S
C5235 C5234 1.391 . S
H5236 C5244 0.950 . S
H5237 C5249 0.950 . S
H5238 C5246 0.950 . S
H5239 C5248 0.950 . S
H5240 C5250 0.950 . S
H5241 C5252 0.950 . S
H5242 C5254 0.950 . S
H5243 C5255 0.950 . S
C5244 H5236 0.950 . S
C5244 C5245 1.386 . S
C5244 C5246 1.391 . S
C5245 C5244 1.386 . S
C5245 C5249 1.393 . S
C5246 H5238 0.950 . S
C5246 C5244 1.391 . S
C5246 C5247 1.400 . S
C5247 C5246 1.400 . S
C5247 C5248 1.398 . S
C5247 C5253 1.491 . S
C5248 H5239 0.950 . S
C5248 C5247 1.398 . S
C5248 C5249 1.391 . S
C5249 H5237 0.950 . S
C5249 C5245 1.393 . S
C5249 C5248 1.391 . S
C5250 H5240 0.950 . S
C5250 C5251 1.386 1_565 S
C5250 C5252 1.391 . S
C5251 C5250 1.386 1_545 S
C5251 C5255 1.393 . S
C5252 H5241 0.950 . S
C5252 C5250 1.391 . S
C5252 C5253 1.400 . S
C5253 C5247 1.491 . S
C5253 C5252 1.400 . S
C5253 C5254 1.398 1_565 S
C5254 H5242 0.950 . S
C5254 C5253 1.398 1_545 S
C5254 C5255 1.391 . S
C5255 H5243 0.950 . S
C5255 C5251 1.393 . S
C5255 C5254 1.391 . S
H5256 C5264 0.950 . S
H5257 C5269 0.950 . S
H5258 C5266 0.950 . S
H5259 C5268 0.950 . S
H5260 C5270 0.950 . S
H5261 C5272 0.950 . S
H5262 C5274 0.950 . S
H5263 C5275 0.950 . S
C5264 H5256 0.950 . S
C5264 C5265 1.386 . S
C5264 C5266 1.391 . S
C5265 C5264 1.386 . S
C5265 C5269 1.393 . S
C5266 H5258 0.950 . S
C5266 C5264 1.391 . S
C5266 C5267 1.400 . S
C5267 C5266 1.400 . S
C5267 C5268 1.398 . S
C5267 C5273 1.491 . S
C5268 H5259 0.950 . S
C5268 C5267 1.398 . S
C5268 C5269 1.391 . S
C5269 H5257 0.950 . S
C5269 C5265 1.393 . S
C5269 C5268 1.391 . S
C5270 H5260 0.950 . S
C5270 C5271 1.386 . S
C5270 C5272 1.391 . S
C5271 C5270 1.386 . S
C5271 C5275 1.393 . S
C5272 H5261 0.950 . S
C5272 C5270 1.391 . S
C5272 C5273 1.400 . S
C5273 C5267 1.491 . S
C5273 C5272 1.400 . S
C5273 C5274 1.398 . S
C5274 H5262 0.950 . S
C5274 C5273 1.398 . S
C5274 C5275 1.391 . S
C5275 H5263 0.950 . S
C5275 C5271 1.393 . S
C5275 C5274 1.391 . S
H5276 C5284 0.950 . S
H5277 C5289 0.950 . S
H5278 C5286 0.950 . S
H5279 C5288 0.940 1_556 S
H5280 C5290 0.950 1_556 S
H5281 C5292 0.950 1_556 S
H5282 C5294 0.950 . S
H5283 C5295 0.950 . S
C5284 H5276 0.950 . S
C5284 C5285 1.386 . S
C5284 C5286 1.391 . S
C5285 C5284 1.386 . S
C5285 C5289 1.393 1_554 S
C5286 H5278 0.950 . S
C5286 C5284 1.391 . S
C5286 C5287 1.400 . S
C5287 C5286 1.400 . S
C5287 C5288 1.412 . S
C5287 C5293 1.491 . S
C5288 H5279 0.940 1_554 S
C5288 C5287 1.412 . S
C5288 C5289 1.388 1_554 S
C5289 H5277 0.950 . S
C5289 C5285 1.393 1_556 S
C5289 C5288 1.388 1_556 S
C5290 H5280 0.950 1_554 S
C5290 C5291 1.386 . S
C5290 C5292 1.391 . S
C5291 C5290 1.386 . S
C5291 C5295 1.393 . S
C5292 H5281 0.950 1_554 S
C5292 C5290 1.391 . S
C5292 C5293 1.400 . S
C5293 C5287 1.491 . S
C5293 C5292 1.400 . S
C5293 C5294 1.398 . S
C5294 H5282 0.950 . S
C5294 C5293 1.398 . S
C5294 C5295 1.391 . S
C5295 H5283 0.950 . S
C5295 C5291 1.393 . S
C5295 C5294 1.391 . S
H5296 C5304 0.950 . S
H5297 C5309 0.950 . S
H5298 C5306 0.950 . S
H5299 C5308 0.950 . S
H5300 C5310 0.950 . S
H5301 C5312 0.950 . S
H5302 C5314 0.950 . S
H5303 C5315 0.950 . S
C5304 H5296 0.950 . S
C5304 C5305 1.386 . S
C5304 C5306 1.391 . S
C5305 C5304 1.386 . S
C5305 C5309 1.393 . S
C5306 H5298 0.950 . S
C5306 C5304 1.391 . S
C5306 C5307 1.400 . S
C5307 C5306 1.400 . S
C5307 C5308 1.398 . S
C5307 C5313 1.491 . S
C5308 H5299 0.950 . S
C5308 C5307 1.398 . S
C5308 C5309 1.391 . S
C5309 H5297 0.950 . S
C5309 C5305 1.393 . S
C5309 C5308 1.391 . S
C5310 H5300 0.950 . S
C5310 C5311 1.386 . S
C5310 C5312 1.391 . S
C5311 C5310 1.386 . S
C5311 C5315 1.393 . S
C5312 H5301 0.950 . S
C5312 C5310 1.391 . S
C5312 C5313 1.400 . S
C5313 C5307 1.491 . S
C5313 C5312 1.400 . S
C5313 C5314 1.398 . S
C5314 H5302 0.950 . S
C5314 C5313 1.398 . S
C5314 C5315 1.391 . S
C5315 H5303 0.950 . S
C5315 C5311 1.393 . S
C5315 C5314 1.391 . S
H5316 C5324 0.950 . S
H5317 C5329 0.950 . S
H5318 C5326 0.950 . S
H5319 C5328 0.950 . S
H5320 C5330 1.003 . S
H5321 C5332 0.950 1_556 S
H5322 C5334 0.950 . S
H5323 C5335 0.950 . S
C5324 H5316 0.950 . S
C5324 C5325 1.386 . S
C5324 C5326 1.391 . S
C5325 C5324 1.386 . S
C5325 C5329 1.393 . S
C5326 H5318 0.950 . S
C5326 C5324 1.391 . S
C5326 C5327 1.400 . S
C5327 C5326 1.400 . S
C5327 C5328 1.398 . S
C5327 C5333 1.491 . S
C5328 H5319 0.950 . S
C5328 C5327 1.398 . S
C5328 C5329 1.391 . S
C5329 H5317 0.950 . S
C5329 C5325 1.393 . S
C5329 C5328 1.391 . S
C5330 H5320 1.003 . S
C5330 C5331 1.352 1_556 S
C5330 C5332 1.374 1_556 S
C5331 C5330 1.352 1_554 S
C5331 C5335 1.393 . S
C5332 H5321 0.950 1_554 S
C5332 C5330 1.374 1_554 S
C5332 C5333 1.400 . S
C5333 C5327 1.491 . S
C5333 C5332 1.400 . S
C5333 C5334 1.398 . S
C5334 H5322 0.950 . S
C5334 C5333 1.398 . S
C5334 C5335 1.391 . S
C5335 H5323 0.950 . S
C5335 C5331 1.393 . S
C5335 C5334 1.391 . S
H5336 C5344 0.950 . S
H5337 C5349 0.950 . S
H5338 C5346 0.950 . S
H5339 C5348 0.950 . S
H5340 C5350 0.950 . S
H5341 C5352 0.950 . S
H5342 C5354 0.950 . S
H5343 C5355 0.950 . S
C5344 H5336 0.950 . S
C5344 C5345 1.386 . S
C5344 C5346 1.391 . S
C5345 C5344 1.386 . S
C5345 C5349 1.393 . S
C5346 H5338 0.950 . S
C5346 C5344 1.391 . S
C5346 C5347 1.400 . S
C5347 C5346 1.400 . S
C5347 C5348 1.398 . S
C5347 C5353 1.491 . S
C5348 H5339 0.950 . S
C5348 C5347 1.398 . S
C5348 C5349 1.391 . S
C5349 H5337 0.950 . S
C5349 C5345 1.393 . S
C5349 C5348 1.391 . S
C5350 H5340 0.950 . S
C5350 C5351 1.386 . S
C5350 C5352 1.391 . S
C5351 C5350 1.386 . S
C5351 C5355 1.393 . S
C5352 H5341 0.950 . S
C5352 C5350 1.391 . S
C5352 C5353 1.400 . S
C5353 C5347 1.491 . S
C5353 C5352 1.400 . S
C5353 C5354 1.398 . S
C5354 H5342 0.950 . S
C5354 C5353 1.398 . S
C5354 C5355 1.391 . S
C5355 H5343 0.950 . S
C5355 C5351 1.393 . S
C5355 C5354 1.391 . S
H5356 C5364 0.950 . S
H5357 C5369 0.950 . S
H5358 C5366 0.950 . S
H5359 C5368 0.950 . S
H5360 C5370 0.950 . S
H5361 C5372 0.950 . S
H5362 C5374 0.950 . S
H5363 C5375 0.950 . S
C5364 H5356 0.950 . S
C5364 C5365 1.386 . S
C5364 C5366 1.391 . S
C5365 C5364 1.386 . S
C5365 C5369 1.393 . S
C5366 H5358 0.950 . S
C5366 C5364 1.391 . S
C5366 C5367 1.400 . S
C5367 C5366 1.400 . S
C5367 C5368 1.398 . S
C5367 C5373 1.491 . S
C5368 H5359 0.950 . S
C5368 C5367 1.398 . S
C5368 C5369 1.391 . S
C5369 H5357 0.950 . S
C5369 C5365 1.393 . S
C5369 C5368 1.391 . S
C5370 H5360 0.950 . S
C5370 C5371 1.386 . S
C5370 C5372 1.391 . S
C5371 C5370 1.386 . S
C5371 C5375 1.393 . S
C5372 H5361 0.950 . S
C5372 C5370 1.391 . S
C5372 C5373 1.400 . S
C5373 C5367 1.491 . S
C5373 C5372 1.400 . S
C5373 C5374 1.398 . S
C5374 H5362 0.950 . S
C5374 C5373 1.398 . S
C5374 C5375 1.391 . S
C5375 H5363 0.950 . S
C5375 C5371 1.393 . S
C5375 C5374 1.391 . S
C3465 C665 1.678 . S
C3471 C2168 1.579 . S
C3485 C381 2.178 . S
C3491 C2259 2.167 . S
C3505 C460 1.592 . S
C3511 C2336 1.613 . S
C3531 C2434 1.536 . S
C3525 C585 1.662 . S
C3545 C108 1.575 . S
C3551 C2518 1.515 . S
C3571 C2590 0.949 . S
C3565 C196 1.020 . S
C3591 C2679 0.819 . S
C3585 C313 0.837 . S
C3605 C49 1.279 . S
C3611 C2756 1.176 . S
C3631 C2175 1.957 . S
C3625 C1457 2.055 . S
C3645 C1545 0.502 . S
C3651 C2266 0.566 . S
C3671 C2343 1.133 . S
C3665 C1721 1.182 . S
C3691 C2420 1.669 . S
C3685 C1113 1.713 . S
C3705 C1428 2.128 1_455 S
C3711 C2504 1.995 . S
C3731 C2606 1.027 . S
C3725 C1516 1.103 . S
C3751 C2686 0.734 . S
C3745 C1692 0.670 . S
C3771 C2763 1.389 . S
C3765 C1085 1.476 . S
C3791 C2182 1.362 . S
C3785 C988 1.498 . S
C3805 C1817 1.987 . S
C3811 C2847 1.924 . S
C3831 C2935 2.078 . S
C3825 C2081 2.264 . S
C3851 C3008 0.423 . S
C3845 C1993 0.372 . S
C3865 C761 0.716 . S
C3871 C2770 0.753 . S
C3885 C821 1.422 . S
C3891 C2350 1.399 . S
C3905 C2053 2.357 . S
C3911 C3099 2.271 . S
C3931 C3176 0.653 . S
C3925 C1868 0.670 . S
C3951 C2179 1.597 1_565 S
C3945 C372 1.668 . S
C3971 C3194 2.154 . S
C3965 C645 2.179 . S
C3985 C577 1.605 . S
C3991 C2347 1.600 . S
C4005 C497 1.660 . S
C4011 C3094 1.533 . S
C4031 C2506 1.494 . S
C4025 C57 1.575 . S
C4045 C293 0.997 . S
C4051 C2938 0.899 . S
C4071 C2690 0.819 1_566 S
C4065 C205 0.832 . S
C4091 C3271 1.127 . S
C4085 C145 1.270 . S
C4111 C2186 1.957 . S
C4105 C909 2.034 . S
C4131 C3178 0.556 . S
C4125 C1956 0.495 . S
C4145 C724 1.174 . S
C4151 C2354 1.148 . S
C4165 C1780 1.721 . S
C4171 C3103 1.658 . S
C4185 C937 2.132 . S
C4191 C2515 1.984 . S
C4211 C2931 1.042 . S
C4205 C1985 1.095 . S
C4225 C753 0.667 . S
C4231 C2674 0.732 . S
C4245 C1809 1.470 . S
C4251 C3278 1.356 . S
C4265 C1173 1.499 . S
C4271 C2170 1.362 . S
C4285 C1105 1.975 . S
C4291 C2858 1.930 . S
C4305 C1633 2.262 . S
C4311 C2588 2.094 . S
C4325 C1553 0.408 . S
C4331 C3019 0.469 . S
C4351 C3262 0.725 . S
C4345 C1729 0.747 . S
C4365 C1340 1.428 . S
C4371 C2338 1.381 . S
C4391 C2438 2.271 . S
C4385 C1604 2.355 . S
C4411 C2263 0.705 . S
C4405 C1252 0.645 . S
C4425 C489 1.679 . S
C4431 C3344 1.592 . S
C4451 C3183 2.158 . S
C4445 C557 2.186 . S
C4465 C636 1.595 1_554 S
C4471 C3428 1.597 . S
C4485 C409 1.663 1_655 S
C4491 C3106 1.536 . S
C4505 C284 1.569 . S
C4511 C2854 1.507 . S
C4531 C2926 0.894 . S
C4525 C20 1.000 . S
C4551 C3015 0.819 . S
C4545 C137 0.836 . S
C4571 C3260 1.178 . S
C4565 C225 1.274 . S
C4591 C3351 1.958 . S
C4585 C1641 2.036 . S
C4605 C1193 0.503 . S
C4611 C3190 0.594 . S
C4631 C3435 1.132 . S
C4625 C1289 1.183 . S
C4651 C3092 1.687 . S
C4645 C1377 1.706 . S
C4671 C2840 2.012 . S
C4665 C1613 2.145 . S
C4685 C1164 1.104 . S
C4691 C2942 1.026 . S
C4711 C3022 0.706 . S
C4705 C1261 0.661 . S
C4725 C1349 1.465 . S
C4731 C3267 1.353 . S
C4751 C3358 1.402 . S
C4745 C1965 1.503 . S
C4765 C849 1.989 . S
C4771 C2511 1.916 . S
C4791 C2599 2.104 . S
C4785 C929 2.272 . S
C4811 C2672 0.485 . S
C4805 C1017 0.344 . S
C4831 C3274 0.736 . S
C4825 C1897 0.706 . S
C4845 C1789 1.438 . S
C4851 C3442 1.366 . S
C4871 C2427 2.287 . S
C4865 C900 2.351 . S
C4891 C2252 0.650 . S
C4885 C733 0.672 . S
C4905 C548 1.675 . S
C4911 C3355 1.595 . S
C4931 C2270 2.157 . S
C4925 C469 2.177 . S
C4945 C401 1.597 . S
C4951 C3439 1.586 . S
C4965 C673 1.661 . S
C4971 C2422 1.531 . S
C4985 C233 1.577 . S
C4991 C2842 1.501 . S
C5011 C2602 0.957 . S
C5005 C117 1.030 . S
C5025 C29 0.840 . S
C5031 C3026 0.816 . S
C5045 C321 1.273 . S
C5051 C2767 1.133 . S
C5071 C3362 1.950 . S
C5065 C2044 2.029 . S
C5085 C997 0.493 . S
C5091 C2254 0.564 . S
C5111 C3446 1.130 . S
C5105 C1877 1.180 . S
C5125 C812 1.702 . S
C5131 C2431 1.682 . S
C5145 C2073 2.132 . S
C5151 C2851 2.004 . S
C5171 C2595 1.062 . S
C5165 C1025 1.095 . S
C5185 C1905 0.661 . S
C5191 C3010 0.722 . S
C5211 C2774 1.360 . S
C5205 C841 1.460 . S
C5231 C3346 1.399 . S
C5225 C1525 1.503 . S
C5251 C2522 1.911 1_655 S
C5245 C1369 1.983 . S
C5265 C1465 2.260 . S
C5271 C2924 2.088 . S
C5291 C2683 0.465 . S
C5285 C1201 0.333 . S
C5305 C1281 0.718 . S
C5311 C2758 0.751 . S
C5325 C1076 1.432 . S
C5331 C3430 1.412 . S
C5351 C3110 2.280 . S
C5345 C1437 2.355 . S
C5371 C3187 0.662 . S
C5365 C1701 0.675 . S
