# Generated by pormake.
# Topology eea, (3,6)-cn, num edge types: 1
# Building blocks:
#     Node 0, Type 0, BuildingBlock: WUSLED_clean_sbu_0, # of connection points: 3
#     Node 1, Type 0, BuildingBlock: WUSLED_clean_sbu_0, # of connection points: 3
#     Node 2, Type 0, BuildingBlock: WUSLED_clean_sbu_0, # of connection points: 3
#     Node 3, Type 0, BuildingBlock: WUSLED_clean_sbu_0, # of connection points: 3
#     Node 4, Type 0, BuildingBlock: WUSLED_clean_sbu_0, # of connection points: 3
#     Node 5, Type 0, BuildingBlock: WUSLED_clean_sbu_0, # of connection points: 3
#     Node 6, Type 0, BuildingBlock: WUSLED_clean_sbu_0, # of connection points: 3
#     Node 7, Type 0, BuildingBlock: WUSLED_clean_sbu_0, # of connection points: 3
#     Node 8, Type 0, BuildingBlock: WUSLED_clean_sbu_0, # of connection points: 3
#     Node 9, Type 0, BuildingBlock: WUSLED_clean_sbu_0, # of connection points: 3
#     Node 10, Type 0, BuildingBlock: WUSLED_clean_sbu_0, # of connection points: 3
#     Node 11, Type 0, BuildingBlock: WUSLED_clean_sbu_0, # of connection points: 3
#     Node 12, Type 0, BuildingBlock: WUSLED_clean_sbu_0, # of connection points: 3
#     Node 13, Type 0, BuildingBlock: WUSLED_clean_sbu_0, # of connection points: 3
#     Node 14, Type 0, BuildingBlock: WUSLED_clean_sbu_0, # of connection points: 3
#     Node 15, Type 0, BuildingBlock: WUSLED_clean_sbu_0, # of connection points: 3
#     Node 16, Type 0, BuildingBlock: WUSLED_clean_sbu_0, # of connection points: 3
#     Node 17, Type 0, BuildingBlock: WUSLED_clean_sbu_0, # of connection points: 3
#     Node 18, Type 1, BuildingBlock: CUKXOW_clean_sbu_0, # of connection points: 6
#     Node 19, Type 1, BuildingBlock: CUKXOW_clean_sbu_0, # of connection points: 6
#     Node 20, Type 1, BuildingBlock: CUKXOW_clean_sbu_0, # of connection points: 6
#     Node 21, Type 1, BuildingBlock: CUKXOW_clean_sbu_0, # of connection points: 6
#     Node 22, Type 1, BuildingBlock: CUKXOW_clean_sbu_0, # of connection points: 6
#     Node 23, Type 1, BuildingBlock: CUKXOW_clean_sbu_0, # of connection points: 6
#     Node 24, Type 1, BuildingBlock: CUKXOW_clean_sbu_0, # of connection points: 6
#     Node 25, Type 1, BuildingBlock: CUKXOW_clean_sbu_0, # of connection points: 6
#     Node 26, Type 1, BuildingBlock: CUKXOW_clean_sbu_0, # of connection points: 6
#     Edge 27, Type (0, 1), BuildingBlock: OJICUG_clean_linker_0, # of connection points: 2
#     Edge 28, Type (0, 1), BuildingBlock: OJICUG_clean_linker_0, # of connection points: 2
#     Edge 29, Type (0, 1), BuildingBlock: OJICUG_clean_linker_0, # of connection points: 2
#     Edge 30, Type (0, 1), BuildingBlock: OJICUG_clean_linker_0, # of connection points: 2
#     Edge 31, Type (0, 1), BuildingBlock: OJICUG_clean_linker_0, # of connection points: 2
#     Edge 32, Type (0, 1), BuildingBlock: OJICUG_clean_linker_0, # of connection points: 2
#     Edge 33, Type (0, 1), BuildingBlock: OJICUG_clean_linker_0, # of connection points: 2
#     Edge 34, Type (0, 1), BuildingBlock: OJICUG_clean_linker_0, # of connection points: 2
#     Edge 35, Type (0, 1), BuildingBlock: OJICUG_clean_linker_0, # of connection points: 2
#     Edge 36, Type (0, 1), BuildingBlock: OJICUG_clean_linker_0, # of connection points: 2
#     Edge 37, Type (0, 1), BuildingBlock: OJICUG_clean_linker_0, # of connection points: 2
#     Edge 38, Type (0, 1), BuildingBlock: OJICUG_clean_linker_0, # of connection points: 2
#     Edge 39, Type (0, 1), BuildingBlock: OJICUG_clean_linker_0, # of connection points: 2
#     Edge 40, Type (0, 1), BuildingBlock: OJICUG_clean_linker_0, # of connection points: 2
#     Edge 41, Type (0, 1), BuildingBlock: OJICUG_clean_linker_0, # of connection points: 2
#     Edge 42, Type (0, 1), BuildingBlock: OJICUG_clean_linker_0, # of connection points: 2
#     Edge 43, Type (0, 1), BuildingBlock: OJICUG_clean_linker_0, # of connection points: 2
#     Edge 44, Type (0, 1), BuildingBlock: OJICUG_clean_linker_0, # of connection points: 2
#     Edge 45, Type (0, 1), BuildingBlock: OJICUG_clean_linker_0, # of connection points: 2
#     Edge 46, Type (0, 1), BuildingBlock: OJICUG_clean_linker_0, # of connection points: 2
#     Edge 47, Type (0, 1), BuildingBlock: OJICUG_clean_linker_0, # of connection points: 2
#     Edge 48, Type (0, 1), BuildingBlock: OJICUG_clean_linker_0, # of connection points: 2
#     Edge 49, Type (0, 1), BuildingBlock: OJICUG_clean_linker_0, # of connection points: 2
#     Edge 50, Type (0, 1), BuildingBlock: OJICUG_clean_linker_0, # of connection points: 2
#     Edge 51, Type (0, 1), BuildingBlock: OJICUG_clean_linker_0, # of connection points: 2
#     Edge 52, Type (0, 1), BuildingBlock: OJICUG_clean_linker_0, # of connection points: 2
#     Edge 53, Type (0, 1), BuildingBlock: OJICUG_clean_linker_0, # of connection points: 2
#     Edge 54, Type (0, 1), BuildingBlock: OJICUG_clean_linker_0, # of connection points: 2
#     Edge 55, Type (0, 1), BuildingBlock: OJICUG_clean_linker_0, # of connection points: 2
#     Edge 56, Type (0, 1), BuildingBlock: OJICUG_clean_linker_0, # of connection points: 2
#     Edge 57, Type (0, 1), BuildingBlock: OJICUG_clean_linker_0, # of connection points: 2
#     Edge 58, Type (0, 1), BuildingBlock: OJICUG_clean_linker_0, # of connection points: 2
#     Edge 59, Type (0, 1), BuildingBlock: OJICUG_clean_linker_0, # of connection points: 2
#     Edge 60, Type (0, 1), BuildingBlock: OJICUG_clean_linker_0, # of connection points: 2
#     Edge 61, Type (0, 1), BuildingBlock: OJICUG_clean_linker_0, # of connection points: 2
#     Edge 62, Type (0, 1), BuildingBlock: OJICUG_clean_linker_0, # of connection points: 2
#     Edge 63, Type (0, 1), BuildingBlock: OJICUG_clean_linker_0, # of connection points: 2
#     Edge 64, Type (0, 1), BuildingBlock: OJICUG_clean_linker_0, # of connection points: 2
#     Edge 65, Type (0, 1), BuildingBlock: OJICUG_clean_linker_0, # of connection points: 2
#     Edge 66, Type (0, 1), BuildingBlock: OJICUG_clean_linker_0, # of connection points: 2
#     Edge 67, Type (0, 1), BuildingBlock: OJICUG_clean_linker_0, # of connection points: 2
#     Edge 68, Type (0, 1), BuildingBlock: OJICUG_clean_linker_0, # of connection points: 2
#     Edge 69, Type (0, 1), BuildingBlock: OJICUG_clean_linker_0, # of connection points: 2
#     Edge 70, Type (0, 1), BuildingBlock: OJICUG_clean_linker_0, # of connection points: 2
#     Edge 71, Type (0, 1), BuildingBlock: OJICUG_clean_linker_0, # of connection points: 2
#     Edge 72, Type (0, 1), BuildingBlock: OJICUG_clean_linker_0, # of connection points: 2
#     Edge 73, Type (0, 1), BuildingBlock: OJICUG_clean_linker_0, # of connection points: 2
#     Edge 74, Type (0, 1), BuildingBlock: OJICUG_clean_linker_0, # of connection points: 2
#     Edge 75, Type (0, 1), BuildingBlock: OJICUG_clean_linker_0, # of connection points: 2
#     Edge 76, Type (0, 1), BuildingBlock: OJICUG_clean_linker_0, # of connection points: 2
#     Edge 77, Type (0, 1), BuildingBlock: OJICUG_clean_linker_0, # of connection points: 2
#     Edge 78, Type (0, 1), BuildingBlock: OJICUG_clean_linker_0, # of connection points: 2
#     Edge 79, Type (0, 1), BuildingBlock: OJICUG_clean_linker_0, # of connection points: 2
#     Edge 80, Type (0, 1), BuildingBlock: OJICUG_clean_linker_0, # of connection points: 2
# Relax obj value: 0.018
# Max RMSD: 0.122
# Mean RMSD: 0.058
data_MOF--net-eea--node1-WUSLED_clean_sbu_0--node2-CUKXOW_clean_sbu_0--edge1-OJICUG_clean_linker_0
_symmetry_space_group_name_H-M    P1
_symmetry_Int_Tables_number       1
_symmetry_cell_setting            triclinic
loop_
_symmetry_equiv_pos_as_xyz
'x, y, z'
_cell_length_a     57.280011
_cell_length_b     53.860786
_cell_length_c     59.283619
_cell_angle_alpha  92.594332
_cell_angle_beta   93.061468
_cell_angle_gamma 120.14497
loop_
_atom_site_label
_atom_site_type_symbol
_atom_site_fract_x
_atom_site_fract_y
_atom_site_fract_z
_atom_type_partial_charge
C0 C 0.23611 0.18581 0.41719 0.0
C1 C 0.22 0.19427 0.42861 0.0
C2 C 0.22488 0.22731 0.39992 0.0
C3 C 0.21443 0.21473 0.42004 0.0
C4 C 0.24167 0.21948 0.38892 0.0
C5 C 0.2471 0.19886 0.39741 0.0
U6 U 0.25847 0.14769 0.46012 0.0
O7 O 0.23782 0.10194 0.46671 0.0
O8 O 0.27797 0.12195 0.45371 0.0
C9 C 0.25687 0.098 0.45888 0.0
C10 C 0.23991 0.16197 0.42445 0.0
C11 C 0.24795 0.07212 0.44314 0.0
C12 C 0.21341 0.03133 0.41827 0.0
C13 C 0.22191 0.05712 0.43155 0.0
C14 C 0.25704 0.0356 0.42743 0.0
C15 C 0.23081 0.02012 0.41621 0.0
C16 C 0.26545 0.06123 0.44076 0.0
C17 C 0.29088 0.18239 0.52001 0.0
C18 C 0.29122 0.15805 0.55357 0.0
C19 C 0.32559 0.20793 0.5514 0.0
C20 C 0.31391 0.2075 0.52991 0.0
C21 C 0.3144 0.18321 0.56358 0.0
C22 C 0.27967 0.1576 0.53201 0.0
C23 C 0.2789 0.18265 0.49732 0.0
O24 O 0.26501 0.16742 0.42749 0.0
O25 O 0.22452 0.14629 0.43983 0.0
O26 O 0.25283 0.16431 0.49271 0.0
O27 O 0.29324 0.18425 0.48029 0.0
H28 H 0.21124 0.18471 0.44392 0.0
H29 H 0.20178 0.22061 0.42915 0.0
H30 H 0.24989 0.22857 0.37332 0.0
H31 H 0.2594 0.19258 0.38818 0.0
H32 H 0.19319 0.02012 0.40967 0.0
H33 H 0.20797 0.06504 0.43301 0.0
H34 H 0.27085 0.02744 0.42651 0.0
H35 H 0.28553 0.07228 0.44965 0.0
H36 H 0.28174 0.1387 0.56249 0.0
H37 H 0.34365 0.22756 0.55829 0.0
H38 H 0.32297 0.22686 0.52095 0.0
H39 H 0.26192 0.13788 0.52478 0.0
C40 C 0.94737 0.18153 0.41856 0.0
C41 C 0.97043 0.19716 0.43399 0.0
C42 C 0.9977 0.22168 0.40316 0.0
C43 C 0.99536 0.21706 0.42635 0.0
C44 C 0.9743 0.20647 0.38795 0.0
C45 C 0.94948 0.18662 0.39558 0.0
U46 U 0.89149 0.14686 0.46019 0.0
O47 O 0.84713 0.12263 0.45216 0.0
O48 O 0.86765 0.10137 0.46717 0.0
C49 C 0.84483 0.09831 0.45804 0.0
C50 C 0.92123 0.15882 0.42558 0.0
C51 C 0.82833 0.07272 0.44189 0.0
C52 C 0.82398 0.0357 0.414 0.0
C53 C 0.84024 0.06118 0.42794 0.0
C54 C 0.78376 0.03352 0.42717 0.0
C55 C 0.79552 0.02137 0.41362 0.0
C56 C 0.8 0.05886 0.44117 0.0
C57 C 0.898 0.18381 0.51924 0.0
C58 C 0.86179 0.17556 0.5431 0.0
C59 C 0.90789 0.19664 0.55992 0.0
C60 C 0.91657 0.19521 0.53853 0.0
C61 C 0.88039 0.1868 0.5625 0.0
C62 C 0.87048 0.17394 0.52168 0.0
C63 C 0.90793 0.18263 0.4969 0.0
O64 O 0.92238 0.14362 0.44189 0.0
O65 O 0.90226 0.16555 0.42735 0.0
O66 O 0.89438 0.18456 0.4791 0.0
O67 O 0.91502 0.16312 0.49353 0.0
H68 H 0.9693 0.19361 0.45184 0.0
H69 H 1.01296 0.22819 0.43852 0.0
H70 H 0.97516 0.20982 0.37007 0.0
H71 H 0.93193 0.17486 0.3834 0.0
H72 H 0.8337 0.02712 0.40359 0.0
H73 H 0.86208 0.0716 0.42808 0.0
H74 H 0.76196 0.02291 0.42755 0.0
H75 H 0.7904 0.06735 0.45183 0.0
H76 H 0.84044 0.16748 0.54453 0.0
H77 H 0.92279 0.20568 0.57445 0.0
H78 H 0.93789 0.20303 0.53705 0.0
H79 H 0.85569 0.16488 0.50709 0.0
C80 C 0.85979 0.78384 0.42174 0.0
C81 C 0.85901 0.80803 0.43064 0.0
C82 C 0.81778 0.79394 0.40648 0.0
C83 C 0.83826 0.81298 0.42314 0.0
C84 C 0.81857 0.76975 0.39756 0.0
C85 C 0.83938 0.76482 0.40504 0.0
U86 U 0.89575 0.75804 0.46307 0.0
O87 O 0.91839 0.73581 0.45608 0.0
O88 O 0.93882 0.77833 0.47514 0.0
C89 C 0.94148 0.75771 0.46512 0.0
C90 C 0.88245 0.77917 0.42887 0.0
C91 C 0.96473 0.76703 0.45136 0.0
C92 C 0.99678 0.80042 0.42683 0.0
C93 C 0.97385 0.79133 0.4389 0.0
C94 C 1.00119 0.76053 0.439 0.0
C95 C 1.01092 0.78529 0.42694 0.0
C96 C 0.9784 0.75158 0.45112 0.0
C97 C 0.86244 0.72476 0.51701 0.0
C98 C 0.88455 0.72293 0.55259 0.0
C99 C 0.83587 0.69292 0.54495 0.0
C100 C 0.83742 0.70395 0.52383 0.0
C101 C 0.85935 0.7026 0.55975 0.0
C102 C 0.8861 0.73383 0.53137 0.0
C103 C 0.86308 0.73756 0.49541 0.0
O104 O 0.8984 0.79513 0.44682 0.0
O105 O 0.87681 0.75226 0.42843 0.0
O106 O 0.86094 0.72187 0.47692 0.0
O107 O 0.8813 0.76498 0.495 0.0
H108 H 0.8746 0.82343 0.44325 0.0
H109 H 0.83865 0.83215 0.43008 0.0
H110 H 0.80303 0.7545 0.38485 0.0
H111 H 0.83957 0.74617 0.39763 0.0
H112 H 1.00379 0.81967 0.41788 0.0
H113 H 0.96349 0.80352 0.43876 0.0
H114 H 1.01118 0.74799 0.4391 0.0
H115 H 0.97156 0.73265 0.46049 0.0
H116 H 0.90304 0.7306 0.5635 0.0
H117 H 0.81611 0.67759 0.55003 0.0
H118 H 0.81893 0.6967 0.51302 0.0
H119 H 0.9057 0.74974 0.52637 0.0
C120 C 0.08392 0.25095 0.62491 0.0
C121 C 0.07378 0.26952 0.62128 0.0
C122 C 0.03493 0.24002 0.64237 0.0
C123 C 0.04951 0.26411 0.62996 0.0
C124 C 0.04502 0.22128 0.64554 0.0
C125 C 0.06925 0.22674 0.63694 0.0
U126 U 0.13982 0.27837 0.58314 0.0
O127 O 0.18414 0.30093 0.59101 0.0
O128 O 0.16302 0.25839 0.57199 0.0
C129 C 0.18594 0.2791 0.5824 0.0
C130 C 0.11002 0.25659 0.61707 0.0
C131 C 0.20165 0.26995 0.59676 0.0
C132 C 0.20451 0.23572 0.62056 0.0
C133 C 0.18896 0.24464 0.60807 0.0
C134 C 0.24552 0.27778 0.61122 0.0
C135 C 0.23302 0.252 0.62204 0.0
C136 C 0.22999 0.28657 0.59867 0.0
C137 C 0.13431 0.31096 0.52836 0.0
C138 C 0.17153 0.33966 0.50562 0.0
C139 C 0.12532 0.31452 0.48844 0.0
C140 C 0.116 0.30405 0.50925 0.0
C141 C 0.1532 0.33227 0.48632 0.0
C142 C 0.16219 0.32896 0.52643 0.0
C143 C 0.12387 0.29847 0.54982 0.0
O144 O 0.1086 0.24092 0.59883 0.0
O145 O 0.12926 0.28375 0.61742 0.0
O146 O 0.13755 0.31411 0.56867 0.0
O147 O 0.11619 0.27108 0.55048 0.0
H148 H 0.08476 0.28834 0.61199 0.0
H149 H 0.04246 0.27911 0.62732 0.0
H150 H 0.03411 0.20221 0.65457 0.0
H151 H 0.07667 0.21208 0.63984 0.0
H152 H 0.19419 0.21568 0.62853 0.0
H153 H 0.16706 0.23152 0.60695 0.0
H154 H 0.26738 0.2912 0.61237 0.0
H155 H 0.24017 0.30627 0.59023 0.0
H156 H 0.19313 0.35301 0.50447 0.0
H157 H 0.11067 0.30863 0.47395 0.0
H158 H 0.09443 0.29022 0.51036 0.0
H159 H 0.17676 0.33443 0.54091 0.0
C160 C 0.80079 0.85329 0.63553 0.0
C161 C 0.7847 0.82421 0.62727 0.0
C162 C 0.81154 0.8113 0.65236 0.0
C163 C 0.78999 0.80338 0.63566 0.0
C164 C 0.82749 0.84048 0.6605 0.0
C165 C 0.82216 0.86117 0.65218 0.0
U166 U 0.77678 0.88988 0.59211 0.0
O167 O 0.75516 0.91336 0.59887 0.0
O168 O 0.79586 0.93597 0.58701 0.0
C169 C 0.7758 0.93822 0.5946 0.0
C170 C 0.79547 0.87587 0.62789 0.0
C171 C 0.78348 0.96292 0.61121 0.0
C172 C 0.8138 0.99796 0.64182 0.0
C173 C 0.80559 0.97293 0.62761 0.0
C174 C 0.77734 1.00266 0.62398 0.0
C175 C 0.79997 1.01336 0.63999 0.0
C176 C 0.76925 0.97776 0.60975 0.0
C177 C 0.74838 0.85819 0.53094 0.0
C178 C 0.72062 0.87017 0.50636 0.0
C179 C 0.74374 0.8474 0.49004 0.0
C180 C 0.75448 0.84705 0.51175 0.0
C181 C 0.72651 0.85882 0.48701 0.0
C182 C 0.73151 0.86997 0.52805 0.0
C183 C 0.75962 0.85712 0.55371 0.0
O184 O 0.81104 0.89222 0.6129 0.0
O185 O 0.76995 0.86872 0.62396 0.0
O186 O 0.7442 0.8533 0.5704 0.0
O187 O 0.7852 0.87657 0.55922 0.0
H188 H 0.76807 0.81762 0.6144 0.0
H189 H 0.77749 0.78118 0.62882 0.0
H190 H 0.84398 0.84736 0.67356 0.0
H191 H 0.83469 0.88344 0.65892 0.0
H192 H 0.83112 1.0054 0.65411 0.0
H193 H 0.81682 0.96173 0.62912 0.0
H194 H 0.76644 1.01411 0.62183 0.0
H195 H 0.7522 0.97046 0.59717 0.0
H196 H 0.70719 0.87881 0.50485 0.0
H197 H 0.74918 0.83893 0.47562 0.0
H198 H 0.76758 0.83802 0.51355 0.0
H199 H 0.72657 0.87883 0.54257 0.0
C200 C 0.08417 0.85674 0.62641 0.0
C201 C 0.06045 0.84173 0.61161 0.0
C202 C 0.0347 0.81592 0.64277 0.0
C203 C 0.03595 0.8215 0.61972 0.0
C204 C 0.05873 0.8305 0.6573 0.0
C205 C 0.08312 0.85067 0.64921 0.0
U206 U 0.13976 0.89318 0.58447 0.0
O207 O 0.16319 0.939 0.57827 0.0
O208 O 0.1841 0.91774 0.59254 0.0
C209 C 0.18616 0.9421 0.58709 0.0
C210 C 0.10993 0.87989 0.6191 0.0
C211 C 0.20302 0.96761 0.60325 0.0
C212 C 0.20869 1.00664 0.62966 0.0
C213 C 0.19182 0.98121 0.61582 0.0
C214 C 0.24804 1.00472 0.61912 0.0
C215 C 0.23705 0.01886 0.63132 0.0
C216 C 0.23121 0.97944 0.60523 0.0
C217 C 0.13596 0.85862 0.52554 0.0
C218 C 0.17457 0.87539 0.50292 0.0
C219 C 0.12952 0.84108 0.48583 0.0
C220 C 0.11887 0.8414 0.50651 0.0
C221 C 0.15755 0.85797 0.48375 0.0
C222 C 0.16387 0.87577 0.52356 0.0
C223 C 0.12444 0.85829 0.54731 0.0
O224 O 0.12934 0.87389 0.61713 0.0
O225 O 0.10822 0.89496 0.6029 0.0
O226 O 0.11698 0.87748 0.55078 0.0
O227 O 0.13749 0.856 0.56529 0.0
H228 H 0.06072 0.84602 0.59393 0.0
H229 H 1.01784 0.81087 0.60806 0.0
H230 H 0.05872 0.82643 0.67502 0.0
H231 H 0.10117 0.86193 0.66092 0.0
H232 H 0.19953 1.01679 0.63902 0.0
H233 H 0.17011 0.97246 0.61469 0.0
H234 H 0.26976 1.01368 0.61972 0.0
H235 H 0.2403 0.96942 0.59562 0.0
H236 H 0.19626 0.88842 0.50212 0.0
H237 H 0.1157 0.8278 0.4714 0.0
H238 H 0.09725 0.82813 0.50765 0.0
H239 H 0.17744 0.88929 0.53803 0.0
C240 C 0.90481 0.51711 0.74564 0.0
C241 C 0.92107 0.54639 0.75328 0.0
C242 C 0.89283 0.55832 0.72896 0.0
C243 C 0.91516 0.56683 0.74496 0.0
C244 C 0.8767 0.52894 0.72145 0.0
C245 C 0.88264 0.50864 0.72969 0.0
U246 U 0.93082 0.48209 0.78883 0.0
O247 O 0.9122 0.43623 0.79471 0.0
O248 O 0.95235 0.4586 0.78182 0.0
C249 C 0.93204 0.43388 0.78673 0.0
C250 C 0.91067 0.4949 0.75326 0.0
C251 C 0.92402 0.40882 0.77039 0.0
C252 C 0.89355 0.37357 0.73995 0.0
C253 C 0.90182 0.3987 0.75408 0.0
C254 C 0.93007 0.36897 0.75777 0.0
C255 C 0.9074 0.3582 0.7418 0.0
C256 C 0.93823 0.39397 0.7719 0.0
C257 C 0.96139 0.51589 0.84936 0.0
C258 C 0.9619 0.4915 0.88287 0.0
C259 C 0.99529 0.54184 0.88125 0.0
C260 C 0.98384 0.54129 0.85961 0.0
C261 C 0.98446 0.51696 0.89325 0.0
C262 C 0.95058 0.49093 0.86116 0.0
C263 C 0.9494 0.51609 0.82661 0.0
O264 O 0.93631 0.50229 0.75659 0.0
O265 O 0.89577 0.47892 0.76873 0.0
O266 O 0.92366 0.49676 0.8216 0.0
O267 O 0.96432 0.51918 0.80969 0.0
H268 H 0.93829 0.55345 0.76561 0.0
H269 H 0.92783 0.58921 0.75132 0.0
H270 H 0.8596 0.5216 0.70894 0.0
H271 H 0.86994 0.4862 0.72345 0.0
H272 H 0.87619 0.36607 0.72769 0.0
H273 H 0.89062 0.40992 0.75252 0.0
H274 H 0.941 0.35754 0.75994 0.0
H275 H 0.95536 0.40136 0.78441 0.0
H276 H 0.95268 0.472 0.89161 0.0
H277 H 1.01288 0.56172 0.88842 0.0
H278 H 0.99258 0.5608 0.85083 0.0
H279 H 0.93327 0.47099 0.8537 0.0
C280 C 0.62299 0.51132 0.76164 0.0
C281 C 0.63265 0.54103 0.76494 0.0
C282 C 0.67169 0.5515 0.74385 0.0
C283 C 0.65679 0.56093 0.75616 0.0
C284 C 0.66221 0.52176 0.74115 0.0
C285 C 0.63816 0.50196 0.74991 0.0
U286 U 0.5655 0.4779 0.80247 0.0
O287 O 0.52135 0.45478 0.79338 0.0
O288 O 0.54042 0.43235 0.80888 0.0
C289 C 0.51814 0.4301 0.79928 0.0
C290 C 0.59642 0.48941 0.76867 0.0
C291 C 0.50141 0.40474 0.78299 0.0
C292 C 0.49613 0.36624 0.7562 0.0
C293 C 0.51281 0.39148 0.77029 0.0
C294 C 0.45656 0.36771 0.76679 0.0
C295 C 0.46776 0.3539 0.75443 0.0
C296 C 0.47322 0.3928 0.78093 0.0
C297 C 0.56913 0.51316 0.86108 0.0
C298 C 0.53019 0.49975 0.88283 0.0
C299 C 0.5756 0.5283 0.90135 0.0
C300 C 0.58632 0.52768 0.88077 0.0
C301 C 0.54736 0.51444 0.90267 0.0
C302 C 0.54095 0.49902 0.86229 0.0
C303 C 0.58091 0.51292 0.83954 0.0
O304 O 0.59683 0.47404 0.78513 0.0
O305 O 0.57778 0.49672 0.76998 0.0
O306 O 0.56877 0.51585 0.82125 0.0
O307 O 0.58756 0.49301 0.83645 0.0
H308 H 0.6213 0.54885 0.77391 0.0
H309 H 0.66338 0.58364 0.75847 0.0
H310 H 0.67337 0.51369 0.73221 0.0
H311 H 0.63113 0.47916 0.74714 0.0
H312 H 0.50542 0.35635 0.74673 0.0
H313 H 0.53455 0.40037 0.77148 0.0
H314 H 0.43482 0.35864 0.76608 0.0
H315 H 0.46399 0.4026 0.79063 0.0
H316 H 0.50838 0.48911 0.88305 0.0
H317 H 0.5895 0.53937 0.91627 0.0
H318 H 0.60812 0.53855 0.88026 0.0
H319 H 0.52726 0.48755 0.84732 0.0
C320 C 0.53336 0.12574 0.75666 0.0
C321 C 0.50625 0.10698 0.76065 0.0
C322 C 0.49257 0.13803 0.74253 0.0
C323 C 0.48603 0.11303 0.75359 0.0
C324 C 0.51989 0.15703 0.73908 0.0
C325 C 0.54001 0.15088 0.74601 0.0
U326 U 0.56802 0.09775 0.79694 0.0
O327 O 0.58829 0.07319 0.78902 0.0
O328 O 0.61132 0.11614 0.80731 0.0
C329 C 0.61226 0.09458 0.79697 0.0
C330 C 0.55501 0.11953 0.7631 0.0
C331 C 0.63423 0.10246 0.78192 0.0
C332 C 0.66572 0.1349 0.75655 0.0
C333 C 0.64382 0.12703 0.76972 0.0
C334 C 0.668 0.09314 0.76693 0.0
C335 C 0.67835 0.11826 0.75525 0.0
C336 C 0.64625 0.08541 0.78016 0.0
C337 C 0.5368 0.06886 0.85306 0.0
C338 C 0.53447 0.03171 0.87646 0.0
C339 C 0.53346 0.07277 0.89364 0.0
C340 C 0.53532 0.08369 0.87248 0.0
C341 C 0.53291 0.0466 0.89592 0.0
C342 C 0.53649 0.04278 0.85522 0.0
C343 C 0.53734 0.08058 0.83086 0.0
O344 O 0.57171 0.1354 0.7807 0.0
O345 O 0.54788 0.09218 0.76295 0.0
O346 O 0.53331 0.06376 0.8125 0.0
O347 O 0.55646 0.10746 0.82954 0.0
H348 H 0.50063 0.08749 0.76898 0.0
H349 H 0.46522 0.09779 0.75637 0.0
H350 H 0.5258 0.17678 0.73106 0.0
H351 H 0.56083 0.16575 0.74293 0.0
H352 H 0.67324 0.15447 0.74796 0.0
H353 H 0.63471 0.14043 0.77069 0.0
H354 H 0.67681 0.07948 0.76596 0.0
H355 H 0.639 0.06624 0.78927 0.0
H356 H 0.53422 1.01158 0.87768 0.0
H357 H 0.53178 0.08454 0.90816 0.0
H358 H 0.53521 0.10364 0.87124 0.0
H359 H 0.53756 0.0308 0.84053 0.0
C360 C 0.75184 0.58876 0.95791 0.0
C361 C 0.72933 0.58128 0.94256 0.0
C362 C 0.70181 0.57633 0.97396 0.0
C363 C 0.70452 0.5751 0.95052 0.0
C364 C 0.7247 0.58465 0.98918 0.0
C365 C 0.7494 0.59072 0.98122 0.0
U366 U 0.80701 0.61282 0.91582 0.0
O367 O 0.8513 0.63409 0.92309 0.0
O368 O 0.82877 0.59111 0.90478 0.0
C369 C 0.85217 0.61161 0.91466 0.0
C370 C 0.77761 0.59314 0.95025 0.0
C371 C 0.86796 0.60237 0.9288 0.0
C372 C 0.87127 0.5676 0.95161 0.0
C373 C 0.8555 0.57646 0.93938 0.0
C374 C 0.91199 0.61084 0.94345 0.0
C375 C 0.89976 0.58451 0.95352 0.0
C376 C 0.89626 0.61958 0.93118 0.0
C377 C 0.80353 0.64484 0.86072 0.0
C378 C 0.82528 0.64253 0.82721 0.0
C379 C 0.81199 0.6785 0.83186 0.0
C380 C 0.80204 0.66815 0.85261 0.0
C381 C 0.82333 0.66547 0.81879 0.0
C382 C 0.81564 0.63243 0.848 0.0
C383 C 0.79222 0.6335 0.88224 0.0
O384 O 0.7757 0.57669 0.93235 0.0
O385 O 0.79729 0.62001 0.95014 0.0
O386 O 0.80655 0.64935 0.90081 0.0
O387 O 0.78284 0.60582 0.88365 0.0
H388 H 0.73077 0.57968 0.92446 0.0
H389 H 0.6873 0.56857 0.93832 0.0
H390 H 0.72353 0.5864 1.00731 0.0
H391 H 0.76656 0.59656 0.99333 0.0
H392 H 0.86118 0.54714 0.95901 0.0
H393 H 0.83364 0.56285 0.9379 0.0
H394 H 0.93381 0.62472 0.94496 0.0
H395 H 0.90626 0.63973 0.92329 0.0
H396 H 0.83427 0.63234 0.81767 0.0
H397 H 0.81014 0.69614 0.82575 0.0
H398 H 0.7929 0.67813 0.86221 0.0
H399 H 0.81743 0.6147 0.85402 0.0
C400 C 0.47031 0.1885 0.96663 0.0
C401 C 0.45404 0.15933 0.95866 0.0
C402 C 0.48051 0.14645 0.98427 0.0
C403 C 0.45907 0.13848 0.96744 0.0
C404 C 0.49659 0.17572 0.99216 0.0
C405 C 0.49154 0.19642 0.98344 0.0
U406 U 0.44613 0.22478 0.92283 0.0
O407 O 0.42595 0.24978 0.92966 0.0
O408 O 0.46611 0.27065 0.91671 0.0
C409 C 0.4468 0.27404 0.92462 0.0
C410 C 0.46538 0.21119 0.95855 0.0
C411 C 0.4554 0.29976 0.94049 0.0
C412 C 0.48947 0.34018 0.96595 0.0
C413 C 0.48106 0.31437 0.95272 0.0
C414 C 0.44644 0.33671 0.95551 0.0
C415 C 0.47236 0.35184 0.96733 0.0
C416 C 0.43812 0.31104 0.94223 0.0
C417 C 0.41465 0.1912 0.86255 0.0
C418 C 0.38747 0.2043 0.83833 0.0
C419 C 0.40731 0.17802 0.82186 0.0
C420 C 0.41874 0.17808 0.84338 0.0
C421 C 0.39139 0.19102 0.819 0.0
C422 C 0.39905 0.20449 0.85983 0.0
C423 C 0.42662 0.19061 0.88515 0.0
O424 O 0.48054 0.22652 0.94292 0.0
O425 O 0.44 0.20474 0.95519 0.0
O426 O 0.41214 0.18809 0.9023 0.0
O427 O 0.45251 0.20955 0.88981 0.0
H428 H 0.4375 0.1527 0.94569 0.0
H429 H 0.44646 0.11621 0.96078 0.0
H430 H 0.51299 0.18267 1.00532 0.0
H431 H 0.5042 0.21875 0.98998 0.0
H432 H 0.50942 0.35106 0.97504 0.0
H433 H 0.49481 0.30614 0.95176 0.0
H434 H 0.43285 0.34519 0.95591 0.0
H435 H 0.41833 0.30031 0.93284 0.0
H436 H 0.3751 0.21421 0.83695 0.0
H437 H 0.41123 0.16803 0.80743 0.0
H438 H 0.43082 0.16785 0.84506 0.0
H439 H 0.39566 0.21486 0.87434 0.0
C440 C 0.75479 0.18921 0.96304 0.0
C441 C 0.7315 0.17297 0.94796 0.0
C442 C 0.70494 0.14937 0.9794 0.0
C443 C 0.70682 0.15324 0.95606 0.0
C444 C 0.72857 0.16517 0.99427 0.0
C445 C 0.75315 0.18486 0.98617 0.0
U446 U 0.81006 0.22372 0.92075 0.0
O447 O 0.83262 0.26899 0.91285 0.0
O448 O 0.85441 0.24933 0.92837 0.0
C449 C 0.85587 0.27304 0.92187 0.0
C450 C 0.78056 0.21202 0.95552 0.0
C451 C 0.8726 0.29941 0.93722 0.0
C452 C 0.87804 0.33961 0.96205 0.0
C453 C 0.86128 0.31358 0.94886 0.0
C454 C 0.91751 0.33722 0.95264 0.0
C455 C 0.9064 0.35185 0.96397 0.0
C456 C 0.9008 0.31135 0.9394 0.0
C457 C 0.80593 0.18673 0.86272 0.0
C458 C 0.82662 0.21004 0.82913 0.0
C459 C 0.81433 0.16043 0.83274 0.0
C460 C 0.80473 0.16146 0.85383 0.0
C461 C 0.82512 0.18463 0.82002 0.0
C462 C 0.81726 0.21114 0.85027 0.0
C463 C 0.79496 0.1871 0.88472 0.0
O464 O 0.80003 0.206 0.95402 0.0
O465 O 0.77871 0.22632 0.93878 0.0
O466 O 0.78637 0.20543 0.88777 0.0
O467 O 0.80887 0.18627 0.90274 0.0
H468 H 0.73224 0.17595 0.93001 0.0
H469 H 0.68904 0.14166 0.94412 0.0
H470 H 0.72807 0.16242 1.01226 0.0
H471 H 0.77087 0.19712 0.9981 0.0
H472 H 0.86879 0.35016 0.97074 0.0
H473 H 0.83955 0.30476 0.94755 0.0
H474 H 0.93924 0.34618 0.95345 0.0
H475 H 0.90999 0.30089 0.93049 0.0
H476 H 0.83518 0.22919 0.81992 0.0
H477 H 0.81272 0.1405 0.82616 0.0
H478 H 0.79611 0.14239 0.86313 0.0
H479 H 0.81874 0.23104 0.8568 0.0
C480 C 0.57426 0.85367 0.08115 0.0
C481 C 0.59034 0.88298 0.08871 0.0
C482 C 0.56215 0.89456 0.06396 0.0
C483 C 0.58437 0.90327 0.08014 0.0
C484 C 0.54627 0.86515 0.05646 0.0
C485 C 0.55227 0.84501 0.06496 0.0
U486 U 0.60182 0.82031 0.12472 0.0
O487 O 0.5819 0.77518 0.13306 0.0
O488 O 0.62063 0.794 0.11772 0.0
C489 C 0.60016 0.77058 0.12433 0.0
C490 C 0.57981 0.8315 0.08939 0.0
C491 C 0.59007 0.74379 0.10936 0.0
C492 C 0.55412 0.70225 0.08602 0.0
C493 C 0.56355 0.72868 0.09869 0.0
C494 C 0.59771 0.70602 0.09404 0.0
C495 C 0.57104 0.69048 0.08366 0.0
C496 C 0.60705 0.73229 0.10675 0.0
C497 C 0.63773 0.85758 0.1832 0.0
C498 C 0.63859 0.83405 0.21709 0.0
C499 C 0.67138 0.88453 0.21512 0.0
C500 C 0.66002 0.88334 0.19323 0.0
C501 C 0.66045 0.86001 0.22747 0.0
C502 C 0.62744 0.8328 0.19518 0.0
C503 C 0.62483 0.85717 0.16072 0.0
O504 O 0.60525 0.83788 0.09142 0.0
O505 O 0.56612 0.81754 0.10615 0.0
O506 O 0.59857 0.8391 0.15725 0.0
O507 O 0.63796 0.85753 0.1431 0.0
H508 H 0.60739 0.89015 0.10125 0.0
H509 H 0.59686 0.92568 0.08648 0.0
H510 H 0.52928 0.85766 0.04381 0.0
H511 H 0.53969 0.82253 0.0588 0.0
H512 H 0.53358 0.69103 0.07807 0.0
H513 H 0.54999 0.73707 0.10036 0.0
H514 H 0.6112 0.69748 0.0929 0.0
H515 H 0.62749 0.74341 0.11494 0.0
H516 H 0.62996 0.81466 0.226 0.0
H517 H 0.68811 0.90486 0.22266 0.0
H518 H 0.66834 0.90271 0.1843 0.0
H519 H 0.61046 0.81255 0.18778 0.0
C520 C 0.29089 0.84607 0.09402 0.0
C521 C 0.30019 0.87575 0.09679 0.0
C522 C 0.33968 0.88626 0.0763 0.0
C523 C 0.32437 0.89565 0.08804 0.0
C524 C 0.33056 0.85658 0.07414 0.0
C525 C 0.30647 0.83678 0.08285 0.0
U526 U 0.23292 0.81197 0.13446 0.0
O527 O 0.18882 0.78894 0.12503 0.0
O528 O 0.20773 0.76626 0.14037 0.0
C529 C 0.18553 0.76415 0.13071 0.0
C530 C 0.26423 0.82409 0.10088 0.0
C531 C 0.16894 0.739 0.1142 0.0
C532 C 0.16395 0.70105 0.08695 0.0
C533 C 0.1805 0.72615 0.10123 0.0
C534 C 0.12419 0.70186 0.09788 0.0
C535 C 0.13555 0.68844 0.08526 0.0
C536 C 0.14071 0.72681 0.1122 0.0
C537 C 0.23585 0.84621 0.19334 0.0
C538 C 0.1966 0.83168 0.2149 0.0
C539 C 0.24181 0.86133 0.23357 0.0
C540 C 0.25281 0.86109 0.21307 0.0
C541 C 0.21352 0.84673 0.23479 0.0
C542 C 0.20765 0.83135 0.19443 0.0
C543 C 0.24791 0.84637 0.17187 0.0
O544 O 0.26446 0.80844 0.11719 0.0
O545 O 0.24558 0.83139 0.10223 0.0
O546 O 0.23596 0.8496 0.15359 0.0
O547 O 0.25459 0.82652 0.1686 0.0
H548 H 0.28853 0.88354 0.10528 0.0
H549 H 0.33066 0.9183 0.08993 0.0
H550 H 0.34203 0.84856 0.06564 0.0
H551 H 0.29972 0.81402 0.08048 0.0
H552 H 0.17337 0.69147 0.07729 0.0
H553 H 0.20226 0.73524 0.10237 0.0
H554 H 0.10242 0.69257 0.09724 0.0
H555 H 0.13136 0.7363 0.12211 0.0
H556 H 0.17477 0.82047 0.21504 0.0
H557 H 0.25553 0.8727 0.24854 0.0
H558 H 0.27463 0.87252 0.21264 0.0
H559 H 0.19415 0.8196 0.17943 0.0
C560 C 0.20215 0.46311 0.09281 0.0
C561 C 0.17493 0.44416 0.09637 0.0
C562 C 0.16128 0.47441 0.07687 0.0
C563 C 0.15468 0.44972 0.08842 0.0
C564 C 0.18869 0.49358 0.07382 0.0
C565 C 0.20886 0.48792 0.08166 0.0
U566 U 0.23449 0.43346 0.13384 0.0
O567 O 0.25619 0.41032 0.12649 0.0
O568 O 0.27718 0.45209 0.14665 0.0
C569 C 0.27938 0.43143 0.13612 0.0
C570 C 0.22384 0.45739 0.10025 0.0
C571 C 0.30277 0.44072 0.12256 0.0
C572 C 0.33444 0.47343 0.09746 0.0
C573 C 0.3117 0.46469 0.10973 0.0
C574 C 0.33907 0.4339 0.11024 0.0
C575 C 0.34856 0.45827 0.09772 0.0
C576 C 0.31648 0.4253 0.12256 0.0
C577 C 0.19886 0.39775 0.18618 0.0
C578 C 0.21985 0.39341 0.22141 0.0
C579 C 0.1711 0.36521 0.21327 0.0
C580 C 0.17341 0.37729 0.19253 0.0
C581 C 0.19424 0.37351 0.22815 0.0
C582 C 0.22216 0.40535 0.20057 0.0
C583 C 0.20044 0.41184 0.1651 0.0
O584 O 0.23859 0.47209 0.11902 0.0
O585 O 0.21742 0.43021 0.09901 0.0
O586 O 0.1985 0.39698 0.14617 0.0
O587 O 0.2192 0.43921 0.16567 0.0
H588 H 0.1693 0.42492 0.10506 0.0
H589 H 0.1338 0.43437 0.09091 0.0
H590 H 0.19463 0.51309 0.06545 0.0
H591 H 0.22977 0.50291 0.0789 0.0
H592 H 0.34127 0.4924 0.08817 0.0
H593 H 0.30127 0.4768 0.10939 0.0
H594 H 0.34903 0.42134 0.11047 0.0
H595 H 0.30974 0.4066 0.13218 0.0
H596 H 0.23807 0.40002 0.23239 0.0
H597 H 0.15107 0.35023 0.21803 0.0
H598 H 0.15521 0.37116 0.18167 0.0
H599 H 0.24206 0.42094 0.19593 0.0
C600 C 0.41411 0.9144 0.28874 0.0
C601 C 0.40465 0.93361 0.28543 0.0
C602 C 0.36455 0.90337 0.3049 0.0
C603 C 0.38007 0.92814 0.29348 0.0
C604 C 0.37392 0.88394 0.30765 0.0
C605 C 0.39845 0.88946 0.2997 0.0
U606 U 0.4713 0.94191 0.24833 0.0
O607 O 0.51541 0.96364 0.25695 0.0
O608 O 0.49413 0.92133 0.23754 0.0
C609 C 0.51696 0.94161 0.24841 0.0
C610 C 0.44042 0.91995 0.28157 0.0
C611 C 0.53196 0.93195 0.26309 0.0
C612 C 0.5339 0.89634 0.28579 0.0
C613 C 0.51884 0.90548 0.27285 0.0
C614 C 0.57516 0.94044 0.28002 0.0
C615 C 0.56231 0.91356 0.28925 0.0
C616 C 0.56014 0.94945 0.26703 0.0
C617 C 0.46914 0.97557 0.1937 0.0
C618 C 0.49133 0.97432 0.16018 0.0
C619 C 0.47795 1.01014 0.16554 0.0
C620 C 0.46775 0.99914 0.18606 0.0
C621 C 0.48943 0.9975 0.15222 0.0
C622 C 0.48145 0.96358 0.18075 0.0
C623 C 0.45726 0.96333 0.21484 0.0
O624 O 0.43936 0.90443 0.26338 0.0
O625 O 0.4599 0.94706 0.28232 0.0
O626 O 0.47082 0.9787 0.2338 0.0
O627 O 0.44823 0.93564 0.21572 0.0
H628 H 0.41638 0.95297 0.27692 0.0
H629 H 0.37355 0.94364 0.2912 0.0
H630 H 0.36226 0.86437 0.31592 0.0
H631 H 0.40533 0.87429 0.30228 0.0
H632 H 0.52336 0.87547 0.29252 0.0
H633 H 0.49704 0.89165 0.27021 0.0
H634 H 0.59691 0.95455 0.28274 0.0
H635 H 0.57063 0.97004 0.25983 0.0
H636 H 0.50043 0.96442 0.15043 0.0
H637 H 0.47616 0.02796 0.15978 0.0
H638 H 0.45844 1.00878 0.19584 0.0
H639 H 0.48314 0.94564 0.18638 0.0
C640 C 0.13259 0.5179 0.29705 0.0
C641 C 0.1493 0.5096 0.28645 0.0
C642 C 0.14288 0.47611 0.31517 0.0
C643 C 0.15438 0.48899 0.29542 0.0
C644 C 0.12546 0.48372 0.32531 0.0
C645 C 0.12051 0.50448 0.31642 0.0
U646 U 0.11204 0.55748 0.25389 0.0
O647 O 0.09407 0.58466 0.26022 0.0
O648 O 0.13426 0.60335 0.24739 0.0
C649 C 0.11568 0.60819 0.25507 0.0
C650 C 0.12952 0.54215 0.2896 0.0
C651 C 0.12575 0.63457 0.27052 0.0
C652 C 0.1266 0.65943 0.30623 0.0
C653 C 0.11804 0.63376 0.29273 0.0
C654 C 0.1511 0.68695 0.27574 0.0
C655 C 0.14313 0.68637 0.29784 0.0
C656 C 0.14247 0.66138 0.26227 0.0
C657 C 0.08031 0.52418 0.19362 0.0
C658 C 0.05399 0.5379 0.16898 0.0
C659 C 0.07379 0.51136 0.15291 0.0
C660 C 0.08467 0.5111 0.17457 0.0
C661 C 0.05815 0.52464 0.14978 0.0
C662 C 0.06503 0.53777 0.19062 0.0
C663 C 0.09162 0.52313 0.21636 0.0
O664 O 0.14526 0.55755 0.27428 0.0
O665 O 0.10468 0.53746 0.28643 0.0
O666 O 0.07725 0.52169 0.23336 0.0
O667 O 0.11773 0.54099 0.22113 0.0
H668 H 0.15895 0.51945 0.2715 0.0
H669 H 0.16754 0.48329 0.28696 0.0
H670 H 0.11642 0.4744 0.34061 0.0
H671 H 0.10776 0.51065 0.32507 0.0
H672 H 0.1203 0.65819 0.32324 0.0
H673 H 0.10518 0.61338 0.29958 0.0
H674 H 0.16343 0.70724 0.26856 0.0
H675 H 0.1485 0.66258 0.24515 0.0
H676 H 0.04181 0.54802 0.16739 0.0
H677 H 0.0779 0.50139 0.13858 0.0
H678 H 0.09653 0.50063 0.17646 0.0
H679 H 0.06144 0.54813 0.20503 0.0
C680 C 0.41677 0.52123 0.29393 0.0
C681 C 0.39301 0.50633 0.27916 0.0
C682 C 0.36711 0.48117 0.31047 0.0
C683 C 0.36842 0.48646 0.28736 0.0
C684 C 0.39117 0.49565 0.32498 0.0
C685 C 0.41564 0.51543 0.31679 0.0
U686 U 0.4728 0.55762 0.25216 0.0
O687 O 0.49678 0.60361 0.24667 0.0
O688 O 0.51705 0.58157 0.26065 0.0
C689 C 0.51951 0.60621 0.25553 0.0
C690 C 0.44264 0.54409 0.28658 0.0
C691 C 0.5361 0.63114 0.27218 0.0
C692 C 0.54073 0.66607 0.30225 0.0
C693 C 0.52436 0.64126 0.28761 0.0
C694 C 0.58071 0.67039 0.28665 0.0
C695 C 0.56913 0.68109 0.30182 0.0
C696 C 0.56436 0.64573 0.272 0.0
C697 C 0.46974 0.52433 0.19293 0.0
C698 C 0.50885 0.54151 0.17085 0.0
C699 C 0.46405 0.50752 0.15311 0.0
C700 C 0.45299 0.50747 0.17364 0.0
C701 C 0.49218 0.52441 0.15144 0.0
C702 C 0.49774 0.54153 0.19135 0.0
C703 C 0.45779 0.52354 0.21456 0.0
O704 O 0.4618 0.53771 0.28453 0.0
O705 O 0.4412 0.55942 0.27048 0.0
O706 O 0.45052 0.54285 0.21824 0.0
O707 O 0.47037 0.52061 0.23255 0.0
H708 H 0.39334 0.51044 0.26143 0.0
H709 H 0.35029 0.47588 0.27572 0.0
H710 H 0.39109 0.49179 0.34275 0.0
H711 H 0.43372 0.52664 0.32849 0.0
H712 H 0.53117 0.67354 0.31386 0.0
H713 H 0.50256 0.63023 0.28814 0.0
H714 H 0.60242 0.68159 0.28556 0.0
H715 H 0.57382 0.63834 0.26019 0.0
H716 H 0.53059 0.55455 0.17035 0.0
H717 H 0.45048 0.4945 0.13849 0.0
H718 H 0.43131 0.49419 0.17446 0.0
H719 H 0.51105 0.55478 0.20602 0.0
Tb720 Tb 0.55044 0.04302 0.0259 0.0
C721 C 0.53346 0.97737 0.03218 0.0
Tb722 Tb 0.48925 0.9963 0.02402 0.0
O723 O 0.54983 0.05803 0.06107 0.0
O724 O 0.52303 1.01608 0.0481 0.0
O725 O 0.55292 1.00356 0.02785 0.0
C726 C 0.43958 0.9645 0.03785 0.0
O727 O 0.50785 0.97083 0.03352 0.0
C728 C 0.51085 1.00538 0.9849 0.0
C729 C 0.50647 0.06201 1.01711 0.0
O730 O 0.44821 0.95839 1.01974 0.0
O731 O 0.45874 0.98883 0.04781 0.0
O732 O 0.48921 0.98147 0.98872 0.0
O733 O 0.51663 0.02308 1.00172 0.0
O734 O 0.4869 0.03594 0.02169 0.0
O735 O 0.532 0.06831 1.01574 0.0
C736 C 0.60067 0.07461 1.01316 0.0
O737 O 0.59153 0.08077 0.03091 0.0
O738 O 0.58164 0.05046 1.00286 0.0
C739 C 0.52842 0.03385 0.06473 0.0
Tb740 Tb 1.0015 0.53219 1.01811 0.0
C741 C 0.06102 0.5774 0.03686 0.0
Tb742 Tb 0.04208 0.51092 0.02515 0.0
O743 O 1.00428 0.54309 0.0546 0.0
O744 O 1.01046 0.50998 0.04257 0.0
O745 O 0.0384 0.57364 0.02608 0.0
C746 C 0.07881 0.49791 0.0412 0.0
O747 O 0.06548 0.55574 0.03986 0.0
C748 C 0.03114 0.51777 0.98309 0.0
C749 C 0.98217 0.46528 1.00809 0.0
O750 O 0.08031 0.51125 0.02316 0.0
O751 O 0.05652 0.49175 0.05017 0.0
O752 O 0.03805 0.49916 0.98871 0.0
O753 O 0.03308 0.53308 1.00065 0.0
O754 O 1.00495 0.46937 1.01887 0.0
O755 O 0.97776 0.48686 1.00439 0.0
C756 C 0.96805 0.54774 0.99877 0.0
O757 O 0.96356 0.53341 1.01667 0.0
O758 O 0.99121 0.55326 0.99208 0.0
C759 C 1.01184 0.52492 0.06015 0.0
Tb760 Tb 0.49064 0.50925 0.03049 0.0
C761 C 0.5063 0.46447 1.01235 0.0
Tb762 Tb 0.55104 0.53119 0.02426 0.0
O763 O 0.4799 0.49847 0.99387 0.0
O764 O 0.51837 0.53171 1.00651 0.0
O765 O 0.48814 0.46803 0.02288 0.0
C766 C 0.59864 0.5455 1.00835 0.0
O767 O 0.53085 0.48633 1.00942 0.0
C768 C 0.53703 0.5236 0.06598 0.0
C769 C 0.53524 0.57643 0.04073 0.0
O770 O 0.58917 0.53076 0.02573 0.0
O771 O 0.58136 0.55228 1.00003 0.0
O772 O 0.56106 0.54262 0.06093 0.0
O773 O 0.52328 0.50861 0.04813 0.0
O774 O 0.55339 0.5725 0.03054 0.0
O775 O 0.51066 0.55474 0.04392 0.0
C776 C 0.44486 0.49343 0.05025 0.0
O777 O 0.46436 0.48941 0.05741 0.0
O778 O 0.4509 0.50626 0.03157 0.0
C779 C 0.50417 0.51688 0.98872 0.0
Tb780 Tb 0.21394 0.37454 0.35909 0.0
C781 C 0.19609 0.30891 0.36596 0.0
Tb782 Tb 0.15273 0.32887 0.35798 0.0
O783 O 0.21446 0.39016 0.39436 0.0
O784 O 0.18674 0.34831 0.38184 0.0
O785 O 0.21561 0.33458 0.36072 0.0
C786 C 0.1024 0.29727 0.37051 0.0
O787 O 0.17089 0.30327 0.3682 0.0
C788 C 0.17367 0.33683 0.31858 0.0
C789 C 0.1707 0.3946 0.35101 0.0
O790 O 0.11181 0.29095 0.35305 0.0
O791 O 0.1212 0.32167 0.38065 0.0
O792 O 0.15216 0.31316 0.3229 0.0
O793 O 0.17985 0.35502 0.33513 0.0
O794 O 0.15109 0.36887 0.35611 0.0
O795 O 0.19596 0.40031 0.34907 0.0
C796 C 0.26393 0.40581 0.34571 0.0
O797 O 0.25527 0.41192 0.36379 0.0
O798 O 0.2446 0.3818 0.33548 0.0
C799 C 0.19286 0.36639 0.39841 0.0
Tb800 Tb 0.66134 0.86 0.35634 0.0
C801 C 0.72277 0.90736 0.36923 0.0
Tb802 Tb 0.70545 0.84219 0.35966 0.0
O803 O 0.66803 0.8735 0.39275 0.0
O804 O 0.67628 0.84215 0.38019 0.0
O805 O 0.69919 0.9016 0.35896 0.0
C806 C 0.7379 0.82286 0.37416 0.0
O807 O 0.72844 0.88692 0.37347 0.0
C808 C 0.69757 0.86007 0.3206 0.0
C809 C 0.64332 0.79356 0.34768 0.0
O810 O 0.72726 0.819 0.35344 0.0
O811 O 0.73018 0.83745 0.38653 0.0
O812 O 0.7206 0.8625 0.3277 0.0
O813 O 0.68092 0.84634 0.33446 0.0
O814 O 0.66864 0.79968 0.35349 0.0
O815 O 0.63608 0.81357 0.34723 0.0
C816 C 0.62854 0.87583 0.33674 0.0
O817 O 0.6228 0.85987 0.35384 0.0
O818 O 0.65253 0.8828 0.33109 0.0
C819 C 0.67877 0.85786 0.39764 0.0
Tb820 Tb 0.15514 0.83996 0.36213 0.0
C821 C 0.17276 0.79657 0.34478 0.0
Tb822 Tb 0.21591 0.86382 0.35645 0.0
O823 O 0.14491 0.82872 0.3255 0.0
O824 O 0.18279 0.86295 0.33824 0.0
O825 O 0.15393 0.79932 0.35489 0.0
C826 C 0.26384 0.87877 0.34101 0.0
O827 O 0.19708 0.81895 0.34212 0.0
C828 C 0.20173 0.85639 0.39809 0.0
C829 C 0.19824 0.90762 0.37217 0.0
O830 O 0.24583 0.88389 0.33172 0.0
O831 O 0.25495 0.86542 0.3591 0.0
O832 O 0.22556 0.87588 0.393 0.0
O833 O 0.18827 0.84084 0.38032 0.0
O834 O 0.21688 0.90447 0.36208 0.0
O835 O 0.17399 0.88539 0.37539 0.0
C836 C 0.10876 0.82294 0.3812 0.0
O837 O 0.11503 0.83614 0.3627 0.0
O838 O 0.12839 0.81923 0.38859 0.0
C839 C 0.16901 0.84772 0.32045 0.0
Tb840 Tb 0.88176 0.70731 0.69108 0.0
C841 C 0.86476 0.64182 0.69795 0.0
Tb842 Tb 0.82077 0.66109 0.69071 0.0
O843 O 0.88213 0.72332 0.7262 0.0
O844 O 0.85516 0.68107 0.71407 0.0
O845 O 0.88411 0.66775 0.69299 0.0
C846 C 0.77138 0.62956 0.70511 0.0
O847 O 0.83938 0.63566 0.70006 0.0
C848 C 0.84099 0.66862 0.65107 0.0
C849 C 0.83797 0.72663 0.68346 0.0
O850 O 0.77951 0.62358 0.68665 0.0
O851 O 0.79089 0.6536 0.71515 0.0
O852 O 0.81974 0.64489 0.65574 0.0
O853 O 0.8473 0.68712 0.66744 0.0
O854 O 0.81853 0.70075 0.68848 0.0
O855 O 0.86331 0.7327 0.6814 0.0
C856 C 0.9316 0.73918 0.67757 0.0
O857 O 0.92308 0.74467 0.69599 0.0
O858 O 0.9122 0.71545 0.66702 0.0
C859 C 0.86101 0.69926 0.73048 0.0
Tb860 Tb 0.33289 0.198 0.68788 0.0
C861 C 0.39256 0.24277 0.70652 0.0
Tb862 Tb 0.37318 0.17622 0.69455 0.0
O863 O 0.33581 0.20873 0.72441 0.0
O864 O 0.3418 0.17555 0.71219 0.0
O865 O 0.37 0.23923 0.69579 0.0
C866 C 0.41002 0.16297 0.70976 0.0
O867 O 0.39681 0.22096 0.70947 0.0
C868 C 0.36223 0.1835 0.65265 0.0
C869 C 0.31313 0.13101 0.67741 0.0
O870 O 0.38783 0.15659 0.71899 0.0
O871 O 0.41136 0.17667 0.69198 0.0
O872 O 0.3689 0.16466 0.65807 0.0
O873 O 0.36433 0.19871 0.67031 0.0
O874 O 0.33587 0.13481 0.68806 0.0
O875 O 0.30885 0.15276 0.67403 0.0
C876 C 0.30005 0.21428 0.66837 0.0
O877 O 0.32308 0.21931 0.66174 0.0
O878 O 0.29532 0.20003 0.68634 0.0
C879 C 0.34333 0.19049 0.72984 0.0
Tb880 Tb 0.82369 0.17777 0.69151 0.0
C881 C 0.83787 0.1276 0.68276 0.0
Tb882 Tb 0.88372 0.19345 0.69182 0.0
O883 O 0.82291 0.18979 0.65652 0.0
O884 O 0.84951 0.17662 0.66812 0.0
O885 O 0.81946 0.13468 0.68796 0.0
C886 C 0.93339 0.21278 0.67844 0.0
O887 O 0.86371 0.14739 0.68114 0.0
C888 C 0.86284 0.18364 0.73121 0.0
C889 C 0.86955 0.24373 0.6995 0.0
O890 O 0.92442 0.19906 0.69639 0.0
O891 O 0.91454 0.21596 0.66829 0.0
O892 O 0.88312 0.18025 0.72669 0.0
O893 O 0.85794 0.19494 0.71499 0.0
O894 O 0.88794 0.23657 0.69434 0.0
O895 O 0.84374 0.22402 0.70138 0.0
C896 C 0.77577 0.15655 0.70868 0.0
O897 O 0.78236 0.17098 0.69076 0.0
O898 O 0.79591 0.15388 0.71645 0.0
C899 C 0.84378 0.18742 0.65191 0.0
C900 C 0.38342 0.93401 0.07746 0.0
C901 C 0.36481 0.90708 0.06601 0.0
H902 H 0.42163 0.97325 0.07752 0.0
C903 C 0.37061 0.89992 0.04469 0.0
H904 H 0.37979 0.94018 0.09396 0.0
C905 C 0.39459 0.91885 0.03533 0.0
C906 C 0.41335 0.94543 0.047 0.0
H907 H 0.35656 0.87963 0.03517 0.0
H908 H 0.39859 0.91249 1.01905 0.0
C909 C 0.40744 0.95295 0.06807 0.0
C910 C 0.11733 0.47407 0.07989 0.0
C911 C 0.13978 0.48004 0.06771 0.0
H912 H 0.08042 0.47508 0.08105 0.0
C913 C 0.14161 0.49157 0.0466 0.0
H914 H 0.1154 0.46552 0.09631 0.0
C915 C 0.12174 0.49728 0.03802 0.0
C916 C 0.09947 0.49142 0.05026 0.0
H917 H 0.15829 0.49594 0.03653 0.0
H918 H 0.12379 0.50623 0.02175 0.0
C919 C 0.09736 0.47967 0.07123 0.0
C920 C 0.57769 0.65694 0.05731 0.0
C921 C 0.56089 0.66175 0.07112 0.0
H922 H 0.58279 0.62662 0.03676 0.0
C923 C 0.53485 0.63853 0.07371 0.0
H924 H 0.59769 0.6744 0.05463 0.0
C925 C 0.5262 0.61102 0.06334 0.0
C926 C 0.54335 0.60605 0.05008 0.0
H927 H 0.52146 0.64135 0.0844 0.0
H928 H 0.50631 0.59351 0.06624 0.0
C929 C 0.56905 0.62949 0.04693 0.0
C930 C 0.94772 0.38515 0.9903 0.0
C931 C 0.92454 0.38028 0.97694 0.0
H932 H 0.98384 0.41548 1.01077 0.0
C933 C 0.91962 0.40324 0.97513 0.0
H934 H 0.95194 0.36786 0.99234 0.0
C935 C 0.93789 0.4306 0.98577 0.0
C936 C 0.96152 0.43568 0.99856 0.0
H937 H 0.90212 0.40035 0.9648 0.0
H938 H 0.93378 0.44791 0.98346 0.0
C939 C 0.96596 0.41248 1.00099 0.0
C940 C 0.65776 0.57644 0.97192 0.0
C941 C 0.67516 0.56834 0.98261 0.0
H942 H 0.61988 0.57559 0.97173 0.0
C943 C 0.66689 0.55238 1.00172 0.0
H944 H 0.66355 0.58892 0.9573 0.0
C945 C 0.64201 0.54496 1.01004 0.0
C946 C 0.62482 0.55326 0.99943 0.0
H947 H 0.67951 0.5453 1.01014 0.0
H948 H 0.63624 0.53268 0.02477 0.0
C949 C 0.63283 0.56897 0.98025 0.0
C950 C 0.5138 0.13151 0.9974 0.0
C951 C 0.48673 0.12471 0.99328 0.0
H952 H 0.54114 0.11754 1.00829 0.0
C953 C 0.466 0.09721 0.99792 0.0
H954 H 0.53032 0.15226 0.99376 0.0
C955 C 0.47224 0.07703 1.00633 0.0
C956 C 0.49936 0.08384 1.01015 0.0
H957 H 0.44494 0.09132 0.99519 0.0
H958 H 0.4558 0.05597 1.00944 0.0
C959 C 0.52001 0.11144 1.0057 0.0
C960 C 0.6714 0.13754 1.00878 0.0
C961 C 0.6784 0.12968 0.98834 0.0
H962 H 0.64146 0.12633 0.03264 0.0
C963 C 0.65968 0.10311 0.97645 0.0
H964 H 0.68507 0.158 1.01825 0.0
C965 C 0.6346 0.08503 0.9847 0.0
C966 C 0.62765 0.0931 1.00501 0.0
H967 H 0.66445 0.09617 0.9608 0.0
H968 H 0.62055 0.06482 0.97507 0.0
C969 C 0.64634 0.11947 1.01701 0.0
C970 C 0.94071 0.57892 0.95624 0.0
C971 C 0.91682 0.57451 0.96527 0.0
H972 H 0.97543 0.57389 0.95977 0.0
C973 C 0.90958 0.56056 0.98542 0.0
H974 H 0.94665 0.58898 0.94052 0.0
C975 C 0.92608 0.55162 0.99639 0.0
C976 C 0.95008 0.55649 0.98741 0.0
H977 H 0.89143 0.55699 0.99292 0.0
H978 H 0.92019 0.54115 1.01196 0.0
C979 C 0.95715 0.57009 0.9672 0.0
C980 C 0.46396 0.38459 0.99309 0.0
C981 C 0.48172 0.38017 0.98026 0.0
H982 H 0.45773 0.41429 1.0134 0.0
C983 C 0.50813 0.40345 0.97905 0.0
H984 H 0.44359 0.36708 0.99465 0.0
C985 C 0.51631 0.43059 0.98988 0.0
C986 C 0.49832 0.43517 1.00228 0.0
H987 H 0.52226 0.40096 0.96912 0.0
H988 H 0.53659 0.44812 0.9881 0.0
C989 C 0.47215 0.41169 1.00397 0.0
C990 C 0.12304 0.63802 0.07145 0.0
C991 C 0.11766 0.66078 0.07122 0.0
H992 H 0.10957 0.59404 0.06087 0.0
C993 C 0.09432 0.65636 0.05838 0.0
H994 H 0.14066 0.64054 0.08135 0.0
C995 C 0.0764 0.62963 0.04662 0.0
C996 C 0.08132 0.60658 0.04745 0.0
H997 H 0.08974 0.67353 0.05757 0.0
H998 H 0.05838 0.62691 0.03729 0.0
C999 C 0.10509 0.61126 0.05976 0.0
C1000 C 0.37527 0.4787 0.06395 0.0
C1001 C 0.37339 0.46799 0.08544 0.0
H1002 H 0.39943 0.4952 0.03585 0.0
C1003 C 0.39548 0.4664 0.09519 0.0
H1004 H 0.35857 0.48002 0.05585 0.0
C1005 C 0.41856 0.47471 0.08364 0.0
C1006 C 0.42029 0.48508 0.06214 0.0
H1007 H 0.39509 0.45892 0.1119 0.0
H1008 H 0.43514 0.47308 0.09165 0.0
C1009 C 0.39856 0.48724 0.05242 0.0
C1010 C 0.57523 0.94318 0.04989 0.0
C1011 C 0.55505 0.91575 0.05516 0.0
H1012 H 0.58438 0.98395 0.03814 0.0
C1013 C 0.52778 0.90854 0.05193 0.0
H1014 H 0.59641 0.94935 0.0519 0.0
C1015 C 0.52087 0.92824 0.04391 0.0
C1016 C 0.541 0.95579 0.03886 0.0
H1017 H 0.51168 0.8878 0.05607 0.0
H1018 H 0.49964 0.92193 0.04204 0.0
C1019 C 0.56829 0.96293 0.04177 0.0
C1020 C 0.03169 0.23413 0.37417 0.0
C1021 C 0.02445 0.24156 0.39466 0.0
H1022 H 0.06187 0.2459 0.35051 0.0
C1023 C 0.04308 0.26789 0.40693 0.0
H1024 H 1.01811 0.21385 0.36443 0.0
C1025 C 0.06826 0.28622 0.39892 0.0
C1026 C 0.07538 0.2786 0.37852 0.0
H1027 H 0.03813 0.27445 0.42264 0.0
H1028 H 0.08224 0.30625 0.40881 0.0
C1029 C 0.05684 0.25242 0.36621 0.0
C1030 C 0.78496 0.81101 0.41338 0.0
C1031 C 0.79607 0.79974 0.39822 0.0
H1032 H 0.75783 0.82701 0.41761 0.0
C1033 C 0.78683 0.79491 0.37506 0.0
H1034 H 0.79118 0.81451 0.43136 0.0
C1035 C 0.76743 0.8018 0.36723 0.0
C1036 C 0.757 0.81375 0.38237 0.0
H1037 H 0.79512 0.78656 0.36287 0.0
H1038 H 0.76107 0.79838 0.34927 0.0
C1039 C 0.76572 0.81801 0.40553 0.0
C1040 C 0.23902 0.98793 0.38973 0.0
C1041 C 0.22148 0.99188 0.40322 0.0
H1042 H 0.24544 0.95858 0.36919 0.0
C1043 C 0.19549 0.96821 0.40514 0.0
H1044 H 0.25903 1.00578 0.3876 0.0
C1045 C 0.18761 0.94106 0.39448 0.0
C1046 C 0.20549 0.93693 0.38159 0.0
H1047 H 0.18156 0.97038 0.41556 0.0
H1048 H 0.16774 0.92317 0.39691 0.0
C1049 C 0.23113 0.96084 0.37905 0.0
C1050 C 0.57903 0.72951 0.31873 0.0
C1051 C 0.5867 0.70856 0.3162 0.0
H1052 H 0.59065 0.77257 0.33074 0.0
C1053 C 0.61213 0.71492 0.3262 0.0
H1054 H 0.55969 0.72547 0.31112 0.0
C1055 C 0.62998 0.74202 0.33744 0.0
C1056 C 0.62288 0.7635 0.33894 0.0
H1057 H 0.61851 0.69912 0.32495 0.0
H1058 H 0.64972 0.74637 0.34426 0.0
C1059 C 0.59689 0.75663 0.32995 0.0
C1060 C 0.33256 0.88654 0.33553 0.0
C1061 C 0.33893 0.89786 0.31431 0.0
H1062 H 0.30386 0.87169 0.36054 0.0
C1063 C 0.32051 0.90348 0.30218 0.0
H1064 H 0.34646 0.88243 0.34552 0.0
C1065 C 0.29618 0.89757 0.31096 0.0
C1066 C 0.28981 0.88592 0.332 0.0
H1067 H 0.32462 0.91189 0.28571 0.0
H1068 H 0.28221 0.90176 0.30114 0.0
C1069 C 0.30824 0.88056 0.34423 0.0
C1070 C 0.13003 0.43025 0.33403 0.0
C1071 C 0.1499 0.45566 0.32552 0.0
H1072 H 0.12086 0.39103 0.34881 0.0
C1073 C 0.17679 0.46152 0.32688 0.0
H1074 H 0.1091 0.42505 0.3332 0.0
C1075 C 0.18356 0.44219 0.33591 0.0
C1076 C 0.16361 0.41631 0.34377 0.0
H1077 H 0.19272 0.48114 0.32093 0.0
H1078 H 0.20446 0.44739 0.33627 0.0
C1079 C 0.13678 0.41074 0.34298 0.0
C1080 C 0.33466 0.46849 0.34083 0.0
C1081 C 0.34078 0.46136 0.31965 0.0
H1082 H 0.30571 0.45656 0.36563 0.0
C1083 C 0.32145 0.43535 0.30737 0.0
H1084 H 0.34883 0.48851 0.35062 0.0
C1085 C 0.29668 0.41706 0.31602 0.0
C1086 C 0.29063 0.4244 0.33709 0.0
H1087 H 0.32554 0.429 0.29114 0.0
H1088 H 0.28215 0.39728 0.3061 0.0
C1089 C 0.30989 0.45025 0.34942 0.0
C1090 C 0.60346 0.90853 0.29378 0.0
C1091 C 0.57876 0.90325 0.30162 0.0
H1092 H 0.63828 0.90399 0.29873 0.0
C1093 C 0.57014 0.88813 0.32113 0.0
H1094 H 0.61046 0.91947 0.27855 0.0
C1095 C 0.58612 0.87892 0.33265 0.0
C1096 C 0.61095 0.88472 0.32487 0.0
H1097 H 0.5513 0.88384 0.32769 0.0
H1098 H 0.5792 0.86754 0.34771 0.0
C1099 C 0.61936 0.89948 0.30528 0.0
C1100 C 0.1328 0.71691 0.32433 0.0
C1101 C 0.15139 0.71386 0.31161 0.0
H1102 H 0.12485 0.74521 0.34477 0.0
C1103 C 0.17759 0.73781 0.31118 0.0
H1104 H 0.11238 0.69902 0.32487 0.0
C1105 C 0.18473 0.76433 0.32252 0.0
C1106 C 0.16587 0.76767 0.33462 0.0
H1107 H 0.19257 0.73614 0.30186 0.0
H1108 H 0.20493 0.78237 0.32136 0.0
C1109 C 0.13994 0.74349 0.33567 0.0
C1110 C 0.78536 0.97176 0.39988 0.0
C1111 C 0.77811 0.99314 0.40014 0.0
H1112 H 0.7738 0.92816 0.38991 0.0
C1113 C 0.75338 0.98667 0.38854 0.0
H1114 H 0.80411 0.97586 0.40881 0.0
C1115 C 0.7359 0.95922 0.37765 0.0
C1116 C 0.74266 0.93748 0.3782 0.0
H1117 H 0.74733 1.00275 0.38813 0.0
H1118 H 0.71671 0.95483 0.36942 0.0
C1119 C 0.76785 0.94429 0.3891 0.0
C1120 C 0.03846 0.80687 0.39381 0.0
C1121 C 0.0361 0.79552 0.41508 0.0
H1122 H 0.06337 0.82446 0.36631 0.0
C1123 C 0.05809 0.79392 0.42505 0.0
H1124 H 0.02186 0.80823 0.38556 0.0
C1125 C 0.08157 0.80288 0.41394 0.0
C1126 C 0.08378 0.81388 0.39265 0.0
H1127 H 0.05731 0.78596 0.44161 0.0
H1128 H 0.09809 0.80127 0.42212 0.0
C1129 C 0.06213 0.81602 0.38272 0.0
C1130 C 0.23701 0.27302 0.38117 0.0
C1131 C 0.21752 0.24778 0.39014 0.0
H1132 H 0.24567 0.3121 0.36645 0.0
C1133 C 0.19074 0.24216 0.38981 0.0
H1134 H 0.25785 0.27805 0.38123 0.0
C1135 C 0.18372 0.26152 0.38126 0.0
C1136 C 0.20331 0.2872 0.37288 0.0
H1137 H 0.17509 0.22268 0.39616 0.0
H1138 H 0.16292 0.25652 0.38164 0.0
C1139 C 0.23002 0.29256 0.37271 0.0
C1140 C 0.70211 0.5655 0.7119 0.0
C1141 C 0.69677 0.57233 0.73353 0.0
H1142 H 0.7297 0.57827 0.68596 0.0
C1143 C 0.71579 0.59892 0.74524 0.0
H1144 H 0.68774 0.54549 0.70219 0.0
C1145 C 0.73978 0.61782 0.73579 0.0
C1146 C 0.74523 0.61059 0.71441 0.0
H1147 H 0.7125 0.60482 0.76198 0.0
H1148 H 0.75429 0.63784 0.74543 0.0
C1149 C 0.72606 0.58438 0.70248 0.0
C1150 C 0.47254 0.15607 0.71331 0.0
C1151 C 0.47107 0.1441 0.73418 0.0
H1152 H 0.45444 0.1714 0.68935 0.0
C1153 C 0.44897 0.13807 0.74686 0.0
H1154 H 0.48893 0.1605 0.70287 0.0
C1155 C 0.42896 0.14401 0.73889 0.0
C1156 C 0.43073 0.15619 0.71816 0.0
H1157 H 0.44733 0.12917 0.7631 0.0
H1158 H 0.41228 0.13934 0.74906 0.0
C1159 C 0.45267 0.16214 0.70546 0.0
C1160 C 0.86964 0.30971 0.72511 0.0
C1161 C 0.89749 0.33017 0.7282 0.0
H1162 H 0.83896 0.26664 0.71349 0.0
C1163 C 0.91583 0.32278 0.71959 0.0
H1164 H 0.85492 0.31451 0.73165 0.0
C1165 C 0.90668 0.2952 0.70918 0.0
C1166 C 0.87894 0.27425 0.70717 0.0
H1167 H 0.93739 0.33816 0.72132 0.0
H1168 H 0.92151 0.29004 0.70347 0.0
C1169 C 0.86048 0.28212 0.71474 0.0
C1170 C 0.27865 0.05135 0.65773 0.0
C1171 C 0.25529 0.04686 0.64486 0.0
H1172 H 0.31497 0.0811 0.67827 0.0
C1173 C 0.25028 0.06984 0.64406 0.0
H1174 H 0.28296 0.03403 0.65898 0.0
C1175 C 0.26861 0.09688 0.65519 0.0
C1176 C 0.2924 0.10162 0.66749 0.0
H1177 H 0.23266 0.06727 0.63413 0.0
H1178 H 0.2644 0.11424 0.65363 0.0
C1179 C 0.29694 0.07836 0.66892 0.0
C1180 C 0.99031 0.23891 0.63978 0.0
C1181 C 1.00934 0.23433 0.65206 0.0
H1182 H 0.95138 0.23569 0.63855 0.0
C1183 C 1.00347 0.22364 0.67354 0.0
H1184 H 0.99397 0.24679 0.6231 0.0
C1185 C 0.97899 0.2171 0.68229 0.0
C1186 C 0.95989 0.22125 0.66982 0.0
H1187 H 1.01783 0.22033 0.68367 0.0
H1188 H 0.97494 0.20857 0.69873 0.0
C1189 C 0.96586 0.23245 0.64858 0.0
C1190 C 0.84503 0.79636 0.66468 0.0
C1191 C 0.81794 0.78955 0.66098 0.0
H1192 H 0.87252 0.78226 0.67482 0.0
C1193 C 0.7973 0.76201 0.66561 0.0
H1194 H 0.86147 0.81718 0.66105 0.0
C1195 C 0.80366 0.74176 0.67359 0.0
C1196 C 0.83081 0.74853 0.67695 0.0
H1197 H 0.77622 0.75614 0.66319 0.0
H1198 H 0.78729 0.72066 0.67671 0.0
C1199 C 0.85137 0.77619 0.67253 0.0
C1200 C 1.00222 0.80231 0.67318 0.0
C1201 C 1.00841 0.7957 0.65185 0.0
H1202 H 0.97322 0.78967 0.69798 0.0
C1203 C 0.98919 0.76985 0.63932 0.0
H1204 H 1.01628 0.82219 0.68318 0.0
C1205 C 0.96442 0.75124 0.64784 0.0
C1206 C 0.95828 0.75808 0.66904 0.0
H1207 H 0.99334 0.76388 0.62296 0.0
H1208 H 0.94996 0.73162 0.63771 0.0
C1209 C 0.97746 0.78374 0.68165 0.0
C1210 C 0.24254 0.22856 0.65456 0.0
C1211 C 0.24981 0.24184 0.63412 0.0
H1212 H 0.25277 0.20939 0.68155 0.0
C1213 C 0.27341 0.24535 0.62511 0.0
H1214 H 0.22461 0.22568 0.66208 0.0
C1215 C 0.28952 0.23631 0.63633 0.0
C1216 C 0.2824 0.22333 0.65679 0.0
H1217 H 0.27936 0.25486 0.60918 0.0
H1218 H 0.30757 0.23941 0.62888 0.0
C1219 C 0.25869 0.21936 0.66579 0.0
C1220 C 0.83776 0.06182 0.65667 0.0
C1221 C 0.80991 0.04135 0.65361 0.0
H1222 H 0.86845 0.10486 0.66837 0.0
C1223 C 0.79157 0.0487 0.6623 0.0
H1224 H 0.85246 0.05705 0.65005 0.0
C1225 C 0.80074 0.07623 0.67279 0.0
C1226 C 0.82849 0.09718 0.67481 0.0
H1227 H 0.77002 0.03331 0.66058 0.0
H1228 H 0.78592 0.08135 0.67861 0.0
C1229 C 0.84693 0.08937 0.66712 0.0
C1230 C 0.45475 0.30318 0.7411 0.0
C1231 C 0.44972 0.32617 0.74054 0.0
H1232 H 0.44084 0.25899 0.73087 0.0
C1233 C 0.42656 0.32194 0.72752 0.0
H1234 H 0.47223 0.30557 0.75113 0.0
C1235 C 0.40848 0.29518 0.7159 0.0
C1236 C 0.41305 0.27191 0.71704 0.0
H1237 H 0.42225 0.33929 0.72647 0.0
H1238 H 0.39061 0.29263 0.70641 0.0
C1239 C 0.43663 0.27638 0.72953 0.0
C1240 C 0.70552 0.14023 0.72195 0.0
C1241 C 0.70294 0.12763 0.74268 0.0
H1242 H 0.7306 0.1592 0.69476 0.0
C1243 C 0.72443 0.12449 0.75172 0.0
H1244 H 0.68929 0.14278 0.7144 0.0
C1245 C 0.74778 0.1336 0.74041 0.0
C1246 C 0.75038 0.14623 0.7198 0.0
H1247 H 0.7235 0.11549 0.76785 0.0
H1248 H 0.76402 0.13108 0.74802 0.0
C1249 C 0.72906 0.14948 0.71062 0.0
C1250 C 0.85872 0.57279 0.71746 0.0
C1251 C 0.88591 0.5797 0.72037 0.0
H1252 H 0.83078 0.58656 0.70798 0.0
C1253 C 0.90618 0.60702 0.71495 0.0
H1254 H 0.84257 0.55214 0.72171 0.0
C1255 C 0.89939 0.62695 0.70701 0.0
C1256 C 0.87218 0.6201 0.70444 0.0
H1257 H 0.92731 0.61295 0.71673 0.0
H1258 H 0.91553 0.64789 0.70327 0.0
C1259 C 0.85196 0.59266 0.70962 0.0
C1260 C 0.51529 0.03696 0.12668 0.0
C1261 C 0.49855 1.00752 0.12967 0.0
H1262 H 0.53819 0.06852 0.10367 0.0
C1263 C 0.49085 0.98728 0.11094 0.0
H1264 H 0.52157 0.05302 0.14086 0.0
C1265 C 0.50012 0.99611 0.08984 0.0
C1266 C 0.51746 0.0254 0.08692 0.0
H1267 H 0.47766 0.96451 0.11263 0.0
H1268 H 0.49407 0.9798 0.0759 0.0
C1269 C 0.52484 0.04582 0.10548 0.0
C1270 C 0.04452 0.5486 0.12038 0.0
C1271 C 0.04622 0.52461 0.12668 0.0
H1272 H 0.03233 0.5674 0.09452 0.0
C1273 C 0.03627 0.50057 0.11071 0.0
H1274 H 0.05234 0.56772 0.13197 0.0
C1275 C 0.02502 0.50058 0.08912 0.0
C1276 C 0.02339 0.52456 0.08299 0.0
H1277 H 0.03674 0.48148 0.11498 0.0
H1278 H 1.01724 0.48165 0.07733 0.0
C1279 C 0.03313 0.5485 0.09886 0.0
C1280 C 0.49378 0.49838 0.11554 0.0
C1281 C 0.50406 0.52409 0.12963 0.0
H1282 H 0.49648 0.47801 0.08459 0.0
C1283 C 0.52582 0.54945 0.12269 0.0
H1284 H 0.47742 0.4783 0.12047 0.0
C1285 C 0.53682 0.54913 0.1022 0.0
C1286 C 0.52615 0.52354 0.08806 0.0
H1287 H 0.53408 0.56973 0.13287 0.0
H1288 H 0.55327 0.56908 0.09717 0.0
C1289 C 0.50472 0.49813 0.09502 0.0
C1290 C 1.00734 0.54198 0.93194 0.0
C1291 C 0.99671 0.51747 0.91636 0.0
H1292 H 0.02736 0.56167 0.96493 0.0
C1293 C 0.99805 0.49341 0.92302 0.0
H1294 H 1.00656 0.56087 0.92759 0.0
C1295 C 1.00935 0.49372 0.94463 0.0
C1296 C 1.01965 0.51806 0.96017 0.0
H1297 H 0.99064 0.47435 0.91146 0.0
H1298 H 1.00985 0.47474 0.94923 0.0
C1299 C 1.01885 0.54232 0.95353 0.0
C1300 C 0.51213 0.49118 0.9306 0.0
C1301 C 0.53592 0.51529 0.92463 0.0
H1302 H 0.48347 0.47287 0.95548 0.0
C1303 C 0.54873 0.5402 0.93988 0.0
H1304 H 0.50188 0.47146 0.91954 0.0
C1305 C 0.53822 0.54085 0.96056 0.0
C1306 C 0.51467 0.51666 0.96649 0.0
H1307 H 0.56676 0.55939 0.93575 0.0
H1308 H 0.54841 0.56038 0.97184 0.0
C1309 C 0.50157 0.49192 0.95124 0.0
C1310 C 0.5438 0.05335 0.93808 0.0
C1311 C 0.52986 0.03481 0.91852 0.0
H1312 H 0.54876 0.05855 0.97425 0.0
C1313 C 0.51159 1.00553 0.92097 0.0
H1314 H 0.55836 0.0759 0.9368 0.0
C1315 C 0.50629 0.99545 0.94258 0.0
C1316 C 0.5192 1.01445 0.96209 0.0
H1317 H 0.50043 0.99071 0.90624 0.0
H1318 H 0.4913 0.97309 0.94402 0.0
C1319 C 0.53849 0.04332 0.95958 0.0
C1320 C 0.18354 0.37023 0.46126 0.0
C1321 C 0.16308 0.34174 0.46378 0.0
H1322 H 0.20876 0.40062 0.43845 0.0
C1323 C 0.15231 0.32189 0.44456 0.0
H1324 H 0.19215 0.38605 0.47574 0.0
C1325 C 0.1619 0.33014 0.42343 0.0
C1326 C 0.18225 0.35857 0.42084 0.0
H1327 H 0.13688 0.29968 0.44596 0.0
H1328 H 0.15363 0.314 0.40918 0.0
C1329 C 0.19294 0.37861 0.43993 0.0
C1330 C 0.71089 0.88165 0.45805 0.0
C1331 C 0.71459 0.85871 0.46386 0.0
H1332 H 0.69672 0.89929 0.43264 0.0
C1333 C 0.70653 0.83552 0.44739 0.0
H1334 H 0.71724 0.90013 0.47003 0.0
C1335 C 0.69502 0.83526 0.42585 0.0
C1336 C 0.69124 0.85812 0.42025 0.0
H1337 H 0.70859 0.81722 0.45125 0.0
H1338 H 0.68866 0.81692 0.4137 0.0
C1339 C 0.69924 0.88128 0.43656 0.0
C1340 C 0.19055 0.88273 0.45455 0.0
C1341 C 0.169 0.85742 0.46176 0.0
H1342 H 0.21771 0.90213 0.42883 0.0
C1343 C 0.15861 0.83158 0.44781 0.0
H1344 H 0.19886 0.90311 0.4646 0.0
C1345 C 0.16938 0.83114 0.42721 0.0
C1346 C 0.1907 0.85648 0.42006 0.0
H1347 H 0.14238 0.81156 0.45293 0.0
H1348 H 0.16118 0.8109 0.41696 0.0
C1349 C 0.20135 0.88222 0.43401 0.0
C1350 C 0.65218 0.84878 0.2678 0.0
C1351 C 0.6707 0.86157 0.25148 0.0
H1352 H 0.64617 0.83845 0.3021 0.0
C1353 C 0.69864 0.87537 0.25834 0.0
H1354 H 0.63057 0.8384 0.26323 0.0
C1355 C 0.70773 0.8755 0.28091 0.0
C1356 C 0.68903 0.8622 0.29703 0.0
H1357 H 0.71342 0.8854 0.24614 0.0
H1358 H 0.72928 0.88565 0.28566 0.0
C1359 C 0.6612 0.8491 0.2902 0.0
C1360 C 0.21391 0.87215 0.27183 0.0
C1361 C 0.20178 0.84718 0.25666 0.0
H1362 H 0.21273 0.89204 0.30364 0.0
C1363 C 0.17834 0.82263 0.26261 0.0
H1364 H 0.23164 0.89165 0.26773 0.0
C1365 C 0.16747 0.82301 0.28315 0.0
C1366 C 0.17988 0.84784 0.29833 0.0
H1367 H 0.16862 0.80286 0.25161 0.0
H1368 H 0.14966 0.80364 0.28737 0.0
C1369 C 0.20307 0.87245 0.29241 0.0
C1370 C 0.20583 0.3824 0.27024 0.0
C1371 C 0.19136 0.363 0.2512 0.0
H1372 H 0.21146 0.38934 0.30639 0.0
C1373 C 0.17271 0.33413 0.25457 0.0
H1374 H 0.22009 0.40484 0.26828 0.0
C1375 C 0.16789 0.32517 0.27651 0.0
C1376 C 0.18146 0.34496 0.29549 0.0
H1377 H 0.16145 0.31859 0.24024 0.0
H1378 H 0.15284 0.30302 0.27861 0.0
C1379 C 0.20086 0.3735 0.29212 0.0
C1380 C 0.82443 0.6541 0.77768 0.0
C1381 C 0.83222 0.67484 0.79605 0.0
H1382 H 0.82727 0.64563 0.74275 0.0
C1383 C 0.84881 0.70414 0.79252 0.0
H1384 H 0.81136 0.63141 0.77978 0.0
C1385 C 0.85807 0.71238 0.77113 0.0
C1386 C 0.85054 0.69146 0.75292 0.0
H1387 H 0.85517 0.72057 0.80642 0.0
H1388 H 0.87126 0.73499 0.76889 0.0
C1389 C 0.83342 0.66231 0.7564 0.0
C1390 C 0.37687 0.21455 0.78984 0.0
C1391 C 0.37896 0.19074 0.79602 0.0
H1392 H 0.364 0.23302 0.76419 0.0
C1393 C 0.36895 0.16667 0.78007 0.0
H1394 H 0.38472 0.23368 0.8014 0.0
C1395 C 0.35729 0.16648 0.7586 0.0
C1396 C 0.35528 0.19028 0.75257 0.0
H1397 H 0.36972 0.14772 0.78425 0.0
H1398 H 0.34949 0.14754 0.74682 0.0
C1399 C 0.36508 0.21425 0.76844 0.0
C1400 C 0.82735 0.19525 0.77915 0.0
C1401 C 0.83425 0.18334 0.79712 0.0
H1402 H 0.83083 0.20452 0.74441 0.0
C1403 C 0.85005 0.17057 0.79303 0.0
H1404 H 0.81488 0.20486 0.78159 0.0
C1405 C 0.85921 0.17033 0.77156 0.0
C1406 C 0.8525 0.18257 0.75375 0.0
H1407 H 0.85582 0.16133 0.80656 0.0
H1408 H 0.87169 0.16078 0.76896 0.0
C1409 C 0.83633 0.19484 0.75776 0.0
C1410 C 0.32772 0.15917 0.59307 0.0
C1411 C 0.32695 0.18356 0.58648 0.0
H1412 H 0.33938 0.14014 0.61907 0.0
C1413 C 0.33847 0.20828 0.60193 0.0
H1414 H 0.31962 0.13994 0.58158 0.0
C1415 C 0.35028 0.20849 0.62332 0.0
C1416 C 0.35049 0.18391 0.62991 0.0
H1417 H 0.33815 0.22743 0.59761 0.0
H1418 H 0.35945 0.22798 0.63463 0.0
C1419 C 0.33933 0.15936 0.6145 0.0
C1420 C 0.85226 0.19647 0.58908 0.0
C1421 C 0.87117 0.1876 0.58545 0.0
H1422 H 0.82905 0.20384 0.61305 0.0
C1423 C 0.88117 0.17919 0.60396 0.0
H1424 H 0.8443 0.20327 0.57521 0.0
C1425 C 0.87237 0.1794 0.62547 0.0
C1426 C 0.85359 0.18836 0.62914 0.0
H1427 H 0.89542 0.17181 0.60173 0.0
H1428 H 0.88002 0.17207 0.63916 0.0
C1429 C 0.84364 0.19696 0.61074 0.0
C1430 C 0.8715 0.71306 0.60177 0.0
C1431 C 0.85717 0.69294 0.58308 0.0
H1432 H 0.87751 0.72114 0.63787 0.0
C1433 C 0.83926 0.66407 0.58703 0.0
H1434 H 0.88521 0.73551 0.59936 0.0
C1435 C 0.83495 0.65579 0.60918 0.0
C1436 C 0.84834 0.67624 0.62781 0.0
H1437 H 0.82816 0.64799 0.57298 0.0
H1438 H 0.82045 0.6336 0.61171 0.0
C1439 C 0.86706 0.70482 0.62388 0.0
loop_
_geom_bond_atom_site_label_1
_geom_bond_atom_site_label_2
_geom_bond_distance
_geom_bond_site_symmetry_2
_ccdc_geom_bond_type
C0 C1 1.264 . S
C0 C5 1.479 . S
C0 C10 1.465 . S
C1 C0 1.264 . S
C1 C3 1.339 . S
C1 H28 0.931 . S
C2 C3 1.395 . S
C2 C4 1.320 . S
C3 C1 1.339 . S
C3 C2 1.395 . S
C3 H29 0.929 . S
C4 C2 1.320 . S
C4 C5 1.405 . S
C4 H30 0.930 . S
C5 C0 1.479 . S
C5 C4 1.405 . S
C5 H31 0.931 . S
U6 O7 2.454 . S
U6 O8 2.458 . S
U6 C9 2.984 . S
U6 C10 2.847 . S
U6 C23 2.882 . S
U6 O24 2.441 . S
U6 O25 2.420 . S
U6 O26 2.455 . S
U6 O27 2.449 . S
O7 U6 2.454 . S
O7 C9 1.353 . S
O8 U6 2.458 . S
O8 C9 1.286 . S
C9 U6 2.984 . S
C9 O7 1.353 . S
C9 O8 1.286 . S
C9 C11 1.363 . S
C10 C0 1.465 . S
C10 U6 2.847 . S
C10 O24 1.249 . S
C10 O25 1.202 . S
C11 C9 1.363 . S
C11 C13 1.408 . S
C11 C16 1.342 . S
C12 C13 1.310 . S
C12 C15 1.461 . S
C12 H32 0.932 . S
C13 C11 1.408 . S
C13 C12 1.310 . S
C13 H33 0.930 . S
C14 C15 1.474 . S
C14 C16 1.285 . S
C14 H34 0.929 . S
C15 C12 1.461 . S
C15 C14 1.474 . S
C16 C11 1.342 . S
C16 C14 1.285 . S
C16 H35 0.930 . S
C17 C20 1.424 . S
C17 C22 1.245 . S
C17 C23 1.428 . S
C18 C21 1.260 . S
C18 C22 1.477 . S
C18 H36 0.932 . S
C19 C20 1.384 . S
C19 C21 1.479 . S
C19 H37 0.929 . S
C20 C17 1.424 . S
C20 C19 1.384 . S
C20 H38 0.928 . S
C21 C18 1.260 . S
C21 C19 1.479 . S
C22 C17 1.245 . S
C22 C18 1.477 . S
C22 H39 0.932 . S
C23 U6 2.882 . S
C23 C17 1.428 . S
C23 O26 1.301 . S
C23 O27 1.282 . S
O24 U6 2.441 . S
O24 C10 1.249 . S
O25 U6 2.420 . S
O25 C10 1.202 . S
O26 U6 2.455 . S
O26 C23 1.301 . S
O27 U6 2.449 . S
O27 C23 1.282 . S
H28 C1 0.931 . S
H29 C3 0.929 . S
H30 C4 0.930 . S
H31 C5 0.931 . S
H32 C12 0.932 . S
H33 C13 0.930 . S
H34 C14 0.929 . S
H35 C16 0.930 . S
H36 C18 0.932 . S
H37 C19 0.929 . S
H38 C20 0.928 . S
H39 C22 0.932 . S
C40 C41 1.264 . S
C40 C45 1.479 . S
C40 C50 1.465 . S
C41 C40 1.264 . S
C41 C43 1.339 . S
C41 H68 0.931 . S
C42 C43 1.395 . S
C42 C44 1.320 . S
C43 C41 1.339 . S
C43 C42 1.395 . S
C43 H69 0.929 . S
C44 C42 1.320 . S
C44 C45 1.405 . S
C44 H70 0.930 . S
C45 C40 1.479 . S
C45 C44 1.405 . S
C45 H71 0.931 . S
U46 O47 2.454 . S
U46 O48 2.458 . S
U46 C49 2.984 . S
U46 C50 2.847 . S
U46 C63 2.882 . S
U46 O64 2.441 . S
U46 O65 2.420 . S
U46 O66 2.455 . S
U46 O67 2.449 . S
O47 U46 2.454 . S
O47 C49 1.353 . S
O48 U46 2.458 . S
O48 C49 1.286 . S
C49 U46 2.984 . S
C49 O47 1.353 . S
C49 O48 1.286 . S
C49 C51 1.363 . S
C50 C40 1.465 . S
C50 U46 2.847 . S
C50 O64 1.249 . S
C50 O65 1.202 . S
C51 C49 1.363 . S
C51 C53 1.408 . S
C51 C56 1.342 . S
C52 C53 1.310 . S
C52 C55 1.461 . S
C52 H72 0.932 . S
C53 C51 1.408 . S
C53 C52 1.310 . S
C53 H73 0.930 . S
C54 C55 1.474 . S
C54 C56 1.285 . S
C54 H74 0.929 . S
C55 C52 1.461 . S
C55 C54 1.474 . S
C56 C51 1.342 . S
C56 C54 1.285 . S
C56 H75 0.930 . S
C57 C60 1.424 . S
C57 C62 1.245 . S
C57 C63 1.428 . S
C58 C61 1.260 . S
C58 C62 1.477 . S
C58 H76 0.932 . S
C59 C60 1.384 . S
C59 C61 1.479 . S
C59 H77 0.929 . S
C60 C57 1.424 . S
C60 C59 1.384 . S
C60 H78 0.928 . S
C61 C58 1.260 . S
C61 C59 1.479 . S
C62 C57 1.245 . S
C62 C58 1.477 . S
C62 H79 0.932 . S
C63 U46 2.882 . S
C63 C57 1.428 . S
C63 O66 1.301 . S
C63 O67 1.282 . S
O64 U46 2.441 . S
O64 C50 1.249 . S
O65 U46 2.420 . S
O65 C50 1.202 . S
O66 U46 2.455 . S
O66 C63 1.301 . S
O67 U46 2.449 . S
O67 C63 1.282 . S
H68 C41 0.931 . S
H69 C43 0.929 . S
H70 C44 0.930 . S
H71 C45 0.931 . S
H72 C52 0.932 . S
H73 C53 0.930 . S
H74 C54 0.929 . S
H75 C56 0.930 . S
H76 C58 0.932 . S
H77 C59 0.929 . S
H78 C60 0.928 . S
H79 C62 0.932 . S
C80 C81 1.264 . S
C80 C85 1.479 . S
C80 C90 1.465 . S
C81 C80 1.264 . S
C81 C83 1.339 . S
C81 H108 0.931 . S
C82 C83 1.395 . S
C82 C84 1.320 . S
C83 C81 1.339 . S
C83 C82 1.395 . S
C83 H109 0.929 . S
C84 C82 1.320 . S
C84 C85 1.405 . S
C84 H110 0.930 . S
C85 C80 1.479 . S
C85 C84 1.405 . S
C85 H111 0.931 . S
U86 O87 2.454 . S
U86 O88 2.458 . S
U86 C89 2.984 . S
U86 C90 2.847 . S
U86 C103 2.882 . S
U86 O104 2.441 . S
U86 O105 2.420 . S
U86 O106 2.455 . S
U86 O107 2.449 . S
O87 U86 2.454 . S
O87 C89 1.353 . S
O88 U86 2.458 . S
O88 C89 1.286 . S
C89 U86 2.984 . S
C89 O87 1.353 . S
C89 O88 1.286 . S
C89 C91 1.363 . S
C90 C80 1.465 . S
C90 U86 2.847 . S
C90 O104 1.249 . S
C90 O105 1.202 . S
C91 C89 1.363 . S
C91 C93 1.408 . S
C91 C96 1.342 . S
C92 C93 1.310 . S
C92 C95 1.465 1_655 S
C92 H112 0.932 . S
C93 C91 1.408 . S
C93 C92 1.310 . S
C93 H113 0.930 . S
C94 C95 1.475 1_655 S
C94 C96 1.285 . S
C94 H114 0.929 1_655 S
C95 C92 1.465 1_455 S
C95 C94 1.475 1_455 S
C96 C91 1.342 . S
C96 C94 1.285 . S
C96 H115 0.930 . S
C97 C100 1.424 . S
C97 C102 1.245 . S
C97 C103 1.428 . S
C98 C101 1.260 . S
C98 C102 1.477 . S
C98 H116 0.932 . S
C99 C100 1.384 . S
C99 C101 1.479 . S
C99 H117 0.929 . S
C100 C97 1.424 . S
C100 C99 1.384 . S
C100 H118 0.928 . S
C101 C98 1.260 . S
C101 C99 1.479 . S
C102 C97 1.245 . S
C102 C98 1.477 . S
C102 H119 0.932 . S
C103 U86 2.882 . S
C103 C97 1.428 . S
C103 O106 1.301 . S
C103 O107 1.282 . S
O104 U86 2.441 . S
O104 C90 1.249 . S
O105 U86 2.420 . S
O105 C90 1.202 . S
O106 U86 2.455 . S
O106 C103 1.301 . S
O107 U86 2.449 . S
O107 C103 1.282 . S
H108 C81 0.931 . S
H109 C83 0.929 . S
H110 C84 0.930 . S
H111 C85 0.931 . S
H112 C92 0.932 . S
H113 C93 0.930 . S
H114 C94 0.929 1_455 S
H115 C96 0.930 . S
H116 C98 0.932 . S
H117 C99 0.929 . S
H118 C100 0.928 . S
H119 C102 0.932 . S
C120 C121 1.264 . S
C120 C125 1.479 . S
C120 C130 1.465 . S
C121 C120 1.264 . S
C121 C123 1.339 . S
C121 H148 0.931 . S
C122 C123 1.395 . S
C122 C124 1.320 . S
C123 C121 1.339 . S
C123 C122 1.395 . S
C123 H149 0.929 . S
C124 C122 1.320 . S
C124 C125 1.405 . S
C124 H150 0.930 . S
C125 C120 1.479 . S
C125 C124 1.405 . S
C125 H151 0.931 . S
U126 O127 2.454 . S
U126 O128 2.458 . S
U126 C129 2.984 . S
U126 C130 2.847 . S
U126 C143 2.882 . S
U126 O144 2.441 . S
U126 O145 2.420 . S
U126 O146 2.455 . S
U126 O147 2.449 . S
O127 U126 2.454 . S
O127 C129 1.353 . S
O128 U126 2.458 . S
O128 C129 1.286 . S
C129 U126 2.984 . S
C129 O127 1.353 . S
C129 O128 1.286 . S
C129 C131 1.363 . S
C130 C120 1.465 . S
C130 U126 2.847 . S
C130 O144 1.249 . S
C130 O145 1.202 . S
C131 C129 1.363 . S
C131 C133 1.408 . S
C131 C136 1.342 . S
C132 C133 1.310 . S
C132 C135 1.461 . S
C132 H152 0.932 . S
C133 C131 1.408 . S
C133 C132 1.310 . S
C133 H153 0.930 . S
C134 C135 1.474 . S
C134 C136 1.285 . S
C134 H154 0.929 . S
C135 C132 1.461 . S
C135 C134 1.474 . S
C136 C131 1.342 . S
C136 C134 1.285 . S
C136 H155 0.930 . S
C137 C140 1.424 . S
C137 C142 1.245 . S
C137 C143 1.428 . S
C138 C141 1.260 . S
C138 C142 1.477 . S
C138 H156 0.932 . S
C139 C140 1.384 . S
C139 C141 1.479 . S
C139 H157 0.929 . S
C140 C137 1.424 . S
C140 C139 1.384 . S
C140 H158 0.928 . S
C141 C138 1.260 . S
C141 C139 1.479 . S
C142 C137 1.245 . S
C142 C138 1.477 . S
C142 H159 0.932 . S
C143 U126 2.882 . S
C143 C137 1.428 . S
C143 O146 1.301 . S
C143 O147 1.282 . S
O144 U126 2.441 . S
O144 C130 1.249 . S
O145 U126 2.420 . S
O145 C130 1.202 . S
O146 U126 2.455 . S
O146 C143 1.301 . S
O147 U126 2.449 . S
O147 C143 1.282 . S
H148 C121 0.931 . S
H149 C123 0.929 . S
H150 C124 0.930 . S
H151 C125 0.931 . S
H152 C132 0.932 . S
H153 C133 0.930 . S
H154 C134 0.929 . S
H155 C136 0.930 . S
H156 C138 0.932 . S
H157 C139 0.929 . S
H158 C140 0.928 . S
H159 C142 0.932 . S
C160 C161 1.264 . S
C160 C165 1.479 . S
C160 C170 1.465 . S
C161 C160 1.264 . S
C161 C163 1.339 . S
C161 H188 0.931 . S
C162 C163 1.395 . S
C162 C164 1.320 . S
C163 C161 1.339 . S
C163 C162 1.395 . S
C163 H189 0.929 . S
C164 C162 1.320 . S
C164 C165 1.405 . S
C164 H190 0.930 . S
C165 C160 1.479 . S
C165 C164 1.405 . S
C165 H191 0.931 . S
U166 O167 2.454 . S
U166 O168 2.458 . S
U166 C169 2.984 . S
U166 C170 2.847 . S
U166 C183 2.882 . S
U166 O184 2.441 . S
U166 O185 2.420 . S
U166 O186 2.455 . S
U166 O187 2.449 . S
O167 U166 2.454 . S
O167 C169 1.353 . S
O168 U166 2.458 . S
O168 C169 1.286 . S
C169 U166 2.984 . S
C169 O167 1.353 . S
C169 O168 1.286 . S
C169 C171 1.363 . S
C170 C160 1.465 . S
C170 U166 2.847 . S
C170 O184 1.249 . S
C170 O185 1.202 . S
C171 C169 1.363 . S
C171 C173 1.408 . S
C171 C176 1.342 . S
C172 C173 1.310 . S
C172 C175 1.461 . S
C172 H192 0.932 . S
C173 C171 1.408 . S
C173 C172 1.310 . S
C173 H193 0.930 . S
C174 C175 1.474 . S
C174 C176 1.285 . S
C174 H194 0.929 . S
C175 C172 1.461 . S
C175 C174 1.474 . S
C176 C171 1.342 . S
C176 C174 1.285 . S
C176 H195 0.930 . S
C177 C180 1.424 . S
C177 C182 1.245 . S
C177 C183 1.428 . S
C178 C181 1.260 . S
C178 C182 1.477 . S
C178 H196 0.932 . S
C179 C180 1.384 . S
C179 C181 1.479 . S
C179 H197 0.929 . S
C180 C177 1.424 . S
C180 C179 1.384 . S
C180 H198 0.928 . S
C181 C178 1.260 . S
C181 C179 1.479 . S
C182 C177 1.245 . S
C182 C178 1.477 . S
C182 H199 0.932 . S
C183 U166 2.882 . S
C183 C177 1.428 . S
C183 O186 1.301 . S
C183 O187 1.282 . S
O184 U166 2.441 . S
O184 C170 1.249 . S
O185 U166 2.420 . S
O185 C170 1.202 . S
O186 U166 2.455 . S
O186 C183 1.301 . S
O187 U166 2.449 . S
O187 C183 1.282 . S
H188 C161 0.931 . S
H189 C163 0.929 . S
H190 C164 0.930 . S
H191 C165 0.931 . S
H192 C172 0.932 . S
H193 C173 0.930 . S
H194 C174 0.929 . S
H195 C176 0.930 . S
H196 C178 0.932 . S
H197 C179 0.929 . S
H198 C180 0.928 . S
H199 C182 0.932 . S
C200 C201 1.264 . S
C200 C205 1.479 . S
C200 C210 1.465 . S
C201 C200 1.264 . S
C201 C203 1.339 . S
C201 H228 0.931 . S
C202 C203 1.395 . S
C202 C204 1.320 . S
C203 C201 1.339 . S
C203 C202 1.395 . S
C203 H229 0.929 . S
C204 C202 1.320 . S
C204 C205 1.405 . S
C204 H230 0.930 . S
C205 C200 1.479 . S
C205 C204 1.405 . S
C205 H231 0.931 . S
U206 O207 2.454 . S
U206 O208 2.458 . S
U206 C209 2.984 . S
U206 C210 2.847 . S
U206 C223 2.882 . S
U206 O224 2.441 . S
U206 O225 2.420 . S
U206 O226 2.455 . S
U206 O227 2.449 . S
O207 U206 2.454 . S
O207 C209 1.353 . S
O208 U206 2.458 . S
O208 C209 1.286 . S
C209 U206 2.984 . S
C209 O207 1.353 . S
C209 O208 1.286 . S
C209 C211 1.363 . S
C210 C200 1.465 . S
C210 U206 2.847 . S
C210 O224 1.249 . S
C210 O225 1.202 . S
C211 C209 1.363 . S
C211 C213 1.408 . S
C211 C216 1.342 . S
C212 C213 1.310 . S
C212 C215 1.461 . S
C212 H232 0.932 . S
C213 C211 1.408 . S
C213 C212 1.310 . S
C213 H233 0.930 . S
C214 C215 1.474 . S
C214 C216 1.285 . S
C214 H234 0.929 . S
C215 C212 1.461 . S
C215 C214 1.474 . S
C216 C211 1.342 . S
C216 C214 1.285 . S
C216 H235 0.930 . S
C217 C220 1.424 . S
C217 C222 1.245 . S
C217 C223 1.428 . S
C218 C221 1.260 . S
C218 C222 1.477 . S
C218 H236 0.932 . S
C219 C220 1.384 . S
C219 C221 1.479 . S
C219 H237 0.929 . S
C220 C217 1.424 . S
C220 C219 1.384 . S
C220 H238 0.928 . S
C221 C218 1.260 . S
C221 C219 1.479 . S
C222 C217 1.245 . S
C222 C218 1.477 . S
C222 H239 0.932 . S
C223 U206 2.882 . S
C223 C217 1.428 . S
C223 O226 1.301 . S
C223 O227 1.282 . S
O224 U206 2.441 . S
O224 C210 1.249 . S
O225 U206 2.420 . S
O225 C210 1.202 . S
O226 U206 2.455 . S
O226 C223 1.301 . S
O227 U206 2.449 . S
O227 C223 1.282 . S
H228 C201 0.931 . S
H229 C203 0.929 . S
H230 C204 0.930 . S
H231 C205 0.931 . S
H232 C212 0.932 . S
H233 C213 0.930 . S
H234 C214 0.929 . S
H235 C216 0.930 . S
H236 C218 0.932 . S
H237 C219 0.929 . S
H238 C220 0.928 . S
H239 C222 0.932 . S
C240 C241 1.264 . S
C240 C245 1.479 . S
C240 C250 1.465 . S
C241 C240 1.264 . S
C241 C243 1.339 . S
C241 H268 0.931 . S
C242 C243 1.395 . S
C242 C244 1.320 . S
C243 C241 1.339 . S
C243 C242 1.395 . S
C243 H269 0.929 . S
C244 C242 1.320 . S
C244 C245 1.405 . S
C244 H270 0.930 . S
C245 C240 1.479 . S
C245 C244 1.405 . S
C245 H271 0.931 . S
U246 O247 2.454 . S
U246 O248 2.458 . S
U246 C249 2.984 . S
U246 C250 2.847 . S
U246 C263 2.882 . S
U246 O264 2.441 . S
U246 O265 2.420 . S
U246 O266 2.455 . S
U246 O267 2.449 . S
O247 U246 2.454 . S
O247 C249 1.353 . S
O248 U246 2.458 . S
O248 C249 1.286 . S
C249 U246 2.984 . S
C249 O247 1.353 . S
C249 O248 1.286 . S
C249 C251 1.363 . S
C250 C240 1.465 . S
C250 U246 2.847 . S
C250 O264 1.249 . S
C250 O265 1.202 . S
C251 C249 1.363 . S
C251 C253 1.408 . S
C251 C256 1.342 . S
C252 C253 1.310 . S
C252 C255 1.461 . S
C252 H272 0.932 . S
C253 C251 1.408 . S
C253 C252 1.310 . S
C253 H273 0.930 . S
C254 C255 1.474 . S
C254 C256 1.285 . S
C254 H274 0.929 . S
C255 C252 1.461 . S
C255 C254 1.474 . S
C256 C251 1.342 . S
C256 C254 1.285 . S
C256 H275 0.930 . S
C257 C260 1.424 . S
C257 C262 1.245 . S
C257 C263 1.428 . S
C258 C261 1.260 . S
C258 C262 1.477 . S
C258 H276 0.932 . S
C259 C260 1.384 . S
C259 C261 1.479 . S
C259 H277 0.929 . S
C260 C257 1.424 . S
C260 C259 1.384 . S
C260 H278 0.928 . S
C261 C258 1.260 . S
C261 C259 1.479 . S
C262 C257 1.245 . S
C262 C258 1.477 . S
C262 H279 0.932 . S
C263 U246 2.882 . S
C263 C257 1.428 . S
C263 O266 1.301 . S
C263 O267 1.282 . S
O264 U246 2.441 . S
O264 C250 1.249 . S
O265 U246 2.420 . S
O265 C250 1.202 . S
O266 U246 2.455 . S
O266 C263 1.301 . S
O267 U246 2.449 . S
O267 C263 1.282 . S
H268 C241 0.931 . S
H269 C243 0.929 . S
H270 C244 0.930 . S
H271 C245 0.931 . S
H272 C252 0.932 . S
H273 C253 0.930 . S
H274 C254 0.929 . S
H275 C256 0.930 . S
H276 C258 0.932 . S
H277 C259 0.929 . S
H278 C260 0.928 . S
H279 C262 0.932 . S
C280 C281 1.264 . S
C280 C285 1.479 . S
C280 C290 1.465 . S
C281 C280 1.264 . S
C281 C283 1.339 . S
C281 H308 0.931 . S
C282 C283 1.395 . S
C282 C284 1.320 . S
C283 C281 1.339 . S
C283 C282 1.395 . S
C283 H309 0.929 . S
C284 C282 1.320 . S
C284 C285 1.405 . S
C284 H310 0.930 . S
C285 C280 1.479 . S
C285 C284 1.405 . S
C285 H311 0.931 . S
U286 O287 2.454 . S
U286 O288 2.458 . S
U286 C289 2.984 . S
U286 C290 2.847 . S
U286 C303 2.882 . S
U286 O304 2.441 . S
U286 O305 2.420 . S
U286 O306 2.455 . S
U286 O307 2.449 . S
O287 U286 2.454 . S
O287 C289 1.353 . S
O288 U286 2.458 . S
O288 C289 1.286 . S
C289 U286 2.984 . S
C289 O287 1.353 . S
C289 O288 1.286 . S
C289 C291 1.363 . S
C290 C280 1.465 . S
C290 U286 2.847 . S
C290 O304 1.249 . S
C290 O305 1.202 . S
C291 C289 1.363 . S
C291 C293 1.408 . S
C291 C296 1.342 . S
C292 C293 1.310 . S
C292 C295 1.461 . S
C292 H312 0.932 . S
C293 C291 1.408 . S
C293 C292 1.310 . S
C293 H313 0.930 . S
C294 C295 1.474 . S
C294 C296 1.285 . S
C294 H314 0.929 . S
C295 C292 1.461 . S
C295 C294 1.474 . S
C296 C291 1.342 . S
C296 C294 1.285 . S
C296 H315 0.930 . S
C297 C300 1.424 . S
C297 C302 1.245 . S
C297 C303 1.428 . S
C298 C301 1.260 . S
C298 C302 1.477 . S
C298 H316 0.932 . S
C299 C300 1.384 . S
C299 C301 1.479 . S
C299 H317 0.929 . S
C300 C297 1.424 . S
C300 C299 1.384 . S
C300 H318 0.928 . S
C301 C298 1.260 . S
C301 C299 1.479 . S
C302 C297 1.245 . S
C302 C298 1.477 . S
C302 H319 0.932 . S
C303 U286 2.882 . S
C303 C297 1.428 . S
C303 O306 1.301 . S
C303 O307 1.282 . S
O304 U286 2.441 . S
O304 C290 1.249 . S
O305 U286 2.420 . S
O305 C290 1.202 . S
O306 U286 2.455 . S
O306 C303 1.301 . S
O307 U286 2.449 . S
O307 C303 1.282 . S
H308 C281 0.931 . S
H309 C283 0.929 . S
H310 C284 0.930 . S
H311 C285 0.931 . S
H312 C292 0.932 . S
H313 C293 0.930 . S
H314 C294 0.929 . S
H315 C296 0.930 . S
H316 C298 0.932 . S
H317 C299 0.929 . S
H318 C300 0.928 . S
H319 C302 0.932 . S
C320 C321 1.264 . S
C320 C325 1.479 . S
C320 C330 1.465 . S
C321 C320 1.264 . S
C321 C323 1.339 . S
C321 H348 0.931 . S
C322 C323 1.395 . S
C322 C324 1.320 . S
C323 C321 1.339 . S
C323 C322 1.395 . S
C323 H349 0.929 . S
C324 C322 1.320 . S
C324 C325 1.405 . S
C324 H350 0.930 . S
C325 C320 1.479 . S
C325 C324 1.405 . S
C325 H351 0.931 . S
U326 O327 2.454 . S
U326 O328 2.458 . S
U326 C329 2.984 . S
U326 C330 2.847 . S
U326 C343 2.882 . S
U326 O344 2.441 . S
U326 O345 2.420 . S
U326 O346 2.455 . S
U326 O347 2.449 . S
O327 U326 2.454 . S
O327 C329 1.353 . S
O328 U326 2.458 . S
O328 C329 1.286 . S
C329 U326 2.984 . S
C329 O327 1.353 . S
C329 O328 1.286 . S
C329 C331 1.363 . S
C330 C320 1.465 . S
C330 U326 2.847 . S
C330 O344 1.249 . S
C330 O345 1.202 . S
C331 C329 1.363 . S
C331 C333 1.408 . S
C331 C336 1.342 . S
C332 C333 1.310 . S
C332 C335 1.461 . S
C332 H352 0.932 . S
C333 C331 1.408 . S
C333 C332 1.310 . S
C333 H353 0.930 . S
C334 C335 1.474 . S
C334 C336 1.285 . S
C334 H354 0.929 . S
C335 C332 1.461 . S
C335 C334 1.474 . S
C336 C331 1.342 . S
C336 C334 1.285 . S
C336 H355 0.930 . S
C337 C340 1.424 . S
C337 C342 1.245 . S
C337 C343 1.428 . S
C338 C341 1.260 . S
C338 C342 1.477 . S
C338 H356 0.932 . S
C339 C340 1.384 . S
C339 C341 1.479 . S
C339 H357 0.929 . S
C340 C337 1.424 . S
C340 C339 1.384 . S
C340 H358 0.928 . S
C341 C338 1.260 . S
C341 C339 1.479 . S
C342 C337 1.245 . S
C342 C338 1.477 . S
C342 H359 0.932 . S
C343 U326 2.882 . S
C343 C337 1.428 . S
C343 O346 1.301 . S
C343 O347 1.282 . S
O344 U326 2.441 . S
O344 C330 1.249 . S
O345 U326 2.420 . S
O345 C330 1.202 . S
O346 U326 2.455 . S
O346 C343 1.301 . S
O347 U326 2.449 . S
O347 C343 1.282 . S
H348 C321 0.931 . S
H349 C323 0.929 . S
H350 C324 0.930 . S
H351 C325 0.931 . S
H352 C332 0.932 . S
H353 C333 0.930 . S
H354 C334 0.929 . S
H355 C336 0.930 . S
H356 C338 0.932 . S
H357 C339 0.929 . S
H358 C340 0.928 . S
H359 C342 0.932 . S
C360 C361 1.264 . S
C360 C365 1.479 . S
C360 C370 1.465 . S
C361 C360 1.264 . S
C361 C363 1.339 . S
C361 H388 0.931 . S
C362 C363 1.395 . S
C362 C364 1.320 . S
C363 C361 1.339 . S
C363 C362 1.395 . S
C363 H389 0.929 . S
C364 C362 1.320 . S
C364 C365 1.405 . S
C364 H390 0.930 . S
C365 C360 1.479 . S
C365 C364 1.405 . S
C365 H391 0.931 . S
U366 O367 2.454 . S
U366 O368 2.458 . S
U366 C369 2.984 . S
U366 C370 2.847 . S
U366 C383 2.882 . S
U366 O384 2.441 . S
U366 O385 2.420 . S
U366 O386 2.455 . S
U366 O387 2.449 . S
O367 U366 2.454 . S
O367 C369 1.353 . S
O368 U366 2.458 . S
O368 C369 1.286 . S
C369 U366 2.984 . S
C369 O367 1.353 . S
C369 O368 1.286 . S
C369 C371 1.363 . S
C370 C360 1.465 . S
C370 U366 2.847 . S
C370 O384 1.249 . S
C370 O385 1.202 . S
C371 C369 1.363 . S
C371 C373 1.408 . S
C371 C376 1.342 . S
C372 C373 1.310 . S
C372 C375 1.461 . S
C372 H392 0.932 . S
C373 C371 1.408 . S
C373 C372 1.310 . S
C373 H393 0.930 . S
C374 C375 1.474 . S
C374 C376 1.285 . S
C374 H394 0.929 . S
C375 C372 1.461 . S
C375 C374 1.474 . S
C376 C371 1.342 . S
C376 C374 1.285 . S
C376 H395 0.930 . S
C377 C380 1.424 . S
C377 C382 1.245 . S
C377 C383 1.428 . S
C378 C381 1.260 . S
C378 C382 1.477 . S
C378 H396 0.932 . S
C379 C380 1.384 . S
C379 C381 1.479 . S
C379 H397 0.929 . S
C380 C377 1.424 . S
C380 C379 1.384 . S
C380 H398 0.928 . S
C381 C378 1.260 . S
C381 C379 1.479 . S
C382 C377 1.245 . S
C382 C378 1.477 . S
C382 H399 0.932 . S
C383 U366 2.882 . S
C383 C377 1.428 . S
C383 O386 1.301 . S
C383 O387 1.282 . S
O384 U366 2.441 . S
O384 C370 1.249 . S
O385 U366 2.420 . S
O385 C370 1.202 . S
O386 U366 2.455 . S
O386 C383 1.301 . S
O387 U366 2.449 . S
O387 C383 1.282 . S
H388 C361 0.931 . S
H389 C363 0.929 . S
H390 C364 0.930 . S
H391 C365 0.931 . S
H392 C372 0.932 . S
H393 C373 0.930 . S
H394 C374 0.929 . S
H395 C376 0.930 . S
H396 C378 0.932 . S
H397 C379 0.929 . S
H398 C380 0.928 . S
H399 C382 0.932 . S
C400 C401 1.264 . S
C400 C405 1.479 . S
C400 C410 1.465 . S
C401 C400 1.264 . S
C401 C403 1.339 . S
C401 H428 0.931 . S
C402 C403 1.395 . S
C402 C404 1.320 . S
C403 C401 1.339 . S
C403 C402 1.395 . S
C403 H429 0.929 . S
C404 C402 1.320 . S
C404 C405 1.405 . S
C404 H430 0.930 . S
C405 C400 1.479 . S
C405 C404 1.405 . S
C405 H431 0.931 . S
U406 O407 2.454 . S
U406 O408 2.458 . S
U406 C409 2.984 . S
U406 C410 2.847 . S
U406 C423 2.882 . S
U406 O424 2.441 . S
U406 O425 2.420 . S
U406 O426 2.455 . S
U406 O427 2.449 . S
O407 U406 2.454 . S
O407 C409 1.353 . S
O408 U406 2.458 . S
O408 C409 1.286 . S
C409 U406 2.984 . S
C409 O407 1.353 . S
C409 O408 1.286 . S
C409 C411 1.363 . S
C410 C400 1.465 . S
C410 U406 2.847 . S
C410 O424 1.249 . S
C410 O425 1.202 . S
C411 C409 1.363 . S
C411 C413 1.408 . S
C411 C416 1.342 . S
C412 C413 1.310 . S
C412 C415 1.461 . S
C412 H432 0.949 . S
C413 C411 1.408 . S
C413 C412 1.310 . S
C413 H433 0.930 . S
C414 C415 1.474 . S
C414 C416 1.285 . S
C414 H434 0.929 . S
C415 C412 1.461 . S
C415 C414 1.474 . S
C416 C411 1.342 . S
C416 C414 1.285 . S
C416 H435 0.930 . S
C417 C420 1.424 . S
C417 C422 1.245 . S
C417 C423 1.428 . S
C418 C421 1.260 . S
C418 C422 1.477 . S
C418 H436 0.932 . S
C419 C420 1.384 . S
C419 C421 1.479 . S
C419 H437 0.929 . S
C420 C417 1.424 . S
C420 C419 1.384 . S
C420 H438 0.928 . S
C421 C418 1.260 . S
C421 C419 1.479 . S
C422 C417 1.245 . S
C422 C418 1.477 . S
C422 H439 0.932 . S
C423 U406 2.882 . S
C423 C417 1.428 . S
C423 O426 1.301 . S
C423 O427 1.282 . S
O424 U406 2.441 . S
O424 C410 1.249 . S
O425 U406 2.420 . S
O425 C410 1.202 . S
O426 U406 2.455 . S
O426 C423 1.301 . S
O427 U406 2.449 . S
O427 C423 1.282 . S
H428 C401 0.931 . S
H429 C403 0.929 . S
H430 C404 0.930 . S
H431 C405 0.931 . S
H432 C412 0.949 . S
H433 C413 0.930 . S
H434 C414 0.929 . S
H435 C416 0.930 . S
H436 C418 0.932 . S
H437 C419 0.929 . S
H438 C420 0.928 . S
H439 C422 0.932 . S
C440 C441 1.264 . S
C440 C445 1.479 . S
C440 C450 1.465 . S
C441 C440 1.264 . S
C441 C443 1.339 . S
C441 H468 0.931 . S
C442 C443 1.395 . S
C442 C444 1.320 . S
C443 C441 1.339 . S
C443 C442 1.395 . S
C443 H469 0.929 . S
C444 C442 1.320 . S
C444 C445 1.405 . S
C444 H470 0.930 . S
C445 C440 1.479 . S
C445 C444 1.405 . S
C445 H471 0.931 . S
U446 O447 2.454 . S
U446 O448 2.458 . S
U446 C449 2.984 . S
U446 C450 2.847 . S
U446 C463 2.882 . S
U446 O464 2.441 . S
U446 O465 2.420 . S
U446 O466 2.455 . S
U446 O467 2.449 . S
O447 U446 2.454 . S
O447 C449 1.353 . S
O448 U446 2.458 . S
O448 C449 1.286 . S
C449 U446 2.984 . S
C449 O447 1.353 . S
C449 O448 1.286 . S
C449 C451 1.363 . S
C450 C440 1.465 . S
C450 U446 2.847 . S
C450 O464 1.249 . S
C450 O465 1.202 . S
C451 C449 1.363 . S
C451 C453 1.408 . S
C451 C456 1.342 . S
C452 C453 1.310 . S
C452 C455 1.461 . S
C452 H472 0.932 . S
C453 C451 1.408 . S
C453 C452 1.310 . S
C453 H473 0.930 . S
C454 C455 1.474 . S
C454 C456 1.285 . S
C454 H474 0.929 . S
C455 C452 1.461 . S
C455 C454 1.474 . S
C456 C451 1.342 . S
C456 C454 1.285 . S
C456 H475 0.930 . S
C457 C460 1.424 . S
C457 C462 1.245 . S
C457 C463 1.428 . S
C458 C461 1.260 . S
C458 C462 1.477 . S
C458 H476 0.932 . S
C459 C460 1.384 . S
C459 C461 1.479 . S
C459 H477 0.929 . S
C460 C457 1.424 . S
C460 C459 1.384 . S
C460 H478 0.928 . S
C461 C458 1.260 . S
C461 C459 1.479 . S
C462 C457 1.245 . S
C462 C458 1.477 . S
C462 H479 0.932 . S
C463 U446 2.882 . S
C463 C457 1.428 . S
C463 O466 1.301 . S
C463 O467 1.282 . S
O464 U446 2.441 . S
O464 C450 1.249 . S
O465 U446 2.420 . S
O465 C450 1.202 . S
O466 U446 2.455 . S
O466 C463 1.301 . S
O467 U446 2.449 . S
O467 C463 1.282 . S
H468 C441 0.931 . S
H469 C443 0.929 . S
H470 C444 0.930 . S
H471 C445 0.931 . S
H472 C452 0.932 . S
H473 C453 0.930 . S
H474 C454 0.929 . S
H475 C456 0.930 . S
H476 C458 0.932 . S
H477 C459 0.929 . S
H478 C460 0.928 . S
H479 C462 0.932 . S
C480 C481 1.264 . S
C480 C485 1.479 . S
C480 C490 1.465 . S
C481 C480 1.264 . S
C481 C483 1.339 . S
C481 H508 0.931 . S
C482 C483 1.395 . S
C482 C484 1.320 . S
C483 C481 1.339 . S
C483 C482 1.395 . S
C483 H509 0.929 . S
C484 C482 1.320 . S
C484 C485 1.405 . S
C484 H510 0.930 . S
C485 C480 1.479 . S
C485 C484 1.405 . S
C485 H511 0.931 . S
U486 O487 2.454 . S
U486 O488 2.458 . S
U486 C489 2.984 . S
U486 C490 2.847 . S
U486 C503 2.882 . S
U486 O504 2.441 . S
U486 O505 2.420 . S
U486 O506 2.455 . S
U486 O507 2.449 . S
O487 U486 2.454 . S
O487 C489 1.353 . S
O488 U486 2.458 . S
O488 C489 1.286 . S
C489 U486 2.984 . S
C489 O487 1.353 . S
C489 O488 1.286 . S
C489 C491 1.363 . S
C490 C480 1.465 . S
C490 U486 2.847 . S
C490 O504 1.249 . S
C490 O505 1.202 . S
C491 C489 1.363 . S
C491 C493 1.408 . S
C491 C496 1.342 . S
C492 C493 1.310 . S
C492 C495 1.461 . S
C492 H512 0.932 . S
C493 C491 1.408 . S
C493 C492 1.310 . S
C493 H513 0.930 . S
C494 C495 1.474 . S
C494 C496 1.285 . S
C494 H514 0.929 . S
C495 C492 1.461 . S
C495 C494 1.474 . S
C496 C491 1.342 . S
C496 C494 1.285 . S
C496 H515 0.930 . S
C497 C500 1.424 . S
C497 C502 1.245 . S
C497 C503 1.428 . S
C498 C501 1.260 . S
C498 C502 1.477 . S
C498 H516 0.932 . S
C499 C500 1.384 . S
C499 C501 1.479 . S
C499 H517 0.929 . S
C500 C497 1.424 . S
C500 C499 1.384 . S
C500 H518 0.928 . S
C501 C498 1.260 . S
C501 C499 1.479 . S
C502 C497 1.245 . S
C502 C498 1.477 . S
C502 H519 0.932 . S
C503 U486 2.882 . S
C503 C497 1.428 . S
C503 O506 1.301 . S
C503 O507 1.282 . S
O504 U486 2.441 . S
O504 C490 1.249 . S
O505 U486 2.420 . S
O505 C490 1.202 . S
O506 U486 2.455 . S
O506 C503 1.301 . S
O507 U486 2.449 . S
O507 C503 1.282 . S
H508 C481 0.931 . S
H509 C483 0.929 . S
H510 C484 0.930 . S
H511 C485 0.931 . S
H512 C492 0.932 . S
H513 C493 0.930 . S
H514 C494 0.929 . S
H515 C496 0.930 . S
H516 C498 0.932 . S
H517 C499 0.929 . S
H518 C500 0.928 . S
H519 C502 0.932 . S
C520 C521 1.264 . S
C520 C525 1.479 . S
C520 C530 1.465 . S
C521 C520 1.264 . S
C521 C523 1.339 . S
C521 H548 0.931 . S
C522 C523 1.395 . S
C522 C524 1.320 . S
C523 C521 1.339 . S
C523 C522 1.395 . S
C523 H549 0.929 . S
C524 C522 1.320 . S
C524 C525 1.405 . S
C524 H550 0.930 . S
C525 C520 1.479 . S
C525 C524 1.405 . S
C525 H551 0.931 . S
U526 O527 2.454 . S
U526 O528 2.458 . S
U526 C529 2.984 . S
U526 C530 2.847 . S
U526 C543 2.882 . S
U526 O544 2.441 . S
U526 O545 2.420 . S
U526 O546 2.455 . S
U526 O547 2.449 . S
O527 U526 2.454 . S
O527 C529 1.353 . S
O528 U526 2.458 . S
O528 C529 1.286 . S
C529 U526 2.984 . S
C529 O527 1.353 . S
C529 O528 1.286 . S
C529 C531 1.363 . S
C530 C520 1.465 . S
C530 U526 2.847 . S
C530 O544 1.249 . S
C530 O545 1.202 . S
C531 C529 1.363 . S
C531 C533 1.408 . S
C531 C536 1.342 . S
C532 C533 1.310 . S
C532 C535 1.461 . S
C532 H552 0.932 . S
C533 C531 1.408 . S
C533 C532 1.310 . S
C533 H553 0.930 . S
C534 C535 1.474 . S
C534 C536 1.285 . S
C534 H554 0.929 . S
C535 C532 1.461 . S
C535 C534 1.474 . S
C536 C531 1.342 . S
C536 C534 1.285 . S
C536 H555 0.930 . S
C537 C540 1.424 . S
C537 C542 1.245 . S
C537 C543 1.428 . S
C538 C541 1.260 . S
C538 C542 1.477 . S
C538 H556 0.932 . S
C539 C540 1.384 . S
C539 C541 1.479 . S
C539 H557 0.929 . S
C540 C537 1.424 . S
C540 C539 1.384 . S
C540 H558 0.928 . S
C541 C538 1.260 . S
C541 C539 1.479 . S
C542 C537 1.245 . S
C542 C538 1.477 . S
C542 H559 0.932 . S
C543 U526 2.882 . S
C543 C537 1.428 . S
C543 O546 1.301 . S
C543 O547 1.282 . S
O544 U526 2.441 . S
O544 C530 1.249 . S
O545 U526 2.420 . S
O545 C530 1.202 . S
O546 U526 2.455 . S
O546 C543 1.301 . S
O547 U526 2.449 . S
O547 C543 1.282 . S
H548 C521 0.931 . S
H549 C523 0.929 . S
H550 C524 0.930 . S
H551 C525 0.931 . S
H552 C532 0.932 . S
H553 C533 0.930 . S
H554 C534 0.929 . S
H555 C536 0.930 . S
H556 C538 0.932 . S
H557 C539 0.929 . S
H558 C540 0.928 . S
H559 C542 0.932 . S
C560 C561 1.264 . S
C560 C565 1.479 . S
C560 C570 1.465 . S
C561 C560 1.264 . S
C561 C563 1.339 . S
C561 H588 0.931 . S
C562 C563 1.395 . S
C562 C564 1.320 . S
C563 C561 1.339 . S
C563 C562 1.395 . S
C563 H589 0.929 . S
C564 C562 1.320 . S
C564 C565 1.405 . S
C564 H590 0.930 . S
C565 C560 1.479 . S
C565 C564 1.405 . S
C565 H591 0.931 . S
U566 O567 2.454 . S
U566 O568 2.458 . S
U566 C569 2.984 . S
U566 C570 2.847 . S
U566 C583 2.882 . S
U566 O584 2.441 . S
U566 O585 2.420 . S
U566 O586 2.455 . S
U566 O587 2.449 . S
O567 U566 2.454 . S
O567 C569 1.353 . S
O568 U566 2.458 . S
O568 C569 1.286 . S
C569 U566 2.984 . S
C569 O567 1.353 . S
C569 O568 1.286 . S
C569 C571 1.363 . S
C570 C560 1.465 . S
C570 U566 2.847 . S
C570 O584 1.249 . S
C570 O585 1.202 . S
C571 C569 1.363 . S
C571 C573 1.408 . S
C571 C576 1.342 . S
C572 C573 1.310 . S
C572 C575 1.461 . S
C572 H592 0.932 . S
C573 C571 1.408 . S
C573 C572 1.310 . S
C573 H593 0.930 . S
C574 C575 1.474 . S
C574 C576 1.285 . S
C574 H594 0.929 . S
C575 C572 1.461 . S
C575 C574 1.474 . S
C576 C571 1.342 . S
C576 C574 1.285 . S
C576 H595 0.930 . S
C577 C580 1.424 . S
C577 C582 1.245 . S
C577 C583 1.428 . S
C578 C581 1.260 . S
C578 C582 1.477 . S
C578 H596 0.932 . S
C579 C580 1.384 . S
C579 C581 1.479 . S
C579 H597 0.929 . S
C580 C577 1.424 . S
C580 C579 1.384 . S
C580 H598 0.928 . S
C581 C578 1.260 . S
C581 C579 1.479 . S
C582 C577 1.245 . S
C582 C578 1.477 . S
C582 H599 0.932 . S
C583 U566 2.882 . S
C583 C577 1.428 . S
C583 O586 1.301 . S
C583 O587 1.282 . S
O584 U566 2.441 . S
O584 C570 1.249 . S
O585 U566 2.420 . S
O585 C570 1.202 . S
O586 U566 2.455 . S
O586 C583 1.301 . S
O587 U566 2.449 . S
O587 C583 1.282 . S
H588 C561 0.931 . S
H589 C563 0.929 . S
H590 C564 0.930 . S
H591 C565 0.931 . S
H592 C572 0.932 . S
H593 C573 0.930 . S
H594 C574 0.929 . S
H595 C576 0.930 . S
H596 C578 0.932 . S
H597 C579 0.929 . S
H598 C580 0.928 . S
H599 C582 0.932 . S
C600 C601 1.264 . S
C600 C605 1.479 . S
C600 C610 1.465 . S
C601 C600 1.264 . S
C601 C603 1.339 . S
C601 H628 0.931 . S
C602 C603 1.395 . S
C602 C604 1.320 . S
C603 C601 1.339 . S
C603 C602 1.395 . S
C603 H629 0.929 . S
C604 C602 1.320 . S
C604 C605 1.405 . S
C604 H630 0.930 . S
C605 C600 1.479 . S
C605 C604 1.405 . S
C605 H631 0.931 . S
U606 O607 2.454 . S
U606 O608 2.458 . S
U606 C609 2.984 . S
U606 C610 2.847 . S
U606 C623 2.882 . S
U606 O624 2.441 . S
U606 O625 2.420 . S
U606 O626 2.455 . S
U606 O627 2.449 . S
O607 U606 2.454 . S
O607 C609 1.353 . S
O608 U606 2.458 . S
O608 C609 1.286 . S
C609 U606 2.984 . S
C609 O607 1.353 . S
C609 O608 1.286 . S
C609 C611 1.363 . S
C610 C600 1.465 . S
C610 U606 2.847 . S
C610 O624 1.249 . S
C610 O625 1.202 . S
C611 C609 1.363 . S
C611 C613 1.408 . S
C611 C616 1.342 . S
C612 C613 1.310 . S
C612 C615 1.461 . S
C612 H632 0.932 . S
C613 C611 1.408 . S
C613 C612 1.310 . S
C613 H633 0.930 . S
C614 C615 1.474 . S
C614 C616 1.285 . S
C614 H634 0.929 . S
C615 C612 1.461 . S
C615 C614 1.474 . S
C616 C611 1.342 . S
C616 C614 1.285 . S
C616 H635 0.930 . S
C617 C620 1.424 . S
C617 C622 1.245 . S
C617 C623 1.428 . S
C618 C621 1.260 . S
C618 C622 1.477 . S
C618 H636 0.932 . S
C619 C620 1.384 . S
C619 C621 1.479 . S
C619 H637 0.929 . S
C620 C617 1.424 . S
C620 C619 1.384 . S
C620 H638 0.928 . S
C621 C618 1.260 . S
C621 C619 1.479 . S
C622 C617 1.245 . S
C622 C618 1.477 . S
C622 H639 0.932 . S
C623 U606 2.882 . S
C623 C617 1.428 . S
C623 O626 1.301 . S
C623 O627 1.282 . S
O624 U606 2.441 . S
O624 C610 1.249 . S
O625 U606 2.420 . S
O625 C610 1.202 . S
O626 U606 2.455 . S
O626 C623 1.301 . S
O627 U606 2.449 . S
O627 C623 1.282 . S
H628 C601 0.931 . S
H629 C603 0.929 . S
H630 C604 0.930 . S
H631 C605 0.931 . S
H632 C612 0.932 . S
H633 C613 0.930 . S
H634 C614 0.929 . S
H635 C616 0.930 . S
H636 C618 0.932 . S
H637 C619 0.929 . S
H638 C620 0.928 . S
H639 C622 0.932 . S
C640 C641 1.264 . S
C640 C645 1.479 . S
C640 C650 1.465 . S
C641 C640 1.264 . S
C641 C643 1.339 . S
C641 H668 0.931 . S
C642 C643 1.395 . S
C642 C644 1.320 . S
C643 C641 1.339 . S
C643 C642 1.395 . S
C643 H669 0.929 . S
C644 C642 1.320 . S
C644 C645 1.405 . S
C644 H670 0.930 . S
C645 C640 1.479 . S
C645 C644 1.405 . S
C645 H671 0.931 . S
U646 O647 2.454 . S
U646 O648 2.458 . S
U646 C649 2.984 . S
U646 C650 2.847 . S
U646 C663 2.882 . S
U646 O664 2.441 . S
U646 O665 2.420 . S
U646 O666 2.455 . S
U646 O667 2.449 . S
O647 U646 2.454 . S
O647 C649 1.353 . S
O648 U646 2.458 . S
O648 C649 1.286 . S
C649 U646 2.984 . S
C649 O647 1.353 . S
C649 O648 1.286 . S
C649 C651 1.363 . S
C650 C640 1.465 . S
C650 U646 2.847 . S
C650 O664 1.249 . S
C650 O665 1.202 . S
C651 C649 1.363 . S
C651 C653 1.408 . S
C651 C656 1.342 . S
C652 C653 1.310 . S
C652 C655 1.461 . S
C652 H672 0.932 . S
C653 C651 1.408 . S
C653 C652 1.310 . S
C653 H673 0.930 . S
C654 C655 1.474 . S
C654 C656 1.285 . S
C654 H674 0.929 . S
C655 C652 1.461 . S
C655 C654 1.474 . S
C656 C651 1.342 . S
C656 C654 1.285 . S
C656 H675 0.930 . S
C657 C660 1.424 . S
C657 C662 1.245 . S
C657 C663 1.428 . S
C658 C661 1.260 . S
C658 C662 1.477 . S
C658 H676 0.932 . S
C659 C660 1.384 . S
C659 C661 1.479 . S
C659 H677 0.929 . S
C660 C657 1.424 . S
C660 C659 1.384 . S
C660 H678 0.928 . S
C661 C658 1.260 . S
C661 C659 1.479 . S
C662 C657 1.245 . S
C662 C658 1.477 . S
C662 H679 0.932 . S
C663 U646 2.882 . S
C663 C657 1.428 . S
C663 O666 1.301 . S
C663 O667 1.282 . S
O664 U646 2.441 . S
O664 C650 1.249 . S
O665 U646 2.420 . S
O665 C650 1.202 . S
O666 U646 2.455 . S
O666 C663 1.301 . S
O667 U646 2.449 . S
O667 C663 1.282 . S
H668 C641 0.931 . S
H669 C643 0.929 . S
H670 C644 0.930 . S
H671 C645 0.931 . S
H672 C652 0.932 . S
H673 C653 0.930 . S
H674 C654 0.929 . S
H675 C656 0.930 . S
H676 C658 0.932 . S
H677 C659 0.929 . S
H678 C660 0.928 . S
H679 C662 0.932 . S
C680 C681 1.264 . S
C680 C685 1.479 . S
C680 C690 1.465 . S
C681 C680 1.264 . S
C681 C683 1.339 . S
C681 H708 0.931 . S
C682 C683 1.395 . S
C682 C684 1.320 . S
C683 C681 1.339 . S
C683 C682 1.395 . S
C683 H709 0.929 . S
C684 C682 1.320 . S
C684 C685 1.405 . S
C684 H710 0.930 . S
C685 C680 1.479 . S
C685 C684 1.405 . S
C685 H711 0.931 . S
U686 O687 2.454 . S
U686 O688 2.458 . S
U686 C689 2.984 . S
U686 C690 2.847 . S
U686 C703 2.882 . S
U686 O704 2.441 . S
U686 O705 2.420 . S
U686 O706 2.455 . S
U686 O707 2.449 . S
O687 U686 2.454 . S
O687 C689 1.353 . S
O688 U686 2.458 . S
O688 C689 1.286 . S
C689 U686 2.984 . S
C689 O687 1.353 . S
C689 O688 1.286 . S
C689 C691 1.363 . S
C690 C680 1.465 . S
C690 U686 2.847 . S
C690 O704 1.249 . S
C690 O705 1.202 . S
C691 C689 1.363 . S
C691 C693 1.408 . S
C691 C696 1.342 . S
C692 C693 1.310 . S
C692 C695 1.461 . S
C692 H712 0.932 . S
C693 C691 1.408 . S
C693 C692 1.310 . S
C693 H713 0.930 . S
C694 C695 1.474 . S
C694 C696 1.285 . S
C694 H714 0.929 . S
C695 C692 1.461 . S
C695 C694 1.474 . S
C696 C691 1.342 . S
C696 C694 1.285 . S
C696 H715 0.930 . S
C697 C700 1.424 . S
C697 C702 1.245 . S
C697 C703 1.428 . S
C698 C701 1.260 . S
C698 C702 1.477 . S
C698 H716 0.932 . S
C699 C700 1.384 . S
C699 C701 1.479 . S
C699 H717 0.929 . S
C700 C697 1.424 . S
C700 C699 1.384 . S
C700 H718 0.928 . S
C701 C698 1.260 . S
C701 C699 1.479 . S
C702 C697 1.245 . S
C702 C698 1.477 . S
C702 H719 0.932 . S
C703 U686 2.882 . S
C703 C697 1.428 . S
C703 O706 1.301 . S
C703 O707 1.282 . S
O704 U686 2.441 . S
O704 C690 1.249 . S
O705 U686 2.420 . S
O705 C690 1.202 . S
O706 U686 2.455 . S
O706 C703 1.301 . S
O707 U686 2.449 . S
O707 C703 1.282 . S
H708 C681 0.931 . S
H709 C683 0.929 . S
H710 C684 0.930 . S
H711 C685 0.931 . S
H712 C692 0.932 . S
H713 C693 0.930 . S
H714 C694 0.929 . S
H715 C696 0.930 . S
H716 C698 0.932 . S
H717 C699 0.929 . S
H718 C700 0.928 . S
H719 C702 0.932 . S
Tb720 O723 2.453 . S
Tb720 O724 2.596 1_545 S
Tb720 O725 2.374 1_545 S
Tb720 O733 2.343 1_554 S
Tb720 O735 2.353 . S
Tb720 O737 2.427 1_554 S
Tb720 O738 2.513 1_554 S
C721 O725 1.251 . S
C721 O727 1.263 . S
Tb722 O724 2.343 1_556 S
Tb722 O727 2.353 1_556 S
Tb722 O730 2.427 1_556 S
Tb722 O731 2.513 1_556 S
Tb722 O732 2.453 . S
Tb722 O733 2.596 1_565 S
Tb722 O734 2.374 1_565 S
O723 Tb720 2.453 . S
O723 C739 1.245 . S
O724 Tb720 2.596 1_565 S
O724 Tb722 2.343 1_554 S
O724 C739 1.259 1_565 S
O725 Tb720 2.374 1_565 S
O725 C721 1.251 . S
C726 O730 1.275 . S
C726 O731 1.246 . S
O727 C721 1.263 . S
O727 Tb722 2.353 1_554 S
C728 O732 1.232 1_545 S
C728 O733 1.263 . S
C729 O734 1.250 . S
C729 O735 1.263 1_556 S
O730 Tb722 2.427 1_554 S
O730 C726 1.275 . S
O731 Tb722 2.513 1_554 S
O731 C726 1.246 . S
O732 Tb722 2.453 . S
O732 C728 1.232 1_565 S
O733 Tb720 2.343 1_556 S
O733 Tb722 2.596 1_545 S
O733 C728 1.263 . S
O734 Tb722 2.374 1_545 S
O734 C729 1.250 . S
O735 Tb720 2.353 . S
O735 C729 1.263 1_554 S
C736 O737 1.275 . S
C736 O738 1.246 . S
O737 Tb720 2.427 1_556 S
O737 C736 1.275 . S
O738 Tb720 2.513 1_556 S
O738 C736 1.246 . S
C739 O723 1.245 . S
C739 O724 1.259 1_545 S
Tb740 O743 2.453 . S
Tb740 O744 2.596 1_655 S
Tb740 O745 2.374 1_655 S
Tb740 O753 2.343 1_554 S
Tb740 O755 2.353 . S
Tb740 O757 2.427 1_554 S
Tb740 O758 2.513 1_554 S
C741 O745 1.251 . S
C741 O747 1.263 . S
Tb742 O744 2.343 1_556 S
Tb742 O747 2.353 1_556 S
Tb742 O750 2.427 1_556 S
Tb742 O751 2.513 1_556 S
Tb742 O752 2.453 . S
Tb742 O753 2.596 1_455 S
Tb742 O754 2.374 1_455 S
O743 Tb740 2.453 . S
O743 C759 1.245 1_655 S
O744 Tb740 2.596 1_455 S
O744 Tb742 2.343 1_554 S
O744 C759 1.259 . S
O745 Tb740 2.374 1_455 S
O745 C741 1.251 . S
C746 O750 1.275 . S
C746 O751 1.246 . S
O747 C741 1.263 . S
O747 Tb742 2.353 1_554 S
C748 O752 1.220 1_655 S
C748 O753 1.269 . S
C749 O754 1.250 . S
C749 O755 1.263 1_556 S
O750 Tb742 2.427 1_554 S
O750 C746 1.275 . S
O751 Tb742 2.513 1_554 S
O751 C746 1.246 . S
O752 Tb742 2.453 . S
O752 C748 1.220 1_455 S
O753 Tb740 2.343 1_556 S
O753 Tb742 2.596 1_655 S
O753 C748 1.269 . S
O754 Tb742 2.374 1_655 S
O754 C749 1.250 . S
O755 Tb740 2.353 . S
O755 C749 1.263 1_554 S
C756 O757 1.275 . S
C756 O758 1.246 . S
O757 Tb740 2.427 1_556 S
O757 C756 1.275 . S
O758 Tb740 2.513 1_556 S
O758 C756 1.246 . S
C759 O743 1.245 1_455 S
C759 O744 1.259 . S
Tb760 O763 2.453 . S
Tb760 O764 2.596 . S
Tb760 O765 2.374 . S
Tb760 O773 2.343 1_556 S
Tb760 O775 2.353 1_556 S
Tb760 O777 2.427 1_556 S
Tb760 O778 2.513 1_556 S
C761 O765 1.251 . S
C761 O767 1.263 1_556 S
Tb762 O764 2.343 1_554 S
Tb762 O767 2.353 . S
Tb762 O770 2.427 1_554 S
Tb762 O771 2.513 1_554 S
Tb762 O772 2.453 . S
Tb762 O773 2.596 . S
Tb762 O774 2.374 . S
O763 Tb760 2.453 . S
O763 C779 1.245 . S
O764 Tb760 2.596 . S
O764 Tb762 2.343 1_556 S
O764 C779 1.259 . S
O765 Tb760 2.374 . S
O765 C761 1.251 . S
C766 O770 1.275 . S
C766 O771 1.246 . S
O767 C761 1.263 1_554 S
O767 Tb762 2.353 . S
C768 O772 1.245 . S
C768 O773 1.259 . S
C769 O774 1.250 . S
C769 O775 1.263 . S
O770 Tb762 2.427 1_556 S
O770 C766 1.275 . S
O771 Tb762 2.513 1_556 S
O771 C766 1.246 . S
O772 Tb762 2.453 . S
O772 C768 1.245 . S
O773 Tb760 2.343 1_554 S
O773 Tb762 2.596 . S
O773 C768 1.259 . S
O774 Tb762 2.374 . S
O774 C769 1.250 . S
O775 Tb760 2.353 1_554 S
O775 C769 1.263 . S
C776 O777 1.275 . S
C776 O778 1.246 . S
O777 Tb760 2.427 1_554 S
O777 C776 1.275 . S
O778 Tb760 2.513 1_554 S
O778 C776 1.246 . S
C779 O763 1.245 . S
C779 O764 1.259 . S
Tb780 O783 2.453 . S
Tb780 O784 2.596 . S
Tb780 O785 2.374 . S
Tb780 O793 2.343 . S
Tb780 O795 2.353 . S
Tb780 O797 2.427 . S
Tb780 O798 2.513 . S
C781 O785 1.251 . S
C781 O787 1.263 . S
Tb782 O784 2.343 . S
Tb782 O787 2.353 . S
Tb782 O790 2.427 . S
Tb782 O791 2.513 . S
Tb782 O792 2.453 . S
Tb782 O793 2.596 . S
Tb782 O794 2.374 . S
O783 Tb780 2.453 . S
O783 C799 1.245 . S
O784 Tb780 2.596 . S
O784 Tb782 2.343 . S
O784 C799 1.259 . S
O785 Tb780 2.374 . S
O785 C781 1.251 . S
C786 O790 1.275 . S
C786 O791 1.246 . S
O787 C781 1.263 . S
O787 Tb782 2.353 . S
C788 O792 1.245 . S
C788 O793 1.259 . S
C789 O794 1.250 . S
C789 O795 1.263 . S
O790 Tb782 2.427 . S
O790 C786 1.275 . S
O791 Tb782 2.513 . S
O791 C786 1.246 . S
O792 Tb782 2.453 . S
O792 C788 1.245 . S
O793 Tb780 2.343 . S
O793 Tb782 2.596 . S
O793 C788 1.259 . S
O794 Tb782 2.374 . S
O794 C789 1.250 . S
O795 Tb780 2.353 . S
O795 C789 1.263 . S
C796 O797 1.275 . S
C796 O798 1.246 . S
O797 Tb780 2.427 . S
O797 C796 1.275 . S
O798 Tb780 2.513 . S
O798 C796 1.246 . S
C799 O783 1.245 . S
C799 O784 1.259 . S
Tb800 O803 2.453 . S
Tb800 O804 2.596 . S
Tb800 O805 2.374 . S
Tb800 O813 2.343 . S
Tb800 O815 2.353 . S
Tb800 O817 2.427 . S
Tb800 O818 2.513 . S
C801 O805 1.251 . S
C801 O807 1.263 . S
Tb802 O804 2.343 . S
Tb802 O807 2.353 . S
Tb802 O810 2.427 . S
Tb802 O811 2.513 . S
Tb802 O812 2.453 . S
Tb802 O813 2.596 . S
Tb802 O814 2.374 . S
O803 Tb800 2.453 . S
O803 C819 1.245 . S
O804 Tb800 2.596 . S
O804 Tb802 2.343 . S
O804 C819 1.259 . S
O805 Tb800 2.374 . S
O805 C801 1.251 . S
C806 O810 1.275 . S
C806 O811 1.246 . S
O807 C801 1.263 . S
O807 Tb802 2.353 . S
C808 O812 1.245 . S
C808 O813 1.259 . S
C809 O814 1.250 . S
C809 O815 1.263 . S
O810 Tb802 2.427 . S
O810 C806 1.275 . S
O811 Tb802 2.513 . S
O811 C806 1.246 . S
O812 Tb802 2.453 . S
O812 C808 1.245 . S
O813 Tb800 2.343 . S
O813 Tb802 2.596 . S
O813 C808 1.259 . S
O814 Tb802 2.374 . S
O814 C809 1.250 . S
O815 Tb800 2.353 . S
O815 C809 1.263 . S
C816 O817 1.275 . S
C816 O818 1.246 . S
O817 Tb800 2.427 . S
O817 C816 1.275 . S
O818 Tb800 2.513 . S
O818 C816 1.246 . S
C819 O803 1.245 . S
C819 O804 1.259 . S
Tb820 O823 2.453 . S
Tb820 O824 2.596 . S
Tb820 O825 2.374 . S
Tb820 O833 2.343 . S
Tb820 O835 2.353 . S
Tb820 O837 2.427 . S
Tb820 O838 2.513 . S
C821 O825 1.251 . S
C821 O827 1.263 . S
Tb822 O824 2.343 . S
Tb822 O827 2.353 . S
Tb822 O830 2.427 . S
Tb822 O831 2.513 . S
Tb822 O832 2.453 . S
Tb822 O833 2.596 . S
Tb822 O834 2.374 . S
O823 Tb820 2.453 . S
O823 C839 1.245 . S
O824 Tb820 2.596 . S
O824 Tb822 2.343 . S
O824 C839 1.259 . S
O825 Tb820 2.374 . S
O825 C821 1.251 . S
C826 O830 1.275 . S
C826 O831 1.246 . S
O827 C821 1.263 . S
O827 Tb822 2.353 . S
C828 O832 1.245 . S
C828 O833 1.259 . S
C829 O834 1.250 . S
C829 O835 1.263 . S
O830 Tb822 2.427 . S
O830 C826 1.275 . S
O831 Tb822 2.513 . S
O831 C826 1.246 . S
O832 Tb822 2.453 . S
O832 C828 1.245 . S
O833 Tb820 2.343 . S
O833 Tb822 2.596 . S
O833 C828 1.259 . S
O834 Tb822 2.374 . S
O834 C829 1.250 . S
O835 Tb820 2.353 . S
O835 C829 1.263 . S
C836 O837 1.275 . S
C836 O838 1.246 . S
O837 Tb820 2.427 . S
O837 C836 1.275 . S
O838 Tb820 2.513 . S
O838 C836 1.246 . S
C839 O823 1.245 . S
C839 O824 1.259 . S
Tb840 O843 2.453 . S
Tb840 O844 2.596 . S
Tb840 O845 2.374 . S
Tb840 O853 2.343 . S
Tb840 O855 2.353 . S
Tb840 O857 2.427 . S
Tb840 O858 2.513 . S
C841 O845 1.251 . S
C841 O847 1.263 . S
Tb842 O844 2.343 . S
Tb842 O847 2.353 . S
Tb842 O850 2.427 . S
Tb842 O851 2.513 . S
Tb842 O852 2.453 . S
Tb842 O853 2.596 . S
Tb842 O854 2.374 . S
O843 Tb840 2.453 . S
O843 C859 1.245 . S
O844 Tb840 2.596 . S
O844 Tb842 2.343 . S
O844 C859 1.259 . S
O845 Tb840 2.374 . S
O845 C841 1.251 . S
C846 O850 1.275 . S
C846 O851 1.246 . S
O847 C841 1.263 . S
O847 Tb842 2.353 . S
C848 O852 1.245 . S
C848 O853 1.259 . S
C849 O854 1.250 . S
C849 O855 1.263 . S
O850 Tb842 2.427 . S
O850 C846 1.275 . S
O851 Tb842 2.513 . S
O851 C846 1.246 . S
O852 Tb842 2.453 . S
O852 C848 1.245 . S
O853 Tb840 2.343 . S
O853 Tb842 2.596 . S
O853 C848 1.259 . S
O854 Tb842 2.374 . S
O854 C849 1.250 . S
O855 Tb840 2.353 . S
O855 C849 1.263 . S
C856 O857 1.275 . S
C856 O858 1.246 . S
O857 Tb840 2.427 . S
O857 C856 1.275 . S
O858 Tb840 2.513 . S
O858 C856 1.246 . S
C859 O843 1.245 . S
C859 O844 1.259 . S
Tb860 O863 2.453 . S
Tb860 O864 2.596 . S
Tb860 O865 2.374 . S
Tb860 O873 2.343 . S
Tb860 O875 2.353 . S
Tb860 O877 2.427 . S
Tb860 O878 2.513 . S
C861 O865 1.251 . S
C861 O867 1.263 . S
Tb862 O864 2.343 . S
Tb862 O867 2.353 . S
Tb862 O870 2.427 . S
Tb862 O871 2.513 . S
Tb862 O872 2.453 . S
Tb862 O873 2.596 . S
Tb862 O874 2.374 . S
O863 Tb860 2.453 . S
O863 C879 1.245 . S
O864 Tb860 2.596 . S
O864 Tb862 2.343 . S
O864 C879 1.259 . S
O865 Tb860 2.374 . S
O865 C861 1.251 . S
C866 O870 1.275 . S
C866 O871 1.246 . S
O867 C861 1.263 . S
O867 Tb862 2.353 . S
C868 O872 1.245 . S
C868 O873 1.259 . S
C869 O874 1.250 . S
C869 O875 1.263 . S
O870 Tb862 2.427 . S
O870 C866 1.275 . S
O871 Tb862 2.513 . S
O871 C866 1.246 . S
O872 Tb862 2.453 . S
O872 C868 1.245 . S
O873 Tb860 2.343 . S
O873 Tb862 2.596 . S
O873 C868 1.259 . S
O874 Tb862 2.374 . S
O874 C869 1.250 . S
O875 Tb860 2.353 . S
O875 C869 1.263 . S
C876 O877 1.275 . S
C876 O878 1.246 . S
O877 Tb860 2.427 . S
O877 C876 1.275 . S
O878 Tb860 2.513 . S
O878 C876 1.246 . S
C879 O863 1.245 . S
C879 O864 1.259 . S
Tb880 O883 2.453 . S
Tb880 O884 2.596 . S
Tb880 O885 2.374 . S
Tb880 O893 2.343 . S
Tb880 O895 2.353 . S
Tb880 O897 2.427 . S
Tb880 O898 2.513 . S
C881 O885 1.251 . S
C881 O887 1.263 . S
Tb882 O884 2.343 . S
Tb882 O887 2.353 . S
Tb882 O890 2.427 . S
Tb882 O891 2.513 . S
Tb882 O892 2.453 . S
Tb882 O893 2.596 . S
Tb882 O894 2.374 . S
O883 Tb880 2.453 . S
O883 C899 1.245 . S
O884 Tb880 2.596 . S
O884 Tb882 2.343 . S
O884 C899 1.259 . S
O885 Tb880 2.374 . S
O885 C881 1.251 . S
C886 O890 1.275 . S
C886 O891 1.246 . S
O887 C881 1.263 . S
O887 Tb882 2.353 . S
C888 O892 1.245 . S
C888 O893 1.259 . S
C889 O894 1.250 . S
C889 O895 1.263 . S
O890 Tb882 2.427 . S
O890 C886 1.275 . S
O891 Tb882 2.513 . S
O891 C886 1.246 . S
O892 Tb882 2.453 . S
O892 C888 1.245 . S
O893 Tb880 2.343 . S
O893 Tb882 2.596 . S
O893 C888 1.259 . S
O894 Tb882 2.374 . S
O894 C889 1.250 . S
O895 Tb880 2.353 . S
O895 C889 1.263 . S
C896 O897 1.275 . S
C896 O898 1.246 . S
O897 Tb880 2.427 . S
O897 C896 1.275 . S
O898 Tb880 2.513 . S
O898 C896 1.246 . S
C899 O883 1.245 . S
C899 O884 1.259 . S
C900 C901 1.387 . S
C900 H904 0.950 . S
C900 C909 1.390 . S
C901 C900 1.387 . S
C901 C903 1.387 . S
H902 C909 0.950 . S
C903 C901 1.387 . S
C903 C905 1.390 . S
C903 H907 0.950 . S
H904 C900 0.950 . S
C905 C903 1.390 . S
C905 C906 1.387 . S
C905 H908 0.950 . S
C906 C905 1.387 . S
C906 C909 1.387 . S
H907 C903 0.950 . S
H908 C905 0.950 . S
C909 C900 1.390 . S
C909 H902 0.950 . S
C909 C906 1.387 . S
C910 C911 1.387 . S
C910 H914 0.950 . S
C910 C919 1.390 . S
C911 C910 1.387 . S
C911 C913 1.387 . S
H912 C919 0.950 . S
C913 C911 1.387 . S
C913 C915 1.390 . S
C913 H917 0.950 . S
H914 C910 0.950 . S
C915 C913 1.390 . S
C915 C916 1.387 . S
C915 H918 0.950 . S
C916 C915 1.387 . S
C916 C919 1.387 . S
H917 C913 0.950 . S
H918 C915 0.950 . S
C919 C910 1.390 . S
C919 H912 0.950 . S
C919 C916 1.387 . S
C920 C921 1.387 . S
C920 H924 0.950 . S
C920 C929 1.390 . S
C921 C920 1.387 . S
C921 C923 1.387 . S
H922 C929 0.950 . S
C923 C921 1.387 . S
C923 C925 1.390 . S
C923 H927 0.950 . S
H924 C920 0.950 . S
C925 C923 1.390 . S
C925 C926 1.387 . S
C925 H928 0.950 . S
C926 C925 1.387 . S
C926 C929 1.387 . S
H927 C923 0.950 . S
H928 C925 0.950 . S
C929 C920 1.390 . S
C929 H922 0.950 . S
C929 C926 1.387 . S
C930 C931 1.387 . S
C930 H934 0.950 . S
C930 C939 1.390 . S
C931 C930 1.387 . S
C931 C933 1.387 . S
H932 C939 0.950 . S
C933 C931 1.387 . S
C933 C935 1.390 . S
C933 H937 0.950 . S
H934 C930 0.950 . S
C935 C933 1.390 . S
C935 C936 1.387 . S
C935 H938 0.950 . S
C936 C935 1.387 . S
C936 C939 1.387 . S
H937 C933 0.950 . S
H938 C935 0.950 . S
C939 C930 1.390 . S
C939 H932 0.950 . S
C939 C936 1.387 . S
C940 C941 1.387 . S
C940 H944 0.950 . S
C940 C949 1.390 . S
C941 C940 1.387 . S
C941 C943 1.387 . S
H942 C949 0.950 . S
C943 C941 1.387 . S
C943 C945 1.390 . S
C943 H947 0.950 . S
H944 C940 0.950 . S
C945 C943 1.390 . S
C945 C946 1.387 . S
C945 H948 0.950 . S
C946 C945 1.387 . S
C946 C949 1.387 . S
H947 C943 0.950 . S
H948 C945 0.950 . S
C949 C940 1.390 . S
C949 H942 0.950 . S
C949 C946 1.387 . S
C950 C951 1.387 . S
C950 H954 0.950 . S
C950 C959 1.390 . S
C951 C950 1.387 . S
C951 C953 1.387 . S
H952 C959 0.950 1_554 S
C953 C951 1.387 . S
C953 C955 1.390 . S
C953 H957 0.950 . S
H954 C950 0.950 . S
C955 C953 1.390 . S
C955 C956 1.387 . S
C955 H958 0.950 . S
C956 C955 1.387 . S
C956 C959 1.387 . S
H957 C953 0.950 . S
H958 C955 0.950 . S
C959 C950 1.390 . S
C959 H952 0.950 1_556 S
C959 C956 1.387 . S
C960 C961 1.387 . S
C960 H964 0.950 . S
C960 C969 1.390 . S
C961 C960 1.387 . S
C961 C963 1.387 . S
H962 C969 0.950 . S
C963 C961 1.387 . S
C963 C965 1.390 . S
C963 H967 0.950 . S
H964 C960 0.950 . S
C965 C963 1.390 . S
C965 C966 1.387 . S
C965 H968 0.950 . S
C966 C965 1.387 . S
C966 C969 1.387 . S
H967 C963 0.950 . S
H968 C965 0.950 . S
C969 C960 1.390 . S
C969 H962 0.950 . S
C969 C966 1.387 . S
C970 C971 1.387 . S
C970 H974 0.950 . S
C970 C979 1.390 . S
C971 C970 1.387 . S
C971 C973 1.387 . S
H972 C979 0.950 . S
C973 C971 1.387 . S
C973 C975 1.390 . S
C973 H977 0.950 . S
H974 C970 0.950 . S
C975 C973 1.390 . S
C975 C976 1.387 . S
C975 H978 0.950 . S
C976 C975 1.387 . S
C976 C979 1.387 . S
H977 C973 0.950 . S
H978 C975 0.950 . S
C979 C970 1.390 . S
C979 H972 0.950 . S
C979 C976 1.387 . S
C980 C981 1.387 . S
C980 H984 0.950 . S
C980 C989 1.390 . S
C981 C980 1.387 . S
C981 C983 1.387 . S
H982 C989 0.950 . S
C983 C981 1.387 . S
C983 C985 1.390 . S
C983 H987 0.950 . S
H984 C980 0.950 . S
C985 C983 1.390 . S
C985 C986 1.387 . S
C985 H988 0.950 . S
C986 C985 1.387 . S
C986 C989 1.387 . S
H987 C983 0.950 . S
H988 C985 0.950 . S
C989 C980 1.390 . S
C989 H982 0.950 . S
C989 C986 1.387 . S
C990 C991 1.387 . S
C990 H994 0.950 . S
C990 C999 1.390 . S
C991 C990 1.387 . S
C991 C993 1.387 . S
H992 C999 0.950 . S
C993 C991 1.387 . S
C993 C995 1.390 . S
C993 H997 0.950 . S
H994 C990 0.950 . S
C995 C993 1.390 . S
C995 C996 1.387 . S
C995 H998 0.950 . S
C996 C995 1.387 . S
C996 C999 1.387 . S
H997 C993 0.950 . S
H998 C995 0.950 . S
C999 C990 1.390 . S
C999 H992 0.950 . S
C999 C996 1.387 . S
C1000 C1001 1.387 . S
C1000 H1004 0.950 . S
C1000 C1009 1.390 . S
C1001 C1000 1.387 . S
C1001 C1003 1.387 . S
H1002 C1009 0.950 . S
C1003 C1001 1.387 . S
C1003 C1005 1.390 . S
C1003 H1007 0.950 . S
H1004 C1000 0.950 . S
C1005 C1003 1.390 . S
C1005 C1006 1.387 . S
C1005 H1008 0.950 . S
C1006 C1005 1.387 . S
C1006 C1009 1.387 . S
H1007 C1003 0.950 . S
H1008 C1005 0.950 . S
C1009 C1000 1.390 . S
C1009 H1002 0.950 . S
C1009 C1006 1.387 . S
C1010 C1011 1.387 . S
C1010 H1014 0.950 . S
C1010 C1019 1.390 . S
C1011 C1010 1.387 . S
C1011 C1013 1.387 . S
H1012 C1019 0.950 . S
C1013 C1011 1.387 . S
C1013 C1015 1.390 . S
C1013 H1017 0.950 . S
H1014 C1010 0.950 . S
C1015 C1013 1.390 . S
C1015 C1016 1.387 . S
C1015 H1018 0.950 1_554 S
C1016 C1015 1.387 . S
C1016 C1019 1.387 . S
H1017 C1013 0.950 . S
H1018 C1015 0.950 1_556 S
C1019 C1010 1.390 . S
C1019 H1012 0.950 . S
C1019 C1016 1.387 . S
C1020 C1021 1.387 . S
C1020 H1024 0.950 . S
C1020 C1029 1.390 . S
C1021 C1020 1.387 . S
C1021 C1023 1.387 . S
H1022 C1029 0.950 . S
C1023 C1021 1.387 . S
C1023 C1025 1.390 . S
C1023 H1027 0.950 . S
H1024 C1020 0.950 . S
C1025 C1023 1.390 . S
C1025 C1026 1.387 . S
C1025 H1028 0.950 . S
C1026 C1025 1.387 . S
C1026 C1029 1.387 . S
H1027 C1023 0.950 . S
H1028 C1025 0.950 . S
C1029 C1020 1.390 . S
C1029 H1022 0.950 . S
C1029 C1026 1.387 . S
C1030 C1031 1.387 . S
C1030 H1034 0.950 . S
C1030 C1039 1.390 . S
C1031 C1030 1.387 . S
C1031 C1033 1.387 . S
H1032 C1039 0.950 . S
C1033 C1031 1.387 . S
C1033 C1035 1.390 . S
C1033 H1037 0.950 . S
H1034 C1030 0.950 . S
C1035 C1033 1.390 . S
C1035 C1036 1.387 . S
C1035 H1038 0.950 . S
C1036 C1035 1.387 . S
C1036 C1039 1.387 . S
H1037 C1033 0.950 . S
H1038 C1035 0.950 . S
C1039 C1030 1.390 . S
C1039 H1032 0.950 . S
C1039 C1036 1.387 . S
C1040 C1041 1.387 . S
C1040 H1044 0.950 . S
C1040 C1049 1.390 . S
C1041 C1040 1.387 . S
C1041 C1043 1.387 . S
H1042 C1049 0.950 . S
C1043 C1041 1.387 . S
C1043 C1045 1.390 . S
C1043 H1047 0.950 . S
H1044 C1040 0.950 . S
C1045 C1043 1.390 . S
C1045 C1046 1.387 . S
C1045 H1048 0.950 . S
C1046 C1045 1.387 . S
C1046 C1049 1.387 . S
H1047 C1043 0.950 . S
H1048 C1045 0.950 . S
C1049 C1040 1.390 . S
C1049 H1042 0.950 . S
C1049 C1046 1.387 . S
C1050 C1051 1.387 . S
C1050 H1054 0.950 . S
C1050 C1059 1.390 . S
C1051 C1050 1.387 . S
C1051 C1053 1.387 . S
H1052 C1059 0.950 . S
C1053 C1051 1.387 . S
C1053 C1055 1.390 . S
C1053 H1057 0.950 . S
H1054 C1050 0.950 . S
C1055 C1053 1.390 . S
C1055 C1056 1.387 . S
C1055 H1058 0.950 . S
C1056 C1055 1.387 . S
C1056 C1059 1.387 . S
H1057 C1053 0.950 . S
H1058 C1055 0.950 . S
C1059 C1050 1.390 . S
C1059 H1052 0.950 . S
C1059 C1056 1.387 . S
C1060 C1061 1.387 . S
C1060 H1064 0.950 . S
C1060 C1069 1.390 . S
C1061 C1060 1.387 . S
C1061 C1063 1.387 . S
H1062 C1069 0.950 . S
C1063 C1061 1.387 . S
C1063 C1065 1.390 . S
C1063 H1067 0.950 . S
H1064 C1060 0.950 . S
C1065 C1063 1.390 . S
C1065 C1066 1.387 . S
C1065 H1068 0.950 . S
C1066 C1065 1.387 . S
C1066 C1069 1.387 . S
H1067 C1063 0.950 . S
H1068 C1065 0.950 . S
C1069 C1060 1.390 . S
C1069 H1062 0.950 . S
C1069 C1066 1.387 . S
C1070 C1071 1.387 . S
C1070 H1074 0.950 . S
C1070 C1079 1.390 . S
C1071 C1070 1.387 . S
C1071 C1073 1.387 . S
H1072 C1079 0.950 . S
C1073 C1071 1.387 . S
C1073 C1075 1.390 . S
C1073 H1077 0.950 . S
H1074 C1070 0.950 . S
C1075 C1073 1.390 . S
C1075 C1076 1.387 . S
C1075 H1078 0.950 . S
C1076 C1075 1.387 . S
C1076 C1079 1.387 . S
H1077 C1073 0.950 . S
H1078 C1075 0.950 . S
C1079 C1070 1.390 . S
C1079 H1072 0.950 . S
C1079 C1076 1.387 . S
C1080 C1081 1.387 . S
C1080 H1084 0.950 . S
C1080 C1089 1.390 . S
C1081 C1080 1.387 . S
C1081 C1083 1.387 . S
H1082 C1089 0.950 . S
C1083 C1081 1.387 . S
C1083 C1085 1.390 . S
C1083 H1087 0.950 . S
H1084 C1080 0.950 . S
C1085 C1083 1.390 . S
C1085 C1086 1.387 . S
C1085 H1088 0.950 . S
C1086 C1085 1.387 . S
C1086 C1089 1.387 . S
H1087 C1083 0.950 . S
H1088 C1085 0.950 . S
C1089 C1080 1.390 . S
C1089 H1082 0.950 . S
C1089 C1086 1.387 . S
C1090 C1091 1.387 . S
C1090 H1094 0.950 . S
C1090 C1099 1.390 . S
C1091 C1090 1.387 . S
C1091 C1093 1.387 . S
H1092 C1099 0.950 . S
C1093 C1091 1.387 . S
C1093 C1095 1.390 . S
C1093 H1097 0.950 . S
H1094 C1090 0.950 . S
C1095 C1093 1.390 . S
C1095 C1096 1.387 . S
C1095 H1098 0.950 . S
C1096 C1095 1.387 . S
C1096 C1099 1.387 . S
H1097 C1093 0.950 . S
H1098 C1095 0.950 . S
C1099 C1090 1.390 . S
C1099 H1092 0.950 . S
C1099 C1096 1.387 . S
C1100 C1101 1.387 . S
C1100 H1104 0.950 . S
C1100 C1109 1.390 . S
C1101 C1100 1.387 . S
C1101 C1103 1.387 . S
H1102 C1109 0.950 . S
C1103 C1101 1.387 . S
C1103 C1105 1.390 . S
C1103 H1107 0.950 . S
H1104 C1100 0.950 . S
C1105 C1103 1.390 . S
C1105 C1106 1.387 . S
C1105 H1108 0.950 . S
C1106 C1105 1.387 . S
C1106 C1109 1.387 . S
H1107 C1103 0.950 . S
H1108 C1105 0.950 . S
C1109 C1100 1.390 . S
C1109 H1102 0.950 . S
C1109 C1106 1.387 . S
C1110 C1111 1.387 . S
C1110 H1114 0.950 . S
C1110 C1119 1.390 . S
C1111 C1110 1.387 . S
C1111 C1113 1.387 . S
H1112 C1119 0.950 . S
C1113 C1111 1.387 . S
C1113 C1115 1.390 . S
C1113 H1117 0.950 . S
H1114 C1110 0.950 . S
C1115 C1113 1.390 . S
C1115 C1116 1.387 . S
C1115 H1118 0.950 . S
C1116 C1115 1.387 . S
C1116 C1119 1.387 . S
H1117 C1113 0.950 . S
H1118 C1115 0.950 . S
C1119 C1110 1.390 . S
C1119 H1112 0.950 . S
C1119 C1116 1.387 . S
C1120 C1121 1.387 . S
C1120 H1124 0.950 . S
C1120 C1129 1.390 . S
C1121 C1120 1.387 . S
C1121 C1123 1.387 . S
H1122 C1129 0.950 . S
C1123 C1121 1.387 . S
C1123 C1125 1.390 . S
C1123 H1127 0.950 . S
H1124 C1120 0.950 . S
C1125 C1123 1.390 . S
C1125 C1126 1.387 . S
C1125 H1128 0.950 . S
C1126 C1125 1.387 . S
C1126 C1129 1.387 . S
H1127 C1123 0.950 . S
H1128 C1125 0.950 . S
C1129 C1120 1.390 . S
C1129 H1122 0.950 . S
C1129 C1126 1.387 . S
C1130 C1131 1.387 . S
C1130 H1134 0.950 . S
C1130 C1139 1.390 . S
C1131 C1130 1.387 . S
C1131 C1133 1.387 . S
H1132 C1139 0.950 . S
C1133 C1131 1.387 . S
C1133 C1135 1.390 . S
C1133 H1137 0.950 . S
H1134 C1130 0.950 . S
C1135 C1133 1.390 . S
C1135 C1136 1.387 . S
C1135 H1138 0.950 . S
C1136 C1135 1.387 . S
C1136 C1139 1.387 . S
H1137 C1133 0.950 . S
H1138 C1135 0.950 . S
C1139 C1130 1.390 . S
C1139 H1132 0.950 . S
C1139 C1136 1.387 . S
C1140 C1141 1.387 . S
C1140 H1144 0.950 . S
C1140 C1149 1.390 . S
C1141 C1140 1.387 . S
C1141 C1143 1.387 . S
H1142 C1149 0.950 . S
C1143 C1141 1.387 . S
C1143 C1145 1.390 . S
C1143 H1147 0.950 . S
H1144 C1140 0.950 . S
C1145 C1143 1.390 . S
C1145 C1146 1.387 . S
C1145 H1148 0.950 . S
C1146 C1145 1.387 . S
C1146 C1149 1.387 . S
H1147 C1143 0.950 . S
H1148 C1145 0.950 . S
C1149 C1140 1.390 . S
C1149 H1142 0.950 . S
C1149 C1146 1.387 . S
C1150 C1151 1.387 . S
C1150 H1154 0.950 . S
C1150 C1159 1.390 . S
C1151 C1150 1.387 . S
C1151 C1153 1.387 . S
H1152 C1159 0.950 . S
C1153 C1151 1.387 . S
C1153 C1155 1.390 . S
C1153 H1157 0.950 . S
H1154 C1150 0.950 . S
C1155 C1153 1.390 . S
C1155 C1156 1.387 . S
C1155 H1158 0.950 . S
C1156 C1155 1.387 . S
C1156 C1159 1.387 . S
H1157 C1153 0.950 . S
H1158 C1155 0.950 . S
C1159 C1150 1.390 . S
C1159 H1152 0.950 . S
C1159 C1156 1.387 . S
C1160 C1161 1.387 . S
C1160 H1164 0.950 . S
C1160 C1169 1.390 . S
C1161 C1160 1.387 . S
C1161 C1163 1.387 . S
H1162 C1169 0.950 . S
C1163 C1161 1.387 . S
C1163 C1165 1.390 . S
C1163 H1167 0.950 . S
H1164 C1160 0.950 . S
C1165 C1163 1.390 . S
C1165 C1166 1.387 . S
C1165 H1168 0.950 . S
C1166 C1165 1.387 . S
C1166 C1169 1.387 . S
H1167 C1163 0.950 . S
H1168 C1165 0.950 . S
C1169 C1160 1.390 . S
C1169 H1162 0.950 . S
C1169 C1166 1.387 . S
C1170 C1171 1.387 . S
C1170 H1174 0.950 . S
C1170 C1179 1.390 . S
C1171 C1170 1.387 . S
C1171 C1173 1.387 . S
H1172 C1179 0.950 . S
C1173 C1171 1.387 . S
C1173 C1175 1.390 . S
C1173 H1177 0.950 . S
H1174 C1170 0.950 . S
C1175 C1173 1.390 . S
C1175 C1176 1.387 . S
C1175 H1178 0.950 . S
C1176 C1175 1.387 . S
C1176 C1179 1.387 . S
H1177 C1173 0.950 . S
H1178 C1175 0.950 . S
C1179 C1170 1.390 . S
C1179 H1172 0.950 . S
C1179 C1176 1.387 . S
C1180 C1181 1.387 . S
C1180 H1184 0.950 . S
C1180 C1189 1.390 . S
C1181 C1180 1.387 . S
C1181 C1183 1.387 . S
H1182 C1189 0.950 . S
C1183 C1181 1.387 . S
C1183 C1185 1.390 . S
C1183 H1187 0.950 . S
H1184 C1180 0.950 . S
C1185 C1183 1.390 . S
C1185 C1186 1.387 . S
C1185 H1188 0.950 . S
C1186 C1185 1.387 . S
C1186 C1189 1.387 . S
H1187 C1183 0.950 . S
H1188 C1185 0.950 . S
C1189 C1180 1.390 . S
C1189 H1182 0.950 . S
C1189 C1186 1.387 . S
C1190 C1191 1.387 . S
C1190 H1194 0.950 . S
C1190 C1199 1.390 . S
C1191 C1190 1.387 . S
C1191 C1193 1.387 . S
H1192 C1199 0.950 . S
C1193 C1191 1.387 . S
C1193 C1195 1.390 . S
C1193 H1197 0.950 . S
H1194 C1190 0.950 . S
C1195 C1193 1.390 . S
C1195 C1196 1.387 . S
C1195 H1198 0.950 . S
C1196 C1195 1.387 . S
C1196 C1199 1.387 . S
H1197 C1193 0.950 . S
H1198 C1195 0.950 . S
C1199 C1190 1.390 . S
C1199 H1192 0.950 . S
C1199 C1196 1.387 . S
C1200 C1201 1.387 . S
C1200 H1204 0.950 . S
C1200 C1209 1.390 . S
C1201 C1200 1.387 . S
C1201 C1203 1.387 . S
H1202 C1209 0.950 . S
C1203 C1201 1.387 . S
C1203 C1205 1.390 . S
C1203 H1207 0.950 . S
H1204 C1200 0.950 . S
C1205 C1203 1.390 . S
C1205 C1206 1.387 . S
C1205 H1208 0.950 . S
C1206 C1205 1.387 . S
C1206 C1209 1.387 . S
H1207 C1203 0.950 . S
H1208 C1205 0.950 . S
C1209 C1200 1.390 . S
C1209 H1202 0.950 . S
C1209 C1206 1.387 . S
C1210 C1211 1.387 . S
C1210 H1214 0.950 . S
C1210 C1219 1.390 . S
C1211 C1210 1.387 . S
C1211 C1213 1.387 . S
H1212 C1219 0.950 . S
C1213 C1211 1.387 . S
C1213 C1215 1.390 . S
C1213 H1217 0.950 . S
H1214 C1210 0.950 . S
C1215 C1213 1.390 . S
C1215 C1216 1.387 . S
C1215 H1218 0.950 . S
C1216 C1215 1.387 . S
C1216 C1219 1.387 . S
H1217 C1213 0.950 . S
H1218 C1215 0.950 . S
C1219 C1210 1.390 . S
C1219 H1212 0.950 . S
C1219 C1216 1.387 . S
C1220 C1221 1.387 . S
C1220 H1224 0.950 . S
C1220 C1229 1.390 . S
C1221 C1220 1.387 . S
C1221 C1223 1.387 . S
H1222 C1229 0.950 . S
C1223 C1221 1.387 . S
C1223 C1225 1.390 . S
C1223 H1227 0.950 . S
H1224 C1220 0.950 . S
C1225 C1223 1.390 . S
C1225 C1226 1.387 . S
C1225 H1228 0.950 . S
C1226 C1225 1.387 . S
C1226 C1229 1.387 . S
H1227 C1223 0.950 . S
H1228 C1225 0.950 . S
C1229 C1220 1.390 . S
C1229 H1222 0.950 . S
C1229 C1226 1.387 . S
C1230 C1231 1.387 . S
C1230 H1234 0.950 . S
C1230 C1239 1.390 . S
C1231 C1230 1.387 . S
C1231 C1233 1.387 . S
H1232 C1239 0.950 . S
C1233 C1231 1.387 . S
C1233 C1235 1.390 . S
C1233 H1237 0.950 . S
H1234 C1230 0.950 . S
C1235 C1233 1.390 . S
C1235 C1236 1.387 . S
C1235 H1238 0.950 . S
C1236 C1235 1.387 . S
C1236 C1239 1.387 . S
H1237 C1233 0.950 . S
H1238 C1235 0.950 . S
C1239 C1230 1.390 . S
C1239 H1232 0.950 . S
C1239 C1236 1.387 . S
C1240 C1241 1.387 . S
C1240 H1244 0.950 . S
C1240 C1249 1.390 . S
C1241 C1240 1.387 . S
C1241 C1243 1.387 . S
H1242 C1249 0.950 . S
C1243 C1241 1.387 . S
C1243 C1245 1.390 . S
C1243 H1247 0.950 . S
H1244 C1240 0.950 . S
C1245 C1243 1.390 . S
C1245 C1246 1.387 . S
C1245 H1248 0.950 . S
C1246 C1245 1.387 . S
C1246 C1249 1.387 . S
H1247 C1243 0.950 . S
H1248 C1245 0.950 . S
C1249 C1240 1.390 . S
C1249 H1242 0.950 . S
C1249 C1246 1.387 . S
C1250 C1251 1.387 . S
C1250 H1254 0.950 . S
C1250 C1259 1.390 . S
C1251 C1250 1.387 . S
C1251 C1253 1.387 . S
H1252 C1259 0.950 . S
C1253 C1251 1.387 . S
C1253 C1255 1.390 . S
C1253 H1257 0.950 . S
H1254 C1250 0.950 . S
C1255 C1253 1.390 . S
C1255 C1256 1.387 . S
C1255 H1258 0.950 . S
C1256 C1255 1.387 . S
C1256 C1259 1.387 . S
H1257 C1253 0.950 . S
H1258 C1255 0.950 . S
C1259 C1250 1.390 . S
C1259 H1252 0.950 . S
C1259 C1256 1.387 . S
C1260 C1261 1.387 1_545 S
C1260 H1264 0.950 . S
C1260 C1269 1.390 . S
C1261 C1260 1.387 1_565 S
C1261 C1263 1.387 . S
H1262 C1269 0.950 . S
C1263 C1261 1.387 . S
C1263 C1265 1.390 . S
C1263 H1267 0.950 . S
H1264 C1260 0.950 . S
C1265 C1263 1.390 . S
C1265 C1266 1.387 . S
C1265 H1268 0.950 . S
C1266 C1265 1.387 . S
C1266 C1269 1.387 1_565 S
H1267 C1263 0.950 . S
H1268 C1265 0.950 . S
C1269 C1260 1.390 . S
C1269 H1262 0.950 . S
C1269 C1266 1.387 1_545 S
C1270 C1271 1.387 . S
C1270 H1274 0.950 . S
C1270 C1279 1.390 . S
C1271 C1270 1.387 . S
C1271 C1273 1.387 . S
H1272 C1279 0.950 . S
C1273 C1271 1.387 . S
C1273 C1275 1.390 . S
C1273 H1277 0.948 . S
H1274 C1270 0.950 . S
C1275 C1273 1.390 . S
C1275 C1276 1.387 . S
C1275 H1278 0.944 . S
C1276 C1275 1.387 . S
C1276 C1279 1.387 . S
H1277 C1273 0.948 . S
H1278 C1275 0.944 . S
C1279 C1270 1.390 . S
C1279 H1272 0.950 . S
C1279 C1276 1.387 . S
C1280 C1281 1.387 . S
C1280 H1284 0.950 . S
C1280 C1289 1.390 . S
C1281 C1280 1.387 . S
C1281 C1283 1.387 . S
H1282 C1289 0.950 . S
C1283 C1281 1.387 . S
C1283 C1285 1.390 . S
C1283 H1287 0.950 . S
H1284 C1280 0.950 . S
C1285 C1283 1.390 . S
C1285 C1286 1.387 . S
C1285 H1288 0.950 . S
C1286 C1285 1.387 . S
C1286 C1289 1.387 . S
H1287 C1283 0.950 . S
H1288 C1285 0.950 . S
C1289 C1280 1.390 . S
C1289 H1282 0.950 . S
C1289 C1286 1.387 . S
C1290 C1291 1.387 . S
C1290 H1294 0.950 . S
C1290 C1299 1.390 . S
C1291 C1290 1.387 . S
C1291 C1293 1.387 1_655 S
H1292 C1299 0.950 . S
C1293 C1291 1.387 1_455 S
C1293 C1295 1.390 . S
C1293 H1297 0.950 . S
H1294 C1290 0.950 . S
C1295 C1293 1.390 . S
C1295 C1296 1.387 1_455 S
C1295 H1298 0.950 . S
C1296 C1295 1.387 1_655 S
C1296 C1299 1.387 . S
H1297 C1293 0.950 . S
H1298 C1295 0.950 . S
C1299 C1290 1.390 . S
C1299 H1292 0.950 . S
C1299 C1296 1.387 . S
C1300 C1301 1.387 . S
C1300 H1304 0.950 . S
C1300 C1309 1.390 . S
C1301 C1300 1.387 . S
C1301 C1303 1.387 . S
H1302 C1309 0.950 . S
C1303 C1301 1.387 . S
C1303 C1305 1.390 . S
C1303 H1307 0.950 . S
H1304 C1300 0.950 . S
C1305 C1303 1.390 . S
C1305 C1306 1.387 . S
C1305 H1308 0.950 . S
C1306 C1305 1.387 . S
C1306 C1309 1.387 . S
H1307 C1303 0.950 . S
H1308 C1305 0.950 . S
C1309 C1300 1.390 . S
C1309 H1302 0.950 . S
C1309 C1306 1.387 . S
C1310 C1311 1.387 . S
C1310 H1314 0.950 . S
C1310 C1319 1.390 . S
C1311 C1310 1.387 . S
C1311 C1313 1.387 1_545 S
H1312 C1319 0.950 . S
C1313 C1311 1.387 1_565 S
C1313 C1315 1.390 . S
C1313 H1317 0.950 . S
H1314 C1310 0.950 . S
C1315 C1313 1.390 . S
C1315 C1316 1.387 1_565 S
C1315 H1318 0.950 . S
C1316 C1315 1.387 1_545 S
C1316 C1319 1.387 . S
H1317 C1313 0.950 . S
H1318 C1315 0.950 . S
C1319 C1310 1.390 . S
C1319 H1312 0.950 . S
C1319 C1316 1.387 . S
C1320 C1321 1.387 . S
C1320 H1324 0.950 . S
C1320 C1329 1.390 . S
C1321 C1320 1.387 . S
C1321 C1323 1.387 . S
H1322 C1329 0.950 . S
C1323 C1321 1.387 . S
C1323 C1325 1.390 . S
C1323 H1327 0.950 . S
H1324 C1320 0.950 . S
C1325 C1323 1.390 . S
C1325 C1326 1.387 . S
C1325 H1328 0.950 . S
C1326 C1325 1.387 . S
C1326 C1329 1.387 . S
H1327 C1323 0.950 . S
H1328 C1325 0.950 . S
C1329 C1320 1.390 . S
C1329 H1322 0.950 . S
C1329 C1326 1.387 . S
C1330 C1331 1.387 . S
C1330 H1334 0.950 . S
C1330 C1339 1.390 . S
C1331 C1330 1.387 . S
C1331 C1333 1.387 . S
H1332 C1339 0.950 . S
C1333 C1331 1.387 . S
C1333 C1335 1.390 . S
C1333 H1337 0.950 . S
H1334 C1330 0.950 . S
C1335 C1333 1.390 . S
C1335 C1336 1.387 . S
C1335 H1338 0.950 . S
C1336 C1335 1.387 . S
C1336 C1339 1.387 . S
H1337 C1333 0.950 . S
H1338 C1335 0.950 . S
C1339 C1330 1.390 . S
C1339 H1332 0.950 . S
C1339 C1336 1.387 . S
C1340 C1341 1.387 . S
C1340 H1344 0.950 . S
C1340 C1349 1.390 . S
C1341 C1340 1.387 . S
C1341 C1343 1.387 . S
H1342 C1349 0.950 . S
C1343 C1341 1.387 . S
C1343 C1345 1.390 . S
C1343 H1347 0.950 . S
H1344 C1340 0.950 . S
C1345 C1343 1.390 . S
C1345 C1346 1.387 . S
C1345 H1348 0.950 . S
C1346 C1345 1.387 . S
C1346 C1349 1.387 . S
H1347 C1343 0.950 . S
H1348 C1345 0.950 . S
C1349 C1340 1.390 . S
C1349 H1342 0.950 . S
C1349 C1346 1.387 . S
C1350 C1351 1.387 . S
C1350 H1354 0.950 . S
C1350 C1359 1.390 . S
C1351 C1350 1.387 . S
C1351 C1353 1.387 . S
H1352 C1359 0.950 . S
C1353 C1351 1.387 . S
C1353 C1355 1.390 . S
C1353 H1357 0.950 . S
H1354 C1350 0.950 . S
C1355 C1353 1.390 . S
C1355 C1356 1.387 . S
C1355 H1358 0.950 . S
C1356 C1355 1.387 . S
C1356 C1359 1.387 . S
H1357 C1353 0.950 . S
H1358 C1355 0.950 . S
C1359 C1350 1.390 . S
C1359 H1352 0.950 . S
C1359 C1356 1.387 . S
C1360 C1361 1.387 . S
C1360 H1364 0.950 . S
C1360 C1369 1.390 . S
C1361 C1360 1.387 . S
C1361 C1363 1.387 . S
H1362 C1369 0.950 . S
C1363 C1361 1.387 . S
C1363 C1365 1.390 . S
C1363 H1367 0.950 . S
H1364 C1360 0.950 . S
C1365 C1363 1.390 . S
C1365 C1366 1.387 . S
C1365 H1368 0.950 . S
C1366 C1365 1.387 . S
C1366 C1369 1.387 . S
H1367 C1363 0.950 . S
H1368 C1365 0.950 . S
C1369 C1360 1.390 . S
C1369 H1362 0.950 . S
C1369 C1366 1.387 . S
C1370 C1371 1.387 . S
C1370 H1374 0.950 . S
C1370 C1379 1.390 . S
C1371 C1370 1.387 . S
C1371 C1373 1.387 . S
H1372 C1379 0.950 . S
C1373 C1371 1.387 . S
C1373 C1375 1.390 . S
C1373 H1377 0.950 . S
H1374 C1370 0.950 . S
C1375 C1373 1.390 . S
C1375 C1376 1.387 . S
C1375 H1378 0.950 . S
C1376 C1375 1.387 . S
C1376 C1379 1.387 . S
H1377 C1373 0.950 . S
H1378 C1375 0.950 . S
C1379 C1370 1.390 . S
C1379 H1372 0.950 . S
C1379 C1376 1.387 . S
C1380 C1381 1.387 . S
C1380 H1384 0.950 . S
C1380 C1389 1.390 . S
C1381 C1380 1.387 . S
C1381 C1383 1.387 . S
H1382 C1389 0.950 . S
C1383 C1381 1.387 . S
C1383 C1385 1.390 . S
C1383 H1387 0.950 . S
H1384 C1380 0.950 . S
C1385 C1383 1.390 . S
C1385 C1386 1.387 . S
C1385 H1388 0.950 . S
C1386 C1385 1.387 . S
C1386 C1389 1.387 . S
H1387 C1383 0.950 . S
H1388 C1385 0.950 . S
C1389 C1380 1.390 . S
C1389 H1382 0.950 . S
C1389 C1386 1.387 . S
C1390 C1391 1.387 . S
C1390 H1394 0.950 . S
C1390 C1399 1.390 . S
C1391 C1390 1.387 . S
C1391 C1393 1.387 . S
H1392 C1399 0.950 . S
C1393 C1391 1.387 . S
C1393 C1395 1.390 . S
C1393 H1397 0.950 . S
H1394 C1390 0.950 . S
C1395 C1393 1.390 . S
C1395 C1396 1.387 . S
C1395 H1398 0.950 . S
C1396 C1395 1.387 . S
C1396 C1399 1.387 . S
H1397 C1393 0.950 . S
H1398 C1395 0.950 . S
C1399 C1390 1.390 . S
C1399 H1392 0.950 . S
C1399 C1396 1.387 . S
C1400 C1401 1.387 . S
C1400 H1404 0.950 . S
C1400 C1409 1.390 . S
C1401 C1400 1.387 . S
C1401 C1403 1.387 . S
H1402 C1409 0.950 . S
C1403 C1401 1.387 . S
C1403 C1405 1.390 . S
C1403 H1407 0.950 . S
H1404 C1400 0.950 . S
C1405 C1403 1.390 . S
C1405 C1406 1.387 . S
C1405 H1408 0.950 . S
C1406 C1405 1.387 . S
C1406 C1409 1.387 . S
H1407 C1403 0.950 . S
H1408 C1405 0.950 . S
C1409 C1400 1.390 . S
C1409 H1402 0.950 . S
C1409 C1406 1.387 . S
C1410 C1411 1.387 . S
C1410 H1414 0.950 . S
C1410 C1419 1.390 . S
C1411 C1410 1.387 . S
C1411 C1413 1.387 . S
H1412 C1419 0.950 . S
C1413 C1411 1.387 . S
C1413 C1415 1.390 . S
C1413 H1417 0.950 . S
H1414 C1410 0.950 . S
C1415 C1413 1.390 . S
C1415 C1416 1.387 . S
C1415 H1418 0.950 . S
C1416 C1415 1.387 . S
C1416 C1419 1.387 . S
H1417 C1413 0.950 . S
H1418 C1415 0.950 . S
C1419 C1410 1.390 . S
C1419 H1412 0.950 . S
C1419 C1416 1.387 . S
C1420 C1421 1.387 . S
C1420 H1424 0.950 . S
C1420 C1429 1.390 . S
C1421 C1420 1.387 . S
C1421 C1423 1.387 . S
H1422 C1429 0.950 . S
C1423 C1421 1.387 . S
C1423 C1425 1.390 . S
C1423 H1427 0.950 . S
H1424 C1420 0.950 . S
C1425 C1423 1.390 . S
C1425 C1426 1.387 . S
C1425 H1428 0.950 . S
C1426 C1425 1.387 . S
C1426 C1429 1.387 . S
H1427 C1423 0.950 . S
H1428 C1425 0.950 . S
C1429 C1420 1.390 . S
C1429 H1422 0.950 . S
C1429 C1426 1.387 . S
C1430 C1431 1.387 . S
C1430 H1434 0.950 . S
C1430 C1439 1.390 . S
C1431 C1430 1.387 . S
C1431 C1433 1.387 . S
H1432 C1439 0.950 . S
C1433 C1431 1.387 . S
C1433 C1435 1.390 . S
C1433 H1437 0.950 . S
H1434 C1430 0.950 . S
C1435 C1433 1.390 . S
C1435 C1436 1.387 . S
C1435 H1438 0.950 . S
C1436 C1435 1.387 . S
C1436 C1439 1.387 . S
H1437 C1433 0.950 . S
H1438 C1435 0.950 . S
C1439 C1430 1.390 . S
C1439 H1432 0.950 . S
C1439 C1436 1.387 . S
C901 C522 1.644 . S
C906 C726 1.599 . S
C911 C562 1.545 . S
C916 C746 1.494 . S
C921 C495 1.616 . S
C926 C769 1.615 . S
C931 C455 1.519 . S
C936 C749 1.516 . S
C946 C766 1.474 . S
C941 C362 1.489 . S
C951 C402 1.574 . S
C956 C729 1.538 . S
C966 C736 1.621 . S
C961 C442 1.583 . S
C976 C756 1.474 . S
C971 C375 1.514 . S
C981 C415 1.623 . S
C986 C761 1.613 . S
C991 C535 1.526 . S
C996 C741 1.515 . S
C1001 C575 1.466 . S
C1006 C776 1.448 . S
C1016 C721 1.561 . S
C1011 C482 1.513 . S
C1026 C786 1.596 . S
C1021 C42 1.643 1_455 S
C1031 C82 1.545 . S
C1036 C806 1.494 . S
C1041 C15 1.616 1_565 S
C1046 C829 1.615 . S
C1051 C695 1.517 . S
C1056 C809 1.514 . S
C1061 C602 1.488 . S
C1066 C826 1.472 . S
C1071 C642 1.573 . S
C1076 C789 1.538 . S
C1081 C682 1.583 . S
C1086 C796 1.621 . S
C1091 C615 1.514 . S
C1096 C816 1.475 . S
C1106 C821 1.614 . S
C1101 C655 1.624 . S
C1111 C55 1.526 1_565 S
C1116 C801 1.515 . S
C1126 C836 1.450 . S
C1121 C95 1.462 . S
C1131 C2 1.517 . S
C1136 C781 1.564 . S
C1146 C846 1.596 . S
C1141 C282 1.642 . S
C1151 C322 1.545 . S
C1156 C866 1.494 . S
C1166 C889 1.613 . S
C1161 C255 1.614 . S
C1176 C869 1.516 . S
C1171 C215 1.519 1_545 S
C1186 C886 1.473 . S
C1181 C122 1.490 1_655 S
C1191 C162 1.574 . S
C1196 C849 1.538 . S
C1201 C202 1.583 1_655 S
C1206 C856 1.621 . S
C1211 C135 1.515 . S
C1216 C876 1.474 . S
C1226 C881 1.615 . S
C1221 C175 1.625 1_545 S
C1231 C295 1.525 . S
C1236 C861 1.515 . S
C1241 C335 1.466 . S
C1246 C896 1.449 . S
C1251 C242 1.516 . S
C1256 C841 1.564 . S
C1261 C621 1.324 . S
C1266 C739 1.283 1_565 S
C1276 C759 1.624 . S
C1271 C661 1.725 . S
C1281 C701 1.521 . S
C1286 C768 1.516 . S
C1291 C261 1.665 . S
C1296 C748 1.653 . S
C1301 C301 1.564 . S
C1306 C779 1.492 . S
C1316 C728 1.279 . S
C1311 C341 1.312 . S
C1321 C141 1.324 . S
C1326 C799 1.285 . S
C1331 C181 1.725 . S
C1336 C819 1.625 . S
C1341 C221 1.518 . S
C1346 C828 1.512 . S
C1351 C501 1.663 . S
C1356 C808 1.644 . S
C1366 C839 1.489 . S
C1361 C541 1.564 . S
C1371 C581 1.312 . S
C1376 C788 1.271 . S
C1381 C381 1.323 . S
C1386 C859 1.285 . S
C1391 C421 1.725 . S
C1396 C879 1.624 . S
C1406 C888 1.512 . S
C1401 C461 1.518 . S
C1411 C21 1.662 . S
C1416 C868 1.644 . S
C1421 C61 1.564 . S
C1426 C899 1.490 . S
C1431 C101 1.312 . S
C1436 C848 1.273 . S
