# Generated by pormake.
# Topology pth, (4,4)-cn, num edge types: 1
# Building blocks:
#     Node 0, Type 0, BuildingBlock: AZAVOO_clean_sbu_0, # of connection points: 4
#     Node 1, Type 0, BuildingBlock: AZAVOO_clean_sbu_0, # of connection points: 4
#     Node 2, Type 0, BuildingBlock: AZAVOO_clean_sbu_0, # of connection points: 4
#     Node 3, Type 1, BuildingBlock: NAWXER_clean_sbu_0, # of connection points: 4
#     Node 4, Type 1, BuildingBlock: NAWXER_clean_sbu_0, # of connection points: 4
#     Node 5, Type 1, BuildingBlock: NAWXER_clean_sbu_0, # of connection points: 4
#     Edge 6, Type (0, 1), BuildingBlock: TEMPAE_clean_linker_10, # of connection points: 2
#     Edge 7, Type (0, 1), BuildingBlock: TEMPAE_clean_linker_10, # of connection points: 2
#     Edge 8, Type (0, 1), BuildingBlock: TEMPAE_clean_linker_10, # of connection points: 2
#     Edge 9, Type (0, 1), BuildingBlock: TEMPAE_clean_linker_10, # of connection points: 2
#     Edge 10, Type (0, 1), BuildingBlock: TEMPAE_clean_linker_10, # of connection points: 2
#     Edge 11, Type (0, 1), BuildingBlock: TEMPAE_clean_linker_10, # of connection points: 2
#     Edge 12, Type (0, 1), BuildingBlock: TEMPAE_clean_linker_10, # of connection points: 2
#     Edge 13, Type (0, 1), BuildingBlock: TEMPAE_clean_linker_10, # of connection points: 2
#     Edge 14, Type (0, 1), BuildingBlock: TEMPAE_clean_linker_10, # of connection points: 2
#     Edge 15, Type (0, 1), BuildingBlock: TEMPAE_clean_linker_10, # of connection points: 2
#     Edge 16, Type (0, 1), BuildingBlock: TEMPAE_clean_linker_10, # of connection points: 2
#     Edge 17, Type (0, 1), BuildingBlock: TEMPAE_clean_linker_10, # of connection points: 2
# Relax obj value: 0.079
# Max RMSD: 0.220
# Mean RMSD: 0.117
data_MOF--net-pth--node1-AZAVOO_clean_sbu_0--node2-NAWXER_clean_sbu_0--edge1-TEMPAE_clean_linker_10
_symmetry_space_group_name_H-M    P1
_symmetry_Int_Tables_number       1
_symmetry_cell_setting            triclinic
loop_
_symmetry_equiv_pos_as_xyz
'x, y, z'
_cell_length_a     23.003842
_cell_length_b     23.521965
_cell_length_c     57.336854
_cell_angle_alpha  90.883272
_cell_angle_beta   92.957638
_cell_angle_gamma 122.28292
loop_
_atom_site_label
_atom_site_type_symbol
_atom_site_fract_x
_atom_site_fract_y
_atom_site_fract_z
_atom_type_partial_charge
Mg0 Mg 0.13142 0.10012 0.06868 0.0
O1 O 0.03994 0.04528 0.04161 0.0
O2 O 0.04937 0.11475 0.01395 0.0
Mg3 Mg 0.15023 0.21642 0.0233 0.0
C4 C 0.01728 0.05705 0.02274 0.0
C5 C 0.0825 0.01509 0.11419 0.0
O6 O 0.13 0.07273 0.12482 0.0
O7 O 0.08996 0.16027 0.08453 0.0
O8 O 0.11182 0.2346 0.05712 0.0
O9 O 0.19484 0.07431 0.04728 0.0
O10 O 0.19131 0.16587 0.04388 0.0
C11 C 0.09199 0.21246 0.07729 0.0
C12 C 0.21349 0.12932 0.03682 0.0
O13 O 0.07198 0.01187 0.0921 0.0
Mg14 Mg 0.94368 0.03072 0.38934 0.0
O15 O 0.02564 0.05042 0.41765 0.0
O16 O 0.04616 0.13348 0.44255 0.0
Mg17 Mg 0.9729 0.16726 0.42982 0.0
C18 C 0.05739 0.08841 0.43585 0.0
C19 C 0.98333 0.97249 0.34727 0.0
O20 O 0.96131 0.00509 0.33511 0.0
O21 O 0.01517 0.12636 0.37065 0.0
O22 O 0.0222 0.2051 0.39513 0.0
O23 O 0.86058 0.96134 0.41312 0.0
O24 O 0.90178 0.06978 0.41072 0.0
C25 C 0.03423 0.18735 0.37569 0.0
C26 C 0.8606 0.01417 0.41984 0.0
O27 O 0.97949 0.97122 0.36931 0.0
Mg28 Mg 0.01258 0.00738 0.72649 0.0
O29 O 0.06831 0.0955 0.75358 0.0
O30 O 0.99734 0.08266 0.78096 0.0
Mg31 Mg 0.89421 0.98334 0.77143 0.0
C32 C 0.05606 0.11575 0.77237 0.0
C33 C 0.09644 0.05249 0.68131 0.0
O34 O 0.03911 0.99961 0.67198 0.0
O35 O 0.94845 0.04654 0.71048 0.0
O36 O 0.8728 0.02223 0.73755 0.0
O37 O 0.04224 0.94579 0.74795 0.0
O38 O 0.94736 0.94652 0.75125 0.0
C39 C 0.8948 0.04312 0.71746 0.0
C40 C 0.98628 0.92573 0.75837 0.0
O41 O 0.10054 0.06822 0.70289 0.0
C42 C 0.0985 0.68296 0.25842 0.0
C43 C 0.09008 0.53523 0.1947 0.0
O44 O 0.15063 0.69385 0.24782 0.0
Zn45 Zn 0.10132 0.61269 0.22651 0.0
O46 O 0.03923 0.63066 0.25257 0.0
Zn47 Zn 0.98963 0.54673 0.22876 0.0
O48 O 0.95646 0.47194 0.24956 0.0
O49 O 0.06989 0.53259 0.24913 0.0
O50 O 0.03221 0.51717 0.20288 0.0
O51 O 0.14489 0.58848 0.20323 0.0
O52 O 0.04017 0.63536 0.20482 0.0
O53 O 0.92932 0.567 0.21003 0.0
C54 C 0.01514 0.48239 0.25644 0.0
C55 C 0.97732 0.61646 0.1999 0.0
C56 C 0.55771 0.0447 0.59828 0.0
C57 C 0.39522 0.03492 0.53661 0.0
O58 O 0.50011 0.99184 0.59146 0.0
Zn59 Zn 0.47326 0.03334 0.56743 0.0
O60 O 0.57729 0.10006 0.58845 0.0
Zn61 Zn 0.54465 0.14002 0.56162 0.0
O62 O 0.53515 0.20689 0.57921 0.0
O63 O 0.46225 0.10155 0.58805 0.0
O64 O 0.45204 0.0919 0.53999 0.0
O65 O 0.38458 0.98583 0.54883 0.0
O66 O 0.54545 0.05331 0.54242 0.0
O67 O 0.61459 0.16296 0.53929 0.0
C68 C 0.48678 0.16451 0.59126 0.0
C69 C 0.59649 0.10299 0.53326 0.0
C70 C 0.54271 0.44317 0.92768 0.0
C71 C 0.68268 0.58845 0.86776 0.0
O72 O 0.52626 0.48575 0.92218 0.0
Zn73 Zn 0.55817 0.56517 0.89801 0.0
O74 O 0.59123 0.44376 0.91787 0.0
Zn75 Zn 0.61247 0.51616 0.89774 0.0
O76 O 0.65754 0.6048 0.92115 0.0
O77 O 0.58927 0.64388 0.91819 0.0
O78 O 0.6856 0.5417 0.87737 0.0
O79 O 0.63761 0.6014 0.87355 0.0
O80 O 0.47553 0.53326 0.87807 0.0
O81 O 0.51982 0.47065 0.87452 0.0
C82 C 0.64367 0.64895 0.92706 0.0
C83 C 0.4723 0.48206 0.86891 0.0
C84 C 0.08469 0.31293 0.08609 0.0
C85 C 0.08161 0.25502 0.09381 0.0
C86 C 0.08644 0.35994 0.10192 0.0
C87 C 0.08477 0.34883 0.12612 0.0
C88 C 0.07906 0.28939 0.13401 0.0
C89 C 0.07745 0.24313 0.11777 0.0
C90 C 0.0917 0.42233 0.0928 0.0
C91 C 0.07633 0.27545 0.15968 0.0
C92 C 0.15239 0.49836 0.16977 0.0
C93 C 0.09086 0.49122 0.17609 0.0
C94 C 0.15135 0.45255 0.15338 0.0
C95 C 0.08736 0.39873 0.14311 0.0
C96 C 0.02538 0.3923 0.14907 0.0
C97 C 0.02789 0.43851 0.16541 0.0
C98 C 0.21853 0.46103 0.14732 0.0
C99 C 0.95614 0.33596 0.13844 0.0
H100 H 0.08777 0.3227 0.06764 0.0
H101 H 0.07539 0.19883 0.12397 0.0
H102 H 0.04822 0.42586 0.09838 0.0
H103 H 0.14001 0.46786 0.10028 0.0
H104 H 0.0913 0.42292 0.07342 0.0
H105 H 0.0707 0.22637 0.16294 0.0
H106 H 0.12411 0.31597 0.16945 0.0
H107 H 0.03246 0.27542 0.16688 0.0
H108 H 0.20112 0.53874 0.17797 0.0
H109 H 0.97994 0.43268 0.17002 0.0
H110 H 0.22346 0.46549 0.12819 0.0
H111 H 0.21927 0.41588 0.15209 0.0
H112 H 0.26391 0.50616 0.15647 0.0
H113 H 0.95454 0.33756 0.11911 0.0
H114 H 0.91275 0.33871 0.14469 0.0
H115 H 0.94814 0.2866 0.14283 0.0
C116 C 0.81663 0.99808 0.45975 0.0
C117 C 0.81349 0.01306 0.4364 0.0
C118 C 0.78131 0.01085 0.47632 0.0
C119 C 0.7417 0.0383 0.4691 0.0
C120 C 0.73635 0.0506 0.44527 0.0
C121 C 0.77297 0.03854 0.42929 0.0
C122 C 0.78858 0.99766 0.50164 0.0
C123 C 0.69361 0.07842 0.43671 0.0
C124 C 0.60261 0.02309 0.50607 0.0
C125 C 0.63409 0.08836 0.51642 0.0
C126 C 0.63748 0.00585 0.49101 0.0
C127 C 0.70594 0.05486 0.48629 0.0
C128 C 0.73833 0.12085 0.49674 0.0
C129 C 0.70178 0.13701 0.51158 0.0
C130 C 0.60061 0.93542 0.47986 0.0
C131 C 0.8115 0.17434 0.49217 0.0
H132 H 0.84936 0.97981 0.46523 0.0
H133 H 0.7714 0.0507 0.41119 0.0
H134 H 0.81454 0.04582 0.5123 0.0
H135 H 0.73702 0.96452 0.50834 0.0
H136 H 0.81889 0.97379 0.50426 0.0
H137 H 0.69201 0.0817 0.4174 0.0
H138 H 0.64002 0.04626 0.44194 0.0
H139 H 0.71517 0.12951 0.44486 0.0
H140 H 0.55014 0.98517 0.50963 0.0
H141 H 0.72658 0.18726 0.5197 0.0
H142 H 0.63062 0.91192 0.48385 0.0
H143 H 0.59626 0.93745 0.46056 0.0
H144 H 0.54803 0.9026 0.48592 0.0
H145 H 0.84621 0.15604 0.49637 0.0
H146 H 0.83054 0.22201 0.5026 0.0
H147 H 0.81479 0.18518 0.47335 0.0
C148 C 0.94441 0.81163 0.772 0.0
C149 C 0.96449 0.87828 0.77714 0.0
C150 C 0.90494 0.76088 0.78729 0.0
C151 C 0.88689 0.77799 0.80835 0.0
C152 C 0.91264 0.84643 0.81448 0.0
C153 C 0.95004 0.89566 0.79854 0.0
C154 C 0.87736 0.68851 0.77986 0.0
C155 C 0.89647 0.86714 0.83708 0.0
C156 C 0.71483 0.65814 0.8329 0.0
C157 C 0.73369 0.6312 0.85119 0.0
C158 C 0.76387 0.70358 0.81818 0.0
C159 C 0.83393 0.72436 0.8224 0.0
C160 C 0.85311 0.6965 0.84068 0.0
C161 C 0.80242 0.64935 0.85467 0.0
C162 C 0.74089 0.73064 0.79847 0.0
C163 C 0.92744 0.71884 0.84615 0.0
H164 H 0.95464 0.79833 0.75518 0.0
H165 H 0.96536 0.94737 0.80233 0.0
H166 H 0.88339 0.66145 0.79451 0.0
H167 H 0.82141 0.66266 0.77474 0.0
H168 H 0.90353 0.68438 0.76476 0.0
H169 H 0.92918 0.92243 0.84091 0.0
H170 H 0.84169 0.85202 0.83595 0.0
H171 H 0.90395 0.84141 0.85192 0.0
H172 H 0.66159 0.64384 0.83017 0.0
H173 H 0.81714 0.62911 0.86904 0.0
H174 H 0.75996 0.72475 0.78178 0.0
H175 H 0.76306 0.78522 0.80196 0.0
H176 H 0.68388 0.70478 0.79624 0.0
H177 H 0.95048 0.71482 0.83018 0.0
H178 H 0.93318 0.68881 0.85979 0.0
H179 H 0.95743 0.7726 0.85239 0.0
C180 C 0.07186 0.95139 0.14995 0.0
C181 C 0.04673 0.95276 0.1273 0.0
C182 C 0.04495 0.89064 0.16126 0.0
C183 C 0.99093 0.82986 0.14978 0.0
C184 C 0.96162 0.8318 0.12773 0.0
C185 C 0.99028 0.89313 0.11664 0.0
C186 C 0.07789 0.89091 0.18478 0.0
C187 C 0.90281 0.76853 0.1152 0.0
C188 C 0.00776 0.68356 0.16491 0.0
C189 C 0.96461 0.65667 0.18335 0.0
C190 C 0.013 0.737 0.15275 0.0
C191 C 0.97383 0.7643 0.15914 0.0
C192 C 0.92532 0.73329 0.17633 0.0
C193 C 0.92132 0.67958 0.18834 0.0
C194 C 0.0651 0.76794 0.13448 0.0
C195 C 0.88159 0.75996 0.18329 0.0
H196 H 0.11507 0.99725 0.15839 0.0
H197 H 0.96972 0.89391 0.09929 0.0
H198 H 0.03792 0.86293 0.19729 0.0
H199 H 0.10616 0.86506 0.18289 0.0
H200 H 0.1147 0.94275 0.19233 0.0
H201 H 0.87769 0.77992 0.10054 0.0
H202 H 0.92248 0.73842 0.10798 0.0
H203 H 0.86347 0.73693 0.12749 0.0
H204 H 0.04101 0.66551 0.16099 0.0
H205 H 0.88835 0.65921 0.20275 0.0
H206 H 0.10789 0.81894 0.14094 0.0
H207 H 0.04116 0.7737 0.11815 0.0
H208 H 0.08721 0.73733 0.13025 0.0
H209 H 0.9131 0.80544 0.19516 0.0
H210 H 0.8366 0.72222 0.19261 0.0
H211 H 0.86282 0.77482 0.16777 0.0
C212 C 0.12057 0.02935 0.44207 0.0
C213 C 0.1056 0.07666 0.45007 0.0
C214 C 0.16397 0.01554 0.4555 0.0
C215 C 0.19327 0.04974 0.47754 0.0
C216 C 0.17804 0.09711 0.48586 0.0
C217 C 0.13454 0.11011 0.47201 0.0
C218 C 0.17929 0.96507 0.44593 0.0
C219 C 0.20844 0.13473 0.50928 0.0
C220 C 0.27163 0.98608 0.52216 0.0
C221 C 0.34216 0.03029 0.51954 0.0
C222 C 0.22208 0.99046 0.50818 0.0
C223 C 0.24384 0.03978 0.49117 0.0
C224 C 0.31482 0.08203 0.48772 0.0
C225 C 0.36295 0.07684 0.50194 0.0
C226 C 0.14676 0.94439 0.51231 0.0
C227 C 0.34031 0.13474 0.46962 0.0
H228 H 0.09848 0.00297 0.42518 0.0
H229 H 0.12297 0.1463 0.47847 0.0
H230 H 0.23516 0.99045 0.44342 0.0
H231 H 0.16651 0.92549 0.45859 0.0
H232 H 0.15002 0.94057 0.42895 0.0
H233 H 0.1889 0.16743 0.51374 0.0
H234 H 0.19629 0.09865 0.52325 0.0
H235 H 0.26541 0.16663 0.50916 0.0
H236 H 0.25536 0.95039 0.53584 0.0
H237 H 0.41743 0.11083 0.49969 0.0
H238 H 0.11643 0.91912 0.49558 0.0
H239 H 0.12683 0.97444 0.51939 0.0
H240 H 0.13786 0.90534 0.52481 0.0
H241 H 0.3139 0.11141 0.45221 0.0
H242 H 0.39685 0.16086 0.46821 0.0
H243 H 0.32793 0.17291 0.47424 0.0
C244 C 0.17331 0.22165 0.77419 0.0
C245 C 0.11358 0.17685 0.78534 0.0
C246 C 0.23106 0.27583 0.78674 0.0
C247 C 0.22954 0.28497 0.81111 0.0
C248 C 0.16862 0.24135 0.82232 0.0
C249 C 0.1112 0.18812 0.80927 0.0
C250 C 0.29458 0.32186 0.77405 0.0
C251 C 0.16514 0.24901 0.84832 0.0
C252 C 0.39956 0.36907 0.84797 0.0
C253 C 0.4121 0.43338 0.85304 0.0
C254 C 0.3405 0.32055 0.8343 0.0
C255 C 0.29315 0.33692 0.82515 0.0
C256 C 0.30624 0.40225 0.82973 0.0
C257 C 0.36532 0.44957 0.84377 0.0
C258 C 0.32812 0.25126 0.83003 0.0
C259 C 0.25753 0.4219 0.81997 0.0
H260 H 0.17543 0.21371 0.75566 0.0
H261 H 0.06543 0.15367 0.81806 0.0
H262 H 0.31235 0.37527 0.77807 0.0
H263 H 0.33698 0.31508 0.7801 0.0
H264 H 0.28532 0.31183 0.75479 0.0
H265 H 0.11277 0.21363 0.85414 0.0
H266 H 0.20206 0.23951 0.85791 0.0
H267 H 0.18042 0.3012 0.85329 0.0
H268 H 0.43513 0.35592 0.85517 0.0
H269 H 0.37474 0.49922 0.84755 0.0
H270 H 0.32384 0.23946 0.81098 0.0
H271 H 0.27864 0.21286 0.83701 0.0
H272 H 0.36999 0.24662 0.83836 0.0
H273 H 0.25012 0.41326 0.80068 0.0
H274 H 0.27654 0.47552 0.82433 0.0
H275 H 0.20626 0.38988 0.82701 0.0
C276 C 0.85978 0.05531 0.67663 0.0
C277 C 0.85038 0.0535 0.70067 0.0
C278 C 0.81138 0.05373 0.66022 0.0
C279 C 0.75248 0.05083 0.66803 0.0
C280 C 0.74406 0.05169 0.69227 0.0
C281 C 0.79301 0.05294 0.70828 0.0
C282 C 0.82234 0.05335 0.63449 0.0
C283 C 0.6825 0.04974 0.70128 0.0
C284 C 0.66031 0.10621 0.62667 0.0
C285 C 0.60419 0.04447 0.61711 0.0
C286 C 0.70829 0.10884 0.6434 0.0
C287 C 0.70032 0.04823 0.65083 0.0
C288 C 0.64316 0.98557 0.64165 0.0
C289 C 0.59549 0.9844 0.62491 0.0
C290 C 0.76811 0.17663 0.65289 0.0
C291 C 0.63312 0.9199 0.6492 0.0
H292 H 0.90358 0.05531 0.67052 0.0
H293 H 0.78527 0.05171 0.7268 0.0
H294 H 0.77894 0.00645 0.62552 0.0
H295 H 0.82301 0.09619 0.62638 0.0
H296 H 0.87129 0.05672 0.63129 0.0
H297 H 0.68447 0.05246 0.72069 0.0
H298 H 0.67956 0.0923 0.69469 0.0
H299 H 0.63439 0.00258 0.69469 0.0
H300 H 0.66727 0.15303 0.62093 0.0
H301 H 0.55241 0.93661 0.61758 0.0
H302 H 0.81742 0.18256 0.64852 0.0
H303 H 0.76886 0.18016 0.67223 0.0
H304 H 0.7658 0.21907 0.64574 0.0
H305 H 0.67786 0.917 0.64473 0.0
H306 H 0.58539 0.87552 0.64078 0.0
H307 H 0.63061 0.91727 0.66846 0.0
C308 C 0.94078 0.00318 0.98599 0.0
C309 C 0.95461 1.00032 0.00992 0.0
C310 C 0.88635 0.94676 0.97309 0.0
C311 C 0.84414 0.88632 0.98445 0.0
C312 C 0.85572 0.88418 0.00881 0.0
C313 C 0.91104 0.94099 0.02121 0.0
C314 C 0.87606 0.95091 0.94709 0.0
C315 C 0.81124 0.82109 0.02165 0.0
C316 C 0.67517 0.75126 0.95216 0.0
C317 C 0.69323 0.70764 0.94288 0.0
C318 C 0.7233 0.80903 0.96609 0.0
C319 C 0.79133 0.82401 0.97054 0.0
C320 C 0.80959 0.77979 0.96141 0.0
C321 C 0.76026 0.722 0.94784 0.0
C322 C 0.70161 0.8544 0.97583 0.0
C323 C 0.88174 0.7942 0.96557 0.0
H324 H 0.97425 0.04866 0.97709 0.0
H325 H 0.92092 0.93845 0.03974 0.0
H326 H 0.88669 0.91643 0.93751 0.0
H327 H 0.8218 0.93441 0.94222 0.0
H328 H 0.91036 0.00266 0.94117 0.0
H329 H 0.82293 0.82952 0.04089 0.0
H330 H 0.75591 0.80218 0.01773 0.0
H331 H 0.81948 0.78102 0.01563 0.0
H332 H 0.62343 0.74044 0.94847 0.0
H333 H 0.77487 0.68887 0.94064 0.0
H334 H 0.7323 0.90498 0.96866 0.0
H335 H 0.71198 0.86108 0.99511 0.0
H336 H 0.64605 0.83422 0.9716 0.0
H337 H 0.91925 0.84332 0.95846 0.0
H338 H 0.88758 0.75468 0.95729 0.0
H339 H 0.89545 0.798 0.98461 0.0
C340 C 0.99804 0.92021 0.31157 0.0
C341 C 0.01353 0.93861 0.3355 0.0
C342 C 0.02347 0.88509 0.30042 0.0
C343 C 0.06677 0.86931 0.31339 0.0
C344 C 0.08557 0.89098 0.33728 0.0
C345 C 0.05797 0.92457 0.34813 0.0
C346 C 1.00112 0.86192 0.27501 0.0
C347 C 0.13301 0.87678 0.35156 0.0
C348 C 0.04826 0.70798 0.2912 0.0
C349 C 0.10169 0.73139 0.27606 0.0
C350 C 0.03867 0.75255 0.30435 0.0
C351 C 0.08435 0.8227 0.30267 0.0
C352 C 0.14199 0.84689 0.28897 0.0
C353 C 0.14991 0.80079 0.27567 0.0
C354 C 0.97645 0.72425 0.31866 0.0
C355 C 0.19282 0.92134 0.28722 0.0
H356 H 0.96397 0.93117 0.3017 0.0
H357 H 0.07115 0.93977 0.36656 0.0
H358 H 0.04671 0.8783 0.2648 0.0
H359 H 0.96912 0.80607 0.27345 0.0
H360 H 0.97069 0.88164 0.26705 0.0
H361 H 0.15029 0.90499 0.36881 0.0
H362 H 0.10597 0.82219 0.35458 0.0
H363 H 0.17902 0.8902 0.34196 0.0
H364 H 0.01131 0.6543 0.29185 0.0
H365 H 0.19125 0.81919 0.264 0.0
H366 H 0.94025 0.73764 0.311 0.0
H367 H 0.99198 0.74639 0.33682 0.0
H368 H 0.9485 0.66857 0.31929 0.0
H369 H 0.16917 0.94259 0.2759 0.0
H370 H 0.24082 0.93176 0.27959 0.0
H371 H 0.20634 0.94793 0.30468 0.0
C372 C 0.16034 0.06061 0.6463 0.0
C373 C 0.15793 0.08921 0.66756 0.0
C374 C 0.22115 0.09003 0.63454 0.0
C375 C 0.28083 0.15028 0.64405 0.0
C376 C 0.27721 0.18211 0.66457 0.0
C377 C 0.216 0.1508 0.67625 0.0
C378 C 0.22269 0.05405 0.61273 0.0
C379 C 0.3389 0.24734 0.67488 0.0
C380 C 0.43893 0.15115 0.6295 0.0
C381 C 0.45407 0.18373 0.6084 0.0
C382 C 0.38646 0.14537 0.64255 0.0
C383 C 0.34839 0.17331 0.6343 0.0
C384 C 0.36904 0.21323 0.61447 0.0
C385 C 0.42176 0.21774 0.60157 0.0
C386 C 0.36671 0.10256 0.6636 0.0
C387 C 0.33124 0.24563 0.60554 0.0
H388 H 0.11565 0.0133 0.63938 0.0
H389 H 0.21425 0.17383 0.69251 0.0
H390 H 0.24293 0.08909 0.59833 0.0
H391 H 0.2578 0.03581 0.61621 0.0
H392 H 0.17088 0.01025 0.60676 0.0
H393 H 0.3241 0.27233 0.68778 0.0
H394 H 0.37602 0.23718 0.6839 0.0
H395 H 0.36587 0.28254 0.66094 0.0
H396 H 0.46404 0.12478 0.6347 0.0
H397 H 0.43298 0.24236 0.58511 0.0
H398 H 0.31703 0.05429 0.65928 0.0
H399 H 0.35938 0.12808 0.67853 0.0
H400 H 0.40612 0.09103 0.66921 0.0
H401 H 0.28338 0.20749 0.59517 0.0
H402 H 0.36306 0.28741 0.59408 0.0
H403 H 0.31624 0.26535 0.62022 0.0
C404 C 0.33034 0.17619 0.02334 0.0
C405 C 0.2608 0.15261 0.01802 0.0
C406 C 0.38039 0.2173 0.00801 0.0
C407 C 0.35969 0.23364 0.98676 0.0
C408 C 0.28861 0.20448 0.98046 0.0
C409 C 0.24004 0.16531 0.99642 0.0
C410 C 0.45557 0.24831 0.01562 0.0
C411 C 0.26415 0.2189 0.95768 0.0
C412 C 0.47247 0.40537 0.96229 0.0
C413 C 0.50183 0.39101 0.94415 0.0
C414 C 0.42857 0.35502 0.97691 0.0
C415 C 0.41184 0.28817 0.97278 0.0
C416 C 0.44221 0.27358 0.95467 0.0
C417 C 0.48775 0.32553 0.94074 0.0
C418 C 0.39875 0.37315 0.99644 0.0
C419 C 0.42417 0.20271 0.94931 0.0
H420 H 0.3462 0.16728 0.04032 0.0
H421 H 0.1861 0.14737 0.99251 0.0
H422 H 0.48409 0.24567 0.00106 0.0
H423 H 0.47893 0.30234 0.02072 0.0
H424 H 0.46275 0.22327 0.03077 0.0
H425 H 0.20775 0.184 0.95374 0.0
H426 H 0.27575 0.27115 0.95866 0.0
H427 H 0.2915 0.21478 0.943 0.0
H428 H 0.48362 0.45609 0.96498 0.0
H429 H 0.50982 0.31424 0.9265 0.0
H430 H 0.40745 0.355 0.01321 0.0
H431 H 0.34224 0.34809 0.99279 0.0
H432 H 0.42165 0.4283 0.99859 0.0
H433 H 0.43094 0.18057 0.96537 0.0
H434 H 0.45607 0.20057 0.93583 0.0
H435 H 0.3691 0.17075 0.94288 0.0
C436 C 0.07513 0.30229 0.36214 0.0
C437 C 0.05477 0.23542 0.35675 0.0
C438 C 0.07396 0.3431 0.3448 0.0
C439 C 0.05266 0.31671 0.32144 0.0
C440 C 0.03845 0.25163 0.31549 0.0
C441 C 0.03977 0.2117 0.33323 0.0
C442 C 0.09062 0.41269 0.35183 0.0
C443 C 0.01704 0.2223 0.29066 0.0
C444 C 0.96743 0.38954 0.2847 0.0
C445 C 0.02244 0.43713 0.27234 0.0
C446 C 0.97624 0.34897 0.30043 0.0
C447 C 0.04134 0.35586 0.30365 0.0
C448 C 0.09637 0.40246 0.29072 0.0
C449 C 0.08635 0.44262 0.27533 0.0
C450 C 0.91635 0.29981 0.31402 0.0
C451 C 0.16627 0.41087 0.29347 0.0
H452 H 0.08757 0.32143 0.38021 0.0
H453 H 0.02409 0.16022 0.3288 0.0
H454 H 0.12833 0.45046 0.34033 0.0
H455 H 0.0431 0.41396 0.34972 0.0
H456 H 0.11197 0.42785 0.37027 0.0
H457 H 0.01653 0.17504 0.28841 0.0
H458 H 0.96451 0.21113 0.28578 0.0
H459 H 0.05221 0.25898 0.27833 0.0
H460 H 0.91799 0.38493 0.28245 0.0
H461 H 0.1291 0.47871 0.26565 0.0
H462 H 0.92947 0.31347 0.33301 0.0
H463 H 0.90591 0.24831 0.31116 0.0
H464 H 0.86858 0.29892 0.30897 0.0
H465 H 0.18931 0.43003 0.31153 0.0
H466 H 0.20242 0.44635 0.28104 0.0
H467 H 0.16105 0.36152 0.29069 0.0
loop_
_geom_bond_atom_site_label_1
_geom_bond_atom_site_label_2
_geom_bond_distance
_geom_bond_site_symmetry_2
_ccdc_geom_bond_type
Mg0 O1 2.028 . S
Mg0 O7 1.986 . S
Mg0 O9 2.114 . S
Mg0 O10 2.251 . S
Mg0 O13 2.010 . S
O1 Mg0 2.028 . S
O1 C4 1.250 1_455 S
O2 Mg3 2.028 1_655 S
O2 C4 1.248 . S
Mg3 O2 2.028 1_455 S
Mg3 O8 2.032 . S
Mg3 O10 2.079 . S
C4 O1 1.250 1_655 S
C4 O2 1.248 . S
C5 O6 1.264 1_565 S
C5 O13 1.249 1_565 S
O6 C5 1.264 1_545 S
O7 Mg0 1.986 . S
O7 C11 1.246 . S
O8 Mg3 2.032 . S
O8 C11 1.259 . S
O9 Mg0 2.114 . S
O9 C12 1.252 . S
O10 Mg0 2.251 . S
O10 Mg3 2.079 . S
O10 C12 1.273 . S
C11 O7 1.246 . S
C11 O8 1.259 . S
C12 O9 1.252 . S
C12 O10 1.273 . S
O13 Mg0 2.010 . S
O13 C5 1.249 1_545 S
Mg14 O15 2.028 1_655 S
Mg14 O21 1.986 1_655 S
Mg14 O23 2.114 1_545 S
Mg14 O24 2.251 . S
Mg14 O27 2.010 1_545 S
O15 Mg14 2.028 1_455 S
O15 C18 1.250 . S
O16 Mg17 2.028 . S
O16 C18 1.248 . S
Mg17 O16 2.028 . S
Mg17 O22 2.032 . S
Mg17 O24 2.079 1_455 S
C18 O15 1.250 . S
C18 O16 1.248 . S
C19 O20 1.264 . S
C19 O27 1.249 . S
O20 C19 1.264 . S
O21 Mg14 1.986 1_455 S
O21 C25 1.246 . S
O22 Mg17 2.032 . S
O22 C25 1.259 . S
O23 Mg14 2.114 1_565 S
O23 C26 1.252 1_565 S
O24 Mg14 2.251 . S
O24 Mg17 2.079 1_655 S
O24 C26 1.273 . S
C25 O21 1.246 . S
C25 O22 1.259 . S
C26 O23 1.252 1_545 S
C26 O24 1.273 . S
O27 Mg14 2.010 1_565 S
O27 C19 1.249 . S
Mg28 O29 2.028 . S
Mg28 O35 1.986 1_455 S
Mg28 O37 2.114 1_545 S
Mg28 O38 2.251 1_445 S
Mg28 O41 2.010 . S
O29 Mg28 2.028 . S
O29 C32 1.250 . S
O30 Mg31 2.028 1_455 S
O30 C32 1.248 . S
Mg31 O30 2.028 1_655 S
Mg31 O36 2.032 . S
Mg31 O38 2.079 1_545 S
C32 O29 1.250 . S
C32 O30 1.248 . S
C33 O34 1.264 1_545 S
C33 O41 1.249 . S
O34 C33 1.264 1_565 S
O35 Mg28 1.986 1_655 S
O35 C39 1.246 . S
O36 Mg31 2.032 . S
O36 C39 1.259 . S
O37 Mg28 2.114 1_565 S
O37 C40 1.252 1_455 S
O38 Mg28 2.251 1_665 S
O38 Mg31 2.079 1_565 S
O38 C40 1.273 . S
C39 O35 1.246 . S
C39 O36 1.259 . S
C40 O37 1.252 1_655 S
C40 O38 1.273 . S
O41 Mg28 2.010 . S
O41 C33 1.249 . S
C42 O44 1.247 . S
C42 O46 1.258 1_455 S
C43 O50 1.247 1_455 S
C43 O51 1.258 . S
O44 C42 1.247 . S
O44 Zn45 2.028 . S
Zn45 O44 2.028 . S
Zn45 O49 2.035 . S
Zn45 O51 2.035 . S
Zn45 O52 2.028 . S
O46 C42 1.258 1_655 S
O46 Zn47 2.035 . S
Zn47 O46 2.035 . S
Zn47 O48 2.028 . S
Zn47 O50 2.028 . S
Zn47 O53 2.035 . S
O48 Zn47 2.028 . S
O48 C54 1.247 1_655 S
O49 Zn45 2.035 . S
O49 C54 1.258 . S
O50 C43 1.247 1_655 S
O50 Zn47 2.028 . S
O51 C43 1.258 . S
O51 Zn45 2.035 . S
O52 Zn45 2.028 . S
O52 C55 1.247 . S
O53 Zn47 2.035 . S
O53 C55 1.258 1_655 S
C54 O48 1.247 1_455 S
C54 O49 1.258 . S
C55 O52 1.247 . S
C55 O53 1.258 1_455 S
C56 O58 1.247 . S
C56 O60 1.258 . S
C57 O64 1.247 . S
C57 O65 1.258 . S
O58 C56 1.247 . S
O58 Zn59 2.028 . S
Zn59 O58 2.028 . S
Zn59 O63 2.035 . S
Zn59 O65 2.035 . S
Zn59 O66 2.028 . S
O60 C56 1.258 . S
O60 Zn61 2.035 . S
Zn61 O60 2.035 . S
Zn61 O62 2.028 . S
Zn61 O64 2.028 . S
Zn61 O67 2.035 . S
O62 Zn61 2.028 . S
O62 C68 1.247 . S
O63 Zn59 2.035 . S
O63 C68 1.258 . S
O64 C57 1.247 . S
O64 Zn61 2.028 . S
O65 C57 1.258 . S
O65 Zn59 2.035 . S
O66 Zn59 2.028 . S
O66 C69 1.247 . S
O67 Zn61 2.035 . S
O67 C69 1.258 . S
C68 O62 1.247 . S
C68 O63 1.258 . S
C69 O66 1.247 . S
C69 O67 1.258 . S
C70 O72 1.247 . S
C70 O74 1.258 . S
C71 O78 1.247 . S
C71 O79 1.258 . S
O72 C70 1.247 . S
O72 Zn73 2.028 . S
Zn73 O72 2.028 . S
Zn73 O77 2.035 . S
Zn73 O79 2.035 . S
Zn73 O80 2.028 . S
O74 C70 1.258 . S
O74 Zn75 2.035 . S
Zn75 O74 2.035 . S
Zn75 O76 2.028 . S
Zn75 O78 2.028 . S
Zn75 O81 2.035 . S
O76 Zn75 2.028 . S
O76 C82 1.247 . S
O77 Zn73 2.035 . S
O77 C82 1.258 . S
O78 C71 1.247 . S
O78 Zn75 2.028 . S
O79 C71 1.258 . S
O79 Zn73 2.035 . S
O80 Zn73 2.028 . S
O80 C83 1.247 . S
O81 Zn75 2.035 . S
O81 C83 1.258 . S
C82 O76 1.247 . S
C82 O77 1.258 . S
C83 O80 1.247 . S
C83 O81 1.258 . S
C84 C85 1.391 . S
C84 C86 1.394 . S
C84 H100 0.931 . S
C85 C84 1.391 . S
C85 C89 1.376 1_455 S
C86 C84 1.394 . S
C86 C87 1.369 . S
C86 C90 1.531 . S
C87 C86 1.369 . S
C87 C88 1.410 1_455 S
C87 C95 1.503 . S
C88 C87 1.410 1_655 S
C88 C89 1.392 . S
C88 C91 1.511 . S
C89 C85 1.376 1_655 S
C89 C88 1.392 . S
C89 H101 0.929 . S
C90 C86 1.531 . S
C90 H102 0.960 . S
C90 H103 0.962 . S
C90 H104 0.960 . S
C91 C88 1.511 . S
C91 H105 0.961 . S
C91 H106 0.961 . S
C91 H107 0.961 . S
C92 C93 1.370 . S
C92 C94 1.363 . S
C92 H108 0.931 . S
C93 C92 1.370 . S
C93 C97 1.408 . S
C94 C92 1.363 . S
C94 C95 1.370 . S
C94 C98 1.524 . S
C95 C87 1.503 . S
C95 C94 1.370 . S
C95 C96 1.403 . S
C96 C95 1.403 . S
C96 C97 1.404 . S
C96 C99 1.539 . S
C97 C93 1.408 . S
C97 C96 1.404 . S
C97 H109 0.930 . S
C98 C94 1.524 . S
C98 H110 0.956 . S
C98 H111 0.961 . S
C98 H112 0.961 . S
C99 C96 1.539 . S
C99 H113 0.958 . S
C99 H114 0.961 1_455 S
C99 H115 0.960 1_455 S
H100 C84 0.931 . S
H101 C89 0.929 . S
H102 C90 0.960 . S
H103 C90 0.962 . S
H104 C90 0.960 . S
H105 C91 0.961 . S
H106 C91 0.961 . S
H107 C91 0.961 . S
H108 C92 0.931 . S
H109 C97 0.930 . S
H110 C98 0.956 . S
H111 C98 0.961 . S
H112 C98 0.961 . S
H113 C99 0.958 . S
H114 C99 0.961 1_655 S
H115 C99 0.960 1_655 S
C116 C117 1.391 . S
C116 C118 1.394 . S
C116 H132 0.931 1_545 S
C117 C116 1.391 . S
C117 C121 1.376 . S
C118 C116 1.394 . S
C118 C119 1.369 . S
C118 C122 1.531 . S
C119 C118 1.369 . S
C119 C120 1.410 . S
C119 C127 1.503 . S
C120 C119 1.410 . S
C120 C121 1.392 . S
C120 C123 1.511 . S
C121 C117 1.376 . S
C121 C120 1.392 . S
C121 H133 0.929 . S
C122 C118 1.531 . S
C122 H134 0.960 . S
C122 H135 0.962 1_545 S
C122 H136 0.960 . S
C123 C120 1.511 . S
C123 H137 0.961 . S
C123 H138 0.961 . S
C123 H139 0.961 . S
C124 C125 1.370 . S
C124 C126 1.363 . S
C124 H140 0.931 1_545 S
C125 C124 1.370 . S
C125 C129 1.408 . S
C126 C124 1.363 . S
C126 C127 1.370 . S
C126 C130 1.524 1_545 S
C127 C119 1.503 . S
C127 C126 1.370 . S
C127 C128 1.403 . S
C128 C127 1.403 . S
C128 C129 1.404 . S
C128 C131 1.539 . S
C129 C125 1.408 . S
C129 C128 1.404 . S
C129 H141 0.930 . S
C130 C126 1.524 1_565 S
C130 H142 0.956 . S
C130 H143 0.961 . S
C130 H144 0.961 . S
C131 C128 1.539 . S
C131 H145 0.958 . S
C131 H146 0.961 . S
C131 H147 0.960 . S
H132 C116 0.931 1_565 S
H133 C121 0.929 . S
H134 C122 0.960 . S
H135 C122 0.962 1_565 S
H136 C122 0.960 . S
H137 C123 0.961 . S
H138 C123 0.961 . S
H139 C123 0.961 . S
H140 C124 0.931 1_565 S
H141 C129 0.930 . S
H142 C130 0.956 . S
H143 C130 0.961 . S
H144 C130 0.961 . S
H145 C131 0.958 . S
H146 C131 0.961 . S
H147 C131 0.960 . S
C148 C149 1.391 . S
C148 C150 1.394 . S
C148 H164 0.931 . S
C149 C148 1.391 . S
C149 C153 1.376 . S
C150 C148 1.394 . S
C150 C151 1.369 . S
C150 C154 1.531 . S
C151 C150 1.369 . S
C151 C152 1.410 . S
C151 C159 1.503 . S
C152 C151 1.410 . S
C152 C153 1.392 . S
C152 C155 1.511 . S
C153 C149 1.376 . S
C153 C152 1.392 . S
C153 H165 0.929 . S
C154 C150 1.531 . S
C154 H166 0.960 . S
C154 H167 0.962 . S
C154 H168 0.960 . S
C155 C152 1.511 . S
C155 H169 0.961 . S
C155 H170 0.961 . S
C155 H171 0.961 . S
C156 C157 1.370 . S
C156 C158 1.363 . S
C156 H172 0.931 . S
C157 C156 1.370 . S
C157 C161 1.408 . S
C158 C156 1.363 . S
C158 C159 1.370 . S
C158 C162 1.524 . S
C159 C151 1.503 . S
C159 C158 1.370 . S
C159 C160 1.403 . S
C160 C159 1.403 . S
C160 C161 1.404 . S
C160 C163 1.539 . S
C161 C157 1.408 . S
C161 C160 1.404 . S
C161 H173 0.930 . S
C162 C158 1.524 . S
C162 H174 0.956 . S
C162 H175 0.961 . S
C162 H176 0.961 . S
C163 C160 1.539 . S
C163 H177 0.958 . S
C163 H178 0.961 . S
C163 H179 0.960 . S
H164 C148 0.931 . S
H165 C153 0.929 . S
H166 C154 0.960 . S
H167 C154 0.962 . S
H168 C154 0.960 . S
H169 C155 0.961 . S
H170 C155 0.961 . S
H171 C155 0.961 . S
H172 C156 0.931 . S
H173 C161 0.930 . S
H174 C162 0.956 . S
H175 C162 0.961 . S
H176 C162 0.961 . S
H177 C163 0.958 . S
H178 C163 0.961 . S
H179 C163 0.960 . S
C180 C181 1.391 . S
C180 C182 1.394 . S
C180 H196 0.931 . S
C181 C180 1.391 . S
C181 C185 1.376 . S
C182 C180 1.394 . S
C182 C183 1.369 . S
C182 C186 1.531 . S
C183 C182 1.369 . S
C183 C184 1.410 . S
C183 C191 1.503 . S
C184 C183 1.410 . S
C184 C185 1.392 . S
C184 C187 1.511 1_455 S
C185 C181 1.376 . S
C185 C184 1.392 . S
C185 H197 0.929 . S
C186 C182 1.531 . S
C186 H198 0.960 . S
C186 H199 0.962 . S
C186 H200 0.960 . S
C187 C184 1.511 1_655 S
C187 H201 0.961 . S
C187 H202 0.961 . S
C187 H203 0.961 . S
C188 C189 1.370 . S
C188 C190 1.363 . S
C188 H204 0.931 . S
C189 C188 1.370 . S
C189 C193 1.408 . S
C190 C188 1.363 . S
C190 C191 1.370 . S
C190 C194 1.524 . S
C191 C183 1.503 . S
C191 C190 1.370 . S
C191 C192 1.403 . S
C192 C191 1.403 . S
C192 C193 1.404 . S
C192 C195 1.539 . S
C193 C189 1.408 . S
C193 C192 1.404 . S
C193 H205 0.930 . S
C194 C190 1.524 . S
C194 H206 0.956 . S
C194 H207 0.961 . S
C194 H208 0.961 . S
C195 C192 1.539 . S
C195 H209 0.958 . S
C195 H210 0.961 1_455 S
C195 H211 0.960 1_455 S
H196 C180 0.931 . S
H197 C185 0.929 . S
H198 C186 0.960 . S
H199 C186 0.962 . S
H200 C186 0.960 . S
H201 C187 0.961 . S
H202 C187 0.961 . S
H203 C187 0.961 . S
H204 C188 0.931 . S
H205 C193 0.930 . S
H206 C194 0.956 . S
H207 C194 0.961 . S
H208 C194 0.961 . S
H209 C195 0.958 . S
H210 C195 0.961 1_655 S
H211 C195 0.960 1_655 S
C212 C213 1.391 . S
C212 C214 1.394 . S
C212 H228 0.931 . S
C213 C212 1.391 . S
C213 C217 1.376 . S
C214 C212 1.394 . S
C214 C215 1.369 . S
C214 C218 1.531 . S
C215 C214 1.369 . S
C215 C216 1.410 . S
C215 C223 1.503 . S
C216 C215 1.410 . S
C216 C217 1.392 . S
C216 C219 1.511 . S
C217 C213 1.376 . S
C217 C216 1.392 . S
C217 H229 0.929 . S
C218 C214 1.531 . S
C218 H230 0.960 . S
C218 H231 0.962 . S
C218 H232 0.960 . S
C219 C216 1.511 . S
C219 H233 0.962 . S
C219 H234 0.961 . S
C219 H235 0.961 . S
C220 C221 1.370 . S
C220 C222 1.363 . S
C220 H236 0.931 . S
C221 C220 1.370 . S
C221 C225 1.408 . S
C222 C220 1.363 . S
C222 C223 1.370 . S
C222 C226 1.524 1_545 S
C223 C215 1.503 . S
C223 C222 1.370 . S
C223 C224 1.403 . S
C224 C223 1.403 . S
C224 C225 1.404 . S
C224 C227 1.539 . S
C225 C221 1.408 . S
C225 C224 1.404 . S
C225 H237 0.930 . S
C226 C222 1.524 1_565 S
C226 H238 0.956 1_565 S
C226 H239 0.961 . S
C226 H240 0.961 . S
C227 C224 1.539 . S
C227 H241 0.958 . S
C227 H242 0.961 . S
C227 H243 0.960 . S
H228 C212 0.931 . S
H229 C217 0.929 . S
H230 C218 0.960 . S
H231 C218 0.962 . S
H232 C218 0.960 . S
H233 C219 0.962 . S
H234 C219 0.961 . S
H235 C219 0.961 . S
H236 C220 0.931 . S
H237 C225 0.930 . S
H238 C226 0.956 1_545 S
H239 C226 0.961 . S
H240 C226 0.961 . S
H241 C227 0.958 . S
H242 C227 0.961 . S
H243 C227 0.960 . S
C244 C245 1.391 . S
C244 C246 1.394 . S
C244 H260 0.931 . S
C245 C244 1.391 . S
C245 C249 1.376 . S
C246 C244 1.394 . S
C246 C247 1.369 . S
C246 C250 1.531 . S
C247 C246 1.369 . S
C247 C248 1.410 . S
C247 C255 1.503 . S
C248 C247 1.410 . S
C248 C249 1.392 . S
C248 C251 1.511 . S
C249 C245 1.376 . S
C249 C248 1.392 . S
C249 H261 0.929 . S
C250 C246 1.531 . S
C250 H262 0.960 . S
C250 H263 0.962 . S
C250 H264 0.960 . S
C251 C248 1.511 . S
C251 H265 0.961 . S
C251 H266 0.961 . S
C251 H267 0.961 . S
C252 C253 1.370 . S
C252 C254 1.363 . S
C252 H268 0.931 . S
C253 C252 1.370 . S
C253 C257 1.408 . S
C254 C252 1.363 . S
C254 C255 1.370 . S
C254 C258 1.524 . S
C255 C247 1.503 . S
C255 C254 1.370 . S
C255 C256 1.403 . S
C256 C255 1.403 . S
C256 C257 1.404 . S
C256 C259 1.539 . S
C257 C253 1.408 . S
C257 C256 1.404 . S
C257 H269 0.930 . S
C258 C254 1.524 . S
C258 H270 0.956 . S
C258 H271 0.961 . S
C258 H272 0.961 . S
C259 C256 1.539 . S
C259 H273 0.958 . S
C259 H274 0.961 . S
C259 H275 0.960 . S
H260 C244 0.931 . S
H261 C249 0.929 . S
H262 C250 0.960 . S
H263 C250 0.962 . S
H264 C250 0.960 . S
H265 C251 0.961 . S
H266 C251 0.961 . S
H267 C251 0.961 . S
H268 C252 0.931 . S
H269 C257 0.930 . S
H270 C258 0.956 . S
H271 C258 0.961 . S
H272 C258 0.961 . S
H273 C259 0.958 . S
H274 C259 0.961 . S
H275 C259 0.960 . S
C276 C277 1.391 . S
C276 C278 1.394 . S
C276 H292 0.931 . S
C277 C276 1.391 . S
C277 C281 1.376 . S
C278 C276 1.394 . S
C278 C279 1.369 . S
C278 C282 1.531 . S
C279 C278 1.369 . S
C279 C280 1.410 . S
C279 C287 1.503 . S
C280 C279 1.410 . S
C280 C281 1.392 . S
C280 C283 1.511 . S
C281 C277 1.376 . S
C281 C280 1.392 . S
C281 H293 0.929 . S
C282 C278 1.531 . S
C282 H294 0.960 . S
C282 H295 0.962 . S
C282 H296 0.960 1_545 S
C283 C280 1.511 . S
C283 H297 0.961 . S
C283 H298 0.961 . S
C283 H299 0.961 . S
C284 C285 1.370 . S
C284 C286 1.363 . S
C284 H300 0.931 . S
C285 C284 1.370 . S
C285 C289 1.408 . S
C286 C284 1.363 . S
C286 C287 1.370 . S
C286 C290 1.524 . S
C287 C279 1.503 . S
C287 C286 1.370 . S
C287 C288 1.403 . S
C288 C287 1.403 . S
C288 C289 1.404 . S
C288 C291 1.539 1_545 S
C289 C285 1.408 . S
C289 C288 1.404 . S
C289 H301 0.930 1_545 S
C290 C286 1.524 . S
C290 H302 0.956 . S
C290 H303 0.961 . S
C290 H304 0.961 . S
C291 C288 1.539 1_565 S
C291 H305 0.958 . S
C291 H306 0.961 . S
C291 H307 0.960 . S
H292 C276 0.931 . S
H293 C281 0.929 . S
H294 C282 0.960 . S
H295 C282 0.962 . S
H296 C282 0.960 1_565 S
H297 C283 0.961 . S
H298 C283 0.961 . S
H299 C283 0.961 . S
H300 C284 0.931 . S
H301 C289 0.930 1_565 S
H302 C290 0.956 . S
H303 C290 0.961 . S
H304 C290 0.961 . S
H305 C291 0.958 . S
H306 C291 0.961 . S
H307 C291 0.960 . S
C308 C309 1.391 . S
C308 C310 1.394 1_554 S
C308 H324 0.931 1_565 S
C309 C308 1.391 . S
C309 C313 1.376 . S
C310 C308 1.394 1_556 S
C310 C311 1.369 . S
C310 C314 1.531 . S
C311 C310 1.369 . S
C311 C312 1.410 1_556 S
C311 C319 1.503 . S
C312 C311 1.410 1_554 S
C312 C313 1.392 . S
C312 C315 1.511 . S
C313 C309 1.376 . S
C313 C312 1.392 . S
C313 H325 0.929 . S
C314 C310 1.531 . S
C314 H326 0.960 . S
C314 H327 0.962 . S
C314 H328 0.960 . S
C315 C312 1.511 . S
C315 H329 0.961 . S
C315 H330 0.972 . S
C315 H331 0.961 1_554 S
C316 C317 1.370 . S
C316 C318 1.363 . S
C316 H332 0.931 . S
C317 C316 1.370 . S
C317 C321 1.408 . S
C318 C316 1.363 . S
C318 C319 1.370 . S
C318 C322 1.524 1_556 S
C319 C311 1.503 . S
C319 C318 1.370 . S
C319 C320 1.403 . S
C320 C319 1.403 . S
C320 C321 1.404 . S
C320 C323 1.539 . S
C321 C317 1.408 . S
C321 C320 1.404 . S
C321 H333 0.930 . S
C322 C318 1.524 1_554 S
C322 H334 0.956 . S
C322 H335 0.961 . S
C322 H336 0.961 . S
C323 C320 1.539 . S
C323 H337 0.958 . S
C323 H338 0.961 . S
C323 H339 0.960 . S
H324 C308 0.931 1_545 S
H325 C313 0.929 . S
H326 C314 0.960 . S
H327 C314 0.962 . S
H328 C314 0.960 . S
H329 C315 0.961 . S
H330 C315 0.972 . S
H331 C315 0.961 1_556 S
H332 C316 0.931 . S
H333 C321 0.930 . S
H334 C322 0.956 . S
H335 C322 0.961 . S
H336 C322 0.961 . S
H337 C323 0.958 . S
H338 C323 0.961 . S
H339 C323 0.960 . S
C340 C341 1.391 . S
C340 C342 1.394 . S
C340 H356 0.931 . S
C341 C340 1.391 . S
C341 C345 1.376 1_655 S
C342 C340 1.394 . S
C342 C343 1.369 . S
C342 C346 1.531 . S
C343 C342 1.369 . S
C343 C344 1.410 1_655 S
C343 C351 1.503 1_655 S
C344 C343 1.410 1_455 S
C344 C345 1.392 . S
C344 C347 1.511 . S
C345 C341 1.376 1_455 S
C345 C344 1.392 . S
C345 H357 0.929 . S
C346 C342 1.531 . S
C346 H358 0.960 . S
C346 H359 0.962 . S
C346 H360 0.960 . S
C347 C344 1.511 . S
C347 H361 0.961 . S
C347 H362 0.961 . S
C347 H363 0.961 . S
C348 C349 1.370 . S
C348 C350 1.363 . S
C348 H364 0.931 . S
C349 C348 1.370 . S
C349 C353 1.408 . S
C350 C348 1.363 . S
C350 C351 1.370 . S
C350 C354 1.524 . S
C351 C343 1.503 1_455 S
C351 C350 1.370 . S
C351 C352 1.403 . S
C352 C351 1.403 . S
C352 C353 1.404 . S
C352 C355 1.539 . S
C353 C349 1.408 . S
C353 C352 1.404 . S
C353 H365 0.930 . S
C354 C350 1.524 . S
C354 H366 0.956 1_455 S
C354 H367 0.961 . S
C354 H368 0.961 . S
C355 C352 1.539 . S
C355 H369 0.958 1_455 S
C355 H370 0.961 . S
C355 H371 0.960 . S
H356 C340 0.931 . S
H357 C345 0.929 . S
H358 C346 0.960 . S
H359 C346 0.962 . S
H360 C346 0.960 . S
H361 C347 0.961 . S
H362 C347 0.961 . S
H363 C347 0.961 . S
H364 C348 0.931 . S
H365 C353 0.930 . S
H366 C354 0.956 1_655 S
H367 C354 0.961 . S
H368 C354 0.961 . S
H369 C355 0.958 1_655 S
H370 C355 0.961 . S
H371 C355 0.960 . S
C372 C373 1.391 1_565 S
C372 C374 1.394 1_565 S
C372 H388 0.931 . S
C373 C372 1.391 1_545 S
C373 C377 1.376 . S
C374 C372 1.394 1_545 S
C374 C375 1.369 . S
C374 C378 1.531 1_545 S
C375 C374 1.369 . S
C375 C376 1.410 . S
C375 C383 1.503 . S
C376 C375 1.410 . S
C376 C377 1.392 . S
C376 C379 1.511 . S
C377 C373 1.376 . S
C377 C376 1.392 . S
C377 H389 0.929 . S
C378 C374 1.531 1_565 S
C378 H390 0.960 . S
C378 H391 0.962 . S
C378 H392 0.960 . S
C379 C376 1.511 . S
C379 H393 0.961 . S
C379 H394 0.961 . S
C379 H395 0.961 . S
C380 C381 1.370 . S
C380 C382 1.363 . S
C380 H396 0.931 . S
C381 C380 1.370 . S
C381 C385 1.408 . S
C382 C380 1.363 . S
C382 C383 1.370 . S
C382 C386 1.524 1_545 S
C383 C375 1.503 . S
C383 C382 1.370 . S
C383 C384 1.403 . S
C384 C383 1.403 . S
C384 C385 1.404 . S
C384 C387 1.539 . S
C385 C381 1.408 . S
C385 C384 1.404 . S
C385 H397 0.930 . S
C386 C382 1.524 1_565 S
C386 H398 0.956 . S
C386 H399 0.961 1_565 S
C386 H400 0.961 . S
C387 C384 1.539 . S
C387 H401 0.958 . S
C387 H402 0.961 . S
C387 H403 0.960 . S
H388 C372 0.931 . S
H389 C377 0.929 . S
H390 C378 0.960 . S
H391 C378 0.962 . S
H392 C378 0.960 . S
H393 C379 0.961 . S
H394 C379 0.961 . S
H395 C379 0.961 . S
H396 C380 0.931 . S
H397 C385 0.930 . S
H398 C386 0.956 . S
H399 C386 0.961 1_545 S
H400 C386 0.961 . S
H401 C387 0.958 . S
H402 C387 0.961 . S
H403 C387 0.960 . S
C404 C405 1.391 . S
C404 C406 1.377 1_554 S
C404 H420 0.931 . S
C405 C404 1.391 . S
C405 C409 1.376 . S
C406 C404 1.377 1_556 S
C406 C407 1.380 . S
C406 C410 1.536 . S
C407 C406 1.380 . S
C407 C408 1.410 . S
C407 C415 1.503 . S
C408 C407 1.410 . S
C408 C409 1.392 1_556 S
C408 C411 1.511 . S
C409 C405 1.376 . S
C409 C408 1.392 1_554 S
C409 H421 0.929 . S
C410 C406 1.536 . S
C410 H422 0.960 . S
C410 H423 0.962 1_556 S
C410 H424 0.960 . S
C411 C408 1.511 . S
C411 H425 0.961 . S
C411 H426 0.961 . S
C411 H427 0.961 . S
C412 C413 1.370 . S
C412 C414 1.363 . S
C412 H428 0.931 . S
C413 C412 1.370 . S
C413 C417 1.408 . S
C414 C412 1.363 . S
C414 C415 1.370 . S
C414 C418 1.524 1_556 S
C415 C407 1.503 . S
C415 C414 1.370 . S
C415 C416 1.403 . S
C416 C415 1.403 . S
C416 C417 1.404 . S
C416 C419 1.539 . S
C417 C413 1.408 . S
C417 C416 1.404 . S
C417 H429 0.930 . S
C418 C414 1.524 1_554 S
C418 H430 0.956 . S
C418 H431 0.961 . S
C418 H432 0.961 . S
C419 C416 1.539 . S
C419 H433 0.958 . S
C419 H434 0.961 . S
C419 H435 0.960 . S
H420 C404 0.931 . S
H421 C409 0.929 . S
H422 C410 0.960 . S
H423 C410 0.962 1_554 S
H424 C410 0.960 . S
H425 C411 0.961 . S
H426 C411 0.961 . S
H427 C411 0.961 . S
H428 C412 0.931 . S
H429 C417 0.930 . S
H430 C418 0.956 . S
H431 C418 0.961 . S
H432 C418 0.961 . S
H433 C419 0.958 . S
H434 C419 0.961 . S
H435 C419 0.960 . S
C436 C437 1.391 . S
C436 C438 1.394 . S
C436 H452 0.931 1_455 S
C437 C436 1.391 . S
C437 C441 1.376 . S
C438 C436 1.394 . S
C438 C439 1.369 . S
C438 C442 1.531 1_455 S
C439 C438 1.369 . S
C439 C440 1.410 . S
C439 C447 1.503 . S
C440 C439 1.410 . S
C440 C441 1.392 . S
C440 C443 1.511 . S
C441 C437 1.376 . S
C441 C440 1.392 . S
C441 H453 0.929 . S
C442 C438 1.531 1_655 S
C442 H454 0.960 . S
C442 H455 0.962 . S
C442 H456 0.960 . S
C443 C440 1.511 . S
C443 H457 0.961 . S
C443 H458 0.961 . S
C443 H459 0.961 . S
C444 C445 1.370 . S
C444 C446 1.363 . S
C444 H460 0.931 1_455 S
C445 C444 1.370 . S
C445 C449 1.408 . S
C446 C444 1.363 . S
C446 C447 1.370 . S
C446 C450 1.524 1_455 S
C447 C439 1.503 . S
C447 C446 1.370 . S
C447 C448 1.403 . S
C448 C447 1.403 . S
C448 C449 1.404 . S
C448 C451 1.539 . S
C449 C445 1.408 . S
C449 C448 1.404 . S
C449 H461 0.930 . S
C450 C446 1.524 1_655 S
C450 H462 0.956 . S
C450 H463 0.961 1_655 S
C450 H464 0.961 . S
C451 C448 1.539 . S
C451 H465 0.958 . S
C451 H466 0.961 . S
C451 H467 0.960 . S
H452 C436 0.931 1_655 S
H453 C441 0.929 . S
H454 C442 0.960 . S
H455 C442 0.962 . S
H456 C442 0.960 . S
H457 C443 0.961 . S
H458 C443 0.961 . S
H459 C443 0.961 . S
H460 C444 0.931 1_655 S
H461 C449 0.930 . S
H462 C450 0.956 . S
H463 C450 0.961 1_455 S
H464 C450 0.961 . S
H465 C451 0.958 . S
H466 C451 0.961 . S
H467 C451 0.960 . S
C93 C43 1.398 . S
C85 C11 1.370 . S
C117 C26 1.482 . S
C125 C69 1.518 . S
C149 C40 1.402 . S
C157 C71 1.409 . S
C181 C5 1.203 . S
C189 C55 1.393 . S
C221 C57 1.518 . S
C213 C18 1.481 . S
C245 C32 1.366 . S
C253 C83 1.404 . S
C285 C56 1.289 . S
C277 C39 1.260 . S
C309 C4 1.378 1_565 S
C317 C82 1.417 . S
C349 C42 1.403 . S
C341 C19 1.194 . S
C381 C68 1.328 . S
C373 C33 1.158 . S
C413 C70 1.422 . S
C405 C12 1.411 . S
C437 C25 1.386 . S
C445 C54 1.407 . S
