# Generated by pormake.
# Topology ocu, (6,8)-cn, num edge types: 1
# Building blocks:
#     Node 0, Type 0, BuildingBlock: VOLQOD_clean_sbu_1, # of connection points: 6
#     Node 1, Type 0, BuildingBlock: VOLQOD_clean_sbu_1, # of connection points: 6
#     Node 2, Type 0, BuildingBlock: VOLQOD_clean_sbu_1, # of connection points: 6
#     Node 3, Type 0, BuildingBlock: VOLQOD_clean_sbu_1, # of connection points: 6
#     Node 4, Type 0, BuildingBlock: VOLQOD_clean_sbu_1, # of connection points: 6
#     Node 5, Type 0, BuildingBlock: VOLQOD_clean_sbu_1, # of connection points: 6
#     Node 6, Type 0, BuildingBlock: VOLQOD_clean_sbu_1, # of connection points: 6
#     Node 7, Type 0, BuildingBlock: VOLQOD_clean_sbu_1, # of connection points: 6
#     Node 8, Type 1, BuildingBlock: TAGTUT_clean_sbu_1, # of connection points: 8
#     Node 9, Type 1, BuildingBlock: TAGTUT_clean_sbu_1, # of connection points: 8
#     Node 10, Type 1, BuildingBlock: TAGTUT_clean_sbu_1, # of connection points: 8
#     Node 11, Type 1, BuildingBlock: TAGTUT_clean_sbu_1, # of connection points: 8
#     Node 12, Type 1, BuildingBlock: TAGTUT_clean_sbu_1, # of connection points: 8
#     Node 13, Type 1, BuildingBlock: TAGTUT_clean_sbu_1, # of connection points: 8
#     Edge 14, Type (0, 1), BuildingBlock: KIFKEQ_clean_linker_1, # of connection points: 2
#     Edge 15, Type (0, 1), BuildingBlock: KIFKEQ_clean_linker_1, # of connection points: 2
#     Edge 16, Type (0, 1), BuildingBlock: KIFKEQ_clean_linker_1, # of connection points: 2
#     Edge 17, Type (0, 1), BuildingBlock: KIFKEQ_clean_linker_1, # of connection points: 2
#     Edge 18, Type (0, 1), BuildingBlock: KIFKEQ_clean_linker_1, # of connection points: 2
#     Edge 19, Type (0, 1), BuildingBlock: KIFKEQ_clean_linker_1, # of connection points: 2
#     Edge 20, Type (0, 1), BuildingBlock: KIFKEQ_clean_linker_1, # of connection points: 2
#     Edge 21, Type (0, 1), BuildingBlock: KIFKEQ_clean_linker_1, # of connection points: 2
#     Edge 22, Type (0, 1), BuildingBlock: KIFKEQ_clean_linker_1, # of connection points: 2
#     Edge 23, Type (0, 1), BuildingBlock: KIFKEQ_clean_linker_1, # of connection points: 2
#     Edge 24, Type (0, 1), BuildingBlock: KIFKEQ_clean_linker_1, # of connection points: 2
#     Edge 25, Type (0, 1), BuildingBlock: KIFKEQ_clean_linker_1, # of connection points: 2
#     Edge 26, Type (0, 1), BuildingBlock: KIFKEQ_clean_linker_1, # of connection points: 2
#     Edge 27, Type (0, 1), BuildingBlock: KIFKEQ_clean_linker_1, # of connection points: 2
#     Edge 28, Type (0, 1), BuildingBlock: KIFKEQ_clean_linker_1, # of connection points: 2
#     Edge 29, Type (0, 1), BuildingBlock: KIFKEQ_clean_linker_1, # of connection points: 2
#     Edge 30, Type (0, 1), BuildingBlock: KIFKEQ_clean_linker_1, # of connection points: 2
#     Edge 31, Type (0, 1), BuildingBlock: KIFKEQ_clean_linker_1, # of connection points: 2
#     Edge 32, Type (0, 1), BuildingBlock: KIFKEQ_clean_linker_1, # of connection points: 2
#     Edge 33, Type (0, 1), BuildingBlock: KIFKEQ_clean_linker_1, # of connection points: 2
#     Edge 34, Type (0, 1), BuildingBlock: KIFKEQ_clean_linker_1, # of connection points: 2
#     Edge 35, Type (0, 1), BuildingBlock: KIFKEQ_clean_linker_1, # of connection points: 2
#     Edge 36, Type (0, 1), BuildingBlock: KIFKEQ_clean_linker_1, # of connection points: 2
#     Edge 37, Type (0, 1), BuildingBlock: KIFKEQ_clean_linker_1, # of connection points: 2
#     Edge 38, Type (0, 1), BuildingBlock: KIFKEQ_clean_linker_1, # of connection points: 2
#     Edge 39, Type (0, 1), BuildingBlock: KIFKEQ_clean_linker_1, # of connection points: 2
#     Edge 40, Type (0, 1), BuildingBlock: KIFKEQ_clean_linker_1, # of connection points: 2
#     Edge 41, Type (0, 1), BuildingBlock: KIFKEQ_clean_linker_1, # of connection points: 2
#     Edge 42, Type (0, 1), BuildingBlock: KIFKEQ_clean_linker_1, # of connection points: 2
#     Edge 43, Type (0, 1), BuildingBlock: KIFKEQ_clean_linker_1, # of connection points: 2
#     Edge 44, Type (0, 1), BuildingBlock: KIFKEQ_clean_linker_1, # of connection points: 2
#     Edge 45, Type (0, 1), BuildingBlock: KIFKEQ_clean_linker_1, # of connection points: 2
#     Edge 46, Type (0, 1), BuildingBlock: KIFKEQ_clean_linker_1, # of connection points: 2
#     Edge 47, Type (0, 1), BuildingBlock: KIFKEQ_clean_linker_1, # of connection points: 2
#     Edge 48, Type (0, 1), BuildingBlock: KIFKEQ_clean_linker_1, # of connection points: 2
#     Edge 49, Type (0, 1), BuildingBlock: KIFKEQ_clean_linker_1, # of connection points: 2
#     Edge 50, Type (0, 1), BuildingBlock: KIFKEQ_clean_linker_1, # of connection points: 2
#     Edge 51, Type (0, 1), BuildingBlock: KIFKEQ_clean_linker_1, # of connection points: 2
#     Edge 52, Type (0, 1), BuildingBlock: KIFKEQ_clean_linker_1, # of connection points: 2
#     Edge 53, Type (0, 1), BuildingBlock: KIFKEQ_clean_linker_1, # of connection points: 2
#     Edge 54, Type (0, 1), BuildingBlock: KIFKEQ_clean_linker_1, # of connection points: 2
#     Edge 55, Type (0, 1), BuildingBlock: KIFKEQ_clean_linker_1, # of connection points: 2
#     Edge 56, Type (0, 1), BuildingBlock: KIFKEQ_clean_linker_1, # of connection points: 2
#     Edge 57, Type (0, 1), BuildingBlock: KIFKEQ_clean_linker_1, # of connection points: 2
#     Edge 58, Type (0, 1), BuildingBlock: KIFKEQ_clean_linker_1, # of connection points: 2
#     Edge 59, Type (0, 1), BuildingBlock: KIFKEQ_clean_linker_1, # of connection points: 2
#     Edge 60, Type (0, 1), BuildingBlock: KIFKEQ_clean_linker_1, # of connection points: 2
#     Edge 61, Type (0, 1), BuildingBlock: KIFKEQ_clean_linker_1, # of connection points: 2
# Relax obj value: 0.189
# Max RMSD: 0.330
# Mean RMSD: 0.221
data_MOF--net-ocu--node1-VOLQOD_clean_sbu_1--node2-TAGTUT_clean_sbu_1--edge1-KIFKEQ_clean_linker_1
_symmetry_space_group_name_H-M    P1
_symmetry_Int_Tables_number       1
_symmetry_cell_setting            triclinic
loop_
_symmetry_equiv_pos_as_xyz
'x, y, z'
_cell_length_a     39.201153
_cell_length_b     37.251079
_cell_length_c     40.446485
_cell_angle_alpha  91.732497
_cell_angle_beta   91.884115
_cell_angle_gamma 100.17096
loop_
_atom_site_label
_atom_site_type_symbol
_atom_site_fract_x
_atom_site_fract_y
_atom_site_fract_z
_atom_type_partial_charge
O0 O 0.32749 0.30168 0.2578 0.0
Zn1 Zn 0.29161 0.26675 0.28229 0.0
O2 O 0.25018 0.24729 0.2536 0.0
Zn3 Zn 0.20824 0.25701 0.27349 0.0
Zn4 Zn 0.25444 0.271 0.21173 0.0
Zn5 Zn 0.24516 0.19461 0.2454 0.0
O6 O 0.17561 0.21133 0.28285 0.0
O7 O 0.19959 0.16684 0.2611 0.0
O8 O 0.27791 0.2939 0.32322 0.0
O9 O 0.22032 0.28379 0.31651 0.0
O10 O 0.18258 0.28776 0.24552 0.0
O11 O 0.21427 0.29545 0.20101 0.0
O12 O 0.26209 0.23626 0.17507 0.0
O13 O 0.31437 0.22498 0.2971 0.0
O14 O 0.25406 0.18213 0.19782 0.0
O15 O 0.28194 0.17636 0.27168 0.0
C16 C 0.32391 0.31746 0.23071 0.0
C17 C 0.17514 0.17763 0.27649 0.0
C18 C 0.1882 0.30082 0.21715 0.0
C19 C 0.24797 0.29704 0.33311 0.0
C20 C 0.26171 0.20203 0.1731 0.0
C21 C 0.30756 0.19067 0.29063 0.0
O22 O 0.2964 0.30957 0.21254 0.0
O23 O 0.77518 0.20012 0.20549 0.0
Zn24 Zn 0.79152 0.23429 0.24529 0.0
O25 O 0.75227 0.25086 0.26697 0.0
Zn26 Zn 0.75549 0.30339 0.26339 0.0
Zn27 Zn 0.70889 0.22721 0.24566 0.0
Zn28 Zn 0.75178 0.23865 0.31348 0.0
O29 O 0.76084 0.32882 0.30796 0.0
O30 O 0.76129 0.28414 0.34291 0.0
O31 O 0.82474 0.27699 0.22927 0.0
O32 O 0.79892 0.32407 0.24107 0.0
O33 O 0.71469 0.31676 0.23774 0.0
O34 O 0.6816 0.26282 0.2264 0.0
O35 O 0.67852 0.19675 0.2762 0.0
O36 O 0.81865 0.20854 0.27753 0.0
O37 O 0.70643 0.20771 0.32505 0.0
O38 O 0.78972 0.21022 0.32377 0.0
C39 C 0.74442 0.18625 0.19542 0.0
C40 C 0.76396 0.31796 0.33723 0.0
C41 C 0.68715 0.29739 0.22485 0.0
C42 C 0.82414 0.31104 0.22951 0.0
C43 C 0.68033 0.19222 0.30713 0.0
C44 C 0.81445 0.2009 0.30779 0.0
O45 O 0.71795 0.19428 0.20911 0.0
O46 O 0.71604 0.66266 0.25587 0.0
Zn47 Zn 0.73777 0.70841 0.28269 0.0
O48 O 0.74711 0.7501 0.25346 0.0
Zn49 Zn 0.79705 0.76562 0.24864 0.0
Zn50 Zn 0.72381 0.73753 0.21079 0.0
Zn51 Zn 0.7282 0.79051 0.27099 0.0
O52 O 0.81385 0.81673 0.26854 0.0
O53 O 0.76538 0.82933 0.28918 0.0
O54 O 0.7827 0.69707 0.30164 0.0
O55 O 0.82301 0.73335 0.27496 0.0
O56 O 0.81035 0.75824 0.20115 0.0
O57 O 0.75914 0.73622 0.17646 0.0
O58 O 0.69026 0.77046 0.19753 0.0
O59 O 0.70635 0.71861 0.32006 0.0
O60 O 0.69999 0.81272 0.23822 0.0
O61 O 0.698 0.77444 0.3079 0.0
C62 C 0.70061 0.65927 0.22747 0.0
C63 C 0.79786 0.83736 0.28568 0.0
C64 C 0.79202 0.7444 0.17572 0.0
C65 C 0.81436 0.70808 0.29517 0.0
C66 C 0.6852 0.80037 0.21083 0.0
C67 C 0.69218 0.74645 0.3254 0.0
O68 O 0.69932 0.6864 0.20952 0.0
O69 O 0.27609 0.76103 0.31506 0.0
Zn70 Zn 0.26435 0.73106 0.27204 0.0
O71 O 0.2514 0.76199 0.23675 0.0
Zn72 Zn 0.2028 0.74884 0.22255 0.0
Zn73 Zn 0.26038 0.81317 0.25086 0.0
Zn74 Zn 0.27843 0.75577 0.19929 0.0
O75 O 0.19612 0.73415 0.17394 0.0
O76 O 0.25005 0.73051 0.16102 0.0
O77 O 0.22361 0.69184 0.27909 0.0
O78 O 0.18116 0.70511 0.2463 0.0
O79 O 0.17619 0.78749 0.23701 0.0
O80 O 0.21722 0.83504 0.25079 0.0
O81 O 0.29846 0.84284 0.22574 0.0
O82 O 0.30499 0.70601 0.26071 0.0
O83 O 0.30634 0.80214 0.18683 0.0
O84 O 0.31326 0.72581 0.20993 0.0
C85 C 0.27885 0.79525 0.32111 0.0
C86 C 0.21773 0.72502 0.15383 0.0
C87 C 0.18535 0.82034 0.24784 0.0
C88 C 0.19246 0.68514 0.26747 0.0
C89 C 0.31379 0.8339 0.20031 0.0
C90 C 0.32159 0.70795 0.23412 0.0
O91 O 0.27458 0.81711 0.29846 0.0
O92 O 0.27632 0.70159 0.70702 0.0
Zn93 Zn 0.29349 0.73611 0.74664 0.0
O94 O 0.25451 0.75352 0.7682 0.0
Zn95 Zn 0.25703 0.80553 0.76272 0.0
Zn96 Zn 0.21069 0.72918 0.74805 0.0
Zn97 Zn 0.25529 0.74391 0.8153 0.0
O98 O 0.26241 0.8332 0.80612 0.0
O99 O 0.261 0.79038 0.84317 0.0
O100 O 0.32674 0.77883 0.72969 0.0
O101 O 0.29914 0.82519 0.73865 0.0
O102 O 0.21592 0.81758 0.7374 0.0
O103 O 0.18182 0.76376 0.72908 0.0
O104 O 0.18228 0.69847 0.77966 0.0
O105 O 0.32101 0.71102 0.77952 0.0
O106 O 0.21182 0.71017 0.82771 0.0
O107 O 0.29641 0.72047 0.82704 0.0
C108 C 0.24537 0.68809 0.69716 0.0
C109 C 0.26382 0.8238 0.83601 0.0
C110 C 0.18774 0.79816 0.72609 0.0
C111 C 0.32487 0.81252 0.72784 0.0
C112 C 0.18549 0.69388 0.8105 0.0
C113 C 0.31968 0.70849 0.81085 0.0
O114 O 0.21919 0.69637 0.71119 0.0
O115 O 0.22058 0.17296 0.74685 0.0
Zn116 Zn 0.24366 0.21599 0.77717 0.0
O117 O 0.25609 0.26059 0.75126 0.0
Zn118 Zn 0.30635 0.27668 0.75064 0.0
Zn119 Zn 0.23828 0.25271 0.70586 0.0
Zn120 Zn 0.23561 0.29943 0.77019 0.0
O121 O 0.32144 0.32768 0.7711 0.0
O122 O 0.27117 0.34108 0.78618 0.0
O123 O 0.28776 0.20161 0.79594 0.0
O124 O 0.32979 0.24365 0.77788 0.0
O125 O 0.32436 0.27036 0.70497 0.0
O126 O 0.27623 0.25669 0.67346 0.0
O127 O 0.2029 0.28394 0.69348 0.0
O128 O 0.21261 0.22455 0.81581 0.0
O129 O 0.2027 0.31768 0.73948 0.0
O130 O 0.20939 0.28298 0.80931 0.0
C131 C 0.21238 0.17236 0.71604 0.0
C132 C 0.30393 0.34919 0.78515 0.0
C133 C 0.30912 0.26162 0.67682 0.0
C134 C 0.31987 0.21504 0.79386 0.0
C135 C 0.19167 0.30878 0.71001 0.0
C136 C 0.202 0.25372 0.8248 0.0
O137 O 0.21707 0.20097 0.69931 0.0
O138 O 0.77653 0.26994 0.80473 0.0
Zn139 Zn 0.76017 0.24088 0.76212 0.0
O140 O 0.74212 0.27232 0.72997 0.0
Zn141 Zn 0.6925 0.2577 0.72168 0.0
Zn142 Zn 0.75095 0.32278 0.74561 0.0
Zn143 Zn 0.76511 0.26957 0.68902 0.0
O144 O 0.68176 0.23926 0.67475 0.0
O145 O 0.73311 0.24688 0.65186 0.0
O146 O 0.72161 0.20116 0.77412 0.0
O147 O 0.67471 0.21577 0.74939 0.0
O148 O 0.66611 0.29695 0.73585 0.0
O149 O 0.70809 0.34437 0.74688 0.0
O150 O 0.78812 0.35377 0.721 0.0
O151 O 0.79919 0.21707 0.74423 0.0
O152 O 0.79325 0.31669 0.67807 0.0
O153 O 0.80043 0.23851 0.69361 0.0
C154 C 0.77627 0.30319 0.81302 0.0
C155 C 0.70054 0.23548 0.6502 0.0
C156 C 0.67607 0.33016 0.74533 0.0
C157 C 0.68898 0.19545 0.76807 0.0
C158 C 0.80173 0.34702 0.69396 0.0
C159 C 0.81194 0.21985 0.71567 0.0
O160 O 0.76706 0.3252 0.79258 0.0
O161 O 0.82878 0.80138 0.75678 0.0
Zn162 Zn 0.79209 0.76808 0.7817 0.0
O163 O 0.75192 0.74609 0.75209 0.0
Zn164 Zn 0.7092 0.75664 0.76968 0.0
Zn165 Zn 0.75713 0.76641 0.70867 0.0
Zn166 Zn 0.74771 0.6932 0.74694 0.0
O167 O 0.67587 0.71152 0.77964 0.0
O168 O 0.70278 0.66641 0.76452 0.0
O169 O 0.77682 0.79643 0.82107 0.0
O170 O 0.71947 0.78444 0.81247 0.0
O171 O 0.68574 0.78756 0.73989 0.0
O172 O 0.72069 0.79631 0.69771 0.0
O173 O 0.75882 0.72849 0.67303 0.0
O174 O 0.81581 0.72775 0.79873 0.0
O175 O 0.75516 0.67714 0.69996 0.0
O176 O 0.78578 0.67767 0.77344 0.0
C177 C 0.82917 0.80898 0.72627 0.0
C178 C 0.67695 0.67765 0.77699 0.0
C179 C 0.6938 0.80194 0.71246 0.0
C180 C 0.7463 0.7989 0.82972 0.0
C181 C 0.75964 0.69454 0.67336 0.0
C182 C 0.81071 0.69338 0.79255 0.0
O183 O 0.80345 0.79749 0.70652 0.0
C184 C 0.94351 0.09072 0.56342 0.0
C185 C 0.96006 0.07793 0.45723 0.0
C186 C 0.94055 0.93716 0.47463 0.0
Mg187 Mg 0.00646 0.08167 0.52069 0.0
O188 O 0.9873 0.03284 0.52856 0.0
Mg189 Mg 0.93769 0.0147 0.51478 0.0
Mg190 Mg 0.00777 0.99308 0.50772 0.0
O191 O 0.02822 0.95365 0.48647 0.0
Mg192 Mg 0.00911 0.90415 0.49031 0.0
Mg193 Mg 0.07776 0.97122 0.50017 0.0
C194 C 0.07506 0.04905 0.53921 0.0
C195 C 0.05434 0.02642 0.44704 0.0
O196 O 0.92611 0.06125 0.54963 0.0
O197 O 0.97491 0.1034 0.55627 0.0
O198 O 0.94042 0.05175 0.47061 0.0
O199 O 0.98901 0.09324 0.47105 0.0
O200 O 0.06027 0.077 0.53518 0.0
O201 O 0.0593 0.01637 0.53241 0.0
C202 C 0.96148 0.96053 0.56886 0.0
O203 O 0.98959 0.96006 0.55357 0.0
O204 O 0.93859 0.97853 0.55848 0.0
O205 O 0.08975 0.926 0.46344 0.0
O206 O 0.04032 0.88569 0.45296 0.0
O207 O 0.07363 0.93293 0.54401 0.0
C208 C 0.07198 0.89844 0.44702 0.0
O209 O 0.02589 0.88987 0.53872 0.0
O210 O 0.95552 0.90915 0.47675 0.0
C211 C 0.05334 0.90545 0.55489 0.0
O212 O 0.95627 0.96941 0.4832 0.0
O213 O 0.02603 0.02631 0.46209 0.0
O214 O 0.07736 0.00841 0.45707 0.0
C215 C 0.42515 0.10512 0.0247 0.0
C216 C 0.47234 0.09342 0.93153 0.0
C217 C 0.45993 0.9511 0.96161 0.0
Mg218 Mg 0.50086 0.10412 0.0042 0.0
O219 O 0.48616 0.05391 0.0091 0.0
Mg220 Mg 0.44226 0.02926 0.98544 0.0
Mg221 Mg 0.51574 0.01714 -0.00196 0.0
O222 O 0.54553 0.98075 0.98662 0.0
Mg223 Mg 0.53047 0.93086 0.99082 0.0
Mg224 Mg 0.58916 0.00432 0.01129 0.0
C225 C 0.57112 0.08255 0.03548 0.0
C226 C 0.57449 0.05234 0.94865 0.0
O227 O 0.41637 0.07391 0.00954 0.0
O228 O 0.45685 0.12166 0.02749 0.0
O229 O 0.4528 0.06421 0.94008 0.0
O230 O 0.49461 0.11245 0.95179 0.0
O231 O 0.55343 0.10735 0.02751 0.0
O232 O 0.55909 0.04836 0.03073 0.0
C233 C 0.45809 0.98446 0.04951 0.0
O234 O 0.48986 0.98664 0.04178 0.0
O235 O 0.43604 -0.00263 0.0315 0.0
O236 O 0.61554 0.95925 0.9867 0.0
O237 O 0.57389 0.91253 0.9687 0.0
O238 O 0.57754 0.96785 0.05647 0.0
C239 C 0.60586 0.92799 0.97166 0.0
O240 O 0.53474 0.92133 0.04233 0.0
O241 O 0.47827 0.92673 0.96874 0.0
C242 C 0.55681 0.93875 0.06356 0.0
O243 O 0.47186 0.9854 0.96569 0.0
O244 O 0.54218 0.04816 0.95502 0.0
O245 O 0.59633 0.03871 0.96643 0.0
C246 C 0.92111 0.59221 0.03527 0.0
C247 C 0.94187 0.55575 0.93744 0.0
C248 C 0.93146 0.42224 0.98638 0.0
Mg249 Mg 0.98616 0.57586 0.00157 0.0
O250 O 0.9712 0.52978 0.01794 0.0
Mg251 Mg 0.92234 0.50627 0.00471 0.0
Mg252 Mg 0.99582 0.48907 0.00543 0.0
O253 O 0.01992 0.44821 0.99216 0.0
Mg254 Mg 0.00443 0.40167 0.00805 0.0
Mg255 Mg 0.06885 0.47168 0.00421 0.0
C256 C 0.06012 0.55585 0.02048 0.0
C257 C 0.04191 0.51257 0.94175 0.0
O258 O 0.90576 0.55947 0.02705 0.0
O259 O 0.95302 0.60402 0.02962 0.0
O260 O 0.92272 0.53118 0.95322 0.0
O261 O 0.96906 0.57505 0.95094 0.0
O262 O 0.04104 0.57911 0.01223 0.0
O263 O 0.04753 0.5221 0.02501 0.0
C264 C 0.94935 0.46805 0.06947 0.0
O265 O 0.97836 0.46635 0.05601 0.0
O266 O 0.92546 0.48188 0.05487 0.0
O267 O 0.08485 0.4185 0.98115 0.0
O268 O 0.0386 0.3731 0.98132 0.0
O269 O 0.06755 0.44669 0.05543 0.0
C270 C 0.07012 0.38521 0.97431 0.0
O271 O 0.02073 0.40343 0.05902 0.0
O272 O 0.94958 0.39804 -0.00543 0.0
C273 C 0.04813 0.42306 0.07197 0.0
O274 O 0.94482 0.45627 0.9851 0.0
O275 O 0.01315 0.51298 0.95596 0.0
O276 O 0.06606 0.49753 0.95438 0.0
C277 C 0.44702 0.59501 0.07099 0.0
C278 C 0.46472 0.58874 0.96384 0.0
C279 C 0.44015 0.44523 0.97612 0.0
Mg280 Mg 0.50977 0.58703 0.02797 0.0
O281 O 0.48874 0.53809 0.03243 0.0
Mg282 Mg 0.43912 0.52228 0.01788 0.0
Mg283 Mg 0.50803 0.49807 0.01088 0.0
O284 O 0.52741 0.45819 0.98908 0.0
Mg285 Mg 0.50707 0.40872 0.992 0.0
Mg286 Mg 0.57692 0.47445 0.00363 0.0
C287 C 0.57639 0.55086 0.04496 0.0
C288 C 0.55589 0.53177 0.95138 0.0
O289 O 0.4286 0.5677 0.05477 0.0
O290 O 0.4789 0.60682 0.06506 0.0
O291 O 0.44392 0.56171 0.97481 0.0
O292 O 0.49312 0.60264 0.97946 0.0
O293 O 0.56297 0.5799 0.04238 0.0
O294 O 0.55942 0.51915 0.03647 0.0
C295 C 0.46024 0.46514 0.07065 0.0
O296 O 0.48848 0.46412 0.0558 0.0
O297 O 0.43822 0.48427 0.06044 0.0
O298 O 0.58776 0.43047 0.96598 0.0
O299 O 0.53841 0.39023 0.95437 0.0
O300 O 0.57139 0.43483 0.04644 0.0
C301 C 0.57006 0.40352 0.94881 0.0
O302 O 0.52284 0.39294 0.04051 0.0
O303 O 0.45407 0.41643 0.97793 0.0
C304 C 0.55051 0.40755 0.05689 0.0
O305 O 0.45666 0.47694 0.98538 0.0
O306 O 0.5275 0.5321 0.96614 0.0
O307 O 0.5782 0.51292 0.9614 0.0
C308 C 0.9246 0.59824 0.52673 0.0
C309 C 0.96984 0.58865 0.43231 0.0
C310 C 0.96356 0.4465 0.46309 0.0
Mg311 Mg 0.00028 0.60084 0.50433 0.0
O312 O 0.9879 0.5503 0.50895 0.0
Mg313 Mg 0.94382 0.52365 0.48709 0.0
Mg314 Mg 0.01865 0.51479 0.49745 0.0
O315 O 0.04928 0.47919 0.48612 0.0
Mg316 Mg 0.0347 0.42977 0.49404 0.0
Mg317 Mg 0.09239 0.5048 0.51063 0.0
C318 C 0.0724 0.58274 0.53432 0.0
C319 C 0.07545 0.54957 0.44649 0.0
O320 O 0.91677 0.5668 0.51187 0.0
O321 O 0.95581 0.61622 0.52868 0.0
O322 O 0.95157 0.55881 0.44127 0.0
O323 O 0.99214 0.60847 0.45205 0.0
O324 O 0.05348 0.60668 0.52703 0.0
O325 O 0.06163 0.54841 0.52885 0.0
C326 C 0.96414 0.48022 0.55048 0.0
O327 O 0.99562 0.48422 0.54179 0.0
O328 O 0.94045 0.49199 0.53371 0.0
O329 O 0.11963 0.45934 0.48815 0.0
O330 O 0.0787 0.41044 0.47394 0.0
O331 O 0.08153 0.47092 0.55717 0.0
C332 C 0.11044 0.42683 0.47547 0.0
O333 O 0.03795 0.42438 0.5464 0.0
O334 O 0.9826 0.42308 0.47115 0.0
C335 C 0.06049 0.44309 0.56643 0.0
O336 O 0.97457 0.48105 0.46654 0.0
O337 O 0.04326 0.54532 0.45343 0.0
O338 O 0.09791 0.53699 0.46443 0.0
C339 C 0.42557 0.09663 0.53742 0.0
C340 C 0.43498 0.05301 0.43906 0.0
C341 C 0.42785 0.92373 0.49119 0.0
Mg342 Mg 0.48597 0.07585 0.49781 0.0
O343 O 0.47222 0.0315 0.51795 0.0
Mg344 Mg 0.42215 0.00852 0.51024 0.0
Mg345 Mg 0.49453 0.98979 0.50322 0.0
O346 O 0.51648 0.94787 0.48858 0.0
Mg347 Mg 0.50178 0.90343 0.509 0.0
Mg348 Mg 0.56623 0.97111 0.4977 0.0
C349 C 0.56043 0.05569 0.51264 0.0
C350 C 0.53551 0.01096 0.43621 0.0
O351 O 0.40949 0.06332 0.53357 0.0
O352 O 0.45591 0.10718 0.52651 0.0
O353 O 0.41666 0.03134 0.45816 0.0
O354 O 0.4644 0.07111 0.44867 0.0
O355 O 0.5415 0.0792 0.50468 0.0
O356 O 0.54744 0.02245 0.5186 0.0
C357 C 0.45565 0.96987 0.57129 0.0
O358 O 0.48221 0.96762 0.55423 0.0
O359 O 0.43055 0.98484 0.5606 0.0
O360 O 0.57953 0.91653 0.47575 0.0
O361 O 0.53336 0.87206 0.48185 0.0
O362 O 0.56914 0.9486 0.54977 0.0
C363 C 0.56406 0.88305 0.47193 0.0
O364 O 0.52168 0.90831 0.55916 0.0
O365 O 0.44624 0.89969 0.49915 0.0
C366 C 0.55081 0.92708 0.56895 0.0
O367 O 0.44137 0.95745 0.48795 0.0
O368 O 0.50802 0.01243 0.4523 0.0
O369 O 0.55997 -0.00469 0.44735 0.0
H370 H 0.17867 0.10746 0.29127 0.0
H371 H 0.11188 0.18781 0.29759 0.0
H372 H 0.14188 0.06901 0.32786 0.0
H373 H 0.07371 0.14841 0.33303 0.0
H374 H 0.05252 0.09811 0.4361 0.0
H375 H 0.07487 0.13203 0.38829 0.0
H376 H 0.09116 0.03133 0.34024 0.0
H377 H 0.07112 -0.00161 0.38901 0.0
C378 C 0.15539 0.11632 0.29953 0.0
C379 C 0.14843 0.15084 0.29182 0.0
C380 C 0.13405 0.09415 0.32056 0.0
C381 C 0.10483 0.10566 0.33394 0.0
C382 C 0.09641 0.13899 0.324 0.0
C383 C 0.11811 0.16144 0.30338 0.0
C384 C 0.06032 0.08339 0.41496 0.0
C385 C 0.06064 0.04592 0.41619 0.0
C386 C 0.07301 0.10268 0.38742 0.0
C387 C 0.08557 0.08459 0.36044 0.0
C388 C 0.08289 0.04646 0.36086 0.0
C389 C 0.07109 0.02747 0.38864 0.0
H390 H 0.88164 0.19714 0.2929 0.0
H391 H 0.8025 0.16036 0.36226 0.0
H392 H 0.92222 0.16586 0.32368 0.0
H393 H 0.84259 0.12894 0.39229 0.0
H394 H 0.98226 0.14422 0.42918 0.0
H395 H 0.94985 0.17293 0.3876 0.0
H396 H 0.87386 0.07397 0.37616 0.0
H397 H 0.90572 0.04535 0.41708 0.0
C398 C 0.87285 0.18216 0.31447 0.0
C399 C 0.83887 0.18112 0.32516 0.0
C400 C 0.89609 0.16451 0.33209 0.0
C401 C 0.88537 0.14488 0.36014 0.0
C402 C 0.85136 0.1436 0.37052 0.0
C403 C 0.82847 0.16171 0.3534 0.0
C404 C 0.95921 0.12828 0.41707 0.0
C405 C 0.94623 0.09274 0.42698 0.0
C406 C 0.94071 0.14471 0.3933 0.0
C407 C 0.90909 0.12578 0.37926 0.0
C408 C 0.89789 0.08929 0.38703 0.0
C409 C 0.91628 0.07293 0.41049 0.0
H410 H 0.77199 0.88784 0.32317 0.0
H411 H 0.86795 0.85282 0.29871 0.0
H412 H 0.80093 0.92156 0.37201 0.0
H413 H 0.89657 0.88706 0.34739 0.0
H414 H 0.92027 0.98781 0.43504 0.0
H415 H 0.88221 0.97419 0.38545 0.0
H416 H 0.85317 0.86295 0.41468 0.0
H417 H 0.89116 0.8763 0.46426 0.0
C418 C 0.7995 0.88839 0.32746 0.0
C419 C 0.81754 0.86693 0.30747 0.0
C420 C 0.8159 0.90775 0.35537 0.0
C421 C 0.85057 0.90628 0.36326 0.0
C422 C 0.86964 0.88831 0.34148 0.0
C423 C 0.85329 0.86885 0.31362 0.0
C424 C 0.90437 0.96099 0.43185 0.0
C425 C 0.90881 0.93301 0.45337 0.0
C426 C 0.88295 0.9532 0.40331 0.0
C427 C 0.86547 0.91754 0.39644 0.0
C428 C 0.86674 0.89064 0.41973 0.0
C429 C 0.88826 0.89832 0.44808 0.0
H430 H 0.12141 0.7881 0.26713 0.0
H431 H 0.19337 0.89057 0.2731 0.0
H432 H 0.09204 0.80738 0.3144 0.0
H433 H 0.16283 0.91067 0.31969 0.0
H434 H 0.13978 0.91023 0.42919 0.0
H435 H 0.16207 0.89506 0.37606 0.0
H436 H 0.05868 0.84417 0.34181 0.0
H437 H 0.03679 0.85779 0.39533 0.0
C438 C 0.13011 0.81542 0.27759 0.0
C439 C 0.1603 0.83744 0.26672 0.0
C440 C 0.11324 0.82649 0.30496 0.0
C441 C 0.12577 0.86013 0.32167 0.0
C442 C 0.15332 0.88397 0.30823 0.0
C443 C 0.17048 0.87271 0.2811 0.0
C444 C 0.12193 0.89532 0.41048 0.0
C445 C 0.08657 0.88502 0.41667 0.0
C446 C 0.13457 0.88714 0.37976 0.0
C447 C 0.11208 0.86893 0.3543 0.0
C448 C 0.07684 0.85798 0.36079 0.0
C449 C 0.0643 0.8657 0.39164 0.0
H450 H 0.19876 0.86581 0.70052 0.0
H451 H 0.12001 0.76975 0.70846 0.0
H452 H 0.16029 0.89196 0.66412 0.0
H453 H 0.08049 0.7968 0.67311 0.0
H454 H 0.04511 0.83391 0.57056 0.0
H455 H 0.07297 0.80874 0.61703 0.0
H456 H 0.11123 0.91811 0.65687 0.0
H457 H 0.08515 0.94292 0.60927 0.0
C458 C 0.17287 0.8506 0.69509 0.0
C459 C 0.16257 0.81557 0.70716 0.0
C460 C 0.15056 0.86577 0.67435 0.0
C461 C 0.11709 0.84657 0.66553 0.0
C462 C 0.10624 0.81214 0.67885 0.0
C463 C 0.12883 0.7967 0.69927 0.0
C464 C 0.05897 0.85242 0.58963 0.0
C465 C 0.06363 0.89029 0.5861 0.0
C466 C 0.07486 0.83806 0.61641 0.0
C467 C 0.09509 0.86138 0.64048 0.0
C468 C 0.09692 0.8993 0.63828 0.0
C469 C 0.08176 0.91358 0.61116 0.0
H470 H 0.15266 0.12222 0.71999 0.0
H471 H 0.24752 0.14729 0.6676 0.0
H472 H 0.12761 0.0792 0.67475 0.0
H473 H 0.2226 0.1048 0.62249 0.0
H474 H 0.09182 0.00409 0.5862 0.0
H475 H 0.1331 0.02171 0.63302 0.0
H476 H 0.17032 0.12402 0.58778 0.0
H477 H 0.12836 0.10696 0.5416 0.0
C478 C 0.16867 0.11704 0.69967 0.0
C479 C 0.2018 0.13789 0.697 0.0
C480 C 0.15443 0.09256 0.67379 0.0
C481 C 0.17319 0.08915 0.64509 0.0
C482 C 0.20768 0.10708 0.64431 0.0
C483 C 0.22189 0.13124 0.67011 0.0
C484 C 0.10984 0.02967 0.58561 0.0
C485 C 0.10691 0.05431 0.56039 0.0
C486 C 0.13319 0.03979 0.61252 0.0
C487 C 0.15462 0.07419 0.61398 0.0
C488 C 0.15419 0.09717 0.58707 0.0
C489 C 0.13025 0.08748 0.56064 0.0
H490 H 0.8697 0.24865 0.68533 0.0
H491 H 0.8156 0.14785 0.72257 0.0
H492 H 0.90608 0.21531 0.65346 0.0
H493 H 0.85257 0.11391 0.69072 0.0
H494 H 0.87731 0.07377 0.58495 0.0
H495 H 0.85194 0.10279 0.63039 0.0
H496 H 0.94913 0.17653 0.65007 0.0
H497 H 0.97438 0.14814 0.60411 0.0
C498 C 0.86663 0.21934 0.68765 0.0
C499 C 0.83993 0.20067 0.7062 0.0
C500 C 0.88748 0.2002 0.66941 0.0
C501 C 0.88185 0.16191 0.66915 0.0
C502 C 0.8571 0.14342 0.69009 0.0
C503 C 0.83631 0.16275 0.70866 0.0
C504 C 0.89331 0.09619 0.59891 0.0
C505 C 0.92775 0.10895 0.59052 0.0
C506 C 0.8789 0.11246 0.62532 0.0
C507 C 0.8986 0.1418 0.644 0.0
C508 C 0.93322 0.15412 0.63601 0.0
C509 C 0.94761 0.13794 0.60954 0.0
H510 H 0.85751 0.79054 0.67017 0.0
H511 H 0.87103 0.87234 0.74961 0.0
H512 H 0.90186 0.82792 0.63945 0.0
H513 H 0.91573 0.91052 0.71844 0.0
H514 H 0.92403 0.9786 0.61973 0.0
H515 H 0.90386 0.94168 0.66601 0.0
H516 H 0.96316 0.86039 0.63434 0.0
H517 H 0.98342 0.89769 0.58755 0.0
C518 C 0.87071 0.81628 0.68136 0.0
C519 C 0.86064 0.82895 0.71193 0.0
C520 C 0.8964 0.83752 0.66393 0.0
C521 C 0.91218 0.87224 0.67645 0.0
C522 C 0.90386 0.88386 0.7082 0.0
C523 C 0.87842 0.86213 0.72603 0.0
C524 C 0.93332 0.95316 0.62295 0.0
C525 C 0.95469 0.94058 0.59962 0.0
C526 C 0.92215 0.93224 0.6498 0.0
C527 C 0.93177 0.89805 0.65373 0.0
C528 C 0.95523 0.88662 0.63178 0.0
C529 C 0.96682 0.9079 0.60502 0.0
H530 H 0.29228 0.23881 0.12114 0.0
H531 H 0.26677 0.13064 0.15953 0.0
H532 H 0.3288 0.21621 0.08068 0.0
H533 H 0.30337 0.10823 0.119 0.0
H534 H 0.35685 0.07433 0.02886 0.0
H535 H 0.3123 0.09773 0.05903 0.0
H536 H 0.38586 0.19498 0.08796 0.0
H537 H 0.43071 0.17172 0.05758 0.0
C538 C 0.29374 0.21003 0.1205 0.0
C539 C 0.27682 0.18661 0.1439 0.0
C540 C 0.31497 0.19721 0.09747 0.0
C541 C 0.31939 0.16063 0.09703 0.0
C542 C 0.30043 0.13659 0.1187 0.0
C543 C 0.27944 0.14945 0.14196 0.0
C544 C 0.3636 0.1009 0.04135 0.0
C545 C 0.39756 0.12104 0.04095 0.0
C546 C 0.33799 0.1142 0.05873 0.0
C547 C 0.34558 0.14809 0.07593 0.0
C548 C 0.37914 0.16889 0.07463 0.0
C549 C 0.40491 0.15546 0.05741 0.0
H550 H 0.84241 0.38422 0.24182 0.0
H551 H 0.87041 0.29445 0.18495 0.0
H552 H 0.88356 0.42709 0.21215 0.0
H553 H 0.91068 0.33742 0.15442 0.0
H554 H 0.98288 0.42045 0.10312 0.0
H555 H 0.96194 0.38527 0.15063 0.0
H556 H 0.87662 0.44433 0.15607 0.0
H557 H 0.89774 0.47937 0.10941 0.0
C558 C 0.85763 0.37365 0.22318 0.0
C559 C 0.85262 0.33612 0.21506 0.0
C560 C 0.88124 0.39817 0.20628 0.0
C561 C 0.89988 0.3857 0.18055 0.0
C562 C 0.89689 0.34791 0.17426 0.0
C563 C 0.87356 0.32329 0.19151 0.0
C564 C 0.96015 0.42632 0.11489 0.0
C565 C 0.94149 0.45187 0.10184 0.0
C566 C 0.9481 0.40617 0.14208 0.0
C567 C 0.91738 0.41167 0.15685 0.0
C568 C 0.90051 0.43949 0.14551 0.0
C569 C 0.91245 0.45936 0.11839 0.0
H570 H 0.69894 0.87145 0.19584 0.0
H571 H 0.61821 0.77635 0.19064 0.0
H572 H 0.6608 0.90617 0.16737 0.0
H573 H 0.57834 0.81163 0.16507 0.0
H574 H 0.539 0.86671 0.07546 0.0
H575 H 0.56565 0.83392 0.11628 0.0
H576 H 0.61556 0.93627 0.16405 0.0
H577 H 0.59097 0.96915 0.12075 0.0
C578 C 0.67265 0.85828 0.18896 0.0
C579 C 0.66153 0.82126 0.19459 0.0
C580 C 0.65043 0.87828 0.17312 0.0
C581 C 0.61612 0.86196 0.16362 0.0
C582 C 0.6047 0.8251 0.17097 0.0
C583 C 0.62742 0.80478 0.18572 0.0
C584 C 0.55501 0.88235 0.09509 0.0
C585 C 0.56364 0.92053 0.09436 0.0
C586 C 0.57035 0.86338 0.11887 0.0
C587 C 0.59391 0.88219 0.14319 0.0
C588 C 0.59891 0.92065 0.14488 0.0
C589 C 0.58437 0.93964 0.12037 0.0
H590 H 0.24662 0.671 0.12564 0.0
H591 H 0.1587 0.72606 0.11666 0.0
H592 H 0.21915 0.62454 0.08428 0.0
H593 H 0.13203 0.68038 0.07449 0.0
H594 H 0.0998 0.60914 0.98804 0.0
H595 H 0.1492 0.65123 0.01316 0.0
H596 H 0.15278 0.5794 0.09439 0.0
H597 H 0.10263 0.53741 0.06961 0.0
C598 C 0.22201 0.67388 0.11398 0.0
C599 C 0.20464 0.70206 0.1243 0.0
C600 C 0.20639 0.64725 0.09049 0.0
C601 C 0.17377 0.6492 0.0763 0.0
C602 C 0.15748 0.67869 0.08495 0.0
C603 C 0.17261 0.7047 0.10906 0.0
C604 C 0.11212 0.60153 0.01053 0.0
C605 C 0.097 0.57065 0.02748 0.0
C606 C 0.14033 0.6256 0.02479 0.0
C607 C 0.1541 0.61868 0.05583 0.0
C608 C 0.14241 0.58512 0.07033 0.0
C609 C 0.11385 0.56106 0.05615 0.0
H610 H 0.29209 0.8951 0.82755 0.0
H611 H 0.26501 0.81675 0.90325 0.0
H612 H 0.33209 0.93314 0.86625 0.0
H613 H 0.30394 0.85602 0.94276 0.0
H614 H 0.41402 0.99145 0.93506 0.0
H615 H 0.35473 0.96898 0.91411 0.0
H616 H 0.36476 0.85997 0.94183 0.0
H617 H 0.42271 0.88249 0.96383 0.0
C618 C 0.29346 0.88673 0.8529 0.0
C619 C 0.27651 0.85217 0.862 0.0
C620 C 0.31639 0.9088 0.87529 0.0
C621 C 0.32228 0.89691 0.90729 0.0
C622 C 0.30096 0.86522 0.91786 0.0
C623 C 0.27847 0.8428 0.89529 0.0
C624 C 0.40319 0.96287 0.93734 0.0
C625 C 0.42328 0.93869 0.95074 0.0
C626 C 0.36924 0.94998 0.92526 0.0
C627 C 0.35484 0.91266 0.92624 0.0
C628 C 0.37451 0.889 0.94116 0.0
C629 C 0.40819 0.90184 0.95328 0.0
H630 H 0.13215 0.2415 0.82749 0.0
H631 H 0.22638 0.27547 0.88661 0.0
H632 H 0.09966 0.26877 0.86897 0.0
H633 H 0.19407 0.30248 0.92855 0.0
H634 H 0.1378 0.39892 0.95569 0.0
H635 H 0.16891 0.35799 0.92563 0.0
H636 H 0.0786 0.27268 0.92504 0.0
H637 H 0.04723 0.31367 0.9547 0.0
C638 C 0.1455 0.25305 0.85029 0.0
C639 C 0.18153 0.25575 0.8543 0.0
C640 C 0.12701 0.26901 0.87397 0.0
C641 C 0.14437 0.28835 0.90186 0.0
C642 C 0.18002 0.28828 0.9071 0.0
C643 C 0.19843 0.27222 0.88345 0.0
C644 C 0.12459 0.37138 0.94939 0.0
C645 C 0.08986 0.35982 0.95743 0.0
C646 C 0.14257 0.34774 0.9324 0.0
C647 C 0.12628 0.31194 0.92299 0.0
C648 C 0.09183 0.30012 0.93169 0.0
C649 C 0.07387 0.3237 0.94875 0.0
H650 H 0.70642 0.13402 0.79325 0.0
H651 H 0.62193 0.194 0.7843 0.0
H652 H 0.67408 0.09456 0.83269 0.0
H653 H 0.59024 0.15565 0.82492 0.0
H654 H 0.53747 0.06798 0.89369 0.0
H655 H 0.56131 0.09656 0.84361 0.0
H656 H 0.66445 0.11069 0.88906 0.0
H657 H 0.64108 0.08174 0.93803 0.0
C658 C 0.68074 0.1384 0.79941 0.0
C659 C 0.66692 0.16739 0.78633 0.0
C660 C 0.66229 0.11599 0.82206 0.0
C661 C 0.63009 0.12276 0.83256 0.0
C662 C 0.61498 0.14979 0.81732 0.0
C663 C 0.63321 0.17183 0.79416 0.0
C664 C 0.56519 0.07735 0.89283 0.0
C665 C 0.58749 0.07229 0.91953 0.0
C666 C 0.57882 0.09354 0.86421 0.0
C667 C 0.61482 0.10497 0.86212 0.0
C668 C 0.63674 0.10095 0.88938 0.0
C669 C 0.62327 0.08469 0.91764 0.0
H670 H 0.86545 0.71518 0.83676 0.0
H671 H 0.8095 0.62046 0.78157 0.0
H672 H 0.90199 0.67698 0.86317 0.0
H673 H 0.84648 0.58253 0.80755 0.0
H674 H 0.97444 0.60776 0.89719 0.0
H675 H 0.94638 0.63875 0.85477 0.0
H676 H 0.8514 0.56133 0.86359 0.0
H677 H 0.8794 0.53001 0.90552 0.0
C678 C 0.86119 0.68634 0.82998 0.0
C679 C 0.83425 0.67085 0.80742 0.0
C680 C 0.88239 0.66449 0.84482 0.0
C681 C 0.87712 0.62673 0.83736 0.0
C682 C 0.85095 0.61147 0.81398 0.0
C683 C 0.82975 0.63327 0.79917 0.0
C684 C 0.94786 0.59669 0.88941 0.0
C685 C 0.92882 0.56704 0.90541 0.0
C686 C 0.93176 0.61462 0.86526 0.0
C687 C 0.89646 0.60309 0.85657 0.0
C688 C 0.87862 0.57098 0.86984 0.0
C689 C 0.89469 0.55303 0.89397 0.0
H690 H 0.1229 0.30725 0.23603 0.0
H691 H 0.20133 0.34723 0.16685 0.0
H692 H 0.08434 0.34494 0.21104 0.0
H693 H 0.16316 0.38445 0.14224 0.0
H694 H 0.10243 0.46153 0.10936 0.0
H695 H 0.13378 0.43772 0.15421 0.0
H696 H 0.0543 0.34134 0.15405 0.0
H697 H 0.02256 0.36522 0.10955 0.0
C698 C 0.13199 0.32427 0.21574 0.0
C699 C 0.16496 0.32401 0.20312 0.0
C700 C 0.11 0.34584 0.20159 0.0
C701 C 0.12096 0.36789 0.17504 0.0
C702 C 0.15428 0.36831 0.16315 0.0
C703 C 0.17597 0.34654 0.17693 0.0
C704 C 0.09105 0.43578 0.11956 0.0
C705 C 0.06072 0.41457 0.1051 0.0
C706 C 0.10901 0.42221 0.14524 0.0
C707 C 0.09693 0.38726 0.15679 0.0
C708 C 0.06429 0.36828 0.14543 0.0
C709 C 0.04622 0.38191 0.11977 0.0
H710 H 0.13884 0.63891 0.78021 0.0
H711 H 0.17125 0.69073 0.87598 0.0
H712 H 0.09573 0.59424 0.8064 0.0
H713 H 0.1278 0.64634 0.90192 0.0
H714 H 0.07605 0.49822 0.88676 0.0
H715 H 0.10517 0.54389 0.84986 0.0
H716 H 0.05974 0.62692 0.89989 0.0
H717 H 0.03127 0.5816 0.93679 0.0
C718 C 0.13645 0.64103 0.80678 0.0
C719 C 0.15845 0.66819 0.82616 0.0
C720 C 0.11185 0.6155 0.82163 0.0
C721 C 0.10842 0.61723 0.85597 0.0
C722 C 0.12974 0.64489 0.87526 0.0
C723 C 0.15475 0.67002 0.86051 0.0
C724 C 0.07123 0.52594 0.88883 0.0
C725 C 0.05083 0.53636 0.91402 0.0
C726 C 0.08782 0.55198 0.86784 0.0
C727 C 0.08469 0.58877 0.87235 0.0
C728 C 0.06238 0.59865 0.89601 0.0
C729 C 0.04554 0.57259 0.91668 0.0
H730 H 0.39044 0.236 0.79432 0.0
H731 H 0.30981 0.1515 0.82736 0.0
H732 H 0.43439 0.20492 0.81865 0.0
H733 H 0.35374 0.12089 0.8521 0.0
H734 H 0.43356 0.0586 0.87889 0.0
H735 H 0.40041 0.08754 0.83891 0.0
H736 H 0.45436 0.19354 0.87463 0.0
H737 H 0.48794 0.16469 0.91417 0.0
C738 C 0.38203 0.21081 0.80677 0.0
C739 C 0.34651 0.19635 0.80906 0.0
C740 C 0.40729 0.19302 0.82066 0.0
C741 C 0.39761 0.1603 0.83703 0.0
C742 C 0.36212 0.14566 0.83902 0.0
C743 C 0.33688 0.16346 0.8252 0.0
C744 C 0.43925 0.08804 0.87742 0.0
C745 C 0.46272 0.1094 0.9003 0.0
C746 C 0.41999 0.10461 0.85473 0.0
C747 C 0.42392 0.14281 0.85445 0.0
C748 C 0.45053 0.16402 0.87439 0.0
C749 C 0.46991 0.14742 0.89704 0.0
H750 H 0.76116 0.36394 0.84397 0.0
H751 H 0.81707 0.27508 0.85802 0.0
H752 H 0.78695 0.39336 0.89563 0.0
H753 H 0.84365 0.30498 0.90924 0.0
H754 H 0.88922 0.35863 -9e-05 0.0
H755 H 0.84004 0.32797 0.96526 0.0
H756 H 0.84527 0.42456 0.90767 0.0
H757 H 0.89371 0.45535 0.94274 0.0
C758 C 0.77872 0.35049 0.85832 0.0
C759 C 0.78778 0.3176 0.84665 0.0
C760 C 0.79341 0.36735 0.88792 0.0
C761 C 0.81767 0.35182 0.90633 0.0
C762 C 0.82476 0.31756 0.89586 0.0
C763 C 0.80979 0.3005 0.86634 0.0
C764 C 0.87902 0.3737 0.98054 0.0
C765 C 0.89579 0.40901 0.97341 0.0
C766 C 0.851 0.35606 0.96061 0.0
C767 C 0.83946 0.37341 0.93314 0.0
C768 C 0.85351 0.41033 0.92861 0.0
C769 C 0.88138 0.42808 0.94873 0.0
H770 H 0.75844 0.87235 0.84107 0.0
H771 H 0.71783 0.77028 0.88477 0.0
H772 H 0.72926 0.90484 0.88193 0.0
H773 H 0.68959 0.80249 0.92629 0.0
H774 H 0.5963 0.85933 0.94342 0.0
H775 H 0.6385 0.8294 0.91645 0.0
H776 H 0.71819 0.92359 0.93922 0.0
H777 H 0.67552 0.95413 0.96605 0.0
C778 C 0.74475 0.85719 0.86052 0.0
C779 C 0.74046 0.81901 0.86011 0.0
C780 C 0.72789 0.87569 0.88383 0.0
C781 C 0.7065 0.85612 0.90692 0.0
C782 C 0.70525 0.81824 0.90838 0.0
C783 C 0.72178 0.79983 0.88496 0.0
C784 C 0.62282 0.87371 0.94296 0.0
C785 C 0.63238 0.90926 0.95679 0.0
C786 C 0.64719 0.85633 0.92776 0.0
C787 C 0.68186 0.87397 0.92593 0.0
C788 C 0.69168 0.90932 0.94018 0.0
C789 C 0.66722 0.92675 0.95559 0.0
H790 H 0.76476 0.68802 0.13337 0.0
H791 H 0.8585 0.76631 0.15543 0.0
H792 H 0.79556 0.65396 0.09683 0.0
H793 H 0.88923 0.73374 0.11634 0.0
H794 H 0.94494 0.64174 0.08486 0.0
H795 H 0.9134 0.68267 0.11388 0.0
H796 H 0.82268 0.64292 0.05027 0.0
H797 H 0.85388 0.5998 0.02333 0.0
C798 C 0.79178 0.69884 0.12938 0.0
C799 C 0.80925 0.72983 0.14754 0.0
C800 C 0.80961 0.67919 0.10814 0.0
C801 C 0.84531 0.69046 0.10371 0.0
C802 C 0.86209 0.72329 0.11985 0.0
C803 C 0.84439 0.74242 0.14192 0.0
C804 C 0.91818 0.64178 0.07725 0.0
C805 C 0.90167 0.61737 0.05218 0.0
C806 C 0.90009 0.66566 0.0936 0.0
C807 C 0.86522 0.66656 0.08461 0.0
C808 C 0.84913 0.64268 0.05866 0.0
C809 C 0.86698 0.61796 0.04302 0.0
H810 H 0.33263 0.90759 0.21393 0.0
H811 H 0.36093 0.81754 0.15747 0.0
H812 H 0.37827 0.94961 0.18784 0.0
H813 H 0.40546 0.85908 0.13138 0.0
H814 H 0.48575 0.93522 0.08659 0.0
H815 H 0.45974 0.90358 0.13431 0.0
H816 H 0.37764 0.96727 0.13011 0.0
H817 H 0.4037 -0.00107 0.08347 0.0
C818 C 0.34874 0.89677 0.19628 0.0
C819 C 0.34255 0.85952 0.18699 0.0
C820 C 0.37493 0.9207 0.18155 0.0
C821 C 0.39531 0.90758 0.15753 0.0
C822 C 0.39056 0.87 0.15009 0.0
C823 C 0.36446 0.84627 0.1646 0.0
C824 C 0.46262 0.94286 0.09642 0.0
C825 C 0.4461 0.96855 0.08075 0.0
C826 C 0.4478 0.92492 0.12371 0.0
C827 C 0.41648 0.93274 0.13566 0.0
C828 C 0.40189 0.96079 0.12172 0.0
C829 C 0.4165 0.97845 0.09452 0.0
H830 H 0.71177 0.1166 0.1932 0.0
H831 H 0.75908 0.20285 0.132 0.0
H832 H 0.67856 0.08614 0.14556 0.0
H833 H 0.72592 0.1722 0.08356 0.0
H834 H 0.60906 0.15159 0.04341 0.0
H835 H 0.66373 0.17029 0.07453 0.0
H836 H 0.66894 0.05736 0.09139 0.0
H837 H 0.61354 0.03875 0.06174 0.0
C838 C 0.71644 0.12788 0.16903 0.0
C839 C 0.73781 0.16186 0.16604 0.0
C840 C 0.69737 0.11052 0.14163 0.0
C841 C 0.69905 0.12717 0.11084 0.0
C842 C 0.7237 0.15905 0.10711 0.0
C843 C 0.74304 0.17633 0.13464 0.0
C844 C 0.62206 0.13069 0.05335 0.0
C845 C 0.60657 0.09368 0.05039 0.0
C846 C 0.65375 0.14138 0.07079 0.0
C847 C 0.67069 0.11528 0.08556 0.0
C848 C 0.65641 0.07814 0.08055 0.0
C849 C 0.62461 0.06748 0.06337 0.0
H850 H 0.61401 0.68915 0.79832 0.0
H851 H 0.6803 0.6081 0.79422 0.0
H852 H 0.57617 0.65141 0.83523 0.0
H853 H 0.64369 0.57132 0.83204 0.0
H854 H 0.55564 0.60374 0.93981 0.0
H855 H 0.57818 0.63655 0.89137 0.0
H856 H 0.59214 0.53444 0.84444 0.0
H857 H 0.57177 0.50259 0.89363 0.0
C858 C 0.62022 0.66301 0.80489 0.0
C859 C 0.65035 0.65177 0.79352 0.0
C860 C 0.59869 0.64152 0.82633 0.0
C861 C 0.60699 0.60848 0.83715 0.0
C862 C 0.636 0.59629 0.82406 0.0
C863 C 0.65723 0.61752 0.80233 0.0
C864 C 0.56304 0.58851 0.9188 0.0
C865 C 0.56265 0.55094 0.92044 0.0
C866 C 0.5758 0.60714 0.89093 0.0
C867 C 0.58773 0.58828 0.86408 0.0
C868 C 0.58435 0.55011 0.86495 0.0
C869 C 0.57244 0.53177 0.893 0.0
H870 H 0.34102 0.72206 0.87537 0.0
H871 H 0.35854 0.65894 0.78818 0.0
H872 H 0.38334 0.69485 0.9069 0.0
H873 H 0.40065 0.63101 0.82025 0.0
H874 H 0.4799 0.66084 0.94916 0.0
H875 H 0.4497 0.69181 0.90778 0.0
H876 H 0.39219 0.58789 0.8711 0.0
H877 H 0.42179 0.55703 0.91266 0.0
C878 C 0.35397 0.7024 0.86291 0.0
C879 C 0.34625 0.69244 0.82933 0.0
C880 C 0.37848 0.68713 0.88091 0.0
C881 C 0.39542 0.66103 0.86595 0.0
C882 C 0.388 0.65118 0.83231 0.0
C883 C 0.36394 0.66712 0.81402 0.0
C884 C 0.46154 0.64455 0.93166 0.0
C885 C 0.45296 0.60653 0.93437 0.0
C886 C 0.44412 0.66228 0.90815 0.0
C887 C 0.41842 0.64223 0.88648 0.0
C888 C 0.41196 0.604 0.8874 0.0
C889 C 0.42884 0.58636 0.91129 0.0
H890 H 0.37379 0.37082 0.79756 0.0
H891 H 0.27413 0.39618 0.82318 0.0
H892 H 0.40034 0.40595 0.84662 0.0
H893 H 0.30095 0.43038 0.87252 0.0
H894 H 0.42319 0.49788 0.93701 0.0
H895 H 0.38618 0.4868 0.8866 0.0
H896 H 0.35113 0.37586 0.91415 0.0
H897 H 0.38859 0.38646 0.96427 0.0
C898 C 0.35779 0.38494 0.81281 0.0
C899 C 0.32173 0.37988 0.8069 0.0
C900 C 0.37299 0.405 0.84084 0.0
C901 C 0.35236 0.42024 0.86313 0.0
C902 C 0.31714 0.41876 0.85546 0.0
C903 C 0.30195 0.39908 0.82724 0.0
C904 C 0.4063 0.47168 0.9332 0.0
C905 C 0.40896 0.44287 0.95436 0.0
C906 C 0.38541 0.46538 0.90424 0.0
C907 C 0.36639 0.43051 0.89677 0.0
C908 C 0.36578 0.40298 0.91975 0.0
C909 C 0.38704 0.40907 0.94838 0.0
H910 H 0.60778 0.30502 0.75856 0.0
H911 H 0.69081 0.39738 0.77622 0.0
H912 H 0.57756 0.32563 0.80516 0.0
H913 H 0.66242 0.41623 0.82374 0.0
H914 H 0.60523 0.4504 0.90757 0.0
H915 H 0.62183 0.43835 0.85188 0.0
H916 H 0.58307 0.32307 0.86209 0.0
H917 H 0.56335 0.33623 0.91715 0.0
C918 C 0.6192 0.33021 0.7718 0.0
C919 C 0.65219 0.34898 0.76413 0.0
C920 C 0.60219 0.34165 0.79902 0.0
C921 C 0.61802 0.37183 0.81927 0.0
C922 C 0.64911 0.39283 0.80911 0.0
C923 C 0.66565 0.38189 0.7816 0.0
C924 C 0.60058 0.4224 0.898 0.0
C925 C 0.58381 0.39405 0.91692 0.0
C926 C 0.61009 0.41543 0.86591 0.0
C927 C 0.60428 0.37962 0.8522 0.0
C928 C 0.5875 0.35113 0.87134 0.0
C929 C 0.57679 0.35841 0.90318 0.0
H930 H 0.62017 0.26821 0.20572 0.0
H931 H 0.69724 0.36619 0.20122 0.0
H932 H 0.58037 0.29532 0.17087 0.0
H933 H 0.65831 0.39264 0.16528 0.0
H934 H 0.58042 0.44324 0.11285 0.0
H935 H 0.60788 0.41739 0.15903 0.0
H936 H 0.57329 0.30922 0.11503 0.0
H937 H 0.54438 0.33537 0.06976 0.0
C938 C 0.62858 0.2956 0.19736 0.0
C939 C 0.66195 0.31499 0.20609 0.0
C940 C 0.60581 0.31108 0.17721 0.0
C941 C 0.61604 0.34614 0.165 0.0
C942 C 0.64911 0.36587 0.17462 0.0
C943 C 0.67166 0.35059 0.1951 0.0
C944 C 0.57815 0.41391 0.11349 0.0
C945 C 0.56073 0.39131 0.08761 0.0
C946 C 0.5941 0.39904 0.13982 0.0
C947 C 0.59365 0.36123 0.14046 0.0
C948 C 0.57411 0.33843 0.11559 0.0
C949 C 0.55754 0.35335 0.08955 0.0
H950 H 0.7417 0.62744 0.18932 0.0
H951 H 0.63783 0.61434 0.22467 0.0
H952 H 0.72077 0.58712 0.14138 0.0
H953 H 0.61708 0.57265 0.17743 0.0
H954 H 0.59138 0.49948 0.08622 0.0
H955 H 0.63001 0.51078 0.13545 0.0
H956 H 0.67026 0.61854 0.1025 0.0
H957 H 0.63053 0.60791 0.05394 0.0
C958 C 0.71483 0.61381 0.188 0.0
C959 C 0.69127 0.62351 0.21061 0.0
C960 C 0.70293 0.59097 0.16053 0.0
C961 C 0.66747 0.577 0.15593 0.0
C962 C 0.64467 0.58282 0.18086 0.0
C963 C 0.65646 0.60645 0.20794 0.0
C964 C 0.60958 0.52495 0.08869 0.0
C965 C 0.60776 0.55301 0.0665 0.0
C966 C 0.63154 0.53135 0.11692 0.0
C967 C 0.65283 0.56544 0.12257 0.0
C968 C 0.65415 0.59188 0.09836 0.0
C969 C 0.63145 0.58587 0.07065 0.0
H970 H 0.38683 0.73583 0.2193 0.0
H971 H 0.31747 0.6344 0.23298 0.0
H972 H 0.42228 0.70448 0.18451 0.0
H973 H 0.35349 0.60226 0.19854 0.0
H974 H 0.37938 0.58299 0.08896 0.0
H975 H 0.35592 0.60512 0.13899 0.0
H976 H 0.45825 0.66147 0.17086 0.0
H977 H 0.48157 0.64034 0.12029 0.0
C978 C 0.38043 0.70635 0.2164 0.0
C979 C 0.34956 0.68742 0.22863 0.0
C980 C 0.40062 0.68832 0.19626 0.0
C981 C 0.39014 0.651 0.18796 0.0
C982 C 0.3617 0.63123 0.20386 0.0
C983 C 0.34146 0.6494 0.22412 0.0
C984 C 0.39687 0.60024 0.10654 0.0
C985 C 0.43225 0.61033 0.10032 0.0
C986 C 0.38353 0.61241 0.13556 0.0
C987 C 0.40529 0.63472 0.15919 0.0
C988 C 0.44075 0.64448 0.15312 0.0
C989 C 0.45405 0.63256 0.12397 0.0
H990 H 0.31808 0.38125 0.20391 0.0
H991 H 0.39273 0.31263 0.22743 0.0
H992 H 0.36038 0.41929 0.17171 0.0
H993 H 0.43582 0.35105 0.19463 0.0
H994 H 0.46466 0.39431 0.08496 0.0
H995 H 0.43936 0.36126 0.1326 0.0
H996 H 0.41548 0.46172 0.17415 0.0
H997 H 0.43931 0.49397 0.12635 0.0
C998 C 0.34402 0.37502 0.20291 0.0
C999 C 0.35228 0.34426 0.21823 0.0
C1000 C 0.36836 0.39684 0.18452 0.0
C1001 C 0.40154 0.38821 0.18062 0.0
C1002 C 0.41044 0.35828 0.19719 0.0
C1003 C 0.38601 0.33661 0.21619 0.0
C1004 C 0.45477 0.40926 0.10478 0.0
C1005 C 0.45308 0.44635 0.10181 0.0
C1006 C 0.44047 0.39049 0.13209 0.0
C1007 C 0.42478 0.40882 0.15676 0.0
C1008 C 0.42662 0.44671 0.1552 0.0
C1009 C 0.44027 0.46516 0.12786 0.0
H1010 H 0.78449 0.72723 0.61721 0.0
H1011 H 0.76826 0.62341 0.66466 0.0
H1012 H 0.82132 0.70384 0.57757 0.0
H1013 H 0.8051 0.60016 0.62482 0.0
H1014 H 0.85834 0.5631 0.53514 0.0
H1015 H 0.81281 0.5851 0.56501 0.0
H1016 H 0.88105 0.68809 0.5862 0.0
H1017 H 0.92692 0.66621 0.55616 0.0
C1018 C 0.78795 0.69911 0.61871 0.0
C1019 C 0.77368 0.67734 0.64446 0.0
C1020 C 0.80938 0.68589 0.59615 0.0
C1021 C 0.81661 0.65046 0.5985 0.0
C1022 C 0.80002 0.62763 0.62242 0.0
C1023 C 0.77883 0.64096 0.64523 0.0
C1024 C 0.8637 0.5906 0.54588 0.0
C1025 C 0.89648 0.61286 0.54335 0.0
C1026 C 0.83755 0.60309 0.56309 0.0
C1027 C 0.84335 0.63825 0.57792 0.0
C1028 C 0.87572 0.66096 0.57467 0.0
C1029 C 0.90207 0.64834 0.55767 0.0
H1030 H 0.38856 0.79999 0.70876 0.0
H1031 H 0.32351 0.88238 0.71148 0.0
H1032 H 0.43178 0.84126 0.67931 0.0
H1033 H 0.36534 0.92247 0.68122 0.0
H1034 H 0.45827 0.89893 0.57931 0.0
H1035 H 0.43542 0.86229 0.62487 0.0
H1036 H 0.41923 0.96009 0.67805 0.0
H1037 H 0.4406 -0.00367 0.63125 0.0
C1038 C 0.38356 0.82689 0.70321 0.0
C1039 C 0.35243 0.83774 0.71209 0.0
C1040 C 0.40829 0.85053 0.68637 0.0
C1041 C 0.40214 0.88526 0.67782 0.0
C1042 C 0.37154 0.89638 0.68793 0.0
C1043 C 0.34716 0.87306 0.70499 0.0
C1044 C 0.45117 0.91263 0.60135 0.0
C1045 C 0.45108 0.95024 0.60202 0.0
C1046 C 0.43798 0.89165 0.62754 0.0
C1047 C 0.42474 0.90811 0.6549 0.0
C1048 C 0.42825 0.94641 0.65691 0.0
C1049 C 0.44072 0.96724 0.63036 0.0
H1050 H 0.16944 0.3693 0.73471 0.0
H1051 H 0.15405 0.29126 0.65184 0.0
H1052 H 0.12802 0.40266 0.70894 0.0
H1053 H 0.11275 0.32476 0.62619 0.0
H1054 H 0.10772 0.47309 0.61529 0.0
H1055 H 0.13267 0.43932 0.65747 0.0
H1056 H 0.05451 0.3444 0.63286 0.0
H1057 H 0.02934 0.37804 0.59053 0.0
C1058 C 0.15699 0.35904 0.71116 0.0
C1059 C 0.16532 0.32784 0.69508 0.0
C1060 C 0.13324 0.37813 0.69653 0.0
C1061 C 0.11708 0.36616 0.66575 0.0
C1062 C 0.12441 0.33424 0.65024 0.0
C1063 C 0.1484 0.31533 0.66471 0.0
C1064 C 0.09504 0.44544 0.61961 0.0
C1065 C 0.06731 0.42785 0.59878 0.0
C1066 C 0.10932 0.42611 0.64388 0.0
C1067 C 0.09605 0.38897 0.64767 0.0
C1068 C 0.06564 0.37281 0.62981 0.0
C1069 C 0.05118 0.3922 0.6057 0.0
H1070 H 0.73213 0.21849 0.59351 0.0
H1071 H 0.63546 0.19534 0.64405 0.0
H1072 H 0.71076 0.16777 0.55369 0.0
H1073 H 0.61502 0.14484 0.60494 0.0
H1074 H 0.59938 0.03703 0.56387 0.0
H1075 H 0.64435 0.08109 0.59343 0.0
H1076 H 0.64788 0.15277 0.51136 0.0
H1077 H 0.60273 0.10888 0.48178 0.0
C1078 C 0.70625 0.20303 0.59588 0.0
C1079 C 0.68558 0.2108 0.62214 0.0
C1080 C 0.69435 0.17388 0.57337 0.0
C1081 C 0.66196 0.1519 0.57727 0.0
C1082 C 0.64062 0.16088 0.60225 0.0
C1083 C 0.65216 0.19015 0.6243 0.0
C1084 C 0.61127 0.06107 0.55127 0.0
C1085 C 0.597 0.07029 0.52114 0.0
C1086 C 0.63684 0.08635 0.56825 0.0
C1087 C 0.64861 0.12047 0.55482 0.0
C1088 C 0.63894 0.12666 0.52215 0.0
C1089 C 0.61313 0.10156 0.5053 0.0
H1090 H 0.79185 0.38969 0.33044 0.0
H1091 H 0.76994 0.30762 0.40383 0.0
H1092 H 0.83366 0.42643 0.36848 0.0
H1093 H 0.81072 0.34551 0.44278 0.0
H1094 H 0.9156 0.48519 0.43775 0.0
H1095 H 0.85677 0.46095 0.41664 0.0
H1096 H 0.87155 0.35218 0.44044 0.0
H1097 H 0.92908 0.3764 0.46278 0.0
C1098 C 0.79482 0.38015 0.35523 0.0
C1099 C 0.77852 0.34509 0.36371 0.0
C1100 C 0.81882 0.40144 0.37724 0.0
C1101 C 0.82652 0.38832 0.40832 0.0
C1102 C 0.80632 0.35575 0.41852 0.0
C1103 C 0.78272 0.33414 0.39629 0.0
C1104 C 0.90596 0.45623 0.43912 0.0
C1105 C 0.92722 0.43274 0.45173 0.0
C1106 C 0.87226 0.44231 0.42689 0.0
C1107 C 0.85927 0.40458 0.42682 0.0
C1108 C 0.88019 0.38145 0.44065 0.0
C1109 C 0.91361 0.39533 0.453 0.0
H1110 H 0.623 0.74329 0.32288 0.0
H1111 H 0.71264 0.75926 0.3898 0.0
H1112 H 0.59034 0.77024 0.36439 0.0
H1113 H 0.68015 0.78661 0.43156 0.0
H1114 H 0.63251 0.89154 0.45666 0.0
H1115 H 0.66155 0.84796 0.42758 0.0
H1116 H 0.56596 0.76971 0.42117 0.0
H1117 H 0.53671 0.81324 0.45023 0.0
C1118 C 0.63506 0.75091 0.34718 0.0
C1119 C 0.66999 0.74874 0.35352 0.0
C1120 C 0.6165 0.76655 0.37087 0.0
C1121 C 0.63287 0.78095 0.40104 0.0
C1122 C 0.66702 0.776 0.40838 0.0
C1123 C 0.68544 0.75989 0.38477 0.0
C1124 C 0.61769 0.86498 0.44929 0.0
C1125 C 0.58219 0.85608 0.45551 0.0
C1126 C 0.63445 0.83983 0.43297 0.0
C1127 C 0.61604 0.80534 0.42228 0.0
C1128 C 0.58076 0.7961 0.42911 0.0
C1129 C 0.56405 0.8211 0.44572 0.0
H1130 H 0.20497 0.62003 0.28807 0.0
H1131 H 0.12514 0.68612 0.28052 0.0
H1132 H 0.16979 0.58027 0.3255 0.0
H1133 H 0.09067 0.64749 0.31938 0.0
H1134 H 0.0368 0.56324 0.39174 0.0
H1135 H 0.05942 0.58819 0.33966 0.0
H1136 H 0.16376 0.60187 0.38216 0.0
H1137 H 0.1417 0.57697 0.43309 0.0
C1138 C 0.17953 0.62545 0.29387 0.0
C1139 C 0.16797 0.65638 0.28223 0.0
C1140 C 0.15945 0.60286 0.31528 0.0
C1141 C 0.12812 0.61165 0.32611 0.0
C1142 C 0.11478 0.64021 0.31151 0.0
C1143 C 0.13457 0.66237 0.28941 0.0
C1144 C 0.06453 0.57177 0.38978 0.0
C1145 C 0.08755 0.56778 0.41626 0.0
C1146 C 0.07741 0.58576 0.36003 0.0
C1147 C 0.11337 0.59579 0.35658 0.0
C1148 C 0.13601 0.59297 0.38357 0.0
C1149 C 0.1233 0.57908 0.41297 0.0
H1150 H 0.36698 0.21043 0.32916 0.0
H1151 H 0.29762 0.11616 0.286 0.0
H1152 H 0.40063 0.17029 0.35675 0.0
H1153 H 0.33163 0.07612 0.3134 0.0
H1154 H 0.36795 0.03244 0.41546 0.0
H1155 H 0.33958 0.06199 0.3723 0.0
H1156 H 0.43856 0.1244 0.3477 0.0
H1157 H 0.46705 0.09523 0.3911 0.0
C1158 C 0.35913 0.1812 0.32525 0.0
C1159 C 0.32941 0.16654 0.30569 0.0
C1160 C 0.37863 0.15818 0.34076 0.0
C1161 C 0.36877 0.12006 0.33711 0.0
C1162 C 0.33969 0.10539 0.31676 0.0
C1163 C 0.32026 0.12839 0.30111 0.0
C1164 C 0.38384 0.05164 0.40022 0.0
C1165 C 0.41959 0.06226 0.40733 0.0
C1166 C 0.36757 0.06852 0.37541 0.0
C1167 C 0.38682 0.09615 0.35726 0.0
C1168 C 0.42304 0.10383 0.36193 0.0
C1169 C 0.43932 0.08697 0.38669 0.0
H1170 H 0.63099 0.81498 0.73292 0.0
H1171 H 0.70708 0.84391 0.65875 0.0
H1172 H 0.59418 0.85367 0.70713 0.0
H1173 H 0.67031 0.882 0.63304 0.0
H1174 H 0.61161 0.96226 0.59872 0.0
H1175 H 0.64551 0.93799 0.64133 0.0
H1176 H 0.56033 0.84915 0.65365 0.0
H1177 H 0.52609 0.87366 0.61151 0.0
C1178 C 0.63997 0.82973 0.71128 0.0
C1179 C 0.67183 0.82611 0.69768 0.0
C1180 C 0.6189 0.85188 0.69659 0.0
C1181 C 0.62948 0.87106 0.66827 0.0
C1182 C 0.66173 0.86814 0.65525 0.0
C1183 C 0.68263 0.8459 0.66975 0.0
C1184 C 0.59969 0.93815 0.61118 0.0
C1185 C 0.5666 0.91918 0.60097 0.0
C1186 C 0.61919 0.9242 0.63549 0.0
C1187 C 0.60592 0.89112 0.65001 0.0
C1188 C 0.57131 0.87461 0.64273 0.0
C1189 C 0.55173 0.88861 0.61844 0.0
H1190 H 0.66469 0.18862 0.37227 0.0
H1191 H 0.6326 0.13897 0.27563 0.0
H1192 H 0.62031 0.1445 0.39722 0.0
H1193 H 0.58845 0.09454 0.30084 0.0
H1194 H 0.52538 0.08029 0.43254 0.0
H1195 H 0.55313 0.12585 0.3957 0.0
H1196 H 0.59598 0.04286 0.34277 0.0
H1197 H 0.56719 -0.00322 0.37948 0.0
C1198 C 0.64799 0.16851 0.35637 0.0
C1199 C 0.65216 0.16716 0.32208 0.0
C1200 C 0.62244 0.14349 0.37057 0.0
C1201 C 0.60094 0.1164 0.35079 0.0
C1202 C 0.6047 0.1153 0.31647 0.0
C1203 C 0.62989 0.14073 0.30217 0.0
C1204 C 0.53868 0.07128 0.41175 0.0
C1205 C 0.54336 0.03489 0.40829 0.0
C1206 C 0.55523 0.09753 0.3911 0.0
C1207 C 0.57682 0.0878 0.36671 0.0
C1208 C 0.57919 0.0509 0.36132 0.0
C1209 C 0.56278 0.0246 0.38223 0.0
H1210 H 0.80522 0.64738 0.33229 0.0
H1211 H 0.88503 0.72768 0.29211 0.0
H1212 H 0.84946 0.61726 0.35687 0.0
H1213 H 0.92949 0.69709 0.31669 0.0
H1214 H 0.92836 0.55321 0.38154 0.0
H1215 H 0.8946 0.58171 0.34178 0.0
H1216 H 0.95122 0.68788 0.37379 0.0
H1217 H 0.98539 0.65946 0.41327 0.0
C1218 C 0.8322 0.65858 0.32858 0.0
C1219 C 0.84152 0.69008 0.31035 0.0
C1220 C 0.8576 0.64101 0.34234 0.0
C1221 C 0.89299 0.65453 0.33835 0.0
C1222 C 0.90243 0.68602 0.32012 0.0
C1223 C 0.87694 0.70352 0.30611 0.0
C1224 C 0.93446 0.58255 0.37936 0.0
C1225 C 0.95893 0.60413 0.40122 0.0
C1226 C 0.9149 0.59888 0.35675 0.0
C1227 C 0.91951 0.63707 0.35548 0.0
C1228 C 0.9469 0.65837 0.37436 0.0
C1229 C 0.96656 0.64202 0.397 0.0
H1230 H 0.26135 0.85677 0.34801 0.0
H1231 H 0.31642 0.76917 0.37013 0.0
H1232 H 0.28419 0.88889 0.39954 0.0
H1233 H 0.34041 0.80182 0.4211 0.0
H1234 H 0.38564 0.86153 0.50856 0.0
H1235 H 0.33655 0.82856 0.47509 0.0
H1236 H 0.34102 0.92131 0.4126 0.0
H1237 H 0.38915 0.95439 0.44655 0.0
C1238 C 0.27807 0.8442 0.36416 0.0
C1239 C 0.28785 0.8109 0.35481 0.0
C1240 C 0.29111 0.8626 0.39367 0.0
C1241 C 0.31462 0.84834 0.41421 0.0
C1242 C 0.32212 0.81354 0.40608 0.0
C1243 C 0.30864 0.79487 0.37671 0.0
C1244 C 0.37517 0.87533 0.48841 0.0
C1245 C 0.39175 0.91011 0.47955 0.0
C1246 C 0.34724 0.85634 0.46911 0.0
C1247 C 0.33564 0.87176 0.44052 0.0
C1248 C 0.34928 0.90844 0.43438 0.0
C1249 C 0.37701 0.92755 0.45389 0.0
H1250 H 0.26019 0.37039 0.34383 0.0
H1251 H 0.22296 0.26876 0.38975 0.0
H1252 H 0.23233 0.403 0.38552 0.0
H1253 H 0.19609 0.30116 0.43222 0.0
H1254 H 0.10188 0.3567 0.4507 0.0
H1255 H 0.1442 0.32657 0.4242 0.0
H1256 H 0.22252 0.42305 0.44214 0.0
H1257 H 0.17969 0.45378 0.46837 0.0
C1258 C 0.24763 0.35539 0.36396 0.0
C1259 C 0.24383 0.31727 0.36392 0.0
C1260 C 0.23151 0.37397 0.38778 0.0
C1261 C 0.21133 0.35455 0.41179 0.0
C1262 C 0.21079 0.3168 0.41363 0.0
C1263 C 0.22657 0.29829 0.38967 0.0
C1264 C 0.12814 0.37153 0.44932 0.0
C1265 C 0.13721 0.40782 0.46145 0.0
C1266 C 0.15262 0.35404 0.43441 0.0
C1267 C 0.1869 0.37229 0.43122 0.0
C1268 C 0.1963 0.4083 0.44408 0.0
C1269 C 0.17174 0.42585 0.45916 0.0
H1270 H 0.37893 0.26071 0.67592 0.0
H1271 H 0.28364 0.23026 0.61686 0.0
H1272 H 0.4074 0.22337 0.6391 0.0
H1273 H 0.3123 0.19314 0.58005 0.0
H1274 H 0.35923 0.08866 0.5597 0.0
H1275 H 0.33249 0.13441 0.58862 0.0
H1276 H 0.42705 0.21309 0.58291 0.0
H1277 H 0.45394 0.16752 0.55438 0.0
C1278 C 0.3643 0.247 0.65457 0.0
C1279 C 0.32883 0.24823 0.6497 0.0
C1280 C 0.38064 0.22547 0.63346 0.0
C1281 C 0.36187 0.20466 0.60707 0.0
C1282 C 0.32723 0.20821 0.60062 0.0
C1283 C 0.31094 0.2299 0.62157 0.0
C1284 C 0.37431 0.1157 0.56455 0.0
C1285 C 0.4088 0.12423 0.5548 0.0
C1286 C 0.35889 0.14205 0.58086 0.0
C1287 C 0.37764 0.17746 0.58794 0.0
C1288 C 0.412 0.18603 0.57802 0.0
C1289 C 0.42735 0.15982 0.56158 0.0
H1290 H 0.80702 0.41736 0.67529 0.0
H1291 H 0.86517 0.33069 0.68993 0.0
H1292 H 0.85671 0.45313 0.64943 0.0
H1293 H 0.91569 0.36694 0.66606 0.0
H1294 H 0.95986 0.40943 0.56568 0.0
H1295 H 0.92699 0.38003 0.61058 0.0
H1296 H 0.91412 0.48583 0.65041 0.0
H1297 H 0.94541 0.51464 0.60421 0.0
C1298 C 0.83089 0.40663 0.67379 0.0
C1299 C 0.83249 0.37139 0.68375 0.0
C1300 C 0.8595 0.42708 0.65934 0.0
C1301 C 0.89013 0.41264 0.65533 0.0
C1302 C 0.89231 0.37847 0.66806 0.0
C1303 C 0.86353 0.35781 0.68176 0.0
C1304 C 0.95092 0.42621 0.58476 0.0
C1305 C 0.95454 0.46391 0.58176 0.0
C1306 C 0.9322 0.40955 0.61058 0.0
C1307 C 0.91729 0.43063 0.63376 0.0
C1308 C 0.92447 0.46884 0.63249 0.0
C1309 C 0.94259 0.48533 0.60635 0.0
H1310 H 0.25841 0.70618 0.6338 0.0
H1311 H 0.21267 0.61834 0.6941 0.0
H1312 H 0.2246 0.67634 0.58537 0.0
H1313 H 0.17892 0.58858 0.64636 0.0
H1314 H 0.10793 0.65274 0.54412 0.0
H1315 H 0.16175 0.67277 0.57644 0.0
H1316 H 0.17071 0.56044 0.59146 0.0
H1317 H 0.11634 0.54045 0.56044 0.0
C1318 C 0.24256 0.67951 0.63621 0.0
C1319 C 0.23813 0.66428 0.6674 0.0
C1320 C 0.22283 0.66271 0.60869 0.0
C1321 C 0.1986 0.63045 0.61214 0.0
C1322 C 0.19743 0.61324 0.64266 0.0
C1323 C 0.21686 0.63017 0.67009 0.0
C1324 C 0.1216 0.63228 0.55388 0.0
C1325 C 0.10747 0.59496 0.5499 0.0
C1326 C 0.15278 0.64376 0.57206 0.0
C1327 C 0.17051 0.61817 0.58663 0.0
C1328 C 0.15755 0.58084 0.58078 0.0
C1329 C 0.12634 0.56938 0.56279 0.0
loop_
_geom_bond_atom_site_label_1
_geom_bond_atom_site_label_2
_geom_bond_distance
_geom_bond_site_symmetry_2
_ccdc_geom_bond_type
O0 Zn1 1.953 . S
O0 C16 1.225 . S
Zn1 O0 1.953 . S
Zn1 O2 1.949 . S
Zn1 O8 1.919 . S
Zn1 O13 1.924 . S
O2 Zn1 1.949 . S
O2 Zn3 1.923 . S
O2 Zn4 1.950 . S
O2 Zn5 1.945 . S
Zn3 O2 1.923 . S
Zn3 O6 1.933 . S
Zn3 O9 1.941 . S
Zn3 O10 1.965 . S
Zn4 O2 1.950 . S
Zn4 O11 1.938 . S
Zn4 O12 1.906 . S
Zn4 O22 1.953 . S
Zn5 O2 1.945 . S
Zn5 O7 1.932 . S
Zn5 O14 1.977 . S
Zn5 O15 1.910 . S
O6 Zn3 1.933 . S
O6 C17 1.226 . S
O7 Zn5 1.932 . S
O7 C17 1.307 . S
O8 Zn1 1.919 . S
O8 C19 1.253 . S
O9 Zn3 1.941 . S
O9 C19 1.283 . S
O10 Zn3 1.965 . S
O10 C18 1.303 . S
O11 Zn4 1.938 . S
O11 C18 1.247 . S
O12 Zn4 1.906 . S
O12 C20 1.304 . S
O13 Zn1 1.924 . S
O13 C21 1.311 . S
O14 Zn5 1.977 . S
O14 C20 1.272 . S
O15 Zn5 1.910 . S
O15 C21 1.231 . S
C16 O0 1.225 . S
C16 O22 1.298 . S
C17 O6 1.226 . S
C17 O7 1.307 . S
C18 O10 1.303 . S
C18 O11 1.247 . S
C19 O8 1.253 . S
C19 O9 1.283 . S
C20 O12 1.304 . S
C20 O14 1.272 . S
C21 O13 1.311 . S
C21 O15 1.231 . S
O22 Zn4 1.953 . S
O22 C16 1.298 . S
O23 Zn24 1.953 . S
O23 C39 1.225 . S
Zn24 O23 1.953 . S
Zn24 O25 1.949 . S
Zn24 O31 1.919 . S
Zn24 O36 1.924 . S
O25 Zn24 1.949 . S
O25 Zn26 1.923 . S
O25 Zn27 1.950 . S
O25 Zn28 1.945 . S
Zn26 O25 1.923 . S
Zn26 O29 1.933 . S
Zn26 O32 1.941 . S
Zn26 O33 1.965 . S
Zn27 O25 1.950 . S
Zn27 O34 1.938 . S
Zn27 O35 1.906 . S
Zn27 O45 1.953 . S
Zn28 O25 1.945 . S
Zn28 O30 1.932 . S
Zn28 O37 1.977 . S
Zn28 O38 1.910 . S
O29 Zn26 1.933 . S
O29 C40 1.226 . S
O30 Zn28 1.932 . S
O30 C40 1.307 . S
O31 Zn24 1.919 . S
O31 C42 1.253 . S
O32 Zn26 1.941 . S
O32 C42 1.283 . S
O33 Zn26 1.965 . S
O33 C41 1.303 . S
O34 Zn27 1.938 . S
O34 C41 1.247 . S
O35 Zn27 1.906 . S
O35 C43 1.304 . S
O36 Zn24 1.924 . S
O36 C44 1.311 . S
O37 Zn28 1.977 . S
O37 C43 1.272 . S
O38 Zn28 1.910 . S
O38 C44 1.231 . S
C39 O23 1.225 . S
C39 O45 1.298 . S
C40 O29 1.226 . S
C40 O30 1.307 . S
C41 O33 1.303 . S
C41 O34 1.247 . S
C42 O31 1.253 . S
C42 O32 1.283 . S
C43 O35 1.304 . S
C43 O37 1.272 . S
C44 O36 1.311 . S
C44 O38 1.231 . S
O45 Zn27 1.953 . S
O45 C39 1.298 . S
O46 Zn47 1.953 . S
O46 C62 1.225 . S
Zn47 O46 1.953 . S
Zn47 O48 1.949 . S
Zn47 O54 1.919 . S
Zn47 O59 1.924 . S
O48 Zn47 1.949 . S
O48 Zn49 1.923 . S
O48 Zn50 1.950 . S
O48 Zn51 1.945 . S
Zn49 O48 1.923 . S
Zn49 O52 1.933 . S
Zn49 O55 1.941 . S
Zn49 O56 1.965 . S
Zn50 O48 1.950 . S
Zn50 O57 1.938 . S
Zn50 O58 1.906 . S
Zn50 O68 1.953 . S
Zn51 O48 1.945 . S
Zn51 O53 1.932 . S
Zn51 O60 1.977 . S
Zn51 O61 1.910 . S
O52 Zn49 1.933 . S
O52 C63 1.226 . S
O53 Zn51 1.932 . S
O53 C63 1.307 . S
O54 Zn47 1.919 . S
O54 C65 1.253 . S
O55 Zn49 1.941 . S
O55 C65 1.283 . S
O56 Zn49 1.965 . S
O56 C64 1.303 . S
O57 Zn50 1.938 . S
O57 C64 1.247 . S
O58 Zn50 1.906 . S
O58 C66 1.304 . S
O59 Zn47 1.924 . S
O59 C67 1.311 . S
O60 Zn51 1.977 . S
O60 C66 1.272 . S
O61 Zn51 1.910 . S
O61 C67 1.231 . S
C62 O46 1.225 . S
C62 O68 1.298 . S
C63 O52 1.226 . S
C63 O53 1.307 . S
C64 O56 1.303 . S
C64 O57 1.247 . S
C65 O54 1.253 . S
C65 O55 1.283 . S
C66 O58 1.304 . S
C66 O60 1.272 . S
C67 O59 1.311 . S
C67 O61 1.231 . S
O68 Zn50 1.953 . S
O68 C62 1.298 . S
O69 Zn70 1.953 . S
O69 C85 1.225 . S
Zn70 O69 1.953 . S
Zn70 O71 1.949 . S
Zn70 O77 1.919 . S
Zn70 O82 1.924 . S
O71 Zn70 1.949 . S
O71 Zn72 1.923 . S
O71 Zn73 1.950 . S
O71 Zn74 1.945 . S
Zn72 O71 1.923 . S
Zn72 O75 1.933 . S
Zn72 O78 1.941 . S
Zn72 O79 1.965 . S
Zn73 O71 1.950 . S
Zn73 O80 1.938 . S
Zn73 O81 1.906 . S
Zn73 O91 1.953 . S
Zn74 O71 1.945 . S
Zn74 O76 1.932 . S
Zn74 O83 1.977 . S
Zn74 O84 1.910 . S
O75 Zn72 1.933 . S
O75 C86 1.226 . S
O76 Zn74 1.932 . S
O76 C86 1.307 . S
O77 Zn70 1.919 . S
O77 C88 1.253 . S
O78 Zn72 1.941 . S
O78 C88 1.283 . S
O79 Zn72 1.965 . S
O79 C87 1.303 . S
O80 Zn73 1.938 . S
O80 C87 1.247 . S
O81 Zn73 1.906 . S
O81 C89 1.304 . S
O82 Zn70 1.924 . S
O82 C90 1.311 . S
O83 Zn74 1.977 . S
O83 C89 1.272 . S
O84 Zn74 1.910 . S
O84 C90 1.231 . S
C85 O69 1.225 . S
C85 O91 1.298 . S
C86 O75 1.226 . S
C86 O76 1.307 . S
C87 O79 1.303 . S
C87 O80 1.247 . S
C88 O77 1.253 . S
C88 O78 1.283 . S
C89 O81 1.304 . S
C89 O83 1.272 . S
C90 O82 1.311 . S
C90 O84 1.231 . S
O91 Zn73 1.953 . S
O91 C85 1.298 . S
O92 Zn93 1.953 . S
O92 C108 1.225 . S
Zn93 O92 1.953 . S
Zn93 O94 1.949 . S
Zn93 O100 1.919 . S
Zn93 O105 1.924 . S
O94 Zn93 1.949 . S
O94 Zn95 1.923 . S
O94 Zn96 1.950 . S
O94 Zn97 1.945 . S
Zn95 O94 1.923 . S
Zn95 O98 1.933 . S
Zn95 O101 1.941 . S
Zn95 O102 1.965 . S
Zn96 O94 1.950 . S
Zn96 O103 1.938 . S
Zn96 O104 1.906 . S
Zn96 O114 1.953 . S
Zn97 O94 1.945 . S
Zn97 O99 1.932 . S
Zn97 O106 1.977 . S
Zn97 O107 1.910 . S
O98 Zn95 1.933 . S
O98 C109 1.226 . S
O99 Zn97 1.932 . S
O99 C109 1.307 . S
O100 Zn93 1.919 . S
O100 C111 1.253 . S
O101 Zn95 1.941 . S
O101 C111 1.283 . S
O102 Zn95 1.965 . S
O102 C110 1.303 . S
O103 Zn96 1.938 . S
O103 C110 1.247 . S
O104 Zn96 1.906 . S
O104 C112 1.304 . S
O105 Zn93 1.924 . S
O105 C113 1.311 . S
O106 Zn97 1.977 . S
O106 C112 1.272 . S
O107 Zn97 1.910 . S
O107 C113 1.231 . S
C108 O92 1.225 . S
C108 O114 1.298 . S
C109 O98 1.226 . S
C109 O99 1.307 . S
C110 O102 1.303 . S
C110 O103 1.247 . S
C111 O100 1.253 . S
C111 O101 1.283 . S
C112 O104 1.304 . S
C112 O106 1.272 . S
C113 O105 1.311 . S
C113 O107 1.231 . S
O114 Zn96 1.953 . S
O114 C108 1.298 . S
O115 Zn116 1.953 . S
O115 C131 1.225 . S
Zn116 O115 1.953 . S
Zn116 O117 1.949 . S
Zn116 O123 1.919 . S
Zn116 O128 1.924 . S
O117 Zn116 1.949 . S
O117 Zn118 1.923 . S
O117 Zn119 1.950 . S
O117 Zn120 1.945 . S
Zn118 O117 1.923 . S
Zn118 O121 1.933 . S
Zn118 O124 1.941 . S
Zn118 O125 1.965 . S
Zn119 O117 1.950 . S
Zn119 O126 1.938 . S
Zn119 O127 1.906 . S
Zn119 O137 1.953 . S
Zn120 O117 1.945 . S
Zn120 O122 1.932 . S
Zn120 O129 1.977 . S
Zn120 O130 1.910 . S
O121 Zn118 1.933 . S
O121 C132 1.226 . S
O122 Zn120 1.932 . S
O122 C132 1.307 . S
O123 Zn116 1.919 . S
O123 C134 1.253 . S
O124 Zn118 1.941 . S
O124 C134 1.283 . S
O125 Zn118 1.965 . S
O125 C133 1.303 . S
O126 Zn119 1.938 . S
O126 C133 1.247 . S
O127 Zn119 1.906 . S
O127 C135 1.304 . S
O128 Zn116 1.924 . S
O128 C136 1.311 . S
O129 Zn120 1.977 . S
O129 C135 1.272 . S
O130 Zn120 1.910 . S
O130 C136 1.231 . S
C131 O115 1.225 . S
C131 O137 1.298 . S
C132 O121 1.226 . S
C132 O122 1.307 . S
C133 O125 1.303 . S
C133 O126 1.247 . S
C134 O123 1.253 . S
C134 O124 1.283 . S
C135 O127 1.304 . S
C135 O129 1.272 . S
C136 O128 1.311 . S
C136 O130 1.231 . S
O137 Zn119 1.953 . S
O137 C131 1.298 . S
O138 Zn139 1.953 . S
O138 C154 1.225 . S
Zn139 O138 1.953 . S
Zn139 O140 1.949 . S
Zn139 O146 1.919 . S
Zn139 O151 1.924 . S
O140 Zn139 1.949 . S
O140 Zn141 1.923 . S
O140 Zn142 1.950 . S
O140 Zn143 1.945 . S
Zn141 O140 1.923 . S
Zn141 O144 1.933 . S
Zn141 O147 1.941 . S
Zn141 O148 1.965 . S
Zn142 O140 1.950 . S
Zn142 O149 1.938 . S
Zn142 O150 1.906 . S
Zn142 O160 1.953 . S
Zn143 O140 1.945 . S
Zn143 O145 1.932 . S
Zn143 O152 1.977 . S
Zn143 O153 1.910 . S
O144 Zn141 1.933 . S
O144 C155 1.226 . S
O145 Zn143 1.932 . S
O145 C155 1.307 . S
O146 Zn139 1.919 . S
O146 C157 1.253 . S
O147 Zn141 1.941 . S
O147 C157 1.283 . S
O148 Zn141 1.965 . S
O148 C156 1.303 . S
O149 Zn142 1.938 . S
O149 C156 1.247 . S
O150 Zn142 1.906 . S
O150 C158 1.304 . S
O151 Zn139 1.924 . S
O151 C159 1.311 . S
O152 Zn143 1.977 . S
O152 C158 1.272 . S
O153 Zn143 1.910 . S
O153 C159 1.231 . S
C154 O138 1.225 . S
C154 O160 1.298 . S
C155 O144 1.226 . S
C155 O145 1.307 . S
C156 O148 1.303 . S
C156 O149 1.247 . S
C157 O146 1.253 . S
C157 O147 1.283 . S
C158 O150 1.304 . S
C158 O152 1.272 . S
C159 O151 1.311 . S
C159 O153 1.231 . S
O160 Zn142 1.953 . S
O160 C154 1.298 . S
O161 Zn162 1.953 . S
O161 C177 1.225 . S
Zn162 O161 1.953 . S
Zn162 O163 1.949 . S
Zn162 O169 1.919 . S
Zn162 O174 1.924 . S
O163 Zn162 1.949 . S
O163 Zn164 1.923 . S
O163 Zn165 1.950 . S
O163 Zn166 1.945 . S
Zn164 O163 1.923 . S
Zn164 O167 1.933 . S
Zn164 O170 1.941 . S
Zn164 O171 1.965 . S
Zn165 O163 1.950 . S
Zn165 O172 1.938 . S
Zn165 O173 1.906 . S
Zn165 O183 1.953 . S
Zn166 O163 1.945 . S
Zn166 O168 1.932 . S
Zn166 O175 1.977 . S
Zn166 O176 1.910 . S
O167 Zn164 1.933 . S
O167 C178 1.226 . S
O168 Zn166 1.932 . S
O168 C178 1.307 . S
O169 Zn162 1.919 . S
O169 C180 1.253 . S
O170 Zn164 1.941 . S
O170 C180 1.283 . S
O171 Zn164 1.965 . S
O171 C179 1.303 . S
O172 Zn165 1.938 . S
O172 C179 1.247 . S
O173 Zn165 1.906 . S
O173 C181 1.304 . S
O174 Zn162 1.924 . S
O174 C182 1.311 . S
O175 Zn166 1.977 . S
O175 C181 1.272 . S
O176 Zn166 1.910 . S
O176 C182 1.231 . S
C177 O161 1.225 . S
C177 O183 1.298 . S
C178 O167 1.226 . S
C178 O168 1.307 . S
C179 O171 1.303 . S
C179 O172 1.247 . S
C180 O169 1.253 . S
C180 O170 1.283 . S
C181 O173 1.304 . S
C181 O175 1.272 . S
C182 O174 1.311 . S
C182 O176 1.231 . S
O183 Zn165 1.953 . S
O183 C177 1.298 . S
C184 O196 1.241 . S
C184 O197 1.280 . S
C185 O198 1.277 . S
C185 O199 1.245 . S
C186 O210 1.247 . S
C186 O212 1.289 . S
Mg187 O188 1.926 . S
Mg187 O197 1.984 . S
Mg187 O199 1.988 . S
Mg187 O200 2.061 1_655 S
O188 Mg187 1.926 . S
O188 Mg189 1.986 . S
O188 Mg190 1.917 1_655 S
Mg189 O188 1.986 . S
Mg189 O196 2.042 . S
Mg189 O198 2.041 . S
Mg189 O204 2.038 1_545 S
Mg189 O212 2.238 1_545 S
Mg190 O188 1.917 1_455 S
Mg190 O191 1.917 1_545 S
Mg190 O201 2.106 . S
Mg190 O203 2.079 1_445 S
Mg190 O212 2.106 1_445 S
Mg190 O213 2.079 . S
O191 Mg190 1.917 1_565 S
O191 Mg192 1.926 . S
O191 Mg193 1.987 1_565 S
Mg192 O191 1.926 . S
Mg192 O206 1.984 . S
Mg192 O209 1.988 . S
Mg192 O210 2.061 1_455 S
Mg193 O191 1.987 1_545 S
Mg193 O201 2.236 . S
Mg193 O205 2.045 1_545 S
Mg193 O207 2.043 1_545 S
Mg193 O214 2.036 . S
C194 O200 1.247 . S
C194 O201 1.289 . S
C195 O213 1.245 . S
C195 O214 1.274 . S
O196 C184 1.241 . S
O196 Mg189 2.042 . S
O197 C184 1.280 . S
O197 Mg187 1.984 . S
O198 C185 1.277 . S
O198 Mg189 2.041 . S
O199 C185 1.245 . S
O199 Mg187 1.988 . S
O200 Mg187 2.061 1_455 S
O200 C194 1.247 . S
O201 Mg190 2.106 . S
O201 Mg193 2.236 . S
O201 C194 1.289 . S
C202 O203 1.245 . S
C202 O204 1.274 . S
O203 Mg190 2.079 1_665 S
O203 C202 1.245 . S
O204 Mg189 2.038 1_565 S
O204 C202 1.274 . S
O205 Mg193 2.045 1_565 S
O205 C208 1.241 . S
O206 Mg192 1.984 . S
O206 C208 1.280 . S
O207 Mg193 2.043 1_565 S
O207 C211 1.277 . S
C208 O205 1.241 . S
C208 O206 1.280 . S
O209 Mg192 1.988 . S
O209 C211 1.245 . S
O210 C186 1.247 . S
O210 Mg192 2.061 1_655 S
C211 O207 1.277 . S
C211 O209 1.245 . S
O212 C186 1.289 . S
O212 Mg189 2.238 1_565 S
O212 Mg190 2.106 1_665 S
O213 Mg190 2.079 . S
O213 C195 1.245 . S
O214 Mg193 2.036 . S
O214 C195 1.274 . S
C215 O227 1.241 . S
C215 O228 1.280 . S
C216 O229 1.277 . S
C216 O230 1.245 . S
C217 O241 1.247 . S
C217 O243 1.289 . S
Mg218 O219 1.926 . S
Mg218 O228 1.984 . S
Mg218 O230 1.988 1_554 S
Mg218 O231 2.061 . S
O219 Mg218 1.926 . S
O219 Mg220 1.986 . S
O219 Mg221 1.917 . S
Mg220 O219 1.986 . S
Mg220 O227 2.042 . S
Mg220 O229 2.041 1_554 S
Mg220 O235 2.038 1_545 S
Mg220 O243 2.238 1_544 S
Mg221 O219 1.917 . S
Mg221 O222 1.917 1_545 S
Mg221 O232 2.106 . S
Mg221 O234 2.079 1_545 S
Mg221 O243 2.106 1_544 S
Mg221 O244 2.079 1_554 S
O222 Mg221 1.917 1_565 S
O222 Mg223 1.926 1_554 S
O222 Mg224 1.986 . S
Mg223 O222 1.926 1_556 S
Mg223 O237 1.984 . S
Mg223 O240 1.988 1_556 S
Mg223 O241 2.061 . S
Mg224 O222 1.986 . S
Mg224 O232 2.238 1_565 S
Mg224 O236 2.042 1_554 S
Mg224 O238 2.041 . S
Mg224 O245 2.038 1_564 S
C225 O231 1.247 . S
C225 O232 1.289 . S
C226 O244 1.245 . S
C226 O245 1.274 . S
O227 C215 1.241 . S
O227 Mg220 2.042 . S
O228 C215 1.280 . S
O228 Mg218 1.984 . S
O229 C216 1.277 . S
O229 Mg220 2.041 1_556 S
O230 C216 1.245 . S
O230 Mg218 1.988 1_556 S
O231 Mg218 2.061 . S
O231 C225 1.247 . S
O232 Mg221 2.106 . S
O232 Mg224 2.238 1_545 S
O232 C225 1.289 . S
C233 O234 1.245 . S
C233 O235 1.274 . S
O234 Mg221 2.079 1_565 S
O234 C233 1.245 . S
O235 Mg220 2.038 1_565 S
O235 C233 1.274 . S
O236 Mg224 2.042 1_556 S
O236 C239 1.241 . S
O237 Mg223 1.984 . S
O237 C239 1.280 . S
O238 Mg224 2.041 . S
O238 C242 1.277 . S
C239 O236 1.241 . S
C239 O237 1.280 . S
O240 Mg223 1.988 1_554 S
O240 C242 1.245 . S
O241 C217 1.247 . S
O241 Mg223 2.061 . S
C242 O238 1.277 . S
C242 O240 1.245 . S
O243 C217 1.289 . S
O243 Mg220 2.238 1_566 S
O243 Mg221 2.106 1_566 S
O244 Mg221 2.079 1_556 S
O244 C226 1.245 . S
O245 Mg224 2.038 1_546 S
O245 C226 1.274 . S
C246 O258 1.241 . S
C246 O259 1.280 . S
C247 O260 1.277 . S
C247 O261 1.245 . S
C248 O272 1.247 . S
C248 O274 1.289 . S
Mg249 O250 1.926 . S
Mg249 O259 1.984 . S
Mg249 O261 1.988 1_554 S
Mg249 O262 2.061 1_655 S
O250 Mg249 1.926 . S
O250 Mg251 1.986 . S
O250 Mg252 1.917 1_655 S
Mg251 O250 1.986 . S
Mg251 O258 2.042 . S
Mg251 O260 2.041 1_554 S
Mg251 O266 2.038 . S
Mg251 O274 2.238 1_554 S
Mg252 O250 1.917 1_455 S
Mg252 O253 1.917 1_554 S
Mg252 O263 2.106 . S
Mg252 O265 2.079 1_455 S
Mg252 O274 2.106 1_454 S
Mg252 O275 2.079 1_554 S
O253 Mg252 1.917 1_556 S
O253 Mg254 1.926 . S
O253 Mg255 1.986 1_556 S
Mg254 O253 1.926 . S
Mg254 O268 1.984 . S
Mg254 O271 1.988 1_556 S
Mg254 O272 2.061 1_455 S
Mg255 O253 1.986 1_554 S
Mg255 O263 2.238 . S
Mg255 O267 2.042 1_554 S
Mg255 O269 2.041 . S
Mg255 O276 2.038 1_554 S
C256 O262 1.247 . S
C256 O263 1.289 . S
C257 O275 1.245 . S
C257 O276 1.274 . S
O258 C246 1.241 . S
O258 Mg251 2.042 . S
O259 C246 1.280 . S
O259 Mg249 1.984 . S
O260 C247 1.277 . S
O260 Mg251 2.041 1_556 S
O261 C247 1.245 . S
O261 Mg249 1.988 1_556 S
O262 Mg249 2.061 1_455 S
O262 C256 1.247 . S
O263 Mg252 2.106 . S
O263 Mg255 2.238 . S
O263 C256 1.289 . S
C264 O265 1.245 . S
C264 O266 1.274 . S
O265 Mg252 2.079 1_655 S
O265 C264 1.245 . S
O266 Mg251 2.038 . S
O266 C264 1.274 . S
O267 Mg255 2.042 1_556 S
O267 C270 1.241 . S
O268 Mg254 1.984 . S
O268 C270 1.280 . S
O269 Mg255 2.041 . S
O269 C273 1.277 . S
C270 O267 1.241 . S
C270 O268 1.280 . S
O271 Mg254 1.988 1_554 S
O271 C273 1.245 . S
O272 C248 1.247 . S
O272 Mg254 2.061 1_655 S
C273 O269 1.277 . S
C273 O271 1.245 . S
O274 C248 1.289 . S
O274 Mg251 2.238 1_556 S
O274 Mg252 2.106 1_656 S
O275 Mg252 2.079 1_556 S
O275 C257 1.245 . S
O276 Mg255 2.038 1_556 S
O276 C257 1.274 . S
C277 O289 1.241 . S
C277 O290 1.280 . S
C278 O291 1.277 . S
C278 O292 1.245 . S
C279 O303 1.247 . S
C279 O305 1.289 . S
Mg280 O281 1.926 . S
Mg280 O290 1.984 . S
Mg280 O292 1.988 1_554 S
Mg280 O293 2.061 . S
O281 Mg280 1.926 . S
O281 Mg282 1.986 . S
O281 Mg283 1.917 . S
Mg282 O281 1.986 . S
Mg282 O289 2.042 . S
Mg282 O291 2.041 1_554 S
Mg282 O297 2.038 . S
Mg282 O305 2.238 1_554 S
Mg283 O281 1.917 . S
Mg283 O284 1.920 . S
Mg283 O294 2.106 . S
Mg283 O296 2.079 . S
Mg283 O305 2.106 1_554 S
Mg283 O306 2.079 1_554 S
O284 Mg283 1.920 . S
O284 Mg285 1.926 1_554 S
O284 Mg286 1.988 . S
Mg285 O284 1.926 1_556 S
Mg285 O299 1.984 . S
Mg285 O302 1.988 1_556 S
Mg285 O303 2.061 . S
Mg286 O284 1.988 . S
Mg286 O294 2.238 . S
Mg286 O298 2.042 1_554 S
Mg286 O300 2.041 . S
Mg286 O307 2.038 1_554 S
C287 O293 1.247 . S
C287 O294 1.289 . S
C288 O306 1.245 . S
C288 O307 1.274 . S
O289 C277 1.241 . S
O289 Mg282 2.042 . S
O290 C277 1.280 . S
O290 Mg280 1.984 . S
O291 C278 1.277 . S
O291 Mg282 2.041 1_556 S
O292 C278 1.245 . S
O292 Mg280 1.988 1_556 S
O293 Mg280 2.061 . S
O293 C287 1.247 . S
O294 Mg283 2.106 . S
O294 Mg286 2.238 . S
O294 C287 1.289 . S
C295 O296 1.245 . S
C295 O297 1.274 . S
O296 Mg283 2.079 . S
O296 C295 1.245 . S
O297 Mg282 2.038 . S
O297 C295 1.274 . S
O298 Mg286 2.042 1_556 S
O298 C301 1.241 . S
O299 Mg285 1.984 . S
O299 C301 1.280 . S
O300 Mg286 2.041 . S
O300 C304 1.277 . S
C301 O298 1.241 . S
C301 O299 1.280 . S
O302 Mg285 1.988 1_554 S
O302 C304 1.245 . S
O303 C279 1.247 . S
O303 Mg285 2.061 . S
C304 O300 1.277 . S
C304 O302 1.245 . S
O305 C279 1.289 . S
O305 Mg282 2.238 1_556 S
O305 Mg283 2.106 1_556 S
O306 Mg283 2.079 1_556 S
O306 C288 1.245 . S
O307 Mg286 2.038 1_556 S
O307 C288 1.274 . S
C308 O320 1.241 . S
C308 O321 1.280 . S
C309 O322 1.277 . S
C309 O323 1.245 . S
C310 O334 1.247 . S
C310 O336 1.289 . S
Mg311 O312 1.926 . S
Mg311 O321 1.984 . S
Mg311 O323 1.988 . S
Mg311 O324 2.061 1_655 S
O312 Mg311 1.926 . S
O312 Mg313 1.986 . S
O312 Mg314 1.917 1_655 S
Mg313 O312 1.986 . S
Mg313 O320 2.042 . S
Mg313 O322 2.041 . S
Mg313 O328 2.038 . S
Mg313 O336 2.238 . S
Mg314 O312 1.917 1_455 S
Mg314 O315 1.917 . S
Mg314 O325 2.106 . S
Mg314 O327 2.079 1_455 S
Mg314 O336 2.106 1_455 S
Mg314 O337 2.079 . S
O315 Mg314 1.917 . S
O315 Mg316 1.926 . S
O315 Mg317 1.986 . S
Mg316 O315 1.926 . S
Mg316 O330 1.984 . S
Mg316 O333 1.988 . S
Mg316 O334 2.061 1_455 S
Mg317 O315 1.986 . S
Mg317 O325 2.238 . S
Mg317 O329 2.042 . S
Mg317 O331 2.041 . S
Mg317 O338 2.038 . S
C318 O324 1.247 . S
C318 O325 1.289 . S
C319 O337 1.245 . S
C319 O338 1.274 . S
O320 C308 1.241 . S
O320 Mg313 2.042 . S
O321 C308 1.280 . S
O321 Mg311 1.984 . S
O322 C309 1.277 . S
O322 Mg313 2.041 . S
O323 C309 1.245 . S
O323 Mg311 1.988 . S
O324 Mg311 2.061 1_455 S
O324 C318 1.247 . S
O325 Mg314 2.106 . S
O325 Mg317 2.238 . S
O325 C318 1.289 . S
C326 O327 1.245 . S
C326 O328 1.274 . S
O327 Mg314 2.079 1_655 S
O327 C326 1.245 . S
O328 Mg313 2.038 . S
O328 C326 1.274 . S
O329 Mg317 2.042 . S
O329 C332 1.241 . S
O330 Mg316 1.984 . S
O330 C332 1.280 . S
O331 Mg317 2.041 . S
O331 C335 1.277 . S
C332 O329 1.241 . S
C332 O330 1.280 . S
O333 Mg316 1.988 . S
O333 C335 1.245 . S
O334 C310 1.247 . S
O334 Mg316 2.061 1_655 S
C335 O331 1.277 . S
C335 O333 1.245 . S
O336 C310 1.289 . S
O336 Mg313 2.238 . S
O336 Mg314 2.106 1_655 S
O337 Mg314 2.079 . S
O337 C319 1.245 . S
O338 Mg317 2.038 . S
O338 C319 1.274 . S
C339 O351 1.241 . S
C339 O352 1.280 . S
C340 O353 1.277 . S
C340 O354 1.245 . S
C341 O365 1.247 . S
C341 O367 1.289 . S
Mg342 O343 1.926 . S
Mg342 O352 1.984 . S
Mg342 O354 1.988 . S
Mg342 O355 2.061 . S
O343 Mg342 1.926 . S
O343 Mg344 1.986 . S
O343 Mg345 1.917 . S
Mg344 O343 1.986 . S
Mg344 O351 2.042 . S
Mg344 O353 2.041 . S
Mg344 O359 2.038 1_545 S
Mg344 O367 2.238 1_545 S
Mg345 O343 1.917 . S
Mg345 O346 1.917 1_545 S
Mg345 O356 2.106 . S
Mg345 O358 2.079 1_545 S
Mg345 O367 2.106 1_545 S
Mg345 O368 2.079 . S
O346 Mg345 1.917 1_565 S
O346 Mg347 1.926 . S
O346 Mg348 1.986 1_565 S
Mg347 O346 1.926 . S
Mg347 O361 1.984 . S
Mg347 O364 1.988 . S
Mg347 O365 2.061 . S
Mg348 O346 1.986 1_545 S
Mg348 O356 2.238 . S
Mg348 O360 2.042 1_545 S
Mg348 O362 2.041 1_545 S
Mg348 O369 2.038 . S
C349 O355 1.247 . S
C349 O356 1.289 . S
C350 O368 1.245 . S
C350 O369 1.274 . S
O351 C339 1.241 . S
O351 Mg344 2.042 . S
O352 C339 1.280 . S
O352 Mg342 1.984 . S
O353 C340 1.277 . S
O353 Mg344 2.041 . S
O354 C340 1.245 . S
O354 Mg342 1.988 . S
O355 Mg342 2.061 . S
O355 C349 1.247 . S
O356 Mg345 2.106 . S
O356 Mg348 2.238 . S
O356 C349 1.289 . S
C357 O358 1.245 . S
C357 O359 1.274 . S
O358 Mg345 2.079 1_565 S
O358 C357 1.245 . S
O359 Mg344 2.038 1_565 S
O359 C357 1.274 . S
O360 Mg348 2.042 1_565 S
O360 C363 1.241 . S
O361 Mg347 1.984 . S
O361 C363 1.280 . S
O362 Mg348 2.041 1_565 S
O362 C366 1.277 . S
C363 O360 1.241 . S
C363 O361 1.280 . S
O364 Mg347 1.988 . S
O364 C366 1.245 . S
O365 C341 1.247 . S
O365 Mg347 2.061 . S
C366 O362 1.277 . S
C366 O364 1.245 . S
O367 C341 1.289 . S
O367 Mg344 2.238 1_565 S
O367 Mg345 2.106 1_565 S
O368 Mg345 2.079 . S
O368 C350 1.245 . S
O369 Mg348 2.038 . S
O369 C350 1.274 . S
H370 C378 0.950 . S
H371 C383 0.950 . S
H372 C380 0.950 . S
H373 C382 0.950 . S
H374 C384 0.950 . S
H375 C386 0.950 . S
H376 C388 0.950 . S
H377 C389 0.950 . S
C378 H370 0.950 . S
C378 C379 1.386 . S
C378 C380 1.391 . S
C379 C378 1.386 . S
C379 C383 1.393 . S
C380 H372 0.950 . S
C380 C378 1.391 . S
C380 C381 1.400 . S
C381 C380 1.400 . S
C381 C382 1.398 . S
C381 C387 1.491 . S
C382 H373 0.950 . S
C382 C381 1.398 . S
C382 C383 1.391 . S
C383 H371 0.950 . S
C383 C379 1.393 . S
C383 C382 1.391 . S
C384 H374 0.950 . S
C384 C385 1.386 . S
C384 C386 1.391 . S
C385 C384 1.386 . S
C385 C389 1.393 . S
C386 H375 0.950 . S
C386 C384 1.391 . S
C386 C387 1.400 . S
C387 C381 1.491 . S
C387 C386 1.400 . S
C387 C388 1.398 . S
C388 H376 0.950 . S
C388 C387 1.398 . S
C388 C389 1.391 . S
C389 H377 0.950 . S
C389 C385 1.393 . S
C389 C388 1.391 . S
H390 C398 0.950 . S
H391 C403 0.950 . S
H392 C400 0.950 . S
H393 C402 0.950 . S
H394 C404 0.950 . S
H395 C406 0.950 . S
H396 C408 0.950 . S
H397 C409 0.950 . S
C398 H390 0.950 . S
C398 C399 1.386 . S
C398 C400 1.391 . S
C399 C398 1.386 . S
C399 C403 1.393 . S
C400 H392 0.950 . S
C400 C398 1.391 . S
C400 C401 1.400 . S
C401 C400 1.400 . S
C401 C402 1.398 . S
C401 C407 1.491 . S
C402 H393 0.950 . S
C402 C401 1.398 . S
C402 C403 1.391 . S
C403 H391 0.950 . S
C403 C399 1.393 . S
C403 C402 1.391 . S
C404 H394 0.950 . S
C404 C405 1.386 . S
C404 C406 1.391 . S
C405 C404 1.386 . S
C405 C409 1.393 . S
C406 H395 0.950 . S
C406 C404 1.391 . S
C406 C407 1.400 . S
C407 C401 1.491 . S
C407 C406 1.400 . S
C407 C408 1.398 . S
C408 H396 0.950 . S
C408 C407 1.398 . S
C408 C409 1.391 . S
C409 H397 0.950 . S
C409 C405 1.393 . S
C409 C408 1.391 . S
H410 C418 0.950 . S
H411 C423 0.950 . S
H412 C420 0.950 . S
H413 C422 0.950 . S
H414 C424 0.950 . S
H415 C426 0.950 . S
H416 C428 0.950 . S
H417 C429 0.950 . S
C418 H410 0.950 . S
C418 C419 1.386 . S
C418 C420 1.391 . S
C419 C418 1.386 . S
C419 C423 1.393 . S
C420 H412 0.950 . S
C420 C418 1.391 . S
C420 C421 1.400 . S
C421 C420 1.400 . S
C421 C422 1.398 . S
C421 C427 1.491 . S
C422 H413 0.950 . S
C422 C421 1.398 . S
C422 C423 1.391 . S
C423 H411 0.950 . S
C423 C419 1.393 . S
C423 C422 1.391 . S
C424 H414 0.950 . S
C424 C425 1.386 . S
C424 C426 1.391 . S
C425 C424 1.386 . S
C425 C429 1.393 . S
C426 H415 0.950 . S
C426 C424 1.391 . S
C426 C427 1.400 . S
C427 C421 1.491 . S
C427 C426 1.400 . S
C427 C428 1.398 . S
C428 H416 0.950 . S
C428 C427 1.398 . S
C428 C429 1.391 . S
C429 H417 0.950 . S
C429 C425 1.393 . S
C429 C428 1.391 . S
H430 C438 0.950 . S
H431 C443 0.950 . S
H432 C440 0.950 . S
H433 C442 0.950 . S
H434 C444 0.950 . S
H435 C446 0.950 . S
H436 C448 0.950 . S
H437 C449 0.950 . S
C438 H430 0.950 . S
C438 C439 1.386 . S
C438 C440 1.391 . S
C439 C438 1.386 . S
C439 C443 1.393 . S
C440 H432 0.950 . S
C440 C438 1.391 . S
C440 C441 1.400 . S
C441 C440 1.400 . S
C441 C442 1.398 . S
C441 C447 1.491 . S
C442 H433 0.950 . S
C442 C441 1.398 . S
C442 C443 1.391 . S
C443 H431 0.950 . S
C443 C439 1.393 . S
C443 C442 1.391 . S
C444 H434 0.950 . S
C444 C445 1.386 . S
C444 C446 1.391 . S
C445 C444 1.386 . S
C445 C449 1.393 . S
C446 H435 0.950 . S
C446 C444 1.391 . S
C446 C447 1.400 . S
C447 C441 1.491 . S
C447 C446 1.400 . S
C447 C448 1.398 . S
C448 H436 0.950 . S
C448 C447 1.398 . S
C448 C449 1.391 . S
C449 H437 0.950 . S
C449 C445 1.393 . S
C449 C448 1.391 . S
H450 C458 0.950 . S
H451 C463 0.950 . S
H452 C460 0.950 . S
H453 C462 0.950 . S
H454 C464 0.950 . S
H455 C466 0.950 . S
H456 C468 0.950 . S
H457 C469 0.950 . S
C458 H450 0.950 . S
C458 C459 1.386 . S
C458 C460 1.391 . S
C459 C458 1.386 . S
C459 C463 1.393 . S
C460 H452 0.950 . S
C460 C458 1.391 . S
C460 C461 1.400 . S
C461 C460 1.400 . S
C461 C462 1.398 . S
C461 C467 1.491 . S
C462 H453 0.950 . S
C462 C461 1.398 . S
C462 C463 1.391 . S
C463 H451 0.950 . S
C463 C459 1.393 . S
C463 C462 1.391 . S
C464 H454 0.950 . S
C464 C465 1.386 . S
C464 C466 1.391 . S
C465 C464 1.386 . S
C465 C469 1.393 . S
C466 H455 0.950 . S
C466 C464 1.391 . S
C466 C467 1.400 . S
C467 C461 1.491 . S
C467 C466 1.400 . S
C467 C468 1.398 . S
C468 H456 0.950 . S
C468 C467 1.398 . S
C468 C469 1.391 . S
C469 H457 0.950 . S
C469 C465 1.393 . S
C469 C468 1.391 . S
H470 C478 0.950 . S
H471 C483 0.950 . S
H472 C480 0.950 . S
H473 C482 0.950 . S
H474 C484 0.950 . S
H475 C486 0.950 . S
H476 C488 0.950 . S
H477 C489 0.950 . S
C478 H470 0.950 . S
C478 C479 1.386 . S
C478 C480 1.391 . S
C479 C478 1.386 . S
C479 C483 1.393 . S
C480 H472 0.950 . S
C480 C478 1.391 . S
C480 C481 1.400 . S
C481 C480 1.400 . S
C481 C482 1.398 . S
C481 C487 1.491 . S
C482 H473 0.950 . S
C482 C481 1.398 . S
C482 C483 1.391 . S
C483 H471 0.950 . S
C483 C479 1.393 . S
C483 C482 1.391 . S
C484 H474 0.950 . S
C484 C485 1.386 . S
C484 C486 1.391 . S
C485 C484 1.386 . S
C485 C489 1.393 . S
C486 H475 0.950 . S
C486 C484 1.391 . S
C486 C487 1.400 . S
C487 C481 1.491 . S
C487 C486 1.400 . S
C487 C488 1.398 . S
C488 H476 0.950 . S
C488 C487 1.398 . S
C488 C489 1.391 . S
C489 H477 0.950 . S
C489 C485 1.393 . S
C489 C488 1.391 . S
H490 C498 0.950 . S
H491 C503 0.950 . S
H492 C500 0.950 . S
H493 C502 0.950 . S
H494 C504 0.950 . S
H495 C506 0.950 . S
H496 C508 0.950 . S
H497 C509 0.950 . S
C498 H490 0.950 . S
C498 C499 1.386 . S
C498 C500 1.391 . S
C499 C498 1.386 . S
C499 C503 1.393 . S
C500 H492 0.950 . S
C500 C498 1.391 . S
C500 C501 1.400 . S
C501 C500 1.400 . S
C501 C502 1.398 . S
C501 C507 1.491 . S
C502 H493 0.950 . S
C502 C501 1.398 . S
C502 C503 1.391 . S
C503 H491 0.950 . S
C503 C499 1.393 . S
C503 C502 1.391 . S
C504 H494 0.950 . S
C504 C505 1.386 . S
C504 C506 1.391 . S
C505 C504 1.386 . S
C505 C509 1.393 . S
C506 H495 0.950 . S
C506 C504 1.391 . S
C506 C507 1.400 . S
C507 C501 1.491 . S
C507 C506 1.400 . S
C507 C508 1.398 . S
C508 H496 0.950 . S
C508 C507 1.398 . S
C508 C509 1.391 . S
C509 H497 0.950 . S
C509 C505 1.393 . S
C509 C508 1.391 . S
H510 C518 0.950 . S
H511 C523 0.950 . S
H512 C520 0.950 . S
H513 C522 0.950 . S
H514 C524 0.950 . S
H515 C526 0.950 . S
H516 C528 0.950 . S
H517 C529 0.950 . S
C518 H510 0.950 . S
C518 C519 1.386 . S
C518 C520 1.391 . S
C519 C518 1.386 . S
C519 C523 1.393 . S
C520 H512 0.950 . S
C520 C518 1.391 . S
C520 C521 1.400 . S
C521 C520 1.400 . S
C521 C522 1.398 . S
C521 C527 1.491 . S
C522 H513 0.950 . S
C522 C521 1.398 . S
C522 C523 1.391 . S
C523 H511 0.950 . S
C523 C519 1.393 . S
C523 C522 1.391 . S
C524 H514 0.950 . S
C524 C525 1.386 . S
C524 C526 1.391 . S
C525 C524 1.386 . S
C525 C529 1.393 . S
C526 H515 0.950 . S
C526 C524 1.391 . S
C526 C527 1.400 . S
C527 C521 1.491 . S
C527 C526 1.400 . S
C527 C528 1.398 . S
C528 H516 0.950 . S
C528 C527 1.398 . S
C528 C529 1.391 . S
C529 H517 0.950 . S
C529 C525 1.393 . S
C529 C528 1.391 . S
H530 C538 0.950 . S
H531 C543 0.950 . S
H532 C540 0.950 . S
H533 C542 0.950 . S
H534 C544 0.950 . S
H535 C546 0.950 . S
H536 C548 0.950 . S
H537 C549 0.950 . S
C538 H530 0.950 . S
C538 C539 1.386 . S
C538 C540 1.391 . S
C539 C538 1.386 . S
C539 C543 1.393 . S
C540 H532 0.950 . S
C540 C538 1.391 . S
C540 C541 1.400 . S
C541 C540 1.400 . S
C541 C542 1.398 . S
C541 C547 1.491 . S
C542 H533 0.950 . S
C542 C541 1.398 . S
C542 C543 1.391 . S
C543 H531 0.950 . S
C543 C539 1.393 . S
C543 C542 1.391 . S
C544 H534 0.950 . S
C544 C545 1.386 . S
C544 C546 1.391 . S
C545 C544 1.386 . S
C545 C549 1.393 . S
C546 H535 0.950 . S
C546 C544 1.391 . S
C546 C547 1.400 . S
C547 C541 1.491 . S
C547 C546 1.400 . S
C547 C548 1.398 . S
C548 H536 0.950 . S
C548 C547 1.398 . S
C548 C549 1.391 . S
C549 H537 0.950 . S
C549 C545 1.393 . S
C549 C548 1.391 . S
H550 C558 0.950 . S
H551 C563 0.950 . S
H552 C560 0.950 . S
H553 C562 0.950 . S
H554 C564 0.950 . S
H555 C566 0.950 . S
H556 C568 0.950 . S
H557 C569 0.950 . S
C558 H550 0.950 . S
C558 C559 1.386 . S
C558 C560 1.391 . S
C559 C558 1.386 . S
C559 C563 1.393 . S
C560 H552 0.950 . S
C560 C558 1.391 . S
C560 C561 1.400 . S
C561 C560 1.400 . S
C561 C562 1.398 . S
C561 C567 1.491 . S
C562 H553 0.950 . S
C562 C561 1.398 . S
C562 C563 1.391 . S
C563 H551 0.950 . S
C563 C559 1.393 . S
C563 C562 1.391 . S
C564 H554 0.950 . S
C564 C565 1.386 . S
C564 C566 1.391 . S
C565 C564 1.386 . S
C565 C569 1.393 . S
C566 H555 0.950 . S
C566 C564 1.391 . S
C566 C567 1.400 . S
C567 C561 1.491 . S
C567 C566 1.400 . S
C567 C568 1.398 . S
C568 H556 0.950 . S
C568 C567 1.398 . S
C568 C569 1.391 . S
C569 H557 0.950 . S
C569 C565 1.393 . S
C569 C568 1.391 . S
H570 C578 0.950 . S
H571 C583 0.950 . S
H572 C580 0.950 . S
H573 C582 0.950 . S
H574 C584 0.950 . S
H575 C586 0.950 . S
H576 C588 0.950 . S
H577 C589 0.950 . S
C578 H570 0.950 . S
C578 C579 1.386 . S
C578 C580 1.391 . S
C579 C578 1.386 . S
C579 C583 1.393 . S
C580 H572 0.950 . S
C580 C578 1.391 . S
C580 C581 1.400 . S
C581 C580 1.400 . S
C581 C582 1.398 . S
C581 C587 1.491 . S
C582 H573 0.950 . S
C582 C581 1.398 . S
C582 C583 1.391 . S
C583 H571 0.950 . S
C583 C579 1.393 . S
C583 C582 1.391 . S
C584 H574 0.950 . S
C584 C585 1.386 . S
C584 C586 1.391 . S
C585 C584 1.386 . S
C585 C589 1.393 . S
C586 H575 0.950 . S
C586 C584 1.391 . S
C586 C587 1.400 . S
C587 C581 1.491 . S
C587 C586 1.400 . S
C587 C588 1.398 . S
C588 H576 0.950 . S
C588 C587 1.398 . S
C588 C589 1.391 . S
C589 H577 0.950 . S
C589 C585 1.393 . S
C589 C588 1.391 . S
H590 C598 0.950 . S
H591 C603 0.950 . S
H592 C600 0.950 . S
H593 C602 0.950 . S
H594 C604 0.950 . S
H595 C606 0.950 . S
H596 C608 0.950 . S
H597 C609 0.950 . S
C598 H590 0.950 . S
C598 C599 1.386 . S
C598 C600 1.391 . S
C599 C598 1.386 . S
C599 C603 1.393 . S
C600 H592 0.950 . S
C600 C598 1.391 . S
C600 C601 1.400 . S
C601 C600 1.400 . S
C601 C602 1.398 . S
C601 C607 1.491 . S
C602 H593 0.950 . S
C602 C601 1.398 . S
C602 C603 1.391 . S
C603 H591 0.950 . S
C603 C599 1.393 . S
C603 C602 1.391 . S
C604 H594 0.950 . S
C604 C605 1.386 . S
C604 C606 1.391 . S
C605 C604 1.386 . S
C605 C609 1.393 . S
C606 H595 0.950 . S
C606 C604 1.391 . S
C606 C607 1.400 . S
C607 C601 1.491 . S
C607 C606 1.400 . S
C607 C608 1.398 . S
C608 H596 0.950 . S
C608 C607 1.398 . S
C608 C609 1.391 . S
C609 H597 0.950 . S
C609 C605 1.393 . S
C609 C608 1.391 . S
H610 C618 0.950 . S
H611 C623 0.950 . S
H612 C620 0.950 . S
H613 C622 0.950 . S
H614 C624 0.950 . S
H615 C626 0.950 . S
H616 C628 0.950 . S
H617 C629 0.950 . S
C618 H610 0.950 . S
C618 C619 1.386 . S
C618 C620 1.391 . S
C619 C618 1.386 . S
C619 C623 1.393 . S
C620 H612 0.950 . S
C620 C618 1.391 . S
C620 C621 1.400 . S
C621 C620 1.400 . S
C621 C622 1.398 . S
C621 C627 1.491 . S
C622 H613 0.950 . S
C622 C621 1.398 . S
C622 C623 1.391 . S
C623 H611 0.950 . S
C623 C619 1.393 . S
C623 C622 1.391 . S
C624 H614 0.950 . S
C624 C625 1.386 . S
C624 C626 1.391 . S
C625 C624 1.386 . S
C625 C629 1.393 . S
C626 H615 0.950 . S
C626 C624 1.391 . S
C626 C627 1.400 . S
C627 C621 1.491 . S
C627 C626 1.400 . S
C627 C628 1.398 . S
C628 H616 0.950 . S
C628 C627 1.398 . S
C628 C629 1.391 . S
C629 H617 0.950 . S
C629 C625 1.393 . S
C629 C628 1.391 . S
H630 C638 0.950 . S
H631 C643 0.950 . S
H632 C640 0.950 . S
H633 C642 0.950 . S
H634 C644 0.950 . S
H635 C646 0.950 . S
H636 C648 0.950 . S
H637 C649 0.950 . S
C638 H630 0.950 . S
C638 C639 1.386 . S
C638 C640 1.391 . S
C639 C638 1.386 . S
C639 C643 1.393 . S
C640 H632 0.950 . S
C640 C638 1.391 . S
C640 C641 1.400 . S
C641 C640 1.400 . S
C641 C642 1.398 . S
C641 C647 1.491 . S
C642 H633 0.950 . S
C642 C641 1.398 . S
C642 C643 1.391 . S
C643 H631 0.950 . S
C643 C639 1.393 . S
C643 C642 1.391 . S
C644 H634 0.950 . S
C644 C645 1.386 . S
C644 C646 1.391 . S
C645 C644 1.386 . S
C645 C649 1.393 . S
C646 H635 0.950 . S
C646 C644 1.391 . S
C646 C647 1.400 . S
C647 C641 1.491 . S
C647 C646 1.400 . S
C647 C648 1.398 . S
C648 H636 0.950 . S
C648 C647 1.398 . S
C648 C649 1.391 . S
C649 H637 0.950 . S
C649 C645 1.393 . S
C649 C648 1.391 . S
H650 C658 0.950 . S
H651 C663 0.950 . S
H652 C660 0.950 . S
H653 C662 0.950 . S
H654 C664 0.950 . S
H655 C666 0.950 . S
H656 C668 0.950 . S
H657 C669 0.950 . S
C658 H650 0.950 . S
C658 C659 1.386 . S
C658 C660 1.391 . S
C659 C658 1.386 . S
C659 C663 1.393 . S
C660 H652 0.950 . S
C660 C658 1.391 . S
C660 C661 1.400 . S
C661 C660 1.400 . S
C661 C662 1.398 . S
C661 C667 1.491 . S
C662 H653 0.950 . S
C662 C661 1.398 . S
C662 C663 1.391 . S
C663 H651 0.950 . S
C663 C659 1.393 . S
C663 C662 1.391 . S
C664 H654 0.950 . S
C664 C665 1.386 . S
C664 C666 1.391 . S
C665 C664 1.386 . S
C665 C669 1.393 . S
C666 H655 0.950 . S
C666 C664 1.391 . S
C666 C667 1.400 . S
C667 C661 1.491 . S
C667 C666 1.400 . S
C667 C668 1.398 . S
C668 H656 0.950 . S
C668 C667 1.398 . S
C668 C669 1.391 . S
C669 H657 0.950 . S
C669 C665 1.393 . S
C669 C668 1.391 . S
H670 C678 0.950 . S
H671 C683 0.950 . S
H672 C680 0.950 . S
H673 C682 0.950 . S
H674 C684 0.950 . S
H675 C686 0.950 . S
H676 C688 0.950 . S
H677 C689 0.950 . S
C678 H670 0.950 . S
C678 C679 1.386 . S
C678 C680 1.391 . S
C679 C678 1.386 . S
C679 C683 1.393 . S
C680 H672 0.950 . S
C680 C678 1.391 . S
C680 C681 1.400 . S
C681 C680 1.400 . S
C681 C682 1.398 . S
C681 C687 1.491 . S
C682 H673 0.950 . S
C682 C681 1.398 . S
C682 C683 1.391 . S
C683 H671 0.950 . S
C683 C679 1.393 . S
C683 C682 1.391 . S
C684 H674 0.950 . S
C684 C685 1.386 . S
C684 C686 1.391 . S
C685 C684 1.386 . S
C685 C689 1.393 . S
C686 H675 0.950 . S
C686 C684 1.391 . S
C686 C687 1.400 . S
C687 C681 1.491 . S
C687 C686 1.400 . S
C687 C688 1.398 . S
C688 H676 0.950 . S
C688 C687 1.398 . S
C688 C689 1.391 . S
C689 H677 0.950 . S
C689 C685 1.393 . S
C689 C688 1.391 . S
H690 C698 0.950 . S
H691 C703 0.950 . S
H692 C700 0.950 . S
H693 C702 0.950 . S
H694 C704 0.950 . S
H695 C706 0.950 . S
H696 C708 0.950 . S
H697 C709 0.950 . S
C698 H690 0.950 . S
C698 C699 1.386 . S
C698 C700 1.391 . S
C699 C698 1.386 . S
C699 C703 1.393 . S
C700 H692 0.950 . S
C700 C698 1.391 . S
C700 C701 1.400 . S
C701 C700 1.400 . S
C701 C702 1.398 . S
C701 C707 1.491 . S
C702 H693 0.950 . S
C702 C701 1.398 . S
C702 C703 1.391 . S
C703 H691 0.950 . S
C703 C699 1.393 . S
C703 C702 1.391 . S
C704 H694 0.950 . S
C704 C705 1.386 . S
C704 C706 1.391 . S
C705 C704 1.386 . S
C705 C709 1.393 . S
C706 H695 0.950 . S
C706 C704 1.391 . S
C706 C707 1.400 . S
C707 C701 1.491 . S
C707 C706 1.400 . S
C707 C708 1.398 . S
C708 H696 0.950 . S
C708 C707 1.398 . S
C708 C709 1.391 . S
C709 H697 0.950 . S
C709 C705 1.393 . S
C709 C708 1.391 . S
H710 C718 0.950 . S
H711 C723 0.950 . S
H712 C720 0.950 . S
H713 C722 0.950 . S
H714 C724 0.950 . S
H715 C726 0.950 . S
H716 C728 0.950 . S
H717 C729 0.950 . S
C718 H710 0.950 . S
C718 C719 1.386 . S
C718 C720 1.391 . S
C719 C718 1.386 . S
C719 C723 1.393 . S
C720 H712 0.950 . S
C720 C718 1.391 . S
C720 C721 1.400 . S
C721 C720 1.400 . S
C721 C722 1.398 . S
C721 C727 1.491 . S
C722 H713 0.950 . S
C722 C721 1.398 . S
C722 C723 1.391 . S
C723 H711 0.950 . S
C723 C719 1.393 . S
C723 C722 1.391 . S
C724 H714 0.950 . S
C724 C725 1.386 . S
C724 C726 1.391 . S
C725 C724 1.386 . S
C725 C729 1.393 . S
C726 H715 0.950 . S
C726 C724 1.391 . S
C726 C727 1.400 . S
C727 C721 1.491 . S
C727 C726 1.400 . S
C727 C728 1.398 . S
C728 H716 0.950 . S
C728 C727 1.398 . S
C728 C729 1.391 . S
C729 H717 0.950 . S
C729 C725 1.393 . S
C729 C728 1.391 . S
H730 C738 0.950 . S
H731 C743 0.950 . S
H732 C740 0.950 . S
H733 C742 0.950 . S
H734 C744 0.950 . S
H735 C746 0.950 . S
H736 C748 0.950 . S
H737 C749 0.950 . S
C738 H730 0.950 . S
C738 C739 1.386 . S
C738 C740 1.391 . S
C739 C738 1.386 . S
C739 C743 1.393 . S
C740 H732 0.950 . S
C740 C738 1.391 . S
C740 C741 1.400 . S
C741 C740 1.400 . S
C741 C742 1.398 . S
C741 C747 1.491 . S
C742 H733 0.950 . S
C742 C741 1.398 . S
C742 C743 1.391 . S
C743 H731 0.950 . S
C743 C739 1.393 . S
C743 C742 1.391 . S
C744 H734 0.950 . S
C744 C745 1.386 . S
C744 C746 1.391 . S
C745 C744 1.386 . S
C745 C749 1.393 . S
C746 H735 0.950 . S
C746 C744 1.391 . S
C746 C747 1.400 . S
C747 C741 1.491 . S
C747 C746 1.400 . S
C747 C748 1.398 . S
C748 H736 0.950 . S
C748 C747 1.398 . S
C748 C749 1.391 . S
C749 H737 0.950 . S
C749 C745 1.393 . S
C749 C748 1.391 . S
H750 C758 0.950 . S
H751 C763 0.950 . S
H752 C760 0.950 . S
H753 C762 0.950 . S
H754 C764 0.950 . S
H755 C766 0.950 . S
H756 C768 0.950 . S
H757 C769 0.950 . S
C758 H750 0.950 . S
C758 C759 1.386 . S
C758 C760 1.391 . S
C759 C758 1.386 . S
C759 C763 1.393 . S
C760 H752 0.950 . S
C760 C758 1.391 . S
C760 C761 1.400 . S
C761 C760 1.400 . S
C761 C762 1.398 . S
C761 C767 1.491 . S
C762 H753 0.950 . S
C762 C761 1.398 . S
C762 C763 1.391 . S
C763 H751 0.950 . S
C763 C759 1.393 . S
C763 C762 1.391 . S
C764 H754 0.950 . S
C764 C765 1.386 . S
C764 C766 1.391 . S
C765 C764 1.386 . S
C765 C769 1.393 . S
C766 H755 0.950 . S
C766 C764 1.391 . S
C766 C767 1.400 . S
C767 C761 1.491 . S
C767 C766 1.400 . S
C767 C768 1.398 . S
C768 H756 0.950 . S
C768 C767 1.398 . S
C768 C769 1.391 . S
C769 H757 0.950 . S
C769 C765 1.393 . S
C769 C768 1.391 . S
H770 C778 0.950 . S
H771 C783 0.950 . S
H772 C780 0.950 . S
H773 C782 0.950 . S
H774 C784 0.950 . S
H775 C786 0.950 . S
H776 C788 0.950 . S
H777 C789 0.950 . S
C778 H770 0.950 . S
C778 C779 1.386 . S
C778 C780 1.391 . S
C779 C778 1.386 . S
C779 C783 1.393 . S
C780 H772 0.950 . S
C780 C778 1.391 . S
C780 C781 1.400 . S
C781 C780 1.400 . S
C781 C782 1.398 . S
C781 C787 1.491 . S
C782 H773 0.950 . S
C782 C781 1.398 . S
C782 C783 1.391 . S
C783 H771 0.950 . S
C783 C779 1.393 . S
C783 C782 1.391 . S
C784 H774 0.950 . S
C784 C785 1.386 . S
C784 C786 1.391 . S
C785 C784 1.386 . S
C785 C789 1.393 . S
C786 H775 0.950 . S
C786 C784 1.391 . S
C786 C787 1.400 . S
C787 C781 1.491 . S
C787 C786 1.400 . S
C787 C788 1.398 . S
C788 H776 0.950 . S
C788 C787 1.398 . S
C788 C789 1.391 . S
C789 H777 0.950 . S
C789 C785 1.393 . S
C789 C788 1.391 . S
H790 C798 0.950 . S
H791 C803 0.950 . S
H792 C800 0.950 . S
H793 C802 0.950 . S
H794 C804 0.950 . S
H795 C806 0.950 . S
H796 C808 0.950 . S
H797 C809 0.950 . S
C798 H790 0.950 . S
C798 C799 1.386 . S
C798 C800 1.391 . S
C799 C798 1.386 . S
C799 C803 1.393 . S
C800 H792 0.950 . S
C800 C798 1.391 . S
C800 C801 1.400 . S
C801 C800 1.400 . S
C801 C802 1.398 . S
C801 C807 1.491 . S
C802 H793 0.950 . S
C802 C801 1.398 . S
C802 C803 1.391 . S
C803 H791 0.950 . S
C803 C799 1.393 . S
C803 C802 1.391 . S
C804 H794 0.950 . S
C804 C805 1.386 . S
C804 C806 1.391 . S
C805 C804 1.386 . S
C805 C809 1.393 . S
C806 H795 0.950 . S
C806 C804 1.391 . S
C806 C807 1.400 . S
C807 C801 1.491 . S
C807 C806 1.400 . S
C807 C808 1.398 . S
C808 H796 0.950 . S
C808 C807 1.398 . S
C808 C809 1.391 . S
C809 H797 0.950 . S
C809 C805 1.393 . S
C809 C808 1.391 . S
H810 C818 0.950 . S
H811 C823 0.950 . S
H812 C820 0.950 . S
H813 C822 0.950 . S
H814 C824 0.950 . S
H815 C826 0.950 . S
H816 C828 0.950 . S
H817 C829 0.950 . S
C818 H810 0.950 . S
C818 C819 1.386 . S
C818 C820 1.391 . S
C819 C818 1.386 . S
C819 C823 1.393 . S
C820 H812 0.950 . S
C820 C818 1.391 . S
C820 C821 1.400 . S
C821 C820 1.400 . S
C821 C822 1.398 . S
C821 C827 1.491 . S
C822 H813 0.950 . S
C822 C821 1.398 . S
C822 C823 1.391 . S
C823 H811 0.950 . S
C823 C819 1.393 . S
C823 C822 1.391 . S
C824 H814 0.950 . S
C824 C825 1.386 . S
C824 C826 1.391 . S
C825 C824 1.386 . S
C825 C829 1.393 . S
C826 H815 0.950 . S
C826 C824 1.391 . S
C826 C827 1.400 . S
C827 C821 1.491 . S
C827 C826 1.400 . S
C827 C828 1.398 . S
C828 H816 0.950 . S
C828 C827 1.398 . S
C828 C829 1.391 . S
C829 H817 0.950 . S
C829 C825 1.393 . S
C829 C828 1.391 . S
H830 C838 0.950 . S
H831 C843 0.950 . S
H832 C840 0.950 . S
H833 C842 0.950 . S
H834 C844 0.950 . S
H835 C846 0.950 . S
H836 C848 0.950 . S
H837 C849 0.950 . S
C838 H830 0.950 . S
C838 C839 1.386 . S
C838 C840 1.391 . S
C839 C838 1.386 . S
C839 C843 1.393 . S
C840 H832 0.950 . S
C840 C838 1.391 . S
C840 C841 1.400 . S
C841 C840 1.400 . S
C841 C842 1.398 . S
C841 C847 1.491 . S
C842 H833 0.950 . S
C842 C841 1.398 . S
C842 C843 1.391 . S
C843 H831 0.950 . S
C843 C839 1.393 . S
C843 C842 1.391 . S
C844 H834 0.950 . S
C844 C845 1.386 . S
C844 C846 1.391 . S
C845 C844 1.386 . S
C845 C849 1.393 . S
C846 H835 0.950 . S
C846 C844 1.391 . S
C846 C847 1.400 . S
C847 C841 1.491 . S
C847 C846 1.400 . S
C847 C848 1.398 . S
C848 H836 0.950 . S
C848 C847 1.398 . S
C848 C849 1.391 . S
C849 H837 0.950 . S
C849 C845 1.393 . S
C849 C848 1.391 . S
H850 C858 0.950 . S
H851 C863 0.950 . S
H852 C860 0.950 . S
H853 C862 0.950 . S
H854 C864 0.950 . S
H855 C866 0.950 . S
H856 C868 0.950 . S
H857 C869 0.950 . S
C858 H850 0.950 . S
C858 C859 1.386 . S
C858 C860 1.391 . S
C859 C858 1.386 . S
C859 C863 1.393 . S
C860 H852 0.950 . S
C860 C858 1.391 . S
C860 C861 1.400 . S
C861 C860 1.400 . S
C861 C862 1.398 . S
C861 C867 1.491 . S
C862 H853 0.950 . S
C862 C861 1.398 . S
C862 C863 1.391 . S
C863 H851 0.950 . S
C863 C859 1.393 . S
C863 C862 1.391 . S
C864 H854 0.950 . S
C864 C865 1.386 . S
C864 C866 1.391 . S
C865 C864 1.386 . S
C865 C869 1.393 . S
C866 H855 0.950 . S
C866 C864 1.391 . S
C866 C867 1.400 . S
C867 C861 1.491 . S
C867 C866 1.400 . S
C867 C868 1.398 . S
C868 H856 0.950 . S
C868 C867 1.398 . S
C868 C869 1.391 . S
C869 H857 0.950 . S
C869 C865 1.393 . S
C869 C868 1.391 . S
H870 C878 0.950 . S
H871 C883 0.950 . S
H872 C880 0.950 . S
H873 C882 0.950 . S
H874 C884 0.950 . S
H875 C886 0.950 . S
H876 C888 0.950 . S
H877 C889 0.950 . S
C878 H870 0.950 . S
C878 C879 1.386 . S
C878 C880 1.391 . S
C879 C878 1.386 . S
C879 C883 1.393 . S
C880 H872 0.950 . S
C880 C878 1.391 . S
C880 C881 1.400 . S
C881 C880 1.400 . S
C881 C882 1.398 . S
C881 C887 1.491 . S
C882 H873 0.950 . S
C882 C881 1.398 . S
C882 C883 1.391 . S
C883 H871 0.950 . S
C883 C879 1.393 . S
C883 C882 1.391 . S
C884 H874 0.950 . S
C884 C885 1.386 . S
C884 C886 1.391 . S
C885 C884 1.386 . S
C885 C889 1.393 . S
C886 H875 0.950 . S
C886 C884 1.391 . S
C886 C887 1.400 . S
C887 C881 1.491 . S
C887 C886 1.400 . S
C887 C888 1.398 . S
C888 H876 0.950 . S
C888 C887 1.398 . S
C888 C889 1.391 . S
C889 H877 0.950 . S
C889 C885 1.393 . S
C889 C888 1.391 . S
H890 C898 0.950 . S
H891 C903 0.950 . S
H892 C900 0.950 . S
H893 C902 0.950 . S
H894 C904 0.950 . S
H895 C906 0.950 . S
H896 C908 0.950 . S
H897 C909 0.950 . S
C898 H890 0.950 . S
C898 C899 1.386 . S
C898 C900 1.391 . S
C899 C898 1.386 . S
C899 C903 1.393 . S
C900 H892 0.950 . S
C900 C898 1.391 . S
C900 C901 1.400 . S
C901 C900 1.400 . S
C901 C902 1.398 . S
C901 C907 1.491 . S
C902 H893 0.950 . S
C902 C901 1.398 . S
C902 C903 1.391 . S
C903 H891 0.950 . S
C903 C899 1.393 . S
C903 C902 1.391 . S
C904 H894 0.950 . S
C904 C905 1.386 . S
C904 C906 1.391 . S
C905 C904 1.386 . S
C905 C909 1.393 . S
C906 H895 0.950 . S
C906 C904 1.391 . S
C906 C907 1.400 . S
C907 C901 1.491 . S
C907 C906 1.400 . S
C907 C908 1.398 . S
C908 H896 0.950 . S
C908 C907 1.398 . S
C908 C909 1.391 . S
C909 H897 0.950 . S
C909 C905 1.393 . S
C909 C908 1.391 . S
H910 C918 0.950 . S
H911 C923 0.950 . S
H912 C920 0.950 . S
H913 C922 0.950 . S
H914 C924 0.950 . S
H915 C926 0.950 . S
H916 C928 0.950 . S
H917 C929 0.950 . S
C918 H910 0.950 . S
C918 C919 1.386 . S
C918 C920 1.391 . S
C919 C918 1.386 . S
C919 C923 1.393 . S
C920 H912 0.950 . S
C920 C918 1.391 . S
C920 C921 1.400 . S
C921 C920 1.400 . S
C921 C922 1.398 . S
C921 C927 1.491 . S
C922 H913 0.950 . S
C922 C921 1.398 . S
C922 C923 1.391 . S
C923 H911 0.950 . S
C923 C919 1.393 . S
C923 C922 1.391 . S
C924 H914 0.950 . S
C924 C925 1.386 . S
C924 C926 1.391 . S
C925 C924 1.386 . S
C925 C929 1.393 . S
C926 H915 0.950 . S
C926 C924 1.391 . S
C926 C927 1.400 . S
C927 C921 1.491 . S
C927 C926 1.400 . S
C927 C928 1.398 . S
C928 H916 0.950 . S
C928 C927 1.398 . S
C928 C929 1.391 . S
C929 H917 0.950 . S
C929 C925 1.393 . S
C929 C928 1.391 . S
H930 C938 0.950 . S
H931 C943 0.950 . S
H932 C940 0.950 . S
H933 C942 0.950 . S
H934 C944 0.950 . S
H935 C946 0.950 . S
H936 C948 0.950 . S
H937 C949 0.950 . S
C938 H930 0.950 . S
C938 C939 1.386 . S
C938 C940 1.391 . S
C939 C938 1.386 . S
C939 C943 1.393 . S
C940 H932 0.950 . S
C940 C938 1.391 . S
C940 C941 1.400 . S
C941 C940 1.400 . S
C941 C942 1.398 . S
C941 C947 1.491 . S
C942 H933 0.950 . S
C942 C941 1.398 . S
C942 C943 1.391 . S
C943 H931 0.950 . S
C943 C939 1.393 . S
C943 C942 1.391 . S
C944 H934 0.950 . S
C944 C945 1.386 . S
C944 C946 1.391 . S
C945 C944 1.386 . S
C945 C949 1.393 . S
C946 H935 0.950 . S
C946 C944 1.391 . S
C946 C947 1.400 . S
C947 C941 1.491 . S
C947 C946 1.400 . S
C947 C948 1.398 . S
C948 H936 0.950 . S
C948 C947 1.398 . S
C948 C949 1.391 . S
C949 H937 0.950 . S
C949 C945 1.393 . S
C949 C948 1.391 . S
H950 C958 0.950 . S
H951 C963 0.950 . S
H952 C960 0.950 . S
H953 C962 0.950 . S
H954 C964 0.950 . S
H955 C966 0.950 . S
H956 C968 0.950 . S
H957 C969 0.950 . S
C958 H950 0.950 . S
C958 C959 1.386 . S
C958 C960 1.391 . S
C959 C958 1.386 . S
C959 C963 1.393 . S
C960 H952 0.950 . S
C960 C958 1.391 . S
C960 C961 1.400 . S
C961 C960 1.400 . S
C961 C962 1.398 . S
C961 C967 1.491 . S
C962 H953 0.950 . S
C962 C961 1.398 . S
C962 C963 1.391 . S
C963 H951 0.950 . S
C963 C959 1.393 . S
C963 C962 1.391 . S
C964 H954 0.950 . S
C964 C965 1.386 . S
C964 C966 1.391 . S
C965 C964 1.386 . S
C965 C969 1.393 . S
C966 H955 0.950 . S
C966 C964 1.391 . S
C966 C967 1.400 . S
C967 C961 1.491 . S
C967 C966 1.400 . S
C967 C968 1.398 . S
C968 H956 0.950 . S
C968 C967 1.398 . S
C968 C969 1.391 . S
C969 H957 0.950 . S
C969 C965 1.393 . S
C969 C968 1.391 . S
H970 C978 0.950 . S
H971 C983 0.950 . S
H972 C980 0.950 . S
H973 C982 0.950 . S
H974 C984 0.950 . S
H975 C986 0.950 . S
H976 C988 0.950 . S
H977 C989 0.950 . S
C978 H970 0.950 . S
C978 C979 1.386 . S
C978 C980 1.391 . S
C979 C978 1.386 . S
C979 C983 1.393 . S
C980 H972 0.950 . S
C980 C978 1.391 . S
C980 C981 1.400 . S
C981 C980 1.400 . S
C981 C982 1.398 . S
C981 C987 1.491 . S
C982 H973 0.950 . S
C982 C981 1.398 . S
C982 C983 1.391 . S
C983 H971 0.950 . S
C983 C979 1.393 . S
C983 C982 1.391 . S
C984 H974 0.950 . S
C984 C985 1.386 . S
C984 C986 1.391 . S
C985 C984 1.386 . S
C985 C989 1.393 . S
C986 H975 0.950 . S
C986 C984 1.391 . S
C986 C987 1.400 . S
C987 C981 1.491 . S
C987 C986 1.400 . S
C987 C988 1.398 . S
C988 H976 0.950 . S
C988 C987 1.398 . S
C988 C989 1.391 . S
C989 H977 0.950 . S
C989 C985 1.393 . S
C989 C988 1.391 . S
H990 C998 0.950 . S
H991 C1003 0.950 . S
H992 C1000 0.950 . S
H993 C1002 0.950 . S
H994 C1004 0.950 . S
H995 C1006 0.950 . S
H996 C1008 0.950 . S
H997 C1009 0.950 . S
C998 H990 0.950 . S
C998 C999 1.386 . S
C998 C1000 1.391 . S
C999 C998 1.386 . S
C999 C1003 1.393 . S
C1000 H992 0.950 . S
C1000 C998 1.391 . S
C1000 C1001 1.400 . S
C1001 C1000 1.400 . S
C1001 C1002 1.398 . S
C1001 C1007 1.491 . S
C1002 H993 0.950 . S
C1002 C1001 1.398 . S
C1002 C1003 1.391 . S
C1003 H991 0.950 . S
C1003 C999 1.393 . S
C1003 C1002 1.391 . S
C1004 H994 0.950 . S
C1004 C1005 1.386 . S
C1004 C1006 1.391 . S
C1005 C1004 1.386 . S
C1005 C1009 1.393 . S
C1006 H995 0.950 . S
C1006 C1004 1.391 . S
C1006 C1007 1.400 . S
C1007 C1001 1.491 . S
C1007 C1006 1.400 . S
C1007 C1008 1.398 . S
C1008 H996 0.950 . S
C1008 C1007 1.398 . S
C1008 C1009 1.391 . S
C1009 H997 0.950 . S
C1009 C1005 1.393 . S
C1009 C1008 1.391 . S
H1010 C1018 0.950 . S
H1011 C1023 0.950 . S
H1012 C1020 0.950 . S
H1013 C1022 0.950 . S
H1014 C1024 0.950 . S
H1015 C1026 0.950 . S
H1016 C1028 0.950 . S
H1017 C1029 0.950 . S
C1018 H1010 0.950 . S
C1018 C1019 1.386 . S
C1018 C1020 1.391 . S
C1019 C1018 1.386 . S
C1019 C1023 1.393 . S
C1020 H1012 0.950 . S
C1020 C1018 1.391 . S
C1020 C1021 1.400 . S
C1021 C1020 1.400 . S
C1021 C1022 1.398 . S
C1021 C1027 1.491 . S
C1022 H1013 0.950 . S
C1022 C1021 1.398 . S
C1022 C1023 1.391 . S
C1023 H1011 0.950 . S
C1023 C1019 1.393 . S
C1023 C1022 1.391 . S
C1024 H1014 0.950 . S
C1024 C1025 1.386 . S
C1024 C1026 1.391 . S
C1025 C1024 1.386 . S
C1025 C1029 1.393 . S
C1026 H1015 0.950 . S
C1026 C1024 1.391 . S
C1026 C1027 1.400 . S
C1027 C1021 1.491 . S
C1027 C1026 1.400 . S
C1027 C1028 1.398 . S
C1028 H1016 0.950 . S
C1028 C1027 1.398 . S
C1028 C1029 1.391 . S
C1029 H1017 0.950 . S
C1029 C1025 1.393 . S
C1029 C1028 1.391 . S
H1030 C1038 0.950 . S
H1031 C1043 0.950 . S
H1032 C1040 0.950 . S
H1033 C1042 0.950 . S
H1034 C1044 0.950 . S
H1035 C1046 0.950 . S
H1036 C1048 0.950 . S
H1037 C1049 0.950 . S
C1038 H1030 0.950 . S
C1038 C1039 1.386 . S
C1038 C1040 1.391 . S
C1039 C1038 1.386 . S
C1039 C1043 1.393 . S
C1040 H1032 0.950 . S
C1040 C1038 1.391 . S
C1040 C1041 1.400 . S
C1041 C1040 1.400 . S
C1041 C1042 1.398 . S
C1041 C1047 1.491 . S
C1042 H1033 0.950 . S
C1042 C1041 1.398 . S
C1042 C1043 1.391 . S
C1043 H1031 0.950 . S
C1043 C1039 1.393 . S
C1043 C1042 1.391 . S
C1044 H1034 0.950 . S
C1044 C1045 1.386 . S
C1044 C1046 1.391 . S
C1045 C1044 1.386 . S
C1045 C1049 1.393 . S
C1046 H1035 0.950 . S
C1046 C1044 1.391 . S
C1046 C1047 1.400 . S
C1047 C1041 1.491 . S
C1047 C1046 1.400 . S
C1047 C1048 1.398 . S
C1048 H1036 0.950 . S
C1048 C1047 1.398 . S
C1048 C1049 1.391 . S
C1049 H1037 0.950 . S
C1049 C1045 1.393 . S
C1049 C1048 1.391 . S
H1050 C1058 0.950 . S
H1051 C1063 0.950 . S
H1052 C1060 0.950 . S
H1053 C1062 0.950 . S
H1054 C1064 0.950 . S
H1055 C1066 0.950 . S
H1056 C1068 0.950 . S
H1057 C1069 0.950 . S
C1058 H1050 0.950 . S
C1058 C1059 1.386 . S
C1058 C1060 1.391 . S
C1059 C1058 1.386 . S
C1059 C1063 1.393 . S
C1060 H1052 0.950 . S
C1060 C1058 1.391 . S
C1060 C1061 1.400 . S
C1061 C1060 1.400 . S
C1061 C1062 1.398 . S
C1061 C1067 1.491 . S
C1062 H1053 0.950 . S
C1062 C1061 1.398 . S
C1062 C1063 1.391 . S
C1063 H1051 0.950 . S
C1063 C1059 1.393 . S
C1063 C1062 1.391 . S
C1064 H1054 0.950 . S
C1064 C1065 1.386 . S
C1064 C1066 1.391 . S
C1065 C1064 1.386 . S
C1065 C1069 1.393 . S
C1066 H1055 0.950 . S
C1066 C1064 1.391 . S
C1066 C1067 1.400 . S
C1067 C1061 1.491 . S
C1067 C1066 1.400 . S
C1067 C1068 1.398 . S
C1068 H1056 0.950 . S
C1068 C1067 1.398 . S
C1068 C1069 1.391 . S
C1069 H1057 0.950 . S
C1069 C1065 1.393 . S
C1069 C1068 1.391 . S
H1070 C1078 0.950 . S
H1071 C1083 0.950 . S
H1072 C1080 0.950 . S
H1073 C1082 0.950 . S
H1074 C1084 0.950 . S
H1075 C1086 0.950 . S
H1076 C1088 0.950 . S
H1077 C1089 0.950 . S
C1078 H1070 0.950 . S
C1078 C1079 1.386 . S
C1078 C1080 1.391 . S
C1079 C1078 1.386 . S
C1079 C1083 1.393 . S
C1080 H1072 0.950 . S
C1080 C1078 1.391 . S
C1080 C1081 1.400 . S
C1081 C1080 1.400 . S
C1081 C1082 1.398 . S
C1081 C1087 1.491 . S
C1082 H1073 0.950 . S
C1082 C1081 1.398 . S
C1082 C1083 1.391 . S
C1083 H1071 0.950 . S
C1083 C1079 1.393 . S
C1083 C1082 1.391 . S
C1084 H1074 0.950 . S
C1084 C1085 1.386 . S
C1084 C1086 1.391 . S
C1085 C1084 1.386 . S
C1085 C1089 1.393 . S
C1086 H1075 0.950 . S
C1086 C1084 1.391 . S
C1086 C1087 1.400 . S
C1087 C1081 1.491 . S
C1087 C1086 1.400 . S
C1087 C1088 1.398 . S
C1088 H1076 0.950 . S
C1088 C1087 1.398 . S
C1088 C1089 1.391 . S
C1089 H1077 0.950 . S
C1089 C1085 1.393 . S
C1089 C1088 1.391 . S
H1090 C1098 0.950 . S
H1091 C1103 0.950 . S
H1092 C1100 0.950 . S
H1093 C1102 0.950 . S
H1094 C1104 0.950 . S
H1095 C1106 0.950 . S
H1096 C1108 0.950 . S
H1097 C1109 0.950 . S
C1098 H1090 0.950 . S
C1098 C1099 1.386 . S
C1098 C1100 1.391 . S
C1099 C1098 1.386 . S
C1099 C1103 1.393 . S
C1100 H1092 0.950 . S
C1100 C1098 1.391 . S
C1100 C1101 1.400 . S
C1101 C1100 1.400 . S
C1101 C1102 1.398 . S
C1101 C1107 1.491 . S
C1102 H1093 0.950 . S
C1102 C1101 1.398 . S
C1102 C1103 1.391 . S
C1103 H1091 0.950 . S
C1103 C1099 1.393 . S
C1103 C1102 1.391 . S
C1104 H1094 0.950 . S
C1104 C1105 1.386 . S
C1104 C1106 1.391 . S
C1105 C1104 1.386 . S
C1105 C1109 1.393 . S
C1106 H1095 0.950 . S
C1106 C1104 1.391 . S
C1106 C1107 1.400 . S
C1107 C1101 1.491 . S
C1107 C1106 1.400 . S
C1107 C1108 1.398 . S
C1108 H1096 0.950 . S
C1108 C1107 1.398 . S
C1108 C1109 1.391 . S
C1109 H1097 0.950 . S
C1109 C1105 1.393 . S
C1109 C1108 1.391 . S
H1110 C1118 0.950 . S
H1111 C1123 0.950 . S
H1112 C1120 0.950 . S
H1113 C1122 0.950 . S
H1114 C1124 0.950 . S
H1115 C1126 0.950 . S
H1116 C1128 0.950 . S
H1117 C1129 0.950 . S
C1118 H1110 0.950 . S
C1118 C1119 1.386 . S
C1118 C1120 1.391 . S
C1119 C1118 1.386 . S
C1119 C1123 1.393 . S
C1120 H1112 0.950 . S
C1120 C1118 1.391 . S
C1120 C1121 1.400 . S
C1121 C1120 1.400 . S
C1121 C1122 1.398 . S
C1121 C1127 1.491 . S
C1122 H1113 0.950 . S
C1122 C1121 1.398 . S
C1122 C1123 1.391 . S
C1123 H1111 0.950 . S
C1123 C1119 1.393 . S
C1123 C1122 1.391 . S
C1124 H1114 0.950 . S
C1124 C1125 1.386 . S
C1124 C1126 1.391 . S
C1125 C1124 1.386 . S
C1125 C1129 1.393 . S
C1126 H1115 0.950 . S
C1126 C1124 1.391 . S
C1126 C1127 1.400 . S
C1127 C1121 1.491 . S
C1127 C1126 1.400 . S
C1127 C1128 1.398 . S
C1128 H1116 0.950 . S
C1128 C1127 1.398 . S
C1128 C1129 1.391 . S
C1129 H1117 0.950 . S
C1129 C1125 1.393 . S
C1129 C1128 1.391 . S
H1130 C1138 0.950 . S
H1131 C1143 0.950 . S
H1132 C1140 0.950 . S
H1133 C1142 0.950 . S
H1134 C1144 0.950 . S
H1135 C1146 0.950 . S
H1136 C1148 0.950 . S
H1137 C1149 0.950 . S
C1138 H1130 0.950 . S
C1138 C1139 1.386 . S
C1138 C1140 1.391 . S
C1139 C1138 1.386 . S
C1139 C1143 1.393 . S
C1140 H1132 0.950 . S
C1140 C1138 1.391 . S
C1140 C1141 1.400 . S
C1141 C1140 1.400 . S
C1141 C1142 1.398 . S
C1141 C1147 1.491 . S
C1142 H1133 0.950 . S
C1142 C1141 1.398 . S
C1142 C1143 1.391 . S
C1143 H1131 0.950 . S
C1143 C1139 1.393 . S
C1143 C1142 1.391 . S
C1144 H1134 0.950 . S
C1144 C1145 1.386 . S
C1144 C1146 1.391 . S
C1145 C1144 1.386 . S
C1145 C1149 1.393 . S
C1146 H1135 0.950 . S
C1146 C1144 1.391 . S
C1146 C1147 1.400 . S
C1147 C1141 1.491 . S
C1147 C1146 1.400 . S
C1147 C1148 1.398 . S
C1148 H1136 0.950 . S
C1148 C1147 1.398 . S
C1148 C1149 1.391 . S
C1149 H1137 0.950 . S
C1149 C1145 1.393 . S
C1149 C1148 1.391 . S
H1150 C1158 0.950 . S
H1151 C1163 0.950 . S
H1152 C1160 0.950 . S
H1153 C1162 0.950 . S
H1154 C1164 0.950 . S
H1155 C1166 0.950 . S
H1156 C1168 0.950 . S
H1157 C1169 0.950 . S
C1158 H1150 0.950 . S
C1158 C1159 1.386 . S
C1158 C1160 1.391 . S
C1159 C1158 1.386 . S
C1159 C1163 1.393 . S
C1160 H1152 0.950 . S
C1160 C1158 1.391 . S
C1160 C1161 1.400 . S
C1161 C1160 1.400 . S
C1161 C1162 1.398 . S
C1161 C1167 1.491 . S
C1162 H1153 0.950 . S
C1162 C1161 1.398 . S
C1162 C1163 1.391 . S
C1163 H1151 0.950 . S
C1163 C1159 1.393 . S
C1163 C1162 1.391 . S
C1164 H1154 0.950 . S
C1164 C1165 1.386 . S
C1164 C1166 1.391 . S
C1165 C1164 1.386 . S
C1165 C1169 1.393 . S
C1166 H1155 0.950 . S
C1166 C1164 1.391 . S
C1166 C1167 1.400 . S
C1167 C1161 1.491 . S
C1167 C1166 1.400 . S
C1167 C1168 1.398 . S
C1168 H1156 0.950 . S
C1168 C1167 1.398 . S
C1168 C1169 1.391 . S
C1169 H1157 0.950 . S
C1169 C1165 1.393 . S
C1169 C1168 1.391 . S
H1170 C1178 0.950 . S
H1171 C1183 0.950 . S
H1172 C1180 0.950 . S
H1173 C1182 0.950 . S
H1174 C1184 0.950 . S
H1175 C1186 0.950 . S
H1176 C1188 0.950 . S
H1177 C1189 0.950 . S
C1178 H1170 0.950 . S
C1178 C1179 1.386 . S
C1178 C1180 1.391 . S
C1179 C1178 1.386 . S
C1179 C1183 1.393 . S
C1180 H1172 0.950 . S
C1180 C1178 1.391 . S
C1180 C1181 1.400 . S
C1181 C1180 1.400 . S
C1181 C1182 1.398 . S
C1181 C1187 1.491 . S
C1182 H1173 0.950 . S
C1182 C1181 1.398 . S
C1182 C1183 1.391 . S
C1183 H1171 0.950 . S
C1183 C1179 1.393 . S
C1183 C1182 1.391 . S
C1184 H1174 0.950 . S
C1184 C1185 1.386 . S
C1184 C1186 1.391 . S
C1185 C1184 1.386 . S
C1185 C1189 1.393 . S
C1186 H1175 0.950 . S
C1186 C1184 1.391 . S
C1186 C1187 1.400 . S
C1187 C1181 1.491 . S
C1187 C1186 1.400 . S
C1187 C1188 1.398 . S
C1188 H1176 0.950 . S
C1188 C1187 1.398 . S
C1188 C1189 1.391 . S
C1189 H1177 0.950 . S
C1189 C1185 1.393 . S
C1189 C1188 1.391 . S
H1190 C1198 0.950 . S
H1191 C1203 0.950 . S
H1192 C1200 0.950 . S
H1193 C1202 0.950 . S
H1194 C1204 0.950 . S
H1195 C1206 0.950 . S
H1196 C1208 0.950 . S
H1197 C1209 0.950 . S
C1198 H1190 0.950 . S
C1198 C1199 1.386 . S
C1198 C1200 1.391 . S
C1199 C1198 1.386 . S
C1199 C1203 1.393 . S
C1200 H1192 0.950 . S
C1200 C1198 1.391 . S
C1200 C1201 1.400 . S
C1201 C1200 1.400 . S
C1201 C1202 1.398 . S
C1201 C1207 1.491 . S
C1202 H1193 0.950 . S
C1202 C1201 1.398 . S
C1202 C1203 1.391 . S
C1203 H1191 0.950 . S
C1203 C1199 1.393 . S
C1203 C1202 1.391 . S
C1204 H1194 0.950 . S
C1204 C1205 1.386 . S
C1204 C1206 1.391 . S
C1205 C1204 1.386 . S
C1205 C1209 1.393 . S
C1206 H1195 0.950 . S
C1206 C1204 1.391 . S
C1206 C1207 1.400 . S
C1207 C1201 1.491 . S
C1207 C1206 1.400 . S
C1207 C1208 1.398 . S
C1208 H1196 0.950 . S
C1208 C1207 1.398 . S
C1208 C1209 1.391 . S
C1209 H1197 0.950 . S
C1209 C1205 1.393 . S
C1209 C1208 1.391 . S
H1210 C1218 0.950 . S
H1211 C1223 0.950 . S
H1212 C1220 0.950 . S
H1213 C1222 0.950 . S
H1214 C1224 0.950 . S
H1215 C1226 0.950 . S
H1216 C1228 0.950 . S
H1217 C1229 0.950 . S
C1218 H1210 0.950 . S
C1218 C1219 1.386 . S
C1218 C1220 1.391 . S
C1219 C1218 1.386 . S
C1219 C1223 1.393 . S
C1220 H1212 0.950 . S
C1220 C1218 1.391 . S
C1220 C1221 1.400 . S
C1221 C1220 1.400 . S
C1221 C1222 1.398 . S
C1221 C1227 1.491 . S
C1222 H1213 0.950 . S
C1222 C1221 1.398 . S
C1222 C1223 1.391 . S
C1223 H1211 0.950 . S
C1223 C1219 1.393 . S
C1223 C1222 1.391 . S
C1224 H1214 0.950 . S
C1224 C1225 1.386 . S
C1224 C1226 1.391 . S
C1225 C1224 1.386 . S
C1225 C1229 1.393 . S
C1226 H1215 0.950 . S
C1226 C1224 1.391 . S
C1226 C1227 1.400 . S
C1227 C1221 1.491 . S
C1227 C1226 1.400 . S
C1227 C1228 1.398 . S
C1228 H1216 0.950 . S
C1228 C1227 1.398 . S
C1228 C1229 1.391 . S
C1229 H1217 0.950 . S
C1229 C1225 1.393 . S
C1229 C1228 1.391 . S
H1230 C1238 0.950 . S
H1231 C1243 0.950 . S
H1232 C1240 0.950 . S
H1233 C1242 0.950 . S
H1234 C1244 0.950 . S
H1235 C1246 0.950 . S
H1236 C1248 0.950 . S
H1237 C1249 0.950 . S
C1238 H1230 0.950 . S
C1238 C1239 1.386 . S
C1238 C1240 1.391 . S
C1239 C1238 1.386 . S
C1239 C1243 1.393 . S
C1240 H1232 0.950 . S
C1240 C1238 1.391 . S
C1240 C1241 1.400 . S
C1241 C1240 1.400 . S
C1241 C1242 1.398 . S
C1241 C1247 1.491 . S
C1242 H1233 0.950 . S
C1242 C1241 1.398 . S
C1242 C1243 1.391 . S
C1243 H1231 0.950 . S
C1243 C1239 1.393 . S
C1243 C1242 1.391 . S
C1244 H1234 0.950 . S
C1244 C1245 1.386 . S
C1244 C1246 1.391 . S
C1245 C1244 1.386 . S
C1245 C1249 1.393 . S
C1246 H1235 0.950 . S
C1246 C1244 1.391 . S
C1246 C1247 1.400 . S
C1247 C1241 1.491 . S
C1247 C1246 1.400 . S
C1247 C1248 1.398 . S
C1248 H1236 0.950 . S
C1248 C1247 1.398 . S
C1248 C1249 1.391 . S
C1249 H1237 0.950 . S
C1249 C1245 1.393 . S
C1249 C1248 1.391 . S
H1250 C1258 0.950 . S
H1251 C1263 0.950 . S
H1252 C1260 0.950 . S
H1253 C1262 0.950 . S
H1254 C1264 0.950 . S
H1255 C1266 0.950 . S
H1256 C1268 0.950 . S
H1257 C1269 0.950 . S
C1258 H1250 0.950 . S
C1258 C1259 1.386 . S
C1258 C1260 1.391 . S
C1259 C1258 1.386 . S
C1259 C1263 1.393 . S
C1260 H1252 0.950 . S
C1260 C1258 1.391 . S
C1260 C1261 1.400 . S
C1261 C1260 1.400 . S
C1261 C1262 1.398 . S
C1261 C1267 1.491 . S
C1262 H1253 0.950 . S
C1262 C1261 1.398 . S
C1262 C1263 1.391 . S
C1263 H1251 0.950 . S
C1263 C1259 1.393 . S
C1263 C1262 1.391 . S
C1264 H1254 0.950 . S
C1264 C1265 1.386 . S
C1264 C1266 1.391 . S
C1265 C1264 1.386 . S
C1265 C1269 1.393 . S
C1266 H1255 0.950 . S
C1266 C1264 1.391 . S
C1266 C1267 1.400 . S
C1267 C1261 1.491 . S
C1267 C1266 1.400 . S
C1267 C1268 1.398 . S
C1268 H1256 0.950 . S
C1268 C1267 1.398 . S
C1268 C1269 1.391 . S
C1269 H1257 0.950 . S
C1269 C1265 1.393 . S
C1269 C1268 1.391 . S
H1270 C1278 0.950 . S
H1271 C1283 0.950 . S
H1272 C1280 0.950 . S
H1273 C1282 0.950 . S
H1274 C1284 0.950 . S
H1275 C1286 0.950 . S
H1276 C1288 0.950 . S
H1277 C1289 0.950 . S
C1278 H1270 0.950 . S
C1278 C1279 1.386 . S
C1278 C1280 1.391 . S
C1279 C1278 1.386 . S
C1279 C1283 1.393 . S
C1280 H1272 0.950 . S
C1280 C1278 1.391 . S
C1280 C1281 1.400 . S
C1281 C1280 1.400 . S
C1281 C1282 1.398 . S
C1281 C1287 1.491 . S
C1282 H1273 0.950 . S
C1282 C1281 1.398 . S
C1282 C1283 1.391 . S
C1283 H1271 0.950 . S
C1283 C1279 1.393 . S
C1283 C1282 1.391 . S
C1284 H1274 0.950 . S
C1284 C1285 1.386 . S
C1284 C1286 1.391 . S
C1285 C1284 1.386 . S
C1285 C1289 1.393 . S
C1286 H1275 0.950 . S
C1286 C1284 1.391 . S
C1286 C1287 1.400 . S
C1287 C1281 1.491 . S
C1287 C1286 1.400 . S
C1287 C1288 1.398 . S
C1288 H1276 0.950 . S
C1288 C1287 1.398 . S
C1288 C1289 1.391 . S
C1289 H1277 0.950 . S
C1289 C1285 1.393 . S
C1289 C1288 1.391 . S
H1290 C1298 0.950 . S
H1291 C1303 0.950 . S
H1292 C1300 0.950 . S
H1293 C1302 0.950 . S
H1294 C1304 0.950 . S
H1295 C1306 0.950 . S
H1296 C1308 0.950 . S
H1297 C1309 0.950 . S
C1298 H1290 0.950 . S
C1298 C1299 1.386 . S
C1298 C1300 1.391 . S
C1299 C1298 1.386 . S
C1299 C1303 1.393 . S
C1300 H1292 0.950 . S
C1300 C1298 1.391 . S
C1300 C1301 1.400 . S
C1301 C1300 1.400 . S
C1301 C1302 1.398 . S
C1301 C1307 1.491 . S
C1302 H1293 0.950 . S
C1302 C1301 1.398 . S
C1302 C1303 1.391 . S
C1303 H1291 0.950 . S
C1303 C1299 1.393 . S
C1303 C1302 1.391 . S
C1304 H1294 0.950 . S
C1304 C1305 1.386 . S
C1304 C1306 1.391 . S
C1305 C1304 1.386 . S
C1305 C1309 1.393 . S
C1306 H1295 0.950 . S
C1306 C1304 1.391 . S
C1306 C1307 1.400 . S
C1307 C1301 1.491 . S
C1307 C1306 1.400 . S
C1307 C1308 1.398 . S
C1308 H1296 0.950 . S
C1308 C1307 1.398 . S
C1308 C1309 1.391 . S
C1309 H1297 0.950 . S
C1309 C1305 1.393 . S
C1309 C1308 1.391 . S
H1310 C1318 0.950 . S
H1311 C1323 0.950 . S
H1312 C1320 0.950 . S
H1313 C1322 0.950 . S
H1314 C1324 0.950 . S
H1315 C1326 0.950 . S
H1316 C1328 0.950 . S
H1317 C1329 0.950 . S
C1318 H1310 0.950 . S
C1318 C1319 1.386 . S
C1318 C1320 1.391 . S
C1319 C1318 1.386 . S
C1319 C1323 1.393 . S
C1320 H1312 0.950 . S
C1320 C1318 1.391 . S
C1320 C1321 1.400 . S
C1321 C1320 1.400 . S
C1321 C1322 1.398 . S
C1321 C1327 1.491 . S
C1322 H1313 0.950 . S
C1322 C1321 1.398 . S
C1322 C1323 1.391 . S
C1323 H1311 0.950 . S
C1323 C1319 1.393 . S
C1323 C1322 1.391 . S
C1324 H1314 0.950 . S
C1324 C1325 1.386 . S
C1324 C1326 1.391 . S
C1325 C1324 1.386 . S
C1325 C1329 1.393 . S
C1326 H1315 0.950 . S
C1326 C1324 1.391 . S
C1326 C1327 1.400 . S
C1327 C1321 1.491 . S
C1327 C1326 1.400 . S
C1327 C1328 1.398 . S
C1328 H1316 0.950 . S
C1328 C1327 1.398 . S
C1328 C1329 1.391 . S
C1329 H1317 0.950 . S
C1329 C1325 1.393 . S
C1329 C1328 1.391 . S
C385 C195 1.289 . S
C379 C17 1.296 . S
C405 C185 1.677 . S
C399 C44 1.535 . S
C425 C186 0.970 . S
C419 C63 0.961 . S
C439 C87 1.393 . S
C445 C208 1.375 . S
C459 C110 1.416 . S
C465 C211 1.395 . S
C485 C194 1.002 . S
C479 C131 0.984 . S
C499 C159 1.469 . S
C505 C184 1.570 . S
C519 C177 1.317 . S
C525 C202 1.311 . S
C545 C215 1.450 . S
C539 C20 1.366 . S
C559 C42 1.379 . S
C565 C264 1.371 . S
C585 C242 1.623 . S
C579 C66 1.513 . S
C605 C256 0.893 . S
C599 C86 0.897 . S
C619 C109 0.893 . S
C625 C217 0.859 . S
C645 C270 1.533 . S
C639 C136 1.462 . S
C659 C157 1.369 . S
C665 C226 1.354 . S
C679 C182 1.441 . S
C685 C247 1.505 . S
C699 C18 1.471 . S
C705 C273 1.416 . S
C719 C112 1.239 . S
C725 C257 1.280 . S
C745 C216 1.430 . S
C739 C134 1.440 . S
C765 C248 0.984 . S
C759 C154 1.018 . S
C779 C180 1.350 . S
C785 C239 1.333 . S
C799 C64 1.399 . S
C805 C246 1.362 . S
C825 C233 1.290 . S
C819 C89 1.275 . S
C839 C39 1.031 . S
C845 C225 0.999 . S
C859 C178 1.301 . S
C865 C288 1.296 . S
C879 C113 1.557 . S
C885 C278 1.675 . S
C905 C279 0.972 . S
C899 C132 0.978 . S
C925 C301 1.375 . S
C919 C156 1.392 . S
C939 C41 1.410 . S
C945 C304 1.381 . S
C965 C287 0.974 . S
C959 C62 1.005 . S
C979 C90 1.467 . S
C985 C277 1.570 . S
C999 C16 1.330 . S
C1005 C295 1.288 . S
C1019 C181 1.351 . S
C1025 C308 1.452 . S
C1045 C357 1.371 . S
C1039 C111 1.383 . S
C1059 C135 1.507 . S
C1065 C335 1.616 . S
C1079 C155 0.879 . S
C1085 C349 0.849 . S
C1105 C310 0.854 . S
C1099 C40 0.887 . S
C1119 C67 1.447 . S
C1125 C363 1.529 . S
C1145 C319 1.357 . S
C1139 C88 1.369 . S
C1165 C340 1.523 . S
C1159 C21 1.437 . S
C1185 C366 1.416 . S
C1179 C179 1.469 . S
C1199 C43 1.278 . S
C1205 C350 1.298 . S
C1219 C65 1.434 . S
C1225 C309 1.424 . S
C1245 C341 0.986 . S
C1239 C85 1.019 . S
C1259 C19 1.350 . S
C1265 C332 1.333 . S
C1279 C133 1.401 . S
C1285 C339 1.339 . S
C1305 C326 1.287 . S
C1299 C158 1.270 . S
C1325 C318 1.000 . S
C1319 C108 1.043 . S
