# Generated by pormake.
# Topology ibd, (4,6)-cn, num edge types: 1
# Building blocks:
#     Node 0, Type 0, BuildingBlock: QUQFOY_clean_sbu_3, # of connection points: 4
#     Node 1, Type 0, BuildingBlock: QUQFOY_clean_sbu_3, # of connection points: 4
#     Node 2, Type 0, BuildingBlock: QUQFOY_clean_sbu_3, # of connection points: 4
#     Node 3, Type 0, BuildingBlock: QUQFOY_clean_sbu_3, # of connection points: 4
#     Node 4, Type 0, BuildingBlock: QUQFOY_clean_sbu_3, # of connection points: 4
#     Node 5, Type 0, BuildingBlock: QUQFOY_clean_sbu_3, # of connection points: 4
#     Node 6, Type 0, BuildingBlock: QUQFOY_clean_sbu_3, # of connection points: 4
#     Node 7, Type 0, BuildingBlock: QUQFOY_clean_sbu_3, # of connection points: 4
#     Node 8, Type 0, BuildingBlock: QUQFOY_clean_sbu_3, # of connection points: 4
#     Node 9, Type 0, BuildingBlock: QUQFOY_clean_sbu_3, # of connection points: 4
#     Node 10, Type 0, BuildingBlock: QUQFOY_clean_sbu_3, # of connection points: 4
#     Node 11, Type 0, BuildingBlock: QUQFOY_clean_sbu_3, # of connection points: 4
#     Node 12, Type 0, BuildingBlock: QUQFOY_clean_sbu_3, # of connection points: 4
#     Node 13, Type 0, BuildingBlock: QUQFOY_clean_sbu_3, # of connection points: 4
#     Node 14, Type 0, BuildingBlock: QUQFOY_clean_sbu_3, # of connection points: 4
#     Node 15, Type 0, BuildingBlock: QUQFOY_clean_sbu_3, # of connection points: 4
#     Node 16, Type 0, BuildingBlock: QUQFOY_clean_sbu_3, # of connection points: 4
#     Node 17, Type 0, BuildingBlock: QUQFOY_clean_sbu_3, # of connection points: 4
#     Node 18, Type 0, BuildingBlock: QUQFOY_clean_sbu_3, # of connection points: 4
#     Node 19, Type 0, BuildingBlock: QUQFOY_clean_sbu_3, # of connection points: 4
#     Node 20, Type 0, BuildingBlock: QUQFOY_clean_sbu_3, # of connection points: 4
#     Node 21, Type 0, BuildingBlock: QUQFOY_clean_sbu_3, # of connection points: 4
#     Node 22, Type 0, BuildingBlock: QUQFOY_clean_sbu_3, # of connection points: 4
#     Node 23, Type 0, BuildingBlock: QUQFOY_clean_sbu_3, # of connection points: 4
#     Node 24, Type 1, BuildingBlock: CIFDUS_clean_sbu_1, # of connection points: 6
#     Node 25, Type 1, BuildingBlock: CIFDUS_clean_sbu_1, # of connection points: 6
#     Node 26, Type 1, BuildingBlock: CIFDUS_clean_sbu_1, # of connection points: 6
#     Node 27, Type 1, BuildingBlock: CIFDUS_clean_sbu_1, # of connection points: 6
#     Node 28, Type 1, BuildingBlock: CIFDUS_clean_sbu_1, # of connection points: 6
#     Node 29, Type 1, BuildingBlock: CIFDUS_clean_sbu_1, # of connection points: 6
#     Node 30, Type 1, BuildingBlock: CIFDUS_clean_sbu_1, # of connection points: 6
#     Node 31, Type 1, BuildingBlock: CIFDUS_clean_sbu_1, # of connection points: 6
#     Node 32, Type 1, BuildingBlock: CIFDUS_clean_sbu_1, # of connection points: 6
#     Node 33, Type 1, BuildingBlock: CIFDUS_clean_sbu_1, # of connection points: 6
#     Node 34, Type 1, BuildingBlock: CIFDUS_clean_sbu_1, # of connection points: 6
#     Node 35, Type 1, BuildingBlock: CIFDUS_clean_sbu_1, # of connection points: 6
#     Node 36, Type 1, BuildingBlock: CIFDUS_clean_sbu_1, # of connection points: 6
#     Node 37, Type 1, BuildingBlock: CIFDUS_clean_sbu_1, # of connection points: 6
#     Node 38, Type 1, BuildingBlock: CIFDUS_clean_sbu_1, # of connection points: 6
#     Node 39, Type 1, BuildingBlock: CIFDUS_clean_sbu_1, # of connection points: 6
#     Edge 40, Type (0, 1), BuildingBlock: ZUJKAS_clean_linker_0, # of connection points: 2
#     Edge 41, Type (0, 1), BuildingBlock: ZUJKAS_clean_linker_0, # of connection points: 2
#     Edge 42, Type (0, 1), BuildingBlock: ZUJKAS_clean_linker_0, # of connection points: 2
#     Edge 43, Type (0, 1), BuildingBlock: ZUJKAS_clean_linker_0, # of connection points: 2
#     Edge 44, Type (0, 1), BuildingBlock: ZUJKAS_clean_linker_0, # of connection points: 2
#     Edge 45, Type (0, 1), BuildingBlock: ZUJKAS_clean_linker_0, # of connection points: 2
#     Edge 46, Type (0, 1), BuildingBlock: ZUJKAS_clean_linker_0, # of connection points: 2
#     Edge 47, Type (0, 1), BuildingBlock: ZUJKAS_clean_linker_0, # of connection points: 2
#     Edge 48, Type (0, 1), BuildingBlock: ZUJKAS_clean_linker_0, # of connection points: 2
#     Edge 49, Type (0, 1), BuildingBlock: ZUJKAS_clean_linker_0, # of connection points: 2
#     Edge 50, Type (0, 1), BuildingBlock: ZUJKAS_clean_linker_0, # of connection points: 2
#     Edge 51, Type (0, 1), BuildingBlock: ZUJKAS_clean_linker_0, # of connection points: 2
#     Edge 52, Type (0, 1), BuildingBlock: ZUJKAS_clean_linker_0, # of connection points: 2
#     Edge 53, Type (0, 1), BuildingBlock: ZUJKAS_clean_linker_0, # of connection points: 2
#     Edge 54, Type (0, 1), BuildingBlock: ZUJKAS_clean_linker_0, # of connection points: 2
#     Edge 55, Type (0, 1), BuildingBlock: ZUJKAS_clean_linker_0, # of connection points: 2
#     Edge 56, Type (0, 1), BuildingBlock: ZUJKAS_clean_linker_0, # of connection points: 2
#     Edge 57, Type (0, 1), BuildingBlock: ZUJKAS_clean_linker_0, # of connection points: 2
#     Edge 58, Type (0, 1), BuildingBlock: ZUJKAS_clean_linker_0, # of connection points: 2
#     Edge 59, Type (0, 1), BuildingBlock: ZUJKAS_clean_linker_0, # of connection points: 2
#     Edge 60, Type (0, 1), BuildingBlock: ZUJKAS_clean_linker_0, # of connection points: 2
#     Edge 61, Type (0, 1), BuildingBlock: ZUJKAS_clean_linker_0, # of connection points: 2
#     Edge 62, Type (0, 1), BuildingBlock: ZUJKAS_clean_linker_0, # of connection points: 2
#     Edge 63, Type (0, 1), BuildingBlock: ZUJKAS_clean_linker_0, # of connection points: 2
#     Edge 64, Type (0, 1), BuildingBlock: ZUJKAS_clean_linker_0, # of connection points: 2
#     Edge 65, Type (0, 1), BuildingBlock: ZUJKAS_clean_linker_0, # of connection points: 2
#     Edge 66, Type (0, 1), BuildingBlock: ZUJKAS_clean_linker_0, # of connection points: 2
#     Edge 67, Type (0, 1), BuildingBlock: ZUJKAS_clean_linker_0, # of connection points: 2
#     Edge 68, Type (0, 1), BuildingBlock: ZUJKAS_clean_linker_0, # of connection points: 2
#     Edge 69, Type (0, 1), BuildingBlock: ZUJKAS_clean_linker_0, # of connection points: 2
#     Edge 70, Type (0, 1), BuildingBlock: ZUJKAS_clean_linker_0, # of connection points: 2
#     Edge 71, Type (0, 1), BuildingBlock: ZUJKAS_clean_linker_0, # of connection points: 2
#     Edge 72, Type (0, 1), BuildingBlock: ZUJKAS_clean_linker_0, # of connection points: 2
#     Edge 73, Type (0, 1), BuildingBlock: ZUJKAS_clean_linker_0, # of connection points: 2
#     Edge 74, Type (0, 1), BuildingBlock: ZUJKAS_clean_linker_0, # of connection points: 2
#     Edge 75, Type (0, 1), BuildingBlock: ZUJKAS_clean_linker_0, # of connection points: 2
#     Edge 76, Type (0, 1), BuildingBlock: ZUJKAS_clean_linker_0, # of connection points: 2
#     Edge 77, Type (0, 1), BuildingBlock: ZUJKAS_clean_linker_0, # of connection points: 2
#     Edge 78, Type (0, 1), BuildingBlock: ZUJKAS_clean_linker_0, # of connection points: 2
#     Edge 79, Type (0, 1), BuildingBlock: ZUJKAS_clean_linker_0, # of connection points: 2
#     Edge 80, Type (0, 1), BuildingBlock: ZUJKAS_clean_linker_0, # of connection points: 2
#     Edge 81, Type (0, 1), BuildingBlock: ZUJKAS_clean_linker_0, # of connection points: 2
#     Edge 82, Type (0, 1), BuildingBlock: ZUJKAS_clean_linker_0, # of connection points: 2
#     Edge 83, Type (0, 1), BuildingBlock: ZUJKAS_clean_linker_0, # of connection points: 2
#     Edge 84, Type (0, 1), BuildingBlock: ZUJKAS_clean_linker_0, # of connection points: 2
#     Edge 85, Type (0, 1), BuildingBlock: ZUJKAS_clean_linker_0, # of connection points: 2
#     Edge 86, Type (0, 1), BuildingBlock: ZUJKAS_clean_linker_0, # of connection points: 2
#     Edge 87, Type (0, 1), BuildingBlock: ZUJKAS_clean_linker_0, # of connection points: 2
#     Edge 88, Type (0, 1), BuildingBlock: ZUJKAS_clean_linker_0, # of connection points: 2
#     Edge 89, Type (0, 1), BuildingBlock: ZUJKAS_clean_linker_0, # of connection points: 2
#     Edge 90, Type (0, 1), BuildingBlock: ZUJKAS_clean_linker_0, # of connection points: 2
#     Edge 91, Type (0, 1), BuildingBlock: ZUJKAS_clean_linker_0, # of connection points: 2
#     Edge 92, Type (0, 1), BuildingBlock: ZUJKAS_clean_linker_0, # of connection points: 2
#     Edge 93, Type (0, 1), BuildingBlock: ZUJKAS_clean_linker_0, # of connection points: 2
#     Edge 94, Type (0, 1), BuildingBlock: ZUJKAS_clean_linker_0, # of connection points: 2
#     Edge 95, Type (0, 1), BuildingBlock: ZUJKAS_clean_linker_0, # of connection points: 2
#     Edge 96, Type (0, 1), BuildingBlock: ZUJKAS_clean_linker_0, # of connection points: 2
#     Edge 97, Type (0, 1), BuildingBlock: ZUJKAS_clean_linker_0, # of connection points: 2
#     Edge 98, Type (0, 1), BuildingBlock: ZUJKAS_clean_linker_0, # of connection points: 2
#     Edge 99, Type (0, 1), BuildingBlock: ZUJKAS_clean_linker_0, # of connection points: 2
#     Edge 100, Type (0, 1), BuildingBlock: ZUJKAS_clean_linker_0, # of connection points: 2
#     Edge 101, Type (0, 1), BuildingBlock: ZUJKAS_clean_linker_0, # of connection points: 2
#     Edge 102, Type (0, 1), BuildingBlock: ZUJKAS_clean_linker_0, # of connection points: 2
#     Edge 103, Type (0, 1), BuildingBlock: ZUJKAS_clean_linker_0, # of connection points: 2
#     Edge 104, Type (0, 1), BuildingBlock: ZUJKAS_clean_linker_0, # of connection points: 2
#     Edge 105, Type (0, 1), BuildingBlock: ZUJKAS_clean_linker_0, # of connection points: 2
#     Edge 106, Type (0, 1), BuildingBlock: ZUJKAS_clean_linker_0, # of connection points: 2
#     Edge 107, Type (0, 1), BuildingBlock: ZUJKAS_clean_linker_0, # of connection points: 2
#     Edge 108, Type (0, 1), BuildingBlock: ZUJKAS_clean_linker_0, # of connection points: 2
#     Edge 109, Type (0, 1), BuildingBlock: ZUJKAS_clean_linker_0, # of connection points: 2
#     Edge 110, Type (0, 1), BuildingBlock: ZUJKAS_clean_linker_0, # of connection points: 2
#     Edge 111, Type (0, 1), BuildingBlock: ZUJKAS_clean_linker_0, # of connection points: 2
#     Edge 112, Type (0, 1), BuildingBlock: ZUJKAS_clean_linker_0, # of connection points: 2
#     Edge 113, Type (0, 1), BuildingBlock: ZUJKAS_clean_linker_0, # of connection points: 2
#     Edge 114, Type (0, 1), BuildingBlock: ZUJKAS_clean_linker_0, # of connection points: 2
#     Edge 115, Type (0, 1), BuildingBlock: ZUJKAS_clean_linker_0, # of connection points: 2
#     Edge 116, Type (0, 1), BuildingBlock: ZUJKAS_clean_linker_0, # of connection points: 2
#     Edge 117, Type (0, 1), BuildingBlock: ZUJKAS_clean_linker_0, # of connection points: 2
#     Edge 118, Type (0, 1), BuildingBlock: ZUJKAS_clean_linker_0, # of connection points: 2
#     Edge 119, Type (0, 1), BuildingBlock: ZUJKAS_clean_linker_0, # of connection points: 2
#     Edge 120, Type (0, 1), BuildingBlock: ZUJKAS_clean_linker_0, # of connection points: 2
#     Edge 121, Type (0, 1), BuildingBlock: ZUJKAS_clean_linker_0, # of connection points: 2
#     Edge 122, Type (0, 1), BuildingBlock: ZUJKAS_clean_linker_0, # of connection points: 2
#     Edge 123, Type (0, 1), BuildingBlock: ZUJKAS_clean_linker_0, # of connection points: 2
#     Edge 124, Type (0, 1), BuildingBlock: ZUJKAS_clean_linker_0, # of connection points: 2
#     Edge 125, Type (0, 1), BuildingBlock: ZUJKAS_clean_linker_0, # of connection points: 2
#     Edge 126, Type (0, 1), BuildingBlock: ZUJKAS_clean_linker_0, # of connection points: 2
#     Edge 127, Type (0, 1), BuildingBlock: ZUJKAS_clean_linker_0, # of connection points: 2
#     Edge 128, Type (0, 1), BuildingBlock: ZUJKAS_clean_linker_0, # of connection points: 2
#     Edge 129, Type (0, 1), BuildingBlock: ZUJKAS_clean_linker_0, # of connection points: 2
#     Edge 130, Type (0, 1), BuildingBlock: ZUJKAS_clean_linker_0, # of connection points: 2
#     Edge 131, Type (0, 1), BuildingBlock: ZUJKAS_clean_linker_0, # of connection points: 2
#     Edge 132, Type (0, 1), BuildingBlock: ZUJKAS_clean_linker_0, # of connection points: 2
#     Edge 133, Type (0, 1), BuildingBlock: ZUJKAS_clean_linker_0, # of connection points: 2
#     Edge 134, Type (0, 1), BuildingBlock: ZUJKAS_clean_linker_0, # of connection points: 2
#     Edge 135, Type (0, 1), BuildingBlock: ZUJKAS_clean_linker_0, # of connection points: 2
# Relax obj value: 0.354
# Max RMSD: 0.309
# Mean RMSD: 0.279
data_MOF--net-ibd--node1-QUQFOY_clean_sbu_3--node2-CIFDUS_clean_sbu_1--edge1-ZUJKAS_clean_linker_0
_symmetry_space_group_name_H-M    P1
_symmetry_Int_Tables_number       1
_symmetry_cell_setting            triclinic
loop_
_symmetry_equiv_pos_as_xyz
'x, y, z'
_cell_length_a     61.020928
_cell_length_b     62.944932
_cell_length_c     63.855227
_cell_angle_alpha  90.72069
_cell_angle_beta   89.311857
_cell_angle_gamma 94.449911
loop_
_atom_site_label
_atom_site_type_symbol
_atom_site_fract_x
_atom_site_fract_y
_atom_site_fract_z
_atom_type_partial_charge
C0 C 0.96538 0.29863 0.39568 0.0
O1 O 0.9643 0.31866 0.39465 0.0
Cd2 Cd 0.9867 0.34138 0.37207 0.0
O3 O 0.97778 0.28906 0.38302 0.0
Cd4 Cd 0.00352 0.29937 0.35339 0.0
C5 C 0.03551 0.32572 0.38974 0.0
O6 O 0.983 0.32656 0.33758 0.0
O7 O 0.01676 0.32601 0.32725 0.0
O8 O 0.99099 0.26864 0.33128 0.0
C9 C -0.002 0.33288 0.32471 0.0
O10 O 0.02256 0.34056 0.38846 0.0
C11 C 0.01019 0.26278 0.32783 0.0
O12 O 0.03202 0.30859 0.37912 0.0
O13 O 0.02585 0.27305 0.33739 0.0
C14 C 0.03335 0.80818 0.60911 0.0
O15 O 0.0336 0.82726 0.61579 0.0
Cd16 Cd 0.00365 0.83688 0.63696 0.0
O17 O 0.02049 0.79369 0.61756 0.0
Cd18 Cd -0.00536 0.79101 0.64858 0.0
C19 C 0.96262 0.80682 0.61076 0.0
O20 O 0.00659 0.8216 0.67093 0.0
O21 O 0.97235 0.81034 0.67331 0.0
O22 O 0.01575 0.7645 0.66515 0.0
C23 C 0.98858 0.82146 0.68105 0.0
O24 O 0.97274 0.825 0.61406 0.0
C25 C -0.00084 0.75236 0.67076 0.0
O26 O 0.96699 0.79085 0.62156 0.0
O27 O 0.9805 0.75736 0.66469 0.0
C28 C 0.46652 0.81331 0.89659 0.0
O29 O 0.46595 0.83333 0.89488 0.0
Cd30 Cd 0.48782 0.85396 0.87037 0.0
O31 O 0.47777 0.80282 0.88361 0.0
Cd32 Cd 0.50165 0.81105 0.85189 0.0
C33 C 0.53685 0.83677 0.88592 0.0
O34 O 0.47986 0.8374 0.83709 0.0
O35 O 0.51266 0.83736 0.82423 0.0
O36 O 0.48734 0.77979 0.8312 0.0
C37 C 0.49337 0.84336 0.82276 0.0
O38 O 0.52436 0.85204 0.88536 0.0
C39 C 0.50621 0.77355 0.82687 0.0
O40 O 0.53219 0.81977 0.8754 0.0
O41 O 0.52255 0.7839 0.8353 0.0
C42 C 0.53893 0.30452 0.11271 0.0
O43 O 0.53478 0.3234 0.11758 0.0
Cd44 Cd 0.50451 0.32963 0.13994 0.0
O45 O 0.52962 0.2888 0.12271 0.0
Cd46 Cd 0.50417 0.28487 0.15405 0.0
C47 C 0.46704 0.29291 0.11756 0.0
O48 O 0.51153 0.3178 0.17461 0.0
O49 O 0.47887 0.3023 0.17753 0.0
O50 O 0.5289 0.26313 0.17278 0.0
C51 C 0.49355 0.31568 0.18479 0.0
O52 O 0.47335 0.31252 0.1202 0.0
C53 C 0.51391 0.2495 0.17911 0.0
O54 O 0.47585 0.27869 0.12785 0.0
O55 O 0.49465 0.25133 0.17237 0.0
C56 C 0.95505 0.73005 0.14522 0.0
O57 O 0.93747 0.73801 0.13996 0.0
Cd58 Cd 0.94097 0.77053 0.1206 0.0
O59 O 0.97321 0.73606 0.13629 0.0
Cd60 Cd 0.98648 0.75899 0.10665 0.0
C61 C 0.98591 0.79393 0.14672 0.0
O62 O 0.9538 0.7646 0.08555 0.0
O63 O 0.98181 0.78786 0.08299 0.0
O64 O -0.0017 0.72836 0.08737 0.0
C65 C 0.96338 0.78038 0.07601 0.0
O66 O 0.96528 0.79299 0.14355 0.0
C67 C 0.0175 0.73654 0.08311 0.0
O68 O -0.0017 0.78301 0.13537 0.0
O69 O 0.02292 0.75478 0.0911 0.0
C70 C 0.52275 0.81424 0.36238 0.0
O71 O 0.50295 0.81833 0.36574 0.0
Cd72 Cd 0.47854 0.79585 0.38653 0.0
O73 O 0.53125 0.79984 0.37282 0.0
Cd74 Cd 0.51994 0.7743 0.40142 0.0
C75 C 0.49277 0.75058 0.36078 0.0
O76 O 0.49397 0.79441 0.42049 0.0
O77 O 0.48988 0.76041 0.42509 0.0
O78 O 0.55158 0.78387 0.42391 0.0
C79 C 0.48532 0.77892 0.43097 0.0
O80 O 0.47826 0.76364 0.36463 0.0
C81 C 0.55642 0.76478 0.42633 0.0
O82 O 0.51016 0.75099 0.37163 0.0
O83 O 0.54544 0.75046 0.41579 0.0
C84 C 0.4552 0.24501 0.64948 0.0
O85 O 0.43922 0.25571 0.64467 0.0
Cd86 Cd 0.44479 0.28678 0.62364 0.0
O87 O 0.47373 0.24825 0.64012 0.0
Cd88 Cd 0.48981 0.27049 0.61068 0.0
C89 C 0.49127 0.30768 0.64913 0.0
O90 O 0.45761 0.27688 0.58965 0.0
O91 O 0.48611 0.29916 0.58597 0.0
O92 O 0.50139 0.23936 0.59171 0.0
C93 C 0.46733 0.29211 0.57949 0.0
O94 O 0.47087 0.30851 0.64552 0.0
C95 C 0.5209 0.24708 0.58806 0.0
O96 O 0.50258 0.29488 0.63877 0.0
O97 O 0.52647 0.26521 0.59619 0.0
C98 C 0.01654 0.3132 0.86457 0.0
O99 O -0.00276 0.31849 0.86848 0.0
Cd100 Cd 0.97162 0.29859 0.89046 0.0
O101 O 0.02421 0.29791 0.87441 0.0
Cd102 Cd 0.01082 0.27245 0.90244 0.0
C103 C 0.97777 0.252 0.86386 0.0
O104 O 0.98893 0.2955 0.92343 0.0
O105 O 0.98175 0.26184 0.92839 0.0
O106 O 0.04534 0.27611 0.92219 0.0
C107 C 0.97958 0.28082 0.9345 0.0
O108 O 0.96491 0.26623 0.86904 0.0
C109 C 0.04635 0.25614 0.92433 0.0
O110 O -0.00391 0.25105 0.87297 0.0
O111 O 0.03195 0.24407 0.91484 0.0
C112 C 0.39916 0.96343 0.25378 0.0
O113 O 0.39647 0.96209 0.27347 0.0
Cd114 Cd 0.37655 0.98685 0.29329 0.0
O115 O 0.38929 0.97704 0.24351 0.0
Cd116 Cd 0.36352 0.00514 0.25214 0.0
C117 C 0.40694 0.03105 0.27618 0.0
O118 O 0.34021 0.98813 0.27959 0.0
O119 O 0.34026 0.02236 0.27798 0.0
O120 O 0.33834 -0.00434 0.22305 0.0
C121 C 0.33104 0.00492 0.28455 0.0
O122 O 0.40144 0.01915 0.29165 0.0
C123 C 0.33825 0.0146 0.21641 0.0
O124 O 0.39647 0.02893 0.25906 0.0
O125 O 0.35142 0.02853 0.22515 0.0
C126 C 0.27321 0.11991 0.54007 0.0
O127 O 0.28895 0.12476 0.52742 0.0
Cd128 Cd 0.28549 0.1442 0.49633 0.0
O129 O 0.25453 0.12733 0.53768 0.0
Cd130 Cd 0.23987 0.15315 0.51282 0.0
C131 C 0.24139 0.11357 0.47678 0.0
O132 O 0.27271 0.17732 0.50802 0.0
O133 O 0.24764 0.17921 0.48478 0.0
O134 O 0.22456 0.17174 0.5426 0.0
C135 C 0.26489 0.18763 0.49335 0.0
O136 O 0.26179 0.11934 0.47516 0.0
C137 C 0.20644 0.17479 0.534 0.0
O138 O 0.22926 0.12293 0.48975 0.0
O139 O 0.20298 0.16606 0.51617 0.0
C140 C 0.15546 0.03274 0.69756 0.0
O141 O 0.1485 0.01421 0.70337 0.0
Cd142 Cd 0.13188 0.0102 0.73709 0.0
O143 O 0.14953 0.04911 0.70742 0.0
Cd144 Cd 0.12226 0.05606 0.73588 0.0
C145 C 0.16536 0.04692 0.76502 0.0
O146 O 0.09652 0.02402 0.73639 0.0
O147 O 0.09966 0.04234 0.76518 0.0
O148 O 0.10192 0.07579 0.7113 0.0
C149 C 0.08891 0.02807 0.75446 0.0
O150 O 0.15983 0.02749 0.76046 0.0
C151 C 0.09836 0.09108 0.72372 0.0
O152 O 0.15443 0.06168 0.75801 0.0
O153 O 0.10753 0.0911 0.74149 0.0
C154 C 0.30235 0.86892 0.98222 0.0
O155 O 0.3029 0.87115 0.9625 0.0
Cd156 Cd 0.27829 0.89301 0.94539 0.0
O157 O 0.2895 0.87948 -0.0065 0.0
Cd158 Cd 0.26209 0.9063 0.98758 0.0
C159 C 0.22984 0.86838 0.96282 0.0
O160 O 0.28102 0.92833 0.96061 0.0
O161 O 0.24624 0.93165 0.9643 0.0
O162 O 0.2756 0.92918 0.01674 0.0
C163 C 0.26478 0.93928 0.95749 0.0
O164 O 0.24274 0.87236 0.94731 0.0
C165 C 0.25686 0.93055 0.02528 0.0
O166 O 0.2334 0.87785 0.9803 0.0
O167 O 0.24092 0.91914 0.01734 0.0
C168 C 0.23994 0.38276 0.04477 0.0
O169 O 0.25054 0.38841 0.06114 0.0
Cd170 Cd 0.28288 0.41188 0.05865 0.0
O171 O 0.24438 0.39212 0.02743 0.0
Cd172 Cd 0.26921 0.42415 0.01651 0.0
C173 C 0.30837 0.38954 0.01663 0.0
O174 O 0.27133 0.44613 0.04868 0.0
O175 O 0.29687 0.45299 0.02558 0.0
O176 O 0.23857 0.44046 0.00034 0.0
C177 C 0.28651 0.45907 0.04163 0.0
O178 O 0.30753 0.3916 0.03647 0.0
C179 C 0.24903 0.4459 0.98369 0.0
O180 O 0.29606 0.39982 0.0052 0.0
O181 O 0.26824 0.43969 0.98159 0.0
C182 C 0.73961 0.12743 0.03889 0.0
O183 O 0.76 0.13193 0.04168 0.0
Cd184 Cd 0.78099 0.15729 0.02045 0.0
O185 O 0.72917 0.13803 0.02593 0.0
Cd186 Cd 0.73781 0.16867 0.00201 0.0
C187 C 0.76627 0.13548 0.9728 0.0
O188 O 0.76509 0.1909 0.02166 0.0
O189 O 0.76458 0.19632 0.98833 0.0
O190 O 0.70663 0.18846 0.0134 0.0
C191 C 0.7708 0.20282 0.00635 0.0
O192 O 0.78136 0.13959 0.98618 0.0
C193 C 0.69924 0.19043 -0.00492 0.0
O194 O 0.74775 0.14326 0.97503 0.0
O195 O 0.70872 0.18077 0.98037 0.0
C196 C 0.17292 0.56183 0.2337 0.0
O197 O 0.1679 0.54249 0.22875 0.0
Cd198 Cd 0.14074 0.52012 0.24636 0.0
O199 O 0.16199 0.57104 0.2479 0.0
Cd200 Cd 0.12954 0.55994 0.27111 0.0
C201 C 0.16282 0.52812 0.29507 0.0
O202 O 0.1077 0.538 0.24643 0.0
O203 O 0.10011 0.53142 0.27881 0.0
O204 O 0.11093 0.59293 0.26679 0.0
C205 C 0.09456 0.52925 0.25978 0.0
O206 O 0.15775 0.51497 0.28027 0.0
C207 C 0.10709 0.59541 0.28623 0.0
O208 O 0.15586 0.54664 0.29524 0.0
O209 O 0.11531 0.58251 0.29849 0.0
C210 C 0.73421 0.86939 0.53268 0.0
O211 O 0.74098 0.87383 0.55104 0.0
Cd212 Cd 0.77253 0.89738 0.5573 0.0
O213 O 0.74261 0.8796 0.51702 0.0
Cd214 Cd 0.77047 0.91103 0.51279 0.0
C215 C 0.80793 0.87589 0.5224 0.0
O216 O 0.764 0.93169 0.54481 0.0
O217 O 0.79506 0.93898 0.52906 0.0
O218 O 0.74443 0.92758 0.4907 0.0
C219 C 0.78073 0.94463 0.54211 0.0
O220 O 0.80221 0.87804 0.54149 0.0
C221 C 0.75851 0.93468 0.47721 0.0
O222 O 0.79885 0.88607 0.5082 0.0
O223 O 0.77798 0.92925 0.47924 0.0
C224 C 0.91146 0.05145 0.2372 0.0
O225 O 0.90567 0.04444 0.21923 0.0
Cd226 Cd 0.87938 0.01496 0.2146 0.0
O227 O 0.90111 0.04459 0.25358 0.0
Cd228 Cd 0.86736 0.01951 0.25989 0.0
C229 C 0.90058 0.98056 0.24856 0.0
O230 O 0.84498 0.02513 0.22886 0.0
O231 O 0.83726 -0.00398 0.24576 0.0
O232 O 0.85168 0.04516 0.28383 0.0
C233 C 0.83136 0.00937 0.23266 0.0
O234 O 0.89779 0.98525 0.22949 0.0
C235 C 0.84456 0.03138 0.29715 0.0
O236 O 0.89156 0.99085 0.26315 0.0
O237 O 0.84986 0.01247 0.29412 0.0
C238 C 0.23778 0.6247 0.527 0.0
O239 O 0.2586 0.62738 0.52596 0.0
Cd240 Cd 0.2781 0.65145 0.5025 0.0
O241 O 0.22595 0.63621 0.51613 0.0
Cd242 Cd 0.23386 0.66562 0.49037 0.0
C243 C 0.25542 0.62962 0.45824 0.0
O244 O 0.26427 0.68573 0.5079 0.0
O245 O 0.26083 0.69272 0.47522 0.0
O246 O 0.20345 0.68683 0.50197 0.0
C247 C 0.26903 0.69818 0.49281 0.0
O248 O 0.27317 0.63366 0.4683 0.0
C249 C 0.19648 0.68912 0.4835 0.0
O250 O 0.23806 0.6382 0.46376 0.0
O251 O 0.20573 0.67904 0.46897 0.0
C252 C 0.40999 0.54745 0.74408 0.0
O253 O 0.40601 0.53634 0.72764 0.0
Cd254 Cd 0.37903 0.50716 0.72567 0.0
O255 O 0.39801 0.54446 0.76047 0.0
Cd256 Cd 0.36418 0.5203 0.7685 0.0
C257 C 0.39678 0.47937 0.76666 0.0
O258 O 0.34493 0.52167 0.73514 0.0
O259 O 0.33387 0.4959 0.7555 0.0
O260 O 0.34748 0.54938 0.78685 0.0
C261 C 0.33002 0.50742 0.74003 0.0
O262 O 0.39465 0.47983 0.74687 0.0
C263 C 0.33938 0.53797 0.80173 0.0
O264 O 0.38782 0.49284 0.7783 0.0
O265 O 0.34459 0.51884 0.80219 0.0
C266 C 0.65882 0.03969 0.73312 0.0
O267 O 0.65426 0.02002 0.72922 0.0
Cd268 Cd 0.62715 -0.00235 0.74754 0.0
O269 O 0.64773 0.04936 0.74685 0.0
Cd270 Cd 0.61608 0.03946 0.77111 0.0
C271 C 0.6485 0.00737 0.79631 0.0
O272 O 0.59391 0.01487 0.74865 0.0
O273 O 0.58584 0.01351 0.78165 0.0
O274 O 0.59709 0.07149 0.76388 0.0
C275 C 0.58078 0.00811 0.76303 0.0
O276 O 0.64336 -0.00611 0.78182 0.0
C277 C 0.59415 0.07635 0.78303 0.0
O278 O 0.64216 0.02617 0.79579 0.0
O279 O 0.60318 0.06519 0.79643 0.0
C280 C 0.77519 0.61799 0.04428 0.0
O281 O 0.79292 0.62288 0.03428 0.0
Cd282 Cd 0.79357 0.64045 0.00173 0.0
O283 O 0.75713 0.62485 0.03844 0.0
Cd284 Cd 0.74673 0.65049 0.01102 0.0
C285 C 0.75202 0.60953 0.97757 0.0
O286 O 0.7803 0.67446 0.00959 0.0
O287 O 0.75891 0.67529 0.98306 0.0
O288 O 0.7276 0.6691 0.03858 0.0
C289 C 0.77475 0.68413 -0.00655 0.0
O290 O 0.77256 0.61458 0.97915 0.0
C291 C 0.71154 0.67345 0.02738 0.0
O292 O 0.73825 0.61995 0.98776 0.0
O293 O 0.71075 0.66544 0.00901 0.0
C294 C 0.89413 0.47553 0.74374 0.0
O295 O 0.89336 0.47663 0.76359 0.0
Cd296 Cd 0.8746 0.50283 0.78261 0.0
O297 O 0.8833 0.48785 0.73276 0.0
Cd298 Cd 0.85803 0.51669 0.74019 0.0
C299 C 0.90147 0.54654 0.76032 0.0
O300 O 0.83766 0.50117 0.7702 0.0
O301 O 0.83448 0.53465 0.76553 0.0
O302 O 0.83126 0.50472 0.71315 0.0
C303 C 0.82751 0.51752 0.77448 0.0
O304 O 0.89764 0.53587 0.77695 0.0
C305 C 0.83129 0.52281 0.70455 0.0
O306 O 0.89021 0.54225 0.74395 0.0
O307 O 0.84499 0.53736 0.71146 0.0
C308 C 0.80831 0.38326 0.49517 0.0
O309 O 0.81097 0.38543 0.47555 0.0
Cd310 Cd 0.78621 0.40484 0.45564 0.0
O311 O 0.7935 0.3929 0.50481 0.0
Cd312 Cd 0.76519 0.41773 0.49618 0.0
C313 C 0.73845 0.37676 0.47033 0.0
O314 O 0.78427 0.44038 0.46962 0.0
O315 O 0.74899 0.44136 0.47149 0.0
O316 O 0.77631 0.44081 0.5259 0.0
C317 C 0.76734 0.44984 0.46508 0.0
O318 O 0.75234 0.38146 0.45576 0.0
C319 C 0.75703 0.44176 0.53336 0.0
O320 O 0.73956 0.38691 0.48771 0.0
O321 O 0.74179 0.4302 0.52445 0.0
C322 C 0.66227 0.5315 0.21446 0.0
O323 O 0.65601 0.51294 0.22071 0.0
Cd324 Cd 0.63581 0.50794 0.25259 0.0
O325 O 0.65506 0.54784 0.22338 0.0
Cd326 Cd 0.62656 0.55407 0.25087 0.0
C327 C 0.66611 0.54347 0.28421 0.0
O328 O 0.6009 0.52211 0.24785 0.0
O329 O 0.60001 0.53996 0.27691 0.0
O330 O 0.60926 0.57572 0.22567 0.0
C331 C 0.59078 0.52599 0.26476 0.0
O332 O 0.66096 0.5241 0.27917 0.0
C333 C 0.60495 0.59045 0.23847 0.0
O334 O 0.65628 0.55835 0.27598 0.0
O335 O 0.61222 0.58917 0.25695 0.0
O336 O 0.15245 0.16468 0.11172 0.0
Mn337 Mn 0.13818 0.14102 0.13131 0.0
O338 O 0.1726 0.18779 0.13252 0.0
Mn339 Mn 0.16649 0.17432 0.15791 0.0
O340 O 0.12285 0.11875 0.15216 0.0
O341 O 0.1148 0.13498 0.10993 0.0
Mn342 Mn 0.10566 0.10782 0.1089 0.0
O343 O 0.15627 0.11789 0.117 0.0
O344 O 0.09381 0.10278 0.13522 0.0
O345 O 0.11889 0.16298 0.14642 0.0
O346 O 0.1403 0.18026 0.17065 0.0
O347 O 0.09087 0.12131 0.08813 0.0
O348 O 0.1309 0.09396 0.10291 0.0
C349 C 0.18008 0.1439 0.16207 0.0
C350 C 0.1651 0.18174 0.11466 0.0
C351 C 0.10433 0.10743 0.15199 0.0
C352 C 0.10258 0.1382 0.0942 0.0
C353 C 0.15078 0.10018 0.1074 0.0
C354 C 0.12153 0.1752 0.16267 0.0
O355 O 0.16264 0.14696 0.1517 0.0
O356 O 0.18843 0.16104 0.17127 0.0
O357 O 0.08547 0.87407 0.35006 0.0
Mn358 Mn 0.10224 0.89338 0.37262 0.0
O359 O 0.11201 0.85937 0.33107 0.0
Mn360 Mn 0.13652 0.87141 0.34501 0.0
O361 O 0.12045 0.91366 0.39383 0.0
O362 O 0.0761 0.9107 0.37487 0.0
Mn363 Mn 0.07344 0.92102 0.40047 0.0
O364 O 0.08876 0.87465 0.39688 0.0
O365 O 0.09833 0.93927 0.40257 0.0
O366 O 0.11634 0.91383 0.34948 0.0
O367 O 0.14603 0.89856 0.33687 0.0
O368 O 0.04896 0.92789 0.38591 0.0
O369 O 0.0721 0.89757 0.41812 0.0
C370 C 0.14092 0.86111 0.37662 0.0
C371 C 0.09181 0.86225 0.33484 0.0
C372 C 0.11741 0.93264 0.40048 0.0
C373 C 0.0574 0.91763 0.37051 0.0
C374 C 0.0787 0.87918 0.41397 0.0
C375 C 0.1345 0.91449 0.33893 0.0
O376 O 0.12734 0.87459 0.37093 0.0
O377 O 0.15323 0.85489 0.36148 0.0
O378 O 0.39067 0.92483 0.64071 0.0
Mn379 Mn 0.36765 0.91153 0.61972 0.0
O380 O 0.41964 0.93774 0.6211 0.0
Mn381 Mn 0.40771 0.93264 0.59463 0.0
O382 O 0.34531 0.89757 0.59792 0.0
O383 O 0.35641 0.89113 0.64156 0.0
Mn384 Mn 0.32771 0.88582 0.64121 0.0
O385 O 0.34539 0.93277 0.6303 0.0
O386 O 0.3236 0.87289 0.61527 0.0
O387 O 0.38897 0.88921 0.60853 0.0
O388 O 0.41086 0.90566 0.58404 0.0
O389 O 0.33829 0.87272 0.66479 0.0
O390 O 0.31653 0.91246 0.64374 0.0
C391 C 0.37905 0.94967 0.58766 0.0
C392 C 0.41024 0.93375 0.63878 0.0
C393 C 0.33129 0.88118 0.5983 0.0
C394 C 0.3573 0.8812 0.6589 0.0
C395 C 0.32606 0.93049 0.63861 0.0
C396 C 0.40285 0.88886 0.5932 0.0
O397 O 0.37908 0.93255 0.59839 0.0
O398 O 0.39813 0.9553 0.5796 0.0
O399 O 0.39099 0.19542 0.91545 0.0
Mn400 Mn 0.37715 0.17388 0.8933 0.0
O401 O 0.41122 0.17665 0.93689 0.0
Mn402 Mn 0.40595 0.15013 0.92398 0.0
O403 O 0.36179 0.15149 0.8722 0.0
O404 O 0.35361 0.19362 0.88974 0.0
Mn405 Mn 0.34387 0.19449 0.86418 0.0
O406 O 0.39478 0.1888 0.86867 0.0
O407 O 0.33188 0.16684 0.86092 0.0
O408 O 0.35824 0.15766 0.9166 0.0
O409 O 0.38 0.13505 0.93164 0.0
O410 O 0.33071 0.21547 0.87975 0.0
O411 O 0.36904 0.20185 0.84815 0.0
C412 C 0.41963 0.14621 0.89295 0.0
C413 C 0.40331 0.19393 0.93148 0.0
C414 C 0.34266 0.15054 0.86366 0.0
C415 C 0.34273 0.20956 0.89479 0.0
C416 C 0.38895 0.19833 0.85211 0.0
C417 C 0.36108 0.14144 0.92809 0.0
O418 O 0.40192 0.15528 0.89729 0.0
O419 O 0.42843 0.13831 0.90914 0.0
O420 O 0.59111 0.37803 0.85704 0.0
Mn421 Mn 0.6113 0.39175 0.88067 0.0
O422 O 0.61353 0.36188 0.83447 0.0
Mn423 Mn 0.6399 0.36949 0.84775 0.0
O424 O 0.63273 0.40677 0.90282 0.0
O425 O 0.58853 0.41224 0.88658 0.0
Mn426 Mn 0.58663 0.41874 0.91328 0.0
O427 O 0.59644 0.37118 0.90332 0.0
O428 O 0.61402 0.43158 0.91939 0.0
O429 O 0.62662 0.41344 0.85933 0.0
O430 O 0.65239 0.39639 0.84187 0.0
O431 O 0.56523 0.43284 0.89983 0.0
O432 O 0.57952 0.39268 0.92592 0.0
C433 C 0.64517 0.35443 0.87716 0.0
C434 C 0.59461 0.36722 0.84022 0.0
C435 C 0.63192 0.42344 0.91464 0.0
C436 C 0.57204 0.42322 0.88326 0.0
C437 C 0.58489 0.37427 0.92001 0.0
C438 C 0.64346 0.41336 0.84702 0.0
O439 O 0.63339 0.37035 0.87468 0.0
O440 O 0.65503 0.34878 0.86015 0.0
O441 O 0.89638 0.42747 0.15125 0.0
Mn442 Mn 0.87298 0.4158 0.12962 0.0
O443 O 0.92403 0.44456 0.13265 0.0
Mn444 Mn 0.91278 0.43955 0.1059 0.0
O445 O 0.85031 0.40299 0.10754 0.0
O446 O 0.86162 0.39427 0.1502 0.0
Mn447 Mn 0.83289 0.38978 0.15095 0.0
O448 O 0.85097 0.43676 0.14133 0.0
O449 O 0.82776 0.37852 0.12441 0.0
O450 O 0.89439 0.39443 0.11702 0.0
O451 O 0.91729 0.41297 0.09464 0.0
O452 O 0.84415 0.37536 0.17345 0.0
O453 O 0.82245 0.4165 0.15527 0.0
C454 C 0.88304 0.45516 0.09912 0.0
C455 C 0.91512 0.43822 0.14989 0.0
C456 C 0.83556 0.38717 0.10762 0.0
C457 C 0.86304 0.38352 0.1669 0.0
C458 C 0.83193 0.43455 0.15019 0.0
C459 C 0.90912 0.39542 0.10236 0.0
O460 O 0.88409 0.43791 0.10939 0.0
O461 O 0.90192 0.46211 0.09147 0.0
O462 O 0.90165 0.69566 0.416 0.0
Mn463 Mn 0.88546 0.67517 0.39442 0.0
O464 O 0.91635 0.67431 0.43936 0.0
Mn465 Mn 0.90956 0.648 0.42626 0.0
O466 O 0.86812 0.65392 0.37375 0.0
O467 O 0.86471 0.69751 0.38951 0.0
Mn468 Mn 0.85757 0.69929 0.36308 0.0
O469 O 0.9055 0.68696 0.36991 0.0
O470 O 0.8433 0.67284 0.35778 0.0
O471 O 0.86417 0.66176 0.41764 0.0
O472 O 0.88184 0.63571 0.43238 0.0
O473 O 0.8453 0.72147 0.37742 0.0
O474 O 0.88403 0.70459 0.34865 0.0
C475 C 0.92413 0.64351 0.39551 0.0
C476 C 0.9119 0.69272 0.43308 0.0
C477 C 0.85101 0.65518 0.36229 0.0
C478 C 0.85512 0.71459 0.39354 0.0
C479 C 0.90245 0.69772 0.35337 0.0
C480 C 0.86432 0.64477 0.42867 0.0
O481 O 0.90736 0.654 0.39962 0.0
O482 O 0.93112 0.6341 0.41171 0.0
O483 O 0.85472 0.89365 0.90377 0.0
Mn484 Mn 0.87037 0.91761 0.88539 0.0
O485 O 0.83993 0.86883 0.88107 0.0
Mn486 Mn 0.84926 0.88142 0.85598 0.0
O487 O 0.88686 0.94075 0.8666 0.0
O488 O 0.8892 0.92663 0.90958 0.0
Mn489 Mn 0.8938 0.9544 0.91232 0.0
O490 O 0.84763 0.93899 0.89475 0.0
O491 O 0.90893 0.96162 0.88775 0.0
O492 O 0.89388 0.89731 0.87463 0.0
O493 O 0.87798 0.8776 0.84827 0.0
O494 O 0.90612 0.9422 0.93545 0.0
O495 O 0.86592 0.96425 0.91472 0.0
C496 C 0.83489 0.91118 0.84964 0.0
C497 C 0.84367 0.87585 0.89968 0.0
C498 C 0.90275 0.95511 0.86956 0.0
C499 C 0.89849 0.92433 0.92719 0.0
C500 C 0.84849 0.95616 0.90592 0.0
C501 C 0.89481 0.8845 0.85878 0.0
O502 O 0.85099 0.90874 0.86174 0.0
O503 O 0.82856 0.8939 0.83961 0.0
O504 O 0.90279 0.19079 0.64702 0.0
Mn505 Mn 0.88084 0.17663 0.6253 0.0
O506 O 0.88332 0.21166 0.66808 0.0
Mn507 Mn 0.85591 0.20577 0.6559 0.0
O508 O 0.85832 0.16071 0.60467 0.0
O509 O 0.9011 0.15377 0.62137 0.0
Mn510 Mn 0.90435 0.14519 0.59539 0.0
O511 O 0.89622 0.19349 0.60052 0.0
O512 O 0.87613 0.13383 0.59004 0.0
O513 O 0.86402 0.15895 0.64907 0.0
O514 O 0.84097 0.18079 0.66463 0.0
O515 O 0.92556 0.1332 0.61143 0.0
O516 O 0.91291 0.16961 0.58037 0.0
C517 C 0.85165 0.21712 0.62457 0.0
C518 C 0.90114 0.20357 0.66269 0.0
C519 C 0.85865 0.14324 0.59388 0.0
C520 C 0.91797 0.14432 0.62662 0.0
C521 C 0.90766 0.18847 0.58439 0.0
C522 C 0.84769 0.16232 0.66135 0.0
O523 O 0.86149 0.20056 0.62937 0.0
O524 O 0.84299 0.22629 0.64052 0.0
O525 O 0.64582 0.16324 0.39966 0.0
Mn526 Mn 0.63269 0.13949 0.37913 0.0
O527 O 0.66536 0.18726 0.37938 0.0
Mn528 Mn 0.65997 0.17439 0.35342 0.0
O529 O 0.6183 0.1171 0.35753 0.0
O530 O 0.60958 0.13165 0.40067 0.0
Mn531 Mn 0.60249 0.10405 0.40098 0.0
O532 O 0.65224 0.11709 0.39174 0.0
O533 O 0.59096 0.09841 0.37481 0.0
O534 O 0.61246 0.16101 0.36551 0.0
O535 O 0.63347 0.17954 0.34166 0.0
O536 O 0.58659 0.11606 0.4225 0.0
O537 O 0.62864 0.09173 0.40598 0.0
C538 C 0.67481 0.14456 0.34842 0.0
C539 C 0.65794 0.18072 0.39714 0.0
C540 C 0.6008 0.10423 0.35788 0.0
C541 C 0.59695 0.13374 0.41669 0.0
C542 C 0.64807 0.09911 0.40091 0.0
C543 C 0.61481 0.17378 0.34986 0.0
O544 O 0.65677 0.14698 0.35847 0.0
O545 O 0.68278 0.16192 0.33961 0.0
O546 O 0.60852 0.8702 0.09866 0.0
Mn547 Mn 0.61826 0.89061 0.12349 0.0
O548 O 0.58389 0.88704 0.0802 0.0
Mn549 Mn 0.58468 0.91195 0.09609 0.0
O550 O 0.62929 0.91219 0.14724 0.0
O551 O 0.6458 0.87571 0.1247 0.0
Mn552 Mn 0.65543 0.87279 0.15008 0.0
O553 O 0.60374 0.86975 0.14576 0.0
O554 O 0.66123 0.9007 0.15858 0.0
O555 O 0.63376 0.9127 0.10265 0.0
O556 O 0.60748 0.93196 0.08992 0.0
O557 O 0.67273 0.85734 0.13213 0.0
O558 O 0.63201 0.85841 0.16413 0.0
C559 C 0.57066 0.91035 0.12709 0.0
C560 C 0.5954 0.87129 0.08316 0.0
C561 C 0.64734 0.9148 0.15759 0.0
C562 C 0.65929 0.86249 0.11791 0.0
C563 C 0.61146 0.85899 0.16066 0.0
C564 C 0.62763 0.92891 0.0928 0.0
O565 O 0.5898 0.90449 0.12196 0.0
O566 O 0.56038 0.91829 0.11179 0.0
O567 O 0.42293 0.70338 0.1474 0.0
Mn568 Mn 0.40052 0.68834 0.12608 0.0
O569 O 0.40325 0.72484 0.16755 0.0
Mn570 Mn 0.37577 0.71788 0.15632 0.0
O571 O 0.37701 0.67256 0.10617 0.0
O572 O 0.42141 0.66535 0.12168 0.0
Mn573 Mn 0.42154 0.65766 0.09501 0.0
O574 O 0.4155 0.7056 0.1013 0.0
O575 O 0.39357 0.64632 0.08962 0.0
O576 O 0.38421 0.67078 0.15024 0.0
O577 O 0.36152 0.69294 0.16596 0.0
O578 O 0.442 0.6423 0.10767 0.0
O579 O 0.4306 0.68184 0.08005 0.0
C580 C 0.37093 0.72835 0.12473 0.0
C581 C 0.42131 0.71704 0.16249 0.0
C582 C 0.37646 0.65564 0.09457 0.0
C583 C 0.43711 0.653 0.12431 0.0
C584 C 0.42626 0.70085 0.08467 0.0
C585 C 0.3682 0.67442 0.16284 0.0
O586 O 0.38076 0.71189 0.12992 0.0
O587 O 0.36261 0.73794 0.14063 0.0
O588 O 0.12757 0.66389 0.88865 0.0
Mn589 Mn 0.11732 0.64078 0.86633 0.0
O590 O 0.14506 0.69072 0.87014 0.0
Mn591 Mn 0.14264 0.67889 0.84337 0.0
O592 O 0.10621 0.61916 0.84273 0.0
O593 O 0.09355 0.62988 0.88586 0.0
Mn594 Mn 0.08741 0.60224 0.88351 0.0
O595 O 0.13748 0.61907 0.87904 0.0
O596 O 0.07744 0.59929 0.85641 0.0
O597 O 0.096 0.66133 0.85289 0.0
O598 O 0.11632 0.68187 0.83015 0.0
O599 O 0.07066 0.61197 0.90584 0.0
O600 O 0.11422 0.59086 0.88821 0.0
C601 C 0.16091 0.65101 0.83853 0.0
C602 C 0.13795 0.68244 0.88733 0.0
C603 C 0.08868 0.60656 0.84075 0.0
C604 C 0.08087 0.63027 0.90197 0.0
C605 C 0.13358 0.59998 0.88591 0.0
C606 C 0.0978 0.67437 0.83746 0.0
O607 O 0.14195 0.65133 0.84744 0.0
O608 O 0.1677 0.66923 0.8307 0.0
O609 O 0.10523 0.37394 0.60179 0.0
Mn610 Mn 0.1161 0.39544 0.62531 0.0
O611 O 0.08099 0.3904 0.58244 0.0
Mn612 Mn 0.08356 0.41656 0.59626 0.0
O613 O 0.12795 0.41826 0.6476 0.0
O614 O 0.1427 0.37898 0.62799 0.0
Mn615 Mn 0.15202 0.3783 0.65377 0.0
O616 O 0.10053 0.37701 0.64899 0.0
O617 O 0.15916 0.40653 0.66025 0.0
O618 O 0.13273 0.4152 0.60301 0.0
O619 O 0.1075 0.43452 0.58842 0.0
O620 O 0.16919 0.36091 0.63786 0.0
O621 O 0.12805 0.36596 0.66866 0.0
C622 C 0.07032 0.41833 0.62747 0.0
C623 C 0.09192 0.37445 0.58635 0.0
C624 C 0.14588 0.42099 0.65807 0.0
C625 C 0.15604 0.36486 0.62292 0.0
C626 C 0.10767 0.36716 0.66482 0.0
C627 C 0.12739 0.43073 0.59165 0.0
O628 O 0.08867 0.41068 0.62251 0.0
O629 O 0.06033 0.42593 0.61182 0.0
O630 O 0.64367 0.6712 0.61068 0.0
Mn631 Mn 0.63008 0.64901 0.63214 0.0
O632 O 0.66154 0.69688 0.63047 0.0
Mn633 Mn 0.6586 0.68422 0.65665 0.0
O634 O 0.6154 0.62802 0.65458 0.0
O635 O 0.60619 0.64095 0.61193 0.0
Mn636 Mn 0.59796 0.61356 0.61222 0.0
O637 O 0.64837 0.62545 0.61919 0.0
O638 O 0.58629 0.61053 0.63887 0.0
O639 O 0.61102 0.67184 0.64624 0.0
O640 O 0.63266 0.68918 0.67037 0.0
O641 O 0.58447 0.62533 0.58951 0.0
O642 O 0.62351 0.59967 0.60767 0.0
C643 C 0.67322 0.65397 0.65998 0.0
C644 C 0.65441 0.68949 0.61287 0.0
C645 C 0.59703 0.61642 0.65525 0.0
C646 C 0.59559 0.64282 0.5949 0.0
C647 C 0.6433 0.60687 0.61126 0.0
C648 C 0.61381 0.68414 0.66247 0.0
O649 O 0.65473 0.65676 0.65151 0.0
O650 O 0.6823 0.67137 0.66805 0.0
O651 O 0.34984 0.39468 0.40111 0.0
Mn652 Mn 0.36574 0.41825 0.38247 0.0
O653 O 0.33368 0.37028 0.3788 0.0
Mn654 Mn 0.34387 0.38225 0.35373 0.0
O655 O 0.38252 0.44097 0.36324 0.0
O656 O 0.385 0.42702 0.40641 0.0
Mn657 Mn 0.39096 0.45472 0.40826 0.0
O658 O 0.34357 0.43983 0.39256 0.0
O659 O 0.4065 0.46042 0.3837 0.0
O660 O 0.38874 0.39748 0.37172 0.0
O661 O 0.37232 0.3771 0.34619 0.0
O662 O 0.40247 0.44273 0.43191 0.0
O663 O 0.36373 0.46604 0.40966 0.0
C664 C 0.33013 0.41192 0.34593 0.0
C665 C 0.33793 0.37732 0.39728 0.0
C666 C 0.3994 0.45431 0.36571 0.0
C667 C 0.39414 0.42489 0.42412 0.0
C668 C 0.34556 0.45788 0.40225 0.0
C669 C 0.38932 0.38401 0.35641 0.0
O670 O 0.3458 0.4098 0.3588 0.0
O671 O 0.32398 0.39427 0.33636 0.0
H672 H 0.0491 0.24593 0.31901 0.0
H673 H 0.05826 0.22511 0.28808 0.0
H674 H 0.9908 0.22276 0.26827 0.0
H675 H 0.98146 0.24384 0.29923 0.0
H676 H 0.0418 0.18493 0.27048 0.0
H677 H 0.02631 0.25403 0.22043 0.0
H678 H 0.0286 0.25655 0.24851 0.0
H679 H 0.00427 0.24354 0.23719 0.0
C680 C 0.03609 0.24065 0.30832 0.0
C681 C 0.01461 0.24673 0.31147 0.0
C682 C 0.04135 0.22872 0.29064 0.0
C683 C 0.02529 0.2227 0.27572 0.0
C684 C 0.0035 0.22752 0.27946 0.0
H685 H 0.08019 0.15493 0.16653 0.0
H686 H 0.05123 0.16427 0.1914 0.0
C687 C -0.00182 0.23944 0.29723 0.0
C688 C 0.03212 0.21313 0.25558 0.0
H689 H 0.04377 0.22606 0.20463 0.0
C690 C 0.04177 0.19362 0.25592 0.0
C691 C 0.03214 0.22463 0.23666 0.0
C692 C 0.02241 0.24591 0.23552 0.0
C693 C 0.05257 0.1859 0.23817 0.0
C694 C 0.05356 0.19795 0.21958 0.0
C695 C 0.04278 0.21681 0.21887 0.0
C696 C 0.06898 0.19335 0.2023 0.0
C697 C 0.06422 0.16574 0.23985 0.0
C698 C 0.08805 0.207 0.19967 0.0
C699 C 0.10452 0.20167 0.1857 0.0
C700 C 0.10217 0.18269 0.17386 0.0
C701 C 0.08238 0.16971 0.17539 0.0
C702 C 0.06593 0.17494 0.18967 0.0
H703 H 0.06329 0.15914 0.25592 0.0
H704 H 0.05662 0.15357 0.22895 0.0
H705 H 0.08178 0.16873 0.23523 0.0
H706 H 0.0907 0.22129 0.20923 0.0
H707 H 0.11954 0.21202 0.18479 0.0
H708 H 0.06564 0.83343 0.58989 0.0
H709 H 0.07628 0.83212 0.55308 0.0
H710 H 0.03706 0.77261 0.54528 0.0
H711 H 0.02588 0.77402 0.58225 0.0
H712 H 0.09523 0.80435 0.52521 0.0
H713 H 0.0071 0.81237 0.50665 0.0
H714 H 0.01708 0.815 0.53308 0.0
H715 H 0.01361 0.78919 0.52072 0.0
C716 C 0.05968 0.81976 0.58053 0.0
C717 C 0.0446 0.80403 0.58894 0.0
C718 C 0.06581 0.81902 0.55944 0.0
C719 C 0.05701 0.80256 0.5463 0.0
C720 C 0.04365 0.7857 0.55505 0.0
H721 H 0.06267 0.83711 0.41171 0.0
H722 H 0.05804 0.81195 0.44115 0.0
C723 C 0.03747 0.78643 0.57625 0.0
C724 C 0.06005 0.80479 0.52331 0.0
H725 H 0.03301 0.82024 0.48017 0.0
C726 C 0.08157 0.80724 0.51519 0.0
C727 C 0.04219 0.80843 0.51015 0.0
C728 C 0.01867 0.80625 0.51799 0.0
C729 C 0.08581 0.81492 0.4949 0.0
C730 C 0.06812 0.82043 0.48251 0.0
C731 C 0.04651 0.81603 0.48979 0.0
C732 C 0.07185 0.8345 0.4642 0.0
C733 C 0.10929 0.81834 0.48735 0.0
C734 C 0.08082 0.85543 0.46756 0.0
C735 C 0.083 0.86973 0.45107 0.0
C736 C 0.07653 0.86335 0.43081 0.0
C737 C 0.06782 0.8423 0.42724 0.0
C738 C 0.0652 0.828 0.44396 0.0
H739 H 0.1197 0.8067 0.49447 0.0
H740 H 0.11041 0.81692 0.47005 0.0
H741 H 0.11599 0.83458 0.49204 0.0
H742 H 0.08569 0.86087 0.48311 0.0
H743 H 0.0898 0.88587 0.45418 0.0
H744 H 0.45221 0.85446 0.81534 0.0
H745 H 0.43843 0.86914 0.78362 0.0
H746 H 0.50394 0.87417 0.75697 0.0
H747 H 0.51787 0.85845 0.78875 0.0
H748 H 0.44615 0.90568 0.76329 0.0
H749 H 0.47152 0.83872 0.71279 0.0
H750 H 0.47337 0.83803 0.74091 0.0
H751 H 0.49281 0.85479 0.72602 0.0
C752 C 0.46381 0.8588 0.80285 0.0
C753 C 0.4861 0.85502 0.80446 0.0
C754 C 0.45589 0.8673 0.78469 0.0
C755 C 0.47005 0.87243 0.76771 0.0
C756 C 0.4926 0.86984 0.76965 0.0
H757 H 0.40133 0.8865 0.64824 0.0
H758 H 0.43257 0.8896 0.67236 0.0
C759 C 0.50056 0.86103 0.78787 0.0
C760 C 0.46029 0.87924 0.74794 0.0
H761 H 0.4461 0.86046 0.69916 0.0
C762 C 0.44647 0.89603 0.7491 0.0
C763 C 0.46096 0.86689 0.72927 0.0
C764 C 0.47534 0.84852 0.72706 0.0
C765 C 0.43163 0.89937 0.73315 0.0
C766 C 0.43098 0.88588 0.71521 0.0
C767 C 0.44652 0.87067 0.71298 0.0
C768 C 0.41244 0.88505 0.70034 0.0
C769 C 0.41601 0.91654 0.73657 0.0
C770 C 0.39091 0.88082 0.70796 0.0
C771 C 0.3732 0.87942 0.69433 0.0
C772 C 0.3766 0.88196 0.6727 0.0
C773 C 0.3982 0.8853 0.66489 0.0
C774 C 0.41603 0.88689 0.67863 0.0
H775 H 0.42517 0.93144 0.74217 0.0
H776 H 0.40686 0.92004 0.72232 0.0
H777 H 0.40397 0.91146 0.74905 0.0
H778 H 0.38778 0.87859 0.72456 0.0
H779 H 0.35677 0.87655 0.70082 0.0
H780 H 0.4452 0.31867 0.09192 0.0
H781 H 0.42567 0.30817 0.05972 0.0
H782 H 0.43626 0.24236 0.07115 0.0
H783 H 0.4551 0.25257 0.10348 0.0
H784 H 0.44329 0.29118 0.02646 0.0
H785 H 0.37422 0.23583 0.05199 0.0
H786 H 0.38948 0.25326 0.0702 0.0
H787 H 0.39913 0.22779 0.06289 0.0
C788 C 0.44282 0.30189 0.08788 0.0
C789 C 0.45178 0.28647 0.10031 0.0
C790 C 0.4317 0.29593 0.06942 0.0
C791 C 0.42926 0.27445 0.06306 0.0
C792 C 0.43737 0.25897 0.07593 0.0
H793 H 0.44138 0.21188 0.94791 0.0
H794 H 0.44488 0.23622 0.97811 0.0
C795 C 0.44831 0.26488 0.09442 0.0
C796 C 0.4207 0.26827 0.04198 0.0
H797 H 0.38864 0.22945 0.01677 0.0
C798 C 0.43096 0.27799 0.02434 0.0
C799 C 0.4042 0.25147 0.03904 0.0
C800 C 0.39098 0.2417 0.05709 0.0
C801 C 0.42648 0.27018 0.00402 0.0
C802 C 0.41187 0.25182 0.00133 0.0
C803 C 0.40024 0.24326 0.01879 0.0
C804 C 0.40996 0.23997 0.98109 0.0
C805 C 0.43779 0.28145 0.98569 0.0
C806 C 0.38921 0.23379 0.97277 0.0
C807 C 0.38728 0.2199 0.95554 0.0
C808 C 0.406 0.21193 0.94634 0.0
C809 C 0.42678 0.21838 0.95436 0.0
C810 C 0.42876 0.23236 0.97155 0.0
H811 H 0.44124 0.29872 0.98917 0.0
H812 H 0.45377 0.27465 0.98258 0.0
H813 H 0.4277 0.27962 0.97133 0.0
H814 H 0.37443 0.23896 0.98016 0.0
H815 H 0.37106 0.21418 0.95036 0.0
H816 H 0.02787 0.7951 0.16169 0.0
H817 H 0.04048 0.8077 0.19617 0.0
H818 H 0.97681 0.83012 0.20976 0.0
H819 H 0.96399 0.81768 0.17523 0.0
H820 H 0.01417 0.85812 0.22367 0.0
H821 H 0.01742 0.77459 0.24924 0.0
H822 H 0.03217 0.78049 0.22524 0.0
H823 H 0.00283 0.78164 0.22621 0.0
C824 C 0.01663 0.80306 0.1718 0.0
C825 C -0.00517 0.80515 0.16573 0.0
C826 C 0.02383 0.81012 0.19157 0.0
C827 C 0.0094 0.81938 0.20564 0.0
C828 C 0.98811 0.82281 0.19917 0.0
H829 H 0.04703 0.86653 0.33294 0.0
H830 H 0.02268 0.85539 0.30376 0.0
C831 C 0.98085 0.81572 0.1794 0.0
C832 C 0.01634 0.82444 0.22741 0.0
H833 H 0.03561 0.80148 0.27095 0.0
C834 C 0.01857 0.84578 0.23418 0.0
C835 C 0.02162 0.80821 0.24118 0.0
C836 C 0.0182 0.78492 0.23523 0.0
C837 C 0.02753 0.85145 0.25386 0.0
C838 C 0.03413 0.83526 0.26708 0.0
C839 C 0.03063 0.81385 0.26075 0.0
C840 C 0.04757 0.84027 0.28595 0.0
C841 C 0.03102 0.87472 0.25986 0.0
C842 C 0.06923 0.83443 0.28606 0.0
C843 C 0.08307 0.84059 0.30257 0.0
C844 C 0.07564 0.85286 0.31945 0.0
C845 C 0.05346 0.85753 0.32 0.0
C846 C 0.03954 0.8513 0.30332 0.0
H847 H 0.02757 0.88535 0.24674 0.0
H848 H 0.0199 0.87812 0.27312 0.0
H849 H 0.04817 0.87862 0.26508 0.0
H850 H 0.07573 0.82573 0.27292 0.0
H851 H 0.09993 0.83635 0.3016 0.0
H852 H 0.47257 0.81689 0.44517 0.0
H853 H 0.45196 0.82402 0.47695 0.0
H854 H 0.44468 0.75679 0.49022 0.0
H855 H 0.46591 0.74946 0.45831 0.0
H856 H 0.40983 0.81008 0.48984 0.0
H857 H 0.47324 0.78308 0.54353 0.0
H858 H 0.47891 0.78744 0.51605 0.0
H859 H 0.46182 0.76447 0.5242 0.0
C860 C 0.46651 0.80354 0.45471 0.0
C861 C 0.47101 0.78262 0.44929 0.0
C862 C 0.45466 0.80765 0.47288 0.0
C863 C 0.44698 0.79097 0.48606 0.0
C864 C 0.45075 0.76992 0.48041 0.0
H865 H 0.37718 0.85124 0.59041 0.0
H866 H 0.38462 0.8204 0.56811 0.0
C867 C 0.46274 0.76576 0.46213 0.0
C868 C 0.43593 0.79635 0.506 0.0
H869 H 0.44629 0.80339 0.55816 0.0
C870 C 0.41732 0.80805 0.50493 0.0
C871 C 0.44591 0.79376 0.5256 0.0
C872 C 0.46613 0.78161 0.52759 0.0
C873 C 0.40966 0.81888 0.52252 0.0
C874 C 0.42052 0.81745 0.54184 0.0
C875 C 0.43791 0.80424 0.54335 0.0
C876 C 0.41727 0.83306 0.5589 0.0
C877 C 0.39167 0.83371 0.51976 0.0
C878 C 0.43356 0.84973 0.56189 0.0
C879 C 0.42937 0.86722 0.57445 0.0
C880 C 0.40885 0.86828 0.58444 0.0
C881 C 0.39318 0.85074 0.58296 0.0
C882 C 0.39735 0.83321 0.57015 0.0
H883 H 0.38458 0.8326 0.5038 0.0
H884 H 0.37833 0.82997 0.53128 0.0
H885 H 0.39826 0.85041 0.52273 0.0
H886 H 0.44904 0.84989 0.55336 0.0
H887 H 0.44178 0.88046 0.57545 0.0
H888 H 0.48837 0.23097 0.67292 0.0
H889 H 0.48511 0.21691 0.7085 0.0
H890 H 0.41451 0.21615 0.7052 0.0
H891 H 0.41758 0.23009 0.66974 0.0
H892 H 0.46631 0.2401 0.74053 0.0
H893 H 0.42329 0.15975 0.73387 0.0
H894 H 0.43734 0.17286 0.71195 0.0
H895 H 0.40998 0.17914 0.71926 0.0
C896 C 0.47211 0.22712 0.67949 0.0
C897 C 0.45322 0.23174 0.66852 0.0
C898 C 0.4703 0.21919 0.69988 0.0
C899 C 0.44958 0.21539 0.70946 0.0
C900 C 0.43066 0.21862 0.698 0.0
H901 H 0.39192 0.2328 0.82668 0.0
H902 H 0.41244 0.23641 0.79362 0.0
C903 C 0.43245 0.22669 0.67773 0.0
C904 C 0.44756 0.21085 0.73217 0.0
H905 H 0.41949 0.1781 0.76709 0.0
C906 C 0.45649 0.22629 0.74639 0.0
C907 C 0.43498 0.19274 0.73984 0.0
C908 C 0.42604 0.17507 0.72543 0.0
C909 C 0.45182 0.22485 0.76793 0.0
C910 C 0.43772 0.20765 0.77536 0.0
C911 C 0.43013 0.19142 0.76135 0.0
C912 C 0.42869 0.20729 0.79702 0.0
C913 C 0.46149 0.24208 0.78247 0.0
C914 C 0.43127 0.18993 0.81009 0.0
C915 C 0.41991 0.18813 0.82923 0.0
C916 C 0.40525 0.20325 0.83525 0.0
C917 C 0.40334 0.22104 0.82253 0.0
C918 C 0.41508 0.22312 0.80366 0.0
H919 H 0.47687 0.25006 0.77584 0.0
H920 H 0.44953 0.25434 0.78475 0.0
H921 H 0.46507 0.23553 0.79802 0.0
H922 H 0.44121 0.17727 0.80502 0.0
H923 H 0.42122 0.17406 0.83846 0.0
H924 H 0.04791 0.21465 0.93532 0.0
H925 H 0.06667 0.20095 0.96509 0.0
H926 H 0.09777 0.26363 0.9777 0.0
H927 H 0.07823 0.27773 0.9482 0.0
H928 H 0.10799 0.19848 0.97704 0.0
H929 H 0.06623 0.25163 0.03238 0.0
H930 H 0.05906 0.24926 0.00512 0.0
H931 H 0.08364 0.26481 0.0129 0.0
C932 C 0.05898 0.22553 0.94418 0.0
C933 C 0.06133 0.24735 0.93953 0.0
C934 C 0.06973 0.21764 0.96126 0.0
C935 C 0.08321 0.23134 0.97401 0.0
C936 C 0.08695 0.25286 0.96848 0.0
H937 H 0.13855 0.15825 0.07517 0.0
H938 H 0.13865 0.18571 0.04832 0.0
C939 C 0.07596 0.26085 0.95146 0.0
C940 C 0.09196 0.22295 -0.00633 0.0
H941 H 0.08685 0.22584 0.04698 0.0
C942 C 0.10367 0.20463 -0.00764 0.0
C943 C 0.08623 0.23098 0.01367 0.0
C944 C 0.07296 0.25014 0.01623 0.0
C945 C 0.10856 0.19333 0.01033 0.0
C946 C 0.10224 0.20099 0.0303 0.0
C947 C 0.09176 0.22006 0.03169 0.0
C948 C 0.10341 0.18793 0.04945 0.0
C949 C 0.11904 0.1725 0.00755 0.0
C950 C 0.08386 0.18113 0.06006 0.0
C951 C 0.08396 0.16608 0.07593 0.0
C952 C 0.10363 0.15773 0.08169 0.0
C953 C 0.12336 0.16525 0.07183 0.0
C954 C 0.12331 0.18051 0.05604 0.0
H955 H 0.11869 0.16682 0.991 0.0
H956 H 0.13648 0.17467 0.01236 0.0
H957 H 0.11056 0.15992 0.01741 0.0
H958 H 0.06828 0.18653 0.05523 0.0
H959 H 0.06848 0.16012 0.08298 0.0
H960 H 0.33446 0.05386 0.19997 0.0
H961 H 0.30284 0.06616 0.18207 0.0
H962 H 0.27178 0.00223 0.18168 0.0
H963 H 0.30336 0.9898 0.2001 0.0
H964 H 0.2812 0.05577 0.14492 0.0
H965 H 0.22721 0.03545 0.21407 0.0
H966 H 0.25669 0.03506 0.21525 0.0
H967 H 0.24075 0.01423 0.20156 0.0
C968 C 0.32112 0.04229 0.19576 0.0
C969 C 0.32137 0.02089 0.20167 0.0
C970 C 0.30301 0.04935 0.1855 0.0
C971 C 0.28471 0.03521 0.18092 0.0
C972 C 0.2855 0.01352 0.18547 0.0
H973 H 0.16458 0.10182 0.15442 0.0
H974 H 0.18658 0.07043 0.1539 0.0
C975 C 0.30367 0.00641 0.1958 0.0
C976 C 0.26454 0.04394 0.17283 0.0
H977 H 0.21396 0.05786 0.18909 0.0
C978 C 0.26627 0.05576 0.15433 0.0
C979 C 0.24491 0.04379 0.18496 0.0
C980 C 0.24215 0.03157 0.20513 0.0
C981 C 0.24988 0.06897 0.14867 0.0
C982 C 0.23114 0.07026 0.16175 0.0
C983 C 0.22831 0.05679 0.17906 0.0
C984 C 0.21734 0.0886 0.1606 0.0
C985 C 0.2538 0.08252 0.12949 0.0
C986 C 0.22728 0.109 0.16472 0.0
C987 C 0.21493 0.12664 0.16503 0.0
C988 C 0.19224 0.12445 0.16119 0.0
C989 C 0.1821 0.10401 0.15704 0.0
C990 C 0.1946 0.08612 0.15687 0.0
H991 H 0.25856 0.07246 0.11602 0.0
H992 H 0.23924 0.0909 0.12515 0.0
H993 H 0.26773 0.09457 0.1324 0.0
H994 H 0.2447 0.11125 0.168 0.0
H995 H 0.22329 0.14212 0.16829 0.0
H996 H 0.19972 0.09419 0.47924 0.0
H997 H 0.18626 0.06005 0.46375 0.0
H998 H 0.24903 0.05456 0.4333 0.0
H999 H 0.2627 0.08884 0.44862 0.0
H1000 H 0.21253 0.04341 0.40737 0.0
H1001 H 0.20483 0.00184 0.48328 0.0
H1002 H 0.19128 0.02616 0.48344 0.0
H1003 H 0.22066 0.02709 0.48009 0.0
C1004 C 0.21064 0.08587 0.4691 0.0
C1005 C 0.23235 0.09424 0.4653 0.0
C1006 C 0.20298 0.06625 0.46042 0.0
C1007 C 0.21684 0.05454 0.44782 0.0
C1008 C 0.23817 0.06323 0.4432 0.0
H1009 H 0.15927 0.92503 0.41334 0.0
H1010 H 0.18906 0.95217 0.42282 0.0
C1011 C 0.24591 0.08287 0.45193 0.0
C1012 C 0.20877 0.03334 0.43942 0.0
H1013 H 0.18405 0.98542 0.45468 0.0
C1014 C 0.20672 0.03056 0.41768 0.0
C1015 C 0.20172 0.01636 0.45283 0.0
C1016 C 0.20494 0.01788 0.4762 0.0
C1017 C 0.19605 0.01192 0.40915 0.0
C1018 C 0.18709 -0.00417 0.42272 0.0
C1019 C 0.19081 -0.00216 0.4443 0.0
C1020 C 0.17055 0.97902 0.41536 0.0
C1021 C 0.19356 0.01 0.38573 0.0
C1022 C 0.15045 0.98518 0.40818 0.0
C1023 C 0.13353 0.96995 0.40324 0.0
C1024 C 0.13628 0.94809 0.40521 0.0
C1025 C 0.15669 0.94177 0.41176 0.0
C1026 C 0.17366 0.9572 0.41712 0.0
H1027 H 0.2074 0.01896 0.37743 0.0
H1028 H 0.19277 -0.00692 0.38053 0.0
H1029 H 0.17809 0.0168 0.38115 0.0
H1030 H 0.14759 0.0019 0.40699 0.0
H1031 H 0.11815 0.97539 0.39792 0.0
H1032 H 0.18888 0.06412 0.69519 0.0
H1033 H 0.22429 0.06117 0.67735 0.0
H1034 H 0.19888 0.00242 0.64798 0.0
H1035 H 0.16371 0.00518 0.66583 0.0
H1036 H 0.24581 0.02607 0.68838 0.0
H1037 H 0.24009 0.02777 0.60235 0.0
H1038 H 0.22156 0.0411 0.61948 0.0
H1039 H 0.21665 0.01306 0.61369 0.0
C1040 C 0.19054 0.0511 0.68418 0.0
C1041 C 0.17363 0.03474 0.68204 0.0
C1042 C 0.21081 0.04943 0.67402 0.0
C1043 C 0.21422 0.03165 0.66124 0.0
C1044 C 0.19655 0.0165 0.65743 0.0
H1045 H 0.28278 0.93205 0.63153 0.0
H1046 H 0.26071 0.96255 0.63541 0.0
C1047 C 0.17646 0.01799 0.66778 0.0
C1048 C 0.23675 0.02601 0.65589 0.0
H1049 H 0.26489 0.0029 0.61642 0.0
C1050 C 0.25049 0.0217 0.67255 0.0
C1051 C 0.24289 0.02051 0.63526 0.0
C1052 C 0.2296 0.02608 0.61665 0.0
C1053 C 0.26865 0.00961 0.66945 0.0
C1054 C 0.27334 0.00206 0.64906 0.0
C1055 C 0.2611 0.0085 0.63209 0.0
C1056 C 0.28771 0.9844 0.64564 0.0
C1057 C 0.28129 0.00327 0.68826 0.0
C1058 C 0.31025 0.98654 0.65014 0.0
C1059 C 0.32308 0.96916 0.64745 0.0
C1060 C 0.31326 0.94926 0.64103 0.0
C1061 C 0.29069 0.94718 0.63672 0.0
C1062 C 0.27812 0.96462 0.63876 0.0
H1063 H 0.27381 0.00842 0.70325 0.0
H1064 H 0.28212 0.98572 0.68852 0.0
H1065 H 0.29835 0.01072 0.68734 0.0
H1066 H 0.31784 0.00153 0.65589 0.0
H1067 H 0.34047 0.97111 0.65086 0.0
H1068 H 0.30308 0.96051 0.94454 0.0
H1069 H 0.30962 -0.00147 0.93772 0.0
H1070 H 0.24052 0.00644 0.94638 0.0
H1071 H 0.23384 0.96832 0.95364 0.0
H1072 H 0.29354 0.0259 0.90896 0.0
H1073 H 0.26931 0.0469 0.99058 0.0
H1074 H 0.27381 0.01996 0.98266 0.0
H1075 H 0.24906 0.03152 0.97535 0.0
C1076 C 0.28919 0.97024 0.94471 0.0
C1077 C 0.26798 0.96143 0.94986 0.0
C1078 C 0.29296 -0.00801 0.9408 0.0
C1079 C 0.27563 0.00538 0.94195 0.0
C1080 C 0.25419 -0.00354 0.94584 0.0
H1081 H 0.31967 0.13825 0.91172 0.0
H1082 H 0.2924 0.10775 0.9156 0.0
C1083 C 0.2504 0.97465 0.94982 0.0
C1084 C 0.28057 0.02875 0.94025 0.0
H1085 H 0.28461 0.07466 0.9696 0.0
C1086 C 0.29116 0.03669 0.92203 0.0
C1087 C 0.27761 0.04272 0.95746 0.0
C1088 C 0.26698 0.03493 0.97771 0.0
C1089 C 0.29995 0.05792 0.92093 0.0
C1090 C 0.29761 0.0717 0.93835 0.0
C1091 C 0.28604 0.06409 0.95619 0.0
C1092 C 0.31039 0.09264 0.93953 0.0
C1093 C 0.31323 0.06501 0.90181 0.0
C1094 C 0.32871 0.09487 0.95264 0.0
C1095 C 0.3443 0.11211 0.95034 0.0
C1096 C 0.34177 0.12749 0.93496 0.0
C1097 C 0.32215 0.12652 0.92353 0.0
C1098 C 0.3066 0.10909 0.92569 0.0
H1099 H 0.31559 0.05162 0.89072 0.0
H1100 H 0.30476 0.07736 0.89353 0.0
H1101 H 0.32966 0.07222 0.90647 0.0
H1102 H 0.33187 0.0824 0.9635 0.0
H1103 H 0.3591 0.11254 0.95959 0.0
H1104 H 0.30337 0.0369 0.28982 0.0
H1105 H 0.26538 0.03358 0.30309 0.0
H1106 H 0.27144 0.96717 0.31582 0.0
H1107 H 0.30924 0.97037 0.30274 0.0
H1108 H 0.23204 0.00735 0.28582 0.0
H1109 H 0.24109 0.98712 0.36883 0.0
H1110 H 0.26368 -0.00097 0.35334 0.0
H1111 H 0.25698 0.97064 0.35244 0.0
C1112 C 0.29675 0.02172 0.2959 0.0
C1113 C 0.30931 0.00388 0.29523 0.0
C1114 C 0.27503 0.01985 0.30343 0.0
C1115 C 0.26565 0.00021 0.31071 0.0
C1116 C 0.27846 0.98261 0.31073 0.0
H1117 H 0.15638 0.92103 0.30223 0.0
H1118 H 0.18408 0.95002 0.29517 0.0
C1119 C 0.30005 0.98442 0.30311 0.0
C1120 C 0.24192 -0.00282 0.31618 0.0
H1121 H 0.20733 0.97244 0.35208 0.0
C1122 C 0.2265 0.00036 0.30059 0.0
C1123 C 0.23455 0.98852 0.33557 0.0
C1124 C 0.24997 0.98636 0.35357 0.0
C1125 C 0.20427 -0.00688 0.30313 0.0
C1126 C 0.19745 0.98215 0.32157 0.0
C1127 C 0.21247 0.98084 0.33791 0.0
C1128 C 0.17651 0.96853 0.32278 0.0
C1129 C 0.18856 -0.00367 0.28562 0.0
C1130 C 0.16232 0.96963 0.34021 0.0
C1131 C 0.14621 0.953 0.34417 0.0
C1132 C 0.14451 0.93493 0.33099 0.0
C1133 C 0.15729 0.93486 0.31256 0.0
C1134 C 0.17311 0.95151 0.30849 0.0
H1135 H 0.19337 0.01132 0.27715 0.0
H1136 H 0.18911 0.98296 0.27418 0.0
H1137 H 0.17142 -0.00316 0.29154 0.0
H1138 H 0.16471 0.98255 0.35151 0.0
H1139 H 0.1367 0.95332 0.35857 0.0
H1140 H 0.31189 0.10863 0.55505 0.0
H1141 H 0.31813 0.0768 0.57437 0.0
H1142 H 0.24812 0.06202 0.58071 0.0
H1143 H 0.2417 0.09396 0.5606 0.0
H1144 H 0.30679 0.05994 0.61258 0.0
H1145 H 0.26715 0.01037 0.54833 0.0
H1146 H 0.27278 0.03873 0.54549 0.0
H1147 H 0.25115 0.02853 0.56275 0.0
C1148 C 0.29776 0.09887 0.56084 0.0
C1149 C 0.27632 0.10359 0.55596 0.0
C1150 C 0.30134 0.08067 0.57199 0.0
C1151 C 0.2836 0.06674 0.5786 0.0
C1152 C 0.26205 0.0723 0.57536 0.0
H1153 H 0.33422 0.94029 0.59197 0.0
H1154 H 0.306 0.96617 0.59527 0.0
C1155 C 0.25842 0.09065 0.56406 0.0
C1156 C 0.28856 0.04569 0.58668 0.0
H1157 H 0.2931 -0.00502 0.56849 0.0
C1158 C 0.30326 0.0455 0.60337 0.0
C1159 C 0.28372 0.02677 0.57483 0.0
C1160 C 0.26789 0.02593 0.55681 0.0
C1161 C 0.31555 0.02799 0.60666 0.0
C1162 C 0.31251 0.0099 0.59329 0.0
C1163 C 0.29558 0.00895 0.57855 0.0
C1164 C 0.32903 -0.00614 0.59173 0.0
C1165 C 0.33297 0.03014 0.62328 0.0
C1166 C 0.35103 0.00077 0.58757 0.0
C1167 C 0.36697 0.9862 0.58587 0.0
C1168 C 0.36129 0.96429 0.58806 0.0
C1169 C 0.33911 0.95715 0.59105 0.0
C1170 C 0.32302 0.97188 0.59283 0.0
H1171 H 0.3262 0.03708 0.63785 0.0
H1172 H 0.33968 0.01479 0.62702 0.0
H1173 H 0.3467 0.0414 0.61782 0.0
H1174 H 0.35594 0.01756 0.58569 0.0
H1175 H 0.38389 -0.0078 0.58323 0.0
H1176 H 0.18205 0.08637 0.7783 0.0
H1177 H 0.21741 0.09562 0.79491 0.0
H1178 H 0.23081 0.02936 0.79466 0.0
H1179 H 0.19526 0.01985 0.77838 0.0
H1180 H 0.24226 0.04915 0.83157 0.0
H1181 H 0.27685 0.09702 0.76539 0.0
H1182 H 0.25103 0.10594 0.7741 0.0
H1183 H 0.25209 0.07952 0.76315 0.0
C1184 C 0.19242 0.07372 0.78188 0.0
C1185 C 0.18583 0.05238 0.77687 0.0
C1186 C 0.21274 0.07906 0.79119 0.0
C1187 C 0.22701 0.06323 0.7955 0.0
C1188 C 0.22017 0.04185 0.79125 0.0
H1189 H 0.35572 0.12147 0.83455 0.0
H1190 H 0.33144 0.09307 0.81802 0.0
C1191 C 0.1998 0.03646 0.78199 0.0
C1192 C 0.24886 0.06916 0.80473 0.0
H1193 H 0.29419 0.10392 0.79888 0.0
C1194 C 0.25381 0.06084 0.82426 0.0
C1195 C 0.26434 0.08382 0.79489 0.0
C1196 C 0.26093 0.09189 0.77311 0.0
C1197 C 0.27293 0.06822 0.83498 0.0
C1198 C 0.28719 0.08458 0.82612 0.0
C1199 C 0.28318 0.09152 0.80582 0.0
C1200 C 0.30378 0.09735 0.83881 0.0
C1201 C 0.27748 0.05881 0.85592 0.0
C1202 C 0.2965 0.10872 0.85623 0.0
C1203 C 0.31013 0.12491 0.86538 0.0
C1204 C 0.33145 0.12993 0.85751 0.0
C1205 C 0.33947 0.11757 0.8411 0.0
C1206 C 0.3256 0.10146 0.83164 0.0
H1207 H 0.26973 0.04231 0.85725 0.0
H1208 H 0.29544 0.05856 0.85833 0.0
H1209 H 0.27054 0.06858 0.86857 0.0
H1210 H 0.27963 0.10636 0.8617 0.0
H1211 H 0.30342 0.13454 0.87769 0.0
H1212 H 0.28521 0.96406 0.03748 0.0
H1213 H 0.27613 -0.00461 0.05801 0.0
H1214 H 0.21081 0.96626 0.06917 0.0
H1215 H 0.21967 0.93501 0.04861 0.0
H1216 H 0.24185 0.01981 0.04514 0.0
H1217 H 0.22829 -0.00716 0.12667 0.0
H1218 H 0.24422 0.9787 0.10779 0.0
H1219 H 0.21468 0.97503 0.10793 0.0
C1220 C 0.26912 0.96404 0.04485 0.0
C1221 C 0.25312 0.94706 0.04138 0.0
C1222 C 0.26396 0.98199 0.05651 0.0
C1223 C 0.24287 0.98309 0.06523 0.0
C1224 C 0.22732 0.96561 0.06288 0.0
H1225 H 0.14438 0.0574 0.10233 0.0
H1226 H 0.17138 0.03208 0.09413 0.0
C1227 C 0.23238 0.94777 0.05106 0.0
C1228 C 0.23594 0.00337 0.07427 0.0
H1229 H 0.20948 0.02348 0.11657 0.0
C1230 C 0.23526 0.02088 0.06094 0.0
C1231 C 0.22753 0.00474 0.0949 0.0
C1232 C 0.2289 0.98689 0.11023 0.0
C1233 C 0.2246 0.03899 0.06708 0.0
C1234 C 0.21471 0.03967 0.0872 0.0
C1235 C 0.21695 0.02286 0.10109 0.0
C1236 C 0.19903 0.05572 0.09284 0.0
C1237 C 0.22255 0.05652 0.05148 0.0
C1238 C 0.20559 0.07754 0.09486 0.0
C1239 C 0.19009 0.09222 0.09989 0.0
C1240 C 0.16775 0.08526 0.10236 0.0
C1241 C 0.16138 0.06339 0.10026 0.0
C1242 C 0.17684 0.04882 0.09572 0.0
H1243 H 0.2289 0.05232 0.0357 0.0
H1244 H 0.20511 0.06012 0.05007 0.0
H1245 H 0.23204 0.07123 0.05703 0.0
H1246 H 0.22262 0.08319 0.09248 0.0
H1247 H 0.19549 0.10895 0.1015 0.0
H1248 H 0.23322 0.35161 0.01484 0.0
H1249 H 0.21573 0.31569 0.02018 0.0
H1250 H 0.19496 0.33423 0.08216 0.0
H1251 H 0.2133 0.36971 0.07722 0.0
H1252 H 0.21806 0.30138 0.08394 0.0
H1253 H 0.15568 0.28472 0.02237 0.0
H1254 H 0.18226 0.29358 0.01201 0.0
H1255 H 0.16746 0.31131 0.02821 0.0
C1256 C 0.22427 0.34819 0.02932 0.0
C1257 C 0.22467 0.36338 0.04567 0.0
C1258 C 0.2142 0.32764 0.03234 0.0
C1259 C 0.20394 0.32218 0.05157 0.0
C1260 C 0.20283 0.33798 0.06721 0.0
H1261 H 0.13618 0.20672 0.09768 0.0
H1262 H 0.14556 0.23951 0.07814 0.0
C1263 C 0.21326 0.35829 0.06437 0.0
C1264 C 0.19739 0.29955 0.05677 0.0
H1265 H 0.16606 0.2547 0.04154 0.0
C1266 C 0.20659 0.29126 0.07467 0.0
C1267 C 0.18243 0.28627 0.04472 0.0
C1268 C 0.17121 0.29446 0.02587 0.0
C1269 C 0.20115 0.27029 0.08105 0.0
C1270 C 0.18674 0.25675 0.06869 0.0
C1271 C 0.17744 0.26495 0.05075 0.0
C1272 C 0.18019 0.23457 0.07525 0.0
C1273 C 0.21038 0.26316 0.10143 0.0
C1274 C 0.19624 0.22022 0.07888 0.0
C1275 C 0.19093 0.20165 0.09026 0.0
C1276 C 0.16935 0.19681 0.09745 0.0
C1277 C 0.15286 0.20999 0.09192 0.0
C1278 C 0.15824 0.22875 0.08084 0.0
H1279 H 0.21628 0.2769 0.1115 0.0
H1280 H 0.19787 0.25313 0.1104 0.0
H1281 H 0.22459 0.25362 0.09805 0.0
H1282 H 0.2132 0.22418 0.07432 0.0
H1283 H 0.20391 0.19181 0.09459 0.0
H1284 H 0.6841 0.22092 0.02131 0.0
H1285 H 0.66433 0.25155 0.01112 0.0
H1286 H 0.65903 0.22622 0.94814 0.0
H1287 H 0.67849 0.19568 0.9582 0.0
H1288 H 0.68127 0.27973 0.98249 0.0
H1289 H 0.59939 0.24871 0.9562 0.0
H1290 H 0.61599 0.23353 0.97283 0.0
H1291 H 0.61971 0.23292 0.94475 0.0
C1292 C 0.67803 0.22152 0.00548 0.0
C1293 C 0.68294 0.20592 0.99052 0.0
C1294 C 0.66681 0.23908 -0.00033 0.0
C1295 C 0.66001 0.24112 0.97892 0.0
C1296 C 0.66364 0.22481 0.96437 0.0
H1297 H 0.65063 0.31267 0.87719 0.0
H1298 H 0.65073 0.28883 0.90667 0.0
C1299 C 0.67492 0.20737 0.9701 0.0
C1300 C 0.65232 0.26145 0.97137 0.0
H1301 H 0.61633 0.27942 0.93663 0.0
C1302 C 0.66661 0.27999 0.97309 0.0
C1303 C 0.63307 0.2619 0.95937 0.0
C1304 C 0.61607 0.24321 0.9584 0.0
C1305 C 0.66346 0.29811 0.96118 0.0
C1306 C 0.64556 0.29757 0.9473 0.0
C1307 C 0.63012 0.27981 0.94721 0.0
C1308 C 0.64491 0.31298 0.93003 0.0
C1309 C 0.68031 0.31693 0.96208 0.0
C1310 C 0.64169 0.33468 0.93336 0.0
C1311 C 0.64149 0.34856 0.91626 0.0
C1312 C 0.64478 0.34081 0.89581 0.0
C1313 C 0.64813 0.31917 0.89275 0.0
C1314 C 0.64806 0.30544 0.9096 0.0
H1315 H 0.69404 0.31425 0.97275 0.0
H1316 H 0.68718 0.32035 0.94618 0.0
H1317 H 0.67232 0.33124 0.96766 0.0
H1318 H 0.63907 0.34078 0.94905 0.0
H1319 H 0.63897 0.3652 0.91901 0.0
H1320 H 0.0675 0.50169 0.28336 0.0
H1321 H 0.03504 0.47947 0.27131 0.0
H1322 H 0.04404 0.50586 0.2095 0.0
H1323 H 0.07657 0.52738 0.22114 0.0
H1324 H -0.00376 0.48898 0.25505 0.0
H1325 H 0.04045 0.44316 0.19642 0.0
H1326 H 0.05465 0.45953 0.21616 0.0
H1327 H 0.04634 0.47109 0.19208 0.0
C1328 C 0.06257 0.5026 0.26718 0.0
C1329 C 0.07474 0.51603 0.25311 0.0
C1330 C 0.04405 0.48994 0.26034 0.0
C1331 C 0.03746 0.49061 0.23937 0.0
C1332 C 0.04923 0.50454 0.22557 0.0
H1333 H 0.91844 0.4738 0.17452 0.0
H1334 H 0.94645 0.4827 0.20104 0.0
C1335 C 0.06777 0.51694 0.23228 0.0
C1336 C 0.0181 0.47721 0.23162 0.0
H1337 H 0.0018 0.44624 0.18973 0.0
C1338 C -0.00257 0.47925 0.24101 0.0
C1339 C 0.01969 0.46388 0.21377 0.0
C1340 C 0.04155 0.45909 0.20421 0.0
C1341 C 0.97814 0.46971 0.23195 0.0
C1342 C 0.97959 0.45853 0.21266 0.0
C1343 C 0.00044 0.45512 0.2043 0.0
C1344 C 0.96003 0.45185 0.19978 0.0
C1345 C 0.9565 0.47189 0.2431 0.0
C1346 C 0.95835 0.43168 0.18997 0.0
C1347 C 0.94288 0.42699 0.17435 0.0
C1348 C 0.92827 0.44198 0.1688 0.0
C1349 C 0.92916 0.46178 0.17912 0.0
C1350 C 0.94504 0.46675 0.19442 0.0
H1351 H 0.95871 0.47243 0.26035 0.0
H1352 H 0.9499 0.48709 0.23856 0.0
H1353 H 0.94424 0.45851 0.23916 0.0
H1354 H 0.96986 0.41999 0.19352 0.0
H1355 H 0.94324 0.41217 0.16565 0.0
H1356 H 0.82121 0.84345 0.54634 0.0
H1357 H 0.84013 0.81258 0.53414 0.0
H1358 H 0.84692 0.83976 0.47254 0.0
H1359 H 0.82812 0.87053 0.48451 0.0
H1360 H 0.82277 0.78577 0.50328 0.0
H1361 H 0.90647 0.81557 0.48016 0.0
H1362 H 0.88982 0.83004 0.49812 0.0
H1363 H 0.88709 0.83284 0.47021 0.0
C1364 C 0.82729 0.84315 0.53034 0.0
C1365 C 0.82303 0.85942 0.51634 0.0
C1366 C 0.83808 0.82546 0.52342 0.0
C1367 C 0.84513 0.82393 0.5025 0.0
C1368 C 0.84204 0.84076 0.48887 0.0
H1369 H 0.85433 0.75706 0.39629 0.0
H1370 H 0.85638 0.77972 0.42734 0.0
C1371 C 0.83111 0.85831 0.4957 0.0
C1372 C 0.85262 0.80373 0.49378 0.0
H1373 H 0.88948 0.78647 0.45827 0.0
C1374 C 0.83779 0.78551 0.49407 0.0
C1375 C 0.87235 0.80328 0.48207 0.0
C1376 C 0.88994 0.82144 0.48283 0.0
C1377 C 0.84097 0.76784 0.48101 0.0
C1378 C 0.85944 0.76853 0.46737 0.0
C1379 C 0.87529 0.7859 0.46866 0.0
C1380 C 0.86013 0.75406 0.44891 0.0
C1381 C 0.82351 0.74952 0.48039 0.0
C1382 C 0.86177 0.73197 0.45065 0.0
C1383 C 0.86057 0.7188 0.43267 0.0
C1384 C 0.85765 0.72763 0.41288 0.0
C1385 C 0.85645 0.74974 0.41132 0.0
C1386 C 0.85778 0.76277 0.42907 0.0
H1387 H 0.80943 0.75215 0.49105 0.0
H1388 H 0.81726 0.74708 0.46421 0.0
H1389 H 0.83073 0.73469 0.48511 0.0
H1390 H 0.86382 0.72496 0.46583 0.0
H1391 H 0.8614 0.7018 0.43431 0.0
H1392 H 0.93922 0.05705 0.27073 0.0
H1393 H 0.97713 0.07331 0.26994 0.0
H1394 H 0.9685 0.09226 0.20606 0.0
H1395 H 0.9309 0.07647 0.20685 0.0
H1396 H 0.00792 0.05872 0.24493 0.0
H1397 H 0.00443 0.1436 0.22769 0.0
H1398 H 0.98085 0.12765 0.23782 0.0
H1399 H 0.98659 0.12846 0.21003 0.0
C1400 C 0.94519 0.0654 0.25681 0.0
C1401 C 0.93211 0.06539 0.23881 0.0
C1402 C 0.96689 0.0746 0.25635 0.0
C1403 C 0.97567 0.08424 0.23802 0.0
C1404 C 0.96205 0.08544 0.22057 0.0
H1405 H 0.07665 0.07241 0.15893 0.0
H1406 H 0.05009 0.06741 0.18745 0.0
C1407 C 0.94054 0.07619 0.22098 0.0
C1408 C -0.00032 0.0899 0.23552 0.0
H1409 H 0.03502 0.12601 0.21052 0.0
C1410 C 0.01406 0.07376 0.23815 0.0
C1411 C 0.008 0.10963 0.2271 0.0
C1412 C -0.00587 0.12836 0.22575 0.0
C1413 C 0.03574 0.076 0.23039 0.0
C1414 C 0.04305 0.09463 0.21939 0.0
C1415 C 0.02947 0.11163 0.21883 0.0
C1416 C 0.0625 0.09528 0.20513 0.0
C1417 C 0.05019 0.05785 0.23299 0.0
C1418 C 0.07879 0.11234 0.20574 0.0
C1419 C 0.09418 0.1152 0.18932 0.0
C1420 C 0.09314 0.10126 0.17191 0.0
C1421 C 0.07786 0.08339 0.17215 0.0
C1422 C 0.06271 0.08044 0.18856 0.0
H1423 H 0.04625 0.04938 0.24788 0.0
H1424 H 0.04712 0.04618 0.21997 0.0
H1425 H 0.06788 0.06351 0.23281 0.0
H1426 H 0.0789 0.12402 0.21833 0.0
H1427 H 0.10565 0.12923 0.18945 0.0
H1428 H 0.27726 0.73066 0.46485 0.0
H1429 H 0.29405 0.7666 0.47234 0.0
H1430 H 0.30526 0.74849 0.53603 0.0
H1431 H 0.28901 0.71272 0.52861 0.0
H1432 H 0.27815 0.79419 0.4997 0.0
H1433 H 0.36262 0.78136 0.52284 0.0
H1434 H 0.34562 0.76123 0.50889 0.0
H1435 H 0.34378 0.7635 0.53705 0.0
C1436 C 0.28381 0.73423 0.4803 0.0
C1437 C 0.28179 0.71887 0.49616 0.0
C1438 C 0.29337 0.75477 0.48455 0.0
C1439 C 0.30124 0.76017 0.50465 0.0
C1440 C 0.29989 0.74458 0.52024 0.0
H1441 H 0.29394 0.85613 0.59049 0.0
H1442 H 0.28762 0.83103 0.56149 0.0
C1443 C 0.29039 0.72414 0.51603 0.0
C1444 C 0.30837 0.78254 0.51038 0.0
H1445 H 0.34587 0.81114 0.54062 0.0
C1446 C 0.29337 0.79817 0.50797 0.0
C1447 C 0.32836 0.78794 0.52085 0.0
C1448 C 0.34608 0.77262 0.52233 0.0
C1449 C 0.29694 0.81836 0.51747 0.0
C1450 C 0.31572 0.82281 0.52998 0.0
C1451 C 0.33156 0.80785 0.53089 0.0
C1452 C 0.31764 0.84113 0.5448 0.0
C1453 C 0.28002 0.83434 0.51491 0.0
C1454 C 0.33645 0.85549 0.54488 0.0
C1455 C 0.34014 0.86994 0.56156 0.0
C1456 C 0.3252 0.86995 0.57851 0.0
C1457 C 0.30576 0.85647 0.57768 0.0
C1458 C 0.30203 0.8422 0.56101 0.0
H1459 H 0.2714 0.83192 0.49974 0.0
H1460 H 0.26752 0.8322 0.52763 0.0
H1461 H 0.28762 0.85093 0.51576 0.0
H1462 H 0.34871 0.85486 0.53255 0.0
H1463 H 0.35536 0.88001 0.56187 0.0
H1464 H 0.08349 0.62236 0.26354 0.0
H1465 H 0.05221 0.64141 0.27602 0.0
H1466 H 0.0624 0.61977 0.33874 0.0
H1467 H 0.09385 0.60141 0.3266 0.0
H1468 H 0.01534 0.62368 0.29123 0.0
H1469 H 0.04943 0.67943 0.35152 0.0
H1470 H 0.06682 0.66672 0.33288 0.0
H1471 H 0.05798 0.65348 0.35679 0.0
C1472 C 0.07947 0.62225 0.28011 0.0
C1473 C 0.09118 0.61036 0.29408 0.0
C1474 C 0.06152 0.63307 0.2872 0.0
C1475 C 0.05503 0.63228 0.30839 0.0
C1476 C 0.06736 0.62119 0.32245 0.0
H1477 H 0.93562 0.6114 0.37033 0.0
H1478 H 0.96538 0.61301 0.34434 0.0
C1479 C 0.08533 0.61053 0.31543 0.0
C1480 C 0.034 0.6406 0.31556 0.0
H1481 H 0.01125 0.66527 0.35741 0.0
C1482 C 0.01449 0.63325 0.30542 0.0
C1483 C 0.0327 0.65361 0.3337 0.0
C1484 C 0.05293 0.66394 0.34415 0.0
C1485 C -0.00621 0.63688 0.31402 0.0
C1486 C 0.99257 0.64758 0.33358 0.0
C1487 C 0.01204 0.65664 0.34265 0.0
C1488 C 0.97186 0.64733 0.34617 0.0
C1489 C 0.97351 0.62867 0.30228 0.0
C1490 C 0.96545 0.66603 0.35597 0.0
C1491 C 0.94851 0.66502 0.371 0.0
C1492 C 0.93752 0.64536 0.37625 0.0
C1493 C 0.94336 0.62681 0.36596 0.0
C1494 C 0.96033 0.62777 0.35103 0.0
H1495 H 0.97635 0.62991 0.2851 0.0
H1496 H 0.9697 0.61157 0.30585 0.0
H1497 H 0.95906 0.63753 0.30662 0.0
H1498 H 0.97426 0.68126 0.35276 0.0
H1499 H 0.9451 0.67939 0.37952 0.0
H1500 H 0.40983 0.47858 0.80732 0.0
H1501 H 0.43987 0.46012 0.82138 0.0
H1502 H 0.44869 0.42902 0.76163 0.0
H1503 H 0.41896 0.44813 0.7471 0.0
H1504 H 0.4487 0.41948 0.82626 0.0
H1505 H 0.50878 0.45899 0.77008 0.0
H1506 H 0.48097 0.46653 0.77265 0.0
H1507 H 0.48658 0.44256 0.75865 0.0
C1508 C 0.4179 0.46762 0.79717 0.0
C1509 C 0.41216 0.4651 0.77597 0.0
C1510 C 0.43512 0.45703 0.80526 0.0
C1511 C 0.44692 0.44357 0.79243 0.0
C1512 C 0.44024 0.43979 0.77166 0.0
H1513 H 0.55027 0.3885 0.86545 0.0
H1514 H 0.52124 0.38873 0.83919 0.0
C1515 C 0.4231 0.45059 0.76344 0.0
C1516 C 0.46688 0.43475 0.80082 0.0
H1517 H 0.52292 0.43884 0.79656 0.0
C1518 C 0.46493 0.42341 0.81962 0.0
C1519 C 0.48805 0.43998 0.79212 0.0
C1520 C 0.49137 0.45281 0.77236 0.0
C1521 C 0.48354 0.41836 0.83069 0.0
C1522 C 0.50474 0.42421 0.82233 0.0
C1523 C 0.50666 0.43432 0.80286 0.0
C1524 C 0.52487 0.42291 0.83494 0.0
C1525 C 0.48024 0.40823 0.85192 0.0
C1526 C 0.53746 0.4418 0.84026 0.0
C1527 C 0.55431 0.44157 0.85483 0.0
C1528 C 0.5591 0.42242 0.86405 0.0
C1529 C 0.54735 0.40335 0.85797 0.0
C1530 C 0.53047 0.40355 0.84332 0.0
H1531 H 0.46306 0.40866 0.85777 0.0
H1532 H 0.48402 0.39129 0.85081 0.0
H1533 H 0.49139 0.4164 0.86362 0.0
H1534 H 0.53339 0.45695 0.83411 0.0
H1535 H 0.56279 0.45653 0.85977 0.0
H1536 H 0.02154 0.84178 0.70438 0.0
H1537 H 0.0181 0.85849 0.73914 0.0
H1538 H 0.94793 0.84388 0.73783 0.0
H1539 H 0.95115 0.82719 0.70334 0.0
H1540 H 0.96502 0.88823 0.75134 0.0
H1541 H -5e-05 0.82172 0.79341 0.0
H1542 H 0.01413 0.83341 0.77091 0.0
H1543 H 0.98862 0.81771 0.76754 0.0
C1544 C 0.00537 0.84233 0.71144 0.0
C1545 C 0.98661 0.83311 0.70116 0.0
C1546 C 0.00347 0.8518 0.73129 0.0
C1547 C 0.98279 0.85227 0.74102 0.0
C1548 C 0.96403 0.84365 0.73053 0.0
H1549 H 0.90482 0.84713 0.84122 0.0
H1550 H 0.93475 0.8424 0.81651 0.0
C1551 C 0.96591 0.83409 0.71083 0.0
C1552 C 0.98024 0.86095 0.76246 0.0
H1553 H 0.98032 0.8455 0.81347 0.0
C1554 C 0.96891 0.87933 0.76507 0.0
C1555 C 0.9855 0.84925 0.78021 0.0
C1556 C -0.0023 0.82938 0.77808 0.0
C1557 C 0.96093 0.88532 0.7848 0.0
C1558 C 0.96458 0.87258 0.80239 0.0
C1559 C 0.97764 0.85527 0.80001 0.0
C1560 C 0.95084 0.8739 0.82162 0.0
C1561 C 0.94697 0.90408 0.78628 0.0
C1562 C 0.95079 0.89263 0.83383 0.0
C1563 C 0.93357 0.89534 0.84813 0.0
C1564 C 0.91632 0.87932 0.85025 0.0
C1565 C 0.91786 0.85975 0.83978 0.0
C1566 C 0.935 0.85704 0.82565 0.0
H1567 H 0.94404 0.91097 0.77072 0.0
H1568 H 0.93082 0.8993 0.79369 0.0
H1569 H 0.95539 0.91674 0.79617 0.0
H1570 H 0.96309 0.9057 0.83123 0.0
H1571 H 0.9327 0.91062 0.85596 0.0
H1572 H 0.93841 0.31433 0.42566 0.0
H1573 H 0.92578 0.29725 0.45822 0.0
H1574 H 0.95535 0.23996 0.43923 0.0
H1575 H 0.96808 0.25686 0.40648 0.0
H1576 H 0.91206 0.23378 0.45902 0.0
H1577 H 0.97139 0.28705 0.5046 0.0
H1578 H 0.95335 0.30011 0.48778 0.0
H1579 H 0.97346 0.28386 0.47652 0.0
C1580 C 0.94197 0.29798 0.4282 0.0
C1581 C 0.95449 0.28704 0.41352 0.0
C1582 C 0.93482 0.2883 0.44689 0.0
C1583 C 0.94004 0.26755 0.45127 0.0
C1584 C 0.95132 0.25609 0.43616 0.0
H1585 H 0.94746 0.19891 0.56621 0.0
H1586 H 0.95461 0.22002 0.53443 0.0
C1587 C 0.95853 0.26576 0.41743 0.0
C1588 C 0.93472 0.25816 0.47203 0.0
H1589 H 0.94772 0.2629 0.52386 0.0
C1590 C 0.91974 0.24017 0.47323 0.0
C1591 C 0.94501 0.26647 0.49045 0.0
C1592 C 0.96184 0.28534 0.48989 0.0
C1593 C 0.91474 0.2302 0.49243 0.0
C1594 C 0.92486 0.23863 0.51091 0.0
C1595 C 0.93985 0.25663 0.50969 0.0
C1596 C 0.92099 0.22821 0.53142 0.0
C1597 C 0.89913 0.21039 0.49271 0.0
C1598 C 0.89992 0.22642 0.54056 0.0
C1599 C 0.89586 0.21439 0.55863 0.0
C1600 C 0.91291 0.2044 0.56809 0.0
C1601 C 0.93418 0.20688 0.5594 0.0
C1602 C 0.93823 0.21885 0.54128 0.0
H1603 H 0.89656 0.20342 0.47677 0.0
H1604 H 0.90535 0.19812 0.50295 0.0
H1605 H 0.88295 0.21449 0.49902 0.0
H1606 H 0.88647 0.23366 0.53326 0.0
H1607 H 0.87915 0.21184 0.56448 0.0
H1608 H 0.55356 0.23732 0.19184 0.0
H1609 H 0.56091 0.21792 0.22366 0.0
H1610 H 0.4914 0.20914 0.23691 0.0
H1611 H 0.48384 0.2282 0.20486 0.0
H1612 H 0.52041 0.23136 0.2693 0.0
H1613 H 0.54798 0.15343 0.2426 0.0
H1614 H 0.55918 0.17602 0.22788 0.0
H1615 H 0.53016 0.16867 0.22725 0.0
C1616 C 0.5398 0.23074 0.2012 0.0
C1617 C 0.51813 0.2343 0.19584 0.0
C1618 C 0.54402 0.21963 0.21935 0.0
C1619 C 0.52668 0.21204 0.23256 0.0
C1620 C 0.50497 0.21474 0.22682 0.0
H1621 H 0.57374 0.15293 0.34637 0.0
H1622 H 0.54524 0.16144 0.32159 0.0
C1623 C 0.50071 0.22557 0.20847 0.0
C1624 C 0.53162 0.20373 0.25344 0.0
H1625 H 0.55915 0.1655 0.27692 0.0
C1626 C 0.52839 0.21669 0.27109 0.0
C1627 C 0.5418 0.18451 0.25577 0.0
C1628 C 0.54485 0.1697 0.23741 0.0
C1629 C 0.53672 0.21177 0.2907 0.0
C1630 C 0.54853 0.19347 0.29263 0.0
C1631 C 0.55011 0.17957 0.27539 0.0
C1632 C 0.56267 0.19053 0.31089 0.0
C1633 C 0.53385 0.22673 0.30897 0.0
C1634 C 0.5813 0.20467 0.31378 0.0
C1635 C 0.59744 0.19998 0.32787 0.0
C1636 C 0.5953 0.18102 0.33938 0.0
C1637 C 0.57581 0.16768 0.33775 0.0
C1638 C 0.55964 0.17237 0.32345 0.0
H1639 H 0.51934 0.2361 0.30692 0.0
H1640 H 0.53195 0.21786 0.3239 0.0
H1641 H 0.54864 0.23809 0.31016 0.0
H1642 H 0.58407 0.21869 0.30413 0.0
H1643 H 0.61223 0.21063 0.32888 0.0
H1644 H 0.54959 0.86934 0.91284 0.0
H1645 H 0.57119 0.867 0.94431 0.0
H1646 H 0.58537 0.80296 0.92714 0.0
H1647 H 0.56322 0.80498 0.89566 0.0
H1648 H 0.56833 0.80378 0.96521 0.0
H1649 H 0.63401 0.86846 0.96118 0.0
H1650 H 0.60844 0.87908 0.95527 0.0
H1651 H 0.61896 0.85903 0.93826 0.0
C1652 C 0.55781 0.85496 0.91535 0.0
C1653 C 0.55444 0.83728 0.90179 0.0
C1654 C 0.57035 0.85369 0.93336 0.0
C1655 C 0.5801 0.83485 0.93807 0.0
C1656 C 0.57807 0.81768 0.92381 0.0
H1657 H 0.63127 0.85754 0.06347 0.0
H1658 H 0.63229 0.84081 0.02875 0.0
C1659 C 0.56544 0.81891 0.90577 0.0
C1660 C 0.58934 0.83229 0.95922 0.0
H1661 H 0.61906 0.86048 -0.00352 0.0
C1662 C 0.57994 0.81584 0.97191 0.0
C1663 C 0.60495 0.84755 0.96795 0.0
C1664 C 0.61733 0.86435 0.95481 0.0
C1665 C 0.58395 0.81561 -0.00649 0.0
C1666 C 0.59722 0.83256 0.00268 0.0
C1667 C 0.60848 0.84767 0.98962 0.0
C1668 C 0.59691 0.83701 0.02558 0.0
C1669 C 0.57319 0.79767 0.00635 0.0
C1670 C 0.57674 0.83966 0.03576 0.0
C1671 C 0.5762 0.84888 0.05574 0.0
C1672 C 0.59582 0.8556 0.06591 0.0
C1673 C 0.61596 0.85163 0.05638 0.0
C1674 C 0.61653 0.84244 0.03635 0.0
H1675 H 0.57219 0.7825 -0.00279 0.0
H1676 H 0.58225 0.79539 0.02103 0.0
H1677 H 0.55612 0.80126 0.01043 0.0
H1678 H 0.56137 0.83628 0.02763 0.0
H1679 H 0.56048 0.85222 0.06257 0.0
H1680 H 0.93779 0.23914 0.84745 0.0
H1681 H 0.93057 0.22613 0.81178 0.0
H1682 H 0.00034 0.22615 0.79985 0.0
H1683 H 0.00755 0.23801 0.83582 0.0
H1684 H 0.94138 0.24901 0.77949 0.0
H1685 H 0.98038 0.17294 0.76918 0.0
H1686 H 0.97612 0.18477 0.79465 0.0
H1687 H -0.00084 0.19419 0.7785 0.0
C1688 C 0.95153 0.23559 0.83744 0.0
C1689 C 0.9732 0.23951 0.84444 0.0
C1690 C 0.94743 0.22828 0.81702 0.0
C1691 C 0.9649 0.22511 0.80304 0.0
C1692 C 0.98654 0.22795 0.81037 0.0
H1693 H 0.93104 0.23732 0.67078 0.0
H1694 H 0.95257 0.24259 0.70302 0.0
C1695 C 0.99065 0.2348 0.83098 0.0
C1696 C 0.96038 0.22161 0.78035 0.0
H1697 H 0.96897 0.18928 0.73812 0.0
C1698 C 0.94737 0.23588 0.77049 0.0
C1699 C 0.96833 0.20458 0.76852 0.0
C1700 C 0.98159 0.18813 0.7783 0.0
C1701 C 0.94143 0.23328 0.74944 0.0
C1702 C 0.9496 0.21645 0.73747 0.0
C1703 C 0.96307 0.20242 0.74716 0.0
C1704 C 0.94199 0.21168 0.71577 0.0
C1705 C 0.92548 0.248 0.74068 0.0
C1706 C 0.93067 0.19189 0.71137 0.0
C1707 C 0.9191 0.1887 0.69277 0.0
C1708 C 0.91867 0.20517 0.67824 0.0
C1709 C 0.93138 0.22436 0.68174 0.0
C1710 C 0.9434 0.22743 0.70024 0.0
H1711 H 0.91678 0.25647 0.75327 0.0
H1712 H 0.9346 0.26022 0.73088 0.0
H1713 H 0.91294 0.23907 0.73083 0.0
H1714 H 0.92938 0.17945 0.723 0.0
H1715 H 0.90889 0.17399 0.69058 0.0
H1716 H 0.56143 0.26216 0.57314 0.0
H1717 H 0.58258 0.24703 0.54448 0.0
H1718 H 0.53408 0.19363 0.53997 0.0
H1719 H 0.51303 0.20843 0.56866 0.0
H1720 H 0.5777 0.18231 0.53644 0.0
H1721 H 0.56161 0.24876 0.48339 0.0
H1722 H 0.57462 0.256 0.50785 0.0
H1723 H 0.54683 0.24432 0.50779 0.0
C1724 C 0.55546 0.24701 0.56628 0.0
C1725 C 0.53546 0.23656 0.57309 0.0
C1726 C 0.56749 0.23849 0.54979 0.0
C1727 C 0.55968 0.21943 0.53984 0.0
C1728 C 0.54035 0.20843 0.54736 0.0
H1729 H 0.56247 0.15728 0.42356 0.0
H1730 H 0.55795 0.18178 0.45313 0.0
C1731 C 0.52833 0.21691 0.56378 0.0
C1732 C 0.57086 0.21118 0.52099 0.0
H1733 H 0.57987 0.22049 0.46885 0.0
C1734 C 0.57854 0.19077 0.52173 0.0
C1735 C 0.57175 0.22225 0.5018 0.0
C1736 C 0.56316 0.24399 0.49997 0.0
C1737 C 0.58627 0.18076 0.50362 0.0
C1738 C 0.58662 0.19159 0.48431 0.0
C1739 C 0.57976 0.21234 0.48372 0.0
C1740 C 0.59117 0.1805 0.46428 0.0
C1741 C 0.59277 0.15816 0.50509 0.0
C1742 C 0.61165 0.17245 0.46019 0.0
C1743 C 0.61428 0.15863 0.44313 0.0
C1744 C 0.59654 0.15291 0.42991 0.0
C1745 C 0.57651 0.16197 0.43327 0.0
C1746 C 0.57391 0.17584 0.4502 0.0
H1747 H 0.5882 0.15094 0.52048 0.0
H1748 H 0.58484 0.14802 0.49254 0.0
H1749 H 0.61084 0.15806 0.50301 0.0
H1750 H 0.62523 0.17601 0.47075 0.0
H1751 H 0.6297 0.15136 0.4411 0.0
H1752 H 0.56117 0.80264 0.3446 0.0
H1753 H 0.57473 0.81083 0.30926 0.0
H1754 H 0.52332 0.85321 0.30129 0.0
H1755 H 0.50947 0.84501 0.33654 0.0
H1756 H 0.52492 0.82224 0.26953 0.0
H1757 H 0.60732 0.86337 0.28321 0.0
H1758 H 0.60271 0.83852 0.29667 0.0
H1759 H 0.58654 0.86032 0.30355 0.0
C1760 C 0.55311 0.8142 0.33561 0.0
C1761 C 0.53417 0.8231 0.34343 0.0
C1762 C 0.56087 0.81883 0.31536 0.0
C1763 C 0.55 0.83261 0.30266 0.0
C1764 C 0.53188 0.84247 0.31083 0.0
H1765 H 0.57135 0.87144 0.17331 0.0
H1766 H 0.5535 0.86331 0.20712 0.0
C1767 C 0.52409 0.83785 0.33105 0.0
C1768 C 0.55649 0.83542 0.28038 0.0
H1769 H 0.59968 0.85127 0.24841 0.0
C1770 C 0.5412 0.82877 0.26486 0.0
C1771 C 0.57772 0.84388 0.27439 0.0
C1772 C 0.59447 0.85213 0.29031 0.0
C1773 C 0.54682 0.82989 0.24347 0.0
C1774 C 0.56819 0.83798 0.23755 0.0
C1775 C 0.58334 0.84489 0.25305 0.0
C1776 C 0.5755 0.83951 0.2154 0.0
C1777 C 0.53014 0.82192 0.2274 0.0
C1778 C 0.5933 0.82832 0.2086 0.0
C1779 C 0.60365 0.83312 0.18946 0.0
C1780 C 0.59641 0.84924 0.17679 0.0
C1781 C 0.57724 0.85893 0.18268 0.0
C1782 C 0.567 0.85427 0.202 0.0
H1783 H 0.51593 0.81247 0.2346 0.0
H1784 H 0.52389 0.83572 0.21938 0.0
H1785 H 0.53784 0.81193 0.21534 0.0
H1786 H 0.60005 0.81683 0.2187 0.0
H1787 H 0.6183 0.82526 0.18529 0.0
H1788 H 0.92003 0.78351 0.06677 0.0
H1789 H 0.90547 0.80215 0.03705 0.0
H1790 H 0.97142 0.81482 0.01262 0.0
H1791 H 0.98595 0.79749 0.04284 0.0
H1792 H 0.95304 0.84937 0.01499 0.0
H1793 H 0.89367 0.79093 0.97662 0.0
H1794 H 0.88705 0.79439 0.00381 0.0
H1795 H 0.91239 0.78327 -0.00366 0.0
C1796 C 0.9313 0.79008 0.05486 0.0
C1797 C 0.9541 0.78937 0.05717 0.0
C1798 C 0.92297 0.8005 0.03775 0.0
C1799 C 0.9373 0.80974 0.02238 0.0
C1800 C 0.96 0.8079 0.02424 0.0
H1801 H 0.90921 0.88524 0.91247 0.0
H1802 H 0.91617 0.85435 0.93414 0.0
C1803 C 0.96832 0.79807 0.04155 0.0
C1804 C 0.9293 0.82379 0.00603 0.0
H1805 H 0.89093 0.82788 0.96789 0.0
C1806 C 0.93969 0.84442 0.00452 0.0
C1807 C 0.91184 0.81748 -0.00773 0.0
C1808 C 0.90076 0.79522 -0.00781 0.0
C1809 C 0.93302 0.85896 0.99 0.0
C1810 C 0.9149 0.85308 0.97703 0.0
C1811 C 0.90469 0.83236 0.97805 0.0
C1812 C 0.9061 0.86897 0.96321 0.0
C1813 C 0.94538 0.88067 0.9888 0.0
C1814 C 0.89735 0.88687 0.97231 0.0
C1815 C 0.89388 0.90447 0.96017 0.0
C1816 C 0.89851 0.90424 0.93861 0.0
C1817 C 0.90545 0.88566 0.92908 0.0
C1818 C 0.90936 0.86806 0.9414 0.0
H1819 H 0.96204 0.88068 -0.00437 0.0
H1820 H 0.94708 0.88611 0.97234 0.0
H1821 H 0.93618 0.89237 -0.00222 0.0
H1822 H 0.89458 0.88776 0.98909 0.0
H1823 H 0.88835 0.91861 0.96778 0.0
H1824 H 0.65414 0.96815 0.81157 0.0
H1825 H 0.68681 0.95725 0.82891 0.0
H1826 H 0.71334 0.02274 0.83189 0.0
H1827 H 0.68028 0.03384 0.81504 0.0
H1828 H 0.72515 0.96513 0.80661 0.0
H1829 H 0.73422 -0.00151 0.88733 0.0
H1830 H 0.70811 -0.00425 0.8741 0.0
H1831 H 0.72814 0.01708 0.86747 0.0
C1832 C 0.66655 0.98031 0.81664 0.0
C1833 C 0.6648 0.0018 0.8118 0.0
C1834 C 0.6852 0.97408 0.82655 0.0
C1835 C 0.70255 0.98917 0.83159 0.0
C1836 C 0.70003 0.01087 0.82842 0.0
H1837 H 0.83442 0.94534 0.82406 0.0
H1838 H 0.80443 0.96908 0.82161 0.0
C1839 C 0.68115 0.01718 0.81874 0.0
C1840 C 0.72436 0.98169 0.83627 0.0
H1841 H 0.76446 0.98152 0.87306 0.0
C1842 C 0.7338 0.96879 0.82112 0.0
C1843 C 0.73559 0.98658 0.85517 0.0
C1844 C 0.72599 0.0001 0.87207 0.0
C1845 C 0.7539 0.96019 0.82444 0.0
C1846 C 0.76532 0.96515 0.84325 0.0
C1847 C 0.75598 0.97818 0.85844 0.0
C1848 C 0.78592 0.95521 0.84789 0.0
C1849 C 0.76217 0.9451 0.80808 0.0
C1850 C 0.78618 0.94072 0.86438 0.0
C1851 C 0.8035 0.92761 0.86606 0.0
C1852 C 0.82074 0.92885 0.85129 0.0
C1853 C 0.82134 0.94436 0.83572 0.0
C1854 C 0.80417 0.95774 0.83424 0.0
H1855 H 0.749 0.93912 0.79715 0.0
H1856 H 0.77547 0.95357 0.79869 0.0
H1857 H 0.76892 0.93118 0.8155 0.0
H1858 H 0.7723 0.93852 0.87509 0.0
H1859 H 0.80269 0.91549 0.87801 0.0
H1860 H 0.75015 0.963 0.56679 0.0
H1861 H 0.75144 0.00014 0.57935 0.0
H1862 H 0.81568 0.01217 0.55123 0.0
H1863 H 0.81462 0.97529 0.53863 0.0
H1864 H 0.79989 0.02551 0.60155 0.0
H1865 H 0.75976 0.05483 0.5308 0.0
H1866 H 0.752 0.02895 0.54177 0.0
H1867 H 0.77754 0.03338 0.52777 0.0
C1868 C 0.76467 0.9735 0.56351 0.0
C1869 C 0.78229 0.96622 0.55169 0.0
C1870 C 0.76531 -0.00532 0.57063 0.0
C1871 C 0.78357 0.00879 0.56604 0.0
C1872 C 0.80141 0.00144 0.55481 0.0
H1873 H 0.85096 0.12199 0.55742 0.0
H1874 H 0.82395 0.09193 0.55242 0.0
C1875 C 0.80079 0.98036 0.54768 0.0
C1876 C 0.7843 0.03144 0.57247 0.0
H1877 H 0.77945 0.08065 0.5521 0.0
C1878 C 0.79488 0.03768 0.59113 0.0
C1879 C 0.77763 0.04707 0.55876 0.0
C1880 C 0.76599 0.04088 0.53864 0.0
C1881 C 0.80067 0.05926 0.59566 0.0
C1882 C 0.79548 0.07495 0.58114 0.0
C1883 C 0.78329 0.06868 0.56327 0.0
C1884 C 0.80681 0.09668 0.5818 0.0
C1885 C 0.81393 0.06487 0.61504 0.0
C1886 C 0.80508 0.11041 0.59919 0.0
C1887 C 0.8206 0.12782 0.60202 0.0
C1888 C 0.83793 0.13152 0.58749 0.0
C1889 C 0.83783 0.11938 0.5689 0.0
C1890 C 0.82238 0.10216 0.56606 0.0
H1891 H 0.81871 0.05053 0.62329 0.0
H1892 H 0.82911 0.07492 0.61097 0.0
H1893 H 0.80402 0.07407 0.62606 0.0
H1894 H 0.79287 0.10673 0.61133 0.0
H1895 H 0.82033 0.13698 0.61648 0.0
H1896 H 0.83613 0.07051 0.31272 0.0
H1897 H 0.80361 0.07941 0.33272 0.0
H1898 H 0.78177 0.01275 0.33639 0.0
H1899 H 0.8146 0.00366 0.31675 0.0
H1900 H 0.75213 0.04036 0.31644 0.0
H1901 H 0.77893 0.07106 0.39417 0.0
H1902 H 0.79705 0.08069 0.37339 0.0
H1903 H 0.79415 0.05264 0.37891 0.0
C1904 C 0.82481 0.0577 0.3184 0.0
C1905 C 0.82793 0.03641 0.31316 0.0
C1906 C 0.80625 0.06278 0.32988 0.0
C1907 C 0.79035 0.04672 0.33613 0.0
C1908 C 0.79396 0.02535 0.33189 0.0
H1909 H 0.66124 0.10174 0.35331 0.0
H1910 H 0.68524 0.072 0.35546 0.0
C1911 C 0.81277 0.02021 0.32072 0.0
C1912 C 0.76874 0.05281 0.34403 0.0
H1913 H 0.74718 0.08638 0.3796 0.0
C1914 C 0.75067 0.04984 0.33062 0.0
C1915 C 0.76681 0.06482 0.36267 0.0
C1916 C 0.78521 0.06733 0.37824 0.0
C1917 C 0.73171 0.0608 0.33405 0.0
C1918 C 0.73085 0.07484 0.35147 0.0
C1919 C 0.7479 0.07576 0.36615 0.0
C1920 C 0.71556 0.09205 0.35207 0.0
C1921 C 0.71374 0.05891 0.31796 0.0
C1922 C 0.72459 0.11305 0.34985 0.0
C1923 C 0.7111 0.12978 0.34876 0.0
C1924 C 0.68814 0.12604 0.35002 0.0
C1925 C 0.6789 0.10506 0.35253 0.0
C1926 C 0.69257 0.0881 0.35356 0.0
H1927 H 0.71773 0.04843 0.30454 0.0
H1928 H 0.69824 0.05218 0.32539 0.0
H1929 H 0.71082 0.07488 0.31188 0.0
H1930 H 0.74223 0.11651 0.34848 0.0
H1931 H 0.71876 0.14577 0.34693 0.0
H1932 H 0.75634 0.10182 0.06817 0.0
H1933 H 0.74103 0.06656 0.07919 0.0
H1934 H 0.68355 0.07329 0.04202 0.0
H1935 H 0.69859 0.10854 0.03091 0.0
H1936 H 0.6967 0.05232 0.09812 0.0
H1937 H 0.7135 0.01858 0.01922 0.0
H1938 H 0.72702 0.04335 0.02868 0.0
H1939 H 0.69925 0.04256 0.01954 0.0
C1940 C 0.74026 0.09599 0.06261 0.0
C1941 C 0.72878 0.10796 0.04849 0.0
C1942 C 0.73158 0.07582 0.06891 0.0
C1943 C 0.71139 0.06726 0.06111 0.0
C1944 C 0.69932 0.07959 0.04798 0.0
H1945 H 0.62324 0.95781 0.06218 0.0
H1946 H 0.64708 0.98981 0.0551 0.0
C1947 C 0.7079 0.09978 0.04175 0.0
C1948 C 0.70331 0.04504 0.06577 0.0
H1949 H 0.69137 -0.00344 0.04236 0.0
C1950 C 0.69575 0.04 0.08606 0.0
C1951 C 0.70234 0.02907 0.04998 0.0
C1952 C 0.71111 0.03351 0.02815 0.0
C1953 C 0.68605 0.01959 0.09069 0.0
C1954 C 0.68436 0.0038 0.07467 0.0
C1955 C 0.69276 0.00867 0.05461 0.0
C1956 C 0.67162 0.98303 0.07772 0.0
C1957 C 0.67678 0.01539 0.11238 0.0
C1958 C 0.67797 0.96815 0.09225 0.0
C1959 C 0.66437 0.94961 0.09624 0.0
C1960 C 0.64419 0.94588 0.08588 0.0
C1961 C 0.63859 0.96029 0.07054 0.0
C1962 C 0.6522 0.9786 0.06646 0.0
H1963 H 0.67586 0.0303 0.12174 0.0
H1964 H 0.66009 0.00705 0.11159 0.0
H1965 H 0.68753 0.00496 0.1207 0.0
H1966 H 0.69309 0.97114 0.10087 0.0
H1967 H 0.6691 0.93884 0.10818 0.0
H1968 H 0.67802 0.07958 0.74198 0.0
H1969 H 0.71311 0.09562 0.72847 0.0
H1970 H 0.71993 0.04052 0.68885 0.0
H1971 H 0.68485 0.02439 0.70209 0.0
H1972 H 0.75436 0.0759 0.73166 0.0
H1973 H 0.73283 0.09173 0.64909 0.0
H1974 H 0.7122 0.0875 0.66945 0.0
H1975 H 0.72553 0.06534 0.65866 0.0
C1976 C 0.68676 0.07102 0.73012 0.0
C1977 C 0.67857 0.05069 0.72314 0.0
C1978 C 0.70687 0.08016 0.7225 0.0
C1979 C 0.71905 0.06928 0.70762 0.0
C1980 C 0.71066 0.04929 0.70014 0.0
H1981 H 0.8419 0.12088 0.64711 0.0
H1982 H 0.81355 0.09375 0.65916 0.0
C1983 C 0.6906 0.04009 0.70779 0.0
C1984 C 0.74104 0.07843 0.70079 0.0
H1985 H 0.76939 0.10066 0.65908 0.0
C1986 C 0.7577 0.0812 0.71576 0.0
C1987 C 0.74548 0.08491 0.67994 0.0
C1988 C 0.72809 0.08239 0.66331 0.0
C1989 C 0.77849 0.09095 0.71061 0.0
C1990 C 0.78256 0.09854 0.69007 0.0
C1991 C 0.76625 0.09481 0.67482 0.0
C1992 C 0.80219 0.11296 0.68483 0.0
C1993 C 0.79581 0.09329 0.72732 0.0
C1994 C 0.80556 0.13246 0.6956 0.0
C1995 C 0.82161 0.14785 0.68881 0.0
C1996 C 0.8346 0.14417 0.671 0.0
C1997 C 0.83222 0.12413 0.66095 0.0
C1998 C 0.81595 0.10869 0.66772 0.0
H1999 H 0.79337 0.08036 0.739 0.0
H2000 H 0.81261 0.0931 0.72049 0.0
H2001 H 0.79454 0.10867 0.73577 0.0
H2002 H 0.79491 0.13631 0.70857 0.0
H2003 H 0.82307 0.16312 0.69692 0.0
H2004 H 0.78687 0.96072 0.45356 0.0
H2005 H 0.77782 -0.00804 0.43365 0.0
H2006 H 0.709 0.97688 0.44686 0.0
H2007 H 0.7178 0.94585 0.46685 0.0
H2008 H 0.73041 -0.0075 0.39941 0.0
H2009 H 0.74443 0.0427 0.47127 0.0
H2010 H 0.7618 0.02163 0.46441 0.0
H2011 H 0.73444 0.01512 0.47406 0.0
C2012 C 0.76977 0.96376 0.45178 0.0
C2013 C 0.75304 0.95084 0.46184 0.0
C2014 C 0.76467 0.98164 0.44048 0.0
C2015 C 0.74278 0.98671 0.43894 0.0
C2016 C 0.726 0.97318 0.44791 0.0
H2017 H 0.64425 0.05614 0.4037 0.0
H2018 H 0.67294 0.03219 0.40886 0.0
C2019 C 0.73106 0.95544 0.4593 0.0
C2020 C 0.73712 0.00693 0.42962 0.0
H2021 H 0.72339 0.05648 0.4445 0.0
C2022 C 0.72943 0.00673 0.40903 0.0
C2023 C 0.73619 0.02555 0.44211 0.0
C2024 C 0.7447 0.0265 0.4642 0.0
C2025 C 0.71917 0.02415 0.40117 0.0
C2026 C 0.7161 0.04187 0.41447 0.0
C2027 C 0.72566 0.04285 0.43436 0.0
C2028 C 0.69946 0.05706 0.40981 0.0
C2029 C 0.71056 0.02282 0.37912 0.0
C2030 C 0.70475 0.07918 0.40907 0.0
C2031 C 0.68818 0.09312 0.40603 0.0
C2032 C 0.66609 0.08508 0.40429 0.0
C2033 C 0.66103 0.06294 0.40521 0.0
C2034 C 0.67748 0.04914 0.40787 0.0
H2035 H 0.7219 0.01455 0.36863 0.0
H2036 H 0.69443 0.01336 0.37907 0.0
H2037 H 0.70835 0.0388 0.37271 0.0
H2038 H 0.7216 0.08562 0.41088 0.0
H2039 H 0.69259 0.1101 0.40528 0.0
H2040 H 0.81517 0.0329 0.20126 0.0
H2041 H 0.77768 0.02975 0.18723 0.0
H2042 H 0.76 0.97843 0.22977 0.0
H2043 H 0.79717 0.98129 0.24367 0.0
H2044 H 0.75609 0.99118 0.16907 0.0
H2045 H 0.71034 0.01993 0.2377 0.0
H2046 H 0.73946 0.02646 0.23368 0.0
H2047 H 0.72972 0.00115 0.24448 0.0
C2048 C 0.80325 0.02097 0.20761 0.0
C2049 C 0.80913 0.00729 0.22352 0.0
C2050 C 0.78186 0.01928 0.19966 0.0
C2051 C 0.76599 0.00419 0.20781 0.0
C2052 C 0.77188 0.99052 0.22362 0.0
H2053 H 0.66318 0.92092 0.19652 0.0
H2054 H 0.6876 0.95118 0.2078 0.0
C2055 C 0.79321 -0.00798 0.23138 0.0
C2056 C 0.74366 0.00121 0.19892 0.0
H2057 H 0.68982 -0.00463 0.21425 0.0
C2058 C 0.74145 -0.00727 0.1786 0.0
C2059 C 0.72469 0.00342 0.21141 0.0
C2060 C 0.72611 0.01345 0.23297 0.0
C2061 C 0.72098 0.98417 0.17128 0.0
C2062 C 0.70221 0.98464 0.18455 0.0
C2063 C 0.70416 -0.00494 0.20408 0.0
C2064 C 0.68229 0.9702 0.18057 0.0
C2065 C 0.7201 0.97275 0.15033 0.0
C2066 C 0.66979 0.97155 0.16234 0.0
C2067 C 0.6556 0.95415 0.15591 0.0
C2068 C 0.65393 0.93538 0.16769 0.0
C2069 C 0.66427 0.93523 0.18718 0.0
C2070 C 0.67827 0.95253 0.19361 0.0
H2071 H 0.73662 0.97219 0.14292 0.0
H2072 H 0.71277 0.95616 0.15213 0.0
H2073 H 0.70962 0.98103 0.13954 0.0
H2074 H 0.67233 0.98525 0.15229 0.0
H2075 H 0.64778 0.95459 0.1408 0.0
H2076 H 0.80458 0.11881 0.96135 0.0
H2077 H 0.809 0.08787 0.93901 0.0
H2078 H 0.73999 0.08424 0.9243 0.0
H2079 H 0.73529 0.11523 0.94708 0.0
H2080 H 0.75197 0.04685 0.93814 0.0
H2081 H 0.81134 0.07507 0.87732 0.0
H2082 H 0.82149 0.08395 0.90239 0.0
H2083 H 0.79621 0.09322 0.89294 0.0
C2084 C 0.7904 0.1118 0.953 0.0
C2085 C 0.76956 0.11944 0.95612 0.0
C2086 C 0.79299 0.09417 0.94004 0.0
C2087 C 0.77488 0.08387 0.92973 0.0
C2088 C 0.75422 0.09205 0.93197 0.0
H2089 H 0.8281 0.97199 0.87302 0.0
H2090 H 0.80274 0.00031 0.87397 0.0
C2091 C 0.75159 0.1098 0.94495 0.0
C2092 C 0.77737 0.06308 0.91915 0.0
H2093 H 0.81416 0.03818 0.88888 0.0
C2094 C 0.76514 0.04496 0.92686 0.0
C2095 C 0.79404 0.06051 0.90397 0.0
C2096 C 0.8063 0.0793 0.89352 0.0
C2097 C 0.77086 0.02437 0.92162 0.0
C2098 C 0.78955 0.02195 0.90877 0.0
C2099 C 0.80011 0.03997 0.89914 0.0
C2100 C 0.80059 0.00178 0.90782 0.0
C2101 C 0.75744 0.00549 0.93067 0.0
C2102 C 0.80758 -0.00707 0.92648 0.0
C2103 C 0.82196 0.97674 0.92589 0.0
C2104 C 0.82943 0.96899 0.90664 0.0
C2105 C 0.82173 0.9771 0.88799 0.0
C2106 C 0.80746 -0.00657 0.88855 0.0
H2107 H 0.73985 0.00879 0.93213 0.0
H2108 H 0.7587 0.99091 0.92089 0.0
H2109 H 0.76337 0.00243 0.94663 0.0
H2110 H 0.8032 -0.00042 0.94154 0.0
H2111 H 0.82821 0.97109 0.94045 0.0
H2112 H 0.76503 0.7088 0.96055 0.0
H2113 H 0.7796 0.74523 0.95328 0.0
H2114 H 0.82165 0.74448 0.00702 0.0
H2115 H 0.80727 0.70784 0.01435 0.0
H2116 H 0.77727 0.78069 0.98176 0.0
H2117 H 0.86329 0.76625 0.95865 0.0
H2118 H 0.84181 0.74492 0.96004 0.0
H2119 H 0.85341 0.75643 0.98366 0.0
C2120 C 0.77756 0.71625 0.9707 0.0
C2121 C 0.78502 0.70542 0.988 0.0
C2122 C 0.7858 0.7371 0.96657 0.0
C2123 C 0.80171 0.7475 0.9796 0.0
C2124 C 0.80954 0.73664 -0.00333 0.0
H2125 H 0.86025 0.87347 0.93937 0.0
H2126 H 0.85074 0.84539 0.96508 0.0
C2127 C 0.80128 0.71573 0.00083 0.0
C2128 C 0.80937 0.76993 0.97537 0.0
H2129 H 0.85242 0.80092 0.95465 0.0
C2130 C 0.79381 0.78522 0.97617 0.0
C2131 C 0.83108 0.77588 0.96852 0.0
C2132 C 0.84842 0.76006 0.96752 0.0
C2133 C 0.79895 0.80592 0.96887 0.0
C2134 C 0.82006 0.81132 0.96028 0.0
C2135 C 0.83621 0.79665 0.96117 0.0
C2136 C 0.82425 0.83011 0.94674 0.0
C2137 C 0.78142 0.82154 0.96947 0.0
C2138 C 0.8124 0.83089 0.92814 0.0
C2139 C 0.81802 0.84655 0.91343 0.0
C2140 C 0.83564 0.86184 0.91699 0.0
C2141 C 0.84673 0.86183 0.93618 0.0
C2142 C 0.8413 0.84583 0.95085 0.0
H2143 H 0.7696 0.81806 0.98258 0.0
H2144 H 0.7887 0.83819 0.97116 0.0
H2145 H 0.77207 0.82018 0.95465 0.0
H2146 H 0.79942 0.81871 0.9245 0.0
H2147 H 0.80904 0.8462 0.89888 0.0
H2148 H 0.30351 0.85832 0.02357 0.0
H2149 H 0.32156 0.82904 0.03896 0.0
H2150 H 0.34789 0.81277 0.97844 0.0
H2151 H 0.3299 0.84215 0.96276 0.0
H2152 H 0.31369 0.78329 0.02257 0.0
H2153 H 0.40131 0.81583 0.02134 0.0
H2154 H 0.37963 0.83378 0.0234 0.0
H2155 H 0.38359 0.81938 -0.00054 0.0
C2156 C 0.31334 0.84874 0.01351 0.0
C2157 C 0.3152 0.85261 -0.00809 0.0
C2158 C 0.32359 0.83197 0.02234 0.0
C2159 C 0.33601 0.81879 0.00981 0.0
C2160 C 0.33845 0.82286 0.98836 0.0
H2161 H 0.36867 0.7085 0.08579 0.0
H2162 H 0.36438 0.72615 0.05191 0.0
C2163 C 0.32816 0.83966 0.97946 0.0
C2164 C 0.34545 0.80033 0.01944 0.0
H2165 H 0.392 0.78637 0.04286 0.0
C2166 C 0.33095 0.7835 0.0265 0.0
C2167 C 0.36799 0.80066 0.02428 0.0
C2168 C 0.38418 0.81831 0.01677 0.0
C2169 C 0.33805 0.7679 0.03981 0.0
C2170 C 0.36024 0.76928 0.0462 0.0
C2171 C 0.37509 0.78517 0.03775 0.0
C2172 C 0.36671 0.75808 0.06516 0.0
C2173 C 0.32137 0.75125 0.04849 0.0
C2174 C 0.37018 0.77019 0.08353 0.0
C2175 C 0.37237 0.76025 0.10262 0.0
C2176 C 0.37147 0.73795 0.10379 0.0
C2177 C 0.3694 0.72571 0.08526 0.0
C2178 C 0.36691 0.73576 0.06598 0.0
H2179 H 0.30455 0.75301 0.04261 0.0
H2180 H 0.32613 0.73514 0.04403 0.0
H2181 H 0.32096 0.75231 0.06587 0.0
H2182 H 0.37003 0.78739 0.08329 0.0
H2183 H 0.37418 0.77008 0.11664 0.0
H2184 H 0.9227 0.56686 0.79303 0.0
H2185 H 0.95892 0.58611 0.79237 0.0
H2186 H 0.96161 0.57954 0.72511 0.0
H2187 H 0.92509 0.56028 0.72563 0.0
H2188 H -0.0035 0.56309 0.74473 0.0
H2189 H 0.9874 0.64429 0.77475 0.0
H2190 H 0.97155 0.62533 0.79064 0.0
H2191 H 0.96475 0.62795 0.76344 0.0
C2192 C 0.93069 0.57004 0.77803 0.0
C2193 C 0.92107 0.56195 0.75941 0.0
C2194 C 0.95135 0.58122 0.77765 0.0
C2195 C 0.96291 0.58447 0.75866 0.0
C2196 C 0.95288 0.5774 0.7399 0.0
H2197 H 0.08964 0.63311 0.80707 0.0
H2198 H 0.06395 0.63001 0.77769 0.0
C2199 C 0.932 0.56644 0.74024 0.0
C2200 C 0.98655 0.592 0.75924 0.0
H2201 H 0.02089 0.62804 0.78539 0.0
C2202 C 0.00198 0.57767 0.753 0.0
C2203 C -0.00608 0.61128 0.76937 0.0
C2204 C 0.97851 0.62819 0.7747 0.0
C2205 C 0.02401 0.5808 0.75917 0.0
C2206 C 0.03056 0.59845 0.77218 0.0
C2207 C 0.01584 0.61422 0.77584 0.0
C2208 C 0.05009 0.59845 0.78584 0.0
C2209 C 0.03967 0.56441 0.75287 0.0
C2210 C 0.0514 0.58149 0.79973 0.0
C2211 C 0.06581 0.58332 0.81653 0.0
C2212 C 0.07925 0.60215 0.81981 0.0
C2213 C 0.07955 0.61834 0.80481 0.0
C2214 C 0.06482 0.61663 0.78807 0.0
H2215 H 0.03601 0.5582 0.73682 0.0
H2216 H 0.05705 0.57108 0.75335 0.0
H2217 H 0.03753 0.55072 0.76368 0.0
H2218 H 0.03992 0.56751 0.79875 0.0
H2219 H 0.06522 0.57061 0.82786 0.0
H2220 H 0.21005 0.19552 0.57169 0.0
H2221 H 0.19142 0.22666 0.58288 0.0
H2222 H 0.15174 0.22153 0.52734 0.0
H2223 H 0.17062 0.19038 0.51582 0.0
H2224 H 0.17234 0.26104 0.53214 0.0
H2225 H 0.13161 0.23717 0.60672 0.0
H2226 H 0.1599 0.23133 0.60659 0.0
H2227 H 0.14121 0.21797 0.58818 0.0
C2228 C 0.19694 0.20062 0.56211 0.0
C2229 C 0.19185 0.19047 0.54284 0.0
C2230 C 0.18621 0.21841 0.56858 0.0
C2231 C 0.17003 0.22635 0.55605 0.0
C2232 C 0.16411 0.21562 0.5373 0.0
H2233 H 0.11972 0.33869 0.61511 0.0
H2234 H 0.11817 0.30604 0.59381 0.0
C2235 C 0.17484 0.19775 0.53081 0.0
C2236 C 0.16134 0.24715 0.56148 0.0
H2237 H 0.14111 0.27499 0.60254 0.0
C2238 C 0.16504 0.26402 0.54736 0.0
C2239 C 0.15147 0.25102 0.58115 0.0
C2240 C 0.1456 0.23332 0.59642 0.0
C2241 C 0.1606 0.28492 0.55297 0.0
C2242 C 0.15259 0.28913 0.5734 0.0
C2243 C 0.14744 0.27196 0.58693 0.0
C2244 C 0.15154 0.31116 0.58196 0.0
C2245 C 0.16506 0.30223 0.53703 0.0
C2246 C 0.17048 0.32539 0.58182 0.0
C2247 C 0.17111 0.34435 0.59351 0.0
C2248 C 0.15285 0.34946 0.60556 0.0
C2249 C 0.13361 0.33571 0.60507 0.0
C2250 C 0.13288 0.31683 0.5932 0.0
H2251 H 0.16141 0.29604 0.52098 0.0
H2252 H 0.15522 0.31601 0.54019 0.0
H2253 H 0.18276 0.30782 0.53737 0.0
H2254 H 0.18536 0.32116 0.57393 0.0
H2255 H 0.1864 0.35428 0.59436 0.0
H2256 H 0.0683 0.03547 0.79159 0.0
H2257 H 0.03233 0.02038 0.80353 0.0
H2258 H 0.02557 0.98242 0.74698 0.0
H2259 H 0.06176 -0.00252 0.73479 0.0
H2260 H 0.99102 0.02246 0.77866 0.0
H2261 H 0.012 0.94025 0.79784 0.0
H2262 H 0.03284 0.96226 0.79707 0.0
H2263 H 0.02099 0.95177 0.77319 0.0
C2264 C 0.05931 0.02377 0.78174 0.0
C2265 C 0.06788 0.01766 0.76225 0.0
C2266 C 0.03873 0.01522 0.78856 0.0
C2267 C 0.02639 0.00031 0.77613 0.0
C2268 C 0.03497 -0.00617 0.75682 0.0
H2269 H 0.90564 0.93696 0.83043 0.0
H2270 H 0.93197 0.94781 0.80251 0.0
C2271 C 0.05561 0.00244 0.74992 0.0
C2272 C 0.00429 -0.0078 0.78345 0.0
H2273 H 0.97732 0.95022 0.80852 0.0
C2274 C 0.98782 0.00652 0.78482 0.0
C2275 C 0.00013 0.97132 0.79115 0.0
C2276 C 0.01735 0.9554 0.78987 0.0
C2277 C 0.96767 0.0009 0.79483 0.0
C2278 C 0.96418 0.98061 0.80408 0.0
C2279 C 0.98005 0.96576 0.8014 0.0
C2280 C 0.94595 0.97568 0.81916 0.0
C2281 C 0.95061 0.01698 0.79605 0.0
C2282 C 0.94487 0.98798 0.83756 0.0
C2283 C 0.92991 0.98191 0.85344 0.0
C2284 C 0.91577 0.96332 0.85131 0.0
C2285 C 0.91618 0.95149 0.83247 0.0
C2286 C 0.93129 0.95756 0.81656 0.0
H2287 H 0.95211 0.0279 0.78248 0.0
H2288 H 0.9337 0.00907 0.79652 0.0
H2289 H 0.95316 0.02681 0.81049 0.0
H2290 H 0.95633 0.00176 0.84009 0.0
H2291 H 0.93003 0.99137 0.86773 0.0
H2292 H 0.71181 0.35639 0.50015 0.0
H2293 H 0.69026 0.32202 0.49634 0.0
H2294 H 0.70853 0.31959 0.43097 0.0
H2295 H 0.7297 0.35384 0.43448 0.0
H2296 H 0.66445 0.30591 0.43886 0.0
H2297 H 0.72133 0.26635 0.49074 0.0
H2298 H 0.70813 0.28873 0.5014 0.0
H2299 H 0.72801 0.29272 0.4806 0.0
C2300 C 0.71091 0.34871 0.48488 0.0
C2301 C 0.72268 0.35779 0.46766 0.0
C2302 C 0.69873 0.32899 0.48279 0.0
C2303 C 0.69814 0.31808 0.46347 0.0
C2304 C 0.70884 0.32769 0.44605 0.0
H2305 H 0.69729 0.19936 0.40896 0.0
H2306 H 0.70343 0.23119 0.43104 0.0
C2307 C 0.72099 0.34729 0.44811 0.0
C2308 C 0.68761 0.29613 0.4612 0.0
H2309 H 0.69568 0.2443 0.472 0.0
C2310 C 0.67088 0.29241 0.44643 0.0
C2311 C 0.69617 0.27859 0.47108 0.0
C2312 C 0.71448 0.28163 0.48677 0.0
C2313 C 0.66346 0.27164 0.44021 0.0
C2314 C 0.67276 0.25407 0.44937 0.0
C2315 C 0.68849 0.25778 0.46513 0.0
C2316 C 0.66925 0.23229 0.44021 0.0
C2317 C 0.64698 0.26878 0.42275 0.0
C2318 C 0.64817 0.22167 0.43888 0.0
C2319 C 0.64466 0.20349 0.42612 0.0
C2320 C 0.66224 0.19546 0.41495 0.0
C2321 C 0.68354 0.20509 0.41767 0.0
C2322 C 0.68703 0.22328 0.43027 0.0
H2323 H 0.64405 0.28411 0.41522 0.0
H2324 H 0.65267 0.2577 0.41053 0.0
H2325 H 0.63106 0.26184 0.42915 0.0
H2326 H 0.63425 0.2282 0.4466 0.0
H2327 H 0.62799 0.19688 0.42357 0.0
H2328 H 0.90933 0.47683 0.70327 0.0
H2329 H 0.93955 0.45818 0.6884 0.0
H2330 H 0.94486 0.42426 0.74618 0.0
H2331 H 0.91504 0.44339 0.76142 0.0
H2332 H 0.98379 0.4406 0.73429 0.0
H2333 H 0.94512 0.39946 0.66592 0.0
H2334 H 0.94071 0.42724 0.66529 0.0
H2335 H 0.92913 0.41109 0.68642 0.0
C2336 C 0.91656 0.46505 0.71267 0.0
C2337 C 0.90976 0.46163 0.73354 0.0
C2338 C 0.93382 0.45429 0.70411 0.0
C2339 C 0.94435 0.43956 0.71606 0.0
C2340 C 0.93699 0.43549 0.73663 0.0
H2341 H 0.04637 0.38355 0.64155 0.0
H2342 H 0.01727 0.38365 0.66838 0.0
C2343 C 0.91988 0.44642 0.74529 0.0
C2344 C 0.96424 0.43 0.70766 0.0
H2345 H 0.98468 0.40734 0.66355 0.0
C2346 C 0.98389 0.43292 0.71899 0.0
C2347 C 0.96439 0.41942 0.68799 0.0
C2348 C 0.94362 0.41391 0.67585 0.0
C2349 C 0.0039 0.427 0.71049 0.0
C2350 C 0.00438 0.41851 0.68989 0.0
C2351 C 0.98448 0.41413 0.67924 0.0
C2352 C 0.02524 0.41641 0.67806 0.0
C2353 C 0.02437 0.43024 0.72353 0.0
C2354 C 0.04003 0.43444 0.67522 0.0
C2355 C 0.05683 0.43423 0.66017 0.0
C2356 C 0.05912 0.41601 0.64778 0.0
C2357 C 0.04527 0.39756 0.65143 0.0
C2358 C 0.02854 0.3977 0.6666 0.0
H2359 H 0.02034 0.4285 0.74046 0.0
H2360 H 0.03659 0.41874 0.71911 0.0
H2361 H 0.03196 0.44665 0.72121 0.0
H2362 H 0.03749 0.44927 0.68333 0.0
H2363 H 0.06682 0.44885 0.65701 0.0
H2364 H 0.58169 0.61554 0.26463 0.0
H2365 H 0.55123 0.63667 0.25486 0.0
H2366 H 0.56297 0.62205 0.18973 0.0
H2367 H 0.59318 0.60102 0.19928 0.0
H2368 H 0.55342 0.66665 0.20027 0.0
H2369 H 0.49261 0.60432 0.23241 0.0
H2370 H 0.5147 0.61561 0.24854 0.0
H2371 H 0.52062 0.59847 0.22691 0.0
C2372 C 0.57809 0.61728 0.2482 0.0
C2373 C 0.58974 0.60653 0.2327 0.0
C2374 C 0.5606 0.62921 0.24269 0.0
C2375 C 0.55472 0.63065 0.22161 0.0
C2376 C 0.56724 0.62106 0.20609 0.0
H2377 H 0.48027 0.64892 0.1224 0.0
H2378 H 0.50616 0.64859 0.15071 0.0
C2379 C 0.58451 0.60905 0.21157 0.0
C2380 C 0.53469 0.64064 0.21526 0.0
H2381 H 0.47999 0.62761 0.20775 0.0
C2382 C 0.53721 0.65854 0.2024 0.0
C2383 C 0.51353 0.63023 0.21834 0.0
C2384 C 0.50999 0.61106 0.23227 0.0
C2385 C 0.51959 0.665 0.19082 0.0
C2386 C 0.49894 0.65302 0.19198 0.0
C2387 C 0.49582 0.63667 0.20672 0.0
C2388 C 0.4824 0.65411 0.17524 0.0
C2389 C 0.52401 0.68367 0.17636 0.0
C2390 C 0.45995 0.65624 0.17957 0.0
C2391 C 0.44482 0.65642 0.16312 0.0
C2392 C 0.452 0.65386 0.14233 0.0
C2393 C 0.47427 0.65112 0.13826 0.0
C2394 C 0.4892 0.65117 0.15446 0.0
H2395 H 0.53319 0.69703 0.18479 0.0
H2396 H 0.53462 0.67891 0.16313 0.0
H2397 H 0.50884 0.68951 0.1699 0.0
H2398 H 0.4542 0.65795 0.19555 0.0
H2399 H 0.42766 0.65828 0.16661 0.0
H2400 H 0.4768 0.75714 0.79771 0.0
H2401 H 0.48484 0.7353 0.76688 0.0
H2402 H 0.55115 0.73148 0.78829 0.0
H2403 H 0.54331 0.75324 0.81895 0.0
H2404 H 0.51718 0.74925 0.73768 0.0
H2405 H 0.53425 0.67041 0.76787 0.0
H2406 H 0.5189 0.68895 0.78281 0.0
H2407 H 0.5485 0.6917 0.78241 0.0
C2408 C 0.49289 0.7511 0.79615 0.0
C2409 C 0.50945 0.75695 0.81074 0.0
C2410 C 0.49747 0.73869 0.7785 0.0
C2411 C 0.51853 0.73159 0.77538 0.0
C2412 C 0.53467 0.73641 0.79055 0.0
H2413 H 0.61277 0.72071 0.68521 0.0
H2414 H 0.5837 0.73084 0.70896 0.0
C2415 C 0.53019 0.74897 0.80804 0.0
C2416 C 0.5248 0.72174 0.75517 0.0
H2417 H 0.55273 0.68103 0.73524 0.0
C2418 C 0.52432 0.734 0.73697 0.0
C2419 C 0.53394 0.70178 0.75416 0.0
C2420 C 0.53373 0.68735 0.77284 0.0
C2421 C 0.53445 0.72765 0.71829 0.0
C2422 C 0.54535 0.70866 0.71789 0.0
C2423 C 0.54427 0.69556 0.73554 0.0
C2424 C 0.56097 0.704 0.70084 0.0
C2425 C 0.5345 0.74186 0.69946 0.0
C2426 C 0.55762 0.68577 0.68802 0.0
C2427 C 0.57427 0.67993 0.67427 0.0
C2428 C 0.59458 0.69214 0.67346 0.0
C2429 C 0.59735 0.71094 0.68556 0.0
C2430 C 0.58071 0.71681 0.69907 0.0
H2431 H 0.52071 0.75239 0.7002 0.0
H2432 H 0.55013 0.75212 0.69898 0.0
H2433 H 0.53335 0.73228 0.68474 0.0
H2434 H 0.54241 0.67579 0.68911 0.0
H2435 H 0.57174 0.66528 0.66523 0.0
H2436 H 0.56546 0.33371 0.09136 0.0
H2437 H 0.5772 0.33127 0.05494 0.0
H2438 H 0.55226 0.26528 0.05244 0.0
H2439 H 0.53986 0.26776 0.08903 0.0
H2440 H 0.6029 0.30706 0.02994 0.0
H2441 H 0.51421 0.29245 0.00991 0.0
H2442 H 0.52285 0.29978 0.03608 0.0
H2443 H 0.52604 0.27336 0.02617 0.0
C2444 C 0.5629 0.3185 0.08328 0.0
C2445 C 0.55134 0.30105 0.09301 0.0
C2446 C 0.56968 0.3171 0.06241 0.0
C2447 C 0.56511 0.29825 0.05077 0.0
C2448 C 0.55551 0.28014 0.06098 0.0
H2449 H 0.5965 0.33246 0.91832 0.0
H2450 H 0.59207 0.30639 0.94683 0.0
C2451 C 0.54864 0.28153 0.08197 0.0
C2452 C 0.5681 0.29894 0.02764 0.0
H2453 H 0.53838 0.30413 0.98324 0.0
C2454 C 0.58893 0.30571 0.01952 0.0
C2455 C 0.54981 0.29726 0.01408 0.0
C2456 C 0.52691 0.29043 0.02189 0.0
C2457 C 0.5916 0.31277 -0.00121 0.0
C2458 C 0.57301 0.3127 0.98578 0.0
C2459 C 0.55259 0.30399 -0.00674 0.0
C2460 C 0.57334 0.32627 0.96694 0.0
C2461 C 0.6138 0.32236 -0.00835 0.0
C2462 C 0.56336 0.34551 0.96844 0.0
C2463 C 0.56601 0.36036 0.9525 0.0
C2464 C 0.57879 0.35642 0.93454 0.0
C2465 C 0.58721 0.33631 0.93221 0.0
C2466 C 0.58467 0.32138 0.94843 0.0
H2467 H 0.62682 0.32042 0.00334 0.0
H2468 H 0.61853 0.31472 0.97676 0.0
H2469 H 0.61292 0.33961 0.98866 0.0
H2470 H 0.55437 0.34953 0.9825 0.0
H2471 H 0.55878 0.37541 0.9548 0.0
H2472 H 0.02097 0.3374 0.28775 0.0
H2473 H 0.00859 0.35347 0.25556 0.0
H2474 H 0.95125 0.37304 0.28846 0.0
H2475 H 0.96335 0.35697 0.32043 0.0
H2476 H 0.96873 0.33804 0.23815 0.0
H2477 H 0.96919 0.42474 0.25165 0.0
H2478 H 0.98566 0.40802 0.26681 0.0
H2479 H 0.95719 0.4104 0.27359 0.0
C2480 C 0.00606 0.34567 0.28822 0.0
C2481 C -0.00699 0.34582 0.30652 0.0
C2482 C -0.00097 0.35484 0.26985 0.0
C2483 C 0.97915 0.36466 0.26969 0.0
C2484 C 0.96687 0.36595 0.28832 0.0
H2485 H 0.86639 0.38763 0.20873 0.0
H2486 H 0.89905 0.38495 0.23003 0.0
C2487 C 0.9737 0.35658 0.30655 0.0
C2488 C 0.96909 0.37032 0.24976 0.0
H2489 H 0.94053 0.40902 0.22848 0.0
C2490 C 0.96314 0.35373 0.23556 0.0
C2491 C 0.96194 0.39081 0.24643 0.0
C2492 C 0.96905 0.40955 0.26035 0.0
C2493 C 0.94836 0.35653 0.21934 0.0
C2494 C 0.93966 0.37655 0.21718 0.0
C2495 C 0.94712 0.39363 0.23027 0.0
C2496 C 0.92056 0.37919 0.2037 0.0
C2497 C 0.94078 0.33761 0.2058 0.0
C2498 C 0.92185 0.37688 0.18183 0.0
C2499 C 0.90328 0.37896 0.16958 0.0
C2500 C 0.88311 0.38269 0.17917 0.0
C2501 C 0.88183 0.38478 0.20102 0.0
C2502 C 0.90045 0.38333 0.21316 0.0
H2503 H 0.9469 0.32254 0.21142 0.0
H2504 H 0.92255 0.33568 0.20537 0.0
H2505 H 0.94691 0.34025 0.18954 0.0
H2506 H 0.93724 0.37366 0.17426 0.0
H2507 H 0.90453 0.37703 0.15276 0.0
H2508 H 0.95834 0.83422 0.5783 0.0
H2509 H 0.94299 0.82519 0.54382 0.0
H2510 H 0.92119 0.76244 0.56565 0.0
H2511 H 0.93632 0.7713 0.60007 0.0
H2512 H 0.95952 0.79374 0.52029 0.0
H2513 H 0.8701 0.77559 0.52922 0.0
H2514 H 0.886 0.79208 0.54781 0.0
H2515 H 0.88446 0.76344 0.54966 0.0
C2516 C 0.9496 0.81874 0.576 0.0
C2517 C 0.94872 0.8034 0.59193 0.0
C2518 C 0.94088 0.81361 0.55623 0.0
C2519 C 0.9308 0.79321 0.55216 0.0
C2520 C 0.92847 0.77844 0.5685 0.0
H2521 H 0.91958 0.69113 0.47479 0.0
H2522 H 0.92312 0.72056 0.49981 0.0
C2523 C 0.93729 0.78349 0.58819 0.0
C2524 C 0.92605 0.78591 0.53038 0.0
H2525 H 0.88837 0.75466 0.50257 0.0
C2526 C 0.94372 0.78589 0.51604 0.0
C2527 C 0.90541 0.77585 0.52474 0.0
C2528 C 0.88536 0.77695 0.53861 0.0
C2529 C 0.94186 0.77418 0.4972 0.0
C2530 C 0.92192 0.76221 0.49273 0.0
C2531 C 0.90371 0.76377 0.50614 0.0
C2532 C 0.92086 0.74505 0.4767 0.0
C2533 C 0.96174 0.77305 0.48309 0.0
C2534 C 0.91889 0.74918 0.45528 0.0
C2535 C 0.91661 0.73224 0.44078 0.0
C2536 C 0.9167 0.71104 0.44754 0.0
C2537 C 0.91959 0.70721 0.46894 0.0
C2538 C 0.92146 0.72401 0.48334 0.0
H2539 H 0.97584 0.78394 0.48838 0.0
H2540 H 0.96685 0.7565 0.48266 0.0
H2541 H 0.95753 0.77725 0.46687 0.0
H2542 H 0.91873 0.76537 0.44985 0.0
H2543 H 0.91438 0.73571 0.4244 0.0
H2544 H 0.53308 0.30696 0.6642 0.0
H2545 H 0.54672 0.32106 0.69784 0.0
H2546 H 0.48521 0.34862 0.70969 0.0
H2547 H 0.47129 0.33448 0.67617 0.0
H2548 H 0.55102 0.36272 0.71575 0.0
H2549 H 0.49129 0.30818 0.75957 0.0
H2550 H 0.49683 0.30485 0.73194 0.0
H2551 H 0.47966 0.3251 0.74088 0.0
C2552 C 0.52254 0.31632 0.67376 0.0
C2553 C 0.50099 0.31937 0.66754 0.0
C2554 C 0.53037 0.32432 0.69302 0.0
C2555 C 0.51679 0.33547 0.70643 0.0
C2556 C 0.49577 0.33967 0.69975 0.0
H2557 H 0.57132 0.39596 0.82093 0.0
H2558 H 0.5483 0.38969 0.78992 0.0
C2559 C 0.48792 0.33169 0.68049 0.0
C2560 C 0.52438 0.3418 0.72773 0.0
H2561 H 0.51527 0.33124 0.77961 0.0
C2562 C 0.54311 0.35602 0.72974 0.0
C2563 C 0.51412 0.3328 0.74591 0.0
C2564 C 0.49446 0.31675 0.74459 0.0
C2565 C 0.55208 0.36128 0.74945 0.0
C2566 C 0.54181 0.3523 0.76765 0.0
C2567 C 0.52291 0.33829 0.76566 0.0
C2568 C 0.55175 0.35573 0.78861 0.0
C2569 C 0.57301 0.37568 0.75054 0.0
C2570 C 0.56013 0.33855 0.79887 0.0
C2571 C 0.57273 0.34206 0.81689 0.0
C2572 C 0.57684 0.36275 0.8251 0.0
C2573 C 0.56749 0.37976 0.81547 0.0
C2574 C 0.55478 0.37624 0.7975 0.0
H2575 H 0.58115 0.37772 0.73496 0.0
H2576 H 0.56915 0.39164 0.75642 0.0
H2577 H 0.5848 0.36927 0.76149 0.0
H2578 H 0.55803 0.3226 0.79223 0.0
H2579 H 0.58025 0.3288 0.82379 0.0
H2580 H 0.96561 0.25386 0.9662 0.0
H2581 H 0.9482 0.26352 -0.00046 0.0
H2582 H 0.94865 0.32871 0.97945 0.0
H2583 H 0.96597 0.31929 0.94638 0.0
H2584 H 0.96706 0.29451 0.02857 0.0
H2585 H 0.88562 0.3155 0.00233 0.0
H2586 H 0.90277 0.29912 0.98672 0.0
H2587 H 0.90744 0.32772 0.98644 0.0
C2588 C 0.96163 0.27016 0.96879 0.0
C2589 C 0.96714 0.28583 0.9537 0.0
C2590 C 0.95175 0.27564 0.98783 0.0
C2591 C 0.94688 0.29675 -0.00819 0.0
C2592 C 0.95188 0.31224 0.97652 0.0
H2593 H 0.94742 0.38959 0.0817 0.0
H2594 H 0.95543 0.3595 0.05929 0.0
C2595 C 0.96191 0.30685 0.95767 0.0
C2596 C 0.93837 0.3034 0.01247 0.0
H2597 H 0.8997 0.33357 0.03382 0.0
C2598 C 0.95194 0.30243 0.02999 0.0
C2599 C 0.91853 0.31348 0.01437 0.0
C2600 C 0.90264 0.31383 -0.00351 0.0
C2601 C 0.94709 0.31294 0.04881 0.0
C2602 C 0.92839 0.32483 0.04997 0.0
C2603 C 0.91392 0.32429 0.03303 0.0
C2604 C 0.92533 0.34059 0.06694 0.0
C2605 C 0.9626 0.31219 0.06694 0.0
C2606 C 0.90592 0.33977 0.07903 0.0
C2607 C 0.90124 0.35707 0.09189 0.0
C2608 C 0.91582 0.3755 0.09258 0.0
C2609 C 0.93583 0.37566 0.08142 0.0
C2610 C 0.94052 0.35838 0.06873 0.0
H2611 H 0.97161 0.29752 0.06629 0.0
H2612 H 0.97491 0.32611 0.06617 0.0
H2613 H 0.95367 0.31287 0.08216 0.0
H2614 H 0.89403 0.32615 0.07783 0.0
H2615 H 0.88562 0.35654 0.1002 0.0
H2616 H 0.98878 0.72795 0.17239 0.0
H2617 H 0.98585 0.71649 0.20866 0.0
H2618 H 0.91859 0.69245 0.19858 0.0
H2619 H 0.92109 0.70505 0.1625 0.0
H2620 H 0.92009 0.71946 0.22869 0.0
H2621 H 0.9847 0.66509 0.24407 0.0
H2622 H -0.00384 0.68926 0.23239 0.0
H2623 H 0.97707 0.67166 0.21784 0.0
C2624 C 0.9736 0.71952 0.17766 0.0
C2625 C 0.95509 0.71753 0.16465 0.0
C2626 C 0.97198 0.71285 0.19846 0.0
C2627 C 0.95202 0.7035 0.20645 0.0
C2628 C 0.93416 0.69969 0.19283 0.0
H2629 H 0.91839 0.66458 0.33274 0.0
H2630 H 0.93465 0.66592 0.29753 0.0
C2631 C 0.9356 0.70683 0.17218 0.0
C2632 C 0.94856 0.70124 0.22945 0.0
H2633 H 0.96997 0.68271 0.27437 0.0
C2634 C 0.93091 0.71118 0.23857 0.0
C2635 C 0.96261 0.69047 0.24247 0.0
C2636 C 0.98104 0.67833 0.23364 0.0
C2637 C 0.92694 0.71081 0.26018 0.0
C2638 C 0.94165 0.70105 0.27335 0.0
C2639 C 0.9591 0.69072 0.26431 0.0
C2640 C 0.93795 0.70035 0.29635 0.0
C2641 C 0.90662 0.72044 0.26856 0.0
C2642 C 0.93584 0.71926 0.3079 0.0
C2643 C 0.92613 0.71851 0.32784 0.0
C2644 C 0.91932 0.69884 0.33678 0.0
C2645 C 0.92393 0.67994 0.32627 0.0
C2646 C 0.93314 0.68068 0.30613 0.0
H2647 H 0.89424 0.72187 0.25613 0.0
H2648 H 0.89878 0.71073 0.2814 0.0
H2649 H 0.91123 0.73669 0.27477 0.0
H2650 H 0.93995 0.73461 0.30079 0.0
H2651 H 0.92251 0.73326 0.3356 0.0
H2652 H 0.5726 0.78976 0.45888 0.0
H2653 H 0.59001 0.77763 0.49051 0.0
H2654 H 0.59082 0.71456 0.4635 0.0
H2655 H 0.57342 0.72648 0.432 0.0
H2656 H 0.56831 0.74626 0.51468 0.0
H2657 H 0.65047 0.72229 0.49256 0.0
H2658 H 0.63596 0.74038 0.47704 0.0
H2659 H 0.63027 0.71198 0.4741 0.0
C2660 C 0.57716 0.77348 0.45939 0.0
C2661 C 0.57153 0.75903 0.44297 0.0
C2662 C 0.58706 0.76658 0.47752 0.0
C2663 C 0.59186 0.74524 0.47933 0.0
C2664 C 0.58766 0.7312 0.46233 0.0
H2665 H 0.59452 0.64057 0.55292 0.0
H2666 H 0.59747 0.66959 0.528 0.0
C2667 C 0.57758 0.73801 0.44434 0.0
C2668 C 0.59785 0.73658 0.49981 0.0
H2669 H 0.63181 0.7023 0.52101 0.0
C2670 C 0.58257 0.73719 0.5164 0.0
C2671 C 0.61655 0.72496 0.50212 0.0
C2672 C 0.63436 0.72505 0.48555 0.0
C2673 C 0.58438 0.72479 0.53435 0.0
C2674 C 0.60203 0.7116 0.53574 0.0
C2675 C 0.61825 0.71237 0.51992 0.0
C2676 C 0.60199 0.69452 0.55151 0.0
C2677 C 0.56656 0.72466 0.55094 0.0
C2678 C 0.60374 0.6989 0.57311 0.0
C2679 C 0.60206 0.68216 0.58754 0.0
C2680 C 0.59856 0.66096 0.58046 0.0
C2681 C 0.59713 0.65676 0.55885 0.0
C2682 C 0.59897 0.67332 0.54456 0.0
H2683 H 0.55276 0.73409 0.54636 0.0
H2684 H 0.55994 0.70807 0.55413 0.0
H2685 H 0.57358 0.73154 0.56571 0.0
H2686 H 0.60626 0.71518 0.57878 0.0
H2687 H 0.603 0.68579 0.60414 0.0
H2688 H 0.79306 0.49894 0.6954 0.0
H2689 H 0.76088 0.51134 0.67805 0.0
H2690 H 0.79776 0.57077 0.66394 0.0
H2691 H 0.82983 0.5585 0.68106 0.0
H2692 H 0.74132 0.54512 0.6937 0.0
H2693 H 0.76218 0.56094 0.61113 0.0
H2694 H 0.77719 0.54339 0.62677 0.0
H2695 H 0.78424 0.57177 0.62729 0.0
C2696 C 0.79454 0.51434 0.68793 0.0
C2697 C 0.81396 0.52781 0.68973 0.0
C2698 C 0.7761 0.52142 0.67806 0.0
C2699 C 0.7769 0.54193 0.66954 0.0
C2700 C 0.79681 0.55472 0.66997 0.0
H2701 H 0.71704 0.65213 0.65747 0.0
H2702 H 0.73797 0.62074 0.65651 0.0
C2703 C 0.81515 0.54773 0.67993 0.0
C2704 C 0.75645 0.55161 0.66358 0.0
H2705 H 0.73802 0.58579 0.62806 0.0
C2706 C 0.74007 0.55339 0.67901 0.0
C2707 C 0.75468 0.5622 0.64436 0.0
C2708 C 0.77042 0.55926 0.62638 0.0
C2709 C 0.72333 0.56726 0.67662 0.0
C2710 C 0.72298 0.57959 0.65828 0.0
C2711 C 0.73827 0.57641 0.64214 0.0
C2712 C 0.70943 0.59811 0.65706 0.0
C2713 C 0.70732 0.56997 0.69447 0.0
C2714 C 0.68631 0.59584 0.65744 0.0
C2715 C 0.6742 0.61395 0.65803 0.0
C2716 C 0.68511 0.63445 0.6582 0.0
C2717 C 0.70818 0.63653 0.65742 0.0
C2718 C 0.72018 0.6186 0.65672 0.0
H2719 H 0.71145 0.56099 0.70858 0.0
H2720 H 0.707 0.58708 0.69884 0.0
H2721 H 0.69054 0.56413 0.68948 0.0
H2722 H 0.67768 0.58015 0.65746 0.0
H2723 H 0.65644 0.61192 0.65884 0.0
H2724 H 0.70962 0.59456 0.9693 0.0
H2725 H 0.69702 0.55975 0.95455 0.0
H2726 H 0.7642 0.54488 0.94499 0.0
H2727 H 0.77705 0.57969 0.95966 0.0
H2728 H 0.70847 0.53868 0.9137 0.0
H2729 H 0.73409 0.49775 0.9853 0.0
H2730 H 0.73016 0.52589 0.98529 0.0
H2731 H 0.75381 0.5162 0.97253 0.0
C2732 C 0.72175 0.58406 0.96377 0.0
C2733 C 0.74435 0.5899 0.96582 0.0
C2734 C 0.71452 0.56418 0.95534 0.0
C2735 C 0.7297 0.5497 0.94895 0.0
C2736 C 0.75224 0.55579 0.95004 0.0
H2737 H 0.67091 0.42942 0.89297 0.0
H2738 H 0.70026 0.45754 0.89995 0.0
C2739 C 0.75952 0.57574 0.95835 0.0
C2740 C 0.72172 0.52784 0.94235 0.0
H2741 H 0.71392 0.47694 0.96041 0.0
C2742 C 0.70997 0.52505 0.92367 0.0
C2743 C 0.72377 0.51018 0.95546 0.0
C2744 C 0.73604 0.51249 0.97584 0.0
C2745 C 0.6993 0.50521 0.91819 0.0
C2746 C 0.70054 0.48772 0.93175 0.0
C2747 C 0.71317 0.49032 0.94997 0.0
C2748 C 0.68589 0.46793 0.92914 0.0
C2749 C 0.68579 0.50344 0.89853 0.0
C2750 C 0.6689 0.46364 0.94383 0.0
C2751 C 0.65229 0.44767 0.93992 0.0
C2752 C 0.65242 0.43551 0.92133 0.0
C2753 C 0.67049 0.43846 0.90751 0.0
C2754 C 0.68711 0.45466 0.91136 0.0
H2755 H 0.68414 0.51918 0.89128 0.0
H2756 H 0.69389 0.49325 0.88698 0.0
H2757 H 0.6691 0.49586 0.90189 0.0
H2758 H 0.66768 0.47361 0.95769 0.0
H2759 H 0.63858 0.44571 0.95086 0.0
H2760 H 0.69389 0.56452 0.21033 0.0
H2761 H 0.72864 0.56357 0.19071 0.0
H2762 H 0.70617 0.50237 0.16441 0.0
H2763 H 0.67176 0.50321 0.18388 0.0
H2764 H 0.75527 0.53281 0.20008 0.0
H2765 H 0.74089 0.52842 0.11549 0.0
H2766 H 0.72171 0.53964 0.13355 0.0
H2767 H 0.72016 0.51132 0.12826 0.0
C2768 C 0.69606 0.55129 0.19969 0.0
C2769 C 0.68023 0.53383 0.19875 0.0
C2770 C 0.71592 0.55077 0.18852 0.0
C2771 C 0.71997 0.53301 0.17593 0.0
C2772 C 0.70331 0.51648 0.17362 0.0
H2773 H 0.7877 0.43515 0.1508 0.0
H2774 H 0.76598 0.46575 0.15448 0.0
C2775 C 0.68368 0.51686 0.18494 0.0
C2776 C 0.74255 0.52915 0.1688 0.0
H2777 H 0.76753 0.50376 0.12878 0.0
C2778 C 0.75849 0.52735 0.18424 0.0
C2779 C 0.74692 0.52233 0.14811 0.0
C2780 C 0.73154 0.52579 0.1304 0.0
C2781 C 0.77714 0.51614 0.18023 0.0
C2782 C 0.77981 0.50668 0.16028 0.0
C2783 C 0.76531 0.51081 0.14417 0.0
C2784 C 0.79397 0.48884 0.15725 0.0
C2785 C 0.7925 0.51247 0.19793 0.0
C2786 C 0.81703 0.49168 0.15772 0.0
C2787 C 0.82964 0.47408 0.15535 0.0
C2788 C 0.81927 0.45344 0.1531 0.0
C2789 C 0.79621 0.45079 0.15282 0.0
C2790 C 0.78374 0.46829 0.15471 0.0
H2791 H 0.78763 0.52037 0.21275 0.0
H2792 H 0.79285 0.49513 0.20073 0.0
H2793 H 0.80943 0.51877 0.19364 0.0
H2794 H 0.82523 0.50741 0.15987 0.0
H2795 H 0.8474 0.47657 0.15547 0.0
H2796 H 0.73521 0.47762 0.46154 0.0
H2797 H 0.73998 0.51509 0.45127 0.0
H2798 H 0.80862 0.50837 0.43825 0.0
H2799 H 0.804 0.47103 0.44837 0.0
H2800 H 0.76711 0.54519 0.47169 0.0
H2801 H 0.79086 0.54239 0.38818 0.0
H2802 H 0.77751 0.51963 0.40145 0.0
H2803 H 0.80683 0.52539 0.40314 0.0
C2804 C 0.7512 0.48399 0.456 0.0
C2805 C 0.76926 0.47136 0.4558 0.0
C2806 C 0.75389 0.50542 0.45018 0.0
C2807 C 0.77458 0.51448 0.44376 0.0
C2808 C 0.79239 0.50163 0.44271 0.0
H2809 H 0.85702 0.61944 0.46247 0.0
H2810 H 0.82738 0.59162 0.46655 0.0
C2811 C 0.78976 0.48029 0.44864 0.0
C2812 C 0.77847 0.53777 0.44053 0.0
H2813 H 0.8056 0.57359 0.40798 0.0
C2814 C 0.77492 0.55155 0.45751 0.0
C2815 C 0.78821 0.54622 0.42192 0.0
C2816 C 0.79084 0.53263 0.40257 0.0
C2817 C 0.78278 0.57311 0.45704 0.0
C2818 C 0.79476 0.58094 0.4393 0.0
C2819 C 0.79648 0.56763 0.42163 0.0
C2820 C 0.80892 0.60118 0.43998 0.0
C2821 C 0.77913 0.58703 0.47596 0.0
C2822 C 0.80806 0.61638 0.42413 0.0
C2823 C 0.82508 0.63248 0.42182 0.0
C2824 C 0.84337 0.63323 0.43507 0.0
C2825 C 0.84315 0.6192 0.45201 0.0
C2826 C 0.8261 0.60333 0.45443 0.0
H2827 H 0.76348 0.58182 0.48411 0.0
H2828 H 0.79268 0.58564 0.48717 0.0
H2829 H 0.77877 0.60402 0.4716 0.0
H2830 H 0.79497 0.61501 0.4128 0.0
H2831 H 0.82488 0.64299 0.40853 0.0
H2832 H 0.79707 0.5471 0.77958 0.0
H2833 H 0.76114 0.54201 0.79726 0.0
H2834 H 0.77621 0.47918 0.81587 0.0
H2835 H 0.81194 0.48418 0.7985 0.0
H2836 H 0.72939 0.51167 0.7859 0.0
H2837 H 0.74823 0.50077 0.86898 0.0
H2838 H 0.76816 0.51306 0.85079 0.0
H2839 H 0.7646 0.48445 0.85293 0.0
C2840 C 0.79291 0.53243 0.7879 0.0
C2841 C 0.80731 0.51601 0.78761 0.0
C2842 C 0.77238 0.52955 0.79798 0.0
C2843 C 0.76609 0.51035 0.80818 0.0
C2844 C 0.78087 0.49435 0.80859 0.0
H2845 H 0.66712 0.41958 0.81117 0.0
H2846 H 0.69205 0.45024 0.80244 0.0
C2847 C 0.80126 0.49715 0.79847 0.0
C2848 C 0.74325 0.50556 0.81594 0.0
H2849 H 0.71502 0.48036 0.85607 0.0
C2850 C 0.72607 0.50548 0.80149 0.0
C2851 C 0.73868 0.49794 0.83641 0.0
C2852 C 0.7559 0.4993 0.85321 0.0
C2853 C 0.70513 0.49579 0.80622 0.0
C2854 C 0.70145 0.48567 0.82573 0.0
C2855 C 0.71787 0.48789 0.84099 0.0
C2856 C 0.68288 0.4694 0.82906 0.0
C2857 C 0.68754 0.49537 0.78981 0.0
C2858 C 0.66907 0.47003 0.8468 0.0
C2859 C 0.65471 0.45233 0.8519 0.0
C2860 C 0.6543 0.43369 0.83948 0.0
C2861 C 0.66713 0.43368 0.82108 0.0
C2862 C 0.68128 0.45132 0.81595 0.0
H2863 H 0.68946 0.50992 0.78008 0.0
H2864 H 0.68911 0.48143 0.77924 0.0
H2865 H 0.67083 0.49412 0.79699 0.0
H2866 H 0.67008 0.48383 0.85712 0.0
H2867 H 0.6451 0.45271 0.86626 0.0
H2868 H 0.74245 0.58812 0.05629 0.0
H2869 H 0.74725 0.55634 0.07722 0.0
H2870 H 0.81417 0.57996 0.08973 0.0
H2871 H 0.80938 0.61144 0.06931 0.0
H2872 H 0.77541 0.52866 0.06451 0.0
H2873 H 0.79891 0.55242 0.14438 0.0
H2874 H 0.78383 0.56922 0.12797 0.0
H2875 H 0.81352 0.57062 0.1269 0.0
C2876 C 0.75785 0.58688 0.06429 0.0
C2877 C 0.77563 0.60213 0.06108 0.0
C2878 C 0.76059 0.5687 0.07617 0.0
C2879 C 0.781 0.5658 0.08525 0.0
C2880 C 0.79808 0.58197 0.0834 0.0
H2881 H 0.88432 0.49777 0.09573 0.0
H2882 H 0.8538 0.52043 0.09605 0.0
C2883 C 0.79542 0.59993 0.07149 0.0
C2884 C 0.78637 0.5447 0.09296 0.0
H2885 H 0.82128 0.52506 0.1276 0.0
C2886 C 0.78455 0.52735 0.07884 0.0
C2887 C 0.79802 0.54284 0.11173 0.0
C2888 C 0.79842 0.55975 0.12867 0.0
C2889 C 0.79657 0.50946 0.08167 0.0
C2890 C 0.81067 0.50905 0.09904 0.0
C2891 C 0.81053 0.52534 0.11425 0.0
C2892 C 0.82862 0.49452 0.09956 0.0
C2893 C 0.79593 0.49228 0.06496 0.0
C2894 C 0.8246 0.47233 0.10127 0.0
C2895 C 0.84219 0.45921 0.10092 0.0
C2896 C 0.86393 0.46819 0.09901 0.0
C2897 C 0.86775 0.49036 0.0972 0.0
C2898 C 0.85032 0.50336 0.09757 0.0
H2899 H 0.78536 0.49587 0.05161 0.0
H2900 H 0.81278 0.49024 0.0589 0.0
H2901 H 0.78942 0.47691 0.07179 0.0
H2902 H 0.80795 0.46519 0.10296 0.0
H2903 H 0.83877 0.44214 0.10198 0.0
H2904 H 0.6808 0.58269 0.29958 0.0
H2905 H 0.71531 0.59226 0.31758 0.0
H2906 H 0.72962 0.52627 0.31768 0.0
H2907 H 0.6951 0.51645 0.29955 0.0
H2908 H 0.73373 0.57714 0.35638 0.0
H2909 H 0.78145 0.55833 0.28439 0.0
H2910 H 0.75237 0.56171 0.28366 0.0
H2911 H 0.76193 0.53805 0.2946 0.0
C2912 C 0.69108 0.57013 0.30368 0.0
C2913 C 0.68525 0.54883 0.29791 0.0
C2914 C 0.71079 0.57563 0.31401 0.0
C2915 C 0.72511 0.56 0.31869 0.0
C2916 C 0.71888 0.53858 0.31397 0.0
H2917 H 0.84538 0.61622 0.38149 0.0
H2918 H 0.81763 0.58712 0.37255 0.0
C2919 C 0.69909 0.53302 0.30369 0.0
C2920 C 0.74713 0.56663 0.32709 0.0
H2921 H 0.80067 0.5764 0.3116 0.0
C2922 C 0.74851 0.57658 0.34685 0.0
C2923 C 0.76631 0.56579 0.31455 0.0
C2924 C 0.76562 0.55551 0.29306 0.0
C2925 C 0.76833 0.58692 0.35387 0.0
C2926 C 0.78725 0.58717 0.3408 0.0
C2927 C 0.78617 0.57602 0.32163 0.0
C2928 C 0.80664 0.6023 0.34475 0.0
C2929 C 0.76853 0.59872 0.37458 0.0
C2930 C 0.81034 0.61985 0.33154 0.0
C2931 C 0.82598 0.63634 0.33658 0.0
C2932 C 0.83843 0.63558 0.35488 0.0
C2933 C 0.83601 0.61721 0.36728 0.0
C2934 C 0.82007 0.60069 0.36231 0.0
H2935 H 0.75183 0.59902 0.38166 0.0
H2936 H 0.779 0.59074 0.38562 0.0
H2937 H 0.77561 0.61538 0.37268 0.0
H2938 H 0.80022 0.62138 0.31789 0.0
H2939 H 0.8276 0.65021 0.32663 0.0
H2940 H 0.71757 0.44704 0.55254 0.0
H2941 H 0.7077 0.47788 0.57319 0.0
H2942 H 0.77505 0.50415 0.57096 0.0
H2943 H 0.78513 0.47331 0.55018 0.0
H2944 H 0.72464 0.49912 0.61202 0.0
H2945 H 0.73887 0.54778 0.53996 0.0
H2946 H 0.73655 0.51904 0.53881 0.0
H2947 H 0.76082 0.533 0.54925 0.0
C2948 C 0.73041 0.4591 0.55684 0.0
C2949 C 0.75208 0.45784 0.54951 0.0
C2950 C 0.72475 0.47672 0.56866 0.0
C2951 C 0.7406 0.49342 0.5733 0.0
C2952 C 0.76255 0.49152 0.56732 0.0
H2953 H 0.68757 0.61686 0.60451 0.0
H2954 H 0.71599 0.59178 0.59843 0.0
C2955 C 0.76827 0.47384 0.55554 0.0
C2956 C 0.73336 0.51352 0.58237 0.0
H2957 H 0.71964 0.56266 0.56762 0.0
C2958 C 0.72396 0.51321 0.60251 0.0
C2959 C 0.73279 0.532 0.57005 0.0
C2960 C 0.74269 0.53314 0.54827 0.0
C2961 C 0.7126 0.53032 0.61008 0.0
C2962 C 0.71023 0.54796 0.59696 0.0
C2963 C 0.72132 0.54907 0.57759 0.0
C2964 C 0.69365 0.5635 0.60144 0.0
C2965 C 0.70247 0.52875 0.63173 0.0
C2966 C 0.67159 0.55598 0.60424 0.0
C2967 C 0.65539 0.57016 0.60715 0.0
C2968 C 0.66082 0.59227 0.60736 0.0
C2969 C 0.68291 0.5999 0.60445 0.0
C2970 C 0.69916 0.5856 0.60118 0.0
H2971 H 0.71376 0.52159 0.64267 0.0
H2972 H 0.69847 0.54446 0.63812 0.0
H2973 H 0.68712 0.51808 0.63111 0.0
H2974 H 0.6668 0.53904 0.60383 0.0
H2975 H 0.63857 0.5637 0.60945 0.0
H2976 H 0.7057 0.85179 0.56166 0.0
H2977 H 0.68462 0.81745 0.55961 0.0
H2978 H 0.70523 0.80989 0.49528 0.0
H2979 H 0.72678 0.84454 0.49729 0.0
H2980 H 0.651 0.7987 0.53281 0.0
H2981 H 0.72945 0.75895 0.52549 0.0
H2982 H 0.72964 0.78678 0.53263 0.0
H2983 H 0.72299 0.77826 0.5064 0.0
C2984 C 0.70548 0.84306 0.54692 0.0
C2985 C 0.71813 0.85077 0.52972 0.0
C2986 C 0.69333 0.82343 0.54574 0.0
C2987 C 0.6936 0.81096 0.52739 0.0
C2988 C 0.70502 0.81916 0.50967 0.0
H2989 H 0.66036 0.67999 0.57082 0.0
H2990 H 0.66569 0.70584 0.54204 0.0
C2991 C 0.71718 0.83901 0.5108 0.0
C2992 C 0.68369 0.7887 0.52827 0.0
H2993 H 0.69907 0.73926 0.5399 0.0
C2994 C 0.66133 0.78546 0.53361 0.0
C2995 C 0.69706 0.77132 0.529 0.0
C2996 C 0.72114 0.77382 0.52312 0.0
C2997 C 0.65269 0.76619 0.54227 0.0
C2998 C 0.66681 0.74978 0.54561 0.0
C2999 C 0.68833 0.75193 0.5375 0.0
C3000 C 0.66169 0.73346 0.56186 0.0
C3001 C 0.62904 0.76455 0.54955 0.0
C3002 C 0.65826 0.74047 0.58247 0.0
C3003 C 0.65593 0.72601 0.59875 0.0
C3004 C 0.65681 0.70408 0.5949 0.0
C3005 C 0.65973 0.69683 0.5742 0.0
C3006 C 0.66258 0.71152 0.55779 0.0
H3007 H 0.6184 0.77007 0.53703 0.0
H3008 H 0.62308 0.74813 0.55394 0.0
H3009 H 0.62727 0.77522 0.56334 0.0
H3010 H 0.65803 0.75731 0.5861 0.0
H3011 H 0.6534 0.73209 0.61447 0.0
H3012 H 0.1761 0.71596 0.51049 0.0
H3013 H 0.15624 0.7468 0.50091 0.0
H3014 H 0.1638 0.73029 0.43556 0.0
H3015 H 0.1825 0.69928 0.44497 0.0
H3016 H 0.17167 0.78014 0.48136 0.0
H3017 H 0.10289 0.74637 0.43421 0.0
H3018 H 0.11838 0.7298 0.45042 0.0
H3019 H 0.12719 0.73579 0.42387 0.0
C3020 C 0.17282 0.71855 0.49413 0.0
C3021 C 0.18085 0.70513 0.47849 0.0
C3022 C 0.16158 0.73625 0.48866 0.0
C3023 C 0.15819 0.7408 0.46749 0.0
C3024 C 0.16548 0.72687 0.45201 0.0
H3025 H 0.17579 0.8532 0.40003 0.0
H3026 H 0.17664 0.82646 0.42718 0.0
C3027 C 0.1764 0.70914 0.45743 0.0
C3028 C 0.14959 0.76122 0.46113 0.0
H3029 H 0.11938 0.7814 0.42272 0.0
C3030 C 0.15979 0.78046 0.4689 0.0
C3031 C 0.13347 0.76194 0.44548 0.0
C3032 C 0.11971 0.74232 0.43827 0.0
C3033 C 0.15586 0.80011 0.46002 0.0
C3034 C 0.14217 0.80043 0.44228 0.0
C3035 C 0.13039 0.78139 0.43591 0.0
C3036 C 0.14127 0.81961 0.4289 0.0
C3037 C 0.16658 0.8202 0.46976 0.0
C3038 C 0.12123 0.82477 0.42041 0.0
C3039 C 0.12088 0.83955 0.40427 0.0
C3040 C 0.14044 0.85016 0.39688 0.0
C3041 C 0.16038 0.84585 0.40604 0.0
C3042 C 0.16083 0.83063 0.42175 0.0
H3043 H 0.16747 0.81862 0.48703 0.0
H3044 H 0.1837 0.82286 0.46374 0.0
H3045 H 0.15751 0.83434 0.46628 0.0
H3046 H 0.10597 0.8162 0.42518 0.0
H3047 H 0.10559 0.84103 0.39628 0.0
H3048 H 0.54324 0.00255 0.78683 0.0
H3049 H 0.50794 0.98432 0.77621 0.0
H3050 H 0.53733 0.9659 0.71766 0.0
H3051 H 0.57232 0.98431 0.72791 0.0
H3052 H 0.48745 -0.00289 0.73711 0.0
H3053 H 0.49992 0.91091 0.73816 0.0
H3054 H 0.51463 0.9302 0.75514 0.0
H3055 H 0.52317 0.92719 0.72829 0.0
C3056 C 0.54223 -0.00578 0.77189 0.0
C3057 C 0.56043 -0.0051 0.75811 0.0
C3058 C 0.52212 0.98382 0.76589 0.0
C3059 C 0.52019 0.97354 0.74631 0.0
C3060 C 0.53863 0.97341 0.733 0.0
H3061 H 0.45417 0.93252 0.6427 0.0
H3062 H 0.47629 0.94061 0.6737 0.0
C3063 C 0.55854 0.98408 0.7388 0.0
C3064 C 0.49854 0.96553 0.73812 0.0
H3065 H 0.47376 0.92199 0.71337 0.0
C3066 C 0.48395 0.98057 0.73247 0.0
C3067 C 0.49407 0.94394 0.73228 0.0
C3068 C 0.50866 0.92705 0.73895 0.0
C3069 C 0.46628 0.975 0.7191 0.0
C3070 C 0.46306 0.95375 0.71161 0.0
C3071 C 0.47638 0.93831 0.71901 0.0
C3072 C 0.44882 0.94808 0.69349 0.0
C3073 C 0.4525 -0.00776 0.7116 0.0
C3074 C 0.426 0.9496 0.69434 0.0
C3075 C 0.41318 0.94455 0.67666 0.0
C3076 C 0.4232 0.93866 0.65776 0.0
C3077 C 0.44605 0.93728 0.65699 0.0
C3078 C 0.45868 0.94173 0.67473 0.0
H3079 H 0.45903 0.00838 0.71685 0.0
H3080 H 0.4517 -0.008 0.69424 0.0
H3081 H 0.4355 0.98935 0.71784 0.0
H3082 H 0.41811 0.95465 0.70862 0.0
H3083 H 0.39557 0.94567 0.67763 0.0
H3084 H 0.32488 0.35538 0.03545 0.0
H3085 H 0.33829 0.32405 0.01794 0.0
H3086 H 0.33414 0.3546 0.95819 0.0
H3087 H 0.32021 0.38569 0.9755 0.0
H3088 H 0.3099 0.31727 0.95972 0.0
H3089 H 0.39359 0.30604 0.9885 0.0
H3090 H 0.37361 0.309 0.00897 0.0
H3091 H 0.38088 0.33088 -0.00823 0.0
C3092 C 0.32746 0.35569 0.01864 0.0
C3093 C 0.32125 0.37295 0.00683 0.0
C3094 C 0.33524 0.33777 0.00865 0.0
C3095 C 0.33728 0.33696 0.98674 0.0
C3096 C 0.33268 0.35485 0.97512 0.0
H3097 H 0.37587 0.23998 0.89994 0.0
H3098 H 0.37641 0.26984 0.92508 0.0
C3099 C 0.3247 0.37263 0.98504 0.0
C3100 C 0.34074 0.31657 0.97564 0.0
H3101 H 0.37571 0.27705 0.96934 0.0
C3102 C 0.32433 0.30851 0.96184 0.0
C3103 C 0.35956 0.30513 0.9784 0.0
C3104 C 0.37803 0.31327 -0.00743 0.0
C3105 C 0.32614 0.28944 0.95067 0.0
C3106 C 0.34466 0.27768 0.95376 0.0
C3107 C 0.36127 0.28579 0.96739 0.0
C3108 C 0.34725 0.25757 0.94193 0.0
C3109 C 0.3084 0.28238 0.93521 0.0
C3110 C 0.33133 0.24029 0.94375 0.0
C3111 C 0.3309 0.22339 0.92929 0.0
C3112 C 0.34679 0.22325 0.91328 0.0
C3113 C 0.36373 0.23963 0.91248 0.0
C3114 C 0.364 0.25669 0.92676 0.0
H3115 H 0.29837 0.29565 0.93099 0.0
H3116 H 0.3156 0.27594 0.92062 0.0
H3117 H 0.29723 0.26961 0.94228 0.0
H3118 H 0.31841 0.24056 0.95551 0.0
H3119 H 0.31747 0.21109 0.92988 0.0
H3120 H 0.43104 0.56588 0.71057 0.0
H3121 H 0.46742 0.58459 0.70957 0.0
H3122 H 0.4712 0.5813 0.77684 0.0
H3123 H 0.43444 0.5622 0.77797 0.0
H3124 H 0.48688 0.62233 0.72922 0.0
H3125 H 0.52355 0.54857 0.75478 0.0
H3126 H 0.49538 0.54784 0.74636 0.0
H3127 H 0.50306 0.55986 0.77109 0.0
C3128 C 0.43938 0.56944 0.72523 0.0
C3129 C 0.42997 0.56235 0.74432 0.0
C3130 C 0.46018 0.58021 0.72464 0.0
C3131 C 0.47215 0.58407 0.74309 0.0
C3132 C 0.46232 0.57824 0.7624 0.0
H3133 H 0.59803 0.64004 0.69175 0.0
H3134 H 0.57239 0.63468 0.72158 0.0
C3135 C 0.44128 0.5675 0.76302 0.0
C3136 C 0.49549 0.59238 0.7412 0.0
H3137 H 0.54651 0.57391 0.73698 0.0
C3138 C 0.50016 0.61213 0.73155 0.0
C3139 C 0.51272 0.579 0.74436 0.0
C3140 C 0.50861 0.55759 0.75466 0.0
C3141 C 0.52101 0.61783 0.72289 0.0
C3142 C 0.53771 0.60351 0.72425 0.0
C3143 C 0.53368 0.58484 0.73596 0.0
C3144 C 0.55685 0.60495 0.70959 0.0
C3145 C 0.52426 0.63809 0.71051 0.0
C3146 C 0.55764 0.58937 0.69375 0.0
C3147 C 0.57223 0.59232 0.67693 0.0
C3148 C 0.58649 0.61087 0.6756 0.0
C3149 C 0.58724 0.62556 0.69242 0.0
C3150 C 0.57245 0.62262 0.70934 0.0
H3151 H 0.50908 0.64672 0.70982 0.0
H3152 H 0.53727 0.64882 0.71788 0.0
H3153 H 0.52966 0.63453 0.69426 0.0
H3154 H 0.54584 0.57558 0.6936 0.0
H3155 H 0.5714 0.58067 0.66427 0.0
H3156 H 0.785 0.22066 0.04326 0.0
H3157 H 0.80035 0.25705 0.04948 0.0
H3158 H 0.79857 0.26957 0.98329 0.0
H3159 H 0.78272 0.23306 0.97691 0.0
H3160 H 0.83818 0.27961 0.03436 0.0
H3161 H 0.76228 0.31573 0.00932 0.0
H3162 H 0.76266 0.28756 0.01406 0.0
H3163 H 0.77531 0.29885 0.99081 0.0
C3164 C 0.78804 0.23105 0.02997 0.0
C3165 C 0.78248 0.22404 0.00962 0.0
C3166 C 0.79685 0.25185 0.03354 0.0
C3167 C 0.8003 0.26609 0.01688 0.0
C3168 C 0.79567 0.25893 -0.00361 0.0
H3169 H 0.85876 0.38679 0.07054 0.0
H3170 H 0.85156 0.36176 0.04119 0.0
C3171 C 0.78676 0.23805 -0.00722 0.0
C3172 C 0.80785 0.28855 0.02157 0.0
H3173 H 0.7888 0.33796 0.0268 0.0
C3174 C 0.82771 0.29257 0.03224 0.0
C3175 C 0.79404 0.30533 0.01878 0.0
C3176 C 0.77231 0.30178 0.00773 0.0
C3177 C 0.83331 0.31242 0.04172 0.0
C3178 C 0.8189 0.32886 0.04 0.0
C3179 C 0.79988 0.32536 0.0279 0.0
C3180 C 0.82093 0.34771 0.05417 0.0
C3181 C 0.85348 0.31493 0.05522 0.0
C3182 C 0.80532 0.34915 0.07031 0.0
C3183 C 0.80924 0.36348 0.08688 0.0
C3184 C 0.82887 0.37669 0.08762 0.0
C3185 C 0.84349 0.37679 0.0704 0.0
C3186 C 0.8395 0.36237 0.05373 0.0
H3187 H 0.86237 0.3002 0.05566 0.0
H3188 H 0.8649 0.32796 0.04909 0.0
H3189 H 0.84883 0.31933 0.07148 0.0
H3190 H 0.79081 0.33808 0.07091 0.0
H3191 H 0.79754 0.36322 0.09979 0.0
H3192 H 0.58376 0.08871 0.82281 0.0
H3193 H 0.55164 0.10704 0.83387 0.0
H3194 H 0.53526 0.11638 0.76935 0.0
H3195 H 0.56746 0.09802 0.75804 0.0
H3196 H 0.52866 0.15287 0.80189 0.0
H3197 H 0.48952 0.0726 0.82044 0.0
H3198 H 0.51673 0.07833 0.83062 0.0
H3199 H 0.5128 0.07659 0.8028 0.0
C3200 C 0.5737 0.09513 0.81094 0.0
C3201 C 0.57806 0.0917 0.78954 0.0
C3202 C 0.55531 0.10556 0.81729 0.0
C3203 C 0.54097 0.11276 0.80241 0.0
C3204 C 0.54614 0.11086 0.78105 0.0
H3205 H 0.41053 0.12565 0.85574 0.0
H3206 H 0.43728 0.12098 0.82723 0.0
C3207 C 0.56457 0.1004 0.77464 0.0
C3208 C 0.51955 0.12011 0.80933 0.0
H3209 H 0.47204 0.10222 0.83408 0.0
C3210 C 0.51607 0.14184 0.80866 0.0
C3211 C 0.50298 0.10559 0.81764 0.0
C3212 C 0.50551 0.08193 0.8178 0.0
C3213 C 0.49693 0.14962 0.8174 0.0
C3214 C 0.48104 0.13526 0.82724 0.0
C3215 C 0.48404 0.11334 0.82658 0.0
C3216 C 0.46293 0.14244 0.84081 0.0
C3217 C 0.49436 0.17321 0.81631 0.0
C3218 C 0.46802 0.15669 0.85745 0.0
C3219 C 0.45269 0.15956 0.87341 0.0
C3220 C 0.43202 0.14817 0.87316 0.0
C3221 C 0.42624 0.13493 0.85597 0.0
C3222 C 0.44158 0.13218 0.83981 0.0
H3223 H 0.50451 0.18156 0.82865 0.0
H3224 H 0.50044 0.17957 0.80098 0.0
H3225 H 0.47708 0.17704 0.81856 0.0
H3226 H 0.48445 0.16431 0.85908 0.0
H3227 H 0.45762 0.16946 0.88681 0.0
H3228 H 0.90698 0.96347 0.28686 0.0
H3229 H 0.93664 0.94203 0.29703 0.0
H3230 H 0.95993 0.94056 0.23306 0.0
H3231 H 0.93021 0.96218 0.22264 0.0
H3232 H 0.95074 0.90081 0.28153 0.0
H3233 H 0.01217 0.96971 0.26764 0.0
H3234 H 0.98316 0.97333 0.26968 0.0
H3235 H -0.00609 0.96062 0.24689 0.0
C3236 C 0.91816 0.95834 0.27485 0.0
C3237 C 0.91632 0.96474 0.25397 0.0
C3238 C 0.93509 0.94603 0.28069 0.0
C3239 C 0.95062 0.93995 0.26584 0.0
C3240 C 0.94822 0.9453 0.24478 0.0
H3241 H 0.07195 0.914 0.32949 0.0
H3242 H 0.04852 0.91217 0.29813 0.0
C3243 C 0.93116 0.95756 0.23886 0.0
C3244 C 0.97006 0.92957 0.27316 0.0
H3245 H 0.02287 0.94221 0.28845 0.0
C3246 C 0.96673 0.90958 0.28258 0.0
C3247 C 0.991 0.94083 0.27416 0.0
C3248 C -0.00454 0.96235 0.26414 0.0
C3249 C 0.98313 0.90145 0.29466 0.0
C3250 C 0.00329 0.91384 0.29767 0.0
C3251 C 0.00743 0.93272 0.2863 0.0
C3252 C 0.01779 0.9103 0.31565 0.0
C3253 C 0.97798 0.88021 0.30499 0.0
C3254 C 0.0084 0.90949 0.3358 0.0
C3255 C 0.02159 0.91051 0.35341 0.0
C3256 C 0.04457 0.91254 0.35144 0.0
C3257 C 0.05424 0.91229 0.33137 0.0
C3258 C 0.04087 0.9113 0.31352 0.0
H3259 H 0.97061 0.86848 0.29345 0.0
H3260 H 0.99265 0.87377 0.31178 0.0
H3261 H 0.96557 0.88197 0.31763 0.0
H3262 H 0.99076 0.90939 0.33802 0.0
H3263 H 0.0137 0.91068 0.3687 0.0
H3264 H 0.4544 0.32117 0.20415 0.0
H3265 H 0.44824 0.33885 0.23776 0.0
H3266 H 0.5179 0.35476 0.2436 0.0
H3267 H 0.52426 0.33734 0.20961 0.0
H3268 H 0.49167 0.33091 0.27963 0.0
H3269 H 0.4591 0.40593 0.25342 0.0
H3270 H 0.44878 0.38236 0.23934 0.0
H3271 H 0.47746 0.3911 0.23747 0.0
C3272 C 0.46841 0.32865 0.21242 0.0
C3273 C 0.4898 0.3279 0.20425 0.0
C3274 C 0.46485 0.33878 0.23158 0.0
C3275 C 0.48262 0.34816 0.24302 0.0
C3276 C 0.50401 0.3477 0.23487 0.0
H3277 H 0.42775 0.40907 0.35314 0.0
H3278 H 0.45885 0.4021 0.32998 0.0
C3279 C 0.50757 0.33781 0.21548 0.0
C3280 C 0.47846 0.35717 0.26404 0.0
H3281 H 0.44856 0.39417 0.28796 0.0
C3282 C 0.48283 0.34512 0.28163 0.0
C3283 C 0.46725 0.37582 0.26658 0.0
C3284 C 0.463 0.38971 0.24823 0.0
C3285 C 0.4744 0.3502 0.30147 0.0
C3286 C 0.46121 0.36761 0.30359 0.0
C3287 C 0.4587 0.38082 0.28636 0.0
C3288 C 0.44641 0.36998 0.32188 0.0
C3289 C 0.47865 0.33622 0.31974 0.0
C3290 C 0.42964 0.35391 0.32567 0.0
C3291 C 0.41191 0.35786 0.33872 0.0
C3292 C 0.41068 0.37793 0.3483 0.0
C3293 C 0.42844 0.39338 0.34611 0.0
C3294 C 0.44612 0.38948 0.33279 0.0
H3295 H 0.49465 0.32906 0.31782 0.0
H3296 H 0.47862 0.34529 0.33477 0.0
H3297 H 0.46555 0.32298 0.32054 0.0
H3298 H 0.42927 0.3389 0.31714 0.0
H3299 H 0.39839 0.34572 0.34012 0.0
H3300 H 0.47016 0.77244 0.90963 0.0
H3301 H 0.4604 0.75801 0.94418 0.0
H3302 H 0.432 0.8164 0.96156 0.0
H3303 H 0.44142 0.83092 0.92704 0.0
H3304 H 0.4782 0.78052 0.98119 0.0
H3305 H 0.38662 0.7691 0.9841 0.0
H3306 H 0.40174 0.76835 0.9596 0.0
H3307 H 0.39942 0.79322 0.97308 0.0
C3308 C 0.4613 0.78201 0.92056 0.0
C3309 C 0.45673 0.80289 0.91558 0.0
C3310 C 0.4558 0.77377 0.94032 0.0
C3311 C 0.44547 0.78615 0.95538 0.0
C3312 C 0.43972 0.8065 0.95008 0.0
H3313 H 0.4163 0.74291 0.08474 0.0
H3314 H 0.42201 0.7681 0.05578 0.0
C3315 C 0.44522 0.81478 0.93033 0.0
C3316 C 0.44309 0.77862 0.9772 0.0
H3317 H 0.40574 0.75893 0.01362 0.0
C3318 C 0.46234 0.77602 0.98838 0.0
C3319 C 0.42238 0.77331 0.98671 0.0
C3320 C 0.40127 0.77601 0.97534 0.0
C3321 C 0.46147 0.76725 0.00844 0.0
C3322 C 0.44084 0.7605 0.01736 0.0
C3323 C 0.42152 0.76424 0.00674 0.0
C3324 C 0.43918 0.74663 0.03592 0.0
C3325 C 0.4827 0.7647 0.01969 0.0
C3326 C 0.44734 0.72647 0.03446 0.0
C3327 C 0.4441 0.71213 0.05081 0.0
C3328 C 0.43242 0.71752 0.06901 0.0
C3329 C 0.4251 0.73814 0.07086 0.0
C3330 C 0.42828 0.75253 0.05433 0.0
H3331 H 0.49592 0.77661 0.01436 0.0
H3332 H 0.48054 0.76637 0.03691 0.0
H3333 H 0.48817 0.74861 0.01622 0.0
H3334 H 0.45556 0.7215 0.0203 0.0
H3335 H 0.45012 0.69649 0.04878 0.0
H3336 H 0.03643 0.73395 0.6814 0.0
H3337 H 0.04143 0.71167 0.71176 0.0
H3338 H 0.97213 0.71063 0.72607 0.0
H3339 H 0.96693 0.73276 0.69548 0.0
H3340 H -8e-05 0.72721 0.75836 0.0
H3341 H 0.02537 0.64937 0.73035 0.0
H3342 H 0.03958 0.67117 0.71664 0.0
H3343 H 0.01024 0.66647 0.71425 0.0
C3344 C 0.02213 0.72843 0.6906 0.0
C3345 C 0.00131 0.73519 0.68608 0.0
C3346 C 0.02498 0.71558 0.7079 0.0
C3347 C 0.00712 0.70935 0.7211 0.0
C3348 C 0.98609 0.71509 0.71597 0.0
H3349 H 0.05814 0.6508 0.83385 0.0
H3350 H 0.02879 0.65703 0.80909 0.0
C3351 C 0.98316 0.72771 0.69847 0.0
C3352 C 0.01132 0.70006 0.74178 0.0
H3353 H 0.03966 0.66177 0.76418 0.0
C3354 C 0.008 0.71254 0.75975 0.0
C3355 C 0.02152 0.68078 0.7437 0.0
C3356 C 0.02418 0.66605 0.72522 0.0
C3357 C 0.01667 0.70739 0.77913 0.0
C3358 C 0.02904 0.6894 0.78049 0.0
C3359 C 0.03035 0.6757 0.76307 0.0
C3360 C 0.04418 0.68699 0.7981 0.0
C3361 C 0.01375 0.72197 0.79769 0.0
C3362 C 0.06211 0.7021 0.80055 0.0
C3363 C 0.07879 0.6986 0.81449 0.0
C3364 C 0.07791 0.6799 0.82636 0.0
C3365 C 0.05922 0.6654 0.82497 0.0
C3366 C 0.04255 0.66882 0.81073 0.0
H3367 H -0.00142 0.73051 0.79631 0.0
H3368 H 0.01299 0.71296 0.81257 0.0
H3369 H 0.02796 0.73408 0.79841 0.0
H3370 H 0.06382 0.71612 0.7908 0.0
H3371 H 0.09292 0.71012 0.81527 0.0
H3372 H 0.04784 0.35999 0.41467 0.0
H3373 H 0.06838 0.35978 0.447 0.0
H3374 H 0.08168 0.29433 0.43537 0.0
H3375 H 0.06062 0.29424 0.40299 0.0
H3376 H 0.06329 0.29887 0.47293 0.0
H3377 H 0.13095 0.36131 0.46526 0.0
H3378 H 0.10588 0.37186 0.45757 0.0
H3379 H 0.1163 0.35012 0.44278 0.0
C3380 C 0.05563 0.3457 0.41861 0.0
C3381 C 0.05237 0.32708 0.40631 0.0
C3382 C 0.06757 0.34566 0.43709 0.0
C3383 C 0.07677 0.32709 0.44357 0.0
C3384 C 0.0748 0.30886 0.43063 0.0
H3385 H 0.12716 0.35828 0.56772 0.0
H3386 H 0.12745 0.33918 0.53421 0.0
C3387 C 0.06281 0.30888 0.41208 0.0
C3388 C 0.08539 0.32613 0.46513 0.0
H3389 H 0.11519 0.35662 0.50068 0.0
C3390 C 0.07514 0.31112 0.47892 0.0
C3391 C 0.10125 0.34168 0.47296 0.0
C3392 C 0.11438 0.35696 0.45875 0.0
C3393 C 0.07866 0.31266 0.50059 0.0
C3394 C 0.09234 0.32994 0.50865 0.0
C3395 C 0.10432 0.34357 0.49464 0.0
C3396 C 0.0921 0.33613 0.53116 0.0
C3397 C 0.06705 0.29621 0.51464 0.0
C3398 C 0.07209 0.34025 0.54096 0.0
C3399 C 0.0719 0.35093 0.56025 0.0
C3400 C 0.0917 0.35767 0.57009 0.0
C3401 C 0.11164 0.35238 0.56097 0.0
C3402 C 0.11183 0.34168 0.54167 0.0
H3403 H 0.06533 0.28039 0.50666 0.0
H3404 H 0.07593 0.29467 0.52955 0.0
H3405 H 0.05024 0.30088 0.51827 0.0
H3406 H 0.05665 0.33681 0.53295 0.0
H3407 H 0.05636 0.3553 0.56673 0.0
H3408 H 0.52656 0.73553 0.33786 0.0
H3409 H 0.52546 0.7249 0.3008 0.0
H3410 H 0.45521 0.72846 0.30107 0.0
H3411 H 0.45613 0.73926 0.33795 0.0
H3412 H 0.47518 0.69187 0.27637 0.0
H3413 H 0.50947 0.77462 0.25898 0.0
H3414 H 0.52258 0.75906 0.278 0.0
H3415 H 0.4961 0.76832 0.28375 0.0
C3416 C 0.51077 0.73333 0.33024 0.0
C3417 C 0.49142 0.73838 0.34081 0.0
C3418 C 0.51023 0.72741 0.30903 0.0
C3419 C 0.4903 0.72621 0.29822 0.0
C3420 C 0.47076 0.72939 0.30918 0.0
H3421 H 0.42451 0.74795 0.19282 0.0
H3422 H 0.44859 0.7495 0.22281 0.0
C3423 C 0.4713 0.73552 0.33027 0.0
C3424 C 0.48971 0.72403 0.27514 0.0
H3425 H 0.49363 0.75443 0.23117 0.0
C3426 C 0.47973 0.70528 0.2663 0.0
C3427 C 0.49576 0.74162 0.26218 0.0
C3428 C 0.50656 0.76213 0.27106 0.0
C3429 C 0.47418 0.70416 0.24501 0.0
C3430 C 0.47876 0.72232 0.23233 0.0
C3431 C 0.4902 0.74053 0.2409 0.0
C3432 C 0.46796 0.72417 0.2118 0.0
C3433 C 0.46213 0.68405 0.23664 0.0
C3434 C 0.47179 0.71042 0.1949 0.0
C3435 C 0.45811 0.70969 0.17734 0.0
C3436 C 0.44 0.72218 0.17688 0.0
C3437 C 0.43786 0.73756 0.19285 0.0
C3438 C 0.45168 0.73853 0.21008 0.0
H3439 H 0.45723 0.67257 0.24923 0.0
H3440 H 0.44715 0.68778 0.22814 0.0
H3441 H 0.47304 0.67619 0.22546 0.0
H3442 H 0.48455 0.69953 0.19587 0.0
H3443 H 0.46084 0.69846 0.16483 0.0
H3444 H 0.0567 0.75281 0.06612 0.0
H3445 H 0.07634 0.73851 0.03599 0.0
H3446 H 0.02934 0.68371 0.03411 0.0
H3447 H 0.00991 0.69764 0.06426 0.0
H3448 H 0.07255 0.67368 0.02667 0.0
H3449 H 0.05026 0.74075 0.97709 0.0
H3450 H 0.0655 0.74774 0.00042 0.0
H3451 H 0.03794 0.73568 0.00254 0.0
C3452 C 0.05081 0.73751 0.05953 0.0
C3453 C 0.03162 0.72645 0.06746 0.0
C3454 C 0.06195 0.72946 0.04221 0.0
C3455 C 0.05402 0.71028 0.03255 0.0
C3456 C 0.03567 0.69861 0.04125 0.0
H3457 H 0.04628 0.6517 0.91444 0.0
H3458 H 0.04418 0.67443 0.94575 0.0
C3459 C 0.02457 0.70661 0.05851 0.0
C3460 C 0.06374 0.70268 0.01269 0.0
H3461 H 0.06733 0.71299 0.96028 0.0
C3462 C 0.07179 0.6824 0.01219 0.0
C3463 C 0.06255 0.7141 -0.00619 0.0
C3464 C 0.05348 0.73572 -0.00669 0.0
C3465 C 0.07773 0.67278 -0.00678 0.0
C3466 C 0.07589 0.68392 0.97428 0.0
C3467 C 0.06881 0.70459 0.97486 0.0
C3468 C 0.07846 0.67326 0.95367 0.0
C3469 C 0.08466 0.65027 -0.00651 0.0
C3470 C 0.09859 0.66572 0.94736 0.0
C3471 C 0.09982 0.65297 0.92933 0.0
C3472 C 0.08098 0.64775 0.91737 0.0
C3473 C 0.0611 0.65601 0.92319 0.0
C3474 C 0.0599 0.66889 0.94108 0.0
H3475 H 0.08179 0.64274 0.00902 0.0
H3476 H 0.07558 0.64025 0.98151 0.0
H3477 H 0.10246 0.65043 0.98969 0.0
H3478 H 0.11313 0.66904 0.95678 0.0
H3479 H 0.11515 0.64616 0.92548 0.0
H3480 H 0.00694 0.34803 0.84227 0.0
H3481 H 0.02063 0.35788 0.80732 0.0
H3482 H 0.06579 0.30859 0.80914 0.0
H3483 H 0.05216 0.29848 0.8441 0.0
H3484 H 0.06427 0.36926 0.79043 0.0
H3485 H 0.02558 0.2934 0.75763 0.0
H3486 H 0.01864 0.30345 0.78329 0.0
H3487 H 0.04365 0.2906 0.77929 0.0
C3488 C 0.02011 0.33954 0.83545 0.0
C3489 C 0.02829 0.3223 0.84591 0.0
C3490 C 0.02785 0.34517 0.81545 0.0
C3491 C 0.0438 0.33361 0.80551 0.0
C3492 C 0.05314 0.31741 0.81645 0.0
H3493 H 0.10914 0.33072 0.68684 0.0
H3494 H 0.09039 0.32246 0.72015 0.0
C3495 C 0.04549 0.31182 0.83652 0.0
C3496 C 0.04984 0.33779 0.78335 0.0
H3497 H 0.04788 0.31509 0.73449 0.0
C3498 C 0.06061 0.35752 0.77814 0.0
C3499 C 0.0448 0.32244 0.7674 0.0
C3500 C 0.03236 0.30133 0.77206 0.0
C3501 C 0.06731 0.36203 0.75745 0.0
C3502 C 0.06259 0.34653 0.7415 0.0
C3503 C 0.05139 0.32696 0.7467 0.0
C3504 C 0.07078 0.34967 0.71972 0.0
C3505 C 0.08014 0.38301 0.75304 0.0
C3506 C 0.06514 0.36708 0.70791 0.0
C3507 C 0.07596 0.37185 0.68891 0.0
C3508 C 0.09217 0.35905 0.68125 0.0
C3509 C 0.09653 0.34072 0.69231 0.0
C3510 C 0.08587 0.33604 0.71135 0.0
H3511 H 0.08668 0.39086 0.7676 0.0
H3512 H 0.09412 0.38076 0.74216 0.0
H3513 H 0.06919 0.39393 0.74561 0.0
H3514 H 0.05328 0.37763 0.71391 0.0
H3515 H 0.07305 0.38653 0.68122 0.0
H3516 H 0.48666 0.32048 0.55182 0.0
H3517 H 0.46937 0.33809 0.5232 0.0
H3518 H 0.40721 0.30402 0.53813 0.0
H3519 H 0.42458 0.28583 0.5666 0.0
H3520 H 0.41543 0.30756 0.49451 0.0
H3521 H 0.42898 0.38547 0.53556 0.0
H3522 H 0.4539 0.3725 0.53165 0.0
H3523 H 0.43245 0.36055 0.54827 0.0
C3524 C 0.46933 0.31666 0.54899 0.0
C3525 C 0.4569 0.30201 0.56165 0.0
C3526 C 0.45947 0.32673 0.53263 0.0
C3527 C 0.43693 0.32265 0.52881 0.0
C3528 C 0.42461 0.30745 0.5409 0.0
H3529 H 0.37469 0.41884 0.46165 0.0
H3530 H 0.37996 0.39015 0.48603 0.0
C3531 C 0.43454 0.29716 0.55719 0.0
C3532 C 0.42617 0.33522 0.51298 0.0
H3533 H 0.41865 0.38638 0.49989 0.0
C3534 C 0.41587 0.32479 0.49572 0.0
C3535 C 0.42641 0.35763 0.51482 0.0
C3536 C 0.43582 0.36969 0.53368 0.0
C3537 C 0.40647 0.33634 0.47983 0.0
C3538 C 0.40779 0.35887 0.48117 0.0
C3539 C 0.4176 0.36912 0.49876 0.0
C3540 C 0.39979 0.37259 0.46457 0.0
C3541 C 0.39522 0.32426 0.46192 0.0
C3542 C 0.40813 0.3717 0.44394 0.0
C3543 C 0.40453 0.38787 0.42976 0.0
C3544 C 0.393 0.40525 0.43626 0.0
C3545 C 0.38358 0.40547 0.45637 0.0
C3546 C 0.38664 0.38913 0.47028 0.0
H3547 H 0.40744 0.32203 0.44922 0.0
H3548 H 0.38839 0.3082 0.46688 0.0
H3549 H 0.38173 0.33294 0.45546 0.0
H3550 H 0.41869 0.3594 0.43925 0.0
H3551 H 0.41219 0.38766 0.41437 0.0
H3552 H 0.17152 0.4885 0.30732 0.0
H3553 H 0.20315 0.47882 0.32699 0.0
H3554 H 0.22391 0.54529 0.33645 0.0
H3555 H 0.19191 0.55516 0.3168 0.0
H3556 H 0.25587 0.52111 0.31723 0.0
H3557 H 0.22297 0.48127 0.38832 0.0
H3558 H 0.20674 0.47242 0.36618 0.0
H3559 H 0.20789 0.50005 0.37422 0.0
C3560 C 0.18245 0.50108 0.31408 0.0
C3561 C 0.17926 0.52256 0.31049 0.0
C3562 C 0.20047 0.49554 0.32545 0.0
C3563 C 0.21577 0.51135 0.33335 0.0
C3564 C 0.21216 0.53288 0.33065 0.0
H3565 H 0.34258 0.45446 0.35426 0.0
H3566 H 0.31827 0.48398 0.3555 0.0
C3567 C 0.19385 0.53846 0.31949 0.0
C3568 C 0.23679 0.50483 0.34158 0.0
H3569 H 0.25457 0.46547 0.37146 0.0
C3570 C 0.25604 0.50962 0.32974 0.0
C3571 C 0.23704 0.49016 0.35807 0.0
C3572 C 0.21757 0.48587 0.37257 0.0
C3573 C 0.27462 0.49804 0.33223 0.0
C3574 C 0.27373 0.48138 0.34691 0.0
C3575 C 0.25532 0.47827 0.36024 0.0
C3576 C 0.28927 0.46443 0.34594 0.0
C3577 C 0.29416 0.50224 0.31777 0.0
C3578 C 0.28109 0.44386 0.34 0.0
C3579 C 0.29473 0.42718 0.33949 0.0
C3580 C 0.31692 0.43057 0.34507 0.0
C3581 C 0.32542 0.45131 0.35039 0.0
C3582 C 0.31163 0.46819 0.35088 0.0
H3583 H 0.29155 0.51479 0.30618 0.0
H3584 H 0.30886 0.50745 0.32712 0.0
H3585 H 0.29767 0.4874 0.30921 0.0
H3586 H 0.26395 0.44064 0.3359 0.0
H3587 H 0.28766 0.41141 0.33523 0.0
H3588 H 0.26749 0.4766 0.07626 0.0
H3589 H 0.27162 0.51396 0.08813 0.0
H3590 H 0.31749 0.52862 0.03753 0.0
H3591 H 0.3136 0.49151 0.02566 0.0
H3592 H 0.31203 0.539 0.09923 0.0
H3593 H 0.27023 0.5728 0.03232 0.0
H3594 H 0.26645 0.54496 0.03914 0.0
H3595 H 0.29038 0.55485 0.0245 0.0
C3596 C 0.27854 0.48778 0.06775 0.0
C3597 C 0.2902 0.4811 0.05 0.0
C3598 C 0.28079 0.5091 0.0745 0.0
C3599 C 0.29447 0.5241 0.06342 0.0
C3600 C 0.30647 0.51737 0.04602 0.0
H3601 H 0.36767 0.6358 0.0576 0.0
H3602 H 0.33983 0.6066 0.05195 0.0
C3603 C 0.30439 0.4961 0.03937 0.0
C3604 C 0.29711 0.54673 0.07027 0.0
H3605 H 0.29527 0.59709 0.05155 0.0
C3606 C 0.30788 0.55181 0.08914 0.0
C3607 C 0.29141 0.56331 0.05715 0.0
C3608 C 0.27877 0.55875 0.03723 0.0
C3609 C 0.31507 0.57297 0.09427 0.0
C3610 C 0.31092 0.58948 0.08027 0.0
C3611 C 0.29845 0.58448 0.06227 0.0
C3612 C 0.32321 0.61076 0.0817 0.0
C3613 C 0.32865 0.57719 0.11371 0.0
C3614 C 0.32211 0.62394 0.09958 0.0
C3615 C 0.33816 0.64082 0.10284 0.0
C3616 C 0.35536 0.64459 0.08821 0.0
C3617 C 0.35468 0.6331 0.0692 0.0
C3618 C 0.33875 0.61636 0.06598 0.0
H3619 H 0.33266 0.56224 0.12137 0.0
H3620 H 0.34428 0.58663 0.10986 0.0
H3621 H 0.31938 0.5865 0.12517 0.0
H3622 H 0.30985 0.62025 0.11163 0.0
H3623 H 0.3383 0.64949 0.11761 0.0
H3624 H 0.31073 0.51411 0.82697 0.0
H3625 H 0.27681 0.52545 0.84315 0.0
H3626 H 0.2941 0.58985 0.82336 0.0
H3627 H 0.32784 0.57871 0.80701 0.0
H3628 H 0.27338 0.58142 0.86818 0.0
H3629 H 0.22797 0.54446 0.79989 0.0
H3630 H 0.24721 0.52979 0.81395 0.0
H3631 H 0.25713 0.55174 0.79794 0.0
C3632 C 0.30762 0.53081 0.82657 0.0
C3633 C 0.3219 0.54552 0.81558 0.0
C3634 C 0.28819 0.5372 0.83574 0.0
C3635 C 0.28293 0.5584 0.83423 0.0
C3636 C 0.29792 0.57339 0.82464 0.0
H3637 H 0.20493 0.65627 0.83985 0.0
H3638 H 0.23102 0.62946 0.84363 0.0
C3639 C 0.31719 0.567 0.81532 0.0
C3640 C 0.26102 0.56492 0.84053 0.0
H3641 H 0.21042 0.56985 0.8198 0.0
C3642 C 0.25937 0.57845 0.85796 0.0
C3643 C 0.24266 0.56068 0.8274 0.0
C3644 C 0.24361 0.54588 0.8087 0.0
C3645 C 0.24045 0.58932 0.86157 0.0
C3646 C 0.22304 0.58701 0.84702 0.0
C3647 C 0.22383 0.57179 0.83083 0.0
C3648 C 0.20637 0.6029 0.84588 0.0
C3649 C 0.23995 0.60409 0.88031 0.0
C3650 C 0.18371 0.59686 0.84494 0.0
C3651 C 0.16857 0.61235 0.84245 0.0
C3652 C 0.17599 0.63396 0.84075 0.0
C3653 C 0.19866 0.63976 0.84126 0.0
C3654 C 0.21363 0.62445 0.84373 0.0
H3655 H 0.24685 0.59659 0.89418 0.0
H3656 H 0.25046 0.61889 0.87703 0.0
H3657 H 0.2231 0.60841 0.88424 0.0
H3658 H 0.17779 0.58024 0.84609 0.0
H3659 H 0.15122 0.60742 0.84151 0.0
H3660 H 0.19555 0.60679 0.52433 0.0
H3661 H 0.18126 0.57221 0.53798 0.0
H3662 H 0.24276 0.56547 0.56875 0.0
H3663 H 0.25729 0.59997 0.55515 0.0
H3664 H 0.20778 0.53313 0.52817 0.0
H3665 H 0.19041 0.54822 0.61277 0.0
H3666 H 0.18923 0.56891 0.59351 0.0
H3667 H 0.21528 0.56027 0.60098 0.0
C3668 C 0.20586 0.59824 0.53443 0.0
C3669 C 0.22761 0.60611 0.53854 0.0
C3670 C 0.1977 0.57845 0.54213 0.0
C3671 C 0.211 0.56636 0.55431 0.0
C3672 C 0.23223 0.57466 0.55946 0.0
H3673 H 0.16911 0.44061 0.60647 0.0
H3674 H 0.19389 0.47171 0.59686 0.0
C3675 C 0.24048 0.59437 0.55165 0.0
C3676 C 0.20338 0.54425 0.55984 0.0
H3677 H 0.18217 0.51336 0.59986 0.0
C3678 C 0.20232 0.52873 0.54387 0.0
C3679 C 0.19678 0.53855 0.58041 0.0
C3680 C 0.19786 0.55477 0.59801 0.0
C3681 C 0.19407 0.50772 0.54777 0.0
C3682 C 0.18618 0.50226 0.56807 0.0
C3683 C 0.18823 0.51757 0.5843 0.0
C3684 C 0.1732 0.4818 0.57213 0.0
C3685 C 0.19364 0.49165 0.53003 0.0
C3686 C 0.15363 0.47698 0.56119 0.0
C3687 C 0.13955 0.4594 0.56664 0.0
C3688 C 0.14462 0.44627 0.58326 0.0
C3689 C 0.16482 0.45037 0.59351 0.0
C3690 C 0.17891 0.46818 0.58812 0.0
H3691 H 0.20694 0.49576 0.5184 0.0
H3692 H 0.19544 0.47532 0.53582 0.0
H3693 H 0.17772 0.49166 0.5218 0.0
H3694 H 0.14865 0.48745 0.54909 0.0
H3695 H 0.12414 0.45668 0.55842 0.0
H3696 H 0.19701 0.54837 0.20048 0.0
H3697 H 0.23315 0.56303 0.18855 0.0
H3698 H 0.23125 0.61404 0.23407 0.0
H3699 H 0.19506 0.59936 0.24634 0.0
H3700 H 0.24737 0.60327 0.17286 0.0
H3701 H 0.28895 0.58668 0.24699 0.0
H3702 H 0.26186 0.57495 0.24061 0.0
H3703 H 0.26542 0.60191 0.25033 0.0
C3704 C 0.20414 0.56284 0.20787 0.0
C3705 C 0.19319 0.57261 0.2245 0.0
C3706 C 0.22484 0.57114 0.20103 0.0
C3707 C 0.23507 0.5893 0.21076 0.0
C3708 C 0.22381 0.5997 0.22669 0.0
H3709 H 0.346 0.67544 0.19975 0.0
H3710 H 0.31606 0.65038 0.21126 0.0
C3711 C 0.20302 0.59144 0.23352 0.0
C3712 C 0.25756 0.5973 0.20422 0.0
H3713 H 0.30956 0.60864 0.22247 0.0
C3714 C 0.26106 0.60426 0.1836 0.0
C3715 C 0.2754 0.59823 0.21822 0.0
C3716 C 0.27285 0.58986 0.24022 0.0
C3717 C 0.28167 0.61334 0.17691 0.0
C3718 C 0.29936 0.61505 0.19116 0.0
C3719 C 0.29604 0.60724 0.21155 0.0
C3720 C 0.32033 0.62759 0.18617 0.0
C3721 C 0.28398 0.62187 0.15495 0.0
C3722 C 0.3336 0.6225 0.16893 0.0
C3723 C 0.35091 0.63691 0.16228 0.0
C3724 C 0.35502 0.65655 0.1728 0.0
C3725 C 0.34305 0.66054 0.19119 0.0
C3726 C 0.32591 0.64621 0.1978 0.0
H3727 H 0.26779 0.62311 0.14748 0.0
H3728 H 0.2931 0.63784 0.15486 0.0
H3729 H 0.29334 0.61088 0.14528 0.0
H3730 H 0.32988 0.60795 0.16001 0.0
H3731 H 0.35989 0.6334 0.14808 0.0
H3732 H 0.27099 0.46682 0.95145 0.0
H3733 H 0.25861 0.49638 0.93122 0.0
H3734 H 0.19538 0.48893 0.96226 0.0
H3735 H 0.20776 0.45978 0.98287 0.0
H3736 H 0.22519 0.50128 0.90411 0.0
H3737 H 0.21472 0.55081 0.97498 0.0
H3738 H 0.22887 0.52667 0.97533 0.0
H3739 H 0.19931 0.52549 0.97719 0.0
C3740 C 0.25434 0.47129 0.95376 0.0
C3741 C 0.24041 0.46109 0.96892 0.0
C3742 C 0.24734 0.48824 0.94224 0.0
C3743 C 0.22631 0.49527 0.94568 0.0
C3744 C 0.21192 0.4842 0.95983 0.0
H3745 H 0.1349 0.55742 0.88102 0.0
H3746 H 0.16316 0.53514 0.89251 0.0
C3747 C 0.21894 0.46739 0.97144 0.0
C3748 C 0.21933 0.51432 0.93487 0.0
H3749 H 0.19524 0.56069 0.94431 0.0
C3750 C 0.21898 0.51445 0.91288 0.0
C3751 C 0.21203 0.53196 0.94622 0.0
C3752 C 0.21399 0.53387 0.96972 0.0
C3753 C 0.20972 0.53083 0.90209 0.0
C3754 C 0.20015 0.54715 0.91362 0.0
C3755 C 0.20226 0.548 0.93547 0.0
C3756 C 0.18503 0.56138 0.90386 0.0
C3757 C 0.20972 0.53022 0.87847 0.0
C3758 C 0.18785 0.58364 0.90643 0.0
C3759 C 0.17164 0.59655 0.89968 0.0
C3760 C 0.15211 0.58723 0.89095 0.0
C3761 C 0.14968 0.56503 0.88791 0.0
C3762 C 0.16597 0.55228 0.89423 0.0
H3763 H 0.22436 0.5227 0.8722 0.0
H3764 H 0.19489 0.52049 0.87302 0.0
H3765 H 0.20954 0.54644 0.87188 0.0
H3766 H 0.20229 0.59092 0.91417 0.0
H3767 H 0.17391 0.61363 0.90216 0.0
H3768 H 0.29462 0.47976 0.74888 0.0
H3769 H 0.25854 0.47764 0.73248 0.0
H3770 H 0.28051 0.52865 0.69098 0.0
H3771 H 0.31684 0.53083 0.70724 0.0
H3772 H 0.22891 0.51224 0.72842 0.0
H3773 H 0.25623 0.47878 0.65195 0.0
H3774 H 0.2727 0.47786 0.67517 0.0
H3775 H 0.27069 0.50266 0.66208 0.0
C3776 C 0.29187 0.49044 0.73617 0.0
C3777 C 0.30863 0.50535 0.72925 0.0
C3778 C 0.2712 0.48931 0.72692 0.0
C3779 C 0.26691 0.50299 0.71054 0.0
C3780 C 0.28357 0.51788 0.70352 0.0
H3781 H 0.1524 0.4591 0.63831 0.0
H3782 H 0.1779 0.48871 0.65044 0.0
C3783 C 0.30431 0.51905 0.7128 0.0
C3784 C 0.24502 0.50097 0.70068 0.0
H3785 H 0.21849 0.47827 0.65841 0.0
C3786 C 0.22658 0.50525 0.71291 0.0
C3787 C 0.24206 0.49231 0.6803 0.0
C3788 C 0.26138 0.48752 0.66653 0.0
C3789 C 0.2052 0.49952 0.70591 0.0
C3790 C 0.20229 0.48882 0.68642 0.0
C3791 C 0.22068 0.48644 0.67338 0.0
C3792 C 0.1817 0.47578 0.68135 0.0
C3793 C 0.186 0.50404 0.71991 0.0
C3794 C 0.17448 0.45933 0.69502 0.0
C3795 C 0.16016 0.44249 0.68807 0.0
C3796 C 0.15273 0.44184 0.66737 0.0
C3797 C 0.15781 0.45943 0.65441 0.0
C3798 C 0.17243 0.47627 0.66131 0.0
H3799 H 0.18942 0.5193 0.72862 0.0
H3800 H 0.17066 0.50484 0.71086 0.0
H3801 H 0.18339 0.49121 0.73165 0.0
H3802 H 0.1817 0.45824 0.71034 0.0
H3803 H 0.15662 0.42895 0.69822 0.0
H3804 H 0.28893 0.61581 0.43436 0.0
H3805 H 0.28861 0.58246 0.41439 0.0
H3806 H 0.21932 0.57006 0.42733 0.0
H3807 H 0.21938 0.60376 0.44699 0.0
H3808 H 0.24728 0.53939 0.44276 0.0
H3809 H 0.26358 0.55459 0.35897 0.0
H3810 H 0.27989 0.57298 0.37526 0.0
H3811 H 0.25038 0.5731 0.37598 0.0
C3812 C 0.27347 0.60637 0.43234 0.0
C3813 C 0.25423 0.61233 0.44232 0.0
C3814 C 0.27325 0.58738 0.42079 0.0
C3815 C 0.25388 0.57389 0.41923 0.0
C3816 C 0.23434 0.5804 0.42811 0.0
H3817 H 0.30126 0.44513 0.40372 0.0
H3818 H 0.27066 0.46852 0.40495 0.0
C3819 C 0.23444 0.59965 0.43934 0.0
C3820 C 0.25555 0.55161 0.4121 0.0
H3821 H 0.28121 0.52449 0.37376 0.0
C3822 C 0.25384 0.53572 0.42738 0.0
C3823 C 0.26367 0.54679 0.39195 0.0
C3824 C 0.26426 0.56274 0.37452 0.0
C3825 C 0.26316 0.51624 0.42403 0.0
C3826 C 0.27418 0.51272 0.40487 0.0
C3827 C 0.27299 0.52736 0.38857 0.0
C3828 C 0.29171 0.49779 0.40358 0.0
C3829 C 0.26347 0.50074 0.44182 0.0
C3830 C 0.31352 0.50652 0.40292 0.0
C3831 C 0.33079 0.49341 0.4029 0.0
C3832 C 0.32669 0.47116 0.4032 0.0
C3833 C 0.30483 0.46226 0.40359 0.0
C3834 C 0.28739 0.47555 0.40411 0.0
H3835 H 0.25429 0.50603 0.45583 0.0
H3836 H 0.256 0.48492 0.43671 0.0
H3837 H 0.2807 0.49877 0.44637 0.0
H3838 H 0.31722 0.52365 0.40275 0.0
H3839 H 0.34743 0.50078 0.40229 0.0
H3840 H 0.25208 0.21293 0.46207 0.0
H3841 H 0.26679 0.24913 0.45383 0.0
H3842 H 0.31382 0.2471 0.50351 0.0
H3843 H 0.29947 0.2107 0.51163 0.0
H3844 H 0.26856 0.28499 0.48102 0.0
H3845 H 0.35208 0.26681 0.45317 0.0
H3846 H 0.32987 0.24634 0.4559 0.0
H3847 H 0.34362 0.25742 0.47869 0.0
C3848 C 0.26571 0.22008 0.47109 0.0
C3849 C 0.2747 0.20893 0.48742 0.0
C3850 C 0.27403 0.24079 0.46644 0.0
C3851 C 0.29146 0.25071 0.47799 0.0
C3852 C 0.30058 0.2396 0.49422 0.0
H3853 H 0.35611 0.37276 0.43581 0.0
H3854 H 0.34476 0.34567 0.46198 0.0
C3855 C 0.29233 0.21883 0.49884 0.0
C3856 C 0.29968 0.27283 0.47303 0.0
H3857 H 0.3429 0.30212 0.45056 0.0
C3858 C 0.28493 0.28883 0.47463 0.0
C3859 C 0.32118 0.27786 0.46511 0.0
C3860 C 0.33764 0.26124 0.46295 0.0
C3861 C 0.29066 0.30942 0.4673 0.0
C3862 C 0.31153 0.31399 0.45789 0.0
C3863 C 0.32689 0.29851 0.45778 0.0
C3864 C 0.31627 0.33298 0.44474 0.0
C3865 C 0.27401 0.32589 0.46892 0.0
C3866 C 0.30372 0.33509 0.42674 0.0
C3867 C 0.31016 0.35042 0.41193 0.0
C3868 C 0.32931 0.36396 0.41479 0.0
C3869 C 0.3412 0.36269 0.43338 0.0
C3870 C 0.33482 0.34716 0.44822 0.0
H3871 H 0.26276 0.3228 0.48254 0.0
H3872 H 0.28215 0.34223 0.47045 0.0
H3873 H 0.26389 0.32511 0.45457 0.0
H3874 H 0.28961 0.32405 0.42354 0.0
H3875 H 0.30061 0.35109 0.39779 0.0
H3876 H 0.80501 0.37285 0.53658 0.0
H3877 H 0.82105 0.34357 0.55389 0.0
H3878 H 0.85534 0.32852 0.49681 0.0
H3879 H 0.83902 0.35767 0.47916 0.0
H3880 H 0.83293 0.29367 0.51309 0.0
H3881 H 0.88168 0.33544 0.57548 0.0
H3882 H 0.85409 0.34338 0.57569 0.0
H3883 H 0.87171 0.34922 0.55331 0.0
C3884 C 0.8163 0.36363 0.52777 0.0
C3885 C 0.82068 0.36764 0.50645 0.0
C3886 C 0.82558 0.34692 0.53775 0.0
C3887 C 0.83963 0.334 0.52673 0.0
C3888 C 0.84463 0.33836 0.50564 0.0
H3889 H 0.8883 0.23711 0.60762 0.0
H3890 H 0.88957 0.26349 0.57957 0.0
C3891 C 0.83532 0.35508 0.49561 0.0
C3892 C 0.84732 0.31485 0.53684 0.0
H3893 H 0.86956 0.29853 0.58205 0.0
C3894 C 0.84136 0.29472 0.52797 0.0
C3895 C 0.85874 0.31616 0.556 0.0
C3896 C 0.86714 0.33724 0.56554 0.0
C3897 C 0.84507 0.2759 0.53851 0.0
C3898 C 0.85458 0.27728 0.55863 0.0
C3899 C 0.862 0.29738 0.56675 0.0
C3900 C 0.8549 0.25855 0.57252 0.0
C3901 C 0.83822 0.25481 0.52812 0.0
C3902 C 0.83514 0.24666 0.57761 0.0
C3903 C 0.83449 0.23153 0.59347 0.0
C3904 C 0.8536 0.2279 0.60437 0.0
C3905 C 0.87353 0.23915 0.59886 0.0
C3906 C 0.87419 0.25438 0.58303 0.0
H3907 H 0.84039 0.25581 0.51085 0.0
H3908 H 0.84772 0.24178 0.5339 0.0
H3909 H 0.82051 0.25067 0.53139 0.0
H3910 H 0.81989 0.25006 0.57031 0.0
H3911 H 0.81882 0.22359 0.59807 0.0
H3912 H 0.43208 0.04835 0.24379 0.0
H3913 H 0.46926 0.06613 0.24604 0.0
H3914 H 0.46562 0.06289 0.3134 0.0
H3915 H 0.42869 0.04514 0.31135 0.0
H3916 H 0.48504 0.10372 0.29451 0.0
H3917 H 0.52147 0.03014 0.2656 0.0
H3918 H 0.49984 0.04089 0.25103 0.0
H3919 H 0.49381 0.02919 0.27609 0.0
C3920 C 0.43901 0.05186 0.2591 0.0
C3921 C 0.42747 0.04522 0.27741 0.0
C3922 C 0.4603 0.06188 0.26032 0.0
C3923 C 0.47023 0.06556 0.27987 0.0
C3924 C 0.45824 0.06011 0.29816 0.0
H3925 H 0.57797 0.06644 0.35035 0.0
H3926 H 0.55004 0.05921 0.32386 0.0
C3927 C 0.43713 0.04996 0.29696 0.0
C3928 C 0.49357 0.07373 0.2817 0.0
H3929 H 0.54515 0.05629 0.28178 0.0
C3930 C 0.49836 0.09366 0.29127 0.0
C3931 C 0.5108 0.06054 0.27726 0.0
C3932 C 0.50642 0.03895 0.26697 0.0
C3933 C 0.51967 0.10008 0.2981 0.0
C3934 C 0.53667 0.08615 0.29519 0.0
C3935 C 0.53217 0.06696 0.284 0.0
C3936 C 0.55729 0.0889 0.30749 0.0
C3937 C 0.52338 0.12106 0.30964 0.0
C3938 C 0.57175 0.1074 0.30637 0.0
C3939 C 0.58791 0.11159 0.32168 0.0
C3940 C 0.58973 0.09729 0.33821 0.0
C3941 C 0.57683 0.07782 0.33789 0.0
C3942 C 0.56083 0.07367 0.3227 0.0
H3943 H 0.50779 0.12854 0.31301 0.0
H3944 H 0.53185 0.119 0.32468 0.0
H3945 H 0.53393 0.13216 0.29979 0.0
H3946 H 0.56967 0.11919 0.2945 0.0
H3947 H 0.59763 0.12674 0.32157 0.0
H3948 H 0.68649 0.69706 0.0028 0.0
H3949 H 0.67089 0.73048 0.01282 0.0
H3950 H 0.68818 0.72095 0.07711 0.0
H3951 H 0.70441 0.68794 0.06712 0.0
H3952 H 0.64011 0.74556 0.04127 0.0
H3953 H 0.72516 0.77529 0.06122 0.0
H3954 H 0.71892 0.75037 0.04753 0.0
H3955 H 0.71594 0.75191 0.07559 0.0
C3956 C 0.68643 0.70178 0.01917 0.0
C3957 C 0.69698 0.69004 0.03414 0.0
C3958 C 0.67755 0.72092 0.02485 0.0
C3959 C 0.67895 0.72848 0.04559 0.0
C3960 C 0.68745 0.71566 0.0609 0.0
H3961 H 0.62773 0.8306 0.11384 0.0
H3962 H 0.62983 0.79941 0.0911 0.0
C3963 C 0.69659 0.69673 0.05521 0.0
C3964 C 0.67382 0.7506 0.05092 0.0
H3965 H 0.69681 0.79668 0.07252 0.0
C3966 C 0.6525 0.75687 0.04793 0.0
C3967 C 0.69018 0.76559 0.05891 0.0
C3968 C 0.71389 0.76056 0.06079 0.0
C3969 C 0.64686 0.77743 0.05376 0.0
C3970 C 0.66287 0.79189 0.06325 0.0
C3971 C 0.6844 0.78578 0.06531 0.0
C3972 C 0.65771 0.81267 0.07289 0.0
C3973 C 0.62384 0.78329 0.04959 0.0
C3974 C 0.67227 0.83093 0.07007 0.0
C3975 C 0.67146 0.84854 0.08357 0.0
C3976 C 0.65555 0.84851 0.09957 0.0
C3977 C 0.63971 0.8312 0.10115 0.0
C3978 C 0.64089 0.81334 0.08806 0.0
H3979 H 0.61725 0.7752 0.03516 0.0
H3980 H 0.61292 0.7779 0.06282 0.0
H3981 H 0.62315 0.80071 0.04784 0.0
H3982 H 0.68541 0.83089 0.05851 0.0
H3983 H 0.68414 0.86152 0.08242 0.0
H3984 H 0.56739 0.4943 0.24274 0.0
H3985 H 0.52954 0.47962 0.24974 0.0
H3986 H 0.52625 0.52083 0.30396 0.0
H3987 H 0.56382 0.53543 0.29723 0.0
H3988 H 0.51247 0.45985 0.2887 0.0
H3989 H 0.47108 0.53188 0.26849 0.0
H3990 H 0.49838 0.52712 0.25914 0.0
H3991 H 0.49436 0.53754 0.28515 0.0
C3992 C 0.55859 0.50016 0.25619 0.0
C3993 C 0.56856 0.51604 0.26943 0.0
C3994 C 0.537 0.49182 0.26009 0.0
C3995 C 0.52504 0.49949 0.27709 0.0
C3996 C 0.5351 0.51504 0.2905 0.0
H3997 H 0.42728 0.48995 0.36306 0.0
H3998 H 0.45394 0.49903 0.33537 0.0
C3999 C 0.55664 0.52323 0.28673 0.0
C4000 C 0.50231 0.4909 0.2817 0.0
H4001 H 0.45156 0.50764 0.29257 0.0
C4002 C 0.49889 0.47 0.28901 0.0
C4003 C 0.48467 0.50418 0.2818 0.0
C4004 C 0.48721 0.52638 0.27302 0.0
C4005 C 0.47886 0.46274 0.2985 0.0
C4006 C 0.46184 0.47676 0.30036 0.0
C4007 C 0.46466 0.49696 0.29122 0.0
C4008 C 0.44319 0.47249 0.31513 0.0
C4009 C 0.47675 0.44087 0.30805 0.0
C4010 C 0.42769 0.45498 0.31259 0.0
C4011 C 0.41232 0.4497 0.32854 0.0
C4012 C 0.41235 0.46186 0.34719 0.0
C4013 C 0.42697 0.48014 0.34898 0.0
C4014 C 0.44218 0.4854 0.33311 0.0
H4015 H 0.49231 0.43283 0.30698 0.0
H4016 H 0.47175 0.44195 0.32478 0.0
H4017 H 0.46384 0.43077 0.29975 0.0
H4018 H 0.428 0.44499 0.29868 0.0
H4019 H 0.40127 0.43548 0.32675 0.0
H4020 H 0.20246 0.85107 -0.00623 0.0
H4021 H 0.17714 0.81894 0.99111 0.0
H4022 H 0.19247 0.81386 0.92521 0.0
H4023 H 0.21729 0.84594 0.92758 0.0
H4024 H 0.14808 0.8045 0.93441 0.0
H4025 H 0.2014 0.76015 0.98588 0.0
H4026 H 0.1906 0.78389 -0.00364 0.0
H4027 H 0.21047 0.78585 0.97538 0.0
C4028 C 0.20014 0.84331 0.97864 0.0
C4029 C 0.21212 0.85096 0.96093 0.0
C4030 C 0.18578 0.82486 0.9772 0.0
C4031 C 0.18324 0.81379 0.95805 0.0
C4032 C 0.19423 0.82211 0.94017 0.0
H4033 H 0.17698 0.69902 0.90146 0.0
H4034 H 0.18312 0.72914 0.92562 0.0
C4035 C 0.20849 0.84046 0.94157 0.0
C4036 C 0.17051 0.79278 0.9564 0.0
H4037 H 0.17458 0.74014 0.96672 0.0
C4038 C 0.15342 0.79042 0.94186 0.0
C4039 C 0.17757 0.7745 0.96622 0.0
C4040 C 0.19608 0.77604 0.98176 0.0
C4041 C 0.1445 0.77018 0.93546 0.0
C4042 C 0.15263 0.7518 0.94421 0.0
C4043 C 0.16835 0.75425 0.96012 0.0
C4044 C 0.14875 0.73058 0.93394 0.0
C4045 C 0.12792 0.76868 0.91803 0.0
C4046 C 0.12749 0.72061 0.93142 0.0
C4047 C 0.12398 0.70337 0.91742 0.0
C4048 C 0.14173 0.69572 0.90621 0.0
C4049 C 0.1631 0.70453 0.91016 0.0
C4050 C 0.16659 0.72173 0.92396 0.0
H4051 H 0.12541 0.78448 0.91129 0.0
H4052 H 0.13328 0.75806 0.90525 0.0
H4053 H 0.11186 0.76181 0.92418 0.0
H4054 H 0.11352 0.72697 0.9392 0.0
H4055 H 0.1073 0.69719 0.91414 0.0
H4056 H 0.42472 0.93464 0.27142 0.0
H4057 H 0.45745 0.92018 0.25617 0.0
H4058 H 0.44572 0.95062 0.1977 0.0
H4059 H 0.41313 0.96541 0.21283 0.0
H4060 H 0.46558 0.89462 0.22101 0.0
H4061 H 0.50765 0.97538 0.21404 0.0
H4062 H 0.48283 0.97008 0.22938 0.0
H4063 H 0.48143 0.97302 0.20144 0.0
C4064 C 0.42887 0.93803 0.2552 0.0
C4065 C 0.41638 0.95143 0.24342 0.0
C4066 C 0.44764 0.92976 0.24654 0.0
C4067 C 0.45432 0.93479 0.226 0.0
C4068 C 0.44113 0.94699 0.21377 0.0
H4069 H 0.53171 0.88851 0.13189 0.0
H4070 H 0.5067 0.89058 0.16158 0.0
C4071 C 0.42237 0.95527 0.22239 0.0
C4072 C 0.47544 0.928 0.21749 0.0
H4073 H 0.52326 0.9476 0.19425 0.0
C4074 C 0.47836 0.90618 0.21541 0.0
C4075 C 0.49247 0.94305 0.21089 0.0
C4076 C 0.49109 0.96669 0.21425 0.0
C4077 C 0.49713 0.89903 0.2054 0.0
C4078 C 0.5132 0.91413 0.19698 0.0
C4079 C 0.51099 0.93593 0.20054 0.0
C4080 C 0.53027 0.90813 0.18164 0.0
C4081 C 0.49917 0.87536 0.20354 0.0
C4082 C 0.55222 0.91683 0.18302 0.0
C4083 C 0.56664 0.91571 0.16581 0.0
C4084 C 0.55916 0.90596 0.14708 0.0
C4085 C 0.53787 0.89588 0.14632 0.0
C4086 C 0.52358 0.89695 0.16338 0.0
H4087 H 0.49267 0.86716 0.21789 0.0
H4088 H 0.48916 0.86888 0.19019 0.0
H4089 H 0.51643 0.87156 0.20096 0.0
H4090 H 0.55773 0.92568 0.19689 0.0
H4091 H 0.58291 0.92388 0.16657 0.0
H4092 H 0.07756 0.11746 0.75068 0.0
H4093 H 0.04385 0.13502 0.74368 0.0
H4094 H 0.04718 0.1153 0.67892 0.0
H4095 H 0.08058 0.09769 0.68571 0.0
H4096 H 0.03061 0.16632 0.70882 0.0
H4097 H 0.98902 0.08482 0.70795 0.0
H4098 H 0.01514 0.09124 0.72048 0.0
H4099 H 0.01392 0.08746 0.69255 0.0
C4100 C 0.07147 0.11743 0.73482 0.0
C4101 C 0.08159 0.106 0.71877 0.0
C4102 C 0.05219 0.12742 0.73088 0.0
C4103 C 0.04294 0.12616 0.71087 0.0
C4104 C 0.05402 0.11627 0.69451 0.0
H4105 H 0.95682 0.16704 0.62756 0.0
H4106 H 0.98392 0.16737 0.6552 0.0
C4107 C 0.07313 0.10624 0.69842 0.0
C4108 C 0.02058 0.13279 0.70717 0.0
H4109 H 0.97058 0.11171 0.69077 0.0
C4110 C 0.01725 0.15448 0.70531 0.0
C4111 C 0.00299 0.11736 0.70331 0.0
C4112 C 0.0053 0.0939 0.70636 0.0
C4113 C -0.0027 0.16099 0.69773 0.0
C4114 C 0.9806 0.14535 0.69146 0.0
C4115 C 0.98331 0.1238 0.69535 0.0
C4116 C 0.96233 0.15022 0.6775 0.0
C4117 C -0.00531 0.18451 0.69586 0.0
C4118 C 0.94086 0.14082 0.68075 0.0
C4119 C 0.92534 0.14045 0.6647 0.0
C4120 C 0.93116 0.14951 0.6453 0.0
C4121 C 0.95197 0.16022 0.64258 0.0
C4122 C 0.96741 0.16058 0.6585 0.0
H4123 H 0.00234 0.19338 0.70939 0.0
H4124 H 0.00336 0.19055 0.68149 0.0
H4125 H 0.97717 0.18797 0.69504 0.0
H4126 H 0.93656 0.1326 0.6952 0.0
H4127 H 0.90941 0.13189 0.66695 0.0
loop_
_geom_bond_atom_site_label_1
_geom_bond_atom_site_label_2
_geom_bond_distance
_geom_bond_site_symmetry_2
_ccdc_geom_bond_type
C0 O1 1.306 . S
C0 O3 1.160 1_655 S
O1 C0 1.306 . S
O1 Cd2 2.228 . S
Cd2 O1 2.228 . S
Cd2 O6 2.273 . S
Cd2 O10 2.277 1_655 S
O3 C0 1.160 1_455 S
O3 Cd4 2.203 . S
Cd4 O3 2.203 . S
Cd4 O6 2.411 1_455 S
Cd4 O7 2.333 . S
Cd4 O8 2.352 . S
Cd4 O12 2.277 . S
Cd4 O13 2.356 . S
C5 O10 1.209 . S
C5 O12 1.226 . S
O6 Cd2 2.273 . S
O6 Cd4 2.411 1_655 S
O6 C9 1.320 1_655 S
O7 Cd4 2.333 . S
O7 C9 1.214 . S
O8 Cd4 2.352 . S
O8 C11 1.258 . S
C9 O6 1.320 1_455 S
C9 O7 1.214 . S
O10 Cd2 2.277 1_455 S
O10 C5 1.209 . S
C11 O8 1.258 . S
C11 O13 1.282 . S
O12 Cd4 2.277 . S
O12 C5 1.226 . S
O13 Cd4 2.356 . S
O13 C11 1.282 . S
C14 O15 1.306 . S
C14 O17 1.160 . S
O15 C14 1.306 . S
O15 Cd16 2.228 1_455 S
Cd16 O15 2.228 1_655 S
Cd16 O20 2.273 . S
Cd16 O24 2.277 . S
O17 C14 1.160 . S
O17 Cd18 2.203 . S
Cd18 O17 2.203 . S
Cd18 O20 2.411 1_455 S
Cd18 O21 2.333 1_455 S
Cd18 O22 2.352 . S
Cd18 O26 2.277 1_455 S
Cd18 O27 2.356 . S
C19 O24 1.209 . S
C19 O26 1.226 . S
O20 Cd16 2.273 . S
O20 Cd18 2.411 1_655 S
O20 C23 1.320 . S
O21 Cd18 2.333 1_655 S
O21 C23 1.214 . S
O22 Cd18 2.352 . S
O22 C25 1.258 . S
C23 O20 1.320 . S
C23 O21 1.214 . S
O24 Cd16 2.277 . S
O24 C19 1.209 . S
C25 O22 1.258 . S
C25 O27 1.282 . S
O26 Cd18 2.277 1_655 S
O26 C19 1.226 . S
O27 Cd18 2.356 . S
O27 C25 1.282 . S
C28 O29 1.306 . S
C28 O31 1.160 . S
O29 C28 1.306 . S
O29 Cd30 2.228 . S
Cd30 O29 2.228 . S
Cd30 O34 2.273 . S
Cd30 O38 2.277 . S
O31 C28 1.160 . S
O31 Cd32 2.203 . S
Cd32 O31 2.203 . S
Cd32 O34 2.411 . S
Cd32 O35 2.333 . S
Cd32 O36 2.352 . S
Cd32 O40 2.277 . S
Cd32 O41 2.356 . S
C33 O38 1.209 . S
C33 O40 1.226 . S
O34 Cd30 2.273 . S
O34 Cd32 2.411 . S
O34 C37 1.320 . S
O35 Cd32 2.333 . S
O35 C37 1.214 . S
O36 Cd32 2.352 . S
O36 C39 1.258 . S
C37 O34 1.320 . S
C37 O35 1.214 . S
O38 Cd30 2.277 . S
O38 C33 1.209 . S
C39 O36 1.258 . S
C39 O41 1.282 . S
O40 Cd32 2.277 . S
O40 C33 1.226 . S
O41 Cd32 2.356 . S
O41 C39 1.282 . S
C42 O43 1.306 . S
C42 O45 1.160 . S
O43 C42 1.306 . S
O43 Cd44 2.228 . S
Cd44 O43 2.228 . S
Cd44 O48 2.273 . S
Cd44 O52 2.277 . S
O45 C42 1.160 . S
O45 Cd46 2.203 . S
Cd46 O45 2.203 . S
Cd46 O48 2.411 . S
Cd46 O49 2.333 . S
Cd46 O50 2.352 . S
Cd46 O54 2.277 . S
Cd46 O55 2.356 . S
C47 O52 1.209 . S
C47 O54 1.226 . S
O48 Cd44 2.273 . S
O48 Cd46 2.411 . S
O48 C51 1.320 . S
O49 Cd46 2.333 . S
O49 C51 1.214 . S
O50 Cd46 2.352 . S
O50 C53 1.258 . S
C51 O48 1.320 . S
C51 O49 1.214 . S
O52 Cd44 2.277 . S
O52 C47 1.209 . S
C53 O50 1.258 . S
C53 O55 1.282 . S
O54 Cd46 2.277 . S
O54 C47 1.226 . S
O55 Cd46 2.356 . S
O55 C53 1.282 . S
C56 O57 1.306 . S
C56 O59 1.160 . S
O57 C56 1.306 . S
O57 Cd58 2.228 . S
Cd58 O57 2.228 . S
Cd58 O62 2.273 . S
Cd58 O66 2.306 . S
O59 C56 1.160 . S
O59 Cd60 2.203 1_655 S
Cd60 O59 2.203 1_455 S
Cd60 O62 2.411 1_455 S
Cd60 O63 2.333 . S
Cd60 O64 2.349 1_455 S
Cd60 O68 2.277 . S
Cd60 O69 2.356 . S
C61 O66 1.179 1_455 S
C61 O68 1.226 . S
O62 Cd58 2.273 . S
O62 Cd60 2.411 1_655 S
O62 C65 1.320 . S
O63 Cd60 2.333 . S
O63 C65 1.214 1_455 S
O64 Cd60 2.349 1_655 S
O64 C67 1.236 1_655 S
C65 O62 1.320 . S
C65 O63 1.214 1_655 S
O66 Cd58 2.306 . S
O66 C61 1.179 1_655 S
C67 O64 1.236 1_455 S
C67 O69 1.282 . S
O68 Cd60 2.277 . S
O68 C61 1.226 . S
O69 Cd60 2.356 . S
O69 C67 1.282 . S
C70 O71 1.306 . S
C70 O73 1.160 . S
O71 C70 1.306 . S
O71 Cd72 2.228 . S
Cd72 O71 2.228 . S
Cd72 O76 2.273 . S
Cd72 O80 2.277 . S
O73 C70 1.160 . S
O73 Cd74 2.203 . S
Cd74 O73 2.203 . S
Cd74 O76 2.411 . S
Cd74 O77 2.333 . S
Cd74 O78 2.352 . S
Cd74 O82 2.277 . S
Cd74 O83 2.356 . S
C75 O80 1.209 . S
C75 O82 1.226 . S
O76 Cd72 2.273 . S
O76 Cd74 2.411 . S
O76 C79 1.320 . S
O77 Cd74 2.333 . S
O77 C79 1.214 . S
O78 Cd74 2.352 . S
O78 C81 1.258 . S
C79 O76 1.320 . S
C79 O77 1.214 . S
O80 Cd72 2.277 . S
O80 C75 1.209 . S
C81 O78 1.258 . S
C81 O83 1.282 . S
O82 Cd74 2.277 . S
O82 C75 1.226 . S
O83 Cd74 2.356 . S
O83 C81 1.282 . S
C84 O85 1.306 . S
C84 O87 1.160 . S
O85 C84 1.306 . S
O85 Cd86 2.228 . S
Cd86 O85 2.228 . S
Cd86 O90 2.273 . S
Cd86 O94 2.277 . S
O87 C84 1.160 . S
O87 Cd88 2.203 . S
Cd88 O87 2.203 . S
Cd88 O90 2.411 . S
Cd88 O91 2.333 . S
Cd88 O92 2.352 . S
Cd88 O96 2.277 . S
Cd88 O97 2.356 . S
C89 O94 1.209 . S
C89 O96 1.226 . S
O90 Cd86 2.273 . S
O90 Cd88 2.411 . S
O90 C93 1.320 . S
O91 Cd88 2.333 . S
O91 C93 1.214 . S
O92 Cd88 2.352 . S
O92 C95 1.258 . S
C93 O90 1.320 . S
C93 O91 1.214 . S
O94 Cd86 2.277 . S
O94 C89 1.209 . S
C95 O92 1.258 . S
C95 O97 1.282 . S
O96 Cd88 2.277 . S
O96 C89 1.226 . S
O97 Cd88 2.356 . S
O97 C95 1.282 . S
C98 O99 1.306 . S
C98 O101 1.160 . S
O99 C98 1.306 . S
O99 Cd100 2.228 . S
Cd100 O99 2.228 . S
Cd100 O104 2.273 . S
Cd100 O108 2.277 . S
O101 C98 1.160 . S
O101 Cd102 2.203 . S
Cd102 O101 2.203 . S
Cd102 O104 2.411 . S
Cd102 O105 2.333 . S
Cd102 O106 2.352 . S
Cd102 O110 2.277 . S
Cd102 O111 2.356 . S
C103 O108 1.209 . S
C103 O110 1.226 . S
O104 Cd100 2.273 . S
O104 Cd102 2.411 . S
O104 C107 1.320 . S
O105 Cd102 2.333 . S
O105 C107 1.214 . S
O106 Cd102 2.352 . S
O106 C109 1.258 . S
C107 O104 1.320 . S
C107 O105 1.214 . S
O108 Cd100 2.277 . S
O108 C103 1.209 . S
C109 O106 1.258 . S
C109 O111 1.282 . S
O110 Cd102 2.277 . S
O110 C103 1.226 . S
O111 Cd102 2.356 . S
O111 C109 1.282 . S
C112 O113 1.306 . S
C112 O115 1.160 . S
O113 C112 1.306 . S
O113 Cd114 2.228 . S
Cd114 O113 2.228 . S
Cd114 O118 2.273 . S
Cd114 O122 2.277 . S
O115 C112 1.160 . S
O115 Cd116 2.203 1_565 S
Cd116 O115 2.203 1_545 S
Cd116 O118 2.411 1_545 S
Cd116 O119 2.333 . S
Cd116 O120 2.352 . S
Cd116 O124 2.277 . S
Cd116 O125 2.356 . S
C117 O122 1.209 1_545 S
C117 O124 1.226 . S
O118 Cd114 2.273 . S
O118 Cd116 2.411 1_565 S
O118 C121 1.320 . S
O119 Cd116 2.333 . S
O119 C121 1.214 1_545 S
O120 Cd116 2.352 . S
O120 C123 1.258 . S
C121 O118 1.320 . S
C121 O119 1.214 1_565 S
O122 Cd114 2.277 . S
O122 C117 1.209 1_565 S
C123 O120 1.258 . S
C123 O125 1.282 . S
O124 Cd116 2.277 . S
O124 C117 1.226 . S
O125 Cd116 2.356 . S
O125 C123 1.282 . S
C126 O127 1.306 . S
C126 O129 1.160 . S
O127 C126 1.306 . S
O127 Cd128 2.228 . S
Cd128 O127 2.228 . S
Cd128 O132 2.273 . S
Cd128 O136 2.277 . S
O129 C126 1.160 . S
O129 Cd130 2.203 . S
Cd130 O129 2.203 . S
Cd130 O132 2.411 . S
Cd130 O133 2.333 . S
Cd130 O134 2.352 . S
Cd130 O138 2.277 . S
Cd130 O139 2.356 . S
C131 O136 1.209 . S
C131 O138 1.226 . S
O132 Cd128 2.273 . S
O132 Cd130 2.411 . S
O132 C135 1.320 . S
O133 Cd130 2.333 . S
O133 C135 1.214 . S
O134 Cd130 2.352 . S
O134 C137 1.258 . S
C135 O132 1.320 . S
C135 O133 1.214 . S
O136 Cd128 2.277 . S
O136 C131 1.209 . S
C137 O134 1.258 . S
C137 O139 1.282 . S
O138 Cd130 2.277 . S
O138 C131 1.226 . S
O139 Cd130 2.356 . S
O139 C137 1.282 . S
C140 O141 1.306 . S
C140 O143 1.160 . S
O141 C140 1.306 . S
O141 Cd142 2.228 . S
Cd142 O141 2.228 . S
Cd142 O146 2.273 . S
Cd142 O150 2.277 . S
O143 C140 1.160 . S
O143 Cd144 2.203 . S
Cd144 O143 2.203 . S
Cd144 O146 2.411 . S
Cd144 O147 2.333 . S
Cd144 O148 2.352 . S
Cd144 O152 2.277 . S
Cd144 O153 2.356 . S
C145 O150 1.209 . S
C145 O152 1.226 . S
O146 Cd142 2.273 . S
O146 Cd144 2.411 . S
O146 C149 1.320 . S
O147 Cd144 2.333 . S
O147 C149 1.214 . S
O148 Cd144 2.352 . S
O148 C151 1.258 . S
C149 O146 1.320 . S
C149 O147 1.214 . S
O150 Cd142 2.277 . S
O150 C145 1.209 . S
C151 O148 1.258 . S
C151 O153 1.282 . S
O152 Cd144 2.277 . S
O152 C145 1.226 . S
O153 Cd144 2.356 . S
O153 C151 1.282 . S
C154 O155 1.306 . S
C154 O157 1.160 . S
O155 C154 1.306 . S
O155 Cd156 2.205 1_554 S
Cd156 O155 2.205 1_556 S
Cd156 O160 2.267 1_556 S
Cd156 O164 2.279 . S
O157 C154 1.160 . S
O157 Cd158 2.203 . S
Cd158 O157 2.203 . S
Cd158 O160 2.411 . S
Cd158 O161 2.333 . S
Cd158 O162 2.352 . S
Cd158 O166 2.277 . S
Cd158 O167 2.356 . S
C159 O164 1.209 . S
C159 O166 1.226 1_556 S
O160 Cd156 2.267 1_554 S
O160 Cd158 2.411 . S
O160 C163 1.320 1_554 S
O161 Cd158 2.333 . S
O161 C163 1.214 1_554 S
O162 Cd158 2.352 . S
O162 C165 1.258 . S
C163 O160 1.320 1_556 S
C163 O161 1.214 1_556 S
O164 Cd156 2.279 . S
O164 C159 1.209 . S
C165 O162 1.258 . S
C165 O167 1.282 . S
O166 Cd158 2.277 . S
O166 C159 1.226 1_554 S
O167 Cd158 2.356 . S
O167 C165 1.282 . S
C168 O169 1.306 . S
C168 O171 1.160 . S
O169 C168 1.306 . S
O169 Cd170 2.228 . S
Cd170 O169 2.228 . S
Cd170 O174 2.273 . S
Cd170 O178 2.277 . S
O171 C168 1.160 . S
O171 Cd172 2.201 1_554 S
Cd172 O171 2.201 1_556 S
Cd172 O174 2.403 1_556 S
Cd172 O175 2.332 1_556 S
Cd172 O176 2.350 1_556 S
Cd172 O180 2.283 . S
Cd172 O181 2.363 . S
C173 O178 1.209 1_556 S
C173 O180 1.226 . S
O174 Cd170 2.273 . S
O174 Cd172 2.403 1_554 S
O174 C177 1.320 . S
O175 Cd172 2.332 1_554 S
O175 C177 1.214 . S
O176 Cd172 2.350 1_554 S
O176 C179 1.258 1_554 S
C177 O174 1.320 . S
C177 O175 1.214 . S
O178 Cd170 2.277 . S
O178 C173 1.209 1_554 S
C179 O176 1.258 1_556 S
C179 O181 1.282 . S
O180 Cd172 2.283 . S
O180 C173 1.226 . S
O181 Cd172 2.363 . S
O181 C179 1.282 . S
C182 O183 1.306 . S
C182 O185 1.160 . S
O183 C182 1.306 . S
O183 Cd184 2.228 . S
Cd184 O183 2.228 . S
Cd184 O188 2.273 . S
Cd184 O192 2.277 . S
O185 C182 1.160 . S
O185 Cd186 2.203 1_554 S
Cd186 O185 2.203 1_556 S
Cd186 O188 2.411 1_556 S
Cd186 O189 2.333 . S
Cd186 O190 2.352 1_556 S
Cd186 O194 2.277 . S
Cd186 O195 2.356 . S
C187 O192 1.209 1_556 S
C187 O194 1.226 . S
O188 Cd184 2.273 . S
O188 Cd186 2.411 1_554 S
O188 C191 1.320 . S
O189 Cd186 2.333 . S
O189 C191 1.214 1_556 S
O190 Cd186 2.352 1_554 S
O190 C193 1.258 1_554 S
C191 O188 1.320 . S
C191 O189 1.214 1_554 S
O192 Cd184 2.277 . S
O192 C187 1.209 1_554 S
C193 O190 1.258 1_556 S
C193 O195 1.282 . S
O194 Cd186 2.277 . S
O194 C187 1.226 . S
O195 Cd186 2.356 . S
O195 C193 1.282 . S
C196 O197 1.306 . S
C196 O199 1.160 . S
O197 C196 1.306 . S
O197 Cd198 2.228 . S
Cd198 O197 2.228 . S
Cd198 O202 2.273 . S
Cd198 O206 2.277 . S
O199 C196 1.160 . S
O199 Cd200 2.203 . S
Cd200 O199 2.203 . S
Cd200 O202 2.411 . S
Cd200 O203 2.333 . S
Cd200 O204 2.352 . S
Cd200 O208 2.277 . S
Cd200 O209 2.356 . S
C201 O206 1.209 . S
C201 O208 1.226 . S
O202 Cd198 2.273 . S
O202 Cd200 2.411 . S
O202 C205 1.320 . S
O203 Cd200 2.333 . S
O203 C205 1.214 . S
O204 Cd200 2.352 . S
O204 C207 1.258 . S
C205 O202 1.320 . S
C205 O203 1.214 . S
O206 Cd198 2.277 . S
O206 C201 1.209 . S
C207 O204 1.258 . S
C207 O209 1.282 . S
O208 Cd200 2.277 . S
O208 C201 1.226 . S
O209 Cd200 2.356 . S
O209 C207 1.282 . S
C210 O211 1.306 . S
C210 O213 1.160 . S
O211 C210 1.306 . S
O211 Cd212 2.228 . S
Cd212 O211 2.228 . S
Cd212 O216 2.273 . S
Cd212 O220 2.277 . S
O213 C210 1.160 . S
O213 Cd214 2.203 . S
Cd214 O213 2.203 . S
Cd214 O216 2.411 . S
Cd214 O217 2.333 . S
Cd214 O218 2.352 . S
Cd214 O222 2.277 . S
Cd214 O223 2.356 . S
C215 O220 1.209 . S
C215 O222 1.226 . S
O216 Cd212 2.273 . S
O216 Cd214 2.411 . S
O216 C219 1.320 . S
O217 Cd214 2.333 . S
O217 C219 1.214 . S
O218 Cd214 2.352 . S
O218 C221 1.258 . S
C219 O216 1.320 . S
C219 O217 1.214 . S
O220 Cd212 2.277 . S
O220 C215 1.209 . S
C221 O218 1.258 . S
C221 O223 1.282 . S
O222 Cd214 2.277 . S
O222 C215 1.226 . S
O223 Cd214 2.356 . S
O223 C221 1.282 . S
C224 O225 1.306 . S
C224 O227 1.160 . S
O225 C224 1.306 . S
O225 Cd226 2.228 1_545 S
Cd226 O225 2.228 1_565 S
Cd226 O230 2.273 . S
Cd226 O234 2.277 . S
O227 C224 1.160 . S
O227 Cd228 2.203 . S
Cd228 O227 2.203 . S
Cd228 O230 2.411 1_545 S
Cd228 O231 2.333 1_545 S
Cd228 O232 2.352 . S
Cd228 O236 2.277 1_545 S
Cd228 O237 2.356 . S
C229 O234 1.209 . S
C229 O236 1.226 . S
O230 Cd226 2.273 . S
O230 Cd228 2.411 1_565 S
O230 C233 1.320 . S
O231 Cd228 2.333 1_565 S
O231 C233 1.214 . S
O232 Cd228 2.352 . S
O232 C235 1.258 . S
C233 O230 1.320 . S
C233 O231 1.214 . S
O234 Cd226 2.277 . S
O234 C229 1.209 . S
C235 O232 1.258 . S
C235 O237 1.282 . S
O236 Cd228 2.277 1_565 S
O236 C229 1.226 . S
O237 Cd228 2.356 . S
O237 C235 1.282 . S
C238 O239 1.306 . S
C238 O241 1.160 . S
O239 C238 1.306 . S
O239 Cd240 2.228 . S
Cd240 O239 2.228 . S
Cd240 O244 2.273 . S
Cd240 O248 2.277 . S
O241 C238 1.160 . S
O241 Cd242 2.203 . S
Cd242 O241 2.203 . S
Cd242 O244 2.411 . S
Cd242 O245 2.333 . S
Cd242 O246 2.352 . S
Cd242 O250 2.277 . S
Cd242 O251 2.356 . S
C243 O248 1.209 . S
C243 O250 1.226 . S
O244 Cd240 2.273 . S
O244 Cd242 2.411 . S
O244 C247 1.320 . S
O245 Cd242 2.333 . S
O245 C247 1.214 . S
O246 Cd242 2.352 . S
O246 C249 1.258 . S
C247 O244 1.320 . S
C247 O245 1.214 . S
O248 Cd240 2.277 . S
O248 C243 1.209 . S
C249 O246 1.258 . S
C249 O251 1.282 . S
O250 Cd242 2.277 . S
O250 C243 1.226 . S
O251 Cd242 2.356 . S
O251 C249 1.282 . S
C252 O253 1.306 . S
C252 O255 1.160 . S
O253 C252 1.306 . S
O253 Cd254 2.228 . S
Cd254 O253 2.228 . S
Cd254 O258 2.273 . S
Cd254 O262 2.277 . S
O255 C252 1.160 . S
O255 Cd256 2.203 . S
Cd256 O255 2.203 . S
Cd256 O258 2.411 . S
Cd256 O259 2.333 . S
Cd256 O260 2.352 . S
Cd256 O264 2.277 . S
Cd256 O265 2.356 . S
C257 O262 1.209 . S
C257 O264 1.226 . S
O258 Cd254 2.273 . S
O258 Cd256 2.411 . S
O258 C261 1.320 . S
O259 Cd256 2.333 . S
O259 C261 1.214 . S
O260 Cd256 2.352 . S
O260 C263 1.258 . S
C261 O258 1.320 . S
C261 O259 1.214 . S
O262 Cd254 2.277 . S
O262 C257 1.209 . S
C263 O260 1.258 . S
C263 O265 1.282 . S
O264 Cd256 2.277 . S
O264 C257 1.226 . S
O265 Cd256 2.356 . S
O265 C263 1.282 . S
C266 O267 1.306 . S
C266 O269 1.160 . S
O267 C266 1.306 . S
O267 Cd268 2.228 . S
Cd268 O267 2.228 . S
Cd268 O272 2.273 . S
Cd268 O276 2.277 . S
O269 C266 1.160 . S
O269 Cd270 2.203 . S
Cd270 O269 2.203 . S
Cd270 O272 2.411 . S
Cd270 O273 2.333 . S
Cd270 O274 2.352 . S
Cd270 O278 2.277 . S
Cd270 O279 2.356 . S
C271 O276 1.209 . S
C271 O278 1.226 . S
O272 Cd268 2.273 . S
O272 Cd270 2.411 . S
O272 C275 1.320 . S
O273 Cd270 2.333 . S
O273 C275 1.214 . S
O274 Cd270 2.352 . S
O274 C277 1.258 . S
C275 O272 1.320 . S
C275 O273 1.214 . S
O276 Cd268 2.277 . S
O276 C271 1.209 . S
C277 O274 1.258 . S
C277 O279 1.282 . S
O278 Cd270 2.277 . S
O278 C271 1.226 . S
O279 Cd270 2.356 . S
O279 C277 1.282 . S
C280 O281 1.306 . S
C280 O283 1.160 . S
O281 C280 1.306 . S
O281 Cd282 2.228 1_554 S
Cd282 O281 2.228 1_556 S
Cd282 O286 2.278 . S
Cd282 O290 2.277 . S
O283 C280 1.160 . S
O283 Cd284 2.203 . S
Cd284 O283 2.203 . S
Cd284 O286 2.404 1_554 S
Cd284 O287 2.333 1_554 S
Cd284 O288 2.352 . S
Cd284 O292 2.256 1_554 S
Cd284 O293 2.356 . S
C285 O290 1.209 . S
C285 O292 1.252 . S
O286 Cd282 2.278 . S
O286 Cd284 2.404 1_556 S
O286 C289 1.329 . S
O287 Cd284 2.333 1_556 S
O287 C289 1.214 . S
O288 Cd284 2.352 . S
O288 C291 1.258 . S
C289 O286 1.329 . S
C289 O287 1.214 . S
O290 Cd282 2.277 . S
O290 C285 1.209 . S
C291 O288 1.258 . S
C291 O293 1.282 . S
O292 Cd284 2.256 1_556 S
O292 C285 1.252 . S
O293 Cd284 2.356 . S
O293 C291 1.282 . S
C294 O295 1.306 . S
C294 O297 1.160 . S
O295 C294 1.306 . S
O295 Cd296 2.228 . S
Cd296 O295 2.228 . S
Cd296 O300 2.273 . S
Cd296 O304 2.277 . S
O297 C294 1.160 . S
O297 Cd298 2.203 . S
Cd298 O297 2.203 . S
Cd298 O300 2.411 . S
Cd298 O301 2.333 . S
Cd298 O302 2.352 . S
Cd298 O306 2.277 . S
Cd298 O307 2.356 . S
C299 O304 1.209 . S
C299 O306 1.226 . S
O300 Cd296 2.273 . S
O300 Cd298 2.411 . S
O300 C303 1.320 . S
O301 Cd298 2.333 . S
O301 C303 1.214 . S
O302 Cd298 2.352 . S
O302 C305 1.258 . S
C303 O300 1.320 . S
C303 O301 1.214 . S
O304 Cd296 2.277 . S
O304 C299 1.209 . S
C305 O302 1.258 . S
C305 O307 1.282 . S
O306 Cd298 2.277 . S
O306 C299 1.226 . S
O307 Cd298 2.356 . S
O307 C305 1.282 . S
C308 O309 1.306 . S
C308 O311 1.160 . S
O309 C308 1.306 . S
O309 Cd310 2.228 . S
Cd310 O309 2.228 . S
Cd310 O314 2.273 . S
Cd310 O318 2.277 . S
O311 C308 1.160 . S
O311 Cd312 2.203 . S
Cd312 O311 2.203 . S
Cd312 O314 2.411 . S
Cd312 O315 2.333 . S
Cd312 O316 2.352 . S
Cd312 O320 2.277 . S
Cd312 O321 2.356 . S
C313 O318 1.209 . S
C313 O320 1.226 . S
O314 Cd310 2.273 . S
O314 Cd312 2.411 . S
O314 C317 1.320 . S
O315 Cd312 2.333 . S
O315 C317 1.214 . S
O316 Cd312 2.352 . S
O316 C319 1.258 . S
C317 O314 1.320 . S
C317 O315 1.214 . S
O318 Cd310 2.277 . S
O318 C313 1.209 . S
C319 O316 1.258 . S
C319 O321 1.282 . S
O320 Cd312 2.277 . S
O320 C313 1.226 . S
O321 Cd312 2.356 . S
O321 C319 1.282 . S
C322 O323 1.306 . S
C322 O325 1.160 . S
O323 C322 1.306 . S
O323 Cd324 2.228 . S
Cd324 O323 2.228 . S
Cd324 O328 2.273 . S
Cd324 O332 2.277 . S
O325 C322 1.160 . S
O325 Cd326 2.203 . S
Cd326 O325 2.203 . S
Cd326 O328 2.411 . S
Cd326 O329 2.333 . S
Cd326 O330 2.352 . S
Cd326 O334 2.277 . S
Cd326 O335 2.356 . S
C327 O332 1.209 . S
C327 O334 1.226 . S
O328 Cd324 2.273 . S
O328 Cd326 2.411 . S
O328 C331 1.320 . S
O329 Cd326 2.333 . S
O329 C331 1.214 . S
O330 Cd326 2.352 . S
O330 C333 1.258 . S
C331 O328 1.320 . S
C331 O329 1.214 . S
O332 Cd324 2.277 . S
O332 C327 1.209 . S
C333 O330 1.258 . S
C333 O335 1.282 . S
O334 Cd326 2.277 . S
O334 C327 1.226 . S
O335 Cd326 2.356 . S
O335 C333 1.282 . S
O336 Mn337 2.163 . S
O336 C350 1.244 . S
Mn337 O336 2.163 . S
Mn337 O340 2.160 . S
Mn337 O341 2.221 . S
Mn337 O343 2.163 . S
Mn337 O345 2.160 . S
Mn337 O355 2.221 . S
O338 Mn339 2.087 . S
O338 C350 1.256 . S
Mn339 O338 2.087 . S
Mn339 O346 2.089 . S
Mn339 O355 2.290 . S
Mn339 O356 2.251 . S
O340 Mn337 2.160 . S
O340 C351 1.239 . S
O341 Mn337 2.221 . S
O341 Mn342 2.290 . S
O341 C352 1.278 . S
Mn342 O341 2.290 . S
Mn342 O344 2.089 . S
Mn342 O347 2.251 . S
Mn342 O348 2.087 . S
O343 Mn337 2.163 . S
O343 C353 1.244 . S
O344 Mn342 2.089 . S
O344 C351 1.256 . S
O345 Mn337 2.160 . S
O345 C354 1.239 . S
O346 Mn339 2.089 . S
O346 C354 1.256 . S
O347 Mn342 2.251 . S
O347 C352 1.241 . S
O348 Mn342 2.087 . S
O348 C353 1.256 . S
C349 O355 1.278 . S
C349 O356 1.241 . S
C350 O336 1.244 . S
C350 O338 1.256 . S
C351 O340 1.239 . S
C351 O344 1.256 . S
C352 O341 1.278 . S
C352 O347 1.241 . S
C353 O343 1.244 . S
C353 O348 1.256 . S
C354 O345 1.239 . S
C354 O346 1.256 . S
O355 Mn337 2.221 . S
O355 Mn339 2.290 . S
O355 C349 1.278 . S
O356 Mn339 2.251 . S
O356 C349 1.241 . S
O357 Mn358 2.163 . S
O357 C371 1.244 . S
Mn358 O357 2.163 . S
Mn358 O361 2.160 . S
Mn358 O362 2.221 . S
Mn358 O364 2.163 . S
Mn358 O366 2.160 . S
Mn358 O376 2.221 . S
O359 Mn360 2.087 . S
O359 C371 1.256 . S
Mn360 O359 2.087 . S
Mn360 O367 2.089 . S
Mn360 O376 2.290 . S
Mn360 O377 2.251 . S
O361 Mn358 2.160 . S
O361 C372 1.239 . S
O362 Mn358 2.221 . S
O362 Mn363 2.290 . S
O362 C373 1.278 . S
Mn363 O362 2.290 . S
Mn363 O365 2.089 . S
Mn363 O368 2.251 . S
Mn363 O369 2.087 . S
O364 Mn358 2.163 . S
O364 C374 1.244 . S
O365 Mn363 2.089 . S
O365 C372 1.256 . S
O366 Mn358 2.160 . S
O366 C375 1.239 . S
O367 Mn360 2.089 . S
O367 C375 1.256 . S
O368 Mn363 2.251 . S
O368 C373 1.241 . S
O369 Mn363 2.087 . S
O369 C374 1.256 . S
C370 O376 1.278 . S
C370 O377 1.241 . S
C371 O357 1.244 . S
C371 O359 1.256 . S
C372 O361 1.239 . S
C372 O365 1.256 . S
C373 O362 1.278 . S
C373 O368 1.241 . S
C374 O364 1.244 . S
C374 O369 1.256 . S
C375 O366 1.239 . S
C375 O367 1.256 . S
O376 Mn358 2.221 . S
O376 Mn360 2.290 . S
O376 C370 1.278 . S
O377 Mn360 2.251 . S
O377 C370 1.241 . S
O378 Mn379 2.163 . S
O378 C392 1.244 . S
Mn379 O378 2.163 . S
Mn379 O382 2.160 . S
Mn379 O383 2.221 . S
Mn379 O385 2.163 . S
Mn379 O387 2.160 . S
Mn379 O397 2.221 . S
O380 Mn381 2.087 . S
O380 C392 1.256 . S
Mn381 O380 2.087 . S
Mn381 O388 2.089 . S
Mn381 O397 2.290 . S
Mn381 O398 2.251 . S
O382 Mn379 2.160 . S
O382 C393 1.239 . S
O383 Mn379 2.221 . S
O383 Mn384 2.290 . S
O383 C394 1.278 . S
Mn384 O383 2.290 . S
Mn384 O386 2.089 . S
Mn384 O389 2.251 . S
Mn384 O390 2.087 . S
O385 Mn379 2.163 . S
O385 C395 1.244 . S
O386 Mn384 2.089 . S
O386 C393 1.256 . S
O387 Mn379 2.160 . S
O387 C396 1.239 . S
O388 Mn381 2.089 . S
O388 C396 1.256 . S
O389 Mn384 2.251 . S
O389 C394 1.241 . S
O390 Mn384 2.087 . S
O390 C395 1.256 . S
C391 O397 1.278 . S
C391 O398 1.241 . S
C392 O378 1.244 . S
C392 O380 1.256 . S
C393 O382 1.239 . S
C393 O386 1.256 . S
C394 O383 1.278 . S
C394 O389 1.241 . S
C395 O385 1.244 . S
C395 O390 1.256 . S
C396 O387 1.239 . S
C396 O388 1.256 . S
O397 Mn379 2.221 . S
O397 Mn381 2.290 . S
O397 C391 1.278 . S
O398 Mn381 2.251 . S
O398 C391 1.241 . S
O399 Mn400 2.163 . S
O399 C413 1.244 . S
Mn400 O399 2.163 . S
Mn400 O403 2.160 . S
Mn400 O404 2.221 . S
Mn400 O406 2.163 . S
Mn400 O408 2.160 . S
Mn400 O418 2.221 . S
O401 Mn402 2.087 . S
O401 C413 1.256 . S
Mn402 O401 2.087 . S
Mn402 O409 2.089 . S
Mn402 O418 2.290 . S
Mn402 O419 2.251 . S
O403 Mn400 2.160 . S
O403 C414 1.239 . S
O404 Mn400 2.221 . S
O404 Mn405 2.290 . S
O404 C415 1.278 . S
Mn405 O404 2.290 . S
Mn405 O407 2.089 . S
Mn405 O410 2.251 . S
Mn405 O411 2.087 . S
O406 Mn400 2.163 . S
O406 C416 1.244 . S
O407 Mn405 2.089 . S
O407 C414 1.256 . S
O408 Mn400 2.160 . S
O408 C417 1.239 . S
O409 Mn402 2.089 . S
O409 C417 1.256 . S
O410 Mn405 2.251 . S
O410 C415 1.241 . S
O411 Mn405 2.087 . S
O411 C416 1.256 . S
C412 O418 1.278 . S
C412 O419 1.241 . S
C413 O399 1.244 . S
C413 O401 1.256 . S
C414 O403 1.239 . S
C414 O407 1.256 . S
C415 O404 1.278 . S
C415 O410 1.241 . S
C416 O406 1.244 . S
C416 O411 1.256 . S
C417 O408 1.239 . S
C417 O409 1.256 . S
O418 Mn400 2.221 . S
O418 Mn402 2.290 . S
O418 C412 1.278 . S
O419 Mn402 2.251 . S
O419 C412 1.241 . S
O420 Mn421 2.163 . S
O420 C434 1.244 . S
Mn421 O420 2.163 . S
Mn421 O424 2.160 . S
Mn421 O425 2.221 . S
Mn421 O427 2.163 . S
Mn421 O429 2.160 . S
Mn421 O439 2.221 . S
O422 Mn423 2.087 . S
O422 C434 1.256 . S
Mn423 O422 2.087 . S
Mn423 O430 2.089 . S
Mn423 O439 2.290 . S
Mn423 O440 2.251 . S
O424 Mn421 2.160 . S
O424 C435 1.239 . S
O425 Mn421 2.221 . S
O425 Mn426 2.290 . S
O425 C436 1.278 . S
Mn426 O425 2.290 . S
Mn426 O428 2.089 . S
Mn426 O431 2.251 . S
Mn426 O432 2.087 . S
O427 Mn421 2.163 . S
O427 C437 1.244 . S
O428 Mn426 2.089 . S
O428 C435 1.256 . S
O429 Mn421 2.160 . S
O429 C438 1.239 . S
O430 Mn423 2.089 . S
O430 C438 1.256 . S
O431 Mn426 2.251 . S
O431 C436 1.241 . S
O432 Mn426 2.087 . S
O432 C437 1.256 . S
C433 O439 1.278 . S
C433 O440 1.241 . S
C434 O420 1.244 . S
C434 O422 1.256 . S
C435 O424 1.239 . S
C435 O428 1.256 . S
C436 O425 1.278 . S
C436 O431 1.241 . S
C437 O427 1.244 . S
C437 O432 1.256 . S
C438 O429 1.239 . S
C438 O430 1.256 . S
O439 Mn421 2.221 . S
O439 Mn423 2.290 . S
O439 C433 1.278 . S
O440 Mn423 2.251 . S
O440 C433 1.241 . S
O441 Mn442 2.163 . S
O441 C455 1.244 . S
Mn442 O441 2.163 . S
Mn442 O445 2.160 . S
Mn442 O446 2.221 . S
Mn442 O448 2.163 . S
Mn442 O450 2.160 . S
Mn442 O460 2.221 . S
O443 Mn444 2.087 . S
O443 C455 1.256 . S
Mn444 O443 2.087 . S
Mn444 O451 2.089 . S
Mn444 O460 2.290 . S
Mn444 O461 2.251 . S
O445 Mn442 2.160 . S
O445 C456 1.239 . S
O446 Mn442 2.221 . S
O446 Mn447 2.290 . S
O446 C457 1.278 . S
Mn447 O446 2.290 . S
Mn447 O449 2.089 . S
Mn447 O452 2.251 . S
Mn447 O453 2.087 . S
O448 Mn442 2.163 . S
O448 C458 1.244 . S
O449 Mn447 2.089 . S
O449 C456 1.256 . S
O450 Mn442 2.160 . S
O450 C459 1.239 . S
O451 Mn444 2.089 . S
O451 C459 1.256 . S
O452 Mn447 2.251 . S
O452 C457 1.241 . S
O453 Mn447 2.087 . S
O453 C458 1.256 . S
C454 O460 1.278 . S
C454 O461 1.241 . S
C455 O441 1.244 . S
C455 O443 1.256 . S
C456 O445 1.239 . S
C456 O449 1.256 . S
C457 O446 1.278 . S
C457 O452 1.241 . S
C458 O448 1.244 . S
C458 O453 1.256 . S
C459 O450 1.239 . S
C459 O451 1.256 . S
O460 Mn442 2.221 . S
O460 Mn444 2.290 . S
O460 C454 1.278 . S
O461 Mn444 2.251 . S
O461 C454 1.241 . S
O462 Mn463 2.163 . S
O462 C476 1.244 . S
Mn463 O462 2.163 . S
Mn463 O466 2.160 . S
Mn463 O467 2.221 . S
Mn463 O469 2.163 . S
Mn463 O471 2.160 . S
Mn463 O481 2.221 . S
O464 Mn465 2.087 . S
O464 C476 1.256 . S
Mn465 O464 2.087 . S
Mn465 O472 2.089 . S
Mn465 O481 2.290 . S
Mn465 O482 2.251 . S
O466 Mn463 2.160 . S
O466 C477 1.239 . S
O467 Mn463 2.221 . S
O467 Mn468 2.290 . S
O467 C478 1.278 . S
Mn468 O467 2.290 . S
Mn468 O470 2.089 . S
Mn468 O473 2.251 . S
Mn468 O474 2.087 . S
O469 Mn463 2.163 . S
O469 C479 1.244 . S
O470 Mn468 2.089 . S
O470 C477 1.256 . S
O471 Mn463 2.160 . S
O471 C480 1.239 . S
O472 Mn465 2.089 . S
O472 C480 1.256 . S
O473 Mn468 2.251 . S
O473 C478 1.241 . S
O474 Mn468 2.087 . S
O474 C479 1.256 . S
C475 O481 1.278 . S
C475 O482 1.241 . S
C476 O462 1.244 . S
C476 O464 1.256 . S
C477 O466 1.239 . S
C477 O470 1.256 . S
C478 O467 1.278 . S
C478 O473 1.241 . S
C479 O469 1.244 . S
C479 O474 1.256 . S
C480 O471 1.239 . S
C480 O472 1.256 . S
O481 Mn463 2.221 . S
O481 Mn465 2.290 . S
O481 C475 1.278 . S
O482 Mn465 2.251 . S
O482 C475 1.241 . S
O483 Mn484 2.163 . S
O483 C497 1.244 . S
Mn484 O483 2.163 . S
Mn484 O487 2.160 . S
Mn484 O488 2.221 . S
Mn484 O490 2.163 . S
Mn484 O492 2.160 . S
Mn484 O502 2.221 . S
O485 Mn486 2.087 . S
O485 C497 1.256 . S
Mn486 O485 2.087 . S
Mn486 O493 2.089 . S
Mn486 O502 2.290 . S
Mn486 O503 2.251 . S
O487 Mn484 2.160 . S
O487 C498 1.239 . S
O488 Mn484 2.221 . S
O488 Mn489 2.290 . S
O488 C499 1.278 . S
Mn489 O488 2.290 . S
Mn489 O491 2.089 . S
Mn489 O494 2.251 . S
Mn489 O495 2.087 . S
O490 Mn484 2.163 . S
O490 C500 1.244 . S
O491 Mn489 2.089 . S
O491 C498 1.256 . S
O492 Mn484 2.160 . S
O492 C501 1.239 . S
O493 Mn486 2.089 . S
O493 C501 1.256 . S
O494 Mn489 2.251 . S
O494 C499 1.241 . S
O495 Mn489 2.087 . S
O495 C500 1.256 . S
C496 O502 1.278 . S
C496 O503 1.241 . S
C497 O483 1.244 . S
C497 O485 1.256 . S
C498 O487 1.239 . S
C498 O491 1.256 . S
C499 O488 1.278 . S
C499 O494 1.241 . S
C500 O490 1.244 . S
C500 O495 1.256 . S
C501 O492 1.239 . S
C501 O493 1.256 . S
O502 Mn484 2.221 . S
O502 Mn486 2.290 . S
O502 C496 1.278 . S
O503 Mn486 2.251 . S
O503 C496 1.241 . S
O504 Mn505 2.163 . S
O504 C518 1.244 . S
Mn505 O504 2.163 . S
Mn505 O508 2.160 . S
Mn505 O509 2.221 . S
Mn505 O511 2.163 . S
Mn505 O513 2.160 . S
Mn505 O523 2.221 . S
O506 Mn507 2.087 . S
O506 C518 1.256 . S
Mn507 O506 2.087 . S
Mn507 O514 2.089 . S
Mn507 O523 2.290 . S
Mn507 O524 2.251 . S
O508 Mn505 2.160 . S
O508 C519 1.239 . S
O509 Mn505 2.221 . S
O509 Mn510 2.290 . S
O509 C520 1.278 . S
Mn510 O509 2.290 . S
Mn510 O512 2.089 . S
Mn510 O515 2.251 . S
Mn510 O516 2.087 . S
O511 Mn505 2.163 . S
O511 C521 1.244 . S
O512 Mn510 2.089 . S
O512 C519 1.256 . S
O513 Mn505 2.160 . S
O513 C522 1.239 . S
O514 Mn507 2.089 . S
O514 C522 1.256 . S
O515 Mn510 2.251 . S
O515 C520 1.241 . S
O516 Mn510 2.087 . S
O516 C521 1.256 . S
C517 O523 1.278 . S
C517 O524 1.241 . S
C518 O504 1.244 . S
C518 O506 1.256 . S
C519 O508 1.239 . S
C519 O512 1.256 . S
C520 O509 1.278 . S
C520 O515 1.241 . S
C521 O511 1.244 . S
C521 O516 1.256 . S
C522 O513 1.239 . S
C522 O514 1.256 . S
O523 Mn505 2.221 . S
O523 Mn507 2.290 . S
O523 C517 1.278 . S
O524 Mn507 2.251 . S
O524 C517 1.241 . S
O525 Mn526 2.163 . S
O525 C539 1.244 . S
Mn526 O525 2.163 . S
Mn526 O529 2.160 . S
Mn526 O530 2.221 . S
Mn526 O532 2.163 . S
Mn526 O534 2.160 . S
Mn526 O544 2.221 . S
O527 Mn528 2.087 . S
O527 C539 1.256 . S
Mn528 O527 2.087 . S
Mn528 O535 2.089 . S
Mn528 O544 2.290 . S
Mn528 O545 2.251 . S
O529 Mn526 2.160 . S
O529 C540 1.239 . S
O530 Mn526 2.221 . S
O530 Mn531 2.290 . S
O530 C541 1.278 . S
Mn531 O530 2.290 . S
Mn531 O533 2.089 . S
Mn531 O536 2.251 . S
Mn531 O537 2.087 . S
O532 Mn526 2.163 . S
O532 C542 1.244 . S
O533 Mn531 2.089 . S
O533 C540 1.256 . S
O534 Mn526 2.160 . S
O534 C543 1.239 . S
O535 Mn528 2.089 . S
O535 C543 1.256 . S
O536 Mn531 2.251 . S
O536 C541 1.241 . S
O537 Mn531 2.087 . S
O537 C542 1.256 . S
C538 O544 1.278 . S
C538 O545 1.241 . S
C539 O525 1.244 . S
C539 O527 1.256 . S
C540 O529 1.239 . S
C540 O533 1.256 . S
C541 O530 1.278 . S
C541 O536 1.241 . S
C542 O532 1.244 . S
C542 O537 1.256 . S
C543 O534 1.239 . S
C543 O535 1.256 . S
O544 Mn526 2.221 . S
O544 Mn528 2.290 . S
O544 C538 1.278 . S
O545 Mn528 2.251 . S
O545 C538 1.241 . S
O546 Mn547 2.163 . S
O546 C560 1.244 . S
Mn547 O546 2.163 . S
Mn547 O550 2.160 . S
Mn547 O551 2.221 . S
Mn547 O553 2.163 . S
Mn547 O555 2.160 . S
Mn547 O565 2.221 . S
O548 Mn549 2.087 . S
O548 C560 1.256 . S
Mn549 O548 2.087 . S
Mn549 O556 2.089 . S
Mn549 O565 2.290 . S
Mn549 O566 2.251 . S
O550 Mn547 2.160 . S
O550 C561 1.239 . S
O551 Mn547 2.221 . S
O551 Mn552 2.290 . S
O551 C562 1.278 . S
Mn552 O551 2.290 . S
Mn552 O554 2.089 . S
Mn552 O557 2.251 . S
Mn552 O558 2.087 . S
O553 Mn547 2.163 . S
O553 C563 1.244 . S
O554 Mn552 2.089 . S
O554 C561 1.256 . S
O555 Mn547 2.160 . S
O555 C564 1.239 . S
O556 Mn549 2.089 . S
O556 C564 1.256 . S
O557 Mn552 2.251 . S
O557 C562 1.241 . S
O558 Mn552 2.087 . S
O558 C563 1.256 . S
C559 O565 1.278 . S
C559 O566 1.241 . S
C560 O546 1.244 . S
C560 O548 1.256 . S
C561 O550 1.239 . S
C561 O554 1.256 . S
C562 O551 1.278 . S
C562 O557 1.241 . S
C563 O553 1.244 . S
C563 O558 1.256 . S
C564 O555 1.239 . S
C564 O556 1.256 . S
O565 Mn547 2.221 . S
O565 Mn549 2.290 . S
O565 C559 1.278 . S
O566 Mn549 2.251 . S
O566 C559 1.241 . S
O567 Mn568 2.163 . S
O567 C581 1.244 . S
Mn568 O567 2.163 . S
Mn568 O571 2.160 . S
Mn568 O572 2.221 . S
Mn568 O574 2.163 . S
Mn568 O576 2.160 . S
Mn568 O586 2.221 . S
O569 Mn570 2.087 . S
O569 C581 1.256 . S
Mn570 O569 2.087 . S
Mn570 O577 2.089 . S
Mn570 O586 2.290 . S
Mn570 O587 2.251 . S
O571 Mn568 2.160 . S
O571 C582 1.239 . S
O572 Mn568 2.221 . S
O572 Mn573 2.290 . S
O572 C583 1.278 . S
Mn573 O572 2.290 . S
Mn573 O575 2.089 . S
Mn573 O578 2.251 . S
Mn573 O579 2.087 . S
O574 Mn568 2.163 . S
O574 C584 1.244 . S
O575 Mn573 2.089 . S
O575 C582 1.256 . S
O576 Mn568 2.160 . S
O576 C585 1.239 . S
O577 Mn570 2.089 . S
O577 C585 1.256 . S
O578 Mn573 2.251 . S
O578 C583 1.241 . S
O579 Mn573 2.087 . S
O579 C584 1.256 . S
C580 O586 1.278 . S
C580 O587 1.241 . S
C581 O567 1.244 . S
C581 O569 1.256 . S
C582 O571 1.239 . S
C582 O575 1.256 . S
C583 O572 1.278 . S
C583 O578 1.241 . S
C584 O574 1.244 . S
C584 O579 1.256 . S
C585 O576 1.239 . S
C585 O577 1.256 . S
O586 Mn568 2.221 . S
O586 Mn570 2.290 . S
O586 C580 1.278 . S
O587 Mn570 2.251 . S
O587 C580 1.241 . S
O588 Mn589 2.163 . S
O588 C602 1.244 . S
Mn589 O588 2.163 . S
Mn589 O592 2.160 . S
Mn589 O593 2.221 . S
Mn589 O595 2.163 . S
Mn589 O597 2.160 . S
Mn589 O607 2.221 . S
O590 Mn591 2.087 . S
O590 C602 1.256 . S
Mn591 O590 2.087 . S
Mn591 O598 2.089 . S
Mn591 O607 2.290 . S
Mn591 O608 2.251 . S
O592 Mn589 2.160 . S
O592 C603 1.239 . S
O593 Mn589 2.221 . S
O593 Mn594 2.290 . S
O593 C604 1.278 . S
Mn594 O593 2.290 . S
Mn594 O596 2.089 . S
Mn594 O599 2.251 . S
Mn594 O600 2.087 . S
O595 Mn589 2.163 . S
O595 C605 1.244 . S
O596 Mn594 2.089 . S
O596 C603 1.256 . S
O597 Mn589 2.160 . S
O597 C606 1.239 . S
O598 Mn591 2.089 . S
O598 C606 1.256 . S
O599 Mn594 2.251 . S
O599 C604 1.241 . S
O600 Mn594 2.087 . S
O600 C605 1.256 . S
C601 O607 1.278 . S
C601 O608 1.241 . S
C602 O588 1.244 . S
C602 O590 1.256 . S
C603 O592 1.239 . S
C603 O596 1.256 . S
C604 O593 1.278 . S
C604 O599 1.241 . S
C605 O595 1.244 . S
C605 O600 1.256 . S
C606 O597 1.239 . S
C606 O598 1.256 . S
O607 Mn589 2.221 . S
O607 Mn591 2.290 . S
O607 C601 1.278 . S
O608 Mn591 2.251 . S
O608 C601 1.241 . S
O609 Mn610 2.163 . S
O609 C623 1.244 . S
Mn610 O609 2.163 . S
Mn610 O613 2.160 . S
Mn610 O614 2.221 . S
Mn610 O616 2.163 . S
Mn610 O618 2.160 . S
Mn610 O628 2.221 . S
O611 Mn612 2.087 . S
O611 C623 1.256 . S
Mn612 O611 2.087 . S
Mn612 O619 2.089 . S
Mn612 O628 2.290 . S
Mn612 O629 2.251 . S
O613 Mn610 2.160 . S
O613 C624 1.239 . S
O614 Mn610 2.221 . S
O614 Mn615 2.290 . S
O614 C625 1.278 . S
Mn615 O614 2.290 . S
Mn615 O617 2.089 . S
Mn615 O620 2.251 . S
Mn615 O621 2.087 . S
O616 Mn610 2.163 . S
O616 C626 1.244 . S
O617 Mn615 2.089 . S
O617 C624 1.256 . S
O618 Mn610 2.160 . S
O618 C627 1.239 . S
O619 Mn612 2.089 . S
O619 C627 1.256 . S
O620 Mn615 2.251 . S
O620 C625 1.241 . S
O621 Mn615 2.087 . S
O621 C626 1.256 . S
C622 O628 1.278 . S
C622 O629 1.241 . S
C623 O609 1.244 . S
C623 O611 1.256 . S
C624 O613 1.239 . S
C624 O617 1.256 . S
C625 O614 1.278 . S
C625 O620 1.241 . S
C626 O616 1.244 . S
C626 O621 1.256 . S
C627 O618 1.239 . S
C627 O619 1.256 . S
O628 Mn610 2.221 . S
O628 Mn612 2.290 . S
O628 C622 1.278 . S
O629 Mn612 2.251 . S
O629 C622 1.241 . S
O630 Mn631 2.163 . S
O630 C644 1.244 . S
Mn631 O630 2.163 . S
Mn631 O634 2.160 . S
Mn631 O635 2.221 . S
Mn631 O637 2.163 . S
Mn631 O639 2.160 . S
Mn631 O649 2.221 . S
O632 Mn633 2.087 . S
O632 C644 1.256 . S
Mn633 O632 2.087 . S
Mn633 O640 2.089 . S
Mn633 O649 2.290 . S
Mn633 O650 2.251 . S
O634 Mn631 2.160 . S
O634 C645 1.239 . S
O635 Mn631 2.221 . S
O635 Mn636 2.290 . S
O635 C646 1.278 . S
Mn636 O635 2.290 . S
Mn636 O638 2.089 . S
Mn636 O641 2.251 . S
Mn636 O642 2.087 . S
O637 Mn631 2.163 . S
O637 C647 1.244 . S
O638 Mn636 2.089 . S
O638 C645 1.256 . S
O639 Mn631 2.160 . S
O639 C648 1.239 . S
O640 Mn633 2.089 . S
O640 C648 1.256 . S
O641 Mn636 2.251 . S
O641 C646 1.241 . S
O642 Mn636 2.087 . S
O642 C647 1.256 . S
C643 O649 1.278 . S
C643 O650 1.241 . S
C644 O630 1.244 . S
C644 O632 1.256 . S
C645 O634 1.239 . S
C645 O638 1.256 . S
C646 O635 1.278 . S
C646 O641 1.241 . S
C647 O637 1.244 . S
C647 O642 1.256 . S
C648 O639 1.239 . S
C648 O640 1.256 . S
O649 Mn631 2.221 . S
O649 Mn633 2.290 . S
O649 C643 1.278 . S
O650 Mn633 2.251 . S
O650 C643 1.241 . S
O651 Mn652 2.163 . S
O651 C665 1.244 . S
Mn652 O651 2.163 . S
Mn652 O655 2.160 . S
Mn652 O656 2.221 . S
Mn652 O658 2.163 . S
Mn652 O660 2.160 . S
Mn652 O670 2.221 . S
O653 Mn654 2.087 . S
O653 C665 1.256 . S
Mn654 O653 2.087 . S
Mn654 O661 2.089 . S
Mn654 O670 2.290 . S
Mn654 O671 2.251 . S
O655 Mn652 2.160 . S
O655 C666 1.239 . S
O656 Mn652 2.221 . S
O656 Mn657 2.290 . S
O656 C667 1.278 . S
Mn657 O656 2.290 . S
Mn657 O659 2.089 . S
Mn657 O662 2.251 . S
Mn657 O663 2.087 . S
O658 Mn652 2.163 . S
O658 C668 1.244 . S
O659 Mn657 2.089 . S
O659 C666 1.256 . S
O660 Mn652 2.160 . S
O660 C669 1.239 . S
O661 Mn654 2.089 . S
O661 C669 1.256 . S
O662 Mn657 2.251 . S
O662 C667 1.241 . S
O663 Mn657 2.087 . S
O663 C668 1.256 . S
C664 O670 1.278 . S
C664 O671 1.241 . S
C665 O651 1.244 . S
C665 O653 1.256 . S
C666 O655 1.239 . S
C666 O659 1.256 . S
C667 O656 1.278 . S
C667 O662 1.241 . S
C668 O658 1.244 . S
C668 O663 1.256 . S
C669 O660 1.239 . S
C669 O661 1.256 . S
O670 Mn652 2.221 . S
O670 Mn654 2.290 . S
O670 C664 1.278 . S
O671 Mn654 2.251 . S
O671 C664 1.241 . S
H672 C680 0.929 . S
H673 C682 0.930 . S
H674 C684 0.930 . S
H675 C687 0.929 . S
H676 C690 0.930 . S
H677 C692 0.960 . S
H678 C692 0.960 . S
H679 C692 0.960 . S
C680 H672 0.929 . S
C680 C681 1.377 . S
C680 C682 1.384 . S
C681 C680 1.377 . S
C681 C687 1.390 . S
C682 H673 0.930 . S
C682 C680 1.384 . S
C682 C683 1.372 . S
C683 C682 1.372 . S
C683 C684 1.400 . S
C683 C688 1.490 . S
C684 H674 0.930 . S
C684 C683 1.400 . S
C684 C687 1.386 . S
H685 C701 0.930 . S
H686 C702 0.931 . S
C687 H675 0.929 . S
C687 C681 1.390 . S
C687 C684 1.386 . S
C688 C683 1.490 . S
C688 C690 1.395 . S
C688 C691 1.403 . S
H689 C695 0.930 . S
C690 H676 0.930 . S
C690 C688 1.395 . S
C690 C693 1.403 . S
C691 C688 1.403 . S
C691 C692 1.524 . S
C691 C695 1.400 . S
C692 H677 0.960 . S
C692 H678 0.960 . S
C692 H679 0.960 . S
C692 C691 1.524 . S
C693 C690 1.403 . S
C693 C694 1.392 . S
C693 C697 1.495 . S
C694 C693 1.392 . S
C694 C695 1.385 . S
C694 C696 1.478 . S
C695 H689 0.930 . S
C695 C691 1.400 . S
C695 C694 1.385 . S
C696 C694 1.478 . S
C696 C698 1.381 . S
C696 C702 1.383 . S
C697 C693 1.495 . S
C697 H703 0.959 . S
C697 H704 0.961 . S
C697 H705 0.960 . S
C698 C696 1.381 . S
C698 C699 1.394 . S
C698 H706 0.930 . S
C699 C698 1.394 . S
C699 C700 1.383 . S
C699 H707 0.929 . S
C700 C699 1.383 . S
C700 C701 1.377 . S
C701 H685 0.930 . S
C701 C700 1.377 . S
C701 C702 1.379 . S
C702 H686 0.931 . S
C702 C696 1.383 . S
C702 C701 1.379 . S
H703 C697 0.959 . S
H704 C697 0.961 . S
H705 C697 0.960 . S
H706 C698 0.930 . S
H707 C699 0.929 . S
H708 C716 0.929 . S
H709 C718 0.930 . S
H710 C720 0.930 . S
H711 C723 0.929 . S
H712 C726 0.930 . S
H713 C728 0.960 . S
H714 C728 0.960 . S
H715 C728 0.960 . S
C716 H708 0.929 . S
C716 C717 1.377 . S
C716 C718 1.384 . S
C717 C716 1.377 . S
C717 C723 1.390 . S
C718 H709 0.930 . S
C718 C716 1.384 . S
C718 C719 1.372 . S
C719 C718 1.372 . S
C719 C720 1.400 . S
C719 C724 1.490 . S
C720 H710 0.930 . S
C720 C719 1.400 . S
C720 C723 1.386 . S
H721 C737 0.930 . S
H722 C738 0.931 . S
C723 H711 0.929 . S
C723 C717 1.390 . S
C723 C720 1.386 . S
C724 C719 1.490 . S
C724 C726 1.395 . S
C724 C727 1.403 . S
H725 C731 0.930 . S
C726 H712 0.930 . S
C726 C724 1.395 . S
C726 C729 1.403 . S
C727 C724 1.403 . S
C727 C728 1.524 . S
C727 C731 1.400 . S
C728 H713 0.960 . S
C728 H714 0.960 . S
C728 H715 0.960 . S
C728 C727 1.524 . S
C729 C726 1.403 . S
C729 C730 1.392 . S
C729 C733 1.495 . S
C730 C729 1.392 . S
C730 C731 1.385 . S
C730 C732 1.478 . S
C731 H725 0.930 . S
C731 C727 1.400 . S
C731 C730 1.385 . S
C732 C730 1.478 . S
C732 C734 1.381 . S
C732 C738 1.383 . S
C733 C729 1.495 . S
C733 H739 0.959 . S
C733 H740 0.961 . S
C733 H741 0.960 . S
C734 C732 1.381 . S
C734 C735 1.394 . S
C734 H742 0.930 . S
C735 C734 1.394 . S
C735 C736 1.383 . S
C735 H743 0.929 . S
C736 C735 1.383 . S
C736 C737 1.377 . S
C737 H721 0.930 . S
C737 C736 1.377 . S
C737 C738 1.379 . S
C738 H722 0.931 . S
C738 C732 1.383 . S
C738 C737 1.379 . S
H739 C733 0.959 . S
H740 C733 0.961 . S
H741 C733 0.960 . S
H742 C734 0.930 . S
H743 C735 0.929 . S
H744 C752 0.929 . S
H745 C754 0.930 . S
H746 C756 0.930 . S
H747 C759 0.929 . S
H748 C762 0.930 . S
H749 C764 0.960 . S
H750 C764 0.960 . S
H751 C764 0.960 . S
C752 H744 0.929 . S
C752 C753 1.377 . S
C752 C754 1.384 . S
C753 C752 1.377 . S
C753 C759 1.390 . S
C754 H745 0.930 . S
C754 C752 1.384 . S
C754 C755 1.372 . S
C755 C754 1.372 . S
C755 C756 1.400 . S
C755 C760 1.490 . S
C756 H746 0.930 . S
C756 C755 1.400 . S
C756 C759 1.386 . S
H757 C773 0.930 . S
H758 C774 0.931 . S
C759 H747 0.929 . S
C759 C753 1.390 . S
C759 C756 1.386 . S
C760 C755 1.490 . S
C760 C762 1.395 . S
C760 C763 1.403 . S
H761 C767 0.930 . S
C762 H748 0.930 . S
C762 C760 1.395 . S
C762 C765 1.403 . S
C763 C760 1.403 . S
C763 C764 1.524 . S
C763 C767 1.400 . S
C764 H749 0.960 . S
C764 H750 0.960 . S
C764 H751 0.960 . S
C764 C763 1.524 . S
C765 C762 1.403 . S
C765 C766 1.392 . S
C765 C769 1.495 . S
C766 C765 1.392 . S
C766 C767 1.385 . S
C766 C768 1.478 . S
C767 H761 0.930 . S
C767 C763 1.400 . S
C767 C766 1.385 . S
C768 C766 1.478 . S
C768 C770 1.381 . S
C768 C774 1.383 . S
C769 C765 1.495 . S
C769 H775 0.959 . S
C769 H776 0.961 . S
C769 H777 0.960 . S
C770 C768 1.381 . S
C770 C771 1.394 . S
C770 H778 0.930 . S
C771 C770 1.394 . S
C771 C772 1.383 . S
C771 H779 0.929 . S
C772 C771 1.383 . S
C772 C773 1.377 . S
C773 H757 0.930 . S
C773 C772 1.377 . S
C773 C774 1.379 . S
C774 H758 0.931 . S
C774 C768 1.383 . S
C774 C773 1.379 . S
H775 C769 0.959 . S
H776 C769 0.961 . S
H777 C769 0.960 . S
H778 C770 0.930 . S
H779 C771 0.929 . S
H780 C788 0.929 . S
H781 C790 0.930 . S
H782 C792 0.930 . S
H783 C795 0.929 . S
H784 C798 0.930 . S
H785 C800 0.960 . S
H786 C800 0.960 . S
H787 C800 0.960 . S
C788 H780 0.929 . S
C788 C789 1.377 . S
C788 C790 1.384 . S
C789 C788 1.377 . S
C789 C795 1.390 . S
C790 H781 0.930 . S
C790 C788 1.384 . S
C790 C791 1.372 . S
C791 C790 1.372 . S
C791 C792 1.400 . S
C791 C796 1.490 . S
C792 H782 0.930 . S
C792 C791 1.400 . S
C792 C795 1.386 . S
H793 C809 0.930 . S
H794 C810 0.931 . S
C795 H783 0.929 . S
C795 C789 1.390 . S
C795 C792 1.386 . S
C796 C791 1.490 . S
C796 C798 1.395 . S
C796 C799 1.403 . S
H797 C803 0.930 . S
C798 H784 0.930 . S
C798 C796 1.395 . S
C798 C801 1.403 . S
C799 C796 1.403 . S
C799 C800 1.524 . S
C799 C803 1.400 . S
C800 H785 0.960 . S
C800 H786 0.960 . S
C800 H787 0.960 . S
C800 C799 1.524 . S
C801 C798 1.403 . S
C801 C802 1.392 . S
C801 C805 1.495 1_554 S
C802 C801 1.392 . S
C802 C803 1.385 . S
C802 C804 1.478 1_554 S
C803 H797 0.930 . S
C803 C799 1.400 . S
C803 C802 1.385 . S
C804 C802 1.478 1_556 S
C804 C806 1.381 . S
C804 C810 1.383 . S
C805 C801 1.495 1_556 S
C805 H811 0.959 1_556 S
C805 H812 0.961 . S
C805 H813 0.960 . S
C806 C804 1.381 . S
C806 C807 1.394 . S
C806 H814 0.930 . S
C807 C806 1.394 . S
C807 C808 1.383 . S
C807 H815 0.929 . S
C808 C807 1.383 . S
C808 C809 1.377 . S
C809 H793 0.930 . S
C809 C808 1.377 . S
C809 C810 1.379 . S
C810 H794 0.931 . S
C810 C804 1.383 . S
C810 C809 1.379 . S
H811 C805 0.959 1_554 S
H812 C805 0.961 . S
H813 C805 0.960 . S
H814 C806 0.930 . S
H815 C807 0.929 . S
H816 C824 0.929 . S
H817 C826 0.930 . S
H818 C828 0.930 . S
H819 C831 0.929 . S
H820 C834 0.930 . S
H821 C836 0.960 . S
H822 C836 0.960 . S
H823 C836 0.960 . S
C824 H816 0.929 . S
C824 C825 1.377 . S
C824 C826 1.384 . S
C825 C824 1.377 . S
C825 C831 1.390 . S
C826 H817 0.930 . S
C826 C824 1.384 . S
C826 C827 1.372 . S
C827 C826 1.372 . S
C827 C828 1.400 . S
C827 C832 1.490 . S
C828 H818 0.930 . S
C828 C827 1.400 . S
C828 C831 1.386 . S
H829 C845 0.930 . S
H830 C846 0.931 . S
C831 H819 0.929 . S
C831 C825 1.390 . S
C831 C828 1.386 . S
C832 C827 1.490 . S
C832 C834 1.395 . S
C832 C835 1.403 . S
H833 C839 0.930 . S
C834 H820 0.930 . S
C834 C832 1.395 . S
C834 C837 1.403 . S
C835 C832 1.403 . S
C835 C836 1.524 . S
C835 C839 1.400 . S
C836 H821 0.960 . S
C836 H822 0.960 . S
C836 H823 0.960 . S
C836 C835 1.524 . S
C837 C834 1.403 . S
C837 C838 1.392 . S
C837 C841 1.495 . S
C838 C837 1.392 . S
C838 C839 1.385 . S
C838 C840 1.478 . S
C839 H833 0.930 . S
C839 C835 1.400 . S
C839 C838 1.385 . S
C840 C838 1.478 . S
C840 C842 1.381 . S
C840 C846 1.383 . S
C841 C837 1.495 . S
C841 H847 0.959 . S
C841 H848 0.961 . S
C841 H849 0.960 . S
C842 C840 1.381 . S
C842 C843 1.394 . S
C842 H850 0.930 . S
C843 C842 1.394 . S
C843 C844 1.383 . S
C843 H851 0.929 . S
C844 C843 1.383 . S
C844 C845 1.377 . S
C845 H829 0.930 . S
C845 C844 1.377 . S
C845 C846 1.379 . S
C846 H830 0.931 . S
C846 C840 1.383 . S
C846 C845 1.379 . S
H847 C841 0.959 . S
H848 C841 0.961 . S
H849 C841 0.960 . S
H850 C842 0.930 . S
H851 C843 0.929 . S
H852 C860 0.929 . S
H853 C862 0.930 . S
H854 C864 0.930 . S
H855 C867 0.929 . S
H856 C870 0.930 . S
H857 C872 0.960 . S
H858 C872 0.960 . S
H859 C872 0.960 . S
C860 H852 0.929 . S
C860 C861 1.377 . S
C860 C862 1.384 . S
C861 C860 1.377 . S
C861 C867 1.390 . S
C862 H853 0.930 . S
C862 C860 1.384 . S
C862 C863 1.372 . S
C863 C862 1.372 . S
C863 C864 1.400 . S
C863 C868 1.490 . S
C864 H854 0.930 . S
C864 C863 1.400 . S
C864 C867 1.386 . S
H865 C881 0.930 . S
H866 C882 0.931 . S
C867 H855 0.929 . S
C867 C861 1.390 . S
C867 C864 1.386 . S
C868 C863 1.490 . S
C868 C870 1.395 . S
C868 C871 1.403 . S
H869 C875 0.930 . S
C870 H856 0.930 . S
C870 C868 1.395 . S
C870 C873 1.403 . S
C871 C868 1.403 . S
C871 C872 1.524 . S
C871 C875 1.400 . S
C872 H857 0.960 . S
C872 H858 0.960 . S
C872 H859 0.960 . S
C872 C871 1.524 . S
C873 C870 1.403 . S
C873 C874 1.392 . S
C873 C877 1.495 . S
C874 C873 1.392 . S
C874 C875 1.385 . S
C874 C876 1.478 . S
C875 H869 0.930 . S
C875 C871 1.400 . S
C875 C874 1.385 . S
C876 C874 1.478 . S
C876 C878 1.381 . S
C876 C882 1.383 . S
C877 C873 1.495 . S
C877 H883 0.959 . S
C877 H884 0.961 . S
C877 H885 0.960 . S
C878 C876 1.381 . S
C878 C879 1.394 . S
C878 H886 0.930 . S
C879 C878 1.394 . S
C879 C880 1.383 . S
C879 H887 0.929 . S
C880 C879 1.383 . S
C880 C881 1.377 . S
C881 H865 0.930 . S
C881 C880 1.377 . S
C881 C882 1.379 . S
C882 H866 0.931 . S
C882 C876 1.383 . S
C882 C881 1.379 . S
H883 C877 0.959 . S
H884 C877 0.961 . S
H885 C877 0.960 . S
H886 C878 0.930 . S
H887 C879 0.929 . S
H888 C896 0.929 . S
H889 C898 0.930 . S
H890 C900 0.930 . S
H891 C903 0.929 . S
H892 C906 0.930 . S
H893 C908 0.960 . S
H894 C908 0.960 . S
H895 C908 0.960 . S
C896 H888 0.929 . S
C896 C897 1.377 . S
C896 C898 1.384 . S
C897 C896 1.377 . S
C897 C903 1.390 . S
C898 H889 0.930 . S
C898 C896 1.384 . S
C898 C899 1.372 . S
C899 C898 1.372 . S
C899 C900 1.400 . S
C899 C904 1.490 . S
C900 H890 0.930 . S
C900 C899 1.400 . S
C900 C903 1.386 . S
H901 C917 0.930 . S
H902 C918 0.931 . S
C903 H891 0.929 . S
C903 C897 1.390 . S
C903 C900 1.386 . S
C904 C899 1.490 . S
C904 C906 1.395 . S
C904 C907 1.403 . S
H905 C911 0.930 . S
C906 H892 0.930 . S
C906 C904 1.395 . S
C906 C909 1.403 . S
C907 C904 1.403 . S
C907 C908 1.524 . S
C907 C911 1.400 . S
C908 H893 0.960 . S
C908 H894 0.960 . S
C908 H895 0.960 . S
C908 C907 1.524 . S
C909 C906 1.403 . S
C909 C910 1.392 . S
C909 C913 1.495 . S
C910 C909 1.392 . S
C910 C911 1.385 . S
C910 C912 1.478 . S
C911 H905 0.930 . S
C911 C907 1.400 . S
C911 C910 1.385 . S
C912 C910 1.478 . S
C912 C914 1.381 . S
C912 C918 1.383 . S
C913 C909 1.495 . S
C913 H919 0.959 . S
C913 H920 0.961 . S
C913 H921 0.960 . S
C914 C912 1.381 . S
C914 C915 1.394 . S
C914 H922 0.930 . S
C915 C914 1.394 . S
C915 C916 1.383 . S
C915 H923 0.929 . S
C916 C915 1.383 . S
C916 C917 1.377 . S
C917 H901 0.930 . S
C917 C916 1.377 . S
C917 C918 1.379 . S
C918 H902 0.931 . S
C918 C912 1.383 . S
C918 C917 1.379 . S
H919 C913 0.959 . S
H920 C913 0.961 . S
H921 C913 0.960 . S
H922 C914 0.930 . S
H923 C915 0.929 . S
H924 C932 0.929 . S
H925 C934 0.930 . S
H926 C936 0.930 . S
H927 C939 0.929 . S
H928 C942 0.976 . S
H929 C944 0.960 . S
H930 C944 0.960 . S
H931 C944 0.960 . S
C932 H924 0.929 . S
C932 C933 1.377 . S
C932 C934 1.384 . S
C933 C932 1.377 . S
C933 C939 1.390 . S
C934 H925 0.930 . S
C934 C932 1.384 . S
C934 C935 1.372 . S
C935 C934 1.372 . S
C935 C936 1.400 . S
C935 C940 1.487 . S
C936 H926 0.930 . S
C936 C935 1.400 . S
C936 C939 1.386 . S
H937 C953 0.930 . S
H938 C954 0.931 . S
C939 H927 0.929 . S
C939 C933 1.390 . S
C939 C936 1.386 . S
C940 C935 1.487 . S
C940 C942 1.394 . S
C940 C943 1.406 1_556 S
H941 C947 0.930 . S
C942 H928 0.976 . S
C942 C940 1.394 . S
C942 C945 1.361 1_556 S
C943 C940 1.406 1_554 S
C943 C944 1.524 . S
C943 C947 1.400 . S
C944 H929 0.960 . S
C944 H930 0.960 . S
C944 H931 0.960 . S
C944 C943 1.524 . S
C945 C942 1.361 1_554 S
C945 C946 1.392 . S
C945 C949 1.495 . S
C946 C945 1.392 . S
C946 C947 1.385 . S
C946 C948 1.478 . S
C947 H941 0.930 . S
C947 C943 1.400 . S
C947 C946 1.385 . S
C948 C946 1.478 . S
C948 C950 1.381 . S
C948 C954 1.383 . S
C949 C945 1.495 . S
C949 H955 1.000 . S
C949 H956 0.961 . S
C949 H957 0.960 . S
C950 C948 1.381 . S
C950 C951 1.394 . S
C950 H958 0.930 . S
C951 C950 1.394 . S
C951 C952 1.383 . S
C951 H959 0.929 . S
C952 C951 1.383 . S
C952 C953 1.377 . S
C953 H937 0.930 . S
C953 C952 1.377 . S
C953 C954 1.379 . S
C954 H938 0.931 . S
C954 C948 1.383 . S
C954 C953 1.379 . S
H955 C949 1.000 . S
H956 C949 0.961 . S
H957 C949 0.960 . S
H958 C950 0.930 . S
H959 C951 0.929 . S
H960 C968 0.929 . S
H961 C970 0.930 . S
H962 C972 0.930 . S
H963 C975 0.929 . S
H964 C978 0.930 . S
H965 C980 0.960 . S
H966 C980 0.960 . S
H967 C980 0.960 . S
C968 H960 0.929 . S
C968 C969 1.377 . S
C968 C970 1.384 . S
C969 C968 1.377 . S
C969 C975 1.390 . S
C970 H961 0.930 . S
C970 C968 1.384 . S
C970 C971 1.372 . S
C971 C970 1.372 . S
C971 C972 1.400 . S
C971 C976 1.490 . S
C972 H962 0.930 . S
C972 C971 1.400 . S
C972 C975 1.386 . S
H973 C989 0.930 . S
H974 C990 0.931 . S
C975 H963 0.929 . S
C975 C969 1.390 . S
C975 C972 1.386 . S
C976 C971 1.490 . S
C976 C978 1.395 . S
C976 C979 1.403 . S
H977 C983 0.930 . S
C978 H964 0.930 . S
C978 C976 1.395 . S
C978 C981 1.403 . S
C979 C976 1.403 . S
C979 C980 1.524 . S
C979 C983 1.400 . S
C980 H965 0.960 . S
C980 H966 0.960 . S
C980 H967 0.960 . S
C980 C979 1.524 . S
C981 C978 1.403 . S
C981 C982 1.392 . S
C981 C985 1.495 . S
C982 C981 1.392 . S
C982 C983 1.385 . S
C982 C984 1.478 . S
C983 H977 0.930 . S
C983 C979 1.400 . S
C983 C982 1.385 . S
C984 C982 1.478 . S
C984 C986 1.381 . S
C984 C990 1.383 . S
C985 C981 1.495 . S
C985 H991 0.959 . S
C985 H992 0.961 . S
C985 H993 0.960 . S
C986 C984 1.381 . S
C986 C987 1.394 . S
C986 H994 0.930 . S
C987 C986 1.394 . S
C987 C988 1.383 . S
C987 H995 0.929 . S
C988 C987 1.383 . S
C988 C989 1.377 . S
C989 H973 0.930 . S
C989 C988 1.377 . S
C989 C990 1.379 . S
C990 H974 0.931 . S
C990 C984 1.383 . S
C990 C989 1.379 . S
H991 C985 0.959 . S
H992 C985 0.961 . S
H993 C985 0.960 . S
H994 C986 0.930 . S
H995 C987 0.929 . S
H996 C1004 0.929 . S
H997 C1006 0.930 . S
H998 C1008 0.930 . S
H999 C1011 0.929 . S
H1000 C1014 0.930 . S
H1001 C1016 0.960 . S
H1002 C1016 0.960 . S
H1003 C1016 0.960 . S
C1004 H996 0.929 . S
C1004 C1005 1.377 . S
C1004 C1006 1.384 . S
C1005 C1004 1.377 . S
C1005 C1011 1.390 . S
C1006 H997 0.930 . S
C1006 C1004 1.384 . S
C1006 C1007 1.372 . S
C1007 C1006 1.372 . S
C1007 C1008 1.400 . S
C1007 C1012 1.490 . S
C1008 H998 0.930 . S
C1008 C1007 1.400 . S
C1008 C1011 1.386 . S
H1009 C1025 0.930 . S
H1010 C1026 0.931 . S
C1011 H999 0.929 . S
C1011 C1005 1.390 . S
C1011 C1008 1.386 . S
C1012 C1007 1.490 . S
C1012 C1014 1.395 . S
C1012 C1015 1.403 . S
H1013 C1019 0.930 . S
C1014 H1000 0.930 . S
C1014 C1012 1.395 . S
C1014 C1017 1.403 . S
C1015 C1012 1.403 . S
C1015 C1016 1.524 . S
C1015 C1019 1.400 . S
C1016 H1001 0.960 . S
C1016 H1002 0.960 . S
C1016 H1003 0.960 . S
C1016 C1015 1.524 . S
C1017 C1014 1.403 . S
C1017 C1018 1.392 . S
C1017 C1021 1.495 . S
C1018 C1017 1.392 . S
C1018 C1019 1.385 . S
C1018 C1020 1.478 1_545 S
C1019 H1013 0.930 . S
C1019 C1015 1.400 . S
C1019 C1018 1.385 . S
C1020 C1018 1.478 1_565 S
C1020 C1022 1.381 . S
C1020 C1026 1.383 . S
C1021 C1017 1.495 . S
C1021 H1027 0.959 . S
C1021 H1028 0.961 . S
C1021 H1029 0.960 . S
C1022 C1020 1.381 . S
C1022 C1023 1.394 . S
C1022 H1030 0.930 . S
C1023 C1022 1.394 . S
C1023 C1024 1.383 . S
C1023 H1031 0.929 . S
C1024 C1023 1.383 . S
C1024 C1025 1.377 . S
C1025 H1009 0.930 . S
C1025 C1024 1.377 . S
C1025 C1026 1.379 . S
C1026 H1010 0.931 . S
C1026 C1020 1.383 . S
C1026 C1025 1.379 . S
H1027 C1021 0.959 . S
H1028 C1021 0.961 . S
H1029 C1021 0.960 . S
H1030 C1022 0.930 . S
H1031 C1023 0.929 . S
H1032 C1040 0.929 . S
H1033 C1042 0.930 . S
H1034 C1044 0.930 1_565 S
H1035 C1047 0.929 . S
H1036 C1050 0.930 . S
H1037 C1052 0.960 . S
H1038 C1052 0.962 1_545 S
H1039 C1052 0.960 . S
C1040 H1032 0.929 . S
C1040 C1041 1.377 . S
C1040 C1042 1.384 . S
C1041 C1040 1.377 . S
C1041 C1047 1.390 . S
C1042 H1033 0.930 . S
C1042 C1040 1.384 . S
C1042 C1043 1.372 . S
C1043 C1042 1.372 . S
C1043 C1044 1.400 . S
C1043 C1048 1.490 . S
C1044 H1034 0.930 1_545 S
C1044 C1043 1.400 . S
C1044 C1047 1.386 . S
H1045 C1061 0.930 . S
H1046 C1062 0.931 . S
C1047 H1035 0.929 . S
C1047 C1041 1.390 . S
C1047 C1044 1.386 . S
C1048 C1043 1.490 . S
C1048 C1050 1.395 . S
C1048 C1051 1.403 1_545 S
H1049 C1055 0.930 . S
C1050 H1036 0.930 . S
C1050 C1048 1.395 . S
C1050 C1053 1.403 1_545 S
C1051 C1048 1.403 1_565 S
C1051 C1052 1.524 . S
C1051 C1055 1.400 . S
C1052 H1037 0.960 . S
C1052 H1038 0.962 1_565 S
C1052 H1039 0.960 . S
C1052 C1051 1.524 . S
C1053 C1050 1.403 1_565 S
C1053 C1054 1.392 . S
C1053 C1057 1.497 . S
C1054 C1053 1.392 . S
C1054 C1055 1.385 . S
C1054 C1056 1.478 . S
C1055 H1049 0.930 . S
C1055 C1051 1.400 . S
C1055 C1054 1.385 . S
C1056 C1054 1.478 . S
C1056 C1058 1.381 . S
C1056 C1062 1.383 . S
C1057 C1053 1.497 . S
C1057 H1063 0.945 1_565 S
C1057 H1064 0.981 . S
C1057 H1065 0.952 1_565 S
C1058 C1056 1.381 . S
C1058 C1059 1.394 . S
C1058 H1066 0.930 . S
C1059 C1058 1.394 . S
C1059 C1060 1.383 . S
C1059 H1067 0.929 . S
C1060 C1059 1.383 . S
C1060 C1061 1.377 . S
C1061 H1045 0.930 . S
C1061 C1060 1.377 . S
C1061 C1062 1.379 . S
C1062 H1046 0.931 . S
C1062 C1056 1.383 . S
C1062 C1061 1.379 . S
H1063 C1057 0.945 1_545 S
H1064 C1057 0.981 . S
H1065 C1057 0.952 1_545 S
H1066 C1058 0.930 . S
H1067 C1059 0.929 . S
H1068 C1076 0.929 . S
H1069 C1078 0.930 1_544 S
H1070 C1080 0.930 . S
H1071 C1083 0.929 . S
H1072 C1086 0.930 . S
H1073 C1088 0.960 . S
H1074 C1088 0.960 . S
H1075 C1088 0.960 . S
C1076 H1068 0.929 . S
C1076 C1077 1.377 1_554 S
C1076 C1078 1.384 1_554 S
C1077 C1076 1.377 1_556 S
C1077 C1083 1.390 . S
C1078 H1069 0.930 1_566 S
C1078 C1076 1.384 1_556 S
C1078 C1079 1.372 1_565 S
C1079 C1078 1.372 1_545 S
C1079 C1080 1.400 1_545 S
C1079 C1084 1.490 . S
C1080 H1070 0.930 . S
C1080 C1079 1.400 1_565 S
C1080 C1083 1.386 . S
H1081 C1097 0.930 . S
H1082 C1098 0.931 . S
C1083 H1071 0.929 . S
C1083 C1077 1.390 . S
C1083 C1080 1.386 . S
C1084 C1079 1.490 . S
C1084 C1086 1.395 . S
C1084 C1087 1.403 . S
H1085 C1091 0.930 . S
C1086 H1072 0.930 . S
C1086 C1084 1.395 . S
C1086 C1089 1.403 . S
C1087 C1084 1.403 . S
C1087 C1088 1.524 . S
C1087 C1091 1.400 . S
C1088 H1073 0.960 . S
C1088 H1074 0.960 . S
C1088 H1075 0.960 . S
C1088 C1087 1.524 . S
C1089 C1086 1.403 . S
C1089 C1090 1.392 . S
C1089 C1093 1.495 . S
C1090 C1089 1.392 . S
C1090 C1091 1.385 . S
C1090 C1092 1.478 . S
C1091 H1085 0.930 . S
C1091 C1087 1.400 . S
C1091 C1090 1.385 . S
C1092 C1090 1.478 . S
C1092 C1094 1.381 . S
C1092 C1098 1.383 . S
C1093 C1089 1.495 . S
C1093 H1099 0.959 . S
C1093 H1100 0.961 . S
C1093 H1101 0.960 . S
C1094 C1092 1.381 . S
C1094 C1095 1.394 . S
C1094 H1102 0.930 . S
C1095 C1094 1.394 . S
C1095 C1096 1.383 . S
C1095 H1103 0.929 . S
C1096 C1095 1.383 . S
C1096 C1097 1.377 . S
C1097 H1081 0.930 . S
C1097 C1096 1.377 . S
C1097 C1098 1.379 . S
C1098 H1082 0.931 . S
C1098 C1092 1.383 . S
C1098 C1097 1.379 . S
H1099 C1093 0.959 . S
H1100 C1093 0.961 . S
H1101 C1093 0.960 . S
H1102 C1094 0.930 . S
H1103 C1095 0.929 . S
H1104 C1112 0.929 . S
H1105 C1114 0.930 . S
H1106 C1116 0.930 . S
H1107 C1119 0.929 . S
H1108 C1122 0.930 . S
H1109 C1124 0.960 . S
H1110 C1124 0.960 . S
H1111 C1124 0.960 . S
C1112 H1104 0.929 . S
C1112 C1113 1.377 . S
C1112 C1114 1.384 . S
C1113 C1112 1.377 . S
C1113 C1119 1.390 . S
C1114 H1105 0.930 . S
C1114 C1112 1.384 . S
C1114 C1115 1.372 . S
C1115 C1114 1.372 . S
C1115 C1116 1.400 . S
C1115 C1120 1.490 . S
C1116 H1106 0.930 . S
C1116 C1115 1.400 . S
C1116 C1119 1.386 . S
H1117 C1133 0.930 . S
H1118 C1134 0.931 . S
C1119 H1107 0.929 . S
C1119 C1113 1.390 . S
C1119 C1116 1.386 . S
C1120 C1115 1.490 . S
C1120 C1122 1.395 . S
C1120 C1123 1.403 . S
H1121 C1127 0.930 . S
C1122 H1108 0.930 . S
C1122 C1120 1.395 . S
C1122 C1125 1.403 . S
C1123 C1120 1.403 . S
C1123 C1124 1.524 . S
C1123 C1127 1.400 . S
C1124 H1109 0.960 . S
C1124 H1110 0.960 . S
C1124 H1111 0.960 . S
C1124 C1123 1.524 . S
C1125 C1122 1.403 . S
C1125 C1126 1.392 . S
C1125 C1129 1.495 . S
C1126 C1125 1.392 . S
C1126 C1127 1.385 . S
C1126 C1128 1.478 . S
C1127 H1121 0.930 . S
C1127 C1123 1.400 . S
C1127 C1126 1.385 . S
C1128 C1126 1.478 . S
C1128 C1130 1.381 . S
C1128 C1134 1.383 . S
C1129 C1125 1.495 . S
C1129 H1135 0.959 1_565 S
C1129 H1136 0.961 . S
C1129 H1137 0.960 . S
C1130 C1128 1.381 . S
C1130 C1131 1.394 . S
C1130 H1138 0.930 . S
C1131 C1130 1.394 . S
C1131 C1132 1.383 . S
C1131 H1139 0.929 . S
C1132 C1131 1.383 . S
C1132 C1133 1.377 . S
C1133 H1117 0.930 . S
C1133 C1132 1.377 . S
C1133 C1134 1.379 . S
C1134 H1118 0.931 . S
C1134 C1128 1.383 . S
C1134 C1133 1.379 . S
H1135 C1129 0.959 1_545 S
H1136 C1129 0.961 . S
H1137 C1129 0.960 . S
H1138 C1130 0.930 . S
H1139 C1131 0.929 . S
H1140 C1148 0.929 . S
H1141 C1150 0.930 . S
H1142 C1152 0.930 . S
H1143 C1155 0.929 . S
H1144 C1158 0.930 . S
H1145 C1160 0.960 . S
H1146 C1160 0.960 . S
H1147 C1160 0.960 . S
C1148 H1140 0.929 . S
C1148 C1149 1.377 . S
C1148 C1150 1.384 . S
C1149 C1148 1.377 . S
C1149 C1155 1.390 . S
C1150 H1141 0.930 . S
C1150 C1148 1.384 . S
C1150 C1151 1.372 . S
C1151 C1150 1.372 . S
C1151 C1152 1.400 . S
C1151 C1156 1.490 . S
C1152 H1142 0.930 . S
C1152 C1151 1.400 . S
C1152 C1155 1.386 . S
H1153 C1169 0.930 . S
H1154 C1170 0.931 . S
C1155 H1143 0.929 . S
C1155 C1149 1.390 . S
C1155 C1152 1.386 . S
C1156 C1151 1.490 . S
C1156 C1158 1.395 . S
C1156 C1159 1.403 . S
H1157 C1163 0.930 . S
C1158 H1144 0.930 . S
C1158 C1156 1.395 . S
C1158 C1161 1.403 . S
C1159 C1156 1.403 . S
C1159 C1160 1.524 . S
C1159 C1163 1.400 . S
C1160 H1145 0.960 . S
C1160 H1146 0.960 . S
C1160 H1147 0.960 . S
C1160 C1159 1.524 . S
C1161 C1158 1.403 . S
C1161 C1162 1.392 . S
C1161 C1165 1.495 . S
C1162 C1161 1.392 . S
C1162 C1163 1.385 . S
C1162 C1164 1.478 . S
C1163 H1157 0.930 . S
C1163 C1159 1.400 . S
C1163 C1162 1.385 . S
C1164 C1162 1.478 . S
C1164 C1166 1.381 . S
C1164 C1170 1.383 1_545 S
C1165 C1161 1.495 . S
C1165 H1171 0.959 . S
C1165 H1172 0.961 . S
C1165 H1173 0.960 . S
C1166 C1164 1.381 . S
C1166 C1167 1.394 1_545 S
C1166 H1174 0.930 . S
C1167 C1166 1.394 1_565 S
C1167 C1168 1.383 . S
C1167 H1175 0.929 . S
C1168 C1167 1.383 . S
C1168 C1169 1.377 . S
C1169 H1153 0.930 . S
C1169 C1168 1.377 . S
C1169 C1170 1.379 . S
C1170 H1154 0.931 . S
C1170 C1164 1.383 1_565 S
C1170 C1169 1.379 . S
H1171 C1165 0.959 . S
H1172 C1165 0.961 . S
H1173 C1165 0.960 . S
H1174 C1166 0.930 . S
H1175 C1167 0.929 . S
H1176 C1184 0.929 . S
H1177 C1186 0.930 . S
H1178 C1188 0.930 . S
H1179 C1191 0.929 . S
H1180 C1194 0.930 . S
H1181 C1196 0.960 . S
H1182 C1196 0.960 . S
H1183 C1196 0.960 . S
C1184 H1176 0.929 . S
C1184 C1185 1.377 . S
C1184 C1186 1.384 . S
C1185 C1184 1.377 . S
C1185 C1191 1.390 . S
C1186 H1177 0.930 . S
C1186 C1184 1.384 . S
C1186 C1187 1.372 . S
C1187 C1186 1.372 . S
C1187 C1188 1.400 . S
C1187 C1192 1.490 . S
C1188 H1178 0.930 . S
C1188 C1187 1.400 . S
C1188 C1191 1.386 . S
H1189 C1205 0.930 . S
H1190 C1206 0.931 . S
C1191 H1179 0.929 . S
C1191 C1185 1.390 . S
C1191 C1188 1.386 . S
C1192 C1187 1.490 . S
C1192 C1194 1.395 . S
C1192 C1195 1.403 . S
H1193 C1199 0.930 . S
C1194 H1180 0.930 . S
C1194 C1192 1.395 . S
C1194 C1197 1.403 . S
C1195 C1192 1.403 . S
C1195 C1196 1.524 . S
C1195 C1199 1.400 . S
C1196 H1181 0.960 . S
C1196 H1182 0.960 . S
C1196 H1183 0.960 . S
C1196 C1195 1.524 . S
C1197 C1194 1.403 . S
C1197 C1198 1.392 . S
C1197 C1201 1.495 . S
C1198 C1197 1.392 . S
C1198 C1199 1.385 . S
C1198 C1200 1.478 . S
C1199 H1193 0.930 . S
C1199 C1195 1.400 . S
C1199 C1198 1.385 . S
C1200 C1198 1.478 . S
C1200 C1202 1.381 . S
C1200 C1206 1.383 . S
C1201 C1197 1.495 . S
C1201 H1207 0.959 . S
C1201 H1208 0.961 . S
C1201 H1209 0.960 . S
C1202 C1200 1.381 . S
C1202 C1203 1.394 . S
C1202 H1210 0.930 . S
C1203 C1202 1.394 . S
C1203 C1204 1.383 . S
C1203 H1211 0.929 . S
C1204 C1203 1.383 . S
C1204 C1205 1.377 . S
C1205 H1189 0.930 . S
C1205 C1204 1.377 . S
C1205 C1206 1.379 . S
C1206 H1190 0.931 . S
C1206 C1200 1.383 . S
C1206 C1205 1.379 . S
H1207 C1201 0.959 . S
H1208 C1201 0.961 . S
H1209 C1201 0.960 . S
H1210 C1202 0.930 . S
H1211 C1203 0.929 . S
H1212 C1220 0.929 . S
H1213 C1222 0.930 1_545 S
H1214 C1224 0.930 . S
H1215 C1227 0.929 . S
H1216 C1230 0.930 . S
H1217 C1232 0.960 . S
H1218 C1232 0.960 . S
H1219 C1232 0.960 1_565 S
C1220 H1212 0.929 . S
C1220 C1221 1.377 . S
C1220 C1222 1.384 . S
C1221 C1220 1.377 . S
C1221 C1227 1.390 . S
C1222 H1213 0.930 1_565 S
C1222 C1220 1.384 . S
C1222 C1223 1.372 . S
C1223 C1222 1.372 . S
C1223 C1224 1.400 . S
C1223 C1228 1.490 1_565 S
C1224 H1214 0.930 . S
C1224 C1223 1.400 . S
C1224 C1227 1.386 . S
H1225 C1241 0.930 . S
H1226 C1242 0.931 . S
C1227 H1215 0.929 . S
C1227 C1221 1.390 . S
C1227 C1224 1.386 . S
C1228 C1223 1.490 1_545 S
C1228 C1230 1.395 . S
C1228 C1231 1.403 . S
H1229 C1235 0.930 . S
C1230 H1216 0.930 . S
C1230 C1228 1.395 . S
C1230 C1233 1.403 . S
C1231 C1228 1.403 . S
C1231 C1232 1.524 . S
C1231 C1235 1.400 . S
C1232 H1217 0.960 . S
C1232 H1218 0.960 . S
C1232 H1219 0.960 1_545 S
C1232 C1231 1.524 . S
C1233 C1230 1.403 . S
C1233 C1234 1.392 . S
C1233 C1237 1.495 . S
C1234 C1233 1.392 . S
C1234 C1235 1.385 . S
C1234 C1236 1.478 . S
C1235 H1229 0.930 . S
C1235 C1231 1.400 . S
C1235 C1234 1.385 . S
C1236 C1234 1.478 . S
C1236 C1238 1.381 . S
C1236 C1242 1.383 . S
C1237 C1233 1.495 . S
C1237 H1243 0.959 . S
C1237 H1244 0.961 . S
C1237 H1245 0.960 . S
C1238 C1236 1.381 . S
C1238 C1239 1.394 . S
C1238 H1246 0.930 . S
C1239 C1238 1.394 . S
C1239 C1240 1.383 . S
C1239 H1247 0.929 . S
C1240 C1239 1.383 . S
C1240 C1241 1.377 . S
C1241 H1225 0.930 . S
C1241 C1240 1.377 . S
C1241 C1242 1.379 . S
C1242 H1226 0.931 . S
C1242 C1236 1.383 . S
C1242 C1241 1.379 . S
H1243 C1237 0.959 . S
H1244 C1237 0.961 . S
H1245 C1237 0.960 . S
H1246 C1238 0.930 . S
H1247 C1239 0.929 . S
H1248 C1256 0.929 . S
H1249 C1258 0.930 . S
H1250 C1260 0.930 . S
H1251 C1263 0.929 . S
H1252 C1266 0.930 . S
H1253 C1268 0.960 . S
H1254 C1268 0.960 . S
H1255 C1268 0.960 . S
C1256 H1248 0.929 . S
C1256 C1257 1.377 . S
C1256 C1258 1.384 . S
C1257 C1256 1.377 . S
C1257 C1263 1.390 . S
C1258 H1249 0.930 . S
C1258 C1256 1.384 . S
C1258 C1259 1.372 . S
C1259 C1258 1.372 . S
C1259 C1260 1.400 . S
C1259 C1264 1.490 . S
C1260 H1250 0.930 . S
C1260 C1259 1.400 . S
C1260 C1263 1.386 . S
H1261 C1277 0.930 . S
H1262 C1278 0.931 . S
C1263 H1251 0.929 . S
C1263 C1257 1.390 . S
C1263 C1260 1.386 . S
C1264 C1259 1.490 . S
C1264 C1266 1.395 . S
C1264 C1267 1.403 . S
H1265 C1271 0.930 . S
C1266 H1252 0.930 . S
C1266 C1264 1.395 . S
C1266 C1269 1.403 . S
C1267 C1264 1.403 . S
C1267 C1268 1.524 . S
C1267 C1271 1.400 . S
C1268 H1253 0.960 . S
C1268 H1254 0.960 . S
C1268 H1255 0.960 . S
C1268 C1267 1.524 . S
C1269 C1266 1.403 . S
C1269 C1270 1.392 . S
C1269 C1273 1.495 . S
C1270 C1269 1.392 . S
C1270 C1271 1.385 . S
C1270 C1272 1.478 . S
C1271 H1265 0.930 . S
C1271 C1267 1.400 . S
C1271 C1270 1.385 . S
C1272 C1270 1.478 . S
C1272 C1274 1.381 . S
C1272 C1278 1.383 . S
C1273 C1269 1.495 . S
C1273 H1279 0.959 . S
C1273 H1280 0.961 . S
C1273 H1281 0.960 . S
C1274 C1272 1.381 . S
C1274 C1275 1.394 . S
C1274 H1282 0.930 . S
C1275 C1274 1.394 . S
C1275 C1276 1.383 . S
C1275 H1283 0.929 . S
C1276 C1275 1.383 . S
C1276 C1277 1.377 . S
C1277 H1261 0.930 . S
C1277 C1276 1.377 . S
C1277 C1278 1.379 . S
C1278 H1262 0.931 . S
C1278 C1272 1.383 . S
C1278 C1277 1.379 . S
H1279 C1273 0.959 . S
H1280 C1273 0.961 . S
H1281 C1273 0.960 . S
H1282 C1274 0.930 . S
H1283 C1275 0.929 . S
H1284 C1292 0.929 1_554 S
H1285 C1294 0.930 . S
H1286 C1296 0.930 . S
H1287 C1299 0.929 . S
H1288 C1302 0.930 . S
H1289 C1304 0.960 . S
H1290 C1304 0.960 . S
H1291 C1304 0.960 . S
C1292 H1284 0.929 1_556 S
C1292 C1293 1.377 . S
C1292 C1294 1.384 . S
C1293 C1292 1.377 . S
C1293 C1299 1.390 . S
C1294 H1285 0.930 . S
C1294 C1292 1.384 . S
C1294 C1295 1.372 . S
C1295 C1294 1.372 . S
C1295 C1296 1.400 . S
C1295 C1300 1.490 . S
C1296 H1286 0.930 . S
C1296 C1295 1.400 . S
C1296 C1299 1.386 . S
H1297 C1313 0.930 . S
H1298 C1314 0.931 . S
C1299 H1287 0.929 . S
C1299 C1293 1.390 . S
C1299 C1296 1.386 . S
C1300 C1295 1.490 . S
C1300 C1302 1.395 . S
C1300 C1303 1.403 . S
H1301 C1307 0.930 . S
C1302 H1288 0.930 . S
C1302 C1300 1.395 . S
C1302 C1305 1.403 . S
C1303 C1300 1.403 . S
C1303 C1304 1.524 . S
C1303 C1307 1.400 . S
C1304 H1289 0.960 . S
C1304 H1290 0.960 . S
C1304 H1291 0.960 . S
C1304 C1303 1.524 . S
C1305 C1302 1.403 . S
C1305 C1306 1.392 . S
C1305 C1309 1.495 . S
C1306 C1305 1.392 . S
C1306 C1307 1.385 . S
C1306 C1308 1.478 . S
C1307 H1301 0.930 . S
C1307 C1303 1.400 . S
C1307 C1306 1.385 . S
C1308 C1306 1.478 . S
C1308 C1310 1.381 . S
C1308 C1314 1.383 . S
C1309 C1305 1.495 . S
C1309 H1315 0.959 . S
C1309 H1316 0.961 . S
C1309 H1317 0.960 . S
C1310 C1308 1.381 . S
C1310 C1311 1.394 . S
C1310 H1318 0.930 . S
C1311 C1310 1.394 . S
C1311 C1312 1.383 . S
C1311 H1319 0.929 . S
C1312 C1311 1.383 . S
C1312 C1313 1.377 . S
C1313 H1297 0.930 . S
C1313 C1312 1.377 . S
C1313 C1314 1.379 . S
C1314 H1298 0.931 . S
C1314 C1308 1.383 . S
C1314 C1313 1.379 . S
H1315 C1309 0.959 . S
H1316 C1309 0.961 . S
H1317 C1309 0.960 . S
H1318 C1310 0.930 . S
H1319 C1311 0.929 . S
H1320 C1328 0.929 . S
H1321 C1330 0.930 . S
H1322 C1332 0.930 . S
H1323 C1335 0.929 . S
H1324 C1338 0.930 . S
H1325 C1340 0.960 . S
H1326 C1340 0.960 . S
H1327 C1340 0.960 . S
C1328 H1320 0.929 . S
C1328 C1329 1.377 . S
C1328 C1330 1.384 . S
C1329 C1328 1.377 . S
C1329 C1335 1.390 . S
C1330 H1321 0.930 . S
C1330 C1328 1.384 . S
C1330 C1331 1.372 . S
C1331 C1330 1.372 . S
C1331 C1332 1.400 . S
C1331 C1336 1.490 . S
C1332 H1322 0.930 . S
C1332 C1331 1.400 . S
C1332 C1335 1.386 . S
H1333 C1349 0.930 . S
H1334 C1350 0.931 . S
C1335 H1323 0.929 . S
C1335 C1329 1.390 . S
C1335 C1332 1.386 . S
C1336 C1331 1.490 . S
C1336 C1338 1.395 . S
C1336 C1339 1.403 . S
H1337 C1343 0.930 . S
C1338 H1324 0.930 . S
C1338 C1336 1.395 . S
C1338 C1341 1.442 . S
C1339 C1336 1.403 . S
C1339 C1340 1.524 . S
C1339 C1343 1.400 . S
C1340 H1325 0.960 . S
C1340 H1326 0.960 . S
C1340 H1327 0.960 . S
C1340 C1339 1.524 . S
C1341 C1338 1.442 . S
C1341 C1342 1.392 . S
C1341 C1345 1.458 1_455 S
C1342 C1341 1.392 . S
C1342 C1343 1.413 . S
C1342 C1344 1.451 1_455 S
C1343 H1337 0.930 . S
C1343 C1339 1.400 . S
C1343 C1342 1.413 . S
C1344 C1342 1.451 1_655 S
C1344 C1346 1.381 . S
C1344 C1350 1.383 . S
C1345 C1341 1.458 1_655 S
C1345 H1351 0.959 . S
C1345 H1352 0.961 . S
C1345 H1353 0.960 . S
C1346 C1344 1.381 . S
C1346 C1347 1.394 . S
C1346 H1354 0.930 . S
C1347 C1346 1.394 . S
C1347 C1348 1.383 . S
C1347 H1355 0.929 . S
C1348 C1347 1.383 . S
C1348 C1349 1.377 . S
C1349 H1333 0.930 . S
C1349 C1348 1.377 . S
C1349 C1350 1.379 . S
C1350 H1334 0.931 . S
C1350 C1344 1.383 . S
C1350 C1349 1.379 . S
H1351 C1345 0.959 . S
H1352 C1345 0.961 . S
H1353 C1345 0.960 . S
H1354 C1346 0.930 . S
H1355 C1347 0.929 . S
H1356 C1364 0.929 . S
H1357 C1366 0.930 . S
H1358 C1368 0.930 . S
H1359 C1371 0.929 . S
H1360 C1374 0.930 . S
H1361 C1376 0.960 . S
H1362 C1376 0.960 . S
H1363 C1376 0.960 . S
C1364 H1356 0.929 . S
C1364 C1365 1.377 . S
C1364 C1366 1.384 . S
C1365 C1364 1.377 . S
C1365 C1371 1.390 . S
C1366 H1357 0.930 . S
C1366 C1364 1.384 . S
C1366 C1367 1.372 . S
C1367 C1366 1.372 . S
C1367 C1368 1.400 . S
C1367 C1372 1.490 . S
C1368 H1358 0.930 . S
C1368 C1367 1.400 . S
C1368 C1371 1.386 . S
H1369 C1385 0.930 . S
H1370 C1386 0.931 . S
C1371 H1359 0.929 . S
C1371 C1365 1.390 . S
C1371 C1368 1.386 . S
C1372 C1367 1.490 . S
C1372 C1374 1.395 . S
C1372 C1375 1.403 . S
H1373 C1379 0.930 . S
C1374 H1360 0.930 . S
C1374 C1372 1.395 . S
C1374 C1377 1.403 . S
C1375 C1372 1.403 . S
C1375 C1376 1.524 . S
C1375 C1379 1.400 . S
C1376 H1361 0.960 . S
C1376 H1362 0.960 . S
C1376 H1363 0.960 . S
C1376 C1375 1.524 . S
C1377 C1374 1.403 . S
C1377 C1378 1.392 . S
C1377 C1381 1.495 . S
C1378 C1377 1.392 . S
C1378 C1379 1.385 . S
C1378 C1380 1.478 . S
C1379 H1373 0.930 . S
C1379 C1375 1.400 . S
C1379 C1378 1.385 . S
C1380 C1378 1.478 . S
C1380 C1382 1.381 . S
C1380 C1386 1.383 . S
C1381 C1377 1.495 . S
C1381 H1387 0.959 . S
C1381 H1388 0.961 . S
C1381 H1389 0.960 . S
C1382 C1380 1.381 . S
C1382 C1383 1.394 . S
C1382 H1390 0.930 . S
C1383 C1382 1.394 . S
C1383 C1384 1.383 . S
C1383 H1391 0.929 . S
C1384 C1383 1.383 . S
C1384 C1385 1.377 . S
C1385 H1369 0.930 . S
C1385 C1384 1.377 . S
C1385 C1386 1.379 . S
C1386 H1370 0.931 . S
C1386 C1380 1.383 . S
C1386 C1385 1.379 . S
H1387 C1381 0.959 . S
H1388 C1381 0.961 . S
H1389 C1381 0.960 . S
H1390 C1382 0.930 . S
H1391 C1383 0.929 . S
H1392 C1400 0.929 . S
H1393 C1402 0.930 . S
H1394 C1404 0.930 . S
H1395 C1407 0.929 . S
H1396 C1410 0.930 . S
H1397 C1412 0.960 . S
H1398 C1412 0.960 . S
H1399 C1412 0.960 . S
C1400 H1392 0.929 . S
C1400 C1401 1.377 . S
C1400 C1402 1.384 . S
C1401 C1400 1.377 . S
C1401 C1407 1.390 . S
C1402 H1393 0.930 . S
C1402 C1400 1.384 . S
C1402 C1403 1.372 . S
C1403 C1402 1.372 . S
C1403 C1404 1.400 . S
C1403 C1408 1.490 . S
C1404 H1394 0.930 . S
C1404 C1403 1.400 . S
C1404 C1407 1.386 . S
H1405 C1421 0.930 . S
H1406 C1422 0.931 . S
C1407 H1395 0.929 . S
C1407 C1401 1.390 . S
C1407 C1404 1.386 . S
C1408 C1403 1.490 . S
C1408 C1410 1.395 1_655 S
C1408 C1411 1.403 . S
H1409 C1415 0.930 . S
C1410 H1396 0.930 . S
C1410 C1408 1.395 1_455 S
C1410 C1413 1.403 . S
C1411 C1408 1.403 . S
C1411 C1412 1.524 . S
C1411 C1415 1.400 1_655 S
C1412 H1397 0.960 . S
C1412 H1398 0.960 . S
C1412 H1399 0.960 . S
C1412 C1411 1.524 . S
C1413 C1410 1.403 . S
C1413 C1414 1.392 . S
C1413 C1417 1.495 . S
C1414 C1413 1.392 . S
C1414 C1415 1.385 . S
C1414 C1416 1.478 . S
C1415 H1409 0.930 . S
C1415 C1411 1.400 1_455 S
C1415 C1414 1.385 . S
C1416 C1414 1.478 . S
C1416 C1418 1.381 . S
C1416 C1422 1.383 . S
C1417 C1413 1.495 . S
C1417 H1423 0.959 . S
C1417 H1424 0.961 . S
C1417 H1425 0.960 . S
C1418 C1416 1.381 . S
C1418 C1419 1.394 . S
C1418 H1426 0.930 . S
C1419 C1418 1.394 . S
C1419 C1420 1.383 . S
C1419 H1427 0.929 . S
C1420 C1419 1.383 . S
C1420 C1421 1.377 . S
C1421 H1405 0.930 . S
C1421 C1420 1.377 . S
C1421 C1422 1.379 . S
C1422 H1406 0.931 . S
C1422 C1416 1.383 . S
C1422 C1421 1.379 . S
H1423 C1417 0.959 . S
H1424 C1417 0.961 . S
H1425 C1417 0.960 . S
H1426 C1418 0.930 . S
H1427 C1419 0.929 . S
H1428 C1436 0.929 . S
H1429 C1438 0.930 . S
H1430 C1440 0.930 . S
H1431 C1443 0.929 . S
H1432 C1446 0.930 . S
H1433 C1448 0.960 . S
H1434 C1448 0.960 . S
H1435 C1448 0.960 . S
C1436 H1428 0.929 . S
C1436 C1437 1.377 . S
C1436 C1438 1.384 . S
C1437 C1436 1.377 . S
C1437 C1443 1.390 . S
C1438 H1429 0.930 . S
C1438 C1436 1.384 . S
C1438 C1439 1.372 . S
C1439 C1438 1.372 . S
C1439 C1440 1.400 . S
C1439 C1444 1.490 . S
C1440 H1430 0.930 . S
C1440 C1439 1.400 . S
C1440 C1443 1.386 . S
H1441 C1457 0.930 . S
H1442 C1458 0.931 . S
C1443 H1431 0.929 . S
C1443 C1437 1.390 . S
C1443 C1440 1.386 . S
C1444 C1439 1.490 . S
C1444 C1446 1.395 . S
C1444 C1447 1.403 . S
H1445 C1451 0.930 . S
C1446 H1432 0.930 . S
C1446 C1444 1.395 . S
C1446 C1449 1.403 . S
C1447 C1444 1.403 . S
C1447 C1448 1.524 . S
C1447 C1451 1.400 . S
C1448 H1433 0.960 . S
C1448 H1434 0.960 . S
C1448 H1435 0.960 . S
C1448 C1447 1.524 . S
C1449 C1446 1.403 . S
C1449 C1450 1.392 . S
C1449 C1453 1.495 . S
C1450 C1449 1.392 . S
C1450 C1451 1.385 . S
C1450 C1452 1.478 . S
C1451 H1445 0.930 . S
C1451 C1447 1.400 . S
C1451 C1450 1.385 . S
C1452 C1450 1.478 . S
C1452 C1454 1.381 . S
C1452 C1458 1.383 . S
C1453 C1449 1.495 . S
C1453 H1459 0.959 . S
C1453 H1460 0.961 . S
C1453 H1461 0.960 . S
C1454 C1452 1.381 . S
C1454 C1455 1.394 . S
C1454 H1462 0.930 . S
C1455 C1454 1.394 . S
C1455 C1456 1.383 . S
C1455 H1463 0.929 . S
C1456 C1455 1.383 . S
C1456 C1457 1.377 . S
C1457 H1441 0.930 . S
C1457 C1456 1.377 . S
C1457 C1458 1.379 . S
C1458 H1442 0.931 . S
C1458 C1452 1.383 . S
C1458 C1457 1.379 . S
H1459 C1453 0.959 . S
H1460 C1453 0.961 . S
H1461 C1453 0.960 . S
H1462 C1454 0.930 . S
H1463 C1455 0.929 . S
H1464 C1472 0.929 . S
H1465 C1474 0.930 . S
H1466 C1476 0.930 . S
H1467 C1479 0.929 . S
H1468 C1482 0.930 . S
H1469 C1484 0.960 . S
H1470 C1484 0.960 . S
H1471 C1484 0.960 . S
C1472 H1464 0.929 . S
C1472 C1473 1.377 . S
C1472 C1474 1.384 . S
C1473 C1472 1.377 . S
C1473 C1479 1.390 . S
C1474 H1465 0.930 . S
C1474 C1472 1.384 . S
C1474 C1475 1.372 . S
C1475 C1474 1.372 . S
C1475 C1476 1.400 . S
C1475 C1480 1.490 . S
C1476 H1466 0.930 . S
C1476 C1475 1.400 . S
C1476 C1479 1.386 . S
H1477 C1493 0.930 . S
H1478 C1494 0.931 . S
C1479 H1467 0.929 . S
C1479 C1473 1.390 . S
C1479 C1476 1.386 . S
C1480 C1475 1.490 . S
C1480 C1482 1.395 . S
C1480 C1483 1.403 . S
H1481 C1487 0.930 . S
C1482 H1468 0.930 . S
C1482 C1480 1.395 . S
C1482 C1485 1.403 1_455 S
C1483 C1480 1.403 . S
C1483 C1484 1.524 . S
C1483 C1487 1.400 . S
C1484 H1469 0.960 . S
C1484 H1470 0.960 . S
C1484 H1471 0.960 . S
C1484 C1483 1.524 . S
C1485 C1482 1.403 1_655 S
C1485 C1486 1.392 . S
C1485 C1489 1.495 . S
C1486 C1485 1.392 . S
C1486 C1487 1.385 1_655 S
C1486 C1488 1.478 . S
C1487 H1481 0.930 . S
C1487 C1483 1.400 . S
C1487 C1486 1.385 1_455 S
C1488 C1486 1.478 . S
C1488 C1490 1.381 . S
C1488 C1494 1.383 . S
C1489 C1485 1.495 . S
C1489 H1495 0.959 . S
C1489 H1496 0.961 . S
C1489 H1497 0.960 . S
C1490 C1488 1.381 . S
C1490 C1491 1.394 . S
C1490 H1498 0.930 . S
C1491 C1490 1.394 . S
C1491 C1492 1.383 . S
C1491 H1499 0.929 . S
C1492 C1491 1.383 . S
C1492 C1493 1.377 . S
C1493 H1477 0.930 . S
C1493 C1492 1.377 . S
C1493 C1494 1.379 . S
C1494 H1478 0.931 . S
C1494 C1488 1.383 . S
C1494 C1493 1.379 . S
H1495 C1489 0.959 . S
H1496 C1489 0.961 . S
H1497 C1489 0.960 . S
H1498 C1490 0.930 . S
H1499 C1491 0.929 . S
H1500 C1508 0.929 . S
H1501 C1510 0.930 . S
H1502 C1512 0.930 . S
H1503 C1515 0.929 . S
H1504 C1518 0.930 . S
H1505 C1520 0.960 . S
H1506 C1520 0.960 . S
H1507 C1520 0.960 . S
C1508 H1500 0.929 . S
C1508 C1509 1.377 . S
C1508 C1510 1.384 . S
C1509 C1508 1.377 . S
C1509 C1515 1.390 . S
C1510 H1501 0.930 . S
C1510 C1508 1.384 . S
C1510 C1511 1.372 . S
C1511 C1510 1.372 . S
C1511 C1512 1.400 . S
C1511 C1516 1.490 . S
C1512 H1502 0.930 . S
C1512 C1511 1.400 . S
C1512 C1515 1.386 . S
H1513 C1529 0.930 . S
H1514 C1530 0.931 . S
C1515 H1503 0.929 . S
C1515 C1509 1.390 . S
C1515 C1512 1.386 . S
C1516 C1511 1.490 . S
C1516 C1518 1.395 . S
C1516 C1519 1.403 . S
H1517 C1523 0.930 . S
C1518 H1504 0.930 . S
C1518 C1516 1.395 . S
C1518 C1521 1.403 . S
C1519 C1516 1.403 . S
C1519 C1520 1.524 . S
C1519 C1523 1.400 . S
C1520 H1505 0.960 . S
C1520 H1506 0.960 . S
C1520 H1507 0.960 . S
C1520 C1519 1.524 . S
C1521 C1518 1.403 . S
C1521 C1522 1.392 . S
C1521 C1525 1.495 . S
C1522 C1521 1.392 . S
C1522 C1523 1.385 . S
C1522 C1524 1.478 . S
C1523 H1517 0.930 . S
C1523 C1519 1.400 . S
C1523 C1522 1.385 . S
C1524 C1522 1.478 . S
C1524 C1526 1.381 . S
C1524 C1530 1.383 . S
C1525 C1521 1.495 . S
C1525 H1531 0.959 . S
C1525 H1532 0.961 . S
C1525 H1533 0.960 . S
C1526 C1524 1.381 . S
C1526 C1527 1.394 . S
C1526 H1534 0.930 . S
C1527 C1526 1.394 . S
C1527 C1528 1.383 . S
C1527 H1535 0.929 . S
C1528 C1527 1.383 . S
C1528 C1529 1.377 . S
C1529 H1513 0.930 . S
C1529 C1528 1.377 . S
C1529 C1530 1.379 . S
C1530 H1514 0.931 . S
C1530 C1524 1.383 . S
C1530 C1529 1.379 . S
H1531 C1525 0.959 . S
H1532 C1525 0.961 . S
H1533 C1525 0.960 . S
H1534 C1526 0.930 . S
H1535 C1527 0.929 . S
H1536 C1544 0.929 . S
H1537 C1546 0.930 . S
H1538 C1548 0.930 . S
H1539 C1551 0.929 . S
H1540 C1554 0.930 . S
H1541 C1556 0.960 . S
H1542 C1556 0.960 . S
H1543 C1556 0.960 . S
C1544 H1536 0.929 . S
C1544 C1545 1.377 . S
C1544 C1546 1.384 . S
C1545 C1544 1.377 . S
C1545 C1551 1.390 . S
C1546 H1537 0.930 . S
C1546 C1544 1.384 . S
C1546 C1547 1.372 . S
C1547 C1546 1.372 . S
C1547 C1548 1.400 . S
C1547 C1552 1.490 . S
C1548 H1538 0.930 . S
C1548 C1547 1.400 . S
C1548 C1551 1.386 . S
H1549 C1565 0.930 . S
H1550 C1566 0.931 . S
C1551 H1539 0.929 . S
C1551 C1545 1.390 . S
C1551 C1548 1.386 . S
C1552 C1547 1.490 . S
C1552 C1554 1.395 . S
C1552 C1555 1.403 . S
H1553 C1559 0.930 . S
C1554 H1540 0.930 . S
C1554 C1552 1.395 . S
C1554 C1557 1.403 . S
C1555 C1552 1.403 . S
C1555 C1556 1.524 . S
C1555 C1559 1.400 . S
C1556 H1541 0.960 . S
C1556 H1542 0.960 . S
C1556 H1543 0.960 . S
C1556 C1555 1.524 . S
C1557 C1554 1.403 . S
C1557 C1558 1.392 . S
C1557 C1561 1.495 . S
C1558 C1557 1.392 . S
C1558 C1559 1.385 . S
C1558 C1560 1.478 . S
C1559 H1553 0.930 . S
C1559 C1555 1.400 . S
C1559 C1558 1.385 . S
C1560 C1558 1.478 . S
C1560 C1562 1.381 . S
C1560 C1566 1.383 . S
C1561 C1557 1.495 . S
C1561 H1567 0.959 . S
C1561 H1568 0.961 . S
C1561 H1569 0.960 . S
C1562 C1560 1.381 . S
C1562 C1563 1.394 . S
C1562 H1570 0.930 . S
C1563 C1562 1.394 . S
C1563 C1564 1.383 . S
C1563 H1571 0.929 . S
C1564 C1563 1.383 . S
C1564 C1565 1.377 . S
C1565 H1549 0.930 . S
C1565 C1564 1.377 . S
C1565 C1566 1.379 . S
C1566 H1550 0.931 . S
C1566 C1560 1.383 . S
C1566 C1565 1.379 . S
H1567 C1561 0.959 . S
H1568 C1561 0.961 . S
H1569 C1561 0.960 . S
H1570 C1562 0.930 . S
H1571 C1563 0.929 . S
H1572 C1580 0.929 . S
H1573 C1582 0.930 . S
H1574 C1584 0.930 . S
H1575 C1587 0.929 . S
H1576 C1590 0.930 . S
H1577 C1592 0.960 . S
H1578 C1592 0.960 . S
H1579 C1592 0.960 . S
C1580 H1572 0.929 . S
C1580 C1581 1.377 . S
C1580 C1582 1.384 . S
C1581 C1580 1.377 . S
C1581 C1587 1.390 . S
C1582 H1573 0.930 . S
C1582 C1580 1.384 . S
C1582 C1583 1.372 . S
C1583 C1582 1.372 . S
C1583 C1584 1.400 . S
C1583 C1588 1.490 . S
C1584 H1574 0.930 . S
C1584 C1583 1.400 . S
C1584 C1587 1.386 . S
H1585 C1601 0.930 . S
H1586 C1602 0.931 . S
C1587 H1575 0.929 . S
C1587 C1581 1.390 . S
C1587 C1584 1.386 . S
C1588 C1583 1.490 . S
C1588 C1590 1.395 . S
C1588 C1591 1.403 . S
H1589 C1595 0.930 . S
C1590 H1576 0.930 . S
C1590 C1588 1.395 . S
C1590 C1593 1.403 . S
C1591 C1588 1.403 . S
C1591 C1592 1.524 . S
C1591 C1595 1.400 . S
C1592 H1577 0.960 . S
C1592 H1578 0.960 . S
C1592 H1579 0.960 . S
C1592 C1591 1.524 . S
C1593 C1590 1.403 . S
C1593 C1594 1.392 . S
C1593 C1597 1.495 . S
C1594 C1593 1.392 . S
C1594 C1595 1.385 . S
C1594 C1596 1.478 . S
C1595 H1589 0.930 . S
C1595 C1591 1.400 . S
C1595 C1594 1.385 . S
C1596 C1594 1.478 . S
C1596 C1598 1.381 . S
C1596 C1602 1.383 . S
C1597 C1593 1.495 . S
C1597 H1603 0.959 . S
C1597 H1604 0.961 . S
C1597 H1605 0.960 . S
C1598 C1596 1.381 . S
C1598 C1599 1.394 . S
C1598 H1606 0.930 . S
C1599 C1598 1.394 . S
C1599 C1600 1.383 . S
C1599 H1607 0.929 . S
C1600 C1599 1.383 . S
C1600 C1601 1.377 . S
C1601 H1585 0.930 . S
C1601 C1600 1.377 . S
C1601 C1602 1.379 . S
C1602 H1586 0.931 . S
C1602 C1596 1.383 . S
C1602 C1601 1.379 . S
H1603 C1597 0.959 . S
H1604 C1597 0.961 . S
H1605 C1597 0.960 . S
H1606 C1598 0.930 . S
H1607 C1599 0.929 . S
H1608 C1616 0.929 . S
H1609 C1618 0.930 . S
H1610 C1620 0.930 . S
H1611 C1623 0.929 . S
H1612 C1626 0.930 . S
H1613 C1628 0.960 . S
H1614 C1628 0.960 . S
H1615 C1628 0.960 . S
C1616 H1608 0.929 . S
C1616 C1617 1.377 . S
C1616 C1618 1.384 . S
C1617 C1616 1.377 . S
C1617 C1623 1.390 . S
C1618 H1609 0.930 . S
C1618 C1616 1.384 . S
C1618 C1619 1.372 . S
C1619 C1618 1.372 . S
C1619 C1620 1.400 . S
C1619 C1624 1.490 . S
C1620 H1610 0.930 . S
C1620 C1619 1.400 . S
C1620 C1623 1.386 . S
H1621 C1637 0.930 . S
H1622 C1638 0.931 . S
C1623 H1611 0.929 . S
C1623 C1617 1.390 . S
C1623 C1620 1.386 . S
C1624 C1619 1.490 . S
C1624 C1626 1.395 . S
C1624 C1627 1.403 . S
H1625 C1631 0.930 . S
C1626 H1612 0.930 . S
C1626 C1624 1.395 . S
C1626 C1629 1.403 . S
C1627 C1624 1.403 . S
C1627 C1628 1.524 . S
C1627 C1631 1.400 . S
C1628 H1613 0.960 . S
C1628 H1614 0.960 . S
C1628 H1615 0.960 . S
C1628 C1627 1.524 . S
C1629 C1626 1.403 . S
C1629 C1630 1.392 . S
C1629 C1633 1.495 . S
C1630 C1629 1.392 . S
C1630 C1631 1.385 . S
C1630 C1632 1.478 . S
C1631 H1625 0.930 . S
C1631 C1627 1.400 . S
C1631 C1630 1.385 . S
C1632 C1630 1.478 . S
C1632 C1634 1.381 . S
C1632 C1638 1.383 . S
C1633 C1629 1.495 . S
C1633 H1639 0.959 . S
C1633 H1640 0.961 . S
C1633 H1641 0.960 . S
C1634 C1632 1.381 . S
C1634 C1635 1.394 . S
C1634 H1642 0.930 . S
C1635 C1634 1.394 . S
C1635 C1636 1.383 . S
C1635 H1643 0.929 . S
C1636 C1635 1.383 . S
C1636 C1637 1.377 . S
C1637 H1621 0.930 . S
C1637 C1636 1.377 . S
C1637 C1638 1.379 . S
C1638 H1622 0.931 . S
C1638 C1632 1.383 . S
C1638 C1637 1.379 . S
H1639 C1633 0.959 . S
H1640 C1633 0.961 . S
H1641 C1633 0.960 . S
H1642 C1634 0.930 . S
H1643 C1635 0.929 . S
H1644 C1652 0.929 . S
H1645 C1654 0.930 . S
H1646 C1656 0.930 . S
H1647 C1659 0.929 . S
H1648 C1662 0.930 . S
H1649 C1664 0.960 . S
H1650 C1664 0.960 . S
H1651 C1664 0.960 . S
C1652 H1644 0.929 . S
C1652 C1653 1.377 . S
C1652 C1654 1.384 . S
C1653 C1652 1.377 . S
C1653 C1659 1.390 . S
C1654 H1645 0.930 . S
C1654 C1652 1.384 . S
C1654 C1655 1.372 . S
C1655 C1654 1.372 . S
C1655 C1656 1.400 . S
C1655 C1660 1.490 . S
C1656 H1646 0.930 . S
C1656 C1655 1.400 . S
C1656 C1659 1.386 . S
H1657 C1673 0.930 . S
H1658 C1674 0.931 . S
C1659 H1647 0.929 . S
C1659 C1653 1.390 . S
C1659 C1656 1.386 . S
C1660 C1655 1.490 . S
C1660 C1662 1.395 . S
C1660 C1663 1.403 . S
H1661 C1667 0.930 . S
C1662 H1648 0.930 . S
C1662 C1660 1.395 . S
C1662 C1665 1.403 1_556 S
C1663 C1660 1.403 . S
C1663 C1664 1.524 . S
C1663 C1667 1.400 1_556 S
C1664 H1649 0.960 . S
C1664 H1650 0.960 . S
C1664 H1651 0.960 . S
C1664 C1663 1.524 . S
C1665 C1662 1.403 1_554 S
C1665 C1666 1.392 . S
C1665 C1669 1.495 . S
C1666 C1665 1.392 . S
C1666 C1667 1.385 . S
C1666 C1668 1.478 . S
C1667 H1661 0.930 . S
C1667 C1663 1.400 1_554 S
C1667 C1666 1.385 . S
C1668 C1666 1.478 . S
C1668 C1670 1.381 . S
C1668 C1674 1.383 . S
C1669 C1665 1.495 . S
C1669 H1675 0.959 . S
C1669 H1676 0.961 . S
C1669 H1677 0.960 . S
C1670 C1668 1.381 . S
C1670 C1671 1.394 . S
C1670 H1678 0.930 . S
C1671 C1670 1.394 . S
C1671 C1672 1.383 . S
C1671 H1679 0.929 . S
C1672 C1671 1.383 . S
C1672 C1673 1.377 . S
C1673 H1657 0.930 . S
C1673 C1672 1.377 . S
C1673 C1674 1.379 . S
C1674 H1658 0.931 . S
C1674 C1668 1.383 . S
C1674 C1673 1.379 . S
H1675 C1669 0.959 . S
H1676 C1669 0.961 . S
H1677 C1669 0.960 . S
H1678 C1670 0.930 . S
H1679 C1671 0.929 . S
H1680 C1688 0.929 . S
H1681 C1690 0.930 . S
H1682 C1692 0.910 1_455 S
H1683 C1695 0.929 . S
H1684 C1698 0.930 . S
H1685 C1700 0.960 . S
H1686 C1700 0.960 . S
H1687 C1700 0.960 1_455 S
C1688 H1680 0.929 . S
C1688 C1689 1.377 . S
C1688 C1690 1.384 . S
C1689 C1688 1.377 . S
C1689 C1695 1.390 1_655 S
C1690 H1681 0.930 . S
C1690 C1688 1.384 . S
C1690 C1691 1.372 . S
C1691 C1690 1.372 . S
C1691 C1692 1.400 . S
C1691 C1696 1.490 . S
C1692 H1682 0.910 1_655 S
C1692 C1691 1.400 . S
C1692 C1695 1.386 1_655 S
H1693 C1709 0.930 . S
H1694 C1710 0.931 . S
C1695 H1683 0.929 . S
C1695 C1689 1.390 1_455 S
C1695 C1692 1.386 1_455 S
C1696 C1691 1.490 . S
C1696 C1698 1.395 . S
C1696 C1699 1.403 . S
H1697 C1703 0.930 . S
C1698 H1684 0.930 . S
C1698 C1696 1.395 . S
C1698 C1701 1.403 . S
C1699 C1696 1.403 . S
C1699 C1700 1.524 . S
C1699 C1703 1.400 . S
C1700 H1685 0.960 . S
C1700 H1686 0.960 . S
C1700 H1687 0.960 1_655 S
C1700 C1699 1.524 . S
C1701 C1698 1.403 . S
C1701 C1702 1.392 . S
C1701 C1705 1.495 . S
C1702 C1701 1.392 . S
C1702 C1703 1.385 . S
C1702 C1704 1.478 . S
C1703 H1697 0.930 . S
C1703 C1699 1.400 . S
C1703 C1702 1.385 . S
C1704 C1702 1.478 . S
C1704 C1706 1.381 . S
C1704 C1710 1.383 . S
C1705 C1701 1.495 . S
C1705 H1711 0.959 . S
C1705 H1712 0.961 . S
C1705 H1713 0.960 . S
C1706 C1704 1.381 . S
C1706 C1707 1.394 . S
C1706 H1714 0.930 . S
C1707 C1706 1.394 . S
C1707 C1708 1.383 . S
C1707 H1715 0.929 . S
C1708 C1707 1.383 . S
C1708 C1709 1.377 . S
C1709 H1693 0.930 . S
C1709 C1708 1.377 . S
C1709 C1710 1.379 . S
C1710 H1694 0.931 . S
C1710 C1704 1.383 . S
C1710 C1709 1.379 . S
H1711 C1705 0.959 . S
H1712 C1705 0.961 . S
H1713 C1705 0.960 . S
H1714 C1706 0.930 . S
H1715 C1707 0.929 . S
H1716 C1724 0.929 . S
H1717 C1726 0.930 . S
H1718 C1728 0.930 . S
H1719 C1731 0.929 . S
H1720 C1734 0.930 . S
H1721 C1736 0.960 . S
H1722 C1736 0.960 . S
H1723 C1736 0.960 . S
C1724 H1716 0.929 . S
C1724 C1725 1.377 . S
C1724 C1726 1.384 . S
C1725 C1724 1.377 . S
C1725 C1731 1.390 . S
C1726 H1717 0.930 . S
C1726 C1724 1.384 . S
C1726 C1727 1.372 . S
C1727 C1726 1.372 . S
C1727 C1728 1.400 . S
C1727 C1732 1.490 . S
C1728 H1718 0.930 . S
C1728 C1727 1.400 . S
C1728 C1731 1.386 . S
H1729 C1745 0.930 . S
H1730 C1746 0.931 . S
C1731 H1719 0.929 . S
C1731 C1725 1.390 . S
C1731 C1728 1.386 . S
C1732 C1727 1.490 . S
C1732 C1734 1.395 . S
C1732 C1735 1.403 . S
H1733 C1739 0.930 . S
C1734 H1720 0.930 . S
C1734 C1732 1.395 . S
C1734 C1737 1.403 . S
C1735 C1732 1.403 . S
C1735 C1736 1.524 . S
C1735 C1739 1.400 . S
C1736 H1721 0.960 . S
C1736 H1722 0.960 . S
C1736 H1723 0.960 . S
C1736 C1735 1.524 . S
C1737 C1734 1.403 . S
C1737 C1738 1.392 . S
C1737 C1741 1.495 . S
C1738 C1737 1.392 . S
C1738 C1739 1.385 . S
C1738 C1740 1.478 . S
C1739 H1733 0.930 . S
C1739 C1735 1.400 . S
C1739 C1738 1.385 . S
C1740 C1738 1.478 . S
C1740 C1742 1.381 . S
C1740 C1746 1.383 . S
C1741 C1737 1.495 . S
C1741 H1747 0.959 . S
C1741 H1748 0.961 . S
C1741 H1749 0.960 . S
C1742 C1740 1.381 . S
C1742 C1743 1.394 . S
C1742 H1750 0.930 . S
C1743 C1742 1.394 . S
C1743 C1744 1.383 . S
C1743 H1751 0.929 . S
C1744 C1743 1.383 . S
C1744 C1745 1.377 . S
C1745 H1729 0.930 . S
C1745 C1744 1.377 . S
C1745 C1746 1.379 . S
C1746 H1730 0.931 . S
C1746 C1740 1.383 . S
C1746 C1745 1.379 . S
H1747 C1741 0.959 . S
H1748 C1741 0.961 . S
H1749 C1741 0.960 . S
H1750 C1742 0.930 . S
H1751 C1743 0.929 . S
H1752 C1760 0.929 . S
H1753 C1762 0.930 . S
H1754 C1764 0.930 . S
H1755 C1767 0.929 . S
H1756 C1770 0.930 . S
H1757 C1772 0.960 . S
H1758 C1772 0.960 . S
H1759 C1772 0.960 . S
C1760 H1752 0.929 . S
C1760 C1761 1.377 . S
C1760 C1762 1.384 . S
C1761 C1760 1.377 . S
C1761 C1767 1.390 . S
C1762 H1753 0.930 . S
C1762 C1760 1.384 . S
C1762 C1763 1.372 . S
C1763 C1762 1.372 . S
C1763 C1764 1.400 . S
C1763 C1768 1.490 . S
C1764 H1754 0.930 . S
C1764 C1763 1.400 . S
C1764 C1767 1.386 . S
H1765 C1781 0.930 . S
H1766 C1782 0.931 . S
C1767 H1755 0.929 . S
C1767 C1761 1.390 . S
C1767 C1764 1.386 . S
C1768 C1763 1.490 . S
C1768 C1770 1.395 . S
C1768 C1771 1.403 . S
H1769 C1775 0.930 . S
C1770 H1756 0.930 . S
C1770 C1768 1.395 . S
C1770 C1773 1.403 . S
C1771 C1768 1.403 . S
C1771 C1772 1.524 . S
C1771 C1775 1.400 . S
C1772 H1757 0.960 . S
C1772 H1758 0.960 . S
C1772 H1759 0.960 . S
C1772 C1771 1.524 . S
C1773 C1770 1.403 . S
C1773 C1774 1.392 . S
C1773 C1777 1.495 . S
C1774 C1773 1.392 . S
C1774 C1775 1.385 . S
C1774 C1776 1.478 . S
C1775 H1769 0.930 . S
C1775 C1771 1.400 . S
C1775 C1774 1.385 . S
C1776 C1774 1.478 . S
C1776 C1778 1.381 . S
C1776 C1782 1.383 . S
C1777 C1773 1.495 . S
C1777 H1783 0.959 . S
C1777 H1784 0.961 . S
C1777 H1785 0.960 . S
C1778 C1776 1.381 . S
C1778 C1779 1.394 . S
C1778 H1786 0.930 . S
C1779 C1778 1.394 . S
C1779 C1780 1.383 . S
C1779 H1787 0.929 . S
C1780 C1779 1.383 . S
C1780 C1781 1.377 . S
C1781 H1765 0.930 . S
C1781 C1780 1.377 . S
C1781 C1782 1.379 . S
C1782 H1766 0.931 . S
C1782 C1776 1.383 . S
C1782 C1781 1.379 . S
H1783 C1777 0.959 . S
H1784 C1777 0.961 . S
H1785 C1777 0.960 . S
H1786 C1778 0.930 . S
H1787 C1779 0.929 . S
H1788 C1796 0.929 . S
H1789 C1798 0.930 . S
H1790 C1800 0.930 . S
H1791 C1803 0.929 . S
H1792 C1806 0.930 . S
H1793 C1808 0.960 . S
H1794 C1808 0.960 . S
H1795 C1808 0.960 . S
C1796 H1788 0.929 . S
C1796 C1797 1.377 . S
C1796 C1798 1.384 . S
C1797 C1796 1.377 . S
C1797 C1803 1.390 . S
C1798 H1789 0.930 . S
C1798 C1796 1.384 . S
C1798 C1799 1.372 . S
C1799 C1798 1.372 . S
C1799 C1800 1.400 . S
C1799 C1804 1.490 . S
C1800 H1790 0.930 . S
C1800 C1799 1.400 . S
C1800 C1803 1.386 . S
H1801 C1817 0.930 . S
H1802 C1818 0.931 . S
C1803 H1791 0.929 . S
C1803 C1797 1.390 . S
C1803 C1800 1.386 . S
C1804 C1799 1.490 . S
C1804 C1806 1.395 . S
C1804 C1807 1.403 . S
H1805 C1811 0.918 1_556 S
C1806 H1792 0.930 . S
C1806 C1804 1.395 . S
C1806 C1809 1.403 . S
C1807 C1804 1.403 . S
C1807 C1808 1.524 . S
C1807 C1811 1.416 . S
C1808 H1793 0.960 . S
C1808 H1794 0.960 . S
C1808 H1795 0.960 . S
C1808 C1807 1.524 . S
C1809 C1806 1.403 . S
C1809 C1810 1.392 1_554 S
C1809 C1813 1.495 . S
C1810 C1809 1.392 1_556 S
C1810 C1811 1.382 1_556 S
C1810 C1812 1.478 . S
C1811 H1805 0.918 1_554 S
C1811 C1807 1.416 . S
C1811 C1810 1.382 1_554 S
C1812 C1810 1.478 . S
C1812 C1814 1.381 . S
C1812 C1818 1.383 . S
C1813 C1809 1.495 . S
C1813 H1819 0.959 . S
C1813 H1820 0.961 1_554 S
C1813 H1821 0.960 . S
C1814 C1812 1.381 . S
C1814 C1815 1.394 . S
C1814 H1822 0.930 . S
C1815 C1814 1.394 . S
C1815 C1816 1.383 . S
C1815 H1823 0.929 . S
C1816 C1815 1.383 . S
C1816 C1817 1.377 . S
C1817 H1801 0.930 . S
C1817 C1816 1.377 . S
C1817 C1818 1.379 . S
C1818 H1802 0.931 . S
C1818 C1812 1.383 . S
C1818 C1817 1.379 . S
H1819 C1813 0.959 . S
H1820 C1813 0.961 1_556 S
H1821 C1813 0.960 . S
H1822 C1814 0.930 . S
H1823 C1815 0.929 . S
H1824 C1832 0.929 . S
H1825 C1834 0.930 . S
H1826 C1836 0.930 . S
H1827 C1839 0.929 . S
H1828 C1842 0.930 . S
H1829 C1844 0.960 . S
H1830 C1844 0.960 . S
H1831 C1844 0.960 . S
C1832 H1824 0.929 . S
C1832 C1833 1.377 1_565 S
C1832 C1834 1.384 . S
C1833 C1832 1.377 1_545 S
C1833 C1839 1.390 . S
C1834 H1825 0.930 . S
C1834 C1832 1.384 . S
C1834 C1835 1.390 . S
C1835 C1834 1.390 . S
C1835 C1836 1.360 1_565 S
C1835 C1840 1.513 . S
C1836 H1826 0.930 . S
C1836 C1835 1.360 1_545 S
C1836 C1839 1.386 . S
H1837 C1853 0.930 . S
H1838 C1854 0.931 . S
C1839 H1827 0.929 . S
C1839 C1833 1.390 . S
C1839 C1836 1.386 . S
C1840 C1835 1.513 . S
C1840 C1842 1.395 . S
C1840 C1843 1.413 . S
H1841 C1847 0.930 . S
C1842 H1828 0.930 . S
C1842 C1840 1.395 . S
C1842 C1845 1.403 . S
C1843 C1840 1.413 . S
C1843 C1844 1.502 1_565 S
C1843 C1847 1.413 . S
C1844 H1829 0.960 . S
C1844 H1830 0.960 . S
C1844 H1831 0.960 . S
C1844 C1843 1.502 1_545 S
C1845 C1842 1.403 . S
C1845 C1846 1.392 . S
C1845 C1849 1.495 . S
C1846 C1845 1.392 . S
C1846 C1847 1.385 . S
C1846 C1848 1.478 . S
C1847 H1841 0.930 . S
C1847 C1843 1.413 . S
C1847 C1846 1.385 . S
C1848 C1846 1.478 . S
C1848 C1850 1.381 . S
C1848 C1854 1.383 . S
C1849 C1845 1.495 . S
C1849 H1855 0.959 . S
C1849 H1856 0.961 . S
C1849 H1857 0.960 . S
C1850 C1848 1.381 . S
C1850 C1851 1.394 . S
C1850 H1858 0.930 . S
C1851 C1850 1.394 . S
C1851 C1852 1.383 . S
C1851 H1859 0.929 . S
C1852 C1851 1.383 . S
C1852 C1853 1.377 . S
C1853 H1837 0.930 . S
C1853 C1852 1.377 . S
C1853 C1854 1.379 . S
C1854 H1838 0.931 . S
C1854 C1848 1.383 . S
C1854 C1853 1.379 . S
H1855 C1849 0.959 . S
H1856 C1849 0.961 . S
H1857 C1849 0.960 . S
H1858 C1850 0.930 . S
H1859 C1851 0.929 . S
H1860 C1868 0.929 . S
H1861 C1870 0.930 . S
H1862 C1872 0.930 . S
H1863 C1875 0.929 . S
H1864 C1878 0.930 . S
H1865 C1880 0.960 . S
H1866 C1880 0.960 . S
H1867 C1880 0.960 . S
C1868 H1860 0.929 . S
C1868 C1869 1.377 . S
C1868 C1870 1.384 . S
C1869 C1868 1.377 . S
C1869 C1875 1.390 . S
C1870 H1861 0.930 . S
C1870 C1868 1.384 . S
C1870 C1871 1.372 1_565 S
C1871 C1870 1.372 1_545 S
C1871 C1872 1.400 . S
C1871 C1876 1.490 . S
C1872 H1862 0.930 . S
C1872 C1871 1.400 . S
C1872 C1875 1.386 1_545 S
H1873 C1889 0.930 . S
H1874 C1890 0.931 . S
C1875 H1863 0.929 . S
C1875 C1869 1.390 . S
C1875 C1872 1.386 1_565 S
C1876 C1871 1.490 . S
C1876 C1878 1.395 . S
C1876 C1879 1.403 . S
H1877 C1883 0.930 . S
C1878 H1864 0.930 . S
C1878 C1876 1.395 . S
C1878 C1881 1.403 . S
C1879 C1876 1.403 . S
C1879 C1880 1.524 . S
C1879 C1883 1.400 . S
C1880 H1865 0.960 . S
C1880 H1866 0.960 . S
C1880 H1867 0.960 . S
C1880 C1879 1.524 . S
C1881 C1878 1.403 . S
C1881 C1882 1.392 . S
C1881 C1885 1.495 . S
C1882 C1881 1.392 . S
C1882 C1883 1.385 . S
C1882 C1884 1.478 . S
C1883 H1877 0.930 . S
C1883 C1879 1.400 . S
C1883 C1882 1.385 . S
C1884 C1882 1.478 . S
C1884 C1886 1.381 . S
C1884 C1890 1.383 . S
C1885 C1881 1.495 . S
C1885 H1891 0.959 . S
C1885 H1892 0.961 . S
C1885 H1893 0.960 . S
C1886 C1884 1.381 . S
C1886 C1887 1.394 . S
C1886 H1894 0.930 . S
C1887 C1886 1.394 . S
C1887 C1888 1.383 . S
C1887 H1895 0.929 . S
C1888 C1887 1.383 . S
C1888 C1889 1.377 . S
C1889 H1873 0.930 . S
C1889 C1888 1.377 . S
C1889 C1890 1.379 . S
C1890 H1874 0.931 . S
C1890 C1884 1.383 . S
C1890 C1889 1.379 . S
H1891 C1885 0.959 . S
H1892 C1885 0.961 . S
H1893 C1885 0.960 . S
H1894 C1886 0.930 . S
H1895 C1887 0.929 . S
H1896 C1904 0.929 . S
H1897 C1906 0.930 . S
H1898 C1908 0.930 . S
H1899 C1911 0.929 . S
H1900 C1914 0.930 . S
H1901 C1916 0.960 . S
H1902 C1916 0.960 . S
H1903 C1916 0.960 . S
C1904 H1896 0.929 . S
C1904 C1905 1.377 . S
C1904 C1906 1.384 . S
C1905 C1904 1.377 . S
C1905 C1911 1.390 . S
C1906 H1897 0.930 . S
C1906 C1904 1.384 . S
C1906 C1907 1.372 . S
C1907 C1906 1.372 . S
C1907 C1908 1.400 . S
C1907 C1912 1.490 . S
C1908 H1898 0.930 . S
C1908 C1907 1.400 . S
C1908 C1911 1.386 . S
H1909 C1925 0.930 . S
H1910 C1926 0.931 . S
C1911 H1899 0.929 . S
C1911 C1905 1.390 . S
C1911 C1908 1.386 . S
C1912 C1907 1.490 . S
C1912 C1914 1.395 . S
C1912 C1915 1.403 . S
H1913 C1919 0.930 . S
C1914 H1900 0.930 . S
C1914 C1912 1.395 . S
C1914 C1917 1.403 . S
C1915 C1912 1.403 . S
C1915 C1916 1.524 . S
C1915 C1919 1.400 . S
C1916 H1901 0.960 . S
C1916 H1902 0.960 . S
C1916 H1903 0.960 . S
C1916 C1915 1.524 . S
C1917 C1914 1.403 . S
C1917 C1918 1.392 . S
C1917 C1921 1.495 . S
C1918 C1917 1.392 . S
C1918 C1919 1.385 . S
C1918 C1920 1.478 . S
C1919 H1913 0.930 . S
C1919 C1915 1.400 . S
C1919 C1918 1.385 . S
C1920 C1918 1.478 . S
C1920 C1922 1.381 . S
C1920 C1926 1.383 . S
C1921 C1917 1.495 . S
C1921 H1927 0.959 . S
C1921 H1928 0.961 . S
C1921 H1929 0.960 . S
C1922 C1920 1.381 . S
C1922 C1923 1.394 . S
C1922 H1930 0.930 . S
C1923 C1922 1.394 . S
C1923 C1924 1.383 . S
C1923 H1931 0.929 . S
C1924 C1923 1.383 . S
C1924 C1925 1.377 . S
C1925 H1909 0.930 . S
C1925 C1924 1.377 . S
C1925 C1926 1.379 . S
C1926 H1910 0.931 . S
C1926 C1920 1.383 . S
C1926 C1925 1.379 . S
H1927 C1921 0.959 . S
H1928 C1921 0.961 . S
H1929 C1921 0.960 . S
H1930 C1922 0.930 . S
H1931 C1923 0.929 . S
H1932 C1940 0.929 . S
H1933 C1942 0.930 . S
H1934 C1944 0.930 . S
H1935 C1947 0.929 . S
H1936 C1950 0.930 . S
H1937 C1952 0.960 . S
H1938 C1952 0.960 . S
H1939 C1952 0.960 . S
C1940 H1932 0.929 . S
C1940 C1941 1.377 . S
C1940 C1942 1.384 . S
C1941 C1940 1.377 . S
C1941 C1947 1.390 . S
C1942 H1933 0.930 . S
C1942 C1940 1.384 . S
C1942 C1943 1.372 . S
C1943 C1942 1.372 . S
C1943 C1944 1.400 . S
C1943 C1948 1.490 . S
C1944 H1934 0.930 . S
C1944 C1943 1.400 . S
C1944 C1947 1.386 . S
H1945 C1961 0.930 . S
H1946 C1962 0.931 . S
C1947 H1935 0.929 . S
C1947 C1941 1.390 . S
C1947 C1944 1.386 . S
C1948 C1943 1.490 . S
C1948 C1950 1.395 . S
C1948 C1951 1.403 . S
H1949 C1955 0.930 . S
C1950 H1936 0.930 . S
C1950 C1948 1.395 . S
C1950 C1953 1.403 . S
C1951 C1948 1.403 . S
C1951 C1952 1.524 . S
C1951 C1955 1.400 . S
C1952 H1937 0.960 . S
C1952 H1938 0.960 . S
C1952 H1939 0.960 . S
C1952 C1951 1.524 . S
C1953 C1950 1.403 . S
C1953 C1954 1.392 . S
C1953 C1957 1.495 . S
C1954 C1953 1.392 . S
C1954 C1955 1.385 . S
C1954 C1956 1.478 1_545 S
C1955 H1949 0.930 . S
C1955 C1951 1.400 . S
C1955 C1954 1.385 . S
C1956 C1954 1.478 1_565 S
C1956 C1958 1.381 . S
C1956 C1962 1.383 . S
C1957 C1953 1.495 . S
C1957 H1963 0.959 . S
C1957 H1964 0.961 . S
C1957 H1965 0.960 . S
C1958 C1956 1.381 . S
C1958 C1959 1.394 . S
C1958 H1966 0.930 1_565 S
C1959 C1958 1.394 . S
C1959 C1960 1.383 . S
C1959 H1967 0.929 . S
C1960 C1959 1.383 . S
C1960 C1961 1.377 . S
C1961 H1945 0.930 . S
C1961 C1960 1.377 . S
C1961 C1962 1.379 . S
C1962 H1946 0.931 . S
C1962 C1956 1.383 . S
C1962 C1961 1.379 . S
H1963 C1957 0.959 . S
H1964 C1957 0.961 . S
H1965 C1957 0.960 . S
H1966 C1958 0.930 1_545 S
H1967 C1959 0.929 . S
H1968 C1976 0.929 . S
H1969 C1978 0.930 . S
H1970 C1980 0.930 . S
H1971 C1983 0.929 . S
H1972 C1986 0.930 . S
H1973 C1988 0.960 . S
H1974 C1988 0.960 . S
H1975 C1988 0.960 . S
C1976 H1968 0.929 . S
C1976 C1977 1.377 . S
C1976 C1978 1.384 . S
C1977 C1976 1.377 . S
C1977 C1983 1.390 . S
C1978 H1969 0.930 . S
C1978 C1976 1.384 . S
C1978 C1979 1.372 . S
C1979 C1978 1.372 . S
C1979 C1980 1.400 . S
C1979 C1984 1.490 . S
C1980 H1970 0.930 . S
C1980 C1979 1.400 . S
C1980 C1983 1.386 . S
H1981 C1997 0.930 . S
H1982 C1998 0.931 . S
C1983 H1971 0.929 . S
C1983 C1977 1.390 . S
C1983 C1980 1.386 . S
C1984 C1979 1.490 . S
C1984 C1986 1.395 . S
C1984 C1987 1.403 . S
H1985 C1991 0.930 . S
C1986 H1972 0.930 . S
C1986 C1984 1.395 . S
C1986 C1989 1.403 . S
C1987 C1984 1.403 . S
C1987 C1988 1.524 . S
C1987 C1991 1.400 . S
C1988 H1973 0.960 . S
C1988 H1974 0.960 . S
C1988 H1975 0.960 . S
C1988 C1987 1.524 . S
C1989 C1986 1.403 . S
C1989 C1990 1.392 . S
C1989 C1993 1.495 . S
C1990 C1989 1.392 . S
C1990 C1991 1.385 . S
C1990 C1992 1.478 . S
C1991 H1985 0.930 . S
C1991 C1987 1.400 . S
C1991 C1990 1.385 . S
C1992 C1990 1.478 . S
C1992 C1994 1.381 . S
C1992 C1998 1.383 . S
C1993 C1989 1.495 . S
C1993 H1999 0.959 . S
C1993 H2000 0.961 . S
C1993 H2001 0.960 . S
C1994 C1992 1.381 . S
C1994 C1995 1.394 . S
C1994 H2002 0.930 . S
C1995 C1994 1.394 . S
C1995 C1996 1.383 . S
C1995 H2003 0.929 . S
C1996 C1995 1.383 . S
C1996 C1997 1.377 . S
C1997 H1981 0.930 . S
C1997 C1996 1.377 . S
C1997 C1998 1.379 . S
C1998 H1982 0.931 . S
C1998 C1992 1.383 . S
C1998 C1997 1.379 . S
H1999 C1993 0.959 . S
H2000 C1993 0.961 . S
H2001 C1993 0.960 . S
H2002 C1994 0.930 . S
H2003 C1995 0.929 . S
H2004 C2012 0.929 . S
H2005 C2014 0.930 . S
H2006 C2016 0.930 . S
H2007 C2019 0.929 . S
H2008 C2022 0.886 1_565 S
H2009 C2024 0.960 . S
H2010 C2024 0.960 . S
H2011 C2024 0.960 . S
C2012 H2004 0.929 . S
C2012 C2013 1.377 . S
C2012 C2014 1.384 . S
C2013 C2012 1.377 . S
C2013 C2019 1.390 . S
C2014 H2005 0.930 . S
C2014 C2012 1.384 . S
C2014 C2015 1.372 . S
C2015 C2014 1.372 . S
C2015 C2016 1.400 . S
C2015 C2020 1.490 1_565 S
C2016 H2006 0.930 . S
C2016 C2015 1.400 . S
C2016 C2019 1.386 . S
H2017 C2033 0.930 . S
H2018 C2034 0.931 . S
C2019 H2007 0.929 . S
C2019 C2013 1.390 . S
C2019 C2016 1.386 . S
C2020 C2015 1.490 1_545 S
C2020 C2022 1.395 . S
C2020 C2023 1.403 . S
H2021 C2027 0.930 . S
C2022 H2008 0.886 1_545 S
C2022 C2020 1.395 . S
C2022 C2025 1.403 . S
C2023 C2020 1.403 . S
C2023 C2024 1.524 . S
C2023 C2027 1.400 . S
C2024 H2009 0.960 . S
C2024 H2010 0.960 . S
C2024 H2011 0.960 . S
C2024 C2023 1.524 . S
C2025 C2022 1.403 . S
C2025 C2026 1.392 . S
C2025 C2029 1.495 . S
C2026 C2025 1.392 . S
C2026 C2027 1.385 . S
C2026 C2028 1.478 . S
C2027 H2021 0.930 . S
C2027 C2023 1.400 . S
C2027 C2026 1.385 . S
C2028 C2026 1.478 . S
C2028 C2030 1.381 . S
C2028 C2034 1.383 . S
C2029 C2025 1.495 . S
C2029 H2035 0.959 . S
C2029 H2036 0.961 . S
C2029 H2037 0.960 . S
C2030 C2028 1.381 . S
C2030 C2031 1.394 . S
C2030 H2038 0.930 . S
C2031 C2030 1.394 . S
C2031 C2032 1.383 . S
C2031 H2039 0.929 . S
C2032 C2031 1.383 . S
C2032 C2033 1.377 . S
C2033 H2017 0.930 . S
C2033 C2032 1.377 . S
C2033 C2034 1.379 . S
C2034 H2018 0.931 . S
C2034 C2028 1.383 . S
C2034 C2033 1.379 . S
H2035 C2029 0.959 . S
H2036 C2029 0.961 . S
H2037 C2029 0.960 . S
H2038 C2030 0.930 . S
H2039 C2031 0.929 . S
H2040 C2048 0.929 . S
H2041 C2050 0.930 . S
H2042 C2052 0.930 . S
H2043 C2055 0.929 . S
H2044 C2058 0.930 . S
H2045 C2060 0.960 . S
H2046 C2060 0.960 . S
H2047 C2060 0.960 . S
C2048 H2040 0.929 . S
C2048 C2049 1.377 . S
C2048 C2050 1.384 . S
C2049 C2048 1.377 . S
C2049 C2055 1.390 . S
C2050 H2041 0.930 . S
C2050 C2048 1.384 . S
C2050 C2051 1.372 . S
C2051 C2050 1.372 . S
C2051 C2052 1.400 . S
C2051 C2056 1.490 . S
C2052 H2042 0.930 . S
C2052 C2051 1.400 . S
C2052 C2055 1.386 . S
H2053 C2069 0.930 . S
H2054 C2070 0.931 . S
C2055 H2043 0.929 . S
C2055 C2049 1.390 . S
C2055 C2052 1.386 . S
C2056 C2051 1.490 . S
C2056 C2058 1.395 . S
C2056 C2059 1.403 . S
H2057 C2063 0.930 . S
C2058 H2044 0.930 . S
C2058 C2056 1.395 . S
C2058 C2061 1.403 . S
C2059 C2056 1.403 . S
C2059 C2060 1.524 . S
C2059 C2063 1.400 . S
C2060 H2045 0.960 . S
C2060 H2046 0.960 . S
C2060 H2047 0.960 . S
C2060 C2059 1.524 . S
C2061 C2058 1.403 . S
C2061 C2062 1.392 . S
C2061 C2065 1.495 . S
C2062 C2061 1.392 . S
C2062 C2063 1.385 . S
C2062 C2064 1.478 . S
C2063 H2057 0.930 . S
C2063 C2059 1.400 . S
C2063 C2062 1.385 . S
C2064 C2062 1.478 . S
C2064 C2066 1.381 . S
C2064 C2070 1.383 . S
C2065 C2061 1.495 . S
C2065 H2071 0.959 . S
C2065 H2072 0.961 . S
C2065 H2073 0.960 . S
C2066 C2064 1.381 . S
C2066 C2067 1.394 . S
C2066 H2074 0.930 . S
C2067 C2066 1.394 . S
C2067 C2068 1.383 . S
C2067 H2075 0.929 . S
C2068 C2067 1.383 . S
C2068 C2069 1.377 . S
C2069 H2053 0.930 . S
C2069 C2068 1.377 . S
C2069 C2070 1.379 . S
C2070 H2054 0.931 . S
C2070 C2064 1.383 . S
C2070 C2069 1.379 . S
H2071 C2065 0.959 . S
H2072 C2065 0.961 . S
H2073 C2065 0.960 . S
H2074 C2066 0.930 . S
H2075 C2067 0.929 . S
H2076 C2084 0.929 . S
H2077 C2086 0.930 . S
H2078 C2088 0.930 . S
H2079 C2091 0.929 . S
H2080 C2094 0.930 . S
H2081 C2096 0.960 . S
H2082 C2096 0.960 . S
H2083 C2096 0.960 . S
C2084 H2076 0.929 . S
C2084 C2085 1.377 . S
C2084 C2086 1.384 . S
C2085 C2084 1.377 . S
C2085 C2091 1.390 . S
C2086 H2077 0.930 . S
C2086 C2084 1.384 . S
C2086 C2087 1.372 . S
C2087 C2086 1.372 . S
C2087 C2088 1.400 . S
C2087 C2092 1.490 . S
C2088 H2078 0.930 . S
C2088 C2087 1.400 . S
C2088 C2091 1.386 . S
H2089 C2105 0.930 . S
H2090 C2106 0.931 . S
C2091 H2079 0.929 . S
C2091 C2085 1.390 . S
C2091 C2088 1.386 . S
C2092 C2087 1.490 . S
C2092 C2094 1.395 . S
C2092 C2095 1.403 . S
H2093 C2099 0.930 . S
C2094 H2080 0.930 . S
C2094 C2092 1.395 . S
C2094 C2097 1.403 . S
C2095 C2092 1.403 . S
C2095 C2096 1.524 . S
C2095 C2099 1.400 . S
C2096 H2081 0.960 . S
C2096 H2082 0.960 . S
C2096 H2083 0.960 . S
C2096 C2095 1.524 . S
C2097 C2094 1.403 . S
C2097 C2098 1.392 . S
C2097 C2101 1.495 . S
C2098 C2097 1.392 . S
C2098 C2099 1.385 . S
C2098 C2100 1.478 . S
C2099 H2093 0.930 . S
C2099 C2095 1.400 . S
C2099 C2098 1.385 . S
C2100 C2098 1.478 . S
C2100 C2102 1.381 1_545 S
C2100 C2106 1.383 . S
C2101 C2097 1.495 . S
C2101 H2107 0.959 . S
C2101 H2108 0.961 . S
C2101 H2109 0.960 . S
C2102 C2100 1.381 1_565 S
C2102 C2103 1.394 . S
C2102 H2110 0.930 . S
C2103 C2102 1.394 . S
C2103 C2104 1.383 . S
C2103 H2111 0.929 . S
C2104 C2103 1.383 . S
C2104 C2105 1.377 . S
C2105 H2089 0.930 . S
C2105 C2104 1.377 . S
C2105 C2106 1.379 1_565 S
C2106 H2090 0.931 . S
C2106 C2100 1.383 . S
C2106 C2105 1.379 1_545 S
H2107 C2101 0.959 . S
H2108 C2101 0.961 . S
H2109 C2101 0.960 . S
H2110 C2102 0.930 . S
H2111 C2103 0.929 . S
H2112 C2120 0.929 . S
H2113 C2122 0.930 . S
H2114 C2124 0.930 . S
H2115 C2127 0.929 . S
H2116 C2130 0.930 . S
H2117 C2132 0.960 . S
H2118 C2132 0.960 . S
H2119 C2132 0.960 . S
C2120 H2112 0.929 . S
C2120 C2121 1.377 . S
C2120 C2122 1.384 . S
C2121 C2120 1.377 . S
C2121 C2127 1.390 . S
C2122 H2113 0.930 . S
C2122 C2120 1.384 . S
C2122 C2123 1.372 . S
C2123 C2122 1.372 . S
C2123 C2124 1.400 . S
C2123 C2128 1.490 . S
C2124 H2114 0.930 . S
C2124 C2123 1.400 . S
C2124 C2127 1.386 . S
H2125 C2141 0.930 . S
H2126 C2142 0.931 . S
C2127 H2115 0.929 . S
C2127 C2121 1.390 . S
C2127 C2124 1.386 . S
C2128 C2123 1.490 . S
C2128 C2130 1.395 . S
C2128 C2131 1.403 . S
H2129 C2135 0.930 . S
C2130 H2116 0.930 . S
C2130 C2128 1.395 . S
C2130 C2133 1.403 . S
C2131 C2128 1.403 . S
C2131 C2132 1.524 . S
C2131 C2135 1.400 . S
C2132 H2117 0.960 . S
C2132 H2118 0.960 . S
C2132 H2119 0.960 . S
C2132 C2131 1.524 . S
C2133 C2130 1.403 . S
C2133 C2134 1.392 . S
C2133 C2137 1.495 . S
C2134 C2133 1.392 . S
C2134 C2135 1.385 . S
C2134 C2136 1.478 . S
C2135 H2129 0.930 . S
C2135 C2131 1.400 . S
C2135 C2134 1.385 . S
C2136 C2134 1.478 . S
C2136 C2138 1.381 . S
C2136 C2142 1.383 . S
C2137 C2133 1.495 . S
C2137 H2143 0.959 . S
C2137 H2144 0.961 . S
C2137 H2145 0.960 . S
C2138 C2136 1.381 . S
C2138 C2139 1.394 . S
C2138 H2146 0.930 . S
C2139 C2138 1.394 . S
C2139 C2140 1.383 . S
C2139 H2147 0.929 . S
C2140 C2139 1.383 . S
C2140 C2141 1.377 . S
C2141 H2125 0.930 . S
C2141 C2140 1.377 . S
C2141 C2142 1.379 . S
C2142 H2126 0.931 . S
C2142 C2136 1.383 . S
C2142 C2141 1.379 . S
H2143 C2137 0.959 . S
H2144 C2137 0.961 . S
H2145 C2137 0.960 . S
H2146 C2138 0.930 . S
H2147 C2139 0.929 . S
H2148 C2156 0.929 . S
H2149 C2158 0.930 . S
H2150 C2160 0.930 . S
H2151 C2163 0.929 . S
H2152 C2166 0.930 . S
H2153 C2168 0.960 . S
H2154 C2168 0.960 . S
H2155 C2168 0.960 . S
C2156 H2148 0.929 . S
C2156 C2157 1.377 . S
C2156 C2158 1.384 . S
C2157 C2156 1.377 . S
C2157 C2163 1.390 . S
C2158 H2149 0.930 . S
C2158 C2156 1.384 . S
C2158 C2159 1.372 . S
C2159 C2158 1.372 . S
C2159 C2160 1.400 . S
C2159 C2164 1.490 . S
C2160 H2150 0.930 . S
C2160 C2159 1.400 . S
C2160 C2163 1.386 . S
H2161 C2177 0.930 . S
H2162 C2178 0.931 . S
C2163 H2151 0.929 . S
C2163 C2157 1.390 . S
C2163 C2160 1.386 . S
C2164 C2159 1.490 . S
C2164 C2166 1.395 . S
C2164 C2167 1.403 . S
H2165 C2171 0.930 . S
C2166 H2152 0.930 . S
C2166 C2164 1.395 . S
C2166 C2169 1.403 . S
C2167 C2164 1.403 . S
C2167 C2168 1.524 . S
C2167 C2171 1.400 . S
C2168 H2153 0.960 . S
C2168 H2154 0.960 . S
C2168 H2155 0.960 . S
C2168 C2167 1.524 . S
C2169 C2166 1.403 . S
C2169 C2170 1.392 . S
C2169 C2173 1.495 . S
C2170 C2169 1.392 . S
C2170 C2171 1.385 . S
C2170 C2172 1.478 . S
C2171 H2165 0.930 . S
C2171 C2167 1.400 . S
C2171 C2170 1.385 . S
C2172 C2170 1.478 . S
C2172 C2174 1.381 . S
C2172 C2178 1.383 . S
C2173 C2169 1.495 . S
C2173 H2179 0.959 . S
C2173 H2180 0.961 . S
C2173 H2181 0.960 . S
C2174 C2172 1.381 . S
C2174 C2175 1.394 . S
C2174 H2182 0.930 . S
C2175 C2174 1.394 . S
C2175 C2176 1.383 . S
C2175 H2183 0.929 . S
C2176 C2175 1.383 . S
C2176 C2177 1.377 . S
C2177 H2161 0.930 . S
C2177 C2176 1.377 . S
C2177 C2178 1.379 . S
C2178 H2162 0.931 . S
C2178 C2172 1.383 . S
C2178 C2177 1.379 . S
H2179 C2173 0.959 . S
H2180 C2173 0.961 . S
H2181 C2173 0.960 . S
H2182 C2174 0.930 . S
H2183 C2175 0.929 . S
H2184 C2192 0.929 . S
H2185 C2194 0.930 . S
H2186 C2196 0.930 . S
H2187 C2199 0.929 . S
H2188 C2202 0.930 . S
H2189 C2204 0.960 . S
H2190 C2204 0.960 . S
H2191 C2204 0.960 . S
C2192 H2184 0.929 . S
C2192 C2193 1.377 . S
C2192 C2194 1.384 . S
C2193 C2192 1.377 . S
C2193 C2199 1.390 . S
C2194 H2185 0.930 . S
C2194 C2192 1.384 . S
C2194 C2195 1.372 . S
C2195 C2194 1.372 . S
C2195 C2196 1.400 . S
C2195 C2200 1.490 . S
C2196 H2186 0.930 . S
C2196 C2195 1.400 . S
C2196 C2199 1.386 . S
H2197 C2213 0.930 . S
H2198 C2214 0.931 . S
C2199 H2187 0.929 . S
C2199 C2193 1.390 . S
C2199 C2196 1.386 . S
C2200 C2195 1.490 . S
C2200 C2202 1.395 . S
C2200 C2203 1.403 . S
H2201 C2207 0.930 . S
C2202 H2188 0.930 . S
C2202 C2200 1.395 . S
C2202 C2205 1.403 1_655 S
C2203 C2200 1.403 . S
C2203 C2204 1.524 . S
C2203 C2207 1.400 1_655 S
C2204 H2189 0.960 . S
C2204 H2190 0.960 . S
C2204 H2191 0.960 . S
C2204 C2203 1.524 . S
C2205 C2202 1.403 1_455 S
C2205 C2206 1.392 . S
C2205 C2209 1.495 . S
C2206 C2205 1.392 . S
C2206 C2207 1.385 . S
C2206 C2208 1.478 . S
C2207 H2201 0.930 . S
C2207 C2203 1.400 1_455 S
C2207 C2206 1.385 . S
C2208 C2206 1.478 . S
C2208 C2210 1.381 . S
C2208 C2214 1.383 . S
C2209 C2205 1.495 . S
C2209 H2215 0.959 . S
C2209 H2216 0.961 . S
C2209 H2217 0.960 . S
C2210 C2208 1.381 . S
C2210 C2211 1.394 . S
C2210 H2218 0.930 . S
C2211 C2210 1.394 . S
C2211 C2212 1.383 . S
C2211 H2219 0.929 . S
C2212 C2211 1.383 . S
C2212 C2213 1.377 . S
C2213 H2197 0.930 . S
C2213 C2212 1.377 . S
C2213 C2214 1.379 . S
C2214 H2198 0.931 . S
C2214 C2208 1.383 . S
C2214 C2213 1.379 . S
H2215 C2209 0.959 . S
H2216 C2209 0.961 . S
H2217 C2209 0.960 . S
H2218 C2210 0.930 . S
H2219 C2211 0.929 . S
H2220 C2228 0.929 . S
H2221 C2230 0.930 . S
H2222 C2232 0.930 . S
H2223 C2235 0.929 . S
H2224 C2238 0.930 . S
H2225 C2240 0.960 . S
H2226 C2240 0.960 . S
H2227 C2240 0.960 . S
C2228 H2220 0.929 . S
C2228 C2229 1.377 . S
C2228 C2230 1.384 . S
C2229 C2228 1.377 . S
C2229 C2235 1.390 . S
C2230 H2221 0.930 . S
C2230 C2228 1.384 . S
C2230 C2231 1.372 . S
C2231 C2230 1.372 . S
C2231 C2232 1.400 . S
C2231 C2236 1.490 . S
C2232 H2222 0.930 . S
C2232 C2231 1.400 . S
C2232 C2235 1.386 . S
H2233 C2249 0.930 . S
H2234 C2250 0.931 . S
C2235 H2223 0.929 . S
C2235 C2229 1.390 . S
C2235 C2232 1.386 . S
C2236 C2231 1.490 . S
C2236 C2238 1.395 . S
C2236 C2239 1.403 . S
H2237 C2243 0.930 . S
C2238 H2224 0.930 . S
C2238 C2236 1.395 . S
C2238 C2241 1.403 . S
C2239 C2236 1.403 . S
C2239 C2240 1.524 . S
C2239 C2243 1.400 . S
C2240 H2225 0.960 . S
C2240 H2226 0.960 . S
C2240 H2227 0.960 . S
C2240 C2239 1.524 . S
C2241 C2238 1.403 . S
C2241 C2242 1.392 . S
C2241 C2245 1.495 . S
C2242 C2241 1.392 . S
C2242 C2243 1.385 . S
C2242 C2244 1.478 . S
C2243 H2237 0.930 . S
C2243 C2239 1.400 . S
C2243 C2242 1.385 . S
C2244 C2242 1.478 . S
C2244 C2246 1.381 . S
C2244 C2250 1.383 . S
C2245 C2241 1.495 . S
C2245 H2251 0.959 . S
C2245 H2252 0.961 . S
C2245 H2253 0.960 . S
C2246 C2244 1.381 . S
C2246 C2247 1.394 . S
C2246 H2254 0.930 . S
C2247 C2246 1.394 . S
C2247 C2248 1.383 . S
C2247 H2255 0.929 . S
C2248 C2247 1.383 . S
C2248 C2249 1.377 . S
C2249 H2233 0.930 . S
C2249 C2248 1.377 . S
C2249 C2250 1.379 . S
C2250 H2234 0.931 . S
C2250 C2244 1.383 . S
C2250 C2249 1.379 . S
H2251 C2245 0.959 . S
H2252 C2245 0.961 . S
H2253 C2245 0.960 . S
H2254 C2246 0.930 . S
H2255 C2247 0.929 . S
H2256 C2264 0.929 . S
H2257 C2266 0.930 . S
H2258 C2268 0.930 . S
H2259 C2271 0.929 . S
H2260 C2274 0.930 . S
H2261 C2276 0.960 . S
H2262 C2276 0.960 . S
H2263 C2276 0.960 . S
C2264 H2256 0.929 . S
C2264 C2265 1.377 . S
C2264 C2266 1.384 . S
C2265 C2264 1.377 . S
C2265 C2271 1.390 . S
C2266 H2257 0.930 . S
C2266 C2264 1.384 . S
C2266 C2267 1.372 . S
C2267 C2266 1.372 . S
C2267 C2268 1.400 . S
C2267 C2272 1.490 . S
C2268 H2258 0.930 . S
C2268 C2267 1.400 . S
C2268 C2271 1.386 . S
H2269 C2285 0.930 . S
H2270 C2286 0.931 . S
C2271 H2259 0.929 . S
C2271 C2265 1.390 . S
C2271 C2268 1.386 . S
C2272 C2267 1.490 . S
C2272 C2274 1.395 . S
C2272 C2275 1.403 1_545 S
H2273 C2279 0.930 . S
C2274 H2260 0.930 . S
C2274 C2272 1.395 . S
C2274 C2277 1.403 . S
C2275 C2272 1.403 1_565 S
C2275 C2276 1.524 . S
C2275 C2279 1.400 1_455 S
C2276 H2261 0.960 . S
C2276 H2262 0.960 . S
C2276 H2263 0.960 . S
C2276 C2275 1.524 . S
C2277 C2274 1.403 . S
C2277 C2278 1.392 1_445 S
C2277 C2281 1.495 1_455 S
C2278 C2277 1.392 1_665 S
C2278 C2279 1.385 . S
C2278 C2280 1.478 . S
C2279 H2273 0.930 . S
C2279 C2275 1.400 1_655 S
C2279 C2278 1.385 . S
C2280 C2278 1.478 . S
C2280 C2282 1.381 . S
C2280 C2286 1.383 . S
C2281 C2277 1.495 1_655 S
C2281 H2287 0.959 1_655 S
C2281 H2288 0.961 . S
C2281 H2289 0.960 . S
C2282 C2280 1.381 . S
C2282 C2283 1.394 . S
C2282 H2290 0.930 . S
C2283 C2282 1.394 . S
C2283 C2284 1.383 . S
C2283 H2291 0.929 . S
C2284 C2283 1.383 . S
C2284 C2285 1.377 . S
C2285 H2269 0.930 . S
C2285 C2284 1.377 . S
C2285 C2286 1.379 . S
C2286 H2270 0.931 . S
C2286 C2280 1.383 . S
C2286 C2285 1.379 . S
H2287 C2281 0.959 1_455 S
H2288 C2281 0.961 . S
H2289 C2281 0.960 . S
H2290 C2282 0.930 . S
H2291 C2283 0.929 . S
H2292 C2300 0.929 . S
H2293 C2302 0.930 . S
H2294 C2304 0.930 . S
H2295 C2307 0.929 . S
H2296 C2310 0.930 . S
H2297 C2312 0.960 . S
H2298 C2312 0.960 . S
H2299 C2312 0.960 . S
C2300 H2292 0.929 . S
C2300 C2301 1.377 . S
C2300 C2302 1.384 . S
C2301 C2300 1.377 . S
C2301 C2307 1.390 . S
C2302 H2293 0.930 . S
C2302 C2300 1.384 . S
C2302 C2303 1.372 . S
C2303 C2302 1.372 . S
C2303 C2304 1.400 . S
C2303 C2308 1.490 . S
C2304 H2294 0.930 . S
C2304 C2303 1.400 . S
C2304 C2307 1.386 . S
H2305 C2321 0.930 . S
H2306 C2322 0.931 . S
C2307 H2295 0.929 . S
C2307 C2301 1.390 . S
C2307 C2304 1.386 . S
C2308 C2303 1.490 . S
C2308 C2310 1.395 . S
C2308 C2311 1.403 . S
H2309 C2315 0.930 . S
C2310 H2296 0.930 . S
C2310 C2308 1.395 . S
C2310 C2313 1.403 . S
C2311 C2308 1.403 . S
C2311 C2312 1.524 . S
C2311 C2315 1.400 . S
C2312 H2297 0.960 . S
C2312 H2298 0.960 . S
C2312 H2299 0.960 . S
C2312 C2311 1.524 . S
C2313 C2310 1.403 . S
C2313 C2314 1.392 . S
C2313 C2317 1.495 . S
C2314 C2313 1.392 . S
C2314 C2315 1.385 . S
C2314 C2316 1.478 . S
C2315 H2309 0.930 . S
C2315 C2311 1.400 . S
C2315 C2314 1.385 . S
C2316 C2314 1.478 . S
C2316 C2318 1.381 . S
C2316 C2322 1.383 . S
C2317 C2313 1.495 . S
C2317 H2323 0.959 . S
C2317 H2324 0.961 . S
C2317 H2325 0.960 . S
C2318 C2316 1.381 . S
C2318 C2319 1.394 . S
C2318 H2326 0.930 . S
C2319 C2318 1.394 . S
C2319 C2320 1.383 . S
C2319 H2327 0.929 . S
C2320 C2319 1.383 . S
C2320 C2321 1.377 . S
C2321 H2305 0.930 . S
C2321 C2320 1.377 . S
C2321 C2322 1.379 . S
C2322 H2306 0.931 . S
C2322 C2316 1.383 . S
C2322 C2321 1.379 . S
H2323 C2317 0.959 . S
H2324 C2317 0.961 . S
H2325 C2317 0.960 . S
H2326 C2318 0.930 . S
H2327 C2319 0.929 . S
H2328 C2336 0.929 . S
H2329 C2338 0.930 . S
H2330 C2340 0.930 . S
H2331 C2343 0.929 . S
H2332 C2346 0.930 . S
H2333 C2348 0.960 . S
H2334 C2348 0.960 . S
H2335 C2348 0.960 . S
C2336 H2328 0.929 . S
C2336 C2337 1.377 . S
C2336 C2338 1.384 . S
C2337 C2336 1.377 . S
C2337 C2343 1.390 . S
C2338 H2329 0.930 . S
C2338 C2336 1.384 . S
C2338 C2339 1.372 . S
C2339 C2338 1.372 . S
C2339 C2340 1.400 . S
C2339 C2344 1.490 . S
C2340 H2330 0.930 . S
C2340 C2339 1.400 . S
C2340 C2343 1.386 . S
H2341 C2357 0.930 . S
H2342 C2358 0.931 . S
C2343 H2331 0.929 . S
C2343 C2337 1.390 . S
C2343 C2340 1.386 . S
C2344 C2339 1.490 . S
C2344 C2346 1.395 . S
C2344 C2347 1.403 . S
H2345 C2351 0.930 . S
C2346 H2332 0.930 . S
C2346 C2344 1.395 . S
C2346 C2349 1.403 1_655 S
C2347 C2344 1.403 . S
C2347 C2348 1.524 . S
C2347 C2351 1.400 1_655 S
C2348 H2333 0.960 . S
C2348 H2334 0.960 . S
C2348 H2335 0.960 . S
C2348 C2347 1.524 . S
C2349 C2346 1.403 1_455 S
C2349 C2350 1.392 . S
C2349 C2353 1.495 . S
C2350 C2349 1.392 . S
C2350 C2351 1.385 . S
C2350 C2352 1.478 . S
C2351 H2345 0.930 . S
C2351 C2347 1.400 1_455 S
C2351 C2350 1.385 . S
C2352 C2350 1.478 . S
C2352 C2354 1.381 . S
C2352 C2358 1.383 . S
C2353 C2349 1.495 . S
C2353 H2359 0.959 . S
C2353 H2360 0.961 . S
C2353 H2361 0.960 . S
C2354 C2352 1.381 . S
C2354 C2355 1.394 . S
C2354 H2362 0.930 . S
C2355 C2354 1.394 . S
C2355 C2356 1.383 . S
C2355 H2363 0.929 . S
C2356 C2355 1.383 . S
C2356 C2357 1.377 . S
C2357 H2341 0.930 . S
C2357 C2356 1.377 . S
C2357 C2358 1.379 . S
C2358 H2342 0.931 . S
C2358 C2352 1.383 . S
C2358 C2357 1.379 . S
H2359 C2353 0.959 . S
H2360 C2353 0.961 . S
H2361 C2353 0.960 . S
H2362 C2354 0.930 . S
H2363 C2355 0.929 . S
H2364 C2372 0.929 . S
H2365 C2374 0.930 . S
H2366 C2376 0.930 . S
H2367 C2379 0.929 . S
H2368 C2382 0.930 . S
H2369 C2384 0.960 . S
H2370 C2384 0.960 . S
H2371 C2384 0.960 . S
C2372 H2364 0.929 . S
C2372 C2373 1.377 . S
C2372 C2374 1.384 . S
C2373 C2372 1.377 . S
C2373 C2379 1.390 . S
C2374 H2365 0.930 . S
C2374 C2372 1.384 . S
C2374 C2375 1.372 . S
C2375 C2374 1.372 . S
C2375 C2376 1.400 . S
C2375 C2380 1.490 . S
C2376 H2366 0.930 . S
C2376 C2375 1.400 . S
C2376 C2379 1.386 . S
H2377 C2393 0.930 . S
H2378 C2394 0.931 . S
C2379 H2367 0.929 . S
C2379 C2373 1.390 . S
C2379 C2376 1.386 . S
C2380 C2375 1.490 . S
C2380 C2382 1.395 . S
C2380 C2383 1.403 . S
H2381 C2387 0.930 . S
C2382 H2368 0.930 . S
C2382 C2380 1.395 . S
C2382 C2385 1.403 . S
C2383 C2380 1.403 . S
C2383 C2384 1.524 . S
C2383 C2387 1.400 . S
C2384 H2369 0.960 . S
C2384 H2370 0.960 . S
C2384 H2371 0.960 . S
C2384 C2383 1.524 . S
C2385 C2382 1.403 . S
C2385 C2386 1.392 . S
C2385 C2389 1.495 . S
C2386 C2385 1.392 . S
C2386 C2387 1.385 . S
C2386 C2388 1.478 . S
C2387 H2381 0.930 . S
C2387 C2383 1.400 . S
C2387 C2386 1.385 . S
C2388 C2386 1.478 . S
C2388 C2390 1.381 . S
C2388 C2394 1.383 . S
C2389 C2385 1.495 . S
C2389 H2395 0.959 . S
C2389 H2396 0.961 . S
C2389 H2397 0.960 . S
C2390 C2388 1.381 . S
C2390 C2391 1.394 . S
C2390 H2398 0.930 . S
C2391 C2390 1.394 . S
C2391 C2392 1.383 . S
C2391 H2399 0.929 . S
C2392 C2391 1.383 . S
C2392 C2393 1.377 . S
C2393 H2377 0.930 . S
C2393 C2392 1.377 . S
C2393 C2394 1.379 . S
C2394 H2378 0.931 . S
C2394 C2388 1.383 . S
C2394 C2393 1.379 . S
H2395 C2389 0.959 . S
H2396 C2389 0.961 . S
H2397 C2389 0.960 . S
H2398 C2390 0.930 . S
H2399 C2391 0.929 . S
H2400 C2408 0.929 . S
H2401 C2410 0.930 . S
H2402 C2412 0.930 . S
H2403 C2415 0.929 . S
H2404 C2418 0.930 . S
H2405 C2420 0.960 . S
H2406 C2420 0.960 . S
H2407 C2420 0.960 . S
C2408 H2400 0.929 . S
C2408 C2409 1.377 . S
C2408 C2410 1.384 . S
C2409 C2408 1.377 . S
C2409 C2415 1.390 . S
C2410 H2401 0.930 . S
C2410 C2408 1.384 . S
C2410 C2411 1.372 . S
C2411 C2410 1.372 . S
C2411 C2412 1.400 . S
C2411 C2416 1.490 . S
C2412 H2402 0.930 . S
C2412 C2411 1.400 . S
C2412 C2415 1.386 . S
H2413 C2429 0.930 . S
H2414 C2430 0.931 . S
C2415 H2403 0.929 . S
C2415 C2409 1.390 . S
C2415 C2412 1.386 . S
C2416 C2411 1.490 . S
C2416 C2418 1.395 . S
C2416 C2419 1.403 . S
H2417 C2423 0.930 . S
C2418 H2404 0.930 . S
C2418 C2416 1.395 . S
C2418 C2421 1.403 . S
C2419 C2416 1.403 . S
C2419 C2420 1.524 . S
C2419 C2423 1.400 . S
C2420 H2405 0.960 . S
C2420 H2406 0.960 . S
C2420 H2407 0.960 . S
C2420 C2419 1.524 . S
C2421 C2418 1.403 . S
C2421 C2422 1.392 . S
C2421 C2425 1.495 . S
C2422 C2421 1.392 . S
C2422 C2423 1.385 . S
C2422 C2424 1.478 . S
C2423 H2417 0.930 . S
C2423 C2419 1.400 . S
C2423 C2422 1.385 . S
C2424 C2422 1.478 . S
C2424 C2426 1.381 . S
C2424 C2430 1.383 . S
C2425 C2421 1.495 . S
C2425 H2431 0.959 . S
C2425 H2432 0.961 . S
C2425 H2433 0.960 . S
C2426 C2424 1.381 . S
C2426 C2427 1.394 . S
C2426 H2434 0.930 . S
C2427 C2426 1.394 . S
C2427 C2428 1.383 . S
C2427 H2435 0.929 . S
C2428 C2427 1.383 . S
C2428 C2429 1.377 . S
C2429 H2413 0.930 . S
C2429 C2428 1.377 . S
C2429 C2430 1.379 . S
C2430 H2414 0.931 . S
C2430 C2424 1.383 . S
C2430 C2429 1.379 . S
H2431 C2425 0.959 . S
H2432 C2425 0.961 . S
H2433 C2425 0.960 . S
H2434 C2426 0.930 . S
H2435 C2427 0.929 . S
H2436 C2444 0.929 . S
H2437 C2446 0.930 . S
H2438 C2448 0.930 . S
H2439 C2451 0.929 . S
H2440 C2454 0.930 . S
H2441 C2456 0.960 . S
H2442 C2456 0.960 . S
H2443 C2456 0.960 . S
C2444 H2436 0.929 . S
C2444 C2445 1.377 . S
C2444 C2446 1.384 . S
C2445 C2444 1.377 . S
C2445 C2451 1.390 . S
C2446 H2437 0.930 . S
C2446 C2444 1.384 . S
C2446 C2447 1.372 . S
C2447 C2446 1.372 . S
C2447 C2448 1.400 . S
C2447 C2452 1.490 . S
C2448 H2438 0.930 . S
C2448 C2447 1.400 . S
C2448 C2451 1.386 . S
H2449 C2465 0.930 . S
H2450 C2466 0.931 . S
C2451 H2439 0.929 . S
C2451 C2445 1.390 . S
C2451 C2448 1.386 . S
C2452 C2447 1.490 . S
C2452 C2454 1.395 . S
C2452 C2455 1.403 . S
H2453 C2459 0.895 1_556 S
C2454 H2440 0.930 . S
C2454 C2452 1.395 . S
C2454 C2457 1.403 . S
C2455 C2452 1.403 . S
C2455 C2456 1.524 . S
C2455 C2459 1.400 . S
C2456 H2441 0.960 . S
C2456 H2442 0.960 . S
C2456 H2443 0.960 . S
C2456 C2455 1.524 . S
C2457 C2454 1.403 . S
C2457 C2458 1.392 . S
C2457 C2461 1.495 . S
C2458 C2457 1.392 . S
C2458 C2459 1.385 . S
C2458 C2460 1.478 1_554 S
C2459 H2453 0.895 1_554 S
C2459 C2455 1.400 . S
C2459 C2458 1.385 . S
C2460 C2458 1.478 1_556 S
C2460 C2462 1.381 . S
C2460 C2466 1.383 . S
C2461 C2457 1.495 . S
C2461 H2467 0.959 . S
C2461 H2468 0.961 . S
C2461 H2469 0.960 . S
C2462 C2460 1.381 . S
C2462 C2463 1.394 . S
C2462 H2470 0.930 . S
C2463 C2462 1.394 . S
C2463 C2464 1.383 . S
C2463 H2471 0.929 . S
C2464 C2463 1.383 . S
C2464 C2465 1.377 . S
C2465 H2449 0.930 . S
C2465 C2464 1.377 . S
C2465 C2466 1.379 . S
C2466 H2450 0.931 . S
C2466 C2460 1.383 . S
C2466 C2465 1.379 . S
H2467 C2461 0.959 . S
H2468 C2461 0.961 . S
H2469 C2461 0.960 . S
H2470 C2462 0.930 . S
H2471 C2463 0.929 . S
H2472 C2480 0.909 1_455 S
H2473 C2482 0.930 . S
H2474 C2484 0.930 . S
H2475 C2487 0.929 . S
H2476 C2490 0.930 . S
H2477 C2492 0.960 . S
H2478 C2492 0.960 1_455 S
H2479 C2492 0.960 . S
C2480 H2472 0.909 1_655 S
C2480 C2481 1.383 . S
C2480 C2482 1.399 . S
C2481 C2480 1.383 . S
C2481 C2487 1.390 . S
C2482 H2473 0.930 . S
C2482 C2480 1.399 . S
C2482 C2483 1.372 . S
C2483 C2482 1.372 . S
C2483 C2484 1.400 . S
C2483 C2488 1.490 . S
C2484 H2474 0.930 . S
C2484 C2483 1.400 . S
C2484 C2487 1.386 . S
H2485 C2501 0.930 . S
H2486 C2502 0.931 . S
C2487 H2475 0.929 . S
C2487 C2481 1.390 . S
C2487 C2484 1.386 . S
C2488 C2483 1.490 . S
C2488 C2490 1.395 . S
C2488 C2491 1.403 . S
H2489 C2495 0.930 . S
C2490 H2476 0.930 . S
C2490 C2488 1.395 . S
C2490 C2493 1.403 . S
C2491 C2488 1.403 . S
C2491 C2492 1.524 . S
C2491 C2495 1.400 . S
C2492 H2477 0.960 . S
C2492 H2478 0.960 1_655 S
C2492 H2479 0.960 . S
C2492 C2491 1.524 . S
C2493 C2490 1.403 . S
C2493 C2494 1.392 . S
C2493 C2497 1.495 . S
C2494 C2493 1.392 . S
C2494 C2495 1.385 . S
C2494 C2496 1.478 . S
C2495 H2489 0.930 . S
C2495 C2491 1.400 . S
C2495 C2494 1.385 . S
C2496 C2494 1.478 . S
C2496 C2498 1.381 . S
C2496 C2502 1.383 . S
C2497 C2493 1.495 . S
C2497 H2503 0.959 . S
C2497 H2504 0.961 . S
C2497 H2505 0.960 . S
C2498 C2496 1.381 . S
C2498 C2499 1.394 . S
C2498 H2506 0.930 . S
C2499 C2498 1.394 . S
C2499 C2500 1.383 . S
C2499 H2507 0.929 . S
C2500 C2499 1.383 . S
C2500 C2501 1.377 . S
C2501 H2485 0.930 . S
C2501 C2500 1.377 . S
C2501 C2502 1.379 . S
C2502 H2486 0.931 . S
C2502 C2496 1.383 . S
C2502 C2501 1.379 . S
H2503 C2497 0.959 . S
H2504 C2497 0.961 . S
H2505 C2497 0.960 . S
H2506 C2498 0.930 . S
H2507 C2499 0.929 . S
H2508 C2516 0.929 . S
H2509 C2518 0.930 . S
H2510 C2520 0.930 . S
H2511 C2523 0.929 . S
H2512 C2526 0.930 . S
H2513 C2528 0.960 . S
H2514 C2528 0.960 . S
H2515 C2528 0.960 . S
C2516 H2508 0.929 . S
C2516 C2517 1.377 . S
C2516 C2518 1.384 . S
C2517 C2516 1.377 . S
C2517 C2523 1.390 . S
C2518 H2509 0.930 . S
C2518 C2516 1.384 . S
C2518 C2519 1.372 . S
C2519 C2518 1.372 . S
C2519 C2520 1.400 . S
C2519 C2524 1.490 . S
C2520 H2510 0.930 . S
C2520 C2519 1.400 . S
C2520 C2523 1.386 . S
H2521 C2537 0.930 . S
H2522 C2538 0.931 . S
C2523 H2511 0.929 . S
C2523 C2517 1.390 . S
C2523 C2520 1.386 . S
C2524 C2519 1.490 . S
C2524 C2526 1.395 . S
C2524 C2527 1.403 . S
H2525 C2531 0.930 . S
C2526 H2512 0.930 . S
C2526 C2524 1.395 . S
C2526 C2529 1.403 . S
C2527 C2524 1.403 . S
C2527 C2528 1.524 . S
C2527 C2531 1.400 . S
C2528 H2513 0.960 . S
C2528 H2514 0.960 . S
C2528 H2515 0.960 . S
C2528 C2527 1.524 . S
C2529 C2526 1.403 . S
C2529 C2530 1.392 . S
C2529 C2533 1.495 . S
C2530 C2529 1.392 . S
C2530 C2531 1.385 . S
C2530 C2532 1.478 . S
C2531 H2525 0.930 . S
C2531 C2527 1.400 . S
C2531 C2530 1.385 . S
C2532 C2530 1.478 . S
C2532 C2534 1.381 . S
C2532 C2538 1.383 . S
C2533 C2529 1.495 . S
C2533 H2539 0.959 . S
C2533 H2540 0.961 . S
C2533 H2541 0.960 . S
C2534 C2532 1.381 . S
C2534 C2535 1.394 . S
C2534 H2542 0.930 . S
C2535 C2534 1.394 . S
C2535 C2536 1.383 . S
C2535 H2543 0.929 . S
C2536 C2535 1.383 . S
C2536 C2537 1.377 . S
C2537 H2521 0.930 . S
C2537 C2536 1.377 . S
C2537 C2538 1.379 . S
C2538 H2522 0.931 . S
C2538 C2532 1.383 . S
C2538 C2537 1.379 . S
H2539 C2533 0.959 . S
H2540 C2533 0.961 . S
H2541 C2533 0.960 . S
H2542 C2534 0.930 . S
H2543 C2535 0.929 . S
H2544 C2552 0.929 . S
H2545 C2554 0.930 . S
H2546 C2556 0.930 . S
H2547 C2559 0.929 . S
H2548 C2562 0.930 . S
H2549 C2564 0.960 . S
H2550 C2564 0.960 . S
H2551 C2564 0.960 . S
C2552 H2544 0.929 . S
C2552 C2553 1.377 . S
C2552 C2554 1.384 . S
C2553 C2552 1.377 . S
C2553 C2559 1.390 . S
C2554 H2545 0.930 . S
C2554 C2552 1.384 . S
C2554 C2555 1.372 . S
C2555 C2554 1.372 . S
C2555 C2556 1.400 . S
C2555 C2560 1.490 . S
C2556 H2546 0.930 . S
C2556 C2555 1.400 . S
C2556 C2559 1.386 . S
H2557 C2573 0.930 . S
H2558 C2574 0.931 . S
C2559 H2547 0.929 . S
C2559 C2553 1.390 . S
C2559 C2556 1.386 . S
C2560 C2555 1.490 . S
C2560 C2562 1.395 . S
C2560 C2563 1.403 . S
H2561 C2567 0.930 . S
C2562 H2548 0.930 . S
C2562 C2560 1.395 . S
C2562 C2565 1.403 . S
C2563 C2560 1.403 . S
C2563 C2564 1.524 . S
C2563 C2567 1.400 . S
C2564 H2549 0.960 . S
C2564 H2550 0.960 . S
C2564 H2551 0.960 . S
C2564 C2563 1.524 . S
C2565 C2562 1.403 . S
C2565 C2566 1.392 . S
C2565 C2569 1.495 . S
C2566 C2565 1.392 . S
C2566 C2567 1.385 . S
C2566 C2568 1.478 . S
C2567 H2561 0.930 . S
C2567 C2563 1.400 . S
C2567 C2566 1.385 . S
C2568 C2566 1.478 . S
C2568 C2570 1.381 . S
C2568 C2574 1.383 . S
C2569 C2565 1.495 . S
C2569 H2575 0.959 . S
C2569 H2576 0.961 . S
C2569 H2577 0.960 . S
C2570 C2568 1.381 . S
C2570 C2571 1.394 . S
C2570 H2578 0.930 . S
C2571 C2570 1.394 . S
C2571 C2572 1.383 . S
C2571 H2579 0.929 . S
C2572 C2571 1.383 . S
C2572 C2573 1.377 . S
C2573 H2557 0.930 . S
C2573 C2572 1.377 . S
C2573 C2574 1.379 . S
C2574 H2558 0.931 . S
C2574 C2568 1.383 . S
C2574 C2573 1.379 . S
H2575 C2569 0.959 . S
H2576 C2569 0.961 . S
H2577 C2569 0.960 . S
H2578 C2570 0.930 . S
H2579 C2571 0.929 . S
H2580 C2588 0.929 . S
H2581 C2590 0.930 1_455 S
H2582 C2592 0.930 . S
H2583 C2595 0.929 . S
H2584 C2598 0.930 1_455 S
H2585 C2600 0.960 . S
H2586 C2600 0.960 . S
H2587 C2600 0.960 . S
C2588 H2580 0.929 . S
C2588 C2589 1.377 1_455 S
C2588 C2590 1.384 1_455 S
C2589 C2588 1.377 1_655 S
C2589 C2595 1.390 . S
C2590 H2581 0.930 1_655 S
C2590 C2588 1.384 1_655 S
C2590 C2591 1.372 . S
C2591 C2590 1.372 . S
C2591 C2592 1.400 . S
C2591 C2596 1.490 . S
C2592 H2582 0.930 . S
C2592 C2591 1.400 . S
C2592 C2595 1.386 . S
H2593 C2609 0.930 . S
H2594 C2610 0.931 . S
C2595 H2583 0.929 . S
C2595 C2589 1.390 . S
C2595 C2592 1.386 . S
C2596 C2591 1.490 . S
C2596 C2598 1.395 1_556 S
C2596 C2599 1.403 1_556 S
H2597 C2603 0.930 . S
C2598 H2584 0.930 1_655 S
C2598 C2596 1.395 1_554 S
C2598 C2601 1.403 . S
C2599 C2596 1.403 1_554 S
C2599 C2600 1.524 1_554 S
C2599 C2603 1.400 . S
C2600 H2585 0.960 . S
C2600 H2586 0.960 . S
C2600 H2587 0.960 . S
C2600 C2599 1.524 1_556 S
C2601 C2598 1.403 . S
C2601 C2602 1.392 . S
C2601 C2605 1.495 1_655 S
C2602 C2601 1.392 . S
C2602 C2603 1.385 . S
C2602 C2604 1.478 . S
C2603 H2597 0.930 . S
C2603 C2599 1.400 . S
C2603 C2602 1.385 . S
C2604 C2602 1.478 . S
C2604 C2606 1.381 . S
C2604 C2610 1.383 . S
C2605 C2601 1.495 1_455 S
C2605 H2611 0.959 . S
C2605 H2612 0.961 . S
C2605 H2613 0.960 . S
C2606 C2604 1.381 . S
C2606 C2607 1.394 . S
C2606 H2614 0.930 . S
C2607 C2606 1.394 . S
C2607 C2608 1.383 . S
C2607 H2615 0.929 . S
C2608 C2607 1.383 . S
C2608 C2609 1.377 . S
C2609 H2593 0.930 . S
C2609 C2608 1.377 . S
C2609 C2610 1.379 . S
C2610 H2594 0.931 . S
C2610 C2604 1.383 . S
C2610 C2609 1.379 . S
H2611 C2605 0.959 . S
H2612 C2605 0.961 . S
H2613 C2605 0.960 . S
H2614 C2606 0.930 . S
H2615 C2607 0.929 . S
H2616 C2624 0.929 . S
H2617 C2626 0.930 . S
H2618 C2628 0.930 . S
H2619 C2631 0.929 . S
H2620 C2634 0.930 . S
H2621 C2636 0.960 . S
H2622 C2636 0.960 . S
H2623 C2636 0.960 . S
C2624 H2616 0.929 . S
C2624 C2625 1.377 . S
C2624 C2626 1.384 . S
C2625 C2624 1.377 . S
C2625 C2631 1.390 . S
C2626 H2617 0.930 . S
C2626 C2624 1.384 . S
C2626 C2627 1.372 . S
C2627 C2626 1.372 . S
C2627 C2628 1.400 . S
C2627 C2632 1.490 . S
C2628 H2618 0.930 . S
C2628 C2627 1.400 . S
C2628 C2631 1.386 . S
H2629 C2645 0.930 . S
H2630 C2646 0.931 . S
C2631 H2619 0.929 . S
C2631 C2625 1.390 . S
C2631 C2628 1.386 . S
C2632 C2627 1.490 . S
C2632 C2634 1.395 . S
C2632 C2635 1.403 . S
H2633 C2639 0.930 . S
C2634 H2620 0.930 . S
C2634 C2632 1.395 . S
C2634 C2637 1.403 . S
C2635 C2632 1.403 . S
C2635 C2636 1.524 . S
C2635 C2639 1.400 . S
C2636 H2621 0.960 . S
C2636 H2622 0.960 . S
C2636 H2623 0.960 . S
C2636 C2635 1.524 . S
C2637 C2634 1.403 . S
C2637 C2638 1.392 . S
C2637 C2641 1.495 . S
C2638 C2637 1.392 . S
C2638 C2639 1.385 . S
C2638 C2640 1.478 . S
C2639 H2633 0.930 . S
C2639 C2635 1.400 . S
C2639 C2638 1.385 . S
C2640 C2638 1.478 . S
C2640 C2642 1.381 . S
C2640 C2646 1.383 . S
C2641 C2637 1.495 . S
C2641 H2647 0.959 . S
C2641 H2648 0.961 . S
C2641 H2649 0.960 . S
C2642 C2640 1.381 . S
C2642 C2643 1.394 . S
C2642 H2650 0.930 . S
C2643 C2642 1.394 . S
C2643 C2644 1.383 . S
C2643 H2651 0.929 . S
C2644 C2643 1.383 . S
C2644 C2645 1.377 . S
C2645 H2629 0.930 . S
C2645 C2644 1.377 . S
C2645 C2646 1.379 . S
C2646 H2630 0.931 . S
C2646 C2640 1.383 . S
C2646 C2645 1.379 . S
H2647 C2641 0.959 . S
H2648 C2641 0.961 . S
H2649 C2641 0.960 . S
H2650 C2642 0.930 . S
H2651 C2643 0.929 . S
H2652 C2660 0.929 . S
H2653 C2662 0.930 . S
H2654 C2664 0.930 . S
H2655 C2667 0.929 . S
H2656 C2670 0.930 . S
H2657 C2672 0.960 . S
H2658 C2672 0.960 . S
H2659 C2672 0.960 . S
C2660 H2652 0.929 . S
C2660 C2661 1.377 . S
C2660 C2662 1.384 . S
C2661 C2660 1.377 . S
C2661 C2667 1.390 . S
C2662 H2653 0.930 . S
C2662 C2660 1.384 . S
C2662 C2663 1.372 . S
C2663 C2662 1.372 . S
C2663 C2664 1.400 . S
C2663 C2668 1.490 . S
C2664 H2654 0.930 . S
C2664 C2663 1.400 . S
C2664 C2667 1.386 . S
H2665 C2681 0.930 . S
H2666 C2682 0.931 . S
C2667 H2655 0.929 . S
C2667 C2661 1.390 . S
C2667 C2664 1.386 . S
C2668 C2663 1.490 . S
C2668 C2670 1.395 . S
C2668 C2671 1.403 . S
H2669 C2675 0.930 . S
C2670 H2656 0.930 . S
C2670 C2668 1.395 . S
C2670 C2673 1.403 . S
C2671 C2668 1.403 . S
C2671 C2672 1.524 . S
C2671 C2675 1.400 . S
C2672 H2657 0.960 . S
C2672 H2658 0.960 . S
C2672 H2659 0.960 . S
C2672 C2671 1.524 . S
C2673 C2670 1.403 . S
C2673 C2674 1.392 . S
C2673 C2677 1.495 . S
C2674 C2673 1.392 . S
C2674 C2675 1.385 . S
C2674 C2676 1.478 . S
C2675 H2669 0.930 . S
C2675 C2671 1.400 . S
C2675 C2674 1.385 . S
C2676 C2674 1.478 . S
C2676 C2678 1.381 . S
C2676 C2682 1.383 . S
C2677 C2673 1.495 . S
C2677 H2683 0.959 . S
C2677 H2684 0.961 . S
C2677 H2685 0.960 . S
C2678 C2676 1.381 . S
C2678 C2679 1.394 . S
C2678 H2686 0.930 . S
C2679 C2678 1.394 . S
C2679 C2680 1.383 . S
C2679 H2687 0.929 . S
C2680 C2679 1.383 . S
C2680 C2681 1.377 . S
C2681 H2665 0.930 . S
C2681 C2680 1.377 . S
C2681 C2682 1.379 . S
C2682 H2666 0.931 . S
C2682 C2676 1.383 . S
C2682 C2681 1.379 . S
H2683 C2677 0.959 . S
H2684 C2677 0.961 . S
H2685 C2677 0.960 . S
H2686 C2678 0.930 . S
H2687 C2679 0.929 . S
H2688 C2696 0.929 . S
H2689 C2698 0.930 . S
H2690 C2700 0.930 . S
H2691 C2703 0.929 . S
H2692 C2706 0.930 . S
H2693 C2708 0.960 . S
H2694 C2708 0.960 . S
H2695 C2708 0.960 . S
C2696 H2688 0.929 . S
C2696 C2697 1.377 . S
C2696 C2698 1.384 . S
C2697 C2696 1.377 . S
C2697 C2703 1.390 . S
C2698 H2689 0.930 . S
C2698 C2696 1.384 . S
C2698 C2699 1.372 . S
C2699 C2698 1.372 . S
C2699 C2700 1.400 . S
C2699 C2704 1.490 . S
C2700 H2690 0.930 . S
C2700 C2699 1.400 . S
C2700 C2703 1.386 . S
H2701 C2717 0.930 . S
H2702 C2718 0.931 . S
C2703 H2691 0.929 . S
C2703 C2697 1.390 . S
C2703 C2700 1.386 . S
C2704 C2699 1.490 . S
C2704 C2706 1.395 . S
C2704 C2707 1.403 . S
H2705 C2711 0.930 . S
C2706 H2692 0.930 . S
C2706 C2704 1.395 . S
C2706 C2709 1.403 . S
C2707 C2704 1.403 . S
C2707 C2708 1.524 . S
C2707 C2711 1.400 . S
C2708 H2693 0.960 . S
C2708 H2694 0.960 . S
C2708 H2695 0.960 . S
C2708 C2707 1.524 . S
C2709 C2706 1.403 . S
C2709 C2710 1.392 . S
C2709 C2713 1.495 . S
C2710 C2709 1.392 . S
C2710 C2711 1.385 . S
C2710 C2712 1.478 . S
C2711 H2705 0.930 . S
C2711 C2707 1.400 . S
C2711 C2710 1.385 . S
C2712 C2710 1.478 . S
C2712 C2714 1.381 . S
C2712 C2718 1.383 . S
C2713 C2709 1.495 . S
C2713 H2719 0.959 . S
C2713 H2720 0.961 . S
C2713 H2721 0.960 . S
C2714 C2712 1.381 . S
C2714 C2715 1.394 . S
C2714 H2722 0.930 . S
C2715 C2714 1.394 . S
C2715 C2716 1.383 . S
C2715 H2723 0.929 . S
C2716 C2715 1.383 . S
C2716 C2717 1.377 . S
C2717 H2701 0.930 . S
C2717 C2716 1.377 . S
C2717 C2718 1.379 . S
C2718 H2702 0.931 . S
C2718 C2712 1.383 . S
C2718 C2717 1.379 . S
H2719 C2713 0.959 . S
H2720 C2713 0.961 . S
H2721 C2713 0.960 . S
H2722 C2714 0.930 . S
H2723 C2715 0.929 . S
H2724 C2732 0.929 1_554 S
H2725 C2734 0.930 . S
H2726 C2736 0.930 . S
H2727 C2739 0.929 . S
H2728 C2742 0.930 . S
H2729 C2744 0.960 . S
H2730 C2744 0.960 . S
H2731 C2744 0.960 . S
C2732 H2724 0.929 1_556 S
C2732 C2733 1.377 . S
C2732 C2734 1.384 . S
C2733 C2732 1.377 . S
C2733 C2739 1.390 . S
C2734 H2725 0.930 . S
C2734 C2732 1.384 . S
C2734 C2735 1.372 . S
C2735 C2734 1.372 . S
C2735 C2736 1.400 . S
C2735 C2740 1.490 . S
C2736 H2726 0.930 . S
C2736 C2735 1.400 . S
C2736 C2739 1.386 . S
H2737 C2753 0.930 . S
H2738 C2754 0.931 . S
C2739 H2727 0.929 . S
C2739 C2733 1.390 . S
C2739 C2736 1.386 . S
C2740 C2735 1.490 . S
C2740 C2742 1.395 . S
C2740 C2743 1.403 . S
H2741 C2747 0.930 . S
C2742 H2728 0.930 . S
C2742 C2740 1.395 . S
C2742 C2745 1.403 . S
C2743 C2740 1.403 . S
C2743 C2744 1.524 . S
C2743 C2747 1.400 . S
C2744 H2729 0.960 . S
C2744 H2730 0.960 . S
C2744 H2731 0.960 . S
C2744 C2743 1.524 . S
C2745 C2742 1.403 . S
C2745 C2746 1.392 . S
C2745 C2749 1.495 . S
C2746 C2745 1.392 . S
C2746 C2747 1.385 . S
C2746 C2748 1.478 . S
C2747 H2741 0.930 . S
C2747 C2743 1.400 . S
C2747 C2746 1.385 . S
C2748 C2746 1.478 . S
C2748 C2750 1.381 . S
C2748 C2754 1.383 . S
C2749 C2745 1.495 . S
C2749 H2755 0.962 . S
C2749 H2756 0.961 . S
C2749 H2757 0.960 . S
C2750 C2748 1.381 . S
C2750 C2751 1.394 . S
C2750 H2758 0.930 . S
C2751 C2750 1.394 . S
C2751 C2752 1.383 . S
C2751 H2759 0.929 . S
C2752 C2751 1.383 . S
C2752 C2753 1.377 . S
C2753 H2737 0.930 . S
C2753 C2752 1.377 . S
C2753 C2754 1.379 . S
C2754 H2738 0.931 . S
C2754 C2748 1.383 . S
C2754 C2753 1.379 . S
H2755 C2749 0.962 . S
H2756 C2749 0.961 . S
H2757 C2749 0.960 . S
H2758 C2750 0.930 . S
H2759 C2751 0.929 . S
H2760 C2768 0.929 . S
H2761 C2770 0.930 . S
H2762 C2772 0.930 . S
H2763 C2775 0.929 . S
H2764 C2778 0.930 . S
H2765 C2780 0.960 . S
H2766 C2780 0.960 . S
H2767 C2780 0.960 . S
C2768 H2760 0.929 . S
C2768 C2769 1.377 . S
C2768 C2770 1.384 . S
C2769 C2768 1.377 . S
C2769 C2775 1.390 . S
C2770 H2761 0.930 . S
C2770 C2768 1.384 . S
C2770 C2771 1.372 . S
C2771 C2770 1.372 . S
C2771 C2772 1.400 . S
C2771 C2776 1.490 . S
C2772 H2762 0.930 . S
C2772 C2771 1.400 . S
C2772 C2775 1.386 . S
H2773 C2789 0.930 . S
H2774 C2790 0.931 . S
C2775 H2763 0.929 . S
C2775 C2769 1.390 . S
C2775 C2772 1.386 . S
C2776 C2771 1.490 . S
C2776 C2778 1.395 . S
C2776 C2779 1.403 . S
H2777 C2783 0.930 . S
C2778 H2764 0.930 . S
C2778 C2776 1.395 . S
C2778 C2781 1.403 . S
C2779 C2776 1.403 . S
C2779 C2780 1.524 . S
C2779 C2783 1.400 . S
C2780 H2765 0.960 . S
C2780 H2766 0.960 . S
C2780 H2767 0.960 . S
C2780 C2779 1.524 . S
C2781 C2778 1.403 . S
C2781 C2782 1.392 . S
C2781 C2785 1.495 . S
C2782 C2781 1.392 . S
C2782 C2783 1.385 . S
C2782 C2784 1.478 . S
C2783 H2777 0.930 . S
C2783 C2779 1.400 . S
C2783 C2782 1.385 . S
C2784 C2782 1.478 . S
C2784 C2786 1.381 . S
C2784 C2790 1.383 . S
C2785 C2781 1.495 . S
C2785 H2791 0.959 . S
C2785 H2792 0.961 . S
C2785 H2793 0.960 . S
C2786 C2784 1.381 . S
C2786 C2787 1.394 . S
C2786 H2794 0.930 . S
C2787 C2786 1.394 . S
C2787 C2788 1.383 . S
C2787 H2795 0.929 . S
C2788 C2787 1.383 . S
C2788 C2789 1.377 . S
C2789 H2773 0.930 . S
C2789 C2788 1.377 . S
C2789 C2790 1.379 . S
C2790 H2774 0.931 . S
C2790 C2784 1.383 . S
C2790 C2789 1.379 . S
H2791 C2785 0.959 . S
H2792 C2785 0.961 . S
H2793 C2785 0.960 . S
H2794 C2786 0.930 . S
H2795 C2787 0.929 . S
H2796 C2804 0.929 . S
H2797 C2806 0.930 . S
H2798 C2808 0.930 . S
H2799 C2811 0.929 . S
H2800 C2814 0.930 . S
H2801 C2816 0.960 . S
H2802 C2816 0.960 . S
H2803 C2816 0.960 . S
C2804 H2796 0.929 . S
C2804 C2805 1.377 . S
C2804 C2806 1.384 . S
C2805 C2804 1.377 . S
C2805 C2811 1.390 . S
C2806 H2797 0.930 . S
C2806 C2804 1.384 . S
C2806 C2807 1.372 . S
C2807 C2806 1.372 . S
C2807 C2808 1.400 . S
C2807 C2812 1.490 . S
C2808 H2798 0.930 . S
C2808 C2807 1.400 . S
C2808 C2811 1.386 . S
H2809 C2825 0.930 . S
H2810 C2826 0.931 . S
C2811 H2799 0.929 . S
C2811 C2805 1.390 . S
C2811 C2808 1.386 . S
C2812 C2807 1.490 . S
C2812 C2814 1.395 . S
C2812 C2815 1.403 . S
H2813 C2819 0.930 . S
C2814 H2800 0.930 . S
C2814 C2812 1.395 . S
C2814 C2817 1.403 . S
C2815 C2812 1.403 . S
C2815 C2816 1.524 . S
C2815 C2819 1.400 . S
C2816 H2801 0.960 . S
C2816 H2802 0.960 . S
C2816 H2803 0.960 . S
C2816 C2815 1.524 . S
C2817 C2814 1.403 . S
C2817 C2818 1.392 . S
C2817 C2821 1.495 . S
C2818 C2817 1.392 . S
C2818 C2819 1.385 . S
C2818 C2820 1.478 . S
C2819 H2813 0.930 . S
C2819 C2815 1.400 . S
C2819 C2818 1.385 . S
C2820 C2818 1.478 . S
C2820 C2822 1.381 . S
C2820 C2826 1.383 . S
C2821 C2817 1.495 . S
C2821 H2827 0.959 . S
C2821 H2828 0.961 . S
C2821 H2829 0.960 . S
C2822 C2820 1.381 . S
C2822 C2823 1.394 . S
C2822 H2830 0.930 . S
C2823 C2822 1.394 . S
C2823 C2824 1.383 . S
C2823 H2831 0.929 . S
C2824 C2823 1.383 . S
C2824 C2825 1.377 . S
C2825 H2809 0.930 . S
C2825 C2824 1.377 . S
C2825 C2826 1.379 . S
C2826 H2810 0.931 . S
C2826 C2820 1.383 . S
C2826 C2825 1.379 . S
H2827 C2821 0.959 . S
H2828 C2821 0.961 . S
H2829 C2821 0.960 . S
H2830 C2822 0.930 . S
H2831 C2823 0.929 . S
H2832 C2840 0.929 . S
H2833 C2842 0.930 . S
H2834 C2844 0.930 . S
H2835 C2847 0.929 . S
H2836 C2850 0.930 . S
H2837 C2852 0.960 . S
H2838 C2852 0.960 . S
H2839 C2852 0.960 . S
C2840 H2832 0.929 . S
C2840 C2841 1.377 . S
C2840 C2842 1.384 . S
C2841 C2840 1.377 . S
C2841 C2847 1.390 . S
C2842 H2833 0.930 . S
C2842 C2840 1.384 . S
C2842 C2843 1.372 . S
C2843 C2842 1.372 . S
C2843 C2844 1.400 . S
C2843 C2848 1.490 . S
C2844 H2834 0.930 . S
C2844 C2843 1.400 . S
C2844 C2847 1.386 . S
H2845 C2861 0.930 . S
H2846 C2862 0.931 . S
C2847 H2835 0.929 . S
C2847 C2841 1.390 . S
C2847 C2844 1.386 . S
C2848 C2843 1.490 . S
C2848 C2850 1.395 . S
C2848 C2851 1.403 . S
H2849 C2855 0.930 . S
C2850 H2836 0.930 . S
C2850 C2848 1.395 . S
C2850 C2853 1.403 . S
C2851 C2848 1.403 . S
C2851 C2852 1.524 . S
C2851 C2855 1.400 . S
C2852 H2837 0.960 . S
C2852 H2838 0.960 . S
C2852 H2839 0.960 . S
C2852 C2851 1.524 . S
C2853 C2850 1.403 . S
C2853 C2854 1.392 . S
C2853 C2857 1.495 . S
C2854 C2853 1.392 . S
C2854 C2855 1.385 . S
C2854 C2856 1.478 . S
C2855 H2849 0.930 . S
C2855 C2851 1.400 . S
C2855 C2854 1.385 . S
C2856 C2854 1.478 . S
C2856 C2858 1.381 . S
C2856 C2862 1.383 . S
C2857 C2853 1.495 . S
C2857 H2863 0.959 . S
C2857 H2864 0.961 . S
C2857 H2865 0.960 . S
C2858 C2856 1.381 . S
C2858 C2859 1.394 . S
C2858 H2866 0.930 . S
C2859 C2858 1.394 . S
C2859 C2860 1.383 . S
C2859 H2867 0.929 . S
C2860 C2859 1.383 . S
C2860 C2861 1.377 . S
C2861 H2845 0.930 . S
C2861 C2860 1.377 . S
C2861 C2862 1.379 . S
C2862 H2846 0.931 . S
C2862 C2856 1.383 . S
C2862 C2861 1.379 . S
H2863 C2857 0.959 . S
H2864 C2857 0.961 . S
H2865 C2857 0.960 . S
H2866 C2858 0.930 . S
H2867 C2859 0.929 . S
H2868 C2876 0.929 . S
H2869 C2878 0.930 . S
H2870 C2880 0.930 . S
H2871 C2883 0.929 . S
H2872 C2886 0.930 . S
H2873 C2888 0.960 . S
H2874 C2888 0.960 . S
H2875 C2888 0.960 . S
C2876 H2868 0.929 . S
C2876 C2877 1.377 . S
C2876 C2878 1.384 . S
C2877 C2876 1.377 . S
C2877 C2883 1.390 . S
C2878 H2869 0.930 . S
C2878 C2876 1.384 . S
C2878 C2879 1.372 . S
C2879 C2878 1.372 . S
C2879 C2880 1.400 . S
C2879 C2884 1.490 . S
C2880 H2870 0.930 . S
C2880 C2879 1.400 . S
C2880 C2883 1.386 . S
H2881 C2897 0.930 . S
H2882 C2898 0.931 . S
C2883 H2871 0.929 . S
C2883 C2877 1.390 . S
C2883 C2880 1.386 . S
C2884 C2879 1.490 . S
C2884 C2886 1.395 . S
C2884 C2887 1.403 . S
H2885 C2891 0.930 . S
C2886 H2872 0.930 . S
C2886 C2884 1.395 . S
C2886 C2889 1.403 . S
C2887 C2884 1.403 . S
C2887 C2888 1.524 . S
C2887 C2891 1.400 . S
C2888 H2873 0.960 . S
C2888 H2874 0.960 . S
C2888 H2875 0.960 . S
C2888 C2887 1.524 . S
C2889 C2886 1.403 . S
C2889 C2890 1.392 . S
C2889 C2893 1.495 . S
C2890 C2889 1.392 . S
C2890 C2891 1.385 . S
C2890 C2892 1.478 . S
C2891 H2885 0.930 . S
C2891 C2887 1.400 . S
C2891 C2890 1.385 . S
C2892 C2890 1.478 . S
C2892 C2894 1.381 . S
C2892 C2898 1.383 . S
C2893 C2889 1.495 . S
C2893 H2899 0.959 . S
C2893 H2900 0.961 . S
C2893 H2901 0.960 . S
C2894 C2892 1.381 . S
C2894 C2895 1.394 . S
C2894 H2902 0.930 . S
C2895 C2894 1.394 . S
C2895 C2896 1.383 . S
C2895 H2903 0.929 . S
C2896 C2895 1.383 . S
C2896 C2897 1.377 . S
C2897 H2881 0.930 . S
C2897 C2896 1.377 . S
C2897 C2898 1.379 . S
C2898 H2882 0.931 . S
C2898 C2892 1.383 . S
C2898 C2897 1.379 . S
H2899 C2893 0.959 . S
H2900 C2893 0.961 . S
H2901 C2893 0.960 . S
H2902 C2894 0.930 . S
H2903 C2895 0.929 . S
H2904 C2912 0.929 . S
H2905 C2914 0.930 . S
H2906 C2916 0.930 . S
H2907 C2919 0.929 . S
H2908 C2922 0.930 . S
H2909 C2924 0.960 . S
H2910 C2924 0.960 . S
H2911 C2924 0.960 . S
C2912 H2904 0.929 . S
C2912 C2913 1.377 . S
C2912 C2914 1.384 . S
C2913 C2912 1.377 . S
C2913 C2919 1.390 . S
C2914 H2905 0.930 . S
C2914 C2912 1.384 . S
C2914 C2915 1.372 . S
C2915 C2914 1.372 . S
C2915 C2916 1.400 . S
C2915 C2920 1.490 . S
C2916 H2906 0.930 . S
C2916 C2915 1.400 . S
C2916 C2919 1.386 . S
H2917 C2933 0.930 . S
H2918 C2934 0.931 . S
C2919 H2907 0.929 . S
C2919 C2913 1.390 . S
C2919 C2916 1.386 . S
C2920 C2915 1.490 . S
C2920 C2922 1.395 . S
C2920 C2923 1.403 . S
H2921 C2927 0.930 . S
C2922 H2908 0.930 . S
C2922 C2920 1.395 . S
C2922 C2925 1.403 . S
C2923 C2920 1.403 . S
C2923 C2924 1.524 . S
C2923 C2927 1.400 . S
C2924 H2909 0.960 . S
C2924 H2910 0.960 . S
C2924 H2911 0.960 . S
C2924 C2923 1.524 . S
C2925 C2922 1.403 . S
C2925 C2926 1.392 . S
C2925 C2929 1.495 . S
C2926 C2925 1.392 . S
C2926 C2927 1.385 . S
C2926 C2928 1.478 . S
C2927 H2921 0.930 . S
C2927 C2923 1.400 . S
C2927 C2926 1.385 . S
C2928 C2926 1.478 . S
C2928 C2930 1.381 . S
C2928 C2934 1.383 . S
C2929 C2925 1.495 . S
C2929 H2935 0.959 . S
C2929 H2936 0.961 . S
C2929 H2937 0.960 . S
C2930 C2928 1.381 . S
C2930 C2931 1.394 . S
C2930 H2938 0.930 . S
C2931 C2930 1.394 . S
C2931 C2932 1.383 . S
C2931 H2939 0.929 . S
C2932 C2931 1.383 . S
C2932 C2933 1.377 . S
C2933 H2917 0.930 . S
C2933 C2932 1.377 . S
C2933 C2934 1.379 . S
C2934 H2918 0.931 . S
C2934 C2928 1.383 . S
C2934 C2933 1.379 . S
H2935 C2929 0.959 . S
H2936 C2929 0.961 . S
H2937 C2929 0.960 . S
H2938 C2930 0.930 . S
H2939 C2931 0.929 . S
H2940 C2948 0.929 . S
H2941 C2950 0.930 . S
H2942 C2952 0.930 . S
H2943 C2955 0.929 . S
H2944 C2958 0.930 . S
H2945 C2960 0.960 . S
H2946 C2960 0.960 . S
H2947 C2960 0.960 . S
C2948 H2940 0.929 . S
C2948 C2949 1.377 . S
C2948 C2950 1.384 . S
C2949 C2948 1.377 . S
C2949 C2955 1.390 . S
C2950 H2941 0.930 . S
C2950 C2948 1.384 . S
C2950 C2951 1.372 . S
C2951 C2950 1.372 . S
C2951 C2952 1.400 . S
C2951 C2956 1.490 . S
C2952 H2942 0.930 . S
C2952 C2951 1.400 . S
C2952 C2955 1.386 . S
H2953 C2969 0.930 . S
H2954 C2970 0.931 . S
C2955 H2943 0.929 . S
C2955 C2949 1.390 . S
C2955 C2952 1.386 . S
C2956 C2951 1.490 . S
C2956 C2958 1.395 . S
C2956 C2959 1.403 . S
H2957 C2963 0.930 . S
C2958 H2944 0.930 . S
C2958 C2956 1.395 . S
C2958 C2961 1.403 . S
C2959 C2956 1.403 . S
C2959 C2960 1.524 . S
C2959 C2963 1.400 . S
C2960 H2945 0.960 . S
C2960 H2946 0.960 . S
C2960 H2947 0.960 . S
C2960 C2959 1.524 . S
C2961 C2958 1.403 . S
C2961 C2962 1.392 . S
C2961 C2965 1.495 . S
C2962 C2961 1.392 . S
C2962 C2963 1.385 . S
C2962 C2964 1.478 . S
C2963 H2957 0.930 . S
C2963 C2959 1.400 . S
C2963 C2962 1.385 . S
C2964 C2962 1.478 . S
C2964 C2966 1.381 . S
C2964 C2970 1.383 . S
C2965 C2961 1.495 . S
C2965 H2971 0.959 . S
C2965 H2972 0.961 . S
C2965 H2973 0.960 . S
C2966 C2964 1.381 . S
C2966 C2967 1.394 . S
C2966 H2974 0.930 . S
C2967 C2966 1.394 . S
C2967 C2968 1.383 . S
C2967 H2975 0.929 . S
C2968 C2967 1.383 . S
C2968 C2969 1.377 . S
C2969 H2953 0.930 . S
C2969 C2968 1.377 . S
C2969 C2970 1.379 . S
C2970 H2954 0.931 . S
C2970 C2964 1.383 . S
C2970 C2969 1.379 . S
H2971 C2965 0.959 . S
H2972 C2965 0.961 . S
H2973 C2965 0.960 . S
H2974 C2966 0.930 . S
H2975 C2967 0.929 . S
H2976 C2984 0.929 . S
H2977 C2986 0.930 . S
H2978 C2988 0.930 . S
H2979 C2991 0.929 . S
H2980 C2994 0.930 . S
H2981 C2996 0.960 . S
H2982 C2996 0.960 . S
H2983 C2996 0.960 . S
C2984 H2976 0.929 . S
C2984 C2985 1.377 . S
C2984 C2986 1.384 . S
C2985 C2984 1.377 . S
C2985 C2991 1.390 . S
C2986 H2977 0.930 . S
C2986 C2984 1.384 . S
C2986 C2987 1.372 . S
C2987 C2986 1.372 . S
C2987 C2988 1.400 . S
C2987 C2992 1.490 . S
C2988 H2978 0.930 . S
C2988 C2987 1.400 . S
C2988 C2991 1.386 . S
H2989 C3005 0.930 . S
H2990 C3006 0.931 . S
C2991 H2979 0.929 . S
C2991 C2985 1.390 . S
C2991 C2988 1.386 . S
C2992 C2987 1.490 . S
C2992 C2994 1.395 . S
C2992 C2995 1.403 . S
H2993 C2999 0.930 . S
C2994 H2980 0.930 . S
C2994 C2992 1.395 . S
C2994 C2997 1.403 . S
C2995 C2992 1.403 . S
C2995 C2996 1.524 . S
C2995 C2999 1.400 . S
C2996 H2981 0.960 . S
C2996 H2982 0.960 . S
C2996 H2983 0.960 . S
C2996 C2995 1.524 . S
C2997 C2994 1.403 . S
C2997 C2998 1.392 . S
C2997 C3001 1.495 . S
C2998 C2997 1.392 . S
C2998 C2999 1.385 . S
C2998 C3000 1.478 . S
C2999 H2993 0.930 . S
C2999 C2995 1.400 . S
C2999 C2998 1.385 . S
C3000 C2998 1.478 . S
C3000 C3002 1.381 . S
C3000 C3006 1.383 . S
C3001 C2997 1.495 . S
C3001 H3007 0.959 . S
C3001 H3008 0.961 . S
C3001 H3009 0.960 . S
C3002 C3000 1.381 . S
C3002 C3003 1.394 . S
C3002 H3010 0.930 . S
C3003 C3002 1.394 . S
C3003 C3004 1.383 . S
C3003 H3011 0.929 . S
C3004 C3003 1.383 . S
C3004 C3005 1.377 . S
C3005 H2989 0.930 . S
C3005 C3004 1.377 . S
C3005 C3006 1.379 . S
C3006 H2990 0.931 . S
C3006 C3000 1.383 . S
C3006 C3005 1.379 . S
H3007 C3001 0.959 . S
H3008 C3001 0.961 . S
H3009 C3001 0.960 . S
H3010 C3002 0.930 . S
H3011 C3003 0.929 . S
H3012 C3020 0.929 . S
H3013 C3022 0.930 . S
H3014 C3024 0.930 . S
H3015 C3027 0.929 . S
H3016 C3030 0.930 . S
H3017 C3032 0.960 . S
H3018 C3032 0.960 . S
H3019 C3032 0.960 . S
C3020 H3012 0.929 . S
C3020 C3021 1.377 . S
C3020 C3022 1.384 . S
C3021 C3020 1.377 . S
C3021 C3027 1.390 . S
C3022 H3013 0.930 . S
C3022 C3020 1.384 . S
C3022 C3023 1.372 . S
C3023 C3022 1.372 . S
C3023 C3024 1.400 . S
C3023 C3028 1.490 . S
C3024 H3014 0.930 . S
C3024 C3023 1.400 . S
C3024 C3027 1.386 . S
H3025 C3041 0.930 . S
H3026 C3042 0.931 . S
C3027 H3015 0.929 . S
C3027 C3021 1.390 . S
C3027 C3024 1.386 . S
C3028 C3023 1.490 . S
C3028 C3030 1.395 . S
C3028 C3031 1.403 . S
H3029 C3035 0.930 . S
C3030 H3016 0.930 . S
C3030 C3028 1.395 . S
C3030 C3033 1.403 . S
C3031 C3028 1.403 . S
C3031 C3032 1.524 . S
C3031 C3035 1.400 . S
C3032 H3017 0.960 . S
C3032 H3018 0.960 . S
C3032 H3019 0.960 . S
C3032 C3031 1.524 . S
C3033 C3030 1.403 . S
C3033 C3034 1.392 . S
C3033 C3037 1.495 . S
C3034 C3033 1.392 . S
C3034 C3035 1.385 . S
C3034 C3036 1.478 . S
C3035 H3029 0.930 . S
C3035 C3031 1.400 . S
C3035 C3034 1.385 . S
C3036 C3034 1.478 . S
C3036 C3038 1.381 . S
C3036 C3042 1.383 . S
C3037 C3033 1.495 . S
C3037 H3043 0.959 . S
C3037 H3044 0.961 . S
C3037 H3045 0.960 . S
C3038 C3036 1.381 . S
C3038 C3039 1.394 . S
C3038 H3046 0.930 . S
C3039 C3038 1.394 . S
C3039 C3040 1.383 . S
C3039 H3047 0.929 . S
C3040 C3039 1.383 . S
C3040 C3041 1.377 . S
C3041 H3025 0.930 . S
C3041 C3040 1.377 . S
C3041 C3042 1.379 . S
C3042 H3026 0.931 . S
C3042 C3036 1.383 . S
C3042 C3041 1.379 . S
H3043 C3037 0.959 . S
H3044 C3037 0.961 . S
H3045 C3037 0.960 . S
H3046 C3038 0.930 . S
H3047 C3039 0.929 . S
H3048 C3056 0.929 . S
H3049 C3058 0.930 . S
H3050 C3060 0.930 1_565 S
H3051 C3063 0.929 . S
H3052 C3066 0.930 . S
H3053 C3068 0.960 . S
H3054 C3068 0.960 . S
H3055 C3068 0.960 . S
C3056 H3048 0.929 . S
C3056 C3057 1.377 . S
C3056 C3058 1.384 . S
C3057 C3056 1.377 . S
C3057 C3063 1.390 . S
C3058 H3049 0.930 . S
C3058 C3056 1.384 . S
C3058 C3059 1.372 . S
C3059 C3058 1.372 . S
C3059 C3060 1.400 . S
C3059 C3064 1.490 1_545 S
C3060 H3050 0.930 1_545 S
C3060 C3059 1.400 . S
C3060 C3063 1.386 . S
H3061 C3077 0.930 . S
H3062 C3078 0.931 . S
C3063 H3051 0.929 . S
C3063 C3057 1.390 . S
C3063 C3060 1.386 . S
C3064 C3059 1.490 1_565 S
C3064 C3066 1.395 1_565 S
C3064 C3067 1.403 . S
H3065 C3071 0.930 . S
C3066 H3052 0.930 . S
C3066 C3064 1.395 1_545 S
C3066 C3069 1.403 . S
C3067 C3064 1.403 . S
C3067 C3068 1.524 . S
C3067 C3071 1.400 . S
C3068 H3053 0.960 . S
C3068 H3054 0.960 . S
C3068 H3055 0.960 . S
C3068 C3067 1.524 . S
C3069 C3066 1.403 . S
C3069 C3070 1.392 1_545 S
C3069 C3073 1.495 . S
C3070 C3069 1.392 1_565 S
C3070 C3071 1.385 . S
C3070 C3072 1.478 . S
C3071 H3065 0.930 . S
C3071 C3067 1.400 . S
C3071 C3070 1.385 . S
C3072 C3070 1.478 . S
C3072 C3074 1.381 . S
C3072 C3078 1.383 . S
C3073 C3069 1.495 . S
C3073 H3079 0.959 . S
C3073 H3080 0.961 . S
C3073 H3081 0.960 . S
C3074 C3072 1.381 . S
C3074 C3075 1.394 . S
C3074 H3082 0.930 . S
C3075 C3074 1.394 . S
C3075 C3076 1.383 . S
C3075 H3083 0.929 . S
C3076 C3075 1.383 . S
C3076 C3077 1.377 . S
C3077 H3061 0.930 . S
C3077 C3076 1.377 . S
C3077 C3078 1.379 . S
C3078 H3062 0.931 . S
C3078 C3072 1.383 . S
C3078 C3077 1.379 . S
H3079 C3073 0.959 . S
H3080 C3073 0.961 . S
H3081 C3073 0.960 . S
H3082 C3074 0.930 . S
H3083 C3075 0.929 . S
H3084 C3092 0.929 . S
H3085 C3094 0.930 . S
H3086 C3096 0.930 . S
H3087 C3099 0.929 . S
H3088 C3102 0.930 . S
H3089 C3104 0.960 . S
H3090 C3104 0.960 . S
H3091 C3104 0.960 . S
C3092 H3084 0.929 . S
C3092 C3093 1.377 . S
C3092 C3094 1.384 . S
C3093 C3092 1.377 . S
C3093 C3099 1.390 . S
C3094 H3085 0.930 . S
C3094 C3092 1.384 . S
C3094 C3095 1.372 . S
C3095 C3094 1.372 . S
C3095 C3096 1.400 . S
C3095 C3100 1.490 . S
C3096 H3086 0.930 . S
C3096 C3095 1.400 . S
C3096 C3099 1.386 . S
H3097 C3113 0.930 . S
H3098 C3114 0.931 . S
C3099 H3087 0.929 . S
C3099 C3093 1.390 . S
C3099 C3096 1.386 . S
C3100 C3095 1.490 . S
C3100 C3102 1.395 . S
C3100 C3103 1.403 . S
H3101 C3107 0.930 . S
C3102 H3088 0.930 . S
C3102 C3100 1.395 . S
C3102 C3105 1.403 . S
C3103 C3100 1.403 . S
C3103 C3104 1.524 . S
C3103 C3107 1.400 . S
C3104 H3089 0.960 . S
C3104 H3090 0.960 . S
C3104 H3091 0.960 . S
C3104 C3103 1.524 . S
C3105 C3102 1.403 . S
C3105 C3106 1.392 . S
C3105 C3109 1.495 . S
C3106 C3105 1.392 . S
C3106 C3107 1.385 . S
C3106 C3108 1.478 . S
C3107 H3101 0.930 . S
C3107 C3103 1.400 . S
C3107 C3106 1.385 . S
C3108 C3106 1.478 . S
C3108 C3110 1.381 . S
C3108 C3114 1.383 . S
C3109 C3105 1.495 . S
C3109 H3115 0.959 . S
C3109 H3116 0.961 . S
C3109 H3117 0.960 . S
C3110 C3108 1.381 . S
C3110 C3111 1.394 . S
C3110 H3118 0.930 . S
C3111 C3110 1.394 . S
C3111 C3112 1.383 . S
C3111 H3119 0.929 . S
C3112 C3111 1.383 . S
C3112 C3113 1.377 . S
C3113 H3097 0.930 . S
C3113 C3112 1.377 . S
C3113 C3114 1.379 . S
C3114 H3098 0.931 . S
C3114 C3108 1.383 . S
C3114 C3113 1.379 . S
H3115 C3109 0.959 . S
H3116 C3109 0.961 . S
H3117 C3109 0.960 . S
H3118 C3110 0.930 . S
H3119 C3111 0.929 . S
H3120 C3128 0.929 . S
H3121 C3130 0.930 . S
H3122 C3132 0.930 . S
H3123 C3135 0.929 . S
H3124 C3138 0.930 . S
H3125 C3140 0.960 . S
H3126 C3140 0.960 . S
H3127 C3140 0.960 . S
C3128 H3120 0.929 . S
C3128 C3129 1.377 . S
C3128 C3130 1.384 . S
C3129 C3128 1.377 . S
C3129 C3135 1.390 . S
C3130 H3121 0.930 . S
C3130 C3128 1.384 . S
C3130 C3131 1.372 . S
C3131 C3130 1.372 . S
C3131 C3132 1.400 . S
C3131 C3136 1.490 . S
C3132 H3122 0.930 . S
C3132 C3131 1.400 . S
C3132 C3135 1.386 . S
H3133 C3149 0.930 . S
H3134 C3150 0.931 . S
C3135 H3123 0.929 . S
C3135 C3129 1.390 . S
C3135 C3132 1.386 . S
C3136 C3131 1.490 . S
C3136 C3138 1.395 . S
C3136 C3139 1.403 . S
H3137 C3143 0.930 . S
C3138 H3124 0.930 . S
C3138 C3136 1.395 . S
C3138 C3141 1.403 . S
C3139 C3136 1.403 . S
C3139 C3140 1.524 . S
C3139 C3143 1.400 . S
C3140 H3125 0.960 . S
C3140 H3126 0.960 . S
C3140 H3127 0.960 . S
C3140 C3139 1.524 . S
C3141 C3138 1.403 . S
C3141 C3142 1.392 . S
C3141 C3145 1.495 . S
C3142 C3141 1.392 . S
C3142 C3143 1.385 . S
C3142 C3144 1.478 . S
C3143 H3137 0.930 . S
C3143 C3139 1.400 . S
C3143 C3142 1.385 . S
C3144 C3142 1.478 . S
C3144 C3146 1.381 . S
C3144 C3150 1.383 . S
C3145 C3141 1.495 . S
C3145 H3151 0.959 . S
C3145 H3152 0.961 . S
C3145 H3153 0.960 . S
C3146 C3144 1.381 . S
C3146 C3147 1.394 . S
C3146 H3154 0.930 . S
C3147 C3146 1.394 . S
C3147 C3148 1.383 . S
C3147 H3155 0.929 . S
C3148 C3147 1.383 . S
C3148 C3149 1.377 . S
C3149 H3133 0.930 . S
C3149 C3148 1.377 . S
C3149 C3150 1.379 . S
C3150 H3134 0.931 . S
C3150 C3144 1.383 . S
C3150 C3149 1.379 . S
H3151 C3145 0.959 . S
H3152 C3145 0.961 . S
H3153 C3145 0.960 . S
H3154 C3146 0.930 . S
H3155 C3147 0.929 . S
H3156 C3164 0.929 . S
H3157 C3166 0.930 . S
H3158 C3168 0.930 . S
H3159 C3171 0.929 . S
H3160 C3174 0.930 . S
H3161 C3176 0.960 . S
H3162 C3176 0.960 . S
H3163 C3176 0.960 . S
C3164 H3156 0.929 . S
C3164 C3165 1.377 . S
C3164 C3166 1.384 . S
C3165 C3164 1.377 . S
C3165 C3171 1.390 . S
C3166 H3157 0.930 . S
C3166 C3164 1.384 . S
C3166 C3167 1.372 . S
C3167 C3166 1.372 . S
C3167 C3168 1.400 . S
C3167 C3172 1.490 . S
C3168 H3158 0.930 . S
C3168 C3167 1.400 . S
C3168 C3171 1.386 . S
H3169 C3185 0.930 . S
H3170 C3186 0.931 . S
C3171 H3159 0.929 . S
C3171 C3165 1.390 . S
C3171 C3168 1.386 . S
C3172 C3167 1.490 . S
C3172 C3174 1.395 . S
C3172 C3175 1.403 . S
H3173 C3179 0.930 . S
C3174 H3160 0.930 . S
C3174 C3172 1.395 . S
C3174 C3177 1.403 . S
C3175 C3172 1.403 . S
C3175 C3176 1.524 . S
C3175 C3179 1.400 . S
C3176 H3161 0.960 . S
C3176 H3162 0.960 . S
C3176 H3163 0.960 . S
C3176 C3175 1.524 . S
C3177 C3174 1.403 . S
C3177 C3178 1.392 . S
C3177 C3181 1.495 . S
C3178 C3177 1.392 . S
C3178 C3179 1.385 . S
C3178 C3180 1.478 . S
C3179 H3173 0.930 . S
C3179 C3175 1.400 . S
C3179 C3178 1.385 . S
C3180 C3178 1.478 . S
C3180 C3182 1.381 . S
C3180 C3186 1.383 . S
C3181 C3177 1.495 . S
C3181 H3187 0.959 . S
C3181 H3188 0.961 . S
C3181 H3189 0.960 . S
C3182 C3180 1.381 . S
C3182 C3183 1.394 . S
C3182 H3190 0.930 . S
C3183 C3182 1.394 . S
C3183 C3184 1.383 . S
C3183 H3191 0.929 . S
C3184 C3183 1.383 . S
C3184 C3185 1.377 . S
C3185 H3169 0.930 . S
C3185 C3184 1.377 . S
C3185 C3186 1.379 . S
C3186 H3170 0.931 . S
C3186 C3180 1.383 . S
C3186 C3185 1.379 . S
H3187 C3181 0.959 . S
H3188 C3181 0.961 . S
H3189 C3181 0.960 . S
H3190 C3182 0.930 . S
H3191 C3183 0.929 . S
H3192 C3200 0.929 . S
H3193 C3202 0.930 . S
H3194 C3204 0.930 . S
H3195 C3207 0.929 . S
H3196 C3210 0.930 . S
H3197 C3212 0.960 . S
H3198 C3212 0.960 . S
H3199 C3212 0.960 . S
C3200 H3192 0.929 . S
C3200 C3201 1.377 . S
C3200 C3202 1.384 . S
C3201 C3200 1.377 . S
C3201 C3207 1.390 . S
C3202 H3193 0.930 . S
C3202 C3200 1.384 . S
C3202 C3203 1.372 . S
C3203 C3202 1.372 . S
C3203 C3204 1.400 . S
C3203 C3208 1.490 . S
C3204 H3194 0.930 . S
C3204 C3203 1.400 . S
C3204 C3207 1.386 . S
H3205 C3221 0.930 . S
H3206 C3222 0.931 . S
C3207 H3195 0.929 . S
C3207 C3201 1.390 . S
C3207 C3204 1.386 . S
C3208 C3203 1.490 . S
C3208 C3210 1.395 . S
C3208 C3211 1.403 . S
H3209 C3215 0.930 . S
C3210 H3196 0.930 . S
C3210 C3208 1.395 . S
C3210 C3213 1.403 . S
C3211 C3208 1.403 . S
C3211 C3212 1.524 . S
C3211 C3215 1.400 . S
C3212 H3197 0.960 . S
C3212 H3198 0.960 . S
C3212 H3199 0.960 . S
C3212 C3211 1.524 . S
C3213 C3210 1.403 . S
C3213 C3214 1.392 . S
C3213 C3217 1.495 . S
C3214 C3213 1.392 . S
C3214 C3215 1.385 . S
C3214 C3216 1.478 . S
C3215 H3209 0.930 . S
C3215 C3211 1.400 . S
C3215 C3214 1.385 . S
C3216 C3214 1.478 . S
C3216 C3218 1.381 . S
C3216 C3222 1.383 . S
C3217 C3213 1.495 . S
C3217 H3223 0.959 . S
C3217 H3224 0.961 . S
C3217 H3225 0.960 . S
C3218 C3216 1.381 . S
C3218 C3219 1.394 . S
C3218 H3226 0.930 . S
C3219 C3218 1.394 . S
C3219 C3220 1.383 . S
C3219 H3227 0.929 . S
C3220 C3219 1.383 . S
C3220 C3221 1.377 . S
C3221 H3205 0.930 . S
C3221 C3220 1.377 . S
C3221 C3222 1.379 . S
C3222 H3206 0.931 . S
C3222 C3216 1.383 . S
C3222 C3221 1.379 . S
H3223 C3217 0.959 . S
H3224 C3217 0.961 . S
H3225 C3217 0.960 . S
H3226 C3218 0.930 . S
H3227 C3219 0.929 . S
H3228 C3236 0.929 . S
H3229 C3238 0.930 . S
H3230 C3240 0.930 . S
H3231 C3243 0.929 . S
H3232 C3246 0.930 . S
H3233 C3248 0.960 1_455 S
H3234 C3248 0.960 . S
H3235 C3248 0.960 . S
C3236 H3228 0.929 . S
C3236 C3237 1.377 . S
C3236 C3238 1.384 . S
C3237 C3236 1.377 . S
C3237 C3243 1.390 . S
C3238 H3229 0.930 . S
C3238 C3236 1.384 . S
C3238 C3239 1.372 . S
C3239 C3238 1.372 . S
C3239 C3240 1.400 . S
C3239 C3244 1.490 . S
C3240 H3230 0.930 . S
C3240 C3239 1.400 . S
C3240 C3243 1.386 . S
H3241 C3257 0.930 . S
H3242 C3258 0.931 . S
C3243 H3231 0.929 . S
C3243 C3237 1.390 . S
C3243 C3240 1.386 . S
C3244 C3239 1.490 . S
C3244 C3246 1.395 . S
C3244 C3247 1.403 . S
H3245 C3251 0.930 . S
C3246 H3232 0.930 . S
C3246 C3244 1.395 . S
C3246 C3249 1.403 . S
C3247 C3244 1.403 . S
C3247 C3248 1.524 . S
C3247 C3251 1.400 1_655 S
C3248 H3233 0.960 1_655 S
C3248 H3234 0.960 . S
C3248 H3235 0.960 . S
C3248 C3247 1.524 . S
C3249 C3246 1.403 . S
C3249 C3250 1.392 1_655 S
C3249 C3253 1.495 . S
C3250 C3249 1.392 1_455 S
C3250 C3251 1.385 . S
C3250 C3252 1.478 . S
C3251 H3245 0.930 . S
C3251 C3247 1.400 1_455 S
C3251 C3250 1.385 . S
C3252 C3250 1.478 . S
C3252 C3254 1.381 . S
C3252 C3258 1.383 . S
C3253 C3249 1.495 . S
C3253 H3259 0.959 . S
C3253 H3260 0.962 1_655 S
C3253 H3261 0.960 1_655 S
C3254 C3252 1.381 . S
C3254 C3255 1.394 . S
C3254 H3262 0.930 . S
C3255 C3254 1.394 . S
C3255 C3256 1.383 . S
C3255 H3263 0.929 . S
C3256 C3255 1.383 . S
C3256 C3257 1.377 . S
C3257 H3241 0.930 . S
C3257 C3256 1.377 . S
C3257 C3258 1.379 . S
C3258 H3242 0.931 . S
C3258 C3252 1.383 . S
C3258 C3257 1.379 . S
H3259 C3253 0.959 . S
H3260 C3253 0.962 1_455 S
H3261 C3253 0.960 1_455 S
H3262 C3254 0.930 . S
H3263 C3255 0.929 . S
H3264 C3272 0.929 . S
H3265 C3274 0.930 . S
H3266 C3276 0.930 . S
H3267 C3279 0.929 . S
H3268 C3282 0.930 . S
H3269 C3284 0.960 . S
H3270 C3284 0.960 . S
H3271 C3284 0.960 . S
C3272 H3264 0.929 . S
C3272 C3273 1.377 . S
C3272 C3274 1.384 . S
C3273 C3272 1.377 . S
C3273 C3279 1.390 . S
C3274 H3265 0.930 . S
C3274 C3272 1.384 . S
C3274 C3275 1.372 . S
C3275 C3274 1.372 . S
C3275 C3276 1.400 . S
C3275 C3280 1.490 . S
C3276 H3266 0.930 . S
C3276 C3275 1.400 . S
C3276 C3279 1.386 . S
H3277 C3293 0.930 . S
H3278 C3294 0.931 . S
C3279 H3267 0.929 . S
C3279 C3273 1.390 . S
C3279 C3276 1.386 . S
C3280 C3275 1.490 . S
C3280 C3282 1.395 . S
C3280 C3283 1.403 . S
H3281 C3287 0.930 . S
C3282 H3268 0.930 . S
C3282 C3280 1.395 . S
C3282 C3285 1.403 . S
C3283 C3280 1.403 . S
C3283 C3284 1.524 . S
C3283 C3287 1.400 . S
C3284 H3269 0.960 . S
C3284 H3270 0.960 . S
C3284 H3271 0.960 . S
C3284 C3283 1.524 . S
C3285 C3282 1.403 . S
C3285 C3286 1.392 . S
C3285 C3289 1.495 . S
C3286 C3285 1.392 . S
C3286 C3287 1.385 . S
C3286 C3288 1.478 . S
C3287 H3281 0.930 . S
C3287 C3283 1.400 . S
C3287 C3286 1.385 . S
C3288 C3286 1.478 . S
C3288 C3290 1.381 . S
C3288 C3294 1.383 . S
C3289 C3285 1.495 . S
C3289 H3295 0.959 . S
C3289 H3296 0.961 . S
C3289 H3297 0.960 . S
C3290 C3288 1.381 . S
C3290 C3291 1.394 . S
C3290 H3298 0.930 . S
C3291 C3290 1.394 . S
C3291 C3292 1.383 . S
C3291 H3299 0.929 . S
C3292 C3291 1.383 . S
C3292 C3293 1.377 . S
C3293 H3277 0.930 . S
C3293 C3292 1.377 . S
C3293 C3294 1.379 . S
C3294 H3278 0.931 . S
C3294 C3288 1.383 . S
C3294 C3293 1.379 . S
H3295 C3289 0.959 . S
H3296 C3289 0.961 . S
H3297 C3289 0.960 . S
H3298 C3290 0.930 . S
H3299 C3291 0.929 . S
H3300 C3308 0.929 . S
H3301 C3310 0.930 . S
H3302 C3312 0.930 . S
H3303 C3315 0.929 . S
H3304 C3318 0.930 . S
H3305 C3320 0.960 . S
H3306 C3320 0.960 . S
H3307 C3320 0.960 . S
C3308 H3300 0.929 . S
C3308 C3309 1.377 . S
C3308 C3310 1.384 . S
C3309 C3308 1.377 . S
C3309 C3315 1.390 . S
C3310 H3301 0.930 . S
C3310 C3308 1.384 . S
C3310 C3311 1.372 . S
C3311 C3310 1.372 . S
C3311 C3312 1.400 . S
C3311 C3316 1.490 . S
C3312 H3302 0.930 . S
C3312 C3311 1.400 . S
C3312 C3315 1.386 . S
H3313 C3329 0.930 . S
H3314 C3330 0.931 . S
C3315 H3303 0.929 . S
C3315 C3309 1.390 . S
C3315 C3312 1.386 . S
C3316 C3311 1.490 . S
C3316 C3318 1.395 . S
C3316 C3319 1.403 . S
H3317 C3323 0.930 . S
C3318 H3304 0.930 . S
C3318 C3316 1.395 . S
C3318 C3321 1.403 1_556 S
C3319 C3316 1.403 . S
C3319 C3320 1.524 . S
C3319 C3323 1.400 1_556 S
C3320 H3305 0.960 . S
C3320 H3306 0.960 . S
C3320 H3307 0.960 . S
C3320 C3319 1.524 . S
C3321 C3318 1.403 1_554 S
C3321 C3322 1.392 . S
C3321 C3325 1.495 . S
C3322 C3321 1.392 . S
C3322 C3323 1.385 . S
C3322 C3324 1.478 . S
C3323 H3317 0.930 . S
C3323 C3319 1.400 1_554 S
C3323 C3322 1.385 . S
C3324 C3322 1.478 . S
C3324 C3326 1.381 . S
C3324 C3330 1.383 . S
C3325 C3321 1.495 . S
C3325 H3331 0.959 . S
C3325 H3332 0.961 . S
C3325 H3333 0.960 . S
C3326 C3324 1.381 . S
C3326 C3327 1.394 . S
C3326 H3334 0.930 . S
C3327 C3326 1.394 . S
C3327 C3328 1.383 . S
C3327 H3335 0.929 . S
C3328 C3327 1.383 . S
C3328 C3329 1.377 . S
C3329 H3313 0.930 . S
C3329 C3328 1.377 . S
C3329 C3330 1.379 . S
C3330 H3314 0.931 . S
C3330 C3324 1.383 . S
C3330 C3329 1.379 . S
H3331 C3325 0.959 . S
H3332 C3325 0.961 . S
H3333 C3325 0.960 . S
H3334 C3326 0.930 . S
H3335 C3327 0.929 . S
H3336 C3344 0.929 . S
H3337 C3346 0.930 . S
H3338 C3348 0.930 . S
H3339 C3351 0.929 . S
H3340 C3354 0.930 . S
H3341 C3356 0.960 . S
H3342 C3356 0.960 . S
H3343 C3356 0.960 . S
C3344 H3336 0.929 . S
C3344 C3345 1.377 . S
C3344 C3346 1.384 . S
C3345 C3344 1.377 . S
C3345 C3351 1.390 . S
C3346 H3337 0.930 . S
C3346 C3344 1.384 . S
C3346 C3347 1.372 . S
C3347 C3346 1.372 . S
C3347 C3348 1.400 . S
C3347 C3352 1.490 . S
C3348 H3338 0.930 . S
C3348 C3347 1.400 . S
C3348 C3351 1.386 . S
H3349 C3365 0.930 . S
H3350 C3366 0.931 . S
C3351 H3339 0.929 . S
C3351 C3345 1.390 . S
C3351 C3348 1.386 . S
C3352 C3347 1.490 . S
C3352 C3354 1.395 . S
C3352 C3355 1.403 . S
H3353 C3359 0.930 . S
C3354 H3340 0.930 . S
C3354 C3352 1.395 . S
C3354 C3357 1.403 . S
C3355 C3352 1.403 . S
C3355 C3356 1.524 . S
C3355 C3359 1.400 . S
C3356 H3341 0.960 . S
C3356 H3342 0.960 . S
C3356 H3343 0.960 . S
C3356 C3355 1.524 . S
C3357 C3354 1.403 . S
C3357 C3358 1.392 . S
C3357 C3361 1.495 . S
C3358 C3357 1.392 . S
C3358 C3359 1.385 . S
C3358 C3360 1.478 . S
C3359 H3353 0.930 . S
C3359 C3355 1.400 . S
C3359 C3358 1.385 . S
C3360 C3358 1.478 . S
C3360 C3362 1.381 . S
C3360 C3366 1.383 . S
C3361 C3357 1.495 . S
C3361 H3367 0.959 . S
C3361 H3368 0.961 . S
C3361 H3369 0.960 . S
C3362 C3360 1.381 . S
C3362 C3363 1.394 . S
C3362 H3370 0.930 . S
C3363 C3362 1.394 . S
C3363 C3364 1.383 . S
C3363 H3371 0.929 . S
C3364 C3363 1.383 . S
C3364 C3365 1.377 . S
C3365 H3349 0.930 . S
C3365 C3364 1.377 . S
C3365 C3366 1.379 . S
C3366 H3350 0.931 . S
C3366 C3360 1.383 . S
C3366 C3365 1.379 . S
H3367 C3361 0.959 . S
H3368 C3361 0.961 . S
H3369 C3361 0.960 . S
H3370 C3362 0.930 . S
H3371 C3363 0.929 . S
H3372 C3380 0.929 . S
H3373 C3382 0.930 . S
H3374 C3384 0.930 . S
H3375 C3387 0.929 . S
H3376 C3390 0.930 . S
H3377 C3392 0.960 . S
H3378 C3392 0.960 . S
H3379 C3392 0.960 . S
C3380 H3372 0.929 . S
C3380 C3381 1.377 . S
C3380 C3382 1.384 . S
C3381 C3380 1.377 . S
C3381 C3387 1.390 . S
C3382 H3373 0.930 . S
C3382 C3380 1.384 . S
C3382 C3383 1.372 . S
C3383 C3382 1.372 . S
C3383 C3384 1.400 . S
C3383 C3388 1.490 . S
C3384 H3374 0.930 . S
C3384 C3383 1.400 . S
C3384 C3387 1.386 . S
H3385 C3401 0.930 . S
H3386 C3402 0.931 . S
C3387 H3375 0.929 . S
C3387 C3381 1.390 . S
C3387 C3384 1.386 . S
C3388 C3383 1.490 . S
C3388 C3390 1.395 . S
C3388 C3391 1.403 . S
H3389 C3395 0.930 . S
C3390 H3376 0.930 . S
C3390 C3388 1.395 . S
C3390 C3393 1.403 . S
C3391 C3388 1.403 . S
C3391 C3392 1.524 . S
C3391 C3395 1.400 . S
C3392 H3377 0.960 . S
C3392 H3378 0.960 . S
C3392 H3379 0.960 . S
C3392 C3391 1.524 . S
C3393 C3390 1.403 . S
C3393 C3394 1.392 . S
C3393 C3397 1.495 . S
C3394 C3393 1.392 . S
C3394 C3395 1.385 . S
C3394 C3396 1.478 . S
C3395 H3389 0.930 . S
C3395 C3391 1.400 . S
C3395 C3394 1.385 . S
C3396 C3394 1.478 . S
C3396 C3398 1.381 . S
C3396 C3402 1.383 . S
C3397 C3393 1.495 . S
C3397 H3403 0.959 . S
C3397 H3404 0.961 . S
C3397 H3405 0.960 . S
C3398 C3396 1.381 . S
C3398 C3399 1.394 . S
C3398 H3406 0.930 . S
C3399 C3398 1.394 . S
C3399 C3400 1.383 . S
C3399 H3407 0.929 . S
C3400 C3399 1.383 . S
C3400 C3401 1.377 . S
C3401 H3385 0.930 . S
C3401 C3400 1.377 . S
C3401 C3402 1.379 . S
C3402 H3386 0.931 . S
C3402 C3396 1.383 . S
C3402 C3401 1.379 . S
H3403 C3397 0.959 . S
H3404 C3397 0.961 . S
H3405 C3397 0.960 . S
H3406 C3398 0.930 . S
H3407 C3399 0.929 . S
H3408 C3416 0.929 . S
H3409 C3418 0.930 . S
H3410 C3420 0.930 . S
H3411 C3423 0.929 . S
H3412 C3426 0.930 . S
H3413 C3428 0.960 . S
H3414 C3428 0.960 . S
H3415 C3428 0.960 . S
C3416 H3408 0.929 . S
C3416 C3417 1.377 . S
C3416 C3418 1.384 . S
C3417 C3416 1.377 . S
C3417 C3423 1.390 . S
C3418 H3409 0.930 . S
C3418 C3416 1.384 . S
C3418 C3419 1.372 . S
C3419 C3418 1.372 . S
C3419 C3420 1.400 . S
C3419 C3424 1.490 . S
C3420 H3410 0.930 . S
C3420 C3419 1.400 . S
C3420 C3423 1.386 . S
H3421 C3437 0.930 . S
H3422 C3438 0.931 . S
C3423 H3411 0.929 . S
C3423 C3417 1.390 . S
C3423 C3420 1.386 . S
C3424 C3419 1.490 . S
C3424 C3426 1.395 . S
C3424 C3427 1.403 . S
H3425 C3431 0.930 . S
C3426 H3412 0.930 . S
C3426 C3424 1.395 . S
C3426 C3429 1.403 . S
C3427 C3424 1.403 . S
C3427 C3428 1.524 . S
C3427 C3431 1.400 . S
C3428 H3413 0.960 . S
C3428 H3414 0.960 . S
C3428 H3415 0.960 . S
C3428 C3427 1.524 . S
C3429 C3426 1.403 . S
C3429 C3430 1.392 . S
C3429 C3433 1.495 . S
C3430 C3429 1.392 . S
C3430 C3431 1.385 . S
C3430 C3432 1.478 . S
C3431 H3425 0.930 . S
C3431 C3427 1.400 . S
C3431 C3430 1.385 . S
C3432 C3430 1.478 . S
C3432 C3434 1.381 . S
C3432 C3438 1.383 . S
C3433 C3429 1.495 . S
C3433 H3439 0.959 . S
C3433 H3440 0.961 . S
C3433 H3441 0.960 . S
C3434 C3432 1.381 . S
C3434 C3435 1.394 . S
C3434 H3442 0.930 . S
C3435 C3434 1.394 . S
C3435 C3436 1.383 . S
C3435 H3443 0.929 . S
C3436 C3435 1.383 . S
C3436 C3437 1.377 . S
C3437 H3421 0.930 . S
C3437 C3436 1.377 . S
C3437 C3438 1.379 . S
C3438 H3422 0.931 . S
C3438 C3432 1.383 . S
C3438 C3437 1.379 . S
H3439 C3433 0.959 . S
H3440 C3433 0.961 . S
H3441 C3433 0.960 . S
H3442 C3434 0.930 . S
H3443 C3435 0.929 . S
H3444 C3452 0.929 . S
H3445 C3454 0.930 . S
H3446 C3456 0.930 . S
H3447 C3459 0.929 . S
H3448 C3462 0.930 . S
H3449 C3464 0.960 1_556 S
H3450 C3464 0.960 . S
H3451 C3464 0.960 . S
C3452 H3444 0.929 . S
C3452 C3453 1.377 . S
C3452 C3454 1.384 . S
C3453 C3452 1.377 . S
C3453 C3459 1.390 . S
C3454 H3445 0.930 . S
C3454 C3452 1.384 . S
C3454 C3455 1.372 . S
C3455 C3454 1.372 . S
C3455 C3456 1.400 . S
C3455 C3460 1.490 . S
C3456 H3446 0.930 . S
C3456 C3455 1.400 . S
C3456 C3459 1.386 . S
H3457 C3473 0.930 . S
H3458 C3474 0.931 . S
C3459 H3447 0.929 . S
C3459 C3453 1.390 . S
C3459 C3456 1.386 . S
C3460 C3455 1.490 . S
C3460 C3462 1.395 . S
C3460 C3463 1.403 . S
H3461 C3467 0.930 . S
C3462 H3448 0.930 . S
C3462 C3460 1.395 . S
C3462 C3465 1.403 . S
C3463 C3460 1.403 . S
C3463 C3464 1.524 . S
C3463 C3467 1.400 1_554 S
C3464 H3449 0.960 1_554 S
C3464 H3450 0.960 . S
C3464 H3451 0.960 . S
C3464 C3463 1.524 . S
C3465 C3462 1.403 . S
C3465 C3466 1.392 1_554 S
C3465 C3469 1.495 . S
C3466 C3465 1.392 1_556 S
C3466 C3467 1.385 . S
C3466 C3468 1.478 . S
C3467 H3461 0.930 . S
C3467 C3463 1.400 1_556 S
C3467 C3466 1.385 . S
C3468 C3466 1.478 . S
C3468 C3470 1.381 . S
C3468 C3474 1.383 . S
C3469 C3465 1.495 . S
C3469 H3475 0.959 . S
C3469 H3476 0.964 . S
C3469 H3477 0.960 . S
C3470 C3468 1.381 . S
C3470 C3471 1.394 . S
C3470 H3478 0.930 . S
C3471 C3470 1.394 . S
C3471 C3472 1.383 . S
C3471 H3479 0.929 . S
C3472 C3471 1.383 . S
C3472 C3473 1.377 . S
C3473 H3457 0.930 . S
C3473 C3472 1.377 . S
C3473 C3474 1.379 . S
C3474 H3458 0.931 . S
C3474 C3468 1.383 . S
C3474 C3473 1.379 . S
H3475 C3469 0.959 . S
H3476 C3469 0.964 . S
H3477 C3469 0.960 . S
H3478 C3470 0.930 . S
H3479 C3471 0.929 . S
H3480 C3488 0.929 . S
H3481 C3490 0.930 . S
H3482 C3492 0.930 . S
H3483 C3495 0.929 . S
H3484 C3498 0.930 . S
H3485 C3500 0.960 . S
H3486 C3500 0.960 . S
H3487 C3500 0.960 . S
C3488 H3480 0.929 . S
C3488 C3489 1.377 . S
C3488 C3490 1.384 . S
C3489 C3488 1.377 . S
C3489 C3495 1.390 . S
C3490 H3481 0.930 . S
C3490 C3488 1.384 . S
C3490 C3491 1.372 . S
C3491 C3490 1.372 . S
C3491 C3492 1.400 . S
C3491 C3496 1.490 . S
C3492 H3482 0.930 . S
C3492 C3491 1.400 . S
C3492 C3495 1.386 . S
H3493 C3509 0.930 . S
H3494 C3510 0.931 . S
C3495 H3483 0.929 . S
C3495 C3489 1.390 . S
C3495 C3492 1.386 . S
C3496 C3491 1.490 . S
C3496 C3498 1.395 . S
C3496 C3499 1.403 . S
H3497 C3503 0.930 . S
C3498 H3484 0.930 . S
C3498 C3496 1.395 . S
C3498 C3501 1.403 . S
C3499 C3496 1.403 . S
C3499 C3500 1.524 . S
C3499 C3503 1.400 . S
C3500 H3485 0.960 . S
C3500 H3486 0.960 . S
C3500 H3487 0.960 . S
C3500 C3499 1.524 . S
C3501 C3498 1.403 . S
C3501 C3502 1.392 . S
C3501 C3505 1.495 . S
C3502 C3501 1.392 . S
C3502 C3503 1.385 . S
C3502 C3504 1.478 . S
C3503 H3497 0.930 . S
C3503 C3499 1.400 . S
C3503 C3502 1.385 . S
C3504 C3502 1.478 . S
C3504 C3506 1.381 . S
C3504 C3510 1.383 . S
C3505 C3501 1.495 . S
C3505 H3511 0.959 . S
C3505 H3512 0.961 . S
C3505 H3513 0.960 . S
C3506 C3504 1.381 . S
C3506 C3507 1.394 . S
C3506 H3514 0.930 . S
C3507 C3506 1.394 . S
C3507 C3508 1.383 . S
C3507 H3515 0.929 . S
C3508 C3507 1.383 . S
C3508 C3509 1.377 . S
C3509 H3493 0.930 . S
C3509 C3508 1.377 . S
C3509 C3510 1.379 . S
C3510 H3494 0.931 . S
C3510 C3504 1.383 . S
C3510 C3509 1.379 . S
H3511 C3505 0.959 . S
H3512 C3505 0.961 . S
H3513 C3505 0.960 . S
H3514 C3506 0.930 . S
H3515 C3507 0.929 . S
H3516 C3524 0.929 . S
H3517 C3526 0.930 . S
H3518 C3528 0.930 . S
H3519 C3531 0.929 . S
H3520 C3534 0.930 . S
H3521 C3536 0.960 . S
H3522 C3536 0.960 . S
H3523 C3536 0.960 . S
C3524 H3516 0.929 . S
C3524 C3525 1.377 . S
C3524 C3526 1.384 . S
C3525 C3524 1.377 . S
C3525 C3531 1.390 . S
C3526 H3517 0.930 . S
C3526 C3524 1.384 . S
C3526 C3527 1.372 . S
C3527 C3526 1.372 . S
C3527 C3528 1.400 . S
C3527 C3532 1.490 . S
C3528 H3518 0.930 . S
C3528 C3527 1.400 . S
C3528 C3531 1.386 . S
H3529 C3545 0.930 . S
H3530 C3546 0.931 . S
C3531 H3519 0.929 . S
C3531 C3525 1.390 . S
C3531 C3528 1.386 . S
C3532 C3527 1.490 . S
C3532 C3534 1.395 . S
C3532 C3535 1.403 . S
H3533 C3539 0.930 . S
C3534 H3520 0.930 . S
C3534 C3532 1.395 . S
C3534 C3537 1.403 . S
C3535 C3532 1.403 . S
C3535 C3536 1.524 . S
C3535 C3539 1.400 . S
C3536 H3521 0.960 . S
C3536 H3522 0.960 . S
C3536 H3523 0.960 . S
C3536 C3535 1.524 . S
C3537 C3534 1.403 . S
C3537 C3538 1.392 . S
C3537 C3541 1.495 . S
C3538 C3537 1.392 . S
C3538 C3539 1.385 . S
C3538 C3540 1.478 . S
C3539 H3533 0.930 . S
C3539 C3535 1.400 . S
C3539 C3538 1.385 . S
C3540 C3538 1.478 . S
C3540 C3542 1.381 . S
C3540 C3546 1.383 . S
C3541 C3537 1.495 . S
C3541 H3547 0.959 . S
C3541 H3548 0.961 . S
C3541 H3549 0.960 . S
C3542 C3540 1.381 . S
C3542 C3543 1.394 . S
C3542 H3550 0.930 . S
C3543 C3542 1.394 . S
C3543 C3544 1.383 . S
C3543 H3551 0.929 . S
C3544 C3543 1.383 . S
C3544 C3545 1.377 . S
C3545 H3529 0.930 . S
C3545 C3544 1.377 . S
C3545 C3546 1.379 . S
C3546 H3530 0.931 . S
C3546 C3540 1.383 . S
C3546 C3545 1.379 . S
H3547 C3541 0.959 . S
H3548 C3541 0.961 . S
H3549 C3541 0.960 . S
H3550 C3542 0.930 . S
H3551 C3543 0.929 . S
H3552 C3560 0.929 . S
H3553 C3562 0.930 . S
H3554 C3564 0.930 . S
H3555 C3567 0.929 . S
H3556 C3570 0.930 . S
H3557 C3572 0.960 . S
H3558 C3572 0.960 . S
H3559 C3572 0.960 . S
C3560 H3552 0.929 . S
C3560 C3561 1.377 . S
C3560 C3562 1.384 . S
C3561 C3560 1.377 . S
C3561 C3567 1.390 . S
C3562 H3553 0.930 . S
C3562 C3560 1.384 . S
C3562 C3563 1.372 . S
C3563 C3562 1.372 . S
C3563 C3564 1.400 . S
C3563 C3568 1.490 . S
C3564 H3554 0.930 . S
C3564 C3563 1.400 . S
C3564 C3567 1.386 . S
H3565 C3581 0.930 . S
H3566 C3582 0.931 . S
C3567 H3555 0.929 . S
C3567 C3561 1.390 . S
C3567 C3564 1.386 . S
C3568 C3563 1.490 . S
C3568 C3570 1.395 . S
C3568 C3571 1.403 . S
H3569 C3575 0.930 . S
C3570 H3556 0.930 . S
C3570 C3568 1.395 . S
C3570 C3573 1.403 . S
C3571 C3568 1.403 . S
C3571 C3572 1.524 . S
C3571 C3575 1.400 . S
C3572 H3557 0.960 . S
C3572 H3558 0.960 . S
C3572 H3559 0.960 . S
C3572 C3571 1.524 . S
C3573 C3570 1.403 . S
C3573 C3574 1.392 . S
C3573 C3577 1.495 . S
C3574 C3573 1.392 . S
C3574 C3575 1.385 . S
C3574 C3576 1.478 . S
C3575 H3569 0.930 . S
C3575 C3571 1.400 . S
C3575 C3574 1.385 . S
C3576 C3574 1.478 . S
C3576 C3578 1.381 . S
C3576 C3582 1.383 . S
C3577 C3573 1.495 . S
C3577 H3583 0.959 . S
C3577 H3584 0.961 . S
C3577 H3585 0.960 . S
C3578 C3576 1.381 . S
C3578 C3579 1.394 . S
C3578 H3586 0.930 . S
C3579 C3578 1.394 . S
C3579 C3580 1.383 . S
C3579 H3587 0.929 . S
C3580 C3579 1.383 . S
C3580 C3581 1.377 . S
C3581 H3565 0.930 . S
C3581 C3580 1.377 . S
C3581 C3582 1.379 . S
C3582 H3566 0.931 . S
C3582 C3576 1.383 . S
C3582 C3581 1.379 . S
H3583 C3577 0.959 . S
H3584 C3577 0.961 . S
H3585 C3577 0.960 . S
H3586 C3578 0.930 . S
H3587 C3579 0.929 . S
H3588 C3596 0.929 . S
H3589 C3598 0.930 . S
H3590 C3600 0.930 . S
H3591 C3603 0.929 . S
H3592 C3606 0.930 . S
H3593 C3608 0.960 . S
H3594 C3608 0.960 . S
H3595 C3608 0.960 . S
C3596 H3588 0.929 . S
C3596 C3597 1.377 . S
C3596 C3598 1.384 . S
C3597 C3596 1.377 . S
C3597 C3603 1.390 . S
C3598 H3589 0.930 . S
C3598 C3596 1.384 . S
C3598 C3599 1.372 . S
C3599 C3598 1.372 . S
C3599 C3600 1.400 . S
C3599 C3604 1.490 . S
C3600 H3590 0.930 . S
C3600 C3599 1.400 . S
C3600 C3603 1.386 . S
H3601 C3617 0.930 . S
H3602 C3618 0.931 . S
C3603 H3591 0.929 . S
C3603 C3597 1.390 . S
C3603 C3600 1.386 . S
C3604 C3599 1.490 . S
C3604 C3606 1.395 . S
C3604 C3607 1.403 . S
H3605 C3611 0.930 . S
C3606 H3592 0.930 . S
C3606 C3604 1.395 . S
C3606 C3609 1.403 . S
C3607 C3604 1.403 . S
C3607 C3608 1.524 . S
C3607 C3611 1.400 . S
C3608 H3593 0.960 . S
C3608 H3594 0.960 . S
C3608 H3595 0.960 . S
C3608 C3607 1.524 . S
C3609 C3606 1.403 . S
C3609 C3610 1.392 . S
C3609 C3613 1.495 . S
C3610 C3609 1.392 . S
C3610 C3611 1.385 . S
C3610 C3612 1.478 . S
C3611 H3605 0.930 . S
C3611 C3607 1.400 . S
C3611 C3610 1.385 . S
C3612 C3610 1.478 . S
C3612 C3614 1.381 . S
C3612 C3618 1.383 . S
C3613 C3609 1.495 . S
C3613 H3619 0.959 . S
C3613 H3620 0.961 . S
C3613 H3621 0.960 . S
C3614 C3612 1.381 . S
C3614 C3615 1.394 . S
C3614 H3622 0.930 . S
C3615 C3614 1.394 . S
C3615 C3616 1.383 . S
C3615 H3623 0.929 . S
C3616 C3615 1.383 . S
C3616 C3617 1.377 . S
C3617 H3601 0.930 . S
C3617 C3616 1.377 . S
C3617 C3618 1.379 . S
C3618 H3602 0.931 . S
C3618 C3612 1.383 . S
C3618 C3617 1.379 . S
H3619 C3613 0.959 . S
H3620 C3613 0.961 . S
H3621 C3613 0.960 . S
H3622 C3614 0.930 . S
H3623 C3615 0.929 . S
H3624 C3632 0.929 . S
H3625 C3634 0.930 . S
H3626 C3636 0.930 . S
H3627 C3639 0.929 . S
H3628 C3642 0.930 . S
H3629 C3644 0.960 . S
H3630 C3644 0.960 . S
H3631 C3644 0.960 . S
C3632 H3624 0.929 . S
C3632 C3633 1.377 . S
C3632 C3634 1.384 . S
C3633 C3632 1.377 . S
C3633 C3639 1.390 . S
C3634 H3625 0.930 . S
C3634 C3632 1.384 . S
C3634 C3635 1.372 . S
C3635 C3634 1.372 . S
C3635 C3636 1.400 . S
C3635 C3640 1.490 . S
C3636 H3626 0.930 . S
C3636 C3635 1.400 . S
C3636 C3639 1.386 . S
H3637 C3653 0.930 . S
H3638 C3654 0.931 . S
C3639 H3627 0.929 . S
C3639 C3633 1.390 . S
C3639 C3636 1.386 . S
C3640 C3635 1.490 . S
C3640 C3642 1.395 . S
C3640 C3643 1.403 . S
H3641 C3647 0.930 . S
C3642 H3628 0.930 . S
C3642 C3640 1.395 . S
C3642 C3645 1.403 . S
C3643 C3640 1.403 . S
C3643 C3644 1.524 . S
C3643 C3647 1.400 . S
C3644 H3629 0.960 . S
C3644 H3630 0.960 . S
C3644 H3631 0.960 . S
C3644 C3643 1.524 . S
C3645 C3642 1.403 . S
C3645 C3646 1.392 . S
C3645 C3649 1.495 . S
C3646 C3645 1.392 . S
C3646 C3647 1.385 . S
C3646 C3648 1.478 . S
C3647 H3641 0.930 . S
C3647 C3643 1.400 . S
C3647 C3646 1.385 . S
C3648 C3646 1.478 . S
C3648 C3650 1.381 . S
C3648 C3654 1.383 . S
C3649 C3645 1.495 . S
C3649 H3655 0.959 . S
C3649 H3656 0.961 . S
C3649 H3657 0.960 . S
C3650 C3648 1.381 . S
C3650 C3651 1.394 . S
C3650 H3658 0.930 . S
C3651 C3650 1.394 . S
C3651 C3652 1.383 . S
C3651 H3659 0.929 . S
C3652 C3651 1.383 . S
C3652 C3653 1.377 . S
C3653 H3637 0.930 . S
C3653 C3652 1.377 . S
C3653 C3654 1.379 . S
C3654 H3638 0.931 . S
C3654 C3648 1.383 . S
C3654 C3653 1.379 . S
H3655 C3649 0.959 . S
H3656 C3649 0.961 . S
H3657 C3649 0.960 . S
H3658 C3650 0.930 . S
H3659 C3651 0.929 . S
H3660 C3668 0.929 . S
H3661 C3670 0.930 . S
H3662 C3672 0.930 . S
H3663 C3675 0.929 . S
H3664 C3678 0.930 . S
H3665 C3680 0.960 . S
H3666 C3680 0.960 . S
H3667 C3680 0.960 . S
C3668 H3660 0.929 . S
C3668 C3669 1.377 . S
C3668 C3670 1.384 . S
C3669 C3668 1.377 . S
C3669 C3675 1.390 . S
C3670 H3661 0.930 . S
C3670 C3668 1.384 . S
C3670 C3671 1.372 . S
C3671 C3670 1.372 . S
C3671 C3672 1.400 . S
C3671 C3676 1.490 . S
C3672 H3662 0.930 . S
C3672 C3671 1.400 . S
C3672 C3675 1.386 . S
H3673 C3689 0.930 . S
H3674 C3690 0.931 . S
C3675 H3663 0.929 . S
C3675 C3669 1.390 . S
C3675 C3672 1.386 . S
C3676 C3671 1.490 . S
C3676 C3678 1.395 . S
C3676 C3679 1.403 . S
H3677 C3683 0.930 . S
C3678 H3664 0.930 . S
C3678 C3676 1.395 . S
C3678 C3681 1.403 . S
C3679 C3676 1.403 . S
C3679 C3680 1.524 . S
C3679 C3683 1.400 . S
C3680 H3665 0.960 . S
C3680 H3666 0.960 . S
C3680 H3667 0.960 . S
C3680 C3679 1.524 . S
C3681 C3678 1.403 . S
C3681 C3682 1.392 . S
C3681 C3685 1.495 . S
C3682 C3681 1.392 . S
C3682 C3683 1.385 . S
C3682 C3684 1.478 . S
C3683 H3677 0.930 . S
C3683 C3679 1.400 . S
C3683 C3682 1.385 . S
C3684 C3682 1.478 . S
C3684 C3686 1.381 . S
C3684 C3690 1.383 . S
C3685 C3681 1.495 . S
C3685 H3691 0.959 . S
C3685 H3692 0.961 . S
C3685 H3693 0.960 . S
C3686 C3684 1.381 . S
C3686 C3687 1.394 . S
C3686 H3694 0.930 . S
C3687 C3686 1.394 . S
C3687 C3688 1.383 . S
C3687 H3695 0.929 . S
C3688 C3687 1.383 . S
C3688 C3689 1.377 . S
C3689 H3673 0.930 . S
C3689 C3688 1.377 . S
C3689 C3690 1.379 . S
C3690 H3674 0.931 . S
C3690 C3684 1.383 . S
C3690 C3689 1.379 . S
H3691 C3685 0.959 . S
H3692 C3685 0.961 . S
H3693 C3685 0.960 . S
H3694 C3686 0.930 . S
H3695 C3687 0.929 . S
H3696 C3704 0.929 . S
H3697 C3706 0.930 . S
H3698 C3708 0.930 . S
H3699 C3711 0.929 . S
H3700 C3714 0.930 . S
H3701 C3716 0.960 . S
H3702 C3716 0.960 . S
H3703 C3716 0.960 . S
C3704 H3696 0.929 . S
C3704 C3705 1.377 . S
C3704 C3706 1.384 . S
C3705 C3704 1.377 . S
C3705 C3711 1.390 . S
C3706 H3697 0.930 . S
C3706 C3704 1.384 . S
C3706 C3707 1.372 . S
C3707 C3706 1.372 . S
C3707 C3708 1.400 . S
C3707 C3712 1.490 . S
C3708 H3698 0.930 . S
C3708 C3707 1.400 . S
C3708 C3711 1.386 . S
H3709 C3725 0.930 . S
H3710 C3726 0.931 . S
C3711 H3699 0.929 . S
C3711 C3705 1.390 . S
C3711 C3708 1.386 . S
C3712 C3707 1.490 . S
C3712 C3714 1.395 . S
C3712 C3715 1.403 . S
H3713 C3719 0.930 . S
C3714 H3700 0.930 . S
C3714 C3712 1.395 . S
C3714 C3717 1.403 . S
C3715 C3712 1.403 . S
C3715 C3716 1.524 . S
C3715 C3719 1.400 . S
C3716 H3701 0.960 . S
C3716 H3702 0.960 . S
C3716 H3703 0.960 . S
C3716 C3715 1.524 . S
C3717 C3714 1.403 . S
C3717 C3718 1.392 . S
C3717 C3721 1.495 . S
C3718 C3717 1.392 . S
C3718 C3719 1.385 . S
C3718 C3720 1.478 . S
C3719 H3713 0.930 . S
C3719 C3715 1.400 . S
C3719 C3718 1.385 . S
C3720 C3718 1.478 . S
C3720 C3722 1.381 . S
C3720 C3726 1.383 . S
C3721 C3717 1.495 . S
C3721 H3727 0.959 . S
C3721 H3728 0.961 . S
C3721 H3729 0.960 . S
C3722 C3720 1.381 . S
C3722 C3723 1.394 . S
C3722 H3730 0.930 . S
C3723 C3722 1.394 . S
C3723 C3724 1.383 . S
C3723 H3731 0.929 . S
C3724 C3723 1.383 . S
C3724 C3725 1.377 . S
C3725 H3709 0.930 . S
C3725 C3724 1.377 . S
C3725 C3726 1.379 . S
C3726 H3710 0.931 . S
C3726 C3720 1.383 . S
C3726 C3725 1.379 . S
H3727 C3721 0.959 . S
H3728 C3721 0.961 . S
H3729 C3721 0.960 . S
H3730 C3722 0.930 . S
H3731 C3723 0.929 . S
H3732 C3740 0.929 . S
H3733 C3742 0.930 . S
H3734 C3744 0.930 . S
H3735 C3747 0.929 . S
H3736 C3750 0.930 . S
H3737 C3752 0.960 . S
H3738 C3752 0.960 1_554 S
H3739 C3752 0.960 . S
C3740 H3732 0.929 . S
C3740 C3741 1.377 . S
C3740 C3742 1.384 . S
C3741 C3740 1.377 . S
C3741 C3747 1.390 . S
C3742 H3733 0.930 . S
C3742 C3740 1.384 . S
C3742 C3743 1.372 . S
C3743 C3742 1.372 . S
C3743 C3744 1.400 . S
C3743 C3748 1.490 . S
C3744 H3734 0.930 . S
C3744 C3743 1.400 . S
C3744 C3747 1.386 . S
H3745 C3761 0.930 . S
H3746 C3762 0.931 . S
C3747 H3735 0.929 . S
C3747 C3741 1.390 . S
C3747 C3744 1.386 . S
C3748 C3743 1.490 . S
C3748 C3750 1.395 . S
C3748 C3751 1.403 . S
H3749 C3755 0.930 . S
C3750 H3736 0.930 . S
C3750 C3748 1.395 . S
C3750 C3753 1.403 . S
C3751 C3748 1.403 . S
C3751 C3752 1.524 . S
C3751 C3755 1.400 . S
C3752 H3737 0.960 . S
C3752 H3738 0.960 1_556 S
C3752 H3739 0.960 . S
C3752 C3751 1.524 . S
C3753 C3750 1.403 . S
C3753 C3754 1.392 . S
C3753 C3757 1.495 . S
C3754 C3753 1.392 . S
C3754 C3755 1.385 . S
C3754 C3756 1.478 . S
C3755 H3749 0.930 . S
C3755 C3751 1.400 . S
C3755 C3754 1.385 . S
C3756 C3754 1.478 . S
C3756 C3758 1.381 . S
C3756 C3762 1.383 . S
C3757 C3753 1.495 . S
C3757 H3763 0.959 . S
C3757 H3764 0.961 . S
C3757 H3765 0.960 . S
C3758 C3756 1.381 . S
C3758 C3759 1.394 . S
C3758 H3766 0.930 . S
C3759 C3758 1.394 . S
C3759 C3760 1.383 . S
C3759 H3767 0.929 . S
C3760 C3759 1.383 . S
C3760 C3761 1.377 . S
C3761 H3745 0.930 . S
C3761 C3760 1.377 . S
C3761 C3762 1.379 . S
C3762 H3746 0.931 . S
C3762 C3756 1.383 . S
C3762 C3761 1.379 . S
H3763 C3757 0.959 . S
H3764 C3757 0.961 . S
H3765 C3757 0.960 . S
H3766 C3758 0.930 . S
H3767 C3759 0.929 . S
H3768 C3776 0.929 . S
H3769 C3778 0.930 . S
H3770 C3780 0.930 . S
H3771 C3783 0.929 . S
H3772 C3786 0.930 . S
H3773 C3788 0.960 . S
H3774 C3788 0.960 . S
H3775 C3788 0.960 . S
C3776 H3768 0.929 . S
C3776 C3777 1.377 . S
C3776 C3778 1.384 . S
C3777 C3776 1.377 . S
C3777 C3783 1.390 . S
C3778 H3769 0.930 . S
C3778 C3776 1.384 . S
C3778 C3779 1.372 . S
C3779 C3778 1.372 . S
C3779 C3780 1.400 . S
C3779 C3784 1.490 . S
C3780 H3770 0.930 . S
C3780 C3779 1.400 . S
C3780 C3783 1.386 . S
H3781 C3797 0.930 . S
H3782 C3798 0.931 . S
C3783 H3771 0.929 . S
C3783 C3777 1.390 . S
C3783 C3780 1.386 . S
C3784 C3779 1.490 . S
C3784 C3786 1.395 . S
C3784 C3787 1.403 . S
H3785 C3791 0.930 . S
C3786 H3772 0.930 . S
C3786 C3784 1.395 . S
C3786 C3789 1.403 . S
C3787 C3784 1.403 . S
C3787 C3788 1.524 . S
C3787 C3791 1.400 . S
C3788 H3773 0.960 . S
C3788 H3774 0.960 . S
C3788 H3775 0.960 . S
C3788 C3787 1.524 . S
C3789 C3786 1.403 . S
C3789 C3790 1.392 . S
C3789 C3793 1.495 . S
C3790 C3789 1.392 . S
C3790 C3791 1.385 . S
C3790 C3792 1.478 . S
C3791 H3785 0.930 . S
C3791 C3787 1.400 . S
C3791 C3790 1.385 . S
C3792 C3790 1.478 . S
C3792 C3794 1.381 . S
C3792 C3798 1.383 . S
C3793 C3789 1.495 . S
C3793 H3799 0.959 . S
C3793 H3800 0.961 . S
C3793 H3801 0.960 . S
C3794 C3792 1.381 . S
C3794 C3795 1.394 . S
C3794 H3802 0.930 . S
C3795 C3794 1.394 . S
C3795 C3796 1.383 . S
C3795 H3803 0.929 . S
C3796 C3795 1.383 . S
C3796 C3797 1.377 . S
C3797 H3781 0.930 . S
C3797 C3796 1.377 . S
C3797 C3798 1.379 . S
C3798 H3782 0.931 . S
C3798 C3792 1.383 . S
C3798 C3797 1.379 . S
H3799 C3793 0.959 . S
H3800 C3793 0.961 . S
H3801 C3793 0.960 . S
H3802 C3794 0.930 . S
H3803 C3795 0.929 . S
H3804 C3812 0.929 . S
H3805 C3814 0.930 . S
H3806 C3816 0.930 . S
H3807 C3819 0.929 . S
H3808 C3822 0.930 . S
H3809 C3824 0.960 . S
H3810 C3824 0.960 . S
H3811 C3824 0.960 . S
C3812 H3804 0.929 . S
C3812 C3813 1.377 . S
C3812 C3814 1.384 . S
C3813 C3812 1.377 . S
C3813 C3819 1.390 . S
C3814 H3805 0.930 . S
C3814 C3812 1.384 . S
C3814 C3815 1.372 . S
C3815 C3814 1.372 . S
C3815 C3816 1.400 . S
C3815 C3820 1.490 . S
C3816 H3806 0.930 . S
C3816 C3815 1.400 . S
C3816 C3819 1.386 . S
H3817 C3833 0.930 . S
H3818 C3834 0.931 . S
C3819 H3807 0.929 . S
C3819 C3813 1.390 . S
C3819 C3816 1.386 . S
C3820 C3815 1.490 . S
C3820 C3822 1.395 . S
C3820 C3823 1.403 . S
H3821 C3827 0.930 . S
C3822 H3808 0.930 . S
C3822 C3820 1.395 . S
C3822 C3825 1.403 . S
C3823 C3820 1.403 . S
C3823 C3824 1.524 . S
C3823 C3827 1.400 . S
C3824 H3809 0.960 . S
C3824 H3810 0.960 . S
C3824 H3811 0.960 . S
C3824 C3823 1.524 . S
C3825 C3822 1.403 . S
C3825 C3826 1.392 . S
C3825 C3829 1.495 . S
C3826 C3825 1.392 . S
C3826 C3827 1.385 . S
C3826 C3828 1.478 . S
C3827 H3821 0.930 . S
C3827 C3823 1.400 . S
C3827 C3826 1.385 . S
C3828 C3826 1.478 . S
C3828 C3830 1.381 . S
C3828 C3834 1.383 . S
C3829 C3825 1.495 . S
C3829 H3835 0.959 . S
C3829 H3836 0.961 . S
C3829 H3837 0.960 . S
C3830 C3828 1.381 . S
C3830 C3831 1.394 . S
C3830 H3838 0.930 . S
C3831 C3830 1.394 . S
C3831 C3832 1.383 . S
C3831 H3839 0.929 . S
C3832 C3831 1.383 . S
C3832 C3833 1.377 . S
C3833 H3817 0.930 . S
C3833 C3832 1.377 . S
C3833 C3834 1.379 . S
C3834 H3818 0.931 . S
C3834 C3828 1.383 . S
C3834 C3833 1.379 . S
H3835 C3829 0.959 . S
H3836 C3829 0.961 . S
H3837 C3829 0.960 . S
H3838 C3830 0.930 . S
H3839 C3831 0.929 . S
H3840 C3848 0.929 . S
H3841 C3850 0.930 . S
H3842 C3852 0.930 . S
H3843 C3855 0.929 . S
H3844 C3858 0.930 . S
H3845 C3860 0.960 . S
H3846 C3860 0.960 . S
H3847 C3860 0.960 . S
C3848 H3840 0.929 . S
C3848 C3849 1.377 . S
C3848 C3850 1.384 . S
C3849 C3848 1.377 . S
C3849 C3855 1.390 . S
C3850 H3841 0.930 . S
C3850 C3848 1.384 . S
C3850 C3851 1.372 . S
C3851 C3850 1.372 . S
C3851 C3852 1.400 . S
C3851 C3856 1.490 . S
C3852 H3842 0.930 . S
C3852 C3851 1.400 . S
C3852 C3855 1.386 . S
H3853 C3869 0.930 . S
H3854 C3870 0.931 . S
C3855 H3843 0.929 . S
C3855 C3849 1.390 . S
C3855 C3852 1.386 . S
C3856 C3851 1.490 . S
C3856 C3858 1.395 . S
C3856 C3859 1.403 . S
H3857 C3863 0.930 . S
C3858 H3844 0.930 . S
C3858 C3856 1.395 . S
C3858 C3861 1.403 . S
C3859 C3856 1.403 . S
C3859 C3860 1.524 . S
C3859 C3863 1.400 . S
C3860 H3845 0.960 . S
C3860 H3846 0.960 . S
C3860 H3847 0.960 . S
C3860 C3859 1.524 . S
C3861 C3858 1.403 . S
C3861 C3862 1.392 . S
C3861 C3865 1.495 . S
C3862 C3861 1.392 . S
C3862 C3863 1.385 . S
C3862 C3864 1.478 . S
C3863 H3857 0.930 . S
C3863 C3859 1.400 . S
C3863 C3862 1.385 . S
C3864 C3862 1.478 . S
C3864 C3866 1.381 . S
C3864 C3870 1.383 . S
C3865 C3861 1.495 . S
C3865 H3871 0.959 . S
C3865 H3872 0.961 . S
C3865 H3873 0.960 . S
C3866 C3864 1.381 . S
C3866 C3867 1.394 . S
C3866 H3874 0.930 . S
C3867 C3866 1.394 . S
C3867 C3868 1.383 . S
C3867 H3875 0.929 . S
C3868 C3867 1.383 . S
C3868 C3869 1.377 . S
C3869 H3853 0.930 . S
C3869 C3868 1.377 . S
C3869 C3870 1.379 . S
C3870 H3854 0.931 . S
C3870 C3864 1.383 . S
C3870 C3869 1.379 . S
H3871 C3865 0.959 . S
H3872 C3865 0.961 . S
H3873 C3865 0.960 . S
H3874 C3866 0.930 . S
H3875 C3867 0.929 . S
H3876 C3884 0.929 . S
H3877 C3886 0.930 . S
H3878 C3888 0.930 . S
H3879 C3891 0.929 . S
H3880 C3894 0.930 . S
H3881 C3896 0.960 . S
H3882 C3896 0.960 . S
H3883 C3896 0.960 . S
C3884 H3876 0.929 . S
C3884 C3885 1.377 . S
C3884 C3886 1.384 . S
C3885 C3884 1.377 . S
C3885 C3891 1.390 . S
C3886 H3877 0.930 . S
C3886 C3884 1.384 . S
C3886 C3887 1.372 . S
C3887 C3886 1.372 . S
C3887 C3888 1.400 . S
C3887 C3892 1.490 . S
C3888 H3878 0.930 . S
C3888 C3887 1.400 . S
C3888 C3891 1.386 . S
H3889 C3905 0.930 . S
H3890 C3906 0.931 . S
C3891 H3879 0.929 . S
C3891 C3885 1.390 . S
C3891 C3888 1.386 . S
C3892 C3887 1.490 . S
C3892 C3894 1.395 . S
C3892 C3895 1.403 . S
H3893 C3899 0.930 . S
C3894 H3880 0.930 . S
C3894 C3892 1.395 . S
C3894 C3897 1.403 . S
C3895 C3892 1.403 . S
C3895 C3896 1.524 . S
C3895 C3899 1.400 . S
C3896 H3881 0.960 . S
C3896 H3882 0.960 . S
C3896 H3883 0.960 . S
C3896 C3895 1.524 . S
C3897 C3894 1.403 . S
C3897 C3898 1.392 . S
C3897 C3901 1.495 . S
C3898 C3897 1.392 . S
C3898 C3899 1.385 . S
C3898 C3900 1.478 . S
C3899 H3893 0.930 . S
C3899 C3895 1.400 . S
C3899 C3898 1.385 . S
C3900 C3898 1.478 . S
C3900 C3902 1.381 . S
C3900 C3906 1.383 . S
C3901 C3897 1.495 . S
C3901 H3907 0.959 . S
C3901 H3908 0.961 . S
C3901 H3909 0.960 . S
C3902 C3900 1.381 . S
C3902 C3903 1.394 . S
C3902 H3910 0.930 . S
C3903 C3902 1.394 . S
C3903 C3904 1.383 . S
C3903 H3911 0.929 . S
C3904 C3903 1.383 . S
C3904 C3905 1.377 . S
C3905 H3889 0.930 . S
C3905 C3904 1.377 . S
C3905 C3906 1.379 . S
C3906 H3890 0.931 . S
C3906 C3900 1.383 . S
C3906 C3905 1.379 . S
H3907 C3901 0.959 . S
H3908 C3901 0.961 . S
H3909 C3901 0.960 . S
H3910 C3902 0.930 . S
H3911 C3903 0.929 . S
H3912 C3920 0.929 . S
H3913 C3922 0.930 . S
H3914 C3924 0.930 . S
H3915 C3927 0.929 . S
H3916 C3930 0.930 . S
H3917 C3932 0.960 . S
H3918 C3932 0.960 . S
H3919 C3932 0.960 . S
C3920 H3912 0.929 . S
C3920 C3921 1.377 . S
C3920 C3922 1.384 . S
C3921 C3920 1.377 . S
C3921 C3927 1.390 . S
C3922 H3913 0.930 . S
C3922 C3920 1.384 . S
C3922 C3923 1.372 . S
C3923 C3922 1.372 . S
C3923 C3924 1.400 . S
C3923 C3928 1.490 . S
C3924 H3914 0.930 . S
C3924 C3923 1.400 . S
C3924 C3927 1.386 . S
H3925 C3941 0.930 . S
H3926 C3942 0.931 . S
C3927 H3915 0.929 . S
C3927 C3921 1.390 . S
C3927 C3924 1.386 . S
C3928 C3923 1.490 . S
C3928 C3930 1.395 . S
C3928 C3931 1.403 . S
H3929 C3935 0.930 . S
C3930 H3916 0.930 . S
C3930 C3928 1.395 . S
C3930 C3933 1.403 . S
C3931 C3928 1.403 . S
C3931 C3932 1.524 . S
C3931 C3935 1.400 . S
C3932 H3917 0.960 . S
C3932 H3918 0.960 . S
C3932 H3919 0.960 . S
C3932 C3931 1.524 . S
C3933 C3930 1.403 . S
C3933 C3934 1.392 . S
C3933 C3937 1.495 . S
C3934 C3933 1.392 . S
C3934 C3935 1.385 . S
C3934 C3936 1.478 . S
C3935 H3929 0.930 . S
C3935 C3931 1.400 . S
C3935 C3934 1.385 . S
C3936 C3934 1.478 . S
C3936 C3938 1.381 . S
C3936 C3942 1.383 . S
C3937 C3933 1.495 . S
C3937 H3943 0.959 . S
C3937 H3944 0.961 . S
C3937 H3945 0.960 . S
C3938 C3936 1.381 . S
C3938 C3939 1.394 . S
C3938 H3946 0.930 . S
C3939 C3938 1.394 . S
C3939 C3940 1.383 . S
C3939 H3947 0.929 . S
C3940 C3939 1.383 . S
C3940 C3941 1.377 . S
C3941 H3925 0.930 . S
C3941 C3940 1.377 . S
C3941 C3942 1.379 . S
C3942 H3926 0.931 . S
C3942 C3936 1.383 . S
C3942 C3941 1.379 . S
H3943 C3937 0.959 . S
H3944 C3937 0.961 . S
H3945 C3937 0.960 . S
H3946 C3938 0.930 . S
H3947 C3939 0.929 . S
H3948 C3956 0.929 . S
H3949 C3958 0.930 . S
H3950 C3960 0.930 . S
H3951 C3963 0.929 . S
H3952 C3966 0.930 . S
H3953 C3968 0.960 . S
H3954 C3968 0.960 . S
H3955 C3968 0.960 . S
C3956 H3948 0.929 . S
C3956 C3957 1.377 . S
C3956 C3958 1.384 . S
C3957 C3956 1.377 . S
C3957 C3963 1.390 . S
C3958 H3949 0.930 . S
C3958 C3956 1.384 . S
C3958 C3959 1.372 . S
C3959 C3958 1.372 . S
C3959 C3960 1.400 . S
C3959 C3964 1.490 . S
C3960 H3950 0.930 . S
C3960 C3959 1.400 . S
C3960 C3963 1.386 . S
H3961 C3977 0.930 . S
H3962 C3978 0.931 . S
C3963 H3951 0.929 . S
C3963 C3957 1.390 . S
C3963 C3960 1.386 . S
C3964 C3959 1.490 . S
C3964 C3966 1.395 . S
C3964 C3967 1.403 . S
H3965 C3971 0.930 . S
C3966 H3952 0.930 . S
C3966 C3964 1.395 . S
C3966 C3969 1.403 . S
C3967 C3964 1.403 . S
C3967 C3968 1.524 . S
C3967 C3971 1.400 . S
C3968 H3953 0.960 . S
C3968 H3954 0.960 . S
C3968 H3955 0.960 . S
C3968 C3967 1.524 . S
C3969 C3966 1.403 . S
C3969 C3970 1.392 . S
C3969 C3973 1.495 . S
C3970 C3969 1.392 . S
C3970 C3971 1.385 . S
C3970 C3972 1.478 . S
C3971 H3965 0.930 . S
C3971 C3967 1.400 . S
C3971 C3970 1.385 . S
C3972 C3970 1.478 . S
C3972 C3974 1.381 . S
C3972 C3978 1.383 . S
C3973 C3969 1.495 . S
C3973 H3979 0.959 . S
C3973 H3980 0.961 . S
C3973 H3981 0.960 . S
C3974 C3972 1.381 . S
C3974 C3975 1.394 . S
C3974 H3982 0.930 . S
C3975 C3974 1.394 . S
C3975 C3976 1.383 . S
C3975 H3983 0.929 . S
C3976 C3975 1.383 . S
C3976 C3977 1.377 . S
C3977 H3961 0.930 . S
C3977 C3976 1.377 . S
C3977 C3978 1.379 . S
C3978 H3962 0.931 . S
C3978 C3972 1.383 . S
C3978 C3977 1.379 . S
H3979 C3973 0.959 . S
H3980 C3973 0.961 . S
H3981 C3973 0.960 . S
H3982 C3974 0.930 . S
H3983 C3975 0.929 . S
H3984 C3992 0.929 . S
H3985 C3994 0.930 . S
H3986 C3996 0.930 . S
H3987 C3999 0.929 . S
H3988 C4002 0.930 . S
H3989 C4004 0.960 . S
H3990 C4004 0.960 . S
H3991 C4004 0.960 . S
C3992 H3984 0.929 . S
C3992 C3993 1.377 . S
C3992 C3994 1.384 . S
C3993 C3992 1.377 . S
C3993 C3999 1.390 . S
C3994 H3985 0.930 . S
C3994 C3992 1.384 . S
C3994 C3995 1.372 . S
C3995 C3994 1.372 . S
C3995 C3996 1.400 . S
C3995 C4000 1.490 . S
C3996 H3986 0.930 . S
C3996 C3995 1.400 . S
C3996 C3999 1.386 . S
H3997 C4013 0.930 . S
H3998 C4014 0.931 . S
C3999 H3987 0.929 . S
C3999 C3993 1.390 . S
C3999 C3996 1.386 . S
C4000 C3995 1.490 . S
C4000 C4002 1.395 . S
C4000 C4003 1.403 . S
H4001 C4007 0.930 . S
C4002 H3988 0.930 . S
C4002 C4000 1.395 . S
C4002 C4005 1.403 . S
C4003 C4000 1.403 . S
C4003 C4004 1.524 . S
C4003 C4007 1.400 . S
C4004 H3989 0.960 . S
C4004 H3990 0.960 . S
C4004 H3991 0.960 . S
C4004 C4003 1.524 . S
C4005 C4002 1.403 . S
C4005 C4006 1.392 . S
C4005 C4009 1.495 . S
C4006 C4005 1.392 . S
C4006 C4007 1.385 . S
C4006 C4008 1.478 . S
C4007 H4001 0.930 . S
C4007 C4003 1.400 . S
C4007 C4006 1.385 . S
C4008 C4006 1.478 . S
C4008 C4010 1.381 . S
C4008 C4014 1.383 . S
C4009 C4005 1.495 . S
C4009 H4015 0.959 . S
C4009 H4016 0.961 . S
C4009 H4017 0.960 . S
C4010 C4008 1.381 . S
C4010 C4011 1.394 . S
C4010 H4018 0.930 . S
C4011 C4010 1.394 . S
C4011 C4012 1.383 . S
C4011 H4019 0.929 . S
C4012 C4011 1.383 . S
C4012 C4013 1.377 . S
C4013 H3997 0.930 . S
C4013 C4012 1.377 . S
C4013 C4014 1.379 . S
C4014 H3998 0.931 . S
C4014 C4008 1.383 . S
C4014 C4013 1.379 . S
H4015 C4009 0.959 . S
H4016 C4009 0.961 . S
H4017 C4009 0.960 . S
H4018 C4010 0.930 . S
H4019 C4011 0.929 . S
H4020 C4028 0.929 . S
H4021 C4030 0.930 . S
H4022 C4032 0.930 . S
H4023 C4035 0.929 . S
H4024 C4038 0.930 . S
H4025 C4040 0.960 . S
H4026 C4040 0.960 1_554 S
H4027 C4040 0.960 . S
C4028 H4020 0.929 . S
C4028 C4029 1.377 . S
C4028 C4030 1.384 . S
C4029 C4028 1.377 . S
C4029 C4035 1.390 . S
C4030 H4021 0.930 . S
C4030 C4028 1.384 . S
C4030 C4031 1.372 . S
C4031 C4030 1.372 . S
C4031 C4032 1.400 . S
C4031 C4036 1.490 . S
C4032 H4022 0.930 . S
C4032 C4031 1.400 . S
C4032 C4035 1.386 . S
H4033 C4049 0.930 . S
H4034 C4050 0.931 . S
C4035 H4023 0.929 . S
C4035 C4029 1.390 . S
C4035 C4032 1.386 . S
C4036 C4031 1.490 . S
C4036 C4038 1.395 . S
C4036 C4039 1.403 . S
H4037 C4043 0.930 . S
C4038 H4024 0.930 . S
C4038 C4036 1.395 . S
C4038 C4041 1.403 . S
C4039 C4036 1.403 . S
C4039 C4040 1.524 . S
C4039 C4043 1.400 . S
C4040 H4025 0.960 . S
C4040 H4026 0.960 1_556 S
C4040 H4027 0.960 . S
C4040 C4039 1.524 . S
C4041 C4038 1.403 . S
C4041 C4042 1.392 . S
C4041 C4045 1.495 . S
C4042 C4041 1.392 . S
C4042 C4043 1.385 . S
C4042 C4044 1.478 . S
C4043 H4037 0.930 . S
C4043 C4039 1.400 . S
C4043 C4042 1.385 . S
C4044 C4042 1.478 . S
C4044 C4046 1.381 . S
C4044 C4050 1.383 . S
C4045 C4041 1.495 . S
C4045 H4051 0.959 . S
C4045 H4052 0.961 . S
C4045 H4053 0.960 . S
C4046 C4044 1.381 . S
C4046 C4047 1.394 . S
C4046 H4054 0.930 . S
C4047 C4046 1.394 . S
C4047 C4048 1.383 . S
C4047 H4055 0.929 . S
C4048 C4047 1.383 . S
C4048 C4049 1.377 . S
C4049 H4033 0.930 . S
C4049 C4048 1.377 . S
C4049 C4050 1.379 . S
C4050 H4034 0.931 . S
C4050 C4044 1.383 . S
C4050 C4049 1.379 . S
H4051 C4045 0.959 . S
H4052 C4045 0.961 . S
H4053 C4045 0.960 . S
H4054 C4046 0.930 . S
H4055 C4047 0.929 . S
H4056 C4064 0.929 . S
H4057 C4066 0.930 . S
H4058 C4068 0.930 . S
H4059 C4071 0.929 1_545 S
H4060 C4074 0.930 . S
H4061 C4076 0.960 1_545 S
H4062 C4076 0.960 . S
H4063 C4076 0.960 1_545 S
C4064 H4056 0.929 . S
C4064 C4065 1.377 . S
C4064 C4066 1.384 . S
C4065 C4064 1.377 . S
C4065 C4071 1.390 . S
C4066 H4057 0.930 . S
C4066 C4064 1.384 . S
C4066 C4067 1.372 . S
C4067 C4066 1.372 . S
C4067 C4068 1.400 . S
C4067 C4072 1.490 . S
C4068 H4058 0.930 . S
C4068 C4067 1.400 . S
C4068 C4071 1.386 . S
H4069 C4085 0.930 . S
H4070 C4086 0.931 . S
C4071 H4059 0.929 1_565 S
C4071 C4065 1.390 . S
C4071 C4068 1.386 . S
C4072 C4067 1.490 . S
C4072 C4074 1.395 . S
C4072 C4075 1.403 . S
H4073 C4079 0.930 . S
C4074 H4060 0.930 . S
C4074 C4072 1.395 . S
C4074 C4077 1.403 . S
C4075 C4072 1.403 . S
C4075 C4076 1.524 . S
C4075 C4079 1.400 . S
C4076 H4061 0.960 1_565 S
C4076 H4062 0.960 . S
C4076 H4063 0.960 1_565 S
C4076 C4075 1.524 . S
C4077 C4074 1.403 . S
C4077 C4078 1.392 . S
C4077 C4081 1.495 . S
C4078 C4077 1.392 . S
C4078 C4079 1.385 . S
C4078 C4080 1.478 . S
C4079 H4073 0.930 . S
C4079 C4075 1.400 . S
C4079 C4078 1.385 . S
C4080 C4078 1.478 . S
C4080 C4082 1.381 . S
C4080 C4086 1.383 . S
C4081 C4077 1.495 . S
C4081 H4087 0.959 . S
C4081 H4088 0.961 . S
C4081 H4089 0.960 . S
C4082 C4080 1.381 . S
C4082 C4083 1.394 . S
C4082 H4090 0.930 . S
C4083 C4082 1.394 . S
C4083 C4084 1.383 . S
C4083 H4091 0.929 . S
C4084 C4083 1.383 . S
C4084 C4085 1.377 . S
C4085 H4069 0.930 . S
C4085 C4084 1.377 . S
C4085 C4086 1.379 . S
C4086 H4070 0.931 . S
C4086 C4080 1.383 . S
C4086 C4085 1.379 . S
H4087 C4081 0.959 . S
H4088 C4081 0.961 . S
H4089 C4081 0.960 . S
H4090 C4082 0.930 . S
H4091 C4083 0.929 . S
H4092 C4100 0.929 . S
H4093 C4102 0.930 . S
H4094 C4104 0.930 . S
H4095 C4107 0.929 . S
H4096 C4110 0.930 . S
H4097 C4112 0.960 . S
H4098 C4112 0.960 . S
H4099 C4112 0.960 . S
C4100 H4092 0.929 . S
C4100 C4101 1.377 . S
C4100 C4102 1.384 . S
C4101 C4100 1.377 . S
C4101 C4107 1.390 . S
C4102 H4093 0.930 . S
C4102 C4100 1.384 . S
C4102 C4103 1.372 . S
C4103 C4102 1.372 . S
C4103 C4104 1.400 . S
C4103 C4108 1.490 . S
C4104 H4094 0.930 . S
C4104 C4103 1.400 . S
C4104 C4107 1.386 . S
H4105 C4121 0.930 . S
H4106 C4122 0.931 . S
C4107 H4095 0.929 . S
C4107 C4101 1.390 . S
C4107 C4104 1.386 . S
C4108 C4103 1.490 . S
C4108 C4110 1.395 . S
C4108 C4111 1.403 . S
H4109 C4115 0.930 . S
C4110 H4096 0.930 . S
C4110 C4108 1.395 . S
C4110 C4113 1.403 . S
C4111 C4108 1.403 . S
C4111 C4112 1.524 . S
C4111 C4115 1.400 1_455 S
C4112 H4097 0.960 . S
C4112 H4098 0.960 . S
C4112 H4099 0.960 . S
C4112 C4111 1.524 . S
C4113 C4110 1.403 . S
C4113 C4114 1.392 1_455 S
C4113 C4117 1.495 . S
C4114 C4113 1.392 1_655 S
C4114 C4115 1.385 . S
C4114 C4116 1.478 . S
C4115 H4109 0.930 . S
C4115 C4111 1.400 1_655 S
C4115 C4114 1.385 . S
C4116 C4114 1.478 . S
C4116 C4118 1.381 . S
C4116 C4122 1.383 . S
C4117 C4113 1.495 . S
C4117 H4123 0.959 . S
C4117 H4124 0.961 . S
C4117 H4125 0.960 1_455 S
C4118 C4116 1.381 . S
C4118 C4119 1.394 . S
C4118 H4126 0.930 . S
C4119 C4118 1.394 . S
C4119 C4120 1.383 . S
C4119 H4127 0.929 . S
C4120 C4119 1.383 . S
C4120 C4121 1.377 . S
C4121 H4105 0.930 . S
C4121 C4120 1.377 . S
C4121 C4122 1.379 . S
C4122 H4106 0.931 . S
C4122 C4116 1.383 . S
C4122 C4121 1.379 . S
H4123 C4117 0.959 . S
H4124 C4117 0.961 . S
H4125 C4117 0.960 1_655 S
H4126 C4118 0.930 . S
H4127 C4119 0.929 . S
C700 C354 0.829 . S
C681 C11 0.852 . S
C717 C14 1.367 . S
C736 C374 1.412 . S
C772 C394 0.920 . S
C753 C37 1.040 . S
C808 C413 1.383 . S
C789 C47 1.350 . S
C844 C371 1.218 . S
C825 C61 1.220 . S
C861 C79 1.055 . S
C880 C396 0.985 . S
C916 C416 1.267 . S
C897 C84 1.234 . S
C933 C109 1.014 . S
C952 C352 0.919 . S
C969 C123 1.325 . S
C988 C349 1.196 . S
C1024 C372 1.037 . S
C1005 C131 1.089 . S
C1060 C395 1.340 . S
C1041 C140 1.284 . S
C1096 C417 1.241 . S
C1077 C163 1.291 . S
C1132 C375 0.838 . S
C1113 C121 0.802 . S
C1168 C391 0.905 . S
C1149 C126 1.016 . S
C1185 C145 0.932 . S
C1204 C414 0.892 . S
C1240 C353 0.689 . S
C1221 C165 0.701 . S
C1257 C168 1.188 . S
C1276 C350 1.220 . S
C1293 C193 0.688 . S
C1312 C433 0.714 . S
C1348 C455 1.255 . S
C1329 C205 1.220 . S
C1384 C478 1.045 . S
C1365 C215 1.142 . S
C1401 C224 1.262 . S
C1420 C351 1.268 . S
C1437 C247 1.333 . S
C1456 C393 1.315 . S
C1492 C475 1.121 . S
C1473 C207 1.200 . S
C1528 C436 0.741 . S
C1509 C257 0.827 . S
C1564 C501 0.823 . S
C1545 C23 0.854 . S
C1600 C521 1.454 . S
C1581 C0 1.462 . S
C1617 C53 0.832 . S
C1636 C543 0.872 . S
C1653 C33 1.065 . S
C1672 C560 1.068 . S
C1689 C103 1.640 1_655 S
C1708 C518 1.618 . S
C1725 C95 0.938 . S
C1744 C541 0.790 . S
C1780 C563 1.115 . S
C1761 C70 1.060 . S
C1797 C65 1.167 . S
C1816 C499 0.993 . S
C1833 C271 0.976 . S
C1852 C496 0.835 . S
C1888 C519 1.338 . S
C1869 C219 1.409 . S
C1924 C538 1.057 . S
C1905 C235 1.192 . S
C1960 C564 1.065 . S
C1941 C182 1.136 . S
C1996 C522 0.868 . S
C1977 C266 0.834 . S
C2032 C542 0.695 . S
C2013 C221 0.697 . S
C2068 C561 0.637 . S
C2049 C233 0.687 . S
C2085 C187 1.251 . S
C2104 C500 1.274 . S
C2140 C497 1.267 . S
C2121 C289 1.239 . S
C2157 C154 1.092 . S
C2176 C580 1.017 . S
C2212 C603 1.197 . S
C2193 C299 1.232 . S
C2229 C137 1.127 . S
C2248 C625 0.994 . S
C2284 C498 1.199 . S
C2265 C149 1.233 . S
C2320 C539 1.228 . S
C2301 C313 1.245 . S
C2356 C622 0.897 . S
C2337 C294 0.889 . S
C2373 C333 0.703 . S
C2392 C583 0.679 . S
C2409 C39 0.851 . S
C2428 C648 0.835 . S
C2445 C42 1.367 . S
C2464 C437 1.410 . S
C2500 C457 0.937 . S
C2481 C9 1.044 1_655 S
C2517 C19 1.350 . S
C2536 C476 1.383 . S
C2553 C89 1.222 . S
C2572 C434 1.218 . S
C2589 C107 1.054 1_655 S
C2608 C459 1.050 . S
C2644 C479 1.245 . S
C2625 C56 1.229 . S
C2680 C646 1.018 . S
C2661 C81 1.030 . S
C2716 C643 1.284 . S
C2697 C305 1.337 . S
C2752 C435 1.040 . S
C2733 C285 1.084 . S
C2788 C458 1.341 . S
C2769 C322 1.285 . S
C2805 C317 1.303 . S
C2824 C480 1.295 . S
C2860 C438 0.803 . S
C2841 C303 0.785 . S
C2877 C280 1.032 . S
C2896 C454 1.017 . S
C2932 C477 0.846 . S
C2913 C327 0.926 . S
C2949 C319 0.687 . S
C2968 C647 0.670 . S
C3004 C644 1.218 . S
C2985 C210 1.186 . S
C3021 C249 0.689 . S
C3040 C370 0.787 . S
C3076 C392 1.242 . S
C3057 C275 1.215 . S
C3093 C173 1.134 . S
C3112 C415 0.954 . S
C3148 C645 1.197 . S
C3129 C252 1.250 . S
C3184 C456 1.258 . S
C3165 C191 1.325 . S
C3220 C412 1.078 . S
C3201 C277 1.193 . S
C3256 C373 0.719 . S
C3237 C229 0.823 . S
C3273 C51 0.842 . S
C3292 C669 0.871 . S
C3309 C28 1.463 . S
C3328 C584 1.473 . S
C3345 C25 0.824 . S
C3364 C606 0.832 . S
C3400 C623 1.090 . S
C3381 C5 1.052 . S
C3436 C581 1.626 . S
C3417 C75 1.634 . S
C3453 C67 0.939 . S
C3472 C604 0.788 . S
C3508 C626 1.047 . S
C3489 C98 1.057 . S
C3525 C93 1.158 . S
C3544 C667 1.093 . S
C3580 C664 0.946 . S
C3561 C201 0.976 . S
C3597 C177 1.403 . S
C3616 C582 1.308 . S
C3633 C263 1.184 . S
C3652 C601 1.089 . S
C3688 C627 1.144 . S
C3669 C238 1.143 . S
C3724 C585 0.752 . S
C3705 C196 0.816 . S
C3741 C179 0.701 . S
C3760 C605 0.729 . S
C3796 C624 0.766 . S
C3777 C261 0.711 . S
C3832 C668 1.262 . S
C3813 C243 1.258 . S
C3868 C665 1.251 . S
C3849 C135 1.241 . S
C3904 C517 1.029 . S
C3885 C308 1.091 . S
C3921 C117 1.230 . S
C3940 C540 1.162 . S
C3957 C291 1.116 . S
C3976 C562 1.009 . S
C4012 C666 1.153 . S
C3993 C331 1.226 . S
C4048 C602 1.227 . S
C4029 C159 1.245 . S
C4084 C559 0.782 . S
C4065 C112 0.874 . S
C4120 C520 0.785 . S
C4101 C151 0.707 . S
