# Generated by pormake.
# Topology zzz, (3,6)-cn, num edge types: 1
# Building blocks:
#     Node 0, Type 0, BuildingBlock: OLANEW_clean_sbu_2, # of connection points: 3
#     Node 1, Type 0, BuildingBlock: OLANEW_clean_sbu_2, # of connection points: 3
#     Node 2, Type 0, BuildingBlock: OLANEW_clean_sbu_2, # of connection points: 3
#     Node 3, Type 0, BuildingBlock: OLANEW_clean_sbu_2, # of connection points: 3
#     Node 4, Type 0, BuildingBlock: OLANEW_clean_sbu_2, # of connection points: 3
#     Node 5, Type 0, BuildingBlock: OLANEW_clean_sbu_2, # of connection points: 3
#     Node 6, Type 0, BuildingBlock: OLANEW_clean_sbu_2, # of connection points: 3
#     Node 7, Type 0, BuildingBlock: OLANEW_clean_sbu_2, # of connection points: 3
#     Node 8, Type 1, BuildingBlock: KUMBUR_clean_sbu_1, # of connection points: 6
#     Node 9, Type 1, BuildingBlock: KUMBUR_clean_sbu_1, # of connection points: 6
#     Node 10, Type 1, BuildingBlock: KUMBUR_clean_sbu_1, # of connection points: 6
#     Node 11, Type 1, BuildingBlock: KUMBUR_clean_sbu_1, # of connection points: 6
#     Edge 12, Type (0, 1), BuildingBlock: ZUJKAS_clean_linker_0, # of connection points: 2
#     Edge 13, Type (0, 1), BuildingBlock: ZUJKAS_clean_linker_0, # of connection points: 2
#     Edge 14, Type (0, 1), BuildingBlock: ZUJKAS_clean_linker_0, # of connection points: 2
#     Edge 15, Type (0, 1), BuildingBlock: ZUJKAS_clean_linker_0, # of connection points: 2
#     Edge 16, Type (0, 1), BuildingBlock: ZUJKAS_clean_linker_0, # of connection points: 2
#     Edge 17, Type (0, 1), BuildingBlock: ZUJKAS_clean_linker_0, # of connection points: 2
#     Edge 18, Type (0, 1), BuildingBlock: ZUJKAS_clean_linker_0, # of connection points: 2
#     Edge 19, Type (0, 1), BuildingBlock: ZUJKAS_clean_linker_0, # of connection points: 2
#     Edge 20, Type (0, 1), BuildingBlock: ZUJKAS_clean_linker_0, # of connection points: 2
#     Edge 21, Type (0, 1), BuildingBlock: ZUJKAS_clean_linker_0, # of connection points: 2
#     Edge 22, Type (0, 1), BuildingBlock: ZUJKAS_clean_linker_0, # of connection points: 2
#     Edge 23, Type (0, 1), BuildingBlock: ZUJKAS_clean_linker_0, # of connection points: 2
#     Edge 24, Type (0, 1), BuildingBlock: ZUJKAS_clean_linker_0, # of connection points: 2
#     Edge 25, Type (0, 1), BuildingBlock: ZUJKAS_clean_linker_0, # of connection points: 2
#     Edge 26, Type (0, 1), BuildingBlock: ZUJKAS_clean_linker_0, # of connection points: 2
#     Edge 27, Type (0, 1), BuildingBlock: ZUJKAS_clean_linker_0, # of connection points: 2
#     Edge 28, Type (0, 1), BuildingBlock: ZUJKAS_clean_linker_0, # of connection points: 2
#     Edge 29, Type (0, 1), BuildingBlock: ZUJKAS_clean_linker_0, # of connection points: 2
#     Edge 30, Type (0, 1), BuildingBlock: ZUJKAS_clean_linker_0, # of connection points: 2
#     Edge 31, Type (0, 1), BuildingBlock: ZUJKAS_clean_linker_0, # of connection points: 2
#     Edge 32, Type (0, 1), BuildingBlock: ZUJKAS_clean_linker_0, # of connection points: 2
#     Edge 33, Type (0, 1), BuildingBlock: ZUJKAS_clean_linker_0, # of connection points: 2
#     Edge 34, Type (0, 1), BuildingBlock: ZUJKAS_clean_linker_0, # of connection points: 2
#     Edge 35, Type (0, 1), BuildingBlock: ZUJKAS_clean_linker_0, # of connection points: 2
# Relax obj value: 0.130
# Max RMSD: 0.093
# Mean RMSD: 0.083
data_MOF--net-zzz--node1-OLANEW_clean_sbu_2--node2-KUMBUR_clean_sbu_1--edge1-ZUJKAS_clean_linker_0
_symmetry_space_group_name_H-M    P1
_symmetry_Int_Tables_number       1
_symmetry_cell_setting            triclinic
loop_
_symmetry_equiv_pos_as_xyz
'x, y, z'
_cell_length_a     68.564365
_cell_length_b     68.711923
_cell_length_c     22.68539
_cell_angle_alpha  90.140385
_cell_angle_beta   90.006769
_cell_angle_gamma 90.42519
loop_
_atom_site_label
_atom_site_type_symbol
_atom_site_fract_x
_atom_site_fract_y
_atom_site_fract_z
_atom_type_partial_charge
O0 O 0.75396 0.56239 0.1149 0.0
Cd1 Cd 0.72196 0.57188 0.15279 0.0
O2 O 0.75902 0.54326 0.19042 0.0
Cd3 Cd 0.77318 0.52148 0.24644 0.0
O4 O 0.76807 0.49472 0.30435 0.0
C5 C 0.77653 0.48923 0.35187 0.0
O6 O 0.76761 0.49434 0.30375 0.0
C7 C 0.76468 0.55014 0.14123 0.0
C8 C 0.69204 0.56331 0.07248 0.0
O9 O 0.70096 0.57977 0.07154 0.0
O10 O 0.69727 0.55089 0.11136 0.0
O11 O 0.93829 0.76481 0.10585 0.0
Cd12 Cd 0.92531 0.73469 0.14797 0.0
O13 O 0.9608 0.76399 0.17377 0.0
Cd14 Cd 0.98648 0.77105 0.2272 0.0
O15 O 0.00808 0.76055 0.29633 0.0
C16 C 0.01024 0.76836 0.34718 0.0
O17 O 0.00861 0.75985 0.29595 0.0
C18 C 0.95366 0.77212 0.12841 0.0
C19 C 0.9368 0.70289 0.07971 0.0
O20 O 0.92047 0.71133 0.07059 0.0
O21 O 0.94762 0.70935 0.12159 0.0
O22 O 0.76565 0.92354 0.08238 0.0
Cd23 Cd 0.79792 0.91696 0.12256 0.0
O24 O 0.76093 0.94371 0.15589 0.0
Cd25 Cd 0.74429 0.96567 0.2037 0.0
O26 O 0.72061 0.97964 0.25131 0.0
C27 C 0.70704 0.98814 0.22347 0.0
O28 O 0.70815 0.98953 0.16582 0.0
C29 C 0.75471 0.9355 0.10912 0.0
C30 C 0.82661 0.92881 0.04332 0.0
O31 O 0.81986 0.91137 0.04249 0.0
O32 O 0.81992 0.9406 0.08212 0.0
O33 O 0.59784 0.76418 0.02002 0.0
Cd34 Cd 0.61417 0.79302 0.06008 0.0
O35 O 0.57807 0.76617 0.09558 0.0
Cd36 Cd 0.55641 0.75295 0.15355 0.0
O37 O 0.54292 0.72833 0.19803 0.0
C38 C 0.55012 0.7118 0.18611 0.0
O39 O 0.56468 0.71081 0.1486 0.0
C40 C 0.58333 0.75754 0.04857 0.0
C41 C 0.59914 0.82683 0.01112 0.0
O42 O 0.61416 0.81859 0.9889 0.0
O43 O 0.59131 0.81913 0.05685 0.0
O44 O 0.25774 0.47699 0.14233 0.0
Cd45 Cd 0.28366 0.47484 0.06874 0.0
O46 O 0.23188 0.47853 0.08439 0.0
Cd47 Cd 0.24382 0.47753 0.99515 0.0
O48 O 0.2287 0.48315 0.91183 0.0
C49 C 0.21713 0.47015 0.89193 0.0
O50 O 0.21649 0.45315 0.91827 0.0
C51 C 0.23938 0.47828 0.13567 0.0
C52 C 0.31926 0.48 0.12734 0.0
O53 O 0.30997 0.49453 0.1063 0.0
O54 O 0.312 0.46296 0.11925 0.0
O55 O 0.05719 0.27648 0.1515 0.0
Cd56 Cd 0.06584 0.30538 0.09453 0.0
O57 O 0.05847 0.26025 0.06879 0.0
Cd58 Cd 0.05816 0.23527 0.00934 0.0
O59 O 0.05678 0.21226 0.94335 0.0
C60 C 0.04145 0.21019 0.91241 0.0
O61 O 0.02675 0.22201 0.92115 0.0
C62 C 0.05538 0.26044 0.12409 0.0
C63 C 0.05519 0.33887 0.15526 0.0
O64 O 0.04333 0.33057 0.1193 0.0
O65 O 0.07214 0.33143 0.16181 0.0
O66 O 0.24635 0.03582 0.08056 0.0
Cd67 Cd 0.21655 0.04292 0.02639 0.0
O68 O 0.2557 0.06571 0.06241 0.0
Cd69 Cd 0.27837 0.08765 0.04946 0.0
O70 O 0.30312 0.09086 0.99051 0.0
C71 C 0.30533 0.07579 0.95872 0.0
O72 O 0.29315 0.06111 0.96554 0.0
C73 C 0.2592 0.04914 0.08474 0.0
C74 C 0.18409 0.0335 0.09383 0.0
O75 O 0.19179 0.02091 0.05936 0.0
O76 O 0.19165 0.05061 0.09574 0.0
O77 O 0.4688 0.2492 0.14512 0.0
Cd78 Cd 0.45856 0.22147 0.08527 0.0
O79 O 0.44705 0.26655 0.09895 0.0
Cd80 Cd 0.43432 0.29379 0.06979 0.0
O81 O 0.43398 0.31935 0.01389 0.0
C82 C 0.43881 0.31657 0.9605 0.0
O83 O 0.44257 0.29876 0.94282 0.0
C84 C 0.46048 0.26543 0.13739 0.0
C85 C 0.46454 0.18773 0.14949 0.0
O86 O 0.47779 0.19439 0.11499 0.0
O87 O 0.44831 0.19682 0.15237 0.0
Tb88 Tb 0.9832 0.01156 0.52688 0.0
C89 C 0.04286 0.0182 0.71917 0.0
N90 N 0.04612 0.00872 0.66764 0.0
C91 C 0.07721 0.02456 0.65788 0.0
C92 C 0.05669 0.03147 0.74198 0.0
C93 C 0.06316 0.01133 0.63737 0.0
C94 C 0.07395 0.03472 0.71035 0.0
C95 C 0.02208 0.02347 0.80392 0.0
C96 C 0.02571 0.01427 0.74937 0.0
C97 C 0.03568 0.03695 0.82652 0.0
C98 C 0.05302 0.04078 0.79591 0.0
Tb99 Tb 0.02291 0.98686 0.63947 0.0
N100 N 0.01324 0.00057 0.72719 0.0
C101 C 0.00539 0.01815 0.83556 0.0
C102 C 0.99823 0.99384 0.76148 0.0
C103 C 0.99362 0.00299 0.81476 0.0
H104 H 0.06581 0.00332 0.59713 0.0
H105 H 0.98138 0.99787 0.84073 0.0
H106 H 0.94878 0.02924 0.6129 0.0
H107 H 0.97758 0.97618 0.31477 0.0
H108 H 0.99021 0.98088 0.74987 0.0
H109 H 0.00206 0.0249 0.87754 0.0
H110 H 0.99377 0.99582 0.39268 0.0
H111 H 0.0906 0.02681 0.63346 0.0
H112 H 0.03316 0.04409 0.86845 0.0
H113 H 0.06363 0.05076 0.81475 0.0
H114 H 0.91351 0.02344 0.63004 0.0
H115 H 0.08491 0.04487 0.72635 0.0
H116 H 0.94343 0.96501 0.32826 0.0
N117 N 0.95042 0.00904 0.54213 0.0
C118 C 0.94046 0.99723 0.50475 0.0
C119 C 0.92094 0.01586 0.59482 0.0
C120 C 0.92034 0.99371 0.51182 0.0
C121 C 0.94089 0.01905 0.58525 0.0
C122 C 0.91067 0.00288 0.55851 0.0
N123 N 0.96927 0.99492 0.45016 0.0
C124 C 0.97887 0.99097 0.39868 0.0
C125 C 0.94033 0.97896 0.41344 0.0
C126 C 0.95024 0.98997 0.45659 0.0
C127 C 0.9505 0.97352 0.36253 0.0
C128 C 0.96976 0.97984 0.35468 0.0
H129 H 0.89521 0.00055 0.56567 0.0
H130 H 0.89506 0.97872 0.47575 0.0
H131 H 0.9126 0.9658 0.38936 0.0
O132 O 0.99934 0.03502 0.49198 0.0
O133 O 0.98839 0.9807 0.50842 0.0
O134 O 0.00912 0.96636 0.57865 0.0
O135 O 0.96799 0.03454 0.48734 0.0
O136 O 0.01199 0.00555 0.48941 0.0
O137 O 0.0343 0.98916 0.5505 0.0
O138 O 0.0296 0.9675 0.70837 0.0
O139 O 0.02383 0.01721 0.60907 0.0
O140 O 0.9917 0.02424 0.61093 0.0
O141 O 0.04784 0.96939 0.63221 0.0
O142 O 0.99234 0.97745 0.64586 0.0
O143 O 0.97804 0.00589 0.62 0.0
C144 C 0.99777 0.9659 0.53162 0.0
C145 C 0.98345 0.06512 0.49848 0.0
C146 C 0.99156 0.0993 0.48092 0.0
C147 C 0.98386 0.10397 0.53666 0.0
C148 C 0.97561 0.07011 0.55352 0.0
C149 C 0.97591 0.08944 0.57253 0.0
C150 C 0.99138 0.07972 0.46238 0.0
C151 C 0.02896 0.99724 0.50034 0.0
C152 C 0.98377 0.04476 0.47846 0.0
C153 C 0.9105 0.9818 0.47084 0.0
C154 C 0.92049 0.97444 0.42165 0.0
C155 C 0.00981 0.02957 0.61927 0.0
C156 C 0.04271 0.93804 0.67281 0.0
C157 C 0.03415 0.90619 0.71391 0.0
C158 C 0.03889 0.89751 0.65957 0.0
C159 C 0.04744 0.92897 0.61904 0.0
C160 C 0.03625 0.92649 0.72021 0.0
C161 C 0.0455 0.90886 0.61263 0.0
C162 C 0.97667 0.98817 0.64056 0.0
C163 C 0.04372 0.95948 0.67923 0.0
H164 H 0.98362 0.11889 0.55209 0.0
H165 H 0.96937 0.05904 0.58187 0.0
H166 H 0.96991 0.0932 0.61515 0.0
H167 H 0.99757 0.07577 0.42007 0.0
H168 H 0.03766 0.88192 0.65346 0.0
H169 H 0.05248 0.93739 0.58167 0.0
H170 H 0.03235 0.93341 0.76152 0.0
H171 H 0.04908 0.90203 0.57098 0.0
Tb172 Tb 0.51328 0.01829 0.68326 0.0
C173 C 0.48192 0.94207 0.6135 0.0
N174 N 0.49266 0.95135 0.57187 0.0
C175 C 0.51124 0.92236 0.55542 0.0
C176 C 0.48597 0.92274 0.62976 0.0
C177 C 0.50677 0.94163 0.54118 0.0
C178 C 0.50101 0.91297 0.60057 0.0
C179 C 0.4543 0.94251 0.67961 0.0
C180 C 0.46657 0.95198 0.63861 0.0
C181 C 0.4588 0.9236 0.69847 0.0
C182 C 0.47465 0.91373 0.67365 0.0
Tb183 Tb 0.48571 0.98343 0.55592 0.0
N184 N 0.46268 0.97021 0.61887 0.0
C185 C 0.43735 0.95194 0.69799 0.0
C186 C 0.44483 0.97817 0.63079 0.0
C187 C 0.43231 0.96959 0.67208 0.0
H188 H 0.51513 0.94907 0.50756 0.0
H189 H 0.4186 0.97642 0.68297 0.0
H190 H 0.48346 0.01682 0.79655 0.0
H191 H 0.55576 0.07736 0.59163 0.0
H192 H 0.43991 0.99106 0.60835 0.0
H193 H 0.42751 0.94519 0.72936 0.0
H194 H 0.547 0.04289 0.60931 0.0
H195 H 0.52274 0.91486 0.53214 0.0
H196 H 0.44972 0.91622 0.73063 0.0
H197 H 0.47768 0.89897 0.68744 0.0
H198 H 0.46569 0.04032 0.85945 0.0
H199 H 0.5046 0.89811 0.61183 0.0
H200 H 0.5371 0.10354 0.64061 0.0
N201 N 0.49659 0.03876 0.74375 0.0
C202 C 0.49954 0.05806 0.73539 0.0
C203 C 0.47505 0.04551 0.82436 0.0
C204 C 0.48996 0.07201 0.7703 0.0
C205 C 0.48498 0.03227 0.78852 0.0
C206 C 0.47744 0.06549 0.81491 0.0
N207 N 0.523 0.0496 0.66511 0.0
C208 C 0.53867 0.05423 0.63035 0.0
C209 C 0.51793 0.08354 0.68667 0.0
C210 C 0.5133 0.06371 0.69455 0.0
C211 C 0.53309 0.08847 0.64802 0.0
C212 C 0.54368 0.07372 0.62035 0.0
H213 H 0.46997 0.07573 0.84323 0.0
H214 H 0.48645 0.10287 0.78694 0.0
H215 H 0.51095 0.11299 0.71338 0.0
O216 O 0.54041 0.00515 0.70089 0.0
O217 O 0.50598 0.0343 0.60293 0.0
O218 O 0.49105 0.01388 0.53157 0.0
O219 O 0.52433 0.01951 0.76937 0.0
O220 O 0.53156 0.0093 0.6087 0.0
O221 O 0.5155 0.99179 0.53241 0.0
O222 O 0.46135 0.97945 0.49976 0.0
O223 O 0.50842 0.97251 0.61484 0.0
O224 O 0.49918 0.99035 0.69241 0.0
O225 O 0.49007 0.97377 0.46911 0.0
O226 O 0.46965 0.00781 0.59462 0.0
O227 O 0.48364 0.00682 0.68512 0.0
C228 C 0.49832 0.03072 0.55047 0.0
C229 C 0.55843 0.02082 0.77626 0.0
C230 C 0.58985 0.01907 0.82665 0.0
C231 C 0.59172 0.03943 0.82158 0.0
C232 C 0.56059 0.04109 0.77193 0.0
C233 C 0.57721 0.0503 0.79418 0.0
C234 C 0.5731 0.00986 0.80335 0.0
C235 C 0.53084 0.00062 0.55643 0.0
C236 C 0.54056 0.01106 0.75544 0.0
C237 C 0.49379 0.09189 0.76096 0.0
C238 C 0.50775 0.09765 0.71909 0.0
C239 C 0.50859 0.97549 0.67164 0.0
C240 C 0.46867 0.98851 0.40131 0.0
C241 C 0.44629 0.00544 0.33497 0.0
C242 C 0.46244 0.01277 0.3036 0.0
C243 C 0.48451 0.99595 0.36866 0.0
C244 C 0.44956 0.99324 0.3839 0.0
C245 C 0.48136 0.00804 0.32042 0.0
C246 C 0.47054 0.01396 0.64935 0.0
C247 C 0.47208 0.97617 0.45381 0.0
H248 H 0.60419 0.04707 0.83993 0.0
H249 H 0.5493 0.04987 0.75242 0.0
H250 H 0.57872 0.06595 0.79103 0.0
H251 H 0.57138 0.9942 0.80638 0.0
H252 H 0.46048 0.0219 0.26526 0.0
H253 H 0.49941 0.99261 0.38056 0.0
H254 H 0.4373 0.98766 0.40899 0.0
H255 H 0.49366 0.01374 0.29584 0.0
Tb256 Tb 0.52563 0.5014 0.5391 0.0
C257 C 0.45808 0.4987 0.70572 0.0
N258 N 0.4602 0.51061 0.65834 0.0
C259 C 0.42824 0.50124 0.62455 0.0
C260 C 0.44141 0.48678 0.71267 0.0
C261 C 0.44491 0.51302 0.62032 0.0
C262 C 0.42666 0.48774 0.67023 0.0
C263 C 0.47002 0.48837 0.80122 0.0
C264 C 0.47213 0.4994 0.74935 0.0
C265 C 0.45394 0.47574 0.80712 0.0
C266 C 0.4397 0.47489 0.76278 0.0
Tb267 Tb 0.48916 0.52769 0.65422 0.0
N268 N 0.48783 0.51122 0.74112 0.0
C269 C 0.48407 0.49053 0.84563 0.0
C270 C 0.50104 0.5142 0.78534 0.0
C271 C 0.49949 0.50373 0.83799 0.0
H272 H 0.44523 0.52421 0.58707 0.0
H273 H 0.51018 0.50582 0.87256 0.0
H274 H 0.56818 0.52081 0.57248 0.0
H275 H 0.48975 0.49298 0.32779 0.0
H276 H 0.51287 0.52448 0.77952 0.0
H277 H 0.48297 0.48235 0.88626 0.0
H278 H 0.49771 0.4839 0.43002 0.0
H279 H 0.41646 0.50285 0.5932 0.0
H280 H 0.4522 0.46686 0.84617 0.0
H281 H 0.42713 0.46542 0.76849 0.0
H282 H 0.59213 0.54332 0.52672 0.0
H283 H 0.41363 0.47881 0.67384 0.0
H284 H 0.50825 0.5194 0.27851 0.0
N285 N 0.54882 0.5214 0.49937 0.0
C286 C 0.54585 0.52744 0.44334 0.0
C287 C 0.57909 0.53907 0.50291 0.0
C288 C 0.55896 0.54031 0.41542 0.0
C289 C 0.56553 0.52637 0.52874 0.0
C290 C 0.57566 0.54631 0.44628 0.0
N291 N 0.51874 0.50655 0.44138 0.0
C292 C 0.50517 0.49612 0.41019 0.0
C293 C 0.52657 0.52519 0.35443 0.0
C294 C 0.52997 0.52001 0.41357 0.0
C295 C 0.5114 0.51585 0.32402 0.0
C296 C 0.50091 0.50095 0.35171 0.0
H297 H 0.58613 0.5562 0.42644 0.0
H298 H 0.56483 0.55656 0.33547 0.0
H299 H 0.53639 0.54328 0.28189 0.0
O300 O 0.53628 0.47831 0.48695 0.0
O301 O 0.52651 0.53302 0.55293 0.0
O302 O 0.49496 0.54242 0.57055 0.0
O303 O 0.54663 0.48288 0.57504 0.0
O304 O 0.49389 0.49682 0.52859 0.0
O305 O 0.47876 0.52471 0.56254 0.0
O306 O 0.49663 0.55427 0.69486 0.0
O307 O 0.5031 0.49957 0.67205 0.0
O308 O 0.50263 0.48487 0.58227 0.0
O309 O 0.46673 0.54522 0.68816 0.0
O310 O 0.52033 0.53348 0.66769 0.0
O311 O 0.53736 0.50726 0.62789 0.0
C312 C 0.51194 0.54495 0.54456 0.0
C313 C 0.54116 0.45029 0.54641 0.0
C314 C 0.52744 0.41838 0.52074 0.0
C315 C 0.53046 0.41224 0.57909 0.0
C316 C 0.54424 0.44364 0.60431 0.0
C317 C 0.53887 0.42479 0.62039 0.0
C318 C 0.53293 0.43744 0.50461 0.0
C319 C 0.47981 0.50977 0.52595 0.0
C320 C 0.54571 0.47079 0.531 0.0
C321 C 0.55512 0.54642 0.35753 0.0
C322 C 0.5389 0.5389 0.32709 0.0
C323 C 0.50082 0.48398 0.63947 0.0
C324 C 0.47632 0.56232 0.77465 0.0
C325 C 0.48467 0.58303 0.85892 0.0
C326 C 0.47252 0.57152 0.89481 0.0
C327 C 0.46435 0.55091 0.81142 0.0
C328 C 0.48644 0.57831 0.79874 0.0
C329 C 0.46249 0.55555 0.87111 0.0
C330 C 0.53576 0.52211 0.6648 0.0
C331 C 0.47886 0.55761 0.71158 0.0
H332 H 0.5266 0.39761 0.59261 0.0
H333 H 0.55061 0.45308 0.63755 0.0
H334 H 0.54123 0.41989 0.66512 0.0
H335 H 0.53039 0.44237 0.45994 0.0
H336 H 0.47099 0.57471 0.94135 0.0
H337 H 0.4565 0.5384 0.79424 0.0
H338 H 0.49558 0.58719 0.77037 0.0
H339 H 0.45329 0.54668 0.89919 0.0
Tb340 Tb 0.01191 0.54234 0.5682 0.0
C341 C 0.01868 0.48082 0.7577 0.0
N342 N 0.01042 0.47814 0.70398 0.0
C343 C 0.0281 0.44845 0.69129 0.0
C344 C 0.03284 0.46793 0.77925 0.0
C345 C 0.0142 0.46177 0.6717 0.0
C346 C 0.03773 0.45172 0.74484 0.0
C347 C 0.01968 0.49901 0.84896 0.0
C348 C 0.01222 0.49614 0.79167 0.0
C349 C 0.03462 0.4869 0.86972 0.0
C350 C 0.04118 0.47136 0.83492 0.0
Tb351 Tb 0.98835 0.50079 0.67459 0.0
N352 N 0.99746 0.50717 0.77033 0.0
C353 C 0.01128 0.51334 0.8845 0.0
C354 C 0.98793 0.51969 0.80719 0.0
C355 C 0.99505 0.52343 0.86395 0.0
H356 H 0.00683 0.45936 0.63015 0.0
H357 H 0.98778 0.53383 0.89217 0.0
H358 H 0.01344 0.58286 0.65033 0.0
H359 H 0.98745 0.53365 0.34421 0.0
H360 H 0.97465 0.52671 0.79352 0.0
H361 H 0.01658 0.51604 0.92879 0.0
H362 H 0.00684 0.52574 0.43317 0.0
H363 H 0.03146 0.43574 0.665 0.0
H364 H 0.04071 0.48902 0.91337 0.0
H365 H 0.05228 0.46177 0.85213 0.0
H366 H 0.99448 0.61308 0.65914 0.0
H367 H 0.04853 0.44142 0.75985 0.0
H368 H 0.96492 0.56168 0.34581 0.0
N369 N 0.99716 0.57207 0.57713 0.0
C370 C 0.98454 0.57679 0.53345 0.0
C371 C 0.99127 0.60284 0.62406 0.0
C372 C 0.97401 0.59433 0.53476 0.0
C373 C 0.00168 0.58545 0.61976 0.0
C374 C 0.97705 0.60711 0.58204 0.0
N375 N 0.99491 0.54874 0.48422 0.0
C376 C 0.99704 0.53799 0.43389 0.0
C377 C 0.97227 0.56991 0.4354 0.0
C378 C 0.98364 0.56485 0.48461 0.0
C379 C 0.97338 0.55827 0.38473 0.0
C380 C 0.98612 0.54245 0.38361 0.0
H381 H 0.96923 0.62073 0.58485 0.0
H382 H 0.95322 0.61222 0.48793 0.0
H383 H 0.9517 0.59079 0.40073 0.0
O384 O 0.03768 0.53508 0.52334 0.0
O385 O 0.98331 0.52955 0.54444 0.0
O386 O 0.97019 0.52321 0.63504 0.0
O387 O 0.03104 0.56488 0.54244 0.0
O388 O 0.0157 0.51211 0.5388 0.0
O389 O 0.99171 0.49234 0.58203 0.0
O390 O 0.96802 0.48792 0.73257 0.0
O391 O 0.01964 0.50052 0.65247 0.0
O392 O 0.02569 0.53296 0.64959 0.0
O393 O 0.96977 0.47881 0.64246 0.0
O394 O 0.98115 0.53157 0.69113 0.0
O395 O 0.00902 0.54816 0.66359 0.0
C396 C 0.96816 0.52583 0.57821 0.0
C397 C 0.06432 0.5555 0.54556 0.0
C398 C 0.09881 0.54687 0.53839 0.0
C399 C 0.10293 0.55967 0.58534 0.0
C400 C 0.06878 0.5683 0.59212 0.0
C401 C 0.08798 0.57025 0.61198 0.0
C402 C 0.07936 0.54476 0.51937 0.0
C403 C 0.00494 0.49607 0.54119 0.0
C404 C 0.0442 0.55286 0.52369 0.0
C405 C 0.96161 0.59892 0.48749 0.0
C406 C 0.96077 0.58674 0.43777 0.0
C407 C 0.03192 0.51518 0.65574 0.0
C408 C 0.93837 0.47875 0.68515 0.0
C409 C 0.90629 0.4865 0.72592 0.0
C410 C 0.89762 0.4801 0.67304 0.0
C411 C 0.92929 0.47227 0.63301 0.0
C412 C 0.92673 0.48579 0.73155 0.0
C413 C 0.90908 0.47302 0.62707 0.0
C414 C 0.99306 0.54666 0.69567 0.0
C415 C 0.95984 0.47769 0.69105 0.0
H416 H 0.11773 0.56186 0.60074 0.0
H417 H 0.05745 0.57664 0.61355 0.0
H418 H 0.09131 0.58009 0.64797 0.0
H419 H 0.07578 0.53466 0.48415 0.0
H420 H 0.88193 0.48016 0.66757 0.0
H421 H 0.93782 0.46658 0.59674 0.0
H422 H 0.93357 0.49085 0.77188 0.0
H423 H 0.90224 0.46793 0.58684 0.0
H424 H 0.16445 0.0571 0.17007 0.0
H425 H 0.13748 0.04818 0.23524 0.0
H426 H 0.13881 0.98935 0.1687 0.0
H427 H 0.16566 0.99819 0.10266 0.0
H428 H 0.10107 0.00459 0.17832 0.0
H429 H 0.14346 0.01507 0.38438 0.0
H430 H 0.14381 0.03593 0.33684 0.0
H431 H 0.15484 0.01361 0.31278 0.0
C432 C 0.15899 0.04227 0.16915 0.0
C433 C 0.16727 0.02831 0.1315 0.0
C434 C 0.14366 0.03718 0.20662 0.0
C435 C 0.13643 0.01804 0.20743 0.0
C436 C 0.1443 0.00418 0.1689 0.0
H437 H 0.06261 0.97618 0.49267 0.0
H438 H 0.08807 0.97891 0.41785 0.0
C439 C 0.15964 0.00926 0.13129 0.0
C440 C 0.12068 0.01251 0.24871 0.0
H441 H 0.10909 0.0113 0.39479 0.0
C442 C 0.10282 0.0059 0.22569 0.0
C443 C 0.12318 0.01392 0.31043 0.0
C444 C 0.14242 0.01983 0.33771 0.0
C445 C 0.08712 0.00125 0.26289 0.0
C446 C 0.08932 0.00361 0.3245 0.0
C447 C 0.10739 0.00964 0.34749 0.0
C448 C 0.07299 0.00052 0.36613 0.0
C449 C 0.0684 0.99376 0.2359 0.0
C450 C 0.056 0.01167 0.36154 0.0
C451 C 0.04135 0.01008 0.40403 0.0
C452 C 0.04358 0.99753 0.45244 0.0
C453 C 0.06046 0.98609 0.4562 0.0
C454 C 0.07502 0.98759 0.41344 0.0
H455 H 0.07097 0.98714 0.19187 0.0
H456 H 0.06126 0.98276 0.26466 0.0
H457 H 0.05821 0.00608 0.23 0.0
H458 H 0.05433 0.02209 0.32619 0.0
H459 H 0.02863 0.01923 0.39994 0.0
H460 H 0.44025 0.17175 0.23182 0.0
H461 H 0.44717 0.14478 0.29847 0.0
H462 H 0.5037 0.13774 0.21812 0.0
H463 H 0.49705 0.16493 0.15184 0.0
H464 H 0.45617 0.10633 0.27513 0.0
H465 H 0.51669 0.14382 0.39331 0.0
H466 H 0.50016 0.15648 0.34507 0.0
H467 H 0.51981 0.14246 0.31481 0.0
C468 C 0.45414 0.16443 0.22815 0.0
C469 C 0.46817 0.17056 0.18687 0.0
C470 C 0.45806 0.14904 0.26626 0.0
C471 C 0.47607 0.13954 0.26386 0.0
C472 C 0.48987 0.14519 0.22149 0.0
H473 H 0.50033 0.02891 0.43131 0.0
H474 H 0.49557 0.05535 0.36115 0.0
C475 C 0.486 0.16064 0.18344 0.0
C476 C 0.48035 0.12374 0.30593 0.0
H477 H 0.51119 0.11063 0.4168 0.0
C478 C 0.46818 0.10724 0.30616 0.0
C479 C 0.49587 0.12516 0.34684 0.0
C480 C 0.50879 0.143 0.35058 0.0
C481 C 0.47121 0.09198 0.34596 0.0
C482 C 0.48709 0.09315 0.38574 0.0
C483 C 0.49915 0.10973 0.38589 0.0
C484 C 0.49124 0.07741 0.42813 0.0
C485 C 0.45714 0.07497 0.34577 0.0
C486 C 0.49132 0.08123 0.48899 0.0
C487 C 0.49423 0.06615 0.52917 0.0
C488 C 0.49703 0.04705 0.5089 0.0
C489 C 0.49771 0.04343 0.44798 0.0
C490 C 0.49497 0.0585 0.40792 0.0
H491 H 0.44304 0.07878 0.32474 0.0
H492 H 0.46356 0.06279 0.32028 0.0
H493 H 0.45419 0.06977 0.39124 0.0
H494 H 0.48863 0.09579 0.5054 0.0
H495 H 0.4936 0.06931 0.57592 0.0
H496 H 0.33653 0.51446 0.15921 0.0
H497 H 0.36495 0.51925 0.22302 0.0
H498 H 0.37101 0.4571 0.23968 0.0
H499 H 0.34265 0.45213 0.1757 0.0
H500 H 0.36792 0.50544 0.3411 0.0
H501 H 0.42674 0.47616 0.1984 0.0
H502 H 0.40328 0.48327 0.16971 0.0
H503 H 0.40586 0.46049 0.20748 0.0
C504 C 0.34404 0.50179 0.17583 0.0
C505 C 0.33732 0.4829 0.16231 0.0
C506 C 0.36025 0.50456 0.21237 0.0
C507 C 0.37018 0.48854 0.23561 0.0
C508 C 0.36375 0.46966 0.22143 0.0
H509 H 0.46606 0.47521 0.48247 0.0
H510 H 0.43939 0.47017 0.41201 0.0
C511 C 0.34748 0.46686 0.18506 0.0
C512 C 0.38655 0.4916 0.27743 0.0
H513 H 0.43524 0.48375 0.29718 0.0
C514 C 0.38267 0.5008 0.33143 0.0
C515 C 0.40572 0.48538 0.2648 0.0
C516 C 0.41078 0.47591 0.20678 0.0
C517 C 0.3974 0.50371 0.3736 0.0
C518 C 0.41662 0.49765 0.36081 0.0
C519 C 0.4205 0.48841 0.30683 0.0
C520 C 0.43291 0.5008 0.40293 0.0
C521 C 0.39213 0.51281 0.43205 0.0
C522 C 0.43824 0.51969 0.42068 0.0
C523 C 0.45344 0.52259 0.46089 0.0
C524 C 0.46373 0.50666 0.48349 0.0
C525 C 0.45849 0.48777 0.46528 0.0
C526 C 0.44326 0.48487 0.42517 0.0
H527 H 0.37624 0.51168 0.44103 0.0
H528 H 0.40015 0.50583 0.46882 0.0
H529 H 0.39614 0.52848 0.43134 0.0
H530 H 0.43072 0.53221 0.40318 0.0
H531 H 0.45725 0.5373 0.47392 0.0
H532 H 0.07698 0.35923 0.23546 0.0
H533 H 0.06671 0.38675 0.29612 0.0
H534 H 0.00997 0.38516 0.2142 0.0
H535 H 0.02014 0.35768 0.15278 0.0
H536 H 0.02654 0.42333 0.2271 0.0
H537 H 0.02809 0.38101 0.43519 0.0
H538 H 0.0503 0.38002 0.39334 0.0
H539 H 0.0283 0.3696 0.36341 0.0
C540 C 0.06233 0.36476 0.23011 0.0
C541 C 0.04932 0.35617 0.18963 0.0
C542 C 0.05648 0.38043 0.26497 0.0
C543 C 0.0375 0.38774 0.2602 0.0
C544 C 0.02465 0.37962 0.21865 0.0
H545 H 0.98438 0.46221 0.5241 0.0
H546 H 0.99086 0.43658 0.45228 0.0
C547 C 0.03048 0.36392 0.18372 0.0
C548 C 0.03103 0.40364 0.29945 0.0
H549 H 0.02442 0.41523 0.44431 0.0
C550 C 0.02596 0.42158 0.27458 0.0
C551 C 0.03 0.40115 0.36121 0.0
C552 C 0.03428 0.38186 0.38999 0.0
C553 C 0.02041 0.43733 0.3102 0.0
C554 C 0.02021 0.43507 0.37216 0.0
C555 C 0.02476 0.41696 0.3968 0.0
C556 C 0.01555 0.45132 0.4126 0.0
C557 C 0.01466 0.45618 0.28124 0.0
C558 C 0.02731 0.4681 0.41408 0.0
C559 C 0.02366 0.48283 0.45511 0.0
C560 C 0.00827 0.48095 0.49577 0.0
C561 C 0.9964 0.46416 0.49364 0.0
C562 C 4e-05 0.44948 0.45256 0.0
H563 H 0.01038 0.45393 0.23447 0.0
H564 H 0.00236 0.4631 0.30502 0.0
H565 H 0.02727 0.4664 0.28213 0.0
H566 H 0.03961 0.46961 0.38447 0.0
H567 H 0.03317 0.49548 0.45561 0.0
H568 H 0.84211 0.96531 0.02951 0.0
H569 H 0.86639 0.97589 0.95709 0.0
H570 H 0.86944 0.9174 0.88849 0.0
H571 H 0.84494 0.90676 0.95995 0.0
H572 H 0.90413 0.96318 0.94194 0.0
H573 H 0.86044 0.94933 0.74009 0.0
H574 H 0.84974 0.94988 0.81277 0.0
H575 H 0.86231 0.92855 0.78748 0.0
C576 C 0.84789 0.95471 0.99888 0.0
C577 C 0.84153 0.93521 1.00027 0.0
C578 C 0.86175 0.96078 0.95755 0.0
C579 C 0.86944 0.9475 0.91678 0.0
C580 C 0.86334 0.92798 0.91862 0.0
H581 H 0.96146 0.95188 0.65536 0.0
H582 H 0.93472 0.94225 0.72158 0.0
C583 C 0.84943 0.9219 0.95978 0.0
C584 C 0.88432 0.95394 0.87354 0.0
H585 H 0.89418 0.95641 0.72613 0.0
C586 C 0.90191 0.96183 0.89476 0.0
C587 C 0.88135 0.95215 0.81201 0.0
C588 C 0.86237 0.94469 0.7866 0.0
C589 C 0.91681 0.9676 0.85607 0.0
C590 C 0.91391 0.96561 0.79466 0.0
C591 C 0.89631 0.95782 0.77333 0.0
C592 C 0.92907 0.97155 0.75197 0.0
C593 C 0.93571 0.97543 0.88114 0.0
C594 C 0.93438 0.9912 0.74653 0.0
C595 C 0.94953 0.99668 0.70892 0.0
C596 C 0.95948 0.9826 0.67575 0.0
C597 C 0.95388 0.96298 0.68029 0.0
C598 C 0.93867 0.95749 0.71789 0.0
H599 H 0.93718 0.97219 0.92889 0.0
H600 H 0.94841 0.96921 0.85744 0.0
H601 H 0.93621 0.99146 0.87554 0.0
H602 H 0.92704 0.00224 0.77227 0.0
H603 H 0.95392 0.01184 0.70745 0.0
H604 H 0.61464 0.84878 0.92224 0.0
H605 H 0.59992 0.87676 0.87337 0.0
H606 H 0.55003 0.87251 0.98842 0.0
H607 H 0.56465 0.84452 0.03781 0.0
H608 H 0.54182 0.87341 0.8633 0.0
H609 H 0.59121 0.9335 0.93499 0.0
H610 H 0.60314 0.91208 0.90768 0.0
H611 H 0.58917 0.91076 0.97451 0.0
C612 C 0.60063 0.85391 0.93759 0.0
C613 C 0.59079 0.84442 0.98384 0.0
C614 C 0.59231 0.86996 0.90986 0.0
C615 C 0.57402 0.87678 0.92782 0.0
C616 C 0.56425 0.86751 0.97434 0.0
H617 H 0.50901 0.97574 0.79204 0.0
H618 H 0.52535 0.95259 0.85721 0.0
C619 C 0.57262 0.85154 0.00243 0.0
C620 C 0.56448 0.89263 0.89498 0.0
H621 H 0.56908 0.94052 0.85707 0.0
C622 C 0.54767 0.88812 0.86229 0.0
C623 C 0.57215 0.91179 0.8941 0.0
C624 C 0.58982 0.91746 0.93004 0.0
C625 C 0.53862 0.90218 0.82722 0.0
C626 C 0.54666 0.92115 0.82487 0.0
C627 C 0.56311 0.92586 0.85885 0.0
C628 C 0.53824 0.93608 0.78612 0.0
C629 C 0.52062 0.8967 0.79243 0.0
C630 C 0.54056 0.93462 0.72492 0.0
C631 C 0.53142 0.94786 0.68771 0.0
C632 C 0.51967 0.96264 0.71116 0.0
C633 C 0.51791 0.96445 0.77269 0.0
C634 C 0.52722 0.95128 0.80995 0.0
H635 H 0.51438 0.8825 0.80663 0.0
H636 H 0.50928 0.90806 0.7971 0.0
H637 H 0.52442 0.89563 0.74497 0.0
H638 H 0.54919 0.92304 0.70595 0.0
H639 H 0.53336 0.94633 0.64061 0.0
H640 H 0.67785 0.58659 0.98491 0.0
H641 H 0.65134 0.57929 0.91589 0.0
H642 H 0.64397 0.5226 0.99419 0.0
H643 H 0.67031 0.52983 0.06383 0.0
H644 H 0.64814 0.54916 0.83305 0.0
H645 H 0.58873 0.54518 0.99901 0.0
H646 H 0.61236 0.55565 0.01521 0.0
H647 H 0.6091 0.52967 0.01407 0.0
C648 C 0.67056 0.57258 0.9876 0.0
C649 C 0.67614 0.55883 0.03014 0.0
C650 C 0.65543 0.56843 0.94804 0.0
C651 C 0.6455 0.55051 0.95043 0.0
C652 C 0.65119 0.53666 0.9923 0.0
H653 H 0.56948 0.50135 0.67931 0.0
H654 H 0.59623 0.50814 0.74775 0.0
C655 C 0.66632 0.54078 0.03188 0.0
C656 C 0.62936 0.54628 0.90862 0.0
H657 H 0.58067 0.53565 0.90141 0.0
C658 C 0.63338 0.54622 0.84793 0.0
C659 C 0.61007 0.54268 0.92815 0.0
C660 C 0.60469 0.54345 0.99261 0.0
C661 C 0.61867 0.54243 0.80624 0.0
C662 C 0.59948 0.53834 0.82586 0.0
C663 C 0.59542 0.53862 0.88651 0.0
C664 C 0.5833 0.53417 0.78414 0.0
C665 C 0.6237 0.54323 0.74153 0.0
C666 C 0.56695 0.5463 0.78274 0.0
C667 C 0.55158 0.54244 0.74385 0.0
C668 C 0.55219 0.52626 0.70571 0.0
C669 C 0.56855 0.51402 0.70763 0.0
C670 C 0.58392 0.51792 0.74657 0.0
H671 H 0.63759 0.55123 0.73363 0.0
H672 H 0.6254 0.52819 0.72447 0.0
H673 H 0.61193 0.55035 0.71599 0.0
H674 H 0.56613 0.55887 0.81155 0.0
H675 H 0.53923 0.55218 0.74383 0.0
H676 H 0.97226 0.68485 0.07921 0.0
H677 H 0.98298 0.65844 0.01452 0.0
H678 H 0.92627 0.65691 0.93227 0.0
H679 H 0.9156 0.68358 0.99566 0.0
H680 H 0.96937 0.62134 1.00056 0.0
H681 H 0.96184 0.66183 0.79089 0.0
H682 H 0.96093 0.67367 0.8619 0.0
H683 H 0.93972 0.66132 0.83307 0.0
C684 C 0.96208 0.67891 0.04727 0.0
C685 C 0.94312 0.68642 0.04223 0.0
C686 C 0.96823 0.66382 0.01037 0.0
C687 C 0.95556 0.65597 0.96776 0.0
C688 C 0.93647 0.66309 0.96373 0.0
H689 H 0.95694 0.5588 0.72737 0.0
H690 H 0.94869 0.58531 0.79531 0.0
C691 C 0.93035 0.67826 1.00029 0.0
C692 C 0.96219 0.64016 0.928 0.0
H693 H 0.96652 0.62753 0.78281 0.0
C694 C 0.96891 0.62276 0.95298 0.0
C695 C 0.96172 0.64208 0.86586 0.0
C696 C 0.95585 0.6608 0.8363 0.0
C697 C 0.9746 0.60703 0.9174 0.0
C698 C 0.97354 0.60881 0.85552 0.0
C699 C 0.96714 0.62625 0.83044 0.0
C700 C 0.97867 0.59255 0.81594 0.0
C701 C 0.98132 0.58843 0.94584 0.0
C702 C 0.99826 0.58797 0.80528 0.0
C703 C 0.003 0.57293 0.76633 0.0
C704 C 0.9882 0.56229 0.73768 0.0
C705 C 0.96861 0.56677 0.74906 0.0
C706 C 0.96389 0.5819 0.78761 0.0
H707 H 0.97957 0.58872 0.99452 0.0
H708 H 0.97299 0.57584 0.92774 0.0
H709 H 0.99695 0.5861 0.93542 0.0
H710 H 0.00984 0.59614 0.8267 0.0
H711 H 0.01821 0.56962 0.75857 0.0
H712 H 0.03523 0.22828 0.08386 0.0
H713 H 0.02577 0.19938 0.14001 0.0
H714 H 0.05215 0.22407 0.29602 0.0
H715 H 0.06239 0.25264 0.23951 0.0
H716 H 0.06087 0.18475 0.27991 0.0
H717 H 0.98129 0.19793 0.25963 0.0
H718 H 0.99413 0.19658 0.19078 0.0
H719 H 0.99934 0.21616 0.24118 0.0
C720 C 0.03952 0.22734 0.1296 0.0
C721 C 0.04994 0.24259 0.15687 0.0
C722 C 0.03376 0.21096 0.16198 0.0
C723 C 0.03807 0.20967 0.22236 0.0
C724 C 0.04865 0.22478 0.2495 0.0
H725 H 0.0143 0.13075 0.51148 0.0
H726 H 0.02603 0.15693 0.44739 0.0
C727 C 0.05443 0.24111 0.21718 0.0
C728 C 0.03146 0.19271 0.25767 0.0
H729 H 0.99074 0.16883 0.3067 0.0
C730 C 0.04554 0.18126 0.28579 0.0
C731 C 0.01145 0.18819 0.26525 0.0
C732 C 0.99564 0.20043 0.23809 0.0
C733 C 0.04015 0.16531 0.321 0.0
C734 C 0.02014 0.16092 0.32905 0.0
C735 C 0.00607 0.17223 0.30041 0.0
C736 C 0.01343 0.14483 0.36773 0.0
C737 C 0.05592 0.15315 0.34861 0.0
C738 C 0.00212 0.12954 0.34447 0.0
C739 C 0.99523 0.11467 0.38107 0.0
C740 C 0.99939 0.11485 0.44182 0.0
C741 C 0.01072 0.13023 0.46499 0.0
C742 C 0.01763 0.14509 0.42831 0.0
H743 H 0.07013 0.15512 0.32577 0.0
H744 H 0.05787 0.15763 0.39528 0.0
H745 H 0.05193 0.13746 0.34779 0.0
H746 H 0.99858 0.12916 0.29794 0.0
H747 H 0.98629 0.10322 0.36195 0.0
H748 H 0.27848 0.01466 0.0839 0.0
H749 H 0.30994 0.00729 0.12989 0.0
H750 H 0.31425 0.06631 0.19363 0.0
H751 H 0.28272 0.07376 0.14812 0.0
H752 H 0.34797 0.03059 0.1093 0.0
H753 H 0.32113 0.02728 0.34087 0.0
H754 H 0.30526 0.02319 0.27836 0.0
H755 H 0.31335 0.04738 0.29597 0.0
C756 C 0.28615 0.02606 0.10768 0.0
C757 C 0.27831 0.04487 0.11171 0.0
C758 C 0.30409 0.02184 0.13376 0.0
C759 C 0.31431 0.03625 0.16518 0.0
C760 C 0.30651 0.05501 0.16956 0.0
H761 H 0.43291 0.04046 0.2947 0.0
H762 H 0.40071 0.0477 0.25449 0.0
C763 C 0.28864 0.0593 0.143 0.0
C764 C 0.33323 0.03168 0.19295 0.0
H765 H 0.35507 0.02389 0.3261 0.0
C766 C 0.34956 0.02912 0.15665 0.0
C767 C 0.33512 0.02966 0.25467 0.0
C768 C 0.31782 0.03189 0.29506 0.0
C769 C 0.3679 0.02482 0.1807 0.0
C770 C 0.36986 0.02306 0.24248 0.0
C771 C 0.35347 0.02535 0.27875 0.0
C772 C 0.38893 0.0189 0.26992 0.0
C773 C 0.38507 0.02208 0.14003 0.0
C774 C 0.39278 0.0004 0.29299 0.0
C775 C 0.41126 0.99612 0.31547 0.0
C776 C 0.42617 0.01032 0.31555 0.0
C777 C 0.42193 0.02906 0.29426 0.0
C778 C 0.40352 0.03328 0.27152 0.0
H779 H 0.38055 0.02098 0.0931 0.0
H780 H 0.39521 0.03465 0.1447 0.0
H781 H 0.39319 0.00874 0.15209 0.0
H782 H 0.38164 0.98914 0.2921 0.0
H783 H 0.41404 0.98151 0.33096 0.0
H784 H 0.49689 0.27322 0.17922 0.0
H785 H 0.50732 0.30077 0.24049 0.0
H786 H 0.44894 0.32366 0.23603 0.0
H787 H 0.43841 0.29609 0.17501 0.0
H788 H 0.47802 0.35225 0.21981 0.0
H789 H 0.49308 0.30615 0.41487 0.0
H790 H 0.5058 0.29873 0.3495 0.0
H791 H 0.47961 0.29732 0.35178 0.0
C792 C 0.48631 0.28419 0.19107 0.0
C793 C 0.4669 0.28266 0.1716 0.0
C794 C 0.49227 0.29987 0.22619 0.0
C795 C 0.47885 0.31413 0.2433 0.0
C796 C 0.45954 0.31284 0.22308 0.0
H797 H 0.49617 0.39402 0.53588 0.0
H798 H 0.48329 0.36986 0.46643 0.0
C799 C 0.45358 0.29718 0.18774 0.0
C800 C 0.48486 0.33013 0.28346 0.0
H801 H 0.50335 0.33916 0.42059 0.0
C802 C 0.4835 0.34943 0.2638 0.0
C803 C 0.49172 0.3264 0.34113 0.0
C804 C 0.49248 0.30605 0.36592 0.0
C805 C 0.48921 0.36511 0.29994 0.0
C806 C 0.49672 0.36132 0.35683 0.0
C807 C 0.49773 0.34203 0.37679 0.0
C808 C 0.50363 0.37705 0.39674 0.0
C809 C 0.48688 0.38558 0.27727 0.0
C810 C 0.51929 0.38918 0.3805 0.0
C811 C 0.52669 0.403 0.42016 0.0
C812 C 0.5187 0.40477 0.47699 0.0
C813 C 0.5028 0.39283 0.49269 0.0
C814 C 0.49537 0.37908 0.45299 0.0
H815 H 0.47617 0.38623 0.24058 0.0
H816 H 0.48209 0.39556 0.31294 0.0
H817 H 0.50112 0.39092 0.26035 0.0
H818 H 0.52617 0.38757 0.33782 0.0
H819 H 0.53911 0.41182 0.40707 0.0
H820 H 0.19999 0.48367 0.13631 0.0
H821 H 0.17914 0.49053 0.22056 0.0
H822 H 0.22833 0.48479 0.33758 0.0
H823 H 0.24957 0.47831 0.25297 0.0
H824 H 0.17013 0.46977 0.32119 0.0
H825 H 0.20864 0.53917 0.37619 0.0
H826 H 0.21282 0.52633 0.30797 0.0
H827 H 0.2233 0.51761 0.37541 0.0
C828 C 0.20644 0.48375 0.1799 0.0
C829 C 0.22654 0.48065 0.18773 0.0
C830 C 0.19446 0.48762 0.2281 0.0
C831 C 0.20223 0.48848 0.28523 0.0
C832 C 0.22211 0.48459 0.29371 0.0
H833 H 0.13197 0.53076 0.58625 0.0
H834 H 0.15843 0.51425 0.53375 0.0
C835 C 0.2342 0.4808 0.24532 0.0
C836 C 0.18943 0.49425 0.33486 0.0
H837 H 0.18034 0.53176 0.42991 0.0
C838 C 0.17252 0.48317 0.34564 0.0
C839 C 0.19261 0.51172 0.36684 0.0
C840 C 0.21023 0.52452 0.35598 0.0
C841 C 0.15829 0.48954 0.38554 0.0
C842 C 0.16102 0.50746 0.41508 0.0
C843 C 0.1784 0.51798 0.4071 0.0
C844 C 0.14496 0.51673 0.44795 0.0
C845 C 0.14009 0.47743 0.39437 0.0
C846 C 0.12886 0.52378 0.41682 0.0
C847 C 0.11396 0.53349 0.44624 0.0
C848 C 0.11475 0.53626 0.5077 0.0
C849 C 0.13097 0.52912 0.53886 0.0
C850 C 0.14602 0.51954 0.5091 0.0
H851 H 0.14227 0.46208 0.38049 0.0
H852 H 0.13546 0.47769 0.44129 0.0
H853 H 0.12811 0.48357 0.36748 0.0
H854 H 0.128 0.52209 0.36938 0.0
H855 H 0.10203 0.53921 0.42042 0.0
H856 H 0.93647 0.79922 0.05917 0.0
H857 H 0.9524 0.82442 1.00014 0.0
H858 H 0.00816 0.80842 0.0725 0.0
H859 H 0.9924 0.78277 0.13039 0.0
H860 H 0.97728 0.85678 0.02819 0.0
H861 H 0.01398 0.80018 0.89272 0.0
H862 H 0.99424 0.79448 0.9425 0.0
H863 H 0.01829 0.79913 0.9708 0.0
C864 C 0.9521 0.80122 0.06316 0.0
C865 C 0.96315 0.78904 0.09978 0.0
C866 C 0.96116 0.81568 0.02957 0.0
C867 C 0.98146 0.81814 0.03154 0.0
C868 C 0.99248 0.80663 0.07007 0.0
H869 H 0.04337 0.90901 0.83143 0.0
H870 H 0.03129 0.88863 0.91227 0.0
C871 C 0.9834 0.79214 0.1038 0.0
C872 C 0.99105 0.83172 0.98981 0.0
H873 H 0.01951 0.83281 0.86637 0.0
C874 C 0.98668 0.85162 0.99313 0.0
C875 C 0.00308 0.82483 0.9437 0.0
C876 C 0.00762 0.80349 0.93662 0.0
C877 C 0.99387 0.86482 0.95102 0.0
C878 C 0.00582 0.85789 0.90482 0.0
C879 C 0.01041 0.83805 0.90207 0.0
C880 C 0.01279 0.87072 0.85674 0.0
C881 C 0.98805 0.88591 0.95493 0.0
C882 C 0.00654 0.86726 0.79877 0.0
C883 C 0.01335 0.87886 0.75262 0.0
C884 C 0.0267 0.89409 0.76343 0.0
C885 C 0.03291 0.89756 0.82171 0.0
C886 C 0.02604 0.88594 0.86795 0.0
H887 H 0.97591 0.88819 0.98656 0.0
H888 H 0.00075 0.89473 0.96991 0.0
H889 H 0.98356 0.89141 0.91101 0.0
H890 H 0.99629 0.85558 0.78927 0.0
H891 H 0.00803 0.87597 0.70847 0.0
H892 H 0.72067 0.94238 0.16848 0.0
H893 H 0.68951 0.95284 0.12656 0.0
H894 H 0.71402 0.94929 0.9518 0.0
H895 H 0.7452 0.93899 0.99352 0.0
H896 H 0.68434 0.98646 0.05992 0.0
H897 H 0.66146 0.92103 0.9339 0.0
H898 H 0.67986 0.92032 0.99088 0.0
H899 H 0.68602 0.9286 0.91801 0.0
C900 C 0.71944 0.94401 0.12119 0.0
C901 C 0.73547 0.94039 0.08428 0.0
C902 C 0.70158 0.94973 0.09728 0.0
C903 C 0.69943 0.95173 0.03609 0.0
C904 C 0.71526 0.94753 0.99908 0.0
H905 H 0.62944 0.02443 0.82212 0.0
H906 H 0.65441 0.0073 0.87791 0.0
C907 C 0.73308 0.94175 0.02295 0.0
C908 C 0.68123 0.95971 0.011 0.0
H909 H 0.64589 0.95104 0.90788 0.0
C910 C 0.67578 0.97862 0.02729 0.0
C911 C 0.66994 0.94936 0.96898 0.0
C912 C 0.67448 0.92862 0.95229 0.0
C913 C 0.65993 0.98783 1.00039 0.0
C914 C 0.64941 0.97792 0.95577 0.0
C915 C 0.65419 0.95866 0.94161 0.0
C916 C 0.63413 0.98779 0.92121 0.0
C917 C 0.65474 0.00823 0.01915 0.0
C918 C 0.61451 0.98214 0.92615 0.0
C919 C 0.60011 0.99207 0.8948 0.0
C920 C 0.60515 0.00769 0.85751 0.0
C921 C 0.62496 0.01281 0.8514 0.0
C922 C 0.63928 0.00299 0.88306 0.0
H923 H 0.66105 0.01197 0.06289 0.0
H924 H 0.66058 0.01871 0.98634 0.0
H925 H 0.63867 0.01001 0.02114 0.0
H926 H 0.61032 0.97035 0.95523 0.0
H927 H 0.58501 0.98783 0.90104 0.0
H928 H 0.59978 0.72577 0.99722 0.0
H929 H 0.58349 0.69531 0.96795 0.0
H930 H 0.52836 0.71815 0.02638 0.0
H931 H 0.54445 0.74877 0.0543 0.0
H932 H 0.53908 0.67802 0.06747 0.0
H933 H 0.54438 0.68948 0.82518 0.0
H934 H 0.56639 0.69312 0.86709 0.0
H935 H 0.54622 0.70927 0.87753 0.0
C936 C 0.58417 0.7243 0.00351 0.0
C937 C 0.57343 0.73944 0.02923 0.0
C938 C 0.57492 0.70692 0.98693 0.0
C939 C 0.55477 0.70451 0.99528 0.0
C940 C 0.54396 0.7197 0.02014 0.0
H941 H 0.47092 0.61111 0.93354 0.0
H942 H 0.48833 0.63985 0.97067 0.0
C943 C 0.55319 0.7371 0.0365 0.0
C944 C 0.54492 0.68617 0.97761 0.0
H945 H 0.53169 0.65937 0.85718 0.0
C946 C 0.53742 0.67388 0.02155 0.0
C947 C 0.54286 0.68089 0.91772 0.0
C948 C 0.55024 0.69389 0.86892 0.0
C949 C 0.52813 0.6562 0.00709 0.0
C950 C 0.5259 0.65097 0.94698 0.0
C951 C 0.53344 0.66334 0.9032 0.0
C952 C 0.51565 0.6329 0.92798 0.0
C953 C 0.52121 0.64313 0.05633 0.0
C954 C 0.52508 0.61958 0.89077 0.0
C955 C 0.51511 0.60328 0.86899 0.0
C956 C 0.49547 0.59996 0.88395 0.0
C957 C 0.48612 0.61315 0.92188 0.0
C958 C 0.49608 0.62954 0.94335 0.0
H959 H 0.52904 0.64629 0.09822 0.0
H960 H 0.50545 0.6456 0.06409 0.0
H961 H 0.52325 0.62755 0.04496 0.0
H962 H 0.54016 0.6219 0.87817 0.0
H963 H 0.52277 0.59326 0.8404 0.0
H964 H 0.78145 0.51407 0.1461 0.0
H965 H 0.80927 0.5025 0.08852 0.0
H966 H 0.81562 0.55929 0.0101 0.0
H967 H 0.78812 0.57105 0.06838 0.0
H968 H 0.80908 0.50266 0.96456 0.0
H969 H 0.87219 0.54465 0.05183 0.0
H970 H 0.84976 0.5415 0.09266 0.0
H971 H 0.85136 0.55933 0.03496 0.0
C972 C 0.78923 0.52429 0.11839 0.0
C973 C 0.78282 0.54356 0.11254 0.0
C974 C 0.80499 0.5176 0.08503 0.0
C975 C 0.81467 0.53012 0.04573 0.0
C976 C 0.80863 0.54951 0.04109 0.0
H977 H 0.87393 0.50953 0.72 0.0
H978 H 0.85246 0.51922 0.80081 0.0
C979 C 0.79283 0.55616 0.07409 0.0
C980 C 0.82961 0.52251 0.00476 0.0
H981 H 0.87639 0.52961 0.95725 0.0
C982 C 0.82388 0.50836 0.96345 0.0
C983 C 0.8489 0.52993 0.00359 0.0
C984 C 0.85602 0.54457 0.04847 0.0
C985 C 0.83671 0.50196 0.9195 0.0
C986 C 0.8557 0.51005 0.91663 0.0
C987 C 0.86173 0.52362 0.95931 0.0
C988 C 0.86924 0.50487 0.86848 0.0
C989 C 0.82983 0.48675 0.87598 0.0
C990 C 0.88599 0.49396 0.88015 0.0
C991 C 0.8982 0.48822 0.83401 0.0
C992 C 0.89394 0.49346 0.77545 0.0
C993 C 0.87743 0.50492 0.76436 0.0
C994 C 0.86519 0.51054 0.81046 0.0
H995 H 0.81655 0.479 0.89172 0.0
H996 H 0.8263 0.49389 0.83351 0.0
H997 H 0.84144 0.47591 0.86755 0.0
H998 H 0.88933 0.48948 0.92476 0.0
H999 H 0.91068 0.47925 0.84406 0.0
H1000 H 0.07026 0.18579 0.8754 0.0
H1001 H 0.06696 0.15746 0.81085 0.0
H1002 H 0.00566 0.16929 0.78948 0.0
H1003 H 0.00894 0.19794 0.85275 0.0
H1004 H 0.04507 0.12661 0.83682 0.0
H1005 H 0.02074 0.15594 0.62211 0.0
H1006 H 0.03115 0.1712 0.67916 0.0
H1007 H 0.00586 0.16405 0.68226 0.0
C1008 C 0.05614 0.18255 0.85621 0.0
C1009 C 0.03983 0.19404 0.86947 0.0
C1010 C 0.05429 0.16639 0.81916 0.0
C1011 C 0.03612 0.16138 0.79472 0.0
C1012 C 0.01993 0.17314 0.80657 0.0
H1013 H 0.98632 0.05276 0.68486 0.0
H1014 H 0.99362 0.08544 0.72264 0.0
C1015 C 0.02179 0.18941 0.84327 0.0
C1016 C 0.03366 0.14264 0.76307 0.0
H1017 H 0.01578 0.1216 0.63723 0.0
C1018 C 0.03889 0.12558 0.79288 0.0
C1019 C 0.02564 0.14129 0.70564 0.0
C1020 C 0.02071 0.15912 0.67017 0.0
C1021 C 0.0358 0.10723 0.76761 0.0
C1022 C 0.02721 0.10585 0.71131 0.0
C1023 C 0.0223 0.12281 0.68067 0.0
C1024 C 0.02258 0.08672 0.68513 0.0
C1025 C 0.04166 0.08932 0.8011 0.0
C1026 C 0.03656 0.07673 0.65191 0.0
C1027 C 0.03242 0.05809 0.6302 0.0
C1028 C 0.01427 0.04926 0.64156 0.0
C1029 C 0.00034 0.05934 0.67492 0.0
C1030 C 0.00447 0.07796 0.69646 0.0
H1031 H 0.04757 0.09278 0.84554 0.0
H1032 H 0.02893 0.07938 0.80597 0.0
H1033 H 0.053 0.08158 0.77546 0.0
H1034 H 0.0507 0.08327 0.6434 0.0
H1035 H 0.04338 0.05062 0.6045 0.0
H1036 H 0.33191 0.10401 0.9275 0.0
H1037 H 0.35937 0.10067 0.85907 0.0
H1038 H 0.34291 0.04086 0.82679 0.0
H1039 H 0.31536 0.04418 0.89344 0.0
H1040 H 0.38961 0.07724 0.87091 0.0
H1041 H 0.35307 0.05881 0.66151 0.0
H1042 H 0.34003 0.06888 0.72353 0.0
H1043 H 0.34446 0.04308 0.71891 0.0
C1044 C 0.33402 0.09024 0.90513 0.0
C1045 C 0.32147 0.07436 0.91583 0.0
C1046 C 0.34966 0.08838 0.86595 0.0
C1047 C 0.35293 0.07065 0.83679 0.0
C1048 C 0.34031 0.05487 0.8472 0.0
H1049 H 0.45138 0.00698 0.7516 0.0
H1050 H 0.42376 0.02486 0.79216 0.0
C1051 C 0.32467 0.05674 0.88594 0.0
C1052 C 0.37064 0.06775 0.80052 0.0
H1053 H 0.38625 0.04653 0.67291 0.0
C1054 C 0.38887 0.07096 0.82705 0.0
C1055 C 0.36975 0.05993 0.74277 0.0
C1056 C 0.35075 0.0577 0.70986 0.0
C1057 C 0.4061 0.06506 0.79932 0.0
C1058 C 0.40501 0.05539 0.7444 0.0
C1059 C 0.38698 0.05363 0.71563 0.0
C1060 C 0.42203 0.04518 0.7196 0.0
C1061 C 0.42534 0.06878 0.82955 0.0
C1062 C 0.42984 0.05038 0.66462 0.0
C1063 C 0.44573 0.04021 0.64154 0.0
C1064 C 0.45391 0.02477 0.67327 0.0
C1065 C 0.44572 0.01928 0.72739 0.0
C1066 C 0.42995 0.02944 0.75045 0.0
H1067 H 0.42429 0.08064 0.86275 0.0
H1068 H 0.43001 0.05537 0.85258 0.0
H1069 H 0.43667 0.07274 0.7967 0.0
H1070 H 0.42371 0.06233 0.63986 0.0
H1071 H 0.45175 0.04449 0.5993 0.0
H1072 H 0.43469 0.3553 0.98514 0.0
H1073 H 0.44345 0.38276 0.92198 0.0
H1074 H 0.45928 0.34306 0.78275 0.0
H1075 H 0.45079 0.31547 0.84577 0.0
H1076 H 0.48804 0.37022 0.80851 0.0
H1077 H 0.41656 0.40606 0.77767 0.0
H1078 H 0.4224 0.40146 0.8535 0.0
H1079 H 0.41874 0.38135 0.80375 0.0
C1080 C 0.43976 0.3524 0.94079 0.0
C1081 C 0.4421 0.33321 0.92052 0.0
C1082 C 0.44465 0.36812 0.90465 0.0
C1083 C 0.45181 0.36491 0.84754 0.0
C1084 C 0.4537 0.3458 0.82665 0.0
H1085 H 0.47818 0.45558 0.591 0.0
H1086 H 0.46668 0.42557 0.63829 0.0
C1087 C 0.44882 0.33007 0.86272 0.0
C1088 C 0.45879 0.38144 0.81149 0.0
H1089 H 0.44487 0.42473 0.75189 0.0
C1090 C 0.47857 0.38205 0.79564 0.0
C1091 C 0.44634 0.39673 0.79436 0.0
C1092 C 0.42478 0.39634 0.80766 0.0
C1093 C 0.48638 0.3979 0.76461 0.0
C1094 C 0.47411 0.41354 0.74977 0.0
C1095 C 0.45422 0.41271 0.76397 0.0
C1096 C 0.48177 0.43111 0.72045 0.0
C1097 C 0.50765 0.39785 0.74762 0.0
C1098 C 0.49412 0.44395 0.75113 0.0
C1099 C 0.50068 0.46103 0.72431 0.0
C1100 C 0.49485 0.46551 0.6667 0.0
C1101 C 0.48285 0.45241 0.63556 0.0
C1102 C 0.47622 0.43537 0.66248 0.0
H1103 H 0.5143 0.38327 0.7532 0.0
H1104 H 0.50941 0.40245 0.70104 0.0
H1105 H 0.51576 0.40839 0.77569 0.0
H1106 H 0.4984 0.44091 0.79612 0.0
H1107 H 0.51015 0.47082 0.74876 0.0
H1108 H 0.21017 0.50574 0.84195 0.0
H1109 H 0.1816 0.51508 0.78406 0.0
H1110 H 0.16119 0.4556 0.78488 0.0
H1111 H 0.1897 0.44607 0.84248 0.0
H1112 H 0.15529 0.47804 0.67285 0.0
H1113 H 0.12838 0.51429 0.87683 0.0
H1114 H 0.15239 0.52107 0.85197 0.0
H1115 H 0.14788 0.4968 0.87798 0.0
C1116 C 0.19984 0.49455 0.82875 0.0
C1117 C 0.20207 0.4752 0.84766 0.0
C1118 C 0.18351 0.49993 0.79575 0.0
C1119 C 0.16919 0.48607 0.78099 0.0
C1120 C 0.17208 0.46652 0.79599 0.0
H1121 H 0.05148 0.48069 0.64858 0.0
H1122 H 0.08555 0.47463 0.67306 0.0
C1123 C 0.18837 0.46112 0.82909 0.0
C1124 C 0.15021 0.49218 0.75615 0.0
H1125 H 0.10802 0.51502 0.79409 0.0
C1126 C 0.14497 0.48627 0.69901 0.0
C1127 C 0.13681 0.50286 0.79054 0.0
C1128 C 0.14148 0.50906 0.8529 0.0
C1129 C 0.12658 0.49076 0.67533 0.0
C1130 C 0.11297 0.50104 0.71039 0.0
C1131 C 0.11845 0.50723 0.7671 0.0
C1132 C 0.09266 0.50484 0.69091 0.0
C1133 C 0.12199 0.48445 0.61307 0.0
C1134 C 0.08506 0.52374 0.69421 0.0
C1135 C 0.06538 0.52711 0.68227 0.0
C1136 C 0.0529 0.51166 0.66633 0.0
C1137 C 0.06062 0.49284 0.66163 0.0
C1138 C 0.08023 0.48942 0.67449 0.0
H1139 H 0.13547 0.48345 0.58607 0.0
H1140 H 0.11516 0.46976 0.61402 0.0
H1141 H 0.11176 0.49459 0.59123 0.0
H1142 H 0.0943 0.53587 0.70723 0.0
H1143 H 0.05986 0.54175 0.68682 0.0
H1144 H 0.00893 0.79962 0.27156 0.0
H1145 H 0.00287 0.83355 0.29898 0.0
H1146 H 0.98889 0.81545 0.47619 0.0
H1147 H 0.99633 0.78176 0.44984 0.0
H1148 H 0.9749 0.85536 0.3396 0.0
H1149 H 0.03223 0.85178 0.51108 0.0
H1150 H 0.02783 0.83209 0.46023 0.0
H1151 H 0.01287 0.8348 0.52509 0.0
C1152 C 0.00427 0.8029 0.31609 0.0
C1153 C 0.00317 0.78817 0.35888 0.0
C1154 C 0.00084 0.82229 0.33179 0.0
C1155 C 0.996 0.82718 0.3902 0.0
C1156 C 0.99333 0.81218 0.43148 0.0
H1157 H 0.96464 0.94609 0.50017 0.0
H1158 H 0.96272 0.91248 0.46313 0.0
C1159 C 0.99736 0.79292 0.41629 0.0
C1160 C 0.99504 0.84794 0.40874 0.0
H1161 H 0.01324 0.88028 0.50937 0.0
C1162 C 0.98335 0.86085 0.37655 0.0
C1163 C 0.00634 0.85523 0.45635 0.0
C1164 C 0.02067 0.8428 0.48971 0.0
C1165 C 0.9827 0.88081 0.3905 0.0
C1166 C 0.99346 0.8879 0.43944 0.0
C1167 C 0.00492 0.8749 0.47196 0.0
C1168 C 0.99405 0.90881 0.45675 0.0
C1169 C 0.97104 0.8941 0.35136 0.0
C1170 C 0.01221 0.91792 0.46624 0.0
C1171 C 0.01325 0.93671 0.48918 0.0
C1172 C 0.99618 0.94697 0.50193 0.0
C1173 C 0.97797 0.93839 0.49006 0.0
C1174 C 0.9769 0.91928 0.4685 0.0
H1175 H 0.96883 0.88769 0.30683 0.0
H1176 H 0.95644 0.89637 0.3712 0.0
H1177 H 0.97831 0.9085 0.34636 0.0
H1178 H 0.02566 0.91027 0.45734 0.0
H1179 H 0.02745 0.94318 0.49764 0.0
H1180 H 0.70163 0.99105 0.34239 0.0
H1181 H 0.67099 0.99698 0.3945 0.0
H1182 H 0.64139 0.00432 0.22849 0.0
H1183 H 0.67198 0.99847 0.17574 0.0
H1184 H 0.64143 0.03072 0.3806 0.0
H1185 H 0.61531 0.95617 0.32141 0.0
H1186 H 0.64089 0.96268 0.32109 0.0
H1187 H 0.6252 0.97124 0.26365 0.0
C1188 C 0.68867 0.99419 0.31692 0.0
C1189 C 0.68919 0.99414 0.25494 0.0
C1190 C 0.67122 0.99763 0.34678 0.0
C1191 C 0.65401 0.00093 0.3152 0.0
C1192 C 0.65458 0.00172 0.25346 0.0
H1193 H 0.53393 0.99601 0.43712 0.0
H1194 H 0.56341 0.99788 0.37709 0.0
C1195 C 0.67207 0.99842 0.22349 0.0
C1196 C 0.63525 0.00204 0.34692 0.0
H1197 H 0.5947 0.97523 0.38009 0.0
C1198 C 0.63111 0.01868 0.38038 0.0
C1199 C 0.62192 0.98628 0.3462 0.0
C1200 C 0.62596 0.96798 0.31149 0.0
C1201 C 0.61382 0.01999 0.41332 0.0
C1202 C 0.60069 0.00398 0.41394 0.0
C1203 C 0.60478 0.98746 0.37967 0.0
C1204 C 0.58276 0.0038 0.45048 0.0
C1205 C 0.60969 0.0386 0.44634 0.0
C1206 C 0.58385 0.00633 0.51183 0.0
C1207 C 0.56698 0.00539 0.54632 0.0
C1208 C 0.54875 0.00153 0.52019 0.0
C1209 C 0.54775 0.99883 0.45878 0.0
C1210 C 0.56458 0.99998 0.42431 0.0
H1211 H 0.61766 0.05116 0.42682 0.0
H1212 H 0.59385 0.04187 0.44652 0.0
H1213 H 0.61463 0.03706 0.49266 0.0
H1214 H 0.59778 0.00873 0.53323 0.0
H1215 H 0.56829 0.0074 0.59354 0.0
H1216 H 0.56312 0.67466 0.17155 0.0
H1217 H 0.55395 0.64595 0.22854 0.0
H1218 H 0.51232 0.67996 0.32642 0.0
H1219 H 0.52171 0.70892 0.27041 0.0
H1220 H 0.53641 0.65945 0.39768 0.0
H1221 H 0.50612 0.61103 0.22413 0.0
H1222 H 0.53006 0.62009 0.20688 0.0
H1223 H 0.51005 0.63676 0.21276 0.0
C1224 C 0.55187 0.67602 0.20478 0.0
C1225 C 0.54324 0.6941 0.21678 0.0
C1226 C 0.54652 0.65954 0.23696 0.0
C1227 C 0.5323 0.66078 0.28122 0.0
C1228 C 0.52329 0.6787 0.29225 0.0
H1229 H 0.48448 0.56298 0.47829 0.0
H1230 H 0.489 0.59131 0.41417 0.0
C1231 C 0.52866 0.69521 0.26021 0.0
C1232 C 0.528 0.6438 0.31917 0.0
H1233 H 0.51383 0.59608 0.31644 0.0
C1234 C 0.53131 0.64565 0.37999 0.0
C1235 C 0.52121 0.62586 0.29599 0.0
C1236 C 0.51646 0.62333 0.23144 0.0
C1237 C 0.52841 0.6299 0.4182 0.0
C1238 C 0.52241 0.61175 0.39471 0.0
C1239 C 0.51866 0.60999 0.33411 0.0
C1240 C 0.51983 0.59446 0.43259 0.0
C1241 C 0.53164 0.63288 0.48343 0.0
C1242 C 0.53571 0.58682 0.4637 0.0
C1243 C 0.53311 0.57081 0.50068 0.0
C1244 C 0.51468 0.56201 0.50631 0.0
C1245 C 0.49883 0.56957 0.47483 0.0
C1246 C 0.50141 0.58563 0.43799 0.0
H1247 H 0.53119 0.64854 0.49574 0.0
H1248 H 0.5205 0.6249 0.50964 0.0
H1249 H 0.54622 0.62724 0.49561 0.0
H1250 H 0.5501 0.59328 0.45947 0.0
H1251 H 0.54547 0.56543 0.52525 0.0
H1252 H 0.80553 0.5078 0.28659 0.0
H1253 H 0.83828 0.51669 0.32223 0.0
H1254 H 0.82206 0.49878 0.49776 0.0
H1255 H 0.78974 0.48927 0.46201 0.0
H1256 H 0.85347 0.54125 0.40767 0.0
H1257 H 0.86831 0.46453 0.46565 0.0
H1258 H 0.84733 0.47149 0.42286 0.0
H1259 H 0.84701 0.47359 0.50203 0.0
C1260 C 0.80887 0.50613 0.33294 0.0
C1261 C 0.79515 0.49785 0.3718 0.0
C1262 C 0.8276 0.51112 0.35321 0.0
C1263 C 0.83278 0.50793 0.41239 0.0
C1264 C 0.81861 0.50084 0.45162 0.0
H1265 H 0.9334 0.52202 0.63642 0.0
H1266 H 0.9008 0.51894 0.59368 0.0
C1267 C 0.8001 0.49559 0.4313 0.0
C1268 C 0.85313 0.51106 0.43306 0.0
H1269 H 0.89077 0.48821 0.50252 0.0
C1270 C 0.86169 0.52963 0.42798 0.0
C1271 C 0.86396 0.49582 0.45907 0.0
C1272 C 0.85627 0.4752 0.46218 0.0
C1273 C 0.88051 0.53348 0.45014 0.0
C1274 C 0.89093 0.51839 0.47791 0.0
C1275 C 0.88257 0.49979 0.48192 0.0
C1276 C 0.91058 0.5215 0.50339 0.0
C1277 C 0.88901 0.55371 0.44508 0.0
C1278 C 0.92687 0.52378 0.46666 0.0
C1279 C 0.94558 0.52529 0.4909 0.0
C1280 C 0.94832 0.52474 0.5523 0.0
C1281 C 0.93188 0.5226 0.58893 0.0
C1282 C 0.9132 0.52089 0.56465 0.0
H1283 H 0.8781 0.5644 0.42944 0.0
H1284 H 0.89483 0.55861 0.48837 0.0
H1285 H 0.90136 0.55353 0.41344 0.0
H1286 H 0.92516 0.52391 0.41919 0.0
H1287 H 0.95788 0.52645 0.46144 0.0
loop_
_geom_bond_atom_site_label_1
_geom_bond_atom_site_label_2
_geom_bond_distance
_geom_bond_site_symmetry_2
_ccdc_geom_bond_type
O0 Cd1 2.300 . S
O0 C7 1.275 . S
Cd1 O0 2.300 . S
Cd1 O9 2.381 . S
Cd1 O10 2.378 . S
O2 Cd3 2.385 . S
O2 C7 1.255 . S
Cd3 O2 2.385 . S
Cd3 O4 2.317 . S
O4 Cd3 2.317 . S
O4 C5 1.232 . S
C5 O4 1.232 . S
C5 O6 1.218 . S
O6 C5 1.218 . S
C7 O0 1.275 . S
C7 O2 1.255 . S
C8 O9 1.258 . S
C8 O10 1.256 . S
O9 Cd1 2.381 . S
O9 C8 1.258 . S
O10 Cd1 2.378 . S
O10 C8 1.256 . S
O11 Cd12 2.300 . S
O11 C18 1.275 . S
Cd12 O11 2.300 . S
Cd12 O20 2.381 . S
Cd12 O21 2.378 . S
O13 Cd14 2.385 1_655 S
O13 C18 1.255 . S
Cd14 O13 2.385 1_455 S
Cd14 O15 2.317 1_455 S
O15 Cd14 2.317 1_655 S
O15 C16 1.232 . S
C16 O15 1.232 . S
C16 O17 1.218 . S
O17 C16 1.218 . S
C18 O11 1.275 . S
C18 O13 1.255 . S
C19 O20 1.258 . S
C19 O21 1.256 . S
O20 Cd12 2.381 . S
O20 C19 1.258 . S
O21 Cd12 2.378 . S
O21 C19 1.256 . S
O22 Cd23 2.300 . S
O22 C29 1.275 . S
Cd23 O22 2.300 . S
Cd23 O31 2.381 . S
Cd23 O32 2.378 . S
O24 Cd25 2.385 1_565 S
O24 C29 1.255 . S
Cd25 O24 2.385 1_545 S
Cd25 O26 2.317 1_545 S
O26 Cd25 2.317 1_565 S
O26 C27 1.232 . S
C27 O26 1.232 . S
C27 O28 1.218 . S
O28 C27 1.218 . S
C29 O22 1.275 . S
C29 O24 1.255 . S
C30 O31 1.258 . S
C30 O32 1.256 . S
O31 Cd23 2.381 . S
O31 C30 1.258 . S
O32 Cd23 2.378 . S
O32 C30 1.256 . S
O33 Cd34 2.300 . S
O33 C40 1.275 . S
Cd34 O33 2.300 . S
Cd34 O42 2.381 . S
Cd34 O43 2.378 . S
O35 Cd36 2.385 . S
O35 C40 1.255 . S
Cd36 O35 2.385 . S
Cd36 O37 2.317 . S
O37 Cd36 2.317 . S
O37 C38 1.232 . S
C38 O37 1.232 . S
C38 O39 1.218 . S
O39 C38 1.218 . S
C40 O33 1.275 . S
C40 O35 1.255 . S
C41 O42 1.258 . S
C41 O43 1.256 . S
O42 Cd34 2.381 . S
O42 C41 1.258 . S
O43 Cd34 2.378 . S
O43 C41 1.256 . S
O44 Cd45 2.300 . S
O44 C51 1.275 . S
Cd45 O44 2.300 . S
Cd45 O53 2.381 . S
Cd45 O54 2.378 . S
O46 Cd47 2.385 1_554 S
O46 C51 1.255 . S
Cd47 O46 2.385 1_556 S
Cd47 O48 2.317 . S
O48 Cd47 2.317 . S
O48 C49 1.232 . S
C49 O48 1.232 . S
C49 O50 1.218 . S
O50 C49 1.218 . S
C51 O44 1.275 . S
C51 O46 1.255 . S
C52 O53 1.258 . S
C52 O54 1.256 . S
O53 Cd45 2.381 . S
O53 C52 1.258 . S
O54 Cd45 2.378 . S
O54 C52 1.256 . S
O55 Cd56 2.300 . S
O55 C62 1.275 . S
Cd56 O55 2.300 . S
Cd56 O64 2.381 . S
Cd56 O65 2.378 . S
O57 Cd58 2.385 1_554 S
O57 C62 1.255 . S
Cd58 O57 2.385 1_556 S
Cd58 O59 2.317 . S
O59 Cd58 2.317 . S
O59 C60 1.232 . S
C60 O59 1.232 . S
C60 O61 1.218 . S
O61 C60 1.218 . S
C62 O55 1.275 . S
C62 O57 1.255 . S
C63 O64 1.258 . S
C63 O65 1.256 . S
O64 Cd56 2.381 . S
O64 C63 1.258 . S
O65 Cd56 2.378 . S
O65 C63 1.256 . S
O66 Cd67 2.300 . S
O66 C73 1.275 . S
Cd67 O66 2.300 . S
Cd67 O75 2.381 . S
Cd67 O76 2.378 . S
O68 Cd69 2.385 1_554 S
O68 C73 1.255 . S
Cd69 O68 2.385 1_556 S
Cd69 O70 2.317 . S
O70 Cd69 2.317 . S
O70 C71 1.232 . S
C71 O70 1.232 . S
C71 O72 1.218 . S
O72 C71 1.218 . S
C73 O66 1.275 . S
C73 O68 1.255 . S
C74 O75 1.258 . S
C74 O76 1.256 . S
O75 Cd67 2.381 . S
O75 C74 1.258 . S
O76 Cd67 2.378 . S
O76 C74 1.256 . S
O77 Cd78 2.300 . S
O77 C84 1.275 . S
Cd78 O77 2.300 . S
Cd78 O86 2.381 . S
Cd78 O87 2.378 . S
O79 Cd80 2.385 1_554 S
O79 C84 1.255 . S
Cd80 O79 2.385 1_556 S
Cd80 O81 2.317 . S
O81 Cd80 2.317 . S
O81 C82 1.232 . S
C82 O81 1.232 . S
C82 O83 1.218 . S
O83 C82 1.218 . S
C84 O77 1.275 . S
C84 O79 1.255 . S
C85 O86 1.258 . S
C85 O87 1.256 . S
O86 Cd78 2.381 . S
O86 C85 1.258 . S
O87 Cd78 2.378 . S
O87 C85 1.256 . S
Tb88 N117 2.617 . S
Tb88 N123 2.572 . S
Tb88 O132 2.465 1_655 S
Tb88 O133 2.387 1_545 S
Tb88 O135 2.428 . S
Tb88 O136 2.308 1_655 S
Tb88 O140 2.349 1_655 S
Tb88 O143 2.393 . S
Tb88 C152 2.802 . S
C89 N90 1.379 . S
C89 C92 1.416 . S
C89 C96 1.424 . S
N90 C89 1.379 . S
N90 C93 1.335 1_545 S
N90 Tb99 2.617 1_545 S
C91 C93 1.391 1_545 S
C91 C94 1.339 . S
C91 H111 0.930 . S
C92 C89 1.416 . S
C92 C94 1.416 . S
C92 C98 1.448 . S
C93 N90 1.335 1_565 S
C93 C91 1.391 1_565 S
C93 H104 0.928 . S
C94 C91 1.339 . S
C94 C92 1.416 . S
C94 H115 0.930 . S
C95 C96 1.413 . S
C95 C97 1.427 . S
C95 C101 1.416 . S
C96 C89 1.424 . S
C96 C95 1.413 . S
C96 N100 1.361 . S
C97 C95 1.427 . S
C97 C98 1.328 . S
C97 H112 0.929 . S
C98 C92 1.448 . S
C98 C97 1.328 . S
C98 H113 0.930 . S
Tb99 N90 2.617 1_565 S
Tb99 N100 2.572 1_565 S
Tb99 O134 2.349 . S
Tb99 O137 2.393 . S
Tb99 O138 2.465 . S
Tb99 O139 2.387 1_565 S
Tb99 O141 2.428 . S
Tb99 O142 2.308 1_465 S
Tb99 C163 2.802 . S
N100 C96 1.361 . S
N100 Tb99 2.572 1_545 S
N100 C102 1.340 . S
C101 C95 1.416 . S
C101 C103 1.332 . S
C101 H109 0.931 . S
C102 N100 1.340 . S
C102 C103 1.407 . S
C102 H108 0.930 1_455 S
C103 C101 1.332 . S
C103 C102 1.407 . S
C103 H105 0.929 1_455 S
H104 C93 0.928 . S
H105 C103 0.929 1_655 S
H106 C121 0.930 . S
H107 C128 0.931 . S
H108 C102 0.930 1_655 S
H109 C101 0.931 . S
H110 C124 0.930 . S
H111 C91 0.930 . S
H112 C97 0.929 . S
H113 C98 0.930 . S
H114 C119 0.930 . S
H115 C94 0.930 . S
H116 C127 0.931 . S
N117 Tb88 2.617 . S
N117 C118 1.379 . S
N117 C121 1.334 . S
C118 N117 1.379 . S
C118 C120 1.426 . S
C118 C126 1.424 . S
C119 H114 0.930 . S
C119 C121 1.390 . S
C119 C122 1.339 . S
C120 C118 1.426 . S
C120 C122 1.419 . S
C120 C153 1.436 1_545 S
C121 H106 0.930 . S
C121 N117 1.334 . S
C121 C119 1.390 . S
C122 C119 1.339 . S
C122 C120 1.419 . S
C122 H129 0.930 1_545 S
N123 Tb88 2.572 . S
N123 C124 1.340 1_655 S
N123 C126 1.361 . S
C124 H110 0.930 . S
C124 N123 1.340 1_455 S
C124 C128 1.407 . S
C125 C126 1.413 1_565 S
C125 C127 1.416 . S
C125 C154 1.427 . S
C126 C118 1.424 . S
C126 N123 1.361 . S
C126 C125 1.413 1_545 S
C127 H116 0.931 . S
C127 C125 1.416 . S
C127 C128 1.332 1_665 S
C128 H107 0.931 . S
C128 C124 1.407 . S
C128 C127 1.332 1_445 S
H129 C122 0.930 1_565 S
H130 C153 0.930 . S
H131 C154 0.929 . S
O132 Tb88 2.465 1_455 S
O132 C152 1.264 1_455 S
O133 Tb88 2.387 1_565 S
O133 C144 1.264 . S
O134 Tb99 2.349 . S
O134 C144 1.243 1_455 S
O135 Tb88 2.428 . S
O135 C152 1.256 . S
O136 Tb88 2.308 1_455 S
O136 C151 1.266 . S
O137 Tb99 2.393 . S
O137 C151 1.248 1_565 S
O138 Tb99 2.465 . S
O138 C163 1.264 . S
O139 Tb99 2.387 1_545 S
O139 C155 1.264 . S
O140 Tb88 2.349 1_455 S
O140 C155 1.243 . S
O141 Tb99 2.428 . S
O141 C163 1.256 . S
O142 Tb99 2.308 1_645 S
O142 C162 1.266 . S
O143 Tb88 2.393 . S
O143 C162 1.248 . S
C144 O133 1.264 . S
C144 O134 1.243 1_655 S
C145 C148 1.399 . S
C145 C150 1.360 1_655 S
C145 C152 1.496 . S
C146 C147 1.399 . S
C146 C150 1.387 1_655 S
C147 C146 1.399 . S
C147 C149 1.380 . S
C147 H164 0.929 . S
C148 C145 1.399 . S
C148 C149 1.392 . S
C148 H165 0.929 . S
C149 C147 1.380 . S
C149 C148 1.392 . S
C149 H166 0.929 . S
C150 C145 1.360 1_455 S
C150 C146 1.387 1_455 S
C150 H167 0.958 . S
C151 O136 1.266 . S
C151 O137 1.248 1_545 S
C152 Tb88 2.802 . S
C152 O132 1.264 1_655 S
C152 O135 1.256 . S
C152 C145 1.496 . S
C153 C120 1.436 1_565 S
C153 H130 0.930 . S
C153 C154 1.328 . S
C154 C125 1.427 . S
C154 H131 0.929 . S
C154 C153 1.328 . S
C155 O139 1.264 . S
C155 O140 1.243 . S
C156 C159 1.399 . S
C156 C160 1.383 . S
C156 C163 1.496 . S
C157 C158 1.399 . S
C157 C160 1.389 . S
C158 C157 1.399 . S
C158 C161 1.380 . S
C158 H168 0.929 . S
C159 C156 1.399 . S
C159 C161 1.392 . S
C159 H169 0.929 . S
C160 C156 1.383 . S
C160 C157 1.389 . S
C160 H170 0.931 1_455 S
C161 C158 1.380 . S
C161 C159 1.392 . S
C161 H171 0.929 . S
C162 O142 1.266 . S
C162 O143 1.248 . S
C163 Tb99 2.802 . S
C163 O138 1.264 . S
C163 O141 1.256 . S
C163 C156 1.496 . S
H164 C147 0.929 . S
H165 C148 0.929 . S
H166 C149 0.929 . S
H167 C150 0.958 . S
H168 C158 0.929 . S
H169 C159 0.929 . S
H170 C160 0.931 1_655 S
H171 C161 0.929 . S
Tb172 N201 2.617 . S
Tb172 N207 2.572 . S
Tb172 O216 2.465 . S
Tb172 O217 2.387 . S
Tb172 O219 2.428 . S
Tb172 O220 2.308 . S
Tb172 O224 2.349 1_545 S
Tb172 O227 2.393 . S
Tb172 C236 2.802 . S
C173 N174 1.379 . S
C173 C176 1.416 . S
C173 C180 1.424 . S
N174 C173 1.379 . S
N174 C177 1.334 . S
N174 Tb183 2.617 . S
C175 C177 1.390 . S
C175 C178 1.339 . S
C175 H195 0.930 . S
C176 C173 1.416 . S
C176 C178 1.416 . S
C176 C182 1.448 . S
C177 N174 1.334 . S
C177 C175 1.390 . S
C177 H188 0.930 . S
C178 C175 1.339 . S
C178 C176 1.416 . S
C178 H199 0.930 . S
C179 C180 1.413 . S
C179 C181 1.427 . S
C179 C185 1.416 . S
C180 C173 1.424 . S
C180 C179 1.413 . S
C180 N184 1.361 . S
C181 C179 1.427 . S
C181 C182 1.328 . S
C181 H196 0.929 . S
C182 C176 1.448 . S
C182 C181 1.328 . S
C182 H197 0.930 . S
Tb183 N174 2.617 . S
Tb183 N184 2.572 . S
Tb183 O218 2.349 1_565 S
Tb183 O221 2.393 . S
Tb183 O222 2.462 1_565 S
Tb183 O223 2.387 . S
Tb183 O225 2.428 . S
Tb183 O226 2.308 1_565 S
Tb183 C247 2.802 . S
N184 C180 1.361 . S
N184 Tb183 2.572 . S
N184 C186 1.340 . S
C185 C179 1.416 . S
C185 C187 1.332 . S
C185 H193 0.931 . S
C186 N184 1.340 . S
C186 C187 1.407 . S
C186 H192 0.930 . S
C187 C185 1.332 . S
C187 C186 1.407 . S
C187 H189 0.929 . S
H188 C177 0.930 . S
H189 C187 0.929 . S
H190 C205 0.930 . S
H191 C212 0.929 . S
H192 C186 0.930 . S
H193 C185 0.931 . S
H194 C208 0.930 . S
H195 C175 0.930 . S
H196 C181 0.929 . S
H197 C182 0.930 . S
H198 C203 0.930 . S
H199 C178 0.930 . S
H200 C211 0.931 . S
N201 Tb172 2.617 . S
N201 C202 1.379 . S
N201 C205 1.334 . S
C202 N201 1.379 . S
C202 C204 1.416 . S
C202 C210 1.424 . S
C203 H198 0.930 . S
C203 C205 1.390 . S
C203 C206 1.339 . S
C204 C202 1.416 . S
C204 C206 1.416 . S
C204 C237 1.448 . S
C205 H190 0.930 . S
C205 N201 1.334 . S
C205 C203 1.390 . S
C206 C203 1.339 . S
C206 C204 1.416 . S
C206 H213 0.930 . S
N207 Tb172 2.572 . S
N207 C208 1.340 . S
N207 C210 1.361 . S
C208 H194 0.930 . S
C208 N207 1.340 . S
C208 C212 1.407 . S
C209 C210 1.413 . S
C209 C211 1.416 . S
C209 C238 1.427 . S
C210 C202 1.424 . S
C210 N207 1.361 . S
C210 C209 1.413 . S
C211 H200 0.931 . S
C211 C209 1.416 . S
C211 C212 1.332 . S
C212 H191 0.929 . S
C212 C208 1.407 . S
C212 C211 1.332 . S
H213 C206 0.930 . S
H214 C237 0.930 . S
H215 C238 0.929 . S
O216 Tb172 2.465 . S
O216 C236 1.264 . S
O217 Tb172 2.387 . S
O217 C228 1.264 . S
O218 Tb183 2.349 1_545 S
O218 C228 1.243 . S
O219 Tb172 2.428 . S
O219 C236 1.256 . S
O220 Tb172 2.308 . S
O220 C235 1.266 . S
O221 Tb183 2.393 . S
O221 C235 1.248 1_565 S
O222 Tb183 2.462 1_545 S
O222 C247 1.262 1_545 S
O223 Tb183 2.387 . S
O223 C239 1.264 . S
O224 Tb172 2.349 1_565 S
O224 C239 1.243 . S
O225 Tb183 2.428 . S
O225 C247 1.256 . S
O226 Tb183 2.308 1_545 S
O226 C246 1.266 . S
O227 Tb172 2.393 . S
O227 C246 1.248 . S
C228 O217 1.264 . S
C228 O218 1.243 . S
C229 C232 1.399 . S
C229 C234 1.383 . S
C229 C236 1.496 . S
C230 C231 1.399 . S
C230 C234 1.389 . S
C231 C230 1.399 . S
C231 C233 1.380 . S
C231 H248 0.929 . S
C232 C229 1.399 . S
C232 C233 1.392 . S
C232 H249 0.929 . S
C233 C231 1.380 . S
C233 C232 1.392 . S
C233 H250 0.929 . S
C234 C229 1.383 . S
C234 C230 1.389 . S
C234 H251 0.931 . S
C235 O220 1.266 . S
C235 O221 1.248 1_545 S
C236 Tb172 2.802 . S
C236 O216 1.264 . S
C236 O219 1.256 . S
C236 C229 1.496 . S
C237 C204 1.448 . S
C237 H214 0.930 . S
C237 C238 1.328 . S
C238 C209 1.427 . S
C238 H215 0.929 . S
C238 C237 1.328 . S
C239 O223 1.264 . S
C239 O224 1.243 . S
C240 C243 1.395 1_545 S
C240 C244 1.389 . S
C240 C247 1.494 1_545 S
C241 C242 1.399 . S
C241 C244 1.389 . S
C242 C241 1.399 . S
C242 C245 1.380 1_545 S
C242 H252 0.929 . S
C243 C240 1.395 1_565 S
C243 C245 1.392 . S
C243 H253 0.929 . S
C244 C240 1.389 . S
C244 C241 1.389 . S
C244 H254 0.931 . S
C245 C242 1.380 1_565 S
C245 C243 1.392 . S
C245 H255 0.929 . S
C246 O226 1.266 . S
C246 O227 1.248 . S
C247 Tb183 2.802 . S
C247 O222 1.262 1_565 S
C247 O225 1.256 . S
C247 C240 1.494 1_565 S
H248 C231 0.929 . S
H249 C232 0.929 . S
H250 C233 0.929 . S
H251 C234 0.931 . S
H252 C242 0.929 . S
H253 C243 0.929 . S
H254 C244 0.931 . S
H255 C245 0.929 . S
Tb256 N285 2.617 . S
Tb256 N291 2.572 . S
Tb256 O300 2.465 . S
Tb256 O301 2.387 . S
Tb256 O303 2.428 . S
Tb256 O304 2.308 . S
Tb256 O308 2.349 . S
Tb256 O311 2.393 . S
Tb256 C320 2.802 . S
C257 N258 1.379 . S
C257 C260 1.416 . S
C257 C264 1.424 . S
N258 C257 1.379 . S
N258 C261 1.334 . S
N258 Tb267 2.617 . S
C259 C261 1.390 . S
C259 C262 1.339 . S
C259 H279 0.930 . S
C260 C257 1.416 . S
C260 C262 1.416 . S
C260 C266 1.448 . S
C261 N258 1.334 . S
C261 C259 1.390 . S
C261 H272 0.930 . S
C262 C259 1.339 . S
C262 C260 1.416 . S
C262 H283 0.930 . S
C263 C264 1.413 . S
C263 C265 1.427 . S
C263 C269 1.416 . S
C264 C257 1.424 . S
C264 C263 1.413 . S
C264 N268 1.361 . S
C265 C263 1.427 . S
C265 C266 1.328 . S
C265 H280 0.929 . S
C266 C260 1.448 . S
C266 C265 1.328 . S
C266 H281 0.930 . S
Tb267 N258 2.617 . S
Tb267 N268 2.572 . S
Tb267 O302 2.349 . S
Tb267 O305 2.393 . S
Tb267 O306 2.465 . S
Tb267 O307 2.387 . S
Tb267 O309 2.428 . S
Tb267 O310 2.308 . S
Tb267 C331 2.802 . S
N268 C264 1.361 . S
N268 Tb267 2.572 . S
N268 C270 1.340 . S
C269 C263 1.416 . S
C269 C271 1.332 . S
C269 H277 0.931 . S
C270 N268 1.340 . S
C270 C271 1.407 . S
C270 H276 0.930 . S
C271 C269 1.332 . S
C271 C270 1.407 . S
C271 H273 0.929 . S
H272 C261 0.930 . S
H273 C271 0.929 . S
H274 C289 0.930 . S
H275 C296 0.929 . S
H276 C270 0.930 . S
H277 C269 0.931 . S
H278 C292 0.930 . S
H279 C259 0.930 . S
H280 C265 0.929 . S
H281 C266 0.930 . S
H282 C287 0.930 . S
H283 C262 0.930 . S
H284 C295 0.931 . S
N285 Tb256 2.617 . S
N285 C286 1.379 . S
N285 C289 1.334 . S
C286 N285 1.379 . S
C286 C288 1.416 . S
C286 C294 1.424 . S
C287 H282 0.930 . S
C287 C289 1.390 . S
C287 C290 1.339 . S
C288 C286 1.416 . S
C288 C290 1.416 . S
C288 C321 1.448 . S
C289 H274 0.930 . S
C289 N285 1.334 . S
C289 C287 1.390 . S
C290 C287 1.339 . S
C290 C288 1.416 . S
C290 H297 0.930 . S
N291 Tb256 2.572 . S
N291 C292 1.340 . S
N291 C294 1.361 . S
C292 H278 0.930 . S
C292 N291 1.340 . S
C292 C296 1.407 . S
C293 C294 1.413 . S
C293 C295 1.416 . S
C293 C322 1.427 . S
C294 C286 1.424 . S
C294 N291 1.361 . S
C294 C293 1.413 . S
C295 H284 0.931 . S
C295 C293 1.416 . S
C295 C296 1.332 . S
C296 H275 0.929 . S
C296 C292 1.407 . S
C296 C295 1.332 . S
H297 C290 0.930 . S
H298 C321 0.930 . S
H299 C322 0.929 . S
O300 Tb256 2.465 . S
O300 C320 1.264 . S
O301 Tb256 2.387 . S
O301 C312 1.264 . S
O302 Tb267 2.349 . S
O302 C312 1.243 . S
O303 Tb256 2.428 . S
O303 C320 1.256 . S
O304 Tb256 2.308 . S
O304 C319 1.266 . S
O305 Tb267 2.393 . S
O305 C319 1.248 . S
O306 Tb267 2.465 . S
O306 C331 1.264 . S
O307 Tb267 2.387 . S
O307 C323 1.264 . S
O308 Tb256 2.349 . S
O308 C323 1.243 . S
O309 Tb267 2.428 . S
O309 C331 1.256 . S
O310 Tb267 2.308 . S
O310 C330 1.266 . S
O311 Tb256 2.393 . S
O311 C330 1.248 . S
C312 O301 1.264 . S
C312 O302 1.243 . S
C313 C316 1.399 . S
C313 C318 1.383 . S
C313 C320 1.496 . S
C314 C315 1.399 . S
C314 C318 1.389 . S
C315 C314 1.399 . S
C315 C317 1.380 . S
C315 H332 0.929 . S
C316 C313 1.399 . S
C316 C317 1.392 . S
C316 H333 0.929 . S
C317 C315 1.380 . S
C317 C316 1.392 . S
C317 H334 0.929 . S
C318 C313 1.383 . S
C318 C314 1.389 . S
C318 H335 0.931 . S
C319 O304 1.266 . S
C319 O305 1.248 . S
C320 Tb256 2.802 . S
C320 O300 1.264 . S
C320 O303 1.256 . S
C320 C313 1.496 . S
C321 C288 1.448 . S
C321 H298 0.930 . S
C321 C322 1.328 . S
C322 C293 1.427 . S
C322 H299 0.929 . S
C322 C321 1.328 . S
C323 O307 1.264 . S
C323 O308 1.243 . S
C324 C327 1.399 . S
C324 C328 1.383 . S
C324 C331 1.496 . S
C325 C326 1.399 . S
C325 C328 1.389 . S
C326 C325 1.399 . S
C326 C329 1.380 . S
C326 H336 0.929 . S
C327 C324 1.399 . S
C327 C329 1.392 . S
C327 H337 0.929 . S
C328 C324 1.383 . S
C328 C325 1.389 . S
C328 H338 0.931 . S
C329 C326 1.380 . S
C329 C327 1.392 . S
C329 H339 0.929 . S
C330 O310 1.266 . S
C330 O311 1.248 . S
C331 Tb267 2.802 . S
C331 O306 1.264 . S
C331 O309 1.256 . S
C331 C324 1.496 . S
H332 C315 0.929 . S
H333 C316 0.929 . S
H334 C317 0.929 . S
H335 C318 0.931 . S
H336 C326 0.929 . S
H337 C327 0.929 . S
H338 C328 0.931 . S
H339 C329 0.929 . S
Tb340 N369 2.617 . S
Tb340 N375 2.572 . S
Tb340 O384 2.465 . S
Tb340 O385 2.387 1_455 S
Tb340 O387 2.428 . S
Tb340 O388 2.308 . S
Tb340 O392 2.349 . S
Tb340 O395 2.393 . S
Tb340 C404 2.802 . S
C341 N342 1.379 1_455 S
C341 C344 1.416 . S
C341 C348 1.424 . S
N342 C341 1.379 1_655 S
N342 C345 1.334 . S
N342 Tb351 2.617 . S
C343 C345 1.390 1_455 S
C343 C346 1.339 . S
C343 H363 0.931 1_455 S
C344 C341 1.416 . S
C344 C346 1.416 . S
C344 C350 1.448 . S
C345 N342 1.334 . S
C345 C343 1.390 1_655 S
C345 H356 0.930 . S
C346 C343 1.339 . S
C346 C344 1.416 . S
C346 H367 0.930 . S
C347 C348 1.413 . S
C347 C349 1.427 . S
C347 C353 1.416 . S
C348 C341 1.424 . S
C348 C347 1.413 . S
C348 N352 1.381 . S
C349 C347 1.427 . S
C349 C350 1.328 . S
C349 H364 0.929 . S
C350 C344 1.448 . S
C350 C349 1.328 . S
C350 H365 0.930 . S
Tb351 N342 2.617 . S
Tb351 N352 2.556 1_655 S
Tb351 O386 2.349 . S
Tb351 O389 2.393 . S
Tb351 O390 2.465 . S
Tb351 O391 2.387 1_655 S
Tb351 O393 2.428 . S
Tb351 O394 2.309 . S
Tb351 C415 2.802 . S
N352 C348 1.381 . S
N352 Tb351 2.556 1_455 S
N352 C354 1.347 . S
C353 C347 1.416 . S
C353 C355 1.332 . S
C353 H361 0.931 . S
C354 N352 1.347 . S
C354 C355 1.407 . S
C354 H360 0.930 1_455 S
C355 C353 1.332 . S
C355 C354 1.407 . S
C355 H357 0.929 . S
H356 C345 0.930 . S
H357 C355 0.929 . S
H358 C373 0.930 . S
H359 C380 0.929 . S
H360 C354 0.930 1_655 S
H361 C353 0.931 . S
H362 C376 0.930 . S
H363 C343 0.931 1_655 S
H364 C349 0.929 . S
H365 C350 0.930 . S
H366 C371 0.930 . S
H367 C346 0.930 . S
H368 C379 0.931 . S
N369 Tb340 2.617 . S
N369 C370 1.379 . S
N369 C373 1.334 . S
C370 N369 1.379 . S
C370 C372 1.416 1_455 S
C370 C378 1.424 . S
C371 H366 0.930 . S
C371 C373 1.390 . S
C371 C374 1.335 1_455 S
C372 C370 1.416 1_655 S
C372 C374 1.417 . S
C372 C405 1.448 . S
C373 H358 0.930 . S
C373 N369 1.334 . S
C373 C371 1.390 . S
C374 C371 1.335 1_655 S
C374 C372 1.417 . S
C374 H381 0.933 . S
N375 Tb340 2.572 . S
N375 C376 1.340 . S
N375 C378 1.361 . S
C376 H362 0.930 . S
C376 N375 1.340 . S
C376 C380 1.407 1_455 S
C377 C378 1.413 1_655 S
C377 C379 1.416 . S
C377 C406 1.427 . S
C378 C370 1.424 . S
C378 N375 1.361 . S
C378 C377 1.413 1_455 S
C379 H368 0.931 . S
C379 C377 1.416 . S
C379 C380 1.332 . S
C380 H359 0.929 . S
C380 C376 1.407 1_655 S
C380 C379 1.332 . S
H381 C374 0.933 . S
H382 C405 0.930 . S
H383 C406 0.929 . S
O384 Tb340 2.465 . S
O384 C404 1.264 . S
O385 Tb340 2.387 1_655 S
O385 C396 1.264 . S
O386 Tb351 2.349 . S
O386 C396 1.243 . S
O387 Tb340 2.428 . S
O387 C404 1.256 . S
O388 Tb340 2.308 . S
O388 C403 1.266 . S
O389 Tb351 2.393 . S
O389 C403 1.248 1_655 S
O390 Tb351 2.465 . S
O390 C415 1.264 . S
O391 Tb351 2.387 1_455 S
O391 C407 1.264 . S
O392 Tb340 2.349 . S
O392 C407 1.243 . S
O393 Tb351 2.428 . S
O393 C415 1.256 . S
O394 Tb351 2.309 . S
O394 C414 1.265 1_655 S
O395 Tb340 2.393 . S
O395 C414 1.248 . S
C396 O385 1.264 . S
C396 O386 1.243 . S
C397 C400 1.399 . S
C397 C402 1.383 . S
C397 C404 1.496 . S
C398 C399 1.399 . S
C398 C402 1.389 . S
C399 C398 1.399 . S
C399 C401 1.380 . S
C399 H416 0.929 . S
C400 C397 1.399 . S
C400 C401 1.392 . S
C400 H417 0.929 . S
C401 C399 1.380 . S
C401 C400 1.392 . S
C401 H418 0.929 . S
C402 C397 1.383 . S
C402 C398 1.389 . S
C402 H419 0.931 . S
C403 O388 1.266 . S
C403 O389 1.248 1_455 S
C404 Tb340 2.802 . S
C404 O384 1.264 . S
C404 O387 1.256 . S
C404 C397 1.496 . S
C405 C372 1.448 . S
C405 H382 0.930 . S
C405 C406 1.328 . S
C406 C377 1.427 . S
C406 H383 0.929 . S
C406 C405 1.328 . S
C407 O391 1.264 . S
C407 O392 1.243 . S
C408 C411 1.399 . S
C408 C412 1.383 . S
C408 C415 1.496 . S
C409 C410 1.399 . S
C409 C412 1.389 . S
C410 C409 1.399 . S
C410 C413 1.380 . S
C410 H420 0.929 . S
C411 C408 1.399 . S
C411 C413 1.392 . S
C411 H421 0.929 . S
C412 C408 1.383 . S
C412 C409 1.389 . S
C412 H422 0.931 . S
C413 C410 1.380 . S
C413 C411 1.392 . S
C413 H423 0.929 . S
C414 O394 1.265 1_455 S
C414 O395 1.248 . S
C415 Tb351 2.802 . S
C415 O390 1.264 . S
C415 O393 1.256 . S
C415 C408 1.496 . S
H416 C399 0.929 . S
H417 C400 0.929 . S
H418 C401 0.929 . S
H419 C402 0.931 . S
H420 C410 0.929 . S
H421 C411 0.929 . S
H422 C412 0.931 . S
H423 C413 0.929 . S
H424 C432 0.929 . S
H425 C434 0.930 . S
H426 C436 0.930 . S
H427 C439 0.929 . S
H428 C442 0.930 . S
H429 C444 0.960 . S
H430 C444 0.960 . S
H431 C444 0.960 . S
C432 H424 0.929 . S
C432 C433 1.377 . S
C432 C434 1.384 . S
C433 C432 1.377 . S
C433 C439 1.390 . S
C434 H425 0.930 . S
C434 C432 1.384 . S
C434 C435 1.372 . S
C435 C434 1.372 . S
C435 C436 1.400 . S
C435 C440 1.490 . S
C436 H426 0.930 . S
C436 C435 1.400 . S
C436 C439 1.386 . S
H437 C453 0.930 1_565 S
H438 C454 0.931 1_565 S
C439 H427 0.929 . S
C439 C433 1.390 . S
C439 C436 1.386 . S
C440 C435 1.490 . S
C440 C442 1.395 . S
C440 C443 1.403 . S
H441 C447 0.930 . S
C442 H428 0.930 . S
C442 C440 1.395 . S
C442 C445 1.403 . S
C443 C440 1.403 . S
C443 C444 1.524 . S
C443 C447 1.400 . S
C444 H429 0.960 . S
C444 H430 0.960 . S
C444 H431 0.960 . S
C444 C443 1.524 . S
C445 C442 1.403 . S
C445 C446 1.392 . S
C445 C449 1.495 . S
C446 C445 1.392 . S
C446 C447 1.385 . S
C446 C448 1.478 . S
C447 H441 0.930 . S
C447 C443 1.400 . S
C447 C446 1.385 . S
C448 C446 1.478 . S
C448 C450 1.381 . S
C448 C454 1.383 . S
C449 C445 1.495 . S
C449 H455 0.959 . S
C449 H456 0.961 . S
C449 H457 0.960 . S
C450 C448 1.381 . S
C450 C451 1.394 . S
C450 H458 0.930 . S
C451 C450 1.394 . S
C451 C452 1.383 . S
C451 H459 0.929 . S
C452 C451 1.383 . S
C452 C453 1.377 . S
C453 H437 0.930 1_545 S
C453 C452 1.377 . S
C453 C454 1.379 . S
C454 H438 0.931 1_545 S
C454 C448 1.383 . S
C454 C453 1.379 . S
H455 C449 0.959 . S
H456 C449 0.961 . S
H457 C449 0.960 . S
H458 C450 0.930 . S
H459 C451 0.929 . S
H460 C468 0.929 . S
H461 C470 0.930 . S
H462 C472 0.930 . S
H463 C475 0.929 . S
H464 C478 0.930 . S
H465 C480 0.960 . S
H466 C480 0.960 . S
H467 C480 0.960 . S
C468 H460 0.929 . S
C468 C469 1.377 . S
C468 C470 1.384 . S
C469 C468 1.377 . S
C469 C475 1.390 . S
C470 H461 0.930 . S
C470 C468 1.384 . S
C470 C471 1.372 . S
C471 C470 1.372 . S
C471 C472 1.400 . S
C471 C476 1.490 . S
C472 H462 0.930 . S
C472 C471 1.400 . S
C472 C475 1.386 . S
H473 C489 0.930 . S
H474 C490 0.931 . S
C475 H463 0.929 . S
C475 C469 1.390 . S
C475 C472 1.386 . S
C476 C471 1.490 . S
C476 C478 1.395 . S
C476 C479 1.403 . S
H477 C483 0.930 . S
C478 H464 0.930 . S
C478 C476 1.395 . S
C478 C481 1.403 . S
C479 C476 1.403 . S
C479 C480 1.524 . S
C479 C483 1.400 . S
C480 H465 0.960 . S
C480 H466 0.960 . S
C480 H467 0.960 . S
C480 C479 1.524 . S
C481 C478 1.403 . S
C481 C482 1.392 . S
C481 C485 1.495 . S
C482 C481 1.392 . S
C482 C483 1.385 . S
C482 C484 1.478 . S
C483 H477 0.930 . S
C483 C479 1.400 . S
C483 C482 1.385 . S
C484 C482 1.478 . S
C484 C486 1.381 . S
C484 C490 1.383 . S
C485 C481 1.495 . S
C485 H491 0.959 . S
C485 H492 0.961 . S
C485 H493 0.960 . S
C486 C484 1.381 . S
C486 C487 1.394 . S
C486 H494 0.930 . S
C487 C486 1.394 . S
C487 C488 1.383 . S
C487 H495 0.929 . S
C488 C487 1.383 . S
C488 C489 1.377 . S
C489 H473 0.930 . S
C489 C488 1.377 . S
C489 C490 1.379 . S
C490 H474 0.931 . S
C490 C484 1.383 . S
C490 C489 1.379 . S
H491 C485 0.959 . S
H492 C485 0.961 . S
H493 C485 0.960 . S
H494 C486 0.930 . S
H495 C487 0.929 . S
H496 C504 0.929 . S
H497 C506 0.930 . S
H498 C508 0.930 . S
H499 C511 0.929 . S
H500 C514 0.930 . S
H501 C516 0.960 . S
H502 C516 0.960 . S
H503 C516 0.960 . S
C504 H496 0.929 . S
C504 C505 1.377 . S
C504 C506 1.384 . S
C505 C504 1.377 . S
C505 C511 1.390 . S
C506 H497 0.930 . S
C506 C504 1.384 . S
C506 C507 1.372 . S
C507 C506 1.372 . S
C507 C508 1.400 . S
C507 C512 1.490 . S
C508 H498 0.930 . S
C508 C507 1.400 . S
C508 C511 1.386 . S
H509 C525 0.930 . S
H510 C526 0.931 . S
C511 H499 0.929 . S
C511 C505 1.390 . S
C511 C508 1.386 . S
C512 C507 1.490 . S
C512 C514 1.395 . S
C512 C515 1.403 . S
H513 C519 0.930 . S
C514 H500 0.930 . S
C514 C512 1.395 . S
C514 C517 1.403 . S
C515 C512 1.403 . S
C515 C516 1.524 . S
C515 C519 1.400 . S
C516 H501 0.960 . S
C516 H502 0.960 . S
C516 H503 0.960 . S
C516 C515 1.524 . S
C517 C514 1.403 . S
C517 C518 1.392 . S
C517 C521 1.495 . S
C518 C517 1.392 . S
C518 C519 1.385 . S
C518 C520 1.478 . S
C519 H513 0.930 . S
C519 C515 1.400 . S
C519 C518 1.385 . S
C520 C518 1.478 . S
C520 C522 1.381 . S
C520 C526 1.383 . S
C521 C517 1.495 . S
C521 H527 0.959 . S
C521 H528 0.961 . S
C521 H529 0.960 . S
C522 C520 1.381 . S
C522 C523 1.394 . S
C522 H530 0.930 . S
C523 C522 1.394 . S
C523 C524 1.383 . S
C523 H531 0.929 . S
C524 C523 1.383 . S
C524 C525 1.377 . S
C525 H509 0.930 . S
C525 C524 1.377 . S
C525 C526 1.379 . S
C526 H510 0.931 . S
C526 C520 1.383 . S
C526 C525 1.379 . S
H527 C521 0.959 . S
H528 C521 0.961 . S
H529 C521 0.960 . S
H530 C522 0.930 . S
H531 C523 0.929 . S
H532 C540 0.929 . S
H533 C542 0.930 . S
H534 C544 0.930 . S
H535 C547 0.929 . S
H536 C550 0.930 . S
H537 C552 0.960 . S
H538 C552 0.960 1_455 S
H539 C552 0.960 . S
C540 H532 0.929 . S
C540 C541 1.377 . S
C540 C542 1.384 . S
C541 C540 1.377 . S
C541 C547 1.390 . S
C542 H533 0.930 . S
C542 C540 1.384 . S
C542 C543 1.372 . S
C543 C542 1.372 . S
C543 C544 1.400 . S
C543 C548 1.490 . S
C544 H534 0.930 . S
C544 C543 1.400 . S
C544 C547 1.386 . S
H545 C561 0.930 1_655 S
H546 C562 0.931 . S
C547 H535 0.929 . S
C547 C541 1.390 . S
C547 C544 1.386 . S
C548 C543 1.490 . S
C548 C550 1.395 . S
C548 C551 1.403 . S
H549 C555 0.936 . S
C550 H536 0.930 . S
C550 C548 1.395 . S
C550 C553 1.403 . S
C551 C548 1.403 . S
C551 C552 1.524 1_455 S
C551 C555 1.400 . S
C552 H537 0.960 . S
C552 H538 0.960 1_655 S
C552 H539 0.960 . S
C552 C551 1.524 1_655 S
C553 C550 1.403 . S
C553 C554 1.392 . S
C553 C557 1.495 . S
C554 C553 1.392 . S
C554 C555 1.385 . S
C554 C556 1.478 . S
C555 H549 0.936 . S
C555 C551 1.400 . S
C555 C554 1.385 . S
C556 C554 1.478 . S
C556 C558 1.381 . S
C556 C562 1.383 . S
C557 C553 1.495 . S
C557 H563 0.959 . S
C557 H564 0.961 . S
C557 H565 0.960 . S
C558 C556 1.381 . S
C558 C559 1.394 . S
C558 H566 0.930 . S
C559 C558 1.394 . S
C559 C560 1.383 . S
C559 H567 0.929 . S
C560 C559 1.383 . S
C560 C561 1.377 . S
C561 H545 0.930 1_455 S
C561 C560 1.377 . S
C561 C562 1.379 . S
C562 H546 0.931 . S
C562 C556 1.383 . S
C562 C561 1.379 . S
H563 C557 0.959 . S
H564 C557 0.961 . S
H565 C557 0.960 . S
H566 C558 0.930 . S
H567 C559 0.929 . S
H568 C576 0.929 1_545 S
H569 C578 0.930 1_546 S
H570 C580 0.924 1_556 S
H571 C583 0.929 . S
H572 C586 0.915 1_545 S
H573 C588 0.960 . S
H574 C588 0.960 . S
H575 C588 0.960 . S
C576 H568 0.929 1_565 S
C576 C577 1.377 . S
C576 C578 1.384 . S
C577 C576 1.377 . S
C577 C583 1.390 . S
C578 H569 0.930 1_564 S
C578 C576 1.384 . S
C578 C579 1.372 1_554 S
C579 C578 1.372 1_556 S
C579 C580 1.400 1_556 S
C579 C584 1.490 . S
C580 H570 0.924 1_554 S
C580 C579 1.400 1_554 S
C580 C583 1.386 . S
H581 C597 0.930 . S
H582 C598 0.931 . S
C583 H571 0.929 . S
C583 C577 1.390 . S
C583 C580 1.386 . S
C584 C579 1.490 . S
C584 C586 1.416 . S
C584 C587 1.403 . S
H585 C591 0.930 . S
C586 H572 0.915 1_565 S
C586 C584 1.416 . S
C586 C589 1.397 1_565 S
C587 C584 1.403 . S
C587 C588 1.524 . S
C587 C591 1.400 . S
C588 H573 0.960 . S
C588 H574 0.960 . S
C588 H575 0.960 . S
C588 C587 1.524 . S
C589 C586 1.397 1_545 S
C589 C590 1.392 1_545 S
C589 C593 1.495 . S
C590 C589 1.392 1_565 S
C590 C591 1.385 . S
C590 C592 1.478 . S
C591 H585 0.930 . S
C591 C587 1.400 . S
C591 C590 1.385 . S
C592 C590 1.478 . S
C592 C594 1.381 1_565 S
C592 C598 1.383 . S
C593 C589 1.495 . S
C593 H599 0.959 . S
C593 H600 0.961 . S
C593 H601 0.960 . S
C594 C592 1.381 1_545 S
C594 C595 1.394 . S
C594 H602 0.930 . S
C595 C594 1.394 . S
C595 C596 1.383 . S
C595 H603 0.929 . S
C596 C595 1.383 . S
C596 C597 1.377 1_545 S
C597 H581 0.930 . S
C597 C596 1.377 1_565 S
C597 C598 1.379 . S
C598 H582 0.931 . S
C598 C592 1.383 . S
C598 C597 1.379 . S
H599 C593 0.959 . S
H600 C593 0.961 . S
H601 C593 0.960 . S
H602 C594 0.930 . S
H603 C595 0.929 . S
H604 C612 0.929 . S
H605 C614 0.930 . S
H606 C616 0.930 . S
H607 C619 0.929 . S
H608 C622 0.930 . S
H609 C624 0.960 1_556 S
H610 C624 0.960 . S
H611 C624 0.960 . S
C612 H604 0.929 . S
C612 C613 1.377 . S
C612 C614 1.384 1_554 S
C613 C612 1.377 . S
C613 C619 1.390 . S
C614 H605 0.930 . S
C614 C612 1.384 1_556 S
C614 C615 1.372 . S
C615 C614 1.372 . S
C615 C616 1.400 1_556 S
C615 C620 1.490 . S
C616 H606 0.930 . S
C616 C615 1.400 1_554 S
C616 C619 1.386 . S
H617 C633 0.930 . S
H618 C634 0.931 . S
C619 H607 0.929 . S
C619 C613 1.390 . S
C619 C616 1.386 . S
C620 C615 1.490 . S
C620 C622 1.395 . S
C620 C623 1.403 . S
H621 C627 0.930 . S
C622 H608 0.930 . S
C622 C620 1.395 . S
C622 C625 1.403 . S
C623 C620 1.403 . S
C623 C624 1.524 1_556 S
C623 C627 1.400 . S
C624 H609 0.960 1_554 S
C624 H610 0.960 . S
C624 H611 0.960 . S
C624 C623 1.524 1_554 S
C625 C622 1.403 . S
C625 C626 1.392 . S
C625 C629 1.495 . S
C626 C625 1.392 . S
C626 C627 1.385 . S
C626 C628 1.478 . S
C627 H621 0.930 . S
C627 C623 1.400 . S
C627 C626 1.385 . S
C628 C626 1.478 . S
C628 C630 1.381 . S
C628 C634 1.383 . S
C629 C625 1.495 . S
C629 H635 0.959 . S
C629 H636 0.961 . S
C629 H637 0.960 . S
C630 C628 1.381 . S
C630 C631 1.394 . S
C630 H638 0.930 . S
C631 C630 1.394 . S
C631 C632 1.383 . S
C631 H639 0.929 . S
C632 C631 1.383 . S
C632 C633 1.377 . S
C633 H617 0.930 . S
C633 C632 1.377 . S
C633 C634 1.379 . S
C634 H618 0.931 . S
C634 C628 1.383 . S
C634 C633 1.379 . S
H635 C629 0.959 . S
H636 C629 0.961 . S
H637 C629 0.960 . S
H638 C630 0.930 . S
H639 C631 0.929 . S
H640 C648 0.929 . S
H641 C650 0.930 . S
H642 C652 0.930 . S
H643 C655 0.929 . S
H644 C658 0.930 . S
H645 C660 0.960 . S
H646 C660 0.960 . S
H647 C660 0.960 1_554 S
C648 H640 0.929 . S
C648 C649 1.377 . S
C648 C650 1.384 1_554 S
C649 C648 1.377 . S
C649 C655 1.390 . S
C650 H641 0.930 . S
C650 C648 1.384 1_556 S
C650 C651 1.372 . S
C651 C650 1.372 . S
C651 C652 1.400 1_556 S
C651 C656 1.490 . S
C652 H642 0.930 . S
C652 C651 1.400 1_554 S
C652 C655 1.386 . S
H653 C669 0.930 . S
H654 C670 0.931 . S
C655 H643 0.929 . S
C655 C649 1.390 . S
C655 C652 1.386 . S
C656 C651 1.490 . S
C656 C658 1.395 . S
C656 C659 1.403 . S
H657 C663 0.930 . S
C658 H644 0.930 . S
C658 C656 1.395 . S
C658 C661 1.403 . S
C659 C656 1.403 . S
C659 C660 1.524 . S
C659 C663 1.400 . S
C660 H645 0.960 . S
C660 H646 0.960 . S
C660 H647 0.960 1_556 S
C660 C659 1.524 . S
C661 C658 1.403 . S
C661 C662 1.392 . S
C661 C665 1.495 . S
C662 C661 1.392 . S
C662 C663 1.385 . S
C662 C664 1.478 . S
C663 H657 0.930 . S
C663 C659 1.400 . S
C663 C662 1.385 . S
C664 C662 1.478 . S
C664 C666 1.381 . S
C664 C670 1.383 . S
C665 C661 1.495 . S
C665 H671 0.959 . S
C665 H672 0.961 . S
C665 H673 0.960 . S
C666 C664 1.381 . S
C666 C667 1.394 . S
C666 H674 0.930 . S
C667 C666 1.394 . S
C667 C668 1.383 . S
C667 H675 0.929 . S
C668 C667 1.383 . S
C668 C669 1.377 . S
C669 H653 0.930 . S
C669 C668 1.377 . S
C669 C670 1.379 . S
C670 H654 0.931 . S
C670 C664 1.383 . S
C670 C669 1.379 . S
H671 C665 0.959 . S
H672 C665 0.961 . S
H673 C665 0.960 . S
H674 C666 0.930 . S
H675 C667 0.929 . S
H676 C684 0.929 . S
H677 C686 0.930 . S
H678 C688 0.930 . S
H679 C691 0.929 . S
H680 C694 0.965 . S
H681 C696 0.960 . S
H682 C696 0.960 . S
H683 C696 0.960 . S
C684 H676 0.929 . S
C684 C685 1.377 . S
C684 C686 1.384 1_554 S
C685 C684 1.377 . S
C685 C691 1.390 . S
C686 H677 0.930 . S
C686 C684 1.384 1_556 S
C686 C687 1.372 . S
C687 C686 1.372 . S
C687 C688 1.400 1_556 S
C687 C692 1.490 . S
C688 H678 0.930 . S
C688 C687 1.400 1_554 S
C688 C691 1.386 . S
H689 C705 0.930 . S
H690 C706 0.931 . S
C691 H679 0.929 . S
C691 C685 1.390 . S
C691 C688 1.386 . S
C692 C687 1.490 . S
C692 C694 1.350 1_655 S
C692 C695 1.403 . S
H693 C699 0.930 . S
C694 H680 0.965 . S
C694 C692 1.350 1_455 S
C694 C697 1.416 . S
C695 C692 1.403 . S
C695 C696 1.524 . S
C695 C699 1.400 . S
C696 H681 0.960 . S
C696 H682 0.960 . S
C696 H683 0.960 . S
C696 C695 1.524 . S
C697 C694 1.416 . S
C697 C698 1.392 1_455 S
C697 C701 1.495 . S
C698 C697 1.392 1_655 S
C698 C699 1.385 . S
C698 C700 1.478 . S
C699 H693 0.930 . S
C699 C695 1.400 . S
C699 C698 1.385 . S
C700 C698 1.478 . S
C700 C702 1.381 . S
C700 C706 1.383 . S
C701 C697 1.495 . S
C701 H707 0.959 . S
C701 H708 0.961 . S
C701 H709 0.960 . S
C702 C700 1.381 . S
C702 C703 1.395 . S
C702 H710 0.930 . S
C703 C702 1.395 . S
C703 C704 1.384 . S
C703 H711 0.928 1_655 S
C704 C703 1.384 . S
C704 C705 1.377 . S
C705 H689 0.930 . S
C705 C704 1.377 . S
C705 C706 1.379 . S
C706 H690 0.931 . S
C706 C700 1.383 . S
C706 C705 1.379 . S
H707 C701 0.959 . S
H708 C701 0.961 . S
H709 C701 0.960 . S
H710 C702 0.930 . S
H711 C703 0.928 1_455 S
H712 C720 0.929 . S
H713 C722 0.930 . S
H714 C724 0.930 . S
H715 C727 0.929 . S
H716 C730 0.930 . S
H717 C732 0.960 1_655 S
H718 C732 0.960 1_655 S
H719 C732 0.960 . S
C720 H712 0.929 . S
C720 C721 1.377 . S
C720 C722 1.384 . S
C721 C720 1.377 . S
C721 C727 1.390 . S
C722 H713 0.930 . S
C722 C720 1.384 . S
C722 C723 1.372 . S
C723 C722 1.372 . S
C723 C724 1.400 . S
C723 C728 1.490 . S
C724 H714 0.930 . S
C724 C723 1.400 . S
C724 C727 1.386 . S
H725 C741 0.930 . S
H726 C742 0.931 . S
C727 H715 0.929 . S
C727 C721 1.390 . S
C727 C724 1.386 . S
C728 C723 1.490 . S
C728 C730 1.395 . S
C728 C731 1.403 . S
H729 C735 0.930 . S
C730 H716 0.930 . S
C730 C728 1.395 . S
C730 C733 1.403 . S
C731 C728 1.403 . S
C731 C732 1.524 . S
C731 C735 1.400 . S
C732 H717 0.960 1_455 S
C732 H718 0.960 1_455 S
C732 H719 0.960 . S
C732 C731 1.524 . S
C733 C730 1.403 . S
C733 C734 1.392 . S
C733 C737 1.495 . S
C734 C733 1.392 . S
C734 C735 1.385 . S
C734 C736 1.478 . S
C735 H729 0.930 . S
C735 C731 1.400 . S
C735 C734 1.385 . S
C736 C734 1.478 . S
C736 C738 1.381 . S
C736 C742 1.383 . S
C737 C733 1.495 . S
C737 H743 0.959 . S
C737 H744 0.961 . S
C737 H745 0.960 . S
C738 C736 1.381 . S
C738 C739 1.394 . S
C738 H746 0.930 . S
C739 C738 1.394 . S
C739 C740 1.383 . S
C739 H747 0.929 1_455 S
C740 C739 1.383 . S
C740 C741 1.377 . S
C741 H725 0.930 . S
C741 C740 1.377 . S
C741 C742 1.379 . S
C742 H726 0.931 . S
C742 C736 1.383 . S
C742 C741 1.379 . S
H743 C737 0.959 . S
H744 C737 0.961 . S
H745 C737 0.960 . S
H746 C738 0.930 . S
H747 C739 0.929 1_655 S
H748 C756 0.929 . S
H749 C758 0.930 . S
H750 C760 0.930 . S
H751 C763 0.929 . S
H752 C766 0.930 . S
H753 C768 0.960 . S
H754 C768 0.960 . S
H755 C768 0.960 . S
C756 H748 0.929 . S
C756 C757 1.377 . S
C756 C758 1.384 . S
C757 C756 1.377 . S
C757 C763 1.390 . S
C758 H749 0.930 . S
C758 C756 1.384 . S
C758 C759 1.372 . S
C759 C758 1.372 . S
C759 C760 1.400 . S
C759 C764 1.490 . S
C760 H750 0.930 . S
C760 C759 1.400 . S
C760 C763 1.386 . S
H761 C777 0.930 . S
H762 C778 0.931 . S
C763 H751 0.929 . S
C763 C757 1.390 . S
C763 C760 1.386 . S
C764 C759 1.490 . S
C764 C766 1.395 . S
C764 C767 1.403 . S
H765 C771 0.930 . S
C766 H752 0.930 . S
C766 C764 1.395 . S
C766 C769 1.403 . S
C767 C764 1.403 . S
C767 C768 1.524 . S
C767 C771 1.400 . S
C768 H753 0.960 . S
C768 H754 0.960 . S
C768 H755 0.960 . S
C768 C767 1.524 . S
C769 C766 1.403 . S
C769 C770 1.392 . S
C769 C773 1.495 . S
C770 C769 1.392 . S
C770 C771 1.385 . S
C770 C772 1.478 . S
C771 H765 0.930 . S
C771 C767 1.400 . S
C771 C770 1.385 . S
C772 C770 1.478 . S
C772 C774 1.381 . S
C772 C778 1.383 . S
C773 C769 1.495 . S
C773 H779 0.959 . S
C773 H780 0.961 . S
C773 H781 0.960 . S
C774 C772 1.381 . S
C774 C775 1.394 1_545 S
C774 H782 0.930 1_545 S
C775 C774 1.394 1_565 S
C775 C776 1.383 1_565 S
C775 H783 0.929 . S
C776 C775 1.383 1_545 S
C776 C777 1.377 . S
C777 H761 0.930 . S
C777 C776 1.377 . S
C777 C778 1.379 . S
C778 H762 0.931 . S
C778 C772 1.383 . S
C778 C777 1.379 . S
H779 C773 0.959 . S
H780 C773 0.961 . S
H781 C773 0.960 . S
H782 C774 0.930 1_565 S
H783 C775 0.929 . S
H784 C792 0.929 . S
H785 C794 0.930 . S
H786 C796 0.930 . S
H787 C799 0.929 . S
H788 C802 0.930 . S
H789 C804 0.960 . S
H790 C804 0.960 . S
H791 C804 0.960 . S
C792 H784 0.929 . S
C792 C793 1.377 . S
C792 C794 1.384 . S
C793 C792 1.377 . S
C793 C799 1.390 . S
C794 H785 0.930 . S
C794 C792 1.384 . S
C794 C795 1.372 . S
C795 C794 1.372 . S
C795 C796 1.400 . S
C795 C800 1.490 . S
C796 H786 0.930 . S
C796 C795 1.400 . S
C796 C799 1.386 . S
H797 C813 0.930 . S
H798 C814 0.931 . S
C799 H787 0.929 . S
C799 C793 1.390 . S
C799 C796 1.386 . S
C800 C795 1.490 . S
C800 C802 1.395 . S
C800 C803 1.403 . S
H801 C807 0.930 . S
C802 H788 0.930 . S
C802 C800 1.395 . S
C802 C805 1.403 . S
C803 C800 1.403 . S
C803 C804 1.524 . S
C803 C807 1.400 . S
C804 H789 0.960 . S
C804 H790 0.960 . S
C804 H791 0.960 . S
C804 C803 1.524 . S
C805 C802 1.403 . S
C805 C806 1.392 . S
C805 C809 1.495 . S
C806 C805 1.392 . S
C806 C807 1.385 . S
C806 C808 1.478 . S
C807 H801 0.930 . S
C807 C803 1.400 . S
C807 C806 1.385 . S
C808 C806 1.478 . S
C808 C810 1.381 . S
C808 C814 1.383 . S
C809 C805 1.495 . S
C809 H815 0.959 . S
C809 H816 0.961 . S
C809 H817 0.960 . S
C810 C808 1.381 . S
C810 C811 1.394 . S
C810 H818 0.930 . S
C811 C810 1.394 . S
C811 C812 1.383 . S
C811 H819 0.929 . S
C812 C811 1.383 . S
C812 C813 1.377 . S
C813 H797 0.930 . S
C813 C812 1.377 . S
C813 C814 1.379 . S
C814 H798 0.931 . S
C814 C808 1.383 . S
C814 C813 1.379 . S
H815 C809 0.959 . S
H816 C809 0.961 . S
H817 C809 0.960 . S
H818 C810 0.930 . S
H819 C811 0.929 . S
H820 C828 0.929 . S
H821 C830 0.930 . S
H822 C832 0.930 . S
H823 C835 0.929 . S
H824 C838 0.930 . S
H825 C840 0.960 . S
H826 C840 0.960 . S
H827 C840 0.960 . S
C828 H820 0.929 . S
C828 C829 1.377 . S
C828 C830 1.384 . S
C829 C828 1.377 . S
C829 C835 1.390 . S
C830 H821 0.930 . S
C830 C828 1.384 . S
C830 C831 1.372 . S
C831 C830 1.372 . S
C831 C832 1.400 . S
C831 C836 1.490 . S
C832 H822 0.930 . S
C832 C831 1.400 . S
C832 C835 1.386 . S
H833 C849 0.930 . S
H834 C850 0.931 . S
C835 H823 0.929 . S
C835 C829 1.390 . S
C835 C832 1.386 . S
C836 C831 1.490 . S
C836 C838 1.395 . S
C836 C839 1.403 . S
H837 C843 0.930 . S
C838 H824 0.930 . S
C838 C836 1.395 . S
C838 C841 1.403 . S
C839 C836 1.403 . S
C839 C840 1.524 . S
C839 C843 1.400 . S
C840 H825 0.960 . S
C840 H826 0.960 . S
C840 H827 0.960 . S
C840 C839 1.524 . S
C841 C838 1.403 . S
C841 C842 1.392 . S
C841 C845 1.495 . S
C842 C841 1.392 . S
C842 C843 1.385 . S
C842 C844 1.478 . S
C843 H837 0.930 . S
C843 C839 1.400 . S
C843 C842 1.385 . S
C844 C842 1.478 . S
C844 C846 1.381 . S
C844 C850 1.383 . S
C845 C841 1.495 . S
C845 H851 0.959 . S
C845 H852 0.961 . S
C845 H853 0.960 . S
C846 C844 1.381 . S
C846 C847 1.394 . S
C846 H854 0.930 . S
C847 C846 1.394 . S
C847 C848 1.383 . S
C847 H855 0.929 . S
C848 C847 1.383 . S
C848 C849 1.377 . S
C849 H833 0.930 . S
C849 C848 1.377 . S
C849 C850 1.379 . S
C850 H834 0.931 . S
C850 C844 1.383 . S
C850 C849 1.379 . S
H851 C845 0.959 . S
H852 C845 0.961 . S
H853 C845 0.960 . S
H854 C846 0.930 . S
H855 C847 0.929 . S
H856 C864 0.929 . S
H857 C866 0.930 . S
H858 C868 0.930 1_455 S
H859 C871 0.929 . S
H860 C874 0.930 . S
H861 C876 0.960 . S
H862 C876 0.960 . S
H863 C876 0.960 . S
C864 H856 0.929 . S
C864 C865 1.377 . S
C864 C866 1.384 . S
C865 C864 1.377 . S
C865 C871 1.390 . S
C866 H857 0.930 . S
C866 C864 1.384 . S
C866 C867 1.372 . S
C867 C866 1.372 . S
C867 C868 1.400 . S
C867 C872 1.490 1_554 S
C868 H858 0.930 1_655 S
C868 C867 1.400 . S
C868 C871 1.386 . S
H869 C885 0.930 . S
H870 C886 0.931 . S
C871 H859 0.929 . S
C871 C865 1.390 . S
C871 C868 1.386 . S
C872 C867 1.490 1_556 S
C872 C874 1.395 1_556 S
C872 C875 1.403 . S
H873 C879 0.930 . S
C874 H860 0.930 . S
C874 C872 1.395 1_554 S
C874 C877 1.403 1_554 S
C875 C872 1.403 . S
C875 C876 1.524 . S
C875 C879 1.400 . S
C876 H861 0.960 . S
C876 H862 0.960 . S
C876 H863 0.960 . S
C876 C875 1.524 . S
C877 C874 1.403 1_556 S
C877 C878 1.392 . S
C877 C881 1.495 1_556 S
C878 C877 1.392 . S
C878 C879 1.385 . S
C878 C880 1.478 . S
C879 H873 0.930 . S
C879 C875 1.400 . S
C879 C878 1.385 . S
C880 C878 1.478 . S
C880 C882 1.381 . S
C880 C886 1.383 1_655 S
C881 C877 1.495 1_554 S
C881 H887 0.959 . S
C881 H888 0.961 . S
C881 H889 0.960 . S
C882 C880 1.381 . S
C882 C883 1.394 . S
C882 H890 0.930 . S
C883 C882 1.394 . S
C883 C884 1.383 1_655 S
C883 H891 0.929 . S
C884 C883 1.383 1_455 S
C884 C885 1.377 . S
C885 H869 0.930 . S
C885 C884 1.377 . S
C885 C886 1.379 . S
C886 H870 0.931 . S
C886 C880 1.383 1_455 S
C886 C885 1.379 . S
H887 C881 0.959 . S
H888 C881 0.961 . S
H889 C881 0.960 . S
H890 C882 0.930 . S
H891 C883 0.929 . S
H892 C900 0.929 . S
H893 C902 0.930 . S
H894 C904 0.930 1_556 S
H895 C907 0.929 . S
H896 C910 0.930 . S
H897 C912 0.960 . S
H898 C912 0.960 . S
H899 C912 0.960 . S
C900 H892 0.929 . S
C900 C901 1.377 . S
C900 C902 1.384 . S
C901 C900 1.377 . S
C901 C907 1.390 . S
C902 H893 0.930 . S
C902 C900 1.384 . S
C902 C903 1.372 . S
C903 C902 1.372 . S
C903 C904 1.400 . S
C903 C908 1.490 . S
C904 H894 0.930 1_554 S
C904 C903 1.400 . S
C904 C907 1.386 . S
H905 C921 0.930 . S
H906 C922 0.930 1_565 S
C907 H895 0.929 . S
C907 C901 1.390 . S
C907 C904 1.386 . S
C908 C903 1.490 . S
C908 C910 1.395 1_565 S
C908 C911 1.403 1_554 S
H909 C915 0.930 . S
C910 H896 0.930 . S
C910 C908 1.395 1_545 S
C910 C913 1.403 1_554 S
C911 C908 1.403 1_556 S
C911 C912 1.524 . S
C911 C915 1.400 . S
C912 H897 0.960 . S
C912 H898 0.960 . S
C912 H899 0.960 . S
C912 C911 1.524 . S
C913 C910 1.403 1_556 S
C913 C914 1.392 1_545 S
C913 C917 1.495 . S
C914 C913 1.392 1_565 S
C914 C915 1.385 . S
C914 C916 1.478 1_565 S
C915 H909 0.930 . S
C915 C911 1.400 . S
C915 C914 1.385 . S
C916 C914 1.478 1_545 S
C916 C918 1.381 . S
C916 C922 1.383 . S
C917 C913 1.495 . S
C917 H923 0.959 1_556 S
C917 H924 0.961 . S
C917 H925 0.960 . S
C918 C916 1.381 . S
C918 C919 1.394 . S
C918 H926 0.930 . S
C919 C918 1.394 . S
C919 C920 1.383 . S
C919 H927 0.929 . S
C920 C919 1.383 . S
C920 C921 1.377 . S
C921 H905 0.930 . S
C921 C920 1.377 . S
C921 C922 1.379 . S
C922 H906 0.930 1_545 S
C922 C916 1.383 . S
C922 C921 1.379 . S
H923 C917 0.959 1_554 S
H924 C917 0.961 . S
H925 C917 0.960 . S
H926 C918 0.930 . S
H927 C919 0.929 . S
H928 C936 0.929 . S
H929 C938 0.930 . S
H930 C940 0.930 . S
H931 C943 0.929 . S
H932 C946 0.930 . S
H933 C948 0.960 . S
H934 C948 0.960 . S
H935 C948 0.960 . S
C936 H928 0.929 . S
C936 C937 1.377 . S
C936 C938 1.384 . S
C937 C936 1.377 . S
C937 C943 1.390 . S
C938 H929 0.930 . S
C938 C936 1.384 . S
C938 C939 1.372 . S
C939 C938 1.372 . S
C939 C940 1.400 . S
C939 C944 1.501 . S
C940 H930 0.930 . S
C940 C939 1.400 . S
C940 C943 1.386 . S
H941 C957 0.930 . S
H942 C958 0.931 . S
C943 H931 0.929 . S
C943 C937 1.390 . S
C943 C940 1.386 . S
C944 C939 1.501 . S
C944 C946 1.404 . S
C944 C947 1.382 1_554 S
H945 C951 0.930 . S
C946 H932 0.930 . S
C946 C944 1.404 . S
C946 C949 1.402 1_554 S
C947 C944 1.382 1_556 S
C947 C948 1.524 . S
C947 C951 1.400 . S
C948 H933 0.960 . S
C948 H934 0.960 . S
C948 H935 0.960 . S
C948 C947 1.524 . S
C949 C946 1.402 1_556 S
C949 C950 1.396 . S
C949 C953 1.494 1_556 S
C950 C949 1.396 . S
C950 C951 1.385 . S
C950 C952 1.478 . S
C951 H945 0.930 . S
C951 C947 1.400 . S
C951 C950 1.385 . S
C952 C950 1.478 . S
C952 C954 1.381 . S
C952 C958 1.383 . S
C953 C949 1.494 1_554 S
C953 H959 0.959 . S
C953 H960 0.961 . S
C953 H961 0.960 . S
C954 C952 1.381 . S
C954 C955 1.394 . S
C954 H962 0.930 . S
C955 C954 1.394 . S
C955 C956 1.383 . S
C955 H963 0.929 . S
C956 C955 1.383 . S
C956 C957 1.377 . S
C957 H941 0.930 . S
C957 C956 1.377 . S
C957 C958 1.379 . S
C958 H942 0.931 . S
C958 C952 1.383 . S
C958 C957 1.379 . S
H959 C953 0.959 . S
H960 C953 0.961 . S
H961 C953 0.960 . S
H962 C954 0.930 . S
H963 C955 0.929 . S
H964 C972 0.929 . S
H965 C974 0.930 . S
H966 C976 0.930 . S
H967 C979 0.929 . S
H968 C982 0.930 . S
H969 C984 0.960 . S
H970 C984 0.960 . S
H971 C984 0.960 . S
C972 H964 0.929 . S
C972 C973 1.377 . S
C972 C974 1.384 . S
C973 C972 1.377 . S
C973 C979 1.390 . S
C974 H965 0.930 . S
C974 C972 1.384 . S
C974 C975 1.372 . S
C975 C974 1.372 . S
C975 C976 1.400 . S
C975 C980 1.490 1_554 S
C976 H966 0.930 . S
C976 C975 1.400 . S
C976 C979 1.386 . S
H977 C993 0.930 . S
H978 C994 0.931 . S
C979 H967 0.929 . S
C979 C973 1.390 . S
C979 C976 1.386 . S
C980 C975 1.490 1_556 S
C980 C982 1.395 . S
C980 C983 1.403 1_556 S
H981 C987 0.930 . S
C982 H968 0.930 . S
C982 C980 1.395 . S
C982 C985 1.403 . S
C983 C980 1.403 1_554 S
C983 C984 1.524 . S
C983 C987 1.400 1_554 S
C984 H969 0.960 . S
C984 H970 0.960 . S
C984 H971 0.960 . S
C984 C983 1.524 . S
C985 C982 1.403 . S
C985 C986 1.392 . S
C985 C989 1.495 . S
C986 C985 1.392 . S
C986 C987 1.385 . S
C986 C988 1.478 . S
C987 H981 0.930 . S
C987 C983 1.400 1_556 S
C987 C986 1.385 . S
C988 C986 1.478 . S
C988 C990 1.381 . S
C988 C994 1.383 . S
C989 C985 1.495 . S
C989 H995 0.959 . S
C989 H996 0.961 . S
C989 H997 0.960 . S
C990 C988 1.381 . S
C990 C991 1.394 . S
C990 H998 0.930 . S
C991 C990 1.394 . S
C991 C992 1.383 . S
C991 H999 0.929 . S
C992 C991 1.383 . S
C992 C993 1.377 . S
C993 H977 0.930 . S
C993 C992 1.377 . S
C993 C994 1.379 . S
C994 H978 0.931 . S
C994 C988 1.383 . S
C994 C993 1.379 . S
H995 C989 0.959 . S
H996 C989 0.961 . S
H997 C989 0.960 . S
H998 C990 0.930 . S
H999 C991 0.929 . S
H1000 C1008 0.929 . S
H1001 C1010 0.930 . S
H1002 C1012 0.930 . S
H1003 C1015 0.929 . S
H1004 C1018 0.930 . S
H1005 C1020 0.960 1_655 S
H1006 C1020 0.960 . S
H1007 C1020 0.960 1_655 S
C1008 H1000 0.929 . S
C1008 C1009 1.377 . S
C1008 C1010 1.384 . S
C1009 C1008 1.377 . S
C1009 C1015 1.390 . S
C1010 H1001 0.930 . S
C1010 C1008 1.384 . S
C1010 C1011 1.372 . S
C1011 C1010 1.372 . S
C1011 C1012 1.400 . S
C1011 C1016 1.490 . S
C1012 H1002 0.930 . S
C1012 C1011 1.400 . S
C1012 C1015 1.386 . S
H1013 C1029 0.930 1_655 S
H1014 C1030 0.899 1_655 S
C1015 H1003 0.929 . S
C1015 C1009 1.390 . S
C1015 C1012 1.386 . S
C1016 C1011 1.490 . S
C1016 C1018 1.395 . S
C1016 C1019 1.403 . S
H1017 C1023 0.930 . S
C1018 H1004 0.930 . S
C1018 C1016 1.395 . S
C1018 C1021 1.403 . S
C1019 C1016 1.403 . S
C1019 C1020 1.524 . S
C1019 C1023 1.400 . S
C1020 H1005 0.960 1_455 S
C1020 H1006 0.960 . S
C1020 H1007 0.960 1_455 S
C1020 C1019 1.524 . S
C1021 C1018 1.403 . S
C1021 C1022 1.392 . S
C1021 C1025 1.495 . S
C1022 C1021 1.392 . S
C1022 C1023 1.385 . S
C1022 C1024 1.478 . S
C1023 H1017 0.930 . S
C1023 C1019 1.400 . S
C1023 C1022 1.385 . S
C1024 C1022 1.478 . S
C1024 C1026 1.381 . S
C1024 C1030 1.383 . S
C1025 C1021 1.495 . S
C1025 H1031 0.959 . S
C1025 H1032 0.961 . S
C1025 H1033 0.960 . S
C1026 C1024 1.381 . S
C1026 C1027 1.394 . S
C1026 H1034 0.930 . S
C1027 C1026 1.394 . S
C1027 C1028 1.383 . S
C1027 H1035 0.929 . S
C1028 C1027 1.383 . S
C1028 C1029 1.377 . S
C1029 H1013 0.930 1_455 S
C1029 C1028 1.377 . S
C1029 C1030 1.379 . S
C1030 H1014 0.899 1_455 S
C1030 C1024 1.383 . S
C1030 C1029 1.379 . S
H1031 C1025 0.959 . S
H1032 C1025 0.961 . S
H1033 C1025 0.960 . S
H1034 C1026 0.930 . S
H1035 C1027 0.929 . S
H1036 C1044 0.929 . S
H1037 C1046 0.930 . S
H1038 C1048 0.930 . S
H1039 C1051 0.929 . S
H1040 C1054 0.930 . S
H1041 C1056 0.960 . S
H1042 C1056 0.960 . S
H1043 C1056 0.960 . S
C1044 H1036 0.929 . S
C1044 C1045 1.377 . S
C1044 C1046 1.384 . S
C1045 C1044 1.377 . S
C1045 C1051 1.390 . S
C1046 H1037 0.930 . S
C1046 C1044 1.384 . S
C1046 C1047 1.372 . S
C1047 C1046 1.372 . S
C1047 C1048 1.400 . S
C1047 C1052 1.490 . S
C1048 H1038 0.930 . S
C1048 C1047 1.400 . S
C1048 C1051 1.386 . S
H1049 C1065 0.930 1_565 S
H1050 C1066 0.887 1_565 S
C1051 H1039 0.929 . S
C1051 C1045 1.390 . S
C1051 C1048 1.386 . S
C1052 C1047 1.490 . S
C1052 C1054 1.395 . S
C1052 C1055 1.403 . S
H1053 C1059 0.930 . S
C1054 H1040 0.930 . S
C1054 C1052 1.395 . S
C1054 C1057 1.403 . S
C1055 C1052 1.403 . S
C1055 C1056 1.524 . S
C1055 C1059 1.400 . S
C1056 H1041 0.960 . S
C1056 H1042 0.960 . S
C1056 H1043 0.960 . S
C1056 C1055 1.524 . S
C1057 C1054 1.403 . S
C1057 C1058 1.392 . S
C1057 C1061 1.495 . S
C1058 C1057 1.392 . S
C1058 C1059 1.385 . S
C1058 C1060 1.478 . S
C1059 H1053 0.930 . S
C1059 C1055 1.400 . S
C1059 C1058 1.385 . S
C1060 C1058 1.478 . S
C1060 C1062 1.381 . S
C1060 C1066 1.383 . S
C1061 C1057 1.495 . S
C1061 H1067 0.959 . S
C1061 H1068 0.961 . S
C1061 H1069 0.960 . S
C1062 C1060 1.381 . S
C1062 C1063 1.394 . S
C1062 H1070 0.930 . S
C1063 C1062 1.394 . S
C1063 C1064 1.383 . S
C1063 H1071 0.929 . S
C1064 C1063 1.383 . S
C1064 C1065 1.377 . S
C1065 H1049 0.930 1_545 S
C1065 C1064 1.377 . S
C1065 C1066 1.379 . S
C1066 H1050 0.887 1_545 S
C1066 C1060 1.383 . S
C1066 C1065 1.379 . S
H1067 C1061 0.959 . S
H1068 C1061 0.961 . S
H1069 C1061 0.960 . S
H1070 C1062 0.930 . S
H1071 C1063 0.929 . S
H1072 C1080 0.929 . S
H1073 C1082 0.930 . S
H1074 C1084 0.930 . S
H1075 C1087 0.929 . S
H1076 C1090 0.930 . S
H1077 C1092 0.960 . S
H1078 C1092 0.960 . S
H1079 C1092 0.960 . S
C1080 H1072 0.929 . S
C1080 C1081 1.377 . S
C1080 C1082 1.384 . S
C1081 C1080 1.377 . S
C1081 C1087 1.390 . S
C1082 H1073 0.930 . S
C1082 C1080 1.384 . S
C1082 C1083 1.372 . S
C1083 C1082 1.372 . S
C1083 C1084 1.400 . S
C1083 C1088 1.490 . S
C1084 H1074 0.930 . S
C1084 C1083 1.400 . S
C1084 C1087 1.386 . S
H1085 C1101 0.930 . S
H1086 C1102 0.931 . S
C1087 H1075 0.929 . S
C1087 C1081 1.390 . S
C1087 C1084 1.386 . S
C1088 C1083 1.490 . S
C1088 C1090 1.395 . S
C1088 C1091 1.403 . S
H1089 C1095 0.930 . S
C1090 H1076 0.930 . S
C1090 C1088 1.395 . S
C1090 C1093 1.403 . S
C1091 C1088 1.403 . S
C1091 C1092 1.524 . S
C1091 C1095 1.400 . S
C1092 H1077 0.960 . S
C1092 H1078 0.960 . S
C1092 H1079 0.960 . S
C1092 C1091 1.524 . S
C1093 C1090 1.403 . S
C1093 C1094 1.392 . S
C1093 C1097 1.495 . S
C1094 C1093 1.392 . S
C1094 C1095 1.385 . S
C1094 C1096 1.478 . S
C1095 H1089 0.930 . S
C1095 C1091 1.400 . S
C1095 C1094 1.385 . S
C1096 C1094 1.478 . S
C1096 C1098 1.381 . S
C1096 C1102 1.383 . S
C1097 C1093 1.495 . S
C1097 H1103 0.959 . S
C1097 H1104 0.961 . S
C1097 H1105 0.960 . S
C1098 C1096 1.381 . S
C1098 C1099 1.394 . S
C1098 H1106 0.930 . S
C1099 C1098 1.394 . S
C1099 C1100 1.383 . S
C1099 H1107 0.929 . S
C1100 C1099 1.383 . S
C1100 C1101 1.377 . S
C1101 H1085 0.930 . S
C1101 C1100 1.377 . S
C1101 C1102 1.379 . S
C1102 H1086 0.931 . S
C1102 C1096 1.383 . S
C1102 C1101 1.379 . S
H1103 C1097 0.959 . S
H1104 C1097 0.961 . S
H1105 C1097 0.960 . S
H1106 C1098 0.930 . S
H1107 C1099 0.929 . S
H1108 C1116 0.929 . S
H1109 C1118 0.930 . S
H1110 C1120 0.930 . S
H1111 C1123 0.929 . S
H1112 C1126 0.930 . S
H1113 C1128 0.960 . S
H1114 C1128 0.960 . S
H1115 C1128 0.960 . S
C1116 H1108 0.929 . S
C1116 C1117 1.377 . S
C1116 C1118 1.384 . S
C1117 C1116 1.377 . S
C1117 C1123 1.390 . S
C1118 H1109 0.930 . S
C1118 C1116 1.384 . S
C1118 C1119 1.372 . S
C1119 C1118 1.372 . S
C1119 C1120 1.400 . S
C1119 C1124 1.490 . S
C1120 H1110 0.930 . S
C1120 C1119 1.400 . S
C1120 C1123 1.386 . S
H1121 C1137 0.930 . S
H1122 C1138 0.931 . S
C1123 H1111 0.929 . S
C1123 C1117 1.390 . S
C1123 C1120 1.386 . S
C1124 C1119 1.490 . S
C1124 C1126 1.395 . S
C1124 C1127 1.403 . S
H1125 C1131 0.930 . S
C1126 H1112 0.930 . S
C1126 C1124 1.395 . S
C1126 C1129 1.403 . S
C1127 C1124 1.403 . S
C1127 C1128 1.524 . S
C1127 C1131 1.400 . S
C1128 H1113 0.960 . S
C1128 H1114 0.960 . S
C1128 H1115 0.960 . S
C1128 C1127 1.524 . S
C1129 C1126 1.403 . S
C1129 C1130 1.392 . S
C1129 C1133 1.495 . S
C1130 C1129 1.392 . S
C1130 C1131 1.385 . S
C1130 C1132 1.478 . S
C1131 H1125 0.930 . S
C1131 C1127 1.400 . S
C1131 C1130 1.385 . S
C1132 C1130 1.478 . S
C1132 C1134 1.381 . S
C1132 C1138 1.383 . S
C1133 C1129 1.495 . S
C1133 H1139 0.959 . S
C1133 H1140 0.961 . S
C1133 H1141 0.960 . S
C1134 C1132 1.381 . S
C1134 C1135 1.394 . S
C1134 H1142 0.930 . S
C1135 C1134 1.394 . S
C1135 C1136 1.383 . S
C1135 H1143 0.929 . S
C1136 C1135 1.383 . S
C1136 C1137 1.377 . S
C1137 H1121 0.930 . S
C1137 C1136 1.377 . S
C1137 C1138 1.379 . S
C1138 H1122 0.931 . S
C1138 C1132 1.383 . S
C1138 C1137 1.379 . S
H1139 C1133 0.959 . S
H1140 C1133 0.961 . S
H1141 C1133 0.960 . S
H1142 C1134 0.930 . S
H1143 C1135 0.929 . S
H1144 C1152 0.929 . S
H1145 C1154 0.930 . S
H1146 C1156 0.930 . S
H1147 C1159 0.929 . S
H1148 C1162 0.930 . S
H1149 C1164 0.960 . S
H1150 C1164 0.960 1_455 S
H1151 C1164 0.960 . S
C1152 H1144 0.929 . S
C1152 C1153 1.377 . S
C1152 C1154 1.384 . S
C1153 C1152 1.377 . S
C1153 C1159 1.390 . S
C1154 H1145 0.930 . S
C1154 C1152 1.384 . S
C1154 C1155 1.372 . S
C1155 C1154 1.372 . S
C1155 C1156 1.400 . S
C1155 C1160 1.490 . S
C1156 H1146 0.930 . S
C1156 C1155 1.400 . S
C1156 C1159 1.386 . S
H1157 C1173 0.930 . S
H1158 C1174 0.931 . S
C1159 H1147 0.929 . S
C1159 C1153 1.390 . S
C1159 C1156 1.386 . S
C1160 C1155 1.490 . S
C1160 C1162 1.395 . S
C1160 C1163 1.403 . S
H1161 C1167 0.930 . S
C1162 H1148 0.930 . S
C1162 C1160 1.395 . S
C1162 C1165 1.403 . S
C1163 C1160 1.403 . S
C1163 C1164 1.524 . S
C1163 C1167 1.400 . S
C1164 H1149 0.960 . S
C1164 H1150 0.960 1_655 S
C1164 H1151 0.960 . S
C1164 C1163 1.524 . S
C1165 C1162 1.403 . S
C1165 C1166 1.392 . S
C1165 C1169 1.495 . S
C1166 C1165 1.392 . S
C1166 C1167 1.385 . S
C1166 C1168 1.478 . S
C1167 H1161 0.930 . S
C1167 C1163 1.400 . S
C1167 C1166 1.385 . S
C1168 C1166 1.478 . S
C1168 C1170 1.381 1_655 S
C1168 C1174 1.383 . S
C1169 C1165 1.495 . S
C1169 H1175 0.959 . S
C1169 H1176 0.961 . S
C1169 H1177 0.960 . S
C1170 C1168 1.381 1_455 S
C1170 C1171 1.394 . S
C1170 H1178 0.930 . S
C1171 C1170 1.394 . S
C1171 C1172 1.383 1_455 S
C1171 H1179 0.929 . S
C1172 C1171 1.383 1_655 S
C1172 C1173 1.377 . S
C1173 H1157 0.930 . S
C1173 C1172 1.377 . S
C1173 C1174 1.379 . S
C1174 H1158 0.931 . S
C1174 C1168 1.383 . S
C1174 C1173 1.379 . S
H1175 C1169 0.959 . S
H1176 C1169 0.961 . S
H1177 C1169 0.960 . S
H1178 C1170 0.930 . S
H1179 C1171 0.929 . S
H1180 C1188 0.929 . S
H1181 C1190 0.930 . S
H1182 C1192 0.930 . S
H1183 C1195 0.929 . S
H1184 C1198 0.930 . S
H1185 C1200 0.960 . S
H1186 C1200 0.960 . S
H1187 C1200 0.960 . S
C1188 H1180 0.929 . S
C1188 C1189 1.377 . S
C1188 C1190 1.384 . S
C1189 C1188 1.377 . S
C1189 C1195 1.390 . S
C1190 H1181 0.930 . S
C1190 C1188 1.384 . S
C1190 C1191 1.372 . S
C1191 C1190 1.372 . S
C1191 C1192 1.400 . S
C1191 C1196 1.490 . S
C1192 H1182 0.930 . S
C1192 C1191 1.400 . S
C1192 C1195 1.386 . S
H1193 C1209 0.930 . S
H1194 C1210 0.931 . S
C1195 H1183 0.929 . S
C1195 C1189 1.390 . S
C1195 C1192 1.386 . S
C1196 C1191 1.490 . S
C1196 C1198 1.395 1_565 S
C1196 C1199 1.403 . S
H1197 C1203 0.930 . S
C1198 H1184 0.930 . S
C1198 C1196 1.395 1_545 S
C1198 C1201 1.403 . S
C1199 C1196 1.403 . S
C1199 C1200 1.524 . S
C1199 C1203 1.400 . S
C1200 H1185 0.960 . S
C1200 H1186 0.960 . S
C1200 H1187 0.960 . S
C1200 C1199 1.524 . S
C1201 C1198 1.403 . S
C1201 C1202 1.392 1_545 S
C1201 C1205 1.495 . S
C1202 C1201 1.392 1_565 S
C1202 C1203 1.385 . S
C1202 C1204 1.478 . S
C1203 H1197 0.930 . S
C1203 C1199 1.400 . S
C1203 C1202 1.385 . S
C1204 C1202 1.478 . S
C1204 C1206 1.381 1_565 S
C1204 C1210 1.383 . S
C1205 C1201 1.495 . S
C1205 H1211 0.959 . S
C1205 H1212 0.961 . S
C1205 H1213 0.960 . S
C1206 C1204 1.381 1_545 S
C1206 C1207 1.394 . S
C1206 H1214 0.930 . S
C1207 C1206 1.394 . S
C1207 C1208 1.383 1_545 S
C1207 H1215 0.929 . S
C1208 C1207 1.383 1_565 S
C1208 C1209 1.377 . S
C1209 H1193 0.930 . S
C1209 C1208 1.377 . S
C1209 C1210 1.379 . S
C1210 H1194 0.931 . S
C1210 C1204 1.383 . S
C1210 C1209 1.379 . S
H1211 C1205 0.959 . S
H1212 C1205 0.961 . S
H1213 C1205 0.960 . S
H1214 C1206 0.930 . S
H1215 C1207 0.929 . S
H1216 C1224 0.929 . S
H1217 C1226 0.930 . S
H1218 C1228 0.930 . S
H1219 C1231 0.929 . S
H1220 C1234 0.930 . S
H1221 C1236 0.960 . S
H1222 C1236 0.960 . S
H1223 C1236 0.960 . S
C1224 H1216 0.929 . S
C1224 C1225 1.377 . S
C1224 C1226 1.384 . S
C1225 C1224 1.377 . S
C1225 C1231 1.390 . S
C1226 H1217 0.930 . S
C1226 C1224 1.384 . S
C1226 C1227 1.372 . S
C1227 C1226 1.372 . S
C1227 C1228 1.400 . S
C1227 C1232 1.490 . S
C1228 H1218 0.930 . S
C1228 C1227 1.400 . S
C1228 C1231 1.386 . S
H1229 C1245 0.930 . S
H1230 C1246 0.931 . S
C1231 H1219 0.929 . S
C1231 C1225 1.390 . S
C1231 C1228 1.386 . S
C1232 C1227 1.490 . S
C1232 C1234 1.395 . S
C1232 C1235 1.403 . S
H1233 C1239 0.930 . S
C1234 H1220 0.930 . S
C1234 C1232 1.395 . S
C1234 C1237 1.403 . S
C1235 C1232 1.403 . S
C1235 C1236 1.524 . S
C1235 C1239 1.400 . S
C1236 H1221 0.960 . S
C1236 H1222 0.960 . S
C1236 H1223 0.960 . S
C1236 C1235 1.524 . S
C1237 C1234 1.403 . S
C1237 C1238 1.392 . S
C1237 C1241 1.495 . S
C1238 C1237 1.392 . S
C1238 C1239 1.385 . S
C1238 C1240 1.478 . S
C1239 H1233 0.930 . S
C1239 C1235 1.400 . S
C1239 C1238 1.385 . S
C1240 C1238 1.478 . S
C1240 C1242 1.381 . S
C1240 C1246 1.383 . S
C1241 C1237 1.495 . S
C1241 H1247 0.959 . S
C1241 H1248 0.961 . S
C1241 H1249 0.960 . S
C1242 C1240 1.381 . S
C1242 C1243 1.394 . S
C1242 H1250 0.930 . S
C1243 C1242 1.394 . S
C1243 C1244 1.383 . S
C1243 H1251 0.929 . S
C1244 C1243 1.383 . S
C1244 C1245 1.377 . S
C1245 H1229 0.930 . S
C1245 C1244 1.377 . S
C1245 C1246 1.379 . S
C1246 H1230 0.931 . S
C1246 C1240 1.383 . S
C1246 C1245 1.379 . S
H1247 C1241 0.959 . S
H1248 C1241 0.961 . S
H1249 C1241 0.960 . S
H1250 C1242 0.930 . S
H1251 C1243 0.929 . S
H1252 C1260 0.929 . S
H1253 C1262 0.930 . S
H1254 C1264 0.930 . S
H1255 C1267 0.929 . S
H1256 C1270 0.930 . S
H1257 C1272 0.960 . S
H1258 C1272 0.960 . S
H1259 C1272 0.960 . S
C1260 H1252 0.929 . S
C1260 C1261 1.377 . S
C1260 C1262 1.384 . S
C1261 C1260 1.377 . S
C1261 C1267 1.390 . S
C1262 H1253 0.930 . S
C1262 C1260 1.384 . S
C1262 C1263 1.372 . S
C1263 C1262 1.372 . S
C1263 C1264 1.400 . S
C1263 C1268 1.490 . S
C1264 H1254 0.930 . S
C1264 C1263 1.400 . S
C1264 C1267 1.386 . S
H1265 C1281 0.930 . S
H1266 C1282 0.931 . S
C1267 H1255 0.929 . S
C1267 C1261 1.390 . S
C1267 C1264 1.386 . S
C1268 C1263 1.490 . S
C1268 C1270 1.395 . S
C1268 C1271 1.403 . S
H1269 C1275 0.930 . S
C1270 H1256 0.930 . S
C1270 C1268 1.395 . S
C1270 C1273 1.403 . S
C1271 C1268 1.403 . S
C1271 C1272 1.524 . S
C1271 C1275 1.400 . S
C1272 H1257 0.960 . S
C1272 H1258 0.960 . S
C1272 H1259 0.960 . S
C1272 C1271 1.524 . S
C1273 C1270 1.403 . S
C1273 C1274 1.392 . S
C1273 C1277 1.495 . S
C1274 C1273 1.392 . S
C1274 C1275 1.385 . S
C1274 C1276 1.478 . S
C1275 H1269 0.930 . S
C1275 C1271 1.400 . S
C1275 C1274 1.385 . S
C1276 C1274 1.478 . S
C1276 C1278 1.381 . S
C1276 C1282 1.383 . S
C1277 C1273 1.495 . S
C1277 H1283 0.959 . S
C1277 H1284 0.961 . S
C1277 H1285 0.960 . S
C1278 C1276 1.381 . S
C1278 C1279 1.394 . S
C1278 H1286 0.930 . S
C1279 C1278 1.394 . S
C1279 C1280 1.383 . S
C1279 H1287 0.929 . S
C1280 C1279 1.383 . S
C1280 C1281 1.377 . S
C1281 H1265 0.930 . S
C1281 C1280 1.377 . S
C1281 C1282 1.379 . S
C1282 H1266 0.931 . S
C1282 C1276 1.383 . S
C1282 C1281 1.379 . S
H1283 C1277 0.959 . S
H1284 C1277 0.961 . S
H1285 C1277 0.960 . S
H1286 C1278 0.930 . S
H1287 C1279 0.929 . S
C433 C74 1.812 . S
C452 C151 1.849 . S
C488 C228 1.863 . S
C469 C85 1.817 . S
C524 C319 1.851 . S
C505 C52 1.801 . S
C560 C403 1.839 . S
C541 C63 1.785 . S
C596 C162 1.845 . S
C577 C30 1.777 . S
C613 C41 1.792 . S
C632 C239 1.882 . S
C649 C8 1.771 . S
C668 C330 1.840 . S
C685 C19 1.758 . S
C704 C414 1.822 1_655 S
C740 C146 0.678 1_455 S
C721 C62 0.565 . S
C776 C241 0.522 . S
C757 C73 0.523 . S
C812 C314 0.637 . S
C793 C84 0.564 . S
C829 C51 0.550 . S
C848 C398 0.676 . S
C865 C18 0.603 . S
C884 C157 0.644 . S
C920 C230 0.572 . S
C901 C29 0.583 . S
C956 C325 0.620 . S
C937 C40 0.613 . S
C973 C7 0.577 . S
C992 C409 0.554 . S
C1009 C60 1.643 . S
C1028 C155 1.983 . S
C1045 C71 1.635 . S
C1064 C246 1.965 . S
C1100 C323 2.004 . S
C1081 C82 1.652 . S
C1136 C407 1.996 . S
C1117 C49 1.670 . S
C1153 C16 1.510 . S
C1172 C144 1.985 . S
C1208 C235 1.968 1_565 S
C1189 C27 1.516 . S
C1244 C312 1.997 . S
C1225 C38 1.521 . S
C1261 C5 1.530 . S
C1280 C396 2.009 . S
