# Generated by pormake.
# Topology anh, (6,3)-cn, num edge types: 1
# Building blocks:
#     Node 0, Type 0, BuildingBlock: PAMTOO_clean_sbu_0, # of connection points: 6
#     Node 1, Type 0, BuildingBlock: PAMTOO_clean_sbu_0, # of connection points: 6
#     Node 2, Type 0, BuildingBlock: PAMTOO_clean_sbu_0, # of connection points: 6
#     Node 3, Type 1, BuildingBlock: WUSLED_clean_sbu_0, # of connection points: 3
#     Node 4, Type 1, BuildingBlock: WUSLED_clean_sbu_0, # of connection points: 3
#     Node 5, Type 1, BuildingBlock: WUSLED_clean_sbu_0, # of connection points: 3
#     Node 6, Type 1, BuildingBlock: WUSLED_clean_sbu_0, # of connection points: 3
#     Node 7, Type 1, BuildingBlock: WUSLED_clean_sbu_0, # of connection points: 3
#     Node 8, Type 1, BuildingBlock: WUSLED_clean_sbu_0, # of connection points: 3
#     Edge 9, Type (0, 1), BuildingBlock: ZUJKAS_clean_linker_0, # of connection points: 2
#     Edge 10, Type (0, 1), BuildingBlock: ZUJKAS_clean_linker_0, # of connection points: 2
#     Edge 11, Type (0, 1), BuildingBlock: ZUJKAS_clean_linker_0, # of connection points: 2
#     Edge 12, Type (0, 1), BuildingBlock: ZUJKAS_clean_linker_0, # of connection points: 2
#     Edge 13, Type (0, 1), BuildingBlock: ZUJKAS_clean_linker_0, # of connection points: 2
#     Edge 14, Type (0, 1), BuildingBlock: ZUJKAS_clean_linker_0, # of connection points: 2
#     Edge 15, Type (0, 1), BuildingBlock: ZUJKAS_clean_linker_0, # of connection points: 2
#     Edge 16, Type (0, 1), BuildingBlock: ZUJKAS_clean_linker_0, # of connection points: 2
#     Edge 17, Type (0, 1), BuildingBlock: ZUJKAS_clean_linker_0, # of connection points: 2
#     Edge 18, Type (0, 1), BuildingBlock: ZUJKAS_clean_linker_0, # of connection points: 2
#     Edge 19, Type (0, 1), BuildingBlock: ZUJKAS_clean_linker_0, # of connection points: 2
#     Edge 20, Type (0, 1), BuildingBlock: ZUJKAS_clean_linker_0, # of connection points: 2
#     Edge 21, Type (0, 1), BuildingBlock: ZUJKAS_clean_linker_0, # of connection points: 2
#     Edge 22, Type (0, 1), BuildingBlock: ZUJKAS_clean_linker_0, # of connection points: 2
#     Edge 23, Type (0, 1), BuildingBlock: ZUJKAS_clean_linker_0, # of connection points: 2
#     Edge 24, Type (0, 1), BuildingBlock: ZUJKAS_clean_linker_0, # of connection points: 2
#     Edge 25, Type (0, 1), BuildingBlock: ZUJKAS_clean_linker_0, # of connection points: 2
#     Edge 26, Type (0, 1), BuildingBlock: ZUJKAS_clean_linker_0, # of connection points: 2
# Relax obj value: 0.150
# Max RMSD: 0.181
# Mean RMSD: 0.143
data_MOF--net-anh--node1-PAMTOO_clean_sbu_0--node2-WUSLED_clean_sbu_0--edge1-ZUJKAS_clean_linker_0
_symmetry_space_group_name_H-M    P1
_symmetry_Int_Tables_number       1
_symmetry_cell_setting            triclinic
loop_
_symmetry_equiv_pos_as_xyz
'x, y, z'
_cell_length_a     48.570349
_cell_length_b     46.608227
_cell_length_c     85.517579
_cell_angle_alpha  90.350375
_cell_angle_beta   95.035505
_cell_angle_gamma 109.76061
loop_
_atom_site_label
_atom_site_type_symbol
_atom_site_fract_x
_atom_site_fract_y
_atom_site_fract_z
_atom_type_partial_charge
Dy0 Dy 0.06219 0.59285 0.16912 0.0
Dy1 Dy 1.03241 0.5179 0.16541 0.0
C2 C 0.04926 0.55888 0.13591 0.0
O3 O 1.01254 0.58364 0.16499 0.0
O4 O 0.99208 0.53129 0.16588 0.0
O5 O 0.073 0.63725 0.15904 0.0
O6 O 0.08177 0.63353 0.18403 0.0
O7 O 1.02857 0.53003 0.19018 0.0
O8 O 0.06619 0.57567 0.1931 0.0
O9 O 0.08155 0.52731 0.16372 0.0
O10 O 0.10249 0.57958 0.16739 0.0
O11 O 1.02705 0.47361 0.17485 0.0
O12 O 1.00716 0.47722 0.15158 0.0
C13 C 0.98925 0.55834 0.16464 0.0
O14 O 0.06747 0.58111 0.14491 0.0
O15 O 1.03028 0.53491 0.1414 0.0
C16 C 0.11673 0.67317 0.17173 0.0
C17 C 0.1744 0.715 0.17126 0.0
C18 C 0.15692 0.70332 0.15715 0.0
C19 C 0.12838 0.68258 0.15737 0.0
C20 C 0.13428 0.68489 0.18582 0.0
C21 C 0.1628 0.70548 0.18559 0.0
C22 C 0.08644 0.65148 0.17219 0.0
C23 C 0.04735 0.55222 0.19907 0.0
C24 C 0.10492 0.55261 0.16481 0.0
C25 C 0.98013 0.43688 0.16653 0.0
C26 C 0.92532 0.39456 0.17257 0.0
C27 C 0.94593 0.40998 0.18505 0.0
C28 C 0.97306 0.43106 0.18207 0.0
C29 C 0.95952 0.42131 0.15408 0.0
C30 C 0.93232 0.40048 0.15707 0.0
C31 C 1.00852 0.45925 0.16301 0.0
H32 H 0.16535 0.7101 0.14593 0.0
H33 H 0.11547 0.67403 0.14629 0.0
H34 H 0.12589 0.67827 0.19707 0.0
H35 H 0.17556 0.71447 0.19667 0.0
H36 H 0.94092 0.40599 0.19711 0.0
H37 H 0.98837 0.4428 0.19193 0.0
H38 H 0.96443 0.42531 0.14201 0.0
H39 H 0.91692 0.38866 0.14724 0.0
Dy40 Dy 0.55002 0.02068 0.51455 0.0
Dy41 Dy 0.6219 0.04858 0.51846 0.0
C42 C 0.58559 0.0358 0.54741 0.0
O43 O 0.55883 0.07003 0.51013 0.0
O44 O 0.60691 0.08867 0.52088 0.0
O45 O 0.51147 1.00272 0.52689 0.0
O46 O 0.50698 1.00518 0.50155 0.0
O47 O 0.60879 0.05465 0.49328 0.0
O48 O 0.5631 0.01767 0.49039 0.0
O49 O 0.61289 0.99877 0.51396 0.0
O50 O 0.56446 0.98047 0.51923 0.0
O51 O 0.66504 0.0571 0.51076 0.0
O52 O 0.66028 0.07515 0.53344 0.0
C53 C 0.58255 0.09288 0.51525 0.0
O54 O 0.5659 0.04283 0.53839 0.0
O55 O 0.60623 0.02879 0.54118 0.0
C56 C 0.47235 0.96343 0.5132 0.0
C57 C 0.42816 0.90551 0.51196 0.0
C58 C 0.43885 0.92169 0.52637 0.0
C59 C 0.46065 0.95035 0.52698 0.0
C60 C 0.46233 0.94683 0.49881 0.0
C61 C 0.44046 0.91806 0.49822 0.0
C62 C 0.49376 0.99483 0.51405 0.0
C63 C 0.58581 0.03695 0.48438 0.0
C64 C 0.58905 0.97609 0.5166 0.0
C65 C 0.6982 0.10633 0.51941 0.0
C66 C 0.737 0.16518 0.51377 0.0
C67 C 0.71921 0.14614 0.50128 0.0
C68 C 0.6999 0.11709 0.50407 0.0
C69 C 0.71567 0.12538 0.53188 0.0
C70 C 0.73476 0.15451 0.52912 0.0
C71 C 0.678 0.07577 0.52274 0.0
H72 H 0.42997 0.91238 0.53716 0.0
H73 H 0.46793 0.96257 0.53824 0.0
H74 H 0.47084 0.9563 0.48798 0.0
H75 H 0.43238 0.90616 0.48692 0.0
H76 H 0.72058 0.15341 0.48929 0.0
H77 H 0.68646 0.10305 0.49421 0.0
H78 H 0.71449 0.11773 0.54382 0.0
H79 H 0.74764 0.16871 0.53906 0.0
Dy80 Dy 0.57032 0.53513 0.84236 0.0
Dy81 Dy 0.50253 0.50253 0.83402 0.0
C82 C 0.54511 0.51757 0.80693 0.0
O83 O 0.55289 0.57286 0.84549 0.0
O84 O 0.51032 0.55183 0.82954 0.0
O85 O 0.6117 0.56927 0.83856 0.0
O86 O 0.60896 0.53681 0.85707 0.0
O87 O 0.50446 0.51828 0.85925 0.0
O88 O 0.55335 0.52655 0.86583 0.0
O89 O 0.51808 0.46613 0.84327 0.0
O90 O 0.56375 0.48635 0.83539 0.0
O91 O 0.45921 0.47405 0.83882 0.0
O92 O 0.46786 0.48951 0.81526 0.0
C93 C 0.53023 0.57556 0.83698 0.0
O94 O 0.56343 0.53923 0.81632 0.0
O95 O 0.52371 0.49608 0.81265 0.0
C96 C 0.64574 0.54414 0.841 0.0
C97 C 0.6777 0.51049 0.82959 0.0
C98 C 0.6529 0.512 0.82054 0.0
C99 C 0.63679 0.52856 0.82629 0.0
C100 C 0.67055 0.54279 0.85002 0.0
C101 C 0.6866 0.52612 0.84431 0.0
C102 C 0.62589 0.55622 0.84811 0.0
C103 C 0.52719 0.52372 0.86984 0.0
C104 C 0.54199 0.46263 0.83923 0.0
C105 C 0.42544 0.49074 0.82428 0.0
C106 C 0.38491 0.5204 0.82186 0.0
C107 C 0.40956 0.53143 0.83275 0.0
C108 C 0.43 0.51677 0.83387 0.0
C109 C 0.40119 0.48023 0.81308 0.0
C110 C 0.38076 0.49513 0.81187 0.0
C111 C 0.44803 0.47721 0.82478 0.0
H112 H 0.64604 0.50037 0.80912 0.0
H113 H 0.61693 0.52852 0.81944 0.0
H114 H 0.67703 0.55395 0.86157 0.0
H115 H 0.70626 0.52589 0.85128 0.0
H116 H 0.41262 0.55097 0.84052 0.0
H117 H 0.44932 0.52569 0.84219 0.0
H118 H 0.39816 0.46069 0.80535 0.0
H119 H 0.36143 0.48653 0.80354 0.0
C120 C 0.60495 0.11652 0.21181 0.0
C121 C 0.62699 0.13044 0.22393 0.0
C122 C 0.6553 0.16539 0.2055 0.0
C123 C 0.65196 0.15465 0.2208 0.0
C124 C 0.63286 0.15168 0.19346 0.0
C125 C 0.6079 0.1274 0.1966 0.0
U126 U 0.55895 0.0658 0.24096 0.0
O127 O 0.51111 0.04431 0.24117 0.0
O128 O 0.5392 0.01587 0.24133 0.0
C129 C 0.51232 0.01654 0.24085 0.0
C130 C 0.57918 0.09036 0.21495 0.0
C131 C 0.49012 0.9938 0.23022 0.0
C132 C 0.4619 0.97675 0.20492 0.0
C133 C 0.48397 0.99912 0.21437 0.0
C134 C 0.45247 0.94381 0.22709 0.0
C135 C 0.44591 0.94881 0.21122 0.0
C136 C 0.47436 0.96603 0.23644 0.0
C137 C 0.58452 0.08427 0.28477 0.0
C138 C 0.55871 0.05562 0.30592 0.0
C139 C 0.60598 0.09542 0.31179 0.0
C140 C 0.60731 0.10124 0.29582 0.0
C141 C 0.58177 0.07244 0.31705 0.0
C142 C 0.56013 0.06143 0.28988 0.0
C143 C 0.5871 0.09049 0.26803 0.0
O144 O 0.58525 0.06721 0.22117 0.0
O145 O 0.55885 0.09715 0.2218 0.0
O146 O 0.56628 0.09888 0.26069 0.0
O147 O 0.59423 0.07059 0.25981 0.0
H148 H 0.62496 0.12242 0.23578 0.0
H149 H 0.66862 0.16501 0.23038 0.0
H150 H 0.6349 0.15923 0.18153 0.0
H151 H 0.59106 0.11689 0.18712 0.0
H152 H 0.45744 0.98123 0.19272 0.0
H153 H 0.49604 0.02049 0.20936 0.0
H154 H 0.44021 0.92294 0.23245 0.0
H155 H 0.47876 0.96162 0.24867 0.0
H156 H 0.53987 0.03762 0.30957 0.0
H157 H 0.62387 0.10913 0.32004 0.0
H158 H 0.62626 0.11899 0.29208 0.0
H159 H 0.54235 0.048 0.28147 0.0
C160 C 0.58892 0.60721 0.538 0.0
C161 C 0.57236 0.61957 0.54693 0.0
C162 C 0.58966 0.6678 0.53359 0.0
C163 C 0.57263 0.64948 0.5447 0.0
C164 C 0.60638 0.65536 0.52479 0.0
C165 C 0.60595 0.62542 0.52696 0.0
U166 U 0.58248 0.5379 0.5633 0.0
O167 O 0.55983 0.48873 0.55806 0.0
O168 O 0.6076 0.50624 0.56458 0.0
C169 C 0.58414 0.48225 0.56062 0.0
C170 C 0.58867 0.5755 0.53997 0.0
C171 C 0.58758 0.45688 0.55134 0.0
C172 C 0.5692 0.41545 0.53139 0.0
C173 C 0.56872 0.44305 0.53791 0.0
C174 C 0.6078 0.41565 0.55133 0.0
C175 C 0.58834 0.40103 0.53824 0.0
C176 C 0.60744 0.44315 0.55773 0.0
C177 C 0.57098 0.5485 0.60732 0.0
C178 C 0.57448 0.51658 0.62937 0.0
C179 C 0.55865 0.55994 0.63302 0.0
C180 C 0.56152 0.56657 0.61722 0.0
C181 C 0.56508 0.53489 0.63938 0.0
C182 C 0.57737 0.5233 0.61344 0.0
C183 C 0.57495 0.55769 0.59094 0.0
O184 O 0.61103 0.57252 0.5488 0.0
O185 O 0.56338 0.55503 0.54264 0.0
O186 O 0.5531 0.54411 0.58028 0.0
O187 O 0.6009 0.56176 0.58612 0.0
H188 H 0.5592 0.60611 0.55563 0.0
H189 H 0.55979 0.65839 0.55184 0.0
H190 H 0.61947 0.6686 0.51601 0.0
H191 H 0.61888 0.61641 0.51993 0.0
H192 H 0.55417 0.40513 0.52118 0.0
H193 H 0.55297 0.45294 0.53277 0.0
H194 H 0.62246 0.40515 0.55718 0.0
H195 H 0.62181 0.45296 0.56825 0.0
H196 H 0.57944 0.49699 0.63381 0.0
H197 H 0.55197 0.57497 0.64034 0.0
H198 H 0.55672 0.58626 0.61276 0.0
H199 H 0.58476 0.50905 0.60598 0.0
C200 C 1.01412 0.57173 0.8687 0.0
C201 C 0.99688 0.58085 0.87864 0.0
C202 C 0.95976 0.57388 0.85705 0.0
C203 C 0.96985 0.58212 0.87281 0.0
C204 C 0.97761 0.56601 0.84695 0.0
C205 C 1.00482 0.56491 0.8528 0.0
U206 U 0.05276 0.55826 0.90504 0.0
O207 O 0.07726 0.52747 0.91131 0.0
O208 O 0.09914 0.57729 0.91417 0.0
C209 C 0.10228 0.55049 0.91274 0.0
C210 C 0.03979 0.56582 0.87559 0.0
C211 C 0.12266 0.54988 0.90135 0.0
C212 C 0.12865 0.53982 0.87429 0.0
C213 C 0.11139 0.5345 0.88672 0.0
C214 C 0.16886 0.57569 0.89089 0.0
C215 C 0.15722 0.56079 0.87625 0.0
C216 C 0.15159 0.5702 0.90343 0.0
C217 C 1.02705 0.5593 0.94311 0.0
C218 C 0.06303 0.55292 0.96293 0.0
C219 C 1.02788 0.57644 0.96984 0.0
C220 C 1.01552 0.57273 0.9543 0.0
C221 C 0.05211 0.5671 0.97415 0.0
C222 C 0.05054 0.549 0.94753 0.0
C223 C 1.01915 0.56104 0.92647 0.0
O224 O 0.05737 0.58807 0.88503 0.0
O225 O 1.03373 0.53865 0.88154 0.0
O226 O 1.01479 0.53576 0.91815 0.0
O227 O 1.03671 0.58562 0.92045 0.0
H228 H 1.00375 0.58569 0.89106 0.0
H229 H 0.95627 0.58812 0.88075 0.0
H230 H 0.96981 0.55892 0.8348 0.0
H231 H 1.01786 0.55735 0.84515 0.0
H232 H 0.11943 0.52824 0.86302 0.0
H233 H 0.08877 0.51949 0.88459 0.0
H234 H 0.19115 0.59167 0.89257 0.0
H235 H 0.16025 0.58291 0.91447 0.0
H236 H 0.08174 0.54566 0.96596 0.0
H237 H 1.01869 0.58683 0.97843 0.0
H238 H 0.99775 0.58123 0.95095 0.0
H239 H 0.06013 0.53916 0.9389 0.0
C240 C 1.00568 0.497 0.4712 0.0
C241 C 0.98763 0.47709 0.45917 0.0
C242 C 0.95873 0.44542 0.47853 0.0
C243 C 0.96438 0.45147 0.4628 0.0
C244 C 0.97663 0.46585 0.4905 0.0
C245 C 0.99994 0.4914 0.48685 0.0
U246 U 0.04894 0.54725 0.44103 0.0
O247 O 0.07223 0.59672 0.44115 0.0
O248 O 0.09639 0.56485 0.43874 0.0
C249 C 0.09789 0.59342 0.44022 0.0
C250 C 1.03092 0.52315 0.4675 0.0
C251 C 0.12265 0.61311 0.45072 0.0
C252 C 0.14405 0.63995 0.47569 0.0
C253 C 0.11982 0.62017 0.46636 0.0
C254 C 0.17388 0.6451 0.45388 0.0
C255 C 0.17133 0.65261 0.4695 0.0
C256 C 0.14979 0.62553 0.44462 0.0
C257 C 1.0221 0.53023 0.39778 0.0
C258 C 0.04845 0.56097 0.37741 0.0
C259 C 1.00676 0.51512 0.37035 0.0
C260 C 1.00313 0.51002 0.38622 0.0
C261 C 1.02943 0.54065 0.36572 0.0
C262 C 0.04483 0.55577 0.39332 0.0
C263 C 1.01838 0.52385 0.41438 0.0
O264 O 0.05037 0.51607 0.45998 0.0
O265 O 1.02448 0.54636 0.46162 0.0
O266 O 1.01341 0.54504 0.42275 0.0
O267 O 1.03765 0.51309 0.42156 0.0
H268 H 0.99182 0.48113 0.44699 0.0
H269 H 0.95128 0.43604 0.45331 0.0
H270 H 0.9726 0.46213 0.5027 0.0
H271 H 1.01363 0.50666 0.49625 0.0
H272 H 0.14151 0.64527 0.48771 0.0
H273 H 0.09897 0.61062 0.47128 0.0
H274 H 0.19437 0.65495 0.44865 0.0
H275 H 0.15229 0.62036 0.43256 0.0
H276 H 0.06598 0.58097 0.37425 0.0
H277 H 0.99208 0.49869 0.36171 0.0
H278 H 0.98566 0.49007 0.38949 0.0
H279 H 0.05978 0.57156 0.40215 0.0
C280 C 0.51792 0.93746 0.81174 0.0
C281 C 0.52302 0.92182 0.79884 0.0
C282 C 0.51994 0.87795 0.81489 0.0
C283 C 0.52401 0.89226 0.8004 0.0
C284 C 0.51449 0.89374 0.82768 0.0
C285 C 0.51354 0.9232 0.82611 0.0
U286 U 0.52211 0.00817 0.78827 0.0
O287 O 0.4974 0.0398 0.79049 0.0
O288 O 0.5463 0.05667 0.79482 0.0
C289 C 0.52175 0.06279 0.79444 0.0
C290 C 0.51758 0.96879 0.81057 0.0
C291 C 0.52157 0.0936 0.79791 0.0
C292 C 0.50886 0.12887 0.81447 0.0
C293 C 0.50753 0.09916 0.81064 0.0
C294 C 0.53738 0.14748 0.79248 0.0
C295 C 0.52392 0.15349 0.80547 0.0
C296 C 0.53648 0.11788 0.78886 0.0
C297 C 0.53314 0.9994 0.7436 0.0
C298 C 0.52899 0.02883 0.72064 0.0
C299 C 0.54791 0.98716 0.71876 0.0
C300 C 0.54459 0.98175 0.7346 0.0
C301 C 0.53976 0.01042 0.71148 0.0
C302 C 0.52558 0.02327 0.73663 0.0
C303 C 0.52857 0.99087 0.75995 0.0
O304 O 0.54259 0.98944 0.80773 0.0
O305 O 0.49474 0.97183 0.80225 0.0
O306 O 0.50281 0.98772 0.76483 0.0
O307 O 0.55074 1.00328 0.77061 0.0
H308 H 0.52649 0.93257 0.78763 0.0
H309 H 0.5285 0.88087 0.79035 0.0
H310 H 0.51072 0.88324 0.83892 0.0
H311 H 0.50948 0.93492 0.83617 0.0
H312 H 0.49863 0.13255 0.82469 0.0
H313 H 0.49615 0.08065 0.81785 0.0
H314 H 0.54858 0.16561 0.78504 0.0
H315 H 0.54735 0.11392 0.77895 0.0
H316 H 0.52253 0.04693 0.71536 0.0
H317 H 0.5569 0.97302 0.71221 0.0
H318 H 0.55067 0.96333 0.7398 0.0
H319 H 0.51673 0.03722 0.74343 0.0
C320 C 0.6215 0.55332 0.13517 0.0
C321 C 0.63684 0.55251 0.12201 0.0
C322 C 0.68197 0.55451 0.13891 0.0
C323 C 0.66646 0.55303 0.12385 0.0
C324 C 0.66624 0.55556 0.15194 0.0
C325 C 0.63683 0.55485 0.15009 0.0
U326 U 0.53786 0.55075 0.12035 0.0
O327 O 0.49901 0.52789 0.13328 0.0
O328 O 0.51505 0.57749 0.13242 0.0
C329 C 0.4949 0.55332 0.13725 0.0
C330 C 0.59005 0.55307 0.13429 0.0
C331 C 0.4637 0.55346 0.13762 0.0
C332 C 0.4276 0.56534 0.1527 0.0
C333 C 0.4565 0.56602 0.15104 0.0
C334 C 0.41152 0.53972 0.12731 0.0
C335 C 0.40419 0.5523 0.14089 0.0
C336 C 0.44064 0.54017 0.12574 0.0
C337 C 0.53103 0.542 0.07289 0.0
C338 C 0.50996 0.51925 0.04686 0.0
C339 C 0.55696 0.55997 0.04964 0.0
C340 C 0.5554 0.5616 0.06601 0.0
C341 C 0.53405 0.53893 0.03976 0.0
C342 C 0.50858 0.52072 0.06312 0.0
C343 C 0.52581 0.54531 0.08959 0.0
O344 O 0.58384 0.57724 0.12968 0.0
O345 O 0.56794 0.52754 0.13091 0.0
O346 O 0.52113 0.52174 0.09863 0.0
O347 O 0.53809 0.57178 0.09725 0.0
H348 H 0.62597 0.55138 0.1103 0.0
H349 H 0.67698 0.55185 0.11334 0.0
H350 H 0.67667 0.55748 0.16379 0.0
H351 H 0.62598 0.55575 0.16054 0.0
H352 H 0.42374 0.57463 0.16357 0.0
H353 H 0.47339 0.57606 0.16057 0.0
H354 H 0.39485 0.52964 0.11773 0.0
H355 H 0.44505 0.53003 0.11524 0.0
H356 H 0.49149 0.50324 0.03983 0.0
H357 H 0.57606 0.57534 0.04474 0.0
H358 H 0.57293 0.57851 0.0732 0.0
H359 H 0.48921 0.50579 0.06802 0.0
H360 H 0.15966 0.5958 0.17323 0.0
H361 H 0.20851 0.59439 0.16902 0.0
H362 H 0.16883 0.50513 0.14661 0.0
H363 H 0.11982 0.50623 0.15099 0.0
H364 H 0.23797 0.5537 0.17922 0.0
H365 H 0.2242 0.55036 0.11413 0.0
H366 H 0.19995 0.56116 0.12593 0.0
H367 H 0.19601 0.52166 0.12323 0.0
C368 C 0.16114 0.57574 0.16742 0.0
C369 C 0.13524 0.55111 0.16253 0.0
C370 C 0.18937 0.57497 0.16499 0.0
C371 C 0.19301 0.54986 0.15724 0.0
C372 C 0.16718 0.52514 0.15238 0.0
H373 H 0.34949 0.5127 0.12727 0.0
H374 H 0.30001 0.5119 0.13129 0.0
C375 C 0.1389 0.52568 0.15504 0.0
C376 C 0.22363 0.54945 0.15457 0.0
H377 H 0.26802 0.54542 0.12595 0.0
C378 C 0.24445 0.55195 0.16754 0.0
C379 C 0.23268 0.54694 0.1394 0.0
C380 C 0.21222 0.54512 0.12482 0.0
C381 C 0.27318 0.55141 0.16585 0.0
C382 C 0.28256 0.54955 0.15063 0.0
C383 C 0.26159 0.54693 0.13766 0.0
C384 C 0.3137 0.55041 0.14793 0.0
C385 C 0.29269 0.55163 0.18061 0.0
C386 C 0.33899 0.57277 0.15541 0.0
C387 C 0.36768 0.57343 0.15306 0.0
C388 C 0.3728 0.55187 0.14297 0.0
C389 C 0.34739 0.52997 0.13511 0.0
C390 C 0.3186 0.52936 0.13749 0.0
H391 H 0.27953 0.54232 0.19057 0.0
H392 H 0.30713 0.53804 0.17891 0.0
H393 H 0.30662 0.57549 0.18399 0.0
H394 H 0.3367 0.59032 0.16301 0.0
H395 H 0.38591 0.59152 0.15906 0.0
H396 H 0.79247 0.19291 0.52828 0.0
H397 H 0.82793 0.24231 0.52298 0.0
H398 H 0.76649 0.25521 0.4865 0.0
H399 H 0.73016 0.20655 0.49231 0.0
H400 H 0.8525 0.25837 0.49581 0.0
H401 H 0.79328 0.33663 0.51032 0.0
H402 H 0.7817 0.29735 0.5159 0.0
H403 H 0.77278 0.3068 0.49618 0.0
C404 C 0.78613 0.20651 0.51938 0.0
C405 C 0.75832 0.1957 0.51077 0.0
C406 C 0.80657 0.23467 0.51628 0.0
C407 C 0.79972 0.25263 0.50449 0.0
C408 C 0.77202 0.24203 0.49588 0.0
H409 H 0.90356 0.42001 0.46317 0.0
H410 H 0.86493 0.37298 0.46922 0.0
C411 C 0.75144 0.21395 0.49907 0.0
C412 C 0.82233 0.28147 0.50059 0.0
H413 H 0.83682 0.3581 0.49753 0.0
C414 C 0.84912 0.2802 0.49627 0.0
C415 C 0.81779 0.30988 0.50112 0.0
C416 C 0.78994 0.31289 0.50627 0.0
C417 C 0.87143 0.30652 0.49233 0.0
C418 C 0.86695 0.33492 0.49291 0.0
C419 C 0.84011 0.33623 0.4971 0.0
C420 C 0.89011 0.36357 0.48943 0.0
C421 C 0.89946 0.30365 0.48734 0.0
C422 C 0.91684 0.37397 0.49894 0.0
C423 C 0.93901 0.40062 0.49545 0.0
C424 C 0.93478 0.41753 0.48245 0.0
C425 C 0.9077 0.40729 0.47312 0.0
C426 C 0.88553 0.38058 0.47662 0.0
H427 H 0.89653 0.2798 0.48368 0.0
H428 H 0.90737 0.31869 0.47747 0.0
H429 H 0.91672 0.31065 0.49738 0.0
H430 H 0.92059 0.36138 0.50903 0.0
H431 H 0.95967 0.40766 0.50279 0.0
H432 H 0.55897 0.62732 0.85516 0.0
H433 H 0.55601 0.67822 0.85153 0.0
H434 H 0.49528 0.64444 0.81021 0.0
H435 H 0.49698 0.59327 0.81425 0.0
H436 H 0.57113 0.71594 0.82894 0.0
H437 H 0.45151 0.68786 0.83191 0.0
H438 H 0.47 0.66111 0.83705 0.0
H439 H 0.45924 0.66575 0.81678 0.0
C440 C 0.54467 0.63067 0.84543 0.0
C441 C 0.52791 0.60619 0.8351 0.0
C442 C 0.54307 0.6598 0.84333 0.0
C443 C 0.52495 0.66512 0.83078 0.0
C444 C 0.50863 0.64079 0.8203 0.0
H445 H 0.49803 0.82842 0.79421 0.0
H446 H 0.50008 0.77704 0.79785 0.0
C447 C 0.50977 0.61154 0.82256 0.0
C448 C 0.52398 0.69633 0.82835 0.0
H449 H 0.47732 0.73696 0.8226 0.0
C450 C 0.55061 0.72052 0.82767 0.0
C451 C 0.4972 0.70239 0.82669 0.0
C452 C 0.46793 0.67794 0.8283 0.0
C453 C 0.55117 0.75042 0.82513 0.0
C454 C 0.52441 0.75634 0.82328 0.0
C455 C 0.49778 0.73225 0.82392 0.0
C456 C 0.52366 0.78754 0.82098 0.0
C457 C 0.58037 0.77541 0.8242 0.0
C458 C 0.53619 0.81036 0.83281 0.0
C459 C 0.53529 0.83973 0.83072 0.0
C460 C 0.52157 0.84683 0.81682 0.0
C461 C 0.50904 0.82385 0.80498 0.0
C462 C 0.50998 0.79443 0.80708 0.0
H463 H 0.598 0.76608 0.82205 0.0
H464 H 0.57886 0.79114 0.81472 0.0
H465 H 0.58685 0.78886 0.8355 0.0
H466 H 0.54652 0.8054 0.84371 0.0
H467 H 0.54549 0.85693 0.84 0.0
H468 H 0.96819 0.59734 0.14667 0.0
H469 H 0.91726 0.59711 0.14205 0.0
H470 H 0.88891 0.52269 0.17313 0.0
H471 H 0.93944 0.52211 0.17733 0.0
H472 H 0.86051 0.53886 0.13126 0.0
H473 H 0.85788 0.59533 0.18823 0.0
H474 H 0.8918 0.60076 0.17953 0.0
H475 H 0.87376 0.5655 0.18846 0.0
C476 C 0.9512 0.58105 0.15264 0.0
C477 C 0.95835 0.55987 0.16249 0.0
C478 C 0.92186 0.58082 0.14991 0.0
C479 C 0.89873 0.55997 0.15725 0.0
C480 C 0.90596 0.53913 0.16727 0.0
H481 H 0.71153 0.53582 0.16436 0.0
H482 H 0.76234 0.53775 0.16825 0.0
C483 C 0.93509 0.53884 0.16969 0.0
C484 C 0.86718 0.55967 0.15439 0.0
H485 H 0.81366 0.57804 0.17167 0.0
C486 C 0.85037 0.54762 0.14009 0.0
C487 C 0.8533 0.57056 0.16586 0.0
C488 C 0.86997 0.58395 0.1814 0.0
C489 C 0.82049 0.54575 0.13707 0.0
C490 C 0.80662 0.55727 0.14842 0.0
C491 C 0.8236 0.56926 0.16277 0.0
C492 C 0.77469 0.55659 0.14582 0.0
C493 C 0.80383 0.53012 0.1219 0.0
C494 C 0.76353 0.567 0.13198 0.0
C495 C 0.73394 0.56608 0.12968 0.0
C496 C 0.71402 0.55507 0.14119 0.0
C497 C 0.72546 0.54502 0.15512 0.0
C498 C 0.755 0.54593 0.15739 0.0
H499 H 0.81374 0.51398 0.11718 0.0
H500 H 0.78047 0.51729 0.12347 0.0
H501 H 0.80471 0.54752 0.11298 0.0
H502 H 0.77786 0.57645 0.12293 0.0
H503 H 0.72701 0.57475 0.11889 0.0
H504 H 0.37763 0.89417 0.52601 0.0
H505 H 0.33411 0.84801 0.52326 0.0
H506 H 0.37749 0.80597 0.49317 0.0
H507 H 0.42133 0.85218 0.49588 0.0
H508 H 0.30674 0.82338 0.48932 0.0
H509 H 0.33681 0.7423 0.52913 0.0
H510 H 0.35244 0.78321 0.53249 0.0
H511 H 0.36402 0.76515 0.51702 0.0
C512 C 0.37815 0.87487 0.51908 0.0
C513 C 0.40285 0.87668 0.51117 0.0
C514 C 0.3533 0.84862 0.51751 0.0
C515 C 0.3529 0.82368 0.50818 0.0
C516 C 0.37771 0.825 0.50058 0.0
H517 H 0.22842 0.65501 0.47116 0.0
H518 H 0.27168 0.69627 0.48266 0.0
C519 C 0.40254 0.8514 0.50203 0.0
C520 C 0.32547 0.7976 0.50503 0.0
H521 H 0.29205 0.72282 0.51285 0.0
C522 C 0.3033 0.80143 0.49454 0.0
C523 C 0.32146 0.76918 0.51186 0.0
C524 C 0.3448 0.76449 0.52334 0.0
C525 C 0.27727 0.77714 0.49031 0.0
C526 C 0.27312 0.74855 0.49712 0.0
C527 C 0.29523 0.74486 0.50779 0.0
C528 C 0.24685 0.72176 0.49232 0.0
C529 C 0.25498 0.782 0.47812 0.0
C530 C 0.2186 0.7219 0.49452 0.0
C531 C 0.19381 0.69854 0.48778 0.0
C532 C 0.19699 0.67463 0.47884 0.0
C533 C 0.22532 0.67349 0.47769 0.0
C534 C 0.25003 0.69689 0.48435 0.0
H535 H 0.26448 0.80302 0.47155 0.0
H536 H 0.24619 0.76228 0.46957 0.0
H537 H 0.23636 0.78433 0.48403 0.0
H538 H 0.21578 0.7407 0.50091 0.0
H539 H 0.17229 0.70006 0.48887 0.0
H540 H 0.49901 0.40962 0.84515 0.0
H541 H 0.49751 0.35761 0.84018 0.0
H542 H 0.58342 0.39181 0.82338 0.0
H543 H 0.58533 0.44433 0.82849 0.0
H544 H 0.5003 0.33128 0.81142 0.0
H545 H 0.59114 0.32842 0.85493 0.0
H546 H 0.57441 0.35755 0.85559 0.0
H547 H 0.60075 0.35945 0.84178 0.0
C548 C 0.51783 0.40623 0.84058 0.0
C549 C 0.54244 0.43121 0.8373 0.0
C550 C 0.51683 0.37641 0.83769 0.0
C551 C 0.54041 0.37084 0.83154 0.0
C552 C 0.56517 0.39563 0.82838 0.0
H553 H 0.57043 0.20636 0.80312 0.0
H554 H 0.57336 0.25852 0.80922 0.0
C555 C 0.56622 0.42561 0.83127 0.0
C556 C 0.53839 0.33901 0.82795 0.0
H557 H 0.57015 0.28551 0.83731 0.0
C558 C 0.51551 0.32121 0.81709 0.0
C559 C 0.55822 0.32598 0.83542 0.0
C560 C 0.58238 0.34368 0.84769 0.0
C561 C 0.51223 0.29082 0.81328 0.0
C562 C 0.53208 0.27775 0.82075 0.0
C563 C 0.55495 0.29557 0.83162 0.0
C564 C 0.52992 0.24585 0.81715 0.0
C565 C 0.48798 0.27325 0.80102 0.0
C566 C 0.50455 0.2213 0.81969 0.0
C567 C 0.5025 0.19137 0.81589 0.0
C568 C 0.52598 0.18532 0.80967 0.0
C569 C 0.55161 0.21004 0.80751 0.0
C570 C 0.5535 0.23993 0.81117 0.0
H571 H 0.47967 0.28866 0.79363 0.0
H572 H 0.49563 0.2589 0.79324 0.0
H573 H 0.46932 0.25803 0.80693 0.0
H574 H 0.48629 0.22529 0.8246 0.0
H575 H 0.48233 0.17306 0.81762 0.0
H576 H 0.54264 0.92256 0.51676 0.0
H577 H 0.54408 0.87077 0.51879 0.0
H578 H 0.63851 0.90581 0.51971 0.0
H579 H 0.63736 0.95781 0.51778 0.0
H580 H 0.56648 0.83686 0.49925 0.0
H581 H 0.62474 0.85549 0.5593 0.0
H582 H 0.60773 0.88151 0.55084 0.0
H583 H 0.64274 0.8822 0.54523 0.0
C584 C 0.56378 0.91934 0.51741 0.0
C585 C 0.58993 0.94449 0.51721 0.0
C586 C 0.56452 0.88965 0.51852 0.0
C587 C 0.59141 0.88439 0.51963 0.0
C588 C 0.61753 0.90933 0.51913 0.0
H589 H 0.63687 0.719 0.52919 0.0
H590 H 0.63724 0.77113 0.52515 0.0
C591 C 0.61681 0.93906 0.51793 0.0
C592 C 0.59201 0.85282 0.52143 0.0
H593 H 0.61662 0.80781 0.54644 0.0
C594 C 0.5774 0.8305 0.50958 0.0
C595 C 0.60621 0.84448 0.53493 0.0
C596 C 0.62104 0.86704 0.54839 0.0
C597 C 0.57691 0.80022 0.51079 0.0
C598 C 0.59106 0.79191 0.52429 0.0
C599 C 0.60582 0.81423 0.53609 0.0
C600 C 0.59057 0.76007 0.52644 0.0
C601 C 0.56171 0.77739 0.4975 0.0
C602 C 0.56421 0.73653 0.52862 0.0
C603 C 0.56391 0.70668 0.53097 0.0
C604 C 0.58997 0.69968 0.53115 0.0
C605 C 0.61633 0.72341 0.52895 0.0
C606 C 0.61663 0.75329 0.52671 0.0
H607 H 0.55677 0.78859 0.48671 0.0
H608 H 0.5755 0.76363 0.4947 0.0
H609 H 0.54069 0.76154 0.50111 0.0
H610 H 0.54387 0.74129 0.52861 0.0
H611 H 0.54317 0.689 0.53246 0.0
H612 H 0.69887 0.52034 0.80125 0.0
H613 H 0.74685 0.51856 0.79647 0.0
H614 H 0.74904 0.47003 0.83914 0.0
H615 H 0.70062 0.47062 0.84358 0.0
H616 H 0.77964 0.5536 0.82238 0.0
H617 H 0.80839 0.44911 0.81533 0.0
H618 H 0.77257 0.45076 0.80866 0.0
H619 H 0.78155 0.4453 0.82903 0.0
C620 C 0.70859 0.50719 0.80891 0.0
C621 C 0.69688 0.49637 0.82302 0.0
C622 C 0.73595 0.50616 0.80615 0.0
C623 C 0.75142 0.49465 0.81758 0.0
C624 C 0.73724 0.47874 0.8301 0.0
H625 H 0.91218 0.54372 0.87202 0.0
H626 H 0.86101 0.52744 0.86099 0.0
C627 C 0.70974 0.47941 0.83276 0.0
C628 C 0.78324 0.50878 0.81995 0.0
H629 H 0.84517 0.49216 0.82989 0.0
C630 C 0.79427 0.54039 0.82345 0.0
C631 C 0.80166 0.49116 0.82192 0.0
C632 C 0.79044 0.45721 0.81842 0.0
C633 C 0.82329 0.55466 0.82955 0.0
C634 C 0.84136 0.53679 0.83188 0.0
C635 C 0.83079 0.5055 0.82791 0.0
C636 C 0.87116 0.54996 0.83911 0.0
C637 C 0.83405 0.58815 0.83442 0.0
C638 C 0.89295 0.56876 0.83048 0.0
C639 C 0.92202 0.57843 0.83678 0.0
C640 C 0.92921 0.5691 0.85166 0.0
C641 C 0.907 0.55155 0.86059 0.0
C642 C 0.87798 0.54198 0.8543 0.0
H643 H 0.81615 0.59804 0.83331 0.0
H644 H 0.84401 0.5915 0.84679 0.0
H645 H 0.85138 0.60099 0.82696 0.0
H646 H 0.88757 0.57489 0.81869 0.0
H647 H 0.93896 0.59207 0.82981 0.0
H648 H 0.22416 0.71698 0.18949 0.0
H649 H 0.2723 0.75741 0.19118 0.0
H650 H 0.24059 0.80466 0.15453 0.0
H651 H 0.19218 0.76457 0.15289 0.0
H652 H 0.31135 0.78539 0.16383 0.0
H653 H 0.26861 0.86227 0.19693 0.0
H654 H 0.25128 0.8213 0.19636 0.0
H655 H 0.24743 0.84239 0.17934 0.0
C656 C 0.22747 0.73592 0.18175 0.0
C657 C 0.20432 0.73778 0.17117 0.0
C658 C 0.25499 0.75881 0.18264 0.0
C659 C 0.25975 0.78393 0.17303 0.0
C660 C 0.23714 0.78536 0.16204 0.0
H661 H 0.40365 0.95704 0.19003 0.0
H662 H 0.36003 0.91762 0.17727 0.0
C663 C 0.20961 0.76241 0.16108 0.0
C664 C 0.28773 0.80964 0.17535 0.0
H665 H 0.31866 0.88027 0.19316 0.0
C666 C 0.31304 0.80631 0.17009 0.0
C667 C 0.2896 0.83681 0.18345 0.0
C668 C 0.2629 0.84112 0.18945 0.0
C669 C 0.34048 0.82952 0.17293 0.0
C670 C 0.34261 0.8563 0.1816 0.0
C671 C 0.31702 0.85984 0.18645 0.0
C672 C 0.3712 0.8798 0.18705 0.0
C673 C 0.36684 0.82508 0.1666 0.0
C674 C 0.3922 0.87163 0.19655 0.0
C675 C 0.41725 0.89403 0.20367 0.0
C676 C 0.42162 0.92517 0.2017 0.0
C677 C 0.40113 0.9333 0.19167 0.0
C678 C 0.37611 0.9108 0.18444 0.0
H679 H 0.36026 0.80976 0.15591 0.0
H680 H 0.38314 0.84714 0.1637 0.0
H681 H 0.37755 0.8142 0.17559 0.0
H682 H 0.38861 0.84796 0.19906 0.0
H683 H 0.43277 0.88695 0.21116 0.0
H684 H 0.629 0.14616 0.52059 0.0
H685 H 0.62784 0.19807 0.52208 0.0
H686 H 0.53371 0.16361 0.51155 0.0
H687 H 0.53457 0.1114 0.51018 0.0
H688 H 0.6073 0.23195 0.4998 0.0
H689 H 0.54514 0.21413 0.55253 0.0
H690 H 0.56223 0.18775 0.54619 0.0
H691 H 0.52798 0.18761 0.53631 0.0
C692 C 0.60799 0.14952 0.51859 0.0
C693 C 0.58182 0.1245 0.51537 0.0
C694 C 0.60741 0.17928 0.51939 0.0
C695 C 0.58067 0.18473 0.51715 0.0
C696 C 0.55456 0.15992 0.51358 0.0
H697 H 0.53965 0.3522 0.52736 0.0
H698 H 0.53737 0.30035 0.5205 0.0
C699 C 0.55511 0.13008 0.5127 0.0
C700 C 0.58025 0.21637 0.5188 0.0
H701 H 0.55544 0.26207 0.54099 0.0
C702 C 0.59591 0.23855 0.50878 0.0
C703 C 0.56546 0.22497 0.53054 0.0
C704 C 0.54944 0.2025 0.54212 0.0
C705 C 0.59701 0.26902 0.51014 0.0
C706 C 0.58243 0.27767 0.52198 0.0
C707 C 0.5665 0.25541 0.53187 0.0
C708 C 0.58421 0.30986 0.52472 0.0
C709 C 0.61342 0.29164 0.49876 0.0
C710 C 0.61134 0.3326 0.52921 0.0
C711 C 0.61279 0.36238 0.53298 0.0
C712 C 0.58708 0.37012 0.53253 0.0
C713 C 0.55997 0.34736 0.52767 0.0
C714 C 0.55857 0.31757 0.52386 0.0
H715 H 0.61683 0.28008 0.48807 0.0
H716 H 0.60144 0.30741 0.49517 0.0
H717 H 0.63534 0.30545 0.50452 0.0
H718 H 0.63139 0.32716 0.53022 0.0
H719 H 0.63411 0.37926 0.53648 0.0
H720 H 0.34984 0.51282 0.84472 0.0
H721 H 0.31079 0.53419 0.84657 0.0
H722 H 0.33052 0.5785 0.80261 0.0
H723 H 0.36917 0.55585 0.80049 0.0
H724 H 0.31753 0.59532 0.84738 0.0
H725 H 0.24195 0.52986 0.79656 0.0
H726 H 0.27257 0.5196 0.80492 0.0
H727 H 0.27892 0.55238 0.79304 0.0
C728 C 0.34554 0.52698 0.83547 0.0
C729 C 0.36178 0.53295 0.82246 0.0
C730 C 0.32357 0.5392 0.83653 0.0
C731 C 0.31814 0.55778 0.82468 0.0
C732 C 0.33454 0.56392 0.81169 0.0
H733 H 0.18826 0.61529 0.86485 0.0
H734 H 0.22526 0.62358 0.84604 0.0
C735 C 0.35634 0.55119 0.8105 0.0
C736 C 0.29479 0.57008 0.82623 0.0
H737 H 0.22283 0.55539 0.814 0.0
C738 C 0.29696 0.58757 0.8399 0.0
C739 C 0.26833 0.55924 0.81636 0.0
C740 C 0.26503 0.53907 0.80193 0.0
C741 C 0.27214 0.59157 0.84507 0.0
C742 C 0.24516 0.5796 0.83553 0.0
C743 C 0.24382 0.56495 0.82099 0.0
C744 C 0.21759 0.57547 0.84221 0.0
C745 C 0.27446 0.60522 0.86144 0.0
C746 C 0.19994 0.54566 0.84512 0.0
C747 C 0.17876 0.54093 0.85555 0.0
C748 C 0.17538 0.56599 0.8632 0.0
C749 C 0.19112 0.59578 0.85918 0.0
C750 C 0.21194 0.6005 0.84845 0.0
H751 H 0.29619 0.60877 0.86804 0.0
H752 H 0.27135 0.62768 0.86068 0.0
H753 H 0.25724 0.59018 0.86834 0.0
H754 H 0.2042 0.52609 0.8404 0.0
H755 H 0.16664 0.51779 0.85852 0.0
H756 H 0.91512 0.34887 0.19334 0.0
H757 H 0.86784 0.31119 0.19818 0.0
H758 H 0.8236 0.35278 0.16414 0.0
H759 H 0.87098 0.38991 0.15891 0.0
H760 H 0.8214 0.31821 0.20923 0.0
H761 H 0.78855 0.26581 0.14899 0.0
H762 H 0.82507 0.29185 0.15486 0.0
H763 H 0.79543 0.3061 0.14979 0.0
C764 C 0.89529 0.34991 0.18689 0.0
C765 C 0.89666 0.37214 0.17569 0.0
C766 C 0.86832 0.32837 0.18962 0.0
C767 C 0.84224 0.32878 0.18129 0.0
C768 C 0.8435 0.3514 0.17034 0.0
H769 H 0.65991 0.21384 0.18662 0.0
H770 H 0.70484 0.25454 0.18092 0.0
C771 C 0.87053 0.3727 0.16744 0.0
C772 C 0.81376 0.30599 0.18449 0.0
H773 H 0.75308 0.24987 0.16736 0.0
C774 C 0.8065 0.30322 0.20007 0.0
C775 C 0.79427 0.28657 0.1725 0.0
C776 C 0.8013 0.28748 0.15562 0.0
C777 C 0.78033 0.28154 0.20403 0.0
C778 C 0.76105 0.26191 0.19209 0.0
C779 C 0.76797 0.26501 0.17647 0.0
C780 C 0.73394 0.23743 0.19563 0.0
C781 C 0.77346 0.28008 0.22094 0.0
C782 C 0.73556 0.21414 0.20558 0.0
C783 C 0.71002 0.19088 0.20883 0.0
C784 C 0.68237 0.19033 0.20208 0.0
C785 C 0.68088 0.21351 0.19193 0.0
C786 C 0.70647 0.23683 0.18871 0.0
H787 H 0.78595 0.30173 0.22767 0.0
H788 H 0.74962 0.27516 0.22178 0.0
H789 H 0.77972 0.26153 0.2266 0.0
H790 H 0.75664 0.21375 0.21069 0.0
H791 H 0.71199 0.17302 0.21642 0.0
H792 H 0.0649 0.60993 0.11923 0.0
H793 H 0.07156 0.61315 0.09123 0.0
H794 H 0.047 0.51506 0.08723 0.0
H795 H 0.03894 0.51162 0.11507 0.0
H796 H 0.10965 0.59617 0.07596 0.0
H797 H 0.99513 0.53156 0.05199 0.0
H798 H 1.00457 0.54434 0.07232 0.0
H799 H 1.00993 0.51012 0.06554 0.0
C800 C 0.06058 0.58909 0.11227 0.0
C801 C 0.05129 0.56053 0.11909 0.0
C802 C 0.06447 0.59096 0.09639 0.0
C803 C 0.05948 0.56432 0.08728 0.0
C804 C 0.05025 0.53575 0.09409 0.0
H805 H 0.06867 0.52595 0.99142 0.0
H806 H 0.08142 0.52899 0.01972 0.0
C807 C 0.04572 0.53382 0.10991 0.0
C808 C 0.06466 0.56656 0.0707 0.0
H809 H 1.03157 0.54232 0.03405 0.0
C810 C 0.09262 0.5845 0.06675 0.0
C811 C 0.04219 0.55142 0.05886 0.0
C812 C 1.0112 0.53355 0.06237 0.0
C813 C 0.09876 0.58748 0.05107 0.0
C814 C 0.07649 0.57174 0.03937 0.0
C815 C 0.04864 0.55383 0.04329 0.0
C816 C 0.08031 0.57466 0.02271 0.0
C817 C 0.12871 0.60723 0.04702 0.0
C818 C 0.07677 0.59996 0.01523 0.0
C819 C 0.06938 0.5983 0.9991 0.0
C820 C 0.06534 0.57124 0.99046 0.0
C821 C 0.0717 0.54708 0.99783 0.0
C822 C 0.07917 0.54881 0.01393 0.0
H823 H 0.14456 0.61534 0.05762 0.0
H824 H 0.13749 0.59438 0.03897 0.0
H825 H 0.12681 0.62738 0.04077 0.0
H826 H 0.07718 0.61985 0.02201 0.0
H827 H 0.06518 0.61743 0.99354 0.0
H828 H 0.63237 0.05862 0.46667 0.0
H829 H 0.63075 0.06324 0.43804 0.0
H830 H 0.53615 0.02641 0.43441 0.0
H831 H 0.53749 0.02119 0.46295 0.0
H832 H 0.59307 0.00782 0.41325 0.0
H833 H 0.56787 0.11592 0.41212 0.0
H834 H 0.58751 0.10594 0.42897 0.0
H835 H 0.5488 0.08642 0.42479 0.0
C836 C 0.61122 0.05145 0.45977 0.0
C837 C 0.58506 0.03943 0.46707 0.0
C838 C 0.61036 0.05406 0.44344 0.0
C839 C 0.58333 0.04522 0.43418 0.0
C840 C 0.5572 0.03332 0.4414 0.0
H841 H 0.535 0.0612 0.33478 0.0
H842 H 0.53453 0.05281 0.36307 0.0
C843 C 0.55804 0.03027 0.45768 0.0
C844 C 0.58236 0.04836 0.41693 0.0
H845 H 0.56955 0.09314 0.3877 0.0
C846 C 0.588 0.02647 0.40763 0.0
C847 C 0.57551 0.07259 0.4097 0.0
C848 C 0.56966 0.09675 0.41933 0.0
C849 C 0.58679 0.02811 0.39118 0.0
C850 C 0.58032 0.05261 0.38393 0.0
C851 C 0.57448 0.07437 0.39327 0.0
C852 C 0.58026 0.0565 0.3667 0.0
C853 C 0.59192 1.00332 0.38168 0.0
C854 C 0.60612 0.06142 0.35937 0.0
C855 C 0.60643 0.0661 0.34325 0.0
C856 C 0.58091 0.06615 0.33409 0.0
C857 C 0.55494 0.06098 0.34145 0.0
C858 C 0.55468 0.05639 0.35762 0.0
H859 H 0.58879 0.98235 0.38845 0.0
H860 H 0.57687 0.99736 0.3707 0.0
H861 H 0.61484 0.01153 0.37842 0.0
H862 H 0.62623 0.06205 0.36617 0.0
H863 H 0.62672 0.06969 0.33794 0.0
H864 H 0.59392 0.54695 0.79183 0.0
H865 H 0.5985 0.54772 0.76347 0.0
H866 H 0.50811 0.48921 0.75479 0.0
H867 H 0.50342 0.48802 0.78311 0.0
H868 H 0.55184 0.47276 0.73744 0.0
H869 H 0.5582 0.59378 0.73182 0.0
H870 H 0.58039 0.5851 0.74782 0.0
H871 H 0.54113 0.57085 0.74759 0.0
C872 C 0.57501 0.53425 0.78389 0.0
C873 C 0.5483 0.51745 0.78977 0.0
C874 C 0.57766 0.53473 0.76768 0.0
C875 C 0.55358 0.51871 0.75699 0.0
C876 C 0.527 0.50165 0.76282 0.0
H877 H 0.52242 0.5395 0.65722 0.0
H878 H 0.5203 0.53418 0.68551 0.0
C879 C 0.52438 0.50099 0.77902 0.0
C880 C 0.55591 0.52005 0.73972 0.0
H881 H 0.5624 0.56778 0.70901 0.0
C882 C 0.55427 0.49354 0.73121 0.0
C883 C 0.55879 0.54709 0.73159 0.0
C884 C 0.55958 0.57588 0.74007 0.0
C885 C 0.55555 0.49342 0.71481 0.0
C886 C 0.55868 0.52057 0.70669 0.0
C887 C 0.56019 0.54702 0.71522 0.0
C888 C 0.55947 0.52196 0.68929 0.0
C889 C 0.55286 0.46406 0.70625 0.0
C890 C 0.58212 0.51666 0.68188 0.0
C891 C 0.58352 0.51989 0.66562 0.0
C892 C 0.56239 0.52868 0.65644 0.0
C893 C 0.53939 0.53324 0.6639 0.0
C894 C 0.53804 0.53008 0.6801 0.0
H895 H 0.5437 0.44391 0.71348 0.0
H896 H 0.53863 0.461 0.69504 0.0
H897 H 0.57497 0.46483 0.70345 0.0
H898 H 0.59919 0.51086 0.68873 0.0
H899 H 0.60174 0.51655 0.66036 0.0
H900 H 0.58295 0.98849 0.56633 0.0
H901 H 0.57421 0.9854 0.59421 0.0
H902 H 0.57696 0.07899 0.59477 0.0
H903 H 0.58327 0.08109 0.56665 0.0
H904 H 0.60279 0.01176 0.61984 0.0
H905 H 0.50226 0.04293 0.61316 0.0
H906 H 0.51937 0.03548 0.59648 0.0
H907 H 0.53294 0.07243 0.60653 0.0
C908 C 0.58169 0.00832 0.5725 0.0
C909 C 0.58359 0.03496 0.56447 0.0
C910 C 0.57666 0.00658 0.5884 0.0
C911 C 0.57406 0.0317 0.59659 0.0
C912 C 0.57759 0.05887 0.58865 0.0
H913 H 0.56013 0.06412 0.69603 0.0
H914 H 0.56791 0.07004 0.66803 0.0
C915 C 0.5816 0.06023 0.57265 0.0
C916 C 0.56789 0.02949 0.61341 0.0
H917 H 0.52328 0.04254 0.63941 0.0
C918 C 0.58528 0.01837 0.62404 0.0
C919 C 0.54486 0.03785 0.619 0.0
C920 C 0.52362 0.04751 0.60815 0.0
C921 C 0.58059 0.01579 0.64003 0.0
C922 C 0.55812 0.02485 0.6456 0.0
C923 C 0.54075 0.03603 0.63509 0.0
C924 C 0.55167 0.0216 0.66225 0.0
C925 C 0.59973 1.00347 0.65091 0.0
C926 C 0.53926 0.99249 0.66809 0.0
C927 C 0.53461 0.98906 0.68395 0.0
C928 C 0.54236 0.01469 0.69435 0.0
C929 C 0.55382 0.04395 0.68833 0.0
C930 C 0.5584 0.04736 0.67238 0.0
H931 H 0.61942 1.00272 0.64545 0.0
H932 H 0.607 0.01758 0.662 0.0
H933 H 0.58683 0.97992 0.65395 0.0
H934 H 0.53348 0.97237 0.66039 0.0
H935 H 0.52515 0.96623 0.68811 0.0
H936 H 0.48484 0.48788 0.88758 0.0
H937 H 0.48472 0.49061 0.91642 0.0
H938 H 0.56338 0.56976 0.91927 0.0
H939 H 0.56402 0.56665 0.89067 0.0
H940 H 0.54799 0.49902 0.93972 0.0
H941 H 0.48981 0.58254 0.94514 0.0
H942 H 0.48172 0.55623 0.92836 0.0
H943 H 0.51566 0.58764 0.93058 0.0
C944 C 0.50176 0.50614 0.89436 0.0
C945 C 0.52432 0.52717 0.88687 0.0
C946 C 0.5018 0.50758 0.91083 0.0
C947 C 0.52405 0.53043 0.92001 0.0
C948 C 0.54603 0.55195 0.91246 0.0
H949 H 0.55628 0.58635 0.01992 0.0
H950 H 0.55484 0.58408 0.99122 0.0
C951 C 0.54631 0.55017 0.89611 0.0
C952 C 0.52525 0.53134 0.93754 0.0
H953 H 0.50836 0.56663 0.96869 0.0
C954 C 0.53913 0.5136 0.94607 0.0
C955 C 0.51423 0.55081 0.94581 0.0
C956 C 0.4994 0.57045 0.93712 0.0
C957 C 0.54239 0.5149 0.96265 0.0
C958 C 0.53085 0.53396 0.97102 0.0
C959 C 0.51713 0.55189 0.9624 0.0
C960 C 0.53249 0.53529 0.98866 0.0
C961 C 0.55902 0.49648 0.97101 0.0
C962 C 0.52046 0.50872 0.99697 0.0
C963 C 0.52167 0.50985 0.01342 0.0
C964 C 0.53453 0.53771 0.02215 0.0
C965 C 0.54658 0.56436 0.01378 0.0
C966 C 0.5455 0.56316 0.99727 0.0
H967 H 0.57382 0.49077 0.96328 0.0
H968 H 0.57237 0.50895 0.98173 0.0
H969 H 0.54314 0.47472 0.97456 0.0
H970 H 0.50976 0.48697 0.99071 0.0
H971 H 0.51245 0.48868 0.01928 0.0
H972 H 0.09258 0.58022 0.22128 0.0
H973 H 0.09201 0.5787 0.24984 0.0
H974 H 1.0004 0.52236 0.2442 0.0
H975 H 1.00134 0.52243 0.21568 0.0
H976 H 0.06353 0.5986 0.26906 0.0
H977 H 1.02999 0.47355 0.27456 0.0
H978 H 0.04074 0.49162 0.25641 0.0
H979 H 1.00383 0.48367 0.26173 0.0
C980 C 0.07241 0.56725 0.22616 0.0
C981 C 0.04708 0.55115 0.21629 0.0
C982 C 0.0721 0.56644 0.24247 0.0
C983 C 0.04635 0.54985 0.24922 0.0
C984 C 1.02083 0.53439 0.23933 0.0
H985 H 0.98665 0.53175 0.34133 0.0
H986 H 0.99275 0.53571 0.31328 0.0
C987 C 1.02132 0.53462 0.22302 0.0
C988 C 0.04594 0.54951 0.26656 0.0
H989 H 1.02588 0.50219 0.29703 0.0
C990 C 0.05561 0.57749 0.27518 0.0
C991 C 1.03584 0.52195 0.27461 0.0
C992 C 1.02733 0.49104 0.26635 0.0
C993 C 0.05453 0.57865 0.29152 0.0
C994 C 0.04335 0.55117 0.29938 0.0
C995 C 1.03417 0.52322 0.29087 0.0
C996 C 0.04021 0.55079 0.31641 0.0
C997 C 0.06463 0.60919 0.30026 0.0
C998 C 0.06496 0.55811 0.3274 0.0
C999 C 0.06157 0.55553 0.34347 0.0
C1000 C 1.03333 0.54553 0.34877 0.0
C1001 C 1.00867 0.53897 0.33766 0.0
C1002 C 1.01209 0.54141 0.32164 0.0
H1003 H 0.06906 0.62846 0.29217 0.0
H1004 H 0.04783 0.61048 0.30798 0.0
H1005 H 0.08514 0.61187 0.30786 0.0
H1006 H 0.08683 0.56505 0.32353 0.0
H1007 H 0.08101 0.5604 0.35168 0.0
loop_
_geom_bond_atom_site_label_1
_geom_bond_atom_site_label_2
_geom_bond_distance
_geom_bond_site_symmetry_2
_ccdc_geom_bond_type
Dy0 O3 2.307 1_455 S
Dy0 O5 2.395 . S
Dy0 O6 2.379 . S
Dy0 O8 2.339 . S
Dy0 O10 2.298 . S
Dy0 O14 2.275 . S
Dy0 C22 2.738 . S
Dy1 O4 2.298 . S
Dy1 O7 2.275 1_655 S
Dy1 O9 2.307 1_655 S
Dy1 O11 2.395 . S
Dy1 O12 2.379 . S
Dy1 O15 2.339 . S
Dy1 C31 2.738 . S
C2 O14 1.254 . S
C2 O15 1.257 1_455 S
O3 Dy0 2.307 1_655 S
O3 C13 1.266 . S
O4 Dy1 2.298 . S
O4 C13 1.236 . S
O5 Dy0 2.395 . S
O5 C22 1.255 . S
O6 Dy0 2.379 . S
O6 C22 1.249 . S
O7 Dy1 2.275 1_455 S
O7 C23 1.254 . S
O8 Dy0 2.339 . S
O8 C23 1.257 . S
O9 Dy1 2.307 1_455 S
O9 C24 1.266 . S
O10 Dy0 2.298 . S
O10 C24 1.236 . S
O11 Dy1 2.395 . S
O11 C31 1.255 . S
O12 Dy1 2.379 . S
O12 C31 1.249 . S
C13 O3 1.266 . S
C13 O4 1.236 . S
O14 Dy0 2.275 . S
O14 C2 1.254 . S
O15 Dy1 2.339 . S
O15 C2 1.257 1_655 S
C16 C19 1.344 . S
C16 C20 1.328 . S
C16 C22 1.516 . S
C17 C18 1.304 . S
C17 C21 1.323 . S
C18 C17 1.304 . S
C18 C19 1.371 . S
C18 H32 0.930 . S
C19 C16 1.344 . S
C19 C18 1.371 . S
C19 H33 0.931 . S
C20 C16 1.328 . S
C20 C21 1.433 . S
C20 H34 0.931 . S
C21 C17 1.323 . S
C21 C20 1.433 . S
C21 H35 0.933 . S
C22 Dy0 2.738 . S
C22 O5 1.255 . S
C22 O6 1.249 . S
C22 C16 1.516 . S
C23 O7 1.254 . S
C23 O8 1.257 . S
C24 O9 1.266 . S
C24 O10 1.236 . S
C25 C28 1.344 . S
C25 C29 1.328 . S
C25 C31 1.516 . S
C26 C27 1.304 . S
C26 C30 1.323 . S
C27 C26 1.304 . S
C27 C28 1.371 . S
C27 H36 0.930 . S
C28 C25 1.344 . S
C28 C27 1.371 . S
C28 H37 0.931 . S
C29 C25 1.328 . S
C29 C30 1.433 . S
C29 H38 0.931 . S
C30 C26 1.323 . S
C30 C29 1.433 . S
C30 H39 0.933 . S
C31 Dy1 2.738 . S
C31 O11 1.255 . S
C31 O12 1.249 . S
C31 C25 1.516 . S
H32 C18 0.930 . S
H33 C19 0.931 . S
H34 C20 0.931 . S
H35 C21 0.933 . S
H36 C27 0.930 . S
H37 C28 0.931 . S
H38 C29 0.931 . S
H39 C30 0.933 . S
Dy40 O43 2.307 . S
Dy40 O45 2.395 1_545 S
Dy40 O46 2.379 1_545 S
Dy40 O48 2.339 . S
Dy40 O50 2.298 1_545 S
Dy40 O54 2.275 . S
Dy40 C62 2.738 1_545 S
Dy41 O44 2.298 . S
Dy41 O47 2.275 . S
Dy41 O49 2.307 1_545 S
Dy41 O51 2.395 . S
Dy41 O52 2.379 . S
Dy41 O55 2.339 . S
Dy41 C71 2.738 . S
C42 O54 1.254 . S
C42 O55 1.257 . S
O43 Dy40 2.307 . S
O43 C53 1.266 . S
O44 Dy41 2.298 . S
O44 C53 1.236 . S
O45 Dy40 2.395 1_565 S
O45 C62 1.255 . S
O46 Dy40 2.379 1_565 S
O46 C62 1.249 . S
O47 Dy41 2.275 . S
O47 C63 1.254 . S
O48 Dy40 2.339 . S
O48 C63 1.257 . S
O49 Dy41 2.307 1_565 S
O49 C64 1.266 . S
O50 Dy40 2.298 1_565 S
O50 C64 1.236 . S
O51 Dy41 2.395 . S
O51 C71 1.255 . S
O52 Dy41 2.379 . S
O52 C71 1.249 . S
C53 O43 1.266 . S
C53 O44 1.236 . S
O54 Dy40 2.275 . S
O54 C42 1.254 . S
O55 Dy41 2.339 . S
O55 C42 1.257 . S
C56 C59 1.344 . S
C56 C60 1.328 . S
C56 C62 1.516 . S
C57 C58 1.304 . S
C57 C61 1.323 . S
C58 C57 1.304 . S
C58 C59 1.371 . S
C58 H72 0.930 . S
C59 C56 1.344 . S
C59 C58 1.371 . S
C59 H73 0.931 . S
C60 C56 1.328 . S
C60 C61 1.433 . S
C60 H74 0.931 . S
C61 C57 1.323 . S
C61 C60 1.433 . S
C61 H75 0.933 . S
C62 Dy40 2.738 1_565 S
C62 O45 1.255 . S
C62 O46 1.249 . S
C62 C56 1.516 . S
C63 O47 1.254 . S
C63 O48 1.257 . S
C64 O49 1.266 . S
C64 O50 1.236 . S
C65 C68 1.344 . S
C65 C69 1.328 . S
C65 C71 1.516 . S
C66 C67 1.304 . S
C66 C70 1.323 . S
C67 C66 1.304 . S
C67 C68 1.371 . S
C67 H76 0.930 . S
C68 C65 1.344 . S
C68 C67 1.371 . S
C68 H77 0.931 . S
C69 C65 1.328 . S
C69 C70 1.433 . S
C69 H78 0.931 . S
C70 C66 1.323 . S
C70 C69 1.433 . S
C70 H79 0.933 . S
C71 Dy41 2.738 . S
C71 O51 1.255 . S
C71 O52 1.249 . S
C71 C65 1.516 . S
H72 C58 0.930 . S
H73 C59 0.931 . S
H74 C60 0.931 . S
H75 C61 0.933 . S
H76 C67 0.930 . S
H77 C68 0.931 . S
H78 C69 0.931 . S
H79 C70 0.933 . S
Dy80 O83 2.307 . S
Dy80 O85 2.395 . S
Dy80 O86 2.379 . S
Dy80 O88 2.339 . S
Dy80 O90 2.298 . S
Dy80 O94 2.275 . S
Dy80 C102 2.738 . S
Dy81 O84 2.298 . S
Dy81 O87 2.275 . S
Dy81 O89 2.307 . S
Dy81 O91 2.395 . S
Dy81 O92 2.379 . S
Dy81 O95 2.339 . S
Dy81 C111 2.738 . S
C82 O94 1.254 . S
C82 O95 1.257 . S
O83 Dy80 2.307 . S
O83 C93 1.266 . S
O84 Dy81 2.298 . S
O84 C93 1.236 . S
O85 Dy80 2.395 . S
O85 C102 1.255 . S
O86 Dy80 2.379 . S
O86 C102 1.249 . S
O87 Dy81 2.275 . S
O87 C103 1.254 . S
O88 Dy80 2.339 . S
O88 C103 1.257 . S
O89 Dy81 2.307 . S
O89 C104 1.266 . S
O90 Dy80 2.298 . S
O90 C104 1.236 . S
O91 Dy81 2.395 . S
O91 C111 1.255 . S
O92 Dy81 2.379 . S
O92 C111 1.249 . S
C93 O83 1.266 . S
C93 O84 1.236 . S
O94 Dy80 2.275 . S
O94 C82 1.254 . S
O95 Dy81 2.339 . S
O95 C82 1.257 . S
C96 C99 1.344 . S
C96 C100 1.328 . S
C96 C102 1.516 . S
C97 C98 1.304 . S
C97 C101 1.323 . S
C98 C97 1.304 . S
C98 C99 1.371 . S
C98 H112 0.930 . S
C99 C96 1.344 . S
C99 C98 1.371 . S
C99 H113 0.931 . S
C100 C96 1.328 . S
C100 C101 1.433 . S
C100 H114 0.931 . S
C101 C97 1.323 . S
C101 C100 1.433 . S
C101 H115 0.933 . S
C102 Dy80 2.738 . S
C102 O85 1.255 . S
C102 O86 1.249 . S
C102 C96 1.516 . S
C103 O87 1.254 . S
C103 O88 1.257 . S
C104 O89 1.266 . S
C104 O90 1.236 . S
C105 C108 1.344 . S
C105 C109 1.328 . S
C105 C111 1.516 . S
C106 C107 1.304 . S
C106 C110 1.323 . S
C107 C106 1.304 . S
C107 C108 1.371 . S
C107 H116 0.930 . S
C108 C105 1.344 . S
C108 C107 1.371 . S
C108 H117 0.931 . S
C109 C105 1.328 . S
C109 C110 1.433 . S
C109 H118 0.931 . S
C110 C106 1.323 . S
C110 C109 1.433 . S
C110 H119 0.933 . S
C111 Dy81 2.738 . S
C111 O91 1.255 . S
C111 O92 1.249 . S
C111 C105 1.516 . S
H112 C98 0.930 . S
H113 C99 0.931 . S
H114 C100 0.931 . S
H115 C101 0.933 . S
H116 C107 0.930 . S
H117 C108 0.931 . S
H118 C109 0.931 . S
H119 C110 0.933 . S
C120 C121 1.264 . S
C120 C125 1.479 . S
C120 C130 1.465 . S
C121 C120 1.264 . S
C121 C123 1.339 . S
C121 H148 0.931 . S
C122 C123 1.395 . S
C122 C124 1.320 . S
C123 C121 1.339 . S
C123 C122 1.395 . S
C123 H149 0.929 . S
C124 C122 1.320 . S
C124 C125 1.405 . S
C124 H150 0.930 . S
C125 C120 1.479 . S
C125 C124 1.405 . S
C125 H151 0.931 . S
U126 O127 2.454 . S
U126 O128 2.458 . S
U126 C129 2.984 . S
U126 C130 2.847 . S
U126 C143 2.882 . S
U126 O144 2.441 . S
U126 O145 2.420 . S
U126 O146 2.455 . S
U126 O147 2.449 . S
O127 U126 2.454 . S
O127 C129 1.353 . S
O128 U126 2.458 . S
O128 C129 1.286 . S
C129 U126 2.984 . S
C129 O127 1.353 . S
C129 O128 1.286 . S
C129 C131 1.363 1_545 S
C130 C120 1.465 . S
C130 U126 2.847 . S
C130 O144 1.249 . S
C130 O145 1.202 . S
C131 C129 1.363 1_565 S
C131 C133 1.408 . S
C131 C136 1.342 . S
C132 C133 1.310 . S
C132 C135 1.461 . S
C132 H152 0.932 . S
C133 C131 1.408 . S
C133 C132 1.310 . S
C133 H153 0.930 1_565 S
C134 C135 1.474 . S
C134 C136 1.285 . S
C134 H154 0.929 . S
C135 C132 1.461 . S
C135 C134 1.474 . S
C136 C131 1.342 . S
C136 C134 1.285 . S
C136 H155 0.930 . S
C137 C140 1.424 . S
C137 C142 1.245 . S
C137 C143 1.428 . S
C138 C141 1.260 . S
C138 C142 1.477 . S
C138 H156 0.932 . S
C139 C140 1.384 . S
C139 C141 1.479 . S
C139 H157 0.929 . S
C140 C137 1.424 . S
C140 C139 1.384 . S
C140 H158 0.928 . S
C141 C138 1.260 . S
C141 C139 1.479 . S
C142 C137 1.245 . S
C142 C138 1.477 . S
C142 H159 0.932 . S
C143 U126 2.882 . S
C143 C137 1.428 . S
C143 O146 1.301 . S
C143 O147 1.282 . S
O144 U126 2.441 . S
O144 C130 1.249 . S
O145 U126 2.420 . S
O145 C130 1.202 . S
O146 U126 2.455 . S
O146 C143 1.301 . S
O147 U126 2.449 . S
O147 C143 1.282 . S
H148 C121 0.931 . S
H149 C123 0.929 . S
H150 C124 0.930 . S
H151 C125 0.931 . S
H152 C132 0.932 . S
H153 C133 0.930 1_545 S
H154 C134 0.929 . S
H155 C136 0.930 . S
H156 C138 0.932 . S
H157 C139 0.929 . S
H158 C140 0.928 . S
H159 C142 0.932 . S
C160 C161 1.264 . S
C160 C165 1.479 . S
C160 C170 1.465 . S
C161 C160 1.264 . S
C161 C163 1.339 . S
C161 H188 0.931 . S
C162 C163 1.395 . S
C162 C164 1.320 . S
C163 C161 1.339 . S
C163 C162 1.395 . S
C163 H189 0.929 . S
C164 C162 1.320 . S
C164 C165 1.405 . S
C164 H190 0.930 . S
C165 C160 1.479 . S
C165 C164 1.405 . S
C165 H191 0.931 . S
U166 O167 2.454 . S
U166 O168 2.458 . S
U166 C169 2.984 . S
U166 C170 2.847 . S
U166 C183 2.882 . S
U166 O184 2.441 . S
U166 O185 2.420 . S
U166 O186 2.455 . S
U166 O187 2.449 . S
O167 U166 2.454 . S
O167 C169 1.353 . S
O168 U166 2.458 . S
O168 C169 1.286 . S
C169 U166 2.984 . S
C169 O167 1.353 . S
C169 O168 1.286 . S
C169 C171 1.363 . S
C170 C160 1.465 . S
C170 U166 2.847 . S
C170 O184 1.249 . S
C170 O185 1.202 . S
C171 C169 1.363 . S
C171 C173 1.408 . S
C171 C176 1.342 . S
C172 C173 1.310 . S
C172 C175 1.461 . S
C172 H192 0.932 . S
C173 C171 1.408 . S
C173 C172 1.310 . S
C173 H193 0.930 . S
C174 C175 1.474 . S
C174 C176 1.285 . S
C174 H194 0.929 . S
C175 C172 1.461 . S
C175 C174 1.474 . S
C176 C171 1.342 . S
C176 C174 1.285 . S
C176 H195 0.930 . S
C177 C180 1.424 . S
C177 C182 1.245 . S
C177 C183 1.428 . S
C178 C181 1.260 . S
C178 C182 1.477 . S
C178 H196 0.932 . S
C179 C180 1.384 . S
C179 C181 1.479 . S
C179 H197 0.929 . S
C180 C177 1.424 . S
C180 C179 1.384 . S
C180 H198 0.928 . S
C181 C178 1.260 . S
C181 C179 1.479 . S
C182 C177 1.245 . S
C182 C178 1.477 . S
C182 H199 0.932 . S
C183 U166 2.882 . S
C183 C177 1.428 . S
C183 O186 1.301 . S
C183 O187 1.282 . S
O184 U166 2.441 . S
O184 C170 1.249 . S
O185 U166 2.420 . S
O185 C170 1.202 . S
O186 U166 2.455 . S
O186 C183 1.301 . S
O187 U166 2.449 . S
O187 C183 1.282 . S
H188 C161 0.931 . S
H189 C163 0.929 . S
H190 C164 0.930 . S
H191 C165 0.931 . S
H192 C172 0.932 . S
H193 C173 0.930 . S
H194 C174 0.929 . S
H195 C176 0.930 . S
H196 C178 0.932 . S
H197 C179 0.929 . S
H198 C180 0.928 . S
H199 C182 0.932 . S
C200 C201 1.264 . S
C200 C205 1.479 . S
C200 C210 1.465 . S
C201 C200 1.264 . S
C201 C203 1.339 . S
C201 H228 0.931 . S
C202 C203 1.395 . S
C202 C204 1.320 . S
C203 C201 1.339 . S
C203 C202 1.395 . S
C203 H229 0.929 . S
C204 C202 1.320 . S
C204 C205 1.405 . S
C204 H230 0.930 . S
C205 C200 1.479 . S
C205 C204 1.405 . S
C205 H231 0.931 . S
U206 O207 2.454 . S
U206 O208 2.458 . S
U206 C209 2.984 . S
U206 C210 2.847 1_455 S
U206 C223 2.882 . S
U206 O224 2.441 1_455 S
U206 O225 2.420 1_455 S
U206 O226 2.455 . S
U206 O227 2.449 1_455 S
O207 U206 2.454 . S
O207 C209 1.353 . S
O208 U206 2.458 . S
O208 C209 1.286 . S
C209 U206 2.984 . S
C209 O207 1.353 . S
C209 O208 1.286 . S
C209 C211 1.363 . S
C210 C200 1.465 . S
C210 U206 2.847 1_655 S
C210 O224 1.249 . S
C210 O225 1.202 . S
C211 C209 1.363 . S
C211 C213 1.408 . S
C211 C216 1.342 . S
C212 C213 1.310 . S
C212 C215 1.461 . S
C212 H232 0.932 . S
C213 C211 1.408 . S
C213 C212 1.310 . S
C213 H233 0.930 . S
C214 C215 1.474 . S
C214 C216 1.285 . S
C214 H234 0.929 . S
C215 C212 1.461 . S
C215 C214 1.474 . S
C216 C211 1.342 . S
C216 C214 1.285 . S
C216 H235 0.930 . S
C217 C220 1.424 . S
C217 C222 1.245 . S
C217 C223 1.428 . S
C218 C221 1.260 . S
C218 C222 1.477 . S
C218 H236 0.932 . S
C219 C220 1.384 . S
C219 C221 1.479 . S
C219 H237 0.929 1_455 S
C220 C217 1.424 . S
C220 C219 1.384 . S
C220 H238 0.928 1_455 S
C221 C218 1.260 . S
C221 C219 1.479 . S
C222 C217 1.245 . S
C222 C218 1.477 . S
C222 H239 0.932 . S
C223 U206 2.882 . S
C223 C217 1.428 . S
C223 O226 1.301 . S
C223 O227 1.282 1_455 S
O224 U206 2.441 1_655 S
O224 C210 1.249 . S
O225 U206 2.420 1_655 S
O225 C210 1.202 . S
O226 U206 2.455 . S
O226 C223 1.301 . S
O227 U206 2.449 1_655 S
O227 C223 1.282 1_655 S
H228 C201 0.931 . S
H229 C203 0.929 . S
H230 C204 0.930 . S
H231 C205 0.931 . S
H232 C212 0.932 . S
H233 C213 0.930 . S
H234 C214 0.929 . S
H235 C216 0.930 . S
H236 C218 0.932 . S
H237 C219 0.929 1_655 S
H238 C220 0.928 1_655 S
H239 C222 0.932 . S
C240 C241 1.264 . S
C240 C245 1.479 . S
C240 C250 1.465 . S
C241 C240 1.264 . S
C241 C243 1.339 . S
C241 H268 0.931 . S
C242 C243 1.395 . S
C242 C244 1.320 . S
C243 C241 1.339 . S
C243 C242 1.395 . S
C243 H269 0.929 . S
C244 C242 1.320 . S
C244 C245 1.405 . S
C244 H270 0.930 . S
C245 C240 1.479 . S
C245 C244 1.405 . S
C245 H271 0.931 . S
U246 O247 2.454 . S
U246 O248 2.458 . S
U246 C249 2.984 . S
U246 C250 2.847 1_455 S
U246 C263 2.883 . S
U246 O264 2.441 1_455 S
U246 O265 2.420 1_455 S
U246 O266 2.455 . S
U246 O267 2.449 1_455 S
O247 U246 2.454 . S
O247 C249 1.353 . S
O248 U246 2.458 . S
O248 C249 1.286 . S
C249 U246 2.984 . S
C249 O247 1.353 . S
C249 O248 1.286 . S
C249 C251 1.363 . S
C250 C240 1.465 . S
C250 U246 2.847 1_655 S
C250 O264 1.249 . S
C250 O265 1.202 . S
C251 C249 1.363 . S
C251 C253 1.408 . S
C251 C256 1.342 . S
C252 C253 1.310 . S
C252 C255 1.461 . S
C252 H272 0.932 . S
C253 C251 1.408 . S
C253 C252 1.310 . S
C253 H273 0.930 . S
C254 C255 1.474 . S
C254 C256 1.285 . S
C254 H274 0.929 . S
C255 C252 1.461 . S
C255 C254 1.474 . S
C256 C251 1.342 . S
C256 C254 1.285 . S
C256 H275 0.930 . S
C257 C260 1.422 1_455 S
C257 C262 1.248 . S
C257 C263 1.430 . S
C258 C261 1.260 1_455 S
C258 C262 1.477 . S
C258 H276 0.932 . S
C259 C260 1.384 . S
C259 C261 1.479 . S
C259 H277 0.929 . S
C260 C257 1.422 1_655 S
C260 C259 1.384 . S
C260 H278 0.928 . S
C261 C258 1.260 1_655 S
C261 C259 1.479 . S
C262 C257 1.248 . S
C262 C258 1.477 . S
C262 H279 0.932 . S
C263 U246 2.883 . S
C263 C257 1.430 . S
C263 O266 1.315 . S
C263 O267 1.267 1_455 S
O264 U246 2.441 1_655 S
O264 C250 1.249 . S
O265 U246 2.420 1_655 S
O265 C250 1.202 . S
O266 U246 2.455 . S
O266 C263 1.315 . S
O267 U246 2.449 1_655 S
O267 C263 1.267 1_655 S
H268 C241 0.931 . S
H269 C243 0.929 . S
H270 C244 0.930 . S
H271 C245 0.931 . S
H272 C252 0.932 . S
H273 C253 0.930 . S
H274 C254 0.929 . S
H275 C256 0.930 . S
H276 C258 0.932 . S
H277 C259 0.929 . S
H278 C260 0.928 . S
H279 C262 0.932 . S
C280 C281 1.264 . S
C280 C285 1.479 . S
C280 C290 1.465 . S
C281 C280 1.264 . S
C281 C283 1.339 . S
C281 H308 0.931 . S
C282 C283 1.395 . S
C282 C284 1.320 . S
C283 C281 1.339 . S
C283 C282 1.395 . S
C283 H309 0.929 . S
C284 C282 1.320 . S
C284 C285 1.405 . S
C284 H310 0.930 . S
C285 C280 1.479 . S
C285 C284 1.405 . S
C285 H311 0.931 . S
U286 O287 2.454 . S
U286 O288 2.458 . S
U286 C289 2.984 . S
U286 C290 2.847 1_545 S
U286 C303 2.882 . S
U286 O304 2.441 1_545 S
U286 O305 2.420 1_545 S
U286 O306 2.455 . S
U286 O307 2.449 1_545 S
O287 U286 2.454 . S
O287 C289 1.353 . S
O288 U286 2.458 . S
O288 C289 1.286 . S
C289 U286 2.984 . S
C289 O287 1.353 . S
C289 O288 1.286 . S
C289 C291 1.363 . S
C290 C280 1.465 . S
C290 U286 2.847 1_565 S
C290 O304 1.249 . S
C290 O305 1.202 . S
C291 C289 1.363 . S
C291 C293 1.408 . S
C291 C296 1.342 . S
C292 C293 1.310 . S
C292 C295 1.461 . S
C292 H312 0.932 . S
C293 C291 1.408 . S
C293 C292 1.310 . S
C293 H313 0.930 . S
C294 C295 1.474 . S
C294 C296 1.285 . S
C294 H314 0.929 . S
C295 C292 1.461 . S
C295 C294 1.474 . S
C296 C291 1.342 . S
C296 C294 1.285 . S
C296 H315 0.930 . S
C297 C300 1.424 1_545 S
C297 C302 1.245 . S
C297 C303 1.428 . S
C298 C301 1.260 . S
C298 C302 1.477 . S
C298 H316 0.932 . S
C299 C300 1.384 . S
C299 C301 1.479 1_565 S
C299 H317 0.929 . S
C300 C297 1.424 1_565 S
C300 C299 1.384 . S
C300 H318 0.928 . S
C301 C298 1.260 . S
C301 C299 1.479 1_545 S
C302 C297 1.245 . S
C302 C298 1.477 . S
C302 H319 0.932 . S
C303 U286 2.882 . S
C303 C297 1.428 . S
C303 O306 1.301 . S
C303 O307 1.282 1_545 S
O304 U286 2.441 1_565 S
O304 C290 1.249 . S
O305 U286 2.420 1_565 S
O305 C290 1.202 . S
O306 U286 2.455 . S
O306 C303 1.301 . S
O307 U286 2.449 1_565 S
O307 C303 1.282 1_565 S
H308 C281 0.931 . S
H309 C283 0.929 . S
H310 C284 0.930 . S
H311 C285 0.931 . S
H312 C292 0.932 . S
H313 C293 0.930 . S
H314 C294 0.929 . S
H315 C296 0.930 . S
H316 C298 0.932 . S
H317 C299 0.929 . S
H318 C300 0.928 . S
H319 C302 0.932 . S
C320 C321 1.264 . S
C320 C325 1.479 . S
C320 C330 1.465 . S
C321 C320 1.264 . S
C321 C323 1.339 . S
C321 H348 0.931 . S
C322 C323 1.395 . S
C322 C324 1.320 . S
C323 C321 1.339 . S
C323 C322 1.395 . S
C323 H349 0.929 . S
C324 C322 1.320 . S
C324 C325 1.405 . S
C324 H350 0.930 . S
C325 C320 1.479 . S
C325 C324 1.405 . S
C325 H351 0.931 . S
U326 O327 2.454 . S
U326 O328 2.458 . S
U326 C329 2.984 . S
U326 C330 2.847 . S
U326 C343 2.882 . S
U326 O344 2.441 . S
U326 O345 2.420 . S
U326 O346 2.455 . S
U326 O347 2.449 . S
O327 U326 2.454 . S
O327 C329 1.353 . S
O328 U326 2.458 . S
O328 C329 1.286 . S
C329 U326 2.984 . S
C329 O327 1.353 . S
C329 O328 1.286 . S
C329 C331 1.363 . S
C330 C320 1.465 . S
C330 U326 2.847 . S
C330 O344 1.249 . S
C330 O345 1.202 . S
C331 C329 1.363 . S
C331 C333 1.408 . S
C331 C336 1.342 . S
C332 C333 1.310 . S
C332 C335 1.461 . S
C332 H352 0.932 . S
C333 C331 1.408 . S
C333 C332 1.310 . S
C333 H353 0.930 . S
C334 C335 1.474 . S
C334 C336 1.285 . S
C334 H354 0.929 . S
C335 C332 1.461 . S
C335 C334 1.474 . S
C336 C331 1.342 . S
C336 C334 1.285 . S
C336 H355 0.930 . S
C337 C340 1.424 . S
C337 C342 1.245 . S
C337 C343 1.428 . S
C338 C341 1.260 . S
C338 C342 1.477 . S
C338 H356 0.932 . S
C339 C340 1.384 . S
C339 C341 1.479 . S
C339 H357 0.929 . S
C340 C337 1.424 . S
C340 C339 1.384 . S
C340 H358 0.928 . S
C341 C338 1.260 . S
C341 C339 1.479 . S
C342 C337 1.245 . S
C342 C338 1.477 . S
C342 H359 0.932 . S
C343 U326 2.882 . S
C343 C337 1.428 . S
C343 O346 1.301 . S
C343 O347 1.282 . S
O344 U326 2.441 . S
O344 C330 1.249 . S
O345 U326 2.420 . S
O345 C330 1.202 . S
O346 U326 2.455 . S
O346 C343 1.301 . S
O347 U326 2.449 . S
O347 C343 1.282 . S
H348 C321 0.931 . S
H349 C323 0.929 . S
H350 C324 0.930 . S
H351 C325 0.931 . S
H352 C332 0.932 . S
H353 C333 0.930 . S
H354 C334 0.929 . S
H355 C336 0.930 . S
H356 C338 0.932 . S
H357 C339 0.929 . S
H358 C340 0.928 . S
H359 C342 0.932 . S
H360 C368 0.929 . S
H361 C370 0.930 . S
H362 C372 0.930 . S
H363 C375 0.929 . S
H364 C378 0.930 . S
H365 C380 0.960 . S
H366 C380 0.960 . S
H367 C380 0.960 . S
C368 H360 0.929 . S
C368 C369 1.377 . S
C368 C370 1.384 . S
C369 C368 1.377 . S
C369 C375 1.390 . S
C370 H361 0.930 . S
C370 C368 1.384 . S
C370 C371 1.372 . S
C371 C370 1.372 . S
C371 C372 1.400 . S
C371 C376 1.490 . S
C372 H362 0.930 . S
C372 C371 1.400 . S
C372 C375 1.386 . S
H373 C389 0.930 . S
H374 C390 0.931 . S
C375 H363 0.929 . S
C375 C369 1.390 . S
C375 C372 1.386 . S
C376 C371 1.490 . S
C376 C378 1.395 . S
C376 C379 1.403 . S
H377 C383 0.930 . S
C378 H364 0.930 . S
C378 C376 1.395 . S
C378 C381 1.403 . S
C379 C376 1.403 . S
C379 C380 1.524 . S
C379 C383 1.400 . S
C380 H365 0.960 . S
C380 H366 0.960 . S
C380 H367 0.960 . S
C380 C379 1.524 . S
C381 C378 1.403 . S
C381 C382 1.392 . S
C381 C385 1.495 . S
C382 C381 1.392 . S
C382 C383 1.385 . S
C382 C384 1.478 . S
C383 H377 0.930 . S
C383 C379 1.400 . S
C383 C382 1.385 . S
C384 C382 1.478 . S
C384 C386 1.381 . S
C384 C390 1.383 . S
C385 C381 1.495 . S
C385 H391 0.959 . S
C385 H392 0.961 . S
C385 H393 0.960 . S
C386 C384 1.381 . S
C386 C387 1.394 . S
C386 H394 0.930 . S
C387 C386 1.394 . S
C387 C388 1.383 . S
C387 H395 0.929 . S
C388 C387 1.383 . S
C388 C389 1.377 . S
C389 H373 0.930 . S
C389 C388 1.377 . S
C389 C390 1.379 . S
C390 H374 0.931 . S
C390 C384 1.383 . S
C390 C389 1.379 . S
H391 C385 0.959 . S
H392 C385 0.961 . S
H393 C385 0.960 . S
H394 C386 0.930 . S
H395 C387 0.929 . S
H396 C404 0.929 . S
H397 C406 0.930 . S
H398 C408 0.930 . S
H399 C411 0.929 . S
H400 C414 0.930 . S
H401 C416 0.960 . S
H402 C416 0.960 . S
H403 C416 0.960 . S
C404 H396 0.929 . S
C404 C405 1.377 . S
C404 C406 1.384 . S
C405 C404 1.377 . S
C405 C411 1.390 . S
C406 H397 0.930 . S
C406 C404 1.384 . S
C406 C407 1.372 . S
C407 C406 1.372 . S
C407 C408 1.400 . S
C407 C412 1.490 . S
C408 H398 0.930 . S
C408 C407 1.400 . S
C408 C411 1.386 . S
H409 C425 0.930 . S
H410 C426 0.931 . S
C411 H399 0.929 . S
C411 C405 1.390 . S
C411 C408 1.386 . S
C412 C407 1.490 . S
C412 C414 1.395 . S
C412 C415 1.403 . S
H413 C419 0.930 . S
C414 H400 0.930 . S
C414 C412 1.395 . S
C414 C417 1.403 . S
C415 C412 1.403 . S
C415 C416 1.524 . S
C415 C419 1.400 . S
C416 H401 0.960 . S
C416 H402 0.960 . S
C416 H403 0.960 . S
C416 C415 1.524 . S
C417 C414 1.403 . S
C417 C418 1.392 . S
C417 C421 1.495 . S
C418 C417 1.392 . S
C418 C419 1.385 . S
C418 C420 1.478 . S
C419 H413 0.930 . S
C419 C415 1.400 . S
C419 C418 1.385 . S
C420 C418 1.478 . S
C420 C422 1.381 . S
C420 C426 1.383 . S
C421 C417 1.495 . S
C421 H427 0.959 . S
C421 H428 0.961 . S
C421 H429 0.960 . S
C422 C420 1.381 . S
C422 C423 1.394 . S
C422 H430 0.930 . S
C423 C422 1.394 . S
C423 C424 1.383 . S
C423 H431 0.929 . S
C424 C423 1.383 . S
C424 C425 1.377 . S
C425 H409 0.930 . S
C425 C424 1.377 . S
C425 C426 1.379 . S
C426 H410 0.931 . S
C426 C420 1.383 . S
C426 C425 1.379 . S
H427 C421 0.959 . S
H428 C421 0.961 . S
H429 C421 0.960 . S
H430 C422 0.930 . S
H431 C423 0.929 . S
H432 C440 0.929 . S
H433 C442 0.930 . S
H434 C444 0.930 . S
H435 C447 0.929 . S
H436 C450 0.930 . S
H437 C452 0.960 . S
H438 C452 0.960 . S
H439 C452 0.960 . S
C440 H432 0.929 . S
C440 C441 1.377 . S
C440 C442 1.384 . S
C441 C440 1.377 . S
C441 C447 1.390 . S
C442 H433 0.930 . S
C442 C440 1.384 . S
C442 C443 1.372 . S
C443 C442 1.372 . S
C443 C444 1.400 . S
C443 C448 1.490 . S
C444 H434 0.930 . S
C444 C443 1.400 . S
C444 C447 1.386 . S
H445 C461 0.930 . S
H446 C462 0.931 . S
C447 H435 0.929 . S
C447 C441 1.390 . S
C447 C444 1.386 . S
C448 C443 1.490 . S
C448 C450 1.395 . S
C448 C451 1.403 . S
H449 C455 0.930 . S
C450 H436 0.930 . S
C450 C448 1.395 . S
C450 C453 1.403 . S
C451 C448 1.403 . S
C451 C452 1.524 . S
C451 C455 1.400 . S
C452 H437 0.960 . S
C452 H438 0.960 . S
C452 H439 0.960 . S
C452 C451 1.524 . S
C453 C450 1.403 . S
C453 C454 1.392 . S
C453 C457 1.495 . S
C454 C453 1.392 . S
C454 C455 1.385 . S
C454 C456 1.478 . S
C455 H449 0.930 . S
C455 C451 1.400 . S
C455 C454 1.385 . S
C456 C454 1.478 . S
C456 C458 1.381 . S
C456 C462 1.383 . S
C457 C453 1.495 . S
C457 H463 0.959 . S
C457 H464 0.961 . S
C457 H465 0.960 . S
C458 C456 1.381 . S
C458 C459 1.394 . S
C458 H466 0.930 . S
C459 C458 1.394 . S
C459 C460 1.383 . S
C459 H467 0.929 . S
C460 C459 1.383 . S
C460 C461 1.377 . S
C461 H445 0.930 . S
C461 C460 1.377 . S
C461 C462 1.379 . S
C462 H446 0.931 . S
C462 C456 1.383 . S
C462 C461 1.379 . S
H463 C457 0.959 . S
H464 C457 0.961 . S
H465 C457 0.960 . S
H466 C458 0.930 . S
H467 C459 0.929 . S
H468 C476 0.929 . S
H469 C478 0.930 . S
H470 C480 0.930 . S
H471 C483 0.929 . S
H472 C486 0.930 . S
H473 C488 0.960 . S
H474 C488 0.960 . S
H475 C488 0.960 . S
C476 H468 0.929 . S
C476 C477 1.377 . S
C476 C478 1.384 . S
C477 C476 1.377 . S
C477 C483 1.390 . S
C478 H469 0.930 . S
C478 C476 1.384 . S
C478 C479 1.372 . S
C479 C478 1.372 . S
C479 C480 1.400 . S
C479 C484 1.490 . S
C480 H470 0.930 . S
C480 C479 1.400 . S
C480 C483 1.386 . S
H481 C497 0.930 . S
H482 C498 0.931 . S
C483 H471 0.929 . S
C483 C477 1.390 . S
C483 C480 1.386 . S
C484 C479 1.490 . S
C484 C486 1.395 . S
C484 C487 1.403 . S
H485 C491 0.930 . S
C486 H472 0.930 . S
C486 C484 1.395 . S
C486 C489 1.403 . S
C487 C484 1.403 . S
C487 C488 1.524 . S
C487 C491 1.400 . S
C488 H473 0.960 . S
C488 H474 0.960 . S
C488 H475 0.960 . S
C488 C487 1.524 . S
C489 C486 1.403 . S
C489 C490 1.392 . S
C489 C493 1.495 . S
C490 C489 1.392 . S
C490 C491 1.385 . S
C490 C492 1.478 . S
C491 H485 0.930 . S
C491 C487 1.400 . S
C491 C490 1.385 . S
C492 C490 1.478 . S
C492 C494 1.381 . S
C492 C498 1.383 . S
C493 C489 1.495 . S
C493 H499 0.959 . S
C493 H500 0.961 . S
C493 H501 0.960 . S
C494 C492 1.381 . S
C494 C495 1.394 . S
C494 H502 0.930 . S
C495 C494 1.394 . S
C495 C496 1.383 . S
C495 H503 0.929 . S
C496 C495 1.383 . S
C496 C497 1.377 . S
C497 H481 0.930 . S
C497 C496 1.377 . S
C497 C498 1.379 . S
C498 H482 0.931 . S
C498 C492 1.383 . S
C498 C497 1.379 . S
H499 C493 0.959 . S
H500 C493 0.961 . S
H501 C493 0.960 . S
H502 C494 0.930 . S
H503 C495 0.929 . S
H504 C512 0.929 . S
H505 C514 0.930 . S
H506 C516 0.930 . S
H507 C519 0.929 . S
H508 C522 0.930 . S
H509 C524 0.960 . S
H510 C524 0.960 . S
H511 C524 0.960 . S
C512 H504 0.929 . S
C512 C513 1.377 . S
C512 C514 1.384 . S
C513 C512 1.377 . S
C513 C519 1.390 . S
C514 H505 0.930 . S
C514 C512 1.384 . S
C514 C515 1.372 . S
C515 C514 1.372 . S
C515 C516 1.400 . S
C515 C520 1.490 . S
C516 H506 0.930 . S
C516 C515 1.400 . S
C516 C519 1.386 . S
H517 C533 0.930 . S
H518 C534 0.931 . S
C519 H507 0.929 . S
C519 C513 1.390 . S
C519 C516 1.386 . S
C520 C515 1.490 . S
C520 C522 1.395 . S
C520 C523 1.403 . S
H521 C527 0.930 . S
C522 H508 0.930 . S
C522 C520 1.395 . S
C522 C525 1.403 . S
C523 C520 1.403 . S
C523 C524 1.524 . S
C523 C527 1.400 . S
C524 H509 0.960 . S
C524 H510 0.960 . S
C524 H511 0.960 . S
C524 C523 1.524 . S
C525 C522 1.403 . S
C525 C526 1.392 . S
C525 C529 1.495 . S
C526 C525 1.392 . S
C526 C527 1.385 . S
C526 C528 1.478 . S
C527 H521 0.930 . S
C527 C523 1.400 . S
C527 C526 1.385 . S
C528 C526 1.478 . S
C528 C530 1.381 . S
C528 C534 1.383 . S
C529 C525 1.495 . S
C529 H535 0.959 . S
C529 H536 0.961 . S
C529 H537 0.960 . S
C530 C528 1.381 . S
C530 C531 1.394 . S
C530 H538 0.930 . S
C531 C530 1.394 . S
C531 C532 1.383 . S
C531 H539 0.929 . S
C532 C531 1.383 . S
C532 C533 1.377 . S
C533 H517 0.930 . S
C533 C532 1.377 . S
C533 C534 1.379 . S
C534 H518 0.931 . S
C534 C528 1.383 . S
C534 C533 1.379 . S
H535 C529 0.959 . S
H536 C529 0.961 . S
H537 C529 0.960 . S
H538 C530 0.930 . S
H539 C531 0.929 . S
H540 C548 0.929 . S
H541 C550 0.930 . S
H542 C552 0.930 . S
H543 C555 0.929 . S
H544 C558 0.930 . S
H545 C560 0.960 . S
H546 C560 0.960 . S
H547 C560 0.960 . S
C548 H540 0.929 . S
C548 C549 1.377 . S
C548 C550 1.384 . S
C549 C548 1.377 . S
C549 C555 1.390 . S
C550 H541 0.930 . S
C550 C548 1.384 . S
C550 C551 1.372 . S
C551 C550 1.372 . S
C551 C552 1.400 . S
C551 C556 1.490 . S
C552 H542 0.930 . S
C552 C551 1.400 . S
C552 C555 1.386 . S
H553 C569 0.930 . S
H554 C570 0.931 . S
C555 H543 0.929 . S
C555 C549 1.390 . S
C555 C552 1.386 . S
C556 C551 1.490 . S
C556 C558 1.395 . S
C556 C559 1.403 . S
H557 C563 0.930 . S
C558 H544 0.930 . S
C558 C556 1.395 . S
C558 C561 1.403 . S
C559 C556 1.403 . S
C559 C560 1.524 . S
C559 C563 1.400 . S
C560 H545 0.960 . S
C560 H546 0.960 . S
C560 H547 0.960 . S
C560 C559 1.524 . S
C561 C558 1.403 . S
C561 C562 1.392 . S
C561 C565 1.495 . S
C562 C561 1.392 . S
C562 C563 1.385 . S
C562 C564 1.478 . S
C563 H557 0.930 . S
C563 C559 1.400 . S
C563 C562 1.385 . S
C564 C562 1.478 . S
C564 C566 1.381 . S
C564 C570 1.383 . S
C565 C561 1.495 . S
C565 H571 0.959 . S
C565 H572 0.961 . S
C565 H573 0.960 . S
C566 C564 1.381 . S
C566 C567 1.394 . S
C566 H574 0.930 . S
C567 C566 1.394 . S
C567 C568 1.383 . S
C567 H575 0.929 . S
C568 C567 1.383 . S
C568 C569 1.377 . S
C569 H553 0.930 . S
C569 C568 1.377 . S
C569 C570 1.379 . S
C570 H554 0.931 . S
C570 C564 1.383 . S
C570 C569 1.379 . S
H571 C565 0.959 . S
H572 C565 0.961 . S
H573 C565 0.960 . S
H574 C566 0.930 . S
H575 C567 0.929 . S
H576 C584 0.929 . S
H577 C586 0.930 . S
H578 C588 0.930 . S
H579 C591 0.929 . S
H580 C594 0.930 . S
H581 C596 0.960 . S
H582 C596 0.960 . S
H583 C596 0.960 . S
C584 H576 0.929 . S
C584 C585 1.377 . S
C584 C586 1.384 . S
C585 C584 1.377 . S
C585 C591 1.390 . S
C586 H577 0.930 . S
C586 C584 1.384 . S
C586 C587 1.372 . S
C587 C586 1.372 . S
C587 C588 1.400 . S
C587 C592 1.490 . S
C588 H578 0.930 . S
C588 C587 1.400 . S
C588 C591 1.386 . S
H589 C605 0.930 . S
H590 C606 0.931 . S
C591 H579 0.929 . S
C591 C585 1.390 . S
C591 C588 1.386 . S
C592 C587 1.490 . S
C592 C594 1.395 . S
C592 C595 1.403 . S
H593 C599 0.930 . S
C594 H580 0.930 . S
C594 C592 1.395 . S
C594 C597 1.403 . S
C595 C592 1.403 . S
C595 C596 1.524 . S
C595 C599 1.400 . S
C596 H581 0.960 . S
C596 H582 0.960 . S
C596 H583 0.960 . S
C596 C595 1.524 . S
C597 C594 1.403 . S
C597 C598 1.392 . S
C597 C601 1.495 . S
C598 C597 1.392 . S
C598 C599 1.385 . S
C598 C600 1.478 . S
C599 H593 0.930 . S
C599 C595 1.400 . S
C599 C598 1.385 . S
C600 C598 1.478 . S
C600 C602 1.381 . S
C600 C606 1.383 . S
C601 C597 1.495 . S
C601 H607 0.959 . S
C601 H608 0.961 . S
C601 H609 0.960 . S
C602 C600 1.381 . S
C602 C603 1.394 . S
C602 H610 0.930 . S
C603 C602 1.394 . S
C603 C604 1.383 . S
C603 H611 0.929 . S
C604 C603 1.383 . S
C604 C605 1.377 . S
C605 H589 0.930 . S
C605 C604 1.377 . S
C605 C606 1.379 . S
C606 H590 0.931 . S
C606 C600 1.383 . S
C606 C605 1.379 . S
H607 C601 0.959 . S
H608 C601 0.961 . S
H609 C601 0.960 . S
H610 C602 0.930 . S
H611 C603 0.929 . S
H612 C620 0.929 . S
H613 C622 0.930 . S
H614 C624 0.930 . S
H615 C627 0.929 . S
H616 C630 0.930 . S
H617 C632 0.960 . S
H618 C632 0.960 . S
H619 C632 0.960 . S
C620 H612 0.929 . S
C620 C621 1.377 . S
C620 C622 1.384 . S
C621 C620 1.377 . S
C621 C627 1.390 . S
C622 H613 0.930 . S
C622 C620 1.384 . S
C622 C623 1.372 . S
C623 C622 1.372 . S
C623 C624 1.400 . S
C623 C628 1.490 . S
C624 H614 0.930 . S
C624 C623 1.400 . S
C624 C627 1.386 . S
H625 C641 0.930 . S
H626 C642 0.931 . S
C627 H615 0.929 . S
C627 C621 1.390 . S
C627 C624 1.386 . S
C628 C623 1.490 . S
C628 C630 1.395 . S
C628 C631 1.403 . S
H629 C635 0.930 . S
C630 H616 0.930 . S
C630 C628 1.395 . S
C630 C633 1.403 . S
C631 C628 1.403 . S
C631 C632 1.524 . S
C631 C635 1.400 . S
C632 H617 0.960 . S
C632 H618 0.960 . S
C632 H619 0.960 . S
C632 C631 1.524 . S
C633 C630 1.403 . S
C633 C634 1.392 . S
C633 C637 1.495 . S
C634 C633 1.392 . S
C634 C635 1.385 . S
C634 C636 1.478 . S
C635 H629 0.930 . S
C635 C631 1.400 . S
C635 C634 1.385 . S
C636 C634 1.478 . S
C636 C638 1.381 . S
C636 C642 1.383 . S
C637 C633 1.495 . S
C637 H643 0.959 . S
C637 H644 0.961 . S
C637 H645 0.960 . S
C638 C636 1.381 . S
C638 C639 1.394 . S
C638 H646 0.930 . S
C639 C638 1.394 . S
C639 C640 1.383 . S
C639 H647 0.929 . S
C640 C639 1.383 . S
C640 C641 1.377 . S
C641 H625 0.930 . S
C641 C640 1.377 . S
C641 C642 1.379 . S
C642 H626 0.931 . S
C642 C636 1.383 . S
C642 C641 1.379 . S
H643 C637 0.959 . S
H644 C637 0.961 . S
H645 C637 0.960 . S
H646 C638 0.930 . S
H647 C639 0.929 . S
H648 C656 0.929 . S
H649 C658 0.930 . S
H650 C660 0.930 . S
H651 C663 0.929 . S
H652 C666 0.930 . S
H653 C668 0.960 . S
H654 C668 0.960 . S
H655 C668 0.960 . S
C656 H648 0.929 . S
C656 C657 1.377 . S
C656 C658 1.384 . S
C657 C656 1.377 . S
C657 C663 1.390 . S
C658 H649 0.930 . S
C658 C656 1.384 . S
C658 C659 1.372 . S
C659 C658 1.372 . S
C659 C660 1.400 . S
C659 C664 1.490 . S
C660 H650 0.930 . S
C660 C659 1.400 . S
C660 C663 1.386 . S
H661 C677 0.930 . S
H662 C678 0.931 . S
C663 H651 0.929 . S
C663 C657 1.390 . S
C663 C660 1.386 . S
C664 C659 1.490 . S
C664 C666 1.395 . S
C664 C667 1.403 . S
H665 C671 0.930 . S
C666 H652 0.930 . S
C666 C664 1.395 . S
C666 C669 1.403 . S
C667 C664 1.403 . S
C667 C668 1.524 . S
C667 C671 1.400 . S
C668 H653 0.960 . S
C668 H654 0.960 . S
C668 H655 0.960 . S
C668 C667 1.524 . S
C669 C666 1.403 . S
C669 C670 1.392 . S
C669 C673 1.495 . S
C670 C669 1.392 . S
C670 C671 1.385 . S
C670 C672 1.478 . S
C671 H665 0.930 . S
C671 C667 1.400 . S
C671 C670 1.385 . S
C672 C670 1.478 . S
C672 C674 1.381 . S
C672 C678 1.383 . S
C673 C669 1.495 . S
C673 H679 0.959 . S
C673 H680 0.961 . S
C673 H681 0.960 . S
C674 C672 1.381 . S
C674 C675 1.394 . S
C674 H682 0.930 . S
C675 C674 1.394 . S
C675 C676 1.383 . S
C675 H683 0.929 . S
C676 C675 1.383 . S
C676 C677 1.377 . S
C677 H661 0.930 . S
C677 C676 1.377 . S
C677 C678 1.379 . S
C678 H662 0.931 . S
C678 C672 1.383 . S
C678 C677 1.379 . S
H679 C673 0.959 . S
H680 C673 0.961 . S
H681 C673 0.960 . S
H682 C674 0.930 . S
H683 C675 0.929 . S
H684 C692 0.929 . S
H685 C694 0.930 . S
H686 C696 0.930 . S
H687 C699 0.929 . S
H688 C702 0.930 . S
H689 C704 0.960 . S
H690 C704 0.960 . S
H691 C704 0.960 . S
C692 H684 0.929 . S
C692 C693 1.377 . S
C692 C694 1.384 . S
C693 C692 1.377 . S
C693 C699 1.390 . S
C694 H685 0.930 . S
C694 C692 1.384 . S
C694 C695 1.372 . S
C695 C694 1.372 . S
C695 C696 1.400 . S
C695 C700 1.490 . S
C696 H686 0.930 . S
C696 C695 1.400 . S
C696 C699 1.386 . S
H697 C713 0.930 . S
H698 C714 0.931 . S
C699 H687 0.929 . S
C699 C693 1.390 . S
C699 C696 1.386 . S
C700 C695 1.490 . S
C700 C702 1.395 . S
C700 C703 1.403 . S
H701 C707 0.930 . S
C702 H688 0.930 . S
C702 C700 1.395 . S
C702 C705 1.403 . S
C703 C700 1.403 . S
C703 C704 1.524 . S
C703 C707 1.400 . S
C704 H689 0.960 . S
C704 H690 0.960 . S
C704 H691 0.960 . S
C704 C703 1.524 . S
C705 C702 1.403 . S
C705 C706 1.392 . S
C705 C709 1.495 . S
C706 C705 1.392 . S
C706 C707 1.385 . S
C706 C708 1.478 . S
C707 H701 0.930 . S
C707 C703 1.400 . S
C707 C706 1.385 . S
C708 C706 1.478 . S
C708 C710 1.381 . S
C708 C714 1.383 . S
C709 C705 1.495 . S
C709 H715 0.959 . S
C709 H716 0.961 . S
C709 H717 0.960 . S
C710 C708 1.381 . S
C710 C711 1.394 . S
C710 H718 0.930 . S
C711 C710 1.394 . S
C711 C712 1.383 . S
C711 H719 0.929 . S
C712 C711 1.383 . S
C712 C713 1.377 . S
C713 H697 0.930 . S
C713 C712 1.377 . S
C713 C714 1.379 . S
C714 H698 0.931 . S
C714 C708 1.383 . S
C714 C713 1.379 . S
H715 C709 0.959 . S
H716 C709 0.961 . S
H717 C709 0.960 . S
H718 C710 0.930 . S
H719 C711 0.929 . S
H720 C728 0.929 . S
H721 C730 0.930 . S
H722 C732 0.930 . S
H723 C735 0.929 . S
H724 C738 0.930 . S
H725 C740 0.960 . S
H726 C740 0.960 . S
H727 C740 0.960 . S
C728 H720 0.929 . S
C728 C729 1.377 . S
C728 C730 1.384 . S
C729 C728 1.377 . S
C729 C735 1.390 . S
C730 H721 0.930 . S
C730 C728 1.384 . S
C730 C731 1.372 . S
C731 C730 1.372 . S
C731 C732 1.400 . S
C731 C736 1.490 . S
C732 H722 0.930 . S
C732 C731 1.400 . S
C732 C735 1.386 . S
H733 C749 0.930 . S
H734 C750 0.931 . S
C735 H723 0.929 . S
C735 C729 1.390 . S
C735 C732 1.386 . S
C736 C731 1.490 . S
C736 C738 1.395 . S
C736 C739 1.403 . S
H737 C743 0.930 . S
C738 H724 0.930 . S
C738 C736 1.395 . S
C738 C741 1.403 . S
C739 C736 1.403 . S
C739 C740 1.524 . S
C739 C743 1.400 . S
C740 H725 0.960 . S
C740 H726 0.960 . S
C740 H727 0.960 . S
C740 C739 1.524 . S
C741 C738 1.403 . S
C741 C742 1.392 . S
C741 C745 1.495 . S
C742 C741 1.392 . S
C742 C743 1.385 . S
C742 C744 1.478 . S
C743 H737 0.930 . S
C743 C739 1.400 . S
C743 C742 1.385 . S
C744 C742 1.478 . S
C744 C746 1.381 . S
C744 C750 1.383 . S
C745 C741 1.495 . S
C745 H751 0.959 . S
C745 H752 0.961 . S
C745 H753 0.960 . S
C746 C744 1.381 . S
C746 C747 1.394 . S
C746 H754 0.930 . S
C747 C746 1.394 . S
C747 C748 1.383 . S
C747 H755 0.929 . S
C748 C747 1.383 . S
C748 C749 1.377 . S
C749 H733 0.930 . S
C749 C748 1.377 . S
C749 C750 1.379 . S
C750 H734 0.931 . S
C750 C744 1.383 . S
C750 C749 1.379 . S
H751 C745 0.959 . S
H752 C745 0.961 . S
H753 C745 0.960 . S
H754 C746 0.930 . S
H755 C747 0.929 . S
H756 C764 0.929 . S
H757 C766 0.930 . S
H758 C768 0.930 . S
H759 C771 0.929 . S
H760 C774 0.930 . S
H761 C776 0.960 . S
H762 C776 0.960 . S
H763 C776 0.960 . S
C764 H756 0.929 . S
C764 C765 1.377 . S
C764 C766 1.384 . S
C765 C764 1.377 . S
C765 C771 1.390 . S
C766 H757 0.930 . S
C766 C764 1.384 . S
C766 C767 1.372 . S
C767 C766 1.372 . S
C767 C768 1.400 . S
C767 C772 1.490 . S
C768 H758 0.930 . S
C768 C767 1.400 . S
C768 C771 1.386 . S
H769 C785 0.930 . S
H770 C786 0.931 . S
C771 H759 0.929 . S
C771 C765 1.390 . S
C771 C768 1.386 . S
C772 C767 1.490 . S
C772 C774 1.395 . S
C772 C775 1.403 . S
H773 C779 0.930 . S
C774 H760 0.930 . S
C774 C772 1.395 . S
C774 C777 1.403 . S
C775 C772 1.403 . S
C775 C776 1.524 . S
C775 C779 1.400 . S
C776 H761 0.960 . S
C776 H762 0.960 . S
C776 H763 0.960 . S
C776 C775 1.524 . S
C777 C774 1.403 . S
C777 C778 1.392 . S
C777 C781 1.495 . S
C778 C777 1.392 . S
C778 C779 1.385 . S
C778 C780 1.478 . S
C779 H773 0.930 . S
C779 C775 1.400 . S
C779 C778 1.385 . S
C780 C778 1.478 . S
C780 C782 1.381 . S
C780 C786 1.383 . S
C781 C777 1.495 . S
C781 H787 0.959 . S
C781 H788 0.961 . S
C781 H789 0.960 . S
C782 C780 1.381 . S
C782 C783 1.394 . S
C782 H790 0.930 . S
C783 C782 1.394 . S
C783 C784 1.383 . S
C783 H791 0.929 . S
C784 C783 1.383 . S
C784 C785 1.377 . S
C785 H769 0.930 . S
C785 C784 1.377 . S
C785 C786 1.379 . S
C786 H770 0.931 . S
C786 C780 1.383 . S
C786 C785 1.379 . S
H787 C781 0.959 . S
H788 C781 0.961 . S
H789 C781 0.960 . S
H790 C782 0.930 . S
H791 C783 0.929 . S
H792 C800 0.929 . S
H793 C802 0.930 . S
H794 C804 0.930 . S
H795 C807 0.929 . S
H796 C810 0.930 . S
H797 C812 0.960 . S
H798 C812 0.960 . S
H799 C812 0.960 . S
C800 H792 0.929 . S
C800 C801 1.377 . S
C800 C802 1.384 . S
C801 C800 1.377 . S
C801 C807 1.390 . S
C802 H793 0.930 . S
C802 C800 1.384 . S
C802 C803 1.372 . S
C803 C802 1.372 . S
C803 C804 1.400 . S
C803 C808 1.490 . S
C804 H794 0.930 . S
C804 C803 1.400 . S
C804 C807 1.386 . S
H805 C821 0.930 . S
H806 C822 0.931 . S
C807 H795 0.929 . S
C807 C801 1.390 . S
C807 C804 1.386 . S
C808 C803 1.490 . S
C808 C810 1.395 . S
C808 C811 1.403 1_455 S
H809 C815 0.930 1_655 S
C810 H796 0.930 . S
C810 C808 1.395 . S
C810 C813 1.403 . S
C811 C808 1.403 1_655 S
C811 C812 1.524 . S
C811 C815 1.400 1_655 S
C812 H797 0.960 . S
C812 H798 0.960 . S
C812 H799 0.960 . S
C812 C811 1.524 . S
C813 C810 1.403 . S
C813 C814 1.392 . S
C813 C817 1.495 . S
C814 C813 1.392 . S
C814 C815 1.385 . S
C814 C816 1.478 . S
C815 H809 0.930 1_455 S
C815 C811 1.400 1_455 S
C815 C814 1.385 . S
C816 C814 1.478 . S
C816 C818 1.381 . S
C816 C822 1.383 . S
C817 C813 1.495 . S
C817 H823 0.959 . S
C817 H824 0.961 . S
C817 H825 0.960 . S
C818 C816 1.381 . S
C818 C819 1.394 1_554 S
C818 H826 0.930 . S
C819 C818 1.394 1_556 S
C819 C820 1.383 . S
C819 H827 0.929 . S
C820 C819 1.383 . S
C820 C821 1.377 . S
C821 H805 0.930 . S
C821 C820 1.377 . S
C821 C822 1.379 1_556 S
C822 H806 0.931 . S
C822 C816 1.383 . S
C822 C821 1.379 1_554 S
H823 C817 0.959 . S
H824 C817 0.961 . S
H825 C817 0.960 . S
H826 C818 0.930 . S
H827 C819 0.929 . S
H828 C836 0.929 . S
H829 C838 0.930 . S
H830 C840 0.930 . S
H831 C843 0.929 . S
H832 C846 0.930 . S
H833 C848 0.960 . S
H834 C848 0.960 . S
H835 C848 0.960 . S
C836 H828 0.929 . S
C836 C837 1.377 . S
C836 C838 1.384 . S
C837 C836 1.377 . S
C837 C843 1.390 . S
C838 H829 0.930 . S
C838 C836 1.384 . S
C838 C839 1.372 . S
C839 C838 1.372 . S
C839 C840 1.400 . S
C839 C844 1.490 . S
C840 H830 0.930 . S
C840 C839 1.400 . S
C840 C843 1.386 . S
H841 C857 0.930 . S
H842 C858 0.931 . S
C843 H831 0.929 . S
C843 C837 1.390 . S
C843 C840 1.386 . S
C844 C839 1.490 . S
C844 C846 1.395 . S
C844 C847 1.403 . S
H845 C851 0.930 . S
C846 H832 0.930 . S
C846 C844 1.395 . S
C846 C849 1.403 . S
C847 C844 1.403 . S
C847 C848 1.524 . S
C847 C851 1.400 . S
C848 H833 0.960 . S
C848 H834 0.960 . S
C848 H835 0.960 . S
C848 C847 1.524 . S
C849 C846 1.403 . S
C849 C850 1.392 . S
C849 C853 1.495 1_545 S
C850 C849 1.392 . S
C850 C851 1.385 . S
C850 C852 1.478 . S
C851 H845 0.930 . S
C851 C847 1.400 . S
C851 C850 1.385 . S
C852 C850 1.478 . S
C852 C854 1.381 . S
C852 C858 1.383 . S
C853 C849 1.495 1_565 S
C853 H859 0.959 . S
C853 H860 0.961 . S
C853 H861 0.960 1_565 S
C854 C852 1.381 . S
C854 C855 1.394 . S
C854 H862 0.930 . S
C855 C854 1.394 . S
C855 C856 1.383 . S
C855 H863 0.929 . S
C856 C855 1.383 . S
C856 C857 1.377 . S
C857 H841 0.930 . S
C857 C856 1.377 . S
C857 C858 1.379 . S
C858 H842 0.931 . S
C858 C852 1.383 . S
C858 C857 1.379 . S
H859 C853 0.959 . S
H860 C853 0.961 . S
H861 C853 0.960 1_545 S
H862 C854 0.930 . S
H863 C855 0.929 . S
H864 C872 0.929 . S
H865 C874 0.930 . S
H866 C876 0.930 . S
H867 C879 0.929 . S
H868 C882 0.930 . S
H869 C884 0.960 . S
H870 C884 0.960 . S
H871 C884 0.960 . S
C872 H864 0.929 . S
C872 C873 1.377 . S
C872 C874 1.384 . S
C873 C872 1.377 . S
C873 C879 1.390 . S
C874 H865 0.930 . S
C874 C872 1.384 . S
C874 C875 1.372 . S
C875 C874 1.372 . S
C875 C876 1.400 . S
C875 C880 1.490 . S
C876 H866 0.930 . S
C876 C875 1.400 . S
C876 C879 1.386 . S
H877 C893 0.930 . S
H878 C894 0.931 . S
C879 H867 0.929 . S
C879 C873 1.390 . S
C879 C876 1.386 . S
C880 C875 1.490 . S
C880 C882 1.395 . S
C880 C883 1.403 . S
H881 C887 0.930 . S
C882 H868 0.930 . S
C882 C880 1.395 . S
C882 C885 1.403 . S
C883 C880 1.403 . S
C883 C884 1.524 . S
C883 C887 1.400 . S
C884 H869 0.960 . S
C884 H870 0.960 . S
C884 H871 0.960 . S
C884 C883 1.524 . S
C885 C882 1.403 . S
C885 C886 1.392 . S
C885 C889 1.495 . S
C886 C885 1.392 . S
C886 C887 1.385 . S
C886 C888 1.478 . S
C887 H881 0.930 . S
C887 C883 1.400 . S
C887 C886 1.385 . S
C888 C886 1.478 . S
C888 C890 1.381 . S
C888 C894 1.383 . S
C889 C885 1.495 . S
C889 H895 0.959 . S
C889 H896 0.961 . S
C889 H897 0.960 . S
C890 C888 1.381 . S
C890 C891 1.394 . S
C890 H898 0.930 . S
C891 C890 1.394 . S
C891 C892 1.383 . S
C891 H899 0.929 . S
C892 C891 1.383 . S
C892 C893 1.377 . S
C893 H877 0.930 . S
C893 C892 1.377 . S
C893 C894 1.379 . S
C894 H878 0.931 . S
C894 C888 1.383 . S
C894 C893 1.379 . S
H895 C889 0.959 . S
H896 C889 0.961 . S
H897 C889 0.960 . S
H898 C890 0.930 . S
H899 C891 0.929 . S
H900 C908 0.929 . S
H901 C910 0.930 . S
H902 C912 0.930 . S
H903 C915 0.929 . S
H904 C918 0.930 1_565 S
H905 C920 0.960 . S
H906 C920 0.960 . S
H907 C920 0.960 . S
C908 H900 0.929 . S
C908 C909 1.377 1_565 S
C908 C910 1.384 . S
C909 C908 1.377 1_545 S
C909 C915 1.390 . S
C910 H901 0.930 . S
C910 C908 1.384 . S
C910 C911 1.372 1_565 S
C911 C910 1.372 1_545 S
C911 C912 1.400 . S
C911 C916 1.490 . S
C912 H902 0.930 . S
C912 C911 1.400 . S
C912 C915 1.386 . S
H913 C929 0.930 . S
H914 C930 0.931 . S
C915 H903 0.929 . S
C915 C909 1.390 . S
C915 C912 1.386 . S
C916 C911 1.490 . S
C916 C918 1.395 . S
C916 C919 1.403 . S
H917 C923 0.930 . S
C918 H904 0.930 1_545 S
C918 C916 1.395 . S
C918 C921 1.403 . S
C919 C916 1.403 . S
C919 C920 1.524 . S
C919 C923 1.400 . S
C920 H905 0.960 . S
C920 H906 0.960 . S
C920 H907 0.960 . S
C920 C919 1.524 . S
C921 C918 1.403 . S
C921 C922 1.392 . S
C921 C925 1.495 1_545 S
C922 C921 1.392 . S
C922 C923 1.385 . S
C922 C924 1.478 . S
C923 H917 0.930 . S
C923 C919 1.400 . S
C923 C922 1.385 . S
C924 C922 1.478 . S
C924 C926 1.381 1_545 S
C924 C930 1.383 . S
C925 C921 1.495 1_565 S
C925 H931 0.959 . S
C925 H932 0.961 1_565 S
C925 H933 0.960 . S
C926 C924 1.381 1_565 S
C926 C927 1.394 . S
C926 H934 0.930 . S
C927 C926 1.394 . S
C927 C928 1.383 1_565 S
C927 H935 0.929 . S
C928 C927 1.383 1_545 S
C928 C929 1.377 . S
C929 H913 0.930 . S
C929 C928 1.377 . S
C929 C930 1.379 . S
C930 H914 0.931 . S
C930 C924 1.383 . S
C930 C929 1.379 . S
H931 C925 0.959 . S
H932 C925 0.961 1_545 S
H933 C925 0.960 . S
H934 C926 0.930 . S
H935 C927 0.929 . S
H936 C944 0.929 . S
H937 C946 0.930 . S
H938 C948 0.930 . S
H939 C951 0.929 . S
H940 C954 0.930 . S
H941 C956 0.960 . S
H942 C956 0.960 . S
H943 C956 0.960 . S
C944 H936 0.929 . S
C944 C945 1.377 . S
C944 C946 1.384 . S
C945 C944 1.377 . S
C945 C951 1.390 . S
C946 H937 0.930 . S
C946 C944 1.384 . S
C946 C947 1.372 . S
C947 C946 1.372 . S
C947 C948 1.400 . S
C947 C952 1.490 . S
C948 H938 0.930 . S
C948 C947 1.400 . S
C948 C951 1.386 . S
H949 C965 0.930 1_554 S
H950 C966 0.931 . S
C951 H939 0.929 . S
C951 C945 1.390 . S
C951 C948 1.386 . S
C952 C947 1.490 . S
C952 C954 1.395 . S
C952 C955 1.403 . S
H953 C959 0.930 . S
C954 H940 0.930 . S
C954 C952 1.395 . S
C954 C957 1.403 . S
C955 C952 1.403 . S
C955 C956 1.524 . S
C955 C959 1.400 . S
C956 H941 0.960 . S
C956 H942 0.960 . S
C956 H943 0.960 . S
C956 C955 1.524 . S
C957 C954 1.403 . S
C957 C958 1.392 . S
C957 C961 1.495 . S
C958 C957 1.392 . S
C958 C959 1.385 . S
C958 C960 1.478 . S
C959 H953 0.930 . S
C959 C955 1.400 . S
C959 C958 1.385 . S
C960 C958 1.478 . S
C960 C962 1.381 . S
C960 C966 1.383 . S
C961 C957 1.495 . S
C961 H967 0.959 . S
C961 H968 0.961 . S
C961 H969 0.960 . S
C962 C960 1.381 . S
C962 C963 1.394 . S
C962 H970 0.930 . S
C963 C962 1.394 . S
C963 C964 1.383 1_556 S
C963 H971 0.929 1_556 S
C964 C963 1.383 1_554 S
C964 C965 1.377 1_554 S
C965 H949 0.930 1_556 S
C965 C964 1.377 1_556 S
C965 C966 1.379 . S
C966 H950 0.931 . S
C966 C960 1.383 . S
C966 C965 1.379 . S
H967 C961 0.959 . S
H968 C961 0.961 . S
H969 C961 0.960 . S
H970 C962 0.930 . S
H971 C963 0.929 1_554 S
H972 C980 0.929 . S
H973 C982 0.930 . S
H974 C984 0.930 . S
H975 C987 0.929 . S
H976 C990 0.930 . S
H977 C992 0.960 . S
H978 C992 0.960 . S
H979 C992 0.960 . S
C980 H972 0.929 . S
C980 C981 1.377 . S
C980 C982 1.384 . S
C981 C980 1.377 . S
C981 C987 1.390 1_455 S
C982 H973 0.930 . S
C982 C980 1.384 . S
C982 C983 1.372 . S
C983 C982 1.372 . S
C983 C984 1.400 1_455 S
C983 C988 1.490 . S
C984 H974 0.930 . S
C984 C983 1.400 1_655 S
C984 C987 1.386 . S
H985 C1001 0.930 . S
H986 C1002 0.931 . S
C987 H975 0.929 . S
C987 C981 1.390 1_655 S
C987 C984 1.386 . S
C988 C983 1.490 . S
C988 C990 1.395 . S
C988 C991 1.403 1_455 S
H989 C995 0.930 . S
C990 H976 0.930 . S
C990 C988 1.395 . S
C990 C993 1.403 . S
C991 C988 1.403 1_655 S
C991 C992 1.524 . S
C991 C995 1.400 . S
C992 H977 0.960 . S
C992 H978 0.960 . S
C992 H979 0.960 . S
C992 C991 1.524 . S
C993 C990 1.403 . S
C993 C994 1.392 . S
C993 C997 1.495 . S
C994 C993 1.392 . S
C994 C995 1.385 1_455 S
C994 C996 1.478 . S
C995 H989 0.930 . S
C995 C991 1.400 . S
C995 C994 1.385 1_655 S
C996 C994 1.478 . S
C996 C998 1.381 . S
C996 C1002 1.383 1_455 S
C997 C993 1.495 . S
C997 H1003 0.959 . S
C997 H1004 0.961 . S
C997 H1005 0.960 . S
C998 C996 1.381 . S
C998 C999 1.394 . S
C998 H1006 0.930 . S
C999 C998 1.394 . S
C999 C1000 1.387 1_455 S
C999 H1007 0.929 . S
C1000 C999 1.387 1_655 S
C1000 C1001 1.373 . S
C1001 H985 0.930 . S
C1001 C1000 1.373 . S
C1001 C1002 1.379 . S
C1002 H986 0.931 . S
C1002 C996 1.383 1_655 S
C1002 C1001 1.379 . S
H1003 C997 0.959 . S
H1004 C997 0.961 . S
H1005 C997 0.960 . S
H1006 C998 0.930 . S
H1007 C999 0.929 . S
C369 C24 2.881 . S
C388 C335 2.843 . S
C405 C66 1.021 . S
C424 C242 1.036 . S
C441 C93 1.759 . S
C460 C282 1.738 . S
C477 C13 3.059 . S
C496 C322 3.005 . S
C532 C255 1.241 . S
C513 C57 1.274 . S
C568 C295 1.920 . S
C549 C104 1.981 . S
C585 C64 1.941 . S
C604 C162 1.904 . S
C621 C97 0.355 . S
C640 C202 0.485 . S
C657 C17 1.226 . S
C676 C135 1.232 . S
C712 C175 1.769 . S
C693 C53 1.792 . S
C748 C215 0.153 . S
C729 C106 0.276 . S
C765 C26 1.040 . S
C784 C122 1.034 . S
C820 C221 1.119 . S
C801 C2 1.099 . S
C837 C63 1.478 . S
C856 C141 1.513 . S
C873 C82 1.377 . S
C892 C181 1.374 . S
C928 C301 1.416 . S
C909 C42 1.401 . S
C964 C341 1.744 . S
C945 C103 1.729 . S
C981 C23 1.481 . S
C1000 C261 1.497 . S
