# Generated by pormake.
# Topology ocu, (6,8)-cn, num edge types: 1
# Building blocks:
#     Node 0, Type 0, BuildingBlock: CUKXOW_clean_sbu_0, # of connection points: 6
#     Node 1, Type 0, BuildingBlock: CUKXOW_clean_sbu_0, # of connection points: 6
#     Node 2, Type 0, BuildingBlock: CUKXOW_clean_sbu_0, # of connection points: 6
#     Node 3, Type 0, BuildingBlock: CUKXOW_clean_sbu_0, # of connection points: 6
#     Node 4, Type 0, BuildingBlock: CUKXOW_clean_sbu_0, # of connection points: 6
#     Node 5, Type 0, BuildingBlock: CUKXOW_clean_sbu_0, # of connection points: 6
#     Node 6, Type 0, BuildingBlock: CUKXOW_clean_sbu_0, # of connection points: 6
#     Node 7, Type 0, BuildingBlock: CUKXOW_clean_sbu_0, # of connection points: 6
#     Node 8, Type 1, BuildingBlock: AJUNOK_clean_sbu_0, # of connection points: 8
#     Node 9, Type 1, BuildingBlock: AJUNOK_clean_sbu_0, # of connection points: 8
#     Node 10, Type 1, BuildingBlock: AJUNOK_clean_sbu_0, # of connection points: 8
#     Node 11, Type 1, BuildingBlock: AJUNOK_clean_sbu_0, # of connection points: 8
#     Node 12, Type 1, BuildingBlock: AJUNOK_clean_sbu_0, # of connection points: 8
#     Node 13, Type 1, BuildingBlock: AJUNOK_clean_sbu_0, # of connection points: 8
#     Edge 14, Type (0, 1), BuildingBlock: TEMPAE_clean_linker_10, # of connection points: 2
#     Edge 15, Type (0, 1), BuildingBlock: TEMPAE_clean_linker_10, # of connection points: 2
#     Edge 16, Type (0, 1), BuildingBlock: TEMPAE_clean_linker_10, # of connection points: 2
#     Edge 17, Type (0, 1), BuildingBlock: TEMPAE_clean_linker_10, # of connection points: 2
#     Edge 18, Type (0, 1), BuildingBlock: TEMPAE_clean_linker_10, # of connection points: 2
#     Edge 19, Type (0, 1), BuildingBlock: TEMPAE_clean_linker_10, # of connection points: 2
#     Edge 20, Type (0, 1), BuildingBlock: TEMPAE_clean_linker_10, # of connection points: 2
#     Edge 21, Type (0, 1), BuildingBlock: TEMPAE_clean_linker_10, # of connection points: 2
#     Edge 22, Type (0, 1), BuildingBlock: TEMPAE_clean_linker_10, # of connection points: 2
#     Edge 23, Type (0, 1), BuildingBlock: TEMPAE_clean_linker_10, # of connection points: 2
#     Edge 24, Type (0, 1), BuildingBlock: TEMPAE_clean_linker_10, # of connection points: 2
#     Edge 25, Type (0, 1), BuildingBlock: TEMPAE_clean_linker_10, # of connection points: 2
#     Edge 26, Type (0, 1), BuildingBlock: TEMPAE_clean_linker_10, # of connection points: 2
#     Edge 27, Type (0, 1), BuildingBlock: TEMPAE_clean_linker_10, # of connection points: 2
#     Edge 28, Type (0, 1), BuildingBlock: TEMPAE_clean_linker_10, # of connection points: 2
#     Edge 29, Type (0, 1), BuildingBlock: TEMPAE_clean_linker_10, # of connection points: 2
#     Edge 30, Type (0, 1), BuildingBlock: TEMPAE_clean_linker_10, # of connection points: 2
#     Edge 31, Type (0, 1), BuildingBlock: TEMPAE_clean_linker_10, # of connection points: 2
#     Edge 32, Type (0, 1), BuildingBlock: TEMPAE_clean_linker_10, # of connection points: 2
#     Edge 33, Type (0, 1), BuildingBlock: TEMPAE_clean_linker_10, # of connection points: 2
#     Edge 34, Type (0, 1), BuildingBlock: TEMPAE_clean_linker_10, # of connection points: 2
#     Edge 35, Type (0, 1), BuildingBlock: TEMPAE_clean_linker_10, # of connection points: 2
#     Edge 36, Type (0, 1), BuildingBlock: TEMPAE_clean_linker_10, # of connection points: 2
#     Edge 37, Type (0, 1), BuildingBlock: TEMPAE_clean_linker_10, # of connection points: 2
#     Edge 38, Type (0, 1), BuildingBlock: TEMPAE_clean_linker_10, # of connection points: 2
#     Edge 39, Type (0, 1), BuildingBlock: TEMPAE_clean_linker_10, # of connection points: 2
#     Edge 40, Type (0, 1), BuildingBlock: TEMPAE_clean_linker_10, # of connection points: 2
#     Edge 41, Type (0, 1), BuildingBlock: TEMPAE_clean_linker_10, # of connection points: 2
#     Edge 42, Type (0, 1), BuildingBlock: TEMPAE_clean_linker_10, # of connection points: 2
#     Edge 43, Type (0, 1), BuildingBlock: TEMPAE_clean_linker_10, # of connection points: 2
#     Edge 44, Type (0, 1), BuildingBlock: TEMPAE_clean_linker_10, # of connection points: 2
#     Edge 45, Type (0, 1), BuildingBlock: TEMPAE_clean_linker_10, # of connection points: 2
#     Edge 46, Type (0, 1), BuildingBlock: TEMPAE_clean_linker_10, # of connection points: 2
#     Edge 47, Type (0, 1), BuildingBlock: TEMPAE_clean_linker_10, # of connection points: 2
#     Edge 48, Type (0, 1), BuildingBlock: TEMPAE_clean_linker_10, # of connection points: 2
#     Edge 49, Type (0, 1), BuildingBlock: TEMPAE_clean_linker_10, # of connection points: 2
#     Edge 50, Type (0, 1), BuildingBlock: TEMPAE_clean_linker_10, # of connection points: 2
#     Edge 51, Type (0, 1), BuildingBlock: TEMPAE_clean_linker_10, # of connection points: 2
#     Edge 52, Type (0, 1), BuildingBlock: TEMPAE_clean_linker_10, # of connection points: 2
#     Edge 53, Type (0, 1), BuildingBlock: TEMPAE_clean_linker_10, # of connection points: 2
#     Edge 54, Type (0, 1), BuildingBlock: TEMPAE_clean_linker_10, # of connection points: 2
#     Edge 55, Type (0, 1), BuildingBlock: TEMPAE_clean_linker_10, # of connection points: 2
#     Edge 56, Type (0, 1), BuildingBlock: TEMPAE_clean_linker_10, # of connection points: 2
#     Edge 57, Type (0, 1), BuildingBlock: TEMPAE_clean_linker_10, # of connection points: 2
#     Edge 58, Type (0, 1), BuildingBlock: TEMPAE_clean_linker_10, # of connection points: 2
#     Edge 59, Type (0, 1), BuildingBlock: TEMPAE_clean_linker_10, # of connection points: 2
#     Edge 60, Type (0, 1), BuildingBlock: TEMPAE_clean_linker_10, # of connection points: 2
#     Edge 61, Type (0, 1), BuildingBlock: TEMPAE_clean_linker_10, # of connection points: 2
# Relax obj value: 0.139
# Max RMSD: 0.206
# Mean RMSD: 0.188
data_MOF--net-ocu--node1-CUKXOW_clean_sbu_0--node2-AJUNOK_clean_sbu_0--edge1-TEMPAE_clean_linker_10
_symmetry_space_group_name_H-M    P1
_symmetry_Int_Tables_number       1
_symmetry_cell_setting            triclinic
loop_
_symmetry_equiv_pos_as_xyz
'x, y, z'
_cell_length_a     41.647544
_cell_length_b     43.589196
_cell_length_c     35.692395
_cell_angle_alpha  99.211419
_cell_angle_beta   99.436182
_cell_angle_gamma 97.320902
loop_
_atom_site_label
_atom_site_type_symbol
_atom_site_fract_x
_atom_site_fract_y
_atom_site_fract_z
_atom_type_partial_charge
Tb0 Tb 0.24426 0.20522 0.22564 0.0
C1 C 0.28721 0.27126 0.22701 0.0
Tb2 Tb 0.24692 0.26143 0.29408 0.0
O3 O 0.21751 0.22977 0.1851 0.0
O4 O 0.21321 0.23797 0.24321 0.0
O5 O 0.28283 0.24019 0.21496 0.0
C6 C 0.23172 0.3105 0.33814 0.0
O7 O 0.2733 0.28474 0.25517 0.0
C8 C 0.29493 0.22778 0.30819 0.0
C9 C 0.20531 0.19437 0.29346 0.0
O10 O 0.23955 0.28526 0.34976 0.0
O11 O 0.23268 0.30827 0.30162 0.0
O12 O 0.29183 0.25278 0.33178 0.0
O13 O 0.2727 0.22528 0.27923 0.0
O14 O 0.20976 0.22545 0.30588 0.0
O15 O 0.21852 0.18121 0.26446 0.0
C16 C 0.25444 0.15428 0.18059 0.0
O17 O 0.22616 0.16412 0.17949 0.0
O18 O 0.27657 0.17288 0.20717 0.0
C19 C 0.20602 0.24701 0.21139 0.0
Tb20 Tb 0.72862 0.22879 0.28875 0.0
C21 C 0.69779 0.18582 0.20686 0.0
Tb22 Tb 0.75768 0.24054 0.2181 0.0
O23 O 0.71091 0.27445 0.29308 0.0
O24 O 0.71519 0.24965 0.24007 0.0
O25 O 0.69991 0.18986 0.24497 0.0
C26 C 0.76955 0.26098 0.15479 0.0
O27 O 0.71658 0.2038 0.18955 0.0
C28 C 0.79096 0.2088 0.26352 0.0
C29 C 0.78834 0.28192 0.29952 0.0
O30 O 0.7749 0.23382 0.16302 0.0
O31 O 0.7576 0.27629 0.18215 0.0
O32 O 0.80428 0.22623 0.24213 0.0
O33 O 0.7602 0.20749 0.25562 0.0
O34 O 0.78157 0.28134 0.26179 0.0
O35 O 0.77353 0.26068 0.31628 0.0
C36 C 0.70842 0.20492 0.34627 0.0
O37 O 0.6902 0.21675 0.32091 0.0
O38 O 0.73812 0.20648 0.33922 0.0
C39 C 0.70885 0.27525 0.25656 0.0
Tb40 Tb 0.74212 0.75248 0.21588 0.0
C41 C 0.68763 0.6918 0.19277 0.0
Tb42 Tb 0.73953 0.70646 0.27073 0.0
O43 O 0.79117 0.74279 0.20737 0.0
O44 O 0.75689 0.70808 0.21861 0.0
O45 O 0.70037 0.71828 0.18329 0.0
C46 C 0.74705 0.65705 0.30427 0.0
O47 O 0.69862 0.68234 0.2254 0.0
C48 C 0.71277 0.75659 0.28981 0.0
C49 C 0.79091 0.76794 0.29446 0.0
O50 O 0.76668 0.66901 0.28382 0.0
O51 O 0.72282 0.67297 0.306 0.0
O52 O 0.7269 0.7414 0.31465 0.0
O53 O 0.71182 0.74194 0.25601 0.0
O54 O 0.78587 0.73761 0.29611 0.0
O55 O 0.77307 0.78003 0.26804 0.0
C56 C 0.72824 0.79428 0.17138 0.0
O57 O 0.72734 0.79758 0.20796 0.0
O58 O 0.73733 0.7675 0.15994 0.0
C59 C 0.78619 0.71427 0.21402 0.0
Tb60 Tb 0.25525 0.74794 0.2171 0.0
C61 C 0.29149 0.76931 0.30204 0.0
Tb62 Tb 0.22599 0.71918 0.27817 0.0
O63 O 0.2445 0.79409 0.24164 0.0
O64 O 0.21401 0.75294 0.2442 0.0
O65 O 0.29528 0.76556 0.26555 0.0
C66 C 0.19779 0.70861 0.33766 0.0
O67 O 0.2648 0.75621 0.31289 0.0
C68 C 0.26173 0.68442 0.24055 0.0
C69 C 0.19163 0.69616 0.19277 0.0
O70 O 0.2221 0.69568 0.32728 0.0
O71 O 0.18926 0.72737 0.3144 0.0
O72 O 0.23701 0.67287 0.25468 0.0
O73 O 0.26703 0.71392 0.25087 0.0
O74 O 0.18669 0.70075 0.22885 0.0
O75 O 0.21859 0.7093 0.18265 0.0
C76 C 0.28078 0.76027 0.15649 0.0
O77 O 0.29311 0.74437 0.18152 0.0
O78 O 0.25428 0.76944 0.16584 0.0
C79 C 0.21941 0.78238 0.25495 0.0
Tb80 Tb 0.2302 0.72935 0.79102 0.0
C81 C 0.1884 0.69487 0.70959 0.0
Tb82 Tb 0.25399 0.74101 0.71346 0.0
O83 O 0.19789 0.76648 0.79277 0.0
O84 O 0.22554 0.75897 0.75135 0.0
O85 O 0.19687 0.69391 0.74694 0.0
C86 C 0.26398 0.76042 0.64891 0.0
O87 O 0.20526 0.71357 0.69119 0.0
C88 C 0.28372 0.70271 0.75199 0.0
C89 C 0.29282 0.77947 0.79432 0.0
O90 O 0.26624 0.73226 0.65574 0.0
O91 O 0.25608 0.77732 0.67835 0.0
O92 O 0.29741 0.71915 0.72986 0.0
O93 O 0.25381 0.706 0.74878 0.0
O94 O 0.28456 0.77884 0.75657 0.0
O95 O 0.27724 0.76021 0.81331 0.0
C96 C 0.21798 0.70406 0.8513 0.0
O97 O 0.19829 0.71872 0.83125 0.0
O98 O 0.24507 0.7039 0.83767 0.0
C99 C 0.20439 0.77491 0.76113 0.0
Tb100 Tb 0.24234 0.25347 0.71103 0.0
C101 C 0.19669 0.18836 0.68495 0.0
Tb102 Tb 0.24245 0.20545 0.76483 0.0
O103 O 0.26364 0.22406 0.66897 0.0
O104 O 0.27296 0.22043 0.72698 0.0
O105 O 0.19897 0.21881 0.68471 0.0
C106 C 0.25704 0.16414 0.80974 0.0
O107 O 0.21568 0.17688 0.7109 0.0
C108 C 0.19468 0.24002 0.76476 0.0
C109 C 0.2892 0.27139 0.79257 0.0
O110 O 0.25898 0.16121 0.77347 0.0
O111 O 0.24681 0.19041 0.82081 0.0
O112 O 0.19169 0.21146 0.77148 0.0
O113 O 0.22392 0.24795 0.76143 0.0
O114 O 0.28248 0.24186 0.79775 0.0
O115 O 0.27494 0.28176 0.7619 0.0
C116 C 0.22452 0.29831 0.67404 0.0
O117 O 0.25507 0.29519 0.68574 0.0
O118 O 0.20476 0.27693 0.68397 0.0
C119 C 0.27622 0.20799 0.69371 0.0
Tb120 Tb 0.75446 0.24919 0.71454 0.0
C121 C 0.79085 0.27164 0.79945 0.0
Tb122 Tb 0.72647 0.22054 0.77627 0.0
O123 O 0.74388 0.29553 0.73884 0.0
O124 O 0.71393 0.25455 0.74289 0.0
O125 O 0.79458 0.26762 0.76292 0.0
C126 C 0.70089 0.20865 0.83708 0.0
O127 O 0.76441 0.2583 0.81044 0.0
C128 C 0.76091 0.1854 0.73693 0.0
C129 C 0.68962 0.19853 0.69175 0.0
O130 O 0.72633 0.19793 0.82661 0.0
O131 O 0.68968 0.22589 0.81309 0.0
O132 O 0.73626 0.17416 0.75135 0.0
O133 O 0.76688 0.21489 0.7477 0.0
O134 O 0.68595 0.20301 0.72829 0.0
O135 O 0.71629 0.21129 0.68058 0.0
C136 C 0.7808 0.26107 0.65414 0.0
O137 O 0.7545 0.27083 0.66339 0.0
O138 O 0.79232 0.24467 0.67903 0.0
C139 C 0.71936 0.28403 0.7533 0.0
Tb140 Tb 0.73879 0.69655 0.71668 0.0
C141 C 0.78493 0.76036 0.71599 0.0
Tb142 Tb 0.74891 0.75252 0.78681 0.0
O143 O 0.71341 0.72373 0.67876 0.0
O144 O 0.71165 0.73183 0.73781 0.0
O145 O 0.77821 0.72931 0.70323 0.0
C146 C 0.74086 0.80341 0.83391 0.0
O147 O 0.77359 0.7745 0.74592 0.0
C148 C 0.79523 0.71647 0.79562 0.0
C149 C 0.70269 0.68833 0.78776 0.0
O150 O 0.73999 0.80123 0.79701 0.0
O151 O 0.7461 0.77696 0.84408 0.0
O152 O 0.79496 0.74208 0.81977 0.0
O153 O 0.77117 0.71433 0.76868 0.0
O154 O 0.7123 0.71875 0.80296 0.0
O155 O 0.71088 0.67451 0.75531 0.0
C156 C 0.74184 0.64362 0.66967 0.0
O157 O 0.71644 0.65817 0.66817 0.0
O158 O 0.7652 0.65881 0.69758 0.0
C159 C 0.70427 0.7417 0.70648 0.0
Cd160 Cd 0.96286 0.9534 0.55644 0.0
Cd161 Cd 0.01553 0.00529 0.44619 0.0
C162 C 0.031 0.94565 0.61145 0.0
N163 N 0.00905 0.93096 0.57902 0.0
C164 C 0.03475 0.88478 0.57731 0.0
C165 C 0.05727 0.899 0.61137 0.0
C166 C 0.05557 0.93012 0.62799 0.0
C167 C 0.01076 0.90126 0.56157 0.0
H168 H 0.02865 0.96896 0.62541 0.0
H169 H -0.00733 0.88995 0.53617 0.0
C170 C 0.96168 0.94049 0.45019 0.0
C171 C 0.9446 0.01641 0.39887 0.0
C172 C 0.92067 0.03362 0.38457 0.0
C173 C 0.92416 0.06625 0.39834 0.0
C174 C 0.95142 0.08036 0.42751 0.0
C175 C 0.97458 0.06223 0.44117 0.0
N176 N 0.97105 0.03098 0.42642 0.0
H177 H 0.94249 -0.00837 0.38715 0.0
H178 H -0.00386 0.07334 0.46259 0.0
C179 C 0.03046 0.94795 0.38418 0.0
N180 N 0.04219 0.96442 0.42063 0.0
C181 C 0.08905 0.93762 0.42586 0.0
C182 C 0.07776 0.92036 0.38807 0.0
C183 C 0.04766 0.9255 0.3675 0.0
C184 C 0.07079 0.95954 0.44163 0.0
H185 H 0.00792 0.95258 0.36778 0.0
H186 H 0.07991 0.97337 0.47029 0.0
C187 C 0.0169 0.01625 0.55067 0.0
C188 C 0.92153 0.90731 0.58568 0.0
N189 N 0.93456 -0.00591 0.57966 0.0
C190 C 0.94631 0.01178 0.61547 0.0
C191 C 0.92912 0.0348 0.63092 0.0
C192 C 0.89903 0.03943 0.60976 0.0
C193 C 0.88764 0.02083 0.57269 0.0
C194 C 0.90586 -0.00172 0.55816 0.0
C195 C 0.06012 0.04936 0.41802 0.0
O196 O 0.96671 0.95112 0.48644 0.0
O197 O 0.97571 0.95609 0.4283 0.0
O198 O 0.01006 0.00458 0.51474 0.0
O199 O 0.0034 0.00205 0.57407 0.0
O200 O 0.91353 0.91211 0.55129 0.0
O201 O 0.94795 0.92382 0.6057 0.0
O202 O 0.06789 0.0431 0.45179 0.0
O203 O 0.03236 0.03541 0.39836 0.0
H204 H 0.96898 0.00781 0.63229 0.0
H205 H 0.89675 -0.01638 0.52999 0.0
H206 H 0.03529 0.86092 0.56338 0.0
H207 H 0.07209 0.94184 0.65452 0.0
H208 H 0.89993 0.02155 0.36249 0.0
H209 H 0.95564 0.10543 0.43863 0.0
H210 H 0.11231 0.93505 0.44273 0.0
H211 H 0.03753 0.91254 0.33859 0.0
H212 H 0.93936 0.04876 0.65927 0.0
H213 H 0.8644 0.02298 0.55541 0.0
Cd214 Cd 0.46374 0.9566 0.03315 0.0
Cd215 Cd 0.52069 0.01433 0.96383 0.0
C216 C 0.53907 0.94536 0.06147 0.0
N217 N 0.51029 0.93198 0.03711 0.0
C218 C 0.53355 0.88624 0.01641 0.0
C219 C 0.56358 0.89982 0.04092 0.0
C220 C 0.56627 0.92979 0.06343 0.0
C221 C 0.50709 0.90298 0.01474 0.0
H222 H 0.54107 0.96782 0.08001 0.0
H223 H 0.48393 0.89284 0.99566 0.0
C224 C 0.47482 0.9521 0.93499 0.0
C225 C 0.44407 0.01852 0.93131 0.0
C226 C 0.41489 0.03103 0.92827 0.0
C227 C 0.41315 0.05869 0.95344 0.0
C228 C 0.44069 0.07268 0.98207 0.0
C229 C 0.46924 0.0589 0.98465 0.0
N230 N 0.47043 0.03242 0.95932 0.0
H231 H 0.44578 -0.00158 0.91027 0.0
H232 H 0.49074 0.06962 0.00636 0.0
C233 C 0.55858 0.95552 0.97207 0.0
N234 N 0.5645 -0.01342 0.97066 0.0
C235 C 0.62017 -0.01684 0.96426 0.0
C236 C 0.61404 0.95055 0.96318 0.0
C237 C 0.58314 0.93704 0.96867 0.0
C238 C 0.59482 0.00084 0.968 0.0
H239 H 0.53434 0.94468 0.9737 0.0
H240 H 0.59884 0.02557 0.96658 0.0
C241 C 0.5135 0.01651 0.06234 0.0
C242 C 0.42471 0.90455 0.04962 0.0
N243 N 0.42093 -0.01423 0.02349 0.0
C244 C 0.42609 0.01732 0.03677 0.0
C245 C 0.39948 0.03368 0.03724 0.0
C246 C 0.36721 0.01744 0.02377 0.0
C247 C 0.36274 -0.01483 0.00843 0.0
C248 C 0.39003 0.96965 0.00923 0.0
C249 C 0.55515 0.06891 0.94708 0.0
O250 O 0.47794 0.96293 0.97073 0.0
O251 O 0.49209 0.96734 0.91577 0.0
O252 O 0.50811 0.00692 0.0262 0.0
O253 O 0.49645 0.00142 0.08192 0.0
O254 O 0.42737 0.90635 0.01506 0.0
O255 O 0.4403 0.92706 0.07613 0.0
O256 O 0.55482 0.06593 0.98187 0.0
O257 O 0.53926 0.04652 0.92063 0.0
H258 H 0.45063 0.02965 0.04888 0.0
H259 H 0.38633 0.94443 0.00032 0.0
H260 H 0.53066 0.86303 0.99882 0.0
H261 H 0.58885 0.9406 0.08339 0.0
H262 H 0.39452 0.02015 0.90502 0.0
H263 H 0.44024 0.09416 0.00186 0.0
H264 H 0.64348 -0.00545 0.95962 0.0
H265 H 0.57744 0.91207 0.96835 0.0
H266 H 0.40414 0.05842 0.05021 0.0
H267 H 0.33831 0.97172 0.99781 0.0
Cd268 Cd 0.97153 0.4566 0.05644 0.0
Cd269 Cd 0.02354 0.49868 0.94404 0.0
C270 C 0.03143 0.44253 0.11923 0.0
N271 N 0.01232 0.42983 0.08407 0.0
C272 C 0.03594 0.38249 0.08306 0.0
C273 C 0.05573 0.39475 0.11966 0.0
C274 C 0.05353 0.42542 0.1375 0.0
C275 C 0.01432 0.40048 0.06577 0.0
H276 H 0.02895 0.4657 0.13354 0.0
H277 H -0.00143 0.39078 0.03804 0.0
C278 C 0.96139 0.44603 0.95154 0.0
C279 C 0.97426 0.52271 0.87956 0.0
C280 C 0.95234 0.54065 0.86275 0.0
C281 C 0.94103 0.56446 0.88624 0.0
C282 C 0.95205 0.56924 0.92651 0.0
C283 C 0.97408 0.55078 0.94209 0.0
N284 N 0.98479 0.52817 0.91851 0.0
H285 H 0.98319 0.50455 0.8615 0.0
H286 H 0.98298 0.55474 0.97296 0.0
C287 C 0.02632 0.43582 0.88147 0.0
N288 N 0.0436 0.45461 0.91466 0.0
C289 C 0.08837 0.42532 0.91303 0.0
C290 C 0.07108 0.40523 0.87881 0.0
C291 C 0.03945 0.41071 0.86329 0.0
C292 C 0.07406 0.44979 0.93059 0.0
H293 H 0.00244 0.44047 0.86875 0.0
H294 H 0.08756 0.46544 0.95657 0.0
C295 C 0.03201 0.51081 0.04866 0.0
C296 C 0.92073 0.40996 0.06412 0.0
N297 N 0.94652 0.4984 0.08325 0.0
C298 C 0.96194 0.51884 0.11608 0.0
C299 C 0.94637 0.54302 0.13215 0.0
C300 C 0.91435 0.54606 0.11465 0.0
C301 C 0.89905 0.52434 0.08087 0.0
C302 C 0.91565 0.50073 0.0656 0.0
C303 C 0.07908 0.53973 0.93521 0.0
O304 O 0.97279 0.45597 0.98728 0.0
O305 O 0.97493 0.45819 0.92681 0.0
O306 O 0.02155 0.49966 0.013 0.0
O307 O 0.01845 0.49888 0.07354 0.0
O308 O 0.92273 0.41686 0.03116 0.0
O309 O 0.94196 0.42533 0.0929 0.0
O310 O 0.07641 0.53344 0.9683 0.0
O311 O 0.05603 0.52679 0.90701 0.0
H312 H 0.98633 0.51633 0.12995 0.0
H313 H 0.90374 0.48395 0.03981 0.0
H314 H 0.03706 0.35916 0.06795 0.0
H315 H 0.068 0.43573 0.16582 0.0
H316 H 0.94425 0.53585 0.83167 0.0
H317 H 0.94435 0.58754 0.94574 0.0
H318 H 0.11308 0.42272 0.92577 0.0
H319 H 0.02486 0.39581 0.83734 0.0
H320 H 0.95944 0.55928 0.15788 0.0
H321 H 0.87422 0.52516 0.06664 0.0
Cd322 Cd 0.46641 0.45753 0.06006 0.0
Cd323 Cd 0.51192 0.5052 0.94174 0.0
C324 C 0.53561 0.45004 0.11336 0.0
N325 N 0.51192 0.4344 0.08301 0.0
C326 C 0.53558 0.38722 0.08391 0.0
C327 C 0.56005 0.4026 0.11566 0.0
C328 C 0.56025 0.43461 0.12991 0.0
C329 C 0.5117 0.40367 0.06791 0.0
H330 H 0.53477 0.47418 0.12572 0.0
H331 H 0.49225 0.39166 0.04422 0.0
C332 C 0.45778 0.44252 0.95308 0.0
C333 C 0.44149 0.513 0.88879 0.0
C334 C 0.41677 0.52899 0.87341 0.0
C335 C 0.41866 0.56155 0.88653 0.0
C336 C 0.44543 0.57692 0.91568 0.0
C337 C 0.4694 0.56001 0.93037 0.0
N338 N 0.46722 0.52872 0.91665 0.0
H339 H 0.44037 0.48817 0.87803 0.0
H340 H 0.49027 0.57203 0.95226 0.0
C341 C 0.52701 0.44494 0.88442 0.0
N342 N 0.54026 0.46474 0.91849 0.0
C343 C 0.58982 0.44188 0.92235 0.0
C344 C 0.57703 0.42138 0.88683 0.0
C345 C 0.54488 0.42287 0.86822 0.0
C346 C 0.57095 0.46344 0.93768 0.0
H347 H 0.50277 0.44673 0.86934 0.0
H348 H 0.58117 0.47982 0.96438 0.0
C349 C 0.52232 0.51495 0.04532 0.0
C350 C 0.42476 0.41378 0.0919 0.0
N351 N 0.43914 0.49919 0.08153 0.0
C352 C 0.45278 0.51975 0.11488 0.0
C353 C 0.4354 0.5427 0.13008 0.0
C354 C 0.40341 0.54435 0.11112 0.0
C355 C 0.39028 0.52312 0.07627 0.0
C356 C 0.40863 0.50064 0.06198 0.0
C357 C 0.55947 0.54964 0.91933 0.0
O358 O 0.46515 0.45357 0.98917 0.0
O359 O 0.47058 0.457 0.92933 0.0
O360 O 0.51032 0.50332 0.01021 0.0
O361 O 0.51121 0.50306 0.07194 0.0
O362 O 0.41956 0.41381 0.05562 0.0
O363 O 0.44865 0.43372 0.11234 0.0
O364 O 0.55481 0.55346 0.95419 0.0
O365 O 0.5426 0.52575 0.89604 0.0
H366 H 0.47691 0.51788 0.13018 0.0
H367 H 0.39814 0.48369 0.03583 0.0
H368 H 0.53463 0.36259 0.07199 0.0
H369 H 0.57837 0.4472 0.15468 0.0
H370 H 0.39651 0.51598 0.85132 0.0
H371 H 0.44848 0.60201 0.92629 0.0
H372 H 0.61459 0.44206 0.93756 0.0
H373 H 0.53368 0.40736 0.84113 0.0
H374 H 0.44681 0.55875 0.1567 0.0
H375 H 0.36561 0.52307 0.06086 0.0
Cd376 Cd 0.96201 0.46371 0.54007 0.0
Cd377 Cd 0.00652 0.52468 0.46416 0.0
C378 C 0.0322 0.46259 0.59237 0.0
N379 N 0.01478 0.45166 0.55594 0.0
C380 C 0.05764 0.42349 0.53961 0.0
C381 C 0.07626 0.43464 0.57706 0.0
C382 C 0.06341 0.45506 0.60321 0.0
C383 C 0.02689 0.43262 0.52951 0.0
H384 H 0.0217 0.4766 0.61355 0.0
H385 H 0.01233 0.42393 0.5009 0.0
C386 C 0.96284 0.46085 0.44011 0.0
C387 C 0.93302 0.52894 0.42317 0.0
C388 C 0.9011 0.53583 0.41922 0.0
C389 C 0.8914 0.55373 0.45045 0.0
C390 C 0.91415 0.56427 0.48517 0.0
C391 C 0.94556 0.55589 0.48828 0.0
N392 N 0.95422 0.53834 0.45757 0.0
H393 H 0.9409 0.51643 0.39854 0.0
H394 H 0.96322 0.56379 0.51498 0.0
C395 C 0.04877 0.47834 0.42581 0.0
N396 N 0.04684 0.49281 0.46183 0.0
C397 C 0.09267 0.4707 0.48967 0.0
C398 C 0.09402 0.4544 0.45293 0.0
C399 C 0.0719 0.4585 0.42074 0.0
C400 C 0.06818 0.48949 0.49362 0.0
H401 H 0.03226 0.48224 0.40093 0.0
H402 H 0.06615 0.50118 0.52197 0.0
C403 C 0.00391 0.52886 0.56476 0.0
C404 C 0.92722 0.4085 0.55497 0.0
N405 N 0.91673 0.48976 0.53084 0.0
C406 C 0.91437 0.51471 0.55787 0.0
C407 C 0.8862 0.52878 0.55465 0.0
C408 C 0.85987 0.51675 0.52377 0.0
C409 C 0.86263 0.4909 0.49626 0.0
C410 C 0.89172 0.47779 0.50025 0.0
C411 C 0.04095 0.57909 0.44647 0.0
O412 O 0.97114 0.4701 0.47625 0.0
O413 O 0.97499 0.47789 0.41867 0.0
O414 O -0.00119 0.51842 0.52879 0.0
O415 O 0.98953 0.51247 0.58529 0.0
O416 O 0.93278 0.41007 0.52131 0.0
O417 O 0.93839 0.43252 0.58137 0.0
O418 O 0.04095 0.57617 0.48129 0.0
O419 O 0.0243 0.55694 0.42026 0.0
H420 H 0.93376 0.52321 0.58273 0.0
H421 H 0.89397 0.45744 0.4797 0.0
H422 H 0.06623 0.40721 0.51867 0.0
H423 H 0.07688 0.46447 0.63225 0.0
H424 H 0.88462 0.52841 0.39148 0.0
H425 H 0.9078 0.57892 0.50948 0.0
H426 H 0.10977 0.46838 0.51499 0.0
H427 H 0.07284 0.44677 0.39187 0.0
H428 H 0.8845 0.54824 0.57693 0.0
H429 H 0.84251 0.48081 0.47241 0.0
Cd430 Cd 0.47138 0.95319 0.55639 0.0
Cd431 Cd 0.51945 0.00351 0.45032 0.0
C432 C 0.53221 0.93994 0.61859 0.0
N433 N 0.51297 0.92705 0.58355 0.0
C434 C 0.53675 0.87982 0.58273 0.0
C435 C 0.55663 0.89227 0.61922 0.0
C436 C 0.55448 0.92298 0.63687 0.0
C437 C 0.51501 0.89767 0.56538 0.0
H438 H 0.52963 0.96307 0.63289 0.0
H439 H 0.49912 0.88779 0.5378 0.0
C440 C 0.46287 0.94465 0.45131 0.0
C441 C 0.471 0.0307 0.38814 0.0
C442 C 0.44963 0.04977 0.37276 0.0
C443 C 0.43669 0.07132 0.3976 0.0
C444 C 0.44528 0.07246 0.4377 0.0
C445 C 0.46685 0.05301 0.45186 0.0
N446 N 0.47942 0.03286 0.42704 0.0
H447 H 0.48145 0.01456 0.36906 0.0
H448 H 0.47416 0.05447 0.48269 0.0
C449 C 0.54726 0.96158 0.38347 0.0
N450 N 0.54251 0.96173 0.42032 0.0
C451 C 0.56913 0.91637 0.4234 0.0
C452 C 0.57547 0.91641 0.38589 0.0
C453 C 0.56397 0.93921 0.36576 0.0
C454 C 0.55273 0.93953 0.44028 0.0
H455 H 0.53865 0.97926 0.36802 0.0
H456 H 0.54876 0.94022 0.46959 0.0
C457 C 0.52739 0.01214 0.5538 0.0
C458 C 0.42103 0.90542 0.56251 0.0
N459 N 0.44357 -0.00713 0.58251 0.0
C460 C 0.45669 0.01231 0.61692 0.0
C461 C 0.43947 0.03537 0.63228 0.0
C462 C 0.40816 0.03798 0.61248 0.0
C463 C 0.39508 0.0173 0.57729 0.0
C464 C 0.41335 -0.00507 0.56269 0.0
C465 C 0.5738 0.04623 0.4431 0.0
O466 O 0.47321 0.95426 0.48735 0.0
O467 O 0.47554 0.95897 0.42758 0.0
O468 O 0.51692 0.00129 0.51813 0.0
O469 O 0.51541 -0.00166 0.57832 0.0
O470 O 0.42311 0.91316 0.53 0.0
O471 O 0.44211 0.92036 0.59168 0.0
O472 O 0.57156 0.03915 0.47592 0.0
O473 O 0.55074 0.03374 0.4148 0.0
H474 H 0.48045 0.00985 0.63262 0.0
H475 H 0.40337 0.97901 0.53558 0.0
H476 H 0.53784 0.85641 0.56781 0.0
H477 H 0.56904 0.93341 0.66511 0.0
H478 H 0.44342 0.04773 0.34169 0.0
H479 H 0.43623 0.08891 0.458 0.0
H480 H 0.57774 0.89927 0.43996 0.0
H481 H 0.568 0.93982 0.33665 0.0
H482 H 0.45028 0.05064 0.65968 0.0
H483 H 0.37113 0.01867 0.56099 0.0
C484 C 0.16592 0.18619 0.33924 0.0
C485 C 0.18455 0.17347 0.31285 0.0
C486 C 0.14636 0.1668 0.35775 0.0
C487 C 0.14543 0.13371 0.35017 0.0
C488 C 0.16449 0.12075 0.32395 0.0
C489 C 0.18359 0.14066 0.30557 0.0
C490 C 0.12629 0.18175 0.3851 0.0
C491 C 0.16456 0.08572 0.31511 0.0
C492 C 0.11441 0.08419 0.42082 0.0
C493 C 0.08207 0.07158 0.40164 0.0
C494 C 0.13526 0.10444 0.40459 0.0
C495 C 0.12354 0.11257 0.36838 0.0
C496 C 0.09078 0.10019 0.34922 0.0
C497 C 0.07062 0.07989 0.36592 0.0
C498 C 0.16999 0.11687 0.42603 0.0
C499 C 0.07695 0.10831 0.31086 0.0
H500 H 0.16632 0.21142 0.34525 0.0
H501 H 0.19799 0.13041 0.28558 0.0
H502 H 0.09969 0.17278 0.37418 0.0
H503 H 0.13278 0.17525 0.41388 0.0
H504 H 0.1302 0.20783 0.38867 0.0
H505 H 0.18162 0.07937 0.29529 0.0
H506 H 0.17189 0.07693 0.34226 0.0
H507 H 0.13936 0.07337 0.30163 0.0
H508 H 0.12361 0.07795 0.44834 0.0
H509 H 0.04569 0.07048 0.35079 0.0
H510 H 0.17417 0.14297 0.43159 0.0
H511 H 0.18782 0.10904 0.40804 0.0
H512 H 0.1753 0.10879 0.45407 0.0
H513 H 0.07868 0.13421 0.31356 0.0
H514 H 0.05079 0.09738 0.30003 0.0
H515 H 0.09166 0.10027 0.289 0.0
C516 C 0.84305 0.19294 0.29404 0.0
C517 C 0.80855 0.18881 0.287 0.0
C518 C 0.86033 0.17314 0.31432 0.0
C519 C 0.84268 0.14847 0.3278 0.0
C520 C 0.80778 0.14472 0.32164 0.0
C521 C 0.79112 0.16493 0.30125 0.0
C522 C 0.89752 0.17824 0.32058 0.0
C523 C 0.78798 0.11884 0.3356 0.0
C524 C 0.88841 0.07953 0.34095 0.0
C525 C 0.90081 0.08581 0.38091 0.0
C526 C 0.86847 0.09905 0.3236 0.0
C527 C 0.86088 0.12581 0.34659 0.0
C528 C 0.87251 0.13187 0.38705 0.0
C529 C 0.89218 0.11178 0.40371 0.0
C530 C 0.85643 0.09158 0.28039 0.0
C531 C 0.865 0.16013 0.41261 0.0
H532 H 0.8566 0.2115 0.28326 0.0
H533 H 0.76442 0.16155 0.29568 0.0
H534 H 0.90806 0.18082 0.35176 0.0
H535 H 0.90593 0.15744 0.3052 0.0
H536 H 0.9076 0.19944 0.31008 0.0
H537 H 0.76129 0.12062 0.33121 0.0
H538 H 0.79104 0.09563 0.31982 0.0
H539 H 0.7971 0.11953 0.36677 0.0
H540 H 0.8952 0.05992 0.32283 0.0
H541 H 0.90107 0.11662 0.43467 0.0
H542 H 0.86788 0.1104 0.26697 0.0
H543 H 0.82934 0.09084 0.27354 0.0
H544 H 0.86242 0.06872 0.26698 0.0
H545 H 0.87665 0.18201 0.4049 0.0
H546 H 0.87414 0.16053 0.44376 0.0
H547 H 0.83805 0.16038 0.40798 0.0
C548 C 0.81248 0.82112 0.33301 0.0
C549 C 0.81616 0.78948 0.3238 0.0
C550 C 0.83698 0.84278 0.35884 0.0
C551 C 0.86605 0.83255 0.37537 0.0
C552 C 0.86922 0.80031 0.36774 0.0
C553 C 0.844 0.77898 0.34207 0.0
C554 C 0.83239 0.87689 0.36693 0.0
C555 C 0.89984 0.78868 0.3852 0.0
C556 C 0.93822 0.89783 0.39362 0.0
C557 C 0.94004 0.91038 0.43274 0.0
C558 C 0.91566 0.87101 0.37526 0.0
C559 C 0.89433 0.85645 0.39655 0.0
C560 C 0.8975 0.86772 0.43663 0.0
C561 C 0.9204 0.89468 0.45424 0.0
C562 C 0.91327 0.8595 0.33249 0.0
C563 C 0.87541 0.85274 0.46047 0.0
H564 H 0.79053 0.8291 0.31962 0.0
H565 H 0.84667 0.7544 0.33515 0.0
H566 H 0.83723 0.8859 0.39853 0.0
H567 H 0.85031 0.89128 0.35437 0.0
H568 H 0.80713 0.88038 0.35455 0.0
H569 H 0.89678 0.76256 0.38024 0.0
H570 H 0.92084 0.79748 0.37221 0.0
H571 H 0.90639 0.79793 0.41675 0.0
H572 H 0.95378 0.90947 0.37687 0.0
H573 H 0.9221 0.90413 0.48444 0.0
H574 H 0.88982 0.86427 0.31643 0.0
H575 H 0.91304 0.8337 0.32634 0.0
H576 H 0.93399 0.87121 0.32122 0.0
H577 H 0.85171 0.86203 0.45685 0.0
H578 H 0.88668 0.8582 0.49169 0.0
H579 H 0.86984 0.82681 0.45102 0.0
C580 C 0.16737 0.78772 0.2803 0.0
C581 C 0.19902 0.80101 0.27703 0.0
C582 C 0.14729 0.80571 0.29978 0.0
C583 C 0.15928 0.8377 0.3166 0.0
C584 C 0.19165 0.8509 0.31428 0.0
C585 C 0.21102 0.83246 0.29428 0.0
C586 C 0.11294 0.79071 0.3014 0.0
C587 C 0.20566 0.88468 0.33238 0.0
C588 C 0.09895 0.89544 0.33013 0.0
C589 C 0.09783 0.89819 0.36966 0.0
C590 C 0.11823 0.87538 0.31248 0.0
C591 C 0.13747 0.85786 0.33486 0.0
C592 C 0.13647 0.86034 0.3747 0.0
C593 C 0.11655 0.88026 0.39153 0.0
C594 C 0.11833 0.87326 0.26984 0.0
C595 C 0.1568 0.84226 0.39967 0.0
H596 H 0.15796 0.76344 0.26679 0.0
H597 H 0.23561 0.8427 0.29208 0.0
H598 H 0.10926 0.79351 0.33177 0.0
H599 H 0.09458 0.80273 0.28562 0.0
H600 H 0.10789 0.76524 0.28849 0.0
H601 H 0.23194 0.89076 0.33024 0.0
H602 H 0.19129 0.90066 0.31789 0.0
H603 H 0.20359 0.88918 0.36332 0.0
H604 H 0.08525 0.90951 0.31294 0.0
H605 H 0.1156 0.8817 0.4219 0.0
H606 H 0.11175 0.84836 0.25477 0.0
H607 H 0.14342 0.88197 0.26551 0.0
H608 H 0.10079 0.88718 0.25608 0.0
H609 H 0.15029 0.81665 0.38796 0.0
H610 H 0.15318 0.84659 0.43011 0.0
H611 H 0.18334 0.84902 0.3993 0.0
C612 C 0.16736 0.81538 0.75642 0.0
C613 C 0.18592 0.79485 0.73848 0.0
C614 C 0.14782 0.83302 0.73507 0.0
C615 C 0.14683 0.8301 0.69475 0.0
C616 C 0.16593 0.80968 0.67661 0.0
C617 C 0.18489 0.79203 0.69865 0.0
C618 C 0.12762 0.85423 0.75554 0.0
C619 C 0.16571 0.80583 0.63378 0.0
C620 C 0.07034 0.84991 0.63495 0.0
C621 C 0.08093 0.88086 0.63081 0.0
C622 C 0.09166 0.83301 0.65512 0.0
C623 C 0.12456 0.84726 0.67142 0.0
C624 C 0.13566 0.87824 0.66658 0.0
C625 C 0.11368 0.89472 0.64656 0.0
C626 C 0.07869 0.80015 0.65984 0.0
C627 C 0.17065 0.89409 0.68297 0.0
H628 H 0.16781 0.81735 0.78717 0.0
H629 H 0.19788 0.77515 0.68438 0.0
H630 H 0.13368 0.87863 0.75065 0.0
H631 H 0.10102 0.84621 0.7435 0.0
H632 H 0.13184 0.85458 0.78716 0.0
H633 H 0.18403 0.79114 0.62475 0.0
H634 H 0.14087 0.79463 0.61746 0.0
H635 H 0.17111 0.82918 0.62555 0.0
H636 H 0.04497 0.83916 0.62337 0.0
H637 H 0.12215 0.9185 0.64315 0.0
H638 H 0.0799 0.7994 0.69096 0.0
H639 H 0.09424 0.7833 0.64866 0.0
H640 H 0.0528 0.79209 0.6445 0.0
H641 H 0.17537 0.8968 0.71492 0.0
H642 H 0.17588 0.91769 0.67526 0.0
H643 H 0.18819 0.87927 0.67219 0.0
C644 C 0.14032 0.17599 0.64532 0.0
C645 C 0.17076 0.16665 0.65703 0.0
C646 C 0.11386 0.15418 0.62289 0.0
C647 C 0.11848 0.12271 0.61144 0.0
C648 C 0.15001 0.11394 0.62048 0.0
C649 C 0.17575 0.13598 0.64379 0.0
C650 C 0.08051 0.16423 0.61379 0.0
C651 C 0.15603 0.08081 0.60745 0.0
C652 C 0.05068 0.05532 0.60579 0.0
C653 C 0.04049 0.04544 0.56579 0.0
C654 C 0.07495 0.08154 0.6209 0.0
C655 C 0.08971 0.09793 0.59533 0.0
C656 C 0.07839 0.0891 0.55497 0.0
C657 C 0.05353 0.06304 0.54071 0.0
C658 C 0.08567 0.09092 0.66426 0.0
C659 C 0.09352 0.1059 0.52668 0.0
H660 H 0.13662 0.19985 0.65557 0.0
H661 H 0.1996 0.12907 0.65231 0.0
H662 H 0.06942 0.15597 0.58278 0.0
H663 H 0.0637 0.15333 0.6308 0.0
H664 H 0.08193 0.1902 0.62079 0.0
H665 H 0.1827 0.07897 0.61245 0.0
H666 H 0.14348 0.06468 0.62354 0.0
H667 H 0.14556 0.07265 0.57624 0.0
H668 H 0.04025 0.04214 0.62544 0.0
H669 H 0.04459 0.05613 0.50997 0.0
H670 H 0.08555 0.11644 0.67355 0.0
H671 H 0.11126 0.08652 0.67289 0.0
H672 H 0.06952 0.07761 0.68001 0.0
H673 H 0.10115 0.13144 0.53819 0.0
H674 H 0.0762 0.1028 0.49866 0.0
H675 H 0.11585 0.09588 0.52111 0.0
C676 C 0.76811 0.13433 0.69888 0.0
C677 C 0.78066 0.16597 0.71474 0.0
C678 C 0.78693 0.1148 0.67951 0.0
C679 C 0.81938 0.12704 0.67635 0.0
C680 C 0.83186 0.15926 0.69149 0.0
C681 C 0.81227 0.17839 0.71033 0.0
C682 C 0.77231 0.08084 0.66319 0.0
C683 C 0.86631 0.17329 0.68894 0.0
C684 C 0.87841 0.06744 0.66649 0.0
C685 C 0.87928 0.06271 0.62679 0.0
C686 C 0.85968 0.08876 0.68297 0.0
C687 C 0.84076 0.10562 0.65925 0.0
C688 C 0.84149 0.10112 0.61921 0.0
C689 C 0.86082 0.07991 0.60354 0.0
C690 C 0.85978 0.09288 0.72582 0.0
C691 C 0.8215 0.11841 0.59281 0.0
H692 H 0.74352 0.12473 0.70186 0.0
H693 H 0.82209 0.20283 0.72263 0.0
H694 H 0.77444 0.07492 0.63238 0.0
H695 H 0.78622 0.06524 0.67898 0.0
H696 H 0.74594 0.07561 0.66539 0.0
H697 H 0.87156 0.19912 0.69978 0.0
H698 H 0.88449 0.16204 0.7062 0.0
H699 H 0.87004 0.16859 0.65861 0.0
H700 H 0.89189 0.05397 0.68479 0.0
H701 H 0.86156 0.07695 0.57299 0.0
H702 H 0.83464 0.08511 0.73073 0.0
H703 H 0.86684 0.11812 0.73938 0.0
H704 H 0.87705 0.07926 0.74063 0.0
H705 H 0.79492 0.11228 0.59341 0.0
H706 H 0.82506 0.1127 0.56245 0.0
H707 H 0.82836 0.14419 0.60307 0.0
C708 C 0.82317 0.76761 0.66859 0.0
C709 C 0.8049 0.78061 0.69518 0.0
C710 C 0.84188 0.78679 0.64895 0.0
C711 C 0.84207 0.81982 0.6555 0.0
C712 C 0.82324 0.83295 0.68183 0.0
C713 C 0.80517 0.81333 0.7014 0.0
C714 C 0.86182 0.77175 0.62154 0.0
C715 C 0.82228 0.86787 0.68952 0.0
C716 C 0.91404 0.87608 0.6379 0.0
C717 C 0.90135 0.88385 0.60226 0.0
C718 C 0.89539 0.85476 0.65488 0.0
C719 C 0.86289 0.84091 0.63617 0.0
C720 C 0.85003 0.84835 0.59992 0.0
C721 C 0.86943 0.86953 0.58332 0.0
C722 C 0.91041 0.84738 0.69323 0.0
C723 C 0.81545 0.83445 0.57905 0.0
H724 H 0.8232 0.74243 0.66341 0.0
H725 H 0.79091 0.82376 0.72144 0.0
H726 H 0.8546 0.77746 0.59245 0.0
H727 H 0.88836 0.78139 0.63176 0.0
H728 H 0.8586 0.74575 0.61891 0.0
H729 H 0.80537 0.87429 0.70951 0.0
H730 H 0.84735 0.8809 0.7023 0.0
H731 H 0.81422 0.87586 0.66198 0.0
H732 H 0.93872 0.88676 0.65274 0.0
H733 H 0.85934 0.87532 0.55582 0.0
H734 H 0.90916 0.82157 0.69112 0.0
H735 H 0.89618 0.85556 0.71555 0.0
H736 H 0.93654 0.85873 0.70309 0.0
H737 H 0.81221 0.80839 0.57464 0.0
H738 H 0.80945 0.84157 0.55051 0.0
H739 H 0.79749 0.84216 0.59693 0.0
C740 C 0.24129 0.11761 0.11691 0.0
C741 C 0.26204 0.12886 0.15288 0.0
C742 C 0.2512 0.09673 0.08834 0.0
C743 C 0.28237 0.08704 0.09642 0.0
C744 C 0.30256 0.09724 0.13351 0.0
C745 C 0.29214 0.11812 0.16123 0.0
C746 C 0.2291 0.08636 0.04916 0.0
C747 C 0.33582 0.0871 0.14358 0.0
C748 C 0.31406 0.01775 0.04742 0.0
C749 C 0.33882 0.03316 0.03157 0.0
C750 C 0.29223 0.03456 0.06485 0.0
C751 C 0.2953 0.06741 0.06628 0.0
C752 C 0.31721 0.08221 0.04582 0.0
C753 C 0.33907 0.06496 0.02914 0.0
C754 C 0.26875 0.01782 0.08578 0.0
C755 C 0.32041 0.11702 0.0454 0.0
H756 H 0.21804 0.12616 0.1105 0.0
H757 H 0.30803 0.12676 0.18922 0.0
H758 H 0.23897 0.09951 0.02826 0.0
H759 H 0.2284 0.06094 0.0382 0.0
H760 H 0.20353 0.0909 0.04986 0.0
H761 H 0.34766 0.09607 0.1743 0.0
H762 H 0.33326 0.06105 0.13805 0.0
H763 H 0.35251 0.09591 0.12505 0.0
H764 H 0.31362 -0.00681 0.04958 0.0
H765 H 0.35788 0.077 0.01666 0.0
H766 H 0.2449 0.02683 0.08267 0.0
H767 H 0.27962 0.02216 0.11706 0.0
H768 H 0.26404 -0.00801 0.07497 0.0
H769 H 0.29588 0.12469 0.04171 0.0
H770 H 0.33297 0.12335 0.02188 0.0
H771 H 0.33511 0.13025 0.07342 0.0
C772 C 0.80769 0.26415 0.1083 0.0
C773 C 0.7826 0.27586 0.12516 0.0
C774 C 0.82705 0.283 0.08941 0.0
C775 C 0.8209 0.31397 0.08758 0.0
C776 C 0.7928 0.32409 0.09997 0.0
C777 C 0.77402 0.30492 0.11896 0.0
C778 C 0.85594 0.271 0.07473 0.0
C779 C 0.78453 0.35637 0.09659 0.0
C780 C 0.89473 0.37803 0.10606 0.0
C781 C 0.89524 0.38494 0.06916 0.0
C782 C 0.87092 0.35459 0.11202 0.0
C783 C 0.84695 0.33754 0.08025 0.0
C784 C 0.84757 0.34396 0.04272 0.0
C785 C 0.87169 0.36778 0.03763 0.0
C786 C 0.87126 0.34837 0.15256 0.0
C787 C 0.82258 0.32655 0.00791 0.0
H788 H 0.81399 0.24143 0.11265 0.0
H789 H 0.75407 0.31365 0.13132 0.0
H790 H 0.85719 0.27673 0.04574 0.0
H791 H 0.87915 0.28279 0.09456 0.0
H792 H 0.85447 0.24516 0.0729 0.0
H793 H 0.75948 0.35888 0.10235 0.0
H794 H 0.80271 0.37442 0.11772 0.0
H795 H 0.78603 0.3612 0.06727 0.0
H796 H 0.91293 0.39107 0.13054 0.0
H797 H 0.87197 0.37301 0.00901 0.0
H798 H 0.87299 0.32327 0.15325 0.0
H799 H 0.84792 0.35315 0.1618 0.0
H800 H 0.89215 0.36316 0.17387 0.0
H801 H 0.83487 0.32068 0.98296 0.0
H802 H 0.80448 0.3421 -0.00013 0.0
H803 H 0.80898 0.30445 0.01289 0.0
C804 C 0.70017 0.8398 0.16125 0.0
C805 C 0.71374 0.81405 0.14566 0.0
C806 C 0.67975 0.8547 0.1373 0.0
C807 C 0.67299 0.84356 0.09684 0.0
C808 C 0.68913 0.81943 0.08074 0.0
C809 C 0.70933 0.8048 0.10548 0.0
C810 C 0.66316 0.88052 0.15567 0.0
C811 C 0.68311 0.80709 0.03783 0.0
C812 C 0.58618 0.85245 0.0563 0.0
C813 C 0.59131 0.88206 0.04598 0.0
C814 C 0.61292 0.83826 0.07002 0.0
C815 C 0.6454 0.85402 0.07293 0.0
C816 C 0.65061 0.88223 0.05843 0.0
C817 C 0.62339 0.89624 0.04559 0.0
C818 C 0.60638 0.8078 0.08456 0.0
C819 C 0.68488 0.89871 0.0591 0.0
H820 H 0.70381 0.84708 0.19236 0.0
H821 H 0.72003 0.78495 0.09337 0.0
H822 H 0.66601 0.90119 0.1413 0.0
H823 H 0.63636 0.87194 0.15199 0.0
H824 H 0.67331 0.88827 0.18705 0.0
H825 H 0.70551 0.79907 0.02907 0.0
H826 H 0.66309 0.78651 0.03042 0.0
H827 H 0.67562 0.82503 0.02085 0.0
H828 H 0.56133 0.84151 0.05648 0.0
H829 H 0.62724 0.91896 0.03694 0.0
H830 H 0.61404 0.8122 0.11649 0.0
H831 H 0.62106 0.79053 0.07234 0.0
H832 H 0.57991 0.79718 0.07697 0.0
H833 H 0.69614 0.91071 0.08905 0.0
H834 H 0.68463 0.9166 0.04015 0.0
H835 H 0.70076 0.88148 0.04973 0.0
C836 C 0.1348 0.6679 0.16635 0.0
C837 C 0.16813 0.67279 0.16375 0.0
C838 C 0.11305 0.64283 0.14193 0.0
C839 C 0.12532 0.62188 0.11519 0.0
C840 C 0.15875 0.62751 0.1115 0.0
C841 C 0.17973 0.65323 0.1356 0.0
C842 C 0.07745 0.63759 0.1465 0.0
C843 C 0.17311 0.60506 0.08457 0.0
C844 C 0.08024 0.5388 0.09701 0.0
C845 C 0.05876 0.53749 0.06209 0.0
C846 C 0.10304 0.5658 0.11376 0.0
C847 C 0.10419 0.59207 0.09504 0.0
C848 C 0.08357 0.59035 0.05881 0.0
C849 C 0.06068 0.56303 0.04289 0.0
C850 C 0.12475 0.5667 0.15239 0.0
C851 C 0.08451 0.61778 0.03783 0.0
H852 H 0.12594 0.68322 0.18811 0.0
H853 H 0.2057 0.65679 0.13404 0.0
H854 H 0.06086 0.63383 0.11794 0.0
H855 H 0.07254 0.61607 0.15891 0.0
H856 H 0.07117 0.65771 0.16574 0.0
H857 H 0.17873 0.58488 0.0985 0.0
H858 H 0.15541 0.59557 0.05718 0.0
H859 H 0.19641 0.61653 0.07802 0.0
H860 H 0.07855 0.51893 0.1118 0.0
H861 H 0.04337 0.5622 0.01637 0.0
H862 H 0.11819 0.58435 0.17473 0.0
H863 H 0.15098 0.57398 0.15105 0.0
H864 H 0.12222 0.54354 0.16175 0.0
H865 H 0.07221 0.63614 0.05236 0.0
H866 H 0.07175 0.61066 0.00717 0.0
H867 H 0.11031 0.62849 0.0387 0.0
C868 C 0.34065 0.79725 0.84912 0.0
C869 C 0.32099 0.80299 0.81596 0.0
C870 C 0.3681 0.81929 0.86907 0.0
C871 C 0.37544 0.84785 0.85586 0.0
C872 C 0.35559 0.8537 0.8224 0.0
C873 C 0.32881 0.83103 0.80262 0.0
C874 C 0.38923 0.81206 0.90416 0.0
C875 C 0.36194 0.88438 0.80823 0.0
C876 C 0.42005 0.92019 0.92719 0.0
C877 C 0.45086 0.92397 0.91643 0.0
C878 C 0.39544 0.8951 0.90824 0.0
C879 C 0.40232 0.87278 0.87841 0.0
C880 C 0.43394 0.87584 0.86833 0.0
C881 C 0.4578 0.90185 0.88711 0.0
C882 C 0.3619 0.893 0.91951 0.0
C883 C 0.44228 0.85209 0.83718 0.0
H884 H 0.3349 0.77534 0.8591 0.0
H885 H 0.31351 0.83557 0.77707 0.0
H886 H 0.41516 0.81326 0.90002 0.0
H887 H 0.38905 0.82995 0.92993 0.0
H888 H 0.38069 0.78841 0.91006 0.0
H889 H 0.34454 0.88494 0.78129 0.0
H890 H 0.35957 0.90421 0.83083 0.0
H891 H 0.38745 0.88837 0.80272 0.0
H892 H 0.41478 0.93778 0.94932 0.0
H893 H 0.48181 0.90487 0.87898 0.0
H894 H 0.35831 0.87316 0.93514 0.0
H895 H 0.34203 0.8884 0.89354 0.0
H896 H 0.35898 0.91487 0.93845 0.0
H897 H 0.4356 0.82789 0.84246 0.0
H898 H 0.46887 0.85607 0.83562 0.0
H899 H 0.42774 0.85346 0.80871 0.0
C900 C 0.14171 0.25323 0.78292 0.0
C901 C 0.17275 0.26301 0.77474 0.0
C902 C 0.12252 0.27537 0.79663 0.0
C903 C 0.13502 0.30798 0.80294 0.0
C904 C 0.16584 0.31789 0.79327 0.0
C905 C 0.18415 0.2953 0.77894 0.0
C906 C 0.08936 0.26387 0.80551 0.0
C907 C 0.1803 0.35232 0.79981 0.0
C908 C 0.08034 0.37088 0.81862 0.0
C909 C 0.08625 0.37926 0.85917 0.0
C910 C 0.09518 0.34709 0.79991 0.0
C911 C 0.11711 0.33168 0.82213 0.0
C912 C 0.12306 0.33982 0.86298 0.0
C913 C 0.10731 0.36314 0.88093 0.0
C914 C 0.08781 0.33884 0.75631 0.0
C915 C 0.14667 0.32433 0.88779 0.0
H916 H 0.13273 0.22829 0.77941 0.0
H917 H 0.20811 0.303 0.7725 0.0
H918 H 0.09029 0.26923 0.83715 0.0
H919 H 0.07027 0.27628 0.79176 0.0
H920 H 0.08171 0.23812 0.79534 0.0
H921 H 0.20391 0.35616 0.7893 0.0
H922 H 0.16271 0.36555 0.78493 0.0
H923 H 0.18482 0.36241 0.83115 0.0
H924 H 0.06462 0.38335 0.80127 0.0
H925 H 0.1116 0.36874 0.9122 0.0
H926 H 0.08069 0.31301 0.74667 0.0
H927 H 0.11022 0.34601 0.7448 0.0
H928 H 0.06771 0.35062 0.74343 0.0
H929 H 0.13849 0.29852 0.88205 0.0
H930 H 0.14871 0.33337 0.91915 0.0
H931 H 0.17154 0.32846 0.88039 0.0
C932 C 0.65457 0.2088 0.87305 0.0
C933 C 0.68368 0.19781 0.86644 0.0
C934 C 0.6341 0.19363 0.89426 0.0
C935 C 0.64291 0.16671 0.90836 0.0
C936 C 0.67395 0.15768 0.90511 0.0
C937 C 0.69411 0.17352 0.88425 0.0
C938 C 0.60172 0.20459 0.89841 0.0
C939 C 0.68434 0.12921 0.91997 0.0
C940 C 0.59343 0.12025 0.96676 0.0
C941 C 0.57488 0.09612 0.93754 0.0
C942 C 0.61458 0.14462 0.95776 0.0
C943 C 0.61748 0.14434 0.91876 0.0
C944 C 0.59777 0.12069 0.88911 0.0
C945 C 0.57658 0.097 0.89889 0.0
C946 C 0.63473 0.16971 0.99009 0.0
C947 C 0.60016 0.11949 0.84709 0.0
H948 H 0.64682 0.22801 0.85977 0.0
H949 H 0.7169 0.16533 0.87953 0.0
H950 H 0.58153 0.18893 0.87706 0.0
H951 H 0.59635 0.20341 0.92764 0.0
H952 H 0.60161 0.22906 0.89326 0.0
H953 H 0.7108 0.12794 0.91989 0.0
H954 H 0.67986 0.12946 0.94978 0.0
H955 H 0.66942 0.10755 0.9014 0.0
H956 H 0.59205 0.11972 0.99671 0.0
H957 H 0.56215 0.07852 0.87617 0.0
H958 H 0.6369 0.19312 0.98145 0.0
H959 H 0.65998 0.16403 0.99724 0.0
H960 H 0.62389 0.17117 0.01664 0.0
H961 H 0.59558 0.14205 0.83826 0.0
H962 H 0.58229 0.10011 0.82756 0.0
H963 H 0.62539 0.11607 0.84295 0.0
C964 C 0.80792 0.66128 0.78613 0.0
C965 C 0.81756 0.69327 0.8023 0.0
C966 C 0.82761 0.63881 0.79632 0.0
C967 C 0.85747 0.64862 0.82363 0.0
C968 C 0.86763 0.68106 0.8392 0.0
C969 C 0.8475 0.70292 0.82847 0.0
C970 C 0.81584 0.6045 0.77902 0.0
C971 C 0.89928 0.69264 0.86823 0.0
C972 C 0.89222 0.59311 0.88629 0.0
C973 C 0.91845 0.58461 0.86887 0.0
C974 C 0.87159 0.61309 0.87114 0.0
C975 C 0.87731 0.62506 0.83775 0.0
C976 C 0.90327 0.61602 0.8195 0.0
C977 C 0.92349 0.59594 0.83523 0.0
C978 C 0.84407 0.62194 0.89139 0.0
C979 C 0.91031 0.62831 0.78399 0.0
H980 H 0.78426 0.65361 0.76703 0.0
H981 H 0.8549 0.72764 0.84124 0.0
H982 H 0.83551 0.59402 0.76647 0.0
H983 H 0.81012 0.59146 0.80199 0.0
H984 H 0.79344 0.60097 0.75612 0.0
H985 H 0.90463 0.71874 0.87586 0.0
H986 H 0.89768 0.68316 0.89504 0.0
H987 H 0.92029 0.68401 0.85665 0.0
H988 H 0.88777 0.5841 0.91188 0.0
H989 H 0.94387 0.58981 0.82175 0.0
H990 H 0.82026 0.61656 0.87064 0.0
H991 H 0.84858 0.64763 0.90281 0.0
H992 H 0.84175 0.60934 0.91576 0.0
H993 H 0.88764 0.62369 0.76142 0.0
H994 H 0.92996 0.61747 0.77173 0.0
H995 H 0.91813 0.65419 0.79136 0.0
C996 C 0.16958 0.28638 0.23099 0.0
C997 C 0.18599 0.27184 0.20345 0.0
C998 C 0.14926 0.30875 0.22199 0.0
C999 C 0.14505 0.31638 0.18446 0.0
C1000 C 0.16239 0.30232 0.15708 0.0
C1001 C 0.18259 0.28033 0.16692 0.0
C1002 C 0.13166 0.32354 0.25225 0.0
C1003 C 0.15893 0.30984 0.11686 0.0
C1004 C 0.06728 0.34327 0.13776 0.0
C1005 C 0.07799 0.37538 0.13919 0.0
C1006 C 0.08836 0.32422 0.15417 0.0
C1007 C 0.12111 0.33745 0.17247 0.0
C1008 C 0.13173 0.3701 0.17538 0.0
C1009 C 0.11006 0.38866 0.15876 0.0
C1010 C 0.07588 0.2896 0.15064 0.0
C1011 C 0.16642 0.38517 0.1946 0.0
H1012 H 0.17208 0.27982 0.25924 0.0
H1013 H 0.19541 0.26935 0.14559 0.0
H1014 H 0.13609 0.34955 0.25542 0.0
H1015 H 0.1047 0.31569 0.24306 0.0
H1016 H 0.1397 0.31723 0.2809 0.0
H1017 H 0.1754 0.29815 0.09966 0.0
H1018 H 0.13309 0.30211 0.10131 0.0
H1019 H 0.16466 0.33562 0.11839 0.0
H1020 H 0.04235 0.3329 0.12351 0.0
H1021 H 0.11864 0.4134 0.15996 0.0
H1022 H 0.08062 0.28259 0.17933 0.0
H1023 H 0.08934 0.27556 0.13156 0.0
H1024 H 0.04907 0.28346 0.13848 0.0
H1025 H 0.17284 0.3787 0.22342 0.0
H1026 H 0.16981 0.41124 0.19815 0.0
H1027 H 0.18404 0.37634 0.17693 0.0
C1028 C 0.223 0.65873 0.88532 0.0
C1029 C 0.20722 0.68425 0.87796 0.0
C1030 C 0.20767 0.63499 0.90179 0.0
C1031 C 0.17609 0.63712 0.91083 0.0
C1032 C 0.16206 0.6647 0.90759 0.0
C1033 C 0.17775 0.6879 0.89092 0.0
C1034 C 0.22403 0.60661 0.90679 0.0
C1035 C 0.12917 0.66851 0.9188 0.0
C1036 C 0.11 0.56591 0.892 0.0
C1037 C 0.10688 0.56207 0.92953 0.0
C1038 C 0.13395 0.58909 0.88568 0.0
C1039 C 0.15525 0.6091 0.9177 0.0
C1040 C 0.15347 0.60424 0.95564 0.0
C1041 C 0.12928 0.58065 0.96111 0.0
C1042 C 0.13524 0.59321 0.84467 0.0
C1043 C 0.17619 0.62411 0.99082 0.0
H1044 H 0.24607 0.65616 0.87574 0.0
H1045 H 0.16587 0.708 0.88585 0.0
H1046 H 0.22162 0.59985 0.93502 0.0
H1047 H 0.21165 0.58642 0.88372 0.0
H1048 H 0.25058 0.61096 0.90511 0.0
H1049 H 0.1234 0.69266 0.91841 0.0
H1050 H 0.10938 0.65156 0.89836 0.0
H1051 H 0.12892 0.6632 0.94816 0.0
H1052 H 0.09309 0.55132 0.86741 0.0
H1053 H 0.12727 0.5775 0.99018 0.0
H1054 H 0.16081 0.59378 0.83938 0.0
H1055 H 0.12754 0.616 0.84011 0.0
H1056 H 0.11889 0.57408 0.82298 0.0
H1057 H 0.19066 0.60866 0.0062 0.0
H1058 H 0.16141 0.63511 0.01088 0.0
H1059 H 0.19372 0.64292 0.98416 0.0
C1060 C 0.26793 0.14922 0.87473 0.0
C1061 C 0.27031 0.14389 0.83557 0.0
C1062 C 0.28541 0.13346 0.90069 0.0
C1063 C 0.30622 0.11275 0.88704 0.0
C1064 C 0.30681 0.10577 0.84701 0.0
C1065 C 0.2885 0.12122 0.82169 0.0
C1066 C 0.28318 0.1404 0.94292 0.0
C1067 C 0.32879 0.08387 0.83123 0.0
C1068 C 0.38893 0.10642 0.9428 0.0
C1069 C 0.38421 0.07468 0.94612 0.0
C1070 C 0.3627 0.12017 0.92668 0.0
C1071 C 0.331 0.10178 0.91438 0.0
C1072 C 0.32539 0.07089 0.92196 0.0
C1073 C 0.35229 0.0574 0.93704 0.0
C1074 C 0.36978 0.15322 0.91898 0.0
C1075 C 0.29164 0.05111 0.91115 0.0
H1076 H 0.25347 0.16654 0.88532 0.0
H1077 H 0.29007 0.11693 0.79132 0.0
H1078 H 0.28223 0.11858 0.9553 0.0
H1079 H 0.30542 0.15682 0.95923 0.0
H1080 H 0.26115 0.15141 0.94744 0.0
H1081 H 0.32497 0.07974 0.79916 0.0
H1082 H 0.35501 0.09407 0.84294 0.0
H1083 H 0.32415 0.06085 0.84043 0.0
H1084 H 0.41363 0.11976 0.94963 0.0
H1085 H 0.34856 0.03298 0.94039 0.0
H1086 H 0.35124 0.16742 0.92824 0.0
H1087 H 0.36824 0.15232 0.88747 0.0
H1088 H 0.39469 0.16543 0.93411 0.0
H1089 H 0.27208 0.06568 0.91532 0.0
H1090 H 0.28958 0.03217 0.9285 0.0
H1091 H 0.28718 0.03987 0.8802 0.0
C1092 C 0.80654 0.31103 0.86047 0.0
C1093 C 0.81581 0.29377 0.82847 0.0
C1094 C 0.829 0.33512 0.88574 0.0
C1095 C 0.86152 0.34155 0.87905 0.0
C1096 C 0.87143 0.32302 0.84792 0.0
C1097 C 0.8483 0.29948 0.82273 0.0
C1098 C 0.81704 0.35498 0.91768 0.0
C1099 C 0.90597 0.32919 0.83996 0.0
C1100 C 0.9093 0.42382 0.90635 0.0
C1101 C 0.93298 0.42105 0.93775 0.0
C1102 C 0.8848 0.39844 0.88815 0.0
C1103 C 0.88425 0.36964 0.90171 0.0
C1104 C 0.90722 0.36721 0.93465 0.0
C1105 C 0.9317 0.39299 0.95209 0.0
C1106 C 0.86068 0.40196 0.85315 0.0
C1107 C 0.90717 0.33697 0.95014 0.0
H1108 H 0.78125 0.30689 0.86466 0.0
H1109 H 0.85546 0.28595 0.79807 0.0
H1110 H 0.83678 0.36323 0.94358 0.0
H1111 H 0.80921 0.37606 0.90739 0.0
H1112 H 0.79549 0.34187 0.92606 0.0
H1113 H 0.91038 0.31114 0.81642 0.0
H1114 H 0.91028 0.3526 0.83157 0.0
H1115 H 0.92434 0.32966 0.86642 0.0
H1116 H 0.91064 0.4456 0.89522 0.0
H1117 H 0.95074 0.3907 0.97568 0.0
H1118 H 0.83503 0.3946 0.85666 0.0
H1119 H 0.8648 0.38642 0.82713 0.0
H1120 H 0.86316 0.42654 0.84795 0.0
H1121 H 0.88164 0.32567 0.94958 0.0
H1122 H 0.92131 0.34095 0.9802 0.0
H1123 H 0.91863 0.32031 0.93161 0.0
C1124 C 0.72926 0.82732 0.89712 0.0
C1125 C 0.73234 0.82988 0.85922 0.0
C1126 C 0.7154 0.84962 0.91944 0.0
C1127 C 0.7047 0.87503 0.90337 0.0
C1128 C 0.71048 0.87914 0.86634 0.0
C1129 C 0.72411 0.85631 0.84451 0.0
C1130 C 0.70923 0.84421 0.95855 0.0
C1131 C 0.69969 0.90615 0.84841 0.0
C1132 C 0.62616 0.90158 0.92551 0.0
C1133 C 0.63787 0.93014 0.95134 0.0
C1134 C 0.64783 0.88303 0.91088 0.0
C1135 C 0.68216 0.89354 0.92172 0.0
C1136 C 0.69435 0.92189 0.94849 0.0
C1137 C 0.67198 0.93988 0.96316 0.0
C1138 C 0.63383 0.85267 0.8827 0.0
C1139 C 0.73085 0.93368 0.96057 0.0
H1140 H 0.73585 0.8069 0.90855 0.0
H1141 H 0.72676 0.85835 0.81525 0.0
H1142 H 0.71515 0.86651 0.97996 0.0
H1143 H 0.6827 0.83514 0.95614 0.0
H1144 H 0.72384 0.82682 0.96958 0.0
H1145 H 0.71094 0.90903 0.82278 0.0
H1146 H 0.67249 0.90176 0.83907 0.0
H1147 H 0.70628 0.92851 0.86975 0.0
H1148 H 0.59991 0.89416 0.9154 0.0
H1149 H 0.68118 0.96174 0.98345 0.0
H1150 H 0.64499 0.83283 0.89246 0.0
H1151 H 0.63987 0.85449 0.85391 0.0
H1152 H 0.60662 0.8469 0.87934 0.0
H1153 H 0.74383 0.91511 0.97109 0.0
H1154 H 0.73637 0.95502 0.98363 0.0
H1155 H 0.74103 0.93941 0.93522 0.0
C1156 C 0.83887 0.69872 0.19776 0.0
C1157 C 0.80705 0.69005 0.20453 0.0
C1158 C 0.85781 0.6758 0.18559 0.0
C1159 C 0.84445 0.64343 0.17963 0.0
C1160 C 0.81265 0.6346 0.18752 0.0
C1161 C 0.79441 0.65799 0.19999 0.0
C1162 C 0.8918 0.68625 0.17818 0.0
C1163 C 0.79735 0.60044 0.18146 0.0
C1164 C 0.87619 0.58616 0.10734 0.0
C1165 C 0.89693 0.57145 0.13151 0.0
C1166 C 0.85904 0.60949 0.12264 0.0
C1167 C 0.86294 0.61887 0.16321 0.0
C1168 C 0.88413 0.60451 0.18784 0.0
C1169 C 0.90068 0.58091 0.17176 0.0
C1170 C 0.83652 0.62399 0.09528 0.0
C1171 C 0.88916 0.61393 0.23124 0.0
H1172 H 0.84879 0.72347 0.2014 0.0
H1173 H 0.76977 0.65113 0.20504 0.0
H1174 H 0.91011 0.6744 0.19429 0.0
H1175 H 0.89225 0.67933 0.147 0.0
H1176 H 0.89954 0.71212 0.18677 0.0
H1177 H 0.77315 0.59745 0.1908 0.0
H1178 H 0.79375 0.58974 0.1504 0.0
H1179 H 0.81403 0.58719 0.1977 0.0
H1180 H 0.87348 0.57962 0.07627 0.0
H1181 H 0.91616 0.56951 0.19085 0.0
H1182 H 0.84472 0.64977 0.09998 0.0
H1183 H 0.81108 0.62028 0.10111 0.0
H1184 H 0.83588 0.61391 0.06449 0.0
H1185 H 0.89765 0.63966 0.24004 0.0
H1186 H 0.90746 0.60146 0.24642 0.0
H1187 H 0.86544 0.60872 0.24101 0.0
C1188 C 0.32827 0.76321 0.12253 0.0
C1189 C 0.29768 0.77169 0.12724 0.0
C1190 C 0.34818 0.77956 0.10178 0.0
C1191 C 0.33717 0.80503 0.08606 0.0
C1192 C 0.30479 0.81129 0.08722 0.0
C1193 C 0.2853 0.79436 0.10779 0.0
C1194 C 0.38222 0.77165 0.10014 0.0
C1195 C 0.29206 0.83815 0.07063 0.0
C1196 C 0.39963 0.87807 0.09683 0.0
C1197 C 0.40372 0.87796 0.05868 0.0
C1198 C 0.37854 0.85399 0.10601 0.0
C1199 C 0.36131 0.82901 0.0763 0.0
C1200 C 0.36606 0.82819 0.03784 0.0
C1201 C 0.38714 0.85288 0.0294 0.0
C1202 C 0.37406 0.85579 0.14747 0.0
C1203 C 0.34834 0.80176 0.00556 0.0
H1204 H 0.33758 0.74524 0.1371 0.0
H1205 H 0.26138 0.80058 0.11103 0.0
H1206 H 0.38857 0.77316 0.07143 0.0
H1207 H 0.40058 0.78887 0.12209 0.0
H1208 H 0.38437 0.74769 0.1062 0.0
H1209 H 0.26494 0.83658 0.06819 0.0
H1210 H 0.304 0.86076 0.08975 0.0
H1211 H 0.29827 0.8387 0.04168 0.0
H1212 H 0.41245 0.89735 0.11956 0.0
H1213 H 0.39034 0.85271 -0.00016 0.0
H1214 H 0.3802 0.83425 0.15799 0.0
H1215 H 0.34792 0.85713 0.14933 0.0
H1216 H 0.38975 0.87655 0.16712 0.0
H1217 H 0.34993 0.77861 0.01431 0.0
H1218 H 0.3585 0.80208 0.97871 0.0
H1219 H 0.32185 0.80393 0.99902 0.0
C1220 C 0.66666 0.13155 0.19325 0.0
C1221 C 0.67221 0.16104 0.18273 0.0
C1222 C 0.64122 0.10816 0.17158 0.0
C1223 C 0.62012 0.11505 0.13969 0.0
C1224 C 0.62568 0.14491 0.129 0.0
C1225 C 0.65213 0.16744 0.15033 0.0
C1226 C 0.63681 0.07619 0.18296 0.0
C1227 C 0.603 0.15347 0.09606 0.0
C1228 C 0.5689 0.04663 0.06634 0.0
C1229 C 0.53966 0.04295 0.08082 0.0
C1230 C 0.59526 0.07025 0.08495 0.0
C1231 C 0.5918 0.09113 0.11822 0.0
C1232 C 0.56176 0.08821 0.13208 0.0
C1233 C 0.53618 0.06369 0.11356 0.0
C1234 C 0.62712 0.07213 0.06978 0.0
C1235 C 0.55681 0.11072 0.16671 0.0
H1236 H 0.68242 0.12672 0.21829 0.0
H1237 H 0.65631 0.19052 0.14266 0.0
H1238 H 0.61292 0.07189 0.19264 0.0
H1239 H 0.63623 0.05751 0.15766 0.0
H1240 H 0.65683 0.07397 0.20664 0.0
H1241 H 0.61147 0.17728 0.09057 0.0
H1242 H 0.60107 0.13608 0.06919 0.0
H1243 H 0.57785 0.15283 0.10276 0.0
H1244 H 0.5716 0.03023 0.04125 0.0
H1245 H 0.51338 0.06083 0.12449 0.0
H1246 H 0.62579 0.0538 0.04383 0.0
H1247 H 0.64753 0.06932 0.09258 0.0
H1248 H 0.63341 0.09556 0.06217 0.0
H1249 H 0.57348 0.10771 0.19301 0.0
H1250 H 0.53104 0.10698 0.17157 0.0
H1251 H 0.56317 0.13539 0.16286 0.0
C1252 C 0.68965 0.67237 0.84883 0.0
C1253 C 0.682 0.66893 0.80844 0.0
C1254 C 0.67104 0.65363 0.86894 0.0
C1255 C 0.64312 0.63173 0.84844 0.0
C1256 C 0.63486 0.62876 0.80766 0.0
C1257 C 0.65477 0.64686 0.78813 0.0
C1258 C 0.68172 0.65679 0.91207 0.0
C1259 C 0.60477 0.60663 0.78462 0.0
C1260 C 0.60876 0.56096 0.88919 0.0
C1261 C 0.58295 0.57185 0.90547 0.0
C1262 C 0.62929 0.58057 0.87204 0.0
C1263 C 0.62299 0.61147 0.86942 0.0
C1264 C 0.59687 0.62255 0.88598 0.0
C1265 C 0.57754 0.6028 0.90436 0.0
C1266 C 0.65747 0.56799 0.85623 0.0
C1267 C 0.58843 0.65481 0.88285 0.0
H1268 H 0.71087 0.68918 0.86467 0.0
H1269 H 0.6486 0.64424 0.75695 0.0
H1270 H 0.66184 0.66401 0.92707 0.0
H1271 H 0.68634 0.63367 0.91917 0.0
H1272 H 0.70444 0.67427 0.92366 0.0
H1273 H 0.60036 0.60864 0.75362 0.0
H1274 H 0.60764 0.58198 0.78667 0.0
H1275 H 0.58265 0.61159 0.7967 0.0
H1276 H 0.61282 0.53694 0.88978 0.0
H1277 H 0.55718 0.61104 0.91627 0.0
H1278 H 0.6807 0.58478 0.8676 0.0
H1279 H 0.65276 0.56544 0.82431 0.0
H1280 H 0.66103 0.54474 0.86378 0.0
H1281 H 0.61013 0.67312 0.89584 0.0
H1282 H 0.56759 0.66006 0.89737 0.0
H1283 H 0.58173 0.65654 0.85194 0.0
C1284 C 0.33509 0.68568 0.78204 0.0
C1285 C 0.3006 0.682 0.77499 0.0
C1286 C 0.35203 0.66553 0.80201 0.0
C1287 C 0.33406 0.64075 0.81496 0.0
C1288 C 0.29914 0.63722 0.80848 0.0
C1289 C 0.2828 0.65797 0.78861 0.0
C1290 C 0.38924 0.6705 0.80871 0.0
C1291 C 0.27903 0.61104 0.82158 0.0
C1292 C 0.38143 0.57299 0.8289 0.0
C1293 C 0.39397 0.57981 0.86884 0.0
C1294 C 0.36054 0.59168 0.81133 0.0
C1295 C 0.35212 0.61813 0.83406 0.0
C1296 C 0.36359 0.62447 0.87455 0.0
C1297 C 0.3842 0.60521 0.89143 0.0
C1298 C 0.34864 0.58388 0.76811 0.0
C1299 C 0.35518 0.65237 0.89989 0.0
H1300 H 0.34894 0.70434 0.77172 0.0
H1301 H 0.2561 0.6549 0.7829 0.0
H1302 H 0.39949 0.67315 0.83998 0.0
H1303 H 0.39772 0.64963 0.79358 0.0
H1304 H 0.39956 0.69164 0.79827 0.0
H1305 H 0.25233 0.61278 0.81675 0.0
H1306 H 0.2823 0.58799 0.80558 0.0
H1307 H 0.28776 0.61137 0.85273 0.0
H1308 H 0.38895 0.55372 0.81096 0.0
H1309 H 0.39308 0.61037 0.9224 0.0
H1310 H 0.36037 0.60245 0.75452 0.0
H1311 H 0.3216 0.58331 0.76101 0.0
H1312 H 0.35454 0.56086 0.7551 0.0
H1313 H 0.36671 0.67447 0.89255 0.0
H1314 H 0.36387 0.65273 0.93111 0.0
H1315 H 0.32815 0.65219 0.89462 0.0
C1316 C 0.31431 0.32635 0.8231 0.0
C1317 C 0.3129 0.29403 0.82272 0.0
C1318 C 0.33746 0.3483 0.85035 0.0
C1319 C 0.35992 0.33762 0.87771 0.0
C1320 C 0.35776 0.30513 0.87866 0.0
C1321 C 0.33413 0.28362 0.85109 0.0
C1322 C 0.33885 0.38287 0.84866 0.0
C1323 C 0.38135 0.29299 0.90748 0.0
C1324 C 0.43956 0.394 0.90397 0.0
C1325 C 0.43539 0.41274 0.93796 0.0
C1326 C 0.41627 0.36775 0.88569 0.0
C1327 C 0.38796 0.36039 0.90166 0.0
C1328 C 0.38474 0.37796 0.93746 0.0
C1329 C 0.40869 0.40409 0.95534 0.0
C1330 C 0.42083 0.34935 0.84781 0.0
C1331 C 0.35495 0.37061 0.95541 0.0
H1332 H 0.29753 0.3346 0.80174 0.0
H1333 H 0.33298 0.25864 0.85111 0.0
H1334 H 0.33891 0.39664 0.87764 0.0
H1335 H 0.36203 0.39172 0.83964 0.0
H1336 H 0.31776 0.38741 0.82797 0.0
H1337 H 0.37323 0.26786 0.90835 0.0
H1338 H 0.40608 0.29526 0.89951 0.0
H1339 H 0.38398 0.30711 0.93688 0.0
H1340 H 0.46061 0.40047 0.89095 0.0
H1341 H 0.40549 0.4188 0.98153 0.0
H1342 H 0.40265 0.35408 0.82383 0.0
H1343 H 0.41636 0.32371 0.84775 0.0
H1344 H 0.44595 0.35574 0.84187 0.0
H1345 H 0.3334 0.37827 0.93887 0.0
H1346 H 0.35882 0.38284 0.98598 0.0
H1347 H 0.34876 0.34491 0.95419 0.0
C1348 C 0.70997 0.33509 0.78959 0.0
C1349 C 0.69909 0.30292 0.77535 0.0
C1350 C 0.69062 0.35368 0.80946 0.0
C1351 C 0.65946 0.33984 0.81502 0.0
C1352 C 0.64866 0.30717 0.80129 0.0
C1353 C 0.6686 0.28913 0.78161 0.0
C1354 C 0.7033 0.38829 0.82394 0.0
C1355 C 0.61569 0.29141 0.80657 0.0
C1356 C 0.61917 0.38449 0.89103 0.0
C1357 C 0.59752 0.39961 0.86852 0.0
C1358 C 0.63925 0.36479 0.87408 0.0
C1359 C 0.63762 0.35986 0.83355 0.0
C1360 C 0.61557 0.37471 0.81063 0.0
C1361 C 0.59598 0.39443 0.82833 0.0
C1362 C 0.66244 0.34946 0.89959 0.0
C1363 C 0.61297 0.37011 0.76733 0.0
H1364 H 0.73363 0.3458 0.78504 0.0
H1365 H 0.65996 0.26432 0.77038 0.0
H1366 H 0.6868 0.40246 0.80902 0.0
H1367 H 0.70322 0.39446 0.8553 0.0
H1368 H 0.7287 0.39511 0.81907 0.0
H1369 H 0.61173 0.26554 0.79623 0.0
H1370 H 0.61367 0.29606 0.8375 0.0
H1371 H 0.59565 0.30136 0.79044 0.0
H1372 H 0.62033 0.3879 0.922 0.0
H1373 H 0.5799 0.40635 0.81061 0.0
H1374 H 0.68823 0.35712 0.89674 0.0
H1375 H 0.65711 0.32351 0.89026 0.0
H1376 H 0.66054 0.35534 0.93052 0.0
H1377 H 0.63701 0.37907 0.76034 0.0
H1378 H 0.59383 0.38242 0.75343 0.0
H1379 H 0.60697 0.34467 0.75453 0.0
C1380 C 0.67824 0.32112 0.25652 0.0
C1381 C 0.69104 0.29684 0.23601 0.0
C1382 C 0.65853 0.33975 0.23702 0.0
C1383 C 0.65192 0.33426 0.19605 0.0
C1384 C 0.66594 0.31057 0.1753 0.0
C1385 C 0.68492 0.2919 0.19551 0.0
C1386 C 0.64378 0.3645 0.26024 0.0
C1387 C 0.66003 0.30422 0.13168 0.0
C1388 C 0.57275 0.35589 0.14472 0.0
C1389 C 0.58393 0.38491 0.1353 0.0
C1390 C 0.5946 0.33931 0.16459 0.0
C1391 C 0.62862 0.35181 0.1749 0.0
C1392 C 0.64015 0.38091 0.16502 0.0
C1393 C 0.61763 0.39725 0.14564 0.0
C1394 C 0.58117 0.30857 0.17495 0.0
C1395 C 0.67629 0.39471 0.17481 0.0
H1396 H 0.68279 0.32496 0.28783 0.0
H1397 H 0.69428 0.27285 0.17945 0.0
H1398 H 0.64996 0.38766 0.25187 0.0
H1399 H 0.61651 0.35832 0.25395 0.0
H1400 H 0.65255 0.3669 0.29185 0.0
H1401 H 0.67556 0.28745 0.12012 0.0
H1402 H 0.63376 0.29424 0.12003 0.0
H1403 H 0.66523 0.32647 0.12084 0.0
H1404 H 0.54668 0.34646 0.13729 0.0
H1405 H 0.6264 0.41958 0.1382 0.0
H1406 H 0.58713 0.31004 0.20671 0.0
H1407 H 0.59297 0.28929 0.16155 0.0
H1408 H 0.55403 0.30228 0.16529 0.0
H1409 H 0.68504 0.39887 0.20654 0.0
H1410 H 0.68138 0.41728 0.16457 0.0
H1411 H 0.69088 0.37782 0.16158 0.0
C1412 C 0.66513 0.663 0.12619 0.0
C1413 C 0.66136 0.67085 0.16464 0.0
C1414 C 0.64257 0.63947 0.10014 0.0
C1415 C 0.61532 0.62444 0.11291 0.0
C1416 C 0.6102 0.63415 0.15101 0.0
C1417 C 0.63378 0.65687 0.17676 0.0
C1418 C 0.64927 0.62914 0.0601 0.0
C1419 C 0.58076 0.61938 0.16521 0.0
C1420 C 0.54272 0.57093 0.04669 0.0
C1421 C 0.5486 0.5419 0.0558 0.0
C1422 C 0.5653 0.59829 0.06335 0.0
C1423 C 0.59446 0.59593 0.08868 0.0
C1424 C 0.60164 0.56607 0.09498 0.0
C1425 C 0.57817 0.53937 0.07903 0.0
C1426 C 0.55656 0.62974 0.05649 0.0
C1427 C 0.63307 0.56251 0.12069 0.0
H1428 H 0.68677 0.67389 0.11717 0.0
H1429 H 0.63095 0.66337 0.20653 0.0
H1430 H 0.65814 0.6061 0.05848 0.0
H1431 H 0.62644 0.62587 0.038 0.0
H1432 H 0.66828 0.64629 0.05276 0.0
H1433 H 0.57802 0.63263 0.1935 0.0
H1434 H 0.55781 0.61822 0.14391 0.0
H1435 H 0.58353 0.59493 0.16855 0.0
H1436 H 0.51952 0.57252 0.02876 0.0
H1437 H 0.58243 0.51662 0.08569 0.0
H1438 H 0.57832 0.64544 0.05237 0.0
H1439 H 0.54805 0.64142 0.08222 0.0
H1440 H 0.53656 0.62718 0.03089 0.0
H1441 H 0.65464 0.57671 0.11377 0.0
H1442 H 0.63706 0.53758 0.11775 0.0
H1443 H 0.63192 0.57128 0.15132 0.0
C1444 C 0.27084 0.63339 0.20418 0.0
C1445 C 0.28192 0.66551 0.21847 0.0
C1446 C 0.29019 0.61462 0.18461 0.0
C1447 C 0.32153 0.62826 0.17939 0.0
C1448 C 0.33245 0.66093 0.19293 0.0
C1449 C 0.3125 0.67916 0.21233 0.0
C1450 C 0.27736 0.58002 0.17027 0.0
C1451 C 0.36559 0.67647 0.18791 0.0
C1452 C 0.38458 0.57293 0.16863 0.0
C1453 C 0.38334 0.56698 0.12852 0.0
C1454 C 0.3651 0.59323 0.18549 0.0
C1455 C 0.34353 0.60793 0.16177 0.0
C1456 C 0.34232 0.60234 0.12131 0.0
C1457 C 0.36224 0.58202 0.1052 0.0
C1458 C 0.36719 0.59849 0.22874 0.0
C1459 C 0.31967 0.61754 0.09499 0.0
H1460 H 0.24706 0.62282 0.20858 0.0
H1461 H 0.32122 0.70397 0.22351 0.0
H1462 H 0.27802 0.57357 0.13909 0.0
H1463 H 0.29343 0.56586 0.18585 0.0
H1464 H 0.25171 0.57346 0.1745 0.0
H1465 H 0.3694 0.70242 0.19745 0.0
H1466 H 0.38545 0.6669 0.20495 0.0
H1467 H 0.36813 0.67117 0.15718 0.0
H1468 H 0.40026 0.56109 0.18695 0.0
H1469 H 0.36133 0.57798 0.07426 0.0
H1470 H 0.34296 0.5898 0.23548 0.0
H1471 H 0.37319 0.62403 0.24105 0.0
H1472 H 0.38611 0.58632 0.24333 0.0
H1473 H 0.29368 0.60996 0.09716 0.0
H1474 H 0.32219 0.61144 0.06428 0.0
H1475 H 0.32495 0.64351 0.10409 0.0
C1476 C 0.30489 0.32391 0.20946 0.0
C1477 C 0.3076 0.29186 0.207 0.0
C1478 C 0.32295 0.34331 0.18953 0.0
C1479 C 0.34485 0.33069 0.16691 0.0
C1480 C 0.34784 0.2984 0.16449 0.0
C1481 C 0.32906 0.27941 0.18419 0.0
C1482 C 0.31852 0.3774 0.19264 0.0
C1483 C 0.3712 0.28395 0.14135 0.0
C1484 C 0.37379 0.37465 0.09026 0.0
C1485 C 0.40432 0.39181 0.11018 0.0
C1486 C 0.35415 0.35479 0.10825 0.0
C1487 C 0.36544 0.3515 0.14697 0.0
C1488 C 0.3965 0.36839 0.1669 0.0
C1489 C 0.41531 0.3884 0.14847 0.0
C1490 C 0.32108 0.33763 0.08598 0.0
C1491 C 0.40993 0.36536 0.20786 0.0
H1492 H 0.28816 0.33382 0.22653 0.0
H1493 H 0.33148 0.25475 0.18198 0.0
H1494 H 0.34223 0.39283 0.20617 0.0
H1495 H 0.31114 0.38279 0.16339 0.0
H1496 H 0.29962 0.38338 0.21005 0.0
H1497 H 0.37063 0.25851 0.14211 0.0
H1498 H 0.36486 0.28677 0.11081 0.0
H1499 H 0.39675 0.29634 0.1528 0.0
H1500 H 0.36496 0.37714 0.06077 0.0
H1501 H 0.43891 0.40133 0.16417 0.0
H1502 H 0.3013 0.34462 0.10136 0.0
H1503 H 0.32015 0.31188 0.08421 0.0
H1504 H 0.31578 0.34258 0.05619 0.0
H1505 H 0.39317 0.37347 0.22718 0.0
H1506 H 0.43491 0.37927 0.219 0.0
H1507 H 0.41118 0.34031 0.20941 0.0
C1508 C 0.77231 0.60077 0.65 0.0
C1509 C 0.74618 0.61708 0.64098 0.0
C1510 C 0.78157 0.57973 0.62142 0.0
C1511 C 0.76437 0.57517 0.5827 0.0
C1512 C 0.73616 0.58961 0.57403 0.0
C1513 C 0.7273 0.61051 0.60349 0.0
C1514 C 0.81154 0.56445 0.63231 0.0
C1515 C 0.71683 0.58508 0.53339 0.0
C1516 C 0.83057 0.56275 0.52692 0.0
C1517 C 0.82911 0.53016 0.52332 0.0
C1518 C 0.80569 0.57766 0.54003 0.0
C1519 C 0.77973 0.55954 0.5517 0.0
C1520 C 0.77567 0.52628 0.54279 0.0
C1521 C 0.80057 0.51182 0.52841 0.0
C1522 C 0.81006 0.61315 0.54698 0.0
C1523 C 0.74753 0.50614 0.55329 0.0
H1524 H 0.7866 0.60564 0.67917 0.0
H1525 H 0.70695 0.62314 0.59659 0.0
H1526 H 0.80601 0.53873 0.62111 0.0
H1527 H 0.832 0.5743 0.61918 0.0
H1528 H 0.8202 0.56833 0.66409 0.0
H1529 H 0.69071 0.58789 0.53354 0.0
H1530 H 0.72756 0.60323 0.51849 0.0
H1531 H 0.71759 0.56161 0.51641 0.0
H1532 H 0.85269 0.57694 0.52318 0.0
H1533 H 0.79937 0.48652 0.52539 0.0
H1534 H 0.82013 0.62257 0.57806 0.0
H1535 H 0.7861 0.62135 0.53953 0.0
H1536 H 0.82737 0.62306 0.52976 0.0
H1537 H 0.75385 0.50425 0.58418 0.0
H1538 H 0.74276 0.48201 0.5357 0.0
H1539 H 0.72466 0.51677 0.54926 0.0
C1540 C 0.30201 0.76119 0.60225 0.0
C1541 C 0.27741 0.7742 0.61881 0.0
C1542 C 0.32275 0.77929 0.58404 0.0
C1543 C 0.31832 0.81072 0.58235 0.0
C1544 C 0.29058 0.82216 0.59413 0.0
C1545 C 0.27053 0.80379 0.61267 0.0
C1546 C 0.35137 0.76599 0.57026 0.0
C1547 C 0.28412 0.855 0.59084 0.0
C1548 C 0.39403 0.87287 0.60317 0.0
C1549 C 0.39533 0.88021 0.56661 0.0
C1550 C 0.36949 0.8497 0.60825 0.0
C1551 C 0.34567 0.83334 0.57591 0.0
C1552 C 0.34735 0.83991 0.53869 0.0
C1553 C 0.37208 0.86354 0.53452 0.0
C1554 C 0.3687 0.84324 0.6485 0.0
C1555 C 0.32267 0.82298 0.50336 0.0
H1556 H 0.30706 0.73811 0.60671 0.0
H1557 H 0.25102 0.81354 0.62492 0.0
H1558 H 0.35401 0.77193 0.5417 0.0
H1559 H 0.37449 0.77663 0.59097 0.0
H1560 H 0.34844 0.74002 0.5679 0.0
H1561 H 0.2591 0.85855 0.59582 0.0
H1562 H 0.30255 0.87235 0.61257 0.0
H1563 H 0.28673 0.85989 0.56182 0.0
H1564 H 0.41201 0.88552 0.62808 0.0
H1565 H 0.373 0.86912 0.50619 0.0
H1566 H 0.36908 0.81788 0.64886 0.0
H1567 H 0.34554 0.84904 0.65739 0.0
H1568 H 0.38984 0.85714 0.67024 0.0
H1569 H 0.30991 0.80012 0.50728 0.0
H1570 H 0.33494 0.81856 0.47812 0.0
H1571 H 0.30384 0.83812 0.49652 0.0
C1572 C 0.22905 0.35233 0.65805 0.0
C1573 C 0.2126 0.32139 0.65181 0.0
C1574 C 0.2135 0.37551 0.64242 0.0
C1575 C 0.18119 0.36707 0.62008 0.0
C1576 C 0.16613 0.33514 0.61075 0.0
C1577 C 0.18195 0.31277 0.62704 0.0
C1578 C 0.23044 0.40925 0.65263 0.0
C1579 C 0.13189 0.32492 0.58659 0.0
C1580 C 0.11347 0.4154 0.62737 0.0
C1581 C 0.10716 0.42257 0.59016 0.0
C1582 C 0.13989 0.40009 0.63887 0.0
C1583 C 0.16033 0.39128 0.61232 0.0
C1584 C 0.15571 0.40045 0.5758 0.0
C1585 C 0.12906 0.41594 0.56505 0.0
C1586 C 0.14387 0.39071 0.67818 0.0
C1587 C 0.1774 0.39186 0.54712 0.0
H1588 H 0.25287 0.35883 0.67719 0.0
H1589 H 0.16957 0.2886 0.62181 0.0
H1590 H 0.22511 0.4217 0.62808 0.0
H1591 H 0.22113 0.42167 0.6773 0.0
H1592 H 0.25756 0.41085 0.66123 0.0
H1593 H 0.12552 0.2989 0.57826 0.0
H1594 H 0.11354 0.3336 0.60325 0.0
H1595 H 0.1296 0.33509 0.5599 0.0
H1596 H 0.09654 0.41989 0.64689 0.0
H1597 H 0.12475 0.4218 0.53648 0.0
H1598 H 0.1701 0.3959 0.69283 0.0
H1599 H 0.13576 0.36498 0.67471 0.0
H1600 H 0.12906 0.40304 0.69719 0.0
H1601 H 0.17278 0.40349 0.52167 0.0
H1602 H 0.17275 0.366 0.53692 0.0
H1603 H 0.20376 0.39846 0.56105 0.0
C1604 C 0.67427 0.15637 0.63351 0.0
C1605 C 0.66469 0.17582 0.6635 0.0
C1606 C 0.65217 0.13072 0.61073 0.0
C1607 C 0.61964 0.12501 0.61776 0.0
C1608 C 0.60931 0.1459 0.64638 0.0
C1609 C 0.63212 0.17098 0.66919 0.0
C1610 C 0.66482 0.10843 0.58176 0.0
C1611 C 0.57488 0.14047 0.65484 0.0
C1612 C 0.55209 0.06614 0.5493 0.0
C1613 C 0.5528 0.03995 0.56734 0.0
C1614 C 0.5744 0.09393 0.56466 0.0
C1615 C 0.59765 0.09529 0.59886 0.0
C1616 C 0.5988 0.06856 0.61664 0.0
C1617 C 0.57619 0.04122 0.6007 0.0
C1618 C 0.57188 0.12209 0.54527 0.0
C1619 C 0.62311 0.06917 0.65328 0.0
H1620 H 0.69965 0.15985 0.6295 0.0
H1621 H 0.62479 0.18618 0.69237 0.0
H1622 H 0.67531 0.09031 0.59635 0.0
H1623 H 0.64501 0.0962 0.55739 0.0
H1624 H 0.68481 0.121 0.57015 0.0
H1625 H 0.57002 0.16031 0.67577 0.0
H1626 H 0.55633 0.13713 0.62784 0.0
H1627 H 0.57136 0.11865 0.66702 0.0
H1628 H 0.53337 0.06525 0.52398 0.0
H1629 H 0.57646 0.02087 0.61466 0.0
H1630 H 0.55684 0.13763 0.56003 0.0
H1631 H 0.55974 0.11495 0.51439 0.0
H1632 H 0.59648 0.13603 0.54712 0.0
H1633 H 0.64864 0.0757 0.64884 0.0
H1634 H 0.62114 0.0461 0.6629 0.0
H1635 H 0.61883 0.08726 0.67681 0.0
C1636 C 0.84118 0.31794 0.30829 0.0
C1637 C 0.81399 0.30682 0.32347 0.0
C1638 C 0.86589 0.34176 0.33036 0.0
C1639 C 0.86268 0.35543 0.36805 0.0
C1640 C 0.83536 0.34408 0.3837 0.0
C1641 C 0.81148 0.31949 0.36131 0.0
C1642 C 0.8952 0.35258 0.31315 0.0
C1643 C 0.83075 0.35864 0.42341 0.0
C1644 C 0.93958 0.40438 0.43255 0.0
C1645 C 0.93671 0.4341 0.42365 0.0
C1646 C 0.91516 0.37843 0.41544 0.0
C1647 C 0.88703 0.38283 0.38982 0.0
C1648 C 0.8834 0.41329 0.38247 0.0
C1649 C 0.90869 0.4385 0.39891 0.0
C1650 C 0.92029 0.34621 0.42326 0.0
C1651 C 0.85317 0.41917 0.35658 0.0
H1652 H 0.84332 0.30773 0.2792 0.0
H1653 H 0.79032 0.31085 0.37294 0.0
H1654 H 0.8949 0.37718 0.30877 0.0
H1655 H 0.91846 0.35227 0.33325 0.0
H1656 H 0.89538 0.33763 0.28491 0.0
H1657 H 0.80954 0.34555 0.43247 0.0
H1658 H 0.85328 0.35947 0.44517 0.0
H1659 H 0.82653 0.38328 0.4235 0.0
H1660 H 0.96143 0.40124 0.45178 0.0
H1661 H 0.90642 0.46174 0.39269 0.0
H1662 H 0.92575 0.33205 0.39701 0.0
H1663 H 0.89765 0.33356 0.42985 0.0
H1664 H 0.94102 0.34743 0.44767 0.0
H1665 H 0.85279 0.40802 0.32628 0.0
H1666 H 0.85246 0.44469 0.35762 0.0
H1667 H 0.83049 0.4084 0.36509 0.0
C1668 C 0.66927 0.78976 0.27344 0.0
C1669 C 0.6943 0.78248 0.30037 0.0
C1670 C 0.64957 0.81226 0.28477 0.0
C1671 C 0.65548 0.82814 0.32377 0.0
C1672 C 0.68175 0.82178 0.35055 0.0
C1673 C 0.70062 0.79887 0.33859 0.0
C1674 C 0.62174 0.81819 0.25536 0.0
C1675 C 0.68949 0.83867 0.39213 0.0
C1676 C 0.62138 0.90399 0.35128 0.0
C1677 C 0.59494 0.89353 0.36832 0.0
C1678 C 0.64094 0.88294 0.33601 0.0
C1679 C 0.63358 0.85052 0.33722 0.0
C1680 C 0.60634 0.83972 0.35346 0.0
C1681 C 0.58757 0.86139 0.36914 0.0
C1682 C 0.67009 0.89555 0.3197 0.0
C1683 C 0.5973 0.8053 0.35477 0.0
H1684 H 0.66435 0.7771 0.24385 0.0
H1685 H 0.7202 0.79351 0.35938 0.0
H1686 H 0.59784 0.81076 0.26374 0.0
H1687 H 0.62362 0.84369 0.25463 0.0
H1688 H 0.62152 0.80525 0.22582 0.0
H1689 H 0.69277 0.86452 0.3935 0.0
H1690 H 0.6686 0.83241 0.4066 0.0
H1691 H 0.71214 0.83264 0.40857 0.0
H1692 H 0.62737 0.92887 0.35091 0.0
H1693 H 0.56696 0.85316 0.38192 0.0
H1694 H 0.6686 0.88285 0.28979 0.0
H1695 H 0.69321 0.89151 0.33725 0.0
H1696 H 0.67167 0.92114 0.31936 0.0
H1697 H 0.59432 0.79091 0.32545 0.0
H1698 H 0.57414 0.80041 0.36589 0.0
H1699 H 0.61744 0.79756 0.37364 0.0
C1700 C 0.15127 0.71271 0.37293 0.0
C1701 C 0.17884 0.69887 0.36617 0.0
C1702 C 0.12904 0.69923 0.39354 0.0
C1703 C 0.13447 0.67112 0.40691 0.0
C1704 C 0.16396 0.6589 0.40327 0.0
C1705 C 0.18594 0.6731 0.38304 0.0
C1706 C 0.0984 0.71349 0.39796 0.0
C1707 C 0.17072 0.62899 0.4172 0.0
C1708 C 0.08168 0.62887 0.46581 0.0
C1709 C 0.06148 0.60569 0.43669 0.0
C1710 C 0.1044 0.65182 0.4566 0.0
C1711 C 0.10707 0.65116 0.41747 0.0
C1712 C 0.08543 0.62886 0.38792 0.0
C1713 C 0.06279 0.60651 0.39792 0.0
C1714 C 0.12657 0.67564 0.48881 0.0
C1715 C 0.08747 0.62733 0.34577 0.0
H1716 H 0.14607 0.73301 0.36031 0.0
H1717 H 0.20751 0.66263 0.37814 0.0
H1718 H 0.07726 0.69982 0.37611 0.0
H1719 H 0.09232 0.71258 0.42693 0.0
H1720 H 0.1012 0.73833 0.3937 0.0
H1721 H 0.19646 0.62493 0.41668 0.0
H1722 H 0.16615 0.62965 0.44703 0.0
H1723 H 0.15375 0.60865 0.39832 0.0
H1724 H 0.08056 0.62847 0.49587 0.0
H1725 H 0.04704 0.58882 0.37529 0.0
H1726 H 0.12942 0.69931 0.48091 0.0
H1727 H 0.15142 0.66874 0.49398 0.0
H1728 H 0.117 0.67715 0.51623 0.0
H1729 H 0.08561 0.6506 0.33754 0.0
H1730 H 0.06772 0.6096 0.32634 0.0
H1731 H 0.11168 0.62116 0.34084 0.0
C1732 C 0.30891 0.17313 0.29864 0.0
C1733 C 0.31686 0.20469 0.31726 0.0
C1734 C 0.32823 0.15058 0.30941 0.0
C1735 C 0.35598 0.15978 0.33991 0.0
C1736 C 0.36429 0.19178 0.35846 0.0
C1737 C 0.34456 0.21377 0.34702 0.0
C1738 C 0.31836 0.11677 0.28889 0.0
C1739 C 0.3937 0.20269 0.39094 0.0
C1740 C 0.38752 0.0996 0.39755 0.0
C1741 C 0.41524 0.09309 0.38186 0.0
C1742 C 0.36769 0.12072 0.38364 0.0
C1743 C 0.37577 0.13592 0.35339 0.0
C1744 C 0.40346 0.12917 0.3371 0.0
C1745 C 0.42279 0.10787 0.35147 0.0
C1746 C 0.33824 0.12702 0.40164 0.0
C1747 C 0.41306 0.14494 0.30497 0.0
H1748 H 0.28683 0.16578 0.2767 0.0
H1749 H 0.3506 0.23813 0.36171 0.0
H1750 H 0.33953 0.10797 0.27786 0.0
H1751 H 0.3112 0.10185 0.30953 0.0
H1752 H 0.2974 0.11382 0.26427 0.0
H1753 H 0.39763 0.22856 0.40131 0.0
H1754 H 0.39024 0.19083 0.4156 0.0
H1755 H 0.41631 0.19612 0.3813 0.0
H1756 H 0.38119 0.08802 0.42064 0.0
H1757 H 0.44436 0.10336 0.33944 0.0
H1758 H 0.31558 0.12207 0.37903 0.0
H1759 H 0.34141 0.15222 0.41522 0.0
H1760 H 0.3346 0.11252 0.42398 0.0
H1761 H 0.39202 0.14073 0.2803 0.0
H1762 H 0.43456 0.13634 0.29446 0.0
H1763 H 0.41925 0.17076 0.31527 0.0
C1764 C 0.6707 0.78299 0.72877 0.0
C1765 C 0.68554 0.76771 0.70012 0.0
C1766 C 0.6509 0.80602 0.7208 0.0
C1767 C 0.64575 0.81364 0.68327 0.0
C1768 C 0.66186 0.79907 0.6549 0.0
C1769 C 0.68148 0.7764 0.66368 0.0
C1770 C 0.63462 0.82131 0.75209 0.0
C1771 C 0.65749 0.80661 0.61466 0.0
C1772 C 0.56781 0.84107 0.63834 0.0
C1773 C 0.57883 0.87297 0.63892 0.0
C1774 C 0.58882 0.82199 0.65477 0.0
C1775 C 0.62186 0.83497 0.67214 0.0
C1776 C 0.63278 0.86747 0.67433 0.0
C1777 C 0.61114 0.88609 0.65777 0.0
C1778 C 0.576 0.78756 0.65209 0.0
C1779 C 0.66777 0.88227 0.69253 0.0
H1780 H 0.67386 0.77642 0.75703 0.0
H1781 H 0.69319 0.76493 0.64152 0.0
H1782 H 0.63771 0.84717 0.75371 0.0
H1783 H 0.60778 0.81233 0.74514 0.0
H1784 H 0.64478 0.81636 0.78091 0.0
H1785 H 0.67334 0.79469 0.59673 0.0
H1786 H 0.6314 0.79911 0.59993 0.0
H1787 H 0.66341 0.83236 0.6161 0.0
H1788 H 0.54269 0.83088 0.62466 0.0
H1789 H 0.61991 0.91069 0.65836 0.0
H1790 H 0.58148 0.78082 0.68088 0.0
H1791 H 0.58862 0.77306 0.63244 0.0
H1792 H 0.549 0.78174 0.64102 0.0
H1793 H 0.67484 0.87573 0.7212 0.0
H1794 H 0.67132 0.90835 0.69614 0.0
H1795 H 0.68481 0.87331 0.67409 0.0
C1796 C 0.66322 0.18828 0.37916 0.0
C1797 C 0.69561 0.18737 0.37382 0.0
C1798 C 0.64793 0.16693 0.39859 0.0
C1799 C 0.66555 0.1441 0.41264 0.0
C1800 C 0.69927 0.14505 0.41049 0.0
C1801 C 0.71402 0.16683 0.39098 0.0
C1802 C 0.61206 0.16704 0.40101 0.0
C1803 C 0.71891 0.12142 0.42578 0.0
C1804 C 0.61822 0.09269 0.46778 0.0
C1805 C 0.60124 0.06872 0.43751 0.0
C1806 C 0.64078 0.11695 0.46078 0.0
C1807 C 0.64689 0.11641 0.42284 0.0
C1808 C 0.63152 0.09091 0.39285 0.0
C1809 C 0.60867 0.06751 0.40053 0.0
C1810 C 0.65701 0.1437 0.49341 0.0
C1811 C 0.63752 0.08937 0.352 0.0
H1812 H 0.64919 0.20453 0.36629 0.0
H1813 H 0.73923 0.16636 0.38702 0.0
H1814 H 0.59681 0.14629 0.38094 0.0
H1815 H 0.60803 0.16529 0.43061 0.0
H1816 H 0.60325 0.18861 0.39318 0.0
H1817 H 0.7458 0.12851 0.42769 0.0
H1818 H 0.71421 0.11841 0.45478 0.0
H1819 H 0.71113 0.09821 0.40624 0.0
H1820 H 0.61253 0.09336 0.49635 0.0
H1821 H 0.59588 0.04864 0.37722 0.0
H1822 H 0.6551 0.16676 0.48455 0.0
H1823 H 0.6836 0.14223 0.50112 0.0
H1824 H 0.64592 0.14313 0.51954 0.0
H1825 H 0.62711 0.10851 0.33947 0.0
H1826 H 0.62604 0.06653 0.33302 0.0
H1827 H 0.66434 0.09287 0.35181 0.0
C1828 C 0.74103 0.62937 0.35952 0.0
C1829 C 0.75511 0.63299 0.3271 0.0
C1830 C 0.75445 0.61168 0.38611 0.0
C1831 C 0.78259 0.59792 0.37994 0.0
C1832 C 0.79469 0.59914 0.34521 0.0
C1833 C 0.78064 0.61658 0.31918 0.0
C1834 C 0.7399 0.60986 0.42187 0.0
C1835 C 0.8244 0.58443 0.33695 0.0
C1836 C 0.85777 0.5967 0.4513 0.0
C1837 C 0.85913 0.56444 0.44437 0.0
C1838 C 0.82987 0.60815 0.43505 0.0
C1839 C 0.80311 0.58668 0.41132 0.0
C1840 C 0.8023 0.554 0.40986 0.0
C1841 C 0.83072 0.54313 0.42595 0.0
C1842 C 0.83112 0.64328 0.43872 0.0
C1843 C 0.77315 0.5305 0.38727 0.0
H1844 H 0.72097 0.64186 0.3654 0.0
H1845 H 0.79106 0.61898 0.29366 0.0
H1846 H 0.74515 0.58888 0.43435 0.0
H1847 H 0.75048 0.63118 0.44406 0.0
H1848 H 0.71279 0.60926 0.41534 0.0
H1849 H 0.82969 0.58657 0.30787 0.0
H1850 H 0.84649 0.59602 0.35885 0.0
H1851 H 0.8205 0.5591 0.33872 0.0
H1852 H 0.87959 0.61315 0.46617 0.0
H1853 H 0.83152 0.51807 0.42168 0.0
H1854 H 0.80735 0.65012 0.44424 0.0
H1855 H 0.83547 0.65038 0.41123 0.0
H1856 H 0.85114 0.65651 0.46244 0.0
H1857 H 0.74973 0.53979 0.38903 0.0
H1858 H 0.77206 0.50788 0.39798 0.0
H1859 H 0.77542 0.52568 0.35642 0.0
C1860 C 0.34966 0.79459 0.32556 0.0
C1861 C 0.317 0.79071 0.33107 0.0
C1862 C 0.37346 0.81802 0.34991 0.0
C1863 C 0.36408 0.83825 0.37997 0.0
C1864 C 0.33135 0.83359 0.38655 0.0
C1865 C 0.3082 0.80954 0.36217 0.0
C1866 C 0.40807 0.82246 0.34179 0.0
C1867 C 0.31991 0.85544 0.41711 0.0
C1868 C 0.43455 0.89087 0.45159 0.0
C1869 C 0.43577 0.91847 0.43626 0.0
C1870 C 0.4103 0.86478 0.43464 0.0
C1871 C 0.38751 0.8664 0.40115 0.0
C1872 C 0.38846 0.89451 0.38601 0.0
C1873 C 0.41263 0.92024 0.40384 0.0
C1874 C 0.41013 0.83518 0.45154 0.0
C1875 C 0.3649 0.89701 0.35001 0.0
H1876 H 0.3564 0.77985 0.30152 0.0
H1877 H 0.28277 0.80679 0.36604 0.0
H1878 H 0.41312 0.84515 0.33186 0.0
H1879 H 0.42631 0.82351 0.36853 0.0
H1880 H 0.41193 0.80325 0.31928 0.0
H1881 H 0.31329 0.87632 0.40532 0.0
H1882 H 0.29767 0.84387 0.4258 0.0
H1883 H 0.33955 0.86389 0.44304 0.0
H1884 H 0.45324 0.88931 0.47593 0.0
H1885 H 0.41388 0.94166 0.39193 0.0
H1886 H 0.4224 0.81832 0.4344 0.0
H1887 H 0.38458 0.82365 0.45041 0.0
H1888 H 0.42354 0.84007 0.48199 0.0
H1889 H 0.36858 0.8799 0.32511 0.0
H1890 H 0.36832 0.92095 0.34285 0.0
H1891 H 0.33906 0.89105 0.3537 0.0
C1892 C 0.20509 0.35845 0.34412 0.0
C1893 C 0.21885 0.33532 0.3614 0.0
C1894 C 0.18848 0.37946 0.36456 0.0
C1895 C 0.18564 0.3771 0.40307 0.0
C1896 C 0.20102 0.35479 0.42121 0.0
C1897 C 0.21759 0.33417 0.40012 0.0
C1898 C 0.17226 0.40285 0.34411 0.0
C1899 C 0.19874 0.35173 0.46223 0.0
C1900 C 0.15203 0.44455 0.4566 0.0
C1901 C 0.11821 0.43309 0.44721 0.0
C1902 C 0.1748 0.42595 0.44417 0.0
C1903 C 0.1632 0.39531 0.42227 0.0
C1904 C 0.12921 0.38292 0.41542 0.0
C1905 C 0.10709 0.40208 0.42784 0.0
C1906 C 0.21086 0.43981 0.45222 0.0
C1907 C 0.11595 0.3501 0.39291 0.0
H1908 H 0.20606 0.35925 0.31411 0.0
H1909 H 0.22848 0.31634 0.41351 0.0
H1910 H 0.14507 0.39623 0.33924 0.0
H1911 H 0.1787 0.42674 0.36224 0.0
H1912 H 0.17957 0.40378 0.31569 0.0
H1913 H 0.21082 0.33217 0.47149 0.0
H1914 H 0.21071 0.37395 0.48202 0.0
H1915 H 0.17254 0.34764 0.46532 0.0
H1916 H 0.16045 0.46863 0.4716 0.0
H1917 H 0.08085 0.39327 0.42105 0.0
H1918 H 0.21819 0.44477 0.42499 0.0
H1919 H 0.22622 0.42288 0.46287 0.0
H1920 H 0.21635 0.46208 0.47381 0.0
H1921 H 0.11915 0.34881 0.36246 0.0
H1922 H 0.08937 0.34313 0.39308 0.0
H1923 H 0.12987 0.33276 0.40509 0.0
C1924 C 0.29801 0.17201 0.64593 0.0
C1925 C 0.29548 0.18239 0.68443 0.0
C1926 C 0.31657 0.14824 0.63607 0.0
C1927 C 0.3327 0.13409 0.66537 0.0
C1928 C 0.32994 0.14425 0.70434 0.0
C1929 C 0.31162 0.16853 0.71344 0.0
C1930 C 0.31915 0.13848 0.59425 0.0
C1931 C 0.34623 0.12942 0.73637 0.0
C1932 C 0.35584 0.05424 0.62955 0.0
C1933 C 0.3893 0.06226 0.62821 0.0
C1934 C 0.33745 0.07715 0.64308 0.0
C1935 C 0.35271 0.10899 0.65491 0.0
C1936 C 0.38663 0.11712 0.65419 0.0
C1937 C 0.40455 0.09363 0.64115 0.0
C1938 C 0.30153 0.06738 0.644 0.0
C1939 C 0.40375 0.15081 0.666 0.0
H1940 H 0.28562 0.18268 0.62338 0.0
H1941 H 0.31014 0.17679 0.74328 0.0
H1942 H 0.3454 0.14189 0.59122 0.0
H1943 H 0.3093 0.11309 0.58419 0.0
H1944 H 0.30547 0.15207 0.57503 0.0
H1945 H 0.34248 0.14055 0.76526 0.0
H1946 H 0.33608 0.10399 0.73122 0.0
H1947 H 0.37308 0.1313 0.73665 0.0
H1948 H 0.34405 0.02995 0.62006 0.0
H1949 H 0.43034 0.09999 0.63992 0.0
H1950 H 0.28597 0.07825 0.62315 0.0
H1951 H 0.29644 0.07593 0.6731 0.0
H1952 H 0.29399 0.04143 0.63661 0.0
H1953 H 0.39243 0.16529 0.64616 0.0
H1954 H 0.43053 0.15306 0.66545 0.0
H1955 H 0.40055 0.16073 0.69553 0.0
C1956 C 0.78702 0.29566 0.60615 0.0
C1957 C 0.79859 0.27263 0.62559 0.0
C1958 C 0.80736 0.31271 0.58653 0.0
C1959 C 0.83982 0.30632 0.58638 0.0
C1960 C 0.85007 0.28051 0.60198 0.0
C1961 C 0.82931 0.26399 0.62172 0.0
C1962 C 0.79534 0.33979 0.56978 0.0
C1963 C 0.88413 0.27237 0.60125 0.0
C1964 C 0.89192 0.35562 0.53298 0.0
C1965 C 0.90729 0.38066 0.56294 0.0
C1966 C 0.87067 0.33041 0.54012 0.0
C1967 C 0.8647 0.33052 0.57806 0.0
C1968 C 0.88116 0.35521 0.60858 0.0
C1969 C 0.90227 0.37992 0.60062 0.0
C1970 C 0.85374 0.30449 0.50683 0.0
C1971 C 0.87559 0.35622 0.64955 0.0
H1972 H 0.76302 0.30201 0.60868 0.0
H1973 H 0.83802 0.24576 0.63625 0.0
H1974 H 0.80737 0.36231 0.58904 0.0
H1975 H 0.80205 0.3402 0.54103 0.0
H1976 H 0.76821 0.33856 0.5668 0.0
H1977 H 0.88589 0.24835 0.60728 0.0
H1978 H 0.89108 0.27392 0.57282 0.0
H1979 H 0.9023 0.28946 0.62359 0.0
H1980 H 0.89586 0.35607 0.50379 0.0
H1981 H 0.91428 0.3991 0.62393 0.0
H1982 H 0.82815 0.30846 0.49713 0.0
H1983 H 0.85235 0.28115 0.51567 0.0
H1984 H 0.86656 0.30395 0.48183 0.0
H1985 H 0.84933 0.35767 0.6506 0.0
H1986 H 0.89109 0.37663 0.67005 0.0
H1987 H 0.88115 0.33434 0.6596 0.0
C1988 C 0.13754 0.68328 0.65906 0.0
C1989 C 0.15928 0.67328 0.68719 0.0
C1990 C 0.10936 0.66287 0.63793 0.0
C1991 C 0.10375 0.63157 0.6443 0.0
C1992 C 0.12593 0.62139 0.67252 0.0
C1993 C 0.15316 0.64262 0.69416 0.0
C1994 C 0.08564 0.67476 0.60895 0.0
C1995 C 0.12133 0.58788 0.67926 0.0
C1996 C 0.02238 0.57658 0.6163 0.0
C1997 C 0.0267 0.55804 0.58224 0.0
C1998 C 0.04626 0.6024 0.63538 0.0
C1999 C 0.0755 0.60881 0.62068 0.0
C2000 C 0.07924 0.59087 0.58542 0.0
C2001 C 0.0545 0.56592 0.56641 0.0
C2002 C 0.0409 0.62188 0.67212 0.0
C2003 C 0.11035 0.59642 0.56919 0.0
H2004 H 0.14226 0.70723 0.65415 0.0
H2005 H 0.17021 0.635 0.71585 0.0
H2006 H 0.08554 0.66223 0.57932 0.0
H2007 H 0.0602 0.66986 0.6145 0.0
H2008 H 0.09213 0.70044 0.60993 0.0
H2009 H 0.14143 0.5836 0.70149 0.0
H2010 H 0.09754 0.58229 0.68872 0.0
H2011 H 0.12049 0.57134 0.65189 0.0
H2012 H 0.00062 0.5706 0.6283 0.0
H2013 H 0.05788 0.55144 0.54027 0.0
H2014 H 0.04739 0.64735 0.67193 0.0
H2015 H 0.05718 0.61651 0.6973 0.0
H2016 H 0.01497 0.61709 0.6762 0.0
H2017 H 0.11661 0.62156 0.56741 0.0
H2018 H 0.10815 0.58203 0.53995 0.0
H2019 H 0.13121 0.59034 0.58877 0.0
loop_
_geom_bond_atom_site_label_1
_geom_bond_atom_site_label_2
_geom_bond_distance
_geom_bond_site_symmetry_2
_ccdc_geom_bond_type
Tb0 O3 2.453 . S
Tb0 O4 2.596 . S
Tb0 O5 2.374 . S
Tb0 O13 2.343 . S
Tb0 O15 2.353 . S
Tb0 O17 2.427 . S
Tb0 O18 2.513 . S
C1 O5 1.251 . S
C1 O7 1.263 . S
Tb2 O4 2.343 . S
Tb2 O7 2.353 . S
Tb2 O10 2.427 . S
Tb2 O11 2.513 . S
Tb2 O12 2.453 . S
Tb2 O13 2.596 . S
Tb2 O14 2.374 . S
O3 Tb0 2.453 . S
O3 C19 1.245 . S
O4 Tb0 2.596 . S
O4 Tb2 2.343 . S
O4 C19 1.259 . S
O5 Tb0 2.374 . S
O5 C1 1.251 . S
C6 O10 1.275 . S
C6 O11 1.246 . S
O7 C1 1.263 . S
O7 Tb2 2.353 . S
C8 O12 1.245 . S
C8 O13 1.259 . S
C9 O14 1.250 . S
C9 O15 1.263 . S
O10 Tb2 2.427 . S
O10 C6 1.275 . S
O11 Tb2 2.513 . S
O11 C6 1.246 . S
O12 Tb2 2.453 . S
O12 C8 1.245 . S
O13 Tb0 2.343 . S
O13 Tb2 2.596 . S
O13 C8 1.259 . S
O14 Tb2 2.374 . S
O14 C9 1.250 . S
O15 Tb0 2.353 . S
O15 C9 1.263 . S
C16 O17 1.275 . S
C16 O18 1.246 . S
O17 Tb0 2.427 . S
O17 C16 1.275 . S
O18 Tb0 2.513 . S
O18 C16 1.246 . S
C19 O3 1.245 . S
C19 O4 1.259 . S
Tb20 O23 2.453 . S
Tb20 O24 2.596 . S
Tb20 O25 2.374 . S
Tb20 O33 2.343 . S
Tb20 O35 2.353 . S
Tb20 O37 2.427 . S
Tb20 O38 2.513 . S
C21 O25 1.251 . S
C21 O27 1.263 . S
Tb22 O24 2.343 . S
Tb22 O27 2.353 . S
Tb22 O30 2.427 . S
Tb22 O31 2.513 . S
Tb22 O32 2.453 . S
Tb22 O33 2.596 . S
Tb22 O34 2.374 . S
O23 Tb20 2.453 . S
O23 C39 1.245 . S
O24 Tb20 2.596 . S
O24 Tb22 2.343 . S
O24 C39 1.259 . S
O25 Tb20 2.374 . S
O25 C21 1.251 . S
C26 O30 1.275 . S
C26 O31 1.246 . S
O27 C21 1.263 . S
O27 Tb22 2.353 . S
C28 O32 1.245 . S
C28 O33 1.259 . S
C29 O34 1.250 . S
C29 O35 1.263 . S
O30 Tb22 2.427 . S
O30 C26 1.275 . S
O31 Tb22 2.513 . S
O31 C26 1.246 . S
O32 Tb22 2.453 . S
O32 C28 1.245 . S
O33 Tb20 2.343 . S
O33 Tb22 2.596 . S
O33 C28 1.259 . S
O34 Tb22 2.374 . S
O34 C29 1.250 . S
O35 Tb20 2.353 . S
O35 C29 1.263 . S
C36 O37 1.275 . S
C36 O38 1.246 . S
O37 Tb20 2.427 . S
O37 C36 1.275 . S
O38 Tb20 2.513 . S
O38 C36 1.246 . S
C39 O23 1.245 . S
C39 O24 1.259 . S
Tb40 O43 2.453 . S
Tb40 O44 2.596 . S
Tb40 O45 2.374 . S
Tb40 O53 2.343 . S
Tb40 O55 2.353 . S
Tb40 O57 2.427 . S
Tb40 O58 2.513 . S
C41 O45 1.251 . S
C41 O47 1.263 . S
Tb42 O44 2.343 . S
Tb42 O47 2.353 . S
Tb42 O50 2.427 . S
Tb42 O51 2.513 . S
Tb42 O52 2.453 . S
Tb42 O53 2.596 . S
Tb42 O54 2.374 . S
O43 Tb40 2.453 . S
O43 C59 1.245 . S
O44 Tb40 2.596 . S
O44 Tb42 2.343 . S
O44 C59 1.259 . S
O45 Tb40 2.374 . S
O45 C41 1.251 . S
C46 O50 1.275 . S
C46 O51 1.246 . S
O47 C41 1.263 . S
O47 Tb42 2.353 . S
C48 O52 1.245 . S
C48 O53 1.259 . S
C49 O54 1.250 . S
C49 O55 1.263 . S
O50 Tb42 2.427 . S
O50 C46 1.275 . S
O51 Tb42 2.513 . S
O51 C46 1.246 . S
O52 Tb42 2.453 . S
O52 C48 1.245 . S
O53 Tb40 2.343 . S
O53 Tb42 2.596 . S
O53 C48 1.259 . S
O54 Tb42 2.374 . S
O54 C49 1.250 . S
O55 Tb40 2.353 . S
O55 C49 1.263 . S
C56 O57 1.275 . S
C56 O58 1.246 . S
O57 Tb40 2.427 . S
O57 C56 1.275 . S
O58 Tb40 2.513 . S
O58 C56 1.246 . S
C59 O43 1.245 . S
C59 O44 1.259 . S
Tb60 O63 2.453 . S
Tb60 O64 2.596 . S
Tb60 O65 2.374 . S
Tb60 O73 2.343 . S
Tb60 O75 2.353 . S
Tb60 O77 2.427 . S
Tb60 O78 2.513 . S
C61 O65 1.251 . S
C61 O67 1.263 . S
Tb62 O64 2.343 . S
Tb62 O67 2.353 . S
Tb62 O70 2.427 . S
Tb62 O71 2.513 . S
Tb62 O72 2.453 . S
Tb62 O73 2.596 . S
Tb62 O74 2.374 . S
O63 Tb60 2.453 . S
O63 C79 1.245 . S
O64 Tb60 2.596 . S
O64 Tb62 2.343 . S
O64 C79 1.259 . S
O65 Tb60 2.374 . S
O65 C61 1.251 . S
C66 O70 1.275 . S
C66 O71 1.246 . S
O67 C61 1.263 . S
O67 Tb62 2.353 . S
C68 O72 1.245 . S
C68 O73 1.259 . S
C69 O74 1.250 . S
C69 O75 1.263 . S
O70 Tb62 2.427 . S
O70 C66 1.275 . S
O71 Tb62 2.513 . S
O71 C66 1.246 . S
O72 Tb62 2.453 . S
O72 C68 1.245 . S
O73 Tb60 2.343 . S
O73 Tb62 2.596 . S
O73 C68 1.259 . S
O74 Tb62 2.374 . S
O74 C69 1.250 . S
O75 Tb60 2.353 . S
O75 C69 1.263 . S
C76 O77 1.275 . S
C76 O78 1.246 . S
O77 Tb60 2.427 . S
O77 C76 1.275 . S
O78 Tb60 2.513 . S
O78 C76 1.246 . S
C79 O63 1.245 . S
C79 O64 1.259 . S
Tb80 O83 2.453 . S
Tb80 O84 2.596 . S
Tb80 O85 2.374 . S
Tb80 O93 2.343 . S
Tb80 O95 2.353 . S
Tb80 O97 2.427 . S
Tb80 O98 2.513 . S
C81 O85 1.251 . S
C81 O87 1.263 . S
Tb82 O84 2.343 . S
Tb82 O87 2.353 . S
Tb82 O90 2.427 . S
Tb82 O91 2.513 . S
Tb82 O92 2.453 . S
Tb82 O93 2.596 . S
Tb82 O94 2.374 . S
O83 Tb80 2.453 . S
O83 C99 1.245 . S
O84 Tb80 2.596 . S
O84 Tb82 2.343 . S
O84 C99 1.259 . S
O85 Tb80 2.374 . S
O85 C81 1.251 . S
C86 O90 1.275 . S
C86 O91 1.246 . S
O87 C81 1.263 . S
O87 Tb82 2.353 . S
C88 O92 1.245 . S
C88 O93 1.259 . S
C89 O94 1.250 . S
C89 O95 1.263 . S
O90 Tb82 2.427 . S
O90 C86 1.275 . S
O91 Tb82 2.513 . S
O91 C86 1.246 . S
O92 Tb82 2.453 . S
O92 C88 1.245 . S
O93 Tb80 2.343 . S
O93 Tb82 2.596 . S
O93 C88 1.259 . S
O94 Tb82 2.374 . S
O94 C89 1.250 . S
O95 Tb80 2.353 . S
O95 C89 1.263 . S
C96 O97 1.275 . S
C96 O98 1.246 . S
O97 Tb80 2.427 . S
O97 C96 1.275 . S
O98 Tb80 2.513 . S
O98 C96 1.246 . S
C99 O83 1.245 . S
C99 O84 1.259 . S
Tb100 O103 2.453 . S
Tb100 O104 2.596 . S
Tb100 O105 2.374 . S
Tb100 O113 2.343 . S
Tb100 O115 2.353 . S
Tb100 O117 2.427 . S
Tb100 O118 2.513 . S
C101 O105 1.251 . S
C101 O107 1.263 . S
Tb102 O104 2.343 . S
Tb102 O107 2.353 . S
Tb102 O110 2.427 . S
Tb102 O111 2.513 . S
Tb102 O112 2.453 . S
Tb102 O113 2.596 . S
Tb102 O114 2.374 . S
O103 Tb100 2.453 . S
O103 C119 1.245 . S
O104 Tb100 2.596 . S
O104 Tb102 2.343 . S
O104 C119 1.259 . S
O105 Tb100 2.374 . S
O105 C101 1.251 . S
C106 O110 1.275 . S
C106 O111 1.246 . S
O107 C101 1.263 . S
O107 Tb102 2.353 . S
C108 O112 1.245 . S
C108 O113 1.259 . S
C109 O114 1.250 . S
C109 O115 1.263 . S
O110 Tb102 2.427 . S
O110 C106 1.275 . S
O111 Tb102 2.513 . S
O111 C106 1.246 . S
O112 Tb102 2.453 . S
O112 C108 1.245 . S
O113 Tb100 2.343 . S
O113 Tb102 2.596 . S
O113 C108 1.259 . S
O114 Tb102 2.374 . S
O114 C109 1.250 . S
O115 Tb100 2.353 . S
O115 C109 1.263 . S
C116 O117 1.275 . S
C116 O118 1.246 . S
O117 Tb100 2.427 . S
O117 C116 1.275 . S
O118 Tb100 2.513 . S
O118 C116 1.246 . S
C119 O103 1.245 . S
C119 O104 1.259 . S
Tb120 O123 2.453 . S
Tb120 O124 2.596 . S
Tb120 O125 2.374 . S
Tb120 O133 2.343 . S
Tb120 O135 2.353 . S
Tb120 O137 2.427 . S
Tb120 O138 2.513 . S
C121 O125 1.251 . S
C121 O127 1.263 . S
Tb122 O124 2.343 . S
Tb122 O127 2.353 . S
Tb122 O130 2.427 . S
Tb122 O131 2.513 . S
Tb122 O132 2.453 . S
Tb122 O133 2.596 . S
Tb122 O134 2.374 . S
O123 Tb120 2.453 . S
O123 C139 1.245 . S
O124 Tb120 2.596 . S
O124 Tb122 2.343 . S
O124 C139 1.259 . S
O125 Tb120 2.374 . S
O125 C121 1.251 . S
C126 O130 1.275 . S
C126 O131 1.246 . S
O127 C121 1.263 . S
O127 Tb122 2.353 . S
C128 O132 1.245 . S
C128 O133 1.259 . S
C129 O134 1.250 . S
C129 O135 1.263 . S
O130 Tb122 2.427 . S
O130 C126 1.275 . S
O131 Tb122 2.513 . S
O131 C126 1.246 . S
O132 Tb122 2.453 . S
O132 C128 1.245 . S
O133 Tb120 2.343 . S
O133 Tb122 2.596 . S
O133 C128 1.259 . S
O134 Tb122 2.374 . S
O134 C129 1.250 . S
O135 Tb120 2.353 . S
O135 C129 1.263 . S
C136 O137 1.275 . S
C136 O138 1.246 . S
O137 Tb120 2.427 . S
O137 C136 1.275 . S
O138 Tb120 2.513 . S
O138 C136 1.246 . S
C139 O123 1.245 . S
C139 O124 1.259 . S
Tb140 O143 2.453 . S
Tb140 O144 2.596 . S
Tb140 O145 2.374 . S
Tb140 O153 2.343 . S
Tb140 O155 2.353 . S
Tb140 O157 2.427 . S
Tb140 O158 2.513 . S
C141 O145 1.251 . S
C141 O147 1.263 . S
Tb142 O144 2.343 . S
Tb142 O147 2.353 . S
Tb142 O150 2.427 . S
Tb142 O151 2.513 . S
Tb142 O152 2.453 . S
Tb142 O153 2.596 . S
Tb142 O154 2.374 . S
O143 Tb140 2.453 . S
O143 C159 1.245 . S
O144 Tb140 2.596 . S
O144 Tb142 2.343 . S
O144 C159 1.259 . S
O145 Tb140 2.374 . S
O145 C141 1.251 . S
C146 O150 1.275 . S
C146 O151 1.246 . S
O147 C141 1.263 . S
O147 Tb142 2.353 . S
C148 O152 1.245 . S
C148 O153 1.259 . S
C149 O154 1.250 . S
C149 O155 1.263 . S
O150 Tb142 2.427 . S
O150 C146 1.275 . S
O151 Tb142 2.513 . S
O151 C146 1.246 . S
O152 Tb142 2.453 . S
O152 C148 1.245 . S
O153 Tb140 2.343 . S
O153 Tb142 2.596 . S
O153 C148 1.259 . S
O154 Tb142 2.374 . S
O154 C149 1.250 . S
O155 Tb140 2.353 . S
O155 C149 1.263 . S
C156 O157 1.275 . S
C156 O158 1.246 . S
O157 Tb140 2.427 . S
O157 C156 1.275 . S
O158 Tb140 2.513 . S
O158 C156 1.246 . S
C159 O143 1.245 . S
C159 O144 1.259 . S
Cd160 N163 2.334 1_655 S
Cd160 N189 2.304 1_565 S
Cd160 O196 2.268 . S
Cd160 O199 2.273 1_665 S
Cd160 O200 2.417 . S
Cd160 O201 2.330 . S
Cd161 N176 2.304 1_455 S
Cd161 N180 2.334 1_545 S
Cd161 O197 2.273 1_445 S
Cd161 O198 2.268 . S
Cd161 O202 2.417 . S
Cd161 O203 2.330 . S
C162 N163 1.332 . S
C162 C166 1.381 . S
C162 H168 0.931 . S
N163 Cd160 2.334 1_455 S
N163 C162 1.332 . S
N163 C167 1.328 . S
C164 C165 1.396 . S
C164 C167 1.378 . S
C164 H206 0.931 . S
C165 C164 1.396 . S
C165 C166 1.382 . S
C166 C162 1.381 . S
C166 C165 1.382 . S
C166 H207 0.930 . S
C167 N163 1.328 . S
C167 C164 1.378 . S
C167 H169 0.930 1_455 S
H168 C162 0.931 . S
H169 C167 0.930 1_655 S
C170 O196 1.238 . S
C170 O197 1.253 . S
C171 C172 1.379 . S
C171 N176 1.337 . S
C171 H177 0.929 . S
C172 C171 1.379 . S
C172 C173 1.380 . S
C172 H208 0.929 . S
C173 C172 1.380 . S
C173 C174 1.399 . S
C174 C173 1.399 . S
C174 C175 1.376 . S
C174 H209 0.931 . S
C175 C174 1.376 . S
C175 N176 1.338 . S
C175 H178 0.930 1_655 S
N176 Cd161 2.304 1_655 S
N176 C171 1.337 . S
N176 C175 1.338 . S
H177 C171 0.929 . S
H178 C175 0.930 1_455 S
C179 N180 1.332 . S
C179 C183 1.381 . S
C179 H185 0.931 . S
N180 Cd161 2.334 1_565 S
N180 C179 1.332 . S
N180 C184 1.328 . S
C181 C182 1.396 . S
C181 C184 1.378 . S
C181 H210 0.931 . S
C182 C181 1.396 . S
C182 C183 1.382 . S
C183 C179 1.381 . S
C183 C182 1.382 . S
C183 H211 0.930 . S
C184 N180 1.328 . S
C184 C181 1.378 . S
C184 H186 0.930 1_565 S
H185 C179 0.931 . S
H186 C184 0.930 1_545 S
C187 O198 1.238 . S
C187 O199 1.253 . S
C188 O200 1.239 . S
C188 O201 1.230 . S
N189 Cd160 2.304 1_545 S
N189 C190 1.337 . S
N189 C194 1.338 . S
C190 N189 1.337 . S
C190 C191 1.379 . S
C190 H204 0.929 . S
C191 C190 1.379 . S
C191 C192 1.380 . S
C191 H212 0.929 . S
C192 C191 1.380 . S
C192 C193 1.399 . S
C193 C192 1.399 . S
C193 C194 1.376 . S
C193 H213 0.931 . S
C194 N189 1.338 . S
C194 C193 1.376 . S
C194 H205 0.930 1_545 S
C195 O202 1.239 . S
C195 O203 1.230 . S
O196 Cd160 2.268 . S
O196 C170 1.238 . S
O197 Cd161 2.273 1_665 S
O197 C170 1.253 . S
O198 Cd161 2.268 . S
O198 C187 1.238 . S
O199 Cd160 2.273 1_445 S
O199 C187 1.253 . S
O200 Cd160 2.417 . S
O200 C188 1.239 . S
O201 Cd160 2.330 . S
O201 C188 1.230 . S
O202 Cd161 2.417 . S
O202 C195 1.239 . S
O203 Cd161 2.330 . S
O203 C195 1.230 . S
H204 C190 0.929 . S
H205 C194 0.930 1_565 S
H206 C164 0.931 . S
H207 C166 0.930 . S
H208 C172 0.929 . S
H209 C174 0.931 . S
H210 C181 0.931 . S
H211 C183 0.930 . S
H212 C191 0.929 . S
H213 C193 0.931 . S
Cd214 N217 2.334 . S
Cd214 N243 2.304 1_565 S
Cd214 O250 2.268 1_554 S
Cd214 O253 2.273 1_565 S
Cd214 O254 2.417 . S
Cd214 O255 2.330 . S
Cd215 N230 2.304 . S
Cd215 N234 2.334 1_545 S
Cd215 O251 2.273 1_545 S
Cd215 O252 2.268 1_556 S
Cd215 O256 2.417 . S
Cd215 O257 2.330 . S
C216 N217 1.332 . S
C216 C220 1.381 . S
C216 H222 0.931 . S
N217 Cd214 2.334 . S
N217 C216 1.332 . S
N217 C221 1.328 . S
C218 C219 1.396 . S
C218 C221 1.378 . S
C218 H260 0.931 1_554 S
C219 C218 1.396 . S
C219 C220 1.382 . S
C220 C216 1.381 . S
C220 C219 1.382 . S
C220 H261 0.930 . S
C221 N217 1.328 . S
C221 C218 1.378 . S
C221 H223 0.930 1_554 S
H222 C216 0.931 . S
H223 C221 0.930 1_556 S
C224 O250 1.238 . S
C224 O251 1.253 . S
C225 C226 1.379 . S
C225 N230 1.337 . S
C225 H231 0.929 . S
C226 C225 1.379 . S
C226 C227 1.380 . S
C226 H262 0.929 . S
C227 C226 1.380 . S
C227 C228 1.399 . S
C228 C227 1.399 . S
C228 C229 1.376 . S
C228 H263 0.931 1_556 S
C229 C228 1.376 . S
C229 N230 1.338 . S
C229 H232 0.930 1_556 S
N230 Cd215 2.304 . S
N230 C225 1.337 . S
N230 C229 1.338 . S
H231 C225 0.929 . S
H232 C229 0.930 1_554 S
C233 N234 1.332 . S
C233 C237 1.381 . S
C233 H239 0.931 . S
N234 Cd215 2.334 1_565 S
N234 C233 1.332 . S
N234 C238 1.328 . S
C235 C236 1.396 . S
C235 C238 1.378 . S
C235 H264 0.931 1_556 S
C236 C235 1.396 . S
C236 C237 1.382 . S
C237 C233 1.381 . S
C237 C236 1.382 . S
C237 H265 0.930 . S
C238 N234 1.328 . S
C238 C235 1.378 . S
C238 H240 0.930 1_566 S
H239 C233 0.931 . S
H240 C238 0.930 1_544 S
C241 O252 1.238 . S
C241 O253 1.253 . S
C242 O254 1.239 . S
C242 O255 1.230 . S
N243 Cd214 2.304 1_545 S
N243 C244 1.337 . S
N243 C248 1.338 . S
C244 N243 1.337 . S
C244 C245 1.379 . S
C244 H258 0.929 . S
C245 C244 1.379 . S
C245 C246 1.380 . S
C245 H266 0.929 . S
C246 C245 1.380 . S
C246 C247 1.399 . S
C247 C246 1.399 . S
C247 C248 1.376 . S
C247 H267 0.931 1_554 S
C248 N243 1.338 . S
C248 C247 1.376 . S
C248 H259 0.930 1_544 S
C249 O256 1.239 . S
C249 O257 1.230 . S
O250 Cd214 2.268 1_556 S
O250 C224 1.238 . S
O251 Cd215 2.273 1_565 S
O251 C224 1.253 . S
O252 Cd215 2.268 1_554 S
O252 C241 1.238 . S
O253 Cd214 2.273 1_545 S
O253 C241 1.253 . S
O254 Cd214 2.417 . S
O254 C242 1.239 . S
O255 Cd214 2.330 . S
O255 C242 1.230 . S
O256 Cd215 2.417 . S
O256 C249 1.239 . S
O257 Cd215 2.330 . S
O257 C249 1.230 . S
H258 C244 0.929 . S
H259 C248 0.930 1_566 S
H260 C218 0.931 1_556 S
H261 C220 0.930 . S
H262 C226 0.929 . S
H263 C228 0.931 1_554 S
H264 C235 0.931 1_554 S
H265 C237 0.930 . S
H266 C245 0.929 . S
H267 C247 0.931 1_556 S
Cd268 N271 2.334 1_655 S
Cd268 N297 2.304 . S
Cd268 O304 2.268 1_554 S
Cd268 O307 2.273 1_655 S
Cd268 O308 2.417 . S
Cd268 O309 2.330 . S
Cd269 N284 2.304 1_455 S
Cd269 N288 2.334 . S
Cd269 O305 2.273 1_455 S
Cd269 O306 2.268 1_556 S
Cd269 O310 2.417 . S
Cd269 O311 2.330 . S
C270 N271 1.332 . S
C270 C274 1.381 . S
C270 H276 0.931 . S
N271 Cd268 2.334 1_455 S
N271 C270 1.332 . S
N271 C275 1.328 . S
C272 C273 1.396 . S
C272 C275 1.378 . S
C272 H314 0.931 1_554 S
C273 C272 1.396 . S
C273 C274 1.382 . S
C274 C270 1.381 . S
C274 C273 1.382 . S
C274 H315 0.930 . S
C275 N271 1.328 . S
C275 C272 1.378 . S
C275 H277 0.930 1_454 S
H276 C270 0.931 . S
H277 C275 0.930 1_656 S
C278 O304 1.238 . S
C278 O305 1.253 . S
C279 C280 1.379 . S
C279 N284 1.337 . S
C279 H285 0.929 . S
C280 C279 1.379 . S
C280 C281 1.380 . S
C280 H316 0.929 . S
C281 C280 1.380 . S
C281 C282 1.399 . S
C282 C281 1.399 . S
C282 C283 1.376 . S
C282 H317 0.931 1_556 S
C283 C282 1.376 . S
C283 N284 1.338 . S
C283 H286 0.930 1_656 S
N284 Cd269 2.304 1_655 S
N284 C279 1.337 . S
N284 C283 1.338 . S
H285 C279 0.929 . S
H286 C283 0.930 1_454 S
C287 N288 1.332 . S
C287 C291 1.381 . S
C287 H293 0.931 . S
N288 Cd269 2.334 . S
N288 C287 1.332 . S
N288 C292 1.328 . S
C289 C290 1.396 . S
C289 C292 1.378 . S
C289 H318 0.931 1_556 S
C290 C289 1.396 . S
C290 C291 1.382 . S
C291 C287 1.381 . S
C291 C290 1.382 . S
C291 H319 0.930 . S
C292 N288 1.328 . S
C292 C289 1.378 . S
C292 H294 0.930 1_556 S
H293 C287 0.931 . S
H294 C292 0.930 1_554 S
C295 O306 1.238 . S
C295 O307 1.253 . S
C296 O308 1.239 . S
C296 O309 1.230 . S
N297 Cd268 2.304 . S
N297 C298 1.337 . S
N297 C302 1.338 . S
C298 N297 1.337 . S
C298 C299 1.379 . S
C298 H312 0.929 . S
C299 C298 1.379 . S
C299 C300 1.380 . S
C299 H320 0.929 . S
C300 C299 1.380 . S
C300 C301 1.399 . S
C301 C300 1.399 . S
C301 C302 1.376 . S
C301 H321 0.931 1_554 S
C302 N297 1.338 . S
C302 C301 1.376 . S
C302 H313 0.930 1_554 S
C303 O310 1.239 . S
C303 O311 1.230 . S
O304 Cd268 2.268 1_556 S
O304 C278 1.238 . S
O305 Cd269 2.273 1_655 S
O305 C278 1.253 . S
O306 Cd269 2.268 1_554 S
O306 C295 1.238 . S
O307 Cd268 2.273 1_455 S
O307 C295 1.253 . S
O308 Cd268 2.417 . S
O308 C296 1.239 . S
O309 Cd268 2.330 . S
O309 C296 1.230 . S
O310 Cd269 2.417 . S
O310 C303 1.239 . S
O311 Cd269 2.330 . S
O311 C303 1.230 . S
H312 C298 0.929 . S
H313 C302 0.930 1_556 S
H314 C272 0.931 1_556 S
H315 C274 0.930 . S
H316 C280 0.929 . S
H317 C282 0.931 1_554 S
H318 C289 0.931 1_554 S
H319 C291 0.930 . S
H320 C299 0.929 . S
H321 C301 0.931 1_556 S
Cd322 N325 2.334 . S
Cd322 N351 2.304 . S
Cd322 O358 2.268 1_554 S
Cd322 O361 2.273 . S
Cd322 O362 2.417 . S
Cd322 O363 2.330 . S
Cd323 N338 2.304 . S
Cd323 N342 2.334 . S
Cd323 O359 2.273 . S
Cd323 O360 2.268 1_556 S
Cd323 O364 2.417 . S
Cd323 O365 2.330 . S
C324 N325 1.332 . S
C324 C328 1.381 . S
C324 H330 0.931 . S
N325 Cd322 2.334 . S
N325 C324 1.332 . S
N325 C329 1.328 . S
C326 C327 1.396 . S
C326 C329 1.378 . S
C326 H368 0.931 1_554 S
C327 C326 1.396 . S
C327 C328 1.382 . S
C328 C324 1.381 . S
C328 C327 1.382 . S
C328 H369 0.930 . S
C329 N325 1.328 . S
C329 C326 1.378 . S
C329 H331 0.930 1_554 S
H330 C324 0.931 . S
H331 C329 0.930 1_556 S
C332 O358 1.238 . S
C332 O359 1.253 . S
C333 C334 1.379 . S
C333 N338 1.337 . S
C333 H339 0.929 . S
C334 C333 1.379 . S
C334 C335 1.380 . S
C334 H370 0.929 . S
C335 C334 1.380 . S
C335 C336 1.399 . S
C336 C335 1.399 . S
C336 C337 1.376 . S
C336 H371 0.931 1_556 S
C337 C336 1.376 . S
C337 N338 1.338 . S
C337 H340 0.930 1_556 S
N338 Cd323 2.304 . S
N338 C333 1.337 . S
N338 C337 1.338 . S
H339 C333 0.929 . S
H340 C337 0.930 1_554 S
C341 N342 1.332 . S
C341 C345 1.381 . S
C341 H347 0.931 . S
N342 Cd323 2.334 . S
N342 C341 1.332 . S
N342 C346 1.328 . S
C343 C344 1.396 . S
C343 C346 1.378 . S
C343 H372 0.931 1_556 S
C344 C343 1.396 . S
C344 C345 1.382 . S
C345 C341 1.381 . S
C345 C344 1.382 . S
C345 H373 0.930 . S
C346 N342 1.328 . S
C346 C343 1.378 . S
C346 H348 0.930 1_556 S
H347 C341 0.931 . S
H348 C346 0.930 1_554 S
C349 O360 1.238 . S
C349 O361 1.253 . S
C350 O362 1.239 . S
C350 O363 1.230 . S
N351 Cd322 2.304 . S
N351 C352 1.337 . S
N351 C356 1.338 . S
C352 N351 1.337 . S
C352 C353 1.379 . S
C352 H366 0.929 . S
C353 C352 1.379 . S
C353 C354 1.380 . S
C353 H374 0.929 . S
C354 C353 1.380 . S
C354 C355 1.399 . S
C355 C354 1.399 . S
C355 C356 1.376 . S
C355 H375 0.931 1_554 S
C356 N351 1.338 . S
C356 C355 1.376 . S
C356 H367 0.930 1_554 S
C357 O364 1.239 . S
C357 O365 1.230 . S
O358 Cd322 2.268 1_556 S
O358 C332 1.238 . S
O359 Cd323 2.273 . S
O359 C332 1.253 . S
O360 Cd323 2.268 1_554 S
O360 C349 1.238 . S
O361 Cd322 2.273 . S
O361 C349 1.253 . S
O362 Cd322 2.417 . S
O362 C350 1.239 . S
O363 Cd322 2.330 . S
O363 C350 1.230 . S
O364 Cd323 2.417 . S
O364 C357 1.239 . S
O365 Cd323 2.330 . S
O365 C357 1.230 . S
H366 C352 0.929 . S
H367 C356 0.930 1_556 S
H368 C326 0.931 1_556 S
H369 C328 0.930 . S
H370 C334 0.929 . S
H371 C336 0.931 1_554 S
H372 C343 0.931 1_554 S
H373 C345 0.930 . S
H374 C353 0.929 . S
H375 C355 0.931 1_556 S
Cd376 N379 2.334 1_655 S
Cd376 N405 2.304 . S
Cd376 O412 2.268 . S
Cd376 O415 2.273 1_655 S
Cd376 O416 2.417 . S
Cd376 O417 2.330 . S
Cd377 N392 2.304 1_455 S
Cd377 N396 2.334 . S
Cd377 O413 2.273 1_455 S
Cd377 O414 2.268 . S
Cd377 O418 2.417 . S
Cd377 O419 2.330 . S
C378 N379 1.332 . S
C378 C382 1.381 . S
C378 H384 0.931 . S
N379 Cd376 2.334 1_455 S
N379 C378 1.332 . S
N379 C383 1.328 . S
C380 C381 1.396 . S
C380 C383 1.378 . S
C380 H422 0.931 . S
C381 C380 1.396 . S
C381 C382 1.382 . S
C382 C378 1.381 . S
C382 C381 1.382 . S
C382 H423 0.930 . S
C383 N379 1.328 . S
C383 C380 1.378 . S
C383 H385 0.930 1_455 S
H384 C378 0.931 . S
H385 C383 0.930 1_655 S
C386 O412 1.238 . S
C386 O413 1.253 . S
C387 C388 1.379 . S
C387 N392 1.337 . S
C387 H393 0.929 . S
C388 C387 1.379 . S
C388 C389 1.380 . S
C388 H424 0.929 . S
C389 C388 1.380 . S
C389 C390 1.399 . S
C390 C389 1.399 . S
C390 C391 1.376 . S
C390 H425 0.931 . S
C391 C390 1.376 . S
C391 N392 1.338 . S
C391 H394 0.930 1_655 S
N392 Cd377 2.304 1_655 S
N392 C387 1.337 . S
N392 C391 1.338 . S
H393 C387 0.929 . S
H394 C391 0.930 1_455 S
C395 N396 1.332 . S
C395 C399 1.381 . S
C395 H401 0.931 . S
N396 Cd377 2.334 . S
N396 C395 1.332 . S
N396 C400 1.328 . S
C397 C398 1.396 . S
C397 C400 1.378 . S
C397 H426 0.931 . S
C398 C397 1.396 . S
C398 C399 1.382 . S
C399 C395 1.381 . S
C399 C398 1.382 . S
C399 H427 0.930 . S
C400 N396 1.328 . S
C400 C397 1.378 . S
C400 H402 0.930 . S
H401 C395 0.931 . S
H402 C400 0.930 . S
C403 O414 1.238 . S
C403 O415 1.253 . S
C404 O416 1.239 . S
C404 O417 1.230 . S
N405 Cd376 2.304 . S
N405 C406 1.337 . S
N405 C410 1.338 . S
C406 N405 1.337 . S
C406 C407 1.379 . S
C406 H420 0.929 . S
C407 C406 1.379 . S
C407 C408 1.380 . S
C407 H428 0.929 . S
C408 C407 1.380 . S
C408 C409 1.399 . S
C409 C408 1.399 . S
C409 C410 1.376 . S
C409 H429 0.931 . S
C410 N405 1.338 . S
C410 C409 1.376 . S
C410 H421 0.930 . S
C411 O418 1.239 . S
C411 O419 1.230 . S
O412 Cd376 2.268 . S
O412 C386 1.238 . S
O413 Cd377 2.273 1_655 S
O413 C386 1.253 . S
O414 Cd377 2.268 . S
O414 C403 1.238 . S
O415 Cd376 2.273 1_455 S
O415 C403 1.253 . S
O416 Cd376 2.417 . S
O416 C404 1.239 . S
O417 Cd376 2.330 . S
O417 C404 1.230 . S
O418 Cd377 2.417 . S
O418 C411 1.239 . S
O419 Cd377 2.330 . S
O419 C411 1.230 . S
H420 C406 0.929 . S
H421 C410 0.930 . S
H422 C380 0.931 . S
H423 C382 0.930 . S
H424 C388 0.929 . S
H425 C390 0.931 . S
H426 C397 0.931 . S
H427 C399 0.930 . S
H428 C407 0.929 . S
H429 C409 0.931 . S
Cd430 N433 2.334 . S
Cd430 N459 2.304 1_565 S
Cd430 O466 2.268 . S
Cd430 O469 2.273 1_565 S
Cd430 O470 2.417 . S
Cd430 O471 2.330 . S
Cd431 N446 2.304 . S
Cd431 N450 2.334 1_545 S
Cd431 O467 2.273 1_545 S
Cd431 O468 2.268 . S
Cd431 O472 2.417 . S
Cd431 O473 2.330 . S
C432 N433 1.332 . S
C432 C436 1.381 . S
C432 H438 0.931 . S
N433 Cd430 2.334 . S
N433 C432 1.332 . S
N433 C437 1.328 . S
C434 C435 1.396 . S
C434 C437 1.378 . S
C434 H476 0.931 . S
C435 C434 1.396 . S
C435 C436 1.382 . S
C436 C432 1.381 . S
C436 C435 1.382 . S
C436 H477 0.930 . S
C437 N433 1.328 . S
C437 C434 1.378 . S
C437 H439 0.930 . S
H438 C432 0.931 . S
H439 C437 0.930 . S
C440 O466 1.238 . S
C440 O467 1.253 . S
C441 C442 1.379 . S
C441 N446 1.337 . S
C441 H447 0.929 . S
C442 C441 1.379 . S
C442 C443 1.380 . S
C442 H478 0.929 . S
C443 C442 1.380 . S
C443 C444 1.399 . S
C444 C443 1.399 . S
C444 C445 1.376 . S
C444 H479 0.931 . S
C445 C444 1.376 . S
C445 N446 1.338 . S
C445 H448 0.930 . S
N446 Cd431 2.304 . S
N446 C441 1.337 . S
N446 C445 1.338 . S
H447 C441 0.929 . S
H448 C445 0.930 . S
C449 N450 1.332 . S
C449 C453 1.381 . S
C449 H455 0.931 . S
N450 Cd431 2.334 1_565 S
N450 C449 1.332 . S
N450 C454 1.328 . S
C451 C452 1.396 . S
C451 C454 1.378 . S
C451 H480 0.931 . S
C452 C451 1.396 . S
C452 C453 1.382 . S
C453 C449 1.381 . S
C453 C452 1.382 . S
C453 H481 0.930 . S
C454 N450 1.328 . S
C454 C451 1.378 . S
C454 H456 0.930 1_565 S
H455 C449 0.931 . S
H456 C454 0.930 1_545 S
C457 O468 1.238 . S
C457 O469 1.253 . S
C458 O470 1.239 . S
C458 O471 1.230 . S
N459 Cd430 2.304 1_545 S
N459 C460 1.337 . S
N459 C464 1.338 . S
C460 N459 1.337 . S
C460 C461 1.379 . S
C460 H474 0.929 . S
C461 C460 1.379 . S
C461 C462 1.380 . S
C461 H482 0.929 . S
C462 C461 1.380 . S
C462 C463 1.399 . S
C463 C462 1.399 . S
C463 C464 1.376 . S
C463 H483 0.931 . S
C464 N459 1.338 . S
C464 C463 1.376 . S
C464 H475 0.930 1_545 S
C465 O472 1.239 . S
C465 O473 1.230 . S
O466 Cd430 2.268 . S
O466 C440 1.238 . S
O467 Cd431 2.273 1_565 S
O467 C440 1.253 . S
O468 Cd431 2.268 . S
O468 C457 1.238 . S
O469 Cd430 2.273 1_545 S
O469 C457 1.253 . S
O470 Cd430 2.417 . S
O470 C458 1.239 . S
O471 Cd430 2.330 . S
O471 C458 1.230 . S
O472 Cd431 2.417 . S
O472 C465 1.239 . S
O473 Cd431 2.330 . S
O473 C465 1.230 . S
H474 C460 0.929 . S
H475 C464 0.930 1_565 S
H476 C434 0.931 . S
H477 C436 0.930 . S
H478 C442 0.929 . S
H479 C444 0.931 . S
H480 C451 0.931 . S
H481 C453 0.930 . S
H482 C461 0.929 . S
H483 C463 0.931 . S
C484 C485 1.391 . S
C484 C486 1.394 . S
C484 H500 0.931 . S
C485 C484 1.391 . S
C485 C489 1.376 . S
C486 C484 1.394 . S
C486 C487 1.369 . S
C486 C490 1.531 . S
C487 C486 1.369 . S
C487 C488 1.410 . S
C487 C495 1.503 . S
C488 C487 1.410 . S
C488 C489 1.392 . S
C488 C491 1.511 . S
C489 C485 1.376 . S
C489 C488 1.392 . S
C489 H501 0.929 . S
C490 C486 1.531 . S
C490 H502 0.960 . S
C490 H503 0.962 . S
C490 H504 0.960 . S
C491 C488 1.511 . S
C491 H505 0.961 . S
C491 H506 0.961 . S
C491 H507 0.961 . S
C492 C493 1.370 . S
C492 C494 1.363 . S
C492 H508 0.931 . S
C493 C492 1.370 . S
C493 C497 1.408 . S
C494 C492 1.363 . S
C494 C495 1.370 . S
C494 C498 1.524 . S
C495 C487 1.503 . S
C495 C494 1.370 . S
C495 C496 1.403 . S
C496 C495 1.403 . S
C496 C497 1.404 . S
C496 C499 1.539 . S
C497 C493 1.408 . S
C497 C496 1.404 . S
C497 H509 0.930 . S
C498 C494 1.524 . S
C498 H510 0.956 . S
C498 H511 0.961 . S
C498 H512 0.961 . S
C499 C496 1.539 . S
C499 H513 0.958 . S
C499 H514 0.961 . S
C499 H515 0.960 . S
H500 C484 0.931 . S
H501 C489 0.929 . S
H502 C490 0.960 . S
H503 C490 0.962 . S
H504 C490 0.960 . S
H505 C491 0.961 . S
H506 C491 0.961 . S
H507 C491 0.961 . S
H508 C492 0.931 . S
H509 C497 0.930 . S
H510 C498 0.956 . S
H511 C498 0.961 . S
H512 C498 0.961 . S
H513 C499 0.958 . S
H514 C499 0.961 . S
H515 C499 0.960 . S
C516 C517 1.391 . S
C516 C518 1.394 . S
C516 H532 0.931 . S
C517 C516 1.391 . S
C517 C521 1.376 . S
C518 C516 1.394 . S
C518 C519 1.369 . S
C518 C522 1.531 . S
C519 C518 1.369 . S
C519 C520 1.410 . S
C519 C527 1.503 . S
C520 C519 1.410 . S
C520 C521 1.392 . S
C520 C523 1.511 . S
C521 C517 1.376 . S
C521 C520 1.392 . S
C521 H533 0.929 . S
C522 C518 1.531 . S
C522 H534 0.960 . S
C522 H535 0.962 . S
C522 H536 0.960 . S
C523 C520 1.511 . S
C523 H537 0.961 . S
C523 H538 0.961 . S
C523 H539 0.961 . S
C524 C525 1.370 . S
C524 C526 1.363 . S
C524 H540 0.931 . S
C525 C524 1.370 . S
C525 C529 1.408 . S
C526 C524 1.363 . S
C526 C527 1.370 . S
C526 C530 1.524 . S
C527 C519 1.503 . S
C527 C526 1.370 . S
C527 C528 1.403 . S
C528 C527 1.403 . S
C528 C529 1.404 . S
C528 C531 1.539 . S
C529 C525 1.408 . S
C529 C528 1.404 . S
C529 H541 0.930 . S
C530 C526 1.524 . S
C530 H542 0.956 . S
C530 H543 0.961 . S
C530 H544 0.961 . S
C531 C528 1.539 . S
C531 H545 0.958 . S
C531 H546 0.961 . S
C531 H547 0.960 . S
H532 C516 0.931 . S
H533 C521 0.929 . S
H534 C522 0.960 . S
H535 C522 0.962 . S
H536 C522 0.960 . S
H537 C523 0.961 . S
H538 C523 0.961 . S
H539 C523 0.961 . S
H540 C524 0.931 . S
H541 C529 0.930 . S
H542 C530 0.956 . S
H543 C530 0.961 . S
H544 C530 0.961 . S
H545 C531 0.958 . S
H546 C531 0.961 . S
H547 C531 0.960 . S
C548 C549 1.391 . S
C548 C550 1.394 . S
C548 H564 0.931 . S
C549 C548 1.391 . S
C549 C553 1.376 . S
C550 C548 1.394 . S
C550 C551 1.369 . S
C550 C554 1.531 . S
C551 C550 1.369 . S
C551 C552 1.410 . S
C551 C559 1.503 . S
C552 C551 1.410 . S
C552 C553 1.392 . S
C552 C555 1.511 . S
C553 C549 1.376 . S
C553 C552 1.392 . S
C553 H565 0.929 . S
C554 C550 1.531 . S
C554 H566 0.960 . S
C554 H567 0.962 . S
C554 H568 0.960 . S
C555 C552 1.511 . S
C555 H569 0.961 . S
C555 H570 0.961 . S
C555 H571 0.961 . S
C556 C557 1.370 . S
C556 C558 1.363 . S
C556 H572 0.931 . S
C557 C556 1.370 . S
C557 C561 1.408 . S
C558 C556 1.363 . S
C558 C559 1.370 . S
C558 C562 1.524 . S
C559 C551 1.503 . S
C559 C558 1.370 . S
C559 C560 1.403 . S
C560 C559 1.403 . S
C560 C561 1.404 . S
C560 C563 1.539 . S
C561 C557 1.408 . S
C561 C560 1.404 . S
C561 H573 0.930 . S
C562 C558 1.524 . S
C562 H574 0.956 . S
C562 H575 0.961 . S
C562 H576 0.961 . S
C563 C560 1.539 . S
C563 H577 0.958 . S
C563 H578 0.961 . S
C563 H579 0.960 . S
H564 C548 0.931 . S
H565 C553 0.929 . S
H566 C554 0.960 . S
H567 C554 0.962 . S
H568 C554 0.960 . S
H569 C555 0.961 . S
H570 C555 0.961 . S
H571 C555 0.961 . S
H572 C556 0.931 . S
H573 C561 0.930 . S
H574 C562 0.956 . S
H575 C562 0.961 . S
H576 C562 0.961 . S
H577 C563 0.958 . S
H578 C563 0.961 . S
H579 C563 0.960 . S
C580 C581 1.391 . S
C580 C582 1.394 . S
C580 H596 0.931 . S
C581 C580 1.391 . S
C581 C585 1.376 . S
C582 C580 1.394 . S
C582 C583 1.369 . S
C582 C586 1.531 . S
C583 C582 1.369 . S
C583 C584 1.410 . S
C583 C591 1.503 . S
C584 C583 1.410 . S
C584 C585 1.392 . S
C584 C587 1.511 . S
C585 C581 1.376 . S
C585 C584 1.392 . S
C585 H597 0.929 . S
C586 C582 1.531 . S
C586 H598 0.960 . S
C586 H599 0.962 . S
C586 H600 0.960 . S
C587 C584 1.511 . S
C587 H601 0.961 . S
C587 H602 0.961 . S
C587 H603 0.961 . S
C588 C589 1.370 . S
C588 C590 1.363 . S
C588 H604 0.931 . S
C589 C588 1.370 . S
C589 C593 1.408 . S
C590 C588 1.363 . S
C590 C591 1.370 . S
C590 C594 1.524 . S
C591 C583 1.503 . S
C591 C590 1.370 . S
C591 C592 1.403 . S
C592 C591 1.403 . S
C592 C593 1.404 . S
C592 C595 1.539 . S
C593 C589 1.408 . S
C593 C592 1.404 . S
C593 H605 0.930 . S
C594 C590 1.524 . S
C594 H606 0.956 . S
C594 H607 0.961 . S
C594 H608 0.961 . S
C595 C592 1.539 . S
C595 H609 0.958 . S
C595 H610 0.961 . S
C595 H611 0.960 . S
H596 C580 0.931 . S
H597 C585 0.929 . S
H598 C586 0.960 . S
H599 C586 0.962 . S
H600 C586 0.960 . S
H601 C587 0.961 . S
H602 C587 0.961 . S
H603 C587 0.961 . S
H604 C588 0.931 . S
H605 C593 0.930 . S
H606 C594 0.956 . S
H607 C594 0.961 . S
H608 C594 0.961 . S
H609 C595 0.958 . S
H610 C595 0.961 . S
H611 C595 0.960 . S
C612 C613 1.391 . S
C612 C614 1.394 . S
C612 H628 0.931 . S
C613 C612 1.391 . S
C613 C617 1.376 . S
C614 C612 1.394 . S
C614 C615 1.369 . S
C614 C618 1.531 . S
C615 C614 1.369 . S
C615 C616 1.410 . S
C615 C623 1.503 . S
C616 C615 1.410 . S
C616 C617 1.392 . S
C616 C619 1.511 . S
C617 C613 1.376 . S
C617 C616 1.392 . S
C617 H629 0.929 . S
C618 C614 1.531 . S
C618 H630 0.960 . S
C618 H631 0.962 . S
C618 H632 0.960 . S
C619 C616 1.511 . S
C619 H633 0.961 . S
C619 H634 0.961 . S
C619 H635 0.961 . S
C620 C621 1.370 . S
C620 C622 1.363 . S
C620 H636 0.931 . S
C621 C620 1.370 . S
C621 C625 1.408 . S
C622 C620 1.363 . S
C622 C623 1.370 . S
C622 C626 1.524 . S
C623 C615 1.503 . S
C623 C622 1.370 . S
C623 C624 1.403 . S
C624 C623 1.403 . S
C624 C625 1.404 . S
C624 C627 1.539 . S
C625 C621 1.408 . S
C625 C624 1.404 . S
C625 H637 0.930 . S
C626 C622 1.524 . S
C626 H638 0.956 . S
C626 H639 0.961 . S
C626 H640 0.961 . S
C627 C624 1.539 . S
C627 H641 0.958 . S
C627 H642 0.961 . S
C627 H643 0.960 . S
H628 C612 0.931 . S
H629 C617 0.929 . S
H630 C618 0.960 . S
H631 C618 0.962 . S
H632 C618 0.960 . S
H633 C619 0.961 . S
H634 C619 0.961 . S
H635 C619 0.961 . S
H636 C620 0.931 . S
H637 C625 0.930 . S
H638 C626 0.956 . S
H639 C626 0.961 . S
H640 C626 0.961 . S
H641 C627 0.958 . S
H642 C627 0.961 . S
H643 C627 0.960 . S
C644 C645 1.391 . S
C644 C646 1.394 . S
C644 H660 0.931 . S
C645 C644 1.391 . S
C645 C649 1.376 . S
C646 C644 1.394 . S
C646 C647 1.369 . S
C646 C650 1.531 . S
C647 C646 1.369 . S
C647 C648 1.410 . S
C647 C655 1.503 . S
C648 C647 1.410 . S
C648 C649 1.392 . S
C648 C651 1.511 . S
C649 C645 1.376 . S
C649 C648 1.392 . S
C649 H661 0.929 . S
C650 C646 1.531 . S
C650 H662 0.960 . S
C650 H663 0.962 . S
C650 H664 0.960 . S
C651 C648 1.511 . S
C651 H665 0.961 . S
C651 H666 0.961 . S
C651 H667 0.961 . S
C652 C653 1.370 . S
C652 C654 1.363 . S
C652 H668 0.931 . S
C653 C652 1.370 . S
C653 C657 1.408 . S
C654 C652 1.363 . S
C654 C655 1.370 . S
C654 C658 1.524 . S
C655 C647 1.503 . S
C655 C654 1.370 . S
C655 C656 1.403 . S
C656 C655 1.403 . S
C656 C657 1.404 . S
C656 C659 1.539 . S
C657 C653 1.408 . S
C657 C656 1.404 . S
C657 H669 0.930 . S
C658 C654 1.524 . S
C658 H670 0.956 . S
C658 H671 0.961 . S
C658 H672 0.961 . S
C659 C656 1.539 . S
C659 H673 0.958 . S
C659 H674 0.961 . S
C659 H675 0.960 . S
H660 C644 0.931 . S
H661 C649 0.929 . S
H662 C650 0.960 . S
H663 C650 0.962 . S
H664 C650 0.960 . S
H665 C651 0.961 . S
H666 C651 0.961 . S
H667 C651 0.961 . S
H668 C652 0.931 . S
H669 C657 0.930 . S
H670 C658 0.956 . S
H671 C658 0.961 . S
H672 C658 0.961 . S
H673 C659 0.958 . S
H674 C659 0.961 . S
H675 C659 0.960 . S
C676 C677 1.391 . S
C676 C678 1.394 . S
C676 H692 0.931 . S
C677 C676 1.391 . S
C677 C681 1.376 . S
C678 C676 1.394 . S
C678 C679 1.369 . S
C678 C682 1.531 . S
C679 C678 1.369 . S
C679 C680 1.410 . S
C679 C687 1.503 . S
C680 C679 1.410 . S
C680 C681 1.392 . S
C680 C683 1.511 . S
C681 C677 1.376 . S
C681 C680 1.392 . S
C681 H693 0.929 . S
C682 C678 1.531 . S
C682 H694 0.960 . S
C682 H695 0.962 . S
C682 H696 0.960 . S
C683 C680 1.511 . S
C683 H697 0.961 . S
C683 H698 0.961 . S
C683 H699 0.961 . S
C684 C685 1.370 . S
C684 C686 1.363 . S
C684 H700 0.931 . S
C685 C684 1.370 . S
C685 C689 1.408 . S
C686 C684 1.363 . S
C686 C687 1.370 . S
C686 C690 1.524 . S
C687 C679 1.503 . S
C687 C686 1.370 . S
C687 C688 1.403 . S
C688 C687 1.403 . S
C688 C689 1.404 . S
C688 C691 1.539 . S
C689 C685 1.408 . S
C689 C688 1.404 . S
C689 H701 0.930 . S
C690 C686 1.524 . S
C690 H702 0.956 . S
C690 H703 0.961 . S
C690 H704 0.961 . S
C691 C688 1.539 . S
C691 H705 0.958 . S
C691 H706 0.961 . S
C691 H707 0.960 . S
H692 C676 0.931 . S
H693 C681 0.929 . S
H694 C682 0.960 . S
H695 C682 0.962 . S
H696 C682 0.960 . S
H697 C683 0.961 . S
H698 C683 0.961 . S
H699 C683 0.961 . S
H700 C684 0.931 . S
H701 C689 0.930 . S
H702 C690 0.956 . S
H703 C690 0.961 . S
H704 C690 0.961 . S
H705 C691 0.958 . S
H706 C691 0.961 . S
H707 C691 0.960 . S
C708 C709 1.391 . S
C708 C710 1.394 . S
C708 H724 0.931 . S
C709 C708 1.391 . S
C709 C713 1.376 . S
C710 C708 1.394 . S
C710 C711 1.369 . S
C710 C714 1.531 . S
C711 C710 1.369 . S
C711 C712 1.410 . S
C711 C719 1.503 . S
C712 C711 1.410 . S
C712 C713 1.392 . S
C712 C715 1.511 . S
C713 C709 1.376 . S
C713 C712 1.392 . S
C713 H725 0.929 . S
C714 C710 1.531 . S
C714 H726 0.960 . S
C714 H727 0.962 . S
C714 H728 0.960 . S
C715 C712 1.511 . S
C715 H729 0.961 . S
C715 H730 0.961 . S
C715 H731 0.961 . S
C716 C717 1.370 . S
C716 C718 1.363 . S
C716 H732 0.931 . S
C717 C716 1.370 . S
C717 C721 1.408 . S
C718 C716 1.363 . S
C718 C719 1.370 . S
C718 C722 1.524 . S
C719 C711 1.503 . S
C719 C718 1.370 . S
C719 C720 1.403 . S
C720 C719 1.403 . S
C720 C721 1.404 . S
C720 C723 1.539 . S
C721 C717 1.408 . S
C721 C720 1.404 . S
C721 H733 0.930 . S
C722 C718 1.524 . S
C722 H734 0.956 . S
C722 H735 0.961 . S
C722 H736 0.961 . S
C723 C720 1.539 . S
C723 H737 0.958 . S
C723 H738 0.961 . S
C723 H739 0.960 . S
H724 C708 0.931 . S
H725 C713 0.929 . S
H726 C714 0.960 . S
H727 C714 0.962 . S
H728 C714 0.960 . S
H729 C715 0.961 . S
H730 C715 0.961 . S
H731 C715 0.961 . S
H732 C716 0.931 . S
H733 C721 0.930 . S
H734 C722 0.956 . S
H735 C722 0.961 . S
H736 C722 0.961 . S
H737 C723 0.958 . S
H738 C723 0.961 . S
H739 C723 0.960 . S
C740 C741 1.391 . S
C740 C742 1.394 . S
C740 H756 0.931 . S
C741 C740 1.391 . S
C741 C745 1.376 . S
C742 C740 1.394 . S
C742 C743 1.369 . S
C742 C746 1.531 . S
C743 C742 1.369 . S
C743 C744 1.410 . S
C743 C751 1.503 . S
C744 C743 1.410 . S
C744 C745 1.392 . S
C744 C747 1.511 . S
C745 C741 1.376 . S
C745 C744 1.392 . S
C745 H757 0.929 . S
C746 C742 1.531 . S
C746 H758 0.960 . S
C746 H759 0.962 . S
C746 H760 0.960 . S
C747 C744 1.511 . S
C747 H761 0.961 . S
C747 H762 0.961 . S
C747 H763 0.961 . S
C748 C749 1.370 . S
C748 C750 1.363 . S
C748 H764 0.931 . S
C749 C748 1.370 . S
C749 C753 1.408 . S
C750 C748 1.363 . S
C750 C751 1.370 . S
C750 C754 1.524 . S
C751 C743 1.503 . S
C751 C750 1.370 . S
C751 C752 1.403 . S
C752 C751 1.403 . S
C752 C753 1.404 . S
C752 C755 1.539 . S
C753 C749 1.408 . S
C753 C752 1.404 . S
C753 H765 0.930 . S
C754 C750 1.524 . S
C754 H766 0.956 . S
C754 H767 0.961 . S
C754 H768 0.961 . S
C755 C752 1.539 . S
C755 H769 0.958 . S
C755 H770 0.961 . S
C755 H771 0.960 . S
H756 C740 0.931 . S
H757 C745 0.929 . S
H758 C746 0.960 . S
H759 C746 0.962 . S
H760 C746 0.960 . S
H761 C747 0.961 . S
H762 C747 0.961 . S
H763 C747 0.961 . S
H764 C748 0.931 . S
H765 C753 0.930 . S
H766 C754 0.956 . S
H767 C754 0.961 . S
H768 C754 0.961 . S
H769 C755 0.958 . S
H770 C755 0.961 . S
H771 C755 0.960 . S
C772 C773 1.391 . S
C772 C774 1.394 . S
C772 H788 0.931 . S
C773 C772 1.391 . S
C773 C777 1.376 . S
C774 C772 1.394 . S
C774 C775 1.369 . S
C774 C778 1.531 . S
C775 C774 1.369 . S
C775 C776 1.410 . S
C775 C783 1.503 . S
C776 C775 1.410 . S
C776 C777 1.392 . S
C776 C779 1.511 . S
C777 C773 1.376 . S
C777 C776 1.392 . S
C777 H789 0.929 . S
C778 C774 1.531 . S
C778 H790 0.960 . S
C778 H791 0.962 . S
C778 H792 0.960 . S
C779 C776 1.511 . S
C779 H793 0.961 . S
C779 H794 0.961 . S
C779 H795 0.961 . S
C780 C781 1.370 . S
C780 C782 1.363 . S
C780 H796 0.931 . S
C781 C780 1.370 . S
C781 C785 1.408 . S
C782 C780 1.363 . S
C782 C783 1.370 . S
C782 C786 1.524 . S
C783 C775 1.503 . S
C783 C782 1.370 . S
C783 C784 1.403 . S
C784 C783 1.403 . S
C784 C785 1.404 . S
C784 C787 1.539 . S
C785 C781 1.408 . S
C785 C784 1.404 . S
C785 H797 0.930 . S
C786 C782 1.524 . S
C786 H798 0.956 . S
C786 H799 0.961 . S
C786 H800 0.961 . S
C787 C784 1.539 . S
C787 H801 0.958 . S
C787 H802 0.961 . S
C787 H803 0.960 . S
H788 C772 0.931 . S
H789 C777 0.929 . S
H790 C778 0.960 . S
H791 C778 0.962 . S
H792 C778 0.960 . S
H793 C779 0.961 . S
H794 C779 0.961 . S
H795 C779 0.961 . S
H796 C780 0.931 . S
H797 C785 0.930 . S
H798 C786 0.956 . S
H799 C786 0.961 . S
H800 C786 0.961 . S
H801 C787 0.958 . S
H802 C787 0.961 . S
H803 C787 0.960 . S
C804 C805 1.391 . S
C804 C806 1.394 . S
C804 H820 0.931 . S
C805 C804 1.391 . S
C805 C809 1.376 . S
C806 C804 1.394 . S
C806 C807 1.369 . S
C806 C810 1.531 . S
C807 C806 1.369 . S
C807 C808 1.410 . S
C807 C815 1.503 . S
C808 C807 1.410 . S
C808 C809 1.392 . S
C808 C811 1.511 . S
C809 C805 1.376 . S
C809 C808 1.392 . S
C809 H821 0.929 . S
C810 C806 1.531 . S
C810 H822 0.960 . S
C810 H823 0.962 . S
C810 H824 0.960 . S
C811 C808 1.511 . S
C811 H825 0.961 . S
C811 H826 0.961 . S
C811 H827 0.961 . S
C812 C813 1.370 . S
C812 C814 1.363 . S
C812 H828 0.931 . S
C813 C812 1.370 . S
C813 C817 1.408 . S
C814 C812 1.363 . S
C814 C815 1.370 . S
C814 C818 1.524 . S
C815 C807 1.503 . S
C815 C814 1.370 . S
C815 C816 1.403 . S
C816 C815 1.403 . S
C816 C817 1.404 . S
C816 C819 1.539 . S
C817 C813 1.408 . S
C817 C816 1.404 . S
C817 H829 0.930 . S
C818 C814 1.524 . S
C818 H830 0.956 . S
C818 H831 0.961 . S
C818 H832 0.961 . S
C819 C816 1.539 . S
C819 H833 0.958 . S
C819 H834 0.961 . S
C819 H835 0.960 . S
H820 C804 0.931 . S
H821 C809 0.929 . S
H822 C810 0.960 . S
H823 C810 0.962 . S
H824 C810 0.960 . S
H825 C811 0.961 . S
H826 C811 0.961 . S
H827 C811 0.961 . S
H828 C812 0.931 . S
H829 C817 0.930 . S
H830 C818 0.956 . S
H831 C818 0.961 . S
H832 C818 0.961 . S
H833 C819 0.958 . S
H834 C819 0.961 . S
H835 C819 0.960 . S
C836 C837 1.391 . S
C836 C838 1.394 . S
C836 H852 0.931 . S
C837 C836 1.391 . S
C837 C841 1.376 . S
C838 C836 1.394 . S
C838 C839 1.369 . S
C838 C842 1.531 . S
C839 C838 1.369 . S
C839 C840 1.410 . S
C839 C847 1.503 . S
C840 C839 1.410 . S
C840 C841 1.392 . S
C840 C843 1.511 . S
C841 C837 1.376 . S
C841 C840 1.392 . S
C841 H853 0.929 . S
C842 C838 1.531 . S
C842 H854 0.960 . S
C842 H855 0.962 . S
C842 H856 0.960 . S
C843 C840 1.511 . S
C843 H857 0.961 . S
C843 H858 0.961 . S
C843 H859 0.961 . S
C844 C845 1.370 . S
C844 C846 1.363 . S
C844 H860 0.931 . S
C845 C844 1.370 . S
C845 C849 1.408 . S
C846 C844 1.363 . S
C846 C847 1.370 . S
C846 C850 1.524 . S
C847 C839 1.503 . S
C847 C846 1.370 . S
C847 C848 1.403 . S
C848 C847 1.403 . S
C848 C849 1.404 . S
C848 C851 1.539 . S
C849 C845 1.408 . S
C849 C848 1.404 . S
C849 H861 0.930 . S
C850 C846 1.524 . S
C850 H862 0.956 . S
C850 H863 0.961 . S
C850 H864 0.961 . S
C851 C848 1.539 . S
C851 H865 0.958 . S
C851 H866 0.961 . S
C851 H867 0.960 . S
H852 C836 0.931 . S
H853 C841 0.929 . S
H854 C842 0.960 . S
H855 C842 0.962 . S
H856 C842 0.960 . S
H857 C843 0.961 . S
H858 C843 0.961 . S
H859 C843 0.961 . S
H860 C844 0.931 . S
H861 C849 0.930 . S
H862 C850 0.956 . S
H863 C850 0.961 . S
H864 C850 0.961 . S
H865 C851 0.958 . S
H866 C851 0.961 . S
H867 C851 0.960 . S
C868 C869 1.391 . S
C868 C870 1.394 . S
C868 H884 0.931 . S
C869 C868 1.391 . S
C869 C873 1.376 . S
C870 C868 1.394 . S
C870 C871 1.369 . S
C870 C874 1.531 . S
C871 C870 1.369 . S
C871 C872 1.410 . S
C871 C879 1.503 . S
C872 C871 1.410 . S
C872 C873 1.392 . S
C872 C875 1.511 . S
C873 C869 1.376 . S
C873 C872 1.392 . S
C873 H885 0.929 . S
C874 C870 1.531 . S
C874 H886 0.960 . S
C874 H887 0.962 . S
C874 H888 0.960 . S
C875 C872 1.511 . S
C875 H889 0.961 . S
C875 H890 0.961 . S
C875 H891 0.961 . S
C876 C877 1.370 . S
C876 C878 1.363 . S
C876 H892 0.931 . S
C877 C876 1.370 . S
C877 C881 1.408 . S
C878 C876 1.363 . S
C878 C879 1.370 . S
C878 C882 1.524 . S
C879 C871 1.503 . S
C879 C878 1.370 . S
C879 C880 1.403 . S
C880 C879 1.403 . S
C880 C881 1.404 . S
C880 C883 1.539 . S
C881 C877 1.408 . S
C881 C880 1.404 . S
C881 H893 0.930 . S
C882 C878 1.524 . S
C882 H894 0.956 . S
C882 H895 0.961 . S
C882 H896 0.961 . S
C883 C880 1.539 . S
C883 H897 0.958 . S
C883 H898 0.961 . S
C883 H899 0.960 . S
H884 C868 0.931 . S
H885 C873 0.929 . S
H886 C874 0.960 . S
H887 C874 0.962 . S
H888 C874 0.960 . S
H889 C875 0.961 . S
H890 C875 0.961 . S
H891 C875 0.961 . S
H892 C876 0.931 . S
H893 C881 0.930 . S
H894 C882 0.956 . S
H895 C882 0.961 . S
H896 C882 0.961 . S
H897 C883 0.958 . S
H898 C883 0.961 . S
H899 C883 0.960 . S
C900 C901 1.391 . S
C900 C902 1.394 . S
C900 H916 0.931 . S
C901 C900 1.391 . S
C901 C905 1.376 . S
C902 C900 1.394 . S
C902 C903 1.369 . S
C902 C906 1.531 . S
C903 C902 1.369 . S
C903 C904 1.410 . S
C903 C911 1.503 . S
C904 C903 1.410 . S
C904 C905 1.392 . S
C904 C907 1.511 . S
C905 C901 1.376 . S
C905 C904 1.392 . S
C905 H917 0.929 . S
C906 C902 1.531 . S
C906 H918 0.960 . S
C906 H919 0.962 . S
C906 H920 0.960 . S
C907 C904 1.511 . S
C907 H921 0.961 . S
C907 H922 0.961 . S
C907 H923 0.961 . S
C908 C909 1.370 . S
C908 C910 1.363 . S
C908 H924 0.931 . S
C909 C908 1.370 . S
C909 C913 1.408 . S
C910 C908 1.363 . S
C910 C911 1.370 . S
C910 C914 1.524 . S
C911 C903 1.503 . S
C911 C910 1.370 . S
C911 C912 1.403 . S
C912 C911 1.403 . S
C912 C913 1.404 . S
C912 C915 1.539 . S
C913 C909 1.408 . S
C913 C912 1.404 . S
C913 H925 0.930 . S
C914 C910 1.524 . S
C914 H926 0.956 . S
C914 H927 0.961 . S
C914 H928 0.961 . S
C915 C912 1.539 . S
C915 H929 0.958 . S
C915 H930 0.961 . S
C915 H931 0.960 . S
H916 C900 0.931 . S
H917 C905 0.929 . S
H918 C906 0.960 . S
H919 C906 0.962 . S
H920 C906 0.960 . S
H921 C907 0.961 . S
H922 C907 0.961 . S
H923 C907 0.961 . S
H924 C908 0.931 . S
H925 C913 0.930 . S
H926 C914 0.956 . S
H927 C914 0.961 . S
H928 C914 0.961 . S
H929 C915 0.958 . S
H930 C915 0.961 . S
H931 C915 0.960 . S
C932 C933 1.391 . S
C932 C934 1.394 . S
C932 H948 0.931 . S
C933 C932 1.391 . S
C933 C937 1.376 . S
C934 C932 1.394 . S
C934 C935 1.369 . S
C934 C938 1.531 . S
C935 C934 1.369 . S
C935 C936 1.410 . S
C935 C943 1.503 . S
C936 C935 1.410 . S
C936 C937 1.392 . S
C936 C939 1.511 . S
C937 C933 1.376 . S
C937 C936 1.392 . S
C937 H949 0.929 . S
C938 C934 1.531 . S
C938 H950 0.960 . S
C938 H951 0.962 . S
C938 H952 0.960 . S
C939 C936 1.511 . S
C939 H953 0.961 . S
C939 H954 0.961 . S
C939 H955 0.961 . S
C940 C941 1.370 . S
C940 C942 1.363 . S
C940 H956 0.931 . S
C941 C940 1.370 . S
C941 C945 1.408 . S
C942 C940 1.363 . S
C942 C943 1.370 . S
C942 C946 1.524 . S
C943 C935 1.503 . S
C943 C942 1.370 . S
C943 C944 1.403 . S
C944 C943 1.403 . S
C944 C945 1.404 . S
C944 C947 1.539 . S
C945 C941 1.408 . S
C945 C944 1.404 . S
C945 H957 0.930 . S
C946 C942 1.524 . S
C946 H958 0.956 . S
C946 H959 0.961 . S
C946 H960 0.961 . S
C947 C944 1.539 . S
C947 H961 0.958 . S
C947 H962 0.961 . S
C947 H963 0.960 . S
H948 C932 0.931 . S
H949 C937 0.929 . S
H950 C938 0.960 . S
H951 C938 0.962 . S
H952 C938 0.960 . S
H953 C939 0.961 . S
H954 C939 0.961 . S
H955 C939 0.961 . S
H956 C940 0.931 . S
H957 C945 0.930 . S
H958 C946 0.956 . S
H959 C946 0.961 . S
H960 C946 0.961 . S
H961 C947 0.958 . S
H962 C947 0.961 . S
H963 C947 0.960 . S
C964 C965 1.391 . S
C964 C966 1.394 . S
C964 H980 0.931 . S
C965 C964 1.391 . S
C965 C969 1.376 . S
C966 C964 1.394 . S
C966 C967 1.369 . S
C966 C970 1.531 . S
C967 C966 1.369 . S
C967 C968 1.410 . S
C967 C975 1.503 . S
C968 C967 1.410 . S
C968 C969 1.392 . S
C968 C971 1.511 . S
C969 C965 1.376 . S
C969 C968 1.392 . S
C969 H981 0.929 . S
C970 C966 1.531 . S
C970 H982 0.960 . S
C970 H983 0.962 . S
C970 H984 0.960 . S
C971 C968 1.511 . S
C971 H985 0.961 . S
C971 H986 0.961 . S
C971 H987 0.961 . S
C972 C973 1.370 . S
C972 C974 1.363 . S
C972 H988 0.931 . S
C973 C972 1.370 . S
C973 C977 1.408 . S
C974 C972 1.363 . S
C974 C975 1.370 . S
C974 C978 1.524 . S
C975 C967 1.503 . S
C975 C974 1.370 . S
C975 C976 1.403 . S
C976 C975 1.403 . S
C976 C977 1.404 . S
C976 C979 1.539 . S
C977 C973 1.408 . S
C977 C976 1.404 . S
C977 H989 0.930 . S
C978 C974 1.524 . S
C978 H990 0.956 . S
C978 H991 0.961 . S
C978 H992 0.961 . S
C979 C976 1.539 . S
C979 H993 0.958 . S
C979 H994 0.961 . S
C979 H995 0.960 . S
H980 C964 0.931 . S
H981 C969 0.929 . S
H982 C970 0.960 . S
H983 C970 0.962 . S
H984 C970 0.960 . S
H985 C971 0.961 . S
H986 C971 0.961 . S
H987 C971 0.961 . S
H988 C972 0.931 . S
H989 C977 0.930 . S
H990 C978 0.956 . S
H991 C978 0.961 . S
H992 C978 0.961 . S
H993 C979 0.958 . S
H994 C979 0.961 . S
H995 C979 0.960 . S
C996 C997 1.391 . S
C996 C998 1.394 . S
C996 H1012 0.931 . S
C997 C996 1.391 . S
C997 C1001 1.376 . S
C998 C996 1.394 . S
C998 C999 1.369 . S
C998 C1002 1.531 . S
C999 C998 1.369 . S
C999 C1000 1.410 . S
C999 C1007 1.503 . S
C1000 C999 1.410 . S
C1000 C1001 1.392 . S
C1000 C1003 1.511 . S
C1001 C997 1.376 . S
C1001 C1000 1.392 . S
C1001 H1013 0.929 . S
C1002 C998 1.531 . S
C1002 H1014 0.960 . S
C1002 H1015 0.962 . S
C1002 H1016 0.960 . S
C1003 C1000 1.511 . S
C1003 H1017 0.961 . S
C1003 H1018 0.961 . S
C1003 H1019 0.961 . S
C1004 C1005 1.370 . S
C1004 C1006 1.363 . S
C1004 H1020 0.931 . S
C1005 C1004 1.370 . S
C1005 C1009 1.408 . S
C1006 C1004 1.363 . S
C1006 C1007 1.370 . S
C1006 C1010 1.524 . S
C1007 C999 1.503 . S
C1007 C1006 1.370 . S
C1007 C1008 1.403 . S
C1008 C1007 1.403 . S
C1008 C1009 1.404 . S
C1008 C1011 1.539 . S
C1009 C1005 1.408 . S
C1009 C1008 1.404 . S
C1009 H1021 0.930 . S
C1010 C1006 1.524 . S
C1010 H1022 0.956 . S
C1010 H1023 0.961 . S
C1010 H1024 0.961 . S
C1011 C1008 1.539 . S
C1011 H1025 0.958 . S
C1011 H1026 0.961 . S
C1011 H1027 0.960 . S
H1012 C996 0.931 . S
H1013 C1001 0.929 . S
H1014 C1002 0.960 . S
H1015 C1002 0.962 . S
H1016 C1002 0.960 . S
H1017 C1003 0.961 . S
H1018 C1003 0.961 . S
H1019 C1003 0.961 . S
H1020 C1004 0.931 . S
H1021 C1009 0.930 . S
H1022 C1010 0.956 . S
H1023 C1010 0.961 . S
H1024 C1010 0.961 . S
H1025 C1011 0.958 . S
H1026 C1011 0.961 . S
H1027 C1011 0.960 . S
C1028 C1029 1.391 . S
C1028 C1030 1.394 . S
C1028 H1044 0.931 . S
C1029 C1028 1.391 . S
C1029 C1033 1.376 . S
C1030 C1028 1.394 . S
C1030 C1031 1.369 . S
C1030 C1034 1.531 . S
C1031 C1030 1.369 . S
C1031 C1032 1.410 . S
C1031 C1039 1.503 . S
C1032 C1031 1.410 . S
C1032 C1033 1.392 . S
C1032 C1035 1.511 . S
C1033 C1029 1.376 . S
C1033 C1032 1.392 . S
C1033 H1045 0.929 . S
C1034 C1030 1.531 . S
C1034 H1046 0.960 . S
C1034 H1047 0.962 . S
C1034 H1048 0.960 . S
C1035 C1032 1.511 . S
C1035 H1049 0.961 . S
C1035 H1050 0.961 . S
C1035 H1051 0.961 . S
C1036 C1037 1.370 . S
C1036 C1038 1.363 . S
C1036 H1052 0.931 . S
C1037 C1036 1.370 . S
C1037 C1041 1.408 . S
C1038 C1036 1.363 . S
C1038 C1039 1.370 . S
C1038 C1042 1.524 . S
C1039 C1031 1.503 . S
C1039 C1038 1.370 . S
C1039 C1040 1.403 . S
C1040 C1039 1.403 . S
C1040 C1041 1.404 . S
C1040 C1043 1.539 . S
C1041 C1037 1.408 . S
C1041 C1040 1.404 . S
C1041 H1053 0.930 . S
C1042 C1038 1.524 . S
C1042 H1054 0.956 . S
C1042 H1055 0.961 . S
C1042 H1056 0.961 . S
C1043 C1040 1.539 . S
C1043 H1057 0.958 . S
C1043 H1058 0.961 . S
C1043 H1059 0.960 . S
H1044 C1028 0.931 . S
H1045 C1033 0.929 . S
H1046 C1034 0.960 . S
H1047 C1034 0.962 . S
H1048 C1034 0.960 . S
H1049 C1035 0.961 . S
H1050 C1035 0.961 . S
H1051 C1035 0.961 . S
H1052 C1036 0.931 . S
H1053 C1041 0.930 . S
H1054 C1042 0.956 . S
H1055 C1042 0.961 . S
H1056 C1042 0.961 . S
H1057 C1043 0.958 . S
H1058 C1043 0.961 . S
H1059 C1043 0.960 . S
C1060 C1061 1.391 . S
C1060 C1062 1.394 . S
C1060 H1076 0.931 . S
C1061 C1060 1.391 . S
C1061 C1065 1.376 . S
C1062 C1060 1.394 . S
C1062 C1063 1.369 . S
C1062 C1066 1.531 . S
C1063 C1062 1.369 . S
C1063 C1064 1.410 . S
C1063 C1071 1.503 . S
C1064 C1063 1.410 . S
C1064 C1065 1.392 . S
C1064 C1067 1.511 . S
C1065 C1061 1.376 . S
C1065 C1064 1.392 . S
C1065 H1077 0.929 . S
C1066 C1062 1.531 . S
C1066 H1078 0.960 . S
C1066 H1079 0.962 . S
C1066 H1080 0.960 . S
C1067 C1064 1.511 . S
C1067 H1081 0.961 . S
C1067 H1082 0.961 . S
C1067 H1083 0.961 . S
C1068 C1069 1.370 . S
C1068 C1070 1.363 . S
C1068 H1084 0.931 . S
C1069 C1068 1.370 . S
C1069 C1073 1.408 . S
C1070 C1068 1.363 . S
C1070 C1071 1.370 . S
C1070 C1074 1.524 . S
C1071 C1063 1.503 . S
C1071 C1070 1.370 . S
C1071 C1072 1.403 . S
C1072 C1071 1.403 . S
C1072 C1073 1.404 . S
C1072 C1075 1.539 . S
C1073 C1069 1.408 . S
C1073 C1072 1.404 . S
C1073 H1085 0.930 . S
C1074 C1070 1.524 . S
C1074 H1086 0.956 . S
C1074 H1087 0.961 . S
C1074 H1088 0.961 . S
C1075 C1072 1.539 . S
C1075 H1089 0.958 . S
C1075 H1090 0.961 . S
C1075 H1091 0.960 . S
H1076 C1060 0.931 . S
H1077 C1065 0.929 . S
H1078 C1066 0.960 . S
H1079 C1066 0.962 . S
H1080 C1066 0.960 . S
H1081 C1067 0.961 . S
H1082 C1067 0.961 . S
H1083 C1067 0.961 . S
H1084 C1068 0.931 . S
H1085 C1073 0.930 . S
H1086 C1074 0.956 . S
H1087 C1074 0.961 . S
H1088 C1074 0.961 . S
H1089 C1075 0.958 . S
H1090 C1075 0.961 . S
H1091 C1075 0.960 . S
C1092 C1093 1.391 . S
C1092 C1094 1.394 . S
C1092 H1108 0.931 . S
C1093 C1092 1.391 . S
C1093 C1097 1.376 . S
C1094 C1092 1.394 . S
C1094 C1095 1.369 . S
C1094 C1098 1.531 . S
C1095 C1094 1.369 . S
C1095 C1096 1.410 . S
C1095 C1103 1.503 . S
C1096 C1095 1.410 . S
C1096 C1097 1.392 . S
C1096 C1099 1.511 . S
C1097 C1093 1.376 . S
C1097 C1096 1.392 . S
C1097 H1109 0.929 . S
C1098 C1094 1.531 . S
C1098 H1110 0.960 . S
C1098 H1111 0.962 . S
C1098 H1112 0.960 . S
C1099 C1096 1.511 . S
C1099 H1113 0.961 . S
C1099 H1114 0.961 . S
C1099 H1115 0.961 . S
C1100 C1101 1.370 . S
C1100 C1102 1.363 . S
C1100 H1116 0.931 . S
C1101 C1100 1.370 . S
C1101 C1105 1.408 . S
C1102 C1100 1.363 . S
C1102 C1103 1.370 . S
C1102 C1106 1.524 . S
C1103 C1095 1.503 . S
C1103 C1102 1.370 . S
C1103 C1104 1.403 . S
C1104 C1103 1.403 . S
C1104 C1105 1.404 . S
C1104 C1107 1.539 . S
C1105 C1101 1.408 . S
C1105 C1104 1.404 . S
C1105 H1117 0.930 . S
C1106 C1102 1.524 . S
C1106 H1118 0.956 . S
C1106 H1119 0.961 . S
C1106 H1120 0.961 . S
C1107 C1104 1.539 . S
C1107 H1121 0.958 . S
C1107 H1122 0.961 . S
C1107 H1123 0.960 . S
H1108 C1092 0.931 . S
H1109 C1097 0.929 . S
H1110 C1098 0.960 . S
H1111 C1098 0.962 . S
H1112 C1098 0.960 . S
H1113 C1099 0.961 . S
H1114 C1099 0.961 . S
H1115 C1099 0.961 . S
H1116 C1100 0.931 . S
H1117 C1105 0.930 . S
H1118 C1106 0.956 . S
H1119 C1106 0.961 . S
H1120 C1106 0.961 . S
H1121 C1107 0.958 . S
H1122 C1107 0.961 . S
H1123 C1107 0.960 . S
C1124 C1125 1.391 . S
C1124 C1126 1.394 . S
C1124 H1140 0.931 . S
C1125 C1124 1.391 . S
C1125 C1129 1.376 . S
C1126 C1124 1.394 . S
C1126 C1127 1.369 . S
C1126 C1130 1.531 . S
C1127 C1126 1.369 . S
C1127 C1128 1.410 . S
C1127 C1135 1.503 . S
C1128 C1127 1.410 . S
C1128 C1129 1.392 . S
C1128 C1131 1.511 . S
C1129 C1125 1.376 . S
C1129 C1128 1.392 . S
C1129 H1141 0.929 . S
C1130 C1126 1.531 . S
C1130 H1142 0.960 . S
C1130 H1143 0.962 . S
C1130 H1144 0.960 . S
C1131 C1128 1.511 . S
C1131 H1145 0.961 . S
C1131 H1146 0.961 . S
C1131 H1147 0.961 . S
C1132 C1133 1.370 . S
C1132 C1134 1.363 . S
C1132 H1148 0.931 . S
C1133 C1132 1.370 . S
C1133 C1137 1.408 . S
C1134 C1132 1.363 . S
C1134 C1135 1.370 . S
C1134 C1138 1.524 . S
C1135 C1127 1.503 . S
C1135 C1134 1.370 . S
C1135 C1136 1.403 . S
C1136 C1135 1.403 . S
C1136 C1137 1.404 . S
C1136 C1139 1.539 . S
C1137 C1133 1.408 . S
C1137 C1136 1.404 . S
C1137 H1149 0.930 . S
C1138 C1134 1.524 . S
C1138 H1150 0.956 . S
C1138 H1151 0.961 . S
C1138 H1152 0.961 . S
C1139 C1136 1.539 . S
C1139 H1153 0.958 . S
C1139 H1154 0.961 . S
C1139 H1155 0.960 . S
H1140 C1124 0.931 . S
H1141 C1129 0.929 . S
H1142 C1130 0.960 . S
H1143 C1130 0.962 . S
H1144 C1130 0.960 . S
H1145 C1131 0.961 . S
H1146 C1131 0.961 . S
H1147 C1131 0.961 . S
H1148 C1132 0.931 . S
H1149 C1137 0.930 . S
H1150 C1138 0.956 . S
H1151 C1138 0.961 . S
H1152 C1138 0.961 . S
H1153 C1139 0.958 . S
H1154 C1139 0.961 . S
H1155 C1139 0.960 . S
C1156 C1157 1.391 . S
C1156 C1158 1.394 . S
C1156 H1172 0.931 . S
C1157 C1156 1.391 . S
C1157 C1161 1.376 . S
C1158 C1156 1.394 . S
C1158 C1159 1.369 . S
C1158 C1162 1.531 . S
C1159 C1158 1.369 . S
C1159 C1160 1.410 . S
C1159 C1167 1.503 . S
C1160 C1159 1.410 . S
C1160 C1161 1.392 . S
C1160 C1163 1.511 . S
C1161 C1157 1.376 . S
C1161 C1160 1.392 . S
C1161 H1173 0.929 . S
C1162 C1158 1.531 . S
C1162 H1174 0.960 . S
C1162 H1175 0.962 . S
C1162 H1176 0.960 . S
C1163 C1160 1.511 . S
C1163 H1177 0.961 . S
C1163 H1178 0.961 . S
C1163 H1179 0.961 . S
C1164 C1165 1.370 . S
C1164 C1166 1.363 . S
C1164 H1180 0.931 . S
C1165 C1164 1.370 . S
C1165 C1169 1.408 . S
C1166 C1164 1.363 . S
C1166 C1167 1.370 . S
C1166 C1170 1.524 . S
C1167 C1159 1.503 . S
C1167 C1166 1.370 . S
C1167 C1168 1.403 . S
C1168 C1167 1.403 . S
C1168 C1169 1.404 . S
C1168 C1171 1.539 . S
C1169 C1165 1.408 . S
C1169 C1168 1.404 . S
C1169 H1181 0.930 . S
C1170 C1166 1.524 . S
C1170 H1182 0.956 . S
C1170 H1183 0.961 . S
C1170 H1184 0.961 . S
C1171 C1168 1.539 . S
C1171 H1185 0.958 . S
C1171 H1186 0.961 . S
C1171 H1187 0.960 . S
H1172 C1156 0.931 . S
H1173 C1161 0.929 . S
H1174 C1162 0.960 . S
H1175 C1162 0.962 . S
H1176 C1162 0.960 . S
H1177 C1163 0.961 . S
H1178 C1163 0.961 . S
H1179 C1163 0.961 . S
H1180 C1164 0.931 . S
H1181 C1169 0.930 . S
H1182 C1170 0.956 . S
H1183 C1170 0.961 . S
H1184 C1170 0.961 . S
H1185 C1171 0.958 . S
H1186 C1171 0.961 . S
H1187 C1171 0.960 . S
C1188 C1189 1.391 . S
C1188 C1190 1.394 . S
C1188 H1204 0.931 . S
C1189 C1188 1.391 . S
C1189 C1193 1.376 . S
C1190 C1188 1.394 . S
C1190 C1191 1.369 . S
C1190 C1194 1.531 . S
C1191 C1190 1.369 . S
C1191 C1192 1.410 . S
C1191 C1199 1.503 . S
C1192 C1191 1.410 . S
C1192 C1193 1.392 . S
C1192 C1195 1.511 . S
C1193 C1189 1.376 . S
C1193 C1192 1.392 . S
C1193 H1205 0.929 . S
C1194 C1190 1.531 . S
C1194 H1206 0.960 . S
C1194 H1207 0.962 . S
C1194 H1208 0.960 . S
C1195 C1192 1.511 . S
C1195 H1209 0.961 . S
C1195 H1210 0.961 . S
C1195 H1211 0.961 . S
C1196 C1197 1.370 . S
C1196 C1198 1.363 . S
C1196 H1212 0.931 . S
C1197 C1196 1.370 . S
C1197 C1201 1.408 . S
C1198 C1196 1.363 . S
C1198 C1199 1.370 . S
C1198 C1202 1.524 . S
C1199 C1191 1.503 . S
C1199 C1198 1.370 . S
C1199 C1200 1.403 . S
C1200 C1199 1.403 . S
C1200 C1201 1.404 . S
C1200 C1203 1.539 . S
C1201 C1197 1.408 . S
C1201 C1200 1.404 . S
C1201 H1213 0.930 . S
C1202 C1198 1.524 . S
C1202 H1214 0.956 . S
C1202 H1215 0.961 . S
C1202 H1216 0.961 . S
C1203 C1200 1.539 . S
C1203 H1217 0.958 . S
C1203 H1218 0.961 . S
C1203 H1219 0.960 . S
H1204 C1188 0.931 . S
H1205 C1193 0.929 . S
H1206 C1194 0.960 . S
H1207 C1194 0.962 . S
H1208 C1194 0.960 . S
H1209 C1195 0.961 . S
H1210 C1195 0.961 . S
H1211 C1195 0.961 . S
H1212 C1196 0.931 . S
H1213 C1201 0.930 . S
H1214 C1202 0.956 . S
H1215 C1202 0.961 . S
H1216 C1202 0.961 . S
H1217 C1203 0.958 . S
H1218 C1203 0.961 . S
H1219 C1203 0.960 . S
C1220 C1221 1.391 . S
C1220 C1222 1.394 . S
C1220 H1236 0.931 . S
C1221 C1220 1.391 . S
C1221 C1225 1.376 . S
C1222 C1220 1.394 . S
C1222 C1223 1.369 . S
C1222 C1226 1.531 . S
C1223 C1222 1.369 . S
C1223 C1224 1.410 . S
C1223 C1231 1.503 . S
C1224 C1223 1.410 . S
C1224 C1225 1.392 . S
C1224 C1227 1.511 . S
C1225 C1221 1.376 . S
C1225 C1224 1.392 . S
C1225 H1237 0.929 . S
C1226 C1222 1.531 . S
C1226 H1238 0.960 . S
C1226 H1239 0.962 . S
C1226 H1240 0.960 . S
C1227 C1224 1.511 . S
C1227 H1241 0.961 . S
C1227 H1242 0.961 . S
C1227 H1243 0.961 . S
C1228 C1229 1.370 . S
C1228 C1230 1.363 . S
C1228 H1244 0.931 . S
C1229 C1228 1.370 . S
C1229 C1233 1.408 . S
C1230 C1228 1.363 . S
C1230 C1231 1.370 . S
C1230 C1234 1.524 . S
C1231 C1223 1.503 . S
C1231 C1230 1.370 . S
C1231 C1232 1.403 . S
C1232 C1231 1.403 . S
C1232 C1233 1.404 . S
C1232 C1235 1.539 . S
C1233 C1229 1.408 . S
C1233 C1232 1.404 . S
C1233 H1245 0.930 . S
C1234 C1230 1.524 . S
C1234 H1246 0.956 . S
C1234 H1247 0.961 . S
C1234 H1248 0.961 . S
C1235 C1232 1.539 . S
C1235 H1249 0.958 . S
C1235 H1250 0.961 . S
C1235 H1251 0.960 . S
H1236 C1220 0.931 . S
H1237 C1225 0.929 . S
H1238 C1226 0.960 . S
H1239 C1226 0.962 . S
H1240 C1226 0.960 . S
H1241 C1227 0.961 . S
H1242 C1227 0.961 . S
H1243 C1227 0.961 . S
H1244 C1228 0.931 . S
H1245 C1233 0.930 . S
H1246 C1234 0.956 . S
H1247 C1234 0.961 . S
H1248 C1234 0.961 . S
H1249 C1235 0.958 . S
H1250 C1235 0.961 . S
H1251 C1235 0.960 . S
C1252 C1253 1.391 . S
C1252 C1254 1.394 . S
C1252 H1268 0.931 . S
C1253 C1252 1.391 . S
C1253 C1257 1.376 . S
C1254 C1252 1.394 . S
C1254 C1255 1.369 . S
C1254 C1258 1.531 . S
C1255 C1254 1.369 . S
C1255 C1256 1.410 . S
C1255 C1263 1.503 . S
C1256 C1255 1.410 . S
C1256 C1257 1.392 . S
C1256 C1259 1.511 . S
C1257 C1253 1.376 . S
C1257 C1256 1.392 . S
C1257 H1269 0.929 . S
C1258 C1254 1.531 . S
C1258 H1270 0.960 . S
C1258 H1271 0.962 . S
C1258 H1272 0.960 . S
C1259 C1256 1.511 . S
C1259 H1273 0.961 . S
C1259 H1274 0.961 . S
C1259 H1275 0.961 . S
C1260 C1261 1.370 . S
C1260 C1262 1.363 . S
C1260 H1276 0.931 . S
C1261 C1260 1.370 . S
C1261 C1265 1.408 . S
C1262 C1260 1.363 . S
C1262 C1263 1.370 . S
C1262 C1266 1.524 . S
C1263 C1255 1.503 . S
C1263 C1262 1.370 . S
C1263 C1264 1.403 . S
C1264 C1263 1.403 . S
C1264 C1265 1.404 . S
C1264 C1267 1.539 . S
C1265 C1261 1.408 . S
C1265 C1264 1.404 . S
C1265 H1277 0.930 . S
C1266 C1262 1.524 . S
C1266 H1278 0.956 . S
C1266 H1279 0.961 . S
C1266 H1280 0.961 . S
C1267 C1264 1.539 . S
C1267 H1281 0.958 . S
C1267 H1282 0.961 . S
C1267 H1283 0.960 . S
H1268 C1252 0.931 . S
H1269 C1257 0.929 . S
H1270 C1258 0.960 . S
H1271 C1258 0.962 . S
H1272 C1258 0.960 . S
H1273 C1259 0.961 . S
H1274 C1259 0.961 . S
H1275 C1259 0.961 . S
H1276 C1260 0.931 . S
H1277 C1265 0.930 . S
H1278 C1266 0.956 . S
H1279 C1266 0.961 . S
H1280 C1266 0.961 . S
H1281 C1267 0.958 . S
H1282 C1267 0.961 . S
H1283 C1267 0.960 . S
C1284 C1285 1.391 . S
C1284 C1286 1.394 . S
C1284 H1300 0.931 . S
C1285 C1284 1.391 . S
C1285 C1289 1.376 . S
C1286 C1284 1.394 . S
C1286 C1287 1.369 . S
C1286 C1290 1.531 . S
C1287 C1286 1.369 . S
C1287 C1288 1.410 . S
C1287 C1295 1.503 . S
C1288 C1287 1.410 . S
C1288 C1289 1.392 . S
C1288 C1291 1.511 . S
C1289 C1285 1.376 . S
C1289 C1288 1.392 . S
C1289 H1301 0.929 . S
C1290 C1286 1.531 . S
C1290 H1302 0.960 . S
C1290 H1303 0.962 . S
C1290 H1304 0.960 . S
C1291 C1288 1.511 . S
C1291 H1305 0.961 . S
C1291 H1306 0.961 . S
C1291 H1307 0.961 . S
C1292 C1293 1.370 . S
C1292 C1294 1.363 . S
C1292 H1308 0.931 . S
C1293 C1292 1.370 . S
C1293 C1297 1.408 . S
C1294 C1292 1.363 . S
C1294 C1295 1.370 . S
C1294 C1298 1.524 . S
C1295 C1287 1.503 . S
C1295 C1294 1.370 . S
C1295 C1296 1.403 . S
C1296 C1295 1.403 . S
C1296 C1297 1.404 . S
C1296 C1299 1.539 . S
C1297 C1293 1.408 . S
C1297 C1296 1.404 . S
C1297 H1309 0.930 . S
C1298 C1294 1.524 . S
C1298 H1310 0.956 . S
C1298 H1311 0.961 . S
C1298 H1312 0.961 . S
C1299 C1296 1.539 . S
C1299 H1313 0.958 . S
C1299 H1314 0.961 . S
C1299 H1315 0.960 . S
H1300 C1284 0.931 . S
H1301 C1289 0.929 . S
H1302 C1290 0.960 . S
H1303 C1290 0.962 . S
H1304 C1290 0.960 . S
H1305 C1291 0.961 . S
H1306 C1291 0.961 . S
H1307 C1291 0.961 . S
H1308 C1292 0.931 . S
H1309 C1297 0.930 . S
H1310 C1298 0.956 . S
H1311 C1298 0.961 . S
H1312 C1298 0.961 . S
H1313 C1299 0.958 . S
H1314 C1299 0.961 . S
H1315 C1299 0.960 . S
C1316 C1317 1.391 . S
C1316 C1318 1.394 . S
C1316 H1332 0.931 . S
C1317 C1316 1.391 . S
C1317 C1321 1.376 . S
C1318 C1316 1.394 . S
C1318 C1319 1.369 . S
C1318 C1322 1.531 . S
C1319 C1318 1.369 . S
C1319 C1320 1.410 . S
C1319 C1327 1.503 . S
C1320 C1319 1.410 . S
C1320 C1321 1.392 . S
C1320 C1323 1.511 . S
C1321 C1317 1.376 . S
C1321 C1320 1.392 . S
C1321 H1333 0.929 . S
C1322 C1318 1.531 . S
C1322 H1334 0.960 . S
C1322 H1335 0.962 . S
C1322 H1336 0.960 . S
C1323 C1320 1.511 . S
C1323 H1337 0.961 . S
C1323 H1338 0.961 . S
C1323 H1339 0.961 . S
C1324 C1325 1.370 . S
C1324 C1326 1.363 . S
C1324 H1340 0.931 . S
C1325 C1324 1.370 . S
C1325 C1329 1.408 . S
C1326 C1324 1.363 . S
C1326 C1327 1.370 . S
C1326 C1330 1.524 . S
C1327 C1319 1.503 . S
C1327 C1326 1.370 . S
C1327 C1328 1.403 . S
C1328 C1327 1.403 . S
C1328 C1329 1.404 . S
C1328 C1331 1.539 . S
C1329 C1325 1.408 . S
C1329 C1328 1.404 . S
C1329 H1341 0.930 . S
C1330 C1326 1.524 . S
C1330 H1342 0.956 . S
C1330 H1343 0.961 . S
C1330 H1344 0.961 . S
C1331 C1328 1.539 . S
C1331 H1345 0.958 . S
C1331 H1346 0.961 . S
C1331 H1347 0.960 . S
H1332 C1316 0.931 . S
H1333 C1321 0.929 . S
H1334 C1322 0.960 . S
H1335 C1322 0.962 . S
H1336 C1322 0.960 . S
H1337 C1323 0.961 . S
H1338 C1323 0.961 . S
H1339 C1323 0.961 . S
H1340 C1324 0.931 . S
H1341 C1329 0.930 . S
H1342 C1330 0.956 . S
H1343 C1330 0.961 . S
H1344 C1330 0.961 . S
H1345 C1331 0.958 . S
H1346 C1331 0.961 . S
H1347 C1331 0.960 . S
C1348 C1349 1.391 . S
C1348 C1350 1.394 . S
C1348 H1364 0.931 . S
C1349 C1348 1.391 . S
C1349 C1353 1.376 . S
C1350 C1348 1.394 . S
C1350 C1351 1.369 . S
C1350 C1354 1.531 . S
C1351 C1350 1.369 . S
C1351 C1352 1.410 . S
C1351 C1359 1.503 . S
C1352 C1351 1.410 . S
C1352 C1353 1.392 . S
C1352 C1355 1.511 . S
C1353 C1349 1.376 . S
C1353 C1352 1.392 . S
C1353 H1365 0.929 . S
C1354 C1350 1.531 . S
C1354 H1366 0.960 . S
C1354 H1367 0.962 . S
C1354 H1368 0.960 . S
C1355 C1352 1.511 . S
C1355 H1369 0.961 . S
C1355 H1370 0.961 . S
C1355 H1371 0.961 . S
C1356 C1357 1.370 . S
C1356 C1358 1.363 . S
C1356 H1372 0.931 . S
C1357 C1356 1.370 . S
C1357 C1361 1.408 . S
C1358 C1356 1.363 . S
C1358 C1359 1.370 . S
C1358 C1362 1.524 . S
C1359 C1351 1.503 . S
C1359 C1358 1.370 . S
C1359 C1360 1.403 . S
C1360 C1359 1.403 . S
C1360 C1361 1.404 . S
C1360 C1363 1.539 . S
C1361 C1357 1.408 . S
C1361 C1360 1.404 . S
C1361 H1373 0.930 . S
C1362 C1358 1.524 . S
C1362 H1374 0.956 . S
C1362 H1375 0.961 . S
C1362 H1376 0.961 . S
C1363 C1360 1.539 . S
C1363 H1377 0.958 . S
C1363 H1378 0.961 . S
C1363 H1379 0.960 . S
H1364 C1348 0.931 . S
H1365 C1353 0.929 . S
H1366 C1354 0.960 . S
H1367 C1354 0.962 . S
H1368 C1354 0.960 . S
H1369 C1355 0.961 . S
H1370 C1355 0.961 . S
H1371 C1355 0.961 . S
H1372 C1356 0.931 . S
H1373 C1361 0.930 . S
H1374 C1362 0.956 . S
H1375 C1362 0.961 . S
H1376 C1362 0.961 . S
H1377 C1363 0.958 . S
H1378 C1363 0.961 . S
H1379 C1363 0.960 . S
C1380 C1381 1.391 . S
C1380 C1382 1.394 . S
C1380 H1396 0.931 . S
C1381 C1380 1.391 . S
C1381 C1385 1.376 . S
C1382 C1380 1.394 . S
C1382 C1383 1.369 . S
C1382 C1386 1.531 . S
C1383 C1382 1.369 . S
C1383 C1384 1.410 . S
C1383 C1391 1.503 . S
C1384 C1383 1.410 . S
C1384 C1385 1.392 . S
C1384 C1387 1.511 . S
C1385 C1381 1.376 . S
C1385 C1384 1.392 . S
C1385 H1397 0.929 . S
C1386 C1382 1.531 . S
C1386 H1398 0.960 . S
C1386 H1399 0.962 . S
C1386 H1400 0.960 . S
C1387 C1384 1.511 . S
C1387 H1401 0.961 . S
C1387 H1402 0.961 . S
C1387 H1403 0.961 . S
C1388 C1389 1.370 . S
C1388 C1390 1.363 . S
C1388 H1404 0.931 . S
C1389 C1388 1.370 . S
C1389 C1393 1.408 . S
C1390 C1388 1.363 . S
C1390 C1391 1.370 . S
C1390 C1394 1.524 . S
C1391 C1383 1.503 . S
C1391 C1390 1.370 . S
C1391 C1392 1.403 . S
C1392 C1391 1.403 . S
C1392 C1393 1.404 . S
C1392 C1395 1.539 . S
C1393 C1389 1.408 . S
C1393 C1392 1.404 . S
C1393 H1405 0.930 . S
C1394 C1390 1.524 . S
C1394 H1406 0.956 . S
C1394 H1407 0.961 . S
C1394 H1408 0.961 . S
C1395 C1392 1.539 . S
C1395 H1409 0.958 . S
C1395 H1410 0.961 . S
C1395 H1411 0.960 . S
H1396 C1380 0.931 . S
H1397 C1385 0.929 . S
H1398 C1386 0.960 . S
H1399 C1386 0.962 . S
H1400 C1386 0.960 . S
H1401 C1387 0.961 . S
H1402 C1387 0.961 . S
H1403 C1387 0.961 . S
H1404 C1388 0.931 . S
H1405 C1393 0.930 . S
H1406 C1394 0.956 . S
H1407 C1394 0.961 . S
H1408 C1394 0.961 . S
H1409 C1395 0.958 . S
H1410 C1395 0.961 . S
H1411 C1395 0.960 . S
C1412 C1413 1.391 . S
C1412 C1414 1.394 . S
C1412 H1428 0.931 . S
C1413 C1412 1.391 . S
C1413 C1417 1.376 . S
C1414 C1412 1.394 . S
C1414 C1415 1.369 . S
C1414 C1418 1.531 . S
C1415 C1414 1.369 . S
C1415 C1416 1.410 . S
C1415 C1423 1.503 . S
C1416 C1415 1.410 . S
C1416 C1417 1.392 . S
C1416 C1419 1.511 . S
C1417 C1413 1.376 . S
C1417 C1416 1.392 . S
C1417 H1429 0.929 . S
C1418 C1414 1.531 . S
C1418 H1430 0.960 . S
C1418 H1431 0.962 . S
C1418 H1432 0.960 . S
C1419 C1416 1.511 . S
C1419 H1433 0.961 . S
C1419 H1434 0.961 . S
C1419 H1435 0.961 . S
C1420 C1421 1.370 . S
C1420 C1422 1.363 . S
C1420 H1436 0.931 . S
C1421 C1420 1.370 . S
C1421 C1425 1.408 . S
C1422 C1420 1.363 . S
C1422 C1423 1.370 . S
C1422 C1426 1.524 . S
C1423 C1415 1.503 . S
C1423 C1422 1.370 . S
C1423 C1424 1.403 . S
C1424 C1423 1.403 . S
C1424 C1425 1.404 . S
C1424 C1427 1.539 . S
C1425 C1421 1.408 . S
C1425 C1424 1.404 . S
C1425 H1437 0.930 . S
C1426 C1422 1.524 . S
C1426 H1438 0.956 . S
C1426 H1439 0.961 . S
C1426 H1440 0.961 . S
C1427 C1424 1.539 . S
C1427 H1441 0.958 . S
C1427 H1442 0.961 . S
C1427 H1443 0.960 . S
H1428 C1412 0.931 . S
H1429 C1417 0.929 . S
H1430 C1418 0.960 . S
H1431 C1418 0.962 . S
H1432 C1418 0.960 . S
H1433 C1419 0.961 . S
H1434 C1419 0.961 . S
H1435 C1419 0.961 . S
H1436 C1420 0.931 . S
H1437 C1425 0.930 . S
H1438 C1426 0.956 . S
H1439 C1426 0.961 . S
H1440 C1426 0.961 . S
H1441 C1427 0.958 . S
H1442 C1427 0.961 . S
H1443 C1427 0.960 . S
C1444 C1445 1.391 . S
C1444 C1446 1.394 . S
C1444 H1460 0.931 . S
C1445 C1444 1.391 . S
C1445 C1449 1.376 . S
C1446 C1444 1.394 . S
C1446 C1447 1.369 . S
C1446 C1450 1.531 . S
C1447 C1446 1.369 . S
C1447 C1448 1.410 . S
C1447 C1455 1.503 . S
C1448 C1447 1.410 . S
C1448 C1449 1.392 . S
C1448 C1451 1.511 . S
C1449 C1445 1.376 . S
C1449 C1448 1.392 . S
C1449 H1461 0.929 . S
C1450 C1446 1.531 . S
C1450 H1462 0.960 . S
C1450 H1463 0.962 . S
C1450 H1464 0.960 . S
C1451 C1448 1.511 . S
C1451 H1465 0.961 . S
C1451 H1466 0.961 . S
C1451 H1467 0.961 . S
C1452 C1453 1.370 . S
C1452 C1454 1.363 . S
C1452 H1468 0.931 . S
C1453 C1452 1.370 . S
C1453 C1457 1.408 . S
C1454 C1452 1.363 . S
C1454 C1455 1.370 . S
C1454 C1458 1.524 . S
C1455 C1447 1.503 . S
C1455 C1454 1.370 . S
C1455 C1456 1.403 . S
C1456 C1455 1.403 . S
C1456 C1457 1.404 . S
C1456 C1459 1.539 . S
C1457 C1453 1.408 . S
C1457 C1456 1.404 . S
C1457 H1469 0.930 . S
C1458 C1454 1.524 . S
C1458 H1470 0.956 . S
C1458 H1471 0.961 . S
C1458 H1472 0.961 . S
C1459 C1456 1.539 . S
C1459 H1473 0.958 . S
C1459 H1474 0.961 . S
C1459 H1475 0.960 . S
H1460 C1444 0.931 . S
H1461 C1449 0.929 . S
H1462 C1450 0.960 . S
H1463 C1450 0.962 . S
H1464 C1450 0.960 . S
H1465 C1451 0.961 . S
H1466 C1451 0.961 . S
H1467 C1451 0.961 . S
H1468 C1452 0.931 . S
H1469 C1457 0.930 . S
H1470 C1458 0.956 . S
H1471 C1458 0.961 . S
H1472 C1458 0.961 . S
H1473 C1459 0.958 . S
H1474 C1459 0.961 . S
H1475 C1459 0.960 . S
C1476 C1477 1.391 . S
C1476 C1478 1.394 . S
C1476 H1492 0.931 . S
C1477 C1476 1.391 . S
C1477 C1481 1.376 . S
C1478 C1476 1.394 . S
C1478 C1479 1.369 . S
C1478 C1482 1.531 . S
C1479 C1478 1.369 . S
C1479 C1480 1.410 . S
C1479 C1487 1.503 . S
C1480 C1479 1.410 . S
C1480 C1481 1.392 . S
C1480 C1483 1.511 . S
C1481 C1477 1.376 . S
C1481 C1480 1.392 . S
C1481 H1493 0.929 . S
C1482 C1478 1.531 . S
C1482 H1494 0.960 . S
C1482 H1495 0.962 . S
C1482 H1496 0.960 . S
C1483 C1480 1.511 . S
C1483 H1497 0.961 . S
C1483 H1498 0.961 . S
C1483 H1499 0.961 . S
C1484 C1485 1.370 . S
C1484 C1486 1.363 . S
C1484 H1500 0.931 . S
C1485 C1484 1.370 . S
C1485 C1489 1.408 . S
C1486 C1484 1.363 . S
C1486 C1487 1.370 . S
C1486 C1490 1.524 . S
C1487 C1479 1.503 . S
C1487 C1486 1.370 . S
C1487 C1488 1.403 . S
C1488 C1487 1.403 . S
C1488 C1489 1.404 . S
C1488 C1491 1.539 . S
C1489 C1485 1.408 . S
C1489 C1488 1.404 . S
C1489 H1501 0.930 . S
C1490 C1486 1.524 . S
C1490 H1502 0.956 . S
C1490 H1503 0.961 . S
C1490 H1504 0.961 . S
C1491 C1488 1.539 . S
C1491 H1505 0.958 . S
C1491 H1506 0.961 . S
C1491 H1507 0.960 . S
H1492 C1476 0.931 . S
H1493 C1481 0.929 . S
H1494 C1482 0.960 . S
H1495 C1482 0.962 . S
H1496 C1482 0.960 . S
H1497 C1483 0.961 . S
H1498 C1483 0.961 . S
H1499 C1483 0.961 . S
H1500 C1484 0.931 . S
H1501 C1489 0.930 . S
H1502 C1490 0.956 . S
H1503 C1490 0.961 . S
H1504 C1490 0.961 . S
H1505 C1491 0.958 . S
H1506 C1491 0.961 . S
H1507 C1491 0.960 . S
C1508 C1509 1.391 . S
C1508 C1510 1.394 . S
C1508 H1524 0.931 . S
C1509 C1508 1.391 . S
C1509 C1513 1.376 . S
C1510 C1508 1.394 . S
C1510 C1511 1.369 . S
C1510 C1514 1.531 . S
C1511 C1510 1.369 . S
C1511 C1512 1.410 . S
C1511 C1519 1.503 . S
C1512 C1511 1.410 . S
C1512 C1513 1.392 . S
C1512 C1515 1.511 . S
C1513 C1509 1.376 . S
C1513 C1512 1.392 . S
C1513 H1525 0.929 . S
C1514 C1510 1.531 . S
C1514 H1526 0.960 . S
C1514 H1527 0.962 . S
C1514 H1528 0.960 . S
C1515 C1512 1.511 . S
C1515 H1529 0.961 . S
C1515 H1530 0.961 . S
C1515 H1531 0.961 . S
C1516 C1517 1.370 . S
C1516 C1518 1.363 . S
C1516 H1532 0.931 . S
C1517 C1516 1.370 . S
C1517 C1521 1.408 . S
C1518 C1516 1.363 . S
C1518 C1519 1.370 . S
C1518 C1522 1.524 . S
C1519 C1511 1.503 . S
C1519 C1518 1.370 . S
C1519 C1520 1.403 . S
C1520 C1519 1.403 . S
C1520 C1521 1.404 . S
C1520 C1523 1.539 . S
C1521 C1517 1.408 . S
C1521 C1520 1.404 . S
C1521 H1533 0.930 . S
C1522 C1518 1.524 . S
C1522 H1534 0.956 . S
C1522 H1535 0.961 . S
C1522 H1536 0.961 . S
C1523 C1520 1.539 . S
C1523 H1537 0.958 . S
C1523 H1538 0.961 . S
C1523 H1539 0.960 . S
H1524 C1508 0.931 . S
H1525 C1513 0.929 . S
H1526 C1514 0.960 . S
H1527 C1514 0.962 . S
H1528 C1514 0.960 . S
H1529 C1515 0.961 . S
H1530 C1515 0.961 . S
H1531 C1515 0.961 . S
H1532 C1516 0.931 . S
H1533 C1521 0.930 . S
H1534 C1522 0.956 . S
H1535 C1522 0.961 . S
H1536 C1522 0.961 . S
H1537 C1523 0.958 . S
H1538 C1523 0.961 . S
H1539 C1523 0.960 . S
C1540 C1541 1.391 . S
C1540 C1542 1.394 . S
C1540 H1556 0.931 . S
C1541 C1540 1.391 . S
C1541 C1545 1.376 . S
C1542 C1540 1.394 . S
C1542 C1543 1.369 . S
C1542 C1546 1.531 . S
C1543 C1542 1.369 . S
C1543 C1544 1.410 . S
C1543 C1551 1.503 . S
C1544 C1543 1.410 . S
C1544 C1545 1.392 . S
C1544 C1547 1.511 . S
C1545 C1541 1.376 . S
C1545 C1544 1.392 . S
C1545 H1557 0.929 . S
C1546 C1542 1.531 . S
C1546 H1558 0.960 . S
C1546 H1559 0.962 . S
C1546 H1560 0.960 . S
C1547 C1544 1.511 . S
C1547 H1561 0.961 . S
C1547 H1562 0.961 . S
C1547 H1563 0.961 . S
C1548 C1549 1.370 . S
C1548 C1550 1.363 . S
C1548 H1564 0.931 . S
C1549 C1548 1.370 . S
C1549 C1553 1.408 . S
C1550 C1548 1.363 . S
C1550 C1551 1.370 . S
C1550 C1554 1.524 . S
C1551 C1543 1.503 . S
C1551 C1550 1.370 . S
C1551 C1552 1.403 . S
C1552 C1551 1.403 . S
C1552 C1553 1.404 . S
C1552 C1555 1.539 . S
C1553 C1549 1.408 . S
C1553 C1552 1.404 . S
C1553 H1565 0.930 . S
C1554 C1550 1.524 . S
C1554 H1566 0.956 . S
C1554 H1567 0.961 . S
C1554 H1568 0.961 . S
C1555 C1552 1.539 . S
C1555 H1569 0.958 . S
C1555 H1570 0.961 . S
C1555 H1571 0.960 . S
H1556 C1540 0.931 . S
H1557 C1545 0.929 . S
H1558 C1546 0.960 . S
H1559 C1546 0.962 . S
H1560 C1546 0.960 . S
H1561 C1547 0.961 . S
H1562 C1547 0.961 . S
H1563 C1547 0.961 . S
H1564 C1548 0.931 . S
H1565 C1553 0.930 . S
H1566 C1554 0.956 . S
H1567 C1554 0.961 . S
H1568 C1554 0.961 . S
H1569 C1555 0.958 . S
H1570 C1555 0.961 . S
H1571 C1555 0.960 . S
C1572 C1573 1.391 . S
C1572 C1574 1.394 . S
C1572 H1588 0.931 . S
C1573 C1572 1.391 . S
C1573 C1577 1.376 . S
C1574 C1572 1.394 . S
C1574 C1575 1.369 . S
C1574 C1578 1.531 . S
C1575 C1574 1.369 . S
C1575 C1576 1.410 . S
C1575 C1583 1.503 . S
C1576 C1575 1.410 . S
C1576 C1577 1.392 . S
C1576 C1579 1.511 . S
C1577 C1573 1.376 . S
C1577 C1576 1.392 . S
C1577 H1589 0.929 . S
C1578 C1574 1.531 . S
C1578 H1590 0.960 . S
C1578 H1591 0.962 . S
C1578 H1592 0.960 . S
C1579 C1576 1.511 . S
C1579 H1593 0.961 . S
C1579 H1594 0.961 . S
C1579 H1595 0.961 . S
C1580 C1581 1.370 . S
C1580 C1582 1.363 . S
C1580 H1596 0.931 . S
C1581 C1580 1.370 . S
C1581 C1585 1.408 . S
C1582 C1580 1.363 . S
C1582 C1583 1.370 . S
C1582 C1586 1.524 . S
C1583 C1575 1.503 . S
C1583 C1582 1.370 . S
C1583 C1584 1.403 . S
C1584 C1583 1.403 . S
C1584 C1585 1.404 . S
C1584 C1587 1.539 . S
C1585 C1581 1.408 . S
C1585 C1584 1.404 . S
C1585 H1597 0.930 . S
C1586 C1582 1.524 . S
C1586 H1598 0.956 . S
C1586 H1599 0.961 . S
C1586 H1600 0.961 . S
C1587 C1584 1.539 . S
C1587 H1601 0.958 . S
C1587 H1602 0.961 . S
C1587 H1603 0.960 . S
H1588 C1572 0.931 . S
H1589 C1577 0.929 . S
H1590 C1578 0.960 . S
H1591 C1578 0.962 . S
H1592 C1578 0.960 . S
H1593 C1579 0.961 . S
H1594 C1579 0.961 . S
H1595 C1579 0.961 . S
H1596 C1580 0.931 . S
H1597 C1585 0.930 . S
H1598 C1586 0.956 . S
H1599 C1586 0.961 . S
H1600 C1586 0.961 . S
H1601 C1587 0.958 . S
H1602 C1587 0.961 . S
H1603 C1587 0.960 . S
C1604 C1605 1.391 . S
C1604 C1606 1.394 . S
C1604 H1620 0.931 . S
C1605 C1604 1.391 . S
C1605 C1609 1.376 . S
C1606 C1604 1.394 . S
C1606 C1607 1.369 . S
C1606 C1610 1.531 . S
C1607 C1606 1.369 . S
C1607 C1608 1.410 . S
C1607 C1615 1.503 . S
C1608 C1607 1.410 . S
C1608 C1609 1.392 . S
C1608 C1611 1.511 . S
C1609 C1605 1.376 . S
C1609 C1608 1.392 . S
C1609 H1621 0.929 . S
C1610 C1606 1.531 . S
C1610 H1622 0.960 . S
C1610 H1623 0.962 . S
C1610 H1624 0.960 . S
C1611 C1608 1.511 . S
C1611 H1625 0.961 . S
C1611 H1626 0.961 . S
C1611 H1627 0.961 . S
C1612 C1613 1.370 . S
C1612 C1614 1.363 . S
C1612 H1628 0.931 . S
C1613 C1612 1.370 . S
C1613 C1617 1.408 . S
C1614 C1612 1.363 . S
C1614 C1615 1.370 . S
C1614 C1618 1.524 . S
C1615 C1607 1.503 . S
C1615 C1614 1.370 . S
C1615 C1616 1.403 . S
C1616 C1615 1.403 . S
C1616 C1617 1.404 . S
C1616 C1619 1.539 . S
C1617 C1613 1.408 . S
C1617 C1616 1.404 . S
C1617 H1629 0.930 . S
C1618 C1614 1.524 . S
C1618 H1630 0.956 . S
C1618 H1631 0.961 . S
C1618 H1632 0.961 . S
C1619 C1616 1.539 . S
C1619 H1633 0.958 . S
C1619 H1634 0.961 . S
C1619 H1635 0.960 . S
H1620 C1604 0.931 . S
H1621 C1609 0.929 . S
H1622 C1610 0.960 . S
H1623 C1610 0.962 . S
H1624 C1610 0.960 . S
H1625 C1611 0.961 . S
H1626 C1611 0.961 . S
H1627 C1611 0.961 . S
H1628 C1612 0.931 . S
H1629 C1617 0.930 . S
H1630 C1618 0.956 . S
H1631 C1618 0.961 . S
H1632 C1618 0.961 . S
H1633 C1619 0.958 . S
H1634 C1619 0.961 . S
H1635 C1619 0.960 . S
C1636 C1637 1.391 . S
C1636 C1638 1.394 . S
C1636 H1652 0.931 . S
C1637 C1636 1.391 . S
C1637 C1641 1.376 . S
C1638 C1636 1.394 . S
C1638 C1639 1.369 . S
C1638 C1642 1.531 . S
C1639 C1638 1.369 . S
C1639 C1640 1.410 . S
C1639 C1647 1.503 . S
C1640 C1639 1.410 . S
C1640 C1641 1.392 . S
C1640 C1643 1.511 . S
C1641 C1637 1.376 . S
C1641 C1640 1.392 . S
C1641 H1653 0.929 . S
C1642 C1638 1.531 . S
C1642 H1654 0.960 . S
C1642 H1655 0.962 . S
C1642 H1656 0.960 . S
C1643 C1640 1.511 . S
C1643 H1657 0.961 . S
C1643 H1658 0.961 . S
C1643 H1659 0.961 . S
C1644 C1645 1.370 . S
C1644 C1646 1.363 . S
C1644 H1660 0.931 . S
C1645 C1644 1.370 . S
C1645 C1649 1.408 . S
C1646 C1644 1.363 . S
C1646 C1647 1.370 . S
C1646 C1650 1.524 . S
C1647 C1639 1.503 . S
C1647 C1646 1.370 . S
C1647 C1648 1.403 . S
C1648 C1647 1.403 . S
C1648 C1649 1.404 . S
C1648 C1651 1.539 . S
C1649 C1645 1.408 . S
C1649 C1648 1.404 . S
C1649 H1661 0.930 . S
C1650 C1646 1.524 . S
C1650 H1662 0.956 . S
C1650 H1663 0.961 . S
C1650 H1664 0.961 . S
C1651 C1648 1.539 . S
C1651 H1665 0.958 . S
C1651 H1666 0.961 . S
C1651 H1667 0.960 . S
H1652 C1636 0.931 . S
H1653 C1641 0.929 . S
H1654 C1642 0.960 . S
H1655 C1642 0.962 . S
H1656 C1642 0.960 . S
H1657 C1643 0.961 . S
H1658 C1643 0.961 . S
H1659 C1643 0.961 . S
H1660 C1644 0.931 . S
H1661 C1649 0.930 . S
H1662 C1650 0.956 . S
H1663 C1650 0.961 . S
H1664 C1650 0.961 . S
H1665 C1651 0.958 . S
H1666 C1651 0.961 . S
H1667 C1651 0.960 . S
C1668 C1669 1.391 . S
C1668 C1670 1.394 . S
C1668 H1684 0.931 . S
C1669 C1668 1.391 . S
C1669 C1673 1.376 . S
C1670 C1668 1.394 . S
C1670 C1671 1.369 . S
C1670 C1674 1.531 . S
C1671 C1670 1.369 . S
C1671 C1672 1.410 . S
C1671 C1679 1.503 . S
C1672 C1671 1.410 . S
C1672 C1673 1.392 . S
C1672 C1675 1.511 . S
C1673 C1669 1.376 . S
C1673 C1672 1.392 . S
C1673 H1685 0.929 . S
C1674 C1670 1.531 . S
C1674 H1686 0.960 . S
C1674 H1687 0.962 . S
C1674 H1688 0.960 . S
C1675 C1672 1.511 . S
C1675 H1689 0.961 . S
C1675 H1690 0.961 . S
C1675 H1691 0.961 . S
C1676 C1677 1.370 . S
C1676 C1678 1.363 . S
C1676 H1692 0.931 . S
C1677 C1676 1.370 . S
C1677 C1681 1.408 . S
C1678 C1676 1.363 . S
C1678 C1679 1.370 . S
C1678 C1682 1.524 . S
C1679 C1671 1.503 . S
C1679 C1678 1.370 . S
C1679 C1680 1.403 . S
C1680 C1679 1.403 . S
C1680 C1681 1.404 . S
C1680 C1683 1.539 . S
C1681 C1677 1.408 . S
C1681 C1680 1.404 . S
C1681 H1693 0.930 . S
C1682 C1678 1.524 . S
C1682 H1694 0.956 . S
C1682 H1695 0.961 . S
C1682 H1696 0.961 . S
C1683 C1680 1.539 . S
C1683 H1697 0.958 . S
C1683 H1698 0.961 . S
C1683 H1699 0.960 . S
H1684 C1668 0.931 . S
H1685 C1673 0.929 . S
H1686 C1674 0.960 . S
H1687 C1674 0.962 . S
H1688 C1674 0.960 . S
H1689 C1675 0.961 . S
H1690 C1675 0.961 . S
H1691 C1675 0.961 . S
H1692 C1676 0.931 . S
H1693 C1681 0.930 . S
H1694 C1682 0.956 . S
H1695 C1682 0.961 . S
H1696 C1682 0.961 . S
H1697 C1683 0.958 . S
H1698 C1683 0.961 . S
H1699 C1683 0.960 . S
C1700 C1701 1.391 . S
C1700 C1702 1.394 . S
C1700 H1716 0.931 . S
C1701 C1700 1.391 . S
C1701 C1705 1.376 . S
C1702 C1700 1.394 . S
C1702 C1703 1.369 . S
C1702 C1706 1.531 . S
C1703 C1702 1.369 . S
C1703 C1704 1.410 . S
C1703 C1711 1.503 . S
C1704 C1703 1.410 . S
C1704 C1705 1.392 . S
C1704 C1707 1.511 . S
C1705 C1701 1.376 . S
C1705 C1704 1.392 . S
C1705 H1717 0.929 . S
C1706 C1702 1.531 . S
C1706 H1718 0.960 . S
C1706 H1719 0.962 . S
C1706 H1720 0.960 . S
C1707 C1704 1.511 . S
C1707 H1721 0.961 . S
C1707 H1722 0.961 . S
C1707 H1723 0.961 . S
C1708 C1709 1.370 . S
C1708 C1710 1.363 . S
C1708 H1724 0.931 . S
C1709 C1708 1.370 . S
C1709 C1713 1.408 . S
C1710 C1708 1.363 . S
C1710 C1711 1.370 . S
C1710 C1714 1.524 . S
C1711 C1703 1.503 . S
C1711 C1710 1.370 . S
C1711 C1712 1.403 . S
C1712 C1711 1.403 . S
C1712 C1713 1.404 . S
C1712 C1715 1.539 . S
C1713 C1709 1.408 . S
C1713 C1712 1.404 . S
C1713 H1725 0.930 . S
C1714 C1710 1.524 . S
C1714 H1726 0.956 . S
C1714 H1727 0.961 . S
C1714 H1728 0.961 . S
C1715 C1712 1.539 . S
C1715 H1729 0.958 . S
C1715 H1730 0.961 . S
C1715 H1731 0.960 . S
H1716 C1700 0.931 . S
H1717 C1705 0.929 . S
H1718 C1706 0.960 . S
H1719 C1706 0.962 . S
H1720 C1706 0.960 . S
H1721 C1707 0.961 . S
H1722 C1707 0.961 . S
H1723 C1707 0.961 . S
H1724 C1708 0.931 . S
H1725 C1713 0.930 . S
H1726 C1714 0.956 . S
H1727 C1714 0.961 . S
H1728 C1714 0.961 . S
H1729 C1715 0.958 . S
H1730 C1715 0.961 . S
H1731 C1715 0.960 . S
C1732 C1733 1.391 . S
C1732 C1734 1.394 . S
C1732 H1748 0.931 . S
C1733 C1732 1.391 . S
C1733 C1737 1.376 . S
C1734 C1732 1.394 . S
C1734 C1735 1.369 . S
C1734 C1738 1.531 . S
C1735 C1734 1.369 . S
C1735 C1736 1.410 . S
C1735 C1743 1.503 . S
C1736 C1735 1.410 . S
C1736 C1737 1.392 . S
C1736 C1739 1.511 . S
C1737 C1733 1.376 . S
C1737 C1736 1.392 . S
C1737 H1749 0.929 . S
C1738 C1734 1.531 . S
C1738 H1750 0.960 . S
C1738 H1751 0.962 . S
C1738 H1752 0.960 . S
C1739 C1736 1.511 . S
C1739 H1753 0.961 . S
C1739 H1754 0.961 . S
C1739 H1755 0.961 . S
C1740 C1741 1.370 . S
C1740 C1742 1.363 . S
C1740 H1756 0.931 . S
C1741 C1740 1.370 . S
C1741 C1745 1.408 . S
C1742 C1740 1.363 . S
C1742 C1743 1.370 . S
C1742 C1746 1.524 . S
C1743 C1735 1.503 . S
C1743 C1742 1.370 . S
C1743 C1744 1.403 . S
C1744 C1743 1.403 . S
C1744 C1745 1.404 . S
C1744 C1747 1.539 . S
C1745 C1741 1.408 . S
C1745 C1744 1.404 . S
C1745 H1757 0.930 . S
C1746 C1742 1.524 . S
C1746 H1758 0.956 . S
C1746 H1759 0.961 . S
C1746 H1760 0.961 . S
C1747 C1744 1.539 . S
C1747 H1761 0.958 . S
C1747 H1762 0.961 . S
C1747 H1763 0.960 . S
H1748 C1732 0.931 . S
H1749 C1737 0.929 . S
H1750 C1738 0.960 . S
H1751 C1738 0.962 . S
H1752 C1738 0.960 . S
H1753 C1739 0.961 . S
H1754 C1739 0.961 . S
H1755 C1739 0.961 . S
H1756 C1740 0.931 . S
H1757 C1745 0.930 . S
H1758 C1746 0.956 . S
H1759 C1746 0.961 . S
H1760 C1746 0.961 . S
H1761 C1747 0.958 . S
H1762 C1747 0.961 . S
H1763 C1747 0.960 . S
C1764 C1765 1.391 . S
C1764 C1766 1.394 . S
C1764 H1780 0.931 . S
C1765 C1764 1.391 . S
C1765 C1769 1.376 . S
C1766 C1764 1.394 . S
C1766 C1767 1.369 . S
C1766 C1770 1.531 . S
C1767 C1766 1.369 . S
C1767 C1768 1.410 . S
C1767 C1775 1.503 . S
C1768 C1767 1.410 . S
C1768 C1769 1.392 . S
C1768 C1771 1.511 . S
C1769 C1765 1.376 . S
C1769 C1768 1.392 . S
C1769 H1781 0.929 . S
C1770 C1766 1.531 . S
C1770 H1782 0.960 . S
C1770 H1783 0.962 . S
C1770 H1784 0.960 . S
C1771 C1768 1.511 . S
C1771 H1785 0.961 . S
C1771 H1786 0.961 . S
C1771 H1787 0.961 . S
C1772 C1773 1.370 . S
C1772 C1774 1.363 . S
C1772 H1788 0.931 . S
C1773 C1772 1.370 . S
C1773 C1777 1.408 . S
C1774 C1772 1.363 . S
C1774 C1775 1.370 . S
C1774 C1778 1.524 . S
C1775 C1767 1.503 . S
C1775 C1774 1.370 . S
C1775 C1776 1.403 . S
C1776 C1775 1.403 . S
C1776 C1777 1.404 . S
C1776 C1779 1.539 . S
C1777 C1773 1.408 . S
C1777 C1776 1.404 . S
C1777 H1789 0.930 . S
C1778 C1774 1.524 . S
C1778 H1790 0.956 . S
C1778 H1791 0.961 . S
C1778 H1792 0.961 . S
C1779 C1776 1.539 . S
C1779 H1793 0.958 . S
C1779 H1794 0.961 . S
C1779 H1795 0.960 . S
H1780 C1764 0.931 . S
H1781 C1769 0.929 . S
H1782 C1770 0.960 . S
H1783 C1770 0.962 . S
H1784 C1770 0.960 . S
H1785 C1771 0.961 . S
H1786 C1771 0.961 . S
H1787 C1771 0.961 . S
H1788 C1772 0.931 . S
H1789 C1777 0.930 . S
H1790 C1778 0.956 . S
H1791 C1778 0.961 . S
H1792 C1778 0.961 . S
H1793 C1779 0.958 . S
H1794 C1779 0.961 . S
H1795 C1779 0.960 . S
C1796 C1797 1.391 . S
C1796 C1798 1.394 . S
C1796 H1812 0.931 . S
C1797 C1796 1.391 . S
C1797 C1801 1.376 . S
C1798 C1796 1.394 . S
C1798 C1799 1.369 . S
C1798 C1802 1.531 . S
C1799 C1798 1.369 . S
C1799 C1800 1.410 . S
C1799 C1807 1.503 . S
C1800 C1799 1.410 . S
C1800 C1801 1.392 . S
C1800 C1803 1.511 . S
C1801 C1797 1.376 . S
C1801 C1800 1.392 . S
C1801 H1813 0.929 . S
C1802 C1798 1.531 . S
C1802 H1814 0.960 . S
C1802 H1815 0.962 . S
C1802 H1816 0.960 . S
C1803 C1800 1.511 . S
C1803 H1817 0.961 . S
C1803 H1818 0.961 . S
C1803 H1819 0.961 . S
C1804 C1805 1.370 . S
C1804 C1806 1.363 . S
C1804 H1820 0.931 . S
C1805 C1804 1.370 . S
C1805 C1809 1.408 . S
C1806 C1804 1.363 . S
C1806 C1807 1.370 . S
C1806 C1810 1.524 . S
C1807 C1799 1.503 . S
C1807 C1806 1.370 . S
C1807 C1808 1.403 . S
C1808 C1807 1.403 . S
C1808 C1809 1.404 . S
C1808 C1811 1.539 . S
C1809 C1805 1.408 . S
C1809 C1808 1.404 . S
C1809 H1821 0.930 . S
C1810 C1806 1.524 . S
C1810 H1822 0.956 . S
C1810 H1823 0.961 . S
C1810 H1824 0.961 . S
C1811 C1808 1.539 . S
C1811 H1825 0.958 . S
C1811 H1826 0.961 . S
C1811 H1827 0.960 . S
H1812 C1796 0.931 . S
H1813 C1801 0.929 . S
H1814 C1802 0.960 . S
H1815 C1802 0.962 . S
H1816 C1802 0.960 . S
H1817 C1803 0.961 . S
H1818 C1803 0.961 . S
H1819 C1803 0.961 . S
H1820 C1804 0.931 . S
H1821 C1809 0.930 . S
H1822 C1810 0.956 . S
H1823 C1810 0.961 . S
H1824 C1810 0.961 . S
H1825 C1811 0.958 . S
H1826 C1811 0.961 . S
H1827 C1811 0.960 . S
C1828 C1829 1.391 . S
C1828 C1830 1.394 . S
C1828 H1844 0.931 . S
C1829 C1828 1.391 . S
C1829 C1833 1.376 . S
C1830 C1828 1.394 . S
C1830 C1831 1.369 . S
C1830 C1834 1.531 . S
C1831 C1830 1.369 . S
C1831 C1832 1.410 . S
C1831 C1839 1.503 . S
C1832 C1831 1.410 . S
C1832 C1833 1.392 . S
C1832 C1835 1.511 . S
C1833 C1829 1.376 . S
C1833 C1832 1.392 . S
C1833 H1845 0.929 . S
C1834 C1830 1.531 . S
C1834 H1846 0.960 . S
C1834 H1847 0.962 . S
C1834 H1848 0.960 . S
C1835 C1832 1.511 . S
C1835 H1849 0.961 . S
C1835 H1850 0.961 . S
C1835 H1851 0.961 . S
C1836 C1837 1.370 . S
C1836 C1838 1.363 . S
C1836 H1852 0.931 . S
C1837 C1836 1.370 . S
C1837 C1841 1.408 . S
C1838 C1836 1.363 . S
C1838 C1839 1.370 . S
C1838 C1842 1.524 . S
C1839 C1831 1.503 . S
C1839 C1838 1.370 . S
C1839 C1840 1.403 . S
C1840 C1839 1.403 . S
C1840 C1841 1.404 . S
C1840 C1843 1.539 . S
C1841 C1837 1.408 . S
C1841 C1840 1.404 . S
C1841 H1853 0.930 . S
C1842 C1838 1.524 . S
C1842 H1854 0.956 . S
C1842 H1855 0.961 . S
C1842 H1856 0.961 . S
C1843 C1840 1.539 . S
C1843 H1857 0.958 . S
C1843 H1858 0.961 . S
C1843 H1859 0.960 . S
H1844 C1828 0.931 . S
H1845 C1833 0.929 . S
H1846 C1834 0.960 . S
H1847 C1834 0.962 . S
H1848 C1834 0.960 . S
H1849 C1835 0.961 . S
H1850 C1835 0.961 . S
H1851 C1835 0.961 . S
H1852 C1836 0.931 . S
H1853 C1841 0.930 . S
H1854 C1842 0.956 . S
H1855 C1842 0.961 . S
H1856 C1842 0.961 . S
H1857 C1843 0.958 . S
H1858 C1843 0.961 . S
H1859 C1843 0.960 . S
C1860 C1861 1.391 . S
C1860 C1862 1.394 . S
C1860 H1876 0.931 . S
C1861 C1860 1.391 . S
C1861 C1865 1.376 . S
C1862 C1860 1.394 . S
C1862 C1863 1.369 . S
C1862 C1866 1.531 . S
C1863 C1862 1.369 . S
C1863 C1864 1.410 . S
C1863 C1871 1.503 . S
C1864 C1863 1.410 . S
C1864 C1865 1.392 . S
C1864 C1867 1.511 . S
C1865 C1861 1.376 . S
C1865 C1864 1.392 . S
C1865 H1877 0.929 . S
C1866 C1862 1.531 . S
C1866 H1878 0.960 . S
C1866 H1879 0.962 . S
C1866 H1880 0.960 . S
C1867 C1864 1.511 . S
C1867 H1881 0.961 . S
C1867 H1882 0.961 . S
C1867 H1883 0.961 . S
C1868 C1869 1.370 . S
C1868 C1870 1.363 . S
C1868 H1884 0.931 . S
C1869 C1868 1.370 . S
C1869 C1873 1.408 . S
C1870 C1868 1.363 . S
C1870 C1871 1.370 . S
C1870 C1874 1.524 . S
C1871 C1863 1.503 . S
C1871 C1870 1.370 . S
C1871 C1872 1.403 . S
C1872 C1871 1.403 . S
C1872 C1873 1.404 . S
C1872 C1875 1.539 . S
C1873 C1869 1.408 . S
C1873 C1872 1.404 . S
C1873 H1885 0.930 . S
C1874 C1870 1.524 . S
C1874 H1886 0.956 . S
C1874 H1887 0.961 . S
C1874 H1888 0.961 . S
C1875 C1872 1.539 . S
C1875 H1889 0.958 . S
C1875 H1890 0.961 . S
C1875 H1891 0.960 . S
H1876 C1860 0.931 . S
H1877 C1865 0.929 . S
H1878 C1866 0.960 . S
H1879 C1866 0.962 . S
H1880 C1866 0.960 . S
H1881 C1867 0.961 . S
H1882 C1867 0.961 . S
H1883 C1867 0.961 . S
H1884 C1868 0.931 . S
H1885 C1873 0.930 . S
H1886 C1874 0.956 . S
H1887 C1874 0.961 . S
H1888 C1874 0.961 . S
H1889 C1875 0.958 . S
H1890 C1875 0.961 . S
H1891 C1875 0.960 . S
C1892 C1893 1.391 . S
C1892 C1894 1.394 . S
C1892 H1908 0.931 . S
C1893 C1892 1.391 . S
C1893 C1897 1.376 . S
C1894 C1892 1.394 . S
C1894 C1895 1.369 . S
C1894 C1898 1.531 . S
C1895 C1894 1.369 . S
C1895 C1896 1.410 . S
C1895 C1903 1.503 . S
C1896 C1895 1.410 . S
C1896 C1897 1.392 . S
C1896 C1899 1.511 . S
C1897 C1893 1.376 . S
C1897 C1896 1.392 . S
C1897 H1909 0.929 . S
C1898 C1894 1.531 . S
C1898 H1910 0.960 . S
C1898 H1911 0.962 . S
C1898 H1912 0.960 . S
C1899 C1896 1.511 . S
C1899 H1913 0.961 . S
C1899 H1914 0.961 . S
C1899 H1915 0.961 . S
C1900 C1901 1.370 . S
C1900 C1902 1.363 . S
C1900 H1916 0.931 . S
C1901 C1900 1.370 . S
C1901 C1905 1.408 . S
C1902 C1900 1.363 . S
C1902 C1903 1.370 . S
C1902 C1906 1.524 . S
C1903 C1895 1.503 . S
C1903 C1902 1.370 . S
C1903 C1904 1.403 . S
C1904 C1903 1.403 . S
C1904 C1905 1.404 . S
C1904 C1907 1.539 . S
C1905 C1901 1.408 . S
C1905 C1904 1.404 . S
C1905 H1917 0.930 . S
C1906 C1902 1.524 . S
C1906 H1918 0.956 . S
C1906 H1919 0.961 . S
C1906 H1920 0.961 . S
C1907 C1904 1.539 . S
C1907 H1921 0.958 . S
C1907 H1922 0.961 . S
C1907 H1923 0.960 . S
H1908 C1892 0.931 . S
H1909 C1897 0.929 . S
H1910 C1898 0.960 . S
H1911 C1898 0.962 . S
H1912 C1898 0.960 . S
H1913 C1899 0.961 . S
H1914 C1899 0.961 . S
H1915 C1899 0.961 . S
H1916 C1900 0.931 . S
H1917 C1905 0.930 . S
H1918 C1906 0.956 . S
H1919 C1906 0.961 . S
H1920 C1906 0.961 . S
H1921 C1907 0.958 . S
H1922 C1907 0.961 . S
H1923 C1907 0.960 . S
C1924 C1925 1.391 . S
C1924 C1926 1.394 . S
C1924 H1940 0.931 . S
C1925 C1924 1.391 . S
C1925 C1929 1.376 . S
C1926 C1924 1.394 . S
C1926 C1927 1.369 . S
C1926 C1930 1.531 . S
C1927 C1926 1.369 . S
C1927 C1928 1.410 . S
C1927 C1935 1.503 . S
C1928 C1927 1.410 . S
C1928 C1929 1.392 . S
C1928 C1931 1.511 . S
C1929 C1925 1.376 . S
C1929 C1928 1.392 . S
C1929 H1941 0.929 . S
C1930 C1926 1.531 . S
C1930 H1942 0.960 . S
C1930 H1943 0.962 . S
C1930 H1944 0.960 . S
C1931 C1928 1.511 . S
C1931 H1945 0.961 . S
C1931 H1946 0.961 . S
C1931 H1947 0.961 . S
C1932 C1933 1.370 . S
C1932 C1934 1.363 . S
C1932 H1948 0.931 . S
C1933 C1932 1.370 . S
C1933 C1937 1.408 . S
C1934 C1932 1.363 . S
C1934 C1935 1.370 . S
C1934 C1938 1.524 . S
C1935 C1927 1.503 . S
C1935 C1934 1.370 . S
C1935 C1936 1.403 . S
C1936 C1935 1.403 . S
C1936 C1937 1.404 . S
C1936 C1939 1.539 . S
C1937 C1933 1.408 . S
C1937 C1936 1.404 . S
C1937 H1949 0.930 . S
C1938 C1934 1.524 . S
C1938 H1950 0.956 . S
C1938 H1951 0.961 . S
C1938 H1952 0.961 . S
C1939 C1936 1.539 . S
C1939 H1953 0.958 . S
C1939 H1954 0.961 . S
C1939 H1955 0.960 . S
H1940 C1924 0.931 . S
H1941 C1929 0.929 . S
H1942 C1930 0.960 . S
H1943 C1930 0.962 . S
H1944 C1930 0.960 . S
H1945 C1931 0.961 . S
H1946 C1931 0.961 . S
H1947 C1931 0.961 . S
H1948 C1932 0.931 . S
H1949 C1937 0.930 . S
H1950 C1938 0.956 . S
H1951 C1938 0.961 . S
H1952 C1938 0.961 . S
H1953 C1939 0.958 . S
H1954 C1939 0.961 . S
H1955 C1939 0.960 . S
C1956 C1957 1.391 . S
C1956 C1958 1.394 . S
C1956 H1972 0.931 . S
C1957 C1956 1.391 . S
C1957 C1961 1.376 . S
C1958 C1956 1.394 . S
C1958 C1959 1.369 . S
C1958 C1962 1.531 . S
C1959 C1958 1.369 . S
C1959 C1960 1.410 . S
C1959 C1967 1.503 . S
C1960 C1959 1.410 . S
C1960 C1961 1.392 . S
C1960 C1963 1.511 . S
C1961 C1957 1.376 . S
C1961 C1960 1.392 . S
C1961 H1973 0.929 . S
C1962 C1958 1.531 . S
C1962 H1974 0.960 . S
C1962 H1975 0.962 . S
C1962 H1976 0.960 . S
C1963 C1960 1.511 . S
C1963 H1977 0.961 . S
C1963 H1978 0.961 . S
C1963 H1979 0.961 . S
C1964 C1965 1.370 . S
C1964 C1966 1.363 . S
C1964 H1980 0.931 . S
C1965 C1964 1.370 . S
C1965 C1969 1.408 . S
C1966 C1964 1.363 . S
C1966 C1967 1.370 . S
C1966 C1970 1.524 . S
C1967 C1959 1.503 . S
C1967 C1966 1.370 . S
C1967 C1968 1.403 . S
C1968 C1967 1.403 . S
C1968 C1969 1.404 . S
C1968 C1971 1.539 . S
C1969 C1965 1.408 . S
C1969 C1968 1.404 . S
C1969 H1981 0.930 . S
C1970 C1966 1.524 . S
C1970 H1982 0.956 . S
C1970 H1983 0.961 . S
C1970 H1984 0.961 . S
C1971 C1968 1.539 . S
C1971 H1985 0.958 . S
C1971 H1986 0.961 . S
C1971 H1987 0.960 . S
H1972 C1956 0.931 . S
H1973 C1961 0.929 . S
H1974 C1962 0.960 . S
H1975 C1962 0.962 . S
H1976 C1962 0.960 . S
H1977 C1963 0.961 . S
H1978 C1963 0.961 . S
H1979 C1963 0.961 . S
H1980 C1964 0.931 . S
H1981 C1969 0.930 . S
H1982 C1970 0.956 . S
H1983 C1970 0.961 . S
H1984 C1970 0.961 . S
H1985 C1971 0.958 . S
H1986 C1971 0.961 . S
H1987 C1971 0.960 . S
C1988 C1989 1.391 . S
C1988 C1990 1.394 . S
C1988 H2004 0.931 . S
C1989 C1988 1.391 . S
C1989 C1993 1.376 . S
C1990 C1988 1.394 . S
C1990 C1991 1.369 . S
C1990 C1994 1.531 . S
C1991 C1990 1.369 . S
C1991 C1992 1.410 . S
C1991 C1999 1.503 . S
C1992 C1991 1.410 . S
C1992 C1993 1.392 . S
C1992 C1995 1.511 . S
C1993 C1989 1.376 . S
C1993 C1992 1.392 . S
C1993 H2005 0.929 . S
C1994 C1990 1.531 . S
C1994 H2006 0.960 . S
C1994 H2007 0.962 . S
C1994 H2008 0.960 . S
C1995 C1992 1.511 . S
C1995 H2009 0.961 . S
C1995 H2010 0.961 . S
C1995 H2011 0.961 . S
C1996 C1997 1.370 . S
C1996 C1998 1.363 . S
C1996 H2012 0.931 . S
C1997 C1996 1.370 . S
C1997 C2001 1.408 . S
C1998 C1996 1.363 . S
C1998 C1999 1.370 . S
C1998 C2002 1.524 . S
C1999 C1991 1.503 . S
C1999 C1998 1.370 . S
C1999 C2000 1.403 . S
C2000 C1999 1.403 . S
C2000 C2001 1.404 . S
C2000 C2003 1.539 . S
C2001 C1997 1.408 . S
C2001 C2000 1.404 . S
C2001 H2013 0.930 . S
C2002 C1998 1.524 . S
C2002 H2014 0.956 . S
C2002 H2015 0.961 . S
C2002 H2016 0.961 . S
C2003 C2000 1.539 . S
C2003 H2017 0.958 . S
C2003 H2018 0.961 . S
C2003 H2019 0.960 . S
H2004 C1988 0.931 . S
H2005 C1993 0.929 . S
H2006 C1994 0.960 . S
H2007 C1994 0.962 . S
H2008 C1994 0.960 . S
H2009 C1995 0.961 . S
H2010 C1995 0.961 . S
H2011 C1995 0.961 . S
H2012 C1996 0.931 . S
H2013 C2001 0.930 . S
H2014 C2002 0.956 . S
H2015 C2002 0.961 . S
H2016 C2002 0.961 . S
H2017 C2003 0.958 . S
H2018 C2003 0.961 . S
H2019 C2003 0.960 . S
C493 C195 1.582 . S
C485 C9 1.535 . S
C525 C173 2.183 . S
C517 C28 2.202 . S
C557 C170 0.611 . S
C549 C49 0.585 . S
C581 C79 2.212 . S
C589 C182 2.194 . S
C613 C99 2.183 . S
C621 C165 2.165 . S
C653 C187 0.610 . S
C645 C101 0.565 . S
C677 C128 2.211 . S
C685 C192 2.201 . S
C709 C141 1.546 . S
C717 C188 1.577 . S
C749 C246 1.442 . S
C741 C16 1.423 . S
C773 C26 1.059 . S
C781 C296 1.035 . S
C813 C219 1.420 . S
C805 C56 1.399 . S
C845 C295 0.649 . S
C837 C69 0.715 . S
C869 C89 0.647 . S
C877 C224 0.649 . S
C909 C290 2.176 . S
C901 C108 2.153 . S
C933 C126 0.957 . S
C941 C249 1.082 . S
C965 C148 2.208 . S
C973 C281 2.167 . S
C997 C19 2.210 . S
C1005 C273 2.174 . S
C1029 C96 1.006 . S
C1037 C303 1.043 . S
C1069 C227 1.429 . S
C1061 C106 1.416 . S
C1101 C278 0.657 . S
C1093 C121 0.720 . S
C1125 C146 1.424 . S
C1133 C236 1.448 . S
C1157 C59 2.202 . S
C1165 C300 2.173 . S
C1197 C242 1.075 . S
C1189 C76 1.024 . S
C1221 C21 0.637 . S
C1229 C241 0.658 . S
C1253 C149 1.535 . S
C1261 C357 1.580 . S
C1285 C88 2.202 . S
C1293 C335 2.182 . S
C1325 C332 0.611 . S
C1317 C109 0.589 . S
C1357 C344 2.177 . S
C1349 C139 2.178 . S
C1381 C39 2.197 . S
C1389 C327 2.172 . S
C1421 C349 0.591 . S
C1413 C41 0.656 . S
C1445 C68 2.213 . S
C1453 C354 2.201 . S
C1477 C1 1.561 . S
C1485 C350 1.586 . S
C1509 C156 1.472 . S
C1517 C408 1.429 . S
C1549 C458 1.028 . S
C1541 C86 1.029 . S
C1573 C116 1.385 . S
C1581 C381 1.421 . S
C1605 C129 0.600 . S
C1613 C457 0.640 . S
C1645 C386 0.654 . S
C1637 C29 0.601 . S
C1669 C48 2.150 . S
C1677 C452 2.175 . S
C1709 C411 1.076 . S
C1701 C66 1.057 . S
C1741 C443 2.169 . S
C1733 C8 2.202 . S
C1773 C435 2.172 . S
C1765 C159 2.212 . S
C1797 C36 0.989 . S
C1805 C465 1.060 . S
C1829 C46 1.409 . S
C1837 C389 1.432 . S
C1869 C440 0.659 . S
C1861 C61 0.711 . S
C1893 C6 1.435 . S
C1901 C398 1.442 . S
C1925 C119 2.166 . S
C1933 C462 2.187 . S
C1965 C404 1.093 . S
C1957 C136 0.982 . S
C1997 C403 0.669 . S
C1989 C81 0.745 . S
