# Generated by pormake.
# Topology gar, (4,6)-cn, num edge types: 1
# Building blocks:
#     Node 0, Type 0, BuildingBlock: QUQFOY_clean_sbu_3, # of connection points: 4
#     Node 1, Type 0, BuildingBlock: QUQFOY_clean_sbu_3, # of connection points: 4
#     Node 2, Type 0, BuildingBlock: QUQFOY_clean_sbu_3, # of connection points: 4
#     Node 3, Type 0, BuildingBlock: QUQFOY_clean_sbu_3, # of connection points: 4
#     Node 4, Type 0, BuildingBlock: QUQFOY_clean_sbu_3, # of connection points: 4
#     Node 5, Type 0, BuildingBlock: QUQFOY_clean_sbu_3, # of connection points: 4
#     Node 6, Type 0, BuildingBlock: QUQFOY_clean_sbu_3, # of connection points: 4
#     Node 7, Type 0, BuildingBlock: QUQFOY_clean_sbu_3, # of connection points: 4
#     Node 8, Type 0, BuildingBlock: QUQFOY_clean_sbu_3, # of connection points: 4
#     Node 9, Type 0, BuildingBlock: QUQFOY_clean_sbu_3, # of connection points: 4
#     Node 10, Type 0, BuildingBlock: QUQFOY_clean_sbu_3, # of connection points: 4
#     Node 11, Type 0, BuildingBlock: QUQFOY_clean_sbu_3, # of connection points: 4
#     Node 12, Type 0, BuildingBlock: QUQFOY_clean_sbu_3, # of connection points: 4
#     Node 13, Type 0, BuildingBlock: QUQFOY_clean_sbu_3, # of connection points: 4
#     Node 14, Type 0, BuildingBlock: QUQFOY_clean_sbu_3, # of connection points: 4
#     Node 15, Type 0, BuildingBlock: QUQFOY_clean_sbu_3, # of connection points: 4
#     Node 16, Type 0, BuildingBlock: QUQFOY_clean_sbu_3, # of connection points: 4
#     Node 17, Type 0, BuildingBlock: QUQFOY_clean_sbu_3, # of connection points: 4
#     Node 18, Type 0, BuildingBlock: QUQFOY_clean_sbu_3, # of connection points: 4
#     Node 19, Type 0, BuildingBlock: QUQFOY_clean_sbu_3, # of connection points: 4
#     Node 20, Type 0, BuildingBlock: QUQFOY_clean_sbu_3, # of connection points: 4
#     Node 21, Type 0, BuildingBlock: QUQFOY_clean_sbu_3, # of connection points: 4
#     Node 22, Type 0, BuildingBlock: QUQFOY_clean_sbu_3, # of connection points: 4
#     Node 23, Type 0, BuildingBlock: QUQFOY_clean_sbu_3, # of connection points: 4
#     Node 24, Type 1, BuildingBlock: HISSIN_clean_sbu_0, # of connection points: 6
#     Node 25, Type 1, BuildingBlock: HISSIN_clean_sbu_0, # of connection points: 6
#     Node 26, Type 1, BuildingBlock: HISSIN_clean_sbu_0, # of connection points: 6
#     Node 27, Type 1, BuildingBlock: HISSIN_clean_sbu_0, # of connection points: 6
#     Node 28, Type 1, BuildingBlock: HISSIN_clean_sbu_0, # of connection points: 6
#     Node 29, Type 1, BuildingBlock: HISSIN_clean_sbu_0, # of connection points: 6
#     Node 30, Type 1, BuildingBlock: HISSIN_clean_sbu_0, # of connection points: 6
#     Node 31, Type 1, BuildingBlock: HISSIN_clean_sbu_0, # of connection points: 6
#     Node 32, Type 1, BuildingBlock: HISSIN_clean_sbu_0, # of connection points: 6
#     Node 33, Type 1, BuildingBlock: HISSIN_clean_sbu_0, # of connection points: 6
#     Node 34, Type 1, BuildingBlock: HISSIN_clean_sbu_0, # of connection points: 6
#     Node 35, Type 1, BuildingBlock: HISSIN_clean_sbu_0, # of connection points: 6
#     Node 36, Type 1, BuildingBlock: HISSIN_clean_sbu_0, # of connection points: 6
#     Node 37, Type 1, BuildingBlock: HISSIN_clean_sbu_0, # of connection points: 6
#     Node 38, Type 1, BuildingBlock: HISSIN_clean_sbu_0, # of connection points: 6
#     Node 39, Type 1, BuildingBlock: HISSIN_clean_sbu_0, # of connection points: 6
#     Edge 40, Type (0, 1), BuildingBlock: OJICUG_clean_linker_0, # of connection points: 2
#     Edge 41, Type (0, 1), BuildingBlock: OJICUG_clean_linker_0, # of connection points: 2
#     Edge 42, Type (0, 1), BuildingBlock: OJICUG_clean_linker_0, # of connection points: 2
#     Edge 43, Type (0, 1), BuildingBlock: OJICUG_clean_linker_0, # of connection points: 2
#     Edge 44, Type (0, 1), BuildingBlock: OJICUG_clean_linker_0, # of connection points: 2
#     Edge 45, Type (0, 1), BuildingBlock: OJICUG_clean_linker_0, # of connection points: 2
#     Edge 46, Type (0, 1), BuildingBlock: OJICUG_clean_linker_0, # of connection points: 2
#     Edge 47, Type (0, 1), BuildingBlock: OJICUG_clean_linker_0, # of connection points: 2
#     Edge 48, Type (0, 1), BuildingBlock: OJICUG_clean_linker_0, # of connection points: 2
#     Edge 49, Type (0, 1), BuildingBlock: OJICUG_clean_linker_0, # of connection points: 2
#     Edge 50, Type (0, 1), BuildingBlock: OJICUG_clean_linker_0, # of connection points: 2
#     Edge 51, Type (0, 1), BuildingBlock: OJICUG_clean_linker_0, # of connection points: 2
#     Edge 52, Type (0, 1), BuildingBlock: OJICUG_clean_linker_0, # of connection points: 2
#     Edge 53, Type (0, 1), BuildingBlock: OJICUG_clean_linker_0, # of connection points: 2
#     Edge 54, Type (0, 1), BuildingBlock: OJICUG_clean_linker_0, # of connection points: 2
#     Edge 55, Type (0, 1), BuildingBlock: OJICUG_clean_linker_0, # of connection points: 2
#     Edge 56, Type (0, 1), BuildingBlock: OJICUG_clean_linker_0, # of connection points: 2
#     Edge 57, Type (0, 1), BuildingBlock: OJICUG_clean_linker_0, # of connection points: 2
#     Edge 58, Type (0, 1), BuildingBlock: OJICUG_clean_linker_0, # of connection points: 2
#     Edge 59, Type (0, 1), BuildingBlock: OJICUG_clean_linker_0, # of connection points: 2
#     Edge 60, Type (0, 1), BuildingBlock: OJICUG_clean_linker_0, # of connection points: 2
#     Edge 61, Type (0, 1), BuildingBlock: OJICUG_clean_linker_0, # of connection points: 2
#     Edge 62, Type (0, 1), BuildingBlock: OJICUG_clean_linker_0, # of connection points: 2
#     Edge 63, Type (0, 1), BuildingBlock: OJICUG_clean_linker_0, # of connection points: 2
#     Edge 64, Type (0, 1), BuildingBlock: OJICUG_clean_linker_0, # of connection points: 2
#     Edge 65, Type (0, 1), BuildingBlock: OJICUG_clean_linker_0, # of connection points: 2
#     Edge 66, Type (0, 1), BuildingBlock: OJICUG_clean_linker_0, # of connection points: 2
#     Edge 67, Type (0, 1), BuildingBlock: OJICUG_clean_linker_0, # of connection points: 2
#     Edge 68, Type (0, 1), BuildingBlock: OJICUG_clean_linker_0, # of connection points: 2
#     Edge 69, Type (0, 1), BuildingBlock: OJICUG_clean_linker_0, # of connection points: 2
#     Edge 70, Type (0, 1), BuildingBlock: OJICUG_clean_linker_0, # of connection points: 2
#     Edge 71, Type (0, 1), BuildingBlock: OJICUG_clean_linker_0, # of connection points: 2
#     Edge 72, Type (0, 1), BuildingBlock: OJICUG_clean_linker_0, # of connection points: 2
#     Edge 73, Type (0, 1), BuildingBlock: OJICUG_clean_linker_0, # of connection points: 2
#     Edge 74, Type (0, 1), BuildingBlock: OJICUG_clean_linker_0, # of connection points: 2
#     Edge 75, Type (0, 1), BuildingBlock: OJICUG_clean_linker_0, # of connection points: 2
#     Edge 76, Type (0, 1), BuildingBlock: OJICUG_clean_linker_0, # of connection points: 2
#     Edge 77, Type (0, 1), BuildingBlock: OJICUG_clean_linker_0, # of connection points: 2
#     Edge 78, Type (0, 1), BuildingBlock: OJICUG_clean_linker_0, # of connection points: 2
#     Edge 79, Type (0, 1), BuildingBlock: OJICUG_clean_linker_0, # of connection points: 2
#     Edge 80, Type (0, 1), BuildingBlock: OJICUG_clean_linker_0, # of connection points: 2
#     Edge 81, Type (0, 1), BuildingBlock: OJICUG_clean_linker_0, # of connection points: 2
#     Edge 82, Type (0, 1), BuildingBlock: OJICUG_clean_linker_0, # of connection points: 2
#     Edge 83, Type (0, 1), BuildingBlock: OJICUG_clean_linker_0, # of connection points: 2
#     Edge 84, Type (0, 1), BuildingBlock: OJICUG_clean_linker_0, # of connection points: 2
#     Edge 85, Type (0, 1), BuildingBlock: OJICUG_clean_linker_0, # of connection points: 2
#     Edge 86, Type (0, 1), BuildingBlock: OJICUG_clean_linker_0, # of connection points: 2
#     Edge 87, Type (0, 1), BuildingBlock: OJICUG_clean_linker_0, # of connection points: 2
#     Edge 88, Type (0, 1), BuildingBlock: OJICUG_clean_linker_0, # of connection points: 2
#     Edge 89, Type (0, 1), BuildingBlock: OJICUG_clean_linker_0, # of connection points: 2
#     Edge 90, Type (0, 1), BuildingBlock: OJICUG_clean_linker_0, # of connection points: 2
#     Edge 91, Type (0, 1), BuildingBlock: OJICUG_clean_linker_0, # of connection points: 2
#     Edge 92, Type (0, 1), BuildingBlock: OJICUG_clean_linker_0, # of connection points: 2
#     Edge 93, Type (0, 1), BuildingBlock: OJICUG_clean_linker_0, # of connection points: 2
#     Edge 94, Type (0, 1), BuildingBlock: OJICUG_clean_linker_0, # of connection points: 2
#     Edge 95, Type (0, 1), BuildingBlock: OJICUG_clean_linker_0, # of connection points: 2
#     Edge 96, Type (0, 1), BuildingBlock: OJICUG_clean_linker_0, # of connection points: 2
#     Edge 97, Type (0, 1), BuildingBlock: OJICUG_clean_linker_0, # of connection points: 2
#     Edge 98, Type (0, 1), BuildingBlock: OJICUG_clean_linker_0, # of connection points: 2
#     Edge 99, Type (0, 1), BuildingBlock: OJICUG_clean_linker_0, # of connection points: 2
#     Edge 100, Type (0, 1), BuildingBlock: OJICUG_clean_linker_0, # of connection points: 2
#     Edge 101, Type (0, 1), BuildingBlock: OJICUG_clean_linker_0, # of connection points: 2
#     Edge 102, Type (0, 1), BuildingBlock: OJICUG_clean_linker_0, # of connection points: 2
#     Edge 103, Type (0, 1), BuildingBlock: OJICUG_clean_linker_0, # of connection points: 2
#     Edge 104, Type (0, 1), BuildingBlock: OJICUG_clean_linker_0, # of connection points: 2
#     Edge 105, Type (0, 1), BuildingBlock: OJICUG_clean_linker_0, # of connection points: 2
#     Edge 106, Type (0, 1), BuildingBlock: OJICUG_clean_linker_0, # of connection points: 2
#     Edge 107, Type (0, 1), BuildingBlock: OJICUG_clean_linker_0, # of connection points: 2
#     Edge 108, Type (0, 1), BuildingBlock: OJICUG_clean_linker_0, # of connection points: 2
#     Edge 109, Type (0, 1), BuildingBlock: OJICUG_clean_linker_0, # of connection points: 2
#     Edge 110, Type (0, 1), BuildingBlock: OJICUG_clean_linker_0, # of connection points: 2
#     Edge 111, Type (0, 1), BuildingBlock: OJICUG_clean_linker_0, # of connection points: 2
#     Edge 112, Type (0, 1), BuildingBlock: OJICUG_clean_linker_0, # of connection points: 2
#     Edge 113, Type (0, 1), BuildingBlock: OJICUG_clean_linker_0, # of connection points: 2
#     Edge 114, Type (0, 1), BuildingBlock: OJICUG_clean_linker_0, # of connection points: 2
#     Edge 115, Type (0, 1), BuildingBlock: OJICUG_clean_linker_0, # of connection points: 2
#     Edge 116, Type (0, 1), BuildingBlock: OJICUG_clean_linker_0, # of connection points: 2
#     Edge 117, Type (0, 1), BuildingBlock: OJICUG_clean_linker_0, # of connection points: 2
#     Edge 118, Type (0, 1), BuildingBlock: OJICUG_clean_linker_0, # of connection points: 2
#     Edge 119, Type (0, 1), BuildingBlock: OJICUG_clean_linker_0, # of connection points: 2
#     Edge 120, Type (0, 1), BuildingBlock: OJICUG_clean_linker_0, # of connection points: 2
#     Edge 121, Type (0, 1), BuildingBlock: OJICUG_clean_linker_0, # of connection points: 2
#     Edge 122, Type (0, 1), BuildingBlock: OJICUG_clean_linker_0, # of connection points: 2
#     Edge 123, Type (0, 1), BuildingBlock: OJICUG_clean_linker_0, # of connection points: 2
#     Edge 124, Type (0, 1), BuildingBlock: OJICUG_clean_linker_0, # of connection points: 2
#     Edge 125, Type (0, 1), BuildingBlock: OJICUG_clean_linker_0, # of connection points: 2
#     Edge 126, Type (0, 1), BuildingBlock: OJICUG_clean_linker_0, # of connection points: 2
#     Edge 127, Type (0, 1), BuildingBlock: OJICUG_clean_linker_0, # of connection points: 2
#     Edge 128, Type (0, 1), BuildingBlock: OJICUG_clean_linker_0, # of connection points: 2
#     Edge 129, Type (0, 1), BuildingBlock: OJICUG_clean_linker_0, # of connection points: 2
#     Edge 130, Type (0, 1), BuildingBlock: OJICUG_clean_linker_0, # of connection points: 2
#     Edge 131, Type (0, 1), BuildingBlock: OJICUG_clean_linker_0, # of connection points: 2
#     Edge 132, Type (0, 1), BuildingBlock: OJICUG_clean_linker_0, # of connection points: 2
#     Edge 133, Type (0, 1), BuildingBlock: OJICUG_clean_linker_0, # of connection points: 2
#     Edge 134, Type (0, 1), BuildingBlock: OJICUG_clean_linker_0, # of connection points: 2
#     Edge 135, Type (0, 1), BuildingBlock: OJICUG_clean_linker_0, # of connection points: 2
# Relax obj value: 0.237
# Max RMSD: 0.334
# Mean RMSD: 0.153
data_MOF--net-gar--node1-QUQFOY_clean_sbu_3--node2-HISSIN_clean_sbu_0--edge1-OJICUG_clean_linker_0
_symmetry_space_group_name_H-M    P1
_symmetry_Int_Tables_number       1
_symmetry_cell_setting            triclinic
loop_
_symmetry_equiv_pos_as_xyz
'x, y, z'
_cell_length_a     45.376326
_cell_length_b     45.871072
_cell_length_c     43.701471
_cell_angle_alpha  102.57903
_cell_angle_beta   93.122893
_cell_angle_gamma 101.18257
loop_
_atom_site_label
_atom_site_type_symbol
_atom_site_fract_x
_atom_site_fract_y
_atom_site_fract_z
_atom_type_partial_charge
C0 C 0.10615 0.34797 0.32974 0.0
O1 O 0.13096 0.36712 0.3313 0.0
Cd2 Cd 0.17318 0.39134 0.371 0.0
O3 O 0.09881 0.33573 0.35261 0.0
Cd4 Cd 0.12713 0.33931 0.40313 0.0
C5 C 0.13007 0.41949 0.42366 0.0
O6 O 0.17918 0.35341 0.39804 0.0
O7 O 0.15851 0.30709 0.37413 0.0
O8 O 0.09197 0.2992 0.41989 0.0
C9 C 0.18175 0.32862 0.37995 0.0
O10 O 0.15011 0.42622 0.40566 0.0
C11 C 0.1056 0.30457 0.44741 0.0
O12 O 0.1205 0.39192 0.42548 0.0
O13 O 0.12885 0.32615 0.45418 0.0
C14 C 0.99614 0.7724 0.72006 0.0
O15 O 1.01207 0.76293 0.73912 0.0
Cd16 Cd 0.06534 0.77238 0.74942 0.0
O17 O 1.00815 0.78796 0.70116 0.0
Cd18 Cd 0.05978 0.80628 0.68678 0.0
C19 C 0.07678 0.73425 0.67668 0.0
O20 O 0.0738 0.82276 0.74149 0.0
O21 O 0.10884 0.83872 0.71486 0.0
O22 O 0.04424 0.84381 0.65997 0.0
C23 C 0.10025 0.83745 0.74173 0.0
O24 O 0.07773 0.73515 0.70603 0.0
C25 C 0.05965 0.83722 0.63687 0.0
O26 O 0.07049 0.75616 0.66586 0.0
O27 O 0.07391 0.81603 0.63702 0.0
C28 C 0.60631 0.84683 0.82813 0.0
O29 O 0.63123 0.86582 0.82979 0.0
Cd30 Cd 0.67337 0.88973 0.86966 0.0
O31 O 0.59874 0.83464 0.85099 0.0
Cd32 Cd 0.62685 0.83808 0.90156 0.0
C33 C 0.63049 0.9184 0.92219 0.0
O34 O 0.67901 0.85163 0.89668 0.0
O35 O 0.65788 0.80542 0.87274 0.0
O36 O 0.59156 0.79824 0.91862 0.0
C37 C 0.68135 0.82668 0.87872 0.0
O38 O 0.65066 0.92506 0.9043 0.0
C39 C 0.60522 0.80381 0.94615 0.0
O40 O 0.62068 0.89083 0.92385 0.0
O41 O 0.62847 0.82538 0.95278 0.0
C42 C 0.49468 0.2719 0.22094 0.0
O43 O 0.51 0.26183 0.24 0.0
Cd44 Cd 0.56319 0.26978 0.25033 0.0
O45 O 0.50732 0.28709 0.20206 0.0
Cd46 Cd 0.55916 0.30403 0.18758 0.0
C47 C 0.57468 0.23132 0.17767 0.0
O48 O 0.57302 0.32014 0.24233 0.0
O49 O 0.60831 0.33593 0.21587 0.0
O50 O 0.54408 0.34207 0.16122 0.0
C51 C 0.59959 0.3346 0.24267 0.0
O52 O 0.57511 0.23216 0.20699 0.0
C53 C 0.55951 0.33566 0.1381 0.0
O54 O 0.56914 0.25348 0.16677 0.0
O55 O 0.57361 0.3143 0.13797 0.0
C56 C 0.09847 0.76846 0.17217 0.0
O57 O 0.11912 0.76376 0.19021 0.0
Cd58 Cd 0.17158 0.77703 0.18614 0.0
O59 O 0.1048 0.78044 0.14889 0.0
Cd60 Cd 0.14905 0.80026 0.12224 0.0
C61 C 0.16988 0.73147 0.11205 0.0
O62 O 0.1709 0.82463 0.17307 0.0
O63 O 0.19992 0.83593 0.13863 0.0
O64 O 0.11264 0.82599 0.1042 0.0
C65 C 0.19576 0.83908 0.16754 0.0
O66 O 0.17671 0.73624 0.14163 0.0
C67 C 0.12243 0.82615 0.07756 0.0
O68 O 0.15956 0.75088 0.10022 0.0
O69 O 0.14555 0.81487 0.07182 0.0
C70 C 0.47868 0.78082 0.37092 0.0
O71 O 0.50021 0.78612 0.35418 0.0
Cd72 Cd 0.55132 0.80839 0.3714 0.0
O73 O 0.48331 0.78654 0.40096 0.0
Cd74 Cd 0.52785 0.80524 0.44154 0.0
C75 C 0.54137 0.87409 0.42376 0.0
O76 O 0.56122 0.78129 0.4091 0.0
O77 O 0.58399 0.81505 0.44931 0.0
O78 O 0.5092 0.7677 0.47137 0.0
C79 C 0.58602 0.79555 0.42452 0.0
O80 O 0.5519 0.8612 0.39908 0.0
C81 C 0.51586 0.78623 0.4982 0.0
O82 O 0.52894 0.85862 0.4423 0.0
O83 O 0.5259 0.81411 0.49839 0.0
C84 C 0.59183 0.25513 0.67591 0.0
O85 O 0.61371 0.25214 0.69359 0.0
Cd86 Cd 0.66581 0.27192 0.69107 0.0
O87 O 0.59649 0.26899 0.65365 0.0
Cd88 Cd 0.63937 0.29478 0.62896 0.0
C89 C 0.66933 0.23094 0.61623 0.0
O90 O 0.66196 0.31969 0.67998 0.0
O91 O 0.68887 0.33229 0.64445 0.0
O92 O 0.6026 0.32111 0.61186 0.0
C93 C 0.68601 0.335 0.67357 0.0
O94 O 0.67668 0.23543 0.64569 0.0
C95 C 0.61191 0.32096 0.58494 0.0
O96 O 0.65532 0.24854 0.60534 0.0
O97 O 0.63434 0.30876 0.57855 0.0
C98 C 0.98133 0.27739 0.86211 0.0
O99 O 1.00279 0.28288 0.84533 0.0
Cd100 Cd 0.05461 0.30268 0.86207 0.0
O101 O 0.98624 0.28174 0.892 0.0
Cd102 Cd 0.0311 0.29842 0.93196 0.0
C103 C 0.04747 0.36813 0.91593 0.0
O104 O 0.06366 0.27397 0.89861 0.0
O105 O 0.08702 0.30644 0.93946 0.0
O106 O 1.01237 0.26152 0.9626 0.0
C107 C 0.08863 0.28737 0.91418 0.0
O108 O 0.05803 0.35569 0.89108 0.0
C109 C 0.01876 0.2806 0.98913 0.0
O110 O 0.03406 0.35216 0.93353 0.0
O111 O 0.0288 0.30831 0.98869 0.0
C112 C 0.49545 0.0803 0.36162 0.0
O113 O 0.50178 0.06747 0.33478 0.0
Cd114 Cd 0.4671 0.0401 0.29173 0.0
O115 O 0.46805 0.08108 0.36666 0.0
Cd116 Cd 0.41893 0.06314 0.3314 0.0
C117 C 0.42114 0.99201 0.32932 0.0
O118 O 0.43613 0.07436 0.28343 0.0
O119 O 0.40361 0.03237 0.27687 0.0
O120 O 0.39773 0.10839 0.34741 0.0
C121 C 0.4197 0.05149 0.26439 0.0
O122 O 0.43957 0.99581 0.30882 0.0
C123 C 0.37073 0.09348 0.34555 0.0
O124 O 0.41099 1.01426 0.34451 0.0
O125 O 0.36684 0.06464 0.34036 0.0
C126 C 0.35702 0.16245 0.52326 0.0
O127 O 0.33565 0.14643 0.53379 0.0
Cd128 Cd 0.28937 0.15917 0.54644 0.0
O129 O 0.35407 0.18719 0.51547 0.0
Cd130 Cd 0.31227 0.21632 0.50941 0.0
C131 C 0.31673 0.23443 0.59076 0.0
O132 O 0.27382 0.17041 0.49914 0.0
O133 O 0.25535 0.21052 0.50813 0.0
O134 O 0.32294 0.21488 0.45437 0.0
C135 C 0.25052 0.18152 0.50152 0.0
O136 O 0.30572 0.20608 0.5878 0.0
C137 C 0.32708 0.24332 0.45572 0.0
O138 O 0.32178 0.24545 0.56654 0.0
O139 O 0.32481 0.26018 0.48243 0.0
C140 C 0.16952 0.06642 0.85952 0.0
O141 O 0.16527 0.08685 0.84547 0.0
Cd142 Cd 0.19549 0.0794 0.80081 0.0
O143 O 0.18651 0.04846 0.84593 0.0
Cd144 Cd 0.21685 0.04679 0.78809 0.0
C145 C 0.24662 0.13166 0.79471 0.0
O146 O 0.16732 0.05166 0.75119 0.0
O147 O 0.20525 0.04372 0.7268 0.0
O148 O 0.2198 0.98664 0.78739 0.0
C149 C 0.17844 0.04822 0.72475 0.0
O150 O 0.21845 0.12968 0.79517 0.0
C151 C 0.2477 0.98645 0.78462 0.0
O152 O 0.25588 0.10641 0.79479 0.0
O153 O 0.26197 1.01293 0.78285 0.0
C154 C 0.38575 0.03844 0.02122 0.0
O155 O 0.37273 0.05377 1.00598 0.0
Cd156 Cd 0.31937 0.03051 0.98924 0.0
O157 O 0.36939 1.01619 0.0297 0.0
Cd158 Cd 0.31258 0.99202 0.02528 0.0
C159 C 0.32001 0.9598 0.94895 0.0
O160 O 0.2817 0.03437 0.02917 0.0
O161 O 0.25679 0.98788 0.02048 0.0
O162 O 0.32683 0.98823 0.0792 0.0
C163 C 0.25613 1.01607 0.02736 0.0
O164 O 0.31994 0.98639 0.94485 0.0
C165 C 0.31725 0.95942 0.07327 0.0
O166 O 0.31703 0.95501 0.97625 0.0
O167 O 0.30382 0.94666 0.04603 0.0
C168 C 0.41611 0.47113 0.06647 0.0
O169 O 0.39867 0.48473 0.05389 0.0
Cd170 Cd 0.34743 0.46759 0.03345 0.0
O171 O 0.40629 0.44482 0.07205 0.0
Cd172 Cd 0.35417 0.40934 0.06801 0.0
C173 C 0.3506 0.39542 0.98723 0.0
O174 O 0.3247 0.44791 0.07296 0.0
O175 O 0.29977 0.40311 0.05035 0.0
O176 O 0.35617 0.40963 0.12464 0.0
C177 C 0.29991 0.43135 0.05935 0.0
O178 O 0.3456 0.42235 0.99118 0.0
C179 C 0.34988 0.38091 0.12177 0.0
O180 O 0.35721 0.38452 1.0108 0.0
O181 O 0.34718 0.36466 0.0937 0.0
C182 C 0.90327 0.10917 0.05929 0.0
O183 O 0.88786 0.0931 0.07542 0.0
Cd184 Cd 0.84045 0.10951 0.08909 0.0
O185 O 0.89187 0.12989 0.05075 0.0
Cd186 Cd 0.83889 0.14359 0.05872 0.0
C187 C 0.84462 0.17861 0.13358 0.0
O188 O 0.79552 0.09691 0.05092 0.0
O189 O 0.78826 0.13864 0.07967 0.0
O190 O 0.82837 0.14842 1.00422 0.0
C191 C 0.77674 0.11184 0.06381 0.0
O192 O 0.83767 0.15094 0.13574 0.0
C193 C 0.82938 0.17694 1.0123 0.0
O194 O 0.85146 0.18393 0.10728 0.0
O195 O 0.83587 0.18954 0.04131 0.0
C196 C 0.16425 0.58008 0.25774 0.0
O197 O 0.15092 0.58619 0.2343 0.0
Cd198 Cd 0.16834 0.57994 0.18319 0.0
O199 O 0.18847 0.56992 0.25527 0.0
Cd200 Cd 0.22441 0.55638 0.21686 0.0
C201 C 0.23574 0.63025 0.20895 0.0
O202 O 0.18335 0.53205 0.17859 0.0
O203 O 0.22606 0.53179 0.16013 0.0
O204 O 0.23497 0.52433 0.25171 0.0
C205 C 0.19749 0.52442 0.15511 0.0
O206 O 0.21035 0.62479 0.19256 0.0
C207 C 0.26324 0.52935 0.24953 0.0
O208 O 0.24443 0.60965 0.2202 0.0
O209 O 0.27327 0.54601 0.23109 0.0
C210 C 0.91817 0.96814 0.56742 0.0
O211 O 0.90043 0.98117 0.55448 0.0
Cd212 Cd 0.84931 0.9632 0.53423 0.0
O213 O 0.90876 0.94194 0.57344 0.0
Cd214 Cd 0.85689 0.90591 0.56964 0.0
C215 C 0.85319 0.89084 0.48901 0.0
O216 O 0.82715 0.94422 0.57444 0.0
O217 O 0.80229 0.89934 0.5521 0.0
O218 O 0.85895 0.90624 0.62629 0.0
C219 C 0.8023 0.92754 0.56114 0.0
O220 O 0.84785 0.91761 0.49259 0.0
C221 C 0.85262 0.87751 0.62337 0.0
O222 O 0.85998 0.88032 0.51277 0.0
O223 O 0.85001 0.8613 0.5953 0.0
C224 C 1.00753 0.08467 0.35563 0.0
O225 O 0.01771 0.06955 0.33235 0.0
Cd226 Cd 0.98264 0.06928 0.28866 0.0
O227 O 0.98587 0.0978 0.34844 0.0
Cd228 Cd 0.9573 0.09653 0.28636 0.0
C229 C 0.93073 1.0123 0.27938 0.0
O230 O 1.00595 0.09609 0.2513 0.0
O231 O 0.96394 0.07942 0.22382 0.0
O232 O 0.95414 0.15779 0.29644 0.0
C233 C 0.99251 0.08702 0.22347 0.0
O234 O 0.9579 1.01491 0.27294 0.0
C235 C 0.92585 0.15665 0.29134 0.0
O236 O 0.92142 0.03786 0.28648 0.0
O237 O 0.91129 0.12879 0.28446 0.0
C238 C 0.40195 0.60972 0.5577 0.0
O239 O 0.38637 0.59364 0.57369 0.0
Cd240 Cd 0.33921 0.61044 0.58749 0.0
O241 O 0.39076 0.63064 0.54927 0.0
Cd242 Cd 0.33787 0.64484 0.55728 0.0
C243 C 0.34397 0.67951 0.63236 0.0
O244 O 0.29431 0.59833 0.54941 0.0
O245 O 0.28737 0.63999 0.57857 0.0
O246 O 0.32683 0.64995 0.50293 0.0
C247 C 0.27567 0.61331 0.56253 0.0
O248 O 0.3369 0.6518 0.63436 0.0
C249 C 0.32804 0.6785 0.51114 0.0
O250 O 0.35068 0.68495 0.60606 0.0
O251 O 0.33505 0.69104 0.54011 0.0
C252 C 0.50837 0.58576 0.85622 0.0
O253 O 0.51915 0.5715 0.83286 0.0
Cd254 Cd 0.48357 0.5711 0.78964 0.0
O255 O 0.48628 0.5984 0.84916 0.0
Cd256 Cd 0.45792 0.59759 0.78714 0.0
C257 C 0.43216 0.51364 0.78046 0.0
O258 O 0.5064 0.59758 0.75193 0.0
O259 O 0.46429 0.58027 0.7247 0.0
O260 O 0.45465 0.65874 0.79722 0.0
C261 C 0.4928 0.58819 0.7242 0.0
O262 O 0.45946 0.51661 0.77445 0.0
C263 C 0.42635 0.6575 0.79203 0.0
O264 O 0.42238 0.53894 0.7871 0.0
O265 O 0.41183 0.62963 0.78513 0.0
C266 C 0.66527 0.07832 0.76033 0.0
O267 O 0.65158 0.08377 0.73671 0.0
Cd268 Cd 0.6679 0.0761 0.68517 0.0
O269 O 0.68931 0.06782 0.75784 0.0
Cd270 Cd 0.72447 0.05261 0.71916 0.0
C271 C 0.7359 0.12601 0.70971 0.0
O272 O 0.68299 0.02848 0.68145 0.0
O273 O 0.72532 0.02727 0.66247 0.0
O274 O 0.7349 1.02067 0.75421 0.0
C275 C 0.69673 1.02055 0.65774 0.0
O276 O 0.71033 0.12038 0.69361 0.0
C277 C 0.76315 0.02548 0.75191 0.0
O278 O 0.74473 0.10568 0.72134 0.0
O279 O 0.77322 0.04203 0.73339 0.0
C280 C 0.85877 0.66769 0.03966 0.0
O281 O 0.83733 0.65693 0.05421 0.0
Cd282 Cd 0.78776 0.66573 0.0552 0.0
O283 O 0.8556 0.68682 0.02294 0.0
Cd284 Cd 0.81397 0.71412 1.01151 0.0
C285 C 0.8108 0.74176 0.09174 0.0
O286 O 0.77564 0.66779 1.00279 0.0
O287 O 0.75691 0.70761 1.00773 0.0
O288 O 0.82526 0.71124 0.9562 0.0
C289 C 0.7522 0.67865 1.00235 0.0
O290 O 0.79535 0.71542 0.09165 0.0
C291 C 0.8293 0.73958 0.95694 0.0
O292 O 0.82251 0.74738 0.06707 0.0
O293 O 0.82698 0.75687 0.98335 0.0
C294 C 0.99034 0.57983 0.86147 0.0
O295 O 0.99706 0.56803 0.83443 0.0
Cd296 Cd 0.96299 0.54159 0.79054 0.0
O297 O 0.9628 0.57987 0.86641 0.0
Cd298 Cd 0.91411 0.56202 0.83063 0.0
C299 C 0.91767 0.49078 0.82563 0.0
O300 O 0.93161 0.57604 0.78387 0.0
O301 O 0.89997 0.53327 0.77523 0.0
O302 O 0.89143 0.60581 0.84874 0.0
C303 C 0.91601 0.55337 0.76387 0.0
O304 O 0.93601 0.49567 0.80531 0.0
C305 C 0.86469 0.59004 0.84611 0.0
O306 O 0.9073 0.51241 0.84171 0.0
O307 O 0.86162 0.56124 0.83937 0.0
C308 C 0.8846 0.53983 0.52008 0.0
O309 O 0.87158 0.55462 0.50417 0.0
Cd310 Cd 0.81826 0.53118 0.4874 0.0
O311 O 0.86828 0.51779 0.52893 0.0
Cd312 Cd 0.81151 0.49327 0.52367 0.0
C313 C 0.81915 0.46061 0.44746 0.0
O314 O 0.78047 0.53545 0.52726 0.0
O315 O 0.75575 0.48892 0.51894 0.0
O316 O 0.82503 0.48877 0.57751 0.0
C317 C 0.75499 0.51707 0.52572 0.0
O318 O 0.81888 0.48704 0.443 0.0
C319 C 0.81533 0.45995 0.57104 0.0
O320 O 0.8163 0.45617 0.4749 0.0
O321 O 0.80228 0.44761 0.54356 0.0
C322 C 0.66761 0.5652 0.35943 0.0
O323 O 0.66274 0.58512 0.34495 0.0
Cd324 Cd 0.69338 0.57793 0.30074 0.0
O325 O 0.68511 0.54764 0.34625 0.0
Cd326 Cd 0.71541 0.54598 0.28846 0.0
C327 C 0.74346 0.63117 0.29527 0.0
O328 O 0.6658 0.54981 0.2511 0.0
O329 O 0.70443 0.54349 0.22727 0.0
O330 O 0.71867 0.48582 0.28769 0.0
C331 C 0.67734 0.54715 0.2249 0.0
O332 O 0.71518 0.62844 0.29513 0.0
C333 C 0.7466 0.48573 0.28499 0.0
O334 O 0.75337 0.60631 0.29566 0.0
O335 O 0.76079 0.51229 0.28333 0.0
Eu336 Eu 0.09815 0.1063 0.05353 0.0
Eu337 Eu 0.0663 0.03583 0.03047 0.0
C338 C 0.10786 0.06837 0.98082 0.0
C339 C 0.1042 0.18967 0.08386 0.0
C340 C 0.11593 0.21885 0.07956 0.0
C341 C 0.055 0.20251 0.0891 0.0
C342 C 0.09684 0.23908 0.07805 0.0
C343 C 0.07419 0.1824 0.09088 0.0
C344 C 0.06569 0.23009 0.08035 0.0
C345 C 0.11963 0.16489 0.07189 0.0
O346 O 0.11482 0.03346 0.04538 0.0
O347 O 0.13883 0.08368 0.05321 0.0
C348 C 0.13993 0.0546 0.04928 0.0
O349 O 0.07977 0.09617 0.09989 0.0
O350 O 0.04285 0.99663 0.99344 0.0
O351 O 0.05025 0.99212 0.04159 0.0
O352 O 0.04777 0.05027 0.0793 0.0
C353 C 0.05712 0.07434 0.1033 0.0
O354 O 0.04799 0.10764 0.0473 0.0
O355 O 0.02747 0.05842 0.02111 0.0
O356 O 0.09343 0.043 0.98786 0.0
O357 O 0.12232 0.14594 0.08976 0.0
O358 O 0.11017 0.15078 0.04273 0.0
O359 O 0.10884 0.09499 1.00093 0.0
C360 C 0.05145 0.9497 1.00184 0.0
C361 C 0.08251 0.95033 1.00343 0.0
C362 C 0.04115 0.89516 0.99745 0.0
C363 C 0.09287 0.92382 1.00437 0.0
C364 C 0.03082 0.92178 0.99687 0.0
C365 C 0.07219 0.89647 1.00369 0.0
C366 C 0.04094 0.97802 1.01234 0.0
C367 C 0.02432 0.0862 0.03399 0.0
H368 H 0.13897 0.22473 0.0739 0.0
H369 H 0.0312 0.19513 0.09134 0.0
H370 H 0.10585 0.26009 0.07116 0.0
H371 H 0.06474 0.1599 0.09429 0.0
H372 H 0.09868 0.97182 1.00713 0.0
H373 H 0.02476 0.87422 0.99617 0.0
H374 H 0.11691 0.92565 1.00919 0.0
H375 H 1.00674 0.92099 0.99542 0.0
Eu376 Eu 0.34623 0.81299 0.2541 0.0
Eu377 Eu 0.30776 0.81278 0.31574 0.0
C378 C 0.28841 0.84157 0.25962 0.0
C379 C 0.37066 0.84306 0.18605 0.0
C380 C 0.36586 0.87182 0.20136 0.0
C381 C 0.36096 0.8552 0.13562 0.0
C382 C 0.3582 0.8919 0.18394 0.0
C383 C 0.36867 0.83512 0.15309 0.0
C384 C 0.35496 0.88352 0.15086 0.0
C385 C 0.3729 0.81991 0.20417 0.0
O386 O 0.30249 0.76418 0.28866 0.0
O387 O 0.30581 0.77401 0.23994 0.0
C388 C 0.29718 0.75527 0.25795 0.0
O389 O 0.36521 0.78121 0.27833 0.0
O390 O 0.2672 0.79561 0.33649 0.0
O391 O 0.3045 0.82805 0.36605 0.0
O392 O 0.35167 0.80017 0.32757 0.0
C393 C 0.3677 0.78426 0.30908 0.0
O394 O 0.37236 0.84803 0.29552 0.0
O395 O 0.3325 0.86132 0.32047 0.0
O396 O 0.27851 0.82424 0.27876 0.0
O397 O 0.38648 0.83002 0.23267 0.0
O398 O 0.34782 0.80012 0.20318 0.0
O399 O 0.31686 0.84699 0.25462 0.0
C400 C 0.28197 0.7864 0.38517 0.0
C401 C 0.29672 0.76235 0.37485 0.0
C402 C 0.278 0.77236 0.43538 0.0
C403 C 0.30239 0.74365 0.39471 0.0
C404 C 0.27233 0.79114 0.4154 0.0
C405 C 0.29351 0.74871 0.42538 0.0
C406 C 0.27966 0.80791 0.36523 0.0
C407 C 0.36067 0.8681 0.31436 0.0
H408 H 0.36669 0.87827 0.22682 0.0
H409 H 0.3591 0.8483 0.11014 0.0
H410 H 0.35345 0.91336 0.19639 0.0
H411 H 0.37193 0.81293 0.14085 0.0
H412 H 0.30474 0.75864 0.3517 0.0
H413 H 0.2706 0.7766 0.45879 0.0
H414 H 0.31477 0.726 0.38645 0.0
H415 H 0.26113 0.80975 0.42379 0.0
Eu416 Eu 0.63923 0.05609 0.48133 0.0
Eu417 Eu 0.58333 0.06364 0.52558 0.0
C418 C 0.63502 0.03108 0.54573 0.0
C419 C 0.70317 0.02299 0.45882 0.0
C420 C 0.688 0.99448 0.46298 0.0
C421 C 0.74949 1.01492 0.48293 0.0
C422 C 0.70324 0.97683 0.47781 0.0
C423 C 0.73428 0.03252 0.46793 0.0
C424 C 0.73386 0.98746 0.48904 0.0
C425 C 0.68566 0.04538 0.45254 0.0
O426 O 0.62701 0.09395 0.54996 0.0
O427 O 0.64534 0.10555 0.50587 0.0
C428 C 0.64404 0.11275 0.53634 0.0
O429 O 0.60407 0.06732 0.45024 0.0
O430 O 0.56559 0.09611 0.56003 0.0
O431 O 0.54008 0.0496 0.54349 0.0
O432 O 0.57881 0.09073 0.48925 0.0
C433 C 0.58416 0.08381 0.45969 0.0
O434 O 0.61029 1.00962 0.47604 0.0
O435 O 0.56476 0.02234 0.48598 0.0
O436 O 0.60631 0.03224 0.54638 0.0
O437 O 0.658 0.03434 0.43942 0.0
O438 O 0.6873 0.0687 0.4763 0.0
O439 O 0.65199 0.04314 0.52633 0.0
C440 C 0.51316 0.08975 0.55096 0.0
C441 C 0.49659 0.07939 0.52113 0.0
C442 C 0.48218 0.1274 0.56513 0.0
C443 C 0.47275 0.09264 0.51355 0.0
C444 C 0.50588 0.11395 0.57281 0.0
C445 C 0.46527 0.11674 0.53549 0.0
C446 C 0.53966 0.07746 0.55849 0.0
C447 C 0.58074 1.00269 0.47336 0.0
H448 H 0.66388 0.98668 0.45673 0.0
H449 H 0.77327 0.02339 0.49086 0.0
H450 H 0.69059 0.95585 0.48227 0.0
H451 H 0.74636 0.05454 0.46538 0.0
H452 H 0.50222 0.06125 0.50355 0.0
H453 H 0.47668 0.14571 0.58261 0.0
H454 H 0.46022 0.08413 0.49046 0.0
H455 H 0.51867 0.12259 0.59576 0.0
Eu456 Eu 0.30946 0.32963 0.78342 0.0
Eu457 Eu 0.37506 0.31371 0.79137 0.0
C458 C 0.31487 0.25874 0.79084 0.0
C459 C 0.23106 0.33113 0.80151 0.0
C460 C 0.23932 0.32906 0.83229 0.0
C461 C 0.17843 0.31523 0.80926 0.0
C462 C 0.21737 0.32033 0.85148 0.0
C463 C 0.2005 0.32415 0.79006 0.0
C464 C 0.18672 0.31321 0.84014 0.0
C465 C 0.25459 0.33866 0.78107 0.0
O466 O 0.35614 0.2907 0.74121 0.0
O467 O 0.32267 0.32022 0.73349 0.0
C468 C 0.33855 0.3 0.72226 0.0
O469 O 0.33918 0.37676 0.78362 0.0
O470 O 0.40842 0.2908 0.80865 0.0
O471 O 0.42093 0.32226 0.77874 0.0
O472 O 0.38565 0.36455 0.78681 0.0
C473 C 0.36889 0.38501 0.78474 0.0
O474 O 0.31963 0.33695 0.8361 0.0
O475 O 0.36936 0.33393 0.84194 0.0
O476 O 0.34474 0.26738 0.79412 0.0
O477 O 0.27796 0.35972 0.79484 0.0
O478 O 0.26236 0.31525 0.76317 0.0
O479 O 0.29826 0.27863 0.78637 0.0
C480 C 0.44547 0.28138 0.77381 0.0
C481 C 0.43573 0.26799 0.74189 0.0
C482 C 0.49212 0.26372 0.76742 0.0
C483 C 0.45477 0.25368 0.72249 0.0
C484 C 0.47316 0.2781 0.7867 0.0
C485 C 0.48368 0.25253 0.73484 0.0
C486 C 0.42922 0.30235 0.79266 0.0
C487 C 0.34467 0.3396 0.85396 0.0
H488 H 0.2628 0.3339 0.84148 0.0
H489 H 0.15489 0.31018 0.80006 0.0
H490 H 0.22443 0.31866 0.87501 0.0
H491 H 0.19376 0.32536 0.76628 0.0
H492 H 0.41424 0.27021 0.73161 0.0
H493 H 0.51436 0.26358 0.77766 0.0
H494 H 0.44757 0.24501 0.69757 0.0
H495 H 0.48098 0.28838 0.81128 0.0
Eu496 Eu 0.07896 0.10136 0.5616 0.0
Eu497 Eu 0.0984 0.03916 0.52532 0.0
C498 C 0.14058 0.10446 0.52489 0.0
C499 C 0.06497 0.17876 0.56635 0.0
C500 C 0.05579 0.17111 0.53386 0.0
C501 C 0.08045 0.23195 0.5638 0.0
C502 C 0.05945 0.19341 0.51641 0.0
C503 C 0.0769 0.20944 0.5813 0.0
C504 C 0.07234 0.22407 0.53097 0.0
C505 C 0.06567 0.15427 0.58329 0.0
O506 O 0.11761 0.0443 0.57702 0.0
O507 O 0.10385 0.08795 0.60329 0.0
C508 C 0.11725 0.06457 0.60371 0.0
O509 O 0.04417 0.06567 0.575 0.0
O510 O 0.12819 1.00655 0.51971 0.0
O511 O 0.08637 0.99625 0.48959 0.0
O512 O 0.05281 0.023 0.54131 0.0
C513 C 0.03695 0.0363 0.56215 0.0
O514 O 0.0552 0.09196 0.5106 0.0
O515 O 0.07984 0.05689 0.48378 0.0
O516 O 0.13802 0.07472 0.51916 0.0
O517 O 0.04527 0.12914 0.57281 0.0
O518 O 0.09236 0.14874 0.58879 0.0
O519 O 0.12017 0.11793 0.53856 0.0
C520 C 0.09848 0.9569 0.51195 0.0
C521 C 0.06796 0.94634 0.51585 0.0
C522 C 0.11214 0.92047 0.54017 0.0
C523 C 0.05978 0.92388 0.53265 0.0
C524 C 0.12036 0.94305 0.52343 0.0
C525 C 0.08187 0.91135 0.54581 0.0
C526 C 0.10793 0.98521 0.50081 0.0
C527 C 0.06126 0.07594 0.4834 0.0
H528 H 0.0468 0.14763 0.52156 0.0
H529 H 0.0901 0.25539 0.5759 0.0
H530 H 0.05343 0.18623 0.49119 0.0
H531 H 0.08437 0.21585 0.60627 0.0
H532 H 0.05045 0.95641 0.50723 0.0
H533 H 0.12975 0.91138 0.55016 0.0
H534 H 0.03622 0.91696 0.53612 0.0
H535 H 0.14402 0.95088 0.52093 0.0
Eu536 Eu 0.36602 0.83992 0.77904 0.0
Eu537 Eu 0.30833 0.80501 0.80314 0.0
C538 C 0.34635 0.86437 0.84857 0.0
C539 C 0.44332 0.85349 0.75157 0.0
C540 C 0.44805 0.82651 0.75905 0.0
C541 C 0.4944 0.86353 0.73712 0.0
C542 C 0.47651 0.81955 0.75842 0.0
C543 C 0.46598 0.87102 0.73878 0.0
C544 C 0.50078 0.83925 0.74964 0.0
C545 C 0.41676 0.86526 0.76158 0.0
O546 O 0.29257 0.84897 0.79224 0.0
O547 O 0.33448 0.87422 0.77485 0.0
C548 C 0.30646 0.87367 0.78282 0.0
O549 O 0.34229 0.8073 0.73447 0.0
O550 O 0.28437 0.78973 0.8407 0.0
O551 O 0.26129 0.78147 0.79374 0.0
O552 O 0.31369 0.77317 0.75738 0.0
C553 C 0.32734 0.77955 0.73325 0.0
O554 O 0.38202 0.79657 0.79107 0.0
O555 O 0.3386 0.76882 0.80312 0.0
O556 O 0.3345 0.83578 0.84743 0.0
O557 O 0.392 0.85487 0.74245 0.0
O558 O 0.41212 0.86564 0.79093 0.0
O559 O 0.35786 0.87177 0.82379 0.0
C560 C 0.23458 0.797 0.83568 0.0
C561 C 0.24029 0.82909 0.84355 0.0
C562 C 0.18103 0.79535 0.82974 0.0
C563 C 0.21654 0.84414 0.84201 0.0
C564 C 0.20482 0.7803 0.83104 0.0
C565 C 0.18699 0.82716 0.83257 0.0
C566 C 0.25842 0.78183 0.82342 0.0
C567 C 0.36735 0.7705 0.79734 0.0
H568 H 0.43056 0.81225 0.76823 0.0
H569 H 0.51188 0.87831 0.72841 0.0
H570 H 0.4797 0.80044 0.768 0.0
H571 H 0.46239 0.89154 0.73206 0.0
H572 H 0.26325 0.84237 0.84724 0.0
H573 H 0.15846 0.78164 0.82236 0.0
H574 H 0.22162 0.86868 0.84461 0.0
H575 H 0.20009 0.75554 0.82482 0.0
Eu576 Eu 0.57898 0.04968 0.07101 0.0
Eu577 Eu 0.58319 0.08749 0.01629 0.0
C578 C 0.58104 0.12108 0.08755 0.0
C579 C 0.54024 1.01835 0.13089 0.0
C580 C 0.51795 0.03291 0.1216 0.0
C581 C 0.51027 1.00428 0.17163 0.0
C582 C 0.49225 0.03357 0.13738 0.0
C583 C 0.53607 1.00344 0.15554 0.0
C584 C 0.48854 1.02005 0.16312 0.0
C585 C 0.56784 1.02022 0.11493 0.0
O586 O 0.63093 0.08004 0.02392 0.0
O587 O 0.62924 0.07151 0.07385 0.0
C588 C 0.64472 0.07805 0.05052 0.0
O589 O 0.59631 1.01969 0.03197 0.0
O590 O 0.60328 0.12585 0.99703 0.0
O591 O 0.56289 0.09393 0.97258 0.0
O592 O 0.58019 0.03838 0.99084 0.0
C593 C 0.59044 1.01734 1.00179 0.0
O594 O 0.53179 0.03912 0.04519 0.0
O595 O 0.53501 0.0836 0.02968 0.0
O596 O 0.59418 0.12281 0.06192 0.0
O597 O 0.56357 1.0069 0.085 0.0
O598 O 0.58496 0.04757 0.12033 0.0
O599 O 0.56738 0.09474 0.09214 0.0
C600 C 0.59775 0.11468 0.94127 0.0
C601 C 0.62843 0.11415 0.9393 0.0
C602 C 0.59024 0.10671 0.88447 0.0
C603 C 0.6399 0.10985 0.91007 0.0
C604 C 0.57887 0.11136 0.91373 0.0
C605 C 0.62082 0.10558 0.88229 0.0
C606 C 0.58459 0.11681 0.9714 0.0
C607 C 0.51848 0.05923 0.03608 0.0
H608 H 0.52089 0.04472 0.10275 0.0
H609 H 0.50811 0.99402 0.19172 0.0
H610 H 0.47583 0.04572 0.13023 0.0
H611 H 0.55308 0.99209 0.16293 0.0
H612 H 0.6435 0.11658 0.96022 0.0
H613 H 0.57484 0.1031 0.86353 0.0
H614 H 0.66367 0.10965 0.90924 0.0
H615 H 0.55511 0.11157 0.9148 0.0
Eu616 Eu 0.35367 0.34286 0.3052 0.0
Eu617 Eu 0.31286 0.27524 0.26779 0.0
C618 C 0.3287 0.32977 0.23218 0.0
C619 C 0.36731 0.426 0.33188 0.0
C620 C 0.33614 0.42317 0.33375 0.0
C621 C 0.36918 0.47399 0.3164 0.0
C622 C 0.32143 0.44481 0.32583 0.0
C623 C 0.38393 0.45206 0.32417 0.0
C624 C 0.33755 0.46992 0.3159 0.0
C625 C 0.3805 0.39906 0.33117 0.0
O626 O 0.36106 0.26984 0.2709 0.0
O627 O 0.38403 0.31974 0.27457 0.0
C628 C 0.38368 0.2905 0.26641 0.0
O629 O 0.36085 0.31202 0.33798 0.0
O630 O 0.30783 0.22917 0.23814 0.0
O631 O 0.26897 0.24362 0.2578 0.0
O632 O 0.31805 0.27472 0.3194 0.0
C633 C 0.34033 0.2886 0.34142 0.0
O634 O 0.30787 0.33942 0.32191 0.0
O635 O 0.28038 0.30642 0.27853 0.0
O636 O 0.32538 0.30013 0.22939 0.0
O637 O 0.36794 0.38001 0.34724 0.0
O638 O 0.38484 0.38497 0.30307 0.0
O639 O 0.33022 0.3484 0.26015 0.0
C640 C 0.27668 0.19507 0.26156 0.0
C641 C 0.27279 0.20081 0.29392 0.0
C642 C 0.28909 0.14661 0.26469 0.0
C643 C 0.27862 0.18041 0.31176 0.0
C644 C 0.28332 0.16709 0.24679 0.0
C645 C 0.28846 0.15401 0.29759 0.0
C646 C 0.28054 0.22042 0.24539 0.0
C647 C 0.28197 0.32583 0.30571 0.0
H648 H 0.32263 0.40306 0.33911 0.0
H649 H 0.38235 0.49335 0.30938 0.0
H650 H 0.29707 0.44047 0.32528 0.0
H651 H 0.40795 0.45448 0.32226 0.0
H652 H 0.26773 0.22223 0.30608 0.0
H653 H 0.29684 0.12644 0.25323 0.0
H654 H 0.27782 0.18645 0.33705 0.0
H655 H 0.28661 0.16227 0.22196 0.0
Eu656 Eu 0.57943 0.60123 0.06167 0.0
Eu657 Eu 0.59778 0.53833 0.02555 0.0
C658 C 0.64088 0.60307 0.02465 0.0
C659 C 0.56588 0.67878 0.06601 0.0
C660 C 0.55672 0.67091 0.03352 0.0
C661 C 0.58079 0.73193 0.06319 0.0
C662 C 0.56011 0.69308 0.01593 0.0
C663 C 0.57753 0.70955 0.08083 0.0
C664 C 0.57269 0.72385 0.03035 0.0
C665 C 0.5667 0.65446 0.08313 0.0
O666 O 0.61675 0.54343 0.0773 0.0
O667 O 0.604 0.58769 0.10341 0.0
C668 C 0.61682 0.56395 0.1039 0.0
O669 O 0.54424 0.56605 0.07529 0.0
O670 O 0.62726 0.50542 0.01997 0.0
O671 O 0.58503 0.49497 0.99051 0.0
O672 O 0.55178 0.52314 0.04115 0.0
C673 C 0.53628 0.53678 0.06214 0.0
O674 O 0.55555 0.59177 1.01076 0.0
O675 O 0.57978 0.55631 0.98392 0.0
O676 O 0.6378 0.57327 0.01901 0.0
O677 O 0.54612 0.62942 0.07303 0.0
O678 O 0.59336 0.64876 0.08835 0.0
O679 O 0.6208 0.61702 0.0384 0.0
C680 C 0.59742 0.45594 1.0133 0.0
C681 C 0.56703 0.44563 0.01785 0.0
C682 C 0.61149 0.41962 0.04145 0.0
C683 C 0.55912 0.42329 0.03487 0.0
C684 C 0.61943 0.44207 0.02448 0.0
C685 C 0.58135 0.41065 0.04763 0.0
C686 C 0.60669 0.48398 1.0016 0.0
C687 C 0.56146 0.57562 0.98357 0.0
H688 H 0.54793 0.64736 0.02133 0.0
H689 H 0.59022 0.75546 0.07518 0.0
H690 H 0.55411 0.68575 0.9907 0.0
H691 H 0.58496 0.71613 0.10581 0.0
H692 H 0.54943 0.45573 1.00948 0.0
H693 H 0.62921 0.41046 0.05113 0.0
H694 H 0.53565 0.4165 0.03874 0.0
H695 H 0.643 0.44972 0.02149 0.0
Eu696 Eu 0.86542 0.3393 0.27885 0.0
Eu697 Eu 0.80798 0.3045 0.30347 0.0
C698 C 0.84592 0.36431 0.34832 0.0
C699 C 0.94279 0.35304 0.25147 0.0
C700 C 0.94764 0.32618 0.25917 0.0
C701 C 0.99412 0.36356 0.23781 0.0
C702 C 0.97624 0.31956 0.25908 0.0
C703 C 0.96555 0.37073 0.23896 0.0
C704 C 1.00054 0.33945 0.25059 0.0
C705 C 0.91606 0.36465 0.2612 0.0
O706 O 0.79191 0.34829 0.29245 0.0
O707 O 0.83367 0.37352 0.27477 0.0
C708 C 0.80568 0.37297 0.2829 0.0
O709 O 0.84141 0.30665 0.23445 0.0
O710 O 0.78452 0.28915 0.34128 0.0
O711 O 0.76096 0.28089 0.29454 0.0
O712 O 0.81324 0.27256 0.25772 0.0
C713 C 0.82669 0.27887 0.23345 0.0
O714 O 0.88158 0.29598 0.29085 0.0
O715 O 0.83832 0.26832 0.30327 0.0
O716 O 0.83418 0.33577 0.34752 0.0
O717 O 0.89134 0.35393 0.24206 0.0
O718 O 0.91142 0.36529 0.29059 0.0
O719 O 0.85737 0.37144 0.32342 0.0
C720 C 0.73457 0.29604 0.33688 0.0
C721 C 0.70493 0.27905 0.33262 0.0
C722 C 0.71594 0.34285 0.34338 0.0
C723 C 0.68089 0.29379 0.33151 0.0
C724 C 0.73996 0.32811 0.34469 0.0
C725 C 0.68647 0.32557 0.33416 0.0
C726 C 0.75843 0.28113 0.32425 0.0
C727 C 0.867 0.26994 0.29725 0.0
H728 H 0.93009 0.31182 0.26817 0.0
H729 H 1.01165 0.37847 0.22931 0.0
H730 H 0.97948 0.30055 0.26883 0.0
H731 H 0.96189 0.39117 0.2321 0.0
H732 H 0.70046 0.2543 0.32648 0.0
H733 H 0.72075 0.36738 0.34587 0.0
H734 H 0.6584 0.27983 0.32435 0.0
H735 H 0.76282 0.3416 0.3481 0.0
Eu736 Eu 0.07799 0.55216 0.57085 0.0
Eu737 Eu 0.08193 0.58865 0.51498 0.0
C738 C 0.08061 0.62364 0.58599 0.0
C739 C 0.03959 0.52328 0.63214 0.0
C740 C 0.01814 0.53912 0.62351 0.0
C741 C 1.00873 0.50872 0.67206 0.0
C742 C 0.99245 0.54018 0.63926 0.0
C743 C 0.03457 0.50757 0.65608 0.0
C744 C 0.98781 0.52562 0.66417 0.0
C745 C 0.06695 0.52412 0.61583 0.0
O746 O 0.12971 0.58137 0.52283 0.0
O747 O 0.12825 0.57371 0.57311 0.0
C748 C 0.14361 0.57982 0.54956 0.0
O749 O 0.09512 0.52139 0.53233 0.0
O750 O 0.10187 0.62612 0.49438 0.0
O751 O 0.06128 0.59391 0.47086 0.0
O752 O 0.07879 0.53921 0.49065 0.0
C753 C 0.08916 0.5185 0.50207 0.0
O754 O 0.03064 0.54139 0.54541 0.0
O755 O 0.03386 0.58524 0.52864 0.0
O756 O 0.09325 0.62488 0.55998 0.0
O757 O 0.06221 0.51012 0.58609 0.0
O758 O 0.08451 0.55118 0.62043 0.0
O759 O 0.06683 0.59757 0.59109 0.0
C760 C 0.0958 0.61357 0.43857 0.0
C761 C 0.12641 0.61284 0.43639 0.0
C762 C 0.08788 0.60509 0.38173 0.0
C763 C 0.13767 0.60829 0.40705 0.0
C764 C 0.07672 0.60997 0.4111 0.0
C765 C 0.11845 0.604 0.37936 0.0
C766 C 0.08295 0.61651 0.46893 0.0
C767 C 1.01734 0.56121 0.5357 0.0
H768 H 0.02166 0.55138 0.60505 0.0
H769 H 1.00585 0.49762 0.6915 0.0
H770 H 0.97664 0.55319 0.63258 0.0
H771 H 0.05087 0.49516 0.6629 0.0
H772 H 0.14162 0.61544 0.45725 0.0
H773 H 0.07237 0.60143 0.36086 0.0
H774 H 0.16143 0.6081 0.40609 0.0
H775 H 0.05299 0.61031 0.41232 0.0
Eu776 Eu 0.80538 0.83072 0.28807 0.0
Eu777 Eu 0.87078 0.81293 0.29006 0.0
C778 C 0.80936 0.75941 0.29251 0.0
C779 C 0.72909 0.83764 0.31219 0.0
C780 C 0.73729 0.83313 0.34199 0.0
C781 C 0.67641 0.82547 0.32125 0.0
C782 C 0.71528 0.82517 0.36146 0.0
C783 C 0.69854 0.83381 0.30191 0.0
C784 C 0.68464 0.82104 0.35116 0.0
C785 C 0.75238 0.8445 0.29129 0.0
O786 O 0.85619 0.80149 0.23772 0.0
O787 O 0.8117 0.81835 0.23643 0.0
C788 C 0.83258 0.8061 0.22212 0.0
O789 O 0.83724 0.87703 0.28774 0.0
O790 O 0.89664 0.77717 0.28585 0.0
O791 O 0.92002 0.82453 0.29798 0.0
O792 O 0.88261 0.86248 0.28248 0.0
C793 C 0.86646 0.884 0.28429 0.0
O794 O 0.81674 0.83184 0.33921 0.0
O795 O 0.86739 0.83283 0.34153 0.0
O796 O 0.83919 0.76826 0.29574 0.0
O797 O 0.77732 0.86316 0.30501 0.0
O798 O 0.75745 0.8209 0.27124 0.0
O799 O 0.79263 0.77922 0.28828 0.0
C800 C 0.94397 0.78828 0.26698 0.0
C801 C 0.95847 0.80954 0.25099 0.0
C802 C 0.97118 0.75108 0.24051 0.0
C803 C 0.97971 0.80182 0.23046 0.0
C804 C 0.95015 0.75888 0.2612 0.0
C805 C 0.9867 0.77268 0.22546 0.0
C806 C 0.9226 0.79613 0.28995 0.0
C807 C 0.84295 0.83592 0.35547 0.0
H808 H 0.76072 0.83537 0.35007 0.0
H809 H 0.65287 0.82265 0.31293 0.0
H810 H 0.72217 0.8216 0.38425 0.0
H811 H 0.69181 0.83694 0.27887 0.0
H812 H 0.95395 0.83233 0.25481 0.0
H813 H 0.97578 0.72833 0.23683 0.0
H814 H 0.99158 0.81914 0.2196 0.0
H815 H 0.93901 0.74205 0.27311 0.0
Eu816 Eu 0.84335 0.3101 0.74992 0.0
Eu817 Eu 0.80825 0.30968 0.81373 0.0
C818 C 0.78466 0.33732 0.75854 0.0
C819 C 0.86577 0.34049 0.68133 0.0
C820 C 0.86036 0.36881 0.69717 0.0
C821 C 0.85755 0.35416 0.63148 0.0
C822 C 0.85317 0.38945 0.68027 0.0
C823 C 0.8648 0.33351 0.64844 0.0
C824 C 0.851 0.38205 0.6472 0.0
C825 C 0.86789 0.31686 0.69878 0.0
O826 O 0.80292 0.26092 0.78697 0.0
O827 O 0.80398 0.26999 0.73773 0.0
C828 C 0.79669 0.25152 0.75636 0.0
O829 O 0.8645 0.27907 0.77333 0.0
O830 O 0.76905 0.29252 0.83643 0.0
O831 O 0.80715 0.32524 0.86436 0.0
O832 O 0.85316 0.29818 0.82348 0.0
C833 C 0.86863 0.28248 0.80406 0.0
O834 O 0.87038 0.34615 0.78995 0.0
O835 O 0.8314 0.3585 0.81712 0.0
O836 O 0.77659 0.31999 0.77819 0.0
O837 O 0.88268 0.3263 0.72676 0.0
O838 O 0.84243 0.29795 0.69869 0.0
O839 O 0.81252 0.343 0.75148 0.0
C840 C 0.78546 0.2843 0.88499 0.0
C841 C 0.80118 0.26093 0.87526 0.0
C842 C 0.78046 0.26995 0.93492 0.0
C843 C 0.80679 0.24238 0.89531 0.0
C844 C 0.77485 0.28856 0.91477 0.0
C845 C 0.79684 0.24692 0.92553 0.0
C846 C 0.78245 0.30531 0.86471 0.0
C847 C 0.85898 0.36589 0.80952 0.0
H848 H 0.86048 0.37447 0.72259 0.0
H849 H 0.85649 0.34803 0.60601 0.0
H850 H 0.84798 0.41058 0.69302 0.0
H851 H 0.86857 0.31165 0.63583 0.0
H852 H 0.80984 0.25757 0.85241 0.0
H853 H 0.77224 0.27376 0.95796 0.0
H854 H 0.81983 0.22519 0.88755 0.0
H855 H 0.76281 0.30661 0.92263 0.0
Eu856 Eu 0.85443 0.83859 0.80632 0.0
Eu857 Eu 0.81362 0.77114 0.76832 0.0
C858 C 0.82995 0.8259 0.73319 0.0
C859 C 0.86745 0.92161 0.83348 0.0
C860 C 0.83622 0.91846 0.83504 0.0
C861 C 0.86909 0.96977 0.81842 0.0
C862 C 0.82137 0.94003 0.82719 0.0
C863 C 0.88398 0.94789 0.82611 0.0
C864 C 0.83741 0.96542 0.81765 0.0
C865 C 0.88089 0.8948 0.83274 0.0
O866 O 0.86188 0.76575 0.76978 0.0
O867 O 0.88503 0.81604 0.77556 0.0
C868 C 0.88456 0.78685 0.76619 0.0
O869 O 0.8618 0.80723 0.83845 0.0
O870 O 0.80854 0.72461 0.7398 0.0
O871 O 0.76924 0.74047 0.75643 0.0
O872 O 0.81877 0.77026 0.81986 0.0
C873 C 0.84118 0.78386 0.84184 0.0
O874 O 0.80863 0.83494 0.82296 0.0
O875 O 0.78128 0.80246 0.77924 0.0
O876 O 0.82649 0.79623 0.73021 0.0
O877 O 0.86835 0.87553 0.8486 0.0
O878 O 0.88551 0.88092 0.80466 0.0
O879 O 0.83126 0.84437 0.76121 0.0
C880 C 0.77442 0.69152 0.76151 0.0
C881 C 0.77985 0.66287 0.7472 0.0
C882 C 0.77369 0.67709 0.81185 0.0
C883 C 0.78384 0.64214 0.76545 0.0
C884 C 0.76968 0.69777 0.79364 0.0
C885 C 0.78262 0.64996 0.79826 0.0
C886 C 0.7805 0.71673 0.74527 0.0
C887 C 0.78279 0.82169 0.80651 0.0
H888 H 0.8228 0.89816 0.8401 0.0
H889 H 0.8822 0.98933 0.8117 0.0
H890 H 0.79699 0.93547 0.82642 0.0
H891 H 0.90804 0.95058 0.82442 0.0
H892 H 0.78374 0.65765 0.72254 0.0
H893 H 0.77245 0.6835 0.83704 0.0
H894 H 0.79091 0.62143 0.75441 0.0
H895 H 0.76551 0.71973 0.8054 0.0
Eu896 Eu 0.59685 0.6066 0.55332 0.0
Eu897 Eu 0.56501 0.536 0.53101 0.0
C898 C 0.60623 0.56787 0.48079 0.0
C899 C 0.60304 0.69001 0.58397 0.0
C900 C 0.61475 0.71939 0.58022 0.0
C901 C 0.55435 0.7034 0.59183 0.0
C902 C 0.59587 0.7401 0.5804 0.0
C903 C 0.57333 0.6828 0.59188 0.0
C904 C 0.56493 0.73141 0.58388 0.0
C905 C 0.6182 0.66523 0.57119 0.0
O906 O 0.61376 0.53394 0.54545 0.0
O907 O 0.6376 0.58414 0.55259 0.0
C908 C 0.6388 0.55512 0.54888 0.0
O909 O 0.57933 0.59679 0.60008 0.0
O910 O 0.54197 0.49557 0.49504 0.0
O911 O 0.54851 0.49336 0.54404 0.0
O912 O 0.54669 0.5513 0.5797 0.0
C913 C 0.55649 0.57527 0.60367 0.0
O914 O 0.54662 0.60762 0.54732 0.0
O915 O 0.52637 0.55853 0.52055 0.0
O916 O 0.59175 0.54259 0.48802 0.0
O917 O 0.62171 0.64636 0.58892 0.0
O918 O 0.60787 0.65104 0.54225 0.0
O919 O 0.60737 0.59462 0.50074 0.0
C920 C 0.54849 0.44893 0.50653 0.0
C921 C 0.57923 0.4481 0.50887 0.0
C922 C 0.53555 0.395 0.50545 0.0
C923 C 0.5881 0.4212 0.51152 0.0
C924 C 0.52673 0.42195 0.50298 0.0
C925 C 0.56625 0.39497 0.51191 0.0
C926 C 0.53922 0.47815 0.51515 0.0
C927 C 0.52307 0.58624 0.53357 0.0
H928 H 0.63754 0.72523 0.57387 0.0
H929 H 0.53073 0.69621 0.59491 0.0
H930 H 0.60477 0.7614 0.57403 0.0
H931 H 0.5639 0.66013 0.59485 0.0
H932 H 0.59629 0.46887 0.51169 0.0
H933 H 0.5183 0.37494 0.50511 0.0
H934 H 0.61191 0.42196 0.51655 0.0
H935 H 0.50289 0.4223 0.50113 0.0
Eu936 Eu 0.13643 0.55573 0.97846 0.0
Eu937 Eu 0.07855 0.55624 0.02101 0.0
C938 C 0.13397 0.52942 0.04178 0.0
C939 C 0.20292 0.52794 0.95607 0.0
C940 C 0.18884 0.49805 0.95725 0.0
C941 C 0.24862 0.52142 0.983 0.0
C942 C 0.20412 0.48052 0.97218 0.0
C943 C 0.23332 0.53897 0.968 0.0
C944 C 0.23376 0.49251 0.98635 0.0
C945 C 0.18426 0.54962 0.95037 0.0
O946 O 0.11862 0.59203 0.04667 0.0
O947 O 0.13909 0.60442 1.00354 0.0
C948 C 0.1357 0.61143 0.03362 0.0
O949 O 0.09958 0.56562 0.94822 0.0
O950 O 0.05915 0.57744 0.0626 0.0
O951 O 0.03144 0.53983 0.02792 0.0
O952 O 0.07364 0.58651 0.988 0.0
C953 C 0.07913 0.58115 0.95842 0.0
O954 O 0.11239 0.50713 0.97191 0.0
O955 O 0.0649 0.51457 0.98078 0.0
O956 O 0.10447 0.52611 0.04034 0.0
O957 O 0.15706 0.5377 0.93627 0.0
O958 O 0.18434 0.5718 0.97486 0.0
O959 O 0.15026 0.54472 0.02419 0.0
C960 C 1.00827 0.57945 0.05148 0.0
C961 C 1.01303 0.6055 0.03891 0.0
C962 C 0.95731 0.5857 0.06002 0.0
C963 C 0.99008 0.6217 0.0371 0.0
C964 C 0.98027 0.56962 0.06188 0.0
C965 C 0.96196 0.61207 0.0478 0.0
C966 C 0.03189 0.56174 0.05265 0.0
C967 C 0.08311 0.49718 0.96862 0.0
H968 H 0.16528 0.48893 0.94869 0.0
H969 H 0.27171 0.531 0.99311 0.0
H970 H 0.19201 0.4584 0.97439 0.0
H971 H 0.24457 0.56201 0.96773 0.0
H972 H 0.03449 0.61332 0.03048 0.0
H973 H 0.93574 0.5772 0.06784 0.0
H974 H 0.9945 0.64195 0.02774 0.0
H975 H 0.97606 0.54934 0.07125 0.0
C976 C 1.01078 0.23908 0.01816 0.0
C977 C 0.02095 0.27009 0.01865 0.0
H978 H 1.01668 0.202 0.03829 0.0
C979 C 0.03925 0.28924 0.04524 0.0
H980 H 0.99629 0.22385 0.99821 0.0
C981 C 0.05109 0.27669 0.06834 0.0
C982 C 0.04451 0.24491 0.06526 0.0
H983 H 0.04713 0.31337 0.04653 0.0
H984 H 0.06769 0.2914 0.08681 0.0
C985 C 0.02237 0.22658 0.04137 0.0
C986 C 0.2143 0.84928 0.224 0.0
C987 C 0.22078 0.84934 0.19289 0.0
H988 H 0.23096 0.8468 0.26985 0.0
C989 C 0.25093 0.85374 0.18603 0.0
H990 H 0.19126 0.84655 0.23013 0.0
C991 C 0.27378 0.85431 0.20905 0.0
C992 C 0.26658 0.85019 0.23899 0.0
H993 H 0.2566 0.85417 0.16234 0.0
H994 H 0.29655 0.85521 0.20247 0.0
C995 C 0.23698 0.84941 0.24679 0.0
C996 C 0.53302 0.92299 0.45779 0.0
C997 C 0.54698 0.90783 0.43291 0.0
H998 H 0.53239 0.96562 0.48987 0.0
C999 C 0.56901 0.92513 0.41892 0.0
H1000 H 0.51583 0.91027 0.46892 0.0
C1001 C 0.57866 0.95645 0.43118 0.0
C1002 C 0.56605 0.97125 0.45719 0.0
H1003 H 0.58016 0.91427 0.39967 0.0
H1004 H 0.59692 0.96894 0.42108 0.0
C1005 C 0.54232 0.95461 0.46968 0.0
C1006 C 0.53746 0.25851 0.67291 0.0
C1007 C 0.56084 0.24661 0.68461 0.0
H1008 H 0.49437 0.26965 0.6798 0.0
C1009 C 0.55554 0.23059 0.70848 0.0
H1010 H 0.54071 0.27073 0.65434 0.0
C1011 C 0.52879 0.22968 0.72288 0.0
C1012 C 0.50694 0.24485 0.71374 0.0
H1013 H 0.57288 0.22059 0.71758 0.0
H1014 H 0.52615 0.219 0.74265 0.0
C1015 C 0.51074 0.25771 0.68742 0.0
C1016 C 0.08138 0.8472 0.58786 0.0
C1017 C 0.06271 0.85445 0.61183 0.0
H1018 H 0.10177 0.85919 0.54803 0.0
C1019 C 0.04874 0.87934 0.6126 0.0
H1020 H 0.09239 0.82807 0.58649 0.0
C1021 C 0.05419 0.8972 0.59049 0.0
C1022 C 0.07377 0.89059 0.56723 0.0
H1023 H 0.03428 0.88553 0.63078 0.0
H1024 H 0.04396 0.9169 0.59237 0.0
C1025 C 0.0869 0.8651 0.56587 0.0
C1026 C 0.57973 0.86802 0.79011 0.0
C1027 C 0.58397 0.84252 0.80114 0.0
H1028 H 0.5501 0.88737 0.76551 0.0
C1029 C 0.5645 0.81419 0.78875 0.0
H1030 H 0.59471 0.89011 0.79918 0.0
C1031 C 0.53941 0.81205 0.76776 0.0
C1032 C 0.53241 0.83859 0.76045 0.0
H1033 H 0.56795 0.79403 0.79634 0.0
H1034 H 0.5244 0.78995 0.75929 0.0
C1035 C 0.55404 0.86623 0.7703 0.0
C1036 C 0.586 0.2045 0.12491 0.0
C1037 C 0.57861 0.20342 0.15549 0.0
H1038 H 0.59283 0.17933 0.07954 0.0
C1039 C 0.57309 0.17515 0.16396 0.0
H1040 H 0.59044 0.22599 0.11775 0.0
C1041 C 0.57398 0.14833 0.1419 0.0
C1042 C 0.58092 0.1494 0.11118 0.0
H1043 H 0.56717 0.1736 0.18732 0.0
H1044 H 0.56911 0.12677 0.14889 0.0
C1045 C 0.58739 0.17779 0.10304 0.0
C1046 C 0.20561 0.30382 0.33374 0.0
C1047 C 0.20692 0.328 0.36015 0.0
H1048 H 0.22818 0.28461 0.29496 0.0
C1049 C 0.23181 0.35271 0.36653 0.0
H1050 H 0.18647 0.28467 0.32802 0.0
C1051 C 0.25542 0.35281 0.34751 0.0
C1052 C 0.25456 0.32828 0.32162 0.0
H1053 H 0.23326 0.37185 0.38649 0.0
H1054 H 0.27476 0.37175 0.35361 0.0
C1055 C 0.22921 0.30404 0.31451 0.0
C1056 C 0.99536 0.06503 0.16317 0.0
C1057 C 1.00916 0.084 0.19267 0.0
H1058 H 0.99871 0.04656 0.11365 0.0
C1059 C 0.0394 0.09957 0.19202 0.0
H1060 H 0.97238 0.05233 0.1617 0.0
C1061 C 0.05458 0.09672 0.16377 0.0
C1062 C 0.04092 0.07735 0.13439 0.0
H1063 H 0.05148 0.11449 0.21355 0.0
H1064 H 0.07745 0.10967 0.16514 0.0
C1065 C 1.01081 0.06154 0.13515 0.0
C1066 C 0.30919 0.68191 0.45727 0.0
C1067 C 0.32008 0.6963 0.48871 0.0
H1068 H 0.2916 0.68706 0.41272 0.0
C1069 C 0.32194 0.72789 0.49917 0.0
H1070 H 0.30727 0.65756 0.44861 0.0
C1071 C 0.31299 0.74475 0.47871 0.0
C1072 C 0.30195 0.73041 0.44729 0.0
H1073 H 0.33023 0.73968 0.52328 0.0
H1074 H 0.31518 0.76913 0.4874 0.0
C1075 C 0.30021 0.69881 0.43676 0.0
C1076 C 0.64907 1.00944 0.62259 0.0
C1077 C 0.68076 1.01455 0.62598 0.0
H1078 H 0.60956 1.01037 0.5943 0.0
C1079 C 0.69664 1.01902 0.60014 0.0
H1080 H 0.63618 1.0054 0.64198 0.0
C1081 C 0.68132 1.02189 0.57269 0.0
C1082 C 0.64994 1.02036 0.57078 0.0
H1083 H 0.72104 0.02264 0.60193 0.0
H1084 H 0.69439 0.02736 0.5539 0.0
C1085 C 0.63378 1.01233 0.59525 0.0
C1086 C 0.32397 0.37905 0.93308 0.0
C1087 C 0.3476 0.37715 0.95425 0.0
H1088 H 0.30429 0.36847 0.88541 0.0
C1089 C 0.36946 0.36091 0.94257 0.0
H1090 H 0.3068 0.39143 0.94139 0.0
C1091 C 0.36841 0.34815 0.91003 0.0
C1092 C 0.34512 0.35087 0.88874 0.0
H1093 H 0.38808 0.35936 0.9583 0.0
H1094 H 0.38608 0.33663 0.90149 0.0
C1095 C 0.32256 0.36585 0.9009 0.0
C1096 C 0.04276 0.06662 0.39262 0.0
C1097 C 0.02076 0.08435 0.3894 0.0
H1098 H 0.07183 0.04999 0.42242 0.0
C1099 C 1.01225 0.09975 0.41837 0.0
H1100 H 0.05047 0.05406 0.37174 0.0
C1101 C 0.02512 0.09739 0.44845 0.0
C1102 C 0.04699 0.0793 0.45129 0.0
H1103 H 0.99555 0.11363 0.41792 0.0
H1104 H 0.01765 0.10971 0.46963 0.0
C1105 C 0.0553 0.06412 0.42232 0.0
C1106 C 0.34936 0.73572 0.65639 0.0
C1107 C 0.34081 0.70514 0.6588 0.0
H1108 H 0.3515 0.78301 0.67748 0.0
C1109 C 0.3268 0.69934 0.68542 0.0
H1110 H 0.36001 0.74111 0.63614 0.0
C1111 C 0.32139 0.72341 0.70887 0.0
C1112 C 0.33 0.754 0.7065 0.0
H1113 H 0.31962 0.67614 0.68799 0.0
H1114 H 0.31092 0.71798 0.72919 0.0
C1115 C 0.34417 0.7598 0.67997 0.0
C1116 C 0.63282 0.10411 0.79693 0.0
C1117 C 0.65371 0.08509 0.79137 0.0
H1118 H 0.60678 0.12631 0.83028 0.0
C1119 C 0.66395 0.07311 0.81593 0.0
H1120 H 0.62478 0.11395 0.77853 0.0
C1121 C 0.65331 0.07982 0.84542 0.0
C1122 C 0.63249 0.09896 0.85109 0.0
H1123 H 0.67996 0.05826 0.81229 0.0
H1124 H 0.66106 0.06959 0.86363 0.0
C1125 C 0.62245 0.11112 0.82655 0.0
C1126 C 0.34537 0.38665 0.17998 0.0
C1127 C 0.34455 0.36748 0.14984 0.0
H1128 H 0.34072 0.39008 0.22913 0.0
C1129 C 0.33751 0.33567 0.14691 0.0
H1130 H 0.35051 0.41126 0.18325 0.0
C1131 C 0.33176 0.32343 0.1734 0.0
C1132 C 0.3327 0.34264 0.20357 0.0
H1133 H 0.33649 0.32016 0.12413 0.0
H1134 H 0.32681 0.29883 0.17022 0.0
C1135 C 0.33951 0.37445 0.20639 0.0
C1136 C 0.22516 0.05765 0.04178 0.0
C1137 C 0.22681 0.02651 0.03431 0.0
H1138 H 0.1973 0.09091 0.05256 0.0
C1139 C 0.19969 1.00497 0.03346 0.0
H1140 H 0.24529 0.07508 0.04278 0.0
C1141 C 0.17207 1.01405 0.03932 0.0
C1142 C 0.17023 0.04513 0.04632 0.0
H1143 H 0.19965 0.98077 0.02793 0.0
H1144 H 0.15195 0.99646 0.03777 0.0
C1145 C 0.19744 0.06676 0.04759 0.0
C1146 C 0.71905 0.62739 0.9994 0.0
C1147 C 0.72238 0.65931 1.00461 0.0
H1148 H 0.69098 0.58467 1.00143 0.0
C1149 C 0.6979 0.67232 1.01443 0.0
H1150 H 0.73742 0.61656 0.99171 0.0
C1151 C 0.67121 0.65397 0.02019 0.0
C1152 C 0.6683 0.62213 0.01611 0.0
H1153 H 0.69968 0.69679 0.01868 0.0
H1154 H 0.65308 0.66491 0.02848 0.0
C1155 C 0.69237 0.60904 1.00501 0.0
C1156 C 0.7918 0.4558 0.27675 0.0
C1157 C 0.76159 0.45658 0.28406 0.0
H1158 H 0.82845 0.43127 0.27017 0.0
C1159 C 0.74628 0.42862 0.29072 0.0
H1160 H 0.80538 0.47589 0.27144 0.0
C1161 C 0.76003 0.40244 0.29033 0.0
C1162 C 0.7901 0.40154 0.28267 0.0
H1163 H 0.72327 0.42689 0.29673 0.0
H1164 H 0.74686 0.38258 0.29634 0.0
C1165 C 0.80537 0.42946 0.27594 0.0
C1166 C 0.93356 0.52782 0.54019 0.0
C1167 C 0.9186 0.54652 0.52603 0.0
H1168 H 0.97582 0.51754 0.55424 0.0
C1169 C 0.93665 0.57058 0.51582 0.0
H1170 H 0.92068 0.50902 0.54832 0.0
C1171 C 0.96843 0.5755 0.51923 0.0
C1172 C 0.98336 0.55641 0.53278 0.0
H1173 H 0.9262 0.5855 0.50474 0.0
H1174 H 0.9813 0.5941 0.51079 0.0
C1175 C 0.96536 0.53265 0.54345 0.0
C1176 C 0.34944 0.14019 0.35068 0.0
C1177 C 0.34508 0.10826 0.34196 0.0
H1178 H 0.33438 0.17963 0.34343 0.0
C1179 C 0.31839 0.09123 0.32346 0.0
H1180 H 0.36979 0.15385 0.36486 0.0
C1181 C 0.29826 0.10606 0.31078 0.0
C1182 C 0.30418 0.13806 0.31714 0.0
H1183 H 0.31447 0.06654 0.31626 0.0
H1184 H 0.27922 0.0926 0.29439 0.0
C1185 C 0.32905 0.15495 0.33849 0.0
C1186 C 0.38475 0.1203 0.51311 0.0
C1187 C 0.38568 0.15185 0.52126 0.0
H1188 H 0.4092 0.08462 0.51099 0.0
C1189 C 0.41357 0.17219 0.53146 0.0
H1190 H 0.36349 0.10413 0.50521 0.0
C1191 C 0.43982 0.16093 0.53529 0.0
C1192 C 0.43856 0.12923 0.52835 0.0
H1193 H 0.41479 0.1966 0.53816 0.0
H1194 H 0.46094 0.17692 0.54437 0.0
C1195 C 0.41091 0.10913 0.51635 0.0
C1196 C 0.74695 0.68728 0.29251 0.0
C1197 C 0.76235 0.66344 0.29476 0.0
H1198 H 0.74836 0.73394 0.29005 0.0
C1199 C 0.79432 0.67201 0.29641 0.0
H1200 H 0.72254 0.68276 0.2911 0.0
C1201 C 0.80959 0.70257 0.2959 0.0
C1202 C 0.79379 0.72619 0.29357 0.0
H1203 H 0.80766 0.65517 0.29816 0.0
H1204 H 0.83401 0.70763 0.29721 0.0
C1205 C 0.76202 0.71737 0.29188 0.0
C1206 C 0.87801 0.45153 0.84018 0.0
C1207 C 0.90557 0.4591 0.82755 0.0
H1208 H 0.84143 0.41578 0.84437 0.0
C1209 C 0.91956 0.43565 0.81324 0.0
H1210 H 0.86675 0.46916 0.85147 0.0
C1211 C 0.90519 0.40521 0.80936 0.0
C1212 C 0.8764 0.3976 0.81948 0.0
H1213 H 0.94099 0.4408 0.80368 0.0
H1214 H 0.91604 0.38773 0.79692 0.0
C1215 C 0.86346 0.42096 0.83606 0.0
C1216 C 0.12283 0.84815 0.02985 0.0
C1217 C 0.10783 0.8397 0.05489 0.0
H1218 H 0.1229 0.87251 0.99314 0.0
C1219 C 0.07912 0.8459 0.0594 0.0
H1220 H 0.14492 0.84336 0.02572 0.0
C1221 C 0.06648 0.86213 0.04071 0.0
C1222 C 0.08235 0.87272 0.01716 0.0
H1223 H 0.06686 0.83927 0.07826 0.0
H1224 H 0.0452 0.86826 0.04635 0.0
C1225 C 0.11023 0.86473 1.0112 0.0
C1226 C 0.94503 0.26388 0.81381 0.0
C1227 C 0.95017 0.27013 0.84686 0.0
H1228 H 0.91477 0.26251 0.77408 0.0
C1229 C 0.92603 0.27402 0.86497 0.0
H1230 H 0.96307 0.26014 0.79915 0.0
C1231 C 0.89829 0.27533 0.85054 0.0
C1232 C 0.89434 0.27272 0.81782 0.0
H1233 H 0.92915 0.27843 0.89044 0.0
H1234 H 0.88068 0.28047 0.86531 0.0
C1235 C 0.9173 0.26514 0.79939 0.0
C1236 C 0.67307 0.17641 0.60746 0.0
C1237 C 0.67181 0.20197 0.59503 0.0
H1238 H 0.66494 0.12765 0.59816 0.0
C1239 C 0.66721 0.19809 0.56217 0.0
H1240 H 0.67676 0.17866 0.63264 0.0
C1241 C 0.66084 0.16884 0.54239 0.0
C1242 C 0.65853 0.14319 0.55534 0.0
H1243 H 0.66645 0.21747 0.55194 0.0
H1244 H 0.65522 0.16624 0.51739 0.0
C1245 C 0.66613 0.1472 0.58776 0.0
C1246 C 0.6395 0.82102 0.42142 0.0
C1247 C 0.61369 0.79841 0.4082 0.0
H1248 H 0.68228 0.84608 0.41344 0.0
C1249 C 0.61286 0.78134 0.37713 0.0
H1250 H 0.64078 0.83454 0.44528 0.0
C1251 C 0.63632 0.78823 0.35889 0.0
C1252 C 0.66126 0.812 0.37148 0.0
H1253 H 0.59339 0.76363 0.36632 0.0
H1254 H 0.63466 0.77539 0.33469 0.0
C1255 C 0.66317 0.82769 0.40319 0.0
C1256 C 0.11442 0.2884 0.49772 0.0
C1257 C 0.09572 0.28585 0.47013 0.0
H1258 H 0.12202 0.27078 0.53823 0.0
C1259 C 0.06816 0.26447 0.46396 0.0
H1260 H 0.13585 0.30464 0.50315 0.0
C1261 C 0.05991 0.24539 0.48444 0.0
C1262 C 0.07921 0.24697 0.51139 0.0
H1263 H 0.0531 0.26217 0.44307 0.0
H1264 H 0.03856 0.22905 0.47885 0.0
C1265 C 0.10635 0.26911 0.51802 0.0
C1266 C 0.61181 0.33106 0.29786 0.0
C1267 C 0.62103 0.34119 0.27103 0.0
H1268 H 0.62584 0.31875 0.34007 0.0
C1269 C 0.6516 0.35351 0.26999 0.0
H1270 H 0.58823 0.32196 0.29958 0.0
C1271 C 0.67297 0.35204 0.2934 0.0
C1272 C 0.6641 0.33811 0.31807 0.0
H1273 H 0.65927 0.36191 0.24985 0.0
H1274 H 0.69654 0.35865 0.2901 0.0
C1275 C 0.63325 0.32938 0.32118 0.0
C1276 C 0.60615 0.93938 0.96953 0.0
C1277 C 0.61835 0.94308 0.94145 0.0
H1278 H 0.58784 0.96028 1.01078 0.0
C1279 C 0.61931 0.97074 0.93223 0.0
H1280 H 0.6051 0.91829 0.97717 0.0
C1281 C 0.60877 0.99452 0.95111 0.0
C1282 C 0.59778 0.99119 0.97982 0.0
H1283 H 0.62837 0.97407 0.91052 0.0
H1284 H 0.61037 1.01587 0.94389 0.0
C1285 C 0.59629 0.96337 0.98873 0.0
C1286 C 0.94973 0.75037 0.74237 0.0
C1287 C 0.96397 0.77024 0.72459 0.0
H1288 H 0.91274 0.73994 0.76959 0.0
C1289 C 0.94917 0.79208 0.71659 0.0
H1290 H 0.96056 0.73311 0.74862 0.0
C1291 C 0.92237 0.79628 0.7291 0.0
C1292 C 0.90965 0.77833 0.74922 0.0
H1293 H 0.95946 0.80762 0.70286 0.0
H1294 H 0.91226 0.81454 0.72415 0.0
C1295 C 0.92251 0.75426 0.75445 0.0
C1296 C 0.14719 0.03947 0.90393 0.0
C1297 C 0.15501 0.06566 0.89126 0.0
H1298 H 0.12635 1.0192 0.94023 0.0
C1299 C 0.14687 0.09238 0.90897 0.0
H1300 H 0.15238 1.01815 0.89175 0.0
C1301 C 0.13225 0.09316 0.93726 0.0
C1302 C 0.12383 0.06703 0.9497 0.0
H1303 H 0.15198 0.11335 0.90091 0.0
H1304 H 0.12714 0.11459 0.94928 0.0
C1305 C 0.13181 0.04008 0.93208 0.0
C1306 C 0.81026 0.40922 0.58445 0.0
C1307 C 0.82178 0.44092 0.59281 0.0
H1308 H 0.81029 0.36594 0.59516 0.0
C1309 C 0.8419 0.45346 0.62022 0.0
H1310 H 0.79463 0.39885 0.56354 0.0
C1311 C 0.85117 0.43446 0.63821 0.0
C1312 C 0.84051 0.4026 0.62906 0.0
H1313 H 0.85131 0.47779 0.62715 0.0
H1314 H 0.86739 0.4446 0.6587 0.0
C1315 C 0.8195 0.3903 0.60236 0.0
C1316 C 0.54964 0.08784 0.38107 0.0
C1317 C 0.51995 0.08978 0.38773 0.0
H1318 H 0.59341 0.08447 0.39876 0.0
C1319 C 0.51353 0.09583 0.41926 0.0
H1320 H 0.55557 0.08379 0.35706 0.0
C1321 C 0.53554 0.09667 0.44328 0.0
C1322 C 0.56413 0.09112 0.43603 0.0
H1323 H 0.49099 0.09769 0.4252 0.0
H1324 H 0.52933 0.09928 0.46715 0.0
C1325 C 0.57143 0.08823 0.40495 0.0
C1326 C 0.84681 0.77454 0.13725 0.0
C1327 C 0.81719 0.76445 0.12239 0.0
H1328 H 0.87502 0.79533 0.18068 0.0
C1329 C 0.79316 0.77093 0.13976 0.0
H1330 H 0.86567 0.76921 0.12457 0.0
C1331 C 0.79846 0.78626 0.17162 0.0
C1332 C 0.82788 0.79458 0.18719 0.0
H1333 H 0.77008 0.7629 0.12901 0.0
H1334 H 0.77924 0.78987 0.1845 0.0
C1335 C 0.85209 0.78918 0.16945 0.0
C1336 C 0.13858 0.06821 0.69371 0.0
C1337 C 0.16191 0.05147 0.69369 0.0
H1338 H 0.10728 0.08614 0.66725 0.0
C1339 C 0.1701 0.03937 0.66337 0.0
H1340 H 0.13131 0.07839 0.716 0.0
C1341 C 0.15562 0.04328 0.63497 0.0
C1342 C 0.13266 0.06045 0.63497 0.0
H1343 H 0.18783 0.0265 0.66145 0.0
H1344 H 0.16294 0.03307 0.61272 0.0
C1345 C 0.1247 0.0729 0.66532 0.0
C1346 C 0.83636 0.44222 0.394 0.0
C1347 C 0.82539 0.43577 0.42182 0.0
H1348 H 0.85209 0.42518 0.34962 0.0
C1349 C 0.82232 0.40565 0.42574 0.0
H1350 H 0.83928 0.46511 0.39018 0.0
C1351 C 0.8297 0.38261 0.40239 0.0
C1352 C 0.84084 0.38913 0.37467 0.0
H1353 H 0.81406 0.39979 0.44689 0.0
H1354 H 0.82648 0.35962 0.406 0.0
C1355 C 0.84411 0.4193 0.37087 0.0
C1356 C 0.44335 0.06427 0.21806 0.0
C1357 C 0.42907 0.04189 0.23277 0.0
H1358 H 0.47346 0.07473 0.18435 0.0
C1359 C 0.4302 1.01113 0.2207 0.0
H1360 H 0.44283 0.08811 0.22705 0.0
C1361 C 0.44817 1.00345 0.19648 0.0
C1362 C 0.46468 0.02635 0.18373 0.0
H1363 H 0.4195 0.99344 0.23179 0.0
H1364 H 0.45045 0.97995 0.18891 0.0
C1365 C 0.46091 0.05656 0.19365 0.0
C1366 C 0.82613 0.73126 0.89802 0.0
C1367 C 0.83474 0.75124 0.92784 0.0
H1368 H 0.82145 0.72607 0.84793 0.0
C1369 C 0.8475 0.78214 0.92917 0.0
H1370 H 0.81604 0.70741 0.89601 0.0
C1371 C 0.85122 0.7927 0.9013 0.0
C1372 C 0.84156 0.77274 0.87155 0.0
H1373 H 0.85441 0.79818 0.95173 0.0
H1374 H 0.86051 0.81668 0.90307 0.0
C1375 C 0.82918 0.74193 0.87041 0.0
C1376 C 0.95776 0.12739 0.04775 0.0
C1377 C 0.93393 0.10355 0.05064 0.0
H1378 H 1.00481 0.14107 0.04094 0.0
C1379 C 0.94001 0.07401 0.04624 0.0
H1380 H 0.95418 0.1505 0.05116 0.0
C1381 C 0.9687 0.06841 0.03927 0.0
C1382 C 0.99285 0.09228 0.03734 0.0
H1383 H 0.92246 0.055 0.04822 0.0
H1384 H 0.97225 0.04535 0.03658 0.0
C1385 C 0.98688 0.12195 0.04181 0.0
C1386 C 0.47092 0.47059 0.06183 0.0
C1387 C 0.44843 0.48632 0.0725 0.0
H1388 H 0.51658 0.47431 0.05004 0.0
C1389 C 0.45623 0.51825 0.08352 0.0
H1390 H 0.46542 0.44602 0.05288 0.0
C1391 C 0.48537 0.53441 0.08206 0.0
C1392 C 0.5073 0.51907 0.06894 0.0
H1393 H 0.43927 0.53094 0.0918 0.0
H1394 H 0.49007 0.55912 0.08944 0.0
C1395 C 0.50008 0.48687 0.05986 0.0
C1396 C 0.37965 0.68532 0.79373 0.0
C1397 C 0.41137 0.68668 0.79374 0.0
H1398 H 0.34178 0.70823 0.79526 0.0
C1399 C 0.42827 0.71684 0.79523 0.0
H1400 H 0.36486 0.66347 0.79259 0.0
C1401 C 0.41463 0.74318 0.79631 0.0
C1402 C 0.38291 0.74185 0.79669 0.0
H1403 H 0.45255 0.72025 0.79523 0.0
H1404 H 0.42936 0.76496 0.79701 0.0
C1405 C 0.36608 0.71173 0.7954 0.0
C1406 C 0.22565 0.60938 0.58554 0.0
C1407 C 0.24216 0.60142 0.55971 0.0
H1408 H 0.18206 0.60809 0.60292 0.0
C1409 C 0.22591 0.58493 0.53076 0.0
H1410 H 0.23737 0.62225 0.60813 0.0
C1411 C 0.19401 0.57774 0.52748 0.0
C1412 C 0.17752 0.58593 0.55333 0.0
H1413 H 0.2378 0.57877 0.51028 0.0
H1414 H 0.18221 0.56587 0.50462 0.0
C1415 C 0.19388 0.60126 0.58256 0.0
C1416 C 0.81156 1.00873 0.76026 0.0
C1417 C 0.78338 1.01256 0.77018 0.0
H1418 H 0.85057 0.9904 0.76715 0.0
C1419 C 0.77452 1.00377 0.79767 0.0
H1420 H 0.81896 1.01546 0.73919 0.0
C1421 C 0.79305 0.99036 0.81435 0.0
C1422 C 0.82052 0.98476 0.80346 0.0
H1423 H 0.75315 1.00708 0.80619 0.0
H1424 H 0.78545 0.98367 0.83536 0.0
C1425 C 0.82984 0.99471 0.77657 0.0
C1426 C 0.78265 0.97318 0.55492 0.0
C1427 C 0.78062 0.94148 0.54574 0.0
H1428 H 0.76946 1.01242 0.54422 0.0
C1429 C 0.76113 0.92449 0.519 0.0
H1430 H 0.79733 0.98687 0.57551 0.0
C1431 C 0.74538 0.93926 0.50081 0.0
C1432 C 0.74893 0.97122 0.50903 0.0
H1433 H 0.75921 0.90005 0.5112 0.0
H1434 H 0.73139 0.92582 0.47966 0.0
C1435 C 0.76703 0.98787 0.53676 0.0
C1436 C 0.4297 0.45648 0.77848 0.0
C1437 C 0.41433 0.48105 0.78122 0.0
H1438 H 0.42873 0.40904 0.77761 0.0
C1439 C 0.38315 0.47322 0.78513 0.0
H1440 H 0.45358 0.46054 0.77557 0.0
C1441 C 0.36846 0.44264 0.786 0.0
C1442 C 0.38416 0.41825 0.78347 0.0
H1443 H 0.36992 0.49071 0.78748 0.0
H1444 H 0.3446 0.43821 0.78897 0.0
C1445 C 0.41524 0.4263 0.77974 0.0
C1446 C 0.24925 0.68446 0.20312 0.0
C1447 C 0.25359 0.66185 0.21904 0.0
H1448 H 0.26027 0.73211 0.20282 0.0
C1449 C 0.27343 0.67016 0.24683 0.0
H1450 H 0.23404 0.67869 0.1817 0.0
C1451 C 0.28763 0.70054 0.25921 0.0
C1452 C 0.2829 0.7232 0.2437 0.0
H1453 H 0.27714 0.65337 0.25981 0.0
H1454 H 0.30223 0.70632 0.28107 0.0
C1455 C 0.26418 0.71492 0.21518 0.0
C1456 C 0.50799 0.74369 0.5258 0.0
C1457 C 0.51862 0.77481 0.52708 0.0
H1458 H 0.5141 0.70541 0.54374 0.0
C1459 C 0.53807 0.79295 0.55336 0.0
H1460 H 0.49262 0.72924 0.5061 0.0
C1461 C 0.55056 0.77925 0.57505 0.0
C1462 C 0.54348 0.74734 0.57087 0.0
H1463 H 0.54635 0.81713 0.55525 0.0
H1464 H 0.56799 0.79318 0.59312 0.0
C1465 C 0.52024 0.73006 0.54762 0.0
C1466 C 0.70789 0.34401 0.72889 0.0
C1467 C 0.71224 0.34527 0.69756 0.0
H1468 H 0.72778 0.34064 0.77309 0.0
C1469 C 0.74175 0.35082 0.6888 0.0
H1470 H 0.68541 0.34035 0.7365 0.0
C1471 C 0.76613 0.35129 0.70999 0.0
C1472 C 0.76115 0.34598 0.74 0.0
H1473 H 0.74579 0.35222 0.6649 0.0
H1474 H 0.7884 0.35311 0.70184 0.0
C1475 C 0.73213 0.34413 0.74988 0.0
C1476 C 0.03697 0.4164 0.94884 0.0
C1477 C 0.05359 0.40178 0.92627 0.0
H1478 H 0.03295 0.45854 0.97961 0.0
C1479 C 0.07805 0.41943 0.91569 0.0
H1480 H 0.01791 0.40335 0.95731 0.0
C1481 C 0.08689 0.4507 0.92881 0.0
C1482 C 0.07108 0.46509 0.95226 0.0
H1483 H 0.09134 0.40887 0.89838 0.0
H1484 H 0.10661 0.46354 0.92111 0.0
C1485 C 0.04546 0.44792 0.9615 0.0
C1486 C 0.04544 0.77622 0.16741 0.0
C1487 C 0.0673 0.76373 0.18111 0.0
H1488 H 1.00227 0.78841 0.17046 0.0
C1489 C 0.06035 0.75018 0.20644 0.0
H1490 H 0.05001 0.78662 0.14769 0.0
C1491 C 0.03325 0.75146 0.21958 0.0
C1492 C 1.01241 0.76618 0.20758 0.0
H1493 H 0.07658 0.74009 0.21735 0.0
H1494 H 0.02961 0.74268 0.24046 0.0
C1495 C 0.01821 0.77747 0.18058 0.0
C1496 C 0.54873 0.37818 0.11442 0.0
C1497 C 0.56266 0.35323 0.11334 0.0
H1498 H 0.54384 0.41597 0.09461 0.0
C1499 C 0.58129 0.34619 0.08926 0.0
H1500 H 0.53432 0.38424 0.13269 0.0
C1501 C 0.58671 0.36429 0.06743 0.0
C1502 C 0.57354 0.3898 0.06906 0.0
H1503 H 0.59229 0.32703 0.08766 0.0
H1504 H 0.60149 0.35849 0.04945 0.0
C1505 C 0.55409 0.39626 0.09249 0.0
C1506 C 0.07924 0.36892 0.29173 0.0
C1507 C 0.0837 0.34351 0.3028 0.0
H1508 H 0.04947 0.38796 0.26694 0.0
C1509 C 0.06439 0.31507 0.29044 0.0
H1510 H 0.09407 0.39109 0.30081 0.0
C1511 C 0.03931 0.31271 0.26935 0.0
C1512 C 0.03215 0.33912 0.26187 0.0
H1513 H 0.068 0.29498 0.29808 0.0
H1514 H 0.02446 0.29051 0.26086 0.0
C1515 C 0.05356 0.36689 0.27181 0.0
C1516 C 0.07531 0.67816 0.66295 0.0
C1517 C 0.08048 0.70636 0.65435 0.0
H1518 H 0.07086 0.62975 0.64785 0.0
C1519 C 0.08692 0.70728 0.62345 0.0
H1520 H 0.07012 0.67672 0.68655 0.0
C1521 C 0.08761 0.68044 0.60139 0.0
C1522 C 0.08135 0.65213 0.60968 0.0
H1523 H 0.09106 0.72872 0.61618 0.0
H1524 H 0.09227 0.68182 0.57764 0.0
C1525 C 0.07549 0.65125 0.64073 0.0
C1526 C 0.70555 0.80115 0.83318 0.0
C1527 C 0.70685 0.82548 0.85945 0.0
H1528 H 0.72846 0.78129 0.79501 0.0
C1529 C 0.73215 0.84974 0.86625 0.0
H1530 H 0.68611 0.78233 0.82716 0.0
C1531 C 0.75614 0.84927 0.84777 0.0
C1532 C 0.75524 0.82462 0.822 0.0
H1533 H 0.73362 0.86897 0.88612 0.0
H1534 H 0.77575 0.86788 0.85419 0.0
C1535 C 0.72953 0.8008 0.81448 0.0
C1536 C 0.53939 0.6008 0.69247 0.0
C1537 C 0.50923 0.58517 0.69332 0.0
H1538 H 0.57721 0.61087 0.6653 0.0
C1539 C 0.49526 0.56611 0.66394 0.0
H1540 H 0.55157 0.61579 0.71392 0.0
C1541 C 0.5105 0.56259 0.63581 0.0
C1542 C 0.54055 0.57845 0.63485 0.0
H1543 H 0.47232 0.55337 0.66265 0.0
H1544 H 0.4983 0.54754 0.61441 0.0
C1545 C 0.55438 0.5979 0.66411 0.0
C1546 C 0.82329 0.22618 1.00004 0.0
C1547 C 0.82191 0.19467 0.98963 0.0
H1548 H 0.81663 0.26731 0.98797 0.0
C1549 C 0.81209 0.18032 0.95794 0.0
H1550 H 0.83077 0.23794 0.02434 0.0
C1551 C 0.80368 0.19718 0.93712 0.0
C1552 C 0.8049 0.22869 0.94763 0.0
H1553 H 0.8106 0.15603 0.9493 0.0
H1554 H 0.79588 0.18549 0.91288 0.0
C1555 C 0.81488 0.24299 0.97929 0.0
C1556 C 0.14994 0.50991 0.11936 0.0
C1557 C 0.18167 0.51726 0.12318 0.0
H1558 H 0.10978 0.5076 0.09032 0.0
C1559 C 0.19737 0.52261 0.09748 0.0
H1560 H 0.13724 0.50517 0.13866 0.0
C1561 C 0.18159 0.52409 0.06969 0.0
C1562 C 0.14991 0.52016 0.06726 0.0
H1563 H 0.22183 0.52798 0.09961 0.0
H1564 H 0.19435 0.53027 0.05097 0.0
C1565 C 0.13418 0.51129 0.09163 0.0
C1566 C 0.82359 0.87113 0.43672 0.0
C1567 C 0.84948 0.87202 0.45629 0.0
H1568 H 0.80118 0.85899 0.39022 0.0
C1569 C 0.87267 0.85877 0.44296 0.0
H1570 H 0.80545 0.88135 0.44633 0.0
C1571 C 0.87047 0.84623 0.41025 0.0
C1572 C 0.84483 0.84629 0.3905 0.0
H1573 H 0.89306 0.85956 0.45748 0.0
H1574 H 0.88911 0.83718 0.40035 0.0
C1575 C 0.82117 0.85824 0.40443 0.0
C1576 C 0.54341 0.56724 0.89293 0.0
C1577 C 0.52137 0.58498 0.88988 0.0
H1578 H 0.57238 0.5503 0.92253 0.0
C1579 C 0.51267 0.6 0.9189 0.0
H1580 H 0.55125 0.55494 0.87197 0.0
C1581 C 0.52542 0.59732 0.94889 0.0
C1582 C 0.54733 0.57924 0.95155 0.0
H1583 H 0.49593 0.61386 0.91857 0.0
H1584 H 0.51782 0.60939 0.97012 0.0
C1585 C 0.55581 0.56439 0.92254 0.0
C1586 C 0.82704 0.1986 0.18639 0.0
C1587 C 0.84112 0.2043 0.15978 0.0
H1588 H 0.8108 0.21734 0.22992 0.0
C1589 C 0.84936 0.23482 0.15708 0.0
H1590 H 0.82008 0.17544 0.18917 0.0
C1591 C 0.84382 0.25894 0.18038 0.0
C1592 C 0.82961 0.25323 0.20692 0.0
H1593 H 0.86004 0.24014 0.13683 0.0
H1594 H 0.85094 0.2821 0.17769 0.0
C1595 C 0.82129 0.22269 0.20957 0.0
C1596 C 0.16223 0.5732 0.31276 0.0
C1597 C 0.15207 0.5857 0.28856 0.0
H1598 H 0.15903 0.56855 0.36009 0.0
C1599 C 0.13073 0.60418 0.29433 0.0
H1600 H 0.17854 0.55871 0.30894 0.0
C1601 C 0.11998 0.61031 0.32385 0.0
C1602 C 0.13009 0.5978 0.34809 0.0
H1603 H 0.12269 0.61436 0.27622 0.0
H1604 H 0.10406 0.62522 0.32778 0.0
C1605 C 0.15122 0.57904 0.34215 0.0
C1606 C 0.84763 0.88308 0.68148 0.0
C1607 C 0.84703 0.864 0.65134 0.0
H1608 H 0.84241 0.88631 0.73051 0.0
C1609 C 0.83985 0.83217 0.64825 0.0
H1610 H 0.85288 0.9077 0.68486 0.0
C1611 C 0.8337 0.81982 0.67458 0.0
C1612 C 0.83438 0.83894 0.70475 0.0
H1613 H 0.83899 0.81674 0.62545 0.0
H1614 H 0.82863 0.79521 0.67127 0.0
C1615 C 0.84138 0.87076 0.70774 0.0
C1616 C 0.7239 0.55849 0.54037 0.0
C1617 C 0.72568 0.52739 0.53293 0.0
H1618 H 0.69593 0.5916 0.55145 0.0
C1619 C 0.6987 0.50576 0.53241 0.0
H1620 H 0.74392 0.57598 0.54113 0.0
C1621 C 0.67108 0.51472 0.53859 0.0
C1622 C 0.66911 0.54576 0.54558 0.0
H1623 H 0.69877 0.48159 0.52692 0.0
H1624 H 0.65106 0.49708 0.53729 0.0
C1625 C 0.69618 0.56748 0.5465 0.0
C1626 C 0.1968 0.17463 0.51553 0.0
C1627 C 0.2211 0.16193 0.50453 0.0
H1628 H 0.15242 0.16659 0.53057 0.0
C1629 C 0.21796 0.12997 0.49851 0.0
H1630 H 0.19845 0.19911 0.52042 0.0
C1631 C 0.19163 0.11127 0.50435 0.0
C1632 C 0.16772 0.12401 0.51646 0.0
H1633 H 0.2362 0.11937 0.48991 0.0
H1634 H 0.19037 0.08687 0.50004 0.0
C1635 C 0.17044 0.15591 0.52147 0.0
C1636 C 0.24723 0.92941 0.79054 0.0
C1637 C 0.26259 0.95728 0.78375 0.0
H1638 H 0.24775 0.88342 0.79633 0.0
C1639 C 0.29277 0.95642 0.7764 0.0
H1640 H 0.22424 0.92777 0.7966 0.0
C1641 C 0.30627 0.93008 0.77566 0.0
C1642 C 0.29096 0.90224 0.78251 0.0
H1643 H 0.30636 0.97646 0.77099 0.0
H1644 H 0.32933 0.93181 0.76984 0.0
C1645 C 0.26092 0.90322 0.79022 0.0
C1646 C 0.43468 0.02552 0.04008 0.0
C1647 C 0.41976 0.04485 0.02687 0.0
H1648 H 0.47689 1.01461 0.05318 0.0
C1649 C 0.43784 0.06934 0.01736 0.0
H1650 H 0.42176 1.00636 0.04763 0.0
C1651 C 0.46961 0.07411 0.02058 0.0
C1652 C 0.4845 0.05445 0.03322 0.0
H1653 H 0.42742 0.08475 1.00702 0.0
H1654 H 0.48251 0.09311 1.01274 0.0
C1655 C 0.46646 0.0302 0.04313 0.0
C1656 C 0.81208 0.58708 0.82429 0.0
C1657 C 0.83851 0.60422 0.84321 0.0
H1658 H 0.77318 0.58838 0.7948 0.0
C1659 C 0.84226 0.63604 0.85268 0.0
H1660 H 0.80858 0.56245 0.81659 0.0
C1661 C 0.82187 0.65071 0.84042 0.0
C1662 C 0.79749 0.63386 0.8184 0.0
H1663 H 0.86237 0.64979 0.86725 0.0
H1664 H 0.82708 0.67537 0.84562 0.0
C1665 C 0.79187 0.60185 0.81166 0.0
C1666 C 0.89422 0.6462 0.06925 0.0
C1667 C 0.88734 0.65706 0.0426 0.0
H1668 H 0.9234 0.62448 0.09215 0.0
C1669 C 0.90665 0.65533 0.01851 0.0
H1670 H 0.88008 0.64768 0.08849 0.0
C1671 C 0.93145 0.64141 0.02039 0.0
C1672 C 0.93743 0.62927 0.04652 0.0
H1673 H 0.90185 0.66346 0.99768 0.0
H1674 H 0.94519 0.63911 1.00086 0.0
C1675 C 0.91898 0.63268 0.07127 0.0
C1676 C 0.25135 0.18776 0.7915 0.0
C1677 C 0.26614 0.16353 0.7938 0.0
H1678 H 0.25373 0.23447 0.78877 0.0
C1679 C 0.29815 0.17139 0.79519 0.0
H1680 H 0.22696 0.1838 0.79027 0.0
C1681 C 0.31403 0.20168 0.79442 0.0
C1682 C 0.29881 0.2257 0.79205 0.0
H1683 H 0.31106 0.1542 0.79697 0.0
H1684 H 0.33843 0.20621 0.79558 0.0
C1685 C 0.26699 0.21756 0.79059 0.0
C1686 C 0.38029 0.95384 0.34374 0.0
C1687 C 0.40855 0.96076 0.33227 0.0
H1688 H 0.34272 0.91873 0.34707 0.0
C1689 C 0.42278 0.93692 0.31966 0.0
H1690 H 0.36884 0.97181 0.35371 0.0
C1691 C 0.40795 0.90665 0.31607 0.0
C1692 C 0.37848 0.89964 0.32473 0.0
H1693 H 0.44475 0.9416 0.31107 0.0
H1694 H 0.419 0.88882 0.3048 0.0
C1695 C 0.36529 0.92345 0.33988 0.0
C1696 C 0.57056 0.34446 0.56843 0.0
C1697 C 0.59806 0.33567 0.56281 0.0
H1698 H 0.53879 0.36974 0.55634 0.0
C1699 C 0.613 0.34288 0.53723 0.0
H1700 H 0.55842 0.33896 0.5878 0.0
C1701 C 0.60166 0.36053 0.51897 0.0
C1702 C 0.57503 0.37087 0.52583 0.0
H1703 H 0.63419 0.33619 0.53227 0.0
H1704 H 0.61431 0.36715 0.50037 0.0
C1705 C 0.55911 0.36178 0.55008 0.0
C1706 C 0.44304 0.76452 0.32205 0.0
C1707 C 0.44767 0.7724 0.35517 0.0
H1708 H 0.41363 0.7617 0.28118 0.0
C1709 C 0.42323 0.7772 0.37251 0.0
H1710 H 0.4613 0.75996 0.308 0.0
C1711 C 0.39582 0.77809 0.35707 0.0
C1712 C 0.39256 0.77423 0.32413 0.0
H1713 H 0.42596 0.78283 0.39804 0.0
H1714 H 0.37804 0.78414 0.37118 0.0
C1715 C 0.41567 0.76543 0.30662 0.0
C1716 C 0.16475 0.67535 0.10511 0.0
C1717 C 0.16844 0.70091 0.0918 0.0
H1718 H 0.15104 0.62676 0.09687 0.0
C1719 C 0.16544 0.69646 0.05882 0.0
H1720 H 0.16693 0.67804 0.13043 0.0
C1721 C 0.1566 0.66703 0.03959 0.0
C1722 C 0.15014 0.64174 0.05313 0.0
H1723 H 0.16834 0.71578 0.04795 0.0
H1724 H 0.15296 0.66427 1.01433 0.0
C1725 C 0.15536 0.64601 0.08592 0.0
C1726 C 0.1156 0.27272 0.86695 0.0
C1727 C 0.11624 0.29026 0.89778 0.0
H1728 H 0.13743 0.26631 0.82455 0.0
C1729 C 0.14169 0.31347 0.91057 0.0
H1730 H 0.09638 0.25454 0.8565 0.0
C1731 C 0.1651 0.32032 0.89213 0.0
C1732 C 0.16345 0.30406 0.86063 0.0
H1733 H 0.14282 0.32741 0.93422 0.0
H1734 H 0.18379 0.33927 0.90207 0.0
C1735 C 0.13892 0.27964 0.84852 0.0
C1736 C 0.56801 0.76369 0.96296 0.0
C1737 C 0.59544 0.78527 0.96905 0.0
H1738 H 0.53871 0.72821 0.97807 0.0
C1739 C 0.61416 0.78817 0.99673 0.0
H1740 H 0.55294 0.76112 0.94201 0.0
C1741 C 0.60626 0.76901 0.01718 0.0
C1742 C 0.57929 0.74665 1.01062 0.0
H1743 H 0.63548 0.80458 1.00211 0.0
H1744 H 0.62197 0.77094 0.03745 0.0
C1745 C 0.55994 0.74473 0.9836 0.0
C1746 C 0.15249 0.85568 0.76862 0.0
C1747 C 0.12184 0.84396 0.76996 0.0
H1748 H 0.19742 0.85987 0.78827 0.0
C1749 C 0.11262 0.83409 0.79693 0.0
H1750 H 0.16019 0.86385 0.74835 0.0
C1751 C 0.13405 0.832 0.82004 0.0
C1752 C 0.16489 0.84009 0.81661 0.0
H1753 H 0.08899 0.82545 0.79889 0.0
H1754 H 0.12658 0.82154 0.83903 0.0
C1755 C 0.17386 0.8538 0.79182 0.0
C1756 C 0.11804 0.4714 0.43293 0.0
C1757 C 0.11769 0.44409 0.44269 0.0
H1758 H 0.10843 0.51625 0.44385 0.0
C1759 C 0.10587 0.44072 0.47103 0.0
H1760 H 0.12679 0.47446 0.411 0.0
C1761 C 0.09579 0.46473 0.48995 0.0
C1762 C 0.09668 0.49222 0.48047 0.0
H1763 H 0.10529 0.4199 0.47907 0.0
H1764 H 0.08765 0.46194 0.51221 0.0
C1765 C 0.10729 0.49516 0.45151 0.0
C1766 C 0.44763 0.25168 0.24338 0.0
C1767 C 0.46267 0.27102 0.22553 0.0
H1768 H 0.41021 0.24261 0.27042 0.0
C1769 C 0.44893 0.29354 0.21745 0.0
H1770 H 0.45765 0.23393 0.2497 0.0
C1771 C 0.42236 0.29882 0.22985 0.0
C1772 C 0.40881 0.28128 0.24995 0.0
H1773 H 0.45986 0.30871 0.20368 0.0
H1774 H 0.41306 0.31749 0.22473 0.0
C1775 C 0.42064 0.25664 0.25533 0.0
C1776 C 0.64489 0.59136 0.40864 0.0
C1777 C 0.65323 0.56464 0.39123 0.0
H1778 H 0.62502 0.6137 0.44875 0.0
C1779 C 0.64567 0.5386 0.40418 0.0
H1780 H 0.6498 0.6122 0.40034 0.0
C1781 C 0.6303 0.53935 0.43233 0.0
C1782 C 0.62212 0.56631 0.44965 0.0
H1783 H 0.65103 0.51729 0.3922 0.0
H1784 H 0.62504 0.51859 0.44073 0.0
C1785 C 0.6303 0.59229 0.43694 0.0
C1786 C 0.31275 0.90919 0.08785 0.0
C1787 C 0.32428 0.94089 0.09538 0.0
H1788 H 0.31317 0.86639 0.09957 0.0
C1789 C 0.34495 0.95392 0.1223 0.0
H1790 H 0.29671 0.89844 0.06734 0.0
C1791 C 0.35472 0.93542 0.1406 0.0
C1792 C 0.34399 0.90354 0.13231 0.0
H1793 H 0.35441 0.97826 0.12859 0.0
H1794 H 0.37136 0.94596 0.16065 0.0
C1795 C 0.32246 0.89075 0.10611 0.0
C1796 C 1.00784 0.59301 0.91915 0.0
C1797 C 1.01462 0.5889 0.88775 0.0
H1798 H 0.02338 0.59417 0.96655 0.0
C1799 C 0.04457 0.58835 0.88113 0.0
H1800 H 0.98508 0.59375 0.92505 0.0
C1801 C 0.06637 0.58814 0.90473 0.0
C1802 C 0.05879 0.589 0.93549 0.0
H1803 H 0.05074 0.58584 0.85724 0.0
H1804 H 0.08864 0.58549 0.89847 0.0
C1805 C 0.02984 0.59319 0.94291 0.0
C1806 C 0.31748 0.28233 0.63301 0.0
C1807 C 0.32502 0.25362 0.62335 0.0
H1808 H 0.31524 0.31947 0.67207 0.0
C1809 C 0.33841 0.24144 0.64607 0.0
H1810 H 0.3069 0.29215 0.61605 0.0
C1811 C 0.34365 0.25712 0.67772 0.0
C1812 C 0.33498 0.2852 0.68788 0.0
H1813 H 0.34451 0.21938 0.63937 0.0
H1814 H 0.35363 0.24659 0.69443 0.0
C1815 C 0.32208 0.29783 0.66509 0.0
C1816 C 0.66942 0.53861 0.16358 0.0
C1817 C 0.66098 0.55049 0.19384 0.0
H1818 H 0.66255 0.53257 0.11295 0.0
C1819 C 0.63758 0.56713 0.19382 0.0
H1820 H 0.68722 0.52583 0.16172 0.0
C1821 C 0.62387 0.57197 0.16544 0.0
C1822 C 0.63207 0.55972 0.13514 0.0
H1823 H 0.63014 0.57714 0.21608 0.0
H1824 H 0.60639 0.58513 0.16731 0.0
C1825 C 0.65508 0.54263 0.13517 0.0
C1826 C 0.33715 0.94199 0.89534 0.0
C1827 C 0.32615 0.93518 0.92301 0.0
H1828 H 0.3528 0.92544 0.85078 0.0
C1829 C 0.32296 0.90491 0.92648 0.0
H1830 H 0.34017 0.96502 0.89188 0.0
C1831 C 0.33023 0.88207 0.90281 0.0
C1832 C 0.34139 0.88895 0.87522 0.0
H1833 H 0.31468 0.89877 0.94749 0.0
H1834 H 0.32691 0.85896 0.90606 0.0
C1835 C 0.3448 0.91928 0.87189 0.0
C1836 C 0.92736 0.51456 0.71915 0.0
C1837 C 0.9264 0.54513 0.73249 0.0
H1838 H 0.94808 0.4843 0.68685 0.0
C1839 C 0.94171 0.56836 0.71944 0.0
H1840 H 0.91586 0.4962 0.7289 0.0
C1841 C 0.96003 0.56154 0.69549 0.0
C1842 C 0.96352 0.53139 0.68437 0.0
H1843 H 0.94134 0.59207 0.7294 0.0
H1844 H 0.97329 0.58024 0.68748 0.0
C1845 C 0.94606 0.50776 0.6954 0.0
C1846 C 0.32702 0.23537 0.39699 0.0
C1847 C 0.33294 0.2555 0.42697 0.0
H1848 H 0.325 0.23022 0.34692 0.0
C1849 C 0.34368 0.28687 0.42869 0.0
H1850 H 0.31873 0.21111 0.39459 0.0
C1851 C 0.34784 0.29773 0.40104 0.0
C1852 C 0.34074 0.27753 0.37111 0.0
H1853 H 0.34856 0.30303 0.45135 0.0
H1854 H 0.35536 0.32203 0.40304 0.0
C1855 C 0.33059 0.24627 0.36958 0.0
C1856 C 0.45667 0.62774 0.54678 0.0
C1857 C 0.43259 0.60394 0.54917 0.0
H1858 H 0.50391 0.64126 0.54069 0.0
C1859 C 0.43845 0.57428 0.54454 0.0
H1860 H 0.45329 0.65093 0.55039 0.0
C1861 C 0.46717 0.56855 0.53787 0.0
C1862 C 0.49157 0.5924 0.53649 0.0
H1863 H 0.4207 0.55529 0.54616 0.0
H1864 H 0.47055 0.54541 0.53501 0.0
C1865 C 0.4858 0.62216 0.54114 0.0
C1866 C 0.97313 0.96883 0.5624 0.0
C1867 C 0.95032 0.98391 0.57342 0.0
H1868 H 0.01866 0.97368 0.55006 0.0
C1869 C 0.95746 1.01586 0.58448 0.0
H1870 H 0.96812 0.94427 0.55339 0.0
C1871 C 0.98622 0.03266 0.5827 0.0
C1872 C 1.00843 1.01796 0.56922 0.0
H1873 H 0.94021 0.02805 0.59299 0.0
H1874 H 0.99039 0.05734 0.59012 0.0
C1875 C 1.00193 0.98575 0.56013 0.0
C1876 C 0.92784 0.21606 0.29464 0.0
C1877 C 0.91092 0.18591 0.29319 0.0
H1878 H 0.92899 0.26422 0.29651 0.0
C1879 C 0.87921 0.18464 0.29337 0.0
H1880 H 0.95211 0.21942 0.2945 0.0
C1881 C 0.8657 0.2111 0.29518 0.0
C1882 C 0.88254 0.24121 0.29643 0.0
H1883 H 0.8644 0.16281 0.29227 0.0
H1884 H 0.84141 0.20766 0.29518 0.0
C1885 C 0.91424 0.24246 0.29585 0.0
C1886 C 0.72707 0.08346 0.03187 0.0
C1887 C 0.74326 0.09978 0.06091 0.0
H1888 H 0.68343 0.0645 1.0056 0.0
C1889 C 0.72669 0.10748 0.08675 0.0
H1890 H 0.73902 0.07752 1.01139 0.0
C1891 C 0.69492 0.09929 0.0837 0.0
C1892 C 0.67863 0.08416 0.05438 0.0
H1893 H 0.73836 0.12024 0.10941 0.0
H1894 H 0.68305 0.10594 0.10407 0.0
C1895 C 0.69518 0.07621 0.02853 0.0
C1896 C 0.3116 0.51254 0.25789 0.0
C1897 C 0.28353 0.51664 0.26793 0.0
H1898 H 0.35053 0.49412 0.26486 0.0
C1899 C 0.27483 0.50833 0.29568 0.0
H1900 H 0.31887 0.5189 0.23661 0.0
C1901 C 0.2934 0.49512 0.31254 0.0
C1902 C 0.32072 0.4892 0.30154 0.0
H1903 H 0.25355 0.51188 0.30429 0.0
H1904 H 0.28592 0.4888 0.33376 0.0
C1905 C 0.32991 0.49868 0.27436 0.0
C1906 C 0.2798 0.47688 0.05361 0.0
C1907 C 0.27873 0.44542 0.04346 0.0
H1908 H 0.26631 0.51627 0.04367 0.0
C1909 C 0.26094 0.42899 0.01539 0.0
H1910 H 0.29323 0.49012 0.07519 0.0
C1911 C 0.24593 0.44412 0.99698 0.0
C1912 C 0.24838 0.47592 1.00635 0.0
H1913 H 0.25988 0.40478 1.00677 0.0
H1914 H 0.23336 0.43112 0.97485 0.0
C1915 C 0.26477 0.49194 0.0353 0.0
C1916 C 0.92686 0.95438 0.27433 0.0
C1917 C 0.9125 0.97977 0.27996 0.0
H1918 H 0.92493 0.90639 0.27127 0.0
C1919 C 0.88204 0.97279 0.28682 0.0
H1920 H 0.95014 0.95772 0.26905 0.0
C1921 C 0.86713 0.94232 0.28791 0.0
C1922 C 0.88185 0.91711 0.28252 0.0
H1923 H 0.86961 0.99091 0.29151 0.0
H1924 H 0.84391 0.93862 0.29336 0.0
C1925 C 0.91217 0.92427 0.27567 0.0
C1926 C 0.74885 0.17986 0.7029 0.0
C1927 C 0.75374 0.15764 0.71912 0.0
H1928 H 0.75916 0.22732 0.70186 0.0
C1929 C 0.77394 0.16646 0.74667 0.0
H1930 H 0.73335 0.1737 0.68167 0.0
C1931 C 0.78794 0.19699 0.75855 0.0
C1932 C 0.78261 0.21927 0.74276 0.0
H1933 H 0.77807 0.14997 0.75987 0.0
H1934 H 0.80284 0.20319 0.78024 0.0
C1935 C 0.76353 0.21045 0.71445 0.0
loop_
_geom_bond_atom_site_label_1
_geom_bond_atom_site_label_2
_geom_bond_distance
_geom_bond_site_symmetry_2
_ccdc_geom_bond_type
C0 O1 1.306 . S
C0 O3 1.160 . S
O1 C0 1.306 . S
O1 Cd2 2.228 . S
Cd2 O1 2.228 . S
Cd2 O6 2.273 . S
Cd2 O10 2.277 . S
O3 C0 1.160 . S
O3 Cd4 2.203 . S
Cd4 O3 2.203 . S
Cd4 O6 2.411 . S
Cd4 O7 2.333 . S
Cd4 O8 2.352 . S
Cd4 O12 2.277 . S
Cd4 O13 2.356 . S
C5 O10 1.209 . S
C5 O12 1.226 . S
O6 Cd2 2.273 . S
O6 Cd4 2.411 . S
O6 C9 1.320 . S
O7 Cd4 2.333 . S
O7 C9 1.214 . S
O8 Cd4 2.352 . S
O8 C11 1.258 . S
C9 O6 1.320 . S
C9 O7 1.214 . S
O10 Cd2 2.277 . S
O10 C5 1.209 . S
C11 O8 1.258 . S
C11 O13 1.282 . S
O12 Cd4 2.277 . S
O12 C5 1.226 . S
O13 Cd4 2.356 . S
O13 C11 1.282 . S
C14 O15 1.306 . S
C14 O17 1.160 . S
O15 C14 1.306 . S
O15 Cd16 2.228 1_655 S
Cd16 O15 2.228 1_455 S
Cd16 O20 2.273 . S
Cd16 O24 2.277 1_455 S
O17 C14 1.160 . S
O17 Cd18 2.203 1_655 S
Cd18 O17 2.203 1_455 S
Cd18 O20 2.411 . S
Cd18 O21 2.333 . S
Cd18 O22 2.352 . S
Cd18 O26 2.277 1_455 S
Cd18 O27 2.356 . S
C19 O24 1.209 . S
C19 O26 1.226 . S
O20 Cd16 2.273 . S
O20 Cd18 2.411 . S
O20 C23 1.320 . S
O21 Cd18 2.333 . S
O21 C23 1.214 . S
O22 Cd18 2.352 . S
O22 C25 1.258 . S
C23 O20 1.320 . S
C23 O21 1.214 . S
O24 Cd16 2.277 1_655 S
O24 C19 1.209 . S
C25 O22 1.258 . S
C25 O27 1.282 . S
O26 Cd18 2.277 1_655 S
O26 C19 1.226 . S
O27 Cd18 2.356 . S
O27 C25 1.282 . S
C28 O29 1.306 . S
C28 O31 1.160 . S
O29 C28 1.306 . S
O29 Cd30 2.228 . S
Cd30 O29 2.228 . S
Cd30 O34 2.273 . S
Cd30 O38 2.277 . S
O31 C28 1.160 . S
O31 Cd32 2.203 . S
Cd32 O31 2.203 . S
Cd32 O34 2.411 . S
Cd32 O35 2.333 . S
Cd32 O36 2.352 . S
Cd32 O40 2.277 . S
Cd32 O41 2.356 . S
C33 O38 1.209 . S
C33 O40 1.226 . S
O34 Cd30 2.273 . S
O34 Cd32 2.411 . S
O34 C37 1.320 . S
O35 Cd32 2.333 . S
O35 C37 1.214 . S
O36 Cd32 2.352 . S
O36 C39 1.258 . S
C37 O34 1.320 . S
C37 O35 1.214 . S
O38 Cd30 2.277 . S
O38 C33 1.209 . S
C39 O36 1.258 . S
C39 O41 1.282 . S
O40 Cd32 2.277 . S
O40 C33 1.226 . S
O41 Cd32 2.356 . S
O41 C39 1.282 . S
C42 O43 1.306 . S
C42 O45 1.160 . S
O43 C42 1.306 . S
O43 Cd44 2.228 . S
Cd44 O43 2.228 . S
Cd44 O48 2.273 . S
Cd44 O52 2.277 . S
O45 C42 1.160 . S
O45 Cd46 2.203 . S
Cd46 O45 2.203 . S
Cd46 O48 2.411 . S
Cd46 O49 2.333 . S
Cd46 O50 2.352 . S
Cd46 O54 2.277 . S
Cd46 O55 2.356 . S
C47 O52 1.209 . S
C47 O54 1.226 . S
O48 Cd44 2.273 . S
O48 Cd46 2.411 . S
O48 C51 1.320 . S
O49 Cd46 2.333 . S
O49 C51 1.214 . S
O50 Cd46 2.352 . S
O50 C53 1.258 . S
C51 O48 1.320 . S
C51 O49 1.214 . S
O52 Cd44 2.277 . S
O52 C47 1.209 . S
C53 O50 1.258 . S
C53 O55 1.282 . S
O54 Cd46 2.277 . S
O54 C47 1.226 . S
O55 Cd46 2.356 . S
O55 C53 1.282 . S
C56 O57 1.306 . S
C56 O59 1.160 . S
O57 C56 1.306 . S
O57 Cd58 2.228 . S
Cd58 O57 2.228 . S
Cd58 O62 2.273 . S
Cd58 O66 2.277 . S
O59 C56 1.160 . S
O59 Cd60 2.203 . S
Cd60 O59 2.203 . S
Cd60 O62 2.411 . S
Cd60 O63 2.333 . S
Cd60 O64 2.352 . S
Cd60 O68 2.277 . S
Cd60 O69 2.356 . S
C61 O66 1.209 . S
C61 O68 1.226 . S
O62 Cd58 2.273 . S
O62 Cd60 2.411 . S
O62 C65 1.320 . S
O63 Cd60 2.333 . S
O63 C65 1.214 . S
O64 Cd60 2.352 . S
O64 C67 1.258 . S
C65 O62 1.320 . S
C65 O63 1.214 . S
O66 Cd58 2.277 . S
O66 C61 1.209 . S
C67 O64 1.258 . S
C67 O69 1.282 . S
O68 Cd60 2.277 . S
O68 C61 1.226 . S
O69 Cd60 2.356 . S
O69 C67 1.282 . S
C70 O71 1.306 . S
C70 O73 1.160 . S
O71 C70 1.306 . S
O71 Cd72 2.228 . S
Cd72 O71 2.228 . S
Cd72 O76 2.273 . S
Cd72 O80 2.277 . S
O73 C70 1.160 . S
O73 Cd74 2.203 . S
Cd74 O73 2.203 . S
Cd74 O76 2.411 . S
Cd74 O77 2.333 . S
Cd74 O78 2.352 . S
Cd74 O82 2.277 . S
Cd74 O83 2.356 . S
C75 O80 1.209 . S
C75 O82 1.226 . S
O76 Cd72 2.273 . S
O76 Cd74 2.411 . S
O76 C79 1.320 . S
O77 Cd74 2.333 . S
O77 C79 1.214 . S
O78 Cd74 2.352 . S
O78 C81 1.258 . S
C79 O76 1.320 . S
C79 O77 1.214 . S
O80 Cd72 2.277 . S
O80 C75 1.209 . S
C81 O78 1.258 . S
C81 O83 1.282 . S
O82 Cd74 2.277 . S
O82 C75 1.226 . S
O83 Cd74 2.356 . S
O83 C81 1.282 . S
C84 O85 1.306 . S
C84 O87 1.160 . S
O85 C84 1.306 . S
O85 Cd86 2.228 . S
Cd86 O85 2.228 . S
Cd86 O90 2.273 . S
Cd86 O94 2.277 . S
O87 C84 1.160 . S
O87 Cd88 2.203 . S
Cd88 O87 2.203 . S
Cd88 O90 2.411 . S
Cd88 O91 2.333 . S
Cd88 O92 2.352 . S
Cd88 O96 2.277 . S
Cd88 O97 2.356 . S
C89 O94 1.209 . S
C89 O96 1.226 . S
O90 Cd86 2.273 . S
O90 Cd88 2.411 . S
O90 C93 1.320 . S
O91 Cd88 2.333 . S
O91 C93 1.214 . S
O92 Cd88 2.352 . S
O92 C95 1.258 . S
C93 O90 1.320 . S
C93 O91 1.214 . S
O94 Cd86 2.277 . S
O94 C89 1.209 . S
C95 O92 1.258 . S
C95 O97 1.282 . S
O96 Cd88 2.277 . S
O96 C89 1.226 . S
O97 Cd88 2.356 . S
O97 C95 1.282 . S
C98 O99 1.306 . S
C98 O101 1.160 . S
O99 C98 1.306 . S
O99 Cd100 2.228 1_655 S
Cd100 O99 2.228 1_455 S
Cd100 O104 2.273 . S
Cd100 O108 2.277 . S
O101 C98 1.160 . S
O101 Cd102 2.203 1_655 S
Cd102 O101 2.203 1_455 S
Cd102 O104 2.411 . S
Cd102 O105 2.333 . S
Cd102 O106 2.352 . S
Cd102 O110 2.277 . S
Cd102 O111 2.356 . S
C103 O108 1.209 . S
C103 O110 1.226 . S
O104 Cd100 2.273 . S
O104 Cd102 2.411 . S
O104 C107 1.320 . S
O105 Cd102 2.333 . S
O105 C107 1.214 . S
O106 Cd102 2.352 . S
O106 C109 1.258 . S
C107 O104 1.320 . S
C107 O105 1.214 . S
O108 Cd100 2.277 . S
O108 C103 1.209 . S
C109 O106 1.258 . S
C109 O111 1.282 . S
O110 Cd102 2.277 . S
O110 C103 1.226 . S
O111 Cd102 2.356 . S
O111 C109 1.282 . S
C112 O113 1.306 1_545 S
C112 O115 1.160 . S
O113 C112 1.306 1_565 S
O113 Cd114 2.228 . S
Cd114 O113 2.228 . S
Cd114 O118 2.273 1_565 S
Cd114 O122 2.277 . S
O115 C112 1.160 . S
O115 Cd116 2.203 . S
Cd116 O115 2.203 . S
Cd116 O118 2.411 . S
Cd116 O119 2.333 1_545 S
Cd116 O120 2.352 . S
Cd116 O124 2.277 1_545 S
Cd116 O125 2.356 . S
C117 O122 1.209 . S
C117 O124 1.226 . S
O118 Cd114 2.273 1_545 S
O118 Cd116 2.411 . S
O118 C121 1.320 1_545 S
O119 Cd116 2.333 1_565 S
O119 C121 1.214 . S
O120 Cd116 2.352 . S
O120 C123 1.258 . S
C121 O118 1.320 1_565 S
C121 O119 1.214 . S
O122 Cd114 2.277 . S
O122 C117 1.209 . S
C123 O120 1.258 . S
C123 O125 1.282 . S
O124 Cd116 2.277 1_565 S
O124 C117 1.226 . S
O125 Cd116 2.356 . S
O125 C123 1.282 . S
C126 O127 1.306 . S
C126 O129 1.160 . S
O127 C126 1.306 . S
O127 Cd128 2.228 . S
Cd128 O127 2.228 . S
Cd128 O132 2.273 . S
Cd128 O136 2.277 . S
O129 C126 1.160 . S
O129 Cd130 2.203 . S
Cd130 O129 2.203 . S
Cd130 O132 2.411 . S
Cd130 O133 2.333 . S
Cd130 O134 2.352 . S
Cd130 O138 2.277 . S
Cd130 O139 2.356 . S
C131 O136 1.209 . S
C131 O138 1.226 . S
O132 Cd128 2.273 . S
O132 Cd130 2.411 . S
O132 C135 1.320 . S
O133 Cd130 2.333 . S
O133 C135 1.214 . S
O134 Cd130 2.352 . S
O134 C137 1.258 . S
C135 O132 1.320 . S
C135 O133 1.214 . S
O136 Cd128 2.277 . S
O136 C131 1.209 . S
C137 O134 1.258 . S
C137 O139 1.282 . S
O138 Cd130 2.277 . S
O138 C131 1.226 . S
O139 Cd130 2.356 . S
O139 C137 1.282 . S
C140 O141 1.306 . S
C140 O143 1.160 . S
O141 C140 1.306 . S
O141 Cd142 2.228 . S
Cd142 O141 2.228 . S
Cd142 O146 2.273 . S
Cd142 O150 2.277 . S
O143 C140 1.160 . S
O143 Cd144 2.203 . S
Cd144 O143 2.203 . S
Cd144 O146 2.411 . S
Cd144 O147 2.333 . S
Cd144 O148 2.352 1_545 S
Cd144 O152 2.277 . S
Cd144 O153 2.356 1_545 S
C145 O150 1.209 . S
C145 O152 1.226 . S
O146 Cd142 2.273 . S
O146 Cd144 2.411 . S
O146 C149 1.320 . S
O147 Cd144 2.333 . S
O147 C149 1.214 . S
O148 Cd144 2.352 1_565 S
O148 C151 1.258 . S
C149 O146 1.320 . S
C149 O147 1.214 . S
O150 Cd142 2.277 . S
O150 C145 1.209 . S
C151 O148 1.258 . S
C151 O153 1.282 . S
O152 Cd144 2.277 . S
O152 C145 1.226 . S
O153 Cd144 2.356 1_565 S
O153 C151 1.282 . S
C154 O155 1.306 1_564 S
C154 O157 1.160 . S
O155 C154 1.306 1_546 S
O155 Cd156 2.228 . S
Cd156 O155 2.228 . S
Cd156 O160 2.273 1_546 S
Cd156 O164 2.277 1_545 S
O157 C154 1.160 . S
O157 Cd158 2.203 . S
Cd158 O157 2.203 . S
Cd158 O160 2.411 . S
Cd158 O161 2.333 . S
Cd158 O162 2.352 . S
Cd158 O166 2.277 1_554 S
Cd158 O167 2.356 . S
C159 O164 1.209 . S
C159 O166 1.226 . S
O160 Cd156 2.273 1_564 S
O160 Cd158 2.411 . S
O160 C163 1.320 . S
O161 Cd158 2.333 . S
O161 C163 1.214 . S
O162 Cd158 2.352 . S
O162 C165 1.258 . S
C163 O160 1.320 . S
C163 O161 1.214 . S
O164 Cd156 2.277 1_565 S
O164 C159 1.209 . S
C165 O162 1.258 . S
C165 O167 1.282 . S
O166 Cd158 2.277 1_556 S
O166 C159 1.226 . S
O167 Cd158 2.356 . S
O167 C165 1.282 . S
C168 O169 1.306 . S
C168 O171 1.160 . S
O169 C168 1.306 . S
O169 Cd170 2.228 1_554 S
Cd170 O169 2.228 1_556 S
Cd170 O174 2.273 1_556 S
Cd170 O178 2.277 . S
O171 C168 1.160 . S
O171 Cd172 2.203 . S
Cd172 O171 2.203 . S
Cd172 O174 2.411 . S
Cd172 O175 2.333 . S
Cd172 O176 2.352 . S
Cd172 O180 2.277 1_554 S
Cd172 O181 2.356 . S
C173 O178 1.209 . S
C173 O180 1.226 . S
O174 Cd170 2.273 1_554 S
O174 Cd172 2.411 . S
O174 C177 1.320 . S
O175 Cd172 2.333 . S
O175 C177 1.214 . S
O176 Cd172 2.352 . S
O176 C179 1.258 . S
C177 O174 1.320 . S
C177 O175 1.214 . S
O178 Cd170 2.277 . S
O178 C173 1.209 . S
C179 O176 1.258 . S
C179 O181 1.282 . S
O180 Cd172 2.277 1_556 S
O180 C173 1.226 . S
O181 Cd172 2.356 . S
O181 C179 1.282 . S
C182 O183 1.306 . S
C182 O185 1.160 . S
O183 C182 1.306 . S
O183 Cd184 2.228 . S
Cd184 O183 2.228 . S
Cd184 O188 2.273 . S
Cd184 O192 2.277 . S
O185 C182 1.160 . S
O185 Cd186 2.203 . S
Cd186 O185 2.203 . S
Cd186 O188 2.411 . S
Cd186 O189 2.333 . S
Cd186 O190 2.352 1_554 S
Cd186 O194 2.277 . S
Cd186 O195 2.356 . S
C187 O192 1.209 . S
C187 O194 1.226 . S
O188 Cd184 2.273 . S
O188 Cd186 2.411 . S
O188 C191 1.320 . S
O189 Cd186 2.333 . S
O189 C191 1.214 . S
O190 Cd186 2.352 1_556 S
O190 C193 1.258 . S
C191 O188 1.320 . S
C191 O189 1.214 . S
O192 Cd184 2.277 . S
O192 C187 1.209 . S
C193 O190 1.258 . S
C193 O195 1.282 1_556 S
O194 Cd186 2.277 . S
O194 C187 1.226 . S
O195 Cd186 2.356 . S
O195 C193 1.282 1_554 S
C196 O197 1.306 . S
C196 O199 1.160 . S
O197 C196 1.306 . S
O197 Cd198 2.228 . S
Cd198 O197 2.228 . S
Cd198 O202 2.273 . S
Cd198 O206 2.277 . S
O199 C196 1.160 . S
O199 Cd200 2.203 . S
Cd200 O199 2.203 . S
Cd200 O202 2.411 . S
Cd200 O203 2.333 . S
Cd200 O204 2.352 . S
Cd200 O208 2.277 . S
Cd200 O209 2.356 . S
C201 O206 1.209 . S
C201 O208 1.226 . S
O202 Cd198 2.273 . S
O202 Cd200 2.411 . S
O202 C205 1.320 . S
O203 Cd200 2.333 . S
O203 C205 1.214 . S
O204 Cd200 2.352 . S
O204 C207 1.258 . S
C205 O202 1.320 . S
C205 O203 1.214 . S
O206 Cd198 2.277 . S
O206 C201 1.209 . S
C207 O204 1.258 . S
C207 O209 1.282 . S
O208 Cd200 2.277 . S
O208 C201 1.226 . S
O209 Cd200 2.356 . S
O209 C207 1.282 . S
C210 O211 1.306 . S
C210 O213 1.160 . S
O211 C210 1.306 . S
O211 Cd212 2.228 . S
Cd212 O211 2.228 . S
Cd212 O216 2.273 . S
Cd212 O220 2.277 . S
O213 C210 1.160 . S
O213 Cd214 2.203 . S
Cd214 O213 2.203 . S
Cd214 O216 2.411 . S
Cd214 O217 2.333 . S
Cd214 O218 2.352 . S
Cd214 O222 2.277 . S
Cd214 O223 2.356 . S
C215 O220 1.209 . S
C215 O222 1.226 . S
O216 Cd212 2.273 . S
O216 Cd214 2.411 . S
O216 C219 1.320 . S
O217 Cd214 2.333 . S
O217 C219 1.214 . S
O218 Cd214 2.352 . S
O218 C221 1.258 . S
C219 O216 1.320 . S
C219 O217 1.214 . S
O220 Cd212 2.277 . S
O220 C215 1.209 . S
C221 O218 1.258 . S
C221 O223 1.282 . S
O222 Cd214 2.277 . S
O222 C215 1.226 . S
O223 Cd214 2.356 . S
O223 C221 1.282 . S
C224 O225 1.303 . S
C224 O227 1.160 . S
O225 C224 1.303 . S
O225 Cd226 2.229 1_655 S
Cd226 O225 2.229 1_455 S
Cd226 O230 2.273 1_455 S
Cd226 O234 2.277 1_455 S
O227 C224 1.160 . S
O227 Cd228 2.203 . S
Cd228 O227 2.203 . S
Cd228 O230 2.411 . S
Cd228 O231 2.333 . S
Cd228 O232 2.352 . S
Cd228 O236 2.277 . S
Cd228 O237 2.356 . S
C229 O234 1.209 . S
C229 O236 1.226 . S
O230 Cd226 2.273 1_655 S
O230 Cd228 2.411 . S
O230 C233 1.320 . S
O231 Cd228 2.333 . S
O231 C233 1.214 . S
O232 Cd228 2.352 . S
O232 C235 1.258 . S
C233 O230 1.320 . S
C233 O231 1.214 . S
O234 Cd226 2.277 1_655 S
O234 C229 1.209 . S
C235 O232 1.258 . S
C235 O237 1.282 . S
O236 Cd228 2.277 . S
O236 C229 1.226 . S
O237 Cd228 2.356 . S
O237 C235 1.282 . S
C238 O239 1.306 . S
C238 O241 1.160 . S
O239 C238 1.306 . S
O239 Cd240 2.228 . S
Cd240 O239 2.228 . S
Cd240 O244 2.273 . S
Cd240 O248 2.277 . S
O241 C238 1.160 . S
O241 Cd242 2.203 . S
Cd242 O241 2.203 . S
Cd242 O244 2.411 . S
Cd242 O245 2.333 . S
Cd242 O246 2.352 . S
Cd242 O250 2.277 . S
Cd242 O251 2.356 . S
C243 O248 1.209 . S
C243 O250 1.226 . S
O244 Cd240 2.273 . S
O244 Cd242 2.411 . S
O244 C247 1.320 . S
O245 Cd242 2.333 . S
O245 C247 1.214 . S
O246 Cd242 2.352 . S
O246 C249 1.258 . S
C247 O244 1.320 . S
C247 O245 1.214 . S
O248 Cd240 2.277 . S
O248 C243 1.209 . S
C249 O246 1.258 . S
C249 O251 1.282 . S
O250 Cd242 2.277 . S
O250 C243 1.226 . S
O251 Cd242 2.356 . S
O251 C249 1.282 . S
C252 O253 1.306 . S
C252 O255 1.160 . S
O253 C252 1.306 . S
O253 Cd254 2.228 . S
Cd254 O253 2.228 . S
Cd254 O258 2.273 . S
Cd254 O262 2.277 . S
O255 C252 1.160 . S
O255 Cd256 2.203 . S
Cd256 O255 2.203 . S
Cd256 O258 2.411 . S
Cd256 O259 2.333 . S
Cd256 O260 2.352 . S
Cd256 O264 2.277 . S
Cd256 O265 2.356 . S
C257 O262 1.209 . S
C257 O264 1.226 . S
O258 Cd254 2.273 . S
O258 Cd256 2.411 . S
O258 C261 1.320 . S
O259 Cd256 2.333 . S
O259 C261 1.214 . S
O260 Cd256 2.352 . S
O260 C263 1.258 . S
C261 O258 1.320 . S
C261 O259 1.214 . S
O262 Cd254 2.277 . S
O262 C257 1.209 . S
C263 O260 1.258 . S
C263 O265 1.282 . S
O264 Cd256 2.277 . S
O264 C257 1.226 . S
O265 Cd256 2.356 . S
O265 C263 1.282 . S
C266 O267 1.306 . S
C266 O269 1.160 . S
O267 C266 1.306 . S
O267 Cd268 2.228 . S
Cd268 O267 2.228 . S
Cd268 O272 2.273 . S
Cd268 O276 2.277 . S
O269 C266 1.160 . S
O269 Cd270 2.203 . S
Cd270 O269 2.203 . S
Cd270 O272 2.411 . S
Cd270 O273 2.333 . S
Cd270 O274 2.352 . S
Cd270 O278 2.277 . S
Cd270 O279 2.356 . S
C271 O276 1.209 . S
C271 O278 1.226 . S
O272 Cd268 2.273 . S
O272 Cd270 2.411 . S
O272 C275 1.320 . S
O273 Cd270 2.333 . S
O273 C275 1.214 . S
O274 Cd270 2.352 . S
O274 C277 1.258 . S
C275 O272 1.320 . S
C275 O273 1.214 . S
O276 Cd268 2.277 . S
O276 C271 1.209 . S
C277 O274 1.258 . S
C277 O279 1.282 . S
O278 Cd270 2.277 . S
O278 C271 1.226 . S
O279 Cd270 2.356 . S
O279 C277 1.282 . S
C280 O281 1.306 . S
C280 O283 1.160 . S
O281 C280 1.306 . S
O281 Cd282 2.228 . S
Cd282 O281 2.228 . S
Cd282 O286 2.273 . S
Cd282 O290 2.277 . S
O283 C280 1.160 . S
O283 Cd284 2.203 . S
Cd284 O283 2.203 . S
Cd284 O286 2.411 . S
Cd284 O287 2.333 . S
Cd284 O288 2.352 1_554 S
Cd284 O292 2.277 . S
Cd284 O293 2.356 1_554 S
C285 O290 1.209 . S
C285 O292 1.226 . S
O286 Cd282 2.273 . S
O286 Cd284 2.411 . S
O286 C289 1.320 . S
O287 Cd284 2.333 . S
O287 C289 1.214 . S
O288 Cd284 2.352 1_556 S
O288 C291 1.258 . S
C289 O286 1.320 . S
C289 O287 1.214 . S
O290 Cd282 2.277 . S
O290 C285 1.209 . S
C291 O288 1.258 . S
C291 O293 1.282 . S
O292 Cd284 2.277 . S
O292 C285 1.226 . S
O293 Cd284 2.356 1_556 S
O293 C291 1.282 . S
C294 O295 1.306 . S
C294 O297 1.160 . S
O295 C294 1.306 . S
O295 Cd296 2.228 . S
Cd296 O295 2.228 . S
Cd296 O300 2.273 . S
Cd296 O304 2.277 . S
O297 C294 1.160 . S
O297 Cd298 2.203 . S
Cd298 O297 2.203 . S
Cd298 O300 2.411 . S
Cd298 O301 2.333 . S
Cd298 O302 2.352 . S
Cd298 O306 2.277 . S
Cd298 O307 2.356 . S
C299 O304 1.209 . S
C299 O306 1.226 . S
O300 Cd296 2.273 . S
O300 Cd298 2.411 . S
O300 C303 1.320 . S
O301 Cd298 2.333 . S
O301 C303 1.214 . S
O302 Cd298 2.352 . S
O302 C305 1.258 . S
C303 O300 1.320 . S
C303 O301 1.214 . S
O304 Cd296 2.277 . S
O304 C299 1.209 . S
C305 O302 1.258 . S
C305 O307 1.282 . S
O306 Cd298 2.277 . S
O306 C299 1.226 . S
O307 Cd298 2.356 . S
O307 C305 1.282 . S
C308 O309 1.306 . S
C308 O311 1.160 . S
O309 C308 1.306 . S
O309 Cd310 2.228 . S
Cd310 O309 2.228 . S
Cd310 O314 2.273 . S
Cd310 O318 2.277 . S
O311 C308 1.160 . S
O311 Cd312 2.203 . S
Cd312 O311 2.203 . S
Cd312 O314 2.411 . S
Cd312 O315 2.333 . S
Cd312 O316 2.352 . S
Cd312 O320 2.277 . S
Cd312 O321 2.356 . S
C313 O318 1.209 . S
C313 O320 1.226 . S
O314 Cd310 2.273 . S
O314 Cd312 2.411 . S
O314 C317 1.320 . S
O315 Cd312 2.333 . S
O315 C317 1.214 . S
O316 Cd312 2.352 . S
O316 C319 1.258 . S
C317 O314 1.320 . S
C317 O315 1.214 . S
O318 Cd310 2.277 . S
O318 C313 1.209 . S
C319 O316 1.258 . S
C319 O321 1.282 . S
O320 Cd312 2.277 . S
O320 C313 1.226 . S
O321 Cd312 2.356 . S
O321 C319 1.282 . S
C322 O323 1.306 . S
C322 O325 1.160 . S
O323 C322 1.306 . S
O323 Cd324 2.228 . S
Cd324 O323 2.228 . S
Cd324 O328 2.273 . S
Cd324 O332 2.277 . S
O325 C322 1.160 . S
O325 Cd326 2.203 . S
Cd326 O325 2.203 . S
Cd326 O328 2.411 . S
Cd326 O329 2.333 . S
Cd326 O330 2.352 . S
Cd326 O334 2.277 . S
Cd326 O335 2.356 . S
C327 O332 1.209 . S
C327 O334 1.226 . S
O328 Cd324 2.273 . S
O328 Cd326 2.411 . S
O328 C331 1.320 . S
O329 Cd326 2.333 . S
O329 C331 1.214 . S
O330 Cd326 2.352 . S
O330 C333 1.258 . S
C331 O328 1.320 . S
C331 O329 1.214 . S
O332 Cd324 2.277 . S
O332 C327 1.209 . S
C333 O330 1.258 . S
C333 O335 1.282 . S
O334 Cd326 2.277 . S
O334 C327 1.226 . S
O335 Cd326 2.356 . S
O335 C333 1.282 . S
Eu336 C345 2.828 . S
Eu336 O347 2.392 . S
Eu336 O349 2.418 . S
Eu336 O354 2.373 . S
Eu336 O357 2.488 . S
Eu336 O358 2.471 1_554 S
Eu336 O359 2.349 1_554 S
Eu337 O346 2.375 1_565 S
Eu337 O350 2.507 1_554 S
Eu337 O351 2.487 . S
Eu337 O352 2.338 1_565 S
Eu337 O355 2.378 1_565 S
Eu337 O356 2.411 1_564 S
Eu337 C366 2.847 . S
C338 O356 1.266 . S
C338 O359 1.265 . S
C339 C340 1.379 1_554 S
C339 C343 1.373 . S
C339 C345 1.505 . S
C340 C339 1.379 1_556 S
C340 C342 1.369 . S
C340 H368 0.930 . S
C341 C343 1.383 . S
C341 C344 1.382 1_554 S
C341 H369 0.930 . S
C342 C340 1.369 . S
C342 C344 1.392 . S
C342 H370 0.930 . S
C343 C339 1.373 . S
C343 C341 1.383 . S
C343 H371 0.931 . S
C344 C341 1.382 1_556 S
C344 C342 1.392 . S
C345 Eu336 2.828 . S
C345 C339 1.505 . S
C345 O357 1.249 . S
C345 O358 1.244 1_554 S
O346 Eu337 2.375 1_545 S
O346 C348 1.258 . S
O347 Eu336 2.392 . S
O347 C348 1.242 . S
C348 O346 1.258 . S
C348 O347 1.242 . S
O349 Eu336 2.418 . S
O349 C353 1.244 . S
O350 Eu337 2.507 1_556 S
O350 C366 1.249 1_556 S
O351 Eu337 2.487 . S
O351 C366 1.244 . S
O352 Eu337 2.338 1_545 S
O352 C353 1.265 . S
C353 O349 1.244 . S
C353 O352 1.265 . S
O354 Eu336 2.373 . S
O354 C367 1.258 . S
O355 Eu337 2.378 1_545 S
O355 C367 1.242 . S
O356 Eu337 2.411 1_546 S
O356 C338 1.266 . S
O357 Eu336 2.488 . S
O357 C345 1.249 . S
O358 Eu336 2.471 1_556 S
O358 C345 1.244 1_556 S
O359 Eu336 2.349 1_556 S
O359 C338 1.265 . S
C360 C361 1.379 . S
C360 C364 1.373 . S
C360 C366 1.505 . S
C361 C360 1.379 . S
C361 C363 1.369 . S
C361 H372 0.930 . S
C362 C364 1.383 . S
C362 C365 1.382 . S
C362 H373 0.930 . S
C363 C361 1.369 . S
C363 C365 1.392 . S
C363 H374 0.930 . S
C364 C360 1.373 . S
C364 C362 1.383 . S
C364 H375 0.931 1_554 S
C365 C362 1.382 . S
C365 C363 1.392 . S
C366 Eu337 2.847 . S
C366 O350 1.249 1_554 S
C366 O351 1.244 . S
C366 C360 1.505 . S
C367 O354 1.258 . S
C367 O355 1.242 . S
H368 C340 0.930 . S
H369 C341 0.930 . S
H370 C342 0.930 . S
H371 C343 0.931 . S
H372 C361 0.930 . S
H373 C362 0.930 . S
H374 C363 0.930 . S
H375 C364 0.931 1_556 S
Eu376 C385 2.828 . S
Eu376 O387 2.392 . S
Eu376 O389 2.418 . S
Eu376 O394 2.373 . S
Eu376 O397 2.488 . S
Eu376 O398 2.471 . S
Eu376 O399 2.349 . S
Eu377 O386 2.373 . S
Eu377 O390 2.488 . S
Eu377 O391 2.471 . S
Eu377 O392 2.349 . S
Eu377 O395 2.392 . S
Eu377 O396 2.418 . S
Eu377 C406 2.828 . S
C378 O396 1.244 . S
C378 O399 1.265 . S
C379 C380 1.379 . S
C379 C383 1.373 . S
C379 C385 1.505 . S
C380 C379 1.379 . S
C380 C382 1.369 . S
C380 H408 0.930 . S
C381 C383 1.383 . S
C381 C384 1.382 . S
C381 H409 0.930 . S
C382 C380 1.369 . S
C382 C384 1.392 . S
C382 H410 0.930 . S
C383 C379 1.373 . S
C383 C381 1.383 . S
C383 H411 0.931 . S
C384 C381 1.382 . S
C384 C382 1.392 . S
C385 Eu376 2.828 . S
C385 C379 1.505 . S
C385 O397 1.249 . S
C385 O398 1.244 . S
O386 Eu377 2.373 . S
O386 C388 1.258 . S
O387 Eu376 2.392 . S
O387 C388 1.242 . S
C388 O386 1.258 . S
C388 O387 1.242 . S
O389 Eu376 2.418 . S
O389 C393 1.244 . S
O390 Eu377 2.488 . S
O390 C406 1.249 . S
O391 Eu377 2.471 . S
O391 C406 1.244 . S
O392 Eu377 2.349 . S
O392 C393 1.265 . S
C393 O389 1.244 . S
C393 O392 1.265 . S
O394 Eu376 2.373 . S
O394 C407 1.258 . S
O395 Eu377 2.392 . S
O395 C407 1.242 . S
O396 Eu377 2.418 . S
O396 C378 1.244 . S
O397 Eu376 2.488 . S
O397 C385 1.249 . S
O398 Eu376 2.471 . S
O398 C385 1.244 . S
O399 Eu376 2.349 . S
O399 C378 1.265 . S
C400 C401 1.379 . S
C400 C404 1.373 . S
C400 C406 1.505 . S
C401 C400 1.379 . S
C401 C403 1.369 . S
C401 H412 0.930 . S
C402 C404 1.383 . S
C402 C405 1.382 . S
C402 H413 0.930 . S
C403 C401 1.369 . S
C403 C405 1.392 . S
C403 H414 0.930 . S
C404 C400 1.373 . S
C404 C402 1.383 . S
C404 H415 0.931 . S
C405 C402 1.382 . S
C405 C403 1.392 . S
C406 Eu377 2.828 . S
C406 O390 1.249 . S
C406 O391 1.244 . S
C406 C400 1.505 . S
C407 O394 1.258 . S
C407 O395 1.242 . S
H408 C380 0.930 . S
H409 C381 0.930 . S
H410 C382 0.930 . S
H411 C383 0.931 . S
H412 C401 0.930 . S
H413 C402 0.930 . S
H414 C403 0.930 . S
H415 C404 0.931 . S
Eu416 C425 2.828 . S
Eu416 O427 2.392 . S
Eu416 O429 2.418 . S
Eu416 O434 2.373 1_545 S
Eu416 O437 2.488 . S
Eu416 O438 2.471 . S
Eu416 O439 2.349 . S
Eu417 O426 2.373 . S
Eu417 O430 2.488 . S
Eu417 O431 2.471 . S
Eu417 O432 2.349 . S
Eu417 O435 2.392 1_545 S
Eu417 O436 2.418 . S
Eu417 C446 2.828 . S
C418 O436 1.244 . S
C418 O439 1.265 . S
C419 C420 1.379 . S
C419 C423 1.373 . S
C419 C425 1.505 1_565 S
C420 C419 1.379 . S
C420 C422 1.369 . S
C420 H448 0.930 . S
C421 C423 1.383 . S
C421 C424 1.382 . S
C421 H449 0.930 . S
C422 C420 1.369 . S
C422 C424 1.392 . S
C422 H450 0.930 . S
C423 C419 1.373 . S
C423 C421 1.383 . S
C423 H451 0.931 . S
C424 C421 1.382 . S
C424 C422 1.392 . S
C425 Eu416 2.828 . S
C425 C419 1.505 1_545 S
C425 O437 1.249 . S
C425 O438 1.244 . S
O426 Eu417 2.373 . S
O426 C428 1.258 . S
O427 Eu416 2.392 . S
O427 C428 1.242 . S
C428 O426 1.258 . S
C428 O427 1.242 . S
O429 Eu416 2.418 . S
O429 C433 1.244 . S
O430 Eu417 2.488 . S
O430 C446 1.249 . S
O431 Eu417 2.471 . S
O431 C446 1.244 . S
O432 Eu417 2.349 . S
O432 C433 1.265 . S
C433 O429 1.244 . S
C433 O432 1.265 . S
O434 Eu416 2.373 1_565 S
O434 C447 1.258 . S
O435 Eu417 2.392 1_565 S
O435 C447 1.242 . S
O436 Eu417 2.418 . S
O436 C418 1.244 . S
O437 Eu416 2.488 . S
O437 C425 1.249 . S
O438 Eu416 2.471 . S
O438 C425 1.244 . S
O439 Eu416 2.349 . S
O439 C418 1.265 . S
C440 C441 1.379 . S
C440 C444 1.373 . S
C440 C446 1.505 . S
C441 C440 1.379 . S
C441 C443 1.369 . S
C441 H452 0.930 . S
C442 C444 1.383 . S
C442 C445 1.382 . S
C442 H453 0.930 . S
C443 C441 1.369 . S
C443 C445 1.392 . S
C443 H454 0.930 . S
C444 C440 1.373 . S
C444 C442 1.383 . S
C444 H455 0.931 . S
C445 C442 1.382 . S
C445 C443 1.392 . S
C446 Eu417 2.828 . S
C446 O430 1.249 . S
C446 O431 1.244 . S
C446 C440 1.505 . S
C447 O434 1.258 . S
C447 O435 1.242 . S
H448 C420 0.930 . S
H449 C421 0.930 . S
H450 C422 0.930 . S
H451 C423 0.931 . S
H452 C441 0.930 . S
H453 C442 0.930 . S
H454 C443 0.930 . S
H455 C444 0.931 . S
Eu456 C465 2.828 . S
Eu456 O467 2.392 . S
Eu456 O469 2.418 . S
Eu456 O474 2.373 . S
Eu456 O477 2.488 . S
Eu456 O478 2.471 . S
Eu456 O479 2.349 . S
Eu457 O466 2.373 . S
Eu457 O470 2.488 . S
Eu457 O471 2.471 . S
Eu457 O472 2.349 . S
Eu457 O475 2.392 . S
Eu457 O476 2.418 . S
Eu457 C486 2.828 . S
C458 O476 1.244 . S
C458 O479 1.265 . S
C459 C460 1.379 . S
C459 C463 1.373 . S
C459 C465 1.505 . S
C460 C459 1.379 . S
C460 C462 1.369 . S
C460 H488 0.930 . S
C461 C463 1.383 . S
C461 C464 1.382 . S
C461 H489 0.930 . S
C462 C460 1.369 . S
C462 C464 1.392 . S
C462 H490 0.930 . S
C463 C459 1.373 . S
C463 C461 1.383 . S
C463 H491 0.931 . S
C464 C461 1.382 . S
C464 C462 1.392 . S
C465 Eu456 2.828 . S
C465 C459 1.505 . S
C465 O477 1.249 . S
C465 O478 1.244 . S
O466 Eu457 2.373 . S
O466 C468 1.258 . S
O467 Eu456 2.392 . S
O467 C468 1.242 . S
C468 O466 1.258 . S
C468 O467 1.242 . S
O469 Eu456 2.418 . S
O469 C473 1.244 . S
O470 Eu457 2.488 . S
O470 C486 1.249 . S
O471 Eu457 2.471 . S
O471 C486 1.244 . S
O472 Eu457 2.349 . S
O472 C473 1.265 . S
C473 O469 1.244 . S
C473 O472 1.265 . S
O474 Eu456 2.373 . S
O474 C487 1.258 . S
O475 Eu457 2.392 . S
O475 C487 1.242 . S
O476 Eu457 2.418 . S
O476 C458 1.244 . S
O477 Eu456 2.488 . S
O477 C465 1.249 . S
O478 Eu456 2.471 . S
O478 C465 1.244 . S
O479 Eu456 2.349 . S
O479 C458 1.265 . S
C480 C481 1.379 . S
C480 C484 1.373 . S
C480 C486 1.505 . S
C481 C480 1.379 . S
C481 C483 1.369 . S
C481 H492 0.930 . S
C482 C484 1.383 . S
C482 C485 1.382 . S
C482 H493 0.930 . S
C483 C481 1.369 . S
C483 C485 1.392 . S
C483 H494 0.930 . S
C484 C480 1.373 . S
C484 C482 1.383 . S
C484 H495 0.931 . S
C485 C482 1.382 . S
C485 C483 1.392 . S
C486 Eu457 2.828 . S
C486 O470 1.249 . S
C486 O471 1.244 . S
C486 C480 1.505 . S
C487 O474 1.258 . S
C487 O475 1.242 . S
H488 C460 0.930 . S
H489 C461 0.930 . S
H490 C462 0.930 . S
H491 C463 0.931 . S
H492 C481 0.930 . S
H493 C482 0.930 . S
H494 C483 0.930 . S
H495 C484 0.931 . S
Eu496 C505 2.828 . S
Eu496 O507 2.392 . S
Eu496 O509 2.418 . S
Eu496 O514 2.373 . S
Eu496 O517 2.488 . S
Eu496 O518 2.471 . S
Eu496 O519 2.349 . S
Eu497 O506 2.373 . S
Eu497 O510 2.488 1_545 S
Eu497 O511 2.471 1_545 S
Eu497 O512 2.349 . S
Eu497 O515 2.392 . S
Eu497 O516 2.418 . S
Eu497 C526 2.828 1_545 S
C498 O516 1.244 . S
C498 O519 1.265 . S
C499 C500 1.379 . S
C499 C503 1.373 . S
C499 C505 1.505 . S
C500 C499 1.379 . S
C500 C502 1.369 . S
C500 H528 0.930 . S
C501 C503 1.383 . S
C501 C504 1.382 . S
C501 H529 0.930 . S
C502 C500 1.369 . S
C502 C504 1.392 . S
C502 H530 0.930 . S
C503 C499 1.373 . S
C503 C501 1.383 . S
C503 H531 0.931 . S
C504 C501 1.382 . S
C504 C502 1.392 . S
C505 Eu496 2.828 . S
C505 C499 1.505 . S
C505 O517 1.249 . S
C505 O518 1.244 . S
O506 Eu497 2.373 . S
O506 C508 1.258 . S
O507 Eu496 2.392 . S
O507 C508 1.242 . S
C508 O506 1.258 . S
C508 O507 1.242 . S
O509 Eu496 2.418 . S
O509 C513 1.244 . S
O510 Eu497 2.488 1_565 S
O510 C526 1.249 . S
O511 Eu497 2.471 1_565 S
O511 C526 1.244 . S
O512 Eu497 2.349 . S
O512 C513 1.265 . S
C513 O509 1.244 . S
C513 O512 1.265 . S
O514 Eu496 2.373 . S
O514 C527 1.258 . S
O515 Eu497 2.392 . S
O515 C527 1.242 . S
O516 Eu497 2.418 . S
O516 C498 1.244 . S
O517 Eu496 2.488 . S
O517 C505 1.249 . S
O518 Eu496 2.471 . S
O518 C505 1.244 . S
O519 Eu496 2.349 . S
O519 C498 1.265 . S
C520 C521 1.379 . S
C520 C524 1.373 . S
C520 C526 1.505 . S
C521 C520 1.379 . S
C521 C523 1.369 . S
C521 H532 0.930 . S
C522 C524 1.383 . S
C522 C525 1.382 . S
C522 H533 0.930 . S
C523 C521 1.369 . S
C523 C525 1.392 . S
C523 H534 0.930 . S
C524 C520 1.373 . S
C524 C522 1.383 . S
C524 H535 0.931 . S
C525 C522 1.382 . S
C525 C523 1.392 . S
C526 Eu497 2.828 1_565 S
C526 O510 1.249 . S
C526 O511 1.244 . S
C526 C520 1.505 . S
C527 O514 1.258 . S
C527 O515 1.242 . S
H528 C500 0.930 . S
H529 C501 0.930 . S
H530 C502 0.930 . S
H531 C503 0.931 . S
H532 C521 0.930 . S
H533 C522 0.930 . S
H534 C523 0.930 . S
H535 C524 0.931 . S
Eu536 C545 2.828 . S
Eu536 O547 2.392 . S
Eu536 O549 2.418 . S
Eu536 O554 2.373 . S
Eu536 O557 2.488 . S
Eu536 O558 2.471 . S
Eu536 O559 2.349 . S
Eu537 O546 2.373 . S
Eu537 O550 2.488 . S
Eu537 O551 2.471 . S
Eu537 O552 2.349 . S
Eu537 O555 2.392 . S
Eu537 O556 2.418 . S
Eu537 C566 2.828 . S
C538 O556 1.244 . S
C538 O559 1.265 . S
C539 C540 1.379 . S
C539 C543 1.373 . S
C539 C545 1.505 . S
C540 C539 1.379 . S
C540 C542 1.369 . S
C540 H568 0.930 . S
C541 C543 1.383 . S
C541 C544 1.382 . S
C541 H569 0.930 . S
C542 C540 1.369 . S
C542 C544 1.392 . S
C542 H570 0.930 . S
C543 C539 1.373 . S
C543 C541 1.383 . S
C543 H571 0.931 . S
C544 C541 1.382 . S
C544 C542 1.392 . S
C545 Eu536 2.828 . S
C545 C539 1.505 . S
C545 O557 1.249 . S
C545 O558 1.244 . S
O546 Eu537 2.373 . S
O546 C548 1.258 . S
O547 Eu536 2.392 . S
O547 C548 1.242 . S
C548 O546 1.258 . S
C548 O547 1.242 . S
O549 Eu536 2.418 . S
O549 C553 1.244 . S
O550 Eu537 2.488 . S
O550 C566 1.249 . S
O551 Eu537 2.471 . S
O551 C566 1.244 . S
O552 Eu537 2.349 . S
O552 C553 1.265 . S
C553 O549 1.244 . S
C553 O552 1.265 . S
O554 Eu536 2.373 . S
O554 C567 1.258 . S
O555 Eu537 2.392 . S
O555 C567 1.242 . S
O556 Eu537 2.418 . S
O556 C538 1.244 . S
O557 Eu536 2.488 . S
O557 C545 1.249 . S
O558 Eu536 2.471 . S
O558 C545 1.244 . S
O559 Eu536 2.349 . S
O559 C538 1.265 . S
C560 C561 1.379 . S
C560 C564 1.373 . S
C560 C566 1.505 . S
C561 C560 1.379 . S
C561 C563 1.369 . S
C561 H572 0.930 . S
C562 C564 1.383 . S
C562 C565 1.382 . S
C562 H573 0.930 . S
C563 C561 1.369 . S
C563 C565 1.392 . S
C563 H574 0.930 . S
C564 C560 1.373 . S
C564 C562 1.383 . S
C564 H575 0.931 . S
C565 C562 1.382 . S
C565 C563 1.392 . S
C566 Eu537 2.828 . S
C566 O550 1.249 . S
C566 O551 1.244 . S
C566 C560 1.505 . S
C567 O554 1.258 . S
C567 O555 1.242 . S
H568 C540 0.930 . S
H569 C541 0.930 . S
H570 C542 0.930 . S
H571 C543 0.931 . S
H572 C561 0.930 . S
H573 C562 0.930 . S
H574 C563 0.930 . S
H575 C564 0.931 . S
Eu576 C585 2.828 . S
Eu576 O587 2.392 . S
Eu576 O589 2.418 1_545 S
Eu576 O594 2.373 . S
Eu576 O597 2.488 . S
Eu576 O598 2.471 . S
Eu576 O599 2.349 . S
Eu577 O586 2.373 1_556 S
Eu577 O590 2.488 . S
Eu577 O591 2.471 . S
Eu577 O592 2.349 . S
Eu577 O595 2.392 . S
Eu577 O596 2.418 1_556 S
Eu577 C606 2.828 . S
C578 O596 1.244 . S
C578 O599 1.265 . S
C579 C580 1.379 . S
C579 C583 1.373 1_545 S
C579 C585 1.505 . S
C580 C579 1.379 . S
C580 C582 1.369 . S
C580 H608 0.930 . S
C581 C583 1.383 . S
C581 C584 1.374 1_565 S
C581 H609 0.930 . S
C582 C580 1.369 . S
C582 C584 1.404 . S
C582 H610 0.930 . S
C583 C579 1.373 1_565 S
C583 C581 1.383 . S
C583 H611 0.931 . S
C584 C581 1.374 1_545 S
C584 C582 1.404 . S
C585 Eu576 2.828 . S
C585 C579 1.505 . S
C585 O597 1.249 . S
C585 O598 1.244 . S
O586 Eu577 2.373 1_554 S
O586 C588 1.258 . S
O587 Eu576 2.392 . S
O587 C588 1.242 . S
C588 O586 1.258 . S
C588 O587 1.242 . S
O589 Eu576 2.418 1_565 S
O589 C593 1.244 . S
O590 Eu577 2.488 . S
O590 C606 1.249 . S
O591 Eu577 2.471 . S
O591 C606 1.244 . S
O592 Eu577 2.349 . S
O592 C593 1.265 1_546 S
C593 O589 1.244 . S
C593 O592 1.265 1_564 S
O594 Eu576 2.373 . S
O594 C607 1.258 . S
O595 Eu577 2.392 . S
O595 C607 1.242 1_556 S
O596 Eu577 2.418 1_554 S
O596 C578 1.244 . S
O597 Eu576 2.488 . S
O597 C585 1.249 . S
O598 Eu576 2.471 . S
O598 C585 1.244 . S
O599 Eu576 2.349 . S
O599 C578 1.265 . S
C600 C601 1.379 . S
C600 C604 1.373 . S
C600 C606 1.505 . S
C601 C600 1.379 . S
C601 C603 1.369 . S
C601 H612 0.930 . S
C602 C604 1.383 . S
C602 C605 1.382 . S
C602 H613 0.930 . S
C603 C601 1.369 . S
C603 C605 1.392 . S
C603 H614 0.930 . S
C604 C600 1.373 . S
C604 C602 1.383 . S
C604 H615 0.931 . S
C605 C602 1.382 . S
C605 C603 1.392 . S
C606 Eu577 2.828 . S
C606 O590 1.249 . S
C606 O591 1.244 . S
C606 C600 1.505 . S
C607 O594 1.258 . S
C607 O595 1.242 1_554 S
H608 C580 0.930 . S
H609 C581 0.930 . S
H610 C582 0.930 . S
H611 C583 0.931 . S
H612 C601 0.930 . S
H613 C602 0.930 . S
H614 C603 0.930 . S
H615 C604 0.931 . S
Eu616 C625 2.828 . S
Eu616 O627 2.392 . S
Eu616 O629 2.418 . S
Eu616 O634 2.373 . S
Eu616 O637 2.488 . S
Eu616 O638 2.471 . S
Eu616 O639 2.349 . S
Eu617 O626 2.373 . S
Eu617 O630 2.488 . S
Eu617 O631 2.471 . S
Eu617 O632 2.349 . S
Eu617 O635 2.392 . S
Eu617 O636 2.418 . S
Eu617 C646 2.828 . S
C618 O636 1.244 . S
C618 O639 1.265 . S
C619 C620 1.379 . S
C619 C623 1.373 . S
C619 C625 1.505 . S
C620 C619 1.379 . S
C620 C622 1.369 . S
C620 H648 0.930 . S
C621 C623 1.383 . S
C621 C624 1.382 . S
C621 H649 0.930 . S
C622 C620 1.369 . S
C622 C624 1.392 . S
C622 H650 0.930 . S
C623 C619 1.373 . S
C623 C621 1.383 . S
C623 H651 0.931 . S
C624 C621 1.382 . S
C624 C622 1.392 . S
C625 Eu616 2.828 . S
C625 C619 1.505 . S
C625 O637 1.249 . S
C625 O638 1.244 . S
O626 Eu617 2.373 . S
O626 C628 1.258 . S
O627 Eu616 2.392 . S
O627 C628 1.242 . S
C628 O626 1.258 . S
C628 O627 1.242 . S
O629 Eu616 2.418 . S
O629 C633 1.244 . S
O630 Eu617 2.488 . S
O630 C646 1.249 . S
O631 Eu617 2.471 . S
O631 C646 1.244 . S
O632 Eu617 2.349 . S
O632 C633 1.265 . S
C633 O629 1.244 . S
C633 O632 1.265 . S
O634 Eu616 2.373 . S
O634 C647 1.258 . S
O635 Eu617 2.392 . S
O635 C647 1.242 . S
O636 Eu617 2.418 . S
O636 C618 1.244 . S
O637 Eu616 2.488 . S
O637 C625 1.249 . S
O638 Eu616 2.471 . S
O638 C625 1.244 . S
O639 Eu616 2.349 . S
O639 C618 1.265 . S
C640 C641 1.379 . S
C640 C644 1.373 . S
C640 C646 1.505 . S
C641 C640 1.379 . S
C641 C643 1.369 . S
C641 H652 0.930 . S
C642 C644 1.383 . S
C642 C645 1.382 . S
C642 H653 0.930 . S
C643 C641 1.369 . S
C643 C645 1.392 . S
C643 H654 0.930 . S
C644 C640 1.373 . S
C644 C642 1.383 . S
C644 H655 0.931 . S
C645 C642 1.382 . S
C645 C643 1.392 . S
C646 Eu617 2.828 . S
C646 O630 1.249 . S
C646 O631 1.244 . S
C646 C640 1.505 . S
C647 O634 1.258 . S
C647 O635 1.242 . S
H648 C620 0.930 . S
H649 C621 0.930 . S
H650 C622 0.930 . S
H651 C623 0.931 . S
H652 C641 0.930 . S
H653 C642 0.930 . S
H654 C643 0.930 . S
H655 C644 0.931 . S
Eu656 C665 2.828 . S
Eu656 O667 2.392 . S
Eu656 O669 2.418 . S
Eu656 O674 2.373 1_554 S
Eu656 O677 2.488 . S
Eu656 O678 2.471 . S
Eu656 O679 2.349 . S
Eu657 O666 2.373 . S
Eu657 O670 2.488 . S
Eu657 O671 2.471 . S
Eu657 O672 2.349 . S
Eu657 O675 2.392 1_554 S
Eu657 O676 2.418 . S
Eu657 C686 2.828 . S
C658 O676 1.244 . S
C658 O679 1.265 . S
C659 C660 1.379 1_554 S
C659 C663 1.373 . S
C659 C665 1.505 . S
C660 C659 1.379 1_556 S
C660 C662 1.369 . S
C660 H688 0.930 . S
C661 C663 1.383 1_556 S
C661 C664 1.382 . S
C661 H689 0.927 1_556 S
C662 C660 1.369 . S
C662 C664 1.392 . S
C662 H690 0.930 . S
C663 C659 1.373 . S
C663 C661 1.383 1_554 S
C663 H691 0.931 . S
C664 C661 1.382 . S
C664 C662 1.392 . S
C665 Eu656 2.828 . S
C665 C659 1.505 . S
C665 O677 1.249 . S
C665 O678 1.244 . S
O666 Eu657 2.373 . S
O666 C668 1.258 . S
O667 Eu656 2.392 . S
O667 C668 1.242 . S
C668 O666 1.258 . S
C668 O667 1.242 . S
O669 Eu656 2.418 . S
O669 C673 1.244 . S
O670 Eu657 2.488 . S
O670 C686 1.249 . S
O671 Eu657 2.471 . S
O671 C686 1.244 . S
O672 Eu657 2.349 . S
O672 C673 1.265 . S
C673 O669 1.244 . S
C673 O672 1.265 . S
O674 Eu656 2.373 1_556 S
O674 C687 1.258 . S
O675 Eu657 2.392 1_556 S
O675 C687 1.242 . S
O676 Eu657 2.418 . S
O676 C658 1.244 . S
O677 Eu656 2.488 . S
O677 C665 1.249 . S
O678 Eu656 2.471 . S
O678 C665 1.244 . S
O679 Eu656 2.349 . S
O679 C658 1.265 . S
C680 C681 1.379 . S
C680 C684 1.373 . S
C680 C686 1.505 . S
C681 C680 1.379 . S
C681 C683 1.369 . S
C681 H692 0.930 . S
C682 C684 1.383 . S
C682 C685 1.382 . S
C682 H693 0.930 . S
C683 C681 1.369 . S
C683 C685 1.392 . S
C683 H694 0.930 . S
C684 C680 1.373 . S
C684 C682 1.383 . S
C684 H695 0.931 . S
C685 C682 1.382 . S
C685 C683 1.392 . S
C686 Eu657 2.828 . S
C686 O670 1.249 . S
C686 O671 1.244 . S
C686 C680 1.505 . S
C687 O674 1.258 . S
C687 O675 1.242 . S
H688 C660 0.930 . S
H689 C661 0.927 1_554 S
H690 C662 0.930 . S
H691 C663 0.931 . S
H692 C681 0.930 . S
H693 C682 0.930 . S
H694 C683 0.930 . S
H695 C684 0.931 . S
Eu696 C705 2.828 . S
Eu696 O707 2.392 . S
Eu696 O709 2.418 . S
Eu696 O714 2.373 . S
Eu696 O717 2.488 . S
Eu696 O718 2.471 . S
Eu696 O719 2.349 . S
Eu697 O706 2.373 . S
Eu697 O710 2.488 . S
Eu697 O711 2.471 . S
Eu697 O712 2.349 . S
Eu697 O715 2.392 . S
Eu697 O716 2.418 . S
Eu697 C726 2.828 . S
C698 O716 1.244 . S
C698 O719 1.265 . S
C699 C700 1.379 . S
C699 C703 1.373 . S
C699 C705 1.505 . S
C700 C699 1.379 . S
C700 C702 1.369 . S
C700 H728 0.930 . S
C701 C703 1.383 . S
C701 C704 1.382 1_655 S
C701 H729 0.930 1_655 S
C702 C700 1.369 . S
C702 C704 1.392 1_655 S
C702 H730 0.930 . S
C703 C699 1.373 . S
C703 C701 1.383 . S
C703 H731 0.931 . S
C704 C701 1.382 1_455 S
C704 C702 1.392 1_455 S
C705 Eu696 2.828 . S
C705 C699 1.505 . S
C705 O717 1.249 . S
C705 O718 1.244 . S
O706 Eu697 2.373 . S
O706 C708 1.258 . S
O707 Eu696 2.392 . S
O707 C708 1.242 . S
C708 O706 1.258 . S
C708 O707 1.242 . S
O709 Eu696 2.418 . S
O709 C713 1.244 . S
O710 Eu697 2.488 . S
O710 C726 1.249 . S
O711 Eu697 2.471 . S
O711 C726 1.244 . S
O712 Eu697 2.349 . S
O712 C713 1.265 . S
C713 O709 1.244 . S
C713 O712 1.265 . S
O714 Eu696 2.373 . S
O714 C727 1.258 . S
O715 Eu697 2.392 . S
O715 C727 1.242 . S
O716 Eu697 2.418 . S
O716 C698 1.244 . S
O717 Eu696 2.488 . S
O717 C705 1.249 . S
O718 Eu696 2.471 . S
O718 C705 1.244 . S
O719 Eu696 2.349 . S
O719 C698 1.265 . S
C720 C721 1.379 . S
C720 C724 1.373 . S
C720 C726 1.505 . S
C721 C720 1.379 . S
C721 C723 1.369 . S
C721 H732 0.930 . S
C722 C724 1.383 . S
C722 C725 1.382 . S
C722 H733 0.930 . S
C723 C721 1.369 . S
C723 C725 1.392 . S
C723 H734 0.930 . S
C724 C720 1.373 . S
C724 C722 1.383 . S
C724 H735 0.931 . S
C725 C722 1.382 . S
C725 C723 1.392 . S
C726 Eu697 2.828 . S
C726 O710 1.249 . S
C726 O711 1.244 . S
C726 C720 1.505 . S
C727 O714 1.258 . S
C727 O715 1.242 . S
H728 C700 0.930 . S
H729 C701 0.930 1_455 S
H730 C702 0.930 . S
H731 C703 0.931 . S
H732 C721 0.930 . S
H733 C722 0.930 . S
H734 C723 0.930 . S
H735 C724 0.931 . S
Eu736 C745 2.828 . S
Eu736 O747 2.392 . S
Eu736 O749 2.418 . S
Eu736 O754 2.373 . S
Eu736 O757 2.488 . S
Eu736 O758 2.471 . S
Eu736 O759 2.349 . S
Eu737 O746 2.373 . S
Eu737 O750 2.488 . S
Eu737 O751 2.471 . S
Eu737 O752 2.349 . S
Eu737 O755 2.392 . S
Eu737 O756 2.418 . S
Eu737 C766 2.828 . S
C738 O756 1.244 . S
C738 O759 1.265 . S
C739 C740 1.400 . S
C739 C743 1.373 . S
C739 C745 1.505 . S
C740 C739 1.400 . S
C740 C742 1.353 1_455 S
C740 H768 0.922 1_455 S
C741 C743 1.383 . S
C741 C744 1.382 1_455 S
C741 H769 0.930 . S
C742 C740 1.353 1_655 S
C742 C744 1.392 . S
C742 H770 0.930 . S
C743 C739 1.373 . S
C743 C741 1.383 . S
C743 H771 0.931 . S
C744 C741 1.382 1_655 S
C744 C742 1.392 . S
C745 Eu736 2.828 . S
C745 C739 1.505 . S
C745 O757 1.249 . S
C745 O758 1.244 . S
O746 Eu737 2.373 . S
O746 C748 1.258 . S
O747 Eu736 2.392 . S
O747 C748 1.242 . S
C748 O746 1.258 . S
C748 O747 1.242 . S
O749 Eu736 2.418 . S
O749 C753 1.244 . S
O750 Eu737 2.488 . S
O750 C766 1.249 . S
O751 Eu737 2.471 . S
O751 C766 1.244 . S
O752 Eu737 2.349 . S
O752 C753 1.265 . S
C753 O749 1.244 . S
C753 O752 1.265 . S
O754 Eu736 2.373 . S
O754 C767 1.258 . S
O755 Eu737 2.392 . S
O755 C767 1.242 . S
O756 Eu737 2.418 . S
O756 C738 1.244 . S
O757 Eu736 2.488 . S
O757 C745 1.249 . S
O758 Eu736 2.471 . S
O758 C745 1.244 . S
O759 Eu736 2.349 . S
O759 C738 1.265 . S
C760 C761 1.379 . S
C760 C764 1.373 . S
C760 C766 1.505 . S
C761 C760 1.379 . S
C761 C763 1.369 . S
C761 H772 0.930 . S
C762 C764 1.383 . S
C762 C765 1.382 . S
C762 H773 0.930 . S
C763 C761 1.369 . S
C763 C765 1.392 . S
C763 H774 0.930 . S
C764 C760 1.373 . S
C764 C762 1.383 . S
C764 H775 0.931 . S
C765 C762 1.382 . S
C765 C763 1.392 . S
C766 Eu737 2.828 . S
C766 O750 1.249 . S
C766 O751 1.244 . S
C766 C760 1.505 . S
C767 O754 1.258 . S
C767 O755 1.242 . S
H768 C740 0.922 1_655 S
H769 C741 0.930 . S
H770 C742 0.930 . S
H771 C743 0.931 . S
H772 C761 0.930 . S
H773 C762 0.930 . S
H774 C763 0.930 . S
H775 C764 0.931 . S
Eu776 C785 2.828 . S
Eu776 O787 2.392 . S
Eu776 O789 2.418 . S
Eu776 O794 2.373 . S
Eu776 O797 2.488 . S
Eu776 O798 2.471 . S
Eu776 O799 2.349 . S
Eu777 O786 2.373 . S
Eu777 O790 2.488 . S
Eu777 O791 2.471 . S
Eu777 O792 2.349 . S
Eu777 O795 2.392 . S
Eu777 O796 2.418 . S
Eu777 C806 2.828 . S
C778 O796 1.244 . S
C778 O799 1.265 . S
C779 C780 1.379 . S
C779 C783 1.373 . S
C779 C785 1.505 . S
C780 C779 1.379 . S
C780 C782 1.369 . S
C780 H808 0.930 . S
C781 C783 1.383 . S
C781 C784 1.382 . S
C781 H809 0.930 . S
C782 C780 1.369 . S
C782 C784 1.392 . S
C782 H810 0.930 . S
C783 C779 1.373 . S
C783 C781 1.383 . S
C783 H811 0.931 . S
C784 C781 1.382 . S
C784 C782 1.392 . S
C785 Eu776 2.828 . S
C785 C779 1.505 . S
C785 O797 1.249 . S
C785 O798 1.244 . S
O786 Eu777 2.373 . S
O786 C788 1.258 . S
O787 Eu776 2.392 . S
O787 C788 1.242 . S
C788 O786 1.258 . S
C788 O787 1.242 . S
O789 Eu776 2.418 . S
O789 C793 1.244 . S
O790 Eu777 2.488 . S
O790 C806 1.249 . S
O791 Eu777 2.471 . S
O791 C806 1.244 . S
O792 Eu777 2.349 . S
O792 C793 1.265 . S
C793 O789 1.244 . S
C793 O792 1.265 . S
O794 Eu776 2.373 . S
O794 C807 1.258 . S
O795 Eu777 2.392 . S
O795 C807 1.242 . S
O796 Eu777 2.418 . S
O796 C778 1.244 . S
O797 Eu776 2.488 . S
O797 C785 1.249 . S
O798 Eu776 2.471 . S
O798 C785 1.244 . S
O799 Eu776 2.349 . S
O799 C778 1.265 . S
C800 C801 1.379 . S
C800 C804 1.373 . S
C800 C806 1.505 . S
C801 C800 1.379 . S
C801 C803 1.369 . S
C801 H812 0.930 . S
C802 C804 1.383 . S
C802 C805 1.382 . S
C802 H813 0.930 . S
C803 C801 1.369 . S
C803 C805 1.392 . S
C803 H814 0.930 . S
C804 C800 1.373 . S
C804 C802 1.383 . S
C804 H815 0.931 . S
C805 C802 1.382 . S
C805 C803 1.392 . S
C806 Eu777 2.828 . S
C806 O790 1.249 . S
C806 O791 1.244 . S
C806 C800 1.505 . S
C807 O794 1.258 . S
C807 O795 1.242 . S
H808 C780 0.930 . S
H809 C781 0.930 . S
H810 C782 0.930 . S
H811 C783 0.931 . S
H812 C801 0.930 . S
H813 C802 0.930 . S
H814 C803 0.930 . S
H815 C804 0.931 . S
Eu816 C825 2.828 . S
Eu816 O827 2.392 . S
Eu816 O829 2.418 . S
Eu816 O834 2.373 . S
Eu816 O837 2.488 . S
Eu816 O838 2.471 . S
Eu816 O839 2.349 . S
Eu817 O826 2.373 . S
Eu817 O830 2.488 . S
Eu817 O831 2.471 . S
Eu817 O832 2.349 . S
Eu817 O835 2.392 . S
Eu817 O836 2.418 . S
Eu817 C846 2.828 . S
C818 O836 1.244 . S
C818 O839 1.265 . S
C819 C820 1.379 . S
C819 C823 1.373 . S
C819 C825 1.505 . S
C820 C819 1.379 . S
C820 C822 1.369 . S
C820 H848 0.930 . S
C821 C823 1.383 . S
C821 C824 1.382 . S
C821 H849 0.930 . S
C822 C820 1.369 . S
C822 C824 1.392 . S
C822 H850 0.930 . S
C823 C819 1.373 . S
C823 C821 1.383 . S
C823 H851 0.931 . S
C824 C821 1.382 . S
C824 C822 1.392 . S
C825 Eu816 2.828 . S
C825 C819 1.505 . S
C825 O837 1.249 . S
C825 O838 1.244 . S
O826 Eu817 2.373 . S
O826 C828 1.258 . S
O827 Eu816 2.392 . S
O827 C828 1.242 . S
C828 O826 1.258 . S
C828 O827 1.242 . S
O829 Eu816 2.418 . S
O829 C833 1.244 . S
O830 Eu817 2.488 . S
O830 C846 1.249 . S
O831 Eu817 2.471 . S
O831 C846 1.244 . S
O832 Eu817 2.349 . S
O832 C833 1.265 . S
C833 O829 1.244 . S
C833 O832 1.265 . S
O834 Eu816 2.373 . S
O834 C847 1.258 . S
O835 Eu817 2.392 . S
O835 C847 1.242 . S
O836 Eu817 2.418 . S
O836 C818 1.244 . S
O837 Eu816 2.488 . S
O837 C825 1.249 . S
O838 Eu816 2.471 . S
O838 C825 1.244 . S
O839 Eu816 2.349 . S
O839 C818 1.265 . S
C840 C841 1.379 . S
C840 C844 1.373 . S
C840 C846 1.505 . S
C841 C840 1.379 . S
C841 C843 1.369 . S
C841 H852 0.930 . S
C842 C844 1.383 . S
C842 C845 1.382 . S
C842 H853 0.930 . S
C843 C841 1.369 . S
C843 C845 1.392 . S
C843 H854 0.930 . S
C844 C840 1.373 . S
C844 C842 1.383 . S
C844 H855 0.931 . S
C845 C842 1.382 . S
C845 C843 1.392 . S
C846 Eu817 2.828 . S
C846 O830 1.249 . S
C846 O831 1.244 . S
C846 C840 1.505 . S
C847 O834 1.258 . S
C847 O835 1.242 . S
H848 C820 0.930 . S
H849 C821 0.930 . S
H850 C822 0.930 . S
H851 C823 0.931 . S
H852 C841 0.930 . S
H853 C842 0.930 . S
H854 C843 0.930 . S
H855 C844 0.931 . S
Eu856 C865 2.828 . S
Eu856 O867 2.392 . S
Eu856 O869 2.418 . S
Eu856 O874 2.373 . S
Eu856 O877 2.488 . S
Eu856 O878 2.471 . S
Eu856 O879 2.349 . S
Eu857 O866 2.373 . S
Eu857 O870 2.488 . S
Eu857 O871 2.471 . S
Eu857 O872 2.349 . S
Eu857 O875 2.392 . S
Eu857 O876 2.418 . S
Eu857 C886 2.828 . S
C858 O876 1.244 . S
C858 O879 1.265 . S
C859 C860 1.379 . S
C859 C863 1.373 . S
C859 C865 1.505 . S
C860 C859 1.379 . S
C860 C862 1.369 . S
C860 H888 0.930 . S
C861 C863 1.383 . S
C861 C864 1.382 . S
C861 H889 0.930 . S
C862 C860 1.369 . S
C862 C864 1.392 . S
C862 H890 0.930 . S
C863 C859 1.373 . S
C863 C861 1.383 . S
C863 H891 0.931 . S
C864 C861 1.382 . S
C864 C862 1.392 . S
C865 Eu856 2.828 . S
C865 C859 1.505 . S
C865 O877 1.249 . S
C865 O878 1.244 . S
O866 Eu857 2.373 . S
O866 C868 1.258 . S
O867 Eu856 2.392 . S
O867 C868 1.242 . S
C868 O866 1.258 . S
C868 O867 1.242 . S
O869 Eu856 2.418 . S
O869 C873 1.244 . S
O870 Eu857 2.488 . S
O870 C886 1.249 . S
O871 Eu857 2.471 . S
O871 C886 1.244 . S
O872 Eu857 2.349 . S
O872 C873 1.265 . S
C873 O869 1.244 . S
C873 O872 1.265 . S
O874 Eu856 2.373 . S
O874 C887 1.258 . S
O875 Eu857 2.392 . S
O875 C887 1.242 . S
O876 Eu857 2.418 . S
O876 C858 1.244 . S
O877 Eu856 2.488 . S
O877 C865 1.249 . S
O878 Eu856 2.471 . S
O878 C865 1.244 . S
O879 Eu856 2.349 . S
O879 C858 1.265 . S
C880 C881 1.379 . S
C880 C884 1.373 . S
C880 C886 1.505 . S
C881 C880 1.379 . S
C881 C883 1.369 . S
C881 H892 0.930 . S
C882 C884 1.383 . S
C882 C885 1.382 . S
C882 H893 0.930 . S
C883 C881 1.369 . S
C883 C885 1.392 . S
C883 H894 0.930 . S
C884 C880 1.373 . S
C884 C882 1.383 . S
C884 H895 0.931 . S
C885 C882 1.382 . S
C885 C883 1.392 . S
C886 Eu857 2.828 . S
C886 O870 1.249 . S
C886 O871 1.244 . S
C886 C880 1.505 . S
C887 O874 1.258 . S
C887 O875 1.242 . S
H888 C860 0.930 . S
H889 C861 0.930 . S
H890 C862 0.930 . S
H891 C863 0.931 . S
H892 C881 0.930 . S
H893 C882 0.930 . S
H894 C883 0.930 . S
H895 C884 0.931 . S
Eu896 C905 2.828 . S
Eu896 O907 2.392 . S
Eu896 O909 2.418 . S
Eu896 O914 2.373 . S
Eu896 O917 2.488 . S
Eu896 O918 2.471 . S
Eu896 O919 2.349 . S
Eu897 O906 2.373 . S
Eu897 O910 2.488 . S
Eu897 O911 2.471 . S
Eu897 O912 2.349 . S
Eu897 O915 2.392 . S
Eu897 O916 2.418 . S
Eu897 C926 2.828 . S
C898 O916 1.244 . S
C898 O919 1.265 . S
C899 C900 1.379 . S
C899 C903 1.373 . S
C899 C905 1.505 . S
C900 C899 1.379 . S
C900 C902 1.369 . S
C900 H928 0.930 . S
C901 C903 1.383 . S
C901 C904 1.382 . S
C901 H929 0.930 . S
C902 C900 1.369 . S
C902 C904 1.392 . S
C902 H930 0.930 . S
C903 C899 1.373 . S
C903 C901 1.383 . S
C903 H931 0.931 . S
C904 C901 1.382 . S
C904 C902 1.392 . S
C905 Eu896 2.828 . S
C905 C899 1.505 . S
C905 O917 1.249 . S
C905 O918 1.244 . S
O906 Eu897 2.373 . S
O906 C908 1.258 . S
O907 Eu896 2.392 . S
O907 C908 1.242 . S
C908 O906 1.258 . S
C908 O907 1.242 . S
O909 Eu896 2.418 . S
O909 C913 1.244 . S
O910 Eu897 2.488 . S
O910 C926 1.249 . S
O911 Eu897 2.471 . S
O911 C926 1.244 . S
O912 Eu897 2.349 . S
O912 C913 1.265 . S
C913 O909 1.244 . S
C913 O912 1.265 . S
O914 Eu896 2.373 . S
O914 C927 1.258 . S
O915 Eu897 2.392 . S
O915 C927 1.242 . S
O916 Eu897 2.418 . S
O916 C898 1.244 . S
O917 Eu896 2.488 . S
O917 C905 1.249 . S
O918 Eu896 2.471 . S
O918 C905 1.244 . S
O919 Eu896 2.349 . S
O919 C898 1.265 . S
C920 C921 1.379 . S
C920 C924 1.373 . S
C920 C926 1.505 . S
C921 C920 1.379 . S
C921 C923 1.369 . S
C921 H932 0.930 . S
C922 C924 1.383 . S
C922 C925 1.382 . S
C922 H933 0.930 . S
C923 C921 1.369 . S
C923 C925 1.392 . S
C923 H934 0.930 . S
C924 C920 1.373 . S
C924 C922 1.383 . S
C924 H935 0.931 . S
C925 C922 1.382 . S
C925 C923 1.392 . S
C926 Eu897 2.828 . S
C926 O910 1.249 . S
C926 O911 1.244 . S
C926 C920 1.505 . S
C927 O914 1.258 . S
C927 O915 1.242 . S
H928 C900 0.930 . S
H929 C901 0.930 . S
H930 C902 0.930 . S
H931 C903 0.931 . S
H932 C921 0.930 . S
H933 C922 0.930 . S
H934 C923 0.930 . S
H935 C924 0.931 . S
Eu936 C945 2.828 1_554 S
Eu936 O947 2.392 . S
Eu936 O949 2.418 1_554 S
Eu936 O954 2.373 1_554 S
Eu936 O957 2.488 1_554 S
Eu936 O958 2.471 . S
Eu936 O959 2.349 . S
Eu937 O946 2.373 . S
Eu937 O950 2.488 1_455 S
Eu937 O951 2.471 1_455 S
Eu937 O952 2.349 1_554 S
Eu937 O955 2.392 . S
Eu937 O956 2.418 . S
Eu937 C966 2.828 1_455 S
C938 O956 1.244 . S
C938 O959 1.265 . S
C939 C940 1.379 1_556 S
C939 C943 1.373 . S
C939 C945 1.505 . S
C940 C939 1.379 1_554 S
C940 C942 1.369 . S
C940 H968 0.930 . S
C941 C943 1.383 . S
C941 C944 1.382 . S
C941 H969 0.930 . S
C942 C940 1.369 . S
C942 C944 1.392 1_554 S
C942 H970 0.930 . S
C943 C939 1.373 . S
C943 C941 1.383 . S
C943 H971 0.931 . S
C944 C941 1.382 . S
C944 C942 1.392 1_556 S
C945 Eu936 2.828 1_556 S
C945 C939 1.505 . S
C945 O957 1.249 . S
C945 O958 1.244 1_556 S
O946 Eu937 2.373 . S
O946 C948 1.258 . S
O947 Eu936 2.392 . S
O947 C948 1.242 . S
C948 O946 1.258 . S
C948 O947 1.242 . S
O949 Eu936 2.418 1_556 S
O949 C953 1.244 . S
O950 Eu937 2.488 1_655 S
O950 C966 1.249 . S
O951 Eu937 2.471 1_655 S
O951 C966 1.244 . S
O952 Eu937 2.349 1_556 S
O952 C953 1.265 . S
C953 O949 1.244 . S
C953 O952 1.265 . S
O954 Eu936 2.373 1_556 S
O954 C967 1.258 1_556 S
O955 Eu937 2.392 . S
O955 C967 1.242 . S
O956 Eu937 2.418 . S
O956 C938 1.244 . S
O957 Eu936 2.488 1_556 S
O957 C945 1.249 . S
O958 Eu936 2.471 . S
O958 C945 1.244 1_554 S
O959 Eu936 2.349 . S
O959 C938 1.265 . S
C960 C961 1.379 . S
C960 C964 1.373 . S
C960 C966 1.505 . S
C961 C960 1.379 . S
C961 C963 1.369 . S
C961 H972 0.930 . S
C962 C964 1.383 . S
C962 C965 1.382 . S
C962 H973 0.930 . S
C963 C961 1.369 . S
C963 C965 1.392 . S
C963 H974 0.930 . S
C964 C960 1.373 . S
C964 C962 1.383 . S
C964 H975 0.931 . S
C965 C962 1.382 . S
C965 C963 1.392 . S
C966 Eu937 2.828 1_655 S
C966 O950 1.249 . S
C966 O951 1.244 . S
C966 C960 1.505 . S
C967 O954 1.258 1_554 S
C967 O955 1.242 . S
H968 C940 0.930 . S
H969 C941 0.930 . S
H970 C942 0.930 . S
H971 C943 0.931 . S
H972 C961 0.930 . S
H973 C962 0.930 . S
H974 C963 0.930 . S
H975 C964 0.931 . S
C976 C977 1.387 . S
C976 H980 0.950 . S
C976 C985 1.390 . S
C977 C976 1.387 . S
C977 C979 1.387 . S
H978 C985 0.950 . S
C979 C977 1.387 . S
C979 C981 1.390 . S
C979 H983 0.950 . S
H980 C976 0.950 . S
C981 C979 1.390 . S
C981 C982 1.387 . S
C981 H984 0.950 1_556 S
C982 C981 1.387 . S
C982 C985 1.387 . S
H983 C979 0.950 . S
H984 C981 0.950 1_554 S
C985 C976 1.390 . S
C985 H978 0.950 . S
C985 C982 1.387 . S
C986 C987 1.387 . S
C986 H990 0.950 . S
C986 C995 1.390 . S
C987 C986 1.387 . S
C987 C989 1.387 . S
H988 C995 0.950 . S
C989 C987 1.387 . S
C989 C991 1.390 . S
C989 H993 0.950 . S
H990 C986 0.950 . S
C991 C989 1.390 . S
C991 C992 1.387 . S
C991 H994 0.950 . S
C992 C991 1.387 . S
C992 C995 1.387 . S
H993 C989 0.950 . S
H994 C991 0.950 . S
C995 C986 1.390 . S
C995 H988 0.950 . S
C995 C992 1.387 . S
C996 C997 1.387 . S
C996 H1000 0.950 . S
C996 C1005 1.390 . S
C997 C996 1.387 . S
C997 C999 1.387 . S
H998 C1005 0.950 . S
C999 C997 1.387 . S
C999 C1001 1.390 . S
C999 H1003 0.950 . S
H1000 C996 0.950 . S
C1001 C999 1.390 . S
C1001 C1002 1.387 . S
C1001 H1004 0.950 . S
C1002 C1001 1.387 . S
C1002 C1005 1.387 . S
H1003 C999 0.950 . S
H1004 C1001 0.950 . S
C1005 C996 1.390 . S
C1005 H998 0.950 . S
C1005 C1002 1.387 . S
C1006 C1007 1.387 . S
C1006 H1010 0.950 . S
C1006 C1015 1.390 . S
C1007 C1006 1.387 . S
C1007 C1009 1.387 . S
H1008 C1015 0.950 . S
C1009 C1007 1.387 . S
C1009 C1011 1.390 . S
C1009 H1013 0.950 . S
H1010 C1006 0.950 . S
C1011 C1009 1.390 . S
C1011 C1012 1.387 . S
C1011 H1014 0.950 . S
C1012 C1011 1.387 . S
C1012 C1015 1.387 . S
H1013 C1009 0.950 . S
H1014 C1011 0.950 . S
C1015 C1006 1.390 . S
C1015 H1008 0.950 . S
C1015 C1012 1.387 . S
C1016 C1017 1.387 . S
C1016 H1020 0.950 . S
C1016 C1025 1.390 . S
C1017 C1016 1.387 . S
C1017 C1019 1.387 . S
H1018 C1025 0.950 . S
C1019 C1017 1.387 . S
C1019 C1021 1.390 . S
C1019 H1023 0.950 . S
H1020 C1016 0.950 . S
C1021 C1019 1.390 . S
C1021 C1022 1.387 . S
C1021 H1024 0.950 . S
C1022 C1021 1.387 . S
C1022 C1025 1.387 . S
H1023 C1019 0.950 . S
H1024 C1021 0.950 . S
C1025 C1016 1.390 . S
C1025 H1018 0.950 . S
C1025 C1022 1.387 . S
C1026 C1027 1.387 . S
C1026 H1030 0.950 . S
C1026 C1035 1.390 . S
C1027 C1026 1.387 . S
C1027 C1029 1.387 . S
H1028 C1035 0.950 . S
C1029 C1027 1.387 . S
C1029 C1031 1.390 . S
C1029 H1033 0.950 . S
H1030 C1026 0.950 . S
C1031 C1029 1.390 . S
C1031 C1032 1.387 . S
C1031 H1034 0.950 . S
C1032 C1031 1.387 . S
C1032 C1035 1.387 . S
H1033 C1029 0.950 . S
H1034 C1031 0.950 . S
C1035 C1026 1.390 . S
C1035 H1028 0.950 . S
C1035 C1032 1.387 . S
C1036 C1037 1.387 . S
C1036 H1040 0.950 . S
C1036 C1045 1.390 . S
C1037 C1036 1.387 . S
C1037 C1039 1.387 . S
H1038 C1045 0.950 . S
C1039 C1037 1.387 . S
C1039 C1041 1.390 . S
C1039 H1043 0.950 . S
H1040 C1036 0.950 . S
C1041 C1039 1.390 . S
C1041 C1042 1.387 . S
C1041 H1044 0.950 . S
C1042 C1041 1.387 . S
C1042 C1045 1.387 . S
H1043 C1039 0.950 . S
H1044 C1041 0.950 . S
C1045 C1036 1.390 . S
C1045 H1038 0.950 . S
C1045 C1042 1.387 . S
C1046 C1047 1.387 . S
C1046 H1050 0.950 . S
C1046 C1055 1.390 . S
C1047 C1046 1.387 . S
C1047 C1049 1.387 . S
H1048 C1055 0.950 . S
C1049 C1047 1.387 . S
C1049 C1051 1.390 . S
C1049 H1053 0.950 . S
H1050 C1046 0.950 . S
C1051 C1049 1.390 . S
C1051 C1052 1.387 . S
C1051 H1054 0.950 . S
C1052 C1051 1.387 . S
C1052 C1055 1.387 . S
H1053 C1049 0.950 . S
H1054 C1051 0.950 . S
C1055 C1046 1.390 . S
C1055 H1048 0.950 . S
C1055 C1052 1.387 . S
C1056 C1057 1.387 . S
C1056 H1060 0.950 . S
C1056 C1065 1.390 . S
C1057 C1056 1.387 . S
C1057 C1059 1.387 . S
H1058 C1065 0.950 . S
C1059 C1057 1.387 . S
C1059 C1061 1.390 . S
C1059 H1063 0.950 . S
H1060 C1056 0.950 . S
C1061 C1059 1.390 . S
C1061 C1062 1.387 . S
C1061 H1064 0.950 . S
C1062 C1061 1.387 . S
C1062 C1065 1.387 . S
H1063 C1059 0.950 . S
H1064 C1061 0.950 . S
C1065 C1056 1.390 . S
C1065 H1058 0.950 . S
C1065 C1062 1.387 . S
C1066 C1067 1.387 . S
C1066 H1070 0.950 . S
C1066 C1075 1.390 . S
C1067 C1066 1.387 . S
C1067 C1069 1.387 . S
H1068 C1075 0.950 . S
C1069 C1067 1.387 . S
C1069 C1071 1.390 . S
C1069 H1073 0.950 . S
H1070 C1066 0.950 . S
C1071 C1069 1.390 . S
C1071 C1072 1.387 . S
C1071 H1074 0.950 . S
C1072 C1071 1.387 . S
C1072 C1075 1.387 . S
H1073 C1069 0.950 . S
H1074 C1071 0.950 . S
C1075 C1066 1.390 . S
C1075 H1068 0.950 . S
C1075 C1072 1.387 . S
C1076 C1077 1.387 . S
C1076 H1080 0.950 . S
C1076 C1085 1.390 . S
C1077 C1076 1.387 . S
C1077 C1079 1.387 . S
H1078 C1085 0.950 . S
C1079 C1077 1.387 . S
C1079 C1081 1.390 . S
C1079 H1083 0.950 . S
H1080 C1076 0.950 . S
C1081 C1079 1.390 . S
C1081 C1082 1.387 . S
C1081 H1084 0.950 . S
C1082 C1081 1.387 . S
C1082 C1085 1.387 . S
H1083 C1079 0.950 . S
H1084 C1081 0.950 . S
C1085 C1076 1.390 . S
C1085 H1078 0.950 . S
C1085 C1082 1.387 . S
C1086 C1087 1.387 . S
C1086 H1090 0.950 . S
C1086 C1095 1.390 . S
C1087 C1086 1.387 . S
C1087 C1089 1.387 . S
H1088 C1095 0.950 . S
C1089 C1087 1.387 . S
C1089 C1091 1.390 . S
C1089 H1093 0.950 . S
H1090 C1086 0.950 . S
C1091 C1089 1.390 . S
C1091 C1092 1.387 . S
C1091 H1094 0.950 . S
C1092 C1091 1.387 . S
C1092 C1095 1.387 . S
H1093 C1089 0.950 . S
H1094 C1091 0.950 . S
C1095 C1086 1.390 . S
C1095 H1088 0.950 . S
C1095 C1092 1.387 . S
C1096 C1097 1.387 1_655 S
C1096 H1100 0.950 . S
C1096 C1105 1.390 1_655 S
C1097 C1096 1.387 1_455 S
C1097 C1099 1.387 . S
H1098 C1105 0.950 1_655 S
C1099 C1097 1.387 . S
C1099 C1101 1.390 . S
C1099 H1103 0.950 . S
H1100 C1096 0.950 . S
C1101 C1099 1.390 . S
C1101 C1102 1.387 . S
C1101 H1104 0.950 . S
C1102 C1101 1.387 . S
C1102 C1105 1.387 . S
H1103 C1099 0.950 . S
H1104 C1101 0.950 . S
C1105 C1096 1.390 1_455 S
C1105 H1098 0.950 1_455 S
C1105 C1102 1.387 . S
C1106 C1107 1.387 . S
C1106 H1110 0.950 . S
C1106 C1115 1.390 . S
C1107 C1106 1.387 . S
C1107 C1109 1.387 . S
H1108 C1115 0.950 . S
C1109 C1107 1.387 . S
C1109 C1111 1.390 . S
C1109 H1113 0.950 . S
H1110 C1106 0.950 . S
C1111 C1109 1.390 . S
C1111 C1112 1.387 . S
C1111 H1114 0.950 . S
C1112 C1111 1.387 . S
C1112 C1115 1.387 . S
H1113 C1109 0.950 . S
H1114 C1111 0.950 . S
C1115 C1106 1.390 . S
C1115 H1108 0.950 . S
C1115 C1112 1.387 . S
C1116 C1117 1.387 . S
C1116 H1120 0.950 . S
C1116 C1125 1.390 . S
C1117 C1116 1.387 . S
C1117 C1119 1.387 . S
H1118 C1125 0.950 . S
C1119 C1117 1.387 . S
C1119 C1121 1.390 . S
C1119 H1123 0.950 . S
H1120 C1116 0.950 . S
C1121 C1119 1.390 . S
C1121 C1122 1.387 . S
C1121 H1124 0.950 . S
C1122 C1121 1.387 . S
C1122 C1125 1.387 . S
H1123 C1119 0.950 . S
H1124 C1121 0.950 . S
C1125 C1116 1.390 . S
C1125 H1118 0.950 . S
C1125 C1122 1.387 . S
C1126 C1127 1.387 . S
C1126 H1130 0.950 . S
C1126 C1135 1.390 . S
C1127 C1126 1.387 . S
C1127 C1129 1.387 . S
H1128 C1135 0.950 . S
C1129 C1127 1.387 . S
C1129 C1131 1.390 . S
C1129 H1133 0.950 . S
H1130 C1126 0.950 . S
C1131 C1129 1.390 . S
C1131 C1132 1.387 . S
C1131 H1134 0.950 . S
C1132 C1131 1.387 . S
C1132 C1135 1.387 . S
H1133 C1129 0.950 . S
H1134 C1131 0.950 . S
C1135 C1126 1.390 . S
C1135 H1128 0.950 . S
C1135 C1132 1.387 . S
C1136 C1137 1.387 1_546 S
C1136 H1140 0.950 . S
C1136 C1145 1.390 1_556 S
C1137 C1136 1.387 1_564 S
C1137 C1139 1.387 . S
H1138 C1145 0.950 1_556 S
C1139 C1137 1.387 . S
C1139 C1141 1.390 1_565 S
C1139 H1143 0.950 . S
H1140 C1136 0.950 . S
C1141 C1139 1.390 1_545 S
C1141 C1142 1.387 . S
C1141 H1144 0.950 1_545 S
C1142 C1141 1.387 . S
C1142 C1145 1.387 . S
H1143 C1139 0.950 . S
H1144 C1141 0.950 1_565 S
C1145 C1136 1.390 1_554 S
C1145 H1138 0.950 1_554 S
C1145 C1142 1.387 . S
C1146 C1147 1.387 1_556 S
C1146 H1150 0.950 . S
C1146 C1155 1.390 . S
C1147 C1146 1.387 1_554 S
C1147 C1149 1.387 . S
H1148 C1155 0.950 . S
C1149 C1147 1.387 . S
C1149 C1151 1.390 . S
C1149 H1153 0.950 . S
H1150 C1146 0.950 . S
C1151 C1149 1.390 . S
C1151 C1152 1.387 . S
C1151 H1154 0.950 . S
C1152 C1151 1.387 . S
C1152 C1155 1.387 1_554 S
H1153 C1149 0.950 . S
H1154 C1151 0.950 . S
C1155 C1146 1.390 . S
C1155 H1148 0.950 . S
C1155 C1152 1.387 1_556 S
C1156 C1157 1.387 . S
C1156 H1160 0.950 . S
C1156 C1165 1.390 . S
C1157 C1156 1.387 . S
C1157 C1159 1.387 . S
H1158 C1165 0.950 . S
C1159 C1157 1.387 . S
C1159 C1161 1.390 . S
C1159 H1163 0.950 . S
H1160 C1156 0.950 . S
C1161 C1159 1.390 . S
C1161 C1162 1.387 . S
C1161 H1164 0.950 . S
C1162 C1161 1.387 . S
C1162 C1165 1.387 . S
H1163 C1159 0.950 . S
H1164 C1161 0.950 . S
C1165 C1156 1.390 . S
C1165 H1158 0.950 . S
C1165 C1162 1.387 . S
C1166 C1167 1.387 . S
C1166 H1170 0.950 . S
C1166 C1175 1.390 . S
C1167 C1166 1.387 . S
C1167 C1169 1.387 . S
H1168 C1175 0.950 . S
C1169 C1167 1.387 . S
C1169 C1171 1.390 . S
C1169 H1173 0.950 . S
H1170 C1166 0.950 . S
C1171 C1169 1.390 . S
C1171 C1172 1.387 . S
C1171 H1174 0.950 . S
C1172 C1171 1.387 . S
C1172 C1175 1.387 . S
H1173 C1169 0.950 . S
H1174 C1171 0.950 . S
C1175 C1166 1.390 . S
C1175 H1168 0.950 . S
C1175 C1172 1.387 . S
C1176 C1177 1.387 . S
C1176 H1180 0.950 . S
C1176 C1185 1.390 . S
C1177 C1176 1.387 . S
C1177 C1179 1.387 . S
H1178 C1185 0.950 . S
C1179 C1177 1.387 . S
C1179 C1181 1.390 . S
C1179 H1183 0.950 . S
H1180 C1176 0.950 . S
C1181 C1179 1.390 . S
C1181 C1182 1.387 . S
C1181 H1184 0.950 . S
C1182 C1181 1.387 . S
C1182 C1185 1.387 . S
H1183 C1179 0.950 . S
H1184 C1181 0.950 . S
C1185 C1176 1.390 . S
C1185 H1178 0.950 . S
C1185 C1182 1.387 . S
C1186 C1187 1.387 . S
C1186 H1190 0.950 . S
C1186 C1195 1.390 . S
C1187 C1186 1.387 . S
C1187 C1189 1.387 . S
H1188 C1195 0.950 . S
C1189 C1187 1.387 . S
C1189 C1191 1.390 . S
C1189 H1193 0.950 . S
H1190 C1186 0.950 . S
C1191 C1189 1.390 . S
C1191 C1192 1.387 . S
C1191 H1194 0.950 . S
C1192 C1191 1.387 . S
C1192 C1195 1.387 . S
H1193 C1189 0.950 . S
H1194 C1191 0.950 . S
C1195 C1186 1.390 . S
C1195 H1188 0.950 . S
C1195 C1192 1.387 . S
C1196 C1197 1.387 . S
C1196 H1200 0.950 . S
C1196 C1205 1.390 . S
C1197 C1196 1.387 . S
C1197 C1199 1.387 . S
H1198 C1205 0.950 . S
C1199 C1197 1.387 . S
C1199 C1201 1.390 . S
C1199 H1203 0.950 . S
H1200 C1196 0.950 . S
C1201 C1199 1.390 . S
C1201 C1202 1.387 . S
C1201 H1204 0.950 . S
C1202 C1201 1.387 . S
C1202 C1205 1.387 . S
H1203 C1199 0.950 . S
H1204 C1201 0.950 . S
C1205 C1196 1.390 . S
C1205 H1198 0.950 . S
C1205 C1202 1.387 . S
C1206 C1207 1.387 . S
C1206 H1210 0.950 . S
C1206 C1215 1.390 . S
C1207 C1206 1.387 . S
C1207 C1209 1.387 . S
H1208 C1215 0.950 . S
C1209 C1207 1.387 . S
C1209 C1211 1.390 . S
C1209 H1213 0.950 . S
H1210 C1206 0.950 . S
C1211 C1209 1.390 . S
C1211 C1212 1.387 . S
C1211 H1214 0.950 . S
C1212 C1211 1.387 . S
C1212 C1215 1.387 . S
H1213 C1209 0.950 . S
H1214 C1211 0.950 . S
C1215 C1206 1.390 . S
C1215 H1208 0.950 . S
C1215 C1212 1.387 . S
C1216 C1217 1.387 . S
C1216 H1220 0.950 . S
C1216 C1225 1.390 . S
C1217 C1216 1.387 . S
C1217 C1219 1.387 . S
H1218 C1225 0.950 . S
C1219 C1217 1.387 . S
C1219 C1221 1.390 . S
C1219 H1223 0.950 . S
H1220 C1216 0.950 . S
C1221 C1219 1.390 . S
C1221 C1222 1.387 . S
C1221 H1224 0.950 . S
C1222 C1221 1.387 . S
C1222 C1225 1.387 . S
H1223 C1219 0.950 . S
H1224 C1221 0.950 . S
C1225 C1216 1.390 . S
C1225 H1218 0.950 . S
C1225 C1222 1.387 . S
C1226 C1227 1.387 . S
C1226 H1230 0.950 . S
C1226 C1235 1.390 . S
C1227 C1226 1.387 . S
C1227 C1229 1.387 . S
H1228 C1235 0.950 . S
C1229 C1227 1.387 . S
C1229 C1231 1.390 . S
C1229 H1233 0.950 . S
H1230 C1226 0.950 . S
C1231 C1229 1.390 . S
C1231 C1232 1.387 . S
C1231 H1234 0.950 . S
C1232 C1231 1.387 . S
C1232 C1235 1.387 . S
H1233 C1229 0.950 . S
H1234 C1231 0.950 . S
C1235 C1226 1.390 . S
C1235 H1228 0.950 . S
C1235 C1232 1.387 . S
C1236 C1237 1.387 . S
C1236 H1240 0.950 . S
C1236 C1245 1.390 . S
C1237 C1236 1.387 . S
C1237 C1239 1.387 . S
H1238 C1245 0.950 . S
C1239 C1237 1.387 . S
C1239 C1241 1.390 . S
C1239 H1243 0.950 . S
H1240 C1236 0.950 . S
C1241 C1239 1.390 . S
C1241 C1242 1.387 . S
C1241 H1244 0.950 . S
C1242 C1241 1.387 . S
C1242 C1245 1.387 . S
H1243 C1239 0.950 . S
H1244 C1241 0.950 . S
C1245 C1236 1.390 . S
C1245 H1238 0.950 . S
C1245 C1242 1.387 . S
C1246 C1247 1.387 . S
C1246 H1250 0.950 . S
C1246 C1255 1.390 . S
C1247 C1246 1.387 . S
C1247 C1249 1.387 . S
H1248 C1255 0.950 . S
C1249 C1247 1.387 . S
C1249 C1251 1.390 . S
C1249 H1253 0.950 . S
H1250 C1246 0.950 . S
C1251 C1249 1.390 . S
C1251 C1252 1.387 . S
C1251 H1254 0.950 . S
C1252 C1251 1.387 . S
C1252 C1255 1.387 . S
H1253 C1249 0.950 . S
H1254 C1251 0.950 . S
C1255 C1246 1.390 . S
C1255 H1248 0.950 . S
C1255 C1252 1.387 . S
C1256 C1257 1.387 . S
C1256 H1260 0.950 . S
C1256 C1265 1.390 . S
C1257 C1256 1.387 . S
C1257 C1259 1.387 . S
H1258 C1265 0.950 . S
C1259 C1257 1.387 . S
C1259 C1261 1.390 . S
C1259 H1263 0.950 . S
H1260 C1256 0.950 . S
C1261 C1259 1.390 . S
C1261 C1262 1.387 . S
C1261 H1264 0.950 . S
C1262 C1261 1.387 . S
C1262 C1265 1.387 . S
H1263 C1259 0.950 . S
H1264 C1261 0.950 . S
C1265 C1256 1.390 . S
C1265 H1258 0.950 . S
C1265 C1262 1.387 . S
C1266 C1267 1.387 . S
C1266 H1270 0.950 . S
C1266 C1275 1.390 . S
C1267 C1266 1.387 . S
C1267 C1269 1.387 . S
H1268 C1275 0.950 . S
C1269 C1267 1.387 . S
C1269 C1271 1.390 . S
C1269 H1273 0.950 . S
H1270 C1266 0.950 . S
C1271 C1269 1.390 . S
C1271 C1272 1.387 . S
C1271 H1274 0.950 . S
C1272 C1271 1.387 . S
C1272 C1275 1.387 . S
H1273 C1269 0.950 . S
H1274 C1271 0.950 . S
C1275 C1266 1.390 . S
C1275 H1268 0.950 . S
C1275 C1272 1.387 . S
C1276 C1277 1.387 . S
C1276 H1280 0.950 . S
C1276 C1285 1.390 . S
C1277 C1276 1.387 . S
C1277 C1279 1.387 . S
H1278 C1285 0.950 . S
C1279 C1277 1.387 . S
C1279 C1281 1.390 . S
C1279 H1283 0.950 . S
H1280 C1276 0.950 . S
C1281 C1279 1.390 . S
C1281 C1282 1.387 . S
C1281 H1284 0.950 . S
C1282 C1281 1.387 . S
C1282 C1285 1.387 . S
H1283 C1279 0.950 . S
H1284 C1281 0.950 . S
C1285 C1276 1.390 . S
C1285 H1278 0.950 . S
C1285 C1282 1.387 . S
C1286 C1287 1.387 . S
C1286 H1290 0.950 . S
C1286 C1295 1.390 . S
C1287 C1286 1.387 . S
C1287 C1289 1.387 . S
H1288 C1295 0.950 . S
C1289 C1287 1.387 . S
C1289 C1291 1.390 . S
C1289 H1293 0.950 . S
H1290 C1286 0.950 . S
C1291 C1289 1.390 . S
C1291 C1292 1.387 . S
C1291 H1294 0.950 . S
C1292 C1291 1.387 . S
C1292 C1295 1.387 . S
H1293 C1289 0.950 . S
H1294 C1291 0.950 . S
C1295 C1286 1.390 . S
C1295 H1288 0.950 . S
C1295 C1292 1.387 . S
C1296 C1297 1.387 . S
C1296 H1300 0.950 1_545 S
C1296 C1305 1.390 . S
C1297 C1296 1.387 . S
C1297 C1299 1.387 . S
H1298 C1305 0.950 1_565 S
C1299 C1297 1.387 . S
C1299 C1301 1.390 . S
C1299 H1303 0.950 . S
H1300 C1296 0.950 1_565 S
C1301 C1299 1.390 . S
C1301 C1302 1.387 . S
C1301 H1304 0.950 . S
C1302 C1301 1.387 . S
C1302 C1305 1.387 . S
H1303 C1299 0.950 . S
H1304 C1301 0.950 . S
C1305 C1296 1.390 . S
C1305 H1298 0.950 1_545 S
C1305 C1302 1.387 . S
C1306 C1307 1.387 . S
C1306 H1310 0.950 . S
C1306 C1315 1.390 . S
C1307 C1306 1.387 . S
C1307 C1309 1.387 . S
H1308 C1315 0.950 . S
C1309 C1307 1.387 . S
C1309 C1311 1.390 . S
C1309 H1313 0.950 . S
H1310 C1306 0.950 . S
C1311 C1309 1.390 . S
C1311 C1312 1.387 . S
C1311 H1314 0.950 . S
C1312 C1311 1.387 . S
C1312 C1315 1.387 . S
H1313 C1309 0.950 . S
H1314 C1311 0.950 . S
C1315 C1306 1.390 . S
C1315 H1308 0.950 . S
C1315 C1312 1.387 . S
C1316 C1317 1.387 1_565 S
C1316 H1320 0.950 . S
C1316 C1325 1.390 1_565 S
C1317 C1316 1.387 1_545 S
C1317 C1319 1.387 . S
H1318 C1325 0.950 1_565 S
C1319 C1317 1.387 . S
C1319 C1321 1.390 . S
C1319 H1323 0.950 . S
H1320 C1316 0.950 . S
C1321 C1319 1.390 . S
C1321 C1322 1.387 . S
C1321 H1324 0.950 . S
C1322 C1321 1.387 . S
C1322 C1325 1.387 . S
H1323 C1319 0.950 . S
H1324 C1321 0.950 . S
C1325 C1316 1.390 1_545 S
C1325 H1318 0.950 1_545 S
C1325 C1322 1.387 . S
C1326 C1327 1.387 . S
C1326 H1330 0.950 . S
C1326 C1335 1.390 . S
C1327 C1326 1.387 . S
C1327 C1329 1.387 . S
H1328 C1335 0.950 . S
C1329 C1327 1.387 . S
C1329 C1331 1.390 . S
C1329 H1333 0.950 . S
H1330 C1326 0.950 . S
C1331 C1329 1.390 . S
C1331 C1332 1.387 . S
C1331 H1334 0.950 . S
C1332 C1331 1.387 . S
C1332 C1335 1.387 . S
H1333 C1329 0.950 . S
H1334 C1331 0.950 . S
C1335 C1326 1.390 . S
C1335 H1328 0.950 . S
C1335 C1332 1.387 . S
C1336 C1337 1.387 . S
C1336 H1340 0.950 . S
C1336 C1345 1.390 . S
C1337 C1336 1.387 . S
C1337 C1339 1.387 1_545 S
H1338 C1345 0.950 . S
C1339 C1337 1.387 1_565 S
C1339 C1341 1.371 1_565 S
C1339 H1343 0.950 . S
H1340 C1336 0.950 . S
C1341 C1339 1.371 1_545 S
C1341 C1342 1.424 . S
C1341 H1344 0.933 1_545 S
C1342 C1341 1.424 . S
C1342 C1345 1.387 . S
H1343 C1339 0.950 . S
H1344 C1341 0.933 1_565 S
C1345 C1336 1.390 . S
C1345 H1338 0.950 . S
C1345 C1342 1.387 . S
C1346 C1347 1.387 . S
C1346 H1350 0.950 . S
C1346 C1355 1.390 . S
C1347 C1346 1.387 . S
C1347 C1349 1.387 . S
H1348 C1355 0.950 . S
C1349 C1347 1.387 . S
C1349 C1351 1.390 . S
C1349 H1353 0.950 . S
H1350 C1346 0.950 . S
C1351 C1349 1.390 . S
C1351 C1352 1.387 . S
C1351 H1354 0.950 . S
C1352 C1351 1.387 . S
C1352 C1355 1.387 . S
H1353 C1349 0.950 . S
H1354 C1351 0.950 . S
C1355 C1346 1.390 . S
C1355 H1348 0.950 . S
C1355 C1352 1.387 . S
C1356 C1357 1.387 1_545 S
C1356 H1360 0.950 . S
C1356 C1365 1.390 . S
C1357 C1356 1.387 1_565 S
C1357 C1359 1.387 . S
H1358 C1365 0.950 . S
C1359 C1357 1.387 . S
C1359 C1361 1.390 . S
C1359 H1363 0.950 . S
H1360 C1356 0.950 . S
C1361 C1359 1.390 . S
C1361 C1362 1.387 . S
C1361 H1364 0.950 . S
C1362 C1361 1.387 . S
C1362 C1365 1.387 1_565 S
H1363 C1359 0.950 . S
H1364 C1361 0.950 . S
C1365 C1356 1.390 . S
C1365 H1358 0.950 . S
C1365 C1362 1.387 1_545 S
C1366 C1367 1.387 . S
C1366 H1370 0.950 . S
C1366 C1375 1.390 . S
C1367 C1366 1.387 . S
C1367 C1369 1.387 . S
H1368 C1375 0.950 . S
C1369 C1367 1.387 . S
C1369 C1371 1.390 . S
C1369 H1373 0.950 . S
H1370 C1366 0.950 . S
C1371 C1369 1.390 . S
C1371 C1372 1.387 . S
C1371 H1374 0.950 . S
C1372 C1371 1.387 . S
C1372 C1375 1.387 . S
H1373 C1369 0.950 . S
H1374 C1371 0.950 . S
C1375 C1366 1.390 . S
C1375 H1368 0.950 . S
C1375 C1372 1.387 . S
C1376 C1377 1.387 . S
C1376 H1380 0.950 . S
C1376 C1385 1.390 . S
C1377 C1376 1.387 . S
C1377 C1379 1.387 . S
H1378 C1385 0.950 . S
C1379 C1377 1.387 . S
C1379 C1381 1.390 . S
C1379 H1383 0.950 . S
H1380 C1376 0.950 . S
C1381 C1379 1.390 . S
C1381 C1382 1.387 . S
C1381 H1384 0.950 . S
C1382 C1381 1.387 . S
C1382 C1385 1.387 . S
H1383 C1379 0.950 . S
H1384 C1381 0.950 . S
C1385 C1376 1.390 . S
C1385 H1378 0.950 . S
C1385 C1382 1.387 . S
C1386 C1387 1.387 . S
C1386 H1390 0.950 1_554 S
C1386 C1395 1.390 . S
C1387 C1386 1.387 . S
C1387 C1389 1.387 . S
H1388 C1395 0.950 1_556 S
C1389 C1387 1.387 . S
C1389 C1391 1.390 . S
C1389 H1393 0.950 . S
H1390 C1386 0.950 1_556 S
C1391 C1389 1.390 . S
C1391 C1392 1.387 . S
C1391 H1394 0.950 . S
C1392 C1391 1.387 . S
C1392 C1395 1.387 . S
H1393 C1389 0.950 . S
H1394 C1391 0.950 . S
C1395 C1386 1.390 . S
C1395 H1388 0.950 1_554 S
C1395 C1392 1.387 . S
C1396 C1397 1.387 . S
C1396 H1400 0.950 . S
C1396 C1405 1.390 . S
C1397 C1396 1.387 . S
C1397 C1399 1.387 . S
H1398 C1405 0.950 . S
C1399 C1397 1.387 . S
C1399 C1401 1.390 . S
C1399 H1403 0.950 . S
H1400 C1396 0.950 . S
C1401 C1399 1.390 . S
C1401 C1402 1.387 . S
C1401 H1404 0.950 . S
C1402 C1401 1.387 . S
C1402 C1405 1.387 . S
H1403 C1399 0.950 . S
H1404 C1401 0.950 . S
C1405 C1396 1.390 . S
C1405 H1398 0.950 . S
C1405 C1402 1.387 . S
C1406 C1407 1.387 . S
C1406 H1410 0.950 . S
C1406 C1415 1.390 . S
C1407 C1406 1.387 . S
C1407 C1409 1.387 . S
H1408 C1415 0.950 . S
C1409 C1407 1.387 . S
C1409 C1411 1.390 . S
C1409 H1413 0.950 . S
H1410 C1406 0.950 . S
C1411 C1409 1.390 . S
C1411 C1412 1.387 . S
C1411 H1414 0.950 . S
C1412 C1411 1.387 . S
C1412 C1415 1.387 . S
H1413 C1409 0.950 . S
H1414 C1411 0.950 . S
C1415 C1406 1.390 . S
C1415 H1408 0.950 . S
C1415 C1412 1.387 . S
C1416 C1417 1.387 . S
C1416 H1420 0.950 . S
C1416 C1425 1.390 . S
C1417 C1416 1.387 . S
C1417 C1419 1.387 1_545 S
H1418 C1425 0.950 . S
C1419 C1417 1.387 1_565 S
C1419 C1421 1.390 . S
C1419 H1423 0.950 . S
H1420 C1416 0.950 . S
C1421 C1419 1.390 . S
C1421 C1422 1.387 . S
C1421 H1424 0.950 . S
C1422 C1421 1.387 . S
C1422 C1425 1.387 1_565 S
H1423 C1419 0.950 . S
H1424 C1421 0.950 . S
C1425 C1416 1.390 . S
C1425 H1418 0.950 . S
C1425 C1422 1.387 1_545 S
C1426 C1427 1.387 . S
C1426 H1430 0.950 . S
C1426 C1435 1.390 . S
C1427 C1426 1.387 . S
C1427 C1429 1.387 . S
H1428 C1435 0.950 . S
C1429 C1427 1.387 . S
C1429 C1431 1.390 . S
C1429 H1433 0.950 . S
H1430 C1426 0.950 . S
C1431 C1429 1.390 . S
C1431 C1432 1.387 . S
C1431 H1434 0.950 . S
C1432 C1431 1.387 . S
C1432 C1435 1.387 . S
H1433 C1429 0.950 . S
H1434 C1431 0.950 . S
C1435 C1426 1.390 . S
C1435 H1428 0.950 . S
C1435 C1432 1.387 . S
C1436 C1437 1.387 . S
C1436 H1440 0.950 . S
C1436 C1445 1.390 . S
C1437 C1436 1.387 . S
C1437 C1439 1.387 . S
H1438 C1445 0.950 . S
C1439 C1437 1.387 . S
C1439 C1441 1.390 . S
C1439 H1443 0.950 . S
H1440 C1436 0.950 . S
C1441 C1439 1.390 . S
C1441 C1442 1.387 . S
C1441 H1444 0.950 . S
C1442 C1441 1.387 . S
C1442 C1445 1.387 . S
H1443 C1439 0.950 . S
H1444 C1441 0.950 . S
C1445 C1436 1.390 . S
C1445 H1438 0.950 . S
C1445 C1442 1.387 . S
C1446 C1447 1.387 . S
C1446 H1450 0.950 . S
C1446 C1455 1.390 . S
C1447 C1446 1.387 . S
C1447 C1449 1.387 . S
H1448 C1455 0.950 . S
C1449 C1447 1.387 . S
C1449 C1451 1.390 . S
C1449 H1453 0.950 . S
H1450 C1446 0.950 . S
C1451 C1449 1.390 . S
C1451 C1452 1.387 . S
C1451 H1454 0.950 . S
C1452 C1451 1.387 . S
C1452 C1455 1.387 . S
H1453 C1449 0.950 . S
H1454 C1451 0.950 . S
C1455 C1446 1.390 . S
C1455 H1448 0.950 . S
C1455 C1452 1.387 . S
C1456 C1457 1.387 . S
C1456 H1460 0.950 . S
C1456 C1465 1.390 . S
C1457 C1456 1.387 . S
C1457 C1459 1.387 . S
H1458 C1465 0.950 . S
C1459 C1457 1.387 . S
C1459 C1461 1.390 . S
C1459 H1463 0.950 . S
H1460 C1456 0.950 . S
C1461 C1459 1.390 . S
C1461 C1462 1.387 . S
C1461 H1464 0.950 . S
C1462 C1461 1.387 . S
C1462 C1465 1.387 . S
H1463 C1459 0.950 . S
H1464 C1461 0.950 . S
C1465 C1456 1.390 . S
C1465 H1458 0.950 . S
C1465 C1462 1.387 . S
C1466 C1467 1.387 . S
C1466 H1470 0.950 . S
C1466 C1475 1.390 . S
C1467 C1466 1.387 . S
C1467 C1469 1.387 . S
H1468 C1475 0.950 . S
C1469 C1467 1.387 . S
C1469 C1471 1.390 . S
C1469 H1473 0.950 . S
H1470 C1466 0.950 . S
C1471 C1469 1.390 . S
C1471 C1472 1.387 . S
C1471 H1474 0.950 . S
C1472 C1471 1.387 . S
C1472 C1475 1.387 . S
H1473 C1469 0.950 . S
H1474 C1471 0.950 . S
C1475 C1466 1.390 . S
C1475 H1468 0.950 . S
C1475 C1472 1.387 . S
C1476 C1477 1.387 . S
C1476 H1480 0.950 . S
C1476 C1485 1.390 1_556 S
C1477 C1476 1.387 . S
C1477 C1479 1.387 . S
H1478 C1485 0.950 . S
C1479 C1477 1.387 . S
C1479 C1481 1.390 . S
C1479 H1483 0.950 . S
H1480 C1476 0.950 . S
C1481 C1479 1.390 . S
C1481 C1482 1.372 1_556 S
C1481 H1484 0.950 . S
C1482 C1481 1.372 1_554 S
C1482 C1485 1.395 . S
H1483 C1479 0.950 . S
H1484 C1481 0.950 . S
C1485 C1476 1.390 1_554 S
C1485 H1478 0.950 . S
C1485 C1482 1.395 . S
C1486 C1487 1.387 . S
C1486 H1490 0.950 . S
C1486 C1495 1.390 1_455 S
C1487 C1486 1.387 . S
C1487 C1489 1.387 . S
H1488 C1495 0.950 . S
C1489 C1487 1.387 . S
C1489 C1491 1.390 1_455 S
C1489 H1493 0.950 . S
H1490 C1486 0.950 . S
C1491 C1489 1.390 1_655 S
C1491 C1492 1.387 . S
C1491 H1494 0.950 . S
C1492 C1491 1.387 . S
C1492 C1495 1.387 . S
H1493 C1489 0.950 . S
H1494 C1491 0.950 . S
C1495 C1486 1.390 1_655 S
C1495 H1488 0.950 . S
C1495 C1492 1.387 . S
C1496 C1497 1.387 . S
C1496 H1500 0.950 . S
C1496 C1505 1.390 . S
C1497 C1496 1.387 . S
C1497 C1499 1.387 . S
H1498 C1505 0.950 . S
C1499 C1497 1.387 . S
C1499 C1501 1.390 . S
C1499 H1503 0.950 . S
H1500 C1496 0.950 . S
C1501 C1499 1.390 . S
C1501 C1502 1.387 . S
C1501 H1504 0.950 . S
C1502 C1501 1.387 . S
C1502 C1505 1.387 . S
H1503 C1499 0.950 . S
H1504 C1501 0.950 . S
C1505 C1496 1.390 . S
C1505 H1498 0.950 . S
C1505 C1502 1.387 . S
C1506 C1507 1.387 . S
C1506 H1510 0.950 . S
C1506 C1515 1.390 . S
C1507 C1506 1.387 . S
C1507 C1509 1.387 . S
H1508 C1515 0.950 . S
C1509 C1507 1.387 . S
C1509 C1511 1.390 . S
C1509 H1513 0.950 . S
H1510 C1506 0.950 . S
C1511 C1509 1.390 . S
C1511 C1512 1.387 . S
C1511 H1514 0.950 . S
C1512 C1511 1.387 . S
C1512 C1515 1.387 . S
H1513 C1509 0.950 . S
H1514 C1511 0.950 . S
C1515 C1506 1.390 . S
C1515 H1508 0.950 . S
C1515 C1512 1.387 . S
C1516 C1517 1.388 . S
C1516 H1520 0.950 1_455 S
C1516 C1525 1.389 . S
C1517 C1516 1.388 . S
C1517 C1519 1.387 . S
H1518 C1525 0.950 . S
C1519 C1517 1.387 . S
C1519 C1521 1.390 . S
C1519 H1523 0.950 . S
H1520 C1516 0.950 1_655 S
C1521 C1519 1.390 . S
C1521 C1522 1.387 . S
C1521 H1524 0.950 . S
C1522 C1521 1.387 . S
C1522 C1525 1.387 . S
H1523 C1519 0.950 . S
H1524 C1521 0.950 . S
C1525 C1516 1.389 . S
C1525 H1518 0.950 . S
C1525 C1522 1.387 . S
C1526 C1527 1.387 . S
C1526 H1530 0.950 . S
C1526 C1535 1.390 . S
C1527 C1526 1.387 . S
C1527 C1529 1.387 . S
H1528 C1535 0.950 . S
C1529 C1527 1.387 . S
C1529 C1531 1.390 . S
C1529 H1533 0.950 . S
H1530 C1526 0.950 . S
C1531 C1529 1.390 . S
C1531 C1532 1.387 . S
C1531 H1534 0.950 . S
C1532 C1531 1.387 . S
C1532 C1535 1.387 . S
H1533 C1529 0.950 . S
H1534 C1531 0.950 . S
C1535 C1526 1.390 . S
C1535 H1528 0.950 . S
C1535 C1532 1.387 . S
C1536 C1537 1.387 . S
C1536 H1540 0.950 . S
C1536 C1545 1.390 . S
C1537 C1536 1.387 . S
C1537 C1539 1.387 . S
H1538 C1545 0.950 . S
C1539 C1537 1.387 . S
C1539 C1541 1.390 . S
C1539 H1543 0.950 . S
H1540 C1536 0.950 . S
C1541 C1539 1.390 . S
C1541 C1542 1.387 . S
C1541 H1544 0.950 . S
C1542 C1541 1.387 . S
C1542 C1545 1.387 . S
H1543 C1539 0.950 . S
H1544 C1541 0.950 . S
C1545 C1536 1.390 . S
C1545 H1538 0.950 . S
C1545 C1542 1.387 . S
C1546 C1547 1.387 . S
C1546 H1550 0.980 . S
C1546 C1555 1.390 . S
C1547 C1546 1.387 . S
C1547 C1549 1.387 . S
H1548 C1555 0.950 . S
C1549 C1547 1.387 . S
C1549 C1551 1.390 . S
C1549 H1553 0.950 . S
H1550 C1546 0.980 . S
C1551 C1549 1.390 . S
C1551 C1552 1.387 . S
C1551 H1554 0.950 . S
C1552 C1551 1.387 . S
C1552 C1555 1.387 . S
H1553 C1549 0.950 . S
H1554 C1551 0.950 . S
C1555 C1546 1.390 . S
C1555 H1548 0.950 . S
C1555 C1552 1.387 . S
C1556 C1557 1.387 . S
C1556 H1560 0.950 . S
C1556 C1565 1.390 . S
C1557 C1556 1.387 . S
C1557 C1559 1.387 . S
H1558 C1565 0.950 . S
C1559 C1557 1.387 . S
C1559 C1561 1.390 . S
C1559 H1563 0.950 . S
H1560 C1556 0.950 . S
C1561 C1559 1.390 . S
C1561 C1562 1.387 . S
C1561 H1564 0.950 . S
C1562 C1561 1.387 . S
C1562 C1565 1.387 . S
H1563 C1559 0.950 . S
H1564 C1561 0.950 . S
C1565 C1556 1.390 . S
C1565 H1558 0.950 . S
C1565 C1562 1.387 . S
C1566 C1567 1.387 . S
C1566 H1570 0.950 . S
C1566 C1575 1.390 . S
C1567 C1566 1.387 . S
C1567 C1569 1.387 . S
H1568 C1575 0.950 . S
C1569 C1567 1.387 . S
C1569 C1571 1.390 . S
C1569 H1573 0.950 . S
H1570 C1566 0.950 . S
C1571 C1569 1.390 . S
C1571 C1572 1.387 . S
C1571 H1574 0.950 . S
C1572 C1571 1.387 . S
C1572 C1575 1.387 . S
H1573 C1569 0.950 . S
H1574 C1571 0.950 . S
C1575 C1566 1.390 . S
C1575 H1568 0.950 . S
C1575 C1572 1.387 . S
C1576 C1577 1.387 . S
C1576 H1580 0.950 . S
C1576 C1585 1.390 . S
C1577 C1576 1.387 . S
C1577 C1579 1.387 . S
H1578 C1585 0.950 . S
C1579 C1577 1.387 . S
C1579 C1581 1.390 . S
C1579 H1583 0.950 . S
H1580 C1576 0.950 . S
C1581 C1579 1.390 . S
C1581 C1582 1.387 . S
C1581 H1584 0.950 . S
C1582 C1581 1.387 . S
C1582 C1585 1.387 . S
H1583 C1579 0.950 . S
H1584 C1581 0.950 . S
C1585 C1576 1.390 . S
C1585 H1578 0.950 . S
C1585 C1582 1.387 . S
C1586 C1587 1.387 . S
C1586 H1590 0.950 . S
C1586 C1595 1.390 . S
C1587 C1586 1.387 . S
C1587 C1589 1.387 . S
H1588 C1595 0.950 . S
C1589 C1587 1.387 . S
C1589 C1591 1.390 . S
C1589 H1593 0.950 . S
H1590 C1586 0.950 . S
C1591 C1589 1.390 . S
C1591 C1592 1.387 . S
C1591 H1594 0.950 . S
C1592 C1591 1.387 . S
C1592 C1595 1.387 . S
H1593 C1589 0.950 . S
H1594 C1591 0.950 . S
C1595 C1586 1.390 . S
C1595 H1588 0.950 . S
C1595 C1592 1.387 . S
C1596 C1597 1.387 . S
C1596 H1600 0.950 . S
C1596 C1605 1.390 . S
C1597 C1596 1.387 . S
C1597 C1599 1.387 . S
H1598 C1605 0.950 . S
C1599 C1597 1.387 . S
C1599 C1601 1.390 . S
C1599 H1603 0.950 . S
H1600 C1596 0.950 . S
C1601 C1599 1.390 . S
C1601 C1602 1.387 . S
C1601 H1604 0.950 . S
C1602 C1601 1.387 . S
C1602 C1605 1.387 . S
H1603 C1599 0.950 . S
H1604 C1601 0.950 . S
C1605 C1596 1.390 . S
C1605 H1598 0.950 . S
C1605 C1602 1.387 . S
C1606 C1607 1.387 . S
C1606 H1610 0.950 . S
C1606 C1615 1.390 . S
C1607 C1606 1.387 . S
C1607 C1609 1.387 . S
H1608 C1615 0.950 . S
C1609 C1607 1.387 . S
C1609 C1611 1.390 . S
C1609 H1613 0.950 . S
H1610 C1606 0.950 . S
C1611 C1609 1.390 . S
C1611 C1612 1.387 . S
C1611 H1614 0.950 . S
C1612 C1611 1.387 . S
C1612 C1615 1.387 . S
H1613 C1609 0.950 . S
H1614 C1611 0.950 . S
C1615 C1606 1.390 . S
C1615 H1608 0.950 . S
C1615 C1612 1.387 . S
C1616 C1617 1.387 . S
C1616 H1620 0.950 . S
C1616 C1625 1.390 . S
C1617 C1616 1.387 . S
C1617 C1619 1.387 . S
H1618 C1625 0.950 . S
C1619 C1617 1.387 . S
C1619 C1621 1.390 . S
C1619 H1623 0.950 . S
H1620 C1616 0.950 . S
C1621 C1619 1.390 . S
C1621 C1622 1.387 . S
C1621 H1624 0.950 . S
C1622 C1621 1.387 . S
C1622 C1625 1.387 . S
H1623 C1619 0.950 . S
H1624 C1621 0.950 . S
C1625 C1616 1.390 . S
C1625 H1618 0.950 . S
C1625 C1622 1.387 . S
C1626 C1627 1.387 . S
C1626 H1630 0.950 . S
C1626 C1635 1.390 . S
C1627 C1626 1.387 . S
C1627 C1629 1.387 . S
H1628 C1635 0.950 . S
C1629 C1627 1.387 . S
C1629 C1631 1.390 . S
C1629 H1633 0.950 . S
H1630 C1626 0.950 . S
C1631 C1629 1.390 . S
C1631 C1632 1.387 . S
C1631 H1634 0.950 . S
C1632 C1631 1.387 . S
C1632 C1635 1.387 . S
H1633 C1629 0.950 . S
H1634 C1631 0.950 . S
C1635 C1626 1.390 . S
C1635 H1628 0.950 . S
C1635 C1632 1.387 . S
C1636 C1637 1.387 . S
C1636 H1640 0.950 . S
C1636 C1645 1.390 . S
C1637 C1636 1.387 . S
C1637 C1639 1.387 . S
H1638 C1645 0.950 . S
C1639 C1637 1.387 . S
C1639 C1641 1.390 . S
C1639 H1643 0.950 . S
H1640 C1636 0.950 . S
C1641 C1639 1.390 . S
C1641 C1642 1.387 . S
C1641 H1644 0.950 . S
C1642 C1641 1.387 . S
C1642 C1645 1.387 . S
H1643 C1639 0.950 . S
H1644 C1641 0.950 . S
C1645 C1636 1.390 . S
C1645 H1638 0.950 . S
C1645 C1642 1.387 . S
C1646 C1647 1.396 1_545 S
C1646 H1650 0.945 . S
C1646 C1655 1.387 . S
C1647 C1646 1.396 1_565 S
C1647 C1649 1.387 1_554 S
H1648 C1655 0.950 . S
C1649 C1647 1.387 1_556 S
C1649 C1651 1.390 1_565 S
C1649 H1653 0.950 . S
H1650 C1646 0.945 . S
C1651 C1649 1.390 1_545 S
C1651 C1652 1.387 1_556 S
C1651 H1654 0.950 . S
C1652 C1651 1.387 1_554 S
C1652 C1655 1.387 . S
H1653 C1649 0.950 . S
H1654 C1651 0.950 . S
C1655 C1646 1.387 . S
C1655 H1648 0.950 . S
C1655 C1652 1.387 . S
C1656 C1657 1.387 . S
C1656 H1660 0.950 . S
C1656 C1665 1.390 . S
C1657 C1656 1.387 . S
C1657 C1659 1.387 . S
H1658 C1665 0.950 . S
C1659 C1657 1.387 . S
C1659 C1661 1.390 . S
C1659 H1663 0.950 . S
H1660 C1656 0.950 . S
C1661 C1659 1.390 . S
C1661 C1662 1.387 . S
C1661 H1664 0.950 . S
C1662 C1661 1.387 . S
C1662 C1665 1.387 . S
H1663 C1659 0.950 . S
H1664 C1661 0.950 . S
C1665 C1656 1.390 . S
C1665 H1658 0.950 . S
C1665 C1662 1.387 . S
C1666 C1667 1.387 . S
C1666 H1670 0.950 . S
C1666 C1675 1.390 . S
C1667 C1666 1.387 . S
C1667 C1669 1.387 . S
H1668 C1675 0.950 . S
C1669 C1667 1.387 . S
C1669 C1671 1.390 . S
C1669 H1673 0.950 1_554 S
H1670 C1666 0.950 . S
C1671 C1669 1.390 . S
C1671 C1672 1.387 . S
C1671 H1674 0.950 . S
C1672 C1671 1.387 . S
C1672 C1675 1.387 . S
H1673 C1669 0.950 1_556 S
H1674 C1671 0.950 . S
C1675 C1666 1.390 . S
C1675 H1668 0.950 . S
C1675 C1672 1.387 . S
C1676 C1677 1.387 . S
C1676 H1680 0.950 . S
C1676 C1685 1.390 . S
C1677 C1676 1.387 . S
C1677 C1679 1.387 . S
H1678 C1685 0.950 . S
C1679 C1677 1.387 . S
C1679 C1681 1.390 . S
C1679 H1683 0.950 . S
H1680 C1676 0.950 . S
C1681 C1679 1.390 . S
C1681 C1682 1.387 . S
C1681 H1684 0.950 . S
C1682 C1681 1.387 . S
C1682 C1685 1.387 . S
H1683 C1679 0.950 . S
H1684 C1681 0.950 . S
C1685 C1676 1.390 . S
C1685 H1678 0.950 . S
C1685 C1682 1.387 . S
C1686 C1687 1.387 . S
C1686 H1690 0.950 . S
C1686 C1695 1.390 . S
C1687 C1686 1.387 . S
C1687 C1689 1.387 . S
H1688 C1695 0.950 . S
C1689 C1687 1.387 . S
C1689 C1691 1.390 . S
C1689 H1693 0.950 . S
H1690 C1686 0.950 . S
C1691 C1689 1.390 . S
C1691 C1692 1.387 . S
C1691 H1694 0.950 . S
C1692 C1691 1.387 . S
C1692 C1695 1.387 . S
H1693 C1689 0.950 . S
H1694 C1691 0.950 . S
C1695 C1686 1.390 . S
C1695 H1688 0.950 . S
C1695 C1692 1.387 . S
C1696 C1697 1.387 . S
C1696 H1700 0.950 . S
C1696 C1705 1.390 . S
C1697 C1696 1.387 . S
C1697 C1699 1.387 . S
H1698 C1705 0.950 . S
C1699 C1697 1.387 . S
C1699 C1701 1.390 . S
C1699 H1703 0.950 . S
H1700 C1696 0.950 . S
C1701 C1699 1.390 . S
C1701 C1702 1.387 . S
C1701 H1704 0.950 . S
C1702 C1701 1.387 . S
C1702 C1705 1.387 . S
H1703 C1699 0.950 . S
H1704 C1701 0.950 . S
C1705 C1696 1.390 . S
C1705 H1698 0.950 . S
C1705 C1702 1.387 . S
C1706 C1707 1.387 . S
C1706 H1710 0.950 . S
C1706 C1715 1.390 . S
C1707 C1706 1.387 . S
C1707 C1709 1.387 . S
H1708 C1715 0.950 . S
C1709 C1707 1.387 . S
C1709 C1711 1.390 . S
C1709 H1713 0.950 . S
H1710 C1706 0.950 . S
C1711 C1709 1.390 . S
C1711 C1712 1.387 . S
C1711 H1714 0.950 . S
C1712 C1711 1.387 . S
C1712 C1715 1.387 . S
H1713 C1709 0.950 . S
H1714 C1711 0.950 . S
C1715 C1706 1.390 . S
C1715 H1708 0.950 . S
C1715 C1712 1.387 . S
C1716 C1717 1.387 . S
C1716 H1720 0.950 . S
C1716 C1725 1.390 . S
C1717 C1716 1.387 . S
C1717 C1719 1.387 . S
H1718 C1725 0.950 . S
C1719 C1717 1.387 . S
C1719 C1721 1.390 . S
C1719 H1723 0.950 . S
H1720 C1716 0.950 . S
C1721 C1719 1.390 . S
C1721 C1722 1.387 . S
C1721 H1724 0.950 . S
C1722 C1721 1.387 . S
C1722 C1725 1.387 . S
H1723 C1719 0.950 . S
H1724 C1721 0.950 . S
C1725 C1716 1.390 . S
C1725 H1718 0.950 . S
C1725 C1722 1.387 . S
C1726 C1727 1.387 . S
C1726 H1730 0.950 . S
C1726 C1735 1.390 . S
C1727 C1726 1.387 . S
C1727 C1729 1.387 . S
H1728 C1735 0.950 . S
C1729 C1727 1.387 . S
C1729 C1731 1.390 . S
C1729 H1733 0.950 . S
H1730 C1726 0.950 . S
C1731 C1729 1.390 . S
C1731 C1732 1.387 . S
C1731 H1734 0.950 . S
C1732 C1731 1.387 . S
C1732 C1735 1.387 . S
H1733 C1729 0.950 . S
H1734 C1731 0.950 . S
C1735 C1726 1.390 . S
C1735 H1728 0.950 . S
C1735 C1732 1.387 . S
C1736 C1737 1.387 . S
C1736 H1740 0.950 . S
C1736 C1745 1.390 . S
C1737 C1736 1.387 . S
C1737 C1739 1.387 . S
H1738 C1745 0.950 . S
C1739 C1737 1.387 . S
C1739 C1741 1.390 . S
C1739 H1743 0.950 . S
H1740 C1736 0.950 . S
C1741 C1739 1.390 . S
C1741 C1742 1.387 . S
C1741 H1744 0.950 . S
C1742 C1741 1.387 . S
C1742 C1745 1.387 . S
H1743 C1739 0.950 . S
H1744 C1741 0.950 . S
C1745 C1736 1.390 . S
C1745 H1738 0.950 . S
C1745 C1742 1.387 . S
C1746 C1747 1.387 . S
C1746 H1750 0.950 . S
C1746 C1755 1.390 . S
C1747 C1746 1.387 . S
C1747 C1749 1.387 . S
H1748 C1755 0.950 . S
C1749 C1747 1.387 . S
C1749 C1751 1.390 . S
C1749 H1753 0.950 . S
H1750 C1746 0.950 . S
C1751 C1749 1.390 . S
C1751 C1752 1.387 . S
C1751 H1754 0.950 . S
C1752 C1751 1.387 . S
C1752 C1755 1.387 . S
H1753 C1749 0.950 . S
H1754 C1751 0.950 . S
C1755 C1746 1.390 . S
C1755 H1748 0.950 . S
C1755 C1752 1.387 . S
C1756 C1757 1.387 . S
C1756 H1760 0.950 . S
C1756 C1765 1.390 . S
C1757 C1756 1.387 . S
C1757 C1759 1.387 . S
H1758 C1765 0.950 . S
C1759 C1757 1.387 . S
C1759 C1761 1.390 . S
C1759 H1763 0.950 . S
H1760 C1756 0.950 . S
C1761 C1759 1.390 . S
C1761 C1762 1.387 . S
C1761 H1764 0.950 . S
C1762 C1761 1.387 . S
C1762 C1765 1.387 . S
H1763 C1759 0.950 . S
H1764 C1761 0.950 . S
C1765 C1756 1.390 . S
C1765 H1758 0.950 . S
C1765 C1762 1.387 . S
C1766 C1767 1.387 . S
C1766 H1770 0.950 . S
C1766 C1775 1.390 . S
C1767 C1766 1.387 . S
C1767 C1769 1.387 . S
H1768 C1775 0.950 . S
C1769 C1767 1.387 . S
C1769 C1771 1.390 . S
C1769 H1773 0.950 . S
H1770 C1766 0.950 . S
C1771 C1769 1.390 . S
C1771 C1772 1.387 . S
C1771 H1774 0.950 . S
C1772 C1771 1.387 . S
C1772 C1775 1.387 . S
H1773 C1769 0.950 . S
H1774 C1771 0.950 . S
C1775 C1766 1.390 . S
C1775 H1768 0.950 . S
C1775 C1772 1.387 . S
C1776 C1777 1.387 . S
C1776 H1780 0.950 . S
C1776 C1785 1.390 . S
C1777 C1776 1.387 . S
C1777 C1779 1.387 . S
H1778 C1785 0.950 . S
C1779 C1777 1.387 . S
C1779 C1781 1.390 . S
C1779 H1783 0.950 . S
H1780 C1776 0.950 . S
C1781 C1779 1.390 . S
C1781 C1782 1.387 . S
C1781 H1784 0.950 . S
C1782 C1781 1.387 . S
C1782 C1785 1.387 . S
H1783 C1779 0.950 . S
H1784 C1781 0.950 . S
C1785 C1776 1.390 . S
C1785 H1778 0.950 . S
C1785 C1782 1.387 . S
C1786 C1787 1.387 . S
C1786 H1790 0.950 . S
C1786 C1795 1.390 . S
C1787 C1786 1.387 . S
C1787 C1789 1.387 . S
H1788 C1795 0.950 . S
C1789 C1787 1.387 . S
C1789 C1791 1.390 . S
C1789 H1793 0.950 . S
H1790 C1786 0.950 . S
C1791 C1789 1.390 . S
C1791 C1792 1.387 . S
C1791 H1794 0.950 . S
C1792 C1791 1.387 . S
C1792 C1795 1.387 . S
H1793 C1789 0.950 . S
H1794 C1791 0.950 . S
C1795 C1786 1.390 . S
C1795 H1788 0.950 . S
C1795 C1792 1.387 . S
C1796 C1797 1.387 . S
C1796 H1800 0.950 . S
C1796 C1805 1.390 1_655 S
C1797 C1796 1.387 . S
C1797 C1799 1.387 1_655 S
H1798 C1805 0.950 . S
C1799 C1797 1.387 1_455 S
C1799 C1801 1.390 . S
C1799 H1803 0.951 1_455 S
H1800 C1796 0.950 . S
C1801 C1799 1.390 . S
C1801 C1802 1.387 . S
C1801 H1804 0.950 . S
C1802 C1801 1.387 . S
C1802 C1805 1.387 . S
H1803 C1799 0.951 1_655 S
H1804 C1801 0.950 . S
C1805 C1796 1.390 1_455 S
C1805 H1798 0.950 . S
C1805 C1802 1.387 . S
C1806 C1807 1.387 . S
C1806 H1810 0.950 . S
C1806 C1815 1.390 . S
C1807 C1806 1.387 . S
C1807 C1809 1.387 . S
H1808 C1815 0.950 . S
C1809 C1807 1.387 . S
C1809 C1811 1.390 . S
C1809 H1813 0.950 . S
H1810 C1806 0.950 . S
C1811 C1809 1.390 . S
C1811 C1812 1.387 . S
C1811 H1814 0.950 . S
C1812 C1811 1.387 . S
C1812 C1815 1.387 . S
H1813 C1809 0.950 . S
H1814 C1811 0.950 . S
C1815 C1806 1.390 . S
C1815 H1808 0.950 . S
C1815 C1812 1.387 . S
C1816 C1817 1.387 . S
C1816 H1820 0.950 . S
C1816 C1825 1.390 . S
C1817 C1816 1.387 . S
C1817 C1819 1.387 . S
H1818 C1825 0.950 . S
C1819 C1817 1.387 . S
C1819 C1821 1.390 . S
C1819 H1823 0.950 . S
H1820 C1816 0.950 . S
C1821 C1819 1.390 . S
C1821 C1822 1.387 . S
C1821 H1824 0.950 . S
C1822 C1821 1.387 . S
C1822 C1825 1.387 . S
H1823 C1819 0.950 . S
H1824 C1821 0.950 . S
C1825 C1816 1.390 . S
C1825 H1818 0.950 . S
C1825 C1822 1.387 . S
C1826 C1827 1.387 . S
C1826 H1830 0.950 . S
C1826 C1835 1.390 . S
C1827 C1826 1.387 . S
C1827 C1829 1.387 . S
H1828 C1835 0.950 . S
C1829 C1827 1.387 . S
C1829 C1831 1.390 . S
C1829 H1833 0.950 . S
H1830 C1826 0.950 . S
C1831 C1829 1.390 . S
C1831 C1832 1.387 . S
C1831 H1834 0.950 . S
C1832 C1831 1.387 . S
C1832 C1835 1.387 . S
H1833 C1829 0.950 . S
H1834 C1831 0.950 . S
C1835 C1826 1.390 . S
C1835 H1828 0.950 . S
C1835 C1832 1.387 . S
C1836 C1837 1.387 . S
C1836 H1840 0.950 . S
C1836 C1845 1.390 . S
C1837 C1836 1.387 . S
C1837 C1839 1.387 . S
H1838 C1845 0.950 . S
C1839 C1837 1.387 . S
C1839 C1841 1.390 . S
C1839 H1843 0.950 . S
H1840 C1836 0.950 . S
C1841 C1839 1.390 . S
C1841 C1842 1.387 . S
C1841 H1844 0.950 . S
C1842 C1841 1.387 . S
C1842 C1845 1.387 . S
H1843 C1839 0.950 . S
H1844 C1841 0.950 . S
C1845 C1836 1.390 . S
C1845 H1838 0.950 . S
C1845 C1842 1.387 . S
C1846 C1847 1.387 . S
C1846 H1850 0.950 . S
C1846 C1855 1.390 . S
C1847 C1846 1.387 . S
C1847 C1849 1.387 . S
H1848 C1855 0.950 . S
C1849 C1847 1.387 . S
C1849 C1851 1.390 . S
C1849 H1853 0.950 . S
H1850 C1846 0.950 . S
C1851 C1849 1.390 . S
C1851 C1852 1.387 . S
C1851 H1854 0.950 . S
C1852 C1851 1.387 . S
C1852 C1855 1.387 . S
H1853 C1849 0.950 . S
H1854 C1851 0.950 . S
C1855 C1846 1.390 . S
C1855 H1848 0.950 . S
C1855 C1852 1.387 . S
C1856 C1857 1.387 . S
C1856 H1860 0.950 . S
C1856 C1865 1.390 . S
C1857 C1856 1.387 . S
C1857 C1859 1.387 . S
H1858 C1865 0.950 . S
C1859 C1857 1.387 . S
C1859 C1861 1.390 . S
C1859 H1863 0.950 . S
H1860 C1856 0.950 . S
C1861 C1859 1.390 . S
C1861 C1862 1.387 . S
C1861 H1864 0.950 . S
C1862 C1861 1.387 . S
C1862 C1865 1.387 . S
H1863 C1859 0.950 . S
H1864 C1861 0.950 . S
C1865 C1856 1.390 . S
C1865 H1858 0.950 . S
C1865 C1862 1.387 . S
C1866 C1867 1.387 . S
C1866 H1870 0.950 . S
C1866 C1875 1.390 . S
C1867 C1866 1.387 . S
C1867 C1869 1.387 . S
H1868 C1875 0.950 . S
C1869 C1867 1.387 . S
C1869 C1871 1.390 . S
C1869 H1873 0.950 . S
H1870 C1866 0.950 . S
C1871 C1869 1.390 . S
C1871 C1872 1.387 . S
C1871 H1874 0.950 1_565 S
C1872 C1871 1.387 . S
C1872 C1875 1.387 . S
H1873 C1869 0.950 . S
H1874 C1871 0.950 1_545 S
C1875 C1866 1.390 . S
C1875 H1868 0.950 . S
C1875 C1872 1.387 . S
C1876 C1877 1.387 . S
C1876 H1880 0.950 . S
C1876 C1885 1.390 . S
C1877 C1876 1.387 . S
C1877 C1879 1.387 . S
H1878 C1885 0.950 . S
C1879 C1877 1.387 . S
C1879 C1881 1.390 . S
C1879 H1883 0.950 . S
H1880 C1876 0.950 . S
C1881 C1879 1.390 . S
C1881 C1882 1.387 . S
C1881 H1884 0.950 . S
C1882 C1881 1.387 . S
C1882 C1885 1.387 . S
H1883 C1879 0.950 . S
H1884 C1881 0.950 . S
C1885 C1876 1.390 . S
C1885 H1878 0.950 . S
C1885 C1882 1.387 . S
C1886 C1887 1.387 . S
C1886 H1890 0.950 1_554 S
C1886 C1895 1.390 . S
C1887 C1886 1.387 . S
C1887 C1889 1.387 . S
H1888 C1895 0.950 1_556 S
C1889 C1887 1.387 . S
C1889 C1891 1.390 . S
C1889 H1893 0.950 . S
H1890 C1886 0.950 1_556 S
C1891 C1889 1.390 . S
C1891 C1892 1.387 . S
C1891 H1894 0.950 . S
C1892 C1891 1.387 . S
C1892 C1895 1.387 . S
H1893 C1889 0.950 . S
H1894 C1891 0.950 . S
C1895 C1886 1.390 . S
C1895 H1888 0.950 1_554 S
C1895 C1892 1.387 . S
C1896 C1897 1.387 . S
C1896 H1900 0.950 . S
C1896 C1905 1.390 . S
C1897 C1896 1.387 . S
C1897 C1899 1.387 . S
H1898 C1905 0.950 . S
C1899 C1897 1.387 . S
C1899 C1901 1.390 . S
C1899 H1903 0.950 . S
H1900 C1896 0.950 . S
C1901 C1899 1.390 . S
C1901 C1902 1.387 . S
C1901 H1904 0.950 . S
C1902 C1901 1.387 . S
C1902 C1905 1.387 . S
H1903 C1899 0.950 . S
H1904 C1901 0.950 . S
C1905 C1896 1.390 . S
C1905 H1898 0.950 . S
C1905 C1902 1.387 . S
C1906 C1907 1.387 . S
C1906 H1910 0.950 . S
C1906 C1915 1.390 . S
C1907 C1906 1.387 . S
C1907 C1909 1.387 1_554 S
H1908 C1915 0.950 . S
C1909 C1907 1.387 1_556 S
C1909 C1911 1.390 . S
C1909 H1913 0.950 . S
H1910 C1906 0.950 . S
C1911 C1909 1.390 . S
C1911 C1912 1.387 . S
C1911 H1914 0.950 . S
C1912 C1911 1.387 . S
C1912 C1915 1.387 1_556 S
H1913 C1909 0.950 . S
H1914 C1911 0.950 . S
C1915 C1906 1.390 . S
C1915 H1908 0.950 . S
C1915 C1912 1.387 1_554 S
C1916 C1917 1.387 . S
C1916 H1920 0.950 . S
C1916 C1925 1.390 . S
C1917 C1916 1.387 . S
C1917 C1919 1.387 . S
H1918 C1925 0.950 . S
C1919 C1917 1.387 . S
C1919 C1921 1.390 . S
C1919 H1923 0.950 . S
H1920 C1916 0.950 . S
C1921 C1919 1.390 . S
C1921 C1922 1.387 . S
C1921 H1924 0.950 . S
C1922 C1921 1.387 . S
C1922 C1925 1.387 . S
H1923 C1919 0.950 . S
H1924 C1921 0.950 . S
C1925 C1916 1.390 . S
C1925 H1918 0.950 . S
C1925 C1922 1.387 . S
C1926 C1927 1.387 . S
C1926 H1930 0.950 . S
C1926 C1935 1.390 . S
C1927 C1926 1.387 . S
C1927 C1929 1.387 . S
H1928 C1935 0.950 . S
C1929 C1927 1.387 . S
C1929 C1931 1.390 . S
C1929 H1933 0.950 . S
H1930 C1926 0.950 . S
C1931 C1929 1.390 . S
C1931 C1932 1.387 . S
C1931 H1934 0.950 . S
C1932 C1931 1.387 . S
C1932 C1935 1.387 . S
H1933 C1929 0.950 . S
H1934 C1931 0.950 . S
C1935 C1926 1.390 . S
C1935 H1928 0.950 . S
C1935 C1932 1.387 . S
C977 C109 1.157 . S
C982 C344 1.186 . S
C987 C65 1.537 . S
C992 C378 1.551 . S
C997 C75 0.820 . S
C1002 C447 0.811 . S
C1012 C485 0.983 . S
C1007 C84 0.999 . S
C1017 C25 1.776 . S
C1022 C525 1.733 . S
C1032 C544 0.581 . S
C1027 C28 0.579 . S
C1042 C578 1.556 . S
C1037 C47 1.481 . S
C1047 C9 1.934 . S
C1052 C647 1.910 . S
C1062 C353 2.564 . S
C1057 C233 2.609 1_455 S
C1067 C249 1.394 . S
C1072 C405 1.406 . S
C1082 C418 1.445 . S
C1077 C275 1.443 . S
C1092 C487 1.562 . S
C1087 C173 1.556 . S
C1097 C224 2.101 1_455 S
C1102 C527 2.161 . S
C1112 C553 1.917 . S
C1107 C243 1.932 . S
C1122 C605 0.550 . S
C1117 C266 0.506 . S
C1132 C618 2.303 . S
C1127 C179 2.301 . S
C1142 C348 2.503 . S
C1137 C163 2.523 . S
C1147 C289 2.020 . S
C1152 C658 2.044 . S
C1162 C708 2.701 . S
C1157 C333 2.716 . S
C1172 C767 1.714 1_655 S
C1167 C308 1.716 . S
C1177 C123 1.846 . S
C1182 C645 1.843 . S
C1187 C126 1.548 . S
C1192 C445 1.566 . S
C1197 C327 2.502 . S
C1202 C778 2.475 . S
C1212 C847 1.072 . S
C1207 C299 1.107 . S
C1222 C365 1.181 . S
C1217 C67 1.164 . S
C1232 C833 1.545 . S
C1227 C98 1.512 . S
C1237 C89 0.824 . S
C1242 C428 0.815 . S
C1247 C79 1.014 . S
C1252 C784 1.012 . S
C1262 C504 1.727 . S
C1257 C11 1.800 . S
C1267 C51 0.572 . S
C1272 C725 0.581 . S
C1282 C593 1.613 1_556 S
C1277 C33 1.546 . S
C1292 C868 1.868 . S
C1287 C14 1.887 . S
C1302 C338 2.530 . S
C1297 C140 2.558 . S
C1312 C824 1.375 . S
C1307 C319 1.390 . S
C1317 C112 1.436 . S
C1322 C433 1.450 . S
C1327 C285 1.569 . S
C1332 C788 1.578 . S
C1337 C149 2.162 . S
C1342 C508 2.174 . S
C1352 C698 1.931 . S
C1347 C313 1.951 . S
C1357 C121 0.570 . S
C1362 C584 0.574 1_565 S
C1367 C291 2.329 . S
C1372 C873 2.317 . S
C1377 C182 2.571 . S
C1382 C367 2.513 1_655 S
C1387 C168 1.953 . S
C1392 C673 2.047 . S
C1397 C263 2.756 . S
C1402 C567 2.740 . S
C1407 C247 1.729 . S
C1412 C748 1.764 . S
C1422 C864 1.822 . S
C1417 C277 1.862 . S
C1427 C219 1.616 . S
C1432 C424 1.566 . S
C1442 C473 2.524 . S
C1437 C257 2.551 . S
C1452 C388 1.049 . S
C1447 C201 1.078 . S
C1457 C81 1.156 . S
C1462 C904 1.185 . S
C1472 C818 1.550 . S
C1467 C93 1.537 . S
C1477 C103 0.823 . S
C1482 C967 0.817 . S
C1487 C56 0.999 . S
C1492 C805 0.982 . S
C1497 C53 1.780 . S
C1502 C685 1.738 . S
C1512 C704 0.581 . S
C1507 C0 0.579 . S
C1522 C738 1.553 . S
C1517 C19 1.477 1_455 S
C1532 C887 1.910 . S
C1527 C37 1.934 . S
C1542 C913 2.565 . S
C1537 C261 2.609 . S
C1547 C193 1.390 . S
C1552 C845 1.401 . S
C1562 C938 1.445 . S
C1557 C205 1.443 . S
C1572 C807 1.562 . S
C1567 C215 1.556 . S
C1582 C687 2.161 . S
C1577 C252 2.100 . S
C1587 C187 1.930 . S
C1592 C713 1.914 . S
C1602 C765 0.556 . S
C1597 C196 0.509 . S
C1607 C221 2.301 . S
C1612 C858 2.303 . S
C1622 C908 2.503 . S
C1617 C317 2.523 . S
C1627 C135 2.018 . S
C1632 C498 2.043 . S
C1642 C548 2.701 . S
C1637 C151 2.715 . S
C1652 C607 1.713 . S
C1647 C154 1.716 . S
C1662 C885 1.841 . S
C1657 C305 1.844 . S
C1667 C280 1.551 . S
C1672 C965 1.567 . S
C1682 C458 2.476 . S
C1677 C145 2.501 . S
C1692 C407 1.072 . S
C1687 C117 1.107 . S
C1697 C95 1.160 . S
C1702 C925 1.180 . S
C1712 C393 1.545 . S
C1707 C70 1.511 . S
C1717 C61 0.823 . S
C1722 C948 0.815 . S
C1727 C107 1.015 . S
C1732 C464 1.015 . S
C1737 C39 1.798 . S
C1742 C664 1.725 . S
C1752 C565 0.581 . S
C1747 C23 0.568 . S
C1757 C5 1.550 . S
C1762 C753 1.617 . S
C1767 C42 1.884 . S
C1772 C628 1.868 . S
C1782 C898 2.531 . S
C1777 C322 2.559 . S
C1787 C165 1.391 . S
C1792 C384 1.375 . S
C1802 C953 1.450 . S
C1797 C294 1.436 . S
C1807 C131 1.570 . S
C1812 C468 1.578 . S
C1817 C331 2.162 . S
C1822 C668 2.175 . S
C1832 C538 1.932 . S
C1827 C159 1.953 . S
C1837 C303 0.575 . S
C1842 C744 0.585 . S
C1852 C633 2.317 . S
C1847 C137 2.330 . S
C1862 C927 2.514 . S
C1857 C238 2.571 . S
C1872 C513 2.047 1_665 S
C1867 C210 1.954 . S
C1877 C235 2.756 . S
C1882 C727 2.740 . S
C1892 C588 1.762 . S
C1887 C191 1.726 . S
C1897 C207 1.862 . S
C1902 C624 1.821 . S
C1907 C177 1.615 . S
C1912 C944 1.566 . S
C1922 C793 2.523 . S
C1917 C229 2.551 1_565 S
C1932 C828 1.049 . S
C1927 C271 1.077 . S
