# Generated by pormake.
# Topology anh, (6,3)-cn, num edge types: 1
# Building blocks:
#     Node 0, Type 0, BuildingBlock: PAMTOO_clean_sbu_0, # of connection points: 6
#     Node 1, Type 0, BuildingBlock: PAMTOO_clean_sbu_0, # of connection points: 6
#     Node 2, Type 0, BuildingBlock: PAMTOO_clean_sbu_0, # of connection points: 6
#     Node 3, Type 1, BuildingBlock: OLANEW_clean_sbu_2, # of connection points: 3
#     Node 4, Type 1, BuildingBlock: OLANEW_clean_sbu_2, # of connection points: 3
#     Node 5, Type 1, BuildingBlock: OLANEW_clean_sbu_2, # of connection points: 3
#     Node 6, Type 1, BuildingBlock: OLANEW_clean_sbu_2, # of connection points: 3
#     Node 7, Type 1, BuildingBlock: OLANEW_clean_sbu_2, # of connection points: 3
#     Node 8, Type 1, BuildingBlock: OLANEW_clean_sbu_2, # of connection points: 3
#     Edge 9, Type (0, 1), BuildingBlock: UVAHIK_clean_linker_0, # of connection points: 2
#     Edge 10, Type (0, 1), BuildingBlock: UVAHIK_clean_linker_0, # of connection points: 2
#     Edge 11, Type (0, 1), BuildingBlock: UVAHIK_clean_linker_0, # of connection points: 2
#     Edge 12, Type (0, 1), BuildingBlock: UVAHIK_clean_linker_0, # of connection points: 2
#     Edge 13, Type (0, 1), BuildingBlock: UVAHIK_clean_linker_0, # of connection points: 2
#     Edge 14, Type (0, 1), BuildingBlock: UVAHIK_clean_linker_0, # of connection points: 2
#     Edge 15, Type (0, 1), BuildingBlock: UVAHIK_clean_linker_0, # of connection points: 2
#     Edge 16, Type (0, 1), BuildingBlock: UVAHIK_clean_linker_0, # of connection points: 2
#     Edge 17, Type (0, 1), BuildingBlock: UVAHIK_clean_linker_0, # of connection points: 2
#     Edge 18, Type (0, 1), BuildingBlock: UVAHIK_clean_linker_0, # of connection points: 2
#     Edge 19, Type (0, 1), BuildingBlock: UVAHIK_clean_linker_0, # of connection points: 2
#     Edge 20, Type (0, 1), BuildingBlock: UVAHIK_clean_linker_0, # of connection points: 2
#     Edge 21, Type (0, 1), BuildingBlock: UVAHIK_clean_linker_0, # of connection points: 2
#     Edge 22, Type (0, 1), BuildingBlock: UVAHIK_clean_linker_0, # of connection points: 2
#     Edge 23, Type (0, 1), BuildingBlock: UVAHIK_clean_linker_0, # of connection points: 2
#     Edge 24, Type (0, 1), BuildingBlock: UVAHIK_clean_linker_0, # of connection points: 2
#     Edge 25, Type (0, 1), BuildingBlock: UVAHIK_clean_linker_0, # of connection points: 2
#     Edge 26, Type (0, 1), BuildingBlock: UVAHIK_clean_linker_0, # of connection points: 2
# Relax obj value: 0.114
# Max RMSD: 0.138
# Mean RMSD: 0.110
data_MOF--net-anh--node1-PAMTOO_clean_sbu_0--node2-OLANEW_clean_sbu_2--edge1-UVAHIK_clean_linker_0
_symmetry_space_group_name_H-M    P1
_symmetry_Int_Tables_number       1
_symmetry_cell_setting            triclinic
loop_
_symmetry_equiv_pos_as_xyz
'x, y, z'
_cell_length_a     45.71089
_cell_length_b     41.548798
_cell_length_c     65.533787
_cell_angle_alpha  90.04676
_cell_angle_beta   94.756893
_cell_angle_gamma 110.52586
loop_
_atom_site_label
_atom_site_type_symbol
_atom_site_fract_x
_atom_site_fract_y
_atom_site_fract_z
_atom_type_partial_charge
Dy0 Dy 0.0281 0.5853 0.13025 0.0
Dy1 Dy 1.00036 0.50068 0.13167 0.0
C2 C 0.00621 0.53865 0.08999 0.0
O3 O 0.97806 0.57267 0.13673 0.0
O4 O 0.95764 0.51538 0.12666 0.0
O5 O 0.04683 0.63083 0.11291 0.0
O6 O 0.04015 0.63555 0.14498 0.0
O7 O 0.99734 0.52154 0.16239 0.0
O8 O 0.0399 0.57079 0.1619 0.0
O9 O 0.05246 0.51511 0.13719 0.0
O10 O 0.06852 0.56924 0.12403 0.0
O11 O 0.99525 0.45384 0.14783 0.0
O12 O 0.97484 0.4516 0.11656 0.0
C13 C 0.95401 0.54423 0.13196 0.0
O14 O 1.00297 0.56456 0.09976 0.0
O15 O 0.01365 0.51503 0.10011 0.0
C16 C 0.0833 0.6781 0.13198 0.0
C17 C 0.14289 0.73029 0.13684 0.0
C18 C 0.13938 0.69765 0.12878 0.0
C19 C 0.10986 0.6717 0.12648 0.0
C20 C 0.08678 0.71047 0.14026 0.0
C21 C 0.11635 0.73635 0.14275 0.0
C22 C 0.05186 0.65158 0.1288 0.0
C23 C 0.01997 0.54703 0.17208 0.0
C24 C 0.0744 0.54196 0.13049 0.0
C25 C 0.9468 0.40967 0.13875 0.0
C26 C 0.88951 0.36149 0.14923 0.0
C27 C 0.91735 0.35404 0.15175 0.0
C28 C 0.94572 0.37793 0.14652 0.0
C29 C 0.91925 0.41748 0.1365 0.0
C30 C 0.89087 0.39359 0.14159 0.0
C31 C 0.97662 0.43441 0.13298 0.0
H32 H 0.1595 0.69213 0.12437 0.0
H33 H 0.10776 0.64676 0.12023 0.0
H34 H 0.06655 0.71584 0.14461 0.0
H35 H 0.11836 0.76132 0.1489 0.0
H36 H 0.91729 0.32983 0.1579 0.0
H37 H 0.96683 0.37159 0.1485 0.0
H38 H 0.91962 0.44193 0.13059 0.0
H39 H 0.8699 0.40007 0.13918 0.0
Dy40 Dy 0.50054 0.02196 0.51256 0.0
Dy41 Dy 0.57788 0.04703 0.51601 0.0
C42 C 0.54034 0.03071 0.55491 0.0
O43 O 0.51631 0.07861 0.5082 0.0
O44 O 0.56718 0.09431 0.52263 0.0
O45 O 0.45775 0.99942 0.52718 0.0
O46 O 0.45603 0.01637 0.49599 0.0
O47 O 0.5617 0.05863 0.48479 0.0
O48 O 0.51497 0.0139 0.48182 0.0
O49 O 0.56175 0.99087 0.50776 0.0
O50 O 0.51102 0.97371 0.51686 0.0
O51 O 0.6212 0.05235 0.50304 0.0
O52 O 0.62202 0.07083 0.53411 0.0
C53 C 0.54276 0.10213 0.51566 0.0
O54 O 0.51931 0.04056 0.5446 0.0
O55 O 0.56144 0.02342 0.5454 0.0
C56 C 0.41393 0.96795 0.50512 0.0
C57 C 0.36415 0.90489 0.49663 0.0
C58 C 0.35937 0.93224 0.50682 0.0
C59 C 0.38404 0.96346 0.511 0.0
C60 C 0.41895 0.94093 0.49488 0.0
C61 C 0.39424 0.90969 0.49061 0.0
C62 C 0.4399 1.00023 0.51077 0.0
C63 C 0.53817 0.03676 0.47342 0.0
C64 C 0.53536 0.96667 0.51166 0.0
C65 C 0.66275 0.10278 0.51479 0.0
C66 C 0.7092 0.16683 0.50832 0.0
C67 C 0.67783 0.15966 0.50056 0.0
C68 C 0.65479 0.12796 0.50383 0.0
C69 C 0.6939 0.10965 0.5225 0.0
C70 C 0.71695 0.14138 0.51932 0.0
C71 C 0.63853 0.06993 0.51896 0.0
H72 H 0.33673 0.92932 0.51201 0.0
H73 H 0.37989 0.98396 0.51912 0.0
H74 H 0.44202 0.94392 0.49037 0.0
H75 H 0.39869 0.88935 0.48253 0.0
H76 H 0.67108 0.17844 0.49181 0.0
H77 H 0.63075 0.12312 0.49788 0.0
H78 H 0.70035 0.09058 0.53118 0.0
H79 H 0.74073 0.14618 0.52578 0.0
Dy80 Dy 0.53731 0.53047 0.85546 0.0
Dy81 Dy 0.46067 0.49497 0.84439 0.0
C82 C 0.50788 0.51098 0.80914 0.0
O83 O 0.5172 0.57136 0.86066 0.0
O84 O 0.47238 0.55084 0.83886 0.0
O85 O 0.58028 0.57397 0.85447 0.0
O86 O 0.5801 0.5291 0.87145 0.0
O87 O 0.46789 0.51592 0.87656 0.0
O88 O 0.51559 0.51062 0.88433 0.0
O89 O 0.47832 0.45272 0.85352 0.0
O90 O 0.5288 0.47674 0.84477 0.0
O91 O 0.41493 0.46424 0.85356 0.0
O92 O 0.42005 0.48294 0.82269 0.0
C93 C 0.49393 0.57616 0.84951 0.0
O94 O 0.53011 0.53284 0.82148 0.0
O95 O 0.4821 0.48952 0.81583 0.0
C96 C 0.62792 0.56255 0.8577 0.0
C97 C 0.69035 0.57423 0.84915 0.0
C98 C 0.67712 0.59984 0.84579 0.0
C99 C 0.64632 0.59411 0.8501 0.0
C100 C 0.64065 0.53636 0.86026 0.0
C101 C 0.67154 0.54212 0.85595 0.0
C102 C 0.59712 0.55891 0.8649 0.0
C103 C 0.48966 0.51321 0.89006 0.0
C104 C 0.50472 0.44977 0.8489 0.0
C105 C 0.37231 0.47669 0.83674 0.0
C106 C 0.31573 0.48987 0.8352 0.0
C107 C 0.34216 0.5131 0.82695 0.0
C108 C 0.37028 0.50667 0.8278 0.0
C109 C 0.3462 0.45397 0.84545 0.0
C110 C 0.31819 0.46055 0.84478 0.0
C111 C 0.40059 0.46752 0.83606 0.0
H112 H 0.69085 0.62469 0.84029 0.0
H113 H 0.63724 0.61485 0.84811 0.0
H114 H 0.6272 0.51182 0.86625 0.0
H115 H 0.68112 0.52197 0.85887 0.0
H116 H 0.34099 0.53607 0.81968 0.0
H117 H 0.39016 0.5248 0.82109 0.0
H118 H 0.34724 0.43066 0.85236 0.0
H119 H 0.29812 0.44204 0.85109 0.0
O120 O 0.5403 0.06585 0.24402 0.0
Cd121 Cd 0.53573 0.06921 0.20676 0.0
O122 O 0.51951 0.00939 0.24356 0.0
Cd123 Cd 0.50678 0.00258 0.21066 0.0
O124 O 0.46928 0.97293 0.18808 0.0
C125 C 0.44764 0.98419 0.18203 0.0
O126 O 0.44998 0.01525 0.18802 0.0
C127 C 0.53204 0.03785 0.25352 0.0
C128 C 0.59132 0.11572 0.19427 0.0
O129 O 0.56923 0.12577 0.19909 0.0
O130 O 0.5869 0.08354 0.19503 0.0
O131 O 0.5598 0.52157 0.58387 0.0
Cd132 Cd 0.56383 0.52053 0.54694 0.0
O133 O 0.51741 0.53555 0.58179 0.0
Cd134 Cd 0.52318 0.55618 0.55109 0.0
O135 O 0.52768 0.60289 0.53412 0.0
C136 C 0.50495 0.61386 0.53399 0.0
O137 O 0.47965 0.59544 0.54256 0.0
C138 C 0.53729 0.52583 0.59229 0.0
C139 C 0.56186 0.45479 0.53552 0.0
O140 O 0.58796 0.47892 0.54088 0.0
O141 O 0.53674 0.46197 0.53502 0.0
O142 O 0.93293 0.46853 0.86227 0.0
Cd143 Cd 0.93506 0.46376 0.82536 0.0
O144 O 0.96734 0.51984 0.85898 0.0
Cd145 Cd 1.00279 0.56926 0.86905 0.0
O146 O 0.03265 0.62353 0.87148 0.0
C147 C 0.02203 0.64785 0.86869 0.0
O148 O 0.04129 0.67977 0.87175 0.0
C149 C 0.9512 0.49696 0.87046 0.0
C150 C 0.99716 0.47419 0.81888 0.0
O151 O 0.98749 0.49958 0.8197 0.0
O152 O 0.97719 0.44382 0.8204 0.0
O153 O 0.05182 0.53142 0.40216 0.0
Cd154 Cd 0.05547 0.52799 0.43944 0.0
O155 O 0.00716 0.54062 0.4008 0.0
Cd156 Cd 0.99708 0.52224 0.43158 0.0
O157 O 0.96908 0.48276 0.45118 0.0
C158 C 0.94278 0.48328 0.45581 0.0
O159 O 0.93414 0.50909 0.44992 0.0
C160 C 0.03041 0.5391 0.39197 0.0
C161 C 0.10479 0.58623 0.45525 0.0
O162 O 0.10926 0.55808 0.45156 0.0
O163 O 0.07684 0.58651 0.45201 0.0
O164 O 0.50352 0.98906 0.78066 0.0
Cd165 Cd 0.49409 0.98512 0.81685 0.0
O166 O 0.54236 0.03889 0.78379 0.0
Cd167 Cd 0.53364 0.05177 0.81441 0.0
O168 O 0.52597 0.09579 0.82809 0.0
C169 C 0.51403 0.1116 0.81522 0.0
O170 O 0.50646 0.09917 0.79629 0.0
C171 C 0.52527 0.0127 0.77287 0.0
C172 C 0.49021 0.91943 0.82891 0.0
O173 O 0.4658 0.9254 0.82159 0.0
O174 O 0.51633 0.94475 0.83108 0.0
O175 O 0.54681 0.53979 0.11167 0.0
Cd176 Cd 0.57905 0.54988 0.14467 0.0
O177 O 0.50367 0.54666 0.12037 0.0
Cd178 Cd 0.4549 0.54647 0.11633 0.0
O179 O 0.40749 0.54975 0.11593 0.0
C180 C 0.38503 0.52575 0.12297 0.0
O181 O 0.39036 0.49866 0.13024 0.0
C182 C 0.5193 0.54006 0.10673 0.0
C183 C 0.63986 0.54886 0.14125 0.0
O184 O 0.61672 0.52114 0.14365 0.0
O185 O 0.63433 0.57703 0.1403 0.0
C186 C 0.13076 0.56937 0.1227 0.0
C187 C 0.10673 0.54133 0.13 0.0
C188 C 0.16108 0.56859 0.12205 0.0
C189 C 0.21404 0.52448 0.14388 0.0
H190 H 0.26047 0.55991 0.09694 0.0
C191 C 0.32882 0.50142 0.13107 0.0
C192 C 0.3534 0.52834 0.12341 0.0
C193 C 0.29913 0.50379 0.13188 0.0
C194 C 0.24803 0.55029 0.1103 0.0
H195 H 0.09609 0.49047 0.14239 0.0
H196 H 0.14873 0.48905 0.14111 0.0
H197 H 0.20825 0.56268 0.09849 0.0
H198 H 0.3658 0.57892 0.1105 0.0
H199 H 0.31407 0.58321 0.11207 0.0
H200 H 0.25373 0.51207 0.15571 0.0
C201 C 0.14425 0.51185 0.13609 0.0
C202 C 0.21802 0.55187 0.11118 0.0
C203 C 0.11393 0.51259 0.13671 0.0
C204 C 0.34743 0.55766 0.11645 0.0
C205 C 0.31767 0.56003 0.11726 0.0
C206 C 0.24403 0.52294 0.14301 0.0
C207 C 0.16825 0.53981 0.12872 0.0
C208 C 0.20053 0.53882 0.12794 0.0
C209 C 0.29312 0.53316 0.12506 0.0
C210 C 0.26141 0.53563 0.12615 0.0
H211 H 0.1262 0.59201 0.11746 0.0
H212 H 0.17901 0.59078 0.11653 0.0
H213 H 0.20157 0.51475 0.15721 0.0
H214 H 0.33245 0.47837 0.13649 0.0
H215 H 0.28075 0.48232 0.13765 0.0
C216 C 0.72704 0.23121 0.50606 0.0
C217 C 0.73371 0.2007 0.50504 0.0
C218 C 0.74999 0.26298 0.5028 0.0
C219 C 0.8356 0.307 0.50288 0.0
H220 H 0.81284 0.37044 0.4672 0.0
C221 C 0.9275 0.42318 0.46851 0.0
C222 C 0.92063 0.45336 0.46547 0.0
C223 C 0.90519 0.39371 0.47554 0.0
C224 C 0.81954 0.35334 0.47749 0.0
H225 H 0.76985 0.17982 0.4996 0.0
H226 H 0.8099 0.23525 0.4941 0.0
H227 H 0.77284 0.31644 0.4751 0.0
H228 H 0.88549 0.47673 0.46842 0.0
H229 H 0.84685 0.42557 0.48108 0.0
H230 H 0.88235 0.34383 0.50522 0.0
C231 C 0.78699 0.23459 0.49767 0.0
C232 C 0.79658 0.32232 0.48197 0.0
C233 C 0.764 0.20281 0.50083 0.0
C234 C 0.89145 0.45383 0.47044 0.0
C235 C 0.8692 0.4244 0.47756 0.0
C236 C 0.85856 0.33812 0.49848 0.0
C237 C 0.78021 0.26502 0.49854 0.0
C238 C 0.8044 0.29865 0.49456 0.0
C239 C 0.87555 0.39376 0.47981 0.0
C240 C 0.85088 0.36156 0.48557 0.0
H241 H 0.70415 0.23065 0.50963 0.0
H242 H 0.74416 0.28601 0.50382 0.0
H243 H 0.84227 0.2895 0.51287 0.0
H244 H 0.94973 0.42191 0.4648 0.0
H245 H 0.91081 0.37052 0.47689 0.0
C246 C 0.51699 0.63956 0.85749 0.0
C247 C 0.49184 0.61094 0.84907 0.0
C248 C 0.51542 0.67253 0.85657 0.0
C249 C 0.47333 0.72252 0.82805 0.0
H250 H 0.51045 0.78916 0.87288 0.0
C251 C 0.46085 0.85592 0.82864 0.0
C252 C 0.48858 0.88407 0.83375 0.0
C253 C 0.45997 0.82233 0.83176 0.0
C254 C 0.50014 0.77087 0.8602 0.0
H255 H 0.44498 0.59444 0.83347 0.0
H256 H 0.44198 0.65179 0.83225 0.0
H257 H 0.51099 0.73083 0.87598 0.0
H258 H 0.53688 0.89904 0.84669 0.0
H259 H 0.53527 0.84037 0.85221 0.0
H260 H 0.4624 0.76257 0.81232 0.0
C261 C 0.46323 0.64891 0.83917 0.0
C262 C 0.50051 0.73746 0.86194 0.0
C263 C 0.46489 0.61596 0.83997 0.0
C264 C 0.51515 0.87792 0.84259 0.0
C265 C 0.5142 0.84432 0.84584 0.0
C266 C 0.47278 0.75583 0.82638 0.0
C267 C 0.48857 0.67766 0.84733 0.0
C268 C 0.48729 0.71292 0.84582 0.0
C269 C 0.48673 0.81615 0.84019 0.0
C270 C 0.48634 0.78043 0.84238 0.0
H271 H 0.53818 0.63665 0.86452 0.0
H272 H 0.53557 0.69409 0.86273 0.0
H273 H 0.46343 0.70454 0.81518 0.0
H274 H 0.43995 0.85975 0.82183 0.0
H275 H 0.43835 0.80114 0.82748 0.0
C276 C 0.91664 0.57582 0.13566 0.0
C277 C 0.92168 0.5447 0.13267 0.0
C278 C 0.88624 0.57627 0.13638 0.0
C279 C 0.80208 0.52341 0.12263 0.0
H280 H 0.78756 0.58758 0.15995 0.0
C281 C 0.6773 0.51705 0.13884 0.0
C282 C 0.67202 0.54838 0.13983 0.0
C283 C 0.70763 0.51661 0.13772 0.0
C284 C 0.79125 0.56972 0.14929 0.0
H285 H 0.89838 0.48955 0.12825 0.0
H286 H 0.84563 0.49022 0.12997 0.0
H287 H 0.84037 0.58659 0.15869 0.0
H288 H 0.69466 0.60384 0.1404 0.0
H289 H 0.74754 0.60304 0.13854 0.0
H290 H 0.75277 0.50626 0.11348 0.0
C291 C 0.86509 0.51445 0.13133 0.0
C292 C 0.82161 0.56918 0.14853 0.0
C293 C 0.89548 0.51404 0.13047 0.0
C294 C 0.69785 0.57924 0.13967 0.0
C295 C 0.72821 0.57879 0.13872 0.0
C296 C 0.77169 0.52379 0.12351 0.0
C297 C 0.85999 0.54559 0.13427 0.0
C298 C 0.82751 0.54606 0.13515 0.0
C299 C 0.73351 0.54747 0.13774 0.0
C300 C 0.76588 0.547 0.13682 0.0
H301 H 0.93618 0.59999 0.1373 0.0
H302 H 0.88334 0.60083 0.13832 0.0
H303 H 0.80567 0.50565 0.11186 0.0
H304 H 0.65798 0.49279 0.13895 0.0
H305 H 0.71089 0.49203 0.13719 0.0
C306 C 0.34323 0.84014 0.49481 0.0
C307 C 0.33792 0.87139 0.49268 0.0
C308 C 0.31839 0.80872 0.49167 0.0
C309 C 0.23256 0.76987 0.49157 0.0
H310 H 0.24169 0.69627 0.45929 0.0
C311 C 0.12692 0.64963 0.46318 0.0
C312 C 0.13134 0.61789 0.46209 0.0
C313 C 0.15235 0.67993 0.46819 0.0
C314 C 0.23886 0.71631 0.46863 0.0
H315 H 0.30231 0.89391 0.48501 0.0
H316 H 0.25904 0.83915 0.4798 0.0
H317 H 0.28576 0.75025 0.46531 0.0
H318 H 0.1658 0.59292 0.46604 0.0
H319 H 0.21006 0.64566 0.47523 0.0
H320 H 0.18577 0.73601 0.49502 0.0
C321 C 0.28237 0.83901 0.48416 0.0
C322 C 0.26413 0.7473 0.47202 0.0
C323 C 0.3072 0.8704 0.48717 0.0
C324 C 0.16163 0.61699 0.46664 0.0
C325 C 0.18705 0.64728 0.47177 0.0
C326 C 0.20736 0.73882 0.4883 0.0
C327 C 0.28767 0.80782 0.48644 0.0
C328 C 0.26116 0.77452 0.48337 0.0
C329 C 0.18281 0.6792 0.47235 0.0
C330 C 0.21009 0.71172 0.47664 0.0
H331 H 0.36647 0.83989 0.49935 0.0
H332 H 0.32315 0.7851 0.49374 0.0
H333 H 0.22973 0.79019 0.50066 0.0
H334 H 0.10391 0.65125 0.45968 0.0
H335 H 0.14822 0.70404 0.46821 0.0
C336 C 0.48219 0.38602 0.85317 0.0
C337 C 0.50698 0.41512 0.84776 0.0
C338 C 0.48377 0.35316 0.85132 0.0
C339 C 0.5215 0.30497 0.82272 0.0
H340 H 0.492 0.23592 0.8634 0.0
C341 C 0.49948 0.16257 0.80572 0.0
C342 C 0.5111 0.14486 0.82069 0.0
C343 C 0.49883 0.19515 0.81013 0.0
C344 C 0.50049 0.25501 0.85198 0.0
H345 H 0.55321 0.43249 0.83658 0.0
H346 H 0.55592 0.37516 0.83337 0.0
H347 H 0.4925 0.29424 0.86953 0.0
H348 H 0.53022 0.14707 0.8523 0.0
H349 H 0.52902 0.20421 0.86003 0.0
H350 H 0.52957 0.26595 0.80518 0.0
C351 C 0.53514 0.37778 0.83887 0.0
C352 C 0.50054 0.28828 0.8554 0.0
C353 C 0.53363 0.41065 0.8408 0.0
C354 C 0.52116 0.16006 0.84042 0.0
C355 C 0.52038 0.19272 0.84487 0.0
C356 C 0.52127 0.27174 0.81925 0.0
C357 C 0.51012 0.34864 0.84394 0.0
C358 C 0.51095 0.31359 0.84076 0.0
C359 C 0.50969 0.21082 0.82964 0.0
C360 C 0.51058 0.24631 0.83377 0.0
H361 H 0.46132 0.3885 0.85861 0.0
H362 H 0.46399 0.3312 0.85516 0.0
H363 H 0.52937 0.32377 0.81105 0.0
H364 H 0.49134 0.15156 0.7904 0.0
H365 H 0.48991 0.20817 0.79819 0.0
C366 C 0.50442 0.90369 0.5134 0.0
C367 C 0.53291 0.93013 0.51045 0.0
C368 C 0.50215 0.86927 0.5128 0.0
C369 C 0.55034 0.81454 0.51952 0.0
H370 H 0.47485 0.74346 0.49559 0.0
C371 C 0.53674 0.67088 0.52036 0.0
C372 C 0.50807 0.64849 0.5265 0.0
C373 C 0.54039 0.70477 0.5154 0.0
C374 C 0.49603 0.76298 0.50242 0.0
H375 H 0.58126 0.94087 0.50419 0.0
H376 H 0.57721 0.88074 0.50306 0.0
H377 H 0.48021 0.80376 0.49269 0.0
H378 H 0.4604 0.6438 0.53141 0.0
H379 H 0.46681 0.70269 0.5229 0.0
H380 H 0.56591 0.77377 0.5296 0.0
C381 C 0.55671 0.88674 0.50605 0.0
C382 C 0.4991 0.79755 0.50078 0.0
C383 C 0.55897 0.92122 0.5066 0.0
C384 C 0.48282 0.66034 0.52677 0.0
C385 C 0.48645 0.69412 0.52177 0.0
C386 C 0.54727 0.77996 0.52116 0.0
C387 C 0.52831 0.86036 0.50925 0.0
C388 C 0.52608 0.82374 0.50959 0.0
C389 C 0.51542 0.71695 0.51636 0.0
C390 C 0.51987 0.75373 0.51291 0.0
H391 H 0.48381 0.90951 0.51635 0.0
H392 H 0.48003 0.84968 0.5156 0.0
H393 H 0.57127 0.834 0.5267 0.0
H394 H 0.55664 0.66256 0.51992 0.0
H395 H 0.5629 0.72157 0.51103 0.0
C396 C 0.74636 0.6135 0.85471 0.0
C397 C 0.72425 0.58196 0.84709 0.0
C398 C 0.7784 0.62038 0.85399 0.0
C399 C 0.83574 0.57685 0.85073 0.0
H400 H 0.89234 0.66946 0.84245 0.0
C401 C 0.97008 0.612 0.85068 0.0
C402 C 0.98824 0.64061 0.86326 0.0
C403 C 0.93787 0.60457 0.84637 0.0
C404 C 0.87681 0.6435 0.84484 0.0
H405 H 0.71846 0.5332 0.83225 0.0
H406 H 0.77459 0.54536 0.83078 0.0
H407 H 0.83583 0.65666 0.83845 0.0
H408 H 0.98735 0.68502 0.88018 0.0
H409 H 0.93117 0.6724 0.87242 0.0
H410 H 0.8769 0.56384 0.85718 0.0
C411 C 0.76709 0.56457 0.83762 0.0
C412 C 0.84444 0.63615 0.8426 0.0
C413 C 0.73494 0.55761 0.83842 0.0
C414 C 0.97388 0.66261 0.8706 0.0
C415 C 0.94176 0.65543 0.8661 0.0
C416 C 0.86814 0.58417 0.85282 0.0
C417 C 0.78922 0.59596 0.84556 0.0
C418 C 0.8235 0.6029 0.84592 0.0
C419 C 0.92335 0.6261 0.85416 0.0
C420 C 0.889 0.61771 0.85027 0.0
H421 H 0.73898 0.63254 0.86188 0.0
H422 H 0.79471 0.64451 0.86065 0.0
H423 H 0.82037 0.55108 0.85365 0.0
H424 H 0.98077 0.59567 0.84384 0.0
H425 H 0.92438 0.58221 0.83676 0.0
C426 C 0.18459 0.77841 0.15699 0.0
C427 C 0.17411 0.75802 0.13891 0.0
C428 C 0.21408 0.80442 0.15897 0.0
C429 C 0.29105 0.83316 0.1372 0.0
H430 H 0.30307 0.91718 0.168 0.0
C431 C 0.41281 0.92534 0.16922 0.0
C432 C 0.418 0.96062 0.17141 0.0
C433 C 0.38328 0.9022 0.16207 0.0
C434 C 0.30012 0.89417 0.15905 0.0
H435 H 0.18594 0.74929 0.10856 0.0
H436 H 0.23722 0.79511 0.11183 0.0
H437 H 0.25075 0.8744 0.1618 0.0
H438 H 0.39686 0.99957 0.16645 0.0
H439 H 0.34554 0.95928 0.15343 0.0
H440 H 0.34037 0.85325 0.13414 0.0
C441 C 0.22301 0.79054 0.12468 0.0
C442 C 0.27012 0.86932 0.15579 0.0
C443 C 0.19362 0.76433 0.12278 0.0
C444 C 0.39354 0.9725 0.16513 0.0
C445 C 0.36404 0.94936 0.15782 0.0
C446 C 0.32104 0.85813 0.14033 0.0
C447 C 0.23367 0.81086 0.14283 0.0
C448 C 0.26527 0.83824 0.14513 0.0
C449 C 0.35831 0.91382 0.15675 0.0
C450 C 0.32604 0.88872 0.15159 0.0
H451 H 0.17019 0.77384 0.16976 0.0
H452 H 0.22173 0.81905 0.17333 0.0
H453 H 0.28828 0.80944 0.12905 0.0
H454 H 0.43113 0.9153 0.17393 0.0
H455 H 0.37973 0.87503 0.16167 0.0
C456 C 0.57421 0.16487 0.52178 0.0
C457 C 0.5452 0.13869 0.51636 0.0
C458 C 0.57653 0.19932 0.52263 0.0
C459 C 0.53511 0.25836 0.50527 0.0
H460 H 0.58814 0.31743 0.54972 0.0
C461 C 0.53192 0.39302 0.52512 0.0
C462 C 0.56066 0.41937 0.53093 0.0
C463 C 0.53057 0.35916 0.52208 0.0
C464 C 0.57354 0.30142 0.53706 0.0
H465 H 0.49588 0.12835 0.50747 0.0
H466 H 0.49985 0.18832 0.50929 0.0
H467 H 0.58464 0.25772 0.54703 0.0
H468 H 0.61064 0.43091 0.5376 0.0
H469 H 0.60828 0.37194 0.53221 0.0
H470 H 0.52372 0.3021 0.49551 0.0
C471 C 0.52093 0.18229 0.51258 0.0
C472 C 0.57153 0.26714 0.5355 0.0
C473 C 0.51862 0.14783 0.51165 0.0
C474 C 0.5881 0.41123 0.5332 0.0
C475 C 0.58673 0.37738 0.53024 0.0
C476 C 0.53703 0.29265 0.50688 0.0
C477 C 0.5499 0.20848 0.51815 0.0
C478 C 0.55227 0.24513 0.5196 0.0
C479 C 0.55791 0.35087 0.52486 0.0
C480 C 0.55626 0.31458 0.52281 0.0
H481 H 0.59525 0.15885 0.52531 0.0
H482 H 0.59932 0.21882 0.52663 0.0
H483 H 0.52041 0.24232 0.49264 0.0
H484 H 0.51034 0.39839 0.52326 0.0
H485 H 0.50796 0.33932 0.51813 0.0
C486 C 0.27378 0.50348 0.81382 0.0
C487 C 0.28516 0.49508 0.8329 0.0
C488 C 0.24384 0.50551 0.81112 0.0
C489 C 0.18029 0.51543 0.8386 0.0
H490 H 0.12598 0.46406 0.79202 0.0
C491 C 0.0404 0.45195 0.81378 0.0
C492 C 0.03069 0.47985 0.81737 0.0
C493 C 0.07226 0.45688 0.81392 0.0
C494 C 0.14092 0.47858 0.80506 0.0
H495 H 0.27469 0.48357 0.8643 0.0
H496 H 0.22235 0.48725 0.85961 0.0
H497 H 0.18078 0.46804 0.79619 0.0
H498 H 0.04672 0.5349 0.82357 0.0
H499 H 0.10246 0.5434 0.824 0.0
H500 H 0.14023 0.5254 0.84767 0.0
C501 C 0.23659 0.49223 0.84675 0.0
C502 C 0.17231 0.4811 0.80736 0.0
C503 C 0.26641 0.48986 0.84939 0.0
C504 C 0.05347 0.5129 0.8207 0.0
C505 C 0.08537 0.51776 0.82108 0.0
C506 C 0.14896 0.51322 0.83618 0.0
C507 C 0.22481 0.49952 0.8275 0.0
C508 C 0.1922 0.49914 0.82431 0.0
C509 C 0.09507 0.48974 0.81788 0.0
C510 C 0.12886 0.49434 0.81954 0.0
H511 H 0.28762 0.50736 0.80079 0.0
H512 H 0.23543 0.51142 0.79616 0.0
H513 H 0.19516 0.52968 0.85174 0.0
H514 H 0.02342 0.42618 0.81117 0.0
H515 H 0.07908 0.43476 0.81159 0.0
C516 C 0.83687 0.3463 0.16319 0.0
C517 C 0.8591 0.33578 0.15422 0.0
C518 C 0.8079 0.3223 0.16725 0.0
C519 C 0.76752 0.23058 0.1758 0.0
H520 H 0.69197 0.25054 0.16069 0.0
C521 C 0.64434 0.12923 0.18144 0.0
C522 C 0.62136 0.14066 0.18852 0.0
C523 C 0.67312 0.15283 0.17668 0.0
C524 C 0.71284 0.24471 0.16525 0.0
H525 H 0.86808 0.29159 0.14246 0.0
H526 H 0.81773 0.24969 0.14992 0.0
H527 H 0.74287 0.29223 0.15408 0.0
H528 H 0.61052 0.18582 0.1961 0.0
H529 H 0.6609 0.22693 0.18823 0.0
H530 H 0.73769 0.18335 0.18729 0.0
C531 C 0.82288 0.27654 0.15389 0.0
C532 C 0.74199 0.2686 0.16142 0.0
C533 C 0.85177 0.30057 0.14968 0.0
C534 C 0.62767 0.17618 0.19057 0.0
C535 C 0.65653 0.19977 0.18595 0.0
C536 C 0.73839 0.20679 0.17978 0.0
C537 C 0.80057 0.28719 0.16259 0.0
C538 C 0.76964 0.26179 0.16666 0.0
C539 C 0.67968 0.1884 0.17902 0.0
C540 C 0.71067 0.21355 0.17455 0.0
H541 H 0.84191 0.3731 0.16724 0.0
H542 H 0.79133 0.33118 0.17425 0.0
H543 H 0.78848 0.22481 0.18023 0.0
H544 H 0.64013 0.10202 0.17958 0.0
H545 H 0.69018 0.14315 0.17105 0.0
C546 C 0.99803 0.5631 0.05593 0.0
C547 C 1.00089 0.53562 0.06739 0.0
C548 C 0.99285 0.56004 0.03456 0.0
C549 C 0.99869 0.50737 0.99026 0.0
H550 H 0.94258 0.54738 0.96169 0.0
C551 C 0.95309 0.47434 0.90555 0.0
C552 C 0.95508 0.50218 0.89294 0.0
C553 C 0.95852 0.47929 0.9268 0.0
C554 C 0.9585 0.53633 0.96947 0.0
H555 H 1.00018 0.48322 0.06544 0.0
H556 H 0.99038 0.47756 0.02835 0.0
H557 H 0.95261 0.55432 -0.00109 0.0
H558 H 0.96221 0.55657 0.89264 0.0
H559 H 0.97184 0.5653 0.92989 0.0
H560 H 1.00401 0.48879 0.96083 0.0
C561 C 0.9929 0.50183 0.03574 0.0
C562 C 0.96436 0.54038 0.99078 0.0
C563 C 0.99835 0.50499 0.05706 0.0
C564 C 0.96143 0.53486 0.90199 0.0
C565 C 0.96653 0.53976 0.92329 0.0
C566 C 0.9926 0.50306 0.96901 0.0
C567 C 0.99017 0.52933 0.02419 0.0
C568 C 0.98443 0.52581 0.00146 0.0
C569 C 0.96557 0.51209 0.93588 0.0
C570 C 0.97234 0.51735 0.95841 0.0
H571 H 1.00004 0.58711 0.06343 0.0
H572 H 0.99133 0.58192 0.02617 0.0
H573 H 0.01481 0.49644 -0.00212 0.0
H574 H 0.94809 0.44885 0.89896 0.0
H575 H 0.95717 0.45741 0.93616 0.0
C576 C 0.55861 0.06612 0.44151 0.0
C577 C 0.53801 0.03771 0.45087 0.0
C578 C 0.55857 0.06696 0.42019 0.0
C579 C 0.51006 0.02569 0.37246 0.0
H580 H 0.5885 0.06587 0.34769 0.0
C581 C 0.52033 0.00821 0.28664 0.0
C582 C 0.53537 0.03824 0.27618 0.0
C583 C 0.52158 0.00881 0.30799 0.0
C584 C 0.56643 0.05481 0.35443 0.0
H585 H 0.50149 0.98771 0.44528 0.0
H586 H 0.50205 0.98865 0.40819 0.0
H587 H 0.58864 0.0653 0.38495 0.0
H588 H 0.56429 0.09224 0.27999 0.0
H589 H 0.56682 0.09308 0.31745 0.0
H590 H 0.48804 0.01447 0.34188 0.0
C591 C 0.51768 0.01076 0.41721 0.0
C592 C 0.56644 0.05457 0.37576 0.0
C593 C 0.51746 0.01011 0.43851 0.0
C594 C 0.55241 0.0687 0.28759 0.0
C595 C 0.55396 0.06917 0.30901 0.0
C596 C 0.51013 0.02557 0.35117 0.0
C597 C 0.53817 0.03924 0.40776 0.0
C598 C 0.53824 0.03993 0.38506 0.0
C599 C 0.53818 0.03933 0.31936 0.0
C600 C 0.5383 0.04003 0.34196 0.0
H601 H 0.5746 0.08791 0.45062 0.0
H602 H 0.57429 0.08956 0.41347 0.0
H603 H 0.48783 0.01488 0.37902 0.0
H604 H 0.50701 0.9843 0.27834 0.0
H605 H 0.50951 0.98535 0.31562 0.0
C606 C 0.48573 0.49682 0.77273 0.0
C607 C 0.51197 0.51022 0.78703 0.0
C608 C 0.48933 0.49674 0.75178 0.0
C609 C 0.54682 0.53682 0.71382 0.0
H610 H 0.4885 0.46441 0.67781 0.0
C611 C 0.56107 0.52187 0.62762 0.0
C612 C 0.53472 0.52057 0.61449 0.0
C613 C 0.55904 0.51889 0.64876 0.0
C614 C 0.5049 0.48478 0.68772 0.0
H615 H 0.56266 0.53331 0.79066 0.0
H616 H 0.56917 0.53191 0.75418 0.0
H617 H 0.48423 0.46195 0.71467 0.0
H618 H 0.48539 0.51412 0.61311 0.0
H619 H 0.48173 0.50801 0.65002 0.0
H620 H 0.56787 0.55902 0.6867 0.0
C621 C 0.54564 0.52246 0.75902 0.0
C622 C 0.50238 0.48357 0.70884 0.0
C623 C 0.54197 0.5231 0.77997 0.0
C624 C 0.50612 0.51533 0.62285 0.0
C625 C 0.50396 0.51168 0.64393 0.0
C626 C 0.54966 0.53765 0.69273 0.0
C627 C 0.51935 0.5095 0.7446 0.0
C628 C 0.52305 0.50983 0.72218 0.0
C629 C 0.53049 0.51385 0.65708 0.0
C630 C 0.5285 0.51187 0.67949 0.0
H631 H 0.46226 0.48701 0.77769 0.0
H632 H 0.46844 0.48725 0.74123 0.0
H633 H 0.56283 0.55784 0.72345 0.0
H634 H 0.58345 0.526 0.62164 0.0
H635 H 0.57977 0.52049 0.65861 0.0
C636 C 0.51762 0.03541 0.58778 0.0
C637 C 0.53992 0.02731 0.57736 0.0
C638 C 0.51689 0.03171 0.60893 0.0
C639 C 0.5655 0.02609 0.65565 0.0
H640 H 0.48526 0.99041 0.67869 0.0
C641 C 0.51029 0.98258 0.73834 0.0
C642 C 0.52962 0.01082 0.75081 0.0
C643 C 0.51279 0.98216 0.71723 0.0
C644 C 0.50788 1.00003 0.6725 0.0
H645 H 0.57896 0.00892 0.581 0.0
H646 H 0.57748 0.00219 0.61789 0.0
H647 H 0.48684 0.99406 0.64168 0.0
H648 H 0.56737 0.06031 0.75095 0.0
H649 H 0.57143 0.05967 0.71418 0.0
H650 H 0.58653 0.03174 0.68649 0.0
C651 C 0.56079 0.01179 0.60973 0.0
C652 C 0.50877 0.00255 0.6513 0.0
C653 C 0.56154 0.01552 0.58857 0.0
C654 C 0.55211 0.03811 0.7418 0.0
C655 C 0.55458 0.03769 0.72071 0.0
C656 C 0.56461 0.02356 0.67687 0.0
C657 C 0.53841 0.01978 0.62014 0.0
C658 C 0.53757 0.01591 0.64264 0.0
C659 C 0.53465 0.00994 0.70814 0.0
C660 C 0.53578 0.01078 0.68555 0.0
H661 H 0.50068 0.04466 0.57962 0.0
H662 H 0.49967 0.0386 0.61653 0.0
H663 H 0.58807 0.03673 0.64948 0.0
H664 H 0.49284 0.96106 0.74479 0.0
H665 H 0.49741 0.96015 0.708 0.0
C666 C 0.46308 0.52527 0.9197 0.0
C667 C 0.48506 0.51269 0.91215 0.0
C668 C 0.45969 0.52552 0.94075 0.0
C669 C 0.47333 0.48448 0.98841 0.0
H670 H 0.48334 0.57081 0.01596 0.0
C671 C 0.51683 0.51125 0.07305 0.0
C672 C 0.50631 0.53221 0.08512 0.0
C673 C 0.50737 0.50586 0.05218 0.0
C674 C 0.47977 0.54628 0.00852 0.0
H675 H 0.52017 0.48983 0.92064 0.0
H676 H 0.51387 0.4898 0.95716 0.0
H677 H 0.47916 0.56693 0.97855 0.0
H678 H 0.47772 0.56426 0.08464 0.0
H679 H 0.46035 0.55406 0.04811 0.0
H680 H 0.47434 0.46381 0.0182 0.0
C681 C 0.49935 0.49955 0.94688 0.0
C682 C 0.47747 0.54412 0.98709 0.0
C683 C 0.50311 0.49982 0.92597 0.0
C684 C 0.48554 0.5472 0.0759 0.0
C685 C 0.476 0.5418 0.05489 0.0
C686 C 0.4753 0.48651 0.00977 0.0
C687 C 0.47776 0.51256 0.95451 0.0
C688 C 0.47525 0.5135 0.97689 0.0
C689 C 0.48711 0.52133 0.04274 0.0
C690 C 0.47964 0.51774 0.02012 0.0
H691 H 0.4489 0.53544 0.90942 0.0
H692 H 0.44287 0.53567 0.94627 0.0
H693 H 0.4711 0.46039 0.9809 0.0
H694 H 0.53296 0.49944 0.07967 0.0
H695 H 0.51694 0.49053 0.0433 0.0
C696 C 0.04488 0.57723 0.20576 0.0
C697 C 0.02265 0.54889 0.19476 0.0
C698 C 0.04685 0.57889 0.22719 0.0
C699 C 1.00066 0.54243 0.2709 0.0
H700 H 0.08144 0.57555 0.30272 0.0
C701 C 0.05474 0.53837 0.35911 0.0
C702 C 0.03189 0.54505 0.36973 0.0
C703 C 0.05488 0.54196 0.3379 0.0
C704 C 0.0587 0.56607 0.29405 0.0
H705 H 0.98541 0.4998 0.1977 0.0
H706 H 0.98919 0.50247 0.23488 0.0
H707 H 0.07909 0.57474 0.26537 0.0
H708 H 0.992 0.56205 0.36648 0.0
H709 H 0.99261 0.56893 0.32962 0.0
H710 H 0.98024 0.53258 0.29945 0.0
C711 C 1.00469 0.52377 0.22701 0.0
C712 C 0.05734 0.56599 0.27265 0.0
C713 C 1.00267 0.52215 0.20565 0.0
C714 C 0.00976 0.55638 0.35876 0.0
C715 C 0.01001 0.56015 0.33759 0.0
C716 C 1.00201 0.54243 0.29226 0.0
C717 C 0.02666 0.55223 0.23806 0.0
C718 C 0.02829 0.55385 0.26082 0.0
C719 C 0.03227 0.55249 0.32684 0.0
C720 C 0.03104 0.55403 0.30412 0.0
H721 H 0.06058 0.59829 0.19784 0.0
H722 H 0.06384 0.60132 0.23523 0.0
H723 H 0.97787 0.53338 0.26228 0.0
H724 H 0.07211 0.52955 0.36709 0.0
H725 H 0.07214 0.53545 0.33011 0.0
loop_
_geom_bond_atom_site_label_1
_geom_bond_atom_site_label_2
_geom_bond_distance
_geom_bond_site_symmetry_2
_ccdc_geom_bond_type
Dy0 O3 2.307 1_455 S
Dy0 O5 2.395 . S
Dy0 O6 2.379 . S
Dy0 O8 2.339 . S
Dy0 O10 2.298 . S
Dy0 O14 2.275 . S
Dy0 C22 2.738 . S
Dy1 O4 2.298 . S
Dy1 O7 2.275 1_655 S
Dy1 O9 2.307 1_655 S
Dy1 O11 2.395 . S
Dy1 O12 2.379 . S
Dy1 O15 2.339 . S
Dy1 C31 2.738 . S
C2 O14 1.254 . S
C2 O15 1.257 1_455 S
O3 Dy0 2.307 1_655 S
O3 C13 1.266 . S
O4 Dy1 2.298 . S
O4 C13 1.236 . S
O5 Dy0 2.395 . S
O5 C22 1.255 . S
O6 Dy0 2.379 . S
O6 C22 1.249 . S
O7 Dy1 2.275 1_455 S
O7 C23 1.254 . S
O8 Dy0 2.339 . S
O8 C23 1.257 . S
O9 Dy1 2.307 1_455 S
O9 C24 1.266 . S
O10 Dy0 2.298 . S
O10 C24 1.236 . S
O11 Dy1 2.395 . S
O11 C31 1.255 . S
O12 Dy1 2.379 . S
O12 C31 1.249 . S
C13 O3 1.266 . S
C13 O4 1.236 . S
O14 Dy0 2.275 . S
O14 C2 1.254 . S
O15 Dy1 2.339 . S
O15 C2 1.257 1_655 S
C16 C19 1.344 . S
C16 C20 1.328 . S
C16 C22 1.516 . S
C17 C18 1.304 . S
C17 C21 1.323 . S
C18 C17 1.304 . S
C18 C19 1.371 . S
C18 H32 0.930 . S
C19 C16 1.344 . S
C19 C18 1.371 . S
C19 H33 0.931 . S
C20 C16 1.328 . S
C20 C21 1.433 . S
C20 H34 0.931 . S
C21 C17 1.323 . S
C21 C20 1.433 . S
C21 H35 0.933 . S
C22 Dy0 2.738 . S
C22 O5 1.255 . S
C22 O6 1.249 . S
C22 C16 1.516 . S
C23 O7 1.254 . S
C23 O8 1.257 . S
C24 O9 1.266 . S
C24 O10 1.236 . S
C25 C28 1.344 . S
C25 C29 1.328 . S
C25 C31 1.516 . S
C26 C27 1.304 . S
C26 C30 1.323 . S
C27 C26 1.304 . S
C27 C28 1.371 . S
C27 H36 0.930 . S
C28 C25 1.344 . S
C28 C27 1.371 . S
C28 H37 0.931 . S
C29 C25 1.328 . S
C29 C30 1.433 . S
C29 H38 0.931 . S
C30 C26 1.323 . S
C30 C29 1.433 . S
C30 H39 0.933 . S
C31 Dy1 2.738 . S
C31 O11 1.255 . S
C31 O12 1.249 . S
C31 C25 1.516 . S
H32 C18 0.930 . S
H33 C19 0.931 . S
H34 C20 0.931 . S
H35 C21 0.933 . S
H36 C27 0.930 . S
H37 C28 0.931 . S
H38 C29 0.931 . S
H39 C30 0.933 . S
Dy40 O43 2.307 . S
Dy40 O45 2.395 1_545 S
Dy40 O46 2.379 1_545 S
Dy40 O48 2.339 . S
Dy40 O50 2.298 1_545 S
Dy40 O54 2.275 . S
Dy40 C62 2.738 1_545 S
Dy41 O44 2.298 . S
Dy41 O47 2.275 . S
Dy41 O49 2.307 1_545 S
Dy41 O51 2.395 . S
Dy41 O52 2.379 . S
Dy41 O55 2.339 . S
Dy41 C71 2.738 . S
C42 O54 1.254 . S
C42 O55 1.257 . S
O43 Dy40 2.307 . S
O43 C53 1.266 . S
O44 Dy41 2.298 . S
O44 C53 1.236 . S
O45 Dy40 2.395 1_565 S
O45 C62 1.255 . S
O46 Dy40 2.379 1_565 S
O46 C62 1.249 . S
O47 Dy41 2.275 . S
O47 C63 1.254 . S
O48 Dy40 2.339 . S
O48 C63 1.257 . S
O49 Dy41 2.307 1_565 S
O49 C64 1.266 . S
O50 Dy40 2.298 1_565 S
O50 C64 1.236 . S
O51 Dy41 2.395 . S
O51 C71 1.255 . S
O52 Dy41 2.379 . S
O52 C71 1.249 . S
C53 O43 1.266 . S
C53 O44 1.236 . S
O54 Dy40 2.275 . S
O54 C42 1.254 . S
O55 Dy41 2.339 . S
O55 C42 1.257 . S
C56 C59 1.344 . S
C56 C60 1.328 . S
C56 C62 1.516 . S
C57 C58 1.304 . S
C57 C61 1.323 . S
C58 C57 1.304 . S
C58 C59 1.371 . S
C58 H72 0.930 . S
C59 C56 1.344 . S
C59 C58 1.371 . S
C59 H73 0.931 . S
C60 C56 1.328 . S
C60 C61 1.433 . S
C60 H74 0.931 . S
C61 C57 1.323 . S
C61 C60 1.433 . S
C61 H75 0.933 . S
C62 Dy40 2.738 1_565 S
C62 O45 1.255 . S
C62 O46 1.249 . S
C62 C56 1.516 . S
C63 O47 1.254 . S
C63 O48 1.257 . S
C64 O49 1.266 . S
C64 O50 1.236 . S
C65 C68 1.344 . S
C65 C69 1.328 . S
C65 C71 1.516 . S
C66 C67 1.304 . S
C66 C70 1.323 . S
C67 C66 1.304 . S
C67 C68 1.371 . S
C67 H76 0.930 . S
C68 C65 1.344 . S
C68 C67 1.371 . S
C68 H77 0.931 . S
C69 C65 1.328 . S
C69 C70 1.433 . S
C69 H78 0.931 . S
C70 C66 1.323 . S
C70 C69 1.433 . S
C70 H79 0.933 . S
C71 Dy41 2.738 . S
C71 O51 1.255 . S
C71 O52 1.249 . S
C71 C65 1.516 . S
H72 C58 0.930 . S
H73 C59 0.931 . S
H74 C60 0.931 . S
H75 C61 0.933 . S
H76 C67 0.930 . S
H77 C68 0.931 . S
H78 C69 0.931 . S
H79 C70 0.933 . S
Dy80 O83 2.307 . S
Dy80 O85 2.395 . S
Dy80 O86 2.379 . S
Dy80 O88 2.339 . S
Dy80 O90 2.298 . S
Dy80 O94 2.275 . S
Dy80 C102 2.738 . S
Dy81 O84 2.298 . S
Dy81 O87 2.275 . S
Dy81 O89 2.307 . S
Dy81 O91 2.395 . S
Dy81 O92 2.379 . S
Dy81 O95 2.339 . S
Dy81 C111 2.738 . S
C82 O94 1.254 . S
C82 O95 1.257 . S
O83 Dy80 2.307 . S
O83 C93 1.266 . S
O84 Dy81 2.298 . S
O84 C93 1.236 . S
O85 Dy80 2.395 . S
O85 C102 1.255 . S
O86 Dy80 2.379 . S
O86 C102 1.249 . S
O87 Dy81 2.275 . S
O87 C103 1.254 . S
O88 Dy80 2.339 . S
O88 C103 1.257 . S
O89 Dy81 2.307 . S
O89 C104 1.266 . S
O90 Dy80 2.298 . S
O90 C104 1.236 . S
O91 Dy81 2.395 . S
O91 C111 1.255 . S
O92 Dy81 2.379 . S
O92 C111 1.249 . S
C93 O83 1.266 . S
C93 O84 1.236 . S
O94 Dy80 2.275 . S
O94 C82 1.254 . S
O95 Dy81 2.339 . S
O95 C82 1.257 . S
C96 C99 1.344 . S
C96 C100 1.328 . S
C96 C102 1.516 . S
C97 C98 1.304 . S
C97 C101 1.323 . S
C98 C97 1.304 . S
C98 C99 1.371 . S
C98 H112 0.930 . S
C99 C96 1.344 . S
C99 C98 1.371 . S
C99 H113 0.931 . S
C100 C96 1.328 . S
C100 C101 1.433 . S
C100 H114 0.931 . S
C101 C97 1.323 . S
C101 C100 1.433 . S
C101 H115 0.933 . S
C102 Dy80 2.738 . S
C102 O85 1.255 . S
C102 O86 1.249 . S
C102 C96 1.516 . S
C103 O87 1.254 . S
C103 O88 1.257 . S
C104 O89 1.266 . S
C104 O90 1.236 . S
C105 C108 1.344 . S
C105 C109 1.328 . S
C105 C111 1.516 . S
C106 C107 1.304 . S
C106 C110 1.323 . S
C107 C106 1.304 . S
C107 C108 1.371 . S
C107 H116 0.930 . S
C108 C105 1.344 . S
C108 C107 1.371 . S
C108 H117 0.931 . S
C109 C105 1.328 . S
C109 C110 1.433 . S
C109 H118 0.931 . S
C110 C106 1.323 . S
C110 C109 1.433 . S
C110 H119 0.933 . S
C111 Dy81 2.738 . S
C111 O91 1.255 . S
C111 O92 1.249 . S
C111 C105 1.516 . S
H112 C98 0.930 . S
H113 C99 0.931 . S
H114 C100 0.931 . S
H115 C101 0.933 . S
H116 C107 0.930 . S
H117 C108 0.931 . S
H118 C109 0.931 . S
H119 C110 0.933 . S
O120 Cd121 2.300 . S
O120 C127 1.275 . S
Cd121 O120 2.300 . S
Cd121 O129 2.381 . S
Cd121 O130 2.378 . S
O122 Cd123 2.385 1_545 S
O122 C127 1.255 . S
Cd123 O122 2.385 1_565 S
Cd123 O124 2.317 . S
O124 Cd123 2.317 . S
O124 C125 1.232 . S
C125 O124 1.232 . S
C125 O126 1.218 . S
O126 C125 1.218 . S
C127 O120 1.275 . S
C127 O122 1.255 . S
C128 O129 1.258 . S
C128 O130 1.256 . S
O129 Cd121 2.381 . S
O129 C128 1.258 . S
O130 Cd121 2.378 . S
O130 C128 1.256 . S
O131 Cd132 2.300 . S
O131 C138 1.275 . S
Cd132 O131 2.300 . S
Cd132 O140 2.381 . S
Cd132 O141 2.378 . S
O133 Cd134 2.385 . S
O133 C138 1.255 . S
Cd134 O133 2.385 . S
Cd134 O135 2.317 . S
O135 Cd134 2.317 . S
O135 C136 1.232 . S
C136 O135 1.232 . S
C136 O137 1.218 . S
O137 C136 1.218 . S
C138 O131 1.275 . S
C138 O133 1.255 . S
C139 O140 1.258 . S
C139 O141 1.256 . S
O140 Cd132 2.381 . S
O140 C139 1.258 . S
O141 Cd132 2.378 . S
O141 C139 1.256 . S
O142 Cd143 2.300 . S
O142 C149 1.275 . S
Cd143 O142 2.300 . S
Cd143 O151 2.381 . S
Cd143 O152 2.378 . S
O144 Cd145 2.382 . S
O144 C149 1.257 1_655 S
Cd145 O144 2.382 . S
Cd145 O146 2.317 . S
O146 Cd145 2.317 . S
O146 C147 1.232 . S
C147 O146 1.232 . S
C147 O148 1.218 . S
O148 C147 1.218 . S
C149 O142 1.275 . S
C149 O144 1.257 1_455 S
C150 O151 1.258 . S
C150 O152 1.256 . S
O151 Cd143 2.381 . S
O151 C150 1.258 . S
O152 Cd143 2.378 . S
O152 C150 1.256 . S
O153 Cd154 2.300 . S
O153 C160 1.275 . S
Cd154 O153 2.300 . S
Cd154 O162 2.381 . S
Cd154 O163 2.378 . S
O155 Cd156 2.385 . S
O155 C160 1.255 1_655 S
Cd156 O155 2.385 . S
Cd156 O157 2.317 . S
O157 Cd156 2.317 . S
O157 C158 1.232 . S
C158 O157 1.232 . S
C158 O159 1.218 . S
O159 C158 1.218 . S
C160 O153 1.275 . S
C160 O155 1.255 1_455 S
C161 O162 1.258 . S
C161 O163 1.256 . S
O162 Cd154 2.381 . S
O162 C161 1.258 . S
O163 Cd154 2.378 . S
O163 C161 1.256 . S
O164 Cd165 2.300 . S
O164 C171 1.275 1_565 S
Cd165 O164 2.300 . S
Cd165 O173 2.381 . S
Cd165 O174 2.378 . S
O166 Cd167 2.385 . S
O166 C171 1.255 . S
Cd167 O166 2.385 . S
Cd167 O168 2.317 . S
O168 Cd167 2.317 . S
O168 C169 1.232 . S
C169 O168 1.232 . S
C169 O170 1.218 . S
O170 C169 1.218 . S
C171 O164 1.275 1_545 S
C171 O166 1.255 . S
C172 O173 1.258 . S
C172 O174 1.256 . S
O173 Cd165 2.381 . S
O173 C172 1.258 . S
O174 Cd165 2.378 . S
O174 C172 1.256 . S
O175 Cd176 2.300 . S
O175 C182 1.275 . S
Cd176 O175 2.300 . S
Cd176 O184 2.381 . S
Cd176 O185 2.378 . S
O177 Cd178 2.385 . S
O177 C182 1.255 . S
Cd178 O177 2.385 . S
Cd178 O179 2.317 . S
O179 Cd178 2.317 . S
O179 C180 1.232 . S
C180 O179 1.232 . S
C180 O181 1.218 . S
O181 C180 1.218 . S
C182 O175 1.275 . S
C182 O177 1.255 . S
C183 O184 1.258 . S
C183 O185 1.256 . S
O184 Cd176 2.381 . S
O184 C183 1.258 . S
O185 Cd176 2.378 . S
O185 C183 1.256 . S
C186 C187 1.349 . S
C186 C188 1.327 . S
C186 H211 0.950 . S
C187 C186 1.349 . S
C187 C203 1.349 . S
C188 C186 1.327 . S
C188 C207 1.429 . S
C188 H212 0.950 . S
C189 C206 1.574 . S
C189 C208 1.368 . S
C189 H213 0.949 . S
H190 C194 0.949 . S
C191 C192 1.349 . S
C191 C193 1.327 . S
C191 H214 0.950 . S
C192 C191 1.349 . S
C192 C204 1.349 . S
C193 C191 1.327 . S
C193 C209 1.429 . S
C193 H215 0.950 . S
C194 H190 0.949 . S
C194 C202 1.574 . S
C194 C210 1.368 . S
H195 C203 0.950 . S
H196 C201 0.950 . S
H197 C202 0.949 . S
H198 C204 0.950 . S
H199 C205 0.950 . S
H200 C206 0.949 . S
C201 H196 0.950 . S
C201 C203 1.327 . S
C201 C207 1.429 . S
C202 C194 1.574 . S
C202 H197 0.949 . S
C202 C208 1.368 . S
C203 C187 1.349 . S
C203 H195 0.950 . S
C203 C201 1.327 . S
C204 C192 1.349 . S
C204 H198 0.950 . S
C204 C205 1.327 . S
C205 H199 0.950 . S
C205 C204 1.327 . S
C205 C209 1.429 . S
C206 C189 1.574 . S
C206 H200 0.949 . S
C206 C210 1.368 . S
C207 C188 1.429 . S
C207 C201 1.429 . S
C207 C208 1.523 . S
C208 C189 1.368 . S
C208 C202 1.368 . S
C208 C207 1.523 . S
C209 C193 1.429 . S
C209 C205 1.429 . S
C209 C210 1.523 . S
C210 C194 1.368 . S
C210 C206 1.368 . S
C210 C209 1.523 . S
H211 C186 0.950 . S
H212 C188 0.950 . S
H213 C189 0.949 . S
H214 C191 0.950 . S
H215 C193 0.950 . S
C216 C217 1.349 . S
C216 C218 1.327 . S
C216 H241 0.950 . S
C217 C216 1.349 . S
C217 C233 1.349 . S
C218 C216 1.327 . S
C218 C237 1.429 . S
C218 H242 0.950 . S
C219 C236 1.574 . S
C219 C238 1.368 . S
C219 H243 0.949 . S
H220 C224 0.949 . S
C221 C222 1.349 . S
C221 C223 1.327 . S
C221 H244 0.950 . S
C222 C221 1.349 . S
C222 C234 1.349 . S
C223 C221 1.327 . S
C223 C239 1.429 . S
C223 H245 0.950 . S
C224 H220 0.949 . S
C224 C232 1.574 . S
C224 C240 1.368 . S
H225 C233 0.950 . S
H226 C231 0.950 . S
H227 C232 0.949 . S
H228 C234 0.950 . S
H229 C235 0.950 . S
H230 C236 0.949 . S
C231 H226 0.950 . S
C231 C233 1.327 . S
C231 C237 1.429 . S
C232 C224 1.574 . S
C232 H227 0.949 . S
C232 C238 1.368 . S
C233 C217 1.349 . S
C233 H225 0.950 . S
C233 C231 1.327 . S
C234 C222 1.349 . S
C234 H228 0.950 . S
C234 C235 1.327 . S
C235 H229 0.950 . S
C235 C234 1.327 . S
C235 C239 1.429 . S
C236 C219 1.574 . S
C236 H230 0.949 . S
C236 C240 1.368 . S
C237 C218 1.429 . S
C237 C231 1.429 . S
C237 C238 1.523 . S
C238 C219 1.368 . S
C238 C232 1.368 . S
C238 C237 1.523 . S
C239 C223 1.429 . S
C239 C235 1.429 . S
C239 C240 1.523 . S
C240 C224 1.368 . S
C240 C236 1.368 . S
C240 C239 1.523 . S
H241 C216 0.950 . S
H242 C218 0.950 . S
H243 C219 0.949 . S
H244 C221 0.950 . S
H245 C223 0.950 . S
C246 C247 1.349 . S
C246 C248 1.327 . S
C246 H271 0.950 . S
C247 C246 1.349 . S
C247 C263 1.349 . S
C248 C246 1.327 . S
C248 C267 1.429 . S
C248 H272 0.950 . S
C249 C266 1.574 . S
C249 C268 1.368 . S
C249 H273 0.949 . S
H250 C254 0.949 . S
C251 C252 1.349 . S
C251 C253 1.327 . S
C251 H274 0.950 . S
C252 C251 1.349 . S
C252 C264 1.349 . S
C253 C251 1.327 . S
C253 C269 1.429 . S
C253 H275 0.950 . S
C254 H250 0.949 . S
C254 C262 1.574 . S
C254 C270 1.368 . S
H255 C263 0.950 . S
H256 C261 0.950 . S
H257 C262 0.949 . S
H258 C264 0.950 . S
H259 C265 0.950 . S
H260 C266 0.949 . S
C261 H256 0.950 . S
C261 C263 1.327 . S
C261 C267 1.429 . S
C262 C254 1.574 . S
C262 H257 0.949 . S
C262 C268 1.368 . S
C263 C247 1.349 . S
C263 H255 0.950 . S
C263 C261 1.327 . S
C264 C252 1.349 . S
C264 H258 0.950 . S
C264 C265 1.327 . S
C265 H259 0.950 . S
C265 C264 1.327 . S
C265 C269 1.429 . S
C266 C249 1.574 . S
C266 H260 0.949 . S
C266 C270 1.368 . S
C267 C248 1.429 . S
C267 C261 1.429 . S
C267 C268 1.523 . S
C268 C249 1.368 . S
C268 C262 1.368 . S
C268 C267 1.523 . S
C269 C253 1.429 . S
C269 C265 1.429 . S
C269 C270 1.523 . S
C270 C254 1.368 . S
C270 C266 1.368 . S
C270 C269 1.523 . S
H271 C246 0.950 . S
H272 C248 0.950 . S
H273 C249 0.949 . S
H274 C251 0.950 . S
H275 C253 0.950 . S
C276 C277 1.349 . S
C276 C278 1.327 . S
C276 H301 0.950 . S
C277 C276 1.349 . S
C277 C293 1.349 . S
C278 C276 1.327 . S
C278 C297 1.429 . S
C278 H302 0.950 . S
C279 C296 1.574 . S
C279 C298 1.368 . S
C279 H303 0.949 . S
H280 C284 0.949 . S
C281 C282 1.349 . S
C281 C283 1.327 . S
C281 H304 0.950 . S
C282 C281 1.349 . S
C282 C294 1.349 . S
C283 C281 1.327 . S
C283 C299 1.429 . S
C283 H305 0.950 . S
C284 H280 0.949 . S
C284 C292 1.574 . S
C284 C300 1.368 . S
H285 C293 0.950 . S
H286 C291 0.950 . S
H287 C292 0.949 . S
H288 C294 0.950 . S
H289 C295 0.950 . S
H290 C296 0.949 . S
C291 H286 0.950 . S
C291 C293 1.327 . S
C291 C297 1.429 . S
C292 C284 1.574 . S
C292 H287 0.949 . S
C292 C298 1.368 . S
C293 C277 1.349 . S
C293 H285 0.950 . S
C293 C291 1.327 . S
C294 C282 1.349 . S
C294 H288 0.950 . S
C294 C295 1.327 . S
C295 H289 0.950 . S
C295 C294 1.327 . S
C295 C299 1.429 . S
C296 C279 1.574 . S
C296 H290 0.949 . S
C296 C300 1.368 . S
C297 C278 1.429 . S
C297 C291 1.429 . S
C297 C298 1.523 . S
C298 C279 1.368 . S
C298 C292 1.368 . S
C298 C297 1.523 . S
C299 C283 1.429 . S
C299 C295 1.429 . S
C299 C300 1.523 . S
C300 C284 1.368 . S
C300 C296 1.368 . S
C300 C299 1.523 . S
H301 C276 0.950 . S
H302 C278 0.950 . S
H303 C279 0.949 . S
H304 C281 0.950 . S
H305 C283 0.950 . S
C306 C307 1.349 . S
C306 C308 1.327 . S
C306 H331 0.950 . S
C307 C306 1.349 . S
C307 C323 1.349 . S
C308 C306 1.327 . S
C308 C327 1.429 . S
C308 H332 0.950 . S
C309 C326 1.574 . S
C309 C328 1.368 . S
C309 H333 0.949 . S
H310 C314 0.949 . S
C311 C312 1.349 . S
C311 C313 1.327 . S
C311 H334 0.950 . S
C312 C311 1.349 . S
C312 C324 1.349 . S
C313 C311 1.327 . S
C313 C329 1.429 . S
C313 H335 0.950 . S
C314 H310 0.949 . S
C314 C322 1.574 . S
C314 C330 1.368 . S
H315 C323 0.950 . S
H316 C321 0.950 . S
H317 C322 0.949 . S
H318 C324 0.950 . S
H319 C325 0.950 . S
H320 C326 0.949 . S
C321 H316 0.950 . S
C321 C323 1.327 . S
C321 C327 1.429 . S
C322 C314 1.574 . S
C322 H317 0.949 . S
C322 C328 1.368 . S
C323 C307 1.349 . S
C323 H315 0.950 . S
C323 C321 1.327 . S
C324 C312 1.349 . S
C324 H318 0.950 . S
C324 C325 1.327 . S
C325 H319 0.950 . S
C325 C324 1.327 . S
C325 C329 1.429 . S
C326 C309 1.574 . S
C326 H320 0.949 . S
C326 C330 1.368 . S
C327 C308 1.429 . S
C327 C321 1.429 . S
C327 C328 1.523 . S
C328 C309 1.368 . S
C328 C322 1.368 . S
C328 C327 1.523 . S
C329 C313 1.429 . S
C329 C325 1.429 . S
C329 C330 1.523 . S
C330 C314 1.368 . S
C330 C326 1.368 . S
C330 C329 1.523 . S
H331 C306 0.950 . S
H332 C308 0.950 . S
H333 C309 0.949 . S
H334 C311 0.950 . S
H335 C313 0.950 . S
C336 C337 1.349 . S
C336 C338 1.327 . S
C336 H361 0.950 . S
C337 C336 1.349 . S
C337 C353 1.349 . S
C338 C336 1.327 . S
C338 C357 1.429 . S
C338 H362 0.950 . S
C339 C356 1.574 . S
C339 C358 1.368 . S
C339 H363 0.949 . S
H340 C344 0.949 . S
C341 C342 1.349 . S
C341 C343 1.327 . S
C341 H364 0.950 . S
C342 C341 1.349 . S
C342 C354 1.349 . S
C343 C341 1.327 . S
C343 C359 1.429 . S
C343 H365 0.950 . S
C344 H340 0.949 . S
C344 C352 1.574 . S
C344 C360 1.368 . S
H345 C353 0.950 . S
H346 C351 0.950 . S
H347 C352 0.949 . S
H348 C354 0.950 . S
H349 C355 0.950 . S
H350 C356 0.949 . S
C351 H346 0.950 . S
C351 C353 1.327 . S
C351 C357 1.429 . S
C352 C344 1.574 . S
C352 H347 0.949 . S
C352 C358 1.368 . S
C353 C337 1.349 . S
C353 H345 0.950 . S
C353 C351 1.327 . S
C354 C342 1.349 . S
C354 H348 0.950 . S
C354 C355 1.327 . S
C355 H349 0.950 . S
C355 C354 1.327 . S
C355 C359 1.429 . S
C356 C339 1.574 . S
C356 H350 0.949 . S
C356 C360 1.368 . S
C357 C338 1.429 . S
C357 C351 1.429 . S
C357 C358 1.523 . S
C358 C339 1.368 . S
C358 C352 1.368 . S
C358 C357 1.523 . S
C359 C343 1.429 . S
C359 C355 1.429 . S
C359 C360 1.523 . S
C360 C344 1.368 . S
C360 C356 1.368 . S
C360 C359 1.523 . S
H361 C336 0.950 . S
H362 C338 0.950 . S
H363 C339 0.949 . S
H364 C341 0.950 . S
H365 C343 0.950 . S
C366 C367 1.349 . S
C366 C368 1.327 . S
C366 H391 0.950 . S
C367 C366 1.349 . S
C367 C383 1.349 . S
C368 C366 1.327 . S
C368 C387 1.429 . S
C368 H392 0.950 . S
C369 C386 1.574 . S
C369 C388 1.368 . S
C369 H393 0.949 . S
H370 C374 0.949 . S
C371 C372 1.349 . S
C371 C373 1.327 . S
C371 H394 0.950 . S
C372 C371 1.349 . S
C372 C384 1.349 . S
C373 C371 1.327 . S
C373 C389 1.429 . S
C373 H395 0.950 . S
C374 H370 0.949 . S
C374 C382 1.574 . S
C374 C390 1.368 . S
H375 C383 0.950 . S
H376 C381 0.950 . S
H377 C382 0.949 . S
H378 C384 0.950 . S
H379 C385 0.950 . S
H380 C386 0.949 . S
C381 H376 0.950 . S
C381 C383 1.327 . S
C381 C387 1.429 . S
C382 C374 1.574 . S
C382 H377 0.949 . S
C382 C388 1.368 . S
C383 C367 1.349 . S
C383 H375 0.950 . S
C383 C381 1.327 . S
C384 C372 1.349 . S
C384 H378 0.950 . S
C384 C385 1.327 . S
C385 H379 0.950 . S
C385 C384 1.327 . S
C385 C389 1.429 . S
C386 C369 1.574 . S
C386 H380 0.949 . S
C386 C390 1.368 . S
C387 C368 1.429 . S
C387 C381 1.429 . S
C387 C388 1.523 . S
C388 C369 1.368 . S
C388 C382 1.368 . S
C388 C387 1.523 . S
C389 C373 1.429 . S
C389 C385 1.429 . S
C389 C390 1.523 . S
C390 C374 1.368 . S
C390 C386 1.368 . S
C390 C389 1.523 . S
H391 C366 0.950 . S
H392 C368 0.950 . S
H393 C369 0.949 . S
H394 C371 0.950 . S
H395 C373 0.950 . S
C396 C397 1.349 . S
C396 C398 1.327 . S
C396 H421 0.950 . S
C397 C396 1.349 . S
C397 C413 1.349 . S
C398 C396 1.327 . S
C398 C417 1.429 . S
C398 H422 0.950 . S
C399 C416 1.574 . S
C399 C418 1.368 . S
C399 H423 0.949 . S
H400 C404 0.949 . S
C401 C402 1.349 . S
C401 C403 1.327 . S
C401 H424 0.950 . S
C402 C401 1.349 . S
C402 C414 1.349 . S
C403 C401 1.327 . S
C403 C419 1.429 . S
C403 H425 0.950 . S
C404 H400 0.949 . S
C404 C412 1.574 . S
C404 C420 1.368 . S
H405 C413 0.950 . S
H406 C411 0.950 . S
H407 C412 0.949 . S
H408 C414 0.950 . S
H409 C415 0.950 . S
H410 C416 0.949 . S
C411 H406 0.950 . S
C411 C413 1.327 . S
C411 C417 1.429 . S
C412 C404 1.574 . S
C412 H407 0.949 . S
C412 C418 1.368 . S
C413 C397 1.349 . S
C413 H405 0.950 . S
C413 C411 1.327 . S
C414 C402 1.349 . S
C414 H408 0.950 . S
C414 C415 1.327 . S
C415 H409 0.950 . S
C415 C414 1.327 . S
C415 C419 1.429 . S
C416 C399 1.574 . S
C416 H410 0.949 . S
C416 C420 1.368 . S
C417 C398 1.429 . S
C417 C411 1.429 . S
C417 C418 1.523 . S
C418 C399 1.368 . S
C418 C412 1.368 . S
C418 C417 1.523 . S
C419 C403 1.429 . S
C419 C415 1.429 . S
C419 C420 1.523 . S
C420 C404 1.368 . S
C420 C416 1.368 . S
C420 C419 1.523 . S
H421 C396 0.950 . S
H422 C398 0.950 . S
H423 C399 0.949 . S
H424 C401 0.950 . S
H425 C403 0.950 . S
C426 C427 1.349 . S
C426 C428 1.327 . S
C426 H451 0.950 . S
C427 C426 1.349 . S
C427 C443 1.349 . S
C428 C426 1.327 . S
C428 C447 1.429 . S
C428 H452 0.950 . S
C429 C446 1.574 . S
C429 C448 1.368 . S
C429 H453 0.949 . S
H430 C434 0.949 . S
C431 C432 1.349 . S
C431 C433 1.327 . S
C431 H454 0.950 . S
C432 C431 1.349 . S
C432 C444 1.349 . S
C433 C431 1.327 . S
C433 C449 1.429 . S
C433 H455 0.950 . S
C434 H430 0.949 . S
C434 C442 1.574 . S
C434 C450 1.368 . S
H435 C443 0.950 . S
H436 C441 0.950 . S
H437 C442 0.949 . S
H438 C444 0.950 . S
H439 C445 0.950 . S
H440 C446 0.949 . S
C441 H436 0.950 . S
C441 C443 1.327 . S
C441 C447 1.429 . S
C442 C434 1.574 . S
C442 H437 0.949 . S
C442 C448 1.368 . S
C443 C427 1.349 . S
C443 H435 0.950 . S
C443 C441 1.327 . S
C444 C432 1.349 . S
C444 H438 0.950 . S
C444 C445 1.327 . S
C445 H439 0.950 . S
C445 C444 1.327 . S
C445 C449 1.429 . S
C446 C429 1.574 . S
C446 H440 0.949 . S
C446 C450 1.368 . S
C447 C428 1.429 . S
C447 C441 1.429 . S
C447 C448 1.523 . S
C448 C429 1.368 . S
C448 C442 1.368 . S
C448 C447 1.523 . S
C449 C433 1.429 . S
C449 C445 1.429 . S
C449 C450 1.523 . S
C450 C434 1.368 . S
C450 C446 1.368 . S
C450 C449 1.523 . S
H451 C426 0.950 . S
H452 C428 0.950 . S
H453 C429 0.949 . S
H454 C431 0.950 . S
H455 C433 0.950 . S
C456 C457 1.349 . S
C456 C458 1.327 . S
C456 H481 0.950 . S
C457 C456 1.349 . S
C457 C473 1.349 . S
C458 C456 1.327 . S
C458 C477 1.429 . S
C458 H482 0.950 . S
C459 C476 1.574 . S
C459 C478 1.368 . S
C459 H483 0.949 . S
H460 C464 0.949 . S
C461 C462 1.349 . S
C461 C463 1.327 . S
C461 H484 0.950 . S
C462 C461 1.349 . S
C462 C474 1.349 . S
C463 C461 1.327 . S
C463 C479 1.429 . S
C463 H485 0.950 . S
C464 H460 0.949 . S
C464 C472 1.574 . S
C464 C480 1.368 . S
H465 C473 0.950 . S
H466 C471 0.950 . S
H467 C472 0.949 . S
H468 C474 0.950 . S
H469 C475 0.950 . S
H470 C476 0.949 . S
C471 H466 0.950 . S
C471 C473 1.327 . S
C471 C477 1.429 . S
C472 C464 1.574 . S
C472 H467 0.949 . S
C472 C478 1.368 . S
C473 C457 1.349 . S
C473 H465 0.950 . S
C473 C471 1.327 . S
C474 C462 1.349 . S
C474 H468 0.950 . S
C474 C475 1.327 . S
C475 H469 0.950 . S
C475 C474 1.327 . S
C475 C479 1.429 . S
C476 C459 1.574 . S
C476 H470 0.949 . S
C476 C480 1.368 . S
C477 C458 1.429 . S
C477 C471 1.429 . S
C477 C478 1.523 . S
C478 C459 1.368 . S
C478 C472 1.368 . S
C478 C477 1.523 . S
C479 C463 1.429 . S
C479 C475 1.429 . S
C479 C480 1.523 . S
C480 C464 1.368 . S
C480 C476 1.368 . S
C480 C479 1.523 . S
H481 C456 0.950 . S
H482 C458 0.950 . S
H483 C459 0.949 . S
H484 C461 0.950 . S
H485 C463 0.950 . S
C486 C487 1.349 . S
C486 C488 1.327 . S
C486 H511 0.950 . S
C487 C486 1.349 . S
C487 C503 1.349 . S
C488 C486 1.327 . S
C488 C507 1.429 . S
C488 H512 0.950 . S
C489 C506 1.574 . S
C489 C508 1.368 . S
C489 H513 0.949 . S
H490 C494 0.949 . S
C491 C492 1.349 . S
C491 C493 1.327 . S
C491 H514 0.950 . S
C492 C491 1.349 . S
C492 C504 1.349 . S
C493 C491 1.327 . S
C493 C509 1.429 . S
C493 H515 0.950 . S
C494 H490 0.949 . S
C494 C502 1.574 . S
C494 C510 1.368 . S
H495 C503 0.950 . S
H496 C501 0.950 . S
H497 C502 0.949 . S
H498 C504 0.950 . S
H499 C505 0.950 . S
H500 C506 0.949 . S
C501 H496 0.950 . S
C501 C503 1.327 . S
C501 C507 1.429 . S
C502 C494 1.574 . S
C502 H497 0.949 . S
C502 C508 1.368 . S
C503 C487 1.349 . S
C503 H495 0.950 . S
C503 C501 1.327 . S
C504 C492 1.349 . S
C504 H498 0.950 . S
C504 C505 1.327 . S
C505 H499 0.950 . S
C505 C504 1.327 . S
C505 C509 1.429 . S
C506 C489 1.574 . S
C506 H500 0.949 . S
C506 C510 1.368 . S
C507 C488 1.429 . S
C507 C501 1.429 . S
C507 C508 1.523 . S
C508 C489 1.368 . S
C508 C502 1.368 . S
C508 C507 1.523 . S
C509 C493 1.429 . S
C509 C505 1.429 . S
C509 C510 1.523 . S
C510 C494 1.368 . S
C510 C506 1.368 . S
C510 C509 1.523 . S
H511 C486 0.950 . S
H512 C488 0.950 . S
H513 C489 0.949 . S
H514 C491 0.950 . S
H515 C493 0.950 . S
C516 C517 1.349 . S
C516 C518 1.327 . S
C516 H541 0.950 . S
C517 C516 1.349 . S
C517 C533 1.349 . S
C518 C516 1.327 . S
C518 C537 1.429 . S
C518 H542 0.950 . S
C519 C536 1.574 . S
C519 C538 1.368 . S
C519 H543 0.949 . S
H520 C524 0.949 . S
C521 C522 1.349 . S
C521 C523 1.327 . S
C521 H544 0.950 . S
C522 C521 1.349 . S
C522 C534 1.349 . S
C523 C521 1.327 . S
C523 C539 1.429 . S
C523 H545 0.950 . S
C524 H520 0.949 . S
C524 C532 1.574 . S
C524 C540 1.368 . S
H525 C533 0.950 . S
H526 C531 0.950 . S
H527 C532 0.949 . S
H528 C534 0.950 . S
H529 C535 0.950 . S
H530 C536 0.949 . S
C531 H526 0.950 . S
C531 C533 1.327 . S
C531 C537 1.429 . S
C532 C524 1.574 . S
C532 H527 0.949 . S
C532 C538 1.368 . S
C533 C517 1.349 . S
C533 H525 0.950 . S
C533 C531 1.327 . S
C534 C522 1.349 . S
C534 H528 0.950 . S
C534 C535 1.327 . S
C535 H529 0.950 . S
C535 C534 1.327 . S
C535 C539 1.429 . S
C536 C519 1.574 . S
C536 H530 0.949 . S
C536 C540 1.368 . S
C537 C518 1.429 . S
C537 C531 1.429 . S
C537 C538 1.523 . S
C538 C519 1.368 . S
C538 C532 1.368 . S
C538 C537 1.523 . S
C539 C523 1.429 . S
C539 C535 1.429 . S
C539 C540 1.523 . S
C540 C524 1.368 . S
C540 C536 1.368 . S
C540 C539 1.523 . S
H541 C516 0.950 . S
H542 C518 0.950 . S
H543 C519 0.949 . S
H544 C521 0.950 . S
H545 C523 0.950 . S
C546 C547 1.349 1_655 S
C546 C548 1.327 . S
C546 H571 0.950 . S
C547 C546 1.349 1_455 S
C547 C563 1.349 . S
C548 C546 1.327 . S
C548 C567 1.429 1_655 S
C548 H572 0.950 . S
C549 C566 1.574 . S
C549 C568 1.368 . S
C549 H573 0.949 . S
H550 C554 0.949 1_556 S
C551 C552 1.349 . S
C551 C553 1.327 . S
C551 H574 0.950 . S
C552 C551 1.349 . S
C552 C564 1.349 1_455 S
C553 C551 1.327 . S
C553 C569 1.429 . S
C553 H575 0.950 . S
C554 H550 0.949 1_554 S
C554 C562 1.574 . S
C554 C570 1.368 1_654 S
H555 C563 0.950 . S
H556 C561 0.950 . S
H557 C562 0.949 . S
H558 C564 0.950 . S
H559 C565 0.950 . S
H560 C566 0.949 . S
C561 H556 0.950 . S
C561 C563 1.327 . S
C561 C567 1.429 . S
C562 C554 1.574 . S
C562 H557 0.949 . S
C562 C568 1.368 1_655 S
C563 C547 1.349 . S
C563 H555 0.950 . S
C563 C561 1.327 . S
C564 C552 1.349 1_655 S
C564 H558 0.950 . S
C564 C565 1.327 . S
C565 H559 0.950 . S
C565 C564 1.327 . S
C565 C569 1.429 1_655 S
C566 C549 1.574 . S
C566 H560 0.949 . S
C566 C570 1.368 1_554 S
C567 C548 1.429 1_455 S
C567 C561 1.429 . S
C567 C568 1.523 . S
C568 C549 1.368 . S
C568 C562 1.368 1_455 S
C568 C567 1.523 . S
C569 C553 1.429 . S
C569 C565 1.429 1_455 S
C569 C570 1.523 . S
C570 C554 1.368 1_456 S
C570 C566 1.368 1_556 S
C570 C569 1.523 . S
H571 C546 0.950 . S
H572 C548 0.950 . S
H573 C549 0.949 . S
H574 C551 0.950 . S
H575 C553 0.950 . S
C576 C577 1.349 . S
C576 C578 1.327 . S
C576 H601 0.950 . S
C577 C576 1.349 . S
C577 C593 1.349 . S
C578 C576 1.327 . S
C578 C597 1.429 . S
C578 H602 0.950 . S
C579 C596 1.574 . S
C579 C598 1.368 . S
C579 H603 0.949 . S
H580 C584 0.949 . S
C581 C582 1.349 . S
C581 C583 1.327 . S
C581 H604 0.950 . S
C582 C581 1.349 . S
C582 C594 1.349 . S
C583 C581 1.327 . S
C583 C599 1.429 . S
C583 H605 0.950 . S
C584 H580 0.949 . S
C584 C592 1.574 . S
C584 C600 1.368 . S
H585 C593 0.950 1_565 S
H586 C591 0.949 . S
H587 C592 0.949 . S
H588 C594 0.950 . S
H589 C595 0.950 . S
H590 C596 0.949 . S
C591 H586 0.949 . S
C591 C593 1.327 . S
C591 C597 1.429 . S
C592 C584 1.574 . S
C592 H587 0.949 . S
C592 C598 1.368 . S
C593 C577 1.349 . S
C593 H585 0.950 1_545 S
C593 C591 1.327 . S
C594 C582 1.349 . S
C594 H588 0.950 . S
C594 C595 1.327 . S
C595 H589 0.950 . S
C595 C594 1.327 . S
C595 C599 1.429 . S
C596 C579 1.574 . S
C596 H590 0.949 . S
C596 C600 1.368 . S
C597 C578 1.429 . S
C597 C591 1.429 . S
C597 C598 1.523 . S
C598 C579 1.368 . S
C598 C592 1.368 . S
C598 C597 1.523 . S
C599 C583 1.429 . S
C599 C595 1.429 . S
C599 C600 1.523 . S
C600 C584 1.368 . S
C600 C596 1.368 . S
C600 C599 1.523 . S
H601 C576 0.950 . S
H602 C578 0.950 . S
H603 C579 0.949 . S
H604 C581 0.950 . S
H605 C583 0.950 . S
C606 C607 1.349 . S
C606 C608 1.327 . S
C606 H631 0.950 . S
C607 C606 1.349 . S
C607 C623 1.349 . S
C608 C606 1.327 . S
C608 C627 1.429 . S
C608 H632 0.950 . S
C609 C626 1.574 . S
C609 C628 1.368 . S
C609 H633 0.949 . S
H610 C614 0.949 . S
C611 C612 1.349 . S
C611 C613 1.327 . S
C611 H634 0.950 . S
C612 C611 1.349 . S
C612 C624 1.349 . S
C613 C611 1.327 . S
C613 C629 1.429 . S
C613 H635 0.950 . S
C614 H610 0.949 . S
C614 C622 1.574 . S
C614 C630 1.368 . S
H615 C623 0.950 . S
H616 C621 0.950 . S
H617 C622 0.949 . S
H618 C624 0.950 . S
H619 C625 0.950 . S
H620 C626 0.949 . S
C621 H616 0.950 . S
C621 C623 1.327 . S
C621 C627 1.429 . S
C622 C614 1.574 . S
C622 H617 0.949 . S
C622 C628 1.368 . S
C623 C607 1.349 . S
C623 H615 0.950 . S
C623 C621 1.327 . S
C624 C612 1.349 . S
C624 H618 0.950 . S
C624 C625 1.327 . S
C625 H619 0.950 . S
C625 C624 1.327 . S
C625 C629 1.429 . S
C626 C609 1.574 . S
C626 H620 0.949 . S
C626 C630 1.368 . S
C627 C608 1.429 . S
C627 C621 1.429 . S
C627 C628 1.523 . S
C628 C609 1.368 . S
C628 C622 1.368 . S
C628 C627 1.523 . S
C629 C613 1.429 . S
C629 C625 1.429 . S
C629 C630 1.523 . S
C630 C614 1.368 . S
C630 C626 1.368 . S
C630 C629 1.523 . S
H631 C606 0.950 . S
H632 C608 0.950 . S
H633 C609 0.949 . S
H634 C611 0.950 . S
H635 C613 0.950 . S
C636 C637 1.349 . S
C636 C638 1.327 . S
C636 H661 0.950 . S
C637 C636 1.349 . S
C637 C653 1.349 1_545 S
C638 C636 1.327 . S
C638 C657 1.429 . S
C638 H662 0.950 . S
C639 C656 1.574 . S
C639 C658 1.368 1_565 S
C639 H663 0.949 . S
H640 C644 0.949 . S
C641 C642 1.349 1_565 S
C641 C643 1.327 . S
C641 H664 0.950 . S
C642 C641 1.349 1_545 S
C642 C654 1.349 . S
C643 C641 1.327 . S
C643 C659 1.429 1_565 S
C643 H665 0.950 . S
C644 H640 0.949 . S
C644 C652 1.574 . S
C644 C660 1.368 . S
H645 C653 0.950 . S
H646 C651 0.950 . S
H647 C652 0.949 . S
H648 C654 0.950 . S
H649 C655 0.950 . S
H650 C656 0.949 . S
C651 H646 0.950 . S
C651 C653 1.327 . S
C651 C657 1.429 1_565 S
C652 C644 1.574 . S
C652 H647 0.949 . S
C652 C658 1.368 . S
C653 C637 1.349 1_565 S
C653 H645 0.950 . S
C653 C651 1.327 . S
C654 C642 1.349 . S
C654 H648 0.950 . S
C654 C655 1.327 . S
C655 H649 0.950 . S
C655 C654 1.327 . S
C655 C659 1.429 . S
C656 C639 1.574 . S
C656 H650 0.949 . S
C656 C660 1.368 1_565 S
C657 C638 1.429 . S
C657 C651 1.429 1_545 S
C657 C658 1.523 . S
C658 C639 1.368 1_545 S
C658 C652 1.368 . S
C658 C657 1.523 . S
C659 C643 1.429 1_545 S
C659 C655 1.429 . S
C659 C660 1.523 . S
C660 C644 1.368 . S
C660 C656 1.368 1_545 S
C660 C659 1.523 . S
H661 C636 0.950 . S
H662 C638 0.950 . S
H663 C639 0.949 . S
H664 C641 0.950 . S
H665 C643 0.950 . S
C666 C667 1.349 . S
C666 C668 1.327 . S
C666 H691 0.950 . S
C667 C666 1.349 . S
C667 C683 1.349 . S
C668 C666 1.327 . S
C668 C687 1.429 . S
C668 H692 0.950 . S
C669 C686 1.574 . S
C669 C688 1.368 . S
C669 H693 0.949 . S
H670 C674 0.949 . S
C671 C672 1.349 . S
C671 C673 1.327 . S
C671 H694 0.950 . S
C672 C671 1.349 . S
C672 C684 1.349 . S
C673 C671 1.327 . S
C673 C689 1.429 . S
C673 H695 0.950 . S
C674 H670 0.949 . S
C674 C682 1.574 . S
C674 C690 1.368 . S
H675 C683 0.950 . S
H676 C681 0.950 . S
H677 C682 0.949 . S
H678 C684 0.950 . S
H679 C685 0.950 . S
H680 C686 0.931 1_554 S
C681 H676 0.950 . S
C681 C683 1.327 . S
C681 C687 1.429 . S
C682 C674 1.574 . S
C682 H677 0.949 . S
C682 C688 1.368 . S
C683 C667 1.349 . S
C683 H675 0.950 . S
C683 C681 1.327 . S
C684 C672 1.349 . S
C684 H678 0.950 . S
C684 C685 1.327 . S
C685 H679 0.950 . S
C685 C684 1.327 . S
C685 C689 1.429 . S
C686 C669 1.574 . S
C686 H680 0.931 1_556 S
C686 C690 1.368 . S
C687 C668 1.429 . S
C687 C681 1.429 . S
C687 C688 1.523 . S
C688 C669 1.368 . S
C688 C682 1.368 . S
C688 C687 1.523 . S
C689 C673 1.429 . S
C689 C685 1.429 . S
C689 C690 1.523 1_554 S
C690 C674 1.368 . S
C690 C686 1.368 . S
C690 C689 1.523 1_556 S
H691 C666 0.950 . S
H692 C668 0.950 . S
H693 C669 0.949 . S
H694 C671 0.950 . S
H695 C673 0.950 . S
C696 C697 1.349 . S
C696 C698 1.330 . S
C696 H721 0.950 1_455 S
C697 C696 1.349 . S
C697 C713 1.349 . S
C698 C696 1.330 . S
C698 C717 1.439 . S
C698 H722 0.937 1_455 S
C699 C716 1.574 . S
C699 C718 1.368 . S
C699 H723 0.949 . S
H700 C704 0.965 . S
C701 C702 1.349 . S
C701 C703 1.327 . S
C701 H724 0.950 . S
C702 C701 1.349 . S
C702 C714 1.349 1_455 S
C703 C701 1.327 . S
C703 C719 1.429 . S
C703 H725 0.950 . S
C704 H700 0.965 . S
C704 C712 1.572 . S
C704 C720 1.355 1_655 S
H705 C713 0.950 . S
H706 C711 0.950 . S
H707 C712 0.954 . S
H708 C714 0.950 . S
H709 C715 0.950 . S
H710 C716 0.949 . S
C711 H706 0.950 . S
C711 C713 1.327 . S
C711 C717 1.429 . S
C712 C704 1.572 . S
C712 H707 0.954 . S
C712 C718 1.362 1_655 S
C713 C697 1.349 . S
C713 H705 0.950 . S
C713 C711 1.327 . S
C714 C702 1.349 1_655 S
C714 H708 0.950 . S
C714 C715 1.327 . S
C715 H709 0.950 . S
C715 C714 1.327 . S
C715 C719 1.429 1_655 S
C716 C699 1.574 . S
C716 H710 0.949 . S
C716 C720 1.368 . S
C717 C698 1.439 . S
C717 C711 1.429 . S
C717 C718 1.523 . S
C718 C699 1.368 . S
C718 C712 1.362 1_455 S
C718 C717 1.523 . S
C719 C703 1.429 . S
C719 C715 1.429 1_455 S
C719 C720 1.523 . S
C720 C704 1.355 1_455 S
C720 C716 1.368 . S
C720 C719 1.523 . S
H721 C696 0.950 1_655 S
H722 C698 0.937 1_655 S
H723 C699 0.949 . S
H724 C701 0.950 . S
H725 C703 0.950 . S
C187 C24 3.125 . S
C192 C180 2.811 . S
C217 C66 1.249 . S
C222 C158 1.109 . S
C247 C93 1.573 . S
C252 C172 1.532 . S
C277 C13 2.875 . S
C282 C183 2.807 . S
C312 C161 0.953 . S
C307 C57 0.968 . S
C342 C169 1.788 . S
C337 C104 2.107 . S
C367 C64 2.102 . S
C372 C136 1.787 . S
C397 C97 0.438 . S
C402 C147 0.722 . S
C427 C17 1.378 . S
C432 C125 1.193 . S
C462 C139 1.532 . S
C457 C53 1.578 . S
C492 C150 0.341 . S
C487 C106 0.268 . S
C517 C26 0.912 . S
C522 C128 0.905 . S
C552 C149 1.200 . S
C547 C2 1.223 . S
C577 C63 1.471 . S
C582 C127 1.459 . S
C607 C82 1.448 . S
C612 C138 1.402 . S
C642 C171 1.417 . S
C637 C42 1.460 . S
C672 C182 1.658 . S
C667 C103 1.702 . S
C697 C23 1.524 . S
C702 C160 1.481 . S
