# Generated by pormake.
# Topology pth, (4,4)-cn, num edge types: 1
# Building blocks:
#     Node 0, Type 0, BuildingBlock: UXUYUI_clean_sbu_0, # of connection points: 4
#     Node 1, Type 0, BuildingBlock: UXUYUI_clean_sbu_0, # of connection points: 4
#     Node 2, Type 0, BuildingBlock: UXUYUI_clean_sbu_0, # of connection points: 4
#     Node 3, Type 1, BuildingBlock: NAWXER_clean_sbu_0, # of connection points: 4
#     Node 4, Type 1, BuildingBlock: NAWXER_clean_sbu_0, # of connection points: 4
#     Node 5, Type 1, BuildingBlock: NAWXER_clean_sbu_0, # of connection points: 4
#     Edge 6, Type (0, 1), BuildingBlock: TEMPAE_clean_linker_10, # of connection points: 2
#     Edge 7, Type (0, 1), BuildingBlock: TEMPAE_clean_linker_10, # of connection points: 2
#     Edge 8, Type (0, 1), BuildingBlock: TEMPAE_clean_linker_10, # of connection points: 2
#     Edge 9, Type (0, 1), BuildingBlock: TEMPAE_clean_linker_10, # of connection points: 2
#     Edge 10, Type (0, 1), BuildingBlock: TEMPAE_clean_linker_10, # of connection points: 2
#     Edge 11, Type (0, 1), BuildingBlock: TEMPAE_clean_linker_10, # of connection points: 2
#     Edge 12, Type (0, 1), BuildingBlock: TEMPAE_clean_linker_10, # of connection points: 2
#     Edge 13, Type (0, 1), BuildingBlock: TEMPAE_clean_linker_10, # of connection points: 2
#     Edge 14, Type (0, 1), BuildingBlock: TEMPAE_clean_linker_10, # of connection points: 2
#     Edge 15, Type (0, 1), BuildingBlock: TEMPAE_clean_linker_10, # of connection points: 2
#     Edge 16, Type (0, 1), BuildingBlock: TEMPAE_clean_linker_10, # of connection points: 2
#     Edge 17, Type (0, 1), BuildingBlock: TEMPAE_clean_linker_10, # of connection points: 2
# Relax obj value: 0.086
# Max RMSD: 0.218
# Mean RMSD: 0.120
data_MOF--net-pth--node1-UXUYUI_clean_sbu_0--node2-NAWXER_clean_sbu_0--edge1-TEMPAE_clean_linker_10
_symmetry_space_group_name_H-M    P1
_symmetry_Int_Tables_number       1
_symmetry_cell_setting            triclinic
loop_
_symmetry_equiv_pos_as_xyz
'x, y, z'
_cell_length_a     28.465894
_cell_length_b     28.478064
_cell_length_c     71.247173
_cell_angle_alpha  89.976224
_cell_angle_beta   89.98397
_cell_angle_gamma 119.96852
loop_
_atom_site_label
_atom_site_type_symbol
_atom_site_fract_x
_atom_site_fract_y
_atom_site_fract_z
_atom_type_partial_charge
Li0 Li 0.04972 0.03888 0.07093 0.0
Li1 Li 0.98927 0.03679 0.09501 0.0
Li2 Li 0.01724 0.96942 0.0947 0.0
Li3 Li 0.95568 0.96773 0.07111 0.0
C4 C 0.11559 0.0606 0.10225 0.0
N5 N 0.22042 0.0848 0.11009 0.0
C6 C 0.14419 0.09552 0.11702 0.0
C7 C 0.14038 0.03809 0.09143 0.0
C8 C 0.19714 0.10724 0.12077 0.0
C9 C 0.19336 0.05079 0.09562 0.0
C10 C 1.00017 0.09927 0.06335 0.0
C11 C 0.99343 0.16518 0.044 0.0
N12 N 0.03169 0.20564 0.05477 0.0
C13 C 0.03935 0.14151 0.07425 0.0
C14 C 0.97694 0.11114 0.04812 0.0
C15 C 0.05476 0.195 0.06968 0.0
C16 C 0.10969 0.06617 0.03735 0.0
N17 N 0.1088 0.08453 0.05487 0.0
C18 C 0.18971 0.16839 0.04854 0.0
C19 C 0.14795 0.13435 0.06069 0.0
C20 C 0.19154 0.15085 0.03024 0.0
C21 C 0.15099 0.09867 0.02478 0.0
H22 H 0.07799 0.02636 0.0331 0.0
H23 H 0.1464 0.14806 0.0747 0.0
C24 C 0.9394 0.09861 0.10631 0.0
N25 N 0.97287 0.07956 0.11141 0.0
C26 C 0.93047 0.13179 0.11852 0.0
C27 C 0.99022 0.12467 0.14099 0.0
C28 C 0.99776 0.09148 0.12841 0.0
C29 C 0.95641 0.14561 0.1361 0.0
H30 H 0.92014 0.08861 0.09268 0.0
H31 H 0.02416 0.07575 0.13206 0.0
C32 C 0.0047 0.90743 0.06273 0.0
N33 N 0.97223 0.80115 0.0537 0.0
C34 C 0.96596 0.86504 0.07372 0.0
C35 C 0.02698 0.89575 0.04718 0.0
C36 C 0.95007 0.8116 0.06892 0.0
C37 C 0.01002 0.84175 0.04283 0.0
C38 C 0.89136 0.94535 0.10304 0.0
C39 C 0.86431 0.91118 0.11817 0.0
C40 C 0.86531 0.96697 0.09244 0.0
C41 C 0.81163 0.89932 0.1225 0.0
C42 C 0.81263 0.95415 0.09722 0.0
N43 N 0.7871 0.92088 0.11203 0.0
C44 C 0.0117 0.91645 0.12818 0.0
C45 C 0.06608 0.90589 0.10526 0.0
C46 C 0.0198 0.88351 0.14072 0.0
N47 N 0.03432 0.92654 0.11081 0.0
C48 C 0.07538 0.87275 0.11738 0.0
C49 C 0.05175 0.86084 0.13536 0.0
H50 H 0.98668 0.93349 0.13219 0.0
H51 H 0.08369 0.91459 0.09136 0.0
C52 C 0.89492 0.94118 0.03779 0.0
N53 N 0.89607 0.92243 0.05522 0.0
C54 C 0.85352 0.90891 0.02524 0.0
C55 C 0.81516 0.83865 0.04886 0.0
C56 C 0.85702 0.87247 0.061 0.0
C57 C 0.81315 0.85655 0.03063 0.0
H58 H 0.92656 0.98109 0.03358 0.0
H59 H 0.8588 0.85845 0.07494 0.0
O60 O 0.06376 0.04904 0.09845 0.0
O61 O 0.98416 0.04644 0.06751 0.0
O62 O 0.02102 0.96021 0.06707 0.0
O63 O 0.94295 0.95713 0.09869 0.0
H64 H 0.1257 0.11348 0.12549 0.0
H65 H 0.11916 0.01127 0.07986 0.0
H66 H 0.21974 0.1342 0.13217 0.0
H67 H 0.213 0.03365 0.08736 0.0
H68 H 0.9758 0.17494 0.03225 0.0
H69 H 0.05765 0.13322 0.08614 0.0
H70 H 0.94642 0.07891 0.03958 0.0
H71 H 0.08504 0.22805 0.07799 0.0
H72 H 0.21945 0.2085 0.05333 0.0
H73 H 0.15108 0.08303 0.01094 0.0
H74 H 0.90361 0.14646 0.11423 0.0
H75 H 0.01178 0.13486 0.15422 0.0
H76 H 0.94835 0.87317 0.08585 0.0
H77 H 0.0571 0.92809 0.03855 0.0
H78 H 0.92012 0.77843 0.0773 0.0
H79 H 0.02691 0.83214 0.03082 0.0
H80 H 0.88383 0.89395 0.12647 0.0
H81 H 0.88537 0.99326 0.08062 0.0
H82 H 0.79023 0.87294 0.13418 0.0
H83 H 0.79203 0.97063 0.08914 0.0
H84 H 1.00009 0.87484 0.15429 0.0
H85 H 0.10074 0.85665 0.11273 0.0
H86 H 0.85329 0.92482 0.01146 0.0
H87 H 0.78553 0.79839 0.05358 0.0
Li88 Li 0.9794 0.95471 0.39937 0.0
Li89 Li 0.04597 0.00291 0.42324 0.0
Li90 Li 0.96107 0.00409 0.42317 0.0
Li91 Li 0.02805 0.0527 0.39942 0.0
C92 C 0.9737 0.89551 0.43175 0.0
N93 N 0.97918 0.80468 0.44185 0.0
C94 C 0.00544 0.88012 0.42134 0.0
C95 C 0.94478 0.86473 0.4473 0.0
C96 C 0.00766 0.83407 0.42666 0.0
C97 C 0.94807 0.81894 0.45219 0.0
C98 C 0.11258 0.03478 0.39175 0.0
C99 C 0.20089 0.11175 0.39803 0.0
N100 N 0.22187 0.09661 0.38365 0.0
C101 C 0.13503 0.01996 0.37706 0.0
C102 C 0.14576 0.08102 0.40236 0.0
C103 C 0.19036 0.05175 0.37317 0.0
C104 C 0.97703 0.90353 0.36611 0.0
N105 N 0.95188 0.89361 0.38303 0.0
C106 C 0.90155 0.79859 0.3765 0.0
C107 C 0.91374 0.8426 0.38825 0.0
C108 C 0.92863 0.80742 0.35922 0.0
C109 C 0.96598 0.86092 0.35393 0.0
H110 H 0.00725 0.94451 0.36237 0.0
H111 H 0.8943 0.83578 0.40181 0.0
C112 C 0.09955 0.0123 0.45748 0.0
N113 N 0.0976 0.99846 0.43914 0.0
C114 C 0.13258 0.00435 0.47008 0.0
C115 C 0.16118 0.96829 0.44463 0.0
C116 C 0.1279 0.97727 0.43252 0.0
C117 C 0.16354 0.98142 0.46375 0.0
H118 H 0.0746 0.02858 0.46239 0.0
H119 H 0.12504 0.96576 0.41793 0.0
C120 C 0.895 0.97274 0.3916 0.0
N121 N 0.78584 0.91107 0.38332 0.0
C122 C 0.87279 0.98778 0.37688 0.0
C123 C 0.86164 0.92636 0.40213 0.0
C124 C 0.81752 0.95607 0.37292 0.0
C125 C 0.80658 0.89571 0.39772 0.0
C126 C 0.03331 0.11133 0.43197 0.0
C127 C 1.00214 0.12735 0.42153 0.0
C128 C 0.06169 0.14137 0.44771 0.0
C129 C 0.99993 0.1733 0.42701 0.0
C130 C 0.05844 0.18708 0.45274 0.0
N131 N 0.02788 0.20196 0.44237 0.0
C132 C 0.906 0.99331 0.45723 0.0
C133 C 0.8794 0.0301 0.43232 0.0
C134 C 0.87248 1.00086 0.46973 0.0
N135 N 0.90906 0.00823 0.43896 0.0
C136 C 0.84572 0.03876 0.44433 0.0
C137 C 0.8422 0.02452 0.46339 0.0
H138 H 0.93042 0.97645 0.46216 0.0
H139 H 0.88307 0.04238 0.41779 0.0
C140 C 0.03092 0.10424 0.36618 0.0
N141 N 0.05581 0.11401 0.38314 0.0
C142 C 0.04213 0.14695 0.35402 0.0
C143 C 0.1062 0.2091 0.37668 0.0
C144 C 0.09385 0.16499 0.38841 0.0
C145 C 0.07938 0.20041 0.35936 0.0
H146 H 1.00078 0.06328 0.36241 0.0
H147 H 0.11309 0.17168 0.402 0.0
O148 O 0.9711 0.94069 0.42696 0.0
O149 O 0.05842 0.00381 0.39566 0.0
O150 O 0.94911 0.00365 0.39558 0.0
O151 O 0.03587 0.06624 0.42703 0.0
H152 H 0.02813 0.90343 0.40926 0.0
H153 H 0.9201 0.87619 0.45553 0.0
H154 H 0.03206 0.82172 0.41872 0.0
H155 H 0.92591 0.79474 0.4642 0.0
H156 H 0.227 0.14762 0.40612 0.0
H157 H 0.10996 0.98418 0.36875 0.0
H158 H 0.12939 0.0931 0.41385 0.0
H159 H 0.20827 0.04074 0.36183 0.0
H160 H 0.87212 0.75805 0.38104 0.0
H161 H 0.98836 0.86965 0.34088 0.0
H162 H 0.13374 0.01596 0.48461 0.0
H163 H 0.18365 0.94988 0.43914 0.0
H164 H 0.89801 0.02368 0.36863 0.0
H165 H 0.87782 0.91411 0.41364 0.0
H166 H 0.7998 0.96725 0.36156 0.0
H167 H 0.78033 0.85974 0.40576 0.0
H168 H 0.97985 0.1046 0.40932 0.0
H169 H 0.08594 0.12941 0.45595 0.0
H170 H 0.97596 0.18614 0.41905 0.0
H171 H 0.08019 0.21071 0.46489 0.0
H172 H 0.87043 0.98837 0.4842 0.0
H173 H 0.82382 0.05777 0.43883 0.0
H174 H 0.01993 0.13833 0.34094 0.0
H175 H 0.13556 0.2496 0.38126 0.0
Li176 Li 0.04796 0.00219 0.73817 0.0
Li177 Li 0.03124 0.05336 0.76256 0.0
Li178 Li 0.97575 0.95253 0.76225 0.0
Li179 Li 0.96 0.00604 0.73834 0.0
C180 C 0.08342 0.97386 0.77133 0.0
N181 N 0.13928 0.92197 0.7819 0.0
C182 C 0.12861 0.99997 0.78306 0.0
C183 C 0.06651 0.92135 0.76501 0.0
C184 C 0.15636 0.97306 0.78823 0.0
C185 C 0.0953 0.89579 0.77051 0.0
C186 C 0.05838 0.11777 0.72987 0.0
C187 C 0.05028 0.19694 0.72434 0.0
N188 N 0.10378 0.22538 0.71972 0.0
C189 C 0.11306 0.14749 0.7248 0.0
C190 C 0.0265 0.14238 0.72942 0.0
C191 C 0.13535 0.20198 0.71983 0.0
C192 C 0.09534 0.01209 0.70308 0.0
N193 N 0.10256 0.00617 0.72161 0.0
C194 C 0.18998 0.017 0.71536 0.0
C195 C 0.14879 0.00856 0.72791 0.0
C196 C 0.18422 0.02425 0.69614 0.0
C197 C 0.13581 0.02132 0.69006 0.0
H198 H 0.05864 0.01117 0.69851 0.0
H199 H 0.15454 0.00515 0.74269 0.0
C200 C 0.05045 0.12436 0.79401 0.0
N201 N 0.07144 0.1155 0.77813 0.0
C202 C 0.08315 0.16792 0.80579 0.0
C203 C 0.15865 0.19156 0.78491 0.0
C204 C 0.12452 0.14774 0.77355 0.0
C205 C 0.13822 0.20205 0.80136 0.0
H206 H 0.00877 0.09684 0.79784 0.0
H207 H 0.1409 0.13819 0.76141 0.0
C208 C 0.94488 0.89311 0.72687 0.0
N209 N 0.89012 0.79147 0.71067 0.0
C210 C 0.88894 0.86791 0.72391 0.0
C211 C 0.97315 0.8671 0.72122 0.0
C212 C 0.86193 0.81639 0.71582 0.0
C213 C 0.94468 0.81558 0.71317 0.0
C214 C 0.9157 0.02162 0.77213 0.0
C215 C 0.86501 0.98288 0.77909 0.0
C216 C 0.92928 0.07602 0.77129 0.0
C217 C 0.82856 0.99922 0.78499 0.0
C218 C 0.89176 0.09075 0.77737 0.0
N219 N 0.84258 0.05236 0.78402 0.0
C220 C 0.95791 0.88006 0.79313 0.0
C221 C 0.88296 0.85663 0.77314 0.0
C222 C 0.92582 0.83629 0.80494 0.0
N223 N 0.93612 0.88924 0.77752 0.0
C224 C 0.84945 0.8126 0.78454 0.0
C225 C 0.87058 0.80214 0.80081 0.0
H226 H 0.99973 0.90755 0.79678 0.0
H227 H 0.8659 0.86624 0.76124 0.0
C228 C 0.90807 0.98673 0.70381 0.0
N229 N 0.906 0.00322 0.72155 0.0
C230 C 0.86757 0.97743 0.69081 0.0
C231 C 0.82444 0.00422 0.71432 0.0
C232 C 0.86554 0.01259 0.7269 0.0
C233 C 0.82458 0.98559 0.69607 0.0
H234 H 0.94049 0.97923 0.69993 0.0
H235 H 0.86428 0.02575 0.74094 0.0
O236 O 0.05616 0.9999 0.76604 0.0
O237 O 0.03585 0.06438 0.73471 0.0
O238 O 0.97226 0.944 0.73445 0.0
O239 O 0.95182 0.00624 0.76632 0.0
H240 H 0.14217 0.04068 0.78805 0.0
H241 H 0.03125 0.90042 0.75614 0.0
H242 H 0.1915 0.99279 0.79727 0.0
H243 H 0.08261 0.8551 0.76575 0.0
H244 H 0.02616 0.21662 0.72401 0.0
H245 H 0.13805 0.12871 0.72483 0.0
H246 H 0.98377 0.1195 0.73282 0.0
H247 H 0.17773 0.22562 0.71602 0.0
H248 H 0.22606 0.01803 0.72073 0.0
H249 H 0.1297 0.0275 0.67547 0.0
H250 H 0.06568 0.17431 0.81835 0.0
H251 H 0.20112 0.21564 0.78121 0.0
H252 H 0.86655 0.88788 0.72789 0.0
H253 H 0.01669 0.88663 0.72291 0.0
H254 H 0.81859 0.79627 0.71357 0.0
H255 H 0.96601 0.79488 0.70881 0.0
H256 H 0.85389 0.94064 0.77988 0.0
H257 H 0.96836 0.10656 0.76601 0.0
H258 H 0.78914 0.96966 0.79037 0.0
H259 H 0.90173 0.13269 0.77678 0.0
H260 H 0.94386 0.82983 0.81735 0.0
H261 H 0.80683 0.78847 0.78106 0.0
H262 H 0.86923 0.96265 0.67697 0.0
H263 H 0.79282 0.01221 0.7189 0.0
C264 C 0.95846 0.54079 0.2747 0.0
C265 C 0.96515 0.42188 0.22673 0.0
O266 O 0.00718 0.55488 0.26983 0.0
Zn267 Zn 0.04713 0.5272 0.25079 0.0
O268 O 0.91913 0.49914 0.26727 0.0
Zn269 Zn 0.96149 0.48084 0.25083 0.0
O270 O 1.00147 0.4533 0.26989 0.0
O271 O 0.08952 0.50894 0.26725 0.0
O272 O 0.92354 0.41942 0.2343 0.0
O273 O 0.01249 0.45964 0.23163 0.0
O274 O 0.08503 0.58845 0.23415 0.0
O275 O 0.99605 0.54834 0.2316 0.0
C276 C 0.05019 0.46737 0.27473 0.0
C277 C 0.04339 0.58601 0.22663 0.0
C278 C 0.54393 0.9643 0.60518 0.0
C279 C 0.42056 0.96462 0.55714 0.0
O280 O 0.50471 0.92252 0.59766 0.0
Zn281 Zn 0.48157 0.96113 0.5809 0.0
O282 O 0.55452 0.01166 0.59992 0.0
Zn283 Zn 0.5257 0.04867 0.58044 0.0
O284 O 0.5037 0.08864 0.597 0.0
O285 O 0.4544 0.9997 0.60034 0.0
O286 O 0.45801 0.01179 0.56214 0.0
O287 O 0.41907 0.92285 0.56421 0.0
O288 O 0.54796 0.99656 0.56194 0.0
O289 O 0.58689 0.08562 0.56315 0.0
C290 C 0.46535 0.0475 0.60514 0.0
C291 C 0.58498 0.04334 0.55639 0.0
C292 C 0.46141 0.42202 0.93871 0.0
C293 C 0.5868 0.54092 0.89057 0.0
O294 O 0.45217 0.46004 0.93384 0.0
Zn295 Zn 0.48424 0.52675 0.91434 0.0
O296 O 0.49982 0.41865 0.93093 0.0
Zn297 Zn 0.5241 0.48063 0.91454 0.0
O298 O 0.55549 0.54742 0.93397 0.0
O299 O 0.50793 0.58877 0.93064 0.0
O300 O 0.58566 0.50013 0.8983 0.0
O301 O 0.55146 0.55418 0.89527 0.0
O302 O 0.42316 0.50713 0.89786 0.0
O303 O 0.45748 0.45307 0.89524 0.0
C304 C 0.54605 0.58543 0.93866 0.0
C305 C 0.42226 0.46627 0.8903 0.0
C306 C 0.94682 0.17449 0.16851 0.0
C307 C 0.94997 0.1831 0.14903 0.0
C308 C 0.94533 0.21187 0.18098 0.0
C309 C 0.94652 0.25883 0.17382 0.0
C310 C 0.94752 0.26674 0.15417 0.0
C311 C 0.94946 0.22892 0.14202 0.0
C312 C 0.94433 0.20199 0.20184 0.0
C313 C 0.94855 0.31617 0.146 0.0
C314 C 0.90853 0.3396 0.20689 0.0
C315 C 0.95974 0.38095 0.21272 0.0
C316 C 0.90347 0.29988 0.19403 0.0
C317 C 0.95071 0.30147 0.18692 0.0
C318 C 1.00244 0.34339 0.19262 0.0
C319 C 0.00631 0.3826 0.20539 0.0
C320 C 0.84764 0.25594 0.18818 0.0
C321 C 0.05382 0.34645 0.1854 0.0
H322 H 0.94612 0.13871 0.17405 0.0
H323 H 0.95248 0.23631 0.12703 0.0
H324 H 0.98224 0.23422 0.20832 0.0
H325 H 0.91008 0.2039 0.20849 0.0
H326 H 0.94046 0.16206 0.20511 0.0
H327 H 0.94444 0.31395 0.13047 0.0
H328 H 0.91533 0.32107 0.15203 0.0
H329 H 0.98734 0.35297 0.14969 0.0
H330 H 0.87233 0.33803 0.21245 0.0
H331 H 0.04608 0.41433 0.20979 0.0
H332 H 0.84144 0.21574 0.19242 0.0
H333 H 0.84374 0.25553 0.17268 0.0
H334 H 0.815 0.26134 0.19454 0.0
H335 H 0.0546 0.30919 0.1894 0.0
H336 H 0.0909 0.38211 0.191 0.0
H337 H 0.055 0.34873 0.16985 0.0
C338 C 0.82475 0.05192 0.49502 0.0
C339 C 0.80748 0.03456 0.47657 0.0
C340 C 0.79138 0.05906 0.50785 0.0
C341 C 0.73961 0.0491 0.50208 0.0
C342 C 0.72276 0.03364 0.4833 0.0
C343 C 0.75671 0.02626 0.47082 0.0
C344 C 0.81072 0.07527 0.52779 0.0
C345 C 0.6679 0.02273 0.47658 0.0
C346 C 0.62829 0.99961 0.53866 0.0
C347 C 0.62547 0.04647 0.54257 0.0
C348 C 0.66554 1.0003 0.52568 0.0
C349 C 0.70082 0.04898 0.51615 0.0
C350 C 0.69847 0.09661 0.52 0.0
C351 C 0.66094 0.09489 0.53328 0.0
C352 C 0.66701 0.94871 0.52215 0.0
C353 C 0.73522 0.14912 0.50998 0.0
H354 H 0.86435 0.05964 0.49951 0.0
H355 H 0.74267 0.01238 0.45667 0.0
H356 H 0.80677 0.11061 0.53204 0.0
H357 H 0.78499 0.04143 0.53743 0.0
H358 H 0.85359 0.08566 0.52966 0.0
H359 H 0.66323 0.01672 0.46114 0.0
H360 H 0.63561 0.98576 0.48353 0.0
H361 H 0.66142 0.05681 0.48044 0.0
H362 H 0.60143 0.96203 0.54586 0.0
H363 H 0.65896 0.1312 0.53621 0.0
H364 H 0.70821 0.95541 0.52505 0.0
H365 H 0.65787 0.93679 0.5072 0.0
H366 H 0.63746 0.91449 0.531 0.0
H367 H 0.77826 0.16109 0.51243 0.0
H368 H 0.72872 0.18265 0.51466 0.0
H369 H 0.72809 0.1436 0.49462 0.0
C370 C 0.79238 0.70871 0.80708 0.0
C371 C 0.83401 0.75835 0.81397 0.0
C372 C 0.75381 0.66951 0.81921 0.0
C373 C 0.75702 0.68008 0.83872 0.0
C374 C 0.80039 0.72898 0.84586 0.0
C375 C 0.83826 0.76755 0.83341 0.0
C376 C 0.70827 0.61783 0.81105 0.0
C377 C 0.80532 0.74176 0.86658 0.0
C378 C 0.62698 0.61643 0.86721 0.0
C379 C 0.62933 0.57441 0.87666 0.0
C380 C 0.66784 0.65042 0.85464 0.0
C381 C 0.71246 0.64247 0.85145 0.0
C382 C 0.71481 0.59966 0.8607 0.0
C383 C 0.67312 0.56601 0.87318 0.0
C384 C 0.6636 0.69539 0.84498 0.0
C385 C 0.76183 0.59005 0.85767 0.0
H386 H 0.78931 0.70089 0.79212 0.0
H387 H 0.86984 0.80596 0.83887 0.0
H388 H 0.70471 0.5821 0.81858 0.0
H389 H 0.66928 0.61726 0.81288 0.0
H390 H 0.71419 0.61363 0.79586 0.0
H391 H 0.84406 0.77898 0.87007 0.0
H392 H 0.77127 0.74762 0.87106 0.0
H393 H 0.8026 0.70744 0.87483 0.0
H394 H 0.59324 0.62317 0.86972 0.0
H395 H 0.67533 0.53372 0.88044 0.0
H396 H 0.66519 0.69152 0.82953 0.0
H397 H 0.69851 0.73524 0.84899 0.0
H398 H 0.62556 0.69523 0.84861 0.0
H399 H 0.76649 0.58457 0.8425 0.0
H400 H 0.75669 0.55388 0.86539 0.0
H401 H 0.79999 0.62599 0.8624 0.0
C402 C 0.06518 0.834 0.16761 0.0
C403 C 0.05855 0.82353 0.14826 0.0
C404 C 0.06689 0.79687 0.18016 0.0
C405 C 0.06221 0.74817 0.17319 0.0
C406 C 0.05772 0.73831 0.15362 0.0
C407 C 0.05578 0.77601 0.14139 0.0
C408 C 0.07176 0.80891 0.20093 0.0
C409 C 0.05285 0.68695 0.14564 0.0
C410 C 0.09982 0.66609 0.2058 0.0
C411 C 0.04876 0.62683 0.21256 0.0
C412 C 0.10491 0.7055 0.19278 0.0
C413 C 0.05789 0.70584 0.18649 0.0
C414 C 0.00628 0.66612 0.19318 0.0
C415 C 1.00235 0.62708 0.20606 0.0
C416 C 0.16056 0.74699 0.18585 0.0
C417 C 0.95515 0.66524 0.1869 0.0
H418 H 0.06838 0.87107 0.17301 0.0
H419 H 0.05012 0.76726 0.1265 0.0
H420 H 0.03421 0.77863 0.20818 0.0
H421 H 0.10586 0.80554 0.20698 0.0
H422 H 0.07835 0.85002 0.20399 0.0
H423 H 0.05456 0.68761 0.13006 0.0
H424 H 0.08577 0.68066 0.15112 0.0
H425 H 0.01379 0.65165 0.15011 0.0
H426 H 0.13588 0.66614 0.21071 0.0
H427 H 0.96271 0.59704 0.21121 0.0
H428 H 0.16933 0.78828 0.18977 0.0
H429 H 0.16202 0.74566 0.1703 0.0
H430 H 0.19294 0.74033 0.1917 0.0
H431 H 0.95712 0.70392 0.19077 0.0
H432 H 0.91811 0.63127 0.19328 0.0
H433 H 0.95139 0.6615 0.1714 0.0
C434 C 0.17963 0.95244 0.49531 0.0
C435 C 0.19785 0.97108 0.47703 0.0
C436 C 0.21265 0.9452 0.50827 0.0
C437 C 0.26507 0.95643 0.50279 0.0
C438 C 0.28288 0.9731 0.48415 0.0
C439 C 0.24922 0.98048 0.47154 0.0
C440 C 0.19226 0.92763 0.52804 0.0
C441 C 0.33846 0.98541 0.47774 0.0
C442 C 0.37503 0.00674 0.53983 0.0
C443 C 0.37927 0.96056 0.54353 0.0
C444 C 0.33757 0.00547 0.52683 0.0
C445 C 0.30354 0.9569 0.51706 0.0
C446 C 0.30711 0.90985 0.52077 0.0
C447 C 0.34481 0.91213 0.53409 0.0
C448 C 0.33475 0.05642 0.52348 0.0
C449 C 0.2717 0.85747 0.51049 0.0
H450 H 0.13956 0.94387 0.49958 0.0
H451 H 0.26396 0.99532 0.45752 0.0
H452 H 0.19711 0.89277 0.53223 0.0
H453 H 0.21669 0.96126 0.53791 0.0
H454 H 0.14895 0.91599 0.52962 0.0
H455 H 0.34391 0.99215 0.46235 0.0
H456 H 0.36987 0.02237 0.48495 0.0
H457 H 0.34559 0.9517 0.48156 0.0
H458 H 0.40105 0.04427 0.54719 0.0
H459 H 0.34792 0.87636 0.53686 0.0
H460 H 0.29298 0.04846 0.52612 0.0
H461 H 0.34463 0.06926 0.50862 0.0
H462 H 0.36315 0.09049 0.5326 0.0
H463 H 0.22833 0.84476 0.51257 0.0
H464 H 0.27853 0.82422 0.51527 0.0
H465 H 0.27996 0.86358 0.4952 0.0
C466 C 0.21646 0.29569 0.80725 0.0
C467 C 0.17526 0.24604 0.81434 0.0
C468 C 0.25518 0.33531 0.81921 0.0
C469 C 0.25257 0.3252 0.83874 0.0
C470 C 0.20972 0.27624 0.84608 0.0
C471 C 0.1717 0.23722 0.8338 0.0
C472 C 0.30017 0.38703 0.81083 0.0
C473 C 0.20544 0.26395 0.86683 0.0
C474 C 0.38296 0.39074 0.86698 0.0
C475 C 0.38003 0.43251 0.87637 0.0
C476 C 0.34221 0.35629 0.85448 0.0
C477 C 0.29713 0.36349 0.8513 0.0
C478 C 0.29426 0.40612 0.86046 0.0
C479 C 0.33585 0.44026 0.87287 0.0
C480 C 0.34704 0.31156 0.8449 0.0
C481 C 0.24674 0.41493 0.85744 0.0
H482 H 0.21899 0.30322 0.79227 0.0
H483 H 0.14048 0.19882 0.83941 0.0
H484 H 0.30335 0.42277 0.81824 0.0
H485 H 0.33947 0.38823 0.81265 0.0
H486 H 0.29393 0.3907 0.79563 0.0
H487 H 0.16711 0.22644 0.87049 0.0
H488 H 0.24001 0.25888 0.87127 0.0
H489 H 0.20772 0.29818 0.875 0.0
H490 H 0.41702 0.38453 0.8695 0.0
H491 H 0.33319 0.47235 0.88008 0.0
H492 H 0.34499 0.315 0.82944 0.0
H493 H 0.31261 0.27155 0.84907 0.0
H494 H 0.38549 0.31246 0.84844 0.0
H495 H 0.24162 0.4198 0.84226 0.0
H496 H 0.25159 0.45118 0.86502 0.0
H497 H 0.20892 0.37888 0.86236 0.0
C498 C 0.7262 0.95109 0.68894 0.0
C499 C 0.78008 0.97471 0.68267 0.0
C500 C 0.68424 0.9433 0.67671 0.0
C501 C 0.69628 0.95913 0.65769 0.0
C502 C 0.75015 0.98104 0.65109 0.0
C503 C 0.7914 0.98877 0.66366 0.0
C504 C 0.62737 0.91997 0.68431 0.0
C505 C 0.76465 0.99834 0.63088 0.0
C506 C 0.58346 0.91332 0.62134 0.0
C507 C 0.57891 0.95994 0.61965 0.0
C508 C 0.6209 0.91189 0.63391 0.0
C509 C 0.65386 0.9579 0.64514 0.0
C510 C 0.64782 0.00419 0.64395 0.0
C511 C 0.61069 0.00471 0.63118 0.0
C512 C 0.62647 0.86195 0.63474 0.0
C513 C 0.68156 0.05385 0.65583 0.0
H514 H 0.7168 0.93898 0.70351 0.0
H515 H 0.83286 0.00745 0.65868 0.0
H516 H 0.61503 0.95126 0.6838 0.0
H517 H 0.59833 0.88553 0.6755 0.0
H518 H 0.6239 0.90574 0.69903 0.0
H519 H 0.80721 0.00985 0.62757 0.0
H520 H 0.73721 0.96518 0.62131 0.0
H521 H 0.75926 0.03363 0.62796 0.0
H522 H 0.55916 0.8787 0.6124 0.0
H523 H 0.607 0.04071 0.6301 0.0
H524 H 0.6225 0.84753 0.64944 0.0
H525 H 0.66741 0.87202 0.62978 0.0
H526 H 0.59567 0.82843 0.62598 0.0
H527 H 0.67707 0.04258 0.6709 0.0
H528 H 0.67002 0.08547 0.65387 0.0
H529 H 0.72507 0.07157 0.6522 0.0
C530 C 0.71725 0.78475 0.02324 0.0
C531 C 0.77047 0.82002 0.01713 0.0
C532 C 0.67767 0.74765 0.01088 0.0
C533 C 0.69143 0.74609 0.99189 0.0
C534 C 0.74449 0.78272 0.98547 0.0
C535 C 0.78339 0.81895 0.99817 0.0
C536 C 0.62159 0.70907 0.01827 0.0
C537 C 0.7607 0.78251 0.9653 0.0
C538 C 0.61524 0.61547 0.96416 0.0
C539 C 0.58065 0.62556 0.953 0.0
C540 C 0.65043 0.65383 0.97718 0.0
C541 C 0.65157 0.70388 0.97898 0.0
C542 C 0.61614 0.71406 0.96799 0.0
C543 C 0.58083 0.67461 0.95519 0.0
C544 C 0.6871 0.64112 0.98879 0.0
C545 C 0.61655 0.76715 0.96942 0.0
H546 H 0.70654 0.78587 0.03777 0.0
H547 H 0.82448 0.84536 0.99332 0.0
H548 H 0.59058 0.71186 0.00968 0.0
H549 H 0.61347 0.66679 0.01717 0.0
H550 H 0.61656 0.71731 0.03316 0.0
H551 H 0.80223 0.81626 0.96222 0.0
H552 H 0.7592 0.74363 0.96216 0.0
H553 H 0.73176 0.78573 0.95569 0.0
H554 H 0.61509 0.57751 0.96267 0.0
H555 H 0.55433 0.68276 0.94657 0.0
H556 H 0.68135 0.64574 0.00394 0.0
H557 H 0.73012 0.67019 0.98538 0.0
H558 H 0.67945 0.59935 0.98633 0.0
H559 H 0.61 0.77489 0.98418 0.0
H560 H 0.58493 0.76789 0.9605 0.0
H561 H 0.65678 0.80088 0.96506 0.0
C562 C 0.92085 0.71621 0.35547 0.0
C563 C 0.92144 0.76137 0.34731 0.0
C564 C 0.92131 0.6758 0.3443 0.0
C565 C 0.92253 0.68076 0.32451 0.0
C566 C 0.92042 0.72484 0.31619 0.0
C567 C 0.91984 0.76455 0.32769 0.0
C568 C 0.92339 0.62936 0.3537 0.0
C569 C 0.9214 0.73148 0.29514 0.0
C570 C 0.99265 0.62107 0.29596 0.0
C571 C 0.94866 0.57451 0.28826 0.0
C572 C 0.98456 0.65535 0.30799 0.0
C573 C 0.93111 0.64285 0.31252 0.0
C574 C 0.88645 0.59534 0.30515 0.0
C575 C 0.89574 0.56172 0.29308 0.0
C576 C 0.03333 0.7056 0.31557 0.0
C577 C 0.8289 0.5806 0.30973 0.0
H578 H 0.92264 0.71367 0.37061 0.0
H579 H 0.91943 0.79889 0.3213 0.0
H580 H 0.89277 0.59015 0.34749 0.0
H581 H 0.96381 0.63345 0.35136 0.0
H582 H 0.91616 0.6281 0.36906 0.0
H583 H 0.91495 0.76538 0.29089 0.0
H584 H 0.96114 0.73951 0.28956 0.0
H585 H 0.88969 0.69361 0.28849 0.0
H586 H 0.0337 0.63133 0.29237 0.0
H587 H 0.86148 0.52583 0.28723 0.0
H588 H 0.03198 0.7057 0.33113 0.0
H589 H 0.03271 0.74224 0.31062 0.0
H590 H 0.0722 0.70872 0.31112 0.0
H591 H 0.82302 0.57871 0.32516 0.0
H592 H 0.7987 0.54103 0.30357 0.0
H593 H 0.82077 0.61239 0.30432 0.0
C594 C 0.28321 0.06713 0.68788 0.0
C595 C 0.22857 0.03508 0.68261 0.0
C596 C 0.32535 0.07525 0.67565 0.0
C597 C 0.3127 0.05146 0.65759 0.0
C598 C 0.25781 0.02088 0.6519 0.0
C599 C 0.21646 0.01272 0.6645 0.0
C600 C 0.38333 0.10772 0.68231 0.0
C601 C 0.24261 0.99515 0.63269 0.0
C602 C 0.42079 0.09592 0.6195 0.0
C603 C 0.43161 0.05302 0.61978 0.0
C604 C 0.38293 0.09678 0.63202 0.0
C605 C 0.35628 0.05429 0.64525 0.0
C606 C 0.36925 0.01242 0.64613 0.0
C607 C 0.40633 0.01207 0.63329 0.0
C608 C 0.36967 0.14176 0.63052 0.0
C609 C 0.34266 0.96691 0.66026 0.0
H610 H 0.2932 0.08572 0.70165 0.0
H611 H 0.17454 0.98744 0.6603 0.0
H612 H 0.40121 0.08098 0.68328 0.0
H613 H 0.40801 0.14019 0.67208 0.0
H614 H 0.38658 0.12649 0.69627 0.0
H615 H 0.19859 0.97702 0.62977 0.0
H616 H 0.26569 0.02566 0.62168 0.0
H617 H 0.25341 0.96282 0.63159 0.0
H618 H 0.44 0.12742 0.60898 0.0
H619 H 0.41501 0.97908 0.63366 0.0
H620 H 0.37296 0.16049 0.64446 0.0
H621 H 0.32714 0.12481 0.62574 0.0
H622 H 0.39677 0.17385 0.62051 0.0
H623 H 0.34717 0.98361 0.67463 0.0
H624 H 0.36012 0.93967 0.65998 0.0
H625 H 0.29859 0.94239 0.65729 0.0
C626 C 0.22167 0.18903 0.99784 0.0
C627 C 0.23439 0.18751 0.01679 0.0
C628 C 0.26083 0.22528 0.98519 0.0
C629 C 0.31394 0.26148 0.99165 0.0
C630 C 0.32745 0.25951 0.01064 0.0
C631 C 0.28764 0.22238 0.02295 0.0
C632 C 0.24488 0.22592 0.96501 0.0
C633 C 0.38357 0.29765 0.01808 0.0
C634 C 0.42538 0.3325 0.95514 0.0
C635 C 0.42624 0.38188 0.95297 0.0
C636 C 0.3895 0.29304 0.96785 0.0
C637 C 0.3542 0.30358 0.97878 0.0
C638 C 0.356 0.35395 0.977 0.0
C639 C 0.39172 0.3923 0.96406 0.0
C640 C 0.38836 0.23959 0.96925 0.0
C641 C 0.31953 0.36706 0.98856 0.0
H642 H 0.18057 0.16293 0.99296 0.0
H643 H 0.29821 0.22091 0.03746 0.0
H644 H 0.24687 0.26506 0.96191 0.0
H645 H 0.27367 0.22243 0.95541 0.0
H646 H 0.20321 0.19252 0.9619 0.0
H647 H 0.38829 0.28929 0.03298 0.0
H648 H 0.41446 0.29448 0.00954 0.0
H649 H 0.39217 0.34009 0.01694 0.0
H650 H 0.4518 0.32409 0.94658 0.0
H651 H 0.3924 0.43052 0.96258 0.0
H652 H 0.34798 0.20622 0.96486 0.0
H653 H 0.39464 0.23157 0.984 0.0
H654 H 0.41982 0.2385 0.96033 0.0
H655 H 0.27647 0.33837 0.98509 0.0
H656 H 0.32768 0.40901 0.98612 0.0
H657 H 0.32497 0.36219 0.00372 0.0
C658 C 0.08731 0.29171 0.35559 0.0
C659 C 0.08674 0.24656 0.34745 0.0
C660 C 0.08698 0.33219 0.34441 0.0
C661 C 0.08591 0.32733 0.32462 0.0
C662 C 0.08806 0.28328 0.31632 0.0
C663 C 0.08852 0.2435 0.32783 0.0
C664 C 0.08487 0.37862 0.3538 0.0
C665 C 0.08723 0.27672 0.29527 0.0
C666 C 0.01593 0.38709 0.29603 0.0
C667 C 0.05996 0.43366 0.28833 0.0
C668 C 0.02397 0.35279 0.30808 0.0
C669 C 0.0774 0.36529 0.31262 0.0
C670 C 0.12209 0.4128 0.30524 0.0
C671 C 0.11286 0.44644 0.29316 0.0
C672 C 0.97517 0.30251 0.31565 0.0
C673 C 0.17961 0.42755 0.30984 0.0
H674 H 0.08539 0.29417 0.37073 0.0
H675 H 0.08897 0.20918 0.32144 0.0
H676 H 0.11552 0.41784 0.34759 0.0
H677 H 0.04446 0.37453 0.35145 0.0
H678 H 0.09203 0.37982 0.36917 0.0
H679 H 0.0937 0.24283 0.29103 0.0
H680 H 0.04752 0.2687 0.28967 0.0
H681 H 0.11898 0.31461 0.28863 0.0
H682 H 0.97489 0.37683 0.29243 0.0
H683 H 0.14714 0.48235 0.2873 0.0
H684 H 0.97643 0.30238 0.33121 0.0
H685 H 0.97582 0.26589 0.31072 0.0
H686 H 0.93632 0.2994 0.31119 0.0
H687 H 0.18541 0.42938 0.32528 0.0
H688 H 0.20984 0.46714 0.30369 0.0
H689 H 0.18778 0.39578 0.30444 0.0
loop_
_geom_bond_atom_site_label_1
_geom_bond_atom_site_label_2
_geom_bond_distance
_geom_bond_site_symmetry_2
_ccdc_geom_bond_type
Li0 N17 1.990 . S
Li0 O60 1.956 . S
Li0 O61 1.970 1_455 S
Li0 O62 1.961 1_545 S
Li1 N25 1.990 . S
Li1 O60 1.970 1_655 S
Li1 O61 1.956 . S
Li1 O63 1.961 1_545 S
Li2 N47 1.990 . S
Li2 O60 1.961 1_565 S
Li2 O62 1.956 . S
Li2 O63 1.970 1_455 S
Li3 N53 1.990 . S
Li3 O61 1.961 1_565 S
Li3 O62 1.970 1_655 S
Li3 O63 1.956 . S
C4 C6 1.348 . S
C4 C7 1.356 . S
C4 O60 1.325 . S
N5 C8 1.314 . S
N5 C9 1.279 . S
C6 C4 1.348 . S
C6 C8 1.353 . S
C6 H64 0.929 . S
C7 C4 1.356 . S
C7 C9 1.358 . S
C7 H65 0.930 . S
C8 N5 1.314 . S
C8 C6 1.353 . S
C8 H66 0.930 . S
C9 N5 1.279 . S
C9 C7 1.358 . S
C9 H67 0.930 . S
C10 C13 1.348 1_655 S
C10 C14 1.356 . S
C10 O61 1.325 . S
C11 N12 1.279 . S
C11 C14 1.358 . S
C11 H68 0.930 . S
N12 C11 1.279 . S
N12 C15 1.314 . S
C13 C10 1.348 1_455 S
C13 C15 1.353 1_455 S
C13 H69 0.929 . S
C14 C10 1.356 . S
C14 C11 1.358 . S
C14 H70 0.930 . S
C15 N12 1.314 . S
C15 C13 1.353 1_655 S
C15 H71 0.930 1_655 S
C16 N17 1.314 . S
C16 C21 1.353 . S
C16 H22 0.930 . S
N17 Li0 1.990 . S
N17 C16 1.314 . S
N17 C19 1.279 . S
C18 C19 1.358 . S
C18 C20 1.356 . S
C18 H72 0.930 . S
C19 N17 1.279 . S
C19 C18 1.358 . S
C19 H23 0.930 . S
C20 C18 1.356 . S
C20 C21 1.348 . S
C21 C16 1.353 . S
C21 C20 1.348 . S
C21 H73 0.929 . S
H22 C16 0.930 . S
H23 C19 0.930 . S
C24 N25 1.314 . S
C24 C26 1.353 . S
C24 H30 0.930 . S
N25 Li1 1.990 . S
N25 C24 1.314 . S
N25 C28 1.279 . S
C26 C24 1.353 . S
C26 C29 1.348 . S
C26 H74 0.929 . S
C27 C28 1.358 . S
C27 C29 1.356 . S
C27 H75 0.930 . S
C28 N25 1.279 . S
C28 C27 1.358 . S
C28 H31 0.930 . S
C29 C26 1.348 . S
C29 C27 1.356 . S
H30 C24 0.930 . S
H31 C28 0.930 . S
C32 C34 1.348 1_455 S
C32 C35 1.356 . S
C32 O62 1.325 . S
N33 C36 1.314 . S
N33 C37 1.279 . S
C34 C32 1.348 1_655 S
C34 C36 1.353 1_655 S
C34 H76 0.929 . S
C35 C32 1.356 . S
C35 C37 1.358 . S
C35 H77 0.930 . S
C36 N33 1.314 . S
C36 C34 1.353 1_455 S
C36 H78 0.930 1_455 S
C37 N33 1.279 . S
C37 C35 1.358 . S
C37 H79 0.930 . S
C38 C39 1.348 . S
C38 C40 1.356 . S
C38 O63 1.325 . S
C39 C38 1.348 . S
C39 C41 1.353 . S
C39 H80 0.929 . S
C40 C38 1.356 . S
C40 C42 1.358 . S
C40 H81 0.930 . S
C41 C39 1.353 . S
C41 N43 1.314 . S
C41 H82 0.930 . S
C42 C40 1.358 . S
C42 N43 1.279 . S
C42 H83 0.930 . S
N43 C41 1.314 . S
N43 C42 1.279 . S
C44 C46 1.353 . S
C44 N47 1.314 . S
C44 H50 0.930 . S
C45 N47 1.279 . S
C45 C48 1.358 . S
C45 H51 0.930 . S
C46 C44 1.353 . S
C46 C49 1.348 . S
C46 H84 0.929 . S
N47 Li2 1.990 . S
N47 C44 1.314 . S
N47 C45 1.279 . S
C48 C45 1.358 . S
C48 C49 1.356 . S
C48 H85 0.930 . S
C49 C46 1.348 . S
C49 C48 1.356 . S
H50 C44 0.930 . S
H51 C45 0.930 . S
C52 N53 1.314 . S
C52 C54 1.353 . S
C52 H58 0.930 . S
N53 Li3 1.990 . S
N53 C52 1.314 . S
N53 C56 1.279 . S
C54 C52 1.353 . S
C54 C57 1.348 . S
C54 H86 0.929 . S
C55 C56 1.358 . S
C55 C57 1.356 . S
C55 H87 0.930 . S
C56 N53 1.279 . S
C56 C55 1.358 . S
C56 H59 0.930 . S
C57 C54 1.348 . S
C57 C55 1.356 . S
H58 C52 0.930 . S
H59 C56 0.930 . S
O60 Li0 1.956 . S
O60 Li1 1.970 1_455 S
O60 Li2 1.961 1_545 S
O60 C4 1.325 . S
O61 Li0 1.970 1_655 S
O61 Li1 1.956 . S
O61 Li3 1.961 1_545 S
O61 C10 1.325 . S
O62 Li0 1.961 1_565 S
O62 Li2 1.956 . S
O62 Li3 1.970 1_455 S
O62 C32 1.325 . S
O63 Li1 1.961 1_565 S
O63 Li2 1.970 1_655 S
O63 Li3 1.956 . S
O63 C38 1.325 . S
H64 C6 0.929 . S
H65 C7 0.930 . S
H66 C8 0.930 . S
H67 C9 0.930 . S
H68 C11 0.930 . S
H69 C13 0.929 . S
H70 C14 0.930 . S
H71 C15 0.930 1_455 S
H72 C18 0.930 . S
H73 C21 0.929 . S
H74 C26 0.929 . S
H75 C27 0.930 . S
H76 C34 0.929 . S
H77 C35 0.930 . S
H78 C36 0.930 1_655 S
H79 C37 0.930 . S
H80 C39 0.929 . S
H81 C40 0.930 . S
H82 C41 0.930 . S
H83 C42 0.930 . S
H84 C46 0.929 . S
H85 C48 0.930 . S
H86 C54 0.929 . S
H87 C55 0.930 . S
Li88 N105 1.990 . S
Li88 O148 1.956 . S
Li88 O149 1.970 1_665 S
Li88 O150 1.961 . S
Li89 N113 1.990 . S
Li89 O148 1.970 1_445 S
Li89 O149 1.956 . S
Li89 O151 1.961 . S
Li90 N135 1.990 . S
Li90 O148 1.961 . S
Li90 O150 1.956 . S
Li90 O151 1.970 1_665 S
Li91 N141 1.990 . S
Li91 O149 1.961 . S
Li91 O150 1.970 1_445 S
Li91 O151 1.956 . S
C92 C94 1.348 1_655 S
C92 C95 1.356 . S
C92 O148 1.325 . S
N93 C96 1.314 . S
N93 C97 1.279 . S
C94 C92 1.348 1_455 S
C94 C96 1.353 1_455 S
C94 H152 0.929 . S
C95 C92 1.356 . S
C95 C97 1.358 . S
C95 H153 0.930 . S
C96 N93 1.314 . S
C96 C94 1.353 1_655 S
C96 H154 0.930 1_655 S
C97 N93 1.279 . S
C97 C95 1.358 . S
C97 H155 0.930 . S
C98 C101 1.348 1_545 S
C98 C102 1.356 . S
C98 O149 1.325 . S
C99 N100 1.279 . S
C99 C102 1.358 . S
C99 H156 0.930 . S
N100 C99 1.279 . S
N100 C103 1.314 . S
C101 C98 1.348 1_565 S
C101 C103 1.353 1_565 S
C101 H157 0.929 . S
C102 C98 1.356 . S
C102 C99 1.358 . S
C102 H158 0.930 . S
C103 N100 1.314 . S
C103 C101 1.353 1_545 S
C103 H159 0.930 1_545 S
C104 N105 1.314 . S
C104 C109 1.353 . S
C104 H110 0.930 . S
N105 Li88 1.990 . S
N105 C104 1.314 . S
N105 C107 1.279 . S
C106 C107 1.358 . S
C106 C108 1.356 . S
C106 H160 0.930 . S
C107 N105 1.279 . S
C107 C106 1.358 . S
C107 H111 0.930 . S
C108 C106 1.356 . S
C108 C109 1.348 . S
C109 C104 1.353 . S
C109 C108 1.348 . S
C109 H161 0.929 . S
H110 C104 0.930 . S
H111 C107 0.930 . S
C112 N113 1.314 . S
C112 C114 1.353 . S
C112 H118 0.930 . S
N113 Li89 1.990 . S
N113 C112 1.314 . S
N113 C116 1.279 . S
C114 C112 1.353 . S
C114 C117 1.348 . S
C114 H162 0.929 . S
C115 C116 1.358 . S
C115 C117 1.356 . S
C115 H163 0.930 . S
C116 N113 1.279 . S
C116 C115 1.358 . S
C116 H119 0.930 . S
C117 C114 1.348 . S
C117 C115 1.356 . S
H118 C112 0.930 . S
H119 C116 0.930 . S
C120 C122 1.348 1_565 S
C120 C123 1.356 . S
C120 O150 1.325 . S
N121 C124 1.314 . S
N121 C125 1.279 . S
C122 C120 1.348 1_545 S
C122 C124 1.353 1_545 S
C122 H164 0.929 . S
C123 C120 1.356 . S
C123 C125 1.358 . S
C123 H165 0.930 . S
C124 N121 1.314 . S
C124 C122 1.353 1_565 S
C124 H166 0.930 1_565 S
C125 N121 1.279 . S
C125 C123 1.358 . S
C125 H167 0.930 . S
C126 C127 1.348 1_455 S
C126 C128 1.356 . S
C126 O151 1.325 . S
C127 C126 1.348 1_655 S
C127 C129 1.353 1_655 S
C127 H168 0.929 . S
C128 C126 1.356 . S
C128 C130 1.358 . S
C128 H169 0.930 . S
C129 C127 1.353 1_455 S
C129 N131 1.314 . S
C129 H170 0.930 1_455 S
C130 C128 1.358 . S
C130 N131 1.279 . S
C130 H171 0.930 . S
N131 C129 1.314 . S
N131 C130 1.279 . S
C132 C134 1.353 . S
C132 N135 1.314 . S
C132 H138 0.930 . S
C133 N135 1.279 . S
C133 C136 1.358 . S
C133 H139 0.930 . S
C134 C132 1.353 . S
C134 C137 1.348 . S
C134 H172 0.929 . S
N135 Li90 1.990 . S
N135 C132 1.314 . S
N135 C133 1.279 . S
C136 C133 1.358 . S
C136 C137 1.356 . S
C136 H173 0.930 . S
C137 C134 1.348 . S
C137 C136 1.356 . S
H138 C132 0.930 . S
H139 C133 0.930 . S
C140 N141 1.314 . S
C140 C142 1.353 . S
C140 H146 0.930 . S
N141 Li91 1.990 . S
N141 C140 1.314 . S
N141 C144 1.279 . S
C142 C140 1.353 . S
C142 C145 1.348 . S
C142 H174 0.929 . S
C143 C144 1.358 . S
C143 C145 1.356 . S
C143 H175 0.930 . S
C144 N141 1.279 . S
C144 C143 1.358 . S
C144 H147 0.930 . S
C145 C142 1.348 . S
C145 C143 1.356 . S
H146 C140 0.930 . S
H147 C144 0.930 . S
O148 Li88 1.956 . S
O148 Li89 1.970 1_665 S
O148 Li90 1.961 . S
O148 C92 1.325 . S
O149 Li88 1.970 1_445 S
O149 Li89 1.956 . S
O149 Li91 1.961 . S
O149 C98 1.325 . S
O150 Li88 1.961 . S
O150 Li90 1.956 . S
O150 Li91 1.970 1_665 S
O150 C120 1.325 . S
O151 Li89 1.961 . S
O151 Li90 1.970 1_445 S
O151 Li91 1.956 . S
O151 C126 1.325 . S
H152 C94 0.929 . S
H153 C95 0.930 . S
H154 C96 0.930 1_455 S
H155 C97 0.930 . S
H156 C99 0.930 . S
H157 C101 0.929 . S
H158 C102 0.930 . S
H159 C103 0.930 1_565 S
H160 C106 0.930 . S
H161 C109 0.929 . S
H162 C114 0.929 . S
H163 C115 0.930 . S
H164 C122 0.929 . S
H165 C123 0.930 . S
H166 C124 0.930 1_545 S
H167 C125 0.930 . S
H168 C127 0.929 . S
H169 C128 0.930 . S
H170 C129 0.930 1_655 S
H171 C130 0.930 . S
H172 C134 0.929 . S
H173 C136 0.930 . S
H174 C142 0.929 . S
H175 C143 0.930 . S
Li176 N193 1.990 . S
Li176 O236 1.956 . S
Li176 O237 1.970 1_565 S
Li176 O238 1.961 1_455 S
Li177 N201 1.990 . S
Li177 O236 1.970 1_545 S
Li177 O237 1.956 . S
Li177 O239 1.961 1_455 S
Li178 N223 1.990 . S
Li178 O236 1.961 1_655 S
Li178 O238 1.956 . S
Li178 O239 1.970 1_565 S
Li179 N229 1.990 . S
Li179 O237 1.961 1_655 S
Li179 O238 1.970 1_545 S
Li179 O239 1.956 . S
C180 C182 1.348 1_565 S
C180 C183 1.356 . S
C180 O236 1.325 . S
N181 C184 1.314 . S
N181 C185 1.279 . S
C182 C180 1.348 1_545 S
C182 C184 1.353 1_545 S
C182 H240 0.929 . S
C183 C180 1.356 . S
C183 C185 1.358 . S
C183 H241 0.930 . S
C184 N181 1.314 . S
C184 C182 1.353 1_565 S
C184 H242 0.930 1_565 S
C185 N181 1.279 . S
C185 C183 1.358 . S
C185 H243 0.930 . S
C186 C189 1.348 . S
C186 C190 1.356 . S
C186 O237 1.325 . S
C187 N188 1.279 . S
C187 C190 1.358 . S
C187 H244 0.930 . S
N188 C187 1.279 . S
N188 C191 1.314 . S
C189 C186 1.348 . S
C189 C191 1.353 . S
C189 H245 0.929 . S
C190 C186 1.356 . S
C190 C187 1.358 . S
C190 H246 0.930 . S
C191 N188 1.314 . S
C191 C189 1.353 . S
C191 H247 0.930 . S
C192 N193 1.314 . S
C192 C197 1.353 . S
C192 H198 0.930 . S
N193 Li176 1.990 . S
N193 C192 1.314 . S
N193 C195 1.279 . S
C194 C195 1.358 . S
C194 C196 1.356 . S
C194 H248 0.930 . S
C195 N193 1.279 . S
C195 C194 1.358 . S
C195 H199 0.930 . S
C196 C194 1.356 . S
C196 C197 1.348 . S
C197 C192 1.353 . S
C197 C196 1.348 . S
C197 H249 0.929 . S
H198 C192 0.930 . S
H199 C195 0.930 . S
C200 N201 1.314 . S
C200 C202 1.353 . S
C200 H206 0.930 . S
N201 Li177 1.990 . S
N201 C200 1.314 . S
N201 C204 1.279 . S
C202 C200 1.353 . S
C202 C205 1.348 . S
C202 H250 0.929 . S
C203 C204 1.358 . S
C203 C205 1.356 . S
C203 H251 0.930 . S
C204 N201 1.279 . S
C204 C203 1.358 . S
C204 H207 0.930 . S
C205 C202 1.348 . S
C205 C203 1.356 . S
H206 C200 0.930 . S
H207 C204 0.930 . S
C208 C210 1.348 . S
C208 C211 1.356 . S
C208 O238 1.325 . S
N209 C212 1.314 . S
N209 C213 1.279 . S
C210 C208 1.348 . S
C210 C212 1.353 . S
C210 H252 0.929 . S
C211 C208 1.356 . S
C211 C213 1.358 . S
C211 H253 0.930 . S
C212 N209 1.314 . S
C212 C210 1.353 . S
C212 H254 0.930 . S
C213 N209 1.279 . S
C213 C211 1.358 . S
C213 H255 0.930 . S
C214 C215 1.348 1_545 S
C214 C216 1.356 . S
C214 O239 1.325 . S
C215 C214 1.348 1_565 S
C215 C217 1.353 1_565 S
C215 H256 0.929 . S
C216 C214 1.356 . S
C216 C218 1.358 . S
C216 H257 0.930 . S
C217 C215 1.353 1_545 S
C217 N219 1.314 . S
C217 H258 0.930 1_545 S
C218 C216 1.358 . S
C218 N219 1.279 . S
C218 H259 0.930 . S
N219 C217 1.314 . S
N219 C218 1.279 . S
C220 C222 1.353 . S
C220 N223 1.314 . S
C220 H226 0.930 . S
C221 N223 1.279 . S
C221 C224 1.358 . S
C221 H227 0.930 . S
C222 C220 1.353 . S
C222 C225 1.348 . S
C222 H260 0.929 . S
N223 Li178 1.990 . S
N223 C220 1.314 . S
N223 C221 1.279 . S
C224 C221 1.358 . S
C224 C225 1.356 . S
C224 H261 0.930 . S
C225 C222 1.348 . S
C225 C224 1.356 . S
H226 C220 0.930 . S
H227 C221 0.930 . S
C228 N229 1.314 . S
C228 C230 1.353 . S
C228 H234 0.930 . S
N229 Li179 1.990 . S
N229 C228 1.314 . S
N229 C232 1.279 . S
C230 C228 1.353 . S
C230 C233 1.348 . S
C230 H262 0.929 . S
C231 C232 1.358 . S
C231 C233 1.356 . S
C231 H263 0.930 . S
C232 N229 1.279 . S
C232 C231 1.358 . S
C232 H235 0.930 . S
C233 C230 1.348 . S
C233 C231 1.356 . S
H234 C228 0.930 . S
H235 C232 0.930 . S
O236 Li176 1.956 . S
O236 Li177 1.970 1_565 S
O236 Li178 1.961 1_455 S
O236 C180 1.325 . S
O237 Li176 1.970 1_545 S
O237 Li177 1.956 . S
O237 Li179 1.961 1_455 S
O237 C186 1.325 . S
O238 Li176 1.961 1_655 S
O238 Li178 1.956 . S
O238 Li179 1.970 1_565 S
O238 C208 1.325 . S
O239 Li177 1.961 1_655 S
O239 Li178 1.970 1_545 S
O239 Li179 1.956 . S
O239 C214 1.325 . S
H240 C182 0.929 . S
H241 C183 0.930 . S
H242 C184 0.930 1_545 S
H243 C185 0.930 . S
H244 C187 0.930 . S
H245 C189 0.929 . S
H246 C190 0.930 . S
H247 C191 0.930 . S
H248 C194 0.930 . S
H249 C197 0.929 . S
H250 C202 0.929 . S
H251 C203 0.930 . S
H252 C210 0.929 . S
H253 C211 0.930 . S
H254 C212 0.930 . S
H255 C213 0.930 . S
H256 C215 0.929 . S
H257 C216 0.930 . S
H258 C217 0.930 1_565 S
H259 C218 0.930 . S
H260 C222 0.929 . S
H261 C224 0.930 . S
H262 C230 0.929 . S
H263 C231 0.930 . S
C264 O266 1.252 . S
C264 O268 1.255 1_455 S
C265 O272 1.247 . S
C265 O273 1.258 1_655 S
O266 C264 1.252 . S
O266 Zn267 2.028 . S
Zn267 O266 2.028 . S
Zn267 O271 2.035 . S
Zn267 O273 2.035 . S
Zn267 O274 2.028 . S
O268 C264 1.255 1_655 S
O268 Zn269 2.035 . S
Zn269 O268 2.035 . S
Zn269 O270 2.028 . S
Zn269 O272 2.028 . S
Zn269 O275 2.035 . S
O270 Zn269 2.028 . S
O270 C276 1.247 . S
O271 Zn267 2.035 . S
O271 C276 1.258 1_455 S
O272 C265 1.247 . S
O272 Zn269 2.028 . S
O273 C265 1.258 1_455 S
O273 Zn267 2.035 . S
O274 Zn267 2.028 . S
O274 C277 1.252 . S
O275 Zn269 2.035 . S
O275 C277 1.255 1_655 S
C276 O270 1.247 . S
C276 O271 1.258 1_655 S
C277 O274 1.252 . S
C277 O275 1.255 1_455 S
C278 O280 1.247 . S
C278 O282 1.258 1_565 S
C279 O286 1.250 . S
C279 O287 1.253 1_545 S
O280 C278 1.247 . S
O280 Zn281 2.028 . S
Zn281 O280 2.028 . S
Zn281 O285 2.035 . S
Zn281 O287 2.035 . S
Zn281 O288 2.028 . S
O282 C278 1.258 1_545 S
O282 Zn283 2.035 . S
Zn283 O282 2.035 . S
Zn283 O284 2.028 . S
Zn283 O286 2.028 . S
Zn283 O289 2.035 . S
O284 Zn283 2.028 . S
O284 C290 1.250 . S
O285 Zn281 2.035 . S
O285 C290 1.253 1_565 S
O286 C279 1.250 . S
O286 Zn283 2.028 . S
O287 C279 1.253 1_565 S
O287 Zn281 2.035 . S
O288 Zn281 2.028 . S
O288 C291 1.247 . S
O289 Zn283 2.035 . S
O289 C291 1.258 1_545 S
C290 O284 1.250 . S
C290 O285 1.253 1_545 S
C291 O288 1.247 . S
C291 O289 1.258 1_565 S
C292 O294 1.247 . S
C292 O296 1.258 . S
C293 O300 1.247 . S
C293 O301 1.258 . S
O294 C292 1.247 . S
O294 Zn295 2.028 . S
Zn295 O294 2.028 . S
Zn295 O299 2.035 . S
Zn295 O301 2.035 . S
Zn295 O302 2.028 . S
O296 C292 1.258 . S
O296 Zn297 2.035 . S
Zn297 O296 2.035 . S
Zn297 O298 2.028 . S
Zn297 O300 2.028 . S
Zn297 O303 2.035 . S
O298 Zn297 2.028 . S
O298 C304 1.247 . S
O299 Zn295 2.035 . S
O299 C304 1.258 . S
O300 C293 1.247 . S
O300 Zn297 2.028 . S
O301 C293 1.258 . S
O301 Zn295 2.035 . S
O302 Zn295 2.028 . S
O302 C305 1.247 . S
O303 Zn297 2.035 . S
O303 C305 1.258 . S
C304 O298 1.247 . S
C304 O299 1.258 . S
C305 O302 1.247 . S
C305 O303 1.258 . S
C306 C307 1.391 . S
C306 C308 1.394 1_655 S
C306 H322 0.931 1_655 S
C307 C306 1.391 . S
C307 C311 1.376 . S
C308 C306 1.394 1_455 S
C308 C309 1.369 1_455 S
C308 C312 1.531 . S
C309 C308 1.369 1_655 S
C309 C310 1.410 . S
C309 C317 1.503 . S
C310 C309 1.410 . S
C310 C311 1.392 . S
C310 C313 1.511 . S
C311 C307 1.376 . S
C311 C310 1.392 . S
C311 H323 0.929 . S
C312 C308 1.531 . S
C312 H324 0.960 . S
C312 H325 0.962 . S
C312 H326 0.960 . S
C313 C310 1.511 . S
C313 H327 0.961 . S
C313 H328 0.961 . S
C313 H329 0.961 . S
C314 C315 1.370 . S
C314 C316 1.363 . S
C314 H330 0.931 . S
C315 C314 1.370 . S
C315 C319 1.409 1_655 S
C316 C314 1.363 . S
C316 C317 1.370 . S
C316 C320 1.524 . S
C317 C309 1.503 . S
C317 C316 1.370 . S
C317 C318 1.403 . S
C318 C317 1.403 . S
C318 C319 1.407 1_655 S
C318 C321 1.539 . S
C319 C315 1.409 1_455 S
C319 C318 1.407 1_455 S
C319 H331 0.926 . S
C320 C316 1.524 . S
C320 H332 0.956 . S
C320 H333 0.961 . S
C320 H334 0.961 . S
C321 C318 1.539 . S
C321 H335 0.958 1_655 S
C321 H336 0.961 . S
C321 H337 0.960 . S
H322 C306 0.931 1_455 S
H323 C311 0.929 . S
H324 C312 0.960 . S
H325 C312 0.962 . S
H326 C312 0.960 . S
H327 C313 0.961 . S
H328 C313 0.961 . S
H329 C313 0.961 . S
H330 C314 0.931 . S
H331 C319 0.926 . S
H332 C320 0.956 . S
H333 C320 0.961 . S
H334 C320 0.961 . S
H335 C321 0.958 1_455 S
H336 C321 0.961 . S
H337 C321 0.960 . S
C338 C339 1.391 . S
C338 C340 1.394 . S
C338 H354 0.931 . S
C339 C338 1.391 . S
C339 C343 1.376 . S
C340 C338 1.394 . S
C340 C341 1.369 . S
C340 C344 1.531 . S
C341 C340 1.369 . S
C341 C342 1.410 . S
C341 C349 1.503 . S
C342 C341 1.410 . S
C342 C343 1.392 . S
C342 C345 1.511 . S
C343 C339 1.376 . S
C343 C342 1.392 . S
C343 H355 0.929 . S
C344 C340 1.531 . S
C344 H356 0.960 1_565 S
C344 H357 0.962 . S
C344 H358 0.960 . S
C345 C342 1.511 . S
C345 H359 0.961 . S
C345 H360 0.961 . S
C345 H361 0.961 1_565 S
C346 C347 1.370 . S
C346 C348 1.363 . S
C346 H362 0.931 . S
C347 C346 1.370 . S
C347 C351 1.408 1_565 S
C348 C346 1.363 . S
C348 C349 1.370 . S
C348 C352 1.524 . S
C349 C341 1.503 . S
C349 C348 1.370 . S
C349 C350 1.403 1_565 S
C350 C349 1.403 1_545 S
C350 C351 1.404 . S
C350 C353 1.539 . S
C351 C347 1.408 1_545 S
C351 C350 1.404 . S
C351 H363 0.930 . S
C352 C348 1.524 . S
C352 H364 0.956 . S
C352 H365 0.961 . S
C352 H366 0.961 . S
C353 C350 1.539 . S
C353 H367 0.958 . S
C353 H368 0.961 . S
C353 H369 0.960 . S
H354 C338 0.931 . S
H355 C343 0.929 . S
H356 C344 0.960 1_545 S
H357 C344 0.962 . S
H358 C344 0.960 . S
H359 C345 0.961 . S
H360 C345 0.961 . S
H361 C345 0.961 1_545 S
H362 C346 0.931 . S
H363 C351 0.930 . S
H364 C352 0.956 . S
H365 C352 0.961 . S
H366 C352 0.961 . S
H367 C353 0.958 . S
H368 C353 0.961 . S
H369 C353 0.960 . S
C370 C371 1.391 . S
C370 C372 1.394 . S
C370 H386 0.931 . S
C371 C370 1.391 . S
C371 C375 1.376 . S
C372 C370 1.394 . S
C372 C373 1.369 . S
C372 C376 1.531 . S
C373 C372 1.369 . S
C373 C374 1.410 . S
C373 C381 1.503 . S
C374 C373 1.410 . S
C374 C375 1.392 . S
C374 C377 1.511 . S
C375 C371 1.376 . S
C375 C374 1.392 . S
C375 H387 0.929 . S
C376 C372 1.531 . S
C376 H388 0.960 . S
C376 H389 0.962 . S
C376 H390 0.960 . S
C377 C374 1.511 . S
C377 H391 0.961 . S
C377 H392 0.961 . S
C377 H393 0.961 . S
C378 C379 1.370 . S
C378 C380 1.363 . S
C378 H394 0.931 . S
C379 C378 1.370 . S
C379 C383 1.408 . S
C380 C378 1.363 . S
C380 C381 1.370 . S
C380 C384 1.524 . S
C381 C373 1.503 . S
C381 C380 1.370 . S
C381 C382 1.403 . S
C382 C381 1.403 . S
C382 C383 1.404 . S
C382 C385 1.539 . S
C383 C379 1.408 . S
C383 C382 1.404 . S
C383 H395 0.930 . S
C384 C380 1.524 . S
C384 H396 0.956 . S
C384 H397 0.961 . S
C384 H398 0.961 . S
C385 C382 1.539 . S
C385 H399 0.958 . S
C385 H400 0.961 . S
C385 H401 0.960 . S
H386 C370 0.931 . S
H387 C375 0.929 . S
H388 C376 0.960 . S
H389 C376 0.962 . S
H390 C376 0.960 . S
H391 C377 0.961 . S
H392 C377 0.961 . S
H393 C377 0.961 . S
H394 C378 0.931 . S
H395 C383 0.930 . S
H396 C384 0.956 . S
H397 C384 0.961 . S
H398 C384 0.961 . S
H399 C385 0.958 . S
H400 C385 0.961 . S
H401 C385 0.960 . S
C402 C403 1.391 . S
C402 C404 1.394 . S
C402 H418 0.931 . S
C403 C402 1.391 . S
C403 C407 1.376 . S
C404 C402 1.394 . S
C404 C405 1.369 . S
C404 C408 1.531 . S
C405 C404 1.369 . S
C405 C406 1.410 1_455 S
C405 C413 1.503 . S
C406 C405 1.410 1_655 S
C406 C407 1.392 1_655 S
C406 C409 1.511 . S
C407 C403 1.376 . S
C407 C406 1.392 1_455 S
C407 H419 0.929 1_455 S
C408 C404 1.531 . S
C408 H420 0.960 . S
C408 H421 0.962 . S
C408 H422 0.960 . S
C409 C406 1.511 . S
C409 H423 0.961 . S
C409 H424 0.961 . S
C409 H425 0.961 . S
C410 C411 1.370 . S
C410 C412 1.363 . S
C410 H426 0.931 . S
C411 C410 1.370 . S
C411 C415 1.408 1_455 S
C412 C410 1.363 . S
C412 C413 1.370 . S
C412 C416 1.524 . S
C413 C405 1.503 . S
C413 C412 1.370 . S
C413 C414 1.403 . S
C414 C413 1.403 . S
C414 C415 1.404 1_455 S
C414 C417 1.539 1_455 S
C415 C411 1.408 1_655 S
C415 C414 1.404 1_655 S
C415 H427 0.930 . S
C416 C412 1.524 . S
C416 H428 0.956 . S
C416 H429 0.961 . S
C416 H430 0.961 . S
C417 C414 1.539 1_655 S
C417 H431 0.958 1_655 S
C417 H432 0.961 . S
C417 H433 0.960 . S
H418 C402 0.931 . S
H419 C407 0.929 1_655 S
H420 C408 0.960 . S
H421 C408 0.962 . S
H422 C408 0.960 . S
H423 C409 0.961 . S
H424 C409 0.961 . S
H425 C409 0.961 . S
H426 C410 0.931 . S
H427 C415 0.930 . S
H428 C416 0.956 . S
H429 C416 0.961 . S
H430 C416 0.961 . S
H431 C417 0.958 1_455 S
H432 C417 0.961 . S
H433 C417 0.960 . S
C434 C435 1.391 . S
C434 C436 1.394 . S
C434 H450 0.931 . S
C435 C434 1.391 . S
C435 C439 1.376 . S
C436 C434 1.394 . S
C436 C437 1.369 . S
C436 C440 1.531 1_545 S
C437 C436 1.369 . S
C437 C438 1.410 . S
C437 C445 1.503 . S
C438 C437 1.410 . S
C438 C439 1.392 . S
C438 C441 1.511 . S
C439 C435 1.376 . S
C439 C438 1.392 . S
C439 H451 0.929 . S
C440 C436 1.531 1_565 S
C440 H452 0.960 . S
C440 H453 0.962 1_565 S
C440 H454 0.960 . S
C441 C438 1.511 . S
C441 H455 0.961 . S
C441 H456 0.961 . S
C441 H457 0.961 . S
C442 C443 1.370 . S
C442 C444 1.363 . S
C442 H458 0.931 . S
C443 C442 1.370 . S
C443 C447 1.408 1_545 S
C444 C442 1.363 . S
C444 C445 1.370 . S
C444 C448 1.524 . S
C445 C437 1.503 . S
C445 C444 1.370 . S
C445 C446 1.403 1_545 S
C446 C445 1.403 1_565 S
C446 C447 1.404 . S
C446 C449 1.539 . S
C447 C443 1.408 1_565 S
C447 C446 1.404 . S
C447 H459 0.930 . S
C448 C444 1.524 . S
C448 H460 0.956 . S
C448 H461 0.961 . S
C448 H462 0.961 . S
C449 C446 1.539 . S
C449 H463 0.958 . S
C449 H464 0.961 . S
C449 H465 0.960 . S
H450 C434 0.931 . S
H451 C439 0.929 . S
H452 C440 0.960 . S
H453 C440 0.962 1_545 S
H454 C440 0.960 . S
H455 C441 0.961 . S
H456 C441 0.961 . S
H457 C441 0.961 . S
H458 C442 0.931 . S
H459 C447 0.930 . S
H460 C448 0.956 . S
H461 C448 0.961 . S
H462 C448 0.961 . S
H463 C449 0.958 . S
H464 C449 0.961 . S
H465 C449 0.960 . S
C466 C467 1.391 . S
C466 C468 1.394 . S
C466 H482 0.931 . S
C467 C466 1.391 . S
C467 C471 1.376 . S
C468 C466 1.394 . S
C468 C469 1.369 . S
C468 C472 1.531 . S
C469 C468 1.369 . S
C469 C470 1.410 . S
C469 C477 1.503 . S
C470 C469 1.410 . S
C470 C471 1.392 . S
C470 C473 1.511 . S
C471 C467 1.376 . S
C471 C470 1.392 . S
C471 H483 0.929 . S
C472 C468 1.531 . S
C472 H484 0.960 . S
C472 H485 0.962 . S
C472 H486 0.960 . S
C473 C470 1.511 . S
C473 H487 0.961 . S
C473 H488 0.961 . S
C473 H489 0.961 . S
C474 C475 1.370 . S
C474 C476 1.363 . S
C474 H490 0.931 . S
C475 C474 1.370 . S
C475 C479 1.408 . S
C476 C474 1.363 . S
C476 C477 1.370 . S
C476 C480 1.524 . S
C477 C469 1.503 . S
C477 C476 1.370 . S
C477 C478 1.403 . S
C478 C477 1.403 . S
C478 C479 1.404 . S
C478 C481 1.539 . S
C479 C475 1.408 . S
C479 C478 1.404 . S
C479 H491 0.930 . S
C480 C476 1.524 . S
C480 H492 0.956 . S
C480 H493 0.961 . S
C480 H494 0.961 . S
C481 C478 1.539 . S
C481 H495 0.958 . S
C481 H496 0.961 . S
C481 H497 0.960 . S
H482 C466 0.931 . S
H483 C471 0.929 . S
H484 C472 0.960 . S
H485 C472 0.962 . S
H486 C472 0.960 . S
H487 C473 0.961 . S
H488 C473 0.961 . S
H489 C473 0.961 . S
H490 C474 0.931 . S
H491 C479 0.930 . S
H492 C480 0.956 . S
H493 C480 0.961 . S
H494 C480 0.961 . S
H495 C481 0.958 . S
H496 C481 0.961 . S
H497 C481 0.960 . S
C498 C499 1.391 . S
C498 C500 1.394 . S
C498 H514 0.931 . S
C499 C498 1.391 . S
C499 C503 1.376 . S
C500 C498 1.394 . S
C500 C501 1.369 . S
C500 C504 1.531 . S
C501 C500 1.369 . S
C501 C502 1.410 . S
C501 C509 1.503 . S
C502 C501 1.410 . S
C502 C503 1.392 . S
C502 C505 1.511 . S
C503 C499 1.376 . S
C503 C502 1.392 . S
C503 H515 0.929 . S
C504 C500 1.531 . S
C504 H516 0.960 . S
C504 H517 0.962 1_545 S
C504 H518 0.960 . S
C505 C502 1.511 . S
C505 H519 0.961 . S
C505 H520 0.961 . S
C505 H521 0.961 . S
C506 C507 1.370 1_565 S
C506 C508 1.363 . S
C506 H522 0.931 . S
C507 C506 1.370 1_545 S
C507 C511 1.408 . S
C508 C506 1.363 . S
C508 C509 1.370 1_565 S
C508 C512 1.524 . S
C509 C501 1.503 . S
C509 C508 1.370 1_545 S
C509 C510 1.403 . S
C510 C509 1.403 . S
C510 C511 1.404 . S
C510 C513 1.539 . S
C511 C507 1.408 . S
C511 C510 1.404 . S
C511 H523 0.930 . S
C512 C508 1.524 . S
C512 H524 0.956 . S
C512 H525 0.961 . S
C512 H526 0.961 . S
C513 C510 1.539 . S
C513 H527 0.958 . S
C513 H528 0.961 . S
C513 H529 0.960 . S
H514 C498 0.931 . S
H515 C503 0.929 . S
H516 C504 0.960 . S
H517 C504 0.962 1_565 S
H518 C504 0.960 . S
H519 C505 0.961 . S
H520 C505 0.961 . S
H521 C505 0.961 . S
H522 C506 0.931 . S
H523 C511 0.930 . S
H524 C512 0.956 . S
H525 C512 0.961 . S
H526 C512 0.961 . S
H527 C513 0.958 . S
H528 C513 0.961 . S
H529 C513 0.960 . S
C530 C531 1.391 . S
C530 C532 1.394 1_554 S
C530 H546 0.931 . S
C531 C530 1.391 . S
C531 C535 1.378 . S
C532 C530 1.394 1_556 S
C532 C533 1.369 . S
C532 C536 1.531 . S
C533 C532 1.369 . S
C533 C534 1.410 . S
C533 C541 1.503 . S
C534 C533 1.410 . S
C534 C535 1.390 1_556 S
C534 C537 1.511 . S
C535 C531 1.378 . S
C535 C534 1.390 1_554 S
C535 H547 0.929 . S
C536 C532 1.531 . S
C536 H548 0.960 . S
C536 H549 0.962 1_556 S
C536 H550 0.959 . S
C537 C534 1.511 . S
C537 H551 0.961 . S
C537 H552 0.961 . S
C537 H553 0.961 . S
C538 C539 1.370 . S
C538 C540 1.363 . S
C538 H554 0.931 . S
C539 C538 1.370 . S
C539 C543 1.408 . S
C540 C538 1.363 . S
C540 C541 1.370 . S
C540 C544 1.524 . S
C541 C533 1.503 . S
C541 C540 1.370 . S
C541 C542 1.403 . S
C542 C541 1.403 . S
C542 C543 1.404 . S
C542 C545 1.539 . S
C543 C539 1.408 . S
C543 C542 1.404 . S
C543 H555 0.930 . S
C544 C540 1.524 . S
C544 H556 0.956 1_556 S
C544 H557 0.962 . S
C544 H558 0.961 . S
C545 C542 1.539 . S
C545 H559 0.958 . S
C545 H560 0.961 . S
C545 H561 0.960 . S
H546 C530 0.931 . S
H547 C535 0.929 . S
H548 C536 0.960 . S
H549 C536 0.962 1_554 S
H550 C536 0.959 . S
H551 C537 0.961 . S
H552 C537 0.961 . S
H553 C537 0.961 . S
H554 C538 0.931 . S
H555 C543 0.930 . S
H556 C544 0.956 1_554 S
H557 C544 0.962 . S
H558 C544 0.961 . S
H559 C545 0.958 . S
H560 C545 0.961 . S
H561 C545 0.960 . S
C562 C563 1.391 . S
C562 C564 1.394 . S
C562 H578 0.931 . S
C563 C562 1.391 . S
C563 C567 1.376 . S
C564 C562 1.394 . S
C564 C565 1.369 . S
C564 C568 1.531 1_655 S
C565 C564 1.369 . S
C565 C566 1.410 . S
C565 C573 1.503 . S
C566 C565 1.410 . S
C566 C567 1.392 . S
C566 C569 1.511 . S
C567 C563 1.376 . S
C567 C566 1.392 . S
C567 H579 0.929 . S
C568 C564 1.531 1_455 S
C568 H580 0.960 . S
C568 H581 0.962 . S
C568 H582 0.960 . S
C569 C566 1.511 . S
C569 H583 0.961 . S
C569 H584 0.961 . S
C569 H585 0.961 . S
C570 C571 1.370 1_455 S
C570 C572 1.363 . S
C570 H586 0.931 . S
C571 C570 1.370 1_655 S
C571 C575 1.408 . S
C572 C570 1.363 . S
C572 C573 1.370 1_455 S
C572 C576 1.524 . S
C573 C565 1.503 . S
C573 C572 1.370 1_655 S
C573 C574 1.403 . S
C574 C573 1.403 . S
C574 C575 1.404 . S
C574 C577 1.539 . S
C575 C571 1.408 . S
C575 C574 1.404 . S
C575 H587 0.930 . S
C576 C572 1.524 . S
C576 H588 0.956 . S
C576 H589 0.961 . S
C576 H590 0.961 . S
C577 C574 1.539 . S
C577 H591 0.958 . S
C577 H592 0.961 . S
C577 H593 0.960 . S
H578 C562 0.931 . S
H579 C567 0.929 . S
H580 C568 0.960 . S
H581 C568 0.962 . S
H582 C568 0.960 . S
H583 C569 0.961 . S
H584 C569 0.961 . S
H585 C569 0.961 . S
H586 C570 0.931 . S
H587 C575 0.930 . S
H588 C576 0.956 . S
H589 C576 0.961 . S
H590 C576 0.961 . S
H591 C577 0.958 . S
H592 C577 0.961 . S
H593 C577 0.960 . S
C594 C595 1.391 . S
C594 C596 1.394 . S
C594 H610 0.931 1_565 S
C595 C594 1.391 . S
C595 C599 1.376 . S
C596 C594 1.394 . S
C596 C597 1.369 . S
C596 C600 1.531 1_565 S
C597 C596 1.369 . S
C597 C598 1.410 . S
C597 C605 1.503 . S
C598 C597 1.410 . S
C598 C599 1.392 . S
C598 C601 1.511 . S
C599 C595 1.376 . S
C599 C598 1.392 . S
C599 H611 0.929 . S
C600 C596 1.531 1_545 S
C600 H612 0.960 . S
C600 H613 0.962 . S
C600 H614 0.960 . S
C601 C598 1.511 . S
C601 H615 0.961 . S
C601 H616 0.961 . S
C601 H617 0.961 . S
C602 C603 1.370 1_545 S
C602 C604 1.363 . S
C602 H618 0.931 . S
C603 C602 1.370 1_565 S
C603 C607 1.408 . S
C604 C602 1.363 . S
C604 C605 1.370 1_545 S
C604 C608 1.524 . S
C605 C597 1.503 . S
C605 C604 1.370 1_565 S
C605 C606 1.403 . S
C606 C605 1.403 . S
C606 C607 1.404 . S
C606 C609 1.539 . S
C607 C603 1.408 . S
C607 C606 1.404 . S
C607 H619 0.930 . S
C608 C604 1.524 . S
C608 H620 0.956 . S
C608 H621 0.961 . S
C608 H622 0.961 . S
C609 C606 1.539 . S
C609 H623 0.958 . S
C609 H624 0.961 . S
C609 H625 0.960 . S
H610 C594 0.931 1_545 S
H611 C599 0.929 . S
H612 C600 0.960 . S
H613 C600 0.962 . S
H614 C600 0.960 . S
H615 C601 0.961 . S
H616 C601 0.961 . S
H617 C601 0.961 . S
H618 C602 0.931 . S
H619 C607 0.930 . S
H620 C608 0.956 . S
H621 C608 0.961 . S
H622 C608 0.961 . S
H623 C609 0.958 . S
H624 C609 0.961 . S
H625 C609 0.960 . S
C626 C627 1.391 1_556 S
C626 C628 1.394 . S
C626 H642 0.931 . S
C627 C626 1.391 1_554 S
C627 C631 1.376 . S
C628 C626 1.394 . S
C628 C629 1.369 . S
C628 C632 1.531 . S
C629 C628 1.369 . S
C629 C630 1.410 1_556 S
C629 C637 1.503 . S
C630 C629 1.410 1_554 S
C630 C631 1.392 . S
C630 C633 1.511 . S
C631 C627 1.376 . S
C631 C630 1.392 . S
C631 H643 0.929 . S
C632 C628 1.531 . S
C632 H644 0.960 . S
C632 H645 0.962 . S
C632 H646 0.960 . S
C633 C630 1.511 . S
C633 H647 0.961 . S
C633 H648 0.961 . S
C633 H649 0.961 . S
C634 C635 1.370 . S
C634 C636 1.363 . S
C634 H650 0.931 . S
C635 C634 1.370 . S
C635 C639 1.408 . S
C636 C634 1.363 . S
C636 C637 1.370 . S
C636 C640 1.524 . S
C637 C629 1.503 . S
C637 C636 1.370 . S
C637 C638 1.403 . S
C638 C637 1.403 . S
C638 C639 1.404 . S
C638 C641 1.539 . S
C639 C635 1.408 . S
C639 C638 1.404 . S
C639 H651 0.930 . S
C640 C636 1.524 . S
C640 H652 0.956 . S
C640 H653 0.961 . S
C640 H654 0.961 . S
C641 C638 1.539 . S
C641 H655 0.958 . S
C641 H656 0.961 . S
C641 H657 0.960 1_556 S
H642 C626 0.931 . S
H643 C631 0.929 . S
H644 C632 0.960 . S
H645 C632 0.962 . S
H646 C632 0.960 . S
H647 C633 0.961 . S
H648 C633 0.961 . S
H649 C633 0.961 . S
H650 C634 0.931 . S
H651 C639 0.930 . S
H652 C640 0.956 . S
H653 C640 0.961 . S
H654 C640 0.961 . S
H655 C641 0.958 . S
H656 C641 0.961 . S
H657 C641 0.960 1_554 S
C658 C659 1.391 . S
C658 C660 1.394 1_455 S
C658 H674 0.931 1_455 S
C659 C658 1.391 . S
C659 C663 1.376 . S
C660 C658 1.394 1_655 S
C660 C661 1.369 1_655 S
C660 C664 1.531 . S
C661 C660 1.369 1_455 S
C661 C662 1.410 . S
C661 C669 1.503 . S
C662 C661 1.410 . S
C662 C663 1.392 . S
C662 C665 1.511 . S
C663 C659 1.376 . S
C663 C662 1.392 . S
C663 H675 0.929 . S
C664 C660 1.531 . S
C664 H676 0.960 . S
C664 H677 0.962 . S
C664 H678 0.960 . S
C665 C662 1.511 . S
C665 H679 0.961 . S
C665 H680 0.961 . S
C665 H681 0.961 . S
C666 C667 1.370 . S
C666 C668 1.363 . S
C666 H682 0.931 . S
C667 C666 1.370 . S
C667 C671 1.408 . S
C668 C666 1.363 . S
C668 C669 1.370 . S
C668 C672 1.524 . S
C669 C661 1.503 . S
C669 C668 1.370 . S
C669 C670 1.403 . S
C670 C669 1.403 . S
C670 C671 1.404 . S
C670 C673 1.539 . S
C671 C667 1.408 . S
C671 C670 1.404 . S
C671 H683 0.930 . S
C672 C668 1.524 . S
C672 H684 0.956 1_455 S
C672 H685 0.961 . S
C672 H686 0.961 . S
C673 C670 1.539 . S
C673 H687 0.958 1_455 S
C673 H688 0.961 . S
C673 H689 0.960 . S
H674 C658 0.931 1_655 S
H675 C663 0.929 . S
H676 C664 0.960 . S
H677 C664 0.962 . S
H678 C664 0.960 . S
H679 C665 0.961 . S
H680 C665 0.961 . S
H681 C665 0.961 . S
H682 C666 0.931 . S
H683 C671 0.930 . S
H684 C672 0.956 1_655 S
H685 C672 0.961 . S
H686 C672 0.961 . S
H687 C673 0.958 1_655 S
H688 C673 0.961 . S
H689 C673 0.960 . S
C315 C265 1.454 . S
C307 C29 1.436 . S
C339 C137 1.415 . S
C347 C291 1.463 . S
C371 C225 1.449 . S
C379 C293 1.459 . S
C403 C49 1.425 . S
C411 C277 1.462 . S
C443 C279 1.463 . S
C435 C117 1.415 . S
C467 C205 1.459 . S
C475 C305 1.451 . S
C507 C278 1.453 1_545 S
C499 C233 1.462 . S
C531 C57 1.446 . S
C539 C304 1.461 . S
C571 C264 1.450 1_655 S
C563 C108 1.459 . S
C603 C290 1.455 1_565 S
C595 C196 1.452 . S
C635 C292 1.460 . S
C627 C20 1.418 . S
C659 C145 1.442 . S
C667 C276 1.452 1_455 S
