# Generated by pormake.
# Topology pyr, (3,6)-cn, num edge types: 1
# Building blocks:
#     Node 0, Type 0, BuildingBlock: WUSLED_clean_sbu_0, # of connection points: 3
#     Node 1, Type 0, BuildingBlock: WUSLED_clean_sbu_0, # of connection points: 3
#     Node 2, Type 0, BuildingBlock: WUSLED_clean_sbu_0, # of connection points: 3
#     Node 3, Type 0, BuildingBlock: WUSLED_clean_sbu_0, # of connection points: 3
#     Node 4, Type 0, BuildingBlock: WUSLED_clean_sbu_0, # of connection points: 3
#     Node 5, Type 0, BuildingBlock: WUSLED_clean_sbu_0, # of connection points: 3
#     Node 6, Type 0, BuildingBlock: WUSLED_clean_sbu_0, # of connection points: 3
#     Node 7, Type 0, BuildingBlock: WUSLED_clean_sbu_0, # of connection points: 3
#     Node 8, Type 1, BuildingBlock: MIDCAF_clean_sbu_0, # of connection points: 6
#     Node 9, Type 1, BuildingBlock: MIDCAF_clean_sbu_0, # of connection points: 6
#     Node 10, Type 1, BuildingBlock: MIDCAF_clean_sbu_0, # of connection points: 6
#     Node 11, Type 1, BuildingBlock: MIDCAF_clean_sbu_0, # of connection points: 6
#     Edge 12, Type (0, 1), BuildingBlock: TEMPAE_clean_linker_10, # of connection points: 2
#     Edge 13, Type (0, 1), BuildingBlock: TEMPAE_clean_linker_10, # of connection points: 2
#     Edge 14, Type (0, 1), BuildingBlock: TEMPAE_clean_linker_10, # of connection points: 2
#     Edge 15, Type (0, 1), BuildingBlock: TEMPAE_clean_linker_10, # of connection points: 2
#     Edge 16, Type (0, 1), BuildingBlock: TEMPAE_clean_linker_10, # of connection points: 2
#     Edge 17, Type (0, 1), BuildingBlock: TEMPAE_clean_linker_10, # of connection points: 2
#     Edge 18, Type (0, 1), BuildingBlock: TEMPAE_clean_linker_10, # of connection points: 2
#     Edge 19, Type (0, 1), BuildingBlock: TEMPAE_clean_linker_10, # of connection points: 2
#     Edge 20, Type (0, 1), BuildingBlock: TEMPAE_clean_linker_10, # of connection points: 2
#     Edge 21, Type (0, 1), BuildingBlock: TEMPAE_clean_linker_10, # of connection points: 2
#     Edge 22, Type (0, 1), BuildingBlock: TEMPAE_clean_linker_10, # of connection points: 2
#     Edge 23, Type (0, 1), BuildingBlock: TEMPAE_clean_linker_10, # of connection points: 2
#     Edge 24, Type (0, 1), BuildingBlock: TEMPAE_clean_linker_10, # of connection points: 2
#     Edge 25, Type (0, 1), BuildingBlock: TEMPAE_clean_linker_10, # of connection points: 2
#     Edge 26, Type (0, 1), BuildingBlock: TEMPAE_clean_linker_10, # of connection points: 2
#     Edge 27, Type (0, 1), BuildingBlock: TEMPAE_clean_linker_10, # of connection points: 2
#     Edge 28, Type (0, 1), BuildingBlock: TEMPAE_clean_linker_10, # of connection points: 2
#     Edge 29, Type (0, 1), BuildingBlock: TEMPAE_clean_linker_10, # of connection points: 2
#     Edge 30, Type (0, 1), BuildingBlock: TEMPAE_clean_linker_10, # of connection points: 2
#     Edge 31, Type (0, 1), BuildingBlock: TEMPAE_clean_linker_10, # of connection points: 2
#     Edge 32, Type (0, 1), BuildingBlock: TEMPAE_clean_linker_10, # of connection points: 2
#     Edge 33, Type (0, 1), BuildingBlock: TEMPAE_clean_linker_10, # of connection points: 2
#     Edge 34, Type (0, 1), BuildingBlock: TEMPAE_clean_linker_10, # of connection points: 2
#     Edge 35, Type (0, 1), BuildingBlock: TEMPAE_clean_linker_10, # of connection points: 2
# Relax obj value: 0.020
# Max RMSD: 0.063
# Mean RMSD: 0.028
data_MOF--net-pry--node1-WUSLED_clean_sbu_0--node2-MIDCAF_clean_sbu_0--edge1-TEMPAE_clean_linker_10
_symmetry_space_group_name_H-M    P1
_symmetry_Int_Tables_number       1
_symmetry_cell_setting            triclinic
loop_
_symmetry_equiv_pos_as_xyz
'x, y, z'
_cell_length_a     46.844781
_cell_length_b     46.995054
_cell_length_c     46.938536
_cell_angle_alpha  89.563625
_cell_angle_beta   90.335824
_cell_angle_gamma 90.674695
loop_
_atom_site_label
_atom_site_type_symbol
_atom_site_fract_x
_atom_site_fract_y
_atom_site_fract_z
_atom_type_partial_charge
C0 C 0.21384 0.29726 0.17923 0.0
C1 C 0.18387 0.2963 0.17781 0.0
C2 C 0.18309 0.34397 0.15672 0.0
C3 C 0.16869 0.31936 0.1666 0.0
C4 C 0.21303 0.34518 0.15898 0.0
C5 C 0.22823 0.32201 0.17001 0.0
U6 U 0.22837 0.23284 0.22873 0.0
O7 O 0.24183 0.18969 0.21762 0.0
O8 O 0.26949 0.2163 0.24456 0.0
C9 C 0.26669 0.19232 0.23052 0.0
C10 C 0.23056 0.2723 0.18869 0.0
C11 C 0.29172 0.18318 0.21408 0.0
C12 C 0.31887 0.18149 0.17005 0.0
C13 C 0.29599 0.19207 0.18578 0.0
C14 C 0.33385 0.15357 0.21092 0.0
C15 C 0.33793 0.16181 0.18232 0.0
C16 C 0.31099 0.16413 0.22658 0.0
C17 C 0.17635 0.21674 0.29104 0.0
C18 C 0.18389 0.18851 0.33418 0.0
C19 C 0.13582 0.19899 0.31844 0.0
C20 C 0.14679 0.21426 0.29517 0.0
C21 C 0.15419 0.18586 0.33825 0.0
C22 C 0.19487 0.20372 0.31074 0.0
C23 C 0.18697 0.23352 0.2664 0.0
O24 O 0.24411 0.27463 0.21318 0.0
O25 O 0.21841 0.24719 0.18517 0.0
O26 O 0.18442 0.2214 0.24136 0.0
O27 O 0.21136 0.24728 0.26972 0.0
H28 H 0.17217 0.27757 0.18495 0.0
H29 H 0.14561 0.3179 0.16557 0.0
H30 H 0.22478 0.36371 0.15143 0.0
H31 H 0.25133 0.32322 0.17081 0.0
H32 H 0.32112 0.18809 0.14802 0.0
H33 H 0.28133 0.20674 0.1757 0.0
H34 H 0.34829 0.13885 0.22123 0.0
H35 H 0.30811 0.15706 0.24841 0.0
H36 H 0.19862 0.17839 0.34883 0.0
H37 H 0.11289 0.19767 0.32105 0.0
H38 H 0.1321 0.22425 0.28036 0.0
H39 H 0.21778 0.20525 0.308 0.0
C40 C 0.26332 0.8368 0.68253 0.0
C41 C 0.24662 0.85087 0.70272 0.0
C42 C 0.21899 0.87341 0.6646 0.0
C43 C 0.22456 0.86895 0.69382 0.0
C44 C 0.23595 0.85932 0.64461 0.0
C45 C 0.25781 0.84127 0.65348 0.0
U46 U 0.32491 0.80966 0.73083 0.0
O47 O 0.336 0.7653 0.74159 0.0
O48 O 0.36627 0.79243 0.71803 0.0
C49 C 0.36026 0.76673 0.7277 0.0
C50 C 0.28613 0.81683 0.69075 0.0
C51 C 0.36637 0.74289 0.70835 0.0
C52 C 0.37255 0.72372 0.66073 0.0
C53 C 0.36392 0.74575 0.67861 0.0
C54 C 0.385 0.69522 0.70204 0.0
C55 C 0.38365 0.69833 0.67222 0.0
C56 C 0.37651 0.71728 0.71987 0.0
C57 C 0.34695 0.85111 0.79872 0.0
C58 C 0.39345 0.85542 0.82194 0.0
C59 C 0.35104 0.87071 0.84645 0.0
C60 C 0.3343 0.86248 0.82306 0.0
C61 C 0.38091 0.86785 0.84598 0.0
C62 C 0.37664 0.84707 0.79856 0.0
C63 C 0.32902 0.8458 0.77321 0.0
O64 O 0.31242 0.82668 0.68876 0.0
O65 O 0.28185 0.80111 0.71366 0.0
O66 O 0.3123 0.82314 0.77391 0.0
O67 O 0.34133 0.84988 0.74839 0.0
H68 H 0.25055 0.8478 0.72529 0.0
H69 H 0.21204 0.8796 0.70976 0.0
H70 H 0.23199 0.8618 0.62197 0.0
H71 H 0.2703 0.83053 0.63755 0.0
H72 H 0.37093 0.72671 0.63788 0.0
H73 H 0.35598 0.76524 0.66918 0.0
H74 H 0.39375 0.67617 0.71165 0.0
H75 H 0.37864 0.71463 0.74273 0.0
H76 H 0.41634 0.85261 0.82099 0.0
H77 H 0.34066 0.88052 0.86437 0.0
H78 H 0.31147 0.86589 0.82361 0.0
H79 H 0.38693 0.83818 0.78009 0.0
C80 C 0.68148 0.32829 0.75214 0.0
C81 C 0.7001 0.34075 0.73211 0.0
C82 C 0.65958 0.35892 0.7048 0.0
C83 C 0.68923 0.35581 0.70858 0.0
C84 C 0.6411 0.34622 0.72483 0.0
C85 C 0.65194 0.33104 0.74817 0.0
U86 U 0.73381 0.31675 0.81491 0.0
O87 O 0.72425 0.30516 0.85944 0.0
O88 O 0.75027 0.27693 0.83344 0.0
C89 C 0.7371 0.28053 0.85781 0.0
C90 C 0.69204 0.31252 0.77742 0.0
C91 C 0.72114 0.25582 0.86957 0.0
C92 C 0.69182 0.213 0.86411 0.0
C93 C 0.70689 0.23606 0.85204 0.0
C94 C 0.70503 0.22921 0.91127 0.0
C95 C 0.69052 0.20944 0.89391 0.0
C96 C 0.72018 0.25208 0.89921 0.0
C97 C 0.79603 0.37033 0.82666 0.0
C98 C 0.83974 0.36454 0.85443 0.0
C99 C 0.82205 0.41177 0.84434 0.0
C100 C 0.7991 0.39993 0.82917 0.0
C101 C 0.8426 0.39425 0.85729 0.0
C102 C 0.81659 0.35266 0.83936 0.0
C103 C 0.7712 0.35877 0.81072 0.0
O104 O 0.71649 0.29929 0.77488 0.0
O105 O 0.68952 0.32562 0.80189 0.0
O106 O 0.74635 0.36126 0.82322 0.0
O107 O 0.77434 0.33407 0.79818 0.0
H108 H 0.723 0.33907 0.73476 0.0
H109 H 0.70404 0.36561 0.69372 0.0
H110 H 0.61817 0.34795 0.72243 0.0
H111 H 0.63718 0.32153 0.76328 0.0
H112 H 0.68062 0.19834 0.85016 0.0
H113 H 0.70721 0.23856 0.82908 0.0
H114 H 0.70473 0.22696 0.93425 0.0
H115 H 0.7311 0.26699 0.91313 0.0
H116 H 0.85504 0.35046 0.86441 0.0
H117 H 0.82375 0.43471 0.84587 0.0
H118 H 0.78358 0.41397 0.81945 0.0
H119 H 0.81467 0.32973 0.83785 0.0
C120 C 0.75697 0.68539 0.32235 0.0
C121 C 0.75895 0.68379 0.35221 0.0
C122 C 0.71161 0.66179 0.35465 0.0
C123 C 0.73656 0.672 0.36816 0.0
C124 C 0.70928 0.66428 0.32487 0.0
C125 C 0.73182 0.67585 0.30888 0.0
U126 U 0.81908 0.73728 0.30604 0.0
O127 O 0.86295 0.72847 0.29284 0.0
O128 O 0.83489 0.75297 0.26448 0.0
C129 C 0.85948 0.74004 0.26748 0.0
C130 C 0.78127 0.69554 0.30488 0.0
C131 C 0.86888 0.72284 0.24311 0.0
C132 C 0.87992 0.67713 0.22212 0.0
C133 C 0.86882 0.69297 0.24451 0.0
C134 C 0.8902 0.72065 0.19599 0.0
C135 C 0.89106 0.69079 0.19776 0.0
C136 C 0.87933 0.73652 0.21854 0.0
C137 C 0.83428 0.80038 0.35572 0.0
C138 C 0.87997 0.8248 0.36174 0.0
C139 C 0.83714 0.84514 0.38132 0.0
C140 C 0.82104 0.82227 0.37064 0.0
C141 C 0.86691 0.8465 0.3774 0.0
C142 C 0.86381 0.80202 0.35094 0.0
C143 C 0.8172 0.77545 0.3466 0.0
O144 O 0.77775 0.71971 0.29107 0.0
O145 O 0.80676 0.69323 0.31649 0.0
O146 O 0.82958 0.75064 0.34962 0.0
O147 O 0.80328 0.77809 0.32234 0.0
H148 H 0.77798 0.6912 0.36322 0.0
H149 H 0.7388 0.67076 0.39111 0.0
H150 H 0.6904 0.6565 0.31386 0.0
H151 H 0.72984 0.67684 0.28588 0.0
H152 H 0.87991 0.65413 0.22391 0.0
H153 H 0.86064 0.68186 0.26311 0.0
H154 H 0.89874 0.73176 0.17756 0.0
H155 H 0.87959 0.75954 0.21702 0.0
H156 H 0.90285 0.82488 0.35857 0.0
H157 H 0.82627 0.86165 0.39284 0.0
H158 H 0.79825 0.82145 0.37445 0.0
H159 H 0.87448 0.78537 0.33942 0.0
C160 C 0.88276 0.82398 0.93994 0.0
C161 C 0.90516 0.81108 0.92537 0.0
C162 C 0.90765 0.7737 0.96171 0.0
C163 C 0.91748 0.78618 0.93613 0.0
C164 C 0.88536 0.78695 0.97636 0.0
C165 C 0.87301 0.81183 0.96552 0.0
U166 U 0.87832 0.88445 0.88511 0.0
O167 O 0.84089 0.90299 0.86375 0.0
O168 O 0.86823 0.92972 0.89084 0.0
C169 C 0.84454 0.92794 0.87578 0.0
C170 C 0.86922 0.84986 0.92854 0.0
C171 C 0.81896 0.94004 0.88897 0.0
C172 C 0.78059 0.93772 0.92359 0.0
C173 C 0.80529 0.92625 0.91181 0.0
C174 C 0.7831 0.97708 0.89006 0.0
C175 C 0.76906 0.96322 0.91277 0.0
C176 C 0.80778 0.96556 0.87827 0.0
C177 C 0.93372 0.88764 0.82483 0.0
C178 C 0.93415 0.92374 0.78746 0.0
C179 C 0.96902 0.88609 0.78709 0.0
C180 C 0.95718 0.87471 0.81206 0.0
C181 C 0.95762 0.91072 0.77439 0.0
C182 C 0.9223 0.91229 0.81244 0.0
C183 C 0.92131 0.87486 0.85077 0.0
O184 O 0.88454 0.87339 0.93041 0.0
O185 O 0.85647 0.84704 0.90368 0.0
O186 O 0.89594 0.86303 0.84767 0.0
O187 O 0.92368 0.89006 0.87408 0.0
H188 H 0.91307 0.82023 0.90563 0.0
H189 H 0.9349 0.77683 0.92453 0.0
H190 H 0.8771 0.77782 0.99594 0.0
H191 H 0.8557 0.8215 0.97705 0.0
H192 H 0.77062 0.9267 0.94134 0.0
H193 H 0.81368 0.90657 0.92043 0.0
H194 H 0.77471 0.99656 0.88103 0.0
H195 H 0.81802 0.97648 0.8606 0.0
H196 H 0.92457 0.94248 0.77806 0.0
H197 H 0.98724 0.87571 0.77783 0.0
H198 H 0.96631 0.85568 0.82138 0.0
H199 H 0.9041 0.9225 0.82195 0.0
C200 C 0.61562 0.163 0.3239 0.0
C201 C 0.63328 0.1572 0.30058 0.0
C202 C 0.59237 0.13932 0.27336 0.0
C203 C 0.62177 0.14563 0.27559 0.0
C204 C 0.57481 0.14502 0.29683 0.0
C205 C 0.58631 0.15681 0.32176 0.0
U206 U 0.66948 0.16558 0.38575 0.0
O207 O 0.69222 0.202 0.40485 0.0
O208 O 0.66329 0.17588 0.43099 0.0
C209 C 0.67944 0.19891 0.42955 0.0
C210 C 0.62718 0.17591 0.35031 0.0
C211 C 0.66696 0.22493 0.44119 0.0
C212 C 0.63333 0.26379 0.43799 0.0
C213 C 0.64442 0.2386 0.42712 0.0
C214 C 0.66698 0.26177 0.47732 0.0
C215 C 0.6446 0.27581 0.46314 0.0
C216 C 0.67808 0.23658 0.46639 0.0
C217 C 0.72771 0.10903 0.39026 0.0
C218 C 0.7692 0.11256 0.4214 0.0
C219 C 0.76011 0.06923 0.39507 0.0
C220 C 0.73552 0.08127 0.38324 0.0
C221 C 0.77741 0.0848 0.41415 0.0
C222 C 0.74455 0.12454 0.40962 0.0
C223 C 0.70237 0.12166 0.37674 0.0
O224 O 0.62407 0.16073 0.37376 0.0
O225 O 0.65241 0.18834 0.34843 0.0
O226 O 0.70642 0.14671 0.36468 0.0
O227 O 0.67866 0.12 0.39152 0.0
H228 H 0.65598 0.16173 0.30153 0.0
H229 H 0.63592 0.14198 0.25787 0.0
H230 H 0.55219 0.14006 0.29612 0.0
H231 H 0.57227 0.16106 0.33944 0.0
H232 H 0.61579 0.27378 0.42678 0.0
H233 H 0.6355 0.22984 0.40767 0.0
H234 H 0.67631 0.27053 0.49656 0.0
H235 H 0.69554 0.22632 0.47749 0.0
H236 H 0.78217 0.12533 0.4357 0.0
H237 H 0.76553 0.04769 0.38931 0.0
H238 H 0.72269 0.06894 0.36841 0.0
H239 H 0.73884 0.14603 0.41531 0.0
C240 C 0.32458 0.60894 0.16045 0.0
C241 C 0.31079 0.6231 0.13796 0.0
C242 C 0.2737 0.58617 0.13674 0.0
C243 C 0.2856 0.61183 0.12622 0.0
C244 C 0.28788 0.57189 0.15905 0.0
C245 C 0.31307 0.58323 0.17081 0.0
U246 U 0.38398 0.66551 0.1645 0.0
O247 O 0.40239 0.68715 0.20181 0.0
O248 O 0.42966 0.66108 0.17494 0.0
C249 C 0.42757 0.6755 0.19874 0.0
C250 C 0.35059 0.62101 0.17364 0.0
C251 C 0.44068 0.66279 0.22476 0.0
C252 C 0.44507 0.66031 0.27651 0.0
C253 C 0.43212 0.67145 0.252 0.0
C254 C 0.47602 0.63202 0.24726 0.0
C255 C 0.46709 0.64034 0.27449 0.0
C256 C 0.46303 0.64316 0.2227 0.0
C257 C 0.38512 0.72761 0.10995 0.0
C258 C 0.41889 0.75311 0.07936 0.0
C259 C 0.38279 0.77919 0.10454 0.0
C260 C 0.37225 0.7537 0.1162 0.0
C261 C 0.40633 0.77925 0.08609 0.0
C262 C 0.4084 0.7276 0.09112 0.0
C263 C 0.3732 0.70065 0.12198 0.0
O264 O 0.37384 0.62009 0.15814 0.0
O265 O 0.34737 0.64558 0.18634 0.0
O266 O 0.361 0.70237 0.14705 0.0
O267 O 0.38864 0.67762 0.11931 0.0
H268 H 0.31944 0.64293 0.12961 0.0
H269 H 0.27551 0.62315 0.10875 0.0
H270 H 0.27921 0.55225 0.16781 0.0
H271 H 0.32342 0.57203 0.18821 0.0
H272 H 0.43797 0.66756 0.29711 0.0
H273 H 0.41545 0.687 0.25445 0.0
H274 H 0.49275 0.61652 0.24491 0.0
H275 H 0.47053 0.63638 0.20208 0.0
H276 H 0.43721 0.75242 0.06542 0.0
H277 H 0.37236 0.79888 0.10984 0.0
H278 H 0.3539 0.75445 0.13011 0.0
H279 H 0.41861 0.70789 0.08546 0.0
C280 C 0.13517 0.31755 0.63406 0.0
C281 C 0.15766 0.29809 0.63202 0.0
C282 C 0.12969 0.26902 0.59909 0.0
C283 C 0.15488 0.27401 0.61479 0.0
C284 C 0.10776 0.28916 0.6002 0.0
C285 C 0.11044 0.31309 0.6176 0.0
U286 U 0.17009 0.38516 0.66468 0.0
O287 O 0.15063 0.42406 0.68133 0.0
O288 O 0.17744 0.39757 0.70918 0.0
C289 C 0.16089 0.41988 0.70714 0.0
C290 C 0.13627 0.34149 0.65441 0.0
C291 C 0.14115 0.42402 0.73094 0.0
C292 C 0.10046 0.40973 0.76001 0.0
C293 C 0.11777 0.40571 0.73605 0.0
C294 C 0.12967 0.45043 0.77342 0.0
C295 C 0.10659 0.43189 0.77919 0.0
C296 C 0.14674 0.4465 0.74959 0.0
C297 C 0.23969 0.41454 0.63155 0.0
C298 C 0.28897 0.42682 0.64355 0.0
C299 C 0.26327 0.45531 0.60899 0.0
C300 C 0.23908 0.43792 0.61267 0.0
C301 C 0.2887 0.44953 0.62388 0.0
C302 C 0.2648 0.40949 0.64729 0.0
C303 C 0.21526 0.39414 0.63286 0.0
O304 O 0.15689 0.34101 0.67354 0.0
O305 O 0.13182 0.36701 0.64368 0.0
O306 O 0.18989 0.40415 0.62645 0.0
O307 O 0.21484 0.37632 0.6546 0.0
H308 H 0.17713 0.301 0.64427 0.0
H309 H 0.1722 0.25896 0.61423 0.0
H310 H 0.08794 0.28572 0.58867 0.0
H311 H 0.09278 0.32771 0.61886 0.0
H312 H 0.08281 0.39516 0.76392 0.0
H313 H 0.11321 0.38819 0.7218 0.0
H314 H 0.13461 0.46804 0.78744 0.0
H315 H 0.16461 0.46089 0.74591 0.0
H316 H 0.30819 0.42194 0.65547 0.0
H317 H 0.2625 0.47239 0.59339 0.0
H318 H 0.22022 0.44223 0.59997 0.0
H319 H 0.26616 0.39161 0.6619 0.0
Zn320 Zn 0.99399 0.05052 0.55273 0.0
Zn321 Zn 0.06092 0.99094 0.49675 0.0
Zn322 Zn 0.02697 0.02193 0.5259 0.0
C323 C 0.07447 0.04787 0.48313 0.0
C324 C 1.00619 0.97609 0.47887 0.0
O325 O 0.0253 1.00336 0.57002 0.0
O326 O 0.98442 0.02217 0.58266 0.0
C327 C 0.03971 0.08597 0.54487 0.0
O328 O 0.05685 0.05205 0.50371 0.0
O329 O 0.07932 0.02279 0.4751 0.0
O330 O 0.03142 0.96705 0.47774 0.0
O331 O 1.0005 0.99809 0.49403 0.0
O332 O 0.01962 0.08254 0.5624 0.0
O333 O 0.04464 0.06634 0.52651 0.0
O334 O 0.98369 0.01972 0.50489 0.0
O335 O 0.96479 0.05814 0.52344 0.0
C336 C 0.96362 0.03831 0.50557 0.0
O337 O 0.04972 0.99293 0.5566 0.0
O338 O 0.08179 0.97314 0.52877 0.0
C339 C 1.00409 1.00463 0.5874 0.0
C340 C 0.0715 0.97669 0.55325 0.0
Zn341 Zn 0.49394 0.05528 0.99244 0.0
Zn342 Zn 0.55621 0.99563 0.06182 0.0
Zn343 Zn 0.52476 0.02617 0.02728 0.0
C344 C 0.59254 0.01458 0.01858 0.0
C345 C 0.51386 0.9589 0.04185 0.0
O346 O 0.49956 0.05656 0.05378 0.0
O347 O 0.46929 0.07283 0.02144 0.0
C348 C 0.55006 0.07007 0.97963 0.0
O349 O 0.56955 0.0276 0.01095 0.0
O350 O 0.59247 0.99887 0.04052 0.0
O351 O 0.53447 0.95954 0.05927 0.0
O352 O 0.50765 0.98138 0.02715 0.0
O353 O 0.52494 0.07812 0.97437 0.0
O354 O 0.55422 0.0495 0.99754 0.0
O355 O 0.4957 0.99588 1.00386 0.0
O356 O 0.47673 0.02355 0.97071 0.0
C357 C 0.47985 0.99908 0.98145 0.0
O358 O 0.52231 0.04558 0.07065 0.0
O359 O 0.55166 0.01887 0.09632 0.0
C360 C 0.47716 0.07107 0.04715 0.0
C361 C 0.53527 0.03991 0.09437 0.0
Zn362 Zn 0.56593 0.55448 0.54996 0.0
Zn363 Zn 0.49963 0.48996 0.48528 0.0
Zn364 Zn 0.53205 0.52208 0.51766 0.0
C365 C 0.54131 0.45427 0.50702 0.0
C366 C 0.52103 0.53217 0.4495 0.0
O367 O 0.50432 0.54559 0.54789 0.0
O368 O 0.53485 0.57328 0.57119 0.0
C369 C 0.58056 0.49772 0.56137 0.0
O370 O 0.54853 0.47759 0.51972 0.0
O371 O 0.51999 0.45378 0.49046 0.0
O372 O 0.5046 0.51071 0.44894 0.0
O373 O 0.53375 0.53918 0.47296 0.0
O374 O 0.5866 0.52279 0.56908 0.0
O375 O 0.56167 0.49348 0.54164 0.0
O376 O 0.55564 0.55214 0.48918 0.0
O377 O 0.58463 0.57574 0.51821 0.0
C378 C 0.57574 0.57072 0.49327 0.0
O379 O 0.4878 0.52431 0.53451 0.0
O380 O 0.46368 0.4952 0.50618 0.0
C381 C 0.50946 0.56522 0.56641 0.0
C382 C 0.46428 0.51163 0.52733 0.0
Zn383 Zn 0.05922 0.56242 0.98733 0.0
Zn384 Zn 0.99334 0.49674 0.05245 0.0
Zn385 Zn 0.0267 0.52956 0.01926 0.0
C386 C 0.05026 0.48645 0.06864 0.0
C387 C 0.98278 0.48066 0.99567 0.0
O388 O 0.00999 0.57409 0.02055 0.0
O389 O 0.03861 0.59851 0.99187 0.0
C390 C 0.09481 0.54046 0.02964 0.0
O391 O 0.05485 0.50595 0.04962 0.0
O392 O 0.02501 0.47843 0.07408 0.0
O393 O 0.97459 0.47543 0.0208 0.0
O394 O 1.00267 0.49939 0.99118 0.0
O395 O 0.0954 0.55724 0.00851 0.0
O396 O 0.07128 0.52757 0.03643 0.0
O397 O 0.02441 0.51267 0.97509 0.0
O398 O 0.05368 0.54139 0.9514 0.0
C399 C 0.03712 0.52001 0.9518 0.0
O400 O 0.99697 0.55773 0.04228 0.0
O401 O 0.97233 0.52852 0.07031 0.0
C402 C 0.01708 0.59763 0.00791 0.0
C403 C 0.97804 0.5535 0.06178 0.0
C404 C 0.11911 0.15017 0.35804 0.0
C405 C 0.14227 0.16885 0.36253 0.0
C406 C 0.10808 0.13323 0.38027 0.0
C407 C 0.12038 0.13496 0.40786 0.0
C408 C 0.14324 0.15435 0.4128 0.0
C409 C 0.154 0.17095 0.39006 0.0
C410 C 0.08382 0.11274 0.37396 0.0
C411 C 0.15659 0.1572 0.442 0.0
C412 C 0.07612 0.09899 0.46623 0.0
C413 C 0.08828 0.07185 0.46733 0.0
C414 C 0.08743 0.1205 0.44834 0.0
C415 C 0.11096 0.11447 0.43057 0.0
C416 C 0.12398 0.08749 0.43253 0.0
C417 C 0.11259 0.06666 0.4509 0.0
C418 C 0.07329 0.14916 0.44749 0.0
C419 C 0.14913 0.08006 0.41412 0.0
H420 H 0.11006 0.14816 0.33683 0.0
H421 H 0.17159 0.18565 0.39384 0.0
H422 H 0.09114 0.09056 0.37706 0.0
H423 H 0.06599 0.11615 0.38896 0.0
H424 H 0.07558 0.11507 0.35183 0.0
H425 H 0.17338 0.17407 0.44266 0.0
H426 H 0.13997 0.16222 0.45788 0.0
H427 H 0.16622 0.13671 0.4486 0.0
H428 H 0.05715 0.10314 0.47856 0.0
H429 H 0.12228 0.04583 0.45171 0.0
H430 H 0.06024 0.15096 0.42776 0.0
H431 H 0.08947 0.16658 0.44705 0.0
H432 H 0.05913 0.15224 0.4661 0.0
H433 H 0.14241 0.07982 0.39141 0.0
H434 H 0.15808 0.05893 0.41966 0.0
H435 H 0.1663 0.09637 0.41628 0.0
C436 C 0.39039 0.87763 0.898 0.0
C437 C 0.39885 0.88009 0.8694 0.0
C438 C 0.40498 0.89247 0.9197 0.0
C439 C 0.42836 0.91049 0.91263 0.0
C440 C 0.43813 0.91155 0.88413 0.0
C441 C 0.4233 0.89636 0.86291 0.0
C442 C 0.39439 0.89009 0.94993 0.0
C443 C 0.46314 0.93026 0.87567 0.0
C444 C 0.43997 0.97983 0.95193 0.0
C445 C 0.46515 0.97477 0.96737 0.0
C446 C 0.42724 0.95866 0.93511 0.0
C447 C 0.43981 0.93146 0.93371 0.0
C448 C 0.46435 0.92562 0.95055 0.0
C449 C 0.47701 0.94753 0.96685 0.0
C450 C 0.40101 0.9659 0.91774 0.0
C451 C 0.47815 0.8968 0.9504 0.0
H452 H 0.37187 0.86466 0.90335 0.0
H453 H 0.42997 0.89858 0.84093 0.0
H454 H 0.41256 0.88821 0.96505 0.0
H455 H 0.38267 0.90965 0.95545 0.0
H456 H 0.37981 0.8715 0.95292 0.0
H457 H 0.46982 0.92666 0.85332 0.0
H458 H 0.45728 0.95295 0.8779 0.0
H459 H 0.48162 0.92632 0.88999 0.0
H460 H 0.43056 1.0008 0.95236 0.0
H461 H 0.49674 0.94358 0.97829 0.0
H462 H 0.38363 0.95026 0.92206 0.0
H463 H 0.40602 0.96478 0.8947 0.0
H464 H 0.39303 0.98755 0.92236 0.0
H465 H 0.46211 0.87945 0.94785 0.0
H466 H 0.49047 0.89299 0.97035 0.0
H467 H 0.49314 0.89581 0.93223 0.0
C468 C 0.62617 0.39588 0.68578 0.0
C469 C 0.64787 0.37625 0.68076 0.0
C470 C 0.61545 0.41319 0.66378 0.0
C471 C 0.62647 0.41077 0.63586 0.0
C472 C 0.64778 0.39039 0.63041 0.0
C473 C 0.65844 0.37359 0.65298 0.0
C474 C 0.59286 0.43473 0.67063 0.0
C475 C 0.65992 0.3868 0.60096 0.0
C476 C 0.58066 0.44705 0.57928 0.0
C477 C 0.59426 0.4737 0.57682 0.0
C478 C 0.59206 0.42548 0.59678 0.0
C479 C 0.61698 0.4311 0.61317 0.0
C480 C 0.63133 0.4576 0.60995 0.0
C481 C 0.61991 0.47843 0.59174 0.0
C482 C 0.57661 0.39719 0.59872 0.0
C483 C 0.65798 0.46454 0.6269 0.0
H484 H 0.61809 0.3983 0.70721 0.0
H485 H 0.675 0.35826 0.64884 0.0
H486 H 0.60127 0.45654 0.6665 0.0
H487 H 0.57395 0.43155 0.65664 0.0
H488 H 0.58586 0.43333 0.69318 0.0
H489 H 0.67058 0.36595 0.59867 0.0
H490 H 0.64305 0.38863 0.58439 0.0
H491 H 0.67596 0.40387 0.59687 0.0
H492 H 0.5605 0.44336 0.56845 0.0
H493 H 0.63064 0.49893 0.58994 0.0
H494 H 0.56425 0.39618 0.6188 0.0
H495 H 0.59198 0.3794 0.59914 0.0
H496 H 0.56159 0.39404 0.58056 0.0
H497 H 0.6528 0.4651 0.64993 0.0
H498 H 0.66756 0.4854 0.62068 0.0
H499 H 0.67415 0.44779 0.62395 0.0
C500 C 0.89775 0.67895 0.14602 0.0
C501 C 0.90436 0.67387 0.17481 0.0
C502 C 0.90951 0.66221 0.1244 0.0
C503 C 0.9284 0.63996 0.13177 0.0
C504 C 0.9358 0.6354 0.16074 0.0
C505 C 0.92362 0.65229 0.18186 0.0
C506 C 0.90061 0.66769 0.09392 0.0
C507 C 0.95613 0.61218 0.16954 0.0
C508 C 0.93656 0.5734 0.08763 0.0
C509 C 0.96371 0.57756 0.07577 0.0
C510 C 0.92405 0.59434 0.10447 0.0
C511 C 0.93913 0.62005 0.10978 0.0
C512 C 0.96576 0.62512 0.09638 0.0
C513 C 0.9779 0.60366 0.07977 0.0
C514 C 0.89528 0.58838 0.1177 0.0
C515 C 0.98209 0.65261 0.10074 0.0
H516 H 0.88275 0.6955 0.14044 0.0
H517 H 0.9292 0.64862 0.20402 0.0
H518 H 0.91777 0.66243 0.07875 0.0
H519 H 0.88177 0.6541 0.08881 0.0
H520 H 0.89448 0.69024 0.09057 0.0
H521 H 0.96083 0.61235 0.19277 0.0
H522 H 0.94684 0.5911 0.16398 0.0
H523 H 0.97653 0.61459 0.15781 0.0
H524 H 0.92537 0.55334 0.08439 0.0
H525 H 0.99903 0.60688 0.07096 0.0
H526 H 0.88064 0.60631 0.11332 0.0
H527 H 0.89768 0.58647 0.14117 0.0
H528 H 0.88528 0.56846 0.10959 0.0
H529 H 0.96768 0.67108 0.09852 0.0
H530 H 0.99986 0.65517 0.08531 0.0
H531 H 0.99113 0.65296 0.12264 0.0
C532 C 0.36742 0.12 0.16752 0.0
C533 C 0.36127 0.14912 0.16508 0.0
C534 C 0.38818 0.10735 0.15036 0.0
C535 C 0.40323 0.12412 0.13011 0.0
C536 C 0.3978 0.15368 0.12813 0.0
C537 C 0.37691 0.16579 0.14557 0.0
C538 C 0.39322 0.07577 0.15316 0.0
C539 C 0.41345 0.17238 0.10694 0.0
C540 C 0.46986 0.09424 0.09492 0.0
C541 C 0.45882 0.08436 0.06902 0.0
C542 C 0.45213 0.1071 0.11517 0.0
C543 C 0.42262 0.11032 0.10924 0.0
C544 C 0.41138 0.10035 0.08305 0.0
C545 C 0.42956 0.08761 0.06334 0.0
C546 C 0.46506 0.11746 0.14273 0.0
C547 C 0.38007 0.10314 0.07579 0.0
H548 H 0.3553 0.1068 0.18224 0.0
H549 H 0.37272 0.18836 0.14382 0.0
H550 H 0.38606 0.06494 0.1334 0.0
H551 H 0.41634 0.07157 0.15582 0.0
H552 H 0.38159 0.06616 0.17148 0.0
H553 H 0.4084 0.19525 0.10951 0.0
H554 H 0.43684 0.16968 0.1093 0.0
H555 H 0.40758 0.16594 0.08496 0.0
H556 H 0.49241 0.09266 0.09899 0.0
H557 H 0.4207 0.07995 0.04339 0.0
H558 H 0.45381 0.10758 0.1611 0.0
H559 H 0.46251 0.14083 0.14439 0.0
H560 H 0.48811 0.11245 0.14438 0.0
H561 H 0.36693 0.09205 0.09213 0.0
H562 H 0.37466 0.09413 0.05459 0.0
H563 H 0.374 0.12589 0.07585 0.0
C564 C 0.19956 0.91021 0.63093 0.0
C565 C 0.1954 0.8922 0.65456 0.0
C566 C 0.17692 0.92555 0.61889 0.0
C567 C 0.14927 0.92306 0.6308 0.0
C568 C 0.1452 0.90624 0.65566 0.0
C569 C 0.16831 0.89098 0.66725 0.0
C570 C 0.18235 0.94334 0.59249 0.0
C571 C 0.11619 0.90345 0.66928 0.0
C572 C 0.09746 0.97728 0.60002 0.0
C573 C 0.08555 0.96193 0.57733 0.0
C574 C 0.11665 0.96431 0.61922 0.0
C575 C 0.12444 0.93555 0.61516 0.0
C576 C 0.11102 0.91961 0.59325 0.0
C577 C 0.09186 0.93304 0.57458 0.0
C578 C 0.13006 0.98199 0.64251 0.0
C579 C 0.11857 0.88894 0.58804 0.0
H580 H 0.22054 0.91185 0.62139 0.0
H581 H 0.16485 0.87714 0.68551 0.0
H582 H 0.17055 0.93403 0.57416 0.0
H583 H 0.17439 0.96524 0.59548 0.0
H584 H 0.20537 0.94461 0.58702 0.0
H585 H 0.11698 0.89147 0.68976 0.0
H586 H 0.10728 0.92481 0.67321 0.0
H587 H 0.10126 0.89226 0.65461 0.0
H588 H 0.09307 0.9998 0.60178 0.0
H589 H 0.08288 0.92127 0.55681 0.0
H590 H 0.15198 0.98844 0.63615 0.0
H591 H 0.13176 0.96955 0.66262 0.0
H592 H 0.11766 1.00154 0.64659 0.0
H593 H 0.14078 0.88784 0.58005 0.0
H594 H 0.10413 0.87875 0.57216 0.0
H595 H 0.11758 0.87647 0.60817 0.0
C596 C 0.86032 0.4287 0.89404 0.0
C597 C 0.8662 0.40703 0.87461 0.0
C598 C 0.88191 0.44053 0.91128 0.0
C599 C 0.91025 0.43064 0.90901 0.0
C600 C 0.91655 0.40931 0.8889 0.0
C601 C 0.8944 0.39758 0.8721 0.0
C602 C 0.87416 0.46309 0.93255 0.0
C603 C 0.94657 0.39856 0.88551 0.0
C604 C 0.9653 0.47895 0.94489 0.0
C605 C 0.96784 0.46605 0.97181 0.0
C606 C 0.94824 0.46661 0.92339 0.0
C607 C 0.93256 0.44128 0.9293 0.0
C608 C 0.93592 0.42764 0.95609 0.0
C609 C 0.95357 0.4401 0.9769 0.0
C610 C 0.94589 0.4815 0.89491 0.0
C611 C 0.91964 0.40065 0.9634 0.0
H612 H 0.83856 0.43591 0.89634 0.0
H613 H 0.89917 0.3811 0.85688 0.0
H614 H 0.87831 0.45516 0.9545 0.0
H615 H 0.88767 0.48237 0.92929 0.0
H616 H 0.85139 0.46926 0.93089 0.0
H617 H 0.94849 0.38401 0.86709 0.0
H618 H 0.96174 0.41666 0.88262 0.0
H619 H 0.95316 0.38698 0.9051 0.0
H620 H 0.97565 0.49931 0.94096 0.0
H621 H 0.95546 0.42993 0.99763 0.0
H622 H 0.92498 0.49227 0.89336 0.0
H623 H 0.9469 0.46598 0.87726 0.0
H624 H 0.9631 0.49772 0.89193 0.0
H625 H 0.89646 0.40517 0.96426 0.0
H626 H 0.92633 0.39149 0.98424 0.0
H627 H 0.92273 0.38444 0.94667 0.0
C628 C 0.65981 0.65473 0.36734 0.0
C629 C 0.6886 0.64779 0.37165 0.0
C630 C 0.63819 0.64235 0.38424 0.0
C631 C 0.64555 0.62251 0.40588 0.0
C632 C 0.67448 0.61475 0.40959 0.0
C633 C 0.6956 0.62754 0.39254 0.0
C634 C 0.60776 0.65163 0.37965 0.0
C635 C 0.68327 0.59341 0.43212 0.0
C636 C 0.60262 0.61237 0.47344 0.0
C637 C 0.58984 0.5856 0.46912 0.0
C638 C 0.61943 0.62539 0.45231 0.0
C639 C 0.62372 0.61127 0.42619 0.0
C640 C 0.60943 0.58505 0.421 0.0
C641 C 0.59293 0.57233 0.44268 0.0
C642 C 0.63369 0.65367 0.45847 0.0
C643 C 0.61258 0.56985 0.39303 0.0
H644 H 0.65426 0.67048 0.35132 0.0
H645 H 0.71773 0.62169 0.39559 0.0
H646 H 0.59223 0.63439 0.3848 0.0
H647 H 0.60337 0.66982 0.39385 0.0
H648 H 0.60413 0.65878 0.35732 0.0
H649 H 0.70638 0.58848 0.4312 0.0
H650 H 0.67849 0.60184 0.45357 0.0
H651 H 0.67085 0.57332 0.42957 0.0
H652 H 0.60012 0.62284 0.49376 0.0
H653 H 0.58347 0.55147 0.43934 0.0
H654 H 0.62928 0.66901 0.44095 0.0
H655 H 0.65717 0.65094 0.45967 0.0
H656 H 0.62639 0.66294 0.47884 0.0
H657 H 0.60911 0.58481 0.37496 0.0
H658 H 0.59731 0.5517 0.39097 0.0
H659 H 0.63463 0.56167 0.39127 0.0
C660 C 0.14503 0.36199 0.12363 0.0
C661 C 0.1669 0.36781 0.14335 0.0
C662 C 0.12894 0.38395 0.11129 0.0
C663 C 0.13465 0.41259 0.11891 0.0
C664 C 0.15722 0.41874 0.13823 0.0
C665 C 0.17309 0.39629 0.15019 0.0
C666 C 0.10537 0.3764 0.0905 0.0
C667 C 0.16394 0.44885 0.14726 0.0
C668 C 0.10012 0.46715 0.06951 0.0
C669 C 0.07409 0.47164 0.08328 0.0
C670 C 0.12101 0.44944 0.08174 0.0
C671 C 0.11548 0.43553 0.10808 0.0
C672 C 0.08993 0.44136 0.12277 0.0
C673 C 0.06956 0.45923 0.11018 0.0
C674 C 0.14833 0.4445 0.06577 0.0
C675 C 0.08342 0.42757 0.15119 0.0
H676 H 0.14048 0.34012 0.11779 0.0
H677 H 0.18985 0.401 0.16551 0.0
H678 H 0.08444 0.38244 0.09946 0.0
H679 H 0.10823 0.38852 0.07032 0.0
H680 H 0.10469 0.35332 0.08558 0.0
H681 H 0.18609 0.45096 0.15564 0.0
H682 H 0.16112 0.46413 0.12938 0.0
H683 H 0.14905 0.45494 0.16441 0.0
H684 H 0.10366 0.47639 0.04859 0.0
H685 H 0.04958 0.46279 0.12105 0.0
H686 H 0.14813 0.42256 0.05717 0.0
H687 H 0.16701 0.44644 0.0803 0.0
H688 H 0.15113 0.45977 0.04778 0.0
H689 H 0.08034 0.4043 0.14837 0.0
H690 H 0.06388 0.43625 0.16104 0.0
H691 H 0.10162 0.43068 0.16612 0.0
C692 C 0.65532 0.19155 0.9301 0.0
C693 C 0.67323 0.18594 0.90701 0.0
C694 C 0.63792 0.17013 0.9421 0.0
C695 C 0.63846 0.14223 0.93091 0.0
C696 C 0.65721 0.13613 0.90823 0.0
C697 C 0.67418 0.15811 0.89638 0.0
C698 C 0.61819 0.17765 0.96616 0.0
C699 C 0.65881 0.10657 0.89603 0.0
C700 C 0.60154 0.08637 0.97768 0.0
C701 C 0.57414 0.0854 0.96551 0.0
C702 C 0.62342 0.10326 0.96556 0.0
C703 C 0.61742 0.12043 0.94132 0.0
C704 C 0.59005 0.1188 0.92846 0.0
C705 C 0.56889 0.10123 0.94059 0.0
C706 C 0.6525 0.10368 0.97954 0.0
C707 C 0.58261 0.13668 0.90265 0.0
H708 H 0.65422 0.21301 0.93828 0.0
H709 H 0.68825 0.1535 0.8788 0.0
H710 H 0.59566 0.17485 0.95917 0.0
H711 H 0.62167 0.16314 0.98458 0.0
H712 H 0.62133 0.19993 0.97339 0.0
H713 H 0.67736 0.10424 0.88163 0.0
H714 H 0.66031 0.09044 0.91334 0.0
H715 H 0.63902 0.10185 0.88376 0.0
H716 H 0.60566 0.07482 0.99728 0.0
H717 H 0.54782 0.10056 0.93091 0.0
H718 H 0.65483 0.12318 0.99255 0.0
H719 H 0.66966 0.10411 0.96335 0.0
H720 H 0.65558 0.08488 0.99369 0.0
H721 H 0.58343 0.15955 0.90835 0.0
H722 H 0.56097 0.13162 0.89414 0.0
H723 H 0.5984 0.13344 0.8855 0.0
C724 C 0.90813 0.88142 0.37644 0.0
C725 C 0.88448 0.86962 0.39071 0.0
C726 C 0.92635 0.90127 0.3898 0.0
C727 C 0.92076 0.90972 0.41811 0.0
C728 C 0.8962 0.89896 0.43215 0.0
C729 C 0.87846 0.87898 0.41837 0.0
C730 C 0.95229 0.91224 0.37404 0.0
C731 C 0.8894 0.90747 0.46228 0.0
C732 C 0.9848 0.93 0.46384 0.0
C733 C 0.9835 0.95978 0.46399 0.0
C734 C 0.96438 0.91359 0.44921 0.0
C735 C 0.94217 0.92727 0.43405 0.0
C736 C 0.94077 0.9574 0.43405 0.0
C737 C 0.96151 0.97334 0.44907 0.0
C738 C 0.96675 0.88155 0.44985 0.0
C739 C 0.91765 0.97276 0.41787 0.0
H740 H 0.91269 0.8748 0.35489 0.0
H741 H 0.86048 0.86985 0.42978 0.0
H742 H 0.95356 0.93579 0.37509 0.0
H743 H 0.97188 0.90385 0.38432 0.0
H744 H 0.95214 0.90581 0.35132 0.0
H745 H 0.86776 0.90018 0.46887 0.0
H746 H 0.9053 0.89808 0.47711 0.0
H747 H 0.89082 0.93092 0.46453 0.0
H748 H 1.00186 0.91946 0.47535 0.0
H749 H 0.96108 0.99635 0.44839 0.0
H750 H 0.96911 0.87343 0.42787 0.0
H751 H 0.94696 0.87189 0.45874 0.0
H752 H 0.9852 0.87424 0.46283 0.0
H753 H 0.91895 0.96776 0.39487 0.0
H754 H 0.9193 0.99619 0.42044 0.0
H755 H 0.89638 0.96537 0.42531 0.0
C756 C 0.41356 0.68406 0.6306 0.0
C757 C 0.39588 0.67611 0.65341 0.0
C758 C 0.42825 0.66362 0.61487 0.0
C759 C 0.42523 0.63439 0.62201 0.0
C760 C 0.40606 0.62605 0.64384 0.0
C761 C 0.39175 0.647 0.65939 0.0
C762 C 0.44839 0.67348 0.59172 0.0
C763 C 0.40172 0.5951 0.65168 0.0
C764 C 0.45912 0.58328 0.56954 0.0
C765 C 0.48617 0.57956 0.58188 0.0
C766 C 0.43824 0.59964 0.58314 0.0
C767 C 0.44495 0.61329 0.60922 0.0
C768 C 0.4719 0.60872 0.62216 0.0
C769 C 0.49206 0.59191 0.60841 0.0
C770 C 0.40956 0.60329 0.56889 0.0
C771 C 0.48002 0.62266 0.65001 0.0
H772 H 0.4171 0.70644 0.62591 0.0
H773 H 0.37775 0.64061 0.67665 0.0
H774 H 0.47073 0.66927 0.59838 0.0
H775 H 0.44427 0.66143 0.57185 0.0
H776 H 0.44639 0.69657 0.58699 0.0
H777 H 0.38328 0.59181 0.66615 0.0
H778 H 0.39827 0.58215 0.63227 0.0
H779 H 0.42118 0.58702 0.66246 0.0
H780 H 0.45457 0.57427 0.54881 0.0
H781 H 0.51288 0.58903 0.61815 0.0
H782 H 0.40879 0.62457 0.55853 0.0
H783 H 0.39208 0.60215 0.58472 0.0
H784 H 0.40558 0.58687 0.55238 0.0
H785 H 0.48072 0.64612 0.64713 0.0
H786 H 0.50116 0.61565 0.65807 0.0
H787 H 0.46375 0.61774 0.66645 0.0
C788 C 0.97286 0.95194 0.74335 0.0
C789 C 0.9697 0.92246 0.74732 0.0
C790 C 0.98225 0.96341 0.71725 0.0
C791 C 0.98863 0.94499 0.69445 0.0
C792 C 0.98672 0.91517 0.69871 0.0
C793 C 0.97726 0.90427 0.72505 0.0
C794 C 0.98412 0.99534 0.71371 0.0
C795 C 0.99328 0.89479 0.67499 0.0
C796 C 0.97418 0.97718 0.62158 0.0
C797 C 1.00149 0.98595 0.61284 0.0
C798 C 0.96998 0.9628 0.64749 0.0
C799 C 0.99369 0.95709 0.66538 0.0
C800 C 0.02154 0.96481 0.65615 0.0
C801 C 0.02509 0.97922 0.62993 0.0
C802 C 0.93993 0.9548 0.65625 0.0
C803 C 0.0474 0.95897 0.6745 0.0
H804 H 0.96764 0.96615 0.76059 0.0
H805 H 0.97474 0.88146 0.7278 0.0
H806 H 1.00513 1.00169 0.70476 0.0
H807 H 0.96747 1.0025 0.69845 0.0
H808 H 0.9811 0.00662 0.73417 0.0
H809 H 0.99432 0.8724 0.68268 0.0
H810 H 0.97643 0.89616 0.65834 0.0
H811 H 0.01387 0.90056 0.66478 0.0
H812 H 0.95584 0.98223 0.60835 0.0
H813 H 0.04603 0.9866 0.6236 0.0
H814 H 0.9339 0.96711 0.67533 0.0
H815 H 0.93865 0.93191 0.66209 0.0
H816 H 0.92407 0.95905 0.63909 0.0
H817 H 0.0463 0.97163 0.6943 0.0
H818 H 0.06764 0.9644 0.66341 0.0
H819 H 0.04779 0.9362 0.68089 0.0
C820 C 0.55333 0.13489 0.23632 0.0
C821 C 0.58022 0.12668 0.24673 0.0
C822 C 0.54174 0.12304 0.2113 0.0
C823 C 0.55751 0.10269 0.19605 0.0
C824 C 0.58467 0.09439 0.20639 0.0
C825 C 0.59556 0.10631 0.2316 0.0
C826 C 0.51266 0.13234 0.2012 0.0
C827 C 0.60227 0.07276 0.19086 0.0
C828 C 0.52573 0.04794 0.14564 0.0
C829 C 0.53403 0.05894 0.11912 0.0
C830 C 0.53113 0.06311 0.17082 0.0
C831 C 0.54586 0.0896 0.16943 0.0
C832 C 0.55274 0.10153 0.14246 0.0
C833 C 0.54676 0.086 0.11759 0.0
C834 C 0.52297 0.04979 0.19901 0.0
C835 C 0.5684 0.12967 0.13996 0.0
H836 H 0.54142 0.15089 0.24756 0.0
H837 H 0.61607 0.09935 0.23966 0.0
H838 H 0.51452 0.14294 0.18009 0.0
H839 H 0.49838 0.11353 0.19861 0.0
H840 H 0.50255 0.14732 0.21618 0.0
H841 H 0.62324 0.06908 0.20133 0.0
H842 H 0.59047 0.05218 0.18981 0.0
H843 H 0.60607 0.07999 0.16863 0.0
H844 H 0.51625 0.0268 0.14679 0.0
H845 H 0.55365 0.09423 0.09707 0.0
H846 H 0.5127 0.06566 0.21289 0.0
H847 H 0.54246 0.04233 0.21018 0.0
H848 H 0.50817 0.03135 0.19632 0.0
H849 H 0.55833 0.14587 0.15357 0.0
H850 H 0.56886 0.13772 0.11765 0.0
H851 H 0.59072 0.12712 0.14752 0.0
C852 C 0.50951 0.62308 0.3029 0.0
C853 C 0.47997 0.6276 0.30073 0.0
C854 C 0.52149 0.60997 0.32718 0.0
C855 C 0.50346 0.60085 0.34967 0.0
C856 C 0.47377 0.60605 0.34788 0.0
C857 C 0.46243 0.61932 0.32352 0.0
C858 C 0.55325 0.60504 0.32825 0.0
C859 C 0.45371 0.59662 0.3713 0.0
C860 C 0.51828 0.53707 0.39678 0.0
C861 C 0.52323 0.54983 0.4233 0.0
C862 C 0.51399 0.55352 0.37213 0.0
C863 C 0.51473 0.58356 0.37395 0.0
C864 C 0.52232 0.59654 0.40015 0.0
C865 C 0.52616 0.57951 0.42465 0.0
C866 C 0.50643 0.53869 0.34462 0.0
C867 C 0.52436 0.62845 0.40283 0.0
H868 H 0.5233 0.62974 0.28557 0.0
H869 H 0.43958 0.62237 0.32194 0.0
H870 H 0.56192 0.60888 0.34993 0.0
H871 H 0.55755 0.58255 0.3229 0.0
H872 H 0.5649 0.6189 0.31285 0.0
H873 H 0.43144 0.60357 0.36735 0.0
H874 H 0.45374 0.57307 0.37318 0.0
H875 H 0.46103 0.60531 0.39204 0.0
H876 H 0.51631 0.5141 0.39555 0.0
H877 H 0.52981 0.58954 0.44509 0.0
H878 H 0.51932 0.54749 0.32682 0.0
H879 H 0.48363 0.54238 0.33939 0.0
H880 H 0.50987 0.51536 0.34597 0.0
H881 H 0.53449 0.6382 0.38374 0.0
H882 H 0.5368 0.63481 0.42204 0.0
H883 H 0.50255 0.63722 0.4046 0.0
C884 C 0.05972 0.43671 0.80482 0.0
C885 C 0.08967 0.436 0.80552 0.0
C886 C 0.04421 0.44534 0.82884 0.0
C887 C 0.0591 0.45365 0.85385 0.0
C888 C 0.08913 0.4506 0.85529 0.0
C889 C 0.10396 0.44171 0.8312 0.0
C890 C 0.01215 0.44733 0.82673 0.0
C891 C 0.10596 0.45882 0.88159 0.0
C892 C 0.03973 0.51603 0.89922 0.0
C893 C 0.03478 0.50279 0.92561 0.0
C894 C 0.04482 0.50002 0.87478 0.0
C895 C 0.04475 0.46994 0.8767 0.0
C896 C 0.03639 0.45646 0.9025 0.0
C897 C 0.03194 0.47307 0.92688 0.0
C898 C 0.05319 0.51544 0.84767 0.0
C899 C 0.03451 0.42451 0.9051 0.0
H900 H 0.04852 0.43207 0.78509 0.0
H901 H 0.12704 0.44039 0.83208 0.0
H902 H 1.00187 0.44201 0.84737 0.0
H903 H 0.00627 0.46944 0.82095 0.0
H904 H 1.00341 0.43295 0.81006 0.0
H905 H 0.12885 0.45313 0.88001 0.0
H906 H 0.1046 0.48214 0.88484 0.0
H907 H 0.09688 0.44817 0.90071 0.0
H908 H 0.04145 0.53904 0.89804 0.0
H909 H 0.02805 0.46267 0.9472 0.0
H910 H 0.04133 0.50658 0.82919 0.0
H911 H 0.0763 0.51244 0.84374 0.0
H912 H 0.04906 0.53863 0.84876 0.0
H913 H 0.02685 0.41477 0.88495 0.0
H914 H 0.01997 0.4179 0.92264 0.0
H915 H 0.05602 0.41602 0.9099 0.0
C916 C 0.71958 0.95684 0.93225 0.0
C917 C 0.74238 0.97506 0.925 0.0
C918 C 0.69484 0.96725 0.94507 0.0
C919 C 0.69268 0.99669 0.95087 0.0
C920 C 0.7151 0.01542 0.94264 0.0
C921 C 0.7397 1.00439 0.92985 0.0
C922 C 0.67135 0.94652 0.95326 0.0
C923 C 0.71359 0.04694 0.94831 0.0
C924 C 0.61766 0.01888 0.97148 0.0
C925 C 0.61888 0.01577 1.00119 0.0
C926 C 0.64211 0.01484 0.95471 0.0
C927 C 0.66817 0.00703 0.96801 0.0
C928 C 0.66985 1.00578 0.99811 0.0
C929 C 0.64524 0.01016 0.01427 0.0
C930 C 0.63954 0.01714 0.92274 0.0
C931 C 0.69721 0.99793 0.01327 0.0
H932 H 0.72113 0.93427 0.928 0.0
H933 H 0.75722 0.01866 0.92444 0.0
H934 H 0.66919 0.94587 0.97679 0.0
H935 H 0.65064 0.95362 0.94428 0.0
H936 H 0.6755 0.92462 0.94571 0.0
H937 H 0.73061 0.05912 0.93701 0.0
H938 H 0.69253 0.05537 0.94171 0.0
H939 H 0.71596 0.05075 0.97151 0.0
H940 H 0.59734 0.02305 0.9612 0.0
H941 H 0.6464 0.00801 0.03727 0.0
H942 H 0.63865 0.99546 0.91355 0.0
H943 H 0.65839 0.02831 0.91358 0.0
H944 H 0.61995 0.02862 0.91614 0.0
H945 H 0.70219 0.97534 0.00897 0.0
H946 H 0.69577 1.00073 0.0367 0.0
H947 H 0.71528 0.01108 1.00521 0.0
C948 C 0.82247 0.0568 0.40842 0.0
C949 C 0.8043 0.07252 0.42586 0.0
C950 C 0.84885 0.04688 0.41863 0.0
C951 C 0.85724 0.05262 0.44707 0.0
C952 C 0.83854 0.06763 0.46505 0.0
C953 C 0.81235 0.07732 0.45427 0.0
C954 C 0.86774 0.03053 0.39881 0.0
C955 C 0.84666 0.07443 0.49546 0.0
C956 C 0.91831 0.01671 0.48686 0.0
C957 C 0.93938 0.03805 0.48548 0.0
C958 C 0.89185 0.02024 0.4729 0.0
C959 C 0.88655 0.04571 0.45745 0.0
C960 C 0.90862 0.06636 0.45455 0.0
C961 C 0.93466 0.06234 0.46878 0.0
C962 C 0.86904 0.99757 0.47611 0.0
C963 C 0.9041 0.09362 0.43797 0.0
H964 H 0.81653 0.05303 0.38641 0.0
H965 H 0.79823 0.08893 0.46808 0.0
H966 H 0.89024 0.03804 0.40032 0.0
H967 H 0.86711 0.00772 0.40501 0.0
H968 H 0.86061 0.03231 0.37626 0.0
H969 H 0.82908 0.08477 0.50715 0.0
H970 H 0.85268 0.05473 0.50707 0.0
H971 H 0.86555 0.08891 0.49568 0.0
H972 H 0.92191 0.99808 0.50011 0.0
H973 H 0.95095 0.07892 0.468 0.0
H974 H 0.85948 0.99242 0.45506 0.0
H975 H 0.85168 1.00558 0.48976 0.0
H976 H 0.8775 0.97778 0.4859 0.0
H977 H 0.8957 0.08887 0.41635 0.0
H978 H 0.9241 0.10638 0.43583 0.0
H979 H 0.88801 0.10674 0.44891 0.0
C980 C 0.24296 0.54548 0.11901 0.0
C981 C 0.24645 0.57465 0.1246 0.0
C982 C 0.21788 0.53483 0.10606 0.0
C983 C 0.19585 0.55384 0.09834 0.0
C984 C 0.19881 0.58309 0.105 0.0
C985 C 0.22399 0.59309 0.11803 0.0
C986 C 0.21572 0.50349 0.09948 0.0
C987 C 0.17578 0.6041 0.09738 0.0
C988 C 0.14768 0.54305 0.03429 0.0
C989 C 0.12114 0.53778 0.04707 0.0
C990 C 0.17257 0.54631 0.05071 0.0
C991 C 0.17097 0.54418 0.08074 0.0
C992 C 0.14468 0.53643 0.09364 0.0
C993 C 0.11993 0.53368 0.07666 0.0
C994 C 0.20021 0.55396 0.03597 0.0
C995 C 0.14228 0.5328 0.12549 0.0
H996 H 0.26022 0.53104 0.12388 0.0
H997 H 0.22619 0.61553 0.12288 0.0
H998 H 0.19342 0.49548 0.10105 0.0
H999 H 0.22303 0.49996 0.07736 0.0
H1000 H 0.22942 0.49076 0.11404 0.0
H1001 H 0.18062 0.62578 0.10551 0.0
H1002 H 0.17336 0.60539 0.07387 0.0
H1003 H 0.15499 0.59684 0.10619 0.0
H1004 H 0.14881 0.54592 0.01138 0.0
H1005 H 0.09948 0.52984 0.08673 0.0
H1006 H 0.21757 0.53988 0.04352 0.0
H1007 H 0.20649 0.57615 0.0413 0.0
H1008 H 0.19845 0.55225 0.01243 0.0
H1009 H 0.16099 0.52134 0.13426 0.0
H1010 H 0.12252 0.52094 0.13148 0.0
H1011 H 0.14181 0.55406 0.13557 0.0
C1012 C 0.34035 0.44938 0.61129 0.0
C1013 C 0.3156 0.46494 0.61649 0.0
C1014 C 0.36498 0.46263 0.60046 0.0
C1015 C 0.36503 0.49229 0.59485 0.0
C1016 C 0.34083 0.50851 0.60194 0.0
C1017 C 0.31621 0.49457 0.61236 0.0
C1018 C 0.39028 0.44446 0.59319 0.0
C1019 C 0.34042 0.5403 0.59722 0.0
C1020 C 0.43929 0.51734 0.57412 0.0
C1021 C 0.43803 0.51388 0.5445 0.0
C1022 C 0.41473 0.51349 0.59089 0.0
C1023 C 0.38873 0.50494 0.57774 0.0
C1024 C 0.38696 0.50371 0.54766 0.0
C1025 C 0.41156 0.50839 0.53145 0.0
C1026 C 0.41731 0.51641 0.62277 0.0
C1027 C 0.35971 0.49481 0.53262 0.0
H1028 H 0.33998 0.42647 0.61416 0.0
H1029 H 0.29725 0.50677 0.61673 0.0
H1030 H 0.39335 0.44444 0.56976 0.0
H1031 H 0.41002 0.45336 0.60297 0.0
H1032 H 0.38753 0.42209 0.60059 0.0
H1033 H 0.3232 0.55045 0.60958 0.0
H1034 H 0.36121 0.55016 0.60327 0.0
H1035 H 0.33672 0.54493 0.5743 0.0
H1036 H 0.45969 0.52139 0.58439 0.0
H1037 H 0.41041 0.50605 0.5085 0.0
H1038 H 0.42219 0.49534 0.63231 0.0
H1039 H 0.39713 0.52397 0.63222 0.0
H1040 H 0.43487 0.53142 0.62859 0.0
H1041 H 0.3551 0.47203 0.53728 0.0
H1042 H 0.36112 0.49764 0.50915 0.0
H1043 H 0.34143 0.50725 0.54044 0.0
C1044 C 0.92672 0.74343 1.00199 0.0
C1045 C 0.92056 0.7469 0.97285 0.0
C1046 C 0.94023 0.71879 0.01236 0.0
C1047 C 0.94794 0.69716 0.9931 0.0
C1048 C 0.94087 0.70015 0.96384 0.0
C1049 C 0.92728 0.72489 0.95412 0.0
C1050 C 0.94732 0.71681 0.04371 0.0
C1051 C 0.94854 0.67758 0.94255 0.0
C1052 C 0.01224 0.65027 1.00474 0.0
C1053 C 0.99948 0.62358 0.0099 0.0
C1054 C 0.99573 0.67473 1.00104 0.0
C1055 C 0.96563 0.67257 1.00261 0.0
C1056 C 0.95273 0.64613 0.01011 0.0
C1057 C 0.96979 0.62182 0.01328 0.0
C1058 C 0.01046 0.70258 0.99377 0.0
C1059 C 0.92082 0.64311 0.0132 0.0
H1060 H 0.92181 0.76036 0.01667 0.0
H1061 H 0.92206 0.72708 0.93169 0.0
H1062 H 0.94833 0.69445 0.0513 0.0
H1063 H 0.96849 0.72695 0.04754 0.0
H1064 H 0.9314 0.72828 0.05662 0.0
H1065 H 0.94036 0.68248 0.92081 0.0
H1066 H 0.9721 0.67561 0.94153 0.0
H1067 H 0.93974 0.65662 0.9494 0.0
H1068 H 0.03522 0.65185 1.00239 0.0
H1069 H 0.95972 0.60126 0.017 0.0
H1070 H 1.00319 0.71955 0.00823 0.0
H1071 H 1.00472 0.70908 0.9717 0.0
H1072 H 0.03407 0.70116 0.99535 0.0
H1073 H 0.91181 0.66192 0.02394 0.0
H1074 H 0.91487 0.62366 0.02551 0.0
H1075 H 0.91088 0.64167 0.99173 0.0
C1076 C 0.42718 0.80916 0.04634 0.0
C1077 C 0.41842 0.80656 0.07482 0.0
C1078 C 0.44023 0.83436 0.03617 0.0
C1079 C 0.44499 0.85733 0.05501 0.0
C1080 C 0.43523 0.85519 0.08347 0.0
C1081 C 0.42206 0.8299 0.09298 0.0
C1082 C 0.44971 0.83609 1.00552 0.0
C1083 C 0.43984 0.87917 0.10429 0.0
C1084 C 0.50919 0.90644 0.04799 0.0
C1085 C 0.49663 0.93228 0.04004 0.0
C1086 C 0.49278 0.88154 0.05131 0.0
C1087 C 0.46298 0.88231 0.04632 0.0
C1088 C 0.45044 0.90783 0.03622 0.0
C1089 C 0.46737 0.93267 0.03361 0.0
C1090 C 0.50715 0.85485 0.06196 0.0
C1091 C 0.41892 0.90953 0.02982 0.0
H1092 H 0.42399 0.79139 0.03203 0.0
H1093 H 0.41558 0.82804 0.11506 0.0
H1094 H 0.44293 0.85649 0.99573 0.0
H1095 H 0.47335 0.83556 1.00459 0.0
H1096 H 0.44097 0.81823 0.99265 0.0
H1097 H 0.42945 0.87486 0.12512 0.0
H1098 H 0.46306 0.88248 0.10801 0.0
H1099 H 0.43129 0.89927 0.09534 0.0
H1100 H 0.53185 0.90591 0.05276 0.0
H1101 H 0.45743 0.9526 0.02774 0.0
H1102 H 0.5015 0.83656 0.04815 0.0
H1103 H 0.49955 0.84966 0.08376 0.0
H1104 H 0.53078 0.85716 0.06265 0.0
H1105 H 0.41046 0.88923 0.02107 0.0
H1106 H 0.41431 0.92698 0.01442 0.0
H1107 H 0.40734 0.91391 0.04983 0.0
C1108 C 0.11196 0.24084 0.55706 0.0
C1109 C 0.12486 0.24158 0.58411 0.0
C1110 C 0.1028 0.21493 0.54507 0.0
C1111 C 0.10599 0.18935 0.56084 0.0
C1112 C 0.12114 0.18977 0.58704 0.0
C1113 C 0.13048 0.21586 0.5983 0.0
C1114 C 0.08778 0.2152 0.51654 0.0
C1115 C 0.1251 0.16301 0.60453 0.0
C1116 C 0.04481 0.13623 0.56016 0.0
C1117 C 0.05646 0.11294 0.54598 0.0
C1118 C 0.0605 0.16137 0.56424 0.0
C1119 C 0.08855 0.16373 0.55336 0.0
C1120 C 0.10002 0.1409 0.53766 0.0
C1121 C 0.08403 0.11548 0.53469 0.0
C1122 C 0.04732 0.18501 0.58124 0.0
C1123 C 0.12945 0.14277 0.52488 0.0
H1124 H 0.10808 0.26062 0.54573 0.0
H1125 H 0.14038 0.21625 0.61923 0.0
H1126 H 0.09463 0.19701 0.50339 0.0
H1127 H 0.06442 0.21298 0.51979 0.0
H1128 H 0.09194 0.23532 0.50461 0.0
H1129 H 0.14031 0.16626 0.6225 0.0
H1130 H 0.10422 0.15605 0.6134 0.0
H1131 H 0.133 0.14556 0.59102 0.0
H1132 H 0.02342 0.13464 0.56878 0.0
H1133 H 0.09344 0.09743 0.52426 0.0
H1134 H 0.04715 0.205 0.56855 0.0
H1135 H 0.06026 0.18905 0.60071 0.0
H1136 H 0.02508 0.17993 0.5878 0.0
H1137 H 0.13425 0.16457 0.51686 0.0
H1138 H 0.1318 0.12752 0.50709 0.0
H1139 H 0.14553 0.13751 0.54148 0.0
C1140 C 0.6282 0.30669 0.50346 0.0
C1141 C 0.63316 0.30303 0.47423 0.0
C1142 C 0.61588 0.33176 0.51375 0.0
C1143 C 0.60817 0.35359 0.49431 0.0
C1144 C 0.61421 0.35046 0.46497 0.0
C1145 C 0.62662 0.32531 0.45533 0.0
C1146 C 0.60997 0.33426 0.5452 0.0
C1147 C 0.60657 0.37329 0.44351 0.0
C1148 C 0.54505 0.4016 0.50527 0.0
C1149 C 0.5584 0.42806 0.50975 0.0
C1150 C 0.56101 0.3768 0.50223 0.0
C1151 C 0.59117 0.37842 0.50374 0.0
C1152 C 0.60469 0.40466 0.51059 0.0
C1153 C 0.58813 0.42931 0.51318 0.0
C1154 C 0.54563 0.34924 0.49538 0.0
C1155 C 0.6367 0.40712 0.51337 0.0
H1156 H 0.63308 0.28958 0.51825 0.0
H1157 H 0.631 0.32296 0.43282 0.0
H1158 H 0.6145 0.35615 0.55278 0.0
H1159 H 0.58705 0.32962 0.54915 0.0
H1160 H 0.62283 0.31905 0.558 0.0
H1161 H 0.61425 0.36836 0.42177 0.0
H1162 H 0.58304 0.37568 0.44262 0.0
H1163 H 0.61586 0.39407 0.45009 0.0
H1164 H 0.52202 0.40047 0.5029 0.0
H1165 H 0.5986 0.44972 0.51647 0.0
H1166 H 0.55329 0.33185 0.50947 0.0
H1167 H 0.55026 0.34313 0.4731 0.0
H1168 H 0.52213 0.35094 0.49775 0.0
H1169 H 0.64546 0.38862 0.52521 0.0
H1170 H 0.6433 0.42696 0.52447 0.0
H1171 H 0.64632 0.40733 0.49183 0.0
loop_
_geom_bond_atom_site_label_1
_geom_bond_atom_site_label_2
_geom_bond_distance
_geom_bond_site_symmetry_2
_ccdc_geom_bond_type
C0 C1 1.264 . S
C0 C5 1.479 . S
C0 C10 1.465 . S
C1 C0 1.264 . S
C1 C3 1.339 . S
C1 H28 0.931 . S
C2 C3 1.395 . S
C2 C4 1.320 . S
C3 C1 1.339 . S
C3 C2 1.395 . S
C3 H29 0.929 . S
C4 C2 1.320 . S
C4 C5 1.405 . S
C4 H30 0.930 . S
C5 C0 1.479 . S
C5 C4 1.405 . S
C5 H31 0.931 . S
U6 O7 2.454 . S
U6 O8 2.458 . S
U6 C9 2.984 . S
U6 C10 2.847 . S
U6 C23 2.882 . S
U6 O24 2.441 . S
U6 O25 2.420 . S
U6 O26 2.455 . S
U6 O27 2.449 . S
O7 U6 2.454 . S
O7 C9 1.353 . S
O8 U6 2.458 . S
O8 C9 1.286 . S
C9 U6 2.984 . S
C9 O7 1.353 . S
C9 O8 1.286 . S
C9 C11 1.363 . S
C10 C0 1.465 . S
C10 U6 2.847 . S
C10 O24 1.249 . S
C10 O25 1.202 . S
C11 C9 1.363 . S
C11 C13 1.408 . S
C11 C16 1.342 . S
C12 C13 1.310 . S
C12 C15 1.461 . S
C12 H32 0.932 . S
C13 C11 1.408 . S
C13 C12 1.310 . S
C13 H33 0.930 . S
C14 C15 1.474 . S
C14 C16 1.285 . S
C14 H34 0.929 . S
C15 C12 1.461 . S
C15 C14 1.474 . S
C16 C11 1.342 . S
C16 C14 1.285 . S
C16 H35 0.930 . S
C17 C20 1.424 . S
C17 C22 1.245 . S
C17 C23 1.428 . S
C18 C21 1.260 . S
C18 C22 1.477 . S
C18 H36 0.932 . S
C19 C20 1.384 . S
C19 C21 1.479 . S
C19 H37 0.929 . S
C20 C17 1.424 . S
C20 C19 1.384 . S
C20 H38 0.928 . S
C21 C18 1.260 . S
C21 C19 1.479 . S
C22 C17 1.245 . S
C22 C18 1.477 . S
C22 H39 0.932 . S
C23 U6 2.882 . S
C23 C17 1.428 . S
C23 O26 1.301 . S
C23 O27 1.282 . S
O24 U6 2.441 . S
O24 C10 1.249 . S
O25 U6 2.420 . S
O25 C10 1.202 . S
O26 U6 2.455 . S
O26 C23 1.301 . S
O27 U6 2.449 . S
O27 C23 1.282 . S
H28 C1 0.931 . S
H29 C3 0.929 . S
H30 C4 0.930 . S
H31 C5 0.931 . S
H32 C12 0.932 . S
H33 C13 0.930 . S
H34 C14 0.929 . S
H35 C16 0.930 . S
H36 C18 0.932 . S
H37 C19 0.929 . S
H38 C20 0.928 . S
H39 C22 0.932 . S
C40 C41 1.264 . S
C40 C45 1.479 . S
C40 C50 1.465 . S
C41 C40 1.264 . S
C41 C43 1.339 . S
C41 H68 0.931 . S
C42 C43 1.395 . S
C42 C44 1.320 . S
C43 C41 1.339 . S
C43 C42 1.395 . S
C43 H69 0.929 . S
C44 C42 1.320 . S
C44 C45 1.405 . S
C44 H70 0.930 . S
C45 C40 1.479 . S
C45 C44 1.405 . S
C45 H71 0.931 . S
U46 O47 2.454 . S
U46 O48 2.458 . S
U46 C49 2.984 . S
U46 C50 2.847 . S
U46 C63 2.882 . S
U46 O64 2.441 . S
U46 O65 2.420 . S
U46 O66 2.455 . S
U46 O67 2.449 . S
O47 U46 2.454 . S
O47 C49 1.353 . S
O48 U46 2.458 . S
O48 C49 1.286 . S
C49 U46 2.984 . S
C49 O47 1.353 . S
C49 O48 1.286 . S
C49 C51 1.363 . S
C50 C40 1.465 . S
C50 U46 2.847 . S
C50 O64 1.249 . S
C50 O65 1.202 . S
C51 C49 1.363 . S
C51 C53 1.408 . S
C51 C56 1.342 . S
C52 C53 1.310 . S
C52 C55 1.461 . S
C52 H72 0.932 . S
C53 C51 1.408 . S
C53 C52 1.310 . S
C53 H73 0.930 . S
C54 C55 1.474 . S
C54 C56 1.285 . S
C54 H74 0.929 . S
C55 C52 1.461 . S
C55 C54 1.474 . S
C56 C51 1.342 . S
C56 C54 1.285 . S
C56 H75 0.930 . S
C57 C60 1.424 . S
C57 C62 1.245 . S
C57 C63 1.428 . S
C58 C61 1.260 . S
C58 C62 1.477 . S
C58 H76 0.932 . S
C59 C60 1.384 . S
C59 C61 1.479 . S
C59 H77 0.929 . S
C60 C57 1.424 . S
C60 C59 1.384 . S
C60 H78 0.928 . S
C61 C58 1.260 . S
C61 C59 1.479 . S
C62 C57 1.245 . S
C62 C58 1.477 . S
C62 H79 0.932 . S
C63 U46 2.882 . S
C63 C57 1.428 . S
C63 O66 1.301 . S
C63 O67 1.282 . S
O64 U46 2.441 . S
O64 C50 1.249 . S
O65 U46 2.420 . S
O65 C50 1.202 . S
O66 U46 2.455 . S
O66 C63 1.301 . S
O67 U46 2.449 . S
O67 C63 1.282 . S
H68 C41 0.931 . S
H69 C43 0.929 . S
H70 C44 0.930 . S
H71 C45 0.931 . S
H72 C52 0.932 . S
H73 C53 0.930 . S
H74 C54 0.929 . S
H75 C56 0.930 . S
H76 C58 0.932 . S
H77 C59 0.929 . S
H78 C60 0.928 . S
H79 C62 0.932 . S
C80 C81 1.264 . S
C80 C85 1.479 . S
C80 C90 1.465 . S
C81 C80 1.264 . S
C81 C83 1.339 . S
C81 H108 0.931 . S
C82 C83 1.395 . S
C82 C84 1.320 . S
C83 C81 1.339 . S
C83 C82 1.395 . S
C83 H109 0.929 . S
C84 C82 1.320 . S
C84 C85 1.405 . S
C84 H110 0.930 . S
C85 C80 1.479 . S
C85 C84 1.405 . S
C85 H111 0.931 . S
U86 O87 2.454 . S
U86 O88 2.458 . S
U86 C89 2.984 . S
U86 C90 2.847 . S
U86 C103 2.882 . S
U86 O104 2.441 . S
U86 O105 2.420 . S
U86 O106 2.455 . S
U86 O107 2.449 . S
O87 U86 2.454 . S
O87 C89 1.353 . S
O88 U86 2.458 . S
O88 C89 1.286 . S
C89 U86 2.984 . S
C89 O87 1.353 . S
C89 O88 1.286 . S
C89 C91 1.363 . S
C90 C80 1.465 . S
C90 U86 2.847 . S
C90 O104 1.249 . S
C90 O105 1.202 . S
C91 C89 1.363 . S
C91 C93 1.408 . S
C91 C96 1.342 . S
C92 C93 1.310 . S
C92 C95 1.461 . S
C92 H112 0.932 . S
C93 C91 1.408 . S
C93 C92 1.310 . S
C93 H113 0.930 . S
C94 C95 1.474 . S
C94 C96 1.285 . S
C94 H114 0.929 . S
C95 C92 1.461 . S
C95 C94 1.474 . S
C96 C91 1.342 . S
C96 C94 1.285 . S
C96 H115 0.930 . S
C97 C100 1.424 . S
C97 C102 1.245 . S
C97 C103 1.428 . S
C98 C101 1.260 . S
C98 C102 1.477 . S
C98 H116 0.932 . S
C99 C100 1.384 . S
C99 C101 1.479 . S
C99 H117 0.929 . S
C100 C97 1.424 . S
C100 C99 1.384 . S
C100 H118 0.928 . S
C101 C98 1.260 . S
C101 C99 1.479 . S
C102 C97 1.245 . S
C102 C98 1.477 . S
C102 H119 0.932 . S
C103 U86 2.882 . S
C103 C97 1.428 . S
C103 O106 1.301 . S
C103 O107 1.282 . S
O104 U86 2.441 . S
O104 C90 1.249 . S
O105 U86 2.420 . S
O105 C90 1.202 . S
O106 U86 2.455 . S
O106 C103 1.301 . S
O107 U86 2.449 . S
O107 C103 1.282 . S
H108 C81 0.931 . S
H109 C83 0.929 . S
H110 C84 0.930 . S
H111 C85 0.931 . S
H112 C92 0.932 . S
H113 C93 0.930 . S
H114 C94 0.929 . S
H115 C96 0.930 . S
H116 C98 0.932 . S
H117 C99 0.929 . S
H118 C100 0.928 . S
H119 C102 0.932 . S
C120 C121 1.264 . S
C120 C125 1.479 . S
C120 C130 1.465 . S
C121 C120 1.264 . S
C121 C123 1.339 . S
C121 H148 0.931 . S
C122 C123 1.395 . S
C122 C124 1.320 . S
C123 C121 1.339 . S
C123 C122 1.395 . S
C123 H149 0.929 . S
C124 C122 1.320 . S
C124 C125 1.405 . S
C124 H150 0.930 . S
C125 C120 1.479 . S
C125 C124 1.405 . S
C125 H151 0.931 . S
U126 O127 2.454 . S
U126 O128 2.458 . S
U126 C129 2.984 . S
U126 C130 2.847 . S
U126 C143 2.882 . S
U126 O144 2.441 . S
U126 O145 2.420 . S
U126 O146 2.455 . S
U126 O147 2.449 . S
O127 U126 2.454 . S
O127 C129 1.353 . S
O128 U126 2.458 . S
O128 C129 1.286 . S
C129 U126 2.984 . S
C129 O127 1.353 . S
C129 O128 1.286 . S
C129 C131 1.363 . S
C130 C120 1.465 . S
C130 U126 2.847 . S
C130 O144 1.249 . S
C130 O145 1.202 . S
C131 C129 1.363 . S
C131 C133 1.408 . S
C131 C136 1.342 . S
C132 C133 1.310 . S
C132 C135 1.461 . S
C132 H152 0.932 . S
C133 C131 1.408 . S
C133 C132 1.310 . S
C133 H153 0.930 . S
C134 C135 1.474 . S
C134 C136 1.285 . S
C134 H154 0.929 . S
C135 C132 1.461 . S
C135 C134 1.474 . S
C136 C131 1.342 . S
C136 C134 1.285 . S
C136 H155 0.930 . S
C137 C140 1.424 . S
C137 C142 1.245 . S
C137 C143 1.428 . S
C138 C141 1.260 . S
C138 C142 1.477 . S
C138 H156 0.932 . S
C139 C140 1.384 . S
C139 C141 1.479 . S
C139 H157 0.929 . S
C140 C137 1.424 . S
C140 C139 1.384 . S
C140 H158 0.928 . S
C141 C138 1.260 . S
C141 C139 1.479 . S
C142 C137 1.245 . S
C142 C138 1.477 . S
C142 H159 0.932 . S
C143 U126 2.882 . S
C143 C137 1.428 . S
C143 O146 1.301 . S
C143 O147 1.282 . S
O144 U126 2.441 . S
O144 C130 1.249 . S
O145 U126 2.420 . S
O145 C130 1.202 . S
O146 U126 2.455 . S
O146 C143 1.301 . S
O147 U126 2.449 . S
O147 C143 1.282 . S
H148 C121 0.931 . S
H149 C123 0.929 . S
H150 C124 0.930 . S
H151 C125 0.931 . S
H152 C132 0.932 . S
H153 C133 0.930 . S
H154 C134 0.929 . S
H155 C136 0.930 . S
H156 C138 0.932 . S
H157 C139 0.929 . S
H158 C140 0.928 . S
H159 C142 0.932 . S
C160 C161 1.264 . S
C160 C165 1.479 . S
C160 C170 1.465 . S
C161 C160 1.264 . S
C161 C163 1.339 1_655 S
C161 H188 0.931 . S
C162 C163 1.395 1_655 S
C162 C164 1.320 . S
C163 C161 1.339 1_455 S
C163 C162 1.395 1_455 S
C163 H189 0.929 . S
C164 C162 1.320 . S
C164 C165 1.405 . S
C164 H190 0.930 1_556 S
C165 C160 1.479 . S
C165 C164 1.405 . S
C165 H191 0.931 . S
U166 O167 2.454 . S
U166 O168 2.458 . S
U166 C169 2.984 . S
U166 C170 2.847 . S
U166 C183 2.882 . S
U166 O184 2.441 . S
U166 O185 2.420 . S
U166 O186 2.455 . S
U166 O187 2.449 . S
O167 U166 2.454 . S
O167 C169 1.353 . S
O168 U166 2.458 . S
O168 C169 1.286 . S
C169 U166 2.984 . S
C169 O167 1.353 . S
C169 O168 1.286 . S
C169 C171 1.363 . S
C170 C160 1.465 . S
C170 U166 2.847 . S
C170 O184 1.249 . S
C170 O185 1.202 . S
C171 C169 1.363 . S
C171 C173 1.408 . S
C171 C176 1.342 . S
C172 C173 1.310 1_554 S
C172 C175 1.461 1_554 S
C172 H192 0.932 . S
C173 C171 1.408 . S
C173 C172 1.310 1_556 S
C173 H193 0.930 . S
C174 C175 1.488 . S
C174 C176 1.304 . S
C174 H194 0.897 1_565 S
C175 C172 1.461 1_556 S
C175 C174 1.488 . S
C176 C171 1.342 . S
C176 C174 1.304 . S
C176 H195 0.930 . S
C177 C180 1.424 . S
C177 C182 1.245 . S
C177 C183 1.428 . S
C178 C181 1.260 . S
C178 C182 1.477 . S
C178 H196 0.932 1_565 S
C179 C180 1.384 . S
C179 C181 1.479 . S
C179 H197 0.929 1_655 S
C180 C177 1.424 . S
C180 C179 1.384 . S
C180 H198 0.928 . S
C181 C178 1.260 . S
C181 C179 1.479 . S
C182 C177 1.245 . S
C182 C178 1.477 . S
C182 H199 0.932 . S
C183 U166 2.882 . S
C183 C177 1.428 . S
C183 O186 1.301 . S
C183 O187 1.282 . S
O184 U166 2.441 . S
O184 C170 1.249 . S
O185 U166 2.420 . S
O185 C170 1.202 . S
O186 U166 2.455 . S
O186 C183 1.301 . S
O187 U166 2.449 . S
O187 C183 1.282 . S
H188 C161 0.931 . S
H189 C163 0.929 . S
H190 C164 0.930 1_554 S
H191 C165 0.931 . S
H192 C172 0.932 . S
H193 C173 0.930 . S
H194 C174 0.897 1_545 S
H195 C176 0.930 . S
H196 C178 0.932 1_545 S
H197 C179 0.929 1_455 S
H198 C180 0.928 . S
H199 C182 0.932 . S
C200 C201 1.264 . S
C200 C205 1.479 . S
C200 C210 1.465 . S
C201 C200 1.264 . S
C201 C203 1.339 . S
C201 H228 0.931 . S
C202 C203 1.395 . S
C202 C204 1.320 . S
C203 C201 1.339 . S
C203 C202 1.395 . S
C203 H229 0.929 . S
C204 C202 1.320 . S
C204 C205 1.405 . S
C204 H230 0.930 . S
C205 C200 1.479 . S
C205 C204 1.405 . S
C205 H231 0.931 . S
U206 O207 2.454 . S
U206 O208 2.458 . S
U206 C209 2.984 . S
U206 C210 2.847 . S
U206 C223 2.882 . S
U206 O224 2.441 . S
U206 O225 2.420 . S
U206 O226 2.455 . S
U206 O227 2.449 . S
O207 U206 2.454 . S
O207 C209 1.353 . S
O208 U206 2.458 . S
O208 C209 1.286 . S
C209 U206 2.984 . S
C209 O207 1.353 . S
C209 O208 1.286 . S
C209 C211 1.363 . S
C210 C200 1.465 . S
C210 U206 2.847 . S
C210 O224 1.249 . S
C210 O225 1.202 . S
C211 C209 1.363 . S
C211 C213 1.408 . S
C211 C216 1.342 . S
C212 C213 1.310 . S
C212 C215 1.461 . S
C212 H232 0.932 . S
C213 C211 1.408 . S
C213 C212 1.310 . S
C213 H233 0.930 . S
C214 C215 1.474 . S
C214 C216 1.285 . S
C214 H234 0.929 . S
C215 C212 1.461 . S
C215 C214 1.474 . S
C216 C211 1.342 . S
C216 C214 1.285 . S
C216 H235 0.930 . S
C217 C220 1.424 . S
C217 C222 1.245 . S
C217 C223 1.428 . S
C218 C221 1.260 . S
C218 C222 1.477 . S
C218 H236 0.932 . S
C219 C220 1.384 . S
C219 C221 1.479 . S
C219 H237 0.929 . S
C220 C217 1.424 . S
C220 C219 1.384 . S
C220 H238 0.928 . S
C221 C218 1.260 . S
C221 C219 1.479 . S
C222 C217 1.245 . S
C222 C218 1.477 . S
C222 H239 0.932 . S
C223 U206 2.882 . S
C223 C217 1.428 . S
C223 O226 1.301 . S
C223 O227 1.282 . S
O224 U206 2.441 . S
O224 C210 1.249 . S
O225 U206 2.420 . S
O225 C210 1.202 . S
O226 U206 2.455 . S
O226 C223 1.301 . S
O227 U206 2.449 . S
O227 C223 1.282 . S
H228 C201 0.931 . S
H229 C203 0.929 . S
H230 C204 0.930 . S
H231 C205 0.931 . S
H232 C212 0.932 . S
H233 C213 0.930 . S
H234 C214 0.929 . S
H235 C216 0.930 . S
H236 C218 0.932 . S
H237 C219 0.929 . S
H238 C220 0.928 . S
H239 C222 0.932 . S
C240 C241 1.264 . S
C240 C245 1.479 . S
C240 C250 1.465 . S
C241 C240 1.264 . S
C241 C243 1.339 . S
C241 H268 0.931 . S
C242 C243 1.395 . S
C242 C244 1.320 . S
C243 C241 1.339 . S
C243 C242 1.395 . S
C243 H269 0.929 . S
C244 C242 1.320 . S
C244 C245 1.405 . S
C244 H270 0.930 . S
C245 C240 1.479 . S
C245 C244 1.405 . S
C245 H271 0.931 . S
U246 O247 2.454 . S
U246 O248 2.458 . S
U246 C249 2.984 . S
U246 C250 2.847 . S
U246 C263 2.882 . S
U246 O264 2.441 . S
U246 O265 2.420 . S
U246 O266 2.455 . S
U246 O267 2.449 . S
O247 U246 2.454 . S
O247 C249 1.353 . S
O248 U246 2.458 . S
O248 C249 1.286 . S
C249 U246 2.984 . S
C249 O247 1.353 . S
C249 O248 1.286 . S
C249 C251 1.363 . S
C250 C240 1.465 . S
C250 U246 2.847 . S
C250 O264 1.249 . S
C250 O265 1.202 . S
C251 C249 1.363 . S
C251 C253 1.408 . S
C251 C256 1.342 . S
C252 C253 1.310 . S
C252 C255 1.461 . S
C252 H272 0.932 . S
C253 C251 1.408 . S
C253 C252 1.310 . S
C253 H273 0.930 . S
C254 C255 1.474 . S
C254 C256 1.285 . S
C254 H274 0.929 . S
C255 C252 1.461 . S
C255 C254 1.474 . S
C256 C251 1.342 . S
C256 C254 1.285 . S
C256 H275 0.930 . S
C257 C260 1.424 . S
C257 C262 1.245 . S
C257 C263 1.428 . S
C258 C261 1.260 . S
C258 C262 1.477 . S
C258 H276 0.932 . S
C259 C260 1.384 . S
C259 C261 1.479 . S
C259 H277 0.929 . S
C260 C257 1.424 . S
C260 C259 1.384 . S
C260 H278 0.928 . S
C261 C258 1.260 . S
C261 C259 1.479 . S
C262 C257 1.245 . S
C262 C258 1.477 . S
C262 H279 0.932 . S
C263 U246 2.882 . S
C263 C257 1.428 . S
C263 O266 1.301 . S
C263 O267 1.282 . S
O264 U246 2.441 . S
O264 C250 1.249 . S
O265 U246 2.420 . S
O265 C250 1.202 . S
O266 U246 2.455 . S
O266 C263 1.301 . S
O267 U246 2.449 . S
O267 C263 1.282 . S
H268 C241 0.931 . S
H269 C243 0.929 . S
H270 C244 0.930 . S
H271 C245 0.931 . S
H272 C252 0.932 . S
H273 C253 0.930 . S
H274 C254 0.929 . S
H275 C256 0.930 . S
H276 C258 0.932 . S
H277 C259 0.929 . S
H278 C260 0.928 . S
H279 C262 0.932 . S
C280 C281 1.264 . S
C280 C285 1.479 . S
C280 C290 1.465 . S
C281 C280 1.264 . S
C281 C283 1.339 . S
C281 H308 0.931 . S
C282 C283 1.395 . S
C282 C284 1.320 . S
C283 C281 1.339 . S
C283 C282 1.395 . S
C283 H309 0.929 . S
C284 C282 1.320 . S
C284 C285 1.405 . S
C284 H310 0.930 . S
C285 C280 1.479 . S
C285 C284 1.405 . S
C285 H311 0.931 . S
U286 O287 2.454 . S
U286 O288 2.458 . S
U286 C289 2.984 . S
U286 C290 2.847 . S
U286 C303 2.882 . S
U286 O304 2.441 . S
U286 O305 2.420 . S
U286 O306 2.455 . S
U286 O307 2.449 . S
O287 U286 2.454 . S
O287 C289 1.353 . S
O288 U286 2.458 . S
O288 C289 1.286 . S
C289 U286 2.984 . S
C289 O287 1.353 . S
C289 O288 1.286 . S
C289 C291 1.363 . S
C290 C280 1.465 . S
C290 U286 2.847 . S
C290 O304 1.249 . S
C290 O305 1.202 . S
C291 C289 1.363 . S
C291 C293 1.408 . S
C291 C296 1.342 . S
C292 C293 1.310 . S
C292 C295 1.461 . S
C292 H312 0.932 . S
C293 C291 1.408 . S
C293 C292 1.310 . S
C293 H313 0.930 . S
C294 C295 1.474 . S
C294 C296 1.285 . S
C294 H314 0.929 . S
C295 C292 1.461 . S
C295 C294 1.474 . S
C296 C291 1.342 . S
C296 C294 1.285 . S
C296 H315 0.930 . S
C297 C300 1.424 . S
C297 C302 1.245 . S
C297 C303 1.428 . S
C298 C301 1.260 . S
C298 C302 1.477 . S
C298 H316 0.932 . S
C299 C300 1.384 . S
C299 C301 1.479 . S
C299 H317 0.929 . S
C300 C297 1.424 . S
C300 C299 1.384 . S
C300 H318 0.928 . S
C301 C298 1.260 . S
C301 C299 1.479 . S
C302 C297 1.245 . S
C302 C298 1.477 . S
C302 H319 0.932 . S
C303 U286 2.882 . S
C303 C297 1.428 . S
C303 O306 1.301 . S
C303 O307 1.282 . S
O304 U286 2.441 . S
O304 C290 1.249 . S
O305 U286 2.420 . S
O305 C290 1.202 . S
O306 U286 2.455 . S
O306 C303 1.301 . S
O307 U286 2.449 . S
O307 C303 1.282 . S
H308 C281 0.931 . S
H309 C283 0.929 . S
H310 C284 0.930 . S
H311 C285 0.931 . S
H312 C292 0.932 . S
H313 C293 0.930 . S
H314 C294 0.929 . S
H315 C296 0.930 . S
H316 C298 0.932 . S
H317 C299 0.929 . S
H318 C300 0.928 . S
H319 C302 0.932 . S
Zn320 O326 1.920 . S
Zn320 O332 1.898 . S
Zn320 O335 1.905 . S
Zn321 O329 1.905 1_565 S
Zn321 O330 1.898 . S
Zn321 O338 1.920 . S
Zn322 O325 2.080 1_455 S
Zn322 O328 2.114 . S
Zn322 O331 2.120 1_445 S
Zn322 O333 2.120 . S
Zn322 O334 2.114 1_455 S
Zn322 O337 2.080 . S
C323 O328 1.166 . S
C323 O329 1.182 . S
C324 O330 1.167 1_655 S
C324 O331 1.299 . S
O325 Zn322 2.080 1_655 S
O325 C339 1.305 . S
O326 Zn320 1.920 . S
O326 C339 1.234 . S
C327 O332 1.167 1_455 S
C327 O333 1.299 . S
O328 Zn322 2.114 . S
O328 C323 1.166 . S
O329 Zn321 1.905 1_545 S
O329 C323 1.182 . S
O330 Zn321 1.898 . S
O330 C324 1.167 1_455 S
O331 Zn322 2.120 1_665 S
O331 C324 1.299 . S
O332 Zn320 1.898 . S
O332 C327 1.167 1_655 S
O333 Zn322 2.120 . S
O333 C327 1.299 . S
O334 Zn322 2.114 1_655 S
O334 C336 1.166 . S
O335 Zn320 1.905 . S
O335 C336 1.182 . S
C336 O334 1.166 . S
C336 O335 1.182 . S
O337 Zn322 2.080 . S
O337 C340 1.305 1_545 S
O338 Zn321 1.920 . S
O338 C340 1.234 . S
C339 O325 1.305 . S
C339 O326 1.234 . S
C340 O337 1.305 1_565 S
C340 O338 1.234 . S
Zn341 O347 1.920 1_556 S
Zn341 O353 1.898 . S
Zn341 O356 1.905 . S
Zn342 O350 1.905 . S
Zn342 O351 1.898 . S
Zn342 O359 1.920 . S
Zn343 O346 2.080 . S
Zn343 O349 2.114 1_545 S
Zn343 O352 2.120 1_545 S
Zn343 O354 2.120 . S
Zn343 O355 2.114 1_544 S
Zn343 O358 2.080 . S
C344 O349 1.166 . S
C344 O350 1.182 . S
C345 O351 1.167 . S
C345 O352 1.299 . S
O346 Zn343 2.080 . S
O346 C360 1.305 . S
O347 Zn341 1.920 1_554 S
O347 C360 1.234 . S
C348 O353 1.167 . S
C348 O354 1.299 1_556 S
O349 Zn343 2.114 1_565 S
O349 C344 1.166 . S
O350 Zn342 1.905 . S
O350 C344 1.182 . S
O351 Zn342 1.898 . S
O351 C345 1.167 . S
O352 Zn343 2.120 1_565 S
O352 C345 1.299 . S
O353 Zn341 1.898 . S
O353 C348 1.167 . S
O354 Zn343 2.120 . S
O354 C348 1.299 1_554 S
O355 Zn343 2.114 1_566 S
O355 C357 1.166 . S
O356 Zn341 1.905 . S
O356 C357 1.182 1_545 S
C357 O355 1.166 . S
C357 O356 1.182 1_565 S
O358 Zn343 2.080 . S
O358 C361 1.305 . S
O359 Zn342 1.920 . S
O359 C361 1.234 1_565 S
C360 O346 1.305 . S
C360 O347 1.234 . S
C361 O358 1.305 . S
C361 O359 1.234 1_545 S
Zn362 O368 1.920 . S
Zn362 O374 1.898 . S
Zn362 O377 1.905 . S
Zn363 O371 1.905 . S
Zn363 O372 1.898 . S
Zn363 O380 1.920 . S
Zn364 O367 2.080 . S
Zn364 O370 2.114 . S
Zn364 O373 2.120 . S
Zn364 O375 2.120 . S
Zn364 O376 2.114 . S
Zn364 O379 2.080 . S
C365 O370 1.166 . S
C365 O371 1.182 . S
C366 O372 1.167 . S
C366 O373 1.299 . S
O367 Zn364 2.080 . S
O367 C381 1.305 . S
O368 Zn362 1.920 . S
O368 C381 1.234 . S
C369 O374 1.167 . S
C369 O375 1.299 . S
O370 Zn364 2.114 . S
O370 C365 1.166 . S
O371 Zn363 1.905 . S
O371 C365 1.182 . S
O372 Zn363 1.898 . S
O372 C366 1.167 . S
O373 Zn364 2.120 . S
O373 C366 1.299 . S
O374 Zn362 1.898 . S
O374 C369 1.167 . S
O375 Zn364 2.120 . S
O375 C369 1.299 . S
O376 Zn364 2.114 . S
O376 C378 1.166 . S
O377 Zn362 1.905 . S
O377 C378 1.182 . S
C378 O376 1.166 . S
C378 O377 1.182 . S
O379 Zn364 2.080 . S
O379 C382 1.305 . S
O380 Zn363 1.920 . S
O380 C382 1.234 . S
C381 O367 1.305 . S
C381 O368 1.234 . S
C382 O379 1.305 . S
C382 O380 1.234 . S
Zn383 O389 1.920 . S
Zn383 O395 1.898 . S
Zn383 O398 1.905 . S
Zn384 O392 1.905 1_655 S
Zn384 O393 1.898 . S
Zn384 O401 1.920 . S
Zn385 O388 2.080 1_554 S
Zn385 O391 2.114 . S
Zn385 O394 2.120 1_454 S
Zn385 O396 2.120 . S
Zn385 O397 2.114 1_554 S
Zn385 O400 2.080 . S
C386 O391 1.166 . S
C386 O392 1.182 . S
C387 O393 1.167 1_556 S
C387 O394 1.299 . S
O388 Zn385 2.080 1_556 S
O388 C402 1.305 . S
O389 Zn383 1.920 . S
O389 C402 1.234 . S
C390 O395 1.167 1_554 S
C390 O396 1.299 . S
O391 Zn385 2.114 . S
O391 C386 1.166 . S
O392 Zn384 1.905 1_455 S
O392 C386 1.182 . S
O393 Zn384 1.898 . S
O393 C387 1.167 1_554 S
O394 Zn385 2.120 1_656 S
O394 C387 1.299 . S
O395 Zn383 1.898 . S
O395 C390 1.167 1_556 S
O396 Zn385 2.120 . S
O396 C390 1.299 . S
O397 Zn385 2.114 1_556 S
O397 C399 1.166 . S
O398 Zn383 1.905 . S
O398 C399 1.182 . S
C399 O397 1.166 . S
C399 O398 1.182 . S
O400 Zn385 2.080 . S
O400 C403 1.305 1_455 S
O401 Zn384 1.920 . S
O401 C403 1.234 . S
C402 O388 1.305 . S
C402 O389 1.234 . S
C403 O400 1.305 1_655 S
C403 O401 1.234 . S
C404 C405 1.391 . S
C404 C406 1.394 . S
C404 H420 0.931 . S
C405 C404 1.391 . S
C405 C409 1.376 . S
C406 C404 1.394 . S
C406 C407 1.369 . S
C406 C410 1.531 . S
C407 C406 1.369 . S
C407 C408 1.410 . S
C407 C415 1.503 . S
C408 C407 1.410 . S
C408 C409 1.392 . S
C408 C411 1.511 . S
C409 C405 1.376 . S
C409 C408 1.392 . S
C409 H421 0.929 . S
C410 C406 1.531 . S
C410 H422 0.960 . S
C410 H423 0.962 . S
C410 H424 0.960 . S
C411 C408 1.511 . S
C411 H425 0.961 . S
C411 H426 0.961 . S
C411 H427 0.961 . S
C412 C413 1.370 . S
C412 C414 1.363 . S
C412 H428 0.931 . S
C413 C412 1.370 . S
C413 C417 1.408 . S
C414 C412 1.363 . S
C414 C415 1.370 . S
C414 C418 1.524 . S
C415 C407 1.503 . S
C415 C414 1.370 . S
C415 C416 1.403 . S
C416 C415 1.403 . S
C416 C417 1.404 . S
C416 C419 1.539 . S
C417 C413 1.408 . S
C417 C416 1.404 . S
C417 H429 0.930 . S
C418 C414 1.524 . S
C418 H430 0.956 . S
C418 H431 0.961 . S
C418 H432 0.961 . S
C419 C416 1.539 . S
C419 H433 0.958 . S
C419 H434 0.961 . S
C419 H435 0.960 . S
H420 C404 0.931 . S
H421 C409 0.929 . S
H422 C410 0.960 . S
H423 C410 0.962 . S
H424 C410 0.960 . S
H425 C411 0.961 . S
H426 C411 0.961 . S
H427 C411 0.961 . S
H428 C412 0.931 . S
H429 C417 0.930 . S
H430 C418 0.956 . S
H431 C418 0.961 . S
H432 C418 0.961 . S
H433 C419 0.958 . S
H434 C419 0.961 . S
H435 C419 0.960 . S
C436 C437 1.391 . S
C436 C438 1.394 . S
C436 H452 0.931 . S
C437 C436 1.391 . S
C437 C441 1.376 . S
C438 C436 1.394 . S
C438 C439 1.369 . S
C438 C442 1.531 . S
C439 C438 1.369 . S
C439 C440 1.410 . S
C439 C447 1.503 . S
C440 C439 1.410 . S
C440 C441 1.392 . S
C440 C443 1.511 . S
C441 C437 1.376 . S
C441 C440 1.392 . S
C441 H453 0.929 . S
C442 C438 1.531 . S
C442 H454 0.960 . S
C442 H455 0.962 . S
C442 H456 0.960 . S
C443 C440 1.511 . S
C443 H457 0.961 . S
C443 H458 0.961 . S
C443 H459 0.961 . S
C444 C445 1.370 . S
C444 C446 1.363 . S
C444 H460 0.931 1_565 S
C445 C444 1.370 . S
C445 C449 1.408 . S
C446 C444 1.363 . S
C446 C447 1.370 . S
C446 C450 1.524 . S
C447 C439 1.503 . S
C447 C446 1.370 . S
C447 C448 1.403 . S
C448 C447 1.403 . S
C448 C449 1.404 . S
C448 C451 1.539 . S
C449 C445 1.408 . S
C449 C448 1.404 . S
C449 H461 0.930 . S
C450 C446 1.524 . S
C450 H462 0.956 . S
C450 H463 0.961 . S
C450 H464 0.961 1_565 S
C451 C448 1.539 . S
C451 H465 0.958 . S
C451 H466 0.961 . S
C451 H467 0.960 . S
H452 C436 0.931 . S
H453 C441 0.929 . S
H454 C442 0.960 . S
H455 C442 0.962 . S
H456 C442 0.960 . S
H457 C443 0.961 . S
H458 C443 0.961 . S
H459 C443 0.961 . S
H460 C444 0.931 1_545 S
H461 C449 0.930 . S
H462 C450 0.956 . S
H463 C450 0.961 . S
H464 C450 0.961 1_545 S
H465 C451 0.958 . S
H466 C451 0.961 . S
H467 C451 0.960 . S
C468 C469 1.391 . S
C468 C470 1.394 . S
C468 H484 0.931 . S
C469 C468 1.391 . S
C469 C473 1.376 . S
C470 C468 1.394 . S
C470 C471 1.369 . S
C470 C474 1.531 . S
C471 C470 1.369 . S
C471 C472 1.410 . S
C471 C479 1.503 . S
C472 C471 1.410 . S
C472 C473 1.392 . S
C472 C475 1.511 . S
C473 C469 1.376 . S
C473 C472 1.392 . S
C473 H485 0.929 . S
C474 C470 1.531 . S
C474 H486 0.960 . S
C474 H487 0.962 . S
C474 H488 0.960 . S
C475 C472 1.511 . S
C475 H489 0.961 . S
C475 H490 0.961 . S
C475 H491 0.961 . S
C476 C477 1.370 . S
C476 C478 1.363 . S
C476 H492 0.931 . S
C477 C476 1.370 . S
C477 C481 1.408 . S
C478 C476 1.363 . S
C478 C479 1.370 . S
C478 C482 1.524 . S
C479 C471 1.503 . S
C479 C478 1.370 . S
C479 C480 1.403 . S
C480 C479 1.403 . S
C480 C481 1.404 . S
C480 C483 1.539 . S
C481 C477 1.408 . S
C481 C480 1.404 . S
C481 H493 0.930 . S
C482 C478 1.524 . S
C482 H494 0.956 . S
C482 H495 0.961 . S
C482 H496 0.961 . S
C483 C480 1.539 . S
C483 H497 0.958 . S
C483 H498 0.961 . S
C483 H499 0.960 . S
H484 C468 0.931 . S
H485 C473 0.929 . S
H486 C474 0.960 . S
H487 C474 0.962 . S
H488 C474 0.960 . S
H489 C475 0.961 . S
H490 C475 0.961 . S
H491 C475 0.961 . S
H492 C476 0.931 . S
H493 C481 0.930 . S
H494 C482 0.956 . S
H495 C482 0.961 . S
H496 C482 0.961 . S
H497 C483 0.958 . S
H498 C483 0.961 . S
H499 C483 0.960 . S
C500 C501 1.391 . S
C500 C502 1.394 . S
C500 H516 0.931 . S
C501 C500 1.391 . S
C501 C505 1.376 . S
C502 C500 1.394 . S
C502 C503 1.369 . S
C502 C506 1.531 . S
C503 C502 1.369 . S
C503 C504 1.410 . S
C503 C511 1.503 . S
C504 C503 1.410 . S
C504 C505 1.392 . S
C504 C507 1.511 . S
C505 C501 1.376 . S
C505 C504 1.392 . S
C505 H517 0.929 . S
C506 C502 1.531 . S
C506 H518 0.960 . S
C506 H519 0.962 . S
C506 H520 0.960 . S
C507 C504 1.511 . S
C507 H521 0.961 . S
C507 H522 0.961 . S
C507 H523 0.961 . S
C508 C509 1.370 . S
C508 C510 1.363 . S
C508 H524 0.931 . S
C509 C508 1.370 . S
C509 C513 1.408 1_655 S
C510 C508 1.363 . S
C510 C511 1.370 . S
C510 C514 1.524 . S
C511 C503 1.503 . S
C511 C510 1.370 . S
C511 C512 1.403 . S
C512 C511 1.403 . S
C512 C513 1.404 1_655 S
C512 C515 1.539 1_655 S
C513 C509 1.408 1_455 S
C513 C512 1.404 1_455 S
C513 H525 0.930 . S
C514 C510 1.524 . S
C514 H526 0.956 . S
C514 H527 0.961 . S
C514 H528 0.961 . S
C515 C512 1.539 1_455 S
C515 H529 0.958 . S
C515 H530 0.961 . S
C515 H531 0.960 . S
H516 C500 0.931 . S
H517 C505 0.929 . S
H518 C506 0.960 . S
H519 C506 0.962 . S
H520 C506 0.960 . S
H521 C507 0.961 . S
H522 C507 0.961 . S
H523 C507 0.961 . S
H524 C508 0.931 . S
H525 C513 0.930 . S
H526 C514 0.956 . S
H527 C514 0.961 . S
H528 C514 0.961 . S
H529 C515 0.958 . S
H530 C515 0.961 . S
H531 C515 0.960 . S
C532 C533 1.391 . S
C532 C534 1.394 . S
C532 H548 0.931 . S
C533 C532 1.391 . S
C533 C537 1.376 . S
C534 C532 1.394 . S
C534 C535 1.369 . S
C534 C538 1.531 . S
C535 C534 1.369 . S
C535 C536 1.410 . S
C535 C543 1.503 . S
C536 C535 1.410 . S
C536 C537 1.392 . S
C536 C539 1.511 . S
C537 C533 1.376 . S
C537 C536 1.392 . S
C537 H549 0.929 . S
C538 C534 1.531 . S
C538 H550 0.960 . S
C538 H551 0.962 . S
C538 H552 0.960 . S
C539 C536 1.511 . S
C539 H553 0.961 . S
C539 H554 0.961 . S
C539 H555 0.961 . S
C540 C541 1.370 . S
C540 C542 1.363 . S
C540 H556 0.931 . S
C541 C540 1.370 . S
C541 C545 1.408 . S
C542 C540 1.363 . S
C542 C543 1.370 . S
C542 C546 1.524 . S
C543 C535 1.503 . S
C543 C542 1.370 . S
C543 C544 1.403 . S
C544 C543 1.403 . S
C544 C545 1.404 . S
C544 C547 1.539 . S
C545 C541 1.408 . S
C545 C544 1.404 . S
C545 H557 0.930 . S
C546 C542 1.524 . S
C546 H558 0.956 . S
C546 H559 0.961 . S
C546 H560 0.961 . S
C547 C544 1.539 . S
C547 H561 0.958 . S
C547 H562 0.961 . S
C547 H563 0.960 . S
H548 C532 0.931 . S
H549 C537 0.929 . S
H550 C538 0.960 . S
H551 C538 0.962 . S
H552 C538 0.960 . S
H553 C539 0.961 . S
H554 C539 0.961 . S
H555 C539 0.961 . S
H556 C540 0.931 . S
H557 C545 0.930 . S
H558 C546 0.956 . S
H559 C546 0.961 . S
H560 C546 0.961 . S
H561 C547 0.958 . S
H562 C547 0.961 . S
H563 C547 0.960 . S
C564 C565 1.391 . S
C564 C566 1.394 . S
C564 H580 0.931 . S
C565 C564 1.391 . S
C565 C569 1.376 . S
C566 C564 1.394 . S
C566 C567 1.369 . S
C566 C570 1.531 . S
C567 C566 1.369 . S
C567 C568 1.410 . S
C567 C575 1.503 . S
C568 C567 1.410 . S
C568 C569 1.392 . S
C568 C571 1.511 . S
C569 C565 1.376 . S
C569 C568 1.392 . S
C569 H581 0.929 . S
C570 C566 1.531 . S
C570 H582 0.960 . S
C570 H583 0.962 . S
C570 H584 0.960 . S
C571 C568 1.511 . S
C571 H585 0.961 . S
C571 H586 0.961 . S
C571 H587 0.961 . S
C572 C573 1.360 1_545 S
C572 C574 1.353 1_545 S
C572 H588 0.952 . S
C573 C572 1.360 1_565 S
C573 C577 1.408 . S
C574 C572 1.353 1_565 S
C574 C575 1.370 . S
C574 C578 1.524 1_565 S
C575 C567 1.503 . S
C575 C574 1.370 . S
C575 C576 1.403 . S
C576 C575 1.403 . S
C576 C577 1.404 . S
C576 C579 1.539 . S
C577 C573 1.408 . S
C577 C576 1.404 . S
C577 H589 0.930 . S
C578 C574 1.524 1_545 S
C578 H590 0.956 . S
C578 H591 0.961 1_545 S
C578 H592 0.961 . S
C579 C576 1.539 . S
C579 H593 0.958 . S
C579 H594 0.961 . S
C579 H595 0.960 . S
H580 C564 0.931 . S
H581 C569 0.929 . S
H582 C570 0.960 . S
H583 C570 0.962 . S
H584 C570 0.960 . S
H585 C571 0.961 . S
H586 C571 0.961 . S
H587 C571 0.961 . S
H588 C572 0.952 . S
H589 C577 0.930 . S
H590 C578 0.956 . S
H591 C578 0.961 1_565 S
H592 C578 0.961 . S
H593 C579 0.958 . S
H594 C579 0.961 . S
H595 C579 0.960 . S
C596 C597 1.391 . S
C596 C598 1.394 . S
C596 H612 0.931 . S
C597 C596 1.391 . S
C597 C601 1.376 . S
C598 C596 1.394 . S
C598 C599 1.369 . S
C598 C602 1.531 . S
C599 C598 1.369 . S
C599 C600 1.410 . S
C599 C607 1.503 . S
C600 C599 1.410 . S
C600 C601 1.392 . S
C600 C603 1.511 . S
C601 C597 1.376 . S
C601 C600 1.392 . S
C601 H613 0.929 . S
C602 C598 1.531 . S
C602 H614 0.960 . S
C602 H615 0.962 . S
C602 H616 0.960 . S
C603 C600 1.511 . S
C603 H617 0.961 . S
C603 H618 0.961 . S
C603 H619 0.961 . S
C604 C605 1.370 . S
C604 C606 1.363 . S
C604 H620 0.931 . S
C605 C604 1.370 . S
C605 C609 1.408 . S
C606 C604 1.363 . S
C606 C607 1.370 . S
C606 C610 1.524 . S
C607 C599 1.503 . S
C607 C606 1.370 . S
C607 C608 1.403 . S
C608 C607 1.403 . S
C608 C609 1.404 . S
C608 C611 1.539 . S
C609 C605 1.408 . S
C609 C608 1.404 . S
C609 H621 0.930 1_556 S
C610 C606 1.524 . S
C610 H622 0.956 . S
C610 H623 0.961 . S
C610 H624 0.961 . S
C611 C608 1.539 . S
C611 H625 0.958 1_556 S
C611 H626 0.961 1_556 S
C611 H627 0.960 . S
H612 C596 0.931 . S
H613 C601 0.929 . S
H614 C602 0.960 . S
H615 C602 0.962 . S
H616 C602 0.960 . S
H617 C603 0.961 . S
H618 C603 0.961 . S
H619 C603 0.961 . S
H620 C604 0.931 . S
H621 C609 0.930 1_554 S
H622 C610 0.956 . S
H623 C610 0.961 . S
H624 C610 0.961 . S
H625 C611 0.958 1_554 S
H626 C611 0.961 1_554 S
H627 C611 0.960 . S
C628 C629 1.391 . S
C628 C630 1.394 . S
C628 H644 0.931 . S
C629 C628 1.391 . S
C629 C633 1.376 . S
C630 C628 1.394 . S
C630 C631 1.369 . S
C630 C634 1.531 . S
C631 C630 1.369 . S
C631 C632 1.410 . S
C631 C639 1.503 . S
C632 C631 1.410 . S
C632 C633 1.392 . S
C632 C635 1.511 . S
C633 C629 1.376 . S
C633 C632 1.392 . S
C633 H645 0.929 . S
C634 C630 1.531 . S
C634 H646 0.960 . S
C634 H647 0.962 . S
C634 H648 0.960 . S
C635 C632 1.511 . S
C635 H649 0.961 . S
C635 H650 0.961 . S
C635 H651 0.961 . S
C636 C637 1.370 . S
C636 C638 1.363 . S
C636 H652 0.931 . S
C637 C636 1.370 . S
C637 C641 1.408 . S
C638 C636 1.363 . S
C638 C639 1.370 . S
C638 C642 1.524 . S
C639 C631 1.503 . S
C639 C638 1.370 . S
C639 C640 1.403 . S
C640 C639 1.403 . S
C640 C641 1.404 . S
C640 C643 1.539 . S
C641 C637 1.408 . S
C641 C640 1.404 . S
C641 H653 0.930 . S
C642 C638 1.524 . S
C642 H654 0.956 . S
C642 H655 0.961 . S
C642 H656 0.961 . S
C643 C640 1.539 . S
C643 H657 0.958 . S
C643 H658 0.961 . S
C643 H659 0.960 . S
H644 C628 0.931 . S
H645 C633 0.929 . S
H646 C634 0.960 . S
H647 C634 0.962 . S
H648 C634 0.960 . S
H649 C635 0.961 . S
H650 C635 0.961 . S
H651 C635 0.961 . S
H652 C636 0.931 . S
H653 C641 0.930 . S
H654 C642 0.956 . S
H655 C642 0.961 . S
H656 C642 0.961 . S
H657 C643 0.958 . S
H658 C643 0.961 . S
H659 C643 0.960 . S
C660 C661 1.391 . S
C660 C662 1.394 . S
C660 H676 0.931 . S
C661 C660 1.391 . S
C661 C665 1.376 . S
C662 C660 1.394 . S
C662 C663 1.369 . S
C662 C666 1.531 . S
C663 C662 1.369 . S
C663 C664 1.410 . S
C663 C671 1.503 . S
C664 C663 1.410 . S
C664 C665 1.392 . S
C664 C667 1.511 . S
C665 C661 1.376 . S
C665 C664 1.392 . S
C665 H677 0.929 . S
C666 C662 1.531 . S
C666 H678 0.960 . S
C666 H679 0.962 . S
C666 H680 0.960 . S
C667 C664 1.511 . S
C667 H681 0.961 . S
C667 H682 0.961 . S
C667 H683 0.961 . S
C668 C669 1.370 . S
C668 C670 1.363 . S
C668 H684 0.931 . S
C669 C668 1.370 . S
C669 C673 1.408 . S
C670 C668 1.363 . S
C670 C671 1.370 . S
C670 C674 1.524 . S
C671 C663 1.503 . S
C671 C670 1.370 . S
C671 C672 1.403 . S
C672 C671 1.403 . S
C672 C673 1.404 . S
C672 C675 1.539 . S
C673 C669 1.408 . S
C673 C672 1.404 . S
C673 H685 0.930 . S
C674 C670 1.524 . S
C674 H686 0.956 . S
C674 H687 0.961 . S
C674 H688 0.961 . S
C675 C672 1.539 . S
C675 H689 0.958 . S
C675 H690 0.961 . S
C675 H691 0.960 . S
H676 C660 0.931 . S
H677 C665 0.929 . S
H678 C666 0.960 . S
H679 C666 0.962 . S
H680 C666 0.960 . S
H681 C667 0.961 . S
H682 C667 0.961 . S
H683 C667 0.961 . S
H684 C668 0.931 . S
H685 C673 0.930 . S
H686 C674 0.956 . S
H687 C674 0.961 . S
H688 C674 0.961 . S
H689 C675 0.958 . S
H690 C675 0.961 . S
H691 C675 0.960 . S
C692 C693 1.391 . S
C692 C694 1.394 . S
C692 H708 0.931 . S
C693 C692 1.391 . S
C693 C697 1.376 . S
C694 C692 1.394 . S
C694 C695 1.369 . S
C694 C698 1.531 . S
C695 C694 1.369 . S
C695 C696 1.410 . S
C695 C703 1.503 . S
C696 C695 1.410 . S
C696 C697 1.392 . S
C696 C699 1.511 . S
C697 C693 1.376 . S
C697 C696 1.392 . S
C697 H709 0.929 . S
C698 C694 1.531 . S
C698 H710 0.960 . S
C698 H711 0.962 1_556 S
C698 H712 0.960 1_556 S
C699 C696 1.511 . S
C699 H713 0.961 . S
C699 H714 0.961 . S
C699 H715 0.961 . S
C700 C701 1.370 . S
C700 C702 1.363 . S
C700 H716 0.931 . S
C701 C700 1.370 . S
C701 C705 1.408 . S
C702 C700 1.363 . S
C702 C703 1.370 . S
C702 C706 1.524 . S
C703 C695 1.503 . S
C703 C702 1.370 . S
C703 C704 1.403 . S
C704 C703 1.403 . S
C704 C705 1.404 . S
C704 C707 1.539 . S
C705 C701 1.408 . S
C705 C704 1.404 . S
C705 H717 0.930 . S
C706 C702 1.524 . S
C706 H718 0.956 . S
C706 H719 0.961 . S
C706 H720 0.961 . S
C707 C704 1.539 . S
C707 H721 0.958 . S
C707 H722 0.961 . S
C707 H723 0.960 . S
H708 C692 0.931 . S
H709 C697 0.929 . S
H710 C698 0.960 . S
H711 C698 0.962 1_554 S
H712 C698 0.960 1_554 S
H713 C699 0.961 . S
H714 C699 0.961 . S
H715 C699 0.961 . S
H716 C700 0.931 . S
H717 C705 0.930 . S
H718 C706 0.956 . S
H719 C706 0.961 . S
H720 C706 0.961 . S
H721 C707 0.958 . S
H722 C707 0.961 . S
H723 C707 0.960 . S
C724 C725 1.391 . S
C724 C726 1.394 . S
C724 H740 0.931 . S
C725 C724 1.391 . S
C725 C729 1.376 . S
C726 C724 1.394 . S
C726 C727 1.369 . S
C726 C730 1.531 . S
C727 C726 1.369 . S
C727 C728 1.410 . S
C727 C735 1.503 . S
C728 C727 1.410 . S
C728 C729 1.392 . S
C728 C731 1.511 . S
C729 C725 1.376 . S
C729 C728 1.392 . S
C729 H741 0.929 . S
C730 C726 1.531 . S
C730 H742 0.960 . S
C730 H743 0.962 . S
C730 H744 0.960 . S
C731 C728 1.511 . S
C731 H745 0.961 . S
C731 H746 0.961 . S
C731 H747 0.961 . S
C732 C733 1.370 . S
C732 C734 1.363 . S
C732 H748 0.931 1_655 S
C733 C732 1.370 . S
C733 C737 1.408 . S
C734 C732 1.363 . S
C734 C735 1.370 . S
C734 C738 1.524 . S
C735 C727 1.503 . S
C735 C734 1.370 . S
C735 C736 1.403 . S
C736 C735 1.403 . S
C736 C737 1.404 . S
C736 C739 1.539 . S
C737 C733 1.408 . S
C737 C736 1.404 . S
C737 H749 0.930 . S
C738 C734 1.524 . S
C738 H750 0.956 . S
C738 H751 0.961 . S
C738 H752 0.961 1_655 S
C739 C736 1.539 . S
C739 H753 0.958 . S
C739 H754 0.961 . S
C739 H755 0.960 . S
H740 C724 0.931 . S
H741 C729 0.929 . S
H742 C730 0.960 . S
H743 C730 0.962 . S
H744 C730 0.960 . S
H745 C731 0.961 . S
H746 C731 0.961 . S
H747 C731 0.961 . S
H748 C732 0.931 1_455 S
H749 C737 0.930 . S
H750 C738 0.956 . S
H751 C738 0.961 . S
H752 C738 0.961 1_455 S
H753 C739 0.958 . S
H754 C739 0.961 . S
H755 C739 0.960 . S
C756 C757 1.391 . S
C756 C758 1.394 . S
C756 H772 0.931 . S
C757 C756 1.391 . S
C757 C761 1.376 . S
C758 C756 1.394 . S
C758 C759 1.369 . S
C758 C762 1.531 . S
C759 C758 1.369 . S
C759 C760 1.410 . S
C759 C767 1.503 . S
C760 C759 1.410 . S
C760 C761 1.392 . S
C760 C763 1.511 . S
C761 C757 1.376 . S
C761 C760 1.392 . S
C761 H773 0.929 . S
C762 C758 1.531 . S
C762 H774 0.960 . S
C762 H775 0.962 . S
C762 H776 0.960 . S
C763 C760 1.511 . S
C763 H777 0.961 . S
C763 H778 0.961 . S
C763 H779 0.961 . S
C764 C765 1.370 . S
C764 C766 1.363 . S
C764 H780 0.931 . S
C765 C764 1.370 . S
C765 C769 1.408 . S
C766 C764 1.363 . S
C766 C767 1.370 . S
C766 C770 1.524 . S
C767 C759 1.503 . S
C767 C766 1.370 . S
C767 C768 1.403 . S
C768 C767 1.403 . S
C768 C769 1.404 . S
C768 C771 1.539 . S
C769 C765 1.408 . S
C769 C768 1.404 . S
C769 H781 0.930 . S
C770 C766 1.524 . S
C770 H782 0.956 . S
C770 H783 0.961 . S
C770 H784 0.961 . S
C771 C768 1.539 . S
C771 H785 0.958 . S
C771 H786 0.961 . S
C771 H787 0.960 . S
H772 C756 0.931 . S
H773 C761 0.929 . S
H774 C762 0.960 . S
H775 C762 0.962 . S
H776 C762 0.960 . S
H777 C763 0.961 . S
H778 C763 0.961 . S
H779 C763 0.961 . S
H780 C764 0.931 . S
H781 C769 0.930 . S
H782 C770 0.956 . S
H783 C770 0.961 . S
H784 C770 0.961 . S
H785 C771 0.958 . S
H786 C771 0.961 . S
H787 C771 0.960 . S
C788 C789 1.391 . S
C788 C790 1.394 . S
C788 H804 0.931 . S
C789 C788 1.391 . S
C789 C793 1.376 1_645 S
C790 C788 1.394 . S
C790 C791 1.366 . S
C790 C794 1.531 . S
C791 C790 1.366 . S
C791 C792 1.412 1_645 S
C791 C799 1.503 . S
C792 C791 1.412 1_465 S
C792 C793 1.392 . S
C792 C795 1.511 . S
C793 C789 1.376 1_465 S
C793 C792 1.392 . S
C793 H805 0.929 . S
C794 C790 1.531 . S
C794 H806 0.960 . S
C794 H807 0.962 . S
C794 H808 0.960 . S
C795 C792 1.511 . S
C795 H809 0.961 . S
C795 H810 0.961 . S
C795 H811 0.961 . S
C796 C797 1.366 1_565 S
C796 C798 1.364 . S
C796 H812 0.935 . S
C797 C796 1.366 1_545 S
C797 C801 1.408 1_655 S
C798 C796 1.364 . S
C798 C799 1.370 1_565 S
C798 C802 1.524 . S
C799 C791 1.503 . S
C799 C798 1.370 1_545 S
C799 C800 1.403 1_655 S
C800 C799 1.403 1_455 S
C800 C801 1.404 . S
C800 C803 1.539 . S
C801 C797 1.408 1_455 S
C801 C800 1.404 . S
C801 H813 0.930 . S
C802 C798 1.524 . S
C802 H814 0.956 . S
C802 H815 0.961 . S
C802 H816 0.961 . S
C803 C800 1.539 . S
C803 H817 0.958 . S
C803 H818 0.961 . S
C803 H819 0.960 . S
H804 C788 0.931 . S
H805 C793 0.929 . S
H806 C794 0.960 . S
H807 C794 0.962 . S
H808 C794 0.960 . S
H809 C795 0.961 . S
H810 C795 0.961 . S
H811 C795 0.961 . S
H812 C796 0.935 . S
H813 C801 0.930 . S
H814 C802 0.956 . S
H815 C802 0.961 . S
H816 C802 0.961 . S
H817 C803 0.958 . S
H818 C803 0.961 . S
H819 C803 0.960 . S
C820 C821 1.391 . S
C820 C822 1.394 . S
C820 H836 0.931 . S
C821 C820 1.391 . S
C821 C825 1.376 . S
C822 C820 1.394 . S
C822 C823 1.369 . S
C822 C826 1.531 . S
C823 C822 1.369 . S
C823 C824 1.410 . S
C823 C831 1.503 . S
C824 C823 1.410 . S
C824 C825 1.392 . S
C824 C827 1.511 . S
C825 C821 1.376 . S
C825 C824 1.392 . S
C825 H837 0.929 . S
C826 C822 1.531 . S
C826 H838 0.960 . S
C826 H839 0.962 . S
C826 H840 0.960 . S
C827 C824 1.511 . S
C827 H841 0.961 1_545 S
C827 H842 0.961 1_545 S
C827 H843 0.961 . S
C828 C829 1.370 . S
C828 C830 1.363 . S
C828 H844 0.931 1_545 S
C829 C828 1.370 . S
C829 C833 1.408 . S
C830 C828 1.363 . S
C830 C831 1.370 . S
C830 C834 1.524 1_545 S
C831 C823 1.503 . S
C831 C830 1.370 . S
C831 C832 1.403 . S
C832 C831 1.403 . S
C832 C833 1.404 . S
C832 C835 1.539 . S
C833 C829 1.408 . S
C833 C832 1.404 . S
C833 H845 0.930 . S
C834 C830 1.524 1_565 S
C834 H846 0.956 . S
C834 H847 0.961 . S
C834 H848 0.961 . S
C835 C832 1.539 . S
C835 H849 0.958 . S
C835 H850 0.961 . S
C835 H851 0.960 . S
H836 C820 0.931 . S
H837 C825 0.929 . S
H838 C826 0.960 . S
H839 C826 0.962 . S
H840 C826 0.960 . S
H841 C827 0.961 1_565 S
H842 C827 0.961 1_565 S
H843 C827 0.961 . S
H844 C828 0.931 1_565 S
H845 C833 0.930 . S
H846 C834 0.956 . S
H847 C834 0.961 . S
H848 C834 0.961 . S
H849 C835 0.958 . S
H850 C835 0.961 . S
H851 C835 0.960 . S
C852 C853 1.391 . S
C852 C854 1.394 . S
C852 H868 0.931 . S
C853 C852 1.391 . S
C853 C857 1.376 . S
C854 C852 1.394 . S
C854 C855 1.369 . S
C854 C858 1.531 . S
C855 C854 1.369 . S
C855 C856 1.410 . S
C855 C863 1.503 . S
C856 C855 1.410 . S
C856 C857 1.392 . S
C856 C859 1.511 . S
C857 C853 1.376 . S
C857 C856 1.392 . S
C857 H869 0.929 . S
C858 C854 1.531 . S
C858 H870 0.960 . S
C858 H871 0.962 . S
C858 H872 0.960 . S
C859 C856 1.511 . S
C859 H873 0.961 . S
C859 H874 0.961 . S
C859 H875 0.961 . S
C860 C861 1.370 . S
C860 C862 1.363 . S
C860 H876 0.931 . S
C861 C860 1.370 . S
C861 C865 1.408 . S
C862 C860 1.363 . S
C862 C863 1.370 . S
C862 C866 1.524 . S
C863 C855 1.503 . S
C863 C862 1.370 . S
C863 C864 1.403 . S
C864 C863 1.403 . S
C864 C865 1.404 . S
C864 C867 1.539 . S
C865 C861 1.408 . S
C865 C864 1.404 . S
C865 H877 0.930 . S
C866 C862 1.524 . S
C866 H878 0.956 . S
C866 H879 0.961 . S
C866 H880 0.961 . S
C867 C864 1.539 . S
C867 H881 0.958 . S
C867 H882 0.961 . S
C867 H883 0.960 . S
H868 C852 0.931 . S
H869 C857 0.929 . S
H870 C858 0.960 . S
H871 C858 0.962 . S
H872 C858 0.960 . S
H873 C859 0.961 . S
H874 C859 0.961 . S
H875 C859 0.961 . S
H876 C860 0.931 . S
H877 C865 0.930 . S
H878 C866 0.956 . S
H879 C866 0.961 . S
H880 C866 0.961 . S
H881 C867 0.958 . S
H882 C867 0.961 . S
H883 C867 0.960 . S
C884 C885 1.391 . S
C884 C886 1.394 . S
C884 H900 0.931 . S
C885 C884 1.391 . S
C885 C889 1.376 . S
C886 C884 1.394 . S
C886 C887 1.369 . S
C886 C890 1.531 . S
C887 C886 1.369 . S
C887 C888 1.410 . S
C887 C895 1.503 . S
C888 C887 1.410 . S
C888 C889 1.392 . S
C888 C891 1.511 . S
C889 C885 1.376 . S
C889 C888 1.392 . S
C889 H901 0.929 . S
C890 C886 1.531 . S
C890 H902 0.960 . S
C890 H903 0.962 1_455 S
C890 H904 0.960 1_455 S
C891 C888 1.511 . S
C891 H905 0.961 . S
C891 H906 0.961 . S
C891 H907 0.961 . S
C892 C893 1.370 . S
C892 C894 1.363 . S
C892 H908 0.931 . S
C893 C892 1.370 . S
C893 C897 1.408 . S
C894 C892 1.363 . S
C894 C895 1.370 . S
C894 C898 1.524 . S
C895 C887 1.503 . S
C895 C894 1.370 . S
C895 C896 1.403 . S
C896 C895 1.403 . S
C896 C897 1.404 . S
C896 C899 1.539 . S
C897 C893 1.408 . S
C897 C896 1.404 . S
C897 H909 0.930 . S
C898 C894 1.524 . S
C898 H910 0.956 . S
C898 H911 0.961 . S
C898 H912 0.961 . S
C899 C896 1.539 . S
C899 H913 0.958 . S
C899 H914 0.961 . S
C899 H915 0.960 . S
H900 C884 0.931 . S
H901 C889 0.929 . S
H902 C890 0.960 . S
H903 C890 0.962 1_655 S
H904 C890 0.960 1_655 S
H905 C891 0.961 . S
H906 C891 0.961 . S
H907 C891 0.961 . S
H908 C892 0.931 . S
H909 C897 0.930 . S
H910 C898 0.956 . S
H911 C898 0.961 . S
H912 C898 0.961 . S
H913 C899 0.958 . S
H914 C899 0.961 . S
H915 C899 0.960 . S
C916 C917 1.391 . S
C916 C918 1.394 . S
C916 H932 0.931 . S
C917 C916 1.391 . S
C917 C921 1.376 1_564 S
C918 C916 1.394 . S
C918 C919 1.369 . S
C918 C922 1.531 . S
C919 C918 1.369 . S
C919 C920 1.410 1_564 S
C919 C927 1.503 . S
C920 C919 1.410 1_546 S
C920 C921 1.392 . S
C920 C923 1.511 . S
C921 C917 1.376 1_546 S
C921 C920 1.392 . S
C921 H933 0.929 . S
C922 C918 1.531 . S
C922 H934 0.960 . S
C922 H935 0.962 . S
C922 H936 0.960 . S
C923 C920 1.511 . S
C923 H937 0.961 . S
C923 H938 0.961 . S
C923 H939 0.961 . S
C924 C925 1.370 1_556 S
C924 C926 1.363 . S
C924 H940 0.931 . S
C925 C924 1.370 1_554 S
C925 C929 1.408 1_565 S
C926 C924 1.363 . S
C926 C927 1.370 1_556 S
C926 C930 1.524 . S
C927 C919 1.503 . S
C927 C926 1.370 1_554 S
C927 C928 1.403 1_565 S
C928 C927 1.403 1_545 S
C928 C929 1.404 . S
C928 C931 1.539 . S
C929 C925 1.408 1_545 S
C929 C928 1.404 . S
C929 H941 0.930 . S
C930 C926 1.524 . S
C930 H942 0.956 . S
C930 H943 0.961 . S
C930 H944 0.961 . S
C931 C928 1.539 . S
C931 H945 0.958 . S
C931 H946 0.961 . S
C931 H947 0.960 . S
H932 C916 0.931 . S
H933 C921 0.929 . S
H934 C922 0.960 . S
H935 C922 0.962 . S
H936 C922 0.960 . S
H937 C923 0.961 . S
H938 C923 0.961 . S
H939 C923 0.961 . S
H940 C924 0.931 . S
H941 C929 0.930 . S
H942 C930 0.956 . S
H943 C930 0.961 . S
H944 C930 0.961 . S
H945 C931 0.958 . S
H946 C931 0.961 . S
H947 C931 0.960 . S
C948 C949 1.391 . S
C948 C950 1.394 . S
C948 H964 0.931 . S
C949 C948 1.391 . S
C949 C953 1.376 . S
C950 C948 1.394 . S
C950 C951 1.369 . S
C950 C954 1.531 . S
C951 C950 1.369 . S
C951 C952 1.410 . S
C951 C959 1.503 . S
C952 C951 1.410 . S
C952 C953 1.392 . S
C952 C955 1.511 . S
C953 C949 1.376 . S
C953 C952 1.392 . S
C953 H965 0.929 . S
C954 C950 1.531 . S
C954 H966 0.960 . S
C954 H967 0.962 . S
C954 H968 0.960 . S
C955 C952 1.511 . S
C955 H969 0.961 . S
C955 H970 0.961 . S
C955 H971 0.961 . S
C956 C957 1.370 . S
C956 C958 1.363 . S
C956 H972 0.931 . S
C957 C956 1.370 . S
C957 C961 1.408 . S
C958 C956 1.363 . S
C958 C959 1.370 . S
C958 C962 1.524 1_545 S
C959 C951 1.503 . S
C959 C958 1.370 . S
C959 C960 1.403 . S
C960 C959 1.403 . S
C960 C961 1.404 . S
C960 C963 1.539 . S
C961 C957 1.408 . S
C961 C960 1.404 . S
C961 H973 0.930 . S
C962 C958 1.524 1_565 S
C962 H974 0.956 . S
C962 H975 0.961 . S
C962 H976 0.961 . S
C963 C960 1.539 . S
C963 H977 0.958 . S
C963 H978 0.961 . S
C963 H979 0.960 . S
H964 C948 0.931 . S
H965 C953 0.929 . S
H966 C954 0.960 . S
H967 C954 0.962 . S
H968 C954 0.960 . S
H969 C955 0.961 . S
H970 C955 0.961 . S
H971 C955 0.961 . S
H972 C956 0.931 . S
H973 C961 0.930 . S
H974 C962 0.956 . S
H975 C962 0.961 . S
H976 C962 0.961 . S
H977 C963 0.958 . S
H978 C963 0.961 . S
H979 C963 0.960 . S
C980 C981 1.391 . S
C980 C982 1.394 . S
C980 H996 0.931 1_554 S
C981 C980 1.391 . S
C981 C985 1.376 . S
C982 C980 1.394 . S
C982 C983 1.369 . S
C982 C986 1.531 1_554 S
C983 C982 1.369 . S
C983 C984 1.410 . S
C983 C991 1.503 . S
C984 C983 1.410 . S
C984 C985 1.392 . S
C984 C987 1.511 . S
C985 C981 1.376 . S
C985 C984 1.392 . S
C985 H997 0.929 . S
C986 C982 1.531 1_556 S
C986 H998 0.960 . S
C986 H999 0.962 . S
C986 H1000 0.960 . S
C987 C984 1.511 . S
C987 H1001 0.961 . S
C987 H1002 0.961 . S
C987 H1003 0.961 . S
C988 C989 1.370 . S
C988 C990 1.363 . S
C988 H1004 0.931 1_554 S
C989 C988 1.370 . S
C989 C993 1.408 . S
C990 C988 1.363 . S
C990 C991 1.370 . S
C990 C994 1.524 1_554 S
C991 C983 1.503 . S
C991 C990 1.370 . S
C991 C992 1.403 . S
C992 C991 1.403 . S
C992 C993 1.404 . S
C992 C995 1.539 . S
C993 C989 1.408 . S
C993 C992 1.404 . S
C993 H1005 0.930 . S
C994 C990 1.524 1_556 S
C994 H1006 0.956 . S
C994 H1007 0.961 1_556 S
C994 H1008 0.961 . S
C995 C992 1.539 . S
C995 H1009 0.958 . S
C995 H1010 0.961 . S
C995 H1011 0.960 . S
H996 C980 0.931 1_556 S
H997 C985 0.929 . S
H998 C986 0.960 . S
H999 C986 0.962 . S
H1000 C986 0.960 . S
H1001 C987 0.961 . S
H1002 C987 0.961 . S
H1003 C987 0.961 . S
H1004 C988 0.931 1_556 S
H1005 C993 0.930 . S
H1006 C994 0.956 . S
H1007 C994 0.961 1_554 S
H1008 C994 0.961 . S
H1009 C995 0.958 . S
H1010 C995 0.961 . S
H1011 C995 0.960 . S
C1012 C1013 1.391 . S
C1012 C1014 1.394 . S
C1012 H1028 0.931 . S
C1013 C1012 1.391 . S
C1013 C1017 1.376 . S
C1014 C1012 1.394 . S
C1014 C1015 1.369 . S
C1014 C1018 1.531 . S
C1015 C1014 1.369 . S
C1015 C1016 1.410 . S
C1015 C1023 1.503 . S
C1016 C1015 1.410 . S
C1016 C1017 1.392 . S
C1016 C1019 1.511 . S
C1017 C1013 1.376 . S
C1017 C1016 1.392 . S
C1017 H1029 0.929 . S
C1018 C1014 1.531 . S
C1018 H1030 0.960 . S
C1018 H1031 0.962 . S
C1018 H1032 0.960 . S
C1019 C1016 1.511 . S
C1019 H1033 0.961 . S
C1019 H1034 0.961 . S
C1019 H1035 0.961 . S
C1020 C1021 1.370 . S
C1020 C1022 1.363 . S
C1020 H1036 0.931 . S
C1021 C1020 1.370 . S
C1021 C1025 1.408 . S
C1022 C1020 1.363 . S
C1022 C1023 1.370 . S
C1022 C1026 1.524 . S
C1023 C1015 1.503 . S
C1023 C1022 1.370 . S
C1023 C1024 1.403 . S
C1024 C1023 1.403 . S
C1024 C1025 1.404 . S
C1024 C1027 1.539 . S
C1025 C1021 1.408 . S
C1025 C1024 1.404 . S
C1025 H1037 0.930 . S
C1026 C1022 1.524 . S
C1026 H1038 0.956 . S
C1026 H1039 0.961 . S
C1026 H1040 0.961 . S
C1027 C1024 1.539 . S
C1027 H1041 0.958 . S
C1027 H1042 0.961 . S
C1027 H1043 0.960 . S
H1028 C1012 0.931 . S
H1029 C1017 0.929 . S
H1030 C1018 0.960 . S
H1031 C1018 0.962 . S
H1032 C1018 0.960 . S
H1033 C1019 0.961 . S
H1034 C1019 0.961 . S
H1035 C1019 0.961 . S
H1036 C1020 0.931 . S
H1037 C1025 0.930 . S
H1038 C1026 0.956 . S
H1039 C1026 0.961 . S
H1040 C1026 0.961 . S
H1041 C1027 0.958 . S
H1042 C1027 0.961 . S
H1043 C1027 0.960 . S
C1044 C1045 1.391 1_554 S
C1044 C1046 1.394 . S
C1044 H1060 0.931 . S
C1045 C1044 1.391 1_556 S
C1045 C1049 1.376 1_455 S
C1046 C1044 1.394 . S
C1046 C1047 1.369 1_554 S
C1046 C1050 1.531 . S
C1047 C1046 1.369 1_556 S
C1047 C1048 1.410 1_455 S
C1047 C1055 1.503 . S
C1048 C1047 1.410 1_655 S
C1048 C1049 1.392 . S
C1048 C1051 1.511 . S
C1049 C1045 1.376 1_655 S
C1049 C1048 1.392 . S
C1049 H1061 0.929 . S
C1050 C1046 1.531 . S
C1050 H1062 0.960 . S
C1050 H1063 0.962 . S
C1050 H1064 0.960 . S
C1051 C1048 1.511 . S
C1051 H1065 0.961 . S
C1051 H1066 0.961 . S
C1051 H1067 0.961 . S
C1052 C1053 1.370 . S
C1052 C1054 1.363 . S
C1052 H1068 0.931 . S
C1053 C1052 1.370 . S
C1053 C1057 1.432 1_556 S
C1054 C1052 1.363 . S
C1054 C1055 1.370 . S
C1054 C1058 1.524 . S
C1055 C1047 1.503 . S
C1055 C1054 1.370 . S
C1055 C1056 1.403 1_456 S
C1056 C1055 1.403 1_654 S
C1056 C1057 1.400 1_655 S
C1056 C1059 1.539 . S
C1057 C1053 1.432 1_554 S
C1057 C1056 1.400 1_455 S
C1057 H1069 0.912 1_455 S
C1058 C1054 1.524 . S
C1058 H1070 0.956 . S
C1058 H1071 0.961 . S
C1058 H1072 0.961 . S
C1059 C1056 1.539 . S
C1059 H1073 0.958 . S
C1059 H1074 0.961 . S
C1059 H1075 0.960 . S
H1060 C1044 0.931 . S
H1061 C1049 0.929 . S
H1062 C1050 0.960 . S
H1063 C1050 0.962 . S
H1064 C1050 0.960 . S
H1065 C1051 0.961 . S
H1066 C1051 0.961 . S
H1067 C1051 0.961 . S
H1068 C1052 0.931 . S
H1069 C1057 0.912 1_655 S
H1070 C1058 0.956 . S
H1071 C1058 0.961 . S
H1072 C1058 0.961 . S
H1073 C1059 0.958 . S
H1074 C1059 0.961 . S
H1075 C1059 0.960 . S
C1076 C1077 1.391 . S
C1076 C1078 1.394 . S
C1076 H1092 0.931 . S
C1077 C1076 1.391 . S
C1077 C1081 1.376 . S
C1078 C1076 1.394 . S
C1078 C1079 1.369 . S
C1078 C1082 1.531 . S
C1079 C1078 1.369 . S
C1079 C1080 1.410 . S
C1079 C1087 1.503 . S
C1080 C1079 1.410 . S
C1080 C1081 1.392 . S
C1080 C1083 1.511 . S
C1081 C1077 1.376 . S
C1081 C1080 1.392 . S
C1081 H1093 0.929 . S
C1082 C1078 1.531 . S
C1082 H1094 0.960 . S
C1082 H1095 0.962 . S
C1082 H1096 0.960 . S
C1083 C1080 1.511 . S
C1083 H1097 0.961 . S
C1083 H1098 0.961 . S
C1083 H1099 0.961 . S
C1084 C1085 1.370 . S
C1084 C1086 1.363 . S
C1084 H1100 0.931 . S
C1085 C1084 1.370 . S
C1085 C1089 1.408 . S
C1086 C1084 1.363 . S
C1086 C1087 1.370 . S
C1086 C1090 1.524 . S
C1087 C1079 1.503 . S
C1087 C1086 1.370 . S
C1087 C1088 1.403 . S
C1088 C1087 1.403 . S
C1088 C1089 1.404 . S
C1088 C1091 1.539 1_554 S
C1089 C1085 1.408 . S
C1089 C1088 1.404 . S
C1089 H1101 0.930 1_554 S
C1090 C1086 1.524 . S
C1090 H1102 0.956 . S
C1090 H1103 0.961 . S
C1090 H1104 0.961 . S
C1091 C1088 1.539 1_556 S
C1091 H1105 0.958 . S
C1091 H1106 0.961 . S
C1091 H1107 0.960 . S
H1092 C1076 0.931 . S
H1093 C1081 0.929 . S
H1094 C1082 0.960 . S
H1095 C1082 0.962 . S
H1096 C1082 0.960 . S
H1097 C1083 0.961 . S
H1098 C1083 0.961 . S
H1099 C1083 0.961 . S
H1100 C1084 0.931 . S
H1101 C1089 0.930 1_556 S
H1102 C1090 0.956 . S
H1103 C1090 0.961 . S
H1104 C1090 0.961 . S
H1105 C1091 0.958 . S
H1106 C1091 0.961 . S
H1107 C1091 0.960 . S
C1108 C1109 1.391 . S
C1108 C1110 1.394 . S
C1108 H1124 0.931 . S
C1109 C1108 1.391 . S
C1109 C1113 1.376 . S
C1110 C1108 1.394 . S
C1110 C1111 1.369 . S
C1110 C1114 1.531 1_455 S
C1111 C1110 1.369 . S
C1111 C1112 1.410 . S
C1111 C1119 1.503 . S
C1112 C1111 1.410 . S
C1112 C1113 1.392 . S
C1112 C1115 1.511 . S
C1113 C1109 1.376 . S
C1113 C1112 1.392 . S
C1113 H1125 0.929 . S
C1114 C1110 1.531 1_655 S
C1114 H1126 0.960 . S
C1114 H1127 0.962 . S
C1114 H1128 0.960 . S
C1115 C1112 1.511 . S
C1115 H1129 0.961 . S
C1115 H1130 0.961 . S
C1115 H1131 0.961 . S
C1116 C1117 1.370 . S
C1116 C1118 1.363 . S
C1116 H1132 0.931 . S
C1117 C1116 1.370 . S
C1117 C1121 1.408 . S
C1118 C1116 1.363 . S
C1118 C1119 1.370 . S
C1118 C1122 1.524 . S
C1119 C1111 1.503 . S
C1119 C1118 1.370 . S
C1119 C1120 1.403 . S
C1120 C1119 1.403 . S
C1120 C1121 1.404 . S
C1120 C1123 1.539 . S
C1121 C1117 1.408 . S
C1121 C1120 1.404 . S
C1121 H1133 0.930 . S
C1122 C1118 1.524 . S
C1122 H1134 0.956 1_455 S
C1122 H1135 0.961 . S
C1122 H1136 0.960 1_455 S
C1123 C1120 1.539 . S
C1123 H1137 0.958 . S
C1123 H1138 0.961 . S
C1123 H1139 0.960 . S
H1124 C1108 0.931 . S
H1125 C1113 0.929 . S
H1126 C1114 0.960 . S
H1127 C1114 0.962 . S
H1128 C1114 0.960 . S
H1129 C1115 0.961 . S
H1130 C1115 0.961 . S
H1131 C1115 0.961 . S
H1132 C1116 0.931 . S
H1133 C1121 0.930 . S
H1134 C1122 0.956 1_655 S
H1135 C1122 0.961 . S
H1136 C1122 0.960 1_655 S
H1137 C1123 0.958 . S
H1138 C1123 0.961 . S
H1139 C1123 0.960 . S
C1140 C1141 1.391 . S
C1140 C1142 1.394 . S
C1140 H1156 0.931 . S
C1141 C1140 1.391 . S
C1141 C1145 1.376 . S
C1142 C1140 1.394 . S
C1142 C1143 1.369 . S
C1142 C1146 1.531 . S
C1143 C1142 1.369 . S
C1143 C1144 1.410 . S
C1143 C1151 1.503 . S
C1144 C1143 1.410 . S
C1144 C1145 1.392 . S
C1144 C1147 1.511 . S
C1145 C1141 1.376 . S
C1145 C1144 1.392 . S
C1145 H1157 0.929 . S
C1146 C1142 1.531 . S
C1146 H1158 0.960 . S
C1146 H1159 0.962 . S
C1146 H1160 0.960 . S
C1147 C1144 1.511 . S
C1147 H1161 0.961 . S
C1147 H1162 0.961 . S
C1147 H1163 0.961 . S
C1148 C1149 1.370 . S
C1148 C1150 1.363 . S
C1148 H1164 0.931 . S
C1149 C1148 1.370 . S
C1149 C1153 1.408 . S
C1150 C1148 1.363 . S
C1150 C1151 1.370 . S
C1150 C1154 1.524 . S
C1151 C1143 1.503 . S
C1151 C1150 1.370 . S
C1151 C1152 1.403 . S
C1152 C1151 1.403 . S
C1152 C1153 1.404 . S
C1152 C1155 1.539 . S
C1153 C1149 1.408 . S
C1153 C1152 1.404 . S
C1153 H1165 0.930 . S
C1154 C1150 1.524 . S
C1154 H1166 0.956 . S
C1154 H1167 0.961 . S
C1154 H1168 0.961 . S
C1155 C1152 1.539 . S
C1155 H1169 0.958 . S
C1155 H1170 0.961 . S
C1155 H1171 0.960 . S
H1156 C1140 0.931 . S
H1157 C1145 0.929 . S
H1158 C1146 0.960 . S
H1159 C1146 0.962 . S
H1160 C1146 0.960 . S
H1161 C1147 0.961 . S
H1162 C1147 0.961 . S
H1163 C1147 0.961 . S
H1164 C1148 0.931 . S
H1165 C1153 0.930 . S
H1166 C1154 0.956 . S
H1167 C1154 0.961 . S
H1168 C1154 0.961 . S
H1169 C1155 0.958 . S
H1170 C1155 0.961 . S
H1171 C1155 0.960 . S
C405 C21 1.547 . S
C413 C323 1.446 . S
C437 C61 1.516 . S
C445 C357 1.444 . S
C477 C369 1.327 . S
C469 C82 1.433 . S
C501 C135 1.520 . S
C509 C403 1.430 . S
C541 C360 1.412 . S
C533 C15 1.532 . S
C573 C340 1.425 . S
C565 C42 1.502 . S
C605 C387 1.373 . S
C597 C101 1.471 . S
C637 C378 1.395 . S
C629 C122 1.455 . S
C661 C2 1.566 . S
C669 C386 1.466 . S
C701 C348 1.339 . S
C693 C95 1.449 . S
C725 C141 1.525 . S
C733 C324 1.427 . S
C757 C55 1.503 . S
C765 C381 1.384 . S
C797 C339 1.734 . S
C789 C181 1.779 1_545 S
C821 C202 1.666 . S
C829 C361 1.696 . S
C853 C255 1.741 . S
C861 C366 1.699 . S
C885 C295 1.761 . S
C893 C399 1.714 . S
C917 C175 1.810 1_554 S
C925 C344 1.717 . S
C957 C336 1.743 . S
C949 C221 1.732 . S
C989 C390 1.700 . S
C981 C242 1.693 . S
C1021 C382 1.709 . S
C1013 C301 1.846 . S
C1045 C162 1.681 1_455 S
C1053 C402 1.690 . S
C1085 C345 1.723 . S
C1077 C261 1.734 . S
C1117 C327 1.710 . S
C1109 C282 1.827 . S
C1141 C215 1.808 . S
C1149 C365 1.747 . S
