# Generated by pormake.
# Topology ocu, (6,8)-cn, num edge types: 1
# Building blocks:
#     Node 0, Type 0, BuildingBlock: CUKXOW_clean_sbu_0, # of connection points: 6
#     Node 1, Type 0, BuildingBlock: CUKXOW_clean_sbu_0, # of connection points: 6
#     Node 2, Type 0, BuildingBlock: CUKXOW_clean_sbu_0, # of connection points: 6
#     Node 3, Type 0, BuildingBlock: CUKXOW_clean_sbu_0, # of connection points: 6
#     Node 4, Type 0, BuildingBlock: CUKXOW_clean_sbu_0, # of connection points: 6
#     Node 5, Type 0, BuildingBlock: CUKXOW_clean_sbu_0, # of connection points: 6
#     Node 6, Type 0, BuildingBlock: CUKXOW_clean_sbu_0, # of connection points: 6
#     Node 7, Type 0, BuildingBlock: CUKXOW_clean_sbu_0, # of connection points: 6
#     Node 8, Type 1, BuildingBlock: TAGTUT_clean_sbu_1, # of connection points: 8
#     Node 9, Type 1, BuildingBlock: TAGTUT_clean_sbu_1, # of connection points: 8
#     Node 10, Type 1, BuildingBlock: TAGTUT_clean_sbu_1, # of connection points: 8
#     Node 11, Type 1, BuildingBlock: TAGTUT_clean_sbu_1, # of connection points: 8
#     Node 12, Type 1, BuildingBlock: TAGTUT_clean_sbu_1, # of connection points: 8
#     Node 13, Type 1, BuildingBlock: TAGTUT_clean_sbu_1, # of connection points: 8
#     Edge 14, Type (0, 1), BuildingBlock: ZUJKAS_clean_linker_0, # of connection points: 2
#     Edge 15, Type (0, 1), BuildingBlock: ZUJKAS_clean_linker_0, # of connection points: 2
#     Edge 16, Type (0, 1), BuildingBlock: ZUJKAS_clean_linker_0, # of connection points: 2
#     Edge 17, Type (0, 1), BuildingBlock: ZUJKAS_clean_linker_0, # of connection points: 2
#     Edge 18, Type (0, 1), BuildingBlock: ZUJKAS_clean_linker_0, # of connection points: 2
#     Edge 19, Type (0, 1), BuildingBlock: ZUJKAS_clean_linker_0, # of connection points: 2
#     Edge 20, Type (0, 1), BuildingBlock: ZUJKAS_clean_linker_0, # of connection points: 2
#     Edge 21, Type (0, 1), BuildingBlock: ZUJKAS_clean_linker_0, # of connection points: 2
#     Edge 22, Type (0, 1), BuildingBlock: ZUJKAS_clean_linker_0, # of connection points: 2
#     Edge 23, Type (0, 1), BuildingBlock: ZUJKAS_clean_linker_0, # of connection points: 2
#     Edge 24, Type (0, 1), BuildingBlock: ZUJKAS_clean_linker_0, # of connection points: 2
#     Edge 25, Type (0, 1), BuildingBlock: ZUJKAS_clean_linker_0, # of connection points: 2
#     Edge 26, Type (0, 1), BuildingBlock: ZUJKAS_clean_linker_0, # of connection points: 2
#     Edge 27, Type (0, 1), BuildingBlock: ZUJKAS_clean_linker_0, # of connection points: 2
#     Edge 28, Type (0, 1), BuildingBlock: ZUJKAS_clean_linker_0, # of connection points: 2
#     Edge 29, Type (0, 1), BuildingBlock: ZUJKAS_clean_linker_0, # of connection points: 2
#     Edge 30, Type (0, 1), BuildingBlock: ZUJKAS_clean_linker_0, # of connection points: 2
#     Edge 31, Type (0, 1), BuildingBlock: ZUJKAS_clean_linker_0, # of connection points: 2
#     Edge 32, Type (0, 1), BuildingBlock: ZUJKAS_clean_linker_0, # of connection points: 2
#     Edge 33, Type (0, 1), BuildingBlock: ZUJKAS_clean_linker_0, # of connection points: 2
#     Edge 34, Type (0, 1), BuildingBlock: ZUJKAS_clean_linker_0, # of connection points: 2
#     Edge 35, Type (0, 1), BuildingBlock: ZUJKAS_clean_linker_0, # of connection points: 2
#     Edge 36, Type (0, 1), BuildingBlock: ZUJKAS_clean_linker_0, # of connection points: 2
#     Edge 37, Type (0, 1), BuildingBlock: ZUJKAS_clean_linker_0, # of connection points: 2
#     Edge 38, Type (0, 1), BuildingBlock: ZUJKAS_clean_linker_0, # of connection points: 2
#     Edge 39, Type (0, 1), BuildingBlock: ZUJKAS_clean_linker_0, # of connection points: 2
#     Edge 40, Type (0, 1), BuildingBlock: ZUJKAS_clean_linker_0, # of connection points: 2
#     Edge 41, Type (0, 1), BuildingBlock: ZUJKAS_clean_linker_0, # of connection points: 2
#     Edge 42, Type (0, 1), BuildingBlock: ZUJKAS_clean_linker_0, # of connection points: 2
#     Edge 43, Type (0, 1), BuildingBlock: ZUJKAS_clean_linker_0, # of connection points: 2
#     Edge 44, Type (0, 1), BuildingBlock: ZUJKAS_clean_linker_0, # of connection points: 2
#     Edge 45, Type (0, 1), BuildingBlock: ZUJKAS_clean_linker_0, # of connection points: 2
#     Edge 46, Type (0, 1), BuildingBlock: ZUJKAS_clean_linker_0, # of connection points: 2
#     Edge 47, Type (0, 1), BuildingBlock: ZUJKAS_clean_linker_0, # of connection points: 2
#     Edge 48, Type (0, 1), BuildingBlock: ZUJKAS_clean_linker_0, # of connection points: 2
#     Edge 49, Type (0, 1), BuildingBlock: ZUJKAS_clean_linker_0, # of connection points: 2
#     Edge 50, Type (0, 1), BuildingBlock: ZUJKAS_clean_linker_0, # of connection points: 2
#     Edge 51, Type (0, 1), BuildingBlock: ZUJKAS_clean_linker_0, # of connection points: 2
#     Edge 52, Type (0, 1), BuildingBlock: ZUJKAS_clean_linker_0, # of connection points: 2
#     Edge 53, Type (0, 1), BuildingBlock: ZUJKAS_clean_linker_0, # of connection points: 2
#     Edge 54, Type (0, 1), BuildingBlock: ZUJKAS_clean_linker_0, # of connection points: 2
#     Edge 55, Type (0, 1), BuildingBlock: ZUJKAS_clean_linker_0, # of connection points: 2
#     Edge 56, Type (0, 1), BuildingBlock: ZUJKAS_clean_linker_0, # of connection points: 2
#     Edge 57, Type (0, 1), BuildingBlock: ZUJKAS_clean_linker_0, # of connection points: 2
#     Edge 58, Type (0, 1), BuildingBlock: ZUJKAS_clean_linker_0, # of connection points: 2
#     Edge 59, Type (0, 1), BuildingBlock: ZUJKAS_clean_linker_0, # of connection points: 2
#     Edge 60, Type (0, 1), BuildingBlock: ZUJKAS_clean_linker_0, # of connection points: 2
#     Edge 61, Type (0, 1), BuildingBlock: ZUJKAS_clean_linker_0, # of connection points: 2
# Relax obj value: 0.096
# Max RMSD: 0.232
# Mean RMSD: 0.144
data_MOF--net-ocu--node1-CUKXOW_clean_sbu_0--node2-TAGTUT_clean_sbu_1--edge1-ZUJKAS_clean_linker_0
_symmetry_space_group_name_H-M    P1
_symmetry_Int_Tables_number       1
_symmetry_cell_setting            triclinic
loop_
_symmetry_equiv_pos_as_xyz
'x, y, z'
_cell_length_a     46.406541
_cell_length_b     46.955318
_cell_length_c     49.859702
_cell_angle_alpha  92.228018
_cell_angle_beta   94.271246
_cell_angle_gamma 97.973548
loop_
_atom_site_label
_atom_site_type_symbol
_atom_site_fract_x
_atom_site_fract_y
_atom_site_fract_z
_atom_type_partial_charge
Tb0 Tb 0.26045 0.2212 0.22866 0.0
C1 C 0.30193 0.27877 0.2174 0.0
Tb2 Tb 0.26178 0.27746 0.26761 0.0
O3 O 0.23053 0.2344 0.19612 0.0
O4 O 0.24173 0.25926 0.23067 0.0
O5 O 0.29654 0.25012 0.2136 0.0
C6 C 0.25122 0.32786 0.28734 0.0
O7 O 0.28879 0.29337 0.23529 0.0
C8 C 0.29558 0.24054 0.28781 0.0
C9 C 0.22033 0.21959 0.27886 0.0
O10 O 0.27703 0.32073 0.2851 0.0
O11 O 0.23135 0.3065 0.27869 0.0
O12 O 0.29251 0.26491 0.29984 0.0
O13 O 0.28041 0.23944 0.26569 0.0
O14 O 0.22601 0.24822 0.28297 0.0
O15 O 0.23294 0.20506 0.2605 0.0
C16 C 0.27048 0.17099 0.20808 0.0
O17 O 0.24523 0.18002 0.20692 0.0
O18 O 0.29019 0.19036 0.22053 0.0
C19 C 0.22718 0.2586 0.20827 0.0
Tb20 Tb 0.73977 0.23491 0.26122 0.0
C21 C 0.75934 0.20657 0.20949 0.0
Tb22 Tb 0.79087 0.26547 0.23471 0.0
O23 O 0.70359 0.25298 0.2405 0.0
O24 O 0.74551 0.26548 0.23105 0.0
O25 O 0.74919 0.20158 0.23321 0.0
C26 C 0.83098 0.29099 0.20482 0.0
O27 O 0.77345 0.23192 0.20419 0.0
C28 C 0.80522 0.23829 0.27845 0.0
C29 C 0.76801 0.29657 0.28334 0.0
O30 O 0.83071 0.26552 0.21399 0.0
O31 O 0.80838 0.30191 0.21205 0.0
O32 O 0.81905 0.26225 0.27118 0.0
O33 O 0.78479 0.22964 0.2605 0.0
O34 O 0.78007 0.30012 0.26022 0.0
O35 O 0.75417 0.27138 0.28969 0.0
C36 C 0.70121 0.20121 0.28657 0.0
O37 O 0.72382 0.21762 0.29855 0.0
O38 O 0.7012 0.2032 0.2608 0.0
C39 C 0.71937 0.26895 0.22511 0.0
Tb40 Tb 0.74279 0.76652 0.23118 0.0
C41 C 0.73525 0.70031 0.2311 0.0
Tb42 Tb 0.78819 0.73828 0.26312 0.0
O43 O 0.75586 0.75298 0.19173 0.0
O44 O 0.78558 0.75714 0.22532 0.0
O45 O 0.72087 0.72273 0.23306 0.0
C46 C 0.83025 0.70924 0.28138 0.0
O47 O 0.76348 0.70256 0.23853 0.0
C48 C 0.74984 0.75904 0.29224 0.0
C49 C 0.79775 0.80546 0.26154 0.0
O50 O 0.80258 0.70191 0.28374 0.0
O51 O 0.83423 0.73289 0.26879 0.0
O52 O 0.77603 0.75589 0.30132 0.0
O53 O 0.74506 0.74729 0.26879 0.0
O54 O 0.8104 0.78222 0.2658 0.0
O55 O 0.77132 0.80425 0.24914 0.0
C56 C 0.69927 0.79661 0.21935 0.0
O57 O 0.71824 0.80182 0.23991 0.0
O58 O 0.70512 0.77481 0.20501 0.0
C59 C 0.78114 0.74728 0.20117 0.0
Tb60 Tb 0.28757 0.7658 0.24048 0.0
C61 C 0.29223 0.75579 0.30194 0.0
Tb62 Tb 0.23719 0.72806 0.26274 0.0
O63 O 0.27791 0.80332 0.26377 0.0
O64 O 0.24437 0.77067 0.2503 0.0
O65 O 0.30712 0.76306 0.28095 0.0
C66 C 0.19078 0.71146 0.28986 0.0
O67 O 0.26484 0.74271 0.29944 0.0
C68 C 0.27428 0.69889 0.23989 0.0
C69 C 0.2339 0.73753 0.20194 0.0
O70 O 0.21207 0.73149 0.29782 0.0
O71 O 0.19584 0.70024 0.26681 0.0
O72 O 0.24759 0.68828 0.24351 0.0
O73 O 0.28003 0.72292 0.25285 0.0
O74 O 0.21828 0.73651 0.22319 0.0
O75 O 0.26248 0.74563 0.20441 0.0
C76 C 0.33234 0.78915 0.21455 0.0
O77 O 0.33251 0.76722 0.22953 0.0
O78 O 0.30696 0.79783 0.21406 0.0
C79 C 0.25051 0.79359 0.26497 0.0
Tb80 Tb 0.23486 0.72784 0.75526 0.0
C81 C 0.26273 0.70147 0.70728 0.0
Tb82 Tb 0.2866 0.76259 0.73318 0.0
O83 O 0.20906 0.73215 0.71769 0.0
O84 O 0.24099 0.76577 0.73204 0.0
O85 O 0.24977 0.69555 0.7296 0.0
C86 C 0.32514 0.79968 0.71115 0.0
O87 O 0.27467 0.72787 0.70231 0.0
C88 C 0.30637 0.72637 0.76744 0.0
C89 C 0.26329 0.78528 0.78561 0.0
O90 O 0.30402 0.78265 0.69764 0.0
O91 O 0.3237 0.79639 0.73666 0.0
O92 O 0.32257 0.74381 0.75357 0.0
O93 O 0.28031 0.72959 0.76087 0.0
O94 O 0.27461 0.79283 0.76291 0.0
O95 O 0.24968 0.75903 0.78847 0.0
C96 C 0.19212 0.70016 0.78088 0.0
O97 O 0.19326 0.72627 0.77315 0.0
O98 O 0.21541 0.68973 0.77475 0.0
C99 C 0.22198 0.75741 0.71278 0.0
Tb100 Tb 0.2403 0.26085 0.73213 0.0
C101 C 0.23152 0.19443 0.73404 0.0
Tb102 Tb 0.28637 0.23399 0.76413 0.0
O103 O 0.24969 0.23973 0.69451 0.0
O104 O 0.28261 0.2505 0.72532 0.0
O105 O 0.21779 0.21724 0.73183 0.0
C106 C 0.32752 0.20284 0.78028 0.0
O107 O 0.25901 0.19644 0.7441 0.0
C108 C 0.25015 0.25756 0.79353 0.0
C109 C 0.29436 0.30041 0.76334 0.0
O110 O 0.30331 0.20402 0.79145 0.0
O111 O 0.32882 0.21954 0.76018 0.0
O112 O 0.27692 0.25525 0.80172 0.0
O113 O 0.24402 0.2442 0.77085 0.0
O114 O 0.30859 0.27782 0.76493 0.0
O115 O 0.26668 0.29811 0.75364 0.0
C116 C 0.19845 0.28996 0.7136 0.0
O117 O 0.22539 0.29419 0.70759 0.0
O118 O 0.19505 0.2694 0.73018 0.0
C119 C 0.27632 0.23713 0.70267 0.0
Tb120 Tb 0.78094 0.27608 0.72982 0.0
C121 C 0.79348 0.26634 0.79223 0.0
Tb122 Tb 0.74081 0.22848 0.75867 0.0
O123 O 0.7608 0.3138 0.74378 0.0
O124 O 0.74603 0.27275 0.75372 0.0
O125 O 0.8042 0.27542 0.76953 0.0
C126 C 0.69521 0.19897 0.77927 0.0
O127 O 0.76831 0.24916 0.79296 0.0
C128 C 0.78659 0.21235 0.7367 0.0
C129 C 0.72457 0.24233 0.69782 0.0
O130 O 0.70829 0.22409 0.78822 0.0
O131 O 0.70821 0.19004 0.75904 0.0
O132 O 0.775 0.20009 0.75716 0.0
O133 O 0.77093 0.23069 0.72898 0.0
O134 O 0.71492 0.23324 0.72096 0.0
O135 O 0.75067 0.25768 0.69623 0.0
C136 C 0.82698 0.29642 0.70445 0.0
O137 O 0.80162 0.30539 0.7017 0.0
O138 O 0.8264 0.27629 0.72163 0.0
C139 C 0.74212 0.29847 0.75765 0.0
Tb140 Tb 0.76051 0.71949 0.72797 0.0
C141 C 0.802 0.77718 0.71623 0.0
Tb142 Tb 0.76161 0.77613 0.76629 0.0
O143 O 0.72974 0.73147 0.69549 0.0
O144 O 0.74167 0.75741 0.72941 0.0
O145 O 0.79626 0.74853 0.71224 0.0
C146 C 0.75192 0.82698 0.78543 0.0
O147 O 0.78932 0.79182 0.73443 0.0
C148 C 0.7953 0.73927 0.78703 0.0
C149 C 0.72043 0.71871 0.77841 0.0
O150 O 0.77701 0.81765 0.78728 0.0
O151 O 0.73211 0.80748 0.77331 0.0
O152 O 0.79184 0.76357 0.79894 0.0
O153 O 0.78045 0.73816 0.76474 0.0
O154 O 0.72575 0.74739 0.78197 0.0
O155 O 0.7335 0.704 0.76052 0.0
C156 C 0.7712 0.66869 0.70949 0.0
O157 O 0.74535 0.67596 0.71109 0.0
O158 O 0.79102 0.69017 0.71789 0.0
C159 C 0.72653 0.75596 0.70724 0.0
C160 C 0.94584 0.06918 0.54475 0.0
C161 C 0.96325 0.06954 0.46042 0.0
C162 C 0.96077 0.95382 0.46631 0.0
Mg163 Mg 1.00206 0.06708 0.51386 0.0
O164 O 0.98981 0.02736 0.51541 0.0
Mg165 Mg 0.94891 0.01255 0.50028 0.0
Mg166 Mg 0.01235 -0.00144 0.49854 0.0
O167 O 0.03483 0.96976 0.48155 0.0
Mg168 Mg 0.02243 0.93 0.48268 0.0
Mg169 Mg 0.07557 0.98449 0.49705 0.0
C170 C 0.06393 0.04366 0.53017 0.0
C171 C 0.05631 0.03238 0.45576 0.0
O172 O 0.93335 0.04648 0.53076 0.0
O173 O 0.97244 0.07998 0.54223 0.0
O174 O 0.94881 0.04608 0.46724 0.0
O175 O 0.9865 0.08115 0.47441 0.0
O176 O 0.04832 0.06429 0.52732 0.0
O177 O 0.05379 0.01724 0.52342 0.0
C178 C 0.9684 0.96444 0.54133 0.0
O179 O 0.99388 0.96668 0.53204 0.0
O180 O 0.94932 0.97978 0.53261 0.0
O181 O 0.09147 0.9504 0.4671 0.0
O182 O 0.05287 0.91653 0.4552 0.0
O183 O 0.07498 0.95105 0.53008 0.0
C184 C 0.07957 0.92739 0.45324 0.0
O185 O 0.03718 0.91612 0.52233 0.0
O186 O 0.97629 0.93306 0.46873 0.0
C187 C 0.06023 0.92764 0.53666 0.0
O188 O 0.97094 0.98004 0.47375 0.0
O189 O 0.03083 0.03032 0.46504 0.0
O190 O 0.07537 0.01706 0.46459 0.0
C191 C 0.41424 0.03728 0.01986 0.0
C192 C 0.45989 0.04439 0.9461 0.0
C193 C 0.47876 0.93829 0.96046 0.0
Mg194 Mg 0.47845 0.05332 0.00652 0.0
O195 O 0.47694 0.01327 0.00844 0.0
Mg196 Mg 0.44543 0.9879 0.98557 0.0
Mg197 Mg 0.51046 0.99532 0.99632 0.0
O198 O 0.54417 0.97783 0.98422 0.0
Mg199 Mg 0.54376 0.9379 0.98544 0.0
Mg200 Mg 0.57568 0.00381 0.0068 0.0
C201 C 0.54216 0.05205 0.03361 0.0
C202 C 0.54787 0.0396 0.95956 0.0
O203 O 0.41316 0.01271 0.00726 0.0
O204 O 0.4372 0.05611 0.02231 0.0
O205 O 0.44724 0.0192 0.95057 0.0
O206 O 0.47451 0.06089 0.96469 0.0
O207 O 0.52108 0.06675 0.02884 0.0
O208 O 0.54031 0.02556 0.02554 0.0
C209 C 0.4724 0.95176 0.0332 0.0
O210 O 0.49815 0.96227 0.02756 0.0
O211 O 0.44923 0.95831 0.02062 0.0
O212 O 0.608 0.98016 0.98418 0.0
O213 O 0.58454 0.93683 0.96818 0.0
O214 O 0.57518 0.97224 0.04129 0.0
C215 C 0.60717 0.9561 0.97076 0.0
O216 O 0.54965 0.92984 0.02701 0.0
O217 O 0.50019 0.92396 0.96501 0.0
C218 C 0.56369 0.94665 0.04566 0.0
O219 O 0.48064 0.96508 0.96743 0.0
O220 O 0.52239 0.02775 0.96463 0.0
O221 O 0.57119 0.03426 0.97273 0.0
C222 C 0.94606 0.57439 0.03851 0.0
C223 C 0.9539 0.56025 0.95366 0.0
C224 C 0.96377 0.44755 0.97954 0.0
Mg225 Mg 0.99877 0.56957 0.00378 0.0
O226 O 0.99125 0.53073 0.01161 0.0
Mg227 Mg 0.95027 0.5111 0.00309 0.0
Mg228 Mg 0.01445 0.50106 0.99704 0.0
O229 O 0.0377 0.47149 0.98246 0.0
Mg230 Mg 0.03021 0.43236 0.98886 0.0
Mg231 Mg 0.07866 0.49103 0.9911 0.0
C232 C 0.06516 0.55452 0.0141 0.0
C233 C 0.0454 0.52565 0.94504 0.0
O234 O 0.93504 0.54868 0.02962 0.0
O235 O 0.97111 0.58627 0.03218 0.0
O236 O 0.94184 0.53765 0.96446 0.0
O237 O 0.9776 0.5747 0.96442 0.0
O238 O 0.04666 0.57246 0.01053 0.0
O239 O 0.0575 0.52706 0.01409 0.0
C240 C 0.98335 0.47602 0.04886 0.0
O241 O 1.00646 0.47838 0.03605 0.0
O242 O 0.96043 0.4865 0.04039 0.0
O243 O 0.09428 0.45376 0.96454 0.0
O244 O 0.05745 0.41692 0.9594 0.0
O245 O 0.08676 0.46419 0.02961 0.0
C246 C 0.08296 0.4287 0.95419 0.0
O247 O 0.05166 0.42631 0.02794 0.0
O248 O 0.98235 0.42961 0.98254 0.0
C249 C 0.07483 0.44099 0.03955 0.0
O250 O 0.97141 0.47504 0.98003 0.0
O251 O 0.02234 0.52345 0.9579 0.0
O252 O 0.06843 0.51547 0.9537 0.0
C253 C 0.44025 0.56825 0.04451 0.0
C254 C 0.4588 0.56756 0.96047 0.0
C255 C 0.46017 0.45294 0.96808 0.0
Mg256 Mg 0.49732 0.56788 0.01433 0.0
O257 O 0.48677 0.52791 0.01604 0.0
Mg258 Mg 0.44626 0.51132 0.00111 0.0
Mg259 Mg 0.51044 0.5 -0.00074 0.0
O260 O 0.53404 0.472 0.98263 0.0
Mg261 Mg 0.52324 0.43206 0.9845 0.0
Mg262 Mg 0.57457 0.48844 0.99762 0.0
C263 C 0.56053 0.54699 0.03043 0.0
C264 C 0.55309 0.53464 0.95569 0.0
O265 O 0.42908 0.5448 0.03095 0.0
O266 O 0.46652 0.58016 0.04205 0.0
O267 O 0.44513 0.54389 0.96766 0.0
O268 O 0.48153 0.58035 0.97446 0.0
O269 O 0.54398 0.5669 0.02781 0.0
O270 O 0.5514 0.52038 0.02365 0.0
C271 C 0.46807 0.4652 0.04283 0.0
O272 O 0.49348 0.46819 0.03335 0.0
O273 O 0.44817 0.47949 0.03395 0.0
O274 O 0.59162 0.45485 0.96799 0.0
O275 O 0.55366 0.4201 0.95636 0.0
O276 O 0.57587 0.45572 0.03092 0.0
C277 C 0.58007 0.43173 0.95415 0.0
O278 O 0.53952 0.41924 0.02425 0.0
O279 O 0.47656 0.43292 0.97089 0.0
C280 C 0.56243 0.43193 0.03807 0.0
O281 O 0.46943 0.4795 0.97493 0.0
O282 O 0.52761 0.53185 0.96505 0.0
O283 O 0.57283 0.52024 0.96473 0.0
C284 C 0.92359 0.52962 0.55049 0.0
C285 C 0.95921 0.56271 0.47668 0.0
C286 C 0.97373 0.45836 0.45031 0.0
Mg287 Mg 0.98525 0.551 0.53288 0.0
O288 O 0.9822 0.51201 0.52185 0.0
Mg289 Mg 0.94708 0.49495 0.49761 0.0
Mg290 Mg 0.01234 0.49931 0.49953 0.0
O291 O 0.04249 0.48706 0.47705 0.0
Mg292 Mg 0.03937 0.44887 0.46367 0.0
Mg293 Mg 0.07765 0.50369 0.50143 0.0
C294 C 0.05118 0.54172 0.54652 0.0
C295 C 0.04765 0.55459 0.47336 0.0
O296 O 0.91963 0.51107 0.53047 0.0
O297 O 0.94753 0.54683 0.55567 0.0
O298 O 0.94622 0.53675 0.47509 0.0
O299 O 0.97664 0.5727 0.49687 0.0
O300 O 0.03056 0.55684 0.55009 0.0
O301 O 0.0471 0.51852 0.53146 0.0
C302 C 0.97734 0.44443 0.52629 0.0
O303 O 1.0024 0.45721 0.52094 0.0
O304 O 0.95351 0.45434 0.5196 0.0
O305 O 0.1054 0.48867 0.46811 0.0
O306 O 0.07725 0.45448 0.44126 0.0
O307 O 0.0778 0.46065 0.52227 0.0
C308 C 0.10132 0.47122 0.44724 0.0
O309 O 0.04767 0.42554 0.4988 0.0
O310 O 0.99458 0.44417 0.44504 0.0
C311 C 0.06482 0.43466 0.51948 0.0
O312 O 0.97744 0.47957 0.46781 0.0
O313 O 0.02251 0.54147 0.47812 0.0
O314 O 0.07151 0.54494 0.48048 0.0
C315 C 0.44094 0.0689 0.53673 0.0
C316 C 0.45098 0.05671 0.45161 0.0
C317 C 0.45955 0.943 0.47844 0.0
Mg318 Mg 0.49432 0.06495 0.50294 0.0
O319 O 0.48637 0.02596 0.5097 0.0
Mg320 Mg 0.44554 0.00661 0.49998 0.0
Mg321 Mg 0.51002 0.99631 0.4961 0.0
O322 O 0.53357 0.9665 0.48249 0.0
Mg323 Mg 0.52566 0.92765 0.49038 0.0
Mg324 Mg 0.57434 0.98601 0.49226 0.0
C325 C 0.56038 0.04962 0.51448 0.0
C326 C 0.54327 0.02128 0.4456 0.0
O327 O 0.42957 0.0439 0.52629 0.0
O328 O 0.46656 0.08057 0.53174 0.0
O329 O 0.43862 0.03369 0.46154 0.0
O330 O 0.47421 0.07112 0.46335 0.0
O331 O 0.54191 0.06749 0.51051 0.0
O332 O 0.55274 0.02215 0.51454 0.0
C333 C 0.47685 0.9715 0.54671 0.0
O334 O 0.50065 0.97386 0.53495 0.0
O335 O 0.4543 0.98185 0.53715 0.0
O336 O 0.58997 0.94883 0.46582 0.0
O337 O 0.55422 0.91088 0.46281 0.0
O338 O 0.58146 0.95911 0.5308 0.0
C339 C 0.57924 0.92313 0.45676 0.0
O340 O 0.54522 0.92248 0.53041 0.0
O341 O 0.47793 0.92508 0.48271 0.0
C342 C 0.5689 0.93667 0.54148 0.0
O343 O 0.4673 0.97042 0.47791 0.0
O344 O 0.51943 0.01898 0.45728 0.0
O345 O 0.56571 0.01078 0.45517 0.0
H346 H 0.2101 0.16086 0.28277 0.0
H347 H 0.17855 0.13285 0.31224 0.0
H348 H 0.15249 0.21083 0.34471 0.0
H349 H 0.18424 0.23924 0.31523 0.0
H350 H 0.18212 0.1382 0.37012 0.0
H351 H 0.07336 0.15724 0.32574 0.0
H352 H 0.10575 0.16312 0.30755 0.0
H353 H 0.1002 0.18847 0.33386 0.0
C354 C 0.19753 0.17222 0.29594 0.0
C355 C 0.19986 0.20253 0.29634 0.0
C356 C 0.17944 0.15605 0.31292 0.0
C357 C 0.16271 0.16951 0.33063 0.0
C358 C 0.16471 0.19973 0.331 0.0
H359 H 0.0449 0.0885 0.44874 0.0
H360 H 0.06928 0.12352 0.41896 0.0
C361 C 0.18308 0.21602 0.31415 0.0
C362 C 0.14445 0.15182 0.34944 0.0
H363 H 0.07398 0.12872 0.3637 0.0
C364 C 0.15848 0.13624 0.36869 0.0
C365 C 0.11354 0.14938 0.34803 0.0
C366 C 0.09713 0.16524 0.32761 0.0
C367 C 0.14271 0.1183 0.38624 0.0
C368 C 0.11169 0.11482 0.38414 0.0
C369 C 0.09763 0.13105 0.36538 0.0
C370 C 0.09393 0.09331 0.40028 0.0
C371 C 0.15967 0.10351 0.40719 0.0
C372 C 0.09828 0.06429 0.39895 0.0
C373 C 0.08458 0.04449 0.41593 0.0
C374 C 0.06547 0.05275 0.43451 0.0
C375 C 0.05931 0.0813 0.4346 0.0
C376 C 0.07343 0.10139 0.41766 0.0
H377 H 0.18192 0.11547 0.41223 0.0
H378 H 0.14831 0.1013 0.42599 0.0
H379 H 0.16214 0.08169 0.39914 0.0
H380 H 0.11307 0.05701 0.38522 0.0
H381 H 0.08969 0.02266 0.41505 0.0
H382 H 0.78914 0.18075 0.28805 0.0
H383 H 0.81524 0.15094 0.31842 0.0
H384 H 0.87934 0.22473 0.34256 0.0
H385 H 0.85325 0.25441 0.31299 0.0
H386 H 0.87113 0.13777 0.31831 0.0
H387 H 0.86066 0.19589 0.41491 0.0
H388 H 0.83936 0.20164 0.38434 0.0
H389 H 0.87636 0.21938 0.39072 0.0
C390 C 0.80855 0.19064 0.30017 0.0
C391 C 0.81899 0.22003 0.29815 0.0
C392 C 0.82357 0.17357 0.31745 0.0
C393 C 0.84918 0.18555 0.33325 0.0
C394 C 0.85937 0.21494 0.33125 0.0
H395 H 0.97938 0.12526 0.44555 0.0
H396 H 0.95276 0.15238 0.41336 0.0
C397 C 0.84443 0.23192 0.31412 0.0
C398 C 0.86601 0.16743 0.35104 0.0
H399 H 0.89612 0.1636 0.41546 0.0
C400 C 0.87634 0.1433 0.33961 0.0
C401 C 0.87309 0.17453 0.3789 0.0
C402 C 0.86155 0.19909 0.39301 0.0
C403 C 0.89403 0.12669 0.35495 0.0
C404 C 0.90139 0.13403 0.38272 0.0
C405 C 0.89085 0.15801 0.39418 0.0
C406 C 0.91919 0.11674 0.40049 0.0
C407 C 0.90532 0.10187 0.34103 0.0
C408 C 0.90962 0.08748 0.40392 0.0
C409 C 0.92487 0.07188 0.42223 0.0
C410 C 0.95013 0.0851 0.43788 0.0
C411 C 0.96023 0.1142 0.43381 0.0
C412 C 0.94487 0.12983 0.41548 0.0
H413 H 0.90516 0.10423 0.31894 0.0
H414 H 0.92789 0.09995 0.34908 0.0
H415 H 0.89106 0.08156 0.34448 0.0
H416 H 0.88966 0.07686 0.39313 0.0
H417 H 0.91619 0.0496 0.42477 0.0
H418 H 0.85367 0.81867 0.28408 0.0
H419 H 0.87221 0.85881 0.316 0.0
H420 H 0.79213 0.89472 0.30182 0.0
H421 H 0.77315 0.85443 0.26991 0.0
H422 H 0.87853 0.92125 0.31581 0.0
H423 H 0.79503 0.87298 0.38213 0.0
H424 H 0.80399 0.85336 0.35277 0.0
H425 H 0.78323 0.88263 0.34893 0.0
C426 C 0.84026 0.83546 0.28715 0.0
C427 C 0.81177 0.8331 0.27478 0.0
C428 C 0.85091 0.85843 0.30537 0.0
C429 C 0.83327 0.87934 0.31158 0.0
C430 C 0.80586 0.87853 0.2975 0.0
H431 H 0.92868 0.99244 0.44294 0.0
H432 H 0.88952 0.98129 0.40689 0.0
C433 C 0.79518 0.85556 0.27914 0.0
C434 C 0.8425 0.89942 0.33513 0.0
H435 H 0.83355 0.90612 0.40229 0.0
C436 C 0.8683 0.91872 0.3346 0.0
C437 C 0.82899 0.89579 0.35954 0.0
C438 C 0.80134 0.87502 0.36116 0.0
C439 C 0.88229 0.93286 0.35832 0.0
C440 C 0.86985 0.92764 0.38307 0.0
C441 C 0.84284 0.91012 0.38323 0.0
C442 C 0.88739 0.93513 0.40897 0.0
C443 C 0.91153 0.9512 0.35705 0.0
C444 C 0.89753 0.91287 0.42327 0.0
C445 C 0.91974 0.91911 0.44389 0.0
C446 C 0.93216 0.94775 0.45055 0.0
C447 C 0.91973 0.97013 0.43817 0.0
C448 C 0.89747 0.96384 0.41744 0.0
H449 H 0.91937 0.95069 0.33654 0.0
H450 H 0.90978 0.97387 0.36302 0.0
H451 H 0.92815 0.94378 0.37131 0.0
H452 H 0.88985 0.89055 0.41711 0.0
H453 H 0.92853 0.90139 0.45328 0.0
H454 H 0.26647 0.83664 0.30333 0.0
H455 H 0.23623 0.85707 0.33497 0.0
H456 H 0.16114 0.79858 0.30148 0.0
H457 H 0.19161 0.77782 0.26969 0.0
H458 H 0.18854 0.88462 0.32412 0.0
H459 H 0.15716 0.78798 0.38199 0.0
H460 H 0.18627 0.79011 0.35974 0.0
H461 H 0.14887 0.78298 0.34622 0.0
C462 C 0.24351 0.82806 0.30266 0.0
C463 C 0.23145 0.80558 0.28395 0.0
C464 C 0.22622 0.83977 0.32085 0.0
C465 C 0.19638 0.82927 0.32095 0.0
C466 C 0.18418 0.80677 0.30224 0.0
H467 H 0.06085 0.88086 0.41805 0.0
H468 H 0.08874 0.85757 0.38616 0.0
C469 C 0.20157 0.795 0.28394 0.0
C470 C 0.17818 0.84281 0.34003 0.0
H471 H 0.1356 0.82945 0.39261 0.0
C472 C 0.17701 0.87252 0.33912 0.0
C473 C 0.16294 0.8271 0.35958 0.0
C474 C 0.16397 0.79534 0.36221 0.0
C475 C 0.16098 0.88688 0.35691 0.0
C476 C 0.14615 0.87133 0.37681 0.0
C477 C 0.14703 0.84151 0.37754 0.0
C478 C 0.1294 0.88555 0.39681 0.0
C479 C 0.15957 0.91849 0.35371 0.0
C480 C 0.14287 0.90894 0.41393 0.0
C481 C 0.12686 0.92254 0.43219 0.0
C482 C 0.09698 0.91289 0.43407 0.0
C483 C 0.08374 0.88907 0.41726 0.0
C484 C 0.09972 0.87561 0.39895 0.0
H485 H 0.16447 0.92502 0.33317 0.0
H486 H 0.13771 0.92398 0.35768 0.0
H487 H 0.17606 0.93132 0.36827 0.0
H488 H 0.16589 0.91667 0.41327 0.0
H489 H 0.13796 0.94058 0.44489 0.0
H490 H 0.23515 0.81622 0.70817 0.0
H491 H 0.2083 0.84698 0.67959 0.0
H492 H 0.14978 0.7721 0.64725 0.0
H493 H 0.17676 0.74149 0.67507 0.0
H494 H 0.16451 0.80725 0.60805 0.0
H495 H 0.13034 0.87175 0.69257 0.0
H496 H 0.16915 0.87302 0.6922 0.0
H497 H 0.14686 0.83959 0.69771 0.0
C498 C 0.2167 0.80637 0.69479 0.0
C499 C 0.208 0.77641 0.69406 0.0
C500 C 0.20112 0.824 0.67865 0.0
C501 C 0.17644 0.81205 0.6616 0.0
C502 C 0.16849 0.78202 0.66029 0.0
H503 H 0.04484 0.87125 0.54966 0.0
H504 H 0.0719 0.84358 0.58093 0.0
C505 C 0.18401 0.76448 0.67627 0.0
C506 C 0.15877 0.83039 0.64494 0.0
H507 H 0.11768 0.88553 0.64851 0.0
C508 C 0.15425 0.82431 0.61697 0.0
C509 C 0.14519 0.85271 0.65642 0.0
C510 C 0.14784 0.85956 0.68639 0.0
C511 C 0.13696 0.83994 0.60027 0.0
C512 C 0.12326 0.86213 0.61175 0.0
C513 C 0.12798 0.86845 0.63966 0.0
C514 C 0.10473 0.87946 0.59493 0.0
C515 C 0.134 0.83293 0.57031 0.0
C516 C 0.11313 0.9092 0.59331 0.0
C517 C 0.09759 0.92514 0.57557 0.0
C518 C 0.07303 0.9118 0.55906 0.0
C519 C 0.06358 0.88233 0.56195 0.0
C520 C 0.07926 0.86636 0.57966 0.0
H521 H 0.1512 0.82039 0.56404 0.0
H522 H 0.11247 0.81981 0.56465 0.0
H523 H 0.13522 0.85288 0.55895 0.0
H524 H 0.13248 0.91994 0.605 0.0
H525 H 0.10554 0.94778 0.57409 0.0
H526 H 0.25735 0.14706 0.72183 0.0
H527 H 0.23789 0.10758 0.68924 0.0
H528 H 0.15589 0.14103 0.6808 0.0
H529 H 0.1749 0.18032 0.71352 0.0
H530 H 0.15077 0.07965 0.67939 0.0
H531 H 0.2297 0.12949 0.6097 0.0
H532 H 0.244 0.11915 0.64183 0.0
H533 H 0.22263 0.14817 0.64028 0.0
C534 C 0.23486 0.14556 0.71368 0.0
C535 C 0.21776 0.16707 0.72002 0.0
C536 C 0.2239 0.12308 0.69489 0.0
C537 C 0.19572 0.1218 0.68226 0.0
C538 C 0.1778 0.14178 0.69026 0.0
H539 H 0.09591 0.09651 0.54161 0.0
H540 H 0.13525 0.10867 0.57699 0.0
C541 C 0.18871 0.16425 0.70897 0.0
C542 C 0.18552 0.10188 0.65873 0.0
H543 H 0.19169 0.09478 0.59108 0.0
C544 C 0.16009 0.08227 0.66017 0.0
C545 C 0.19784 0.1056 0.63374 0.0
C546 C 0.22496 0.12679 0.63104 0.0
C547 C 0.14533 0.0678 0.63692 0.0
C548 C 0.15665 0.07288 0.61166 0.0
C549 C 0.18327 0.09085 0.61051 0.0
C550 C 0.13835 0.06449 0.58626 0.0
C551 C 0.11648 0.04913 0.6393 0.0
C552 C 0.12833 0.03554 0.57863 0.0
C553 C 0.10565 0.02847 0.55836 0.0
C554 C 0.09274 0.05033 0.54556 0.0
C555 C 0.10504 0.07918 0.55136 0.0
C556 C 0.12763 0.08617 0.57153 0.0
H557 H 0.10927 0.05016 0.66003 0.0
H558 H 0.09926 0.05581 0.62521 0.0
H559 H 0.11852 0.0264 0.63388 0.0
H560 H 0.13673 0.01849 0.58946 0.0
H561 H 0.09683 0.00602 0.55424 0.0
H562 H 0.81906 0.16873 0.74726 0.0
H563 H 0.84813 0.14518 0.71615 0.0
H564 H 0.8253 0.20165 0.65424 0.0
H565 H 0.79753 0.22584 0.68543 0.0
H566 H 0.83303 0.11486 0.67103 0.0
H567 H 0.91025 0.20904 0.64699 0.0
H568 H 0.88656 0.21055 0.6739 0.0
H569 H 0.87326 0.21502 0.63964 0.0
C570 C 0.82075 0.17643 0.72716 0.0
C571 C 0.80621 0.19935 0.71895 0.0
C572 C 0.83725 0.16286 0.7093 0.0
C573 C 0.83948 0.17183 0.68279 0.0
C574 C 0.82486 0.19475 0.67468 0.0
H575 H 0.88634 0.06351 0.54917 0.0
H576 H 0.86037 0.08783 0.58226 0.0
C577 C 0.80875 0.20852 0.69258 0.0
C578 C 0.85587 0.15648 0.66327 0.0
H579 H 0.90675 0.16735 0.61706 0.0
C580 C 0.84934 0.12637 0.65941 0.0
C581 C 0.87751 0.17123 0.6482 0.0
C582 C 0.88753 0.20318 0.6526 0.0
C583 C 0.86334 0.11076 0.64079 0.0
C584 C 0.8839 0.12568 0.62474 0.0
C585 C 0.89075 0.15576 0.62893 0.0
C586 C 0.89938 0.11062 0.60421 0.0
C587 C 0.85642 0.07835 0.63913 0.0
C588 C 0.92998 0.11588 0.60464 0.0
C589 C 0.94481 0.10253 0.58535 0.0
C590 C 0.92953 0.08327 0.56508 0.0
C591 C 0.89888 0.07795 0.56459 0.0
C592 C 0.88398 0.09172 0.58372 0.0
H593 H 0.84789 0.07008 0.658 0.0
H594 H 0.83931 0.07159 0.62249 0.0
H595 H 0.87599 0.06816 0.63518 0.0
H596 H 0.94254 0.13031 0.62006 0.0
H597 H 0.9684 0.10715 0.58653 0.0
H598 H 0.83748 0.75745 0.67921 0.0
H599 H 0.87106 0.78595 0.65136 0.0
H600 H 0.84649 0.86403 0.68526 0.0
H601 H 0.81373 0.83597 0.71347 0.0
H602 H 0.8638 0.82225 0.61238 0.0
H603 H 0.93281 0.88469 0.69531 0.0
H604 H 0.90657 0.85395 0.70122 0.0
H605 H 0.89522 0.88885 0.69723 0.0
C606 C 0.83938 0.78071 0.68095 0.0
C607 C 0.82291 0.7942 0.69904 0.0
C608 C 0.85866 0.79707 0.66488 0.0
C609 C 0.86214 0.82743 0.66644 0.0
C610 C 0.84524 0.84082 0.6841 0.0
H611 H 0.93216 0.9721 0.58041 0.0
H612 H 0.91013 0.93709 0.61046 0.0
C613 C 0.82619 0.82457 0.70022 0.0
C614 C 0.88257 0.84517 0.64919 0.0
H615 H 0.93595 0.9039 0.65144 0.0
C616 C 0.87989 0.83978 0.62105 0.0
C617 C 0.90395 0.86811 0.66016 0.0
C618 C 0.91005 0.87405 0.69015 0.0
C619 C 0.89668 0.85735 0.60377 0.0
C620 C 0.91704 0.88103 0.61472 0.0
C621 C 0.92039 0.88588 0.64286 0.0
C622 C 0.93288 0.90257 0.59731 0.0
C623 C 0.89163 0.85127 0.57374 0.0
C624 C 0.95401 0.89543 0.58019 0.0
C625 C 0.9672 0.91584 0.56302 0.0
C626 C 0.95925 0.94372 0.56237 0.0
C627 C 0.93886 0.95089 0.58021 0.0
C628 C 0.92612 0.93079 0.59749 0.0
H629 H 0.87246 0.83458 0.5682 0.0
H630 H 0.88823 0.87125 0.56348 0.0
H631 H 0.9112 0.84361 0.56611 0.0
H632 H 0.96 0.87395 0.57982 0.0
H633 H 0.98256 0.90941 0.54945 0.0
H634 H 0.24353 0.14641 0.16127 0.0
H635 H 0.26107 0.11057 0.13241 0.0
H636 H 0.32828 0.10023 0.19462 0.0
H637 H 0.31214 0.1381 0.22252 0.0
H638 H 0.35237 0.11185 0.15341 0.0
H639 H 0.26092 0.02799 0.11949 0.0
H640 H 0.24962 0.06217 0.11312 0.0
H641 H 0.2586 0.0531 0.14733 0.0
C642 C 0.26156 0.13587 0.16898 0.0
C643 C 0.27681 0.14505 0.1938 0.0
C644 C 0.27137 0.11506 0.15261 0.0
C645 C 0.2959 0.10234 0.16133 0.0
C646 C 0.3094 0.10977 0.18735 0.0
H647 H 0.37897 -0.00101 0.04679 0.0
H648 H 0.34709 0.01105 0.08137 0.0
C649 C 0.30025 0.13136 0.20327 0.0
C650 C 0.31071 0.08612 0.14165 0.0
H651 H 0.29821 0.03856 0.08701 0.0
C652 C 0.34051 0.09528 0.13942 0.0
C653 C 0.29563 0.0642 0.1234 0.0
C654 C 0.26451 0.05114 0.12624 0.0
C655 C 0.35514 0.08452 0.11866 0.0
C656 C 0.33926 0.06507 0.09874 0.0
C657 C 0.31003 0.05428 0.10183 0.0
C658 C 0.35293 0.05661 0.07441 0.0
C659 C 0.38747 0.09451 0.11812 0.0
C660 C 0.36519 0.07799 0.05807 0.0
C661 C 0.38375 0.0713 0.0388 0.0
C662 C 0.38954 0.04297 0.03504 0.0
C663 C 0.37473 0.02101 0.04933 0.0
C664 C 0.35661 0.02785 0.06909 0.0
H665 H 0.39778 0.10135 0.13861 0.0
H666 H 0.39885 0.07729 0.10973 0.0
H667 H 0.39079 0.11336 0.10538 0.0
H668 H 0.36191 0.10021 0.06144 0.0
H669 H 0.3947 0.08851 0.02779 0.0
H670 H 0.83422 0.34478 0.18651 0.0
H671 H 0.87548 0.3721 0.16681 0.0
H672 H 0.92348 0.3 0.1739 0.0
H673 H 0.88196 0.27232 0.19344 0.0
H674 H 0.93541 0.38492 0.19167 0.0
H675 H 0.92522 0.32155 0.09348 0.0
H676 H 0.89535 0.31977 0.11485 0.0
H677 H 0.92668 0.30285 0.1243 0.0
C678 C 0.85346 0.33468 0.18366 0.0
C679 C 0.85498 0.3065 0.19131 0.0
C680 C 0.87703 0.35032 0.1726 0.0
C681 C 0.90241 0.338 0.16901 0.0
C682 C 0.90395 0.30973 0.17642 0.0
H683 H 0.01784 0.43591 0.06454 0.0
H684 H 1.00923 0.40164 0.09985 0.0
C685 C 0.88028 0.29401 0.18748 0.0
C686 C 0.92682 0.35512 0.1571 0.0
H687 H 0.95518 0.36607 0.09671 0.0
C688 C 0.94039 0.3805 0.17114 0.0
C689 C 0.93353 0.34896 0.13052 0.0
C690 C 0.91947 0.32188 0.11472 0.0
C691 C 0.95857 0.40117 0.15838 0.0
C692 C 0.96283 0.39633 0.13094 0.0
C693 C 0.95174 0.36967 0.11779 0.0
C694 C 0.97274 0.42026 0.11407 0.0
C695 C 0.97158 0.42877 0.17383 0.0
C696 C 0.95542 0.4423 0.11083 0.0
C697 C 0.96001 0.46152 0.09051 0.0
C698 C 0.98203 0.45904 0.07309 0.0
C699 C 1.00069 0.43824 0.0776 0.0
C700 C 0.99587 0.41873 0.09779 0.0
H701 H 0.97554 0.42516 0.19561 0.0
H702 H 0.99244 0.4381 0.166 0.0
H703 H 0.95601 0.44464 0.17184 0.0
H704 H 0.93707 0.44348 0.12284 0.0
H705 H 0.94543 0.47748 0.0877 0.0
H706 H 0.66 0.78892 0.17569 0.0
H707 H 0.62472 0.82075 0.1619 0.0
H708 H 0.64978 0.87413 0.23455 0.0
H709 H 0.68542 0.84239 0.24838 0.0
H710 H 0.57672 0.84484 0.18741 0.0
H711 H 0.67368 0.9252 0.17108 0.0
H712 H 0.67731 0.88803 0.17624 0.0
H713 H 0.67023 0.91102 0.20386 0.0
C714 C 0.65764 0.80718 0.1889 0.0
C715 C 0.6757 0.81362 0.21277 0.0
C716 C 0.63735 0.82517 0.18115 0.0
C717 C 0.63488 0.84982 0.19716 0.0
C718 C 0.65156 0.85527 0.22191 0.0
H719 H 0.57867 0.97845 0.09306 0.0
H720 H 0.58741 0.96023 0.13786 0.0
C721 C 0.67193 0.83725 0.22967 0.0
C722 C 0.61816 0.87153 0.18561 0.0
H723 H 0.62927 0.9311 0.14895 0.0
C724 C 0.58795 0.86421 0.17961 0.0
C725 C 0.63284 0.89702 0.17593 0.0
C726 C 0.6653 0.90594 0.18194 0.0
C727 C 0.57251 0.88043 0.16207 0.0
C728 C 0.58798 0.90386 0.14978 0.0
C729 C 0.61746 0.91297 0.1582 0.0
C730 C 0.57631 0.91531 0.12462 0.0
C731 C 0.54014 0.87138 0.15585 0.0
C732 C 0.5668 0.89616 0.10241 0.0
C733 C 0.56185 0.90645 0.07693 0.0
C734 C 0.56672 0.93613 0.07304 0.0
C735 C 0.5751 0.95542 0.09542 0.0
C736 C 0.5798 0.94508 0.12104 0.0
H737 H 0.5298 0.86385 0.17419 0.0
H738 H 0.52915 0.88922 0.1479 0.0
H739 H 0.53647 0.85306 0.14067 0.0
H740 H 0.56488 0.8731 0.10438 0.0
H741 H 0.55541 0.89104 0.06009 0.0
H742 H 0.17768 0.7116 0.19043 0.0
H743 H 0.15812 0.68207 0.15018 0.0
H744 H 0.23931 0.70405 0.11394 0.0
H745 H 0.25941 0.73322 0.15445 0.0
H746 H 0.14999 0.6935 0.09743 0.0
H747 H 0.23014 0.61642 0.1114 0.0
H748 H 0.2259 0.64341 0.137 0.0
H749 H 0.2454 0.65332 0.10821 0.0
C750 C 0.19128 0.71059 0.17378 0.0
C751 C 0.22019 0.7246 0.17578 0.0
C752 C 0.18009 0.69359 0.1508 0.0
C753 C 0.19753 0.69033 0.12937 0.0
C754 C 0.22577 0.7057 0.13056 0.0
H755 H 0.09787 0.5975 0.99058 0.0
H756 H 0.13879 0.63012 0.01351 0.0
C757 C 0.23707 0.72262 0.15362 0.0
C758 C 0.18598 0.67019 0.10628 0.0
H759 H 0.19388 0.60578 0.07538 0.0
C760 C 0.15975 0.67451 0.09231 0.0
C761 C 0.19878 0.64533 0.09992 0.0
C762 C 0.22648 0.63909 0.115 0.0
C763 C 0.14516 0.65408 0.07297 0.0
C764 C 0.15773 0.62902 0.06671 0.0
C765 C 0.18456 0.62518 0.07997 0.0
C766 C 0.14129 0.60523 0.04901 0.0
C767 C 0.11548 0.65877 0.06076 0.0
C768 C 0.13151 0.57891 0.06012 0.0
C769 C 0.10879 0.55978 0.04663 0.0
C770 C 0.09546 0.56711 0.02218 0.0
C771 C 0.10778 0.59158 0.00955 0.0
C772 C 0.13094 0.61032 0.02272 0.0
H773 H 0.10646 0.67595 0.07201 0.0
H774 H 0.11734 0.66534 0.03975 0.0
H775 H 0.09968 0.63867 0.06038 0.0
H776 H 0.13941 0.57444 0.0803 0.0
H777 H 0.09953 0.54107 0.05677 0.0
H778 H 0.2815 0.84302 0.78623 0.0
H779 H 0.30824 0.87216 0.82409 0.0
H780 H 0.28925 0.80211 0.87629 0.0
H781 H 0.26225 0.77272 0.83858 0.0
H782 H 0.29742 0.87236 0.89721 0.0
H783 H 0.38371 0.82501 0.84569 0.0
H784 H 0.35622 0.83953 0.82514 0.0
H785 H 0.34627 0.80785 0.84321 0.0
C786 C 0.282 0.83418 0.80598 0.0
C787 C 0.27045 0.80537 0.80935 0.0
C788 C 0.29709 0.85094 0.8276 0.0
C789 C 0.30083 0.83906 0.85274 0.0
C790 C 0.28637 0.81157 0.85697 0.0
H791 H 0.46047 0.88034 0.95636 0.0
H792 H 0.41447 0.8554 0.93452 0.0
C793 C 0.27106 0.79481 0.83536 0.0
C794 C 0.32508 0.85215 0.87189 0.0
H795 H 0.39915 0.85869 0.88157 0.0
C796 C 0.31968 0.86933 0.89404 0.0
C797 C 0.35391 0.84769 0.86765 0.0
C798 C 0.36059 0.82893 0.84424 0.0
C799 C 0.34283 0.88283 0.91193 0.0
C800 C 0.3718 0.87915 0.9071 0.0
C801 C 0.37691 0.86138 0.88525 0.0
C802 C 0.39752 0.89439 0.92351 0.0
C803 C 0.33612 0.90076 0.93581 0.0
C804 C 0.40314 0.92454 0.92451 0.0
C805 C 0.42939 0.93882 0.93691 0.0
C806 C 0.45058 0.92317 0.94826 0.0
C807 C 0.44467 0.89298 0.94761 0.0
C808 C 0.41834 0.87872 0.93535 0.0
H809 H 0.31334 0.89454 0.94112 0.0
H810 H 0.35131 0.89863 0.95368 0.0
H811 H 0.33864 0.92374 0.93079 0.0
H812 H 0.38775 0.93699 0.91479 0.0
H813 H 0.43344 0.96207 0.9368 0.0
H814 H 0.26811 0.29887 0.83322 0.0
H815 H 0.2386 0.32882 0.85771 0.0
H816 H 0.16117 0.28838 0.81041 0.0
H817 H 0.19083 0.25839 0.78549 0.0
H818 H 0.19691 0.36773 0.83497 0.0
H819 H 0.1456 0.2781 0.89309 0.0
H820 H 0.17948 0.27661 0.87779 0.0
H821 H 0.14564 0.27201 0.8572 0.0
C822 C 0.24478 0.2963 0.828 0.0
C823 C 0.23176 0.27605 0.80754 0.0
C824 C 0.22795 0.31355 0.84197 0.0
C825 C 0.1976 0.31071 0.83615 0.0
C826 C 0.18452 0.2908 0.81544 0.0
H827 H 0.0627 0.38143 0.92047 0.0
H828 H 0.09005 0.35446 0.89094 0.0
C829 C 0.20147 0.27374 0.80115 0.0
C830 C 0.1798 0.32825 0.85219 0.0
H831 H 0.13164 0.3237 0.90107 0.0
C832 C 0.18254 0.35813 0.84937 0.0
C833 C 0.16103 0.31576 0.87096 0.0
C834 C 0.15771 0.28389 0.87522 0.0
C835 C 0.16678 0.37577 0.86452 0.0
C836 C 0.14841 0.3634 0.88381 0.0
C837 C 0.14564 0.3334 0.88644 0.0
C838 C 0.13172 0.38091 0.90134 0.0
C839 C 0.16946 0.40737 0.85908 0.0
C840 C 0.14577 0.40492 0.91738 0.0
C841 C 0.13001 0.42074 0.93413 0.0
C842 C 0.09982 0.41262 0.93575 0.0
C843 C 0.08588 0.38841 0.91988 0.0
C844 C 0.10157 0.37287 0.90291 0.0
H845 H 0.17622 0.41148 0.8385 0.0
H846 H 0.14854 0.41586 0.86126 0.0
H847 H 0.18643 0.41954 0.87364 0.0
H848 H 0.16911 0.41122 0.91735 0.0
H849 H 0.14161 0.439 0.94623 0.0
H850 H 0.66101 0.15013 0.75819 0.0
H851 H 0.61926 0.12332 0.77797 0.0
H852 H 0.63056 0.18576 0.84517 0.0
H853 H 0.67129 0.21302 0.82499 0.0
H854 H 0.62247 0.0976 0.82229 0.0
H855 H 0.54401 0.17362 0.83483 0.0
H856 H 0.57334 0.1804 0.81301 0.0
H857 H 0.57922 0.19069 0.84848 0.0
C858 C 0.65416 0.15829 0.77696 0.0
C859 C 0.66935 0.18344 0.79023 0.0
C860 C 0.63024 0.14311 0.78813 0.0
C861 C 0.62131 0.15283 0.81278 0.0
C862 C 0.63626 0.17834 0.82569 0.0
H863 H 0.5902 0.08466 0.95473 0.0
H864 H 0.59916 0.1117 0.91453 0.0
C865 C 0.65987 0.19367 0.81437 0.0
C866 C 0.59974 0.13431 0.82727 0.0
H867 H 0.54668 0.13842 0.8706 0.0
C868 C 0.60515 0.10619 0.83201 0.0
C869 C 0.57683 0.14525 0.83978 0.0
C870 C 0.56786 0.17405 0.83344 0.0
C871 C 0.59044 0.08997 0.85105 0.0
C872 C 0.57017 0.10236 0.86584 0.0
C873 C 0.56263 0.12926 0.85939 0.0
C874 C 0.56101 0.08972 0.89088 0.0
C875 C 0.5984 0.06063 0.85694 0.0
C876 C 0.53619 0.06901 0.89081 0.0
C877 C 0.53109 0.05346 0.91375 0.0
C878 C 0.55076 0.05855 0.93685 0.0
C879 C 0.57478 0.0803 0.93715 0.0
C880 C 0.57979 0.09584 0.91434 0.0
H881 H 0.61127 0.05237 0.84118 0.0
H882 H 0.61157 0.06192 0.87658 0.0
H883 H 0.57838 0.045 0.85848 0.0
H884 H 0.5217 0.06389 0.87269 0.0
H885 H 0.51281 0.03633 0.9129 0.0
H886 H 0.79789 0.68282 0.76923 0.0
H887 H 0.82364 0.64711 0.79255 0.0
H888 H 0.85386 0.71004 0.85735 0.0
H889 H 0.82875 0.7455 0.83418 0.0
H890 H 0.88588 0.64995 0.81243 0.0
H891 H 0.81204 0.64026 0.89498 0.0
H892 H 0.80237 0.65526 0.86329 0.0
H893 H 0.82626 0.67674 0.88869 0.0
C894 C 0.81036 0.68909 0.78823 0.0
C895 C 0.81136 0.71711 0.7997 0.0
C896 C 0.82498 0.66862 0.80165 0.0
C897 C 0.84051 0.6757 0.82696 0.0
C898 C 0.84177 0.7038 0.83811 0.0
H899 H 0.97384 0.60599 0.92393 0.0
H900 H 0.94601 0.63053 0.89086 0.0
C901 C 0.82742 0.72414 0.82472 0.0
C902 C 0.85526 0.65407 0.8422 0.0
H903 H 0.85699 0.62157 0.9025 0.0
C904 C 0.87936 0.64348 0.83198 0.0
C905 C 0.8467 0.64524 0.86764 0.0
C906 C 0.82026 0.65471 0.87926 0.0
C907 C 0.89573 0.62537 0.84694 0.0
C908 C 0.88806 0.61777 0.87303 0.0
C909 C 0.8632 0.62743 0.88269 0.0
C910 C 0.90596 0.60084 0.89113 0.0
C911 C 0.92109 0.61452 0.83459 0.0
C912 C 0.89303 0.57574 0.9026 0.0
C913 C 0.909 0.56155 0.9217 0.0
C914 C 0.9383 0.57227 0.93015 0.0
C915 C 0.95143 0.59688 0.91797 0.0
C916 C 0.9355 0.61096 0.89882 0.0
H917 H 0.9185 0.61435 0.81225 0.0
H918 H 0.94148 0.62902 0.84145 0.0
H919 H 0.92351 0.59245 0.84074 0.0
H920 H 0.8703 0.56744 0.89719 0.0
H921 H 0.89796 0.54284 0.93065 0.0
H922 H 0.22499 0.31504 0.2265 0.0
H923 H 0.20033 0.35139 0.20302 0.0
H924 H 0.17054 0.28928 0.13742 0.0
H925 H 0.19476 0.25331 0.16064 0.0
H926 H 0.1959 0.34189 0.12008 0.0
H927 H 0.11205 0.35745 0.19126 0.0
H928 H 0.14933 0.3616 0.2053 0.0
H929 H 0.13179 0.3269 0.19207 0.0
C930 C 0.21279 0.30909 0.2073 0.0
C931 C 0.21164 0.28114 0.19562 0.0
C932 C 0.19868 0.32989 0.19383 0.0
C933 C 0.18323 0.32313 0.16841 0.0
C934 C 0.18218 0.29519 0.15693 0.0
H935 H 0.05438 0.39456 0.0682 0.0
H936 H 0.08169 0.36952 0.10137 0.0
C937 C 0.19606 0.27455 0.17033 0.0
C938 C 0.16883 0.34489 0.15297 0.0
H939 H 0.11195 0.3844 0.15232 0.0
C940 C 0.17775 0.35143 0.1273 0.0
C941 C 0.14488 0.35718 0.16212 0.0
C942 C 0.13367 0.35039 0.1891 0.0
C943 C 0.16327 0.36935 0.11048 0.0
C944 C 0.13922 0.38156 0.11953 0.0
C945 C 0.13048 0.37534 0.14536 0.0
C946 C 0.12181 0.39913 0.10169 0.0
C947 C 0.17315 0.37405 0.08262 0.0
C948 C 0.13473 0.42491 0.09137 0.0
C949 C 0.11905 0.43946 0.07234 0.0
C950 C 0.09 0.42861 0.0631 0.0
C951 C 0.07669 0.40363 0.07462 0.0
C952 C 0.09233 0.3892 0.09369 0.0
H953 H 0.1876 0.35833 0.07662 0.0
H954 H 0.15413 0.37233 0.06746 0.0
H955 H 0.18554 0.39599 0.08222 0.0
H956 H 0.15724 0.43343 0.09753 0.0
H957 H 0.13013 0.45859 0.06408 0.0
H958 H 0.13967 0.7178 0.7878 0.0
H959 H 0.09722 0.69034 0.80597 0.0
H960 H 0.14581 0.61926 0.81803 0.0
H961 H 0.18796 0.6463 0.79934 0.0
H962 H 0.0875 0.60315 0.79463 0.0
H963 H 0.09353 0.67642 0.88645 0.0
H964 H 0.09029 0.69165 0.85401 0.0
H965 H 0.1232 0.67792 0.86491 0.0
C966 C 0.14122 0.69632 0.79441 0.0
C967 C 0.16704 0.68414 0.79248 0.0
C968 C 0.11701 0.68072 0.8047 0.0
C969 C 0.11853 0.65292 0.81343 0.0
C970 C 0.14425 0.64068 0.81124 0.0
H971 H 0.08453 0.52438 0.90723 0.0
H972 H 0.08999 0.55461 0.86897 0.0
C973 C 0.16833 0.65616 0.80079 0.0
C974 C 0.09419 0.63666 0.82619 0.0
H975 H 0.06517 0.63144 0.88684 0.0
C976 C 0.08193 0.60961 0.8145 0.0
C977 C 0.08656 0.64544 0.85184 0.0
C978 C 0.09907 0.67437 0.86523 0.0
C979 C 0.06459 0.58992 0.82902 0.0
C980 C 0.05979 0.59752 0.85581 0.0
C981 C 0.0691 0.62572 0.86627 0.0
C982 C 0.052 0.57539 0.87516 0.0
C983 C 0.05332 0.56044 0.81632 0.0
C984 C 0.02866 0.57693 0.8912 0.0
C985 C 0.02551 0.55959 0.91324 0.0
C986 C 0.04606 0.54108 0.91984 0.0
C987 C 0.06852 0.53866 0.90289 0.0
C988 C 0.07144 0.55565 0.88076 0.0
H989 H 0.04904 0.56135 0.79416 0.0
H990 H 0.07008 0.54602 0.82005 0.0
H991 H 0.03296 0.55095 0.82492 0.0
H992 H 0.01367 0.59233 0.88733 0.0
H993 H 1.00787 0.56169 0.92577 0.0
H994 H 0.37373 0.19025 0.75316 0.0
H995 H 0.40646 0.15482 0.76513 0.0
H996 H 0.36143 0.13731 0.83667 0.0
H997 H 0.32867 0.17184 0.82463 0.0
H998 H 0.44443 0.15116 0.80984 0.0
H999 H 0.35897 0.05727 0.80227 0.0
H1000 H 0.35361 0.09069 0.7871 0.0
H1001 H 0.34672 0.08538 0.82184 0.0
C1002 C 0.371 0.17878 0.77145 0.0
C1003 C 0.34865 0.18348 0.78794 0.0
C1004 C 0.38956 0.15856 0.77816 0.0
C1005 C 0.38575 0.14288 0.80133 0.0
C1006 C 0.36409 0.14848 0.81821 0.0
H1007 H 0.46876 0.1 0.93201 0.0
H1008 H 0.45967 0.11834 0.88797 0.0
C1009 C 0.34556 0.1684 0.81147 0.0
C1010 C 0.40464 0.12122 0.80914 0.0
H1011 H 0.39778 0.05723 0.8391 0.0
C1012 C 0.43457 0.13016 0.81548 0.0
C1013 C 0.39228 0.09322 0.81516 0.0
C1014 C 0.36118 0.08101 0.80587 0.0
C1015 C 0.45128 0.11344 0.83137 0.0
C1016 C 0.43722 0.08806 0.84193 0.0
C1017 C 0.40857 0.07714 0.83192 0.0
C1018 C 0.44881 0.07634 0.8671 0.0
C1019 C 0.48335 0.12395 0.83783 0.0
C1020 C 0.44538 0.0465 0.87051 0.0
C1021 C 0.44937 0.03593 0.89615 0.0
C1022 C 0.45734 0.05503 0.91871 0.0
C1023 C 0.46254 0.08472 0.91503 0.0
C1024 C 0.45792 0.09525 0.88961 0.0
H1025 H 0.49327 0.13251 0.81965 0.0
H1026 H 0.48611 0.14198 0.8533 0.0
H1027 H 0.49539 0.1066 0.84531 0.0
H1028 H 0.43827 0.03143 0.85353 0.0
H1029 H 0.44572 0.01288 0.89837 0.0
H1030 H 0.84858 0.29605 0.801 0.0
H1031 H 0.86942 0.32469 0.84152 0.0
H1032 H 0.79232 0.29627 0.88188 0.0
H1033 H 0.77116 0.26752 0.84144 0.0
H1034 H 0.80955 0.35795 0.88316 0.0
H1035 H 0.90076 0.29907 0.9155 0.0
H1036 H 0.89911 0.30647 0.88039 0.0
H1037 H 0.86993 0.28286 0.89313 0.0
C1038 C 0.83627 0.29538 0.81864 0.0
C1039 C 0.80825 0.27941 0.81798 0.0
C1040 C 0.84822 0.31176 0.84179 0.0
C1041 C 0.8324 0.31247 0.86465 0.0
C1042 C 0.80484 0.2959 0.86441 0.0
H1043 H 0.933 0.40278 0.00208 0.0
H1044 H 0.89187 0.37052 0.97932 0.0
C1045 C 0.79294 0.2793 0.84133 0.0
C1046 C 0.84416 0.3319 0.88811 0.0
H1047 H 0.90384 0.34766 0.93282 0.0
C1048 C 0.82991 0.35552 0.89443 0.0
C1049 C 0.87042 0.3284 0.90293 0.0
C1050 C 0.88584 0.30268 0.89786 0.0
C1051 C 0.84223 0.37669 0.91426 0.0
C1052 C 0.86955 0.37418 0.92781 0.0
C1053 C 0.88288 0.34967 0.92244 0.0
C1054 C 0.88644 0.39759 0.94569 0.0
C1055 C 0.82615 0.40171 0.92017 0.0
C1056 C 0.89558 0.42451 0.93534 0.0
C1057 C 0.91874 0.44326 0.94866 0.0
C1058 C 0.93333 0.43493 0.9721 0.0
C1059 C 0.92204 0.40957 0.98397 0.0
C1060 C 0.89864 0.3911 0.97093 0.0
H1061 H 0.80221 0.39561 0.91574 0.0
H1062 H 0.8306 0.40978 0.94151 0.0
H1063 H 0.83338 0.4195 0.90711 0.0
H1064 H 0.88687 0.42982 0.9157 0.0
H1065 H 0.92732 0.46256 0.939 0.0
H1066 H 0.71249 0.86098 0.76781 0.0
H1067 H 0.69663 0.90073 0.79342 0.0
H1068 H 0.75998 0.88999 0.85898 0.0
H1069 H 0.77747 0.85238 0.83234 0.0
H1070 H 0.66976 0.89138 0.83289 0.0
H1071 H 0.76149 0.97248 0.87099 0.0
H1072 H 0.765 0.9471 0.84371 0.0
H1073 H 0.77203 0.93825 0.87834 0.0
C1074 C 0.72365 0.86804 0.78729 0.0
C1075 C 0.74591 0.85374 0.79838 0.0
C1076 C 0.71469 0.89072 0.80191 0.0
C1077 C 0.72709 0.89858 0.82823 0.0
C1078 C 0.75059 0.88522 0.83851 0.0
H1079 H 0.6264 0.90558 0.95848 0.0
H1080 H 0.65901 0.89695 0.92371 0.0
C1081 C 0.76033 0.86336 0.82344 0.0
C1082 C 0.71168 0.91555 0.84679 0.0
H1083 H 0.72323 0.96069 0.90313 0.0
C1084 C 0.68151 0.90722 0.84763 0.0
C1085 C 0.7265 0.93666 0.86596 0.0
C1086 C 0.75798 0.9493 0.8644 0.0
C1087 C 0.66639 0.91742 0.8683 0.0
C1088 C 0.68206 0.93539 0.88941 0.0
C1089 C 0.71156 0.94595 0.88742 0.0
C1090 C 0.66812 0.94174 0.91414 0.0
C1091 C 0.63386 0.90802 0.86772 0.0
C1092 C 0.66451 0.97002 0.92165 0.0
C1093 C 0.64644 0.97505 0.94202 0.0
C1094 C 0.63163 0.95178 0.95473 0.0
C1095 C 0.63731 0.92379 0.94871 0.0
C1096 C 0.65578 0.91887 0.92881 0.0
H1097 H 0.62404 0.90299 0.84677 0.0
H1098 H 0.62967 0.88815 0.87901 0.0
H1099 H 0.6227 0.92487 0.87708 0.0
H1100 H 0.67411 0.98793 0.91067 0.0
H1101 H 0.64231 0.99685 0.94631 0.0
H1102 H 0.7803 0.73919 0.14683 0.0
H1103 H 0.80884 0.70964 0.12093 0.0
H1104 H 0.85192 0.68594 0.1947 0.0
H1105 H 0.82411 0.7166 0.22049 0.0
H1106 H 0.89023 0.69386 0.15947 0.0
H1107 H 0.7944 0.62515 0.10823 0.0
H1108 H 0.79368 0.66207 0.10077 0.0
H1109 H 0.79121 0.65124 0.13493 0.0
C1110 C 0.79601 0.72783 0.15755 0.0
C1111 C 0.80004 0.73043 0.18582 0.0
C1112 C 0.81214 0.7106 0.14268 0.0
C1113 C 0.83217 0.69472 0.15569 0.0
C1114 C 0.83661 0.69774 0.18399 0.0
H1115 H 0.89927 0.55471 0.06721 0.0
H1116 H 0.87278 0.58278 0.09694 0.0
C1117 C 0.82079 0.71544 0.19883 0.0
C1118 C 0.8486 0.67534 0.13979 0.0
H1119 H 0.84012 0.62242 0.08938 0.0
C1120 C 0.87917 0.67811 0.14429 0.0
C1121 C 0.83443 0.65412 0.1203 0.0
C1122 C 0.80161 0.64772 0.11598 0.0
C1123 C 0.89583 0.66107 0.1295 0.0
C1124 C 0.8818 0.64122 0.10877 0.0
C1125 C 0.85116 0.63786 0.10483 0.0
C1126 C 0.89836 0.62391 0.0909 0.0
C1127 C 0.9283 0.66418 0.13682 0.0
C1128 C 0.92143 0.63741 0.07707 0.0
C1129 C 0.9369 0.62131 0.06039 0.0
C1130 C 0.92935 0.59124 0.05645 0.0
C1131 C 0.90578 0.57777 0.06973 0.0
C1132 C 0.89057 0.59387 0.08679 0.0
H1133 H 0.93382 0.67193 0.15817 0.0
H1134 H 0.93685 0.64347 0.13367 0.0
H1135 H 0.93962 0.68033 0.12408 0.0
H1136 H 0.92737 0.66056 0.07891 0.0
H1137 H 0.95458 0.6326 0.05023 0.0
H1138 H 0.33508 0.8378 0.18705 0.0
H1139 H 0.37563 0.86004 0.16298 0.0
H1140 H 0.42599 0.7931 0.18625 0.0
H1141 H 0.38521 0.77059 0.21064 0.0
H1142 H 0.43967 0.8769 0.18593 0.0
H1143 H 0.41918 0.79528 0.09975 0.0
H1144 H 0.39031 0.80035 0.12105 0.0
H1145 H 0.42103 0.78439 0.13408 0.0
C1146 C 0.3548 0.82786 0.18713 0.0
C1147 C 0.35709 0.8025 0.20055 0.0
C1148 C 0.37795 0.84063 0.17352 0.0
C1149 C 0.40367 0.82817 0.17297 0.0
C1150 C 0.40624 0.80295 0.18655 0.0
H1151 H 0.5031 0.90788 0.04572 0.0
H1152 H 0.49741 0.8765 0.08384 0.0
C1153 C 0.38302 0.79018 0.20037 0.0
C1154 C 0.42679 0.84143 0.15686 0.0
H1155 H 0.44469 0.84065 0.09186 0.0
C1156 C 0.44167 0.86862 0.16564 0.0
C1157 C 0.4296 0.83032 0.13061 0.0
C1158 C 0.41428 0.80097 0.12061 0.0
C1159 C 0.45686 0.88626 0.14782 0.0
C1160 C 0.45652 0.87653 0.12063 0.0
C1161 C 0.4446 0.84809 0.11272 0.0
C1162 C 0.46267 0.89693 0.09937 0.0
C1163 C 0.47129 0.91594 0.15772 0.0
C1164 C 0.4447 0.91836 0.09536 0.0
C1165 C 0.44787 0.93607 0.07371 0.0
C1166 C 0.46919 0.93277 0.05582 0.0
C1167 C 0.4872 0.91136 0.05979 0.0
C1168 C 0.48385 0.89338 0.08138 0.0
H1169 H 0.47929 0.91618 0.17931 0.0
H1170 H 0.48988 0.92367 0.14584 0.0
H1171 H 0.45506 0.93118 0.15582 0.0
H1172 H 0.42767 0.92088 0.10863 0.0
H1173 H 0.4337 0.95241 0.071 0.0
H1174 H 0.742 0.14932 0.2142 0.0
H1175 H 0.71431 0.11629 0.17954 0.0
H1176 H 0.72791 0.18113 0.12103 0.0
H1177 H 0.75613 0.2141 0.15545 0.0
H1178 H 0.66413 0.13468 0.15943 0.0
H1179 H 0.72903 0.10675 0.07573 0.0
H1180 H 0.74554 0.11933 0.10882 0.0
H1181 H 0.73431 0.1445 0.0853 0.0
C1182 C 0.74003 0.15616 0.19372 0.0
C1183 C 0.75072 0.18443 0.18758 0.0
C1184 C 0.7243 0.13723 0.17394 0.0
C1185 C 0.71898 0.14633 0.1478 0.0
C1186 C 0.73214 0.17354 0.14098 0.0
H1187 H 0.55842 0.10947 0.04706 0.0
H1188 H 0.6031 0.13197 0.07321 0.0
C1189 C 0.74815 0.19243 0.16074 0.0
C1190 C 0.695 0.1303 0.1298 0.0
H1191 H 0.67688 0.10029 0.06631 0.0
C1192 C 0.66702 0.12683 0.13919 0.0
C1193 C 0.69885 0.12027 0.10341 0.0
C1194 C 0.72861 0.12264 0.09276 0.0
C1195 C 0.64261 0.11412 0.1227 0.0
C1196 C 0.64627 0.10506 0.09602 0.0
C1197 C 0.67428 0.10775 0.08673 0.0
C1198 C 0.62101 0.09213 0.07789 0.0
C1199 C 0.61304 0.11051 0.13388 0.0
C1200 C 0.61673 0.06248 0.07172 0.0
C1201 C 0.59123 0.04957 0.05706 0.0
C1202 C 0.56968 0.06613 0.04811 0.0
C1203 C 0.57449 0.09606 0.05374 0.0
C1204 C 0.60001 0.10896 0.06854 0.0
H1205 H 0.61475 0.11377 0.15617 0.0
H1206 H 0.59999 0.12653 0.12522 0.0
H1207 H 0.60101 0.08871 0.12826 0.0
H1208 H 0.63266 0.0492 0.07905 0.0
H1209 H 0.58814 0.02649 0.05345 0.0
H1210 H 0.70948 0.65994 0.78238 0.0
H1211 H 0.67737 0.63228 0.81164 0.0
H1212 H 0.6524 0.71076 0.84415 0.0
H1213 H 0.68461 0.73878 0.81483 0.0
H1214 H 0.68 0.63544 0.86818 0.0
H1215 H 0.57268 0.66032 0.82593 0.0
H1216 H 0.60524 0.6666 0.80804 0.0
H1217 H 0.59994 0.69085 0.83539 0.0
C1218 C 0.69705 0.67149 0.79554 0.0
C1219 C 0.69979 0.70182 0.79594 0.0
C1220 C 0.67861 0.65551 0.8124 0.0
C1221 C 0.66194 0.66918 0.83004 0.0
C1222 C 0.66446 0.69945 0.83047 0.0
H1223 H 0.54429 0.5917 0.94998 0.0
H1224 H 0.56924 0.62599 0.91986 0.0
C1225 C 0.68313 0.71554 0.81371 0.0
C1226 C 0.64315 0.65165 0.84867 0.0
H1227 H 0.5724 0.63176 0.86398 0.0
C1228 C 0.65648 0.63473 0.8672 0.0
C1229 C 0.61238 0.65076 0.84786 0.0
C1230 C 0.59654 0.6679 0.82814 0.0
C1231 C 0.64019 0.61707 0.88464 0.0
C1232 C 0.60929 0.61531 0.88322 0.0
C1233 C 0.59595 0.63279 0.86516 0.0
C1234 C 0.59082 0.59437 0.89942 0.0
C1235 C 0.65651 0.6007 0.90475 0.0
C1236 C 0.59316 0.56487 0.89722 0.0
C1237 C 0.57906 0.54546 0.91433 0.0
C1238 C 0.56154 0.55463 0.93395 0.0
C1239 C 0.5573 0.58378 0.93494 0.0
C1240 C 0.57181 0.60346 0.91783 0.0
H1241 H 0.6794 0.61122 0.9094 0.0
H1242 H 0.64568 0.59889 0.92386 0.0
H1243 H 0.65722 0.57868 0.89615 0.0
H1244 H 0.6068 0.55689 0.88277 0.0
H1245 H 0.58281 0.5232 0.91288 0.0
H1246 H 0.36169 0.71519 0.77259 0.0
H1247 H 0.38408 0.68514 0.80432 0.0
H1248 H 0.30138 0.66226 0.8376 0.0
H1249 H 0.27844 0.6928 0.80531 0.0
H1250 H 0.35151 0.67996 0.87696 0.0
H1251 H 0.37414 0.59632 0.80313 0.0
H1252 H 0.38593 0.63239 0.79383 0.0
H1253 H 0.34766 0.62031 0.79571 0.0
C1254 C 0.34803 0.7036 0.78645 0.0
C1255 C 0.31819 0.70628 0.7863 0.0
C1256 C 0.36094 0.68629 0.80457 0.0
C1257 C 0.34445 0.67108 0.82318 0.0
C1258 C 0.31453 0.67365 0.82328 0.0
H1259 H 0.41481 0.54386 0.92325 0.0
H1260 H 0.38684 0.56854 0.89042 0.0
C1261 C 0.3014 0.69097 0.8048 0.0
C1262 C 0.35927 0.65348 0.8428 0.0
H1263 H 0.4009 0.59879 0.84621 0.0
C1264 C 0.36201 0.66199 0.8703 0.0
C1265 C 0.37296 0.62995 0.8342 0.0
C1266 C 0.36985 0.61897 0.80514 0.0
C1267 C 0.3788 0.64823 0.88921 0.0
C1268 C 0.39365 0.62557 0.88038 0.0
C1269 C 0.39001 0.61643 0.85302 0.0
C1270 C 0.41227 0.61047 0.89933 0.0
C1271 C 0.38031 0.65797 0.91853 0.0
C1272 C 0.43677 0.62548 0.91469 0.0
C1273 C 0.45306 0.61133 0.93353 0.0
C1274 C 0.4452 0.58181 0.93742 0.0
C1275 C 0.42152 0.56662 0.92101 0.0
C1276 C 0.40538 0.58074 0.90218 0.0
H1277 H 0.36208 0.67005 0.92287 0.0
H1278 H 0.37968 0.63933 0.93162 0.0
H1279 H 0.40112 0.67246 0.92387 0.0
H1280 H 0.44305 0.64829 0.91242 0.0
H1281 H 0.47109 0.62377 0.94575 0.0
H1282 H 0.26694 0.34527 0.77936 0.0
H1283 H 0.28657 0.38445 0.81211 0.0
H1284 H 0.37098 0.35568 0.81404 0.0
H1285 H 0.35161 0.31646 0.78131 0.0
H1286 H 0.30819 0.37224 0.86322 0.0
H1287 H 0.3916 0.44342 0.81435 0.0
H1288 H 0.36298 0.41913 0.79538 0.0
H1289 H 0.39544 0.40616 0.80909 0.0
C1290 C 0.28995 0.34782 0.78601 0.0
C1291 C 0.30774 0.32766 0.77779 0.0
C1292 C 0.30106 0.37019 0.80483 0.0
C1293 C 0.33023 0.37308 0.81533 0.0
C1294 C 0.34851 0.35415 0.80581 0.0
H1295 H 0.42845 0.39966 0.95844 0.0
H1296 H 0.38886 0.386 0.9235 0.0
C1297 C 0.33738 0.33163 0.78719 0.0
C1298 C 0.34072 0.3929 0.83887 0.0
H1299 H 0.39879 0.44196 0.86299 0.0
C1300 C 0.32756 0.38808 0.86307 0.0
C1301 C 0.36563 0.41386 0.83857 0.0
C1302 C 0.37955 0.42118 0.81286 0.0
C1303 C 0.34027 0.40181 0.88744 0.0
C1304 C 0.36687 0.42055 0.88751 0.0
C1305 C 0.37851 0.42736 0.86296 0.0
C1306 C 0.38537 0.42967 0.91265 0.0
C1307 C 0.32585 0.39515 0.91302 0.0
C1308 C 0.39599 0.45883 0.9187 0.0
C1309 C 0.4187 0.46673 0.93876 0.0
C1310 C 0.43146 0.4455 0.95268 0.0
C1311 C 0.41919 0.4165 0.94799 0.0
C1312 C 0.39637 0.40866 0.92813 0.0
H1313 H 0.30184 0.3894 0.90892 0.0
H1314 H 0.33437 0.3764 0.92197 0.0
H1315 H 0.33041 0.41368 0.92798 0.0
H1316 H 0.38789 0.47533 0.90686 0.0
H1317 H 0.42771 0.48926 0.94181 0.0
H1318 H 0.71819 0.34803 0.75507 0.0
H1319 H 0.69088 0.36974 0.78867 0.0
H1320 H 0.6997 0.2987 0.83957 0.0
H1321 H 0.72565 0.2764 0.80533 0.0
H1322 H 0.64864 0.31176 0.84302 0.0
H1323 H 0.72282 0.41471 0.85509 0.0
H1324 H 0.70766 0.40848 0.82093 0.0
H1325 H 0.73109 0.38442 0.83526 0.0
C1326 C 0.71402 0.33694 0.77334 0.0
C1327 C 0.72381 0.31031 0.77738 0.0
C1328 C 0.69872 0.34957 0.79277 0.0
C1329 C 0.69377 0.33642 0.81723 0.0
C1330 C 0.70317 0.3095 0.82103 0.0
H1331 H 0.63978 0.43424 0.95479 0.0
H1332 H 0.66758 0.41005 0.9231 0.0
C1333 C 0.7179 0.29656 0.8013 0.0
C1334 C 0.67847 0.35042 0.83859 0.0
H1335 H 0.67669 0.41422 0.87371 0.0
C1336 C 0.65499 0.33413 0.84983 0.0
C1337 C 0.68698 0.37944 0.84827 0.0
C1338 C 0.71373 0.39764 0.83948 0.0
C1339 C 0.63952 0.34605 0.86972 0.0
C1340 C 0.64669 0.37564 0.87795 0.0
C1341 C 0.67064 0.39173 0.86723 0.0
C1342 C 0.6297 0.39031 0.89751 0.0
C1343 C 0.61618 0.32636 0.88215 0.0
C1344 C 0.5991 0.38792 0.89374 0.0
C1345 C 0.58318 0.40118 0.9122 0.0
C1346 C 0.59742 0.41805 0.93454 0.0
C1347 C 0.6281 0.42138 0.93785 0.0
C1348 C 0.64402 0.40753 0.91967 0.0
H1349 H 0.62063 0.30371 0.88121 0.0
H1350 H 0.61445 0.33297 0.90353 0.0
H1351 H 0.59483 0.32688 0.87071 0.0
H1352 H 0.58739 0.3759 0.87637 0.0
H1353 H 0.55962 0.39853 0.90871 0.0
H1354 H 0.74526 0.31708 0.20009 0.0
H1355 H 0.72002 0.3475 0.16935 0.0
H1356 H 0.63981 0.28944 0.17193 0.0
H1357 H 0.6643 0.26004 0.20277 0.0
H1358 H 0.68944 0.33853 0.11945 0.0
H1359 H 0.6132 0.36389 0.19393 0.0
H1360 H 0.64494 0.34702 0.20297 0.0
H1361 H 0.61176 0.32578 0.18833 0.0
C1362 C 0.72231 0.31086 0.19389 0.0
C1363 C 0.7067 0.28637 0.20414 0.0
C1364 C 0.70784 0.32826 0.17641 0.0
C1365 C 0.67764 0.32135 0.16891 0.0
C1366 C 0.66273 0.29598 0.17807 0.0
H1367 H 0.54564 0.37807 0.05733 0.0
H1368 H 0.57377 0.35228 0.0897 0.0
C1369 C 0.67692 0.279 0.1956 0.0
C1370 C 0.66122 0.34018 0.15165 0.0
H1371 H 0.59947 0.37291 0.14802 0.0
C1372 C 0.67 0.34632 0.12586 0.0
C1373 C 0.63575 0.35058 0.15988 0.0
C1374 C 0.62604 0.34674 0.1879 0.0
C1375 C 0.65354 0.36154 0.10792 0.0
C1376 C 0.62758 0.37094 0.11586 0.0
C1377 C 0.6191 0.36535 0.14176 0.0
C1378 C 0.60939 0.38719 0.09767 0.0
C1379 C 0.66361 0.36698 0.08027 0.0
C1380 C 0.61949 0.41572 0.09211 0.0
C1381 C 0.60334 0.43062 0.07396 0.0
C1382 C 0.57665 0.41734 0.06065 0.0
C1383 C 0.56598 0.38907 0.06712 0.0
C1384 C 0.58214 0.37422 0.08554 0.0
H1385 H 0.68159 0.35469 0.07567 0.0
H1386 H 0.64515 0.36108 0.06467 0.0
H1387 H 0.67151 0.39027 0.07901 0.0
H1388 H 0.64021 0.42634 0.10149 0.0
H1389 H 0.61239 0.45235 0.06972 0.0
H1390 H 0.75951 0.65244 0.21728 0.0
H1391 H 0.73816 0.61318 0.18512 0.0
H1392 H 0.65743 0.64909 0.17864 0.0
H1393 H 0.6783 0.68811 0.21098 0.0
H1394 H 0.65055 0.58766 0.17791 0.0
H1395 H 0.72837 0.63381 0.10557 0.0
H1396 H 0.74305 0.62315 0.13743 0.0
H1397 H 0.7231 0.65326 0.13635 0.0
C1398 C 0.73697 0.65162 0.20953 0.0
C1399 C 0.7207 0.67365 0.2164 0.0
C1400 C 0.72491 0.62924 0.19104 0.0
C1401 C 0.69649 0.62864 0.17916 0.0
C1402 C 0.67949 0.6493 0.18754 0.0
H1403 H 0.59107 0.60061 0.04127 0.0
H1404 H 0.63111 0.61396 0.07586 0.0
C1405 C 0.69148 0.67163 0.20601 0.0
C1406 C 0.68505 0.60857 0.15607 0.0
H1407 H 0.68924 0.5996 0.08826 0.0
C1408 C 0.65935 0.58961 0.15841 0.0
C1409 C 0.6967 0.61137 0.1307 0.0
C1410 C 0.72423 0.63158 0.1271 0.0
C1411 C 0.64382 0.57482 0.13567 0.0
C1412 C 0.65454 0.57901 0.11006 0.0
C1413 C 0.68129 0.5964 0.10799 0.0
C1414 C 0.63565 0.5701 0.08519 0.0
C1415 C 0.6149 0.55666 0.13892 0.0
C1416 C 0.6262 0.54097 0.07797 0.0
C1417 C 0.60323 0.53323 0.05813 0.0
C1418 C 0.58941 0.55459 0.04545 0.0
C1419 C 0.60097 0.58367 0.05093 0.0
C1420 C 0.62393 0.59134 0.07063 0.0
H1421 H 0.60841 0.55801 0.15989 0.0
H1422 H 0.59746 0.56354 0.12522 0.0
H1423 H 0.61636 0.5338 0.13346 0.0
H1424 H 0.63532 0.52431 0.08878 0.0
H1425 H 0.59494 0.51062 0.05428 0.0
H1426 H 0.25605 0.65634 0.20142 0.0
H1427 H 0.28452 0.63512 0.16864 0.0
H1428 H 0.36145 0.6925 0.19988 0.0
H1429 H 0.33308 0.71292 0.23362 0.0
H1430 H 0.31321 0.65663 0.12822 0.0
H1431 H 0.39283 0.61724 0.20111 0.0
H1432 H 0.36052 0.63059 0.21135 0.0
H1433 H 0.3923 0.65529 0.20504 0.0
C1434 C 0.27912 0.66428 0.20152 0.0
C1435 C 0.2923 0.6864 0.22017 0.0
C1436 C 0.29539 0.65219 0.1826 0.0
C1437 C 0.32539 0.66173 0.18186 0.0
C1438 C 0.33855 0.68417 0.20028 0.0
H1439 H 0.45783 0.61544 0.07912 0.0
H1440 H 0.42961 0.63782 0.11134 0.0
C1441 C 0.32222 0.69621 0.21935 0.0
C1442 C 0.34251 0.64828 0.16163 0.0
H1443 H 0.40226 0.61386 0.15505 0.0
C1444 C 0.33263 0.64721 0.13417 0.0
C1445 C 0.36786 0.63576 0.16916 0.0
C1446 C 0.37888 0.63447 0.19828 0.0
C1447 C 0.34751 0.63455 0.1142 0.0
C1448 C 0.37291 0.6222 0.12175 0.0
C1449 C 0.38285 0.62331 0.14916 0.0
C1450 C 0.38974 0.6084 0.10157 0.0
C1451 C 0.33622 0.63504 0.08508 0.0
C1452 C 0.37696 0.58409 0.0853 0.0
C1453 C 0.39315 0.57106 0.06675 0.0
C1454 C 0.42258 0.58201 0.064 0.0
C1455 C 0.43526 0.60633 0.08044 0.0
C1456 C 0.41913 0.61921 0.09901 0.0
H1457 H 0.32108 0.65122 0.08206 0.0
H1458 H 0.35449 0.63987 0.07205 0.0
H1459 H 0.32412 0.61356 0.07844 0.0
H1460 H 0.35451 0.57493 0.08716 0.0
H1461 H 0.38259 0.55235 0.05463 0.0
H1462 H 0.31428 0.33761 0.21482 0.0
H1463 H 0.34713 0.36535 0.1863 0.0
H1464 H 0.37098 0.28675 0.15277 0.0
H1465 H 0.33747 0.2587 0.18083 0.0
H1466 H 0.40456 0.37134 0.18317 0.0
H1467 H 0.35229 0.32491 0.08453 0.0
H1468 H 0.33553 0.31833 0.11561 0.0
H1469 H 0.3642 0.29862 0.10636 0.0
C1470 C 0.32639 0.32605 0.20138 0.0
C1471 C 0.32287 0.29569 0.20023 0.0
C1472 C 0.34533 0.34208 0.18498 0.0
C1473 C 0.36142 0.32839 0.1668 0.0
C1474 C 0.35839 0.29807 0.16594 0.0
H1475 H 0.48082 0.40959 0.04968 0.0
H1476 H 0.45854 0.37455 0.08061 0.0
C1477 C 0.33928 0.28196 0.18227 0.0
C1478 C 0.38149 0.34606 0.14926 0.0
H1479 H 0.3956 0.35781 0.08362 0.0
C1480 C 0.40255 0.3682 0.16142 0.0
C1481 C 0.37931 0.34221 0.12072 0.0
C1482 C 0.35646 0.31993 0.10596 0.0
C1483 C 0.42094 0.38653 0.1461 0.0
C1484 C 0.41832 0.38307 0.11761 0.0
C1485 C 0.39791 0.36046 0.10542 0.0
C1486 C 0.43427 0.40446 0.1002 0.0
C1487 C 0.44302 0.40967 0.16061 0.0
C1488 C 0.42851 0.43304 0.10094 0.0
C1489 C 0.44104 0.45285 0.08333 0.0
C1490 C 0.45999 0.44493 0.06443 0.0
C1491 C 0.46676 0.4166 0.06425 0.0
C1492 C 0.45377 0.39648 0.08177 0.0
H1493 H 0.44837 0.40441 0.18178 0.0
H1494 H 0.46348 0.41289 0.1502 0.0
H1495 H 0.43385 0.43028 0.16099 0.0
H1496 H 0.41334 0.43983 0.11454 0.0
H1497 H 0.43509 0.47437 0.08396 0.0
H1498 H 0.73237 0.62512 0.68441 0.0
H1499 H 0.74394 0.58134 0.6615 0.0
H1500 H 0.83515 0.60655 0.68708 0.0
H1501 H 0.82373 0.64991 0.70992 0.0
H1502 H 0.77853 0.58502 0.61996 0.0
H1503 H 0.82635 0.52068 0.69676 0.0
H1504 H 0.8029 0.54695 0.70495 0.0
H1505 H 0.84148 0.5578 0.70284 0.0
C1506 C 0.75477 0.62086 0.68559 0.0
C1507 C 0.77727 0.64086 0.69861 0.0
C1508 C 0.76129 0.59585 0.67267 0.0
C1509 C 0.7903 0.59044 0.67303 0.0
C1510 C 0.81251 0.60984 0.68719 0.0
H1511 H 0.92518 0.56316 0.59657 0.0
H1512 H 0.88576 0.56703 0.62541 0.0
C1513 C 0.80604 0.63483 0.69991 0.0
C1514 C 0.79862 0.56784 0.65495 0.0
H1515 H 0.84962 0.52235 0.65343 0.0
C1516 C 0.79312 0.57031 0.62715 0.0
C1517 C 0.81726 0.54841 0.66439 0.0
C1518 C 0.82203 0.5431 0.69391 0.0
C1519 C 0.80903 0.55701 0.60874 0.0
C1520 C 0.8306 0.54072 0.61858 0.0
C1521 C 0.83331 0.53522 0.64604 0.0
C1522 C 0.85453 0.5353 0.60214 0.0
C1523 C 0.80504 0.5631 0.57929 0.0
C1524 C 0.84997 0.51594 0.57963 0.0
C1525 C 0.87252 0.51378 0.56287 0.0
C1526 C 0.89986 0.531 0.56846 0.0
C1527 C 0.9044 0.54975 0.5915 0.0
C1528 C 0.88196 0.55183 0.60816 0.0
H1529 H 0.78785 0.57698 0.57512 0.0
H1530 H 0.82588 0.5739 0.57249 0.0
H1531 H 0.79888 0.54254 0.56717 0.0
H1532 H 0.82891 0.50296 0.57479 0.0
H1533 H 0.86838 0.49896 0.54538 0.0
H1534 H 0.37649 0.82218 0.73792 0.0
H1535 H 0.41918 0.84822 0.71939 0.0
H1536 H 0.37237 0.84141 0.64075 0.0
H1537 H 0.32994 0.81406 0.65904 0.0
H1538 H 0.42915 0.83062 0.63927 0.0
H1539 H 0.4249 0.93136 0.70104 0.0
H1540 H 0.42911 0.89959 0.71898 0.0
H1541 H 0.39566 0.90161 0.69899 0.0
C1542 C 0.37529 0.82637 0.71668 0.0
C1543 C 0.3499 0.81655 0.69986 0.0
C1544 C 0.39969 0.84121 0.70618 0.0
C1545 C 0.39877 0.84705 0.67884 0.0
C1546 C 0.37347 0.83702 0.66195 0.0
H1547 H 0.43073 0.96486 0.57731 0.0
H1548 H 0.42401 0.93496 0.61535 0.0
C1549 C 0.34921 0.82168 0.67237 0.0
C1550 C 0.42347 0.86467 0.6677 0.0
H1551 H 0.45563 0.93427 0.66613 0.0
C1552 C 0.43556 0.85315 0.64546 0.0
C1553 C 0.43215 0.89386 0.67633 0.0
C1554 C 0.41974 0.9075 0.70003 0.0
C1555 C 0.4535 0.87086 0.62967 0.0
C1556 C 0.45965 0.90063 0.63673 0.0
C1557 C 0.45067 0.91137 0.6609 0.0
C1558 C 0.4668 0.92141 0.61604 0.0
C1559 C 0.46309 0.85825 0.60407 0.0
C1560 C 0.49342 0.92413 0.60415 0.0
C1561 C 0.49731 0.94126 0.58198 0.0
C1562 C 0.47457 0.95566 0.57157 0.0
C1563 C 0.4486 0.95385 0.58453 0.0
C1564 C 0.44477 0.9369 0.60647 0.0
H1565 H 0.45599 0.83466 0.60138 0.0
H1566 H 0.45398 0.86874 0.5864 0.0
H1567 H 0.48725 0.86233 0.60435 0.0
H1568 H 0.51075 0.91251 0.6115 0.0
H1569 H 0.51773 0.94262 0.57265 0.0
H1570 H 0.20436 0.33609 0.68275 0.0
H1571 H 0.16593 0.35417 0.65494 0.0
H1572 H 0.10112 0.29176 0.68579 0.0
H1573 H 0.13968 0.27366 0.71416 0.0
H1574 H 0.12188 0.30427 0.61782 0.0
H1575 H 0.07623 0.3823 0.68377 0.0
H1576 H 0.11438 0.37869 0.68955 0.0
H1577 H 0.08717 0.34929 0.69595 0.0
C1578 C 0.18188 0.32662 0.68404 0.0
C1579 C 0.17488 0.30345 0.70037 0.0
C1580 C 0.16001 0.33695 0.66822 0.0
C1581 C 0.1309 0.32418 0.66843 0.0
C1582 C 0.12355 0.30187 0.6856 0.0
H1583 H 0.03701 0.37972 0.52391 0.0
H1584 H 0.04316 0.34821 0.56127 0.0
C1585 C 0.14551 0.29164 0.70172 0.0
C1586 C 0.10931 0.33263 0.64833 0.0
H1587 H 0.06919 0.38689 0.6365 0.0
C1588 C 0.10948 0.32172 0.62181 0.0
C1589 C 0.09332 0.35523 0.65397 0.0
C1590 C 0.09249 0.36713 0.68236 0.0
C1591 C 0.09649 0.33489 0.60025 0.0
C1592 C 0.08259 0.35924 0.60568 0.0
C1593 C 0.07996 0.36827 0.63248 0.0
C1594 C 0.07598 0.37867 0.58422 0.0
C1595 C 0.10021 0.3244 0.57188 0.0
C1596 C 0.09181 0.40643 0.58515 0.0
C1597 C 0.08823 0.42451 0.56408 0.0
C1598 C 0.0688 0.41513 0.54153 0.0
C1599 C 0.05255 0.38741 0.5408 0.0
C1600 C 0.05595 0.36939 0.56212 0.0
H1601 H 0.11484 0.30758 0.57135 0.0
H1602 H 0.07863 0.31507 0.56188 0.0
H1603 H 0.10934 0.34256 0.56001 0.0
H1604 H 0.10753 0.41391 0.60199 0.0
H1605 H 0.10094 0.44576 0.56542 0.0
H1606 H 0.67022 0.21062 0.69178 0.0
H1607 H 0.64939 0.17962 0.65275 0.0
H1608 H 0.7214 0.21298 0.60778 0.0
H1609 H 0.7427 0.24396 0.64679 0.0
H1610 H 0.63368 0.18994 0.59843 0.0
H1611 H 0.72533 0.12516 0.60912 0.0
H1612 H 0.71847 0.15057 0.63518 0.0
H1613 H 0.73508 0.16319 0.60566 0.0
C1614 C 0.68137 0.2119 0.67344 0.0
C1615 C 0.70833 0.22953 0.67257 0.0
C1616 C 0.66946 0.19407 0.65118 0.0
C1617 C 0.68431 0.19352 0.62771 0.0
C1618 C 0.71 0.21269 0.62597 0.0
H1619 H 0.59289 0.09218 0.49055 0.0
H1620 H 0.63132 0.12699 0.51429 0.0
C1621 C 0.72193 0.23061 0.64823 0.0
C1622 C 0.67339 0.17177 0.60576 0.0
H1623 H 0.6876 0.10925 0.57537 0.0
C1624 C 0.64559 0.17251 0.59307 0.0
C1625 C 0.68896 0.14889 0.59922 0.0
C1626 C 0.71853 0.1466 0.61308 0.0
C1627 C 0.63254 0.15061 0.57439 0.0
C1628 C 0.64802 0.12764 0.56785 0.0
C1629 C 0.67608 0.12712 0.58017 0.0
C1630 C 0.63383 0.10282 0.55023 0.0
C1631 C 0.60168 0.15157 0.56279 0.0
C1632 C 0.62483 0.07648 0.56161 0.0
C1633 C 0.60331 0.05625 0.54782 0.0
C1634 C 0.59051 0.06251 0.52275 0.0
C1635 C 0.60246 0.08702 0.50993 0.0
C1636 C 0.62423 0.10698 0.52353 0.0
H1637 H 0.59099 0.1677 0.57382 0.0
H1638 H 0.60203 0.15746 0.54146 0.0
H1639 H 0.58817 0.13017 0.56333 0.0
H1640 H 0.63218 0.07286 0.58218 0.0
H1641 H 0.59427 0.03758 0.55813 0.0
H1642 H 0.80005 0.34906 0.27881 0.0
H1643 H 0.82026 0.38322 0.3153 0.0
H1644 H 0.76892 0.33416 0.37087 0.0
H1645 H 0.74939 0.29872 0.33437 0.0
H1646 H 0.8049 0.41802 0.35451 0.0
H1647 H 0.85052 0.32451 0.39842 0.0
H1648 H 0.83105 0.32166 0.36561 0.0
H1649 H 0.81151 0.32247 0.3954 0.0
C1650 C 0.79252 0.34566 0.29864 0.0
C1651 C 0.77385 0.32062 0.30387 0.0
C1652 C 0.80399 0.36543 0.31952 0.0
C1653 C 0.79678 0.36075 0.34595 0.0
C1654 C 0.77542 0.33766 0.35071 0.0
H1655 H 0.92071 0.45686 0.47162 0.0
H1656 H 0.87274 0.43727 0.44994 0.0
C1657 C 0.76421 0.31751 0.32982 0.0
C1658 C 0.81529 0.3774 0.36824 0.0
H1659 H 0.87152 0.37032 0.41455 0.0
C1660 C 0.81893 0.40763 0.36821 0.0
C1661 C 0.83378 0.36372 0.38593 0.0
C1662 C 0.83179 0.33134 0.38637 0.0
C1663 C 0.84193 0.4244 0.38392 0.0
C1664 C 0.86134 0.41053 0.40013 0.0
C1665 C 0.85636 0.38063 0.40192 0.0
C1666 C 0.8893 0.42589 0.41222 0.0
C1667 C 0.84675 0.45661 0.38179 0.0
C1668 C 0.91425 0.42595 0.39801 0.0
C1669 C 0.94166 0.43714 0.4103 0.0
C1670 C 0.94445 0.44861 0.43693 0.0
C1671 C 0.91926 0.44909 0.45088 0.0
C1672 C 0.89182 0.4377 0.43861 0.0
H1673 H 0.82808 0.46444 0.37049 0.0
H1674 H 0.85019 0.46744 0.4022 0.0
H1675 H 0.86679 0.46288 0.3713 0.0
H1676 H 0.91256 0.41657 0.37765 0.0
H1677 H 0.96071 0.43648 0.39911 0.0
H1678 H 0.69434 0.77067 0.27632 0.0
H1679 H 0.66484 0.80105 0.30073 0.0
H1680 H 0.7302 0.8113 0.36795 0.0
H1681 H 0.76055 0.78343 0.34278 0.0
H1682 H 0.63807 0.79809 0.343 0.0
H1683 H 0.72235 0.89259 0.3631 0.0
H1684 H 0.72751 0.86283 0.34095 0.0
H1685 H 0.73563 0.86184 0.37688 0.0
C1686 C 0.70265 0.78004 0.29603 0.0
C1687 C 0.73021 0.77534 0.30722 0.0
C1688 C 0.68564 0.79721 0.31017 0.0
C1689 C 0.69554 0.80955 0.33606 0.0
C1690 C 0.72242 0.80341 0.34765 0.0
H1691 H 0.58087 0.86515 0.453 0.0
H1692 H 0.60837 0.83851 0.42331 0.0
C1693 C 0.73967 0.78701 0.33331 0.0
C1694 C 0.67763 0.82796 0.3514 0.0
H1695 H 0.68277 0.88928 0.39196 0.0
C1696 C 0.64784 0.81821 0.35341 0.0
C1697 C 0.68977 0.85479 0.36454 0.0
C1698 C 0.72046 0.86875 0.36096 0.0
C1699 C 0.63036 0.83379 0.36877 0.0
C1700 C 0.6432 0.8593 0.38386 0.0
C1701 C 0.67274 0.86953 0.38106 0.0
C1702 C 0.62664 0.87572 0.40258 0.0
C1703 C 0.59812 0.82293 0.3679 0.0
C1704 C 0.62878 0.90597 0.40235 0.0
C1705 C 0.61395 0.92143 0.42025 0.0
C1706 C 0.59609 0.90703 0.43851 0.0
C1707 C 0.59407 0.87688 0.4389 0.0
C1708 C 0.60958 0.86153 0.42159 0.0
H1709 H 0.59028 0.81078 0.34856 0.0
H1710 H 0.59405 0.80791 0.38428 0.0
H1711 H 0.58507 0.84082 0.37035 0.0
H1712 H 0.64181 0.91772 0.38815 0.0
H1713 H 0.61594 0.94463 0.41936 0.0
H1714 H 0.1414 0.67512 0.27262 0.0
H1715 H 0.10139 0.65688 0.29952 0.0
H1716 H 0.14443 0.70815 0.36864 0.0
H1717 H 0.18344 0.72746 0.34145 0.0
H1718 H 0.10741 0.62466 0.33856 0.0
H1719 H 0.06318 0.71822 0.38022 0.0
H1720 H 0.08637 0.7211 0.35266 0.0
H1721 H 0.10201 0.72369 0.38706 0.0
C1722 C 0.14187 0.68291 0.29341 0.0
C1723 C 0.16551 0.70239 0.30513 0.0
C1724 C 0.119 0.67261 0.30872 0.0
C1725 C 0.1196 0.68139 0.33606 0.0
C1726 C 0.14285 0.70167 0.34744 0.0
H1727 H 0.09056 0.60048 0.47599 0.0
H1728 H 0.09945 0.63542 0.44134 0.0
C1729 C 0.16542 0.71237 0.332 0.0
C1730 C 0.09883 0.66606 0.35368 0.0
H1731 H 0.06041 0.676 0.40835 0.0
C1732 C 0.09636 0.6359 0.35322 0.0
C1733 C 0.0843 0.68061 0.37285 0.0
C1734 C 0.08388 0.71268 0.37298 0.0
C1735 C 0.08179 0.62014 0.37262 0.0
C1736 C 0.06942 0.63493 0.39307 0.0
C1737 C 0.07016 0.66484 0.39267 0.0
C1738 C 0.05961 0.61973 0.41677 0.0
C1739 C 0.08141 0.5879 0.37227 0.0
C1740 C 0.03368 0.60026 0.4148 0.0
C1741 C 0.02854 0.5803 0.43459 0.0
C1742 C 0.04937 0.57961 0.4564 0.0
C1743 C 0.0742 0.6006 0.45932 0.0
C1744 C 0.0792 0.62065 0.43968 0.0
H1745 H 0.09326 0.57988 0.35562 0.0
H1746 H 0.09151 0.58165 0.39166 0.0
H1747 H 0.0585 0.577 0.3699 0.0
H1748 H 0.01851 0.59918 0.39709 0.0
H1749 H 1.00942 0.56408 0.43171 0.0
H1750 H 0.29517 0.18332 0.27109 0.0
H1751 H 0.32085 0.1473 0.2939 0.0
H1752 H 0.35684 0.21133 0.35614 0.0
H1753 H 0.33192 0.2472 0.33329 0.0
H1754 H 0.38482 0.14942 0.31159 0.0
H1755 H 0.31344 0.14312 0.39624 0.0
H1756 H 0.30298 0.15715 0.36428 0.0
H1757 H 0.32808 0.17905 0.38844 0.0
C1758 C 0.30903 0.18981 0.28929 0.0
C1759 C 0.31173 0.21827 0.30012 0.0
C1760 C 0.32355 0.16916 0.30246 0.0
C1761 C 0.34067 0.17648 0.32694 0.0
C1762 C 0.3436 0.20497 0.33749 0.0
H1763 H 0.47228 0.10246 0.42248 0.0
H1764 H 0.44522 0.12829 0.38984 0.0
C1765 C 0.32934 0.22553 0.32431 0.0
C1766 C 0.35516 0.1546 0.342 0.0
H1767 H 0.35707 0.1221 0.40228 0.0
C1768 C 0.37857 0.1432 0.3313 0.0
C1769 C 0.34695 0.14618 0.36765 0.0
C1770 C 0.32133 0.15676 0.37982 0.0
C1771 C 0.39455 0.12455 0.34594 0.0
C1772 C 0.38715 0.11718 0.37214 0.0
C1773 C 0.36302 0.12776 0.38234 0.0
C1774 C 0.40457 0.09944 0.38978 0.0
C1775 C 0.41922 0.11288 0.33316 0.0
C1776 C 0.39105 0.07433 0.40077 0.0
C1777 C 0.40657 0.05938 0.41955 0.0
C1778 C 0.43599 0.06935 0.42816 0.0
C1779 C 0.44974 0.09395 0.41638 0.0
C1780 C 0.43426 0.10877 0.39751 0.0
H1781 H 0.41658 0.11322 0.31085 0.0
H1782 H 0.44012 0.12649 0.34017 0.0
H1783 H 0.4207 0.09047 0.33887 0.0
H1784 H 0.36819 0.06664 0.3953 0.0
H1785 H 0.39507 0.04072 0.42821 0.0
H1786 H 0.68941 0.74815 0.66227 0.0
H1787 H 0.66394 0.78337 0.63898 0.0
H1788 H 0.70081 0.84889 0.69957 0.0
H1789 H 0.72705 0.81354 0.72279 0.0
H1790 H 0.63667 0.84649 0.68267 0.0
H1791 H 0.70638 0.85029 0.59682 0.0
H1792 H 0.69183 0.81466 0.60553 0.0
H1793 H 0.71738 0.83703 0.62898 0.0
C1794 C 0.69206 0.77001 0.6708 0.0
C1795 C 0.71007 0.77788 0.69466 0.0
C1796 C 0.67749 0.79019 0.65737 0.0
C1797 C 0.68049 0.81892 0.66732 0.0
C1798 C 0.69802 0.82685 0.69147 0.0
H1799 H 0.62522 0.95245 0.56391 0.0
H1800 H 0.65232 0.92696 0.59701 0.0
C1801 C 0.71285 0.80657 0.70491 0.0
C1802 C 0.66572 0.84039 0.65193 0.0
H1803 H 0.66279 0.87136 0.59092 0.0
C1804 C 0.64256 0.85216 0.66271 0.0
C1805 C 0.67345 0.8481 0.62595 0.0
C1806 C 0.69877 0.83711 0.61363 0.0
C1807 C 0.62639 0.87052 0.64788 0.0
C1808 C 0.63333 0.87722 0.62139 0.0
C1809 C 0.65719 0.86624 0.61107 0.0
C1810 C 0.61579 0.89476 0.60364 0.0
C1811 C 0.60203 0.88265 0.66077 0.0
C1812 C 0.58594 0.88565 0.59646 0.0
C1813 C 0.57032 0.90025 0.57749 0.0
C1814 C 0.5841 0.92437 0.56504 0.0
C1815 C 0.6137 0.93415 0.57309 0.0
C1816 C 0.62934 0.91944 0.59197 0.0
H1817 H 0.60505 0.88281 0.6831 0.0
H1818 H 0.60055 0.90493 0.65467 0.0
H1819 H 0.581 0.86902 0.65425 0.0
H1820 H 0.57493 0.86646 0.60466 0.0
H1821 H 0.54764 0.89191 0.57185 0.0
H1822 H 0.70038 0.18428 0.3384 0.0
H1823 H 0.65903 0.15692 0.35848 0.0
H1824 H 0.60535 0.1586 0.28419 0.0
H1825 H 0.64678 0.18442 0.26376 0.0
H1826 H 0.60402 0.16775 0.36688 0.0
H1827 H 0.5988 0.07374 0.29413 0.0
H1828 H 0.62855 0.103 0.29647 0.0
H1829 H 0.59393 0.10724 0.27952 0.0
C1830 C 0.67975 0.17863 0.32645 0.0
C1831 C 0.67678 0.1858 0.2995 0.0
C1832 C 0.65616 0.16324 0.33789 0.0
C1833 C 0.62932 0.15531 0.32258 0.0
C1834 C 0.62605 0.16379 0.29606 0.0
H1835 H 0.50658 0.05728 0.42404 0.0
H1836 H 0.51688 0.09068 0.38815 0.0
C1837 C 0.64973 0.17855 0.28449 0.0
C1838 C 0.60539 0.13692 0.3341 0.0
H1839 H 0.5681 0.06884 0.32913 0.0
C1840 C 0.59571 0.14627 0.35847 0.0
C1841 C 0.59438 0.1091 0.32271 0.0
C1842 C 0.60454 0.0975 0.29689 0.0
C1843 C 0.5773 0.1276 0.37306 0.0
C1844 C 0.56798 0.09913 0.36255 0.0
C1845 C 0.57528 0.09078 0.33693 0.0
C1846 C 0.55788 0.07615 0.38036 0.0
C1847 C 0.57018 0.13762 0.40062 0.0
C1848 C 0.57672 0.05608 0.38668 0.0
C1849 C 0.57092 0.03715 0.40689 0.0
C1850 C 0.54616 0.03794 0.42129 0.0
C1851 C 0.52605 0.05653 0.41356 0.0
C1852 C 0.53191 0.07563 0.39315 0.0
H1853 H 0.58091 0.15986 0.40647 0.0
H1854 H 0.54623 0.13717 0.40086 0.0
H1855 H 0.57718 0.12297 0.41601 0.0
H1856 H 0.59686 0.0561 0.37696 0.0
H1857 H 0.5866 0.02274 0.41197 0.0
H1858 H 0.82418 0.65833 0.30551 0.0
H1859 H 0.86193 0.63808 0.33239 0.0
H1860 H 0.92633 0.70816 0.31338 0.0
H1861 H 0.88859 0.72849 0.28607 0.0
H1862 H 0.92782 0.62861 0.31776 0.0
H1863 H 0.91302 0.70751 0.40048 0.0
H1864 H 0.88348 0.6962 0.37504 0.0
H1865 H 0.9158 0.71822 0.36628 0.0
C1866 C 0.84649 0.66907 0.30659 0.0
C1867 C 0.85356 0.69501 0.29402 0.0
C1868 C 0.86799 0.65747 0.3218 0.0
C1869 C 0.89671 0.67176 0.32475 0.0
C1870 C 0.90422 0.6969 0.31111 0.0
H1871 H 0.98635 0.61744 0.47022 0.0
H1872 H 0.98101 0.64651 0.43098 0.0
C1873 C 0.8827 0.70843 0.29566 0.0
C1874 C 0.91743 0.66188 0.34479 0.0
H1875 H 0.93397 0.66665 0.41258 0.0
C1876 C 0.93001 0.63731 0.3384 0.0
C1877 C 0.92049 0.67368 0.37148 0.0
C1878 C 0.9076 0.70041 0.37896 0.0
C1879 C 0.94369 0.62281 0.35863 0.0
C1880 C 0.94376 0.63274 0.38581 0.0
C1881 C 0.93365 0.65889 0.39176 0.0
C1882 C 0.9496 0.61436 0.40838 0.0
C1883 C 0.95672 0.59631 0.35074 0.0
C1884 C 0.93334 0.58689 0.40885 0.0
C1885 C 0.93633 0.57026 0.43111 0.0
C1886 C 0.95533 0.58094 0.4536 0.0
C1887 C 0.97138 0.60864 0.45327 0.0
C1888 C 0.96856 0.62519 0.4308 0.0
H1889 H 0.96621 0.5987 0.33101 0.0
H1890 H 0.97395 0.59185 0.36601 0.0
H1891 H 0.93925 0.57747 0.3485 0.0
H1892 H 0.91771 0.57853 0.39223 0.0
H1893 H 0.92355 0.54909 0.43071 0.0
H1894 H 0.34912 0.77714 0.31704 0.0
H1895 H 0.36764 0.8056 0.35819 0.0
H1896 H 0.28267 0.78978 0.38878 0.0
H1897 H 0.26378 0.76138 0.3475 0.0
H1898 H 0.30476 0.84787 0.38895 0.0
H1899 H 0.38702 0.78687 0.43601 0.0
H1900 H 0.39171 0.79115 0.40094 0.0
H1901 H 0.35883 0.77065 0.41091 0.0
C1902 C 0.33454 0.77899 0.3328 0.0
C1903 C 0.305 0.76697 0.32897 0.0
C1904 C 0.34518 0.79522 0.35638 0.0
C1905 C 0.32655 0.79962 0.37659 0.0
C1906 C 0.2974 0.78648 0.37345 0.0
H1907 H 0.4279 0.90339 0.50634 0.0
H1908 H 0.38557 0.86981 0.48759 0.0
C1909 C 0.28674 0.77007 0.34991 0.0
C1910 C 0.33703 0.82042 0.39944 0.0
H1911 H 0.39451 0.83826 0.44624 0.0
C1912 C 0.32399 0.84556 0.40199 0.0
C1913 C 0.3617 0.81714 0.41675 0.0
C1914 C 0.37543 0.78983 0.41622 0.0
C1915 C 0.33641 0.86848 0.42 0.0
C1916 C 0.36277 0.86628 0.43542 0.0
C1917 C 0.37442 0.8402 0.43431 0.0
C1918 C 0.38078 0.89138 0.45027 0.0
C1919 C 0.3216 0.89503 0.42175 0.0
C1920 C 0.39083 0.91586 0.43637 0.0
C1921 C 0.41461 0.93547 0.44739 0.0
C1922 C 0.42895 0.93038 0.47211 0.0
C1923 C 0.41706 0.90767 0.48721 0.0
C1924 C 0.39298 0.88844 0.47646 0.0
H1925 H 0.29755 0.88941 0.41786 0.0
H1926 H 0.32651 0.90658 0.44178 0.0
H1927 H 0.32926 0.9098 0.40609 0.0
H1928 H 0.38227 0.91837 0.41593 0.0
H1929 H 0.42373 0.95263 0.43527 0.0
H1930 H 0.2907 0.37203 0.3106 0.0
H1931 H 0.2799 0.41511 0.33532 0.0
H1932 H 0.18775 0.38777 0.3162 0.0
H1933 H 0.19836 0.34508 0.29143 0.0
H1934 H 0.20734 0.44963 0.31343 0.0
H1935 H 0.24474 0.40302 0.40914 0.0
H1936 H 0.26923 0.40846 0.38287 0.0
H1937 H 0.23786 0.38125 0.37811 0.0
C1938 C 0.26819 0.37555 0.31139 0.0
C1939 C 0.24528 0.35518 0.29951 0.0
C1940 C 0.2621 0.40008 0.32546 0.0
C1941 C 0.23306 0.40438 0.32771 0.0
C1942 C 0.21032 0.38481 0.31458 0.0
H1943 H 0.09713 0.44654 0.3966 0.0
H1944 H 0.13633 0.44198 0.3678 0.0
C1945 C 0.21637 0.36037 0.30061 0.0
C1946 C 0.22548 0.42713 0.34601 0.0
H1947 H 0.21308 0.43727 0.41193 0.0
C1948 C 0.20938 0.44767 0.33507 0.0
C1949 C 0.22862 0.4248 0.37424 0.0
C1950 C 0.24597 0.40321 0.38697 0.0
C1951 C 0.19373 0.46381 0.35145 0.0
C1952 C 0.19387 0.45874 0.37921 0.0
C1953 C 0.21283 0.44087 0.39056 0.0
C1954 C 0.17021 0.46604 0.39528 0.0
C1955 C 0.17554 0.48461 0.33863 0.0
C1956 C 0.17629 0.48076 0.42053 0.0
C1957 C 0.15379 0.48322 0.43728 0.0
C1958 C 0.12503 0.47051 0.42915 0.0
C1959 C 0.11904 0.45642 0.40357 0.0
C1960 C 0.14139 0.45418 0.38686 0.0
H1961 H 0.18614 0.49456 0.32133 0.0
H1962 H 0.154 0.47278 0.33077 0.0
H1963 H 0.17195 0.50192 0.35331 0.0
H1964 H 0.19851 0.48962 0.42753 0.0
H1965 H 0.15907 0.49424 0.45689 0.0
H1966 H 0.33601 0.23776 0.70874 0.0
H1967 H 0.36533 0.2082 0.68295 0.0
H1968 H 0.28695 0.16571 0.63845 0.0
H1969 H 0.25774 0.19502 0.66399 0.0
H1970 H 0.32953 0.12791 0.65891 0.0
H1971 H 0.37805 0.21848 0.60037 0.0
H1972 H 0.3798 0.22425 0.63639 0.0
H1973 H 0.34507 0.21974 0.61721 0.0
C1974 C 0.32509 0.22196 0.6936 0.0
C1975 C 0.2946 0.21884 0.68831 0.0
C1976 C 0.34184 0.20519 0.67876 0.0
C1977 C 0.32837 0.18488 0.65853 0.0
C1978 C 0.29787 0.18126 0.65382 0.0
H1979 H 0.3824 0.05845 0.54523 0.0
H1980 H 0.35533 0.08581 0.57494 0.0
C1981 C 0.28121 0.19815 0.66839 0.0
C1982 C 0.34588 0.16772 0.64181 0.0
H1983 H 0.39253 0.17321 0.5917 0.0
C1984 C 0.34341 0.13779 0.64427 0.0
C1985 C 0.36397 0.18057 0.62269 0.0
C1986 C 0.3669 0.21249 0.61872 0.0
C1987 C 0.35882 0.12047 0.62843 0.0
C1988 C 0.37653 0.13322 0.60884 0.0
C1989 C 0.37902 0.16324 0.60655 0.0
C1990 C 0.39288 0.11607 0.59069 0.0
C1991 C 0.35649 0.08878 0.63346 0.0
C1992 C 0.42292 0.12428 0.58869 0.0
C1993 C 0.43834 0.10899 0.57128 0.0
C1994 C 0.42423 0.08489 0.55536 0.0
C1995 C 0.39413 0.07665 0.55733 0.0
C1996 C 0.37861 0.09222 0.57456 0.0
H1997 H 0.35022 0.08432 0.65412 0.0
H1998 H 0.33931 0.0767 0.61905 0.0
H1999 H 0.37741 0.0805 0.63072 0.0
H2000 H 0.43458 0.14258 0.60073 0.0
H2001 H 0.46147 0.11605 0.57044 0.0
H2002 H 0.87725 0.27293 0.70183 0.0
H2003 H 0.91913 0.28992 0.67636 0.0
H2004 H 0.87529 0.3598 0.64857 0.0
H2005 H 0.83351 0.34292 0.67375 0.0
H2006 H 0.91773 0.29772 0.61907 0.0
H2007 H 0.9579 0.39887 0.67878 0.0
H2008 H 0.93498 0.3692 0.69199 0.0
H2009 H 0.91906 0.39444 0.67126 0.0
C2010 C 0.87676 0.29207 0.69045 0.0
C2011 C 0.85235 0.30682 0.6898 0.0
C2012 C 0.90061 0.30167 0.67596 0.0
C2013 C 0.90044 0.32637 0.66107 0.0
C2014 C 0.87602 0.34102 0.66043 0.0
H2015 H 0.93314 0.40001 0.52493 0.0
H2016 H 0.92533 0.36405 0.55848 0.0
C2017 C 0.85214 0.33131 0.67465 0.0
C2018 C 0.92477 0.33642 0.64479 0.0
H2019 H 0.96678 0.39868 0.63133 0.0
C2020 C 0.92922 0.31949 0.62208 0.0
C2021 C 0.94041 0.36442 0.64921 0.0
C2022 C 0.9381 0.38267 0.67432 0.0
C2023 C 0.94624 0.33122 0.60201 0.0
C2024 C 0.9585 0.36058 0.60471 0.0
C2025 C 0.95702 0.37626 0.629 0.0
C2026 C 0.96708 0.37705 0.58119 0.0
C2027 C 0.94948 0.3126 0.57741 0.0
C2028 C 0.99331 0.39617 0.58253 0.0
C2029 C 0.99765 0.41702 0.56341 0.0
C2030 C 0.97573 0.4191 0.54285 0.0
C2031 C 0.95037 0.39881 0.54057 0.0
C2032 C 0.94609 0.37798 0.55956 0.0
H2033 H 0.95029 0.28997 0.5828 0.0
H2034 H 0.93022 0.3126 0.56282 0.0
H2035 H 0.9695 0.32055 0.56749 0.0
H2036 H 1.00961 0.39606 0.59924 0.0
H2037 H 0.01721 0.43272 0.56582 0.0
H2038 H 0.25049 0.70689 0.65388 0.0
H2039 H 0.22754 0.66803 0.62207 0.0
H2040 H 0.24402 0.60556 0.68044 0.0
H2041 H 0.26559 0.64459 0.7129 0.0
H2042 H 0.23328 0.61487 0.59785 0.0
H2043 H 0.15645 0.60431 0.67897 0.0
H2044 H 0.18668 0.63293 0.67998 0.0
H2045 H 0.19276 0.59715 0.68818 0.0
C2046 C 0.25025 0.68481 0.65953 0.0
C2047 C 0.25911 0.6786 0.68591 0.0
C2048 C 0.23717 0.6626 0.64133 0.0
C2049 C 0.23328 0.63404 0.64927 0.0
C2050 C 0.24615 0.62756 0.67424 0.0
H2051 H 0.0981 0.51212 0.5528 0.0
H2052 H 0.14622 0.52966 0.57588 0.0
C2053 C 0.25851 0.6498 0.6927 0.0
C2054 C 0.21078 0.61287 0.63413 0.0
H2055 H 0.14093 0.58004 0.6379 0.0
C2056 C 0.21333 0.60664 0.60668 0.0
C2057 C 0.18458 0.60253 0.64574 0.0
C2058 C 0.17971 0.60967 0.67474 0.0
C2059 C 0.18976 0.59156 0.59026 0.0
C2060 C 0.16335 0.58249 0.60173 0.0
C2061 C 0.16143 0.58707 0.62939 0.0
C2062 C 0.13601 0.57231 0.58515 0.0
C2063 C 0.19241 0.58705 0.5605 0.0
C2064 C 0.11462 0.5906 0.58281 0.0
C2065 C 0.08725 0.58072 0.5699 0.0
C2066 C 0.08074 0.5523 0.55905 0.0
C2067 C 0.10252 0.53418 0.56081 0.0
C2068 C 0.13 0.54412 0.57389 0.0
H2069 H 0.21446 0.59563 0.55463 0.0
H2070 H 0.18784 0.5637 0.55469 0.0
H2071 H 0.17593 0.5978 0.54899 0.0
H2072 H 0.11896 0.61242 0.59155 0.0
H2073 H 0.0711 0.59531 0.56871 0.0
loop_
_geom_bond_atom_site_label_1
_geom_bond_atom_site_label_2
_geom_bond_distance
_geom_bond_site_symmetry_2
_ccdc_geom_bond_type
Tb0 O3 2.453 . S
Tb0 O4 2.596 . S
Tb0 O5 2.374 . S
Tb0 O13 2.343 . S
Tb0 O15 2.353 . S
Tb0 O17 2.427 . S
Tb0 O18 2.513 . S
C1 O5 1.251 . S
C1 O7 1.263 . S
Tb2 O4 2.343 . S
Tb2 O7 2.353 . S
Tb2 O10 2.427 . S
Tb2 O11 2.513 . S
Tb2 O12 2.453 . S
Tb2 O13 2.596 . S
Tb2 O14 2.374 . S
O3 Tb0 2.453 . S
O3 C19 1.245 . S
O4 Tb0 2.596 . S
O4 Tb2 2.343 . S
O4 C19 1.259 . S
O5 Tb0 2.374 . S
O5 C1 1.251 . S
C6 O10 1.275 . S
C6 O11 1.246 . S
O7 C1 1.263 . S
O7 Tb2 2.353 . S
C8 O12 1.245 . S
C8 O13 1.259 . S
C9 O14 1.250 . S
C9 O15 1.263 . S
O10 Tb2 2.427 . S
O10 C6 1.275 . S
O11 Tb2 2.513 . S
O11 C6 1.246 . S
O12 Tb2 2.453 . S
O12 C8 1.245 . S
O13 Tb0 2.343 . S
O13 Tb2 2.596 . S
O13 C8 1.259 . S
O14 Tb2 2.374 . S
O14 C9 1.250 . S
O15 Tb0 2.353 . S
O15 C9 1.263 . S
C16 O17 1.275 . S
C16 O18 1.246 . S
O17 Tb0 2.427 . S
O17 C16 1.275 . S
O18 Tb0 2.513 . S
O18 C16 1.246 . S
C19 O3 1.245 . S
C19 O4 1.259 . S
Tb20 O23 2.453 . S
Tb20 O24 2.596 . S
Tb20 O25 2.374 . S
Tb20 O33 2.343 . S
Tb20 O35 2.353 . S
Tb20 O37 2.427 . S
Tb20 O38 2.513 . S
C21 O25 1.251 . S
C21 O27 1.263 . S
Tb22 O24 2.343 . S
Tb22 O27 2.353 . S
Tb22 O30 2.427 . S
Tb22 O31 2.513 . S
Tb22 O32 2.453 . S
Tb22 O33 2.596 . S
Tb22 O34 2.374 . S
O23 Tb20 2.453 . S
O23 C39 1.245 . S
O24 Tb20 2.596 . S
O24 Tb22 2.343 . S
O24 C39 1.259 . S
O25 Tb20 2.374 . S
O25 C21 1.251 . S
C26 O30 1.275 . S
C26 O31 1.246 . S
O27 C21 1.263 . S
O27 Tb22 2.353 . S
C28 O32 1.245 . S
C28 O33 1.259 . S
C29 O34 1.250 . S
C29 O35 1.263 . S
O30 Tb22 2.427 . S
O30 C26 1.275 . S
O31 Tb22 2.513 . S
O31 C26 1.246 . S
O32 Tb22 2.453 . S
O32 C28 1.245 . S
O33 Tb20 2.343 . S
O33 Tb22 2.596 . S
O33 C28 1.259 . S
O34 Tb22 2.374 . S
O34 C29 1.250 . S
O35 Tb20 2.353 . S
O35 C29 1.263 . S
C36 O37 1.275 . S
C36 O38 1.246 . S
O37 Tb20 2.427 . S
O37 C36 1.275 . S
O38 Tb20 2.513 . S
O38 C36 1.246 . S
C39 O23 1.245 . S
C39 O24 1.259 . S
Tb40 O43 2.453 . S
Tb40 O44 2.596 . S
Tb40 O45 2.374 . S
Tb40 O53 2.343 . S
Tb40 O55 2.353 . S
Tb40 O57 2.427 . S
Tb40 O58 2.513 . S
C41 O45 1.251 . S
C41 O47 1.263 . S
Tb42 O44 2.343 . S
Tb42 O47 2.353 . S
Tb42 O50 2.427 . S
Tb42 O51 2.513 . S
Tb42 O52 2.453 . S
Tb42 O53 2.596 . S
Tb42 O54 2.374 . S
O43 Tb40 2.453 . S
O43 C59 1.245 . S
O44 Tb40 2.596 . S
O44 Tb42 2.343 . S
O44 C59 1.259 . S
O45 Tb40 2.374 . S
O45 C41 1.251 . S
C46 O50 1.275 . S
C46 O51 1.246 . S
O47 C41 1.263 . S
O47 Tb42 2.353 . S
C48 O52 1.245 . S
C48 O53 1.259 . S
C49 O54 1.250 . S
C49 O55 1.263 . S
O50 Tb42 2.427 . S
O50 C46 1.275 . S
O51 Tb42 2.513 . S
O51 C46 1.246 . S
O52 Tb42 2.453 . S
O52 C48 1.245 . S
O53 Tb40 2.343 . S
O53 Tb42 2.596 . S
O53 C48 1.259 . S
O54 Tb42 2.374 . S
O54 C49 1.250 . S
O55 Tb40 2.353 . S
O55 C49 1.263 . S
C56 O57 1.275 . S
C56 O58 1.246 . S
O57 Tb40 2.427 . S
O57 C56 1.275 . S
O58 Tb40 2.513 . S
O58 C56 1.246 . S
C59 O43 1.245 . S
C59 O44 1.259 . S
Tb60 O63 2.453 . S
Tb60 O64 2.596 . S
Tb60 O65 2.374 . S
Tb60 O73 2.343 . S
Tb60 O75 2.353 . S
Tb60 O77 2.427 . S
Tb60 O78 2.513 . S
C61 O65 1.251 . S
C61 O67 1.263 . S
Tb62 O64 2.343 . S
Tb62 O67 2.353 . S
Tb62 O70 2.427 . S
Tb62 O71 2.513 . S
Tb62 O72 2.453 . S
Tb62 O73 2.596 . S
Tb62 O74 2.374 . S
O63 Tb60 2.453 . S
O63 C79 1.245 . S
O64 Tb60 2.596 . S
O64 Tb62 2.343 . S
O64 C79 1.259 . S
O65 Tb60 2.374 . S
O65 C61 1.251 . S
C66 O70 1.275 . S
C66 O71 1.246 . S
O67 C61 1.263 . S
O67 Tb62 2.353 . S
C68 O72 1.245 . S
C68 O73 1.259 . S
C69 O74 1.250 . S
C69 O75 1.263 . S
O70 Tb62 2.427 . S
O70 C66 1.275 . S
O71 Tb62 2.513 . S
O71 C66 1.246 . S
O72 Tb62 2.453 . S
O72 C68 1.245 . S
O73 Tb60 2.343 . S
O73 Tb62 2.596 . S
O73 C68 1.259 . S
O74 Tb62 2.374 . S
O74 C69 1.250 . S
O75 Tb60 2.353 . S
O75 C69 1.263 . S
C76 O77 1.275 . S
C76 O78 1.246 . S
O77 Tb60 2.427 . S
O77 C76 1.275 . S
O78 Tb60 2.513 . S
O78 C76 1.246 . S
C79 O63 1.245 . S
C79 O64 1.259 . S
Tb80 O83 2.453 . S
Tb80 O84 2.596 . S
Tb80 O85 2.374 . S
Tb80 O93 2.343 . S
Tb80 O95 2.353 . S
Tb80 O97 2.427 . S
Tb80 O98 2.513 . S
C81 O85 1.251 . S
C81 O87 1.263 . S
Tb82 O84 2.343 . S
Tb82 O87 2.353 . S
Tb82 O90 2.427 . S
Tb82 O91 2.513 . S
Tb82 O92 2.453 . S
Tb82 O93 2.596 . S
Tb82 O94 2.374 . S
O83 Tb80 2.453 . S
O83 C99 1.245 . S
O84 Tb80 2.596 . S
O84 Tb82 2.343 . S
O84 C99 1.259 . S
O85 Tb80 2.374 . S
O85 C81 1.251 . S
C86 O90 1.275 . S
C86 O91 1.246 . S
O87 C81 1.263 . S
O87 Tb82 2.353 . S
C88 O92 1.245 . S
C88 O93 1.259 . S
C89 O94 1.250 . S
C89 O95 1.263 . S
O90 Tb82 2.427 . S
O90 C86 1.275 . S
O91 Tb82 2.513 . S
O91 C86 1.246 . S
O92 Tb82 2.453 . S
O92 C88 1.245 . S
O93 Tb80 2.343 . S
O93 Tb82 2.596 . S
O93 C88 1.259 . S
O94 Tb82 2.374 . S
O94 C89 1.250 . S
O95 Tb80 2.353 . S
O95 C89 1.263 . S
C96 O97 1.275 . S
C96 O98 1.246 . S
O97 Tb80 2.427 . S
O97 C96 1.275 . S
O98 Tb80 2.513 . S
O98 C96 1.246 . S
C99 O83 1.245 . S
C99 O84 1.259 . S
Tb100 O103 2.453 . S
Tb100 O104 2.596 . S
Tb100 O105 2.374 . S
Tb100 O113 2.343 . S
Tb100 O115 2.353 . S
Tb100 O117 2.427 . S
Tb100 O118 2.513 . S
C101 O105 1.251 . S
C101 O107 1.263 . S
Tb102 O104 2.343 . S
Tb102 O107 2.353 . S
Tb102 O110 2.427 . S
Tb102 O111 2.513 . S
Tb102 O112 2.453 . S
Tb102 O113 2.596 . S
Tb102 O114 2.374 . S
O103 Tb100 2.453 . S
O103 C119 1.245 . S
O104 Tb100 2.596 . S
O104 Tb102 2.343 . S
O104 C119 1.259 . S
O105 Tb100 2.374 . S
O105 C101 1.251 . S
C106 O110 1.275 . S
C106 O111 1.246 . S
O107 C101 1.263 . S
O107 Tb102 2.353 . S
C108 O112 1.245 . S
C108 O113 1.259 . S
C109 O114 1.250 . S
C109 O115 1.263 . S
O110 Tb102 2.427 . S
O110 C106 1.275 . S
O111 Tb102 2.513 . S
O111 C106 1.246 . S
O112 Tb102 2.453 . S
O112 C108 1.245 . S
O113 Tb100 2.343 . S
O113 Tb102 2.596 . S
O113 C108 1.259 . S
O114 Tb102 2.374 . S
O114 C109 1.250 . S
O115 Tb100 2.353 . S
O115 C109 1.263 . S
C116 O117 1.275 . S
C116 O118 1.246 . S
O117 Tb100 2.427 . S
O117 C116 1.275 . S
O118 Tb100 2.513 . S
O118 C116 1.246 . S
C119 O103 1.245 . S
C119 O104 1.259 . S
Tb120 O123 2.453 . S
Tb120 O124 2.596 . S
Tb120 O125 2.374 . S
Tb120 O133 2.343 . S
Tb120 O135 2.353 . S
Tb120 O137 2.427 . S
Tb120 O138 2.513 . S
C121 O125 1.251 . S
C121 O127 1.263 . S
Tb122 O124 2.343 . S
Tb122 O127 2.353 . S
Tb122 O130 2.427 . S
Tb122 O131 2.513 . S
Tb122 O132 2.453 . S
Tb122 O133 2.596 . S
Tb122 O134 2.374 . S
O123 Tb120 2.453 . S
O123 C139 1.245 . S
O124 Tb120 2.596 . S
O124 Tb122 2.343 . S
O124 C139 1.259 . S
O125 Tb120 2.374 . S
O125 C121 1.251 . S
C126 O130 1.275 . S
C126 O131 1.246 . S
O127 C121 1.263 . S
O127 Tb122 2.353 . S
C128 O132 1.245 . S
C128 O133 1.259 . S
C129 O134 1.250 . S
C129 O135 1.263 . S
O130 Tb122 2.427 . S
O130 C126 1.275 . S
O131 Tb122 2.513 . S
O131 C126 1.246 . S
O132 Tb122 2.453 . S
O132 C128 1.245 . S
O133 Tb120 2.343 . S
O133 Tb122 2.596 . S
O133 C128 1.259 . S
O134 Tb122 2.374 . S
O134 C129 1.250 . S
O135 Tb120 2.353 . S
O135 C129 1.263 . S
C136 O137 1.275 . S
C136 O138 1.246 . S
O137 Tb120 2.427 . S
O137 C136 1.275 . S
O138 Tb120 2.513 . S
O138 C136 1.246 . S
C139 O123 1.245 . S
C139 O124 1.259 . S
Tb140 O143 2.453 . S
Tb140 O144 2.596 . S
Tb140 O145 2.374 . S
Tb140 O153 2.343 . S
Tb140 O155 2.353 . S
Tb140 O157 2.427 . S
Tb140 O158 2.513 . S
C141 O145 1.251 . S
C141 O147 1.263 . S
Tb142 O144 2.343 . S
Tb142 O147 2.353 . S
Tb142 O150 2.427 . S
Tb142 O151 2.513 . S
Tb142 O152 2.453 . S
Tb142 O153 2.596 . S
Tb142 O154 2.374 . S
O143 Tb140 2.453 . S
O143 C159 1.245 . S
O144 Tb140 2.596 . S
O144 Tb142 2.343 . S
O144 C159 1.259 . S
O145 Tb140 2.374 . S
O145 C141 1.251 . S
C146 O150 1.275 . S
C146 O151 1.246 . S
O147 C141 1.263 . S
O147 Tb142 2.353 . S
C148 O152 1.245 . S
C148 O153 1.259 . S
C149 O154 1.250 . S
C149 O155 1.263 . S
O150 Tb142 2.427 . S
O150 C146 1.275 . S
O151 Tb142 2.513 . S
O151 C146 1.246 . S
O152 Tb142 2.453 . S
O152 C148 1.245 . S
O153 Tb140 2.343 . S
O153 Tb142 2.596 . S
O153 C148 1.259 . S
O154 Tb142 2.374 . S
O154 C149 1.250 . S
O155 Tb140 2.353 . S
O155 C149 1.263 . S
C156 O157 1.275 . S
C156 O158 1.246 . S
O157 Tb140 2.427 . S
O157 C156 1.275 . S
O158 Tb140 2.513 . S
O158 C156 1.246 . S
C159 O143 1.245 . S
C159 O144 1.259 . S
C160 O172 1.241 . S
C160 O173 1.280 . S
C161 O174 1.277 . S
C161 O175 1.245 . S
C162 O186 1.247 . S
C162 O188 1.289 . S
Mg163 O164 1.926 . S
Mg163 O173 1.984 . S
Mg163 O175 1.988 . S
Mg163 O176 2.061 1_655 S
O164 Mg163 1.926 . S
O164 Mg165 1.986 . S
O164 Mg166 1.917 1_655 S
Mg165 O164 1.986 . S
Mg165 O172 2.042 . S
Mg165 O174 2.041 . S
Mg165 O180 2.038 1_545 S
Mg165 O188 2.238 1_545 S
Mg166 O164 1.917 1_455 S
Mg166 O167 1.917 1_545 S
Mg166 O177 2.106 . S
Mg166 O179 2.079 1_445 S
Mg166 O188 2.106 1_445 S
Mg166 O189 2.079 . S
O167 Mg166 1.917 1_565 S
O167 Mg168 1.926 . S
O167 Mg169 1.986 . S
Mg168 O167 1.926 . S
Mg168 O182 1.984 . S
Mg168 O185 1.988 . S
Mg168 O186 2.061 1_455 S
Mg169 O167 1.986 . S
Mg169 O177 2.238 1_565 S
Mg169 O181 2.042 . S
Mg169 O183 2.041 . S
Mg169 O190 2.038 1_565 S
C170 O176 1.247 . S
C170 O177 1.289 . S
C171 O189 1.245 . S
C171 O190 1.274 . S
O172 C160 1.241 . S
O172 Mg165 2.042 . S
O173 C160 1.280 . S
O173 Mg163 1.984 . S
O174 C161 1.277 . S
O174 Mg165 2.041 . S
O175 C161 1.245 . S
O175 Mg163 1.988 . S
O176 Mg163 2.061 1_455 S
O176 C170 1.247 . S
O177 Mg166 2.106 . S
O177 Mg169 2.238 1_545 S
O177 C170 1.289 . S
C178 O179 1.245 . S
C178 O180 1.274 . S
O179 Mg166 2.079 1_665 S
O179 C178 1.245 . S
O180 Mg165 2.038 1_565 S
O180 C178 1.274 . S
O181 Mg169 2.042 . S
O181 C184 1.241 . S
O182 Mg168 1.984 . S
O182 C184 1.280 . S
O183 Mg169 2.041 . S
O183 C187 1.277 . S
C184 O181 1.241 . S
C184 O182 1.280 . S
O185 Mg168 1.988 . S
O185 C187 1.245 . S
O186 C162 1.247 . S
O186 Mg168 2.061 1_655 S
C187 O183 1.277 . S
C187 O185 1.245 . S
O188 C162 1.289 . S
O188 Mg165 2.238 1_565 S
O188 Mg166 2.106 1_665 S
O189 Mg166 2.079 . S
O189 C171 1.245 . S
O190 Mg169 2.038 1_545 S
O190 C171 1.274 . S
C191 O203 1.241 . S
C191 O204 1.280 . S
C192 O205 1.277 . S
C192 O206 1.245 . S
C193 O217 1.247 . S
C193 O219 1.289 . S
Mg194 O195 1.926 . S
Mg194 O204 1.984 . S
Mg194 O206 1.988 1_554 S
Mg194 O207 2.061 . S
O195 Mg194 1.926 . S
O195 Mg196 1.986 1_554 S
O195 Mg197 1.917 . S
Mg196 O195 1.986 1_556 S
Mg196 O203 2.042 1_556 S
Mg196 O205 2.041 . S
Mg196 O211 2.038 1_546 S
Mg196 O219 2.238 1_545 S
Mg197 O195 1.917 . S
Mg197 O198 1.917 1_544 S
Mg197 O208 2.106 . S
Mg197 O210 2.079 1_545 S
Mg197 O219 2.106 1_544 S
Mg197 O220 2.079 1_554 S
O198 Mg197 1.917 1_566 S
O198 Mg199 1.926 . S
O198 Mg200 1.986 1_556 S
Mg199 O198 1.926 . S
Mg199 O213 1.984 . S
Mg199 O216 1.988 1_556 S
Mg199 O217 2.061 . S
Mg200 O198 1.986 1_554 S
Mg200 O208 2.238 1_565 S
Mg200 O212 2.042 1_554 S
Mg200 O214 2.041 . S
Mg200 O221 2.038 1_564 S
C201 O207 1.247 . S
C201 O208 1.289 . S
C202 O220 1.245 . S
C202 O221 1.274 . S
O203 C191 1.241 . S
O203 Mg196 2.042 1_554 S
O204 C191 1.280 . S
O204 Mg194 1.984 . S
O205 C192 1.277 . S
O205 Mg196 2.041 . S
O206 C192 1.245 . S
O206 Mg194 1.988 1_556 S
O207 Mg194 2.061 . S
O207 C201 1.247 . S
O208 Mg197 2.106 . S
O208 Mg200 2.238 1_545 S
O208 C201 1.289 . S
C209 O210 1.245 . S
C209 O211 1.274 . S
O210 Mg197 2.079 1_565 S
O210 C209 1.245 . S
O211 Mg196 2.038 1_564 S
O211 C209 1.274 . S
O212 Mg200 2.042 1_556 S
O212 C215 1.241 . S
O213 Mg199 1.984 . S
O213 C215 1.280 . S
O214 Mg200 2.041 . S
O214 C218 1.277 . S
C215 O212 1.241 . S
C215 O213 1.280 . S
O216 Mg199 1.988 1_554 S
O216 C218 1.245 . S
O217 C193 1.247 . S
O217 Mg199 2.061 . S
C218 O214 1.277 . S
C218 O216 1.245 . S
O219 C193 1.289 . S
O219 Mg196 2.238 1_565 S
O219 Mg197 2.106 1_566 S
O220 Mg197 2.079 1_556 S
O220 C202 1.245 . S
O221 Mg200 2.038 1_546 S
O221 C202 1.274 . S
C222 O234 1.241 . S
C222 O235 1.280 . S
C223 O236 1.277 . S
C223 O237 1.245 . S
C224 O248 1.247 . S
C224 O250 1.289 . S
Mg225 O226 1.926 . S
Mg225 O235 1.984 . S
Mg225 O237 1.988 1_554 S
Mg225 O238 2.061 1_655 S
O226 Mg225 1.926 . S
O226 Mg227 1.986 1_554 S
O226 Mg228 1.917 1_655 S
Mg227 O226 1.986 1_556 S
Mg227 O234 2.042 1_556 S
Mg227 O236 2.041 . S
Mg227 O242 2.038 1_556 S
Mg227 O250 2.238 . S
Mg228 O226 1.917 1_455 S
Mg228 O229 1.917 1_554 S
Mg228 O239 2.106 . S
Mg228 O241 2.079 1_455 S
Mg228 O250 2.106 1_454 S
Mg228 O251 2.079 1_554 S
O229 Mg228 1.917 1_556 S
O229 Mg230 1.926 . S
O229 Mg231 1.986 1_556 S
Mg230 O229 1.926 . S
Mg230 O244 1.984 . S
Mg230 O247 1.988 1_556 S
Mg230 O248 2.061 1_455 S
Mg231 O229 1.986 1_554 S
Mg231 O239 2.238 . S
Mg231 O243 2.042 1_554 S
Mg231 O245 2.041 . S
Mg231 O252 2.038 1_554 S
C232 O238 1.247 . S
C232 O239 1.289 . S
C233 O251 1.245 . S
C233 O252 1.274 . S
O234 C222 1.241 . S
O234 Mg227 2.042 1_554 S
O235 C222 1.280 . S
O235 Mg225 1.984 . S
O236 C223 1.277 . S
O236 Mg227 2.041 . S
O237 C223 1.245 . S
O237 Mg225 1.988 1_556 S
O238 Mg225 2.061 1_455 S
O238 C232 1.247 . S
O239 Mg228 2.106 . S
O239 Mg231 2.238 . S
O239 C232 1.289 . S
C240 O241 1.245 . S
C240 O242 1.274 . S
O241 Mg228 2.079 1_655 S
O241 C240 1.245 . S
O242 Mg227 2.038 1_554 S
O242 C240 1.274 . S
O243 Mg231 2.042 1_556 S
O243 C246 1.241 . S
O244 Mg230 1.984 . S
O244 C246 1.280 . S
O245 Mg231 2.041 . S
O245 C249 1.277 . S
C246 O243 1.241 . S
C246 O244 1.280 . S
O247 Mg230 1.988 1_554 S
O247 C249 1.245 . S
O248 C224 1.247 . S
O248 Mg230 2.061 1_655 S
C249 O245 1.277 . S
C249 O247 1.245 . S
O250 C224 1.289 . S
O250 Mg227 2.238 . S
O250 Mg228 2.106 1_656 S
O251 Mg228 2.079 1_556 S
O251 C233 1.245 . S
O252 Mg231 2.038 1_556 S
O252 C233 1.274 . S
C253 O265 1.241 . S
C253 O266 1.280 . S
C254 O267 1.277 . S
C254 O268 1.245 . S
C255 O279 1.247 . S
C255 O281 1.289 . S
Mg256 O257 1.926 . S
Mg256 O266 1.984 . S
Mg256 O268 1.988 1_554 S
Mg256 O269 2.061 . S
O257 Mg256 1.926 . S
O257 Mg258 1.986 1_554 S
O257 Mg259 1.917 . S
Mg258 O257 1.986 1_556 S
Mg258 O265 2.042 1_556 S
Mg258 O267 2.041 . S
Mg258 O273 2.038 1_556 S
Mg258 O281 2.238 . S
Mg259 O257 1.917 . S
Mg259 O260 1.917 1_554 S
Mg259 O270 2.106 . S
Mg259 O272 2.079 . S
Mg259 O281 2.106 1_554 S
Mg259 O282 2.079 1_554 S
O260 Mg259 1.917 1_556 S
O260 Mg261 1.926 . S
O260 Mg262 1.986 1_556 S
Mg261 O260 1.926 . S
Mg261 O275 1.984 . S
Mg261 O278 1.988 1_556 S
Mg261 O279 2.061 . S
Mg262 O260 1.986 1_554 S
Mg262 O270 2.238 . S
Mg262 O274 2.042 1_554 S
Mg262 O276 2.041 . S
Mg262 O283 2.038 1_554 S
C263 O269 1.247 . S
C263 O270 1.289 . S
C264 O282 1.245 . S
C264 O283 1.274 . S
O265 C253 1.241 . S
O265 Mg258 2.042 1_554 S
O266 C253 1.280 . S
O266 Mg256 1.984 . S
O267 C254 1.277 . S
O267 Mg258 2.041 . S
O268 C254 1.245 . S
O268 Mg256 1.988 1_556 S
O269 Mg256 2.061 . S
O269 C263 1.247 . S
O270 Mg259 2.106 . S
O270 Mg262 2.238 . S
O270 C263 1.289 . S
C271 O272 1.245 . S
C271 O273 1.274 . S
O272 Mg259 2.079 . S
O272 C271 1.245 . S
O273 Mg258 2.038 1_554 S
O273 C271 1.274 . S
O274 Mg262 2.042 1_556 S
O274 C277 1.241 . S
O275 Mg261 1.984 . S
O275 C277 1.280 . S
O276 Mg262 2.041 . S
O276 C280 1.277 . S
C277 O274 1.241 . S
C277 O275 1.280 . S
O278 Mg261 1.988 1_554 S
O278 C280 1.245 . S
O279 C255 1.247 . S
O279 Mg261 2.061 . S
C280 O276 1.277 . S
C280 O278 1.245 . S
O281 C255 1.289 . S
O281 Mg258 2.238 . S
O281 Mg259 2.106 1_556 S
O282 Mg259 2.079 1_556 S
O282 C264 1.245 . S
O283 Mg262 2.038 1_556 S
O283 C264 1.274 . S
C284 O296 1.241 . S
C284 O297 1.280 . S
C285 O298 1.277 . S
C285 O299 1.245 . S
C286 O310 1.247 . S
C286 O312 1.289 . S
Mg287 O288 1.926 . S
Mg287 O297 1.984 . S
Mg287 O299 1.988 . S
Mg287 O300 2.061 1_655 S
O288 Mg287 1.926 . S
O288 Mg289 1.986 . S
O288 Mg290 1.917 1_655 S
Mg289 O288 1.986 . S
Mg289 O296 2.042 . S
Mg289 O298 2.041 . S
Mg289 O304 2.038 . S
Mg289 O312 2.238 . S
Mg290 O288 1.917 1_455 S
Mg290 O291 1.917 . S
Mg290 O301 2.106 . S
Mg290 O303 2.079 1_455 S
Mg290 O312 2.106 1_455 S
Mg290 O313 2.079 . S
O291 Mg290 1.917 . S
O291 Mg292 1.926 . S
O291 Mg293 1.986 . S
Mg292 O291 1.926 . S
Mg292 O306 1.984 . S
Mg292 O309 1.988 . S
Mg292 O310 2.061 1_455 S
Mg293 O291 1.986 . S
Mg293 O301 2.238 . S
Mg293 O305 2.042 . S
Mg293 O307 2.041 . S
Mg293 O314 2.038 . S
C294 O300 1.247 . S
C294 O301 1.289 . S
C295 O313 1.245 . S
C295 O314 1.274 . S
O296 C284 1.241 . S
O296 Mg289 2.042 . S
O297 C284 1.280 . S
O297 Mg287 1.984 . S
O298 C285 1.277 . S
O298 Mg289 2.041 . S
O299 C285 1.245 . S
O299 Mg287 1.988 . S
O300 Mg287 2.061 1_455 S
O300 C294 1.247 . S
O301 Mg290 2.106 . S
O301 Mg293 2.238 . S
O301 C294 1.289 . S
C302 O303 1.245 . S
C302 O304 1.274 . S
O303 Mg290 2.079 1_655 S
O303 C302 1.245 . S
O304 Mg289 2.038 . S
O304 C302 1.274 . S
O305 Mg293 2.042 . S
O305 C308 1.241 . S
O306 Mg292 1.984 . S
O306 C308 1.280 . S
O307 Mg293 2.041 . S
O307 C311 1.277 . S
C308 O305 1.241 . S
C308 O306 1.280 . S
O309 Mg292 1.988 . S
O309 C311 1.245 . S
O310 C286 1.247 . S
O310 Mg292 2.061 1_655 S
C311 O307 1.277 . S
C311 O309 1.245 . S
O312 C286 1.289 . S
O312 Mg289 2.238 . S
O312 Mg290 2.106 1_655 S
O313 Mg290 2.079 . S
O313 C295 1.245 . S
O314 Mg293 2.038 . S
O314 C295 1.274 . S
C315 O327 1.241 . S
C315 O328 1.280 . S
C316 O329 1.277 . S
C316 O330 1.245 . S
C317 O341 1.247 . S
C317 O343 1.289 . S
Mg318 O319 1.926 . S
Mg318 O328 1.984 . S
Mg318 O330 1.988 . S
Mg318 O331 2.061 . S
O319 Mg318 1.926 . S
O319 Mg320 1.986 . S
O319 Mg321 1.917 . S
Mg320 O319 1.986 . S
Mg320 O327 2.042 . S
Mg320 O329 2.041 . S
Mg320 O335 2.038 1_545 S
Mg320 O343 2.238 1_545 S
Mg321 O319 1.917 . S
Mg321 O322 1.917 1_545 S
Mg321 O332 2.106 . S
Mg321 O334 2.079 1_545 S
Mg321 O343 2.106 1_545 S
Mg321 O344 2.079 . S
O322 Mg321 1.917 1_565 S
O322 Mg323 1.926 . S
O322 Mg324 1.986 . S
Mg323 O322 1.926 . S
Mg323 O337 1.984 . S
Mg323 O340 1.988 . S
Mg323 O341 2.061 . S
Mg324 O322 1.986 . S
Mg324 O332 2.238 1_565 S
Mg324 O336 2.042 . S
Mg324 O338 2.041 . S
Mg324 O345 2.038 1_565 S
C325 O331 1.247 . S
C325 O332 1.289 . S
C326 O344 1.245 . S
C326 O345 1.274 . S
O327 C315 1.241 . S
O327 Mg320 2.042 . S
O328 C315 1.280 . S
O328 Mg318 1.984 . S
O329 C316 1.277 . S
O329 Mg320 2.041 . S
O330 C316 1.245 . S
O330 Mg318 1.988 . S
O331 Mg318 2.061 . S
O331 C325 1.247 . S
O332 Mg321 2.106 . S
O332 Mg324 2.238 1_545 S
O332 C325 1.289 . S
C333 O334 1.245 . S
C333 O335 1.274 . S
O334 Mg321 2.079 1_565 S
O334 C333 1.245 . S
O335 Mg320 2.038 1_565 S
O335 C333 1.274 . S
O336 Mg324 2.042 . S
O336 C339 1.241 . S
O337 Mg323 1.984 . S
O337 C339 1.280 . S
O338 Mg324 2.041 . S
O338 C342 1.277 . S
C339 O336 1.241 . S
C339 O337 1.280 . S
O340 Mg323 1.988 . S
O340 C342 1.245 . S
O341 C317 1.247 . S
O341 Mg323 2.061 . S
C342 O338 1.277 . S
C342 O340 1.245 . S
O343 C317 1.289 . S
O343 Mg320 2.238 1_565 S
O343 Mg321 2.106 1_565 S
O344 Mg321 2.079 . S
O344 C326 1.245 . S
O345 Mg324 2.038 1_545 S
O345 C326 1.274 . S
H346 C354 0.929 . S
H347 C356 0.930 . S
H348 C358 0.930 . S
H349 C361 0.929 . S
H350 C364 0.930 . S
H351 C366 0.960 . S
H352 C366 0.960 . S
H353 C366 0.960 . S
C354 H346 0.929 . S
C354 C355 1.377 . S
C354 C356 1.384 . S
C355 C354 1.377 . S
C355 C361 1.390 . S
C356 H347 0.930 . S
C356 C354 1.384 . S
C356 C357 1.372 . S
C357 C356 1.372 . S
C357 C358 1.400 . S
C357 C362 1.490 . S
C358 H348 0.930 . S
C358 C357 1.400 . S
C358 C361 1.386 . S
H359 C375 0.930 . S
H360 C376 0.931 . S
C361 H349 0.929 . S
C361 C355 1.390 . S
C361 C358 1.386 . S
C362 C357 1.490 . S
C362 C364 1.395 . S
C362 C365 1.403 . S
H363 C369 0.930 . S
C364 H350 0.930 . S
C364 C362 1.395 . S
C364 C367 1.403 . S
C365 C362 1.403 . S
C365 C366 1.524 . S
C365 C369 1.400 . S
C366 H351 0.960 . S
C366 H352 0.960 . S
C366 H353 0.960 . S
C366 C365 1.524 . S
C367 C364 1.403 . S
C367 C368 1.392 . S
C367 C371 1.495 . S
C368 C367 1.392 . S
C368 C369 1.385 . S
C368 C370 1.478 . S
C369 H363 0.930 . S
C369 C365 1.400 . S
C369 C368 1.385 . S
C370 C368 1.478 . S
C370 C372 1.381 . S
C370 C376 1.383 . S
C371 C367 1.495 . S
C371 H377 0.959 . S
C371 H378 0.961 . S
C371 H379 0.960 . S
C372 C370 1.381 . S
C372 C373 1.394 . S
C372 H380 0.930 . S
C373 C372 1.394 . S
C373 C374 1.383 . S
C373 H381 0.929 . S
C374 C373 1.383 . S
C374 C375 1.377 . S
C375 H359 0.930 . S
C375 C374 1.377 . S
C375 C376 1.379 . S
C376 H360 0.931 . S
C376 C370 1.383 . S
C376 C375 1.379 . S
H377 C371 0.959 . S
H378 C371 0.961 . S
H379 C371 0.960 . S
H380 C372 0.930 . S
H381 C373 0.929 . S
H382 C390 0.929 . S
H383 C392 0.930 . S
H384 C394 0.930 . S
H385 C397 0.929 . S
H386 C400 0.930 . S
H387 C402 0.960 . S
H388 C402 0.960 . S
H389 C402 0.960 . S
C390 H382 0.929 . S
C390 C391 1.377 . S
C390 C392 1.384 . S
C391 C390 1.377 . S
C391 C397 1.390 . S
C392 H383 0.930 . S
C392 C390 1.384 . S
C392 C393 1.372 . S
C393 C392 1.372 . S
C393 C394 1.400 . S
C393 C398 1.490 . S
C394 H384 0.930 . S
C394 C393 1.400 . S
C394 C397 1.386 . S
H395 C411 0.930 . S
H396 C412 0.931 . S
C397 H385 0.929 . S
C397 C391 1.390 . S
C397 C394 1.386 . S
C398 C393 1.490 . S
C398 C400 1.395 . S
C398 C401 1.403 . S
H399 C405 0.930 . S
C400 H386 0.930 . S
C400 C398 1.395 . S
C400 C403 1.403 . S
C401 C398 1.403 . S
C401 C402 1.524 . S
C401 C405 1.400 . S
C402 H387 0.960 . S
C402 H388 0.960 . S
C402 H389 0.960 . S
C402 C401 1.524 . S
C403 C400 1.403 . S
C403 C404 1.392 . S
C403 C407 1.495 . S
C404 C403 1.392 . S
C404 C405 1.385 . S
C404 C406 1.478 . S
C405 H399 0.930 . S
C405 C401 1.400 . S
C405 C404 1.385 . S
C406 C404 1.478 . S
C406 C408 1.381 . S
C406 C412 1.383 . S
C407 C403 1.495 . S
C407 H413 0.959 . S
C407 H414 0.961 . S
C407 H415 0.960 . S
C408 C406 1.381 . S
C408 C409 1.394 . S
C408 H416 0.930 . S
C409 C408 1.394 . S
C409 C410 1.383 . S
C409 H417 0.929 . S
C410 C409 1.383 . S
C410 C411 1.377 . S
C411 H395 0.930 . S
C411 C410 1.377 . S
C411 C412 1.379 . S
C412 H396 0.931 . S
C412 C406 1.383 . S
C412 C411 1.379 . S
H413 C407 0.959 . S
H414 C407 0.961 . S
H415 C407 0.960 . S
H416 C408 0.930 . S
H417 C409 0.929 . S
H418 C426 0.929 . S
H419 C428 0.930 . S
H420 C430 0.930 . S
H421 C433 0.929 . S
H422 C436 0.930 . S
H423 C438 0.960 . S
H424 C438 0.960 . S
H425 C438 0.960 . S
C426 H418 0.929 . S
C426 C427 1.377 . S
C426 C428 1.384 . S
C427 C426 1.377 . S
C427 C433 1.390 . S
C428 H419 0.930 . S
C428 C426 1.384 . S
C428 C429 1.372 . S
C429 C428 1.372 . S
C429 C430 1.400 . S
C429 C434 1.490 . S
C430 H420 0.930 . S
C430 C429 1.400 . S
C430 C433 1.386 . S
H431 C447 0.930 . S
H432 C448 0.931 . S
C433 H421 0.929 . S
C433 C427 1.390 . S
C433 C430 1.386 . S
C434 C429 1.490 . S
C434 C436 1.395 . S
C434 C437 1.403 . S
H435 C441 0.930 . S
C436 H422 0.930 . S
C436 C434 1.395 . S
C436 C439 1.403 . S
C437 C434 1.403 . S
C437 C438 1.524 . S
C437 C441 1.400 . S
C438 H423 0.960 . S
C438 H424 0.960 . S
C438 H425 0.960 . S
C438 C437 1.524 . S
C439 C436 1.403 . S
C439 C440 1.392 . S
C439 C443 1.495 . S
C440 C439 1.392 . S
C440 C441 1.385 . S
C440 C442 1.478 . S
C441 H435 0.930 . S
C441 C437 1.400 . S
C441 C440 1.385 . S
C442 C440 1.478 . S
C442 C444 1.381 . S
C442 C448 1.383 . S
C443 C439 1.495 . S
C443 H449 0.959 . S
C443 H450 0.961 . S
C443 H451 0.960 . S
C444 C442 1.381 . S
C444 C445 1.394 . S
C444 H452 0.930 . S
C445 C444 1.394 . S
C445 C446 1.383 . S
C445 H453 0.929 . S
C446 C445 1.383 . S
C446 C447 1.377 . S
C447 H431 0.930 . S
C447 C446 1.377 . S
C447 C448 1.379 . S
C448 H432 0.931 . S
C448 C442 1.383 . S
C448 C447 1.379 . S
H449 C443 0.959 . S
H450 C443 0.961 . S
H451 C443 0.960 . S
H452 C444 0.930 . S
H453 C445 0.929 . S
H454 C462 0.929 . S
H455 C464 0.930 . S
H456 C466 0.930 . S
H457 C469 0.929 . S
H458 C472 0.930 . S
H459 C474 0.960 . S
H460 C474 0.960 . S
H461 C474 0.960 . S
C462 H454 0.929 . S
C462 C463 1.377 . S
C462 C464 1.384 . S
C463 C462 1.377 . S
C463 C469 1.390 . S
C464 H455 0.930 . S
C464 C462 1.384 . S
C464 C465 1.372 . S
C465 C464 1.372 . S
C465 C466 1.400 . S
C465 C470 1.490 . S
C466 H456 0.930 . S
C466 C465 1.400 . S
C466 C469 1.386 . S
H467 C483 0.930 . S
H468 C484 0.931 . S
C469 H457 0.929 . S
C469 C463 1.390 . S
C469 C466 1.386 . S
C470 C465 1.490 . S
C470 C472 1.395 . S
C470 C473 1.403 . S
H471 C477 0.930 . S
C472 H458 0.930 . S
C472 C470 1.395 . S
C472 C475 1.403 . S
C473 C470 1.403 . S
C473 C474 1.524 . S
C473 C477 1.400 . S
C474 H459 0.960 . S
C474 H460 0.960 . S
C474 H461 0.960 . S
C474 C473 1.524 . S
C475 C472 1.403 . S
C475 C476 1.392 . S
C475 C479 1.495 . S
C476 C475 1.392 . S
C476 C477 1.385 . S
C476 C478 1.478 . S
C477 H471 0.930 . S
C477 C473 1.400 . S
C477 C476 1.385 . S
C478 C476 1.478 . S
C478 C480 1.381 . S
C478 C484 1.383 . S
C479 C475 1.495 . S
C479 H485 0.959 . S
C479 H486 0.961 . S
C479 H487 0.960 . S
C480 C478 1.381 . S
C480 C481 1.394 . S
C480 H488 0.930 . S
C481 C480 1.394 . S
C481 C482 1.383 . S
C481 H489 0.929 . S
C482 C481 1.383 . S
C482 C483 1.377 . S
C483 H467 0.930 . S
C483 C482 1.377 . S
C483 C484 1.379 . S
C484 H468 0.931 . S
C484 C478 1.383 . S
C484 C483 1.379 . S
H485 C479 0.959 . S
H486 C479 0.961 . S
H487 C479 0.960 . S
H488 C480 0.930 . S
H489 C481 0.929 . S
H490 C498 0.929 . S
H491 C500 0.930 . S
H492 C502 0.930 . S
H493 C505 0.929 . S
H494 C508 0.930 . S
H495 C510 0.960 . S
H496 C510 0.960 . S
H497 C510 0.960 . S
C498 H490 0.929 . S
C498 C499 1.377 . S
C498 C500 1.384 . S
C499 C498 1.377 . S
C499 C505 1.390 . S
C500 H491 0.930 . S
C500 C498 1.384 . S
C500 C501 1.372 . S
C501 C500 1.372 . S
C501 C502 1.400 . S
C501 C506 1.490 . S
C502 H492 0.930 . S
C502 C501 1.400 . S
C502 C505 1.386 . S
H503 C519 0.930 . S
H504 C520 0.931 . S
C505 H493 0.929 . S
C505 C499 1.390 . S
C505 C502 1.386 . S
C506 C501 1.490 . S
C506 C508 1.395 . S
C506 C509 1.403 . S
H507 C513 0.930 . S
C508 H494 0.930 . S
C508 C506 1.395 . S
C508 C511 1.403 . S
C509 C506 1.403 . S
C509 C510 1.524 . S
C509 C513 1.400 . S
C510 H495 0.960 . S
C510 H496 0.960 . S
C510 H497 0.960 . S
C510 C509 1.524 . S
C511 C508 1.403 . S
C511 C512 1.392 . S
C511 C515 1.495 . S
C512 C511 1.392 . S
C512 C513 1.385 . S
C512 C514 1.478 . S
C513 H507 0.930 . S
C513 C509 1.400 . S
C513 C512 1.385 . S
C514 C512 1.478 . S
C514 C516 1.381 . S
C514 C520 1.383 . S
C515 C511 1.495 . S
C515 H521 0.959 . S
C515 H522 0.961 . S
C515 H523 0.960 . S
C516 C514 1.381 . S
C516 C517 1.394 . S
C516 H524 0.930 . S
C517 C516 1.394 . S
C517 C518 1.383 . S
C517 H525 0.929 . S
C518 C517 1.383 . S
C518 C519 1.377 . S
C519 H503 0.930 . S
C519 C518 1.377 . S
C519 C520 1.379 . S
C520 H504 0.931 . S
C520 C514 1.383 . S
C520 C519 1.379 . S
H521 C515 0.959 . S
H522 C515 0.961 . S
H523 C515 0.960 . S
H524 C516 0.930 . S
H525 C517 0.929 . S
H526 C534 0.929 . S
H527 C536 0.930 . S
H528 C538 0.930 . S
H529 C541 0.929 . S
H530 C544 0.930 . S
H531 C546 0.960 . S
H532 C546 0.960 . S
H533 C546 0.960 . S
C534 H526 0.929 . S
C534 C535 1.377 . S
C534 C536 1.384 . S
C535 C534 1.377 . S
C535 C541 1.390 . S
C536 H527 0.930 . S
C536 C534 1.384 . S
C536 C537 1.372 . S
C537 C536 1.372 . S
C537 C538 1.400 . S
C537 C542 1.490 . S
C538 H528 0.930 . S
C538 C537 1.400 . S
C538 C541 1.386 . S
H539 C555 0.930 . S
H540 C556 0.931 . S
C541 H529 0.929 . S
C541 C535 1.390 . S
C541 C538 1.386 . S
C542 C537 1.490 . S
C542 C544 1.395 . S
C542 C545 1.403 . S
H543 C549 0.930 . S
C544 H530 0.930 . S
C544 C542 1.395 . S
C544 C547 1.403 . S
C545 C542 1.403 . S
C545 C546 1.524 . S
C545 C549 1.400 . S
C546 H531 0.960 . S
C546 H532 0.960 . S
C546 H533 0.960 . S
C546 C545 1.524 . S
C547 C544 1.403 . S
C547 C548 1.392 . S
C547 C551 1.495 . S
C548 C547 1.392 . S
C548 C549 1.385 . S
C548 C550 1.478 . S
C549 H543 0.930 . S
C549 C545 1.400 . S
C549 C548 1.385 . S
C550 C548 1.478 . S
C550 C552 1.381 . S
C550 C556 1.383 . S
C551 C547 1.495 . S
C551 H557 0.959 . S
C551 H558 0.961 . S
C551 H559 0.960 . S
C552 C550 1.381 . S
C552 C553 1.394 . S
C552 H560 0.930 . S
C553 C552 1.394 . S
C553 C554 1.383 . S
C553 H561 0.929 . S
C554 C553 1.383 . S
C554 C555 1.377 . S
C555 H539 0.930 . S
C555 C554 1.377 . S
C555 C556 1.379 . S
C556 H540 0.931 . S
C556 C550 1.383 . S
C556 C555 1.379 . S
H557 C551 0.959 . S
H558 C551 0.961 . S
H559 C551 0.960 . S
H560 C552 0.930 . S
H561 C553 0.929 . S
H562 C570 0.929 . S
H563 C572 0.930 . S
H564 C574 0.930 . S
H565 C577 0.929 . S
H566 C580 0.930 . S
H567 C582 0.960 . S
H568 C582 0.960 . S
H569 C582 0.960 . S
C570 H562 0.929 . S
C570 C571 1.377 . S
C570 C572 1.384 . S
C571 C570 1.377 . S
C571 C577 1.390 . S
C572 H563 0.930 . S
C572 C570 1.384 . S
C572 C573 1.372 . S
C573 C572 1.372 . S
C573 C574 1.400 . S
C573 C578 1.490 . S
C574 H564 0.930 . S
C574 C573 1.400 . S
C574 C577 1.386 . S
H575 C591 0.930 . S
H576 C592 0.931 . S
C577 H565 0.929 . S
C577 C571 1.390 . S
C577 C574 1.386 . S
C578 C573 1.490 . S
C578 C580 1.395 . S
C578 C581 1.403 . S
H579 C585 0.930 . S
C580 H566 0.930 . S
C580 C578 1.395 . S
C580 C583 1.403 . S
C581 C578 1.403 . S
C581 C582 1.524 . S
C581 C585 1.400 . S
C582 H567 0.960 . S
C582 H568 0.960 . S
C582 H569 0.960 . S
C582 C581 1.524 . S
C583 C580 1.403 . S
C583 C584 1.392 . S
C583 C587 1.495 . S
C584 C583 1.392 . S
C584 C585 1.385 . S
C584 C586 1.478 . S
C585 H579 0.930 . S
C585 C581 1.400 . S
C585 C584 1.385 . S
C586 C584 1.478 . S
C586 C588 1.381 . S
C586 C592 1.383 . S
C587 C583 1.495 . S
C587 H593 0.959 . S
C587 H594 0.961 . S
C587 H595 0.960 . S
C588 C586 1.381 . S
C588 C589 1.394 . S
C588 H596 0.930 . S
C589 C588 1.394 . S
C589 C590 1.383 . S
C589 H597 0.929 . S
C590 C589 1.383 . S
C590 C591 1.377 . S
C591 H575 0.930 . S
C591 C590 1.377 . S
C591 C592 1.379 . S
C592 H576 0.931 . S
C592 C586 1.383 . S
C592 C591 1.379 . S
H593 C587 0.959 . S
H594 C587 0.961 . S
H595 C587 0.960 . S
H596 C588 0.930 . S
H597 C589 0.929 . S
H598 C606 0.929 . S
H599 C608 0.930 . S
H600 C610 0.930 . S
H601 C613 0.929 . S
H602 C616 0.930 . S
H603 C618 0.960 . S
H604 C618 0.960 . S
H605 C618 0.960 . S
C606 H598 0.929 . S
C606 C607 1.377 . S
C606 C608 1.384 . S
C607 C606 1.377 . S
C607 C613 1.390 . S
C608 H599 0.930 . S
C608 C606 1.384 . S
C608 C609 1.372 . S
C609 C608 1.372 . S
C609 C610 1.400 . S
C609 C614 1.490 . S
C610 H600 0.930 . S
C610 C609 1.400 . S
C610 C613 1.386 . S
H611 C627 0.930 . S
H612 C628 0.931 . S
C613 H601 0.929 . S
C613 C607 1.390 . S
C613 C610 1.386 . S
C614 C609 1.490 . S
C614 C616 1.395 . S
C614 C617 1.403 . S
H615 C621 0.930 . S
C616 H602 0.930 . S
C616 C614 1.395 . S
C616 C619 1.403 . S
C617 C614 1.403 . S
C617 C618 1.524 . S
C617 C621 1.400 . S
C618 H603 0.960 . S
C618 H604 0.960 . S
C618 H605 0.960 . S
C618 C617 1.524 . S
C619 C616 1.403 . S
C619 C620 1.392 . S
C619 C623 1.495 . S
C620 C619 1.392 . S
C620 C621 1.385 . S
C620 C622 1.478 . S
C621 H615 0.930 . S
C621 C617 1.400 . S
C621 C620 1.385 . S
C622 C620 1.478 . S
C622 C624 1.381 . S
C622 C628 1.383 . S
C623 C619 1.495 . S
C623 H629 0.959 . S
C623 H630 0.961 . S
C623 H631 0.960 . S
C624 C622 1.381 . S
C624 C625 1.394 . S
C624 H632 0.930 . S
C625 C624 1.394 . S
C625 C626 1.383 . S
C625 H633 0.929 . S
C626 C625 1.383 . S
C626 C627 1.377 . S
C627 H611 0.930 . S
C627 C626 1.377 . S
C627 C628 1.379 . S
C628 H612 0.931 . S
C628 C622 1.383 . S
C628 C627 1.379 . S
H629 C623 0.959 . S
H630 C623 0.961 . S
H631 C623 0.960 . S
H632 C624 0.930 . S
H633 C625 0.929 . S
H634 C642 0.929 . S
H635 C644 0.930 . S
H636 C646 0.930 . S
H637 C649 0.929 . S
H638 C652 0.930 . S
H639 C654 0.960 . S
H640 C654 0.960 . S
H641 C654 0.960 . S
C642 H634 0.929 . S
C642 C643 1.377 . S
C642 C644 1.384 . S
C643 C642 1.377 . S
C643 C649 1.390 . S
C644 H635 0.930 . S
C644 C642 1.384 . S
C644 C645 1.372 . S
C645 C644 1.372 . S
C645 C646 1.400 . S
C645 C650 1.490 . S
C646 H636 0.930 . S
C646 C645 1.400 . S
C646 C649 1.386 . S
H647 C663 0.930 . S
H648 C664 0.931 . S
C649 H637 0.929 . S
C649 C643 1.390 . S
C649 C646 1.386 . S
C650 C645 1.490 . S
C650 C652 1.395 . S
C650 C653 1.403 . S
H651 C657 0.930 . S
C652 H638 0.930 . S
C652 C650 1.395 . S
C652 C655 1.403 . S
C653 C650 1.403 . S
C653 C654 1.524 . S
C653 C657 1.400 . S
C654 H639 0.960 . S
C654 H640 0.960 . S
C654 H641 0.960 . S
C654 C653 1.524 . S
C655 C652 1.403 . S
C655 C656 1.392 . S
C655 C659 1.495 . S
C656 C655 1.392 . S
C656 C657 1.385 . S
C656 C658 1.478 . S
C657 H651 0.930 . S
C657 C653 1.400 . S
C657 C656 1.385 . S
C658 C656 1.478 . S
C658 C660 1.381 . S
C658 C664 1.383 . S
C659 C655 1.495 . S
C659 H665 0.959 . S
C659 H666 0.961 . S
C659 H667 0.960 . S
C660 C658 1.381 . S
C660 C661 1.394 . S
C660 H668 0.930 . S
C661 C660 1.394 . S
C661 C662 1.383 . S
C661 H669 0.929 . S
C662 C661 1.383 . S
C662 C663 1.377 . S
C663 H647 0.930 . S
C663 C662 1.377 . S
C663 C664 1.379 . S
C664 H648 0.931 . S
C664 C658 1.383 . S
C664 C663 1.379 . S
H665 C659 0.959 . S
H666 C659 0.961 . S
H667 C659 0.960 . S
H668 C660 0.930 . S
H669 C661 0.929 . S
H670 C678 0.929 . S
H671 C680 0.930 . S
H672 C682 0.930 . S
H673 C685 0.929 . S
H674 C688 0.930 . S
H675 C690 0.960 . S
H676 C690 0.960 . S
H677 C690 0.960 . S
C678 H670 0.929 . S
C678 C679 1.377 . S
C678 C680 1.384 . S
C679 C678 1.377 . S
C679 C685 1.390 . S
C680 H671 0.930 . S
C680 C678 1.384 . S
C680 C681 1.372 . S
C681 C680 1.372 . S
C681 C682 1.400 . S
C681 C686 1.490 . S
C682 H672 0.930 . S
C682 C681 1.400 . S
C682 C685 1.386 . S
H683 C699 0.930 . S
H684 C700 0.931 . S
C685 H673 0.929 . S
C685 C679 1.390 . S
C685 C682 1.386 . S
C686 C681 1.490 . S
C686 C688 1.395 . S
C686 C689 1.403 . S
H687 C693 0.930 . S
C688 H674 0.930 . S
C688 C686 1.395 . S
C688 C691 1.403 . S
C689 C686 1.403 . S
C689 C690 1.524 . S
C689 C693 1.400 . S
C690 H675 0.960 . S
C690 H676 0.960 . S
C690 H677 0.960 . S
C690 C689 1.524 . S
C691 C688 1.403 . S
C691 C692 1.392 . S
C691 C695 1.495 . S
C692 C691 1.392 . S
C692 C693 1.385 . S
C692 C694 1.478 . S
C693 H687 0.930 . S
C693 C689 1.400 . S
C693 C692 1.385 . S
C694 C692 1.478 . S
C694 C696 1.381 . S
C694 C700 1.383 . S
C695 C691 1.495 . S
C695 H701 0.959 . S
C695 H702 0.961 . S
C695 H703 0.960 . S
C696 C694 1.381 . S
C696 C697 1.394 . S
C696 H704 0.930 . S
C697 C696 1.394 . S
C697 C698 1.383 . S
C697 H705 0.929 . S
C698 C697 1.383 . S
C698 C699 1.377 . S
C699 H683 0.930 . S
C699 C698 1.377 . S
C699 C700 1.379 . S
C700 H684 0.931 . S
C700 C694 1.383 . S
C700 C699 1.379 . S
H701 C695 0.959 . S
H702 C695 0.961 . S
H703 C695 0.960 . S
H704 C696 0.930 . S
H705 C697 0.929 . S
H706 C714 0.929 . S
H707 C716 0.930 . S
H708 C718 0.930 . S
H709 C721 0.929 . S
H710 C724 0.930 . S
H711 C726 0.960 . S
H712 C726 0.960 . S
H713 C726 0.960 . S
C714 H706 0.929 . S
C714 C715 1.377 . S
C714 C716 1.384 . S
C715 C714 1.377 . S
C715 C721 1.390 . S
C716 H707 0.930 . S
C716 C714 1.384 . S
C716 C717 1.372 . S
C717 C716 1.372 . S
C717 C718 1.400 . S
C717 C722 1.490 . S
C718 H708 0.930 . S
C718 C717 1.400 . S
C718 C721 1.386 . S
H719 C735 0.930 . S
H720 C736 0.931 . S
C721 H709 0.929 . S
C721 C715 1.390 . S
C721 C718 1.386 . S
C722 C717 1.490 . S
C722 C724 1.395 . S
C722 C725 1.403 . S
H723 C729 0.930 . S
C724 H710 0.930 . S
C724 C722 1.395 . S
C724 C727 1.403 . S
C725 C722 1.403 . S
C725 C726 1.524 . S
C725 C729 1.400 . S
C726 H711 0.960 . S
C726 H712 0.960 . S
C726 H713 0.960 . S
C726 C725 1.524 . S
C727 C724 1.403 . S
C727 C728 1.392 . S
C727 C731 1.495 . S
C728 C727 1.392 . S
C728 C729 1.385 . S
C728 C730 1.478 . S
C729 H723 0.930 . S
C729 C725 1.400 . S
C729 C728 1.385 . S
C730 C728 1.478 . S
C730 C732 1.381 . S
C730 C736 1.383 . S
C731 C727 1.495 . S
C731 H737 0.959 . S
C731 H738 0.961 . S
C731 H739 0.960 . S
C732 C730 1.381 . S
C732 C733 1.394 . S
C732 H740 0.930 . S
C733 C732 1.394 . S
C733 C734 1.383 . S
C733 H741 0.929 . S
C734 C733 1.383 . S
C734 C735 1.377 . S
C735 H719 0.930 . S
C735 C734 1.377 . S
C735 C736 1.379 . S
C736 H720 0.931 . S
C736 C730 1.383 . S
C736 C735 1.379 . S
H737 C731 0.959 . S
H738 C731 0.961 . S
H739 C731 0.960 . S
H740 C732 0.930 . S
H741 C733 0.929 . S
H742 C750 0.929 . S
H743 C752 0.930 . S
H744 C754 0.930 . S
H745 C757 0.929 . S
H746 C760 0.930 . S
H747 C762 0.960 . S
H748 C762 0.960 . S
H749 C762 0.960 . S
C750 H742 0.929 . S
C750 C751 1.377 . S
C750 C752 1.384 . S
C751 C750 1.377 . S
C751 C757 1.390 . S
C752 H743 0.930 . S
C752 C750 1.384 . S
C752 C753 1.372 . S
C753 C752 1.372 . S
C753 C754 1.400 . S
C753 C758 1.490 . S
C754 H744 0.930 . S
C754 C753 1.400 . S
C754 C757 1.386 . S
H755 C771 0.930 . S
H756 C772 0.931 . S
C757 H745 0.929 . S
C757 C751 1.390 . S
C757 C754 1.386 . S
C758 C753 1.490 . S
C758 C760 1.395 . S
C758 C761 1.403 . S
H759 C765 0.930 . S
C760 H746 0.930 . S
C760 C758 1.395 . S
C760 C763 1.403 . S
C761 C758 1.403 . S
C761 C762 1.524 . S
C761 C765 1.400 . S
C762 H747 0.960 . S
C762 H748 0.960 . S
C762 H749 0.960 . S
C762 C761 1.524 . S
C763 C760 1.403 . S
C763 C764 1.392 . S
C763 C767 1.495 . S
C764 C763 1.392 . S
C764 C765 1.385 . S
C764 C766 1.478 . S
C765 H759 0.930 . S
C765 C761 1.400 . S
C765 C764 1.385 . S
C766 C764 1.478 . S
C766 C768 1.381 . S
C766 C772 1.383 . S
C767 C763 1.495 . S
C767 H773 0.959 . S
C767 H774 0.961 . S
C767 H775 0.960 . S
C768 C766 1.381 . S
C768 C769 1.394 . S
C768 H776 0.930 . S
C769 C768 1.394 . S
C769 C770 1.383 . S
C769 H777 0.929 . S
C770 C769 1.383 . S
C770 C771 1.377 . S
C771 H755 0.930 . S
C771 C770 1.377 . S
C771 C772 1.379 . S
C772 H756 0.931 . S
C772 C766 1.383 . S
C772 C771 1.379 . S
H773 C767 0.959 . S
H774 C767 0.961 . S
H775 C767 0.960 . S
H776 C768 0.930 . S
H777 C769 0.929 . S
H778 C786 0.929 . S
H779 C788 0.930 . S
H780 C790 0.930 . S
H781 C793 0.929 . S
H782 C796 0.930 . S
H783 C798 0.960 . S
H784 C798 0.960 . S
H785 C798 0.960 . S
C786 H778 0.929 . S
C786 C787 1.377 . S
C786 C788 1.384 . S
C787 C786 1.377 . S
C787 C793 1.390 . S
C788 H779 0.930 . S
C788 C786 1.384 . S
C788 C789 1.372 . S
C789 C788 1.372 . S
C789 C790 1.400 . S
C789 C794 1.490 . S
C790 H780 0.930 . S
C790 C789 1.400 . S
C790 C793 1.386 . S
H791 C807 0.930 . S
H792 C808 0.931 . S
C793 H781 0.929 . S
C793 C787 1.390 . S
C793 C790 1.386 . S
C794 C789 1.490 . S
C794 C796 1.395 . S
C794 C797 1.403 . S
H795 C801 0.930 . S
C796 H782 0.930 . S
C796 C794 1.395 . S
C796 C799 1.403 . S
C797 C794 1.403 . S
C797 C798 1.524 . S
C797 C801 1.400 . S
C798 H783 0.960 . S
C798 H784 0.960 . S
C798 H785 0.960 . S
C798 C797 1.524 . S
C799 C796 1.403 . S
C799 C800 1.392 . S
C799 C803 1.495 . S
C800 C799 1.392 . S
C800 C801 1.385 . S
C800 C802 1.478 . S
C801 H795 0.930 . S
C801 C797 1.400 . S
C801 C800 1.385 . S
C802 C800 1.478 . S
C802 C804 1.381 . S
C802 C808 1.383 . S
C803 C799 1.495 . S
C803 H809 0.959 . S
C803 H810 0.961 . S
C803 H811 0.960 . S
C804 C802 1.381 . S
C804 C805 1.394 . S
C804 H812 0.930 . S
C805 C804 1.394 . S
C805 C806 1.383 . S
C805 H813 0.929 . S
C806 C805 1.383 . S
C806 C807 1.377 . S
C807 H791 0.930 . S
C807 C806 1.377 . S
C807 C808 1.379 . S
C808 H792 0.931 . S
C808 C802 1.383 . S
C808 C807 1.379 . S
H809 C803 0.959 . S
H810 C803 0.961 . S
H811 C803 0.960 . S
H812 C804 0.930 . S
H813 C805 0.929 . S
H814 C822 0.929 . S
H815 C824 0.930 . S
H816 C826 0.930 . S
H817 C829 0.929 . S
H818 C832 0.930 . S
H819 C834 0.960 . S
H820 C834 0.960 . S
H821 C834 0.960 . S
C822 H814 0.929 . S
C822 C823 1.377 . S
C822 C824 1.384 . S
C823 C822 1.377 . S
C823 C829 1.390 . S
C824 H815 0.930 . S
C824 C822 1.384 . S
C824 C825 1.372 . S
C825 C824 1.372 . S
C825 C826 1.400 . S
C825 C830 1.490 . S
C826 H816 0.930 . S
C826 C825 1.400 . S
C826 C829 1.386 . S
H827 C843 0.930 . S
H828 C844 0.931 . S
C829 H817 0.929 . S
C829 C823 1.390 . S
C829 C826 1.386 . S
C830 C825 1.490 . S
C830 C832 1.395 . S
C830 C833 1.403 . S
H831 C837 0.930 . S
C832 H818 0.930 . S
C832 C830 1.395 . S
C832 C835 1.403 . S
C833 C830 1.403 . S
C833 C834 1.524 . S
C833 C837 1.400 . S
C834 H819 0.960 . S
C834 H820 0.960 . S
C834 H821 0.960 . S
C834 C833 1.524 . S
C835 C832 1.403 . S
C835 C836 1.392 . S
C835 C839 1.495 . S
C836 C835 1.392 . S
C836 C837 1.385 . S
C836 C838 1.478 . S
C837 H831 0.930 . S
C837 C833 1.400 . S
C837 C836 1.385 . S
C838 C836 1.478 . S
C838 C840 1.381 . S
C838 C844 1.383 . S
C839 C835 1.495 . S
C839 H845 0.959 . S
C839 H846 0.961 . S
C839 H847 0.960 . S
C840 C838 1.381 . S
C840 C841 1.394 . S
C840 H848 0.930 . S
C841 C840 1.394 . S
C841 C842 1.383 . S
C841 H849 0.929 . S
C842 C841 1.383 . S
C842 C843 1.377 . S
C843 H827 0.930 . S
C843 C842 1.377 . S
C843 C844 1.379 . S
C844 H828 0.931 . S
C844 C838 1.383 . S
C844 C843 1.379 . S
H845 C839 0.959 . S
H846 C839 0.961 . S
H847 C839 0.960 . S
H848 C840 0.930 . S
H849 C841 0.929 . S
H850 C858 0.929 . S
H851 C860 0.930 . S
H852 C862 0.930 . S
H853 C865 0.929 . S
H854 C868 0.930 . S
H855 C870 0.960 . S
H856 C870 0.960 . S
H857 C870 0.960 . S
C858 H850 0.929 . S
C858 C859 1.377 . S
C858 C860 1.384 . S
C859 C858 1.377 . S
C859 C865 1.390 . S
C860 H851 0.930 . S
C860 C858 1.384 . S
C860 C861 1.372 . S
C861 C860 1.372 . S
C861 C862 1.400 . S
C861 C866 1.490 . S
C862 H852 0.930 . S
C862 C861 1.400 . S
C862 C865 1.386 . S
H863 C879 0.930 . S
H864 C880 0.931 . S
C865 H853 0.929 . S
C865 C859 1.390 . S
C865 C862 1.386 . S
C866 C861 1.490 . S
C866 C868 1.395 . S
C866 C869 1.403 . S
H867 C873 0.930 . S
C868 H854 0.930 . S
C868 C866 1.395 . S
C868 C871 1.403 . S
C869 C866 1.403 . S
C869 C870 1.524 . S
C869 C873 1.400 . S
C870 H855 0.960 . S
C870 H856 0.960 . S
C870 H857 0.960 . S
C870 C869 1.524 . S
C871 C868 1.403 . S
C871 C872 1.392 . S
C871 C875 1.495 . S
C872 C871 1.392 . S
C872 C873 1.385 . S
C872 C874 1.478 . S
C873 H867 0.930 . S
C873 C869 1.400 . S
C873 C872 1.385 . S
C874 C872 1.478 . S
C874 C876 1.381 . S
C874 C880 1.383 . S
C875 C871 1.495 . S
C875 H881 0.959 . S
C875 H882 0.961 . S
C875 H883 0.960 . S
C876 C874 1.381 . S
C876 C877 1.394 . S
C876 H884 0.930 . S
C877 C876 1.394 . S
C877 C878 1.383 . S
C877 H885 0.929 . S
C878 C877 1.383 . S
C878 C879 1.377 . S
C879 H863 0.930 . S
C879 C878 1.377 . S
C879 C880 1.379 . S
C880 H864 0.931 . S
C880 C874 1.383 . S
C880 C879 1.379 . S
H881 C875 0.959 . S
H882 C875 0.961 . S
H883 C875 0.960 . S
H884 C876 0.930 . S
H885 C877 0.929 . S
H886 C894 0.929 . S
H887 C896 0.930 . S
H888 C898 0.930 . S
H889 C901 0.929 . S
H890 C904 0.930 . S
H891 C906 0.960 . S
H892 C906 0.960 . S
H893 C906 0.960 . S
C894 H886 0.929 . S
C894 C895 1.377 . S
C894 C896 1.384 . S
C895 C894 1.377 . S
C895 C901 1.390 . S
C896 H887 0.930 . S
C896 C894 1.384 . S
C896 C897 1.372 . S
C897 C896 1.372 . S
C897 C898 1.400 . S
C897 C902 1.490 . S
C898 H888 0.930 . S
C898 C897 1.400 . S
C898 C901 1.386 . S
H899 C915 0.930 . S
H900 C916 0.931 . S
C901 H889 0.929 . S
C901 C895 1.390 . S
C901 C898 1.386 . S
C902 C897 1.490 . S
C902 C904 1.395 . S
C902 C905 1.403 . S
H903 C909 0.930 . S
C904 H890 0.930 . S
C904 C902 1.395 . S
C904 C907 1.403 . S
C905 C902 1.403 . S
C905 C906 1.524 . S
C905 C909 1.400 . S
C906 H891 0.960 . S
C906 H892 0.960 . S
C906 H893 0.960 . S
C906 C905 1.524 . S
C907 C904 1.403 . S
C907 C908 1.392 . S
C907 C911 1.495 . S
C908 C907 1.392 . S
C908 C909 1.385 . S
C908 C910 1.478 . S
C909 H903 0.930 . S
C909 C905 1.400 . S
C909 C908 1.385 . S
C910 C908 1.478 . S
C910 C912 1.381 . S
C910 C916 1.383 . S
C911 C907 1.495 . S
C911 H917 0.959 . S
C911 H918 0.961 . S
C911 H919 0.960 . S
C912 C910 1.381 . S
C912 C913 1.394 . S
C912 H920 0.930 . S
C913 C912 1.394 . S
C913 C914 1.383 . S
C913 H921 0.929 . S
C914 C913 1.383 . S
C914 C915 1.377 . S
C915 H899 0.930 . S
C915 C914 1.377 . S
C915 C916 1.379 . S
C916 H900 0.931 . S
C916 C910 1.383 . S
C916 C915 1.379 . S
H917 C911 0.959 . S
H918 C911 0.961 . S
H919 C911 0.960 . S
H920 C912 0.930 . S
H921 C913 0.929 . S
H922 C930 0.929 . S
H923 C932 0.930 . S
H924 C934 0.930 . S
H925 C937 0.929 . S
H926 C940 0.930 . S
H927 C942 0.960 . S
H928 C942 0.960 . S
H929 C942 0.960 . S
C930 H922 0.929 . S
C930 C931 1.377 . S
C930 C932 1.384 . S
C931 C930 1.377 . S
C931 C937 1.390 . S
C932 H923 0.930 . S
C932 C930 1.384 . S
C932 C933 1.372 . S
C933 C932 1.372 . S
C933 C934 1.400 . S
C933 C938 1.490 . S
C934 H924 0.930 . S
C934 C933 1.400 . S
C934 C937 1.386 . S
H935 C951 0.930 . S
H936 C952 0.931 . S
C937 H925 0.929 . S
C937 C931 1.390 . S
C937 C934 1.386 . S
C938 C933 1.490 . S
C938 C940 1.395 . S
C938 C941 1.403 . S
H939 C945 0.930 . S
C940 H926 0.930 . S
C940 C938 1.395 . S
C940 C943 1.403 . S
C941 C938 1.403 . S
C941 C942 1.524 . S
C941 C945 1.400 . S
C942 H927 0.960 . S
C942 H928 0.960 . S
C942 H929 0.960 . S
C942 C941 1.524 . S
C943 C940 1.403 . S
C943 C944 1.392 . S
C943 C947 1.495 . S
C944 C943 1.392 . S
C944 C945 1.385 . S
C944 C946 1.478 . S
C945 H939 0.930 . S
C945 C941 1.400 . S
C945 C944 1.385 . S
C946 C944 1.478 . S
C946 C948 1.381 . S
C946 C952 1.383 . S
C947 C943 1.495 . S
C947 H953 0.959 . S
C947 H954 0.961 . S
C947 H955 0.960 . S
C948 C946 1.381 . S
C948 C949 1.394 . S
C948 H956 0.930 . S
C949 C948 1.394 . S
C949 C950 1.383 . S
C949 H957 0.929 . S
C950 C949 1.383 . S
C950 C951 1.377 . S
C951 H935 0.930 . S
C951 C950 1.377 . S
C951 C952 1.379 . S
C952 H936 0.931 . S
C952 C946 1.383 . S
C952 C951 1.379 . S
H953 C947 0.959 . S
H954 C947 0.961 . S
H955 C947 0.960 . S
H956 C948 0.930 . S
H957 C949 0.929 . S
H958 C966 0.929 . S
H959 C968 0.930 . S
H960 C970 0.930 . S
H961 C973 0.929 . S
H962 C976 0.930 . S
H963 C978 0.960 . S
H964 C978 0.960 . S
H965 C978 0.960 . S
C966 H958 0.929 . S
C966 C967 1.377 . S
C966 C968 1.384 . S
C967 C966 1.377 . S
C967 C973 1.390 . S
C968 H959 0.930 . S
C968 C966 1.384 . S
C968 C969 1.372 . S
C969 C968 1.372 . S
C969 C970 1.400 . S
C969 C974 1.490 . S
C970 H960 0.930 . S
C970 C969 1.400 . S
C970 C973 1.386 . S
H971 C987 0.930 . S
H972 C988 0.931 . S
C973 H961 0.929 . S
C973 C967 1.390 . S
C973 C970 1.386 . S
C974 C969 1.490 . S
C974 C976 1.395 . S
C974 C977 1.403 . S
H975 C981 0.930 . S
C976 H962 0.930 . S
C976 C974 1.395 . S
C976 C979 1.403 . S
C977 C974 1.403 . S
C977 C978 1.524 . S
C977 C981 1.400 . S
C978 H963 0.960 . S
C978 H964 0.960 . S
C978 H965 0.960 . S
C978 C977 1.524 . S
C979 C976 1.403 . S
C979 C980 1.392 . S
C979 C983 1.495 . S
C980 C979 1.392 . S
C980 C981 1.385 . S
C980 C982 1.478 . S
C981 H975 0.930 . S
C981 C977 1.400 . S
C981 C980 1.385 . S
C982 C980 1.478 . S
C982 C984 1.381 . S
C982 C988 1.383 . S
C983 C979 1.495 . S
C983 H989 0.959 . S
C983 H990 0.961 . S
C983 H991 0.960 . S
C984 C982 1.381 . S
C984 C985 1.394 . S
C984 H992 0.930 . S
C985 C984 1.394 . S
C985 C986 1.383 . S
C985 H993 0.929 . S
C986 C985 1.383 . S
C986 C987 1.377 . S
C987 H971 0.930 . S
C987 C986 1.377 . S
C987 C988 1.379 . S
C988 H972 0.931 . S
C988 C982 1.383 . S
C988 C987 1.379 . S
H989 C983 0.959 . S
H990 C983 0.961 . S
H991 C983 0.960 . S
H992 C984 0.930 . S
H993 C985 0.929 . S
H994 C1002 0.929 . S
H995 C1004 0.930 . S
H996 C1006 0.930 . S
H997 C1009 0.929 . S
H998 C1012 0.930 . S
H999 C1014 0.960 . S
H1000 C1014 0.960 . S
H1001 C1014 0.960 . S
C1002 H994 0.929 . S
C1002 C1003 1.377 . S
C1002 C1004 1.384 . S
C1003 C1002 1.377 . S
C1003 C1009 1.390 . S
C1004 H995 0.930 . S
C1004 C1002 1.384 . S
C1004 C1005 1.372 . S
C1005 C1004 1.372 . S
C1005 C1006 1.400 . S
C1005 C1010 1.490 . S
C1006 H996 0.930 . S
C1006 C1005 1.400 . S
C1006 C1009 1.386 . S
H1007 C1023 0.930 . S
H1008 C1024 0.931 . S
C1009 H997 0.929 . S
C1009 C1003 1.390 . S
C1009 C1006 1.386 . S
C1010 C1005 1.490 . S
C1010 C1012 1.395 . S
C1010 C1013 1.403 . S
H1011 C1017 0.930 . S
C1012 H998 0.930 . S
C1012 C1010 1.395 . S
C1012 C1015 1.403 . S
C1013 C1010 1.403 . S
C1013 C1014 1.524 . S
C1013 C1017 1.400 . S
C1014 H999 0.960 . S
C1014 H1000 0.960 . S
C1014 H1001 0.960 . S
C1014 C1013 1.524 . S
C1015 C1012 1.403 . S
C1015 C1016 1.392 . S
C1015 C1019 1.495 . S
C1016 C1015 1.392 . S
C1016 C1017 1.385 . S
C1016 C1018 1.478 . S
C1017 H1011 0.930 . S
C1017 C1013 1.400 . S
C1017 C1016 1.385 . S
C1018 C1016 1.478 . S
C1018 C1020 1.381 . S
C1018 C1024 1.383 . S
C1019 C1015 1.495 . S
C1019 H1025 0.959 . S
C1019 H1026 0.961 . S
C1019 H1027 0.960 . S
C1020 C1018 1.381 . S
C1020 C1021 1.394 . S
C1020 H1028 0.930 . S
C1021 C1020 1.394 . S
C1021 C1022 1.383 . S
C1021 H1029 0.929 . S
C1022 C1021 1.383 . S
C1022 C1023 1.377 . S
C1023 H1007 0.930 . S
C1023 C1022 1.377 . S
C1023 C1024 1.379 . S
C1024 H1008 0.931 . S
C1024 C1018 1.383 . S
C1024 C1023 1.379 . S
H1025 C1019 0.959 . S
H1026 C1019 0.961 . S
H1027 C1019 0.960 . S
H1028 C1020 0.930 . S
H1029 C1021 0.929 . S
H1030 C1038 0.929 . S
H1031 C1040 0.930 . S
H1032 C1042 0.930 . S
H1033 C1045 0.929 . S
H1034 C1048 0.930 . S
H1035 C1050 0.960 . S
H1036 C1050 0.960 . S
H1037 C1050 0.960 . S
C1038 H1030 0.929 . S
C1038 C1039 1.377 . S
C1038 C1040 1.384 . S
C1039 C1038 1.377 . S
C1039 C1045 1.390 . S
C1040 H1031 0.930 . S
C1040 C1038 1.384 . S
C1040 C1041 1.372 . S
C1041 C1040 1.372 . S
C1041 C1042 1.400 . S
C1041 C1046 1.490 . S
C1042 H1032 0.930 . S
C1042 C1041 1.400 . S
C1042 C1045 1.386 . S
H1043 C1059 0.930 . S
H1044 C1060 0.931 . S
C1045 H1033 0.929 . S
C1045 C1039 1.390 . S
C1045 C1042 1.386 . S
C1046 C1041 1.490 . S
C1046 C1048 1.395 . S
C1046 C1049 1.403 . S
H1047 C1053 0.930 . S
C1048 H1034 0.930 . S
C1048 C1046 1.395 . S
C1048 C1051 1.403 . S
C1049 C1046 1.403 . S
C1049 C1050 1.524 . S
C1049 C1053 1.400 . S
C1050 H1035 0.960 . S
C1050 H1036 0.960 . S
C1050 H1037 0.960 . S
C1050 C1049 1.524 . S
C1051 C1048 1.403 . S
C1051 C1052 1.392 . S
C1051 C1055 1.495 . S
C1052 C1051 1.392 . S
C1052 C1053 1.385 . S
C1052 C1054 1.478 . S
C1053 H1047 0.930 . S
C1053 C1049 1.400 . S
C1053 C1052 1.385 . S
C1054 C1052 1.478 . S
C1054 C1056 1.381 . S
C1054 C1060 1.383 . S
C1055 C1051 1.495 . S
C1055 H1061 0.959 . S
C1055 H1062 0.961 . S
C1055 H1063 0.960 . S
C1056 C1054 1.381 . S
C1056 C1057 1.394 . S
C1056 H1064 0.930 . S
C1057 C1056 1.394 . S
C1057 C1058 1.383 . S
C1057 H1065 0.929 . S
C1058 C1057 1.383 . S
C1058 C1059 1.377 . S
C1059 H1043 0.930 . S
C1059 C1058 1.377 . S
C1059 C1060 1.379 . S
C1060 H1044 0.931 . S
C1060 C1054 1.383 . S
C1060 C1059 1.379 . S
H1061 C1055 0.959 . S
H1062 C1055 0.961 . S
H1063 C1055 0.960 . S
H1064 C1056 0.930 . S
H1065 C1057 0.929 . S
H1066 C1074 0.929 . S
H1067 C1076 0.930 . S
H1068 C1078 0.930 . S
H1069 C1081 0.929 . S
H1070 C1084 0.930 . S
H1071 C1086 0.960 . S
H1072 C1086 0.960 . S
H1073 C1086 0.960 . S
C1074 H1066 0.929 . S
C1074 C1075 1.377 . S
C1074 C1076 1.384 . S
C1075 C1074 1.377 . S
C1075 C1081 1.390 . S
C1076 H1067 0.930 . S
C1076 C1074 1.384 . S
C1076 C1077 1.372 . S
C1077 C1076 1.372 . S
C1077 C1078 1.400 . S
C1077 C1082 1.490 . S
C1078 H1068 0.930 . S
C1078 C1077 1.400 . S
C1078 C1081 1.386 . S
H1079 C1095 0.930 . S
H1080 C1096 0.931 . S
C1081 H1069 0.929 . S
C1081 C1075 1.390 . S
C1081 C1078 1.386 . S
C1082 C1077 1.490 . S
C1082 C1084 1.395 . S
C1082 C1085 1.403 . S
H1083 C1089 0.930 . S
C1084 H1070 0.930 . S
C1084 C1082 1.395 . S
C1084 C1087 1.403 . S
C1085 C1082 1.403 . S
C1085 C1086 1.524 . S
C1085 C1089 1.400 . S
C1086 H1071 0.960 . S
C1086 H1072 0.960 . S
C1086 H1073 0.960 . S
C1086 C1085 1.524 . S
C1087 C1084 1.403 . S
C1087 C1088 1.392 . S
C1087 C1091 1.495 . S
C1088 C1087 1.392 . S
C1088 C1089 1.385 . S
C1088 C1090 1.478 . S
C1089 H1083 0.930 . S
C1089 C1085 1.400 . S
C1089 C1088 1.385 . S
C1090 C1088 1.478 . S
C1090 C1092 1.381 . S
C1090 C1096 1.383 . S
C1091 C1087 1.495 . S
C1091 H1097 0.959 . S
C1091 H1098 0.961 . S
C1091 H1099 0.960 . S
C1092 C1090 1.381 . S
C1092 C1093 1.394 . S
C1092 H1100 0.930 . S
C1093 C1092 1.394 . S
C1093 C1094 1.383 . S
C1093 H1101 0.929 . S
C1094 C1093 1.383 . S
C1094 C1095 1.377 . S
C1095 H1079 0.930 . S
C1095 C1094 1.377 . S
C1095 C1096 1.379 . S
C1096 H1080 0.931 . S
C1096 C1090 1.383 . S
C1096 C1095 1.379 . S
H1097 C1091 0.959 . S
H1098 C1091 0.961 . S
H1099 C1091 0.960 . S
H1100 C1092 0.930 . S
H1101 C1093 0.929 . S
H1102 C1110 0.929 . S
H1103 C1112 0.930 . S
H1104 C1114 0.930 . S
H1105 C1117 0.929 . S
H1106 C1120 0.930 . S
H1107 C1122 0.960 . S
H1108 C1122 0.960 . S
H1109 C1122 0.960 . S
C1110 H1102 0.929 . S
C1110 C1111 1.377 . S
C1110 C1112 1.384 . S
C1111 C1110 1.377 . S
C1111 C1117 1.390 . S
C1112 H1103 0.930 . S
C1112 C1110 1.384 . S
C1112 C1113 1.372 . S
C1113 C1112 1.372 . S
C1113 C1114 1.400 . S
C1113 C1118 1.490 . S
C1114 H1104 0.930 . S
C1114 C1113 1.400 . S
C1114 C1117 1.386 . S
H1115 C1131 0.930 . S
H1116 C1132 0.931 . S
C1117 H1105 0.929 . S
C1117 C1111 1.390 . S
C1117 C1114 1.386 . S
C1118 C1113 1.490 . S
C1118 C1120 1.395 . S
C1118 C1121 1.403 . S
H1119 C1125 0.930 . S
C1120 H1106 0.930 . S
C1120 C1118 1.395 . S
C1120 C1123 1.403 . S
C1121 C1118 1.403 . S
C1121 C1122 1.524 . S
C1121 C1125 1.400 . S
C1122 H1107 0.960 . S
C1122 H1108 0.960 . S
C1122 H1109 0.960 . S
C1122 C1121 1.524 . S
C1123 C1120 1.403 . S
C1123 C1124 1.392 . S
C1123 C1127 1.495 . S
C1124 C1123 1.392 . S
C1124 C1125 1.385 . S
C1124 C1126 1.478 . S
C1125 H1119 0.930 . S
C1125 C1121 1.400 . S
C1125 C1124 1.385 . S
C1126 C1124 1.478 . S
C1126 C1128 1.381 . S
C1126 C1132 1.383 . S
C1127 C1123 1.495 . S
C1127 H1133 0.959 . S
C1127 H1134 0.961 . S
C1127 H1135 0.960 . S
C1128 C1126 1.381 . S
C1128 C1129 1.394 . S
C1128 H1136 0.930 . S
C1129 C1128 1.394 . S
C1129 C1130 1.383 . S
C1129 H1137 0.929 . S
C1130 C1129 1.383 . S
C1130 C1131 1.377 . S
C1131 H1115 0.930 . S
C1131 C1130 1.377 . S
C1131 C1132 1.379 . S
C1132 H1116 0.931 . S
C1132 C1126 1.383 . S
C1132 C1131 1.379 . S
H1133 C1127 0.959 . S
H1134 C1127 0.961 . S
H1135 C1127 0.960 . S
H1136 C1128 0.930 . S
H1137 C1129 0.929 . S
H1138 C1146 0.929 . S
H1139 C1148 0.930 . S
H1140 C1150 0.930 . S
H1141 C1153 0.929 . S
H1142 C1156 0.930 . S
H1143 C1158 0.960 . S
H1144 C1158 0.960 . S
H1145 C1158 0.960 . S
C1146 H1138 0.929 . S
C1146 C1147 1.377 . S
C1146 C1148 1.384 . S
C1147 C1146 1.377 . S
C1147 C1153 1.390 . S
C1148 H1139 0.930 . S
C1148 C1146 1.384 . S
C1148 C1149 1.372 . S
C1149 C1148 1.372 . S
C1149 C1150 1.400 . S
C1149 C1154 1.490 . S
C1150 H1140 0.930 . S
C1150 C1149 1.400 . S
C1150 C1153 1.386 . S
H1151 C1167 0.930 . S
H1152 C1168 0.931 . S
C1153 H1141 0.929 . S
C1153 C1147 1.390 . S
C1153 C1150 1.386 . S
C1154 C1149 1.490 . S
C1154 C1156 1.395 . S
C1154 C1157 1.403 . S
H1155 C1161 0.930 . S
C1156 H1142 0.930 . S
C1156 C1154 1.395 . S
C1156 C1159 1.403 . S
C1157 C1154 1.403 . S
C1157 C1158 1.524 . S
C1157 C1161 1.400 . S
C1158 H1143 0.960 . S
C1158 H1144 0.960 . S
C1158 H1145 0.960 . S
C1158 C1157 1.524 . S
C1159 C1156 1.403 . S
C1159 C1160 1.392 . S
C1159 C1163 1.495 . S
C1160 C1159 1.392 . S
C1160 C1161 1.385 . S
C1160 C1162 1.478 . S
C1161 H1155 0.930 . S
C1161 C1157 1.400 . S
C1161 C1160 1.385 . S
C1162 C1160 1.478 . S
C1162 C1164 1.381 . S
C1162 C1168 1.383 . S
C1163 C1159 1.495 . S
C1163 H1169 0.959 . S
C1163 H1170 0.961 . S
C1163 H1171 0.960 . S
C1164 C1162 1.381 . S
C1164 C1165 1.394 . S
C1164 H1172 0.930 . S
C1165 C1164 1.394 . S
C1165 C1166 1.383 . S
C1165 H1173 0.929 . S
C1166 C1165 1.383 . S
C1166 C1167 1.377 . S
C1167 H1151 0.930 . S
C1167 C1166 1.377 . S
C1167 C1168 1.379 . S
C1168 H1152 0.931 . S
C1168 C1162 1.383 . S
C1168 C1167 1.379 . S
H1169 C1163 0.959 . S
H1170 C1163 0.961 . S
H1171 C1163 0.960 . S
H1172 C1164 0.930 . S
H1173 C1165 0.929 . S
H1174 C1182 0.929 . S
H1175 C1184 0.930 . S
H1176 C1186 0.930 . S
H1177 C1189 0.929 . S
H1178 C1192 0.930 . S
H1179 C1194 0.960 . S
H1180 C1194 0.960 . S
H1181 C1194 0.960 . S
C1182 H1174 0.929 . S
C1182 C1183 1.377 . S
C1182 C1184 1.384 . S
C1183 C1182 1.377 . S
C1183 C1189 1.390 . S
C1184 H1175 0.930 . S
C1184 C1182 1.384 . S
C1184 C1185 1.372 . S
C1185 C1184 1.372 . S
C1185 C1186 1.400 . S
C1185 C1190 1.490 . S
C1186 H1176 0.930 . S
C1186 C1185 1.400 . S
C1186 C1189 1.386 . S
H1187 C1203 0.930 . S
H1188 C1204 0.931 . S
C1189 H1177 0.929 . S
C1189 C1183 1.390 . S
C1189 C1186 1.386 . S
C1190 C1185 1.490 . S
C1190 C1192 1.395 . S
C1190 C1193 1.403 . S
H1191 C1197 0.930 . S
C1192 H1178 0.930 . S
C1192 C1190 1.395 . S
C1192 C1195 1.403 . S
C1193 C1190 1.403 . S
C1193 C1194 1.524 . S
C1193 C1197 1.400 . S
C1194 H1179 0.960 . S
C1194 H1180 0.960 . S
C1194 H1181 0.960 . S
C1194 C1193 1.524 . S
C1195 C1192 1.403 . S
C1195 C1196 1.392 . S
C1195 C1199 1.495 . S
C1196 C1195 1.392 . S
C1196 C1197 1.385 . S
C1196 C1198 1.478 . S
C1197 H1191 0.930 . S
C1197 C1193 1.400 . S
C1197 C1196 1.385 . S
C1198 C1196 1.478 . S
C1198 C1200 1.381 . S
C1198 C1204 1.383 . S
C1199 C1195 1.495 . S
C1199 H1205 0.959 . S
C1199 H1206 0.961 . S
C1199 H1207 0.960 . S
C1200 C1198 1.381 . S
C1200 C1201 1.394 . S
C1200 H1208 0.930 . S
C1201 C1200 1.394 . S
C1201 C1202 1.383 . S
C1201 H1209 0.929 . S
C1202 C1201 1.383 . S
C1202 C1203 1.377 . S
C1203 H1187 0.930 . S
C1203 C1202 1.377 . S
C1203 C1204 1.379 . S
C1204 H1188 0.931 . S
C1204 C1198 1.383 . S
C1204 C1203 1.379 . S
H1205 C1199 0.959 . S
H1206 C1199 0.961 . S
H1207 C1199 0.960 . S
H1208 C1200 0.930 . S
H1209 C1201 0.929 . S
H1210 C1218 0.929 . S
H1211 C1220 0.930 . S
H1212 C1222 0.930 . S
H1213 C1225 0.929 . S
H1214 C1228 0.930 . S
H1215 C1230 0.960 . S
H1216 C1230 0.960 . S
H1217 C1230 0.960 . S
C1218 H1210 0.929 . S
C1218 C1219 1.377 . S
C1218 C1220 1.384 . S
C1219 C1218 1.377 . S
C1219 C1225 1.390 . S
C1220 H1211 0.930 . S
C1220 C1218 1.384 . S
C1220 C1221 1.372 . S
C1221 C1220 1.372 . S
C1221 C1222 1.400 . S
C1221 C1226 1.490 . S
C1222 H1212 0.930 . S
C1222 C1221 1.400 . S
C1222 C1225 1.386 . S
H1223 C1239 0.930 . S
H1224 C1240 0.931 . S
C1225 H1213 0.929 . S
C1225 C1219 1.390 . S
C1225 C1222 1.386 . S
C1226 C1221 1.490 . S
C1226 C1228 1.395 . S
C1226 C1229 1.403 . S
H1227 C1233 0.930 . S
C1228 H1214 0.930 . S
C1228 C1226 1.395 . S
C1228 C1231 1.403 . S
C1229 C1226 1.403 . S
C1229 C1230 1.524 . S
C1229 C1233 1.400 . S
C1230 H1215 0.960 . S
C1230 H1216 0.960 . S
C1230 H1217 0.960 . S
C1230 C1229 1.524 . S
C1231 C1228 1.403 . S
C1231 C1232 1.392 . S
C1231 C1235 1.495 . S
C1232 C1231 1.392 . S
C1232 C1233 1.385 . S
C1232 C1234 1.478 . S
C1233 H1227 0.930 . S
C1233 C1229 1.400 . S
C1233 C1232 1.385 . S
C1234 C1232 1.478 . S
C1234 C1236 1.381 . S
C1234 C1240 1.383 . S
C1235 C1231 1.495 . S
C1235 H1241 0.959 . S
C1235 H1242 0.961 . S
C1235 H1243 0.960 . S
C1236 C1234 1.381 . S
C1236 C1237 1.394 . S
C1236 H1244 0.930 . S
C1237 C1236 1.394 . S
C1237 C1238 1.383 . S
C1237 H1245 0.929 . S
C1238 C1237 1.383 . S
C1238 C1239 1.377 . S
C1239 H1223 0.930 . S
C1239 C1238 1.377 . S
C1239 C1240 1.379 . S
C1240 H1224 0.931 . S
C1240 C1234 1.383 . S
C1240 C1239 1.379 . S
H1241 C1235 0.959 . S
H1242 C1235 0.961 . S
H1243 C1235 0.960 . S
H1244 C1236 0.930 . S
H1245 C1237 0.929 . S
H1246 C1254 0.929 . S
H1247 C1256 0.930 . S
H1248 C1258 0.930 . S
H1249 C1261 0.929 . S
H1250 C1264 0.930 . S
H1251 C1266 0.960 . S
H1252 C1266 0.960 . S
H1253 C1266 0.960 . S
C1254 H1246 0.929 . S
C1254 C1255 1.377 . S
C1254 C1256 1.384 . S
C1255 C1254 1.377 . S
C1255 C1261 1.390 . S
C1256 H1247 0.930 . S
C1256 C1254 1.384 . S
C1256 C1257 1.372 . S
C1257 C1256 1.372 . S
C1257 C1258 1.400 . S
C1257 C1262 1.490 . S
C1258 H1248 0.930 . S
C1258 C1257 1.400 . S
C1258 C1261 1.386 . S
H1259 C1275 0.930 . S
H1260 C1276 0.931 . S
C1261 H1249 0.929 . S
C1261 C1255 1.390 . S
C1261 C1258 1.386 . S
C1262 C1257 1.490 . S
C1262 C1264 1.395 . S
C1262 C1265 1.403 . S
H1263 C1269 0.930 . S
C1264 H1250 0.930 . S
C1264 C1262 1.395 . S
C1264 C1267 1.403 . S
C1265 C1262 1.403 . S
C1265 C1266 1.524 . S
C1265 C1269 1.400 . S
C1266 H1251 0.960 . S
C1266 H1252 0.960 . S
C1266 H1253 0.960 . S
C1266 C1265 1.524 . S
C1267 C1264 1.403 . S
C1267 C1268 1.392 . S
C1267 C1271 1.495 . S
C1268 C1267 1.392 . S
C1268 C1269 1.385 . S
C1268 C1270 1.478 . S
C1269 H1263 0.930 . S
C1269 C1265 1.400 . S
C1269 C1268 1.385 . S
C1270 C1268 1.478 . S
C1270 C1272 1.381 . S
C1270 C1276 1.383 . S
C1271 C1267 1.495 . S
C1271 H1277 0.959 . S
C1271 H1278 0.961 . S
C1271 H1279 0.960 . S
C1272 C1270 1.381 . S
C1272 C1273 1.394 . S
C1272 H1280 0.930 . S
C1273 C1272 1.394 . S
C1273 C1274 1.383 . S
C1273 H1281 0.929 . S
C1274 C1273 1.383 . S
C1274 C1275 1.377 . S
C1275 H1259 0.930 . S
C1275 C1274 1.377 . S
C1275 C1276 1.379 . S
C1276 H1260 0.931 . S
C1276 C1270 1.383 . S
C1276 C1275 1.379 . S
H1277 C1271 0.959 . S
H1278 C1271 0.961 . S
H1279 C1271 0.960 . S
H1280 C1272 0.930 . S
H1281 C1273 0.929 . S
H1282 C1290 0.929 . S
H1283 C1292 0.930 . S
H1284 C1294 0.930 . S
H1285 C1297 0.929 . S
H1286 C1300 0.930 . S
H1287 C1302 0.960 . S
H1288 C1302 0.960 . S
H1289 C1302 0.960 . S
C1290 H1282 0.929 . S
C1290 C1291 1.377 . S
C1290 C1292 1.384 . S
C1291 C1290 1.377 . S
C1291 C1297 1.390 . S
C1292 H1283 0.930 . S
C1292 C1290 1.384 . S
C1292 C1293 1.372 . S
C1293 C1292 1.372 . S
C1293 C1294 1.400 . S
C1293 C1298 1.490 . S
C1294 H1284 0.930 . S
C1294 C1293 1.400 . S
C1294 C1297 1.386 . S
H1295 C1311 0.930 . S
H1296 C1312 0.931 . S
C1297 H1285 0.929 . S
C1297 C1291 1.390 . S
C1297 C1294 1.386 . S
C1298 C1293 1.490 . S
C1298 C1300 1.395 . S
C1298 C1301 1.403 . S
H1299 C1305 0.930 . S
C1300 H1286 0.930 . S
C1300 C1298 1.395 . S
C1300 C1303 1.403 . S
C1301 C1298 1.403 . S
C1301 C1302 1.524 . S
C1301 C1305 1.400 . S
C1302 H1287 0.960 . S
C1302 H1288 0.960 . S
C1302 H1289 0.960 . S
C1302 C1301 1.524 . S
C1303 C1300 1.403 . S
C1303 C1304 1.392 . S
C1303 C1307 1.495 . S
C1304 C1303 1.392 . S
C1304 C1305 1.385 . S
C1304 C1306 1.478 . S
C1305 H1299 0.930 . S
C1305 C1301 1.400 . S
C1305 C1304 1.385 . S
C1306 C1304 1.478 . S
C1306 C1308 1.381 . S
C1306 C1312 1.383 . S
C1307 C1303 1.495 . S
C1307 H1313 0.959 . S
C1307 H1314 0.961 . S
C1307 H1315 0.960 . S
C1308 C1306 1.381 . S
C1308 C1309 1.394 . S
C1308 H1316 0.930 . S
C1309 C1308 1.394 . S
C1309 C1310 1.383 . S
C1309 H1317 0.929 . S
C1310 C1309 1.383 . S
C1310 C1311 1.377 . S
C1311 H1295 0.930 . S
C1311 C1310 1.377 . S
C1311 C1312 1.379 . S
C1312 H1296 0.931 . S
C1312 C1306 1.383 . S
C1312 C1311 1.379 . S
H1313 C1307 0.959 . S
H1314 C1307 0.961 . S
H1315 C1307 0.960 . S
H1316 C1308 0.930 . S
H1317 C1309 0.929 . S
H1318 C1326 0.929 . S
H1319 C1328 0.930 . S
H1320 C1330 0.930 . S
H1321 C1333 0.929 . S
H1322 C1336 0.930 . S
H1323 C1338 0.960 . S
H1324 C1338 0.960 . S
H1325 C1338 0.960 . S
C1326 H1318 0.929 . S
C1326 C1327 1.377 . S
C1326 C1328 1.384 . S
C1327 C1326 1.377 . S
C1327 C1333 1.390 . S
C1328 H1319 0.930 . S
C1328 C1326 1.384 . S
C1328 C1329 1.372 . S
C1329 C1328 1.372 . S
C1329 C1330 1.400 . S
C1329 C1334 1.490 . S
C1330 H1320 0.930 . S
C1330 C1329 1.400 . S
C1330 C1333 1.386 . S
H1331 C1347 0.930 . S
H1332 C1348 0.931 . S
C1333 H1321 0.929 . S
C1333 C1327 1.390 . S
C1333 C1330 1.386 . S
C1334 C1329 1.490 . S
C1334 C1336 1.395 . S
C1334 C1337 1.403 . S
H1335 C1341 0.930 . S
C1336 H1322 0.930 . S
C1336 C1334 1.395 . S
C1336 C1339 1.403 . S
C1337 C1334 1.403 . S
C1337 C1338 1.524 . S
C1337 C1341 1.400 . S
C1338 H1323 0.960 . S
C1338 H1324 0.960 . S
C1338 H1325 0.960 . S
C1338 C1337 1.524 . S
C1339 C1336 1.403 . S
C1339 C1340 1.392 . S
C1339 C1343 1.495 . S
C1340 C1339 1.392 . S
C1340 C1341 1.385 . S
C1340 C1342 1.478 . S
C1341 H1335 0.930 . S
C1341 C1337 1.400 . S
C1341 C1340 1.385 . S
C1342 C1340 1.478 . S
C1342 C1344 1.381 . S
C1342 C1348 1.383 . S
C1343 C1339 1.495 . S
C1343 H1349 0.959 . S
C1343 H1350 0.961 . S
C1343 H1351 0.960 . S
C1344 C1342 1.381 . S
C1344 C1345 1.394 . S
C1344 H1352 0.930 . S
C1345 C1344 1.394 . S
C1345 C1346 1.383 . S
C1345 H1353 0.929 . S
C1346 C1345 1.383 . S
C1346 C1347 1.377 . S
C1347 H1331 0.930 . S
C1347 C1346 1.377 . S
C1347 C1348 1.379 . S
C1348 H1332 0.931 . S
C1348 C1342 1.383 . S
C1348 C1347 1.379 . S
H1349 C1343 0.959 . S
H1350 C1343 0.961 . S
H1351 C1343 0.960 . S
H1352 C1344 0.930 . S
H1353 C1345 0.929 . S
H1354 C1362 0.929 . S
H1355 C1364 0.930 . S
H1356 C1366 0.930 . S
H1357 C1369 0.929 . S
H1358 C1372 0.930 . S
H1359 C1374 0.960 . S
H1360 C1374 0.960 . S
H1361 C1374 0.960 . S
C1362 H1354 0.929 . S
C1362 C1363 1.377 . S
C1362 C1364 1.384 . S
C1363 C1362 1.377 . S
C1363 C1369 1.390 . S
C1364 H1355 0.930 . S
C1364 C1362 1.384 . S
C1364 C1365 1.372 . S
C1365 C1364 1.372 . S
C1365 C1366 1.400 . S
C1365 C1370 1.490 . S
C1366 H1356 0.930 . S
C1366 C1365 1.400 . S
C1366 C1369 1.386 . S
H1367 C1383 0.930 . S
H1368 C1384 0.931 . S
C1369 H1357 0.929 . S
C1369 C1363 1.390 . S
C1369 C1366 1.386 . S
C1370 C1365 1.490 . S
C1370 C1372 1.395 . S
C1370 C1373 1.403 . S
H1371 C1377 0.930 . S
C1372 H1358 0.930 . S
C1372 C1370 1.395 . S
C1372 C1375 1.403 . S
C1373 C1370 1.403 . S
C1373 C1374 1.524 . S
C1373 C1377 1.400 . S
C1374 H1359 0.960 . S
C1374 H1360 0.960 . S
C1374 H1361 0.960 . S
C1374 C1373 1.524 . S
C1375 C1372 1.403 . S
C1375 C1376 1.392 . S
C1375 C1379 1.495 . S
C1376 C1375 1.392 . S
C1376 C1377 1.385 . S
C1376 C1378 1.478 . S
C1377 H1371 0.930 . S
C1377 C1373 1.400 . S
C1377 C1376 1.385 . S
C1378 C1376 1.478 . S
C1378 C1380 1.381 . S
C1378 C1384 1.383 . S
C1379 C1375 1.495 . S
C1379 H1385 0.959 . S
C1379 H1386 0.961 . S
C1379 H1387 0.960 . S
C1380 C1378 1.381 . S
C1380 C1381 1.394 . S
C1380 H1388 0.930 . S
C1381 C1380 1.394 . S
C1381 C1382 1.383 . S
C1381 H1389 0.929 . S
C1382 C1381 1.383 . S
C1382 C1383 1.377 . S
C1383 H1367 0.930 . S
C1383 C1382 1.377 . S
C1383 C1384 1.379 . S
C1384 H1368 0.931 . S
C1384 C1378 1.383 . S
C1384 C1383 1.379 . S
H1385 C1379 0.959 . S
H1386 C1379 0.961 . S
H1387 C1379 0.960 . S
H1388 C1380 0.930 . S
H1389 C1381 0.929 . S
H1390 C1398 0.929 . S
H1391 C1400 0.930 . S
H1392 C1402 0.930 . S
H1393 C1405 0.929 . S
H1394 C1408 0.930 . S
H1395 C1410 0.960 . S
H1396 C1410 0.960 . S
H1397 C1410 0.960 . S
C1398 H1390 0.929 . S
C1398 C1399 1.377 . S
C1398 C1400 1.384 . S
C1399 C1398 1.377 . S
C1399 C1405 1.390 . S
C1400 H1391 0.930 . S
C1400 C1398 1.384 . S
C1400 C1401 1.372 . S
C1401 C1400 1.372 . S
C1401 C1402 1.400 . S
C1401 C1406 1.490 . S
C1402 H1392 0.930 . S
C1402 C1401 1.400 . S
C1402 C1405 1.386 . S
H1403 C1419 0.930 . S
H1404 C1420 0.931 . S
C1405 H1393 0.929 . S
C1405 C1399 1.390 . S
C1405 C1402 1.386 . S
C1406 C1401 1.490 . S
C1406 C1408 1.395 . S
C1406 C1409 1.403 . S
H1407 C1413 0.930 . S
C1408 H1394 0.930 . S
C1408 C1406 1.395 . S
C1408 C1411 1.403 . S
C1409 C1406 1.403 . S
C1409 C1410 1.524 . S
C1409 C1413 1.400 . S
C1410 H1395 0.960 . S
C1410 H1396 0.960 . S
C1410 H1397 0.960 . S
C1410 C1409 1.524 . S
C1411 C1408 1.403 . S
C1411 C1412 1.392 . S
C1411 C1415 1.495 . S
C1412 C1411 1.392 . S
C1412 C1413 1.385 . S
C1412 C1414 1.478 . S
C1413 H1407 0.930 . S
C1413 C1409 1.400 . S
C1413 C1412 1.385 . S
C1414 C1412 1.478 . S
C1414 C1416 1.381 . S
C1414 C1420 1.383 . S
C1415 C1411 1.495 . S
C1415 H1421 0.959 . S
C1415 H1422 0.961 . S
C1415 H1423 0.960 . S
C1416 C1414 1.381 . S
C1416 C1417 1.394 . S
C1416 H1424 0.930 . S
C1417 C1416 1.394 . S
C1417 C1418 1.383 . S
C1417 H1425 0.929 . S
C1418 C1417 1.383 . S
C1418 C1419 1.377 . S
C1419 H1403 0.930 . S
C1419 C1418 1.377 . S
C1419 C1420 1.379 . S
C1420 H1404 0.931 . S
C1420 C1414 1.383 . S
C1420 C1419 1.379 . S
H1421 C1415 0.959 . S
H1422 C1415 0.961 . S
H1423 C1415 0.960 . S
H1424 C1416 0.930 . S
H1425 C1417 0.929 . S
H1426 C1434 0.929 . S
H1427 C1436 0.930 . S
H1428 C1438 0.930 . S
H1429 C1441 0.929 . S
H1430 C1444 0.930 . S
H1431 C1446 0.960 . S
H1432 C1446 0.960 . S
H1433 C1446 0.960 . S
C1434 H1426 0.929 . S
C1434 C1435 1.377 . S
C1434 C1436 1.384 . S
C1435 C1434 1.377 . S
C1435 C1441 1.390 . S
C1436 H1427 0.930 . S
C1436 C1434 1.384 . S
C1436 C1437 1.372 . S
C1437 C1436 1.372 . S
C1437 C1438 1.400 . S
C1437 C1442 1.490 . S
C1438 H1428 0.930 . S
C1438 C1437 1.400 . S
C1438 C1441 1.386 . S
H1439 C1455 0.930 . S
H1440 C1456 0.931 . S
C1441 H1429 0.929 . S
C1441 C1435 1.390 . S
C1441 C1438 1.386 . S
C1442 C1437 1.490 . S
C1442 C1444 1.395 . S
C1442 C1445 1.403 . S
H1443 C1449 0.930 . S
C1444 H1430 0.930 . S
C1444 C1442 1.395 . S
C1444 C1447 1.403 . S
C1445 C1442 1.403 . S
C1445 C1446 1.524 . S
C1445 C1449 1.400 . S
C1446 H1431 0.960 . S
C1446 H1432 0.960 . S
C1446 H1433 0.960 . S
C1446 C1445 1.524 . S
C1447 C1444 1.403 . S
C1447 C1448 1.392 . S
C1447 C1451 1.495 . S
C1448 C1447 1.392 . S
C1448 C1449 1.385 . S
C1448 C1450 1.478 . S
C1449 H1443 0.930 . S
C1449 C1445 1.400 . S
C1449 C1448 1.385 . S
C1450 C1448 1.478 . S
C1450 C1452 1.381 . S
C1450 C1456 1.383 . S
C1451 C1447 1.495 . S
C1451 H1457 0.959 . S
C1451 H1458 0.961 . S
C1451 H1459 0.960 . S
C1452 C1450 1.381 . S
C1452 C1453 1.394 . S
C1452 H1460 0.930 . S
C1453 C1452 1.394 . S
C1453 C1454 1.383 . S
C1453 H1461 0.929 . S
C1454 C1453 1.383 . S
C1454 C1455 1.377 . S
C1455 H1439 0.930 . S
C1455 C1454 1.377 . S
C1455 C1456 1.379 . S
C1456 H1440 0.931 . S
C1456 C1450 1.383 . S
C1456 C1455 1.379 . S
H1457 C1451 0.959 . S
H1458 C1451 0.961 . S
H1459 C1451 0.960 . S
H1460 C1452 0.930 . S
H1461 C1453 0.929 . S
H1462 C1470 0.929 . S
H1463 C1472 0.930 . S
H1464 C1474 0.930 . S
H1465 C1477 0.929 . S
H1466 C1480 0.930 . S
H1467 C1482 0.960 . S
H1468 C1482 0.960 . S
H1469 C1482 0.960 . S
C1470 H1462 0.929 . S
C1470 C1471 1.377 . S
C1470 C1472 1.384 . S
C1471 C1470 1.377 . S
C1471 C1477 1.390 . S
C1472 H1463 0.930 . S
C1472 C1470 1.384 . S
C1472 C1473 1.372 . S
C1473 C1472 1.372 . S
C1473 C1474 1.400 . S
C1473 C1478 1.490 . S
C1474 H1464 0.930 . S
C1474 C1473 1.400 . S
C1474 C1477 1.386 . S
H1475 C1491 0.930 . S
H1476 C1492 0.931 . S
C1477 H1465 0.929 . S
C1477 C1471 1.390 . S
C1477 C1474 1.386 . S
C1478 C1473 1.490 . S
C1478 C1480 1.395 . S
C1478 C1481 1.403 . S
H1479 C1485 0.930 . S
C1480 H1466 0.930 . S
C1480 C1478 1.395 . S
C1480 C1483 1.403 . S
C1481 C1478 1.403 . S
C1481 C1482 1.524 . S
C1481 C1485 1.400 . S
C1482 H1467 0.960 . S
C1482 H1468 0.960 . S
C1482 H1469 0.960 . S
C1482 C1481 1.524 . S
C1483 C1480 1.403 . S
C1483 C1484 1.392 . S
C1483 C1487 1.495 . S
C1484 C1483 1.392 . S
C1484 C1485 1.385 . S
C1484 C1486 1.478 . S
C1485 H1479 0.930 . S
C1485 C1481 1.400 . S
C1485 C1484 1.385 . S
C1486 C1484 1.478 . S
C1486 C1488 1.381 . S
C1486 C1492 1.383 . S
C1487 C1483 1.495 . S
C1487 H1493 0.959 . S
C1487 H1494 0.961 . S
C1487 H1495 0.960 . S
C1488 C1486 1.381 . S
C1488 C1489 1.394 . S
C1488 H1496 0.930 . S
C1489 C1488 1.394 . S
C1489 C1490 1.383 . S
C1489 H1497 0.929 . S
C1490 C1489 1.383 . S
C1490 C1491 1.377 . S
C1491 H1475 0.930 . S
C1491 C1490 1.377 . S
C1491 C1492 1.379 . S
C1492 H1476 0.931 . S
C1492 C1486 1.383 . S
C1492 C1491 1.379 . S
H1493 C1487 0.959 . S
H1494 C1487 0.961 . S
H1495 C1487 0.960 . S
H1496 C1488 0.930 . S
H1497 C1489 0.929 . S
H1498 C1506 0.929 . S
H1499 C1508 0.930 . S
H1500 C1510 0.930 . S
H1501 C1513 0.929 . S
H1502 C1516 0.930 . S
H1503 C1518 0.960 . S
H1504 C1518 0.960 . S
H1505 C1518 0.960 . S
C1506 H1498 0.929 . S
C1506 C1507 1.377 . S
C1506 C1508 1.384 . S
C1507 C1506 1.377 . S
C1507 C1513 1.390 . S
C1508 H1499 0.930 . S
C1508 C1506 1.384 . S
C1508 C1509 1.372 . S
C1509 C1508 1.372 . S
C1509 C1510 1.400 . S
C1509 C1514 1.490 . S
C1510 H1500 0.930 . S
C1510 C1509 1.400 . S
C1510 C1513 1.386 . S
H1511 C1527 0.930 . S
H1512 C1528 0.931 . S
C1513 H1501 0.929 . S
C1513 C1507 1.390 . S
C1513 C1510 1.386 . S
C1514 C1509 1.490 . S
C1514 C1516 1.395 . S
C1514 C1517 1.403 . S
H1515 C1521 0.930 . S
C1516 H1502 0.930 . S
C1516 C1514 1.395 . S
C1516 C1519 1.403 . S
C1517 C1514 1.403 . S
C1517 C1518 1.524 . S
C1517 C1521 1.400 . S
C1518 H1503 0.960 . S
C1518 H1504 0.960 . S
C1518 H1505 0.960 . S
C1518 C1517 1.524 . S
C1519 C1516 1.403 . S
C1519 C1520 1.392 . S
C1519 C1523 1.495 . S
C1520 C1519 1.392 . S
C1520 C1521 1.385 . S
C1520 C1522 1.478 . S
C1521 H1515 0.930 . S
C1521 C1517 1.400 . S
C1521 C1520 1.385 . S
C1522 C1520 1.478 . S
C1522 C1524 1.381 . S
C1522 C1528 1.383 . S
C1523 C1519 1.495 . S
C1523 H1529 0.959 . S
C1523 H1530 0.961 . S
C1523 H1531 0.960 . S
C1524 C1522 1.381 . S
C1524 C1525 1.394 . S
C1524 H1532 0.930 . S
C1525 C1524 1.394 . S
C1525 C1526 1.383 . S
C1525 H1533 0.929 . S
C1526 C1525 1.383 . S
C1526 C1527 1.377 . S
C1527 H1511 0.930 . S
C1527 C1526 1.377 . S
C1527 C1528 1.379 . S
C1528 H1512 0.931 . S
C1528 C1522 1.383 . S
C1528 C1527 1.379 . S
H1529 C1523 0.959 . S
H1530 C1523 0.961 . S
H1531 C1523 0.960 . S
H1532 C1524 0.930 . S
H1533 C1525 0.929 . S
H1534 C1542 0.929 . S
H1535 C1544 0.930 . S
H1536 C1546 0.930 . S
H1537 C1549 0.929 . S
H1538 C1552 0.930 . S
H1539 C1554 0.960 . S
H1540 C1554 0.960 . S
H1541 C1554 0.960 . S
C1542 H1534 0.929 . S
C1542 C1543 1.377 . S
C1542 C1544 1.384 . S
C1543 C1542 1.377 . S
C1543 C1549 1.390 . S
C1544 H1535 0.930 . S
C1544 C1542 1.384 . S
C1544 C1545 1.372 . S
C1545 C1544 1.372 . S
C1545 C1546 1.400 . S
C1545 C1550 1.490 . S
C1546 H1536 0.930 . S
C1546 C1545 1.400 . S
C1546 C1549 1.386 . S
H1547 C1563 0.930 . S
H1548 C1564 0.931 . S
C1549 H1537 0.929 . S
C1549 C1543 1.390 . S
C1549 C1546 1.386 . S
C1550 C1545 1.490 . S
C1550 C1552 1.395 . S
C1550 C1553 1.403 . S
H1551 C1557 0.930 . S
C1552 H1538 0.930 . S
C1552 C1550 1.395 . S
C1552 C1555 1.403 . S
C1553 C1550 1.403 . S
C1553 C1554 1.524 . S
C1553 C1557 1.400 . S
C1554 H1539 0.960 . S
C1554 H1540 0.960 . S
C1554 H1541 0.960 . S
C1554 C1553 1.524 . S
C1555 C1552 1.403 . S
C1555 C1556 1.392 . S
C1555 C1559 1.495 . S
C1556 C1555 1.392 . S
C1556 C1557 1.385 . S
C1556 C1558 1.478 . S
C1557 H1551 0.930 . S
C1557 C1553 1.400 . S
C1557 C1556 1.385 . S
C1558 C1556 1.478 . S
C1558 C1560 1.381 . S
C1558 C1564 1.383 . S
C1559 C1555 1.495 . S
C1559 H1565 0.959 . S
C1559 H1566 0.961 . S
C1559 H1567 0.960 . S
C1560 C1558 1.381 . S
C1560 C1561 1.394 . S
C1560 H1568 0.930 . S
C1561 C1560 1.394 . S
C1561 C1562 1.383 . S
C1561 H1569 0.929 . S
C1562 C1561 1.383 . S
C1562 C1563 1.377 . S
C1563 H1547 0.930 . S
C1563 C1562 1.377 . S
C1563 C1564 1.379 . S
C1564 H1548 0.931 . S
C1564 C1558 1.383 . S
C1564 C1563 1.379 . S
H1565 C1559 0.959 . S
H1566 C1559 0.961 . S
H1567 C1559 0.960 . S
H1568 C1560 0.930 . S
H1569 C1561 0.929 . S
H1570 C1578 0.929 . S
H1571 C1580 0.930 . S
H1572 C1582 0.930 . S
H1573 C1585 0.929 . S
H1574 C1588 0.930 . S
H1575 C1590 0.960 . S
H1576 C1590 0.960 . S
H1577 C1590 0.960 . S
C1578 H1570 0.929 . S
C1578 C1579 1.377 . S
C1578 C1580 1.384 . S
C1579 C1578 1.377 . S
C1579 C1585 1.390 . S
C1580 H1571 0.930 . S
C1580 C1578 1.384 . S
C1580 C1581 1.372 . S
C1581 C1580 1.372 . S
C1581 C1582 1.400 . S
C1581 C1586 1.490 . S
C1582 H1572 0.930 . S
C1582 C1581 1.400 . S
C1582 C1585 1.386 . S
H1583 C1599 0.930 . S
H1584 C1600 0.931 . S
C1585 H1573 0.929 . S
C1585 C1579 1.390 . S
C1585 C1582 1.386 . S
C1586 C1581 1.490 . S
C1586 C1588 1.395 . S
C1586 C1589 1.403 . S
H1587 C1593 0.930 . S
C1588 H1574 0.930 . S
C1588 C1586 1.395 . S
C1588 C1591 1.403 . S
C1589 C1586 1.403 . S
C1589 C1590 1.524 . S
C1589 C1593 1.400 . S
C1590 H1575 0.960 . S
C1590 H1576 0.960 . S
C1590 H1577 0.960 . S
C1590 C1589 1.524 . S
C1591 C1588 1.403 . S
C1591 C1592 1.392 . S
C1591 C1595 1.495 . S
C1592 C1591 1.392 . S
C1592 C1593 1.385 . S
C1592 C1594 1.478 . S
C1593 H1587 0.930 . S
C1593 C1589 1.400 . S
C1593 C1592 1.385 . S
C1594 C1592 1.478 . S
C1594 C1596 1.381 . S
C1594 C1600 1.383 . S
C1595 C1591 1.495 . S
C1595 H1601 0.959 . S
C1595 H1602 0.961 . S
C1595 H1603 0.960 . S
C1596 C1594 1.381 . S
C1596 C1597 1.394 . S
C1596 H1604 0.930 . S
C1597 C1596 1.394 . S
C1597 C1598 1.383 . S
C1597 H1605 0.929 . S
C1598 C1597 1.383 . S
C1598 C1599 1.377 . S
C1599 H1583 0.930 . S
C1599 C1598 1.377 . S
C1599 C1600 1.379 . S
C1600 H1584 0.931 . S
C1600 C1594 1.383 . S
C1600 C1599 1.379 . S
H1601 C1595 0.959 . S
H1602 C1595 0.961 . S
H1603 C1595 0.960 . S
H1604 C1596 0.930 . S
H1605 C1597 0.929 . S
H1606 C1614 0.929 . S
H1607 C1616 0.930 . S
H1608 C1618 0.930 . S
H1609 C1621 0.929 . S
H1610 C1624 0.930 . S
H1611 C1626 0.960 . S
H1612 C1626 0.960 . S
H1613 C1626 0.960 . S
C1614 H1606 0.929 . S
C1614 C1615 1.377 . S
C1614 C1616 1.384 . S
C1615 C1614 1.377 . S
C1615 C1621 1.390 . S
C1616 H1607 0.930 . S
C1616 C1614 1.384 . S
C1616 C1617 1.372 . S
C1617 C1616 1.372 . S
C1617 C1618 1.400 . S
C1617 C1622 1.490 . S
C1618 H1608 0.930 . S
C1618 C1617 1.400 . S
C1618 C1621 1.386 . S
H1619 C1635 0.930 . S
H1620 C1636 0.931 . S
C1621 H1609 0.929 . S
C1621 C1615 1.390 . S
C1621 C1618 1.386 . S
C1622 C1617 1.490 . S
C1622 C1624 1.395 . S
C1622 C1625 1.403 . S
H1623 C1629 0.930 . S
C1624 H1610 0.930 . S
C1624 C1622 1.395 . S
C1624 C1627 1.403 . S
C1625 C1622 1.403 . S
C1625 C1626 1.524 . S
C1625 C1629 1.400 . S
C1626 H1611 0.960 . S
C1626 H1612 0.960 . S
C1626 H1613 0.960 . S
C1626 C1625 1.524 . S
C1627 C1624 1.403 . S
C1627 C1628 1.392 . S
C1627 C1631 1.495 . S
C1628 C1627 1.392 . S
C1628 C1629 1.385 . S
C1628 C1630 1.478 . S
C1629 H1623 0.930 . S
C1629 C1625 1.400 . S
C1629 C1628 1.385 . S
C1630 C1628 1.478 . S
C1630 C1632 1.381 . S
C1630 C1636 1.383 . S
C1631 C1627 1.495 . S
C1631 H1637 0.959 . S
C1631 H1638 0.961 . S
C1631 H1639 0.960 . S
C1632 C1630 1.381 . S
C1632 C1633 1.394 . S
C1632 H1640 0.930 . S
C1633 C1632 1.394 . S
C1633 C1634 1.383 . S
C1633 H1641 0.929 . S
C1634 C1633 1.383 . S
C1634 C1635 1.377 . S
C1635 H1619 0.930 . S
C1635 C1634 1.377 . S
C1635 C1636 1.379 . S
C1636 H1620 0.931 . S
C1636 C1630 1.383 . S
C1636 C1635 1.379 . S
H1637 C1631 0.959 . S
H1638 C1631 0.961 . S
H1639 C1631 0.960 . S
H1640 C1632 0.930 . S
H1641 C1633 0.929 . S
H1642 C1650 0.929 . S
H1643 C1652 0.930 . S
H1644 C1654 0.930 . S
H1645 C1657 0.929 . S
H1646 C1660 0.930 . S
H1647 C1662 0.960 . S
H1648 C1662 0.960 . S
H1649 C1662 0.960 . S
C1650 H1642 0.929 . S
C1650 C1651 1.377 . S
C1650 C1652 1.384 . S
C1651 C1650 1.377 . S
C1651 C1657 1.390 . S
C1652 H1643 0.930 . S
C1652 C1650 1.384 . S
C1652 C1653 1.372 . S
C1653 C1652 1.372 . S
C1653 C1654 1.400 . S
C1653 C1658 1.490 . S
C1654 H1644 0.930 . S
C1654 C1653 1.400 . S
C1654 C1657 1.386 . S
H1655 C1671 0.930 . S
H1656 C1672 0.931 . S
C1657 H1645 0.929 . S
C1657 C1651 1.390 . S
C1657 C1654 1.386 . S
C1658 C1653 1.490 . S
C1658 C1660 1.395 . S
C1658 C1661 1.403 . S
H1659 C1665 0.930 . S
C1660 H1646 0.930 . S
C1660 C1658 1.395 . S
C1660 C1663 1.403 . S
C1661 C1658 1.403 . S
C1661 C1662 1.524 . S
C1661 C1665 1.400 . S
C1662 H1647 0.960 . S
C1662 H1648 0.960 . S
C1662 H1649 0.960 . S
C1662 C1661 1.524 . S
C1663 C1660 1.403 . S
C1663 C1664 1.392 . S
C1663 C1667 1.495 . S
C1664 C1663 1.392 . S
C1664 C1665 1.385 . S
C1664 C1666 1.478 . S
C1665 H1659 0.930 . S
C1665 C1661 1.400 . S
C1665 C1664 1.385 . S
C1666 C1664 1.478 . S
C1666 C1668 1.381 . S
C1666 C1672 1.383 . S
C1667 C1663 1.495 . S
C1667 H1673 0.959 . S
C1667 H1674 0.961 . S
C1667 H1675 0.960 . S
C1668 C1666 1.381 . S
C1668 C1669 1.394 . S
C1668 H1676 0.930 . S
C1669 C1668 1.394 . S
C1669 C1670 1.383 . S
C1669 H1677 0.929 . S
C1670 C1669 1.383 . S
C1670 C1671 1.377 . S
C1671 H1655 0.930 . S
C1671 C1670 1.377 . S
C1671 C1672 1.379 . S
C1672 H1656 0.931 . S
C1672 C1666 1.383 . S
C1672 C1671 1.379 . S
H1673 C1667 0.959 . S
H1674 C1667 0.961 . S
H1675 C1667 0.960 . S
H1676 C1668 0.930 . S
H1677 C1669 0.929 . S
H1678 C1686 0.929 . S
H1679 C1688 0.930 . S
H1680 C1690 0.930 . S
H1681 C1693 0.929 . S
H1682 C1696 0.930 . S
H1683 C1698 0.960 . S
H1684 C1698 0.960 . S
H1685 C1698 0.960 . S
C1686 H1678 0.929 . S
C1686 C1687 1.377 . S
C1686 C1688 1.384 . S
C1687 C1686 1.377 . S
C1687 C1693 1.390 . S
C1688 H1679 0.930 . S
C1688 C1686 1.384 . S
C1688 C1689 1.372 . S
C1689 C1688 1.372 . S
C1689 C1690 1.400 . S
C1689 C1694 1.490 . S
C1690 H1680 0.930 . S
C1690 C1689 1.400 . S
C1690 C1693 1.386 . S
H1691 C1707 0.930 . S
H1692 C1708 0.931 . S
C1693 H1681 0.929 . S
C1693 C1687 1.390 . S
C1693 C1690 1.386 . S
C1694 C1689 1.490 . S
C1694 C1696 1.395 . S
C1694 C1697 1.403 . S
H1695 C1701 0.930 . S
C1696 H1682 0.930 . S
C1696 C1694 1.395 . S
C1696 C1699 1.403 . S
C1697 C1694 1.403 . S
C1697 C1698 1.524 . S
C1697 C1701 1.400 . S
C1698 H1683 0.960 . S
C1698 H1684 0.960 . S
C1698 H1685 0.960 . S
C1698 C1697 1.524 . S
C1699 C1696 1.403 . S
C1699 C1700 1.392 . S
C1699 C1703 1.495 . S
C1700 C1699 1.392 . S
C1700 C1701 1.385 . S
C1700 C1702 1.478 . S
C1701 H1695 0.930 . S
C1701 C1697 1.400 . S
C1701 C1700 1.385 . S
C1702 C1700 1.478 . S
C1702 C1704 1.381 . S
C1702 C1708 1.383 . S
C1703 C1699 1.495 . S
C1703 H1709 0.959 . S
C1703 H1710 0.961 . S
C1703 H1711 0.960 . S
C1704 C1702 1.381 . S
C1704 C1705 1.394 . S
C1704 H1712 0.930 . S
C1705 C1704 1.394 . S
C1705 C1706 1.383 . S
C1705 H1713 0.929 . S
C1706 C1705 1.383 . S
C1706 C1707 1.377 . S
C1707 H1691 0.930 . S
C1707 C1706 1.377 . S
C1707 C1708 1.379 . S
C1708 H1692 0.931 . S
C1708 C1702 1.383 . S
C1708 C1707 1.379 . S
H1709 C1703 0.959 . S
H1710 C1703 0.961 . S
H1711 C1703 0.960 . S
H1712 C1704 0.930 . S
H1713 C1705 0.929 . S
H1714 C1722 0.929 . S
H1715 C1724 0.930 . S
H1716 C1726 0.930 . S
H1717 C1729 0.929 . S
H1718 C1732 0.930 . S
H1719 C1734 0.960 . S
H1720 C1734 0.960 . S
H1721 C1734 0.960 . S
C1722 H1714 0.929 . S
C1722 C1723 1.377 . S
C1722 C1724 1.384 . S
C1723 C1722 1.377 . S
C1723 C1729 1.390 . S
C1724 H1715 0.930 . S
C1724 C1722 1.384 . S
C1724 C1725 1.372 . S
C1725 C1724 1.372 . S
C1725 C1726 1.400 . S
C1725 C1730 1.490 . S
C1726 H1716 0.930 . S
C1726 C1725 1.400 . S
C1726 C1729 1.386 . S
H1727 C1743 0.930 . S
H1728 C1744 0.931 . S
C1729 H1717 0.929 . S
C1729 C1723 1.390 . S
C1729 C1726 1.386 . S
C1730 C1725 1.490 . S
C1730 C1732 1.395 . S
C1730 C1733 1.403 . S
H1731 C1737 0.930 . S
C1732 H1718 0.930 . S
C1732 C1730 1.395 . S
C1732 C1735 1.403 . S
C1733 C1730 1.403 . S
C1733 C1734 1.524 . S
C1733 C1737 1.400 . S
C1734 H1719 0.960 . S
C1734 H1720 0.960 . S
C1734 H1721 0.960 . S
C1734 C1733 1.524 . S
C1735 C1732 1.403 . S
C1735 C1736 1.392 . S
C1735 C1739 1.495 . S
C1736 C1735 1.392 . S
C1736 C1737 1.385 . S
C1736 C1738 1.478 . S
C1737 H1731 0.930 . S
C1737 C1733 1.400 . S
C1737 C1736 1.385 . S
C1738 C1736 1.478 . S
C1738 C1740 1.381 . S
C1738 C1744 1.383 . S
C1739 C1735 1.495 . S
C1739 H1745 0.959 . S
C1739 H1746 0.961 . S
C1739 H1747 0.960 . S
C1740 C1738 1.381 . S
C1740 C1741 1.394 . S
C1740 H1748 0.930 . S
C1741 C1740 1.394 . S
C1741 C1742 1.383 . S
C1741 H1749 0.929 . S
C1742 C1741 1.383 . S
C1742 C1743 1.377 . S
C1743 H1727 0.930 . S
C1743 C1742 1.377 . S
C1743 C1744 1.379 . S
C1744 H1728 0.931 . S
C1744 C1738 1.383 . S
C1744 C1743 1.379 . S
H1745 C1739 0.959 . S
H1746 C1739 0.961 . S
H1747 C1739 0.960 . S
H1748 C1740 0.930 . S
H1749 C1741 0.929 . S
H1750 C1758 0.929 . S
H1751 C1760 0.930 . S
H1752 C1762 0.930 . S
H1753 C1765 0.929 . S
H1754 C1768 0.930 . S
H1755 C1770 0.960 . S
H1756 C1770 0.960 . S
H1757 C1770 0.960 . S
C1758 H1750 0.929 . S
C1758 C1759 1.377 . S
C1758 C1760 1.384 . S
C1759 C1758 1.377 . S
C1759 C1765 1.390 . S
C1760 H1751 0.930 . S
C1760 C1758 1.384 . S
C1760 C1761 1.372 . S
C1761 C1760 1.372 . S
C1761 C1762 1.400 . S
C1761 C1766 1.490 . S
C1762 H1752 0.930 . S
C1762 C1761 1.400 . S
C1762 C1765 1.386 . S
H1763 C1779 0.930 . S
H1764 C1780 0.931 . S
C1765 H1753 0.929 . S
C1765 C1759 1.390 . S
C1765 C1762 1.386 . S
C1766 C1761 1.490 . S
C1766 C1768 1.395 . S
C1766 C1769 1.403 . S
H1767 C1773 0.930 . S
C1768 H1754 0.930 . S
C1768 C1766 1.395 . S
C1768 C1771 1.403 . S
C1769 C1766 1.403 . S
C1769 C1770 1.524 . S
C1769 C1773 1.400 . S
C1770 H1755 0.960 . S
C1770 H1756 0.960 . S
C1770 H1757 0.960 . S
C1770 C1769 1.524 . S
C1771 C1768 1.403 . S
C1771 C1772 1.392 . S
C1771 C1775 1.495 . S
C1772 C1771 1.392 . S
C1772 C1773 1.385 . S
C1772 C1774 1.478 . S
C1773 H1767 0.930 . S
C1773 C1769 1.400 . S
C1773 C1772 1.385 . S
C1774 C1772 1.478 . S
C1774 C1776 1.381 . S
C1774 C1780 1.383 . S
C1775 C1771 1.495 . S
C1775 H1781 0.959 . S
C1775 H1782 0.961 . S
C1775 H1783 0.960 . S
C1776 C1774 1.381 . S
C1776 C1777 1.394 . S
C1776 H1784 0.930 . S
C1777 C1776 1.394 . S
C1777 C1778 1.383 . S
C1777 H1785 0.929 . S
C1778 C1777 1.383 . S
C1778 C1779 1.377 . S
C1779 H1763 0.930 . S
C1779 C1778 1.377 . S
C1779 C1780 1.379 . S
C1780 H1764 0.931 . S
C1780 C1774 1.383 . S
C1780 C1779 1.379 . S
H1781 C1775 0.959 . S
H1782 C1775 0.961 . S
H1783 C1775 0.960 . S
H1784 C1776 0.930 . S
H1785 C1777 0.929 . S
H1786 C1794 0.929 . S
H1787 C1796 0.930 . S
H1788 C1798 0.930 . S
H1789 C1801 0.929 . S
H1790 C1804 0.930 . S
H1791 C1806 0.960 . S
H1792 C1806 0.960 . S
H1793 C1806 0.960 . S
C1794 H1786 0.929 . S
C1794 C1795 1.377 . S
C1794 C1796 1.384 . S
C1795 C1794 1.377 . S
C1795 C1801 1.390 . S
C1796 H1787 0.930 . S
C1796 C1794 1.384 . S
C1796 C1797 1.372 . S
C1797 C1796 1.372 . S
C1797 C1798 1.400 . S
C1797 C1802 1.490 . S
C1798 H1788 0.930 . S
C1798 C1797 1.400 . S
C1798 C1801 1.386 . S
H1799 C1815 0.930 . S
H1800 C1816 0.931 . S
C1801 H1789 0.929 . S
C1801 C1795 1.390 . S
C1801 C1798 1.386 . S
C1802 C1797 1.490 . S
C1802 C1804 1.395 . S
C1802 C1805 1.403 . S
H1803 C1809 0.930 . S
C1804 H1790 0.930 . S
C1804 C1802 1.395 . S
C1804 C1807 1.403 . S
C1805 C1802 1.403 . S
C1805 C1806 1.524 . S
C1805 C1809 1.400 . S
C1806 H1791 0.960 . S
C1806 H1792 0.960 . S
C1806 H1793 0.960 . S
C1806 C1805 1.524 . S
C1807 C1804 1.403 . S
C1807 C1808 1.392 . S
C1807 C1811 1.495 . S
C1808 C1807 1.392 . S
C1808 C1809 1.385 . S
C1808 C1810 1.478 . S
C1809 H1803 0.930 . S
C1809 C1805 1.400 . S
C1809 C1808 1.385 . S
C1810 C1808 1.478 . S
C1810 C1812 1.381 . S
C1810 C1816 1.383 . S
C1811 C1807 1.495 . S
C1811 H1817 0.959 . S
C1811 H1818 0.961 . S
C1811 H1819 0.960 . S
C1812 C1810 1.381 . S
C1812 C1813 1.394 . S
C1812 H1820 0.930 . S
C1813 C1812 1.394 . S
C1813 C1814 1.383 . S
C1813 H1821 0.929 . S
C1814 C1813 1.383 . S
C1814 C1815 1.377 . S
C1815 H1799 0.930 . S
C1815 C1814 1.377 . S
C1815 C1816 1.379 . S
C1816 H1800 0.931 . S
C1816 C1810 1.383 . S
C1816 C1815 1.379 . S
H1817 C1811 0.959 . S
H1818 C1811 0.961 . S
H1819 C1811 0.960 . S
H1820 C1812 0.930 . S
H1821 C1813 0.929 . S
H1822 C1830 0.929 . S
H1823 C1832 0.930 . S
H1824 C1834 0.930 . S
H1825 C1837 0.929 . S
H1826 C1840 0.930 . S
H1827 C1842 0.960 . S
H1828 C1842 0.960 . S
H1829 C1842 0.960 . S
C1830 H1822 0.929 . S
C1830 C1831 1.377 . S
C1830 C1832 1.384 . S
C1831 C1830 1.377 . S
C1831 C1837 1.390 . S
C1832 H1823 0.930 . S
C1832 C1830 1.384 . S
C1832 C1833 1.372 . S
C1833 C1832 1.372 . S
C1833 C1834 1.400 . S
C1833 C1838 1.490 . S
C1834 H1824 0.930 . S
C1834 C1833 1.400 . S
C1834 C1837 1.386 . S
H1835 C1851 0.930 . S
H1836 C1852 0.931 . S
C1837 H1825 0.929 . S
C1837 C1831 1.390 . S
C1837 C1834 1.386 . S
C1838 C1833 1.490 . S
C1838 C1840 1.395 . S
C1838 C1841 1.403 . S
H1839 C1845 0.930 . S
C1840 H1826 0.930 . S
C1840 C1838 1.395 . S
C1840 C1843 1.403 . S
C1841 C1838 1.403 . S
C1841 C1842 1.524 . S
C1841 C1845 1.400 . S
C1842 H1827 0.960 . S
C1842 H1828 0.960 . S
C1842 H1829 0.960 . S
C1842 C1841 1.524 . S
C1843 C1840 1.403 . S
C1843 C1844 1.392 . S
C1843 C1847 1.495 . S
C1844 C1843 1.392 . S
C1844 C1845 1.385 . S
C1844 C1846 1.478 . S
C1845 H1839 0.930 . S
C1845 C1841 1.400 . S
C1845 C1844 1.385 . S
C1846 C1844 1.478 . S
C1846 C1848 1.381 . S
C1846 C1852 1.383 . S
C1847 C1843 1.495 . S
C1847 H1853 0.959 . S
C1847 H1854 0.961 . S
C1847 H1855 0.960 . S
C1848 C1846 1.381 . S
C1848 C1849 1.394 . S
C1848 H1856 0.930 . S
C1849 C1848 1.394 . S
C1849 C1850 1.383 . S
C1849 H1857 0.929 . S
C1850 C1849 1.383 . S
C1850 C1851 1.377 . S
C1851 H1835 0.930 . S
C1851 C1850 1.377 . S
C1851 C1852 1.379 . S
C1852 H1836 0.931 . S
C1852 C1846 1.383 . S
C1852 C1851 1.379 . S
H1853 C1847 0.959 . S
H1854 C1847 0.961 . S
H1855 C1847 0.960 . S
H1856 C1848 0.930 . S
H1857 C1849 0.929 . S
H1858 C1866 0.929 . S
H1859 C1868 0.930 . S
H1860 C1870 0.930 . S
H1861 C1873 0.929 . S
H1862 C1876 0.930 . S
H1863 C1878 0.960 . S
H1864 C1878 0.960 . S
H1865 C1878 0.960 . S
C1866 H1858 0.929 . S
C1866 C1867 1.377 . S
C1866 C1868 1.384 . S
C1867 C1866 1.377 . S
C1867 C1873 1.390 . S
C1868 H1859 0.930 . S
C1868 C1866 1.384 . S
C1868 C1869 1.372 . S
C1869 C1868 1.372 . S
C1869 C1870 1.400 . S
C1869 C1874 1.490 . S
C1870 H1860 0.930 . S
C1870 C1869 1.400 . S
C1870 C1873 1.386 . S
H1871 C1887 0.930 . S
H1872 C1888 0.931 . S
C1873 H1861 0.929 . S
C1873 C1867 1.390 . S
C1873 C1870 1.386 . S
C1874 C1869 1.490 . S
C1874 C1876 1.395 . S
C1874 C1877 1.403 . S
H1875 C1881 0.930 . S
C1876 H1862 0.930 . S
C1876 C1874 1.395 . S
C1876 C1879 1.403 . S
C1877 C1874 1.403 . S
C1877 C1878 1.524 . S
C1877 C1881 1.400 . S
C1878 H1863 0.960 . S
C1878 H1864 0.960 . S
C1878 H1865 0.960 . S
C1878 C1877 1.524 . S
C1879 C1876 1.403 . S
C1879 C1880 1.392 . S
C1879 C1883 1.495 . S
C1880 C1879 1.392 . S
C1880 C1881 1.385 . S
C1880 C1882 1.478 . S
C1881 H1875 0.930 . S
C1881 C1877 1.400 . S
C1881 C1880 1.385 . S
C1882 C1880 1.478 . S
C1882 C1884 1.381 . S
C1882 C1888 1.383 . S
C1883 C1879 1.495 . S
C1883 H1889 0.959 . S
C1883 H1890 0.961 . S
C1883 H1891 0.960 . S
C1884 C1882 1.381 . S
C1884 C1885 1.394 . S
C1884 H1892 0.930 . S
C1885 C1884 1.394 . S
C1885 C1886 1.383 . S
C1885 H1893 0.929 . S
C1886 C1885 1.383 . S
C1886 C1887 1.377 . S
C1887 H1871 0.930 . S
C1887 C1886 1.377 . S
C1887 C1888 1.379 . S
C1888 H1872 0.931 . S
C1888 C1882 1.383 . S
C1888 C1887 1.379 . S
H1889 C1883 0.959 . S
H1890 C1883 0.961 . S
H1891 C1883 0.960 . S
H1892 C1884 0.930 . S
H1893 C1885 0.929 . S
H1894 C1902 0.929 . S
H1895 C1904 0.930 . S
H1896 C1906 0.930 . S
H1897 C1909 0.929 . S
H1898 C1912 0.930 . S
H1899 C1914 0.960 . S
H1900 C1914 0.960 . S
H1901 C1914 0.960 . S
C1902 H1894 0.929 . S
C1902 C1903 1.377 . S
C1902 C1904 1.384 . S
C1903 C1902 1.377 . S
C1903 C1909 1.390 . S
C1904 H1895 0.930 . S
C1904 C1902 1.384 . S
C1904 C1905 1.372 . S
C1905 C1904 1.372 . S
C1905 C1906 1.400 . S
C1905 C1910 1.490 . S
C1906 H1896 0.930 . S
C1906 C1905 1.400 . S
C1906 C1909 1.386 . S
H1907 C1923 0.930 . S
H1908 C1924 0.931 . S
C1909 H1897 0.929 . S
C1909 C1903 1.390 . S
C1909 C1906 1.386 . S
C1910 C1905 1.490 . S
C1910 C1912 1.395 . S
C1910 C1913 1.403 . S
H1911 C1917 0.930 . S
C1912 H1898 0.930 . S
C1912 C1910 1.395 . S
C1912 C1915 1.403 . S
C1913 C1910 1.403 . S
C1913 C1914 1.524 . S
C1913 C1917 1.400 . S
C1914 H1899 0.960 . S
C1914 H1900 0.960 . S
C1914 H1901 0.960 . S
C1914 C1913 1.524 . S
C1915 C1912 1.403 . S
C1915 C1916 1.392 . S
C1915 C1919 1.495 . S
C1916 C1915 1.392 . S
C1916 C1917 1.385 . S
C1916 C1918 1.478 . S
C1917 H1911 0.930 . S
C1917 C1913 1.400 . S
C1917 C1916 1.385 . S
C1918 C1916 1.478 . S
C1918 C1920 1.381 . S
C1918 C1924 1.383 . S
C1919 C1915 1.495 . S
C1919 H1925 0.959 . S
C1919 H1926 0.961 . S
C1919 H1927 0.960 . S
C1920 C1918 1.381 . S
C1920 C1921 1.394 . S
C1920 H1928 0.930 . S
C1921 C1920 1.394 . S
C1921 C1922 1.383 . S
C1921 H1929 0.929 . S
C1922 C1921 1.383 . S
C1922 C1923 1.377 . S
C1923 H1907 0.930 . S
C1923 C1922 1.377 . S
C1923 C1924 1.379 . S
C1924 H1908 0.931 . S
C1924 C1918 1.383 . S
C1924 C1923 1.379 . S
H1925 C1919 0.959 . S
H1926 C1919 0.961 . S
H1927 C1919 0.960 . S
H1928 C1920 0.930 . S
H1929 C1921 0.929 . S
H1930 C1938 0.929 . S
H1931 C1940 0.930 . S
H1932 C1942 0.930 . S
H1933 C1945 0.929 . S
H1934 C1948 0.930 . S
H1935 C1950 0.960 . S
H1936 C1950 0.960 . S
H1937 C1950 0.960 . S
C1938 H1930 0.929 . S
C1938 C1939 1.377 . S
C1938 C1940 1.384 . S
C1939 C1938 1.377 . S
C1939 C1945 1.390 . S
C1940 H1931 0.930 . S
C1940 C1938 1.384 . S
C1940 C1941 1.372 . S
C1941 C1940 1.372 . S
C1941 C1942 1.400 . S
C1941 C1946 1.490 . S
C1942 H1932 0.930 . S
C1942 C1941 1.400 . S
C1942 C1945 1.386 . S
H1943 C1959 0.930 . S
H1944 C1960 0.931 . S
C1945 H1933 0.929 . S
C1945 C1939 1.390 . S
C1945 C1942 1.386 . S
C1946 C1941 1.490 . S
C1946 C1948 1.395 . S
C1946 C1949 1.403 . S
H1947 C1953 0.930 . S
C1948 H1934 0.930 . S
C1948 C1946 1.395 . S
C1948 C1951 1.403 . S
C1949 C1946 1.403 . S
C1949 C1950 1.524 . S
C1949 C1953 1.400 . S
C1950 H1935 0.960 . S
C1950 H1936 0.960 . S
C1950 H1937 0.960 . S
C1950 C1949 1.524 . S
C1951 C1948 1.403 . S
C1951 C1952 1.392 . S
C1951 C1955 1.495 . S
C1952 C1951 1.392 . S
C1952 C1953 1.385 . S
C1952 C1954 1.478 . S
C1953 H1947 0.930 . S
C1953 C1949 1.400 . S
C1953 C1952 1.385 . S
C1954 C1952 1.478 . S
C1954 C1956 1.381 . S
C1954 C1960 1.383 . S
C1955 C1951 1.495 . S
C1955 H1961 0.959 . S
C1955 H1962 0.961 . S
C1955 H1963 0.960 . S
C1956 C1954 1.381 . S
C1956 C1957 1.394 . S
C1956 H1964 0.930 . S
C1957 C1956 1.394 . S
C1957 C1958 1.383 . S
C1957 H1965 0.929 . S
C1958 C1957 1.383 . S
C1958 C1959 1.377 . S
C1959 H1943 0.930 . S
C1959 C1958 1.377 . S
C1959 C1960 1.379 . S
C1960 H1944 0.931 . S
C1960 C1954 1.383 . S
C1960 C1959 1.379 . S
H1961 C1955 0.959 . S
H1962 C1955 0.961 . S
H1963 C1955 0.960 . S
H1964 C1956 0.930 . S
H1965 C1957 0.929 . S
H1966 C1974 0.929 . S
H1967 C1976 0.930 . S
H1968 C1978 0.930 . S
H1969 C1981 0.929 . S
H1970 C1984 0.930 . S
H1971 C1986 0.960 . S
H1972 C1986 0.960 . S
H1973 C1986 0.960 . S
C1974 H1966 0.929 . S
C1974 C1975 1.377 . S
C1974 C1976 1.384 . S
C1975 C1974 1.377 . S
C1975 C1981 1.390 . S
C1976 H1967 0.930 . S
C1976 C1974 1.384 . S
C1976 C1977 1.372 . S
C1977 C1976 1.372 . S
C1977 C1978 1.400 . S
C1977 C1982 1.490 . S
C1978 H1968 0.930 . S
C1978 C1977 1.400 . S
C1978 C1981 1.386 . S
H1979 C1995 0.930 . S
H1980 C1996 0.931 . S
C1981 H1969 0.929 . S
C1981 C1975 1.390 . S
C1981 C1978 1.386 . S
C1982 C1977 1.490 . S
C1982 C1984 1.395 . S
C1982 C1985 1.403 . S
H1983 C1989 0.930 . S
C1984 H1970 0.930 . S
C1984 C1982 1.395 . S
C1984 C1987 1.403 . S
C1985 C1982 1.403 . S
C1985 C1986 1.524 . S
C1985 C1989 1.400 . S
C1986 H1971 0.960 . S
C1986 H1972 0.960 . S
C1986 H1973 0.960 . S
C1986 C1985 1.524 . S
C1987 C1984 1.403 . S
C1987 C1988 1.392 . S
C1987 C1991 1.495 . S
C1988 C1987 1.392 . S
C1988 C1989 1.385 . S
C1988 C1990 1.478 . S
C1989 H1983 0.930 . S
C1989 C1985 1.400 . S
C1989 C1988 1.385 . S
C1990 C1988 1.478 . S
C1990 C1992 1.381 . S
C1990 C1996 1.383 . S
C1991 C1987 1.495 . S
C1991 H1997 0.959 . S
C1991 H1998 0.961 . S
C1991 H1999 0.960 . S
C1992 C1990 1.381 . S
C1992 C1993 1.394 . S
C1992 H2000 0.930 . S
C1993 C1992 1.394 . S
C1993 C1994 1.383 . S
C1993 H2001 0.929 . S
C1994 C1993 1.383 . S
C1994 C1995 1.377 . S
C1995 H1979 0.930 . S
C1995 C1994 1.377 . S
C1995 C1996 1.379 . S
C1996 H1980 0.931 . S
C1996 C1990 1.383 . S
C1996 C1995 1.379 . S
H1997 C1991 0.959 . S
H1998 C1991 0.961 . S
H1999 C1991 0.960 . S
H2000 C1992 0.930 . S
H2001 C1993 0.929 . S
H2002 C2010 0.929 . S
H2003 C2012 0.930 . S
H2004 C2014 0.930 . S
H2005 C2017 0.929 . S
H2006 C2020 0.930 . S
H2007 C2022 0.960 . S
H2008 C2022 0.960 . S
H2009 C2022 0.960 . S
C2010 H2002 0.929 . S
C2010 C2011 1.377 . S
C2010 C2012 1.384 . S
C2011 C2010 1.377 . S
C2011 C2017 1.390 . S
C2012 H2003 0.930 . S
C2012 C2010 1.384 . S
C2012 C2013 1.372 . S
C2013 C2012 1.372 . S
C2013 C2014 1.400 . S
C2013 C2018 1.490 . S
C2014 H2004 0.930 . S
C2014 C2013 1.400 . S
C2014 C2017 1.386 . S
H2015 C2031 0.930 . S
H2016 C2032 0.931 . S
C2017 H2005 0.929 . S
C2017 C2011 1.390 . S
C2017 C2014 1.386 . S
C2018 C2013 1.490 . S
C2018 C2020 1.395 . S
C2018 C2021 1.403 . S
H2019 C2025 0.930 . S
C2020 H2006 0.930 . S
C2020 C2018 1.395 . S
C2020 C2023 1.403 . S
C2021 C2018 1.403 . S
C2021 C2022 1.524 . S
C2021 C2025 1.400 . S
C2022 H2007 0.960 . S
C2022 H2008 0.960 . S
C2022 H2009 0.960 . S
C2022 C2021 1.524 . S
C2023 C2020 1.403 . S
C2023 C2024 1.392 . S
C2023 C2027 1.495 . S
C2024 C2023 1.392 . S
C2024 C2025 1.385 . S
C2024 C2026 1.478 . S
C2025 H2019 0.930 . S
C2025 C2021 1.400 . S
C2025 C2024 1.385 . S
C2026 C2024 1.478 . S
C2026 C2028 1.381 . S
C2026 C2032 1.383 . S
C2027 C2023 1.495 . S
C2027 H2033 0.959 . S
C2027 H2034 0.961 . S
C2027 H2035 0.960 . S
C2028 C2026 1.381 . S
C2028 C2029 1.394 . S
C2028 H2036 0.930 . S
C2029 C2028 1.394 . S
C2029 C2030 1.383 . S
C2029 H2037 0.929 . S
C2030 C2029 1.383 . S
C2030 C2031 1.377 . S
C2031 H2015 0.930 . S
C2031 C2030 1.377 . S
C2031 C2032 1.379 . S
C2032 H2016 0.931 . S
C2032 C2026 1.383 . S
C2032 C2031 1.379 . S
H2033 C2027 0.959 . S
H2034 C2027 0.961 . S
H2035 C2027 0.960 . S
H2036 C2028 0.930 . S
H2037 C2029 0.929 . S
H2038 C2046 0.929 . S
H2039 C2048 0.930 . S
H2040 C2050 0.930 . S
H2041 C2053 0.929 . S
H2042 C2056 0.930 . S
H2043 C2058 0.960 . S
H2044 C2058 0.960 . S
H2045 C2058 0.960 . S
C2046 H2038 0.929 . S
C2046 C2047 1.377 . S
C2046 C2048 1.384 . S
C2047 C2046 1.377 . S
C2047 C2053 1.390 . S
C2048 H2039 0.930 . S
C2048 C2046 1.384 . S
C2048 C2049 1.372 . S
C2049 C2048 1.372 . S
C2049 C2050 1.400 . S
C2049 C2054 1.490 . S
C2050 H2040 0.930 . S
C2050 C2049 1.400 . S
C2050 C2053 1.386 . S
H2051 C2067 0.930 . S
H2052 C2068 0.931 . S
C2053 H2041 0.929 . S
C2053 C2047 1.390 . S
C2053 C2050 1.386 . S
C2054 C2049 1.490 . S
C2054 C2056 1.395 . S
C2054 C2057 1.403 . S
H2055 C2061 0.930 . S
C2056 H2042 0.930 . S
C2056 C2054 1.395 . S
C2056 C2059 1.403 . S
C2057 C2054 1.403 . S
C2057 C2058 1.524 . S
C2057 C2061 1.400 . S
C2058 H2043 0.960 . S
C2058 H2044 0.960 . S
C2058 H2045 0.960 . S
C2058 C2057 1.524 . S
C2059 C2056 1.403 . S
C2059 C2060 1.392 . S
C2059 C2063 1.495 . S
C2060 C2059 1.392 . S
C2060 C2061 1.385 . S
C2060 C2062 1.478 . S
C2061 H2055 0.930 . S
C2061 C2057 1.400 . S
C2061 C2060 1.385 . S
C2062 C2060 1.478 . S
C2062 C2064 1.381 . S
C2062 C2068 1.383 . S
C2063 C2059 1.495 . S
C2063 H2069 0.959 . S
C2063 H2070 0.961 . S
C2063 H2071 0.960 . S
C2064 C2062 1.381 . S
C2064 C2065 1.394 . S
C2064 H2072 0.930 . S
C2065 C2064 1.394 . S
C2065 C2066 1.383 . S
C2065 H2073 0.929 . S
C2066 C2065 1.383 . S
C2066 C2067 1.377 . S
C2067 H2051 0.930 . S
C2067 C2066 1.377 . S
C2067 C2068 1.379 . S
C2068 H2052 0.931 . S
C2068 C2062 1.383 . S
C2068 C2067 1.379 . S
H2069 C2063 0.959 . S
H2070 C2063 0.961 . S
H2071 C2063 0.960 . S
H2072 C2064 0.930 . S
H2073 C2065 0.929 . S
C374 C171 1.655 . S
C355 C9 1.705 . S
C410 C161 2.116 . S
C391 C28 2.091 . S
C446 C162 0.646 . S
C427 C49 0.664 . S
C463 C79 2.040 . S
C482 C184 2.062 . S
C499 C99 2.090 . S
C518 C187 2.105 . S
C554 C170 0.718 . S
C535 C101 0.665 . S
C571 C128 2.039 . S
C590 C160 2.070 . S
C607 C141 1.703 . S
C626 C178 1.668 . S
C662 C191 1.358 . S
C643 C16 1.314 . S
C679 C26 1.020 . S
C698 C240 1.040 . S
C734 C218 1.414 . S
C715 C56 1.369 . S
C770 C232 0.606 . S
C751 C69 0.637 . S
C787 C89 0.641 . S
C806 C193 0.706 . S
C842 C246 2.061 . S
C823 C108 2.044 . S
C859 C126 1.022 . S
C878 C202 1.011 . S
C895 C148 2.114 . S
C914 C223 2.150 . S
C931 C19 2.113 . S
C950 C249 2.131 . S
C967 C96 1.015 . S
C986 C233 1.046 . S
C1022 C192 1.418 . S
C1003 C106 1.379 . S
C1058 C224 0.726 . S
C1039 C121 0.645 . S
C1075 C146 1.328 . S
C1094 C215 1.368 . S
C1111 C59 2.045 . S
C1130 C222 2.052 . S
C1166 C209 1.050 . S
C1147 C76 1.010 . S
C1183 C21 0.641 . S
C1202 C201 0.593 . S
C1219 C149 1.707 . S
C1238 C264 1.658 . S
C1255 C88 2.085 . S
C1274 C254 2.106 . S
C1310 C255 0.671 . S
C1291 C109 0.669 . S
C1346 C277 2.045 . S
C1327 C139 2.034 . S
C1363 C39 2.086 . S
C1382 C280 2.104 . S
C1418 C263 0.723 . S
C1399 C41 0.663 . S
C1435 C68 2.033 . S
C1454 C253 2.056 . S
C1471 C1 1.708 . S
C1490 C271 1.697 . S
C1507 C156 1.330 . S
C1526 C284 1.349 . S
C1562 C333 1.012 . S
C1543 C86 1.015 . S
C1579 C116 1.378 . S
C1598 C311 1.386 . S
C1615 C129 0.639 . S
C1634 C325 0.598 . S
C1670 C286 0.722 . S
C1651 C29 0.647 . S
C1687 C48 2.051 . S
C1706 C339 2.063 . S
C1742 C295 1.023 . S
C1723 C66 1.023 . S
C1778 C316 2.140 . S
C1759 C8 2.113 . S
C1814 C342 2.150 . S
C1795 C159 2.110 . S
C1831 C36 1.026 . S
C1850 C326 0.991 . S
C1867 C46 1.372 . S
C1886 C285 1.429 . S
C1922 C317 0.726 . S
C1903 C61 0.645 . S
C1939 C6 1.322 . S
C1958 C308 1.378 . S
C1975 C119 2.047 . S
C1994 C315 2.076 . S
C2030 C302 1.023 . S
C2011 C136 1.017 . S
C2066 C294 0.651 . S
C2047 C81 0.649 . S
