# Generated by pormake.
# Topology ocu, (6,8)-cn, num edge types: 1
# Building blocks:
#     Node 0, Type 0, BuildingBlock: KUMJIN_clean_sbu_0, # of connection points: 6
#     Node 1, Type 0, BuildingBlock: KUMJIN_clean_sbu_0, # of connection points: 6
#     Node 2, Type 0, BuildingBlock: KUMJIN_clean_sbu_0, # of connection points: 6
#     Node 3, Type 0, BuildingBlock: KUMJIN_clean_sbu_0, # of connection points: 6
#     Node 4, Type 0, BuildingBlock: KUMJIN_clean_sbu_0, # of connection points: 6
#     Node 5, Type 0, BuildingBlock: KUMJIN_clean_sbu_0, # of connection points: 6
#     Node 6, Type 0, BuildingBlock: KUMJIN_clean_sbu_0, # of connection points: 6
#     Node 7, Type 0, BuildingBlock: KUMJIN_clean_sbu_0, # of connection points: 6
#     Node 8, Type 1, BuildingBlock: VETTIZ_charged_sbu_0, # of connection points: 8
#     Node 9, Type 1, BuildingBlock: VETTIZ_charged_sbu_0, # of connection points: 8
#     Node 10, Type 1, BuildingBlock: VETTIZ_charged_sbu_0, # of connection points: 8
#     Node 11, Type 1, BuildingBlock: VETTIZ_charged_sbu_0, # of connection points: 8
#     Node 12, Type 1, BuildingBlock: VETTIZ_charged_sbu_0, # of connection points: 8
#     Node 13, Type 1, BuildingBlock: VETTIZ_charged_sbu_0, # of connection points: 8
#     Edge 14, Type (0, 1), BuildingBlock: ZUJKAS_clean_linker_0, # of connection points: 2
#     Edge 15, Type (0, 1), BuildingBlock: ZUJKAS_clean_linker_0, # of connection points: 2
#     Edge 16, Type (0, 1), BuildingBlock: ZUJKAS_clean_linker_0, # of connection points: 2
#     Edge 17, Type (0, 1), BuildingBlock: ZUJKAS_clean_linker_0, # of connection points: 2
#     Edge 18, Type (0, 1), BuildingBlock: ZUJKAS_clean_linker_0, # of connection points: 2
#     Edge 19, Type (0, 1), BuildingBlock: ZUJKAS_clean_linker_0, # of connection points: 2
#     Edge 20, Type (0, 1), BuildingBlock: ZUJKAS_clean_linker_0, # of connection points: 2
#     Edge 21, Type (0, 1), BuildingBlock: ZUJKAS_clean_linker_0, # of connection points: 2
#     Edge 22, Type (0, 1), BuildingBlock: ZUJKAS_clean_linker_0, # of connection points: 2
#     Edge 23, Type (0, 1), BuildingBlock: ZUJKAS_clean_linker_0, # of connection points: 2
#     Edge 24, Type (0, 1), BuildingBlock: ZUJKAS_clean_linker_0, # of connection points: 2
#     Edge 25, Type (0, 1), BuildingBlock: ZUJKAS_clean_linker_0, # of connection points: 2
#     Edge 26, Type (0, 1), BuildingBlock: ZUJKAS_clean_linker_0, # of connection points: 2
#     Edge 27, Type (0, 1), BuildingBlock: ZUJKAS_clean_linker_0, # of connection points: 2
#     Edge 28, Type (0, 1), BuildingBlock: ZUJKAS_clean_linker_0, # of connection points: 2
#     Edge 29, Type (0, 1), BuildingBlock: ZUJKAS_clean_linker_0, # of connection points: 2
#     Edge 30, Type (0, 1), BuildingBlock: ZUJKAS_clean_linker_0, # of connection points: 2
#     Edge 31, Type (0, 1), BuildingBlock: ZUJKAS_clean_linker_0, # of connection points: 2
#     Edge 32, Type (0, 1), BuildingBlock: ZUJKAS_clean_linker_0, # of connection points: 2
#     Edge 33, Type (0, 1), BuildingBlock: ZUJKAS_clean_linker_0, # of connection points: 2
#     Edge 34, Type (0, 1), BuildingBlock: ZUJKAS_clean_linker_0, # of connection points: 2
#     Edge 35, Type (0, 1), BuildingBlock: ZUJKAS_clean_linker_0, # of connection points: 2
#     Edge 36, Type (0, 1), BuildingBlock: ZUJKAS_clean_linker_0, # of connection points: 2
#     Edge 37, Type (0, 1), BuildingBlock: ZUJKAS_clean_linker_0, # of connection points: 2
#     Edge 38, Type (0, 1), BuildingBlock: ZUJKAS_clean_linker_0, # of connection points: 2
#     Edge 39, Type (0, 1), BuildingBlock: ZUJKAS_clean_linker_0, # of connection points: 2
#     Edge 40, Type (0, 1), BuildingBlock: ZUJKAS_clean_linker_0, # of connection points: 2
#     Edge 41, Type (0, 1), BuildingBlock: ZUJKAS_clean_linker_0, # of connection points: 2
#     Edge 42, Type (0, 1), BuildingBlock: ZUJKAS_clean_linker_0, # of connection points: 2
#     Edge 43, Type (0, 1), BuildingBlock: ZUJKAS_clean_linker_0, # of connection points: 2
#     Edge 44, Type (0, 1), BuildingBlock: ZUJKAS_clean_linker_0, # of connection points: 2
#     Edge 45, Type (0, 1), BuildingBlock: ZUJKAS_clean_linker_0, # of connection points: 2
#     Edge 46, Type (0, 1), BuildingBlock: ZUJKAS_clean_linker_0, # of connection points: 2
#     Edge 47, Type (0, 1), BuildingBlock: ZUJKAS_clean_linker_0, # of connection points: 2
#     Edge 48, Type (0, 1), BuildingBlock: ZUJKAS_clean_linker_0, # of connection points: 2
#     Edge 49, Type (0, 1), BuildingBlock: ZUJKAS_clean_linker_0, # of connection points: 2
#     Edge 50, Type (0, 1), BuildingBlock: ZUJKAS_clean_linker_0, # of connection points: 2
#     Edge 51, Type (0, 1), BuildingBlock: ZUJKAS_clean_linker_0, # of connection points: 2
#     Edge 52, Type (0, 1), BuildingBlock: ZUJKAS_clean_linker_0, # of connection points: 2
#     Edge 53, Type (0, 1), BuildingBlock: ZUJKAS_clean_linker_0, # of connection points: 2
#     Edge 54, Type (0, 1), BuildingBlock: ZUJKAS_clean_linker_0, # of connection points: 2
#     Edge 55, Type (0, 1), BuildingBlock: ZUJKAS_clean_linker_0, # of connection points: 2
#     Edge 56, Type (0, 1), BuildingBlock: ZUJKAS_clean_linker_0, # of connection points: 2
#     Edge 57, Type (0, 1), BuildingBlock: ZUJKAS_clean_linker_0, # of connection points: 2
#     Edge 58, Type (0, 1), BuildingBlock: ZUJKAS_clean_linker_0, # of connection points: 2
#     Edge 59, Type (0, 1), BuildingBlock: ZUJKAS_clean_linker_0, # of connection points: 2
#     Edge 60, Type (0, 1), BuildingBlock: ZUJKAS_clean_linker_0, # of connection points: 2
#     Edge 61, Type (0, 1), BuildingBlock: ZUJKAS_clean_linker_0, # of connection points: 2
# Relax obj value: 0.105
# Max RMSD: 0.249
# Mean RMSD: 0.161
data_MOF--net-ocu--node1-KUMJIN_clean_sbu_0--node2-VETTIZ_charged_sbu_0--edge1-ZUJKAS_clean_linker_0
_symmetry_space_group_name_H-M    P1
_symmetry_Int_Tables_number       1
_symmetry_cell_setting            triclinic
loop_
_symmetry_equiv_pos_as_xyz
'x, y, z'
_cell_length_a     48.242551
_cell_length_b     49.105484
_cell_length_c     52.356797
_cell_angle_alpha  80.423404
_cell_angle_beta   98.047625
_cell_angle_gamma 101.69551
loop_
_atom_site_label
_atom_site_type_symbol
_atom_site_fract_x
_atom_site_fract_y
_atom_site_fract_z
_atom_type_partial_charge
Eu0 Eu 0.26143 0.22927 0.23373 0.0
C1 C 0.34757 0.29517 0.31167 0.0
C2 C 0.35484 0.25899 0.34801 0.0
C3 C 0.39313 0.29851 0.33866 0.0
C4 C 0.33763 0.26993 0.32622 0.0
C5 C 0.37506 0.31033 0.3183 0.0
C6 C 0.38301 0.27284 0.35354 0.0
C7 C 0.36291 0.34955 0.28734 0.0
N8 N 0.32917 0.30635 0.29287 0.0
C9 C 0.33574 0.33378 0.28186 0.0
C10 C 0.38289 0.33756 0.30527 0.0
Eu11 Eu 0.28405 0.27811 0.28295 0.0
N12 N 0.31015 0.25754 0.32063 0.0
C13 C 0.29772 0.2357 0.33758 0.0
C14 C 0.34275 0.23534 0.36436 0.0
C15 C 0.3139 0.224 0.3594 0.0
H16 H 0.32014 0.34317 0.26825 0.0
H17 H 0.30409 0.2062 0.37233 0.0
H18 H 0.39669 0.26452 0.36994 0.0
H19 H 0.36832 0.37097 0.27788 0.0
H20 H 0.27548 0.22662 0.33403 0.0
H21 H 0.24119 0.2935 0.13937 0.0
H22 H 0.35521 0.22639 0.38135 0.0
H23 H 0.22493 0.16617 0.25561 0.0
H24 H 0.26932 0.27791 0.17971 0.0
H25 H 0.1777 0.13661 0.24683 0.0
H26 H 0.41446 0.30963 0.34382 0.0
H27 H 0.19118 0.27006 0.12979 0.0
H28 H 0.15078 0.23141 0.14248 0.0
H29 H 0.4038 0.34991 0.30977 0.0
H30 H 0.13338 0.18862 0.17185 0.0
N31 N 0.23571 0.24602 0.19397 0.0
C32 C 0.24762 0.26732 0.1762 0.0
C33 C 0.20347 0.26311 0.14778 0.0
C34 C 0.19183 0.24035 0.16528 0.0
C35 C 0.23166 0.27634 0.15308 0.0
C36 C 0.20883 0.23197 0.18833 0.0
H37 H 0.14346 0.15281 0.21054 0.0
N38 N 0.21702 0.19929 0.22538 0.0
C39 C 0.18336 0.15669 0.2349 0.0
C40 C 0.19911 0.20789 0.20466 0.0
C41 C 0.21009 0.17349 0.23981 0.0
C42 C 0.16406 0.16596 0.21446 0.0
C43 C 0.17205 0.19155 0.19868 0.0
O44 O 0.27442 0.19009 0.22974 0.0
O45 O 0.2918 0.23892 0.26966 0.0
O46 O 0.31774 0.28982 0.25481 0.0
O47 O 0.29523 0.26619 0.22003 0.0
O48 O 0.27088 0.19776 0.26878 0.0
O49 O 0.2883 0.22787 0.20381 0.0
O50 O 0.27193 0.31682 0.28963 0.0
O51 O 0.25517 0.26826 0.24704 0.0
O52 O 0.22386 0.22522 0.2567 0.0
O53 O 0.24757 0.24277 0.29431 0.0
O54 O 0.27013 0.31028 0.24948 0.0
O55 O 0.25921 0.27833 0.31485 0.0
C56 C 0.28969 0.21403 0.282 0.0
C57 C 0.28227 0.18492 0.18738 0.0
C58 C 0.29931 0.15995 0.15767 0.0
C59 C 0.30444 0.17481 0.17925 0.0
C60 C 0.27156 0.15523 0.14462 0.0
C61 C 0.25489 0.18001 0.17398 0.0
C62 C 0.2496 0.1652 0.15275 0.0
C63 C 0.31564 0.28475 0.23047 0.0
C64 C 0.28797 0.20097 0.20953 0.0
C65 C 0.15435 0.20072 0.17663 0.0
C66 C 0.16425 0.22508 0.15992 0.0
C67 C 0.25405 0.29287 0.23533 0.0
C68 C 0.26705 0.32042 0.33319 0.0
C69 C 0.24636 0.33177 0.34245 0.0
C70 C 0.25339 0.34612 0.36446 0.0
C71 C 0.28156 0.34906 0.37668 0.0
C72 C 0.29479 0.32347 0.34598 0.0
C73 C 0.30198 0.33777 0.36753 0.0
C74 C 0.22494 0.22926 0.28123 0.0
C75 C 0.25961 0.30526 0.31036 0.0
H76 H 0.32569 0.17891 0.18946 0.0
H77 H 0.26671 0.14351 0.12826 0.0
H78 H 0.23763 0.18764 0.17989 0.0
H79 H 0.22836 0.1614 0.14256 0.0
H80 H 0.22481 0.32905 0.33276 0.0
H81 H 0.28802 0.36043 0.39321 0.0
H82 H 0.3109 0.31481 0.3393 0.0
H83 H 0.32352 0.34018 0.37717 0.0
Eu84 Eu 0.79452 0.24396 0.25595 0.0
C85 C 0.74019 0.32097 0.31017 0.0
C86 C 0.69881 0.29084 0.32743 0.0
C87 C 0.72357 0.33039 0.34908 0.0
C88 C 0.71895 0.29757 0.30918 0.0
C89 C 0.74239 0.33803 0.32983 0.0
C90 C 0.70174 0.30686 0.34783 0.0
C91 C 0.77965 0.37043 0.30852 0.0
N92 N 0.75765 0.32797 0.29098 0.0
C93 C 0.77649 0.35298 0.28935 0.0
C94 C 0.76281 0.36274 0.32907 0.0
Eu95 Eu 0.75215 0.29601 0.26015 0.0
N96 N 0.71654 0.28276 0.28908 0.0
C97 C 0.69302 0.26264 0.28471 0.0
C98 C 0.67555 0.26912 0.32387 0.0
C99 C 0.67234 0.25538 0.30207 0.0
H100 H 0.78946 0.35963 0.2735 0.0
H101 H 0.65387 0.2393 0.29847 0.0
H102 H 0.68669 0.30179 0.36222 0.0
H103 H 0.79501 0.38988 0.30736 0.0
H104 H 0.69007 0.25199 0.26785 0.0
H105 H 0.90081 0.31254 0.27428 0.0
H106 H 0.65941 0.2636 0.33725 0.0
H107 H 0.77194 0.20853 0.20555 0.0
H108 H 0.85078 0.29733 0.27748 0.0
H109 H 0.79049 0.19493 0.16925 0.0
H110 H 0.72512 0.34307 0.36447 0.0
H111 H 0.92418 0.29465 0.24332 0.0
H112 H 0.91957 0.26679 0.20701 0.0
H113 H 0.76519 0.3764 0.34381 0.0
H114 H 0.88939 0.23632 0.17739 0.0
N115 N 0.84424 0.26574 0.25209 0.0
C116 C 0.85999 0.28649 0.26568 0.0
C117 C 0.90189 0.2865 0.24554 0.0
C118 C 0.88559 0.26756 0.22979 0.0
C119 C 0.88885 0.29645 0.26314 0.0
C120 C 0.8565 0.25755 0.23339 0.0
H121 H 0.84135 0.21023 0.16275 0.0
N122 N 0.81141 0.23296 0.21912 0.0
C123 C 0.80453 0.20803 0.18219 0.0
C124 C 0.83951 0.24087 0.21633 0.0
C125 C 0.79404 0.21616 0.20273 0.0
C126 C 0.83322 0.21658 0.17868 0.0
C127 C 0.85113 0.2331 0.19584 0.0
O128 O 0.76533 0.2043 0.25198 0.0
O129 O 0.75522 0.25073 0.27068 0.0
O130 O 0.78535 0.29682 0.29582 0.0
O131 O 0.81442 0.26455 0.29215 0.0
O132 O 0.78333 0.23034 0.29735 0.0
O133 O 0.80933 0.20407 0.26746 0.0
O134 O 0.74983 0.32828 0.22591 0.0
O135 O 0.78442 0.28504 0.2385 0.0
O136 O 0.76349 0.25207 0.21944 0.0
O137 O 0.72773 0.259 0.2404 0.0
O138 O 0.79278 0.32502 0.24861 0.0
O139 O 0.71152 0.30745 0.24227 0.0
C140 C 0.75887 0.23818 0.29383 0.0
C141 C 0.77342 0.16943 0.28713 0.0
C142 C 0.7803 0.15189 0.33354 0.0
C143 C 0.79081 0.16764 0.31088 0.0
C144 C 0.75207 0.13722 0.33221 0.0
C145 C 0.74527 0.15443 0.28601 0.0
C146 C 0.7347 0.13846 0.30848 0.0
C147 C 0.80765 0.28419 0.30388 0.0
C148 C 0.78359 0.18919 0.26441 0.0
C149 C 0.88014 0.24216 0.19293 0.0
C150 C 0.89733 0.25937 0.20986 0.0
C151 C 0.80197 0.30795 0.23712 0.0
C152 C 0.70991 0.31305 0.19655 0.0
C153 C 0.68055 0.30291 0.19236 0.0
C154 C 0.6685 0.29082 0.16986 0.0
C155 C 0.68625 0.28938 0.15121 0.0
C156 C 0.7273 0.31157 0.17753 0.0
C157 C 0.71545 0.29984 0.15502 0.0
C158 C 0.73608 0.25094 0.2204 0.0
C159 C 0.7223 0.32229 0.22188 0.0
H160 H 0.81275 0.17855 0.3118 0.0
H161 H 0.74355 0.12478 0.34943 0.0
H162 H 0.73127 0.15565 0.26794 0.0
H163 H 0.71291 0.12723 0.30753 0.0
H164 H 0.66705 0.3046 0.20671 0.0
H165 H 0.67758 0.28015 0.13371 0.0
H166 H 0.75012 0.31884 0.18027 0.0
H167 H 0.72902 0.29852 0.14064 0.0
Eu168 Eu 0.76074 0.75057 0.28684 0.0
C169 C 0.83836 0.83769 0.21273 0.0
C170 C 0.80693 0.85128 0.17458 0.0
C171 C 0.84881 0.88451 0.18825 0.0
C172 C 0.81392 0.83144 0.19607 0.0
C173 C 0.85656 0.86401 0.20861 0.0
C174 C 0.824 0.87815 0.17125 0.0
C175 C 0.8902 0.84668 0.24303 0.0
N176 N 0.84543 0.81718 0.23181 0.0
C177 C 0.87147 0.82089 0.24627 0.0
C178 C 0.88251 0.86851 0.2244 0.0
Eu179 Eu 0.81203 0.77442 0.23713 0.0
N180 N 0.79833 0.80511 0.19958 0.0
C181 C 0.7773 0.79635 0.18082 0.0
C182 C 0.78382 0.84306 0.15643 0.0
C183 C 0.76933 0.81527 0.15927 0.0
H184 H 0.87753 0.80422 0.26084 0.0
H185 H 0.75197 0.80841 0.14495 0.0
H186 H 0.81879 0.89379 0.15505 0.0
H187 H 0.91048 0.84973 0.25496 0.0
H188 H 0.76595 0.77494 0.18283 0.0
H189 H 0.82036 0.71905 0.38018 0.0
H190 H 0.77769 0.85766 0.13969 0.0
H191 H 0.69612 0.71903 0.26208 0.0
H192 H 0.80723 0.75121 0.34109 0.0
H193 H 0.66367 0.67343 0.26853 0.0
H194 H 0.86234 0.90498 0.18494 0.0
H195 H 0.79378 0.67023 0.38714 0.0
H196 H 0.7528 0.63368 0.3725 0.0
H197 H 0.8971 0.88844 0.22185 0.0
H198 H 0.71001 0.62127 0.3421 0.0
N199 N 0.77404 0.72095 0.32542 0.0
C200 C 0.79535 0.73009 0.34383 0.0
C201 C 0.78791 0.68432 0.36989 0.0
C202 C 0.76491 0.67561 0.35184 0.0
C203 C 0.80288 0.71187 0.36608 0.0
C204 C 0.75823 0.69478 0.32966 0.0
H205 H 0.67634 0.63613 0.30358 0.0
N206 N 0.72751 0.70765 0.29271 0.0
C207 C 0.6835 0.67716 0.28105 0.0
C208 C 0.73419 0.68787 0.31272 0.0
C209 C 0.70199 0.70306 0.2775 0.0
C210 C 0.69077 0.65613 0.30079 0.0
C211 C 0.71612 0.6615 0.31723 0.0
O212 O 0.72458 0.77049 0.28858 0.0
O213 O 0.77162 0.7803 0.25043 0.0
O214 O 0.81816 0.80869 0.26294 0.0
O215 O 0.79958 0.78238 0.30015 0.0
O216 O 0.72898 0.76288 0.2531 0.0
O217 O 0.75789 0.77056 0.32061 0.0
O218 O 0.84859 0.75612 0.23301 0.0
O219 O 0.80077 0.74493 0.2732 0.0
O220 O 0.75604 0.71571 0.26201 0.0
O221 O 0.77353 0.74204 0.22429 0.0
O222 O 0.84364 0.75979 0.27041 0.0
O223 O 0.81315 0.75435 0.20296 0.0
C224 C 0.74652 0.77975 0.23875 0.0
C225 C 0.71132 0.77125 0.32983 0.0
C226 C 0.6761 0.78749 0.35006 0.0
C227 C 0.69878 0.79318 0.33455 0.0
C228 C 0.66645 0.7596 0.36105 0.0
C229 C 0.70152 0.74362 0.34113 0.0
C230 C 0.67923 0.73789 0.35673 0.0
C231 C 0.81547 0.80495 0.28823 0.0
C232 C 0.7332 0.77726 0.31172 0.0
C233 C 0.72347 0.64174 0.33846 0.0
C234 C 0.74783 0.64879 0.35575 0.0
C235 C 0.82555 0.74363 0.28471 0.0
C236 C 0.85877 0.75588 0.19035 0.0
C237 C 0.86688 0.73431 0.17997 0.0
C238 C 0.88717 0.74068 0.16178 0.0
C239 C 0.89914 0.76913 0.15441 0.0
C240 C 0.87071 0.78394 0.18229 0.0
C241 C 0.89081 0.79047 0.16446 0.0
C242 C 0.75836 0.71926 0.23666 0.0
C243 C 0.83864 0.7489 0.21021 0.0
H244 H 0.70614 0.81451 0.32558 0.0
H245 H 0.64917 0.75464 0.37321 0.0
H246 H 0.71086 0.7265 0.33764 0.0
H247 H 0.67168 0.71651 0.36534 0.0
H248 H 0.85721 0.71268 0.186 0.0
H249 H 0.91533 0.77502 0.14112 0.0
H250 H 0.86473 0.80077 0.18998 0.0
H251 H 0.90019 0.81219 0.15855 0.0
Eu252 Eu 0.3005 0.73519 0.27515 0.0
C253 C 0.24136 0.82109 0.19383 0.0
C254 C 0.27825 0.86133 0.18317 0.0
C255 C 0.23773 0.84955 0.1512 0.0
C256 C 0.26708 0.83795 0.20073 0.0
C257 C 0.22608 0.82707 0.16919 0.0
C258 C 0.26377 0.86665 0.15818 0.0
C259 C 0.18779 0.78974 0.18275 0.0
N260 N 0.23054 0.79973 0.21176 0.0
C261 C 0.20368 0.78471 0.20696 0.0
C262 C 0.19918 0.81078 0.16365 0.0
Eu263 Eu 0.25911 0.79206 0.25203 0.0
N264 N 0.28041 0.83238 0.2251 0.0
C265 C 0.30394 0.85052 0.23375 0.0
C266 C 0.3032 0.87914 0.1915 0.0
C267 C 0.31589 0.8739 0.21702 0.0
H268 H 0.1947 0.76834 0.22153 0.0
H269 H 0.33494 0.88779 0.22381 0.0
H270 H 0.27218 0.88434 0.14434 0.0
H271 H 0.1668 0.77735 0.17883 0.0
H272 H 0.31402 0.84669 0.25339 0.0
H273 H 0.22218 0.63949 0.29703 0.0
H274 H 0.31244 0.89733 0.17861 0.0
H275 H 0.3633 0.75599 0.309 0.0
H276 H 0.24575 0.68097 0.26955 0.0
H277 H 0.38821 0.74562 0.35311 0.0
H278 H 0.22643 0.85432 0.13209 0.0
H279 H 0.24069 0.62884 0.34337 0.0
H280 H 0.27833 0.64058 0.38023 0.0
H281 H 0.18678 0.81469 0.14494 0.0
H282 H 0.32361 0.66951 0.39554 0.0
N283 N 0.27696 0.69438 0.30007 0.0
C284 C 0.25417 0.67664 0.28967 0.0
C285 C 0.25115 0.64715 0.33138 0.0
C286 C 0.27553 0.66446 0.34151 0.0
C287 C 0.24069 0.65304 0.30522 0.0
C288 C 0.28827 0.68807 0.32506 0.0
H289 H 0.36501 0.70841 0.38542 0.0
N290 N 0.32616 0.72552 0.31662 0.0
C291 C 0.3672 0.73389 0.34793 0.0
C292 C 0.31366 0.70424 0.33365 0.0
C293 C 0.35309 0.73965 0.32298 0.0
C294 C 0.35399 0.71294 0.36614 0.0
C295 C 0.32711 0.69745 0.35896 0.0
O296 O 0.33989 0.72715 0.26425 0.0
O297 O 0.29697 0.77439 0.24747 0.0
O298 O 0.25597 0.76732 0.21901 0.0
O299 O 0.26414 0.7245 0.24265 0.0
O300 O 0.33758 0.76971 0.26366 0.0
O301 O 0.29978 0.70069 0.25339 0.0
O302 O 0.22208 0.79642 0.26944 0.0
O303 O 0.26318 0.75312 0.28036 0.0
O304 O 0.30551 0.76253 0.30731 0.0
O305 O 0.29598 0.80436 0.2826 0.0
O306 O 0.22261 0.75667 0.26331 0.0
O307 O 0.25845 0.83044 0.2679 0.0
C308 C 0.32299 0.78565 0.24752 0.0
C309 C 0.34091 0.68013 0.26071 0.0
C310 C 0.3671 0.6474 0.24845 0.0
C311 C 0.35405 0.67124 0.24203 0.0
C312 C 0.36685 0.63274 0.27396 0.0
C313 C 0.34089 0.66518 0.28596 0.0
C314 C 0.35383 0.64162 0.29252 0.0
C315 C 0.25394 0.73981 0.22128 0.0
C316 C 0.32738 0.70501 0.2536 0.0
C317 C 0.31377 0.67489 0.37592 0.0
C318 C 0.288 0.65841 0.3672 0.0
C319 C 0.23732 0.74127 0.27997 0.0
C320 C 0.21271 0.84176 0.26647 0.0
C321 C 0.19817 0.84749 0.28571 0.0
C322 C 0.17661 0.86376 0.27915 0.0
C323 C 0.17037 0.8747 0.25279 0.0
C324 C 0.20644 0.85307 0.2404 0.0
C325 C 0.18539 0.86955 0.23365 0.0
C326 C 0.30655 0.79009 0.30425 0.0
C327 C 0.23245 0.82198 0.2739 0.0
H328 H 0.35373 0.68268 0.22244 0.0
H329 H 0.37702 0.61459 0.27969 0.0
H330 H 0.33094 0.67172 0.30058 0.0
H331 H 0.35383 0.63023 0.31208 0.0
H332 H 0.20374 0.83904 0.30583 0.0
H333 H 0.15364 0.88689 0.24682 0.0
H334 H 0.21746 0.84886 0.22531 0.0
H335 H 0.1804 0.87802 0.21346 0.0
Eu336 Eu 0.29932 0.74484 0.75101 0.0
C337 C 0.20212 0.7766 0.79895 0.0
C338 C 0.15932 0.78507 0.77098 0.0
C339 C 0.15706 0.7698 0.81728 0.0
C340 C 0.18876 0.78441 0.77451 0.0
C341 C 0.18648 0.76991 0.82074 0.0
C342 C 0.14346 0.77714 0.79241 0.0
C343 C 0.23017 0.76486 0.8481 0.0
N344 N 0.2306 0.77684 0.80166 0.0
C345 C 0.24473 0.77136 0.82598 0.0
C346 C 0.20097 0.76434 0.8455 0.0
Eu347 Eu 0.25431 0.79219 0.76331 0.0
N348 N 0.20479 0.79283 0.75439 0.0
C349 C 0.19305 0.80384 0.73053 0.0
C350 C 0.14688 0.79463 0.7462 0.0
C351 C 0.16391 0.80433 0.72593 0.0
H352 H 0.26723 0.77152 0.82881 0.0
H353 H 0.15466 0.81242 0.70683 0.0
H354 H 0.12084 0.77741 0.79007 0.0
H355 H 0.24158 0.7605 0.8672 0.0
H356 H 0.20624 0.81176 0.71485 0.0
H357 H 0.40248 0.81811 0.76057 0.0
H358 H 0.12435 0.79536 0.74271 0.0
H359 H 0.2686 0.71269 0.6978 0.0
H360 H 0.35838 0.79165 0.77484 0.0
H361 H 0.27524 0.71536 0.65224 0.0
H362 H 0.14473 0.76447 0.83378 0.0
H363 H 0.41352 0.81871 0.71597 0.0
H364 H 0.39877 0.80393 0.67226 0.0
H365 H 0.1899 0.76011 0.86276 0.0
H366 H 0.3633 0.77839 0.64237 0.0
N367 N 0.34212 0.77592 0.73872 0.0
C368 C 0.36168 0.79095 0.75526 0.0
C369 C 0.3935 0.80672 0.72205 0.0
C370 C 0.37365 0.79188 0.70494 0.0
C371 C 0.38735 0.80642 0.74721 0.0
C372 C 0.3478 0.77639 0.71382 0.0
H373 H 0.31709 0.7464 0.63444 0.0
N374 N 0.30329 0.74628 0.70569 0.0
C375 C 0.28984 0.72903 0.66433 0.0
C376 C 0.32775 0.76168 0.69685 0.0
C377 C 0.28563 0.72843 0.69025 0.0
C378 C 0.31357 0.74638 0.65444 0.0
C379 C 0.33333 0.76224 0.67087 0.0
O380 O 0.2908 0.70044 0.74645 0.0
O381 O 0.26125 0.74796 0.76954 0.0
O382 O 0.29288 0.7917 0.79393 0.0
O383 O 0.32065 0.75948 0.78877 0.0
O384 O 0.28635 0.72056 0.78995 0.0
O385 O 0.33394 0.72149 0.75767 0.0
O386 O 0.27345 0.82583 0.78643 0.0
O387 O 0.29199 0.7889 0.74369 0.0
O388 O 0.25607 0.73722 0.72676 0.0
O389 O 0.22523 0.76418 0.7364 0.0
O390 O 0.26158 0.8096 0.72136 0.0
O391 O 0.2484 0.83523 0.74963 0.0
C392 C 0.26342 0.73033 0.78994 0.0
C393 C 0.32303 0.67279 0.77151 0.0
C394 C 0.35825 0.64526 0.79368 0.0
C395 C 0.35115 0.66841 0.77641 0.0
C396 C 0.33658 0.62591 0.80577 0.0
C397 C 0.3015 0.65335 0.78363 0.0
C398 C 0.30834 0.62993 0.80062 0.0
C399 C 0.31484 0.77867 0.80122 0.0
C400 C 0.31727 0.69778 0.7535 0.0
C401 C 0.3588 0.77783 0.66218 0.0
C402 C 0.379 0.79235 0.67922 0.0
C403 C 0.28559 0.80199 0.72139 0.0
C404 C 0.28756 0.8699 0.76053 0.0
C405 C 0.27875 0.89243 0.74352 0.0
C406 C 0.29863 0.91494 0.73289 0.0
C407 C 0.32781 0.91506 0.73984 0.0
C408 C 0.31682 0.87046 0.76785 0.0
C409 C 0.3368 0.89304 0.75756 0.0
C410 C 0.23119 0.74552 0.72348 0.0
C411 C 0.26568 0.84547 0.76853 0.0
H412 H 0.36777 0.68372 0.76732 0.0
H413 H 0.34149 0.6078 0.81921 0.0
H414 H 0.27955 0.65626 0.7801 0.0
H415 H 0.29176 0.61498 0.81 0.0
H416 H 0.25618 0.89173 0.73752 0.0
H417 H 0.34352 0.93203 0.73156 0.0
H418 H 0.32429 0.85324 0.78088 0.0
H419 H 0.35932 0.89318 0.76291 0.0
Eu420 Eu 0.25676 0.25002 0.78931 0.0
C421 C 0.33799 0.33704 0.71625 0.0
C422 C 0.30954 0.34954 0.67578 0.0
C423 C 0.35094 0.38275 0.69038 0.0
C424 C 0.31457 0.33053 0.69853 0.0
C425 C 0.35679 0.36303 0.71217 0.0
C426 C 0.32739 0.37597 0.67214 0.0
C427 C 0.38732 0.34697 0.74987 0.0
N428 N 0.34341 0.31718 0.73661 0.0
C429 C 0.36824 0.32139 0.75286 0.0
C430 C 0.38141 0.36803 0.7296 0.0
Eu431 Eu 0.30951 0.27463 0.74128 0.0
N432 N 0.29798 0.30472 0.70251 0.0
C433 C 0.27736 0.2958 0.68349 0.0
C434 C 0.28753 0.34096 0.65683 0.0
C435 C 0.27154 0.31384 0.66058 0.0
H436 H 0.37306 0.30538 0.76869 0.0
H437 H 0.25481 0.30676 0.64581 0.0
H438 H 0.32366 0.39097 0.65493 0.0
H439 H 0.40656 0.3504 0.7632 0.0
H440 H 0.26496 0.27486 0.68603 0.0
H441 H 0.31365 0.21531 0.88295 0.0
H442 H 0.28337 0.35478 0.6389 0.0
H443 H 0.19269 0.21977 0.76263 0.0
H444 H 0.3014 0.2488 0.84454 0.0
H445 H 0.1599 0.17415 0.76719 0.0
H446 H 0.36499 0.40291 0.68701 0.0
H447 H 0.28734 0.16623 0.88772 0.0
H448 H 0.24701 0.13024 0.87105 0.0
H449 H 0.39633 0.38775 0.72719 0.0
H450 H 0.20488 0.11909 0.83956 0.0
N451 N 0.26921 0.219 0.8271 0.0
C452 C 0.28977 0.22752 0.84631 0.0
C453 C 0.28199 0.18088 0.87072 0.0
C454 C 0.25959 0.17279 0.85187 0.0
C455 C 0.29679 0.20855 0.86816 0.0
C456 C 0.25345 0.19272 0.83016 0.0
H457 H 0.17187 0.13553 0.80111 0.0
N458 N 0.22342 0.20707 0.79327 0.0
C459 C 0.17953 0.1773 0.78006 0.0
C460 C 0.22973 0.18653 0.81265 0.0
C461 C 0.19817 0.20319 0.77759 0.0
C462 C 0.18641 0.15553 0.79915 0.0
C463 C 0.21152 0.16013 0.81607 0.0
O464 O 0.21916 0.26684 0.79307 0.0
O465 O 0.26868 0.28035 0.7536 0.0
O466 O 0.3136 0.30884 0.76681 0.0
O467 O 0.29497 0.28179 0.80366 0.0
O468 O 0.22583 0.26441 0.75542 0.0
O469 O 0.2549 0.27057 0.8229 0.0
O470 O 0.34691 0.257 0.73848 0.0
O471 O 0.29763 0.24459 0.77698 0.0
O472 O 0.25322 0.21575 0.76412 0.0
O473 O 0.27092 0.24311 0.72706 0.0
O474 O 0.34044 0.26087 0.77538 0.0
O475 O 0.31089 0.2519 0.70904 0.0
C476 C 0.24396 0.28109 0.74155 0.0
C477 C 0.20913 0.26733 0.83568 0.0
C478 C 0.17805 0.2817 0.862 0.0
C479 C 0.19802 0.28852 0.84364 0.0
C480 C 0.1696 0.25336 0.8724 0.0
C481 C 0.20053 0.23924 0.84638 0.0
C482 C 0.18088 0.23234 0.86468 0.0
C483 C 0.31075 0.30465 0.79208 0.0
C484 C 0.22896 0.27475 0.81565 0.0
C485 C 0.21844 0.1396 0.83675 0.0
C486 C 0.24244 0.14593 0.85466 0.0
C487 C 0.32229 0.24414 0.78917 0.0
C488 C 0.35623 0.25212 0.6967 0.0
C489 C 0.36653 0.22928 0.69095 0.0
C490 C 0.38594 0.23327 0.67228 0.0
C491 C 0.39475 0.26066 0.6595 0.0
C492 C 0.36519 0.27915 0.68369 0.0
C493 C 0.38437 0.28334 0.66515 0.0
C494 C 0.256 0.21983 0.73887 0.0
C495 C 0.33663 0.24737 0.71673 0.0
H496 H 0.2045 0.31021 0.83516 0.0
H497 H 0.15453 0.24747 0.88676 0.0
H498 H 0.20888 0.22268 0.84049 0.0
H499 H 0.17431 0.21061 0.87288 0.0
H500 H 0.3592 0.20839 0.7009 0.0
H501 H 0.41001 0.2647 0.64538 0.0
H502 H 0.35749 0.29695 0.68796 0.0
H503 H 0.39138 0.30428 0.65524 0.0
Eu504 Eu 0.80428 0.22498 0.77044 0.0
C505 C 0.74516 0.31416 0.6941 0.0
C506 C 0.78113 0.35618 0.68794 0.0
C507 C 0.74238 0.34669 0.65375 0.0
C508 C 0.77016 0.3307 0.70305 0.0
C509 C 0.73062 0.32226 0.66957 0.0
C510 C 0.76755 0.36369 0.66297 0.0
C511 C 0.69225 0.28344 0.67951 0.0
N512 N 0.7339 0.29127 0.71023 0.0
C513 C 0.70728 0.27654 0.70379 0.0
C514 C 0.70413 0.3062 0.66216 0.0
Eu515 Eu 0.76063 0.28036 0.75088 0.0
N516 N 0.78259 0.32297 0.72736 0.0
C517 C 0.80512 0.34059 0.73826 0.0
C518 C 0.80473 0.37388 0.6988 0.0
C519 C 0.81672 0.36607 0.7241 0.0
H520 H 0.69802 0.25892 0.71715 0.0
H521 H 0.83481 0.37974 0.73277 0.0
H522 H 0.77589 0.38299 0.65095 0.0
H523 H 0.6715 0.27126 0.67422 0.0
H524 H 0.81457 0.33503 0.75781 0.0
H525 H 0.72972 0.1276 0.79664 0.0
H526 H 0.81347 0.39388 0.68804 0.0
H527 H 0.86906 0.24779 0.80029 0.0
H528 H 0.74999 0.16976 0.76796 0.0
H529 H 0.89803 0.23731 0.8422 0.0
H530 H 0.73167 0.35313 0.63476 0.0
H531 H 0.75292 0.11659 0.84136 0.0
H532 H 0.79398 0.1283 0.87535 0.0
H533 H 0.69232 0.31169 0.64347 0.0
H534 H 0.83988 0.15805 0.88771 0.0
N535 N 0.78397 0.18324 0.79629 0.0
C536 C 0.76045 0.16529 0.78735 0.0
C537 C 0.76194 0.1352 0.82883 0.0
C538 C 0.78701 0.15274 0.83732 0.0
C539 C 0.74884 0.1413 0.80359 0.0
C540 C 0.79775 0.17681 0.82029 0.0
H541 H 0.87906 0.19844 0.87532 0.0
N542 N 0.83378 0.21561 0.8098 0.0
C543 C 0.87706 0.22487 0.83829 0.0
C544 C 0.82351 0.19349 0.82726 0.0
C545 C 0.8606 0.23072 0.81454 0.0
C546 C 0.86624 0.20298 0.85696 0.0
C547 C 0.83934 0.18669 0.85143 0.0
O548 O 0.84206 0.22152 0.75354 0.0
O549 O 0.7984 0.2645 0.74367 0.0
O550 O 0.75592 0.25509 0.7172 0.0
O551 O 0.76702 0.21309 0.74016 0.0
O552 O 0.83956 0.26181 0.75935 0.0
O553 O 0.80415 0.18952 0.75012 0.0
O554 O 0.72101 0.28574 0.76347 0.0
O555 O 0.76605 0.24079 0.77732 0.0
O556 O 0.80828 0.24822 0.80471 0.0
O557 O 0.79739 0.29085 0.78298 0.0
O558 O 0.72492 0.2441 0.7617 0.0
O559 O 0.76043 0.31324 0.77433 0.0
C560 C 0.82394 0.27718 0.74374 0.0
C561 C 0.84869 0.17599 0.75132 0.0
C562 C 0.88251 0.15253 0.73684 0.0
C563 C 0.86411 0.17214 0.7318 0.0
C564 C 0.88509 0.13679 0.76186 0.0
C565 C 0.85142 0.16004 0.77604 0.0
C566 C 0.86956 0.1405 0.78124 0.0
C567 C 0.75577 0.22776 0.71913 0.0
C568 C 0.83073 0.19751 0.74572 0.0
C569 C 0.82817 0.16347 0.86894 0.0
C570 C 0.80203 0.14654 0.86191 0.0
C571 C 0.74033 0.22849 0.77729 0.0
C572 C 0.71808 0.33163 0.76929 0.0
C573 C 0.70617 0.33946 0.78936 0.0
C574 C 0.69125 0.36202 0.7843 0.0
C575 C 0.68865 0.37669 0.75886 0.0
C576 C 0.7153 0.34659 0.74411 0.0
C577 C 0.70067 0.36902 0.73896 0.0
C578 C 0.80913 0.27546 0.80343 0.0
C579 C 0.7329 0.30757 0.77483 0.0
H580 H 0.86153 0.18433 0.71265 0.0
H581 H 0.89938 0.12184 0.76661 0.0
H582 H 0.83971 0.16278 0.79129 0.0
H583 H 0.87175 0.12833 0.8004 0.0
H584 H 0.70812 0.3277 0.80877 0.0
H585 H 0.67763 0.39434 0.7544 0.0
H586 H 0.72433 0.3409 0.72845 0.0
H587 H 0.69864 0.38051 0.71947 0.0
Eu588 Eu 0.76788 0.73218 0.7393 0.0
C589 C 0.85351 0.8054 0.81473 0.0
C590 C 0.86184 0.77387 0.85456 0.0
C591 C 0.8987 0.81364 0.84201 0.0
C592 C 0.8443 0.78159 0.83165 0.0
C593 C 0.88054 0.82211 0.82002 0.0
C594 C 0.88934 0.78956 0.85927 0.0
C595 C 0.86842 0.8559 0.78316 0.0
N596 N 0.83521 0.8133 0.79401 0.0
C597 C 0.84176 0.83877 0.7789 0.0
C598 C 0.88807 0.84735 0.8036 0.0
Eu599 Eu 0.79082 0.78272 0.78701 0.0
N600 N 0.81749 0.76707 0.82662 0.0
C601 C 0.80623 0.74589 0.84482 0.0
C602 C 0.85085 0.75126 0.87253 0.0
C603 C 0.82276 0.7375 0.86781 0.0
H604 H 0.82669 0.84554 0.76305 0.0
H605 H 0.81378 0.72038 0.88185 0.0
H606 H 0.90321 0.78373 0.8766 0.0
H607 H 0.87376 0.8757 0.77071 0.0
H608 H 0.78466 0.73483 0.84172 0.0
H609 H 0.76681 0.80768 0.64935 0.0
H610 H 0.86359 0.74478 0.8904 0.0
H611 H 0.72015 0.67282 0.75121 0.0
H612 H 0.78807 0.7834 0.68949 0.0
H613 H 0.66972 0.65354 0.73806 0.0
H614 H 0.91964 0.82604 0.84627 0.0
H615 H 0.71544 0.79478 0.63537 0.0
H616 H 0.66867 0.76298 0.64267 0.0
H617 H 0.90863 0.86076 0.807 0.0
H618 H 0.6418 0.72159 0.66755 0.0
N619 N 0.74895 0.75723 0.69978 0.0
C620 C 0.76556 0.77741 0.68427 0.0
C621 C 0.72455 0.78413 0.65343 0.0
C622 C 0.7079 0.76241 0.66848 0.0
C623 C 0.75358 0.79137 0.66119 0.0
C624 C 0.72094 0.749 0.69171 0.0
H625 H 0.64205 0.6804 0.70297 0.0
N626 N 0.7201 0.71148 0.72594 0.0
C627 C 0.67947 0.67402 0.72895 0.0
C628 C 0.70594 0.72554 0.70545 0.0
C629 C 0.70788 0.68515 0.73657 0.0
C630 C 0.66393 0.68925 0.70919 0.0
C631 C 0.6774 0.71491 0.69657 0.0
O632 O 0.76776 0.69132 0.72743 0.0
O633 O 0.79633 0.74273 0.77505 0.0
O634 O 0.82907 0.78563 0.76547 0.0
O635 O 0.80777 0.76363 0.72938 0.0
O636 O 0.78158 0.70053 0.77351 0.0
O637 O 0.79988 0.72664 0.71579 0.0
O638 O 0.77756 0.82218 0.78967 0.0
O639 O 0.75997 0.77196 0.75145 0.0
O640 O 0.73727 0.71839 0.77042 0.0
O641 O 0.75701 0.74691 0.80237 0.0
O642 O 0.78166 0.81298 0.75086 0.0
O643 O 0.76559 0.78566 0.81769 0.0
C644 C 0.79781 0.71838 0.78719 0.0
C645 C 0.78612 0.69258 0.6874 0.0
C646 C 0.80324 0.67126 0.65471 0.0
C647 C 0.80566 0.67804 0.6803 0.0
C648 C 0.78109 0.67975 0.6365 0.0
C649 C 0.76414 0.70033 0.66888 0.0
C650 C 0.76174 0.69401 0.6436 0.0
C651 C 0.82935 0.77902 0.74207 0.0
C652 C 0.78924 0.70046 0.71383 0.0
C653 C 0.66376 0.7293 0.67452 0.0
C654 C 0.67906 0.7529 0.66038 0.0
C655 C 0.76242 0.79646 0.73828 0.0
C656 C 0.77228 0.82978 0.83201 0.0
C657 C 0.75065 0.84007 0.84084 0.0
C658 C 0.75697 0.85604 0.86167 0.0
C659 C 0.7853 0.86176 0.87322 0.0
C660 C 0.80028 0.83571 0.84393 0.0
C661 C 0.80673 0.85167 0.86437 0.0
C662 C 0.73824 0.72595 0.79371 0.0
C663 C 0.76538 0.81235 0.81084 0.0
H664 H 0.82247 0.67185 0.69474 0.0
H665 H 0.77886 0.67574 0.61653 0.0
H666 H 0.74895 0.71143 0.67391 0.0
H667 H 0.74486 0.70034 0.62935 0.0
H668 H 0.72893 0.8352 0.83183 0.0
H669 H 0.79098 0.87432 0.88897 0.0
H670 H 0.81714 0.82797 0.83751 0.0
H671 H 0.82843 0.85622 0.87341 0.0
Fe672 Fe 0.04224 0.03365 0.51836 0.0
O673 O 1.01736 0.99812 0.53353 0.0
Fe674 Fe 0.10606 0.01208 0.51003 0.0
Fe675 Fe 0.97489 0.99308 0.52755 0.0
O676 O 0.06341 1.0076 0.50607 0.0
O677 O 0.06252 1.00382 0.50702 0.0
O678 O 1.01594 0.99489 0.53284 0.0
Fe679 Fe 0.03415 0.96771 0.51971 0.0
C680 C 0.99848 0.04657 0.55122 0.0
O681 O 1.01608 0.03461 0.48393 0.0
O682 O 0.97442 0.02743 0.49964 0.0
O683 O 0.05878 0.94565 0.5032 0.0
O684 O 0.09763 0.97867 0.48828 0.0
O685 O 0.09728 0.04504 0.48186 0.0
O686 O 0.06873 0.06773 0.4992 0.0
O687 O 0.96787 0.96785 0.49835 0.0
O688 O 1.00989 0.9716 0.48394 0.0
C689 C 0.08636 0.06678 0.4829 0.0
O690 O 0.05663 0.96052 0.55634 0.0
O691 O 0.0742 0.99345 0.52911 0.0
O692 O 1.01743 0.05596 0.53472 0.0
O693 O 0.98313 0.02142 0.55365 0.0
C694 C 0.99028 0.03731 0.48169 0.0
C695 C 0.98277 0.96579 0.48071 0.0
C696 C 0.98482 0.9347 0.55058 0.0
O697 O 0.97529 0.95681 0.55324 0.0
O698 O 1.00346 0.93432 0.53495 0.0
C699 C 0.08072 0.95411 0.48978 0.0
O700 O 0.11222 0.04175 0.53562 0.0
O701 O 0.0704 0.03619 0.55207 0.0
C702 C 0.07794 0.97833 0.5513 0.0
C703 C 0.09741 0.04493 0.55315 0.0
Fe704 Fe 0.53198 0.97573 0.01723 0.0
O705 O 0.55322 0.01066 0.03112 0.0
Fe706 Fe 0.46737 0.99548 0.99037 0.0
Fe707 Fe 0.59508 0.02075 0.03457 0.0
O708 O 0.5091 1.00263 0.99505 0.0
O709 O 0.50915 1.00582 0.99419 0.0
O710 O 0.55327 0.01391 0.03027 0.0
Fe711 Fe 0.5304 0.04079 1.00795 0.0
C712 C 0.58056 0.96059 0.0615 0.0
O713 O 0.55829 0.9814 0.98825 0.0
O714 O 0.60042 0.9928 1.01099 0.0
O715 O 0.50229 0.06402 0.98185 0.0
O716 O 0.47117 0.02991 0.96149 0.0
O717 O 0.47397 0.96573 0.96956 0.0
O718 O 0.50616 0.94305 0.9979 0.0
O719 O 0.59903 0.05231 1.00327 0.0
O720 O 0.55726 0.04839 0.97866 0.0
C721 C 0.48732 0.94481 0.97736 0.0
O722 O 0.50387 0.03548 0.0368 0.0
O723 O 0.4617 0.02291 0.01434 0.0
O724 O 0.56032 0.95252 0.0433 0.0
O725 O 0.5912 0.98672 0.06373 0.0
C726 C 0.58518 0.98312 0.99146 0.0
C727 C 0.58421 0.05678 0.98142 0.0
C728 C 0.57641 0.07243 0.04662 0.0
O729 O 0.58923 0.05122 0.05484 0.0
O730 O 0.5564 0.07354 0.02698 0.0
C731 C 0.48203 0.05601 0.96368 0.0
O732 O 0.46348 0.96348 0.02144 0.0
O733 O 0.50504 0.96789 0.0464 0.0
C734 C 0.47688 0.03322 0.03361 0.0
C735 C 0.47814 0.95926 0.04345 0.0
Fe736 Fe 0.03486 0.54404 1.00446 0.0
O737 O 1.00778 0.51042 0.99319 0.0
Fe738 Fe 0.09685 0.51604 0.02581 0.0
Fe739 Fe 0.96625 0.50537 0.99348 0.0
O740 O 0.05572 0.51458 0.02529 0.0
O741 O 0.05535 0.51125 0.02621 0.0
O742 O 1.00739 0.50718 0.99415 0.0
Fe743 Fe 1.02851 0.47775 0.01451 0.0
C744 C 0.98685 0.54521 0.03467 0.0
O745 O 1.00803 0.57008 0.98008 0.0
O746 O 0.97095 0.53814 0.96299 0.0
O747 O 0.05025 0.47943 0.98298 0.0
O748 O 0.09452 0.48536 1.00256 0.0
O749 O 0.10091 0.54612 0.99319 0.0
O750 O 0.05745 0.54757 0.97261 0.0
O751 O 0.96465 0.47236 0.97331 0.0
O752 O 0.99709 0.44696 0.998 0.0
C753 C 0.08452 0.55291 0.97285 0.0
O754 O 0.05538 0.4515 0.0385 0.0
O755 O 0.09211 0.48318 0.05628 0.0
O756 O 1.01299 0.5435 0.03579 0.0
O757 O 0.96838 0.53591 0.01681 0.0
C758 C 0.98565 0.56342 0.96337 0.0
C759 C 0.9755 0.4497 0.98025 0.0
C760 C 0.97895 0.46799 0.0461 0.0
O761 O 0.96236 0.47537 0.02612 0.0
O762 O 1.00598 0.47323 0.04631 0.0
C763 C 0.07611 0.47681 0.98435 0.0
O764 O 0.09858 0.54905 0.04586 0.0
O765 O 0.06668 0.57484 0.02076 0.0
C766 C 0.0775 0.4579 0.05554 0.0
C767 C 0.08813 0.5719 0.03868 0.0
Fe768 Fe 0.54126 0.51033 0.99103 0.0
O769 O 0.55168 0.48561 0.02367 0.0
Fe770 Fe 0.48022 0.53164 1.00244 0.0
Fe771 Fe 0.59177 0.48202 0.03528 0.0
O772 O 0.51934 0.52603 0.0128 0.0
O773 O 0.51955 0.52657 0.01507 0.0
O774 O 0.55176 0.48602 0.02599 0.0
Fe775 Fe 0.52965 0.50177 0.04779 0.0
C776 C 0.57817 0.469 0.97982 0.0
O777 O 0.57537 0.54067 0.99989 0.0
O778 O 0.60935 0.51538 1.00851 0.0
O779 O 0.50512 0.5216 0.06666 0.0
O780 O 0.48652 0.55311 0.0343 0.0
O781 O 0.50018 0.56301 0.97561 0.0
O782 O 0.5292 0.53912 0.95982 0.0
O783 O 0.59944 0.50792 0.06384 0.0
O784 O 0.56405 0.53207 0.0578 0.0
C785 C 0.51722 0.5607 0.95913 0.0
O786 O 0.49497 0.47158 0.03923 0.0
O787 O 0.4614 0.49771 0.02765 0.0
O788 O 0.56573 0.49065 0.97198 0.0
O789 O 0.58489 0.45942 1.00415 0.0
C790 C 0.60069 0.53815 0.9987 0.0
C791 C 0.58889 0.52844 0.06777 0.0
C792 C 0.55628 0.45263 0.08 0.0
O793 O 0.57358 0.45129 0.0634 0.0
O794 O 0.54213 0.47279 0.07911 0.0
C795 C 0.49266 0.54325 0.05867 0.0
O796 O 0.47299 0.50668 0.97303 0.0
O797 O 0.50661 0.48031 0.98078 0.0
C798 C 0.46925 0.47462 0.03785 0.0
C799 C 0.48251 0.48526 0.96971 0.0
Fe800 Fe 0.03183 0.47648 0.51736 0.0
O801 O 0.05103 0.51122 0.53261 0.0
Fe802 Fe 1.00632 0.50502 0.45465 0.0
Fe803 Fe 0.05552 0.51324 0.57017 0.0
O804 O 1.01108 0.50362 0.49277 0.0
O805 O 1.01104 0.50674 0.49216 0.0
O806 O 0.05087 0.51442 0.53206 0.0
Fe807 Fe 1.0297 0.54136 0.50769 0.0
C808 C 1.00322 0.46539 0.56655 0.0
O809 O 0.05773 0.45312 0.54597 0.0
O810 O 0.08382 0.48646 0.57057 0.0
O811 O 0.0618 0.55031 0.4832 0.0
O812 O 0.03601 0.54113 0.44586 0.0
O813 O 0.03737 0.48144 0.45466 0.0
O814 O 0.06359 0.48202 0.49324 0.0
O815 O 0.08183 0.55132 0.56046 0.0
O816 O 0.05303 0.5739 0.52821 0.0
C817 C 0.06008 0.47795 0.46949 0.0
O818 O 1.00366 0.56469 0.47946 0.0
O819 O 0.97795 0.53165 0.45444 0.0
O820 O 0.99986 0.46841 0.54172 0.0
O821 O 1.02586 0.47715 0.57905 0.0
C822 C 0.07889 0.46173 0.56317 0.0
C823 C 0.07451 0.57377 0.54646 0.0
C824 C 1.00148 0.53981 0.55537 0.0
O825 O 1.02445 0.53691 0.57 0.0
O826 O 0.99773 0.5349 0.53185 0.0
C827 C 0.05853 0.55316 0.45834 0.0
O828 O 0.97983 0.46715 0.46433 0.0
O829 O 1.00754 0.44387 0.49715 0.0
C830 C 0.98263 0.55618 0.46217 0.0
C831 C 0.98596 0.44458 0.47899 0.0
Fe832 Fe 0.53808 0.94863 0.5145 0.0
O833 O 0.54497 0.98969 0.51287 0.0
Fe834 Fe 0.52352 0.01303 0.48019 0.0
Fe835 Fe 0.53779 1.00816 0.54195 0.0
O836 O 0.54388 0.98996 0.50969 0.0
O837 O 0.51648 0.03157 0.50935 0.0
O838 O 0.51772 0.0314 0.51246 0.0
Fe839 Fe 0.52334 0.07262 0.50784 0.0
C840 C 0.49629 0.95426 0.55214 0.0
O841 O 0.57288 0.95239 0.5423 0.0
O842 O 0.5609 0.98004 0.56899 0.0
O843 O 0.54731 0.08084 0.47664 0.0
O844 O 0.56137 0.04092 0.47472 0.0
O845 O 0.53539 0.98953 0.45426 0.0
O846 O 0.55934 0.95743 0.48162 0.0
O847 O 0.5761 0.03596 0.53951 0.0
O848 O 0.56039 0.07666 0.53246 0.0
C849 C 0.55253 0.97129 0.45894 0.0
O850 O 0.48826 0.06855 0.48051 0.0
O851 O 0.49991 0.04105 0.45341 0.0
O852 O 0.51304 0.94039 0.54532 0.0
O853 O 0.49978 0.98085 0.54661 0.0
C854 C 0.57548 0.96176 0.56444 0.0
C855 C 0.58004 0.06239 0.53984 0.0
C856 C 0.51011 0.05057 0.56374 0.0
O857 O 0.52616 0.03143 0.56807 0.0
O858 O 0.50295 0.06429 0.54113 0.0
C859 C 0.56416 0.06753 0.46928 0.0
O860 O 0.48537 0.985 0.48298 0.0
O861 O 0.50152 0.94462 0.48922 0.0
C862 C 0.48593 0.05981 0.45808 0.0
C863 C 0.48167 0.95868 0.48213 0.0
H864 H 0.19668 0.17501 0.28948 0.0
H865 H 0.16225 0.15556 0.32086 0.0
H866 H 0.16386 0.23887 0.33806 0.0
H867 H 0.19886 0.25816 0.30707 0.0
H868 H 0.17494 0.20593 0.38063 0.0
H869 H 0.07958 0.15022 0.3269 0.0
H870 H 0.11088 0.13929 0.32048 0.0
H871 H 0.10658 0.17528 0.31047 0.0
C872 C 0.18877 0.18922 0.29913 0.0
C873 C 0.20007 0.21805 0.29566 0.0
C874 C 0.16905 0.17813 0.31711 0.0
C875 C 0.16004 0.19578 0.33162 0.0
C876 C 0.1703 0.22484 0.32704 0.0
H877 H 0.05455 0.10557 0.45664 0.0
H878 H 0.06866 0.1427 0.42045 0.0
C879 C 0.19026 0.23583 0.30935 0.0
C880 C 0.14363 0.18356 0.35414 0.0
H881 H 0.08799 0.13261 0.3733 0.0
C882 C 0.1555 0.19044 0.37886 0.0
C883 C 0.118 0.16365 0.35201 0.0
C884 C 0.10289 0.15694 0.32596 0.0
C885 C 0.14376 0.17641 0.40153 0.0
C886 C 0.11983 0.15457 0.39954 0.0
C887 C 0.10655 0.14919 0.3748 0.0
C888 C 0.11137 0.13435 0.42267 0.0
C889 C 0.15785 0.18423 0.42756 0.0
C890 C 0.13071 0.11764 0.43586 0.0
C891 C 0.12272 0.0966 0.45617 0.0
C892 C 0.09517 0.09175 0.46383 0.0
C893 C 0.07598 0.10909 0.45128 0.0
C894 C 0.08395 0.13012 0.43057 0.0
H895 H 0.16908 0.20646 0.42567 0.0
H896 H 0.14207 0.18107 0.44183 0.0
H897 H 0.17388 0.17077 0.43537 0.0
H898 H 0.1518 0.12024 0.42984 0.0
H899 H 0.13798 0.0836 0.4655 0.0
H900 H 0.81834 0.19357 0.35489 0.0
H901 H 0.86121 0.1869 0.38457 0.0
H902 H 0.83025 0.09748 0.39582 0.0
H903 H 0.78784 0.10382 0.36569 0.0
H904 H 0.86567 0.12791 0.44234 0.0
H905 H 0.91186 0.14314 0.34782 0.0
H906 H 0.89186 0.16806 0.35426 0.0
H907 H 0.87389 0.13338 0.34915 0.0
C908 C 0.82032 0.17257 0.36435 0.0
C909 C 0.8002 0.1491 0.35756 0.0
C910 C 0.8447 0.16887 0.38132 0.0
C911 C 0.84887 0.14171 0.39189 0.0
C912 C 0.82722 0.11859 0.38769 0.0
H913 H 0.94703 0.02535 0.44454 0.0
H914 H 0.91863 0.05901 0.41977 0.0
C915 C 0.80296 0.12224 0.37058 0.0
C916 C 0.87728 0.13653 0.40323 0.0
H917 H 0.93736 0.12221 0.38487 0.0
C918 C 0.88184 0.12751 0.43001 0.0
C919 C 0.8981 0.13599 0.38686 0.0
C920 C 0.8939 0.1456 0.35789 0.0
C921 C 0.90607 0.11623 0.44066 0.0
C922 C 0.92574 0.11369 0.42395 0.0
C923 C 0.92216 0.12441 0.39748 0.0
C924 C 0.9468 0.09542 0.43296 0.0
C925 C 0.90952 0.10509 0.46936 0.0
C926 C 0.97267 0.10518 0.44725 0.0
C927 C 0.98911 0.08601 0.461 0.0
C928 C 0.97959 0.0571 0.46057 0.0
C929 C 0.9549 0.04764 0.44461 0.0
C930 C 0.93869 0.06678 0.43065 0.0
H931 H 0.89326 0.11022 0.47995 0.0
H932 H 0.90769 0.08191 0.47199 0.0
H933 H 0.93101 0.11403 0.47825 0.0
H934 H 0.97897 0.12724 0.44934 0.0
H935 H 1.00766 0.09349 0.47392 0.0
H936 H 0.82385 0.79931 0.3415 0.0
H937 H 0.85484 0.83077 0.36905 0.0
H938 H 0.87891 0.88868 0.30101 0.0
H939 H 0.84721 0.85731 0.27302 0.0
H940 H 0.91391 0.84882 0.36972 0.0
H941 H 0.85657 0.93894 0.34762 0.0
H942 H 0.84042 0.90446 0.33959 0.0
H943 H 0.8662 0.9268 0.32009 0.0
C944 C 0.83555 0.81871 0.33219 0.0
C945 C 0.83323 0.8254 0.30484 0.0
C946 C 0.85341 0.83673 0.3481 0.0
C947 C 0.86928 0.86215 0.33722 0.0
C948 C 0.86674 0.86929 0.30994 0.0
H949 H 1.0059 0.95528 0.43874 0.0
H950 H 0.98078 0.93245 0.40159 0.0
C951 C 0.8488 0.85116 0.29392 0.0
C952 C 0.88865 0.88059 0.35476 0.0
H953 H 0.89793 0.94357 0.37755 0.0
C954 C 0.91062 0.86968 0.37124 0.0
C955 C 0.88423 0.90772 0.3569 0.0
C956 C 0.86048 0.92023 0.34029 0.0
C957 C 0.92782 0.88479 0.39014 0.0
C958 C 0.92322 0.91181 0.3925 0.0
C959 C 0.90163 0.92298 0.37564 0.0
C960 C 0.9388 0.9276 0.41384 0.0
C961 C 0.94993 0.87115 0.40821 0.0
C962 C 0.92362 0.93339 0.43266 0.0
C963 C 0.93789 0.94638 0.45388 0.0
C964 C 0.96781 0.95405 0.45685 0.0
C965 C 0.98295 0.94926 0.43739 0.0
C966 C 0.96859 0.93615 0.41612 0.0
H967 H 0.94694 0.84829 0.40726 0.0
H968 H 0.97142 0.88111 0.40263 0.0
H969 H 0.94924 0.87409 0.42867 0.0
H970 H 0.90065 0.92715 0.43133 0.0
H971 H 0.92537 0.94987 0.46826 0.0
H972 H 0.16183 0.82877 0.32392 0.0
H973 H 0.14116 0.83986 0.35976 0.0
H974 H 0.13231 0.92101 0.31643 0.0
H975 H 0.15571 0.91128 0.28157 0.0
H976 H 0.15419 0.92774 0.36203 0.0
H977 H 0.06284 0.84013 0.37281 0.0
H978 H 0.0953 0.82693 0.37568 0.0
H979 H 0.08324 0.84663 0.34535 0.0
C980 C 0.15581 0.84914 0.322 0.0
C981 C 0.16092 0.86926 0.29981 0.0
C982 C 0.14329 0.85518 0.34238 0.0
C983 C 0.13462 0.88107 0.34071 0.0
C984 C 0.13867 0.90079 0.31818 0.0
H985 H 0.04293 0.92728 0.45439 0.0
H986 H 0.05495 0.907 0.4185 0.0
C987 C 0.15185 0.89506 0.29806 0.0
C988 C 0.124 0.88875 0.36336 0.0
H989 H 0.07788 0.8654 0.40963 0.0
C990 C 0.13724 0.9142 0.37218 0.0
C991 C 0.10163 0.87134 0.37654 0.0
C992 C 0.08475 0.84491 0.3669 0.0
C993 C 0.12916 0.92256 0.39391 0.0
C994 C 0.10822 0.90425 0.40819 0.0
C995 C 0.09443 0.87908 0.39908 0.0
C996 C 0.09997 0.91153 0.43211 0.0
C997 C 0.14278 0.95131 0.40084 0.0
C998 C 0.12089 0.91915 0.45246 0.0
C999 C 0.11418 0.93144 0.47242 0.0
C1000 C 0.08621 0.93513 0.47294 0.0
C1001 C 0.06465 0.92463 0.45428 0.0
C1002 C 0.07153 0.9131 0.4338 0.0
H1003 H 0.15095 0.96565 0.38368 0.0
H1004 H 0.12748 0.96112 0.40856 0.0
H1005 H 0.16116 0.94936 0.4159 0.0
H1006 H 0.14275 0.91709 0.45212 0.0
H1007 H 0.13107 0.9392 0.48681 0.0
H1008 H 0.25795 0.94466 0.73632 0.0
H1009 H 0.22975 0.96744 0.69971 0.0
H1010 H 0.2868 0.95643 0.64727 0.0
H1011 H 0.3146 0.93259 0.68393 0.0
H1012 H 0.23474 0.01044 0.65811 0.0
H1013 H 0.21292 0.9049 0.62557 0.0
H1014 H 0.23215 0.91114 0.65674 0.0
H1015 H 0.24942 0.92257 0.62752 0.0
C1016 C 0.26495 0.94788 0.71708 0.0
C1017 C 0.28804 0.93644 0.71279 0.0
C1018 C 0.24889 0.96096 0.69619 0.0
C1019 C 0.25574 0.96287 0.67072 0.0
C1020 C 0.28085 0.95456 0.66676 0.0
H1021 H 0.12963 0.98143 0.53439 0.0
H1022 H 0.17577 0.98277 0.56081 0.0
C1023 C 0.29688 0.94125 0.68772 0.0
C1024 C 0.23414 0.96923 0.64869 0.0
H1025 H 0.18551 0.9375 0.60374 0.0
C1026 C 0.22426 0.9947 0.64591 0.0
C1027 C 0.22032 0.94849 0.63296 0.0
C1028 C 0.229 0.92015 0.63586 0.0
C1029 C 0.20037 0.99958 0.62838 0.0
C1030 C 0.18605 0.97843 0.61349 0.0
C1031 C 0.19668 0.9536 0.6153 0.0
C1032 C 0.15874 0.98056 0.59732 0.0
C1033 C 0.19031 0.0271 0.62604 0.0
C1034 C 0.13394 0.97852 0.60923 0.0
C1035 C 0.10754 0.97752 0.59419 0.0
C1036 C 0.1057 0.97888 0.56706 0.0
C1037 C 0.13055 0.98107 0.55518 0.0
C1038 C 0.15689 0.98174 0.57023 0.0
H1039 H 0.20666 0.0432 0.635 0.0
H1040 H 0.18492 0.03516 0.60521 0.0
H1041 H 0.17076 0.02382 0.63594 0.0
H1042 H 0.13495 0.97703 0.63021 0.0
H1043 H 0.08859 0.97586 0.6037 0.0
H1044 H 0.22721 0.16637 0.75437 0.0
H1045 H 0.19786 0.13341 0.72661 0.0
H1046 H 0.21899 0.19229 0.65826 0.0
H1047 H 0.24754 0.22543 0.68565 0.0
H1048 H 0.16119 0.17065 0.65709 0.0
H1049 H 0.22459 0.08521 0.6814 0.0
H1050 H 0.21317 0.09617 0.70869 0.0
H1051 H 0.23822 0.12013 0.6895 0.0
C1052 C 0.2255 0.17236 0.73344 0.0
C1053 C 0.23954 0.19879 0.72235 0.0
C1054 C 0.20892 0.15335 0.71757 0.0
C1055 C 0.20633 0.16028 0.69029 0.0
C1056 C 0.2206 0.18646 0.67923 0.0
H1057 H 0.15445 0.06561 0.56279 0.0
H1058 H 0.17867 0.09183 0.59777 0.0
C1059 C 0.23706 0.20542 0.69501 0.0
C1060 C 0.18837 0.14078 0.67299 0.0
H1061 H 0.18274 0.07721 0.65233 0.0
C1062 C 0.16578 0.15013 0.65617 0.0
C1063 C 0.19449 0.11408 0.67167 0.0
C1064 C 0.21906 0.10327 0.68859 0.0
C1065 C 0.1495 0.1338 0.63777 0.0
C1066 C 0.15567 0.10714 0.63637 0.0
C1067 C 0.17794 0.09756 0.6535 0.0
C1068 C 0.14064 0.08986 0.61601 0.0
C1069 C 0.12653 0.14569 0.61931 0.0
C1070 C 0.11118 0.07958 0.61481 0.0
C1071 C 0.09713 0.06463 0.59466 0.0
C1072 C 0.1123 0.05955 0.57535 0.0
C1073 C 0.14195 0.06925 0.57712 0.0
C1074 C 0.15591 0.08421 0.59719 0.0
H1075 H 0.1284 0.16861 0.61935 0.0
H1076 H 0.12736 0.14198 0.5991 0.0
H1077 H 0.10537 0.13506 0.62528 0.0
H1078 H 0.099 0.08329 0.62935 0.0
H1079 H 0.07432 0.05737 0.59407 0.0
H1080 H 0.89383 0.10316 0.72676 0.0
H1081 H 0.92109 0.09634 0.69317 0.0
H1082 H 0.93456 0.18518 0.66544 0.0
H1083 H 0.90808 0.1925 0.69966 0.0
H1084 H 0.91326 0.14461 0.62594 0.0
H1085 H 1.01033 0.1242 0.69079 0.0
H1086 H 0.97735 0.10596 0.7027 0.0
H1087 H 0.98567 0.14366 0.69922 0.0
C1088 C 0.90293 0.12137 0.71385 0.0
C1089 C 0.89887 0.14841 0.7161 0.0
C1090 C 0.91839 0.1174 0.69458 0.0
C1091 C 0.93004 0.14031 0.67707 0.0
C1092 C 0.92578 0.16728 0.67888 0.0
H1093 H 1.00746 0.1046 0.54417 0.0
H1094 H 0.99526 0.13444 0.57289 0.0
C1095 C 0.91048 0.17134 0.69834 0.0
C1096 C 0.94609 0.13551 0.65665 0.0
H1097 H 1.00337 0.10781 0.64932 0.0
C1098 C 0.93336 0.13728 0.63079 0.0
C1099 C 0.97235 0.12616 0.66314 0.0
C1100 C 0.98744 0.12508 0.69043 0.0
C1101 C 0.94512 0.12768 0.61162 0.0
C1102 C 0.97031 0.11638 0.6186 0.0
C1103 C 0.98408 0.11655 0.64404 0.0
C1104 C 0.97958 0.09959 0.6015 0.0
C1105 C 0.92947 0.12762 0.58459 0.0
C1106 C 0.97529 0.07038 0.60841 0.0
C1107 C 0.98204 0.0535 0.59221 0.0
C1108 C 0.99344 0.06542 0.56871 0.0
C1109 C 0.99869 0.09484 0.56214 0.0
C1110 C 0.99163 0.11186 0.57841 0.0
H1111 H 0.90944 0.13601 0.58264 0.0
H1112 H 0.94334 0.14062 0.57019 0.0
H1113 H 0.92425 0.10589 0.57963 0.0
H1114 H 0.96609 0.06054 0.62617 0.0
H1115 H 0.97808 0.03096 0.59808 0.0
H1116 H 0.85708 0.83283 0.7304 0.0
H1117 H 0.89322 0.84928 0.70004 0.0
H1118 H 0.895 0.76345 0.69264 0.0
H1119 H 0.85836 0.74705 0.72256 0.0
H1120 H 0.94753 0.84091 0.69539 0.0
H1121 H 0.86744 0.79532 0.61913 0.0
H1122 H 0.8584 0.79772 0.65082 0.0
H1123 H 0.87725 0.77093 0.64683 0.0
C1124 C 0.86589 0.81753 0.72297 0.0
C1125 C 0.85507 0.78877 0.72869 0.0
C1126 C 0.88641 0.82689 0.70552 0.0
C1127 C 0.89635 0.80757 0.69369 0.0
C1128 C 0.88715 0.77871 0.7011 0.0
H1129 H 1.01268 0.8923 0.57521 0.0
H1130 H 0.99499 0.85428 0.60936 0.0
C1131 C 0.86638 0.76939 0.71823 0.0
C1132 C 0.91375 0.8179 0.67168 0.0
H1133 H 0.90975 0.82264 0.60551 0.0
C1134 C 0.93963 0.83653 0.67578 0.0
C1135 C 0.90322 0.81213 0.64612 0.0
C1136 C 0.87498 0.79312 0.64029 0.0
C1137 C 0.95446 0.85084 0.65479 0.0
C1138 C 0.94324 0.84599 0.62915 0.0
C1139 C 0.91837 0.82601 0.62525 0.0
C1140 C 0.95334 0.86544 0.60619 0.0
C1141 C 0.98081 0.87256 0.65998 0.0
C1142 C 0.93534 0.88326 0.59241 0.0
C1143 C 0.94526 0.90465 0.57312 0.0
C1144 C 0.97337 0.90861 0.56706 0.0
C1145 C 0.99089 0.88958 0.57951 0.0
C1146 C 0.98092 0.8681 0.59912 0.0
H1147 H 0.98517 0.87557 0.68083 0.0
H1148 H 0.99949 0.86591 0.65437 0.0
H1149 H 0.97853 0.89307 0.64804 0.0
H1150 H 0.91397 0.88151 0.5975 0.0
H1151 H 0.93123 0.91889 0.56366 0.0
H1152 H 0.31003 0.1614 0.10747 0.0
H1153 H 0.34524 0.14036 0.09215 0.0
H1154 H 0.37705 0.11382 0.17162 0.0
H1155 H 0.34123 0.13424 0.18718 0.0
H1156 H 0.40478 0.14984 0.10078 0.0
H1157 H 0.35746 0.04033 0.13962 0.0
H1158 H 0.33897 0.06929 0.13721 0.0
H1159 H 0.36716 0.06465 0.16292 0.0
C1160 C 0.32441 0.15099 0.12174 0.0
C1161 C 0.3225 0.1492 0.14858 0.0
C1162 C 0.34469 0.13914 0.11294 0.0
C1163 C 0.36353 0.12511 0.1307 0.0
C1164 C 0.36243 0.12412 0.15753 0.0
H1165 H 0.50118 0.06654 0.07137 0.0
H1166 H 0.47653 0.08847 0.09812 0.0
C1167 C 0.34212 0.13605 0.1664 0.0
C1168 C 0.3836 0.11099 0.12082 0.0
H1169 H 0.39746 0.04633 0.11685 0.0
C1170 C 0.40344 0.12724 0.10452 0.0
C1171 C 0.38162 0.08145 0.12552 0.0
C1172 C 0.36005 0.06278 0.14209 0.0
C1173 C 0.42087 0.11474 0.09234 0.0
C1174 C 0.41866 0.08517 0.09682 0.0
C1175 C 0.3993 0.06899 0.1136 0.0
C1176 C 0.43414 0.07046 0.0823 0.0
C1177 C 0.44055 0.13317 0.07382 0.0
C1178 C 0.41859 0.05227 0.06521 0.0
C1179 C 0.43255 0.03962 0.05005 0.0
C1180 C 0.46249 0.04474 0.05166 0.0
C1181 C 0.47812 0.06216 0.06955 0.0
C1182 C 0.46406 0.0749 0.08472 0.0
H1183 H 0.43578 0.15475 0.06874 0.0
H1184 H 0.46285 0.13477 0.08307 0.0
H1185 H 0.43898 0.12395 0.05557 0.0
H1186 H 0.39552 0.04841 0.06308 0.0
H1187 H 0.41976 0.02619 0.03668 0.0
H1188 H 0.80897 0.28735 0.19281 0.0
H1189 H 0.84438 0.30773 0.16206 0.0
H1190 H 0.87836 0.37386 0.20892 0.0
H1191 H 0.8445 0.35263 0.24016 0.0
H1192 H 0.84983 0.35518 0.13202 0.0
H1193 H 0.95125 0.35775 0.19505 0.0
H1194 H 0.91819 0.33767 0.20564 0.0
H1195 H 0.9284 0.37448 0.2089 0.0
C1196 C 0.82472 0.30562 0.19695 0.0
C1197 C 0.82446 0.31794 0.21927 0.0
C1198 C 0.84479 0.31748 0.17923 0.0
C1199 C 0.86469 0.34214 0.1833 0.0
C1200 C 0.86417 0.35436 0.20562 0.0
H1201 H 0.92962 0.47221 0.06342 0.0
H1202 H 0.9038 0.4404 0.09681 0.0
C1203 C 0.84448 0.34236 0.22338 0.0
C1204 C 0.88407 0.35686 0.16324 0.0
H1205 H 0.95183 0.39293 0.15628 0.0
C1206 C 0.87224 0.36301 0.13732 0.0
C1207 C 0.91358 0.36667 0.16969 0.0
C1208 C 0.92861 0.35848 0.19628 0.0
C1209 C 0.88854 0.37979 0.11821 0.0
C1210 C 0.91734 0.39193 0.12529 0.0
C1211 C 0.92962 0.38444 0.15083 0.0
C1212 C 0.93467 0.4128 0.10664 0.0
C1213 C 0.87459 0.38406 0.09054 0.0
C1214 C 0.96183 0.40937 0.10222 0.0
C1215 C 0.97717 0.42823 0.0836 0.0
C1216 C 0.96552 0.45074 0.06885 0.0
C1217 C 0.93902 0.45486 0.0742 0.0
C1218 C 0.92404 0.43642 0.0931 0.0
H1219 H 0.85733 0.36601 0.08661 0.0
H1220 H 0.86479 0.40309 0.08747 0.0
H1221 H 0.89021 0.38672 0.07622 0.0
H1222 H 0.9708 0.3916 0.11257 0.0
H1223 H 0.99748 0.42442 0.07986 0.0
H1224 H 0.75981 0.83775 0.22693 0.0
H1225 H 0.73201 0.86761 0.19498 0.0
H1226 H 0.67945 0.79351 0.16824 0.0
H1227 H 0.70635 0.76399 0.20046 0.0
H1228 H 0.71791 0.87613 0.14202 0.0
H1229 H 0.61966 0.82918 0.18847 0.0
H1230 H 0.65427 0.82272 0.20309 0.0
H1231 H 0.63506 0.80335 0.17774 0.0
C1232 C 0.74272 0.82798 0.2138 0.0
C1233 C 0.73545 0.79853 0.216 0.0
C1234 C 0.72665 0.84502 0.19565 0.0
C1235 C 0.7029 0.8329 0.17957 0.0
C1236 C 0.69693 0.80352 0.18084 0.0
H1237 H 0.57615 0.90318 0.0606 0.0
H1238 H 0.6052 0.87126 0.08831 0.0
C1239 C 0.71262 0.78663 0.19907 0.0
C1240 C 0.68366 0.85055 0.16219 0.0
H1241 H 0.61383 0.85862 0.14792 0.0
C1242 C 0.69519 0.87231 0.14343 0.0
C1243 C 0.65383 0.84582 0.16385 0.0
C1244 C 0.63999 0.8242 0.18454 0.0
C1245 C 0.67786 0.88898 0.12627 0.0
C1246 C 0.64809 0.884 0.12779 0.0
C1247 C 0.63652 0.86224 0.14643 0.0
C1248 C 0.62912 0.90256 0.11154 0.0
C1249 C 0.69151 0.9118 0.10643 0.0
C1250 C 0.63206 0.93046 0.11586 0.0
C1251 C 0.61532 0.94852 0.10042 0.0
C1252 C 0.59504 0.93941 0.0799 0.0
C1253 C 0.59135 0.91106 0.07615 0.0
C1254 C 0.60812 0.89281 0.09191 0.0
H1255 H 0.71321 0.90911 0.10381 0.0
H1256 H 0.67824 0.91215 0.08729 0.0
H1257 H 0.69328 0.93248 0.11304 0.0
H1258 H 0.64764 0.93844 0.13113 0.0
H1259 H 0.61887 0.97 0.10433 0.0
H1260 H 0.23799 0.76381 0.17193 0.0
H1261 H 0.20567 0.74178 0.13801 0.0
H1262 H 0.20029 0.66145 0.18697 0.0
H1263 H 0.23166 0.68363 0.22162 0.0
H1264 H 0.21025 0.7024 0.11096 0.0
H1265 H 0.11704 0.66416 0.16634 0.0
H1266 H 0.14762 0.68879 0.17765 0.0
H1267 H 0.14813 0.65169 0.18304 0.0
C1268 C 0.22973 0.74148 0.17567 0.0
C1269 C 0.23696 0.7256 0.19977 0.0
C1270 C 0.2113 0.72891 0.15616 0.0
C1271 C 0.19988 0.7001 0.16017 0.0
C1272 C 0.20807 0.6839 0.18375 0.0
H1273 H 0.14348 0.58173 0.05837 0.0
H1274 H 0.16784 0.61759 0.08454 0.0
C1275 C 0.22634 0.69654 0.20343 0.0
C1276 C 0.1803 0.68685 0.13928 0.0
H1277 H 0.11643 0.64329 0.12768 0.0
C1278 C 0.18956 0.68983 0.11454 0.0
C1279 C 0.15293 0.67107 0.14363 0.0
C1280 C 0.14069 0.66899 0.16902 0.0
C1281 C 0.17302 0.67601 0.09462 0.0
C1282 C 0.14679 0.65827 0.09971 0.0
C1283 C 0.13666 0.65671 0.12386 0.0
C1284 C 0.13177 0.63828 0.08176 0.0
C1285 C 0.18412 0.68003 0.06845 0.0
C1286 C 0.10312 0.63778 0.07153 0.0
C1287 C 0.08888 0.61699 0.05637 0.0
C1288 C 0.103 0.59615 0.05182 0.0
C1289 C 0.13183 0.59729 0.06166 0.0
C1290 C 0.14595 0.61799 0.07647 0.0
H1291 H 0.19819 0.70086 0.06465 0.0
H1292 H 0.19693 0.66369 0.06826 0.0
H1293 H 0.16645 0.67821 0.05241 0.0
H1294 H 0.09173 0.65317 0.07559 0.0
H1295 H 0.06668 0.61661 0.04909 0.0
H1296 H 0.31155 0.81861 0.83095 0.0
H1297 H 0.3467 0.8371 0.86479 0.0
H1298 H 0.39908 0.77795 0.85748 0.0
H1299 H 0.36407 0.75948 0.82296 0.0
H1300 H 0.36951 0.81326 0.91252 0.0
H1301 H 0.45333 0.85314 0.84549 0.0
H1302 H 0.41665 0.84097 0.83378 0.0
H1303 H 0.43903 0.81615 0.84833 0.0
C1304 C 0.3304 0.80928 0.8365 0.0
C1305 C 0.335 0.78768 0.82385 0.0
C1306 C 0.35052 0.81991 0.85601 0.0
C1307 C 0.3758 0.80928 0.86344 0.0
C1308 C 0.38001 0.7869 0.85172 0.0
H1309 H 0.48464 0.88786 0.99362 0.0
H1310 H 0.46218 0.84963 0.96815 0.0
C1311 C 0.35984 0.77624 0.83208 0.0
C1312 C 0.39788 0.82269 0.8827 0.0
H1313 H 0.46375 0.86451 0.88794 0.0
C1314 C 0.39034 0.82407 0.90735 0.0
C1315 C 0.42501 0.83691 0.87587 0.0
C1316 C 0.43406 0.837 0.8494 0.0
C1317 C 0.40851 0.84037 0.92482 0.0
C1318 C 0.43525 0.85537 0.91763 0.0
C1319 C 0.44339 0.85281 0.89352 0.0
C1320 C 0.45268 0.87737 0.93265 0.0
C1321 C 0.39814 0.84291 0.95006 0.0
C1322 C 0.45612 0.90546 0.92086 0.0
C1323 C 0.46896 0.92708 0.9352 0.0
C1324 C 0.47886 0.92124 0.96175 0.0
C1325 C 0.47722 0.89302 0.97322 0.0
C1326 C 0.46413 0.8712 0.95876 0.0
H1327 H 0.37531 0.83325 0.95091 0.0
H1328 H 0.41076 0.83215 0.9666 0.0
H1329 H 0.40103 0.86532 0.95271 0.0
H1330 H 0.44764 0.91082 0.90076 0.0
H1331 H 0.47019 0.94857 0.92565 0.0
H1332 H 0.1224 0.28138 0.86735 0.0
H1333 H 0.10281 0.31704 0.88294 0.0
H1334 H 0.18692 0.36751 0.89205 0.0
H1335 H 0.20651 0.33215 0.87596 0.0
H1336 H 0.1134 0.33435 0.92922 0.0
H1337 H 0.14278 0.42602 0.85465 0.0
H1338 H 0.14504 0.39078 0.85058 0.0
H1339 H 0.17303 0.41109 0.86985 0.0
C1340 C 0.13669 0.30017 0.87254 0.0
C1341 C 0.166 0.30397 0.87038 0.0
C1342 C 0.12545 0.32059 0.88136 0.0
C1343 C 0.14326 0.34525 0.88829 0.0
C1344 C 0.17257 0.34911 0.88612 0.0
H1345 H 0.13005 0.47437 0.97572 0.0
H1346 H 0.14436 0.44333 0.95004 0.0
C1347 C 0.18378 0.32881 0.87703 0.0
C1348 C 0.13144 0.36597 0.89933 0.0
H1349 H 0.12846 0.43576 0.89375 0.0
C1350 C 0.11639 0.35645 0.92122 0.0
C1351 C 0.13527 0.39487 0.88893 0.0
C1352 C 0.14966 0.40626 0.86455 0.0
C1353 C 0.1059 0.37507 0.93342 0.0
C1354 C 0.11041 0.40399 0.92343 0.0
C1355 C 0.12506 0.41355 0.90136 0.0
C1356 C 0.10135 0.42471 0.93661 0.0
C1357 C 0.09083 0.36385 0.95745 0.0
C1358 C 0.07238 0.42508 0.93694 0.0
C1359 C 0.06406 0.44296 0.95149 0.0
C1360 C 0.08463 0.4606 0.96614 0.0
C1361 C 0.11365 0.46092 0.96485 0.0
C1362 C 0.1219 0.44325 0.95013 0.0
H1363 H 0.09286 0.34174 0.96498 0.0
H1364 H 0.09947 0.37698 0.97312 0.0
H1365 H 0.06784 0.36474 0.9527 0.0
H1366 H 0.0562 0.41108 0.92642 0.0
H1367 H 0.04155 0.44218 0.95203 0.0
H1368 H 0.68996 0.19303 0.77229 0.0
H1369 H 0.66448 0.16234 0.80665 0.0
H1370 H 0.73562 0.18544 0.86349 0.0
H1371 H 0.76081 0.21703 0.82909 0.0
H1372 H 0.67457 0.117 0.84119 0.0
H1373 H 0.67117 0.20481 0.89437 0.0
H1374 H 0.68256 0.21059 0.86223 0.0
H1375 H 0.70654 0.20123 0.8904 0.0
C1376 C 0.70027 0.19133 0.7921 0.0
C1377 C 0.72749 0.20716 0.79796 0.0
C1378 C 0.68569 0.17376 0.81174 0.0
C1379 C 0.6978 0.17184 0.83783 0.0
C1380 C 0.72548 0.18697 0.84364 0.0
H1381 H 0.63984 0.08313 0.98313 0.0
H1382 H 0.66583 0.10986 0.94772 0.0
C1383 C 0.74007 0.20473 0.82393 0.0
C1384 C 0.68087 0.15476 0.85876 0.0
H1385 H 0.65309 0.15894 0.91436 0.0
C1386 C 0.66981 0.12622 0.85714 0.0
C1387 C 0.67435 0.16675 0.87952 0.0
C1388 C 0.68401 0.19757 0.88169 0.0
C1389 C 0.65299 0.10932 0.87588 0.0
C1390 C 0.64677 0.12127 0.89673 0.0
C1391 C 0.65777 0.14978 0.89834 0.0
C1392 C 0.63021 0.10433 0.91789 0.0
C1393 C 0.64252 0.07863 0.87361 0.0
C1394 C 0.60121 0.09233 0.91307 0.0
C1395 C 0.58597 0.07694 0.93353 0.0
C1396 C 0.5995 0.0732 0.95918 0.0
C1397 C 0.62854 0.08536 0.96374 0.0
C1398 C 0.64357 0.10077 0.94345 0.0
H1399 H 0.65338 0.07149 0.85926 0.0
H1400 H 0.6459 0.0655 0.89281 0.0
H1401 H 0.61932 0.07512 0.86719 0.0
H1402 H 0.5903 0.09511 0.89355 0.0
H1403 H 0.5637 0.06796 0.92925 0.0
H1404 H 0.79079 0.67285 0.82417 0.0
H1405 H 0.82699 0.65331 0.85521 0.0
H1406 H 0.89112 0.72297 0.82825 0.0
H1407 H 0.85473 0.74221 0.79651 0.0
H1408 H 0.90937 0.67416 0.83154 0.0
H1409 H 0.86615 0.67316 0.92399 0.0
H1410 H 0.84037 0.65455 0.90184 0.0
H1411 H 0.8527 0.69169 0.89362 0.0
C1412 C 0.81253 0.68432 0.82523 0.0
C1413 C 0.81967 0.70953 0.80838 0.0
C1414 C 0.83328 0.67318 0.84315 0.0
C1415 C 0.86196 0.68681 0.84474 0.0
C1416 C 0.8692 0.71206 0.82779 0.0
H1417 H 0.98653 0.61886 0.96857 0.0
H1418 H 0.95997 0.65215 0.93972 0.0
C1419 C 0.84832 0.72327 0.80979 0.0
C1420 C 0.88436 0.67353 0.8627 0.0
H1421 H 0.90022 0.64305 0.92556 0.0
C1422 C 0.90749 0.66776 0.85216 0.0
C1423 C 0.88242 0.66517 0.88981 0.0
C1424 C 0.85921 0.67171 0.90303 0.0
C1425 C 0.92769 0.65294 0.86752 0.0
C1426 C 0.92483 0.64332 0.89427 0.0
C1427 C 0.9025 0.65018 0.90509 0.0
C1428 C 0.94339 0.62444 0.91081 0.0
C1429 C 0.95187 0.64751 0.85484 0.0
C1430 C 0.9433 0.59783 0.90426 0.0
C1431 C 0.95831 0.57884 0.92071 0.0
C1432 C 0.97406 0.58582 0.94427 0.0
C1433 C 0.97504 0.61287 0.95045 0.0
C1434 C 0.95963 0.63185 0.93404 0.0
H1435 H 0.95617 0.66298 0.83714 0.0
H1436 H 0.97168 0.64833 0.86856 0.0
H1437 H 0.9461 0.62626 0.84884 0.0
H1438 H 0.93067 0.59123 0.88681 0.0
H1439 H 0.95687 0.55822 0.91527 0.0
H1440 H 0.19691 0.27079 0.2236 0.0
H1441 H 0.16244 0.29208 0.19101 0.0
H1442 H 0.22971 0.36006 0.1672 0.0
H1443 H 0.26392 0.33861 0.19909 0.0
H1444 H 0.14647 0.34256 0.18802 0.0
H1445 H 0.19224 0.34273 0.09699 0.0
H1446 H 0.20354 0.32277 0.12738 0.0
H1447 H 0.21798 0.35961 0.12032 0.0
C1448 C 0.2044 0.28981 0.21082 0.0
C1449 C 0.23335 0.30255 0.21341 0.0
C1450 C 0.18463 0.30218 0.19234 0.0
C1451 C 0.19333 0.3276 0.17605 0.0
C1452 C 0.22231 0.34014 0.17874 0.0
H1453 H 0.10763 0.46269 0.10329 0.0
H1454 H 0.13193 0.42833 0.13208 0.0
C1455 C 0.24193 0.32788 0.19715 0.0
C1456 C 0.17216 0.34221 0.15763 0.0
H1457 H 0.15966 0.37439 0.09479 0.0
C1458 C 0.14921 0.34912 0.16756 0.0
C1459 C 0.17529 0.35089 0.13074 0.0
C1460 C 0.19845 0.34339 0.11816 0.0
C1461 C 0.13036 0.36528 0.15184 0.0
C1462 C 0.13437 0.37504 0.12532 0.0
C1463 C 0.1565 0.36713 0.11509 0.0
C1464 C 0.11719 0.395 0.10844 0.0
C1465 C 0.10637 0.37204 0.16384 0.0
C1466 C 0.10049 0.38799 0.0853 0.0
C1467 C 0.08615 0.40772 0.06871 0.0
C1468 C 0.08869 0.43517 0.0746 0.0
C1469 C 0.10503 0.44183 0.09802 0.0
C1470 C 0.11894 0.42208 0.11467 0.0
H1471 H 0.10131 0.35707 0.18167 0.0
H1472 H 0.11275 0.39346 0.16941 0.0
H1473 H 0.08684 0.37164 0.14978 0.0
H1474 H 0.09887 0.36734 0.07987 0.0
H1475 H 0.07412 0.40188 0.05075 0.0
H1476 H 0.20473 0.72301 0.77817 0.0
H1477 H 0.16844 0.69332 0.80462 0.0
H1478 H 0.23463 0.67205 0.86447 0.0
H1479 H 0.27066 0.70176 0.8384 0.0
H1480 H 0.19224 0.62435 0.84531 0.0
H1481 H 0.14061 0.70448 0.8744 0.0
H1482 H 0.15431 0.71013 0.84324 0.0
H1483 H 0.1785 0.7111 0.87264 0.0
C1484 C 0.21143 0.71253 0.79723 0.0
C1485 C 0.24059 0.71521 0.8064 0.0
C1486 C 0.19068 0.69545 0.81232 0.0
C1487 C 0.1987 0.68051 0.83674 0.0
C1488 C 0.22779 0.68339 0.84584 0.0
H1489 H 0.14047 0.5608 0.96475 0.0
H1490 H 0.16452 0.58993 0.92919 0.0
C1491 C 0.2484 0.70045 0.83091 0.0
C1492 C 0.17734 0.66057 0.85237 0.0
H1493 H 0.12722 0.65778 0.89353 0.0
C1494 C 0.17777 0.63166 0.85558 0.0
C1495 C 0.15818 0.66986 0.86568 0.0
C1496 C 0.15761 0.7006 0.86391 0.0
C1497 C 0.16024 0.61206 0.87213 0.0
C1498 C 0.14216 0.62156 0.88654 0.0
C1499 C 0.14088 0.65033 0.8825 0.0
C1500 C 0.1265 0.60251 0.90749 0.0
C1501 C 0.16141 0.58131 0.87409 0.0
C1502 C 0.09691 0.60002 0.90773 0.0
C1503 C 0.08288 0.58327 0.92839 0.0
C1504 C 0.09822 0.56893 0.94949 0.0
C1505 C 0.12777 0.57136 0.94895 0.0
C1506 C 0.14166 0.58793 0.92839 0.0
H1507 H 0.16778 0.57657 0.85595 0.0
H1508 H 0.17758 0.57574 0.89034 0.0
H1509 H 0.14054 0.56784 0.87788 0.0
H1510 H 0.08469 0.61121 0.892 0.0
H1511 H 0.06019 0.58213 0.92815 0.0
H1512 H 0.30626 0.18632 0.79906 0.0
H1513 H 0.33175 0.15407 0.83067 0.0
H1514 H 0.38787 0.22504 0.8597 0.0
H1515 H 0.36285 0.25698 0.8282 0.0
H1516 H 0.39499 0.15729 0.83174 0.0
H1517 H 0.36566 0.17061 0.92736 0.0
H1518 H 0.34208 0.17469 0.89755 0.0
H1519 H 0.3724 0.20159 0.90367 0.0
C1520 C 0.32343 0.19491 0.81278 0.0
C1521 C 0.33216 0.22419 0.81155 0.0
C1522 C 0.33818 0.17652 0.8307 0.0
C1523 C 0.36168 0.18705 0.84785 0.0
C1524 C 0.36962 0.21627 0.84711 0.0
H1525 H 0.48693 0.11338 0.96469 0.0
H1526 H 0.45939 0.14598 0.93619 0.0
C1527 C 0.35525 0.23454 0.82908 0.0
C1528 C 0.37977 0.16806 0.86474 0.0
H1529 H 0.40257 0.1454 0.92827 0.0
C1530 C 0.39644 0.1545 0.85284 0.0
C1531 C 0.38231 0.16487 0.89231 0.0
C1532 C 0.36463 0.17854 0.90616 0.0
C1533 C 0.41565 0.13818 0.86763 0.0
C1534 C 0.41781 0.13444 0.89529 0.0
C1535 C 0.40119 0.14818 0.90717 0.0
C1536 C 0.43595 0.11525 0.91208 0.0
C1537 C 0.43406 0.12582 0.8533 0.0
C1538 C 0.43224 0.08706 0.90826 0.0
C1539 C 0.44813 0.06858 0.92424 0.0
C1540 C 0.46811 0.07739 0.94504 0.0
C1541 C 0.47209 0.10576 0.9488 0.0
C1542 C 0.45612 0.12441 0.93258 0.0
H1543 H 0.43734 0.1383 0.83386 0.0
H1544 H 0.45522 0.12476 0.86451 0.0
H1545 H 0.42333 0.10424 0.85013 0.0
H1546 H 0.41643 0.07901 0.89321 0.0
H1547 H 0.44409 0.04699 0.92055 0.0
H1548 H 0.82823 0.33195 0.80398 0.0
H1549 H 0.86027 0.35467 0.83781 0.0
H1550 H 0.86189 0.27405 0.88497 0.0
H1551 H 0.82916 0.2512 0.85159 0.0
H1552 H 0.85566 0.31387 0.91331 0.0
H1553 H 0.94547 0.35482 0.854 0.0
H1554 H 0.91289 0.36506 0.8383 0.0
H1555 H 0.9156 0.32847 0.84437 0.0
C1556 C 0.83527 0.31901 0.82155 0.0
C1557 C 0.82652 0.28966 0.82479 0.0
C1558 C 0.85386 0.33203 0.84077 0.0
C1559 C 0.86416 0.31598 0.86358 0.0
C1560 C 0.8546 0.28681 0.86734 0.0
H1561 H 0.99779 0.40541 0.97032 0.0
H1562 H 0.97316 0.36763 0.94506 0.0
C1563 C 0.83594 0.27379 0.84817 0.0
C1564 C 0.88414 0.32985 0.88382 0.0
H1565 H 0.94678 0.37608 0.89253 0.0
C1566 C 0.8758 0.32711 0.90888 0.0
C1567 C 0.91077 0.34658 0.87828 0.0
C1568 C 0.92188 0.34869 0.85236 0.0
C1569 C 0.89243 0.34218 0.92796 0.0
C1570 C 0.91784 0.36074 0.92169 0.0
C1571 C 0.92717 0.36201 0.89725 0.0
C1572 C 0.9327 0.38173 0.93872 0.0
C1573 C 0.88224 0.33871 0.95447 0.0
C1574 C 0.91817 0.40206 0.94337 0.0
C1575 C 0.93209 0.42352 0.95741 0.0
C1576 C 0.96099 0.42528 0.96719 0.0
C1577 C 0.97551 0.40451 0.96312 0.0
C1578 C 0.9615 0.38302 0.94869 0.0
H1579 H 0.86856 0.3178 0.95905 0.0
H1580 H 0.90042 0.3412 0.96998 0.0
H1581 H 0.86934 0.35497 0.95469 0.0
H1582 H 0.89613 0.40179 0.93547 0.0
H1583 H 0.92017 0.43902 0.96034 0.0
H1584 H 0.71382 0.88084 0.83347 0.0
H1585 H 0.67904 0.90159 0.85028 0.0
H1586 H 0.7147 0.87686 0.92892 0.0
H1587 H 0.749 0.85568 0.91237 0.0
H1588 H 0.65422 0.86656 0.92173 0.0
H1589 H 0.70109 0.97597 0.88195 0.0
H1590 H 0.6909 0.95123 0.85904 0.0
H1591 H 0.71958 0.94701 0.88432 0.0
C1592 C 0.71399 0.87952 0.85434 0.0
C1593 C 0.73439 0.86686 0.87157 0.0
C1594 C 0.69428 0.8916 0.86391 0.0
C1595 C 0.69457 0.89115 0.89085 0.0
C1596 C 0.7142 0.87762 0.90806 0.0
H1597 H 0.64222 0.98879 0.98858 0.0
H1598 H 0.66567 0.96671 0.96136 0.0
C1599 C 0.73392 0.86568 0.89855 0.0
C1600 C 0.67512 0.90537 0.90139 0.0
H1601 H 0.6624 0.97019 0.90637 0.0
C1602 C 0.65573 0.88918 0.91814 0.0
C1603 C 0.67735 0.93493 0.89687 0.0
C1604 C 0.69846 0.95344 0.87973 0.0
C1605 C 0.63894 0.90178 0.93091 0.0
C1606 C 0.64143 0.93137 0.92663 0.0
C1607 C 0.66038 0.94751 0.90945 0.0
C1608 C 0.62657 0.94608 0.94165 0.0
C1609 C 0.61961 0.88346 0.94977 0.0
C1610 C 0.59672 0.94235 0.93921 0.0
C1611 C 0.58313 0.95503 0.9548 0.0
C1612 C 0.5992 0.97162 0.97316 0.0
C1613 C 0.62912 0.976 0.97484 0.0
C1614 C 0.64261 0.96345 0.95922 0.0
H1615 H 0.6239 0.86168 0.95433 0.0
H1616 H 0.6221 0.89244 0.96826 0.0
H1617 H 0.59713 0.88245 0.94114 0.0
H1618 H 0.58392 0.92937 0.92548 0.0
H1619 H 0.56007 0.95125 0.95292 0.0
H1620 H 0.89342 0.68715 0.18537 0.0
H1621 H 0.90924 0.65117 0.1668 0.0
H1622 H 0.91894 0.70743 0.09472 0.0
H1623 H 0.90116 0.74255 0.11231 0.0
H1624 H 0.89591 0.65801 0.08422 0.0
H1625 H 0.98854 0.64608 0.15791 0.0
H1626 H 0.95548 0.63844 0.17191 0.0
H1627 H 0.96829 0.67349 0.15646 0.0
C1628 C 0.89853 0.6918 0.16544 0.0
C1629 C 0.89621 0.7181 0.15054 0.0
C1630 C 0.90811 0.67129 0.15497 0.0
C1631 C 0.91612 0.67672 0.12953 0.0
C1632 C 0.91326 0.70269 0.11449 0.0
H1633 H 1.01868 0.58806 0.05958 0.0
H1634 H 1.00129 0.61867 0.0838 0.0
C1635 C 0.90332 0.72299 0.12475 0.0
C1636 C 0.92676 0.65535 0.11807 0.0
H1637 H 0.97731 0.61372 0.12729 0.0
C1638 C 0.91375 0.64839 0.09368 0.0
C1639 C 0.95034 0.64298 0.13011 0.0
C1640 C 0.96667 0.65082 0.1554 0.0
C1641 C 0.92359 0.6297 0.081 0.0
C1642 C 0.94648 0.61652 0.09345 0.0
C1643 C 0.95955 0.62345 0.11784 0.0
C1644 C 0.95765 0.59626 0.08102 0.0
C1645 C 0.90992 0.62518 0.05389 0.0
C1646 C 0.93931 0.57274 0.07228 0.0
C1647 C 0.94911 0.55556 0.05805 0.0
C1648 C 0.97769 0.56101 0.05286 0.0
C1649 C 0.99655 0.58332 0.06323 0.0
C1650 C 0.98659 0.60086 0.07705 0.0
H1651 H 0.8993 0.64289 0.04427 0.0
H1652 H 0.92583 0.62283 0.04139 0.0
H1653 H 0.89341 0.6058 0.05512 0.0
H1654 H 0.91716 0.56802 0.07588 0.0
H1655 H 0.93414 0.53827 0.05069 0.0
H1656 H 0.30433 0.79646 0.19523 0.0
H1657 H 0.33058 0.82802 0.16136 0.0
H1658 H 0.39962 0.85201 0.21975 0.0
H1659 H 0.37341 0.82088 0.25352 0.0
H1660 H 0.35564 0.88944 0.15838 0.0
H1661 H 0.43638 0.82162 0.16484 0.0
H1662 H 0.40218 0.80883 0.17699 0.0
H1663 H 0.42989 0.83037 0.19522 0.0
C1664 C 0.32484 0.80891 0.20084 0.0
C1665 C 0.33661 0.80666 0.22707 0.0
C1666 C 0.33991 0.82677 0.18148 0.0
C1667 C 0.36723 0.84217 0.18798 0.0
C1668 C 0.37875 0.84015 0.21422 0.0
H1669 H 0.49916 0.94652 0.09522 0.0
H1670 H 0.47268 0.91967 0.13103 0.0
C1671 C 0.3637 0.82247 0.2335 0.0
C1672 C 0.38413 0.85987 0.16742 0.0
H1673 H 0.44437 0.86543 0.13785 0.0
C1674 C 0.37498 0.88416 0.15382 0.0
C1675 C 0.40957 0.85316 0.16166 0.0
C1676 C 0.4201 0.82698 0.17525 0.0
C1677 C 0.3907 0.90207 0.13483 0.0
C1678 C 0.41593 0.89512 0.12869 0.0
C1679 C 0.42516 0.87089 0.1425 0.0
C1680 C 0.43222 0.9119 0.10718 0.0
C1681 C 0.38038 0.92861 0.12196 0.0
C1682 C 0.41858 0.91613 0.08175 0.0
C1683 C 0.43355 0.93149 0.06138 0.0
C1684 C 0.46283 0.94284 0.06569 0.0
C1685 C 0.47668 0.93822 0.09113 0.0
C1686 C 0.46154 0.92285 0.11163 0.0
H1687 H 0.36705 0.93548 0.13446 0.0
H1688 H 0.39846 0.946 0.11751 0.0
H1689 H 0.36705 0.92458 0.10343 0.0
H1690 H 0.39626 0.90727 0.07751 0.0
H1691 H 0.42204 0.93425 0.04212 0.0
H1692 H 0.67863 0.23496 0.22234 0.0
H1693 H 0.64346 0.21168 0.19075 0.0
H1694 H 0.70943 0.21434 0.14222 0.0
H1695 H 0.74459 0.23852 0.17327 0.0
H1696 H 0.65861 0.22662 0.11362 0.0
H1697 H 0.6385 0.12905 0.1849 0.0
H1698 H 0.63276 0.16044 0.19508 0.0
H1699 H 0.66809 0.15723 0.1904 0.0
C1700 C 0.68569 0.23068 0.20492 0.0
C1701 C 0.7146 0.238 0.20064 0.0
C1702 C 0.66552 0.21729 0.1869 0.0
C1703 C 0.67387 0.21076 0.16436 0.0
C1704 C 0.70252 0.21899 0.15957 0.0
H1705 H 0.63017 0.08839 0.06833 0.0
H1706 H 0.64837 0.12538 0.09516 0.0
C1707 C 0.72268 0.23249 0.17752 0.0
C1708 C 0.6533 0.19392 0.14647 0.0
H1709 H 0.61475 0.12787 0.14278 0.0
C1710 C 0.64861 0.20518 0.12006 0.0
C1711 C 0.64029 0.1659 0.1549 0.0
C1712 C 0.64524 0.15226 0.18279 0.0
C1713 C 0.6322 0.18877 0.10173 0.0
C1714 C 0.62018 0.16053 0.11005 0.0
C1715 C 0.62373 0.1497 0.13659 0.0
C1716 C 0.60869 0.1404 0.0913 0.0
C1717 C 0.62909 0.20103 0.07335 0.0
C1718 C 0.58029 0.13693 0.07974 0.0
C1719 C 0.56963 0.11554 0.06412 0.0
C1720 C 0.58723 0.0973 0.06027 0.0
C1721 C 0.61587 0.10174 0.07121 0.0
C1722 C 0.62641 0.12297 0.08649 0.0
H1723 H 0.63809 0.22387 0.07016 0.0
H1724 H 0.64019 0.19001 0.06217 0.0
H1725 H 0.60625 0.1977 0.0655 0.0
H1726 H 0.56627 0.15018 0.08337 0.0
H1727 H 0.54749 0.11258 0.056 0.0
H1728 H 0.70905 0.67166 0.79272 0.0
H1729 H 0.6845 0.64085 0.82744 0.0
H1730 H 0.70192 0.70852 0.87366 0.0
H1731 H 0.72641 0.73949 0.83907 0.0
H1732 H 0.7184 0.65946 0.90019 0.0
H1733 H 0.60716 0.63782 0.85324 0.0
H1734 H 0.63341 0.63146 0.83485 0.0
H1735 H 0.63353 0.66661 0.84042 0.0
C1736 C 0.70704 0.68029 0.80988 0.0
C1737 C 0.7197 0.70818 0.81288 0.0
C1738 C 0.69301 0.66256 0.82983 0.0
C1739 C 0.69122 0.67241 0.85312 0.0
C1740 C 0.70305 0.70045 0.85587 0.0
H1741 H 0.58921 0.58969 0.97687 0.0
H1742 H 0.61257 0.62234 0.9426 0.0
C1743 C 0.71703 0.71815 0.83598 0.0
C1744 C 0.67879 0.65314 0.87534 0.0
H1745 H 0.61759 0.61066 0.89408 0.0
C1746 C 0.69634 0.64882 0.89889 0.0
C1747 C 0.64996 0.63946 0.87367 0.0
C1748 C 0.62979 0.64419 0.84928 0.0
C1749 C 0.68591 0.63106 0.92074 0.0
C1750 C 0.65725 0.6169 0.9189 0.0
C1751 C 0.63963 0.62137 0.89541 0.0
C1752 C 0.64479 0.59789 0.94125 0.0
C1753 C 0.70549 0.62811 0.94577 0.0
C1754 C 0.6554 0.5734 0.95224 0.0
C1755 C 0.64213 0.55461 0.97206 0.0
C1756 C 0.61786 0.5599 0.98108 0.0
C1757 C 0.60791 0.58492 0.97052 0.0
C1758 C 0.62115 0.60361 0.95079 0.0
H1759 H 0.72419 0.64555 0.94594 0.0
H1760 H 0.69405 0.62761 0.96288 0.0
H1761 H 0.71348 0.6081 0.9479 0.0
H1762 H 0.67333 0.5683 0.94488 0.0
H1763 H 0.65013 0.53541 0.97947 0.0
H1764 H 0.39962 0.65338 0.76069 0.0
H1765 H 0.45095 0.65475 0.77298 0.0
H1766 H 0.4363 0.63388 0.85389 0.0
H1767 H 0.38546 0.63298 0.84197 0.0
H1768 H 0.48485 0.68612 0.83428 0.0
H1769 H 0.48733 0.58084 0.80988 0.0
H1770 H 0.46896 0.60593 0.7884 0.0
H1771 H 0.45341 0.58632 0.81667 0.0
C1772 C 0.40745 0.64906 0.7811 0.0
C1773 C 0.38858 0.64298 0.80043 0.0
C1774 C 0.43666 0.64995 0.788 0.0
C1775 C 0.44721 0.6448 0.81427 0.0
C1776 C 0.42839 0.63819 0.83348 0.0
H1777 H 0.49008 0.60543 0.94408 0.0
H1778 H 0.49226 0.63717 0.90348 0.0
C1779 C 0.39934 0.63726 0.82665 0.0
C1780 C 0.47758 0.6449 0.82272 0.0
H1781 H 0.51449 0.59341 0.84942 0.0
C1782 C 0.49242 0.6664 0.83671 0.0
C1783 C 0.48813 0.61977 0.82498 0.0
C1784 C 0.47383 0.59688 0.80904 0.0
C1785 C 0.51395 0.66105 0.85673 0.0
C1786 C 0.51969 0.6335 0.86303 0.0
C1787 C 0.50938 0.61432 0.84523 0.0
C1788 C 0.526 0.6213 0.89051 0.0
C1789 C 0.52754 0.68367 0.87317 0.0
C1790 C 0.54466 0.60214 0.89724 0.0
C1791 C 0.54296 0.58341 0.9204 0.0
C1792 C 0.52245 0.58351 0.93711 0.0
C1793 C 0.50581 0.60452 0.93153 0.0
C1794 C 0.50747 0.62313 0.90841 0.0
H1795 H 0.53279 0.70413 0.86053 0.0
H1796 H 0.51223 0.6861 0.88623 0.0
H1797 H 0.54724 0.67867 0.88517 0.0
H1798 H 0.55899 0.60025 0.8837 0.0
H1799 H 0.55668 0.56792 0.92447 0.0
H1800 H 0.34043 0.35823 0.77788 0.0
H1801 H 0.37047 0.38981 0.80663 0.0
H1802 H 0.35084 0.32793 0.87345 0.0
H1803 H 0.32069 0.29679 0.84521 0.0
H1804 H 0.34684 0.37825 0.88255 0.0
H1805 H 0.44942 0.38579 0.84305 0.0
H1806 H 0.42169 0.39637 0.81915 0.0
H1807 H 0.41816 0.36045 0.83455 0.0
C1808 C 0.34267 0.3513 0.79868 0.0
C1809 C 0.32826 0.32474 0.80909 0.0
C1810 C 0.35999 0.36934 0.81512 0.0
C1811 C 0.36344 0.36111 0.84228 0.0
C1812 C 0.34872 0.33481 0.85262 0.0
H1813 H 0.49261 0.43533 0.95857 0.0
H1814 H 0.46394 0.4053 0.92778 0.0
C1815 C 0.33137 0.31695 0.83632 0.0
C1816 C 0.38159 0.37986 0.86029 0.0
H1817 H 0.4494 0.41502 0.87492 0.0
C1818 C 0.36927 0.38627 0.88083 0.0
C1819 C 0.41101 0.39001 0.85842 0.0
C1820 C 0.42598 0.38263 0.83778 0.0
C1821 C 0.38536 0.40252 0.89936 0.0
C1822 C 0.41456 0.41344 0.89703 0.0
C1823 C 0.427 0.40688 0.87664 0.0
C1824 C 0.43236 0.43185 0.91548 0.0
C1825 C 0.37097 0.4072 0.92167 0.0
C1826 C 0.42449 0.45698 0.91863 0.0
C1827 C 0.44061 0.47399 0.93636 0.0
C1828 C 0.46537 0.46657 0.95122 0.0
C1829 C 0.47361 0.44165 0.94765 0.0
C1830 C 0.45728 0.4245 0.92995 0.0
H1831 H 0.35175 0.39081 0.92508 0.0
H1832 H 0.38568 0.4072 0.93999 0.0
H1833 H 0.36405 0.42784 0.91693 0.0
H1834 H 0.40583 0.46357 0.90726 0.0
H1835 H 0.4337 0.49316 0.93822 0.0
H1836 H 0.71511 0.36771 0.83424 0.0
H1837 H 0.6945 0.38314 0.8684 0.0
H1838 H 0.61828 0.39123 0.81611 0.0
H1839 H 0.63855 0.37552 0.782 0.0
H1840 H 0.67525 0.43588 0.86439 0.0
H1841 H 0.58912 0.34354 0.88394 0.0
H1842 H 0.61942 0.34212 0.86778 0.0
H1843 H 0.59073 0.35811 0.8502 0.0
C1844 C 0.69381 0.37241 0.83014 0.0
C1845 C 0.67846 0.37038 0.80541 0.0
C1846 C 0.68214 0.38135 0.84962 0.0
C1847 C 0.65477 0.38806 0.84486 0.0
C1848 C 0.63929 0.38581 0.8203 0.0
H1849 H 0.57765 0.48756 0.92735 0.0
H1850 H 0.59572 0.46731 0.89485 0.0
C1851 C 0.65101 0.37707 0.80077 0.0
C1852 C 0.64286 0.39856 0.86517 0.0
H1853 H 0.58847 0.3836 0.90363 0.0
C1854 C 0.65634 0.42442 0.87304 0.0
C1855 C 0.6183 0.38346 0.87653 0.0
C1856 C 0.6036 0.35514 0.86941 0.0
C1857 C 0.64559 0.43585 0.89164 0.0
C1858 C 0.62063 0.42109 0.90252 0.0
C1859 C 0.60746 0.39497 0.89505 0.0
C1860 C 0.60816 0.43242 0.92194 0.0
C1861 C 0.66114 0.46352 0.89972 0.0
C1862 C 0.60846 0.41907 0.9478 0.0
C1863 C 0.59817 0.43058 0.9665 0.0
C1864 C 0.58712 0.45558 0.95963 0.0
C1865 C 0.586 0.46834 0.93343 0.0
C1866 C 0.59646 0.45689 0.91481 0.0
H1867 H 0.68296 0.46932 0.89361 0.0
H1868 H 0.64914 0.48033 0.89051 0.0
H1869 H 0.66263 0.46274 0.92118 0.0
H1870 H 0.61728 0.40008 0.95364 0.0
H1871 H 0.59925 0.42005 0.98641 0.0
H1872 H 0.63107 0.26228 0.20452 0.0
H1873 H 0.58033 0.26407 0.20026 0.0
H1874 H 0.58504 0.3028 0.12025 0.0
H1875 H 0.63495 0.30089 0.12441 0.0
H1876 H 0.57156 0.31351 0.19669 0.0
H1877 H 0.50245 0.27539 0.11442 0.0
H1878 H 0.53203 0.25853 0.12919 0.0
H1879 H 0.53623 0.28664 0.10206 0.0
C1880 C 0.62086 0.27015 0.18574 0.0
C1881 C 0.63714 0.28243 0.16505 0.0
C1882 C 0.59177 0.27083 0.18324 0.0
C1883 C 0.57867 0.28388 0.16007 0.0
C1884 C 0.59415 0.29218 0.1383 0.0
H1885 H 0.59435 0.42106 0.10535 0.0
H1886 H 0.5843 0.37646 0.13388 0.0
C1887 C 0.6231 0.29139 0.14076 0.0
C1888 C 0.55394 0.29745 0.16063 0.0
H1889 H 0.51269 0.33055 0.11229 0.0
C1890 C 0.55731 0.31624 0.17888 0.0
C1891 C 0.53392 0.30059 0.13838 0.0
C1892 C 0.52581 0.27885 0.12016 0.0
C1893 C 0.54738 0.34164 0.17204 0.0
C1894 C 0.53379 0.34782 0.14672 0.0
C1895 C 0.52428 0.32619 0.13137 0.0
C1896 C 0.53934 0.37678 0.13301 0.0
C1897 C 0.55561 0.36353 0.19012 0.0
C1898 C 0.51743 0.39184 0.12352 0.0
C1899 C 0.52336 0.41785 0.10773 0.0
C1900 C 0.55098 0.42829 0.10043 0.0
C1901 C 0.57291 0.41344 0.11062 0.0
C1902 C 0.56718 0.38805 0.12695 0.0
H1903 H 0.55663 0.35353 0.21081 0.0
H1904 H 0.57705 0.37586 0.18661 0.0
H1905 H 0.54026 0.37818 0.18667 0.0
H1906 H 0.49582 0.38309 0.12771 0.0
H1907 H 0.50612 0.42901 0.1001 0.0
H1908 H 0.73074 0.66551 0.25292 0.0
H1909 H 0.70171 0.63176 0.22567 0.0
H1910 H 0.71753 0.69194 0.15692 0.0
H1911 H 0.74658 0.72537 0.18369 0.0
H1912 H 0.653 0.6348 0.19161 0.0
H1913 H 0.74025 0.62368 0.13806 0.0
H1914 H 0.74674 0.64034 0.1671 0.0
H1915 H 0.73649 0.6596 0.136 0.0
C1916 C 0.72804 0.67153 0.232 0.0
C1917 C 0.74117 0.69819 0.22057 0.0
C1918 C 0.71145 0.65221 0.21644 0.0
C1919 C 0.70782 0.65909 0.18915 0.0
C1920 C 0.72057 0.68581 0.17782 0.0
H1921 H 0.57742 0.57805 0.07808 0.0
H1922 H 0.60555 0.60931 0.10794 0.0
C1923 C 0.73717 0.705 0.19327 0.0
C1924 C 0.69052 0.63869 0.17237 0.0
H1925 H 0.69301 0.60626 0.12004 0.0
C1926 C 0.66178 0.62838 0.17608 0.0
C1927 C 0.70203 0.62998 0.15229 0.0
C1928 C 0.73314 0.63873 0.14826 0.0
C1929 C 0.64412 0.61016 0.1599 0.0
C1930 C 0.65533 0.60251 0.13905 0.0
C1931 C 0.68423 0.61236 0.13575 0.0
C1932 C 0.63786 0.58365 0.12085 0.0
C1933 C 0.61379 0.59893 0.16564 0.0
C1934 C 0.64701 0.55925 0.11741 0.0
C1935 C 0.63127 0.54164 0.10003 0.0
C1936 C 0.60586 0.54789 0.08561 0.0
C1937 C 0.59677 0.57246 0.08893 0.0
C1938 C 0.61272 0.59025 0.10622 0.0
H1939 H 0.61107 0.60001 0.18615 0.0
H1940 H 0.59954 0.61181 0.15279 0.0
H1941 H 0.60691 0.5768 0.16199 0.0
H1942 H 0.66634 0.5537 0.12834 0.0
H1943 H 0.63897 0.52291 0.09813 0.0
H1944 H 0.36459 0.59338 0.23993 0.0
H1945 H 0.3882 0.57725 0.2084 0.0
H1946 H 0.42368 0.66307 0.18016 0.0
H1947 H 0.40075 0.67939 0.21218 0.0
H1948 H 0.38176 0.58975 0.15424 0.0
H1949 H 0.49365 0.62467 0.19487 0.0
H1950 H 0.46377 0.62228 0.21292 0.0
H1951 H 0.47235 0.65163 0.18805 0.0
C1952 C 0.37768 0.60884 0.22724 0.0
C1953 C 0.38092 0.63769 0.22874 0.0
C1954 C 0.39103 0.59959 0.20911 0.0
C1955 C 0.40805 0.61892 0.19218 0.0
C1956 C 0.41107 0.64775 0.19335 0.0
H1957 H 0.46199 0.58586 0.05066 0.0
H1958 H 0.44256 0.6047 0.08314 0.0
C1959 C 0.39766 0.65706 0.21146 0.0
C1960 C 0.42198 0.6088 0.17291 0.0
H1961 H 0.48676 0.60706 0.15443 0.0
C1962 C 0.40471 0.59353 0.15428 0.0
C1963 C 0.45195 0.61347 0.1732 0.0
C1964 C 0.4716 0.62868 0.19345 0.0
C1965 C 0.41657 0.58311 0.13573 0.0
C1966 C 0.4465 0.58836 0.13561 0.0
C1967 C 0.46382 0.60329 0.15444 0.0
C1968 C 0.46007 0.57824 0.11613 0.0
C1969 C 0.397 0.56616 0.11664 0.0
C1970 C 0.47718 0.55773 0.12397 0.0
C1971 C 0.48843 0.54684 0.10542 0.0
C1972 C 0.48292 0.55642 0.07863 0.0
C1973 C 0.46662 0.57779 0.07102 0.0
C1974 C 0.45534 0.58855 0.08957 0.0
H1975 H 0.37538 0.55865 0.12299 0.0
H1976 H 0.39486 0.57946 0.0974 0.0
H1977 H 0.40583 0.5477 0.11407 0.0
H1978 H 0.48121 0.54961 0.14442 0.0
H1979 H 0.50097 0.53054 0.11208 0.0
H1980 H 0.3385 0.34064 0.22963 0.0
H1981 H 0.36383 0.37177 0.19562 0.0
H1982 H 0.3608 0.30124 0.15536 0.0
H1983 H 0.33511 0.27005 0.1893 0.0
H1984 H 0.41331 0.37473 0.17635 0.0
H1985 H 0.32365 0.35357 0.0994 0.0
H1986 H 0.32022 0.34208 0.13356 0.0
H1987 H 0.336 0.32229 0.11539 0.0
C1988 C 0.34389 0.33159 0.21402 0.0
C1989 C 0.33499 0.30283 0.21237 0.0
C1990 C 0.35811 0.3495 0.19434 0.0
C1991 C 0.36364 0.33897 0.17259 0.0
C1992 C 0.35606 0.30999 0.17156 0.0
H1993 H 0.47572 0.42062 0.0565 0.0
H1994 H 0.4485 0.38749 0.08824 0.0
C1995 C 0.34163 0.29215 0.19111 0.0
C1996 C 0.3769 0.35839 0.15086 0.0
H1997 H 0.36739 0.37982 0.08513 0.0
C1998 C 0.40325 0.37581 0.15643 0.0
C1999 C 0.36343 0.36033 0.12492 0.0
C2000 C 0.33413 0.3438 0.11795 0.0
C2001 C 0.4168 0.39453 0.13668 0.0
C2002 C 0.40395 0.39548 0.11067 0.0
C2003 C 0.37735 0.37862 0.10509 0.0
C2004 C 0.41808 0.41405 0.08914 0.0
C2005 C 0.44447 0.41376 0.14372 0.0
C2006 C 0.40925 0.43945 0.07845 0.0
C2007 C 0.42483 0.45855 0.06035 0.0
C2008 C 0.44948 0.45247 0.05268 0.0
C2009 C 0.45705 0.42612 0.06219 0.0
C2010 C 0.44155 0.40715 0.08034 0.0
H2011 H 0.45085 0.41164 0.16508 0.0
H2012 H 0.46166 0.40903 0.13413 0.0
H2013 H 0.4425 0.43593 0.13641 0.0
H2014 H 0.39107 0.44503 0.08498 0.0
H2015 H 0.41841 0.47863 0.05346 0.0
H2016 H 0.79156 0.6315 0.62149 0.0
H2017 H 0.82491 0.60885 0.60535 0.0
H2018 H 0.89426 0.65171 0.65357 0.0
H2019 H 0.86117 0.67549 0.66923 0.0
H2020 H 0.87922 0.64143 0.58055 0.0
H2021 H 0.89647 0.56256 0.66801 0.0
H2022 H 0.86447 0.57749 0.66086 0.0
H2023 H 0.89727 0.59825 0.67273 0.0
C2024 C 0.81392 0.63644 0.62859 0.0
C2025 C 0.82356 0.65569 0.64657 0.0
C2026 C 0.83295 0.62325 0.6194 0.0
C2027 C 0.86206 0.62856 0.62822 0.0
C2028 C 0.87182 0.64718 0.6466 0.0
H2029 H 1.00691 0.56183 0.60087 0.0
H2030 H 0.97288 0.58314 0.61732 0.0
C2031 C 0.8528 0.66064 0.65567 0.0
C2032 C 0.88217 0.61508 0.61761 0.0
H2033 H 0.92225 0.56348 0.63279 0.0
C2034 C 0.88865 0.62437 0.59192 0.0
C2035 C 0.8945 0.59292 0.6325 0.0
C2036 C 0.88786 0.58196 0.66004 0.0
C2037 C 0.90754 0.61243 0.58085 0.0
C2038 C 0.91963 0.58987 0.5956 0.0
C2039 C 0.91299 0.58061 0.62134 0.0
C2040 C 0.94002 0.57632 0.58519 0.0
C2041 C 0.91503 0.62479 0.55377 0.0
C2042 C 0.93298 0.56483 0.56168 0.0
C2043 C 0.95269 0.55278 0.55195 0.0
C2044 C 0.97972 0.55146 0.56577 0.0
C2045 C 0.98634 0.56232 0.58962 0.0
C2046 C 0.96682 0.57459 0.59914 0.0
H2047 H 0.91086 0.64657 0.54837 0.0
H2048 H 0.93777 0.6251 0.55204 0.0
H2049 H 0.90171 0.61186 0.53952 0.0
H2050 H 0.9122 0.56511 0.55082 0.0
H2051 H 0.94673 0.54449 0.53364 0.0
H2052 H 0.3339 0.83891 0.73392 0.0
H2053 H 0.36733 0.86782 0.70464 0.0
H2054 H 0.3172 0.8314 0.63955 0.0
H2055 H 0.28296 0.80371 0.66883 0.0
H2056 H 0.40124 0.85364 0.67725 0.0
H2057 H 0.32903 0.91179 0.60815 0.0
H2058 H 0.31839 0.89158 0.63839 0.0
H2059 H 0.31674 0.87461 0.61008 0.0
C2060 C 0.33003 0.83725 0.71334 0.0
C2061 C 0.30633 0.81856 0.70371 0.0
C2062 C 0.34909 0.85384 0.69654 0.0
C2063 C 0.34487 0.85216 0.66966 0.0
C2064 C 0.32077 0.83376 0.66 0.0
H2065 H 0.48066 0.89738 0.56736 0.0
H2066 H 0.44384 0.87317 0.59523 0.0
C2067 C 0.30137 0.81762 0.67678 0.0
C2068 C 0.36647 0.86843 0.65212 0.0
H2069 H 0.37455 0.91237 0.59447 0.0
C2070 C 0.39525 0.86629 0.6591 0.0
C2071 C 0.35913 0.88596 0.62877 0.0
C2072 C 0.3292 0.8914 0.62104 0.0
C2073 C 0.41653 0.88003 0.64311 0.0
C2074 C 0.40898 0.89639 0.61914 0.0
C2075 C 0.38037 0.89941 0.61253 0.0
C2076 C 0.43059 0.91103 0.60109 0.0
C2077 C 0.44703 0.87727 0.65233 0.0
C2078 C 0.43491 0.94036 0.59421 0.0
C2079 C 0.45586 0.9543 0.57807 0.0
C2080 C 0.47302 0.93924 0.56827 0.0
C2081 C 0.46813 0.90977 0.57466 0.0
C2082 C 0.44712 0.89586 0.59077 0.0
H2083 H 0.45024 0.87074 0.67374 0.0
H2084 H 0.45276 0.861 0.64271 0.0
H2085 H 0.46181 0.89738 0.6473 0.0
H2086 H 0.42241 0.9526 0.60176 0.0
H2087 H 0.45885 0.97697 0.57358 0.0
H2088 H 0.2019 0.26637 0.70426 0.0
H2089 H 0.17728 0.29683 0.67088 0.0
H2090 H 0.23649 0.3693 0.69366 0.0
H2091 H 0.26154 0.33847 0.72713 0.0
H2092 H 0.14985 0.33716 0.68077 0.0
H2093 H 0.23164 0.38773 0.61409 0.0
H2094 H 0.23194 0.35362 0.63317 0.0
H2095 H 0.24308 0.38479 0.64849 0.0
C2096 C 0.21022 0.28876 0.70167 0.0
C2097 C 0.23411 0.29987 0.71801 0.0
C2098 C 0.19597 0.30623 0.68262 0.0
C2099 C 0.20492 0.33554 0.67933 0.0
C2100 C 0.22934 0.34678 0.69521 0.0
H2101 H 0.13131 0.47524 0.59048 0.0
H2102 H 0.16084 0.4441 0.61715 0.0
C2103 C 0.24378 0.32914 0.71437 0.0
C2104 C 0.18711 0.35394 0.66088 0.0
H2105 H 0.18812 0.40372 0.60645 0.0
C2106 C 0.15828 0.35164 0.66448 0.0
C2107 C 0.19777 0.37289 0.63945 0.0
C2108 C 0.22775 0.37499 0.63329 0.0
C2109 C 0.14022 0.36792 0.64778 0.0
C2110 C 0.15092 0.38693 0.62638 0.0
C2111 C 0.17973 0.38924 0.62274 0.0
C2112 C 0.13303 0.40561 0.60844 0.0
C2113 C 0.10997 0.36515 0.65368 0.0
C2114 C 0.1076 0.39465 0.59374 0.0
C2115 C 0.09043 0.41262 0.57815 0.0
C2116 C 0.09823 0.44204 0.57692 0.0
C2117 C 0.12425 0.45279 0.59095 0.0
C2118 C 0.14135 0.43492 0.6063 0.0
H2119 H 0.10701 0.35489 0.67394 0.0
H2120 H 0.1036 0.38604 0.65088 0.0
H2121 H 0.09546 0.35209 0.64019 0.0
H2122 H 0.10083 0.37215 0.59449 0.0
H2123 H 0.07067 0.40344 0.56772 0.0
H2124 H 0.74563 0.17103 0.71926 0.0
H2125 H 0.72159 0.14454 0.68473 0.0
H2126 H 0.70931 0.22152 0.63516 0.0
H2127 H 0.73363 0.24858 0.66991 0.0
H2128 H 0.66009 0.18022 0.63733 0.0
H2129 H 0.74997 0.13512 0.61759 0.0
H2130 H 0.74456 0.12923 0.65144 0.0
H2131 H 0.75506 0.16451 0.63549 0.0
C2132 C 0.73806 0.18255 0.70102 0.0
C2133 C 0.74145 0.21207 0.69752 0.0
C2134 C 0.72447 0.16726 0.68116 0.0
C2135 C 0.71411 0.18102 0.65718 0.0
C2136 C 0.71736 0.21048 0.65348 0.0
H2137 H 0.60578 0.11606 0.52566 0.0
H2138 H 0.64177 0.14502 0.55234 0.0
C2139 C 0.73109 0.2259 0.67342 0.0
C2140 C 0.69836 0.1643 0.63677 0.0
H2141 H 0.70328 0.11352 0.60096 0.0
C2142 C 0.66963 0.16593 0.6291 0.0
C2143 C 0.71079 0.14546 0.62623 0.0
C2144 C 0.74187 0.14362 0.63291 0.0
C2145 C 0.65276 0.14864 0.61183 0.0
C2146 C 0.66509 0.12955 0.60155 0.0
C2147 C 0.6939 0.12812 0.60891 0.0
C2148 C 0.648 0.11093 0.58322 0.0
C2149 C 0.6216 0.15033 0.60535 0.0
C2150 C 0.64103 0.08177 0.59095 0.0
C2151 C 0.62064 0.06501 0.57551 0.0
C2152 C 0.60695 0.07733 0.55227 0.0
C2153 C 0.61585 0.10607 0.5436 0.0
C2154 C 0.63629 0.12267 0.55887 0.0
H2155 H 0.61408 0.16126 0.61928 0.0
H2156 H 0.61823 0.16221 0.58555 0.0
H2157 H 0.60831 0.12902 0.60542 0.0
H2158 H 0.65 0.07231 0.60966 0.0
H2159 H 0.61401 0.04297 0.58275 0.0
H2160 H 0.85865 0.26853 0.32496 0.0
H2161 H 0.89022 0.28482 0.36237 0.0
H2162 H 0.83018 0.3345 0.37419 0.0
H2163 H 0.79836 0.31787 0.33745 0.0
H2164 H 0.9155 0.33872 0.36708 0.0
H2165 H 0.84908 0.29763 0.44769 0.0
H2166 H 0.84089 0.28512 0.41646 0.0
H2167 H 0.8304 0.31699 0.42107 0.0
C2168 C 0.85194 0.28266 0.33568 0.0
C2169 C 0.82599 0.29219 0.32782 0.0
C2170 C 0.87007 0.29194 0.35712 0.0
C2171 C 0.86249 0.31063 0.37137 0.0
C2172 C 0.83632 0.31962 0.36393 0.0
H2173 H 0.92913 0.43533 0.46465 0.0
H2174 H 0.90114 0.39689 0.44282 0.0
C2175 C 0.81824 0.31037 0.34257 0.0
C2176 C 0.88275 0.32273 0.39256 0.0
H2177 H 0.88685 0.33732 0.45473 0.0
C2178 C 0.90953 0.33788 0.38646 0.0
C2179 C 0.87503 0.32154 0.41789 0.0
C2180 C 0.84739 0.30418 0.42626 0.0
C2181 C 0.92791 0.35348 0.40431 0.0
C2182 C 0.91946 0.3536 0.42913 0.0
C2183 C 0.89334 0.33723 0.43573 0.0
C2184 C 0.93546 0.37365 0.44677 0.0
C2185 C 0.95539 0.37119 0.39585 0.0
C2186 C 0.96374 0.3727 0.4575 0.0
C2187 C 0.97985 0.39473 0.47026 0.0
C2188 C 0.96787 0.41801 0.47228 0.0
C2189 C 0.93896 0.41772 0.46328 0.0
C2190 C 0.92292 0.39574 0.45078 0.0
H2191 H 0.95679 0.37188 0.37474 0.0
H2192 H 0.95754 0.39303 0.39999 0.0
H2193 H 0.97363 0.36232 0.40696 0.0
H2194 H 0.97372 0.35561 0.45494 0.0
H2195 H 1.00212 0.3945 0.47684 0.0
H2196 H 0.70163 0.83755 0.36662 0.0
H2197 H 0.67836 0.87334 0.37785 0.0
H2198 H 0.59619 0.8254 0.35409 0.0
H2199 H 0.61934 0.78914 0.3439 0.0
H2200 H 0.64406 0.90763 0.35225 0.0
H2201 H 0.58529 0.83284 0.42649 0.0
H2202 H 0.61267 0.82371 0.41117 0.0
H2203 H 0.57715 0.8224 0.39467 0.0
C2204 C 0.67861 0.83477 0.36372 0.0
C2205 C 0.66226 0.81038 0.35477 0.0
C2206 C 0.66531 0.85522 0.37012 0.0
C2207 C 0.63543 0.8518 0.36747 0.0
C2208 C 0.61919 0.82814 0.35718 0.0
H2209 H 0.52312 0.94828 0.41695 0.0
H2210 H 0.54222 0.92225 0.38923 0.0
C2211 C 0.63244 0.80748 0.35123 0.0
C2212 C 0.62134 0.87251 0.37619 0.0
H2213 H 0.57419 0.87838 0.41718 0.0
C2214 C 0.62874 0.90119 0.3664 0.0
C2215 C 0.60139 0.86424 0.3948 0.0
C2216 C 0.59386 0.83418 0.4076 0.0
C2217 C 0.61683 0.92167 0.37475 0.0
C2218 C 0.59694 0.9133 0.39325 0.0
C2219 C 0.58912 0.88468 0.40266 0.0
C2220 C 0.58609 0.93383 0.4053 0.0
C2221 C 0.6257 0.95217 0.36393 0.0
C2222 C 0.60449 0.94957 0.42293 0.0
C2223 C 0.59361 0.96414 0.43884 0.0
C2224 C 0.56418 0.96358 0.43714 0.0
C2225 C 0.54595 0.94957 0.41816 0.0
C2226 C 0.55681 0.93455 0.4025 0.0
H2227 H 0.63618 0.9547 0.34587 0.0
H2228 H 0.60701 0.96284 0.35968 0.0
H2229 H 0.641 0.96283 0.37866 0.0
H2230 H 0.62704 0.94894 0.42574 0.0
H2231 H 0.60799 0.97439 0.45366 0.0
H2232 H 0.18772 0.70479 0.27399 0.0
H2233 H 0.16166 0.67344 0.30762 0.0
H2234 H 0.2287 0.70046 0.36662 0.0
H2235 H 0.25508 0.73191 0.3327 0.0
H2236 H 0.20724 0.64151 0.37461 0.0
H2237 H 0.11911 0.7013 0.35716 0.0
H2238 H 0.12625 0.69058 0.32798 0.0
H2239 H 0.15288 0.71497 0.34447 0.0
C2240 C 0.19703 0.70387 0.29412 0.0
C2241 C 0.22362 0.72049 0.30065 0.0
C2242 C 0.18203 0.68606 0.31337 0.0
C2243 C 0.19288 0.68484 0.3398 0.0
C2244 C 0.21976 0.70106 0.34642 0.0
H2245 H 0.11044 0.5841 0.47594 0.0
H2246 H 0.14519 0.61624 0.4496 0.0
C2247 C 0.2349 0.71892 0.32703 0.0
C2248 C 0.17555 0.66714 0.36024 0.0
H2249 H 0.10978 0.65551 0.38178 0.0
C2250 C 0.18608 0.64476 0.37643 0.0
C2251 C 0.14797 0.67144 0.36287 0.0
C2252 C 0.13597 0.69604 0.3474 0.0
C2253 C 0.16922 0.62585 0.39411 0.0
C2254 C 0.14121 0.62954 0.39591 0.0
C2255 C 0.13114 0.65247 0.38035 0.0
C2256 C 0.12118 0.60903 0.41243 0.0
C2257 C 0.18104 0.60137 0.40997 0.0
C2258 C 0.09599 0.59437 0.40049 0.0
C2259 C 0.07616 0.57607 0.41542 0.0
C2260 C 0.08073 0.57199 0.44288 0.0
C2261 C 0.10614 0.58657 0.4549 0.0
C2262 C 0.12614 0.60488 0.43983 0.0
H2263 H 0.20102 0.59872 0.40318 0.0
H2264 H 0.18569 0.60485 0.43066 0.0
H2265 H 0.16518 0.5816 0.40908 0.0
H2266 H 0.09155 0.59719 0.37945 0.0
H2267 H 0.05699 0.56535 0.40528 0.0
H2268 H 0.28031 0.16541 0.31455 0.0
H2269 H 0.31444 0.13965 0.34179 0.0
H2270 H 0.38327 0.20639 0.31906 0.0
H2271 H 0.34871 0.23201 0.29062 0.0
H2272 H 0.39723 0.15479 0.31923 0.0
H2273 H 0.35399 0.15247 0.41197 0.0
H2274 H 0.32723 0.13712 0.38852 0.0
H2275 H 0.34272 0.17384 0.38245 0.0
C2276 C 0.30269 0.17489 0.31555 0.0
C2277 C 0.31157 0.20122 0.30085 0.0
C2278 C 0.32231 0.16008 0.33132 0.0
C2279 C 0.35167 0.17106 0.33319 0.0
C2280 C 0.3608 0.19735 0.31829 0.0
H2281 H 0.47145 0.11059 0.45756 0.0
H2282 H 0.4406 0.13563 0.42607 0.0
C2283 C 0.341 0.21223 0.30224 0.0
C2284 C 0.37238 0.15464 0.35037 0.0
H2285 H 0.38558 0.12082 0.41238 0.0
C2286 C 0.39476 0.14753 0.33965 0.0
C2287 C 0.36952 0.14496 0.37715 0.0
C2288 C 0.34725 0.15272 0.39076 0.0
C2289 C 0.41387 0.13103 0.35473 0.0
C2290 C 0.4105 0.12085 0.38134 0.0
C2291 C 0.38822 0.12813 0.39199 0.0
C2292 C 0.43109 0.105 0.39938 0.0
C2293 C 0.43795 0.12523 0.3422 0.0
C2294 C 0.43687 0.07904 0.39518 0.0
C2295 C 0.45506 0.06421 0.4136 0.0
C2296 C 0.4676 0.07486 0.43679 0.0
C2297 C 0.46203 0.10108 0.44038 0.0
C2298 C 0.44425 0.11573 0.42217 0.0
H2299 H 0.44144 0.13946 0.32362 0.0
H2300 H 0.45806 0.12761 0.35552 0.0
H2301 H 0.4328 0.10329 0.33787 0.0
H2302 H 0.42679 0.06986 0.37801 0.0
H2303 H 0.45869 0.0442 0.41001 0.0
H2304 H 0.7031 0.77997 0.73218 0.0
H2305 H 0.66834 0.80678 0.7058 0.0
H2306 H 0.73724 0.86999 0.67731 0.0
H2307 H 0.7716 0.84354 0.70351 0.0
H2308 H 0.69776 0.89418 0.69347 0.0
H2309 H 0.64217 0.81712 0.628 0.0
H2310 H 0.64466 0.80437 0.66234 0.0
H2311 H 0.67639 0.81459 0.64615 0.0
C2312 C 0.71076 0.79922 0.71978 0.0
C2313 C 0.74026 0.80922 0.71961 0.0
C2314 C 0.69083 0.81469 0.70468 0.0
C2315 C 0.6999 0.84063 0.68919 0.0
C2316 C 0.72937 0.85026 0.68894 0.0
H2317 H 0.61928 0.93695 0.55808 0.0
H2318 H 0.64707 0.9087 0.59022 0.0
C2319 C 0.74911 0.83492 0.70388 0.0
C2320 C 0.67931 0.85849 0.67381 0.0
H2321 H 0.62644 0.86009 0.62266 0.0
C2322 C 0.68197 0.88655 0.67817 0.0
C2323 C 0.65864 0.84897 0.6536 0.0
C2324 C 0.65522 0.81969 0.64698 0.0
C2325 C 0.66519 0.90517 0.66281 0.0
C2326 C 0.64482 0.8957 0.64239 0.0
C2327 C 0.64178 0.86752 0.63835 0.0
C2328 C 0.6284 0.91508 0.62342 0.0
C2329 C 0.67021 0.93521 0.66786 0.0
C2330 C 0.60865 0.92903 0.63104 0.0
C2331 C 0.59236 0.94558 0.61236 0.0
C2332 C 0.59538 0.9485 0.58557 0.0
C2333 C 0.61595 0.93527 0.57836 0.0
C2334 C 0.63198 0.91886 0.59684 0.0
H2335 H 0.68997 0.94059 0.68113 0.0
H2336 H 0.67171 0.94986 0.64929 0.0
H2337 H 0.65198 0.93856 0.67698 0.0
H2338 H 0.6051 0.9264 0.65134 0.0
H2339 H 0.57662 0.95505 0.61878 0.0
H2340 H 0.70931 0.20336 0.2798 0.0
H2341 H 0.67634 0.17297 0.30887 0.0
H2342 H 0.72627 0.20762 0.37485 0.0
H2343 H 0.75952 0.23755 0.34576 0.0
H2344 H 0.71327 0.14943 0.38333 0.0
H2345 H 0.61425 0.19121 0.34487 0.0
H2346 H 0.63502 0.18503 0.32118 0.0
H2347 H 0.64928 0.21178 0.34153 0.0
C2348 C 0.71268 0.20505 0.30042 0.0
C2349 C 0.73632 0.22358 0.31045 0.0
C2350 C 0.69387 0.18763 0.31707 0.0
C2351 C 0.69834 0.18831 0.34413 0.0
C2352 C 0.72209 0.20682 0.35409 0.0
H2353 H 0.58032 0.12458 0.45905 0.0
H2354 H 0.61386 0.15171 0.42943 0.0
C2355 C 0.74095 0.22411 0.33746 0.0
C2356 C 0.67912 0.16897 0.36222 0.0
H2357 H 0.61041 0.15233 0.37742 0.0
C2358 C 0.69076 0.15004 0.38201 0.0
C2359 C 0.64972 0.1697 0.36067 0.0
C2360 C 0.63616 0.19056 0.34103 0.0
C2361 C 0.67394 0.13215 0.40028 0.0
C2362 C 0.64451 0.13283 0.39859 0.0
C2363 C 0.63288 0.15158 0.37868 0.0
C2364 C 0.62552 0.11558 0.41796 0.0
C2365 C 0.68805 0.11332 0.42172 0.0
C2366 C 0.62086 0.08601 0.42173 0.0
C2367 C 0.60159 0.07026 0.43891 0.0
C2368 C 0.58635 0.08375 0.4525 0.0
C2369 C 0.59147 0.11335 0.44891 0.0
C2370 C 0.61071 0.12898 0.4319 0.0
H2371 H 0.71157 0.12007 0.42406 0.0
H2372 H 0.6799 0.113 0.4406 0.0
H2373 H 0.6832 0.09157 0.41691 0.0
H2374 H 0.63154 0.07506 0.4109 0.0
H2375 H 0.59811 0.04754 0.44099 0.0
H2376 H 0.86899 0.7554 0.32177 0.0
H2377 H 0.89135 0.72268 0.35474 0.0
H2378 H 0.82757 0.65374 0.33091 0.0
H2379 H 0.80527 0.68672 0.29742 0.0
H2380 H 0.87378 0.6848 0.39716 0.0
H2381 H 0.90124 0.62914 0.3228 0.0
H2382 H 0.88837 0.66186 0.31433 0.0
H2383 H 0.86395 0.62949 0.32183 0.0
C2384 C 0.85943 0.73329 0.32386 0.0
C2385 C 0.83507 0.72372 0.30731 0.0
C2386 C 0.87228 0.71456 0.34273 0.0
C2387 C 0.86155 0.68555 0.34525 0.0
C2388 C 0.83666 0.67592 0.32916 0.0
H2389 H 0.93074 0.54278 0.43403 0.0
H2390 H 0.90104 0.57407 0.40799 0.0
C2391 C 0.82365 0.6948 0.31024 0.0
C2392 C 0.87738 0.66572 0.36391 0.0
H2393 H 0.91415 0.61229 0.36675 0.0
C2394 C 0.88254 0.66889 0.3905 0.0
C2395 C 0.8891 0.64499 0.35538 0.0
C2396 C 0.88567 0.64121 0.32702 0.0
C2397 C 0.89864 0.65184 0.40866 0.0
C2398 C 0.91053 0.63125 0.40008 0.0
C2399 C 0.90517 0.62798 0.37352 0.0
C2400 C 0.92809 0.61242 0.41813 0.0
C2401 C 0.90226 0.6557 0.43699 0.0
C2402 C 0.95336 0.62322 0.43311 0.0
C2403 C 0.97059 0.60515 0.44837 0.0
C2404 C 0.96315 0.57581 0.44879 0.0
C2405 C 0.93748 0.56518 0.43424 0.0
C2406 C 0.92033 0.58313 0.41918 0.0
H2407 H 0.88565 0.66636 0.44148 0.0
H2408 H 0.90135 0.63521 0.44986 0.0
H2409 H 0.92332 0.66897 0.44161 0.0
H2410 H 0.96031 0.6457 0.43237 0.0
H2411 H 0.99025 0.61424 0.45903 0.0
H2412 H 0.32029 0.84715 0.30171 0.0
H2413 H 0.34504 0.87449 0.33552 0.0
H2414 H 0.3503 0.79819 0.38878 0.0
H2415 H 0.32552 0.77037 0.35478 0.0
H2416 H 0.33137 0.87758 0.38436 0.0
H2417 H 0.43308 0.83882 0.39128 0.0
H2418 H 0.4051 0.83293 0.36499 0.0
H2419 H 0.40232 0.81184 0.39638 0.0
C2420 C 0.32668 0.836 0.32055 0.0
C2421 C 0.32125 0.80642 0.32533 0.0
C2422 C 0.3408 0.85178 0.33993 0.0
C2423 C 0.34989 0.83845 0.36458 0.0
C2424 C 0.344 0.80894 0.36971 0.0
H2425 H 0.45638 0.90479 0.49571 0.0
H2426 H 0.42033 0.87599 0.46901 0.0
C2427 C 0.32985 0.79305 0.35024 0.0
C2428 C 0.36588 0.85571 0.38457 0.0
H2429 H 0.43057 0.86981 0.42037 0.0
C2430 C 0.35303 0.87583 0.39233 0.0
C2431 C 0.3942 0.85355 0.39481 0.0
C2432 C 0.40966 0.83332 0.38633 0.0
C2433 C 0.36768 0.89369 0.41021 0.0
C2434 C 0.39604 0.8916 0.42032 0.0
C2435 C 0.40876 0.87132 0.4127 0.0
C2436 C 0.41337 0.9103 0.43857 0.0
C2437 C 0.35261 0.9144 0.41833 0.0
C2438 C 0.42061 0.93948 0.43089 0.0
C2439 C 0.4411 0.95615 0.44637 0.0
C2440 C 0.45486 0.94372 0.46951 0.0
C2441 C 0.44614 0.9149 0.47793 0.0
C2442 C 0.42561 0.8984 0.46264 0.0
H2443 H 0.3291 0.90839 0.41442 0.0
H2444 H 0.35826 0.9161 0.43938 0.0
H2445 H 0.35923 0.93543 0.4071 0.0
H2446 H 0.41181 0.94909 0.41219 0.0
H2447 H 0.44774 0.97821 0.43923 0.0
H2448 H 0.2112 0.37318 0.33702 0.0
H2449 H 0.17817 0.39544 0.35442 0.0
H2450 H 0.21444 0.36985 0.43263 0.0
H2451 H 0.24656 0.34659 0.41554 0.0
H2452 H 0.15716 0.36202 0.42953 0.0
H2453 H 0.19842 0.46969 0.38246 0.0
H2454 H 0.18612 0.4449 0.35989 0.0
H2455 H 0.21647 0.4407 0.38341 0.0
C2456 C 0.21193 0.37197 0.35793 0.0
C2457 C 0.23189 0.35832 0.3748 0.0
C2458 C 0.19327 0.38508 0.36786 0.0
C2459 C 0.19424 0.385 0.39486 0.0
C2460 C 0.21344 0.37056 0.41173 0.0
H2461 H 0.10587 0.45603 0.49633 0.0
H2462 H 0.13905 0.43402 0.47877 0.0
C2463 C 0.232 0.35741 0.40187 0.0
C2464 C 0.17529 0.39976 0.40571 0.0
H2465 H 0.15718 0.46395 0.40421 0.0
C2466 C 0.15728 0.38433 0.42406 0.0
C2467 C 0.17545 0.42895 0.39871 0.0
C2468 C 0.19533 0.44713 0.38024 0.0
C2469 C 0.13914 0.39709 0.43517 0.0
C2470 C 0.1392 0.4262 0.42804 0.0
C2471 C 0.15717 0.44165 0.40971 0.0
C2472 C 0.1201 0.4408 0.43879 0.0
C2473 C 0.11954 0.37916 0.45401 0.0
C2474 C 0.099 0.45276 0.42211 0.0
C2475 C 0.08008 0.4654 0.43205 0.0
C2476 C 0.08193 0.46664 0.45895 0.0
C2477 C 0.10376 0.45548 0.47555 0.0
C2478 C 0.12262 0.44267 0.46556 0.0
H2479 H 0.11753 0.3564 0.45306 0.0
H2480 H 0.12818 0.38294 0.47415 0.0
H2481 H 0.09799 0.3847 0.45001 0.0
H2482 H 0.09674 0.45176 0.40138 0.0
H2483 H 0.0637 0.47388 0.4186 0.0
H2484 H 0.40088 0.18786 0.706 0.0
H2485 H 0.42004 0.14895 0.69573 0.0
H2486 H 0.41651 0.18551 0.61481 0.0
H2487 H 0.39611 0.22365 0.62463 0.0
H2488 H 0.39737 0.12898 0.62069 0.0
H2489 H 0.50129 0.1537 0.68087 0.0
H2490 H 0.47038 0.14729 0.69808 0.0
H2491 H 0.47637 0.17753 0.67359 0.0
C2492 C 0.40383 0.18747 0.68595 0.0
C2493 C 0.39711 0.20912 0.66618 0.0
C2494 C 0.41515 0.16535 0.68017 0.0
C2495 C 0.42023 0.16453 0.65457 0.0
C2496 C 0.41297 0.18575 0.63475 0.0
H2497 H 0.52968 0.1008 0.5794 0.0
H2498 H 0.50732 0.12355 0.60699 0.0
C2499 C 0.40155 0.20774 0.64046 0.0
C2500 C 0.4333 0.14189 0.6481 0.0
H2501 H 0.49495 0.11561 0.65745 0.0
C2502 C 0.41857 0.12578 0.62895 0.0
C2503 C 0.46102 0.1378 0.65886 0.0
C2504 C 0.47836 0.1551 0.67884 0.0
C2505 C 0.43119 0.10663 0.61944 0.0
C2506 C 0.45915 0.10296 0.6298 0.0
C2507 C 0.47342 0.1182 0.64974 0.0
C2508 C 0.47542 0.08694 0.61742 0.0
C2509 C 0.41511 0.09183 0.59725 0.0
C2510 C 0.46588 0.05829 0.61512 0.0
C2511 C 0.47882 0.04518 0.59931 0.0
C2512 C 0.50156 0.06056 0.5859 0.0
C2513 C 0.51235 0.08849 0.58982 0.0
C2514 C 0.49951 0.10151 0.60551 0.0
H2515 H 0.39596 0.10077 0.58851 0.0
H2516 H 0.42901 0.09322 0.58169 0.0
H2517 H 0.40801 0.0693 0.60456 0.0
H2518 H 0.44763 0.04648 0.6245 0.0
H2519 H 0.46994 0.02373 0.59624 0.0
H2520 H 0.87172 0.31605 0.74958 0.0
H2521 H 0.8969 0.34788 0.71577 0.0
H2522 H 0.83142 0.317 0.65702 0.0
H2523 H 0.80544 0.28606 0.69124 0.0
H2524 H 0.92075 0.3345 0.68 0.0
H2525 H 0.84096 0.39754 0.62863 0.0
H2526 H 0.83497 0.37402 0.65839 0.0
H2527 H 0.82995 0.36046 0.62795 0.0
C2528 C 0.86237 0.31658 0.72948 0.0
C2529 C 0.83641 0.29892 0.72311 0.0
C2530 C 0.87685 0.3347 0.71007 0.0
C2531 C 0.8662 0.33524 0.68359 0.0
C2532 C 0.83995 0.31774 0.67719 0.0
H2533 H 0.95452 0.43 0.54884 0.0
H2534 H 0.92027 0.39711 0.57513 0.0
C2535 C 0.82509 0.29992 0.69678 0.0
C2536 C 0.884 0.35256 0.66317 0.0
H2537 H 0.8849 0.40495 0.61083 0.0
C2538 C 0.91275 0.34992 0.66497 0.0
C2539 C 0.87372 0.37229 0.64286 0.0
C2540 C 0.84327 0.37646 0.63936 0.0
C2541 C 0.93151 0.36683 0.64794 0.0
C2542 C 0.9216 0.3875 0.62859 0.0
C2543 C 0.89262 0.38935 0.62584 0.0
C2544 C 0.94146 0.40828 0.61219 0.0
C2545 C 0.96188 0.36229 0.65083 0.0
C2546 C 0.96435 0.4261 0.6241 0.0
C2547 C 0.9839 0.44481 0.60921 0.0
C2548 C 0.98105 0.44648 0.58186 0.0
C2549 C 0.95751 0.42929 0.56981 0.0
C2550 C 0.93789 0.41044 0.58483 0.0
H2551 H 0.96376 0.34069 0.66044 0.0
H2552 H 0.9703 0.36587 0.63163 0.0
H2553 H 0.97542 0.37727 0.66318 0.0
H2554 H 0.96725 0.42542 0.64507 0.0
H2555 H 1.00146 0.45785 0.61928 0.0
H2556 H 0.19175 0.77008 0.68943 0.0
H2557 H 0.1596 0.7493 0.65406 0.0
H2558 H 0.18941 0.67106 0.67881 0.0
H2559 H 0.22138 0.69155 0.71405 0.0
H2560 H 0.18714 0.71433 0.61578 0.0
H2561 H 0.09275 0.66216 0.66737 0.0
H2562 H 0.1151 0.69445 0.67569 0.0
H2563 H 0.12769 0.6619 0.68488 0.0
C2564 C 0.19095 0.7483 0.68765 0.0
C2565 C 0.20908 0.73243 0.70443 0.0
C2566 C 0.17278 0.73655 0.66735 0.0
C2567 C 0.17228 0.70872 0.66388 0.0
C2568 C 0.18956 0.69259 0.68121 0.0
H2569 H 0.13034 0.58709 0.56482 0.0
H2570 H 0.15265 0.62613 0.58853 0.0
C2571 C 0.20782 0.70433 0.70126 0.0
C2572 C 0.15496 0.69648 0.6415 0.0
H2573 H 0.09539 0.64866 0.62649 0.0
C2574 C 0.16678 0.70042 0.61785 0.0
C2575 C 0.12844 0.67848 0.64431 0.0
C2576 C 0.11499 0.67394 0.66936 0.0
C2577 C 0.15338 0.68558 0.59736 0.0
C2578 C 0.1277 0.66618 0.60076 0.0
C2579 C 0.11506 0.66356 0.62387 0.0
C2580 C 0.11554 0.64585 0.58226 0.0
C2581 C 0.16724 0.69013 0.57253 0.0
C2582 C 0.0874 0.64423 0.57033 0.0
C2583 C 0.07464 0.62197 0.55646 0.0
C2584 C 0.08969 0.60071 0.55482 0.0
C2585 C 0.11829 0.60323 0.56565 0.0
C2586 C 0.13109 0.6256 0.57915 0.0
H2587 H 0.18119 0.71114 0.5697 0.0
H2588 H 0.18067 0.67402 0.57358 0.0
H2589 H 0.15103 0.68813 0.55532 0.0
H2590 H 0.07495 0.65951 0.5727 0.0
H2591 H 0.05243 0.62033 0.54868 0.0
loop_
_geom_bond_atom_site_label_1
_geom_bond_atom_site_label_2
_geom_bond_distance
_geom_bond_site_symmetry_2
_ccdc_geom_bond_type
Eu0 N31 2.657 . S
Eu0 N38 2.609 . S
Eu0 O44 2.558 . S
Eu0 O45 2.612 . S
Eu0 O47 2.339 . S
Eu0 O48 2.563 . S
Eu0 O49 2.419 . S
Eu0 O51 2.380 . S
Eu0 O52 2.432 . S
Eu0 C64 2.848 . S
C1 C4 1.429 . S
C1 C5 1.411 . S
C1 N8 1.377 . S
C2 C4 1.420 . S
C2 C6 1.423 . S
C2 C14 1.392 . S
C3 C5 1.420 . S
C3 C6 1.351 . S
C3 H26 0.931 . S
C4 C1 1.429 . S
C4 C2 1.420 . S
C4 N12 1.362 . S
C5 C1 1.411 . S
C5 C3 1.420 . S
C5 C10 1.395 . S
C6 C2 1.423 . S
C6 C3 1.351 . S
C6 H18 0.930 . S
C7 C9 1.400 . S
C7 C10 1.386 . S
C7 H19 0.930 . S
N8 C1 1.377 . S
N8 C9 1.321 . S
N8 Eu11 2.609 . S
C9 C7 1.400 . S
C9 N8 1.321 . S
C9 H16 0.930 . S
C10 C5 1.395 . S
C10 C7 1.386 . S
C10 H29 0.930 . S
Eu11 N8 2.609 . S
Eu11 N12 2.657 . S
Eu11 O45 2.380 . S
Eu11 O46 2.432 . S
Eu11 O50 2.558 . S
Eu11 O51 2.612 . S
Eu11 O53 2.339 . S
Eu11 O54 2.563 . S
Eu11 O55 2.419 . S
Eu11 C75 2.848 . S
N12 C4 1.362 . S
N12 Eu11 2.657 . S
N12 C13 1.334 . S
C13 N12 1.334 . S
C13 C15 1.413 . S
C13 H20 0.929 . S
C14 C2 1.392 . S
C14 C15 1.367 . S
C14 H22 0.930 . S
C15 C13 1.413 . S
C15 C14 1.367 . S
C15 H17 0.930 . S
H16 C9 0.930 . S
H17 C15 0.930 . S
H18 C6 0.930 . S
H19 C7 0.930 . S
H20 C13 0.929 . S
H21 C35 0.930 . S
H22 C14 0.930 . S
H23 C41 0.930 . S
H24 C32 0.929 . S
H25 C39 0.930 . S
H26 C3 0.931 . S
H27 C33 0.930 . S
H28 C66 0.930 . S
H29 C10 0.930 . S
H30 C65 0.931 . S
N31 Eu0 2.657 . S
N31 C32 1.334 . S
N31 C36 1.362 . S
C32 H24 0.929 . S
C32 N31 1.334 . S
C32 C35 1.413 . S
C33 H27 0.930 . S
C33 C34 1.392 . S
C33 C35 1.367 . S
C34 C33 1.392 . S
C34 C36 1.420 . S
C34 C66 1.423 . S
C35 H21 0.930 . S
C35 C32 1.413 . S
C35 C33 1.367 . S
C36 N31 1.362 . S
C36 C34 1.420 . S
C36 C40 1.429 . S
H37 C42 0.930 . S
N38 Eu0 2.609 . S
N38 C40 1.377 . S
N38 C41 1.321 . S
C39 H25 0.930 . S
C39 C41 1.400 . S
C39 C42 1.386 . S
C40 C36 1.429 . S
C40 N38 1.377 . S
C40 C43 1.411 . S
C41 H23 0.930 . S
C41 N38 1.321 . S
C41 C39 1.400 . S
C42 H37 0.930 . S
C42 C39 1.386 . S
C42 C43 1.395 . S
C43 C40 1.411 . S
C43 C42 1.395 . S
C43 C65 1.420 . S
O44 Eu0 2.558 . S
O44 C64 1.257 . S
O45 Eu0 2.612 . S
O45 Eu11 2.380 . S
O45 C56 1.276 . S
O46 Eu11 2.432 . S
O46 C63 1.264 . S
O47 Eu0 2.339 . S
O47 C63 1.254 . S
O48 Eu0 2.563 . S
O48 C56 1.235 . S
O49 Eu0 2.419 . S
O49 C64 1.249 . S
O50 Eu11 2.558 . S
O50 C75 1.257 . S
O51 Eu0 2.380 . S
O51 Eu11 2.612 . S
O51 C67 1.276 . S
O52 Eu0 2.432 . S
O52 C74 1.264 . S
O53 Eu11 2.339 . S
O53 C74 1.254 . S
O54 Eu11 2.563 . S
O54 C67 1.235 . S
O55 Eu11 2.419 . S
O55 C75 1.249 . S
C56 O45 1.276 . S
C56 O48 1.235 . S
C57 C59 1.393 . S
C57 C61 1.395 . S
C57 C64 1.492 . S
C58 C59 1.392 . S
C58 C60 1.386 . S
C59 C57 1.393 . S
C59 C58 1.392 . S
C59 H76 0.930 . S
C60 C58 1.386 . S
C60 C62 1.395 . S
C60 H77 0.930 . S
C61 C57 1.395 . S
C61 C62 1.379 . S
C61 H78 0.930 . S
C62 C60 1.395 . S
C62 C61 1.379 . S
C62 H79 0.930 . S
C63 O46 1.264 . S
C63 O47 1.254 . S
C64 Eu0 2.848 . S
C64 O44 1.257 . S
C64 O49 1.249 . S
C64 C57 1.492 . S
C65 H30 0.931 . S
C65 C43 1.420 . S
C65 C66 1.351 . S
C66 H28 0.930 . S
C66 C34 1.423 . S
C66 C65 1.351 . S
C67 O51 1.276 . S
C67 O54 1.235 . S
C68 C69 1.393 . S
C68 C72 1.395 . S
C68 C75 1.492 . S
C69 C68 1.393 . S
C69 C70 1.392 . S
C69 H80 0.930 . S
C70 C69 1.392 . S
C70 C71 1.386 . S
C71 C70 1.386 . S
C71 C73 1.395 . S
C71 H81 0.930 . S
C72 C68 1.395 . S
C72 C73 1.379 . S
C72 H82 0.930 . S
C73 C71 1.395 . S
C73 C72 1.379 . S
C73 H83 0.930 . S
C74 O52 1.264 . S
C74 O53 1.254 . S
C75 Eu11 2.848 . S
C75 O50 1.257 . S
C75 O55 1.249 . S
C75 C68 1.492 . S
H76 C59 0.930 . S
H77 C60 0.930 . S
H78 C61 0.930 . S
H79 C62 0.930 . S
H80 C69 0.930 . S
H81 C71 0.930 . S
H82 C72 0.930 . S
H83 C73 0.930 . S
Eu84 N115 2.657 . S
Eu84 N122 2.609 . S
Eu84 O128 2.558 . S
Eu84 O129 2.612 . S
Eu84 O131 2.339 . S
Eu84 O132 2.563 . S
Eu84 O133 2.419 . S
Eu84 O135 2.380 . S
Eu84 O136 2.432 . S
Eu84 C148 2.848 . S
C85 C88 1.429 . S
C85 C89 1.411 . S
C85 N92 1.377 . S
C86 C88 1.420 . S
C86 C90 1.423 . S
C86 C98 1.392 . S
C87 C89 1.420 . S
C87 C90 1.351 . S
C87 H110 0.931 . S
C88 C85 1.429 . S
C88 C86 1.420 . S
C88 N96 1.362 . S
C89 C85 1.411 . S
C89 C87 1.420 . S
C89 C94 1.395 . S
C90 C86 1.423 . S
C90 C87 1.351 . S
C90 H102 0.930 . S
C91 C93 1.400 . S
C91 C94 1.386 . S
C91 H103 0.930 . S
N92 C85 1.377 . S
N92 C93 1.321 . S
N92 Eu95 2.609 . S
C93 C91 1.400 . S
C93 N92 1.321 . S
C93 H100 0.930 . S
C94 C89 1.395 . S
C94 C91 1.386 . S
C94 H113 0.930 . S
Eu95 N92 2.609 . S
Eu95 N96 2.657 . S
Eu95 O129 2.380 . S
Eu95 O130 2.432 . S
Eu95 O134 2.558 . S
Eu95 O135 2.612 . S
Eu95 O137 2.339 . S
Eu95 O138 2.563 . S
Eu95 O139 2.419 . S
Eu95 C159 2.848 . S
N96 C88 1.362 . S
N96 Eu95 2.657 . S
N96 C97 1.334 . S
C97 N96 1.334 . S
C97 C99 1.413 . S
C97 H104 0.929 . S
C98 C86 1.392 . S
C98 C99 1.367 . S
C98 H106 0.930 . S
C99 C97 1.413 . S
C99 C98 1.367 . S
C99 H101 0.930 . S
H100 C93 0.930 . S
H101 C99 0.930 . S
H102 C90 0.930 . S
H103 C91 0.930 . S
H104 C97 0.929 . S
H105 C119 0.930 . S
H106 C98 0.930 . S
H107 C125 0.930 . S
H108 C116 0.929 . S
H109 C123 0.930 . S
H110 C87 0.931 . S
H111 C117 0.930 . S
H112 C150 0.930 . S
H113 C94 0.930 . S
H114 C149 0.931 . S
N115 Eu84 2.657 . S
N115 C116 1.334 . S
N115 C120 1.362 . S
C116 H108 0.929 . S
C116 N115 1.334 . S
C116 C119 1.413 . S
C117 H111 0.930 . S
C117 C118 1.392 . S
C117 C119 1.367 . S
C118 C117 1.392 . S
C118 C120 1.420 . S
C118 C150 1.423 . S
C119 H105 0.930 . S
C119 C116 1.413 . S
C119 C117 1.367 . S
C120 N115 1.362 . S
C120 C118 1.420 . S
C120 C124 1.429 . S
H121 C126 0.930 . S
N122 Eu84 2.609 . S
N122 C124 1.377 . S
N122 C125 1.321 . S
C123 H109 0.930 . S
C123 C125 1.400 . S
C123 C126 1.386 . S
C124 C120 1.429 . S
C124 N122 1.377 . S
C124 C127 1.411 . S
C125 H107 0.930 . S
C125 N122 1.321 . S
C125 C123 1.400 . S
C126 H121 0.930 . S
C126 C123 1.386 . S
C126 C127 1.395 . S
C127 C124 1.411 . S
C127 C126 1.395 . S
C127 C149 1.420 . S
O128 Eu84 2.558 . S
O128 C148 1.257 . S
O129 Eu84 2.612 . S
O129 Eu95 2.380 . S
O129 C140 1.276 . S
O130 Eu95 2.432 . S
O130 C147 1.264 . S
O131 Eu84 2.339 . S
O131 C147 1.254 . S
O132 Eu84 2.563 . S
O132 C140 1.235 . S
O133 Eu84 2.419 . S
O133 C148 1.249 . S
O134 Eu95 2.558 . S
O134 C159 1.257 . S
O135 Eu84 2.380 . S
O135 Eu95 2.612 . S
O135 C151 1.276 . S
O136 Eu84 2.432 . S
O136 C158 1.264 . S
O137 Eu95 2.339 . S
O137 C158 1.254 . S
O138 Eu95 2.563 . S
O138 C151 1.235 . S
O139 Eu95 2.419 . S
O139 C159 1.249 . S
C140 O129 1.276 . S
C140 O132 1.235 . S
C141 C143 1.393 . S
C141 C145 1.395 . S
C141 C148 1.492 . S
C142 C143 1.392 . S
C142 C144 1.386 . S
C143 C141 1.393 . S
C143 C142 1.392 . S
C143 H160 0.930 . S
C144 C142 1.386 . S
C144 C146 1.395 . S
C144 H161 0.930 . S
C145 C141 1.395 . S
C145 C146 1.379 . S
C145 H162 0.930 . S
C146 C144 1.395 . S
C146 C145 1.379 . S
C146 H163 0.930 . S
C147 O130 1.264 . S
C147 O131 1.254 . S
C148 Eu84 2.848 . S
C148 O128 1.257 . S
C148 O133 1.249 . S
C148 C141 1.492 . S
C149 H114 0.931 . S
C149 C127 1.420 . S
C149 C150 1.351 . S
C150 H112 0.930 . S
C150 C118 1.423 . S
C150 C149 1.351 . S
C151 O135 1.276 . S
C151 O138 1.235 . S
C152 C153 1.393 . S
C152 C156 1.395 . S
C152 C159 1.492 . S
C153 C152 1.393 . S
C153 C154 1.392 . S
C153 H164 0.930 . S
C154 C153 1.392 . S
C154 C155 1.386 . S
C155 C154 1.386 . S
C155 C157 1.395 . S
C155 H165 0.930 . S
C156 C152 1.395 . S
C156 C157 1.379 . S
C156 H166 0.930 . S
C157 C155 1.395 . S
C157 C156 1.379 . S
C157 H167 0.930 . S
C158 O136 1.264 . S
C158 O137 1.254 . S
C159 Eu95 2.848 . S
C159 O134 1.257 . S
C159 O139 1.249 . S
C159 C152 1.492 . S
H160 C143 0.930 . S
H161 C144 0.930 . S
H162 C145 0.930 . S
H163 C146 0.930 . S
H164 C153 0.930 . S
H165 C155 0.930 . S
H166 C156 0.930 . S
H167 C157 0.930 . S
Eu168 N199 2.657 . S
Eu168 N206 2.609 . S
Eu168 O212 2.558 . S
Eu168 O213 2.612 . S
Eu168 O215 2.339 . S
Eu168 O216 2.563 . S
Eu168 O217 2.419 . S
Eu168 O219 2.380 . S
Eu168 O220 2.432 . S
Eu168 C232 2.848 . S
C169 C172 1.429 . S
C169 C173 1.411 . S
C169 N176 1.377 . S
C170 C172 1.420 . S
C170 C174 1.423 . S
C170 C182 1.392 . S
C171 C173 1.420 . S
C171 C174 1.351 . S
C171 H194 0.931 . S
C172 C169 1.429 . S
C172 C170 1.420 . S
C172 N180 1.362 . S
C173 C169 1.411 . S
C173 C171 1.420 . S
C173 C178 1.395 . S
C174 C170 1.423 . S
C174 C171 1.351 . S
C174 H186 0.930 . S
C175 C177 1.400 . S
C175 C178 1.386 . S
C175 H187 0.930 . S
N176 C169 1.377 . S
N176 C177 1.321 . S
N176 Eu179 2.609 . S
C177 C175 1.400 . S
C177 N176 1.321 . S
C177 H184 0.930 . S
C178 C173 1.395 . S
C178 C175 1.386 . S
C178 H197 0.930 . S
Eu179 N176 2.609 . S
Eu179 N180 2.657 . S
Eu179 O213 2.380 . S
Eu179 O214 2.432 . S
Eu179 O218 2.558 . S
Eu179 O219 2.612 . S
Eu179 O221 2.339 . S
Eu179 O222 2.563 . S
Eu179 O223 2.419 . S
Eu179 C243 2.848 . S
N180 C172 1.362 . S
N180 Eu179 2.657 . S
N180 C181 1.334 . S
C181 N180 1.334 . S
C181 C183 1.413 . S
C181 H188 0.929 . S
C182 C170 1.392 . S
C182 C183 1.367 . S
C182 H190 0.930 . S
C183 C181 1.413 . S
C183 C182 1.367 . S
C183 H185 0.930 . S
H184 C177 0.930 . S
H185 C183 0.930 . S
H186 C174 0.930 . S
H187 C175 0.930 . S
H188 C181 0.929 . S
H189 C203 0.930 . S
H190 C182 0.930 . S
H191 C209 0.930 . S
H192 C200 0.929 . S
H193 C207 0.930 . S
H194 C171 0.931 . S
H195 C201 0.930 . S
H196 C234 0.930 . S
H197 C178 0.930 . S
H198 C233 0.931 . S
N199 Eu168 2.657 . S
N199 C200 1.334 . S
N199 C204 1.362 . S
C200 H192 0.929 . S
C200 N199 1.334 . S
C200 C203 1.413 . S
C201 H195 0.930 . S
C201 C202 1.392 . S
C201 C203 1.367 . S
C202 C201 1.392 . S
C202 C204 1.420 . S
C202 C234 1.423 . S
C203 H189 0.930 . S
C203 C200 1.413 . S
C203 C201 1.367 . S
C204 N199 1.362 . S
C204 C202 1.420 . S
C204 C208 1.429 . S
H205 C210 0.930 . S
N206 Eu168 2.609 . S
N206 C208 1.377 . S
N206 C209 1.321 . S
C207 H193 0.930 . S
C207 C209 1.400 . S
C207 C210 1.386 . S
C208 C204 1.429 . S
C208 N206 1.377 . S
C208 C211 1.411 . S
C209 H191 0.930 . S
C209 N206 1.321 . S
C209 C207 1.400 . S
C210 H205 0.930 . S
C210 C207 1.386 . S
C210 C211 1.395 . S
C211 C208 1.411 . S
C211 C210 1.395 . S
C211 C233 1.420 . S
O212 Eu168 2.558 . S
O212 C232 1.257 . S
O213 Eu168 2.612 . S
O213 Eu179 2.380 . S
O213 C224 1.276 . S
O214 Eu179 2.432 . S
O214 C231 1.264 . S
O215 Eu168 2.339 . S
O215 C231 1.254 . S
O216 Eu168 2.563 . S
O216 C224 1.235 . S
O217 Eu168 2.419 . S
O217 C232 1.249 . S
O218 Eu179 2.558 . S
O218 C243 1.257 . S
O219 Eu168 2.380 . S
O219 Eu179 2.612 . S
O219 C235 1.276 . S
O220 Eu168 2.432 . S
O220 C242 1.264 . S
O221 Eu179 2.339 . S
O221 C242 1.254 . S
O222 Eu179 2.563 . S
O222 C235 1.235 . S
O223 Eu179 2.419 . S
O223 C243 1.249 . S
C224 O213 1.276 . S
C224 O216 1.235 . S
C225 C227 1.393 . S
C225 C229 1.395 . S
C225 C232 1.492 . S
C226 C227 1.392 . S
C226 C228 1.386 . S
C227 C225 1.393 . S
C227 C226 1.392 . S
C227 H244 0.930 . S
C228 C226 1.386 . S
C228 C230 1.395 . S
C228 H245 0.930 . S
C229 C225 1.395 . S
C229 C230 1.379 . S
C229 H246 0.930 . S
C230 C228 1.395 . S
C230 C229 1.379 . S
C230 H247 0.930 . S
C231 O214 1.264 . S
C231 O215 1.254 . S
C232 Eu168 2.848 . S
C232 O212 1.257 . S
C232 O217 1.249 . S
C232 C225 1.492 . S
C233 H198 0.931 . S
C233 C211 1.420 . S
C233 C234 1.351 . S
C234 H196 0.930 . S
C234 C202 1.423 . S
C234 C233 1.351 . S
C235 O219 1.276 . S
C235 O222 1.235 . S
C236 C237 1.393 . S
C236 C240 1.395 . S
C236 C243 1.492 . S
C237 C236 1.393 . S
C237 C238 1.392 . S
C237 H248 0.930 . S
C238 C237 1.392 . S
C238 C239 1.386 . S
C239 C238 1.386 . S
C239 C241 1.395 . S
C239 H249 0.930 . S
C240 C236 1.395 . S
C240 C241 1.379 . S
C240 H250 0.930 . S
C241 C239 1.395 . S
C241 C240 1.379 . S
C241 H251 0.930 . S
C242 O220 1.264 . S
C242 O221 1.254 . S
C243 Eu179 2.848 . S
C243 O218 1.257 . S
C243 O223 1.249 . S
C243 C236 1.492 . S
H244 C227 0.930 . S
H245 C228 0.930 . S
H246 C229 0.930 . S
H247 C230 0.930 . S
H248 C237 0.930 . S
H249 C239 0.930 . S
H250 C240 0.930 . S
H251 C241 0.930 . S
Eu252 N283 2.657 . S
Eu252 N290 2.609 . S
Eu252 O296 2.558 . S
Eu252 O297 2.612 . S
Eu252 O299 2.339 . S
Eu252 O300 2.563 . S
Eu252 O301 2.419 . S
Eu252 O303 2.380 . S
Eu252 O304 2.432 . S
Eu252 C316 2.848 . S
C253 C256 1.429 . S
C253 C257 1.411 . S
C253 N260 1.377 . S
C254 C256 1.420 . S
C254 C258 1.423 . S
C254 C266 1.392 . S
C255 C257 1.420 . S
C255 C258 1.351 . S
C255 H278 0.931 . S
C256 C253 1.429 . S
C256 C254 1.420 . S
C256 N264 1.362 . S
C257 C253 1.411 . S
C257 C255 1.420 . S
C257 C262 1.395 . S
C258 C254 1.423 . S
C258 C255 1.351 . S
C258 H270 0.930 . S
C259 C261 1.400 . S
C259 C262 1.386 . S
C259 H271 0.930 . S
N260 C253 1.377 . S
N260 C261 1.321 . S
N260 Eu263 2.609 . S
C261 C259 1.400 . S
C261 N260 1.321 . S
C261 H268 0.930 . S
C262 C257 1.395 . S
C262 C259 1.386 . S
C262 H281 0.930 . S
Eu263 N260 2.609 . S
Eu263 N264 2.657 . S
Eu263 O297 2.380 . S
Eu263 O298 2.432 . S
Eu263 O302 2.558 . S
Eu263 O303 2.612 . S
Eu263 O305 2.339 . S
Eu263 O306 2.563 . S
Eu263 O307 2.419 . S
Eu263 C327 2.848 . S
N264 C256 1.362 . S
N264 Eu263 2.657 . S
N264 C265 1.334 . S
C265 N264 1.334 . S
C265 C267 1.413 . S
C265 H272 0.929 . S
C266 C254 1.392 . S
C266 C267 1.367 . S
C266 H274 0.930 . S
C267 C265 1.413 . S
C267 C266 1.367 . S
C267 H269 0.930 . S
H268 C261 0.930 . S
H269 C267 0.930 . S
H270 C258 0.930 . S
H271 C259 0.930 . S
H272 C265 0.929 . S
H273 C287 0.930 . S
H274 C266 0.930 . S
H275 C293 0.930 . S
H276 C284 0.929 . S
H277 C291 0.930 . S
H278 C255 0.931 . S
H279 C285 0.930 . S
H280 C318 0.930 . S
H281 C262 0.930 . S
H282 C317 0.931 . S
N283 Eu252 2.657 . S
N283 C284 1.334 . S
N283 C288 1.362 . S
C284 H276 0.929 . S
C284 N283 1.334 . S
C284 C287 1.413 . S
C285 H279 0.930 . S
C285 C286 1.392 . S
C285 C287 1.367 . S
C286 C285 1.392 . S
C286 C288 1.420 . S
C286 C318 1.423 . S
C287 H273 0.930 . S
C287 C284 1.413 . S
C287 C285 1.367 . S
C288 N283 1.362 . S
C288 C286 1.420 . S
C288 C292 1.429 . S
H289 C294 0.930 . S
N290 Eu252 2.609 . S
N290 C292 1.377 . S
N290 C293 1.321 . S
C291 H277 0.930 . S
C291 C293 1.400 . S
C291 C294 1.386 . S
C292 C288 1.429 . S
C292 N290 1.377 . S
C292 C295 1.411 . S
C293 H275 0.930 . S
C293 N290 1.321 . S
C293 C291 1.400 . S
C294 H289 0.930 . S
C294 C291 1.386 . S
C294 C295 1.395 . S
C295 C292 1.411 . S
C295 C294 1.395 . S
C295 C317 1.420 . S
O296 Eu252 2.558 . S
O296 C316 1.257 . S
O297 Eu252 2.612 . S
O297 Eu263 2.380 . S
O297 C308 1.276 . S
O298 Eu263 2.432 . S
O298 C315 1.264 . S
O299 Eu252 2.339 . S
O299 C315 1.254 . S
O300 Eu252 2.563 . S
O300 C308 1.235 . S
O301 Eu252 2.419 . S
O301 C316 1.249 . S
O302 Eu263 2.558 . S
O302 C327 1.257 . S
O303 Eu252 2.380 . S
O303 Eu263 2.612 . S
O303 C319 1.276 . S
O304 Eu252 2.432 . S
O304 C326 1.264 . S
O305 Eu263 2.339 . S
O305 C326 1.254 . S
O306 Eu263 2.563 . S
O306 C319 1.235 . S
O307 Eu263 2.419 . S
O307 C327 1.249 . S
C308 O297 1.276 . S
C308 O300 1.235 . S
C309 C311 1.393 . S
C309 C313 1.395 . S
C309 C316 1.492 . S
C310 C311 1.392 . S
C310 C312 1.386 . S
C311 C309 1.393 . S
C311 C310 1.392 . S
C311 H328 0.930 . S
C312 C310 1.386 . S
C312 C314 1.395 . S
C312 H329 0.930 . S
C313 C309 1.395 . S
C313 C314 1.379 . S
C313 H330 0.930 . S
C314 C312 1.395 . S
C314 C313 1.379 . S
C314 H331 0.930 . S
C315 O298 1.264 . S
C315 O299 1.254 . S
C316 Eu252 2.848 . S
C316 O296 1.257 . S
C316 O301 1.249 . S
C316 C309 1.492 . S
C317 H282 0.931 . S
C317 C295 1.420 . S
C317 C318 1.351 . S
C318 H280 0.930 . S
C318 C286 1.423 . S
C318 C317 1.351 . S
C319 O303 1.276 . S
C319 O306 1.235 . S
C320 C321 1.393 . S
C320 C324 1.395 . S
C320 C327 1.492 . S
C321 C320 1.393 . S
C321 C322 1.392 . S
C321 H332 0.930 . S
C322 C321 1.392 . S
C322 C323 1.386 . S
C323 C322 1.386 . S
C323 C325 1.395 . S
C323 H333 0.930 . S
C324 C320 1.395 . S
C324 C325 1.379 . S
C324 H334 0.930 . S
C325 C323 1.395 . S
C325 C324 1.379 . S
C325 H335 0.930 . S
C326 O304 1.264 . S
C326 O305 1.254 . S
C327 Eu263 2.848 . S
C327 O302 1.257 . S
C327 O307 1.249 . S
C327 C320 1.492 . S
H328 C311 0.930 . S
H329 C312 0.930 . S
H330 C313 0.930 . S
H331 C314 0.930 . S
H332 C321 0.930 . S
H333 C323 0.930 . S
H334 C324 0.930 . S
H335 C325 0.930 . S
Eu336 N367 2.657 . S
Eu336 N374 2.609 . S
Eu336 O380 2.558 . S
Eu336 O381 2.612 . S
Eu336 O383 2.339 . S
Eu336 O384 2.563 . S
Eu336 O385 2.419 . S
Eu336 O387 2.380 . S
Eu336 O388 2.432 . S
Eu336 C400 2.848 . S
C337 C340 1.429 . S
C337 C341 1.411 . S
C337 N344 1.377 . S
C338 C340 1.420 . S
C338 C342 1.423 . S
C338 C350 1.392 . S
C339 C341 1.420 . S
C339 C342 1.351 . S
C339 H362 0.931 . S
C340 C337 1.429 . S
C340 C338 1.420 . S
C340 N348 1.362 . S
C341 C337 1.411 . S
C341 C339 1.420 . S
C341 C346 1.395 . S
C342 C338 1.423 . S
C342 C339 1.351 . S
C342 H354 0.930 . S
C343 C345 1.400 . S
C343 C346 1.386 . S
C343 H355 0.930 . S
N344 C337 1.377 . S
N344 C345 1.321 . S
N344 Eu347 2.609 . S
C345 C343 1.400 . S
C345 N344 1.321 . S
C345 H352 0.930 . S
C346 C341 1.395 . S
C346 C343 1.386 . S
C346 H365 0.930 . S
Eu347 N344 2.609 . S
Eu347 N348 2.657 . S
Eu347 O381 2.380 . S
Eu347 O382 2.432 . S
Eu347 O386 2.558 . S
Eu347 O387 2.612 . S
Eu347 O389 2.339 . S
Eu347 O390 2.563 . S
Eu347 O391 2.419 . S
Eu347 C411 2.848 . S
N348 C340 1.362 . S
N348 Eu347 2.657 . S
N348 C349 1.334 . S
C349 N348 1.334 . S
C349 C351 1.413 . S
C349 H356 0.929 . S
C350 C338 1.392 . S
C350 C351 1.367 . S
C350 H358 0.930 . S
C351 C349 1.413 . S
C351 C350 1.367 . S
C351 H353 0.930 . S
H352 C345 0.930 . S
H353 C351 0.930 . S
H354 C342 0.930 . S
H355 C343 0.930 . S
H356 C349 0.929 . S
H357 C371 0.930 . S
H358 C350 0.930 . S
H359 C377 0.930 . S
H360 C368 0.929 . S
H361 C375 0.930 . S
H362 C339 0.931 . S
H363 C369 0.930 . S
H364 C402 0.930 . S
H365 C346 0.930 . S
H366 C401 0.931 . S
N367 Eu336 2.657 . S
N367 C368 1.334 . S
N367 C372 1.362 . S
C368 H360 0.929 . S
C368 N367 1.334 . S
C368 C371 1.413 . S
C369 H363 0.930 . S
C369 C370 1.392 . S
C369 C371 1.367 . S
C370 C369 1.392 . S
C370 C372 1.420 . S
C370 C402 1.423 . S
C371 H357 0.930 . S
C371 C368 1.413 . S
C371 C369 1.367 . S
C372 N367 1.362 . S
C372 C370 1.420 . S
C372 C376 1.429 . S
H373 C378 0.930 . S
N374 Eu336 2.609 . S
N374 C376 1.377 . S
N374 C377 1.321 . S
C375 H361 0.930 . S
C375 C377 1.400 . S
C375 C378 1.386 . S
C376 C372 1.429 . S
C376 N374 1.377 . S
C376 C379 1.411 . S
C377 H359 0.930 . S
C377 N374 1.321 . S
C377 C375 1.400 . S
C378 H373 0.930 . S
C378 C375 1.386 . S
C378 C379 1.395 . S
C379 C376 1.411 . S
C379 C378 1.395 . S
C379 C401 1.420 . S
O380 Eu336 2.558 . S
O380 C400 1.257 . S
O381 Eu336 2.612 . S
O381 Eu347 2.380 . S
O381 C392 1.276 . S
O382 Eu347 2.432 . S
O382 C399 1.264 . S
O383 Eu336 2.339 . S
O383 C399 1.254 . S
O384 Eu336 2.563 . S
O384 C392 1.235 . S
O385 Eu336 2.419 . S
O385 C400 1.249 . S
O386 Eu347 2.558 . S
O386 C411 1.257 . S
O387 Eu336 2.380 . S
O387 Eu347 2.612 . S
O387 C403 1.276 . S
O388 Eu336 2.432 . S
O388 C410 1.264 . S
O389 Eu347 2.339 . S
O389 C410 1.254 . S
O390 Eu347 2.563 . S
O390 C403 1.235 . S
O391 Eu347 2.419 . S
O391 C411 1.249 . S
C392 O381 1.276 . S
C392 O384 1.235 . S
C393 C395 1.393 . S
C393 C397 1.395 . S
C393 C400 1.492 . S
C394 C395 1.392 . S
C394 C396 1.386 . S
C395 C393 1.393 . S
C395 C394 1.392 . S
C395 H412 0.930 . S
C396 C394 1.386 . S
C396 C398 1.395 . S
C396 H413 0.930 . S
C397 C393 1.395 . S
C397 C398 1.379 . S
C397 H414 0.930 . S
C398 C396 1.395 . S
C398 C397 1.379 . S
C398 H415 0.930 . S
C399 O382 1.264 . S
C399 O383 1.254 . S
C400 Eu336 2.848 . S
C400 O380 1.257 . S
C400 O385 1.249 . S
C400 C393 1.492 . S
C401 H366 0.931 . S
C401 C379 1.420 . S
C401 C402 1.351 . S
C402 H364 0.930 . S
C402 C370 1.423 . S
C402 C401 1.351 . S
C403 O387 1.276 . S
C403 O390 1.235 . S
C404 C405 1.393 . S
C404 C408 1.395 . S
C404 C411 1.492 . S
C405 C404 1.393 . S
C405 C406 1.392 . S
C405 H416 0.930 . S
C406 C405 1.392 . S
C406 C407 1.386 . S
C407 C406 1.386 . S
C407 C409 1.395 . S
C407 H417 0.930 . S
C408 C404 1.395 . S
C408 C409 1.379 . S
C408 H418 0.930 . S
C409 C407 1.395 . S
C409 C408 1.379 . S
C409 H419 0.930 . S
C410 O388 1.264 . S
C410 O389 1.254 . S
C411 Eu347 2.848 . S
C411 O386 1.257 . S
C411 O391 1.249 . S
C411 C404 1.492 . S
H412 C395 0.930 . S
H413 C396 0.930 . S
H414 C397 0.930 . S
H415 C398 0.930 . S
H416 C405 0.930 . S
H417 C407 0.930 . S
H418 C408 0.930 . S
H419 C409 0.930 . S
Eu420 N451 2.657 . S
Eu420 N458 2.609 . S
Eu420 O464 2.558 . S
Eu420 O465 2.612 . S
Eu420 O467 2.339 . S
Eu420 O468 2.563 . S
Eu420 O469 2.419 . S
Eu420 O471 2.380 . S
Eu420 O472 2.432 . S
Eu420 C484 2.848 . S
C421 C424 1.429 . S
C421 C425 1.411 . S
C421 N428 1.377 . S
C422 C424 1.420 . S
C422 C426 1.423 . S
C422 C434 1.392 . S
C423 C425 1.420 . S
C423 C426 1.351 . S
C423 H446 0.931 . S
C424 C421 1.429 . S
C424 C422 1.420 . S
C424 N432 1.362 . S
C425 C421 1.411 . S
C425 C423 1.420 . S
C425 C430 1.395 . S
C426 C422 1.423 . S
C426 C423 1.351 . S
C426 H438 0.930 . S
C427 C429 1.400 . S
C427 C430 1.386 . S
C427 H439 0.930 . S
N428 C421 1.377 . S
N428 C429 1.321 . S
N428 Eu431 2.609 . S
C429 C427 1.400 . S
C429 N428 1.321 . S
C429 H436 0.930 . S
C430 C425 1.395 . S
C430 C427 1.386 . S
C430 H449 0.930 . S
Eu431 N428 2.609 . S
Eu431 N432 2.657 . S
Eu431 O465 2.380 . S
Eu431 O466 2.432 . S
Eu431 O470 2.558 . S
Eu431 O471 2.612 . S
Eu431 O473 2.339 . S
Eu431 O474 2.563 . S
Eu431 O475 2.419 . S
Eu431 C495 2.848 . S
N432 C424 1.362 . S
N432 Eu431 2.657 . S
N432 C433 1.334 . S
C433 N432 1.334 . S
C433 C435 1.413 . S
C433 H440 0.929 . S
C434 C422 1.392 . S
C434 C435 1.367 . S
C434 H442 0.930 . S
C435 C433 1.413 . S
C435 C434 1.367 . S
C435 H437 0.930 . S
H436 C429 0.930 . S
H437 C435 0.930 . S
H438 C426 0.930 . S
H439 C427 0.930 . S
H440 C433 0.929 . S
H441 C455 0.930 . S
H442 C434 0.930 . S
H443 C461 0.930 . S
H444 C452 0.929 . S
H445 C459 0.930 . S
H446 C423 0.931 . S
H447 C453 0.930 . S
H448 C486 0.930 . S
H449 C430 0.930 . S
H450 C485 0.931 . S
N451 Eu420 2.657 . S
N451 C452 1.334 . S
N451 C456 1.362 . S
C452 H444 0.929 . S
C452 N451 1.334 . S
C452 C455 1.413 . S
C453 H447 0.930 . S
C453 C454 1.392 . S
C453 C455 1.367 . S
C454 C453 1.392 . S
C454 C456 1.420 . S
C454 C486 1.423 . S
C455 H441 0.930 . S
C455 C452 1.413 . S
C455 C453 1.367 . S
C456 N451 1.362 . S
C456 C454 1.420 . S
C456 C460 1.429 . S
H457 C462 0.930 . S
N458 Eu420 2.609 . S
N458 C460 1.377 . S
N458 C461 1.321 . S
C459 H445 0.930 . S
C459 C461 1.400 . S
C459 C462 1.386 . S
C460 C456 1.429 . S
C460 N458 1.377 . S
C460 C463 1.411 . S
C461 H443 0.930 . S
C461 N458 1.321 . S
C461 C459 1.400 . S
C462 H457 0.930 . S
C462 C459 1.386 . S
C462 C463 1.395 . S
C463 C460 1.411 . S
C463 C462 1.395 . S
C463 C485 1.420 . S
O464 Eu420 2.558 . S
O464 C484 1.257 . S
O465 Eu420 2.612 . S
O465 Eu431 2.380 . S
O465 C476 1.276 . S
O466 Eu431 2.432 . S
O466 C483 1.264 . S
O467 Eu420 2.339 . S
O467 C483 1.254 . S
O468 Eu420 2.563 . S
O468 C476 1.235 . S
O469 Eu420 2.419 . S
O469 C484 1.249 . S
O470 Eu431 2.558 . S
O470 C495 1.257 . S
O471 Eu420 2.380 . S
O471 Eu431 2.612 . S
O471 C487 1.276 . S
O472 Eu420 2.432 . S
O472 C494 1.264 . S
O473 Eu431 2.339 . S
O473 C494 1.254 . S
O474 Eu431 2.563 . S
O474 C487 1.235 . S
O475 Eu431 2.419 . S
O475 C495 1.249 . S
C476 O465 1.276 . S
C476 O468 1.235 . S
C477 C479 1.393 . S
C477 C481 1.395 . S
C477 C484 1.492 . S
C478 C479 1.392 . S
C478 C480 1.386 . S
C479 C477 1.393 . S
C479 C478 1.392 . S
C479 H496 0.930 . S
C480 C478 1.386 . S
C480 C482 1.395 . S
C480 H497 0.930 . S
C481 C477 1.395 . S
C481 C482 1.379 . S
C481 H498 0.930 . S
C482 C480 1.395 . S
C482 C481 1.379 . S
C482 H499 0.930 . S
C483 O466 1.264 . S
C483 O467 1.254 . S
C484 Eu420 2.848 . S
C484 O464 1.257 . S
C484 O469 1.249 . S
C484 C477 1.492 . S
C485 H450 0.931 . S
C485 C463 1.420 . S
C485 C486 1.351 . S
C486 H448 0.930 . S
C486 C454 1.423 . S
C486 C485 1.351 . S
C487 O471 1.276 . S
C487 O474 1.235 . S
C488 C489 1.393 . S
C488 C492 1.395 . S
C488 C495 1.492 . S
C489 C488 1.393 . S
C489 C490 1.392 . S
C489 H500 0.930 . S
C490 C489 1.392 . S
C490 C491 1.386 . S
C491 C490 1.386 . S
C491 C493 1.395 . S
C491 H501 0.930 . S
C492 C488 1.395 . S
C492 C493 1.379 . S
C492 H502 0.930 . S
C493 C491 1.395 . S
C493 C492 1.379 . S
C493 H503 0.930 . S
C494 O472 1.264 . S
C494 O473 1.254 . S
C495 Eu431 2.848 . S
C495 O470 1.257 . S
C495 O475 1.249 . S
C495 C488 1.492 . S
H496 C479 0.930 . S
H497 C480 0.930 . S
H498 C481 0.930 . S
H499 C482 0.930 . S
H500 C489 0.930 . S
H501 C491 0.930 . S
H502 C492 0.930 . S
H503 C493 0.930 . S
Eu504 N535 2.657 . S
Eu504 N542 2.609 . S
Eu504 O548 2.558 . S
Eu504 O549 2.612 . S
Eu504 O551 2.339 . S
Eu504 O552 2.563 . S
Eu504 O553 2.419 . S
Eu504 O555 2.380 . S
Eu504 O556 2.432 . S
Eu504 C568 2.848 . S
C505 C508 1.429 . S
C505 C509 1.411 . S
C505 N512 1.377 . S
C506 C508 1.420 . S
C506 C510 1.423 . S
C506 C518 1.392 . S
C507 C509 1.420 . S
C507 C510 1.351 . S
C507 H530 0.931 . S
C508 C505 1.429 . S
C508 C506 1.420 . S
C508 N516 1.362 . S
C509 C505 1.411 . S
C509 C507 1.420 . S
C509 C514 1.395 . S
C510 C506 1.423 . S
C510 C507 1.351 . S
C510 H522 0.930 . S
C511 C513 1.400 . S
C511 C514 1.386 . S
C511 H523 0.930 . S
N512 C505 1.377 . S
N512 C513 1.321 . S
N512 Eu515 2.609 . S
C513 C511 1.400 . S
C513 N512 1.321 . S
C513 H520 0.930 . S
C514 C509 1.395 . S
C514 C511 1.386 . S
C514 H533 0.930 . S
Eu515 N512 2.609 . S
Eu515 N516 2.657 . S
Eu515 O549 2.380 . S
Eu515 O550 2.432 . S
Eu515 O554 2.558 . S
Eu515 O555 2.612 . S
Eu515 O557 2.339 . S
Eu515 O558 2.563 . S
Eu515 O559 2.419 . S
Eu515 C579 2.848 . S
N516 C508 1.362 . S
N516 Eu515 2.657 . S
N516 C517 1.334 . S
C517 N516 1.334 . S
C517 C519 1.413 . S
C517 H524 0.929 . S
C518 C506 1.392 . S
C518 C519 1.367 . S
C518 H526 0.930 . S
C519 C517 1.413 . S
C519 C518 1.367 . S
C519 H521 0.930 . S
H520 C513 0.930 . S
H521 C519 0.930 . S
H522 C510 0.930 . S
H523 C511 0.930 . S
H524 C517 0.929 . S
H525 C539 0.930 . S
H526 C518 0.930 . S
H527 C545 0.930 . S
H528 C536 0.929 . S
H529 C543 0.930 . S
H530 C507 0.931 . S
H531 C537 0.930 . S
H532 C570 0.930 . S
H533 C514 0.930 . S
H534 C569 0.931 . S
N535 Eu504 2.657 . S
N535 C536 1.334 . S
N535 C540 1.362 . S
C536 H528 0.929 . S
C536 N535 1.334 . S
C536 C539 1.413 . S
C537 H531 0.930 . S
C537 C538 1.392 . S
C537 C539 1.367 . S
C538 C537 1.392 . S
C538 C540 1.420 . S
C538 C570 1.423 . S
C539 H525 0.930 . S
C539 C536 1.413 . S
C539 C537 1.367 . S
C540 N535 1.362 . S
C540 C538 1.420 . S
C540 C544 1.429 . S
H541 C546 0.930 . S
N542 Eu504 2.609 . S
N542 C544 1.377 . S
N542 C545 1.321 . S
C543 H529 0.930 . S
C543 C545 1.400 . S
C543 C546 1.386 . S
C544 C540 1.429 . S
C544 N542 1.377 . S
C544 C547 1.411 . S
C545 H527 0.930 . S
C545 N542 1.321 . S
C545 C543 1.400 . S
C546 H541 0.930 . S
C546 C543 1.386 . S
C546 C547 1.395 . S
C547 C544 1.411 . S
C547 C546 1.395 . S
C547 C569 1.420 . S
O548 Eu504 2.558 . S
O548 C568 1.257 . S
O549 Eu504 2.612 . S
O549 Eu515 2.380 . S
O549 C560 1.276 . S
O550 Eu515 2.432 . S
O550 C567 1.264 . S
O551 Eu504 2.339 . S
O551 C567 1.254 . S
O552 Eu504 2.563 . S
O552 C560 1.235 . S
O553 Eu504 2.419 . S
O553 C568 1.249 . S
O554 Eu515 2.558 . S
O554 C579 1.257 . S
O555 Eu504 2.380 . S
O555 Eu515 2.612 . S
O555 C571 1.276 . S
O556 Eu504 2.432 . S
O556 C578 1.264 . S
O557 Eu515 2.339 . S
O557 C578 1.254 . S
O558 Eu515 2.563 . S
O558 C571 1.235 . S
O559 Eu515 2.419 . S
O559 C579 1.249 . S
C560 O549 1.276 . S
C560 O552 1.235 . S
C561 C563 1.393 . S
C561 C565 1.395 . S
C561 C568 1.492 . S
C562 C563 1.392 . S
C562 C564 1.386 . S
C563 C561 1.393 . S
C563 C562 1.392 . S
C563 H580 0.930 . S
C564 C562 1.386 . S
C564 C566 1.395 . S
C564 H581 0.930 . S
C565 C561 1.395 . S
C565 C566 1.379 . S
C565 H582 0.930 . S
C566 C564 1.395 . S
C566 C565 1.379 . S
C566 H583 0.930 . S
C567 O550 1.264 . S
C567 O551 1.254 . S
C568 Eu504 2.848 . S
C568 O548 1.257 . S
C568 O553 1.249 . S
C568 C561 1.492 . S
C569 H534 0.931 . S
C569 C547 1.420 . S
C569 C570 1.351 . S
C570 H532 0.930 . S
C570 C538 1.423 . S
C570 C569 1.351 . S
C571 O555 1.276 . S
C571 O558 1.235 . S
C572 C573 1.393 . S
C572 C576 1.395 . S
C572 C579 1.492 . S
C573 C572 1.393 . S
C573 C574 1.392 . S
C573 H584 0.930 . S
C574 C573 1.392 . S
C574 C575 1.386 . S
C575 C574 1.386 . S
C575 C577 1.395 . S
C575 H585 0.930 . S
C576 C572 1.395 . S
C576 C577 1.379 . S
C576 H586 0.930 . S
C577 C575 1.395 . S
C577 C576 1.379 . S
C577 H587 0.930 . S
C578 O556 1.264 . S
C578 O557 1.254 . S
C579 Eu515 2.848 . S
C579 O554 1.257 . S
C579 O559 1.249 . S
C579 C572 1.492 . S
H580 C563 0.930 . S
H581 C564 0.930 . S
H582 C565 0.930 . S
H583 C566 0.930 . S
H584 C573 0.930 . S
H585 C575 0.930 . S
H586 C576 0.930 . S
H587 C577 0.930 . S
Eu588 N619 2.657 . S
Eu588 N626 2.609 . S
Eu588 O632 2.558 . S
Eu588 O633 2.612 . S
Eu588 O635 2.339 . S
Eu588 O636 2.563 . S
Eu588 O637 2.419 . S
Eu588 O639 2.380 . S
Eu588 O640 2.432 . S
Eu588 C652 2.848 . S
C589 C592 1.429 . S
C589 C593 1.411 . S
C589 N596 1.377 . S
C590 C592 1.420 . S
C590 C594 1.423 . S
C590 C602 1.392 . S
C591 C593 1.420 . S
C591 C594 1.351 . S
C591 H614 0.931 . S
C592 C589 1.429 . S
C592 C590 1.420 . S
C592 N600 1.362 . S
C593 C589 1.411 . S
C593 C591 1.420 . S
C593 C598 1.395 . S
C594 C590 1.423 . S
C594 C591 1.351 . S
C594 H606 0.930 . S
C595 C597 1.400 . S
C595 C598 1.386 . S
C595 H607 0.930 . S
N596 C589 1.377 . S
N596 C597 1.321 . S
N596 Eu599 2.609 . S
C597 C595 1.400 . S
C597 N596 1.321 . S
C597 H604 0.930 . S
C598 C593 1.395 . S
C598 C595 1.386 . S
C598 H617 0.930 . S
Eu599 N596 2.609 . S
Eu599 N600 2.657 . S
Eu599 O633 2.380 . S
Eu599 O634 2.432 . S
Eu599 O638 2.558 . S
Eu599 O639 2.612 . S
Eu599 O641 2.339 . S
Eu599 O642 2.563 . S
Eu599 O643 2.419 . S
Eu599 C663 2.848 . S
N600 C592 1.362 . S
N600 Eu599 2.657 . S
N600 C601 1.334 . S
C601 N600 1.334 . S
C601 C603 1.413 . S
C601 H608 0.929 . S
C602 C590 1.392 . S
C602 C603 1.367 . S
C602 H610 0.930 . S
C603 C601 1.413 . S
C603 C602 1.367 . S
C603 H605 0.930 . S
H604 C597 0.930 . S
H605 C603 0.930 . S
H606 C594 0.930 . S
H607 C595 0.930 . S
H608 C601 0.929 . S
H609 C623 0.930 . S
H610 C602 0.930 . S
H611 C629 0.930 . S
H612 C620 0.929 . S
H613 C627 0.930 . S
H614 C591 0.931 . S
H615 C621 0.930 . S
H616 C654 0.930 . S
H617 C598 0.930 . S
H618 C653 0.931 . S
N619 Eu588 2.657 . S
N619 C620 1.334 . S
N619 C624 1.362 . S
C620 H612 0.929 . S
C620 N619 1.334 . S
C620 C623 1.413 . S
C621 H615 0.930 . S
C621 C622 1.392 . S
C621 C623 1.367 . S
C622 C621 1.392 . S
C622 C624 1.420 . S
C622 C654 1.423 . S
C623 H609 0.930 . S
C623 C620 1.413 . S
C623 C621 1.367 . S
C624 N619 1.362 . S
C624 C622 1.420 . S
C624 C628 1.429 . S
H625 C630 0.930 . S
N626 Eu588 2.609 . S
N626 C628 1.377 . S
N626 C629 1.321 . S
C627 H613 0.930 . S
C627 C629 1.400 . S
C627 C630 1.386 . S
C628 C624 1.429 . S
C628 N626 1.377 . S
C628 C631 1.411 . S
C629 H611 0.930 . S
C629 N626 1.321 . S
C629 C627 1.400 . S
C630 H625 0.930 . S
C630 C627 1.386 . S
C630 C631 1.395 . S
C631 C628 1.411 . S
C631 C630 1.395 . S
C631 C653 1.420 . S
O632 Eu588 2.558 . S
O632 C652 1.257 . S
O633 Eu588 2.612 . S
O633 Eu599 2.380 . S
O633 C644 1.276 . S
O634 Eu599 2.432 . S
O634 C651 1.264 . S
O635 Eu588 2.339 . S
O635 C651 1.254 . S
O636 Eu588 2.563 . S
O636 C644 1.235 . S
O637 Eu588 2.419 . S
O637 C652 1.249 . S
O638 Eu599 2.558 . S
O638 C663 1.257 . S
O639 Eu588 2.380 . S
O639 Eu599 2.612 . S
O639 C655 1.276 . S
O640 Eu588 2.432 . S
O640 C662 1.264 . S
O641 Eu599 2.339 . S
O641 C662 1.254 . S
O642 Eu599 2.563 . S
O642 C655 1.235 . S
O643 Eu599 2.419 . S
O643 C663 1.249 . S
C644 O633 1.276 . S
C644 O636 1.235 . S
C645 C647 1.393 . S
C645 C649 1.395 . S
C645 C652 1.492 . S
C646 C647 1.392 . S
C646 C648 1.386 . S
C647 C645 1.393 . S
C647 C646 1.392 . S
C647 H664 0.930 . S
C648 C646 1.386 . S
C648 C650 1.395 . S
C648 H665 0.930 . S
C649 C645 1.395 . S
C649 C650 1.379 . S
C649 H666 0.930 . S
C650 C648 1.395 . S
C650 C649 1.379 . S
C650 H667 0.930 . S
C651 O634 1.264 . S
C651 O635 1.254 . S
C652 Eu588 2.848 . S
C652 O632 1.257 . S
C652 O637 1.249 . S
C652 C645 1.492 . S
C653 H618 0.931 . S
C653 C631 1.420 . S
C653 C654 1.351 . S
C654 H616 0.930 . S
C654 C622 1.423 . S
C654 C653 1.351 . S
C655 O639 1.276 . S
C655 O642 1.235 . S
C656 C657 1.393 . S
C656 C660 1.395 . S
C656 C663 1.492 . S
C657 C656 1.393 . S
C657 C658 1.392 . S
C657 H668 0.930 . S
C658 C657 1.392 . S
C658 C659 1.386 . S
C659 C658 1.386 . S
C659 C661 1.395 . S
C659 H669 0.930 . S
C660 C656 1.395 . S
C660 C661 1.379 . S
C660 H670 0.930 . S
C661 C659 1.395 . S
C661 C660 1.379 . S
C661 H671 0.930 . S
C662 O640 1.264 . S
C662 O641 1.254 . S
C663 Eu599 2.848 . S
C663 O638 1.257 . S
C663 O643 1.249 . S
C663 C656 1.492 . S
H664 C647 0.930 . S
H665 C648 0.930 . S
H666 C649 0.930 . S
H667 C650 0.930 . S
H668 C657 0.930 . S
H669 C659 0.930 . S
H670 C660 0.930 . S
H671 C661 0.930 . S
Fe672 O673 1.886 1_455 S
Fe672 O676 1.715 . S
Fe672 O681 2.077 1_455 S
Fe672 O686 1.935 . S
Fe672 O692 2.077 1_455 S
Fe672 O701 1.935 . S
O673 Fe672 1.886 1_655 S
O673 Fe675 1.715 1_545 S
Fe674 O676 1.886 . S
Fe674 O677 1.715 1_545 S
Fe674 O684 1.935 1_545 S
Fe674 O685 2.077 . S
Fe674 O691 1.935 1_545 S
Fe674 O700 2.077 . S
Fe675 O673 1.715 1_565 S
Fe675 O678 1.886 . S
Fe675 O682 1.935 1_565 S
Fe675 O687 2.077 . S
Fe675 O693 1.935 1_565 S
Fe675 O697 2.077 . S
O676 Fe672 1.715 . S
O676 Fe674 1.886 . S
O677 Fe674 1.715 1_565 S
O677 Fe679 1.886 1_455 S
O678 Fe675 1.886 . S
O678 Fe679 1.715 . S
Fe679 O677 1.886 1_655 S
Fe679 O678 1.715 . S
Fe679 O683 2.077 1_655 S
Fe679 O688 1.935 . S
Fe679 O690 2.077 1_655 S
Fe679 O698 1.935 . S
C680 O692 1.381 . S
C680 O693 1.421 . S
O681 Fe672 2.077 1_655 S
O681 C694 1.381 . S
O682 Fe675 1.935 1_545 S
O682 C694 1.421 . S
O683 Fe679 2.077 1_455 S
O683 C699 1.381 . S
O684 Fe674 1.935 1_565 S
O684 C699 1.421 . S
O685 Fe674 2.077 . S
O685 C689 1.381 . S
O686 Fe672 1.935 . S
O686 C689 1.421 . S
O687 Fe675 2.077 . S
O687 C695 1.381 . S
O688 Fe679 1.935 . S
O688 C695 1.421 . S
C689 O685 1.381 . S
C689 O686 1.421 . S
O690 Fe679 2.077 1_455 S
O690 C702 1.381 . S
O691 Fe674 1.935 1_565 S
O691 C702 1.421 . S
O692 Fe672 2.077 1_655 S
O692 C680 1.381 . S
O693 Fe675 1.935 1_545 S
O693 C680 1.421 . S
C694 O681 1.381 . S
C694 O682 1.421 . S
C695 O687 1.381 . S
C695 O688 1.421 . S
C696 O697 1.381 . S
C696 O698 1.421 . S
O697 Fe675 2.077 . S
O697 C696 1.381 . S
O698 Fe679 1.935 . S
O698 C696 1.421 . S
C699 O683 1.381 . S
C699 O684 1.421 . S
O700 Fe674 2.077 . S
O700 C703 1.381 . S
O701 Fe672 1.935 . S
O701 C703 1.421 . S
C702 O690 1.381 . S
C702 O691 1.421 . S
C703 O700 1.381 . S
C703 O701 1.421 . S
Fe704 O705 1.886 . S
Fe704 O708 1.715 . S
Fe704 O713 2.077 1_554 S
Fe704 O718 1.935 1_554 S
Fe704 O724 2.077 . S
Fe704 O733 1.935 . S
O705 Fe704 1.886 . S
O705 Fe707 1.715 1_565 S
Fe706 O708 1.886 1_556 S
Fe706 O709 1.715 1_565 S
Fe706 O716 1.935 1_565 S
Fe706 O717 2.077 . S
Fe706 O723 1.935 1_566 S
Fe706 O732 2.077 1_556 S
Fe707 O705 1.715 1_545 S
Fe707 O710 1.885 1_554 S
Fe707 O714 1.935 1_544 S
Fe707 O719 2.077 1_554 S
Fe707 O725 1.935 1_545 S
Fe707 O729 2.077 . S
O708 Fe704 1.715 . S
O708 Fe706 1.886 1_554 S
O709 Fe706 1.715 1_545 S
O709 Fe711 1.886 . S
O710 Fe707 1.885 1_556 S
O710 Fe711 1.715 . S
Fe711 O709 1.886 . S
Fe711 O710 1.715 . S
Fe711 O715 2.077 . S
Fe711 O720 1.935 . S
Fe711 O722 2.077 1_556 S
Fe711 O730 1.935 1_556 S
C712 O724 1.381 . S
C712 O725 1.421 . S
O713 Fe704 2.077 1_556 S
O713 C726 1.381 . S
O714 Fe707 1.935 1_566 S
O714 C726 1.421 . S
O715 Fe711 2.077 . S
O715 C731 1.381 . S
O716 Fe706 1.935 1_545 S
O716 C731 1.421 . S
O717 Fe706 2.077 . S
O717 C721 1.381 . S
O718 Fe704 1.935 1_556 S
O718 C721 1.421 . S
O719 Fe707 2.077 1_556 S
O719 C727 1.381 . S
O720 Fe711 1.935 . S
O720 C727 1.421 . S
C721 O717 1.381 . S
C721 O718 1.421 . S
O722 Fe711 2.077 1_554 S
O722 C734 1.381 . S
O723 Fe706 1.935 1_544 S
O723 C734 1.421 . S
O724 Fe704 2.077 . S
O724 C712 1.381 . S
O725 Fe707 1.935 1_565 S
O725 C712 1.421 . S
C726 O713 1.381 . S
C726 O714 1.421 . S
C727 O719 1.381 . S
C727 O720 1.421 . S
C728 O729 1.381 . S
C728 O730 1.421 . S
O729 Fe707 2.077 . S
O729 C728 1.381 . S
O730 Fe711 1.935 1_554 S
O730 C728 1.421 . S
C731 O715 1.381 . S
C731 O716 1.421 . S
O732 Fe706 2.077 1_554 S
O732 C735 1.381 . S
O733 Fe704 1.935 . S
O733 C735 1.421 . S
C734 O722 1.381 . S
C734 O723 1.421 . S
C735 O732 1.381 . S
C735 O733 1.421 . S
Fe736 O737 1.886 1_455 S
Fe736 O740 1.716 . S
Fe736 O745 2.077 1_455 S
Fe736 O750 1.935 . S
Fe736 O756 2.077 1_456 S
Fe736 O765 1.935 1_556 S
O737 Fe736 1.886 1_655 S
O737 Fe739 1.715 . S
Fe738 O740 1.885 1_554 S
Fe738 O741 1.715 . S
Fe738 O748 1.935 1_554 S
Fe738 O749 2.077 1_554 S
Fe738 O755 1.935 . S
Fe738 O764 2.077 . S
Fe739 O737 1.715 . S
Fe739 O742 1.886 1_556 S
Fe739 O746 1.935 . S
Fe739 O751 2.077 . S
Fe739 O757 1.935 1_556 S
Fe739 O761 2.077 1_556 S
O740 Fe736 1.716 . S
O740 Fe738 1.885 1_556 S
O741 Fe738 1.715 . S
O741 Fe743 1.886 1_455 S
O742 Fe739 1.886 1_554 S
O742 Fe743 1.715 . S
Fe743 O741 1.886 1_655 S
Fe743 O742 1.715 . S
Fe743 O747 2.077 1_654 S
Fe743 O752 1.935 1_554 S
Fe743 O754 2.077 1_655 S
Fe743 O762 1.935 . S
C744 O756 1.381 . S
C744 O757 1.421 . S
O745 Fe736 2.077 1_655 S
O745 C758 1.381 . S
O746 Fe739 1.935 . S
O746 C758 1.421 . S
O747 Fe743 2.077 1_456 S
O747 C763 1.381 . S
O748 Fe738 1.935 1_556 S
O748 C763 1.421 . S
O749 Fe738 2.077 1_556 S
O749 C753 1.381 . S
O750 Fe736 1.935 . S
O750 C753 1.421 . S
O751 Fe739 2.077 . S
O751 C759 1.381 . S
O752 Fe743 1.935 1_556 S
O752 C759 1.421 . S
C753 O749 1.381 . S
C753 O750 1.421 . S
O754 Fe743 2.077 1_455 S
O754 C766 1.381 . S
O755 Fe738 1.935 . S
O755 C766 1.421 . S
O756 Fe736 2.077 1_654 S
O756 C744 1.381 . S
O757 Fe739 1.935 1_554 S
O757 C744 1.421 . S
C758 O745 1.381 . S
C758 O746 1.421 . S
C759 O751 1.381 . S
C759 O752 1.421 . S
C760 O761 1.381 . S
C760 O762 1.421 . S
O761 Fe739 2.077 1_554 S
O761 C760 1.381 . S
O762 Fe743 1.935 . S
O762 C760 1.421 . S
C763 O747 1.381 . S
C763 O748 1.421 . S
O764 Fe738 2.077 . S
O764 C767 1.381 . S
O765 Fe736 1.935 1_554 S
O765 C767 1.421 . S
C766 O754 1.381 . S
C766 O755 1.421 . S
C767 O764 1.381 . S
C767 O765 1.421 . S
Fe768 O769 1.886 . S
Fe768 O772 1.715 . S
Fe768 O777 2.077 . S
Fe768 O782 1.935 . S
Fe768 O788 2.077 . S
Fe768 O797 1.935 . S
O769 Fe768 1.886 . S
O769 Fe771 1.715 1_556 S
Fe770 O772 1.886 . S
Fe770 O773 1.715 1_556 S
Fe770 O780 1.935 1_556 S
Fe770 O781 2.077 . S
Fe770 O787 1.935 1_556 S
Fe770 O796 2.077 . S
Fe771 O769 1.715 1_554 S
Fe771 O774 1.886 . S
Fe771 O778 1.935 1_554 S
Fe771 O783 2.077 . S
Fe771 O789 1.935 1_554 S
Fe771 O793 2.077 . S
O772 Fe768 1.715 . S
O772 Fe770 1.886 . S
O773 Fe770 1.715 1_554 S
O773 Fe775 1.886 . S
O774 Fe771 1.886 . S
O774 Fe775 1.715 . S
Fe775 O773 1.886 . S
Fe775 O774 1.715 . S
Fe775 O779 2.077 . S
Fe775 O784 1.935 . S
Fe775 O786 2.077 . S
Fe775 O794 1.935 . S
C776 O788 1.381 . S
C776 O789 1.421 . S
O777 Fe768 2.077 . S
O777 C790 1.381 . S
O778 Fe771 1.935 1_556 S
O778 C790 1.421 . S
O779 Fe775 2.077 . S
O779 C795 1.381 . S
O780 Fe770 1.935 1_554 S
O780 C795 1.421 . S
O781 Fe770 2.077 . S
O781 C785 1.381 . S
O782 Fe768 1.935 . S
O782 C785 1.421 . S
O783 Fe771 2.077 . S
O783 C791 1.381 . S
O784 Fe775 1.935 . S
O784 C791 1.421 . S
C785 O781 1.381 . S
C785 O782 1.421 . S
O786 Fe775 2.077 . S
O786 C798 1.381 . S
O787 Fe770 1.935 1_554 S
O787 C798 1.421 . S
O788 Fe768 2.077 . S
O788 C776 1.381 . S
O789 Fe771 1.935 1_556 S
O789 C776 1.421 . S
C790 O777 1.381 . S
C790 O778 1.421 . S
C791 O783 1.381 . S
C791 O784 1.421 . S
C792 O793 1.381 . S
C792 O794 1.421 . S
O793 Fe771 2.077 . S
O793 C792 1.381 . S
O794 Fe775 1.935 . S
O794 C792 1.421 . S
C795 O779 1.381 . S
C795 O780 1.421 . S
O796 Fe770 2.077 . S
O796 C799 1.381 . S
O797 Fe768 1.935 . S
O797 C799 1.421 . S
C798 O786 1.381 . S
C798 O787 1.421 . S
C799 O796 1.381 . S
C799 O797 1.421 . S
Fe800 O801 1.886 . S
Fe800 O804 1.715 . S
Fe800 O809 2.077 1_655 S
Fe800 O814 1.935 1_655 S
Fe800 O820 2.077 . S
Fe800 O829 1.935 . S
O801 Fe800 1.886 . S
O801 Fe803 1.715 1_655 S
Fe802 O804 1.886 . S
Fe802 O805 1.715 1_655 S
Fe802 O812 1.935 1_655 S
Fe802 O813 2.077 1_655 S
Fe802 O819 1.935 . S
Fe802 O828 2.077 . S
Fe803 O801 1.715 1_455 S
Fe803 O806 1.886 . S
Fe803 O810 1.935 . S
Fe803 O815 2.077 . S
Fe803 O821 1.935 1_455 S
Fe803 O825 2.077 1_455 S
O804 Fe800 1.715 . S
O804 Fe802 1.886 . S
O805 Fe802 1.715 1_455 S
O805 Fe807 1.886 . S
O806 Fe803 1.886 . S
O806 Fe807 1.715 . S
Fe807 O805 1.886 . S
Fe807 O806 1.715 . S
Fe807 O811 2.077 . S
Fe807 O816 1.935 . S
Fe807 O818 2.077 1_455 S
Fe807 O826 1.935 1_455 S
C808 O820 1.381 . S
C808 O821 1.421 . S
O809 Fe800 2.077 1_455 S
O809 C822 1.381 . S
O810 Fe803 1.935 . S
O810 C822 1.421 . S
O811 Fe807 2.077 . S
O811 C827 1.381 . S
O812 Fe802 1.935 1_455 S
O812 C827 1.421 . S
O813 Fe802 2.077 1_455 S
O813 C817 1.381 . S
O814 Fe800 1.935 1_455 S
O814 C817 1.421 . S
O815 Fe803 2.077 . S
O815 C823 1.381 . S
O816 Fe807 1.935 . S
O816 C823 1.421 . S
C817 O813 1.381 . S
C817 O814 1.421 . S
O818 Fe807 2.077 1_655 S
O818 C830 1.381 . S
O819 Fe802 1.935 . S
O819 C830 1.421 . S
O820 Fe800 2.077 . S
O820 C808 1.381 . S
O821 Fe803 1.935 1_655 S
O821 C808 1.421 . S
C822 O809 1.381 . S
C822 O810 1.421 . S
C823 O815 1.381 . S
C823 O816 1.421 . S
C824 O825 1.381 . S
C824 O826 1.421 . S
O825 Fe803 2.077 1_655 S
O825 C824 1.381 . S
O826 Fe807 1.935 1_655 S
O826 C824 1.421 . S
C827 O811 1.381 . S
C827 O812 1.421 . S
O828 Fe802 2.077 . S
O828 C831 1.381 . S
O829 Fe800 1.935 . S
O829 C831 1.421 . S
C830 O818 1.381 . S
C830 O819 1.421 . S
C831 O828 1.381 . S
C831 O829 1.421 . S
Fe832 O833 1.886 . S
Fe832 O836 1.715 . S
Fe832 O841 2.077 . S
Fe832 O846 1.935 . S
Fe832 O852 2.077 . S
Fe832 O861 1.935 . S
O833 Fe832 1.886 . S
O833 Fe835 1.715 . S
Fe834 O836 1.886 1_545 S
Fe834 O837 1.715 . S
Fe834 O844 1.935 . S
Fe834 O845 2.077 1_545 S
Fe834 O851 1.935 . S
Fe834 O860 2.077 1_545 S
Fe835 O833 1.715 . S
Fe835 O838 1.886 1_565 S
Fe835 O842 1.935 . S
Fe835 O847 2.077 1_565 S
Fe835 O853 1.935 . S
Fe835 O857 2.077 1_565 S
O836 Fe832 1.715 . S
O836 Fe834 1.886 1_565 S
O837 Fe834 1.715 . S
O837 Fe839 1.886 . S
O838 Fe835 1.886 1_545 S
O838 Fe839 1.715 . S
Fe839 O837 1.886 . S
Fe839 O838 1.715 . S
Fe839 O843 2.077 . S
Fe839 O848 1.935 . S
Fe839 O850 2.077 . S
Fe839 O858 1.935 . S
C840 O852 1.381 . S
C840 O853 1.421 . S
O841 Fe832 2.077 . S
O841 C854 1.381 . S
O842 Fe835 1.935 . S
O842 C854 1.421 . S
O843 Fe839 2.077 . S
O843 C859 1.381 . S
O844 Fe834 1.935 . S
O844 C859 1.421 . S
O845 Fe834 2.077 1_565 S
O845 C849 1.381 . S
O846 Fe832 1.935 . S
O846 C849 1.421 . S
O847 Fe835 2.077 1_545 S
O847 C855 1.381 . S
O848 Fe839 1.935 . S
O848 C855 1.421 . S
C849 O845 1.381 . S
C849 O846 1.421 . S
O850 Fe839 2.077 . S
O850 C862 1.381 . S
O851 Fe834 1.935 . S
O851 C862 1.421 . S
O852 Fe832 2.077 . S
O852 C840 1.381 . S
O853 Fe835 1.935 . S
O853 C840 1.421 . S
C854 O841 1.381 . S
C854 O842 1.421 . S
C855 O847 1.381 . S
C855 O848 1.421 . S
C856 O857 1.381 . S
C856 O858 1.421 . S
O857 Fe835 2.077 1_545 S
O857 C856 1.381 . S
O858 Fe839 1.935 . S
O858 C856 1.421 . S
C859 O843 1.381 . S
C859 O844 1.421 . S
O860 Fe834 2.077 1_565 S
O860 C863 1.381 . S
O861 Fe832 1.935 . S
O861 C863 1.421 . S
C862 O850 1.381 . S
C862 O851 1.421 . S
C863 O860 1.381 . S
C863 O861 1.421 . S
H864 C872 0.929 . S
H865 C874 0.930 . S
H866 C876 0.930 . S
H867 C879 0.929 . S
H868 C882 0.930 . S
H869 C884 0.960 . S
H870 C884 0.960 . S
H871 C884 0.960 . S
C872 H864 0.929 . S
C872 C873 1.377 . S
C872 C874 1.384 . S
C873 C872 1.377 . S
C873 C879 1.390 . S
C874 H865 0.930 . S
C874 C872 1.384 . S
C874 C875 1.372 . S
C875 C874 1.372 . S
C875 C876 1.400 . S
C875 C880 1.490 . S
C876 H866 0.930 . S
C876 C875 1.400 . S
C876 C879 1.386 . S
H877 C893 0.930 . S
H878 C894 0.931 . S
C879 H867 0.929 . S
C879 C873 1.390 . S
C879 C876 1.386 . S
C880 C875 1.490 . S
C880 C882 1.395 . S
C880 C883 1.403 . S
H881 C887 0.930 . S
C882 H868 0.930 . S
C882 C880 1.395 . S
C882 C885 1.403 . S
C883 C880 1.403 . S
C883 C884 1.524 . S
C883 C887 1.400 . S
C884 H869 0.960 . S
C884 H870 0.960 . S
C884 H871 0.960 . S
C884 C883 1.524 . S
C885 C882 1.403 . S
C885 C886 1.392 . S
C885 C889 1.495 . S
C886 C885 1.392 . S
C886 C887 1.385 . S
C886 C888 1.478 . S
C887 H881 0.930 . S
C887 C883 1.400 . S
C887 C886 1.385 . S
C888 C886 1.478 . S
C888 C890 1.381 . S
C888 C894 1.383 . S
C889 C885 1.495 . S
C889 H895 0.959 . S
C889 H896 0.961 . S
C889 H897 0.960 . S
C890 C888 1.381 . S
C890 C891 1.394 . S
C890 H898 0.930 . S
C891 C890 1.394 . S
C891 C892 1.383 . S
C891 H899 0.929 . S
C892 C891 1.383 . S
C892 C893 1.377 . S
C893 H877 0.930 . S
C893 C892 1.377 . S
C893 C894 1.379 . S
C894 H878 0.931 . S
C894 C888 1.383 . S
C894 C893 1.379 . S
H895 C889 0.959 . S
H896 C889 0.961 . S
H897 C889 0.960 . S
H898 C890 0.930 . S
H899 C891 0.929 . S
H900 C908 0.929 . S
H901 C910 0.930 . S
H902 C912 0.930 . S
H903 C915 0.929 . S
H904 C918 0.930 . S
H905 C920 0.960 . S
H906 C920 0.960 . S
H907 C920 0.960 . S
C908 H900 0.929 . S
C908 C909 1.377 . S
C908 C910 1.384 . S
C909 C908 1.377 . S
C909 C915 1.390 . S
C910 H901 0.930 . S
C910 C908 1.384 . S
C910 C911 1.372 . S
C911 C910 1.372 . S
C911 C912 1.400 . S
C911 C916 1.490 . S
C912 H902 0.930 . S
C912 C911 1.400 . S
C912 C915 1.386 . S
H913 C929 0.930 . S
H914 C930 0.931 . S
C915 H903 0.929 . S
C915 C909 1.390 . S
C915 C912 1.386 . S
C916 C911 1.490 . S
C916 C918 1.395 . S
C916 C919 1.403 . S
H917 C923 0.930 . S
C918 H904 0.930 . S
C918 C916 1.395 . S
C918 C921 1.403 . S
C919 C916 1.403 . S
C919 C920 1.524 . S
C919 C923 1.400 . S
C920 H905 0.960 . S
C920 H906 0.960 . S
C920 H907 0.960 . S
C920 C919 1.524 . S
C921 C918 1.403 . S
C921 C922 1.392 . S
C921 C925 1.495 . S
C922 C921 1.392 . S
C922 C923 1.385 . S
C922 C924 1.478 . S
C923 H917 0.930 . S
C923 C919 1.400 . S
C923 C922 1.385 . S
C924 C922 1.478 . S
C924 C926 1.381 . S
C924 C930 1.383 . S
C925 C921 1.495 . S
C925 H931 0.959 . S
C925 H932 0.961 . S
C925 H933 0.960 . S
C926 C924 1.381 . S
C926 C927 1.394 . S
C926 H934 0.930 . S
C927 C926 1.394 . S
C927 C928 1.383 . S
C927 H935 0.929 . S
C928 C927 1.383 . S
C928 C929 1.377 . S
C929 H913 0.930 . S
C929 C928 1.377 . S
C929 C930 1.379 . S
C930 H914 0.931 . S
C930 C924 1.383 . S
C930 C929 1.379 . S
H931 C925 0.959 . S
H932 C925 0.961 . S
H933 C925 0.960 . S
H934 C926 0.930 . S
H935 C927 0.929 . S
H936 C944 0.929 . S
H937 C946 0.930 . S
H938 C948 0.930 . S
H939 C951 0.929 . S
H940 C954 0.930 . S
H941 C956 0.960 . S
H942 C956 0.960 . S
H943 C956 0.960 . S
C944 H936 0.929 . S
C944 C945 1.377 . S
C944 C946 1.384 . S
C945 C944 1.377 . S
C945 C951 1.390 . S
C946 H937 0.930 . S
C946 C944 1.384 . S
C946 C947 1.372 . S
C947 C946 1.372 . S
C947 C948 1.400 . S
C947 C952 1.490 . S
C948 H938 0.930 . S
C948 C947 1.400 . S
C948 C951 1.386 . S
H949 C965 0.930 . S
H950 C966 0.931 . S
C951 H939 0.929 . S
C951 C945 1.390 . S
C951 C948 1.386 . S
C952 C947 1.490 . S
C952 C954 1.395 . S
C952 C955 1.403 . S
H953 C959 0.930 . S
C954 H940 0.930 . S
C954 C952 1.395 . S
C954 C957 1.403 . S
C955 C952 1.403 . S
C955 C956 1.524 . S
C955 C959 1.400 . S
C956 H941 0.960 . S
C956 H942 0.960 . S
C956 H943 0.960 . S
C956 C955 1.524 . S
C957 C954 1.403 . S
C957 C958 1.392 . S
C957 C961 1.495 . S
C958 C957 1.392 . S
C958 C959 1.385 . S
C958 C960 1.478 . S
C959 H953 0.930 . S
C959 C955 1.400 . S
C959 C958 1.385 . S
C960 C958 1.478 . S
C960 C962 1.381 . S
C960 C966 1.383 . S
C961 C957 1.495 . S
C961 H967 0.959 . S
C961 H968 0.961 . S
C961 H969 0.960 . S
C962 C960 1.381 . S
C962 C963 1.394 . S
C962 H970 0.930 . S
C963 C962 1.394 . S
C963 C964 1.383 . S
C963 H971 0.929 . S
C964 C963 1.383 . S
C964 C965 1.377 . S
C965 H949 0.930 . S
C965 C964 1.377 . S
C965 C966 1.379 . S
C966 H950 0.931 . S
C966 C960 1.383 . S
C966 C965 1.379 . S
H967 C961 0.959 . S
H968 C961 0.961 . S
H969 C961 0.960 . S
H970 C962 0.930 . S
H971 C963 0.929 . S
H972 C980 0.929 . S
H973 C982 0.930 . S
H974 C984 0.930 . S
H975 C987 0.929 . S
H976 C990 0.930 . S
H977 C992 0.960 . S
H978 C992 0.960 . S
H979 C992 0.960 . S
C980 H972 0.929 . S
C980 C981 1.377 . S
C980 C982 1.384 . S
C981 C980 1.377 . S
C981 C987 1.390 . S
C982 H973 0.930 . S
C982 C980 1.384 . S
C982 C983 1.372 . S
C983 C982 1.372 . S
C983 C984 1.400 . S
C983 C988 1.490 . S
C984 H974 0.930 . S
C984 C983 1.400 . S
C984 C987 1.386 . S
H985 C1001 0.930 . S
H986 C1002 0.931 . S
C987 H975 0.929 . S
C987 C981 1.390 . S
C987 C984 1.386 . S
C988 C983 1.490 . S
C988 C990 1.395 . S
C988 C991 1.403 . S
H989 C995 0.930 . S
C990 H976 0.930 . S
C990 C988 1.395 . S
C990 C993 1.403 . S
C991 C988 1.403 . S
C991 C992 1.524 . S
C991 C995 1.400 . S
C992 H977 0.960 . S
C992 H978 0.960 . S
C992 H979 0.960 . S
C992 C991 1.524 . S
C993 C990 1.403 . S
C993 C994 1.392 . S
C993 C997 1.495 . S
C994 C993 1.392 . S
C994 C995 1.385 . S
C994 C996 1.478 . S
C995 H989 0.930 . S
C995 C991 1.400 . S
C995 C994 1.385 . S
C996 C994 1.478 . S
C996 C998 1.381 . S
C996 C1002 1.383 . S
C997 C993 1.495 . S
C997 H1003 0.959 . S
C997 H1004 0.961 . S
C997 H1005 0.960 . S
C998 C996 1.381 . S
C998 C999 1.394 . S
C998 H1006 0.930 . S
C999 C998 1.394 . S
C999 C1000 1.383 . S
C999 H1007 0.929 . S
C1000 C999 1.383 . S
C1000 C1001 1.377 . S
C1001 H985 0.930 . S
C1001 C1000 1.377 . S
C1001 C1002 1.379 . S
C1002 H986 0.931 . S
C1002 C996 1.383 . S
C1002 C1001 1.379 . S
H1003 C997 0.959 . S
H1004 C997 0.961 . S
H1005 C997 0.960 . S
H1006 C998 0.930 . S
H1007 C999 0.929 . S
H1008 C1016 0.929 . S
H1009 C1018 0.930 . S
H1010 C1020 0.930 . S
H1011 C1023 0.929 . S
H1012 C1026 0.930 . S
H1013 C1028 0.960 . S
H1014 C1028 0.960 . S
H1015 C1028 0.960 . S
C1016 H1008 0.929 . S
C1016 C1017 1.377 . S
C1016 C1018 1.384 . S
C1017 C1016 1.377 . S
C1017 C1023 1.390 . S
C1018 H1009 0.930 . S
C1018 C1016 1.384 . S
C1018 C1019 1.372 . S
C1019 C1018 1.372 . S
C1019 C1020 1.400 . S
C1019 C1024 1.490 . S
C1020 H1010 0.930 . S
C1020 C1019 1.400 . S
C1020 C1023 1.386 . S
H1021 C1037 0.930 . S
H1022 C1038 0.931 . S
C1023 H1011 0.929 . S
C1023 C1017 1.390 . S
C1023 C1020 1.386 . S
C1024 C1019 1.490 . S
C1024 C1026 1.395 . S
C1024 C1027 1.403 . S
H1025 C1031 0.930 . S
C1026 H1012 0.930 . S
C1026 C1024 1.395 . S
C1026 C1029 1.403 . S
C1027 C1024 1.403 . S
C1027 C1028 1.524 . S
C1027 C1031 1.400 . S
C1028 H1013 0.960 . S
C1028 H1014 0.960 . S
C1028 H1015 0.960 . S
C1028 C1027 1.524 . S
C1029 C1026 1.403 . S
C1029 C1030 1.392 . S
C1029 C1033 1.495 . S
C1030 C1029 1.392 . S
C1030 C1031 1.385 . S
C1030 C1032 1.478 . S
C1031 H1025 0.930 . S
C1031 C1027 1.400 . S
C1031 C1030 1.385 . S
C1032 C1030 1.478 . S
C1032 C1034 1.381 . S
C1032 C1038 1.383 . S
C1033 C1029 1.495 . S
C1033 H1039 0.959 . S
C1033 H1040 0.961 . S
C1033 H1041 0.960 . S
C1034 C1032 1.381 . S
C1034 C1035 1.394 . S
C1034 H1042 0.930 . S
C1035 C1034 1.394 . S
C1035 C1036 1.383 . S
C1035 H1043 0.929 . S
C1036 C1035 1.383 . S
C1036 C1037 1.377 . S
C1037 H1021 0.930 . S
C1037 C1036 1.377 . S
C1037 C1038 1.379 . S
C1038 H1022 0.931 . S
C1038 C1032 1.383 . S
C1038 C1037 1.379 . S
H1039 C1033 0.959 . S
H1040 C1033 0.961 . S
H1041 C1033 0.960 . S
H1042 C1034 0.930 . S
H1043 C1035 0.929 . S
H1044 C1052 0.929 . S
H1045 C1054 0.930 . S
H1046 C1056 0.930 . S
H1047 C1059 0.929 . S
H1048 C1062 0.930 . S
H1049 C1064 0.960 . S
H1050 C1064 0.960 . S
H1051 C1064 0.960 . S
C1052 H1044 0.929 . S
C1052 C1053 1.377 . S
C1052 C1054 1.384 . S
C1053 C1052 1.377 . S
C1053 C1059 1.390 . S
C1054 H1045 0.930 . S
C1054 C1052 1.384 . S
C1054 C1055 1.372 . S
C1055 C1054 1.372 . S
C1055 C1056 1.400 . S
C1055 C1060 1.490 . S
C1056 H1046 0.930 . S
C1056 C1055 1.400 . S
C1056 C1059 1.386 . S
H1057 C1073 0.930 . S
H1058 C1074 0.931 . S
C1059 H1047 0.929 . S
C1059 C1053 1.390 . S
C1059 C1056 1.386 . S
C1060 C1055 1.490 . S
C1060 C1062 1.395 . S
C1060 C1063 1.403 . S
H1061 C1067 0.930 . S
C1062 H1048 0.930 . S
C1062 C1060 1.395 . S
C1062 C1065 1.403 . S
C1063 C1060 1.403 . S
C1063 C1064 1.524 . S
C1063 C1067 1.400 . S
C1064 H1049 0.960 . S
C1064 H1050 0.960 . S
C1064 H1051 0.960 . S
C1064 C1063 1.524 . S
C1065 C1062 1.403 . S
C1065 C1066 1.392 . S
C1065 C1069 1.495 . S
C1066 C1065 1.392 . S
C1066 C1067 1.385 . S
C1066 C1068 1.478 . S
C1067 H1061 0.930 . S
C1067 C1063 1.400 . S
C1067 C1066 1.385 . S
C1068 C1066 1.478 . S
C1068 C1070 1.381 . S
C1068 C1074 1.383 . S
C1069 C1065 1.495 . S
C1069 H1075 0.959 . S
C1069 H1076 0.961 . S
C1069 H1077 0.960 . S
C1070 C1068 1.381 . S
C1070 C1071 1.394 . S
C1070 H1078 0.930 . S
C1071 C1070 1.394 . S
C1071 C1072 1.383 . S
C1071 H1079 0.929 . S
C1072 C1071 1.383 . S
C1072 C1073 1.377 . S
C1073 H1057 0.930 . S
C1073 C1072 1.377 . S
C1073 C1074 1.379 . S
C1074 H1058 0.931 . S
C1074 C1068 1.383 . S
C1074 C1073 1.379 . S
H1075 C1069 0.959 . S
H1076 C1069 0.961 . S
H1077 C1069 0.960 . S
H1078 C1070 0.930 . S
H1079 C1071 0.929 . S
H1080 C1088 0.929 . S
H1081 C1090 0.930 . S
H1082 C1092 0.930 . S
H1083 C1095 0.929 . S
H1084 C1098 0.930 . S
H1085 C1100 0.960 . S
H1086 C1100 0.960 . S
H1087 C1100 0.960 . S
C1088 H1080 0.929 . S
C1088 C1089 1.377 . S
C1088 C1090 1.384 . S
C1089 C1088 1.377 . S
C1089 C1095 1.390 . S
C1090 H1081 0.930 . S
C1090 C1088 1.384 . S
C1090 C1091 1.372 . S
C1091 C1090 1.372 . S
C1091 C1092 1.400 . S
C1091 C1096 1.490 . S
C1092 H1082 0.930 . S
C1092 C1091 1.400 . S
C1092 C1095 1.386 . S
H1093 C1109 0.930 . S
H1094 C1110 0.931 . S
C1095 H1083 0.929 . S
C1095 C1089 1.390 . S
C1095 C1092 1.386 . S
C1096 C1091 1.490 . S
C1096 C1098 1.395 . S
C1096 C1099 1.403 . S
H1097 C1103 0.930 . S
C1098 H1084 0.930 . S
C1098 C1096 1.395 . S
C1098 C1101 1.403 . S
C1099 C1096 1.403 . S
C1099 C1100 1.524 . S
C1099 C1103 1.400 . S
C1100 H1085 0.960 . S
C1100 H1086 0.960 . S
C1100 H1087 0.960 . S
C1100 C1099 1.524 . S
C1101 C1098 1.403 . S
C1101 C1102 1.392 . S
C1101 C1105 1.495 . S
C1102 C1101 1.392 . S
C1102 C1103 1.385 . S
C1102 C1104 1.478 . S
C1103 H1097 0.930 . S
C1103 C1099 1.400 . S
C1103 C1102 1.385 . S
C1104 C1102 1.478 . S
C1104 C1106 1.381 . S
C1104 C1110 1.383 . S
C1105 C1101 1.495 . S
C1105 H1111 0.959 . S
C1105 H1112 0.961 . S
C1105 H1113 0.960 . S
C1106 C1104 1.381 . S
C1106 C1107 1.394 . S
C1106 H1114 0.930 . S
C1107 C1106 1.394 . S
C1107 C1108 1.383 . S
C1107 H1115 0.929 . S
C1108 C1107 1.383 . S
C1108 C1109 1.377 . S
C1109 H1093 0.930 . S
C1109 C1108 1.377 . S
C1109 C1110 1.379 . S
C1110 H1094 0.931 . S
C1110 C1104 1.383 . S
C1110 C1109 1.379 . S
H1111 C1105 0.959 . S
H1112 C1105 0.961 . S
H1113 C1105 0.960 . S
H1114 C1106 0.930 . S
H1115 C1107 0.929 . S
H1116 C1124 0.929 . S
H1117 C1126 0.930 . S
H1118 C1128 0.930 . S
H1119 C1131 0.929 . S
H1120 C1134 0.930 . S
H1121 C1136 0.960 . S
H1122 C1136 0.960 . S
H1123 C1136 0.960 . S
C1124 H1116 0.929 . S
C1124 C1125 1.377 . S
C1124 C1126 1.384 . S
C1125 C1124 1.377 . S
C1125 C1131 1.390 . S
C1126 H1117 0.930 . S
C1126 C1124 1.384 . S
C1126 C1127 1.372 . S
C1127 C1126 1.372 . S
C1127 C1128 1.400 . S
C1127 C1132 1.490 . S
C1128 H1118 0.930 . S
C1128 C1127 1.400 . S
C1128 C1131 1.386 . S
H1129 C1145 0.930 . S
H1130 C1146 0.931 . S
C1131 H1119 0.929 . S
C1131 C1125 1.390 . S
C1131 C1128 1.386 . S
C1132 C1127 1.490 . S
C1132 C1134 1.395 . S
C1132 C1135 1.403 . S
H1133 C1139 0.930 . S
C1134 H1120 0.930 . S
C1134 C1132 1.395 . S
C1134 C1137 1.403 . S
C1135 C1132 1.403 . S
C1135 C1136 1.524 . S
C1135 C1139 1.400 . S
C1136 H1121 0.960 . S
C1136 H1122 0.960 . S
C1136 H1123 0.960 . S
C1136 C1135 1.524 . S
C1137 C1134 1.403 . S
C1137 C1138 1.392 . S
C1137 C1141 1.495 . S
C1138 C1137 1.392 . S
C1138 C1139 1.385 . S
C1138 C1140 1.478 . S
C1139 H1133 0.930 . S
C1139 C1135 1.400 . S
C1139 C1138 1.385 . S
C1140 C1138 1.478 . S
C1140 C1142 1.381 . S
C1140 C1146 1.383 . S
C1141 C1137 1.495 . S
C1141 H1147 0.959 . S
C1141 H1148 0.961 . S
C1141 H1149 0.960 . S
C1142 C1140 1.381 . S
C1142 C1143 1.394 . S
C1142 H1150 0.930 . S
C1143 C1142 1.394 . S
C1143 C1144 1.383 . S
C1143 H1151 0.929 . S
C1144 C1143 1.383 . S
C1144 C1145 1.377 . S
C1145 H1129 0.930 . S
C1145 C1144 1.377 . S
C1145 C1146 1.379 . S
C1146 H1130 0.931 . S
C1146 C1140 1.383 . S
C1146 C1145 1.379 . S
H1147 C1141 0.959 . S
H1148 C1141 0.961 . S
H1149 C1141 0.960 . S
H1150 C1142 0.930 . S
H1151 C1143 0.929 . S
H1152 C1160 0.929 . S
H1153 C1162 0.930 . S
H1154 C1164 0.930 . S
H1155 C1167 0.929 . S
H1156 C1170 0.930 . S
H1157 C1172 0.960 . S
H1158 C1172 0.960 . S
H1159 C1172 0.960 . S
C1160 H1152 0.929 . S
C1160 C1161 1.377 . S
C1160 C1162 1.384 . S
C1161 C1160 1.377 . S
C1161 C1167 1.390 . S
C1162 H1153 0.930 . S
C1162 C1160 1.384 . S
C1162 C1163 1.372 . S
C1163 C1162 1.372 . S
C1163 C1164 1.400 . S
C1163 C1168 1.490 . S
C1164 H1154 0.930 . S
C1164 C1163 1.400 . S
C1164 C1167 1.386 . S
H1165 C1181 0.930 . S
H1166 C1182 0.931 . S
C1167 H1155 0.929 . S
C1167 C1161 1.390 . S
C1167 C1164 1.386 . S
C1168 C1163 1.490 . S
C1168 C1170 1.395 . S
C1168 C1171 1.403 . S
H1169 C1175 0.930 . S
C1170 H1156 0.930 . S
C1170 C1168 1.395 . S
C1170 C1173 1.403 . S
C1171 C1168 1.403 . S
C1171 C1172 1.524 . S
C1171 C1175 1.400 . S
C1172 H1157 0.960 . S
C1172 H1158 0.960 . S
C1172 H1159 0.960 . S
C1172 C1171 1.524 . S
C1173 C1170 1.403 . S
C1173 C1174 1.392 . S
C1173 C1177 1.495 . S
C1174 C1173 1.392 . S
C1174 C1175 1.385 . S
C1174 C1176 1.478 . S
C1175 H1169 0.930 . S
C1175 C1171 1.400 . S
C1175 C1174 1.385 . S
C1176 C1174 1.478 . S
C1176 C1178 1.381 . S
C1176 C1182 1.383 . S
C1177 C1173 1.495 . S
C1177 H1183 0.959 . S
C1177 H1184 0.961 . S
C1177 H1185 0.960 . S
C1178 C1176 1.381 . S
C1178 C1179 1.394 . S
C1178 H1186 0.930 . S
C1179 C1178 1.394 . S
C1179 C1180 1.383 . S
C1179 H1187 0.929 . S
C1180 C1179 1.383 . S
C1180 C1181 1.377 . S
C1181 H1165 0.930 . S
C1181 C1180 1.377 . S
C1181 C1182 1.379 . S
C1182 H1166 0.931 . S
C1182 C1176 1.383 . S
C1182 C1181 1.379 . S
H1183 C1177 0.959 . S
H1184 C1177 0.961 . S
H1185 C1177 0.960 . S
H1186 C1178 0.930 . S
H1187 C1179 0.929 . S
H1188 C1196 0.929 . S
H1189 C1198 0.930 . S
H1190 C1200 0.930 . S
H1191 C1203 0.929 . S
H1192 C1206 0.930 . S
H1193 C1208 0.960 . S
H1194 C1208 0.960 . S
H1195 C1208 0.960 . S
C1196 H1188 0.929 . S
C1196 C1197 1.377 . S
C1196 C1198 1.384 . S
C1197 C1196 1.377 . S
C1197 C1203 1.390 . S
C1198 H1189 0.930 . S
C1198 C1196 1.384 . S
C1198 C1199 1.372 . S
C1199 C1198 1.372 . S
C1199 C1200 1.400 . S
C1199 C1204 1.490 . S
C1200 H1190 0.930 . S
C1200 C1199 1.400 . S
C1200 C1203 1.386 . S
H1201 C1217 0.930 . S
H1202 C1218 0.931 . S
C1203 H1191 0.929 . S
C1203 C1197 1.390 . S
C1203 C1200 1.386 . S
C1204 C1199 1.490 . S
C1204 C1206 1.395 . S
C1204 C1207 1.403 . S
H1205 C1211 0.930 . S
C1206 H1192 0.930 . S
C1206 C1204 1.395 . S
C1206 C1209 1.403 . S
C1207 C1204 1.403 . S
C1207 C1208 1.524 . S
C1207 C1211 1.400 . S
C1208 H1193 0.960 . S
C1208 H1194 0.960 . S
C1208 H1195 0.960 . S
C1208 C1207 1.524 . S
C1209 C1206 1.403 . S
C1209 C1210 1.392 . S
C1209 C1213 1.495 . S
C1210 C1209 1.392 . S
C1210 C1211 1.385 . S
C1210 C1212 1.478 . S
C1211 H1205 0.930 . S
C1211 C1207 1.400 . S
C1211 C1210 1.385 . S
C1212 C1210 1.478 . S
C1212 C1214 1.381 . S
C1212 C1218 1.383 . S
C1213 C1209 1.495 . S
C1213 H1219 0.959 . S
C1213 H1220 0.961 . S
C1213 H1221 0.960 . S
C1214 C1212 1.381 . S
C1214 C1215 1.394 . S
C1214 H1222 0.930 . S
C1215 C1214 1.394 . S
C1215 C1216 1.383 . S
C1215 H1223 0.929 . S
C1216 C1215 1.383 . S
C1216 C1217 1.377 . S
C1217 H1201 0.930 . S
C1217 C1216 1.377 . S
C1217 C1218 1.379 . S
C1218 H1202 0.931 . S
C1218 C1212 1.383 . S
C1218 C1217 1.379 . S
H1219 C1213 0.959 . S
H1220 C1213 0.961 . S
H1221 C1213 0.960 . S
H1222 C1214 0.930 . S
H1223 C1215 0.929 . S
H1224 C1232 0.929 . S
H1225 C1234 0.930 . S
H1226 C1236 0.930 . S
H1227 C1239 0.929 . S
H1228 C1242 0.930 . S
H1229 C1244 0.960 . S
H1230 C1244 0.960 . S
H1231 C1244 0.960 . S
C1232 H1224 0.929 . S
C1232 C1233 1.377 . S
C1232 C1234 1.384 . S
C1233 C1232 1.377 . S
C1233 C1239 1.390 . S
C1234 H1225 0.930 . S
C1234 C1232 1.384 . S
C1234 C1235 1.372 . S
C1235 C1234 1.372 . S
C1235 C1236 1.400 . S
C1235 C1240 1.490 . S
C1236 H1226 0.930 . S
C1236 C1235 1.400 . S
C1236 C1239 1.386 . S
H1237 C1253 0.930 . S
H1238 C1254 0.931 . S
C1239 H1227 0.929 . S
C1239 C1233 1.390 . S
C1239 C1236 1.386 . S
C1240 C1235 1.490 . S
C1240 C1242 1.395 . S
C1240 C1243 1.403 . S
H1241 C1247 0.930 . S
C1242 H1228 0.930 . S
C1242 C1240 1.395 . S
C1242 C1245 1.403 . S
C1243 C1240 1.403 . S
C1243 C1244 1.524 . S
C1243 C1247 1.400 . S
C1244 H1229 0.960 . S
C1244 H1230 0.960 . S
C1244 H1231 0.960 . S
C1244 C1243 1.524 . S
C1245 C1242 1.403 . S
C1245 C1246 1.392 . S
C1245 C1249 1.495 . S
C1246 C1245 1.392 . S
C1246 C1247 1.385 . S
C1246 C1248 1.478 . S
C1247 H1241 0.930 . S
C1247 C1243 1.400 . S
C1247 C1246 1.385 . S
C1248 C1246 1.478 . S
C1248 C1250 1.381 . S
C1248 C1254 1.383 . S
C1249 C1245 1.495 . S
C1249 H1255 0.959 . S
C1249 H1256 0.961 . S
C1249 H1257 0.960 . S
C1250 C1248 1.381 . S
C1250 C1251 1.394 . S
C1250 H1258 0.930 . S
C1251 C1250 1.394 . S
C1251 C1252 1.383 . S
C1251 H1259 0.929 . S
C1252 C1251 1.383 . S
C1252 C1253 1.377 . S
C1253 H1237 0.930 . S
C1253 C1252 1.377 . S
C1253 C1254 1.379 . S
C1254 H1238 0.931 . S
C1254 C1248 1.383 . S
C1254 C1253 1.379 . S
H1255 C1249 0.959 . S
H1256 C1249 0.961 . S
H1257 C1249 0.960 . S
H1258 C1250 0.930 . S
H1259 C1251 0.929 . S
H1260 C1268 0.929 . S
H1261 C1270 0.930 . S
H1262 C1272 0.930 . S
H1263 C1275 0.929 . S
H1264 C1278 0.930 . S
H1265 C1280 0.960 . S
H1266 C1280 0.960 . S
H1267 C1280 0.960 . S
C1268 H1260 0.929 . S
C1268 C1269 1.377 . S
C1268 C1270 1.384 . S
C1269 C1268 1.377 . S
C1269 C1275 1.390 . S
C1270 H1261 0.930 . S
C1270 C1268 1.384 . S
C1270 C1271 1.372 . S
C1271 C1270 1.372 . S
C1271 C1272 1.400 . S
C1271 C1276 1.490 . S
C1272 H1262 0.930 . S
C1272 C1271 1.400 . S
C1272 C1275 1.386 . S
H1273 C1289 0.930 . S
H1274 C1290 0.931 . S
C1275 H1263 0.929 . S
C1275 C1269 1.390 . S
C1275 C1272 1.386 . S
C1276 C1271 1.490 . S
C1276 C1278 1.395 . S
C1276 C1279 1.403 . S
H1277 C1283 0.930 . S
C1278 H1264 0.930 . S
C1278 C1276 1.395 . S
C1278 C1281 1.403 . S
C1279 C1276 1.403 . S
C1279 C1280 1.524 . S
C1279 C1283 1.400 . S
C1280 H1265 0.960 . S
C1280 H1266 0.960 . S
C1280 H1267 0.960 . S
C1280 C1279 1.524 . S
C1281 C1278 1.403 . S
C1281 C1282 1.392 . S
C1281 C1285 1.495 . S
C1282 C1281 1.392 . S
C1282 C1283 1.385 . S
C1282 C1284 1.478 . S
C1283 H1277 0.930 . S
C1283 C1279 1.400 . S
C1283 C1282 1.385 . S
C1284 C1282 1.478 . S
C1284 C1286 1.381 . S
C1284 C1290 1.383 . S
C1285 C1281 1.495 . S
C1285 H1291 0.959 . S
C1285 H1292 0.961 . S
C1285 H1293 0.960 . S
C1286 C1284 1.381 . S
C1286 C1287 1.394 . S
C1286 H1294 0.930 . S
C1287 C1286 1.394 . S
C1287 C1288 1.383 . S
C1287 H1295 0.929 . S
C1288 C1287 1.383 . S
C1288 C1289 1.377 . S
C1289 H1273 0.930 . S
C1289 C1288 1.377 . S
C1289 C1290 1.379 . S
C1290 H1274 0.931 . S
C1290 C1284 1.383 . S
C1290 C1289 1.379 . S
H1291 C1285 0.959 . S
H1292 C1285 0.961 . S
H1293 C1285 0.960 . S
H1294 C1286 0.930 . S
H1295 C1287 0.929 . S
H1296 C1304 0.929 . S
H1297 C1306 0.930 . S
H1298 C1308 0.930 . S
H1299 C1311 0.929 . S
H1300 C1314 0.930 . S
H1301 C1316 0.960 . S
H1302 C1316 0.960 . S
H1303 C1316 0.960 . S
C1304 H1296 0.929 . S
C1304 C1305 1.377 . S
C1304 C1306 1.384 . S
C1305 C1304 1.377 . S
C1305 C1311 1.390 . S
C1306 H1297 0.930 . S
C1306 C1304 1.384 . S
C1306 C1307 1.372 . S
C1307 C1306 1.372 . S
C1307 C1308 1.400 . S
C1307 C1312 1.490 . S
C1308 H1298 0.930 . S
C1308 C1307 1.400 . S
C1308 C1311 1.386 . S
H1309 C1325 0.930 . S
H1310 C1326 0.931 . S
C1311 H1299 0.929 . S
C1311 C1305 1.390 . S
C1311 C1308 1.386 . S
C1312 C1307 1.490 . S
C1312 C1314 1.395 . S
C1312 C1315 1.403 . S
H1313 C1319 0.930 . S
C1314 H1300 0.930 . S
C1314 C1312 1.395 . S
C1314 C1317 1.403 . S
C1315 C1312 1.403 . S
C1315 C1316 1.524 . S
C1315 C1319 1.400 . S
C1316 H1301 0.960 . S
C1316 H1302 0.960 . S
C1316 H1303 0.960 . S
C1316 C1315 1.524 . S
C1317 C1314 1.403 . S
C1317 C1318 1.392 . S
C1317 C1321 1.495 . S
C1318 C1317 1.392 . S
C1318 C1319 1.385 . S
C1318 C1320 1.478 . S
C1319 H1313 0.930 . S
C1319 C1315 1.400 . S
C1319 C1318 1.385 . S
C1320 C1318 1.478 . S
C1320 C1322 1.381 . S
C1320 C1326 1.383 . S
C1321 C1317 1.495 . S
C1321 H1327 0.959 . S
C1321 H1328 0.961 . S
C1321 H1329 0.960 . S
C1322 C1320 1.381 . S
C1322 C1323 1.394 . S
C1322 H1330 0.930 . S
C1323 C1322 1.394 . S
C1323 C1324 1.383 . S
C1323 H1331 0.929 . S
C1324 C1323 1.383 . S
C1324 C1325 1.377 . S
C1325 H1309 0.930 . S
C1325 C1324 1.377 . S
C1325 C1326 1.379 . S
C1326 H1310 0.931 . S
C1326 C1320 1.383 . S
C1326 C1325 1.379 . S
H1327 C1321 0.959 . S
H1328 C1321 0.961 . S
H1329 C1321 0.960 . S
H1330 C1322 0.930 . S
H1331 C1323 0.929 . S
H1332 C1340 0.929 . S
H1333 C1342 0.930 . S
H1334 C1344 0.930 . S
H1335 C1347 0.929 . S
H1336 C1350 0.930 . S
H1337 C1352 0.960 . S
H1338 C1352 0.960 . S
H1339 C1352 0.960 . S
C1340 H1332 0.929 . S
C1340 C1341 1.377 . S
C1340 C1342 1.384 . S
C1341 C1340 1.377 . S
C1341 C1347 1.390 . S
C1342 H1333 0.930 . S
C1342 C1340 1.384 . S
C1342 C1343 1.372 . S
C1343 C1342 1.372 . S
C1343 C1344 1.400 . S
C1343 C1348 1.490 . S
C1344 H1334 0.930 . S
C1344 C1343 1.400 . S
C1344 C1347 1.386 . S
H1345 C1361 0.930 . S
H1346 C1362 0.931 . S
C1347 H1335 0.929 . S
C1347 C1341 1.390 . S
C1347 C1344 1.386 . S
C1348 C1343 1.490 . S
C1348 C1350 1.395 . S
C1348 C1351 1.403 . S
H1349 C1355 0.930 . S
C1350 H1336 0.930 . S
C1350 C1348 1.395 . S
C1350 C1353 1.403 . S
C1351 C1348 1.403 . S
C1351 C1352 1.524 . S
C1351 C1355 1.400 . S
C1352 H1337 0.960 . S
C1352 H1338 0.960 . S
C1352 H1339 0.960 . S
C1352 C1351 1.524 . S
C1353 C1350 1.403 . S
C1353 C1354 1.392 . S
C1353 C1357 1.495 . S
C1354 C1353 1.392 . S
C1354 C1355 1.385 . S
C1354 C1356 1.478 . S
C1355 H1349 0.930 . S
C1355 C1351 1.400 . S
C1355 C1354 1.385 . S
C1356 C1354 1.478 . S
C1356 C1358 1.381 . S
C1356 C1362 1.383 . S
C1357 C1353 1.495 . S
C1357 H1363 0.959 . S
C1357 H1364 0.961 . S
C1357 H1365 0.960 . S
C1358 C1356 1.381 . S
C1358 C1359 1.394 . S
C1358 H1366 0.930 . S
C1359 C1358 1.394 . S
C1359 C1360 1.383 . S
C1359 H1367 0.929 . S
C1360 C1359 1.383 . S
C1360 C1361 1.377 . S
C1361 H1345 0.930 . S
C1361 C1360 1.377 . S
C1361 C1362 1.379 . S
C1362 H1346 0.931 . S
C1362 C1356 1.383 . S
C1362 C1361 1.379 . S
H1363 C1357 0.959 . S
H1364 C1357 0.961 . S
H1365 C1357 0.960 . S
H1366 C1358 0.930 . S
H1367 C1359 0.929 . S
H1368 C1376 0.929 . S
H1369 C1378 0.930 . S
H1370 C1380 0.930 . S
H1371 C1383 0.929 . S
H1372 C1386 0.930 . S
H1373 C1388 0.960 . S
H1374 C1388 0.960 . S
H1375 C1388 0.960 . S
C1376 H1368 0.929 . S
C1376 C1377 1.377 . S
C1376 C1378 1.384 . S
C1377 C1376 1.377 . S
C1377 C1383 1.390 . S
C1378 H1369 0.930 . S
C1378 C1376 1.384 . S
C1378 C1379 1.372 . S
C1379 C1378 1.372 . S
C1379 C1380 1.400 . S
C1379 C1384 1.490 . S
C1380 H1370 0.930 . S
C1380 C1379 1.400 . S
C1380 C1383 1.386 . S
H1381 C1397 0.930 . S
H1382 C1398 0.931 . S
C1383 H1371 0.929 . S
C1383 C1377 1.390 . S
C1383 C1380 1.386 . S
C1384 C1379 1.490 . S
C1384 C1386 1.395 . S
C1384 C1387 1.403 . S
H1385 C1391 0.930 . S
C1386 H1372 0.930 . S
C1386 C1384 1.395 . S
C1386 C1389 1.403 . S
C1387 C1384 1.403 . S
C1387 C1388 1.524 . S
C1387 C1391 1.400 . S
C1388 H1373 0.960 . S
C1388 H1374 0.960 . S
C1388 H1375 0.960 . S
C1388 C1387 1.524 . S
C1389 C1386 1.403 . S
C1389 C1390 1.392 . S
C1389 C1393 1.495 . S
C1390 C1389 1.392 . S
C1390 C1391 1.385 . S
C1390 C1392 1.478 . S
C1391 H1385 0.930 . S
C1391 C1387 1.400 . S
C1391 C1390 1.385 . S
C1392 C1390 1.478 . S
C1392 C1394 1.381 . S
C1392 C1398 1.383 . S
C1393 C1389 1.495 . S
C1393 H1399 0.959 . S
C1393 H1400 0.961 . S
C1393 H1401 0.960 . S
C1394 C1392 1.381 . S
C1394 C1395 1.394 . S
C1394 H1402 0.930 . S
C1395 C1394 1.394 . S
C1395 C1396 1.383 . S
C1395 H1403 0.929 . S
C1396 C1395 1.383 . S
C1396 C1397 1.377 . S
C1397 H1381 0.930 . S
C1397 C1396 1.377 . S
C1397 C1398 1.379 . S
C1398 H1382 0.931 . S
C1398 C1392 1.383 . S
C1398 C1397 1.379 . S
H1399 C1393 0.959 . S
H1400 C1393 0.961 . S
H1401 C1393 0.960 . S
H1402 C1394 0.930 . S
H1403 C1395 0.929 . S
H1404 C1412 0.929 . S
H1405 C1414 0.930 . S
H1406 C1416 0.930 . S
H1407 C1419 0.929 . S
H1408 C1422 0.930 . S
H1409 C1424 0.960 . S
H1410 C1424 0.960 . S
H1411 C1424 0.960 . S
C1412 H1404 0.929 . S
C1412 C1413 1.377 . S
C1412 C1414 1.384 . S
C1413 C1412 1.377 . S
C1413 C1419 1.390 . S
C1414 H1405 0.930 . S
C1414 C1412 1.384 . S
C1414 C1415 1.372 . S
C1415 C1414 1.372 . S
C1415 C1416 1.400 . S
C1415 C1420 1.490 . S
C1416 H1406 0.930 . S
C1416 C1415 1.400 . S
C1416 C1419 1.386 . S
H1417 C1433 0.930 . S
H1418 C1434 0.931 . S
C1419 H1407 0.929 . S
C1419 C1413 1.390 . S
C1419 C1416 1.386 . S
C1420 C1415 1.490 . S
C1420 C1422 1.395 . S
C1420 C1423 1.403 . S
H1421 C1427 0.930 . S
C1422 H1408 0.930 . S
C1422 C1420 1.395 . S
C1422 C1425 1.403 . S
C1423 C1420 1.403 . S
C1423 C1424 1.524 . S
C1423 C1427 1.400 . S
C1424 H1409 0.960 . S
C1424 H1410 0.960 . S
C1424 H1411 0.960 . S
C1424 C1423 1.524 . S
C1425 C1422 1.403 . S
C1425 C1426 1.392 . S
C1425 C1429 1.495 . S
C1426 C1425 1.392 . S
C1426 C1427 1.385 . S
C1426 C1428 1.478 . S
C1427 H1421 0.930 . S
C1427 C1423 1.400 . S
C1427 C1426 1.385 . S
C1428 C1426 1.478 . S
C1428 C1430 1.381 . S
C1428 C1434 1.383 . S
C1429 C1425 1.495 . S
C1429 H1435 0.959 . S
C1429 H1436 0.961 . S
C1429 H1437 0.960 . S
C1430 C1428 1.381 . S
C1430 C1431 1.394 . S
C1430 H1438 0.930 . S
C1431 C1430 1.394 . S
C1431 C1432 1.383 . S
C1431 H1439 0.929 . S
C1432 C1431 1.383 . S
C1432 C1433 1.377 . S
C1433 H1417 0.930 . S
C1433 C1432 1.377 . S
C1433 C1434 1.379 . S
C1434 H1418 0.931 . S
C1434 C1428 1.383 . S
C1434 C1433 1.379 . S
H1435 C1429 0.959 . S
H1436 C1429 0.961 . S
H1437 C1429 0.960 . S
H1438 C1430 0.930 . S
H1439 C1431 0.929 . S
H1440 C1448 0.929 . S
H1441 C1450 0.930 . S
H1442 C1452 0.930 . S
H1443 C1455 0.929 . S
H1444 C1458 0.930 . S
H1445 C1460 0.960 . S
H1446 C1460 0.960 . S
H1447 C1460 0.960 . S
C1448 H1440 0.929 . S
C1448 C1449 1.377 . S
C1448 C1450 1.384 . S
C1449 C1448 1.377 . S
C1449 C1455 1.390 . S
C1450 H1441 0.930 . S
C1450 C1448 1.384 . S
C1450 C1451 1.372 . S
C1451 C1450 1.372 . S
C1451 C1452 1.400 . S
C1451 C1456 1.490 . S
C1452 H1442 0.930 . S
C1452 C1451 1.400 . S
C1452 C1455 1.386 . S
H1453 C1469 0.930 . S
H1454 C1470 0.931 . S
C1455 H1443 0.929 . S
C1455 C1449 1.390 . S
C1455 C1452 1.386 . S
C1456 C1451 1.490 . S
C1456 C1458 1.395 . S
C1456 C1459 1.403 . S
H1457 C1463 0.930 . S
C1458 H1444 0.930 . S
C1458 C1456 1.395 . S
C1458 C1461 1.403 . S
C1459 C1456 1.403 . S
C1459 C1460 1.524 . S
C1459 C1463 1.400 . S
C1460 H1445 0.960 . S
C1460 H1446 0.960 . S
C1460 H1447 0.960 . S
C1460 C1459 1.524 . S
C1461 C1458 1.403 . S
C1461 C1462 1.392 . S
C1461 C1465 1.495 . S
C1462 C1461 1.392 . S
C1462 C1463 1.385 . S
C1462 C1464 1.478 . S
C1463 H1457 0.930 . S
C1463 C1459 1.400 . S
C1463 C1462 1.385 . S
C1464 C1462 1.478 . S
C1464 C1466 1.381 . S
C1464 C1470 1.383 . S
C1465 C1461 1.495 . S
C1465 H1471 0.959 . S
C1465 H1472 0.961 . S
C1465 H1473 0.960 . S
C1466 C1464 1.381 . S
C1466 C1467 1.394 . S
C1466 H1474 0.930 . S
C1467 C1466 1.394 . S
C1467 C1468 1.383 . S
C1467 H1475 0.929 . S
C1468 C1467 1.383 . S
C1468 C1469 1.377 . S
C1469 H1453 0.930 . S
C1469 C1468 1.377 . S
C1469 C1470 1.379 . S
C1470 H1454 0.931 . S
C1470 C1464 1.383 . S
C1470 C1469 1.379 . S
H1471 C1465 0.959 . S
H1472 C1465 0.961 . S
H1473 C1465 0.960 . S
H1474 C1466 0.930 . S
H1475 C1467 0.929 . S
H1476 C1484 0.929 . S
H1477 C1486 0.930 . S
H1478 C1488 0.930 . S
H1479 C1491 0.929 . S
H1480 C1494 0.930 . S
H1481 C1496 0.960 . S
H1482 C1496 0.960 . S
H1483 C1496 0.960 . S
C1484 H1476 0.929 . S
C1484 C1485 1.377 . S
C1484 C1486 1.384 . S
C1485 C1484 1.377 . S
C1485 C1491 1.390 . S
C1486 H1477 0.930 . S
C1486 C1484 1.384 . S
C1486 C1487 1.372 . S
C1487 C1486 1.372 . S
C1487 C1488 1.400 . S
C1487 C1492 1.490 . S
C1488 H1478 0.930 . S
C1488 C1487 1.400 . S
C1488 C1491 1.386 . S
H1489 C1505 0.930 . S
H1490 C1506 0.931 . S
C1491 H1479 0.929 . S
C1491 C1485 1.390 . S
C1491 C1488 1.386 . S
C1492 C1487 1.490 . S
C1492 C1494 1.395 . S
C1492 C1495 1.403 . S
H1493 C1499 0.930 . S
C1494 H1480 0.930 . S
C1494 C1492 1.395 . S
C1494 C1497 1.403 . S
C1495 C1492 1.403 . S
C1495 C1496 1.524 . S
C1495 C1499 1.400 . S
C1496 H1481 0.960 . S
C1496 H1482 0.960 . S
C1496 H1483 0.960 . S
C1496 C1495 1.524 . S
C1497 C1494 1.403 . S
C1497 C1498 1.392 . S
C1497 C1501 1.495 . S
C1498 C1497 1.392 . S
C1498 C1499 1.385 . S
C1498 C1500 1.478 . S
C1499 H1493 0.930 . S
C1499 C1495 1.400 . S
C1499 C1498 1.385 . S
C1500 C1498 1.478 . S
C1500 C1502 1.381 . S
C1500 C1506 1.383 . S
C1501 C1497 1.495 . S
C1501 H1507 0.959 . S
C1501 H1508 0.961 . S
C1501 H1509 0.960 . S
C1502 C1500 1.381 . S
C1502 C1503 1.394 . S
C1502 H1510 0.930 . S
C1503 C1502 1.394 . S
C1503 C1504 1.383 . S
C1503 H1511 0.929 . S
C1504 C1503 1.383 . S
C1504 C1505 1.377 . S
C1505 H1489 0.930 . S
C1505 C1504 1.377 . S
C1505 C1506 1.379 . S
C1506 H1490 0.931 . S
C1506 C1500 1.383 . S
C1506 C1505 1.379 . S
H1507 C1501 0.959 . S
H1508 C1501 0.961 . S
H1509 C1501 0.960 . S
H1510 C1502 0.930 . S
H1511 C1503 0.929 . S
H1512 C1520 0.929 . S
H1513 C1522 0.930 . S
H1514 C1524 0.930 . S
H1515 C1527 0.929 . S
H1516 C1530 0.930 . S
H1517 C1532 0.960 . S
H1518 C1532 0.960 . S
H1519 C1532 0.960 . S
C1520 H1512 0.929 . S
C1520 C1521 1.377 . S
C1520 C1522 1.384 . S
C1521 C1520 1.377 . S
C1521 C1527 1.390 . S
C1522 H1513 0.930 . S
C1522 C1520 1.384 . S
C1522 C1523 1.372 . S
C1523 C1522 1.372 . S
C1523 C1524 1.400 . S
C1523 C1528 1.490 . S
C1524 H1514 0.930 . S
C1524 C1523 1.400 . S
C1524 C1527 1.386 . S
H1525 C1541 0.930 . S
H1526 C1542 0.931 . S
C1527 H1515 0.929 . S
C1527 C1521 1.390 . S
C1527 C1524 1.386 . S
C1528 C1523 1.490 . S
C1528 C1530 1.395 . S
C1528 C1531 1.403 . S
H1529 C1535 0.930 . S
C1530 H1516 0.930 . S
C1530 C1528 1.395 . S
C1530 C1533 1.403 . S
C1531 C1528 1.403 . S
C1531 C1532 1.524 . S
C1531 C1535 1.400 . S
C1532 H1517 0.960 . S
C1532 H1518 0.960 . S
C1532 H1519 0.960 . S
C1532 C1531 1.524 . S
C1533 C1530 1.403 . S
C1533 C1534 1.392 . S
C1533 C1537 1.495 . S
C1534 C1533 1.392 . S
C1534 C1535 1.385 . S
C1534 C1536 1.478 . S
C1535 H1529 0.930 . S
C1535 C1531 1.400 . S
C1535 C1534 1.385 . S
C1536 C1534 1.478 . S
C1536 C1538 1.381 . S
C1536 C1542 1.383 . S
C1537 C1533 1.495 . S
C1537 H1543 0.959 . S
C1537 H1544 0.961 . S
C1537 H1545 0.960 . S
C1538 C1536 1.381 . S
C1538 C1539 1.394 . S
C1538 H1546 0.930 . S
C1539 C1538 1.394 . S
C1539 C1540 1.383 . S
C1539 H1547 0.929 . S
C1540 C1539 1.383 . S
C1540 C1541 1.377 . S
C1541 H1525 0.930 . S
C1541 C1540 1.377 . S
C1541 C1542 1.379 . S
C1542 H1526 0.931 . S
C1542 C1536 1.383 . S
C1542 C1541 1.379 . S
H1543 C1537 0.959 . S
H1544 C1537 0.961 . S
H1545 C1537 0.960 . S
H1546 C1538 0.930 . S
H1547 C1539 0.929 . S
H1548 C1556 0.929 . S
H1549 C1558 0.930 . S
H1550 C1560 0.930 . S
H1551 C1563 0.929 . S
H1552 C1566 0.930 . S
H1553 C1568 0.960 . S
H1554 C1568 0.960 . S
H1555 C1568 0.960 . S
C1556 H1548 0.929 . S
C1556 C1557 1.377 . S
C1556 C1558 1.384 . S
C1557 C1556 1.377 . S
C1557 C1563 1.390 . S
C1558 H1549 0.930 . S
C1558 C1556 1.384 . S
C1558 C1559 1.372 . S
C1559 C1558 1.372 . S
C1559 C1560 1.400 . S
C1559 C1564 1.490 . S
C1560 H1550 0.930 . S
C1560 C1559 1.400 . S
C1560 C1563 1.386 . S
H1561 C1577 0.930 . S
H1562 C1578 0.931 . S
C1563 H1551 0.929 . S
C1563 C1557 1.390 . S
C1563 C1560 1.386 . S
C1564 C1559 1.490 . S
C1564 C1566 1.395 . S
C1564 C1567 1.403 . S
H1565 C1571 0.930 . S
C1566 H1552 0.930 . S
C1566 C1564 1.395 . S
C1566 C1569 1.403 . S
C1567 C1564 1.403 . S
C1567 C1568 1.524 . S
C1567 C1571 1.400 . S
C1568 H1553 0.960 . S
C1568 H1554 0.960 . S
C1568 H1555 0.960 . S
C1568 C1567 1.524 . S
C1569 C1566 1.403 . S
C1569 C1570 1.392 . S
C1569 C1573 1.495 . S
C1570 C1569 1.392 . S
C1570 C1571 1.385 . S
C1570 C1572 1.478 . S
C1571 H1565 0.930 . S
C1571 C1567 1.400 . S
C1571 C1570 1.385 . S
C1572 C1570 1.478 . S
C1572 C1574 1.381 . S
C1572 C1578 1.383 . S
C1573 C1569 1.495 . S
C1573 H1579 0.959 . S
C1573 H1580 0.961 . S
C1573 H1581 0.960 . S
C1574 C1572 1.381 . S
C1574 C1575 1.394 . S
C1574 H1582 0.930 . S
C1575 C1574 1.394 . S
C1575 C1576 1.383 . S
C1575 H1583 0.929 . S
C1576 C1575 1.383 . S
C1576 C1577 1.377 . S
C1577 H1561 0.930 . S
C1577 C1576 1.377 . S
C1577 C1578 1.379 . S
C1578 H1562 0.931 . S
C1578 C1572 1.383 . S
C1578 C1577 1.379 . S
H1579 C1573 0.959 . S
H1580 C1573 0.961 . S
H1581 C1573 0.960 . S
H1582 C1574 0.930 . S
H1583 C1575 0.929 . S
H1584 C1592 0.929 . S
H1585 C1594 0.930 . S
H1586 C1596 0.930 . S
H1587 C1599 0.929 . S
H1588 C1602 0.930 . S
H1589 C1604 0.960 . S
H1590 C1604 0.960 . S
H1591 C1604 0.960 . S
C1592 H1584 0.929 . S
C1592 C1593 1.377 . S
C1592 C1594 1.384 . S
C1593 C1592 1.377 . S
C1593 C1599 1.390 . S
C1594 H1585 0.930 . S
C1594 C1592 1.384 . S
C1594 C1595 1.372 . S
C1595 C1594 1.372 . S
C1595 C1596 1.400 . S
C1595 C1600 1.490 . S
C1596 H1586 0.930 . S
C1596 C1595 1.400 . S
C1596 C1599 1.386 . S
H1597 C1613 0.930 . S
H1598 C1614 0.931 . S
C1599 H1587 0.929 . S
C1599 C1593 1.390 . S
C1599 C1596 1.386 . S
C1600 C1595 1.490 . S
C1600 C1602 1.395 . S
C1600 C1603 1.403 . S
H1601 C1607 0.930 . S
C1602 H1588 0.930 . S
C1602 C1600 1.395 . S
C1602 C1605 1.403 . S
C1603 C1600 1.403 . S
C1603 C1604 1.524 . S
C1603 C1607 1.400 . S
C1604 H1589 0.960 . S
C1604 H1590 0.960 . S
C1604 H1591 0.960 . S
C1604 C1603 1.524 . S
C1605 C1602 1.403 . S
C1605 C1606 1.392 . S
C1605 C1609 1.495 . S
C1606 C1605 1.392 . S
C1606 C1607 1.385 . S
C1606 C1608 1.478 . S
C1607 H1601 0.930 . S
C1607 C1603 1.400 . S
C1607 C1606 1.385 . S
C1608 C1606 1.478 . S
C1608 C1610 1.381 . S
C1608 C1614 1.383 . S
C1609 C1605 1.495 . S
C1609 H1615 0.959 . S
C1609 H1616 0.961 . S
C1609 H1617 0.960 . S
C1610 C1608 1.381 . S
C1610 C1611 1.394 . S
C1610 H1618 0.930 . S
C1611 C1610 1.394 . S
C1611 C1612 1.383 . S
C1611 H1619 0.929 . S
C1612 C1611 1.383 . S
C1612 C1613 1.377 . S
C1613 H1597 0.930 . S
C1613 C1612 1.377 . S
C1613 C1614 1.379 . S
C1614 H1598 0.931 . S
C1614 C1608 1.383 . S
C1614 C1613 1.379 . S
H1615 C1609 0.959 . S
H1616 C1609 0.961 . S
H1617 C1609 0.960 . S
H1618 C1610 0.930 . S
H1619 C1611 0.929 . S
H1620 C1628 0.929 . S
H1621 C1630 0.930 . S
H1622 C1632 0.930 . S
H1623 C1635 0.929 . S
H1624 C1638 0.930 . S
H1625 C1640 0.960 . S
H1626 C1640 0.960 . S
H1627 C1640 0.960 . S
C1628 H1620 0.929 . S
C1628 C1629 1.377 . S
C1628 C1630 1.384 . S
C1629 C1628 1.377 . S
C1629 C1635 1.390 . S
C1630 H1621 0.930 . S
C1630 C1628 1.384 . S
C1630 C1631 1.372 . S
C1631 C1630 1.372 . S
C1631 C1632 1.400 . S
C1631 C1636 1.490 . S
C1632 H1622 0.930 . S
C1632 C1631 1.400 . S
C1632 C1635 1.386 . S
H1633 C1649 0.930 . S
H1634 C1650 0.931 . S
C1635 H1623 0.929 . S
C1635 C1629 1.390 . S
C1635 C1632 1.386 . S
C1636 C1631 1.490 . S
C1636 C1638 1.395 . S
C1636 C1639 1.403 . S
H1637 C1643 0.930 . S
C1638 H1624 0.930 . S
C1638 C1636 1.395 . S
C1638 C1641 1.403 . S
C1639 C1636 1.403 . S
C1639 C1640 1.524 . S
C1639 C1643 1.400 . S
C1640 H1625 0.960 . S
C1640 H1626 0.960 . S
C1640 H1627 0.960 . S
C1640 C1639 1.524 . S
C1641 C1638 1.403 . S
C1641 C1642 1.392 . S
C1641 C1645 1.495 . S
C1642 C1641 1.392 . S
C1642 C1643 1.385 . S
C1642 C1644 1.478 . S
C1643 H1637 0.930 . S
C1643 C1639 1.400 . S
C1643 C1642 1.385 . S
C1644 C1642 1.478 . S
C1644 C1646 1.381 . S
C1644 C1650 1.383 . S
C1645 C1641 1.495 . S
C1645 H1651 0.959 . S
C1645 H1652 0.961 . S
C1645 H1653 0.960 . S
C1646 C1644 1.381 . S
C1646 C1647 1.394 . S
C1646 H1654 0.930 . S
C1647 C1646 1.394 . S
C1647 C1648 1.383 . S
C1647 H1655 0.929 . S
C1648 C1647 1.383 . S
C1648 C1649 1.377 . S
C1649 H1633 0.930 . S
C1649 C1648 1.377 . S
C1649 C1650 1.379 . S
C1650 H1634 0.931 . S
C1650 C1644 1.383 . S
C1650 C1649 1.379 . S
H1651 C1645 0.959 . S
H1652 C1645 0.961 . S
H1653 C1645 0.960 . S
H1654 C1646 0.930 . S
H1655 C1647 0.929 . S
H1656 C1664 0.929 . S
H1657 C1666 0.930 . S
H1658 C1668 0.930 . S
H1659 C1671 0.929 . S
H1660 C1674 0.930 . S
H1661 C1676 0.960 . S
H1662 C1676 0.960 . S
H1663 C1676 0.960 . S
C1664 H1656 0.929 . S
C1664 C1665 1.377 . S
C1664 C1666 1.384 . S
C1665 C1664 1.377 . S
C1665 C1671 1.390 . S
C1666 H1657 0.930 . S
C1666 C1664 1.384 . S
C1666 C1667 1.372 . S
C1667 C1666 1.372 . S
C1667 C1668 1.400 . S
C1667 C1672 1.490 . S
C1668 H1658 0.930 . S
C1668 C1667 1.400 . S
C1668 C1671 1.386 . S
H1669 C1685 0.930 . S
H1670 C1686 0.931 . S
C1671 H1659 0.929 . S
C1671 C1665 1.390 . S
C1671 C1668 1.386 . S
C1672 C1667 1.490 . S
C1672 C1674 1.395 . S
C1672 C1675 1.403 . S
H1673 C1679 0.930 . S
C1674 H1660 0.930 . S
C1674 C1672 1.395 . S
C1674 C1677 1.403 . S
C1675 C1672 1.403 . S
C1675 C1676 1.524 . S
C1675 C1679 1.400 . S
C1676 H1661 0.960 . S
C1676 H1662 0.960 . S
C1676 H1663 0.960 . S
C1676 C1675 1.524 . S
C1677 C1674 1.403 . S
C1677 C1678 1.392 . S
C1677 C1681 1.495 . S
C1678 C1677 1.392 . S
C1678 C1679 1.385 . S
C1678 C1680 1.478 . S
C1679 H1673 0.930 . S
C1679 C1675 1.400 . S
C1679 C1678 1.385 . S
C1680 C1678 1.478 . S
C1680 C1682 1.381 . S
C1680 C1686 1.383 . S
C1681 C1677 1.495 . S
C1681 H1687 0.959 . S
C1681 H1688 0.961 . S
C1681 H1689 0.960 . S
C1682 C1680 1.381 . S
C1682 C1683 1.394 . S
C1682 H1690 0.930 . S
C1683 C1682 1.394 . S
C1683 C1684 1.383 . S
C1683 H1691 0.929 . S
C1684 C1683 1.383 . S
C1684 C1685 1.377 . S
C1685 H1669 0.930 . S
C1685 C1684 1.377 . S
C1685 C1686 1.379 . S
C1686 H1670 0.931 . S
C1686 C1680 1.383 . S
C1686 C1685 1.379 . S
H1687 C1681 0.959 . S
H1688 C1681 0.961 . S
H1689 C1681 0.960 . S
H1690 C1682 0.930 . S
H1691 C1683 0.929 . S
H1692 C1700 0.929 . S
H1693 C1702 0.930 . S
H1694 C1704 0.930 . S
H1695 C1707 0.929 . S
H1696 C1710 0.930 . S
H1697 C1712 0.960 . S
H1698 C1712 0.960 . S
H1699 C1712 0.960 . S
C1700 H1692 0.929 . S
C1700 C1701 1.377 . S
C1700 C1702 1.384 . S
C1701 C1700 1.377 . S
C1701 C1707 1.390 . S
C1702 H1693 0.930 . S
C1702 C1700 1.384 . S
C1702 C1703 1.372 . S
C1703 C1702 1.372 . S
C1703 C1704 1.400 . S
C1703 C1708 1.490 . S
C1704 H1694 0.930 . S
C1704 C1703 1.400 . S
C1704 C1707 1.386 . S
H1705 C1721 0.930 . S
H1706 C1722 0.931 . S
C1707 H1695 0.929 . S
C1707 C1701 1.390 . S
C1707 C1704 1.386 . S
C1708 C1703 1.490 . S
C1708 C1710 1.395 . S
C1708 C1711 1.403 . S
H1709 C1715 0.930 . S
C1710 H1696 0.930 . S
C1710 C1708 1.395 . S
C1710 C1713 1.403 . S
C1711 C1708 1.403 . S
C1711 C1712 1.524 . S
C1711 C1715 1.400 . S
C1712 H1697 0.960 . S
C1712 H1698 0.960 . S
C1712 H1699 0.960 . S
C1712 C1711 1.524 . S
C1713 C1710 1.403 . S
C1713 C1714 1.392 . S
C1713 C1717 1.495 . S
C1714 C1713 1.392 . S
C1714 C1715 1.385 . S
C1714 C1716 1.478 . S
C1715 H1709 0.930 . S
C1715 C1711 1.400 . S
C1715 C1714 1.385 . S
C1716 C1714 1.478 . S
C1716 C1718 1.381 . S
C1716 C1722 1.383 . S
C1717 C1713 1.495 . S
C1717 H1723 0.959 . S
C1717 H1724 0.961 . S
C1717 H1725 0.960 . S
C1718 C1716 1.381 . S
C1718 C1719 1.394 . S
C1718 H1726 0.930 . S
C1719 C1718 1.394 . S
C1719 C1720 1.383 . S
C1719 H1727 0.929 . S
C1720 C1719 1.383 . S
C1720 C1721 1.377 . S
C1721 H1705 0.930 . S
C1721 C1720 1.377 . S
C1721 C1722 1.379 . S
C1722 H1706 0.931 . S
C1722 C1716 1.383 . S
C1722 C1721 1.379 . S
H1723 C1717 0.959 . S
H1724 C1717 0.961 . S
H1725 C1717 0.960 . S
H1726 C1718 0.930 . S
H1727 C1719 0.929 . S
H1728 C1736 0.929 . S
H1729 C1738 0.930 . S
H1730 C1740 0.930 . S
H1731 C1743 0.929 . S
H1732 C1746 0.930 . S
H1733 C1748 0.960 . S
H1734 C1748 0.960 . S
H1735 C1748 0.960 . S
C1736 H1728 0.929 . S
C1736 C1737 1.377 . S
C1736 C1738 1.384 . S
C1737 C1736 1.377 . S
C1737 C1743 1.390 . S
C1738 H1729 0.930 . S
C1738 C1736 1.384 . S
C1738 C1739 1.372 . S
C1739 C1738 1.372 . S
C1739 C1740 1.400 . S
C1739 C1744 1.490 . S
C1740 H1730 0.930 . S
C1740 C1739 1.400 . S
C1740 C1743 1.386 . S
H1741 C1757 0.930 . S
H1742 C1758 0.931 . S
C1743 H1731 0.929 . S
C1743 C1737 1.390 . S
C1743 C1740 1.386 . S
C1744 C1739 1.490 . S
C1744 C1746 1.395 . S
C1744 C1747 1.403 . S
H1745 C1751 0.930 . S
C1746 H1732 0.930 . S
C1746 C1744 1.395 . S
C1746 C1749 1.403 . S
C1747 C1744 1.403 . S
C1747 C1748 1.524 . S
C1747 C1751 1.400 . S
C1748 H1733 0.960 . S
C1748 H1734 0.960 . S
C1748 H1735 0.960 . S
C1748 C1747 1.524 . S
C1749 C1746 1.403 . S
C1749 C1750 1.392 . S
C1749 C1753 1.495 . S
C1750 C1749 1.392 . S
C1750 C1751 1.385 . S
C1750 C1752 1.478 . S
C1751 H1745 0.930 . S
C1751 C1747 1.400 . S
C1751 C1750 1.385 . S
C1752 C1750 1.478 . S
C1752 C1754 1.381 . S
C1752 C1758 1.383 . S
C1753 C1749 1.495 . S
C1753 H1759 0.959 . S
C1753 H1760 0.961 . S
C1753 H1761 0.960 . S
C1754 C1752 1.381 . S
C1754 C1755 1.394 . S
C1754 H1762 0.930 . S
C1755 C1754 1.394 . S
C1755 C1756 1.383 . S
C1755 H1763 0.929 . S
C1756 C1755 1.383 . S
C1756 C1757 1.377 . S
C1757 H1741 0.930 . S
C1757 C1756 1.377 . S
C1757 C1758 1.379 . S
C1758 H1742 0.931 . S
C1758 C1752 1.383 . S
C1758 C1757 1.379 . S
H1759 C1753 0.959 . S
H1760 C1753 0.961 . S
H1761 C1753 0.960 . S
H1762 C1754 0.930 . S
H1763 C1755 0.929 . S
H1764 C1772 0.929 . S
H1765 C1774 0.930 . S
H1766 C1776 0.930 . S
H1767 C1779 0.929 . S
H1768 C1782 0.930 . S
H1769 C1784 0.960 . S
H1770 C1784 0.960 . S
H1771 C1784 0.960 . S
C1772 H1764 0.929 . S
C1772 C1773 1.377 . S
C1772 C1774 1.384 . S
C1773 C1772 1.377 . S
C1773 C1779 1.390 . S
C1774 H1765 0.930 . S
C1774 C1772 1.384 . S
C1774 C1775 1.372 . S
C1775 C1774 1.372 . S
C1775 C1776 1.400 . S
C1775 C1780 1.490 . S
C1776 H1766 0.930 . S
C1776 C1775 1.400 . S
C1776 C1779 1.386 . S
H1777 C1793 0.930 . S
H1778 C1794 0.931 . S
C1779 H1767 0.929 . S
C1779 C1773 1.390 . S
C1779 C1776 1.386 . S
C1780 C1775 1.490 . S
C1780 C1782 1.395 . S
C1780 C1783 1.403 . S
H1781 C1787 0.930 . S
C1782 H1768 0.930 . S
C1782 C1780 1.395 . S
C1782 C1785 1.403 . S
C1783 C1780 1.403 . S
C1783 C1784 1.524 . S
C1783 C1787 1.400 . S
C1784 H1769 0.960 . S
C1784 H1770 0.960 . S
C1784 H1771 0.960 . S
C1784 C1783 1.524 . S
C1785 C1782 1.403 . S
C1785 C1786 1.392 . S
C1785 C1789 1.495 . S
C1786 C1785 1.392 . S
C1786 C1787 1.385 . S
C1786 C1788 1.478 . S
C1787 H1781 0.930 . S
C1787 C1783 1.400 . S
C1787 C1786 1.385 . S
C1788 C1786 1.478 . S
C1788 C1790 1.381 . S
C1788 C1794 1.383 . S
C1789 C1785 1.495 . S
C1789 H1795 0.959 . S
C1789 H1796 0.961 . S
C1789 H1797 0.960 . S
C1790 C1788 1.381 . S
C1790 C1791 1.394 . S
C1790 H1798 0.930 . S
C1791 C1790 1.394 . S
C1791 C1792 1.383 . S
C1791 H1799 0.929 . S
C1792 C1791 1.383 . S
C1792 C1793 1.377 . S
C1793 H1777 0.930 . S
C1793 C1792 1.377 . S
C1793 C1794 1.379 . S
C1794 H1778 0.931 . S
C1794 C1788 1.383 . S
C1794 C1793 1.379 . S
H1795 C1789 0.959 . S
H1796 C1789 0.961 . S
H1797 C1789 0.960 . S
H1798 C1790 0.930 . S
H1799 C1791 0.929 . S
H1800 C1808 0.929 . S
H1801 C1810 0.930 . S
H1802 C1812 0.930 . S
H1803 C1815 0.929 . S
H1804 C1818 0.930 . S
H1805 C1820 0.960 . S
H1806 C1820 0.960 . S
H1807 C1820 0.960 . S
C1808 H1800 0.929 . S
C1808 C1809 1.377 . S
C1808 C1810 1.384 . S
C1809 C1808 1.377 . S
C1809 C1815 1.390 . S
C1810 H1801 0.930 . S
C1810 C1808 1.384 . S
C1810 C1811 1.372 . S
C1811 C1810 1.372 . S
C1811 C1812 1.400 . S
C1811 C1816 1.490 . S
C1812 H1802 0.930 . S
C1812 C1811 1.400 . S
C1812 C1815 1.386 . S
H1813 C1829 0.930 . S
H1814 C1830 0.931 . S
C1815 H1803 0.929 . S
C1815 C1809 1.390 . S
C1815 C1812 1.386 . S
C1816 C1811 1.490 . S
C1816 C1818 1.395 . S
C1816 C1819 1.403 . S
H1817 C1823 0.930 . S
C1818 H1804 0.930 . S
C1818 C1816 1.395 . S
C1818 C1821 1.403 . S
C1819 C1816 1.403 . S
C1819 C1820 1.524 . S
C1819 C1823 1.400 . S
C1820 H1805 0.960 . S
C1820 H1806 0.960 . S
C1820 H1807 0.960 . S
C1820 C1819 1.524 . S
C1821 C1818 1.403 . S
C1821 C1822 1.392 . S
C1821 C1825 1.495 . S
C1822 C1821 1.392 . S
C1822 C1823 1.385 . S
C1822 C1824 1.478 . S
C1823 H1817 0.930 . S
C1823 C1819 1.400 . S
C1823 C1822 1.385 . S
C1824 C1822 1.478 . S
C1824 C1826 1.381 . S
C1824 C1830 1.383 . S
C1825 C1821 1.495 . S
C1825 H1831 0.959 . S
C1825 H1832 0.961 . S
C1825 H1833 0.960 . S
C1826 C1824 1.381 . S
C1826 C1827 1.394 . S
C1826 H1834 0.930 . S
C1827 C1826 1.394 . S
C1827 C1828 1.383 . S
C1827 H1835 0.929 . S
C1828 C1827 1.383 . S
C1828 C1829 1.377 . S
C1829 H1813 0.930 . S
C1829 C1828 1.377 . S
C1829 C1830 1.379 . S
C1830 H1814 0.931 . S
C1830 C1824 1.383 . S
C1830 C1829 1.379 . S
H1831 C1825 0.959 . S
H1832 C1825 0.961 . S
H1833 C1825 0.960 . S
H1834 C1826 0.930 . S
H1835 C1827 0.929 . S
H1836 C1844 0.929 . S
H1837 C1846 0.930 . S
H1838 C1848 0.930 . S
H1839 C1851 0.929 . S
H1840 C1854 0.930 . S
H1841 C1856 0.960 . S
H1842 C1856 0.960 . S
H1843 C1856 0.960 . S
C1844 H1836 0.929 . S
C1844 C1845 1.377 . S
C1844 C1846 1.384 . S
C1845 C1844 1.377 . S
C1845 C1851 1.390 . S
C1846 H1837 0.930 . S
C1846 C1844 1.384 . S
C1846 C1847 1.372 . S
C1847 C1846 1.372 . S
C1847 C1848 1.400 . S
C1847 C1852 1.490 . S
C1848 H1838 0.930 . S
C1848 C1847 1.400 . S
C1848 C1851 1.386 . S
H1849 C1865 0.930 . S
H1850 C1866 0.931 . S
C1851 H1839 0.929 . S
C1851 C1845 1.390 . S
C1851 C1848 1.386 . S
C1852 C1847 1.490 . S
C1852 C1854 1.395 . S
C1852 C1855 1.403 . S
H1853 C1859 0.930 . S
C1854 H1840 0.930 . S
C1854 C1852 1.395 . S
C1854 C1857 1.403 . S
C1855 C1852 1.403 . S
C1855 C1856 1.524 . S
C1855 C1859 1.400 . S
C1856 H1841 0.960 . S
C1856 H1842 0.960 . S
C1856 H1843 0.960 . S
C1856 C1855 1.524 . S
C1857 C1854 1.403 . S
C1857 C1858 1.392 . S
C1857 C1861 1.495 . S
C1858 C1857 1.392 . S
C1858 C1859 1.385 . S
C1858 C1860 1.478 . S
C1859 H1853 0.930 . S
C1859 C1855 1.400 . S
C1859 C1858 1.385 . S
C1860 C1858 1.478 . S
C1860 C1862 1.381 . S
C1860 C1866 1.383 . S
C1861 C1857 1.495 . S
C1861 H1867 0.959 . S
C1861 H1868 0.961 . S
C1861 H1869 0.960 . S
C1862 C1860 1.381 . S
C1862 C1863 1.394 . S
C1862 H1870 0.930 . S
C1863 C1862 1.394 . S
C1863 C1864 1.383 . S
C1863 H1871 0.929 . S
C1864 C1863 1.383 . S
C1864 C1865 1.377 . S
C1865 H1849 0.930 . S
C1865 C1864 1.377 . S
C1865 C1866 1.379 . S
C1866 H1850 0.931 . S
C1866 C1860 1.383 . S
C1866 C1865 1.379 . S
H1867 C1861 0.959 . S
H1868 C1861 0.961 . S
H1869 C1861 0.960 . S
H1870 C1862 0.930 . S
H1871 C1863 0.929 . S
H1872 C1880 0.929 . S
H1873 C1882 0.930 . S
H1874 C1884 0.930 . S
H1875 C1887 0.929 . S
H1876 C1890 0.930 . S
H1877 C1892 0.960 . S
H1878 C1892 0.960 . S
H1879 C1892 0.960 . S
C1880 H1872 0.929 . S
C1880 C1881 1.377 . S
C1880 C1882 1.384 . S
C1881 C1880 1.377 . S
C1881 C1887 1.390 . S
C1882 H1873 0.930 . S
C1882 C1880 1.384 . S
C1882 C1883 1.372 . S
C1883 C1882 1.372 . S
C1883 C1884 1.400 . S
C1883 C1888 1.490 . S
C1884 H1874 0.930 . S
C1884 C1883 1.400 . S
C1884 C1887 1.386 . S
H1885 C1901 0.930 . S
H1886 C1902 0.931 . S
C1887 H1875 0.929 . S
C1887 C1881 1.390 . S
C1887 C1884 1.386 . S
C1888 C1883 1.490 . S
C1888 C1890 1.395 . S
C1888 C1891 1.403 . S
H1889 C1895 0.930 . S
C1890 H1876 0.930 . S
C1890 C1888 1.395 . S
C1890 C1893 1.403 . S
C1891 C1888 1.403 . S
C1891 C1892 1.524 . S
C1891 C1895 1.400 . S
C1892 H1877 0.960 . S
C1892 H1878 0.960 . S
C1892 H1879 0.960 . S
C1892 C1891 1.524 . S
C1893 C1890 1.403 . S
C1893 C1894 1.392 . S
C1893 C1897 1.495 . S
C1894 C1893 1.392 . S
C1894 C1895 1.385 . S
C1894 C1896 1.478 . S
C1895 H1889 0.930 . S
C1895 C1891 1.400 . S
C1895 C1894 1.385 . S
C1896 C1894 1.478 . S
C1896 C1898 1.381 . S
C1896 C1902 1.383 . S
C1897 C1893 1.495 . S
C1897 H1903 0.959 . S
C1897 H1904 0.961 . S
C1897 H1905 0.960 . S
C1898 C1896 1.381 . S
C1898 C1899 1.394 . S
C1898 H1906 0.930 . S
C1899 C1898 1.394 . S
C1899 C1900 1.383 . S
C1899 H1907 0.929 . S
C1900 C1899 1.383 . S
C1900 C1901 1.377 . S
C1901 H1885 0.930 . S
C1901 C1900 1.377 . S
C1901 C1902 1.379 . S
C1902 H1886 0.931 . S
C1902 C1896 1.383 . S
C1902 C1901 1.379 . S
H1903 C1897 0.959 . S
H1904 C1897 0.961 . S
H1905 C1897 0.960 . S
H1906 C1898 0.930 . S
H1907 C1899 0.929 . S
H1908 C1916 0.929 . S
H1909 C1918 0.930 . S
H1910 C1920 0.930 . S
H1911 C1923 0.929 . S
H1912 C1926 0.930 . S
H1913 C1928 0.960 . S
H1914 C1928 0.960 . S
H1915 C1928 0.960 . S
C1916 H1908 0.929 . S
C1916 C1917 1.377 . S
C1916 C1918 1.384 . S
C1917 C1916 1.377 . S
C1917 C1923 1.390 . S
C1918 H1909 0.930 . S
C1918 C1916 1.384 . S
C1918 C1919 1.372 . S
C1919 C1918 1.372 . S
C1919 C1920 1.400 . S
C1919 C1924 1.490 . S
C1920 H1910 0.930 . S
C1920 C1919 1.400 . S
C1920 C1923 1.386 . S
H1921 C1937 0.930 . S
H1922 C1938 0.931 . S
C1923 H1911 0.929 . S
C1923 C1917 1.390 . S
C1923 C1920 1.386 . S
C1924 C1919 1.490 . S
C1924 C1926 1.395 . S
C1924 C1927 1.403 . S
H1925 C1931 0.930 . S
C1926 H1912 0.930 . S
C1926 C1924 1.395 . S
C1926 C1929 1.403 . S
C1927 C1924 1.403 . S
C1927 C1928 1.524 . S
C1927 C1931 1.400 . S
C1928 H1913 0.960 . S
C1928 H1914 0.960 . S
C1928 H1915 0.960 . S
C1928 C1927 1.524 . S
C1929 C1926 1.403 . S
C1929 C1930 1.392 . S
C1929 C1933 1.495 . S
C1930 C1929 1.392 . S
C1930 C1931 1.385 . S
C1930 C1932 1.478 . S
C1931 H1925 0.930 . S
C1931 C1927 1.400 . S
C1931 C1930 1.385 . S
C1932 C1930 1.478 . S
C1932 C1934 1.381 . S
C1932 C1938 1.383 . S
C1933 C1929 1.495 . S
C1933 H1939 0.959 . S
C1933 H1940 0.961 . S
C1933 H1941 0.960 . S
C1934 C1932 1.381 . S
C1934 C1935 1.394 . S
C1934 H1942 0.930 . S
C1935 C1934 1.394 . S
C1935 C1936 1.383 . S
C1935 H1943 0.929 . S
C1936 C1935 1.383 . S
C1936 C1937 1.377 . S
C1937 H1921 0.930 . S
C1937 C1936 1.377 . S
C1937 C1938 1.379 . S
C1938 H1922 0.931 . S
C1938 C1932 1.383 . S
C1938 C1937 1.379 . S
H1939 C1933 0.959 . S
H1940 C1933 0.961 . S
H1941 C1933 0.960 . S
H1942 C1934 0.930 . S
H1943 C1935 0.929 . S
H1944 C1952 0.929 . S
H1945 C1954 0.930 . S
H1946 C1956 0.930 . S
H1947 C1959 0.929 . S
H1948 C1962 0.930 . S
H1949 C1964 0.960 . S
H1950 C1964 0.960 . S
H1951 C1964 0.960 . S
C1952 H1944 0.929 . S
C1952 C1953 1.377 . S
C1952 C1954 1.384 . S
C1953 C1952 1.377 . S
C1953 C1959 1.390 . S
C1954 H1945 0.930 . S
C1954 C1952 1.384 . S
C1954 C1955 1.372 . S
C1955 C1954 1.372 . S
C1955 C1956 1.400 . S
C1955 C1960 1.490 . S
C1956 H1946 0.930 . S
C1956 C1955 1.400 . S
C1956 C1959 1.386 . S
H1957 C1973 0.930 . S
H1958 C1974 0.931 . S
C1959 H1947 0.929 . S
C1959 C1953 1.390 . S
C1959 C1956 1.386 . S
C1960 C1955 1.490 . S
C1960 C1962 1.395 . S
C1960 C1963 1.403 . S
H1961 C1967 0.930 . S
C1962 H1948 0.930 . S
C1962 C1960 1.395 . S
C1962 C1965 1.403 . S
C1963 C1960 1.403 . S
C1963 C1964 1.524 . S
C1963 C1967 1.400 . S
C1964 H1949 0.960 . S
C1964 H1950 0.960 . S
C1964 H1951 0.960 . S
C1964 C1963 1.524 . S
C1965 C1962 1.403 . S
C1965 C1966 1.392 . S
C1965 C1969 1.495 . S
C1966 C1965 1.392 . S
C1966 C1967 1.385 . S
C1966 C1968 1.478 . S
C1967 H1961 0.930 . S
C1967 C1963 1.400 . S
C1967 C1966 1.385 . S
C1968 C1966 1.478 . S
C1968 C1970 1.381 . S
C1968 C1974 1.383 . S
C1969 C1965 1.495 . S
C1969 H1975 0.959 . S
C1969 H1976 0.961 . S
C1969 H1977 0.960 . S
C1970 C1968 1.381 . S
C1970 C1971 1.394 . S
C1970 H1978 0.930 . S
C1971 C1970 1.394 . S
C1971 C1972 1.383 . S
C1971 H1979 0.929 . S
C1972 C1971 1.383 . S
C1972 C1973 1.377 . S
C1973 H1957 0.930 . S
C1973 C1972 1.377 . S
C1973 C1974 1.379 . S
C1974 H1958 0.931 . S
C1974 C1968 1.383 . S
C1974 C1973 1.379 . S
H1975 C1969 0.959 . S
H1976 C1969 0.961 . S
H1977 C1969 0.960 . S
H1978 C1970 0.930 . S
H1979 C1971 0.929 . S
H1980 C1988 0.929 . S
H1981 C1990 0.930 . S
H1982 C1992 0.930 . S
H1983 C1995 0.929 . S
H1984 C1998 0.930 . S
H1985 C2000 0.960 . S
H1986 C2000 0.960 . S
H1987 C2000 0.960 . S
C1988 H1980 0.929 . S
C1988 C1989 1.377 . S
C1988 C1990 1.384 . S
C1989 C1988 1.377 . S
C1989 C1995 1.390 . S
C1990 H1981 0.930 . S
C1990 C1988 1.384 . S
C1990 C1991 1.372 . S
C1991 C1990 1.372 . S
C1991 C1992 1.400 . S
C1991 C1996 1.490 . S
C1992 H1982 0.930 . S
C1992 C1991 1.400 . S
C1992 C1995 1.386 . S
H1993 C2009 0.930 . S
H1994 C2010 0.931 . S
C1995 H1983 0.929 . S
C1995 C1989 1.390 . S
C1995 C1992 1.386 . S
C1996 C1991 1.490 . S
C1996 C1998 1.395 . S
C1996 C1999 1.403 . S
H1997 C2003 0.930 . S
C1998 H1984 0.930 . S
C1998 C1996 1.395 . S
C1998 C2001 1.403 . S
C1999 C1996 1.403 . S
C1999 C2000 1.524 . S
C1999 C2003 1.400 . S
C2000 H1985 0.960 . S
C2000 H1986 0.960 . S
C2000 H1987 0.960 . S
C2000 C1999 1.524 . S
C2001 C1998 1.403 . S
C2001 C2002 1.392 . S
C2001 C2005 1.495 . S
C2002 C2001 1.392 . S
C2002 C2003 1.385 . S
C2002 C2004 1.478 . S
C2003 H1997 0.930 . S
C2003 C1999 1.400 . S
C2003 C2002 1.385 . S
C2004 C2002 1.478 . S
C2004 C2006 1.381 . S
C2004 C2010 1.383 . S
C2005 C2001 1.495 . S
C2005 H2011 0.959 . S
C2005 H2012 0.961 . S
C2005 H2013 0.960 . S
C2006 C2004 1.381 . S
C2006 C2007 1.394 . S
C2006 H2014 0.930 . S
C2007 C2006 1.394 . S
C2007 C2008 1.383 . S
C2007 H2015 0.929 . S
C2008 C2007 1.383 . S
C2008 C2009 1.377 . S
C2009 H1993 0.930 . S
C2009 C2008 1.377 . S
C2009 C2010 1.379 . S
C2010 H1994 0.931 . S
C2010 C2004 1.383 . S
C2010 C2009 1.379 . S
H2011 C2005 0.959 . S
H2012 C2005 0.961 . S
H2013 C2005 0.960 . S
H2014 C2006 0.930 . S
H2015 C2007 0.929 . S
H2016 C2024 0.929 . S
H2017 C2026 0.930 . S
H2018 C2028 0.930 . S
H2019 C2031 0.929 . S
H2020 C2034 0.930 . S
H2021 C2036 0.960 . S
H2022 C2036 0.960 . S
H2023 C2036 0.960 . S
C2024 H2016 0.929 . S
C2024 C2025 1.377 . S
C2024 C2026 1.384 . S
C2025 C2024 1.377 . S
C2025 C2031 1.390 . S
C2026 H2017 0.930 . S
C2026 C2024 1.384 . S
C2026 C2027 1.372 . S
C2027 C2026 1.372 . S
C2027 C2028 1.400 . S
C2027 C2032 1.490 . S
C2028 H2018 0.930 . S
C2028 C2027 1.400 . S
C2028 C2031 1.386 . S
H2029 C2045 0.930 . S
H2030 C2046 0.931 . S
C2031 H2019 0.929 . S
C2031 C2025 1.390 . S
C2031 C2028 1.386 . S
C2032 C2027 1.490 . S
C2032 C2034 1.395 . S
C2032 C2035 1.403 . S
H2033 C2039 0.930 . S
C2034 H2020 0.930 . S
C2034 C2032 1.395 . S
C2034 C2037 1.403 . S
C2035 C2032 1.403 . S
C2035 C2036 1.524 . S
C2035 C2039 1.400 . S
C2036 H2021 0.960 . S
C2036 H2022 0.960 . S
C2036 H2023 0.960 . S
C2036 C2035 1.524 . S
C2037 C2034 1.403 . S
C2037 C2038 1.392 . S
C2037 C2041 1.495 . S
C2038 C2037 1.392 . S
C2038 C2039 1.385 . S
C2038 C2040 1.478 . S
C2039 H2033 0.930 . S
C2039 C2035 1.400 . S
C2039 C2038 1.385 . S
C2040 C2038 1.478 . S
C2040 C2042 1.381 . S
C2040 C2046 1.383 . S
C2041 C2037 1.495 . S
C2041 H2047 0.959 . S
C2041 H2048 0.961 . S
C2041 H2049 0.960 . S
C2042 C2040 1.381 . S
C2042 C2043 1.394 . S
C2042 H2050 0.930 . S
C2043 C2042 1.394 . S
C2043 C2044 1.383 . S
C2043 H2051 0.929 . S
C2044 C2043 1.383 . S
C2044 C2045 1.377 . S
C2045 H2029 0.930 . S
C2045 C2044 1.377 . S
C2045 C2046 1.379 . S
C2046 H2030 0.931 . S
C2046 C2040 1.383 . S
C2046 C2045 1.379 . S
H2047 C2041 0.959 . S
H2048 C2041 0.961 . S
H2049 C2041 0.960 . S
H2050 C2042 0.930 . S
H2051 C2043 0.929 . S
H2052 C2060 0.929 . S
H2053 C2062 0.930 . S
H2054 C2064 0.930 . S
H2055 C2067 0.929 . S
H2056 C2070 0.930 . S
H2057 C2072 0.960 . S
H2058 C2072 0.960 . S
H2059 C2072 0.960 . S
C2060 H2052 0.929 . S
C2060 C2061 1.377 . S
C2060 C2062 1.384 . S
C2061 C2060 1.377 . S
C2061 C2067 1.390 . S
C2062 H2053 0.930 . S
C2062 C2060 1.384 . S
C2062 C2063 1.372 . S
C2063 C2062 1.372 . S
C2063 C2064 1.400 . S
C2063 C2068 1.490 . S
C2064 H2054 0.930 . S
C2064 C2063 1.400 . S
C2064 C2067 1.386 . S
H2065 C2081 0.930 . S
H2066 C2082 0.931 . S
C2067 H2055 0.929 . S
C2067 C2061 1.390 . S
C2067 C2064 1.386 . S
C2068 C2063 1.490 . S
C2068 C2070 1.395 . S
C2068 C2071 1.403 . S
H2069 C2075 0.930 . S
C2070 H2056 0.930 . S
C2070 C2068 1.395 . S
C2070 C2073 1.403 . S
C2071 C2068 1.403 . S
C2071 C2072 1.524 . S
C2071 C2075 1.400 . S
C2072 H2057 0.960 . S
C2072 H2058 0.960 . S
C2072 H2059 0.960 . S
C2072 C2071 1.524 . S
C2073 C2070 1.403 . S
C2073 C2074 1.392 . S
C2073 C2077 1.495 . S
C2074 C2073 1.392 . S
C2074 C2075 1.385 . S
C2074 C2076 1.478 . S
C2075 H2069 0.930 . S
C2075 C2071 1.400 . S
C2075 C2074 1.385 . S
C2076 C2074 1.478 . S
C2076 C2078 1.381 . S
C2076 C2082 1.383 . S
C2077 C2073 1.495 . S
C2077 H2083 0.959 . S
C2077 H2084 0.961 . S
C2077 H2085 0.960 . S
C2078 C2076 1.381 . S
C2078 C2079 1.394 . S
C2078 H2086 0.930 . S
C2079 C2078 1.394 . S
C2079 C2080 1.383 . S
C2079 H2087 0.929 . S
C2080 C2079 1.383 . S
C2080 C2081 1.377 . S
C2081 H2065 0.930 . S
C2081 C2080 1.377 . S
C2081 C2082 1.379 . S
C2082 H2066 0.931 . S
C2082 C2076 1.383 . S
C2082 C2081 1.379 . S
H2083 C2077 0.959 . S
H2084 C2077 0.961 . S
H2085 C2077 0.960 . S
H2086 C2078 0.930 . S
H2087 C2079 0.929 . S
H2088 C2096 0.929 . S
H2089 C2098 0.930 . S
H2090 C2100 0.930 . S
H2091 C2103 0.929 . S
H2092 C2106 0.930 . S
H2093 C2108 0.960 . S
H2094 C2108 0.960 . S
H2095 C2108 0.960 . S
C2096 H2088 0.929 . S
C2096 C2097 1.377 . S
C2096 C2098 1.384 . S
C2097 C2096 1.377 . S
C2097 C2103 1.390 . S
C2098 H2089 0.930 . S
C2098 C2096 1.384 . S
C2098 C2099 1.372 . S
C2099 C2098 1.372 . S
C2099 C2100 1.400 . S
C2099 C2104 1.490 . S
C2100 H2090 0.930 . S
C2100 C2099 1.400 . S
C2100 C2103 1.386 . S
H2101 C2117 0.930 . S
H2102 C2118 0.931 . S
C2103 H2091 0.929 . S
C2103 C2097 1.390 . S
C2103 C2100 1.386 . S
C2104 C2099 1.490 . S
C2104 C2106 1.395 . S
C2104 C2107 1.403 . S
H2105 C2111 0.930 . S
C2106 H2092 0.930 . S
C2106 C2104 1.395 . S
C2106 C2109 1.403 . S
C2107 C2104 1.403 . S
C2107 C2108 1.524 . S
C2107 C2111 1.400 . S
C2108 H2093 0.960 . S
C2108 H2094 0.960 . S
C2108 H2095 0.960 . S
C2108 C2107 1.524 . S
C2109 C2106 1.403 . S
C2109 C2110 1.392 . S
C2109 C2113 1.495 . S
C2110 C2109 1.392 . S
C2110 C2111 1.385 . S
C2110 C2112 1.478 . S
C2111 H2105 0.930 . S
C2111 C2107 1.400 . S
C2111 C2110 1.385 . S
C2112 C2110 1.478 . S
C2112 C2114 1.381 . S
C2112 C2118 1.383 . S
C2113 C2109 1.495 . S
C2113 H2119 0.959 . S
C2113 H2120 0.961 . S
C2113 H2121 0.960 . S
C2114 C2112 1.381 . S
C2114 C2115 1.394 . S
C2114 H2122 0.930 . S
C2115 C2114 1.394 . S
C2115 C2116 1.383 . S
C2115 H2123 0.929 . S
C2116 C2115 1.383 . S
C2116 C2117 1.377 . S
C2117 H2101 0.930 . S
C2117 C2116 1.377 . S
C2117 C2118 1.379 . S
C2118 H2102 0.931 . S
C2118 C2112 1.383 . S
C2118 C2117 1.379 . S
H2119 C2113 0.959 . S
H2120 C2113 0.961 . S
H2121 C2113 0.960 . S
H2122 C2114 0.930 . S
H2123 C2115 0.929 . S
H2124 C2132 0.929 . S
H2125 C2134 0.930 . S
H2126 C2136 0.930 . S
H2127 C2139 0.929 . S
H2128 C2142 0.930 . S
H2129 C2144 0.960 . S
H2130 C2144 0.960 . S
H2131 C2144 0.960 . S
C2132 H2124 0.929 . S
C2132 C2133 1.377 . S
C2132 C2134 1.384 . S
C2133 C2132 1.377 . S
C2133 C2139 1.390 . S
C2134 H2125 0.930 . S
C2134 C2132 1.384 . S
C2134 C2135 1.372 . S
C2135 C2134 1.372 . S
C2135 C2136 1.400 . S
C2135 C2140 1.490 . S
C2136 H2126 0.930 . S
C2136 C2135 1.400 . S
C2136 C2139 1.386 . S
H2137 C2153 0.930 . S
H2138 C2154 0.931 . S
C2139 H2127 0.929 . S
C2139 C2133 1.390 . S
C2139 C2136 1.386 . S
C2140 C2135 1.490 . S
C2140 C2142 1.395 . S
C2140 C2143 1.403 . S
H2141 C2147 0.930 . S
C2142 H2128 0.930 . S
C2142 C2140 1.395 . S
C2142 C2145 1.403 . S
C2143 C2140 1.403 . S
C2143 C2144 1.524 . S
C2143 C2147 1.400 . S
C2144 H2129 0.960 . S
C2144 H2130 0.960 . S
C2144 H2131 0.960 . S
C2144 C2143 1.524 . S
C2145 C2142 1.403 . S
C2145 C2146 1.392 . S
C2145 C2149 1.495 . S
C2146 C2145 1.392 . S
C2146 C2147 1.385 . S
C2146 C2148 1.478 . S
C2147 H2141 0.930 . S
C2147 C2143 1.400 . S
C2147 C2146 1.385 . S
C2148 C2146 1.478 . S
C2148 C2150 1.381 . S
C2148 C2154 1.383 . S
C2149 C2145 1.495 . S
C2149 H2155 0.959 . S
C2149 H2156 0.961 . S
C2149 H2157 0.960 . S
C2150 C2148 1.381 . S
C2150 C2151 1.394 . S
C2150 H2158 0.930 . S
C2151 C2150 1.394 . S
C2151 C2152 1.383 . S
C2151 H2159 0.929 . S
C2152 C2151 1.383 . S
C2152 C2153 1.377 . S
C2153 H2137 0.930 . S
C2153 C2152 1.377 . S
C2153 C2154 1.379 . S
C2154 H2138 0.931 . S
C2154 C2148 1.383 . S
C2154 C2153 1.379 . S
H2155 C2149 0.959 . S
H2156 C2149 0.961 . S
H2157 C2149 0.960 . S
H2158 C2150 0.930 . S
H2159 C2151 0.929 . S
H2160 C2168 0.929 . S
H2161 C2170 0.930 . S
H2162 C2172 0.930 . S
H2163 C2175 0.929 . S
H2164 C2178 0.930 . S
H2165 C2180 0.960 . S
H2166 C2180 0.960 . S
H2167 C2180 0.960 . S
C2168 H2160 0.929 . S
C2168 C2169 1.377 . S
C2168 C2170 1.384 . S
C2169 C2168 1.377 . S
C2169 C2175 1.390 . S
C2170 H2161 0.930 . S
C2170 C2168 1.384 . S
C2170 C2171 1.372 . S
C2171 C2170 1.372 . S
C2171 C2172 1.400 . S
C2171 C2176 1.490 . S
C2172 H2162 0.930 . S
C2172 C2171 1.400 . S
C2172 C2175 1.386 . S
H2173 C2189 0.930 . S
H2174 C2190 0.931 . S
C2175 H2163 0.929 . S
C2175 C2169 1.390 . S
C2175 C2172 1.386 . S
C2176 C2171 1.490 . S
C2176 C2178 1.395 . S
C2176 C2179 1.403 . S
H2177 C2183 0.930 . S
C2178 H2164 0.930 . S
C2178 C2176 1.395 . S
C2178 C2181 1.403 . S
C2179 C2176 1.403 . S
C2179 C2180 1.524 . S
C2179 C2183 1.400 . S
C2180 H2165 0.960 . S
C2180 H2166 0.960 . S
C2180 H2167 0.960 . S
C2180 C2179 1.524 . S
C2181 C2178 1.403 . S
C2181 C2182 1.392 . S
C2181 C2185 1.495 . S
C2182 C2181 1.392 . S
C2182 C2183 1.385 . S
C2182 C2184 1.478 . S
C2183 H2177 0.930 . S
C2183 C2179 1.400 . S
C2183 C2182 1.385 . S
C2184 C2182 1.478 . S
C2184 C2186 1.381 . S
C2184 C2190 1.383 . S
C2185 C2181 1.495 . S
C2185 H2191 0.959 . S
C2185 H2192 0.961 . S
C2185 H2193 0.960 . S
C2186 C2184 1.381 . S
C2186 C2187 1.394 . S
C2186 H2194 0.930 . S
C2187 C2186 1.394 . S
C2187 C2188 1.383 . S
C2187 H2195 0.929 . S
C2188 C2187 1.383 . S
C2188 C2189 1.377 . S
C2189 H2173 0.930 . S
C2189 C2188 1.377 . S
C2189 C2190 1.379 . S
C2190 H2174 0.931 . S
C2190 C2184 1.383 . S
C2190 C2189 1.379 . S
H2191 C2185 0.959 . S
H2192 C2185 0.961 . S
H2193 C2185 0.960 . S
H2194 C2186 0.930 . S
H2195 C2187 0.929 . S
H2196 C2204 0.929 . S
H2197 C2206 0.930 . S
H2198 C2208 0.930 . S
H2199 C2211 0.929 . S
H2200 C2214 0.930 . S
H2201 C2216 0.960 . S
H2202 C2216 0.960 . S
H2203 C2216 0.960 . S
C2204 H2196 0.929 . S
C2204 C2205 1.377 . S
C2204 C2206 1.384 . S
C2205 C2204 1.377 . S
C2205 C2211 1.390 . S
C2206 H2197 0.930 . S
C2206 C2204 1.384 . S
C2206 C2207 1.372 . S
C2207 C2206 1.372 . S
C2207 C2208 1.400 . S
C2207 C2212 1.490 . S
C2208 H2198 0.930 . S
C2208 C2207 1.400 . S
C2208 C2211 1.386 . S
H2209 C2225 0.930 . S
H2210 C2226 0.931 . S
C2211 H2199 0.929 . S
C2211 C2205 1.390 . S
C2211 C2208 1.386 . S
C2212 C2207 1.490 . S
C2212 C2214 1.395 . S
C2212 C2215 1.403 . S
H2213 C2219 0.930 . S
C2214 H2200 0.930 . S
C2214 C2212 1.395 . S
C2214 C2217 1.403 . S
C2215 C2212 1.403 . S
C2215 C2216 1.524 . S
C2215 C2219 1.400 . S
C2216 H2201 0.960 . S
C2216 H2202 0.960 . S
C2216 H2203 0.960 . S
C2216 C2215 1.524 . S
C2217 C2214 1.403 . S
C2217 C2218 1.392 . S
C2217 C2221 1.495 . S
C2218 C2217 1.392 . S
C2218 C2219 1.385 . S
C2218 C2220 1.478 . S
C2219 H2213 0.930 . S
C2219 C2215 1.400 . S
C2219 C2218 1.385 . S
C2220 C2218 1.478 . S
C2220 C2222 1.381 . S
C2220 C2226 1.383 . S
C2221 C2217 1.495 . S
C2221 H2227 0.959 . S
C2221 H2228 0.961 . S
C2221 H2229 0.960 . S
C2222 C2220 1.381 . S
C2222 C2223 1.394 . S
C2222 H2230 0.930 . S
C2223 C2222 1.394 . S
C2223 C2224 1.383 . S
C2223 H2231 0.929 . S
C2224 C2223 1.383 . S
C2224 C2225 1.377 . S
C2225 H2209 0.930 . S
C2225 C2224 1.377 . S
C2225 C2226 1.379 . S
C2226 H2210 0.931 . S
C2226 C2220 1.383 . S
C2226 C2225 1.379 . S
H2227 C2221 0.959 . S
H2228 C2221 0.961 . S
H2229 C2221 0.960 . S
H2230 C2222 0.930 . S
H2231 C2223 0.929 . S
H2232 C2240 0.929 . S
H2233 C2242 0.930 . S
H2234 C2244 0.930 . S
H2235 C2247 0.929 . S
H2236 C2250 0.930 . S
H2237 C2252 0.960 . S
H2238 C2252 0.960 . S
H2239 C2252 0.960 . S
C2240 H2232 0.929 . S
C2240 C2241 1.377 . S
C2240 C2242 1.384 . S
C2241 C2240 1.377 . S
C2241 C2247 1.390 . S
C2242 H2233 0.930 . S
C2242 C2240 1.384 . S
C2242 C2243 1.372 . S
C2243 C2242 1.372 . S
C2243 C2244 1.400 . S
C2243 C2248 1.490 . S
C2244 H2234 0.930 . S
C2244 C2243 1.400 . S
C2244 C2247 1.386 . S
H2245 C2261 0.930 . S
H2246 C2262 0.931 . S
C2247 H2235 0.929 . S
C2247 C2241 1.390 . S
C2247 C2244 1.386 . S
C2248 C2243 1.490 . S
C2248 C2250 1.395 . S
C2248 C2251 1.403 . S
H2249 C2255 0.930 . S
C2250 H2236 0.930 . S
C2250 C2248 1.395 . S
C2250 C2253 1.403 . S
C2251 C2248 1.403 . S
C2251 C2252 1.524 . S
C2251 C2255 1.400 . S
C2252 H2237 0.960 . S
C2252 H2238 0.960 . S
C2252 H2239 0.960 . S
C2252 C2251 1.524 . S
C2253 C2250 1.403 . S
C2253 C2254 1.392 . S
C2253 C2257 1.495 . S
C2254 C2253 1.392 . S
C2254 C2255 1.385 . S
C2254 C2256 1.478 . S
C2255 H2249 0.930 . S
C2255 C2251 1.400 . S
C2255 C2254 1.385 . S
C2256 C2254 1.478 . S
C2256 C2258 1.381 . S
C2256 C2262 1.383 . S
C2257 C2253 1.495 . S
C2257 H2263 0.959 . S
C2257 H2264 0.961 . S
C2257 H2265 0.960 . S
C2258 C2256 1.381 . S
C2258 C2259 1.394 . S
C2258 H2266 0.930 . S
C2259 C2258 1.394 . S
C2259 C2260 1.383 . S
C2259 H2267 0.929 . S
C2260 C2259 1.383 . S
C2260 C2261 1.377 . S
C2261 H2245 0.930 . S
C2261 C2260 1.377 . S
C2261 C2262 1.379 . S
C2262 H2246 0.931 . S
C2262 C2256 1.383 . S
C2262 C2261 1.379 . S
H2263 C2257 0.959 . S
H2264 C2257 0.961 . S
H2265 C2257 0.960 . S
H2266 C2258 0.930 . S
H2267 C2259 0.929 . S
H2268 C2276 0.929 . S
H2269 C2278 0.930 . S
H2270 C2280 0.930 . S
H2271 C2283 0.929 . S
H2272 C2286 0.930 . S
H2273 C2288 0.960 . S
H2274 C2288 0.960 . S
H2275 C2288 0.960 . S
C2276 H2268 0.929 . S
C2276 C2277 1.377 . S
C2276 C2278 1.384 . S
C2277 C2276 1.377 . S
C2277 C2283 1.390 . S
C2278 H2269 0.930 . S
C2278 C2276 1.384 . S
C2278 C2279 1.372 . S
C2279 C2278 1.372 . S
C2279 C2280 1.400 . S
C2279 C2284 1.490 . S
C2280 H2270 0.930 . S
C2280 C2279 1.400 . S
C2280 C2283 1.386 . S
H2281 C2297 0.930 . S
H2282 C2298 0.931 . S
C2283 H2271 0.929 . S
C2283 C2277 1.390 . S
C2283 C2280 1.386 . S
C2284 C2279 1.490 . S
C2284 C2286 1.395 . S
C2284 C2287 1.403 . S
H2285 C2291 0.930 . S
C2286 H2272 0.930 . S
C2286 C2284 1.395 . S
C2286 C2289 1.403 . S
C2287 C2284 1.403 . S
C2287 C2288 1.524 . S
C2287 C2291 1.400 . S
C2288 H2273 0.960 . S
C2288 H2274 0.960 . S
C2288 H2275 0.960 . S
C2288 C2287 1.524 . S
C2289 C2286 1.403 . S
C2289 C2290 1.392 . S
C2289 C2293 1.495 . S
C2290 C2289 1.392 . S
C2290 C2291 1.385 . S
C2290 C2292 1.478 . S
C2291 H2285 0.930 . S
C2291 C2287 1.400 . S
C2291 C2290 1.385 . S
C2292 C2290 1.478 . S
C2292 C2294 1.381 . S
C2292 C2298 1.383 . S
C2293 C2289 1.495 . S
C2293 H2299 0.959 . S
C2293 H2300 0.961 . S
C2293 H2301 0.960 . S
C2294 C2292 1.381 . S
C2294 C2295 1.394 . S
C2294 H2302 0.930 . S
C2295 C2294 1.394 . S
C2295 C2296 1.383 . S
C2295 H2303 0.929 . S
C2296 C2295 1.383 . S
C2296 C2297 1.377 . S
C2297 H2281 0.930 . S
C2297 C2296 1.377 . S
C2297 C2298 1.379 . S
C2298 H2282 0.931 . S
C2298 C2292 1.383 . S
C2298 C2297 1.379 . S
H2299 C2293 0.959 . S
H2300 C2293 0.961 . S
H2301 C2293 0.960 . S
H2302 C2294 0.930 . S
H2303 C2295 0.929 . S
H2304 C2312 0.929 . S
H2305 C2314 0.930 . S
H2306 C2316 0.930 . S
H2307 C2319 0.929 . S
H2308 C2322 0.930 . S
H2309 C2324 0.960 . S
H2310 C2324 0.960 . S
H2311 C2324 0.960 . S
C2312 H2304 0.929 . S
C2312 C2313 1.377 . S
C2312 C2314 1.384 . S
C2313 C2312 1.377 . S
C2313 C2319 1.390 . S
C2314 H2305 0.930 . S
C2314 C2312 1.384 . S
C2314 C2315 1.372 . S
C2315 C2314 1.372 . S
C2315 C2316 1.400 . S
C2315 C2320 1.490 . S
C2316 H2306 0.930 . S
C2316 C2315 1.400 . S
C2316 C2319 1.386 . S
H2317 C2333 0.930 . S
H2318 C2334 0.931 . S
C2319 H2307 0.929 . S
C2319 C2313 1.390 . S
C2319 C2316 1.386 . S
C2320 C2315 1.490 . S
C2320 C2322 1.395 . S
C2320 C2323 1.403 . S
H2321 C2327 0.930 . S
C2322 H2308 0.930 . S
C2322 C2320 1.395 . S
C2322 C2325 1.403 . S
C2323 C2320 1.403 . S
C2323 C2324 1.524 . S
C2323 C2327 1.400 . S
C2324 H2309 0.960 . S
C2324 H2310 0.960 . S
C2324 H2311 0.960 . S
C2324 C2323 1.524 . S
C2325 C2322 1.403 . S
C2325 C2326 1.392 . S
C2325 C2329 1.495 . S
C2326 C2325 1.392 . S
C2326 C2327 1.385 . S
C2326 C2328 1.478 . S
C2327 H2321 0.930 . S
C2327 C2323 1.400 . S
C2327 C2326 1.385 . S
C2328 C2326 1.478 . S
C2328 C2330 1.381 . S
C2328 C2334 1.383 . S
C2329 C2325 1.495 . S
C2329 H2335 0.959 . S
C2329 H2336 0.961 . S
C2329 H2337 0.960 . S
C2330 C2328 1.381 . S
C2330 C2331 1.394 . S
C2330 H2338 0.930 . S
C2331 C2330 1.394 . S
C2331 C2332 1.383 . S
C2331 H2339 0.929 . S
C2332 C2331 1.383 . S
C2332 C2333 1.377 . S
C2333 H2317 0.930 . S
C2333 C2332 1.377 . S
C2333 C2334 1.379 . S
C2334 H2318 0.931 . S
C2334 C2328 1.383 . S
C2334 C2333 1.379 . S
H2335 C2329 0.959 . S
H2336 C2329 0.961 . S
H2337 C2329 0.960 . S
H2338 C2330 0.930 . S
H2339 C2331 0.929 . S
H2340 C2348 0.929 . S
H2341 C2350 0.930 . S
H2342 C2352 0.930 . S
H2343 C2355 0.929 . S
H2344 C2358 0.930 . S
H2345 C2360 0.960 . S
H2346 C2360 0.960 . S
H2347 C2360 0.960 . S
C2348 H2340 0.929 . S
C2348 C2349 1.377 . S
C2348 C2350 1.384 . S
C2349 C2348 1.377 . S
C2349 C2355 1.390 . S
C2350 H2341 0.930 . S
C2350 C2348 1.384 . S
C2350 C2351 1.372 . S
C2351 C2350 1.372 . S
C2351 C2352 1.400 . S
C2351 C2356 1.490 . S
C2352 H2342 0.930 . S
C2352 C2351 1.400 . S
C2352 C2355 1.386 . S
H2353 C2369 0.930 . S
H2354 C2370 0.931 . S
C2355 H2343 0.929 . S
C2355 C2349 1.390 . S
C2355 C2352 1.386 . S
C2356 C2351 1.490 . S
C2356 C2358 1.395 . S
C2356 C2359 1.403 . S
H2357 C2363 0.930 . S
C2358 H2344 0.930 . S
C2358 C2356 1.395 . S
C2358 C2361 1.403 . S
C2359 C2356 1.403 . S
C2359 C2360 1.524 . S
C2359 C2363 1.400 . S
C2360 H2345 0.960 . S
C2360 H2346 0.960 . S
C2360 H2347 0.960 . S
C2360 C2359 1.524 . S
C2361 C2358 1.403 . S
C2361 C2362 1.392 . S
C2361 C2365 1.495 . S
C2362 C2361 1.392 . S
C2362 C2363 1.385 . S
C2362 C2364 1.478 . S
C2363 H2357 0.930 . S
C2363 C2359 1.400 . S
C2363 C2362 1.385 . S
C2364 C2362 1.478 . S
C2364 C2366 1.381 . S
C2364 C2370 1.383 . S
C2365 C2361 1.495 . S
C2365 H2371 0.959 . S
C2365 H2372 0.961 . S
C2365 H2373 0.960 . S
C2366 C2364 1.381 . S
C2366 C2367 1.394 . S
C2366 H2374 0.930 . S
C2367 C2366 1.394 . S
C2367 C2368 1.383 . S
C2367 H2375 0.929 . S
C2368 C2367 1.383 . S
C2368 C2369 1.377 . S
C2369 H2353 0.930 . S
C2369 C2368 1.377 . S
C2369 C2370 1.379 . S
C2370 H2354 0.931 . S
C2370 C2364 1.383 . S
C2370 C2369 1.379 . S
H2371 C2365 0.959 . S
H2372 C2365 0.961 . S
H2373 C2365 0.960 . S
H2374 C2366 0.930 . S
H2375 C2367 0.929 . S
H2376 C2384 0.929 . S
H2377 C2386 0.930 . S
H2378 C2388 0.930 . S
H2379 C2391 0.929 . S
H2380 C2394 0.930 . S
H2381 C2396 0.960 . S
H2382 C2396 0.960 . S
H2383 C2396 0.960 . S
C2384 H2376 0.929 . S
C2384 C2385 1.377 . S
C2384 C2386 1.384 . S
C2385 C2384 1.377 . S
C2385 C2391 1.390 . S
C2386 H2377 0.930 . S
C2386 C2384 1.384 . S
C2386 C2387 1.372 . S
C2387 C2386 1.372 . S
C2387 C2388 1.400 . S
C2387 C2392 1.490 . S
C2388 H2378 0.930 . S
C2388 C2387 1.400 . S
C2388 C2391 1.386 . S
H2389 C2405 0.930 . S
H2390 C2406 0.931 . S
C2391 H2379 0.929 . S
C2391 C2385 1.390 . S
C2391 C2388 1.386 . S
C2392 C2387 1.490 . S
C2392 C2394 1.395 . S
C2392 C2395 1.403 . S
H2393 C2399 0.930 . S
C2394 H2380 0.930 . S
C2394 C2392 1.395 . S
C2394 C2397 1.403 . S
C2395 C2392 1.403 . S
C2395 C2396 1.524 . S
C2395 C2399 1.400 . S
C2396 H2381 0.960 . S
C2396 H2382 0.960 . S
C2396 H2383 0.960 . S
C2396 C2395 1.524 . S
C2397 C2394 1.403 . S
C2397 C2398 1.392 . S
C2397 C2401 1.495 . S
C2398 C2397 1.392 . S
C2398 C2399 1.385 . S
C2398 C2400 1.478 . S
C2399 H2393 0.930 . S
C2399 C2395 1.400 . S
C2399 C2398 1.385 . S
C2400 C2398 1.478 . S
C2400 C2402 1.381 . S
C2400 C2406 1.383 . S
C2401 C2397 1.495 . S
C2401 H2407 0.959 . S
C2401 H2408 0.961 . S
C2401 H2409 0.960 . S
C2402 C2400 1.381 . S
C2402 C2403 1.394 . S
C2402 H2410 0.930 . S
C2403 C2402 1.394 . S
C2403 C2404 1.383 . S
C2403 H2411 0.929 . S
C2404 C2403 1.383 . S
C2404 C2405 1.377 . S
C2405 H2389 0.930 . S
C2405 C2404 1.377 . S
C2405 C2406 1.379 . S
C2406 H2390 0.931 . S
C2406 C2400 1.383 . S
C2406 C2405 1.379 . S
H2407 C2401 0.959 . S
H2408 C2401 0.961 . S
H2409 C2401 0.960 . S
H2410 C2402 0.930 . S
H2411 C2403 0.929 . S
H2412 C2420 0.929 . S
H2413 C2422 0.930 . S
H2414 C2424 0.930 . S
H2415 C2427 0.929 . S
H2416 C2430 0.930 . S
H2417 C2432 0.960 . S
H2418 C2432 0.960 . S
H2419 C2432 0.960 . S
C2420 H2412 0.929 . S
C2420 C2421 1.377 . S
C2420 C2422 1.384 . S
C2421 C2420 1.377 . S
C2421 C2427 1.390 . S
C2422 H2413 0.930 . S
C2422 C2420 1.384 . S
C2422 C2423 1.372 . S
C2423 C2422 1.372 . S
C2423 C2424 1.400 . S
C2423 C2428 1.490 . S
C2424 H2414 0.930 . S
C2424 C2423 1.400 . S
C2424 C2427 1.386 . S
H2425 C2441 0.930 . S
H2426 C2442 0.931 . S
C2427 H2415 0.929 . S
C2427 C2421 1.390 . S
C2427 C2424 1.386 . S
C2428 C2423 1.490 . S
C2428 C2430 1.395 . S
C2428 C2431 1.403 . S
H2429 C2435 0.930 . S
C2430 H2416 0.930 . S
C2430 C2428 1.395 . S
C2430 C2433 1.403 . S
C2431 C2428 1.403 . S
C2431 C2432 1.524 . S
C2431 C2435 1.400 . S
C2432 H2417 0.960 . S
C2432 H2418 0.960 . S
C2432 H2419 0.960 . S
C2432 C2431 1.524 . S
C2433 C2430 1.403 . S
C2433 C2434 1.392 . S
C2433 C2437 1.495 . S
C2434 C2433 1.392 . S
C2434 C2435 1.385 . S
C2434 C2436 1.478 . S
C2435 H2429 0.930 . S
C2435 C2431 1.400 . S
C2435 C2434 1.385 . S
C2436 C2434 1.478 . S
C2436 C2438 1.381 . S
C2436 C2442 1.383 . S
C2437 C2433 1.495 . S
C2437 H2443 0.959 . S
C2437 H2444 0.961 . S
C2437 H2445 0.960 . S
C2438 C2436 1.381 . S
C2438 C2439 1.394 . S
C2438 H2446 0.930 . S
C2439 C2438 1.394 . S
C2439 C2440 1.383 . S
C2439 H2447 0.929 . S
C2440 C2439 1.383 . S
C2440 C2441 1.377 . S
C2441 H2425 0.930 . S
C2441 C2440 1.377 . S
C2441 C2442 1.379 . S
C2442 H2426 0.931 . S
C2442 C2436 1.383 . S
C2442 C2441 1.379 . S
H2443 C2437 0.959 . S
H2444 C2437 0.961 . S
H2445 C2437 0.960 . S
H2446 C2438 0.930 . S
H2447 C2439 0.929 . S
H2448 C2456 0.929 . S
H2449 C2458 0.930 . S
H2450 C2460 0.930 . S
H2451 C2463 0.929 . S
H2452 C2466 0.930 . S
H2453 C2468 0.960 . S
H2454 C2468 0.960 . S
H2455 C2468 0.960 . S
C2456 H2448 0.929 . S
C2456 C2457 1.377 . S
C2456 C2458 1.384 . S
C2457 C2456 1.377 . S
C2457 C2463 1.390 . S
C2458 H2449 0.930 . S
C2458 C2456 1.384 . S
C2458 C2459 1.372 . S
C2459 C2458 1.372 . S
C2459 C2460 1.400 . S
C2459 C2464 1.490 . S
C2460 H2450 0.930 . S
C2460 C2459 1.400 . S
C2460 C2463 1.386 . S
H2461 C2477 0.930 . S
H2462 C2478 0.931 . S
C2463 H2451 0.929 . S
C2463 C2457 1.390 . S
C2463 C2460 1.386 . S
C2464 C2459 1.490 . S
C2464 C2466 1.395 . S
C2464 C2467 1.403 . S
H2465 C2471 0.930 . S
C2466 H2452 0.930 . S
C2466 C2464 1.395 . S
C2466 C2469 1.403 . S
C2467 C2464 1.403 . S
C2467 C2468 1.524 . S
C2467 C2471 1.400 . S
C2468 H2453 0.960 . S
C2468 H2454 0.960 . S
C2468 H2455 0.960 . S
C2468 C2467 1.524 . S
C2469 C2466 1.403 . S
C2469 C2470 1.392 . S
C2469 C2473 1.495 . S
C2470 C2469 1.392 . S
C2470 C2471 1.385 . S
C2470 C2472 1.478 . S
C2471 H2465 0.930 . S
C2471 C2467 1.400 . S
C2471 C2470 1.385 . S
C2472 C2470 1.478 . S
C2472 C2474 1.381 . S
C2472 C2478 1.383 . S
C2473 C2469 1.495 . S
C2473 H2479 0.959 . S
C2473 H2480 0.961 . S
C2473 H2481 0.960 . S
C2474 C2472 1.381 . S
C2474 C2475 1.394 . S
C2474 H2482 0.930 . S
C2475 C2474 1.394 . S
C2475 C2476 1.383 . S
C2475 H2483 0.929 . S
C2476 C2475 1.383 . S
C2476 C2477 1.377 . S
C2477 H2461 0.930 . S
C2477 C2476 1.377 . S
C2477 C2478 1.379 . S
C2478 H2462 0.931 . S
C2478 C2472 1.383 . S
C2478 C2477 1.379 . S
H2479 C2473 0.959 . S
H2480 C2473 0.961 . S
H2481 C2473 0.960 . S
H2482 C2474 0.930 . S
H2483 C2475 0.929 . S
H2484 C2492 0.929 . S
H2485 C2494 0.930 . S
H2486 C2496 0.930 . S
H2487 C2499 0.929 . S
H2488 C2502 0.930 . S
H2489 C2504 0.960 . S
H2490 C2504 0.960 . S
H2491 C2504 0.960 . S
C2492 H2484 0.929 . S
C2492 C2493 1.377 . S
C2492 C2494 1.384 . S
C2493 C2492 1.377 . S
C2493 C2499 1.390 . S
C2494 H2485 0.930 . S
C2494 C2492 1.384 . S
C2494 C2495 1.372 . S
C2495 C2494 1.372 . S
C2495 C2496 1.400 . S
C2495 C2500 1.490 . S
C2496 H2486 0.930 . S
C2496 C2495 1.400 . S
C2496 C2499 1.386 . S
H2497 C2513 0.930 . S
H2498 C2514 0.931 . S
C2499 H2487 0.929 . S
C2499 C2493 1.390 . S
C2499 C2496 1.386 . S
C2500 C2495 1.490 . S
C2500 C2502 1.395 . S
C2500 C2503 1.403 . S
H2501 C2507 0.930 . S
C2502 H2488 0.930 . S
C2502 C2500 1.395 . S
C2502 C2505 1.403 . S
C2503 C2500 1.403 . S
C2503 C2504 1.524 . S
C2503 C2507 1.400 . S
C2504 H2489 0.960 . S
C2504 H2490 0.960 . S
C2504 H2491 0.960 . S
C2504 C2503 1.524 . S
C2505 C2502 1.403 . S
C2505 C2506 1.392 . S
C2505 C2509 1.495 . S
C2506 C2505 1.392 . S
C2506 C2507 1.385 . S
C2506 C2508 1.478 . S
C2507 H2501 0.930 . S
C2507 C2503 1.400 . S
C2507 C2506 1.385 . S
C2508 C2506 1.478 . S
C2508 C2510 1.381 . S
C2508 C2514 1.383 . S
C2509 C2505 1.495 . S
C2509 H2515 0.959 . S
C2509 H2516 0.961 . S
C2509 H2517 0.960 . S
C2510 C2508 1.381 . S
C2510 C2511 1.394 . S
C2510 H2518 0.930 . S
C2511 C2510 1.394 . S
C2511 C2512 1.383 . S
C2511 H2519 0.929 . S
C2512 C2511 1.383 . S
C2512 C2513 1.377 . S
C2513 H2497 0.930 . S
C2513 C2512 1.377 . S
C2513 C2514 1.379 . S
C2514 H2498 0.931 . S
C2514 C2508 1.383 . S
C2514 C2513 1.379 . S
H2515 C2509 0.959 . S
H2516 C2509 0.961 . S
H2517 C2509 0.960 . S
H2518 C2510 0.930 . S
H2519 C2511 0.929 . S
H2520 C2528 0.929 . S
H2521 C2530 0.930 . S
H2522 C2532 0.930 . S
H2523 C2535 0.929 . S
H2524 C2538 0.930 . S
H2525 C2540 0.960 . S
H2526 C2540 0.960 . S
H2527 C2540 0.960 . S
C2528 H2520 0.929 . S
C2528 C2529 1.377 . S
C2528 C2530 1.384 . S
C2529 C2528 1.377 . S
C2529 C2535 1.390 . S
C2530 H2521 0.930 . S
C2530 C2528 1.384 . S
C2530 C2531 1.372 . S
C2531 C2530 1.372 . S
C2531 C2532 1.400 . S
C2531 C2536 1.490 . S
C2532 H2522 0.930 . S
C2532 C2531 1.400 . S
C2532 C2535 1.386 . S
H2533 C2549 0.930 . S
H2534 C2550 0.931 . S
C2535 H2523 0.929 . S
C2535 C2529 1.390 . S
C2535 C2532 1.386 . S
C2536 C2531 1.490 . S
C2536 C2538 1.395 . S
C2536 C2539 1.403 . S
H2537 C2543 0.930 . S
C2538 H2524 0.930 . S
C2538 C2536 1.395 . S
C2538 C2541 1.403 . S
C2539 C2536 1.403 . S
C2539 C2540 1.524 . S
C2539 C2543 1.400 . S
C2540 H2525 0.960 . S
C2540 H2526 0.960 . S
C2540 H2527 0.960 . S
C2540 C2539 1.524 . S
C2541 C2538 1.403 . S
C2541 C2542 1.392 . S
C2541 C2545 1.495 . S
C2542 C2541 1.392 . S
C2542 C2543 1.385 . S
C2542 C2544 1.478 . S
C2543 H2537 0.930 . S
C2543 C2539 1.400 . S
C2543 C2542 1.385 . S
C2544 C2542 1.478 . S
C2544 C2546 1.381 . S
C2544 C2550 1.383 . S
C2545 C2541 1.495 . S
C2545 H2551 0.959 . S
C2545 H2552 0.961 . S
C2545 H2553 0.960 . S
C2546 C2544 1.381 . S
C2546 C2547 1.394 . S
C2546 H2554 0.930 . S
C2547 C2546 1.394 . S
C2547 C2548 1.383 . S
C2547 H2555 0.929 . S
C2548 C2547 1.383 . S
C2548 C2549 1.377 . S
C2549 H2533 0.930 . S
C2549 C2548 1.377 . S
C2549 C2550 1.379 . S
C2550 H2534 0.931 . S
C2550 C2544 1.383 . S
C2550 C2549 1.379 . S
H2551 C2545 0.959 . S
H2552 C2545 0.961 . S
H2553 C2545 0.960 . S
H2554 C2546 0.930 . S
H2555 C2547 0.929 . S
H2556 C2564 0.929 . S
H2557 C2566 0.930 . S
H2558 C2568 0.930 . S
H2559 C2571 0.929 . S
H2560 C2574 0.930 . S
H2561 C2576 0.960 . S
H2562 C2576 0.960 . S
H2563 C2576 0.960 . S
C2564 H2556 0.929 . S
C2564 C2565 1.377 . S
C2564 C2566 1.384 . S
C2565 C2564 1.377 . S
C2565 C2571 1.390 . S
C2566 H2557 0.930 . S
C2566 C2564 1.384 . S
C2566 C2567 1.372 . S
C2567 C2566 1.372 . S
C2567 C2568 1.400 . S
C2567 C2572 1.490 . S
C2568 H2558 0.930 . S
C2568 C2567 1.400 . S
C2568 C2571 1.386 . S
H2569 C2585 0.930 . S
H2570 C2586 0.931 . S
C2571 H2559 0.929 . S
C2571 C2565 1.390 . S
C2571 C2568 1.386 . S
C2572 C2567 1.490 . S
C2572 C2574 1.395 . S
C2572 C2575 1.403 . S
H2573 C2579 0.930 . S
C2574 H2560 0.930 . S
C2574 C2572 1.395 . S
C2574 C2577 1.403 . S
C2575 C2572 1.403 . S
C2575 C2576 1.524 . S
C2575 C2579 1.400 . S
C2576 H2561 0.960 . S
C2576 H2562 0.960 . S
C2576 H2563 0.960 . S
C2576 C2575 1.524 . S
C2577 C2574 1.403 . S
C2577 C2578 1.392 . S
C2577 C2581 1.495 . S
C2578 C2577 1.392 . S
C2578 C2579 1.385 . S
C2578 C2580 1.478 . S
C2579 H2573 0.930 . S
C2579 C2575 1.400 . S
C2579 C2578 1.385 . S
C2580 C2578 1.478 . S
C2580 C2582 1.381 . S
C2580 C2586 1.383 . S
C2581 C2577 1.495 . S
C2581 H2587 0.959 . S
C2581 H2588 0.961 . S
C2581 H2589 0.960 . S
C2582 C2580 1.381 . S
C2582 C2583 1.394 . S
C2582 H2590 0.930 . S
C2583 C2582 1.394 . S
C2583 C2584 1.383 . S
C2583 H2591 0.929 . S
C2584 C2583 1.383 . S
C2584 C2585 1.377 . S
C2585 H2569 0.930 . S
C2585 C2584 1.377 . S
C2585 C2586 1.379 . S
C2586 H2570 0.931 . S
C2586 C2580 1.383 . S
C2586 C2585 1.379 . S
H2587 C2581 0.959 . S
H2588 C2581 0.961 . S
H2589 C2581 0.960 . S
H2590 C2582 0.930 . S
H2591 C2583 0.929 . S
C892 C689 1.393 . S
C873 C74 1.327 . S
C928 C694 0.531 . S
C909 C142 0.936 . S
C964 C695 1.398 . S
C945 C231 1.334 . S
C981 C322 1.345 . S
C1000 C699 1.430 . S
C1017 C406 0.935 . S
C1036 C702 0.657 . S
C1072 C703 1.407 . S
C1053 C494 1.337 . S
C1089 C562 1.334 . S
C1108 C680 1.429 . S
C1125 C651 1.326 . S
C1144 C696 1.428 . S
C1180 C734 1.440 . S
C1161 C58 1.345 . S
C1197 C151 1.393 . S
C1216 C760 1.396 . S
C1252 C712 2.382 . S
C1233 C224 2.341 . S
C1288 C767 1.292 . S
C1269 C315 1.274 . S
C1305 C399 1.290 . S
C1324 C721 1.334 . S
C1360 C763 1.422 . S
C1341 C478 1.346 . S
C1377 C571 1.381 . S
C1396 C727 1.456 . S
C1413 C644 2.318 . S
C1432 C758 2.407 . S
C1449 C67 2.322 . S
C1468 C766 2.391 . S
C1485 C392 1.392 . S
C1504 C753 1.422 . S
C1540 C731 2.394 . S
C1521 C487 2.337 . S
C1576 C759 1.282 . S
C1557 C578 1.287 . S
C1593 C658 1.358 . S
C1612 C726 1.416 . S
C1629 C238 1.343 . S
C1648 C744 1.407 . S
C1684 C735 1.421 . S
C1665 C308 1.379 . S
C1701 C158 1.296 . S
C1720 C728 1.300 . S
C1737 C662 1.313 . S
C1756 C790 1.328 . S
C1773 C394 0.944 . S
C1792 C785 0.507 . S
C1828 C799 1.321 . S
C1809 C483 1.305 . S
C1864 C776 1.385 . S
C1845 C574 1.322 . S
C1881 C154 0.971 . S
C1900 C792 0.498 . S
C1936 C791 1.305 . S
C1917 C242 1.303 . S
C1953 C310 1.303 . S
C1972 C795 1.383 . S
C1989 C63 1.301 . S
C2008 C798 1.315 . S
C2025 C646 1.356 . S
C2044 C824 1.471 . S
C2080 C840 1.418 . S
C2061 C403 1.415 . S
C2097 C476 2.346 . S
C2116 C822 2.430 . S
C2133 C567 1.291 . S
C2152 C855 1.264 . S
C2188 C831 1.291 . S
C2169 C147 1.280 . S
C2205 C226 1.369 . S
C2224 C849 1.454 . S
C2260 C827 1.426 . S
C2241 C319 1.359 . S
C2296 C862 2.420 . S
C2277 C56 2.353 . S
C2332 C854 2.420 . S
C2313 C655 2.364 . S
C2349 C140 1.409 . S
C2368 C859 1.449 . S
C2385 C235 2.340 . S
C2404 C830 2.458 . S
C2440 C863 1.323 . S
C2421 C326 1.293 . S
C2457 C70 1.365 . S
C2476 C817 1.445 . S
C2493 C490 1.373 . S
C2512 C856 1.459 . S
C2548 C808 1.377 . S
C2529 C560 1.371 . S
C2584 C823 1.290 . S
C2565 C410 1.275 . S
