# Generated by pormake.
# Topology gar, (4,6)-cn, num edge types: 1
# Building blocks:
#     Node 0, Type 0, BuildingBlock: GALJAG_clean_sbu_0, # of connection points: 4
#     Node 1, Type 0, BuildingBlock: GALJAG_clean_sbu_0, # of connection points: 4
#     Node 2, Type 0, BuildingBlock: GALJAG_clean_sbu_0, # of connection points: 4
#     Node 3, Type 0, BuildingBlock: GALJAG_clean_sbu_0, # of connection points: 4
#     Node 4, Type 0, BuildingBlock: GALJAG_clean_sbu_0, # of connection points: 4
#     Node 5, Type 0, BuildingBlock: GALJAG_clean_sbu_0, # of connection points: 4
#     Node 6, Type 0, BuildingBlock: GALJAG_clean_sbu_0, # of connection points: 4
#     Node 7, Type 0, BuildingBlock: GALJAG_clean_sbu_0, # of connection points: 4
#     Node 8, Type 0, BuildingBlock: GALJAG_clean_sbu_0, # of connection points: 4
#     Node 9, Type 0, BuildingBlock: GALJAG_clean_sbu_0, # of connection points: 4
#     Node 10, Type 0, BuildingBlock: GALJAG_clean_sbu_0, # of connection points: 4
#     Node 11, Type 0, BuildingBlock: GALJAG_clean_sbu_0, # of connection points: 4
#     Node 12, Type 0, BuildingBlock: GALJAG_clean_sbu_0, # of connection points: 4
#     Node 13, Type 0, BuildingBlock: GALJAG_clean_sbu_0, # of connection points: 4
#     Node 14, Type 0, BuildingBlock: GALJAG_clean_sbu_0, # of connection points: 4
#     Node 15, Type 0, BuildingBlock: GALJAG_clean_sbu_0, # of connection points: 4
#     Node 16, Type 0, BuildingBlock: GALJAG_clean_sbu_0, # of connection points: 4
#     Node 17, Type 0, BuildingBlock: GALJAG_clean_sbu_0, # of connection points: 4
#     Node 18, Type 0, BuildingBlock: GALJAG_clean_sbu_0, # of connection points: 4
#     Node 19, Type 0, BuildingBlock: GALJAG_clean_sbu_0, # of connection points: 4
#     Node 20, Type 0, BuildingBlock: GALJAG_clean_sbu_0, # of connection points: 4
#     Node 21, Type 0, BuildingBlock: GALJAG_clean_sbu_0, # of connection points: 4
#     Node 22, Type 0, BuildingBlock: GALJAG_clean_sbu_0, # of connection points: 4
#     Node 23, Type 0, BuildingBlock: GALJAG_clean_sbu_0, # of connection points: 4
#     Node 24, Type 1, BuildingBlock: BETGAK_clean_sbu_0, # of connection points: 6
#     Node 25, Type 1, BuildingBlock: BETGAK_clean_sbu_0, # of connection points: 6
#     Node 26, Type 1, BuildingBlock: BETGAK_clean_sbu_0, # of connection points: 6
#     Node 27, Type 1, BuildingBlock: BETGAK_clean_sbu_0, # of connection points: 6
#     Node 28, Type 1, BuildingBlock: BETGAK_clean_sbu_0, # of connection points: 6
#     Node 29, Type 1, BuildingBlock: BETGAK_clean_sbu_0, # of connection points: 6
#     Node 30, Type 1, BuildingBlock: BETGAK_clean_sbu_0, # of connection points: 6
#     Node 31, Type 1, BuildingBlock: BETGAK_clean_sbu_0, # of connection points: 6
#     Node 32, Type 1, BuildingBlock: BETGAK_clean_sbu_0, # of connection points: 6
#     Node 33, Type 1, BuildingBlock: BETGAK_clean_sbu_0, # of connection points: 6
#     Node 34, Type 1, BuildingBlock: BETGAK_clean_sbu_0, # of connection points: 6
#     Node 35, Type 1, BuildingBlock: BETGAK_clean_sbu_0, # of connection points: 6
#     Node 36, Type 1, BuildingBlock: BETGAK_clean_sbu_0, # of connection points: 6
#     Node 37, Type 1, BuildingBlock: BETGAK_clean_sbu_0, # of connection points: 6
#     Node 38, Type 1, BuildingBlock: BETGAK_clean_sbu_0, # of connection points: 6
#     Node 39, Type 1, BuildingBlock: BETGAK_clean_sbu_0, # of connection points: 6
#     Edge 40, Type (0, 1), BuildingBlock: AJUNOK_clean_linker_0, # of connection points: 2
#     Edge 41, Type (0, 1), BuildingBlock: AJUNOK_clean_linker_0, # of connection points: 2
#     Edge 42, Type (0, 1), BuildingBlock: AJUNOK_clean_linker_0, # of connection points: 2
#     Edge 43, Type (0, 1), BuildingBlock: AJUNOK_clean_linker_0, # of connection points: 2
#     Edge 44, Type (0, 1), BuildingBlock: AJUNOK_clean_linker_0, # of connection points: 2
#     Edge 45, Type (0, 1), BuildingBlock: AJUNOK_clean_linker_0, # of connection points: 2
#     Edge 46, Type (0, 1), BuildingBlock: AJUNOK_clean_linker_0, # of connection points: 2
#     Edge 47, Type (0, 1), BuildingBlock: AJUNOK_clean_linker_0, # of connection points: 2
#     Edge 48, Type (0, 1), BuildingBlock: AJUNOK_clean_linker_0, # of connection points: 2
#     Edge 49, Type (0, 1), BuildingBlock: AJUNOK_clean_linker_0, # of connection points: 2
#     Edge 50, Type (0, 1), BuildingBlock: AJUNOK_clean_linker_0, # of connection points: 2
#     Edge 51, Type (0, 1), BuildingBlock: AJUNOK_clean_linker_0, # of connection points: 2
#     Edge 52, Type (0, 1), BuildingBlock: AJUNOK_clean_linker_0, # of connection points: 2
#     Edge 53, Type (0, 1), BuildingBlock: AJUNOK_clean_linker_0, # of connection points: 2
#     Edge 54, Type (0, 1), BuildingBlock: AJUNOK_clean_linker_0, # of connection points: 2
#     Edge 55, Type (0, 1), BuildingBlock: AJUNOK_clean_linker_0, # of connection points: 2
#     Edge 56, Type (0, 1), BuildingBlock: AJUNOK_clean_linker_0, # of connection points: 2
#     Edge 57, Type (0, 1), BuildingBlock: AJUNOK_clean_linker_0, # of connection points: 2
#     Edge 58, Type (0, 1), BuildingBlock: AJUNOK_clean_linker_0, # of connection points: 2
#     Edge 59, Type (0, 1), BuildingBlock: AJUNOK_clean_linker_0, # of connection points: 2
#     Edge 60, Type (0, 1), BuildingBlock: AJUNOK_clean_linker_0, # of connection points: 2
#     Edge 61, Type (0, 1), BuildingBlock: AJUNOK_clean_linker_0, # of connection points: 2
#     Edge 62, Type (0, 1), BuildingBlock: AJUNOK_clean_linker_0, # of connection points: 2
#     Edge 63, Type (0, 1), BuildingBlock: AJUNOK_clean_linker_0, # of connection points: 2
#     Edge 64, Type (0, 1), BuildingBlock: AJUNOK_clean_linker_0, # of connection points: 2
#     Edge 65, Type (0, 1), BuildingBlock: AJUNOK_clean_linker_0, # of connection points: 2
#     Edge 66, Type (0, 1), BuildingBlock: AJUNOK_clean_linker_0, # of connection points: 2
#     Edge 67, Type (0, 1), BuildingBlock: AJUNOK_clean_linker_0, # of connection points: 2
#     Edge 68, Type (0, 1), BuildingBlock: AJUNOK_clean_linker_0, # of connection points: 2
#     Edge 69, Type (0, 1), BuildingBlock: AJUNOK_clean_linker_0, # of connection points: 2
#     Edge 70, Type (0, 1), BuildingBlock: AJUNOK_clean_linker_0, # of connection points: 2
#     Edge 71, Type (0, 1), BuildingBlock: AJUNOK_clean_linker_0, # of connection points: 2
#     Edge 72, Type (0, 1), BuildingBlock: AJUNOK_clean_linker_0, # of connection points: 2
#     Edge 73, Type (0, 1), BuildingBlock: AJUNOK_clean_linker_0, # of connection points: 2
#     Edge 74, Type (0, 1), BuildingBlock: AJUNOK_clean_linker_0, # of connection points: 2
#     Edge 75, Type (0, 1), BuildingBlock: AJUNOK_clean_linker_0, # of connection points: 2
#     Edge 76, Type (0, 1), BuildingBlock: AJUNOK_clean_linker_0, # of connection points: 2
#     Edge 77, Type (0, 1), BuildingBlock: AJUNOK_clean_linker_0, # of connection points: 2
#     Edge 78, Type (0, 1), BuildingBlock: AJUNOK_clean_linker_0, # of connection points: 2
#     Edge 79, Type (0, 1), BuildingBlock: AJUNOK_clean_linker_0, # of connection points: 2
#     Edge 80, Type (0, 1), BuildingBlock: AJUNOK_clean_linker_0, # of connection points: 2
#     Edge 81, Type (0, 1), BuildingBlock: AJUNOK_clean_linker_0, # of connection points: 2
#     Edge 82, Type (0, 1), BuildingBlock: AJUNOK_clean_linker_0, # of connection points: 2
#     Edge 83, Type (0, 1), BuildingBlock: AJUNOK_clean_linker_0, # of connection points: 2
#     Edge 84, Type (0, 1), BuildingBlock: AJUNOK_clean_linker_0, # of connection points: 2
#     Edge 85, Type (0, 1), BuildingBlock: AJUNOK_clean_linker_0, # of connection points: 2
#     Edge 86, Type (0, 1), BuildingBlock: AJUNOK_clean_linker_0, # of connection points: 2
#     Edge 87, Type (0, 1), BuildingBlock: AJUNOK_clean_linker_0, # of connection points: 2
#     Edge 88, Type (0, 1), BuildingBlock: AJUNOK_clean_linker_0, # of connection points: 2
#     Edge 89, Type (0, 1), BuildingBlock: AJUNOK_clean_linker_0, # of connection points: 2
#     Edge 90, Type (0, 1), BuildingBlock: AJUNOK_clean_linker_0, # of connection points: 2
#     Edge 91, Type (0, 1), BuildingBlock: AJUNOK_clean_linker_0, # of connection points: 2
#     Edge 92, Type (0, 1), BuildingBlock: AJUNOK_clean_linker_0, # of connection points: 2
#     Edge 93, Type (0, 1), BuildingBlock: AJUNOK_clean_linker_0, # of connection points: 2
#     Edge 94, Type (0, 1), BuildingBlock: AJUNOK_clean_linker_0, # of connection points: 2
#     Edge 95, Type (0, 1), BuildingBlock: AJUNOK_clean_linker_0, # of connection points: 2
#     Edge 96, Type (0, 1), BuildingBlock: AJUNOK_clean_linker_0, # of connection points: 2
#     Edge 97, Type (0, 1), BuildingBlock: AJUNOK_clean_linker_0, # of connection points: 2
#     Edge 98, Type (0, 1), BuildingBlock: AJUNOK_clean_linker_0, # of connection points: 2
#     Edge 99, Type (0, 1), BuildingBlock: AJUNOK_clean_linker_0, # of connection points: 2
#     Edge 100, Type (0, 1), BuildingBlock: AJUNOK_clean_linker_0, # of connection points: 2
#     Edge 101, Type (0, 1), BuildingBlock: AJUNOK_clean_linker_0, # of connection points: 2
#     Edge 102, Type (0, 1), BuildingBlock: AJUNOK_clean_linker_0, # of connection points: 2
#     Edge 103, Type (0, 1), BuildingBlock: AJUNOK_clean_linker_0, # of connection points: 2
#     Edge 104, Type (0, 1), BuildingBlock: AJUNOK_clean_linker_0, # of connection points: 2
#     Edge 105, Type (0, 1), BuildingBlock: AJUNOK_clean_linker_0, # of connection points: 2
#     Edge 106, Type (0, 1), BuildingBlock: AJUNOK_clean_linker_0, # of connection points: 2
#     Edge 107, Type (0, 1), BuildingBlock: AJUNOK_clean_linker_0, # of connection points: 2
#     Edge 108, Type (0, 1), BuildingBlock: AJUNOK_clean_linker_0, # of connection points: 2
#     Edge 109, Type (0, 1), BuildingBlock: AJUNOK_clean_linker_0, # of connection points: 2
#     Edge 110, Type (0, 1), BuildingBlock: AJUNOK_clean_linker_0, # of connection points: 2
#     Edge 111, Type (0, 1), BuildingBlock: AJUNOK_clean_linker_0, # of connection points: 2
#     Edge 112, Type (0, 1), BuildingBlock: AJUNOK_clean_linker_0, # of connection points: 2
#     Edge 113, Type (0, 1), BuildingBlock: AJUNOK_clean_linker_0, # of connection points: 2
#     Edge 114, Type (0, 1), BuildingBlock: AJUNOK_clean_linker_0, # of connection points: 2
#     Edge 115, Type (0, 1), BuildingBlock: AJUNOK_clean_linker_0, # of connection points: 2
#     Edge 116, Type (0, 1), BuildingBlock: AJUNOK_clean_linker_0, # of connection points: 2
#     Edge 117, Type (0, 1), BuildingBlock: AJUNOK_clean_linker_0, # of connection points: 2
#     Edge 118, Type (0, 1), BuildingBlock: AJUNOK_clean_linker_0, # of connection points: 2
#     Edge 119, Type (0, 1), BuildingBlock: AJUNOK_clean_linker_0, # of connection points: 2
#     Edge 120, Type (0, 1), BuildingBlock: AJUNOK_clean_linker_0, # of connection points: 2
#     Edge 121, Type (0, 1), BuildingBlock: AJUNOK_clean_linker_0, # of connection points: 2
#     Edge 122, Type (0, 1), BuildingBlock: AJUNOK_clean_linker_0, # of connection points: 2
#     Edge 123, Type (0, 1), BuildingBlock: AJUNOK_clean_linker_0, # of connection points: 2
#     Edge 124, Type (0, 1), BuildingBlock: AJUNOK_clean_linker_0, # of connection points: 2
#     Edge 125, Type (0, 1), BuildingBlock: AJUNOK_clean_linker_0, # of connection points: 2
#     Edge 126, Type (0, 1), BuildingBlock: AJUNOK_clean_linker_0, # of connection points: 2
#     Edge 127, Type (0, 1), BuildingBlock: AJUNOK_clean_linker_0, # of connection points: 2
#     Edge 128, Type (0, 1), BuildingBlock: AJUNOK_clean_linker_0, # of connection points: 2
#     Edge 129, Type (0, 1), BuildingBlock: AJUNOK_clean_linker_0, # of connection points: 2
#     Edge 130, Type (0, 1), BuildingBlock: AJUNOK_clean_linker_0, # of connection points: 2
#     Edge 131, Type (0, 1), BuildingBlock: AJUNOK_clean_linker_0, # of connection points: 2
#     Edge 132, Type (0, 1), BuildingBlock: AJUNOK_clean_linker_0, # of connection points: 2
#     Edge 133, Type (0, 1), BuildingBlock: AJUNOK_clean_linker_0, # of connection points: 2
#     Edge 134, Type (0, 1), BuildingBlock: AJUNOK_clean_linker_0, # of connection points: 2
#     Edge 135, Type (0, 1), BuildingBlock: AJUNOK_clean_linker_0, # of connection points: 2
# Relax obj value: 0.264
# Max RMSD: 0.341
# Mean RMSD: 0.185
data_MOF--net-gar--node1-GALJAG_clean_sbu_0--node2-BETGAK_clean_sbu_0--edge1-AJUNOK_clean_linker_0
_symmetry_space_group_name_H-M    P1
_symmetry_Int_Tables_number       1
_symmetry_cell_setting            triclinic
loop_
_symmetry_equiv_pos_as_xyz
'x, y, z'
_cell_length_a     47.973215
_cell_length_b     41.61383
_cell_length_c     41.672472
_cell_angle_alpha  99.037833
_cell_angle_beta   95.590034
_cell_angle_gamma 101.6647
loop_
_atom_site_label
_atom_site_type_symbol
_atom_site_fract_x
_atom_site_fract_y
_atom_site_fract_z
_atom_type_partial_charge
In0 In 0.16465 0.39477 0.41079 0.0
O1 O 0.18108 0.36826 0.36873 0.0
O2 O 0.21107 0.40438 0.40459 0.0
C3 C 0.11555 0.39213 0.37653 0.0
C4 C 0.15286 0.34611 0.44406 0.0
C5 C 0.1686 0.45652 0.44047 0.0
O6 O 0.1384 0.39424 0.36347 0.0
O7 O 0.11781 0.3909 0.40674 0.0
O8 O 0.1734 0.4342 0.45616 0.0
O9 O 0.16435 0.44828 0.40976 0.0
C10 C 0.20665 0.38355 0.37818 0.0
O11 O 0.17376 0.3706 0.45429 0.0
O12 O 0.13928 0.34578 0.41666 0.0
In13 In 0.03395 0.7803 0.6861 0.0
O14 O 1.02053 0.80221 0.64235 0.0
O15 O 0.05769 0.82832 0.67641 0.0
C16 C 0.03426 0.72375 0.64646 0.0
C17 C 0.08316 0.79836 0.72543 0.0
C18 C 0.99039 0.78663 0.71869 0.0
O19 O 1.01812 0.74278 0.63966 0.0
O20 O 0.0484 0.73191 0.67464 0.0
O21 O 0.99987 0.76035 0.71617 0.0
O22 O 1.00271 0.80885 0.70443 0.0
C23 C 0.04166 0.82685 0.65028 0.0
O24 O 0.06001 0.78681 0.73591 0.0
O25 O 0.08104 0.79995 0.6954 0.0
In26 In 0.66865 0.90016 0.90906 0.0
O27 O 0.69126 0.89407 0.86482 0.0
O28 O 0.71515 0.89587 0.911 0.0
C29 C 0.624 0.89552 0.86529 0.0
C30 C 0.65463 0.85143 0.94213 0.0
C31 C 0.6656 0.95596 0.94839 0.0
O32 O 0.64047 0.92294 0.8787 0.0
O33 O 0.63031 0.8698 0.87395 0.0
O34 O 0.65975 0.92756 0.95604 0.0
O35 O 0.67495 0.95687 0.92125 0.0
C36 C 0.71448 0.89255 0.8804 0.0
O37 O 0.67643 0.87498 0.95178 0.0
O38 O 0.64038 0.85221 0.91528 0.0
In39 In 0.52666 0.28069 0.18391 0.0
O40 O 0.50976 0.24679 0.13597 0.0
O41 O 0.52576 0.22611 0.1758 0.0
C42 C 0.54529 0.32853 0.15193 0.0
C43 C 0.48085 0.28797 0.21101 0.0
C44 C 0.57753 0.28799 0.21799 0.0
O45 O 0.53166 0.29995 0.13755 0.0
O46 O 0.54768 0.33382 0.18284 0.0
O47 O 0.5575 0.29774 0.23149 0.0
O48 O 0.57105 0.27372 0.18858 0.0
C49 C 0.51676 0.22198 0.14566 0.0
O50 O 0.4957 0.26817 0.21937 0.0
O51 O 0.4888 0.30284 0.18834 0.0
In52 In 0.15013 0.87043 0.15714 0.0
O53 O 0.15818 0.8275 0.11834 0.0
O54 O 0.12809 0.81594 0.15131 0.0
C55 C 0.14434 0.9208 0.12214 0.0
C56 C 0.10275 0.86643 0.188 0.0
C57 C 0.20091 0.87384 0.19639 0.0
O58 O 0.13352 0.89038 0.11137 0.0
O59 O 0.15991 0.92573 0.14935 0.0
O60 O 0.17974 0.88366 0.20707 0.0
O61 O 0.19701 0.86346 0.1658 0.0
C62 C 0.14012 0.80524 0.12762 0.0
O63 O 0.12618 0.88645 0.20052 0.0
O64 O 0.10343 0.84946 0.16047 0.0
In65 In 0.54462 0.81682 0.45577 0.0
O66 O 0.56826 0.8053 0.41097 0.0
O67 O 0.59277 0.83246 0.45565 0.0
C68 C 0.49204 0.81763 0.42172 0.0
C69 C 0.55077 0.76205 0.4835 0.0
C70 C 0.55742 0.88131 0.48763 0.0
O71 O 0.51499 0.81775 0.40927 0.0
O72 O 0.49466 0.81459 0.45153 0.0
O73 O 0.54413 0.85796 0.50034 0.0
O74 O 0.56377 0.87184 0.45963 0.0
C75 C 0.59284 0.8201 0.42605 0.0
O76 O 0.55477 0.79112 0.5001 0.0
O77 O 0.54152 0.76027 0.45372 0.0
In78 In 0.65158 0.37058 0.65485 0.0
O79 O 0.65742 0.32808 0.61392 0.0
O80 O 0.63187 0.31587 0.6509 0.0
C81 C 0.64567 0.42173 0.62113 0.0
C82 C 0.60416 0.36884 0.68524 0.0
C83 C 0.70181 0.37395 0.69497 0.0
O84 O 0.66418 0.42542 0.64587 0.0
O85 O 0.63157 0.39213 0.61223 0.0
O86 O 0.67832 0.37674 0.70521 0.0
O87 O 0.70058 0.3709 0.66412 0.0
C88 C 0.6414 0.30549 0.62515 0.0
O89 O 0.62839 0.38653 0.69865 0.0
O90 O 0.6042 0.35302 0.65692 0.0
In91 In 0.04451 0.31667 0.95419 0.0
O92 O 0.05317 0.29166 0.99915 0.0
O93 O 0.04175 0.25989 0.95301 0.0
C94 C 0.05596 0.38119 0.98589 0.0
C95 C 0.09249 0.31968 0.92363 0.0
C96 C 0.99014 0.31476 0.92273 0.0
O97 O 0.05548 0.35727 1.00133 0.0
O98 O 0.0501 0.37252 0.95527 0.0
O99 O 1.01264 0.31723 0.90905 0.0
O100 O 0.99432 0.31088 0.95226 0.0
C101 C 0.05007 0.26243 0.98323 0.0
O102 O 0.0677 0.30549 0.90898 0.0
O103 O 0.09287 0.33227 0.95319 0.0
In104 In 0.48199 0.08049 0.34619 0.0
O105 O 0.50963 0.08293 0.3066 0.0
O106 O 0.47729 1.03827 0.30507 0.0
C107 C 0.52579 0.09882 0.39185 0.0
C108 C 0.45138 0.11657 0.31965 0.0
C109 C 0.44575 1.03843 0.37089 0.0
O110 O 0.52547 0.07883 0.36581 0.0
O111 O 0.50433 0.11195 0.39409 0.0
O112 O 0.44381 0.06835 0.37247 0.0
O113 O 0.46775 1.03113 0.36016 0.0
C114 C 0.49745 0.05361 0.29231 0.0
O115 O 0.44502 0.08534 0.31436 0.0
O116 O 0.47454 0.13045 0.33832 0.0
In117 In 0.30945 0.24272 0.52951 0.0
O118 O 0.32623 0.29091 0.56957 0.0
O119 O 0.29939 0.24929 0.58237 0.0
C120 C 0.32061 0.27171 0.47489 0.0
C121 C 0.35203 0.2103 0.539 0.0
C122 C 0.25623 0.20065 0.52214 0.0
O123 O 0.29642 0.26819 0.48517 0.0
O124 O 0.33885 0.26244 0.49286 0.0
O125 O 0.27867 0.19062 0.51588 0.0
O126 O 0.26033 0.23199 0.53041 0.0
C127 C 0.31446 0.27832 0.592 0.0
O128 O 0.3312 0.19889 0.51635 0.0
O129 O 0.35083 0.23719 0.55683 0.0
In130 In 0.2226 0.06964 0.8107 0.0
O131 O 0.18253 0.04924 0.76483 0.0
O132 O 0.21478 0.08779 0.75852 0.0
C133 C 0.19126 0.07278 0.87067 0.0
C134 C 0.2538 1.01214 0.80599 0.0
C135 C 0.25715 0.13728 0.81389 0.0
O136 O 0.17995 0.06112 0.84118 0.0
O137 O 0.21808 0.0826 0.87032 0.0
O138 O 0.26721 0.11119 0.81369 0.0
O139 O 0.2302 0.12977 0.81398 0.0
C140 C 0.19085 0.06917 0.74569 0.0
O141 O 0.26485 0.04278 0.81743 0.0
O142 O 0.22733 1.01012 0.7967 0.0
In143 In 0.3703 0.99268 1.02822 0.0
O144 O 0.36185 0.95991 0.06498 0.0
O145 O 0.39541 1.00451 0.07786 0.0
C146 C 0.35405 0.94877 0.97429 0.0
C147 C 0.33143 1.02749 0.04165 0.0
C148 C 0.4233 1.00778 1.01436 0.0
O149 O 0.35456 0.94016 1.00201 0.0
O150 O 0.35901 0.97975 0.97422 0.0
O151 O 0.40642 1.02734 1.01134 0.0
O152 O 0.41306 0.98133 1.02426 0.0
C153 C 0.38185 0.97837 0.08576 0.0
O154 O 0.35729 0.04161 0.04138 0.0
O155 O 0.32533 0.99622 0.03329 0.0
In156 In 0.3879 0.43568 0.07275 0.0
O157 O 0.37889 0.38968 0.09896 0.0
O158 O 0.38708 0.43746 0.12833 0.0
C159 C 0.38155 0.39933 1.01055 0.0
C160 C 0.34316 0.46611 0.06785 0.0
C161 C 0.44058 0.47736 0.07466 0.0
O162 O 0.36351 0.39343 1.03023 0.0
O163 O 0.40355 0.42157 1.02309 0.0
O164 O 0.41682 0.48537 0.06868 0.0
O165 O 0.4381 0.44821 0.08115 0.0
C166 C 0.38018 0.40649 0.12733 0.0
O167 O 0.36422 0.47673 0.09015 0.0
O168 O 0.34498 0.44088 0.04797 0.0
In169 In 0.82452 0.17815 0.07444 0.0
O170 O 0.85244 0.14195 0.08098 0.0
O171 O 0.86159 0.17463 0.04686 0.0
C172 C 0.7721 0.14294 0.07485 0.0
C173 C 0.84054 0.22406 0.12734 0.0
C174 C 0.80243 0.20859 1.0316 0.0
O175 O 0.78654 0.13705 0.0518 0.0
O176 O 0.78575 0.16358 0.09954 0.0
O177 O 0.81616 0.22414 0.05874 0.0
O178 O 0.80193 0.17787 1.02507 0.0
C179 C 0.86774 0.15119 0.05973 0.0
O180 O 0.84487 0.23013 0.0993 0.0
O181 O 0.83038 0.19384 0.12878 0.0
In182 In 0.22411 0.6056 0.26602 0.0
O183 O 0.25509 0.57321 0.26321 0.0
O184 O 0.22231 0.5643 0.29464 0.0
C185 C 0.26602 0.65066 0.2523 0.0
C186 C 0.1783 0.5802 0.22244 0.0
C187 C 0.21631 0.64804 0.31699 0.0
O188 O 0.27009 0.63208 0.27255 0.0
O189 O 0.24117 0.64376 0.23629 0.0
O190 O 0.21333 0.65375 0.28822 0.0
O191 O 0.22168 0.62005 0.31962 0.0
C192 C 0.24489 0.55772 0.28464 0.0
O193 O 0.1769 0.59482 0.25083 0.0
O194 O 0.2029 0.57684 0.21635 0.0
In195 In 0.8888 0.93696 0.57762 0.0
O196 O 0.8908 0.89521 0.6095 0.0
O197 O 0.87719 0.93812 0.62998 0.0
C198 C 0.8804 0.90668 0.51306 0.0
C199 C 0.8423 0.96414 0.57198 0.0
C200 C 0.94403 0.9748 0.58338 0.0
O201 O 0.87312 0.89054 0.5354 0.0
O202 O 0.8918 0.93701 0.52342 0.0
O203 O 0.92306 0.98676 0.59176 0.0
O204 O 0.93765 0.94344 0.57433 0.0
C205 C 0.88125 0.90991 0.63367 0.0
O206 O 0.86761 0.98159 0.57947 0.0
O207 O 0.84052 0.93308 0.56699 0.0
In208 In 0.97644 0.10783 0.28893 0.0
O209 O 1.01681 0.12551 0.25701 0.0
O210 O 0.9828 0.09056 0.23033 0.0
C211 C 1.01076 0.10754 0.35238 0.0
C212 C 0.94589 0.1657 0.29246 0.0
C213 C 0.93949 0.04163 0.28856 0.0
O214 O 1.01252 0.09122 0.32465 0.0
O215 O 0.9929 0.1258 0.34855 0.0
O216 O 0.93072 0.06861 0.28983 0.0
O217 O 0.96604 0.04764 0.28636 0.0
C218 C 1.00768 0.10756 0.22881 0.0
O219 O 0.93474 0.13512 0.28037 0.0
O220 O 0.97223 0.16747 0.30257 0.0
In221 In 0.32715 0.68008 0.57767 0.0
O222 O 0.35246 0.64095 0.58159 0.0
O223 O 0.36359 0.67535 0.54942 0.0
C224 C 0.27367 0.64944 0.58046 0.0
C225 C 0.346 0.72366 0.63156 0.0
C226 C 0.30533 0.7111 0.53563 0.0
O227 O 0.2875 0.64006 0.55784 0.0
O228 O 0.28831 0.67105 0.6038 0.0
O229 O 0.32061 0.72662 0.56193 0.0
O230 O 0.30378 0.68013 0.52904 0.0
C231 C 0.36823 0.65041 0.56082 0.0
O232 O 0.34885 0.73146 0.60379 0.0
O233 O 0.33618 0.69306 0.63167 0.0
In234 In 0.47644 0.60747 0.79004 0.0
O235 O 0.43452 0.63468 0.79344 0.0
O236 O 0.47304 0.66741 0.79499 0.0
C237 C 0.43976 0.54105 0.78887 0.0
C238 C 0.50765 0.60605 0.73006 0.0
C239 C 0.51076 0.60818 0.85327 0.0
O240 O 0.43165 0.56401 0.77599 0.0
O241 O 0.46566 0.55128 0.80163 0.0
O242 O 0.51305 0.59206 0.82561 0.0
O243 O 0.49251 0.62597 0.8494 0.0
C244 C 0.44625 0.66543 0.79553 0.0
O245 O 0.51671 0.62448 0.75801 0.0
O246 O 0.48298 0.5887 0.73185 0.0
In247 In 0.72512 0.09536 0.7645 0.0
O248 O 0.74792 0.05716 0.74725 0.0
O249 O 0.73496 0.05873 0.79499 0.0
C250 C 0.76573 0.14836 0.76497 0.0
C251 C 0.68882 0.07853 0.71121 0.0
C252 C 0.69912 0.12469 0.80905 0.0
O253 O 0.76917 0.12633 0.78166 0.0
O254 O 0.74221 0.14247 0.74626 0.0
O255 O 0.68595 0.09948 0.78834 0.0
O256 O 0.72561 0.13337 0.80846 0.0
C257 C 0.74872 0.04642 0.77378 0.0
O258 O 0.68199 0.06959 0.73746 0.0
O259 O 0.7145 0.09379 0.71181 0.0
In260 In 0.81065 0.74021 1.0314 0.0
O261 O 0.83232 0.69608 1.02607 0.0
O262 O 0.85871 0.74455 0.04339 0.0
C263 C 0.75697 0.70026 1.02728 0.0
C264 C 0.81741 0.77162 0.09522 0.0
C265 C 0.81948 0.76687 0.9756 0.0
O266 O 0.77905 0.68936 1.02161 0.0
O267 O 0.76167 0.73174 0.03448 0.0
O268 O 0.82688 0.78361 1.00429 0.0
O269 O 0.80607 0.73743 0.97494 0.0
C270 C 0.85727 0.71363 0.03639 0.0
O271 O 0.80558 0.78311 0.07229 0.0
O272 O 0.82523 0.74499 0.08574 0.0
In273 In 0.98926 0.58205 0.84757 0.0
O274 O 0.94797 0.59709 0.84966 0.0
O275 O 0.97706 0.62079 0.82012 0.0
C276 C 0.95472 0.53307 0.86642 0.0
C277 C 0.99314 0.55542 0.78764 0.0
C278 C 0.03499 0.60753 0.89154 0.0
O279 O 0.9535 0.56302 0.87534 0.0
O280 O 0.97501 0.52838 0.85053 0.0
O281 O 0.0351 0.58571 0.86712 0.0
O282 O 1.01232 0.61813 0.89229 0.0
C283 C 0.95246 0.61642 0.82942 0.0
O284 O 0.99571 0.58648 0.79613 0.0
O285 O 0.99114 0.53823 0.80997 0.0
In286 In 0.86628 0.49467 0.5234 0.0
O287 O 0.86638 0.45409 0.55187 0.0
O288 O 0.87539 0.50489 0.57747 0.0
C289 C 0.85722 0.44971 0.47001 0.0
C290 C 0.82419 0.52546 0.53266 0.0
C291 C 0.92051 0.52239 0.521 0.0
O292 O 0.85405 0.44153 0.49751 0.0
O293 O 0.86275 0.48059 0.46961 0.0
O294 O 0.9006 0.52815 0.50211 0.0
O295 O 0.91285 0.50337 0.54058 0.0
C296 C 0.87322 0.4744 0.57876 0.0
O297 O 0.84993 0.54099 0.535 0.0
O298 O 0.81953 0.49432 0.52357 0.0
In299 In 0.72101 0.57067 0.31127 0.0
O300 O 0.76338 0.544 0.30582 0.0
O301 O 0.72568 0.51091 0.30682 0.0
C302 C 0.75756 0.63769 0.31446 0.0
C303 C 0.68725 0.56927 0.24692 0.0
C304 C 0.68938 0.57294 0.37116 0.0
O305 O 0.76627 0.61329 0.32382 0.0
O306 O 0.73108 0.62861 0.30408 0.0
O307 O 0.67801 0.56395 0.34139 0.0
O308 O 0.71641 0.58002 0.37117 0.0
C309 C 0.75238 0.51321 0.30499 0.0
O310 O 0.69704 0.54492 0.25475 0.0
O311 O 0.69347 0.593 0.27117 0.0
La312 La 0.0799 0.07312 1.03065 0.0
La313 La 0.12051 0.11047 0.06993 0.0
C314 C 1.0301 0.04793 1.00134 0.0
C315 C 1.00438 0.05906 1.00951 0.0
C316 C 0.97984 0.05228 0.98642 0.0
C317 C 0.95647 0.0659 0.99386 0.0
C318 C 0.95779 0.08651 1.02432 0.0
C319 C 0.9823 0.09298 0.04749 0.0
C320 C 1.0055 0.07948 0.04003 0.0
C321 C 0.12586 0.07601 0.99452 0.0
C322 C 0.08387 0.15027 0.03595 0.0
C323 C 0.17063 0.13558 0.09894 0.0
C324 C 0.196 0.12262 0.09264 0.0
C325 C 0.22182 0.13362 0.11386 0.0
C326 C 0.24519 0.11934 0.10764 0.0
C327 C 0.24273 0.09412 0.0801 0.0
C328 C 0.21678 0.08333 0.05905 0.0
C329 C 0.19366 0.09739 0.06535 0.0
C330 C 0.07482 0.10727 0.10616 0.0
C331 C 0.11461 1.0329 0.06607 0.0
O332 O 0.04851 0.0699 0.99071 0.0
O333 O 0.04247 1.03524 1.02395 0.0
O334 O 0.10553 0.05052 0.99523 0.0
O335 O 0.12023 0.09981 1.0154 0.0
O336 O 0.06686 0.12055 1.02862 0.0
O337 O 0.10918 0.15336 0.05236 0.0
O338 O 0.15144 0.11577 0.11093 0.0
O339 O 0.15903 0.1464 0.07441 0.0
O340 O 0.09471 0.13311 0.10504 0.0
O341 O 0.08041 0.08349 0.08523 0.0
O342 O 0.13214 0.06233 0.07312 0.0
O343 O 0.08953 1.03043 0.04957 0.0
H344 H 0.97897 1.03703 0.96261 0.0
H345 H 0.93751 0.06059 0.97584 0.0
H346 H 0.98377 0.10916 0.07097 0.0
H347 H 1.02463 0.08563 0.05781 0.0
H348 H 0.22375 0.1528 0.13528 0.0
H349 H 0.26488 0.12751 0.1246 0.0
H350 H 0.21437 0.0641 0.03751 0.0
H351 H 0.17389 0.0886 0.04868 0.0
La352 La 0.36 0.85025 0.2945 0.0
La353 La 0.32608 0.85358 0.34012 0.0
C354 C 0.38356 0.84311 0.24366 0.0
C355 C 0.39947 0.86782 0.22804 0.0
C356 C 0.4047 0.8583 0.19604 0.0
C357 C 0.41088 0.88242 0.17684 0.0
C358 C 0.41132 0.9157 0.18984 0.0
C359 C 0.40905 0.92565 0.22284 0.0
C360 C 0.4034 0.9016 0.24216 0.0
C361 C 0.39188 0.85267 0.35077 0.0
C362 C 0.36411 0.91793 0.33579 0.0
C363 C 0.2958 0.85275 0.38547 0.0
C364 C 0.2864 0.82783 0.40424 0.0
C365 C 0.26449 0.83106 0.42333 0.0
C366 C 0.25629 0.80745 0.44258 0.0
C367 C 0.27036 0.78112 0.4427 0.0
C368 C 0.2913 0.77715 0.42201 0.0
C369 C 0.29922 0.80045 0.40267 0.0
C370 C 0.30269 0.87174 0.28692 0.0
C371 C 0.32433 0.78339 0.30254 0.0
O372 O 0.39559 0.84096 0.27229 0.0
O373 O 0.35669 0.84469 0.2436 0.0
O374 O 0.39752 0.872 0.32977 0.0
O375 O 0.36614 0.8352 0.34219 0.0
O376 O 0.36241 0.90353 0.30509 0.0
O377 O 0.35571 0.89992 0.35722 0.0
O378 O 0.28536 0.84407 0.35462 0.0
O379 O 0.3235 0.8649 0.39014 0.0
O380 O 0.3064 0.88846 0.31627 0.0
O381 O 0.31447 0.84728 0.28781 0.0
O382 O 0.31257 0.80034 0.32442 0.0
O383 O 0.34543 0.79762 0.28874 0.0
H384 H 0.40131 0.83218 0.18506 0.0
H385 H 0.41209 0.87469 0.15103 0.0
H386 H 0.409 0.95136 0.23268 0.0
H387 H 0.39944 0.90906 0.26702 0.0
H388 H 0.25443 0.85219 0.42402 0.0
H389 H 0.24024 0.81066 0.45865 0.0
H390 H 0.3029 0.75736 0.42241 0.0
H391 H 0.31615 0.7979 0.38766 0.0
La392 La 0.63248 0.09482 0.55593 0.0
La393 La 0.56795 0.0909 0.56188 0.0
C394 C 0.68341 0.0884 0.56582 0.0
C395 C 0.70171 0.06386 0.56238 0.0
C396 C 0.72005 0.06426 0.53809 0.0
C397 C 0.74119 0.04565 0.53806 0.0
C398 C 0.74442 1.02633 0.56234 0.0
C399 C 0.72538 1.02487 0.58591 0.0
C400 C 0.70416 0.04342 0.58591 0.0
C401 C 0.60139 0.1029 0.50577 0.0
C402 C 0.58652 1.02352 0.54163 0.0
C403 C 0.51638 0.09523 0.55433 0.0
C404 C 0.49678 0.11831 0.556 0.0
C405 C 0.47807 0.11743 0.57989 0.0
C406 C 0.45573 0.13421 0.57859 0.0
C407 C 0.45175 0.15226 0.5534 0.0
C408 C 0.4711 0.15422 0.5302 0.0
C409 C 0.49349 0.13741 0.53148 0.0
C410 C 0.60079 0.08756 0.6138 0.0
C411 C 0.61353 0.16246 0.5737 0.0
O412 O 0.67242 0.09648 0.53893 0.0
O413 O 0.66548 0.08604 0.58758 0.0
O414 O 0.62869 0.11607 0.51192 0.0
O415 O 0.59366 0.08284 0.52432 0.0
O416 O 0.61373 0.04041 0.54549 0.0
O417 O 0.5647 1.03823 0.54455 0.0
O418 O 0.52978 0.09184 0.58212 0.0
O419 O 0.5324 0.09466 0.53051 0.0
O420 O 0.57425 0.07117 0.6074 0.0
O421 O 0.60677 0.10495 0.59272 0.0
O422 O 0.58626 0.14525 0.56803 0.0
O423 O 0.63552 0.14765 0.57294 0.0
H424 H 0.71886 0.08006 0.5199 0.0
H425 H 0.75553 0.04703 0.51954 0.0
H426 H 0.72771 1.01061 0.60524 0.0
H427 H 0.6906 0.04288 0.60522 0.0
H428 H 0.47987 0.10246 0.59873 0.0
H429 H 0.44082 0.13183 0.59645 0.0
H430 H 0.4685 0.16816 0.51064 0.0
H431 H 0.50747 0.13837 0.51258 0.0
La432 La 0.31983 0.35211 0.80259 0.0
La433 La 0.37439 0.3277 0.79987 0.0
C434 C 0.26918 0.35831 0.80841 0.0
C435 C 0.24374 0.34812 0.82461 0.0
C436 C 0.21945 0.36041 0.8163 0.0
C437 C 0.19539 0.35386 0.8325 0.0
C438 C 0.19502 0.33475 0.85745 0.0
C439 C 0.21933 0.32188 0.86551 0.0
C440 C 0.24363 0.32866 0.84929 0.0
C441 C 0.36209 0.40564 0.7949 0.0
C442 C 0.35904 0.35378 0.86854 0.0
C443 C 0.42509 0.32203 0.79424 0.0
C444 C 0.44965 0.33159 0.77647 0.0
C445 C 0.46243 0.30626 0.76257 0.0
C446 C 0.48706 0.31389 0.7476 0.0
C447 C 0.49953 0.34713 0.74628 0.0
C448 C 0.48633 0.37259 0.75946 0.0
C449 C 0.46148 0.36485 0.77442 0.0
C450 C 0.33257 0.274 0.80766 0.0
C451 C 0.33556 0.32605 0.73375 0.0
O452 O 0.292 0.3769 0.82714 0.0
O453 O 0.2755 0.33628 0.78582 0.0
O454 O 0.33504 0.4045 0.79537 0.0
O455 O 0.36405 0.37561 0.79701 0.0
O456 O 0.33265 0.35058 0.85404 0.0
O457 O 0.38019 0.34951 0.8516 0.0
O458 O 0.40231 0.30178 0.77692 0.0
O459 O 0.41865 0.3448 0.816 0.0
O460 O 0.35959 0.27547 0.80677 0.0
O461 O 0.33004 0.30394 0.80562 0.0
O462 O 0.36188 0.32924 0.74841 0.0
O463 O 0.31429 0.33015 0.75067 0.0
H464 H 0.21929 0.37577 0.79758 0.0
H465 H 0.17723 0.36445 0.82596 0.0
H466 H 0.21955 0.30663 0.88429 0.0
H467 H 0.2623 0.31908 0.85618 0.0
H468 H 0.45362 0.28043 0.76384 0.0
H469 H 0.49673 0.29377 0.73766 0.0
H470 H 0.49516 0.39837 0.7581 0.0
H471 H 0.45175 0.38476 0.78452 0.0
La472 La 0.09396 0.11555 0.56418 0.0
La473 La 0.10607 0.05796 0.53419 0.0
C474 C 0.09148 0.17534 0.57865 0.0
C475 C 0.0997 0.20065 0.55919 0.0
C476 C 0.09171 0.23117 0.56581 0.0
C477 C 0.10048 0.25543 0.54727 0.0
C478 C 0.11741 0.24902 0.52253 0.0
C479 C 0.1251 0.21837 0.51553 0.0
C480 C 0.11599 0.19405 0.53365 0.0
C481 C 0.05485 0.06344 0.57359 0.0
C482 C 0.07339 0.09301 0.48468 0.0
C483 C 0.10943 0.99843 0.51942 0.0
C484 C 0.10093 0.97278 0.5384 0.0
C485 C 0.10414 0.94038 0.52804 0.0
C486 C 0.0937 0.91563 0.5454 0.0
C487 C 0.08003 0.92347 0.57293 0.0
C488 C 0.07759 0.95612 0.58377 0.0
C489 C 0.08781 0.98061 0.5664 0.0
C490 C 0.14523 0.10998 0.5254 0.0
C491 C 0.12738 0.08145 0.61344 0.0
O492 O 0.06921 0.15182 0.56524 0.0
O493 O 0.11288 0.16351 0.58982 0.0
O494 O 0.06511 0.09055 0.59474 0.0
O495 O 0.06579 0.06675 0.5475 0.0
O496 O 0.07942 0.11762 0.51083 0.0
O497 O 0.08094 0.0648 0.48868 0.0
O498 O 0.13126 1.02217 0.53361 0.0
O499 O 0.08802 1.01002 0.50787 0.0
O500 O 0.13485 0.08324 0.50389 0.0
O501 O 0.13416 0.10639 0.55129 0.0
O502 O 0.12023 0.05631 0.58782 0.0
O503 O 0.12066 0.10993 0.60903 0.0
H504 H 0.07884 0.23616 0.5852 0.0
H505 H 0.0942 0.27913 0.55219 0.0
H506 H 0.13783 0.21326 0.49599 0.0
H507 H 0.12183 0.17023 0.52794 0.0
H508 H 0.11414 0.9342 0.50637 0.0
H509 H 0.09583 0.89034 0.53711 0.0
H510 H 0.06755 0.96258 0.60538 0.0
H511 H 0.08433 1.0053 0.57414 0.0
La512 La 0.37654 0.86312 0.79691 0.0
La513 La 0.32536 0.81585 0.80593 0.0
C514 C 0.42603 0.89861 0.80579 0.0
C515 C 0.45426 0.89181 0.80196 0.0
C516 C 0.47255 0.91134 0.78484 0.0
C517 C 0.50088 0.90823 0.78483 0.0
C518 C 0.5112 0.88619 0.80273 0.0
C519 C 0.4921 0.86453 0.81731 0.0
C520 C 0.46372 0.86714 0.81673 0.0
C521 C 0.34858 0.82484 0.74298 0.0
C522 C 0.38277 0.78491 0.80464 0.0
C523 C 0.27652 0.77847 0.79388 0.0
C524 C 0.2476 0.7839 0.79271 0.0
C525 C 0.24128 0.81084 0.81339 0.0
C526 C 0.21437 0.81838 0.80837 0.0
C527 C 0.19422 0.79937 0.78236 0.0
C528 C 0.20041 0.7722 0.76217 0.0
C529 C 0.22702 0.76444 0.7674 0.0
C530 C 0.35351 0.85239 0.86029 0.0
C531 C 0.31923 0.8942 0.79927 0.0
O532 O 0.40852 0.89472 0.7786 0.0
O533 O 0.41353 0.88621 0.82915 0.0
O534 O 0.36132 0.8558 0.74447 0.0
O535 O 0.35316 0.81731 0.77049 0.0
O536 O 0.39562 0.8166 0.80251 0.0
O537 O 0.35438 0.77896 0.80591 0.0
O538 O 0.29195 0.78509 0.82283 0.0
O539 O 0.29051 0.79042 0.77134 0.0
O540 O 0.34025 0.82144 0.85781 0.0
O541 O 0.34915 0.86138 0.83329 0.0
O542 O 0.30625 0.86203 0.79938 0.0
O543 O 0.34791 0.90074 0.79992 0.0
H544 H 0.46531 0.92998 0.77274 0.0
H545 H 0.51515 0.92452 0.77266 0.0
H546 H 0.49952 0.84729 0.83129 0.0
H547 H 0.44978 0.85118 0.82951 0.0
H548 H 0.25736 0.82662 0.83254 0.0
H549 H 0.20966 0.83957 0.82381 0.0
H550 H 0.18487 0.75756 0.74185 0.0
H551 H 0.23197 0.74412 0.75087 0.0
La552 La 0.59587 0.08766 0.06913 0.0
La553 La 0.58876 0.11432 1.00931 0.0
C554 C 0.58578 0.07863 0.12426 0.0
C555 C 0.56381 0.05327 0.1332 0.0
C556 C 0.57086 1.02471 0.1426 0.0
C557 C 0.55218 1.00537 0.15912 0.0
C558 C 0.52755 1.01602 0.16756 0.0
C559 C 0.51763 1.03965 0.15169 0.0
C560 C 0.53598 0.05867 0.13482 0.0
C561 C 0.61519 0.04844 1.02638 0.0
C562 C 0.54243 0.05509 1.01369 0.0
C563 C 0.59127 0.15195 0.96861 0.0
C564 C 0.61285 0.16967 0.95269 0.0
C565 C 0.60437 0.18813 0.92989 0.0
C566 C 0.62307 0.19863 0.90848 0.0
C567 C 0.64959 0.18949 0.90972 0.0
C568 C 0.65984 0.17633 0.93636 0.0
C569 C 0.64114 0.16584 0.95773 0.0
C570 C 0.56241 0.13518 0.05689 0.0
C571 C 0.64965 0.12779 0.05198 0.0
O572 O 0.60671 0.06828 0.11081 0.0
O573 O 0.57602 0.10055 0.10979 0.0
O574 O 0.61367 0.04519 0.05647 0.0
O575 O 0.60531 0.07307 1.01998 0.0
O576 O 0.55339 0.06038 0.04498 0.0
O577 O 0.55475 0.07129 0.99231 0.0
O578 O 0.59436 0.16257 1.0002 0.0
O579 O 0.58552 0.11924 0.96017 0.0
O580 O 0.54978 0.12437 1.02749 0.0
O581 O 0.58802 0.13271 0.05889 0.0
O582 O 0.63538 0.12237 1.02212 0.0
O583 O 0.63637 0.12211 0.07717 0.0
H584 H 0.5918 1.01929 0.14025 0.0
H585 H 0.5596 0.98645 0.17059 0.0
H586 H 0.49818 0.0476 0.15719 0.0
H587 H 0.52939 0.07963 0.12627 0.0
H588 H 0.58252 0.1915 0.92655 0.0
H589 H 0.61511 0.20868 0.88785 0.0
H590 H 0.6804 0.16918 0.93749 0.0
H591 H 0.6479 0.15205 0.97585 0.0
La592 La 0.36251 0.36754 0.32032 0.0
La593 La 0.32788 0.30524 0.28008 0.0
C594 C 0.38034 0.42646 0.34862 0.0
C595 C 0.36454 0.45187 0.34336 0.0
C596 C 0.35932 0.47364 0.37014 0.0
C597 C 0.33784 0.49127 0.36604 0.0
C598 C 0.32149 0.4867 0.33526 0.0
C599 C 0.32711 0.46553 0.30846 0.0
C600 C 0.34843 0.44826 0.31253 0.0
C601 C 0.35176 0.31765 0.35344 0.0
C602 C 0.29528 0.35717 0.30347 0.0
C603 C 0.30715 0.24422 0.26492 0.0
C604 C 0.3219 0.21936 0.27442 0.0
C605 C 0.32482 0.19319 0.25036 0.0
C606 C 0.34633 0.17603 0.25597 0.0
C607 C 0.36503 0.18529 0.28552 0.0
C608 C 0.3611 0.21019 0.31023 0.0
C609 C 0.33969 0.2272 0.30469 0.0
C610 C 0.3406 0.34546 0.23782 0.0
C611 C 0.39465 0.32166 0.28638 0.0
O612 O 0.36624 0.40353 0.36262 0.0
O613 O 0.39097 0.41372 0.32306 0.0
O614 O 0.37652 0.33767 0.35509 0.0
O615 O 0.33489 0.32495 0.33194 0.0
O616 O 0.32047 0.37817 0.30946 0.0
O617 O 0.29204 0.32556 0.29112 0.0
O618 O 0.32069 0.26142 0.2453 0.0
O619 O 0.29925 0.26323 0.28888 0.0
O620 O 0.32268 0.31696 0.2313 0.0
O621 O 0.34825 0.35286 0.2687 0.0
O622 O 0.37185 0.29832 0.28762 0.0
O623 O 0.39562 0.35313 0.29631 0.0
H624 H 0.37078 0.47566 0.39434 0.0
H625 H 0.33356 0.50785 0.38683 0.0
H626 H 0.31479 0.46207 0.28444 0.0
H627 H 0.35071 0.4302 0.29203 0.0
H628 H 0.31187 0.18764 0.22655 0.0
H629 H 0.34915 0.15656 0.23682 0.0
H630 H 0.37502 0.217 0.33346 0.0
H631 H 0.33834 0.24791 0.32332 0.0
La632 La 0.59338 0.61933 0.06485 0.0
La633 La 0.60673 0.55787 0.03318 0.0
C634 C 0.59869 0.68091 0.08086 0.0
C635 C 0.60761 0.70622 0.06143 0.0
C636 C 0.60742 0.73946 0.07309 0.0
C637 C 0.61468 0.76321 0.05349 0.0
C638 C 0.62193 0.75357 1.02214 0.0
C639 C 0.62258 0.72032 1.01074 0.0
C640 C 0.61538 0.69673 1.0303 0.0
C641 C 0.54942 0.5705 0.06992 0.0
C642 C 0.57184 0.59355 0.98582 0.0
C643 C 0.61085 0.49892 1.0188 0.0
C644 C 0.60409 0.47367 0.03881 0.0
C645 C 0.62055 0.44973 0.04026 0.0
C646 C 0.61473 0.42686 0.06105 0.0
C647 C 0.59222 0.4278 0.08007 0.0
C648 C 0.57636 0.45248 0.07925 0.0
C649 C 0.58249 0.47551 0.05898 0.0
C650 C 0.64396 0.61186 1.02506 0.0
C651 C 0.6249 0.58143 0.11368 0.0
O652 O 0.57421 0.66041 0.06883 0.0
O653 O 0.61852 0.66537 0.08946 0.0
O654 O 0.55207 0.60165 0.08212 0.0
O655 O 0.57165 0.56774 0.05673 0.0
O656 O 0.57871 0.61901 1.0112 0.0
O657 O 0.5786 0.56493 0.99011 0.0
O658 O 0.63288 0.52312 1.03169 0.0
O659 O 0.58868 0.5097 1.00754 0.0
O660 O 0.63505 0.58479 1.00354 0.0
O661 O 0.63232 0.60712 0.05036 0.0
O662 O 0.62224 0.55803 0.08668 0.0
O663 O 0.61469 0.60858 0.11099 0.0
H664 H 0.60141 0.74692 0.09707 0.0
H665 H 0.61425 0.78895 0.06252 0.0
H666 H 0.62879 0.71269 0.98688 0.0
H667 H 0.61614 0.67119 1.02121 0.0
H668 H 0.63787 0.44889 1.02553 0.0
H669 H 0.62756 0.40833 0.06207 0.0
H670 H 0.55884 0.4535 0.0937 0.0
H671 H 0.57024 0.49465 0.05884 0.0
La672 La 0.87487 0.36304 0.29204 0.0
La673 La 0.82416 0.316 0.30289 0.0
C674 C 0.92324 0.40107 0.29768 0.0
C675 C 0.95222 0.39766 0.29419 0.0
C676 C 0.97357 0.42656 0.29663 0.0
C677 C 1.00223 0.42486 0.30145 0.0
C678 C 1.00928 0.39424 0.30387 0.0
C679 C 0.98801 0.36482 0.29802 0.0
C680 C 0.95937 0.36651 0.29302 0.0
C681 C 0.84507 0.32557 0.23883 0.0
C682 C 0.88105 0.28456 0.29976 0.0
C683 C 0.77444 0.28085 0.29346 0.0
C684 C 0.74641 0.28931 0.29235 0.0
C685 C 0.72349 0.2681 0.302 0.0
C686 C 0.69583 0.27347 0.29649 0.0
C687 C 0.69128 0.3003 0.28166 0.0
C688 C 0.71456 0.32331 0.27502 0.0
C689 C 0.74192 0.31748 0.27969 0.0
C690 C 0.85454 0.35258 0.35602 0.0
C691 C 0.81811 0.39482 0.29654 0.0
O692 O 0.90521 0.39336 0.2706 0.0
O693 O 0.91254 0.38874 0.32209 0.0
O694 O 0.85764 0.35652 0.24053 0.0
O695 O 0.85057 0.31741 0.26588 0.0
O696 O 0.89393 0.31671 0.29912 0.0
O697 O 0.85246 0.27811 0.29987 0.0
O698 O 0.79021 0.28857 0.32223 0.0
O699 O 0.78893 0.28885 0.26966 0.0
O700 O 0.84176 0.32149 0.35412 0.0
O701 O 0.84874 0.36144 0.3293 0.0
O702 O 0.80545 0.36302 0.2983 0.0
O703 O 0.84644 0.40076 0.29506 0.0
H704 H 0.96812 0.45068 0.29744 0.0
H705 H 1.01869 0.44773 0.30655 0.0
H706 H 0.99344 0.3412 0.30042 0.0
H707 H 0.943 0.34399 0.29074 0.0
H708 H 0.72673 0.24636 0.31189 0.0
H709 H 0.67785 0.25531 0.30133 0.0
H710 H 0.7112 0.34397 0.26329 0.0
H711 H 0.75897 0.33371 0.27113 0.0
La712 La 0.103 0.58135 0.56795 0.0
La713 La 0.09467 0.6037 0.50182 0.0
C714 C 0.09649 0.55637 0.61728 0.0
C715 C 0.07088 0.54795 0.63263 0.0
C716 C 0.05975 0.51447 0.63401 0.0
C717 C 0.03557 0.50597 0.64921 0.0
C718 C 1.02287 0.53106 0.66378 0.0
C719 C 1.03278 0.56427 0.65998 0.0
C720 C 0.05641 0.57259 0.64406 0.0
C721 C 0.12688 0.55356 0.52122 0.0
C722 C 0.04237 0.5637 0.52468 0.0
C723 C 0.0964 0.61084 0.4442 0.0
C724 C 0.11017 0.63961 0.43182 0.0
C725 C 0.12991 0.66564 0.45308 0.0
C726 C 0.14996 0.68742 0.44022 0.0
C727 C 0.1501 0.6829 0.40623 0.0
C728 C 0.12739 0.66006 0.3853 0.0
C729 C 0.10758 0.63825 0.39815 0.0
C730 C 0.07995 0.64535 0.54829 0.0
C731 C 0.15159 0.63336 0.55304 0.0
O732 O 0.09494 0.53839 0.5881 0.0
O733 O 0.10735 0.5884 0.61894 0.0
O734 O 0.13837 0.56214 0.55141 0.0
O735 O 0.10218 0.55963 0.51775 0.0
O736 O 0.05694 0.57207 0.55444 0.0
O737 O 0.05488 0.56776 0.49846 0.0
O738 O 0.07446 0.6148 0.45955 0.0
O739 O 0.11449 0.59695 0.45988 0.0
O740 O 0.07918 0.64925 0.51812 0.0
O741 O 0.09001 0.62038 0.55027 0.0
O742 O 0.13961 0.62589 0.52186 0.0
O743 O 0.13782 0.62411 0.57713 0.0
H744 H 0.07027 0.49508 0.62419 0.0
H745 H 1.02821 0.48028 0.65193 0.0
H746 H 1.024 0.58442 0.6717 0.0
H747 H 0.06402 0.59847 0.64215 0.0
H748 H 0.1317 0.66698 0.4794 0.0
H749 H 0.16727 0.70485 0.45665 0.0
H750 H 0.12715 0.65585 0.35893 0.0
H751 H 0.09222 0.6183 0.38176 0.0
La752 La 0.82038 0.85258 0.30446 0.0
La753 La 0.87496 0.82851 0.30346 0.0
C754 C 0.76903 0.85658 0.309 0.0
C755 C 0.74522 0.84869 0.32857 0.0
C756 C 0.7358 0.87538 0.34578 0.0
C757 C 0.71172 0.86969 0.36203 0.0
C758 C 0.69655 0.83705 0.36194 0.0
C759 C 0.70601 0.81013 0.34491 0.0
C760 C 0.73019 0.81587 0.32835 0.0
C761 C 0.86229 0.90616 0.29647 0.0
C762 C 0.85901 0.85693 0.37158 0.0
C763 C 0.92589 0.82265 0.29972 0.0
C764 C 0.95132 0.8325 0.28368 0.0
C765 C 0.97489 0.81865 0.29096 0.0
C766 C 0.99911 0.82551 0.2752 0.0
C767 C 1.00025 0.84662 0.25203 0.0
C768 C 0.97677 0.86096 0.24488 0.0
C769 C 0.95214 0.8535 0.26032 0.0
C770 C 0.83335 0.77506 0.3116 0.0
C771 C 0.83698 0.82511 0.23609 0.0
O772 O 0.79145 0.87932 0.32379 0.0
O773 O 0.77614 0.8323 0.28977 0.0
O774 O 0.83522 0.90476 0.29718 0.0
O775 O 0.86481 0.87634 0.29914 0.0
O776 O 0.83272 0.85376 0.35679 0.0
O777 O 0.88008 0.85137 0.35496 0.0
O778 O 0.90347 0.80319 0.28103 0.0
O779 O 0.919 0.84539 0.32104 0.0
O780 O 0.86049 0.77682 0.31165 0.0
O781 O 0.83066 0.80476 0.3088 0.0
O782 O 0.86273 0.82651 0.25137 0.0
O783 O 0.81603 0.83241 0.25215 0.0
H784 H 0.74669 0.90091 0.34595 0.0
H785 H 0.7046 0.89103 0.37407 0.0
H786 H 0.69471 0.78469 0.34441 0.0
H787 H 0.7368 0.79475 0.31508 0.0
H788 H 0.97438 0.80197 0.30854 0.0
H789 H 1.01694 0.8141 0.28092 0.0
H790 H 0.97721 0.87705 0.22678 0.0
H791 H 0.93374 0.86364 0.25377 0.0
La792 La 0.86161 0.34782 0.79525 0.0
La793 La 0.82656 0.35533 0.83902 0.0
C794 C 0.89513 0.35431 0.75346 0.0
C795 C 0.89874 0.37938 0.73346 0.0
C796 C 0.92334 0.38566 0.71822 0.0
C797 C 0.9259 0.40909 0.69787 0.0
C798 C 0.9038 0.42598 0.69307 0.0
C799 C 0.87997 0.42099 0.71005 0.0
C800 C 0.8775 0.39777 0.73035 0.0
C801 C 0.88315 0.32846 0.8488 0.0
C802 C 0.86677 0.4173 0.83578 0.0
C803 C 0.79289 0.35334 0.88132 0.0
C804 C 0.78542 0.32955 0.90197 0.0
C805 C 0.76323 0.3317 0.92091 0.0
C806 C 0.75603 0.3081 0.94052 0.0
C807 C 0.77073 0.2823 0.94027 0.0
C808 C 0.79272 0.28009 0.92085 0.0
C809 C 0.80019 0.30385 0.9019 0.0
C810 C 0.80515 0.37299 0.78403 0.0
C811 C 0.82154 0.2854 0.79922 0.0
O812 O 0.90273 0.36637 0.7845 0.0
O813 O 0.86999 0.33387 0.74741 0.0
O814 O 0.88054 0.31297 0.8191 0.0
O815 O 0.87182 0.35354 0.84813 0.0
O816 O 0.86508 0.40137 0.80571 0.0
O817 O 0.85614 0.40127 0.85761 0.0
O818 O 0.78502 0.34105 0.85037 0.0
O819 O 0.81952 0.36983 0.88736 0.0
O820 O 0.80802 0.38964 0.81334 0.0
O821 O 0.81651 0.34828 0.78594 0.0
O822 O 0.82206 0.30164 0.82896 0.0
O823 O 0.8327 0.30114 0.77732 0.0
H824 H 0.93991 0.37172 0.72117 0.0
H825 H 0.94411 0.41258 0.68432 0.0
H826 H 0.86231 0.43312 0.70577 0.0
H827 H 0.85842 0.39308 0.74235 0.0
H828 H 0.75199 0.35181 0.92095 0.0
H829 H 0.73978 0.31043 0.95652 0.0
H830 H 0.80519 0.26115 0.92184 0.0
H831 H 0.81797 0.30272 0.88801 0.0
La832 La 0.87035 0.86682 0.82288 0.0
La833 La 0.83326 0.79963 0.78145 0.0
C834 C 0.8935 0.92675 0.84001 0.0
C835 C 0.88049 0.95166 0.82822 0.0
C836 C 0.87982 0.98105 0.84947 0.0
C837 C 0.85928 0.99903 0.84191 0.0
C838 C 0.8393 0.98685 0.81367 0.0
C839 C 0.83976 0.95729 0.79308 0.0
C840 C 0.86081 0.94043 0.79956 0.0
C841 C 0.85913 0.82319 0.86277 0.0
C842 C 0.80273 0.85204 0.81299 0.0
C843 C 0.81107 0.73955 0.76176 0.0
C844 C 0.82382 0.71309 0.77086 0.0
C845 C 0.82448 0.68552 0.74708 0.0
C846 C 0.84341 0.66514 0.7532 0.0
C847 C 0.86139 0.67245 0.78314 0.0
C848 C 0.86049 0.69978 0.8069 0.0
C849 C 0.84211 0.72016 0.80063 0.0
C850 C 0.84512 0.84508 0.7428 0.0
C851 C 0.90078 0.81465 0.79148 0.0
O852 O 0.87705 0.91022 0.85795 0.0
O853 O 0.9026 0.90714 0.81738 0.0
O854 O 0.87631 0.85213 0.87024 0.0
O855 O 0.85163 0.81801 0.83192 0.0
O856 O 0.82689 0.87485 0.81635 0.0
O857 O 0.80024 0.82011 0.80198 0.0
O858 O 0.82723 0.75761 0.74476 0.0
O859 O 0.80204 0.75772 0.78558 0.0
O860 O 0.82911 0.81562 0.73338 0.0
O861 O 0.85155 0.84811 0.77343 0.0
O862 O 0.8768 0.79158 0.78848 0.0
O863 O 0.90293 0.84638 0.80258 0.0
H864 H 0.89395 0.9889 0.87251 0.0
H865 H 0.8585 1.02172 0.85824 0.0
H866 H 0.82325 0.94702 0.77242 0.0
H867 H 0.86 0.91692 0.78372 0.0
H868 H 0.81165 0.68097 0.72328 0.0
H869 H 0.84447 0.64429 0.73455 0.0
H870 H 0.875 0.70626 0.82973 0.0
H871 H 0.84395 0.74285 0.81805 0.0
La872 La 0.57935 0.57321 0.53178 0.0
La873 La 0.61956 0.61031 0.57055 0.0
C874 C 0.53013 0.54754 0.50102 0.0
C875 C 0.50398 0.55742 0.50937 0.0
C876 C 0.47988 0.55162 0.4858 0.0
C877 C 0.45639 0.56497 0.4933 0.0
C878 C 0.45718 0.58439 0.52427 0.0
C879 C 0.48121 0.58977 0.54794 0.0
C880 C 0.50451 0.57647 0.54045 0.0
C881 C 0.62551 0.57663 0.49583 0.0
C882 C 0.58377 0.65003 0.53669 0.0
C883 C 0.66879 0.63528 0.60143 0.0
C884 C 0.69522 0.62601 0.59287 0.0
C885 C 0.71543 0.62145 0.6174 0.0
C886 C 0.73753 0.60597 0.6088 0.0
C887 C 0.73918 0.59477 0.57569 0.0
C888 C 0.71997 0.60087 0.55124 0.0
C889 C 0.69784 0.61598 0.55969 0.0
C890 C 0.57386 0.60645 0.60707 0.0
C891 C 0.61533 0.53393 0.56585 0.0
O892 O 0.54828 0.57083 0.4918 0.0
O893 O 0.54263 0.53408 0.52285 0.0
O894 O 0.60575 0.55078 0.49705 0.0
O895 O 0.61924 0.60034 0.51611 0.0
O896 O 0.56594 0.62087 0.53226 0.0
O897 O 0.6099 0.65249 0.55034 0.0
O898 O 0.65073 0.61142 0.61003 0.0
O899 O 0.65615 0.64963 0.58046 0.0
O900 O 0.5934 0.6324 0.60566 0.0
O901 O 0.57967 0.58287 0.58623 0.0
O902 O 0.63338 0.56267 0.56816 0.0
O903 O 0.58881 0.53207 0.55387 0.0
H904 H 0.47952 0.53752 0.46154 0.0
H905 H 0.4378 0.56047 0.47489 0.0
H906 H 0.48231 0.60505 0.57183 0.0
H907 H 0.52334 0.58195 0.55859 0.0
H908 H 0.71329 0.62838 0.64305 0.0
H909 H 0.7525 0.60143 0.62787 0.0
H910 H 0.72193 0.59316 0.52569 0.0
H911 H 0.68218 0.61864 0.54029 0.0
La912 La 0.13277 0.59433 0.05904 0.0
La913 La 0.06904 0.59048 0.06243 0.0
C914 C 0.18398 0.58882 0.06703 0.0
C915 C 0.20235 0.56456 0.06314 0.0
C916 C 0.22142 0.56679 0.03969 0.0
C917 C 0.2424 0.54807 0.03884 0.0
C918 C 0.24461 0.52666 0.06137 0.0
C919 C 0.22485 0.5234 0.08405 0.0
C920 C 0.20382 0.5422 0.08492 0.0
C921 C 0.10451 0.60874 1.00939 0.0
C922 C 0.0867 0.52392 0.03784 0.0
C923 C 1.01706 0.59308 0.05764 0.0
C924 C 0.99636 0.61431 0.05937 0.0
C925 C 0.96812 0.59947 0.06236 0.0
C926 C 0.94678 0.61748 0.06075 0.0
C927 C 0.95331 0.6506 0.05574 0.0
C928 C 0.98198 0.66595 0.05405 0.0
C929 C 1.00351 0.64791 0.05627 0.0
C930 C 0.09876 0.57756 0.11223 0.0
C931 C 0.11441 0.66134 0.08047 0.0
O932 O 0.17158 0.59509 0.04002 0.0
O933 O 0.16731 0.58769 0.09019 0.0
O934 O 0.13155 0.62129 1.01859 0.0
O935 O 0.09531 0.58618 1.02485 0.0
O936 O 0.11396 0.53989 0.04751 0.0
O937 O 0.06555 0.53986 0.03776 0.0
O938 O 1.03217 0.59213 0.0852 0.0
O939 O 1.03195 0.59293 0.03287 0.0
O940 O 0.07246 0.56211 0.10204 0.0
O941 O 0.1066 0.6 0.09632 0.0
O942 O 0.0873 0.64464 0.07134 0.0
O943 O 0.136 0.64597 0.0814 0.0
H944 H 0.22096 0.58418 1.02292 0.0
H945 H 0.25772 0.55151 1.02154 0.0
H946 H 0.22616 0.50694 0.10159 0.0
H947 H 0.18951 0.54017 0.1034 0.0
H948 H 0.96242 0.57358 0.06515 0.0
H949 H 0.92498 0.60527 0.06275 0.0
H950 H 0.9876 0.69139 0.04997 0.0
H951 H 1.02545 0.65977 0.05471 0.0
C952 C 0.04932 0.20099 0.98075 0.0
C953 C 0.0578 0.2341 0.99812 0.0
C954 C 0.0573 0.17418 0.99354 0.0
C955 C 0.07481 0.17923 1.02392 0.0
H956 H 0.03637 0.19566 0.95696 0.0
H957 H 0.05022 0.14929 0.97905 0.0
S958 S 0.10333 0.26075 0.07927 0.0
N959 N 0.08479 0.27006 0.04783 0.0
N960 N 0.1004 0.21998 0.07105 0.0
C961 C 0.0837 0.21213 0.04144 0.0
C962 C 0.07505 0.23939 1.0288 0.0
C963 C 0.2356 0.89564 0.24853 0.0
C964 C 0.22763 0.87352 0.21826 0.0
C965 C 0.26019 0.89534 0.26991 0.0
C966 C 0.27775 0.87245 0.26242 0.0
H967 H 0.22277 0.9135 0.25579 0.0
H968 H 0.26518 0.91297 0.29285 0.0
S969 S 0.26529 0.8076 0.1873 0.0
N970 N 0.239 0.82736 0.18236 0.0
N971 N 0.28448 0.8261 0.2229 0.0
C972 C 0.26979 0.84986 0.23245 0.0
C973 C 0.24501 0.85058 0.21034 0.0
C974 C 0.58302 0.94006 0.48822 0.0
C975 C 0.56521 0.91719 0.50328 0.0
C976 C 0.59039 0.97428 0.50132 0.0
C977 C 0.57988 0.98712 0.52971 0.0
H978 H 0.59135 0.93154 0.46594 0.0
H979 H 0.60384 0.99092 0.48866 0.0
S980 S 0.53325 0.93854 0.57922 0.0
N981 N 0.53812 0.91016 0.54905 0.0
N982 N 0.55109 0.97483 0.57284 0.0
C983 C 0.56206 0.96483 0.54508 0.0
C984 C 0.55503 0.92978 0.53215 0.0
C985 C 0.55305 0.34116 0.68566 0.0
C986 C 0.57775 0.36506 0.70127 0.0
C987 C 0.52783 0.33602 0.70018 0.0
C988 C 0.52616 0.35462 0.73087 0.0
H989 H 0.55321 0.32594 0.66209 0.0
H990 H 0.50945 0.31725 0.68726 0.0
S991 S 0.58481 0.41965 0.78234 0.0
N992 N 0.599 0.40726 0.7493 0.0
N993 N 0.55148 0.39743 0.77678 0.0
C994 C 0.55059 0.37867 0.74676 0.0
C995 C 0.57641 0.38386 0.73196 0.0
C996 C 0.0783 0.8559 0.62215 0.0
C997 C 0.04985 0.85004 0.62895 0.0
C998 C 0.08772 0.87937 0.60314 0.0
C999 C 0.06898 0.89774 0.59103 0.0
H1000 H 0.09333 0.84235 0.63171 0.0
H1001 H 0.10992 0.88379 0.59855 0.0
S1002 S 0.99282 0.89213 0.6036 0.0
N1003 N 1.0032 0.86412 0.62322 0.0
N1004 N 1.02101 0.90917 0.58736 0.0
C1005 C 0.04046 0.89214 0.59782 0.0
C1006 C 1.0308 0.86785 0.61684 0.0
C1007 C 0.58062 0.86306 0.8281 0.0
C1008 C 0.59772 0.89408 0.84381 0.0
C1009 C 0.55326 0.86088 0.81198 0.0
C1010 C 0.54216 0.8896 0.81153 0.0
H1011 H 0.58785 0.84021 0.82947 0.0
H1012 H 0.54007 0.83642 0.80142 0.0
S1013 S 0.57948 0.97695 0.84754 0.0
N1014 N 0.60282 0.95432 0.8559 0.0
N1015 N 0.55087 0.95012 0.82689 0.0
C1016 C 0.55977 0.92096 0.8256 0.0
C1017 C 0.58773 0.92321 0.84153 0.0
C1018 C 0.51261 0.16665 0.11133 0.0
C1019 C 0.52788 0.19942 0.12307 0.0
C1020 C 0.52416 0.14533 0.08974 0.0
C1021 C 0.55138 0.15642 0.08068 0.0
H1022 H 0.49174 0.15775 0.11856 0.0
H1023 H 0.51195 0.12015 0.08022 0.0
S1024 S 0.5992 0.24027 0.10442 0.0
N1025 N 0.57079 0.24249 0.12337 0.0
N1026 N 0.5931 0.20158 0.08423 0.0
C1027 C 0.56695 0.18891 0.09268 0.0
C1028 C 0.55494 0.21078 0.11364 0.0
C1029 C 0.22258 0.36226 0.32606 0.0
C1030 C 0.22945 0.37781 0.3592 0.0
C1031 C 0.24414 0.35642 0.30732 0.0
C1032 C 0.27293 0.36655 0.32128 0.0
H1033 H 0.20045 0.35452 0.31457 0.0
H1034 H 0.23835 0.3438 0.28203 0.0
S1035 S 0.30146 0.40302 0.40829 0.0
N1036 N 0.2665 0.4001 0.406 0.0
N1037 N 0.30709 0.38865 0.37087 0.0
C1038 C 0.27993 0.38109 0.35465 0.0
C1039 C 0.2581 0.38697 0.37365 0.0
C1040 C 0.05047 0.12974 0.19549 0.0
C1041 C 1.02455 0.10637 0.19716 0.0
C1042 C 0.06579 0.12941 0.16698 0.0
C1043 C 0.05741 0.10519 0.13723 0.0
H1044 H 0.05913 0.14921 0.2166 0.0
H1045 H 0.08494 0.14881 0.16855 0.0
S1046 S 0.99132 1.03733 0.12673 0.0
N1047 N 0.99152 0.05777 0.16416 0.0
N1048 N 1.02011 0.05646 0.11285 0.0
C1049 C 1.03177 0.0813 0.13867 0.0
C1050 C 1.01573 0.08207 0.16751 0.0
C1051 C 0.27777 0.71065 0.48288 0.0
C1052 C 0.28986 0.72772 0.51444 0.0
C1053 C 0.26688 0.72751 0.46024 0.0
C1054 C 0.26834 0.76177 0.46863 0.0
H1055 H 0.2786 0.68485 0.47488 0.0
H1056 H 0.26046 0.71478 0.43505 0.0
S1057 S 0.29222 0.8157 0.55035 0.0
N1058 N 0.29758 0.77872 0.55514 0.0
N1059 N 0.27854 0.81119 0.51158 0.0
C1060 C 0.27728 0.7782 0.50116 0.0
C1061 C 0.28797 0.76091 0.52439 0.0
C1062 C 0.64144 0.05484 0.67804 0.0
C1063 C 0.66703 0.07947 0.6852 0.0
C1064 C 0.61919 0.05776 0.65524 0.0
C1065 C 0.62204 0.08584 0.64018 0.0
H1066 H 0.63874 1.03328 0.68996 0.0
H1067 H 0.60004 1.0379 0.64902 0.0
S1068 S 0.68352 0.15915 0.65433 0.0
N1069 N 0.6934 0.13353 0.6773 0.0
N1070 N 0.65092 0.14019 0.63641 0.0
C1071 C 0.64697 0.1114 0.64865 0.0
C1072 C 0.66982 0.10784 0.67062 0.0
C1073 C 0.39655 0.39516 0.95417 0.0
C1074 C 0.37613 0.38474 0.97475 0.0
C1075 C 0.39124 0.38434 0.91998 0.0
C1076 C 0.36509 0.363 0.90485 0.0
H1077 H 0.41667 0.41242 0.96445 0.0
H1078 H 0.40739 0.39362 0.90522 0.0
S1079 S 0.30505 0.32668 0.94702 0.0
N1080 N 0.32904 0.35037 0.977 0.0
N1081 N 0.31916 0.33048 0.91286 0.0
C1082 C 0.34471 0.35187 0.92497 0.0
C1083 C 0.35019 0.36258 0.95984 0.0
C1084 C 1.03013 0.12763 0.41574 0.0
C1085 C 1.02724 0.10413 0.38606 0.0
C1086 C 0.04504 0.12432 0.44657 0.0
C1087 C 0.05791 0.09689 0.45064 0.0
H1088 H 1.02086 0.14923 0.41526 0.0
H1089 H 0.04618 0.14357 0.4677 0.0
S1090 S 0.05622 1.02706 0.38167 0.0
N1091 N 0.03906 0.05174 0.36413 0.0
N1092 N 0.06557 0.04517 0.42052 0.0
C1093 C 0.05486 0.07305 0.4212 0.0
C1094 C 0.04014 0.07672 0.38977 0.0
C1095 C 0.35552 0.78314 0.65835 0.0
C1096 C 0.34795 0.74914 0.66056 0.0
C1097 C 0.35418 0.80786 0.68463 0.0
C1098 C 0.34505 0.79921 0.71368 0.0
H1099 H 0.36235 0.79076 0.63614 0.0
H1100 H 0.36097 0.83379 0.68244 0.0
S1101 S 0.32148 0.71348 0.73095 0.0
N1102 N 0.33034 0.70803 0.6936 0.0
N1103 N 0.32717 0.75423 0.74261 0.0
C1104 C 0.33677 0.76521 0.71579 0.0
C1105 C 0.33851 0.7402 0.68934 0.0
C1106 C 0.70109 0.17271 0.85252 0.0
C1107 C 0.68484 0.14374 0.83156 0.0
C1108 C 0.68859 0.19023 0.87609 0.0
C1109 C 0.65968 0.17918 0.87907 0.0
H1110 H 0.72385 0.18124 0.85161 0.0
H1111 H 0.70183 0.21118 0.89339 0.0
S1112 S 0.60766 0.10587 0.8289 0.0
N1113 N 0.63813 0.106 0.81366 0.0
N1114 N 0.61463 0.13852 0.85891 0.0
C1115 C 0.64278 0.1513 0.85713 0.0
C1116 C 0.65546 0.13356 0.83307 0.0
C1117 C 0.35604 0.35841 0.15204 0.0
C1118 C 0.37182 0.39151 0.15644 0.0
C1119 C 0.3462 0.34442 0.1786 0.0
C1120 C 0.352 0.36253 0.21108 0.0
H1121 H 0.35066 0.34327 0.12772 0.0
H1122 H 0.33393 0.31887 0.17345 0.0
S1123 S 0.39417 0.44953 0.23641 0.0
N1124 N 0.39323 0.44204 0.19616 0.0
N1125 N 0.37635 0.41482 0.24603 0.0
C1126 C 0.36847 0.39531 0.21599 0.0
C1127 C 0.37791 0.40999 0.18875 0.0
C1128 C 0.28217 1.02717 0.05404 0.0
C1129 C 0.30987 0.04548 0.05256 0.0
C1130 C 0.26097 0.04319 0.06426 0.0
C1131 C 0.26662 0.0781 0.07304 0.0
H1132 H 0.27666 1.00022 0.04716 0.0
H1133 H 0.23984 1.02811 0.06488 0.0
S1134 S 0.33613 0.1372 0.07497 0.0
N1135 N 0.34248 0.10005 0.06241 0.0
N1136 N 0.30198 0.13052 0.08058 0.0
C1137 C 0.29441 0.0967 0.0725 0.0
C1138 C 0.3162 0.08028 0.06239 0.0
C1139 C 0.70639 0.68901 0.04222 0.0
C1140 C 0.72817 0.67767 1.02629 0.0
C1141 C 0.67954 0.66753 0.04249 0.0
C1142 C 0.67289 0.6342 1.02581 0.0
H1143 H 0.71027 0.71453 0.05512 0.0
H1144 H 0.66386 0.67725 0.05571 0.0
S1145 S 0.72297 0.59156 0.98186 0.0
N1146 N 0.74159 0.63015 0.99489 0.0
N1147 N 0.69124 0.5905 0.99436 0.0
C1148 C 0.69462 0.62253 1.01004 0.0
C1149 C 0.72213 0.64407 1.01048 0.0
C1150 C 0.75638 0.44913 0.30482 0.0
C1151 C 0.76921 0.48289 0.30243 0.0
C1152 C 0.77145 0.4217 0.30285 0.0
C1153 C 0.80109 0.42489 0.29815 0.0
H1154 H 0.73401 0.44355 0.30852 0.0
H1155 H 0.75941 0.39742 0.30524 0.0
S1156 S 0.84617 0.50683 0.28936 0.0
N1157 N 0.81483 0.51621 0.29441 0.0
N1158 N 0.84204 0.46674 0.29077 0.0
C1159 C 0.8141 0.45846 0.29556 0.0
C1160 C 0.79879 0.48633 0.29762 0.0
C1161 C 0.96906 0.54231 0.55025 0.0
C1162 C 0.95079 0.53564 0.52058 0.0
C1163 C 0.99858 0.55095 0.55093 0.0
C1164 C 1.01098 0.55309 0.52189 0.0
H1165 H 0.96049 0.54042 0.57318 0.0
H1166 H 1.01165 0.55583 0.57462 0.0
S1167 S 0.97152 0.53657 0.43754 0.0
N1168 N 0.94614 0.53077 0.46145 0.0
N1169 N 1.0023 0.54733 0.46226 0.0
C1170 C 0.99274 0.54653 0.49183 0.0
C1171 C 0.96241 0.53783 0.49131 0.0
C1172 C 0.40264 0.1169 0.29608 0.0
C1173 C 0.43097 0.13459 0.30779 0.0
C1174 C 0.38153 0.13359 0.28782 0.0
C1175 C 0.38821 0.16831 0.29117 0.0
H1176 H 0.39637 0.09011 0.29434 0.0
H1177 H 0.35969 0.11942 0.28 0.0
S1178 S 0.45964 0.22542 0.31817 0.0
N1179 N 0.46518 0.18793 0.32027 0.0
N1180 N 0.42506 0.21966 0.30522 0.0
C1181 C 0.41661 0.1861 0.30185 0.0
C1182 C 0.43818 0.16909 0.31005 0.0
C1183 C 0.38389 0.174 0.51693 0.0
C1184 C 0.37686 0.19476 0.54348 0.0
C1185 C 0.40842 0.16071 0.52023 0.0
C1186 C 0.4265 0.16743 0.5503 0.0
H1187 H 0.37068 0.16845 0.49329 0.0
H1188 H 0.41309 0.14476 0.49921 0.0
S1189 S 0.41734 0.21997 0.62734 0.0
N1190 N 0.38984 0.2213 0.60085 0.0
N1191 N 0.43576 0.19604 0.60703 0.0
C1192 C 0.41957 0.1879 0.57707 0.0
C1193 C 0.39481 0.20169 0.57365 0.0
C1194 C 0.76522 0.69923 0.3023 0.0
C1195 C 0.77628 0.67362 0.31509 0.0
C1196 C 0.78245 0.73211 0.30208 0.0
C1197 C 0.81216 0.74187 0.31468 0.0
H1198 H 0.74286 0.69372 0.29182 0.0
H1199 H 0.77246 0.7496 0.2911 0.0
S1200 S 0.85219 0.68615 0.35272 0.0
N1201 N 0.81955 0.6625 0.34182 0.0
N1202 N 0.85098 0.72221 0.34156 0.0
C1203 C 0.82312 0.71667 0.328 0.0
C1204 C 0.80571 0.68352 0.32822 0.0
C1205 C 0.92182 0.48856 0.88507 0.0
C1206 C 0.92888 0.50746 0.86104 0.0
C1207 C 0.89945 0.46034 0.87746 0.0
C1208 C 0.88421 0.4507 0.84561 0.0
H1209 H 0.93453 0.49457 0.90905 0.0
H1210 H 0.89554 0.44478 0.89582 0.0
S1211 S 0.89252 0.49543 0.77602 0.0
N1212 N 0.9176 0.51748 0.80572 0.0
N1213 N 0.87525 0.46417 0.79144 0.0
C1214 C 0.88977 0.47102 0.82229 0.0
C1215 C 0.91239 0.49961 0.83001 0.0
C1216 C 0.15328 0.98159 0.11665 0.0
C1217 C 0.13742 0.94855 0.10586 0.0
C1218 C 0.14625 1.00839 0.10306 0.0
C1219 C 0.1227 1.00354 0.07837 0.0
H1220 H 0.17124 0.98693 0.13601 0.0
H1221 H 0.15909 1.03326 0.11258 0.0
S1222 S 0.07366 0.92209 0.04179 0.0
N1223 N 0.09681 0.9127 0.06885 0.0
N1224 N 0.08341 0.96282 0.04384 0.0
C1225 C 0.10661 0.97063 0.06736 0.0
C1226 C 0.114 0.94328 0.08092 0.0
C1227 C 0.96257 0.33594 0.87871 0.0
C1228 C 0.96218 0.31931 0.9058 0.0
C1229 C 0.93713 0.34061 0.86173 0.0
C1230 C 0.90989 0.32889 0.87094 0.0
H1231 H 0.9828 0.34535 0.87029 0.0
H1232 H 0.93875 0.35272 0.84058 0.0
S1233 S 0.89606 0.28286 0.93887 0.0
N1234 N 0.93144 0.29089 0.94057 0.0
N1235 N 0.88397 0.29928 0.9082 0.0
C1236 C 0.90905 0.3125 0.89791 0.0
C1237 C 0.935 0.30788 0.91547 0.0
C1238 C 0.65259 0.25426 0.59271 0.0
C1239 C 0.63353 0.26956 0.60993 0.0
C1240 C 0.64598 0.21959 0.58085 0.0
C1241 C 0.61974 0.19918 0.58503 0.0
H1242 H 0.67309 0.26896 0.58927 0.0
H1243 H 0.66157 0.2087 0.56838 0.0
S1244 S 0.56247 0.22718 0.62834 0.0
N1245 N 0.58728 0.26158 0.63047 0.0
N1246 N 0.57492 0.19697 0.60806 0.0
C1247 C 0.60044 0.21434 0.60188 0.0
C1248 C 0.60729 0.24937 0.61431 0.0
C1249 C 0.61972 0.80635 0.37863 0.0
C1250 C 0.61963 0.82386 0.4104 0.0
C1251 C 0.6448 0.81004 0.36337 0.0
C1252 C 0.67067 0.83157 0.37922 0.0
H1253 H 0.60026 0.78976 0.36536 0.0
H1254 H 0.64374 0.79652 0.33869 0.0
S1255 S 0.68223 0.88249 0.46286 0.0
N1256 N 0.648 0.86333 0.4573 0.0
N1257 N 0.69491 0.86968 0.42888 0.0
C1258 C 0.67095 0.84886 0.41112 0.0
C1259 C 0.64552 0.84516 0.42663 0.0
C1260 C 0.16263 0.31703 0.48966 0.0
C1261 C 0.14359 0.32088 0.4635 0.0
C1262 C 0.15395 0.29345 0.509 0.0
C1263 C 0.12601 0.27379 0.50275 0.0
H1264 H 0.18433 0.33211 0.49507 0.0
H1265 H 0.16902 0.29056 0.52891 0.0
S1266 S 0.06791 0.27445 0.43802 0.0
N1267 N 0.09539 0.30327 0.43267 0.0
N1268 N 0.07934 0.25886 0.4696 0.0
C1269 C 0.10673 0.27733 0.47698 0.0
C1270 C 0.11549 0.30103 0.4571 0.0
C1271 C 0.61223 0.29872 0.26874 0.0
C1272 C 0.60674 0.2934 0.23439 0.0
C1273 C 0.63996 0.30152 0.28439 0.0
C1274 C 0.66267 0.29967 0.26592 0.0
H1275 H 0.59493 0.29978 0.28349 0.0
H1276 H 0.64366 0.30481 0.31088 0.0
S1277 S 0.65957 0.28708 0.17547 0.0
N1278 N 0.62639 0.2876 0.18247 0.0
N1279 N 0.67831 0.29231 0.21197 0.0
C1280 C 0.65753 0.29499 0.23164 0.0
C1281 C 0.62953 0.29207 0.21579 0.0
C1282 C 0.65598 0.98332 1.00107 0.0
C1283 C 0.65755 0.98412 0.96787 0.0
C1284 C 0.6426 1.00486 1.01946 0.0
C1285 C 0.63015 1.02805 1.00538 0.0
H1286 H 0.66418 0.96494 1.0127 0.0
H1287 H 0.64147 1.00259 0.04487 0.0
S1288 S 0.63026 0.04174 0.9197 0.0
N1289 N 0.64694 1.01085 0.92155 0.0
N1290 N 0.62173 0.05223 0.95681 0.0
C1291 C 0.63264 1.03035 0.97251 0.0
C1292 C 0.64645 1.00816 0.95357 0.0
C1293 C 0.95586 0.82023 0.7347 0.0
C1294 C 0.96727 0.79215 0.73753 0.0
C1295 C 0.93479 0.82755 0.75322 0.0
C1296 C 0.92404 0.80667 0.77458 0.0
H1297 H 0.96326 0.83683 0.71817 0.0
H1298 H 0.92651 0.84947 0.75035 0.0
S1299 S 0.94869 0.73271 0.79372 0.0
N1300 N 0.968 0.74494 0.76531 0.0
N1301 N 0.92695 0.75855 0.79952 0.0
C1302 C 0.93517 0.77879 0.77799 0.0
C1303 C 0.95719 0.77152 0.75951 0.0
C1304 C 0.14451 0.06265 0.90153 0.0
C1305 C 0.17477 0.07486 0.90253 0.0
C1306 C 0.12949 0.06386 0.93033 0.0
C1307 C 0.14287 0.07832 0.96316 0.0
H1308 H 0.13198 0.0514 0.87797 0.0
H1309 H 0.10666 0.05308 0.9266 0.0
S1310 S 0.22203 0.11314 0.98152 0.0
N1311 N 0.21738 0.1009 0.94133 0.0
N1312 N 0.18985 0.10466 0.99329 0.0
C1313 C 0.17309 0.09087 0.96441 0.0
C1314 C 0.18854 0.08885 0.93519 0.0
C1315 C 0.89164 0.43366 0.60608 0.0
C1316 C 0.88276 0.46393 0.60848 0.0
C1317 C 0.90103 0.42287 0.63409 0.0
C1318 C 0.90174 0.44215 0.66503 0.0
H1319 H 0.89094 0.41795 0.58252 0.0
H1320 H 0.90608 0.39842 0.63157 0.0
S1321 S 0.88193 0.5237 0.68406 0.0
N1322 N 0.87639 0.51376 0.64366 0.0
N1323 N 0.89419 0.49298 0.69688 0.0
C1324 C 0.89415 0.47306 0.66773 0.0
C1325 C 0.88458 0.48412 0.63919 0.0
C1326 C 0.55475 0.13002 0.4436 0.0
C1327 C 0.54679 0.10092 0.41971 0.0
C1328 C 0.57366 0.13111 0.47151 0.0
C1329 C 0.58413 0.10287 0.47593 0.0
H1330 H 0.54624 0.15178 0.44075 0.0
H1331 H 0.57944 0.15358 0.49005 0.0
S1332 S 0.5674 1.01992 0.42245 0.0
N1333 N 0.54953 0.04277 0.40312 0.0
N1334 N 0.58447 0.04492 0.4564 0.0
C1335 C 0.57585 0.07351 0.4528 0.0
C1336 C 0.55724 0.07251 0.42426 0.0
C1337 C 0.84271 0.77807 0.15195 0.0
C1338 C 0.82227 0.78727 0.13064 0.0
C1339 C 0.84741 0.79084 0.18569 0.0
C1340 C 0.83157 0.81304 0.19993 0.0
H1341 H 0.85532 0.76074 0.1425 0.0
H1342 H 0.86329 0.78266 0.20085 0.0
S1343 S 0.77549 0.84521 0.1552 0.0
N1344 N 0.78632 0.82049 0.12625 0.0
N1345 N 0.79454 0.84377 0.18998 0.0
C1346 C 0.81096 0.82242 0.17903 0.0
C1347 C 0.80655 0.80985 0.14436 0.0
C1348 C 0.15219 0.04598 0.6926 0.0
C1349 C 0.1743 0.07197 0.7119 0.0
C1350 C 0.13773 0.04874 0.66129 0.0
C1351 C 0.14345 0.07811 0.64719 0.0
H1352 H 0.14614 1.02282 0.70151 0.0
H1353 H 0.12142 1.02758 0.64821 0.0
S1354 S 0.19905 0.15405 0.68662 0.0
N1355 N 0.20097 0.12832 0.71274 0.0
N1356 N 0.17364 0.13389 0.65642 0.0
C1357 C 0.16519 0.10434 0.66646 0.0
C1358 C 0.18045 0.10119 0.69771 0.0
C1359 C 0.84944 0.39099 0.44203 0.0
C1360 C 0.85769 0.42519 0.4412 0.0
C1361 C 0.8504 0.36716 0.41489 0.0
C1362 C 0.85964 0.37699 0.38631 0.0
H1363 H 0.84174 0.38255 0.46354 0.0
H1364 H 0.84272 0.34104 0.41587 0.0
S1365 S 0.88605 0.46368 0.37316 0.0
N1366 N 0.87737 0.46783 0.41064 0.0
N1367 N 0.87895 0.42311 0.35948 0.0
C1368 C 0.86909 0.41116 0.38576 0.0
C1369 C 0.86807 0.43532 0.41327 0.0
C1370 C 0.48468 1.02008 0.23706 0.0
C1371 C 0.50588 1.03842 0.26248 0.0
C1372 C 0.49214 1.00946 0.2064 0.0
C1373 C 0.52094 1.01607 0.20094 0.0
H1374 H 0.46214 1.0161 0.24018 0.0
H1375 H 0.47519 0.99876 0.18631 0.0
S1376 S 0.58423 0.06159 0.26152 0.0
N1377 N 0.55639 0.06134 0.28184 0.0
N1378 N 0.5709 0.04115 0.22418 0.0
C1379 C 0.54247 1.03266 0.22718 0.0
C1380 C 0.53475 0.04398 0.25807 0.0
C1381 C 0.85059 0.80818 0.94925 0.0
C1382 C 0.82821 0.77984 0.94565 0.0
C1383 C 0.86041 0.82047 0.92199 0.0
C1384 C 0.84809 0.8057 0.88944 0.0
H1385 H 0.86104 0.82088 0.97344 0.0
H1386 H 0.87787 0.84237 0.92684 0.0
S1387 S 0.78751 0.73173 0.86644 0.0
N1388 N 0.7938 0.73689 0.90682 0.0
N1389 N 0.81065 0.76204 0.85571 0.0
C1390 C 0.82515 0.77772 0.88538 0.0
C1391 C 0.81569 0.76433 0.91337 0.0
C1392 C 0.90114 0.11515 0.07022 0.0
C1393 C 0.89055 0.13507 0.04997 0.0
C1394 C 0.92272 0.09904 0.06143 0.0
C1395 C 0.93407 0.10221 1.03201 0.0
H1396 H 0.89292 0.1122 0.09315 0.0
H1397 H 0.93062 0.08403 0.07774 0.0
S1398 S 0.91378 0.15177 0.97065 0.0
N1399 N 0.89282 0.15728 0.99926 0.0
N1400 N 0.93382 0.12693 0.98289 0.0
C1401 C 0.92365 0.12198 1.01147 0.0
C1402 C 0.90176 0.13855 1.02047 0.0
C1403 C 0.49524 0.49512 0.08622 0.0
C1404 C 0.46873 0.49993 0.07212 0.0
C1405 C 0.52158 0.5172 0.0846 0.0
C1406 C 0.52248 0.54451 0.06825 0.0
H1407 H 0.49561 0.47471 0.09939 0.0
H1408 H 0.54117 0.51357 0.09729 0.0
S1409 S 0.45977 0.56681 1.02503 0.0
N1410 N 0.4457 0.53354 0.03982 0.0
N1411 N 0.49472 0.57423 0.03664 0.0
C1412 C 0.4963 0.54904 0.05345 0.0
C1413 C 0.46962 0.52693 0.05529 0.0
C1414 C 0.44335 0.72955 0.79545 0.0
C1415 C 0.4301 0.69609 0.79826 0.0
C1416 C 0.42878 0.75733 0.79763 0.0
C1417 C 0.39939 0.7547 0.80307 0.0
H1418 H 0.46559 0.73456 0.7912 0.0
H1419 H 0.44096 0.78139 0.79479 0.0
S1420 S 0.35367 0.67379 0.8135 0.0
N1421 N 0.38459 0.66366 0.80761 0.0
N1422 N 0.35826 0.71386 0.81177 0.0
C1423 C 0.38602 0.72145 0.80615 0.0
C1424 C 0.40079 0.69323 0.80379 0.0
C1425 C 0.22777 0.6303 0.54336 0.0
C1426 C 0.24228 0.64384 0.57506 0.0
C1427 C 0.19868 0.62948 0.53584 0.0
C1428 C 0.18297 0.64184 0.55983 0.0
H1429 H 0.23902 0.62077 0.52394 0.0
H1430 H 0.18828 0.6178 0.51133 0.0
S1431 S 0.21108 0.68078 0.64624 0.0
N1432 N 0.2391 0.67088 0.63037 0.0
N1433 N 0.18394 0.66857 0.61631 0.0
C1434 C 0.1972 0.6557 0.59155 0.0
C1435 C 0.22696 0.65681 0.59917 0.0
C1436 C 0.77311 1.02059 0.81406 0.0
C1437 C 0.77007 1.02815 0.78238 0.0
C1438 C 0.79659 1.00852 0.82499 0.0
C1439 C 0.81748 1.0042 0.80452 0.0
H1440 H 0.7576 1.02455 0.83067 0.0
H1441 H 0.79816 1.00192 0.84914 0.0
S1442 S 0.81979 1.0207 0.71996 0.0
N1443 N 0.78988 1.03028 0.73069 0.0
N1444 N 0.83451 1.00842 0.75199 0.0
C1445 C 0.81485 1.01182 0.77301 0.0
C1446 C 0.79086 1.02346 0.76163 0.0
C1447 C 0.82037 1.01272 0.56607 0.0
C1448 C 0.81684 0.97905 0.56927 0.0
C1449 C 0.79677 1.02764 0.56344 0.0
C1450 C 0.76879 1.00954 0.56425 0.0
H1451 H 0.84152 1.02768 0.56542 0.0
H1452 H 0.80053 0.05372 0.56125 0.0
S1453 S 0.74777 0.92077 0.5723 0.0
N1454 N 0.78301 0.92799 0.57313 0.0
N1455 N 0.7387 0.95626 0.56818 0.0
C1456 C 0.76489 0.97592 0.56749 0.0
C1457 C 0.78889 0.96059 0.56992 0.0
C1458 C 0.39158 0.49541 0.77598 0.0
C1459 C 0.42098 0.50549 0.78954 0.0
C1460 C 0.37393 0.46338 0.77725 0.0
C1461 C 0.38403 0.43823 0.79168 0.0
H1462 H 0.38175 0.51271 0.76448 0.0
H1463 H 0.35159 0.45838 0.76678 0.0
S1464 S 0.45907 0.45118 0.83247 0.0
N1465 N 0.45898 0.48648 0.81903 0.0
N1466 N 0.42635 0.42758 0.82123 0.0
C1467 C 0.41345 0.44783 0.80532 0.0
C1468 C 0.43149 0.48071 0.80427 0.0
C1469 C 0.26937 0.71057 0.25681 0.0
C1470 C 0.28361 0.68427 0.25784 0.0
C1471 C 0.28271 0.74279 0.27236 0.0
C1472 C 0.31073 0.74948 0.28856 0.0
H1473 H 0.2471 0.70595 0.24612 0.0
H1474 H 0.27105 0.76253 0.27188 0.0
S1475 S 0.35833 0.6908 0.2953 0.0
N1476 N 0.32774 0.66754 0.27497 0.0
N1477 N 0.35354 0.72936 0.30232 0.0
C1478 C 0.326 0.72429 0.28783 0.0
C1479 C 0.3122 0.69122 0.27287 0.0
C1480 C 0.57138 0.73715 0.52992 0.0
C1481 C 0.55834 0.733 0.49716 0.0
C1482 C 0.57982 0.71048 0.54269 0.0
C1483 C 0.57503 0.67839 0.52345 0.0
H1484 H 0.5754 0.7613 0.54579 0.0
H1485 H 0.58985 0.71493 0.5679 0.0
S1486 S 0.54466 0.65458 0.43562 0.0
N1487 N 0.54336 0.69425 0.44527 0.0
N1488 N 0.55838 0.64453 0.46955 0.0
C1489 C 0.56251 0.67399 0.4907 0.0
C1490 C 0.55439 0.70112 0.47751 0.0
C1491 C 0.75514 0.37413 0.70635 0.0
C1492 C 0.72807 0.37288 0.71749 0.0
C1493 C 0.77986 0.37324 0.72757 0.0
C1494 C 0.77861 0.37118 0.76083 0.0
H1495 H 0.75735 0.37617 0.68109 0.0
H1496 H 0.80021 0.3749 0.71803 0.0
S1497 S 0.71258 0.36356 0.80164 0.0
N1498 N 0.70153 0.36695 0.76381 0.0
N1499 N 0.74739 0.36538 0.80316 0.0
C1500 C 0.75153 0.3689 0.77198 0.0
C1501 C 0.7265 0.36976 0.75051 0.0
C1502 C 0.04574 0.43802 0.99276 0.0
C1503 C 0.06333 0.41679 1.00165 0.0
C1504 C 0.05327 0.47246 1.00499 0.0
C1505 C 0.07926 0.48724 1.0257 0.0
H1506 H 1.02599 0.42788 0.97613 0.0
H1507 H 0.03886 0.48767 0.99748 0.0
S1508 S 0.13349 0.44256 0.05487 0.0
N1509 N 0.10786 0.41277 1.03219 0.0
N1510 N 0.1228 0.47773 0.05384 0.0
C1511 C 0.09717 0.46624 0.03442 0.0
C1512 C 0.08902 0.43097 1.02277 0.0
C1513 C 0.06908 0.88842 0.22356 0.0
C1514 C 0.07673 0.86142 0.2044 0.0
C1515 C 0.04365 0.88381 0.2381 0.0
C1516 C 1.02558 0.85196 0.23444 0.0
H1517 H 0.08259 0.91325 0.22694 0.0
H1518 H 0.03839 0.90508 0.25283 0.0
S1519 S 0.03644 0.77312 0.1877 0.0
N1520 N 0.0643 0.80174 0.1829 0.0
N1521 N 1.01703 0.79316 0.21075 0.0
C1522 C 1.03311 0.82484 0.21555 0.0
C1523 C 0.05859 0.82955 0.20038 0.0
C1524 C 0.56625 0.38694 0.14882 0.0
C1525 C 0.55891 0.35319 0.13396 0.0
C1526 C 0.57844 0.41106 0.13162 0.0
C1527 C 0.58366 0.40192 0.09924 0.0
H1528 H 0.56191 0.39486 0.17352 0.0
H1529 H 0.58318 0.43706 0.14338 0.0
S1530 S 0.57086 0.31641 0.05078 0.0
N1531 N 0.55997 0.31133 0.08638 0.0
N1532 N 0.58207 0.35706 0.05349 0.0
C1533 C 0.57752 0.36813 0.08461 0.0
C1534 C 0.56523 0.34359 0.10215 0.0
C1535 C 0.08504 0.38616 0.32376 0.0
C1536 C 0.08841 0.39263 0.35823 0.0
C1537 C 0.05919 0.38683 0.30575 0.0
C1538 C 0.03656 0.39441 0.322 0.0
H1539 H 0.10233 0.38026 0.31068 0.0
H1540 H 0.05682 0.38141 0.27921 0.0
S1541 S 0.0348 0.41422 0.41146 0.0
N1542 N 0.06715 0.4074 0.4078 0.0
N1543 N 1.01855 0.4089 0.37362 0.0
C1544 C 0.03967 0.40123 0.35629 0.0
C1545 C 0.06572 0.40028 0.37459 0.0
C1546 C 0.06057 0.67956 0.63011 0.0
C1547 C 0.04128 0.69904 0.62124 0.0
C1548 C 0.07261 0.66132 0.60623 0.0
C1549 C 0.06592 0.66249 0.573 0.0
H1550 H 0.06737 0.67953 0.65567 0.0
H1551 H 0.08807 0.64739 0.61388 0.0
S1552 S 1.01446 0.70663 0.53673 0.0
N1553 N 1.01435 0.71613 0.57667 0.0
N1554 N 0.03706 0.68175 0.53194 0.0
C1555 C 0.04557 0.68031 0.56369 0.0
C1556 C 1.03314 0.69861 0.58783 0.0
C1557 C 0.75319 0.86204 0.87541 0.0
C1558 C 0.73763 0.88378 0.86347 0.0
C1559 C 0.77368 0.8508 0.85787 0.0
C1560 C 0.77938 0.8617 0.8285 0.0
H1561 H 0.74905 0.85311 0.89795 0.0
H1562 H 0.78553 0.83406 0.86759 0.0
S1563 S 0.74476 0.91863 0.78739 0.0
N1564 N 0.72886 0.91538 0.82054 0.0
N1565 N 0.76864 0.89509 0.78822 0.0
C1566 C 0.76425 0.8835 0.81644 0.0
C1567 C 0.74292 0.89435 0.83383 0.0
C1568 C 0.54988 0.62879 0.69644 0.0
C1569 C 0.52434 0.60495 0.69836 0.0
C1570 C 0.565 0.62864 0.66783 0.0
C1571 C 0.55675 0.60418 0.63826 0.0
H1572 H 0.55836 0.64847 0.71741 0.0
H1573 H 0.58386 0.64837 0.66914 0.0
S1574 S 0.49163 0.53516 0.62848 0.0
N1575 N 0.49177 0.5557 0.66585 0.0
N1576 N 0.52004 0.55475 0.6143 0.0
C1577 C 0.53149 0.57985 0.63995 0.0
C1578 C 0.51564 0.58042 0.66891 0.0
C1579 C 0.78889 0.25946 1.01937 0.0
C1580 C 0.78787 0.22534 1.0096 0.0
C1581 C 0.77906 0.27752 0.99724 0.0
C1582 C 0.76818 0.26177 0.96499 0.0
H1583 H 0.79893 0.27279 0.04352 0.0
H1584 H 0.7828 0.30441 1.00437 0.0
S1585 S 0.75661 0.1724 0.929 0.0
N1586 N 0.77134 0.17557 0.96719 0.0
N1587 N 0.75365 0.21045 0.92504 0.0
C1588 C 0.76441 0.22727 0.95584 0.0
C1589 C 0.77422 0.20872 0.97838 0.0
C1590 C 0.14178 0.60307 0.19457 0.0
C1591 C 0.15497 0.57611 0.19639 0.0
C1592 C 0.12247 0.60269 0.16737 0.0
C1593 C 0.11525 0.57491 0.14203 0.0
H1594 H 0.14763 0.62533 0.21339 0.0
H1595 H 0.11373 0.62455 0.16569 0.0
S1596 S 0.14338 0.49815 0.13576 0.0
N1597 N 0.15984 0.52126 0.171 0.0
N1598 N 0.12197 0.51989 0.12005 0.0
C1599 C 0.12752 0.54743 0.14393 0.0
C1600 C 0.1479 0.54821 0.17121 0.0
C1601 C 0.85158 0.86715 0.463 0.0
C1602 C 0.87598 0.89214 0.47738 0.0
C1603 C 0.84613 0.85583 0.42874 0.0
C1604 C 0.86532 0.86832 0.40777 0.0
H1605 H 0.83613 0.85708 0.47817 0.0
H1606 H 0.82681 0.8371 0.41859 0.0
S1607 S 0.93253 0.9335 0.43326 0.0
N1608 N 0.91938 0.92895 0.46784 0.0
N1609 N 0.90979 0.90685 0.40407 0.0
C1610 C 0.89008 0.8927 0.42199 0.0
C1611 C 0.89521 0.90481 0.45659 0.0
C1612 C 0.52999 0.62855 0.91644 0.0
C1613 C 0.52684 0.6047 0.887 0.0
C1614 C 0.54451 0.62514 0.94737 0.0
C1615 C 0.55656 0.59723 0.95175 0.0
H1616 H 0.52128 0.6505 0.91564 0.0
H1617 H 0.546 0.64471 0.96833 0.0
S1618 S 0.55387 0.5264 0.88349 0.0
N1619 N 0.53749 0.55149 0.86557 0.0
N1620 N 0.56332 0.54475 0.92226 0.0
C1621 C 0.55327 0.57304 0.92256 0.0
C1622 C 0.53898 0.57682 0.89101 0.0
C1623 C 0.83613 0.24229 0.18534 0.0
C1624 C 0.84246 0.25081 0.15523 0.0
C1625 C 0.83522 0.26679 0.21173 0.0
C1626 C 0.84094 0.30069 0.209 0.0
H1627 H 0.83173 0.21651 0.18862 0.0
H1628 H 0.83078 0.25907 0.2347 0.0
S1629 S 0.85697 0.33598 0.13499 0.0
N1630 N 0.8531 0.29533 0.12349 0.0
N1631 N 0.85193 0.34163 0.17389 0.0
C1632 C 0.84663 0.30959 0.17892 0.0
C1633 C 0.84743 0.28457 0.15184 0.0
C1634 C 0.19154 0.69163 0.33855 0.0
C1635 C 0.20946 0.66984 0.34465 0.0
C1636 C 0.1757 0.70286 0.36256 0.0
C1637 C 0.17709 0.69183 0.3927 0.0
H1638 H 0.18696 0.69667 0.31408 0.0
H1639 H 0.15892 0.71539 0.35561 0.0
S1640 S 0.22797 0.64367 0.42337 0.0
N1641 N 0.23379 0.6453 0.38523 0.0
N1642 N 0.20317 0.66531 0.43024 0.0
C1643 C 0.19901 0.67545 0.401 0.0
C1644 C 0.21528 0.66428 0.37665 0.0
C1645 C 0.88567 0.86914 0.67257 0.0
C1646 C 0.87368 0.89511 0.6633 0.0
C1647 C 0.87778 0.85466 0.69986 0.0
C1648 C 0.85776 0.86565 0.71926 0.0
H1649 H 0.90093 0.85955 0.65837 0.0
H1650 H 0.88659 0.83375 0.70504 0.0
S1651 S 0.81591 0.92788 0.70172 0.0
N1652 N 0.83839 0.9286 0.67414 0.0
N1653 N 0.82306 0.90025 0.72391 0.0
C1654 C 0.8449 0.89054 0.70949 0.0
C1655 C 0.85308 0.90563 0.68208 0.0
C1656 C 0.81015 0.57426 0.56268 0.0
C1657 C 0.80194 0.54225 0.54316 0.0
C1658 C 0.7896 0.59078 0.57415 0.0
C1659 C 0.76038 0.57582 0.56611 0.0
H1660 H 0.83259 0.58662 0.56935 0.0
H1661 H 0.79654 0.61565 0.58871 0.0
S1662 S 0.72777 0.49188 0.5172 0.0
N1663 N 0.76273 0.49557 0.51745 0.0
N1664 N 0.72388 0.52719 0.53871 0.0
C1665 C 0.75181 0.54365 0.54711 0.0
C1666 C 0.77271 0.52665 0.5357 0.0
C1667 C 0.20802 0.18681 0.54266 0.0
C1668 C 0.22784 0.17744 0.52209 0.0
C1669 C 0.18177 0.16475 0.54423 0.0
C1670 C 0.17362 0.13281 0.52434 0.0
H1671 H 0.2131 0.21118 0.55829 0.0
H1672 H 0.16768 0.17294 0.56099 0.0
S1673 S 0.21817 0.09562 0.46708 0.0
N1674 N 0.23784 0.13326 0.48252 0.0
N1675 N 0.18834 0.09267 0.48417 0.0
C1676 C 0.19331 0.12317 0.50371 0.0
C1677 C 0.22036 0.14522 0.50288 0.0
C1678 C 0.30066 0.98592 0.8118 0.0
C1679 C 0.27019 0.98163 0.80392 0.0
C1680 C 0.31572 0.95862 0.80997 0.0
C1681 C 0.302 0.9239 0.80054 0.0
H1682 H 0.31342 1.01109 0.81951 0.0
H1683 H 0.33882 0.9651 0.81653 0.0
S1684 S 0.22254 0.89663 0.77676 0.0
N1685 N 0.22737 0.93767 0.78551 0.0
N1686 N 0.25463 0.88817 0.78293 0.0
C1687 C 0.27155 0.91922 0.79275 0.0
C1688 C 0.25624 0.94706 0.79416 0.0
C1689 C 0.46324 0.04252 0.99302 0.0
C1690 C 0.45339 1.01584 1.00887 0.0
C1691 C 0.49252 0.05302 0.99115 0.0
C1692 C 0.51257 1.03733 1.00551 0.0
H1693 H 0.44845 0.0562 0.98323 0.0
H1694 H 0.49962 0.07514 0.98084 0.0
S1695 S 0.49775 0.96452 0.04667 0.0
N1696 N 0.4659 0.97207 0.03643 0.0
N1697 N 0.52096 0.99269 0.03338 0.0
C1698 C 0.50289 1.00947 1.01947 0.0
C1699 C 0.47321 0.99849 1.02111 0.0
C1700 C 0.90485 0.62853 0.83183 0.0
C1701 C 0.92921 0.62964 0.8156 0.0
C1702 C 0.8817 0.64002 0.81938 0.0
C1703 C 0.88223 0.65288 0.79033 0.0
H1704 H 0.90384 0.61939 0.85476 0.0
H1705 H 0.86379 0.64034 0.83332 0.0
S1706 S 0.93924 0.65724 0.73632 0.0
N1707 N 0.95151 0.64145 0.76738 0.0
N1708 N 0.90746 0.66371 0.74394 0.0
C1709 C 0.9056 0.65242 0.77271 0.0
C1710 C 0.92941 0.64078 0.78551 0.0
C1711 C 0.88133 0.66631 1.02505 0.0
C1712 C 0.88251 0.69889 0.04119 0.0
C1713 C 0.90456 0.65124 1.02953 0.0
C1714 C 0.92972 0.66801 0.0507 0.0
H1715 H 0.86234 0.65233 1.00867 0.0
H1716 H 0.90279 0.62618 1.01626 0.0
S1717 S 0.94295 0.75288 0.1006 0.0
N1718 N 0.91058 0.74724 0.08005 0.0
N1719 N 0.95406 0.71832 0.08908 0.0
C1720 C 0.93117 0.70051 0.06724 0.0
C1721 C 0.90758 0.71608 0.0624 0.0
C1722 C 0.30559 0.18007 0.81578 0.0
C1723 C 0.2752 0.17312 0.81299 0.0
C1724 C 0.32274 0.21224 0.81444 0.0
C1725 C 0.31129 0.24061 0.81012 0.0
H1726 H 0.31655 0.16024 0.819 0.0
H1727 H 0.34579 0.21472 0.81672 0.0
S1728 S 0.23267 0.23709 0.80021 0.0
N1729 N 0.23436 0.19876 0.80491 0.0
N1730 N 0.26618 0.25808 0.80231 0.0
C1731 C 0.28082 0.23419 0.80714 0.0
C1732 C 0.26316 0.20116 0.80858 0.0
C1733 C 0.41694 0.98985 0.38746 0.0
C1734 C 0.42014 1.01249 0.36602 0.0
C1735 C 0.39679 0.95981 0.37832 0.0
C1736 C 0.3803 0.95164 0.34714 0.0
H1737 H 0.4311 0.99457 0.4104 0.0
H1738 H 0.39569 0.94197 0.39477 0.0
S1739 S 0.38096 1.00303 0.28253 0.0
N1740 N 0.40507 1.02563 0.31293 0.0
N1741 N 0.3674 0.96851 0.2956 0.0
C1742 C 0.38257 0.97463 0.32608 0.0
C1743 C 0.40262 1.00537 0.33558 0.0
C1744 C 0.61137 0.44777 0.5894 0.0
C1745 C 0.63913 0.44999 0.60556 0.0
C1746 C 0.60406 0.47466 0.57621 0.0
C1747 C 0.62426 0.50494 0.57812 0.0
H1748 H 0.59486 0.42533 0.58765 0.0
H1749 H 0.58221 0.47174 0.56479 0.0
S1750 S 0.70037 0.52295 0.61634 0.0
N1751 N 0.68706 0.48472 0.62191 0.0
N1752 N 0.67374 0.53475 0.5966 0.0
C1753 C 0.65228 0.50716 0.59359 0.0
C1754 C 0.65957 0.47992 0.60744 0.0
C1755 C 0.43781 0.81632 0.41223 0.0
C1756 C 0.46583 0.82498 0.40353 0.0
C1757 C 0.41371 0.82441 0.39501 0.0
C1758 C 0.41672 0.84234 0.36894 0.0
H1759 H 0.43444 0.80305 0.43239 0.0
H1760 H 0.39272 0.81711 0.40255 0.0
S1761 S 0.4858 0.87169 0.33715 0.0
N1762 N 0.49479 0.85267 0.36708 0.0
N1763 N 0.45088 0.86837 0.33576 0.0
C1764 C 0.44483 0.85118 0.36037 0.0
C1765 C 0.46891 0.84244 0.37733 0.0
C1766 C 0.15453 0.75289 0.10246 0.0
C1767 C 0.13313 0.76919 0.11284 0.0
C1768 C 0.14843 0.71799 0.09202 0.0
C1769 C 0.12058 0.69826 0.09103 0.0
H1770 H 0.1763 0.76702 0.10345 0.0
H1771 H 0.1657 0.70644 0.08476 0.0
S1772 S 0.05669 0.72932 0.11395 0.0
N1773 N 0.08282 0.76312 0.1203 0.0
N1774 N 0.07143 0.6981 0.10068 0.0
C1775 C 0.09896 0.71453 0.10063 0.0
C1776 C 0.10521 0.74981 0.11153 0.0
C1777 C 0.11688 0.31621 0.87305 0.0
C1778 C 0.11895 0.32221 0.90745 0.0
C1779 C 0.14154 0.31976 0.85717 0.0
C1780 C 0.16932 0.32911 0.87503 0.0
H1781 H 0.09603 0.3093 0.85819 0.0
H1782 H 0.13882 0.31522 0.83062 0.0
S1783 S 0.18663 0.34762 0.96566 0.0
N1784 N 0.15118 0.33776 0.95897 0.0
N1785 N 0.19739 0.34457 0.92907 0.0
C1786 C 0.17172 0.33483 0.90945 0.0
C1787 C 0.1466 0.33142 0.92565 0.0
C1788 C 0.65934 0.8302 0.99402 0.0
C1789 C 0.64574 0.82596 0.96174 0.0
C1790 C 0.65119 0.80672 1.01363 0.0
C1791 C 0.62932 0.77834 1.00146 0.0
H1792 H 0.67635 0.85184 1.00431 0.0
H1793 H 0.66232 0.81053 0.0383 0.0
S1794 S 0.58617 0.75613 0.91929 0.0
N1795 N 0.60875 0.79166 0.91875 0.0
N1796 N 0.59345 0.74735 0.95604 0.0
C1797 C 0.61527 0.77384 0.96945 0.0
C1798 C 0.62346 0.7978 0.94945 0.0
C1799 C 0.13538 0.82023 0.731 0.0
C1800 C 0.11129 0.80658 0.74517 0.0
C1801 C 0.16294 0.82092 0.74529 0.0
C1802 C 0.16705 0.80837 0.77422 0.0
H1803 H 0.13296 0.82828 0.70758 0.0
H1804 H 0.18095 0.82891 0.7324 0.0
S1805 S 0.11166 0.77503 0.82342 0.0
N1806 N 0.09349 0.78423 0.79167 0.0
N1807 N 0.14589 0.78551 0.81856 0.0
C1808 C 0.14355 0.79766 0.79025 0.0
C1809 C 0.11538 0.79687 0.77569 0.0
C1810 C 0.17619 0.50228 0.48745 0.0
C1811 C 0.16105 0.48629 0.4569 0.0
C1812 C 0.16569 0.52606 0.50703 0.0
C1813 C 0.13923 0.53353 0.49707 0.0
H1814 H 0.1956 0.49536 0.49681 0.0
H1815 H 0.17767 0.53723 0.53094 0.0
S1816 S 0.09185 0.49874 0.4185 0.0
N1817 N 0.11918 0.48024 0.41648 0.0
N1818 N 0.09869 0.52432 0.45427 0.0
C1819 C 0.1244 0.51872 0.46595 0.0
C1820 C 0.13552 0.49505 0.44558 0.0
C1821 C 0.44663 0.27548 0.25028 0.0
C1822 C 0.45783 0.2959 0.22869 0.0
C1823 C 0.42592 0.28411 0.26909 0.0
C1824 C 0.41672 0.31349 0.26745 0.0
H1825 H 0.45384 0.2528 0.25257 0.0
H1826 H 0.41696 0.26828 0.28525 0.0
S1827 S 0.43819 0.37451 0.21346 0.0
N1828 N 0.45714 0.346 0.20537 0.0
N1829 N 0.41885 0.36246 0.24179 0.0
C1830 C 0.42748 0.33399 0.24576 0.0
C1831 C 0.44795 0.32501 0.22602 0.0
C1832 C 0.68642 0.57672 0.4355 0.0
C1833 C 0.67281 0.57517 0.40296 0.0
C1834 C 0.67167 0.57803 0.46448 0.0
C1835 C 0.64206 0.5791 0.46434 0.0
H1836 H 0.70895 0.57607 0.43875 0.0
H1837 H 0.68366 0.57726 0.48745 0.0
S1838 S 0.595 0.57637 0.38673 0.0
N1839 N 0.62633 0.57493 0.37387 0.0
N1840 N 0.59991 0.57813 0.42683 0.0
C1841 C 0.62819 0.57776 0.43206 0.0
C1842 C 0.64301 0.57584 0.40237 0.0
C1843 C 0.37095 0.95793 0.13571 0.0
C1844 C 0.39116 0.96766 0.11518 0.0
C1845 C 0.37859 0.94326 0.16192 0.0
C1846 C 0.40631 0.93733 0.16724 0.0
H1847 H 0.34905 0.96082 0.13089 0.0
H1848 H 0.36234 0.93469 0.17689 0.0
S1849 S 0.46578 0.95599 0.11866 0.0
N1850 N 0.43955 0.9703 0.10113 0.0
N1851 N 0.45325 0.94032 0.14973 0.0
C1852 C 0.42658 0.94684 0.14687 0.0
C1853 C 0.41914 0.96275 0.12083 0.0
C1854 C 0.07679 0.59368 0.92079 0.0
C1855 C 0.0563 0.61354 0.92035 0.0
C1856 C 0.09314 0.59305 0.95 0.0
C1857 C 0.08952 0.61243 0.97917 0.0
H1858 H 0.07916 0.57718 0.89887 0.0
H1859 H 0.10793 0.57649 0.95 0.0
S1860 S 0.04072 0.67029 0.99091 0.0
N1861 N 0.03452 0.65435 0.95139 0.0
N1862 N 0.0658 0.65308 1.00651 0.0
C1863 C 0.07017 0.63334 0.9791 0.0
C1864 C 0.05345 0.63404 0.94945 0.0
C1865 C 0.29845 0.28487 0.64772 0.0
C1866 C 0.31946 0.29409 0.62743 0.0
C1867 C 0.30335 0.29631 0.68185 0.0
C1868 C 0.32981 0.31674 0.6973 0.0
H1869 H 0.27809 0.26825 0.63715 0.0
H1870 H 0.28663 0.28807 0.69634 0.0
S1871 S 0.39213 0.348 0.65579 0.0
N1872 N 0.36776 0.32535 0.62562 0.0
N1873 N 0.37716 0.34613 0.68968 0.0
C1874 C 0.35094 0.32634 0.67736 0.0
C1875 C 0.34574 0.31526 0.6425 0.0
C1876 C 0.66366 0.60132 0.2059 0.0
C1877 C 0.67079 0.57115 0.21265 0.0
C1878 C 0.64903 0.60434 0.1749 0.0
C1879 C 0.64023 0.57744 0.14768 0.0
H1880 H 0.66963 0.62335 0.22493 0.0
H1881 H 0.64484 0.62846 0.17226 0.0
S1882 S 0.65183 0.49206 0.15099 0.0
N1883 N 0.66634 0.51316 0.18784 0.0
N1884 N 0.63969 0.5188 0.13106 0.0
C1885 C 0.64702 0.54709 0.15408 0.0
C1886 C 0.66185 0.54397 0.18572 0.0
C1887 C 0.34176 0.89081 0.94393 0.0
C1888 C 0.35356 0.9247 0.94486 0.0
C1889 C 0.34331 0.86697 0.91707 0.0
C1890 C 0.35674 0.87649 0.89053 0.0
H1891 H 0.33112 0.88269 0.96398 0.0
H1892 H 0.33309 0.84117 0.91668 0.0
S1893 S 0.39348 0.96198 0.88295 0.0
N1894 N 0.38123 0.9665 0.91863 0.0
N1895 N 0.38322 0.92181 0.86747 0.0
C1896 C 0.36927 0.91029 0.89164 0.0
C1897 C 0.36786 0.93445 0.919 0.0
C1898 C 1.01096 0.51833 0.74709 0.0
C1899 C 0.99317 0.54054 0.75407 0.0
C1900 C 1.01733 0.51074 0.71536 0.0
C1901 C 1.00567 0.52501 0.69015 0.0
H1902 H 1.02229 0.50966 0.76665 0.0
H1903 H 0.03413 0.49716 0.7117 0.0
S1904 S 0.95153 0.57674 0.69539 0.0
N1905 N 0.9595 0.57125 0.73333 0.0
N1906 N 0.97054 0.5556 0.6728 0.0
C1907 C 0.98427 0.54276 0.69616 0.0
C1908 C 0.97842 0.55123 0.72859 0.0
C1909 C 0.35593 0.28923 0.43639 0.0
C1910 C 0.32738 0.28373 0.44365 0.0
C1911 C 0.36328 0.29937 0.40702 0.0
C1912 C 0.34247 0.30424 0.3831 0.0
H1913 H 0.37298 0.28578 0.45368 0.0
H1914 H 0.38563 0.30363 0.40311 0.0
S1915 S 0.26448 0.29341 0.3896 0.0
N1916 N 0.27808 0.28406 0.42402 0.0
N1917 N 0.29177 0.30291 0.36892 0.0
C1918 C 0.31374 0.29867 0.38982 0.0
C1919 C 0.30627 0.28855 0.41998 0.0
C1920 C 0.40019 0.61244 0.56999 0.0
C1921 C 0.39029 0.63335 0.5504 0.0
C1922 C 0.4216 0.59615 0.56098 0.0
C1923 C 0.43346 0.60011 0.53199 0.0
H1924 H 0.39168 0.60902 0.59268 0.0
H1925 H 0.42904 0.58046 0.57685 0.0
S1926 S 0.41446 0.65175 0.47201 0.0
N1927 N 0.3933 0.65683 0.50048 0.0
N1928 N 0.43408 0.62626 0.48373 0.0
C1929 C 0.42354 0.62066 0.51196 0.0
C1930 C 0.40179 0.63737 0.52118 0.0
C1931 C 0.98176 1.02881 0.60018 0.0
C1932 C 0.97292 0.9963 0.58151 0.0
C1933 C 1.00824 0.04995 0.5977 0.0
C1934 C 1.02678 0.04014 0.57555 0.0
H1935 H 0.96817 1.03801 0.61707 0.0
H1936 H 1.01397 0.07451 0.61296 0.0
S1937 S 1.01301 0.95831 0.51946 0.0
N1938 N 0.98503 0.9555 0.53985 0.0
N1939 N 0.03327 0.99598 0.53339 0.0
C1940 C 1.01777 1.00806 0.55609 0.0
C1941 C 0.99136 0.98601 0.55954 0.0
C1942 C 0.89972 0.19282 0.28358 0.0
C1943 C 0.92968 0.19647 0.29459 0.0
C1944 C 0.88481 0.2203 0.28555 0.0
C1945 C 0.8982 0.25468 0.29828 0.0
H1946 H 0.88722 0.16801 0.27318 0.0
H1947 H 0.86212 0.21427 0.27639 0.0
S1948 S 0.97601 0.2801 0.3323 0.0
N1949 N 0.97147 0.2394 0.32025 0.0
N1950 N 0.94455 0.2892 0.32318 0.0
C1951 C 0.92812 0.25871 0.30941 0.0
C1952 C 0.94324 0.23066 0.30781 0.0
C1953 C 0.72572 0.14808 0.09396 0.0
C1954 C 0.7406 0.13488 0.0695 0.0
C1955 C 0.69639 0.14672 0.08764 0.0
C1956 C 0.68096 0.13234 0.05658 0.0
H1957 H 0.73692 0.16044 0.11795 0.0
H1958 H 0.68574 0.15712 0.10723 0.0
S1959 S 0.70942 0.09219 0.98473 0.0
N1960 N 0.7375 0.10561 1.01337 0.0
N1961 N 0.68216 0.10293 1.00162 0.0
C1962 C 0.69539 0.11844 1.03205 0.0
C1963 C 0.72526 0.1196 0.03853 0.0
C1964 C 0.25328 0.50623 0.30146 0.0
C1965 C 0.2623 0.54046 0.30251 0.0
C1966 C 0.27209 0.48883 0.31474 0.0
C1967 C 0.29989 0.50569 0.32962 0.0
H1968 H 0.23241 0.49273 0.28875 0.0
H1969 H 0.26555 0.46192 0.3118 0.0
S1970 S 0.33184 0.59603 0.34108 0.0
N1971 N 0.29921 0.59134 0.32155 0.0
N1972 N 0.33476 0.55835 0.34658 0.0
C1973 C 0.30827 0.54029 0.33266 0.0
C1974 C 0.28931 0.55787 0.31894 0.0
C1975 C 0.31087 0.49939 0.09389 0.0
C1976 C 0.31792 0.4812 0.06564 0.0
C1977 C 0.28659 0.51325 0.09246 0.0
C1978 C 0.26882 0.50972 0.06265 0.0
H1979 H 0.32404 0.50272 0.11732 0.0
H1980 H 0.28205 0.52743 0.1147 0.0
S1981 S 0.27791 0.4644 0.98175 0.0
N1982 N 0.30509 0.46016 1.00705 0.0
N1983 N 0.25962 0.48656 1.00439 0.0
C1984 C 0.27558 0.49154 0.03427 0.0
C1985 C 0.30008 0.47713 0.03577 0.0
C1986 C 0.89075 1.00094 0.29157 0.0
C1987 C 0.92073 1.00631 0.29022 0.0
C1988 C 0.87321 0.96908 0.29342 0.0
C1989 C 0.88387 0.93952 0.29431 0.0
H1990 H 0.88044 1.02177 0.29119 0.0
H1991 H 0.85054 0.96778 0.29429 0.0
S1992 S 0.9612 0.93873 0.29248 0.0
N1993 N 0.96025 0.97782 0.29033 0.0
N1994 N 0.92789 0.91931 0.2944 0.0
C1995 C 0.91394 0.94445 0.2933 0.0
C1996 C 0.93192 0.97707 0.29113 0.0
C1997 C 0.78557 0.20203 0.74937 0.0
C1998 C 0.78377 0.18171 0.77319 0.0
C1999 C 0.79873 0.2357 0.75796 0.0
C2000 C 0.80977 0.24987 0.7907 0.0
H2001 H 0.77607 0.19202 0.72419 0.0
H2002 H 0.79929 0.25093 0.73908 0.0
S2003 S 0.81026 0.2072 0.8622 0.0
N2004 N 0.79406 0.17783 0.8308 0.0
N2005 N 0.81904 0.24149 0.84683 0.0
C2006 C 0.80863 0.22977 0.81466 0.0
C2007 C 0.79553 0.19544 0.8059 0.0
loop_
_geom_bond_atom_site_label_1
_geom_bond_atom_site_label_2
_geom_bond_distance
_geom_bond_site_symmetry_2
_ccdc_geom_bond_type
In0 O1 2.294 . S
In0 O2 2.326 . S
In0 O6 2.266 . S
In0 O7 2.326 . S
In0 O8 2.266 . S
In0 O9 2.326 . S
In0 O11 2.294 . S
In0 O12 2.326 . S
O1 In0 2.294 . S
O1 C10 1.240 . S
O2 In0 2.326 . S
O2 C10 1.252 . S
C3 O6 1.252 . S
C3 O7 1.260 . S
C4 O11 1.240 . S
C4 O12 1.252 . S
C5 O8 1.252 . S
C5 O9 1.260 . S
O6 In0 2.266 . S
O6 C3 1.252 . S
O7 In0 2.326 . S
O7 C3 1.260 . S
O8 In0 2.266 . S
O8 C5 1.252 . S
O9 In0 2.326 . S
O9 C5 1.260 . S
C10 O1 1.240 . S
C10 O2 1.252 . S
O11 In0 2.294 . S
O11 C4 1.240 . S
O12 In0 2.326 . S
O12 C4 1.252 . S
In13 O14 2.294 . S
In13 O15 2.326 . S
In13 O19 2.266 1_455 S
In13 O20 2.326 1_455 S
In13 O21 2.266 1_455 S
In13 O22 2.326 1_455 S
In13 O24 2.294 . S
In13 O25 2.326 . S
O14 In13 2.294 . S
O14 C23 1.240 . S
O15 In13 2.326 . S
O15 C23 1.252 . S
C16 O19 1.252 . S
C16 O20 1.260 . S
C17 O24 1.240 . S
C17 O25 1.252 . S
C18 O21 1.252 . S
C18 O22 1.260 . S
O19 In13 2.266 1_655 S
O19 C16 1.252 . S
O20 In13 2.326 1_655 S
O20 C16 1.260 . S
O21 In13 2.266 1_655 S
O21 C18 1.252 . S
O22 In13 2.326 1_655 S
O22 C18 1.260 . S
C23 O14 1.240 . S
C23 O15 1.252 . S
O24 In13 2.294 . S
O24 C17 1.240 . S
O25 In13 2.326 . S
O25 C17 1.252 . S
In26 O27 2.294 . S
In26 O28 2.326 . S
In26 O32 2.266 . S
In26 O33 2.326 . S
In26 O34 2.266 . S
In26 O35 2.326 . S
In26 O37 2.294 . S
In26 O38 2.326 . S
O27 In26 2.294 . S
O27 C36 1.240 . S
O28 In26 2.326 . S
O28 C36 1.252 . S
C29 O32 1.252 . S
C29 O33 1.260 . S
C30 O37 1.240 . S
C30 O38 1.252 . S
C31 O34 1.252 . S
C31 O35 1.260 . S
O32 In26 2.266 . S
O32 C29 1.252 . S
O33 In26 2.326 . S
O33 C29 1.260 . S
O34 In26 2.266 . S
O34 C31 1.252 . S
O35 In26 2.326 . S
O35 C31 1.260 . S
C36 O27 1.240 . S
C36 O28 1.252 . S
O37 In26 2.294 . S
O37 C30 1.240 . S
O38 In26 2.326 . S
O38 C30 1.252 . S
In39 O40 2.294 . S
In39 O41 2.326 . S
In39 O45 2.266 . S
In39 O46 2.326 . S
In39 O47 2.266 . S
In39 O48 2.326 . S
In39 O50 2.294 . S
In39 O51 2.326 . S
O40 In39 2.294 . S
O40 C49 1.240 . S
O41 In39 2.326 . S
O41 C49 1.252 . S
C42 O45 1.252 . S
C42 O46 1.260 . S
C43 O50 1.240 . S
C43 O51 1.252 . S
C44 O47 1.252 . S
C44 O48 1.260 . S
O45 In39 2.266 . S
O45 C42 1.252 . S
O46 In39 2.326 . S
O46 C42 1.260 . S
O47 In39 2.266 . S
O47 C44 1.252 . S
O48 In39 2.326 . S
O48 C44 1.260 . S
C49 O40 1.240 . S
C49 O41 1.252 . S
O50 In39 2.294 . S
O50 C43 1.240 . S
O51 In39 2.326 . S
O51 C43 1.252 . S
In52 O53 2.294 . S
In52 O54 2.326 . S
In52 O58 2.266 . S
In52 O59 2.326 . S
In52 O60 2.266 . S
In52 O61 2.326 . S
In52 O63 2.294 . S
In52 O64 2.326 . S
O53 In52 2.294 . S
O53 C62 1.240 . S
O54 In52 2.326 . S
O54 C62 1.252 . S
C55 O58 1.252 . S
C55 O59 1.260 . S
C56 O63 1.240 . S
C56 O64 1.252 . S
C57 O60 1.252 . S
C57 O61 1.260 . S
O58 In52 2.266 . S
O58 C55 1.252 . S
O59 In52 2.326 . S
O59 C55 1.260 . S
O60 In52 2.266 . S
O60 C57 1.252 . S
O61 In52 2.326 . S
O61 C57 1.260 . S
C62 O53 1.240 . S
C62 O54 1.252 . S
O63 In52 2.294 . S
O63 C56 1.240 . S
O64 In52 2.326 . S
O64 C56 1.252 . S
In65 O66 2.294 . S
In65 O67 2.326 . S
In65 O71 2.266 . S
In65 O72 2.326 . S
In65 O73 2.266 . S
In65 O74 2.326 . S
In65 O76 2.294 . S
In65 O77 2.326 . S
O66 In65 2.294 . S
O66 C75 1.240 . S
O67 In65 2.326 . S
O67 C75 1.252 . S
C68 O71 1.252 . S
C68 O72 1.260 . S
C69 O76 1.240 . S
C69 O77 1.252 . S
C70 O73 1.252 . S
C70 O74 1.260 . S
O71 In65 2.266 . S
O71 C68 1.252 . S
O72 In65 2.326 . S
O72 C68 1.260 . S
O73 In65 2.266 . S
O73 C70 1.252 . S
O74 In65 2.326 . S
O74 C70 1.260 . S
C75 O66 1.240 . S
C75 O67 1.252 . S
O76 In65 2.294 . S
O76 C69 1.240 . S
O77 In65 2.326 . S
O77 C69 1.252 . S
In78 O79 2.294 . S
In78 O80 2.326 . S
In78 O84 2.266 . S
In78 O85 2.326 . S
In78 O86 2.266 . S
In78 O87 2.326 . S
In78 O89 2.294 . S
In78 O90 2.326 . S
O79 In78 2.294 . S
O79 C88 1.240 . S
O80 In78 2.326 . S
O80 C88 1.252 . S
C81 O84 1.252 . S
C81 O85 1.260 . S
C82 O89 1.240 . S
C82 O90 1.252 . S
C83 O86 1.252 . S
C83 O87 1.260 . S
O84 In78 2.266 . S
O84 C81 1.252 . S
O85 In78 2.326 . S
O85 C81 1.260 . S
O86 In78 2.266 . S
O86 C83 1.252 . S
O87 In78 2.326 . S
O87 C83 1.260 . S
C88 O79 1.240 . S
C88 O80 1.252 . S
O89 In78 2.294 . S
O89 C82 1.240 . S
O90 In78 2.326 . S
O90 C82 1.252 . S
In91 O92 2.294 . S
In91 O93 2.326 . S
In91 O97 2.266 . S
In91 O98 2.326 . S
In91 O99 2.266 1_455 S
In91 O100 2.326 1_455 S
In91 O102 2.294 . S
In91 O103 2.326 . S
O92 In91 2.294 . S
O92 C101 1.240 . S
O93 In91 2.326 . S
O93 C101 1.252 . S
C94 O97 1.252 . S
C94 O98 1.260 . S
C95 O102 1.240 . S
C95 O103 1.252 . S
C96 O99 1.252 . S
C96 O100 1.260 . S
O97 In91 2.266 . S
O97 C94 1.252 . S
O98 In91 2.326 . S
O98 C94 1.260 . S
O99 In91 2.266 1_655 S
O99 C96 1.252 . S
O100 In91 2.326 1_655 S
O100 C96 1.260 . S
C101 O92 1.240 . S
C101 O93 1.252 . S
O102 In91 2.294 . S
O102 C95 1.240 . S
O103 In91 2.326 . S
O103 C95 1.252 . S
In104 O105 2.294 . S
In104 O106 2.327 1_545 S
In104 O110 2.265 . S
In104 O111 2.325 . S
In104 O112 2.265 1_545 S
In104 O113 2.323 1_545 S
In104 O115 2.296 . S
In104 O116 2.329 . S
O105 In104 2.294 . S
O105 C114 1.240 . S
O106 In104 2.327 1_565 S
O106 C114 1.252 1_565 S
C107 O110 1.252 . S
C107 O111 1.260 . S
C108 O115 1.240 . S
C108 O116 1.252 . S
C109 O112 1.252 . S
C109 O113 1.260 . S
O110 In104 2.265 . S
O110 C107 1.252 . S
O111 In104 2.325 . S
O111 C107 1.260 . S
O112 In104 2.265 1_565 S
O112 C109 1.252 . S
O113 In104 2.323 1_565 S
O113 C109 1.260 . S
C114 O105 1.240 . S
C114 O106 1.252 1_545 S
O115 In104 2.296 . S
O115 C108 1.240 . S
O116 In104 2.329 . S
O116 C108 1.252 . S
In117 O118 2.294 . S
In117 O119 2.326 . S
In117 O123 2.266 . S
In117 O124 2.326 . S
In117 O125 2.266 . S
In117 O126 2.326 . S
In117 O128 2.294 . S
In117 O129 2.326 . S
O118 In117 2.294 . S
O118 C127 1.240 . S
O119 In117 2.326 . S
O119 C127 1.252 . S
C120 O123 1.252 . S
C120 O124 1.260 . S
C121 O128 1.240 . S
C121 O129 1.252 . S
C122 O125 1.252 . S
C122 O126 1.260 . S
O123 In117 2.266 . S
O123 C120 1.252 . S
O124 In117 2.326 . S
O124 C120 1.260 . S
O125 In117 2.266 . S
O125 C122 1.252 . S
O126 In117 2.326 . S
O126 C122 1.260 . S
C127 O118 1.240 . S
C127 O119 1.252 . S
O128 In117 2.294 . S
O128 C121 1.240 . S
O129 In117 2.326 . S
O129 C121 1.252 . S
In130 O131 2.294 . S
In130 O132 2.326 . S
In130 O136 2.266 . S
In130 O137 2.326 . S
In130 O138 2.266 . S
In130 O139 2.326 . S
In130 O141 2.294 1_545 S
In130 O142 2.326 1_545 S
O131 In130 2.294 . S
O131 C140 1.240 . S
O132 In130 2.326 . S
O132 C140 1.252 . S
C133 O136 1.252 . S
C133 O137 1.260 . S
C134 O141 1.240 . S
C134 O142 1.252 . S
C135 O138 1.252 . S
C135 O139 1.260 . S
O136 In130 2.266 . S
O136 C133 1.252 . S
O137 In130 2.326 . S
O137 C133 1.260 . S
O138 In130 2.266 . S
O138 C135 1.252 . S
O139 In130 2.326 . S
O139 C135 1.260 . S
C140 O131 1.240 . S
C140 O132 1.252 . S
O141 In130 2.294 1_565 S
O141 C134 1.240 . S
O142 In130 2.326 1_565 S
O142 C134 1.252 . S
In143 O144 2.296 . S
In143 O145 2.330 . S
In143 O149 2.264 1_554 S
In143 O150 2.322 1_554 S
In143 O151 2.275 . S
In143 O152 2.325 1_554 S
In143 O154 2.294 . S
In143 O155 2.325 . S
O144 In143 2.296 . S
O144 C153 1.240 . S
O145 In143 2.330 . S
O145 C153 1.252 . S
C146 O149 1.252 . S
C146 O150 1.260 . S
C147 O154 1.240 . S
C147 O155 1.252 . S
C148 O151 1.252 . S
C148 O152 1.268 1_554 S
O149 In143 2.264 1_556 S
O149 C146 1.252 . S
O150 In143 2.322 1_556 S
O150 C146 1.260 . S
O151 In143 2.275 . S
O151 C148 1.252 . S
O152 In143 2.325 1_556 S
O152 C148 1.268 1_556 S
C153 O144 1.240 . S
C153 O145 1.252 . S
O154 In143 2.294 . S
O154 C147 1.240 . S
O155 In143 2.325 . S
O155 C147 1.252 . S
In156 O157 2.294 . S
In156 O158 2.326 . S
In156 O162 2.266 1_554 S
In156 O163 2.326 1_554 S
In156 O164 2.266 . S
In156 O165 2.326 . S
In156 O167 2.294 . S
In156 O168 2.326 . S
O157 In156 2.294 . S
O157 C166 1.240 . S
O158 In156 2.326 . S
O158 C166 1.252 . S
C159 O162 1.252 . S
C159 O163 1.260 . S
C160 O167 1.240 . S
C160 O168 1.252 . S
C161 O164 1.252 . S
C161 O165 1.260 . S
O162 In156 2.266 1_556 S
O162 C159 1.252 . S
O163 In156 2.326 1_556 S
O163 C159 1.260 . S
O164 In156 2.266 . S
O164 C161 1.252 . S
O165 In156 2.326 . S
O165 C161 1.260 . S
C166 O157 1.240 . S
C166 O158 1.252 . S
O167 In156 2.294 . S
O167 C160 1.240 . S
O168 In156 2.326 . S
O168 C160 1.252 . S
In169 O170 2.294 . S
In169 O171 2.326 . S
In169 O175 2.266 . S
In169 O176 2.326 . S
In169 O177 2.266 . S
In169 O178 2.326 1_554 S
In169 O180 2.294 . S
In169 O181 2.326 . S
O170 In169 2.294 . S
O170 C179 1.240 . S
O171 In169 2.326 . S
O171 C179 1.252 . S
C172 O175 1.252 . S
C172 O176 1.260 . S
C173 O180 1.240 . S
C173 O181 1.252 . S
C174 O177 1.252 1_556 S
C174 O178 1.260 . S
O175 In169 2.266 . S
O175 C172 1.252 . S
O176 In169 2.326 . S
O176 C172 1.260 . S
O177 In169 2.266 . S
O177 C174 1.252 1_554 S
O178 In169 2.326 1_556 S
O178 C174 1.260 . S
C179 O170 1.240 . S
C179 O171 1.252 . S
O180 In169 2.294 . S
O180 C173 1.240 . S
O181 In169 2.326 . S
O181 C173 1.252 . S
In182 O183 2.294 . S
In182 O184 2.326 . S
In182 O188 2.266 . S
In182 O189 2.326 . S
In182 O190 2.266 . S
In182 O191 2.326 . S
In182 O193 2.294 . S
In182 O194 2.326 . S
O183 In182 2.294 . S
O183 C192 1.240 . S
O184 In182 2.326 . S
O184 C192 1.252 . S
C185 O188 1.252 . S
C185 O189 1.260 . S
C186 O193 1.240 . S
C186 O194 1.252 . S
C187 O190 1.252 . S
C187 O191 1.260 . S
O188 In182 2.266 . S
O188 C185 1.252 . S
O189 In182 2.326 . S
O189 C185 1.260 . S
O190 In182 2.266 . S
O190 C187 1.252 . S
O191 In182 2.326 . S
O191 C187 1.260 . S
C192 O183 1.240 . S
C192 O184 1.252 . S
O193 In182 2.294 . S
O193 C186 1.240 . S
O194 In182 2.326 . S
O194 C186 1.252 . S
In195 O196 2.294 . S
In195 O197 2.326 . S
In195 O201 2.266 . S
In195 O202 2.326 . S
In195 O203 2.266 . S
In195 O204 2.326 . S
In195 O206 2.294 . S
In195 O207 2.326 . S
O196 In195 2.294 . S
O196 C205 1.240 . S
O197 In195 2.326 . S
O197 C205 1.252 . S
C198 O201 1.252 . S
C198 O202 1.260 . S
C199 O206 1.240 . S
C199 O207 1.252 . S
C200 O203 1.252 . S
C200 O204 1.260 . S
O201 In195 2.266 . S
O201 C198 1.252 . S
O202 In195 2.326 . S
O202 C198 1.260 . S
O203 In195 2.266 . S
O203 C200 1.252 . S
O204 In195 2.326 . S
O204 C200 1.260 . S
C205 O196 1.240 . S
C205 O197 1.252 . S
O206 In195 2.294 . S
O206 C199 1.240 . S
O207 In195 2.326 . S
O207 C199 1.252 . S
In208 O209 2.294 . S
In208 O210 2.326 . S
In208 O214 2.266 . S
In208 O215 2.326 . S
In208 O216 2.266 . S
In208 O217 2.326 . S
In208 O219 2.294 . S
In208 O220 2.326 . S
O209 In208 2.294 . S
O209 C218 1.240 . S
O210 In208 2.326 . S
O210 C218 1.252 . S
C211 O214 1.252 . S
C211 O215 1.260 . S
C212 O219 1.240 . S
C212 O220 1.252 . S
C213 O216 1.252 . S
C213 O217 1.260 . S
O214 In208 2.266 . S
O214 C211 1.252 . S
O215 In208 2.326 . S
O215 C211 1.260 . S
O216 In208 2.266 . S
O216 C213 1.252 . S
O217 In208 2.326 . S
O217 C213 1.260 . S
C218 O209 1.240 . S
C218 O210 1.252 . S
O219 In208 2.294 . S
O219 C212 1.240 . S
O220 In208 2.326 . S
O220 C212 1.252 . S
In221 O222 2.294 . S
In221 O223 2.326 . S
In221 O227 2.266 . S
In221 O228 2.326 . S
In221 O229 2.266 . S
In221 O230 2.326 . S
In221 O232 2.294 . S
In221 O233 2.326 . S
O222 In221 2.294 . S
O222 C231 1.240 . S
O223 In221 2.326 . S
O223 C231 1.252 . S
C224 O227 1.252 . S
C224 O228 1.260 . S
C225 O232 1.240 . S
C225 O233 1.252 . S
C226 O229 1.252 . S
C226 O230 1.260 . S
O227 In221 2.266 . S
O227 C224 1.252 . S
O228 In221 2.326 . S
O228 C224 1.260 . S
O229 In221 2.266 . S
O229 C226 1.252 . S
O230 In221 2.326 . S
O230 C226 1.260 . S
C231 O222 1.240 . S
C231 O223 1.252 . S
O232 In221 2.294 . S
O232 C225 1.240 . S
O233 In221 2.326 . S
O233 C225 1.252 . S
In234 O235 2.294 . S
In234 O236 2.326 . S
In234 O240 2.266 . S
In234 O241 2.326 . S
In234 O242 2.266 . S
In234 O243 2.326 . S
In234 O245 2.294 . S
In234 O246 2.326 . S
O235 In234 2.294 . S
O235 C244 1.240 . S
O236 In234 2.326 . S
O236 C244 1.252 . S
C237 O240 1.252 . S
C237 O241 1.260 . S
C238 O245 1.240 . S
C238 O246 1.252 . S
C239 O242 1.252 . S
C239 O243 1.260 . S
O240 In234 2.266 . S
O240 C237 1.252 . S
O241 In234 2.326 . S
O241 C237 1.260 . S
O242 In234 2.266 . S
O242 C239 1.252 . S
O243 In234 2.326 . S
O243 C239 1.260 . S
C244 O235 1.240 . S
C244 O236 1.252 . S
O245 In234 2.294 . S
O245 C238 1.240 . S
O246 In234 2.326 . S
O246 C238 1.252 . S
In247 O248 2.294 . S
In247 O249 2.326 . S
In247 O253 2.266 . S
In247 O254 2.326 . S
In247 O255 2.266 . S
In247 O256 2.326 . S
In247 O258 2.294 . S
In247 O259 2.326 . S
O248 In247 2.294 . S
O248 C257 1.240 . S
O249 In247 2.326 . S
O249 C257 1.252 . S
C250 O253 1.252 . S
C250 O254 1.260 . S
C251 O258 1.240 . S
C251 O259 1.252 . S
C252 O255 1.252 . S
C252 O256 1.260 . S
O253 In247 2.266 . S
O253 C250 1.252 . S
O254 In247 2.326 . S
O254 C250 1.260 . S
O255 In247 2.266 . S
O255 C252 1.252 . S
O256 In247 2.326 . S
O256 C252 1.260 . S
C257 O248 1.240 . S
C257 O249 1.252 . S
O258 In247 2.294 . S
O258 C251 1.240 . S
O259 In247 2.326 . S
O259 C251 1.252 . S
In260 O261 2.294 . S
In260 O262 2.326 . S
In260 O266 2.266 1_554 S
In260 O267 2.326 . S
In260 O268 2.266 1_554 S
In260 O269 2.326 1_554 S
In260 O271 2.294 . S
In260 O272 2.326 . S
O261 In260 2.294 . S
O261 C270 1.240 . S
O262 In260 2.326 . S
O262 C270 1.252 . S
C263 O266 1.252 . S
C263 O267 1.260 1_556 S
C264 O271 1.240 . S
C264 O272 1.252 . S
C265 O268 1.252 . S
C265 O269 1.260 . S
O266 In260 2.266 1_556 S
O266 C263 1.252 . S
O267 In260 2.326 . S
O267 C263 1.260 1_554 S
O268 In260 2.266 1_556 S
O268 C265 1.252 . S
O269 In260 2.326 1_556 S
O269 C265 1.260 . S
C270 O261 1.240 . S
C270 O262 1.252 . S
O271 In260 2.294 . S
O271 C264 1.240 . S
O272 In260 2.326 . S
O272 C264 1.252 . S
In273 O274 2.294 . S
In273 O275 2.326 . S
In273 O279 2.266 . S
In273 O280 2.326 . S
In273 O281 2.266 . S
In273 O282 2.326 . S
In273 O284 2.294 . S
In273 O285 2.326 . S
O274 In273 2.294 . S
O274 C283 1.240 . S
O275 In273 2.326 . S
O275 C283 1.252 . S
C276 O279 1.252 . S
C276 O280 1.260 . S
C277 O284 1.240 . S
C277 O285 1.252 . S
C278 O281 1.252 . S
C278 O282 1.260 . S
O279 In273 2.266 . S
O279 C276 1.252 . S
O280 In273 2.326 . S
O280 C276 1.260 . S
O281 In273 2.266 . S
O281 C278 1.252 . S
O282 In273 2.326 . S
O282 C278 1.260 . S
C283 O274 1.240 . S
C283 O275 1.252 . S
O284 In273 2.294 . S
O284 C277 1.240 . S
O285 In273 2.326 . S
O285 C277 1.252 . S
In286 O287 2.294 . S
In286 O288 2.326 . S
In286 O292 2.266 . S
In286 O293 2.326 . S
In286 O294 2.266 . S
In286 O295 2.326 . S
In286 O297 2.294 . S
In286 O298 2.326 . S
O287 In286 2.294 . S
O287 C296 1.240 . S
O288 In286 2.326 . S
O288 C296 1.252 . S
C289 O292 1.252 . S
C289 O293 1.260 . S
C290 O297 1.240 . S
C290 O298 1.252 . S
C291 O294 1.252 . S
C291 O295 1.260 . S
O292 In286 2.266 . S
O292 C289 1.252 . S
O293 In286 2.326 . S
O293 C289 1.260 . S
O294 In286 2.266 . S
O294 C291 1.252 . S
O295 In286 2.326 . S
O295 C291 1.260 . S
C296 O287 1.240 . S
C296 O288 1.252 . S
O297 In286 2.294 . S
O297 C290 1.240 . S
O298 In286 2.326 . S
O298 C290 1.252 . S
In299 O300 2.294 . S
In299 O301 2.326 . S
In299 O305 2.266 . S
In299 O306 2.326 . S
In299 O307 2.266 . S
In299 O308 2.326 . S
In299 O310 2.294 . S
In299 O311 2.326 . S
O300 In299 2.294 . S
O300 C309 1.240 . S
O301 In299 2.326 . S
O301 C309 1.252 . S
C302 O305 1.252 . S
C302 O306 1.260 . S
C303 O310 1.240 . S
C303 O311 1.252 . S
C304 O307 1.252 . S
C304 O308 1.260 . S
O305 In299 2.266 . S
O305 C302 1.252 . S
O306 In299 2.326 . S
O306 C302 1.260 . S
O307 In299 2.266 . S
O307 C304 1.252 . S
O308 In299 2.326 . S
O308 C304 1.260 . S
C309 O300 1.240 . S
C309 O301 1.252 . S
O310 In299 2.294 . S
O310 C303 1.240 . S
O311 In299 2.326 . S
O311 C303 1.252 . S
La312 C314 2.926 1_454 S
La312 O332 2.521 1_454 S
La312 O333 2.628 1_455 S
La312 O334 2.554 1_554 S
La312 O335 2.757 1_554 S
La312 O336 2.470 . S
La312 O341 2.482 . S
La312 O343 2.491 1_545 S
La313 C323 2.928 . S
La313 O335 2.482 1_554 S
La313 O337 2.503 . S
La313 O338 2.521 . S
La313 O339 2.628 . S
La313 O340 2.554 . S
La313 O341 2.757 . S
La313 O342 2.470 . S
C314 La312 2.926 1_656 S
C314 C315 1.506 . S
C314 O332 1.271 . S
C314 O333 1.230 1_556 S
C315 C314 1.506 . S
C315 C316 1.394 . S
C315 C320 1.373 1_556 S
C316 C315 1.394 . S
C316 C317 1.380 . S
C316 H344 0.930 . S
C317 C316 1.380 . S
C317 C318 1.376 . S
C317 H345 0.930 . S
C318 C317 1.376 . S
C318 C319 1.370 1_556 S
C319 C318 1.370 1_554 S
C319 C320 1.396 . S
C319 H346 0.929 . S
C320 C315 1.373 1_554 S
C320 C319 1.396 . S
C320 H347 0.929 . S
C321 O334 1.240 . S
C321 O335 1.289 . S
C322 O336 1.258 . S
C322 O337 1.256 . S
C323 La313 2.928 . S
C323 C324 1.503 . S
C323 O338 1.261 . S
C323 O339 1.243 . S
C324 C323 1.503 . S
C324 C325 1.394 . S
C324 C329 1.373 . S
C325 C324 1.394 . S
C325 C326 1.380 . S
C325 H348 0.930 . S
C326 C325 1.380 . S
C326 C327 1.376 . S
C326 H349 0.930 . S
C327 C326 1.376 . S
C327 C328 1.370 . S
C328 C327 1.370 . S
C328 C329 1.396 . S
C328 H350 0.929 . S
C329 C324 1.373 . S
C329 C328 1.396 . S
C329 H351 0.929 . S
C330 O340 1.240 . S
C330 O341 1.289 . S
C331 O342 1.258 . S
C331 O343 1.260 1_545 S
O332 La312 2.521 1_656 S
O332 C314 1.271 . S
O333 La312 2.628 1_655 S
O333 C314 1.230 1_554 S
O334 La312 2.554 1_556 S
O334 C321 1.240 . S
O335 La312 2.757 1_556 S
O335 La313 2.482 1_556 S
O335 C321 1.289 . S
O336 La312 2.470 . S
O336 C322 1.258 . S
O337 La313 2.503 . S
O337 C322 1.256 . S
O338 La313 2.521 . S
O338 C323 1.261 . S
O339 La313 2.628 . S
O339 C323 1.243 . S
O340 La313 2.554 . S
O340 C330 1.240 . S
O341 La312 2.482 . S
O341 La313 2.757 . S
O341 C330 1.289 . S
O342 La313 2.470 . S
O342 C331 1.258 . S
O343 La312 2.491 1_565 S
O343 C331 1.260 1_565 S
H344 C316 0.930 . S
H345 C317 0.930 . S
H346 C319 0.929 . S
H347 C320 0.929 . S
H348 C325 0.930 . S
H349 C326 0.930 . S
H350 C328 0.929 . S
H351 C329 0.929 . S
La352 C354 2.928 . S
La352 O372 2.521 . S
La352 O373 2.628 . S
La352 O374 2.554 . S
La352 O375 2.757 . S
La352 O376 2.470 . S
La352 O381 2.482 . S
La352 O383 2.503 . S
La353 C363 2.928 . S
La353 O375 2.482 . S
La353 O377 2.503 . S
La353 O378 2.521 . S
La353 O379 2.628 . S
La353 O380 2.554 . S
La353 O381 2.757 . S
La353 O382 2.470 . S
C354 La352 2.928 . S
C354 C355 1.503 . S
C354 O372 1.261 . S
C354 O373 1.243 . S
C355 C354 1.503 . S
C355 C356 1.394 . S
C355 C360 1.373 . S
C356 C355 1.394 . S
C356 C357 1.380 . S
C356 H384 0.930 . S
C357 C356 1.380 . S
C357 C358 1.376 . S
C357 H385 0.930 . S
C358 C357 1.376 . S
C358 C359 1.370 . S
C359 C358 1.370 . S
C359 C360 1.396 . S
C359 H386 0.929 . S
C360 C355 1.373 . S
C360 C359 1.396 . S
C360 H387 0.929 . S
C361 O374 1.240 . S
C361 O375 1.289 . S
C362 O376 1.258 . S
C362 O377 1.256 . S
C363 La353 2.928 . S
C363 C364 1.503 . S
C363 O378 1.261 . S
C363 O379 1.243 . S
C364 C363 1.503 . S
C364 C365 1.394 . S
C364 C369 1.373 . S
C365 C364 1.394 . S
C365 C366 1.380 . S
C365 H388 0.930 . S
C366 C365 1.380 . S
C366 C367 1.376 . S
C366 H389 0.930 . S
C367 C366 1.376 . S
C367 C368 1.370 . S
C368 C367 1.370 . S
C368 C369 1.396 . S
C368 H390 0.929 . S
C369 C364 1.373 . S
C369 C368 1.396 . S
C369 H391 0.929 . S
C370 O380 1.240 . S
C370 O381 1.289 . S
C371 O382 1.258 . S
C371 O383 1.256 . S
O372 La352 2.521 . S
O372 C354 1.261 . S
O373 La352 2.628 . S
O373 C354 1.243 . S
O374 La352 2.554 . S
O374 C361 1.240 . S
O375 La352 2.757 . S
O375 La353 2.482 . S
O375 C361 1.289 . S
O376 La352 2.470 . S
O376 C362 1.258 . S
O377 La353 2.503 . S
O377 C362 1.256 . S
O378 La353 2.521 . S
O378 C363 1.261 . S
O379 La353 2.628 . S
O379 C363 1.243 . S
O380 La353 2.554 . S
O380 C370 1.240 . S
O381 La352 2.482 . S
O381 La353 2.757 . S
O381 C370 1.289 . S
O382 La353 2.470 . S
O382 C371 1.258 . S
O383 La352 2.503 . S
O383 C371 1.256 . S
H384 C356 0.930 . S
H385 C357 0.930 . S
H386 C359 0.929 . S
H387 C360 0.929 . S
H388 C365 0.930 . S
H389 C366 0.930 . S
H390 C368 0.929 . S
H391 C369 0.929 . S
La392 C394 2.928 . S
La392 O412 2.521 . S
La392 O413 2.628 . S
La392 O414 2.554 . S
La392 O415 2.757 . S
La392 O416 2.470 1_545 S
La392 O421 2.482 . S
La392 O423 2.503 . S
La393 C403 2.928 . S
La393 O415 2.482 . S
La393 O417 2.503 1_545 S
La393 O418 2.521 . S
La393 O419 2.628 . S
La393 O420 2.554 . S
La393 O421 2.757 . S
La393 O422 2.470 . S
C394 La392 2.928 . S
C394 C395 1.503 1_545 S
C394 O412 1.261 . S
C394 O413 1.243 . S
C395 C394 1.503 1_565 S
C395 C396 1.394 . S
C395 C400 1.373 . S
C396 C395 1.394 . S
C396 C397 1.380 . S
C396 H424 0.930 . S
C397 C396 1.380 . S
C397 C398 1.376 . S
C397 H425 0.930 . S
C398 C397 1.376 . S
C398 C399 1.370 . S
C399 C398 1.370 . S
C399 C400 1.396 . S
C399 H426 0.929 . S
C400 C395 1.373 . S
C400 C399 1.396 . S
C400 H427 0.929 . S
C401 O414 1.240 . S
C401 O415 1.289 . S
C402 O416 1.258 . S
C402 O417 1.256 . S
C403 La393 2.928 . S
C403 C404 1.503 . S
C403 O418 1.261 . S
C403 O419 1.243 . S
C404 C403 1.503 . S
C404 C405 1.394 . S
C404 C409 1.373 . S
C405 C404 1.394 . S
C405 C406 1.380 . S
C405 H428 0.930 . S
C406 C405 1.380 . S
C406 C407 1.376 . S
C406 H429 0.930 . S
C407 C406 1.376 . S
C407 C408 1.370 . S
C408 C407 1.370 . S
C408 C409 1.396 . S
C408 H430 0.929 . S
C409 C404 1.373 . S
C409 C408 1.396 . S
C409 H431 0.929 . S
C410 O420 1.240 . S
C410 O421 1.289 . S
C411 O422 1.258 . S
C411 O423 1.256 . S
O412 La392 2.521 . S
O412 C394 1.261 . S
O413 La392 2.628 . S
O413 C394 1.243 . S
O414 La392 2.554 . S
O414 C401 1.240 . S
O415 La392 2.757 . S
O415 La393 2.482 . S
O415 C401 1.289 . S
O416 La392 2.470 1_565 S
O416 C402 1.258 . S
O417 La393 2.503 1_565 S
O417 C402 1.256 . S
O418 La393 2.521 . S
O418 C403 1.261 . S
O419 La393 2.628 . S
O419 C403 1.243 . S
O420 La393 2.554 . S
O420 C410 1.240 . S
O421 La392 2.482 . S
O421 La393 2.757 . S
O421 C410 1.289 . S
O422 La393 2.470 . S
O422 C411 1.258 . S
O423 La392 2.503 . S
O423 C411 1.256 . S
H424 C396 0.930 . S
H425 C397 0.930 . S
H426 C399 0.929 . S
H427 C400 0.929 . S
H428 C405 0.930 . S
H429 C406 0.930 . S
H430 C408 0.929 . S
H431 C409 0.929 . S
La432 C434 2.928 . S
La432 O452 2.521 . S
La432 O453 2.628 . S
La432 O454 2.554 . S
La432 O455 2.757 . S
La432 O456 2.470 . S
La432 O461 2.482 . S
La432 O463 2.503 . S
La433 C443 2.928 . S
La433 O455 2.482 . S
La433 O457 2.503 . S
La433 O458 2.521 . S
La433 O459 2.628 . S
La433 O460 2.554 . S
La433 O461 2.757 . S
La433 O462 2.470 . S
C434 La432 2.928 . S
C434 C435 1.503 . S
C434 O452 1.261 . S
C434 O453 1.243 . S
C435 C434 1.503 . S
C435 C436 1.394 . S
C435 C440 1.373 . S
C436 C435 1.394 . S
C436 C437 1.380 . S
C436 H464 0.930 . S
C437 C436 1.380 . S
C437 C438 1.376 . S
C437 H465 0.930 . S
C438 C437 1.376 . S
C438 C439 1.370 . S
C439 C438 1.370 . S
C439 C440 1.396 . S
C439 H466 0.929 . S
C440 C435 1.373 . S
C440 C439 1.396 . S
C440 H467 0.929 . S
C441 O454 1.240 . S
C441 O455 1.289 . S
C442 O456 1.258 . S
C442 O457 1.256 . S
C443 La433 2.928 . S
C443 C444 1.503 . S
C443 O458 1.261 . S
C443 O459 1.243 . S
C444 C443 1.503 . S
C444 C445 1.394 . S
C444 C449 1.373 . S
C445 C444 1.394 . S
C445 C446 1.380 . S
C445 H468 0.930 . S
C446 C445 1.380 . S
C446 C447 1.376 . S
C446 H469 0.930 . S
C447 C446 1.376 . S
C447 C448 1.370 . S
C448 C447 1.370 . S
C448 C449 1.396 . S
C448 H470 0.929 . S
C449 C444 1.373 . S
C449 C448 1.396 . S
C449 H471 0.929 . S
C450 O460 1.240 . S
C450 O461 1.289 . S
C451 O462 1.258 . S
C451 O463 1.256 . S
O452 La432 2.521 . S
O452 C434 1.261 . S
O453 La432 2.628 . S
O453 C434 1.243 . S
O454 La432 2.554 . S
O454 C441 1.240 . S
O455 La432 2.757 . S
O455 La433 2.482 . S
O455 C441 1.289 . S
O456 La432 2.470 . S
O456 C442 1.258 . S
O457 La433 2.503 . S
O457 C442 1.256 . S
O458 La433 2.521 . S
O458 C443 1.261 . S
O459 La433 2.628 . S
O459 C443 1.243 . S
O460 La433 2.554 . S
O460 C450 1.240 . S
O461 La432 2.482 . S
O461 La433 2.757 . S
O461 C450 1.289 . S
O462 La433 2.470 . S
O462 C451 1.258 . S
O463 La432 2.503 . S
O463 C451 1.256 . S
H464 C436 0.930 . S
H465 C437 0.930 . S
H466 C439 0.929 . S
H467 C440 0.929 . S
H468 C445 0.930 . S
H469 C446 0.930 . S
H470 C448 0.929 . S
H471 C449 0.929 . S
La472 C474 2.928 . S
La472 O492 2.521 . S
La472 O493 2.628 . S
La472 O494 2.554 . S
La472 O495 2.757 . S
La472 O496 2.470 . S
La472 O501 2.482 . S
La472 O503 2.503 . S
La473 C483 2.928 . S
La473 O495 2.482 1_565 S
La473 O497 2.503 1_565 S
La473 O498 2.521 . S
La473 O499 2.628 . S
La473 O500 2.554 1_565 S
La473 O501 2.757 1_565 S
La473 O502 2.470 1_565 S
C474 La472 2.928 . S
C474 C475 1.503 . S
C474 O492 1.261 . S
C474 O493 1.243 . S
C475 C474 1.503 . S
C475 C476 1.394 . S
C475 C480 1.373 . S
C476 C475 1.394 . S
C476 C477 1.380 . S
C476 H504 0.930 . S
C477 C476 1.380 . S
C477 C478 1.376 . S
C477 H505 0.930 . S
C478 C477 1.376 . S
C478 C479 1.370 . S
C479 C478 1.370 . S
C479 C480 1.396 . S
C479 H506 0.929 . S
C480 C475 1.373 . S
C480 C479 1.396 . S
C480 H507 0.929 . S
C481 O494 1.240 . S
C481 O495 1.289 . S
C482 O496 1.258 . S
C482 O497 1.256 . S
C483 La473 2.928 . S
C483 C484 1.503 . S
C483 O498 1.261 . S
C483 O499 1.243 . S
C484 C483 1.503 . S
C484 C485 1.394 . S
C484 C489 1.373 . S
C485 C484 1.394 . S
C485 C486 1.380 . S
C485 H508 0.930 . S
C486 C485 1.380 . S
C486 C487 1.376 . S
C486 H509 0.930 . S
C487 C486 1.376 . S
C487 C488 1.370 . S
C488 C487 1.370 . S
C488 C489 1.396 . S
C488 H510 0.929 . S
C489 C484 1.373 . S
C489 C488 1.396 . S
C489 H511 0.929 . S
C490 O500 1.240 . S
C490 O501 1.289 . S
C491 O502 1.258 . S
C491 O503 1.256 . S
O492 La472 2.521 . S
O492 C474 1.261 . S
O493 La472 2.628 . S
O493 C474 1.243 . S
O494 La472 2.554 . S
O494 C481 1.240 . S
O495 La472 2.757 . S
O495 La473 2.482 1_545 S
O495 C481 1.289 . S
O496 La472 2.470 . S
O496 C482 1.258 . S
O497 La473 2.503 1_545 S
O497 C482 1.256 . S
O498 La473 2.521 . S
O498 C483 1.261 . S
O499 La473 2.628 . S
O499 C483 1.243 . S
O500 La473 2.554 1_545 S
O500 C490 1.240 . S
O501 La472 2.482 . S
O501 La473 2.757 1_545 S
O501 C490 1.289 . S
O502 La473 2.470 1_545 S
O502 C491 1.258 . S
O503 La472 2.503 . S
O503 C491 1.256 . S
H504 C476 0.930 . S
H505 C477 0.930 . S
H506 C479 0.929 . S
H507 C480 0.929 . S
H508 C485 0.930 . S
H509 C486 0.930 . S
H510 C488 0.929 . S
H511 C489 0.929 . S
La512 C514 2.928 . S
La512 O532 2.521 . S
La512 O533 2.628 . S
La512 O534 2.554 . S
La512 O535 2.757 . S
La512 O536 2.470 . S
La512 O541 2.482 . S
La512 O543 2.503 . S
La513 C523 2.928 . S
La513 O535 2.482 . S
La513 O537 2.503 . S
La513 O538 2.521 . S
La513 O539 2.628 . S
La513 O540 2.554 . S
La513 O541 2.757 . S
La513 O542 2.470 . S
C514 La512 2.928 . S
C514 C515 1.503 . S
C514 O532 1.261 . S
C514 O533 1.243 . S
C515 C514 1.503 . S
C515 C516 1.394 . S
C515 C520 1.373 . S
C516 C515 1.394 . S
C516 C517 1.380 . S
C516 H544 0.930 . S
C517 C516 1.380 . S
C517 C518 1.376 . S
C517 H545 0.930 . S
C518 C517 1.376 . S
C518 C519 1.370 . S
C519 C518 1.370 . S
C519 C520 1.396 . S
C519 H546 0.929 . S
C520 C515 1.373 . S
C520 C519 1.396 . S
C520 H547 0.929 . S
C521 O534 1.240 . S
C521 O535 1.289 . S
C522 O536 1.258 . S
C522 O537 1.256 . S
C523 La513 2.928 . S
C523 C524 1.503 . S
C523 O538 1.261 . S
C523 O539 1.243 . S
C524 C523 1.503 . S
C524 C525 1.394 . S
C524 C529 1.373 . S
C525 C524 1.394 . S
C525 C526 1.380 . S
C525 H548 0.930 . S
C526 C525 1.380 . S
C526 C527 1.376 . S
C526 H549 0.930 . S
C527 C526 1.376 . S
C527 C528 1.370 . S
C528 C527 1.370 . S
C528 C529 1.396 . S
C528 H550 0.929 . S
C529 C524 1.373 . S
C529 C528 1.396 . S
C529 H551 0.929 . S
C530 O540 1.240 . S
C530 O541 1.289 . S
C531 O542 1.258 . S
C531 O543 1.256 . S
O532 La512 2.521 . S
O532 C514 1.261 . S
O533 La512 2.628 . S
O533 C514 1.243 . S
O534 La512 2.554 . S
O534 C521 1.240 . S
O535 La512 2.757 . S
O535 La513 2.482 . S
O535 C521 1.289 . S
O536 La512 2.470 . S
O536 C522 1.258 . S
O537 La513 2.503 . S
O537 C522 1.256 . S
O538 La513 2.521 . S
O538 C523 1.261 . S
O539 La513 2.628 . S
O539 C523 1.243 . S
O540 La513 2.554 . S
O540 C530 1.240 . S
O541 La512 2.482 . S
O541 La513 2.757 . S
O541 C530 1.289 . S
O542 La513 2.470 . S
O542 C531 1.258 . S
O543 La512 2.503 . S
O543 C531 1.256 . S
H544 C516 0.930 . S
H545 C517 0.930 . S
H546 C519 0.929 . S
H547 C520 0.929 . S
H548 C525 0.930 . S
H549 C526 0.930 . S
H550 C528 0.929 . S
H551 C529 0.929 . S
La552 C554 2.928 . S
La552 O572 2.521 . S
La552 O573 2.628 . S
La552 O574 2.574 . S
La552 O575 2.757 1_554 S
La552 O576 2.470 . S
La552 O581 2.482 . S
La552 O583 2.503 . S
La553 C563 2.928 . S
La553 O575 2.482 . S
La553 O577 2.503 . S
La553 O578 2.521 . S
La553 O579 2.628 . S
La553 O580 2.554 . S
La553 O581 2.757 1_556 S
La553 O582 2.470 . S
C554 La552 2.928 . S
C554 C555 1.503 . S
C554 O572 1.261 . S
C554 O573 1.243 . S
C555 C554 1.503 . S
C555 C556 1.394 1_545 S
C555 C560 1.373 . S
C556 C555 1.394 1_565 S
C556 C557 1.380 . S
C556 H584 0.930 . S
C557 C556 1.380 . S
C557 C558 1.376 . S
C557 H585 0.930 . S
C558 C557 1.376 . S
C558 C559 1.370 1_565 S
C559 C558 1.370 1_545 S
C559 C560 1.396 . S
C559 H586 0.929 . S
C560 C555 1.373 . S
C560 C559 1.396 . S
C560 H587 0.929 . S
C561 O574 1.252 1_556 S
C561 O575 1.289 . S
C562 O576 1.257 . S
C562 O577 1.258 1_554 S
C563 La553 2.928 . S
C563 C564 1.503 . S
C563 O578 1.261 . S
C563 O579 1.243 . S
C564 C563 1.503 . S
C564 C565 1.394 . S
C564 C569 1.373 . S
C565 C564 1.394 . S
C565 C566 1.380 . S
C565 H588 0.930 . S
C566 C565 1.380 . S
C566 C567 1.376 . S
C566 H589 0.930 . S
C567 C566 1.376 . S
C567 C568 1.370 . S
C568 C567 1.370 . S
C568 C569 1.396 . S
C568 H590 0.929 . S
C569 C564 1.373 . S
C569 C568 1.396 . S
C569 H591 0.929 . S
C570 O580 1.240 1_554 S
C570 O581 1.289 . S
C571 O582 1.258 1_554 S
C571 O583 1.256 . S
O572 La552 2.521 . S
O572 C554 1.261 . S
O573 La552 2.628 . S
O573 C554 1.243 . S
O574 La552 2.574 . S
O574 C561 1.252 1_554 S
O575 La552 2.757 1_556 S
O575 La553 2.482 . S
O575 C561 1.289 . S
O576 La552 2.470 . S
O576 C562 1.257 . S
O577 La553 2.503 . S
O577 C562 1.258 1_556 S
O578 La553 2.521 . S
O578 C563 1.261 . S
O579 La553 2.628 . S
O579 C563 1.243 . S
O580 La553 2.554 . S
O580 C570 1.240 1_556 S
O581 La552 2.482 . S
O581 La553 2.757 1_554 S
O581 C570 1.289 . S
O582 La553 2.470 . S
O582 C571 1.258 1_556 S
O583 La552 2.503 . S
O583 C571 1.256 . S
H584 C556 0.930 . S
H585 C557 0.930 . S
H586 C559 0.929 . S
H587 C560 0.929 . S
H588 C565 0.930 . S
H589 C566 0.930 . S
H590 C568 0.929 . S
H591 C569 0.929 . S
La592 C594 2.928 . S
La592 O612 2.521 . S
La592 O613 2.628 . S
La592 O614 2.554 . S
La592 O615 2.757 . S
La592 O616 2.470 . S
La592 O621 2.482 . S
La592 O623 2.503 . S
La593 C603 2.928 . S
La593 O615 2.482 . S
La593 O617 2.503 . S
La593 O618 2.521 . S
La593 O619 2.628 . S
La593 O620 2.554 . S
La593 O621 2.757 . S
La593 O622 2.470 . S
C594 La592 2.928 . S
C594 C595 1.503 . S
C594 O612 1.261 . S
C594 O613 1.243 . S
C595 C594 1.503 . S
C595 C596 1.394 . S
C595 C600 1.373 . S
C596 C595 1.394 . S
C596 C597 1.380 . S
C596 H624 0.930 . S
C597 C596 1.380 . S
C597 C598 1.376 . S
C597 H625 0.930 . S
C598 C597 1.376 . S
C598 C599 1.370 . S
C599 C598 1.370 . S
C599 C600 1.396 . S
C599 H626 0.929 . S
C600 C595 1.373 . S
C600 C599 1.396 . S
C600 H627 0.929 . S
C601 O614 1.240 . S
C601 O615 1.289 . S
C602 O616 1.258 . S
C602 O617 1.256 . S
C603 La593 2.928 . S
C603 C604 1.503 . S
C603 O618 1.261 . S
C603 O619 1.243 . S
C604 C603 1.503 . S
C604 C605 1.394 . S
C604 C609 1.373 . S
C605 C604 1.394 . S
C605 C606 1.380 . S
C605 H628 0.930 . S
C606 C605 1.380 . S
C606 C607 1.376 . S
C606 H629 0.930 . S
C607 C606 1.376 . S
C607 C608 1.370 . S
C608 C607 1.370 . S
C608 C609 1.396 . S
C608 H630 0.929 . S
C609 C604 1.373 . S
C609 C608 1.396 . S
C609 H631 0.929 . S
C610 O620 1.240 . S
C610 O621 1.289 . S
C611 O622 1.258 . S
C611 O623 1.256 . S
O612 La592 2.521 . S
O612 C594 1.261 . S
O613 La592 2.628 . S
O613 C594 1.243 . S
O614 La592 2.554 . S
O614 C601 1.240 . S
O615 La592 2.757 . S
O615 La593 2.482 . S
O615 C601 1.289 . S
O616 La592 2.470 . S
O616 C602 1.258 . S
O617 La593 2.503 . S
O617 C602 1.256 . S
O618 La593 2.521 . S
O618 C603 1.261 . S
O619 La593 2.628 . S
O619 C603 1.243 . S
O620 La593 2.554 . S
O620 C610 1.240 . S
O621 La592 2.482 . S
O621 La593 2.757 . S
O621 C610 1.289 . S
O622 La593 2.470 . S
O622 C611 1.258 . S
O623 La592 2.503 . S
O623 C611 1.256 . S
H624 C596 0.930 . S
H625 C597 0.930 . S
H626 C599 0.929 . S
H627 C600 0.929 . S
H628 C605 0.930 . S
H629 C606 0.930 . S
H630 C608 0.929 . S
H631 C609 0.929 . S
La632 C634 2.928 1_554 S
La632 O652 2.521 . S
La632 O653 2.628 1_554 S
La632 O654 2.554 . S
La632 O655 2.757 . S
La632 O656 2.470 1_554 S
La632 O661 2.498 . S
La632 O663 2.503 . S
La633 C643 2.928 1_556 S
La633 O655 2.482 1_556 S
La633 O657 2.503 . S
La633 O658 2.521 1_556 S
La633 O659 2.628 1_556 S
La633 O660 2.554 . S
La633 O661 2.762 1_556 S
La633 O662 2.470 1_556 S
C634 La632 2.928 1_556 S
C634 C635 1.503 . S
C634 O652 1.261 1_556 S
C634 O653 1.243 . S
C635 C634 1.503 . S
C635 C636 1.394 . S
C635 C640 1.373 . S
C636 C635 1.394 . S
C636 C637 1.380 . S
C636 H664 0.930 1_556 S
C637 C636 1.380 . S
C637 C638 1.376 . S
C637 H665 0.930 . S
C638 C637 1.376 . S
C638 C639 1.370 . S
C639 C638 1.370 . S
C639 C640 1.396 . S
C639 H666 0.929 . S
C640 C635 1.373 . S
C640 C639 1.396 . S
C640 H667 0.929 . S
C641 O654 1.240 . S
C641 O655 1.289 . S
C642 O656 1.258 . S
C642 O657 1.256 . S
C643 La633 2.928 1_554 S
C643 C644 1.503 . S
C643 O658 1.261 . S
C643 O659 1.243 . S
C644 C643 1.503 . S
C644 C645 1.394 . S
C644 C649 1.373 . S
C645 C644 1.394 . S
C645 C646 1.380 . S
C645 H668 0.930 . S
C646 C645 1.380 . S
C646 C647 1.376 . S
C646 H669 0.930 . S
C647 C646 1.376 . S
C647 C648 1.370 . S
C648 C647 1.370 . S
C648 C649 1.396 . S
C648 H670 0.929 . S
C649 C644 1.373 . S
C649 C648 1.396 . S
C649 H671 0.929 . S
C650 O660 1.240 . S
C650 O661 1.284 1_556 S
C651 O662 1.258 . S
C651 O663 1.256 . S
O652 La632 2.521 . S
O652 C634 1.261 1_554 S
O653 La632 2.628 1_556 S
O653 C634 1.243 . S
O654 La632 2.554 . S
O654 C641 1.240 . S
O655 La632 2.757 . S
O655 La633 2.482 1_554 S
O655 C641 1.289 . S
O656 La632 2.470 1_556 S
O656 C642 1.258 . S
O657 La633 2.503 . S
O657 C642 1.256 . S
O658 La633 2.521 1_554 S
O658 C643 1.261 . S
O659 La633 2.628 1_554 S
O659 C643 1.243 . S
O660 La633 2.554 . S
O660 C650 1.240 . S
O661 La632 2.498 . S
O661 La633 2.762 1_554 S
O661 C650 1.284 1_554 S
O662 La633 2.470 1_554 S
O662 C651 1.258 . S
O663 La632 2.503 . S
O663 C651 1.256 . S
H664 C636 0.930 1_554 S
H665 C637 0.930 . S
H666 C639 0.929 . S
H667 C640 0.929 . S
H668 C645 0.930 . S
H669 C646 0.930 . S
H670 C648 0.929 . S
H671 C649 0.929 . S
La672 C674 2.928 . S
La672 O692 2.521 . S
La672 O693 2.628 . S
La672 O694 2.554 . S
La672 O695 2.757 . S
La672 O696 2.470 . S
La672 O701 2.482 . S
La672 O703 2.503 . S
La673 C683 2.928 . S
La673 O695 2.482 . S
La673 O697 2.503 . S
La673 O698 2.521 . S
La673 O699 2.628 . S
La673 O700 2.554 . S
La673 O701 2.757 . S
La673 O702 2.470 . S
C674 La672 2.928 . S
C674 C675 1.503 . S
C674 O692 1.261 . S
C674 O693 1.243 . S
C675 C674 1.503 . S
C675 C676 1.394 . S
C675 C680 1.373 . S
C676 C675 1.394 . S
C676 C677 1.380 . S
C676 H704 0.930 . S
C677 C676 1.380 . S
C677 C678 1.376 1_655 S
C677 H705 0.930 1_655 S
C678 C677 1.376 1_455 S
C678 C679 1.370 1_455 S
C679 C678 1.370 1_655 S
C679 C680 1.396 . S
C679 H706 0.927 . S
C680 C675 1.373 . S
C680 C679 1.396 . S
C680 H707 0.929 . S
C681 O694 1.240 . S
C681 O695 1.289 . S
C682 O696 1.258 . S
C682 O697 1.256 . S
C683 La673 2.928 . S
C683 C684 1.503 . S
C683 O698 1.261 . S
C683 O699 1.243 . S
C684 C683 1.503 . S
C684 C685 1.394 . S
C684 C689 1.373 . S
C685 C684 1.394 . S
C685 C686 1.380 . S
C685 H708 0.930 . S
C686 C685 1.380 . S
C686 C687 1.376 . S
C686 H709 0.930 . S
C687 C686 1.376 . S
C687 C688 1.370 . S
C688 C687 1.370 . S
C688 C689 1.396 . S
C688 H710 0.929 . S
C689 C684 1.373 . S
C689 C688 1.396 . S
C689 H711 0.929 . S
C690 O700 1.240 . S
C690 O701 1.289 . S
C691 O702 1.258 . S
C691 O703 1.256 . S
O692 La672 2.521 . S
O692 C674 1.261 . S
O693 La672 2.628 . S
O693 C674 1.243 . S
O694 La672 2.554 . S
O694 C681 1.240 . S
O695 La672 2.757 . S
O695 La673 2.482 . S
O695 C681 1.289 . S
O696 La672 2.470 . S
O696 C682 1.258 . S
O697 La673 2.503 . S
O697 C682 1.256 . S
O698 La673 2.521 . S
O698 C683 1.261 . S
O699 La673 2.628 . S
O699 C683 1.243 . S
O700 La673 2.554 . S
O700 C690 1.240 . S
O701 La672 2.482 . S
O701 La673 2.757 . S
O701 C690 1.289 . S
O702 La673 2.470 . S
O702 C691 1.258 . S
O703 La672 2.503 . S
O703 C691 1.256 . S
H704 C676 0.930 . S
H705 C677 0.930 1_455 S
H706 C679 0.927 . S
H707 C680 0.929 . S
H708 C685 0.930 . S
H709 C686 0.930 . S
H710 C688 0.929 . S
H711 C689 0.929 . S
La712 C714 2.928 . S
La712 O732 2.521 . S
La712 O733 2.628 . S
La712 O734 2.554 . S
La712 O735 2.757 . S
La712 O736 2.470 . S
La712 O741 2.482 . S
La712 O743 2.503 . S
La713 C723 2.928 . S
La713 O735 2.482 . S
La713 O737 2.524 . S
La713 O738 2.521 . S
La713 O739 2.628 . S
La713 O740 2.554 . S
La713 O741 2.757 . S
La713 O742 2.470 . S
C714 La712 2.928 . S
C714 C715 1.503 . S
C714 O732 1.261 . S
C714 O733 1.243 . S
C715 C714 1.503 . S
C715 C716 1.394 . S
C715 C720 1.373 1_455 S
C716 C715 1.394 . S
C716 C717 1.380 1_455 S
C716 H744 0.930 . S
C717 C716 1.380 1_655 S
C717 C718 1.376 . S
C717 H745 0.930 . S
C718 C717 1.376 . S
C718 C719 1.370 . S
C719 C718 1.370 . S
C719 C720 1.396 . S
C719 H746 0.929 . S
C720 C715 1.373 1_655 S
C720 C719 1.396 . S
C720 H747 0.929 . S
C721 O734 1.240 . S
C721 O735 1.289 . S
C722 O736 1.258 1_655 S
C722 O737 1.251 1_655 S
C723 La713 2.928 . S
C723 C724 1.503 . S
C723 O738 1.261 . S
C723 O739 1.243 . S
C724 C723 1.503 . S
C724 C725 1.394 . S
C724 C729 1.373 . S
C725 C724 1.394 . S
C725 C726 1.380 . S
C725 H748 0.930 . S
C726 C725 1.380 . S
C726 C727 1.376 . S
C726 H749 0.930 . S
C727 C726 1.376 . S
C727 C728 1.370 . S
C728 C727 1.370 . S
C728 C729 1.396 . S
C728 H750 0.929 . S
C729 C724 1.373 . S
C729 C728 1.396 . S
C729 H751 0.929 . S
C730 O740 1.240 . S
C730 O741 1.289 . S
C731 O742 1.258 . S
C731 O743 1.256 . S
O732 La712 2.521 . S
O732 C714 1.261 . S
O733 La712 2.628 . S
O733 C714 1.243 . S
O734 La712 2.554 . S
O734 C721 1.240 . S
O735 La712 2.757 . S
O735 La713 2.482 . S
O735 C721 1.289 . S
O736 La712 2.470 . S
O736 C722 1.258 1_455 S
O737 La713 2.524 . S
O737 C722 1.251 1_455 S
O738 La713 2.521 . S
O738 C723 1.261 . S
O739 La713 2.628 . S
O739 C723 1.243 . S
O740 La713 2.554 . S
O740 C730 1.240 . S
O741 La712 2.482 . S
O741 La713 2.757 . S
O741 C730 1.289 . S
O742 La713 2.470 . S
O742 C731 1.258 . S
O743 La712 2.503 . S
O743 C731 1.256 . S
H744 C716 0.930 . S
H745 C717 0.930 . S
H746 C719 0.929 . S
H747 C720 0.929 . S
H748 C725 0.930 . S
H749 C726 0.930 . S
H750 C728 0.929 . S
H751 C729 0.929 . S
La752 C754 2.928 . S
La752 O772 2.521 . S
La752 O773 2.628 . S
La752 O774 2.554 . S
La752 O775 2.757 . S
La752 O776 2.470 . S
La752 O781 2.482 . S
La752 O783 2.503 . S
La753 C763 2.928 . S
La753 O775 2.482 . S
La753 O777 2.503 . S
La753 O778 2.521 . S
La753 O779 2.628 . S
La753 O780 2.554 . S
La753 O781 2.757 . S
La753 O782 2.470 . S
C754 La752 2.928 . S
C754 C755 1.503 . S
C754 O772 1.261 . S
C754 O773 1.243 . S
C755 C754 1.503 . S
C755 C756 1.394 . S
C755 C760 1.373 . S
C756 C755 1.394 . S
C756 C757 1.380 . S
C756 H784 0.930 . S
C757 C756 1.380 . S
C757 C758 1.376 . S
C757 H785 0.930 . S
C758 C757 1.376 . S
C758 C759 1.370 . S
C759 C758 1.370 . S
C759 C760 1.396 . S
C759 H786 0.929 . S
C760 C755 1.373 . S
C760 C759 1.396 . S
C760 H787 0.929 . S
C761 O774 1.240 . S
C761 O775 1.289 . S
C762 O776 1.258 . S
C762 O777 1.256 . S
C763 La753 2.928 . S
C763 C764 1.503 . S
C763 O778 1.261 . S
C763 O779 1.243 . S
C764 C763 1.503 . S
C764 C765 1.394 . S
C764 C769 1.373 . S
C765 C764 1.394 . S
C765 C766 1.380 . S
C765 H788 0.930 . S
C766 C765 1.380 . S
C766 C767 1.376 . S
C766 H789 0.930 . S
C767 C766 1.376 . S
C767 C768 1.370 . S
C768 C767 1.370 . S
C768 C769 1.396 . S
C768 H790 0.929 . S
C769 C764 1.373 . S
C769 C768 1.396 . S
C769 H791 0.929 . S
C770 O780 1.240 . S
C770 O781 1.289 . S
C771 O782 1.258 . S
C771 O783 1.256 . S
O772 La752 2.521 . S
O772 C754 1.261 . S
O773 La752 2.628 . S
O773 C754 1.243 . S
O774 La752 2.554 . S
O774 C761 1.240 . S
O775 La752 2.757 . S
O775 La753 2.482 . S
O775 C761 1.289 . S
O776 La752 2.470 . S
O776 C762 1.258 . S
O777 La753 2.503 . S
O777 C762 1.256 . S
O778 La753 2.521 . S
O778 C763 1.261 . S
O779 La753 2.628 . S
O779 C763 1.243 . S
O780 La753 2.554 . S
O780 C770 1.240 . S
O781 La752 2.482 . S
O781 La753 2.757 . S
O781 C770 1.289 . S
O782 La753 2.470 . S
O782 C771 1.258 . S
O783 La752 2.503 . S
O783 C771 1.256 . S
H784 C756 0.930 . S
H785 C757 0.930 . S
H786 C759 0.929 . S
H787 C760 0.929 . S
H788 C765 0.930 . S
H789 C766 0.930 . S
H790 C768 0.929 . S
H791 C769 0.929 . S
La792 C794 2.928 . S
La792 O812 2.521 . S
La792 O813 2.628 . S
La792 O814 2.554 . S
La792 O815 2.757 . S
La792 O816 2.470 . S
La792 O821 2.482 . S
La792 O823 2.503 . S
La793 C803 2.928 . S
La793 O815 2.482 . S
La793 O817 2.503 . S
La793 O818 2.521 . S
La793 O819 2.628 . S
La793 O820 2.554 . S
La793 O821 2.757 . S
La793 O822 2.470 . S
C794 La792 2.928 . S
C794 C795 1.503 . S
C794 O812 1.261 . S
C794 O813 1.243 . S
C795 C794 1.503 . S
C795 C796 1.394 . S
C795 C800 1.373 . S
C796 C795 1.394 . S
C796 C797 1.380 . S
C796 H824 0.930 . S
C797 C796 1.380 . S
C797 C798 1.376 . S
C797 H825 0.930 . S
C798 C797 1.376 . S
C798 C799 1.370 . S
C799 C798 1.370 . S
C799 C800 1.396 . S
C799 H826 0.929 . S
C800 C795 1.373 . S
C800 C799 1.396 . S
C800 H827 0.929 . S
C801 O814 1.240 . S
C801 O815 1.289 . S
C802 O816 1.258 . S
C802 O817 1.256 . S
C803 La793 2.928 . S
C803 C804 1.503 . S
C803 O818 1.261 . S
C803 O819 1.243 . S
C804 C803 1.503 . S
C804 C805 1.394 . S
C804 C809 1.373 . S
C805 C804 1.394 . S
C805 C806 1.380 . S
C805 H828 0.930 . S
C806 C805 1.380 . S
C806 C807 1.376 . S
C806 H829 0.930 . S
C807 C806 1.376 . S
C807 C808 1.370 . S
C808 C807 1.370 . S
C808 C809 1.396 . S
C808 H830 0.929 . S
C809 C804 1.373 . S
C809 C808 1.396 . S
C809 H831 0.929 . S
C810 O820 1.240 . S
C810 O821 1.289 . S
C811 O822 1.258 . S
C811 O823 1.256 . S
O812 La792 2.521 . S
O812 C794 1.261 . S
O813 La792 2.628 . S
O813 C794 1.243 . S
O814 La792 2.554 . S
O814 C801 1.240 . S
O815 La792 2.757 . S
O815 La793 2.482 . S
O815 C801 1.289 . S
O816 La792 2.470 . S
O816 C802 1.258 . S
O817 La793 2.503 . S
O817 C802 1.256 . S
O818 La793 2.521 . S
O818 C803 1.261 . S
O819 La793 2.628 . S
O819 C803 1.243 . S
O820 La793 2.554 . S
O820 C810 1.240 . S
O821 La792 2.482 . S
O821 La793 2.757 . S
O821 C810 1.289 . S
O822 La793 2.470 . S
O822 C811 1.258 . S
O823 La792 2.503 . S
O823 C811 1.256 . S
H824 C796 0.930 . S
H825 C797 0.930 . S
H826 C799 0.929 . S
H827 C800 0.929 . S
H828 C805 0.930 . S
H829 C806 0.930 . S
H830 C808 0.929 . S
H831 C809 0.929 . S
La832 C834 2.928 . S
La832 O852 2.521 . S
La832 O853 2.628 . S
La832 O854 2.554 . S
La832 O855 2.757 . S
La832 O856 2.470 . S
La832 O861 2.482 . S
La832 O863 2.503 . S
La833 C843 2.928 . S
La833 O855 2.482 . S
La833 O857 2.503 . S
La833 O858 2.521 . S
La833 O859 2.628 . S
La833 O860 2.554 . S
La833 O861 2.757 . S
La833 O862 2.470 . S
C834 La832 2.928 . S
C834 C835 1.503 . S
C834 O852 1.261 . S
C834 O853 1.243 . S
C835 C834 1.503 . S
C835 C836 1.394 . S
C835 C840 1.373 . S
C836 C835 1.394 . S
C836 C837 1.380 . S
C836 H864 0.930 . S
C837 C836 1.380 . S
C837 C838 1.376 . S
C837 H865 0.930 . S
C838 C837 1.376 . S
C838 C839 1.370 . S
C839 C838 1.370 . S
C839 C840 1.396 . S
C839 H866 0.929 . S
C840 C835 1.373 . S
C840 C839 1.396 . S
C840 H867 0.929 . S
C841 O854 1.240 . S
C841 O855 1.289 . S
C842 O856 1.258 . S
C842 O857 1.256 . S
C843 La833 2.928 . S
C843 C844 1.503 . S
C843 O858 1.261 . S
C843 O859 1.243 . S
C844 C843 1.503 . S
C844 C845 1.394 . S
C844 C849 1.373 . S
C845 C844 1.394 . S
C845 C846 1.380 . S
C845 H868 0.930 . S
C846 C845 1.380 . S
C846 C847 1.376 . S
C846 H869 0.930 . S
C847 C846 1.376 . S
C847 C848 1.370 . S
C848 C847 1.370 . S
C848 C849 1.396 . S
C848 H870 0.929 . S
C849 C844 1.373 . S
C849 C848 1.396 . S
C849 H871 0.929 . S
C850 O860 1.240 . S
C850 O861 1.289 . S
C851 O862 1.258 . S
C851 O863 1.256 . S
O852 La832 2.521 . S
O852 C834 1.261 . S
O853 La832 2.628 . S
O853 C834 1.243 . S
O854 La832 2.554 . S
O854 C841 1.240 . S
O855 La832 2.757 . S
O855 La833 2.482 . S
O855 C841 1.289 . S
O856 La832 2.470 . S
O856 C842 1.258 . S
O857 La833 2.503 . S
O857 C842 1.256 . S
O858 La833 2.521 . S
O858 C843 1.261 . S
O859 La833 2.628 . S
O859 C843 1.243 . S
O860 La833 2.554 . S
O860 C850 1.240 . S
O861 La832 2.482 . S
O861 La833 2.757 . S
O861 C850 1.289 . S
O862 La833 2.470 . S
O862 C851 1.258 . S
O863 La832 2.503 . S
O863 C851 1.256 . S
H864 C836 0.930 . S
H865 C837 0.930 . S
H866 C839 0.929 . S
H867 C840 0.929 . S
H868 C845 0.930 . S
H869 C846 0.930 . S
H870 C848 0.929 . S
H871 C849 0.929 . S
La872 C874 2.928 . S
La872 O892 2.521 . S
La872 O893 2.628 . S
La872 O894 2.554 . S
La872 O895 2.757 . S
La872 O896 2.470 . S
La872 O901 2.482 . S
La872 O903 2.503 . S
La873 C883 2.928 . S
La873 O895 2.482 . S
La873 O897 2.503 . S
La873 O898 2.521 . S
La873 O899 2.628 . S
La873 O900 2.554 . S
La873 O901 2.757 . S
La873 O902 2.470 . S
C874 La872 2.928 . S
C874 C875 1.503 . S
C874 O892 1.261 . S
C874 O893 1.243 . S
C875 C874 1.503 . S
C875 C876 1.394 . S
C875 C880 1.373 . S
C876 C875 1.394 . S
C876 C877 1.380 . S
C876 H904 0.930 . S
C877 C876 1.380 . S
C877 C878 1.376 . S
C877 H905 0.930 . S
C878 C877 1.376 . S
C878 C879 1.370 . S
C879 C878 1.370 . S
C879 C880 1.396 . S
C879 H906 0.929 . S
C880 C875 1.373 . S
C880 C879 1.396 . S
C880 H907 0.929 . S
C881 O894 1.240 . S
C881 O895 1.289 . S
C882 O896 1.258 . S
C882 O897 1.256 . S
C883 La873 2.928 . S
C883 C884 1.503 . S
C883 O898 1.261 . S
C883 O899 1.243 . S
C884 C883 1.503 . S
C884 C885 1.394 . S
C884 C889 1.373 . S
C885 C884 1.394 . S
C885 C886 1.380 . S
C885 H908 0.930 . S
C886 C885 1.380 . S
C886 C887 1.376 . S
C886 H909 0.930 . S
C887 C886 1.376 . S
C887 C888 1.370 . S
C888 C887 1.370 . S
C888 C889 1.396 . S
C888 H910 0.929 . S
C889 C884 1.373 . S
C889 C888 1.396 . S
C889 H911 0.929 . S
C890 O900 1.240 . S
C890 O901 1.289 . S
C891 O902 1.258 . S
C891 O903 1.256 . S
O892 La872 2.521 . S
O892 C874 1.261 . S
O893 La872 2.628 . S
O893 C874 1.243 . S
O894 La872 2.554 . S
O894 C881 1.240 . S
O895 La872 2.757 . S
O895 La873 2.482 . S
O895 C881 1.289 . S
O896 La872 2.470 . S
O896 C882 1.258 . S
O897 La873 2.503 . S
O897 C882 1.256 . S
O898 La873 2.521 . S
O898 C883 1.261 . S
O899 La873 2.628 . S
O899 C883 1.243 . S
O900 La873 2.554 . S
O900 C890 1.240 . S
O901 La872 2.482 . S
O901 La873 2.757 . S
O901 C890 1.289 . S
O902 La873 2.470 . S
O902 C891 1.258 . S
O903 La872 2.503 . S
O903 C891 1.256 . S
H904 C876 0.930 . S
H905 C877 0.930 . S
H906 C879 0.929 . S
H907 C880 0.929 . S
H908 C885 0.930 . S
H909 C886 0.930 . S
H910 C888 0.929 . S
H911 C889 0.929 . S
La912 C914 2.928 . S
La912 O932 2.521 1_554 S
La912 O933 2.628 . S
La912 O934 2.554 1_554 S
La912 O935 2.761 . S
La912 O936 2.470 . S
La912 O941 2.482 . S
La912 O943 2.503 . S
La913 C923 2.928 1_455 S
La913 O935 2.506 . S
La913 O937 2.503 . S
La913 O938 2.521 1_455 S
La913 O939 2.628 1_455 S
La913 O940 2.554 . S
La913 O941 2.757 . S
La913 O942 2.470 . S
C914 La912 2.928 . S
C914 C915 1.503 . S
C914 O932 1.261 1_554 S
C914 O933 1.243 . S
C915 C914 1.503 . S
C915 C916 1.394 1_554 S
C915 C920 1.373 . S
C916 C915 1.394 1_556 S
C916 C917 1.380 . S
C916 H944 0.930 . S
C917 C916 1.380 . S
C917 C918 1.376 . S
C917 H945 0.930 . S
C918 C917 1.376 . S
C918 C919 1.370 1_556 S
C919 C918 1.370 1_554 S
C919 C920 1.396 . S
C919 H946 0.929 . S
C920 C915 1.373 . S
C920 C919 1.396 . S
C920 H947 0.929 . S
C921 O934 1.240 . S
C921 O935 1.264 1_556 S
C922 O936 1.258 . S
C922 O937 1.256 . S
C923 La913 2.928 1_655 S
C923 C924 1.503 . S
C923 O938 1.261 . S
C923 O939 1.243 . S
C924 C923 1.503 . S
C924 C925 1.394 . S
C924 C929 1.373 . S
C925 C924 1.394 . S
C925 C926 1.380 . S
C925 H948 0.930 . S
C926 C925 1.380 . S
C926 C927 1.376 . S
C926 H949 0.930 . S
C927 C926 1.376 . S
C927 C928 1.370 . S
C928 C927 1.370 . S
C928 C929 1.396 . S
C928 H950 0.929 . S
C929 C924 1.373 . S
C929 C928 1.396 . S
C929 H951 0.929 . S
C930 O940 1.240 . S
C930 O941 1.289 . S
C931 O942 1.258 . S
C931 O943 1.256 . S
O932 La912 2.521 1_556 S
O932 C914 1.261 1_556 S
O933 La912 2.628 . S
O933 C914 1.243 . S
O934 La912 2.554 1_556 S
O934 C921 1.240 . S
O935 La912 2.761 . S
O935 La913 2.506 . S
O935 C921 1.264 1_554 S
O936 La912 2.470 . S
O936 C922 1.258 . S
O937 La913 2.503 . S
O937 C922 1.256 . S
O938 La913 2.521 1_655 S
O938 C923 1.261 . S
O939 La913 2.628 1_655 S
O939 C923 1.243 . S
O940 La913 2.554 . S
O940 C930 1.240 . S
O941 La912 2.482 . S
O941 La913 2.757 . S
O941 C930 1.289 . S
O942 La913 2.470 . S
O942 C931 1.258 . S
O943 La912 2.503 . S
O943 C931 1.256 . S
H944 C916 0.930 . S
H945 C917 0.930 . S
H946 C919 0.929 . S
H947 C920 0.929 . S
H948 C925 0.930 . S
H949 C926 0.930 . S
H950 C928 0.929 . S
H951 C929 0.929 . S
C952 C953 1.369 . S
C952 C954 1.419 . S
C952 H956 0.930 . S
C953 C952 1.369 . S
C953 C962 1.429 1_556 S
C954 C952 1.419 . S
C954 C955 1.363 1_556 S
C954 H957 0.929 . S
C955 C954 1.363 1_554 S
C955 C961 1.428 . S
H956 C952 0.930 . S
H957 C954 0.929 . S
S958 N959 1.613 . S
S958 N960 1.610 . S
N959 S958 1.613 . S
N959 C962 1.350 . S
N960 S958 1.610 . S
N960 C961 1.351 . S
C961 C955 1.428 . S
C961 N960 1.351 . S
C961 C962 1.434 . S
C962 C953 1.429 1_554 S
C962 N959 1.350 . S
C962 C961 1.434 . S
C963 C964 1.369 . S
C963 C965 1.419 . S
C963 H967 0.930 . S
C964 C963 1.369 . S
C964 C973 1.429 . S
C965 C963 1.419 . S
C965 C966 1.363 . S
C965 H968 0.929 . S
C966 C965 1.363 . S
C966 C972 1.428 . S
H967 C963 0.930 . S
H968 C965 0.929 . S
S969 N970 1.613 . S
S969 N971 1.610 . S
N970 S969 1.613 . S
N970 C973 1.350 . S
N971 S969 1.610 . S
N971 C972 1.351 . S
C972 C966 1.428 . S
C972 N971 1.351 . S
C972 C973 1.434 . S
C973 C964 1.429 . S
C973 N970 1.350 . S
C973 C972 1.434 . S
C974 C975 1.369 . S
C974 C976 1.419 . S
C974 H978 0.930 . S
C975 C974 1.369 . S
C975 C984 1.429 . S
C976 C974 1.419 . S
C976 C977 1.363 . S
C976 H979 0.929 . S
C977 C976 1.363 . S
C977 C983 1.428 . S
H978 C974 0.930 . S
H979 C976 0.929 . S
S980 N981 1.613 . S
S980 N982 1.610 . S
N981 S980 1.613 . S
N981 C984 1.350 . S
N982 S980 1.610 . S
N982 C983 1.351 . S
C983 C977 1.428 . S
C983 N982 1.351 . S
C983 C984 1.434 . S
C984 C975 1.429 . S
C984 N981 1.350 . S
C984 C983 1.434 . S
C985 C986 1.369 . S
C985 C987 1.419 . S
C985 H989 0.930 . S
C986 C985 1.369 . S
C986 C995 1.429 . S
C987 C985 1.419 . S
C987 C988 1.363 . S
C987 H990 0.929 . S
C988 C987 1.363 . S
C988 C994 1.428 . S
H989 C985 0.930 . S
H990 C987 0.929 . S
S991 N992 1.613 . S
S991 N993 1.610 . S
N992 S991 1.613 . S
N992 C995 1.350 . S
N993 S991 1.610 . S
N993 C994 1.351 . S
C994 C988 1.428 . S
C994 N993 1.351 . S
C994 C995 1.434 . S
C995 C986 1.429 . S
C995 N992 1.350 . S
C995 C994 1.434 . S
C996 C997 1.369 . S
C996 C998 1.419 . S
C996 H1000 0.930 . S
C997 C996 1.369 . S
C997 C1006 1.429 . S
C998 C996 1.419 . S
C998 C999 1.363 . S
C998 H1001 0.929 . S
C999 C998 1.363 . S
C999 C1005 1.428 . S
H1000 C996 0.930 . S
H1001 C998 0.929 . S
S1002 N1003 1.613 . S
S1002 N1004 1.610 . S
N1003 S1002 1.613 . S
N1003 C1006 1.350 . S
N1004 S1002 1.610 . S
N1004 C1005 1.351 . S
C1005 C999 1.428 . S
C1005 N1004 1.351 . S
C1005 C1006 1.434 . S
C1006 C997 1.429 . S
C1006 N1003 1.350 . S
C1006 C1005 1.434 . S
C1007 C1008 1.369 . S
C1007 C1009 1.419 . S
C1007 H1011 0.930 . S
C1008 C1007 1.369 . S
C1008 C1017 1.429 . S
C1009 C1007 1.419 . S
C1009 C1010 1.363 . S
C1009 H1012 0.929 . S
C1010 C1009 1.363 . S
C1010 C1016 1.428 . S
H1011 C1007 0.930 . S
H1012 C1009 0.929 . S
S1013 N1014 1.613 . S
S1013 N1015 1.610 . S
N1014 S1013 1.613 . S
N1014 C1017 1.350 . S
N1015 S1013 1.610 . S
N1015 C1016 1.351 . S
C1016 C1010 1.428 . S
C1016 N1015 1.351 . S
C1016 C1017 1.434 . S
C1017 C1008 1.429 . S
C1017 N1014 1.350 . S
C1017 C1016 1.434 . S
C1018 C1019 1.369 . S
C1018 C1020 1.419 . S
C1018 H1022 0.930 . S
C1019 C1018 1.369 . S
C1019 C1028 1.429 . S
C1020 C1018 1.419 . S
C1020 C1021 1.363 . S
C1020 H1023 0.929 . S
C1021 C1020 1.363 . S
C1021 C1027 1.428 . S
H1022 C1018 0.930 . S
H1023 C1020 0.929 . S
S1024 N1025 1.613 . S
S1024 N1026 1.610 . S
N1025 S1024 1.613 . S
N1025 C1028 1.350 . S
N1026 S1024 1.610 . S
N1026 C1027 1.351 . S
C1027 C1021 1.428 . S
C1027 N1026 1.351 . S
C1027 C1028 1.434 . S
C1028 C1019 1.429 . S
C1028 N1025 1.350 . S
C1028 C1027 1.434 . S
C1029 C1030 1.369 . S
C1029 C1031 1.419 . S
C1029 H1033 0.930 . S
C1030 C1029 1.369 . S
C1030 C1039 1.429 . S
C1031 C1029 1.419 . S
C1031 C1032 1.363 . S
C1031 H1034 0.929 . S
C1032 C1031 1.363 . S
C1032 C1038 1.428 . S
H1033 C1029 0.930 . S
H1034 C1031 0.929 . S
S1035 N1036 1.613 . S
S1035 N1037 1.610 . S
N1036 S1035 1.613 . S
N1036 C1039 1.350 . S
N1037 S1035 1.610 . S
N1037 C1038 1.351 . S
C1038 C1032 1.428 . S
C1038 N1037 1.351 . S
C1038 C1039 1.434 . S
C1039 C1030 1.429 . S
C1039 N1036 1.350 . S
C1039 C1038 1.434 . S
C1040 C1041 1.369 . S
C1040 C1042 1.419 . S
C1040 H1044 0.930 . S
C1041 C1040 1.369 . S
C1041 C1050 1.429 1_455 S
C1042 C1040 1.419 . S
C1042 C1043 1.363 . S
C1042 H1045 0.929 . S
C1043 C1042 1.363 . S
C1043 C1049 1.428 . S
H1044 C1040 0.930 . S
H1045 C1042 0.929 . S
S1046 N1047 1.613 . S
S1046 N1048 1.610 1_655 S
N1047 S1046 1.613 . S
N1047 C1050 1.350 . S
N1048 S1046 1.610 1_455 S
N1048 C1049 1.351 . S
C1049 C1043 1.428 . S
C1049 N1048 1.351 . S
C1049 C1050 1.434 1_455 S
C1050 C1041 1.429 1_655 S
C1050 N1047 1.350 . S
C1050 C1049 1.434 1_655 S
C1051 C1052 1.369 . S
C1051 C1053 1.419 . S
C1051 H1055 0.930 . S
C1052 C1051 1.369 . S
C1052 C1061 1.429 . S
C1053 C1051 1.419 . S
C1053 C1054 1.363 . S
C1053 H1056 0.929 . S
C1054 C1053 1.363 . S
C1054 C1060 1.428 . S
H1055 C1051 0.930 . S
H1056 C1053 0.929 . S
S1057 N1058 1.613 . S
S1057 N1059 1.610 . S
N1058 S1057 1.613 . S
N1058 C1061 1.350 . S
N1059 S1057 1.610 . S
N1059 C1060 1.351 . S
C1060 C1054 1.428 . S
C1060 N1059 1.351 . S
C1060 C1061 1.434 . S
C1061 C1052 1.429 . S
C1061 N1058 1.350 . S
C1061 C1060 1.434 . S
C1062 C1063 1.369 . S
C1062 C1064 1.419 . S
C1062 H1066 0.930 . S
C1063 C1062 1.369 . S
C1063 C1072 1.429 . S
C1064 C1062 1.419 . S
C1064 C1065 1.363 . S
C1064 H1067 0.929 . S
C1065 C1064 1.363 . S
C1065 C1071 1.428 . S
H1066 C1062 0.930 . S
H1067 C1064 0.929 . S
S1068 N1069 1.613 . S
S1068 N1070 1.610 . S
N1069 S1068 1.613 . S
N1069 C1072 1.350 . S
N1070 S1068 1.610 . S
N1070 C1071 1.351 . S
C1071 C1065 1.428 . S
C1071 N1070 1.351 . S
C1071 C1072 1.434 . S
C1072 C1063 1.429 . S
C1072 N1069 1.350 . S
C1072 C1071 1.434 . S
C1073 C1074 1.369 . S
C1073 C1075 1.419 . S
C1073 H1077 0.930 . S
C1074 C1073 1.369 . S
C1074 C1083 1.429 . S
C1075 C1073 1.419 . S
C1075 C1076 1.363 . S
C1075 H1078 0.929 . S
C1076 C1075 1.363 . S
C1076 C1082 1.428 . S
H1077 C1073 0.930 . S
H1078 C1075 0.929 . S
S1079 N1080 1.613 . S
S1079 N1081 1.610 . S
N1080 S1079 1.613 . S
N1080 C1083 1.350 . S
N1081 S1079 1.610 . S
N1081 C1082 1.351 . S
C1082 C1076 1.428 . S
C1082 N1081 1.351 . S
C1082 C1083 1.434 . S
C1083 C1074 1.429 . S
C1083 N1080 1.350 . S
C1083 C1082 1.434 . S
C1084 C1085 1.369 . S
C1084 C1086 1.419 . S
C1084 H1088 0.930 . S
C1085 C1084 1.369 . S
C1085 C1094 1.429 . S
C1086 C1084 1.419 . S
C1086 C1087 1.363 . S
C1086 H1089 0.929 . S
C1087 C1086 1.363 . S
C1087 C1093 1.428 . S
H1088 C1084 0.930 . S
H1089 C1086 0.929 . S
S1090 N1091 1.613 1_465 S
S1090 N1092 1.610 1_565 S
N1091 S1090 1.613 1_645 S
N1091 C1094 1.350 1_655 S
N1092 S1090 1.610 1_545 S
N1092 C1093 1.351 . S
C1093 C1087 1.428 . S
C1093 N1092 1.351 . S
C1093 C1094 1.434 . S
C1094 C1085 1.429 . S
C1094 N1091 1.350 1_455 S
C1094 C1093 1.434 . S
C1095 C1096 1.369 . S
C1095 C1097 1.419 . S
C1095 H1099 0.930 . S
C1096 C1095 1.369 . S
C1096 C1105 1.429 . S
C1097 C1095 1.419 . S
C1097 C1098 1.363 . S
C1097 H1100 0.929 . S
C1098 C1097 1.363 . S
C1098 C1104 1.428 . S
H1099 C1095 0.930 . S
H1100 C1097 0.929 . S
S1101 N1102 1.613 . S
S1101 N1103 1.610 . S
N1102 S1101 1.613 . S
N1102 C1105 1.350 . S
N1103 S1101 1.610 . S
N1103 C1104 1.351 . S
C1104 C1098 1.428 . S
C1104 N1103 1.351 . S
C1104 C1105 1.434 . S
C1105 C1096 1.429 . S
C1105 N1102 1.350 . S
C1105 C1104 1.434 . S
C1106 C1107 1.369 . S
C1106 C1108 1.419 . S
C1106 H1110 0.930 . S
C1107 C1106 1.369 . S
C1107 C1116 1.429 . S
C1108 C1106 1.419 . S
C1108 C1109 1.363 . S
C1108 H1111 0.929 . S
C1109 C1108 1.363 . S
C1109 C1115 1.428 . S
H1110 C1106 0.930 . S
H1111 C1108 0.929 . S
S1112 N1113 1.613 . S
S1112 N1114 1.610 . S
N1113 S1112 1.613 . S
N1113 C1116 1.350 . S
N1114 S1112 1.610 . S
N1114 C1115 1.351 . S
C1115 C1109 1.428 . S
C1115 N1114 1.351 . S
C1115 C1116 1.434 . S
C1116 C1107 1.429 . S
C1116 N1113 1.350 . S
C1116 C1115 1.434 . S
C1117 C1118 1.369 . S
C1117 C1119 1.419 . S
C1117 H1121 0.930 . S
C1118 C1117 1.369 . S
C1118 C1127 1.429 . S
C1119 C1117 1.419 . S
C1119 C1120 1.363 . S
C1119 H1122 0.929 . S
C1120 C1119 1.363 . S
C1120 C1126 1.428 . S
H1121 C1117 0.930 . S
H1122 C1119 0.929 . S
S1123 N1124 1.613 . S
S1123 N1125 1.610 . S
N1124 S1123 1.613 . S
N1124 C1127 1.350 . S
N1125 S1123 1.610 . S
N1125 C1126 1.351 . S
C1126 C1120 1.428 . S
C1126 N1125 1.351 . S
C1126 C1127 1.434 . S
C1127 C1118 1.429 . S
C1127 N1124 1.350 . S
C1127 C1126 1.434 . S
C1128 C1129 1.369 . S
C1128 C1130 1.419 . S
C1128 H1132 0.930 . S
C1129 C1128 1.369 . S
C1129 C1138 1.429 1_565 S
C1130 C1128 1.419 . S
C1130 C1131 1.363 1_565 S
C1130 H1133 0.929 . S
C1131 C1130 1.363 1_545 S
C1131 C1137 1.428 . S
H1132 C1128 0.930 . S
H1133 C1130 0.929 . S
S1134 N1135 1.613 . S
S1134 N1136 1.610 . S
N1135 S1134 1.613 . S
N1135 C1138 1.350 . S
N1136 S1134 1.610 . S
N1136 C1137 1.351 . S
C1137 C1131 1.428 . S
C1137 N1136 1.351 . S
C1137 C1138 1.434 . S
C1138 C1129 1.429 1_545 S
C1138 N1135 1.350 . S
C1138 C1137 1.434 . S
C1139 C1140 1.369 1_554 S
C1139 C1141 1.419 . S
C1139 H1143 0.930 . S
C1140 C1139 1.369 1_556 S
C1140 C1149 1.429 . S
C1141 C1139 1.419 . S
C1141 C1142 1.363 1_554 S
C1141 H1144 0.929 . S
C1142 C1141 1.363 1_556 S
C1142 C1148 1.428 . S
H1143 C1139 0.930 . S
H1144 C1141 0.929 . S
S1145 N1146 1.613 . S
S1145 N1147 1.610 . S
N1146 S1145 1.613 . S
N1146 C1149 1.350 . S
N1147 S1145 1.610 . S
N1147 C1148 1.351 . S
C1148 C1142 1.428 . S
C1148 N1147 1.351 . S
C1148 C1149 1.434 . S
C1149 C1140 1.429 . S
C1149 N1146 1.350 . S
C1149 C1148 1.434 . S
C1150 C1151 1.369 . S
C1150 C1152 1.419 . S
C1150 H1154 0.930 . S
C1151 C1150 1.369 . S
C1151 C1160 1.429 . S
C1152 C1150 1.419 . S
C1152 C1153 1.363 . S
C1152 H1155 0.929 . S
C1153 C1152 1.363 . S
C1153 C1159 1.428 . S
H1154 C1150 0.930 . S
H1155 C1152 0.929 . S
S1156 N1157 1.613 . S
S1156 N1158 1.610 . S
N1157 S1156 1.613 . S
N1157 C1160 1.350 . S
N1158 S1156 1.610 . S
N1158 C1159 1.351 . S
C1159 C1153 1.428 . S
C1159 N1158 1.351 . S
C1159 C1160 1.434 . S
C1160 C1151 1.429 . S
C1160 N1157 1.350 . S
C1160 C1159 1.434 . S
C1161 C1162 1.369 . S
C1161 C1163 1.419 . S
C1161 H1165 0.930 . S
C1162 C1161 1.369 . S
C1162 C1171 1.429 . S
C1163 C1161 1.419 . S
C1163 C1164 1.363 . S
C1163 H1166 0.929 . S
C1164 C1163 1.363 . S
C1164 C1170 1.428 . S
H1165 C1161 0.930 . S
H1166 C1163 0.929 . S
S1167 N1168 1.613 . S
S1167 N1169 1.610 . S
N1168 S1167 1.613 . S
N1168 C1171 1.350 . S
N1169 S1167 1.610 . S
N1169 C1170 1.351 . S
C1170 C1164 1.428 . S
C1170 N1169 1.351 . S
C1170 C1171 1.434 . S
C1171 C1162 1.429 . S
C1171 N1168 1.350 . S
C1171 C1170 1.434 . S
C1172 C1173 1.369 . S
C1172 C1174 1.419 . S
C1172 H1176 0.930 . S
C1173 C1172 1.369 . S
C1173 C1182 1.429 . S
C1174 C1172 1.419 . S
C1174 C1175 1.363 . S
C1174 H1177 0.929 . S
C1175 C1174 1.363 . S
C1175 C1181 1.428 . S
H1176 C1172 0.930 . S
H1177 C1174 0.929 . S
S1178 N1179 1.613 . S
S1178 N1180 1.610 . S
N1179 S1178 1.613 . S
N1179 C1182 1.350 . S
N1180 S1178 1.610 . S
N1180 C1181 1.351 . S
C1181 C1175 1.428 . S
C1181 N1180 1.351 . S
C1181 C1182 1.434 . S
C1182 C1173 1.429 . S
C1182 N1179 1.350 . S
C1182 C1181 1.434 . S
C1183 C1184 1.369 . S
C1183 C1185 1.419 . S
C1183 H1187 0.930 . S
C1184 C1183 1.369 . S
C1184 C1193 1.429 . S
C1185 C1183 1.419 . S
C1185 C1186 1.363 . S
C1185 H1188 0.929 . S
C1186 C1185 1.363 . S
C1186 C1192 1.428 . S
H1187 C1183 0.930 . S
H1188 C1185 0.929 . S
S1189 N1190 1.613 . S
S1189 N1191 1.610 . S
N1190 S1189 1.613 . S
N1190 C1193 1.350 . S
N1191 S1189 1.610 . S
N1191 C1192 1.351 . S
C1192 C1186 1.428 . S
C1192 N1191 1.351 . S
C1192 C1193 1.434 . S
C1193 C1184 1.429 . S
C1193 N1190 1.350 . S
C1193 C1192 1.434 . S
C1194 C1195 1.369 . S
C1194 C1196 1.419 . S
C1194 H1198 0.930 . S
C1195 C1194 1.369 . S
C1195 C1204 1.429 . S
C1196 C1194 1.419 . S
C1196 C1197 1.363 . S
C1196 H1199 0.929 . S
C1197 C1196 1.363 . S
C1197 C1203 1.428 . S
H1198 C1194 0.930 . S
H1199 C1196 0.929 . S
S1200 N1201 1.613 . S
S1200 N1202 1.610 . S
N1201 S1200 1.613 . S
N1201 C1204 1.350 . S
N1202 S1200 1.610 . S
N1202 C1203 1.351 . S
C1203 C1197 1.428 . S
C1203 N1202 1.351 . S
C1203 C1204 1.434 . S
C1204 C1195 1.429 . S
C1204 N1201 1.350 . S
C1204 C1203 1.434 . S
C1205 C1206 1.369 . S
C1205 C1207 1.419 . S
C1205 H1209 0.930 . S
C1206 C1205 1.369 . S
C1206 C1215 1.429 . S
C1207 C1205 1.419 . S
C1207 C1208 1.363 . S
C1207 H1210 0.929 . S
C1208 C1207 1.363 . S
C1208 C1214 1.428 . S
H1209 C1205 0.930 . S
H1210 C1207 0.929 . S
S1211 N1212 1.613 . S
S1211 N1213 1.610 . S
N1212 S1211 1.613 . S
N1212 C1215 1.350 . S
N1213 S1211 1.610 . S
N1213 C1214 1.351 . S
C1214 C1208 1.428 . S
C1214 N1213 1.351 . S
C1214 C1215 1.434 . S
C1215 C1206 1.429 . S
C1215 N1212 1.350 . S
C1215 C1214 1.434 . S
C1216 C1217 1.369 . S
C1216 C1218 1.419 . S
C1216 H1220 0.930 . S
C1217 C1216 1.369 . S
C1217 C1226 1.429 . S
C1218 C1216 1.419 . S
C1218 C1219 1.363 . S
C1218 H1221 0.929 . S
C1219 C1218 1.363 . S
C1219 C1225 1.428 . S
H1220 C1216 0.930 . S
H1221 C1218 0.929 . S
S1222 N1223 1.613 . S
S1222 N1224 1.610 . S
N1223 S1222 1.613 . S
N1223 C1226 1.350 . S
N1224 S1222 1.610 . S
N1224 C1225 1.351 . S
C1225 C1219 1.428 . S
C1225 N1224 1.351 . S
C1225 C1226 1.434 . S
C1226 C1217 1.429 . S
C1226 N1223 1.350 . S
C1226 C1225 1.434 . S
C1227 C1228 1.369 . S
C1227 C1229 1.419 . S
C1227 H1231 0.930 . S
C1228 C1227 1.369 . S
C1228 C1237 1.429 . S
C1229 C1227 1.419 . S
C1229 C1230 1.363 . S
C1229 H1232 0.929 . S
C1230 C1229 1.363 . S
C1230 C1236 1.428 . S
H1231 C1227 0.930 . S
H1232 C1229 0.929 . S
S1233 N1234 1.613 . S
S1233 N1235 1.610 . S
N1234 S1233 1.613 . S
N1234 C1237 1.350 . S
N1235 S1233 1.610 . S
N1235 C1236 1.351 . S
C1236 C1230 1.428 . S
C1236 N1235 1.351 . S
C1236 C1237 1.434 . S
C1237 C1228 1.429 . S
C1237 N1234 1.350 . S
C1237 C1236 1.434 . S
C1238 C1239 1.369 . S
C1238 C1240 1.419 . S
C1238 H1242 0.930 . S
C1239 C1238 1.369 . S
C1239 C1248 1.429 . S
C1240 C1238 1.419 . S
C1240 C1241 1.363 . S
C1240 H1243 0.929 . S
C1241 C1240 1.363 . S
C1241 C1247 1.428 . S
H1242 C1238 0.930 . S
H1243 C1240 0.929 . S
S1244 N1245 1.613 . S
S1244 N1246 1.610 . S
N1245 S1244 1.613 . S
N1245 C1248 1.350 . S
N1246 S1244 1.610 . S
N1246 C1247 1.351 . S
C1247 C1241 1.428 . S
C1247 N1246 1.351 . S
C1247 C1248 1.434 . S
C1248 C1239 1.429 . S
C1248 N1245 1.350 . S
C1248 C1247 1.434 . S
C1249 C1250 1.369 . S
C1249 C1251 1.419 . S
C1249 H1253 0.930 . S
C1250 C1249 1.369 . S
C1250 C1259 1.429 . S
C1251 C1249 1.419 . S
C1251 C1252 1.363 . S
C1251 H1254 0.929 . S
C1252 C1251 1.363 . S
C1252 C1258 1.428 . S
H1253 C1249 0.930 . S
H1254 C1251 0.929 . S
S1255 N1256 1.613 . S
S1255 N1257 1.610 . S
N1256 S1255 1.613 . S
N1256 C1259 1.350 . S
N1257 S1255 1.610 . S
N1257 C1258 1.351 . S
C1258 C1252 1.428 . S
C1258 N1257 1.351 . S
C1258 C1259 1.434 . S
C1259 C1250 1.429 . S
C1259 N1256 1.350 . S
C1259 C1258 1.434 . S
C1260 C1261 1.369 . S
C1260 C1262 1.419 . S
C1260 H1264 0.930 . S
C1261 C1260 1.369 . S
C1261 C1270 1.429 . S
C1262 C1260 1.419 . S
C1262 C1263 1.363 . S
C1262 H1265 0.929 . S
C1263 C1262 1.363 . S
C1263 C1269 1.428 . S
H1264 C1260 0.930 . S
H1265 C1262 0.929 . S
S1266 N1267 1.613 . S
S1266 N1268 1.610 . S
N1267 S1266 1.613 . S
N1267 C1270 1.350 . S
N1268 S1266 1.610 . S
N1268 C1269 1.351 . S
C1269 C1263 1.428 . S
C1269 N1268 1.351 . S
C1269 C1270 1.434 . S
C1270 C1261 1.429 . S
C1270 N1267 1.350 . S
C1270 C1269 1.434 . S
C1271 C1272 1.369 . S
C1271 C1273 1.419 . S
C1271 H1275 0.930 . S
C1272 C1271 1.369 . S
C1272 C1281 1.429 . S
C1273 C1271 1.419 . S
C1273 C1274 1.363 . S
C1273 H1276 0.929 . S
C1274 C1273 1.363 . S
C1274 C1280 1.428 . S
H1275 C1271 0.930 . S
H1276 C1273 0.929 . S
S1277 N1278 1.613 . S
S1277 N1279 1.610 . S
N1278 S1277 1.613 . S
N1278 C1281 1.350 . S
N1279 S1277 1.610 . S
N1279 C1280 1.351 . S
C1280 C1274 1.428 . S
C1280 N1279 1.351 . S
C1280 C1281 1.434 . S
C1281 C1272 1.429 . S
C1281 N1278 1.350 . S
C1281 C1280 1.434 . S
C1282 C1283 1.369 . S
C1282 C1284 1.419 . S
C1282 H1286 0.930 . S
C1283 C1282 1.369 . S
C1283 C1292 1.429 . S
C1284 C1282 1.419 . S
C1284 C1285 1.363 . S
C1284 H1287 0.929 . S
C1285 C1284 1.363 . S
C1285 C1291 1.428 . S
H1286 C1282 0.930 . S
H1287 C1284 0.929 . S
S1288 N1289 1.613 . S
S1288 N1290 1.610 1_565 S
N1289 S1288 1.613 . S
N1289 C1292 1.350 . S
N1290 S1288 1.610 1_545 S
N1290 C1291 1.351 1_545 S
C1291 C1285 1.428 . S
C1291 N1290 1.351 1_565 S
C1291 C1292 1.434 . S
C1292 C1283 1.429 . S
C1292 N1289 1.350 . S
C1292 C1291 1.434 . S
C1293 C1294 1.369 . S
C1293 C1295 1.419 . S
C1293 H1297 0.930 . S
C1294 C1293 1.369 . S
C1294 C1303 1.429 . S
C1295 C1293 1.419 . S
C1295 C1296 1.363 . S
C1295 H1298 0.929 . S
C1296 C1295 1.363 . S
C1296 C1302 1.428 . S
H1297 C1293 0.930 . S
H1298 C1295 0.929 . S
S1299 N1300 1.613 . S
S1299 N1301 1.610 . S
N1300 S1299 1.613 . S
N1300 C1303 1.350 . S
N1301 S1299 1.610 . S
N1301 C1302 1.351 . S
C1302 C1296 1.428 . S
C1302 N1301 1.351 . S
C1302 C1303 1.434 . S
C1303 C1294 1.429 . S
C1303 N1300 1.350 . S
C1303 C1302 1.434 . S
C1304 C1305 1.369 . S
C1304 C1306 1.419 . S
C1304 H1308 0.930 . S
C1305 C1304 1.369 . S
C1305 C1314 1.429 . S
C1306 C1304 1.419 . S
C1306 C1307 1.363 . S
C1306 H1309 0.929 . S
C1307 C1306 1.363 . S
C1307 C1313 1.428 . S
H1308 C1304 0.930 . S
H1309 C1306 0.929 . S
S1310 N1311 1.613 . S
S1310 N1312 1.610 . S
N1311 S1310 1.613 . S
N1311 C1314 1.350 . S
N1312 S1310 1.610 . S
N1312 C1313 1.351 . S
C1313 C1307 1.428 . S
C1313 N1312 1.351 . S
C1313 C1314 1.434 . S
C1314 C1305 1.429 . S
C1314 N1311 1.350 . S
C1314 C1313 1.434 . S
C1315 C1316 1.369 . S
C1315 C1317 1.419 . S
C1315 H1319 0.930 . S
C1316 C1315 1.369 . S
C1316 C1325 1.429 . S
C1317 C1315 1.419 . S
C1317 C1318 1.363 . S
C1317 H1320 0.929 . S
C1318 C1317 1.363 . S
C1318 C1324 1.428 . S
H1319 C1315 0.930 . S
H1320 C1317 0.929 . S
S1321 N1322 1.613 . S
S1321 N1323 1.610 . S
N1322 S1321 1.613 . S
N1322 C1325 1.350 . S
N1323 S1321 1.610 . S
N1323 C1324 1.351 . S
C1324 C1318 1.428 . S
C1324 N1323 1.351 . S
C1324 C1325 1.434 . S
C1325 C1316 1.429 . S
C1325 N1322 1.350 . S
C1325 C1324 1.434 . S
C1326 C1327 1.369 . S
C1326 C1328 1.419 . S
C1326 H1330 0.930 . S
C1327 C1326 1.369 . S
C1327 C1336 1.429 1_545 S
C1328 C1326 1.419 . S
C1328 C1329 1.363 . S
C1328 H1331 0.929 . S
C1329 C1328 1.363 . S
C1329 C1335 1.428 . S
H1330 C1326 0.930 . S
H1331 C1328 0.929 . S
S1332 N1333 1.613 . S
S1332 N1334 1.610 . S
N1333 S1332 1.613 . S
N1333 C1336 1.350 . S
N1334 S1332 1.610 . S
N1334 C1335 1.351 1_565 S
C1335 C1329 1.428 . S
C1335 N1334 1.351 1_545 S
C1335 C1336 1.434 1_545 S
C1336 C1327 1.429 1_565 S
C1336 N1333 1.350 . S
C1336 C1335 1.434 1_565 S
C1337 C1338 1.369 . S
C1337 C1339 1.419 . S
C1337 H1341 0.930 . S
C1338 C1337 1.369 . S
C1338 C1347 1.429 . S
C1339 C1337 1.419 . S
C1339 C1340 1.363 . S
C1339 H1342 0.929 . S
C1340 C1339 1.363 . S
C1340 C1346 1.428 . S
H1341 C1337 0.930 . S
H1342 C1339 0.929 . S
S1343 N1344 1.613 . S
S1343 N1345 1.610 . S
N1344 S1343 1.613 . S
N1344 C1347 1.350 . S
N1345 S1343 1.610 . S
N1345 C1346 1.351 . S
C1346 C1340 1.428 . S
C1346 N1345 1.351 . S
C1346 C1347 1.434 . S
C1347 C1338 1.429 . S
C1347 N1344 1.350 . S
C1347 C1346 1.434 . S
C1348 C1349 1.369 1_565 S
C1348 C1350 1.419 1_565 S
C1348 H1352 0.930 . S
C1349 C1348 1.369 1_545 S
C1349 C1358 1.429 . S
C1350 C1348 1.419 1_545 S
C1350 C1351 1.363 . S
C1350 H1353 0.929 1_545 S
C1351 C1350 1.363 . S
C1351 C1357 1.428 . S
H1352 C1348 0.930 . S
H1353 C1350 0.929 1_565 S
S1354 N1355 1.613 . S
S1354 N1356 1.610 . S
N1355 S1354 1.613 . S
N1355 C1358 1.350 . S
N1356 S1354 1.610 . S
N1356 C1357 1.351 . S
C1357 C1351 1.428 . S
C1357 N1356 1.351 . S
C1357 C1358 1.434 . S
C1358 C1349 1.429 . S
C1358 N1355 1.350 . S
C1358 C1357 1.434 . S
C1359 C1360 1.369 . S
C1359 C1361 1.419 . S
C1359 H1363 0.930 . S
C1360 C1359 1.369 . S
C1360 C1369 1.429 . S
C1361 C1359 1.419 . S
C1361 C1362 1.363 . S
C1361 H1364 0.929 . S
C1362 C1361 1.363 . S
C1362 C1368 1.428 . S
H1363 C1359 0.930 . S
H1364 C1361 0.929 . S
S1365 N1366 1.613 . S
S1365 N1367 1.610 . S
N1366 S1365 1.613 . S
N1366 C1369 1.350 . S
N1367 S1365 1.610 . S
N1367 C1368 1.351 . S
C1368 C1362 1.428 . S
C1368 N1367 1.351 . S
C1368 C1369 1.434 . S
C1369 C1360 1.429 . S
C1369 N1366 1.350 . S
C1369 C1368 1.434 . S
C1370 C1371 1.369 1_565 S
C1370 C1372 1.419 . S
C1370 H1374 0.930 . S
C1371 C1370 1.369 1_545 S
C1371 C1380 1.429 . S
C1372 C1370 1.419 . S
C1372 C1373 1.363 . S
C1372 H1375 0.929 . S
C1373 C1372 1.363 . S
C1373 C1379 1.428 1_565 S
H1374 C1370 0.930 . S
H1375 C1372 0.929 . S
S1376 N1377 1.613 . S
S1376 N1378 1.610 . S
N1377 S1376 1.613 . S
N1377 C1380 1.350 . S
N1378 S1376 1.610 . S
N1378 C1379 1.351 . S
C1379 C1373 1.428 1_545 S
C1379 N1378 1.351 . S
C1379 C1380 1.434 . S
C1380 C1371 1.429 . S
C1380 N1377 1.350 . S
C1380 C1379 1.434 . S
C1381 C1382 1.369 . S
C1381 C1383 1.419 . S
C1381 H1385 0.930 . S
C1382 C1381 1.369 . S
C1382 C1391 1.429 . S
C1383 C1381 1.419 . S
C1383 C1384 1.363 . S
C1383 H1386 0.929 . S
C1384 C1383 1.363 . S
C1384 C1390 1.428 . S
H1385 C1381 0.930 . S
H1386 C1383 0.929 . S
S1387 N1388 1.613 . S
S1387 N1389 1.610 . S
N1388 S1387 1.613 . S
N1388 C1391 1.350 . S
N1389 S1387 1.610 . S
N1389 C1390 1.351 . S
C1390 C1384 1.428 . S
C1390 N1389 1.351 . S
C1390 C1391 1.434 . S
C1391 C1382 1.429 . S
C1391 N1388 1.350 . S
C1391 C1390 1.434 . S
C1392 C1393 1.369 . S
C1392 C1394 1.419 . S
C1392 H1396 0.930 . S
C1393 C1392 1.369 . S
C1393 C1402 1.429 1_554 S
C1394 C1392 1.419 . S
C1394 C1395 1.363 1_554 S
C1394 H1397 0.929 . S
C1395 C1394 1.363 1_556 S
C1395 C1401 1.428 . S
H1396 C1392 0.930 . S
H1397 C1394 0.929 . S
S1398 N1399 1.613 . S
S1398 N1400 1.610 . S
N1399 S1398 1.613 . S
N1399 C1402 1.350 . S
N1400 S1398 1.610 . S
N1400 C1401 1.351 . S
C1401 C1395 1.428 . S
C1401 N1400 1.351 . S
C1401 C1402 1.434 . S
C1402 C1393 1.429 1_556 S
C1402 N1399 1.350 . S
C1402 C1401 1.434 . S
C1403 C1404 1.369 . S
C1403 C1405 1.419 . S
C1403 H1407 0.930 . S
C1404 C1403 1.369 . S
C1404 C1413 1.429 . S
C1405 C1403 1.419 . S
C1405 C1406 1.363 . S
C1405 H1408 0.929 . S
C1406 C1405 1.363 . S
C1406 C1412 1.444 . S
H1407 C1403 0.930 . S
H1408 C1405 0.929 . S
S1409 N1410 1.613 . S
S1409 N1411 1.610 . S
N1410 S1409 1.613 . S
N1410 C1413 1.350 1_556 S
N1411 S1409 1.610 . S
N1411 C1412 1.325 1_556 S
C1412 C1406 1.444 . S
C1412 N1411 1.325 1_554 S
C1412 C1413 1.444 . S
C1413 C1404 1.429 . S
C1413 N1410 1.350 1_554 S
C1413 C1412 1.444 . S
C1414 C1415 1.369 . S
C1414 C1416 1.419 . S
C1414 H1418 0.930 . S
C1415 C1414 1.369 . S
C1415 C1424 1.429 . S
C1416 C1414 1.419 . S
C1416 C1417 1.363 . S
C1416 H1419 0.929 . S
C1417 C1416 1.363 . S
C1417 C1423 1.428 . S
H1418 C1414 0.930 . S
H1419 C1416 0.929 . S
S1420 N1421 1.613 . S
S1420 N1422 1.610 . S
N1421 S1420 1.613 . S
N1421 C1424 1.350 . S
N1422 S1420 1.610 . S
N1422 C1423 1.351 . S
C1423 C1417 1.428 . S
C1423 N1422 1.351 . S
C1423 C1424 1.434 . S
C1424 C1415 1.429 . S
C1424 N1421 1.350 . S
C1424 C1423 1.434 . S
C1425 C1426 1.369 . S
C1425 C1427 1.419 . S
C1425 H1429 0.930 . S
C1426 C1425 1.369 . S
C1426 C1435 1.429 . S
C1427 C1425 1.419 . S
C1427 C1428 1.363 . S
C1427 H1430 0.929 . S
C1428 C1427 1.363 . S
C1428 C1434 1.428 . S
H1429 C1425 0.930 . S
H1430 C1427 0.929 . S
S1431 N1432 1.613 . S
S1431 N1433 1.610 . S
N1432 S1431 1.613 . S
N1432 C1435 1.350 . S
N1433 S1431 1.610 . S
N1433 C1434 1.351 . S
C1434 C1428 1.428 . S
C1434 N1433 1.351 . S
C1434 C1435 1.434 . S
C1435 C1426 1.429 . S
C1435 N1432 1.350 . S
C1435 C1434 1.434 . S
C1436 C1437 1.369 . S
C1436 C1438 1.419 . S
C1436 H1440 0.930 . S
C1437 C1436 1.369 . S
C1437 C1446 1.429 1_545 S
C1438 C1436 1.419 . S
C1438 C1439 1.363 1_545 S
C1438 H1441 0.929 . S
C1439 C1438 1.363 1_565 S
C1439 C1445 1.428 . S
H1440 C1436 0.930 . S
H1441 C1438 0.929 . S
S1442 N1443 1.613 . S
S1442 N1444 1.610 . S
N1443 S1442 1.613 . S
N1443 C1446 1.350 . S
N1444 S1442 1.610 . S
N1444 C1445 1.351 . S
C1445 C1439 1.428 . S
C1445 N1444 1.351 . S
C1445 C1446 1.434 . S
C1446 C1437 1.429 1_565 S
C1446 N1443 1.350 . S
C1446 C1445 1.434 . S
C1447 C1448 1.369 . S
C1447 C1449 1.419 . S
C1447 H1451 0.930 . S
C1448 C1447 1.369 . S
C1448 C1457 1.429 . S
C1449 C1447 1.419 . S
C1449 C1450 1.363 . S
C1449 H1452 0.929 . S
C1450 C1449 1.363 . S
C1450 C1456 1.428 . S
H1451 C1447 0.930 . S
H1452 C1449 0.929 . S
S1453 N1454 1.613 . S
S1453 N1455 1.610 . S
N1454 S1453 1.613 . S
N1454 C1457 1.350 . S
N1455 S1453 1.610 . S
N1455 C1456 1.351 . S
C1456 C1450 1.428 . S
C1456 N1455 1.351 . S
C1456 C1457 1.434 . S
C1457 C1448 1.429 . S
C1457 N1454 1.350 . S
C1457 C1456 1.434 . S
C1458 C1459 1.369 . S
C1458 C1460 1.419 . S
C1458 H1462 0.930 . S
C1459 C1458 1.369 . S
C1459 C1468 1.429 . S
C1460 C1458 1.419 . S
C1460 C1461 1.363 . S
C1460 H1463 0.929 . S
C1461 C1460 1.363 . S
C1461 C1467 1.428 . S
H1462 C1458 0.930 . S
H1463 C1460 0.929 . S
S1464 N1465 1.613 . S
S1464 N1466 1.610 . S
N1465 S1464 1.613 . S
N1465 C1468 1.350 . S
N1466 S1464 1.610 . S
N1466 C1467 1.351 . S
C1467 C1461 1.428 . S
C1467 N1466 1.351 . S
C1467 C1468 1.434 . S
C1468 C1459 1.429 . S
C1468 N1465 1.350 . S
C1468 C1467 1.434 . S
C1469 C1470 1.369 . S
C1469 C1471 1.419 . S
C1469 H1473 0.930 . S
C1470 C1469 1.369 . S
C1470 C1479 1.429 . S
C1471 C1469 1.419 . S
C1471 C1472 1.363 . S
C1471 H1474 0.929 . S
C1472 C1471 1.363 . S
C1472 C1478 1.428 . S
H1473 C1469 0.930 . S
H1474 C1471 0.929 . S
S1475 N1476 1.613 . S
S1475 N1477 1.610 . S
N1476 S1475 1.613 . S
N1476 C1479 1.350 . S
N1477 S1475 1.610 . S
N1477 C1478 1.351 . S
C1478 C1472 1.428 . S
C1478 N1477 1.351 . S
C1478 C1479 1.434 . S
C1479 C1470 1.429 . S
C1479 N1476 1.350 . S
C1479 C1478 1.434 . S
C1480 C1481 1.369 . S
C1480 C1482 1.419 . S
C1480 H1484 0.930 . S
C1481 C1480 1.369 . S
C1481 C1490 1.429 . S
C1482 C1480 1.419 . S
C1482 C1483 1.363 . S
C1482 H1485 0.929 . S
C1483 C1482 1.363 . S
C1483 C1489 1.428 . S
H1484 C1480 0.930 . S
H1485 C1482 0.929 . S
S1486 N1487 1.613 . S
S1486 N1488 1.610 . S
N1487 S1486 1.613 . S
N1487 C1490 1.350 . S
N1488 S1486 1.610 . S
N1488 C1489 1.351 . S
C1489 C1483 1.428 . S
C1489 N1488 1.351 . S
C1489 C1490 1.434 . S
C1490 C1481 1.429 . S
C1490 N1487 1.350 . S
C1490 C1489 1.434 . S
C1491 C1492 1.369 . S
C1491 C1493 1.419 . S
C1491 H1495 0.930 . S
C1492 C1491 1.369 . S
C1492 C1501 1.429 . S
C1493 C1491 1.419 . S
C1493 C1494 1.363 . S
C1493 H1496 0.929 . S
C1494 C1493 1.363 . S
C1494 C1500 1.428 . S
H1495 C1491 0.930 . S
H1496 C1493 0.929 . S
S1497 N1498 1.613 . S
S1497 N1499 1.610 . S
N1498 S1497 1.613 . S
N1498 C1501 1.350 . S
N1499 S1497 1.610 . S
N1499 C1500 1.351 . S
C1500 C1494 1.428 . S
C1500 N1499 1.351 . S
C1500 C1501 1.434 . S
C1501 C1492 1.429 . S
C1501 N1498 1.350 . S
C1501 C1500 1.434 . S
C1502 C1503 1.369 . S
C1502 C1504 1.419 . S
C1502 H1506 0.930 . S
C1503 C1502 1.369 . S
C1503 C1512 1.429 1_556 S
C1504 C1502 1.419 . S
C1504 C1505 1.363 1_556 S
C1504 H1507 0.929 . S
C1505 C1504 1.363 1_554 S
C1505 C1511 1.428 . S
H1506 C1502 0.930 . S
H1507 C1504 0.929 . S
S1508 N1509 1.613 . S
S1508 N1510 1.610 . S
N1509 S1508 1.613 . S
N1509 C1512 1.350 . S
N1510 S1508 1.610 . S
N1510 C1511 1.351 . S
C1511 C1505 1.428 . S
C1511 N1510 1.351 . S
C1511 C1512 1.434 . S
C1512 C1503 1.429 1_554 S
C1512 N1509 1.350 . S
C1512 C1511 1.434 . S
C1513 C1514 1.369 . S
C1513 C1515 1.419 1_455 S
C1513 H1517 0.930 . S
C1514 C1513 1.369 . S
C1514 C1523 1.429 . S
C1515 C1513 1.419 1_655 S
C1515 C1516 1.363 . S
C1515 H1518 0.929 . S
C1516 C1515 1.363 . S
C1516 C1522 1.439 . S
H1517 C1513 0.930 . S
H1518 C1515 0.929 . S
S1519 N1520 1.613 . S
S1519 N1521 1.610 1_455 S
N1520 S1519 1.613 . S
N1520 C1523 1.350 . S
N1521 S1519 1.610 1_655 S
N1521 C1522 1.349 . S
C1522 C1516 1.439 . S
C1522 N1521 1.349 . S
C1522 C1523 1.424 1_655 S
C1523 C1514 1.429 . S
C1523 N1520 1.350 . S
C1523 C1522 1.424 1_455 S
C1524 C1525 1.369 . S
C1524 C1526 1.419 . S
C1524 H1528 0.930 . S
C1525 C1524 1.369 . S
C1525 C1534 1.429 . S
C1526 C1524 1.419 . S
C1526 C1527 1.363 . S
C1526 H1529 0.929 . S
C1527 C1526 1.363 . S
C1527 C1533 1.428 . S
H1528 C1524 0.930 . S
H1529 C1526 0.929 . S
S1530 N1531 1.613 . S
S1530 N1532 1.610 . S
N1531 S1530 1.613 . S
N1531 C1534 1.350 . S
N1532 S1530 1.610 . S
N1532 C1533 1.351 . S
C1533 C1527 1.428 . S
C1533 N1532 1.351 . S
C1533 C1534 1.434 . S
C1534 C1525 1.429 . S
C1534 N1531 1.350 . S
C1534 C1533 1.434 . S
C1535 C1536 1.369 . S
C1535 C1537 1.419 . S
C1535 H1539 0.930 . S
C1536 C1535 1.369 . S
C1536 C1545 1.429 . S
C1537 C1535 1.419 . S
C1537 C1538 1.363 . S
C1537 H1540 0.929 . S
C1538 C1537 1.363 . S
C1538 C1544 1.428 . S
H1539 C1535 0.930 . S
H1540 C1537 0.929 . S
S1541 N1542 1.613 1_655 S
S1541 N1543 1.610 . S
N1542 S1541 1.613 1_455 S
N1542 C1545 1.350 . S
N1543 S1541 1.610 . S
N1543 C1544 1.351 1_655 S
C1544 C1538 1.428 . S
C1544 N1543 1.351 1_455 S
C1544 C1545 1.434 . S
C1545 C1536 1.429 . S
C1545 N1542 1.350 . S
C1545 C1544 1.434 . S
C1546 C1547 1.369 1_455 S
C1546 C1548 1.419 . S
C1546 H1550 0.930 . S
C1547 C1546 1.369 1_655 S
C1547 C1556 1.429 . S
C1548 C1546 1.419 . S
C1548 C1549 1.363 . S
C1548 H1551 0.929 . S
C1549 C1548 1.363 . S
C1549 C1555 1.428 . S
H1550 C1546 0.930 . S
H1551 C1548 0.929 . S
S1552 N1553 1.613 . S
S1552 N1554 1.610 1_655 S
N1553 S1552 1.613 . S
N1553 C1556 1.350 . S
N1554 S1552 1.610 1_455 S
N1554 C1555 1.351 . S
C1555 C1549 1.428 . S
C1555 N1554 1.351 . S
C1555 C1556 1.434 1_455 S
C1556 C1547 1.429 . S
C1556 N1553 1.350 . S
C1556 C1555 1.434 1_655 S
C1557 C1558 1.369 . S
C1557 C1559 1.419 . S
C1557 H1561 0.930 . S
C1558 C1557 1.369 . S
C1558 C1567 1.429 . S
C1559 C1557 1.419 . S
C1559 C1560 1.363 . S
C1559 H1562 0.929 . S
C1560 C1559 1.363 . S
C1560 C1566 1.428 . S
H1561 C1557 0.930 . S
H1562 C1559 0.929 . S
S1563 N1564 1.613 . S
S1563 N1565 1.610 . S
N1564 S1563 1.613 . S
N1564 C1567 1.350 . S
N1565 S1563 1.610 . S
N1565 C1566 1.351 . S
C1566 C1560 1.428 . S
C1566 N1565 1.351 . S
C1566 C1567 1.434 . S
C1567 C1558 1.429 . S
C1567 N1564 1.350 . S
C1567 C1566 1.434 . S
C1568 C1569 1.369 . S
C1568 C1570 1.419 . S
C1568 H1572 0.930 . S
C1569 C1568 1.369 . S
C1569 C1578 1.429 . S
C1570 C1568 1.419 . S
C1570 C1571 1.363 . S
C1570 H1573 0.929 . S
C1571 C1570 1.363 . S
C1571 C1577 1.428 . S
H1572 C1568 0.930 . S
H1573 C1570 0.929 . S
S1574 N1575 1.613 . S
S1574 N1576 1.610 . S
N1575 S1574 1.613 . S
N1575 C1578 1.350 . S
N1576 S1574 1.610 . S
N1576 C1577 1.351 . S
C1577 C1571 1.428 . S
C1577 N1576 1.351 . S
C1577 C1578 1.434 . S
C1578 C1569 1.429 . S
C1578 N1575 1.350 . S
C1578 C1577 1.434 . S
C1579 C1580 1.369 . S
C1579 C1581 1.419 . S
C1579 H1583 0.930 1_556 S
C1580 C1579 1.369 . S
C1580 C1589 1.429 . S
C1581 C1579 1.419 . S
C1581 C1582 1.363 . S
C1581 H1584 0.929 . S
C1582 C1581 1.363 . S
C1582 C1588 1.428 . S
H1583 C1579 0.930 1_554 S
H1584 C1581 0.929 . S
S1585 N1586 1.613 . S
S1585 N1587 1.610 . S
N1586 S1585 1.613 . S
N1586 C1589 1.350 . S
N1587 S1585 1.610 . S
N1587 C1588 1.351 . S
C1588 C1582 1.428 . S
C1588 N1587 1.351 . S
C1588 C1589 1.434 . S
C1589 C1580 1.429 . S
C1589 N1586 1.350 . S
C1589 C1588 1.434 . S
C1590 C1591 1.369 . S
C1590 C1592 1.419 . S
C1590 H1594 0.930 . S
C1591 C1590 1.369 . S
C1591 C1600 1.429 . S
C1592 C1590 1.419 . S
C1592 C1593 1.363 . S
C1592 H1595 0.929 . S
C1593 C1592 1.363 . S
C1593 C1599 1.428 . S
H1594 C1590 0.930 . S
H1595 C1592 0.929 . S
S1596 N1597 1.613 . S
S1596 N1598 1.610 . S
N1597 S1596 1.613 . S
N1597 C1600 1.350 . S
N1598 S1596 1.610 . S
N1598 C1599 1.351 . S
C1599 C1593 1.428 . S
C1599 N1598 1.351 . S
C1599 C1600 1.434 . S
C1600 C1591 1.429 . S
C1600 N1597 1.350 . S
C1600 C1599 1.434 . S
C1601 C1602 1.369 . S
C1601 C1603 1.419 . S
C1601 H1605 0.930 . S
C1602 C1601 1.369 . S
C1602 C1611 1.429 . S
C1603 C1601 1.419 . S
C1603 C1604 1.363 . S
C1603 H1606 0.929 . S
C1604 C1603 1.363 . S
C1604 C1610 1.428 . S
H1605 C1601 0.930 . S
H1606 C1603 0.929 . S
S1607 N1608 1.613 . S
S1607 N1609 1.610 . S
N1608 S1607 1.613 . S
N1608 C1611 1.350 . S
N1609 S1607 1.610 . S
N1609 C1610 1.351 . S
C1610 C1604 1.428 . S
C1610 N1609 1.351 . S
C1610 C1611 1.434 . S
C1611 C1602 1.429 . S
C1611 N1608 1.350 . S
C1611 C1610 1.434 . S
C1612 C1613 1.369 . S
C1612 C1614 1.419 . S
C1612 H1616 0.930 . S
C1613 C1612 1.369 . S
C1613 C1622 1.429 . S
C1614 C1612 1.419 . S
C1614 C1615 1.363 . S
C1614 H1617 0.929 . S
C1615 C1614 1.363 . S
C1615 C1621 1.428 . S
H1616 C1612 0.930 . S
H1617 C1614 0.929 . S
S1618 N1619 1.613 . S
S1618 N1620 1.610 . S
N1619 S1618 1.613 . S
N1619 C1622 1.350 . S
N1620 S1618 1.610 . S
N1620 C1621 1.351 . S
C1621 C1615 1.428 . S
C1621 N1620 1.351 . S
C1621 C1622 1.434 . S
C1622 C1613 1.429 . S
C1622 N1619 1.350 . S
C1622 C1621 1.434 . S
C1623 C1624 1.369 . S
C1623 C1625 1.419 . S
C1623 H1627 0.930 . S
C1624 C1623 1.369 . S
C1624 C1633 1.429 . S
C1625 C1623 1.419 . S
C1625 C1626 1.363 . S
C1625 H1628 0.929 . S
C1626 C1625 1.363 . S
C1626 C1632 1.428 . S
H1627 C1623 0.930 . S
H1628 C1625 0.929 . S
S1629 N1630 1.613 . S
S1629 N1631 1.610 . S
N1630 S1629 1.613 . S
N1630 C1633 1.350 . S
N1631 S1629 1.610 . S
N1631 C1632 1.351 . S
C1632 C1626 1.428 . S
C1632 N1631 1.351 . S
C1632 C1633 1.434 . S
C1633 C1624 1.429 . S
C1633 N1630 1.350 . S
C1633 C1632 1.434 . S
C1634 C1635 1.369 . S
C1634 C1636 1.419 . S
C1634 H1638 0.930 . S
C1635 C1634 1.369 . S
C1635 C1644 1.429 . S
C1636 C1634 1.419 . S
C1636 C1637 1.363 . S
C1636 H1639 0.929 . S
C1637 C1636 1.363 . S
C1637 C1643 1.428 . S
H1638 C1634 0.930 . S
H1639 C1636 0.929 . S
S1640 N1641 1.613 . S
S1640 N1642 1.610 . S
N1641 S1640 1.613 . S
N1641 C1644 1.350 . S
N1642 S1640 1.610 . S
N1642 C1643 1.351 . S
C1643 C1637 1.428 . S
C1643 N1642 1.351 . S
C1643 C1644 1.434 . S
C1644 C1635 1.429 . S
C1644 N1641 1.350 . S
C1644 C1643 1.434 . S
C1645 C1646 1.369 . S
C1645 C1647 1.419 . S
C1645 H1649 0.930 . S
C1646 C1645 1.369 . S
C1646 C1655 1.429 . S
C1647 C1645 1.419 . S
C1647 C1648 1.363 . S
C1647 H1650 0.929 . S
C1648 C1647 1.363 . S
C1648 C1654 1.428 . S
H1649 C1645 0.930 . S
H1650 C1647 0.929 . S
S1651 N1652 1.613 . S
S1651 N1653 1.610 . S
N1652 S1651 1.613 . S
N1652 C1655 1.350 . S
N1653 S1651 1.610 . S
N1653 C1654 1.351 . S
C1654 C1648 1.428 . S
C1654 N1653 1.351 . S
C1654 C1655 1.434 . S
C1655 C1646 1.429 . S
C1655 N1652 1.350 . S
C1655 C1654 1.434 . S
C1656 C1657 1.369 . S
C1656 C1658 1.419 . S
C1656 H1660 0.930 . S
C1657 C1656 1.369 . S
C1657 C1666 1.429 . S
C1658 C1656 1.419 . S
C1658 C1659 1.363 . S
C1658 H1661 0.929 . S
C1659 C1658 1.363 . S
C1659 C1665 1.428 . S
H1660 C1656 0.930 . S
H1661 C1658 0.929 . S
S1662 N1663 1.613 . S
S1662 N1664 1.610 . S
N1663 S1662 1.613 . S
N1663 C1666 1.350 . S
N1664 S1662 1.610 . S
N1664 C1665 1.351 . S
C1665 C1659 1.428 . S
C1665 N1664 1.351 . S
C1665 C1666 1.434 . S
C1666 C1657 1.429 . S
C1666 N1663 1.350 . S
C1666 C1665 1.434 . S
C1667 C1668 1.369 . S
C1667 C1669 1.419 . S
C1667 H1671 0.930 . S
C1668 C1667 1.369 . S
C1668 C1677 1.429 . S
C1669 C1667 1.419 . S
C1669 C1670 1.363 . S
C1669 H1672 0.929 . S
C1670 C1669 1.363 . S
C1670 C1676 1.428 . S
H1671 C1667 0.930 . S
H1672 C1669 0.929 . S
S1673 N1674 1.613 . S
S1673 N1675 1.610 . S
N1674 S1673 1.613 . S
N1674 C1677 1.350 . S
N1675 S1673 1.610 . S
N1675 C1676 1.351 . S
C1676 C1670 1.428 . S
C1676 N1675 1.351 . S
C1676 C1677 1.434 . S
C1677 C1668 1.429 . S
C1677 N1674 1.350 . S
C1677 C1676 1.434 . S
C1678 C1679 1.369 . S
C1678 C1680 1.419 . S
C1678 H1682 0.930 . S
C1679 C1678 1.369 . S
C1679 C1688 1.429 . S
C1680 C1678 1.419 . S
C1680 C1681 1.363 . S
C1680 H1683 0.929 . S
C1681 C1680 1.363 . S
C1681 C1687 1.428 . S
H1682 C1678 0.930 . S
H1683 C1680 0.929 . S
S1684 N1685 1.613 . S
S1684 N1686 1.610 . S
N1685 S1684 1.613 . S
N1685 C1688 1.350 . S
N1686 S1684 1.610 . S
N1686 C1687 1.351 . S
C1687 C1681 1.428 . S
C1687 N1686 1.351 . S
C1687 C1688 1.434 . S
C1688 C1679 1.429 . S
C1688 N1685 1.350 . S
C1688 C1687 1.434 . S
C1689 C1690 1.369 1_546 S
C1689 C1691 1.419 . S
C1689 H1693 0.930 . S
C1690 C1689 1.369 1_564 S
C1690 C1699 1.429 . S
C1691 C1689 1.419 . S
C1691 C1692 1.363 1_556 S
C1691 H1694 0.929 . S
C1692 C1691 1.363 1_554 S
C1692 C1698 1.462 . S
H1693 C1689 0.930 . S
H1694 C1691 0.929 . S
S1695 N1696 1.613 . S
S1695 N1697 1.610 . S
N1696 S1695 1.613 . S
N1696 C1699 1.350 . S
N1697 S1695 1.610 . S
N1697 C1698 1.330 1_565 S
C1698 C1692 1.462 . S
C1698 N1697 1.330 1_545 S
C1698 C1699 1.419 1_545 S
C1699 C1690 1.429 . S
C1699 N1696 1.350 . S
C1699 C1698 1.419 1_565 S
C1700 C1701 1.369 . S
C1700 C1702 1.419 . S
C1700 H1704 0.930 . S
C1701 C1700 1.369 . S
C1701 C1710 1.429 . S
C1702 C1700 1.419 . S
C1702 C1703 1.363 . S
C1702 H1705 0.929 . S
C1703 C1702 1.363 . S
C1703 C1709 1.428 . S
H1704 C1700 0.930 . S
H1705 C1702 0.929 . S
S1706 N1707 1.613 . S
S1706 N1708 1.610 . S
N1707 S1706 1.613 . S
N1707 C1710 1.350 . S
N1708 S1706 1.610 . S
N1708 C1709 1.351 . S
C1709 C1703 1.428 . S
C1709 N1708 1.351 . S
C1709 C1710 1.434 . S
C1710 C1701 1.429 . S
C1710 N1707 1.350 . S
C1710 C1709 1.434 . S
C1711 C1712 1.369 . S
C1711 C1713 1.419 . S
C1711 H1715 0.930 1_554 S
C1712 C1711 1.369 . S
C1712 C1721 1.429 . S
C1713 C1711 1.419 . S
C1713 C1714 1.363 . S
C1713 H1716 0.929 . S
C1714 C1713 1.363 . S
C1714 C1720 1.428 . S
H1715 C1711 0.930 1_556 S
H1716 C1713 0.929 . S
S1717 N1718 1.613 . S
S1717 N1719 1.610 . S
N1718 S1717 1.613 . S
N1718 C1721 1.350 . S
N1719 S1717 1.610 . S
N1719 C1720 1.351 . S
C1720 C1714 1.428 . S
C1720 N1719 1.351 . S
C1720 C1721 1.434 . S
C1721 C1712 1.429 . S
C1721 N1718 1.350 . S
C1721 C1720 1.434 . S
C1722 C1723 1.369 . S
C1722 C1724 1.419 . S
C1722 H1726 0.930 . S
C1723 C1722 1.369 . S
C1723 C1732 1.429 . S
C1724 C1722 1.419 . S
C1724 C1725 1.363 . S
C1724 H1727 0.929 . S
C1725 C1724 1.363 . S
C1725 C1731 1.428 . S
H1726 C1722 0.930 . S
H1727 C1724 0.929 . S
S1728 N1729 1.613 . S
S1728 N1730 1.610 . S
N1729 S1728 1.613 . S
N1729 C1732 1.350 . S
N1730 S1728 1.610 . S
N1730 C1731 1.351 . S
C1731 C1725 1.428 . S
C1731 N1730 1.351 . S
C1731 C1732 1.434 . S
C1732 C1723 1.429 . S
C1732 N1729 1.350 . S
C1732 C1731 1.434 . S
C1733 C1734 1.369 . S
C1733 C1735 1.419 . S
C1733 H1737 0.930 . S
C1734 C1733 1.369 . S
C1734 C1743 1.429 . S
C1735 C1733 1.419 . S
C1735 C1736 1.363 . S
C1735 H1738 0.929 . S
C1736 C1735 1.363 . S
C1736 C1742 1.428 . S
H1737 C1733 0.930 . S
H1738 C1735 0.929 . S
S1739 N1740 1.613 . S
S1739 N1741 1.610 . S
N1740 S1739 1.613 . S
N1740 C1743 1.350 . S
N1741 S1739 1.610 . S
N1741 C1742 1.351 . S
C1742 C1736 1.428 . S
C1742 N1741 1.351 . S
C1742 C1743 1.434 . S
C1743 C1734 1.429 . S
C1743 N1740 1.350 . S
C1743 C1742 1.434 . S
C1744 C1745 1.369 . S
C1744 C1746 1.419 . S
C1744 H1748 0.930 . S
C1745 C1744 1.369 . S
C1745 C1754 1.429 . S
C1746 C1744 1.419 . S
C1746 C1747 1.363 . S
C1746 H1749 0.929 . S
C1747 C1746 1.363 . S
C1747 C1753 1.428 . S
H1748 C1744 0.930 . S
H1749 C1746 0.929 . S
S1750 N1751 1.613 . S
S1750 N1752 1.610 . S
N1751 S1750 1.613 . S
N1751 C1754 1.350 . S
N1752 S1750 1.610 . S
N1752 C1753 1.351 . S
C1753 C1747 1.428 . S
C1753 N1752 1.351 . S
C1753 C1754 1.434 . S
C1754 C1745 1.429 . S
C1754 N1751 1.350 . S
C1754 C1753 1.434 . S
C1755 C1756 1.369 . S
C1755 C1757 1.419 . S
C1755 H1759 0.930 . S
C1756 C1755 1.369 . S
C1756 C1765 1.429 . S
C1757 C1755 1.419 . S
C1757 C1758 1.363 . S
C1757 H1760 0.929 . S
C1758 C1757 1.363 . S
C1758 C1764 1.428 . S
H1759 C1755 0.930 . S
H1760 C1757 0.929 . S
S1761 N1762 1.613 . S
S1761 N1763 1.610 . S
N1762 S1761 1.613 . S
N1762 C1765 1.350 . S
N1763 S1761 1.610 . S
N1763 C1764 1.351 . S
C1764 C1758 1.428 . S
C1764 N1763 1.351 . S
C1764 C1765 1.434 . S
C1765 C1756 1.429 . S
C1765 N1762 1.350 . S
C1765 C1764 1.434 . S
C1766 C1767 1.369 . S
C1766 C1768 1.419 . S
C1766 H1770 0.930 . S
C1767 C1766 1.369 . S
C1767 C1776 1.429 . S
C1768 C1766 1.419 . S
C1768 C1769 1.363 . S
C1768 H1771 0.929 . S
C1769 C1768 1.363 . S
C1769 C1775 1.428 . S
H1770 C1766 0.930 . S
H1771 C1768 0.929 . S
S1772 N1773 1.613 . S
S1772 N1774 1.610 . S
N1773 S1772 1.613 . S
N1773 C1776 1.350 . S
N1774 S1772 1.610 . S
N1774 C1775 1.351 . S
C1775 C1769 1.428 . S
C1775 N1774 1.351 . S
C1775 C1776 1.434 . S
C1776 C1767 1.429 . S
C1776 N1773 1.350 . S
C1776 C1775 1.434 . S
C1777 C1778 1.369 . S
C1777 C1779 1.419 . S
C1777 H1781 0.930 . S
C1778 C1777 1.369 . S
C1778 C1787 1.429 . S
C1779 C1777 1.419 . S
C1779 C1780 1.363 . S
C1779 H1782 0.929 . S
C1780 C1779 1.363 . S
C1780 C1786 1.428 . S
H1781 C1777 0.930 . S
H1782 C1779 0.929 . S
S1783 N1784 1.613 . S
S1783 N1785 1.610 . S
N1784 S1783 1.613 . S
N1784 C1787 1.350 . S
N1785 S1783 1.610 . S
N1785 C1786 1.351 . S
C1786 C1780 1.428 . S
C1786 N1785 1.351 . S
C1786 C1787 1.434 . S
C1787 C1778 1.429 . S
C1787 N1784 1.350 . S
C1787 C1786 1.434 . S
C1788 C1789 1.369 . S
C1788 C1790 1.419 . S
C1788 H1792 0.930 . S
C1789 C1788 1.369 . S
C1789 C1798 1.429 . S
C1790 C1788 1.419 . S
C1790 C1791 1.363 . S
C1790 H1793 0.929 . S
C1791 C1790 1.363 . S
C1791 C1797 1.428 . S
H1792 C1788 0.930 . S
H1793 C1790 0.929 . S
S1794 N1795 1.613 . S
S1794 N1796 1.610 . S
N1795 S1794 1.613 . S
N1795 C1798 1.350 . S
N1796 S1794 1.610 . S
N1796 C1797 1.351 . S
C1797 C1791 1.428 . S
C1797 N1796 1.351 . S
C1797 C1798 1.434 . S
C1798 C1789 1.429 . S
C1798 N1795 1.350 . S
C1798 C1797 1.434 . S
C1799 C1800 1.369 . S
C1799 C1801 1.419 . S
C1799 H1803 0.930 . S
C1800 C1799 1.369 . S
C1800 C1809 1.429 . S
C1801 C1799 1.419 . S
C1801 C1802 1.363 . S
C1801 H1804 0.929 . S
C1802 C1801 1.363 . S
C1802 C1808 1.428 . S
H1803 C1799 0.930 . S
H1804 C1801 0.929 . S
S1805 N1806 1.613 . S
S1805 N1807 1.610 . S
N1806 S1805 1.613 . S
N1806 C1809 1.350 . S
N1807 S1805 1.610 . S
N1807 C1808 1.351 . S
C1808 C1802 1.428 . S
C1808 N1807 1.351 . S
C1808 C1809 1.434 . S
C1809 C1800 1.429 . S
C1809 N1806 1.350 . S
C1809 C1808 1.434 . S
C1810 C1811 1.369 . S
C1810 C1812 1.419 . S
C1810 H1814 0.930 . S
C1811 C1810 1.369 . S
C1811 C1820 1.429 . S
C1812 C1810 1.419 . S
C1812 C1813 1.363 . S
C1812 H1815 0.929 . S
C1813 C1812 1.363 . S
C1813 C1819 1.428 . S
H1814 C1810 0.930 . S
H1815 C1812 0.929 . S
S1816 N1817 1.613 . S
S1816 N1818 1.610 . S
N1817 S1816 1.613 . S
N1817 C1820 1.350 . S
N1818 S1816 1.610 . S
N1818 C1819 1.351 . S
C1819 C1813 1.428 . S
C1819 N1818 1.351 . S
C1819 C1820 1.434 . S
C1820 C1811 1.429 . S
C1820 N1817 1.350 . S
C1820 C1819 1.434 . S
C1821 C1822 1.369 . S
C1821 C1823 1.419 . S
C1821 H1825 0.930 . S
C1822 C1821 1.369 . S
C1822 C1831 1.429 . S
C1823 C1821 1.419 . S
C1823 C1824 1.363 . S
C1823 H1826 0.929 . S
C1824 C1823 1.363 . S
C1824 C1830 1.428 . S
H1825 C1821 0.930 . S
H1826 C1823 0.929 . S
S1827 N1828 1.613 . S
S1827 N1829 1.610 . S
N1828 S1827 1.613 . S
N1828 C1831 1.350 . S
N1829 S1827 1.610 . S
N1829 C1830 1.351 . S
C1830 C1824 1.428 . S
C1830 N1829 1.351 . S
C1830 C1831 1.434 . S
C1831 C1822 1.429 . S
C1831 N1828 1.350 . S
C1831 C1830 1.434 . S
C1832 C1833 1.369 . S
C1832 C1834 1.419 . S
C1832 H1836 0.930 . S
C1833 C1832 1.369 . S
C1833 C1842 1.429 . S
C1834 C1832 1.419 . S
C1834 C1835 1.363 . S
C1834 H1837 0.929 . S
C1835 C1834 1.363 . S
C1835 C1841 1.428 . S
H1836 C1832 0.930 . S
H1837 C1834 0.929 . S
S1838 N1839 1.613 . S
S1838 N1840 1.610 . S
N1839 S1838 1.613 . S
N1839 C1842 1.350 . S
N1840 S1838 1.610 . S
N1840 C1841 1.351 . S
C1841 C1835 1.428 . S
C1841 N1840 1.351 . S
C1841 C1842 1.434 . S
C1842 C1833 1.429 . S
C1842 N1839 1.350 . S
C1842 C1841 1.434 . S
C1843 C1844 1.369 . S
C1843 C1845 1.419 . S
C1843 H1847 0.930 . S
C1844 C1843 1.369 . S
C1844 C1853 1.429 . S
C1845 C1843 1.419 . S
C1845 C1846 1.363 . S
C1845 H1848 0.929 . S
C1846 C1845 1.363 . S
C1846 C1852 1.428 . S
H1847 C1843 0.930 . S
H1848 C1845 0.929 . S
S1849 N1850 1.613 . S
S1849 N1851 1.610 . S
N1850 S1849 1.613 . S
N1850 C1853 1.350 . S
N1851 S1849 1.610 . S
N1851 C1852 1.351 . S
C1852 C1846 1.428 . S
C1852 N1851 1.351 . S
C1852 C1853 1.434 . S
C1853 C1844 1.429 . S
C1853 N1850 1.350 . S
C1853 C1852 1.434 . S
C1854 C1855 1.369 1_455 S
C1854 C1856 1.419 . S
C1854 H1858 0.930 . S
C1855 C1854 1.369 1_655 S
C1855 C1864 1.429 . S
C1856 C1854 1.419 . S
C1856 C1857 1.363 . S
C1856 H1859 0.929 . S
C1857 C1856 1.363 . S
C1857 C1863 1.428 . S
H1858 C1854 0.930 . S
H1859 C1856 0.929 . S
S1860 N1861 1.613 . S
S1860 N1862 1.637 . S
N1861 S1860 1.613 . S
N1861 C1864 1.350 . S
N1862 S1860 1.637 . S
N1862 C1863 1.339 1_655 S
C1863 C1857 1.428 . S
C1863 N1862 1.339 1_455 S
C1863 C1864 1.434 1_455 S
C1864 C1855 1.429 . S
C1864 N1861 1.350 . S
C1864 C1863 1.434 1_655 S
C1865 C1866 1.369 . S
C1865 C1867 1.419 . S
C1865 H1869 0.930 . S
C1866 C1865 1.369 . S
C1866 C1875 1.429 . S
C1867 C1865 1.419 . S
C1867 C1868 1.363 . S
C1867 H1870 0.929 . S
C1868 C1867 1.363 . S
C1868 C1874 1.428 . S
H1869 C1865 0.930 . S
H1870 C1867 0.929 . S
S1871 N1872 1.613 . S
S1871 N1873 1.610 . S
N1872 S1871 1.613 . S
N1872 C1875 1.350 . S
N1873 S1871 1.610 . S
N1873 C1874 1.351 . S
C1874 C1868 1.428 . S
C1874 N1873 1.351 . S
C1874 C1875 1.434 . S
C1875 C1866 1.429 . S
C1875 N1872 1.350 . S
C1875 C1874 1.434 . S
C1876 C1877 1.369 . S
C1876 C1878 1.419 . S
C1876 H1880 0.930 . S
C1877 C1876 1.369 . S
C1877 C1886 1.429 . S
C1878 C1876 1.419 . S
C1878 C1879 1.363 . S
C1878 H1881 0.929 . S
C1879 C1878 1.363 . S
C1879 C1885 1.428 . S
H1880 C1876 0.930 . S
H1881 C1878 0.929 . S
S1882 N1883 1.613 . S
S1882 N1884 1.610 . S
N1883 S1882 1.613 . S
N1883 C1886 1.350 . S
N1884 S1882 1.610 . S
N1884 C1885 1.351 . S
C1885 C1879 1.428 . S
C1885 N1884 1.351 . S
C1885 C1886 1.434 . S
C1886 C1877 1.429 . S
C1886 N1883 1.350 . S
C1886 C1885 1.434 . S
C1887 C1888 1.369 . S
C1887 C1889 1.419 . S
C1887 H1891 0.930 . S
C1888 C1887 1.369 . S
C1888 C1897 1.429 . S
C1889 C1887 1.419 . S
C1889 C1890 1.363 . S
C1889 H1892 0.929 . S
C1890 C1889 1.363 . S
C1890 C1896 1.428 . S
H1891 C1887 0.930 . S
H1892 C1889 0.929 . S
S1893 N1894 1.613 . S
S1893 N1895 1.610 . S
N1894 S1893 1.613 . S
N1894 C1897 1.350 . S
N1895 S1893 1.610 . S
N1895 C1896 1.351 . S
C1896 C1890 1.428 . S
C1896 N1895 1.351 . S
C1896 C1897 1.434 . S
C1897 C1888 1.429 . S
C1897 N1894 1.350 . S
C1897 C1896 1.434 . S
C1898 C1899 1.369 . S
C1898 C1900 1.419 . S
C1898 H1902 0.930 . S
C1899 C1898 1.369 . S
C1899 C1908 1.429 . S
C1900 C1898 1.419 . S
C1900 C1901 1.363 . S
C1900 H1903 0.929 . S
C1901 C1900 1.363 . S
C1901 C1907 1.428 . S
H1902 C1898 0.930 . S
H1903 C1900 0.929 . S
S1904 N1905 1.613 . S
S1904 N1906 1.610 . S
N1905 S1904 1.613 . S
N1905 C1908 1.350 . S
N1906 S1904 1.610 . S
N1906 C1907 1.351 . S
C1907 C1901 1.428 . S
C1907 N1906 1.351 . S
C1907 C1908 1.434 . S
C1908 C1899 1.429 . S
C1908 N1905 1.350 . S
C1908 C1907 1.434 . S
C1909 C1910 1.369 . S
C1909 C1911 1.419 . S
C1909 H1913 0.930 . S
C1910 C1909 1.369 . S
C1910 C1919 1.429 . S
C1911 C1909 1.419 . S
C1911 C1912 1.363 . S
C1911 H1914 0.929 . S
C1912 C1911 1.363 . S
C1912 C1918 1.428 . S
H1913 C1909 0.930 . S
H1914 C1911 0.929 . S
S1915 N1916 1.613 . S
S1915 N1917 1.610 . S
N1916 S1915 1.613 . S
N1916 C1919 1.350 . S
N1917 S1915 1.610 . S
N1917 C1918 1.351 . S
C1918 C1912 1.428 . S
C1918 N1917 1.351 . S
C1918 C1919 1.434 . S
C1919 C1910 1.429 . S
C1919 N1916 1.350 . S
C1919 C1918 1.434 . S
C1920 C1921 1.369 . S
C1920 C1922 1.419 . S
C1920 H1924 0.930 . S
C1921 C1920 1.369 . S
C1921 C1930 1.429 . S
C1922 C1920 1.419 . S
C1922 C1923 1.363 . S
C1922 H1925 0.929 . S
C1923 C1922 1.363 . S
C1923 C1929 1.428 . S
H1924 C1920 0.930 . S
H1925 C1922 0.929 . S
S1926 N1927 1.613 . S
S1926 N1928 1.610 . S
N1927 S1926 1.613 . S
N1927 C1930 1.350 . S
N1928 S1926 1.610 . S
N1928 C1929 1.351 . S
C1929 C1923 1.428 . S
C1929 N1928 1.351 . S
C1929 C1930 1.434 . S
C1930 C1921 1.429 . S
C1930 N1927 1.350 . S
C1930 C1929 1.434 . S
C1931 C1932 1.369 . S
C1931 C1933 1.419 1_565 S
C1931 H1935 0.930 . S
C1932 C1931 1.369 . S
C1932 C1941 1.429 . S
C1933 C1931 1.419 1_545 S
C1933 C1934 1.363 1_545 S
C1933 H1936 0.929 . S
C1934 C1933 1.363 1_565 S
C1934 C1940 1.428 . S
H1935 C1931 0.930 . S
H1936 C1933 0.929 . S
S1937 N1938 1.613 . S
S1937 N1939 1.610 1_655 S
N1938 S1937 1.613 . S
N1938 C1941 1.350 . S
N1939 S1937 1.610 1_455 S
N1939 C1940 1.351 1_455 S
C1940 C1934 1.428 . S
C1940 N1939 1.351 1_655 S
C1940 C1941 1.434 . S
C1941 C1932 1.429 . S
C1941 N1938 1.350 . S
C1941 C1940 1.434 . S
C1942 C1943 1.369 . S
C1942 C1944 1.419 . S
C1942 H1946 0.930 . S
C1943 C1942 1.369 . S
C1943 C1952 1.429 . S
C1944 C1942 1.419 . S
C1944 C1945 1.363 . S
C1944 H1947 0.929 . S
C1945 C1944 1.363 . S
C1945 C1951 1.428 . S
H1946 C1942 0.930 . S
H1947 C1944 0.929 . S
S1948 N1949 1.613 . S
S1948 N1950 1.610 . S
N1949 S1948 1.613 . S
N1949 C1952 1.350 . S
N1950 S1948 1.610 . S
N1950 C1951 1.351 . S
C1951 C1945 1.428 . S
C1951 N1950 1.351 . S
C1951 C1952 1.434 . S
C1952 C1943 1.429 . S
C1952 N1949 1.350 . S
C1952 C1951 1.434 . S
C1953 C1954 1.369 . S
C1953 C1955 1.419 . S
C1953 H1957 0.930 . S
C1954 C1953 1.369 . S
C1954 C1963 1.429 1_554 S
C1955 C1953 1.419 . S
C1955 C1956 1.363 . S
C1955 H1958 0.929 . S
C1956 C1955 1.363 . S
C1956 C1962 1.428 1_554 S
H1957 C1953 0.930 . S
H1958 C1955 0.929 . S
S1959 N1960 1.613 . S
S1959 N1961 1.610 . S
N1960 S1959 1.613 . S
N1960 C1963 1.350 . S
N1961 S1959 1.610 . S
N1961 C1962 1.351 . S
C1962 C1956 1.428 1_556 S
C1962 N1961 1.351 . S
C1962 C1963 1.434 . S
C1963 C1954 1.429 1_556 S
C1963 N1960 1.350 . S
C1963 C1962 1.434 . S
C1964 C1965 1.369 . S
C1964 C1966 1.419 . S
C1964 H1968 0.930 . S
C1965 C1964 1.369 . S
C1965 C1974 1.429 . S
C1966 C1964 1.419 . S
C1966 C1967 1.363 . S
C1966 H1969 0.929 . S
C1967 C1966 1.363 . S
C1967 C1973 1.428 . S
H1968 C1964 0.930 . S
H1969 C1966 0.929 . S
S1970 N1971 1.613 . S
S1970 N1972 1.610 . S
N1971 S1970 1.613 . S
N1971 C1974 1.350 . S
N1972 S1970 1.610 . S
N1972 C1973 1.351 . S
C1973 C1967 1.428 . S
C1973 N1972 1.351 . S
C1973 C1974 1.434 . S
C1974 C1965 1.429 . S
C1974 N1971 1.350 . S
C1974 C1973 1.434 . S
C1975 C1976 1.369 . S
C1975 C1977 1.419 . S
C1975 H1979 0.930 . S
C1976 C1975 1.369 . S
C1976 C1985 1.429 1_554 S
C1977 C1975 1.419 . S
C1977 C1978 1.363 1_554 S
C1977 H1980 0.929 . S
C1978 C1977 1.363 1_556 S
C1978 C1984 1.428 . S
H1979 C1975 0.930 . S
H1980 C1977 0.929 . S
S1981 N1982 1.613 . S
S1981 N1983 1.610 . S
N1982 S1981 1.613 . S
N1982 C1985 1.350 . S
N1983 S1981 1.610 . S
N1983 C1984 1.351 . S
C1984 C1978 1.428 . S
C1984 N1983 1.351 . S
C1984 C1985 1.434 . S
C1985 C1976 1.429 1_556 S
C1985 N1982 1.350 . S
C1985 C1984 1.434 . S
C1986 C1987 1.369 . S
C1986 C1988 1.419 . S
C1986 H1990 0.930 . S
C1987 C1986 1.369 . S
C1987 C1996 1.429 . S
C1988 C1986 1.419 . S
C1988 C1989 1.363 . S
C1988 H1991 0.929 . S
C1989 C1988 1.363 . S
C1989 C1995 1.428 . S
H1990 C1986 0.930 . S
H1991 C1988 0.929 . S
S1992 N1993 1.613 . S
S1992 N1994 1.610 . S
N1993 S1992 1.613 . S
N1993 C1996 1.350 . S
N1994 S1992 1.610 . S
N1994 C1995 1.351 . S
C1995 C1989 1.428 . S
C1995 N1994 1.351 . S
C1995 C1996 1.434 . S
C1996 C1987 1.429 . S
C1996 N1993 1.350 . S
C1996 C1995 1.434 . S
C1997 C1998 1.369 . S
C1997 C1999 1.419 . S
C1997 H2001 0.930 . S
C1998 C1997 1.369 . S
C1998 C2007 1.429 . S
C1999 C1997 1.419 . S
C1999 C2000 1.363 . S
C1999 H2002 0.929 . S
C2000 C1999 1.363 . S
C2000 C2006 1.428 . S
H2001 C1997 0.930 . S
H2002 C1999 0.929 . S
S2003 N2004 1.613 . S
S2003 N2005 1.610 . S
N2004 S2003 1.613 . S
N2004 C2007 1.350 . S
N2005 S2003 1.610 . S
N2005 C2006 1.351 . S
C2006 C2000 1.428 . S
C2006 N2005 1.351 . S
C2006 C2007 1.434 . S
C2007 C1998 1.429 . S
C2007 N2004 1.350 . S
C2007 C2006 1.434 . S
C953 C101 2.334 . S
C955 C322 2.275 . S
C964 C57 2.196 . S
C966 C370 2.287 . S
C975 C70 1.275 . S
C977 C402 1.195 . S
C988 C447 1.357 . S
C986 C82 1.395 . S
C997 C23 1.809 . S
C999 C487 1.700 . S
C1010 C518 0.847 . S
C1008 C29 0.880 . S
C1021 C570 1.648 . S
C1019 C49 1.458 . S
C1030 C10 2.133 . S
C1032 C602 2.005 . S
C1043 C330 2.532 . S
C1041 C218 2.506 1_455 S
C1052 C226 1.098 . S
C1054 C367 1.032 . S
C1065 C410 1.329 . S
C1063 C251 1.280 . S
C1076 C442 1.386 . S
C1074 C159 1.433 . S
C1085 C211 2.067 1_455 S
C1087 C482 2.007 . S
C1098 C521 1.554 . S
C1096 C225 1.520 . S
C1109 C567 0.727 . S
C1107 C252 0.726 . S
C1120 C610 2.219 . S
C1118 C166 2.219 . S
C1131 C327 1.699 . S
C1129 C147 1.790 . S
C1140 C263 1.943 . S
C1142 C650 2.016 . S
C1153 C691 2.649 . S
C1151 C309 2.709 . S
C1164 C722 0.599 . S
C1162 C291 0.584 . S
C1173 C108 2.064 . S
C1175 C607 1.962 . S
C1184 C121 1.757 . S
C1186 C407 1.707 . S
C1195 C302 2.196 . S
C1197 C770 2.223 . S
C1208 C802 0.864 . S
C1206 C276 0.907 . S
C1219 C331 2.392 1_565 S
C1217 C55 2.411 . S
C1230 C801 2.399 . S
C1228 C96 2.388 . S
C1239 C88 1.561 . S
C1241 C411 1.512 . S
C1250 C75 1.543 . S
C1252 C758 1.516 . S
C1263 C478 1.626 . S
C1261 C4 1.674 . S
C1272 C44 0.879 . S
C1274 C687 0.859 . S
C1285 C561 1.870 1_565 S
C1283 C31 1.803 . S
C1296 C851 1.982 . S
C1294 C18 2.044 . S
C1307 C321 2.667 . S
C1305 C133 2.668 . S
C1318 C798 0.874 . S
C1316 C296 0.901 . S
C1327 C107 1.467 . S
C1329 C401 1.466 . S
C1338 C264 1.678 . S
C1340 C771 1.658 . S
C1349 C140 2.168 . S
C1351 C491 2.167 . S
C1362 C690 1.538 . S
C1360 C289 1.541 . S
C1371 C114 0.732 . S
C1373 C558 0.721 . S
C1382 C265 2.346 . S
C1384 C841 2.336 . S
C1393 C179 1.783 . S
C1395 C318 1.722 . S
C1404 C161 2.118 . S
C1406 C641 2.137 . S
C1415 C244 2.875 . S
C1417 C522 2.807 . S
C1426 C224 1.105 . S
C1428 C731 1.106 . S
C1439 C838 1.756 . S
C1437 C257 1.817 . S
C1448 C199 1.729 . S
C1450 C398 1.688 . S
C1461 C441 2.382 . S
C1459 C237 2.397 . S
C1472 C371 0.869 . S
C1470 C185 0.883 . S
C1481 C69 2.337 . S
C1483 C882 2.271 . S
C1494 C810 2.287 . S
C1492 C83 2.194 . S
C1503 C94 1.275 . S
C1505 C922 1.199 . S
C1514 C56 1.392 . S
C1516 C767 1.363 . S
C1525 C42 1.823 . S
C1527 C647 1.715 . S
C1538 C678 0.845 . S
C1536 C3 0.887 . S
C1549 C730 1.653 . S
C1547 C16 1.461 . S
C1560 C842 2.012 . S
C1558 C36 2.128 . S
C1571 C890 2.532 . S
C1569 C238 2.506 . S
C1580 C174 1.112 . S
C1582 C807 1.019 . S
C1593 C930 1.331 . S
C1591 C186 1.279 . S
C1604 C762 1.378 . S
C1602 C198 1.433 . S
C1615 C642 2.009 . S
C1613 C239 2.069 . S
C1624 C173 1.511 . S
C1626 C681 1.557 . S
C1637 C727 0.724 . S
C1635 C187 0.738 . S
C1646 C205 2.219 . S
C1648 C850 2.220 . S
C1659 C887 1.691 . S
C1657 C290 1.796 . S
C1668 C122 1.945 . S
C1670 C490 2.016 . S
C1681 C531 2.654 . S
C1679 C134 2.717 . S
C1692 C562 0.598 . S
C1690 C148 0.581 . S
C1703 C847 1.969 . S
C1701 C283 2.059 . S
C1712 C270 1.758 . S
C1714 C927 1.704 . S
C1725 C450 2.223 . S
C1723 C135 2.194 . S
C1736 C362 0.865 . S
C1734 C109 0.908 . S
C1745 C81 2.414 . S
C1747 C891 2.391 . S
C1758 C361 2.397 . S
C1756 C68 2.383 . S
C1767 C62 1.561 . S
C1769 C931 1.513 . S
C1778 C95 1.543 . S
C1780 C438 1.513 . S
C1789 C30 1.672 . S
C1791 C638 1.623 . S
C1802 C527 0.864 . S
C1800 C17 0.866 . S
C1811 C5 1.798 . S
C1813 C721 1.873 . S
C1822 C43 2.037 . S
C1824 C611 1.972 . S
C1835 C881 2.666 . S
C1833 C304 2.667 . S
C1844 C153 0.892 . S
C1846 C358 0.880 . S
C1857 C921 1.470 . S
C1855 C278 1.467 . S
C1866 C127 1.678 . S
C1868 C451 1.660 . S
C1877 C303 2.166 . S
C1879 C651 2.160 . S
C1890 C530 1.538 . S
C1888 C146 1.540 . S
C1899 C277 0.723 . S
C1901 C718 0.726 . S
C1912 C601 2.333 . S
C1910 C120 2.346 . S
C1923 C878 1.722 . S
C1921 C231 1.783 . S
C1934 C481 2.136 1_665 S
C1932 C200 2.120 . S
C1943 C212 2.879 . S
C1945 C682 2.811 . S
C1956 C571 1.109 . S
C1954 C172 1.107 . S
C1965 C192 1.808 . S
C1967 C598 1.764 . S
C1976 C160 1.725 . S
C1978 C918 1.692 . S
C1989 C761 2.383 . S
C1987 C213 2.399 1_565 S
C2000 C811 0.869 . S
C1998 C250 0.888 . S
