# Generated by pormake.
# Topology gar, (4,6)-cn, num edge types: 1
# Building blocks:
#     Node 0, Type 0, BuildingBlock: CEKHIL_clean_sbu_0, # of connection points: 4
#     Node 1, Type 0, BuildingBlock: CEKHIL_clean_sbu_0, # of connection points: 4
#     Node 2, Type 0, BuildingBlock: CEKHIL_clean_sbu_0, # of connection points: 4
#     Node 3, Type 0, BuildingBlock: CEKHIL_clean_sbu_0, # of connection points: 4
#     Node 4, Type 0, BuildingBlock: CEKHIL_clean_sbu_0, # of connection points: 4
#     Node 5, Type 0, BuildingBlock: CEKHIL_clean_sbu_0, # of connection points: 4
#     Node 6, Type 0, BuildingBlock: CEKHIL_clean_sbu_0, # of connection points: 4
#     Node 7, Type 0, BuildingBlock: CEKHIL_clean_sbu_0, # of connection points: 4
#     Node 8, Type 0, BuildingBlock: CEKHIL_clean_sbu_0, # of connection points: 4
#     Node 9, Type 0, BuildingBlock: CEKHIL_clean_sbu_0, # of connection points: 4
#     Node 10, Type 0, BuildingBlock: CEKHIL_clean_sbu_0, # of connection points: 4
#     Node 11, Type 0, BuildingBlock: CEKHIL_clean_sbu_0, # of connection points: 4
#     Node 12, Type 0, BuildingBlock: CEKHIL_clean_sbu_0, # of connection points: 4
#     Node 13, Type 0, BuildingBlock: CEKHIL_clean_sbu_0, # of connection points: 4
#     Node 14, Type 0, BuildingBlock: CEKHIL_clean_sbu_0, # of connection points: 4
#     Node 15, Type 0, BuildingBlock: CEKHIL_clean_sbu_0, # of connection points: 4
#     Node 16, Type 0, BuildingBlock: CEKHIL_clean_sbu_0, # of connection points: 4
#     Node 17, Type 0, BuildingBlock: CEKHIL_clean_sbu_0, # of connection points: 4
#     Node 18, Type 0, BuildingBlock: CEKHIL_clean_sbu_0, # of connection points: 4
#     Node 19, Type 0, BuildingBlock: CEKHIL_clean_sbu_0, # of connection points: 4
#     Node 20, Type 0, BuildingBlock: CEKHIL_clean_sbu_0, # of connection points: 4
#     Node 21, Type 0, BuildingBlock: CEKHIL_clean_sbu_0, # of connection points: 4
#     Node 22, Type 0, BuildingBlock: CEKHIL_clean_sbu_0, # of connection points: 4
#     Node 23, Type 0, BuildingBlock: CEKHIL_clean_sbu_0, # of connection points: 4
#     Node 24, Type 1, BuildingBlock: GEDQOX_clean_sbu_0, # of connection points: 6
#     Node 25, Type 1, BuildingBlock: GEDQOX_clean_sbu_0, # of connection points: 6
#     Node 26, Type 1, BuildingBlock: GEDQOX_clean_sbu_0, # of connection points: 6
#     Node 27, Type 1, BuildingBlock: GEDQOX_clean_sbu_0, # of connection points: 6
#     Node 28, Type 1, BuildingBlock: GEDQOX_clean_sbu_0, # of connection points: 6
#     Node 29, Type 1, BuildingBlock: GEDQOX_clean_sbu_0, # of connection points: 6
#     Node 30, Type 1, BuildingBlock: GEDQOX_clean_sbu_0, # of connection points: 6
#     Node 31, Type 1, BuildingBlock: GEDQOX_clean_sbu_0, # of connection points: 6
#     Node 32, Type 1, BuildingBlock: GEDQOX_clean_sbu_0, # of connection points: 6
#     Node 33, Type 1, BuildingBlock: GEDQOX_clean_sbu_0, # of connection points: 6
#     Node 34, Type 1, BuildingBlock: GEDQOX_clean_sbu_0, # of connection points: 6
#     Node 35, Type 1, BuildingBlock: GEDQOX_clean_sbu_0, # of connection points: 6
#     Node 36, Type 1, BuildingBlock: GEDQOX_clean_sbu_0, # of connection points: 6
#     Node 37, Type 1, BuildingBlock: GEDQOX_clean_sbu_0, # of connection points: 6
#     Node 38, Type 1, BuildingBlock: GEDQOX_clean_sbu_0, # of connection points: 6
#     Node 39, Type 1, BuildingBlock: GEDQOX_clean_sbu_0, # of connection points: 6
#     Edge 40, Type (0, 1), BuildingBlock: XIVTED_clean_linker_0, # of connection points: 2
#     Edge 41, Type (0, 1), BuildingBlock: XIVTED_clean_linker_0, # of connection points: 2
#     Edge 42, Type (0, 1), BuildingBlock: XIVTED_clean_linker_0, # of connection points: 2
#     Edge 43, Type (0, 1), BuildingBlock: XIVTED_clean_linker_0, # of connection points: 2
#     Edge 44, Type (0, 1), BuildingBlock: XIVTED_clean_linker_0, # of connection points: 2
#     Edge 45, Type (0, 1), BuildingBlock: XIVTED_clean_linker_0, # of connection points: 2
#     Edge 46, Type (0, 1), BuildingBlock: XIVTED_clean_linker_0, # of connection points: 2
#     Edge 47, Type (0, 1), BuildingBlock: XIVTED_clean_linker_0, # of connection points: 2
#     Edge 48, Type (0, 1), BuildingBlock: XIVTED_clean_linker_0, # of connection points: 2
#     Edge 49, Type (0, 1), BuildingBlock: XIVTED_clean_linker_0, # of connection points: 2
#     Edge 50, Type (0, 1), BuildingBlock: XIVTED_clean_linker_0, # of connection points: 2
#     Edge 51, Type (0, 1), BuildingBlock: XIVTED_clean_linker_0, # of connection points: 2
#     Edge 52, Type (0, 1), BuildingBlock: XIVTED_clean_linker_0, # of connection points: 2
#     Edge 53, Type (0, 1), BuildingBlock: XIVTED_clean_linker_0, # of connection points: 2
#     Edge 54, Type (0, 1), BuildingBlock: XIVTED_clean_linker_0, # of connection points: 2
#     Edge 55, Type (0, 1), BuildingBlock: XIVTED_clean_linker_0, # of connection points: 2
#     Edge 56, Type (0, 1), BuildingBlock: XIVTED_clean_linker_0, # of connection points: 2
#     Edge 57, Type (0, 1), BuildingBlock: XIVTED_clean_linker_0, # of connection points: 2
#     Edge 58, Type (0, 1), BuildingBlock: XIVTED_clean_linker_0, # of connection points: 2
#     Edge 59, Type (0, 1), BuildingBlock: XIVTED_clean_linker_0, # of connection points: 2
#     Edge 60, Type (0, 1), BuildingBlock: XIVTED_clean_linker_0, # of connection points: 2
#     Edge 61, Type (0, 1), BuildingBlock: XIVTED_clean_linker_0, # of connection points: 2
#     Edge 62, Type (0, 1), BuildingBlock: XIVTED_clean_linker_0, # of connection points: 2
#     Edge 63, Type (0, 1), BuildingBlock: XIVTED_clean_linker_0, # of connection points: 2
#     Edge 64, Type (0, 1), BuildingBlock: XIVTED_clean_linker_0, # of connection points: 2
#     Edge 65, Type (0, 1), BuildingBlock: XIVTED_clean_linker_0, # of connection points: 2
#     Edge 66, Type (0, 1), BuildingBlock: XIVTED_clean_linker_0, # of connection points: 2
#     Edge 67, Type (0, 1), BuildingBlock: XIVTED_clean_linker_0, # of connection points: 2
#     Edge 68, Type (0, 1), BuildingBlock: XIVTED_clean_linker_0, # of connection points: 2
#     Edge 69, Type (0, 1), BuildingBlock: XIVTED_clean_linker_0, # of connection points: 2
#     Edge 70, Type (0, 1), BuildingBlock: XIVTED_clean_linker_0, # of connection points: 2
#     Edge 71, Type (0, 1), BuildingBlock: XIVTED_clean_linker_0, # of connection points: 2
#     Edge 72, Type (0, 1), BuildingBlock: XIVTED_clean_linker_0, # of connection points: 2
#     Edge 73, Type (0, 1), BuildingBlock: XIVTED_clean_linker_0, # of connection points: 2
#     Edge 74, Type (0, 1), BuildingBlock: XIVTED_clean_linker_0, # of connection points: 2
#     Edge 75, Type (0, 1), BuildingBlock: XIVTED_clean_linker_0, # of connection points: 2
#     Edge 76, Type (0, 1), BuildingBlock: XIVTED_clean_linker_0, # of connection points: 2
#     Edge 77, Type (0, 1), BuildingBlock: XIVTED_clean_linker_0, # of connection points: 2
#     Edge 78, Type (0, 1), BuildingBlock: XIVTED_clean_linker_0, # of connection points: 2
#     Edge 79, Type (0, 1), BuildingBlock: XIVTED_clean_linker_0, # of connection points: 2
#     Edge 80, Type (0, 1), BuildingBlock: XIVTED_clean_linker_0, # of connection points: 2
#     Edge 81, Type (0, 1), BuildingBlock: XIVTED_clean_linker_0, # of connection points: 2
#     Edge 82, Type (0, 1), BuildingBlock: XIVTED_clean_linker_0, # of connection points: 2
#     Edge 83, Type (0, 1), BuildingBlock: XIVTED_clean_linker_0, # of connection points: 2
#     Edge 84, Type (0, 1), BuildingBlock: XIVTED_clean_linker_0, # of connection points: 2
#     Edge 85, Type (0, 1), BuildingBlock: XIVTED_clean_linker_0, # of connection points: 2
#     Edge 86, Type (0, 1), BuildingBlock: XIVTED_clean_linker_0, # of connection points: 2
#     Edge 87, Type (0, 1), BuildingBlock: XIVTED_clean_linker_0, # of connection points: 2
#     Edge 88, Type (0, 1), BuildingBlock: XIVTED_clean_linker_0, # of connection points: 2
#     Edge 89, Type (0, 1), BuildingBlock: XIVTED_clean_linker_0, # of connection points: 2
#     Edge 90, Type (0, 1), BuildingBlock: XIVTED_clean_linker_0, # of connection points: 2
#     Edge 91, Type (0, 1), BuildingBlock: XIVTED_clean_linker_0, # of connection points: 2
#     Edge 92, Type (0, 1), BuildingBlock: XIVTED_clean_linker_0, # of connection points: 2
#     Edge 93, Type (0, 1), BuildingBlock: XIVTED_clean_linker_0, # of connection points: 2
#     Edge 94, Type (0, 1), BuildingBlock: XIVTED_clean_linker_0, # of connection points: 2
#     Edge 95, Type (0, 1), BuildingBlock: XIVTED_clean_linker_0, # of connection points: 2
#     Edge 96, Type (0, 1), BuildingBlock: XIVTED_clean_linker_0, # of connection points: 2
#     Edge 97, Type (0, 1), BuildingBlock: XIVTED_clean_linker_0, # of connection points: 2
#     Edge 98, Type (0, 1), BuildingBlock: XIVTED_clean_linker_0, # of connection points: 2
#     Edge 99, Type (0, 1), BuildingBlock: XIVTED_clean_linker_0, # of connection points: 2
#     Edge 100, Type (0, 1), BuildingBlock: XIVTED_clean_linker_0, # of connection points: 2
#     Edge 101, Type (0, 1), BuildingBlock: XIVTED_clean_linker_0, # of connection points: 2
#     Edge 102, Type (0, 1), BuildingBlock: XIVTED_clean_linker_0, # of connection points: 2
#     Edge 103, Type (0, 1), BuildingBlock: XIVTED_clean_linker_0, # of connection points: 2
#     Edge 104, Type (0, 1), BuildingBlock: XIVTED_clean_linker_0, # of connection points: 2
#     Edge 105, Type (0, 1), BuildingBlock: XIVTED_clean_linker_0, # of connection points: 2
#     Edge 106, Type (0, 1), BuildingBlock: XIVTED_clean_linker_0, # of connection points: 2
#     Edge 107, Type (0, 1), BuildingBlock: XIVTED_clean_linker_0, # of connection points: 2
#     Edge 108, Type (0, 1), BuildingBlock: XIVTED_clean_linker_0, # of connection points: 2
#     Edge 109, Type (0, 1), BuildingBlock: XIVTED_clean_linker_0, # of connection points: 2
#     Edge 110, Type (0, 1), BuildingBlock: XIVTED_clean_linker_0, # of connection points: 2
#     Edge 111, Type (0, 1), BuildingBlock: XIVTED_clean_linker_0, # of connection points: 2
#     Edge 112, Type (0, 1), BuildingBlock: XIVTED_clean_linker_0, # of connection points: 2
#     Edge 113, Type (0, 1), BuildingBlock: XIVTED_clean_linker_0, # of connection points: 2
#     Edge 114, Type (0, 1), BuildingBlock: XIVTED_clean_linker_0, # of connection points: 2
#     Edge 115, Type (0, 1), BuildingBlock: XIVTED_clean_linker_0, # of connection points: 2
#     Edge 116, Type (0, 1), BuildingBlock: XIVTED_clean_linker_0, # of connection points: 2
#     Edge 117, Type (0, 1), BuildingBlock: XIVTED_clean_linker_0, # of connection points: 2
#     Edge 118, Type (0, 1), BuildingBlock: XIVTED_clean_linker_0, # of connection points: 2
#     Edge 119, Type (0, 1), BuildingBlock: XIVTED_clean_linker_0, # of connection points: 2
#     Edge 120, Type (0, 1), BuildingBlock: XIVTED_clean_linker_0, # of connection points: 2
#     Edge 121, Type (0, 1), BuildingBlock: XIVTED_clean_linker_0, # of connection points: 2
#     Edge 122, Type (0, 1), BuildingBlock: XIVTED_clean_linker_0, # of connection points: 2
#     Edge 123, Type (0, 1), BuildingBlock: XIVTED_clean_linker_0, # of connection points: 2
#     Edge 124, Type (0, 1), BuildingBlock: XIVTED_clean_linker_0, # of connection points: 2
#     Edge 125, Type (0, 1), BuildingBlock: XIVTED_clean_linker_0, # of connection points: 2
#     Edge 126, Type (0, 1), BuildingBlock: XIVTED_clean_linker_0, # of connection points: 2
#     Edge 127, Type (0, 1), BuildingBlock: XIVTED_clean_linker_0, # of connection points: 2
#     Edge 128, Type (0, 1), BuildingBlock: XIVTED_clean_linker_0, # of connection points: 2
#     Edge 129, Type (0, 1), BuildingBlock: XIVTED_clean_linker_0, # of connection points: 2
#     Edge 130, Type (0, 1), BuildingBlock: XIVTED_clean_linker_0, # of connection points: 2
#     Edge 131, Type (0, 1), BuildingBlock: XIVTED_clean_linker_0, # of connection points: 2
#     Edge 132, Type (0, 1), BuildingBlock: XIVTED_clean_linker_0, # of connection points: 2
#     Edge 133, Type (0, 1), BuildingBlock: XIVTED_clean_linker_0, # of connection points: 2
#     Edge 134, Type (0, 1), BuildingBlock: XIVTED_clean_linker_0, # of connection points: 2
#     Edge 135, Type (0, 1), BuildingBlock: XIVTED_clean_linker_0, # of connection points: 2
# Relax obj value: 0.271
# Max RMSD: 0.437
# Mean RMSD: 0.173
data_MOF--net-gar--node1-CEKHIL_clean_sbu_0--node2-GEDQOX_clean_sbu_0--edge1-XIVTED_clean_linker_0
_symmetry_space_group_name_H-M    P1
_symmetry_Int_Tables_number       1
_symmetry_cell_setting            triclinic
loop_
_symmetry_equiv_pos_as_xyz
'x, y, z'
_cell_length_a     60.969539
_cell_length_b     58.458099
_cell_length_c     52.30077
_cell_angle_alpha  98.340784
_cell_angle_beta   97.011742
_cell_angle_gamma 99.043406
loop_
_atom_site_label
_atom_site_type_symbol
_atom_site_fract_x
_atom_site_fract_y
_atom_site_fract_z
_atom_type_partial_charge
Co0 Co 0.1336 0.3883 0.49353 0.0
O1 O 0.16192 0.37902 0.48705 0.0
O2 O 0.12938 0.36792 0.46071 0.0
C3 C 0.14531 0.42707 0.50754 0.0
O4 O 0.10173 0.39402 0.49071 0.0
Co5 Co 0.12153 0.4094 0.54662 0.0
O6 O 0.09342 0.41489 0.52641 0.0
C7 C 0.12284 0.35875 0.53506 0.0
C8 C 0.15053 0.36694 0.46523 0.0
C9 C 0.08827 0.4049 0.50264 0.0
O10 O 0.12571 0.36056 0.51143 0.0
O11 O 0.12262 0.37644 0.55255 0.0
O12 O 0.14251 0.41852 0.48271 0.0
O13 O 0.14381 0.4117 0.52295 0.0
Co14 Co 0.98595 0.78393 0.68356 0.0
O15 O 0.95604 0.77947 0.69279 0.0
O16 O 0.98659 0.77422 0.71719 0.0
C17 C 0.98575 0.81877 0.67018 0.0
O18 O 1.01936 0.7882 0.6828 0.0
Co19 Co 0.99697 0.78826 0.62772 0.0
O20 O 1.02889 0.79708 0.64484 0.0
C21 C 0.98028 0.74171 0.64045 0.0
C22 C 0.9653 0.775 0.71488 0.0
C23 C 0.03411 0.79431 0.6684 0.0
O24 O 0.98197 0.75041 0.66491 0.0
O25 O 0.98267 0.75437 0.62261 0.0
O26 O 0.98928 0.8178 0.69498 0.0
O27 O 0.98012 0.79881 0.65479 0.0
Co28 Co 0.63807 0.89066 0.98072 0.0
O29 O 0.66652 0.88504 0.96995 0.0
O30 O 0.63301 0.87358 0.94589 0.0
C31 C 0.6478 0.92921 0.99807 0.0
O32 O 0.60567 0.8933 0.98195 0.0
Co33 Co 0.62854 0.90646 0.03688 0.0
O34 O 0.59836 0.91033 0.02033 0.0
C35 C 0.63346 0.85723 0.01973 0.0
C36 C 0.65455 0.87505 0.94757 0.0
C37 C 0.59221 0.90161 0.99628 0.0
O38 O 0.63378 0.86064 0.99594 0.0
O39 O 0.63372 0.87371 0.03883 0.0
O40 O 0.64362 0.92251 0.97288 0.0
O41 O 0.64868 0.9125 0.0116 0.0
Co42 Co 0.49211 0.28804 0.15787 0.0
O43 O 0.4622 0.29057 0.16517 0.0
O44 O 0.48852 0.27959 0.19138 0.0
C45 C 0.49978 0.32268 0.14401 0.0
O46 O 0.5246 0.2847 0.1594 0.0
Co47 Co 0.50827 0.28814 0.10376 0.0
O48 O 0.53917 0.29284 0.12375 0.0
C49 C 0.48258 0.2446 0.11607 0.0
C50 C 0.46871 0.28511 0.18782 0.0
C51 C 0.54131 0.28829 0.14694 0.0
O52 O 0.48272 0.25439 0.13986 0.0
O53 O 0.48966 0.25587 0.09854 0.0
O54 O 0.50145 0.3219 0.16887 0.0
O55 O 0.4917 0.30308 0.1286 0.0
Co56 Co 0.04741 0.81738 0.25592 0.0
O57 O 1.01473 0.81322 0.24618 0.0
O58 O 0.0304 0.81125 0.2853 0.0
C59 C 0.05337 0.85015 0.23645 0.0
O60 O 0.08147 0.82153 0.27331 0.0
Co61 Co 0.07975 0.81827 0.214 0.0
O62 O 0.10419 0.82994 0.24363 0.0
C63 C 0.05473 0.77267 0.22285 0.0
C64 C 1.01184 0.81089 0.2698 0.0
C65 C 0.10143 0.82734 0.26682 0.0
O66 O 0.04691 0.78251 0.24282 0.0
O67 O 0.06646 0.7841 0.20859 0.0
O68 O 0.04876 0.85188 0.26019 0.0
O69 O 0.05391 0.82915 0.22551 0.0
Co70 Co 0.57373 0.85281 0.40259 0.0
O71 O 0.60636 0.8572 0.4128 0.0
O72 O 0.58995 0.84365 0.37286 0.0
C73 C 0.57039 0.88848 0.42476 0.0
O74 O 0.53952 0.84698 0.38481 0.0
Co75 Co 0.54168 0.85305 0.4449 0.0
O76 O 0.51779 0.85396 0.41621 0.0
C77 C 0.56433 0.8124 0.4329 0.0
C78 C 0.60876 0.84957 0.38901 0.0
C79 C 0.52007 0.84937 0.39225 0.0
O80 O 0.57101 0.82008 0.41263 0.0
O81 O 0.55389 0.82376 0.44876 0.0
O82 O 0.57615 0.88685 0.40151 0.0
O83 O 0.56817 0.86917 0.43399 0.0
Co84 Co 0.54764 0.31702 0.75628 0.0
O85 O 0.51515 0.31463 0.74657 0.0
O86 O 0.5302 0.30915 0.78468 0.0
C87 C 0.55519 0.35138 0.74008 0.0
O88 O 0.58139 0.31893 0.77363 0.0
Co89 Co 0.58038 0.31945 0.71493 0.0
O90 O 0.60494 0.32735 0.74475 0.0
C91 C 0.55007 0.27471 0.71684 0.0
C92 C 0.51194 0.31052 0.76957 0.0
C93 C 0.60162 0.32399 0.76756 0.0
O94 O 0.5455 0.28264 0.73969 0.0
O95 O 0.56145 0.28752 0.70344 0.0
O96 O 0.55032 0.35169 0.76363 0.0
O97 O 0.5551 0.33081 0.7275 0.0
Co98 Co 0.07505 0.35194 0.90327 0.0
O99 O 0.10774 0.35722 0.9131 0.0
O100 O 0.09105 0.34199 0.87364 0.0
C101 C 0.07122 0.38802 0.92385 0.0
O102 O 0.0407 0.34476 0.88604 0.0
Co103 Co 0.04365 0.35359 0.94631 0.0
O104 O 1.0196 0.35379 0.9175 0.0
C105 C 0.06637 0.31275 0.93546 0.0
C106 C 0.10997 0.34879 0.8895 0.0
C107 C 1.02145 0.34774 0.89359 0.0
O108 O 0.0731 0.3199 0.91496 0.0
O109 O 0.05582 0.3244 0.95093 0.0
O110 O 0.07665 0.3856 0.90044 0.0
O111 O 0.06962 0.36927 0.93412 0.0
Co112 Co 0.46742 0.15311 0.34055 0.0
O113 O 0.46803 0.18627 0.3387 0.0
O114 O 0.43876 0.15807 0.32399 0.0
C115 C 0.48391 0.15697 0.38292 0.0
O116 O 0.45873 0.11802 0.34009 0.0
Co117 Co 0.50984 0.1305 0.35188 0.0
O118 O 0.48792 0.10356 0.35784 0.0
C119 C 0.49787 0.14267 0.29968 0.0
C120 C 0.4471 0.18034 0.32788 0.0
C121 C 0.4671 0.1015 0.3493 0.0
O122 O 0.47875 0.14723 0.30534 0.0
O123 O 0.51303 0.13816 0.31642 0.0
O124 O 0.46284 0.15852 0.37755 0.0
O125 O 0.49455 0.15588 0.36308 0.0
Co126 Co 0.27413 0.14902 0.48184 0.0
O127 O 0.30583 0.15213 0.48155 0.0
O128 O 0.28287 0.1187 0.48166 0.0
C129 C 0.26787 0.17166 0.45155 0.0
O130 O 0.24077 0.13912 0.48205 0.0
Co131 Co 0.25246 0.19302 0.4979 0.0
O132 O 0.2237 0.17061 0.48673 0.0
C133 C 0.28041 0.17404 0.53703 0.0
C134 C 0.30323 0.12975 0.48217 0.0
C135 C 0.2231 0.14847 0.48319 0.0
O136 O 0.27937 0.15496 0.52101 0.0
O137 O 0.27297 0.19208 0.53076 0.0
O138 O 0.26923 0.14974 0.4442 0.0
O139 O 0.27198 0.17926 0.47626 0.0
Co140 Co 0.20296 0.06061 0.85027 0.0
O141 O 0.19862 0.02531 0.84659 0.0
O142 O 0.23027 0.04654 0.84379 0.0
C143 C 0.18393 0.06563 0.88756 0.0
O144 O 0.21672 0.09733 0.85295 0.0
Co145 Co 0.16588 0.09115 0.84967 0.0
O146 O 0.18984 0.11933 0.8561 0.0
C147 C 0.1739 0.06535 0.79929 0.0
C148 C 0.21946 0.02544 0.84339 0.0
C149 C 0.21033 0.11789 0.85488 0.0
O150 O 0.19155 0.05866 0.81065 0.0
O151 O 0.16116 0.07661 0.81196 0.0
O152 O 0.20486 0.06291 0.8896 0.0
O153 O 0.17536 0.06498 0.86372 0.0
Co154 Co 0.23796 0.92545 0.07221 0.0
O155 O 0.20618 0.9255 0.07512 0.0
O156 O 0.23309 0.95632 0.08752 0.0
C157 C 0.2342 0.90555 0.03014 0.0
O158 O 0.27145 0.93428 0.07148 0.0
Co159 Co 0.25981 0.88066 0.06199 0.0
O160 O 0.28616 0.903 0.05632 0.0
C161 C 0.249 0.89621 0.1147 0.0
C162 C 0.21181 0.94779 0.08481 0.0
C163 C 0.28775 0.92505 0.06356 0.0
O164 O 0.24413 0.91569 0.10833 0.0
O165 O 0.25312 0.87961 0.09819 0.0
O166 O 0.23259 0.92769 0.03447 0.0
O167 O 0.23535 0.89594 0.05078 0.0
Co168 Co 0.33141 0.51445 0.15311 0.0
O169 O 0.30151 0.51652 0.15952 0.0
O170 O 0.3318 0.54186 0.17926 0.0
C171 C 0.32249 0.50874 0.1095 0.0
O172 O 0.36496 0.5179 0.15025 0.0
Co173 Co 0.3403 0.46799 0.12127 0.0
O174 O 0.37047 0.48661 0.12258 0.0
C175 C 0.33555 0.47091 0.17727 0.0
C176 C 0.30999 0.53591 0.1753 0.0
C177 C 0.37761 0.50646 0.13722 0.0
O178 O 0.33437 0.49295 0.17993 0.0
O179 O 0.33649 0.4581 0.15558 0.0
O180 O 0.32709 0.52994 0.12255 0.0
O181 O 0.32203 0.492 0.12302 0.0
Co182 Co 0.88217 0.22668 0.07037 0.0
O183 O 0.91466 0.22811 0.0719 0.0
O184 O 0.89101 0.19734 0.07737 0.0
C185 C 0.87603 0.24178 0.03265 0.0
O186 O 0.84855 0.2166 0.06865 0.0
Co187 Co 0.85764 0.26986 0.07116 0.0
O188 O 0.82966 0.24582 0.06238 0.0
C189 C 0.8795 0.25971 0.121 0.0
C190 C 0.9114 0.20617 0.07492 0.0
C191 C 0.8301 0.22444 0.06451 0.0
O192 O 0.88418 0.24017 0.10946 0.0
O193 O 0.87142 0.27461 0.10868 0.0
O194 O 0.87854 0.22004 0.03187 0.0
O195 O 0.87954 0.25407 0.05576 0.0
Co196 Co 0.15538 0.50674 0.33235 0.0
O197 O 0.15406 0.47292 0.3291 0.0
O198 O 0.18377 0.49853 0.32536 0.0
C199 C 0.13953 0.51199 0.36937 0.0
O200 O 0.1647 0.542 0.3355 0.0
Co201 Co 0.11384 0.53176 0.33125 0.0
O202 O 0.13618 0.56154 0.33995 0.0
C203 C 0.12494 0.50771 0.28197 0.0
C204 C 0.17514 0.47693 0.32612 0.0
C205 C 0.15693 0.56122 0.33902 0.0
O206 O 0.14392 0.50455 0.29366 0.0
O207 O 0.1099 0.51549 0.2941 0.0
O208 O 0.16052 0.50988 0.37055 0.0
O209 O 0.12845 0.50867 0.34613 0.0
Co210 Co 0.82958 1.00591 0.66188 0.0
O211 O 0.80059 1.00381 0.67269 0.0
O212 O 0.82926 0.03268 0.68841 0.0
C213 C 0.81579 0.99862 0.61914 0.0
O214 O 0.86166 1.01444 0.65429 0.0
Co215 Co 0.84284 0.96363 0.62758 0.0
O216 O 0.86488 0.98893 0.61896 0.0
C217 C 0.84318 0.9645 0.68463 0.0
C218 C 0.80802 0.02415 0.68715 0.0
C219 C 0.87165 1.00814 0.63482 0.0
O220 O 0.83904 0.98565 0.68806 0.0
O221 O 0.84402 0.95284 0.66217 0.0
O222 O 0.81894 0.01987 0.63192 0.0
O223 O 0.82005 0.98258 0.63253 0.0
Co224 Co 0.91863 0.09811 0.31847 0.0
O225 O 0.92371 0.13347 0.32348 0.0
O226 O 0.89164 0.11216 0.30671 0.0
C227 C 0.936 0.09624 0.36019 0.0
O228 O 0.90449 0.06107 0.31292 0.0
Co229 Co 0.95609 0.06795 0.32353 0.0
O230 O 0.9319 0.04184 0.32604 0.0
C231 C 0.95143 0.09123 0.27701 0.0
C232 C 0.90279 0.1334 0.31492 0.0
C233 C 0.91117 0.04183 0.3188 0.0
O234 O 0.93191 0.09622 0.28238 0.0
O235 O 0.96388 0.08198 0.29254 0.0
O236 O 0.91548 0.10004 0.35644 0.0
O237 O 0.9453 0.09504 0.33944 0.0
Co238 Co 0.38145 0.72884 0.57153 0.0
O239 O 0.41385 0.73038 0.57261 0.0
O240 O 0.39071 0.70031 0.58066 0.0
C241 C 0.37495 0.74176 0.53245 0.0
O242 O 0.34795 0.7187 0.57087 0.0
Co243 Co 0.35574 0.77084 0.56839 0.0
O244 O 0.32823 0.74626 0.5606 0.0
C245 C 0.37955 0.76501 0.61961 0.0
C246 C 0.41091 0.70893 0.57734 0.0
C247 C 0.32922 0.72561 0.5652 0.0
O248 O 0.38431 0.74485 0.60999 0.0
O249 O 0.3706 0.77825 0.60552 0.0
O250 O 0.37721 0.72009 0.533 0.0
O251 O 0.37839 0.75499 0.55497 0.0
Co252 Co 0.41999 0.59794 0.81734 0.0
O253 O 0.42493 0.63318 0.82153 0.0
O254 O 0.3927 0.61165 0.80589 0.0
C255 C 0.43798 0.59705 0.85909 0.0
O256 O 0.40611 0.56091 0.81291 0.0
Co257 Co 0.45793 0.56852 0.82219 0.0
O258 O 0.43412 0.54289 0.82689 0.0
C259 C 0.45095 0.58876 0.77379 0.0
C260 C 0.40387 0.63295 0.81356 0.0
C261 C 0.41324 0.54222 0.81983 0.0
O262 O 0.43237 0.59525 0.78063 0.0
O263 O 0.46371 0.57937 0.7888 0.0
O264 O 0.41741 0.60066 0.85547 0.0
O265 O 0.44706 0.59554 0.83815 0.0
Co266 Co 0.65653 1.00562 0.8339 0.0
O267 O 0.65488 0.97192 0.8327 0.0
O268 O 0.68439 0.99643 0.82627 0.0
C269 C 0.64146 1.01248 0.87125 0.0
O270 O 0.66616 0.04068 0.83498 0.0
Co271 Co 0.61536 0.03116 0.83249 0.0
O272 O 0.63798 0.06071 0.83945 0.0
C273 C 0.62531 1.00519 0.78363 0.0
C274 C 0.67567 0.97522 0.82855 0.0
C275 C 0.65857 0.06006 0.83786 0.0
O276 O 0.64429 1.00195 0.79523 0.0
O277 O 0.61065 1.01375 0.79576 0.0
O278 O 0.66244 1.01035 0.87222 0.0
O279 O 0.63005 1.00855 0.84816 0.0
Co280 Co 0.77877 0.65884 0.98372 0.0
O281 O 0.80922 0.65866 0.97778 0.0
O282 O 0.7863 0.62855 0.98702 0.0
C283 C 0.76857 0.67699 0.9503 0.0
O284 O 0.74662 0.65212 0.99079 0.0
Co285 Co 0.76077 0.70554 0.99706 0.0
O286 O 0.73111 0.68469 0.99342 0.0
C287 C 0.79491 0.69168 0.03388 0.0
C288 C 0.80621 0.63732 0.98275 0.0
C289 C 0.72978 0.66265 0.99293 0.0
O290 O 0.7899 0.67037 0.02186 0.0
O291 O 0.78703 0.70867 0.02539 0.0
O292 O 0.76843 0.65444 0.94595 0.0
O293 O 0.77637 0.68758 0.97368 0.0
Co294 Co 0.96796 0.65435 0.83793 0.0
O295 O 0.96901 0.68757 0.83667 0.0
O296 O 0.94037 0.65952 0.81868 0.0
C297 C 0.98127 0.65783 0.8812 0.0
O298 O 0.95916 0.61906 0.83636 0.0
Co299 Co 1.01003 0.6324 0.85333 0.0
O300 O 0.98735 0.60521 0.85727 0.0
C301 C 1.00123 0.64431 0.80034 0.0
C302 C 0.94876 0.68181 0.82379 0.0
C303 C 0.96699 0.60272 0.8466 0.0
O304 O 0.9819 0.64928 0.80449 0.0
O305 O 1.01533 0.63941 0.81805 0.0
O306 O 0.96036 0.65882 0.87363 0.0
O307 O 0.99367 0.65728 0.86293 0.0
Co308 Co 0.7432 0.42862 0.57377 0.0
O309 O 0.71141 0.42866 0.57632 0.0
O310 O 0.73835 0.45949 0.58889 0.0
C311 C 0.73955 0.40886 0.53175 0.0
O312 O 0.77672 0.43745 0.57332 0.0
Co313 Co 0.76519 0.38398 0.56371 0.0
O314 O 0.79131 0.40633 0.55748 0.0
C315 C 0.75391 0.39938 0.61628 0.0
C316 C 0.71705 0.45099 0.58583 0.0
C317 C 0.79293 0.42833 0.565 0.0
O318 O 0.74906 0.41884 0.60989 0.0
O319 O 0.7583 0.38287 0.59985 0.0
O320 O 0.738 0.431 0.53617 0.0
O321 O 0.74067 0.39912 0.55232 0.0
Co322 Co 0.70125 0.56168 0.35193 0.0
O323 O 0.69677 0.52624 0.3481 0.0
O324 O 0.72813 0.54722 0.3441 0.0
C325 C 0.68315 0.56666 0.39013 0.0
O326 O 0.71536 0.5984 0.35442 0.0
Co327 Co 0.66497 0.5933 0.35387 0.0
O328 O 0.68919 0.62108 0.35926 0.0
C329 C 0.66919 0.56519 0.30301 0.0
C330 C 0.7174 0.52616 0.34407 0.0
C331 C 0.70941 0.6192 0.35696 0.0
O332 O 0.68822 0.55988 0.31266 0.0
O333 O 0.65712 0.57602 0.31723 0.0
O334 O 0.70398 0.56363 0.39147 0.0
O335 O 0.67431 0.56651 0.36656 0.0
Nd336 Nd 0.07874 0.09719 0.08784 0.0
Nd337 Nd 0.04963 0.06123 0.07185 0.0
C338 C 0.09949 0.14172 0.09764 0.0
C339 C 0.09856 0.15845 0.07899 0.0
C340 C 0.10782 0.1824 0.08634 0.0
C341 C 0.10578 0.19791 0.06831 0.0
C342 C 0.09421 0.18973 0.04277 0.0
C343 C 0.08531 0.16564 0.03551 0.0
C344 C 0.08754 0.15022 0.05334 0.0
C345 C 0.09105 0.07618 0.04115 0.0
C346 C 0.03059 0.10444 0.05702 0.0
C347 C 0.02989 1.01641 0.06054 0.0
C348 C 0.03102 0.99763 0.077 0.0
C349 C 0.04658 0.98239 0.07402 0.0
C350 C 0.04967 0.9667 0.0915 0.0
C351 C 0.03716 0.9656 0.11239 0.0
C352 C 1.02106 0.98031 0.11481 0.0
C353 C 1.01804 0.99608 0.09741 0.0
C354 C 0.03644 0.08197 0.11798 0.0
C355 C 0.09719 0.05421 0.10443 0.0
O356 O 0.08059 0.13463 0.10564 0.0
O357 O 0.10952 0.12421 0.09096 0.0
O358 O 0.10344 0.08193 0.06363 0.0
O359 O 0.07089 0.07916 0.04381 0.0
O360 O 0.04826 0.11381 0.07433 0.0
O361 O 1.02787 0.08185 0.04793 0.0
O362 O 0.04831 0.02446 0.05201 0.0
O363 O 1.01953 0.03331 0.06859 0.0
O364 O 1.02414 0.07504 0.09552 0.0
O365 O 0.05692 0.07975 0.11578 0.0
O366 O 0.07956 0.04468 0.08713 0.0
O367 O 0.10008 0.07693 0.11285 0.0
H368 H 0.11637 0.18914 0.10602 0.0
H369 H 0.11271 0.21639 0.07457 0.0
H370 H 0.07659 0.15865 0.01596 0.0
H371 H 0.08044 0.13177 0.04711 0.0
H372 H 0.05693 0.98311 0.05863 0.0
H373 H 0.06242 0.95593 0.08903 0.0
H374 H 1.01073 0.97971 0.13022 0.0
H375 H 1.00581 1.00742 0.10034 0.0
Nd376 Nd 0.31433 0.85274 0.34628 0.0
Nd377 Nd 0.30544 0.80909 0.31603 0.0
C378 C 0.31822 0.89433 0.37577 0.0
C379 C 0.3304 0.91753 0.37337 0.0
C380 C 0.3318 0.92382 0.34862 0.0
C381 C 0.34546 0.94465 0.34613 0.0
C382 C 0.35822 0.95943 0.3683 0.0
C383 C 0.35648 0.95331 0.39311 0.0
C384 C 0.34264 0.93253 0.39561 0.0
C385 C 0.35458 0.84246 0.33031 0.0
C386 C 0.30666 0.8512 0.2847 0.0
C387 C 0.30173 0.76454 0.29404 0.0
C388 C 0.28804 0.74262 0.29867 0.0
C389 C 0.29715 0.72882 0.31566 0.0
C390 C 0.28369 0.70934 0.3219 0.0
C391 C 0.26083 0.70317 0.31122 0.0
C392 C 0.2519 0.71657 0.29364 0.0
C393 C 0.26534 0.73602 0.2874 0.0
C394 C 0.26496 0.82552 0.31939 0.0
C395 C 0.3117 0.8091 0.37835 0.0
O396 O 0.30095 0.88524 0.35786 0.0
O397 O 0.33088 0.87907 0.38093 0.0
O398 O 0.34729 0.86195 0.32883 0.0
O399 O 0.3397 0.82836 0.33789 0.0
O400 O 0.30147 0.8616 0.30652 0.0
O401 O 0.31469 0.83155 0.28485 0.0
O402 O 0.31787 0.77513 0.31264 0.0
O403 O 0.2909 0.77937 0.28396 0.0
O404 O 0.27079 0.81501 0.29855 0.0
O405 O 0.28059 0.8272 0.33857 0.0
O406 O 0.30511 0.79588 0.35529 0.0
O407 O 0.31584 0.83211 0.38043 0.0
H408 H 0.32285 0.91232 0.33109 0.0
H409 H 0.34669 0.94873 0.32674 0.0
H410 H 0.36599 0.96448 0.41054 0.0
H411 H 0.34195 0.92784 0.41483 0.0
H412 H 0.31459 0.73338 0.32461 0.0
H413 H 0.29108 0.69947 0.33561 0.0
H414 H 0.23448 0.71202 0.28464 0.0
H415 H 0.25778 0.74611 0.27406 0.0
Nd416 Nd 0.58165 0.08883 0.58104 0.0
Nd417 Nd 0.53967 0.06687 0.58162 0.0
C418 C 0.62398 0.10441 0.5766 0.0
C419 C 0.64385 0.09879 0.59169 0.0
C420 C 0.66563 0.1105 0.59113 0.0
C421 C 0.68397 0.10543 0.60698 0.0
C422 C 0.68069 0.08885 0.62391 0.0
C423 C 0.65866 0.0775 0.62442 0.0
C424 C 0.6406 0.08213 0.60823 0.0
C425 C 0.58048 0.06728 0.62506 0.0
C426 C 0.56666 0.03629 0.54896 0.0
C427 C 0.49806 0.05048 0.5881 0.0
C428 C 0.47723 0.05646 0.576 0.0
C429 C 0.45629 0.04702 0.58203 0.0
C430 C 0.43671 0.0531 0.56998 0.0
C431 C 0.43793 0.06861 0.55172 0.0
C432 C 0.45905 0.07768 0.54562 0.0
C433 C 0.47846 0.07182 0.55781 0.0
C434 C 0.54114 0.08857 0.53762 0.0
C435 C 0.55378 0.11977 0.61249 0.0
O436 O 0.61136 0.08677 0.56054 0.0
O437 O 0.61215 0.11662 0.59048 0.0
O438 O 0.58956 0.08868 0.62502 0.0
O439 O 0.57106 0.05783 0.60239 0.0
O440 O 0.57661 0.05745 0.54674 0.0
O441 O 0.55399 0.03444 0.56735 0.0
O442 O 0.51123 0.06755 0.60438 0.0
O443 O 0.50897 0.03948 0.57182 0.0
O444 O 0.53163 0.06726 0.53744 0.0
O445 O 0.55012 0.09793 0.56045 0.0
O446 O 0.54409 0.09868 0.61515 0.0
O447 O 0.56701 0.12147 0.59458 0.0
H448 H 0.66845 0.12348 0.57851 0.0
H449 H 0.70068 0.11431 0.60571 0.0
H450 H 0.65517 0.06509 0.63751 0.0
H451 H 0.62396 0.07276 0.60881 0.0
H452 H 0.45511 0.03514 0.59609 0.0
H453 H 0.42071 0.04601 0.57528 0.0
H454 H 0.46063 0.08928 0.53132 0.0
H455 H 0.49451 0.07933 0.55298 0.0
Nd456 Nd 0.32029 0.33251 0.85321 0.0
Nd457 Nd 0.30234 0.32366 0.80957 0.0
C458 C 0.33149 0.34292 0.9045 0.0
C459 C 0.33095 0.36505 0.92121 0.0
C460 C 0.31822 0.38083 0.91157 0.0
C461 C 0.31807 0.4024 0.92675 0.0
C462 C 0.33089 0.40865 0.95166 0.0
C463 C 0.34403 0.39303 0.96106 0.0
C464 C 0.34403 0.37129 0.94589 0.0
C465 C 0.33303 0.37411 0.83231 0.0
C466 C 0.26806 0.34096 0.84338 0.0
C467 C 0.29138 0.31279 0.75825 0.0
C468 C 0.29357 0.29166 0.74066 0.0
C469 C 0.27748 0.28285 0.71856 0.0
C470 C 0.27894 0.26205 0.7025 0.0
C471 C 0.29658 0.24988 0.70833 0.0
C472 C 0.31252 0.2586 0.73068 0.0
C473 C 0.3109 0.27923 0.74687 0.0
C474 C 0.28952 0.28262 0.83144 0.0
C475 C 0.35442 0.31547 0.81863 0.0
O476 O 0.31199 0.33109 0.89314 0.0
O477 O 0.34608 0.34436 0.88841 0.0
O478 O 0.34621 0.36249 0.84409 0.0
O479 O 0.31299 0.36251 0.82941 0.0
O480 O 0.28293 0.33425 0.85985 0.0
O481 O 0.27367 0.34288 0.82032 0.0
O482 O 0.31011 0.32627 0.76966 0.0
O483 O 0.27701 0.30947 0.77432 0.0
O484 O 0.27628 0.29434 0.81991 0.0
O485 O 0.30961 0.29381 0.83347 0.0
O486 O 0.33952 0.32247 0.80259 0.0
O487 O 0.34899 0.31331 0.84173 0.0
H488 H 0.30841 0.37646 0.89224 0.0
H489 H 0.30795 0.4142 0.91903 0.0
H490 H 0.35385 0.39737 0.98038 0.0
H491 H 0.35418 0.3594 0.95337 0.0
H492 H 0.26383 0.29204 0.71373 0.0
H493 H 0.26663 0.25584 0.68511 0.0
H494 H 0.32622 0.2495 0.73556 0.0
H495 H 0.32321 0.28543 0.76424 0.0
Nd496 Nd 0.05554 0.09541 0.58896 0.0
Nd497 Nd 0.0587 0.04904 0.56419 0.0
C498 C 0.04571 0.13684 0.60609 0.0
C499 C 0.05075 0.15928 0.59694 0.0
C500 C 0.04662 0.17991 0.61124 0.0
C501 C 0.05387 0.2016 0.60395 0.0
C502 C 0.06548 0.20289 0.58236 0.0
C503 C 0.069 0.18199 0.56773 0.0
C504 C 0.06169 0.16038 0.57497 0.0
C505 C 0.09272 0.09437 0.56375 0.0
C506 C 0.03081 0.07722 0.52793 0.0
C507 C 0.06958 1.00797 0.54826 0.0
C508 C 0.0687 0.98773 0.5619 0.0
C509 C 0.0667 0.96498 0.54801 0.0
C510 C 0.06126 0.94555 0.5603 0.0
C511 C 0.05759 0.94871 0.58657 0.0
C512 C 0.06085 0.97163 0.60069 0.0
C513 C 0.06628 0.99093 0.58845 0.0
C514 C 1.02009 0.05008 0.58587 0.0
C515 C 0.08285 0.06718 0.62577 0.0
O516 O 0.03154 0.12032 0.59009 0.0
O517 O 0.06335 0.12932 0.61604 0.0
O518 O 0.09318 0.10663 0.58646 0.0
O519 O 0.07325 0.08377 0.55478 0.0
O520 O 0.0294 0.0897 0.55075 0.0
O521 O 0.04518 0.06246 0.52699 0.0
O522 O 0.0845 0.02651 0.55916 0.0
O523 O 0.04994 1.01314 0.54115 0.0
O524 O 1.02112 0.03787 0.56356 0.0
O525 O 0.03924 0.06062 0.59704 0.0
O526 O 0.08354 0.05377 0.60333 0.0
O527 O 0.06944 0.08283 0.62634 0.0
H528 H 0.03828 0.17929 0.62833 0.0
H529 H 0.05063 0.21738 0.61538 0.0
H530 H 0.07815 0.18235 0.55126 0.0
H531 H 0.06521 0.14453 0.56391 0.0
H532 H 0.06829 0.96223 0.52743 0.0
H533 H 0.05912 0.92809 0.54901 0.0
H534 H 0.0578 0.97476 0.62077 0.0
H535 H 0.06728 1.00836 0.59937 0.0
Nd536 Nd 0.33004 0.8417 0.84532 0.0
Nd537 Nd 0.2927 0.81663 0.81162 0.0
C538 C 0.36587 0.87204 0.86986 0.0
C539 C 0.39002 0.87553 0.87883 0.0
C540 C 0.40151 0.85654 0.87803 0.0
C541 C 0.42388 0.85997 0.88987 0.0
C542 C 0.43494 0.8824 0.90278 0.0
C543 C 0.42346 0.90144 0.9028 0.0
C544 C 0.40118 0.898 0.89089 0.0
C545 C 0.29537 0.83105 0.87355 0.0
C546 C 0.33123 0.78495 0.83197 0.0
C547 C 0.25584 0.78811 0.78669 0.0
C548 C 0.23239 0.78934 0.77791 0.0
C549 C 0.22334 0.80922 0.78647 0.0
C550 C 0.20189 0.81142 0.77532 0.0
C551 C 0.18935 0.79388 0.75528 0.0
C552 C 0.19835 0.77375 0.7473 0.0
C553 C 0.21971 0.77152 0.75854 0.0
C554 C 0.32768 0.82779 0.78386 0.0
C555 C 0.29124 0.87311 0.82456 0.0
O556 O 0.35902 0.86995 0.84478 0.0
O557 O 0.35319 0.85786 0.88135 0.0
O558 O 0.31551 0.82692 0.87946 0.0
O559 O 0.29359 0.83795 0.85172 0.0
O560 O 0.344 0.80596 0.84057 0.0
O561 O 0.3097 0.78455 0.823 0.0
O562 O 0.26226 0.79019 0.81187 0.0
O563 O 0.27039 0.8 0.77505 0.0
O564 O 0.30757 0.83202 0.77789 0.0
O565 O 0.32916 0.8204 0.80538 0.0
O566 O 0.27863 0.8521 0.81603 0.0
O567 O 0.31275 0.87365 0.83371 0.0
H568 H 0.393 0.83902 0.86898 0.0
H569 H 0.43226 0.84494 0.8897 0.0
H570 H 0.43165 0.91895 0.91222 0.0
H571 H 0.39244 0.91281 0.89176 0.0
H572 H 0.23309 0.82329 0.80119 0.0
H573 H 0.19544 0.82719 0.78174 0.0
H574 H 0.18894 0.75979 0.73221 0.0
H575 H 0.22658 0.75615 0.7516 0.0
Nd576 Nd 0.53581 0.07381 0.06368 0.0
Nd577 Nd 0.58491 0.08528 0.0948 0.0
C578 C 0.49354 0.07368 0.04488 0.0
C579 C 0.47239 0.05928 0.04794 0.0
C580 C 0.45187 0.06317 0.03579 0.0
C581 C 0.43182 0.04885 0.0382 0.0
C582 C 0.43209 0.03039 0.05272 0.0
C583 C 0.45277 0.02681 0.06511 0.0
C584 C 0.47274 0.04115 0.06277 0.0
C585 C 0.55392 0.0349 0.07179 0.0
C586 C 0.54435 0.08542 0.12839 0.0
C587 C 0.62782 0.08789 0.11256 0.0
C588 C 0.64872 0.10122 0.10661 0.0
C589 C 0.66538 0.08925 0.09799 0.0
C590 C 0.68469 0.10155 0.09088 0.0
C591 C 0.68773 0.12612 0.09233 0.0
C592 C 0.67108 0.13804 0.10124 0.0
C593 C 0.65176 0.12575 0.10818 0.0
C594 C 0.56562 0.1233 0.08516 0.0
C595 C 0.57726 0.07366 0.03036 0.0
O596 O 0.50421 0.08775 0.06597 0.0
O597 O 0.50684 0.06247 0.03205 0.0
O598 O 0.53648 0.03452 0.05476 0.0
O599 O 0.55729 0.05402 0.08761 0.0
O600 O 0.53127 0.08582 0.1064 0.0
O601 O 0.56482 0.08045 0.12849 0.0
O602 O 0.61669 0.07129 0.09391 0.0
O603 O 0.6147 0.10007 0.12456 0.0
O604 O 0.58081 0.12379 0.10494 0.0
O605 O 0.56385 0.10434 0.06965 0.0
O606 O 0.59026 0.07438 0.05265 0.0
O607 O 0.55619 0.07703 0.02949 0.0
H608 H 0.45137 0.0771 0.02425 0.0
H609 H 0.41616 0.05191 0.02825 0.0
H610 H 0.45351 1.01297 0.07674 0.0
H611 H 0.48851 0.03802 0.07238 0.0
H612 H 0.66331 0.07032 0.0964 0.0
H613 H 0.69702 0.09175 0.08382 0.0
H614 H 0.67301 0.15697 0.10308 0.0
H615 H 0.63916 0.13551 0.11459 0.0
Nd616 Nd 0.29328 0.31063 0.30518 0.0
Nd617 Nd 0.32706 0.34359 0.34279 0.0
C618 C 0.26175 0.28202 0.27196 0.0
C619 C 0.23807 0.27935 0.27685 0.0
C620 C 0.22636 0.29801 0.27421 0.0
C621 C 0.2109 0.30289 0.29093 0.0
C622 C 0.20664 0.28895 0.31006 0.0
C623 C 0.21505 0.26793 0.30938 0.0
C624 C 0.23053 0.263 0.29261 0.0
C625 C 0.29008 0.30517 0.35613 0.0
C626 C 0.27755 0.35765 0.33106 0.0
C627 C 0.35796 0.37076 0.37838 0.0
C628 C 0.3822 0.37261 0.37613 0.0
C629 C 0.39311 0.35377 0.38079 0.0
C630 C 0.40959 0.3479 0.3659 0.0
C631 C 0.41517 0.36071 0.34614 0.0
C632 C 0.40797 0.3824 0.34585 0.0
C633 C 0.3917 0.38842 0.36093 0.0
C634 C 0.32934 0.3502 0.29194 0.0
C635 C 0.34331 0.29742 0.3152 0.0
O636 O 0.27062 0.30256 0.26705 0.0
O637 O 0.27528 0.27446 0.2889 0.0
O638 O 0.27336 0.30685 0.33921 0.0
O639 O 0.30798 0.30837 0.34641 0.0
O640 O 0.2743 0.34135 0.31009 0.0
O641 O 0.29529 0.35976 0.34913 0.0
O642 O 0.34772 0.35036 0.38215 0.0
O643 O 0.34616 0.37904 0.3604 0.0
O644 O 0.34658 0.34943 0.30869 0.0
O645 O 0.3117 0.34611 0.30189 0.0
O646 O 0.34669 0.31359 0.33628 0.0
O647 O 0.32518 0.29503 0.29764 0.0
H648 H 0.23123 0.31066 0.2618 0.0
H649 H 0.20401 0.31886 0.2907 0.0
H650 H 0.21174 0.25675 0.32379 0.0
H651 H 0.23885 0.24816 0.29473 0.0
H652 H 0.38685 0.34167 0.39317 0.0
H653 H 0.41561 0.33165 0.36762 0.0
H654 H 0.41297 0.39343 0.33186 0.0
H655 H 0.38433 0.40365 0.35769 0.0
Nd656 Nd 0.55726 0.60621 0.09165 0.0
Nd657 Nd 0.5647 0.55802 0.06552 0.0
C658 C 0.54615 0.64716 0.10719 0.0
C659 C 0.5513 0.66848 0.09565 0.0
C660 C 0.55352 0.6908 0.11068 0.0
C661 C 0.56205 0.71084 0.10076 0.0
C662 C 0.56861 0.70878 0.07571 0.0
C663 C 0.56561 0.68636 0.06046 0.0
C664 C 0.55713 0.66643 0.07036 0.0
C665 C 0.59519 0.60637 0.06821 0.0
C666 C 0.5319 0.5848 0.03041 0.0
C667 C 0.58292 0.52316 0.04528 0.0
C668 C 0.58479 0.50137 0.0555 0.0
C669 C 0.58313 0.48016 0.03846 0.0
C670 C 0.57974 0.45884 0.04786 0.0
C671 C 0.57776 0.45853 0.07438 0.0
C672 C 0.5809 0.47999 0.09158 0.0
C673 C 0.58433 0.50117 0.08223 0.0
C674 C 0.52976 0.55058 0.09435 0.0
C675 C 0.585 0.57696 0.1276 0.0
O676 O 0.532 0.62973 0.09241 0.0
O677 O 0.56379 0.64039 0.11841 0.0
O678 O 0.59475 0.61897 0.09048 0.0
O679 O 0.5761 0.59479 0.05881 0.0
O680 O 0.53307 0.60038 0.05196 0.0
O681 O 0.544 0.56783 0.02999 0.0
O682 O 0.59488 0.54241 0.0596 0.0
O683 O 0.56224 0.52534 0.03726 0.0
O684 O 0.53712 0.53385 0.0808 0.0
O685 O 0.54082 0.56999 0.09225 0.0
O686 O 0.58907 0.56627 0.105 0.0
O687 O 0.56935 0.59039 0.12798 0.0
H688 H 0.54939 0.69269 0.13036 0.0
H689 H 0.56391 0.7279 0.11288 0.0
H690 H 0.57079 0.68407 0.0413 0.0
H691 H 0.55601 0.64929 0.05864 0.0
H692 H 0.58324 0.48001 0.01774 0.0
H693 H 0.57767 0.4426 0.03418 0.0
H694 H 0.57911 0.48049 0.11199 0.0
H695 H 0.58516 0.51733 0.09568 0.0
Nd696 Nd 0.83093 0.34408 0.34257 0.0
Nd697 Nd 0.79214 0.31724 0.31274 0.0
C698 C 0.86718 0.37552 0.36349 0.0
C699 C 0.89141 0.37951 0.37208 0.0
C700 C 0.9024 0.40237 0.38284 0.0
C701 C 0.92456 0.4064 0.39528 0.0
C702 C 0.93609 0.38756 0.39709 0.0
C703 C 0.9253 0.36472 0.38524 0.0
C704 C 0.90303 0.3607 0.3729 0.0
C705 C 0.79892 0.33371 0.37431 0.0
C706 C 0.83259 0.28727 0.33165 0.0
C707 C 0.75461 0.28759 0.29223 0.0
C708 C 0.73131 0.28877 0.28264 0.0
C709 C 0.72518 0.31032 0.27887 0.0
C710 C 0.70407 0.31086 0.26541 0.0
C711 C 0.68882 0.28986 0.25563 0.0
C712 C 0.69469 0.26843 0.2606 0.0
C713 C 0.71584 0.2679 0.27395 0.0
C714 C 0.82381 0.32769 0.28059 0.0
C715 C 0.79012 0.37393 0.32355 0.0
O716 O 0.85976 0.37124 0.3384 0.0
O717 O 0.8549 0.36285 0.37685 0.0
O718 O 0.81944 0.33019 0.37876 0.0
O719 O 0.79549 0.34002 0.3523 0.0
O720 O 0.84529 0.30853 0.33841 0.0
O721 O 0.81067 0.2863 0.32445 0.0
O722 O 0.76131 0.29306 0.31743 0.0
O723 O 0.76926 0.29652 0.27857 0.0
O724 O 0.80313 0.33082 0.2764 0.0
O725 O 0.82769 0.32165 0.30273 0.0
O726 O 0.77768 0.35264 0.31629 0.0
O727 O 0.81198 0.37504 0.33134 0.0
H728 H 0.89354 0.41704 0.38251 0.0
H729 H 0.93256 0.42419 0.40389 0.0
H730 H 0.93373 0.34985 0.38648 0.0
H731 H 0.89464 0.34289 0.36493 0.0
H732 H 0.73703 0.3266 0.28538 0.0
H733 H 0.69986 0.32764 0.26219 0.0
H734 H 0.68336 0.25195 0.25313 0.0
H735 H 0.72045 0.25112 0.27649 0.0
Nd736 Nd 0.03686 0.57973 0.5621 0.0
Nd737 Nd 0.08587 0.5869 0.59322 0.0
C738 C 0.9951 0.5819 0.54345 0.0
C739 C 0.97284 0.56837 0.54522 0.0
C740 C 0.96299 0.57177 0.56812 0.0
C741 C 0.94292 0.55745 0.57033 0.0
C742 C 0.93231 0.53942 0.54973 0.0
C743 C 0.94176 0.53656 0.52654 0.0
C744 C 0.96175 0.55095 0.52426 0.0
C745 C 0.05228 0.53894 0.56855 0.0
C746 C 0.04514 0.5887 0.62678 0.0
C747 C 0.12797 0.58516 0.61058 0.0
C748 C 0.14936 0.59875 0.60654 0.0
C749 C 0.16728 0.5873 0.60138 0.0
C750 C 0.18699 0.59979 0.59537 0.0
C751 C 0.1891 0.62398 0.59444 0.0
C752 C 0.17115 0.6354 0.59998 0.0
C753 C 0.15145 0.6229 0.60579 0.0
C754 C 0.07 0.62754 0.58684 0.0
C755 C 0.07799 0.57752 0.52874 0.0
O756 O 1.00616 0.59529 0.56482 0.0
O757 O 1.00804 0.57061 0.5301 0.0
O758 O 0.03591 0.54023 0.55086 0.0
O759 O 0.05633 0.55762 0.58506 0.0
O760 O 0.03236 0.59029 0.60502 0.0
O761 O 0.06523 0.58273 0.62665 0.0
O762 O 0.11648 0.57123 0.58985 0.0
O763 O 0.11538 0.59664 0.62432 0.0
O764 O 0.08625 0.62631 0.60473 0.0
O765 O 0.06638 0.60894 0.57027 0.0
O766 O 0.09045 0.57623 0.55074 0.0
O767 O 0.05764 0.58293 0.52828 0.0
H768 H 0.97102 0.58512 0.58461 0.0
H769 H 0.93609 0.56002 0.58849 0.0
H770 H 0.93375 0.5231 0.51015 0.0
H771 H 0.96879 0.54811 0.50626 0.0
H772 H 0.16586 0.5686 0.60148 0.0
H773 H 0.20035 0.59037 0.59089 0.0
H774 H 0.17229 0.65406 0.59989 0.0
H775 H 0.13775 0.63212 0.60938 0.0
Nd776 Nd 0.81985 0.83328 0.35467 0.0
Nd777 Nd 0.80228 0.82399 0.30971 0.0
C778 C 0.83004 0.8438 0.40613 0.0
C779 C 0.82701 0.8646 0.42365 0.0
C780 C 0.81052 0.87753 0.4159 0.0
C781 C 0.80813 0.89793 0.4319 0.0
C782 C 0.82243 0.90595 0.45569 0.0
C783 C 0.83926 0.89326 0.46316 0.0
C784 C 0.8415 0.87266 0.44723 0.0
C785 C 0.83215 0.87438 0.33294 0.0
C786 C 0.76693 0.84038 0.34324 0.0
C787 C 0.79347 0.81533 0.25808 0.0
C788 C 0.80237 0.79994 0.23857 0.0
C789 C 0.82535 0.80356 0.2363 0.0
C790 C 0.83391 0.78755 0.2195 0.0
C791 C 0.81959 0.76775 0.20444 0.0
C792 C 0.79655 0.76436 0.20653 0.0
C793 C 0.78805 0.78028 0.22343 0.0
C794 C 0.78912 0.78342 0.33193 0.0
C795 C 0.85466 0.8157 0.32085 0.0
O796 O 0.81168 0.82988 0.39429 0.0
O797 O 0.84455 0.84785 0.39037 0.0
O798 O 0.84563 0.86302 0.34469 0.0
O799 O 0.81222 0.86263 0.33044 0.0
O800 O 0.7823 0.83528 0.36049 0.0
O801 O 0.77208 0.84099 0.31974 0.0
O802 O 0.80733 0.83372 0.27113 0.0
O803 O 0.78128 0.80461 0.27299 0.0
O804 O 0.77593 0.79485 0.31972 0.0
O805 O 0.80929 0.79469 0.33437 0.0
O806 O 0.83954 0.82138 0.30383 0.0
O807 O 0.84929 0.81479 0.34424 0.0
H808 H 0.79954 0.87192 0.39742 0.0
H809 H 0.79514 0.90748 0.42567 0.0
H810 H 0.85032 0.89897 0.4816 0.0
H811 H 0.85452 0.86308 0.45326 0.0
H812 H 0.83677 0.81867 0.24762 0.0
H813 H 0.85171 0.7907 0.21828 0.0
H814 H 0.78492 0.74966 0.19464 0.0
H815 H 0.77027 0.77715 0.22483 0.0
Nd816 Nd 0.81381 0.34991 0.84774 0.0
Nd817 Nd 0.80687 0.30932 0.81585 0.0
C818 C 0.81744 0.39423 0.87064 0.0
C819 C 0.83096 0.41663 0.86751 0.0
C820 C 0.83231 0.4228 0.84267 0.0
C821 C 0.84664 0.44316 0.8399 0.0
C822 C 0.86009 0.4576 0.86187 0.0
C823 C 0.85844 0.45158 0.88674 0.0
C824 C 0.84396 0.43133 0.88951 0.0
C825 C 0.85537 0.33615 0.84315 0.0
C826 C 0.80899 0.35073 0.78488 0.0
C827 C 0.80339 0.26462 0.79451 0.0
C828 C 0.7894 0.24355 0.80002 0.0
C829 C 0.78985 0.22124 0.78632 0.0
C830 C 0.77627 0.20136 0.7917 0.0
C831 C 0.762 0.20355 0.81086 0.0
C832 C 0.76177 0.22603 0.82459 0.0
C833 C 0.77532 0.24582 0.81921 0.0
C834 C 0.76514 0.32284 0.82023 0.0
C835 C 0.81148 0.30804 0.87838 0.0
O836 O 0.80166 0.38396 0.85146 0.0
O837 O 0.82865 0.37939 0.88007 0.0
O838 O 0.84825 0.34283 0.86471 0.0
O839 O 0.84014 0.33558 0.82391 0.0
O840 O 0.80499 0.36107 0.80745 0.0
O841 O 0.81522 0.33017 0.78366 0.0
O842 O 0.81919 0.27538 0.81341 0.0
O843 O 0.79245 0.27923 0.78411 0.0
O844 O 0.77191 0.31474 0.7989 0.0
O845 O 0.78056 0.32399 0.83947 0.0
O846 O 0.81564 0.29808 0.85579 0.0
O847 O 0.80547 0.32873 0.87998 0.0
H848 H 0.82268 0.41165 0.8253 0.0
H849 H 0.84771 0.4472 0.82048 0.0
H850 H 0.8684 0.46251 0.90406 0.0
H851 H 0.84325 0.42687 0.90883 0.0
H852 H 0.8006 0.21919 0.77141 0.0
H853 H 0.77668 0.18435 0.78056 0.0
H854 H 0.75128 0.22835 0.83971 0.0
H855 H 0.77482 0.26296 0.83004 0.0
Nd856 Nd 0.8004 0.81778 0.79645 0.0
Nd857 Nd 0.81837 0.83257 0.85273 0.0
C858 C 0.7755 0.81663 0.75207 0.0
C859 C 0.75143 0.81781 0.75319 0.0
C860 C 0.7448 0.83996 0.75641 0.0
C861 C 0.72808 0.84419 0.77173 0.0
C862 C 0.71782 0.82635 0.78396 0.0
C863 C 0.72157 0.80336 0.77682 0.0
C864 C 0.73793 0.79904 0.76116 0.0
C865 C 0.78318 0.78725 0.82698 0.0
C866 C 0.77733 0.85525 0.83435 0.0
C867 C 0.84161 0.83467 0.89885 0.0
C868 C 0.86614 0.83453 0.90155 0.0
C869 C 0.8738 0.81315 0.90257 0.0
C870 C 0.89231 0.80855 0.8905 0.0
C871 C 0.90298 0.82518 0.87707 0.0
C872 C 0.89838 0.84811 0.88114 0.0
C873 C 0.88021 0.85285 0.89357 0.0
C874 C 0.83492 0.86316 0.82178 0.0
C875 C 0.84204 0.79548 0.81417 0.0
O876 O 0.78964 0.83566 0.76347 0.0
O877 O 0.78208 0.79766 0.75841 0.0
O878 O 0.78855 0.78089 0.80422 0.0
O879 O 0.78612 0.80934 0.83307 0.0
O880 O 0.78322 0.84862 0.81135 0.0
O881 O 0.78585 0.84745 0.85515 0.0
O882 O 0.8289 0.81518 0.88617 0.0
O883 O 0.83518 0.8532 0.89112 0.0
O884 O 0.82976 0.86964 0.84464 0.0
O885 O 0.83241 0.84108 0.81621 0.0
O886 O 0.837 0.80282 0.83754 0.0
O887 O 0.83243 0.80229 0.79323 0.0
H888 H 0.75455 0.85476 0.75021 0.0
H889 H 0.72508 0.86199 0.77635 0.0
H890 H 0.7133 0.78909 0.78526 0.0
H891 H 0.74199 0.78154 0.75846 0.0
H892 H 0.86367 0.79884 0.90917 0.0
H893 H 0.89602 0.79091 0.88844 0.0
H894 H 0.90699 0.86159 0.87188 0.0
H895 H 0.87541 0.8699 0.89334 0.0
Nd896 Nd 0.57998 0.60122 0.58519 0.0
Nd897 Nd 0.55066 0.5608 0.57736 0.0
C898 C 0.60726 0.64242 0.59349 0.0
C899 C 0.60584 0.66224 0.57874 0.0
C900 C 0.58672 0.67296 0.57728 0.0
C901 C 0.58369 0.68868 0.55986 0.0
C902 C 0.59962 0.69405 0.54324 0.0
C903 C 0.61921 0.68408 0.54552 0.0
C904 C 0.62226 0.6684 0.56304 0.0
C905 C 0.57974 0.57997 0.53355 0.0
C906 C 0.52958 0.60599 0.56377 0.0
C907 C 0.52386 0.51935 0.56929 0.0
C908 C 0.52615 0.49948 0.58377 0.0
C909 C 0.54558 0.48926 0.58454 0.0
C910 C 0.5494 0.47344 0.60164 0.0
C911 C 0.5339 0.46733 0.61849 0.0
C912 C 0.51411 0.47699 0.61708 0.0
C913 C 0.51029 0.49283 0.59995 0.0
C914 C 0.55082 0.58178 0.62895 0.0
C915 C 0.60074 0.55604 0.5996 0.0
O916 O 0.59163 0.63742 0.60781 0.0
O917 O 0.61179 0.62353 0.5803 0.0
O918 O 0.57515 0.60066 0.54041 0.0
O919 O 0.57977 0.56952 0.55334 0.0
O920 O 0.54886 0.61749 0.57657 0.0
O921 O 0.5268 0.58287 0.55744 0.0
O922 O 0.53889 0.52474 0.55434 0.0
O923 O 0.51937 0.53801 0.58296 0.0
O924 O 0.55563 0.56122 0.6219 0.0
O925 O 0.55094 0.59247 0.60933 0.0
O926 O 0.58172 0.54462 0.58613 0.0
O927 O 0.60345 0.57916 0.60597 0.0
H928 H 0.57364 0.66865 0.58896 0.0
H929 H 0.56863 0.69636 0.55919 0.0
H930 H 0.6318 0.68759 0.53301 0.0
H931 H 0.63708 0.66029 0.56353 0.0
H932 H 0.55831 0.49409 0.5726 0.0
H933 H 0.56496 0.46666 0.60227 0.0
H934 H 0.50158 0.47246 0.62937 0.0
H935 H 0.49523 0.50049 0.59997 0.0
Nd936 Nd 0.08076 0.58823 0.07617 0.0
Nd937 Nd 0.03836 0.56728 0.07999 0.0
C938 C 0.12229 0.60296 0.06776 0.0
C939 C 0.14399 0.60599 0.08489 0.0
C940 C 0.16335 0.60226 0.07414 0.0
C941 C 0.18318 0.60155 0.09041 0.0
C942 C 0.18387 0.60427 0.11771 0.0
C943 C 0.16466 0.60886 0.12843 0.0
C944 C 0.14496 0.60984 0.11219 0.0
C945 C 0.08109 0.56814 0.1212 0.0
C946 C 0.06324 0.53609 0.045 0.0
C947 C 0.99745 0.5517 0.08917 0.0
C948 C 0.97683 0.55913 0.07857 0.0
C949 C 0.95565 0.54902 0.08335 0.0
C950 C 0.93631 0.55603 0.0719 0.0
C951 C 0.938 0.57309 0.05539 0.0
C952 C 0.95938 0.58293 0.05067 0.0
C953 C 0.97853 0.57622 0.06235 0.0
C954 C 0.03733 0.58744 0.03496 0.0
C955 C 0.05552 0.62046 0.11177 0.0
O956 O 0.11188 0.5813 0.06076 0.0
O957 O 0.10871 0.61717 0.07446 0.0
O958 O 0.09093 0.589 0.11994 0.0
O959 O 0.07045 0.55835 0.09916 0.0
O960 O 0.07255 0.5571 0.04152 0.0
O961 O 0.05209 0.53465 0.06481 0.0
O962 O 1.01172 0.56792 0.10541 0.0
O963 O 1.00716 0.54053 0.07165 0.0
O964 O 1.02716 0.56679 0.03658 0.0
O965 O 0.04849 0.5972 0.05685 0.0
O966 O 0.0428 0.60013 0.11192 0.0
O967 O 0.07056 0.62172 0.09581 0.0
H968 H 0.16289 0.59901 0.05313 0.0
H969 H 0.19763 0.59772 0.08154 0.0
H970 H 0.16473 0.61123 0.14937 0.0
H971 H 0.1303 0.61287 0.12099 0.0
H972 H 0.95409 0.53576 0.09581 0.0
H973 H 0.92012 0.54827 0.07616 0.0
H974 H 0.9614 0.59567 0.03764 0.0
H975 H 0.99476 0.58426 0.05848 0.0
H976 H 0.10737 0.29953 0.94556 0.0
H977 H 0.05562 0.19082 0.01058 0.0
H978 H 0.0366 0.27659 0.94485 0.0
H979 H 0.12456 0.226 0.03172 0.0
H980 H 0.04965 0.21754 0.97965 0.0
H981 H 0.11519 0.2677 0.96962 0.0
C982 C 0.09349 0.28728 0.94965 0.0
C983 C 0.0713 0.29046 0.94298 0.0
C984 C 0.06613 0.21939 0.99094 0.0
C985 C 0.08005 0.25451 0.97087 0.0
C986 C 0.06959 0.20406 1.00858 0.0
C987 C 0.09064 0.20613 0.02386 0.0
C988 C 0.08386 0.23697 0.98826 0.0
C989 C 0.108 0.2239 0.02057 0.0
C990 C 0.09795 0.26937 0.96371 0.0
C991 C 0.05392 0.27456 0.94943 0.0
N992 N 0.10424 0.23862 1.00312 0.0
N993 N 0.05865 0.25738 0.96304 0.0
H994 H 0.13452 0.86579 0.28512 0.0
H995 H 0.22991 0.78844 0.31013 0.0
H996 H 0.11904 0.7917 0.2866 0.0
H997 H 0.24368 0.86389 0.3287 0.0
H998 H 0.18948 0.78936 0.30315 0.0
H999 H 0.17379 0.86593 0.30293 0.0
C1000 C 0.13916 0.84968 0.29014 0.0
C1001 C 0.12298 0.82887 0.28513 0.0
C1002 C 0.20121 0.80576 0.30925 0.0
C1003 C 0.16883 0.82858 0.3043 0.0
C1004 C 0.22442 0.80523 0.31345 0.0
C1005 C 0.24044 0.82608 0.32075 0.0
C1006 C 0.19357 0.82739 0.31157 0.0
C1007 C 0.2321 0.84732 0.32381 0.0
C1008 C 0.16177 0.84971 0.30003 0.0
C1009 C 0.13052 0.80835 0.29095 0.0
N1010 N 0.20944 0.84743 0.31897 0.0
N1011 N 0.15275 0.80867 0.29982 0.0
H1012 H 0.55175 0.89342 0.46935 0.0
H1013 H 0.58667 0.03371 0.50426 0.0
H1014 H 0.58401 0.93436 0.41766 0.0
H1015 H 0.54924 0.99053 0.55012 0.0
H1016 H 0.58669 0.99832 0.47245 0.0
H1017 H 0.55088 0.92939 0.4987 0.0
C1018 C 0.55853 0.91004 0.46403 0.0
C1019 C 0.56798 0.9108 0.44094 0.0
C1020 C 0.57849 0.99664 0.48949 0.0
C1021 C 0.56731 0.95249 0.47498 0.0
C1022 C 0.57857 1.01682 0.50774 0.0
C1023 C 0.56797 1.01514 0.52999 0.0
C1024 C 0.56781 0.97461 0.49357 0.0
C1025 C 0.55764 0.99278 0.53334 0.0
C1026 C 0.55807 0.93067 0.48091 0.0
C1027 C 0.57647 0.93296 0.43519 0.0
N1028 N 0.55784 0.97352 0.51542 0.0
N1029 N 0.57608 0.95294 0.45219 0.0
H1030 H 0.49821 0.30515 0.81801 0.0
H1031 H 0.36945 0.31744 0.77123 0.0
H1032 H 0.47217 0.31308 0.74005 0.0
H1033 H 0.39234 0.30727 0.84933 0.0
H1034 H 0.40694 0.3151 0.75995 0.0
H1035 H 0.46028 0.30508 0.83022 0.0
C1036 C 0.48461 0.30672 0.80337 0.0
C1037 C 0.48874 0.30907 0.77783 0.0
C1038 C 0.40388 0.31328 0.77957 0.0
C1039 C 0.44483 0.30918 0.79186 0.0
C1040 C 0.38228 0.31459 0.78608 0.0
C1041 C 0.37734 0.31253 0.81136 0.0
C1042 C 0.42121 0.30996 0.7984 0.0
C1043 C 0.39507 0.30888 0.82956 0.0
C1044 C 0.46285 0.30674 0.8104 0.0
C1045 C 0.47014 0.31118 0.75995 0.0
N1046 N 0.41604 0.30781 0.8228 0.0
N1047 N 0.44933 0.31123 0.76725 0.0
H1048 H 1.0138 0.85914 0.69578 0.0
H1049 H 1.02512 0.91115 0.56364 0.0
H1050 H 0.97701 0.82613 0.62025 0.0
H1051 H 0.06758 0.94085 0.63694 0.0
H1052 H 1.0065 0.88057 0.58461 0.0
H1053 H 0.0318 0.89101 0.67551 0.0
C1054 C 1.00921 0.85883 0.67504 0.0
C1055 C 0.99395 0.84 0.65962 0.0
C1056 C 1.01996 0.8937 0.59612 0.0
C1057 C 1.01466 0.876 0.63632 0.0
C1058 C 0.03081 0.91103 0.58405 0.0
C1059 C 0.04801 0.9286 0.59851 0.0
C1060 C 1.02625 0.89393 0.62291 0.0
C1061 C 0.05425 0.92781 0.6251 0.0
C1062 C 1.01965 0.87687 0.66344 0.0
C1063 C 0.98876 0.8403 0.63282 0.0
N1064 N 0.04331 0.91081 0.63648 0.0
N1065 N 0.99918 0.85794 0.622 0.0
H1066 H 0.55697 0.91869 0.01682 0.0
H1067 H 0.47041 0.86435 0.88611 0.0
H1068 H 0.57396 0.88098 0.9467 0.0
H1069 H 0.45234 0.90823 0.95112 0.0
H1070 H 0.50841 0.86962 0.90946 0.0
H1071 H 0.51833 0.91472 0.99437 0.0
C1072 C 0.55264 0.90963 0.99682 0.0
C1073 C 0.56878 0.90012 0.98372 0.0
C1074 C 0.49619 0.87817 0.91867 0.0
C1075 C 0.52484 0.89551 0.95808 0.0
C1076 C 0.47444 0.87504 0.90536 0.0
C1077 C 0.4582 0.88585 0.91668 0.0
C1078 C 0.5018 0.89214 0.9436 0.0
C1079 C 0.46445 0.89979 0.94157 0.0
C1080 C 0.53063 0.9074 0.98402 0.0
C1081 C 0.56223 0.88862 0.95774 0.0
N1082 N 0.48577 0.9025 0.95427 0.0
N1083 N 0.54085 0.88662 0.9459 0.0
H1084 H 0.48394 0.21333 0.15029 0.0
H1085 H 0.53376 0.13031 0.04665 0.0
H1086 H 0.47596 0.21671 0.06784 0.0
H1087 H 0.55438 0.14438 0.13013 0.0
H1088 H 0.50278 0.15211 0.05267 0.0
H1089 H 0.49731 0.17629 0.14106 0.0
C1090 C 0.48412 0.20588 0.13012 0.0
C1091 C 0.47981 0.2187 0.10994 0.0
C1092 C 0.514 0.15014 0.06962 0.0
C1093 C 0.4957 0.17672 0.09939 0.0
C1094 C 0.53173 0.13797 0.06616 0.0
C1095 C 0.54692 0.13618 0.08784 0.0
C1096 C 0.51141 0.16018 0.09495 0.0
C1097 C 0.54339 0.14591 0.1128 0.0
C1098 C 0.49206 0.18484 0.1249 0.0
C1099 C 0.47994 0.20783 0.08414 0.0
N1100 N 0.52608 0.15755 0.11564 0.0
N1101 N 0.48854 0.1878 0.07964 0.0
H1102 H 0.19439 0.37295 0.45626 0.0
H1103 H 0.1705 0.27003 0.3317 0.0
H1104 H 0.12938 0.32933 0.42938 0.0
H1105 H 0.22422 0.32963 0.34261 0.0
H1106 H 0.15804 0.28704 0.37219 0.0
H1107 H 0.20891 0.35218 0.4194 0.0
C1108 C 0.18332 0.35877 0.44287 0.0
C1109 C 0.16066 0.35294 0.44564 0.0
C1110 C 0.17251 0.29639 0.36561 0.0
C1111 C 0.17699 0.32924 0.40376 0.0
C1112 C 0.17951 0.28674 0.34257 0.0
C1113 C 0.19797 0.29883 0.33361 0.0
C1114 C 0.18443 0.31793 0.37994 0.0
C1115 C 0.20947 0.32019 0.34855 0.0
C1116 C 0.19152 0.34706 0.42179 0.0
C1117 C 0.14693 0.33452 0.42772 0.0
N1118 N 0.20254 0.32907 0.371 0.0
N1119 N 0.15528 0.32335 0.40751 0.0
H1120 H 0.99469 0.11072 0.27518 0.0
H1121 H 0.99136 0.07698 0.11939 0.0
H1122 H 0.93377 0.07987 0.22288 0.0
H1123 H 0.05352 0.09469 0.17276 0.0
H1124 H 0.97051 0.08136 0.1561 0.0
H1125 H 1.01568 0.10919 0.23812 0.0
C1126 C 0.98546 0.10417 0.25578 0.0
C1127 C 0.96199 0.09586 0.25267 0.0
C1128 C 0.98867 0.08434 0.16001 0.0
C1129 C 0.98679 0.09346 0.20909 0.0
C1130 C 1.00088 0.08183 0.13884 0.0
C1131 C 1.02469 0.0853 0.14235 0.0
C1132 C 0.9999 0.09076 0.18575 0.0
C1133 C 0.03538 0.09168 0.16855 0.0
C1134 C 0.9977 0.10304 0.2345 0.0
C1135 C 0.95153 0.08713 0.22669 0.0
N1136 N 1.02301 0.09424 0.18898 0.0
N1137 N 0.9639 0.08613 0.20621 0.0
H1138 H 0.3582 0.7168 0.48275 0.0
H1139 H 0.32421 0.83068 0.42933 0.0
H1140 H 0.3691 0.78632 0.5284 0.0
H1141 H 0.31305 0.76245 0.38069 0.0
H1142 H 0.33877 0.81358 0.46627 0.0
H1143 H 0.34063 0.73212 0.44533 0.0
C1144 C 0.357 0.73524 0.48489 0.0
C1145 C 0.36518 0.75026 0.50881 0.0
C1146 C 0.333 0.80224 0.4476 0.0
C1147 C 0.34492 0.76787 0.46622 0.0
C1148 C 0.32452 0.81202 0.42645 0.0
C1149 C 0.31734 0.79807 0.40174 0.0
C1150 C 0.33451 0.77825 0.44421 0.0
C1151 C 0.31829 0.77394 0.39935 0.0
C1152 C 0.34688 0.74397 0.46357 0.0
C1153 C 0.36304 0.774 0.51045 0.0
N1154 N 0.32687 0.76484 0.42023 0.0
N1155 N 0.35318 0.78199 0.48958 0.0
H1156 H 0.58632 0.98776 0.75028 0.0
H1157 H 0.6178 0.08048 0.66168 0.0
H1158 H 0.6547 0.02184 0.75255 0.0
H1159 H 0.56146 0.02398 0.63462 0.0
H1160 H 0.63108 0.05906 0.69541 0.0
H1161 H 0.57652 0.9989 0.7075 0.0
C1162 C 0.59946 0.99679 0.74127 0.0
C1163 C 0.62139 1.0038 0.75493 0.0
C1164 C 0.61591 0.0512 0.682 0.0
C1165 C 0.61006 1.01758 0.70663 0.0
C1166 C 0.60817 0.06353 0.66287 0.0
C1167 C 0.58835 0.05407 0.64546 0.0
C1168 C 0.60349 0.02945 0.6843 0.0
C1169 C 0.57674 0.03192 0.64777 0.0
C1170 C 0.59382 1.00332 0.71696 0.0
C1171 C 0.63768 1.01584 0.74258 0.0
N1172 N 0.58428 0.0205 0.66714 0.0
N1173 N 0.63156 0.02289 0.71945 0.0
H1174 H 0.28746 0.48234 0.07655 0.0
H1175 H 0.36509 0.44144 0.98104 0.0
H1176 H 0.35373 0.52198 0.07912 0.0
H1177 H 0.29297 0.42551 0.96084 0.0
H1178 H 0.36132 0.47409 0.01429 0.0
H1179 H 0.28802 0.46475 0.03145 0.0
C1180 C 0.30183 0.48784 0.06716 0.0
C1181 C 0.32054 0.50351 0.08117 0.0
C1182 C 0.34636 0.46382 1.00212 0.0
C1183 C 0.32182 0.4829 0.03028 0.0
C1184 C 0.34851 0.4451 0.98337 0.0
C1185 C 0.32929 0.4306 0.96861 0.0
C1186 C 0.32484 0.46763 1.00642 0.0
C1187 C 0.30819 0.43623 0.97195 0.0
C1188 C 0.30221 0.47783 0.04149 0.0
C1189 C 0.33896 0.51001 0.0686 0.0
N1190 N 0.30649 0.45403 0.99092 0.0
N1191 N 0.33941 0.49916 0.04392 0.0
H1192 H 0.92525 0.10486 0.41073 0.0
H1193 H 0.03397 0.06013 0.47683 0.0
H1194 H 0.9754 0.07979 0.36816 0.0
H1195 H 0.99442 0.10019 0.52258 0.0
H1196 H 1.01035 0.06425 0.43702 0.0
H1197 H 0.9477 0.10038 0.45179 0.0
C1198 C 0.94082 0.09826 0.40991 0.0
C1199 C 0.94829 0.09269 0.38572 0.0
C1200 C 1.00677 0.07218 0.45573 0.0
C1201 C 0.97417 0.08742 0.43281 0.0
C1202 C 1.02031 0.06979 0.4786 0.0
C1203 C 1.01638 0.07985 0.50335 0.0
C1204 C 0.98877 0.08453 0.45726 0.0
C1205 C 0.99827 0.09219 0.50405 0.0
C1206 C 0.95372 0.0958 0.43342 0.0
C1207 C 0.96879 0.08434 0.38613 0.0
N1208 N 0.98517 0.09409 0.48149 0.0
N1209 N 0.98082 0.08193 0.40906 0.0
H1210 H 0.39153 0.80998 0.64484 0.0
H1211 H 0.34941 0.78992 0.77987 0.0
H1212 H 0.36999 0.73982 0.65934 0.0
H1213 H 0.33467 0.84622 0.73948 0.0
H1214 H 0.36676 0.77392 0.74273 0.0
H1215 H 0.38196 0.82588 0.68701 0.0
C1216 C 0.3855 0.79784 0.6573 0.0
C1217 C 0.38156 0.77343 0.64833 0.0
C1218 C 0.35996 0.78991 0.74218 0.0
C1219 C 0.37023 0.79178 0.69689 0.0
C1220 C 0.35019 0.79921 0.76343 0.0
C1221 C 0.34063 0.81961 0.76289 0.0
C1222 C 0.36079 0.80141 0.72046 0.0
C1223 C 0.34188 0.83057 0.74083 0.0
C1224 C 0.37977 0.807 0.68127 0.0
C1225 C 0.37357 0.75869 0.66545 0.0
N1226 N 0.35186 0.82145 0.72065 0.0
N1227 N 0.36795 0.76809 0.68882 0.0
H1228 H 0.59849 0.01987 0.87308 0.0
H1229 H 0.6206 0.06917 0.02648 0.0
H1230 H 0.66209 0.02594 0.92214 0.0
H1231 H 0.55601 0.06244 0.97908 0.0
H1232 H 0.63595 0.05442 0.98805 0.0
H1233 H 0.58266 0.03593 0.91107 0.0
C1234 C 0.60915 0.02455 0.89187 0.0
C1235 C 0.6317 0.02158 0.89442 0.0
C1236 C 0.61846 0.05629 0.9859 0.0
C1237 C 0.61362 0.04007 0.93805 0.0
C1238 C 0.6096 0.06483 1.00791 0.0
C1239 C 0.58687 0.06717 1.00612 0.0
C1240 C 0.60461 0.04996 0.96164 0.0
C1241 C 0.57362 0.06112 0.9814 0.0
C1242 C 0.60007 0.03375 0.91355 0.0
C1243 C 0.64464 0.02793 0.91925 0.0
N1244 N 0.58268 0.05271 0.96013 0.0
N1245 N 0.63542 0.03688 0.94007 0.0
H1246 H 0.3022 0.45999 0.20598 0.0
H1247 H 0.36719 0.37142 0.27556 0.0
H1248 H 0.37039 0.45302 0.19785 0.0
H1249 H 0.29528 0.36698 0.26633 0.0
H1250 H 0.36993 0.40413 0.25106 0.0
H1251 H 0.30098 0.4301 0.23456 0.0
C1252 C 0.31713 0.45273 0.21103 0.0
C1253 C 0.33651 0.45901 0.20001 0.0
C1254 C 0.35356 0.39589 0.25427 0.0
C1255 C 0.33508 0.42449 0.23158 0.0
C1256 C 0.35197 0.37709 0.26802 0.0
C1257 C 0.33101 0.36655 0.27302 0.0
C1258 C 0.33401 0.40424 0.24567 0.0
C1259 C 0.31178 0.37462 0.26292 0.0
C1260 C 0.31634 0.43543 0.22691 0.0
C1261 C 0.35527 0.44872 0.20636 0.0
N1262 N 0.31378 0.39314 0.24991 0.0
N1263 N 0.35406 0.43182 0.22164 0.0
H1264 H 0.16578 0.93542 0.08153 0.0
H1265 H 0.14349 0.06794 0.11789 0.0
H1266 H 0.21926 0.99548 0.10292 0.0
H1267 H 0.09139 1.00656 0.10008 0.0
H1268 H 0.17176 0.04209 0.11574 0.0
H1269 H 0.13863 0.96128 0.09053 0.0
C1270 C 0.17188 0.95401 0.08825 0.0
C1271 C 0.19497 0.96313 0.0914 0.0
C1272 C 0.15414 0.03427 0.11267 0.0
C1273 C 0.1637 0.9932 0.10174 0.0
C1274 C 0.13797 0.04907 0.11422 0.0
C1275 C 0.1149 0.03952 0.10926 0.0
C1276 C 0.14726 1.00968 0.10605 0.0
C1277 C 0.10889 1.01483 0.10401 0.0
C1278 C 0.15631 0.96885 0.09341 0.0
C1279 C 0.20169 0.98752 0.10017 0.0
N1280 N 0.12482 1.00092 0.10236 0.0
N1281 N 0.18622 1.00162 0.10488 0.0
H1282 H 0.72554 0.62522 0.01845 0.0
H1283 H 0.59377 0.60656 0.01593 0.0
H1284 H 0.68666 0.66984 0.98062 0.0
H1285 H 0.6394 0.61366 0.08758 0.0
H1286 H 0.62614 0.61653 0.99306 0.0
H1287 H 0.69166 0.60704 0.03379 0.0
C1288 C 0.70977 0.63079 0.01283 0.0
C1289 C 0.70886 0.64918 0.99843 0.0
C1290 C 0.62893 0.61551 0.01369 0.0
C1291 C 0.67029 0.62823 0.01551 0.0
C1292 C 0.61063 0.60977 0.02666 0.0
C1293 C 0.61414 0.60949 0.05359 0.0
C1294 C 0.65069 0.62014 0.02772 0.0
C1295 C 0.63615 0.6139 0.0668 0.0
C1296 C 0.69057 0.62049 0.02169 0.0
C1297 C 0.68804 0.65585 0.99188 0.0
N1298 N 0.65369 0.61897 0.05369 0.0
N1299 N 0.66947 0.64537 1.00053 0.0
H1300 H 0.76233 0.52175 0.34153 0.0
H1301 H 0.7446 0.37826 0.31732 0.0
H1302 H 0.69794 0.47813 0.33814 0.0
H1303 H 0.80999 0.42207 0.33451 0.0
H1304 H 0.72739 0.41384 0.32204 0.0
H1305 H 0.77953 0.48616 0.33643 0.0
C1306 C 0.75162 0.50479 0.33964 0.0
C1307 C 0.72829 0.50367 0.34036 0.0
C1308 C 0.74552 0.41584 0.32472 0.0
C1309 C 0.74852 0.4615 0.33415 0.0
C1310 C 0.75553 0.39526 0.3219 0.0
C1311 C 0.77916 0.39643 0.32529 0.0
C1312 C 0.75887 0.43858 0.33087 0.0
C1313 C 0.79184 0.41962 0.33149 0.0
C1314 C 0.76162 0.4842 0.33674 0.0
C1315 C 0.71586 0.48053 0.33779 0.0
N1316 N 0.78171 0.43931 0.33391 0.0
N1317 N 0.72594 0.46083 0.33476 0.0
H1318 H 0.83111 0.41689 0.54733 0.0
H1319 H 0.89568 0.55031 0.57132 0.0
H1320 H 0.80317 0.47613 0.58002 0.0
H1321 H 0.92234 0.49164 0.53504 0.0
H1322 H 0.86223 0.52315 0.57626 0.0
H1323 H 0.86531 0.44378 0.54432 0.0
C1324 C 0.83216 0.43551 0.55396 0.0
C1325 C 0.81415 0.44422 0.56389 0.0
C1326 C 0.87539 0.51621 0.56721 0.0
C1327 C 0.85328 0.47513 0.56039 0.0
C1328 C 0.89452 0.5317 0.56448 0.0
C1329 C 0.91178 0.52324 0.55266 0.0
C1330 C 0.87352 0.49205 0.55815 0.0
C1331 C 0.90929 0.49897 0.54391 0.0
C1332 C 0.8517 0.45087 0.55219 0.0
C1333 C 0.81655 0.46856 0.57218 0.0
N1334 N 0.89053 0.48423 0.54685 0.0
N1335 N 0.83571 0.48314 0.57019 0.0
H1336 H 0.40432 0.17243 0.30093 0.0
H1337 H 0.38654 0.30483 0.33914 0.0
H1338 H 0.45713 0.22852 0.34135 0.0
H1339 H 0.33781 0.25291 0.28575 0.0
H1340 H 0.41274 0.27733 0.33924 0.0
H1341 H 0.37995 0.2013 0.29434 0.0
C1342 C 0.41089 0.19084 0.30825 0.0
C1343 C 0.43287 0.19799 0.32181 0.0
C1344 C 0.39642 0.2719 0.32728 0.0
C1345 C 0.40483 0.23124 0.3145 0.0
C1346 C 0.38143 0.28768 0.32722 0.0
C1347 C 0.35989 0.28128 0.31251 0.0
C1348 C 0.38983 0.24914 0.31279 0.0
C1349 C 0.35424 0.2587 0.29735 0.0
C1350 C 0.39692 0.20734 0.30444 0.0
C1351 C 0.44037 0.22213 0.33079 0.0
N1352 N 0.36899 0.24337 0.29812 0.0
N1353 N 0.42635 0.2378 0.32719 0.0
H1354 H 0.347 0.14868 0.4827 0.0
H1355 H 0.39594 0.04183 0.5341 0.0
H1356 H 0.30433 0.08509 0.49217 0.0
H1357 H 0.43336 0.11219 0.54125 0.0
H1358 H 0.36287 0.05479 0.51319 0.0
H1359 H 0.37981 0.13229 0.49694 0.0
C1360 C 0.34454 0.13111 0.48746 0.0
C1361 C 0.32291 0.11831 0.48655 0.0
C1362 C 0.37839 0.06729 0.51927 0.0
C1363 C 0.36044 0.09955 0.50322 0.0
C1364 C 0.39721 0.05998 0.53137 0.0
C1365 C 0.41751 0.07591 0.53936 0.0
C1366 C 0.38 0.09064 0.51506 0.0
C1367 C 0.41825 0.09914 0.53499 0.0
C1368 C 0.36329 0.12181 0.49573 0.0
C1369 C 0.32074 0.09557 0.49275 0.0
N1370 N 0.39981 0.10575 0.52314 0.0
N1371 N 0.33932 0.08696 0.5011 0.0
H1372 H 0.75471 0.62944 0.34559 0.0
H1373 H 0.74631 0.76548 0.33734 0.0
H1374 H 0.6999 0.66388 0.36485 0.0
H1375 H 0.81089 0.74424 0.33969 0.0
H1376 H 0.72971 0.72655 0.34419 0.0
H1377 H 0.77597 0.66829 0.34083 0.0
C1378 C 0.74707 0.64489 0.34908 0.0
C1379 C 0.72504 0.64258 0.35573 0.0
C1380 C 0.74756 0.73013 0.34336 0.0
C1381 C 0.74956 0.6878 0.34972 0.0
C1382 C 0.75721 0.75269 0.3394 0.0
C1383 C 0.78031 0.75888 0.33802 0.0
C1384 C 0.76067 0.71249 0.34568 0.0
C1385 C 0.7931 0.74082 0.34083 0.0
C1386 C 0.75931 0.66726 0.34625 0.0
C1387 C 0.71653 0.6639 0.35964 0.0
N1388 N 0.78318 0.71864 0.3443 0.0
N1389 N 0.72848 0.68493 0.35645 0.0
H1390 H 0.92311 0.58913 0.82309 0.0
H1391 H 0.90367 0.47177 0.88553 0.0
H1392 H 0.97542 0.5655 0.87043 0.0
H1393 H 0.85339 0.49085 0.83108 0.0
H1394 H 0.93006 0.5063 0.88051 0.0
H1395 H 0.89732 0.55335 0.82568 0.0
C1396 C 0.92925 0.57639 0.83393 0.0
C1397 C 0.95152 0.58043 0.84662 0.0
C1398 C 0.91327 0.50294 0.86961 0.0
C1399 C 0.92194 0.53943 0.84978 0.0
C1400 C 0.89815 0.48332 0.87262 0.0
C1401 C 0.87625 0.4785 0.85883 0.0
C1402 C 0.90645 0.51801 0.8528 0.0
C1403 C 0.87015 0.49383 0.84198 0.0
C1404 C 0.91448 0.55595 0.83538 0.0
C1405 C 0.95844 0.56321 0.86032 0.0
N1406 N 0.88513 0.51296 0.83954 0.0
N1407 N 0.94369 0.54355 0.86164 0.0
H1408 H 0.04397 0.89494 0.24924 0.0
H1409 H 0.04743 0.92115 0.10317 0.0
H1410 H 0.06476 0.84948 0.1877 0.0
H1411 H 0.03561 0.97259 0.16563 0.0
H1412 H 0.05385 0.895 0.1345 0.0
H1413 H 0.04126 0.92413 0.21994 0.0
C1414 C 0.04828 0.89123 0.22977 0.0
C1415 C 0.05453 0.86965 0.22095 0.0
C1416 C 0.04991 0.91204 0.14144 0.0
C1417 C 0.05113 0.90275 0.18718 0.0
C1418 C 0.04634 0.92711 0.12349 0.0
C1419 C 0.04096 0.94929 0.13156 0.0
C1420 C 0.04802 0.91894 0.16786 0.0
C1421 C 0.03936 0.95559 0.15825 0.0
C1422 C 0.04661 0.90783 0.21299 0.0
C1423 C 0.05977 0.86577 0.1954 0.0
N1424 N 0.04281 0.94052 0.17537 0.0
N1425 N 0.0578 0.88199 0.17948 0.0
H1426 H 0.98962 0.30909 0.89047 0.0
H1427 H 0.88672 0.35603 0.81384 0.0
H1428 H 1.00115 0.37346 0.85949 0.0
H1429 H 0.88029 0.31297 0.87357 0.0
H1430 H 0.92791 0.35713 0.82083 0.0
H1431 H 0.94947 0.30428 0.87418 0.0
C1432 C 0.98388 0.32175 0.87921 0.0
C1433 C 0.99922 0.34131 0.8757 0.0
C1434 C 0.91741 0.34714 0.83209 0.0
C1435 C 0.95235 0.33635 0.85756 0.0
C1436 C 0.89381 0.34629 0.82789 0.0
C1437 C 0.87976 0.33407 0.84285 0.0
C1438 C 0.92713 0.3353 0.85105 0.0
C1439 C 0.89024 0.32239 0.86133 0.0
C1440 C 0.96076 0.3192 0.87026 0.0
C1441 C 0.99027 0.35766 0.86195 0.0
N1442 N 0.91296 0.32319 0.86473 0.0
N1443 N 0.96756 0.35487 0.85348 0.0
H1444 H 0.53198 0.25906 0.66661 0.0
H1445 H 0.54154 0.12402 0.66172 0.0
H1446 H 0.55265 0.23388 0.73763 0.0
H1447 H 0.55722 0.1642 0.60132 0.0
H1448 H 0.53625 0.16026 0.68915 0.0
H1449 H 0.52997 0.21993 0.6419 0.0
C1450 C 0.53552 0.24507 0.67712 0.0
C1451 C 0.5426 0.2498 0.70423 0.0
C1452 C 0.54076 0.16101 0.66985 0.0
C1453 C 0.54072 0.20482 0.6758 0.0
C1454 C 0.54372 0.1404 0.65417 0.0
C1455 C 0.54992 0.14113 0.62922 0.0
C1456 C 0.54341 0.18229 0.66016 0.0
C1457 C 0.5526 0.16282 0.62046 0.0
C1458 C 0.53458 0.22278 0.66294 0.0
C1459 C 0.54697 0.23095 0.71679 0.0
N1460 N 0.54919 0.18242 0.63579 0.0
N1461 N 0.54622 0.20925 0.7024 0.0
H1462 H 0.64885 0.85522 0.42159 0.0
H1463 H 0.72856 0.84227 0.30958 0.0
H1464 H 0.62223 0.8404 0.3396 0.0
H1465 H 0.75134 0.84366 0.39115 0.0
H1466 H 0.69045 0.84413 0.31979 0.0
H1467 H 0.68648 0.85341 0.41057 0.0
C1468 C 0.65081 0.85157 0.40117 0.0
C1469 C 0.63192 0.84794 0.38159 0.0
C1470 C 0.70376 0.84409 0.3355 0.0
C1471 C 0.67591 0.84602 0.36862 0.0
C1472 C 0.7257 0.84314 0.3297 0.0
C1473 C 0.74359 0.84286 0.34947 0.0
C1474 C 0.69931 0.845 0.36142 0.0
C1475 C 0.73837 0.84385 0.37512 0.0
C1476 C 0.6725 0.85051 0.39488 0.0
C1477 C 0.63601 0.84327 0.3555 0.0
N1478 N 0.71698 0.84493 0.38027 0.0
N1479 N 0.65739 0.84256 0.34984 0.0
H1480 H 0.11307 0.31624 0.50223 0.0
H1481 H 0.08586 0.24308 0.61592 0.0
H1482 H 0.1206 0.34725 0.58369 0.0
H1483 H 0.06674 0.21506 0.53374 0.0
H1484 H 0.10206 0.28053 0.60466 0.0
H1485 H 0.10036 0.27783 0.51378 0.0
C1486 C 0.11231 0.31497 0.52257 0.0
C1487 C 0.11773 0.33507 0.54199 0.0
C1488 C 0.09431 0.26618 0.58909 0.0
C1489 C 0.10305 0.29121 0.55526 0.0
C1490 C 0.08487 0.24485 0.59551 0.0
C1491 C 0.07479 0.22592 0.57575 0.0
C1492 C 0.09375 0.26861 0.56272 0.0
C1493 C 0.07452 0.2291 0.54961 0.0
C1494 C 0.10492 0.29305 0.52912 0.0
C1495 C 0.11641 0.33231 0.56802 0.0
N1496 N 0.08385 0.25005 0.54386 0.0
N1497 N 0.1091 0.31081 0.57387 0.0
H1498 H 0.54979 0.26501 0.18721 0.0
H1499 H 0.6815 0.3151 0.21612 0.0
H1500 H 0.58335 0.30835 0.13841 0.0
H1501 H 0.64731 0.26486 0.25733 0.0
H1502 H 0.64602 0.31394 0.18797 0.0
H1503 H 0.58571 0.26519 0.21295 0.0
C1504 C 0.56479 0.27453 0.18182 0.0
C1505 C 0.56355 0.28684 0.16071 0.0
C1506 C 0.64631 0.30316 0.20316 0.0
C1507 C 0.60496 0.28722 0.1904 0.0
C1508 C 0.66648 0.30398 0.21939 0.0
C1509 C 0.66732 0.29009 0.23915 0.0
C1510 C 0.62684 0.28844 0.20683 0.0
C1511 C 0.64747 0.2757 0.24222 0.0
C1512 C 0.58535 0.2746 0.19657 0.0
C1513 C 0.58359 0.29861 0.15451 0.0
N1514 N 0.62807 0.2753 0.22627 0.0
N1515 N 0.60353 0.29868 0.16947 0.0
H1516 H 0.63231 0.96326 0.97375 0.0
H1517 H 0.59137 0.02581 0.1016 0.0
H1518 H 0.65126 0.94659 0.05021 0.0
H1519 H 0.55804 1.01743 0.02223 0.0
H1520 H 0.62096 1.00579 0.085 0.0
H1521 H 0.61417 0.99425 0.99373 0.0
C1522 C 0.63314 0.96647 0.9948 0.0
C1523 C 0.64275 0.95189 0.01025 0.0
C1524 C 0.60717 1.00859 0.07138 0.0
C1525 C 0.62163 0.98696 0.03317 0.0
C1526 C 0.59031 0.01983 0.08082 0.0
C1527 C 0.57208 0.02292 0.06336 0.0
C1528 C 0.60582 1.00099 0.04433 0.0
C1529 C 0.57153 1.01509 0.03655 0.0
C1530 C 0.62262 0.98403 1.00619 0.0
C1531 C 0.64355 0.95709 0.03751 0.0
N1532 N 0.58811 1.00459 0.02794 0.0
N1533 N 0.63268 0.97392 0.04811 0.0
H1534 H 0.97993 0.76522 0.76315 0.0
H1535 H 0.89363 0.83482 0.82828 0.0
H1536 H 0.92427 0.78698 0.71964 0.0
H1537 H 0.93469 0.79616 0.87258 0.0
H1538 H 0.90673 0.81863 0.78876 0.0
H1539 H 0.9644 0.77553 0.8035 0.0
C1540 C 0.96421 0.77171 0.762 0.0
C1541 C 0.95352 0.77554 0.73801 0.0
C1542 C 0.91308 0.81377 0.80709 0.0
C1543 C 0.93611 0.78795 0.7841 0.0
C1544 C 0.90589 0.82335 0.82982 0.0
C1545 C 0.91348 0.81727 0.85395 0.0
C1546 C 0.92816 0.79802 0.80827 0.0
C1547 C 0.92865 0.80153 0.85444 0.0
C1548 C 0.95544 0.7777 0.78506 0.0
C1549 C 0.93317 0.78388 0.73767 0.0
N1550 N 0.93567 0.79256 0.83191 0.0
N1551 N 0.92534 0.79017 0.7604 0.0
H1552 H 0.14002 0.07319 0.88624 0.0
H1553 H 0.13228 0.06477 0.03823 0.0
H1554 H 0.19493 0.0627 0.94071 0.0
H1555 H 0.07726 0.08024 0.98769 0.0
H1556 H 0.15409 0.06269 1.00215 0.0
H1557 H 0.11665 0.07499 0.92144 0.0
C1558 C 0.14735 0.07135 0.90559 0.0
C1559 C 0.16989 0.06785 0.91004 0.0
C1560 C 0.13725 0.06645 0.99865 0.0
C1561 C 0.14245 0.06972 0.95129 0.0
C1562 C 0.12453 0.0676 0.01945 0.0
C1563 C 0.10249 0.07266 0.01658 0.0
C1564 C 0.12835 0.07037 0.9739 0.0
C1565 C 0.09392 0.07608 0.99128 0.0
C1566 C 0.1338 0.07235 0.92583 0.0
C1567 C 0.17791 0.06553 0.93589 0.0
N1568 N 0.10677 0.07493 0.97118 0.0
N1569 N 0.16436 0.06645 0.95517 0.0
H1570 H 0.77107 0.43134 0.66181 0.0
H1571 H 0.80228 0.32773 0.7344 0.0
H1572 H 0.74483 0.35792 0.63344 0.0
H1573 H 0.80001 0.39485 0.77988 0.0
H1574 H 0.78656 0.34127 0.6953 0.0
H1575 H 0.785 0.42107 0.70437 0.0
C1576 C 0.76764 0.41323 0.66473 0.0
C1577 C 0.75684 0.39546 0.64393 0.0
C1578 C 0.7896 0.35312 0.71381 0.0
C1579 C 0.77346 0.38357 0.69194 0.0
C1580 C 0.79883 0.34547 0.73615 0.0
C1581 C 0.80253 0.36013 0.76057 0.0
C1582 C 0.78423 0.37577 0.7156 0.0
C1583 C 0.79745 0.38293 0.76148 0.0
C1584 C 0.77584 0.40735 0.68888 0.0
C1585 C 0.75324 0.37221 0.64875 0.0
N1586 N 0.78861 0.39009 0.73933 0.0
N1587 N 0.7618 0.36695 0.67194 0.0
H1588 H 0.52477 0.14432 0.39412 0.0
H1589 H 0.52399 0.12943 0.54147 0.0
H1590 H 0.4657 0.155 0.42883 0.0
H1591 H 0.54246 0.07657 0.48586 0.0
H1592 H 0.50983 0.14829 0.50496 0.0
H1593 H 0.53917 0.12907 0.43255 0.0
C1594 C 0.51482 0.14364 0.40985 0.0
C1595 C 0.49371 0.15061 0.4079 0.0
C1596 C 0.51716 0.13267 0.5009 0.0
C1597 C 0.5107 0.13377 0.45251 0.0
C1598 C 0.52541 0.12208 0.52162 0.0
C1599 C 0.53459 0.10159 0.51655 0.0
C1600 C 0.5188 0.12307 0.47514 0.0
C1601 C 0.53564 0.09244 0.49053 0.0
C1602 C 0.52314 0.13492 0.4318 0.0
C1603 C 0.48195 0.14967 0.42937 0.0
N1604 N 0.5281 0.10339 0.47082 0.0
N1605 N 0.49063 0.14144 0.45088 0.0
H1606 H 0.79686 0.66457 0.07236 0.0
H1607 H 0.84998 0.7797 0.17206 0.0
H1608 H 0.82561 0.73104 0.05319 0.0
H1609 H 0.80828 0.71971 0.19141 0.0
H1610 H 0.85536 0.75546 0.13223 0.0
H1611 H 0.81433 0.67835 0.11798 0.0
C1612 C 0.80737 0.68178 0.07764 0.0
C1613 C 0.80928 0.69706 0.05939 0.0
C1614 C 0.84545 0.74743 0.14549 0.0
C1615 C 0.82923 0.71276 0.111 0.0
C1616 C 0.84247 0.76125 0.16837 0.0
C1617 C 0.82792 0.75192 0.18457 0.0
C1618 C 0.83348 0.72433 0.1386 0.0
C1619 C 0.81884 0.72783 0.17882 0.0
C1620 C 0.81731 0.68963 0.1036 0.0
C1621 C 0.82322 0.71906 0.06698 0.0
N1622 N 0.82127 0.71497 0.1559 0.0
N1623 N 0.83238 0.7264 0.09232 0.0
H1624 H 0.15745 0.02505 0.76204 0.0
H1625 H 0.09674 0.1006 0.6697 0.0
H1626 H 0.17375 0.10041 0.7711 0.0
H1627 H 0.10378 0.03026 0.6381 0.0
H1628 H 0.12208 0.09883 0.7091 0.0
H1629 H 0.13642 0.0243 0.71818 0.0
C1630 C 0.15743 0.04133 0.75444 0.0
C1631 C 0.16796 0.06281 0.77019 0.0
C1632 C 0.11815 0.08372 0.69359 0.0
C1633 C 0.14273 0.0622 0.72062 0.0
C1634 C 0.10348 0.08467 0.67104 0.0
C1635 C 0.09794 0.06557 0.65031 0.0
C1636 C 0.12725 0.06333 0.6961 0.0
C1637 C 0.10753 0.04548 0.65344 0.0
C1638 C 0.1451 0.04093 0.72954 0.0
C1639 C 0.16636 0.0834 0.75958 0.0
N1640 N 0.12148 0.04479 0.67591 0.0
N1641 N 0.15383 0.08261 0.73591 0.0
H1642 H 0.74242 0.42534 0.48488 0.0
H1643 H 0.80231 0.32264 0.42376 0.0
H1644 H 0.74997 0.36493 0.52147 0.0
H1645 H 0.76912 0.36448 0.37535 0.0
H1646 H 0.78599 0.34005 0.461 0.0
H1647 H 0.75475 0.4057 0.44555 0.0
C1648 C 0.74652 0.40796 0.48465 0.0
C1649 C 0.74522 0.39691 0.50672 0.0
C1650 C 0.78211 0.34526 0.44216 0.0
C1651 C 0.75975 0.37449 0.46191 0.0
C1652 C 0.79138 0.33526 0.42087 0.0
C1653 C 0.78701 0.34193 0.39629 0.0
C1654 C 0.76871 0.36251 0.43912 0.0
C1655 C 0.77285 0.35861 0.39384 0.0
C1656 C 0.75356 0.39674 0.46219 0.0
C1657 C 0.75083 0.37432 0.50516 0.0
N1658 N 0.76446 0.3685 0.41498 0.0
N1659 N 0.75804 0.36405 0.48341 0.0
H1660 H 0.46845 0.12683 0.25354 0.0
H1661 H 0.56925 0.09833 0.1771 0.0
H1662 H 0.53861 0.15118 0.28377 0.0
H1663 H 0.50186 0.09168 0.13674 0.0
H1664 H 0.55709 0.11547 0.21717 0.0
H1665 H 0.47903 0.11336 0.2106 0.0
C1666 C 0.48597 0.12992 0.25099 0.0
C1667 C 0.50267 0.13996 0.27235 0.0
C1668 C 0.54491 0.11022 0.19958 0.0
C1669 C 0.5149 0.12403 0.22374 0.0
C1670 C 0.55182 0.10017 0.17671 0.0
C1671 C 0.53657 0.09337 0.15349 0.0
C1672 C 0.52249 0.11338 0.19945 0.0
C1673 C 0.51421 0.09657 0.15421 0.0
C1674 C 0.49203 0.122 0.22659 0.0
C1675 C 0.52516 0.14327 0.26798 0.0
N1676 N 0.50782 0.10626 0.17681 0.0
N1677 N 0.53059 0.13507 0.24439 0.0
H1678 H 0.75759 0.72038 0.95776 0.0
H1679 H 0.77345 0.73988 0.81343 0.0
H1680 H 0.76536 0.66516 0.897 0.0
H1681 H 0.77329 0.79593 0.8769 0.0
H1682 H 0.76281 0.71123 0.84126 0.0
H1683 H 0.75496 0.74657 0.92586 0.0
C1684 C 0.75837 0.71363 0.93756 0.0
C1685 C 0.76211 0.69069 0.93004 0.0
C1686 C 0.76485 0.72977 0.84905 0.0
C1687 C 0.75942 0.72077 0.89346 0.0
C1688 C 0.77095 0.74615 0.83321 0.0
C1689 C 0.77452 0.77027 0.84308 0.0
C1690 C 0.76241 0.73757 0.87501 0.0
C1691 C 0.77086 0.77746 0.86868 0.0
C1692 C 0.75691 0.72865 0.91936 0.0
C1693 C 0.76264 0.68278 0.90359 0.0
N1694 N 0.76522 0.76113 0.8839 0.0
N1695 N 0.76171 0.69797 0.88625 0.0
H1696 H 0.9071 0.15842 0.07367 0.0
H1697 H 0.03565 0.15187 0.0588 0.0
H1698 H 0.95606 0.21906 0.06951 0.0
H1699 H 0.98436 0.09023 0.04897 0.0
H1700 H 1.00689 0.17656 0.06252 0.0
H1701 H 0.93514 0.1334 0.06588 0.0
C1702 C 0.92381 0.16658 0.07138 0.0
C1703 C 0.92912 0.19107 0.07246 0.0
C1704 C 1.00179 0.15765 0.05918 0.0
C1705 C 0.96154 0.16217 0.06319 0.0
C1706 C 1.01823 0.14347 0.05683 0.0
C1707 C 1.01249 0.11881 0.05321 0.0
C1708 C 0.97924 0.14729 0.05844 0.0
C1709 C 0.98961 0.10907 0.05124 0.0
C1710 C 0.93981 0.15217 0.06671 0.0
C1711 C 0.9511 0.20038 0.06903 0.0
N1712 N 0.97392 0.12328 0.05417 0.0
N1713 N 0.96641 0.186 0.06464 0.0
H1714 H 0.41129 0.48181 0.14147 0.0
H1715 H 0.50444 0.58298 0.11184 0.0
H1716 H 0.39881 0.55188 0.13755 0.0
H1717 H 0.50987 0.50985 0.10684 0.0
H1718 H 0.46869 0.57463 0.12907 0.0
H1719 H 0.45047 0.49468 0.13766 0.0
C1720 C 0.41694 0.50005 0.14008 0.0
C1721 C 0.40181 0.51575 0.13945 0.0
C1722 C 0.4779 0.56052 0.12451 0.0
C1723 C 0.44669 0.53061 0.13445 0.0
C1724 C 0.49826 0.56528 0.11476 0.0
C1725 C 0.50988 0.54698 0.10769 0.0
C1726 C 0.46938 0.53738 0.12734 0.0
C1727 C 0.50127 0.52439 0.1118 0.0
C1728 C 0.43932 0.50741 0.13785 0.0
C1729 C 0.41004 0.53925 0.13802 0.0
N1730 N 0.48154 0.52023 0.1212 0.0
N1731 N 0.43193 0.54595 0.13509 0.0
H1732 H 0.42403 0.67999 0.83107 0.0
H1733 H 0.31058 0.73792 0.81346 0.0
H1734 H 0.3588 0.63862 0.80075 0.0
H1735 H 0.37589 0.77864 0.84486 0.0
H1736 H 0.32745 0.7021 0.80859 0.0
H1737 H 0.40694 0.71561 0.83571 0.0
C1738 C 0.40611 0.67818 0.82517 0.0
C1739 C 0.39319 0.65556 0.81527 0.0
C1740 C 0.3382 0.7188 0.81664 0.0
C1741 C 0.37287 0.6976 0.8209 0.0
C1742 C 0.32846 0.73955 0.81954 0.0
C1743 C 0.34147 0.76205 0.82987 0.0
C1744 C 0.36152 0.71983 0.82393 0.0
C1745 C 0.36475 0.76215 0.83698 0.0
C1746 C 0.39624 0.69882 0.82795 0.0
C1747 C 0.36985 0.65522 0.80833 0.0
N1748 N 0.37378 0.74179 0.83391 0.0
N1749 N 0.36067 0.67552 0.81125 0.0
H1750 H 0.28566 0.73145 0.5515 0.0
H1751 H 0.23287 0.61942 0.60881 0.0
H1752 H 0.32465 0.68258 0.58073 0.0
H1753 H 0.19274 0.65908 0.56466 0.0
H1754 H 0.26671 0.64257 0.5988 0.0
H1755 H 0.25136 0.70546 0.55627 0.0
C1756 C 0.28704 0.71522 0.55876 0.0
C1757 C 0.30814 0.70932 0.56589 0.0
C1758 C 0.25049 0.64613 0.5912 0.0
C1759 C 0.26894 0.67959 0.57157 0.0
C1760 C 0.23112 0.63283 0.59681 0.0
C1761 C 0.20986 0.63736 0.58772 0.0
C1762 C 0.24865 0.66424 0.57653 0.0
C1763 C 0.20875 0.65525 0.57256 0.0
C1764 C 0.26744 0.70037 0.56145 0.0
C1765 C 0.30882 0.68797 0.57506 0.0
N1766 N 0.22786 0.66812 0.56758 0.0
N1767 N 0.28954 0.674 0.57783 0.0
H1768 H 0.71435 0.97358 0.80782 0.0
H1769 H 0.7486 0.86506 0.87045 0.0
H1770 H 0.66922 0.93468 0.85006 0.0
H1771 H 0.77231 0.88651 0.80166 0.0
H1772 H 0.72282 0.89377 0.86927 0.0
H1773 H 0.73903 0.94469 0.81083 0.0
C1774 C 0.70954 0.95885 0.8176 0.0
C1775 C 0.68958 0.95648 0.82851 0.0
C1776 C 0.73369 0.89203 0.85447 0.0
C1777 C 0.71816 0.92345 0.83258 0.0
C1778 C 0.74849 0.87582 0.85526 0.0
C1779 C 0.76244 0.87313 0.83594 0.0
C1780 C 0.73328 0.90588 0.83457 0.0
C1781 C 0.76167 0.88764 0.81676 0.0
C1782 C 0.72368 0.94236 0.81935 0.0
C1783 C 0.68433 0.93703 0.84111 0.0
N1784 N 0.74744 0.90329 0.81661 0.0
N1785 N 0.69863 0.92134 0.84301 0.0
H1786 H 0.76699 1.00992 0.7003 0.0
H1787 H 0.72079 0.1174 0.6479 0.0
H1788 H 0.81094 0.07142 0.68804 0.0
H1789 H 0.68482 0.04605 0.63787 0.0
H1790 H 0.7523 0.10585 0.67385 0.0
H1791 H 0.73495 0.0295 0.69217 0.0
C1792 C 0.76998 0.02795 0.69697 0.0
C1793 C 0.79155 0.03894 0.69439 0.0
C1794 C 0.73729 0.09293 0.66623 0.0
C1795 C 0.75493 0.06107 0.68401 0.0
C1796 C 0.71938 0.0994 0.65115 0.0
C1797 C 0.69993 0.08274 0.64051 0.0
C1798 C 0.73563 0.06974 0.67099 0.0
C1799 C 0.69907 0.05977 0.64595 0.0
C1800 C 0.75165 0.039 0.69194 0.0
C1801 C 0.79452 0.06231 0.69008 0.0
N1802 N 0.7166 0.05402 0.66069 0.0
N1803 N 0.77629 0.07243 0.68426 0.0
H1804 H 0.42715 0.5022 0.83168 0.0
H1805 H 0.30993 0.41008 0.81604 0.0
H1806 H 0.36498 0.52519 0.80834 0.0
H1807 H 0.37638 0.39713 0.8397 0.0
H1808 H 0.32683 0.45088 0.81191 0.0
H1809 H 0.4067 0.46402 0.83344 0.0
C1810 C 0.40907 0.49954 0.82679 0.0
C1811 C 0.39831 0.51803 0.81979 0.0
C1812 C 0.33768 0.43907 0.81797 0.0
C1813 C 0.37365 0.47184 0.82194 0.0
C1814 C 0.32798 0.41556 0.82031 0.0
C1815 C 0.34152 0.39949 0.82832 0.0
C1816 C 0.36126 0.4469 0.82361 0.0
C1817 C 0.36488 0.40829 0.83353 0.0
C1818 C 0.39719 0.47713 0.82786 0.0
C1819 C 0.37449 0.51207 0.81383 0.0
N1820 N 0.37368 0.43081 0.83113 0.0
N1821 N 0.36311 0.48974 0.81505 0.0
H1822 H 0.14736 0.60587 0.34015 0.0
H1823 H 0.27113 0.66014 0.31778 0.0
H1824 H 0.20239 0.56752 0.33935 0.0
H1825 H 0.21734 0.69998 0.32114 0.0
H1826 H 0.24662 0.62677 0.32848 0.0
H1827 H 0.17317 0.64133 0.3363 0.0
C1828 C 0.16487 0.60492 0.33946 0.0
C1829 C 0.17261 0.58355 0.33983 0.0
C1830 C 0.24018 0.64284 0.32699 0.0
C1831 C 0.20221 0.62406 0.33519 0.0
C1832 C 0.25422 0.66196 0.32098 0.0
C1833 C 0.24627 0.68289 0.31839 0.0
C1834 C 0.21796 0.64458 0.33042 0.0
C1835 C 0.22408 0.68407 0.32246 0.0
C1836 C 0.1796 0.62518 0.33717 0.0
C1837 C 0.19555 0.58348 0.33891 0.0
N1838 N 0.21068 0.66516 0.32817 0.0
N1839 N 0.20945 0.60333 0.33644 0.0
H1840 H 0.535 0.77604 0.44266 0.0
H1841 H 0.62991 0.72683 0.52608 0.0
H1842 H 0.60547 0.79915 0.44163 0.0
H1843 H 0.55954 0.69594 0.5138 0.0
H1844 H 0.62197 0.75197 0.49371 0.0
H1845 H 0.54406 0.74473 0.46611 0.0
C1846 C 0.55239 0.77402 0.44671 0.0
C1847 C 0.56949 0.78999 0.43991 0.0
C1848 C 0.60831 0.73957 0.498 0.0
C1849 C 0.58018 0.75475 0.46794 0.0
C1850 C 0.61282 0.72515 0.51651 0.0
C1851 C 0.59535 0.70931 0.5231 0.0
C1852 C 0.58614 0.7383 0.48597 0.0
C1853 C 0.57353 0.70821 0.51003 0.0
C1854 C 0.5576 0.75627 0.46035 0.0
C1855 C 0.59178 0.78691 0.44612 0.0
N1856 N 0.56957 0.72254 0.49233 0.0
N1857 N 0.59653 0.76989 0.46018 0.0
H1858 H 0.63287 0.3617 0.79416 0.0
H1859 H 0.73103 0.2856 0.80237 0.0
H1860 H 0.62019 0.28617 0.77902 0.0
H1861 H 0.74237 0.35852 0.83741 0.0
H1862 H 0.69049 0.28552 0.79529 0.0
H1863 H 0.67211 0.36128 0.81192 0.0
C1864 C 0.63806 0.34497 0.79555 0.0
C1865 C 0.6227 0.32392 0.78592 0.0
C1866 C 0.70168 0.3015 0.80496 0.0
C1867 C 0.6685 0.32327 0.80494 0.0
C1868 C 0.72496 0.30152 0.80918 0.0
C1869 C 0.74034 0.32195 0.82108 0.0
C1870 C 0.69331 0.3223 0.81196 0.0
C1871 C 0.73127 0.34218 0.82876 0.0
C1872 C 0.66067 0.34475 0.80539 0.0
C1873 C 0.631 0.30284 0.78705 0.0
N1874 N 0.70853 0.34191 0.82382 0.0
N1875 N 0.65316 0.30308 0.79599 0.0
H1876 H 0.0824 0.43332 0.91372 0.0
H1877 H 0.04658 0.49059 0.04816 0.0
H1878 H 0.05352 0.39412 0.969 0.0
H1879 H 0.0816 0.53242 0.99916 0.0
H1880 H 0.04721 0.45534 0.01733 0.0
H1881 H 0.08014 0.47006 0.94235 0.0
C1882 C 0.07536 0.43242 0.93166 0.0
C1883 C 0.06817 0.41058 0.93897 0.0
C1884 C 0.0548 0.47218 0.01322 0.0
C1885 C 0.06568 0.45239 0.97181 0.0
C1886 C 0.05446 0.49239 0.0309 0.0
C1887 C 0.06411 0.51457 0.02635 0.0
C1888 C 0.06482 0.47396 0.99059 0.0
C1889 C 0.07403 0.51569 1.00353 0.0
C1890 C 0.0742 0.45337 0.94806 0.0
C1891 C 0.05934 0.41048 0.96253 0.0
N1892 N 0.07413 0.49567 0.98649 0.0
N1893 N 0.0584 0.43094 0.97802 0.0
H1894 H 0.97176 0.81044 0.23933 0.0
H1895 H 0.89262 0.80926 0.35291 0.0
H1896 H 0.99823 0.80872 0.31912 0.0
H1897 H 0.8704 0.81607 0.27347 0.0
H1898 H 0.93047 0.80706 0.34156 0.0
H1899 H 0.93448 0.81046 0.25185 0.0
C1900 C 0.96983 0.80992 0.25956 0.0
C1901 C 0.9886 0.80953 0.27805 0.0
C1902 C 0.91728 0.80892 0.32656 0.0
C1903 C 0.94493 0.80965 0.29286 0.0
C1904 C 0.89551 0.8101 0.33303 0.0
C1905 C 0.87783 0.81278 0.31418 0.0
C1906 C 0.92174 0.81035 0.30093 0.0
C1907 C 0.88309 0.81393 0.2888 0.0
C1908 C 0.94831 0.80999 0.26675 0.0
C1909 C 0.9845 0.80896 0.30401 0.0
N1910 N 0.90426 0.81272 0.28305 0.0
N1911 N 0.9633 0.80906 0.31057 0.0
H1912 H 0.4961 0.32939 0.09351 0.0
H1913 H 0.59041 0.44514 0.12155 0.0
H1914 H 0.52945 0.36132 0.17096 0.0
H1915 H 0.54565 0.42168 0.04857 0.0
H1916 H 0.57173 0.41177 0.1388 0.0
H1917 H 0.51709 0.36091 0.07576 0.0
C1918 C 0.50775 0.34317 0.10681 0.0
C1919 C 0.51099 0.34285 0.13375 0.0
C1920 C 0.56616 0.41387 0.11894 0.0
C1921 C 0.53529 0.37881 0.11353 0.0
C1922 C 0.57682 0.43287 0.10905 0.0
C1923 C 0.5695 0.43636 0.0836 0.0
C1924 C 0.54814 0.39817 0.10322 0.0
C1925 C 0.55207 0.41964 0.06817 0.0
C1926 C 0.51978 0.36111 0.09665 0.0
C1927 C 0.52634 0.36105 0.15009 0.0
N1928 N 0.54191 0.40137 0.07828 0.0
N1929 N 0.53802 0.37831 0.13969 0.0
H1930 H 0.05234 0.4237 0.51908 0.0
H1931 H 0.97246 0.36927 0.38363 0.0
H1932 H 0.07339 0.38592 0.4517 0.0
H1933 H 0.95159 0.41491 0.44501 0.0
H1934 H 1.0096 0.37503 0.40942 0.0
H1935 H 1.01523 0.42097 0.4932 0.0
C1936 C 0.04923 0.41494 0.49894 0.0
C1937 C 0.06599 0.40485 0.4877 0.0
C1938 C 0.99696 0.38391 0.41727 0.0
C1939 C 1.02378 0.40163 0.45814 0.0
C1940 C 0.97572 0.3805 0.40257 0.0
C1941 C 0.95895 0.39161 0.41219 0.0
C1942 C 1.00148 0.3984 0.44192 0.0
C1943 C 0.96416 0.40621 0.43676 0.0
C1944 C 1.02809 0.41339 0.48418 0.0
C1945 C 0.06105 0.39382 0.46142 0.0
N1946 N 0.98496 0.4091 0.45087 0.0
N1947 N 0.04045 0.39243 0.44768 0.0
H1948 H 0.97063 0.71527 0.59137 0.0
H1949 H 0.06374 0.64484 0.63578 0.0
H1950 H 0.99324 0.711 0.67174 0.0
H1951 H 0.03507 0.63848 0.55489 0.0
H1952 H 0.03374 0.66434 0.64884 0.0
H1953 H 0.98773 0.68145 0.57736 0.0
C1954 C 0.97851 0.70672 0.60614 0.0
C1955 C 0.98124 0.71655 0.63279 0.0
C1956 C 0.03382 0.6587 0.6282 0.0
C1957 C 1.00119 0.67815 0.6168 0.0
C1958 C 0.05119 0.64779 0.62065 0.0
C1959 C 0.05211 0.64039 0.59411 0.0
C1960 C 1.01745 0.66299 0.60911 0.0
C1961 C 0.03508 0.64423 0.57553 0.0
C1962 C 0.98842 0.68749 0.59807 0.0
C1963 C 0.99113 0.70441 0.65099 0.0
N1964 N 1.01856 0.65561 0.58336 0.0
N1965 N 1.00132 0.68624 0.64263 0.0
H1966 H 0.69657 0.86371 0.94424 0.0
H1967 H 0.68614 0.85474 0.79007 0.0
H1968 H 0.63502 0.86939 0.89717 0.0
H1969 H 0.72551 0.81258 0.83128 0.0
H1970 H 0.67092 0.8666 0.8304 0.0
H1971 H 0.71164 0.85116 0.90381 0.0
C1972 C 0.68628 0.86232 0.92548 0.0
C1973 C 0.66447 0.86737 0.92404 0.0
C1974 C 0.6827 0.85453 0.83042 0.0
C1975 C 0.6816 0.85356 0.8781 0.0
C1976 C 0.69136 0.8478 0.80749 0.0
C1977 C 0.70676 0.83232 0.8072 0.0
C1978 C 0.68997 0.84623 0.85335 0.0
C1979 C 0.71323 0.82407 0.83045 0.0
C1980 C 0.69481 0.85511 0.90252 0.0
C1981 C 0.65183 0.8654 0.89922 0.0
N1982 N 0.70495 0.83127 0.85264 0.0
N1983 N 0.66063 0.85883 0.87726 0.0
H1984 H 0.46523 0.62748 0.74915 0.0
H1985 H 0.53697 0.55101 0.66136 0.0
H1986 H 0.45857 0.55228 0.73948 0.0
H1987 H 0.52883 0.61963 0.64532 0.0
H1988 H 0.51063 0.55369 0.69281 0.0
H1989 H 0.48893 0.62744 0.7137 0.0
C1990 C 0.46787 0.61086 0.739 0.0
C1991 C 0.4589 0.58974 0.74719 0.0
C1992 C 0.51453 0.56832 0.6826 0.0
C1993 C 0.48766 0.5897 0.70713 0.0
C1994 C 0.52988 0.56687 0.66451 0.0
C1995 C 0.53565 0.58512 0.65022 0.0
C1996 C 0.50452 0.58839 0.68743 0.0
C1997 C 0.52529 0.60505 0.65567 0.0
C1998 C 0.48186 0.61089 0.71893 0.0
C1999 C 0.46433 0.56902 0.73376 0.0
N2000 N 0.51051 0.60618 0.67374 0.0
N2001 N 0.47824 0.56959 0.71504 0.0
H2002 H 0.86302 0.21878 0.98189 0.0
H2003 H 0.81702 0.32824 0.93038 0.0
H2004 H 0.86566 0.2855 0.03087 0.0
H2005 H 0.8199 0.26369 0.88018 0.0
H2006 H 0.83189 0.31176 0.96809 0.0
H2007 H 0.84514 0.23405 0.94489 0.0
C2008 C 0.85991 0.23665 0.98487 0.0
C2009 C 0.86592 0.25085 1.00958 0.0
C2010 C 0.8291 0.30114 0.94884 0.0
C2011 C 0.84521 0.26845 0.96728 0.0
C2012 C 0.82042 0.31049 0.92731 0.0
C2013 C 0.81721 0.29739 0.902 0.0
C2014 C 0.83459 0.27848 0.9451 0.0
C2015 C 0.82216 0.27452 0.89927 0.0
C2016 C 0.84962 0.24536 0.96374 0.0
C2017 C 0.86136 0.27387 0.01223 0.0
N2018 N 0.83065 0.26588 0.92045 0.0
N2019 N 0.8513 0.2819 0.99143 0.0
H2020 H 0.08627 0.49016 0.24817 0.0
H2021 H 0.11877 0.58143 0.15728 0.0
H2022 H 0.15442 0.52537 0.25144 0.0
H2023 H 0.06139 0.52576 0.13249 0.0
H2024 H 0.13172 0.56088 0.19201 0.0
H2025 H 0.07668 0.50112 0.20526 0.0
C2026 C 0.09941 0.49946 0.23938 0.0
C2027 C 0.12121 0.50678 0.25332 0.0
C2028 C 0.1164 0.553 0.17888 0.0
C2029 C 0.1101 0.5203 0.20482 0.0
C2030 C 0.10885 0.56485 0.15917 0.0
C2031 C 0.08883 0.55537 0.1421 0.0
C2032 C 0.10363 0.53171 0.18205 0.0
C2033 C 0.07684 0.5337 0.14533 0.0
C2034 C 0.09388 0.50588 0.21499 0.0
C2035 C 0.1375 0.51913 0.24124 0.0
N2036 N 0.08425 0.52273 0.16518 0.0
N2037 N 0.13149 0.52599 0.21797 0.0
H2038 H 0.7831 0.96511 0.59077 0.0
H2039 H 0.85375 0.94336 0.48199 0.0
H2040 H 0.83821 0.01862 0.58368 0.0
H2041 H 0.78286 0.91496 0.47016 0.0
H2042 H 0.84796 0.97343 0.5171 0.0
H2043 H 0.78092 0.94881 0.54468 0.0
C2044 C 0.79431 0.97377 0.57915 0.0
C2045 C 0.81089 0.99304 0.59071 0.0
C2046 C 0.8336 0.961 0.50633 0.0
C2047 C 0.80922 0.97408 0.53856 0.0
C2048 C 0.83693 0.94375 0.48653 0.0
C2049 C 0.81881 0.92649 0.4736 0.0
C2050 C 0.81211 0.96053 0.51353 0.0
C2051 C 0.79729 0.9279 0.47981 0.0
C2052 C 0.7931 0.96452 0.55291 0.0
C2053 C 0.82521 1.00369 0.57518 0.0
N2054 N 0.7946 0.94431 0.49977 0.0
N2055 N 0.82451 0.99362 0.5499 0.0
H2056 H 0.4763 0.57864 0.8673 0.0
H2057 H 0.49847 0.61164 0.02389 0.0
H2058 H 0.42887 0.60932 0.90983 0.0
H2059 H 0.53121 0.56218 0.98015 0.0
H2060 H 0.47465 0.61405 0.98311 0.0
H2061 H 0.49809 0.57544 0.90861 0.0
C2062 C 0.47034 0.58467 0.88533 0.0
C2063 C 0.45051 0.5942 0.88481 0.0
C2064 C 0.48701 0.60262 0.98247 0.0
C2065 C 0.476 0.59089 0.93292 0.0
C2066 C 0.50073 0.60129 1.0058 0.0
C2067 C 0.51704 0.58664 1.00575 0.0
C2068 C 0.48973 0.58953 0.95861 0.0
C2069 C 0.51896 0.57367 0.98146 0.0
C2070 C 0.48289 0.5828 0.90905 0.0
C2071 C 0.4439 0.60171 0.9091 0.0
N2072 N 0.50569 0.57555 0.95909 0.0
N2073 N 0.45666 0.60008 0.93207 0.0
H2074 H 0.85005 0.2361 0.1469 0.0
H2075 H 0.86899 0.32832 0.27904 0.0
H2076 H 0.90399 0.2954 0.15844 0.0
H2077 H 0.804 0.30431 0.23209 0.0
H2078 H 0.88632 0.30932 0.24312 0.0
H2079 H 0.83776 0.25255 0.1876 0.0
C2080 C 0.86005 0.25192 0.15872 0.0
C2081 C 0.87846 0.26404 0.14952 0.0
C2082 C 0.86829 0.30835 0.24078 0.0
C2083 C 0.86411 0.28332 0.1959 0.0
C2084 C 0.85841 0.31927 0.26115 0.0
C2085 C 0.83503 0.31834 0.25843 0.0
C2086 C 0.8546 0.29558 0.21799 0.0
C2087 C 0.8221 0.30593 0.23496 0.0
C2088 C 0.85274 0.26155 0.18166 0.0
C2089 C 0.89009 0.28516 0.16512 0.0
N2090 N 0.83199 0.29487 0.21588 0.0
N2091 N 0.88274 0.29416 0.18749 0.0
H2092 H 0.09673 0.52027 0.37128 0.0
H2093 H 0.121 0.57239 0.52415 0.0
H2094 H 0.16025 0.52538 0.42013 0.0
H2095 H 0.05611 0.56631 0.47768 0.0
H2096 H 0.13555 0.55648 0.48558 0.0
H2097 H 0.08149 0.53761 0.40923 0.0
C2098 C 0.10747 0.52497 0.39001 0.0
C2099 C 0.12985 0.52138 0.39251 0.0
C2100 C 0.11816 0.55874 0.48364 0.0
C2101 C 0.11248 0.54138 0.43604 0.0
C2102 C 0.10978 0.56795 0.50574 0.0
C2103 C 0.0872 0.57077 0.50427 0.0
C2104 C 0.10398 0.55217 0.45962 0.0
C2105 C 0.07364 0.56463 0.47974 0.0
C2106 C 0.09874 0.53492 0.41166 0.0
C2107 C 0.14293 0.5278 0.41726 0.0
N2108 N 0.08221 0.55551 0.45837 0.0
N2109 N 0.13407 0.53749 0.438 0.0
H2110 H 0.86051 0.92444 0.68612 0.0
H2111 H 0.83334 0.90981 0.82891 0.0
H2112 H 0.83304 0.97594 0.73444 0.0
H2113 H 0.84678 0.85371 0.77305 0.0
H2114 H 0.83856 0.93652 0.79738 0.0
H2115 H 0.86142 0.90108 0.72086 0.0
C2116 C 0.85477 0.93097 0.70413 0.0
C2117 C 0.84634 0.95209 0.70718 0.0
C2118 C 0.84052 0.91843 0.79209 0.0
C2119 C 0.84735 0.92517 0.74718 0.0
C2120 C 0.83761 0.90319 0.81006 0.0
C2121 C 0.83962 0.87954 0.80347 0.0
C2122 C 0.8456 0.90997 0.76742 0.0
C2123 C 0.84507 0.87182 0.77883 0.0
C2124 C 0.85529 0.91753 0.72397 0.0
C2125 C 0.83955 0.95974 0.73117 0.0
N2126 N 0.84783 0.88701 0.76165 0.0
N2127 N 0.84002 0.94614 0.75022 0.0
H2128 H 0.67118 0.43849 0.58345 0.0
H2129 H 0.64715 0.57102 0.60824 0.0
H2130 H 0.72427 0.49906 0.60081 0.0
H2131 H 0.59644 0.50906 0.60029 0.0
H2132 H 0.67601 0.54576 0.60747 0.0
H2133 H 0.64386 0.46449 0.59062 0.0
C2134 C 0.67715 0.45723 0.58891 0.0
C2135 C 0.70017 0.46646 0.5915 0.0
C2136 C 0.65856 0.53775 0.6062 0.0
C2137 C 0.66873 0.49667 0.59962 0.0
C2138 C 0.64209 0.55223 0.60689 0.0
C2139 C 0.61921 0.54226 0.60426 0.0
C2140 C 0.65215 0.51309 0.60278 0.0
C2141 C 0.61376 0.51766 0.60216 0.0
C2142 C 0.6615 0.47215 0.59303 0.0
C2143 C 0.70675 0.49104 0.5986 0.0
N2144 N 0.62994 0.50405 0.60126 0.0
N2145 N 0.69118 0.50522 0.60224 0.0
H2146 H 0.21883 0.10864 0.50457 0.0
H2147 H 0.08852 0.09423 0.51131 0.0
H2148 H 0.17986 0.15494 0.46996 0.0
H2149 H 0.13765 0.10169 0.58008 0.0
H2150 H 0.11918 0.10231 0.48549 0.0
H2151 H 0.18541 0.09061 0.52078 0.0
C2152 C 0.20306 0.11443 0.49953 0.0
C2153 C 0.20209 0.13346 0.48612 0.0
C2154 C 0.1231 0.10181 0.50615 0.0
C2155 C 0.16408 0.11282 0.50441 0.0
C2156 C 0.10577 0.09723 0.52083 0.0
C2157 C 0.11077 0.09754 0.54779 0.0
C2158 C 0.1454 0.10585 0.51848 0.0
C2159 C 0.13326 0.10154 0.55935 0.0
C2160 C 0.18414 0.10427 0.509 0.0
C2161 C 0.18128 0.14043 0.48042 0.0
N2162 N 0.14984 0.10546 0.54456 0.0
N2163 N 0.16302 0.13019 0.4898 0.0
H2164 H 0.26464 0.02116 0.84285 0.0
H2165 H 0.24605 0.87784 0.81619 0.0
H2166 H 0.19977 0.97756 0.83631 0.0
H2167 H 0.3116 0.92105 0.83739 0.0
H2168 H 0.22913 0.91356 0.82057 0.0
H2169 H 0.28178 0.98551 0.83823 0.0
C2170 C 0.25382 1.00419 0.84037 0.0
C2171 C 0.23039 1.00304 0.84006 0.0
C2172 C 0.24723 0.9154 0.82421 0.0
C2173 C 0.2505 0.96092 0.8344 0.0
C2174 C 0.25708 0.89475 0.82159 0.0
C2175 C 0.28064 0.89574 0.82621 0.0
C2176 C 0.26072 0.938 0.83136 0.0
C2177 C 0.29348 0.91878 0.83342 0.0
C2178 C 0.26378 0.98359 0.83776 0.0
C2179 C 0.21778 0.97994 0.83677 0.0
N2180 N 0.28352 0.93857 0.8356 0.0
N2181 N 0.22782 0.96023 0.83402 0.0
H2182 H 0.29684 0.9732 0.07363 0.0
H2183 H 0.42465 0.98253 0.04891 0.0
H2184 H 0.32751 0.9129 0.05166 0.0
H2185 H 0.39148 0.04239 0.0609 0.0
H2186 H 0.38982 0.95685 0.05236 0.0
H2187 H 0.33197 0.99886 0.07148 0.0
C2188 C 0.31095 0.96531 0.06841 0.0
C2189 C 0.30915 0.94079 0.06278 0.0
C2190 C 0.39014 0.9756 0.05423 0.0
C2191 C 0.34949 0.9702 0.06028 0.0
C2192 C 0.41005 0.99029 0.05241 0.0
C2193 C 0.41098 1.01465 0.05466 0.0
C2194 C 0.37098 0.98532 0.05843 0.0
C2195 C 0.39145 0.02369 0.05879 0.0
C2196 C 0.33101 0.98002 0.06713 0.0
C2197 C 0.32806 0.93167 0.0561 0.0
N2198 N 0.37227 1.00903 0.0606 0.0
N2199 N 0.34743 0.94637 0.05506 0.0
H2200 H 0.91264 0.67733 0.78512 0.0
H2201 H 0.86134 0.77675 0.85387 0.0
H2202 H 0.95316 0.727 0.84891 0.0
H2203 H 0.85903 0.77495 0.77083 0.0
H2204 H 0.88916 0.75118 0.85305 0.0
H2205 H 0.88755 0.70603 0.77914 0.0
C2206 C 0.91642 0.69435 0.79763 0.0
C2207 C 0.93503 0.69976 0.8176 0.0
C2208 C 0.88264 0.75647 0.83503 0.0
C2209 C 0.90615 0.73218 0.81125 0.0
C2210 C 0.86686 0.77128 0.83544 0.0
C2211 C 0.85829 0.77884 0.81255 0.0
C2212 C 0.88947 0.74818 0.81138 0.0
C2213 C 0.8654 0.76994 0.78905 0.0
C2214 C 0.90217 0.71068 0.7941 0.0
C2215 C 0.9391 0.72207 0.83324 0.0
N2216 N 0.8805 0.75488 0.789 0.0
N2217 N 0.92451 0.73721 0.83014 0.0
H2218 H 0.85034 0.65393 0.98154 0.0
H2219 H 0.89611 0.54671 0.03566 0.0
H2220 H 0.80578 0.59328 0.99519 0.0
H2221 H 0.9337 0.61743 0.04702 0.0
H2222 H 0.86371 0.56033 0.01411 0.0
H2223 H 0.88238 0.63674 0.99695 0.0
C2224 C 0.84728 0.6368 0.98736 0.0
C2225 C 0.82537 0.62512 0.98735 0.0
C2226 C 0.87914 0.57275 0.02128 0.0
C2227 C 0.86198 0.60549 1.00529 0.0
C2228 C 0.89757 0.56507 0.03377 0.0
C2229 C 0.91778 0.58089 0.04307 0.0
C2230 C 0.88105 0.59632 0.01786 0.0
C2231 C 0.91872 0.60442 0.03969 0.0
C2232 C 0.86559 0.62709 0.99634 0.0
C2233 C 0.82243 0.60294 0.99506 0.0
N2234 N 0.90069 0.61136 0.0273 0.0
N2235 N 0.84057 0.59388 1.00394 0.0
H2236 H 0.25583 0.12861 0.84464 0.0
H2237 H 0.24678 0.26456 0.83685 0.0
H2238 H 0.2003 0.16236 0.86267 0.0
H2239 H 0.31139 0.24342 0.83867 0.0
H2240 H 0.23027 0.22555 0.84345 0.0
H2241 H 0.27696 0.16761 0.84025 0.0
C2242 C 0.24802 0.14396 0.84796 0.0
C2243 C 0.22583 0.14143 0.85413 0.0
C2244 C 0.2481 0.22917 0.84256 0.0
C2245 C 0.2502 0.1868 0.84855 0.0
C2246 C 0.2577 0.25177 0.83874 0.0
C2247 C 0.28078 0.25799 0.83727 0.0
C2248 C 0.26125 0.21154 0.84469 0.0
C2249 C 0.29361 0.23995 0.83987 0.0
C2250 C 0.26018 0.16641 0.84533 0.0
C2251 C 0.21708 0.16259 0.85783 0.0
N2252 N 0.28373 0.21773 0.84324 0.0
N2253 N 0.22897 0.18372 0.85485 0.0
H2254 H 0.47636 0.06476 0.37356 0.0
H2255 H 0.35085 0.99211 0.33712 0.0
H2256 H 0.42263 0.0883 0.32845 0.0
H2257 H 0.40158 0.97465 0.39236 0.0
H2258 H 0.37768 0.026 0.3312 0.0
H2259 H 0.44999 0.02993 0.37781 0.0
C2260 C 0.45908 0.06256 0.36439 0.0
C2261 C 0.45172 0.07957 0.35069 0.0
C2262 C 0.38293 1.01479 0.34467 0.0
C2263 C 0.42142 0.03976 0.35562 0.0
C2264 C 0.36765 0.99542 0.348 0.0
C2265 C 0.37398 0.9806 0.36532 0.0
C2266 C 0.40478 0.0193 0.35863 0.0
C2267 C 0.39591 0.98581 0.37908 0.0
C2268 C 0.44401 0.04271 0.36694 0.0
C2269 C 0.42908 0.07575 0.3393 0.0
N2270 N 0.41054 1.00469 0.37537 0.0
N2271 N 0.41475 0.05628 0.34205 0.0
H2272 H 0.54082 0.39367 0.75293 0.0
H2273 H 0.55406 0.42836 0.61173 0.0
H2274 H 0.5713 0.35515 0.69442 0.0
H2275 H 0.52461 0.46954 0.6692 0.0
H2276 H 0.56214 0.40277 0.64319 0.0
H2277 H 0.53695 0.42334 0.72448 0.0
C2278 C 0.54712 0.3917 0.7344 0.0
C2279 C 0.55635 0.37184 0.72605 0.0
C2280 C 0.55395 0.41743 0.64902 0.0
C2281 C 0.55162 0.40543 0.69321 0.0
C2282 C 0.54939 0.43218 0.63101 0.0
C2283 C 0.53859 0.45127 0.63764 0.0
C2284 C 0.54768 0.42159 0.67405 0.0
C2285 C 0.53266 0.45489 0.66295 0.0
C2286 C 0.54473 0.40852 0.71805 0.0
C2287 C 0.56398 0.37008 0.70167 0.0
N2288 N 0.53724 0.44022 0.68016 0.0
N2289 N 0.56131 0.38647 0.68614 0.0
H2290 H 0.50233 0.88058 0.36425 0.0
H2291 H 0.37573 0.80669 0.34508 0.0
H2292 H 0.4866 0.81077 0.38174 0.0
H2293 H 0.3909 0.87615 0.32608 0.0
H2294 H 0.41622 0.80678 0.35533 0.0
H2295 H 0.46249 0.87811 0.34644 0.0
C2296 C 0.49073 0.86432 0.36333 0.0
C2297 C 0.49831 0.8455 0.37365 0.0
C2298 C 0.41078 0.82198 0.34874 0.0
C2299 C 0.45184 0.84294 0.35442 0.0
C2300 C 0.3875 0.82191 0.34279 0.0
C2301 C 0.37952 0.84142 0.33458 0.0
C2302 C 0.42664 0.84175 0.34664 0.0
C2303 C 0.39598 0.86062 0.33224 0.0
C2304 C 0.46777 0.86305 0.35356 0.0
C2305 C 0.48192 0.82542 0.37319 0.0
N2306 N 0.41849 0.86033 0.3383 0.0
N2307 N 0.45973 0.82474 0.36398 0.0
H2308 H 0.08782 0.74741 0.22556 0.0
H2309 H 1.01922 0.62964 0.13551 0.0
H2310 H 1.01662 0.74015 0.20148 0.0
H2311 H 0.08778 0.65922 0.13105 0.0
H2312 H 1.01719 0.66459 0.16718 0.0
H2313 H 0.08711 0.70861 0.20035 0.0
C2314 C 0.07184 0.73718 0.21578 0.0
C2315 C 0.0522 0.74684 0.21594 0.0
C2316 C 0.03264 0.66332 0.15926 0.0
C2317 C 0.05138 0.70265 0.1862 0.0
C2318 C 0.03384 0.64343 0.14123 0.0
C2319 C 0.05369 0.64155 0.13051 0.0
C2320 C 0.05162 0.68111 0.16716 0.0
C2321 C 0.07209 0.65996 0.1386 0.0
C2322 C 0.07152 0.71521 0.20104 0.0
C2323 C 0.03204 0.7331 0.2023 0.0
N2324 N 0.07066 0.67881 0.15654 0.0
N2325 N 0.03215 0.71171 0.18774 0.0
H2326 H 0.15011 0.35473 0.92194 0.0
H2327 H 0.23002 0.34437 0.81006 0.0
H2328 H 0.12328 0.33966 0.84 0.0
H2329 H 0.25227 0.34255 0.89102 0.0
H2330 H 0.19183 0.34583 0.8203 0.0
H2331 H 0.18775 0.35329 0.91079 0.0
C2332 C 0.15203 0.3511 0.90151 0.0
C2333 C 0.13309 0.34728 0.88198 0.0
C2334 C 0.20505 0.34518 0.83587 0.0
C2335 C 0.17707 0.34583 0.86886 0.0
C2336 C 0.22703 0.34449 0.83006 0.0
C2337 C 0.24476 0.34341 0.84965 0.0
C2338 C 0.20047 0.34509 0.86163 0.0
C2339 C 0.2394 0.34339 0.87515 0.0
C2340 C 0.17371 0.35025 0.89514 0.0
C2341 C 0.13711 0.34264 0.85586 0.0
N2342 N 0.218 0.3443 0.88032 0.0
N2343 N 0.1585 0.34219 0.85012 0.0
H2344 H 0.64592 0.84297 0.06577 0.0
H2345 H 0.56292 0.7194 0.02604 0.0
H2346 H 0.61166 0.81671 0.98734 0.0
H2347 H 0.60014 0.7455 0.10316 0.0
H2348 H 0.58257 0.75328 0.01044 0.0
H2349 H 0.63225 0.80542 0.07839 0.0
C2350 C 0.63585 0.82909 0.05105 0.0
C2351 C 0.62976 0.83303 0.02551 0.0
C2352 C 0.58647 0.75154 0.03075 0.0
C2353 C 0.61355 0.79006 0.04001 0.0
C2354 C 0.57526 0.73221 0.03969 0.0
C2355 C 0.57974 0.72966 0.06603 0.0
C2356 C 0.60229 0.7685 0.04826 0.0
C2357 C 0.59578 0.74693 0.08283 0.0
C2358 C 0.62793 0.80767 0.05831 0.0
C2359 C 0.61679 0.81439 1.00723 0.0
N2360 N 0.6064 0.7656 0.07368 0.0
N2361 N 0.6088 0.7938 0.01494 0.0
H2362 H 0.0714 0.79329 0.64357 0.0
H2363 H 0.15515 0.80942 0.77812 0.0
H2364 H 0.05108 0.80308 0.72008 0.0
H2365 H 0.17314 0.78487 0.70297 0.0
H2366 H 0.11823 0.81276 0.75643 0.0
H2367 H 0.11025 0.79572 0.6644 0.0
C2368 C 0.07514 0.79618 0.66469 0.0
C2369 C 0.05796 0.79773 0.6801 0.0
C2370 C 0.13027 0.8067 0.74466 0.0
C2371 C 0.10214 0.80055 0.70394 0.0
C2372 C 0.15137 0.8049 0.75704 0.0
C2373 C 0.16714 0.79667 0.74235 0.0
C2374 C 0.12493 0.80035 0.71738 0.0
C2375 C 0.16131 0.7909 0.71507 0.0
C2376 C 0.09725 0.79745 0.67655 0.0
C2377 C 0.06372 0.80146 0.7074 0.0
N2378 N 0.14064 0.7928 0.70345 0.0
N2379 N 0.08527 0.80268 0.71841 0.0
H2380 H 0.12959 0.45796 0.47826 0.0
H2381 H 0.08806 0.5293 0.60027 0.0
H2382 H 0.14985 0.44957 0.55787 0.0
H2383 H 0.05635 0.51838 0.51998 0.0
H2384 H 0.11746 0.50791 0.58597 0.0
H2385 H 0.11101 0.49005 0.49443 0.0
C2386 C 0.13072 0.46331 0.49916 0.0
C2387 C 0.14078 0.45072 0.51673 0.0
C2388 C 0.10405 0.51037 0.57159 0.0
C2389 C 0.11908 0.48693 0.53532 0.0
C2390 C 0.08727 0.52235 0.57975 0.0
C2391 C 0.06963 0.52527 0.56137 0.0
C2392 C 0.10318 0.50165 0.54488 0.0
C2393 C 0.06942 0.51622 0.53495 0.0
C2394 C 0.11988 0.48145 0.50839 0.0
C2395 C 0.14184 0.45855 0.54364 0.0
N2396 N 0.08592 0.5049 0.52754 0.0
N2397 N 0.13068 0.47586 0.55215 0.0
H2398 H 0.47881 0.27581 0.23723 0.0
H2399 H 0.40194 0.36293 0.29503 0.0
H2400 H 0.43181 0.30621 0.18997 0.0
H2401 H 0.44633 0.33085 0.34378 0.0
H2402 H 0.41178 0.34081 0.25657 0.0
H2403 H 0.46487 0.29263 0.27632 0.0
C2404 C 0.46521 0.28559 0.23501 0.0
C2405 C 0.45663 0.28984 0.2103 0.0
C2406 C 0.41948 0.33861 0.27563 0.0
C2407 C 0.44098 0.30956 0.25503 0.0
C2408 C 0.41414 0.3516 0.29774 0.0
C2409 C 0.4236 0.34919 0.32288 0.0
C2410 C 0.43448 0.32296 0.27842 0.0
C2411 C 0.43867 0.33342 0.32487 0.0
C2412 C 0.45739 0.29534 0.25738 0.0
C2413 C 0.43899 0.30257 0.2086 0.0
N2414 N 0.4437 0.32096 0.30292 0.0
N2415 N 0.43198 0.31225 0.2307 0.0
H2416 H 0.69083 0.55566 0.44107 0.0
H2417 H 0.57918 0.59823 0.48769 0.0
H2418 H 0.64291 0.58255 0.39143 0.0
H2419 H 0.61443 0.55345 0.52941 0.0
H2420 H 0.60422 0.59511 0.45438 0.0
H2421 H 0.66596 0.55743 0.4752 0.0
C2422 C 0.67529 0.56219 0.43729 0.0
C2423 C 0.66937 0.56907 0.41289 0.0
C2424 C 0.60652 0.58579 0.47067 0.0
C2425 C 0.6403 0.57119 0.45259 0.0
C2426 C 0.59202 0.58749 0.48983 0.0
C2427 C 0.59411 0.57585 0.51163 0.0
C2428 C 0.62405 0.5727 0.47302 0.0
C2429 C 0.61163 0.56252 0.513 0.0
C2430 C 0.66091 0.56304 0.45688 0.0
C2431 C 0.64859 0.57706 0.40962 0.0
N2432 N 0.62582 0.56148 0.49432 0.0
N2433 N 0.63517 0.57799 0.42894 0.0
H2434 H 0.26604 0.92858 0.15994 0.0
H2435 H 0.29932 0.82655 0.23477 0.0
H2436 H 0.24131 0.85476 0.13228 0.0
H2437 H 0.29774 0.89478 0.27808 0.0
H2438 H 0.28307 0.83896 0.19502 0.0
H2439 H 0.28076 0.91891 0.20249 0.0
C2440 C 0.26312 0.91049 0.163 0.0
C2441 C 0.25248 0.89247 0.1424 0.0
C2442 C 0.28639 0.85129 0.21321 0.0
C2443 C 0.27003 0.88125 0.19043 0.0
C2444 C 0.29592 0.84427 0.23586 0.0
C2445 C 0.29993 0.85961 0.25984 0.0
C2446 C 0.28106 0.87396 0.2143 0.0
C2447 C 0.29488 0.88235 0.26002 0.0
C2448 C 0.27178 0.90494 0.18715 0.0
C2449 C 0.24956 0.86925 0.14743 0.0
N2450 N 0.28577 0.88887 0.23762 0.0
N2451 N 0.25855 0.86433 0.17062 0.0
H2452 H 1.02448 0.66434 0.90566 0.0
H2453 H 0.99704 0.57624 1.00336 0.0
H2454 H 0.95657 0.63661 0.91467 0.0
H2455 H 0.05825 0.6275 0.01932 0.0
H2456 H 0.98298 0.59616 0.96858 0.0
H2457 H 0.03822 0.64965 0.94515 0.0
C2458 C 1.01244 0.65545 0.91617 0.0
C2459 C 0.98932 0.6518 0.90692 0.0
C2460 C 0.99944 0.60317 0.97973 0.0
C2461 C 1.005 0.63444 0.95175 0.0
C2462 C 1.00759 0.59172 0.99952 0.0
C2463 C 1.02895 0.60016 0.01423 0.0
C2464 C 1.01288 0.623 0.97402 0.0
C2465 C 0.04171 0.62042 1.00845 0.0
C2466 C 1.02031 0.64709 0.9387 0.0
C2467 C 0.9745 0.64002 0.92122 0.0
N2468 N 0.0336 0.631 0.98854 0.0
N2469 N 0.9826 0.63147 0.94268 0.0
H2470 H 0.26328 0.14812 0.57135 0.0
H2471 H 0.33454 0.24218 0.68855 0.0
H2472 H 0.31717 0.20313 0.56454 0.0
H2473 H 0.26494 0.21151 0.68551 0.0
H2474 H 0.3365 0.21387 0.64994 0.0
H2475 H 0.27257 0.1579 0.61922 0.0
C2476 C 0.27759 0.16165 0.58003 0.0
C2477 C 0.28939 0.17514 0.56441 0.0
C2478 C 0.32101 0.21291 0.65824 0.0
C2479 C 0.30005 0.1862 0.61838 0.0
C2480 C 0.31988 0.22898 0.68025 0.0
C2481 C 0.29937 0.22947 0.68967 0.0
C2482 C 0.30151 0.19732 0.64575 0.0
C2483 C 0.28088 0.21201 0.6783 0.0
C2484 C 0.28283 0.16722 0.60718 0.0
C2485 C 0.30763 0.19259 0.5762 0.0
N2486 N 0.28226 0.19684 0.65656 0.0
N2487 N 0.31228 0.19784 0.60261 0.0
H2488 H 0.68981 0.57014 0.25826 0.0
H2489 H 0.57373 0.58243 0.17734 0.0
H2490 H 0.6255 0.55017 0.28258 0.0
H2491 H 0.62684 0.56404 0.1355 0.0
H2492 H 0.5952 0.57621 0.21781 0.0
H2493 H 0.67005 0.57176 0.21432 0.0
C2494 C 0.67169 0.56537 0.25425 0.0
C2495 C 0.65943 0.55986 0.27439 0.0
C2496 C 0.60221 0.57353 0.19979 0.0
C2497 C 0.63664 0.56288 0.22449 0.0
C2498 C 0.58995 0.57721 0.17661 0.0
C2499 C 0.59831 0.57373 0.15273 0.0
C2500 C 0.62343 0.56683 0.19958 0.0
C2501 C 0.61956 0.56685 0.15331 0.0
C2502 C 0.66037 0.56663 0.22923 0.0
C2503 C 0.63581 0.55452 0.26791 0.0
N2504 N 0.63143 0.56385 0.17626 0.0
N2505 N 0.62535 0.55655 0.244 0.0
H2506 H 0.24319 0.86108 0.02004 0.0
H2507 H 0.26676 0.86312 0.87301 0.0
H2508 H 0.23872 0.92197 0.98327 0.0
H2509 H 0.29563 0.81943 0.92266 0.0
H2510 H 0.25026 0.88097 0.90985 0.0
H2511 H 0.25614 0.84207 0.98148 0.0
C2512 C 0.2448 0.87051 1.00382 0.0
C2513 C 0.23998 0.89339 1.00522 0.0
C2514 C 0.26004 0.86734 0.91261 0.0
C2515 C 0.25468 0.87122 0.96035 0.0
C2516 C 0.26933 0.85695 0.89151 0.0
C2517 C 0.28262 0.8396 0.89463 0.0
C2518 C 0.26364 0.8601 0.93702 0.0
C2519 C 0.28549 0.83263 0.91925 0.0
C2520 C 0.25227 0.85955 0.98173 0.0
C2521 C 0.24224 0.90438 0.98321 0.0
N2522 N 0.27607 0.84281 0.93937 0.0
N2523 N 0.24939 0.89321 0.96171 0.0
H2524 H 0.04318 0.64862 0.78681 0.0
H2525 H 1.00349 0.59781 0.63497 0.0
H2526 H 0.97326 0.63283 0.75283 0.0
H2527 H 0.0695 0.59833 0.67599 0.0
H2528 H 0.99239 0.61462 0.67607 0.0
H2529 H 0.05342 0.63593 0.74418 0.0
C2530 C 0.02994 0.64279 0.77027 0.0
C2531 C 1.00727 0.64156 0.77353 0.0
C2532 C 1.00924 0.61091 0.67607 0.0
C2533 C 1.01899 0.62655 0.72444 0.0
C2534 C 1.0156 0.60119 0.65265 0.0
C2535 C 0.03746 0.59637 0.65201 0.0
C2536 C 1.0249 0.61613 0.69903 0.0
C2537 C 0.05243 0.60142 0.67551 0.0
C2538 C 0.03583 0.63537 0.74591 0.0
C2539 C 0.99093 0.63409 0.75124 0.0
N2540 N 0.0459 0.61109 0.69797 0.0
N2541 N 0.9971 0.62661 0.72764 0.0
H2542 H 0.24332 0.20646 0.45493 0.0
H2543 H 0.32041 0.2804 0.376 0.0
H2544 H 0.28872 0.17577 0.40902 0.0
H2545 H 0.25186 0.29087 0.37625 0.0
H2546 H 0.31203 0.24597 0.39694 0.0
H2547 H 0.24774 0.24053 0.43234 0.0
C2548 C 0.25373 0.20668 0.43957 0.0
C2549 C 0.26557 0.18837 0.43355 0.0
C2550 C 0.29891 0.25595 0.39256 0.0
C2551 C 0.27147 0.22741 0.40884 0.0
C2552 C 0.30373 0.27577 0.381 0.0
C2553 C 0.28672 0.28835 0.37424 0.0
C2554 C 0.27711 0.249 0.39788 0.0
C2555 C 0.26539 0.28155 0.38112 0.0
C2556 C 0.25634 0.2261 0.4269 0.0
C2557 C 0.2791 0.18946 0.41385 0.0
N2558 N 0.26114 0.26222 0.3926 0.0
N2559 N 0.28208 0.20898 0.40252 0.0
H2560 H 0.45508 0.72169 0.57052 0.0
H2561 H 0.48367 0.59066 0.5602 0.0
H2562 H 0.40744 0.66172 0.57969 0.0
H2563 H 0.53269 0.6527 0.56133 0.0
H2564 H 0.4546 0.61546 0.56329 0.0
H2565 H 0.48298 0.69616 0.56443 0.0
C2566 C 0.4505 0.70321 0.57149 0.0
C2567 C 0.42881 0.69401 0.57585 0.0
C2568 C 0.47168 0.6236 0.56258 0.0
C2569 C 0.46079 0.66431 0.56834 0.0
C2570 C 0.48825 0.60937 0.56048 0.0
C2571 C 0.51074 0.61949 0.56039 0.0
C2572 C 0.47755 0.64818 0.56447 0.0
C2573 C 0.51565 0.64401 0.56135 0.0
C2574 C 0.46645 0.68855 0.56786 0.0
C2575 C 0.42394 0.66974 0.5766 0.0
N2576 N 0.49933 0.65739 0.56342 0.0
N2577 N 0.43969 0.65581 0.57282 0.0
H2578 H 0.88043 0.02124 0.58938 0.0
H2579 H 1.01224 0.05939 0.63694 0.0
H2580 H 0.90942 0.02804 0.67008 0.0
H2581 H 0.97951 0.04412 0.55698 0.0
H2582 H 0.975 0.05638 0.6515 0.0
H2583 H 0.91646 0.03912 0.57944 0.0
C2584 C 0.89442 0.02691 0.60509 0.0
C2585 C 0.89215 0.02303 0.63047 0.0
C2586 C 0.97608 0.05405 0.6308 0.0
C2587 C 0.9338 0.04269 0.61916 0.0
C2588 C 0.99724 0.05578 0.62254 0.0
C2589 C 0.99875 0.0515 0.59579 0.0
C2590 C 0.95659 0.04836 0.61203 0.0
C2591 C 0.979 0.04703 0.57781 0.0
C2592 C 0.91505 0.03703 0.59945 0.0
C2593 C 0.91067 0.03077 0.65023 0.0
N2594 N 0.9588 0.04545 0.58625 0.0
N2595 N 0.93098 0.03983 0.64407 0.0
H2596 H 0.85792 0.1388 0.30127 0.0
H2597 H 0.87753 0.28177 0.34384 0.0
H2598 H 0.92268 0.18079 0.3325 0.0
H2599 H 0.81232 0.2397 0.31515 0.0
H2600 H 0.89405 0.24572 0.33957 0.0
H2601 H 0.84128 0.17483 0.30551 0.0
C2602 C 0.86884 0.15549 0.3089 0.0
C2603 C 0.8921 0.15605 0.31633 0.0
C2604 C 0.87609 0.2442 0.33423 0.0
C2605 C 0.87253 0.19866 0.32153 0.0
C2606 C 0.86649 0.26506 0.33675 0.0
C2607 C 0.84312 0.26451 0.33009 0.0
C2608 C 0.86259 0.22183 0.32476 0.0
C2609 C 0.83027 0.24166 0.32081 0.0
C2610 C 0.85916 0.17632 0.31141 0.0
C2611 C 0.9048 0.17884 0.32627 0.0
N2612 N 0.84001 0.22172 0.31847 0.0
N2613 N 0.89503 0.19876 0.3285 0.0
H2614 H 0.82444 0.17893 0.07318 0.0
H2615 H 0.69111 0.16399 0.06649 0.0
H2616 H 0.7869 0.23297 0.05559 0.0
H2617 H 0.73118 0.1185 0.10096 0.0
H2618 H 0.72525 0.18683 0.05665 0.0
H2619 H 0.78953 0.1538 0.07701 0.0
C2620 C 0.80885 0.18549 0.06988 0.0
C2621 C 0.8087 0.20827 0.06427 0.0
C2622 C 0.72653 0.17179 0.06628 0.0
C2623 C 0.76857 0.17943 0.06875 0.0
C2624 C 0.70706 0.1588 0.07206 0.0
C2625 C 0.70822 0.13936 0.08484 0.0
C2626 C 0.74736 0.16526 0.07315 0.0
C2627 C 0.72936 0.13318 0.09092 0.0
C2628 C 0.78891 0.17111 0.07218 0.0
C2629 C 0.78789 0.21564 0.06013 0.0
N2630 N 0.74807 0.14613 0.08511 0.0
N2631 N 0.76868 0.2013 0.06257 0.0
H2632 H 0.16204 0.42875 0.31634 0.0
H2633 H 0.284 0.40154 0.36135 0.0
H2634 H 0.22081 0.48317 0.33714 0.0
H2635 H 0.23515 0.35265 0.30443 0.0
H2636 H 0.25863 0.43032 0.36051 0.0
H2637 H 0.18642 0.39909 0.31902 0.0
C2638 C 0.18003 0.43446 0.32138 0.0
C2639 C 0.18939 0.45848 0.32629 0.0
C2640 C 0.25344 0.41318 0.34839 0.0
C2641 C 0.21726 0.42474 0.33012 0.0
C2642 C 0.26783 0.39669 0.349 0.0
C2643 C 0.26169 0.37456 0.333 0.0
C2644 C 0.23256 0.40735 0.33208 0.0
C2645 C 0.24057 0.36942 0.31716 0.0
C2646 C 0.19391 0.41755 0.32294 0.0
C2647 C 0.21285 0.46486 0.33292 0.0
N2648 N 0.22675 0.38558 0.31719 0.0
N2649 N 0.22593 0.44814 0.33485 0.0
H2650 H 0.26935 0.52561 0.19108 0.0
H2651 H 0.22835 0.62112 0.11661 0.0
H2652 H 0.31546 0.58261 0.17283 0.0
H2653 H 0.18495 0.57821 0.15711 0.0
H2654 H 0.26096 0.61027 0.14104 0.0
H2655 H 0.23898 0.54786 0.18483 0.0
C2656 C 0.27323 0.54327 0.18683 0.0
C2657 C 0.29487 0.55231 0.18241 0.0
C2658 C 0.24433 0.60359 0.14497 0.0
C2659 C 0.26005 0.5774 0.17386 0.0
C2660 C 0.22572 0.60964 0.13087 0.0
C2661 C 0.2039 0.60039 0.13464 0.0
C2662 C 0.2411 0.5878 0.16261 0.0
C2663 C 0.20146 0.58581 0.15361 0.0
C2664 C 0.25584 0.5559 0.18298 0.0
C2665 C 0.299 0.57512 0.17658 0.0
N2666 N 0.21979 0.57965 0.16654 0.0
N2667 N 0.28159 0.58664 0.17171 0.0
H2668 H 0.92355 0.99872 0.31209 0.0
H2669 H 0.80863 0.91194 0.32374 0.0
H2670 H 0.86384 0.02799 0.32148 0.0
H2671 H 0.87514 0.8952 0.33139 0.0
H2672 H 0.82512 0.95259 0.31875 0.0
H2673 H 0.90325 0.96023 0.31426 0.0
C2674 C 0.90601 0.99729 0.31448 0.0
C2675 C 0.89588 1.01757 0.3167 0.0
C2676 C 0.83608 0.93998 0.32145 0.0
C2677 C 0.87157 0.97142 0.31932 0.0
C2678 C 0.8266 0.91654 0.32417 0.0
C2679 C 0.84031 0.89949 0.32799 0.0
C2680 C 0.85957 0.94669 0.32217 0.0
C2681 C 0.86357 0.9072 0.32854 0.0
C2682 C 0.89428 0.97483 0.31579 0.0
C2683 C 0.87275 1.01338 0.31948 0.0
N2684 N 0.87217 0.92966 0.32564 0.0
N2685 N 0.86154 0.99103 0.3208 0.0
H2686 H 0.64944 0.10495 0.84028 0.0
H2687 H 0.77205 0.15974 0.81399 0.0
H2688 H 0.70346 0.06566 0.83386 0.0
H2689 H 0.71839 0.19942 0.82053 0.0
H2690 H 0.74746 0.12544 0.82276 0.0
H2691 H 0.67492 0.14025 0.83537 0.0
C2692 C 0.66667 0.10373 0.83806 0.0
C2693 C 0.67421 0.08217 0.83735 0.0
C2694 C 0.74107 0.14166 0.82236 0.0
C2695 C 0.70346 0.12258 0.8315 0.0
C2696 C 0.75507 0.16124 0.81716 0.0
C2697 C 0.7473 0.18253 0.81643 0.0
C2698 C 0.71905 0.1433 0.8268 0.0
C2699 C 0.72522 0.18348 0.82117 0.0
C2700 C 0.68121 0.12392 0.83518 0.0
C2701 C 0.69678 0.08179 0.83443 0.0
N2702 N 0.71188 0.16415 0.82606 0.0
N2703 N 0.71052 0.10161 0.83148 0.0
loop_
_geom_bond_atom_site_label_1
_geom_bond_atom_site_label_2
_geom_bond_distance
_geom_bond_site_symmetry_2
_ccdc_geom_bond_type
Co0 O1 2.216 . S
Co0 O2 2.091 . S
Co0 O4 2.004 . S
Co0 O10 2.021 . S
Co0 O12 2.137 . S
Co0 O13 2.244 . S
O1 Co0 2.216 . S
O1 C8 1.247 . S
O2 Co0 2.091 . S
O2 C8 1.261 . S
C3 O12 1.247 . S
C3 O13 1.272 . S
O4 Co0 2.004 . S
O4 C9 1.259 . S
Co5 O6 2.061 . S
Co5 O11 2.052 . S
Co5 O13 2.135 . S
O6 Co5 2.061 . S
O6 C9 1.235 . S
C7 O10 1.238 . S
C7 O11 1.241 . S
C8 O1 1.247 . S
C8 O2 1.261 . S
C9 O4 1.259 . S
C9 O6 1.235 . S
O10 Co0 2.021 . S
O10 C7 1.238 . S
O11 Co5 2.052 . S
O11 C7 1.241 . S
O12 Co0 2.137 . S
O12 C3 1.247 . S
O13 Co0 2.244 . S
O13 C3 1.272 . S
O13 Co5 2.135 . S
Co14 O15 2.216 . S
Co14 O16 2.091 . S
Co14 O18 2.004 1_655 S
Co14 O24 2.021 . S
Co14 O26 2.137 . S
Co14 O27 2.244 1_655 S
O15 Co14 2.216 . S
O15 C22 1.247 . S
O16 Co14 2.091 . S
O16 C22 1.261 . S
C17 O26 1.247 1_455 S
C17 O27 1.272 . S
O18 Co14 2.004 1_455 S
O18 C23 1.259 . S
Co19 O20 2.061 . S
Co19 O25 2.052 . S
Co19 O27 2.135 . S
O20 Co19 2.061 . S
O20 C23 1.235 . S
C21 O24 1.238 . S
C21 O25 1.241 1_655 S
C22 O15 1.247 . S
C22 O16 1.261 . S
C23 O18 1.259 . S
C23 O20 1.235 . S
O24 Co14 2.021 . S
O24 C21 1.238 . S
O25 Co19 2.052 . S
O25 C21 1.241 1_455 S
O26 Co14 2.137 . S
O26 C17 1.247 1_655 S
O27 Co14 2.244 1_455 S
O27 C17 1.272 . S
O27 Co19 2.135 . S
Co28 O29 2.216 1_556 S
Co28 O30 2.091 . S
Co28 O32 2.004 . S
Co28 O38 2.021 1_556 S
Co28 O40 2.137 . S
Co28 O41 2.244 1_556 S
O29 Co28 2.216 1_554 S
O29 C36 1.247 1_554 S
O30 Co28 2.091 . S
O30 C36 1.261 . S
C31 O40 1.216 1_554 S
C31 O41 1.272 . S
O32 Co28 2.004 . S
O32 C37 1.259 . S
Co33 O34 2.061 . S
Co33 O39 2.052 . S
Co33 O41 2.135 . S
O34 Co33 2.061 . S
O34 C37 1.235 1_554 S
C35 O38 1.238 . S
C35 O39 1.241 . S
C36 O29 1.247 1_556 S
C36 O30 1.261 . S
C37 O32 1.259 . S
C37 O34 1.235 1_556 S
O38 Co28 2.021 1_554 S
O38 C35 1.238 . S
O39 Co33 2.052 . S
O39 C35 1.241 . S
O40 Co28 2.137 . S
O40 C31 1.216 1_556 S
O41 Co28 2.244 1_554 S
O41 C31 1.272 . S
O41 Co33 2.135 . S
Co42 O43 2.216 . S
Co42 O44 2.091 . S
Co42 O46 2.004 . S
Co42 O52 2.021 . S
Co42 O54 2.137 . S
Co42 O55 2.244 . S
O43 Co42 2.216 . S
O43 C50 1.247 . S
O44 Co42 2.091 . S
O44 C50 1.261 . S
C45 O54 1.247 . S
C45 O55 1.272 . S
O46 Co42 2.004 . S
O46 C51 1.259 . S
Co47 O48 2.061 . S
Co47 O53 2.052 . S
Co47 O55 2.135 . S
O48 Co47 2.061 . S
O48 C51 1.235 . S
C49 O52 1.238 . S
C49 O53 1.241 . S
C50 O43 1.247 . S
C50 O44 1.261 . S
C51 O46 1.259 . S
C51 O48 1.235 . S
O52 Co42 2.021 . S
O52 C49 1.238 . S
O53 Co47 2.052 . S
O53 C49 1.241 . S
O54 Co42 2.137 . S
O54 C45 1.247 . S
O55 Co42 2.244 . S
O55 C45 1.272 . S
O55 Co47 2.135 . S
Co56 O57 2.216 1_455 S
Co56 O58 2.091 . S
Co56 O60 2.004 . S
Co56 O66 2.021 . S
Co56 O68 2.137 . S
Co56 O69 2.244 . S
O57 Co56 2.216 1_655 S
O57 C64 1.247 . S
O58 Co56 2.091 . S
O58 C64 1.261 1_455 S
C59 O68 1.247 . S
C59 O69 1.272 . S
O60 Co56 2.004 . S
O60 C65 1.259 . S
Co61 O62 2.061 . S
Co61 O67 2.052 . S
Co61 O69 2.135 . S
O62 Co61 2.061 . S
O62 C65 1.235 . S
C63 O66 1.238 . S
C63 O67 1.241 . S
C64 O57 1.247 . S
C64 O58 1.261 1_655 S
C65 O60 1.259 . S
C65 O62 1.235 . S
O66 Co56 2.021 . S
O66 C63 1.238 . S
O67 Co61 2.052 . S
O67 C63 1.241 . S
O68 Co56 2.137 . S
O68 C59 1.247 . S
O69 Co56 2.244 . S
O69 C59 1.272 . S
O69 Co61 2.135 . S
Co70 O71 2.216 . S
Co70 O72 2.091 . S
Co70 O74 2.004 . S
Co70 O80 2.021 . S
Co70 O82 2.137 . S
Co70 O83 2.244 . S
O71 Co70 2.216 . S
O71 C78 1.247 . S
O72 Co70 2.091 . S
O72 C78 1.261 . S
C73 O82 1.247 . S
C73 O83 1.272 . S
O74 Co70 2.004 . S
O74 C79 1.259 . S
Co75 O76 2.061 . S
Co75 O81 2.052 . S
Co75 O83 2.135 . S
O76 Co75 2.061 . S
O76 C79 1.235 . S
C77 O80 1.238 . S
C77 O81 1.241 . S
C78 O71 1.247 . S
C78 O72 1.261 . S
C79 O74 1.259 . S
C79 O76 1.235 . S
O80 Co70 2.021 . S
O80 C77 1.238 . S
O81 Co75 2.052 . S
O81 C77 1.241 . S
O82 Co70 2.137 . S
O82 C73 1.247 . S
O83 Co70 2.244 . S
O83 C73 1.272 . S
O83 Co75 2.135 . S
Co84 O85 2.216 . S
Co84 O86 2.091 . S
Co84 O88 2.004 . S
Co84 O94 2.021 . S
Co84 O96 2.137 . S
Co84 O97 2.244 . S
O85 Co84 2.216 . S
O85 C92 1.247 . S
O86 Co84 2.091 . S
O86 C92 1.261 . S
C87 O96 1.247 . S
C87 O97 1.272 . S
O88 Co84 2.004 . S
O88 C93 1.259 . S
Co89 O90 2.061 . S
Co89 O95 2.052 . S
Co89 O97 2.135 . S
O90 Co89 2.061 . S
O90 C93 1.235 . S
C91 O94 1.238 . S
C91 O95 1.241 . S
C92 O85 1.247 . S
C92 O86 1.261 . S
C93 O88 1.259 . S
C93 O90 1.235 . S
O94 Co84 2.021 . S
O94 C91 1.238 . S
O95 Co89 2.052 . S
O95 C91 1.241 . S
O96 Co84 2.137 . S
O96 C87 1.247 . S
O97 Co84 2.244 . S
O97 C87 1.272 . S
O97 Co89 2.135 . S
Co98 O99 2.216 . S
Co98 O100 2.091 . S
Co98 O102 2.004 . S
Co98 O108 2.021 . S
Co98 O110 2.137 . S
Co98 O111 2.244 . S
O99 Co98 2.216 . S
O99 C106 1.247 . S
O100 Co98 2.091 . S
O100 C106 1.261 . S
C101 O110 1.247 . S
C101 O111 1.272 . S
O102 Co98 2.004 . S
O102 C107 1.259 1_455 S
Co103 O104 2.061 1_455 S
Co103 O109 2.052 . S
Co103 O111 2.135 . S
O104 Co103 2.061 1_655 S
O104 C107 1.235 . S
C105 O108 1.238 . S
C105 O109 1.241 . S
C106 O99 1.247 . S
C106 O100 1.261 . S
C107 O102 1.259 1_655 S
C107 O104 1.235 . S
O108 Co98 2.021 . S
O108 C105 1.238 . S
O109 Co103 2.052 . S
O109 C105 1.241 . S
O110 Co98 2.137 . S
O110 C101 1.247 . S
O111 Co98 2.244 . S
O111 C101 1.272 . S
O111 Co103 2.135 . S
Co112 O113 2.216 . S
Co112 O114 2.091 . S
Co112 O116 2.004 . S
Co112 O122 2.021 . S
Co112 O124 2.137 . S
Co112 O125 2.244 . S
O113 Co112 2.216 . S
O113 C120 1.247 . S
O114 Co112 2.091 . S
O114 C120 1.261 . S
C115 O124 1.247 . S
C115 O125 1.272 . S
O116 Co112 2.004 . S
O116 C121 1.259 . S
Co117 O118 2.061 . S
Co117 O123 2.052 . S
Co117 O125 2.135 . S
O118 Co117 2.061 . S
O118 C121 1.235 . S
C119 O122 1.238 . S
C119 O123 1.241 . S
C120 O113 1.247 . S
C120 O114 1.261 . S
C121 O116 1.259 . S
C121 O118 1.235 . S
O122 Co112 2.021 . S
O122 C119 1.238 . S
O123 Co117 2.052 . S
O123 C119 1.241 . S
O124 Co112 2.137 . S
O124 C115 1.247 . S
O125 Co112 2.244 . S
O125 C115 1.272 . S
O125 Co117 2.135 . S
Co126 O127 2.216 . S
Co126 O128 2.091 . S
Co126 O130 2.004 . S
Co126 O136 2.021 . S
Co126 O138 2.137 . S
Co126 O139 2.244 . S
O127 Co126 2.216 . S
O127 C134 1.247 . S
O128 Co126 2.091 . S
O128 C134 1.261 . S
C129 O138 1.247 . S
C129 O139 1.272 . S
O130 Co126 2.004 . S
O130 C135 1.259 . S
Co131 O132 2.061 . S
Co131 O137 2.052 . S
Co131 O139 2.135 . S
O132 Co131 2.061 . S
O132 C135 1.235 . S
C133 O136 1.238 . S
C133 O137 1.241 . S
C134 O127 1.247 . S
C134 O128 1.261 . S
C135 O130 1.259 . S
C135 O132 1.235 . S
O136 Co126 2.021 . S
O136 C133 1.238 . S
O137 Co131 2.052 . S
O137 C133 1.241 . S
O138 Co126 2.137 . S
O138 C129 1.247 . S
O139 Co126 2.244 . S
O139 C129 1.272 . S
O139 Co131 2.135 . S
Co140 O141 2.185 1_545 S
Co140 O142 2.091 . S
Co140 O144 2.004 . S
Co140 O150 2.021 . S
Co140 O152 2.137 . S
Co140 O153 2.244 . S
O141 Co140 2.185 1_565 S
O141 C148 1.250 . S
O142 Co140 2.091 . S
O142 C148 1.250 1_545 S
C143 O152 1.247 . S
C143 O153 1.272 . S
O144 Co140 2.004 . S
O144 C149 1.259 . S
Co145 O146 2.061 . S
Co145 O151 2.052 . S
Co145 O153 2.135 . S
O146 Co145 2.061 . S
O146 C149 1.235 . S
C147 O150 1.238 . S
C147 O151 1.241 . S
C148 O141 1.250 . S
C148 O142 1.250 1_565 S
C149 O144 1.259 . S
C149 O146 1.235 . S
O150 Co140 2.021 . S
O150 C147 1.238 . S
O151 Co145 2.052 . S
O151 C147 1.241 . S
O152 Co140 2.137 . S
O152 C143 1.247 . S
O153 Co140 2.244 . S
O153 C143 1.272 . S
O153 Co145 2.135 . S
Co154 O155 2.216 . S
Co154 O156 2.091 . S
Co154 O158 2.004 . S
Co154 O164 2.021 . S
Co154 O166 2.137 . S
Co154 O167 2.244 . S
O155 Co154 2.216 . S
O155 C162 1.247 . S
O156 Co154 2.091 . S
O156 C162 1.261 . S
C157 O166 1.247 . S
C157 O167 1.272 . S
O158 Co154 2.004 . S
O158 C163 1.259 . S
Co159 O160 2.061 . S
Co159 O165 2.052 . S
Co159 O167 2.135 . S
O160 Co159 2.061 . S
O160 C163 1.235 . S
C161 O164 1.238 . S
C161 O165 1.241 . S
C162 O155 1.247 . S
C162 O156 1.261 . S
C163 O158 1.259 . S
C163 O160 1.235 . S
O164 Co154 2.021 . S
O164 C161 1.238 . S
O165 Co159 2.052 . S
O165 C161 1.241 . S
O166 Co154 2.137 . S
O166 C157 1.247 . S
O167 Co154 2.244 . S
O167 C157 1.272 . S
O167 Co159 2.135 . S
Co168 O169 2.216 . S
Co168 O170 2.091 . S
Co168 O172 2.004 . S
Co168 O178 2.021 . S
Co168 O180 2.137 . S
Co168 O181 2.244 . S
O169 Co168 2.216 . S
O169 C176 1.247 . S
O170 Co168 2.091 . S
O170 C176 1.261 . S
C171 O180 1.247 . S
C171 O181 1.272 . S
O172 Co168 2.004 . S
O172 C177 1.259 . S
Co173 O174 2.061 . S
Co173 O179 2.052 . S
Co173 O181 2.135 . S
O174 Co173 2.061 . S
O174 C177 1.235 . S
C175 O178 1.238 . S
C175 O179 1.241 . S
C176 O169 1.247 . S
C176 O170 1.261 . S
C177 O172 1.259 . S
C177 O174 1.235 . S
O178 Co168 2.021 . S
O178 C175 1.238 . S
O179 Co173 2.052 . S
O179 C175 1.241 . S
O180 Co168 2.137 . S
O180 C171 1.247 . S
O181 Co168 2.244 . S
O181 C171 1.272 . S
O181 Co173 2.135 . S
Co182 O183 2.216 . S
Co182 O184 2.091 . S
Co182 O186 2.004 . S
Co182 O192 2.021 . S
Co182 O194 2.137 . S
Co182 O195 2.244 . S
O183 Co182 2.216 . S
O183 C190 1.247 . S
O184 Co182 2.091 . S
O184 C190 1.261 . S
C185 O194 1.247 . S
C185 O195 1.272 . S
O186 Co182 2.004 . S
O186 C191 1.259 . S
Co187 O188 2.061 . S
Co187 O193 2.052 . S
Co187 O195 2.135 . S
O188 Co187 2.061 . S
O188 C191 1.235 . S
C189 O192 1.238 . S
C189 O193 1.241 . S
C190 O183 1.247 . S
C190 O184 1.261 . S
C191 O186 1.259 . S
C191 O188 1.235 . S
O192 Co182 2.021 . S
O192 C189 1.238 . S
O193 Co187 2.052 . S
O193 C189 1.241 . S
O194 Co182 2.137 . S
O194 C185 1.247 . S
O195 Co182 2.244 . S
O195 C185 1.272 . S
O195 Co187 2.135 . S
Co196 O197 2.216 . S
Co196 O198 2.091 . S
Co196 O200 2.004 . S
Co196 O206 2.021 . S
Co196 O208 2.137 . S
Co196 O209 2.244 . S
O197 Co196 2.216 . S
O197 C204 1.247 . S
O198 Co196 2.091 . S
O198 C204 1.261 . S
C199 O208 1.247 . S
C199 O209 1.272 . S
O200 Co196 2.004 . S
O200 C205 1.259 . S
Co201 O202 2.061 . S
Co201 O207 2.052 . S
Co201 O209 2.135 . S
O202 Co201 2.061 . S
O202 C205 1.235 . S
C203 O206 1.238 . S
C203 O207 1.241 . S
C204 O197 1.247 . S
C204 O198 1.261 . S
C205 O200 1.259 . S
C205 O202 1.235 . S
O206 Co196 2.021 . S
O206 C203 1.238 . S
O207 Co201 2.052 . S
O207 C203 1.241 . S
O208 Co196 2.137 . S
O208 C199 1.247 . S
O209 Co196 2.244 . S
O209 C199 1.272 . S
O209 Co201 2.135 . S
Co210 O211 2.216 . S
Co210 O212 2.091 1_565 S
Co210 O214 2.004 1_565 S
Co210 O220 2.021 . S
Co210 O222 2.137 . S
Co210 O223 2.244 . S
O211 Co210 2.216 . S
O211 C218 1.293 . S
O212 Co210 2.091 1_545 S
O212 C218 1.238 1_545 S
C213 O222 1.247 . S
C213 O223 1.272 . S
O214 Co210 2.004 1_545 S
O214 C219 1.276 . S
Co215 O216 2.061 . S
Co215 O221 2.052 . S
Co215 O223 2.135 . S
O216 Co215 2.061 . S
O216 C219 1.204 1_565 S
C217 O220 1.238 . S
C217 O221 1.241 . S
C218 O211 1.293 . S
C218 O212 1.238 1_565 S
C219 O214 1.276 . S
C219 O216 1.204 1_545 S
O220 Co210 2.021 . S
O220 C217 1.238 . S
O221 Co215 2.052 . S
O221 C217 1.241 . S
O222 Co210 2.137 . S
O222 C213 1.247 . S
O223 Co210 2.244 . S
O223 C213 1.272 . S
O223 Co215 2.135 . S
Co224 O225 2.216 . S
Co224 O226 2.091 . S
Co224 O228 2.004 . S
Co224 O234 2.021 . S
Co224 O236 2.137 . S
Co224 O237 2.244 . S
O225 Co224 2.216 . S
O225 C232 1.247 . S
O226 Co224 2.091 . S
O226 C232 1.261 . S
C227 O236 1.247 . S
C227 O237 1.272 . S
O228 Co224 2.004 . S
O228 C233 1.259 . S
Co229 O230 2.061 . S
Co229 O235 2.052 . S
Co229 O237 2.135 . S
O230 Co229 2.061 . S
O230 C233 1.235 . S
C231 O234 1.238 . S
C231 O235 1.241 . S
C232 O225 1.247 . S
C232 O226 1.261 . S
C233 O228 1.259 . S
C233 O230 1.235 . S
O234 Co224 2.021 . S
O234 C231 1.238 . S
O235 Co229 2.052 . S
O235 C231 1.241 . S
O236 Co224 2.137 . S
O236 C227 1.247 . S
O237 Co224 2.244 . S
O237 C227 1.272 . S
O237 Co229 2.135 . S
Co238 O239 2.216 . S
Co238 O240 2.091 . S
Co238 O242 2.004 . S
Co238 O248 2.021 . S
Co238 O250 2.137 . S
Co238 O251 2.244 . S
O239 Co238 2.216 . S
O239 C246 1.247 . S
O240 Co238 2.091 . S
O240 C246 1.261 . S
C241 O250 1.247 . S
C241 O251 1.272 . S
O242 Co238 2.004 . S
O242 C247 1.259 . S
Co243 O244 2.061 . S
Co243 O249 2.052 . S
Co243 O251 2.135 . S
O244 Co243 2.061 . S
O244 C247 1.235 . S
C245 O248 1.238 . S
C245 O249 1.241 . S
C246 O239 1.247 . S
C246 O240 1.261 . S
C247 O242 1.259 . S
C247 O244 1.235 . S
O248 Co238 2.021 . S
O248 C245 1.238 . S
O249 Co243 2.052 . S
O249 C245 1.241 . S
O250 Co238 2.137 . S
O250 C241 1.247 . S
O251 Co238 2.244 . S
O251 C241 1.272 . S
O251 Co243 2.135 . S
Co252 O253 2.216 . S
Co252 O254 2.091 . S
Co252 O256 2.004 . S
Co252 O262 2.021 . S
Co252 O264 2.137 . S
Co252 O265 2.244 . S
O253 Co252 2.216 . S
O253 C260 1.247 . S
O254 Co252 2.091 . S
O254 C260 1.261 . S
C255 O264 1.247 . S
C255 O265 1.272 . S
O256 Co252 2.004 . S
O256 C261 1.259 . S
Co257 O258 2.061 . S
Co257 O263 2.052 . S
Co257 O265 2.135 . S
O258 Co257 2.061 . S
O258 C261 1.235 . S
C259 O262 1.238 . S
C259 O263 1.241 . S
C260 O253 1.247 . S
C260 O254 1.261 . S
C261 O256 1.259 . S
C261 O258 1.235 . S
O262 Co252 2.021 . S
O262 C259 1.238 . S
O263 Co257 2.052 . S
O263 C259 1.241 . S
O264 Co252 2.137 . S
O264 C255 1.247 . S
O265 Co252 2.244 . S
O265 C255 1.272 . S
O265 Co257 2.135 . S
Co266 O267 2.216 . S
Co266 O268 2.091 . S
Co266 O270 2.004 1_565 S
Co266 O276 2.021 . S
Co266 O278 2.137 . S
Co266 O279 2.244 1_565 S
O267 Co266 2.216 . S
O267 C274 1.247 . S
O268 Co266 2.091 . S
O268 C274 1.261 . S
C269 O278 1.247 1_545 S
C269 O279 1.272 . S
O270 Co266 2.004 1_545 S
O270 C275 1.259 . S
Co271 O272 2.061 . S
Co271 O277 2.052 . S
Co271 O279 2.135 . S
O272 Co271 2.061 . S
O272 C275 1.235 . S
C273 O276 1.258 . S
C273 O277 1.216 1_565 S
C274 O267 1.247 . S
C274 O268 1.261 . S
C275 O270 1.259 . S
C275 O272 1.235 . S
O276 Co266 2.021 . S
O276 C273 1.258 . S
O277 Co271 2.052 . S
O277 C273 1.216 1_545 S
O278 Co266 2.137 . S
O278 C269 1.247 1_565 S
O279 Co266 2.244 1_545 S
O279 C269 1.272 . S
O279 Co271 2.135 . S
Co280 O281 2.216 1_556 S
Co280 O282 2.091 . S
Co280 O284 2.004 . S
Co280 O290 2.021 1_556 S
Co280 O292 2.137 . S
Co280 O293 2.244 . S
O281 Co280 2.216 1_554 S
O281 C288 1.247 . S
O282 Co280 2.091 . S
O282 C288 1.261 1_556 S
C283 O292 1.247 . S
C283 O293 1.272 . S
O284 Co280 2.004 . S
O284 C289 1.259 . S
Co285 O286 2.061 1_554 S
Co285 O291 2.052 . S
Co285 O293 2.135 1_554 S
O286 Co285 2.061 1_556 S
O286 C289 1.235 . S
C287 O290 1.238 . S
C287 O291 1.241 . S
C288 O281 1.247 . S
C288 O282 1.261 1_554 S
C289 O284 1.259 . S
C289 O286 1.235 . S
O290 Co280 2.021 1_554 S
O290 C287 1.238 . S
O291 Co285 2.052 . S
O291 C287 1.241 . S
O292 Co280 2.137 . S
O292 C283 1.247 . S
O293 Co280 2.244 . S
O293 C283 1.272 . S
O293 Co285 2.135 1_556 S
Co294 O295 2.216 . S
Co294 O296 2.091 . S
Co294 O298 2.004 . S
Co294 O304 2.021 . S
Co294 O306 2.137 . S
Co294 O307 2.244 . S
O295 Co294 2.216 . S
O295 C302 1.247 . S
O296 Co294 2.091 . S
O296 C302 1.261 . S
C297 O306 1.247 . S
C297 O307 1.272 . S
O298 Co294 2.004 . S
O298 C303 1.259 . S
Co299 O300 2.061 . S
Co299 O305 2.052 . S
Co299 O307 2.135 . S
O300 Co299 2.061 . S
O300 C303 1.235 . S
C301 O304 1.238 . S
C301 O305 1.241 . S
C302 O295 1.247 . S
C302 O296 1.261 . S
C303 O298 1.259 . S
C303 O300 1.235 . S
O304 Co294 2.021 . S
O304 C301 1.238 . S
O305 Co299 2.052 . S
O305 C301 1.241 . S
O306 Co294 2.137 . S
O306 C297 1.247 . S
O307 Co294 2.244 . S
O307 C297 1.272 . S
O307 Co299 2.135 . S
Co308 O309 2.216 . S
Co308 O310 2.091 . S
Co308 O312 2.004 . S
Co308 O318 2.021 . S
Co308 O320 2.137 . S
Co308 O321 2.244 . S
O309 Co308 2.216 . S
O309 C316 1.247 . S
O310 Co308 2.091 . S
O310 C316 1.261 . S
C311 O320 1.247 . S
C311 O321 1.272 . S
O312 Co308 2.004 . S
O312 C317 1.259 . S
Co313 O314 2.061 . S
Co313 O319 2.052 . S
Co313 O321 2.135 . S
O314 Co313 2.061 . S
O314 C317 1.235 . S
C315 O318 1.238 . S
C315 O319 1.241 . S
C316 O309 1.247 . S
C316 O310 1.261 . S
C317 O312 1.259 . S
C317 O314 1.235 . S
O318 Co308 2.021 . S
O318 C315 1.238 . S
O319 Co313 2.052 . S
O319 C315 1.241 . S
O320 Co308 2.137 . S
O320 C311 1.247 . S
O321 Co308 2.244 . S
O321 C311 1.272 . S
O321 Co313 2.135 . S
Co322 O323 2.216 . S
Co322 O324 2.091 . S
Co322 O326 2.004 . S
Co322 O332 2.021 . S
Co322 O334 2.137 . S
Co322 O335 2.244 . S
O323 Co322 2.216 . S
O323 C330 1.247 . S
O324 Co322 2.091 . S
O324 C330 1.261 . S
C325 O334 1.247 . S
C325 O335 1.272 . S
O326 Co322 2.004 . S
O326 C331 1.259 . S
Co327 O328 2.061 . S
Co327 O333 2.052 . S
Co327 O335 2.135 . S
O328 Co327 2.061 . S
O328 C331 1.235 . S
C329 O332 1.238 . S
C329 O333 1.241 . S
C330 O323 1.247 . S
C330 O324 1.261 . S
C331 O326 1.259 . S
C331 O328 1.235 . S
O332 Co322 2.021 . S
O332 C329 1.238 . S
O333 Co327 2.052 . S
O333 C329 1.241 . S
O334 Co322 2.137 . S
O334 C325 1.247 . S
O335 Co322 2.244 . S
O335 C325 1.272 . S
O335 Co327 2.135 . S
Nd336 C338 2.836 . S
Nd336 O356 2.500 . S
Nd336 O357 2.492 . S
Nd336 O358 2.487 . S
Nd336 O359 2.682 . S
Nd336 O360 2.410 . S
Nd336 O365 2.414 . S
Nd336 O367 2.424 . S
Nd337 C347 2.836 1_545 S
Nd337 O359 2.414 . S
Nd337 O361 2.424 1_455 S
Nd337 O362 2.500 1_545 S
Nd337 O363 2.527 . S
Nd337 O364 2.487 . S
Nd337 O365 2.682 . S
Nd337 O366 2.410 . S
C338 Nd336 2.836 . S
C338 C339 1.498 . S
C338 O356 1.258 . S
C338 O357 1.239 . S
C339 C338 1.498 . S
C339 C340 1.366 . S
C339 C344 1.407 . S
C340 C339 1.366 . S
C340 C341 1.392 . S
C340 H368 0.930 . S
C341 C340 1.392 . S
C341 C342 1.398 . S
C341 H369 0.929 . S
C342 C341 1.398 . S
C342 C343 1.352 . S
C343 C342 1.352 . S
C343 C344 1.384 . S
C343 H370 0.930 . S
C344 C339 1.407 . S
C344 C343 1.384 . S
C344 H371 0.929 . S
C345 O358 1.241 . S
C345 O359 1.273 . S
C346 O360 1.229 1_655 S
C346 O361 1.272 . S
C347 Nd337 2.836 1_565 S
C347 C348 1.498 . S
C347 O362 1.258 . S
C347 O363 1.219 1_565 S
C348 C347 1.498 . S
C348 C349 1.366 . S
C348 C353 1.407 . S
C349 C348 1.366 . S
C349 C350 1.392 . S
C349 H372 0.930 . S
C350 C349 1.392 . S
C350 C351 1.398 . S
C350 H373 0.929 . S
C351 C350 1.398 . S
C351 C352 1.352 . S
C352 C351 1.352 . S
C352 C353 1.384 . S
C352 H374 0.930 . S
C353 C348 1.407 . S
C353 C352 1.384 . S
C353 H375 0.929 . S
C354 O364 1.241 . S
C354 O365 1.273 . S
C355 O366 1.251 . S
C355 O367 1.268 . S
O356 Nd336 2.500 . S
O356 C338 1.258 . S
O357 Nd336 2.492 . S
O357 C338 1.239 . S
O358 Nd336 2.487 . S
O358 C345 1.241 . S
O359 Nd336 2.682 . S
O359 Nd337 2.414 . S
O359 C345 1.273 . S
O360 Nd336 2.410 . S
O360 C346 1.229 1_455 S
O361 Nd337 2.424 1_655 S
O361 C346 1.272 . S
O362 Nd337 2.500 1_565 S
O362 C347 1.258 . S
O363 Nd337 2.527 . S
O363 C347 1.219 1_545 S
O364 Nd337 2.487 . S
O364 C354 1.241 . S
O365 Nd336 2.414 . S
O365 Nd337 2.682 . S
O365 C354 1.273 . S
O366 Nd337 2.410 . S
O366 C355 1.251 . S
O367 Nd336 2.424 . S
O367 C355 1.268 . S
H368 C340 0.930 . S
H369 C341 0.929 . S
H370 C343 0.930 . S
H371 C344 0.929 . S
H372 C349 0.930 . S
H373 C350 0.929 . S
H374 C352 0.930 . S
H375 C353 0.929 . S
Nd376 C378 2.836 . S
Nd376 O396 2.500 . S
Nd376 O397 2.492 . S
Nd376 O398 2.487 . S
Nd376 O399 2.682 . S
Nd376 O400 2.410 . S
Nd376 O405 2.414 . S
Nd376 O407 2.424 . S
Nd377 C387 2.836 . S
Nd377 O399 2.414 . S
Nd377 O401 2.424 . S
Nd377 O402 2.500 . S
Nd377 O403 2.492 . S
Nd377 O404 2.487 . S
Nd377 O405 2.682 . S
Nd377 O406 2.410 . S
C378 Nd376 2.836 . S
C378 C379 1.498 . S
C378 O396 1.258 . S
C378 O397 1.239 . S
C379 C378 1.498 . S
C379 C380 1.366 . S
C379 C384 1.407 . S
C380 C379 1.366 . S
C380 C381 1.392 . S
C380 H408 0.930 . S
C381 C380 1.392 . S
C381 C382 1.398 . S
C381 H409 0.929 . S
C382 C381 1.398 . S
C382 C383 1.352 . S
C383 C382 1.352 . S
C383 C384 1.384 . S
C383 H410 0.930 . S
C384 C379 1.407 . S
C384 C383 1.384 . S
C384 H411 0.929 . S
C385 O398 1.241 . S
C385 O399 1.273 . S
C386 O400 1.251 . S
C386 O401 1.268 . S
C387 Nd377 2.836 . S
C387 C388 1.498 . S
C387 O402 1.258 . S
C387 O403 1.239 . S
C388 C387 1.498 . S
C388 C389 1.366 . S
C388 C393 1.407 . S
C389 C388 1.366 . S
C389 C390 1.392 . S
C389 H412 0.930 . S
C390 C389 1.392 . S
C390 C391 1.398 . S
C390 H413 0.929 . S
C391 C390 1.398 . S
C391 C392 1.352 . S
C392 C391 1.352 . S
C392 C393 1.384 . S
C392 H414 0.930 . S
C393 C388 1.407 . S
C393 C392 1.384 . S
C393 H415 0.929 . S
C394 O404 1.241 . S
C394 O405 1.273 . S
C395 O406 1.251 . S
C395 O407 1.268 . S
O396 Nd376 2.500 . S
O396 C378 1.258 . S
O397 Nd376 2.492 . S
O397 C378 1.239 . S
O398 Nd376 2.487 . S
O398 C385 1.241 . S
O399 Nd376 2.682 . S
O399 Nd377 2.414 . S
O399 C385 1.273 . S
O400 Nd376 2.410 . S
O400 C386 1.251 . S
O401 Nd377 2.424 . S
O401 C386 1.268 . S
O402 Nd377 2.500 . S
O402 C387 1.258 . S
O403 Nd377 2.492 . S
O403 C387 1.239 . S
O404 Nd377 2.487 . S
O404 C394 1.241 . S
O405 Nd376 2.414 . S
O405 Nd377 2.682 . S
O405 C394 1.273 . S
O406 Nd377 2.410 . S
O406 C395 1.251 . S
O407 Nd376 2.424 . S
O407 C395 1.268 . S
H408 C380 0.930 . S
H409 C381 0.929 . S
H410 C383 0.930 . S
H411 C384 0.929 . S
H412 C389 0.930 . S
H413 C390 0.929 . S
H414 C392 0.930 . S
H415 C393 0.929 . S
Nd416 C418 2.836 . S
Nd416 O436 2.500 . S
Nd416 O437 2.492 . S
Nd416 O438 2.487 . S
Nd416 O439 2.682 . S
Nd416 O440 2.410 . S
Nd416 O445 2.414 . S
Nd416 O447 2.424 . S
Nd417 C427 2.836 . S
Nd417 O439 2.414 . S
Nd417 O441 2.424 . S
Nd417 O442 2.500 . S
Nd417 O443 2.492 . S
Nd417 O444 2.487 . S
Nd417 O445 2.682 . S
Nd417 O446 2.410 . S
C418 Nd416 2.836 . S
C418 C419 1.498 . S
C418 O436 1.258 . S
C418 O437 1.239 . S
C419 C418 1.498 . S
C419 C420 1.366 . S
C419 C424 1.407 . S
C420 C419 1.366 . S
C420 C421 1.392 . S
C420 H448 0.930 . S
C421 C420 1.392 . S
C421 C422 1.398 . S
C421 H449 0.929 . S
C422 C421 1.398 . S
C422 C423 1.352 . S
C423 C422 1.352 . S
C423 C424 1.384 . S
C423 H450 0.930 . S
C424 C419 1.407 . S
C424 C423 1.384 . S
C424 H451 0.929 . S
C425 O438 1.241 . S
C425 O439 1.273 . S
C426 O440 1.251 . S
C426 O441 1.268 . S
C427 Nd417 2.836 . S
C427 C428 1.498 . S
C427 O442 1.258 . S
C427 O443 1.239 . S
C428 C427 1.498 . S
C428 C429 1.366 . S
C428 C433 1.407 . S
C429 C428 1.366 . S
C429 C430 1.392 . S
C429 H452 0.930 . S
C430 C429 1.392 . S
C430 C431 1.398 . S
C430 H453 0.929 . S
C431 C430 1.398 . S
C431 C432 1.352 . S
C432 C431 1.352 . S
C432 C433 1.384 . S
C432 H454 0.930 . S
C433 C428 1.407 . S
C433 C432 1.384 . S
C433 H455 0.929 . S
C434 O444 1.241 . S
C434 O445 1.273 . S
C435 O446 1.251 . S
C435 O447 1.268 . S
O436 Nd416 2.500 . S
O436 C418 1.258 . S
O437 Nd416 2.492 . S
O437 C418 1.239 . S
O438 Nd416 2.487 . S
O438 C425 1.241 . S
O439 Nd416 2.682 . S
O439 Nd417 2.414 . S
O439 C425 1.273 . S
O440 Nd416 2.410 . S
O440 C426 1.251 . S
O441 Nd417 2.424 . S
O441 C426 1.268 . S
O442 Nd417 2.500 . S
O442 C427 1.258 . S
O443 Nd417 2.492 . S
O443 C427 1.239 . S
O444 Nd417 2.487 . S
O444 C434 1.241 . S
O445 Nd416 2.414 . S
O445 Nd417 2.682 . S
O445 C434 1.273 . S
O446 Nd417 2.410 . S
O446 C435 1.251 . S
O447 Nd416 2.424 . S
O447 C435 1.268 . S
H448 C420 0.930 . S
H449 C421 0.929 . S
H450 C423 0.930 . S
H451 C424 0.929 . S
H452 C429 0.930 . S
H453 C430 0.929 . S
H454 C432 0.930 . S
H455 C433 0.929 . S
Nd456 C458 2.836 . S
Nd456 O476 2.500 . S
Nd456 O477 2.492 . S
Nd456 O478 2.487 . S
Nd456 O479 2.682 . S
Nd456 O480 2.410 . S
Nd456 O485 2.414 . S
Nd456 O487 2.424 . S
Nd457 C467 2.836 . S
Nd457 O479 2.414 . S
Nd457 O481 2.424 . S
Nd457 O482 2.500 . S
Nd457 O483 2.492 . S
Nd457 O484 2.487 . S
Nd457 O485 2.682 . S
Nd457 O486 2.410 . S
C458 Nd456 2.836 . S
C458 C459 1.498 . S
C458 O476 1.258 . S
C458 O477 1.239 . S
C459 C458 1.498 . S
C459 C460 1.366 . S
C459 C464 1.407 . S
C460 C459 1.366 . S
C460 C461 1.392 . S
C460 H488 0.930 . S
C461 C460 1.392 . S
C461 C462 1.398 . S
C461 H489 0.929 . S
C462 C461 1.398 . S
C462 C463 1.352 . S
C463 C462 1.352 . S
C463 C464 1.384 . S
C463 H490 0.930 . S
C464 C459 1.407 . S
C464 C463 1.384 . S
C464 H491 0.929 . S
C465 O478 1.241 . S
C465 O479 1.273 . S
C466 O480 1.251 . S
C466 O481 1.268 . S
C467 Nd457 2.836 . S
C467 C468 1.498 . S
C467 O482 1.258 . S
C467 O483 1.239 . S
C468 C467 1.498 . S
C468 C469 1.366 . S
C468 C473 1.407 . S
C469 C468 1.366 . S
C469 C470 1.392 . S
C469 H492 0.930 . S
C470 C469 1.392 . S
C470 C471 1.398 . S
C470 H493 0.929 . S
C471 C470 1.398 . S
C471 C472 1.352 . S
C472 C471 1.352 . S
C472 C473 1.384 . S
C472 H494 0.930 . S
C473 C468 1.407 . S
C473 C472 1.384 . S
C473 H495 0.929 . S
C474 O484 1.241 . S
C474 O485 1.273 . S
C475 O486 1.251 . S
C475 O487 1.268 . S
O476 Nd456 2.500 . S
O476 C458 1.258 . S
O477 Nd456 2.492 . S
O477 C458 1.239 . S
O478 Nd456 2.487 . S
O478 C465 1.241 . S
O479 Nd456 2.682 . S
O479 Nd457 2.414 . S
O479 C465 1.273 . S
O480 Nd456 2.410 . S
O480 C466 1.251 . S
O481 Nd457 2.424 . S
O481 C466 1.268 . S
O482 Nd457 2.500 . S
O482 C467 1.258 . S
O483 Nd457 2.492 . S
O483 C467 1.239 . S
O484 Nd457 2.487 . S
O484 C474 1.241 . S
O485 Nd456 2.414 . S
O485 Nd457 2.682 . S
O485 C474 1.273 . S
O486 Nd457 2.410 . S
O486 C475 1.251 . S
O487 Nd456 2.424 . S
O487 C475 1.268 . S
H488 C460 0.930 . S
H489 C461 0.929 . S
H490 C463 0.930 . S
H491 C464 0.929 . S
H492 C469 0.930 . S
H493 C470 0.929 . S
H494 C472 0.930 . S
H495 C473 0.929 . S
Nd496 C498 2.836 . S
Nd496 O516 2.500 . S
Nd496 O517 2.492 . S
Nd496 O518 2.487 . S
Nd496 O519 2.682 . S
Nd496 O520 2.410 . S
Nd496 O525 2.414 . S
Nd496 O527 2.424 . S
Nd497 C507 2.836 1_545 S
Nd497 O519 2.414 . S
Nd497 O521 2.424 . S
Nd497 O522 2.500 . S
Nd497 O523 2.492 1_545 S
Nd497 O524 2.487 1_455 S
Nd497 O525 2.682 . S
Nd497 O526 2.410 . S
C498 Nd496 2.836 . S
C498 C499 1.498 . S
C498 O516 1.258 . S
C498 O517 1.239 . S
C499 C498 1.498 . S
C499 C500 1.366 . S
C499 C504 1.407 . S
C500 C499 1.366 . S
C500 C501 1.392 1_455 S
C500 H528 0.930 1_455 S
C501 C500 1.392 1_655 S
C501 C502 1.398 1_655 S
C501 H529 0.929 . S
C502 C501 1.398 1_455 S
C502 C503 1.352 . S
C503 C502 1.352 . S
C503 C504 1.384 . S
C503 H530 0.930 . S
C504 C499 1.407 . S
C504 C503 1.384 . S
C504 H531 0.929 . S
C505 O518 1.241 . S
C505 O519 1.273 . S
C506 O520 1.251 . S
C506 O521 1.268 . S
C507 Nd497 2.836 1_565 S
C507 C508 1.498 . S
C507 O522 1.258 1_565 S
C507 O523 1.239 . S
C508 C507 1.498 . S
C508 C509 1.366 . S
C508 C513 1.407 . S
C509 C508 1.366 . S
C509 C510 1.392 . S
C509 H532 0.930 . S
C510 C509 1.392 . S
C510 C511 1.398 . S
C510 H533 0.929 . S
C511 C510 1.398 . S
C511 C512 1.352 . S
C512 C511 1.352 . S
C512 C513 1.384 . S
C512 H534 0.930 . S
C513 C508 1.407 . S
C513 C512 1.384 . S
C513 H535 0.929 . S
C514 O524 1.241 . S
C514 O525 1.273 1_655 S
C515 O526 1.251 . S
C515 O527 1.268 . S
O516 Nd496 2.500 . S
O516 C498 1.258 . S
O517 Nd496 2.492 . S
O517 C498 1.239 . S
O518 Nd496 2.487 . S
O518 C505 1.241 . S
O519 Nd496 2.682 . S
O519 Nd497 2.414 . S
O519 C505 1.273 . S
O520 Nd496 2.410 . S
O520 C506 1.251 . S
O521 Nd497 2.424 . S
O521 C506 1.268 . S
O522 Nd497 2.500 . S
O522 C507 1.258 1_545 S
O523 Nd497 2.492 1_565 S
O523 C507 1.239 . S
O524 Nd497 2.487 1_655 S
O524 C514 1.241 . S
O525 Nd496 2.414 . S
O525 Nd497 2.682 . S
O525 C514 1.273 1_455 S
O526 Nd497 2.410 . S
O526 C515 1.251 . S
O527 Nd496 2.424 . S
O527 C515 1.268 . S
H528 C500 0.930 1_655 S
H529 C501 0.929 . S
H530 C503 0.930 . S
H531 C504 0.929 . S
H532 C509 0.930 . S
H533 C510 0.929 . S
H534 C512 0.930 . S
H535 C513 0.929 . S
Nd536 C538 2.836 . S
Nd536 O556 2.500 . S
Nd536 O557 2.492 . S
Nd536 O558 2.487 . S
Nd536 O559 2.682 . S
Nd536 O560 2.410 . S
Nd536 O565 2.414 . S
Nd536 O567 2.424 . S
Nd537 C547 2.836 . S
Nd537 O559 2.414 . S
Nd537 O561 2.424 . S
Nd537 O562 2.500 . S
Nd537 O563 2.492 . S
Nd537 O564 2.487 . S
Nd537 O565 2.682 . S
Nd537 O566 2.410 . S
C538 Nd536 2.836 . S
C538 C539 1.498 . S
C538 O556 1.258 . S
C538 O557 1.239 . S
C539 C538 1.498 . S
C539 C540 1.366 . S
C539 C544 1.407 . S
C540 C539 1.366 . S
C540 C541 1.392 . S
C540 H568 0.930 . S
C541 C540 1.392 . S
C541 C542 1.398 . S
C541 H569 0.929 . S
C542 C541 1.398 . S
C542 C543 1.352 . S
C543 C542 1.352 . S
C543 C544 1.384 . S
C543 H570 0.930 . S
C544 C539 1.407 . S
C544 C543 1.384 . S
C544 H571 0.929 . S
C545 O558 1.241 . S
C545 O559 1.273 . S
C546 O560 1.251 . S
C546 O561 1.268 . S
C547 Nd537 2.836 . S
C547 C548 1.498 . S
C547 O562 1.258 . S
C547 O563 1.239 . S
C548 C547 1.498 . S
C548 C549 1.366 . S
C548 C553 1.407 . S
C549 C548 1.366 . S
C549 C550 1.392 . S
C549 H572 0.930 . S
C550 C549 1.392 . S
C550 C551 1.398 . S
C550 H573 0.929 . S
C551 C550 1.398 . S
C551 C552 1.352 . S
C552 C551 1.352 . S
C552 C553 1.384 . S
C552 H574 0.930 . S
C553 C548 1.407 . S
C553 C552 1.384 . S
C553 H575 0.929 . S
C554 O564 1.241 . S
C554 O565 1.273 . S
C555 O566 1.251 . S
C555 O567 1.268 . S
O556 Nd536 2.500 . S
O556 C538 1.258 . S
O557 Nd536 2.492 . S
O557 C538 1.239 . S
O558 Nd536 2.487 . S
O558 C545 1.241 . S
O559 Nd536 2.682 . S
O559 Nd537 2.414 . S
O559 C545 1.273 . S
O560 Nd536 2.410 . S
O560 C546 1.251 . S
O561 Nd537 2.424 . S
O561 C546 1.268 . S
O562 Nd537 2.500 . S
O562 C547 1.258 . S
O563 Nd537 2.492 . S
O563 C547 1.239 . S
O564 Nd537 2.487 . S
O564 C554 1.241 . S
O565 Nd536 2.414 . S
O565 Nd537 2.682 . S
O565 C554 1.273 . S
O566 Nd537 2.410 . S
O566 C555 1.251 . S
O567 Nd536 2.424 . S
O567 C555 1.268 . S
H568 C540 0.930 . S
H569 C541 0.929 . S
H570 C543 0.930 . S
H571 C544 0.929 . S
H572 C549 0.930 . S
H573 C550 0.929 . S
H574 C552 0.930 . S
H575 C553 0.929 . S
Nd576 C578 2.836 . S
Nd576 O596 2.500 . S
Nd576 O597 2.492 . S
Nd576 O598 2.487 . S
Nd576 O599 2.682 . S
Nd576 O600 2.410 . S
Nd576 O605 2.414 . S
Nd576 O607 2.424 . S
Nd577 C587 2.836 . S
Nd577 O599 2.414 . S
Nd577 O601 2.424 . S
Nd577 O602 2.500 . S
Nd577 O603 2.492 . S
Nd577 O604 2.487 . S
Nd577 O605 2.682 . S
Nd577 O606 2.410 . S
C578 Nd576 2.836 . S
C578 C579 1.498 . S
C578 O596 1.258 . S
C578 O597 1.239 . S
C579 C578 1.498 . S
C579 C580 1.366 . S
C579 C584 1.407 . S
C580 C579 1.366 . S
C580 C581 1.392 . S
C580 H608 0.930 . S
C581 C580 1.392 . S
C581 C582 1.398 . S
C581 H609 0.929 . S
C582 C581 1.398 . S
C582 C583 1.352 . S
C583 C582 1.352 . S
C583 C584 1.384 . S
C583 H610 0.930 1_545 S
C584 C579 1.407 . S
C584 C583 1.384 . S
C584 H611 0.929 1_545 S
C585 O598 1.241 . S
C585 O599 1.273 . S
C586 O600 1.251 . S
C586 O601 1.268 . S
C587 Nd577 2.836 . S
C587 C588 1.498 . S
C587 O602 1.258 . S
C587 O603 1.239 . S
C588 C587 1.498 . S
C588 C589 1.366 . S
C588 C593 1.407 . S
C589 C588 1.366 . S
C589 C590 1.392 . S
C589 H612 0.930 . S
C590 C589 1.392 . S
C590 C591 1.398 . S
C590 H613 0.929 . S
C591 C590 1.398 . S
C591 C592 1.352 . S
C592 C591 1.352 . S
C592 C593 1.384 . S
C592 H614 0.930 . S
C593 C588 1.407 . S
C593 C592 1.384 . S
C593 H615 0.929 . S
C594 O604 1.241 . S
C594 O605 1.273 . S
C595 O606 1.251 . S
C595 O607 1.268 . S
O596 Nd576 2.500 . S
O596 C578 1.258 . S
O597 Nd576 2.492 . S
O597 C578 1.239 . S
O598 Nd576 2.487 . S
O598 C585 1.241 . S
O599 Nd576 2.682 . S
O599 Nd577 2.414 . S
O599 C585 1.273 . S
O600 Nd576 2.410 . S
O600 C586 1.251 . S
O601 Nd577 2.424 . S
O601 C586 1.268 . S
O602 Nd577 2.500 . S
O602 C587 1.258 . S
O603 Nd577 2.492 . S
O603 C587 1.239 . S
O604 Nd577 2.487 . S
O604 C594 1.241 . S
O605 Nd576 2.414 . S
O605 Nd577 2.682 . S
O605 C594 1.273 . S
O606 Nd577 2.410 . S
O606 C595 1.251 . S
O607 Nd576 2.424 . S
O607 C595 1.268 . S
H608 C580 0.930 . S
H609 C581 0.929 . S
H610 C583 0.930 1_565 S
H611 C584 0.929 1_565 S
H612 C589 0.930 . S
H613 C590 0.929 . S
H614 C592 0.930 . S
H615 C593 0.929 . S
Nd616 C618 2.836 . S
Nd616 O636 2.500 . S
Nd616 O637 2.492 . S
Nd616 O638 2.487 . S
Nd616 O639 2.682 . S
Nd616 O640 2.410 . S
Nd616 O645 2.414 . S
Nd616 O647 2.424 . S
Nd617 C627 2.836 . S
Nd617 O639 2.414 . S
Nd617 O641 2.424 . S
Nd617 O642 2.500 . S
Nd617 O643 2.492 . S
Nd617 O644 2.487 . S
Nd617 O645 2.682 . S
Nd617 O646 2.410 . S
C618 Nd616 2.836 . S
C618 C619 1.498 . S
C618 O636 1.258 . S
C618 O637 1.239 . S
C619 C618 1.498 . S
C619 C620 1.366 . S
C619 C624 1.407 . S
C620 C619 1.366 . S
C620 C621 1.392 . S
C620 H648 0.930 . S
C621 C620 1.392 . S
C621 C622 1.398 . S
C621 H649 0.929 . S
C622 C621 1.398 . S
C622 C623 1.352 . S
C623 C622 1.352 . S
C623 C624 1.384 . S
C623 H650 0.930 . S
C624 C619 1.407 . S
C624 C623 1.384 . S
C624 H651 0.929 . S
C625 O638 1.241 . S
C625 O639 1.273 . S
C626 O640 1.251 . S
C626 O641 1.268 . S
C627 Nd617 2.836 . S
C627 C628 1.498 . S
C627 O642 1.258 . S
C627 O643 1.239 . S
C628 C627 1.498 . S
C628 C629 1.366 . S
C628 C633 1.407 . S
C629 C628 1.366 . S
C629 C630 1.392 . S
C629 H652 0.930 . S
C630 C629 1.392 . S
C630 C631 1.398 . S
C630 H653 0.929 . S
C631 C630 1.398 . S
C631 C632 1.352 . S
C632 C631 1.352 . S
C632 C633 1.384 . S
C632 H654 0.930 . S
C633 C628 1.407 . S
C633 C632 1.384 . S
C633 H655 0.929 . S
C634 O644 1.241 . S
C634 O645 1.273 . S
C635 O646 1.251 . S
C635 O647 1.268 . S
O636 Nd616 2.500 . S
O636 C618 1.258 . S
O637 Nd616 2.492 . S
O637 C618 1.239 . S
O638 Nd616 2.487 . S
O638 C625 1.241 . S
O639 Nd616 2.682 . S
O639 Nd617 2.414 . S
O639 C625 1.273 . S
O640 Nd616 2.410 . S
O640 C626 1.251 . S
O641 Nd617 2.424 . S
O641 C626 1.268 . S
O642 Nd617 2.500 . S
O642 C627 1.258 . S
O643 Nd617 2.492 . S
O643 C627 1.239 . S
O644 Nd617 2.487 . S
O644 C634 1.241 . S
O645 Nd616 2.414 . S
O645 Nd617 2.682 . S
O645 C634 1.273 . S
O646 Nd617 2.410 . S
O646 C635 1.251 . S
O647 Nd616 2.424 . S
O647 C635 1.268 . S
H648 C620 0.930 . S
H649 C621 0.929 . S
H650 C623 0.930 . S
H651 C624 0.929 . S
H652 C629 0.930 . S
H653 C630 0.929 . S
H654 C632 0.930 . S
H655 C633 0.929 . S
Nd656 C658 2.836 . S
Nd656 O676 2.500 . S
Nd656 O677 2.492 . S
Nd656 O678 2.487 . S
Nd656 O679 2.682 . S
Nd656 O680 2.410 . S
Nd656 O685 2.414 . S
Nd656 O687 2.424 . S
Nd657 C667 2.836 . S
Nd657 O679 2.414 . S
Nd657 O681 2.424 . S
Nd657 O682 2.500 . S
Nd657 O683 2.492 . S
Nd657 O684 2.487 . S
Nd657 O685 2.682 . S
Nd657 O686 2.410 . S
C658 Nd656 2.836 . S
C658 C659 1.498 . S
C658 O676 1.258 . S
C658 O677 1.239 . S
C659 C658 1.498 . S
C659 C660 1.366 . S
C659 C664 1.407 . S
C660 C659 1.366 . S
C660 C661 1.392 . S
C660 H688 0.930 . S
C661 C660 1.392 . S
C661 C662 1.398 . S
C661 H689 0.929 . S
C662 C661 1.398 . S
C662 C663 1.352 . S
C663 C662 1.352 . S
C663 C664 1.384 . S
C663 H690 0.930 . S
C664 C659 1.407 . S
C664 C663 1.384 . S
C664 H691 0.929 . S
C665 O678 1.241 . S
C665 O679 1.273 . S
C666 O680 1.251 . S
C666 O681 1.268 . S
C667 Nd657 2.836 . S
C667 C668 1.498 . S
C667 O682 1.258 . S
C667 O683 1.239 . S
C668 C667 1.498 . S
C668 C669 1.366 . S
C668 C673 1.407 . S
C669 C668 1.366 . S
C669 C670 1.392 . S
C669 H692 0.930 . S
C670 C669 1.392 . S
C670 C671 1.398 . S
C670 H693 0.929 . S
C671 C670 1.398 . S
C671 C672 1.352 . S
C672 C671 1.352 . S
C672 C673 1.384 . S
C672 H694 0.930 . S
C673 C668 1.407 . S
C673 C672 1.384 . S
C673 H695 0.929 . S
C674 O684 1.241 . S
C674 O685 1.273 . S
C675 O686 1.251 . S
C675 O687 1.268 . S
O676 Nd656 2.500 . S
O676 C658 1.258 . S
O677 Nd656 2.492 . S
O677 C658 1.239 . S
O678 Nd656 2.487 . S
O678 C665 1.241 . S
O679 Nd656 2.682 . S
O679 Nd657 2.414 . S
O679 C665 1.273 . S
O680 Nd656 2.410 . S
O680 C666 1.251 . S
O681 Nd657 2.424 . S
O681 C666 1.268 . S
O682 Nd657 2.500 . S
O682 C667 1.258 . S
O683 Nd657 2.492 . S
O683 C667 1.239 . S
O684 Nd657 2.487 . S
O684 C674 1.241 . S
O685 Nd656 2.414 . S
O685 Nd657 2.682 . S
O685 C674 1.273 . S
O686 Nd657 2.410 . S
O686 C675 1.251 . S
O687 Nd656 2.424 . S
O687 C675 1.268 . S
H688 C660 0.930 . S
H689 C661 0.929 . S
H690 C663 0.930 . S
H691 C664 0.929 . S
H692 C669 0.930 . S
H693 C670 0.929 . S
H694 C672 0.930 . S
H695 C673 0.929 . S
Nd696 C698 2.836 . S
Nd696 O716 2.500 . S
Nd696 O717 2.492 . S
Nd696 O718 2.487 . S
Nd696 O719 2.682 . S
Nd696 O720 2.410 . S
Nd696 O725 2.414 . S
Nd696 O727 2.424 . S
Nd697 C707 2.836 . S
Nd697 O719 2.414 . S
Nd697 O721 2.424 . S
Nd697 O722 2.500 . S
Nd697 O723 2.492 . S
Nd697 O724 2.487 . S
Nd697 O725 2.682 . S
Nd697 O726 2.410 . S
C698 Nd696 2.836 . S
C698 C699 1.498 . S
C698 O716 1.258 . S
C698 O717 1.239 . S
C699 C698 1.498 . S
C699 C700 1.366 . S
C699 C704 1.407 . S
C700 C699 1.366 . S
C700 C701 1.392 . S
C700 H728 0.930 . S
C701 C700 1.392 . S
C701 C702 1.398 . S
C701 H729 0.929 . S
C702 C701 1.398 . S
C702 C703 1.352 . S
C703 C702 1.352 . S
C703 C704 1.384 . S
C703 H730 0.930 . S
C704 C699 1.407 . S
C704 C703 1.384 . S
C704 H731 0.929 . S
C705 O718 1.241 . S
C705 O719 1.273 . S
C706 O720 1.251 . S
C706 O721 1.268 . S
C707 Nd697 2.836 . S
C707 C708 1.498 . S
C707 O722 1.258 . S
C707 O723 1.239 . S
C708 C707 1.498 . S
C708 C709 1.366 . S
C708 C713 1.407 . S
C709 C708 1.366 . S
C709 C710 1.392 . S
C709 H732 0.930 . S
C710 C709 1.392 . S
C710 C711 1.398 . S
C710 H733 0.929 . S
C711 C710 1.398 . S
C711 C712 1.352 . S
C712 C711 1.352 . S
C712 C713 1.384 . S
C712 H734 0.930 . S
C713 C708 1.407 . S
C713 C712 1.384 . S
C713 H735 0.929 . S
C714 O724 1.241 . S
C714 O725 1.273 . S
C715 O726 1.251 . S
C715 O727 1.268 . S
O716 Nd696 2.500 . S
O716 C698 1.258 . S
O717 Nd696 2.492 . S
O717 C698 1.239 . S
O718 Nd696 2.487 . S
O718 C705 1.241 . S
O719 Nd696 2.682 . S
O719 Nd697 2.414 . S
O719 C705 1.273 . S
O720 Nd696 2.410 . S
O720 C706 1.251 . S
O721 Nd697 2.424 . S
O721 C706 1.268 . S
O722 Nd697 2.500 . S
O722 C707 1.258 . S
O723 Nd697 2.492 . S
O723 C707 1.239 . S
O724 Nd697 2.487 . S
O724 C714 1.241 . S
O725 Nd696 2.414 . S
O725 Nd697 2.682 . S
O725 C714 1.273 . S
O726 Nd697 2.410 . S
O726 C715 1.251 . S
O727 Nd696 2.424 . S
O727 C715 1.268 . S
H728 C700 0.930 . S
H729 C701 0.929 . S
H730 C703 0.930 . S
H731 C704 0.929 . S
H732 C709 0.930 . S
H733 C710 0.929 . S
H734 C712 0.930 . S
H735 C713 0.929 . S
Nd736 C738 2.801 1_455 S
Nd736 O756 2.464 1_455 S
Nd736 O757 2.464 1_455 S
Nd736 O758 2.506 . S
Nd736 O759 2.717 . S
Nd736 O760 2.408 . S
Nd736 O765 2.424 . S
Nd736 O767 2.452 . S
Nd737 C747 2.836 . S
Nd737 O759 2.414 . S
Nd737 O761 2.424 . S
Nd737 O762 2.500 . S
Nd737 O763 2.492 . S
Nd737 O764 2.487 . S
Nd737 O765 2.682 . S
Nd737 O766 2.410 . S
C738 Nd736 2.801 1_655 S
C738 C739 1.498 . S
C738 O756 1.258 . S
C738 O757 1.239 . S
C739 C738 1.498 . S
C739 C740 1.366 . S
C739 C744 1.407 . S
C740 C739 1.366 . S
C740 C741 1.392 . S
C740 H768 0.930 . S
C741 C740 1.392 . S
C741 C742 1.398 . S
C741 H769 0.929 . S
C742 C741 1.398 . S
C742 C743 1.352 . S
C743 C742 1.352 . S
C743 C744 1.384 . S
C743 H770 0.930 . S
C744 C739 1.407 . S
C744 C743 1.384 . S
C744 H771 0.929 . S
C745 O758 1.241 . S
C745 O759 1.273 . S
C746 O760 1.251 . S
C746 O761 1.268 . S
C747 Nd737 2.836 . S
C747 C748 1.498 . S
C747 O762 1.258 . S
C747 O763 1.239 . S
C748 C747 1.498 . S
C748 C749 1.366 . S
C748 C753 1.407 . S
C749 C748 1.366 . S
C749 C750 1.392 . S
C749 H772 0.930 . S
C750 C749 1.392 . S
C750 C751 1.398 . S
C750 H773 0.929 . S
C751 C750 1.398 . S
C751 C752 1.352 . S
C752 C751 1.352 . S
C752 C753 1.384 . S
C752 H774 0.930 . S
C753 C748 1.407 . S
C753 C752 1.384 . S
C753 H775 0.929 . S
C754 O764 1.241 . S
C754 O765 1.273 . S
C755 O766 1.251 . S
C755 O767 1.268 . S
O756 Nd736 2.464 1_655 S
O756 C738 1.258 . S
O757 Nd736 2.464 1_655 S
O757 C738 1.239 . S
O758 Nd736 2.506 . S
O758 C745 1.241 . S
O759 Nd736 2.717 . S
O759 Nd737 2.414 . S
O759 C745 1.273 . S
O760 Nd736 2.408 . S
O760 C746 1.251 . S
O761 Nd737 2.424 . S
O761 C746 1.268 . S
O762 Nd737 2.500 . S
O762 C747 1.258 . S
O763 Nd737 2.492 . S
O763 C747 1.239 . S
O764 Nd737 2.487 . S
O764 C754 1.241 . S
O765 Nd736 2.424 . S
O765 Nd737 2.682 . S
O765 C754 1.273 . S
O766 Nd737 2.410 . S
O766 C755 1.251 . S
O767 Nd736 2.452 . S
O767 C755 1.268 . S
H768 C740 0.930 . S
H769 C741 0.929 . S
H770 C743 0.930 . S
H771 C744 0.929 . S
H772 C749 0.930 . S
H773 C750 0.929 . S
H774 C752 0.930 . S
H775 C753 0.929 . S
Nd776 C778 2.836 . S
Nd776 O796 2.500 . S
Nd776 O797 2.492 . S
Nd776 O798 2.487 . S
Nd776 O799 2.682 . S
Nd776 O800 2.410 . S
Nd776 O805 2.414 . S
Nd776 O807 2.424 . S
Nd777 C787 2.836 . S
Nd777 O799 2.414 . S
Nd777 O801 2.424 . S
Nd777 O802 2.500 . S
Nd777 O803 2.492 . S
Nd777 O804 2.487 . S
Nd777 O805 2.682 . S
Nd777 O806 2.410 . S
C778 Nd776 2.836 . S
C778 C779 1.498 . S
C778 O796 1.258 . S
C778 O797 1.239 . S
C779 C778 1.498 . S
C779 C780 1.366 . S
C779 C784 1.407 . S
C780 C779 1.366 . S
C780 C781 1.392 . S
C780 H808 0.930 . S
C781 C780 1.392 . S
C781 C782 1.398 . S
C781 H809 0.929 . S
C782 C781 1.398 . S
C782 C783 1.352 . S
C783 C782 1.352 . S
C783 C784 1.384 . S
C783 H810 0.930 . S
C784 C779 1.407 . S
C784 C783 1.384 . S
C784 H811 0.929 . S
C785 O798 1.241 . S
C785 O799 1.273 . S
C786 O800 1.251 . S
C786 O801 1.268 . S
C787 Nd777 2.836 . S
C787 C788 1.498 . S
C787 O802 1.258 . S
C787 O803 1.239 . S
C788 C787 1.498 . S
C788 C789 1.366 . S
C788 C793 1.407 . S
C789 C788 1.366 . S
C789 C790 1.392 . S
C789 H812 0.930 . S
C790 C789 1.392 . S
C790 C791 1.398 . S
C790 H813 0.929 . S
C791 C790 1.398 . S
C791 C792 1.352 . S
C792 C791 1.352 . S
C792 C793 1.384 . S
C792 H814 0.930 . S
C793 C788 1.407 . S
C793 C792 1.384 . S
C793 H815 0.929 . S
C794 O804 1.241 . S
C794 O805 1.273 . S
C795 O806 1.251 . S
C795 O807 1.268 . S
O796 Nd776 2.500 . S
O796 C778 1.258 . S
O797 Nd776 2.492 . S
O797 C778 1.239 . S
O798 Nd776 2.487 . S
O798 C785 1.241 . S
O799 Nd776 2.682 . S
O799 Nd777 2.414 . S
O799 C785 1.273 . S
O800 Nd776 2.410 . S
O800 C786 1.251 . S
O801 Nd777 2.424 . S
O801 C786 1.268 . S
O802 Nd777 2.500 . S
O802 C787 1.258 . S
O803 Nd777 2.492 . S
O803 C787 1.239 . S
O804 Nd777 2.487 . S
O804 C794 1.241 . S
O805 Nd776 2.414 . S
O805 Nd777 2.682 . S
O805 C794 1.273 . S
O806 Nd777 2.410 . S
O806 C795 1.251 . S
O807 Nd776 2.424 . S
O807 C795 1.268 . S
H808 C780 0.930 . S
H809 C781 0.929 . S
H810 C783 0.930 . S
H811 C784 0.929 . S
H812 C789 0.930 . S
H813 C790 0.929 . S
H814 C792 0.930 . S
H815 C793 0.929 . S
Nd816 C818 2.836 . S
Nd816 O836 2.500 . S
Nd816 O837 2.492 . S
Nd816 O838 2.487 . S
Nd816 O839 2.682 . S
Nd816 O840 2.410 . S
Nd816 O845 2.414 . S
Nd816 O847 2.424 . S
Nd817 C827 2.836 . S
Nd817 O839 2.414 . S
Nd817 O841 2.424 . S
Nd817 O842 2.500 . S
Nd817 O843 2.492 . S
Nd817 O844 2.487 . S
Nd817 O845 2.682 . S
Nd817 O846 2.410 . S
C818 Nd816 2.836 . S
C818 C819 1.498 . S
C818 O836 1.258 . S
C818 O837 1.239 . S
C819 C818 1.498 . S
C819 C820 1.366 . S
C819 C824 1.407 . S
C820 C819 1.366 . S
C820 C821 1.392 . S
C820 H848 0.930 . S
C821 C820 1.392 . S
C821 C822 1.398 . S
C821 H849 0.929 . S
C822 C821 1.398 . S
C822 C823 1.352 . S
C823 C822 1.352 . S
C823 C824 1.384 . S
C823 H850 0.930 . S
C824 C819 1.407 . S
C824 C823 1.384 . S
C824 H851 0.929 . S
C825 O838 1.241 . S
C825 O839 1.273 . S
C826 O840 1.251 . S
C826 O841 1.268 . S
C827 Nd817 2.836 . S
C827 C828 1.498 . S
C827 O842 1.258 . S
C827 O843 1.239 . S
C828 C827 1.498 . S
C828 C829 1.366 . S
C828 C833 1.407 . S
C829 C828 1.366 . S
C829 C830 1.392 . S
C829 H852 0.930 . S
C830 C829 1.392 . S
C830 C831 1.398 . S
C830 H853 0.929 . S
C831 C830 1.398 . S
C831 C832 1.352 . S
C832 C831 1.352 . S
C832 C833 1.384 . S
C832 H854 0.930 . S
C833 C828 1.407 . S
C833 C832 1.384 . S
C833 H855 0.929 . S
C834 O844 1.241 . S
C834 O845 1.273 . S
C835 O846 1.251 . S
C835 O847 1.268 . S
O836 Nd816 2.500 . S
O836 C818 1.258 . S
O837 Nd816 2.492 . S
O837 C818 1.239 . S
O838 Nd816 2.487 . S
O838 C825 1.241 . S
O839 Nd816 2.682 . S
O839 Nd817 2.414 . S
O839 C825 1.273 . S
O840 Nd816 2.410 . S
O840 C826 1.251 . S
O841 Nd817 2.424 . S
O841 C826 1.268 . S
O842 Nd817 2.500 . S
O842 C827 1.258 . S
O843 Nd817 2.492 . S
O843 C827 1.239 . S
O844 Nd817 2.487 . S
O844 C834 1.241 . S
O845 Nd816 2.414 . S
O845 Nd817 2.682 . S
O845 C834 1.273 . S
O846 Nd817 2.410 . S
O846 C835 1.251 . S
O847 Nd816 2.424 . S
O847 C835 1.268 . S
H848 C820 0.930 . S
H849 C821 0.929 . S
H850 C823 0.930 . S
H851 C824 0.929 . S
H852 C829 0.930 . S
H853 C830 0.929 . S
H854 C832 0.930 . S
H855 C833 0.929 . S
Nd856 C858 2.836 . S
Nd856 O876 2.500 . S
Nd856 O877 2.492 . S
Nd856 O878 2.487 . S
Nd856 O879 2.682 . S
Nd856 O880 2.410 . S
Nd856 O885 2.414 . S
Nd856 O887 2.424 . S
Nd857 C867 2.836 . S
Nd857 O879 2.414 . S
Nd857 O881 2.424 . S
Nd857 O882 2.500 . S
Nd857 O883 2.492 . S
Nd857 O884 2.487 . S
Nd857 O885 2.682 . S
Nd857 O886 2.410 . S
C858 Nd856 2.836 . S
C858 C859 1.498 . S
C858 O876 1.258 . S
C858 O877 1.239 . S
C859 C858 1.498 . S
C859 C860 1.366 . S
C859 C864 1.407 . S
C860 C859 1.366 . S
C860 C861 1.392 . S
C860 H888 0.930 . S
C861 C860 1.392 . S
C861 C862 1.398 . S
C861 H889 0.929 . S
C862 C861 1.398 . S
C862 C863 1.352 . S
C863 C862 1.352 . S
C863 C864 1.384 . S
C863 H890 0.930 . S
C864 C859 1.407 . S
C864 C863 1.384 . S
C864 H891 0.929 . S
C865 O878 1.241 . S
C865 O879 1.273 . S
C866 O880 1.251 . S
C866 O881 1.268 . S
C867 Nd857 2.836 . S
C867 C868 1.498 . S
C867 O882 1.258 . S
C867 O883 1.239 . S
C868 C867 1.498 . S
C868 C869 1.366 . S
C868 C873 1.407 . S
C869 C868 1.366 . S
C869 C870 1.392 . S
C869 H892 0.930 . S
C870 C869 1.392 . S
C870 C871 1.398 . S
C870 H893 0.929 . S
C871 C870 1.398 . S
C871 C872 1.352 . S
C872 C871 1.352 . S
C872 C873 1.384 . S
C872 H894 0.930 . S
C873 C868 1.407 . S
C873 C872 1.384 . S
C873 H895 0.929 . S
C874 O884 1.241 . S
C874 O885 1.273 . S
C875 O886 1.251 . S
C875 O887 1.268 . S
O876 Nd856 2.500 . S
O876 C858 1.258 . S
O877 Nd856 2.492 . S
O877 C858 1.239 . S
O878 Nd856 2.487 . S
O878 C865 1.241 . S
O879 Nd856 2.682 . S
O879 Nd857 2.414 . S
O879 C865 1.273 . S
O880 Nd856 2.410 . S
O880 C866 1.251 . S
O881 Nd857 2.424 . S
O881 C866 1.268 . S
O882 Nd857 2.500 . S
O882 C867 1.258 . S
O883 Nd857 2.492 . S
O883 C867 1.239 . S
O884 Nd857 2.487 . S
O884 C874 1.241 . S
O885 Nd856 2.414 . S
O885 Nd857 2.682 . S
O885 C874 1.273 . S
O886 Nd857 2.410 . S
O886 C875 1.251 . S
O887 Nd856 2.424 . S
O887 C875 1.268 . S
H888 C860 0.930 . S
H889 C861 0.929 . S
H890 C863 0.930 . S
H891 C864 0.929 . S
H892 C869 0.930 . S
H893 C870 0.929 . S
H894 C872 0.930 . S
H895 C873 0.929 . S
Nd896 C898 2.836 . S
Nd896 O916 2.500 . S
Nd896 O917 2.492 . S
Nd896 O918 2.487 . S
Nd896 O919 2.682 . S
Nd896 O920 2.410 . S
Nd896 O925 2.414 . S
Nd896 O927 2.424 . S
Nd897 C907 2.836 . S
Nd897 O919 2.414 . S
Nd897 O921 2.424 . S
Nd897 O922 2.500 . S
Nd897 O923 2.492 . S
Nd897 O924 2.487 . S
Nd897 O925 2.682 . S
Nd897 O926 2.410 . S
C898 Nd896 2.836 . S
C898 C899 1.498 . S
C898 O916 1.258 . S
C898 O917 1.239 . S
C899 C898 1.498 . S
C899 C900 1.366 . S
C899 C904 1.407 . S
C900 C899 1.366 . S
C900 C901 1.392 . S
C900 H928 0.930 . S
C901 C900 1.392 . S
C901 C902 1.398 . S
C901 H929 0.929 . S
C902 C901 1.398 . S
C902 C903 1.352 . S
C903 C902 1.352 . S
C903 C904 1.384 . S
C903 H930 0.930 . S
C904 C899 1.407 . S
C904 C903 1.384 . S
C904 H931 0.929 . S
C905 O918 1.241 . S
C905 O919 1.273 . S
C906 O920 1.251 . S
C906 O921 1.268 . S
C907 Nd897 2.836 . S
C907 C908 1.498 . S
C907 O922 1.258 . S
C907 O923 1.239 . S
C908 C907 1.498 . S
C908 C909 1.366 . S
C908 C913 1.407 . S
C909 C908 1.366 . S
C909 C910 1.392 . S
C909 H932 0.930 . S
C910 C909 1.392 . S
C910 C911 1.398 . S
C910 H933 0.929 . S
C911 C910 1.398 . S
C911 C912 1.352 . S
C912 C911 1.352 . S
C912 C913 1.384 . S
C912 H934 0.930 . S
C913 C908 1.407 . S
C913 C912 1.384 . S
C913 H935 0.929 . S
C914 O924 1.241 . S
C914 O925 1.273 . S
C915 O926 1.251 . S
C915 O927 1.268 . S
O916 Nd896 2.500 . S
O916 C898 1.258 . S
O917 Nd896 2.492 . S
O917 C898 1.239 . S
O918 Nd896 2.487 . S
O918 C905 1.241 . S
O919 Nd896 2.682 . S
O919 Nd897 2.414 . S
O919 C905 1.273 . S
O920 Nd896 2.410 . S
O920 C906 1.251 . S
O921 Nd897 2.424 . S
O921 C906 1.268 . S
O922 Nd897 2.500 . S
O922 C907 1.258 . S
O923 Nd897 2.492 . S
O923 C907 1.239 . S
O924 Nd897 2.487 . S
O924 C914 1.241 . S
O925 Nd896 2.414 . S
O925 Nd897 2.682 . S
O925 C914 1.273 . S
O926 Nd897 2.410 . S
O926 C915 1.251 . S
O927 Nd896 2.424 . S
O927 C915 1.268 . S
H928 C900 0.930 . S
H929 C901 0.929 . S
H930 C903 0.930 . S
H931 C904 0.929 . S
H932 C909 0.930 . S
H933 C910 0.929 . S
H934 C912 0.930 . S
H935 C913 0.929 . S
Nd936 C938 2.836 . S
Nd936 O956 2.500 . S
Nd936 O957 2.492 . S
Nd936 O958 2.487 . S
Nd936 O959 2.682 . S
Nd936 O960 2.410 . S
Nd936 O965 2.414 . S
Nd936 O967 2.424 . S
Nd937 C947 2.836 . S
Nd937 O959 2.414 1_655 S
Nd937 O961 2.424 1_655 S
Nd937 O962 2.500 . S
Nd937 O963 2.492 . S
Nd937 O964 2.487 1_655 S
Nd937 O965 2.682 1_655 S
Nd937 O966 2.410 1_655 S
C938 Nd936 2.836 . S
C938 C939 1.498 . S
C938 O956 1.258 . S
C938 O957 1.239 . S
C939 C938 1.498 . S
C939 C940 1.366 . S
C939 C944 1.407 . S
C940 C939 1.366 . S
C940 C941 1.392 . S
C940 H968 0.930 . S
C941 C940 1.392 . S
C941 C942 1.398 . S
C941 H969 0.929 . S
C942 C941 1.398 . S
C942 C943 1.352 . S
C943 C942 1.352 . S
C943 C944 1.384 . S
C943 H970 0.930 . S
C944 C939 1.407 . S
C944 C943 1.384 . S
C944 H971 0.929 . S
C945 O958 1.241 . S
C945 O959 1.273 . S
C946 O960 1.251 . S
C946 O961 1.268 . S
C947 Nd937 2.836 . S
C947 C948 1.498 . S
C947 O962 1.258 . S
C947 O963 1.239 . S
C948 C947 1.498 . S
C948 C949 1.366 . S
C948 C953 1.407 . S
C949 C948 1.366 . S
C949 C950 1.392 . S
C949 H972 0.930 . S
C950 C949 1.392 . S
C950 C951 1.398 . S
C950 H973 0.929 . S
C951 C950 1.398 . S
C951 C952 1.352 . S
C952 C951 1.352 . S
C952 C953 1.384 . S
C952 H974 0.930 . S
C953 C948 1.407 . S
C953 C952 1.384 . S
C953 H975 0.929 . S
C954 O964 1.241 . S
C954 O965 1.273 . S
C955 O966 1.251 . S
C955 O967 1.268 . S
O956 Nd936 2.500 . S
O956 C938 1.258 . S
O957 Nd936 2.492 . S
O957 C938 1.239 . S
O958 Nd936 2.487 . S
O958 C945 1.241 . S
O959 Nd936 2.682 . S
O959 Nd937 2.414 1_455 S
O959 C945 1.273 . S
O960 Nd936 2.410 . S
O960 C946 1.251 . S
O961 Nd937 2.424 1_455 S
O961 C946 1.268 . S
O962 Nd937 2.500 . S
O962 C947 1.258 . S
O963 Nd937 2.492 . S
O963 C947 1.239 . S
O964 Nd937 2.487 1_455 S
O964 C954 1.241 . S
O965 Nd936 2.414 . S
O965 Nd937 2.682 1_455 S
O965 C954 1.273 . S
O966 Nd937 2.410 1_455 S
O966 C955 1.251 . S
O967 Nd936 2.424 . S
O967 C955 1.268 . S
H968 C940 0.930 . S
H969 C941 0.929 . S
H970 C943 0.930 . S
H971 C944 0.929 . S
H972 C949 0.930 . S
H973 C950 0.929 . S
H974 C952 0.930 . S
H975 C953 0.929 . S
H976 C982 0.930 . S
H977 C986 0.930 . S
H978 C991 0.929 . S
H979 C989 0.929 . S
H980 C984 0.929 1_556 S
H981 C990 0.929 1_554 S
C982 H976 0.930 . S
C982 C983 1.367 . S
C982 C990 1.378 . S
C983 C982 1.367 . S
C983 C991 1.433 . S
C984 H980 0.929 1_554 S
C984 C986 1.378 . S
C984 C988 1.350 . S
C985 C988 1.463 1_556 S
C985 C990 1.350 . S
C985 N993 1.427 . S
C986 H977 0.930 . S
C986 C984 1.378 . S
C986 C987 1.367 . S
C987 C986 1.367 . S
C987 C989 1.433 . S
C988 C984 1.350 . S
C988 C985 1.463 1_554 S
C988 N992 1.427 . S
C989 H979 0.929 . S
C989 C987 1.433 . S
C989 N992 1.384 . S
C990 H981 0.929 1_556 S
C990 C982 1.378 . S
C990 C985 1.350 . S
C991 H978 0.929 . S
C991 C983 1.433 . S
C991 N993 1.384 . S
N992 C988 1.427 . S
N992 C989 1.384 . S
N993 C985 1.427 . S
N993 C991 1.384 . S
H994 C1000 0.930 . S
H995 C1004 0.930 . S
H996 C1009 0.929 . S
H997 C1007 0.929 . S
H998 C1002 0.929 . S
H999 C1008 0.929 . S
C1000 H994 0.930 . S
C1000 C1001 1.367 . S
C1000 C1008 1.378 . S
C1001 C1000 1.367 . S
C1001 C1009 1.433 . S
C1002 H998 0.929 . S
C1002 C1004 1.378 . S
C1002 C1006 1.350 . S
C1003 C1006 1.463 . S
C1003 C1008 1.350 . S
C1003 N1011 1.427 . S
C1004 H995 0.930 . S
C1004 C1002 1.378 . S
C1004 C1005 1.367 . S
C1005 C1004 1.367 . S
C1005 C1007 1.433 . S
C1006 C1002 1.350 . S
C1006 C1003 1.463 . S
C1006 N1010 1.427 . S
C1007 H997 0.929 . S
C1007 C1005 1.433 . S
C1007 N1010 1.384 . S
C1008 H999 0.929 . S
C1008 C1000 1.378 . S
C1008 C1003 1.350 . S
C1009 H996 0.929 . S
C1009 C1001 1.433 . S
C1009 N1011 1.384 . S
N1010 C1006 1.427 . S
N1010 C1007 1.384 . S
N1011 C1003 1.427 . S
N1011 C1009 1.384 . S
H1012 C1018 0.930 . S
H1013 C1022 0.930 1_545 S
H1014 C1027 0.929 . S
H1015 C1025 0.929 . S
H1016 C1020 0.929 . S
H1017 C1026 0.929 . S
C1018 H1012 0.930 . S
C1018 C1019 1.367 . S
C1018 C1026 1.378 . S
C1019 C1018 1.367 . S
C1019 C1027 1.433 . S
C1020 H1016 0.929 . S
C1020 C1022 1.378 . S
C1020 C1024 1.350 . S
C1021 C1024 1.463 . S
C1021 C1026 1.350 . S
C1021 N1029 1.427 . S
C1022 H1013 0.930 1_565 S
C1022 C1020 1.378 . S
C1022 C1023 1.367 . S
C1023 C1022 1.367 . S
C1023 C1025 1.455 . S
C1024 C1020 1.350 . S
C1024 C1021 1.463 . S
C1024 N1028 1.427 . S
C1025 H1015 0.929 . S
C1025 C1023 1.455 . S
C1025 N1028 1.384 . S
C1026 H1017 0.929 . S
C1026 C1018 1.378 . S
C1026 C1021 1.350 . S
C1027 H1014 0.929 . S
C1027 C1019 1.433 . S
C1027 N1029 1.384 . S
N1028 C1024 1.427 . S
N1028 C1025 1.384 . S
N1029 C1021 1.427 . S
N1029 C1027 1.384 . S
H1030 C1036 0.930 . S
H1031 C1040 0.930 . S
H1032 C1045 0.929 . S
H1033 C1043 0.929 . S
H1034 C1038 0.929 . S
H1035 C1044 0.929 . S
C1036 H1030 0.930 . S
C1036 C1037 1.367 . S
C1036 C1044 1.378 . S
C1037 C1036 1.367 . S
C1037 C1045 1.433 . S
C1038 H1034 0.929 . S
C1038 C1040 1.378 . S
C1038 C1042 1.350 . S
C1039 C1042 1.463 . S
C1039 C1044 1.350 . S
C1039 N1047 1.427 . S
C1040 H1031 0.930 . S
C1040 C1038 1.378 . S
C1040 C1041 1.367 . S
C1041 C1040 1.367 . S
C1041 C1043 1.433 . S
C1042 C1038 1.350 . S
C1042 C1039 1.463 . S
C1042 N1046 1.427 . S
C1043 H1033 0.929 . S
C1043 C1041 1.433 . S
C1043 N1046 1.384 . S
C1044 H1035 0.929 . S
C1044 C1036 1.378 . S
C1044 C1039 1.350 . S
C1045 H1032 0.929 . S
C1045 C1037 1.433 . S
C1045 N1047 1.384 . S
N1046 C1042 1.427 . S
N1046 C1043 1.384 . S
N1047 C1039 1.427 . S
N1047 C1045 1.384 . S
H1048 C1054 0.930 . S
H1049 C1058 0.930 . S
H1050 C1063 0.931 . S
H1051 C1061 0.929 . S
H1052 C1056 0.929 . S
H1053 C1062 0.929 . S
C1054 H1048 0.930 . S
C1054 C1055 1.367 . S
C1054 C1062 1.378 . S
C1055 C1054 1.367 . S
C1055 C1063 1.432 1_455 S
C1056 H1052 0.929 . S
C1056 C1058 1.378 . S
C1056 C1060 1.350 . S
C1057 C1060 1.463 . S
C1057 C1062 1.350 . S
C1057 N1065 1.427 . S
C1058 H1049 0.930 . S
C1058 C1056 1.378 . S
C1058 C1059 1.367 . S
C1059 C1058 1.367 . S
C1059 C1061 1.433 . S
C1060 C1056 1.350 . S
C1060 C1057 1.463 . S
C1060 N1064 1.427 . S
C1061 H1051 0.929 . S
C1061 C1059 1.433 . S
C1061 N1064 1.384 . S
C1062 H1053 0.929 . S
C1062 C1054 1.378 . S
C1062 C1057 1.350 . S
C1063 H1050 0.931 . S
C1063 C1055 1.432 1_655 S
C1063 N1065 1.382 1_655 S
N1064 C1060 1.427 . S
N1064 C1061 1.384 . S
N1065 C1057 1.427 . S
N1065 C1063 1.382 1_455 S
H1066 C1072 0.942 . S
H1067 C1076 0.930 . S
H1068 C1081 0.929 . S
H1069 C1079 0.929 . S
H1070 C1074 0.929 . S
H1071 C1080 0.929 . S
C1072 H1066 0.942 . S
C1072 C1073 1.367 . S
C1072 C1080 1.378 . S
C1073 C1072 1.367 . S
C1073 C1081 1.433 . S
C1074 H1070 0.929 . S
C1074 C1076 1.378 . S
C1074 C1078 1.350 . S
C1075 C1078 1.463 . S
C1075 C1080 1.350 . S
C1075 N1083 1.427 . S
C1076 H1067 0.930 . S
C1076 C1074 1.378 . S
C1076 C1077 1.367 . S
C1077 C1076 1.367 . S
C1077 C1079 1.433 . S
C1078 C1074 1.350 . S
C1078 C1075 1.463 . S
C1078 N1082 1.427 . S
C1079 H1069 0.929 . S
C1079 C1077 1.433 . S
C1079 N1082 1.384 . S
C1080 H1071 0.929 . S
C1080 C1072 1.378 . S
C1080 C1075 1.350 . S
C1081 H1068 0.929 . S
C1081 C1073 1.433 . S
C1081 N1083 1.384 . S
N1082 C1078 1.427 . S
N1082 C1079 1.384 . S
N1083 C1075 1.427 . S
N1083 C1081 1.384 . S
H1084 C1090 0.930 . S
H1085 C1094 0.930 . S
H1086 C1099 0.929 . S
H1087 C1097 0.929 . S
H1088 C1092 0.929 . S
H1089 C1098 0.929 . S
C1090 H1084 0.930 . S
C1090 C1091 1.367 . S
C1090 C1098 1.378 . S
C1091 C1090 1.367 . S
C1091 C1099 1.433 . S
C1092 H1088 0.929 . S
C1092 C1094 1.378 . S
C1092 C1096 1.350 . S
C1093 C1096 1.463 . S
C1093 C1098 1.350 . S
C1093 N1101 1.427 . S
C1094 H1085 0.930 . S
C1094 C1092 1.378 . S
C1094 C1095 1.367 . S
C1095 C1094 1.367 . S
C1095 C1097 1.433 . S
C1096 C1092 1.350 . S
C1096 C1093 1.463 . S
C1096 N1100 1.427 . S
C1097 H1087 0.929 . S
C1097 C1095 1.433 . S
C1097 N1100 1.384 . S
C1098 H1089 0.929 . S
C1098 C1090 1.378 . S
C1098 C1093 1.350 . S
C1099 H1086 0.929 . S
C1099 C1091 1.433 . S
C1099 N1101 1.384 . S
N1100 C1096 1.427 . S
N1100 C1097 1.384 . S
N1101 C1093 1.427 . S
N1101 C1099 1.384 . S
H1102 C1108 0.930 . S
H1103 C1112 0.930 . S
H1104 C1117 0.929 . S
H1105 C1115 0.929 . S
H1106 C1110 0.929 . S
H1107 C1116 0.929 . S
C1108 H1102 0.930 . S
C1108 C1109 1.367 . S
C1108 C1116 1.378 . S
C1109 C1108 1.367 . S
C1109 C1117 1.433 . S
C1110 H1106 0.929 . S
C1110 C1112 1.378 . S
C1110 C1114 1.350 . S
C1111 C1114 1.463 . S
C1111 C1116 1.350 . S
C1111 N1119 1.427 . S
C1112 H1103 0.930 . S
C1112 C1110 1.378 . S
C1112 C1113 1.367 . S
C1113 C1112 1.367 . S
C1113 C1115 1.433 . S
C1114 C1110 1.350 . S
C1114 C1111 1.463 . S
C1114 N1118 1.427 . S
C1115 H1105 0.929 . S
C1115 C1113 1.433 . S
C1115 N1118 1.384 . S
C1116 H1107 0.929 . S
C1116 C1108 1.378 . S
C1116 C1111 1.350 . S
C1117 H1104 0.929 . S
C1117 C1109 1.433 . S
C1117 N1119 1.384 . S
N1118 C1114 1.427 . S
N1118 C1115 1.384 . S
N1119 C1111 1.427 . S
N1119 C1117 1.384 . S
H1120 C1126 0.930 . S
H1121 C1130 0.930 . S
H1122 C1135 0.929 . S
H1123 C1133 0.929 . S
H1124 C1128 0.929 . S
H1125 C1134 0.929 . S
C1126 H1120 0.930 . S
C1126 C1127 1.367 . S
C1126 C1134 1.378 . S
C1127 C1126 1.367 . S
C1127 C1135 1.433 . S
C1128 H1124 0.929 . S
C1128 C1130 1.378 . S
C1128 C1132 1.350 . S
C1129 C1132 1.463 . S
C1129 C1134 1.350 . S
C1129 N1137 1.427 . S
C1130 H1121 0.930 . S
C1130 C1128 1.378 . S
C1130 C1131 1.367 1_655 S
C1131 C1130 1.367 1_455 S
C1131 C1133 1.433 . S
C1132 C1128 1.350 . S
C1132 C1129 1.463 . S
C1132 N1136 1.427 1_655 S
C1133 H1123 0.929 . S
C1133 C1131 1.433 . S
C1133 N1136 1.384 . S
C1134 H1125 0.929 . S
C1134 C1126 1.378 . S
C1134 C1129 1.350 . S
C1135 H1122 0.929 . S
C1135 C1127 1.433 . S
C1135 N1137 1.384 . S
N1136 C1132 1.427 1_455 S
N1136 C1133 1.384 . S
N1137 C1129 1.427 . S
N1137 C1135 1.384 . S
H1138 C1144 0.930 . S
H1139 C1148 0.930 . S
H1140 C1153 0.929 . S
H1141 C1151 0.929 . S
H1142 C1146 0.929 . S
H1143 C1152 0.929 . S
C1144 H1138 0.930 . S
C1144 C1145 1.367 . S
C1144 C1152 1.378 . S
C1145 C1144 1.367 . S
C1145 C1153 1.433 . S
C1146 H1142 0.929 . S
C1146 C1148 1.378 . S
C1146 C1150 1.350 . S
C1147 C1150 1.463 . S
C1147 C1152 1.350 . S
C1147 N1155 1.427 . S
C1148 H1139 0.930 . S
C1148 C1146 1.378 . S
C1148 C1149 1.367 . S
C1149 C1148 1.367 . S
C1149 C1151 1.433 . S
C1150 C1146 1.350 . S
C1150 C1147 1.463 . S
C1150 N1154 1.427 . S
C1151 H1141 0.929 . S
C1151 C1149 1.433 . S
C1151 N1154 1.384 . S
C1152 H1143 0.929 . S
C1152 C1144 1.378 . S
C1152 C1147 1.350 . S
C1153 H1140 0.929 . S
C1153 C1145 1.433 . S
C1153 N1155 1.384 . S
N1154 C1150 1.427 . S
N1154 C1151 1.384 . S
N1155 C1147 1.427 . S
N1155 C1153 1.384 . S
H1156 C1162 0.930 . S
H1157 C1166 0.930 . S
H1158 C1171 0.929 . S
H1159 C1169 0.929 . S
H1160 C1164 0.929 . S
H1161 C1170 0.929 . S
C1162 H1156 0.930 . S
C1162 C1163 1.367 1_565 S
C1162 C1170 1.378 1_565 S
C1163 C1162 1.367 1_545 S
C1163 C1171 1.433 . S
C1164 H1160 0.929 . S
C1164 C1166 1.378 . S
C1164 C1168 1.350 . S
C1165 C1168 1.463 . S
C1165 C1170 1.350 . S
C1165 N1173 1.427 . S
C1166 H1157 0.930 . S
C1166 C1164 1.378 . S
C1166 C1167 1.367 . S
C1167 C1166 1.367 . S
C1167 C1169 1.433 . S
C1168 C1164 1.350 . S
C1168 C1165 1.463 . S
C1168 N1172 1.427 . S
C1169 H1159 0.929 . S
C1169 C1167 1.433 . S
C1169 N1172 1.384 . S
C1170 H1161 0.929 . S
C1170 C1162 1.378 1_545 S
C1170 C1165 1.350 . S
C1171 H1158 0.929 . S
C1171 C1163 1.433 . S
C1171 N1173 1.384 . S
N1172 C1168 1.427 . S
N1172 C1169 1.384 . S
N1173 C1165 1.427 . S
N1173 C1171 1.384 . S
H1174 C1180 0.930 . S
H1175 C1184 0.930 . S
H1176 C1189 0.929 . S
H1177 C1187 0.929 . S
H1178 C1182 0.929 . S
H1179 C1188 0.929 . S
C1180 H1174 0.930 . S
C1180 C1181 1.367 . S
C1180 C1188 1.378 . S
C1181 C1180 1.367 . S
C1181 C1189 1.433 . S
C1182 H1178 0.929 . S
C1182 C1184 1.378 1_554 S
C1182 C1186 1.350 . S
C1183 C1186 1.463 . S
C1183 C1188 1.350 . S
C1183 N1191 1.427 . S
C1184 H1175 0.930 . S
C1184 C1182 1.378 1_556 S
C1184 C1185 1.367 . S
C1185 C1184 1.367 . S
C1185 C1187 1.433 1_556 S
C1186 C1182 1.350 . S
C1186 C1183 1.463 . S
C1186 N1190 1.427 . S
C1187 H1177 0.929 . S
C1187 C1185 1.433 1_554 S
C1187 N1190 1.384 . S
C1188 H1179 0.929 . S
C1188 C1180 1.378 . S
C1188 C1183 1.350 . S
C1189 H1176 0.929 . S
C1189 C1181 1.433 . S
C1189 N1191 1.384 . S
N1190 C1186 1.427 . S
N1190 C1187 1.384 . S
N1191 C1183 1.427 . S
N1191 C1189 1.384 . S
H1192 C1198 0.930 . S
H1193 C1202 0.930 1_455 S
H1194 C1207 0.929 . S
H1195 C1205 0.929 . S
H1196 C1200 0.929 . S
H1197 C1206 0.929 . S
C1198 H1192 0.930 . S
C1198 C1199 1.367 . S
C1198 C1206 1.378 . S
C1199 C1198 1.367 . S
C1199 C1207 1.433 . S
C1200 H1196 0.929 . S
C1200 C1202 1.378 . S
C1200 C1204 1.350 . S
C1201 C1204 1.463 . S
C1201 C1206 1.350 . S
C1201 N1209 1.427 . S
C1202 H1193 0.930 1_655 S
C1202 C1200 1.378 . S
C1202 C1203 1.367 . S
C1203 C1202 1.367 . S
C1203 C1205 1.433 . S
C1204 C1200 1.350 . S
C1204 C1201 1.463 . S
C1204 N1208 1.427 . S
C1205 H1195 0.929 . S
C1205 C1203 1.433 . S
C1205 N1208 1.384 . S
C1206 H1197 0.929 . S
C1206 C1198 1.378 . S
C1206 C1201 1.350 . S
C1207 H1194 0.929 . S
C1207 C1199 1.433 . S
C1207 N1209 1.384 . S
N1208 C1204 1.427 . S
N1208 C1205 1.384 . S
N1209 C1201 1.427 . S
N1209 C1207 1.384 . S
H1210 C1216 0.930 . S
H1211 C1220 0.930 . S
H1212 C1225 0.929 . S
H1213 C1223 0.929 . S
H1214 C1218 0.929 . S
H1215 C1224 0.929 . S
C1216 H1210 0.930 . S
C1216 C1217 1.367 . S
C1216 C1224 1.378 . S
C1217 C1216 1.367 . S
C1217 C1225 1.433 . S
C1218 H1214 0.929 . S
C1218 C1220 1.378 . S
C1218 C1222 1.350 . S
C1219 C1222 1.463 . S
C1219 C1224 1.350 . S
C1219 N1227 1.427 . S
C1220 H1211 0.930 . S
C1220 C1218 1.378 . S
C1220 C1221 1.367 . S
C1221 C1220 1.367 . S
C1221 C1223 1.433 . S
C1222 C1218 1.350 . S
C1222 C1219 1.463 . S
C1222 N1226 1.427 . S
C1223 H1213 0.929 . S
C1223 C1221 1.433 . S
C1223 N1226 1.384 . S
C1224 H1215 0.929 . S
C1224 C1216 1.378 . S
C1224 C1219 1.350 . S
C1225 H1212 0.929 . S
C1225 C1217 1.433 . S
C1225 N1227 1.384 . S
N1226 C1222 1.427 . S
N1226 C1223 1.384 . S
N1227 C1219 1.427 . S
N1227 C1225 1.384 . S
H1228 C1234 0.930 . S
H1229 C1238 0.952 . S
H1230 C1243 0.929 . S
H1231 C1241 0.929 . S
H1232 C1236 0.929 . S
H1233 C1242 0.929 . S
C1234 H1228 0.930 . S
C1234 C1235 1.367 . S
C1234 C1242 1.378 . S
C1235 C1234 1.367 . S
C1235 C1243 1.433 . S
C1236 H1232 0.929 . S
C1236 C1238 1.358 1_556 S
C1236 C1240 1.350 . S
C1237 C1240 1.463 . S
C1237 C1242 1.350 . S
C1237 N1245 1.427 . S
C1238 H1229 0.952 . S
C1238 C1236 1.358 1_554 S
C1238 C1239 1.365 1_554 S
C1239 C1238 1.365 1_556 S
C1239 C1241 1.433 . S
C1240 C1236 1.350 . S
C1240 C1237 1.463 . S
C1240 N1244 1.427 . S
C1241 H1231 0.929 . S
C1241 C1239 1.433 . S
C1241 N1244 1.384 . S
C1242 H1233 0.929 . S
C1242 C1234 1.378 . S
C1242 C1237 1.350 . S
C1243 H1230 0.929 . S
C1243 C1235 1.433 . S
C1243 N1245 1.384 . S
N1244 C1240 1.427 . S
N1244 C1241 1.384 . S
N1245 C1237 1.427 . S
N1245 C1243 1.384 . S
H1246 C1252 0.930 . S
H1247 C1256 0.930 . S
H1248 C1261 0.929 . S
H1249 C1259 0.929 . S
H1250 C1254 0.929 . S
H1251 C1260 0.929 . S
C1252 H1246 0.930 . S
C1252 C1253 1.367 . S
C1252 C1260 1.378 . S
C1253 C1252 1.367 . S
C1253 C1261 1.433 . S
C1254 H1250 0.929 . S
C1254 C1256 1.378 . S
C1254 C1258 1.350 . S
C1255 C1258 1.463 . S
C1255 C1260 1.350 . S
C1255 N1263 1.427 . S
C1256 H1247 0.930 . S
C1256 C1254 1.378 . S
C1256 C1257 1.367 . S
C1257 C1256 1.367 . S
C1257 C1259 1.433 . S
C1258 C1254 1.350 . S
C1258 C1255 1.463 . S
C1258 N1262 1.427 . S
C1259 H1249 0.929 . S
C1259 C1257 1.433 . S
C1259 N1262 1.384 . S
C1260 H1251 0.929 . S
C1260 C1252 1.378 . S
C1260 C1255 1.350 . S
C1261 H1248 0.929 . S
C1261 C1253 1.433 . S
C1261 N1263 1.384 . S
N1262 C1258 1.427 . S
N1262 C1259 1.384 . S
N1263 C1255 1.427 . S
N1263 C1261 1.384 . S
H1264 C1270 0.930 . S
H1265 C1274 0.930 . S
H1266 C1279 0.929 . S
H1267 C1277 0.929 . S
H1268 C1272 0.929 . S
H1269 C1278 0.929 . S
C1270 H1264 0.930 . S
C1270 C1271 1.367 . S
C1270 C1278 1.378 . S
C1271 C1270 1.367 . S
C1271 C1279 1.433 . S
C1272 H1268 0.929 . S
C1272 C1274 1.378 . S
C1272 C1276 1.350 1_545 S
C1273 C1276 1.463 . S
C1273 C1278 1.350 . S
C1273 N1281 1.427 . S
C1274 H1265 0.930 . S
C1274 C1272 1.378 . S
C1274 C1275 1.367 . S
C1275 C1274 1.367 . S
C1275 C1277 1.433 . S
C1276 C1272 1.350 1_565 S
C1276 C1273 1.463 . S
C1276 N1280 1.427 . S
C1277 H1267 0.929 . S
C1277 C1275 1.433 . S
C1277 N1280 1.384 1_545 S
C1278 H1269 0.929 . S
C1278 C1270 1.378 . S
C1278 C1273 1.350 . S
C1279 H1266 0.929 . S
C1279 C1271 1.433 . S
C1279 N1281 1.384 . S
N1280 C1276 1.427 . S
N1280 C1277 1.384 1_565 S
N1281 C1273 1.427 . S
N1281 C1279 1.384 . S
H1282 C1288 0.930 . S
H1283 C1292 0.930 . S
H1284 C1297 0.929 . S
H1285 C1295 0.929 . S
H1286 C1290 0.929 1_556 S
H1287 C1296 0.929 . S
C1288 H1282 0.930 . S
C1288 C1289 1.345 1_554 S
C1288 C1296 1.378 . S
C1289 C1288 1.345 1_556 S
C1289 C1297 1.444 . S
C1290 H1286 0.929 1_554 S
C1290 C1292 1.378 . S
C1290 C1294 1.350 . S
C1291 C1294 1.463 . S
C1291 C1296 1.350 . S
C1291 N1299 1.427 1_554 S
C1292 H1283 0.930 . S
C1292 C1290 1.378 . S
C1292 C1293 1.367 . S
C1293 C1292 1.367 . S
C1293 C1295 1.433 . S
C1294 C1290 1.350 . S
C1294 C1291 1.463 . S
C1294 N1298 1.427 . S
C1295 H1285 0.929 . S
C1295 C1293 1.433 . S
C1295 N1298 1.384 . S
C1296 H1287 0.929 . S
C1296 C1288 1.378 . S
C1296 C1291 1.350 . S
C1297 H1284 0.929 . S
C1297 C1289 1.444 . S
C1297 N1299 1.384 . S
N1298 C1294 1.427 . S
N1298 C1295 1.384 . S
N1299 C1291 1.427 1_556 S
N1299 C1297 1.384 . S
H1300 C1306 0.930 . S
H1301 C1310 0.930 . S
H1302 C1315 0.929 . S
H1303 C1313 0.929 . S
H1304 C1308 0.929 . S
H1305 C1314 0.929 . S
C1306 H1300 0.930 . S
C1306 C1307 1.367 . S
C1306 C1314 1.378 . S
C1307 C1306 1.367 . S
C1307 C1315 1.433 . S
C1308 H1304 0.929 . S
C1308 C1310 1.378 . S
C1308 C1312 1.350 . S
C1309 C1312 1.463 . S
C1309 C1314 1.350 . S
C1309 N1317 1.427 . S
C1310 H1301 0.930 . S
C1310 C1308 1.378 . S
C1310 C1311 1.367 . S
C1311 C1310 1.367 . S
C1311 C1313 1.433 . S
C1312 C1308 1.350 . S
C1312 C1309 1.463 . S
C1312 N1316 1.427 . S
C1313 H1303 0.929 . S
C1313 C1311 1.433 . S
C1313 N1316 1.384 . S
C1314 H1305 0.929 . S
C1314 C1306 1.378 . S
C1314 C1309 1.350 . S
C1315 H1302 0.929 . S
C1315 C1307 1.433 . S
C1315 N1317 1.384 . S
N1316 C1312 1.427 . S
N1316 C1313 1.384 . S
N1317 C1309 1.427 . S
N1317 C1315 1.384 . S
H1318 C1324 0.930 . S
H1319 C1328 0.930 . S
H1320 C1333 0.929 . S
H1321 C1331 0.929 . S
H1322 C1326 0.929 . S
H1323 C1332 0.929 . S
C1324 H1318 0.930 . S
C1324 C1325 1.367 . S
C1324 C1332 1.378 . S
C1325 C1324 1.367 . S
C1325 C1333 1.433 . S
C1326 H1322 0.929 . S
C1326 C1328 1.378 . S
C1326 C1330 1.350 . S
C1327 C1330 1.463 . S
C1327 C1332 1.350 . S
C1327 N1335 1.427 . S
C1328 H1319 0.930 . S
C1328 C1326 1.378 . S
C1328 C1329 1.367 . S
C1329 C1328 1.367 . S
C1329 C1331 1.433 . S
C1330 C1326 1.350 . S
C1330 C1327 1.463 . S
C1330 N1334 1.427 . S
C1331 H1321 0.929 . S
C1331 C1329 1.433 . S
C1331 N1334 1.384 . S
C1332 H1323 0.929 . S
C1332 C1324 1.378 . S
C1332 C1327 1.350 . S
C1333 H1320 0.929 . S
C1333 C1325 1.433 . S
C1333 N1335 1.384 . S
N1334 C1330 1.427 . S
N1334 C1331 1.384 . S
N1335 C1327 1.427 . S
N1335 C1333 1.384 . S
H1336 C1342 0.930 . S
H1337 C1346 0.930 . S
H1338 C1351 0.929 . S
H1339 C1349 0.929 . S
H1340 C1344 0.929 . S
H1341 C1350 0.929 . S
C1342 H1336 0.930 . S
C1342 C1343 1.367 . S
C1342 C1350 1.378 . S
C1343 C1342 1.367 . S
C1343 C1351 1.433 . S
C1344 H1340 0.929 . S
C1344 C1346 1.378 . S
C1344 C1348 1.350 . S
C1345 C1348 1.463 . S
C1345 C1350 1.350 . S
C1345 N1353 1.427 . S
C1346 H1337 0.930 . S
C1346 C1344 1.378 . S
C1346 C1347 1.367 . S
C1347 C1346 1.367 . S
C1347 C1349 1.433 . S
C1348 C1344 1.350 . S
C1348 C1345 1.463 . S
C1348 N1352 1.427 . S
C1349 H1339 0.929 . S
C1349 C1347 1.433 . S
C1349 N1352 1.384 . S
C1350 H1341 0.929 . S
C1350 C1342 1.378 . S
C1350 C1345 1.350 . S
C1351 H1338 0.929 . S
C1351 C1343 1.433 . S
C1351 N1353 1.384 . S
N1352 C1348 1.427 . S
N1352 C1349 1.384 . S
N1353 C1345 1.427 . S
N1353 C1351 1.384 . S
H1354 C1360 0.930 . S
H1355 C1364 0.930 . S
H1356 C1369 0.929 . S
H1357 C1367 0.929 . S
H1358 C1362 0.929 . S
H1359 C1368 0.929 . S
C1360 H1354 0.930 . S
C1360 C1361 1.367 . S
C1360 C1368 1.378 . S
C1361 C1360 1.367 . S
C1361 C1369 1.433 . S
C1362 H1358 0.929 . S
C1362 C1364 1.378 . S
C1362 C1366 1.350 . S
C1363 C1366 1.463 . S
C1363 C1368 1.350 . S
C1363 N1371 1.427 . S
C1364 H1355 0.930 . S
C1364 C1362 1.378 . S
C1364 C1365 1.367 . S
C1365 C1364 1.367 . S
C1365 C1367 1.433 . S
C1366 C1362 1.350 . S
C1366 C1363 1.463 . S
C1366 N1370 1.427 . S
C1367 H1357 0.929 . S
C1367 C1365 1.433 . S
C1367 N1370 1.384 . S
C1368 H1359 0.929 . S
C1368 C1360 1.378 . S
C1368 C1363 1.350 . S
C1369 H1356 0.929 . S
C1369 C1361 1.433 . S
C1369 N1371 1.384 . S
N1370 C1366 1.427 . S
N1370 C1367 1.384 . S
N1371 C1363 1.427 . S
N1371 C1369 1.384 . S
H1372 C1378 0.930 . S
H1373 C1382 0.930 . S
H1374 C1387 0.929 . S
H1375 C1385 0.929 . S
H1376 C1380 0.929 . S
H1377 C1386 0.929 . S
C1378 H1372 0.930 . S
C1378 C1379 1.367 . S
C1378 C1386 1.378 . S
C1379 C1378 1.367 . S
C1379 C1387 1.433 . S
C1380 H1376 0.929 . S
C1380 C1382 1.378 . S
C1380 C1384 1.350 . S
C1381 C1384 1.463 . S
C1381 C1386 1.350 . S
C1381 N1389 1.427 . S
C1382 H1373 0.930 . S
C1382 C1380 1.378 . S
C1382 C1383 1.367 . S
C1383 C1382 1.367 . S
C1383 C1385 1.433 . S
C1384 C1380 1.350 . S
C1384 C1381 1.463 . S
C1384 N1388 1.427 . S
C1385 H1375 0.929 . S
C1385 C1383 1.433 . S
C1385 N1388 1.384 . S
C1386 H1377 0.929 . S
C1386 C1378 1.378 . S
C1386 C1381 1.350 . S
C1387 H1374 0.929 . S
C1387 C1379 1.433 . S
C1387 N1389 1.384 . S
N1388 C1384 1.427 . S
N1388 C1385 1.384 . S
N1389 C1381 1.427 . S
N1389 C1387 1.384 . S
H1390 C1396 0.930 . S
H1391 C1400 0.930 . S
H1392 C1405 0.929 . S
H1393 C1403 0.929 . S
H1394 C1398 0.929 . S
H1395 C1404 0.929 . S
C1396 H1390 0.930 . S
C1396 C1397 1.367 . S
C1396 C1404 1.378 . S
C1397 C1396 1.367 . S
C1397 C1405 1.433 . S
C1398 H1394 0.929 . S
C1398 C1400 1.378 . S
C1398 C1402 1.350 . S
C1399 C1402 1.463 . S
C1399 C1404 1.350 . S
C1399 N1407 1.427 . S
C1400 H1391 0.930 . S
C1400 C1398 1.378 . S
C1400 C1401 1.367 . S
C1401 C1400 1.367 . S
C1401 C1403 1.433 . S
C1402 C1398 1.350 . S
C1402 C1399 1.463 . S
C1402 N1406 1.427 . S
C1403 H1393 0.929 . S
C1403 C1401 1.433 . S
C1403 N1406 1.384 . S
C1404 H1395 0.929 . S
C1404 C1396 1.378 . S
C1404 C1399 1.350 . S
C1405 H1392 0.929 . S
C1405 C1397 1.433 . S
C1405 N1407 1.384 . S
N1406 C1402 1.427 . S
N1406 C1403 1.384 . S
N1407 C1399 1.427 . S
N1407 C1405 1.384 . S
H1408 C1414 0.930 . S
H1409 C1418 0.930 . S
H1410 C1423 0.929 . S
H1411 C1421 0.929 . S
H1412 C1416 0.929 . S
H1413 C1422 0.929 . S
C1414 H1408 0.930 . S
C1414 C1415 1.367 . S
C1414 C1422 1.378 . S
C1415 C1414 1.367 . S
C1415 C1423 1.433 . S
C1416 H1412 0.929 . S
C1416 C1418 1.378 . S
C1416 C1420 1.350 . S
C1417 C1420 1.463 . S
C1417 C1422 1.350 . S
C1417 N1425 1.427 . S
C1418 H1409 0.930 . S
C1418 C1416 1.378 . S
C1418 C1419 1.367 . S
C1419 C1418 1.367 . S
C1419 C1421 1.433 . S
C1420 C1416 1.350 . S
C1420 C1417 1.463 . S
C1420 N1424 1.427 . S
C1421 H1411 0.929 . S
C1421 C1419 1.433 . S
C1421 N1424 1.384 . S
C1422 H1413 0.929 . S
C1422 C1414 1.378 . S
C1422 C1417 1.350 . S
C1423 H1410 0.929 . S
C1423 C1415 1.433 . S
C1423 N1425 1.384 . S
N1424 C1420 1.427 . S
N1424 C1421 1.384 . S
N1425 C1417 1.427 . S
N1425 C1423 1.384 . S
H1426 C1432 0.930 . S
H1427 C1436 0.930 . S
H1428 C1441 0.929 . S
H1429 C1439 0.929 . S
H1430 C1434 0.929 . S
H1431 C1440 0.929 . S
C1432 H1426 0.930 . S
C1432 C1433 1.367 . S
C1432 C1440 1.378 . S
C1433 C1432 1.367 . S
C1433 C1441 1.433 . S
C1434 H1430 0.929 . S
C1434 C1436 1.378 . S
C1434 C1438 1.350 . S
C1435 C1438 1.463 . S
C1435 C1440 1.350 . S
C1435 N1443 1.427 . S
C1436 H1427 0.930 . S
C1436 C1434 1.378 . S
C1436 C1437 1.367 . S
C1437 C1436 1.367 . S
C1437 C1439 1.433 . S
C1438 C1434 1.350 . S
C1438 C1435 1.463 . S
C1438 N1442 1.427 . S
C1439 H1429 0.929 . S
C1439 C1437 1.433 . S
C1439 N1442 1.384 . S
C1440 H1431 0.929 . S
C1440 C1432 1.378 . S
C1440 C1435 1.350 . S
C1441 H1428 0.929 . S
C1441 C1433 1.433 . S
C1441 N1443 1.384 . S
N1442 C1438 1.427 . S
N1442 C1439 1.384 . S
N1443 C1435 1.427 . S
N1443 C1441 1.384 . S
H1444 C1450 0.930 . S
H1445 C1454 0.930 . S
H1446 C1459 0.929 . S
H1447 C1457 0.929 . S
H1448 C1452 0.929 . S
H1449 C1458 0.929 . S
C1450 H1444 0.930 . S
C1450 C1451 1.367 . S
C1450 C1458 1.378 . S
C1451 C1450 1.367 . S
C1451 C1459 1.433 . S
C1452 H1448 0.929 . S
C1452 C1454 1.378 . S
C1452 C1456 1.350 . S
C1453 C1456 1.463 . S
C1453 C1458 1.350 . S
C1453 N1461 1.427 . S
C1454 H1445 0.930 . S
C1454 C1452 1.378 . S
C1454 C1455 1.367 . S
C1455 C1454 1.367 . S
C1455 C1457 1.433 . S
C1456 C1452 1.350 . S
C1456 C1453 1.463 . S
C1456 N1460 1.427 . S
C1457 H1447 0.929 . S
C1457 C1455 1.433 . S
C1457 N1460 1.384 . S
C1458 H1449 0.929 . S
C1458 C1450 1.378 . S
C1458 C1453 1.350 . S
C1459 H1446 0.929 . S
C1459 C1451 1.433 . S
C1459 N1461 1.384 . S
N1460 C1456 1.427 . S
N1460 C1457 1.384 . S
N1461 C1453 1.427 . S
N1461 C1459 1.384 . S
H1462 C1468 0.930 . S
H1463 C1472 0.930 . S
H1464 C1477 0.929 . S
H1465 C1475 0.929 . S
H1466 C1470 0.929 . S
H1467 C1476 0.929 . S
C1468 H1462 0.930 . S
C1468 C1469 1.367 . S
C1468 C1476 1.378 . S
C1469 C1468 1.367 . S
C1469 C1477 1.433 . S
C1470 H1466 0.929 . S
C1470 C1472 1.378 . S
C1470 C1474 1.350 . S
C1471 C1474 1.463 . S
C1471 C1476 1.350 . S
C1471 N1479 1.427 . S
C1472 H1463 0.930 . S
C1472 C1470 1.378 . S
C1472 C1473 1.367 . S
C1473 C1472 1.367 . S
C1473 C1475 1.433 . S
C1474 C1470 1.350 . S
C1474 C1471 1.463 . S
C1474 N1478 1.427 . S
C1475 H1465 0.929 . S
C1475 C1473 1.433 . S
C1475 N1478 1.384 . S
C1476 H1467 0.929 . S
C1476 C1468 1.378 . S
C1476 C1471 1.350 . S
C1477 H1464 0.929 . S
C1477 C1469 1.433 . S
C1477 N1479 1.384 . S
N1478 C1474 1.427 . S
N1478 C1475 1.384 . S
N1479 C1471 1.427 . S
N1479 C1477 1.384 . S
H1480 C1486 0.930 . S
H1481 C1490 0.930 . S
H1482 C1495 0.929 . S
H1483 C1493 0.929 . S
H1484 C1488 0.929 . S
H1485 C1494 0.929 . S
C1486 H1480 0.930 . S
C1486 C1487 1.367 . S
C1486 C1494 1.378 . S
C1487 C1486 1.367 . S
C1487 C1495 1.433 . S
C1488 H1484 0.929 . S
C1488 C1490 1.378 . S
C1488 C1492 1.350 . S
C1489 C1492 1.463 . S
C1489 C1494 1.350 . S
C1489 N1497 1.427 . S
C1490 H1481 0.930 . S
C1490 C1488 1.378 . S
C1490 C1491 1.367 . S
C1491 C1490 1.367 . S
C1491 C1493 1.433 . S
C1492 C1488 1.350 . S
C1492 C1489 1.463 . S
C1492 N1496 1.427 . S
C1493 H1483 0.929 . S
C1493 C1491 1.433 . S
C1493 N1496 1.384 . S
C1494 H1485 0.929 . S
C1494 C1486 1.378 . S
C1494 C1489 1.350 . S
C1495 H1482 0.929 . S
C1495 C1487 1.433 . S
C1495 N1497 1.384 . S
N1496 C1492 1.427 . S
N1496 C1493 1.384 . S
N1497 C1489 1.427 . S
N1497 C1495 1.384 . S
H1498 C1504 0.930 . S
H1499 C1508 0.930 . S
H1500 C1513 0.929 . S
H1501 C1511 0.929 . S
H1502 C1506 0.929 . S
H1503 C1512 0.929 . S
C1504 H1498 0.930 . S
C1504 C1505 1.367 . S
C1504 C1512 1.378 . S
C1505 C1504 1.367 . S
C1505 C1513 1.433 . S
C1506 H1502 0.929 . S
C1506 C1508 1.378 . S
C1506 C1510 1.350 . S
C1507 C1510 1.463 . S
C1507 C1512 1.350 . S
C1507 N1515 1.427 . S
C1508 H1499 0.930 . S
C1508 C1506 1.378 . S
C1508 C1509 1.367 . S
C1509 C1508 1.367 . S
C1509 C1511 1.433 . S
C1510 C1506 1.350 . S
C1510 C1507 1.463 . S
C1510 N1514 1.427 . S
C1511 H1501 0.929 . S
C1511 C1509 1.433 . S
C1511 N1514 1.384 . S
C1512 H1503 0.929 . S
C1512 C1504 1.378 . S
C1512 C1507 1.350 . S
C1513 H1500 0.929 . S
C1513 C1505 1.433 . S
C1513 N1515 1.384 . S
N1514 C1510 1.427 . S
N1514 C1511 1.384 . S
N1515 C1507 1.427 . S
N1515 C1513 1.384 . S
H1516 C1522 0.930 1_556 S
H1517 C1526 0.930 . S
H1518 C1531 0.929 . S
H1519 C1529 0.929 . S
H1520 C1524 0.929 . S
H1521 C1530 0.929 . S
C1522 H1516 0.930 1_554 S
C1522 C1523 1.367 . S
C1522 C1530 1.378 . S
C1523 C1522 1.367 . S
C1523 C1531 1.433 . S
C1524 H1520 0.929 . S
C1524 C1526 1.378 1_565 S
C1524 C1528 1.350 . S
C1525 C1528 1.463 . S
C1525 C1530 1.350 . S
C1525 N1533 1.427 . S
C1526 H1517 0.930 . S
C1526 C1524 1.378 1_545 S
C1526 C1527 1.367 . S
C1527 C1526 1.367 . S
C1527 C1529 1.433 . S
C1528 C1524 1.350 . S
C1528 C1525 1.463 . S
C1528 N1532 1.427 . S
C1529 H1519 0.929 . S
C1529 C1527 1.433 . S
C1529 N1532 1.384 1_545 S
C1530 H1521 0.929 . S
C1530 C1522 1.378 . S
C1530 C1525 1.350 . S
C1531 H1518 0.929 . S
C1531 C1523 1.433 . S
C1531 N1533 1.384 . S
N1532 C1528 1.427 . S
N1532 C1529 1.384 1_565 S
N1533 C1525 1.427 . S
N1533 C1531 1.384 . S
H1534 C1540 0.930 . S
H1535 C1544 0.930 . S
H1536 C1549 0.929 . S
H1537 C1547 0.929 . S
H1538 C1542 0.929 . S
H1539 C1548 0.929 . S
C1540 H1534 0.930 . S
C1540 C1541 1.367 . S
C1540 C1548 1.378 . S
C1541 C1540 1.367 . S
C1541 C1549 1.433 . S
C1542 H1538 0.929 . S
C1542 C1544 1.378 . S
C1542 C1546 1.350 . S
C1543 C1546 1.463 . S
C1543 C1548 1.350 . S
C1543 N1551 1.427 . S
C1544 H1535 0.930 . S
C1544 C1542 1.378 . S
C1544 C1545 1.367 . S
C1545 C1544 1.367 . S
C1545 C1547 1.433 . S
C1546 C1542 1.350 . S
C1546 C1543 1.463 . S
C1546 N1550 1.427 . S
C1547 H1537 0.929 . S
C1547 C1545 1.433 . S
C1547 N1550 1.384 . S
C1548 H1539 0.929 . S
C1548 C1540 1.378 . S
C1548 C1543 1.350 . S
C1549 H1536 0.929 . S
C1549 C1541 1.433 . S
C1549 N1551 1.384 . S
N1550 C1546 1.427 . S
N1550 C1547 1.384 . S
N1551 C1543 1.427 . S
N1551 C1549 1.384 . S
H1552 C1558 0.930 . S
H1553 C1562 0.930 . S
H1554 C1567 0.929 . S
H1555 C1565 0.929 1_554 S
H1556 C1560 0.929 . S
H1557 C1566 0.929 . S
C1558 H1552 0.930 . S
C1558 C1559 1.367 . S
C1558 C1566 1.378 . S
C1559 C1558 1.367 . S
C1559 C1567 1.433 . S
C1560 H1556 0.929 . S
C1560 C1562 1.378 . S
C1560 C1564 1.350 . S
C1561 C1564 1.463 . S
C1561 C1566 1.350 . S
C1561 N1569 1.427 . S
C1562 H1553 0.930 . S
C1562 C1560 1.378 . S
C1562 C1563 1.367 . S
C1563 C1562 1.367 . S
C1563 C1565 1.433 . S
C1564 C1560 1.350 . S
C1564 C1561 1.463 . S
C1564 N1568 1.427 . S
C1565 H1555 0.929 1_556 S
C1565 C1563 1.433 . S
C1565 N1568 1.384 . S
C1566 H1557 0.929 . S
C1566 C1558 1.378 . S
C1566 C1561 1.350 . S
C1567 H1554 0.929 . S
C1567 C1559 1.433 . S
C1567 N1569 1.384 . S
N1568 C1564 1.427 . S
N1568 C1565 1.384 . S
N1569 C1561 1.427 . S
N1569 C1567 1.384 . S
H1570 C1576 0.930 . S
H1571 C1580 0.930 . S
H1572 C1585 0.929 . S
H1573 C1583 0.929 . S
H1574 C1578 0.929 . S
H1575 C1584 0.929 . S
C1576 H1570 0.930 . S
C1576 C1577 1.367 . S
C1576 C1584 1.378 . S
C1577 C1576 1.367 . S
C1577 C1585 1.433 . S
C1578 H1574 0.929 . S
C1578 C1580 1.378 . S
C1578 C1582 1.350 . S
C1579 C1582 1.463 . S
C1579 C1584 1.350 . S
C1579 N1587 1.427 . S
C1580 H1571 0.930 . S
C1580 C1578 1.378 . S
C1580 C1581 1.367 . S
C1581 C1580 1.367 . S
C1581 C1583 1.433 . S
C1582 C1578 1.350 . S
C1582 C1579 1.463 . S
C1582 N1586 1.427 . S
C1583 H1573 0.929 . S
C1583 C1581 1.433 . S
C1583 N1586 1.384 . S
C1584 H1575 0.929 . S
C1584 C1576 1.378 . S
C1584 C1579 1.350 . S
C1585 H1572 0.929 . S
C1585 C1577 1.433 . S
C1585 N1587 1.384 . S
N1586 C1582 1.427 . S
N1586 C1583 1.384 . S
N1587 C1579 1.427 . S
N1587 C1585 1.384 . S
H1588 C1594 0.930 . S
H1589 C1598 0.930 . S
H1590 C1603 0.929 . S
H1591 C1601 0.929 . S
H1592 C1596 0.929 . S
H1593 C1602 0.929 . S
C1594 H1588 0.930 . S
C1594 C1595 1.367 . S
C1594 C1602 1.378 . S
C1595 C1594 1.367 . S
C1595 C1603 1.433 . S
C1596 H1592 0.929 . S
C1596 C1598 1.378 . S
C1596 C1600 1.350 . S
C1597 C1600 1.463 . S
C1597 C1602 1.350 . S
C1597 N1605 1.427 . S
C1598 H1589 0.930 . S
C1598 C1596 1.378 . S
C1598 C1599 1.367 . S
C1599 C1598 1.367 . S
C1599 C1601 1.433 . S
C1600 C1596 1.350 . S
C1600 C1597 1.463 . S
C1600 N1604 1.427 . S
C1601 H1591 0.929 . S
C1601 C1599 1.433 . S
C1601 N1604 1.384 . S
C1602 H1593 0.929 . S
C1602 C1594 1.378 . S
C1602 C1597 1.350 . S
C1603 H1590 0.929 . S
C1603 C1595 1.433 . S
C1603 N1605 1.384 . S
N1604 C1600 1.427 . S
N1604 C1601 1.384 . S
N1605 C1597 1.427 . S
N1605 C1603 1.384 . S
H1606 C1612 0.930 . S
H1607 C1616 0.930 . S
H1608 C1621 0.929 . S
H1609 C1619 0.929 . S
H1610 C1614 0.929 . S
H1611 C1620 0.929 . S
C1612 H1606 0.930 . S
C1612 C1613 1.367 . S
C1612 C1620 1.378 . S
C1613 C1612 1.367 . S
C1613 C1621 1.433 . S
C1614 H1610 0.929 . S
C1614 C1616 1.378 . S
C1614 C1618 1.350 . S
C1615 C1618 1.463 . S
C1615 C1620 1.350 . S
C1615 N1623 1.427 . S
C1616 H1607 0.930 . S
C1616 C1614 1.378 . S
C1616 C1617 1.367 . S
C1617 C1616 1.367 . S
C1617 C1619 1.433 . S
C1618 C1614 1.350 . S
C1618 C1615 1.463 . S
C1618 N1622 1.427 . S
C1619 H1609 0.929 . S
C1619 C1617 1.433 . S
C1619 N1622 1.384 . S
C1620 H1611 0.929 . S
C1620 C1612 1.378 . S
C1620 C1615 1.350 . S
C1621 H1608 0.929 . S
C1621 C1613 1.433 . S
C1621 N1623 1.384 . S
N1622 C1618 1.427 . S
N1622 C1619 1.384 . S
N1623 C1615 1.427 . S
N1623 C1621 1.384 . S
H1624 C1630 0.930 . S
H1625 C1634 0.930 . S
H1626 C1639 0.929 . S
H1627 C1637 0.929 . S
H1628 C1632 0.929 . S
H1629 C1638 0.929 . S
C1630 H1624 0.930 . S
C1630 C1631 1.367 . S
C1630 C1638 1.378 . S
C1631 C1630 1.367 . S
C1631 C1639 1.433 . S
C1632 H1628 0.929 . S
C1632 C1634 1.378 . S
C1632 C1636 1.350 . S
C1633 C1636 1.463 . S
C1633 C1638 1.350 . S
C1633 N1641 1.427 . S
C1634 H1625 0.930 . S
C1634 C1632 1.378 . S
C1634 C1635 1.367 . S
C1635 C1634 1.367 . S
C1635 C1637 1.433 . S
C1636 C1632 1.350 . S
C1636 C1633 1.463 . S
C1636 N1640 1.427 . S
C1637 H1627 0.929 . S
C1637 C1635 1.433 . S
C1637 N1640 1.384 . S
C1638 H1629 0.929 . S
C1638 C1630 1.378 . S
C1638 C1633 1.350 . S
C1639 H1626 0.929 . S
C1639 C1631 1.433 . S
C1639 N1641 1.384 . S
N1640 C1636 1.427 . S
N1640 C1637 1.384 . S
N1641 C1633 1.427 . S
N1641 C1639 1.384 . S
H1642 C1648 0.930 . S
H1643 C1652 0.930 . S
H1644 C1657 0.929 . S
H1645 C1655 0.929 . S
H1646 C1650 0.929 . S
H1647 C1656 0.929 . S
C1648 H1642 0.930 . S
C1648 C1649 1.367 . S
C1648 C1656 1.378 . S
C1649 C1648 1.367 . S
C1649 C1657 1.433 . S
C1650 H1646 0.929 . S
C1650 C1652 1.378 . S
C1650 C1654 1.350 . S
C1651 C1654 1.463 . S
C1651 C1656 1.350 . S
C1651 N1659 1.427 . S
C1652 H1643 0.930 . S
C1652 C1650 1.378 . S
C1652 C1653 1.367 . S
C1653 C1652 1.367 . S
C1653 C1655 1.433 . S
C1654 C1650 1.350 . S
C1654 C1651 1.463 . S
C1654 N1658 1.427 . S
C1655 H1645 0.929 . S
C1655 C1653 1.433 . S
C1655 N1658 1.384 . S
C1656 H1647 0.929 . S
C1656 C1648 1.378 . S
C1656 C1651 1.350 . S
C1657 H1644 0.929 . S
C1657 C1649 1.433 . S
C1657 N1659 1.384 . S
N1658 C1654 1.427 . S
N1658 C1655 1.384 . S
N1659 C1651 1.427 . S
N1659 C1657 1.384 . S
H1660 C1666 0.930 . S
H1661 C1670 0.930 . S
H1662 C1675 0.929 . S
H1663 C1673 0.929 . S
H1664 C1668 0.929 . S
H1665 C1674 0.929 . S
C1666 H1660 0.930 . S
C1666 C1667 1.367 . S
C1666 C1674 1.378 . S
C1667 C1666 1.367 . S
C1667 C1675 1.433 . S
C1668 H1664 0.929 . S
C1668 C1670 1.378 . S
C1668 C1672 1.350 . S
C1669 C1672 1.463 . S
C1669 C1674 1.350 . S
C1669 N1677 1.427 . S
C1670 H1661 0.930 . S
C1670 C1668 1.378 . S
C1670 C1671 1.367 . S
C1671 C1670 1.367 . S
C1671 C1673 1.433 . S
C1672 C1668 1.350 . S
C1672 C1669 1.463 . S
C1672 N1676 1.427 . S
C1673 H1663 0.929 . S
C1673 C1671 1.433 . S
C1673 N1676 1.384 . S
C1674 H1665 0.929 . S
C1674 C1666 1.378 . S
C1674 C1669 1.350 . S
C1675 H1662 0.929 . S
C1675 C1667 1.433 . S
C1675 N1677 1.384 . S
N1676 C1672 1.427 . S
N1676 C1673 1.384 . S
N1677 C1669 1.427 . S
N1677 C1675 1.384 . S
H1678 C1684 0.930 . S
H1679 C1688 0.930 . S
H1680 C1693 0.929 . S
H1681 C1691 0.929 . S
H1682 C1686 0.929 . S
H1683 C1692 0.929 . S
C1684 H1678 0.930 . S
C1684 C1685 1.367 . S
C1684 C1692 1.378 . S
C1685 C1684 1.367 . S
C1685 C1693 1.433 . S
C1686 H1682 0.929 . S
C1686 C1688 1.378 . S
C1686 C1690 1.350 . S
C1687 C1690 1.463 . S
C1687 C1692 1.350 . S
C1687 N1695 1.427 . S
C1688 H1679 0.930 . S
C1688 C1686 1.378 . S
C1688 C1689 1.367 . S
C1689 C1688 1.367 . S
C1689 C1691 1.433 . S
C1690 C1686 1.350 . S
C1690 C1687 1.463 . S
C1690 N1694 1.427 . S
C1691 H1681 0.929 . S
C1691 C1689 1.433 . S
C1691 N1694 1.384 . S
C1692 H1683 0.929 . S
C1692 C1684 1.378 . S
C1692 C1687 1.350 . S
C1693 H1680 0.929 . S
C1693 C1685 1.433 . S
C1693 N1695 1.384 . S
N1694 C1690 1.427 . S
N1694 C1691 1.384 . S
N1695 C1687 1.427 . S
N1695 C1693 1.384 . S
H1696 C1702 0.930 . S
H1697 C1706 0.930 . S
H1698 C1711 0.929 . S
H1699 C1709 0.929 . S
H1700 C1704 0.929 . S
H1701 C1710 0.929 . S
C1702 H1696 0.930 . S
C1702 C1703 1.367 . S
C1702 C1710 1.378 . S
C1703 C1702 1.367 . S
C1703 C1711 1.433 . S
C1704 H1700 0.929 . S
C1704 C1706 1.378 . S
C1704 C1708 1.350 . S
C1705 C1708 1.463 . S
C1705 C1710 1.350 . S
C1705 N1713 1.427 . S
C1706 H1697 0.930 . S
C1706 C1704 1.378 . S
C1706 C1707 1.367 . S
C1707 C1706 1.367 . S
C1707 C1709 1.433 . S
C1708 C1704 1.350 . S
C1708 C1705 1.463 . S
C1708 N1712 1.427 . S
C1709 H1699 0.929 . S
C1709 C1707 1.433 . S
C1709 N1712 1.384 . S
C1710 H1701 0.929 . S
C1710 C1702 1.378 . S
C1710 C1705 1.350 . S
C1711 H1698 0.929 . S
C1711 C1703 1.433 . S
C1711 N1713 1.384 . S
N1712 C1708 1.427 . S
N1712 C1709 1.384 . S
N1713 C1705 1.427 . S
N1713 C1711 1.384 . S
H1714 C1720 0.930 . S
H1715 C1724 0.930 . S
H1716 C1729 0.929 . S
H1717 C1727 0.929 . S
H1718 C1722 0.929 . S
H1719 C1728 0.929 . S
C1720 H1714 0.930 . S
C1720 C1721 1.367 . S
C1720 C1728 1.378 . S
C1721 C1720 1.367 . S
C1721 C1729 1.433 . S
C1722 H1718 0.929 . S
C1722 C1724 1.378 . S
C1722 C1726 1.350 . S
C1723 C1726 1.463 . S
C1723 C1728 1.350 . S
C1723 N1731 1.427 . S
C1724 H1715 0.930 . S
C1724 C1722 1.378 . S
C1724 C1725 1.367 . S
C1725 C1724 1.367 . S
C1725 C1727 1.433 . S
C1726 C1722 1.350 . S
C1726 C1723 1.463 . S
C1726 N1730 1.427 . S
C1727 H1717 0.929 . S
C1727 C1725 1.433 . S
C1727 N1730 1.384 . S
C1728 H1719 0.929 . S
C1728 C1720 1.378 . S
C1728 C1723 1.350 . S
C1729 H1716 0.929 . S
C1729 C1721 1.433 . S
C1729 N1731 1.384 . S
N1730 C1726 1.427 . S
N1730 C1727 1.384 . S
N1731 C1723 1.427 . S
N1731 C1729 1.384 . S
H1732 C1738 0.930 . S
H1733 C1742 0.930 . S
H1734 C1747 0.929 . S
H1735 C1745 0.929 . S
H1736 C1740 0.929 . S
H1737 C1746 0.929 . S
C1738 H1732 0.930 . S
C1738 C1739 1.367 . S
C1738 C1746 1.378 . S
C1739 C1738 1.367 . S
C1739 C1747 1.433 . S
C1740 H1736 0.929 . S
C1740 C1742 1.378 . S
C1740 C1744 1.350 . S
C1741 C1744 1.463 . S
C1741 C1746 1.350 . S
C1741 N1749 1.427 . S
C1742 H1733 0.930 . S
C1742 C1740 1.378 . S
C1742 C1743 1.367 . S
C1743 C1742 1.367 . S
C1743 C1745 1.433 . S
C1744 C1740 1.350 . S
C1744 C1741 1.463 . S
C1744 N1748 1.427 . S
C1745 H1735 0.929 . S
C1745 C1743 1.433 . S
C1745 N1748 1.384 . S
C1746 H1737 0.929 . S
C1746 C1738 1.378 . S
C1746 C1741 1.350 . S
C1747 H1734 0.929 . S
C1747 C1739 1.433 . S
C1747 N1749 1.384 . S
N1748 C1744 1.427 . S
N1748 C1745 1.384 . S
N1749 C1741 1.427 . S
N1749 C1747 1.384 . S
H1750 C1756 0.930 . S
H1751 C1760 0.930 . S
H1752 C1765 0.929 . S
H1753 C1763 0.929 . S
H1754 C1758 0.929 . S
H1755 C1764 0.929 . S
C1756 H1750 0.930 . S
C1756 C1757 1.367 . S
C1756 C1764 1.378 . S
C1757 C1756 1.367 . S
C1757 C1765 1.433 . S
C1758 H1754 0.929 . S
C1758 C1760 1.378 . S
C1758 C1762 1.350 . S
C1759 C1762 1.463 . S
C1759 C1764 1.350 . S
C1759 N1767 1.427 . S
C1760 H1751 0.930 . S
C1760 C1758 1.378 . S
C1760 C1761 1.367 . S
C1761 C1760 1.367 . S
C1761 C1763 1.433 . S
C1762 C1758 1.350 . S
C1762 C1759 1.463 . S
C1762 N1766 1.427 . S
C1763 H1753 0.929 . S
C1763 C1761 1.433 . S
C1763 N1766 1.384 . S
C1764 H1755 0.929 . S
C1764 C1756 1.378 . S
C1764 C1759 1.350 . S
C1765 H1752 0.929 . S
C1765 C1757 1.433 . S
C1765 N1767 1.384 . S
N1766 C1762 1.427 . S
N1766 C1763 1.384 . S
N1767 C1759 1.427 . S
N1767 C1765 1.384 . S
H1768 C1774 0.930 . S
H1769 C1778 0.930 . S
H1770 C1783 0.929 . S
H1771 C1781 0.929 . S
H1772 C1776 0.929 . S
H1773 C1782 0.929 . S
C1774 H1768 0.930 . S
C1774 C1775 1.367 . S
C1774 C1782 1.378 . S
C1775 C1774 1.367 . S
C1775 C1783 1.433 . S
C1776 H1772 0.929 . S
C1776 C1778 1.378 . S
C1776 C1780 1.350 . S
C1777 C1780 1.463 . S
C1777 C1782 1.350 . S
C1777 N1785 1.427 . S
C1778 H1769 0.930 . S
C1778 C1776 1.378 . S
C1778 C1779 1.367 . S
C1779 C1778 1.367 . S
C1779 C1781 1.433 . S
C1780 C1776 1.350 . S
C1780 C1777 1.463 . S
C1780 N1784 1.427 . S
C1781 H1771 0.929 . S
C1781 C1779 1.433 . S
C1781 N1784 1.384 . S
C1782 H1773 0.929 . S
C1782 C1774 1.378 . S
C1782 C1777 1.350 . S
C1783 H1770 0.929 . S
C1783 C1775 1.433 . S
C1783 N1785 1.384 . S
N1784 C1780 1.427 . S
N1784 C1781 1.384 . S
N1785 C1777 1.427 . S
N1785 C1783 1.384 . S
H1786 C1792 0.930 . S
H1787 C1796 0.930 . S
H1788 C1801 0.929 . S
H1789 C1799 0.929 1_565 S
H1790 C1794 0.929 . S
H1791 C1800 0.929 . S
C1792 H1786 0.930 . S
C1792 C1793 1.367 1_565 S
C1792 C1800 1.378 . S
C1793 C1792 1.367 1_545 S
C1793 C1801 1.433 . S
C1794 H1790 0.929 . S
C1794 C1796 1.378 . S
C1794 C1798 1.350 . S
C1795 C1798 1.463 . S
C1795 C1800 1.350 1_545 S
C1795 N1803 1.427 . S
C1796 H1787 0.930 . S
C1796 C1794 1.378 . S
C1796 C1797 1.367 . S
C1797 C1796 1.367 . S
C1797 C1799 1.433 . S
C1798 C1794 1.350 . S
C1798 C1795 1.463 . S
C1798 N1802 1.424 1_545 S
C1799 H1789 0.929 1_545 S
C1799 C1797 1.433 . S
C1799 N1802 1.380 1_545 S
C1800 H1791 0.929 . S
C1800 C1792 1.378 . S
C1800 C1795 1.350 1_565 S
C1801 H1788 0.929 . S
C1801 C1793 1.433 . S
C1801 N1803 1.384 . S
N1802 C1798 1.424 1_565 S
N1802 C1799 1.380 1_565 S
N1803 C1795 1.427 . S
N1803 C1801 1.384 . S
H1804 C1810 0.930 . S
H1805 C1814 0.930 . S
H1806 C1819 0.929 . S
H1807 C1817 0.929 . S
H1808 C1812 0.929 . S
H1809 C1818 0.929 . S
C1810 H1804 0.930 . S
C1810 C1811 1.367 . S
C1810 C1818 1.378 . S
C1811 C1810 1.367 . S
C1811 C1819 1.433 . S
C1812 H1808 0.929 . S
C1812 C1814 1.378 . S
C1812 C1816 1.350 . S
C1813 C1816 1.463 . S
C1813 C1818 1.350 . S
C1813 N1821 1.427 . S
C1814 H1805 0.930 . S
C1814 C1812 1.378 . S
C1814 C1815 1.367 . S
C1815 C1814 1.367 . S
C1815 C1817 1.433 . S
C1816 C1812 1.350 . S
C1816 C1813 1.463 . S
C1816 N1820 1.427 . S
C1817 H1807 0.929 . S
C1817 C1815 1.433 . S
C1817 N1820 1.384 . S
C1818 H1809 0.929 . S
C1818 C1810 1.378 . S
C1818 C1813 1.350 . S
C1819 H1806 0.929 . S
C1819 C1811 1.433 . S
C1819 N1821 1.384 . S
N1820 C1816 1.427 . S
N1820 C1817 1.384 . S
N1821 C1813 1.427 . S
N1821 C1819 1.384 . S
H1822 C1828 0.930 . S
H1823 C1832 0.930 . S
H1824 C1837 0.929 . S
H1825 C1835 0.929 . S
H1826 C1830 0.929 . S
H1827 C1836 0.929 . S
C1828 H1822 0.930 . S
C1828 C1829 1.367 . S
C1828 C1836 1.378 . S
C1829 C1828 1.367 . S
C1829 C1837 1.433 . S
C1830 H1826 0.929 . S
C1830 C1832 1.378 . S
C1830 C1834 1.350 . S
C1831 C1834 1.463 . S
C1831 C1836 1.350 . S
C1831 N1839 1.427 . S
C1832 H1823 0.930 . S
C1832 C1830 1.378 . S
C1832 C1833 1.367 . S
C1833 C1832 1.367 . S
C1833 C1835 1.433 . S
C1834 C1830 1.350 . S
C1834 C1831 1.463 . S
C1834 N1838 1.427 . S
C1835 H1825 0.929 . S
C1835 C1833 1.433 . S
C1835 N1838 1.384 . S
C1836 H1827 0.929 . S
C1836 C1828 1.378 . S
C1836 C1831 1.350 . S
C1837 H1824 0.929 . S
C1837 C1829 1.433 . S
C1837 N1839 1.384 . S
N1838 C1834 1.427 . S
N1838 C1835 1.384 . S
N1839 C1831 1.427 . S
N1839 C1837 1.384 . S
H1840 C1846 0.930 . S
H1841 C1850 0.930 . S
H1842 C1855 0.929 . S
H1843 C1853 0.929 . S
H1844 C1848 0.929 . S
H1845 C1854 0.929 . S
C1846 H1840 0.930 . S
C1846 C1847 1.367 . S
C1846 C1854 1.378 . S
C1847 C1846 1.367 . S
C1847 C1855 1.433 . S
C1848 H1844 0.929 . S
C1848 C1850 1.378 . S
C1848 C1852 1.350 . S
C1849 C1852 1.463 . S
C1849 C1854 1.350 . S
C1849 N1857 1.427 . S
C1850 H1841 0.930 . S
C1850 C1848 1.378 . S
C1850 C1851 1.367 . S
C1851 C1850 1.367 . S
C1851 C1853 1.433 . S
C1852 C1848 1.350 . S
C1852 C1849 1.463 . S
C1852 N1856 1.427 . S
C1853 H1843 0.929 . S
C1853 C1851 1.433 . S
C1853 N1856 1.384 . S
C1854 H1845 0.929 . S
C1854 C1846 1.378 . S
C1854 C1849 1.350 . S
C1855 H1842 0.929 . S
C1855 C1847 1.433 . S
C1855 N1857 1.384 . S
N1856 C1852 1.427 . S
N1856 C1853 1.384 . S
N1857 C1849 1.427 . S
N1857 C1855 1.384 . S
H1858 C1864 0.930 . S
H1859 C1868 0.930 . S
H1860 C1873 0.929 . S
H1861 C1871 0.929 . S
H1862 C1866 0.929 . S
H1863 C1872 0.929 . S
C1864 H1858 0.930 . S
C1864 C1865 1.367 . S
C1864 C1872 1.378 . S
C1865 C1864 1.367 . S
C1865 C1873 1.433 . S
C1866 H1862 0.929 . S
C1866 C1868 1.378 . S
C1866 C1870 1.350 . S
C1867 C1870 1.463 . S
C1867 C1872 1.350 . S
C1867 N1875 1.427 . S
C1868 H1859 0.930 . S
C1868 C1866 1.378 . S
C1868 C1869 1.367 . S
C1869 C1868 1.367 . S
C1869 C1871 1.433 . S
C1870 C1866 1.350 . S
C1870 C1867 1.463 . S
C1870 N1874 1.427 . S
C1871 H1861 0.929 . S
C1871 C1869 1.433 . S
C1871 N1874 1.384 . S
C1872 H1863 0.929 . S
C1872 C1864 1.378 . S
C1872 C1867 1.350 . S
C1873 H1860 0.929 . S
C1873 C1865 1.433 . S
C1873 N1875 1.384 . S
N1874 C1870 1.427 . S
N1874 C1871 1.384 . S
N1875 C1867 1.427 . S
N1875 C1873 1.384 . S
H1876 C1882 0.930 . S
H1877 C1886 0.930 . S
H1878 C1891 0.929 . S
H1879 C1889 0.929 . S
H1880 C1884 0.929 . S
H1881 C1890 0.929 1_554 S
C1882 H1876 0.930 . S
C1882 C1883 1.367 . S
C1882 C1890 1.378 . S
C1883 C1882 1.367 . S
C1883 C1891 1.433 . S
C1884 H1880 0.929 . S
C1884 C1886 1.378 1_556 S
C1884 C1888 1.350 1_556 S
C1885 C1888 1.463 1_556 S
C1885 C1890 1.350 . S
C1885 N1893 1.427 . S
C1886 H1877 0.930 . S
C1886 C1884 1.378 1_554 S
C1886 C1887 1.367 . S
C1887 C1886 1.367 . S
C1887 C1889 1.433 . S
C1888 C1884 1.350 1_554 S
C1888 C1885 1.463 1_554 S
C1888 N1892 1.427 . S
C1889 H1879 0.929 . S
C1889 C1887 1.433 . S
C1889 N1892 1.384 . S
C1890 H1881 0.929 1_556 S
C1890 C1882 1.378 . S
C1890 C1885 1.350 . S
C1891 H1878 0.929 . S
C1891 C1883 1.433 . S
C1891 N1893 1.384 . S
N1892 C1888 1.427 . S
N1892 C1889 1.384 . S
N1893 C1885 1.427 . S
N1893 C1891 1.384 . S
H1894 C1900 0.930 . S
H1895 C1904 0.930 . S
H1896 C1909 0.929 . S
H1897 C1907 0.929 . S
H1898 C1902 0.929 . S
H1899 C1908 0.929 . S
C1900 H1894 0.930 . S
C1900 C1901 1.367 . S
C1900 C1908 1.378 . S
C1901 C1900 1.367 . S
C1901 C1909 1.433 . S
C1902 H1898 0.929 . S
C1902 C1904 1.378 . S
C1902 C1906 1.350 . S
C1903 C1906 1.463 . S
C1903 C1908 1.350 . S
C1903 N1911 1.427 . S
C1904 H1895 0.930 . S
C1904 C1902 1.378 . S
C1904 C1905 1.367 . S
C1905 C1904 1.367 . S
C1905 C1907 1.433 . S
C1906 C1902 1.350 . S
C1906 C1903 1.463 . S
C1906 N1910 1.427 . S
C1907 H1897 0.929 . S
C1907 C1905 1.433 . S
C1907 N1910 1.384 . S
C1908 H1899 0.929 . S
C1908 C1900 1.378 . S
C1908 C1903 1.350 . S
C1909 H1896 0.929 . S
C1909 C1901 1.433 . S
C1909 N1911 1.384 . S
N1910 C1906 1.427 . S
N1910 C1907 1.384 . S
N1911 C1903 1.427 . S
N1911 C1909 1.384 . S
H1912 C1918 0.930 . S
H1913 C1922 0.930 . S
H1914 C1927 0.929 . S
H1915 C1925 0.929 . S
H1916 C1920 0.929 . S
H1917 C1926 0.929 . S
C1918 H1912 0.930 . S
C1918 C1919 1.367 . S
C1918 C1926 1.378 . S
C1919 C1918 1.367 . S
C1919 C1927 1.433 . S
C1920 H1916 0.929 . S
C1920 C1922 1.378 . S
C1920 C1924 1.350 . S
C1921 C1924 1.463 . S
C1921 C1926 1.350 . S
C1921 N1929 1.427 . S
C1922 H1913 0.930 . S
C1922 C1920 1.378 . S
C1922 C1923 1.367 . S
C1923 C1922 1.367 . S
C1923 C1925 1.433 . S
C1924 C1920 1.350 . S
C1924 C1921 1.463 . S
C1924 N1928 1.427 . S
C1925 H1915 0.929 . S
C1925 C1923 1.433 . S
C1925 N1928 1.384 . S
C1926 H1917 0.929 . S
C1926 C1918 1.378 . S
C1926 C1921 1.350 . S
C1927 H1914 0.929 . S
C1927 C1919 1.433 . S
C1927 N1929 1.384 . S
N1928 C1924 1.427 . S
N1928 C1925 1.384 . S
N1929 C1921 1.427 . S
N1929 C1927 1.384 . S
H1930 C1936 0.928 . S
H1931 C1940 0.930 . S
H1932 C1945 0.929 . S
H1933 C1943 0.929 . S
H1934 C1938 0.929 . S
H1935 C1944 0.929 . S
C1936 H1930 0.928 . S
C1936 C1937 1.367 1_655 S
C1936 C1944 1.378 . S
C1937 C1936 1.367 1_455 S
C1937 C1945 1.433 . S
C1938 H1934 0.929 . S
C1938 C1940 1.378 . S
C1938 C1942 1.350 . S
C1939 C1942 1.463 . S
C1939 C1944 1.350 . S
C1939 N1947 1.427 . S
C1940 H1931 0.930 . S
C1940 C1938 1.378 . S
C1940 C1941 1.367 . S
C1941 C1940 1.367 . S
C1941 C1943 1.433 . S
C1942 C1938 1.350 . S
C1942 C1939 1.463 . S
C1942 N1946 1.427 . S
C1943 H1933 0.929 . S
C1943 C1941 1.433 . S
C1943 N1946 1.384 . S
C1944 H1935 0.929 . S
C1944 C1936 1.378 . S
C1944 C1939 1.350 . S
C1945 H1932 0.929 . S
C1945 C1937 1.433 . S
C1945 N1947 1.384 1_455 S
N1946 C1942 1.427 . S
N1946 C1943 1.384 . S
N1947 C1939 1.427 . S
N1947 C1945 1.384 1_655 S
H1948 C1954 0.930 . S
H1949 C1958 0.930 . S
H1950 C1963 0.929 . S
H1951 C1961 0.929 . S
H1952 C1956 0.929 1_655 S
H1953 C1962 0.929 . S
C1954 H1948 0.930 . S
C1954 C1955 1.367 1_455 S
C1954 C1962 1.378 . S
C1955 C1954 1.367 1_655 S
C1955 C1963 1.433 . S
C1956 H1952 0.929 1_455 S
C1956 C1958 1.378 . S
C1956 C1960 1.350 . S
C1957 C1960 1.463 . S
C1957 C1962 1.350 . S
C1957 N1965 1.427 1_455 S
C1958 H1949 0.930 . S
C1958 C1956 1.378 . S
C1958 C1959 1.367 . S
C1959 C1958 1.367 . S
C1959 C1961 1.433 . S
C1960 C1956 1.350 . S
C1960 C1957 1.463 . S
C1960 N1964 1.427 . S
C1961 H1951 0.929 . S
C1961 C1959 1.433 . S
C1961 N1964 1.384 . S
C1962 H1953 0.929 . S
C1962 C1954 1.378 . S
C1962 C1957 1.350 . S
C1963 H1950 0.929 . S
C1963 C1955 1.433 . S
C1963 N1965 1.384 . S
N1964 C1960 1.427 . S
N1964 C1961 1.384 . S
N1965 C1957 1.427 1_655 S
N1965 C1963 1.384 . S
H1966 C1972 0.930 . S
H1967 C1976 0.930 . S
H1968 C1981 0.929 . S
H1969 C1979 0.929 . S
H1970 C1974 0.929 . S
H1971 C1980 0.929 . S
C1972 H1966 0.930 . S
C1972 C1973 1.367 . S
C1972 C1980 1.378 . S
C1973 C1972 1.367 . S
C1973 C1981 1.433 . S
C1974 H1970 0.929 . S
C1974 C1976 1.378 . S
C1974 C1978 1.350 . S
C1975 C1978 1.463 . S
C1975 C1980 1.350 . S
C1975 N1983 1.427 . S
C1976 H1967 0.930 . S
C1976 C1974 1.378 . S
C1976 C1977 1.367 . S
C1977 C1976 1.367 . S
C1977 C1979 1.433 . S
C1978 C1974 1.350 . S
C1978 C1975 1.463 . S
C1978 N1982 1.427 . S
C1979 H1969 0.929 . S
C1979 C1977 1.433 . S
C1979 N1982 1.384 . S
C1980 H1971 0.929 . S
C1980 C1972 1.378 . S
C1980 C1975 1.350 . S
C1981 H1968 0.929 . S
C1981 C1973 1.433 . S
C1981 N1983 1.384 . S
N1982 C1978 1.427 . S
N1982 C1979 1.384 . S
N1983 C1975 1.427 . S
N1983 C1981 1.384 . S
H1984 C1990 0.930 . S
H1985 C1994 0.930 . S
H1986 C1999 0.929 . S
H1987 C1997 0.929 . S
H1988 C1992 0.929 . S
H1989 C1998 0.929 . S
C1990 H1984 0.930 . S
C1990 C1991 1.367 . S
C1990 C1998 1.378 . S
C1991 C1990 1.367 . S
C1991 C1999 1.433 . S
C1992 H1988 0.929 . S
C1992 C1994 1.378 . S
C1992 C1996 1.350 . S
C1993 C1996 1.463 . S
C1993 C1998 1.350 . S
C1993 N2001 1.427 . S
C1994 H1985 0.930 . S
C1994 C1992 1.378 . S
C1994 C1995 1.367 . S
C1995 C1994 1.367 . S
C1995 C1997 1.433 . S
C1996 C1992 1.350 . S
C1996 C1993 1.463 . S
C1996 N2000 1.427 . S
C1997 H1987 0.929 . S
C1997 C1995 1.433 . S
C1997 N2000 1.384 . S
C1998 H1989 0.929 . S
C1998 C1990 1.378 . S
C1998 C1993 1.350 . S
C1999 H1986 0.929 . S
C1999 C1991 1.433 . S
C1999 N2001 1.384 . S
N2000 C1996 1.427 . S
N2000 C1997 1.384 . S
N2001 C1993 1.427 . S
N2001 C1999 1.384 . S
H2002 C2008 0.930 . S
H2003 C2012 0.930 . S
H2004 C2017 0.929 1_554 S
H2005 C2015 0.929 . S
H2006 C2010 0.929 . S
H2007 C2016 0.929 . S
C2008 H2002 0.930 . S
C2008 C2009 1.367 . S
C2008 C2016 1.378 . S
C2009 C2008 1.367 . S
C2009 C2017 1.433 . S
C2010 H2006 0.929 . S
C2010 C2012 1.378 . S
C2010 C2014 1.350 . S
C2011 C2014 1.463 . S
C2011 C2016 1.350 . S
C2011 N2019 1.427 . S
C2012 H2003 0.930 . S
C2012 C2010 1.378 . S
C2012 C2013 1.367 . S
C2013 C2012 1.367 . S
C2013 C2015 1.433 . S
C2014 C2010 1.350 . S
C2014 C2011 1.463 . S
C2014 N2018 1.427 . S
C2015 H2005 0.929 . S
C2015 C2013 1.433 . S
C2015 N2018 1.384 . S
C2016 H2007 0.929 . S
C2016 C2008 1.378 . S
C2016 C2011 1.350 . S
C2017 H2004 0.929 1_556 S
C2017 C2009 1.433 . S
C2017 N2019 1.384 . S
N2018 C2014 1.427 . S
N2018 C2015 1.384 . S
N2019 C2011 1.427 . S
N2019 C2017 1.384 . S
H2020 C2026 0.930 . S
H2021 C2030 0.930 . S
H2022 C2035 0.929 . S
H2023 C2033 0.929 . S
H2024 C2028 0.929 . S
H2025 C2034 0.929 . S
C2026 H2020 0.930 . S
C2026 C2027 1.367 . S
C2026 C2034 1.378 . S
C2027 C2026 1.367 . S
C2027 C2035 1.433 . S
C2028 H2024 0.929 . S
C2028 C2030 1.378 . S
C2028 C2032 1.350 . S
C2029 C2032 1.463 . S
C2029 C2034 1.350 . S
C2029 N2037 1.427 . S
C2030 H2021 0.930 . S
C2030 C2028 1.378 . S
C2030 C2031 1.367 . S
C2031 C2030 1.367 . S
C2031 C2033 1.433 . S
C2032 C2028 1.350 . S
C2032 C2029 1.463 . S
C2032 N2036 1.427 . S
C2033 H2023 0.929 . S
C2033 C2031 1.433 . S
C2033 N2036 1.384 . S
C2034 H2025 0.929 . S
C2034 C2026 1.378 . S
C2034 C2029 1.350 . S
C2035 H2022 0.929 . S
C2035 C2027 1.433 . S
C2035 N2037 1.384 . S
N2036 C2032 1.427 . S
N2036 C2033 1.384 . S
N2037 C2029 1.427 . S
N2037 C2035 1.384 . S
H2038 C2044 0.930 . S
H2039 C2048 0.930 . S
H2040 C2053 0.929 . S
H2041 C2051 0.929 . S
H2042 C2046 0.929 . S
H2043 C2052 0.929 . S
C2044 H2038 0.930 . S
C2044 C2045 1.367 . S
C2044 C2052 1.378 . S
C2045 C2044 1.367 . S
C2045 C2053 1.433 . S
C2046 H2042 0.929 . S
C2046 C2048 1.378 . S
C2046 C2050 1.350 . S
C2047 C2050 1.463 . S
C2047 C2052 1.350 . S
C2047 N2055 1.427 . S
C2048 H2039 0.930 . S
C2048 C2046 1.378 . S
C2048 C2049 1.367 . S
C2049 C2048 1.367 . S
C2049 C2051 1.433 . S
C2050 C2046 1.350 . S
C2050 C2047 1.463 . S
C2050 N2054 1.427 . S
C2051 H2041 0.929 . S
C2051 C2049 1.433 . S
C2051 N2054 1.384 . S
C2052 H2043 0.929 . S
C2052 C2044 1.378 . S
C2052 C2047 1.350 . S
C2053 H2040 0.929 . S
C2053 C2045 1.433 . S
C2053 N2055 1.384 . S
N2054 C2050 1.427 . S
N2054 C2051 1.384 . S
N2055 C2047 1.427 . S
N2055 C2053 1.384 . S
H2056 C2062 0.930 . S
H2057 C2066 0.932 . S
H2058 C2071 0.929 . S
H2059 C2069 0.929 . S
H2060 C2064 0.929 . S
H2061 C2070 0.929 . S
C2062 H2056 0.930 . S
C2062 C2063 1.367 . S
C2062 C2070 1.378 . S
C2063 C2062 1.367 . S
C2063 C2071 1.433 . S
C2064 H2060 0.929 . S
C2064 C2066 1.378 . S
C2064 C2068 1.350 . S
C2065 C2068 1.463 . S
C2065 C2070 1.350 . S
C2065 N2073 1.427 . S
C2066 H2057 0.932 . S
C2066 C2064 1.378 . S
C2066 C2067 1.367 . S
C2067 C2066 1.367 . S
C2067 C2069 1.433 . S
C2068 C2064 1.350 . S
C2068 C2065 1.463 . S
C2068 N2072 1.427 . S
C2069 H2059 0.929 . S
C2069 C2067 1.433 . S
C2069 N2072 1.384 . S
C2070 H2061 0.929 . S
C2070 C2062 1.378 . S
C2070 C2065 1.350 . S
C2071 H2058 0.929 . S
C2071 C2063 1.433 . S
C2071 N2073 1.384 . S
N2072 C2068 1.427 . S
N2072 C2069 1.384 . S
N2073 C2065 1.427 . S
N2073 C2071 1.384 . S
H2074 C2080 0.930 . S
H2075 C2084 0.930 . S
H2076 C2089 0.929 . S
H2077 C2087 0.929 . S
H2078 C2082 0.929 . S
H2079 C2088 0.929 . S
C2080 H2074 0.930 . S
C2080 C2081 1.367 . S
C2080 C2088 1.378 . S
C2081 C2080 1.367 . S
C2081 C2089 1.433 . S
C2082 H2078 0.929 . S
C2082 C2084 1.378 . S
C2082 C2086 1.350 . S
C2083 C2086 1.463 . S
C2083 C2088 1.350 . S
C2083 N2091 1.427 . S
C2084 H2075 0.930 . S
C2084 C2082 1.378 . S
C2084 C2085 1.367 . S
C2085 C2084 1.367 . S
C2085 C2087 1.433 . S
C2086 C2082 1.350 . S
C2086 C2083 1.463 . S
C2086 N2090 1.427 . S
C2087 H2077 0.929 . S
C2087 C2085 1.433 . S
C2087 N2090 1.384 . S
C2088 H2079 0.929 . S
C2088 C2080 1.378 . S
C2088 C2083 1.350 . S
C2089 H2076 0.929 . S
C2089 C2081 1.433 . S
C2089 N2091 1.384 . S
N2090 C2086 1.427 . S
N2090 C2087 1.384 . S
N2091 C2083 1.427 . S
N2091 C2089 1.384 . S
H2092 C2098 0.930 . S
H2093 C2102 0.930 . S
H2094 C2107 0.929 . S
H2095 C2105 0.929 . S
H2096 C2100 0.929 . S
H2097 C2106 0.929 . S
C2098 H2092 0.930 . S
C2098 C2099 1.367 . S
C2098 C2106 1.378 . S
C2099 C2098 1.367 . S
C2099 C2107 1.433 . S
C2100 H2096 0.929 . S
C2100 C2102 1.378 . S
C2100 C2104 1.350 . S
C2101 C2104 1.463 . S
C2101 C2106 1.350 . S
C2101 N2109 1.427 . S
C2102 H2093 0.930 . S
C2102 C2100 1.378 . S
C2102 C2103 1.367 . S
C2103 C2102 1.367 . S
C2103 C2105 1.433 . S
C2104 C2100 1.350 . S
C2104 C2101 1.463 . S
C2104 N2108 1.427 . S
C2105 H2095 0.929 . S
C2105 C2103 1.433 . S
C2105 N2108 1.384 . S
C2106 H2097 0.929 . S
C2106 C2098 1.378 . S
C2106 C2101 1.350 . S
C2107 H2094 0.929 . S
C2107 C2099 1.433 . S
C2107 N2109 1.384 . S
N2108 C2104 1.427 . S
N2108 C2105 1.384 . S
N2109 C2101 1.427 . S
N2109 C2107 1.384 . S
H2110 C2116 0.930 . S
H2111 C2120 0.930 . S
H2112 C2125 0.929 . S
H2113 C2123 0.929 . S
H2114 C2118 0.929 . S
H2115 C2124 0.929 . S
C2116 H2110 0.930 . S
C2116 C2117 1.367 . S
C2116 C2124 1.378 . S
C2117 C2116 1.367 . S
C2117 C2125 1.433 . S
C2118 H2114 0.929 . S
C2118 C2120 1.378 . S
C2118 C2122 1.350 . S
C2119 C2122 1.463 . S
C2119 C2124 1.350 . S
C2119 N2127 1.427 . S
C2120 H2111 0.930 . S
C2120 C2118 1.378 . S
C2120 C2121 1.367 . S
C2121 C2120 1.367 . S
C2121 C2123 1.433 . S
C2122 C2118 1.350 . S
C2122 C2119 1.463 . S
C2122 N2126 1.427 . S
C2123 H2113 0.929 . S
C2123 C2121 1.433 . S
C2123 N2126 1.384 . S
C2124 H2115 0.929 . S
C2124 C2116 1.378 . S
C2124 C2119 1.350 . S
C2125 H2112 0.929 . S
C2125 C2117 1.433 . S
C2125 N2127 1.384 . S
N2126 C2122 1.427 . S
N2126 C2123 1.384 . S
N2127 C2119 1.427 . S
N2127 C2125 1.384 . S
H2128 C2134 0.930 . S
H2129 C2138 0.930 . S
H2130 C2143 0.929 . S
H2131 C2141 0.929 . S
H2132 C2136 0.929 . S
H2133 C2142 0.929 . S
C2134 H2128 0.930 . S
C2134 C2135 1.367 . S
C2134 C2142 1.378 . S
C2135 C2134 1.367 . S
C2135 C2143 1.433 . S
C2136 H2132 0.929 . S
C2136 C2138 1.378 . S
C2136 C2140 1.350 . S
C2137 C2140 1.463 . S
C2137 C2142 1.350 . S
C2137 N2145 1.427 . S
C2138 H2129 0.930 . S
C2138 C2136 1.378 . S
C2138 C2139 1.367 . S
C2139 C2138 1.367 . S
C2139 C2141 1.433 . S
C2140 C2136 1.350 . S
C2140 C2137 1.463 . S
C2140 N2144 1.427 . S
C2141 H2131 0.929 . S
C2141 C2139 1.433 . S
C2141 N2144 1.384 . S
C2142 H2133 0.929 . S
C2142 C2134 1.378 . S
C2142 C2137 1.350 . S
C2143 H2130 0.929 . S
C2143 C2135 1.433 . S
C2143 N2145 1.384 . S
N2144 C2140 1.427 . S
N2144 C2141 1.384 . S
N2145 C2137 1.427 . S
N2145 C2143 1.384 . S
H2146 C2152 0.930 . S
H2147 C2156 0.930 . S
H2148 C2161 0.929 . S
H2149 C2159 0.929 . S
H2150 C2154 0.929 . S
H2151 C2160 0.929 . S
C2152 H2146 0.930 . S
C2152 C2153 1.367 . S
C2152 C2160 1.378 . S
C2153 C2152 1.367 . S
C2153 C2161 1.433 . S
C2154 H2150 0.929 . S
C2154 C2156 1.378 . S
C2154 C2158 1.350 . S
C2155 C2158 1.463 . S
C2155 C2160 1.350 . S
C2155 N2163 1.427 . S
C2156 H2147 0.930 . S
C2156 C2154 1.378 . S
C2156 C2157 1.367 . S
C2157 C2156 1.367 . S
C2157 C2159 1.433 . S
C2158 C2154 1.350 . S
C2158 C2155 1.463 . S
C2158 N2162 1.427 . S
C2159 H2149 0.929 . S
C2159 C2157 1.433 . S
C2159 N2162 1.384 . S
C2160 H2151 0.929 . S
C2160 C2152 1.378 . S
C2160 C2155 1.350 . S
C2161 H2148 0.929 . S
C2161 C2153 1.433 . S
C2161 N2163 1.384 . S
N2162 C2158 1.427 . S
N2162 C2159 1.384 . S
N2163 C2155 1.427 . S
N2163 C2161 1.384 . S
H2164 C2170 0.930 . S
H2165 C2174 0.930 . S
H2166 C2179 0.929 . S
H2167 C2177 0.929 . S
H2168 C2172 0.929 . S
H2169 C2178 0.929 . S
C2170 H2164 0.930 . S
C2170 C2171 1.367 . S
C2170 C2178 1.378 . S
C2171 C2170 1.367 . S
C2171 C2179 1.433 . S
C2172 H2168 0.929 . S
C2172 C2174 1.378 . S
C2172 C2176 1.350 . S
C2173 C2176 1.463 . S
C2173 C2178 1.350 . S
C2173 N2181 1.427 . S
C2174 H2165 0.930 . S
C2174 C2172 1.378 . S
C2174 C2175 1.367 . S
C2175 C2174 1.367 . S
C2175 C2177 1.433 . S
C2176 C2172 1.350 . S
C2176 C2173 1.463 . S
C2176 N2180 1.427 . S
C2177 H2167 0.929 . S
C2177 C2175 1.433 . S
C2177 N2180 1.384 . S
C2178 H2169 0.929 . S
C2178 C2170 1.378 . S
C2178 C2173 1.350 . S
C2179 H2166 0.929 . S
C2179 C2171 1.433 . S
C2179 N2181 1.384 . S
N2180 C2176 1.427 . S
N2180 C2177 1.384 . S
N2181 C2173 1.427 . S
N2181 C2179 1.384 . S
H2182 C2188 0.930 . S
H2183 C2192 0.930 . S
H2184 C2197 0.929 . S
H2185 C2195 0.929 . S
H2186 C2190 0.929 . S
H2187 C2196 0.929 . S
C2188 H2182 0.930 . S
C2188 C2189 1.367 . S
C2188 C2196 1.378 . S
C2189 C2188 1.367 . S
C2189 C2197 1.433 . S
C2190 H2186 0.929 . S
C2190 C2192 1.378 . S
C2190 C2194 1.350 . S
C2191 C2194 1.463 . S
C2191 C2196 1.350 . S
C2191 N2199 1.427 . S
C2192 H2183 0.930 . S
C2192 C2190 1.378 . S
C2192 C2193 1.367 1_565 S
C2193 C2192 1.367 1_545 S
C2193 C2195 1.433 . S
C2194 C2190 1.350 . S
C2194 C2191 1.463 . S
C2194 N2198 1.408 1_565 S
C2195 H2185 0.929 . S
C2195 C2193 1.433 . S
C2195 N2198 1.402 . S
C2196 H2187 0.929 . S
C2196 C2188 1.378 . S
C2196 C2191 1.350 . S
C2197 H2184 0.929 . S
C2197 C2189 1.433 . S
C2197 N2199 1.384 . S
N2198 C2194 1.408 1_545 S
N2198 C2195 1.402 . S
N2199 C2191 1.427 . S
N2199 C2197 1.384 . S
H2200 C2206 0.930 . S
H2201 C2210 0.930 . S
H2202 C2215 0.929 . S
H2203 C2213 0.929 . S
H2204 C2208 0.929 . S
H2205 C2214 0.929 . S
C2206 H2200 0.930 . S
C2206 C2207 1.367 . S
C2206 C2214 1.378 . S
C2207 C2206 1.367 . S
C2207 C2215 1.433 . S
C2208 H2204 0.929 . S
C2208 C2210 1.378 . S
C2208 C2212 1.350 . S
C2209 C2212 1.463 . S
C2209 C2214 1.350 . S
C2209 N2217 1.427 . S
C2210 H2201 0.930 . S
C2210 C2208 1.378 . S
C2210 C2211 1.367 . S
C2211 C2210 1.367 . S
C2211 C2213 1.433 . S
C2212 C2208 1.350 . S
C2212 C2209 1.463 . S
C2212 N2216 1.427 . S
C2213 H2203 0.929 . S
C2213 C2211 1.433 . S
C2213 N2216 1.384 . S
C2214 H2205 0.929 . S
C2214 C2206 1.378 . S
C2214 C2209 1.350 . S
C2215 H2202 0.929 . S
C2215 C2207 1.433 . S
C2215 N2217 1.384 . S
N2216 C2212 1.427 . S
N2216 C2213 1.384 . S
N2217 C2209 1.427 . S
N2217 C2215 1.384 . S
H2218 C2224 0.930 1_556 S
H2219 C2228 0.930 . S
H2220 C2233 0.929 . S
H2221 C2231 0.929 . S
H2222 C2226 0.929 . S
H2223 C2232 0.929 . S
C2224 H2218 0.930 1_554 S
C2224 C2225 1.367 . S
C2224 C2232 1.378 . S
C2225 C2224 1.367 . S
C2225 C2233 1.433 . S
C2226 H2222 0.929 . S
C2226 C2228 1.378 . S
C2226 C2230 1.350 . S
C2227 C2230 1.463 . S
C2227 C2232 1.350 . S
C2227 N2235 1.427 . S
C2228 H2219 0.930 . S
C2228 C2226 1.378 . S
C2228 C2229 1.367 . S
C2229 C2228 1.367 . S
C2229 C2231 1.433 . S
C2230 C2226 1.350 . S
C2230 C2227 1.463 . S
C2230 N2234 1.427 . S
C2231 H2221 0.929 . S
C2231 C2229 1.433 . S
C2231 N2234 1.384 . S
C2232 H2223 0.929 . S
C2232 C2224 1.378 . S
C2232 C2227 1.350 . S
C2233 H2220 0.929 . S
C2233 C2225 1.433 . S
C2233 N2235 1.384 . S
N2234 C2230 1.427 . S
N2234 C2231 1.384 . S
N2235 C2227 1.427 . S
N2235 C2233 1.384 . S
H2236 C2242 0.930 . S
H2237 C2246 0.930 . S
H2238 C2251 0.929 . S
H2239 C2249 0.929 . S
H2240 C2244 0.929 . S
H2241 C2250 0.929 . S
C2242 H2236 0.930 . S
C2242 C2243 1.367 . S
C2242 C2250 1.378 . S
C2243 C2242 1.367 . S
C2243 C2251 1.433 . S
C2244 H2240 0.929 . S
C2244 C2246 1.378 . S
C2244 C2248 1.350 . S
C2245 C2248 1.463 . S
C2245 C2250 1.350 . S
C2245 N2253 1.427 . S
C2246 H2237 0.930 . S
C2246 C2244 1.378 . S
C2246 C2247 1.367 . S
C2247 C2246 1.367 . S
C2247 C2249 1.433 . S
C2248 C2244 1.350 . S
C2248 C2245 1.463 . S
C2248 N2252 1.427 . S
C2249 H2239 0.929 . S
C2249 C2247 1.433 . S
C2249 N2252 1.384 . S
C2250 H2241 0.929 . S
C2250 C2242 1.378 . S
C2250 C2245 1.350 . S
C2251 H2238 0.929 . S
C2251 C2243 1.433 . S
C2251 N2253 1.384 . S
N2252 C2248 1.427 . S
N2252 C2249 1.384 . S
N2253 C2245 1.427 . S
N2253 C2251 1.384 . S
H2254 C2260 0.930 . S
H2255 C2264 0.930 . S
H2256 C2269 0.929 . S
H2257 C2267 0.929 . S
H2258 C2262 0.929 . S
H2259 C2268 0.929 . S
C2260 H2254 0.930 . S
C2260 C2261 1.367 . S
C2260 C2268 1.378 . S
C2261 C2260 1.367 . S
C2261 C2269 1.433 . S
C2262 H2258 0.929 . S
C2262 C2264 1.378 1_545 S
C2262 C2266 1.350 . S
C2263 C2266 1.463 . S
C2263 C2268 1.350 . S
C2263 N2271 1.427 . S
C2264 H2255 0.930 . S
C2264 C2262 1.378 1_565 S
C2264 C2265 1.367 . S
C2265 C2264 1.367 . S
C2265 C2267 1.433 . S
C2266 C2262 1.350 . S
C2266 C2263 1.463 . S
C2266 N2270 1.427 1_545 S
C2267 H2257 0.929 . S
C2267 C2265 1.433 . S
C2267 N2270 1.384 . S
C2268 H2259 0.929 . S
C2268 C2260 1.378 . S
C2268 C2263 1.350 . S
C2269 H2256 0.929 . S
C2269 C2261 1.433 . S
C2269 N2271 1.384 . S
N2270 C2266 1.427 1_565 S
N2270 C2267 1.384 . S
N2271 C2263 1.427 . S
N2271 C2269 1.384 . S
H2272 C2278 0.930 . S
H2273 C2282 0.930 . S
H2274 C2287 0.929 . S
H2275 C2285 0.929 . S
H2276 C2280 0.929 . S
H2277 C2286 0.929 . S
C2278 H2272 0.930 . S
C2278 C2279 1.367 . S
C2278 C2286 1.378 . S
C2279 C2278 1.367 . S
C2279 C2287 1.433 . S
C2280 H2276 0.929 . S
C2280 C2282 1.378 . S
C2280 C2284 1.350 . S
C2281 C2284 1.463 . S
C2281 C2286 1.350 . S
C2281 N2289 1.427 . S
C2282 H2273 0.930 . S
C2282 C2280 1.378 . S
C2282 C2283 1.367 . S
C2283 C2282 1.367 . S
C2283 C2285 1.433 . S
C2284 C2280 1.350 . S
C2284 C2281 1.463 . S
C2284 N2288 1.427 . S
C2285 H2275 0.929 . S
C2285 C2283 1.433 . S
C2285 N2288 1.384 . S
C2286 H2277 0.929 . S
C2286 C2278 1.378 . S
C2286 C2281 1.350 . S
C2287 H2274 0.929 . S
C2287 C2279 1.433 . S
C2287 N2289 1.384 . S
N2288 C2284 1.427 . S
N2288 C2285 1.384 . S
N2289 C2281 1.427 . S
N2289 C2287 1.384 . S
H2290 C2296 0.930 . S
H2291 C2300 0.930 . S
H2292 C2305 0.929 . S
H2293 C2303 0.929 . S
H2294 C2298 0.929 . S
H2295 C2304 0.929 . S
C2296 H2290 0.930 . S
C2296 C2297 1.367 . S
C2296 C2304 1.378 . S
C2297 C2296 1.367 . S
C2297 C2305 1.433 . S
C2298 H2294 0.929 . S
C2298 C2300 1.378 . S
C2298 C2302 1.350 . S
C2299 C2302 1.463 . S
C2299 C2304 1.350 . S
C2299 N2307 1.427 . S
C2300 H2291 0.930 . S
C2300 C2298 1.378 . S
C2300 C2301 1.367 . S
C2301 C2300 1.367 . S
C2301 C2303 1.433 . S
C2302 C2298 1.350 . S
C2302 C2299 1.463 . S
C2302 N2306 1.427 . S
C2303 H2293 0.929 . S
C2303 C2301 1.433 . S
C2303 N2306 1.384 . S
C2304 H2295 0.929 . S
C2304 C2296 1.378 . S
C2304 C2299 1.350 . S
C2305 H2292 0.929 . S
C2305 C2297 1.433 . S
C2305 N2307 1.384 . S
N2306 C2302 1.427 . S
N2306 C2303 1.384 . S
N2307 C2299 1.427 . S
N2307 C2305 1.384 . S
H2308 C2314 0.930 . S
H2309 C2318 0.930 1_655 S
H2310 C2323 0.929 1_655 S
H2311 C2321 0.929 . S
H2312 C2316 0.929 1_655 S
H2313 C2322 0.929 . S
C2314 H2308 0.930 . S
C2314 C2315 1.367 . S
C2314 C2322 1.378 . S
C2315 C2314 1.367 . S
C2315 C2323 1.433 . S
C2316 H2312 0.929 1_455 S
C2316 C2318 1.378 . S
C2316 C2320 1.350 . S
C2317 C2320 1.463 . S
C2317 C2322 1.350 . S
C2317 N2325 1.427 . S
C2318 H2309 0.930 1_455 S
C2318 C2316 1.378 . S
C2318 C2319 1.367 . S
C2319 C2318 1.367 . S
C2319 C2321 1.433 . S
C2320 C2316 1.350 . S
C2320 C2317 1.463 . S
C2320 N2324 1.427 . S
C2321 H2311 0.929 . S
C2321 C2319 1.433 . S
C2321 N2324 1.384 . S
C2322 H2313 0.929 . S
C2322 C2314 1.378 . S
C2322 C2317 1.350 . S
C2323 H2310 0.929 1_455 S
C2323 C2315 1.433 . S
C2323 N2325 1.384 . S
N2324 C2320 1.427 . S
N2324 C2321 1.384 . S
N2325 C2317 1.427 . S
N2325 C2323 1.384 . S
H2326 C2332 0.930 . S
H2327 C2336 0.930 . S
H2328 C2341 0.929 . S
H2329 C2339 0.929 . S
H2330 C2334 0.929 . S
H2331 C2340 0.929 . S
C2332 H2326 0.930 . S
C2332 C2333 1.367 . S
C2332 C2340 1.378 . S
C2333 C2332 1.367 . S
C2333 C2341 1.433 . S
C2334 H2330 0.929 . S
C2334 C2336 1.378 . S
C2334 C2338 1.350 . S
C2335 C2338 1.463 . S
C2335 C2340 1.350 . S
C2335 N2343 1.427 . S
C2336 H2327 0.930 . S
C2336 C2334 1.378 . S
C2336 C2337 1.367 . S
C2337 C2336 1.367 . S
C2337 C2339 1.433 . S
C2338 C2334 1.350 . S
C2338 C2335 1.463 . S
C2338 N2342 1.427 . S
C2339 H2329 0.929 . S
C2339 C2337 1.433 . S
C2339 N2342 1.384 . S
C2340 H2331 0.929 . S
C2340 C2332 1.378 . S
C2340 C2335 1.350 . S
C2341 H2328 0.929 . S
C2341 C2333 1.433 . S
C2341 N2343 1.384 . S
N2342 C2338 1.427 . S
N2342 C2339 1.384 . S
N2343 C2335 1.427 . S
N2343 C2341 1.384 . S
H2344 C2350 0.930 . S
H2345 C2354 0.930 1_556 S
H2346 C2359 0.929 1_556 S
H2347 C2357 0.929 . S
H2348 C2352 0.929 1_556 S
H2349 C2358 0.929 . S
C2350 H2344 0.930 . S
C2350 C2351 1.367 . S
C2350 C2358 1.378 . S
C2351 C2350 1.367 . S
C2351 C2359 1.433 . S
C2352 H2348 0.929 1_554 S
C2352 C2354 1.378 . S
C2352 C2356 1.350 . S
C2353 C2356 1.463 . S
C2353 C2358 1.350 . S
C2353 N2361 1.427 . S
C2354 H2345 0.930 1_554 S
C2354 C2352 1.378 . S
C2354 C2355 1.367 . S
C2355 C2354 1.367 . S
C2355 C2357 1.433 . S
C2356 C2352 1.350 . S
C2356 C2353 1.463 . S
C2356 N2360 1.427 . S
C2357 H2347 0.929 . S
C2357 C2355 1.433 . S
C2357 N2360 1.384 . S
C2358 H2349 0.929 . S
C2358 C2350 1.378 . S
C2358 C2353 1.350 . S
C2359 H2346 0.929 1_554 S
C2359 C2351 1.433 . S
C2359 N2361 1.384 . S
N2360 C2356 1.427 . S
N2360 C2357 1.384 . S
N2361 C2353 1.427 . S
N2361 C2359 1.384 . S
H2362 C2368 0.930 . S
H2363 C2372 0.930 . S
H2364 C2377 0.929 . S
H2365 C2375 0.929 . S
H2366 C2370 0.929 . S
H2367 C2376 0.929 . S
C2368 H2362 0.930 . S
C2368 C2369 1.367 . S
C2368 C2376 1.378 . S
C2369 C2368 1.367 . S
C2369 C2377 1.433 . S
C2370 H2366 0.929 . S
C2370 C2372 1.378 . S
C2370 C2374 1.350 . S
C2371 C2374 1.463 . S
C2371 C2376 1.350 . S
C2371 N2379 1.427 . S
C2372 H2363 0.930 . S
C2372 C2370 1.378 . S
C2372 C2373 1.367 . S
C2373 C2372 1.367 . S
C2373 C2375 1.433 . S
C2374 C2370 1.350 . S
C2374 C2371 1.463 . S
C2374 N2378 1.427 . S
C2375 H2365 0.929 . S
C2375 C2373 1.433 . S
C2375 N2378 1.384 . S
C2376 H2367 0.929 . S
C2376 C2368 1.378 . S
C2376 C2371 1.350 . S
C2377 H2364 0.929 . S
C2377 C2369 1.433 . S
C2377 N2379 1.384 . S
N2378 C2374 1.427 . S
N2378 C2375 1.384 . S
N2379 C2371 1.427 . S
N2379 C2377 1.384 . S
H2380 C2386 0.930 . S
H2381 C2390 0.930 . S
H2382 C2395 0.929 . S
H2383 C2393 0.929 . S
H2384 C2388 0.929 . S
H2385 C2394 0.929 . S
C2386 H2380 0.930 . S
C2386 C2387 1.367 . S
C2386 C2394 1.378 . S
C2387 C2386 1.367 . S
C2387 C2395 1.433 . S
C2388 H2384 0.929 . S
C2388 C2390 1.378 . S
C2388 C2392 1.350 . S
C2389 C2392 1.463 . S
C2389 C2394 1.350 . S
C2389 N2397 1.427 . S
C2390 H2381 0.930 . S
C2390 C2388 1.378 . S
C2390 C2391 1.367 . S
C2391 C2390 1.367 . S
C2391 C2393 1.433 . S
C2392 C2388 1.350 . S
C2392 C2389 1.463 . S
C2392 N2396 1.427 . S
C2393 H2383 0.929 . S
C2393 C2391 1.433 . S
C2393 N2396 1.384 . S
C2394 H2385 0.929 . S
C2394 C2386 1.378 . S
C2394 C2389 1.350 . S
C2395 H2382 0.929 . S
C2395 C2387 1.433 . S
C2395 N2397 1.384 . S
N2396 C2392 1.427 . S
N2396 C2393 1.384 . S
N2397 C2389 1.427 . S
N2397 C2395 1.384 . S
H2398 C2404 0.930 . S
H2399 C2408 0.930 . S
H2400 C2413 0.929 . S
H2401 C2411 0.929 . S
H2402 C2406 0.929 . S
H2403 C2412 0.929 . S
C2404 H2398 0.930 . S
C2404 C2405 1.367 . S
C2404 C2412 1.378 . S
C2405 C2404 1.367 . S
C2405 C2413 1.433 . S
C2406 H2402 0.929 . S
C2406 C2408 1.378 . S
C2406 C2410 1.350 . S
C2407 C2410 1.463 . S
C2407 C2412 1.350 . S
C2407 N2415 1.427 . S
C2408 H2399 0.930 . S
C2408 C2406 1.378 . S
C2408 C2409 1.367 . S
C2409 C2408 1.367 . S
C2409 C2411 1.433 . S
C2410 C2406 1.350 . S
C2410 C2407 1.463 . S
C2410 N2414 1.427 . S
C2411 H2401 0.929 . S
C2411 C2409 1.433 . S
C2411 N2414 1.384 . S
C2412 H2403 0.929 . S
C2412 C2404 1.378 . S
C2412 C2407 1.350 . S
C2413 H2400 0.929 . S
C2413 C2405 1.433 . S
C2413 N2415 1.384 . S
N2414 C2410 1.427 . S
N2414 C2411 1.384 . S
N2415 C2407 1.427 . S
N2415 C2413 1.384 . S
H2416 C2422 0.930 . S
H2417 C2426 0.930 . S
H2418 C2431 0.929 . S
H2419 C2429 0.929 . S
H2420 C2424 0.929 . S
H2421 C2430 0.929 . S
C2422 H2416 0.930 . S
C2422 C2423 1.367 . S
C2422 C2430 1.378 . S
C2423 C2422 1.367 . S
C2423 C2431 1.433 . S
C2424 H2420 0.929 . S
C2424 C2426 1.378 . S
C2424 C2428 1.350 . S
C2425 C2428 1.463 . S
C2425 C2430 1.350 . S
C2425 N2433 1.427 . S
C2426 H2417 0.930 . S
C2426 C2424 1.378 . S
C2426 C2427 1.367 . S
C2427 C2426 1.367 . S
C2427 C2429 1.433 . S
C2428 C2424 1.350 . S
C2428 C2425 1.463 . S
C2428 N2432 1.427 . S
C2429 H2419 0.929 . S
C2429 C2427 1.433 . S
C2429 N2432 1.384 . S
C2430 H2421 0.929 . S
C2430 C2422 1.378 . S
C2430 C2425 1.350 . S
C2431 H2418 0.929 . S
C2431 C2423 1.433 . S
C2431 N2433 1.384 . S
N2432 C2428 1.427 . S
N2432 C2429 1.384 . S
N2433 C2425 1.427 . S
N2433 C2431 1.384 . S
H2434 C2440 0.930 . S
H2435 C2444 0.930 . S
H2436 C2449 0.929 . S
H2437 C2447 0.929 . S
H2438 C2442 0.929 . S
H2439 C2448 0.929 . S
C2440 H2434 0.930 . S
C2440 C2441 1.367 . S
C2440 C2448 1.378 . S
C2441 C2440 1.367 . S
C2441 C2449 1.433 . S
C2442 H2438 0.929 . S
C2442 C2444 1.378 . S
C2442 C2446 1.350 . S
C2443 C2446 1.463 . S
C2443 C2448 1.350 . S
C2443 N2451 1.427 . S
C2444 H2435 0.930 . S
C2444 C2442 1.378 . S
C2444 C2445 1.367 . S
C2445 C2444 1.367 . S
C2445 C2447 1.433 . S
C2446 C2442 1.350 . S
C2446 C2443 1.463 . S
C2446 N2450 1.427 . S
C2447 H2437 0.929 . S
C2447 C2445 1.433 . S
C2447 N2450 1.384 . S
C2448 H2439 0.929 . S
C2448 C2440 1.378 . S
C2448 C2443 1.350 . S
C2449 H2436 0.929 . S
C2449 C2441 1.433 . S
C2449 N2451 1.384 . S
N2450 C2446 1.427 . S
N2450 C2447 1.384 . S
N2451 C2443 1.427 . S
N2451 C2449 1.384 . S
H2452 C2458 0.930 . S
H2453 C2462 0.930 1_654 S
H2454 C2467 0.929 . S
H2455 C2465 0.929 . S
H2456 C2460 0.929 . S
H2457 C2466 0.913 1_455 S
C2458 H2452 0.930 . S
C2458 C2459 1.367 . S
C2458 C2466 1.385 . S
C2459 C2458 1.367 . S
C2459 C2467 1.433 . S
C2460 H2456 0.929 . S
C2460 C2462 1.378 1_655 S
C2460 C2464 1.334 1_655 S
C2461 C2464 1.453 1_655 S
C2461 C2466 1.360 . S
C2461 N2469 1.427 . S
C2462 H2453 0.930 1_456 S
C2462 C2460 1.378 1_455 S
C2462 C2463 1.367 . S
C2463 C2462 1.367 . S
C2463 C2465 1.433 . S
C2464 C2460 1.334 1_455 S
C2464 C2461 1.453 1_455 S
C2464 N2468 1.454 . S
C2465 H2455 0.929 . S
C2465 C2463 1.433 . S
C2465 N2468 1.384 . S
C2466 H2457 0.913 1_655 S
C2466 C2458 1.385 . S
C2466 C2461 1.360 . S
C2467 H2454 0.929 . S
C2467 C2459 1.433 . S
C2467 N2469 1.384 . S
N2468 C2464 1.454 . S
N2468 C2465 1.384 . S
N2469 C2461 1.427 . S
N2469 C2467 1.384 . S
H2470 C2476 0.930 . S
H2471 C2480 0.930 . S
H2472 C2485 0.929 . S
H2473 C2483 0.929 . S
H2474 C2478 0.929 . S
H2475 C2484 0.929 . S
C2476 H2470 0.930 . S
C2476 C2477 1.367 . S
C2476 C2484 1.378 . S
C2477 C2476 1.367 . S
C2477 C2485 1.433 . S
C2478 H2474 0.929 . S
C2478 C2480 1.378 . S
C2478 C2482 1.350 . S
C2479 C2482 1.463 . S
C2479 C2484 1.350 . S
C2479 N2487 1.427 . S
C2480 H2471 0.930 . S
C2480 C2478 1.378 . S
C2480 C2481 1.367 . S
C2481 C2480 1.367 . S
C2481 C2483 1.433 . S
C2482 C2478 1.350 . S
C2482 C2479 1.463 . S
C2482 N2486 1.427 . S
C2483 H2473 0.929 . S
C2483 C2481 1.433 . S
C2483 N2486 1.384 . S
C2484 H2475 0.929 . S
C2484 C2476 1.378 . S
C2484 C2479 1.350 . S
C2485 H2472 0.929 . S
C2485 C2477 1.433 . S
C2485 N2487 1.384 . S
N2486 C2482 1.427 . S
N2486 C2483 1.384 . S
N2487 C2479 1.427 . S
N2487 C2485 1.384 . S
H2488 C2494 0.930 . S
H2489 C2498 0.930 . S
H2490 C2503 0.929 . S
H2491 C2501 0.929 . S
H2492 C2496 0.929 . S
H2493 C2502 0.929 . S
C2494 H2488 0.930 . S
C2494 C2495 1.367 . S
C2494 C2502 1.378 . S
C2495 C2494 1.367 . S
C2495 C2503 1.433 . S
C2496 H2492 0.929 . S
C2496 C2498 1.378 . S
C2496 C2500 1.350 . S
C2497 C2500 1.463 . S
C2497 C2502 1.350 . S
C2497 N2505 1.427 . S
C2498 H2489 0.930 . S
C2498 C2496 1.378 . S
C2498 C2499 1.367 . S
C2499 C2498 1.367 . S
C2499 C2501 1.433 . S
C2500 C2496 1.350 . S
C2500 C2497 1.463 . S
C2500 N2504 1.427 . S
C2501 H2491 0.929 . S
C2501 C2499 1.433 . S
C2501 N2504 1.384 . S
C2502 H2493 0.929 . S
C2502 C2494 1.378 . S
C2502 C2497 1.350 . S
C2503 H2490 0.929 . S
C2503 C2495 1.433 . S
C2503 N2505 1.384 . S
N2504 C2500 1.427 . S
N2504 C2501 1.384 . S
N2505 C2497 1.427 . S
N2505 C2503 1.384 . S
H2506 C2512 0.930 . S
H2507 C2516 0.930 . S
H2508 C2521 0.929 1_554 S
H2509 C2519 0.929 . S
H2510 C2514 0.929 . S
H2511 C2520 0.929 . S
C2512 H2506 0.930 . S
C2512 C2513 1.367 1_556 S
C2512 C2520 1.378 . S
C2513 C2512 1.367 1_554 S
C2513 C2521 1.433 1_554 S
C2514 H2510 0.929 . S
C2514 C2516 1.378 . S
C2514 C2518 1.350 . S
C2515 C2518 1.463 . S
C2515 C2520 1.350 . S
C2515 N2523 1.427 . S
C2516 H2507 0.930 . S
C2516 C2514 1.378 . S
C2516 C2517 1.367 . S
C2517 C2516 1.367 . S
C2517 C2519 1.433 . S
C2518 C2514 1.350 . S
C2518 C2515 1.463 . S
C2518 N2522 1.427 . S
C2519 H2509 0.929 . S
C2519 C2517 1.433 . S
C2519 N2522 1.384 . S
C2520 H2511 0.929 . S
C2520 C2512 1.378 . S
C2520 C2515 1.350 . S
C2521 H2508 0.929 1_556 S
C2521 C2513 1.433 1_556 S
C2521 N2523 1.384 . S
N2522 C2518 1.427 . S
N2522 C2519 1.384 . S
N2523 C2515 1.427 . S
N2523 C2521 1.384 . S
H2524 C2530 0.930 . S
H2525 C2534 0.930 . S
H2526 C2539 0.929 . S
H2527 C2537 0.929 . S
H2528 C2532 0.929 . S
H2529 C2538 0.929 . S
C2530 H2524 0.930 . S
C2530 C2531 1.367 . S
C2530 C2538 1.378 . S
C2531 C2530 1.367 . S
C2531 C2539 1.433 . S
C2532 H2528 0.929 . S
C2532 C2534 1.378 . S
C2532 C2536 1.350 . S
C2533 C2536 1.463 . S
C2533 C2538 1.350 . S
C2533 N2541 1.427 . S
C2534 H2525 0.930 . S
C2534 C2532 1.378 . S
C2534 C2535 1.367 1_655 S
C2535 C2534 1.367 1_455 S
C2535 C2537 1.433 . S
C2536 C2532 1.350 . S
C2536 C2533 1.463 . S
C2536 N2540 1.408 1_655 S
C2537 H2527 0.929 . S
C2537 C2535 1.433 . S
C2537 N2540 1.400 . S
C2538 H2529 0.929 . S
C2538 C2530 1.378 . S
C2538 C2533 1.350 . S
C2539 H2526 0.929 . S
C2539 C2531 1.433 . S
C2539 N2541 1.384 . S
N2540 C2536 1.408 1_455 S
N2540 C2537 1.400 . S
N2541 C2533 1.427 . S
N2541 C2539 1.384 . S
H2542 C2548 0.930 . S
H2543 C2552 0.930 . S
H2544 C2557 0.929 . S
H2545 C2555 0.929 . S
H2546 C2550 0.929 . S
H2547 C2556 0.929 . S
C2548 H2542 0.930 . S
C2548 C2549 1.367 . S
C2548 C2556 1.378 . S
C2549 C2548 1.367 . S
C2549 C2557 1.433 . S
C2550 H2546 0.929 . S
C2550 C2552 1.378 . S
C2550 C2554 1.350 . S
C2551 C2554 1.463 . S
C2551 C2556 1.350 . S
C2551 N2559 1.427 . S
C2552 H2543 0.930 . S
C2552 C2550 1.378 . S
C2552 C2553 1.367 . S
C2553 C2552 1.367 . S
C2553 C2555 1.433 . S
C2554 C2550 1.350 . S
C2554 C2551 1.463 . S
C2554 N2558 1.427 . S
C2555 H2545 0.929 . S
C2555 C2553 1.433 . S
C2555 N2558 1.384 . S
C2556 H2547 0.929 . S
C2556 C2548 1.378 . S
C2556 C2551 1.350 . S
C2557 H2544 0.929 . S
C2557 C2549 1.433 . S
C2557 N2559 1.384 . S
N2558 C2554 1.427 . S
N2558 C2555 1.384 . S
N2559 C2551 1.427 . S
N2559 C2557 1.384 . S
H2560 C2566 0.930 . S
H2561 C2570 0.930 . S
H2562 C2575 0.929 . S
H2563 C2573 0.929 . S
H2564 C2568 0.929 . S
H2565 C2574 0.929 . S
C2566 H2560 0.930 . S
C2566 C2567 1.367 . S
C2566 C2574 1.378 . S
C2567 C2566 1.367 . S
C2567 C2575 1.433 . S
C2568 H2564 0.929 . S
C2568 C2570 1.378 . S
C2568 C2572 1.350 . S
C2569 C2572 1.463 . S
C2569 C2574 1.350 . S
C2569 N2577 1.427 . S
C2570 H2561 0.930 . S
C2570 C2568 1.378 . S
C2570 C2571 1.367 . S
C2571 C2570 1.367 . S
C2571 C2573 1.433 . S
C2572 C2568 1.350 . S
C2572 C2569 1.463 . S
C2572 N2576 1.427 . S
C2573 H2563 0.929 . S
C2573 C2571 1.433 . S
C2573 N2576 1.384 . S
C2574 H2565 0.929 . S
C2574 C2566 1.378 . S
C2574 C2569 1.350 . S
C2575 H2562 0.929 . S
C2575 C2567 1.433 . S
C2575 N2577 1.384 . S
N2576 C2572 1.427 . S
N2576 C2573 1.384 . S
N2577 C2569 1.427 . S
N2577 C2575 1.384 . S
H2578 C2584 0.926 1_565 S
H2579 C2588 0.930 . S
H2580 C2593 0.929 . S
H2581 C2591 0.929 . S
H2582 C2586 0.929 . S
H2583 C2592 0.929 1_565 S
C2584 H2578 0.926 1_545 S
C2584 C2585 1.370 . S
C2584 C2592 1.379 . S
C2585 C2584 1.370 . S
C2585 C2593 1.433 . S
C2586 H2582 0.929 . S
C2586 C2588 1.378 . S
C2586 C2590 1.350 . S
C2587 C2590 1.463 . S
C2587 C2592 1.350 . S
C2587 N2595 1.427 . S
C2588 H2579 0.930 . S
C2588 C2586 1.378 . S
C2588 C2589 1.367 . S
C2589 C2588 1.367 . S
C2589 C2591 1.433 . S
C2590 C2586 1.350 . S
C2590 C2587 1.463 . S
C2590 N2594 1.427 . S
C2591 H2581 0.929 . S
C2591 C2589 1.433 . S
C2591 N2594 1.384 . S
C2592 H2583 0.929 1_545 S
C2592 C2584 1.379 . S
C2592 C2587 1.350 . S
C2593 H2580 0.929 . S
C2593 C2585 1.433 . S
C2593 N2595 1.384 . S
N2594 C2590 1.427 . S
N2594 C2591 1.384 . S
N2595 C2587 1.427 . S
N2595 C2593 1.384 . S
H2596 C2602 0.930 . S
H2597 C2606 0.930 . S
H2598 C2611 0.929 . S
H2599 C2609 0.929 . S
H2600 C2604 0.929 . S
H2601 C2610 0.929 . S
C2602 H2596 0.930 . S
C2602 C2603 1.367 . S
C2602 C2610 1.378 . S
C2603 C2602 1.367 . S
C2603 C2611 1.433 . S
C2604 H2600 0.929 . S
C2604 C2606 1.378 . S
C2604 C2608 1.350 . S
C2605 C2608 1.463 . S
C2605 C2610 1.350 . S
C2605 N2613 1.427 . S
C2606 H2597 0.930 . S
C2606 C2604 1.378 . S
C2606 C2607 1.367 . S
C2607 C2606 1.367 . S
C2607 C2609 1.433 . S
C2608 C2604 1.350 . S
C2608 C2605 1.463 . S
C2608 N2612 1.427 . S
C2609 H2599 0.929 . S
C2609 C2607 1.433 . S
C2609 N2612 1.384 . S
C2610 H2601 0.929 . S
C2610 C2602 1.378 . S
C2610 C2605 1.350 . S
C2611 H2598 0.929 . S
C2611 C2603 1.433 . S
C2611 N2613 1.384 . S
N2612 C2608 1.427 . S
N2612 C2609 1.384 . S
N2613 C2605 1.427 . S
N2613 C2611 1.384 . S
H2614 C2620 0.930 . S
H2615 C2624 0.930 . S
H2616 C2629 0.929 . S
H2617 C2627 0.929 . S
H2618 C2622 0.929 . S
H2619 C2628 0.929 . S
C2620 H2614 0.930 . S
C2620 C2621 1.367 . S
C2620 C2628 1.378 . S
C2621 C2620 1.367 . S
C2621 C2629 1.433 . S
C2622 H2618 0.929 . S
C2622 C2624 1.378 . S
C2622 C2626 1.350 . S
C2623 C2626 1.463 . S
C2623 C2628 1.350 . S
C2623 N2631 1.427 . S
C2624 H2615 0.930 . S
C2624 C2622 1.378 . S
C2624 C2625 1.367 . S
C2625 C2624 1.367 . S
C2625 C2627 1.433 . S
C2626 C2622 1.350 . S
C2626 C2623 1.463 . S
C2626 N2630 1.427 . S
C2627 H2617 0.929 . S
C2627 C2625 1.433 . S
C2627 N2630 1.384 . S
C2628 H2619 0.929 . S
C2628 C2620 1.378 . S
C2628 C2623 1.350 . S
C2629 H2616 0.929 . S
C2629 C2621 1.433 . S
C2629 N2631 1.384 . S
N2630 C2626 1.427 . S
N2630 C2627 1.384 . S
N2631 C2623 1.427 . S
N2631 C2629 1.384 . S
H2632 C2638 0.930 . S
H2633 C2642 0.930 . S
H2634 C2647 0.929 . S
H2635 C2645 0.929 . S
H2636 C2640 0.929 . S
H2637 C2646 0.929 . S
C2638 H2632 0.930 . S
C2638 C2639 1.367 . S
C2638 C2646 1.378 . S
C2639 C2638 1.367 . S
C2639 C2647 1.433 . S
C2640 H2636 0.929 . S
C2640 C2642 1.378 . S
C2640 C2644 1.350 . S
C2641 C2644 1.463 . S
C2641 C2646 1.350 . S
C2641 N2649 1.427 . S
C2642 H2633 0.930 . S
C2642 C2640 1.378 . S
C2642 C2643 1.367 . S
C2643 C2642 1.367 . S
C2643 C2645 1.433 . S
C2644 C2640 1.350 . S
C2644 C2641 1.463 . S
C2644 N2648 1.427 . S
C2645 H2635 0.929 . S
C2645 C2643 1.433 . S
C2645 N2648 1.384 . S
C2646 H2637 0.929 . S
C2646 C2638 1.378 . S
C2646 C2641 1.350 . S
C2647 H2634 0.929 . S
C2647 C2639 1.433 . S
C2647 N2649 1.384 . S
N2648 C2644 1.427 . S
N2648 C2645 1.384 . S
N2649 C2641 1.427 . S
N2649 C2647 1.384 . S
H2650 C2656 0.930 . S
H2651 C2660 0.930 . S
H2652 C2665 0.929 . S
H2653 C2663 0.929 . S
H2654 C2658 0.929 . S
H2655 C2664 0.929 . S
C2656 H2650 0.930 . S
C2656 C2657 1.367 . S
C2656 C2664 1.378 . S
C2657 C2656 1.367 . S
C2657 C2665 1.433 . S
C2658 H2654 0.929 . S
C2658 C2660 1.378 . S
C2658 C2662 1.350 . S
C2659 C2662 1.463 . S
C2659 C2664 1.350 . S
C2659 N2667 1.427 . S
C2660 H2651 0.930 . S
C2660 C2658 1.378 . S
C2660 C2661 1.367 . S
C2661 C2660 1.367 . S
C2661 C2663 1.433 . S
C2662 C2658 1.350 . S
C2662 C2659 1.463 . S
C2662 N2666 1.427 . S
C2663 H2653 0.929 . S
C2663 C2661 1.433 . S
C2663 N2666 1.384 . S
C2664 H2655 0.929 . S
C2664 C2656 1.378 . S
C2664 C2659 1.350 . S
C2665 H2652 0.929 . S
C2665 C2657 1.433 . S
C2665 N2667 1.384 . S
N2666 C2662 1.427 . S
N2666 C2663 1.384 . S
N2667 C2659 1.427 . S
N2667 C2665 1.384 . S
H2668 C2674 0.930 . S
H2669 C2678 0.930 . S
H2670 C2683 0.929 1_545 S
H2671 C2681 0.929 . S
H2672 C2676 0.929 . S
H2673 C2682 0.929 . S
C2674 H2668 0.930 . S
C2674 C2675 1.367 . S
C2674 C2682 1.378 . S
C2675 C2674 1.367 . S
C2675 C2683 1.433 . S
C2676 H2672 0.929 . S
C2676 C2678 1.378 . S
C2676 C2680 1.350 . S
C2677 C2680 1.463 . S
C2677 C2682 1.350 . S
C2677 N2685 1.427 . S
C2678 H2669 0.930 . S
C2678 C2676 1.378 . S
C2678 C2679 1.367 . S
C2679 C2678 1.367 . S
C2679 C2681 1.433 . S
C2680 C2676 1.350 . S
C2680 C2677 1.463 . S
C2680 N2684 1.427 . S
C2681 H2671 0.929 . S
C2681 C2679 1.433 . S
C2681 N2684 1.384 . S
C2682 H2673 0.929 . S
C2682 C2674 1.378 . S
C2682 C2677 1.350 . S
C2683 H2670 0.929 1_565 S
C2683 C2675 1.433 . S
C2683 N2685 1.384 . S
N2684 C2680 1.427 . S
N2684 C2681 1.384 . S
N2685 C2677 1.427 . S
N2685 C2683 1.384 . S
H2686 C2692 0.930 . S
H2687 C2696 0.930 . S
H2688 C2701 0.929 . S
H2689 C2699 0.929 . S
H2690 C2694 0.929 . S
H2691 C2700 0.929 . S
C2692 H2686 0.930 . S
C2692 C2693 1.367 . S
C2692 C2700 1.378 . S
C2693 C2692 1.367 . S
C2693 C2701 1.433 . S
C2694 H2690 0.929 . S
C2694 C2696 1.378 . S
C2694 C2698 1.350 . S
C2695 C2698 1.463 . S
C2695 C2700 1.350 . S
C2695 N2703 1.427 . S
C2696 H2687 0.930 . S
C2696 C2694 1.378 . S
C2696 C2697 1.367 . S
C2697 C2696 1.367 . S
C2697 C2699 1.433 . S
C2698 C2694 1.350 . S
C2698 C2695 1.463 . S
C2698 N2702 1.427 . S
C2699 H2689 0.929 . S
C2699 C2697 1.433 . S
C2699 N2702 1.384 . S
C2700 H2691 0.929 . S
C2700 C2692 1.378 . S
C2700 C2695 1.350 . S
C2701 H2688 0.929 . S
C2701 C2693 1.433 . S
C2701 N2703 1.384 . S
N2702 C2698 1.427 . S
N2702 C2699 1.384 . S
N2703 C2695 1.427 . S
N2703 C2701 1.384 . S
C983 C105 1.320 . S
C987 C342 1.314 . S
C1001 C65 2.022 . S
C1005 C394 1.903 . S
C1019 C73 1.385 . S
C1023 C426 1.364 1_565 S
C1041 C475 2.532 . S
C1037 C92 2.533 . S
C1055 C17 1.064 . S
C1059 C511 1.046 . S
C1077 C542 0.491 . S
C1073 C37 0.377 . S
C1095 C594 0.411 . S
C1091 C49 0.501 . S
C1109 C8 1.684 . S
C1113 C622 1.601 . S
C1131 C354 1.957 . S
C1127 C231 2.044 . S
C1145 C241 1.675 . S
C1149 C395 1.687 . S
C1167 C425 1.819 . S
C1163 C273 1.842 1_545 S
C1185 C462 0.584 . S
C1181 C171 0.552 . S
C1199 C227 1.861 . S
C1203 C506 1.860 1_655 S
C1221 C554 1.938 . S
C1217 C245 1.867 . S
C1239 C595 1.664 1_556 S
C1235 C269 1.656 . S
C1257 C634 1.682 . S
C1253 C175 1.786 . S
C1275 C355 2.308 . S
C1271 C162 2.284 . S
C1289 C289 1.692 . S
C1293 C665 1.639 . S
C1311 C715 2.441 . S
C1307 C330 2.440 . S
C1329 C742 1.031 . S
C1325 C317 1.044 . S
C1343 C120 2.538 . S
C1347 C635 2.538 . S
C1361 C134 1.362 . S
C1365 C431 1.262 . S
C1379 C331 2.493 . S
C1383 C794 2.383 . S
C1401 C822 1.173 . S
C1397 C303 1.245 . S
C1419 C351 1.316 . S
C1415 C59 1.381 . S
C1437 C825 1.937 . S
C1433 C107 2.049 . S
C1451 C91 1.366 . S
C1455 C435 1.432 . S
C1469 C78 2.600 . S
C1473 C786 2.588 . S
C1491 C502 1.075 . S
C1487 C7 1.080 . S
C1505 C51 0.518 . S
C1509 C711 0.563 . S
C1527 C585 0.453 . S
C1523 C31 0.378 . S
C1545 C871 1.477 . S
C1541 C22 1.533 . S
C1563 C345 1.984 1_556 S
C1559 C143 2.141 . S
C1581 C826 1.754 . S
C1577 C315 1.649 . S
C1595 C115 2.015 . S
C1599 C434 1.876 . S
C1613 C287 0.608 . S
C1617 C791 0.601 . S
C1631 C147 1.833 . S
C1635 C515 1.908 . S
C1653 C705 1.965 . S
C1649 C311 1.989 . S
C1667 C119 1.636 . S
C1671 C586 1.734 . S
C1685 C283 1.846 . S
C1689 C865 1.696 . S
C1703 C190 2.294 . S
C1707 C346 2.339 . S
C1721 C177 1.758 . S
C1725 C674 1.747 . S
C1739 C260 2.473 . S
C1743 C546 2.485 . S
C1757 C247 1.076 . S
C1761 C751 1.069 . S
C1779 C866 2.509 . S
C1775 C274 2.491 . S
C1793 C218 1.350 1_545 S
C1797 C422 1.311 . S
C1815 C465 2.426 . S
C1811 C261 2.506 . S
C1833 C391 1.214 . S
C1829 C205 1.281 . S
C1847 C77 1.316 . S
C1851 C902 1.311 . S
C1869 C834 1.914 . S
C1865 C93 2.037 . S
C1883 C101 1.414 . S
C1887 C946 1.412 . S
C1901 C64 2.534 . S
C1905 C795 2.536 . S
C1919 C45 1.087 . S
C1923 C671 1.066 . S
C1941 C702 0.562 . S
C1937 C9 0.490 . S
C1959 C754 0.390 . S
C1955 C21 0.479 . S
C1977 C862 1.466 . S
C1973 C36 1.538 . S
C1995 C914 1.945 . S
C1991 C259 2.037 . S
C2009 C185 1.694 1_556 S
C2013 C835 1.705 . S
C2031 C945 1.820 . S
C2027 C203 1.859 . S
C2049 C782 0.570 . S
C2045 C213 0.534 . S
C2067 C666 1.885 1_556 S
C2063 C255 1.878 . S
C2081 C189 1.895 . S
C2085 C714 1.962 . S
C2103 C755 1.668 . S
C2099 C199 1.658 . S
C2117 C217 1.789 . S
C2121 C874 1.699 . S
C2139 C915 2.306 . S
C2135 C316 2.282 . S
C2153 C135 1.701 . S
C2157 C505 1.670 . S
C2175 C555 2.433 . S
C2171 C148 2.443 . S
C2193 C582 1.037 . S
C2189 C163 1.055 . S
C2211 C875 2.523 . S
C2207 C302 2.518 . S
C2225 C288 1.329 . S
C2229 C951 1.243 . S
C2247 C474 2.394 . S
C2243 C149 2.493 . S
C2265 C382 1.184 . S
C2261 C121 1.251 . S
C2279 C87 1.381 . S
C2283 C911 1.312 . S
C2301 C385 1.957 . S
C2297 C79 2.058 . S
C2315 C63 1.370 . S
C2319 C955 1.449 . S
C2333 C106 2.605 . S
C2337 C466 2.593 . S
C2351 C35 1.086 . S
C2355 C662 1.088 . S
C2373 C551 0.541 . S
C2369 C23 0.499 . S
C2387 C3 0.381 . S
C2391 C745 0.422 . S
C2405 C50 1.493 . S
C2409 C631 1.446 . S
C2427 C905 1.964 . S
C2423 C325 2.132 . S
C2441 C161 1.660 . S
C2445 C386 1.762 . S
C2463 C954 1.889 1_556 S
C2459 C297 2.030 . S
C2477 C133 0.638 . S
C2481 C471 0.655 . S
C2495 C329 1.846 . S
C2499 C675 1.928 . S
C2517 C545 1.979 . S
C2513 C157 2.026 . S
C2531 C301 1.622 . S
C2535 C746 1.728 . S
C2553 C625 1.641 . S
C2549 C129 1.806 . S
C2571 C906 2.324 . S
C2567 C246 2.302 . S
C2589 C514 1.746 . S
C2585 C219 1.759 . S
C2603 C232 2.468 . S
C2607 C706 2.481 . S
C2625 C591 1.075 . S
C2621 C191 1.089 . S
C2639 C204 2.490 . S
C2643 C626 2.503 . S
C2657 C176 1.360 . S
C2661 C942 1.300 . S
C2679 C785 2.425 . S
C2675 C233 2.503 1_565 S
C2697 C831 1.210 . S
C2693 C275 1.273 . S
