# Generated by pormake.
# Topology anh, (6,3)-cn, num edge types: 1
# Building blocks:
#     Node 0, Type 0, BuildingBlock: BETFAJ_clean_sbu_0, # of connection points: 6
#     Node 1, Type 0, BuildingBlock: BETFAJ_clean_sbu_0, # of connection points: 6
#     Node 2, Type 0, BuildingBlock: BETFAJ_clean_sbu_0, # of connection points: 6
#     Node 3, Type 1, BuildingBlock: WUSLED_clean_sbu_0, # of connection points: 3
#     Node 4, Type 1, BuildingBlock: WUSLED_clean_sbu_0, # of connection points: 3
#     Node 5, Type 1, BuildingBlock: WUSLED_clean_sbu_0, # of connection points: 3
#     Node 6, Type 1, BuildingBlock: WUSLED_clean_sbu_0, # of connection points: 3
#     Node 7, Type 1, BuildingBlock: WUSLED_clean_sbu_0, # of connection points: 3
#     Node 8, Type 1, BuildingBlock: WUSLED_clean_sbu_0, # of connection points: 3
#     Edge 9, Type (0, 1), BuildingBlock: EZIPEK_clean_linker_0, # of connection points: 2
#     Edge 10, Type (0, 1), BuildingBlock: EZIPEK_clean_linker_0, # of connection points: 2
#     Edge 11, Type (0, 1), BuildingBlock: EZIPEK_clean_linker_0, # of connection points: 2
#     Edge 12, Type (0, 1), BuildingBlock: EZIPEK_clean_linker_0, # of connection points: 2
#     Edge 13, Type (0, 1), BuildingBlock: EZIPEK_clean_linker_0, # of connection points: 2
#     Edge 14, Type (0, 1), BuildingBlock: EZIPEK_clean_linker_0, # of connection points: 2
#     Edge 15, Type (0, 1), BuildingBlock: EZIPEK_clean_linker_0, # of connection points: 2
#     Edge 16, Type (0, 1), BuildingBlock: EZIPEK_clean_linker_0, # of connection points: 2
#     Edge 17, Type (0, 1), BuildingBlock: EZIPEK_clean_linker_0, # of connection points: 2
#     Edge 18, Type (0, 1), BuildingBlock: EZIPEK_clean_linker_0, # of connection points: 2
#     Edge 19, Type (0, 1), BuildingBlock: EZIPEK_clean_linker_0, # of connection points: 2
#     Edge 20, Type (0, 1), BuildingBlock: EZIPEK_clean_linker_0, # of connection points: 2
#     Edge 21, Type (0, 1), BuildingBlock: EZIPEK_clean_linker_0, # of connection points: 2
#     Edge 22, Type (0, 1), BuildingBlock: EZIPEK_clean_linker_0, # of connection points: 2
#     Edge 23, Type (0, 1), BuildingBlock: EZIPEK_clean_linker_0, # of connection points: 2
#     Edge 24, Type (0, 1), BuildingBlock: EZIPEK_clean_linker_0, # of connection points: 2
#     Edge 25, Type (0, 1), BuildingBlock: EZIPEK_clean_linker_0, # of connection points: 2
#     Edge 26, Type (0, 1), BuildingBlock: EZIPEK_clean_linker_0, # of connection points: 2
# Relax obj value: 0.194
# Max RMSD: 0.215
# Mean RMSD: 0.156
data_MOF--net-anh--node1-BETFAJ_clean_sbu_0--node2-WUSLED_clean_sbu_0--edge1-EZIPEK_clean_linker_0
_symmetry_space_group_name_H-M    P1
_symmetry_Int_Tables_number       1
_symmetry_cell_setting            triclinic
loop_
_symmetry_equiv_pos_as_xyz
'x, y, z'
_cell_length_a     31.757503
_cell_length_b     38.05477
_cell_length_c     54.780037
_cell_angle_alpha  92.011632
_cell_angle_beta   89.481265
_cell_angle_gamma 129.37421
loop_
_atom_site_label
_atom_site_type_symbol
_atom_site_fract_x
_atom_site_fract_y
_atom_site_fract_z
_atom_type_partial_charge
Sm0 Sm 0.12886 0.51028 0.17502 0.0
Sm1 Sm 1.07112 0.5346 0.16852 0.0
C2 C 0.1873 0.48506 0.17621 0.0
C3 C 0.24398 0.51768 0.18424 0.0
C4 C 0.27944 0.56039 0.17352 0.0
C5 C 0.33463 0.5896 0.17982 0.0
C6 C 0.35376 0.57226 0.19388 0.0
C7 C 0.31754 0.53843 0.21035 0.0
C8 C 0.2622 0.50906 0.20449 0.0
C9 C 0.10612 0.52809 0.22086 0.0
C10 C 0.20093 0.61794 0.17335 0.0
C11 C 1.03183 0.57663 0.17629 0.0
C12 C 0.9818 0.55838 0.18842 0.0
C13 C 0.96437 0.52687 0.20675 0.0
C14 C 0.90915 0.4924 0.21017 0.0
C15 C 0.872 0.49019 0.19545 0.0
C16 C 0.88973 0.52441 0.17886 0.0
C17 C 0.94455 0.55884 0.17564 0.0
C18 C 0.08948 0.51532 0.12277 0.0
C19 C 0.99878 0.42811 0.17073 0.0
O20 O 0.17556 0.49332 0.15547 0.0
O21 O 0.15245 0.47392 0.19332 0.0
O22 O 1.07221 0.50475 0.20347 0.0
O23 O 0.15415 0.54473 0.21341 0.0
O24 O 0.20461 0.58626 0.17723 0.0
O25 O 0.15353 0.60603 0.16792 0.0
O26 O 1.07023 0.58416 0.19017 0.0
O27 O 1.02383 0.55446 0.15571 0.0
O28 O 0.12563 0.53823 0.13958 0.0
O29 O 1.04234 0.50125 0.13023 0.0
O30 O 0.9958 0.46062 0.17499 0.0
O31 O 1.04642 0.43885 0.16667 0.0
H32 H 0.26585 0.56934 0.1588 0.0
H33 H 0.36247 0.61886 0.1688 0.0
H34 H 0.33199 0.52756 0.22355 0.0
H35 H 0.23461 0.47842 0.21459 0.0
H36 H 0.9932 0.52652 0.21683 0.0
H37 H 0.89555 0.46687 0.22349 0.0
H38 H 0.86095 0.52355 0.16779 0.0
H39 H 0.95761 0.58252 0.16124 0.0
Sm40 Sm 0.6242 1.01029 0.49052 0.0
Sm41 Sm 0.55911 0.04121 0.49165 0.0
C42 C 0.65912 0.9642 0.4972 0.0
C43 C 0.63431 0.91559 0.49599 0.0
C44 C 0.59643 0.88537 0.51343 0.0
C45 C 0.57916 0.84129 0.51406 0.0
C46 C 0.59996 0.82702 0.49747 0.0
C47 C 0.63413 0.85568 0.47883 0.0
C48 C 0.65108 0.89966 0.47806 0.0
C49 C 0.60822 0.02899 0.44513 0.0
C50 C 0.48919 0.93264 0.49008 0.0
C51 C 0.52594 0.08778 0.48233 0.0
C52 C 0.55298 0.13673 0.48304 0.0
C53 C 0.54469 0.15498 0.46366 0.0
C54 C 0.56287 0.19943 0.46567 0.0
C55 C 0.58966 0.22603 0.48708 0.0
C56 C 0.60299 0.20948 0.50539 0.0
C57 C 0.58483 0.16508 0.50339 0.0
C58 C 0.57344 0.02316 0.53763 0.0
C59 C 0.69404 0.11811 0.4941 0.0
O60 O 0.6445 0.97785 0.51515 0.0
O61 O 0.66427 0.98262 0.47652 0.0
O62 O 0.57187 1.00759 0.46117 0.0
O63 O 0.65379 0.03961 0.45258 0.0
O64 O 0.53685 0.94222 0.49184 0.0
O65 O 0.48557 0.96507 0.48759 0.0
O66 O 0.54127 0.07349 0.46521 0.0
O67 O 0.51852 0.06935 0.5033 0.0
O68 O 0.60977 0.04239 0.52135 0.0
O69 O 0.53051 0.0172 0.53026 0.0
O70 O 0.6471 0.10858 0.48947 0.0
O71 O 0.69708 0.08579 0.49813 0.0
H72 H 0.58225 0.89637 0.52737 0.0
H73 H 0.55297 0.81959 0.52864 0.0
H74 H 0.65048 0.84508 0.46589 0.0
H75 H 0.67956 0.922 0.46422 0.0
H76 H 0.52143 0.134 0.44758 0.0
H77 H 0.55227 0.21172 0.45141 0.0
H78 H 0.62353 0.22959 0.52207 0.0
H79 H 0.5931 0.15223 0.51834 0.0
Sm80 Sm 0.66251 0.59279 0.84512 0.0
Sm81 Sm 0.59146 0.4926 0.84218 0.0
C82 C 0.70745 0.67911 0.84045 0.0
C83 C 0.6864 0.70427 0.84064 0.0
C84 C 0.63946 0.6879 0.82705 0.0
C85 C 0.62131 0.71299 0.82641 0.0
C86 C 0.65012 0.75507 0.83919 0.0
C87 C 0.69561 0.77061 0.85369 0.0
C88 C 0.71342 0.74516 0.85453 0.0
C89 C 0.63649 0.55479 0.88921 0.0
C90 C 0.52439 0.5327 0.84663 0.0
C91 C 0.54919 0.4081 0.85088 0.0
C92 C 0.56766 0.38097 0.84935 0.0
C93 C 0.55416 0.35114 0.86798 0.0
C94 C 0.56628 0.32169 0.86573 0.0
C95 C 0.59229 0.32187 0.84485 0.0
C96 C 0.60925 0.35391 0.827 0.0
C97 C 0.5971 0.38334 0.82923 0.0
C98 C 0.61062 0.52845 0.79719 0.0
C99 C 0.72924 0.55273 0.84616 0.0
O100 O 0.69341 0.65101 0.82178 0.0
O101 O 0.70595 0.6626 0.86121 0.0
O102 O 0.60365 0.54027 0.8716 0.0
O103 O 0.6855 0.59033 0.884 0.0
O104 O 0.57418 0.57262 0.84408 0.0
O105 O 0.5198 0.49544 0.84763 0.0
O106 O 0.57235 0.44046 0.86791 0.0
O107 O 0.54169 0.41996 0.83024 0.0
O108 O 0.64667 0.54486 0.81393 0.0
O109 O 0.56437 0.49079 0.80342 0.0
O110 O 0.67919 0.5127 0.84633 0.0
O111 O 0.73499 0.59031 0.84404 0.0
H112 H 0.6177 0.65639 0.81636 0.0
H113 H 0.58637 0.7007 0.81501 0.0
H114 H 0.71834 0.80311 0.86361 0.0
H115 H 0.74916 0.75802 0.86546 0.0
H116 H 0.53231 0.34937 0.88382 0.0
H117 H 0.55282 0.29712 0.87963 0.0
H118 H 0.62915 0.35434 0.8107 0.0
H119 H 0.60889 0.40667 0.81481 0.0
C120 C 0.70692 0.149 0.18428 0.0
C121 C 0.7142 0.18454 0.19794 0.0
C122 C 0.80171 0.24014 0.17861 0.0
C123 C 0.76123 0.22979 0.19507 0.0
C124 C 0.79436 0.20456 0.16508 0.0
C125 C 0.74733 0.15954 0.1678 0.0
U126 U 0.59065 0.03545 0.21576 0.0
O127 O 0.5058 0.9837 0.20199 0.0
O128 O 0.56201 0.96811 0.2024 0.0
C129 C 0.51407 0.95482 0.19576 0.0
C130 C 0.65705 0.10092 0.18559 0.0
C131 C 0.46788 0.9058 0.19285 0.0
C132 C 0.40711 0.84051 0.16497 0.0
C133 C 0.44904 0.88718 0.16903 0.0
C134 C 0.4017 0.83029 0.20863 0.0
C135 C 0.38329 0.81166 0.18473 0.0
C136 C 0.44401 0.87714 0.21269 0.0
C137 C 0.60082 0.04566 0.28924 0.0
C138 C 0.54691 1.00161 0.32425 0.0
C139 C 0.63895 0.07219 0.33047 0.0
C140 C 0.64389 0.07793 0.30529 0.0
C141 C 0.5906 0.03401 0.34026 0.0
C142 C 0.55201 1.00734 0.29883 0.0
C143 C 0.60934 0.05494 0.26292 0.0
O144 O 0.66385 0.07242 0.19311 0.0
O145 O 0.61238 0.09227 0.1938 0.0
O146 O 0.57495 0.05613 0.25057 0.0
O147 O 0.63126 0.04077 0.24984 0.0
H148 H 0.68365 0.17743 0.21073 0.0
H149 H 0.76632 0.25675 0.2058 0.0
H150 H 0.82507 0.21169 0.15239 0.0
H151 H 0.74237 0.13278 0.1569 0.0
H152 H 0.39305 0.82692 0.14646 0.0
H153 H 0.46715 0.90882 0.15347 0.0
H154 H 0.38327 0.80851 0.22411 0.0
H155 H 0.45812 0.89088 0.23117 0.0
H156 H 0.5092 0.97189 0.33145 0.0
H157 H 0.67306 0.09763 0.34238 0.0
H158 H 0.68171 0.10793 0.2983 0.0
H159 H 0.51816 0.98211 0.28677 0.0
C160 C 0.58448 0.59985 0.53039 0.0
C161 C 0.56502 0.6149 0.54734 0.0
C162 C 0.58537 0.67188 0.51933 0.0
C163 C 0.56526 0.65066 0.54178 0.0
C164 C 0.60496 0.6569 0.5025 0.0
C165 C 0.60439 0.62104 0.50799 0.0
U166 U 0.58604 0.52523 0.57501 0.0
O167 O 0.54992 0.45333 0.57144 0.0
O168 O 0.63892 0.50648 0.57462 0.0
C169 C 0.59773 0.46303 0.57077 0.0
C170 C 0.58627 0.56329 0.5359 0.0
C171 C 0.60506 0.43897 0.55179 0.0
C172 C 0.57609 0.39247 0.51423 0.0
C173 C 0.57484 0.42193 0.52971 0.0
C174 C 0.64105 0.40004 0.54172 0.0
C175 C 0.60779 0.38018 0.52068 0.0
C176 C 0.63957 0.42912 0.55718 0.0
C177 C 0.58217 0.54557 0.64436 0.0
C178 C 0.60225 0.51556 0.67655 0.0
C179 C 0.59054 0.57088 0.68655 0.0
C180 C 0.57931 0.57126 0.66202 0.0
C181 C 0.6086 0.54709 0.69409 0.0
C182 C 0.59109 0.51594 0.65186 0.0
C183 C 0.57902 0.5527 0.61842 0.0
O184 O 0.63091 0.57672 0.54713 0.0
O185 O 0.54168 0.52625 0.54476 0.0
O186 O 0.5362 0.51873 0.6057 0.0
O187 O 0.62482 0.57334 0.60655 0.0
H188 H 0.55012 0.59928 0.56487 0.0
H189 H 0.55052 0.66221 0.55505 0.0
H190 H 0.62105 0.67323 0.48521 0.0
H191 H 0.62 0.6101 0.49481 0.0
H192 H 0.54983 0.37705 0.49813 0.0
H193 H 0.54823 0.42941 0.52507 0.0
H194 H 0.66515 0.39041 0.54709 0.0
H195 H 0.66316 0.44193 0.57408 0.0
H196 H 0.60543 0.49011 0.68137 0.0
H197 H 0.58512 0.58989 0.69935 0.0
H198 H 0.56946 0.59253 0.65679 0.0
H199 H 0.59022 0.49365 0.63861 0.0
C200 C 1.00387 0.54382 0.86501 0.0
C201 C 0.95455 0.51545 0.87798 0.0
C202 C 0.91421 0.54661 0.85824 0.0
C203 C 0.91099 0.51699 0.87475 0.0
C204 C 0.96351 0.57477 0.84535 0.0
C205 C 1.00688 0.57332 0.84861 0.0
U206 U 0.11955 0.53507 0.8898 0.0
O207 O 0.14484 0.49789 0.87108 0.0
O208 O 0.20317 0.57169 0.87493 0.0
C209 C 0.19475 0.53475 0.86672 0.0
C210 C 1.05035 0.54097 0.86591 0.0
C211 C 0.24228 0.53336 0.86546 0.0
C212 C 0.30632 0.53213 0.83965 0.0
C213 C 0.26209 0.53266 0.84234 0.0
C214 C 0.31384 0.53294 0.88326 0.0
C215 C 0.33368 0.53238 0.85998 0.0
C216 C 0.26928 0.53349 0.88597 0.0
C217 C 0.11241 0.52788 0.96478 0.0
C218 C 0.15596 0.5365 1.00367 0.0
C219 C 1.06558 0.51394 1.00336 0.0
C220 C 1.06657 0.51544 0.97773 0.0
C221 C 0.11024 0.52443 0.01665 0.0
C222 C 0.1571 0.53836 0.97801 0.0
C223 C 0.11334 0.53011 0.93764 0.0
O224 O 0.09947 0.57629 0.87365 0.0
O225 O 1.03992 0.50252 0.87076 0.0
O226 O 0.08448 0.49373 0.92297 0.0
O227 O 0.14579 0.56892 0.92663 0.0
H228 H 0.94931 0.49169 0.89057 0.0
H229 H 0.87437 0.4947 0.88523 0.0
H230 H 0.96856 0.59811 0.83248 0.0
H231 H 1.04309 0.59522 0.83782 0.0
H232 H 0.31931 0.53156 0.82139 0.0
H233 H 0.24317 0.53265 0.82599 0.0
H234 H 0.33309 0.53315 0.89954 0.0
H235 H 0.2561 0.53411 0.90416 0.0
H236 H 0.19091 0.54478 1.01344 0.0
H237 H 1.03 0.50479 1.01288 0.0
H238 H 1.03166 0.50736 0.96801 0.0
H239 H 0.19286 0.5479 0.96849 0.0
C240 C 0.95814 0.40517 0.48178 0.0
C241 C 0.91871 0.37894 0.46317 0.0
C242 C 0.87158 0.31186 0.48805 0.0
C243 C 0.87561 0.33248 0.46631 0.0
C244 C 0.91068 0.33843 0.50668 0.0
C245 C 0.95339 0.38464 0.50358 0.0
U246 U 1.07635 0.52577 0.45418 0.0
O247 O 0.15722 0.57123 0.47215 0.0
O248 O 0.10438 0.58983 0.47298 0.0
C249 C 0.15112 0.60087 0.47978 0.0
C250 C 1.00475 0.45397 0.47977 0.0
C251 C 0.19961 0.64951 0.48048 0.0
C252 C 0.25367 0.72245 0.50307 0.0
C253 C 0.20694 0.67678 0.50068 0.0
C254 C 0.28713 0.71431 0.46516 0.0
C255 C 0.29432 0.74156 0.48541 0.0
C256 C 0.24007 0.66855 0.46269 0.0
C257 C 1.07507 0.52115 0.37912 0.0
C258 C 0.08206 0.55435 0.34044 0.0
C259 C 1.07257 0.48604 0.34032 0.0
C260 C 1.07106 0.48666 0.36599 0.0
C261 C 1.07841 0.52007 0.32728 0.0
C262 C 1.08014 0.55477 0.36606 0.0
C263 C 1.07554 0.52284 0.40629 0.0
O264 O 1.05137 0.46499 0.47288 0.0
O265 O 0.99615 0.48116 0.47177 0.0
O266 O 1.05067 0.53468 0.41904 0.0
O267 O 0.10068 0.51246 0.4193 0.0
H268 H 0.92149 0.39419 0.44627 0.0
H269 H 0.84579 0.31244 0.4517 0.0
H270 H 0.90839 0.32327 0.52354 0.0
H271 H 0.98318 0.40442 0.51825 0.0
H272 H 0.25835 0.74284 0.51878 0.0
H273 H 0.17658 0.66255 0.5148 0.0
H274 H 0.31797 0.72856 0.45128 0.0
H275 H 0.23548 0.64806 0.44707 0.0
H276 H 0.08708 0.58118 0.33084 0.0
H277 H 1.06969 0.45926 0.33064 0.0
H278 H 1.06681 0.46018 0.37559 0.0
H279 H 0.08381 0.58197 0.3757 0.0
C280 C 0.58739 0.9379 0.80735 0.0
C281 C 0.55345 0.89404 0.79619 0.0
C282 C 0.60023 0.87363 0.81896 0.0
C283 C 0.5595 0.8619 0.80217 0.0
C284 C 0.63325 0.91706 0.83036 0.0
C285 C 0.62664 0.94877 0.82471 0.0
U286 U 0.58165 1.01073 0.76223 0.0
O287 O 0.54404 0.04319 0.76626 0.0
O288 O 0.63296 0.0853 0.76325 0.0
C289 C 0.59149 0.08448 0.76711 0.0
C290 C 0.58451 0.97377 0.80113 0.0
C291 C 0.59997 0.11728 0.78595 0.0
C292 C 0.57034 0.13597 0.82164 0.0
C293 C 0.56752 0.10365 0.80683 0.0
C294 C 0.64125 0.19591 0.79616 0.0
C295 C 0.60579 0.18205 0.81575 0.0
C296 C 0.63822 0.16377 0.78135 0.0
C297 C 0.57846 0.98703 0.69242 0.0
C298 C 0.57294 0.02524 0.65936 0.0
C299 C 0.59095 0.9731 0.65035 0.0
C300 C 0.58865 0.96517 0.67522 0.0
C301 C 0.58274 1.0029 0.64217 0.0
C302 C 0.57096 0.01745 0.6844 0.0
C303 C 0.57669 0.97743 0.71845 0.0
O304 O 0.62823 1.00909 0.79085 0.0
O305 O 0.53883 0.96117 0.79139 0.0
O306 O 0.53327 0.96443 0.73062 0.0
O307 O 0.6223 1.00632 0.731 0.0
H308 H 0.52295 0.88482 0.78267 0.0
H309 H 0.53371 0.82845 0.7932 0.0
H310 H 0.66471 0.9266 0.84339 0.0
H311 H 0.65301 0.98228 0.83362 0.0
H312 H 0.54236 0.12471 0.83661 0.0
H313 H 0.53802 0.06801 0.81093 0.0
H314 H 0.66826 0.2312 0.79116 0.0
H315 H 0.66361 0.17503 0.76538 0.0
H316 H 0.56632 0.04824 0.65335 0.0
H317 H 0.59821 0.95538 0.63738 0.0
H318 H 0.59462 0.94166 0.68105 0.0
H319 H 0.56332 0.03486 0.69742 0.0
C320 C 0.62182 0.46301 0.14558 0.0
C321 C 0.67166 0.48481 0.13356 0.0
C322 C 0.6975 0.45638 0.16324 0.0
C323 C 0.71002 0.48197 0.14265 0.0
C324 C 0.64779 0.43449 0.17496 0.0
C325 C 0.61021 0.43821 0.16629 0.0
U326 U 0.54517 0.45223 0.09125 0.0
O327 O 0.45895 0.41963 0.08549 0.0
O328 O 0.52232 0.49401 0.08273 0.0
C329 C 0.47094 0.45971 0.0869 0.0
C330 C 0.57922 0.46192 0.1356 0.0
C331 C 0.45069 0.46799 0.10841 0.0
C332 C 0.42483 0.45381 0.15107 0.0
C333 C 0.43505 0.44121 0.12909 0.0
C334 C 0.45147 0.52227 0.13259 0.0
C335 C 0.43196 0.49392 0.15266 0.0
C336 C 0.45942 0.50882 0.11046 0.0
C337 C 0.57636 0.4485 0.02888 0.0
C338 C 0.55951 0.48909 1.00331 0.0
C339 C 0.58959 0.44901 0.98566 0.0
C340 C 0.59061 0.43508 1.00865 0.0
C341 C 0.57726 0.47841 0.98319 0.0
C342 C 0.55711 0.4727 0.02585 0.0
C343 C 0.58739 0.4433 0.05355 0.0
O344 O 0.5962 0.49673 0.12236 0.0
O345 O 0.53817 0.42205 0.12584 0.0
O346 O 0.54542 0.40767 0.06461 0.0
O347 O 0.61387 0.48152 0.06672 0.0
H348 H 0.68069 0.50358 0.11721 0.0
H349 H 0.749 0.49948 0.13382 0.0
H350 H 0.63873 0.4153 0.19113 0.0
H351 H 0.57169 0.42108 0.17546 0.0
H352 H 0.40914 0.43153 0.16635 0.0
H353 H 0.43076 0.4106 0.12838 0.0
H354 H 0.45639 0.55322 0.13358 0.0
H355 H 0.4736 0.53078 0.09509 0.0
H356 H 0.55053 0.51208 1.0019 0.0
H357 H 0.60335 0.44044 0.97015 0.0
H358 H 0.60519 0.4162 1.01077 0.0
H359 H 0.54493 0.48252 0.04134 0.0
C360 C 0.35928 0.52953 0.16178 0.0
C361 C 0.38682 0.56257 0.18132 0.0
C362 C 0.43758 0.53572 0.1894 0.0
C363 C 0.40475 0.50078 0.17143 0.0
N364 N 0.31942 0.45274 0.14945 0.0
N365 N 0.45229 0.59708 0.21437 0.0
C366 C 0.35829 0.49246 0.16202 0.0
C367 C 0.42652 0.56582 0.19539 0.0
N368 N 0.3383 0.53517 0.14212 0.0
N369 N 0.47889 0.53964 0.20022 0.0
H370 H 0.44593 0.62057 0.21782 0.0
H371 H 0.47878 0.59928 0.22662 0.0
H372 H 0.48461 0.51586 0.1963 0.0
H373 H 0.50665 0.56568 0.21271 0.0
H374 H 0.31988 0.51184 0.12729 0.0
H375 H 0.34735 0.56609 0.13885 0.0
H376 H 0.28444 0.44578 0.14218 0.0
H377 H 0.32057 0.42589 0.14853 0.0
C378 C 0.78542 0.18339 0.47755 0.0
C379 C 0.74357 0.16697 0.49483 0.0
C380 C 0.78505 0.24568 0.50757 0.0
C381 C 0.828 0.26195 0.49095 0.0
N382 N 0.87601 0.2465 0.46447 0.0
N383 N 0.7092 0.18187 0.52962 0.0
C384 C 0.83026 0.23081 0.47727 0.0
C385 C 0.74522 0.19802 0.51088 0.0
N386 N 0.78105 0.15414 0.46048 0.0
N387 N 0.78105 0.27566 0.51944 0.0
H388 H 0.67916 0.14728 0.53247 0.0
H389 H 0.71184 0.20254 0.54355 0.0
H390 H 0.80933 0.31074 0.51748 0.0
H391 H 0.74756 0.26572 0.52971 0.0
H392 H 0.80648 0.16492 0.4455 0.0
H393 H 0.74949 0.11915 0.46012 0.0
H394 H 0.88253 0.22521 0.45632 0.0
H395 H 0.90983 0.28093 0.46387 0.0
C396 C 0.61021 0.79253 0.85229 0.0
C397 C 0.6371 0.78544 0.83445 0.0
C398 C 0.6376 0.83435 0.80621 0.0
C399 C 0.61075 0.84162 0.82397 0.0
N400 N 0.56621 0.82498 0.8627 0.0
N401 N 0.68594 0.80577 0.79668 0.0
C402 C 0.59596 0.82023 0.84681 0.0
C403 C 0.65298 0.80773 0.81193 0.0
N404 N 0.5995 0.77349 0.87457 0.0
N405 N 0.64795 0.85257 0.7837 0.0
H406 H 0.699 0.78729 0.80028 0.0
H407 H 0.70442 0.82539 0.7814 0.0
H408 H 0.64183 0.87548 0.77932 0.0
H409 H 0.65969 0.84311 0.76877 0.0
H410 H 0.58529 0.78072 0.88947 0.0
H411 H 0.60731 0.75153 0.8787 0.0
H412 H 0.55022 0.80792 0.87889 0.0
H413 H 0.55439 0.84436 0.85902 0.0
C414 C 0.79189 0.47262 0.21079 0.0
C415 C 0.81373 0.4551 0.19811 0.0
C416 C 0.74901 0.42744 0.16482 0.0
C417 C 0.73785 0.45572 0.17465 0.0
N418 N 0.75657 0.5121 0.20497 0.0
N419 N 0.80293 0.40334 0.1675 0.0
C420 C 0.7606 0.47973 0.19739 0.0
C421 C 0.78713 0.4268 0.17707 0.0
N422 N 0.80798 0.48826 0.23435 0.0
N423 N 0.72643 0.40293 0.14336 0.0
H424 H 0.83234 0.40385 0.17636 0.0
H425 H 0.78591 0.38336 0.15137 0.0
H426 H 0.69902 0.40253 0.13272 0.0
H427 H 0.69902 0.40253 0.13272 0.0
H428 H 0.79209 0.50057 0.24493 0.0
H429 H 0.83381 0.4848 0.24352 0.0
H430 H 0.77773 0.53381 0.22018 0.0
H431 H 0.73668 0.52041 0.19468 0.0
C432 C 0.39873 0.86686 0.47104 0.0
C433 C 0.43889 0.88364 0.48968 0.0
C434 C 0.38476 0.80605 0.50552 0.0
C435 C 0.34368 0.79063 0.48761 0.0
N436 N 0.30525 0.80837 0.45764 0.0
N437 N 0.47168 0.86883 0.5245 0.0
C438 C 0.34886 0.82167 0.47169 0.0
C439 C 0.43223 0.85312 0.507 0.0
N440 N 0.40978 0.89272 0.45146 0.0
N441 N 0.37761 0.77556 0.5213 0.0
H442 H 0.50547 0.90285 0.52734 0.0
H443 H 0.47226 0.8487 0.53655 0.0
H444 H 0.34502 0.74076 0.51982 0.0
H445 H 0.40283 0.78376 0.53615 0.0
H446 H 0.38429 0.88024 0.43611 0.0
H447 H 0.44717 0.92472 0.449 0.0
H448 H 0.30454 0.83102 0.44791 0.0
H449 H 0.26774 0.77563 0.45762 0.0
C450 C 0.63004 0.28105 0.85185 0.0
C451 C 0.59298 0.28367 0.83953 0.0
C452 C 0.56119 0.21715 0.81347 0.0
C453 C 0.5976 0.21398 0.82593 0.0
N454 N 0.65839 0.23619 0.85988 0.0
N455 N 0.51377 0.24774 0.8133 0.0
C456 C 0.62941 0.24384 0.84613 0.0
C457 C 0.55569 0.24973 0.82174 0.0
N458 N 0.66697 0.31494 0.86829 0.0
N459 N 0.533 0.18992 0.79317 0.0
H460 H 0.50773 0.27064 0.81905 0.0
H461 H 0.48184 0.22088 0.80238 0.0
H462 H 0.53316 0.16372 0.78711 0.0
H463 H 0.51209 0.19511 0.78132 0.0
H464 H 0.69859 0.31753 0.87617 0.0
H465 H 0.66812 0.34236 0.87294 0.0
H466 H 0.67829 0.25388 0.87623 0.0
H467 H 0.65872 0.20935 0.85587 0.0
C468 C 0.63182 0.79193 0.52028 0.0
C469 C 0.59543 0.78676 0.50272 0.0
C470 C 0.55053 0.70561 0.49679 0.0
C471 C 0.58822 0.71126 0.51375 0.0
N472 N 0.66953 0.76019 0.53889 0.0
N473 N 0.52372 0.74115 0.47249 0.0
C474 C 0.63001 0.7545 0.52485 0.0
C475 C 0.55579 0.74423 0.49039 0.0
N476 N 0.668 0.83274 0.53277 0.0
N477 N 0.50909 0.66304 0.48732 0.0
H478 H 0.52554 0.76853 0.46806 0.0
H479 H 0.4973 0.71252 0.46112 0.0
H480 H 0.50417 0.63416 0.49164 0.0
H481 H 0.4776 0.65542 0.47628 0.0
H482 H 0.6902 0.83717 0.54812 0.0
H483 H 0.67407 0.86222 0.52874 0.0
H484 H 0.70465 0.79168 0.54522 0.0
H485 H 0.66959 0.73361 0.54282 0.0
C486 C 0.81107 0.57012 0.87084 0.0
C487 C 0.77968 0.55468 0.84859 0.0
C488 C 0.83675 0.5347 0.83237 0.0
C489 C 0.86737 0.5492 0.85485 0.0
N490 N 0.88714 0.5862 0.89445 0.0
N491 N 0.77094 0.53071 0.80658 0.0
C492 C 0.85492 0.56803 0.87382 0.0
C493 C 0.79499 0.53925 0.82898 0.0
N494 N 0.79922 0.58748 0.88928 0.0
N495 N 0.84628 0.51487 0.81435 0.0
H496 H 0.74082 0.53354 0.80356 0.0
H497 H 0.7835 0.52452 0.79057 0.0
H498 H 0.87568 0.51086 0.81606 0.0
H499 H 0.82294 0.49951 0.7984 0.0
H500 H 0.81306 0.59301 0.90723 0.0
H501 H 0.77404 0.59575 0.88661 0.0
H502 H 0.88455 0.60385 0.90845 0.0
H503 H 0.9195 0.58609 0.89714 0.0
C504 C 0.242 0.6975 0.18796 0.0
C505 C 0.2487 0.66748 0.17604 0.0
C506 C 0.34556 0.73219 0.17079 0.0
C507 C 0.33695 0.76224 0.18052 0.0
N508 N 0.27292 0.77418 0.19109 0.0
N509 N 0.30406 0.65952 0.14996 0.0
C510 C 0.28383 0.74511 0.18674 0.0
C511 C 0.29983 0.68563 0.16578 0.0
N512 N 0.19732 0.6809 0.20182 0.0
N513 N 0.39724 0.74786 0.16657 0.0
H514 H 0.27027 0.62702 0.1439 0.0
H515 H 0.33952 0.67206 0.14057 0.0
H516 H 0.43156 0.78183 0.16968 0.0
H517 H 0.40609 0.72641 0.1619 0.0
H518 H 0.19278 0.7018 0.21216 0.0
H519 H 0.16859 0.64664 0.20567 0.0
H520 H 0.23342 0.7629 0.19311 0.0
H521 H 0.30255 0.80941 0.19011 0.0
C522 C 0.63142 0.30842 0.48302 0.0
C523 C 0.59138 0.26526 0.49301 0.0
C524 C 0.55822 0.29673 0.51875 0.0
C525 C 0.59811 0.33994 0.50882 0.0
N526 N 0.66432 0.38547 0.47805 0.0
N527 N 0.50772 0.21546 0.51514 0.0
C528 C 0.63207 0.34531 0.48976 0.0
C529 C 0.552 0.25857 0.50926 0.0
N530 N 0.66977 0.31439 0.46788 0.0
N531 N 0.5275 0.29241 0.53793 0.0
H532 H 0.50117 0.1863 0.50849 0.0
H533 H 0.47469 0.2081 0.52475 0.0
H534 H 0.52838 0.31882 0.5447 0.0
H535 H 0.50352 0.2634 0.5482 0.0
H536 H 0.70331 0.34594 0.46187 0.0
H537 H 0.66976 0.28782 0.46246 0.0
H538 H 0.6863 0.3904 0.46249 0.0
H539 H 0.66544 0.41286 0.4828 0.0
C540 C 0.47128 0.56254 0.83776 0.0
C541 C 0.47372 0.53077 0.84952 0.0
C542 C 0.3802 0.49576 0.86505 0.0
C543 C 0.38228 0.53196 0.85664 0.0
N544 N 0.43838 0.60548 0.83867 0.0
N545 N 0.4302 0.47158 0.87919 0.0
C546 C 0.43043 0.56695 0.84413 0.0
C547 C 0.42791 0.49848 0.8644 0.0
N548 N 0.50555 0.58669 0.81903 0.0
N549 N 0.33184 0.45748 0.87297 0.0
H550 H 0.46436 0.4738 0.88103 0.0
H551 H 0.40043 0.45079 0.89194 0.0
H552 H 0.2963 0.45368 0.87337 0.0
H553 H 0.32579 0.42788 0.8766 0.0
H554 H 0.50307 0.60764 0.80852 0.0
H555 H 0.53097 0.58072 0.81176 0.0
H556 H 0.47502 0.63406 0.83194 0.0
H557 H 0.41067 0.61061 0.84327 0.0
C558 C 0.93819 0.3568 0.19449 0.0
C559 C 0.94957 0.3794 0.1723 0.0
C560 C 0.8639 0.31106 0.15421 0.0
C561 C 0.85299 0.28805 0.17624 0.0
N562 N 0.88508 0.28541 0.2153 0.0
N563 N 0.93069 0.37504 0.12938 0.0
C564 C 0.8916 0.30999 0.19586 0.0
C565 C 0.91459 0.3556 0.15164 0.0
N566 N 0.97194 0.38021 0.21434 0.0
N567 N 0.825 0.29101 0.13607 0.0
H568 H 0.96746 0.40755 0.12692 0.0
H569 H 0.9102 0.3576 0.11306 0.0
H570 H 0.78728 0.2587 0.13732 0.0
H571 H 0.82821 0.30772 0.12063 0.0
H572 H 0.96218 0.36799 0.23193 0.0
H573 H 1.00889 0.41312 0.21347 0.0
H574 H 0.91445 0.29792 0.22899 0.0
H575 H 0.85216 0.25091 0.21678 0.0
C576 C 0.10011 0.48742 0.08257 0.0
C577 C 0.10183 0.52082 0.09608 0.0
C578 C 0.11665 0.55979 0.05798 0.0
C579 C 0.10945 0.52392 0.04416 0.0
N580 N 0.08966 0.45139 0.04298 0.0
N581 N 0.10778 0.58721 0.09686 0.0
C582 C 0.10036 0.48729 0.05641 0.0
C583 C 0.10926 0.55669 0.08383 0.0
N584 N 0.09861 0.45598 0.09484 0.0
N585 N 0.13213 0.59755 0.04641 0.0
H586 H 0.1056 0.58774 0.11587 0.0
H587 H 0.10565 0.61046 0.08887 0.0
H588 H 0.13773 0.60098 0.0276 0.0
H589 H 0.14373 0.62702 0.05553 0.0
H590 H 0.10276 0.43337 0.08648 0.0
H591 H 0.09742 0.45481 0.11386 0.0
H592 H 1.0769 0.42134 0.05048 0.0
H593 H 0.08989 0.45025 0.02393 0.0
C594 C 0.58589 0.99122 0.40339 0.0
C595 C 0.59642 0.02698 0.41869 0.0
C596 C 0.59043 0.06086 0.38297 0.0
C597 C 0.5872 0.0286 0.36733 0.0
N598 N 0.5909 0.96729 0.36264 0.0
N599 N 0.61852 0.10035 0.4226 0.0
C600 C 0.58687 0.99459 0.37753 0.0
C601 C 0.60112 0.06298 0.40839 0.0
N602 N 0.57509 0.95402 0.41357 0.0
N603 N 0.58263 0.08915 0.37354 0.0
H604 H 0.62816 0.1036 0.44112 0.0
H605 H 0.62809 0.12972 0.41562 0.0
H606 H 0.57406 0.08812 0.35506 0.0
H607 H 0.57935 0.11037 0.38435 0.0
H608 H 0.5617 0.92483 0.40344 0.0
H609 H 0.57491 0.95071 0.43241 0.0
H610 H 0.5974 0.94567 0.36918 0.0
H611 H 0.59252 0.96897 0.34367 0.0
C612 C 0.6257 0.5759 0.76219 0.0
C613 C 0.62322 0.54024 0.77121 0.0
C614 C 0.63984 0.52498 0.72986 0.0
C615 C 0.6285 0.55255 0.72039 0.0
N616 N 0.65919 0.62805 0.72958 0.0
N617 N 0.63185 0.48213 0.76386 0.0
C618 C 0.63558 0.58543 0.73707 0.0
C619 C 0.63178 0.51528 0.75514 0.0
N620 N 0.61653 0.59963 0.77725 0.0
N621 N 0.66751 0.51531 0.71607 0.0
H622 H 0.6292 0.47576 0.78242 0.0
H623 H 0.63166 0.45954 0.75243 0.0
H624 H 0.685 0.5311 0.69959 0.0
H625 H 0.6807 0.49831 0.72261 0.0
H626 H 0.61277 0.62303 0.77082 0.0
H627 H 0.60849 0.59313 0.79573 0.0
H628 H 0.66956 0.65449 0.74154 0.0
H629 H 0.67504 0.63811 0.71209 0.0
C630 C 0.62866 0.04912 0.57785 0.0
C631 C 0.57999 0.01593 0.56381 0.0
C632 C 0.53405 0.97429 0.60151 0.0
C633 C 0.58156 1.0084 0.61538 0.0
N634 N 0.67658 0.07379 0.61717 0.0
N635 N 0.48592 0.94648 0.56264 0.0
C636 C 0.62946 0.04463 0.60365 0.0
C637 C 0.53287 0.9782 0.57579 0.0
N638 N 0.67338 0.08641 0.56704 0.0
N639 N 0.49039 0.93708 0.61298 0.0
H640 H 0.48382 0.94405 0.54368 0.0
H641 H 0.44794 0.92289 0.57032 0.0
H642 H 0.48794 0.93442 0.63191 0.0
H643 H 0.45752 0.90747 0.60396 0.0
H644 H 0.70585 0.11536 0.57665 0.0
H645 H 0.67843 0.08982 0.54834 0.0
H646 H 0.71488 0.09731 0.60973 0.0
H647 H 0.67823 0.07264 0.63611 0.0
C648 C 0.5728 0.52683 0.92457 0.0
C649 C 0.62024 0.53729 0.91377 0.0
C650 C 0.64565 0.52577 0.95209 0.0
C651 C 0.59259 0.50382 0.96075 0.0
N652 N 0.50239 0.48033 0.95398 0.0
N653 N 0.69121 0.53117 0.91581 0.0
C654 C 0.55499 0.50368 0.9468 0.0
C655 C 0.65425 0.53293 0.92714 0.0
N656 N 0.54612 0.54014 0.9143 0.0
N657 N 0.68744 0.53921 0.96748 0.0
H658 H 0.69223 0.52887 0.89684 0.0
H659 H 0.7143 0.52505 0.92522 0.0
H660 H 0.68298 0.53663 0.9864 0.0
H661 H 0.72738 0.55751 0.96146 0.0
H662 H 0.51396 0.53629 0.92277 0.0
H663 H 0.55988 0.5595 0.89877 0.0
H664 H 0.47288 0.47662 0.94316 0.0
H665 H 0.48698 0.46121 0.9696 0.0
C666 C 0.13799 0.56127 0.26388 0.0
C667 C 0.09388 0.52766 0.24789 0.0
C668 C 1.0367 0.49039 0.28453 0.0
C669 C 0.08317 0.52135 0.29992 0.0
N670 N 0.18033 0.58007 0.30392 0.0
N671 N 0.99636 0.46571 0.24367 0.0
C672 C 0.13434 0.55494 0.28946 0.0
C673 C 1.0417 0.49348 0.25837 0.0
N674 N 0.18224 0.60144 0.25487 0.0
N675 N 0.98785 0.45775 0.29513 0.0
H676 H 0.99597 0.46858 0.22499 0.0
H677 H 0.95702 0.44138 0.24977 0.0
H678 H 0.98231 0.45647 0.31396 0.0
H679 H 0.95278 0.43076 0.2858 0.0
H680 H 0.21338 0.62866 0.26594 0.0
H681 H 0.18416 0.61029 0.23687 0.0
H682 H 0.21949 0.6011 0.29688 0.0
H683 H 0.17973 0.57648 0.32274 0.0
loop_
_geom_bond_atom_site_label_1
_geom_bond_atom_site_label_2
_geom_bond_distance
_geom_bond_site_symmetry_2
_ccdc_geom_bond_type
Sm0 C2 2.846 . S
Sm0 O20 2.543 . S
Sm0 O21 2.450 . S
Sm0 O22 2.681 . S
Sm0 O23 2.464 . S
Sm0 O24 2.396 . S
Sm0 O28 2.386 . S
Sm0 O31 2.408 1_455 S
Sm1 C11 2.846 . S
Sm1 O22 2.386 1_655 S
Sm1 O25 2.408 1_655 S
Sm1 O26 2.543 . S
Sm1 O27 2.450 . S
Sm1 O28 2.681 1_655 S
Sm1 O29 2.464 . S
Sm1 O30 2.396 . S
C2 Sm0 2.846 . S
C2 C3 1.506 . S
C2 O20 1.261 . S
C2 O21 1.242 . S
C3 C2 1.506 . S
C3 C4 1.358 . S
C3 C8 1.382 . S
C4 C3 1.358 . S
C4 C5 1.385 . S
C4 H32 0.930 . S
C5 C4 1.385 . S
C5 C6 1.395 . S
C5 H33 0.929 . S
C6 C5 1.395 . S
C6 C7 1.335 . S
C7 C6 1.335 . S
C7 C8 1.398 . S
C7 H34 0.930 . S
C8 C3 1.382 . S
C8 C7 1.398 . S
C8 H35 0.929 . S
C9 O22 1.271 . S
C9 O23 1.251 . S
C10 O24 1.252 . S
C10 O25 1.272 . S
C11 Sm1 2.846 . S
C11 C12 1.506 . S
C11 O26 1.261 . S
C11 O27 1.242 . S
C12 C11 1.506 . S
C12 C13 1.358 . S
C12 C17 1.382 . S
C13 C12 1.358 . S
C13 C14 1.385 . S
C13 H36 0.930 . S
C14 C13 1.385 . S
C14 C15 1.395 . S
C14 H37 0.929 . S
C15 C14 1.395 . S
C15 C16 1.335 . S
C16 C15 1.335 . S
C16 C17 1.398 . S
C16 H38 0.930 . S
C17 C12 1.382 . S
C17 C16 1.398 . S
C17 H39 0.929 . S
C18 O28 1.271 . S
C18 O29 1.251 1_455 S
C19 O30 1.252 . S
C19 O31 1.272 . S
O20 Sm0 2.543 . S
O20 C2 1.261 . S
O21 Sm0 2.450 . S
O21 C2 1.242 . S
O22 Sm0 2.681 . S
O22 Sm1 2.386 1_455 S
O22 C9 1.271 . S
O23 Sm0 2.464 . S
O23 C9 1.251 . S
O24 Sm0 2.396 . S
O24 C10 1.252 . S
O25 Sm1 2.408 1_455 S
O25 C10 1.272 . S
O26 Sm1 2.543 . S
O26 C11 1.261 . S
O27 Sm1 2.450 . S
O27 C11 1.242 . S
O28 Sm0 2.386 . S
O28 Sm1 2.681 1_455 S
O28 C18 1.271 . S
O29 Sm1 2.464 . S
O29 C18 1.251 1_655 S
O30 Sm1 2.396 . S
O30 C19 1.252 . S
O31 Sm0 2.408 1_655 S
O31 C19 1.272 . S
H32 C4 0.930 . S
H33 C5 0.929 . S
H34 C7 0.930 . S
H35 C8 0.929 . S
H36 C13 0.930 . S
H37 C14 0.929 . S
H38 C16 0.930 . S
H39 C17 0.929 . S
Sm40 C42 2.846 . S
Sm40 O60 2.543 . S
Sm40 O61 2.450 . S
Sm40 O62 2.681 1_565 S
Sm40 O63 2.464 . S
Sm40 O64 2.396 . S
Sm40 O68 2.386 . S
Sm40 O71 2.408 1_565 S
Sm41 C51 2.846 . S
Sm41 O62 2.386 . S
Sm41 O65 2.408 1_545 S
Sm41 O66 2.543 . S
Sm41 O67 2.450 . S
Sm41 O68 2.681 1_545 S
Sm41 O69 2.464 . S
Sm41 O70 2.396 . S
C42 Sm40 2.846 . S
C42 C43 1.506 . S
C42 O60 1.261 . S
C42 O61 1.242 . S
C43 C42 1.506 . S
C43 C44 1.358 . S
C43 C48 1.382 . S
C44 C43 1.358 . S
C44 C45 1.385 . S
C44 H72 0.930 . S
C45 C44 1.385 . S
C45 C46 1.395 . S
C45 H73 0.929 . S
C46 C45 1.395 . S
C46 C47 1.335 . S
C47 C46 1.335 . S
C47 C48 1.398 . S
C47 H74 0.930 . S
C48 C43 1.382 . S
C48 C47 1.398 . S
C48 H75 0.929 . S
C49 O62 1.271 . S
C49 O63 1.251 1_545 S
C50 O64 1.252 . S
C50 O65 1.272 . S
C51 Sm41 2.846 . S
C51 C52 1.506 . S
C51 O66 1.261 . S
C51 O67 1.242 . S
C52 C51 1.506 . S
C52 C53 1.358 . S
C52 C57 1.382 . S
C53 C52 1.358 . S
C53 C54 1.385 . S
C53 H76 0.930 . S
C54 C53 1.385 . S
C54 C55 1.395 . S
C54 H77 0.929 . S
C55 C54 1.395 . S
C55 C56 1.335 . S
C56 C55 1.335 . S
C56 C57 1.398 . S
C56 H78 0.930 . S
C57 C52 1.382 . S
C57 C56 1.398 . S
C57 H79 0.929 . S
C58 O68 1.271 1_545 S
C58 O69 1.251 . S
C59 O70 1.252 . S
C59 O71 1.272 . S
O60 Sm40 2.543 . S
O60 C42 1.261 . S
O61 Sm40 2.450 . S
O61 C42 1.242 . S
O62 Sm40 2.681 1_545 S
O62 Sm41 2.386 . S
O62 C49 1.271 . S
O63 Sm40 2.464 . S
O63 C49 1.251 1_565 S
O64 Sm40 2.396 . S
O64 C50 1.252 . S
O65 Sm41 2.408 1_565 S
O65 C50 1.272 . S
O66 Sm41 2.543 . S
O66 C51 1.261 . S
O67 Sm41 2.450 . S
O67 C51 1.242 . S
O68 Sm40 2.386 . S
O68 Sm41 2.681 1_565 S
O68 C58 1.271 1_565 S
O69 Sm41 2.464 . S
O69 C58 1.251 . S
O70 Sm41 2.396 . S
O70 C59 1.252 . S
O71 Sm40 2.408 1_545 S
O71 C59 1.272 . S
H72 C44 0.930 . S
H73 C45 0.929 . S
H74 C47 0.930 . S
H75 C48 0.929 . S
H76 C53 0.930 . S
H77 C54 0.929 . S
H78 C56 0.930 . S
H79 C57 0.929 . S
Sm80 C82 2.846 . S
Sm80 O100 2.543 . S
Sm80 O101 2.450 . S
Sm80 O102 2.681 . S
Sm80 O103 2.464 . S
Sm80 O104 2.396 . S
Sm80 O108 2.386 . S
Sm80 O111 2.408 . S
Sm81 C91 2.846 . S
Sm81 O102 2.386 . S
Sm81 O105 2.408 . S
Sm81 O106 2.543 . S
Sm81 O107 2.450 . S
Sm81 O108 2.681 . S
Sm81 O109 2.464 . S
Sm81 O110 2.396 . S
C82 Sm80 2.846 . S
C82 C83 1.506 . S
C82 O100 1.261 . S
C82 O101 1.242 . S
C83 C82 1.506 . S
C83 C84 1.358 . S
C83 C88 1.382 . S
C84 C83 1.358 . S
C84 C85 1.385 . S
C84 H112 0.930 . S
C85 C84 1.385 . S
C85 C86 1.395 . S
C85 H113 0.929 . S
C86 C85 1.395 . S
C86 C87 1.335 . S
C87 C86 1.335 . S
C87 C88 1.398 . S
C87 H114 0.930 . S
C88 C83 1.382 . S
C88 C87 1.398 . S
C88 H115 0.929 . S
C89 O102 1.271 . S
C89 O103 1.251 . S
C90 O104 1.252 . S
C90 O105 1.272 . S
C91 Sm81 2.846 . S
C91 C92 1.506 . S
C91 O106 1.261 . S
C91 O107 1.242 . S
C92 C91 1.506 . S
C92 C93 1.358 . S
C92 C97 1.382 . S
C93 C92 1.358 . S
C93 C94 1.385 . S
C93 H116 0.930 . S
C94 C93 1.385 . S
C94 C95 1.395 . S
C94 H117 0.929 . S
C95 C94 1.395 . S
C95 C96 1.335 . S
C96 C95 1.335 . S
C96 C97 1.398 . S
C96 H118 0.930 . S
C97 C92 1.382 . S
C97 C96 1.398 . S
C97 H119 0.929 . S
C98 O108 1.271 . S
C98 O109 1.251 . S
C99 O110 1.252 . S
C99 O111 1.272 . S
O100 Sm80 2.543 . S
O100 C82 1.261 . S
O101 Sm80 2.450 . S
O101 C82 1.242 . S
O102 Sm80 2.681 . S
O102 Sm81 2.386 . S
O102 C89 1.271 . S
O103 Sm80 2.464 . S
O103 C89 1.251 . S
O104 Sm80 2.396 . S
O104 C90 1.252 . S
O105 Sm81 2.408 . S
O105 C90 1.272 . S
O106 Sm81 2.543 . S
O106 C91 1.261 . S
O107 Sm81 2.450 . S
O107 C91 1.242 . S
O108 Sm80 2.386 . S
O108 Sm81 2.681 . S
O108 C98 1.271 . S
O109 Sm81 2.464 . S
O109 C98 1.251 . S
O110 Sm81 2.396 . S
O110 C99 1.252 . S
O111 Sm80 2.408 . S
O111 C99 1.272 . S
H112 C84 0.930 . S
H113 C85 0.929 . S
H114 C87 0.930 . S
H115 C88 0.929 . S
H116 C93 0.930 . S
H117 C94 0.929 . S
H118 C96 0.930 . S
H119 C97 0.929 . S
C120 C121 1.264 . S
C120 C125 1.479 . S
C120 C130 1.465 . S
C121 C120 1.264 . S
C121 C123 1.339 . S
C121 H148 0.931 . S
C122 C123 1.395 . S
C122 C124 1.320 . S
C123 C121 1.339 . S
C123 C122 1.395 . S
C123 H149 0.929 . S
C124 C122 1.320 . S
C124 C125 1.405 . S
C124 H150 0.930 . S
C125 C120 1.479 . S
C125 C124 1.405 . S
C125 H151 0.931 . S
U126 O127 2.454 1_545 S
U126 O128 2.458 1_545 S
U126 C129 2.984 1_545 S
U126 C130 2.847 . S
U126 C143 2.882 . S
U126 O144 2.441 . S
U126 O145 2.420 . S
U126 O146 2.455 1_545 S
U126 O147 2.449 . S
O127 U126 2.454 1_565 S
O127 C129 1.353 . S
O128 U126 2.458 1_565 S
O128 C129 1.286 . S
C129 U126 2.984 1_565 S
C129 O127 1.353 . S
C129 O128 1.286 . S
C129 C131 1.363 . S
C130 C120 1.465 . S
C130 U126 2.847 . S
C130 O144 1.249 . S
C130 O145 1.202 . S
C131 C129 1.363 . S
C131 C133 1.408 . S
C131 C136 1.342 . S
C132 C133 1.310 . S
C132 C135 1.461 . S
C132 H152 0.932 . S
C133 C131 1.408 . S
C133 C132 1.310 . S
C133 H153 0.930 . S
C134 C135 1.474 . S
C134 C136 1.285 . S
C134 H154 0.929 . S
C135 C132 1.461 . S
C135 C134 1.474 . S
C136 C131 1.342 . S
C136 C134 1.285 . S
C136 H155 0.930 . S
C137 C140 1.424 . S
C137 C142 1.245 1_545 S
C137 C143 1.428 . S
C138 C141 1.260 1_565 S
C138 C142 1.477 . S
C138 H156 0.932 . S
C139 C140 1.384 . S
C139 C141 1.479 . S
C139 H157 0.929 . S
C140 C137 1.424 . S
C140 C139 1.384 . S
C140 H158 0.928 . S
C141 C138 1.260 1_545 S
C141 C139 1.479 . S
C142 C137 1.245 1_565 S
C142 C138 1.477 . S
C142 H159 0.932 . S
C143 U126 2.882 . S
C143 C137 1.428 . S
C143 O146 1.301 1_545 S
C143 O147 1.282 . S
O144 U126 2.441 . S
O144 C130 1.249 . S
O145 U126 2.420 . S
O145 C130 1.202 . S
O146 U126 2.455 1_565 S
O146 C143 1.301 1_565 S
O147 U126 2.449 . S
O147 C143 1.282 . S
H148 C121 0.931 . S
H149 C123 0.929 . S
H150 C124 0.930 . S
H151 C125 0.931 . S
H152 C132 0.932 . S
H153 C133 0.930 . S
H154 C134 0.929 . S
H155 C136 0.930 . S
H156 C138 0.932 . S
H157 C139 0.929 . S
H158 C140 0.928 . S
H159 C142 0.932 . S
C160 C161 1.264 . S
C160 C165 1.479 . S
C160 C170 1.465 . S
C161 C160 1.264 . S
C161 C163 1.339 . S
C161 H188 0.931 . S
C162 C163 1.395 . S
C162 C164 1.320 . S
C163 C161 1.339 . S
C163 C162 1.395 . S
C163 H189 0.929 . S
C164 C162 1.320 . S
C164 C165 1.405 . S
C164 H190 0.930 . S
C165 C160 1.479 . S
C165 C164 1.405 . S
C165 H191 0.931 . S
U166 O167 2.454 . S
U166 O168 2.458 . S
U166 C169 2.984 . S
U166 C170 2.847 . S
U166 C183 2.882 . S
U166 O184 2.441 . S
U166 O185 2.420 . S
U166 O186 2.455 . S
U166 O187 2.449 . S
O167 U166 2.454 . S
O167 C169 1.353 . S
O168 U166 2.458 . S
O168 C169 1.286 . S
C169 U166 2.984 . S
C169 O167 1.353 . S
C169 O168 1.286 . S
C169 C171 1.363 . S
C170 C160 1.465 . S
C170 U166 2.847 . S
C170 O184 1.249 . S
C170 O185 1.202 . S
C171 C169 1.363 . S
C171 C173 1.408 . S
C171 C176 1.342 . S
C172 C173 1.310 . S
C172 C175 1.461 . S
C172 H192 0.932 . S
C173 C171 1.408 . S
C173 C172 1.310 . S
C173 H193 0.930 . S
C174 C175 1.474 . S
C174 C176 1.285 . S
C174 H194 0.929 . S
C175 C172 1.461 . S
C175 C174 1.474 . S
C176 C171 1.342 . S
C176 C174 1.285 . S
C176 H195 0.930 . S
C177 C180 1.424 . S
C177 C182 1.245 . S
C177 C183 1.428 . S
C178 C181 1.260 . S
C178 C182 1.477 . S
C178 H196 0.932 . S
C179 C180 1.384 . S
C179 C181 1.479 . S
C179 H197 0.929 . S
C180 C177 1.424 . S
C180 C179 1.384 . S
C180 H198 0.928 . S
C181 C178 1.260 . S
C181 C179 1.479 . S
C182 C177 1.245 . S
C182 C178 1.477 . S
C182 H199 0.932 . S
C183 U166 2.882 . S
C183 C177 1.428 . S
C183 O186 1.301 . S
C183 O187 1.282 . S
O184 U166 2.441 . S
O184 C170 1.249 . S
O185 U166 2.420 . S
O185 C170 1.202 . S
O186 U166 2.455 . S
O186 C183 1.301 . S
O187 U166 2.449 . S
O187 C183 1.282 . S
H188 C161 0.931 . S
H189 C163 0.929 . S
H190 C164 0.930 . S
H191 C165 0.931 . S
H192 C172 0.932 . S
H193 C173 0.930 . S
H194 C174 0.929 . S
H195 C176 0.930 . S
H196 C178 0.932 . S
H197 C179 0.929 . S
H198 C180 0.928 . S
H199 C182 0.932 . S
C200 C201 1.264 . S
C200 C205 1.479 . S
C200 C210 1.465 . S
C201 C200 1.264 . S
C201 C203 1.339 . S
C201 H228 0.931 . S
C202 C203 1.395 . S
C202 C204 1.320 . S
C203 C201 1.339 . S
C203 C202 1.395 . S
C203 H229 0.929 . S
C204 C202 1.320 . S
C204 C205 1.405 . S
C204 H230 0.930 . S
C205 C200 1.479 . S
C205 C204 1.405 . S
C205 H231 0.931 . S
U206 O207 2.454 . S
U206 O208 2.458 . S
U206 C209 2.984 . S
U206 C210 2.847 1_455 S
U206 C223 2.882 . S
U206 O224 2.441 1_455 S
U206 O225 2.420 1_455 S
U206 O226 2.455 . S
U206 O227 2.449 1_455 S
O207 U206 2.454 . S
O207 C209 1.353 . S
O208 U206 2.458 . S
O208 C209 1.286 . S
C209 U206 2.984 . S
C209 O207 1.353 . S
C209 O208 1.286 . S
C209 C211 1.363 . S
C210 C200 1.465 . S
C210 U206 2.847 1_655 S
C210 O224 1.249 . S
C210 O225 1.202 . S
C211 C209 1.363 . S
C211 C213 1.408 . S
C211 C216 1.342 . S
C212 C213 1.310 . S
C212 C215 1.461 . S
C212 H232 0.932 . S
C213 C211 1.408 . S
C213 C212 1.310 . S
C213 H233 0.930 . S
C214 C215 1.474 . S
C214 C216 1.285 . S
C214 H234 0.929 . S
C215 C212 1.461 . S
C215 C214 1.474 . S
C216 C211 1.342 . S
C216 C214 1.285 . S
C216 H235 0.930 . S
C217 C220 1.424 1_455 S
C217 C222 1.245 . S
C217 C223 1.428 . S
C218 C221 1.260 1_556 S
C218 C222 1.477 . S
C218 H236 0.932 1_556 S
C219 C220 1.384 . S
C219 C221 1.479 1_656 S
C219 H237 0.929 1_556 S
C220 C217 1.424 1_655 S
C220 C219 1.384 . S
C220 H238 0.928 . S
C221 C218 1.260 1_554 S
C221 C219 1.479 1_454 S
C222 C217 1.245 . S
C222 C218 1.477 . S
C222 H239 0.932 . S
C223 U206 2.882 . S
C223 C217 1.428 . S
C223 O226 1.301 . S
C223 O227 1.282 1_455 S
O224 U206 2.441 1_655 S
O224 C210 1.249 . S
O225 U206 2.420 1_655 S
O225 C210 1.202 . S
O226 U206 2.455 . S
O226 C223 1.301 . S
O227 U206 2.449 1_655 S
O227 C223 1.282 1_655 S
H228 C201 0.931 . S
H229 C203 0.929 . S
H230 C204 0.930 . S
H231 C205 0.931 . S
H232 C212 0.932 . S
H233 C213 0.930 . S
H234 C214 0.929 . S
H235 C216 0.930 . S
H236 C218 0.932 1_554 S
H237 C219 0.929 1_554 S
H238 C220 0.928 . S
H239 C222 0.932 . S
C240 C241 1.264 . S
C240 C245 1.479 . S
C240 C250 1.465 . S
C241 C240 1.264 . S
C241 C243 1.339 . S
C241 H268 0.931 . S
C242 C243 1.395 . S
C242 C244 1.320 . S
C243 C241 1.339 . S
C243 C242 1.395 . S
C243 H269 0.929 . S
C244 C242 1.320 . S
C244 C245 1.405 . S
C244 H270 0.930 . S
C245 C240 1.479 . S
C245 C244 1.405 . S
C245 H271 0.931 . S
U246 O247 2.454 1_655 S
U246 O248 2.458 1_655 S
U246 C249 2.984 1_655 S
U246 C250 2.847 . S
U246 C263 2.882 . S
U246 O264 2.441 . S
U246 O265 2.420 . S
U246 O266 2.455 1_655 S
U246 O267 2.449 . S
O247 U246 2.454 1_455 S
O247 C249 1.353 . S
O248 U246 2.458 1_455 S
O248 C249 1.286 . S
C249 U246 2.984 1_455 S
C249 O247 1.353 . S
C249 O248 1.286 . S
C249 C251 1.363 . S
C250 C240 1.465 . S
C250 U246 2.847 . S
C250 O264 1.249 . S
C250 O265 1.202 . S
C251 C249 1.363 . S
C251 C253 1.408 . S
C251 C256 1.342 . S
C252 C253 1.310 . S
C252 C255 1.461 . S
C252 H272 0.932 . S
C253 C251 1.408 . S
C253 C252 1.310 . S
C253 H273 0.930 . S
C254 C255 1.474 . S
C254 C256 1.285 . S
C254 H274 0.929 . S
C255 C252 1.461 . S
C255 C254 1.474 . S
C256 C251 1.342 . S
C256 C254 1.285 . S
C256 H275 0.930 . S
C257 C260 1.424 . S
C257 C262 1.245 1_655 S
C257 C263 1.428 . S
C258 C261 1.260 1_455 S
C258 C262 1.477 . S
C258 H276 0.932 . S
C259 C260 1.384 . S
C259 C261 1.479 . S
C259 H277 0.929 . S
C260 C257 1.424 . S
C260 C259 1.384 . S
C260 H278 0.928 . S
C261 C258 1.260 1_655 S
C261 C259 1.479 . S
C262 C257 1.245 1_455 S
C262 C258 1.477 . S
C262 H279 0.932 . S
C263 U246 2.882 . S
C263 C257 1.428 . S
C263 O266 1.301 1_655 S
C263 O267 1.282 . S
O264 U246 2.441 . S
O264 C250 1.249 . S
O265 U246 2.420 . S
O265 C250 1.202 . S
O266 U246 2.455 1_455 S
O266 C263 1.301 1_455 S
O267 U246 2.449 . S
O267 C263 1.282 . S
H268 C241 0.931 . S
H269 C243 0.929 . S
H270 C244 0.930 . S
H271 C245 0.931 . S
H272 C252 0.932 . S
H273 C253 0.930 . S
H274 C254 0.929 . S
H275 C256 0.930 . S
H276 C258 0.932 . S
H277 C259 0.929 . S
H278 C260 0.928 . S
H279 C262 0.932 . S
C280 C281 1.264 . S
C280 C285 1.479 . S
C280 C290 1.465 . S
C281 C280 1.264 . S
C281 C283 1.339 . S
C281 H308 0.931 . S
C282 C283 1.395 . S
C282 C284 1.320 . S
C283 C281 1.339 . S
C283 C282 1.395 . S
C283 H309 0.929 . S
C284 C282 1.320 . S
C284 C285 1.405 . S
C284 H310 0.930 . S
C285 C280 1.479 . S
C285 C284 1.405 . S
C285 H311 0.931 . S
U286 O287 2.454 1_565 S
U286 O288 2.458 1_565 S
U286 C289 2.984 1_565 S
U286 C290 2.847 . S
U286 C303 2.882 . S
U286 O304 2.441 . S
U286 O305 2.420 . S
U286 O306 2.455 1_565 S
U286 O307 2.449 . S
O287 U286 2.454 1_545 S
O287 C289 1.353 . S
O288 U286 2.458 1_545 S
O288 C289 1.286 . S
C289 U286 2.984 1_545 S
C289 O287 1.353 . S
C289 O288 1.286 . S
C289 C291 1.363 . S
C290 C280 1.465 . S
C290 U286 2.847 . S
C290 O304 1.249 . S
C290 O305 1.202 . S
C291 C289 1.363 . S
C291 C293 1.408 . S
C291 C296 1.342 . S
C292 C293 1.310 . S
C292 C295 1.461 . S
C292 H312 0.932 . S
C293 C291 1.408 . S
C293 C292 1.310 . S
C293 H313 0.930 . S
C294 C295 1.474 . S
C294 C296 1.285 . S
C294 H314 0.929 . S
C295 C292 1.461 . S
C295 C294 1.474 . S
C296 C291 1.342 . S
C296 C294 1.285 . S
C296 H315 0.930 . S
C297 C300 1.424 . S
C297 C302 1.245 1_565 S
C297 C303 1.428 . S
C298 C301 1.260 1_545 S
C298 C302 1.477 . S
C298 H316 0.932 . S
C299 C300 1.384 . S
C299 C301 1.479 . S
C299 H317 0.929 . S
C300 C297 1.424 . S
C300 C299 1.384 . S
C300 H318 0.928 . S
C301 C298 1.260 1_565 S
C301 C299 1.479 . S
C302 C297 1.245 1_545 S
C302 C298 1.477 . S
C302 H319 0.932 . S
C303 U286 2.882 . S
C303 C297 1.428 . S
C303 O306 1.301 1_565 S
C303 O307 1.282 . S
O304 U286 2.441 . S
O304 C290 1.249 . S
O305 U286 2.420 . S
O305 C290 1.202 . S
O306 U286 2.455 1_545 S
O306 C303 1.301 1_545 S
O307 U286 2.449 . S
O307 C303 1.282 . S
H308 C281 0.931 . S
H309 C283 0.929 . S
H310 C284 0.930 . S
H311 C285 0.931 . S
H312 C292 0.932 . S
H313 C293 0.930 . S
H314 C294 0.929 . S
H315 C296 0.930 . S
H316 C298 0.932 . S
H317 C299 0.929 . S
H318 C300 0.928 . S
H319 C302 0.932 . S
C320 C321 1.264 . S
C320 C325 1.479 . S
C320 C330 1.465 . S
C321 C320 1.264 . S
C321 C323 1.339 . S
C321 H348 0.931 . S
C322 C323 1.395 . S
C322 C324 1.320 . S
C323 C321 1.339 . S
C323 C322 1.395 . S
C323 H349 0.929 . S
C324 C322 1.320 . S
C324 C325 1.405 . S
C324 H350 0.930 . S
C325 C320 1.479 . S
C325 C324 1.405 . S
C325 H351 0.931 . S
U326 O327 2.454 . S
U326 O328 2.458 . S
U326 C329 2.984 . S
U326 C330 2.847 . S
U326 C343 2.882 . S
U326 O344 2.441 . S
U326 O345 2.420 . S
U326 O346 2.455 . S
U326 O347 2.449 . S
O327 U326 2.454 . S
O327 C329 1.353 . S
O328 U326 2.458 . S
O328 C329 1.286 . S
C329 U326 2.984 . S
C329 O327 1.353 . S
C329 O328 1.286 . S
C329 C331 1.363 . S
C330 C320 1.465 . S
C330 U326 2.847 . S
C330 O344 1.249 . S
C330 O345 1.202 . S
C331 C329 1.363 . S
C331 C333 1.408 . S
C331 C336 1.342 . S
C332 C333 1.310 . S
C332 C335 1.461 . S
C332 H352 0.932 . S
C333 C331 1.408 . S
C333 C332 1.310 . S
C333 H353 0.930 . S
C334 C335 1.474 . S
C334 C336 1.285 . S
C334 H354 0.929 . S
C335 C332 1.461 . S
C335 C334 1.474 . S
C336 C331 1.342 . S
C336 C334 1.285 . S
C336 H355 0.930 . S
C337 C340 1.422 . S
C337 C342 1.245 1_554 S
C337 C343 1.428 . S
C338 C341 1.260 . S
C338 C342 1.477 . S
C338 H356 0.932 . S
C339 C340 1.389 1_556 S
C339 C341 1.479 . S
C339 H357 0.929 . S
C340 C337 1.422 . S
C340 C339 1.389 1_554 S
C340 H358 0.925 . S
C341 C338 1.260 . S
C341 C339 1.479 . S
C342 C337 1.245 1_556 S
C342 C338 1.477 . S
C342 H359 0.932 1_556 S
C343 U326 2.882 . S
C343 C337 1.428 . S
C343 O346 1.301 . S
C343 O347 1.282 . S
O344 U326 2.441 . S
O344 C330 1.249 . S
O345 U326 2.420 . S
O345 C330 1.202 . S
O346 U326 2.455 . S
O346 C343 1.301 . S
O347 U326 2.449 . S
O347 C343 1.282 . S
H348 C321 0.931 . S
H349 C323 0.929 . S
H350 C324 0.930 . S
H351 C325 0.931 . S
H352 C332 0.932 . S
H353 C333 0.930 . S
H354 C334 0.929 . S
H355 C336 0.930 . S
H356 C338 0.932 . S
H357 C339 0.929 . S
H358 C340 0.925 . S
H359 C342 0.932 1_554 S
C360 C361 1.363 . S
C360 C366 1.379 . S
C360 N368 1.356 . S
C361 C360 1.363 . S
C361 C367 1.363 . S
C362 C363 1.363 . S
C362 C367 1.379 . S
C362 N369 1.356 . S
C363 C362 1.363 . S
C363 C366 1.363 . S
N364 C366 1.356 . S
N364 H376 0.984 . S
N364 H377 0.985 . S
N365 C367 1.356 . S
N365 H370 0.984 . S
N365 H371 0.985 . S
C366 C360 1.379 . S
C366 C363 1.363 . S
C366 N364 1.356 . S
C367 C361 1.363 . S
C367 C362 1.379 . S
C367 N365 1.356 . S
N368 C360 1.356 . S
N368 H374 0.984 . S
N368 H375 0.984 . S
N369 C362 1.356 . S
N369 H372 0.984 . S
N369 H373 0.985 . S
H370 N365 0.984 . S
H371 N365 0.985 . S
H372 N369 0.984 . S
H373 N369 0.985 . S
H374 N368 0.984 . S
H375 N368 0.984 . S
H376 N364 0.984 . S
H377 N364 0.985 . S
C378 C379 1.363 . S
C378 C384 1.379 . S
C378 N386 1.356 . S
C379 C378 1.363 . S
C379 C385 1.363 . S
C380 C381 1.363 . S
C380 C385 1.379 . S
C380 N387 1.356 . S
C381 C380 1.363 . S
C381 C384 1.363 . S
N382 C384 1.356 . S
N382 H394 0.984 . S
N382 H395 0.985 . S
N383 C385 1.356 . S
N383 H388 0.984 . S
N383 H389 0.985 . S
C384 C378 1.379 . S
C384 C381 1.363 . S
C384 N382 1.356 . S
C385 C379 1.363 . S
C385 C380 1.379 . S
C385 N383 1.356 . S
N386 C378 1.356 . S
N386 H392 0.984 . S
N386 H393 0.984 . S
N387 C380 1.356 . S
N387 H390 0.984 . S
N387 H391 0.985 . S
H388 N383 0.984 . S
H389 N383 0.985 . S
H390 N387 0.984 . S
H391 N387 0.985 . S
H392 N386 0.984 . S
H393 N386 0.984 . S
H394 N382 0.984 . S
H395 N382 0.985 . S
C396 C397 1.363 . S
C396 C402 1.379 . S
C396 N404 1.356 . S
C397 C396 1.363 . S
C397 C403 1.363 . S
C398 C399 1.363 . S
C398 C403 1.379 . S
C398 N405 1.356 . S
C399 C398 1.363 . S
C399 C402 1.363 . S
N400 C402 1.356 . S
N400 H412 0.984 . S
N400 H413 0.985 . S
N401 C403 1.356 . S
N401 H406 0.984 . S
N401 H407 0.985 . S
C402 C396 1.379 . S
C402 C399 1.363 . S
C402 N400 1.356 . S
C403 C397 1.363 . S
C403 C398 1.379 . S
C403 N401 1.356 . S
N404 C396 1.356 . S
N404 H410 0.984 . S
N404 H411 0.984 . S
N405 C398 1.356 . S
N405 H408 0.984 . S
N405 H409 0.985 . S
H406 N401 0.984 . S
H407 N401 0.985 . S
H408 N405 0.984 . S
H409 N405 0.985 . S
H410 N404 0.984 . S
H411 N404 0.984 . S
H412 N400 0.984 . S
H413 N400 0.985 . S
C414 C415 1.363 . S
C414 C420 1.379 . S
C414 N422 1.356 . S
C415 C414 1.363 . S
C415 C421 1.363 . S
C416 C417 1.363 . S
C416 C421 1.379 . S
C416 N423 1.356 . S
C417 C416 1.363 . S
C417 C420 1.363 . S
N418 C420 1.356 . S
N418 H430 0.984 . S
N418 H431 0.985 . S
N419 C421 1.356 . S
N419 H424 0.984 . S
N419 H425 0.985 . S
C420 C414 1.379 . S
C420 C417 1.363 . S
C420 N418 1.356 . S
C421 C415 1.363 . S
C421 C416 1.379 . S
C421 N419 1.356 . S
N422 C414 1.356 . S
N422 H428 0.984 . S
N422 H429 0.984 . S
N423 C416 1.356 . S
N423 H426 0.984 . S
N423 H427 0.985 . S
H424 N419 0.984 . S
H425 N419 0.985 . S
H426 N423 0.984 . S
H427 N423 0.985 . S
H428 N422 0.984 . S
H429 N422 0.984 . S
H430 N418 0.984 . S
H431 N418 0.985 . S
C432 C433 1.363 . S
C432 C438 1.379 . S
C432 N440 1.356 . S
C433 C432 1.363 . S
C433 C439 1.363 . S
C434 C435 1.363 . S
C434 C439 1.379 . S
C434 N441 1.356 . S
C435 C434 1.363 . S
C435 C438 1.363 . S
N436 C438 1.356 . S
N436 H448 0.984 . S
N436 H449 0.985 . S
N437 C439 1.356 . S
N437 H442 0.984 . S
N437 H443 0.985 . S
C438 C432 1.379 . S
C438 C435 1.363 . S
C438 N436 1.356 . S
C439 C433 1.363 . S
C439 C434 1.379 . S
C439 N437 1.356 . S
N440 C432 1.356 . S
N440 H446 0.984 . S
N440 H447 0.984 . S
N441 C434 1.356 . S
N441 H444 0.984 . S
N441 H445 0.985 . S
H442 N437 0.984 . S
H443 N437 0.985 . S
H444 N441 0.984 . S
H445 N441 0.985 . S
H446 N440 0.984 . S
H447 N440 0.984 . S
H448 N436 0.984 . S
H449 N436 0.985 . S
C450 C451 1.363 . S
C450 C456 1.379 . S
C450 N458 1.356 . S
C451 C450 1.363 . S
C451 C457 1.363 . S
C452 C453 1.363 . S
C452 C457 1.379 . S
C452 N459 1.356 . S
C453 C452 1.363 . S
C453 C456 1.363 . S
N454 C456 1.356 . S
N454 H466 0.984 . S
N454 H467 0.985 . S
N455 C457 1.356 . S
N455 H460 0.984 . S
N455 H461 0.985 . S
C456 C450 1.379 . S
C456 C453 1.363 . S
C456 N454 1.356 . S
C457 C451 1.363 . S
C457 C452 1.379 . S
C457 N455 1.356 . S
N458 C450 1.356 . S
N458 H464 0.984 . S
N458 H465 0.984 . S
N459 C452 1.356 . S
N459 H462 0.984 . S
N459 H463 0.985 . S
H460 N455 0.984 . S
H461 N455 0.985 . S
H462 N459 0.984 . S
H463 N459 0.985 . S
H464 N458 0.984 . S
H465 N458 0.984 . S
H466 N454 0.984 . S
H467 N454 0.985 . S
C468 C469 1.363 . S
C468 C474 1.379 . S
C468 N476 1.356 . S
C469 C468 1.363 . S
C469 C475 1.363 . S
C470 C471 1.363 . S
C470 C475 1.379 . S
C470 N477 1.356 . S
C471 C470 1.363 . S
C471 C474 1.363 . S
N472 C474 1.356 . S
N472 H484 0.984 . S
N472 H485 0.985 . S
N473 C475 1.356 . S
N473 H478 0.984 . S
N473 H479 0.985 . S
C474 C468 1.379 . S
C474 C471 1.363 . S
C474 N472 1.356 . S
C475 C469 1.363 . S
C475 C470 1.379 . S
C475 N473 1.356 . S
N476 C468 1.356 . S
N476 H482 0.984 . S
N476 H483 0.984 . S
N477 C470 1.356 . S
N477 H480 0.984 . S
N477 H481 0.985 . S
H478 N473 0.984 . S
H479 N473 0.985 . S
H480 N477 0.984 . S
H481 N477 0.985 . S
H482 N476 0.984 . S
H483 N476 0.984 . S
H484 N472 0.984 . S
H485 N472 0.985 . S
C486 C487 1.363 . S
C486 C492 1.379 . S
C486 N494 1.356 . S
C487 C486 1.363 . S
C487 C493 1.363 . S
C488 C489 1.363 . S
C488 C493 1.379 . S
C488 N495 1.356 . S
C489 C488 1.363 . S
C489 C492 1.363 . S
N490 C492 1.356 . S
N490 H502 0.984 . S
N490 H503 0.985 . S
N491 C493 1.356 . S
N491 H496 0.984 . S
N491 H497 0.985 . S
C492 C486 1.379 . S
C492 C489 1.363 . S
C492 N490 1.356 . S
C493 C487 1.363 . S
C493 C488 1.379 . S
C493 N491 1.356 . S
N494 C486 1.356 . S
N494 H500 0.984 . S
N494 H501 0.984 . S
N495 C488 1.356 . S
N495 H498 0.984 . S
N495 H499 0.985 . S
H496 N491 0.984 . S
H497 N491 0.985 . S
H498 N495 0.984 . S
H499 N495 0.985 . S
H500 N494 0.984 . S
H501 N494 0.984 . S
H502 N490 0.984 . S
H503 N490 0.985 . S
C504 C505 1.363 . S
C504 C510 1.379 . S
C504 N512 1.356 . S
C505 C504 1.363 . S
C505 C511 1.363 . S
C506 C507 1.363 . S
C506 C511 1.379 . S
C506 N513 1.356 . S
C507 C506 1.363 . S
C507 C510 1.363 . S
N508 C510 1.356 . S
N508 H520 0.984 . S
N508 H521 0.985 . S
N509 C511 1.356 . S
N509 H514 0.984 . S
N509 H515 0.985 . S
C510 C504 1.379 . S
C510 C507 1.363 . S
C510 N508 1.356 . S
C511 C505 1.363 . S
C511 C506 1.379 . S
C511 N509 1.356 . S
N512 C504 1.356 . S
N512 H518 0.984 . S
N512 H519 0.984 . S
N513 C506 1.356 . S
N513 H516 0.984 . S
N513 H517 0.985 . S
H514 N509 0.984 . S
H515 N509 0.985 . S
H516 N513 0.984 . S
H517 N513 0.985 . S
H518 N512 0.984 . S
H519 N512 0.984 . S
H520 N508 0.984 . S
H521 N508 0.985 . S
C522 C523 1.363 . S
C522 C528 1.379 . S
C522 N530 1.356 . S
C523 C522 1.363 . S
C523 C529 1.363 . S
C524 C525 1.363 . S
C524 C529 1.379 . S
C524 N531 1.356 . S
C525 C524 1.363 . S
C525 C528 1.363 . S
N526 C528 1.356 . S
N526 H538 0.984 . S
N526 H539 0.985 . S
N527 C529 1.356 . S
N527 H532 0.984 . S
N527 H533 0.985 . S
C528 C522 1.379 . S
C528 C525 1.363 . S
C528 N526 1.356 . S
C529 C523 1.363 . S
C529 C524 1.379 . S
C529 N527 1.356 . S
N530 C522 1.356 . S
N530 H536 0.984 . S
N530 H537 0.984 . S
N531 C524 1.356 . S
N531 H534 0.984 . S
N531 H535 0.985 . S
H532 N527 0.984 . S
H533 N527 0.985 . S
H534 N531 0.984 . S
H535 N531 0.985 . S
H536 N530 0.984 . S
H537 N530 0.984 . S
H538 N526 0.984 . S
H539 N526 0.985 . S
C540 C541 1.363 . S
C540 C546 1.379 . S
C540 N548 1.356 . S
C541 C540 1.363 . S
C541 C547 1.363 . S
C542 C543 1.363 . S
C542 C547 1.379 . S
C542 N549 1.356 . S
C543 C542 1.363 . S
C543 C546 1.363 . S
N544 C546 1.356 . S
N544 H556 0.984 . S
N544 H557 0.985 . S
N545 C547 1.356 . S
N545 H550 0.984 . S
N545 H551 0.985 . S
C546 C540 1.379 . S
C546 C543 1.363 . S
C546 N544 1.356 . S
C547 C541 1.363 . S
C547 C542 1.379 . S
C547 N545 1.356 . S
N548 C540 1.356 . S
N548 H554 0.984 . S
N548 H555 0.984 . S
N549 C542 1.356 . S
N549 H552 0.984 . S
N549 H553 0.985 . S
H550 N545 0.984 . S
H551 N545 0.985 . S
H552 N549 0.984 . S
H553 N549 0.985 . S
H554 N548 0.984 . S
H555 N548 0.984 . S
H556 N544 0.984 . S
H557 N544 0.985 . S
C558 C559 1.363 . S
C558 C564 1.379 . S
C558 N566 1.356 . S
C559 C558 1.363 . S
C559 C565 1.363 . S
C560 C561 1.363 . S
C560 C565 1.379 . S
C560 N567 1.356 . S
C561 C560 1.363 . S
C561 C564 1.363 . S
N562 C564 1.356 . S
N562 H574 0.984 . S
N562 H575 0.985 . S
N563 C565 1.356 . S
N563 H568 0.984 . S
N563 H569 0.985 . S
C564 C558 1.379 . S
C564 C561 1.363 . S
C564 N562 1.356 . S
C565 C559 1.363 . S
C565 C560 1.379 . S
C565 N563 1.356 . S
N566 C558 1.356 . S
N566 H572 0.984 . S
N566 H573 0.984 . S
N567 C560 1.356 . S
N567 H570 0.984 . S
N567 H571 0.985 . S
H568 N563 0.984 . S
H569 N563 0.985 . S
H570 N567 0.984 . S
H571 N567 0.985 . S
H572 N566 0.984 . S
H573 N566 0.984 . S
H574 N562 0.984 . S
H575 N562 0.985 . S
C576 C577 1.363 . S
C576 C582 1.379 . S
C576 N584 1.356 . S
C577 C576 1.363 . S
C577 C583 1.363 . S
C578 C579 1.363 . S
C578 C583 1.379 . S
C578 N585 1.356 . S
C579 C578 1.363 . S
C579 C582 1.363 . S
N580 C582 1.356 . S
N580 H592 0.984 . S
N580 H593 0.985 . S
N581 C583 1.356 . S
N581 H586 0.984 . S
N581 H587 0.985 . S
C582 C576 1.379 . S
C582 C579 1.363 . S
C582 N580 1.356 . S
C583 C577 1.363 . S
C583 C578 1.379 . S
C583 N581 1.356 . S
N584 C576 1.356 . S
N584 H590 0.984 . S
N584 H591 0.984 . S
N585 C578 1.356 . S
N585 H588 0.984 . S
N585 H589 0.985 . S
H586 N581 0.984 . S
H587 N581 0.985 . S
H588 N585 0.984 . S
H589 N585 0.985 . S
H590 N584 0.984 . S
H591 N584 0.984 . S
H592 N580 0.984 . S
H593 N580 0.985 . S
C594 C595 1.363 1_565 S
C594 C600 1.379 . S
C594 N602 1.356 . S
C595 C594 1.363 1_545 S
C595 C601 1.363 . S
C596 C597 1.363 . S
C596 C601 1.379 . S
C596 N603 1.356 . S
C597 C596 1.363 . S
C597 C600 1.363 1_545 S
N598 C600 1.356 . S
N598 H610 0.984 . S
N598 H611 0.985 . S
N599 C601 1.356 . S
N599 H604 0.984 . S
N599 H605 0.985 . S
C600 C594 1.379 . S
C600 C597 1.363 1_565 S
C600 N598 1.356 . S
C601 C595 1.363 . S
C601 C596 1.379 . S
C601 N599 1.356 . S
N602 C594 1.356 . S
N602 H608 0.984 . S
N602 H609 0.984 . S
N603 C596 1.356 . S
N603 H606 0.984 . S
N603 H607 0.985 . S
H604 N599 0.984 . S
H605 N599 0.985 . S
H606 N603 0.984 . S
H607 N603 0.985 . S
H608 N602 0.984 . S
H609 N602 0.984 . S
H610 N598 0.984 . S
H611 N598 0.985 . S
C612 C613 1.363 . S
C612 C618 1.379 . S
C612 N620 1.356 . S
C613 C612 1.363 . S
C613 C619 1.363 . S
C614 C615 1.363 . S
C614 C619 1.379 . S
C614 N621 1.356 . S
C615 C614 1.363 . S
C615 C618 1.363 . S
N616 C618 1.356 . S
N616 H628 0.984 . S
N616 H629 0.985 . S
N617 C619 1.356 . S
N617 H622 0.984 . S
N617 H623 0.985 . S
C618 C612 1.379 . S
C618 C615 1.363 . S
C618 N616 1.356 . S
C619 C613 1.363 . S
C619 C614 1.379 . S
C619 N617 1.356 . S
N620 C612 1.356 . S
N620 H626 0.984 . S
N620 H627 0.984 . S
N621 C614 1.356 . S
N621 H624 0.984 . S
N621 H625 0.985 . S
H622 N617 0.984 . S
H623 N617 0.985 . S
H624 N621 0.984 . S
H625 N621 0.985 . S
H626 N620 0.984 . S
H627 N620 0.984 . S
H628 N616 0.984 . S
H629 N616 0.985 . S
C630 C631 1.363 . S
C630 C636 1.379 . S
C630 N638 1.356 . S
C631 C630 1.363 . S
C631 C637 1.363 1_545 S
C632 C633 1.363 . S
C632 C637 1.379 . S
C632 N639 1.356 . S
C633 C632 1.363 . S
C633 C636 1.363 1_565 S
N634 C636 1.356 . S
N634 H646 0.984 . S
N634 H647 0.985 . S
N635 C637 1.356 . S
N635 H640 0.984 . S
N635 H641 0.985 . S
C636 C630 1.379 . S
C636 C633 1.363 1_545 S
C636 N634 1.356 . S
C637 C631 1.363 1_565 S
C637 C632 1.379 . S
C637 N635 1.356 . S
N638 C630 1.356 . S
N638 H644 0.984 . S
N638 H645 0.984 . S
N639 C632 1.356 . S
N639 H642 0.984 . S
N639 H643 0.985 . S
H640 N635 0.984 . S
H641 N635 0.985 . S
H642 N639 0.984 . S
H643 N639 0.985 . S
H644 N638 0.984 . S
H645 N638 0.984 . S
H646 N634 0.984 . S
H647 N634 0.985 . S
C648 C649 1.363 . S
C648 C654 1.379 . S
C648 N656 1.356 . S
C649 C648 1.363 . S
C649 C655 1.363 . S
C650 C651 1.363 . S
C650 C655 1.379 . S
C650 N657 1.356 . S
C651 C650 1.363 . S
C651 C654 1.363 . S
N652 C654 1.356 . S
N652 H664 0.984 . S
N652 H665 0.985 . S
N653 C655 1.356 . S
N653 H658 0.984 . S
N653 H659 0.985 . S
C654 C648 1.379 . S
C654 C651 1.363 . S
C654 N652 1.356 . S
C655 C649 1.363 . S
C655 C650 1.379 . S
C655 N653 1.356 . S
N656 C648 1.356 . S
N656 H662 0.984 . S
N656 H663 0.984 . S
N657 C650 1.356 . S
N657 H660 0.984 . S
N657 H661 0.985 . S
H658 N653 0.984 . S
H659 N653 0.985 . S
H660 N657 0.984 . S
H661 N657 0.985 . S
H662 N656 0.984 . S
H663 N656 0.984 . S
H664 N652 0.984 . S
H665 N652 0.985 . S
C666 C667 1.363 . S
C666 C672 1.379 . S
C666 N674 1.356 . S
C667 C666 1.363 . S
C667 C673 1.363 1_455 S
C668 C669 1.363 . S
C668 C673 1.379 . S
C668 N675 1.356 . S
C669 C668 1.363 . S
C669 C672 1.363 1_655 S
N670 C672 1.356 . S
N670 H682 0.984 . S
N670 H683 0.985 . S
N671 C673 1.356 . S
N671 H676 0.984 . S
N671 H677 0.985 . S
C672 C666 1.379 . S
C672 C669 1.363 1_455 S
C672 N670 1.356 . S
C673 C667 1.363 1_655 S
C673 C668 1.379 . S
C673 N671 1.356 . S
N674 C666 1.356 . S
N674 H680 0.984 . S
N674 H681 0.984 . S
N675 C668 1.356 . S
N675 H678 0.984 . S
N675 H679 0.985 . S
H676 N671 0.984 . S
H677 N671 0.985 . S
H678 N675 0.984 . S
H679 N675 0.985 . S
H680 N674 0.984 . S
H681 N674 0.984 . S
H682 N670 0.984 . S
H683 N670 0.985 . S
C361 C6 0.868 . S
C363 C335 0.896 . S
C379 C59 2.084 . S
C381 C242 2.049 . S
C397 C86 1.312 . S
C399 C282 1.338 . S
C415 C15 0.574 . S
C417 C322 0.502 . S
C435 C255 2.153 . S
C433 C50 2.282 . S
C453 C295 1.372 . S
C451 C95 1.368 . S
C469 C46 1.262 . S
C471 C162 1.257 . S
C487 C99 3.243 . S
C489 C202 3.199 . S
C505 C10 2.312 . S
C507 C135 2.201 . S
C525 C175 1.370 . S
C523 C55 1.352 . S
C543 C215 3.110 . S
C541 C90 3.198 . S
C559 C19 2.081 . S
C561 C122 2.051 . S
C579 C221 1.767 . S
C577 C18 1.714 . S
C595 C49 1.343 . S
C597 C141 1.378 . S
C613 C98 1.461 . S
C615 C181 1.504 . S
C633 C301 1.495 . S
C631 C58 1.453 . S
C651 C341 1.111 . S
C649 C89 1.103 . S
C667 C9 1.334 . S
C669 C261 1.365 . S
