# Generated by pormake.
# Topology eea, (3,6)-cn, num edge types: 1
# Building blocks:
#     Node 0, Type 0, BuildingBlock: WUSLED_clean_sbu_0, # of connection points: 3
#     Node 1, Type 0, BuildingBlock: WUSLED_clean_sbu_0, # of connection points: 3
#     Node 2, Type 0, BuildingBlock: WUSLED_clean_sbu_0, # of connection points: 3
#     Node 3, Type 0, BuildingBlock: WUSLED_clean_sbu_0, # of connection points: 3
#     Node 4, Type 0, BuildingBlock: WUSLED_clean_sbu_0, # of connection points: 3
#     Node 5, Type 0, BuildingBlock: WUSLED_clean_sbu_0, # of connection points: 3
#     Node 6, Type 0, BuildingBlock: WUSLED_clean_sbu_0, # of connection points: 3
#     Node 7, Type 0, BuildingBlock: WUSLED_clean_sbu_0, # of connection points: 3
#     Node 8, Type 0, BuildingBlock: WUSLED_clean_sbu_0, # of connection points: 3
#     Node 9, Type 0, BuildingBlock: WUSLED_clean_sbu_0, # of connection points: 3
#     Node 10, Type 0, BuildingBlock: WUSLED_clean_sbu_0, # of connection points: 3
#     Node 11, Type 0, BuildingBlock: WUSLED_clean_sbu_0, # of connection points: 3
#     Node 12, Type 0, BuildingBlock: WUSLED_clean_sbu_0, # of connection points: 3
#     Node 13, Type 0, BuildingBlock: WUSLED_clean_sbu_0, # of connection points: 3
#     Node 14, Type 0, BuildingBlock: WUSLED_clean_sbu_0, # of connection points: 3
#     Node 15, Type 0, BuildingBlock: WUSLED_clean_sbu_0, # of connection points: 3
#     Node 16, Type 0, BuildingBlock: WUSLED_clean_sbu_0, # of connection points: 3
#     Node 17, Type 0, BuildingBlock: WUSLED_clean_sbu_0, # of connection points: 3
#     Node 18, Type 1, BuildingBlock: KUMBOL_clean_sbu_0, # of connection points: 6
#     Node 19, Type 1, BuildingBlock: KUMBOL_clean_sbu_0, # of connection points: 6
#     Node 20, Type 1, BuildingBlock: KUMBOL_clean_sbu_0, # of connection points: 6
#     Node 21, Type 1, BuildingBlock: KUMBOL_clean_sbu_0, # of connection points: 6
#     Node 22, Type 1, BuildingBlock: KUMBOL_clean_sbu_0, # of connection points: 6
#     Node 23, Type 1, BuildingBlock: KUMBOL_clean_sbu_0, # of connection points: 6
#     Node 24, Type 1, BuildingBlock: KUMBOL_clean_sbu_0, # of connection points: 6
#     Node 25, Type 1, BuildingBlock: KUMBOL_clean_sbu_0, # of connection points: 6
#     Node 26, Type 1, BuildingBlock: KUMBOL_clean_sbu_0, # of connection points: 6
#     Edge 27, Type (0, 1), BuildingBlock: XIVTED_clean_linker_0, # of connection points: 2
#     Edge 28, Type (0, 1), BuildingBlock: XIVTED_clean_linker_0, # of connection points: 2
#     Edge 29, Type (0, 1), BuildingBlock: XIVTED_clean_linker_0, # of connection points: 2
#     Edge 30, Type (0, 1), BuildingBlock: XIVTED_clean_linker_0, # of connection points: 2
#     Edge 31, Type (0, 1), BuildingBlock: XIVTED_clean_linker_0, # of connection points: 2
#     Edge 32, Type (0, 1), BuildingBlock: XIVTED_clean_linker_0, # of connection points: 2
#     Edge 33, Type (0, 1), BuildingBlock: XIVTED_clean_linker_0, # of connection points: 2
#     Edge 34, Type (0, 1), BuildingBlock: XIVTED_clean_linker_0, # of connection points: 2
#     Edge 35, Type (0, 1), BuildingBlock: XIVTED_clean_linker_0, # of connection points: 2
#     Edge 36, Type (0, 1), BuildingBlock: XIVTED_clean_linker_0, # of connection points: 2
#     Edge 37, Type (0, 1), BuildingBlock: XIVTED_clean_linker_0, # of connection points: 2
#     Edge 38, Type (0, 1), BuildingBlock: XIVTED_clean_linker_0, # of connection points: 2
#     Edge 39, Type (0, 1), BuildingBlock: XIVTED_clean_linker_0, # of connection points: 2
#     Edge 40, Type (0, 1), BuildingBlock: XIVTED_clean_linker_0, # of connection points: 2
#     Edge 41, Type (0, 1), BuildingBlock: XIVTED_clean_linker_0, # of connection points: 2
#     Edge 42, Type (0, 1), BuildingBlock: XIVTED_clean_linker_0, # of connection points: 2
#     Edge 43, Type (0, 1), BuildingBlock: XIVTED_clean_linker_0, # of connection points: 2
#     Edge 44, Type (0, 1), BuildingBlock: XIVTED_clean_linker_0, # of connection points: 2
#     Edge 45, Type (0, 1), BuildingBlock: XIVTED_clean_linker_0, # of connection points: 2
#     Edge 46, Type (0, 1), BuildingBlock: XIVTED_clean_linker_0, # of connection points: 2
#     Edge 47, Type (0, 1), BuildingBlock: XIVTED_clean_linker_0, # of connection points: 2
#     Edge 48, Type (0, 1), BuildingBlock: XIVTED_clean_linker_0, # of connection points: 2
#     Edge 49, Type (0, 1), BuildingBlock: XIVTED_clean_linker_0, # of connection points: 2
#     Edge 50, Type (0, 1), BuildingBlock: XIVTED_clean_linker_0, # of connection points: 2
#     Edge 51, Type (0, 1), BuildingBlock: XIVTED_clean_linker_0, # of connection points: 2
#     Edge 52, Type (0, 1), BuildingBlock: XIVTED_clean_linker_0, # of connection points: 2
#     Edge 53, Type (0, 1), BuildingBlock: XIVTED_clean_linker_0, # of connection points: 2
#     Edge 54, Type (0, 1), BuildingBlock: XIVTED_clean_linker_0, # of connection points: 2
#     Edge 55, Type (0, 1), BuildingBlock: XIVTED_clean_linker_0, # of connection points: 2
#     Edge 56, Type (0, 1), BuildingBlock: XIVTED_clean_linker_0, # of connection points: 2
#     Edge 57, Type (0, 1), BuildingBlock: XIVTED_clean_linker_0, # of connection points: 2
#     Edge 58, Type (0, 1), BuildingBlock: XIVTED_clean_linker_0, # of connection points: 2
#     Edge 59, Type (0, 1), BuildingBlock: XIVTED_clean_linker_0, # of connection points: 2
#     Edge 60, Type (0, 1), BuildingBlock: XIVTED_clean_linker_0, # of connection points: 2
#     Edge 61, Type (0, 1), BuildingBlock: XIVTED_clean_linker_0, # of connection points: 2
#     Edge 62, Type (0, 1), BuildingBlock: XIVTED_clean_linker_0, # of connection points: 2
#     Edge 63, Type (0, 1), BuildingBlock: XIVTED_clean_linker_0, # of connection points: 2
#     Edge 64, Type (0, 1), BuildingBlock: XIVTED_clean_linker_0, # of connection points: 2
#     Edge 65, Type (0, 1), BuildingBlock: XIVTED_clean_linker_0, # of connection points: 2
#     Edge 66, Type (0, 1), BuildingBlock: XIVTED_clean_linker_0, # of connection points: 2
#     Edge 67, Type (0, 1), BuildingBlock: XIVTED_clean_linker_0, # of connection points: 2
#     Edge 68, Type (0, 1), BuildingBlock: XIVTED_clean_linker_0, # of connection points: 2
#     Edge 69, Type (0, 1), BuildingBlock: XIVTED_clean_linker_0, # of connection points: 2
#     Edge 70, Type (0, 1), BuildingBlock: XIVTED_clean_linker_0, # of connection points: 2
#     Edge 71, Type (0, 1), BuildingBlock: XIVTED_clean_linker_0, # of connection points: 2
#     Edge 72, Type (0, 1), BuildingBlock: XIVTED_clean_linker_0, # of connection points: 2
#     Edge 73, Type (0, 1), BuildingBlock: XIVTED_clean_linker_0, # of connection points: 2
#     Edge 74, Type (0, 1), BuildingBlock: XIVTED_clean_linker_0, # of connection points: 2
#     Edge 75, Type (0, 1), BuildingBlock: XIVTED_clean_linker_0, # of connection points: 2
#     Edge 76, Type (0, 1), BuildingBlock: XIVTED_clean_linker_0, # of connection points: 2
#     Edge 77, Type (0, 1), BuildingBlock: XIVTED_clean_linker_0, # of connection points: 2
#     Edge 78, Type (0, 1), BuildingBlock: XIVTED_clean_linker_0, # of connection points: 2
#     Edge 79, Type (0, 1), BuildingBlock: XIVTED_clean_linker_0, # of connection points: 2
#     Edge 80, Type (0, 1), BuildingBlock: XIVTED_clean_linker_0, # of connection points: 2
# Relax obj value: 0.009
# Max RMSD: 0.092
# Mean RMSD: 0.060
data_MOF--net-eea--node1-WUSLED_clean_sbu_0--node2-KUMBOL_clean_sbu_0--edge1-XIVTED_clean_linker_0
_symmetry_space_group_name_H-M    P1
_symmetry_Int_Tables_number       1
_symmetry_cell_setting            triclinic
loop_
_symmetry_equiv_pos_as_xyz
'x, y, z'
_cell_length_a     66.909115
_cell_length_b     69.114566
_cell_length_c     91.291453
_cell_angle_alpha  89.799425
_cell_angle_beta   90.14153
_cell_angle_gamma 119.87569
loop_
_atom_site_label
_atom_site_type_symbol
_atom_site_fract_x
_atom_site_fract_y
_atom_site_fract_z
_atom_type_partial_charge
C0 C 0.22846 0.14901 0.40537 0.0
C1 C 0.2308 0.16559 0.4152 0.0
C2 C 0.22016 0.18341 0.39592 0.0
C3 C 0.2267 0.18266 0.41051 0.0
C4 C 0.21812 0.16682 0.38613 0.0
C5 C 0.22221 0.14982 0.39083 0.0
U6 U 0.24771 0.11967 0.43328 0.0
O7 O 0.23141 0.08401 0.43893 0.0
O8 O 0.26613 0.10118 0.42941 0.0
C9 C 0.24865 0.08208 0.43377 0.0
C10 C 0.23215 0.1306 0.41004 0.0
C11 C 0.24227 0.06258 0.42433 0.0
C12 C 0.23169 0.04365 0.40073 0.0
C13 C 0.23817 0.0628 0.40923 0.0
C14 C 0.23351 0.02412 0.42231 0.0
C15 C 0.22903 0.02398 0.40722 0.0
C16 C 0.24 0.04317 0.43074 0.0
C17 C 0.27123 0.1465 0.47094 0.0
C18 C 0.28246 0.12943 0.49024 0.0
C19 C 0.28641 0.16584 0.49401 0.0
C20 C 0.27765 0.16504 0.47996 0.0
C21 C 0.28893 0.14804 0.49938 0.0
C22 C 0.27367 0.12866 0.47615 0.0
C23 C 0.26193 0.14614 0.45622 0.0
O24 O 0.25374 0.1356 0.41156 0.0
O25 O 0.21879 0.11791 0.42067 0.0
O26 O 0.2403 0.13084 0.45407 0.0
O27 O 0.27537 0.14817 0.44515 0.0
H28 H 0.23562 0.16523 0.42649 0.0
H29 H 0.22824 0.19501 0.41838 0.0
H30 H 0.21353 0.16705 0.37478 0.0
H31 H 0.22043 0.13722 0.38307 0.0
H32 H 0.22828 0.04409 0.38916 0.0
H33 H 0.23981 0.07767 0.40408 0.0
H34 H 0.23209 0.00947 0.42765 0.0
H35 H 0.24319 0.04269 0.44234 0.0
H36 H 0.28392 0.11532 0.49404 0.0
H37 H 0.29155 0.18059 0.50059 0.0
H38 H 0.27595 0.179 0.47611 0.0
H39 H 0.26872 0.11415 0.46935 0.0
C40 C 0.95362 0.1548 0.409 0.0
C41 C 0.9754 0.15786 0.41283 0.0
C42 C 0.99468 0.19139 0.3976 0.0
C43 C 0.99564 0.17591 0.40723 0.0
C44 C 0.97289 0.18834 0.39381 0.0
C45 C 0.95267 0.17027 0.39937 0.0
U46 U 0.90527 0.12096 0.43735 0.0
O47 O 0.86785 0.10015 0.43395 0.0
O48 O 0.88757 0.08499 0.4425 0.0
C49 C 0.86738 0.08172 0.43814 0.0
C50 C 0.93192 0.13482 0.414 0.0
C51 C 0.85314 0.06156 0.4293 0.0
C52 C 0.84226 0.04107 0.40626 0.0
C53 C 0.85696 0.06038 0.41429 0.0
C54 C 0.82011 0.02402 0.42822 0.0
C55 C 0.82345 0.02274 0.41312 0.0
C56 C 0.83477 0.04318 0.43618 0.0
C57 C 0.90753 0.1467 0.47529 0.0
C58 C 0.87746 0.13011 0.49384 0.0
C59 C 0.91256 0.16472 0.49893 0.0
C60 C 0.92083 0.16417 0.48496 0.0
C61 C 0.89073 0.14775 0.50359 0.0
C62 C 0.8858 0.12958 0.47983 0.0
C63 C 0.91658 0.147 0.4605 0.0
O64 O 0.93368 0.12242 0.42432 0.0
O65 O 0.91382 0.13733 0.4157 0.0
O66 O 0.90446 0.14803 0.44948 0.0
O67 O 0.92408 0.13294 0.45822 0.0
H68 H 0.97688 0.14618 0.42007 0.0
H69 H 0.01208 0.17781 0.41053 0.0
H70 H 0.97139 0.19967 0.38625 0.0
H71 H 0.93621 0.16822 0.39595 0.0
H72 H 0.84529 0.0407 0.39465 0.0
H73 H 0.87107 0.07442 0.40877 0.0
H74 H 0.80614 0.01014 0.43394 0.0
H75 H 0.83158 0.0437 0.44777 0.0
H76 H 0.8607 0.11662 0.49707 0.0
H77 H 0.92314 0.17875 0.50597 0.0
H78 H 0.93761 0.17759 0.48164 0.0
H79 H 0.87527 0.1159 0.47252 0.0
C80 C 0.86603 0.7959 0.40802 0.0
C81 C 0.84462 0.78437 0.41511 0.0
C82 C 0.82837 0.80042 0.39819 0.0
C83 C 0.82595 0.78657 0.41022 0.0
C84 C 0.84999 0.8121 0.39126 0.0
C85 C 0.86857 0.80982 0.39612 0.0
U86 U 0.89933 0.78021 0.43578 0.0
O87 O 0.9193 0.76327 0.43193 0.0
O88 O 0.93666 0.79753 0.44036 0.0
C89 C 0.93904 0.781 0.43531 0.0
C90 C 0.88582 0.79342 0.4126 0.0
C91 C 0.95868 0.78721 0.42524 0.0
C92 C 0.97464 0.78463 0.4018 0.0
C93 C 0.95555 0.77958 0.41069 0.0
C94 C 1.00023 0.80538 0.42173 0.0
C95 C 0.99725 0.7975 0.40724 0.0
C96 C 0.98119 0.80026 0.4306 0.0
C97 C 0.87317 0.75835 0.47429 0.0
C98 C 0.88315 0.73783 0.4918 0.0
C99 C 0.85887 0.75276 0.49932 0.0
C100 C 0.86043 0.76148 0.48525 0.0
C101 C 0.87003 0.74062 0.50279 0.0
C102 C 0.88475 0.74664 0.47769 0.0
C103 C 0.87325 0.76674 0.45936 0.0
O104 O 0.89906 0.80711 0.42287 0.0
O105 O 0.8817 0.77288 0.41445 0.0
O106 O 0.87108 0.75346 0.44844 0.0
O107 O 0.88852 0.78774 0.4568 0.0
H108 H 0.84231 0.77361 0.42438 0.0
H109 H 0.80967 0.77757 0.41595 0.0
H110 H 0.85246 0.82268 0.38187 0.0
H111 H 0.88495 0.81883 0.39048 0.0
H112 H 0.97169 0.77848 0.39066 0.0
H113 H 0.93838 0.76953 0.40622 0.0
H114 H 0.01731 0.81502 0.42639 0.0
H115 H 0.98408 0.8062 0.4418 0.0
H116 H 0.89221 0.72883 0.4941 0.0
H117 H 0.84834 0.755 0.50737 0.0
H118 H 0.85129 0.7704 0.48285 0.0
H119 H 0.89479 0.7441 0.46942 0.0
C120 C 0.07192 0.20706 0.63105 0.0
C121 C 0.06212 0.21891 0.62466 0.0
C122 C 0.02981 0.20184 0.64184 0.0
C123 C 0.0413 0.21636 0.63001 0.0
C124 C 0.03957 0.18973 0.64798 0.0
C125 C 0.06039 0.19235 0.64265 0.0
U126 U 0.12156 0.22517 0.60313 0.0
O127 O 0.15905 0.24412 0.60705 0.0
O128 O 0.14299 0.20993 0.59855 0.0
C129 C 0.16194 0.22729 0.60343 0.0
C130 C 0.09451 0.21037 0.62625 0.0
C131 C 0.17678 0.2228 0.61327 0.0
C132 C 0.18264 0.2009 0.63204 0.0
C133 C 0.16778 0.20502 0.62335 0.0
C134 C 0.21554 0.23242 0.62083 0.0
C135 C 0.20676 0.21457 0.63088 0.0
C136 C 0.20074 0.23646 0.61216 0.0
C137 C 0.11735 0.24865 0.56528 0.0
C138 C 0.14288 0.25658 0.54435 0.0
C139 C 0.11564 0.26997 0.54453 0.0
C140 C 0.10775 0.26021 0.55829 0.0
C141 C 0.1334 0.26841 0.53737 0.0
C142 C 0.13499 0.24685 0.55821 0.0
C143 C 0.10856 0.23879 0.57988 0.0
O144 O 0.09416 0.19727 0.61572 0.0
O145 O 0.11103 0.23119 0.62465 0.0
O146 O 0.11911 0.25166 0.59116 0.0
O147 O 0.10359 0.21801 0.58188 0.0
H148 H 0.07068 0.2303 0.61564 0.0
H149 H 0.03416 0.22571 0.62485 0.0
H150 H 0.03143 0.17861 0.65718 0.0
H151 H 0.0677 0.1831 0.64777 0.0
H152 H 0.17525 0.18713 0.63974 0.0
H153 H 0.14932 0.19426 0.62444 0.0
H154 H 0.23394 0.24307 0.61938 0.0
H155 H 0.20807 0.25018 0.60441 0.0
H156 H 0.15671 0.25521 0.53923 0.0
H157 H 0.10766 0.2786 0.53943 0.0
H158 H 0.09406 0.26171 0.56352 0.0
H159 H 0.14271 0.23805 0.56343 0.0
C160 C 0.80371 0.86129 0.63065 0.0
C161 C 0.80083 0.84412 0.62118 0.0
C162 C 0.81023 0.82618 0.64105 0.0
C163 C 0.80406 0.82672 0.62633 0.0
C164 C 0.81283 0.84338 0.65047 0.0
C165 C 0.80962 0.86072 0.64531 0.0
U166 U 0.7852 0.89018 0.60194 0.0
O167 O 0.76732 0.9093 0.60504 0.0
O168 O 0.80206 0.92565 0.59557 0.0
C169 C 0.78493 0.92806 0.60037 0.0
C170 C 0.80077 0.87997 0.6255 0.0
C171 C 0.79126 0.94803 0.60932 0.0
C172 C 0.80154 0.96791 0.63256 0.0
C173 C 0.79648 0.94889 0.6243 0.0
C174 C 0.79654 0.98538 0.6109 0.0
C175 C 0.80137 0.98631 0.62598 0.0
C176 C 0.79153 0.96646 0.60269 0.0
C177 C 0.75919 0.86076 0.56526 0.0
C178 C 0.75162 0.87783 0.54416 0.0
C179 C 0.73664 0.83791 0.54475 0.0
C180 C 0.74668 0.83988 0.55852 0.0
C181 C 0.73891 0.85683 0.53739 0.0
C182 C 0.76161 0.87977 0.55801 0.0
C183 C 0.76942 0.86216 0.57983 0.0
O184 O 0.81404 0.89174 0.61455 0.0
O185 O 0.77938 0.87565 0.6241 0.0
O186 O 0.75668 0.86106 0.59108 0.0
O187 O 0.79125 0.87737 0.58138 0.0
H188 H 0.79625 0.84427 0.60981 0.0
H189 H 0.80212 0.81391 0.61872 0.0
H190 H 0.81715 0.84336 0.66191 0.0
H191 H 0.81178 0.87376 0.65281 0.0
H192 H 0.80506 0.96799 0.64415 0.0
H193 H 0.79636 0.93479 0.62961 0.0
H194 H 0.79669 0.99935 0.60538 0.0
H195 H 0.78766 0.96616 0.59113 0.0
H196 H 0.75352 0.8927 0.53888 0.0
H197 H 0.72728 0.82153 0.5398 0.0
H198 H 0.74467 0.82503 0.56392 0.0
H199 H 0.77113 0.89605 0.56307 0.0
C200 C 0.0686 0.85275 0.63009 0.0
C201 C 0.05899 0.83173 0.62339 0.0
C202 C 0.02716 0.81638 0.64099 0.0
C203 C 0.03849 0.81372 0.6288 0.0
C204 C 0.03684 0.8376 0.64751 0.0
C205 C 0.0573 0.85553 0.64212 0.0
U206 U 0.11776 0.88493 0.60196 0.0
O207 O 0.13694 0.92099 0.59725 0.0
O208 O 0.15521 0.90447 0.60597 0.0
C209 C 0.15648 0.9235 0.60238 0.0
C210 C 0.09067 0.87187 0.62511 0.0
C211 C 0.17029 0.94283 0.6122 0.0
C212 C 0.17805 0.97799 0.62334 0.0
C213 C 0.16344 0.95856 0.61547 0.0
C214 C 0.20644 0.96617 0.62512 0.0
C215 C 0.19993 0.98225 0.62807 0.0
C216 C 0.19187 0.9468 0.61725 0.0
C217 C 0.11554 0.85958 0.56382 0.0
C218 C 0.14568 0.87612 0.54532 0.0
C219 C 0.11078 0.8413 0.5403 0.0
C220 C 0.1024 0.84194 0.55422 0.0
C221 C 0.13258 0.85833 0.53563 0.0
C222 C 0.13723 0.87674 0.55927 0.0
C223 C 0.10629 0.85942 0.57853 0.0
O224 O 0.10791 0.86806 0.62338 0.0
O225 O 0.0894 0.88431 0.61464 0.0
O226 O 0.09961 0.87411 0.5808 0.0
O227 O 0.11773 0.85756 0.58966 0.0
H228 H 0.06739 0.82922 0.61405 0.0
H229 H 0.03143 0.79775 0.62335 0.0
H230 H 0.02888 0.8403 0.65701 0.0
H231 H 0.06448 0.87159 0.64749 0.0
H232 H 0.1725 0.99005 0.62524 0.0
H233 H 0.14704 0.95621 0.61164 0.0
H234 H 0.22294 0.96861 0.62877 0.0
H235 H 0.19776 0.93513 0.61481 0.0
H236 H 0.16241 0.88967 0.54208 0.0
H237 H 0.10033 0.82715 0.53332 0.0
H238 H 0.08565 0.82848 0.55754 0.0
H239 H 0.14763 0.89055 0.56653 0.0
C240 C 0.88806 0.48017 0.74312 0.0
C241 C 0.89041 0.49693 0.75279 0.0
C242 C 0.88106 0.51514 0.73309 0.0
C243 C 0.88695 0.51427 0.74782 0.0
C244 C 0.87894 0.49834 0.72347 0.0
C245 C 0.8824 0.48107 0.72845 0.0
U246 U 0.90592 0.45016 0.77151 0.0
O247 O 0.88954 0.41436 0.7767 0.0
O248 O 0.9248 0.43198 0.76803 0.0
C249 C 0.90699 0.41264 0.77166 0.0
C250 C 0.89134 0.4616 0.74802 0.0
C251 C 0.90158 0.39361 0.76178 0.0
C252 C 0.87412 0.3599 0.74879 0.0
C253 C 0.87897 0.37884 0.75702 0.0
C254 C 0.91442 0.37041 0.74959 0.0
C255 C 0.89174 0.35525 0.74514 0.0
C256 C 0.91923 0.38927 0.75785 0.0
C257 C 0.92896 0.47689 0.8093 0.0
C258 C 0.94192 0.46084 0.82829 0.0
C259 C 0.94352 0.49617 0.83245 0.0
C260 C 0.93437 0.49504 0.81848 0.0
C261 C 0.94746 0.47911 0.83756 0.0
C262 C 0.93273 0.45974 0.81428 0.0
C263 C 0.91967 0.47642 0.79456 0.0
O264 O 0.91281 0.46639 0.74986 0.0
O265 O 0.87756 0.44892 0.7585 0.0
O266 O 0.89811 0.46099 0.79233 0.0
O267 O 0.93327 0.47862 0.78355 0.0
H268 H 0.89479 0.49651 0.76418 0.0
H269 H 0.88851 0.52678 0.75557 0.0
H270 H 0.87485 0.49864 0.71201 0.0
H271 H 0.88064 0.46835 0.7208 0.0
H272 H 0.85642 0.34853 0.7457 0.0
H273 H 0.8649 0.38161 0.75991 0.0
H274 H 0.92852 0.36766 0.74678 0.0
H275 H 0.9368 0.4003 0.76139 0.0
H276 H 0.94449 0.44729 0.83189 0.0
H277 H 0.94791 0.51067 0.83913 0.0
H278 H 0.93166 0.50849 0.8148 0.0
H279 H 0.92862 0.44555 0.80733 0.0
C280 C 0.61747 0.48713 0.74191 0.0
C281 C 0.63922 0.49 0.74563 0.0
C282 C 0.65859 0.5239 0.73074 0.0
C283 C 0.65949 0.50815 0.74014 0.0
C284 C 0.63684 0.52104 0.72707 0.0
C285 C 0.61658 0.50288 0.73253 0.0
U286 U 0.56897 0.45295 0.77007 0.0
O287 O 0.53157 0.43214 0.76655 0.0
O288 O 0.55127 0.41694 0.77505 0.0
C289 C 0.53112 0.41366 0.77061 0.0
C290 C 0.59575 0.46707 0.74679 0.0
C291 C 0.51717 0.39371 0.76153 0.0
C292 C 0.50733 0.37371 0.73831 0.0
C293 C 0.52166 0.39284 0.74659 0.0
C294 C 0.48417 0.35622 0.75984 0.0
C295 C 0.48822 0.35523 0.74481 0.0
C296 C 0.49846 0.37521 0.76806 0.0
C297 C 0.5712 0.47859 0.80809 0.0
C298 C 0.54149 0.46175 0.82684 0.0
C299 C 0.57601 0.49705 0.83154 0.0
C300 C 0.58424 0.49644 0.81757 0.0
C301 C 0.55449 0.47977 0.83639 0.0
C302 C 0.54978 0.46116 0.81282 0.0
C303 C 0.58019 0.47884 0.79329 0.0
O304 O 0.59747 0.45457 0.75706 0.0
O305 O 0.57762 0.46952 0.74848 0.0
O306 O 0.56807 0.47991 0.78229 0.0
O307 O 0.58765 0.46475 0.79099 0.0
H308 H 0.64065 0.47811 0.75268 0.0
H309 H 0.6759 0.50989 0.74335 0.0
H310 H 0.63539 0.53259 0.7197 0.0
H311 H 0.60016 0.50098 0.72919 0.0
H312 H 0.51091 0.37359 0.72676 0.0
H313 H 0.53604 0.40698 0.74134 0.0
H314 H 0.46995 0.34222 0.76532 0.0
H315 H 0.49475 0.3755 0.77959 0.0
H316 H 0.52498 0.44802 0.83023 0.0
H317 H 0.58636 0.51137 0.83842 0.0
H318 H 0.60077 0.5101 0.81409 0.0
H319 H 0.53946 0.44719 0.80567 0.0
C320 C 0.53246 0.13328 0.7414 0.0
C321 C 0.51057 0.1208 0.74779 0.0
C322 C 0.49505 0.13799 0.7312 0.0
C323 C 0.49203 0.12311 0.74272 0.0
C324 C 0.51715 0.15063 0.72502 0.0
C325 C 0.5356 0.14827 0.73007 0.0
U326 U 0.56634 0.11653 0.76836 0.0
O327 O 0.58586 0.09945 0.76347 0.0
O328 O 0.60392 0.13357 0.7721 0.0
C329 C 0.60588 0.11705 0.76656 0.0
C330 C 0.55213 0.1305 0.74589 0.0
C331 C 0.62505 0.12312 0.75602 0.0
C332 C 0.64085 0.11524 0.73423 0.0
C333 C 0.62196 0.11084 0.74312 0.0
C334 C 0.6662 0.14476 0.75066 0.0
C335 C 0.66328 0.13204 0.73801 0.0
C336 C 0.64734 0.14029 0.75957 0.0
C337 C 0.54168 0.09242 0.80701 0.0
C338 C 0.52879 0.06009 0.82313 0.0
C339 C 0.54905 0.09723 0.83336 0.0
C340 C 0.55093 0.10633 0.81933 0.0
C341 C 0.53773 0.07396 0.83549 0.0
C342 C 0.53067 0.06917 0.80912 0.0
C343 C 0.54134 0.10188 0.79237 0.0
O344 O 0.56548 0.14381 0.75627 0.0
O345 O 0.54796 0.10988 0.74733 0.0
O346 O 0.53835 0.08926 0.78089 0.0
O347 O 0.55642 0.12303 0.79002 0.0
H348 H 0.50777 0.10916 0.75659 0.0
H349 H 0.47536 0.11332 0.74788 0.0
H350 H 0.52014 0.162 0.71603 0.0
H351 H 0.55233 0.15799 0.72495 0.0
H352 H 0.6379 0.10528 0.72449 0.0
H353 H 0.60506 0.09745 0.74003 0.0
H354 H 0.68321 0.15762 0.75403 0.0
H355 H 0.65033 0.14987 0.76951 0.0
H356 H 0.5196 0.04211 0.82431 0.0
H357 H 0.55638 0.10848 0.84256 0.0
H358 H 0.55926 0.12429 0.81818 0.0
H359 H 0.52292 0.05789 0.79998 0.0
C360 C 0.74038 0.54327 0.96494 0.0
C361 C 0.73052 0.555 0.95844 0.0
C362 C 0.69816 0.53797 0.97558 0.0
C363 C 0.70964 0.5524 0.96372 0.0
C364 C 0.70799 0.52599 0.98184 0.0
C365 C 0.72886 0.52865 0.97658 0.0
U366 U 0.78973 0.56002 0.93691 0.0
O367 O 0.82726 0.57918 0.94061 0.0
O368 O 0.81109 0.54451 0.93301 0.0
C369 C 0.83008 0.56212 0.93757 0.0
C370 C 0.76299 0.54656 0.9602 0.0
C371 C 0.84498 0.55818 0.94773 0.0
C372 C 0.85107 0.53647 0.96654 0.0
C373 C 0.83612 0.54014 0.95761 0.0
C374 C 0.88375 0.56897 0.95598 0.0
C375 C 0.87512 0.55085 0.96582 0.0
C376 C 0.86887 0.57256 0.94708 0.0
C377 C 0.78532 0.58062 0.89824 0.0
C378 C 0.81477 0.59233 0.87934 0.0
C379 C 0.78039 0.59471 0.87484 0.0
C380 C 0.7723 0.58613 0.88885 0.0
C381 C 0.80177 0.59799 0.86986 0.0
C382 C 0.80662 0.58373 0.89339 0.0
C383 C 0.77641 0.57199 0.91304 0.0
O384 O 0.76261 0.53285 0.95013 0.0
O385 O 0.77933 0.56733 0.95808 0.0
O386 O 0.78717 0.58564 0.92395 0.0
O387 O 0.77132 0.55135 0.91578 0.0
H388 H 0.73906 0.5663 0.94938 0.0
H389 H 0.70245 0.56165 0.95847 0.0
H390 H 0.69986 0.51495 0.99107 0.0
H391 H 0.73621 0.5195 0.98179 0.0
H392 H 0.84379 0.52247 0.97406 0.0
H393 H 0.81772 0.52881 0.95836 0.0
H394 H 0.90212 0.58017 0.95489 0.0
H395 H 0.8761 0.58648 0.93948 0.0
H396 H 0.83118 0.59438 0.87586 0.0
H397 H 0.77004 0.5992 0.86803 0.0
H398 H 0.75586 0.58395 0.89242 0.0
H399 H 0.81694 0.57955 0.90048 0.0
C400 C 0.46942 0.1935 0.9608 0.0
C401 C 0.45128 0.17125 0.961 0.0
C402 C 0.47679 0.15891 0.97135 0.0
C403 C 0.45493 0.15417 0.96623 0.0
C404 C 0.49498 0.18115 0.9708 0.0
C405 C 0.4913 0.19821 0.96565 0.0
U406 U 0.45003 0.2244 0.93392 0.0
O407 O 0.43105 0.24218 0.93849 0.0
O408 O 0.46598 0.26035 0.92932 0.0
C409 C 0.44859 0.2617 0.93486 0.0
C410 C 0.46574 0.21219 0.95645 0.0
C411 C 0.45413 0.28045 0.94501 0.0
C412 C 0.48182 0.31459 0.9575 0.0
C413 C 0.47693 0.29574 0.94916 0.0
C414 C 0.44121 0.30291 0.95807 0.0
C415 C 0.46405 0.31863 0.96185 0.0
C416 C 0.43635 0.28415 0.94971 0.0
C417 C 0.42565 0.19954 0.89582 0.0
C418 C 0.42785 0.19846 0.86921 0.0
C419 C 0.39454 0.19712 0.88054 0.0
C420 C 0.40415 0.19841 0.8944 0.0
C421 C 0.40616 0.19694 0.86775 0.0
C422 C 0.43741 0.19965 0.88307 0.0
C423 C 0.43551 0.19933 0.91036 0.0
O424 O 0.47913 0.2254 0.94601 0.0
O425 O 0.44426 0.20774 0.9553 0.0
O426 O 0.42246 0.19618 0.92188 0.0
O427 O 0.4572 0.21454 0.91249 0.0
H428 H 0.43417 0.16704 0.95736 0.0
H429 H 0.44043 0.13733 0.96662 0.0
H430 H 0.51214 0.18544 0.97438 0.0
H431 H 0.50556 0.21522 0.96563 0.0
H432 H 0.49963 0.3264 0.96008 0.0
H433 H 0.49109 0.29348 0.94567 0.0
H434 H 0.42702 0.30521 0.96143 0.0
H435 H 0.41863 0.27272 0.94664 0.0
H436 H 0.43751 0.19874 0.85964 0.0
H437 H 0.37768 0.19567 0.8799 0.0
H438 H 0.39453 0.19817 0.90399 0.0
H439 H 0.45395 0.20043 0.88382 0.0
C440 C 0.73649 0.18836 0.96425 0.0
C441 C 0.72718 0.16734 0.95758 0.0
C442 C 0.69481 0.15183 0.97479 0.0
C443 C 0.70656 0.14926 0.9628 0.0
C444 C 0.70418 0.17305 0.98128 0.0
C445 C 0.72475 0.19105 0.97607 0.0
U446 U 0.7863 0.22106 0.93659 0.0
O447 O 0.80565 0.25722 0.93221 0.0
O448 O 0.82367 0.24044 0.94091 0.0
C449 C 0.82509 0.25957 0.93742 0.0
C450 C 0.7587 0.20755 0.95951 0.0
C451 C 0.8389 0.27879 0.94734 0.0
C452 C 0.84722 0.31431 0.9582 0.0
C453 C 0.83249 0.29494 0.95031 0.0
C454 C 0.87483 0.30162 0.96061 0.0
C455 C 0.8688 0.31812 0.96325 0.0
C456 C 0.86015 0.2823 0.95273 0.0
C457 C 0.78456 0.19612 0.89831 0.0
C458 C 0.81486 0.2126 0.87989 0.0
C459 C 0.77993 0.17784 0.87479 0.0
C460 C 0.77146 0.17851 0.88867 0.0
C461 C 0.80179 0.19483 0.87017 0.0
C462 C 0.80632 0.21324 0.89382 0.0
C463 C 0.7752 0.19592 0.91299 0.0
O464 O 0.77596 0.20376 0.95786 0.0
O465 O 0.75769 0.22023 0.9491 0.0
O466 O 0.76859 0.21066 0.91526 0.0
O467 O 0.78644 0.19387 0.92416 0.0
H468 H 0.73591 0.16489 0.9484 0.0
H469 H 0.69976 0.13329 0.95738 0.0
H470 H 0.6959 0.17569 0.99062 0.0
H471 H 0.73168 0.2071 0.98142 0.0
H472 H 0.84203 0.32669 0.95986 0.0
H473 H 0.81638 0.29296 0.9462 0.0
H474 H 0.89109 0.30371 0.96451 0.0
H475 H 0.86572 0.27033 0.95053 0.0
H476 H 0.83163 0.22611 0.87669 0.0
H477 H 0.76949 0.16371 0.8678 0.0
H478 H 0.75466 0.16508 0.89195 0.0
H479 H 0.8167 0.22702 0.90109 0.0
C480 C 0.55485 0.81467 0.07631 0.0
C481 C 0.5571 0.8315 0.08587 0.0
C482 C 0.54745 0.84926 0.06602 0.0
C483 C 0.55344 0.84866 0.08077 0.0
C484 C 0.54546 0.83239 0.05652 0.0
C485 C 0.54912 0.8153 0.06162 0.0
U486 U 0.5731 0.78512 0.10484 0.0
O487 O 0.5569 0.74936 0.11013 0.0
O488 O 0.59211 0.76708 0.10138 0.0
C489 C 0.57438 0.74771 0.10506 0.0
C490 C 0.5583 0.79625 0.08133 0.0
C491 C 0.56899 0.72871 0.09518 0.0
C492 C 0.54157 0.69498 0.0822 0.0
C493 C 0.54637 0.71387 0.09047 0.0
C494 C 0.58193 0.7057 0.08285 0.0
C495 C 0.55924 0.69046 0.07846 0.0
C496 C 0.5867 0.7245 0.09115 0.0
C497 C 0.59632 0.81156 0.14253 0.0
C498 C 0.6085 0.79456 0.16132 0.0
C499 C 0.61207 0.83072 0.16557 0.0
C500 C 0.60277 0.82995 0.1517 0.0
C501 C 0.61511 0.81307 0.17058 0.0
C502 C 0.59918 0.79382 0.14742 0.0
C503 C 0.58693 0.81139 0.12788 0.0
O504 O 0.57981 0.80119 0.08315 0.0
O505 O 0.5446 0.78366 0.09187 0.0
O506 O 0.56535 0.79598 0.12567 0.0
O507 O 0.60044 0.8137 0.11679 0.0
H508 H 0.56154 0.83128 0.09727 0.0
H509 H 0.55492 0.86124 0.08843 0.0
H510 H 0.5413 0.83249 0.04505 0.0
H511 H 0.54744 0.80252 0.05406 0.0
H512 H 0.52386 0.68354 0.07915 0.0
H513 H 0.53227 0.71655 0.09343 0.0
H514 H 0.59607 0.70305 0.07997 0.0
H515 H 0.60428 0.7356 0.09465 0.0
H516 H 0.61033 0.78055 0.16486 0.0
H517 H 0.61729 0.84539 0.17225 0.0
H518 H 0.60078 0.84384 0.14808 0.0
H519 H 0.59425 0.77944 0.14048 0.0
C520 C 0.28556 0.82333 0.07764 0.0
C521 C 0.29486 0.84457 0.08398 0.0
C522 C 0.32706 0.85958 0.06664 0.0
C523 C 0.31538 0.86252 0.07853 0.0
C524 C 0.31773 0.83814 0.06051 0.0
C525 C 0.29725 0.82027 0.06594 0.0
U526 U 0.2357 0.79139 0.10546 0.0
O527 O 0.19836 0.77191 0.10105 0.0
O528 O 0.2163 0.75531 0.11014 0.0
C529 C 0.19693 0.75284 0.10472 0.0
C530 C 0.26338 0.80428 0.08257 0.0
C531 C 0.18338 0.73355 0.09477 0.0
C532 C 0.17582 0.69839 0.08367 0.0
C533 C 0.19022 0.71774 0.0917 0.0
C534 C 0.14768 0.71044 0.08133 0.0
C535 C 0.15415 0.69428 0.07857 0.0
C536 C 0.16203 0.72972 0.08936 0.0
C537 C 0.23822 0.81846 0.14337 0.0
C538 C 0.21229 0.80161 0.16413 0.0
C539 C 0.24167 0.8406 0.16492 0.0
C540 C 0.24905 0.83879 0.15092 0.0
C541 C 0.22323 0.82204 0.1718 0.0
C542 C 0.21972 0.79984 0.15005 0.0
C543 C 0.24689 0.81737 0.12867 0.0
O544 O 0.26441 0.79195 0.09322 0.0
O545 O 0.2461 0.8081 0.084 0.0
O546 O 0.23553 0.81899 0.11741 0.0
O547 O 0.25325 0.80236 0.12679 0.0
H548 H 0.28616 0.84732 0.09305 0.0
H549 H 0.32215 0.87867 0.08369 0.0
H550 H 0.32596 0.83521 0.05125 0.0
H551 H 0.29033 0.80404 0.06084 0.0
H552 H 0.18134 0.68629 0.08191 0.0
H553 H 0.20643 0.71997 0.09581 0.0
H554 H 0.13135 0.70813 0.07741 0.0
H555 H 0.15614 0.74144 0.09162 0.0
H556 H 0.19817 0.78689 0.16907 0.0
H557 H 0.25028 0.8567 0.17026 0.0
H558 H 0.26331 0.8534 0.14595 0.0
H559 H 0.21112 0.78395 0.14442 0.0
C560 C 0.20068 0.46867 0.07505 0.0
C561 C 0.17904 0.45658 0.08181 0.0
C562 C 0.16312 0.47345 0.06527 0.0
C563 C 0.16043 0.45893 0.07695 0.0
C564 C 0.18498 0.4857 0.05871 0.0
C565 C 0.2035 0.48331 0.06355 0.0
U566 U 0.23403 0.45102 0.10166 0.0
O567 O 0.25331 0.43377 0.0966 0.0
O568 O 0.27152 0.46763 0.10565 0.0
C569 C 0.27337 0.45117 0.09989 0.0
C570 C 0.22036 0.46583 0.07937 0.0
C571 C 0.29263 0.45737 0.0894 0.0
C572 C 0.3086 0.4497 0.06763 0.0
C573 C 0.28966 0.44517 0.07648 0.0
C574 C 0.3338 0.47916 0.08413 0.0
C575 C 0.33099 0.46652 0.07146 0.0
C576 C 0.31488 0.47457 0.09302 0.0
C577 C 0.20785 0.42547 0.13986 0.0
C578 C 0.19278 0.39233 0.15539 0.0
C579 C 0.2135 0.42891 0.1664 0.0
C580 C 0.21674 0.43874 0.15249 0.0
C581 C 0.20105 0.40556 0.16806 0.0
C582 C 0.19606 0.40213 0.14151 0.0
C583 C 0.20837 0.4357 0.12536 0.0
O584 O 0.23356 0.47878 0.08994 0.0
O585 O 0.21616 0.44517 0.08049 0.0
O586 O 0.20555 0.42349 0.11368 0.0
O587 O 0.2238 0.45686 0.12343 0.0
H588 H 0.1765 0.44523 0.09075 0.0
H589 H 0.14396 0.44945 0.08241 0.0
H590 H 0.18769 0.4968 0.04959 0.0
H591 H 0.22004 0.49273 0.05814 0.0
H592 H 0.30574 0.4398 0.05786 0.0
H593 H 0.2728 0.43176 0.07334 0.0
H594 H 0.35078 0.49204 0.08755 0.0
H595 H 0.31778 0.48408 0.10298 0.0
H596 H 0.18342 0.37429 0.15621 0.0
H597 H 0.21992 0.43963 0.17591 0.0
H598 H 0.22559 0.45677 0.15169 0.0
H599 H 0.18873 0.39133 0.1321 0.0
C600 C 0.407 0.87363 0.29776 0.0
C601 C 0.39668 0.88516 0.2916 0.0
C602 C 0.36393 0.86617 0.30832 0.0
C603 C 0.37535 0.88149 0.29686 0.0
C604 C 0.37441 0.85463 0.31434 0.0
C605 C 0.39567 0.85834 0.30911 0.0
U606 U 0.45764 0.8921 0.2702 0.0
O607 O 0.49487 0.91002 0.27483 0.0
O608 O 0.4784 0.87596 0.26615 0.0
C609 C 0.49723 0.89271 0.27166 0.0
C610 C 0.42977 0.8775 0.29294 0.0
C611 C 0.51051 0.88692 0.28214 0.0
C612 C 0.53536 0.89544 0.30358 0.0
C613 C 0.52099 0.89987 0.29468 0.0
C614 C 0.52864 0.86468 0.28785 0.0
C615 C 0.53963 0.87797 0.30017 0.0
C616 C 0.51436 0.86917 0.27893 0.0
C617 C 0.45619 0.91475 0.23152 0.0
C618 C 0.45173 0.91257 0.20494 0.0
C619 C 0.48494 0.94402 0.21585 0.0
C620 C 0.477 0.935 0.22983 0.0
C621 C 0.47232 0.93305 0.20319 0.0
C622 C 0.44376 0.90361 0.21891 0.0
C623 C 0.44637 0.90567 0.2462 0.0
O624 O 0.42971 0.86436 0.28255 0.0
O625 O 0.44608 0.8984 0.29129 0.0
O626 O 0.45635 0.91862 0.25757 0.0
O627 O 0.44027 0.88469 0.24868 0.0
H628 H 0.40511 0.89702 0.2828 0.0
H629 H 0.36769 0.89048 0.29183 0.0
H630 H 0.36638 0.84297 0.32329 0.0
H631 H 0.4034 0.84936 0.31406 0.0
H632 H 0.54333 0.90587 0.31306 0.0
H633 H 0.5185 0.91373 0.2975 0.0
H634 H 0.53176 0.8513 0.28475 0.0
H635 H 0.5068 0.85907 0.26925 0.0
H636 H 0.44169 0.90341 0.1955 0.0
H637 H 0.5007 0.95995 0.21502 0.0
H638 H 0.487 0.94412 0.23929 0.0
H639 H 0.42763 0.88802 0.21987 0.0
C640 C 0.13496 0.5259 0.29636 0.0
C641 C 0.11736 0.50349 0.29537 0.0
C642 C 0.1424 0.49112 0.30644 0.0
C643 C 0.12102 0.48632 0.30038 0.0
C644 C 0.16007 0.51358 0.30716 0.0
C645 C 0.15635 0.53074 0.30223 0.0
U646 U 0.11491 0.55509 0.26885 0.0
O647 O 0.09562 0.57273 0.27257 0.0
O648 O 0.13043 0.59072 0.26324 0.0
C649 C 0.11271 0.59204 0.26819 0.0
C650 C 0.13127 0.5445 0.29182 0.0
C651 C 0.11805 0.61134 0.27756 0.0
C652 C 0.13272 0.6326 0.30009 0.0
C653 C 0.12821 0.6141 0.29143 0.0
C654 C 0.11699 0.64565 0.28106 0.0
C655 C 0.12702 0.64855 0.29504 0.0
C656 C 0.11256 0.62726 0.27245 0.0
C657 C 0.08976 0.52683 0.23176 0.0
C658 C 0.08209 0.54422 0.21089 0.0
C659 C 0.06726 0.50431 0.21113 0.0
C660 C 0.07731 0.50607 0.22487 0.0
C661 C 0.06947 0.52334 0.20396 0.0
C662 C 0.09208 0.54594 0.22471 0.0
C663 C 0.10013 0.52802 0.24624 0.0
O664 O 0.1444 0.55722 0.28112 0.0
O665 O 0.10976 0.53997 0.29074 0.0
O666 O 0.08715 0.52585 0.2576 0.0
O667 O 0.12171 0.54377 0.24792 0.0
H668 H 0.10066 0.4992 0.29087 0.0
H669 H 0.1069 0.4693 0.29979 0.0
H670 H 0.17689 0.51798 0.31147 0.0
H671 H 0.17021 0.54787 0.30308 0.0
H672 H 0.14031 0.63421 0.31083 0.0
H673 H 0.13253 0.60192 0.29556 0.0
H674 H 0.11278 0.65775 0.27666 0.0
H675 H 0.10478 0.62545 0.26175 0.0
H676 H 0.08393 0.55917 0.20576 0.0
H677 H 0.05797 0.48803 0.20605 0.0
H678 H 0.07538 0.49114 0.23011 0.0
H679 H 0.10155 0.56213 0.22989 0.0
C680 C 0.40528 0.52221 0.29812 0.0
C681 C 0.39589 0.5014 0.29115 0.0
C682 C 0.36408 0.48522 0.30874 0.0
C683 C 0.37552 0.48309 0.29642 0.0
C684 C 0.37351 0.50623 0.31554 0.0
C685 C 0.39387 0.52447 0.31029 0.0
U686 U 0.45369 0.55431 0.26976 0.0
O687 O 0.47231 0.59024 0.26451 0.0
O688 O 0.4912 0.57433 0.27322 0.0
C689 C 0.49226 0.59301 0.26896 0.0
C690 C 0.42714 0.54162 0.29316 0.0
C691 C 0.50675 0.61303 0.27785 0.0
C692 C 0.51624 0.63432 0.30054 0.0
C693 C 0.5015 0.61512 0.29244 0.0
C694 C 0.54136 0.64944 0.2795 0.0
C695 C 0.53651 0.65166 0.29419 0.0
C696 C 0.52668 0.63038 0.27146 0.0
C697 C 0.45118 0.52826 0.23199 0.0
C698 C 0.48099 0.54542 0.21332 0.0
C699 C 0.44704 0.50966 0.20866 0.0
C700 C 0.43855 0.5102 0.22257 0.0
C701 C 0.46842 0.52722 0.20383 0.0
C702 C 0.47244 0.54593 0.22726 0.0
C703 C 0.44192 0.52808 0.24669 0.0
O704 O 0.44465 0.53821 0.29145 0.0
O705 O 0.4255 0.55373 0.2826 0.0
O706 O 0.43494 0.54256 0.24886 0.0
O707 O 0.45366 0.52667 0.2578 0.0
H708 H 0.40436 0.4993 0.28169 0.0
H709 H 0.36864 0.4673 0.29076 0.0
H710 H 0.36543 0.5085 0.32514 0.0
H711 H 0.40086 0.54036 0.31586 0.0
H712 H 0.51201 0.63539 0.31184 0.0
H713 H 0.48618 0.60187 0.29758 0.0
H714 H 0.5565 0.66255 0.27412 0.0
H715 H 0.53099 0.62915 0.2602 0.0
H716 H 0.49737 0.55936 0.20995 0.0
H717 H 0.43701 0.49521 0.20182 0.0
H718 H 0.42214 0.49635 0.22603 0.0
H719 H 0.48244 0.56007 0.23437 0.0
Gd720 Gd 0.52162 0.01835 0.03763 0.0
Gd721 Gd 0.50115 0.99 1.00191 0.0
C722 C 0.43066 0.92731 0.99713 0.0
C723 C 0.44106 0.8991 0.99151 0.0
C724 C 0.47086 0.93771 0.99518 0.0
C725 C 0.45424 0.94354 0.99786 0.0
C726 C 0.46449 0.91554 0.99164 0.0
C727 C 0.42417 0.90498 0.99427 0.0
C728 C 0.41433 0.93413 0.99891 0.0
C729 C 0.42169 0.95674 1.00081 0.0
N730 N 0.46114 0.9653 1.00044 0.0
C731 C 0.44529 0.97222 1.00134 0.0
H732 H 0.45069 0.98961 1.00287 0.0
C733 C 0.51018 0.94965 0.99097 0.0
N734 N 0.49328 0.95403 0.99527 0.0
C735 C 0.50475 0.92789 0.98744 0.0
C736 C 0.48182 0.91069 0.98796 0.0
H737 H 0.52794 0.96288 0.99064 0.0
H738 H 0.40614 0.89224 0.99381 0.0
H739 H 0.57189 0.01828 0.0368 0.0
H740 H 0.39604 0.92218 0.99848 0.0
H741 H 0.40921 0.96226 1.00191 0.0
H742 H 0.43581 0.88192 0.98896 0.0
H743 H 0.4953 0.04584 0.04898 0.0
H744 H 0.62693 0.08553 0.04104 0.0
H745 H 0.61342 0.04536 0.03774 0.0
H746 H 0.58776 0.12637 0.05052 0.0
H747 H 0.51823 0.92439 0.98436 0.0
H748 H 0.47764 0.89386 0.98517 0.0
H749 H 0.61718 0.11573 0.04564 0.0
H750 H 0.50534 0.08441 0.05529 0.0
N751 N 0.56171 0.04281 0.03911 0.0
C752 C 0.60862 0.07369 0.04062 0.0
C753 C 0.60105 0.05104 0.0388 0.0
C754 C 0.59243 0.08071 0.04236 0.0
C755 C 0.5688 0.06462 0.04165 0.0
C756 C 0.57741 0.0357 0.03828 0.0
N757 N 0.52987 0.05442 0.0443 0.0
C758 C 0.55233 0.07063 0.04435 0.0
C759 C 0.51873 0.08079 0.05218 0.0
C760 C 0.5417 0.09787 0.05162 0.0
C761 C 0.5131 0.05897 0.04864 0.0
C762 C 0.5589 0.09285 0.04788 0.0
H763 H 0.54603 0.11474 0.0544 0.0
O764 O 0.50496 0.01202 0.05894 0.0
O765 O 0.49317 0.9904 0.02547 0.0
O766 O 0.49127 0.01683 1.00553 0.0
O767 O 0.51744 0.04197 0.02247 0.0
O768 O 0.48361 0.00644 0.04041 0.0
O769 O 0.53339 0.00597 0.05569 0.0
O770 O 0.51856 0.99741 0.98083 0.0
O771 O 0.5295 0.018 1.01408 0.0
O772 O 0.53141 0.99143 0.03399 0.0
O773 O 0.50519 0.96632 0.01707 0.0
O774 O 0.53921 0.00202 0.99919 0.0
O775 O 0.48856 1.00112 0.98357 0.0
C776 C 0.47594 0.99012 0.03128 0.0
C777 C 0.58237 0.10915 0.04797 0.0
C778 C 0.59912 0.1031 0.04519 0.0
C779 C 0.51886 0.00628 0.06506 0.0
C780 C 0.52829 0.01614 0.0795 0.0
C781 C 0.54573 0.0385 0.08058 0.0
C782 C 0.51997 0.00307 0.09231 0.0
C783 C 0.52923 0.01226 0.10616 0.0
C784 C 0.55483 0.04774 0.09423 0.0
C785 C 0.54671 0.03478 0.10691 0.0
C786 C 0.50229 0.03686 1.01171 0.0
C787 C 0.54679 0.01835 1.00832 0.0
C788 C 0.50394 0.00194 0.97444 0.0
C789 C 0.49553 0.99179 0.95992 0.0
C790 C 0.47901 0.96911 0.95876 0.0
C791 C 0.50441 0.0047 0.94709 0.0
C792 C 0.497 0.9949 0.93313 0.0
C793 C 0.47152 0.95935 0.94503 0.0
C794 C 0.48043 0.97207 0.93231 0.0
C795 C 0.52035 0.97141 0.0278 0.0
H796 H 0.55235 0.04878 0.07089 0.0
H797 H 0.50661 0.98573 0.09145 0.0
H798 H 0.56824 0.06505 0.09497 0.0
H799 H 0.55397 0.04251 0.11736 0.0
H800 H 0.47193 0.95896 0.96845 0.0
H801 H 0.51731 0.0222 0.94797 0.0
H802 H 0.45872 0.94183 0.94423 0.0
H803 H 0.4741 0.96406 0.92181 0.0
Gd804 Gd 0.99525 0.50018 0.03738 0.0
Gd805 Gd 0.0294 0.51228 1.00331 0.0
C806 C 0.09511 0.50765 1.00075 0.0
C807 C 0.12447 0.54638 0.99685 0.0
C808 C 0.08413 0.53605 0.9989 0.0
C809 C 0.0781 0.51403 1.001 0.0
C810 C 0.10731 0.55244 0.99647 0.0
C811 C 0.11837 0.52401 0.999 0.0
C812 C 0.08815 0.48497 1.00187 0.0
C813 C 0.06471 0.46928 1.00265 0.0
N814 N 0.05545 0.49869 1.00254 0.0
C815 C 0.04849 0.47644 1.00277 0.0
H816 H 0.03047 0.46408 1.00346 0.0
C817 C 0.07184 0.56227 0.99469 0.0
N818 N 0.0671 0.54124 0.99846 0.0
C819 C 0.09458 0.57915 0.99227 0.0
C820 C 0.11244 0.57428 0.99335 0.0
H821 H 0.05811 0.56615 0.99394 0.0
H822 H 0.13171 0.51947 0.99893 0.0
H823 H 0.99367 0.54806 0.03757 0.0
H824 H 0.10068 0.47938 1.00177 0.0
H825 H 0.0591 0.45166 1.00323 0.0
H826 H 0.14241 0.55876 0.99515 0.0
H827 H 0.9669 0.44619 0.04654 0.0
H828 H 0.92319 0.53207 0.03864 0.0
H829 H 0.96471 0.56012 0.03767 0.0
H830 H 0.88203 0.45258 0.04467 0.0
H831 H 0.09831 0.5959 0.98961 0.0
H832 H 0.13004 0.58737 0.99142 0.0
H833 H 0.89239 0.49181 0.04107 0.0
H834 H 0.92673 0.41611 0.05057 0.0
N835 N 0.9689 0.51339 0.03802 0.0
C836 C 0.93585 0.52664 0.03858 0.0
C837 C 0.95927 0.54252 0.03808 0.0
C838 C 0.92909 0.50399 0.03949 0.0
C839 C 0.94627 0.49784 0.03931 0.0
C840 C 0.97566 0.53558 0.03803 0.0
N841 N 0.95762 0.47087 0.04192 0.0
C842 C 0.94044 0.47584 0.04135 0.0
C843 C 0.93034 0.43282 0.04792 0.0
C844 C 0.91233 0.43747 0.0467 0.0
C845 C 0.95305 0.44989 0.04568 0.0
C846 C 0.91728 0.45927 0.0436 0.0
H847 H 0.89475 0.42424 0.04849 0.0
O848 O 0.99973 0.48893 0.05878 0.0
O849 O 0.02599 0.50233 0.02666 0.0
O850 O 1.00192 0.47545 1.0055 0.0
O851 O 0.97326 0.47387 0.02079 0.0
O852 O 1.00825 0.47583 0.04069 0.0
O853 O 1.00479 0.52223 0.05617 0.0
O854 O 0.02481 0.52342 0.9819 0.0
O855 O 0.99882 0.51042 1.01408 0.0
O856 O 0.02275 0.53701 0.03539 0.0
O857 O 0.05133 0.53899 0.01978 0.0
O858 O 0.01685 0.53697 1.00012 0.0
O859 O 0.01878 0.48982 0.98469 0.0
C860 C 0.02609 0.48574 0.03236 0.0
C861 C 0.89996 0.46511 0.04311 0.0
C862 C 0.90586 0.48744 0.04105 0.0
C863 C 1.00398 0.50732 0.06532 0.0
C864 C 0.99177 0.50478 0.07921 0.0
C865 C 0.96869 0.49962 0.07922 0.0
C866 C 1.00327 0.50735 0.09261 0.0
C867 C 0.99173 0.50464 0.10603 0.0
C868 C 0.95718 0.49703 0.09244 0.0
C869 C 0.96855 0.49949 0.10574 0.0
C870 C 0.98038 0.46529 1.01045 0.0
C871 C 0.99902 0.52721 1.00847 0.0
C872 C 0.01967 0.50469 0.97548 0.0
C873 C 0.03099 0.5064 0.96136 0.0
C874 C 0.0545 0.51318 0.96077 0.0
C875 C 0.01809 0.50111 0.94831 0.0
C876 C 0.02858 0.50253 0.93465 0.0
C877 C 0.06504 0.5147 0.94732 0.0
C878 C 0.05225 0.50944 0.93435 0.0
C879 C 0.0442 0.54739 0.03026 0.0
H880 H 0.95959 0.49763 0.06905 0.0
H881 H 0.02105 0.5111 0.09256 0.0
H882 H 0.93937 0.49311 0.09237 0.0
H883 H 0.95925 0.4976 0.11583 0.0
H884 H 0.06467 0.51729 0.97068 0.0
H885 H 0.99985 0.49562 0.94886 0.0
H886 H 0.08323 0.52004 0.94692 0.0
H887 H 0.06102 0.51113 0.92407 0.0
Gd888 Gd 0.50391 0.51141 1.00276 0.0
Gd889 Gd 0.52316 0.49859 0.03775 0.0
C890 C 0.59285 0.50197 0.04244 0.0
C891 C 0.58151 0.46306 0.04651 0.0
C892 C 0.55241 0.47403 0.04343 0.0
C893 C 0.56941 0.49596 0.04156 0.0
C894 C 0.55821 0.45736 0.04625 0.0
C895 C 0.59881 0.48533 0.0446 0.0
C896 C 0.60957 0.52457 0.04153 0.0
C897 C 0.60269 0.54054 0.04032 0.0
N898 N 0.56301 0.51158 0.03963 0.0
C899 C 0.57921 0.53374 0.0396 0.0
H900 H 0.57424 0.54631 0.0386 0.0
C901 C 0.5128 0.44823 0.0467 0.0
N902 N 0.53014 0.46918 0.04322 0.0
C903 C 0.51765 0.43108 0.04949 0.0
C904 C 0.54045 0.4356 0.04909 0.0
H905 H 0.49513 0.44461 0.04693 0.0
H906 H 0.61672 0.4896 0.04517 0.0
H907 H 0.45283 0.46379 1.00157 0.0
H908 H 0.62776 0.52988 0.0421 0.0
H909 H 0.61546 0.5581 0.0399 0.0
H910 H 0.58633 0.45046 0.04853 0.0
H911 H 0.53211 0.56546 0.99376 0.0
H912 H 0.39941 0.48042 0.99833 0.0
H913 H 0.41162 0.45209 1.00023 0.0
H914 H 0.44104 0.55991 0.99237 0.0
H915 H 0.50382 0.4144 0.05192 0.0
H916 H 0.54419 0.42231 0.0513 0.0
H917 H 0.41057 0.52077 0.99556 0.0
H918 H 0.52353 0.59579 0.98892 0.0
N919 N 0.46411 0.49854 1.0009 0.0
C920 C 0.41759 0.48568 0.99894 0.0
C921 C 0.42442 0.46965 0.99996 0.0
C922 C 0.43435 0.50829 0.99821 0.0
C923 C 0.45777 0.51423 0.99911 0.0
C924 C 0.44788 0.4764 1.00071 0.0
N925 N 0.49708 0.54095 0.99747 0.0
C926 C 0.47483 0.53617 0.99732 0.0
C927 C 0.50967 0.57911 0.99132 0.0
C928 C 0.4869 0.57466 0.99177 0.0
C929 C 0.51446 0.5619 0.99403 0.0
C930 C 0.46909 0.55291 0.99458 0.0
H931 H 0.48321 0.588 0.98962 0.0
O932 O 0.52131 0.52255 0.98175 0.0
O933 O 0.53163 0.50892 1.01451 0.0
O934 O 0.53424 0.53543 0.03533 0.0
O935 O 0.50839 0.5377 0.01918 0.0
O936 O 0.54214 0.53565 1.00053 0.0
O937 O 0.492 0.4893 0.98393 0.0
O938 O 0.50547 0.48752 0.05868 0.0
O939 O 0.49539 0.50094 0.02596 0.0
O940 O 0.49293 0.47454 1.00508 0.0
O941 O 0.51853 0.47216 0.02143 0.0
O942 O 0.48499 0.47412 0.03986 0.0
O943 O 0.53493 0.52069 0.05659 0.0
C944 C 0.54919 0.52556 1.0092 0.0
C945 C 0.44581 0.54727 0.99432 0.0
C946 C 0.42846 0.52499 0.99615 0.0
C947 C 0.50721 0.50408 0.97505 0.0
C948 C 0.49872 0.50635 0.9606 0.0
C949 C 0.48272 0.51374 0.95948 0.0
C950 C 0.50665 0.50102 0.94778 0.0
C951 C 0.49857 0.50298 0.93384 0.0
C952 C 0.47471 0.51583 0.94578 0.0
C953 C 0.48254 0.51053 0.93306 0.0
C954 C 0.52371 0.54589 0.02994 0.0
C955 C 0.47787 0.48414 0.03117 0.0
C956 C 0.51954 0.50596 0.06542 0.0
C957 C 0.52779 0.5036 0.07994 0.0
C958 C 0.54406 0.49655 0.08116 0.0
C959 C 0.51934 0.50847 0.09271 0.0
C960 C 0.52718 0.50642 0.10671 0.0
C961 C 0.55182 0.49436 0.09493 0.0
C962 C 0.54349 0.49922 0.10759 0.0
C963 C 0.5033 0.464 1.01062 0.0
H964 H 0.47643 0.51789 0.96919 0.0
H965 H 0.51885 0.49508 0.9487 0.0
H966 H 0.46243 0.52165 0.94499 0.0
H967 H 0.47625 0.51268 0.92259 0.0
H968 H 0.55074 0.49275 0.07149 0.0
H969 H 0.50692 0.51414 0.09171 0.0
H970 H 0.56431 0.4888 0.0958 0.0
H971 H 0.54962 0.49701 0.11811 0.0
Gd972 Gd 0.18997 0.35105 0.37127 0.0
Gd973 Gd 0.17004 0.32357 0.33521 0.0
C974 C 0.09959 0.26093 0.33017 0.0
C975 C 0.11002 0.23271 0.32466 0.0
C976 C 0.1398 0.27129 0.32843 0.0
C977 C 0.12317 0.27714 0.331 0.0
C978 C 0.13345 0.24913 0.32486 0.0
C979 C 0.09312 0.2386 0.32733 0.0
C980 C 0.08326 0.26778 0.3318 0.0
C981 C 0.09062 0.29039 0.33367 0.0
N982 N 0.13006 0.2989 0.33356 0.0
C983 C 0.11422 0.30586 0.33432 0.0
H984 H 0.11963 0.32325 0.33584 0.0
C985 C 0.17913 0.28329 0.32418 0.0
N986 N 0.16223 0.28762 0.32855 0.0
C987 C 0.17372 0.26153 0.32063 0.0
C988 C 0.1508 0.24431 0.32116 0.0
H989 H 0.19689 0.29654 0.32384 0.0
H990 H 0.07509 0.22587 0.32679 0.0
H991 H 0.24062 0.35176 0.37013 0.0
H992 H 0.06497 0.25585 0.33129 0.0
H993 H 0.07814 0.29593 0.33467 0.0
H994 H 0.10479 0.21554 0.32209 0.0
H995 H 0.16293 0.37758 0.38318 0.0
H996 H 0.29499 0.41911 0.37535 0.0
H997 H 0.28202 0.37919 0.37136 0.0
H998 H 0.25483 0.45873 0.38576 0.0
H999 H 0.18721 0.25806 0.31751 0.0
H1000 H 0.14663 0.22749 0.31835 0.0
H1001 H 0.28467 0.44876 0.38055 0.0
H1002 H 0.1724 0.41576 0.39013 0.0
N1003 N 0.22996 0.37586 0.37296 0.0
C1004 C 0.27673 0.40712 0.37481 0.0
C1005 C 0.26947 0.3846 0.37259 0.0
C1006 C 0.2603 0.41378 0.37675 0.0
C1007 C 0.23675 0.39751 0.37586 0.0
C1008 C 0.2459 0.36906 0.37191 0.0
N1009 N 0.19767 0.38674 0.3785 0.0
C1010 C 0.22005 0.40313 0.37875 0.0
C1011 C 0.18597 0.41246 0.38689 0.0
C1012 C 0.20886 0.42976 0.38655 0.0
C1013 C 0.18067 0.39087 0.38299 0.0
C1014 C 0.22629 0.42515 0.38265 0.0
H1015 H 0.21294 0.44646 0.38961 0.0
O1016 O 0.17258 0.34336 0.39239 0.0
O1017 O 0.16181 0.32335 0.35877 0.0
O1018 O 0.16023 0.35047 0.33899 0.0
O1019 O 0.18572 0.375 0.35649 0.0
O1020 O 0.15187 0.33884 0.3739 0.0
O1021 O 0.20207 0.33892 0.38929 0.0
O1022 O 0.18734 0.33083 0.3141 0.0
O1023 O 0.19811 0.35136 0.34768 0.0
O1024 O 0.20026 0.32459 0.36727 0.0
O1025 O 0.17418 0.29974 0.35019 0.0
O1026 O 0.20818 0.33601 0.33252 0.0
O1027 O 0.15764 0.33499 0.31692 0.0
C1028 C 0.14443 0.32282 0.36454 0.0
C1029 C 0.24968 0.44166 0.38293 0.0
C1030 C 0.26667 0.43598 0.37996 0.0
C1031 C 0.18697 0.33832 0.39857 0.0
C1032 C 0.19576 0.34819 0.41312 0.0
C1033 C 0.21397 0.3702 0.41428 0.0
C1034 C 0.1857 0.33569 0.42596 0.0
C1035 C 0.19367 0.34527 0.43992 0.0
C1036 C 0.22204 0.37971 0.42801 0.0
C1037 C 0.212 0.36741 0.44073 0.0
C1038 C 0.17091 0.37023 0.34557 0.0
C1039 C 0.21555 0.35208 0.34184 0.0
C1040 C 0.17282 0.33554 0.30774 0.0
C1041 C 0.16408 0.32521 0.29329 0.0
C1042 C 0.14929 0.30213 0.29222 0.0
C1043 C 0.17062 0.3384 0.28046 0.0
C1044 C 0.16226 0.32851 0.26661 0.0
C1045 C 0.1412 0.29221 0.2786 0.0
C1046 C 0.14763 0.30521 0.26591 0.0
C1047 C 0.18938 0.30471 0.36088 0.0
H1048 H 0.22197 0.38003 0.40459 0.0
H1049 H 0.17148 0.31873 0.42507 0.0
H1050 H 0.23616 0.3967 0.42881 0.0
H1051 H 0.2188 0.3752 0.45123 0.0
H1052 H 0.14401 0.29175 0.30189 0.0
H1053 H 0.18186 0.35629 0.2813 0.0
H1054 H 0.12992 0.27433 0.27788 0.0
H1055 H 0.14127 0.29692 0.25549 0.0
Gd1056 Gd 0.66292 0.8313 0.37086 0.0
Gd1057 Gd 0.69666 0.84289 0.33662 0.0
C1058 C 0.76211 0.83788 0.33353 0.0
C1059 C 0.79152 0.87651 0.32934 0.0
C1060 C 0.75128 0.8664 0.33176 0.0
C1061 C 0.7452 0.84437 0.33392 0.0
C1062 C 0.77444 0.88267 0.32912 0.0
C1063 C 0.78536 0.85414 0.33156 0.0
C1064 C 0.75508 0.8152 0.33477 0.0
C1065 C 0.73164 0.7996 0.33583 0.0
N1066 N 0.72257 0.82913 0.3357 0.0
C1067 C 0.71551 0.80687 0.33607 0.0
H1068 H 0.6975 0.79458 0.33697 0.0
C1069 C 0.7391 0.89272 0.32766 0.0
N1070 N 0.73433 0.87169 0.33148 0.0
C1071 C 0.76182 0.90949 0.32504 0.0
C1072 C 0.77962 0.90452 0.32594 0.0
H1073 H 0.72543 0.89669 0.32703 0.0
H1074 H 0.79863 0.84951 0.33137 0.0
H1075 H 0.66193 0.87948 0.37108 0.0
H1076 H 0.76754 0.80952 0.33457 0.0
H1077 H 0.72596 0.78198 0.33652 0.0
H1078 H 0.80944 0.8888 0.32747 0.0
H1079 H 0.63417 0.77737 0.38016 0.0
H1080 H 0.59169 0.86419 0.37229 0.0
H1081 H 0.6333 0.89193 0.37124 0.0
H1082 H 0.54985 0.78473 0.37846 0.0
H1083 H 0.76558 0.92623 0.32234 0.0
H1084 H 0.7972 0.91752 0.32386 0.0
H1085 H 0.5606 0.82406 0.37481 0.0
H1086 H 0.59389 0.74758 0.38429 0.0
N1087 N 0.6369 0.84489 0.37158 0.0
C1088 C 0.60421 0.85859 0.3722 0.0
C1089 C 0.62767 0.8743 0.37166 0.0
C1090 C 0.59722 0.83589 0.37314 0.0
C1091 C 0.61422 0.82951 0.37292 0.0
C1092 C 0.64389 0.86713 0.37158 0.0
N1093 N 0.6252 0.80226 0.37553 0.0
C1094 C 0.60817 0.80746 0.37499 0.0
C1095 C 0.59766 0.76434 0.38162 0.0
C1096 C 0.5798 0.7692 0.38043 0.0
C1097 C 0.62043 0.78123 0.37933 0.0
C1098 C 0.58496 0.79106 0.37731 0.0
H1099 H 0.56218 0.75611 0.38227 0.0
O1100 O 0.6674 0.82008 0.39228 0.0
O1101 O 0.69339 0.8331 0.36 0.0
O1102 O 0.66913 0.80616 0.33906 0.0
O1103 O 0.64065 0.80489 0.35438 0.0
O1104 O 0.67576 0.80682 0.37421 0.0
O1105 O 0.67292 0.85352 0.38958 0.0
O1106 O 0.69148 0.8538 0.31529 0.0
O1107 O 0.66634 0.84139 0.34753 0.0
O1108 O 0.69069 0.86801 0.36869 0.0
O1109 O 0.71895 0.86964 0.35292 0.0
O1110 O 0.68444 0.86783 0.3335 0.0
O1111 O 0.68587 0.82034 0.31804 0.0
C1112 C 0.69348 0.81655 0.36577 0.0
C1113 C 0.56781 0.79712 0.37685 0.0
C1114 C 0.57393 0.81951 0.37476 0.0
C1115 C 0.672 0.8386 0.39877 0.0
C1116 C 0.66003 0.83636 0.41272 0.0
C1117 C 0.63699 0.83131 0.41284 0.0
C1118 C 0.67172 0.83911 0.42607 0.0
C1119 C 0.66038 0.83668 0.43954 0.0
C1120 C 0.62569 0.82901 0.4261 0.0
C1121 C 0.63724 0.83164 0.43936 0.0
C1122 C 0.64763 0.79614 0.34408 0.0
C1123 C 0.6667 0.85827 0.34193 0.0
C1124 C 0.68642 0.8351 0.30887 0.0
C1125 C 0.69757 0.83691 0.29466 0.0
C1126 C 0.72093 0.84316 0.29393 0.0
C1127 C 0.68464 0.83233 0.28167 0.0
C1128 C 0.69495 0.83394 0.26791 0.0
C1129 C 0.7313 0.84484 0.28038 0.0
C1130 C 0.71848 0.8403 0.26747 0.0
C1131 C 0.71205 0.87822 0.36341 0.0
H1132 H 0.62775 0.82919 0.4027 0.0
H1133 H 0.68947 0.84278 0.42595 0.0
H1134 H 0.60791 0.82518 0.42611 0.0
H1135 H 0.62809 0.82997 0.44947 0.0
H1136 H 0.73112 0.84673 0.3038 0.0
H1137 H 0.6665 0.82726 0.28232 0.0
H1138 H 0.74938 0.84977 0.27988 0.0
H1139 H 0.72712 0.84211 0.25712 0.0
Gd1140 Gd 0.16886 0.84066 0.3329 0.0
Gd1141 Gd 0.18627 0.83092 0.36897 0.0
C1142 C 0.25925 0.8418 0.37201 0.0
C1143 C 0.25216 0.8043 0.37689 0.0
C1144 C 0.22007 0.81116 0.37406 0.0
C1145 C 0.23527 0.83351 0.37162 0.0
C1146 C 0.22832 0.79638 0.37716 0.0
C1147 C 0.2676 0.82698 0.37431 0.0
C1148 C 0.27408 0.86478 0.37043 0.0
C1149 C 0.26487 0.8789 0.36884 0.0
N1150 N 0.22659 0.84732 0.36946 0.0
C1151 C 0.24094 0.86984 0.36841 0.0
H1152 H 0.23404 0.88089 0.367 0.0
C1153 C 0.18181 0.78314 0.37918 0.0
N1154 N 0.19722 0.80418 0.37441 0.0
C1155 C 0.18909 0.76777 0.38221 0.0
C1156 C 0.21242 0.77432 0.38097 0.0
H1157 H 0.16375 0.7781 0.38017 0.0
H1158 H 0.28596 0.83298 0.37448 0.0
H1159 H 0.16088 0.80433 0.30645 0.0
H1160 H 0.29261 0.87182 0.37067 0.0
H1161 H 0.27618 0.89673 0.36779 0.0
H1162 H 0.25884 0.79316 0.37908 0.0
H1163 H 0.14805 0.87146 0.34792 0.0
H1164 H 0.08906 0.76815 0.29552 0.0
H1165 H 0.12882 0.77536 0.29177 0.0
H1166 H 0.05777 0.80536 0.32349 0.0
H1167 H 0.17673 0.75093 0.38555 0.0
H1168 H 0.21806 0.76244 0.38343 0.0
H1169 H 0.06255 0.77922 0.30764 0.0
H1170 H 0.11101 0.8705 0.35032 0.0
N1171 N 0.13918 0.81245 0.31883 0.0
C1172 C 0.10303 0.78074 0.30202 0.0
C1173 C 0.12544 0.78479 0.29985 0.0
C1174 C 0.09908 0.79376 0.31205 0.0
C1175 C 0.11787 0.80997 0.32021 0.0
C1176 C 0.14351 0.80116 0.30815 0.0
N1177 N 0.13423 0.84134 0.33565 0.0
C1178 C 0.1153 0.82488 0.32892 0.0
C1179 C 0.11195 0.85751 0.3443 0.0
C1180 C 0.09212 0.8401 0.33803 0.0
C1181 C 0.133 0.85798 0.3429 0.0
C1182 C 0.09369 0.82371 0.33 0.0
H1183 H 0.07583 0.83976 0.33915 0.0
O1184 O 0.17061 0.86746 0.31937 0.0
O1185 O 0.19881 0.84581 0.34684 0.0
O1186 O 0.19202 0.86583 0.36837 0.0
O1187 O 0.18506 0.87407 0.34473 0.0
O1188 O 0.19532 0.83166 0.32613 0.0
O1189 O 0.18746 0.84956 0.31217 0.0
O1190 O 0.1682 0.81886 0.38975 0.0
O1191 O 0.1596 0.83469 0.35656 0.0
O1192 O 0.1541 0.8034 0.33633 0.0
O1193 O 0.17788 0.80123 0.35432 0.0
O1194 O 0.14822 0.80674 0.36988 0.0
O1195 O 0.19845 0.8514 0.38857 0.0
C1196 C 0.20777 0.83845 0.33776 0.0
C1197 C 0.07456 0.80668 0.32266 0.0
C1198 C 0.07726 0.79176 0.31366 0.0
C1199 C 0.18017 0.8631 0.30839 0.0
C1200 C 0.16862 0.85887 0.29386 0.0
C1201 C 0.14777 0.85899 0.29236 0.0
C1202 C 0.17776 0.85358 0.28151 0.0
C1203 C 0.16603 0.84822 0.26791 0.0
C1204 C 0.13631 0.85403 0.27895 0.0
C1205 C 0.1453 0.84871 0.26684 0.0
C1206 C 0.19137 0.87959 0.35856 0.0
C1207 C 0.14178 0.81759 0.36141 0.0
C1208 C 0.18251 0.83657 0.39701 0.0
C1209 C 0.18996 0.83304 0.4115 0.0
C1210 C 0.20534 0.82491 0.41267 0.0
C1211 C 0.18184 0.83818 0.42433 0.0
C1212 C 0.18914 0.83531 0.43831 0.0
C1213 C 0.2125 0.82184 0.42642 0.0
C1214 C 0.2045 0.82697 0.43913 0.0
C1215 C 0.16275 0.79247 0.34347 0.0
H1216 H 0.14012 0.86275 0.30158 0.0
H1217 H 0.19363 0.85309 0.28261 0.0
H1218 H 0.1203 0.85425 0.27793 0.0
H1219 H 0.13605 0.8452 0.25656 0.0
H1220 H 0.21187 0.821 0.40297 0.0
H1221 H 0.17019 0.84476 0.42338 0.0
H1222 H 0.2243 0.81545 0.42724 0.0
H1223 H 0.21017 0.82411 0.44963 0.0
Gd1224 Gd 0.8543 0.68327 0.70443 0.0
Gd1225 Gd 0.83374 0.65539 0.66855 0.0
C1226 C 0.76275 0.59337 0.66355 0.0
C1227 C 0.77259 0.56477 0.65792 0.0
C1228 C 0.80279 0.60319 0.66168 0.0
C1229 C 0.78641 0.60933 0.66435 0.0
C1230 C 0.7961 0.58095 0.6581 0.0
C1231 C 0.75593 0.57097 0.66065 0.0
C1232 C 0.74667 0.60052 0.66528 0.0
C1233 C 0.75437 0.62319 0.66722 0.0
N1234 N 0.79363 0.63115 0.66697 0.0
C1235 C 0.77804 0.6384 0.66783 0.0
H1236 H 0.78368 0.65582 0.66941 0.0
C1237 C 0.842 0.61461 0.6575 0.0
N1238 N 0.8253 0.61928 0.66182 0.0
C1239 C 0.83624 0.59277 0.65394 0.0
C1240 C 0.81321 0.5758 0.65442 0.0
H1241 H 0.85984 0.62766 0.65721 0.0
H1242 H 0.73784 0.55843 0.66014 0.0
H1243 H 0.90444 0.683 0.70347 0.0
H1244 H 0.72833 0.58878 0.66479 0.0
H1245 H 0.74209 0.62896 0.6683 0.0
H1246 H 0.76709 0.54754 0.65533 0.0
H1247 H 0.82811 0.71083 0.71592 0.0
H1248 H 0.95966 0.75014 0.70791 0.0
H1249 H 0.94601 0.70997 0.70444 0.0
H1250 H 0.92073 0.79115 0.71762 0.0
H1251 H 0.84956 0.58904 0.65085 0.0
H1252 H 0.80878 0.5589 0.65161 0.0
H1253 H 0.95005 0.7804 0.71266 0.0
H1254 H 0.83829 0.74941 0.72233 0.0
N1255 N 0.89439 0.7076 0.70594 0.0
C1256 C 0.94133 0.73835 0.70748 0.0
C1257 C 0.93369 0.71569 0.70556 0.0
C1258 C 0.92521 0.74543 0.70929 0.0
C1259 C 0.90156 0.72941 0.70856 0.0
C1260 C 0.91003 0.70042 0.70503 0.0
N1261 N 0.86266 0.71933 0.71122 0.0
C1262 C 0.88514 0.73547 0.71131 0.0
C1263 C 0.85163 0.74574 0.71919 0.0
C1264 C 0.87464 0.76277 0.71867 0.0
C1265 C 0.84593 0.72392 0.7156 0.0
C1266 C 0.89178 0.75769 0.7149 0.0
H1267 H 0.87903 0.77964 0.7215 0.0
O1268 O 0.83741 0.67649 0.72567 0.0
O1269 O 0.82585 0.65562 0.69211 0.0
O1270 O 0.82426 0.68252 0.67229 0.0
O1271 O 0.85042 0.70722 0.68942 0.0
O1272 O 0.81628 0.67139 0.70725 0.0
O1273 O 0.86625 0.67105 0.72249 0.0
O1274 O 0.85096 0.66228 0.64742 0.0
O1275 O 0.86219 0.68307 0.68085 0.0
O1276 O 0.86383 0.65618 0.70064 0.0
O1277 O 0.83752 0.63143 0.6836 0.0
O1278 O 0.87172 0.66712 0.66584 0.0
O1279 O 0.8218 0.66731 0.65032 0.0
C1280 C 0.80862 0.65527 0.69796 0.0
C1281 C 0.91528 0.77393 0.71502 0.0
C1282 C 0.93197 0.76781 0.7122 0.0
C1283 C 0.85148 0.67099 0.73182 0.0
C1284 C 0.86062 0.68081 0.74631 0.0
C1285 C 0.87754 0.70334 0.74751 0.0
C1286 C 0.85238 0.66761 0.75908 0.0
C1287 C 0.86114 0.67685 0.77301 0.0
C1288 C 0.88615 0.71265 0.76121 0.0
C1289 C 0.87806 0.69959 0.77386 0.0
C1290 C 0.83536 0.70241 0.67865 0.0
C1291 C 0.87941 0.68333 0.67506 0.0
C1292 C 0.83675 0.66745 0.64112 0.0
C1293 C 0.82784 0.65733 0.62666 0.0
C1294 C 0.81033 0.635 0.62561 0.0
C1295 C 0.83707 0.66998 0.61377 0.0
C1296 C 0.82894 0.66029 0.59986 0.0
C1297 C 0.80215 0.62532 0.61193 0.0
C1298 C 0.81133 0.6378 0.59916 0.0
C1299 C 0.85263 0.63625 0.69434 0.0
H1300 H 0.8841 0.71373 0.73786 0.0
H1301 H 0.83945 0.65013 0.75811 0.0
H1302 H 0.89914 0.7301 0.76205 0.0
H1303 H 0.88487 0.70742 0.78434 0.0
H1304 H 0.80297 0.62505 0.63535 0.0
H1305 H 0.85075 0.6872 0.61459 0.0
H1306 H 0.78856 0.60808 0.61122 0.0
H1307 H 0.80435 0.62989 0.58871 0.0
Gd1308 Gd 0.32775 0.16429 0.70119 0.0
Gd1309 Gd 0.3623 0.17669 0.66727 0.0
C1310 C 0.42817 0.17231 0.6653 0.0
C1311 C 0.45752 0.21109 0.66159 0.0
C1312 C 0.41711 0.20064 0.6633 0.0
C1313 C 0.41111 0.17862 0.66538 0.0
C1314 C 0.44032 0.21708 0.66104 0.0
C1315 C 0.45145 0.18873 0.66373 0.0
C1316 C 0.42126 0.14963 0.66638 0.0
C1317 C 0.39781 0.13388 0.66696 0.0
N1318 N 0.38845 0.16321 0.66673 0.0
C1319 C 0.38154 0.14098 0.66692 0.0
H1320 H 0.36352 0.12858 0.66745 0.0
C1321 C 0.40479 0.22679 0.6589 0.0
N1322 N 0.40005 0.20576 0.66269 0.0
C1323 C 0.42756 0.24373 0.65665 0.0
C1324 C 0.44545 0.23892 0.6579 0.0
H1325 H 0.39103 0.23062 0.65802 0.0
H1326 H 0.46483 0.18423 0.66379 0.0
H1327 H 0.32605 0.21212 0.70167 0.0
H1328 H 0.43382 0.14409 0.66641 0.0
H1329 H 0.39224 0.11627 0.66751 0.0
H1330 H 0.47548 0.22351 0.66002 0.0
H1331 H 0.29948 0.11019 0.71008 0.0
H1332 H 0.25556 0.19601 0.70296 0.0
H1333 H 0.29706 0.22411 0.70199 0.0
H1334 H 0.21454 0.11648 0.70872 0.0
H1335 H 0.43129 0.26047 0.65397 0.0
H1336 H 0.46306 0.25205 0.6561 0.0
H1337 H 0.22482 0.15572 0.7053 0.0
H1338 H 0.25936 0.08006 0.71412 0.0
N1339 N 0.30134 0.17743 0.702 0.0
C1340 C 0.26824 0.19061 0.7028 0.0
C1341 C 0.29164 0.20652 0.7023 0.0
C1342 C 0.26152 0.16796 0.70361 0.0
C1343 C 0.27872 0.16184 0.7033 0.0
C1344 C 0.30806 0.19961 0.70213 0.0
N1345 N 0.29014 0.1349 0.7057 0.0
C1346 C 0.27293 0.13985 0.70524 0.0
C1347 C 0.26292 0.09679 0.71157 0.0
C1348 C 0.24489 0.10141 0.71048 0.0
C1349 C 0.28561 0.11389 0.70932 0.0
C1350 C 0.24979 0.12323 0.7075 0.0
H1351 H 0.22733 0.08816 0.71228 0.0
O1352 O 0.33202 0.15294 0.72261 0.0
O1353 O 0.35861 0.16651 0.69059 0.0
O1354 O 0.3348 0.13987 0.66931 0.0
O1355 O 0.30593 0.13814 0.68446 0.0
O1356 O 0.34067 0.13988 0.70448 0.0
O1357 O 0.33776 0.18648 0.71992 0.0
O1358 O 0.35794 0.18795 0.64584 0.0
O1359 O 0.33155 0.1747 0.67791 0.0
O1360 O 0.35507 0.20115 0.6992 0.0
O1361 O 0.38398 0.20327 0.68386 0.0
O1362 O 0.3497 0.20133 0.66401 0.0
O1363 O 0.35227 0.15446 0.64855 0.0
C1364 C 0.35864 0.14987 0.69627 0.0
C1365 C 0.23245 0.12903 0.70714 0.0
C1366 C 0.2383 0.15137 0.70518 0.0
C1367 C 0.33682 0.17154 0.72909 0.0
C1368 C 0.32516 0.16952 0.74311 0.0
C1369 C 0.3018 0.16336 0.7435 0.0
C1370 C 0.33765 0.17398 0.75628 0.0
C1371 C 0.32693 0.17244 0.76985 0.0
C1372 C 0.29102 0.16172 0.75689 0.0
C1373 C 0.30344 0.16624 0.76997 0.0
C1374 C 0.31321 0.12964 0.67417 0.0
C1375 C 0.33182 0.19154 0.67231 0.0
C1376 C 0.35319 0.16937 0.63936 0.0
C1377 C 0.36498 0.17144 0.62536 0.0
C1378 C 0.38842 0.17793 0.62508 0.0
C1379 C 0.3526 0.16681 0.61213 0.0
C1380 C 0.36356 0.16859 0.59859 0.0
C1381 C 0.39943 0.1798 0.61176 0.0
C1382 C 0.38716 0.1752 0.59861 0.0
C1383 C 0.37662 0.21158 0.69424 0.0
H1384 H 0.29194 0.15986 0.73349 0.0
H1385 H 0.35578 0.17896 0.75591 0.0
H1386 H 0.27295 0.15689 0.75713 0.0
H1387 H 0.29455 0.16457 0.7802 0.0
H1388 H 0.3982 0.18153 0.63513 0.0
H1389 H 0.3344 0.16155 0.61242 0.0
H1390 H 0.41757 0.18492 0.61161 0.0
H1391 H 0.39629 0.17715 0.58844 0.0
Gd1392 Gd 0.8361 0.17624 0.66928 0.0
Gd1393 Gd 0.85495 0.16297 0.70424 0.0
C1394 C 0.92448 0.16605 0.70905 0.0
C1395 C 0.91296 0.12707 0.71302 0.0
C1396 C 0.88399 0.1382 0.70991 0.0
C1397 C 0.90107 0.16013 0.70812 0.0
C1398 C 0.88969 0.12146 0.71269 0.0
C1399 C 0.93033 0.14934 0.71118 0.0
C1400 C 0.94127 0.18863 0.7082 0.0
C1401 C 0.93448 0.20467 0.70702 0.0
N1402 N 0.89476 0.17582 0.70621 0.0
C1403 C 0.91103 0.19796 0.70625 0.0
H1404 H 0.90613 0.21059 0.70526 0.0
C1405 C 0.84432 0.11248 0.71303 0.0
N1406 N 0.86175 0.13344 0.70965 0.0
C1407 C 0.84908 0.09526 0.71578 0.0
C1408 C 0.87185 0.0997 0.71544 0.0
H1409 H 0.82667 0.10892 0.71322 0.0
H1410 H 0.94822 0.15353 0.71179 0.0
H1411 H 0.78486 0.12883 0.66792 0.0
H1412 H 0.95944 0.19387 0.70882 0.0
H1413 H 0.9473 0.22222 0.70664 0.0
H1414 H 0.9177 0.11441 0.71501 0.0
H1415 H 0.86465 0.23035 0.66042 0.0
H1416 H 0.73177 0.14592 0.6647 0.0
H1417 H 0.74371 0.11739 0.66652 0.0
H1418 H 0.77388 0.22544 0.65897 0.0
H1419 H 0.83518 0.07858 0.71814 0.0
H1420 H 0.87551 0.08635 0.71763 0.0
H1421 H 0.7432 0.18636 0.66204 0.0
H1422 H 0.85635 0.26088 0.65565 0.0
N1423 N 0.79636 0.16363 0.66735 0.0
C1424 C 0.74992 0.15107 0.66533 0.0
C1425 C 0.75659 0.13492 0.66631 0.0
C1426 C 0.76679 0.17364 0.66467 0.0
C1427 C 0.79017 0.17943 0.6656 0.0
C1428 C 0.78002 0.14152 0.66709 0.0
N1429 N 0.82954 0.20598 0.66406 0.0
C1430 C 0.80734 0.20134 0.66388 0.0
C1431 C 0.8424 0.24423 0.65801 0.0
C1432 C 0.81968 0.23992 0.65844 0.0
C1433 C 0.84704 0.2269 0.66067 0.0
C1434 C 0.80176 0.2182 0.66118 0.0
H1435 H 0.81612 0.25335 0.65631 0.0
O1436 O 0.85372 0.18748 0.64834 0.0
O1437 O 0.86363 0.17345 0.68104 0.0
O1438 O 0.86621 0.1999 0.70196 0.0
O1439 O 0.84059 0.20246 0.68576 0.0
O1440 O 0.87438 0.20036 0.66719 0.0
O1441 O 0.82412 0.15436 0.65033 0.0
O1442 O 0.83717 0.1518 0.72514 0.0
O1443 O 0.82736 0.16559 0.69243 0.0
O1444 O 0.82489 0.1393 0.67145 0.0
O1445 O 0.85024 0.13657 0.68783 0.0
O1446 O 0.81672 0.13862 0.70622 0.0
O1447 O 0.86662 0.18498 0.72313 0.0
C1448 C 0.88129 0.19009 0.67582 0.0
C1449 C 0.77853 0.21271 0.66089 0.0
C1450 C 0.76106 0.19046 0.66265 0.0
C1451 C 0.83951 0.16915 0.64153 0.0
C1452 C 0.83122 0.17175 0.62709 0.0
C1453 C 0.81539 0.17935 0.62603 0.0
C1454 C 0.83916 0.16652 0.61423 0.0
C1455 C 0.83124 0.16879 0.60031 0.0
C1456 C 0.80756 0.18176 0.61234 0.0
C1457 C 0.81538 0.17656 0.59959 0.0
C1458 C 0.85581 0.2105 0.69658 0.0
C1459 C 0.80975 0.1488 0.69756 0.0
C1460 C 0.85117 0.17023 0.73192 0.0
C1461 C 0.8593 0.16787 0.74648 0.0
C1462 C 0.8751 0.16027 0.74781 0.0
C1463 C 0.85121 0.17332 0.7592 0.0
C1464 C 0.85894 0.17125 0.77323 0.0
C1465 C 0.88274 0.15806 0.76161 0.0
C1466 C 0.87477 0.16346 0.77421 0.0
C1467 C 0.8351 0.12859 0.67695 0.0
H1468 H 0.80909 0.18343 0.63576 0.0
H1469 H 0.85123 0.16042 0.6151 0.0
H1470 H 0.79541 0.18775 0.6116 0.0
H1471 H 0.80923 0.17894 0.58913 0.0
H1472 H 0.8815 0.15602 0.73818 0.0
H1473 H 0.83917 0.17942 0.75811 0.0
H1474 H 0.89486 0.15206 0.76255 0.0
H1475 H 0.88077 0.16121 0.78476 0.0
H1476 H 0.33744 0.90316 0.06281 0.0
H1477 H 0.46427 0.94578 0.03051 0.0
H1478 H 0.36597 0.85994 0.05625 0.0
H1479 H 0.43615 0.98883 0.03882 0.0
H1480 H 0.42745 0.91359 0.03795 0.0
H1481 H 0.37266 0.93422 0.05273 0.0
C1482 C 0.35113 0.90017 0.05935 0.0
C1483 C 0.34861 0.87878 0.0605 0.0
C1484 C 0.42924 0.93004 0.03802 0.0
C1485 C 0.38915 0.91446 0.04866 0.0
C1486 C 0.4502 0.94841 0.03362 0.0
C1487 C 0.45313 0.96998 0.03381 0.0
C1488 C 0.41116 0.9333 0.04284 0.0
C1489 C 0.43452 0.97245 0.03839 0.0
C1490 C 0.37123 0.91794 0.05346 0.0
C1491 C 0.36691 0.876 0.05548 0.0
N1492 N 0.41441 0.9544 0.04273 0.0
N1493 N 0.38636 0.89359 0.04985 0.0
H1494 H 0.16291 0.51132 0.05595 0.0
H1495 H 0.02729 0.44801 0.03867 0.0
H1496 H 0.11786 0.44051 0.06189 0.0
H1497 H 0.07157 0.51897 0.03361 0.0
H1498 H 0.06075 0.44474 0.04596 0.0
H1499 H 0.13027 0.51429 0.04658 0.0
C1500 C 0.1462 0.49635 0.05524 0.0
C1501 C 0.14324 0.47561 0.05978 0.0
C1502 C 0.06324 0.46103 0.04313 0.0
C1503 C 0.10559 0.47898 0.04913 0.0
C1504 C 0.04416 0.46287 0.03893 0.0
C1505 C 0.04675 0.4837 0.03525 0.0
C1506 C 0.08512 0.48025 0.04391 0.0
C1507 C 0.06889 0.50251 0.03602 0.0
C1508 C 0.12752 0.4981 0.04993 0.0
C1509 C 0.12101 0.4569 0.05876 0.0
N1510 N 0.08721 0.50035 0.04026 0.0
N1511 N 0.10311 0.45904 0.05356 0.0
H1512 H 0.52813 0.66921 0.05603 0.0
H1513 H 0.55749 0.57032 0.04994 0.0
H1514 H 0.57824 0.66372 0.08293 0.0
H1515 H 0.50328 0.57152 0.02488 0.0
H1516 H 0.56628 0.60556 0.06116 0.0
H1517 H 0.51957 0.63444 0.04373 0.0
C1518 C 0.53731 0.66072 0.05939 0.0
C1519 C 0.55402 0.66956 0.07055 0.0
C1520 C 0.5525 0.5982 0.05317 0.0
C1521 C 0.54442 0.62979 0.05638 0.0
C1522 C 0.54745 0.578 0.04672 0.0
C1523 C 0.52963 0.56784 0.03637 0.0
C1524 C 0.53968 0.60851 0.04932 0.0
C1525 C 0.5173 0.57876 0.0327 0.0
C1526 C 0.53248 0.64091 0.0523 0.0
C1527 C 0.56553 0.65788 0.07425 0.0
N1528 N 0.52253 0.59847 0.03918 0.0
N1529 N 0.5605 0.63868 0.06722 0.0
H1530 H 0.91588 0.34261 0.96017 0.0
H1531 H 0.93336 0.44086 1.01456 0.0
H1532 H 0.8597 0.34287 0.98312 0.0
H1533 H 0.98887 0.43934 0.99159 0.0
H1534 H 0.90617 0.40486 1.00364 0.0
H1535 H 0.94274 0.37766 0.97204 0.0
C1536 C 0.90914 0.34988 0.96781 0.0
C1537 C 0.88536 0.33953 0.97065 0.0
C1538 C 0.92431 0.41237 1.00103 0.0
C1539 C 0.91627 0.38022 0.98421 0.0
C1540 C 0.93991 0.43293 1.00733 0.0
C1541 C 0.96358 0.4432 1.00412 0.0
C1542 C 0.93234 0.40195 0.99137 0.0
C1543 C 0.97087 0.43216 0.99444 0.0
C1544 C 0.92455 0.37006 0.97453 0.0
C1545 C 0.87779 0.35023 0.98045 0.0
N1546 N 0.95536 0.41223 0.98845 0.0
N1547 N 0.89316 0.36992 0.98686 0.0
H1548 H 0.65956 0.50004 0.98548 0.0
H1549 H 0.58947 0.56328 1.00371 0.0
H1550 H 0.68685 0.57078 0.97955 0.0
H1551 H 0.56046 0.49223 1.00846 0.0
H1552 H 0.62625 0.56652 0.99662 0.0
H1553 H 0.62417 0.49698 0.99548 0.0
C1554 C 0.65821 0.51497 0.98634 0.0
C1555 C 0.67631 0.53572 0.98157 0.0
C1556 C 0.61196 0.55022 0.99936 0.0
C1557 C 0.63561 0.53225 0.99297 0.0
C1558 C 0.591 0.54839 1.00346 0.0
C1559 C 0.57203 0.52753 1.0069 0.0
C1560 C 0.61396 0.53096 0.99843 0.0
C1561 C 0.57478 0.5087 1.00618 0.0
C1562 C 0.63792 0.51317 0.99201 0.0
C1563 C 0.67331 0.55438 0.98282 0.0
N1564 N 0.59534 0.51085 1.00198 0.0
N1565 N 0.65342 0.55219 0.98837 0.0
H1566 H 0.50387 0.16125 0.99477 0.0
H1567 H 0.47025 0.03273 0.99123 0.0
H1568 H 0.45808 0.11527 0.9622 0.0
H1569 H 0.52403 0.08132 0.01904 0.0
H1570 H 0.46379 0.06214 0.98152 0.0
H1571 H 0.50985 0.1317 1.00469 0.0
C1572 C 0.49519 0.14502 0.9896 0.0
C1573 C 0.48051 0.1409 0.97753 0.0
C1574 C 0.47694 0.06635 0.98979 0.0
C1575 C 0.48702 0.1067 0.98911 0.0
C1576 C 0.48064 0.04953 0.99538 0.0
C1577 C 0.49762 0.05444 1.0061 0.0
C1578 C 0.49026 0.0883 0.99495 0.0
C1579 C 0.51054 0.0766 1.01097 0.0
C1580 C 0.49851 0.12807 0.99536 0.0
C1581 C 0.46935 0.11926 0.9716 0.0
N1582 N 0.50658 0.09267 1.00537 0.0
N1583 N 0.47283 0.10302 0.97743 0.0
H1584 H 0.65595 0.15145 0.98525 0.0
H1585 H 0.58677 0.01974 1.00126 0.0
H1586 H 0.68396 0.10797 0.97787 0.0
H1587 H 0.55826 0.06263 1.00881 0.0
H1588 H 0.62329 0.05234 0.99405 0.0
H1589 H 0.62093 0.11975 0.9951 0.0
C1590 C 0.65486 0.1353 0.98575 0.0
C1591 C 0.67309 0.13251 0.98065 0.0
C1592 C 0.60917 0.05472 0.99743 0.0
C1593 C 0.6327 0.09591 0.99186 0.0
C1594 C 0.58835 0.03611 1.00159 0.0
C1595 C 0.56959 0.03851 1.00587 0.0
C1596 C 0.61122 0.07598 0.99728 0.0
C1597 C 0.57241 0.06006 1.00589 0.0
C1598 C 0.63475 0.11715 0.99134 0.0
C1599 C 0.67034 0.11099 0.98143 0.0
N1600 N 0.5928 0.07794 1.00161 0.0
N1601 N 0.6506 0.0936 0.9869 0.0
H1602 H 0.91461 0.58187 0.97968 0.0
H1603 H 0.95338 0.49455 1.00601 0.0
H1604 H 0.87285 0.51088 0.97284 0.0
H1605 H 0.99881 0.56567 1.00353 0.0
H1606 H 0.92128 0.49975 0.99792 0.0
H1607 H 0.94307 0.57571 0.99238 0.0
C1608 C 0.91137 0.56495 0.98085 0.0
C1609 C 0.89138 0.54692 0.97493 0.0
C1610 C 0.93821 0.51423 0.99931 0.0
C1611 C 0.92403 0.53969 0.98969 0.0
C1612 C 0.95648 0.51128 1.00404 0.0
C1613 C 0.97868 0.52978 1.00562 0.0
C1614 C 0.94227 0.53581 0.99607 0.0
C1615 C 0.98189 0.55102 1.00256 0.0
C1616 C 0.92764 0.56144 0.98817 0.0
C1617 C 0.88795 0.52532 0.97721 0.0
N1618 N 0.96394 0.55346 0.99794 0.0
N1619 N 0.90418 0.52232 0.98429 0.0
H1620 H 0.44395 0.34447 0.95787 0.0
H1621 H 0.52363 0.4384 1.01592 0.0
H1622 H 0.49637 0.34097 0.9835 0.0
H1623 H 0.46942 0.43934 0.9907 0.0
H1624 H 0.51378 0.40256 1.00473 0.0
H1625 H 0.45286 0.37893 0.97033 0.0
C1626 C 0.4572 0.35079 0.96623 0.0
C1627 C 0.46931 0.3396 0.96966 0.0
C1628 C 0.50401 0.4106 1.00171 0.0
C1629 C 0.47996 0.37959 0.98389 0.0
C1630 C 0.50955 0.43104 1.00814 0.0
C1631 C 0.49729 0.44195 1.00433 0.0
C1632 C 0.48612 0.401 0.99133 0.0
C1633 C 0.47942 0.43166 0.99402 0.0
C1634 C 0.46241 0.37063 0.97329 0.0
C1635 C 0.4867 0.34906 0.98038 0.0
N1636 N 0.47443 0.41186 0.9879 0.0
N1637 N 0.4915 0.36848 0.9871 0.0
H1638 H 0.10708 0.66912 0.08143 0.0
H1639 H 0.0912 0.57257 0.02591 0.0
H1640 H 0.16397 0.67021 0.05851 0.0
H1641 H 0.0354 0.57272 0.04945 0.0
H1642 H 0.1181 0.6085 0.03711 0.0
H1643 H 0.08074 0.63423 0.06923 0.0
C1644 C 0.11408 0.66218 0.07373 0.0
C1645 C 0.13791 0.67288 0.07099 0.0
C1646 C 0.09996 0.60069 0.03978 0.0
C1647 C 0.10757 0.63234 0.05703 0.0
C1648 C 0.08453 0.58017 0.03333 0.0
C1649 C 0.06087 0.56952 0.03664 0.0
C1650 C 0.09175 0.61068 0.04967 0.0
C1651 C 0.05341 0.58017 0.04651 0.0
C1652 C 0.09897 0.64208 0.06682 0.0
C1653 C 0.14583 0.66258 0.06111 0.0
N1654 N 0.06874 0.60005 0.05264 0.0
N1655 N 0.13073 0.64295 0.0545 0.0
H1656 H 0.36982 0.50608 0.06389 0.0
H1657 H 0.43765 0.44584 0.03517 0.0
H1658 H 0.33913 0.43473 0.0595 0.0
H1659 H 0.46619 0.51709 0.03311 0.0
H1660 H 0.40064 0.44166 0.04265 0.0
H1661 H 0.40449 0.51082 0.05154 0.0
C1662 C 0.3703 0.4914 0.06029 0.0
C1663 C 0.35148 0.46994 0.06284 0.0
C1664 C 0.41484 0.45822 0.04038 0.0
C1665 C 0.3912 0.47528 0.04865 0.0
C1666 C 0.43595 0.46058 0.03607 0.0
C1667 C 0.45487 0.48179 0.03336 0.0
C1668 C 0.41272 0.47727 0.04237 0.0
C1669 C 0.4519 0.50041 0.03488 0.0
C1670 C 0.39007 0.49414 0.05315 0.0
C1671 C 0.35304 0.4516 0.0577 0.0
N1672 N 0.43127 0.49774 0.03942 0.0
N1673 N 0.37256 0.45468 0.051 0.0
H1674 H 0.51416 0.84548 0.0467 0.0
H1675 H 0.55364 0.9757 0.04734 0.0
H1676 H 0.57082 0.89408 0.07274 0.0
H1677 H 0.49746 0.92673 0.02114 0.0
H1678 H 0.56026 0.94622 0.05677 0.0
H1679 H 0.50796 0.87513 0.03724 0.0
C1680 C 0.5254 0.86241 0.05039 0.0
C1681 C 0.54314 0.86722 0.06051 0.0
C1682 C 0.54654 0.94194 0.04891 0.0
C1683 C 0.53591 0.9014 0.04977 0.0
C1684 C 0.54274 0.95879 0.0435 0.0
C1685 C 0.52505 0.9538 0.03331 0.0
C1686 C 0.53253 0.91985 0.04416 0.0
C1687 C 0.51148 0.93151 0.02882 0.0
C1688 C 0.52176 0.87935 0.04502 0.0
C1689 C 0.5568 0.88948 0.06507 0.0
N1690 N 0.5155 0.91541 0.03427 0.0
N1691 N 0.55294 0.90572 0.05965 0.0
H1692 H 1.00452 0.23464 0.39305 0.0
H1693 H 0.13316 0.27863 0.36368 0.0
H1694 H 0.03419 0.19208 0.38815 0.0
H1695 H 0.10424 0.32114 0.37143 0.0
H1696 H 0.09611 0.24613 0.37041 0.0
H1697 H 0.03987 0.26581 0.38322 0.0
C1698 C 0.01838 0.23175 0.38981 0.0
C1699 C 0.01625 0.21058 0.3915 0.0
C1700 C 0.09778 0.26253 0.37051 0.0
C1701 C 0.05714 0.24651 0.38028 0.0
C1702 C 0.11888 0.28108 0.36652 0.0
C1703 C 0.12163 0.30258 0.36674 0.0
C1704 C 0.07938 0.26554 0.37493 0.0
C1705 C 0.10274 0.30482 0.37097 0.0
C1706 C 0.03867 0.24965 0.38425 0.0
C1707 C 0.03508 0.20811 0.38728 0.0
N1708 N 0.08248 0.28659 0.37489 0.0
N1709 N 0.05467 0.2258 0.38189 0.0
H1710 H 0.78302 0.76756 0.39551 0.0
H1711 H 0.73904 0.84961 0.36631 0.0
H1712 H 0.82819 0.83806 0.38832 0.0
H1713 H 0.69461 0.7789 0.37259 0.0
H1714 H 0.77221 0.84564 0.37327 0.0
H1715 H 0.75068 0.77133 0.38656 0.0
C1716 C 0.78615 0.78387 0.39214 0.0
C1717 C 0.80844 0.80252 0.39275 0.0
C1718 C 0.75525 0.83094 0.37302 0.0
C1719 C 0.77135 0.80693 0.38228 0.0
C1720 C 0.73633 0.83319 0.36891 0.0
C1721 C 0.71412 0.81445 0.36856 0.0
C1722 C 0.75187 0.80986 0.37706 0.0
C1723 C 0.7115 0.7937 0.37254 0.0
C1724 C 0.76767 0.78599 0.38691 0.0
C1725 C 0.81141 0.82315 0.38793 0.0
N1726 N 0.73011 0.79195 0.37661 0.0
N1727 N 0.79311 0.82481 0.38296 0.0
H1728 H 0.19814 0.98132 0.41545 0.0
H1729 H 0.20672 0.91965 0.34358 0.0
H1730 H 0.24175 0.0189 0.37924 0.0
H1731 H 0.18646 0.88964 0.38646 0.0
H1732 H 0.21463 0.95565 0.35425 0.0
H1733 H 0.18793 0.9469 0.40254 0.0
C1734 C 0.20565 0.98236 0.40478 0.0
C1735 C 0.22123 0.00311 0.39859 0.0
C1736 C 0.20845 0.94109 0.36124 0.0
C1737 C 0.20931 0.96344 0.38356 0.0
C1738 C 0.2039 0.9206 0.35517 0.0
C1739 C 0.19618 0.90165 0.36416 0.0
C1740 C 0.20471 0.94236 0.37629 0.0
C1741 C 0.19274 0.9038 0.3791 0.0
C1742 C 0.19974 0.96265 0.39737 0.0
C1743 C 0.22974 0.00329 0.38446 0.0
N1744 N 0.19694 0.92364 0.38463 0.0
N1745 N 0.22381 0.98373 0.37744 0.0
H1746 H 0.58377 0.67373 0.29386 0.0
H1747 H 0.6005 0.77202 0.34796 0.0
H1748 H 0.52668 0.67591 0.31405 0.0
H1749 H 0.65614 0.76981 0.32566 0.0
H1750 H 0.57323 0.73611 0.33688 0.0
H1751 H 0.61038 0.70802 0.30655 0.0
C1752 C 0.57677 0.68145 0.30093 0.0
C1753 C 0.55283 0.67193 0.30271 0.0
C1754 C 0.59142 0.74346 0.33447 0.0
C1755 C 0.58349 0.71142 0.31752 0.0
C1756 C 0.60705 0.76395 0.34085 0.0
C1757 C 0.63077 0.77403 0.33782 0.0
C1758 C 0.59951 0.73291 0.32496 0.0
C1759 C 0.6381 0.76282 0.32835 0.0
C1760 C 0.59204 0.70104 0.30826 0.0
C1761 C 0.54495 0.68253 0.31235 0.0
N1762 N 0.62258 0.74297 0.32228 0.0
N1763 N 0.56021 0.70174 0.31932 0.0
H1764 H 0.32649 0.82638 0.31676 0.0
H1765 H 0.2464 0.87904 0.33524 0.0
H1766 H 0.34944 0.89665 0.31299 0.0
H1767 H 0.22306 0.80874 0.33729 0.0
H1768 H 0.28534 0.88635 0.32935 0.0
H1769 H 0.28964 0.82006 0.32627 0.0
C1770 C 0.32389 0.84054 0.31801 0.0
C1771 C 0.34123 0.86211 0.31401 0.0
C1772 C 0.27184 0.86934 0.33134 0.0
C1773 C 0.29872 0.85489 0.32484 0.0
C1774 C 0.24973 0.86523 0.33487 0.0
C1775 C 0.23184 0.84336 0.33729 0.0
C1776 C 0.27595 0.85136 0.32988 0.0
C1777 C 0.23663 0.82589 0.33593 0.0
C1778 C 0.30274 0.83688 0.32341 0.0
C1779 C 0.33655 0.87969 0.3157 0.0
N1780 N 0.25822 0.83025 0.33235 0.0
N1781 N 0.31579 0.87569 0.32096 0.0
H1782 H 0.12593 0.4487 0.29543 0.0
H1783 H 0.19182 0.41415 0.35405 0.0
H1784 H 0.16747 0.4917 0.33058 0.0
H1785 H 0.13987 0.36712 0.32458 0.0
H1786 H 0.18449 0.4432 0.34483 0.0
H1787 H 0.13214 0.41913 0.30517 0.0
C1788 C 0.13624 0.45195 0.30524 0.0
C1789 C 0.14617 0.47288 0.31215 0.0
C1790 C 0.1746 0.4265 0.34043 0.0
C1791 C 0.15366 0.43901 0.32325 0.0
C1792 C 0.17869 0.40981 0.34576 0.0
C1793 C 0.16627 0.38798 0.34025 0.0
C1794 C 0.15813 0.4215 0.32936 0.0
C1795 C 0.14984 0.38364 0.32923 0.0
C1796 C 0.13987 0.43504 0.31075 0.0
C1797 C 0.15975 0.47607 0.32469 0.0
N1798 N 0.1463 0.40023 0.32414 0.0
N1799 N 0.1631 0.45938 0.3298 0.0
H1800 H 0.35387 0.44152 0.31113 0.0
H1801 H 0.22657 0.39619 0.34334 0.0
H1802 H 0.3252 0.48409 0.3199 0.0
H1803 H 0.25568 0.35422 0.33414 0.0
H1804 H 0.26329 0.42896 0.33648 0.0
H1805 H 0.31867 0.40974 0.32062 0.0
C1806 C 0.34015 0.44421 0.31496 0.0
C1807 C 0.3426 0.46562 0.3146 0.0
C1808 C 0.26175 0.41262 0.33609 0.0
C1809 C 0.30209 0.42911 0.32574 0.0
C1810 C 0.24083 0.39391 0.34015 0.0
C1811 C 0.23821 0.37247 0.33956 0.0
C1812 C 0.28009 0.40985 0.33118 0.0
C1813 C 0.25707 0.37048 0.33489 0.0
C1814 C 0.32007 0.42603 0.32051 0.0
C1815 C 0.32428 0.46801 0.32005 0.0
N1816 N 0.27713 0.38886 0.33086 0.0
N1817 N 0.30484 0.45001 0.32533 0.0
H1818 H 0.53667 0.83829 0.3087 0.0
H1819 H 0.66696 0.89695 0.33709 0.0
H1820 H 0.58136 0.90962 0.31131 0.0
H1821 H 0.62095 0.82594 0.33953 0.0
H1822 H 0.63482 0.9018 0.32909 0.0
H1823 H 0.5662 0.83318 0.32118 0.0
C1824 C 0.55263 0.85289 0.31194 0.0
C1825 C 0.55651 0.87444 0.30885 0.0
C1826 C 0.63159 0.88515 0.33155 0.0
C1827 C 0.59044 0.86868 0.32318 0.0
C1828 C 0.64994 0.88241 0.33614 0.0
C1829 C 0.64651 0.86108 0.33917 0.0
C1830 C 0.60966 0.86634 0.3296 0.0
C1831 C 0.62423 0.84271 0.33756 0.0
C1832 C 0.56944 0.84994 0.31914 0.0
C1833 C 0.57743 0.8927 0.31353 0.0
N1834 N 0.60666 0.84575 0.33278 0.0
N1835 N 0.59362 0.88939 0.32032 0.0
H1836 H 0.16464 0.67486 0.31247 0.0
H1837 H 0.12326 0.76318 0.32916 0.0
H1838 H 0.09945 0.66718 0.29841 0.0
H1839 H 0.18634 0.76957 0.34641 0.0
H1840 H 0.11374 0.72714 0.31872 0.0
H1841 H 0.1723 0.70846 0.32599 0.0
C1842 C 0.15183 0.68007 0.31233 0.0
C1843 C 0.13145 0.66822 0.30413 0.0
C1844 C 0.12962 0.73631 0.32485 0.0
C1845 C 0.14024 0.70686 0.31948 0.0
C1846 C 0.13513 0.75698 0.33075 0.0
C1847 C 0.1558 0.76958 0.33847 0.0
C1848 C 0.14492 0.72808 0.32662 0.0
C1849 C 0.17023 0.76043 0.34051 0.0
C1850 C 0.15627 0.69934 0.32 0.0
C1851 C 0.11561 0.67597 0.30429 0.0
N1852 N 0.16463 0.74033 0.3345 0.0
N1853 N 0.12039 0.69478 0.31174 0.0
H1854 H 0.77642 0.99864 0.41552 0.0
H1855 H 0.75895 0.9032 0.35863 0.0
H1856 H 0.83274 1.00043 0.39146 0.0
H1857 H 0.70375 0.90377 0.38266 0.0
H1858 H 0.7862 0.93913 0.36969 0.0
H1859 H 0.7497 0.96435 0.40288 0.0
C1860 C 0.78322 0.99179 0.4076 0.0
C1861 C 0.80698 0.00242 0.40471 0.0
C1862 C 0.7681 0.93142 0.37248 0.0
C1863 C 0.77619 0.96292 0.38996 0.0
C1864 C 0.75248 0.91091 0.36612 0.0
C1865 C 0.7289 0.90036 0.36963 0.0
C1866 C 0.76016 0.94148 0.38249 0.0
C1867 C 0.72169 0.91112 0.37958 0.0
C1868 C 0.76788 0.9722 0.4003 0.0
C1869 C 0.81459 0.99291 0.39403 0.0
N1870 N 0.73721 0.93097 0.38564 0.0
N1871 N 0.79928 0.97366 0.38712 0.0
H1872 H 0.03896 0.83635 0.40537 0.0
H1873 H 0.09842 0.78382 0.35541 0.0
H1874 H 1.0024 0.76931 0.3883 0.0
H1875 H 0.1354 0.84822 0.37601 0.0
H1876 H 0.06205 0.7799 0.36461 0.0
H1877 H 0.07335 0.84263 0.39211 0.0
C1878 C 0.03812 0.82293 0.39882 0.0
C1879 C 0.01772 0.80216 0.39812 0.0
C1880 C 0.07807 0.79505 0.36693 0.0
C1881 C 0.05722 0.80933 0.38275 0.0
C1882 C 0.09875 0.79731 0.36162 0.0
C1883 C 0.11972 0.81662 0.36463 0.0
C1884 C 0.0785 0.81204 0.37562 0.0
C1885 C 0.11945 0.83335 0.37312 0.0
C1886 C 0.05778 0.82657 0.39118 0.0
C1887 C 0.01763 0.78562 0.38915 0.0
N1888 N 0.09918 0.83067 0.37833 0.0
N1889 N 0.03709 0.78949 0.38193 0.0
H1890 H 0.18597 0.17944 0.37734 0.0
H1891 H 0.22347 0.30914 0.37976 0.0
H1892 H 0.24315 0.2281 0.403 0.0
H1893 H 0.16654 0.2601 0.35408 0.0
H1894 H 0.23095 0.27984 0.38845 0.0
H1895 H 0.17876 0.20886 0.36871 0.0
C1896 C 0.19712 0.19633 0.38112 0.0
C1897 C 0.2153 0.20123 0.39088 0.0
C1898 C 0.21687 0.27551 0.38087 0.0
C1899 C 0.20691 0.23514 0.38112 0.0
C1900 C 0.21257 0.29225 0.37589 0.0
C1901 C 0.19445 0.28718 0.36604 0.0
C1902 C 0.20293 0.25346 0.37602 0.0
C1903 C 0.18091 0.26493 0.36148 0.0
C1904 C 0.19289 0.21314 0.37623 0.0
C1905 C 0.22881 0.22343 0.3956 0.0
N1906 N 0.18543 0.24894 0.3665 0.0
N1907 N 0.22438 0.23954 0.39065 0.0
H1908 H 0.6687 0.56733 0.72672 0.0
H1909 H 0.79703 0.61103 0.69695 0.0
H1910 H 0.6979 0.52452 0.72097 0.0
H1911 H 0.76861 0.65385 0.70516 0.0
H1912 H 0.75994 0.57863 0.70363 0.0
H1913 H 0.70413 0.59858 0.71703 0.0
C1914 C 0.68247 0.56441 0.72333 0.0
C1915 C 0.6802 0.54315 0.72474 0.0
C1916 C 0.76172 0.59508 0.70384 0.0
C1917 C 0.72116 0.57915 0.71368 0.0
C1918 C 0.78286 0.61357 0.69989 0.0
C1919 C 0.78576 0.63513 0.70023 0.0
C1920 C 0.74343 0.59818 0.70838 0.0
C1921 C 0.767 0.63748 0.70459 0.0
C1922 C 0.7028 0.58235 0.71785 0.0
C1923 C 0.69891 0.54062 0.72032 0.0
N1924 N 0.74668 0.61929 0.70849 0.0
N1925 N 0.71854 0.55835 0.71502 0.0
H1926 H 0.4948 0.17594 0.72209 0.0
H1927 H 0.3599 0.11218 0.70264 0.0
H1928 H 0.45005 0.10488 0.727 0.0
H1929 H 0.40404 0.18323 0.69798 0.0
H1930 H 0.39322 0.10904 0.71043 0.0
H1931 H 0.46238 0.17883 0.7122 0.0
C1932 C 0.47821 0.1609 0.72104 0.0
C1933 C 0.47526 0.14011 0.72544 0.0
C1934 C 0.39572 0.12532 0.70757 0.0
C1935 C 0.43786 0.14339 0.7142 0.0
C1936 C 0.37671 0.12709 0.70309 0.0
C1937 C 0.3793 0.14792 0.69939 0.0
C1938 C 0.41751 0.1446 0.70863 0.0
C1939 C 0.40137 0.16678 0.7004 0.0
C1940 C 0.45965 0.1626 0.71544 0.0
C1941 C 0.45317 0.12131 0.72399 0.0
N1942 N 0.41961 0.16468 0.70494 0.0
N1943 N 0.4354 0.12341 0.71851 0.0
H1944 H 0.86069 0.33405 0.72266 0.0
H1945 H 0.88942 0.23469 0.71676 0.0
H1946 H 0.91052 0.32832 0.74971 0.0
H1947 H 0.83565 0.23634 0.69148 0.0
H1948 H 0.8983 0.26994 0.72802 0.0
H1949 H 0.85204 0.29923 0.7104 0.0
C1950 C 0.86979 0.3255 0.72606 0.0
C1951 C 0.88645 0.3343 0.73725 0.0
C1952 C 0.8846 0.26268 0.71998 0.0
C1953 C 0.87673 0.29445 0.72312 0.0
C1954 C 0.87949 0.24247 0.7135 0.0
C1955 C 0.86177 0.23244 0.70307 0.0
C1956 C 0.87193 0.27312 0.71607 0.0
C1957 C 0.84959 0.24349 0.69936 0.0
C1958 C 0.86491 0.30566 0.71899 0.0
C1959 C 0.89785 0.32252 0.74101 0.0
N1960 N 0.85487 0.2632 0.70586 0.0
N1961 N 0.89277 0.30329 0.73399 0.0
H1962 H 0.19045 0.00614 0.64839 0.0
H1963 H 0.32219 0.10404 0.65534 0.0
H1964 H 0.2469 0.00766 0.62461 0.0
H1965 H 0.26617 0.10481 0.67819 0.0
H1966 H 0.29476 0.06823 0.64457 0.0
H1967 H 0.21769 0.04169 0.65987 0.0
C1968 C 0.20853 0.01392 0.64554 0.0
C1969 C 0.21629 0.00371 0.6355 0.0
C1970 C 0.28843 0.07616 0.65198 0.0
C1971 C 0.24769 0.04448 0.64874 0.0
C1972 C 0.30413 0.09669 0.65816 0.0
C1973 C 0.29659 0.10754 0.6678 0.0
C1974 C 0.26487 0.06624 0.65538 0.0
C1975 C 0.27289 0.09703 0.67096 0.0
C1976 C 0.22411 0.0342 0.65216 0.0
C1977 C 0.24004 0.01457 0.63243 0.0
N1978 N 0.25791 0.07702 0.66477 0.0
N1979 N 0.2548 0.03428 0.63898 0.0
H1980 H 0.99112 0.16396 0.65173 0.0
H1981 H 0.9217 0.22771 0.67042 0.0
H1982 H 0.01875 0.23479 0.64602 0.0
H1983 H 0.8923 0.15659 0.67498 0.0
H1984 H 0.95838 0.23077 0.66326 0.0
H1985 H 0.95585 0.16103 0.66184 0.0
C1986 C 0.98987 0.17894 0.65266 0.0
C1987 C 1.00803 0.19967 0.64792 0.0
C1988 C 0.94403 0.21449 0.66597 0.0
C1989 C 0.96746 0.19636 0.65945 0.0
C1990 C 0.92312 0.21276 0.67011 0.0
C1991 C 0.90407 0.19193 0.67351 0.0
C1992 C 0.94589 0.19516 0.66497 0.0
C1993 C 0.90669 0.17303 0.67273 0.0
C1994 C 0.96964 0.17721 0.65839 0.0
C1995 C 1.00516 0.2184 0.64927 0.0
N1996 N 0.92719 0.17508 0.66849 0.0
N1997 N 0.98534 0.21628 0.65488 0.0
H1998 H 0.84337 0.82935 0.6603 0.0
H1999 H 0.8022 0.69872 0.65919 0.0
H2000 H 0.78604 0.7813 0.63445 0.0
H2001 H 0.85863 0.74701 0.68555 0.0
H2002 H 0.79596 0.72856 0.64999 0.0
H2003 H 0.84903 0.79931 0.66966 0.0
C2004 C 0.83185 0.81247 0.65664 0.0
C2005 C 0.81411 0.80794 0.64659 0.0
C2006 C 0.80965 0.73261 0.65783 0.0
C2007 C 0.82073 0.7733 0.6572 0.0
C2008 C 0.81324 0.71555 0.66311 0.0
C2009 C 0.83088 0.72025 0.67328 0.0
C2010 C 0.82384 0.75462 0.66269 0.0
C2011 C 0.84463 0.74246 0.67788 0.0
C2012 C 0.8352 0.7953 0.66194 0.0
C2013 C 0.80009 0.78571 0.64205 0.0
N2014 N 0.84083 0.75876 0.67256 0.0
N2015 N 0.80367 0.76926 0.6474 0.0
H2016 H 0.98872 0.81627 0.65197 0.0
H2017 H 0.91926 0.68455 0.66788 0.0
H2018 H 0.01618 0.77249 0.64394 0.0
H2019 H 0.89109 0.72765 0.67573 0.0
H2020 H 0.9558 0.71708 0.66062 0.0
H2021 H 0.95382 0.78467 0.66203 0.0
C2022 C 0.98753 0.80006 0.65238 0.0
C2023 C 1.00556 0.79715 0.64702 0.0
C2024 C 0.94175 0.71952 0.66408 0.0
C2025 C 0.96532 0.76069 0.65849 0.0
C2026 C 0.92092 0.70095 0.66828 0.0
C2027 C 0.90225 0.70344 0.67264 0.0
C2028 C 0.94389 0.74081 0.66399 0.0
C2029 C 0.90517 0.72502 0.67273 0.0
C2030 C 0.96749 0.78198 0.65809 0.0
C2031 C 1.0027 0.77558 0.6477 0.0
N2032 N 0.92556 0.74285 0.66843 0.0
N2033 N 0.98304 0.75826 0.65329 0.0
H2034 H 0.20315 0.17412 0.63825 0.0
H2035 H 0.33233 0.23044 0.66816 0.0
H2036 H 0.24742 0.24507 0.64389 0.0
H2037 H 0.28597 0.15943 0.6696 0.0
H2038 H 0.30042 0.2358 0.66045 0.0
H2039 H 0.23184 0.16791 0.65093 0.0
C2040 C 0.21872 0.1884 0.6423 0.0
C2041 C 0.22292 0.2102 0.63978 0.0
C2042 C 0.29705 0.21902 0.66263 0.0
C2043 C 0.25603 0.20318 0.65416 0.0
C2044 C 0.31528 0.21599 0.66705 0.0
C2045 C 0.3117 0.19453 0.66971 0.0
C2046 C 0.27506 0.20038 0.66045 0.0
C2047 C 0.28936 0.1763 0.6679 0.0
C2048 C 0.23516 0.18482 0.64949 0.0
C2049 C 0.24358 0.22799 0.64522 0.0
N2050 N 0.27189 0.17962 0.66326 0.0
N2051 N 0.25935 0.22409 0.65201 0.0
H2052 H 0.83345 0.00769 0.6479 0.0
H2053 H 0.80102 0.10416 0.65713 0.0
H2054 H 0.77925 0.01059 0.62403 0.0
H2055 H 0.85558 0.10293 0.68174 0.0
H2056 H 0.79223 0.06907 0.64569 0.0
H2057 H 0.84101 0.04143 0.66126 0.0
C2058 C 0.82303 0.01529 0.64553 0.0
C2059 C 0.8058 0.00632 0.6347 0.0
C2060 C 0.80608 0.07637 0.65364 0.0
C2061 C 0.81449 0.04507 0.6499 0.0
C2062 C 0.81114 0.0965 0.66021 0.0
C2063 C 0.82909 0.10663 0.67048 0.0
C2064 C 0.81906 0.06613 0.65725 0.0
C2065 C 0.84149 0.09572 0.67397 0.0
C2066 C 0.82745 0.03464 0.65311 0.0
C2067 C 0.793 0.01707 0.63205 0.0
N2068 N 0.8363 0.07612 0.66734 0.0
N2069 N 0.79764 0.03581 0.63954 0.0
H2070 H 0.4987 0.33368 0.72327 0.0
H2071 H 0.36719 0.23659 0.71325 0.0
H2072 H 0.44107 0.33066 0.74643 0.0
H2073 H 0.42374 0.23693 0.69035 0.0
H2074 H 0.39424 0.27196 0.72459 0.0
H2075 H 0.47185 0.29953 0.71009 0.0
C2076 C 0.48043 0.32597 0.72552 0.0
C2077 C 0.47223 0.33505 0.73611 0.0
C2078 C 0.40079 0.2644 0.71704 0.0
C2079 C 0.44138 0.29581 0.72111 0.0
C2080 C 0.38529 0.24411 0.71053 0.0
C2081 C 0.39308 0.23365 0.70074 0.0
C2082 C 0.42444 0.2745 0.71385 0.0
C2083 C 0.41685 0.24439 0.69771 0.0
C2084 C 0.46511 0.30639 0.71804 0.0
C2085 C 0.44833 0.32414 0.7386 0.0
N2086 N 0.43166 0.26417 0.70426 0.0
N2087 N 0.43385 0.30518 0.73122 0.0
H2088 H 0.70221 0.17148 0.73038 0.0
H2089 H 0.76935 0.11063 0.70147 0.0
H2090 H 0.67119 0.10008 0.72605 0.0
H2091 H 0.79836 0.18195 0.69962 0.0
H2092 H 0.73246 0.10666 0.709 0.0
H2093 H 0.73678 0.17602 0.718 0.0
C2094 C 0.7026 0.15675 0.72678 0.0
C2095 C 0.68371 0.13534 0.72936 0.0
C2096 C 0.74673 0.1232 0.70676 0.0
C2097 C 0.72331 0.14045 0.71513 0.0
C2098 C 0.76778 0.12544 0.70243 0.0
C2099 C 0.78681 0.14659 0.69976 0.0
C2100 C 0.74477 0.14233 0.70882 0.0
C2101 C 0.784 0.1653 0.70135 0.0
C2102 C 0.72231 0.15938 0.71963 0.0
C2103 C 0.68515 0.11693 0.72422 0.0
N2104 N 0.76342 0.16275 0.70591 0.0
N2105 N 0.70462 0.1199 0.71751 0.0
H2106 H 0.90474 0.55983 0.74015 0.0
H2107 H 0.82929 0.59169 0.68743 0.0
H2108 H 0.84811 0.51209 0.7137 0.0
H2109 H 0.88572 0.63986 0.71384 0.0
H2110 H 0.83628 0.56248 0.69678 0.0
H2111 H 0.89803 0.58935 0.73081 0.0
C2112 C 0.89081 0.55549 0.73246 0.0
C2113 C 0.87703 0.53336 0.7277 0.0
C2114 C 0.8472 0.57945 0.70051 0.0
C2115 C 0.8694 0.56723 0.71681 0.0
C2116 C 0.8433 0.59621 0.69509 0.0
C2117 C 0.85706 0.6184 0.69972 0.0
C2118 C 0.86495 0.58477 0.71071 0.0
C2119 C 0.87468 0.62305 0.70991 0.0
C2120 C 0.88708 0.57241 0.72705 0.0
C2121 C 0.85943 0.5289 0.71753 0.0
N2122 N 0.8781 0.60641 0.71505 0.0
N2123 N 0.85615 0.54563 0.71245 0.0
H2124 H 0.44617 0.93265 0.17966 0.0
H2125 H 0.55491 0.01136 0.12934 0.0
H2126 H 0.51678 0.95674 0.19261 0.0
H2127 H 0.4846 0.98225 0.11437 0.0
H2128 H 0.5411 0.99116 0.15245 0.0
H2129 H 0.45966 0.95006 0.15566 0.0
C2130 C 0.4645 0.94139 0.17746 0.0
C2131 C 0.48031 0.94317 0.18831 0.0
C2132 C 0.52865 0.98908 0.14411 0.0
C2133 C 0.49594 0.96356 0.16075 0.0
C2134 C 0.53653 1.00071 0.1309 0.0
C2135 C 0.52091 0.99869 0.11988 0.0
C2136 C 0.50488 0.9753 0.14646 0.0
C2137 C 0.4973 0.98427 0.12249 0.0
C2138 C 0.4722 0.95147 0.16373 0.0
C2139 C 0.50389 0.95516 0.18477 0.0
N2140 N 0.49001 0.97328 0.13553 0.0
N2141 N 0.51094 0.9649 0.17136 0.0
H2142 H 0.08703 0.5509 0.17987 0.0
H2143 H 0.97458 0.4786 0.13058 0.0
H2144 H 0.02674 0.49093 0.19473 0.0
H2145 H 0.03591 0.53603 0.1141 0.0
H2146 H 0.9935 0.4834 0.15424 0.0
H2147 H 0.06862 0.54648 0.15592 0.0
C2148 C 0.06988 0.53688 0.17814 0.0
C2149 C 0.05847 0.52123 0.18937 0.0
C2150 C 1.00288 0.49497 0.14547 0.0
C2151 C 0.03735 0.51598 0.1619 0.0
C2152 C 0.99203 0.4923 0.13195 0.0
C2153 C 1.00359 0.507 0.12031 0.0
C2154 C 0.02554 0.51255 0.14749 0.0
C2155 C 0.02637 0.52419 0.1227 0.0
C2156 C 0.05944 0.53429 0.16442 0.0
C2157 C 0.03637 0.50324 0.18639 0.0
N2158 N 0.03655 0.52655 0.13603 0.0
N2159 N 0.02657 0.50115 0.173 0.0
H2160 H 0.51325 0.54063 0.1961 0.0
H2161 H 0.48291 0.49683 0.11323 0.0
H2162 H 0.44475 0.51138 0.17783 0.0
H2163 H 0.55145 0.52758 0.13156 0.0
H2164 H 0.46882 0.50348 0.13635 0.0
H2165 H 0.5277 0.53742 0.17221 0.0
C2166 C 0.50124 0.53373 0.18706 0.0
C2167 C 0.47767 0.52621 0.1891 0.0
C2168 C 0.48696 0.50884 0.13529 0.0
C2169 C 0.49417 0.52218 0.16159 0.0
C2170 C 0.49506 0.50517 0.12204 0.0
C2171 C 0.51842 0.51148 0.1204 0.0
C2172 C 0.50229 0.51894 0.14705 0.0
C2173 C 0.53323 0.52201 0.13234 0.0
C2174 C 0.50951 0.53176 0.1734 0.0
C2175 C 0.46297 0.51708 0.17692 0.0
N2176 N 0.52493 0.52531 0.14511 0.0
N2177 N 0.47143 0.51528 0.16374 0.0
H2178 H 0.93869 0.49451 0.86314 0.0
H2179 H 0.03165 0.48034 0.91057 0.0
H2180 H 0.97965 0.46744 0.84592 0.0
H2181 H 0.99471 0.51222 0.92681 0.0
H2182 H 1.01099 0.47334 0.88736 0.0
H2183 H 0.95718 0.49894 0.88697 0.0
C2184 C 0.9516 0.48953 0.86433 0.0
C2185 C 0.95768 0.48071 0.85239 0.0
C2186 C 1.00734 0.48182 0.89601 0.0
C2187 C 0.97884 0.48557 0.87983 0.0
C2188 C 0.01924 0.48594 0.90927 0.0
C2189 C 0.01511 0.49707 0.92071 0.0
C2190 C 0.99109 0.48883 0.89406 0.0
C2191 C 0.99839 0.50344 0.91841 0.0
C2192 C 0.96209 0.49197 0.87799 0.0
C2193 C 0.97421 0.47412 0.85478 0.0
N2194 N 0.9871 0.49932 0.90536 0.0
N2195 N 0.98425 0.47677 0.86817 0.0
H2196 H 0.50998 0.46733 0.84436 0.0
H2197 H 0.54241 0.51163 0.92698 0.0
H2198 H 0.57853 0.49499 0.86231 0.0
H2199 H 0.47357 0.48174 0.90921 0.0
H2200 H 0.55572 0.50424 0.90381 0.0
H2201 H 0.49613 0.47105 0.86834 0.0
C2202 C 0.52212 0.47398 0.85335 0.0
C2203 C 0.54554 0.48093 0.85119 0.0
C2204 C 0.53768 0.49923 0.905 0.0
C2205 C 0.52974 0.48555 0.8788 0.0
C2206 C 0.53002 0.50332 0.91829 0.0
C2207 C 0.50682 0.49747 0.9201 0.0
C2208 C 0.52206 0.48918 0.89337 0.0
C2209 C 0.49169 0.48697 0.9083 0.0
C2210 C 0.5142 0.47624 0.86706 0.0
C2211 C 0.56042 0.48975 0.86331 0.0
N2212 N 0.49957 0.48326 0.89548 0.0
N2213 N 0.55231 0.49186 0.87653 0.0
H2214 H 0.52831 0.0886 0.86127 0.0
H2215 H 0.51044 0.98285 0.90806 0.0
H2216 H 0.53955 0.03663 0.84418 0.0
H2217 H 0.50453 0.03704 0.92669 0.0
H2218 H 0.52236 0.0031 0.88485 0.0
H2219 H 0.52106 0.07102 0.88545 0.0
C2220 C 0.52953 0.07365 0.86259 0.0
C2221 C 0.53448 0.0641 0.85054 0.0
C2222 C 0.51858 0.01067 0.89401 0.0
C2223 C 0.5258 0.04362 0.87831 0.0
C2224 C 0.51167 0.99906 0.90728 0.0
C2225 C 0.50624 0.00813 0.91935 0.0
C2226 C 0.51998 0.03157 0.89265 0.0
C2227 C 0.50861 0.02941 0.91772 0.0
C2228 C 0.52523 0.06353 0.87642 0.0
C2229 C 0.53541 0.04446 0.853 0.0
N2230 N 0.5151 0.04031 0.9046 0.0
N2231 N 0.53103 0.03488 0.86654 0.0
H2232 H 0.1412 0.30951 0.52843 0.0
H2233 H 0.18077 0.30161 0.44671 0.0
H2234 H 0.14553 0.25273 0.51309 0.0
H2235 H 0.18246 0.36006 0.46466 0.0
H2236 H 0.16568 0.28229 0.47019 0.0
H2237 H 0.15441 0.32719 0.50456 0.0
C2238 C 0.1448 0.30066 0.52001 0.0
C2239 C 0.1421 0.27949 0.52283 0.0
C2240 C 0.16933 0.29933 0.46896 0.0
C2241 C 0.15754 0.29989 0.49528 0.0
C2242 C 0.17779 0.31032 0.45553 0.0
C2243 C 0.18307 0.33258 0.45371 0.0
C2244 C 0.16594 0.31061 0.48064 0.0
C2245 C 0.17901 0.34305 0.46559 0.0
C2246 C 0.15249 0.31086 0.50636 0.0
C2247 C 0.14752 0.26912 0.5115 0.0
N2248 N 0.17075 0.33202 0.47848 0.0
N2249 N 0.1549 0.27938 0.49823 0.0
H2250 H 0.75634 0.88396 0.51309 0.0
H2251 H 0.64344 0.81104 0.46428 0.0
H2252 H 0.69611 0.82428 0.52834 0.0
H2253 H 0.70473 0.86805 0.44737 0.0
H2254 H 0.66257 0.81617 0.48789 0.0
H2255 H 0.73778 0.87916 0.48915 0.0
C2256 C 0.73918 0.86992 0.51145 0.0
C2257 C 0.72783 0.85447 0.52279 0.0
C2258 C 0.6719 0.82757 0.47904 0.0
C2259 C 0.70653 0.84878 0.49533 0.0
C2260 C 0.66092 0.82471 0.46554 0.0
C2261 C 0.67241 0.83921 0.4538 0.0
C2262 C 0.6946 0.84514 0.48093 0.0
C2263 C 0.69524 0.85636 0.45606 0.0
C2264 C 0.72865 0.86711 0.49774 0.0
C2265 C 0.7057 0.83645 0.51991 0.0
N2266 N 0.70554 0.85891 0.46936 0.0
N2267 N 0.69582 0.83414 0.50653 0.0
H2268 H 0.177 0.86998 0.52795 0.0
H2269 H 0.1456 0.82794 0.44478 0.0
H2270 H 0.10893 0.84387 0.50951 0.0
H2271 H 0.21374 0.85523 0.46332 0.0
H2272 H 0.13218 0.83525 0.46794 0.0
H2273 H 0.19104 0.8663 0.50403 0.0
C2274 C 0.16501 0.86368 0.51887 0.0
C2275 C 0.14166 0.85716 0.52087 0.0
C2276 C 0.15009 0.8397 0.46692 0.0
C2277 C 0.15767 0.85258 0.49332 0.0
C2278 C 0.15782 0.83565 0.45364 0.0
C2279 C 0.18084 0.84079 0.45205 0.0
C2280 C 0.16546 0.84901 0.47876 0.0
C2281 C 0.19574 0.85056 0.46406 0.0
C2282 C 0.17303 0.86144 0.50519 0.0
C2283 C 0.12697 0.84878 0.50863 0.0
N2284 N 0.1878 0.85426 0.47685 0.0
N2285 N 0.13518 0.84669 0.49544 0.0
H2286 H 0.64595 0.79945 0.17843 0.0
H2287 H 0.66186 0.84501 0.26076 0.0
H2288 H 0.6082 0.82948 0.19635 0.0
H2289 H 0.69718 0.81222 0.24331 0.0
H2290 H 0.64111 0.83841 0.23756 0.0
H2291 H 0.66391 0.80291 0.20233 0.0
C2292 C 0.64124 0.80658 0.1874 0.0
C2293 C 0.62554 0.81425 0.18528 0.0
C2294 C 0.65336 0.8326 0.23882 0.0
C2295 C 0.64639 0.81856 0.21276 0.0
C2296 C 0.66513 0.83625 0.25212 0.0
C2297 C 0.68144 0.82927 0.25404 0.0
C2298 C 0.65787 0.8219 0.22729 0.0
C2299 C 0.6851 0.81827 0.24231 0.0
C2300 C 0.65164 0.80869 0.20106 0.0
C2301 C 0.62046 0.82367 0.19735 0.0
N2302 N 0.6735 0.815 0.22947 0.0
N2303 N 0.63088 0.8256 0.21051 0.0
H2304 H 0.24965 0.84679 0.19523 0.0
H2305 H 0.14151 0.81577 0.24749 0.0
H2306 H 0.17893 0.8024 0.18277 0.0
H2307 H 0.21099 0.86654 0.25812 0.0
H2308 H 0.15554 0.80823 0.2248 0.0
H2309 H 0.23641 0.8519 0.21908 0.0
C2310 C 0.23132 0.83813 0.19744 0.0
C2311 C 0.21542 0.82426 0.18678 0.0
C2312 C 0.16777 0.82099 0.23209 0.0
C2313 C 0.20013 0.82986 0.21436 0.0
C2314 C 0.15976 0.82539 0.24507 0.0
C2315 C 0.175 0.8421 0.25473 0.0
C2316 C 0.19132 0.83327 0.22861 0.0
C2317 C 0.19855 0.8535 0.25109 0.0
C2318 C 0.22379 0.84099 0.21115 0.0
C2319 C 0.19192 0.81311 0.19057 0.0
N2320 N 0.20595 0.84899 0.2383 0.0
N2321 N 0.18503 0.81623 0.20397 0.0
H2322 H 0.16029 0.37031 0.17753 0.0
H2323 H 0.20431 0.36428 0.25835 0.0
H2324 H 0.22895 0.41679 0.19262 0.0
H2325 H 0.13428 0.32365 0.24329 0.0
H2326 H 0.21414 0.38412 0.23476 0.0
H2327 H 0.15114 0.35293 0.20167 0.0
C2328 C 0.17355 0.37679 0.18589 0.0
C2329 C 0.19552 0.39497 0.18292 0.0
C2330 C 0.19662 0.3709 0.23667 0.0
C2331 C 0.18497 0.37517 0.2109 0.0
C2332 C 0.19095 0.35964 0.25018 0.0
C2333 C 0.16846 0.34204 0.25282 0.0
C2334 C 0.17968 0.36452 0.22571 0.0
C2335 C 0.15195 0.33672 0.24171 0.0
C2336 C 0.16824 0.36693 0.19976 0.0
C2337 C 0.21176 0.40288 0.19439 0.0
N2338 N 0.15791 0.34779 0.2287 0.0
N2339 N 0.20621 0.39288 0.20784 0.0
H2340 H 0.77728 0.59029 0.84412 0.0
H2341 H 0.8864 0.6778 0.79705 0.0
H2342 H 0.84629 0.62798 0.86151 0.0
H2343 H 0.81678 0.64466 0.78037 0.0
H2344 H 0.87226 0.65757 0.8201 0.0
H2345 H 0.79163 0.60794 0.82027 0.0
C2346 C 0.79545 0.6023 0.84298 0.0
C2347 C 0.81052 0.6077 0.85498 0.0
C2348 C 0.86005 0.65464 0.8114 0.0
C2349 C 0.82716 0.62786 0.82748 0.0
C2350 C 0.8681 0.66629 0.79821 0.0
C2351 C 0.85276 0.66318 0.78672 0.0
C2352 C 0.8364 0.63963 0.81324 0.0
C2353 C 0.8293 0.64757 0.78885 0.0
C2354 C 0.80365 0.6123 0.82929 0.0
C2355 C 0.83399 0.62306 0.85262 0.0
N2356 N 0.82185 0.63651 0.80185 0.0
N2357 N 0.84152 0.63263 0.83921 0.0
H2358 H 0.38026 0.21524 0.85781 0.0
H2359 H 0.35867 0.16014 0.77796 0.0
H2360 H 0.40753 0.17331 0.84391 0.0
H2361 H 0.32507 0.1955 0.79377 0.0
H2362 H 0.379 0.16712 0.80138 0.0
H2363 H 0.36185 0.21011 0.83389 0.0
C2364 C 0.38235 0.20489 0.84977 0.0
C2365 C 0.39548 0.19464 0.85299 0.0
C2366 C 0.3672 0.17338 0.79972 0.0
C2367 C 0.37457 0.18893 0.82539 0.0
C2368 C 0.35569 0.16952 0.7863 0.0
C2369 C 0.34003 0.17716 0.78387 0.0
C2370 C 0.36316 0.18507 0.81081 0.0
C2371 C 0.3367 0.189 0.7952 0.0
C2372 C 0.3719 0.20207 0.83606 0.0
C2373 C 0.39787 0.1818 0.84194 0.0
N2374 N 0.34813 0.19257 0.80814 0.0
N2375 N 0.38751 0.17928 0.82869 0.0
H2376 H 0.84627 0.2065 0.86261 0.0
H2377 H 0.81514 0.16319 0.77969 0.0
H2378 H 0.77828 0.18026 0.844 0.0
H2379 H 0.88355 0.19218 0.79805 0.0
H2380 H 0.80157 0.17066 0.80273 0.0
H2381 H 0.86043 0.20272 0.83876 0.0
C2382 C 0.83432 0.20015 0.85351 0.0
C2383 C 0.81096 0.19362 0.85545 0.0
C2384 C 0.81958 0.17545 0.8017 0.0
C2385 C 0.82712 0.18892 0.82798 0.0
C2386 C 0.82739 0.17131 0.78849 0.0
C2387 C 0.85054 0.17687 0.78688 0.0
C2388 C 0.83499 0.18526 0.81346 0.0
C2389 C 0.86547 0.18716 0.79881 0.0
C2390 C 0.84242 0.19785 0.83987 0.0
C2391 C 0.79633 0.18517 0.84318 0.0
N2392 N 0.85744 0.19092 0.81155 0.0
N2393 N 0.80461 0.18301 0.83004 0.0
H2394 H 0.31894 0.13395 0.50833 0.0
H2395 H 0.33058 0.17935 0.59048 0.0
H2396 H 0.28096 0.16472 0.52467 0.0
H2397 H 0.36711 0.147 0.57434 0.0
H2398 H 0.31105 0.17281 0.56681 0.0
H2399 H 0.33555 0.13726 0.5327 0.0
C2400 C 0.3139 0.14122 0.51705 0.0
C2401 C 0.29855 0.14915 0.51435 0.0
C2402 C 0.32329 0.16708 0.56846 0.0
C2403 C 0.31782 0.15326 0.54236 0.0
C2404 C 0.33437 0.17069 0.58203 0.0
C2405 C 0.35067 0.16384 0.58445 0.0
C2406 C 0.3285 0.15652 0.55716 0.0
C2407 C 0.35501 0.15295 0.57295 0.0
C2408 C 0.32353 0.14324 0.53097 0.0
C2409 C 0.293 0.15871 0.52611 0.0
N2410 N 0.34408 0.1497 0.55984 0.0
N2411 N 0.30265 0.16054 0.53955 0.0
H2412 H 0.91453 0.16164 0.52966 0.0
H2413 H 0.80617 0.14787 0.57566 0.0
H2414 H 0.84645 0.13642 0.51144 0.0
H2415 H 0.875 0.1772 0.59337 0.0
H2416 H 0.82021 0.14136 0.55259 0.0
H2417 H 0.90002 0.16531 0.55344 0.0
C2418 C 0.89653 0.1569 0.53062 0.0
C2419 C 0.88178 0.14883 0.5184 0.0
C2420 C 0.83226 0.14916 0.56152 0.0
C2421 C 0.86493 0.15281 0.54579 0.0
C2422 C 0.82427 0.153 0.57472 0.0
C2423 C 0.83943 0.16333 0.58652 0.0
C2424 C 0.85566 0.15566 0.55999 0.0
C2425 C 0.86261 0.16908 0.58466 0.0
C2426 C 0.88823 0.1589 0.54425 0.0
C2427 C 0.85849 0.14252 0.5205 0.0
N2428 N 0.87001 0.16529 0.57166 0.0
N2429 N 0.85086 0.14474 0.53386 0.0
H2430 H 0.8688 0.75806 0.52967 0.0
H2431 H 0.83907 0.64662 0.57412 0.0
H2432 H 0.86455 0.6995 0.50987 0.0
H2433 H 0.84029 0.70376 0.59396 0.0
H2434 H 0.85128 0.66693 0.55095 0.0
H2435 H 0.86117 0.73967 0.55358 0.0
C2436 C 0.86628 0.74134 0.53032 0.0
C2437 C 0.86718 0.73031 0.51763 0.0
C2438 C 0.84899 0.6751 0.56037 0.0
C2439 C 0.85859 0.70915 0.54513 0.0
C2440 C 0.84191 0.66346 0.57362 0.0
C2441 C 0.83836 0.67336 0.58603 0.0
C2442 C 0.85257 0.69689 0.55939 0.0
C2443 C 0.84286 0.69545 0.58474 0.0
C2444 C 0.86203 0.73088 0.54402 0.0
C2445 C 0.86423 0.7088 0.51929 0.0
N2446 N 0.84955 0.70639 0.57165 0.0
N2447 N 0.85994 0.69893 0.53273 0.0
loop_
_geom_bond_atom_site_label_1
_geom_bond_atom_site_label_2
_geom_bond_distance
_geom_bond_site_symmetry_2
_ccdc_geom_bond_type
C0 C1 1.264 . S
C0 C5 1.479 . S
C0 C10 1.465 . S
C1 C0 1.264 . S
C1 C3 1.339 . S
C1 H28 0.931 . S
C2 C3 1.395 . S
C2 C4 1.320 . S
C3 C1 1.339 . S
C3 C2 1.395 . S
C3 H29 0.929 . S
C4 C2 1.320 . S
C4 C5 1.405 . S
C4 H30 0.930 . S
C5 C0 1.479 . S
C5 C4 1.405 . S
C5 H31 0.931 . S
U6 O7 2.454 . S
U6 O8 2.458 . S
U6 C9 2.984 . S
U6 C10 2.847 . S
U6 C23 2.882 . S
U6 O24 2.441 . S
U6 O25 2.420 . S
U6 O26 2.455 . S
U6 O27 2.449 . S
O7 U6 2.454 . S
O7 C9 1.353 . S
O8 U6 2.458 . S
O8 C9 1.286 . S
C9 U6 2.984 . S
C9 O7 1.353 . S
C9 O8 1.286 . S
C9 C11 1.363 . S
C10 C0 1.465 . S
C10 U6 2.847 . S
C10 O24 1.249 . S
C10 O25 1.202 . S
C11 C9 1.363 . S
C11 C13 1.408 . S
C11 C16 1.342 . S
C12 C13 1.310 . S
C12 C15 1.461 . S
C12 H32 0.932 . S
C13 C11 1.408 . S
C13 C12 1.310 . S
C13 H33 0.930 . S
C14 C15 1.474 . S
C14 C16 1.285 . S
C14 H34 0.929 . S
C15 C12 1.461 . S
C15 C14 1.474 . S
C16 C11 1.342 . S
C16 C14 1.285 . S
C16 H35 0.930 . S
C17 C20 1.424 . S
C17 C22 1.245 . S
C17 C23 1.428 . S
C18 C21 1.260 . S
C18 C22 1.477 . S
C18 H36 0.932 . S
C19 C20 1.384 . S
C19 C21 1.479 . S
C19 H37 0.929 . S
C20 C17 1.424 . S
C20 C19 1.384 . S
C20 H38 0.928 . S
C21 C18 1.260 . S
C21 C19 1.479 . S
C22 C17 1.245 . S
C22 C18 1.477 . S
C22 H39 0.932 . S
C23 U6 2.882 . S
C23 C17 1.428 . S
C23 O26 1.301 . S
C23 O27 1.282 . S
O24 U6 2.441 . S
O24 C10 1.249 . S
O25 U6 2.420 . S
O25 C10 1.202 . S
O26 U6 2.455 . S
O26 C23 1.301 . S
O27 U6 2.449 . S
O27 C23 1.282 . S
H28 C1 0.931 . S
H29 C3 0.929 . S
H30 C4 0.930 . S
H31 C5 0.931 . S
H32 C12 0.932 . S
H33 C13 0.930 . S
H34 C14 0.929 . S
H35 C16 0.930 . S
H36 C18 0.932 . S
H37 C19 0.929 . S
H38 C20 0.928 . S
H39 C22 0.932 . S
C40 C41 1.264 . S
C40 C45 1.479 . S
C40 C50 1.465 . S
C41 C40 1.264 . S
C41 C43 1.339 . S
C41 H68 0.931 . S
C42 C43 1.395 . S
C42 C44 1.320 . S
C43 C41 1.339 . S
C43 C42 1.395 . S
C43 H69 0.929 . S
C44 C42 1.320 . S
C44 C45 1.405 . S
C44 H70 0.930 . S
C45 C40 1.479 . S
C45 C44 1.405 . S
C45 H71 0.931 . S
U46 O47 2.454 . S
U46 O48 2.458 . S
U46 C49 2.984 . S
U46 C50 2.847 . S
U46 C63 2.882 . S
U46 O64 2.441 . S
U46 O65 2.420 . S
U46 O66 2.455 . S
U46 O67 2.449 . S
O47 U46 2.454 . S
O47 C49 1.353 . S
O48 U46 2.458 . S
O48 C49 1.286 . S
C49 U46 2.984 . S
C49 O47 1.353 . S
C49 O48 1.286 . S
C49 C51 1.363 . S
C50 C40 1.465 . S
C50 U46 2.847 . S
C50 O64 1.249 . S
C50 O65 1.202 . S
C51 C49 1.363 . S
C51 C53 1.408 . S
C51 C56 1.342 . S
C52 C53 1.310 . S
C52 C55 1.461 . S
C52 H72 0.932 . S
C53 C51 1.408 . S
C53 C52 1.310 . S
C53 H73 0.930 . S
C54 C55 1.474 . S
C54 C56 1.285 . S
C54 H74 0.929 . S
C55 C52 1.461 . S
C55 C54 1.474 . S
C56 C51 1.342 . S
C56 C54 1.285 . S
C56 H75 0.930 . S
C57 C60 1.424 . S
C57 C62 1.245 . S
C57 C63 1.428 . S
C58 C61 1.260 . S
C58 C62 1.477 . S
C58 H76 0.932 . S
C59 C60 1.384 . S
C59 C61 1.479 . S
C59 H77 0.929 . S
C60 C57 1.424 . S
C60 C59 1.384 . S
C60 H78 0.928 . S
C61 C58 1.260 . S
C61 C59 1.479 . S
C62 C57 1.245 . S
C62 C58 1.477 . S
C62 H79 0.932 . S
C63 U46 2.882 . S
C63 C57 1.428 . S
C63 O66 1.301 . S
C63 O67 1.282 . S
O64 U46 2.441 . S
O64 C50 1.249 . S
O65 U46 2.420 . S
O65 C50 1.202 . S
O66 U46 2.455 . S
O66 C63 1.301 . S
O67 U46 2.449 . S
O67 C63 1.282 . S
H68 C41 0.931 . S
H69 C43 0.929 . S
H70 C44 0.930 . S
H71 C45 0.931 . S
H72 C52 0.932 . S
H73 C53 0.930 . S
H74 C54 0.929 . S
H75 C56 0.930 . S
H76 C58 0.932 . S
H77 C59 0.929 . S
H78 C60 0.928 . S
H79 C62 0.932 . S
C80 C81 1.264 . S
C80 C85 1.479 . S
C80 C90 1.465 . S
C81 C80 1.264 . S
C81 C83 1.339 . S
C81 H108 0.931 . S
C82 C83 1.395 . S
C82 C84 1.320 . S
C83 C81 1.339 . S
C83 C82 1.395 . S
C83 H109 0.929 . S
C84 C82 1.320 . S
C84 C85 1.405 . S
C84 H110 0.930 . S
C85 C80 1.479 . S
C85 C84 1.405 . S
C85 H111 0.931 . S
U86 O87 2.454 . S
U86 O88 2.458 . S
U86 C89 2.984 . S
U86 C90 2.847 . S
U86 C103 2.882 . S
U86 O104 2.441 . S
U86 O105 2.420 . S
U86 O106 2.455 . S
U86 O107 2.449 . S
O87 U86 2.454 . S
O87 C89 1.353 . S
O88 U86 2.458 . S
O88 C89 1.286 . S
C89 U86 2.984 . S
C89 O87 1.353 . S
C89 O88 1.286 . S
C89 C91 1.363 . S
C90 C80 1.465 . S
C90 U86 2.847 . S
C90 O104 1.249 . S
C90 O105 1.202 . S
C91 C89 1.363 . S
C91 C93 1.408 . S
C91 C96 1.342 . S
C92 C93 1.310 . S
C92 C95 1.461 . S
C92 H112 0.932 . S
C93 C91 1.408 . S
C93 C92 1.310 . S
C93 H113 0.930 . S
C94 C95 1.474 . S
C94 C96 1.285 . S
C94 H114 0.929 . S
C95 C92 1.461 . S
C95 C94 1.474 . S
C96 C91 1.342 . S
C96 C94 1.285 . S
C96 H115 0.930 . S
C97 C100 1.424 . S
C97 C102 1.245 . S
C97 C103 1.428 . S
C98 C101 1.260 . S
C98 C102 1.477 . S
C98 H116 0.932 . S
C99 C100 1.384 . S
C99 C101 1.479 . S
C99 H117 0.929 . S
C100 C97 1.424 . S
C100 C99 1.384 . S
C100 H118 0.928 . S
C101 C98 1.260 . S
C101 C99 1.479 . S
C102 C97 1.245 . S
C102 C98 1.477 . S
C102 H119 0.932 . S
C103 U86 2.882 . S
C103 C97 1.428 . S
C103 O106 1.301 . S
C103 O107 1.282 . S
O104 U86 2.441 . S
O104 C90 1.249 . S
O105 U86 2.420 . S
O105 C90 1.202 . S
O106 U86 2.455 . S
O106 C103 1.301 . S
O107 U86 2.449 . S
O107 C103 1.282 . S
H108 C81 0.931 . S
H109 C83 0.929 . S
H110 C84 0.930 . S
H111 C85 0.931 . S
H112 C92 0.932 . S
H113 C93 0.930 . S
H114 C94 0.929 . S
H115 C96 0.930 . S
H116 C98 0.932 . S
H117 C99 0.929 . S
H118 C100 0.928 . S
H119 C102 0.932 . S
C120 C121 1.264 . S
C120 C125 1.479 . S
C120 C130 1.465 . S
C121 C120 1.264 . S
C121 C123 1.339 . S
C121 H148 0.931 . S
C122 C123 1.395 . S
C122 C124 1.320 . S
C123 C121 1.339 . S
C123 C122 1.395 . S
C123 H149 0.929 . S
C124 C122 1.320 . S
C124 C125 1.405 . S
C124 H150 0.930 . S
C125 C120 1.479 . S
C125 C124 1.405 . S
C125 H151 0.931 . S
U126 O127 2.454 . S
U126 O128 2.458 . S
U126 C129 2.984 . S
U126 C130 2.847 . S
U126 C143 2.882 . S
U126 O144 2.441 . S
U126 O145 2.420 . S
U126 O146 2.455 . S
U126 O147 2.449 . S
O127 U126 2.454 . S
O127 C129 1.353 . S
O128 U126 2.458 . S
O128 C129 1.286 . S
C129 U126 2.984 . S
C129 O127 1.353 . S
C129 O128 1.286 . S
C129 C131 1.363 . S
C130 C120 1.465 . S
C130 U126 2.847 . S
C130 O144 1.249 . S
C130 O145 1.202 . S
C131 C129 1.363 . S
C131 C133 1.408 . S
C131 C136 1.342 . S
C132 C133 1.310 . S
C132 C135 1.461 . S
C132 H152 0.932 . S
C133 C131 1.408 . S
C133 C132 1.310 . S
C133 H153 0.930 . S
C134 C135 1.474 . S
C134 C136 1.285 . S
C134 H154 0.929 . S
C135 C132 1.461 . S
C135 C134 1.474 . S
C136 C131 1.342 . S
C136 C134 1.285 . S
C136 H155 0.930 . S
C137 C140 1.424 . S
C137 C142 1.245 . S
C137 C143 1.428 . S
C138 C141 1.260 . S
C138 C142 1.477 . S
C138 H156 0.932 . S
C139 C140 1.384 . S
C139 C141 1.479 . S
C139 H157 0.929 . S
C140 C137 1.424 . S
C140 C139 1.384 . S
C140 H158 0.928 . S
C141 C138 1.260 . S
C141 C139 1.479 . S
C142 C137 1.245 . S
C142 C138 1.477 . S
C142 H159 0.932 . S
C143 U126 2.882 . S
C143 C137 1.428 . S
C143 O146 1.301 . S
C143 O147 1.282 . S
O144 U126 2.441 . S
O144 C130 1.249 . S
O145 U126 2.420 . S
O145 C130 1.202 . S
O146 U126 2.455 . S
O146 C143 1.301 . S
O147 U126 2.449 . S
O147 C143 1.282 . S
H148 C121 0.931 . S
H149 C123 0.929 . S
H150 C124 0.930 . S
H151 C125 0.931 . S
H152 C132 0.932 . S
H153 C133 0.930 . S
H154 C134 0.929 . S
H155 C136 0.930 . S
H156 C138 0.932 . S
H157 C139 0.929 . S
H158 C140 0.928 . S
H159 C142 0.932 . S
C160 C161 1.264 . S
C160 C165 1.479 . S
C160 C170 1.465 . S
C161 C160 1.264 . S
C161 C163 1.339 . S
C161 H188 0.931 . S
C162 C163 1.395 . S
C162 C164 1.320 . S
C163 C161 1.339 . S
C163 C162 1.395 . S
C163 H189 0.929 . S
C164 C162 1.320 . S
C164 C165 1.405 . S
C164 H190 0.930 . S
C165 C160 1.479 . S
C165 C164 1.405 . S
C165 H191 0.931 . S
U166 O167 2.454 . S
U166 O168 2.458 . S
U166 C169 2.984 . S
U166 C170 2.847 . S
U166 C183 2.882 . S
U166 O184 2.441 . S
U166 O185 2.420 . S
U166 O186 2.455 . S
U166 O187 2.449 . S
O167 U166 2.454 . S
O167 C169 1.353 . S
O168 U166 2.458 . S
O168 C169 1.286 . S
C169 U166 2.984 . S
C169 O167 1.353 . S
C169 O168 1.286 . S
C169 C171 1.363 . S
C170 C160 1.465 . S
C170 U166 2.847 . S
C170 O184 1.249 . S
C170 O185 1.202 . S
C171 C169 1.363 . S
C171 C173 1.408 . S
C171 C176 1.342 . S
C172 C173 1.310 . S
C172 C175 1.461 . S
C172 H192 0.932 . S
C173 C171 1.408 . S
C173 C172 1.310 . S
C173 H193 0.930 . S
C174 C175 1.474 . S
C174 C176 1.285 . S
C174 H194 0.929 . S
C175 C172 1.461 . S
C175 C174 1.474 . S
C176 C171 1.342 . S
C176 C174 1.285 . S
C176 H195 0.930 . S
C177 C180 1.424 . S
C177 C182 1.245 . S
C177 C183 1.428 . S
C178 C181 1.260 . S
C178 C182 1.477 . S
C178 H196 0.932 . S
C179 C180 1.384 . S
C179 C181 1.479 . S
C179 H197 0.929 . S
C180 C177 1.424 . S
C180 C179 1.384 . S
C180 H198 0.928 . S
C181 C178 1.260 . S
C181 C179 1.479 . S
C182 C177 1.245 . S
C182 C178 1.477 . S
C182 H199 0.932 . S
C183 U166 2.882 . S
C183 C177 1.428 . S
C183 O186 1.301 . S
C183 O187 1.282 . S
O184 U166 2.441 . S
O184 C170 1.249 . S
O185 U166 2.420 . S
O185 C170 1.202 . S
O186 U166 2.455 . S
O186 C183 1.301 . S
O187 U166 2.449 . S
O187 C183 1.282 . S
H188 C161 0.931 . S
H189 C163 0.929 . S
H190 C164 0.930 . S
H191 C165 0.931 . S
H192 C172 0.932 . S
H193 C173 0.930 . S
H194 C174 0.929 . S
H195 C176 0.930 . S
H196 C178 0.932 . S
H197 C179 0.929 . S
H198 C180 0.928 . S
H199 C182 0.932 . S
C200 C201 1.264 . S
C200 C205 1.479 . S
C200 C210 1.465 . S
C201 C200 1.264 . S
C201 C203 1.339 . S
C201 H228 0.931 . S
C202 C203 1.395 . S
C202 C204 1.320 . S
C203 C201 1.339 . S
C203 C202 1.395 . S
C203 H229 0.929 . S
C204 C202 1.320 . S
C204 C205 1.405 . S
C204 H230 0.930 . S
C205 C200 1.479 . S
C205 C204 1.405 . S
C205 H231 0.931 . S
U206 O207 2.454 . S
U206 O208 2.458 . S
U206 C209 2.984 . S
U206 C210 2.847 . S
U206 C223 2.882 . S
U206 O224 2.441 . S
U206 O225 2.420 . S
U206 O226 2.455 . S
U206 O227 2.449 . S
O207 U206 2.454 . S
O207 C209 1.353 . S
O208 U206 2.458 . S
O208 C209 1.286 . S
C209 U206 2.984 . S
C209 O207 1.353 . S
C209 O208 1.286 . S
C209 C211 1.363 . S
C210 C200 1.465 . S
C210 U206 2.847 . S
C210 O224 1.249 . S
C210 O225 1.202 . S
C211 C209 1.363 . S
C211 C213 1.408 . S
C211 C216 1.342 . S
C212 C213 1.310 . S
C212 C215 1.461 . S
C212 H232 0.932 . S
C213 C211 1.408 . S
C213 C212 1.310 . S
C213 H233 0.930 . S
C214 C215 1.474 . S
C214 C216 1.285 . S
C214 H234 0.929 . S
C215 C212 1.461 . S
C215 C214 1.474 . S
C216 C211 1.342 . S
C216 C214 1.285 . S
C216 H235 0.930 . S
C217 C220 1.424 . S
C217 C222 1.245 . S
C217 C223 1.428 . S
C218 C221 1.260 . S
C218 C222 1.477 . S
C218 H236 0.932 . S
C219 C220 1.384 . S
C219 C221 1.479 . S
C219 H237 0.929 . S
C220 C217 1.424 . S
C220 C219 1.384 . S
C220 H238 0.928 . S
C221 C218 1.260 . S
C221 C219 1.479 . S
C222 C217 1.245 . S
C222 C218 1.477 . S
C222 H239 0.932 . S
C223 U206 2.882 . S
C223 C217 1.428 . S
C223 O226 1.301 . S
C223 O227 1.282 . S
O224 U206 2.441 . S
O224 C210 1.249 . S
O225 U206 2.420 . S
O225 C210 1.202 . S
O226 U206 2.455 . S
O226 C223 1.301 . S
O227 U206 2.449 . S
O227 C223 1.282 . S
H228 C201 0.931 . S
H229 C203 0.929 . S
H230 C204 0.930 . S
H231 C205 0.931 . S
H232 C212 0.932 . S
H233 C213 0.930 . S
H234 C214 0.929 . S
H235 C216 0.930 . S
H236 C218 0.932 . S
H237 C219 0.929 . S
H238 C220 0.928 . S
H239 C222 0.932 . S
C240 C241 1.264 . S
C240 C245 1.479 . S
C240 C250 1.465 . S
C241 C240 1.264 . S
C241 C243 1.339 . S
C241 H268 0.931 . S
C242 C243 1.395 . S
C242 C244 1.320 . S
C243 C241 1.339 . S
C243 C242 1.395 . S
C243 H269 0.929 . S
C244 C242 1.320 . S
C244 C245 1.405 . S
C244 H270 0.930 . S
C245 C240 1.479 . S
C245 C244 1.405 . S
C245 H271 0.931 . S
U246 O247 2.454 . S
U246 O248 2.458 . S
U246 C249 2.984 . S
U246 C250 2.847 . S
U246 C263 2.882 . S
U246 O264 2.441 . S
U246 O265 2.420 . S
U246 O266 2.455 . S
U246 O267 2.449 . S
O247 U246 2.454 . S
O247 C249 1.353 . S
O248 U246 2.458 . S
O248 C249 1.286 . S
C249 U246 2.984 . S
C249 O247 1.353 . S
C249 O248 1.286 . S
C249 C251 1.363 . S
C250 C240 1.465 . S
C250 U246 2.847 . S
C250 O264 1.249 . S
C250 O265 1.202 . S
C251 C249 1.363 . S
C251 C253 1.408 . S
C251 C256 1.342 . S
C252 C253 1.310 . S
C252 C255 1.461 . S
C252 H272 0.932 . S
C253 C251 1.408 . S
C253 C252 1.310 . S
C253 H273 0.930 . S
C254 C255 1.474 . S
C254 C256 1.285 . S
C254 H274 0.929 . S
C255 C252 1.461 . S
C255 C254 1.474 . S
C256 C251 1.342 . S
C256 C254 1.285 . S
C256 H275 0.930 . S
C257 C260 1.424 . S
C257 C262 1.245 . S
C257 C263 1.428 . S
C258 C261 1.260 . S
C258 C262 1.477 . S
C258 H276 0.932 . S
C259 C260 1.384 . S
C259 C261 1.479 . S
C259 H277 0.929 . S
C260 C257 1.424 . S
C260 C259 1.384 . S
C260 H278 0.928 . S
C261 C258 1.260 . S
C261 C259 1.479 . S
C262 C257 1.245 . S
C262 C258 1.477 . S
C262 H279 0.932 . S
C263 U246 2.882 . S
C263 C257 1.428 . S
C263 O266 1.301 . S
C263 O267 1.282 . S
O264 U246 2.441 . S
O264 C250 1.249 . S
O265 U246 2.420 . S
O265 C250 1.202 . S
O266 U246 2.455 . S
O266 C263 1.301 . S
O267 U246 2.449 . S
O267 C263 1.282 . S
H268 C241 0.931 . S
H269 C243 0.929 . S
H270 C244 0.930 . S
H271 C245 0.931 . S
H272 C252 0.932 . S
H273 C253 0.930 . S
H274 C254 0.929 . S
H275 C256 0.930 . S
H276 C258 0.932 . S
H277 C259 0.929 . S
H278 C260 0.928 . S
H279 C262 0.932 . S
C280 C281 1.264 . S
C280 C285 1.479 . S
C280 C290 1.465 . S
C281 C280 1.264 . S
C281 C283 1.339 . S
C281 H308 0.931 . S
C282 C283 1.395 . S
C282 C284 1.320 . S
C283 C281 1.339 . S
C283 C282 1.395 . S
C283 H309 0.929 . S
C284 C282 1.320 . S
C284 C285 1.405 . S
C284 H310 0.930 . S
C285 C280 1.479 . S
C285 C284 1.405 . S
C285 H311 0.931 . S
U286 O287 2.454 . S
U286 O288 2.458 . S
U286 C289 2.984 . S
U286 C290 2.847 . S
U286 C303 2.882 . S
U286 O304 2.441 . S
U286 O305 2.420 . S
U286 O306 2.455 . S
U286 O307 2.449 . S
O287 U286 2.454 . S
O287 C289 1.353 . S
O288 U286 2.458 . S
O288 C289 1.286 . S
C289 U286 2.984 . S
C289 O287 1.353 . S
C289 O288 1.286 . S
C289 C291 1.363 . S
C290 C280 1.465 . S
C290 U286 2.847 . S
C290 O304 1.249 . S
C290 O305 1.202 . S
C291 C289 1.363 . S
C291 C293 1.408 . S
C291 C296 1.342 . S
C292 C293 1.310 . S
C292 C295 1.461 . S
C292 H312 0.932 . S
C293 C291 1.408 . S
C293 C292 1.310 . S
C293 H313 0.930 . S
C294 C295 1.474 . S
C294 C296 1.285 . S
C294 H314 0.929 . S
C295 C292 1.461 . S
C295 C294 1.474 . S
C296 C291 1.342 . S
C296 C294 1.285 . S
C296 H315 0.930 . S
C297 C300 1.424 . S
C297 C302 1.245 . S
C297 C303 1.428 . S
C298 C301 1.260 . S
C298 C302 1.477 . S
C298 H316 0.932 . S
C299 C300 1.384 . S
C299 C301 1.479 . S
C299 H317 0.929 . S
C300 C297 1.424 . S
C300 C299 1.384 . S
C300 H318 0.928 . S
C301 C298 1.260 . S
C301 C299 1.479 . S
C302 C297 1.245 . S
C302 C298 1.477 . S
C302 H319 0.932 . S
C303 U286 2.882 . S
C303 C297 1.428 . S
C303 O306 1.301 . S
C303 O307 1.282 . S
O304 U286 2.441 . S
O304 C290 1.249 . S
O305 U286 2.420 . S
O305 C290 1.202 . S
O306 U286 2.455 . S
O306 C303 1.301 . S
O307 U286 2.449 . S
O307 C303 1.282 . S
H308 C281 0.931 . S
H309 C283 0.929 . S
H310 C284 0.930 . S
H311 C285 0.931 . S
H312 C292 0.932 . S
H313 C293 0.930 . S
H314 C294 0.929 . S
H315 C296 0.930 . S
H316 C298 0.932 . S
H317 C299 0.929 . S
H318 C300 0.928 . S
H319 C302 0.932 . S
C320 C321 1.264 . S
C320 C325 1.479 . S
C320 C330 1.465 . S
C321 C320 1.264 . S
C321 C323 1.339 . S
C321 H348 0.931 . S
C322 C323 1.395 . S
C322 C324 1.320 . S
C323 C321 1.339 . S
C323 C322 1.395 . S
C323 H349 0.929 . S
C324 C322 1.320 . S
C324 C325 1.405 . S
C324 H350 0.930 . S
C325 C320 1.479 . S
C325 C324 1.405 . S
C325 H351 0.931 . S
U326 O327 2.454 . S
U326 O328 2.458 . S
U326 C329 2.984 . S
U326 C330 2.847 . S
U326 C343 2.882 . S
U326 O344 2.441 . S
U326 O345 2.420 . S
U326 O346 2.455 . S
U326 O347 2.449 . S
O327 U326 2.454 . S
O327 C329 1.353 . S
O328 U326 2.458 . S
O328 C329 1.286 . S
C329 U326 2.984 . S
C329 O327 1.353 . S
C329 O328 1.286 . S
C329 C331 1.363 . S
C330 C320 1.465 . S
C330 U326 2.847 . S
C330 O344 1.249 . S
C330 O345 1.202 . S
C331 C329 1.363 . S
C331 C333 1.408 . S
C331 C336 1.342 . S
C332 C333 1.310 . S
C332 C335 1.461 . S
C332 H352 0.932 . S
C333 C331 1.408 . S
C333 C332 1.310 . S
C333 H353 0.930 . S
C334 C335 1.474 . S
C334 C336 1.285 . S
C334 H354 0.929 . S
C335 C332 1.461 . S
C335 C334 1.474 . S
C336 C331 1.342 . S
C336 C334 1.285 . S
C336 H355 0.930 . S
C337 C340 1.424 . S
C337 C342 1.245 . S
C337 C343 1.428 . S
C338 C341 1.260 . S
C338 C342 1.477 . S
C338 H356 0.932 . S
C339 C340 1.384 . S
C339 C341 1.479 . S
C339 H357 0.929 . S
C340 C337 1.424 . S
C340 C339 1.384 . S
C340 H358 0.928 . S
C341 C338 1.260 . S
C341 C339 1.479 . S
C342 C337 1.245 . S
C342 C338 1.477 . S
C342 H359 0.932 . S
C343 U326 2.882 . S
C343 C337 1.428 . S
C343 O346 1.301 . S
C343 O347 1.282 . S
O344 U326 2.441 . S
O344 C330 1.249 . S
O345 U326 2.420 . S
O345 C330 1.202 . S
O346 U326 2.455 . S
O346 C343 1.301 . S
O347 U326 2.449 . S
O347 C343 1.282 . S
H348 C321 0.931 . S
H349 C323 0.929 . S
H350 C324 0.930 . S
H351 C325 0.931 . S
H352 C332 0.932 . S
H353 C333 0.930 . S
H354 C334 0.929 . S
H355 C336 0.930 . S
H356 C338 0.932 . S
H357 C339 0.929 . S
H358 C340 0.928 . S
H359 C342 0.932 . S
C360 C361 1.264 . S
C360 C365 1.479 . S
C360 C370 1.465 . S
C361 C360 1.264 . S
C361 C363 1.339 . S
C361 H388 0.931 . S
C362 C363 1.395 . S
C362 C364 1.320 . S
C363 C361 1.339 . S
C363 C362 1.395 . S
C363 H389 0.929 . S
C364 C362 1.320 . S
C364 C365 1.405 . S
C364 H390 0.930 . S
C365 C360 1.479 . S
C365 C364 1.405 . S
C365 H391 0.931 . S
U366 O367 2.454 . S
U366 O368 2.458 . S
U366 C369 2.984 . S
U366 C370 2.847 . S
U366 C383 2.882 . S
U366 O384 2.441 . S
U366 O385 2.420 . S
U366 O386 2.455 . S
U366 O387 2.449 . S
O367 U366 2.454 . S
O367 C369 1.353 . S
O368 U366 2.458 . S
O368 C369 1.286 . S
C369 U366 2.984 . S
C369 O367 1.353 . S
C369 O368 1.286 . S
C369 C371 1.363 . S
C370 C360 1.465 . S
C370 U366 2.847 . S
C370 O384 1.249 . S
C370 O385 1.202 . S
C371 C369 1.363 . S
C371 C373 1.408 . S
C371 C376 1.342 . S
C372 C373 1.310 . S
C372 C375 1.461 . S
C372 H392 0.932 . S
C373 C371 1.408 . S
C373 C372 1.310 . S
C373 H393 0.930 . S
C374 C375 1.474 . S
C374 C376 1.285 . S
C374 H394 0.929 . S
C375 C372 1.461 . S
C375 C374 1.474 . S
C376 C371 1.342 . S
C376 C374 1.285 . S
C376 H395 0.930 . S
C377 C380 1.424 . S
C377 C382 1.245 . S
C377 C383 1.428 . S
C378 C381 1.260 . S
C378 C382 1.477 . S
C378 H396 0.932 . S
C379 C380 1.384 . S
C379 C381 1.479 . S
C379 H397 0.929 . S
C380 C377 1.424 . S
C380 C379 1.384 . S
C380 H398 0.928 . S
C381 C378 1.260 . S
C381 C379 1.479 . S
C382 C377 1.245 . S
C382 C378 1.477 . S
C382 H399 0.932 . S
C383 U366 2.882 . S
C383 C377 1.428 . S
C383 O386 1.301 . S
C383 O387 1.282 . S
O384 U366 2.441 . S
O384 C370 1.249 . S
O385 U366 2.420 . S
O385 C370 1.202 . S
O386 U366 2.455 . S
O386 C383 1.301 . S
O387 U366 2.449 . S
O387 C383 1.282 . S
H388 C361 0.931 . S
H389 C363 0.929 . S
H390 C364 0.930 . S
H391 C365 0.931 . S
H392 C372 0.932 . S
H393 C373 0.930 . S
H394 C374 0.929 . S
H395 C376 0.930 . S
H396 C378 0.932 . S
H397 C379 0.929 . S
H398 C380 0.928 . S
H399 C382 0.932 . S
C400 C401 1.264 . S
C400 C405 1.479 . S
C400 C410 1.465 . S
C401 C400 1.264 . S
C401 C403 1.339 . S
C401 H428 0.931 . S
C402 C403 1.395 . S
C402 C404 1.320 . S
C403 C401 1.339 . S
C403 C402 1.395 . S
C403 H429 0.929 . S
C404 C402 1.320 . S
C404 C405 1.405 . S
C404 H430 0.930 . S
C405 C400 1.479 . S
C405 C404 1.405 . S
C405 H431 0.931 . S
U406 O407 2.454 . S
U406 O408 2.458 . S
U406 C409 2.984 . S
U406 C410 2.847 . S
U406 C423 2.882 . S
U406 O424 2.441 . S
U406 O425 2.420 . S
U406 O426 2.455 . S
U406 O427 2.449 . S
O407 U406 2.454 . S
O407 C409 1.353 . S
O408 U406 2.458 . S
O408 C409 1.286 . S
C409 U406 2.984 . S
C409 O407 1.353 . S
C409 O408 1.286 . S
C409 C411 1.363 . S
C410 C400 1.465 . S
C410 U406 2.847 . S
C410 O424 1.249 . S
C410 O425 1.202 . S
C411 C409 1.363 . S
C411 C413 1.408 . S
C411 C416 1.342 . S
C412 C413 1.310 . S
C412 C415 1.461 . S
C412 H432 0.932 . S
C413 C411 1.408 . S
C413 C412 1.310 . S
C413 H433 0.930 . S
C414 C415 1.474 . S
C414 C416 1.285 . S
C414 H434 0.929 . S
C415 C412 1.461 . S
C415 C414 1.474 . S
C416 C411 1.342 . S
C416 C414 1.285 . S
C416 H435 0.930 . S
C417 C420 1.424 . S
C417 C422 1.245 . S
C417 C423 1.428 . S
C418 C421 1.260 . S
C418 C422 1.477 . S
C418 H436 0.932 . S
C419 C420 1.384 . S
C419 C421 1.479 . S
C419 H437 0.929 . S
C420 C417 1.424 . S
C420 C419 1.384 . S
C420 H438 0.928 . S
C421 C418 1.260 . S
C421 C419 1.479 . S
C422 C417 1.245 . S
C422 C418 1.477 . S
C422 H439 0.932 . S
C423 U406 2.882 . S
C423 C417 1.428 . S
C423 O426 1.301 . S
C423 O427 1.282 . S
O424 U406 2.441 . S
O424 C410 1.249 . S
O425 U406 2.420 . S
O425 C410 1.202 . S
O426 U406 2.455 . S
O426 C423 1.301 . S
O427 U406 2.449 . S
O427 C423 1.282 . S
H428 C401 0.931 . S
H429 C403 0.929 . S
H430 C404 0.930 . S
H431 C405 0.931 . S
H432 C412 0.932 . S
H433 C413 0.930 . S
H434 C414 0.929 . S
H435 C416 0.930 . S
H436 C418 0.932 . S
H437 C419 0.929 . S
H438 C420 0.928 . S
H439 C422 0.932 . S
C440 C441 1.264 . S
C440 C445 1.479 . S
C440 C450 1.465 . S
C441 C440 1.264 . S
C441 C443 1.339 . S
C441 H468 0.931 . S
C442 C443 1.395 . S
C442 C444 1.320 . S
C443 C441 1.339 . S
C443 C442 1.395 . S
C443 H469 0.929 . S
C444 C442 1.320 . S
C444 C445 1.405 . S
C444 H470 0.930 . S
C445 C440 1.479 . S
C445 C444 1.405 . S
C445 H471 0.931 . S
U446 O447 2.454 . S
U446 O448 2.458 . S
U446 C449 2.984 . S
U446 C450 2.847 . S
U446 C463 2.882 . S
U446 O464 2.441 . S
U446 O465 2.420 . S
U446 O466 2.455 . S
U446 O467 2.449 . S
O447 U446 2.454 . S
O447 C449 1.353 . S
O448 U446 2.458 . S
O448 C449 1.286 . S
C449 U446 2.984 . S
C449 O447 1.353 . S
C449 O448 1.286 . S
C449 C451 1.363 . S
C450 C440 1.465 . S
C450 U446 2.847 . S
C450 O464 1.249 . S
C450 O465 1.202 . S
C451 C449 1.363 . S
C451 C453 1.408 . S
C451 C456 1.342 . S
C452 C453 1.310 . S
C452 C455 1.461 . S
C452 H472 0.932 . S
C453 C451 1.408 . S
C453 C452 1.310 . S
C453 H473 0.930 . S
C454 C455 1.474 . S
C454 C456 1.285 . S
C454 H474 0.929 . S
C455 C452 1.461 . S
C455 C454 1.474 . S
C456 C451 1.342 . S
C456 C454 1.285 . S
C456 H475 0.930 . S
C457 C460 1.424 . S
C457 C462 1.245 . S
C457 C463 1.428 . S
C458 C461 1.260 . S
C458 C462 1.477 . S
C458 H476 0.932 . S
C459 C460 1.384 . S
C459 C461 1.479 . S
C459 H477 0.929 . S
C460 C457 1.424 . S
C460 C459 1.384 . S
C460 H478 0.928 . S
C461 C458 1.260 . S
C461 C459 1.479 . S
C462 C457 1.245 . S
C462 C458 1.477 . S
C462 H479 0.932 . S
C463 U446 2.882 . S
C463 C457 1.428 . S
C463 O466 1.301 . S
C463 O467 1.282 . S
O464 U446 2.441 . S
O464 C450 1.249 . S
O465 U446 2.420 . S
O465 C450 1.202 . S
O466 U446 2.455 . S
O466 C463 1.301 . S
O467 U446 2.449 . S
O467 C463 1.282 . S
H468 C441 0.931 . S
H469 C443 0.929 . S
H470 C444 0.930 . S
H471 C445 0.931 . S
H472 C452 0.932 . S
H473 C453 0.930 . S
H474 C454 0.929 . S
H475 C456 0.930 . S
H476 C458 0.932 . S
H477 C459 0.929 . S
H478 C460 0.928 . S
H479 C462 0.932 . S
C480 C481 1.264 . S
C480 C485 1.479 . S
C480 C490 1.465 . S
C481 C480 1.264 . S
C481 C483 1.339 . S
C481 H508 0.931 . S
C482 C483 1.395 . S
C482 C484 1.320 . S
C483 C481 1.339 . S
C483 C482 1.395 . S
C483 H509 0.929 . S
C484 C482 1.320 . S
C484 C485 1.405 . S
C484 H510 0.930 . S
C485 C480 1.479 . S
C485 C484 1.405 . S
C485 H511 0.931 . S
U486 O487 2.454 . S
U486 O488 2.458 . S
U486 C489 2.984 . S
U486 C490 2.847 . S
U486 C503 2.882 . S
U486 O504 2.441 . S
U486 O505 2.420 . S
U486 O506 2.455 . S
U486 O507 2.449 . S
O487 U486 2.454 . S
O487 C489 1.353 . S
O488 U486 2.458 . S
O488 C489 1.286 . S
C489 U486 2.984 . S
C489 O487 1.353 . S
C489 O488 1.286 . S
C489 C491 1.363 . S
C490 C480 1.465 . S
C490 U486 2.847 . S
C490 O504 1.249 . S
C490 O505 1.202 . S
C491 C489 1.363 . S
C491 C493 1.408 . S
C491 C496 1.342 . S
C492 C493 1.310 . S
C492 C495 1.461 . S
C492 H512 0.932 . S
C493 C491 1.408 . S
C493 C492 1.310 . S
C493 H513 0.930 . S
C494 C495 1.474 . S
C494 C496 1.285 . S
C494 H514 0.929 . S
C495 C492 1.461 . S
C495 C494 1.474 . S
C496 C491 1.342 . S
C496 C494 1.285 . S
C496 H515 0.930 . S
C497 C500 1.424 . S
C497 C502 1.245 . S
C497 C503 1.428 . S
C498 C501 1.260 . S
C498 C502 1.477 . S
C498 H516 0.932 . S
C499 C500 1.384 . S
C499 C501 1.479 . S
C499 H517 0.929 . S
C500 C497 1.424 . S
C500 C499 1.384 . S
C500 H518 0.928 . S
C501 C498 1.260 . S
C501 C499 1.479 . S
C502 C497 1.245 . S
C502 C498 1.477 . S
C502 H519 0.932 . S
C503 U486 2.882 . S
C503 C497 1.428 . S
C503 O506 1.301 . S
C503 O507 1.282 . S
O504 U486 2.441 . S
O504 C490 1.249 . S
O505 U486 2.420 . S
O505 C490 1.202 . S
O506 U486 2.455 . S
O506 C503 1.301 . S
O507 U486 2.449 . S
O507 C503 1.282 . S
H508 C481 0.931 . S
H509 C483 0.929 . S
H510 C484 0.930 . S
H511 C485 0.931 . S
H512 C492 0.932 . S
H513 C493 0.930 . S
H514 C494 0.929 . S
H515 C496 0.930 . S
H516 C498 0.932 . S
H517 C499 0.929 . S
H518 C500 0.928 . S
H519 C502 0.932 . S
C520 C521 1.264 . S
C520 C525 1.479 . S
C520 C530 1.465 . S
C521 C520 1.264 . S
C521 C523 1.339 . S
C521 H548 0.931 . S
C522 C523 1.395 . S
C522 C524 1.320 . S
C523 C521 1.339 . S
C523 C522 1.395 . S
C523 H549 0.929 . S
C524 C522 1.320 . S
C524 C525 1.405 . S
C524 H550 0.930 . S
C525 C520 1.479 . S
C525 C524 1.405 . S
C525 H551 0.931 . S
U526 O527 2.454 . S
U526 O528 2.458 . S
U526 C529 2.984 . S
U526 C530 2.847 . S
U526 C543 2.882 . S
U526 O544 2.441 . S
U526 O545 2.420 . S
U526 O546 2.455 . S
U526 O547 2.449 . S
O527 U526 2.454 . S
O527 C529 1.353 . S
O528 U526 2.458 . S
O528 C529 1.286 . S
C529 U526 2.984 . S
C529 O527 1.353 . S
C529 O528 1.286 . S
C529 C531 1.363 . S
C530 C520 1.465 . S
C530 U526 2.847 . S
C530 O544 1.249 . S
C530 O545 1.202 . S
C531 C529 1.363 . S
C531 C533 1.408 . S
C531 C536 1.342 . S
C532 C533 1.310 . S
C532 C535 1.461 . S
C532 H552 0.932 . S
C533 C531 1.408 . S
C533 C532 1.310 . S
C533 H553 0.930 . S
C534 C535 1.474 . S
C534 C536 1.285 . S
C534 H554 0.929 . S
C535 C532 1.461 . S
C535 C534 1.474 . S
C536 C531 1.342 . S
C536 C534 1.285 . S
C536 H555 0.930 . S
C537 C540 1.424 . S
C537 C542 1.245 . S
C537 C543 1.428 . S
C538 C541 1.260 . S
C538 C542 1.477 . S
C538 H556 0.932 . S
C539 C540 1.384 . S
C539 C541 1.479 . S
C539 H557 0.929 . S
C540 C537 1.424 . S
C540 C539 1.384 . S
C540 H558 0.928 . S
C541 C538 1.260 . S
C541 C539 1.479 . S
C542 C537 1.245 . S
C542 C538 1.477 . S
C542 H559 0.932 . S
C543 U526 2.882 . S
C543 C537 1.428 . S
C543 O546 1.301 . S
C543 O547 1.282 . S
O544 U526 2.441 . S
O544 C530 1.249 . S
O545 U526 2.420 . S
O545 C530 1.202 . S
O546 U526 2.455 . S
O546 C543 1.301 . S
O547 U526 2.449 . S
O547 C543 1.282 . S
H548 C521 0.931 . S
H549 C523 0.929 . S
H550 C524 0.930 . S
H551 C525 0.931 . S
H552 C532 0.932 . S
H553 C533 0.930 . S
H554 C534 0.929 . S
H555 C536 0.930 . S
H556 C538 0.932 . S
H557 C539 0.929 . S
H558 C540 0.928 . S
H559 C542 0.932 . S
C560 C561 1.264 . S
C560 C565 1.479 . S
C560 C570 1.465 . S
C561 C560 1.264 . S
C561 C563 1.339 . S
C561 H588 0.931 . S
C562 C563 1.395 . S
C562 C564 1.320 . S
C563 C561 1.339 . S
C563 C562 1.395 . S
C563 H589 0.929 . S
C564 C562 1.320 . S
C564 C565 1.405 . S
C564 H590 0.930 . S
C565 C560 1.479 . S
C565 C564 1.405 . S
C565 H591 0.931 . S
U566 O567 2.454 . S
U566 O568 2.458 . S
U566 C569 2.984 . S
U566 C570 2.847 . S
U566 C583 2.882 . S
U566 O584 2.441 . S
U566 O585 2.420 . S
U566 O586 2.455 . S
U566 O587 2.449 . S
O567 U566 2.454 . S
O567 C569 1.353 . S
O568 U566 2.458 . S
O568 C569 1.286 . S
C569 U566 2.984 . S
C569 O567 1.353 . S
C569 O568 1.286 . S
C569 C571 1.363 . S
C570 C560 1.465 . S
C570 U566 2.847 . S
C570 O584 1.249 . S
C570 O585 1.202 . S
C571 C569 1.363 . S
C571 C573 1.408 . S
C571 C576 1.342 . S
C572 C573 1.310 . S
C572 C575 1.461 . S
C572 H592 0.932 . S
C573 C571 1.408 . S
C573 C572 1.310 . S
C573 H593 0.930 . S
C574 C575 1.474 . S
C574 C576 1.285 . S
C574 H594 0.929 . S
C575 C572 1.461 . S
C575 C574 1.474 . S
C576 C571 1.342 . S
C576 C574 1.285 . S
C576 H595 0.930 . S
C577 C580 1.424 . S
C577 C582 1.245 . S
C577 C583 1.428 . S
C578 C581 1.260 . S
C578 C582 1.477 . S
C578 H596 0.932 . S
C579 C580 1.384 . S
C579 C581 1.479 . S
C579 H597 0.929 . S
C580 C577 1.424 . S
C580 C579 1.384 . S
C580 H598 0.928 . S
C581 C578 1.260 . S
C581 C579 1.479 . S
C582 C577 1.245 . S
C582 C578 1.477 . S
C582 H599 0.932 . S
C583 U566 2.882 . S
C583 C577 1.428 . S
C583 O586 1.301 . S
C583 O587 1.282 . S
O584 U566 2.441 . S
O584 C570 1.249 . S
O585 U566 2.420 . S
O585 C570 1.202 . S
O586 U566 2.455 . S
O586 C583 1.301 . S
O587 U566 2.449 . S
O587 C583 1.282 . S
H588 C561 0.931 . S
H589 C563 0.929 . S
H590 C564 0.930 . S
H591 C565 0.931 . S
H592 C572 0.932 . S
H593 C573 0.930 . S
H594 C574 0.929 . S
H595 C576 0.930 . S
H596 C578 0.932 . S
H597 C579 0.929 . S
H598 C580 0.928 . S
H599 C582 0.932 . S
C600 C601 1.264 . S
C600 C605 1.479 . S
C600 C610 1.465 . S
C601 C600 1.264 . S
C601 C603 1.339 . S
C601 H628 0.931 . S
C602 C603 1.395 . S
C602 C604 1.320 . S
C603 C601 1.339 . S
C603 C602 1.395 . S
C603 H629 0.929 . S
C604 C602 1.320 . S
C604 C605 1.405 . S
C604 H630 0.930 . S
C605 C600 1.479 . S
C605 C604 1.405 . S
C605 H631 0.931 . S
U606 O607 2.454 . S
U606 O608 2.458 . S
U606 C609 2.984 . S
U606 C610 2.847 . S
U606 C623 2.882 . S
U606 O624 2.441 . S
U606 O625 2.420 . S
U606 O626 2.455 . S
U606 O627 2.449 . S
O607 U606 2.454 . S
O607 C609 1.353 . S
O608 U606 2.458 . S
O608 C609 1.286 . S
C609 U606 2.984 . S
C609 O607 1.353 . S
C609 O608 1.286 . S
C609 C611 1.363 . S
C610 C600 1.465 . S
C610 U606 2.847 . S
C610 O624 1.249 . S
C610 O625 1.202 . S
C611 C609 1.363 . S
C611 C613 1.408 . S
C611 C616 1.342 . S
C612 C613 1.310 . S
C612 C615 1.461 . S
C612 H632 0.932 . S
C613 C611 1.408 . S
C613 C612 1.310 . S
C613 H633 0.930 . S
C614 C615 1.474 . S
C614 C616 1.285 . S
C614 H634 0.929 . S
C615 C612 1.461 . S
C615 C614 1.474 . S
C616 C611 1.342 . S
C616 C614 1.285 . S
C616 H635 0.930 . S
C617 C620 1.424 . S
C617 C622 1.245 . S
C617 C623 1.428 . S
C618 C621 1.260 . S
C618 C622 1.477 . S
C618 H636 0.932 . S
C619 C620 1.384 . S
C619 C621 1.479 . S
C619 H637 0.929 . S
C620 C617 1.424 . S
C620 C619 1.384 . S
C620 H638 0.928 . S
C621 C618 1.260 . S
C621 C619 1.479 . S
C622 C617 1.245 . S
C622 C618 1.477 . S
C622 H639 0.932 . S
C623 U606 2.882 . S
C623 C617 1.428 . S
C623 O626 1.301 . S
C623 O627 1.282 . S
O624 U606 2.441 . S
O624 C610 1.249 . S
O625 U606 2.420 . S
O625 C610 1.202 . S
O626 U606 2.455 . S
O626 C623 1.301 . S
O627 U606 2.449 . S
O627 C623 1.282 . S
H628 C601 0.931 . S
H629 C603 0.929 . S
H630 C604 0.930 . S
H631 C605 0.931 . S
H632 C612 0.932 . S
H633 C613 0.930 . S
H634 C614 0.929 . S
H635 C616 0.930 . S
H636 C618 0.932 . S
H637 C619 0.929 . S
H638 C620 0.928 . S
H639 C622 0.932 . S
C640 C641 1.264 . S
C640 C645 1.479 . S
C640 C650 1.465 . S
C641 C640 1.264 . S
C641 C643 1.339 . S
C641 H668 0.931 . S
C642 C643 1.395 . S
C642 C644 1.320 . S
C643 C641 1.339 . S
C643 C642 1.395 . S
C643 H669 0.929 . S
C644 C642 1.320 . S
C644 C645 1.405 . S
C644 H670 0.930 . S
C645 C640 1.479 . S
C645 C644 1.405 . S
C645 H671 0.931 . S
U646 O647 2.454 . S
U646 O648 2.458 . S
U646 C649 2.984 . S
U646 C650 2.847 . S
U646 C663 2.882 . S
U646 O664 2.441 . S
U646 O665 2.420 . S
U646 O666 2.455 . S
U646 O667 2.449 . S
O647 U646 2.454 . S
O647 C649 1.353 . S
O648 U646 2.458 . S
O648 C649 1.286 . S
C649 U646 2.984 . S
C649 O647 1.353 . S
C649 O648 1.286 . S
C649 C651 1.363 . S
C650 C640 1.465 . S
C650 U646 2.847 . S
C650 O664 1.249 . S
C650 O665 1.202 . S
C651 C649 1.363 . S
C651 C653 1.408 . S
C651 C656 1.342 . S
C652 C653 1.310 . S
C652 C655 1.461 . S
C652 H672 0.932 . S
C653 C651 1.408 . S
C653 C652 1.310 . S
C653 H673 0.930 . S
C654 C655 1.474 . S
C654 C656 1.285 . S
C654 H674 0.929 . S
C655 C652 1.461 . S
C655 C654 1.474 . S
C656 C651 1.342 . S
C656 C654 1.285 . S
C656 H675 0.930 . S
C657 C660 1.424 . S
C657 C662 1.245 . S
C657 C663 1.428 . S
C658 C661 1.260 . S
C658 C662 1.477 . S
C658 H676 0.932 . S
C659 C660 1.384 . S
C659 C661 1.479 . S
C659 H677 0.929 . S
C660 C657 1.424 . S
C660 C659 1.384 . S
C660 H678 0.928 . S
C661 C658 1.260 . S
C661 C659 1.479 . S
C662 C657 1.245 . S
C662 C658 1.477 . S
C662 H679 0.932 . S
C663 U646 2.882 . S
C663 C657 1.428 . S
C663 O666 1.301 . S
C663 O667 1.282 . S
O664 U646 2.441 . S
O664 C650 1.249 . S
O665 U646 2.420 . S
O665 C650 1.202 . S
O666 U646 2.455 . S
O666 C663 1.301 . S
O667 U646 2.449 . S
O667 C663 1.282 . S
H668 C641 0.931 . S
H669 C643 0.929 . S
H670 C644 0.930 . S
H671 C645 0.931 . S
H672 C652 0.932 . S
H673 C653 0.930 . S
H674 C654 0.929 . S
H675 C656 0.930 . S
H676 C658 0.932 . S
H677 C659 0.929 . S
H678 C660 0.928 . S
H679 C662 0.932 . S
C680 C681 1.264 . S
C680 C685 1.479 . S
C680 C690 1.465 . S
C681 C680 1.264 . S
C681 C683 1.339 . S
C681 H708 0.931 . S
C682 C683 1.395 . S
C682 C684 1.320 . S
C683 C681 1.339 . S
C683 C682 1.395 . S
C683 H709 0.929 . S
C684 C682 1.320 . S
C684 C685 1.405 . S
C684 H710 0.930 . S
C685 C680 1.479 . S
C685 C684 1.405 . S
C685 H711 0.931 . S
U686 O687 2.454 . S
U686 O688 2.458 . S
U686 C689 2.984 . S
U686 C690 2.847 . S
U686 C703 2.882 . S
U686 O704 2.441 . S
U686 O705 2.420 . S
U686 O706 2.455 . S
U686 O707 2.449 . S
O687 U686 2.454 . S
O687 C689 1.353 . S
O688 U686 2.458 . S
O688 C689 1.286 . S
C689 U686 2.984 . S
C689 O687 1.353 . S
C689 O688 1.286 . S
C689 C691 1.363 . S
C690 C680 1.465 . S
C690 U686 2.847 . S
C690 O704 1.249 . S
C690 O705 1.202 . S
C691 C689 1.363 . S
C691 C693 1.408 . S
C691 C696 1.342 . S
C692 C693 1.310 . S
C692 C695 1.461 . S
C692 H712 0.932 . S
C693 C691 1.408 . S
C693 C692 1.310 . S
C693 H713 0.930 . S
C694 C695 1.474 . S
C694 C696 1.285 . S
C694 H714 0.929 . S
C695 C692 1.461 . S
C695 C694 1.474 . S
C696 C691 1.342 . S
C696 C694 1.285 . S
C696 H715 0.930 . S
C697 C700 1.424 . S
C697 C702 1.245 . S
C697 C703 1.428 . S
C698 C701 1.260 . S
C698 C702 1.477 . S
C698 H716 0.932 . S
C699 C700 1.384 . S
C699 C701 1.479 . S
C699 H717 0.929 . S
C700 C697 1.424 . S
C700 C699 1.384 . S
C700 H718 0.928 . S
C701 C698 1.260 . S
C701 C699 1.479 . S
C702 C697 1.245 . S
C702 C698 1.477 . S
C702 H719 0.932 . S
C703 U686 2.882 . S
C703 C697 1.428 . S
C703 O706 1.301 . S
C703 O707 1.282 . S
O704 U686 2.441 . S
O704 C690 1.249 . S
O705 U686 2.420 . S
O705 C690 1.202 . S
O706 U686 2.455 . S
O706 C703 1.301 . S
O707 U686 2.449 . S
O707 C703 1.282 . S
H708 C681 0.931 . S
H709 C683 0.929 . S
H710 C684 0.930 . S
H711 C685 0.931 . S
H712 C692 0.932 . S
H713 C693 0.930 . S
H714 C694 0.929 . S
H715 C696 0.930 . S
H716 C698 0.932 . S
H717 C699 0.929 . S
H718 C700 0.928 . S
H719 C702 0.932 . S
Gd720 N751 2.661 . S
Gd720 N757 2.601 . S
Gd720 O764 2.545 . S
Gd720 O765 2.606 1_545 S
Gd720 O767 2.429 . S
Gd720 O768 2.545 1_545 S
Gd720 O769 2.412 . S
Gd720 O771 2.350 1_554 S
Gd720 O772 2.324 1_545 S
Gd720 C779 2.828 . S
Gd721 N730 2.661 . S
Gd721 N734 2.601 . S
Gd721 O765 2.362 1_556 S
Gd721 O766 2.324 1_565 S
Gd721 O770 2.545 . S
Gd721 O771 2.613 1_565 S
Gd721 O773 2.429 . S
Gd721 O774 2.545 1_565 S
Gd721 O775 2.412 . S
Gd721 C788 2.828 . S
C722 C725 1.417 . S
C722 C727 1.431 . S
C722 C728 1.412 . S
C723 C726 1.437 . S
C723 C727 1.317 . S
C723 H742 0.929 . S
C724 C725 1.426 . S
C724 C726 1.413 . S
C724 N734 1.359 . S
C725 C722 1.417 . S
C725 C724 1.426 . S
C725 N730 1.350 . S
C726 C723 1.437 . S
C726 C724 1.413 . S
C726 C736 1.391 . S
C727 C722 1.431 . S
C727 C723 1.317 . S
C727 H738 0.930 . S
C728 C722 1.412 . S
C728 C729 1.355 . S
C728 H740 0.930 . S
C729 C728 1.355 . S
C729 C731 1.402 . S
C729 H741 0.930 . S
N730 Gd721 2.661 . S
N730 C725 1.350 . S
N730 C731 1.307 . S
C731 C729 1.402 . S
C731 N730 1.307 . S
C731 H732 0.930 . S
H732 C731 0.930 . S
C733 N734 1.334 . S
C733 C735 1.394 . S
C733 H737 0.930 . S
N734 Gd721 2.601 . S
N734 C724 1.359 . S
N734 C733 1.334 . S
C735 C733 1.394 . S
C735 C736 1.359 . S
C735 H747 0.930 . S
C736 C726 1.391 . S
C736 C735 1.359 . S
C736 H748 0.929 . S
H737 C733 0.930 . S
H738 C727 0.930 . S
H739 C756 0.930 . S
H740 C728 0.930 . S
H741 C729 0.930 . S
H742 C723 0.929 . S
H743 C761 0.930 . S
H744 C752 0.930 . S
H745 C753 0.930 . S
H746 C777 0.929 . S
H747 C735 0.930 . S
H748 C736 0.929 . S
H749 C778 0.930 . S
H750 C759 0.930 . S
N751 Gd720 2.661 . S
N751 C755 1.350 . S
N751 C756 1.307 . S
C752 H744 0.930 . S
C752 C753 1.355 . S
C752 C754 1.412 . S
C753 H745 0.930 . S
C753 C752 1.355 . S
C753 C756 1.402 . S
C754 C752 1.412 . S
C754 C755 1.417 . S
C754 C778 1.431 . S
C755 N751 1.350 . S
C755 C754 1.417 . S
C755 C758 1.426 . S
C756 H739 0.930 . S
C756 N751 1.307 . S
C756 C753 1.402 . S
N757 Gd720 2.601 . S
N757 C758 1.359 . S
N757 C761 1.334 . S
C758 C755 1.426 . S
C758 N757 1.359 . S
C758 C762 1.413 . S
C759 H750 0.930 . S
C759 C760 1.359 . S
C759 C761 1.394 . S
C760 C759 1.359 . S
C760 C762 1.391 . S
C760 H763 0.929 . S
C761 H743 0.930 . S
C761 N757 1.334 . S
C761 C759 1.394 . S
C762 C758 1.413 . S
C762 C760 1.391 . S
C762 C777 1.437 . S
H763 C760 0.929 . S
O764 Gd720 2.545 . S
O764 C779 1.258 . S
O765 Gd720 2.606 1_565 S
O765 Gd721 2.362 1_554 S
O765 C776 1.284 . S
O766 Gd721 2.324 1_545 S
O766 C786 1.254 . S
O767 Gd720 2.429 . S
O767 C786 1.268 1_554 S
O768 Gd720 2.545 1_565 S
O768 C776 1.250 . S
O769 Gd720 2.412 . S
O769 C779 1.252 . S
O770 Gd721 2.545 . S
O770 C788 1.258 . S
O771 Gd720 2.350 1_556 S
O771 Gd721 2.613 1_545 S
O771 C787 1.294 . S
O772 Gd720 2.324 1_565 S
O772 C795 1.254 . S
O773 Gd721 2.429 . S
O773 C795 1.268 1_556 S
O774 Gd721 2.545 1_545 S
O774 C787 1.250 . S
O775 Gd721 2.412 . S
O775 C788 1.252 . S
C776 O765 1.284 . S
C776 O768 1.250 . S
C777 H746 0.929 . S
C777 C762 1.437 . S
C777 C778 1.317 . S
C778 H749 0.930 . S
C778 C754 1.431 . S
C778 C777 1.317 . S
C779 Gd720 2.828 . S
C779 O764 1.258 . S
C779 O769 1.252 . S
C779 C780 1.497 . S
C780 C779 1.497 . S
C780 C781 1.395 . S
C780 C782 1.380 1_545 S
C781 C780 1.395 . S
C781 C784 1.398 . S
C781 H796 0.930 . S
C782 C780 1.380 1_565 S
C782 C783 1.391 . S
C782 H797 0.930 . S
C783 C782 1.391 . S
C783 C785 1.387 1_565 S
C784 C781 1.398 . S
C784 C785 1.380 . S
C784 H798 0.930 . S
C785 C783 1.387 1_545 S
C785 C784 1.380 . S
C785 H799 0.930 . S
C786 O766 1.254 . S
C786 O767 1.268 1_556 S
C787 O771 1.294 . S
C787 O774 1.250 . S
C788 Gd721 2.828 . S
C788 O770 1.258 . S
C788 O775 1.252 . S
C788 C789 1.497 . S
C789 C788 1.497 . S
C789 C790 1.395 . S
C789 C791 1.380 1_565 S
C790 C789 1.395 . S
C790 C793 1.398 . S
C790 H800 0.930 . S
C791 C789 1.380 1_545 S
C791 C792 1.391 . S
C791 H801 0.930 . S
C792 C791 1.391 . S
C792 C794 1.387 1_545 S
C793 C790 1.398 . S
C793 C794 1.380 . S
C793 H802 0.930 . S
C794 C792 1.387 1_565 S
C794 C793 1.380 . S
C794 H803 0.932 . S
C795 O772 1.254 . S
C795 O773 1.268 1_554 S
H796 C781 0.930 . S
H797 C782 0.930 . S
H798 C784 0.930 . S
H799 C785 0.930 . S
H800 C790 0.930 . S
H801 C791 0.930 . S
H802 C793 0.930 . S
H803 C794 0.932 . S
Gd804 N835 2.661 . S
Gd804 N841 2.601 . S
Gd804 O848 2.545 . S
Gd804 O849 2.606 1_655 S
Gd804 O851 2.429 . S
Gd804 O852 2.545 1_655 S
Gd804 O853 2.412 . S
Gd804 O855 2.339 1_554 S
Gd804 O856 2.324 1_655 S
Gd804 C863 2.828 . S
Gd805 N814 2.661 . S
Gd805 N818 2.601 . S
Gd805 O849 2.362 1_556 S
Gd805 O850 2.324 1_455 S
Gd805 O854 2.545 . S
Gd805 O855 2.620 1_455 S
Gd805 O857 2.469 . S
Gd805 O858 2.545 1_455 S
Gd805 O859 2.412 . S
Gd805 C872 2.828 . S
C806 C809 1.417 . S
C806 C811 1.431 . S
C806 C812 1.412 . S
C807 C810 1.437 . S
C807 C811 1.317 . S
C807 H826 0.929 . S
C808 C809 1.426 . S
C808 C810 1.413 . S
C808 N818 1.359 . S
C809 C806 1.417 . S
C809 C808 1.426 . S
C809 N814 1.350 . S
C810 C807 1.437 . S
C810 C808 1.413 . S
C810 C820 1.391 . S
C811 C806 1.431 . S
C811 C807 1.317 . S
C811 H822 0.930 . S
C812 C806 1.412 . S
C812 C813 1.355 . S
C812 H824 0.930 . S
C813 C812 1.355 . S
C813 C815 1.402 . S
C813 H825 0.930 . S
N814 Gd805 2.661 . S
N814 C809 1.350 . S
N814 C815 1.307 . S
C815 C813 1.402 . S
C815 N814 1.307 . S
C815 H816 0.930 . S
H816 C815 0.930 . S
C817 N818 1.334 . S
C817 C819 1.394 . S
C817 H821 0.930 . S
N818 Gd805 2.601 . S
N818 C808 1.359 . S
N818 C817 1.334 . S
C819 C817 1.394 . S
C819 C820 1.359 . S
C819 H831 0.930 . S
C820 C810 1.391 . S
C820 C819 1.359 . S
C820 H832 0.929 . S
H821 C817 0.930 . S
H822 C811 0.930 . S
H823 C840 0.930 . S
H824 C812 0.930 . S
H825 C813 0.930 . S
H826 C807 0.929 . S
H827 C845 0.930 . S
H828 C836 0.930 . S
H829 C837 0.930 . S
H830 C861 0.929 . S
H831 C819 0.930 . S
H832 C820 0.929 . S
H833 C862 0.930 . S
H834 C843 0.930 . S
N835 Gd804 2.661 . S
N835 C839 1.350 . S
N835 C840 1.307 . S
C836 H828 0.930 . S
C836 C837 1.355 . S
C836 C838 1.412 . S
C837 H829 0.930 . S
C837 C836 1.355 . S
C837 C840 1.402 . S
C838 C836 1.412 . S
C838 C839 1.417 . S
C838 C862 1.431 . S
C839 N835 1.350 . S
C839 C838 1.417 . S
C839 C842 1.426 . S
C840 H823 0.930 . S
C840 N835 1.307 . S
C840 C837 1.402 . S
N841 Gd804 2.601 . S
N841 C842 1.359 . S
N841 C845 1.334 . S
C842 C839 1.426 . S
C842 N841 1.359 . S
C842 C846 1.413 . S
C843 H834 0.930 . S
C843 C844 1.359 . S
C843 C845 1.394 . S
C844 C843 1.359 . S
C844 C846 1.391 . S
C844 H847 0.929 . S
C845 H827 0.930 . S
C845 N841 1.334 . S
C845 C843 1.394 . S
C846 C842 1.413 . S
C846 C844 1.391 . S
C846 C861 1.437 . S
H847 C844 0.929 . S
O848 Gd804 2.545 . S
O848 C863 1.258 . S
O849 Gd804 2.606 1_455 S
O849 Gd805 2.362 1_554 S
O849 C860 1.284 . S
O850 Gd805 2.324 1_655 S
O850 C870 1.254 . S
O851 Gd804 2.429 . S
O851 C870 1.268 1_554 S
O852 Gd804 2.545 1_455 S
O852 C860 1.250 . S
O853 Gd804 2.412 . S
O853 C863 1.252 . S
O854 Gd805 2.545 . S
O854 C872 1.258 . S
O855 Gd804 2.339 1_556 S
O855 Gd805 2.620 1_655 S
O855 C871 1.303 . S
O856 Gd804 2.324 1_455 S
O856 C879 1.254 . S
O857 Gd805 2.469 . S
O857 C879 1.198 1_556 S
O858 Gd805 2.545 1_655 S
O858 C871 1.250 . S
O859 Gd805 2.412 . S
O859 C872 1.252 . S
C860 O849 1.284 . S
C860 O852 1.250 . S
C861 H830 0.929 . S
C861 C846 1.437 . S
C861 C862 1.317 . S
C862 H833 0.930 . S
C862 C838 1.431 . S
C862 C861 1.317 . S
C863 Gd804 2.828 . S
C863 O848 1.258 . S
C863 O853 1.252 . S
C863 C864 1.497 . S
C864 C863 1.497 . S
C864 C865 1.395 . S
C864 C866 1.380 1_655 S
C865 C864 1.395 . S
C865 C868 1.398 . S
C865 H880 0.930 . S
C866 C864 1.380 1_455 S
C866 C867 1.391 . S
C866 H881 0.930 . S
C867 C866 1.391 . S
C867 C869 1.387 1_455 S
C868 C865 1.398 . S
C868 C869 1.380 . S
C868 H882 0.930 . S
C869 C867 1.387 1_655 S
C869 C868 1.380 . S
C869 H883 0.930 . S
C870 O850 1.254 . S
C870 O851 1.268 1_556 S
C871 O855 1.303 . S
C871 O858 1.250 . S
C872 Gd805 2.828 . S
C872 O854 1.258 . S
C872 O859 1.252 . S
C872 C873 1.497 . S
C873 C872 1.497 . S
C873 C874 1.395 . S
C873 C875 1.380 1_455 S
C874 C873 1.395 . S
C874 C877 1.398 . S
C874 H884 0.930 . S
C875 C873 1.380 1_655 S
C875 C876 1.391 . S
C875 H885 0.930 . S
C876 C875 1.391 . S
C876 C878 1.387 1_655 S
C877 C874 1.398 . S
C877 C878 1.380 . S
C877 H886 0.930 . S
C878 C876 1.387 1_455 S
C878 C877 1.380 . S
C878 H887 0.930 . S
C879 O856 1.254 . S
C879 O857 1.198 1_554 S
H880 C865 0.930 . S
H881 C866 0.930 . S
H882 C868 0.930 . S
H883 C869 0.930 . S
H884 C874 0.930 . S
H885 C875 0.930 . S
H886 C877 0.930 . S
H887 C878 0.930 . S
Gd888 N919 2.661 . S
Gd888 N925 2.601 . S
Gd888 O932 2.545 . S
Gd888 O933 2.643 . S
Gd888 O935 2.429 . S
Gd888 O936 2.545 . S
Gd888 O937 2.412 . S
Gd888 O939 2.362 1_556 S
Gd888 O940 2.324 . S
Gd888 C947 2.828 . S
Gd889 N898 2.661 . S
Gd889 N902 2.601 . S
Gd889 O933 2.301 1_554 S
Gd889 O934 2.324 . S
Gd889 O938 2.545 . S
Gd889 O939 2.606 . S
Gd889 O941 2.429 . S
Gd889 O942 2.545 . S
Gd889 O943 2.412 . S
Gd889 C956 2.828 . S
C890 C893 1.417 . S
C890 C895 1.431 . S
C890 C896 1.412 . S
C891 C894 1.437 . S
C891 C895 1.317 . S
C891 H910 0.929 . S
C892 C893 1.426 . S
C892 C894 1.413 . S
C892 N902 1.359 . S
C893 C890 1.417 . S
C893 C892 1.426 . S
C893 N898 1.350 . S
C894 C891 1.437 . S
C894 C892 1.413 . S
C894 C904 1.391 . S
C895 C890 1.431 . S
C895 C891 1.317 . S
C895 H906 0.930 . S
C896 C890 1.412 . S
C896 C897 1.355 . S
C896 H908 0.930 . S
C897 C896 1.355 . S
C897 C899 1.402 . S
C897 H909 0.930 . S
N898 Gd889 2.661 . S
N898 C893 1.350 . S
N898 C899 1.307 . S
C899 C897 1.402 . S
C899 N898 1.307 . S
C899 H900 0.930 . S
H900 C899 0.930 . S
C901 N902 1.334 . S
C901 C903 1.394 . S
C901 H905 0.930 . S
N902 Gd889 2.601 . S
N902 C892 1.359 . S
N902 C901 1.334 . S
C903 C901 1.394 . S
C903 C904 1.359 . S
C903 H915 0.930 . S
C904 C894 1.391 . S
C904 C903 1.359 . S
C904 H916 0.929 . S
H905 C901 0.930 . S
H906 C895 0.930 . S
H907 C924 0.930 . S
H908 C896 0.930 . S
H909 C897 0.930 . S
H910 C891 0.929 . S
H911 C929 0.930 . S
H912 C920 0.930 . S
H913 C921 0.930 . S
H914 C945 0.929 . S
H915 C903 0.930 . S
H916 C904 0.929 . S
H917 C946 0.930 . S
H918 C927 0.930 . S
N919 Gd888 2.661 . S
N919 C923 1.350 . S
N919 C924 1.307 . S
C920 H912 0.930 . S
C920 C921 1.355 . S
C920 C922 1.412 . S
C921 H913 0.930 . S
C921 C920 1.355 . S
C921 C924 1.402 . S
C922 C920 1.412 . S
C922 C923 1.417 . S
C922 C946 1.431 . S
C923 N919 1.350 . S
C923 C922 1.417 . S
C923 C926 1.426 . S
C924 H907 0.930 . S
C924 N919 1.307 . S
C924 C921 1.402 . S
N925 Gd888 2.601 . S
N925 C926 1.359 . S
N925 C929 1.334 . S
C926 C923 1.426 . S
C926 N925 1.359 . S
C926 C930 1.413 . S
C927 H918 0.930 . S
C927 C928 1.359 . S
C927 C929 1.394 . S
C928 C927 1.359 . S
C928 C930 1.391 . S
C928 H931 0.929 . S
C929 H911 0.930 . S
C929 N925 1.334 . S
C929 C927 1.394 . S
C930 C926 1.413 . S
C930 C928 1.391 . S
C930 C945 1.437 . S
H931 C928 0.929 . S
O932 Gd888 2.545 . S
O932 C947 1.258 . S
O933 Gd888 2.643 . S
O933 Gd889 2.301 1_556 S
O933 C944 1.335 . S
O934 Gd889 2.324 . S
O934 C954 1.254 . S
O935 Gd888 2.429 . S
O935 C954 1.268 1_556 S
O936 Gd888 2.545 . S
O936 C944 1.250 . S
O937 Gd888 2.412 . S
O937 C947 1.252 . S
O938 Gd889 2.545 . S
O938 C956 1.258 . S
O939 Gd888 2.362 1_554 S
O939 Gd889 2.606 . S
O939 C955 1.284 . S
O940 Gd888 2.324 . S
O940 C963 1.254 . S
O941 Gd889 2.429 . S
O941 C963 1.268 1_554 S
O942 Gd889 2.545 . S
O942 C955 1.250 . S
O943 Gd889 2.412 . S
O943 C956 1.252 . S
C944 O933 1.335 . S
C944 O936 1.250 . S
C945 H914 0.929 . S
C945 C930 1.437 . S
C945 C946 1.317 . S
C946 H917 0.930 . S
C946 C922 1.431 . S
C946 C945 1.317 . S
C947 Gd888 2.828 . S
C947 O932 1.258 . S
C947 O937 1.252 . S
C947 C948 1.497 . S
C948 C947 1.497 . S
C948 C949 1.395 . S
C948 C950 1.380 . S
C949 C948 1.395 . S
C949 C952 1.398 . S
C949 H964 0.930 . S
C950 C948 1.380 . S
C950 C951 1.391 . S
C950 H965 0.930 . S
C951 C950 1.391 . S
C951 C953 1.387 . S
C952 C949 1.398 . S
C952 C953 1.380 . S
C952 H966 0.930 . S
C953 C951 1.387 . S
C953 C952 1.380 . S
C953 H967 0.930 . S
C954 O934 1.254 . S
C954 O935 1.268 1_554 S
C955 O939 1.284 . S
C955 O942 1.250 . S
C956 Gd889 2.828 . S
C956 O938 1.258 . S
C956 O943 1.252 . S
C956 C957 1.497 . S
C957 C956 1.497 . S
C957 C958 1.395 . S
C957 C959 1.380 . S
C958 C957 1.395 . S
C958 C961 1.398 . S
C958 H968 0.930 . S
C959 C957 1.380 . S
C959 C960 1.391 . S
C959 H969 0.930 . S
C960 C959 1.391 . S
C960 C962 1.387 . S
C961 C958 1.398 . S
C961 C962 1.380 . S
C961 H970 0.930 . S
C962 C960 1.387 . S
C962 C961 1.380 . S
C962 H971 0.930 . S
C963 O940 1.254 . S
C963 O941 1.268 1_556 S
H964 C949 0.930 . S
H965 C950 0.930 . S
H966 C952 0.930 . S
H967 C953 0.930 . S
H968 C958 0.930 . S
H969 C959 0.930 . S
H970 C961 0.930 . S
H971 C962 0.930 . S
Gd972 N1003 2.661 . S
Gd972 N1009 2.601 . S
Gd972 O1016 2.545 . S
Gd972 O1017 2.606 . S
Gd972 O1019 2.429 . S
Gd972 O1020 2.545 . S
Gd972 O1021 2.412 . S
Gd972 O1023 2.362 . S
Gd972 O1024 2.324 . S
Gd972 C1031 2.828 . S
Gd973 N982 2.661 . S
Gd973 N986 2.601 . S
Gd973 O1017 2.362 . S
Gd973 O1018 2.324 . S
Gd973 O1022 2.545 . S
Gd973 O1023 2.606 . S
Gd973 O1025 2.429 . S
Gd973 O1026 2.545 . S
Gd973 O1027 2.412 . S
Gd973 C1040 2.828 . S
C974 C977 1.417 . S
C974 C979 1.431 . S
C974 C980 1.412 . S
C975 C978 1.437 . S
C975 C979 1.317 . S
C975 H994 0.929 . S
C976 C977 1.426 . S
C976 C978 1.413 . S
C976 N986 1.359 . S
C977 C974 1.417 . S
C977 C976 1.426 . S
C977 N982 1.350 . S
C978 C975 1.437 . S
C978 C976 1.413 . S
C978 C988 1.391 . S
C979 C974 1.431 . S
C979 C975 1.317 . S
C979 H990 0.930 . S
C980 C974 1.412 . S
C980 C981 1.355 . S
C980 H992 0.930 . S
C981 C980 1.355 . S
C981 C983 1.402 . S
C981 H993 0.930 . S
N982 Gd973 2.661 . S
N982 C977 1.350 . S
N982 C983 1.307 . S
C983 C981 1.402 . S
C983 N982 1.307 . S
C983 H984 0.930 . S
H984 C983 0.930 . S
C985 N986 1.334 . S
C985 C987 1.394 . S
C985 H989 0.930 . S
N986 Gd973 2.601 . S
N986 C976 1.359 . S
N986 C985 1.334 . S
C987 C985 1.394 . S
C987 C988 1.359 . S
C987 H999 0.930 . S
C988 C978 1.391 . S
C988 C987 1.359 . S
C988 H1000 0.929 . S
H989 C985 0.930 . S
H990 C979 0.930 . S
H991 C1008 0.930 . S
H992 C980 0.930 . S
H993 C981 0.930 . S
H994 C975 0.929 . S
H995 C1013 0.930 . S
H996 C1004 0.930 . S
H997 C1005 0.930 . S
H998 C1029 0.929 . S
H999 C987 0.930 . S
H1000 C988 0.929 . S
H1001 C1030 0.930 . S
H1002 C1011 0.930 . S
N1003 Gd972 2.661 . S
N1003 C1007 1.350 . S
N1003 C1008 1.307 . S
C1004 H996 0.930 . S
C1004 C1005 1.355 . S
C1004 C1006 1.412 . S
C1005 H997 0.930 . S
C1005 C1004 1.355 . S
C1005 C1008 1.402 . S
C1006 C1004 1.412 . S
C1006 C1007 1.417 . S
C1006 C1030 1.431 . S
C1007 N1003 1.350 . S
C1007 C1006 1.417 . S
C1007 C1010 1.426 . S
C1008 H991 0.930 . S
C1008 N1003 1.307 . S
C1008 C1005 1.402 . S
N1009 Gd972 2.601 . S
N1009 C1010 1.359 . S
N1009 C1013 1.334 . S
C1010 C1007 1.426 . S
C1010 N1009 1.359 . S
C1010 C1014 1.413 . S
C1011 H1002 0.930 . S
C1011 C1012 1.359 . S
C1011 C1013 1.394 . S
C1012 C1011 1.359 . S
C1012 C1014 1.391 . S
C1012 H1015 0.929 . S
C1013 H995 0.930 . S
C1013 N1009 1.334 . S
C1013 C1011 1.394 . S
C1014 C1010 1.413 . S
C1014 C1012 1.391 . S
C1014 C1029 1.437 . S
H1015 C1012 0.929 . S
O1016 Gd972 2.545 . S
O1016 C1031 1.258 . S
O1017 Gd972 2.606 . S
O1017 Gd973 2.362 . S
O1017 C1028 1.284 . S
O1018 Gd973 2.324 . S
O1018 C1038 1.254 . S
O1019 Gd972 2.429 . S
O1019 C1038 1.268 . S
O1020 Gd972 2.545 . S
O1020 C1028 1.250 . S
O1021 Gd972 2.412 . S
O1021 C1031 1.252 . S
O1022 Gd973 2.545 . S
O1022 C1040 1.258 . S
O1023 Gd972 2.362 . S
O1023 Gd973 2.606 . S
O1023 C1039 1.284 . S
O1024 Gd972 2.324 . S
O1024 C1047 1.254 . S
O1025 Gd973 2.429 . S
O1025 C1047 1.268 . S
O1026 Gd973 2.545 . S
O1026 C1039 1.250 . S
O1027 Gd973 2.412 . S
O1027 C1040 1.252 . S
C1028 O1017 1.284 . S
C1028 O1020 1.250 . S
C1029 H998 0.929 . S
C1029 C1014 1.437 . S
C1029 C1030 1.317 . S
C1030 H1001 0.930 . S
C1030 C1006 1.431 . S
C1030 C1029 1.317 . S
C1031 Gd972 2.828 . S
C1031 O1016 1.258 . S
C1031 O1021 1.252 . S
C1031 C1032 1.497 . S
C1032 C1031 1.497 . S
C1032 C1033 1.395 . S
C1032 C1034 1.380 . S
C1033 C1032 1.395 . S
C1033 C1036 1.398 . S
C1033 H1048 0.930 . S
C1034 C1032 1.380 . S
C1034 C1035 1.391 . S
C1034 H1049 0.930 . S
C1035 C1034 1.391 . S
C1035 C1037 1.387 . S
C1036 C1033 1.398 . S
C1036 C1037 1.380 . S
C1036 H1050 0.930 . S
C1037 C1035 1.387 . S
C1037 C1036 1.380 . S
C1037 H1051 0.930 . S
C1038 O1018 1.254 . S
C1038 O1019 1.268 . S
C1039 O1023 1.284 . S
C1039 O1026 1.250 . S
C1040 Gd973 2.828 . S
C1040 O1022 1.258 . S
C1040 O1027 1.252 . S
C1040 C1041 1.497 . S
C1041 C1040 1.497 . S
C1041 C1042 1.395 . S
C1041 C1043 1.380 . S
C1042 C1041 1.395 . S
C1042 C1045 1.398 . S
C1042 H1052 0.930 . S
C1043 C1041 1.380 . S
C1043 C1044 1.391 . S
C1043 H1053 0.930 . S
C1044 C1043 1.391 . S
C1044 C1046 1.387 . S
C1045 C1042 1.398 . S
C1045 C1046 1.380 . S
C1045 H1054 0.930 . S
C1046 C1044 1.387 . S
C1046 C1045 1.380 . S
C1046 H1055 0.930 . S
C1047 O1024 1.254 . S
C1047 O1025 1.268 . S
H1048 C1033 0.930 . S
H1049 C1034 0.930 . S
H1050 C1036 0.930 . S
H1051 C1037 0.930 . S
H1052 C1042 0.930 . S
H1053 C1043 0.930 . S
H1054 C1045 0.930 . S
H1055 C1046 0.930 . S
Gd1056 N1087 2.661 . S
Gd1056 N1093 2.601 . S
Gd1056 O1100 2.545 . S
Gd1056 O1101 2.606 . S
Gd1056 O1103 2.429 . S
Gd1056 O1104 2.545 . S
Gd1056 O1105 2.412 . S
Gd1056 O1107 2.362 . S
Gd1056 O1108 2.324 . S
Gd1056 C1115 2.828 . S
Gd1057 N1066 2.661 . S
Gd1057 N1070 2.601 . S
Gd1057 O1101 2.362 . S
Gd1057 O1102 2.324 . S
Gd1057 O1106 2.545 . S
Gd1057 O1107 2.606 . S
Gd1057 O1109 2.429 . S
Gd1057 O1110 2.545 . S
Gd1057 O1111 2.412 . S
Gd1057 C1124 2.828 . S
C1058 C1061 1.417 . S
C1058 C1063 1.431 . S
C1058 C1064 1.412 . S
C1059 C1062 1.437 . S
C1059 C1063 1.317 . S
C1059 H1078 0.929 . S
C1060 C1061 1.426 . S
C1060 C1062 1.413 . S
C1060 N1070 1.359 . S
C1061 C1058 1.417 . S
C1061 C1060 1.426 . S
C1061 N1066 1.350 . S
C1062 C1059 1.437 . S
C1062 C1060 1.413 . S
C1062 C1072 1.391 . S
C1063 C1058 1.431 . S
C1063 C1059 1.317 . S
C1063 H1074 0.930 . S
C1064 C1058 1.412 . S
C1064 C1065 1.355 . S
C1064 H1076 0.930 . S
C1065 C1064 1.355 . S
C1065 C1067 1.402 . S
C1065 H1077 0.930 . S
N1066 Gd1057 2.661 . S
N1066 C1061 1.350 . S
N1066 C1067 1.307 . S
C1067 C1065 1.402 . S
C1067 N1066 1.307 . S
C1067 H1068 0.930 . S
H1068 C1067 0.930 . S
C1069 N1070 1.334 . S
C1069 C1071 1.394 . S
C1069 H1073 0.930 . S
N1070 Gd1057 2.601 . S
N1070 C1060 1.359 . S
N1070 C1069 1.334 . S
C1071 C1069 1.394 . S
C1071 C1072 1.359 . S
C1071 H1083 0.930 . S
C1072 C1062 1.391 . S
C1072 C1071 1.359 . S
C1072 H1084 0.929 . S
H1073 C1069 0.930 . S
H1074 C1063 0.930 . S
H1075 C1092 0.930 . S
H1076 C1064 0.930 . S
H1077 C1065 0.930 . S
H1078 C1059 0.929 . S
H1079 C1097 0.930 . S
H1080 C1088 0.930 . S
H1081 C1089 0.930 . S
H1082 C1113 0.929 . S
H1083 C1071 0.930 . S
H1084 C1072 0.929 . S
H1085 C1114 0.930 . S
H1086 C1095 0.930 . S
N1087 Gd1056 2.661 . S
N1087 C1091 1.350 . S
N1087 C1092 1.307 . S
C1088 H1080 0.930 . S
C1088 C1089 1.355 . S
C1088 C1090 1.412 . S
C1089 H1081 0.930 . S
C1089 C1088 1.355 . S
C1089 C1092 1.402 . S
C1090 C1088 1.412 . S
C1090 C1091 1.417 . S
C1090 C1114 1.431 . S
C1091 N1087 1.350 . S
C1091 C1090 1.417 . S
C1091 C1094 1.426 . S
C1092 H1075 0.930 . S
C1092 N1087 1.307 . S
C1092 C1089 1.402 . S
N1093 Gd1056 2.601 . S
N1093 C1094 1.359 . S
N1093 C1097 1.334 . S
C1094 C1091 1.426 . S
C1094 N1093 1.359 . S
C1094 C1098 1.413 . S
C1095 H1086 0.930 . S
C1095 C1096 1.359 . S
C1095 C1097 1.394 . S
C1096 C1095 1.359 . S
C1096 C1098 1.391 . S
C1096 H1099 0.929 . S
C1097 H1079 0.930 . S
C1097 N1093 1.334 . S
C1097 C1095 1.394 . S
C1098 C1094 1.413 . S
C1098 C1096 1.391 . S
C1098 C1113 1.437 . S
H1099 C1096 0.929 . S
O1100 Gd1056 2.545 . S
O1100 C1115 1.258 . S
O1101 Gd1056 2.606 . S
O1101 Gd1057 2.362 . S
O1101 C1112 1.284 . S
O1102 Gd1057 2.324 . S
O1102 C1122 1.254 . S
O1103 Gd1056 2.429 . S
O1103 C1122 1.268 . S
O1104 Gd1056 2.545 . S
O1104 C1112 1.250 . S
O1105 Gd1056 2.412 . S
O1105 C1115 1.252 . S
O1106 Gd1057 2.545 . S
O1106 C1124 1.258 . S
O1107 Gd1056 2.362 . S
O1107 Gd1057 2.606 . S
O1107 C1123 1.284 . S
O1108 Gd1056 2.324 . S
O1108 C1131 1.254 . S
O1109 Gd1057 2.429 . S
O1109 C1131 1.268 . S
O1110 Gd1057 2.545 . S
O1110 C1123 1.250 . S
O1111 Gd1057 2.412 . S
O1111 C1124 1.252 . S
C1112 O1101 1.284 . S
C1112 O1104 1.250 . S
C1113 H1082 0.929 . S
C1113 C1098 1.437 . S
C1113 C1114 1.317 . S
C1114 H1085 0.930 . S
C1114 C1090 1.431 . S
C1114 C1113 1.317 . S
C1115 Gd1056 2.828 . S
C1115 O1100 1.258 . S
C1115 O1105 1.252 . S
C1115 C1116 1.497 . S
C1116 C1115 1.497 . S
C1116 C1117 1.395 . S
C1116 C1118 1.380 . S
C1117 C1116 1.395 . S
C1117 C1120 1.398 . S
C1117 H1132 0.930 . S
C1118 C1116 1.380 . S
C1118 C1119 1.391 . S
C1118 H1133 0.930 . S
C1119 C1118 1.391 . S
C1119 C1121 1.387 . S
C1120 C1117 1.398 . S
C1120 C1121 1.380 . S
C1120 H1134 0.930 . S
C1121 C1119 1.387 . S
C1121 C1120 1.380 . S
C1121 H1135 0.930 . S
C1122 O1102 1.254 . S
C1122 O1103 1.268 . S
C1123 O1107 1.284 . S
C1123 O1110 1.250 . S
C1124 Gd1057 2.828 . S
C1124 O1106 1.258 . S
C1124 O1111 1.252 . S
C1124 C1125 1.497 . S
C1125 C1124 1.497 . S
C1125 C1126 1.395 . S
C1125 C1127 1.380 . S
C1126 C1125 1.395 . S
C1126 C1129 1.398 . S
C1126 H1136 0.930 . S
C1127 C1125 1.380 . S
C1127 C1128 1.391 . S
C1127 H1137 0.930 . S
C1128 C1127 1.391 . S
C1128 C1130 1.387 . S
C1129 C1126 1.398 . S
C1129 C1130 1.380 . S
C1129 H1138 0.930 . S
C1130 C1128 1.387 . S
C1130 C1129 1.380 . S
C1130 H1139 0.930 . S
C1131 O1108 1.254 . S
C1131 O1109 1.268 . S
H1132 C1117 0.930 . S
H1133 C1118 0.930 . S
H1134 C1120 0.930 . S
H1135 C1121 0.930 . S
H1136 C1126 0.930 . S
H1137 C1127 0.930 . S
H1138 C1129 0.930 . S
H1139 C1130 0.930 . S
Gd1140 N1171 2.661 . S
Gd1140 N1177 2.601 . S
Gd1140 O1184 2.545 . S
Gd1140 O1185 2.606 . S
Gd1140 O1187 2.429 . S
Gd1140 O1188 2.545 . S
Gd1140 O1189 2.412 . S
Gd1140 O1191 2.362 . S
Gd1140 O1192 2.324 . S
Gd1140 C1199 2.828 . S
Gd1141 N1150 2.661 . S
Gd1141 N1154 2.601 . S
Gd1141 O1185 2.362 . S
Gd1141 O1186 2.324 . S
Gd1141 O1190 2.545 . S
Gd1141 O1191 2.606 . S
Gd1141 O1193 2.429 . S
Gd1141 O1194 2.545 . S
Gd1141 O1195 2.412 . S
Gd1141 C1208 2.828 . S
C1142 C1145 1.417 . S
C1142 C1147 1.431 . S
C1142 C1148 1.412 . S
C1143 C1146 1.437 . S
C1143 C1147 1.317 . S
C1143 H1162 0.929 . S
C1144 C1145 1.426 . S
C1144 C1146 1.413 . S
C1144 N1154 1.359 . S
C1145 C1142 1.417 . S
C1145 C1144 1.426 . S
C1145 N1150 1.350 . S
C1146 C1143 1.437 . S
C1146 C1144 1.413 . S
C1146 C1156 1.391 . S
C1147 C1142 1.431 . S
C1147 C1143 1.317 . S
C1147 H1158 0.930 . S
C1148 C1142 1.412 . S
C1148 C1149 1.355 . S
C1148 H1160 0.930 . S
C1149 C1148 1.355 . S
C1149 C1151 1.402 . S
C1149 H1161 0.930 . S
N1150 Gd1141 2.661 . S
N1150 C1145 1.350 . S
N1150 C1151 1.307 . S
C1151 C1149 1.402 . S
C1151 N1150 1.307 . S
C1151 H1152 0.930 . S
H1152 C1151 0.930 . S
C1153 N1154 1.334 . S
C1153 C1155 1.394 . S
C1153 H1157 0.930 . S
N1154 Gd1141 2.601 . S
N1154 C1144 1.359 . S
N1154 C1153 1.334 . S
C1155 C1153 1.394 . S
C1155 C1156 1.359 . S
C1155 H1167 0.930 . S
C1156 C1146 1.391 . S
C1156 C1155 1.359 . S
C1156 H1168 0.929 . S
H1157 C1153 0.930 . S
H1158 C1147 0.930 . S
H1159 C1176 0.930 . S
H1160 C1148 0.930 . S
H1161 C1149 0.930 . S
H1162 C1143 0.929 . S
H1163 C1181 0.930 . S
H1164 C1172 0.930 . S
H1165 C1173 0.930 . S
H1166 C1197 0.929 . S
H1167 C1155 0.930 . S
H1168 C1156 0.929 . S
H1169 C1198 0.930 . S
H1170 C1179 0.930 . S
N1171 Gd1140 2.661 . S
N1171 C1175 1.350 . S
N1171 C1176 1.307 . S
C1172 H1164 0.930 . S
C1172 C1173 1.355 . S
C1172 C1174 1.412 . S
C1173 H1165 0.930 . S
C1173 C1172 1.355 . S
C1173 C1176 1.402 . S
C1174 C1172 1.412 . S
C1174 C1175 1.417 . S
C1174 C1198 1.431 . S
C1175 N1171 1.350 . S
C1175 C1174 1.417 . S
C1175 C1178 1.426 . S
C1176 H1159 0.930 . S
C1176 N1171 1.307 . S
C1176 C1173 1.402 . S
N1177 Gd1140 2.601 . S
N1177 C1178 1.359 . S
N1177 C1181 1.334 . S
C1178 C1175 1.426 . S
C1178 N1177 1.359 . S
C1178 C1182 1.413 . S
C1179 H1170 0.930 . S
C1179 C1180 1.359 . S
C1179 C1181 1.394 . S
C1180 C1179 1.359 . S
C1180 C1182 1.391 . S
C1180 H1183 0.929 . S
C1181 H1163 0.930 . S
C1181 N1177 1.334 . S
C1181 C1179 1.394 . S
C1182 C1178 1.413 . S
C1182 C1180 1.391 . S
C1182 C1197 1.437 . S
H1183 C1180 0.929 . S
O1184 Gd1140 2.545 . S
O1184 C1199 1.258 . S
O1185 Gd1140 2.606 . S
O1185 Gd1141 2.362 . S
O1185 C1196 1.284 . S
O1186 Gd1141 2.324 . S
O1186 C1206 1.254 . S
O1187 Gd1140 2.429 . S
O1187 C1206 1.268 . S
O1188 Gd1140 2.545 . S
O1188 C1196 1.250 . S
O1189 Gd1140 2.412 . S
O1189 C1199 1.252 . S
O1190 Gd1141 2.545 . S
O1190 C1208 1.258 . S
O1191 Gd1140 2.362 . S
O1191 Gd1141 2.606 . S
O1191 C1207 1.284 . S
O1192 Gd1140 2.324 . S
O1192 C1215 1.254 . S
O1193 Gd1141 2.429 . S
O1193 C1215 1.268 . S
O1194 Gd1141 2.545 . S
O1194 C1207 1.250 . S
O1195 Gd1141 2.412 . S
O1195 C1208 1.252 . S
C1196 O1185 1.284 . S
C1196 O1188 1.250 . S
C1197 H1166 0.929 . S
C1197 C1182 1.437 . S
C1197 C1198 1.317 . S
C1198 H1169 0.930 . S
C1198 C1174 1.431 . S
C1198 C1197 1.317 . S
C1199 Gd1140 2.828 . S
C1199 O1184 1.258 . S
C1199 O1189 1.252 . S
C1199 C1200 1.497 . S
C1200 C1199 1.497 . S
C1200 C1201 1.395 . S
C1200 C1202 1.380 . S
C1201 C1200 1.395 . S
C1201 C1204 1.398 . S
C1201 H1216 0.930 . S
C1202 C1200 1.380 . S
C1202 C1203 1.391 . S
C1202 H1217 0.930 . S
C1203 C1202 1.391 . S
C1203 C1205 1.387 . S
C1204 C1201 1.398 . S
C1204 C1205 1.380 . S
C1204 H1218 0.930 . S
C1205 C1203 1.387 . S
C1205 C1204 1.380 . S
C1205 H1219 0.930 . S
C1206 O1186 1.254 . S
C1206 O1187 1.268 . S
C1207 O1191 1.284 . S
C1207 O1194 1.250 . S
C1208 Gd1141 2.828 . S
C1208 O1190 1.258 . S
C1208 O1195 1.252 . S
C1208 C1209 1.497 . S
C1209 C1208 1.497 . S
C1209 C1210 1.395 . S
C1209 C1211 1.380 . S
C1210 C1209 1.395 . S
C1210 C1213 1.398 . S
C1210 H1220 0.930 . S
C1211 C1209 1.380 . S
C1211 C1212 1.391 . S
C1211 H1221 0.930 . S
C1212 C1211 1.391 . S
C1212 C1214 1.387 . S
C1213 C1210 1.398 . S
C1213 C1214 1.380 . S
C1213 H1222 0.930 . S
C1214 C1212 1.387 . S
C1214 C1213 1.380 . S
C1214 H1223 0.930 . S
C1215 O1192 1.254 . S
C1215 O1193 1.268 . S
H1216 C1201 0.930 . S
H1217 C1202 0.930 . S
H1218 C1204 0.930 . S
H1219 C1205 0.930 . S
H1220 C1210 0.930 . S
H1221 C1211 0.930 . S
H1222 C1213 0.930 . S
H1223 C1214 0.930 . S
Gd1224 N1255 2.661 . S
Gd1224 N1261 2.601 . S
Gd1224 O1268 2.545 . S
Gd1224 O1269 2.606 . S
Gd1224 O1271 2.429 . S
Gd1224 O1272 2.545 . S
Gd1224 O1273 2.412 . S
Gd1224 O1275 2.362 . S
Gd1224 O1276 2.324 . S
Gd1224 C1283 2.828 . S
Gd1225 N1234 2.661 . S
Gd1225 N1238 2.601 . S
Gd1225 O1269 2.362 . S
Gd1225 O1270 2.324 . S
Gd1225 O1274 2.545 . S
Gd1225 O1275 2.606 . S
Gd1225 O1277 2.429 . S
Gd1225 O1278 2.545 . S
Gd1225 O1279 2.412 . S
Gd1225 C1292 2.828 . S
C1226 C1229 1.417 . S
C1226 C1231 1.431 . S
C1226 C1232 1.412 . S
C1227 C1230 1.437 . S
C1227 C1231 1.317 . S
C1227 H1246 0.929 . S
C1228 C1229 1.426 . S
C1228 C1230 1.413 . S
C1228 N1238 1.359 . S
C1229 C1226 1.417 . S
C1229 C1228 1.426 . S
C1229 N1234 1.350 . S
C1230 C1227 1.437 . S
C1230 C1228 1.413 . S
C1230 C1240 1.391 . S
C1231 C1226 1.431 . S
C1231 C1227 1.317 . S
C1231 H1242 0.930 . S
C1232 C1226 1.412 . S
C1232 C1233 1.355 . S
C1232 H1244 0.930 . S
C1233 C1232 1.355 . S
C1233 C1235 1.402 . S
C1233 H1245 0.930 . S
N1234 Gd1225 2.661 . S
N1234 C1229 1.350 . S
N1234 C1235 1.307 . S
C1235 C1233 1.402 . S
C1235 N1234 1.307 . S
C1235 H1236 0.930 . S
H1236 C1235 0.930 . S
C1237 N1238 1.334 . S
C1237 C1239 1.394 . S
C1237 H1241 0.930 . S
N1238 Gd1225 2.601 . S
N1238 C1228 1.359 . S
N1238 C1237 1.334 . S
C1239 C1237 1.394 . S
C1239 C1240 1.359 . S
C1239 H1251 0.930 . S
C1240 C1230 1.391 . S
C1240 C1239 1.359 . S
C1240 H1252 0.929 . S
H1241 C1237 0.930 . S
H1242 C1231 0.930 . S
H1243 C1260 0.930 . S
H1244 C1232 0.930 . S
H1245 C1233 0.930 . S
H1246 C1227 0.929 . S
H1247 C1265 0.930 . S
H1248 C1256 0.930 . S
H1249 C1257 0.930 . S
H1250 C1281 0.929 . S
H1251 C1239 0.930 . S
H1252 C1240 0.929 . S
H1253 C1282 0.930 . S
H1254 C1263 0.930 . S
N1255 Gd1224 2.661 . S
N1255 C1259 1.350 . S
N1255 C1260 1.307 . S
C1256 H1248 0.930 . S
C1256 C1257 1.355 . S
C1256 C1258 1.412 . S
C1257 H1249 0.930 . S
C1257 C1256 1.355 . S
C1257 C1260 1.402 . S
C1258 C1256 1.412 . S
C1258 C1259 1.417 . S
C1258 C1282 1.431 . S
C1259 N1255 1.350 . S
C1259 C1258 1.417 . S
C1259 C1262 1.426 . S
C1260 H1243 0.930 . S
C1260 N1255 1.307 . S
C1260 C1257 1.402 . S
N1261 Gd1224 2.601 . S
N1261 C1262 1.359 . S
N1261 C1265 1.334 . S
C1262 C1259 1.426 . S
C1262 N1261 1.359 . S
C1262 C1266 1.413 . S
C1263 H1254 0.930 . S
C1263 C1264 1.359 . S
C1263 C1265 1.394 . S
C1264 C1263 1.359 . S
C1264 C1266 1.391 . S
C1264 H1267 0.929 . S
C1265 H1247 0.930 . S
C1265 N1261 1.334 . S
C1265 C1263 1.394 . S
C1266 C1262 1.413 . S
C1266 C1264 1.391 . S
C1266 C1281 1.437 . S
H1267 C1264 0.929 . S
O1268 Gd1224 2.545 . S
O1268 C1283 1.258 . S
O1269 Gd1224 2.606 . S
O1269 Gd1225 2.362 . S
O1269 C1280 1.284 . S
O1270 Gd1225 2.324 . S
O1270 C1290 1.254 . S
O1271 Gd1224 2.429 . S
O1271 C1290 1.268 . S
O1272 Gd1224 2.545 . S
O1272 C1280 1.250 . S
O1273 Gd1224 2.412 . S
O1273 C1283 1.252 . S
O1274 Gd1225 2.545 . S
O1274 C1292 1.258 . S
O1275 Gd1224 2.362 . S
O1275 Gd1225 2.606 . S
O1275 C1291 1.284 . S
O1276 Gd1224 2.324 . S
O1276 C1299 1.254 . S
O1277 Gd1225 2.429 . S
O1277 C1299 1.268 . S
O1278 Gd1225 2.545 . S
O1278 C1291 1.250 . S
O1279 Gd1225 2.412 . S
O1279 C1292 1.252 . S
C1280 O1269 1.284 . S
C1280 O1272 1.250 . S
C1281 H1250 0.929 . S
C1281 C1266 1.437 . S
C1281 C1282 1.317 . S
C1282 H1253 0.930 . S
C1282 C1258 1.431 . S
C1282 C1281 1.317 . S
C1283 Gd1224 2.828 . S
C1283 O1268 1.258 . S
C1283 O1273 1.252 . S
C1283 C1284 1.497 . S
C1284 C1283 1.497 . S
C1284 C1285 1.395 . S
C1284 C1286 1.380 . S
C1285 C1284 1.395 . S
C1285 C1288 1.398 . S
C1285 H1300 0.930 . S
C1286 C1284 1.380 . S
C1286 C1287 1.391 . S
C1286 H1301 0.930 . S
C1287 C1286 1.391 . S
C1287 C1289 1.387 . S
C1288 C1285 1.398 . S
C1288 C1289 1.380 . S
C1288 H1302 0.930 . S
C1289 C1287 1.387 . S
C1289 C1288 1.380 . S
C1289 H1303 0.930 . S
C1290 O1270 1.254 . S
C1290 O1271 1.268 . S
C1291 O1275 1.284 . S
C1291 O1278 1.250 . S
C1292 Gd1225 2.828 . S
C1292 O1274 1.258 . S
C1292 O1279 1.252 . S
C1292 C1293 1.497 . S
C1293 C1292 1.497 . S
C1293 C1294 1.395 . S
C1293 C1295 1.380 . S
C1294 C1293 1.395 . S
C1294 C1297 1.398 . S
C1294 H1304 0.930 . S
C1295 C1293 1.380 . S
C1295 C1296 1.391 . S
C1295 H1305 0.930 . S
C1296 C1295 1.391 . S
C1296 C1298 1.387 . S
C1297 C1294 1.398 . S
C1297 C1298 1.380 . S
C1297 H1306 0.930 . S
C1298 C1296 1.387 . S
C1298 C1297 1.380 . S
C1298 H1307 0.930 . S
C1299 O1276 1.254 . S
C1299 O1277 1.268 . S
H1300 C1285 0.930 . S
H1301 C1286 0.930 . S
H1302 C1288 0.930 . S
H1303 C1289 0.930 . S
H1304 C1294 0.930 . S
H1305 C1295 0.930 . S
H1306 C1297 0.930 . S
H1307 C1298 0.930 . S
Gd1308 N1339 2.661 . S
Gd1308 N1345 2.601 . S
Gd1308 O1352 2.545 . S
Gd1308 O1353 2.606 . S
Gd1308 O1355 2.429 . S
Gd1308 O1356 2.545 . S
Gd1308 O1357 2.412 . S
Gd1308 O1359 2.362 . S
Gd1308 O1360 2.324 . S
Gd1308 C1367 2.828 . S
Gd1309 N1318 2.661 . S
Gd1309 N1322 2.601 . S
Gd1309 O1353 2.362 . S
Gd1309 O1354 2.324 . S
Gd1309 O1358 2.545 . S
Gd1309 O1359 2.606 . S
Gd1309 O1361 2.429 . S
Gd1309 O1362 2.545 . S
Gd1309 O1363 2.412 . S
Gd1309 C1376 2.828 . S
C1310 C1313 1.417 . S
C1310 C1315 1.431 . S
C1310 C1316 1.412 . S
C1311 C1314 1.437 . S
C1311 C1315 1.317 . S
C1311 H1330 0.929 . S
C1312 C1313 1.426 . S
C1312 C1314 1.413 . S
C1312 N1322 1.359 . S
C1313 C1310 1.417 . S
C1313 C1312 1.426 . S
C1313 N1318 1.350 . S
C1314 C1311 1.437 . S
C1314 C1312 1.413 . S
C1314 C1324 1.391 . S
C1315 C1310 1.431 . S
C1315 C1311 1.317 . S
C1315 H1326 0.930 . S
C1316 C1310 1.412 . S
C1316 C1317 1.355 . S
C1316 H1328 0.930 . S
C1317 C1316 1.355 . S
C1317 C1319 1.402 . S
C1317 H1329 0.930 . S
N1318 Gd1309 2.661 . S
N1318 C1313 1.350 . S
N1318 C1319 1.307 . S
C1319 C1317 1.402 . S
C1319 N1318 1.307 . S
C1319 H1320 0.930 . S
H1320 C1319 0.930 . S
C1321 N1322 1.334 . S
C1321 C1323 1.394 . S
C1321 H1325 0.930 . S
N1322 Gd1309 2.601 . S
N1322 C1312 1.359 . S
N1322 C1321 1.334 . S
C1323 C1321 1.394 . S
C1323 C1324 1.359 . S
C1323 H1335 0.930 . S
C1324 C1314 1.391 . S
C1324 C1323 1.359 . S
C1324 H1336 0.929 . S
H1325 C1321 0.930 . S
H1326 C1315 0.930 . S
H1327 C1344 0.930 . S
H1328 C1316 0.930 . S
H1329 C1317 0.930 . S
H1330 C1311 0.929 . S
H1331 C1349 0.930 . S
H1332 C1340 0.930 . S
H1333 C1341 0.930 . S
H1334 C1365 0.929 . S
H1335 C1323 0.930 . S
H1336 C1324 0.929 . S
H1337 C1366 0.930 . S
H1338 C1347 0.930 . S
N1339 Gd1308 2.661 . S
N1339 C1343 1.350 . S
N1339 C1344 1.307 . S
C1340 H1332 0.930 . S
C1340 C1341 1.355 . S
C1340 C1342 1.412 . S
C1341 H1333 0.930 . S
C1341 C1340 1.355 . S
C1341 C1344 1.402 . S
C1342 C1340 1.412 . S
C1342 C1343 1.417 . S
C1342 C1366 1.431 . S
C1343 N1339 1.350 . S
C1343 C1342 1.417 . S
C1343 C1346 1.426 . S
C1344 H1327 0.930 . S
C1344 N1339 1.307 . S
C1344 C1341 1.402 . S
N1345 Gd1308 2.601 . S
N1345 C1346 1.359 . S
N1345 C1349 1.334 . S
C1346 C1343 1.426 . S
C1346 N1345 1.359 . S
C1346 C1350 1.413 . S
C1347 H1338 0.930 . S
C1347 C1348 1.359 . S
C1347 C1349 1.394 . S
C1348 C1347 1.359 . S
C1348 C1350 1.391 . S
C1348 H1351 0.929 . S
C1349 H1331 0.930 . S
C1349 N1345 1.334 . S
C1349 C1347 1.394 . S
C1350 C1346 1.413 . S
C1350 C1348 1.391 . S
C1350 C1365 1.437 . S
H1351 C1348 0.929 . S
O1352 Gd1308 2.545 . S
O1352 C1367 1.258 . S
O1353 Gd1308 2.606 . S
O1353 Gd1309 2.362 . S
O1353 C1364 1.284 . S
O1354 Gd1309 2.324 . S
O1354 C1374 1.254 . S
O1355 Gd1308 2.429 . S
O1355 C1374 1.268 . S
O1356 Gd1308 2.545 . S
O1356 C1364 1.250 . S
O1357 Gd1308 2.412 . S
O1357 C1367 1.252 . S
O1358 Gd1309 2.545 . S
O1358 C1376 1.258 . S
O1359 Gd1308 2.362 . S
O1359 Gd1309 2.606 . S
O1359 C1375 1.284 . S
O1360 Gd1308 2.324 . S
O1360 C1383 1.254 . S
O1361 Gd1309 2.429 . S
O1361 C1383 1.268 . S
O1362 Gd1309 2.545 . S
O1362 C1375 1.250 . S
O1363 Gd1309 2.412 . S
O1363 C1376 1.252 . S
C1364 O1353 1.284 . S
C1364 O1356 1.250 . S
C1365 H1334 0.929 . S
C1365 C1350 1.437 . S
C1365 C1366 1.317 . S
C1366 H1337 0.930 . S
C1366 C1342 1.431 . S
C1366 C1365 1.317 . S
C1367 Gd1308 2.828 . S
C1367 O1352 1.258 . S
C1367 O1357 1.252 . S
C1367 C1368 1.497 . S
C1368 C1367 1.497 . S
C1368 C1369 1.395 . S
C1368 C1370 1.380 . S
C1369 C1368 1.395 . S
C1369 C1372 1.398 . S
C1369 H1384 0.930 . S
C1370 C1368 1.380 . S
C1370 C1371 1.391 . S
C1370 H1385 0.930 . S
C1371 C1370 1.391 . S
C1371 C1373 1.387 . S
C1372 C1369 1.398 . S
C1372 C1373 1.380 . S
C1372 H1386 0.930 . S
C1373 C1371 1.387 . S
C1373 C1372 1.380 . S
C1373 H1387 0.930 . S
C1374 O1354 1.254 . S
C1374 O1355 1.268 . S
C1375 O1359 1.284 . S
C1375 O1362 1.250 . S
C1376 Gd1309 2.828 . S
C1376 O1358 1.258 . S
C1376 O1363 1.252 . S
C1376 C1377 1.497 . S
C1377 C1376 1.497 . S
C1377 C1378 1.395 . S
C1377 C1379 1.380 . S
C1378 C1377 1.395 . S
C1378 C1381 1.398 . S
C1378 H1388 0.930 . S
C1379 C1377 1.380 . S
C1379 C1380 1.391 . S
C1379 H1389 0.930 . S
C1380 C1379 1.391 . S
C1380 C1382 1.387 . S
C1381 C1378 1.398 . S
C1381 C1382 1.380 . S
C1381 H1390 0.930 . S
C1382 C1380 1.387 . S
C1382 C1381 1.380 . S
C1382 H1391 0.930 . S
C1383 O1360 1.254 . S
C1383 O1361 1.268 . S
H1384 C1369 0.930 . S
H1385 C1370 0.930 . S
H1386 C1372 0.930 . S
H1387 C1373 0.930 . S
H1388 C1378 0.930 . S
H1389 C1379 0.930 . S
H1390 C1381 0.930 . S
H1391 C1382 0.930 . S
Gd1392 N1423 2.661 . S
Gd1392 N1429 2.601 . S
Gd1392 O1436 2.545 . S
Gd1392 O1437 2.606 . S
Gd1392 O1439 2.429 . S
Gd1392 O1440 2.545 . S
Gd1392 O1441 2.412 . S
Gd1392 O1443 2.362 . S
Gd1392 O1444 2.324 . S
Gd1392 C1451 2.828 . S
Gd1393 N1402 2.661 . S
Gd1393 N1406 2.601 . S
Gd1393 O1437 2.362 . S
Gd1393 O1438 2.324 . S
Gd1393 O1442 2.545 . S
Gd1393 O1443 2.606 . S
Gd1393 O1445 2.429 . S
Gd1393 O1446 2.545 . S
Gd1393 O1447 2.412 . S
Gd1393 C1460 2.828 . S
C1394 C1397 1.417 . S
C1394 C1399 1.431 . S
C1394 C1400 1.412 . S
C1395 C1398 1.437 . S
C1395 C1399 1.317 . S
C1395 H1414 0.929 . S
C1396 C1397 1.426 . S
C1396 C1398 1.413 . S
C1396 N1406 1.359 . S
C1397 C1394 1.417 . S
C1397 C1396 1.426 . S
C1397 N1402 1.350 . S
C1398 C1395 1.437 . S
C1398 C1396 1.413 . S
C1398 C1408 1.391 . S
C1399 C1394 1.431 . S
C1399 C1395 1.317 . S
C1399 H1410 0.930 . S
C1400 C1394 1.412 . S
C1400 C1401 1.355 . S
C1400 H1412 0.930 . S
C1401 C1400 1.355 . S
C1401 C1403 1.402 . S
C1401 H1413 0.930 . S
N1402 Gd1393 2.661 . S
N1402 C1397 1.350 . S
N1402 C1403 1.307 . S
C1403 C1401 1.402 . S
C1403 N1402 1.307 . S
C1403 H1404 0.930 . S
H1404 C1403 0.930 . S
C1405 N1406 1.334 . S
C1405 C1407 1.394 . S
C1405 H1409 0.930 . S
N1406 Gd1393 2.601 . S
N1406 C1396 1.359 . S
N1406 C1405 1.334 . S
C1407 C1405 1.394 . S
C1407 C1408 1.359 . S
C1407 H1419 0.930 . S
C1408 C1398 1.391 . S
C1408 C1407 1.359 . S
C1408 H1420 0.929 . S
H1409 C1405 0.930 . S
H1410 C1399 0.930 . S
H1411 C1428 0.930 . S
H1412 C1400 0.930 . S
H1413 C1401 0.930 . S
H1414 C1395 0.929 . S
H1415 C1433 0.930 . S
H1416 C1424 0.930 . S
H1417 C1425 0.930 . S
H1418 C1449 0.929 . S
H1419 C1407 0.930 . S
H1420 C1408 0.929 . S
H1421 C1450 0.930 . S
H1422 C1431 0.930 . S
N1423 Gd1392 2.661 . S
N1423 C1427 1.350 . S
N1423 C1428 1.307 . S
C1424 H1416 0.930 . S
C1424 C1425 1.355 . S
C1424 C1426 1.412 . S
C1425 H1417 0.930 . S
C1425 C1424 1.355 . S
C1425 C1428 1.402 . S
C1426 C1424 1.412 . S
C1426 C1427 1.417 . S
C1426 C1450 1.431 . S
C1427 N1423 1.350 . S
C1427 C1426 1.417 . S
C1427 C1430 1.426 . S
C1428 H1411 0.930 . S
C1428 N1423 1.307 . S
C1428 C1425 1.402 . S
N1429 Gd1392 2.601 . S
N1429 C1430 1.359 . S
N1429 C1433 1.334 . S
C1430 C1427 1.426 . S
C1430 N1429 1.359 . S
C1430 C1434 1.413 . S
C1431 H1422 0.930 . S
C1431 C1432 1.359 . S
C1431 C1433 1.394 . S
C1432 C1431 1.359 . S
C1432 C1434 1.391 . S
C1432 H1435 0.929 . S
C1433 H1415 0.930 . S
C1433 N1429 1.334 . S
C1433 C1431 1.394 . S
C1434 C1430 1.413 . S
C1434 C1432 1.391 . S
C1434 C1449 1.437 . S
H1435 C1432 0.929 . S
O1436 Gd1392 2.545 . S
O1436 C1451 1.258 . S
O1437 Gd1392 2.606 . S
O1437 Gd1393 2.362 . S
O1437 C1448 1.284 . S
O1438 Gd1393 2.324 . S
O1438 C1458 1.254 . S
O1439 Gd1392 2.429 . S
O1439 C1458 1.268 . S
O1440 Gd1392 2.545 . S
O1440 C1448 1.250 . S
O1441 Gd1392 2.412 . S
O1441 C1451 1.252 . S
O1442 Gd1393 2.545 . S
O1442 C1460 1.258 . S
O1443 Gd1392 2.362 . S
O1443 Gd1393 2.606 . S
O1443 C1459 1.284 . S
O1444 Gd1392 2.324 . S
O1444 C1467 1.254 . S
O1445 Gd1393 2.429 . S
O1445 C1467 1.268 . S
O1446 Gd1393 2.545 . S
O1446 C1459 1.250 . S
O1447 Gd1393 2.412 . S
O1447 C1460 1.252 . S
C1448 O1437 1.284 . S
C1448 O1440 1.250 . S
C1449 H1418 0.929 . S
C1449 C1434 1.437 . S
C1449 C1450 1.317 . S
C1450 H1421 0.930 . S
C1450 C1426 1.431 . S
C1450 C1449 1.317 . S
C1451 Gd1392 2.828 . S
C1451 O1436 1.258 . S
C1451 O1441 1.252 . S
C1451 C1452 1.497 . S
C1452 C1451 1.497 . S
C1452 C1453 1.395 . S
C1452 C1454 1.380 . S
C1453 C1452 1.395 . S
C1453 C1456 1.398 . S
C1453 H1468 0.930 . S
C1454 C1452 1.380 . S
C1454 C1455 1.391 . S
C1454 H1469 0.930 . S
C1455 C1454 1.391 . S
C1455 C1457 1.387 . S
C1456 C1453 1.398 . S
C1456 C1457 1.380 . S
C1456 H1470 0.930 . S
C1457 C1455 1.387 . S
C1457 C1456 1.380 . S
C1457 H1471 0.930 . S
C1458 O1438 1.254 . S
C1458 O1439 1.268 . S
C1459 O1443 1.284 . S
C1459 O1446 1.250 . S
C1460 Gd1393 2.828 . S
C1460 O1442 1.258 . S
C1460 O1447 1.252 . S
C1460 C1461 1.497 . S
C1461 C1460 1.497 . S
C1461 C1462 1.395 . S
C1461 C1463 1.380 . S
C1462 C1461 1.395 . S
C1462 C1465 1.398 . S
C1462 H1472 0.930 . S
C1463 C1461 1.380 . S
C1463 C1464 1.391 . S
C1463 H1473 0.930 . S
C1464 C1463 1.391 . S
C1464 C1466 1.387 . S
C1465 C1462 1.398 . S
C1465 C1466 1.380 . S
C1465 H1474 0.930 . S
C1466 C1464 1.387 . S
C1466 C1465 1.380 . S
C1466 H1475 0.930 . S
C1467 O1444 1.254 . S
C1467 O1445 1.268 . S
H1468 C1453 0.930 . S
H1469 C1454 0.930 . S
H1470 C1456 0.930 . S
H1471 C1457 0.930 . S
H1472 C1462 0.930 . S
H1473 C1463 0.930 . S
H1474 C1465 0.930 . S
H1475 C1466 0.930 . S
H1476 C1482 0.930 . S
H1477 C1486 0.930 . S
H1478 C1491 0.929 . S
H1479 C1489 0.929 . S
H1480 C1484 0.929 . S
H1481 C1490 0.929 . S
C1482 H1476 0.930 . S
C1482 C1483 1.367 . S
C1482 C1490 1.378 . S
C1483 C1482 1.367 . S
C1483 C1491 1.433 . S
C1484 H1480 0.929 . S
C1484 C1486 1.378 . S
C1484 C1488 1.350 . S
C1485 C1488 1.463 . S
C1485 C1490 1.350 . S
C1485 N1493 1.427 . S
C1486 H1477 0.930 . S
C1486 C1484 1.378 . S
C1486 C1487 1.367 . S
C1487 C1486 1.367 . S
C1487 C1489 1.433 . S
C1488 C1484 1.350 . S
C1488 C1485 1.463 . S
C1488 N1492 1.427 . S
C1489 H1479 0.929 . S
C1489 C1487 1.433 . S
C1489 N1492 1.384 . S
C1490 H1481 0.929 . S
C1490 C1482 1.378 . S
C1490 C1485 1.350 . S
C1491 H1478 0.929 . S
C1491 C1483 1.433 . S
C1491 N1493 1.384 . S
N1492 C1488 1.427 . S
N1492 C1489 1.384 . S
N1493 C1485 1.427 . S
N1493 C1491 1.384 . S
H1494 C1500 0.930 . S
H1495 C1504 0.930 . S
H1496 C1509 0.929 . S
H1497 C1507 0.929 . S
H1498 C1502 0.929 . S
H1499 C1508 0.929 . S
C1500 H1494 0.930 . S
C1500 C1501 1.367 . S
C1500 C1508 1.378 . S
C1501 C1500 1.367 . S
C1501 C1509 1.433 . S
C1502 H1498 0.929 . S
C1502 C1504 1.378 . S
C1502 C1506 1.350 . S
C1503 C1506 1.463 . S
C1503 C1508 1.350 . S
C1503 N1511 1.427 . S
C1504 H1495 0.930 . S
C1504 C1502 1.378 . S
C1504 C1505 1.367 . S
C1505 C1504 1.367 . S
C1505 C1507 1.433 . S
C1506 C1502 1.350 . S
C1506 C1503 1.463 . S
C1506 N1510 1.427 . S
C1507 H1497 0.929 . S
C1507 C1505 1.433 . S
C1507 N1510 1.384 . S
C1508 H1499 0.929 . S
C1508 C1500 1.378 . S
C1508 C1503 1.350 . S
C1509 H1496 0.929 . S
C1509 C1501 1.433 . S
C1509 N1511 1.384 . S
N1510 C1506 1.427 . S
N1510 C1507 1.384 . S
N1511 C1503 1.427 . S
N1511 C1509 1.384 . S
H1512 C1518 0.930 . S
H1513 C1522 0.930 . S
H1514 C1527 0.929 . S
H1515 C1525 0.929 . S
H1516 C1520 0.929 . S
H1517 C1526 0.929 . S
C1518 H1512 0.930 . S
C1518 C1519 1.367 . S
C1518 C1526 1.378 . S
C1519 C1518 1.367 . S
C1519 C1527 1.433 . S
C1520 H1516 0.929 . S
C1520 C1522 1.378 . S
C1520 C1524 1.350 . S
C1521 C1524 1.463 . S
C1521 C1526 1.350 . S
C1521 N1529 1.427 . S
C1522 H1513 0.930 . S
C1522 C1520 1.378 . S
C1522 C1523 1.367 . S
C1523 C1522 1.367 . S
C1523 C1525 1.433 . S
C1524 C1520 1.350 . S
C1524 C1521 1.463 . S
C1524 N1528 1.427 . S
C1525 H1515 0.929 . S
C1525 C1523 1.433 . S
C1525 N1528 1.384 . S
C1526 H1517 0.929 . S
C1526 C1518 1.378 . S
C1526 C1521 1.350 . S
C1527 H1514 0.929 . S
C1527 C1519 1.433 . S
C1527 N1529 1.384 . S
N1528 C1524 1.427 . S
N1528 C1525 1.384 . S
N1529 C1521 1.427 . S
N1529 C1527 1.384 . S
H1530 C1536 0.930 . S
H1531 C1540 0.930 1_554 S
H1532 C1545 0.929 . S
H1533 C1543 0.929 . S
H1534 C1538 0.929 . S
H1535 C1544 0.929 . S
C1536 H1530 0.930 . S
C1536 C1537 1.367 . S
C1536 C1544 1.378 . S
C1537 C1536 1.367 . S
C1537 C1545 1.433 . S
C1538 H1534 0.929 . S
C1538 C1540 1.378 . S
C1538 C1542 1.350 . S
C1539 C1542 1.463 . S
C1539 C1544 1.350 . S
C1539 N1547 1.427 . S
C1540 H1531 0.930 1_556 S
C1540 C1538 1.378 . S
C1540 C1541 1.367 . S
C1541 C1540 1.367 . S
C1541 C1543 1.433 . S
C1542 C1538 1.350 . S
C1542 C1539 1.463 . S
C1542 N1546 1.427 . S
C1543 H1533 0.929 . S
C1543 C1541 1.433 . S
C1543 N1546 1.384 . S
C1544 H1535 0.929 . S
C1544 C1536 1.378 . S
C1544 C1539 1.350 . S
C1545 H1532 0.929 . S
C1545 C1537 1.433 . S
C1545 N1547 1.384 . S
N1546 C1542 1.427 . S
N1546 C1543 1.384 . S
N1547 C1539 1.427 . S
N1547 C1545 1.384 . S
H1548 C1554 0.930 . S
H1549 C1558 0.930 . S
H1550 C1563 0.929 . S
H1551 C1561 0.929 . S
H1552 C1556 0.929 . S
H1553 C1562 0.929 . S
C1554 H1548 0.930 . S
C1554 C1555 1.367 . S
C1554 C1562 1.378 . S
C1555 C1554 1.367 . S
C1555 C1563 1.433 . S
C1556 H1552 0.929 . S
C1556 C1558 1.378 . S
C1556 C1560 1.350 . S
C1557 C1560 1.463 . S
C1557 C1562 1.350 . S
C1557 N1565 1.427 . S
C1558 H1549 0.930 . S
C1558 C1556 1.378 . S
C1558 C1559 1.367 . S
C1559 C1558 1.367 . S
C1559 C1561 1.433 . S
C1560 C1556 1.350 . S
C1560 C1557 1.463 . S
C1560 N1564 1.427 . S
C1561 H1551 0.929 . S
C1561 C1559 1.433 . S
C1561 N1564 1.384 . S
C1562 H1553 0.929 . S
C1562 C1554 1.378 . S
C1562 C1557 1.350 . S
C1563 H1550 0.929 . S
C1563 C1555 1.433 . S
C1563 N1565 1.384 . S
N1564 C1560 1.427 . S
N1564 C1561 1.384 . S
N1565 C1557 1.427 . S
N1565 C1563 1.384 . S
H1566 C1572 0.930 . S
H1567 C1576 0.930 . S
H1568 C1581 0.929 . S
H1569 C1579 0.929 1_554 S
H1570 C1574 0.929 . S
H1571 C1580 0.929 . S
C1572 H1566 0.930 . S
C1572 C1573 1.367 . S
C1572 C1580 1.378 . S
C1573 C1572 1.367 . S
C1573 C1581 1.433 . S
C1574 H1570 0.929 . S
C1574 C1576 1.378 . S
C1574 C1578 1.350 . S
C1575 C1578 1.463 . S
C1575 C1580 1.350 . S
C1575 N1583 1.427 . S
C1576 H1567 0.930 . S
C1576 C1574 1.378 . S
C1576 C1577 1.367 . S
C1577 C1576 1.367 . S
C1577 C1579 1.433 . S
C1578 C1574 1.350 . S
C1578 C1575 1.463 . S
C1578 N1582 1.427 . S
C1579 H1569 0.929 1_556 S
C1579 C1577 1.433 . S
C1579 N1582 1.384 . S
C1580 H1571 0.929 . S
C1580 C1572 1.378 . S
C1580 C1575 1.350 . S
C1581 H1568 0.929 . S
C1581 C1573 1.433 . S
C1581 N1583 1.384 . S
N1582 C1578 1.427 . S
N1582 C1579 1.384 . S
N1583 C1575 1.427 . S
N1583 C1581 1.384 . S
H1584 C1590 0.930 . S
H1585 C1594 0.930 . S
H1586 C1599 0.929 . S
H1587 C1597 0.929 . S
H1588 C1592 0.929 . S
H1589 C1598 0.929 . S
C1590 H1584 0.930 . S
C1590 C1591 1.367 . S
C1590 C1598 1.378 . S
C1591 C1590 1.367 . S
C1591 C1599 1.433 . S
C1592 H1588 0.929 . S
C1592 C1594 1.378 . S
C1592 C1596 1.350 . S
C1593 C1596 1.463 . S
C1593 C1598 1.350 . S
C1593 N1601 1.427 . S
C1594 H1585 0.930 . S
C1594 C1592 1.378 . S
C1594 C1595 1.367 . S
C1595 C1594 1.367 . S
C1595 C1597 1.433 . S
C1596 C1592 1.350 . S
C1596 C1593 1.463 . S
C1596 N1600 1.427 . S
C1597 H1587 0.929 . S
C1597 C1595 1.433 . S
C1597 N1600 1.384 . S
C1598 H1589 0.929 . S
C1598 C1590 1.378 . S
C1598 C1593 1.350 . S
C1599 H1586 0.929 . S
C1599 C1591 1.433 . S
C1599 N1601 1.384 . S
N1600 C1596 1.427 . S
N1600 C1597 1.384 . S
N1601 C1593 1.427 . S
N1601 C1599 1.384 . S
H1602 C1608 0.930 . S
H1603 C1612 0.930 1_554 S
H1604 C1617 0.929 . S
H1605 C1615 0.929 . S
H1606 C1610 0.929 . S
H1607 C1616 0.929 . S
C1608 H1602 0.930 . S
C1608 C1609 1.367 . S
C1608 C1616 1.378 . S
C1609 C1608 1.367 . S
C1609 C1617 1.433 . S
C1610 H1606 0.929 . S
C1610 C1612 1.378 . S
C1610 C1614 1.350 . S
C1611 C1614 1.463 . S
C1611 C1616 1.350 . S
C1611 N1619 1.427 . S
C1612 H1603 0.930 1_556 S
C1612 C1610 1.378 . S
C1612 C1613 1.367 . S
C1613 C1612 1.367 . S
C1613 C1615 1.433 . S
C1614 C1610 1.350 . S
C1614 C1611 1.463 . S
C1614 N1618 1.427 . S
C1615 H1605 0.929 . S
C1615 C1613 1.433 . S
C1615 N1618 1.384 . S
C1616 H1607 0.929 . S
C1616 C1608 1.378 . S
C1616 C1611 1.350 . S
C1617 H1604 0.929 . S
C1617 C1609 1.433 . S
C1617 N1619 1.384 . S
N1618 C1614 1.427 . S
N1618 C1615 1.384 . S
N1619 C1611 1.427 . S
N1619 C1617 1.384 . S
H1620 C1626 0.930 . S
H1621 C1630 0.930 1_554 S
H1622 C1635 0.929 . S
H1623 C1633 0.929 . S
H1624 C1628 0.929 . S
H1625 C1634 0.929 . S
C1626 H1620 0.930 . S
C1626 C1627 1.367 . S
C1626 C1634 1.378 . S
C1627 C1626 1.367 . S
C1627 C1635 1.433 . S
C1628 H1624 0.929 . S
C1628 C1630 1.378 . S
C1628 C1632 1.350 . S
C1629 C1632 1.463 . S
C1629 C1634 1.350 . S
C1629 N1637 1.427 . S
C1630 H1621 0.930 1_556 S
C1630 C1628 1.378 . S
C1630 C1631 1.367 . S
C1631 C1630 1.367 . S
C1631 C1633 1.433 . S
C1632 C1628 1.350 . S
C1632 C1629 1.463 . S
C1632 N1636 1.427 . S
C1633 H1623 0.929 . S
C1633 C1631 1.433 . S
C1633 N1636 1.384 . S
C1634 H1625 0.929 . S
C1634 C1626 1.378 . S
C1634 C1629 1.350 . S
C1635 H1622 0.929 . S
C1635 C1627 1.433 . S
C1635 N1637 1.384 . S
N1636 C1632 1.427 . S
N1636 C1633 1.384 . S
N1637 C1629 1.427 . S
N1637 C1635 1.384 . S
H1638 C1644 0.930 . S
H1639 C1648 0.983 . S
H1640 C1653 0.929 . S
H1641 C1651 0.929 . S
H1642 C1646 0.929 . S
H1643 C1652 0.929 . S
C1644 H1638 0.930 . S
C1644 C1645 1.367 . S
C1644 C1652 1.378 . S
C1645 C1644 1.367 . S
C1645 C1653 1.433 . S
C1646 H1642 0.929 . S
C1646 C1648 1.378 . S
C1646 C1650 1.350 . S
C1647 C1650 1.463 . S
C1647 C1652 1.350 . S
C1647 N1655 1.427 . S
C1648 H1639 0.983 . S
C1648 C1646 1.378 . S
C1648 C1649 1.367 . S
C1649 C1648 1.367 . S
C1649 C1651 1.433 . S
C1650 C1646 1.350 . S
C1650 C1647 1.463 . S
C1650 N1654 1.427 . S
C1651 H1641 0.929 . S
C1651 C1649 1.433 . S
C1651 N1654 1.384 . S
C1652 H1643 0.929 . S
C1652 C1644 1.378 . S
C1652 C1647 1.350 . S
C1653 H1640 0.929 . S
C1653 C1645 1.433 . S
C1653 N1655 1.384 . S
N1654 C1650 1.427 . S
N1654 C1651 1.384 . S
N1655 C1647 1.427 . S
N1655 C1653 1.384 . S
H1656 C1662 0.930 . S
H1657 C1666 0.904 1_556 S
H1658 C1671 0.929 . S
H1659 C1669 0.929 . S
H1660 C1664 0.929 . S
H1661 C1670 0.929 . S
C1662 H1656 0.930 . S
C1662 C1663 1.367 . S
C1662 C1670 1.378 . S
C1663 C1662 1.367 . S
C1663 C1671 1.433 . S
C1664 H1660 0.929 . S
C1664 C1666 1.378 . S
C1664 C1668 1.350 . S
C1665 C1668 1.463 . S
C1665 C1670 1.350 . S
C1665 N1673 1.427 . S
C1666 H1657 0.904 1_554 S
C1666 C1664 1.378 . S
C1666 C1667 1.367 . S
C1667 C1666 1.367 . S
C1667 C1669 1.433 . S
C1668 C1664 1.350 . S
C1668 C1665 1.463 . S
C1668 N1672 1.427 . S
C1669 H1659 0.929 . S
C1669 C1667 1.433 . S
C1669 N1672 1.384 . S
C1670 H1661 0.929 . S
C1670 C1662 1.378 . S
C1670 C1665 1.350 . S
C1671 H1658 0.929 . S
C1671 C1663 1.433 . S
C1671 N1673 1.384 . S
N1672 C1668 1.427 . S
N1672 C1669 1.384 . S
N1673 C1665 1.427 . S
N1673 C1671 1.384 . S
H1674 C1680 0.930 . S
H1675 C1684 0.930 . S
H1676 C1689 0.929 . S
H1677 C1687 0.929 . S
H1678 C1682 0.929 . S
H1679 C1688 0.929 . S
C1680 H1674 0.930 . S
C1680 C1681 1.367 . S
C1680 C1688 1.378 . S
C1681 C1680 1.367 . S
C1681 C1689 1.433 . S
C1682 H1678 0.929 . S
C1682 C1684 1.378 . S
C1682 C1686 1.350 . S
C1683 C1686 1.463 . S
C1683 C1688 1.350 . S
C1683 N1691 1.427 . S
C1684 H1675 0.930 . S
C1684 C1682 1.378 . S
C1684 C1685 1.367 . S
C1685 C1684 1.367 . S
C1685 C1687 1.433 . S
C1686 C1682 1.350 . S
C1686 C1683 1.463 . S
C1686 N1690 1.427 . S
C1687 H1677 0.929 . S
C1687 C1685 1.433 . S
C1687 N1690 1.384 . S
C1688 H1679 0.929 . S
C1688 C1680 1.378 . S
C1688 C1683 1.350 . S
C1689 H1676 0.929 . S
C1689 C1681 1.433 . S
C1689 N1691 1.384 . S
N1690 C1686 1.427 . S
N1690 C1687 1.384 . S
N1691 C1683 1.427 . S
N1691 C1689 1.384 . S
H1692 C1698 0.930 1_655 S
H1693 C1702 0.930 . S
H1694 C1707 0.929 . S
H1695 C1705 0.929 . S
H1696 C1700 0.929 . S
H1697 C1706 0.929 . S
C1698 H1692 0.930 1_455 S
C1698 C1699 1.367 . S
C1698 C1706 1.378 . S
C1699 C1698 1.367 . S
C1699 C1707 1.433 . S
C1700 H1696 0.929 . S
C1700 C1702 1.378 . S
C1700 C1704 1.350 . S
C1701 C1704 1.463 . S
C1701 C1706 1.350 . S
C1701 N1709 1.427 . S
C1702 H1693 0.930 . S
C1702 C1700 1.378 . S
C1702 C1703 1.367 . S
C1703 C1702 1.367 . S
C1703 C1705 1.433 . S
C1704 C1700 1.350 . S
C1704 C1701 1.463 . S
C1704 N1708 1.427 . S
C1705 H1695 0.929 . S
C1705 C1703 1.433 . S
C1705 N1708 1.384 . S
C1706 H1697 0.929 . S
C1706 C1698 1.378 . S
C1706 C1701 1.350 . S
C1707 H1694 0.929 . S
C1707 C1699 1.433 . S
C1707 N1709 1.384 . S
N1708 C1704 1.427 . S
N1708 C1705 1.384 . S
N1709 C1701 1.427 . S
N1709 C1707 1.384 . S
H1710 C1716 0.930 . S
H1711 C1720 0.930 . S
H1712 C1725 0.929 . S
H1713 C1723 0.929 . S
H1714 C1718 0.929 . S
H1715 C1724 0.929 . S
C1716 H1710 0.930 . S
C1716 C1717 1.367 . S
C1716 C1724 1.378 . S
C1717 C1716 1.367 . S
C1717 C1725 1.433 . S
C1718 H1714 0.929 . S
C1718 C1720 1.378 . S
C1718 C1722 1.350 . S
C1719 C1722 1.463 . S
C1719 C1724 1.350 . S
C1719 N1727 1.427 . S
C1720 H1711 0.930 . S
C1720 C1718 1.378 . S
C1720 C1721 1.367 . S
C1721 C1720 1.367 . S
C1721 C1723 1.433 . S
C1722 C1718 1.350 . S
C1722 C1719 1.463 . S
C1722 N1726 1.427 . S
C1723 H1713 0.929 . S
C1723 C1721 1.433 . S
C1723 N1726 1.384 . S
C1724 H1715 0.929 . S
C1724 C1716 1.378 . S
C1724 C1719 1.350 . S
C1725 H1712 0.929 . S
C1725 C1717 1.433 . S
C1725 N1727 1.384 . S
N1726 C1722 1.427 . S
N1726 C1723 1.384 . S
N1727 C1719 1.427 . S
N1727 C1725 1.384 . S
H1728 C1734 0.930 . S
H1729 C1738 0.930 . S
H1730 C1743 0.929 . S
H1731 C1741 0.929 . S
H1732 C1736 0.929 . S
H1733 C1742 0.929 . S
C1734 H1728 0.930 . S
C1734 C1735 1.367 1_565 S
C1734 C1742 1.378 . S
C1735 C1734 1.367 1_545 S
C1735 C1743 1.433 . S
C1736 H1732 0.929 . S
C1736 C1738 1.378 . S
C1736 C1740 1.350 . S
C1737 C1740 1.463 . S
C1737 C1742 1.350 . S
C1737 N1745 1.427 . S
C1738 H1729 0.930 . S
C1738 C1736 1.378 . S
C1738 C1739 1.367 . S
C1739 C1738 1.367 . S
C1739 C1741 1.433 . S
C1740 C1736 1.350 . S
C1740 C1737 1.463 . S
C1740 N1744 1.427 . S
C1741 H1731 0.929 . S
C1741 C1739 1.433 . S
C1741 N1744 1.384 . S
C1742 H1733 0.929 . S
C1742 C1734 1.378 . S
C1742 C1737 1.350 . S
C1743 H1730 0.929 . S
C1743 C1735 1.433 . S
C1743 N1745 1.384 1_545 S
N1744 C1740 1.427 . S
N1744 C1741 1.384 . S
N1745 C1737 1.427 . S
N1745 C1743 1.384 1_565 S
H1746 C1752 0.930 . S
H1747 C1756 0.930 . S
H1748 C1761 0.929 . S
H1749 C1759 0.929 . S
H1750 C1754 0.929 . S
H1751 C1760 0.929 . S
C1752 H1746 0.930 . S
C1752 C1753 1.367 . S
C1752 C1760 1.378 . S
C1753 C1752 1.367 . S
C1753 C1761 1.433 . S
C1754 H1750 0.929 . S
C1754 C1756 1.378 . S
C1754 C1758 1.350 . S
C1755 C1758 1.463 . S
C1755 C1760 1.350 . S
C1755 N1763 1.427 . S
C1756 H1747 0.930 . S
C1756 C1754 1.378 . S
C1756 C1757 1.367 . S
C1757 C1756 1.367 . S
C1757 C1759 1.433 . S
C1758 C1754 1.350 . S
C1758 C1755 1.463 . S
C1758 N1762 1.427 . S
C1759 H1749 0.929 . S
C1759 C1757 1.433 . S
C1759 N1762 1.384 . S
C1760 H1751 0.929 . S
C1760 C1752 1.378 . S
C1760 C1755 1.350 . S
C1761 H1748 0.929 . S
C1761 C1753 1.433 . S
C1761 N1763 1.384 . S
N1762 C1758 1.427 . S
N1762 C1759 1.384 . S
N1763 C1755 1.427 . S
N1763 C1761 1.384 . S
H1764 C1770 0.930 . S
H1765 C1774 0.930 . S
H1766 C1779 0.929 . S
H1767 C1777 0.929 . S
H1768 C1772 0.929 . S
H1769 C1778 0.929 . S
C1770 H1764 0.930 . S
C1770 C1771 1.367 . S
C1770 C1778 1.378 . S
C1771 C1770 1.367 . S
C1771 C1779 1.433 . S
C1772 H1768 0.929 . S
C1772 C1774 1.378 . S
C1772 C1776 1.350 . S
C1773 C1776 1.463 . S
C1773 C1778 1.350 . S
C1773 N1781 1.427 . S
C1774 H1765 0.930 . S
C1774 C1772 1.378 . S
C1774 C1775 1.367 . S
C1775 C1774 1.367 . S
C1775 C1777 1.433 . S
C1776 C1772 1.350 . S
C1776 C1773 1.463 . S
C1776 N1780 1.427 . S
C1777 H1767 0.929 . S
C1777 C1775 1.433 . S
C1777 N1780 1.384 . S
C1778 H1769 0.929 . S
C1778 C1770 1.378 . S
C1778 C1773 1.350 . S
C1779 H1766 0.929 . S
C1779 C1771 1.433 . S
C1779 N1781 1.384 . S
N1780 C1776 1.427 . S
N1780 C1777 1.384 . S
N1781 C1773 1.427 . S
N1781 C1779 1.384 . S
H1782 C1788 0.930 . S
H1783 C1792 0.930 . S
H1784 C1797 0.929 . S
H1785 C1795 0.929 . S
H1786 C1790 0.929 . S
H1787 C1796 0.929 . S
C1788 H1782 0.930 . S
C1788 C1789 1.367 . S
C1788 C1796 1.378 . S
C1789 C1788 1.367 . S
C1789 C1797 1.433 . S
C1790 H1786 0.929 . S
C1790 C1792 1.378 . S
C1790 C1794 1.350 . S
C1791 C1794 1.463 . S
C1791 C1796 1.350 . S
C1791 N1799 1.427 . S
C1792 H1783 0.930 . S
C1792 C1790 1.378 . S
C1792 C1793 1.367 . S
C1793 C1792 1.367 . S
C1793 C1795 1.433 . S
C1794 C1790 1.350 . S
C1794 C1791 1.463 . S
C1794 N1798 1.427 . S
C1795 H1785 0.929 . S
C1795 C1793 1.433 . S
C1795 N1798 1.384 . S
C1796 H1787 0.929 . S
C1796 C1788 1.378 . S
C1796 C1791 1.350 . S
C1797 H1784 0.929 . S
C1797 C1789 1.433 . S
C1797 N1799 1.384 . S
N1798 C1794 1.427 . S
N1798 C1795 1.384 . S
N1799 C1791 1.427 . S
N1799 C1797 1.384 . S
H1800 C1806 0.930 . S
H1801 C1810 0.930 . S
H1802 C1815 0.929 . S
H1803 C1813 0.929 . S
H1804 C1808 0.929 . S
H1805 C1814 0.929 . S
C1806 H1800 0.930 . S
C1806 C1807 1.367 . S
C1806 C1814 1.378 . S
C1807 C1806 1.367 . S
C1807 C1815 1.433 . S
C1808 H1804 0.929 . S
C1808 C1810 1.378 . S
C1808 C1812 1.350 . S
C1809 C1812 1.463 . S
C1809 C1814 1.350 . S
C1809 N1817 1.427 . S
C1810 H1801 0.930 . S
C1810 C1808 1.378 . S
C1810 C1811 1.367 . S
C1811 C1810 1.367 . S
C1811 C1813 1.433 . S
C1812 C1808 1.350 . S
C1812 C1809 1.463 . S
C1812 N1816 1.427 . S
C1813 H1803 0.929 . S
C1813 C1811 1.433 . S
C1813 N1816 1.384 . S
C1814 H1805 0.929 . S
C1814 C1806 1.378 . S
C1814 C1809 1.350 . S
C1815 H1802 0.929 . S
C1815 C1807 1.433 . S
C1815 N1817 1.384 . S
N1816 C1812 1.427 . S
N1816 C1813 1.384 . S
N1817 C1809 1.427 . S
N1817 C1815 1.384 . S
H1818 C1824 0.930 . S
H1819 C1828 0.930 . S
H1820 C1833 0.929 . S
H1821 C1831 0.929 . S
H1822 C1826 0.929 . S
H1823 C1832 0.929 . S
C1824 H1818 0.930 . S
C1824 C1825 1.367 . S
C1824 C1832 1.378 . S
C1825 C1824 1.367 . S
C1825 C1833 1.433 . S
C1826 H1822 0.929 . S
C1826 C1828 1.378 . S
C1826 C1830 1.350 . S
C1827 C1830 1.463 . S
C1827 C1832 1.350 . S
C1827 N1835 1.427 . S
C1828 H1819 0.930 . S
C1828 C1826 1.378 . S
C1828 C1829 1.367 . S
C1829 C1828 1.367 . S
C1829 C1831 1.433 . S
C1830 C1826 1.350 . S
C1830 C1827 1.463 . S
C1830 N1834 1.427 . S
C1831 H1821 0.929 . S
C1831 C1829 1.433 . S
C1831 N1834 1.384 . S
C1832 H1823 0.929 . S
C1832 C1824 1.378 . S
C1832 C1827 1.350 . S
C1833 H1820 0.929 . S
C1833 C1825 1.433 . S
C1833 N1835 1.384 . S
N1834 C1830 1.427 . S
N1834 C1831 1.384 . S
N1835 C1827 1.427 . S
N1835 C1833 1.384 . S
H1836 C1842 0.930 . S
H1837 C1846 0.930 . S
H1838 C1851 0.929 . S
H1839 C1849 0.929 . S
H1840 C1844 0.929 . S
H1841 C1850 0.929 . S
C1842 H1836 0.930 . S
C1842 C1843 1.367 . S
C1842 C1850 1.378 . S
C1843 C1842 1.367 . S
C1843 C1851 1.433 . S
C1844 H1840 0.929 . S
C1844 C1846 1.378 . S
C1844 C1848 1.350 . S
C1845 C1848 1.463 . S
C1845 C1850 1.350 . S
C1845 N1853 1.427 . S
C1846 H1837 0.930 . S
C1846 C1844 1.378 . S
C1846 C1847 1.367 . S
C1847 C1846 1.367 . S
C1847 C1849 1.433 . S
C1848 C1844 1.350 . S
C1848 C1845 1.463 . S
C1848 N1852 1.427 . S
C1849 H1839 0.929 . S
C1849 C1847 1.433 . S
C1849 N1852 1.384 . S
C1850 H1841 0.929 . S
C1850 C1842 1.378 . S
C1850 C1845 1.350 . S
C1851 H1838 0.929 . S
C1851 C1843 1.433 . S
C1851 N1853 1.384 . S
N1852 C1848 1.427 . S
N1852 C1849 1.384 . S
N1853 C1845 1.427 . S
N1853 C1851 1.384 . S
H1854 C1860 0.930 . S
H1855 C1864 0.930 . S
H1856 C1869 0.929 1_545 S
H1857 C1867 0.929 . S
H1858 C1862 0.929 . S
H1859 C1868 0.929 . S
C1860 H1854 0.930 . S
C1860 C1861 1.367 1_565 S
C1860 C1868 1.378 . S
C1861 C1860 1.367 1_545 S
C1861 C1869 1.433 1_545 S
C1862 H1858 0.929 . S
C1862 C1864 1.378 . S
C1862 C1866 1.350 . S
C1863 C1866 1.463 . S
C1863 C1868 1.350 . S
C1863 N1871 1.427 . S
C1864 H1855 0.930 . S
C1864 C1862 1.378 . S
C1864 C1865 1.367 . S
C1865 C1864 1.367 . S
C1865 C1867 1.433 . S
C1866 C1862 1.350 . S
C1866 C1863 1.463 . S
C1866 N1870 1.427 . S
C1867 H1857 0.929 . S
C1867 C1865 1.433 . S
C1867 N1870 1.384 . S
C1868 H1859 0.929 . S
C1868 C1860 1.378 . S
C1868 C1863 1.350 . S
C1869 H1856 0.929 1_565 S
C1869 C1861 1.433 1_565 S
C1869 N1871 1.384 . S
N1870 C1866 1.427 . S
N1870 C1867 1.384 . S
N1871 C1863 1.427 . S
N1871 C1869 1.384 . S
H1872 C1878 0.930 . S
H1873 C1882 0.930 . S
H1874 C1887 0.929 1_655 S
H1875 C1885 0.929 . S
H1876 C1880 0.929 . S
H1877 C1886 0.929 . S
C1878 H1872 0.930 . S
C1878 C1879 1.367 . S
C1878 C1886 1.378 . S
C1879 C1878 1.367 . S
C1879 C1887 1.433 . S
C1880 H1876 0.929 . S
C1880 C1882 1.378 . S
C1880 C1884 1.350 . S
C1881 C1884 1.463 . S
C1881 C1886 1.350 . S
C1881 N1889 1.427 . S
C1882 H1873 0.930 . S
C1882 C1880 1.378 . S
C1882 C1883 1.367 . S
C1883 C1882 1.367 . S
C1883 C1885 1.433 . S
C1884 C1880 1.350 . S
C1884 C1881 1.463 . S
C1884 N1888 1.427 . S
C1885 H1875 0.929 . S
C1885 C1883 1.433 . S
C1885 N1888 1.384 . S
C1886 H1877 0.929 . S
C1886 C1878 1.378 . S
C1886 C1881 1.350 . S
C1887 H1874 0.929 1_455 S
C1887 C1879 1.433 . S
C1887 N1889 1.384 . S
N1888 C1884 1.427 . S
N1888 C1885 1.384 . S
N1889 C1881 1.427 . S
N1889 C1887 1.384 . S
H1890 C1896 0.930 . S
H1891 C1900 0.930 . S
H1892 C1905 0.929 . S
H1893 C1903 0.929 . S
H1894 C1898 0.929 . S
H1895 C1904 0.929 . S
C1896 H1890 0.930 . S
C1896 C1897 1.367 . S
C1896 C1904 1.378 . S
C1897 C1896 1.367 . S
C1897 C1905 1.433 . S
C1898 H1894 0.929 . S
C1898 C1900 1.378 . S
C1898 C1902 1.350 . S
C1899 C1902 1.463 . S
C1899 C1904 1.350 . S
C1899 N1907 1.427 . S
C1900 H1891 0.930 . S
C1900 C1898 1.378 . S
C1900 C1901 1.367 . S
C1901 C1900 1.367 . S
C1901 C1903 1.433 . S
C1902 C1898 1.350 . S
C1902 C1899 1.463 . S
C1902 N1906 1.427 . S
C1903 H1893 0.929 . S
C1903 C1901 1.433 . S
C1903 N1906 1.384 . S
C1904 H1895 0.929 . S
C1904 C1896 1.378 . S
C1904 C1899 1.350 . S
C1905 H1892 0.929 . S
C1905 C1897 1.433 . S
C1905 N1907 1.384 . S
N1906 C1902 1.427 . S
N1906 C1903 1.384 . S
N1907 C1899 1.427 . S
N1907 C1905 1.384 . S
H1908 C1914 0.930 . S
H1909 C1918 0.930 . S
H1910 C1923 0.929 . S
H1911 C1921 0.929 . S
H1912 C1916 0.929 . S
H1913 C1922 0.929 . S
C1914 H1908 0.930 . S
C1914 C1915 1.367 . S
C1914 C1922 1.378 . S
C1915 C1914 1.367 . S
C1915 C1923 1.433 . S
C1916 H1912 0.929 . S
C1916 C1918 1.378 . S
C1916 C1920 1.350 . S
C1917 C1920 1.463 . S
C1917 C1922 1.350 . S
C1917 N1925 1.427 . S
C1918 H1909 0.930 . S
C1918 C1916 1.378 . S
C1918 C1919 1.367 . S
C1919 C1918 1.367 . S
C1919 C1921 1.433 . S
C1920 C1916 1.350 . S
C1920 C1917 1.463 . S
C1920 N1924 1.427 . S
C1921 H1911 0.929 . S
C1921 C1919 1.433 . S
C1921 N1924 1.384 . S
C1922 H1913 0.929 . S
C1922 C1914 1.378 . S
C1922 C1917 1.350 . S
C1923 H1910 0.929 . S
C1923 C1915 1.433 . S
C1923 N1925 1.384 . S
N1924 C1920 1.427 . S
N1924 C1921 1.384 . S
N1925 C1917 1.427 . S
N1925 C1923 1.384 . S
H1926 C1932 0.930 . S
H1927 C1936 0.930 . S
H1928 C1941 0.929 . S
H1929 C1939 0.929 . S
H1930 C1934 0.929 . S
H1931 C1940 0.929 . S
C1932 H1926 0.930 . S
C1932 C1933 1.367 . S
C1932 C1940 1.378 . S
C1933 C1932 1.367 . S
C1933 C1941 1.433 . S
C1934 H1930 0.929 . S
C1934 C1936 1.378 . S
C1934 C1938 1.350 . S
C1935 C1938 1.463 . S
C1935 C1940 1.350 . S
C1935 N1943 1.427 . S
C1936 H1927 0.930 . S
C1936 C1934 1.378 . S
C1936 C1937 1.367 . S
C1937 C1936 1.367 . S
C1937 C1939 1.433 . S
C1938 C1934 1.350 . S
C1938 C1935 1.463 . S
C1938 N1942 1.427 . S
C1939 H1929 0.929 . S
C1939 C1937 1.433 . S
C1939 N1942 1.384 . S
C1940 H1931 0.929 . S
C1940 C1932 1.378 . S
C1940 C1935 1.350 . S
C1941 H1928 0.929 . S
C1941 C1933 1.433 . S
C1941 N1943 1.384 . S
N1942 C1938 1.427 . S
N1942 C1939 1.384 . S
N1943 C1935 1.427 . S
N1943 C1941 1.384 . S
H1944 C1950 0.930 . S
H1945 C1954 0.930 . S
H1946 C1959 0.929 . S
H1947 C1957 0.929 . S
H1948 C1952 0.929 . S
H1949 C1958 0.929 . S
C1950 H1944 0.930 . S
C1950 C1951 1.367 . S
C1950 C1958 1.378 . S
C1951 C1950 1.367 . S
C1951 C1959 1.433 . S
C1952 H1948 0.929 . S
C1952 C1954 1.378 . S
C1952 C1956 1.350 . S
C1953 C1956 1.463 . S
C1953 C1958 1.350 . S
C1953 N1961 1.427 . S
C1954 H1945 0.930 . S
C1954 C1952 1.378 . S
C1954 C1955 1.367 . S
C1955 C1954 1.367 . S
C1955 C1957 1.433 . S
C1956 C1952 1.350 . S
C1956 C1953 1.463 . S
C1956 N1960 1.427 . S
C1957 H1947 0.929 . S
C1957 C1955 1.433 . S
C1957 N1960 1.384 . S
C1958 H1949 0.929 . S
C1958 C1950 1.378 . S
C1958 C1953 1.350 . S
C1959 H1946 0.929 . S
C1959 C1951 1.433 . S
C1959 N1961 1.384 . S
N1960 C1956 1.427 . S
N1960 C1957 1.384 . S
N1961 C1953 1.427 . S
N1961 C1959 1.384 . S
H1962 C1968 0.930 1_565 S
H1963 C1972 0.930 . S
H1964 C1977 0.929 . S
H1965 C1975 0.929 . S
H1966 C1970 0.929 . S
H1967 C1976 0.929 . S
C1968 H1962 0.930 1_545 S
C1968 C1969 1.377 . S
C1968 C1976 1.378 . S
C1969 C1968 1.377 . S
C1969 C1977 1.468 . S
C1970 H1966 0.929 . S
C1970 C1972 1.378 . S
C1970 C1974 1.350 . S
C1971 C1974 1.463 . S
C1971 C1976 1.350 . S
C1971 N1979 1.427 . S
C1972 H1963 0.930 . S
C1972 C1970 1.378 . S
C1972 C1973 1.367 . S
C1973 C1972 1.367 . S
C1973 C1975 1.433 . S
C1974 C1970 1.350 . S
C1974 C1971 1.463 . S
C1974 N1978 1.427 . S
C1975 H1965 0.929 . S
C1975 C1973 1.433 . S
C1975 N1978 1.384 . S
C1976 H1967 0.929 . S
C1976 C1968 1.378 . S
C1976 C1971 1.350 . S
C1977 H1964 0.929 . S
C1977 C1969 1.468 . S
C1977 N1979 1.384 . S
N1978 C1974 1.427 . S
N1978 C1975 1.384 . S
N1979 C1971 1.427 . S
N1979 C1977 1.384 . S
H1980 C1986 0.930 . S
H1981 C1990 0.930 . S
H1982 C1995 0.929 1_455 S
H1983 C1993 0.929 . S
H1984 C1988 0.929 . S
H1985 C1994 0.929 . S
C1986 H1980 0.930 . S
C1986 C1987 1.367 . S
C1986 C1994 1.378 . S
C1987 C1986 1.367 . S
C1987 C1995 1.433 . S
C1988 H1984 0.929 . S
C1988 C1990 1.378 . S
C1988 C1992 1.350 . S
C1989 C1992 1.463 . S
C1989 C1994 1.350 . S
C1989 N1997 1.427 . S
C1990 H1981 0.930 . S
C1990 C1988 1.378 . S
C1990 C1991 1.367 . S
C1991 C1990 1.367 . S
C1991 C1993 1.433 . S
C1992 C1988 1.350 . S
C1992 C1989 1.463 . S
C1992 N1996 1.427 . S
C1993 H1983 0.929 . S
C1993 C1991 1.433 . S
C1993 N1996 1.384 . S
C1994 H1985 0.929 . S
C1994 C1986 1.378 . S
C1994 C1989 1.350 . S
C1995 H1982 0.929 1_655 S
C1995 C1987 1.433 . S
C1995 N1997 1.384 . S
N1996 C1992 1.427 . S
N1996 C1993 1.384 . S
N1997 C1989 1.427 . S
N1997 C1995 1.384 . S
H1998 C2004 0.930 . S
H1999 C2008 0.930 . S
H2000 C2013 0.929 . S
H2001 C2011 0.929 . S
H2002 C2006 0.929 . S
H2003 C2012 0.929 . S
C2004 H1998 0.930 . S
C2004 C2005 1.367 . S
C2004 C2012 1.378 . S
C2005 C2004 1.367 . S
C2005 C2013 1.433 . S
C2006 H2002 0.929 . S
C2006 C2008 1.378 . S
C2006 C2010 1.350 . S
C2007 C2010 1.463 . S
C2007 C2012 1.350 . S
C2007 N2015 1.427 . S
C2008 H1999 0.930 . S
C2008 C2006 1.378 . S
C2008 C2009 1.367 . S
C2009 C2008 1.367 . S
C2009 C2011 1.433 . S
C2010 C2006 1.350 . S
C2010 C2007 1.463 . S
C2010 N2014 1.427 . S
C2011 H2001 0.929 . S
C2011 C2009 1.433 . S
C2011 N2014 1.384 . S
C2012 H2003 0.929 . S
C2012 C2004 1.378 . S
C2012 C2007 1.350 . S
C2013 H2000 0.929 . S
C2013 C2005 1.433 . S
C2013 N2015 1.384 . S
N2014 C2010 1.427 . S
N2014 C2011 1.384 . S
N2015 C2007 1.427 . S
N2015 C2013 1.384 . S
H2016 C2022 0.930 . S
H2017 C2026 0.930 . S
H2018 C2031 0.925 . S
H2019 C2029 0.929 . S
H2020 C2024 0.929 . S
H2021 C2030 0.929 . S
C2022 H2016 0.930 . S
C2022 C2023 1.367 . S
C2022 C2030 1.378 . S
C2023 C2022 1.367 . S
C2023 C2031 1.433 . S
C2024 H2020 0.929 . S
C2024 C2026 1.378 . S
C2024 C2028 1.350 . S
C2025 C2028 1.463 . S
C2025 C2030 1.350 . S
C2025 N2033 1.427 . S
C2026 H2017 0.930 . S
C2026 C2024 1.378 . S
C2026 C2027 1.367 . S
C2027 C2026 1.367 . S
C2027 C2029 1.433 . S
C2028 C2024 1.350 . S
C2028 C2025 1.463 . S
C2028 N2032 1.427 . S
C2029 H2019 0.929 . S
C2029 C2027 1.433 . S
C2029 N2032 1.384 . S
C2030 H2021 0.929 . S
C2030 C2022 1.378 . S
C2030 C2025 1.350 . S
C2031 H2018 0.925 . S
C2031 C2023 1.433 . S
C2031 N2033 1.384 . S
N2032 C2028 1.427 . S
N2032 C2029 1.384 . S
N2033 C2025 1.427 . S
N2033 C2031 1.384 . S
H2034 C2040 0.930 . S
H2035 C2044 0.930 . S
H2036 C2049 0.929 . S
H2037 C2047 0.929 . S
H2038 C2042 0.929 . S
H2039 C2048 0.929 . S
C2040 H2034 0.930 . S
C2040 C2041 1.367 . S
C2040 C2048 1.378 . S
C2041 C2040 1.367 . S
C2041 C2049 1.433 . S
C2042 H2038 0.929 . S
C2042 C2044 1.378 . S
C2042 C2046 1.350 . S
C2043 C2046 1.463 . S
C2043 C2048 1.350 . S
C2043 N2051 1.427 . S
C2044 H2035 0.930 . S
C2044 C2042 1.378 . S
C2044 C2045 1.367 . S
C2045 C2044 1.367 . S
C2045 C2047 1.433 . S
C2046 C2042 1.350 . S
C2046 C2043 1.463 . S
C2046 N2050 1.427 . S
C2047 H2037 0.929 . S
C2047 C2045 1.433 . S
C2047 N2050 1.384 . S
C2048 H2039 0.929 . S
C2048 C2040 1.378 . S
C2048 C2043 1.350 . S
C2049 H2036 0.929 . S
C2049 C2041 1.433 . S
C2049 N2051 1.384 . S
N2050 C2046 1.427 . S
N2050 C2047 1.384 . S
N2051 C2043 1.427 . S
N2051 C2049 1.384 . S
H2052 C2058 0.930 1_565 S
H2053 C2062 0.930 . S
H2054 C2067 0.929 . S
H2055 C2065 0.929 . S
H2056 C2060 0.929 . S
H2057 C2066 0.929 . S
C2058 H2052 0.930 1_545 S
C2058 C2059 1.365 1_545 S
C2058 C2066 1.378 . S
C2059 C2058 1.365 1_565 S
C2059 C2067 1.392 1_565 S
C2060 H2056 0.929 . S
C2060 C2062 1.378 . S
C2060 C2064 1.350 . S
C2061 C2064 1.463 . S
C2061 C2066 1.350 . S
C2061 N2069 1.427 . S
C2062 H2053 0.930 . S
C2062 C2060 1.378 . S
C2062 C2063 1.367 . S
C2063 C2062 1.367 . S
C2063 C2065 1.433 . S
C2064 C2060 1.350 . S
C2064 C2061 1.463 . S
C2064 N2068 1.427 . S
C2065 H2055 0.929 . S
C2065 C2063 1.433 . S
C2065 N2068 1.384 . S
C2066 H2057 0.929 . S
C2066 C2058 1.378 . S
C2066 C2061 1.350 . S
C2067 H2054 0.929 . S
C2067 C2059 1.392 1_545 S
C2067 N2069 1.384 . S
N2068 C2064 1.427 . S
N2068 C2065 1.384 . S
N2069 C2061 1.427 . S
N2069 C2067 1.384 . S
H2070 C2076 0.930 . S
H2071 C2080 0.930 . S
H2072 C2085 0.929 . S
H2073 C2083 0.929 . S
H2074 C2078 0.929 . S
H2075 C2084 0.929 . S
C2076 H2070 0.930 . S
C2076 C2077 1.367 . S
C2076 C2084 1.378 . S
C2077 C2076 1.367 . S
C2077 C2085 1.433 . S
C2078 H2074 0.929 . S
C2078 C2080 1.378 . S
C2078 C2082 1.350 . S
C2079 C2082 1.463 . S
C2079 C2084 1.350 . S
C2079 N2087 1.427 . S
C2080 H2071 0.930 . S
C2080 C2078 1.378 . S
C2080 C2081 1.367 . S
C2081 C2080 1.367 . S
C2081 C2083 1.433 . S
C2082 C2078 1.350 . S
C2082 C2079 1.463 . S
C2082 N2086 1.427 . S
C2083 H2073 0.929 . S
C2083 C2081 1.433 . S
C2083 N2086 1.384 . S
C2084 H2075 0.929 . S
C2084 C2076 1.378 . S
C2084 C2079 1.350 . S
C2085 H2072 0.929 . S
C2085 C2077 1.433 . S
C2085 N2087 1.384 . S
N2086 C2082 1.427 . S
N2086 C2083 1.384 . S
N2087 C2079 1.427 . S
N2087 C2085 1.384 . S
H2088 C2094 0.930 . S
H2089 C2098 0.930 . S
H2090 C2103 0.929 . S
H2091 C2101 0.929 . S
H2092 C2096 0.929 . S
H2093 C2102 0.929 . S
C2094 H2088 0.930 . S
C2094 C2095 1.367 . S
C2094 C2102 1.378 . S
C2095 C2094 1.367 . S
C2095 C2103 1.433 . S
C2096 H2092 0.929 . S
C2096 C2098 1.378 . S
C2096 C2100 1.350 . S
C2097 C2100 1.463 . S
C2097 C2102 1.350 . S
C2097 N2105 1.427 . S
C2098 H2089 0.930 . S
C2098 C2096 1.378 . S
C2098 C2099 1.367 . S
C2099 C2098 1.367 . S
C2099 C2101 1.433 . S
C2100 C2096 1.350 . S
C2100 C2097 1.463 . S
C2100 N2104 1.427 . S
C2101 H2091 0.929 . S
C2101 C2099 1.433 . S
C2101 N2104 1.384 . S
C2102 H2093 0.929 . S
C2102 C2094 1.378 . S
C2102 C2097 1.350 . S
C2103 H2090 0.929 . S
C2103 C2095 1.433 . S
C2103 N2105 1.384 . S
N2104 C2100 1.427 . S
N2104 C2101 1.384 . S
N2105 C2097 1.427 . S
N2105 C2103 1.384 . S
H2106 C2112 0.930 . S
H2107 C2116 0.930 . S
H2108 C2121 0.929 . S
H2109 C2119 0.929 . S
H2110 C2114 0.929 . S
H2111 C2120 0.929 . S
C2112 H2106 0.930 . S
C2112 C2113 1.367 . S
C2112 C2120 1.378 . S
C2113 C2112 1.367 . S
C2113 C2121 1.433 . S
C2114 H2110 0.929 . S
C2114 C2116 1.378 . S
C2114 C2118 1.350 . S
C2115 C2118 1.463 . S
C2115 C2120 1.350 . S
C2115 N2123 1.427 . S
C2116 H2107 0.930 . S
C2116 C2114 1.378 . S
C2116 C2117 1.367 . S
C2117 C2116 1.367 . S
C2117 C2119 1.433 . S
C2118 C2114 1.350 . S
C2118 C2115 1.463 . S
C2118 N2122 1.427 . S
C2119 H2109 0.929 . S
C2119 C2117 1.433 . S
C2119 N2122 1.384 . S
C2120 H2111 0.929 . S
C2120 C2112 1.378 . S
C2120 C2115 1.350 . S
C2121 H2108 0.929 . S
C2121 C2113 1.433 . S
C2121 N2123 1.384 . S
N2122 C2118 1.427 . S
N2122 C2119 1.384 . S
N2123 C2115 1.427 . S
N2123 C2121 1.384 . S
H2124 C2130 0.930 . S
H2125 C2134 0.930 1_545 S
H2126 C2139 0.929 . S
H2127 C2137 0.929 . S
H2128 C2132 0.929 . S
H2129 C2138 0.929 . S
C2130 H2124 0.930 . S
C2130 C2131 1.367 . S
C2130 C2138 1.378 . S
C2131 C2130 1.367 . S
C2131 C2139 1.433 . S
C2132 H2128 0.929 . S
C2132 C2134 1.378 . S
C2132 C2136 1.350 . S
C2133 C2136 1.463 . S
C2133 C2138 1.350 . S
C2133 N2141 1.427 . S
C2134 H2125 0.930 1_565 S
C2134 C2132 1.378 . S
C2134 C2135 1.367 . S
C2135 C2134 1.367 . S
C2135 C2137 1.433 . S
C2136 C2132 1.350 . S
C2136 C2133 1.463 . S
C2136 N2140 1.427 . S
C2137 H2127 0.929 . S
C2137 C2135 1.433 . S
C2137 N2140 1.384 . S
C2138 H2129 0.929 . S
C2138 C2130 1.378 . S
C2138 C2133 1.350 . S
C2139 H2126 0.929 . S
C2139 C2131 1.433 . S
C2139 N2141 1.384 . S
N2140 C2136 1.427 . S
N2140 C2137 1.384 . S
N2141 C2133 1.427 . S
N2141 C2139 1.384 . S
H2142 C2148 0.930 . S
H2143 C2152 0.930 . S
H2144 C2157 0.929 . S
H2145 C2155 0.929 . S
H2146 C2150 0.929 . S
H2147 C2156 0.929 . S
C2148 H2142 0.930 . S
C2148 C2149 1.367 . S
C2148 C2156 1.378 . S
C2149 C2148 1.367 . S
C2149 C2157 1.433 . S
C2150 H2146 0.929 . S
C2150 C2152 1.378 . S
C2150 C2154 1.350 . S
C2151 C2154 1.463 . S
C2151 C2156 1.350 . S
C2151 N2159 1.427 . S
C2152 H2143 0.930 . S
C2152 C2150 1.378 . S
C2152 C2153 1.367 . S
C2153 C2152 1.367 . S
C2153 C2155 1.433 . S
C2154 C2150 1.350 . S
C2154 C2151 1.463 . S
C2154 N2158 1.427 . S
C2155 H2145 0.929 . S
C2155 C2153 1.433 . S
C2155 N2158 1.384 . S
C2156 H2147 0.929 . S
C2156 C2148 1.378 . S
C2156 C2151 1.350 . S
C2157 H2144 0.929 . S
C2157 C2149 1.433 . S
C2157 N2159 1.384 . S
N2158 C2154 1.427 . S
N2158 C2155 1.384 . S
N2159 C2151 1.427 . S
N2159 C2157 1.384 . S
H2160 C2166 0.930 . S
H2161 C2170 0.930 . S
H2162 C2175 0.929 . S
H2163 C2173 0.929 . S
H2164 C2168 0.929 . S
H2165 C2174 0.929 . S
C2166 H2160 0.930 . S
C2166 C2167 1.367 . S
C2166 C2174 1.378 . S
C2167 C2166 1.367 . S
C2167 C2175 1.433 . S
C2168 H2164 0.929 . S
C2168 C2170 1.378 . S
C2168 C2172 1.350 . S
C2169 C2172 1.463 . S
C2169 C2174 1.350 . S
C2169 N2177 1.427 . S
C2170 H2161 0.930 . S
C2170 C2168 1.378 . S
C2170 C2171 1.367 . S
C2171 C2170 1.367 . S
C2171 C2173 1.433 . S
C2172 C2168 1.350 . S
C2172 C2169 1.463 . S
C2172 N2176 1.427 . S
C2173 H2163 0.929 . S
C2173 C2171 1.433 . S
C2173 N2176 1.384 . S
C2174 H2165 0.929 . S
C2174 C2166 1.378 . S
C2174 C2169 1.350 . S
C2175 H2162 0.929 . S
C2175 C2167 1.433 . S
C2175 N2177 1.384 . S
N2176 C2172 1.427 . S
N2176 C2173 1.384 . S
N2177 C2169 1.427 . S
N2177 C2175 1.384 . S
H2178 C2184 0.930 . S
H2179 C2188 0.930 . S
H2180 C2193 0.929 . S
H2181 C2191 0.929 . S
H2182 C2186 0.929 . S
H2183 C2192 0.929 . S
C2184 H2178 0.930 . S
C2184 C2185 1.367 . S
C2184 C2192 1.378 . S
C2185 C2184 1.367 . S
C2185 C2193 1.433 . S
C2186 H2182 0.929 . S
C2186 C2188 1.378 . S
C2186 C2190 1.350 . S
C2187 C2190 1.463 . S
C2187 C2192 1.350 . S
C2187 N2195 1.427 . S
C2188 H2179 0.930 . S
C2188 C2186 1.378 . S
C2188 C2189 1.367 . S
C2189 C2188 1.367 . S
C2189 C2191 1.433 . S
C2190 C2186 1.350 . S
C2190 C2187 1.463 . S
C2190 N2194 1.427 . S
C2191 H2181 0.929 . S
C2191 C2189 1.433 . S
C2191 N2194 1.384 . S
C2192 H2183 0.929 . S
C2192 C2184 1.378 . S
C2192 C2187 1.350 . S
C2193 H2180 0.929 . S
C2193 C2185 1.433 . S
C2193 N2195 1.384 . S
N2194 C2190 1.427 . S
N2194 C2191 1.384 . S
N2195 C2187 1.427 . S
N2195 C2193 1.384 . S
H2196 C2202 0.930 . S
H2197 C2206 0.930 . S
H2198 C2211 0.929 . S
H2199 C2209 0.929 . S
H2200 C2204 0.929 . S
H2201 C2210 0.929 . S
C2202 H2196 0.930 . S
C2202 C2203 1.367 . S
C2202 C2210 1.378 . S
C2203 C2202 1.367 . S
C2203 C2211 1.433 . S
C2204 H2200 0.929 . S
C2204 C2206 1.378 . S
C2204 C2208 1.350 . S
C2205 C2208 1.463 . S
C2205 C2210 1.350 . S
C2205 N2213 1.427 . S
C2206 H2197 0.930 . S
C2206 C2204 1.378 . S
C2206 C2207 1.367 . S
C2207 C2206 1.367 . S
C2207 C2209 1.433 . S
C2208 C2204 1.350 . S
C2208 C2205 1.463 . S
C2208 N2212 1.427 . S
C2209 H2199 0.929 . S
C2209 C2207 1.433 . S
C2209 N2212 1.384 . S
C2210 H2201 0.929 . S
C2210 C2202 1.378 . S
C2210 C2205 1.350 . S
C2211 H2198 0.929 . S
C2211 C2203 1.433 . S
C2211 N2213 1.384 . S
N2212 C2208 1.427 . S
N2212 C2209 1.384 . S
N2213 C2205 1.427 . S
N2213 C2211 1.384 . S
H2214 C2220 0.930 . S
H2215 C2224 0.930 . S
H2216 C2229 0.929 . S
H2217 C2227 0.929 . S
H2218 C2222 0.929 . S
H2219 C2228 0.929 . S
C2220 H2214 0.930 . S
C2220 C2221 1.367 . S
C2220 C2228 1.378 . S
C2221 C2220 1.367 . S
C2221 C2229 1.433 . S
C2222 H2218 0.929 . S
C2222 C2224 1.378 . S
C2222 C2226 1.350 . S
C2223 C2226 1.463 . S
C2223 C2228 1.350 . S
C2223 N2231 1.427 . S
C2224 H2215 0.930 . S
C2224 C2222 1.378 . S
C2224 C2225 1.367 . S
C2225 C2224 1.367 . S
C2225 C2227 1.433 . S
C2226 C2222 1.350 . S
C2226 C2223 1.463 . S
C2226 N2230 1.427 . S
C2227 H2217 0.929 . S
C2227 C2225 1.433 . S
C2227 N2230 1.384 . S
C2228 H2219 0.929 . S
C2228 C2220 1.378 . S
C2228 C2223 1.350 . S
C2229 H2216 0.929 . S
C2229 C2221 1.433 . S
C2229 N2231 1.384 . S
N2230 C2226 1.427 . S
N2230 C2227 1.384 . S
N2231 C2223 1.427 . S
N2231 C2229 1.384 . S
H2232 C2238 0.930 . S
H2233 C2242 0.930 . S
H2234 C2247 0.929 . S
H2235 C2245 0.929 . S
H2236 C2240 0.929 . S
H2237 C2246 0.929 . S
C2238 H2232 0.930 . S
C2238 C2239 1.367 . S
C2238 C2246 1.378 . S
C2239 C2238 1.367 . S
C2239 C2247 1.433 . S
C2240 H2236 0.929 . S
C2240 C2242 1.378 . S
C2240 C2244 1.350 . S
C2241 C2244 1.463 . S
C2241 C2246 1.350 . S
C2241 N2249 1.427 . S
C2242 H2233 0.930 . S
C2242 C2240 1.378 . S
C2242 C2243 1.367 . S
C2243 C2242 1.367 . S
C2243 C2245 1.433 . S
C2244 C2240 1.350 . S
C2244 C2241 1.463 . S
C2244 N2248 1.427 . S
C2245 H2235 0.929 . S
C2245 C2243 1.433 . S
C2245 N2248 1.384 . S
C2246 H2237 0.929 . S
C2246 C2238 1.378 . S
C2246 C2241 1.350 . S
C2247 H2234 0.929 . S
C2247 C2239 1.433 . S
C2247 N2249 1.384 . S
N2248 C2244 1.427 . S
N2248 C2245 1.384 . S
N2249 C2241 1.427 . S
N2249 C2247 1.384 . S
H2250 C2256 0.930 . S
H2251 C2260 0.930 . S
H2252 C2265 0.929 . S
H2253 C2263 0.929 . S
H2254 C2258 0.929 . S
H2255 C2264 0.929 . S
C2256 H2250 0.930 . S
C2256 C2257 1.367 . S
C2256 C2264 1.378 . S
C2257 C2256 1.367 . S
C2257 C2265 1.433 . S
C2258 H2254 0.929 . S
C2258 C2260 1.378 . S
C2258 C2262 1.350 . S
C2259 C2262 1.463 . S
C2259 C2264 1.350 . S
C2259 N2267 1.427 . S
C2260 H2251 0.930 . S
C2260 C2258 1.378 . S
C2260 C2261 1.367 . S
C2261 C2260 1.367 . S
C2261 C2263 1.433 . S
C2262 C2258 1.350 . S
C2262 C2259 1.463 . S
C2262 N2266 1.427 . S
C2263 H2253 0.929 . S
C2263 C2261 1.433 . S
C2263 N2266 1.384 . S
C2264 H2255 0.929 . S
C2264 C2256 1.378 . S
C2264 C2259 1.350 . S
C2265 H2252 0.929 . S
C2265 C2257 1.433 . S
C2265 N2267 1.384 . S
N2266 C2262 1.427 . S
N2266 C2263 1.384 . S
N2267 C2259 1.427 . S
N2267 C2265 1.384 . S
H2268 C2274 0.930 . S
H2269 C2278 0.930 . S
H2270 C2283 0.929 . S
H2271 C2281 0.929 . S
H2272 C2276 0.929 . S
H2273 C2282 0.929 . S
C2274 H2268 0.930 . S
C2274 C2275 1.367 . S
C2274 C2282 1.378 . S
C2275 C2274 1.367 . S
C2275 C2283 1.433 . S
C2276 H2272 0.929 . S
C2276 C2278 1.378 . S
C2276 C2280 1.350 . S
C2277 C2280 1.463 . S
C2277 C2282 1.350 . S
C2277 N2285 1.427 . S
C2278 H2269 0.930 . S
C2278 C2276 1.378 . S
C2278 C2279 1.367 . S
C2279 C2278 1.367 . S
C2279 C2281 1.433 . S
C2280 C2276 1.350 . S
C2280 C2277 1.463 . S
C2280 N2284 1.427 . S
C2281 H2271 0.929 . S
C2281 C2279 1.433 . S
C2281 N2284 1.384 . S
C2282 H2273 0.929 . S
C2282 C2274 1.378 . S
C2282 C2277 1.350 . S
C2283 H2270 0.929 . S
C2283 C2275 1.433 . S
C2283 N2285 1.384 . S
N2284 C2280 1.427 . S
N2284 C2281 1.384 . S
N2285 C2277 1.427 . S
N2285 C2283 1.384 . S
H2286 C2292 0.930 . S
H2287 C2296 0.930 . S
H2288 C2301 0.929 . S
H2289 C2299 0.929 . S
H2290 C2294 0.929 . S
H2291 C2300 0.929 . S
C2292 H2286 0.930 . S
C2292 C2293 1.367 . S
C2292 C2300 1.378 . S
C2293 C2292 1.367 . S
C2293 C2301 1.433 . S
C2294 H2290 0.929 . S
C2294 C2296 1.378 . S
C2294 C2298 1.350 . S
C2295 C2298 1.463 . S
C2295 C2300 1.350 . S
C2295 N2303 1.427 . S
C2296 H2287 0.930 . S
C2296 C2294 1.378 . S
C2296 C2297 1.367 . S
C2297 C2296 1.367 . S
C2297 C2299 1.433 . S
C2298 C2294 1.350 . S
C2298 C2295 1.463 . S
C2298 N2302 1.427 . S
C2299 H2289 0.929 . S
C2299 C2297 1.433 . S
C2299 N2302 1.384 . S
C2300 H2291 0.929 . S
C2300 C2292 1.378 . S
C2300 C2295 1.350 . S
C2301 H2288 0.929 . S
C2301 C2293 1.433 . S
C2301 N2303 1.384 . S
N2302 C2298 1.427 . S
N2302 C2299 1.384 . S
N2303 C2295 1.427 . S
N2303 C2301 1.384 . S
H2304 C2310 0.930 . S
H2305 C2314 0.930 . S
H2306 C2319 0.929 . S
H2307 C2317 0.929 . S
H2308 C2312 0.929 . S
H2309 C2318 0.929 . S
C2310 H2304 0.930 . S
C2310 C2311 1.367 . S
C2310 C2318 1.378 . S
C2311 C2310 1.367 . S
C2311 C2319 1.433 . S
C2312 H2308 0.929 . S
C2312 C2314 1.378 . S
C2312 C2316 1.350 . S
C2313 C2316 1.463 . S
C2313 C2318 1.350 . S
C2313 N2321 1.427 . S
C2314 H2305 0.930 . S
C2314 C2312 1.378 . S
C2314 C2315 1.367 . S
C2315 C2314 1.367 . S
C2315 C2317 1.433 . S
C2316 C2312 1.350 . S
C2316 C2313 1.463 . S
C2316 N2320 1.427 . S
C2317 H2307 0.929 . S
C2317 C2315 1.433 . S
C2317 N2320 1.384 . S
C2318 H2309 0.929 . S
C2318 C2310 1.378 . S
C2318 C2313 1.350 . S
C2319 H2306 0.929 . S
C2319 C2311 1.433 . S
C2319 N2321 1.384 . S
N2320 C2316 1.427 . S
N2320 C2317 1.384 . S
N2321 C2313 1.427 . S
N2321 C2319 1.384 . S
H2322 C2328 0.930 . S
H2323 C2332 0.930 . S
H2324 C2337 0.929 . S
H2325 C2335 0.929 . S
H2326 C2330 0.929 . S
H2327 C2336 0.929 . S
C2328 H2322 0.930 . S
C2328 C2329 1.367 . S
C2328 C2336 1.378 . S
C2329 C2328 1.367 . S
C2329 C2337 1.433 . S
C2330 H2326 0.929 . S
C2330 C2332 1.378 . S
C2330 C2334 1.350 . S
C2331 C2334 1.463 . S
C2331 C2336 1.350 . S
C2331 N2339 1.427 . S
C2332 H2323 0.930 . S
C2332 C2330 1.378 . S
C2332 C2333 1.367 . S
C2333 C2332 1.367 . S
C2333 C2335 1.433 . S
C2334 C2330 1.350 . S
C2334 C2331 1.463 . S
C2334 N2338 1.427 . S
C2335 H2325 0.929 . S
C2335 C2333 1.433 . S
C2335 N2338 1.384 . S
C2336 H2327 0.929 . S
C2336 C2328 1.378 . S
C2336 C2331 1.350 . S
C2337 H2324 0.929 . S
C2337 C2329 1.433 . S
C2337 N2339 1.384 . S
N2338 C2334 1.427 . S
N2338 C2335 1.384 . S
N2339 C2331 1.427 . S
N2339 C2337 1.384 . S
H2340 C2346 0.930 . S
H2341 C2350 0.930 . S
H2342 C2355 0.929 . S
H2343 C2353 0.929 . S
H2344 C2348 0.929 . S
H2345 C2354 0.929 . S
C2346 H2340 0.930 . S
C2346 C2347 1.367 . S
C2346 C2354 1.378 . S
C2347 C2346 1.367 . S
C2347 C2355 1.433 . S
C2348 H2344 0.929 . S
C2348 C2350 1.378 . S
C2348 C2352 1.350 . S
C2349 C2352 1.463 . S
C2349 C2354 1.350 . S
C2349 N2357 1.427 . S
C2350 H2341 0.930 . S
C2350 C2348 1.378 . S
C2350 C2351 1.367 . S
C2351 C2350 1.367 . S
C2351 C2353 1.433 . S
C2352 C2348 1.350 . S
C2352 C2349 1.463 . S
C2352 N2356 1.427 . S
C2353 H2343 0.929 . S
C2353 C2351 1.433 . S
C2353 N2356 1.384 . S
C2354 H2345 0.929 . S
C2354 C2346 1.378 . S
C2354 C2349 1.350 . S
C2355 H2342 0.929 . S
C2355 C2347 1.433 . S
C2355 N2357 1.384 . S
N2356 C2352 1.427 . S
N2356 C2353 1.384 . S
N2357 C2349 1.427 . S
N2357 C2355 1.384 . S
H2358 C2364 0.930 . S
H2359 C2368 0.930 . S
H2360 C2373 0.929 . S
H2361 C2371 0.929 . S
H2362 C2366 0.929 . S
H2363 C2372 0.929 . S
C2364 H2358 0.930 . S
C2364 C2365 1.367 . S
C2364 C2372 1.378 . S
C2365 C2364 1.367 . S
C2365 C2373 1.433 . S
C2366 H2362 0.929 . S
C2366 C2368 1.378 . S
C2366 C2370 1.350 . S
C2367 C2370 1.463 . S
C2367 C2372 1.350 . S
C2367 N2375 1.427 . S
C2368 H2359 0.930 . S
C2368 C2366 1.378 . S
C2368 C2369 1.367 . S
C2369 C2368 1.367 . S
C2369 C2371 1.433 . S
C2370 C2366 1.350 . S
C2370 C2367 1.463 . S
C2370 N2374 1.427 . S
C2371 H2361 0.929 . S
C2371 C2369 1.433 . S
C2371 N2374 1.384 . S
C2372 H2363 0.929 . S
C2372 C2364 1.378 . S
C2372 C2367 1.350 . S
C2373 H2360 0.929 . S
C2373 C2365 1.433 . S
C2373 N2375 1.384 . S
N2374 C2370 1.427 . S
N2374 C2371 1.384 . S
N2375 C2367 1.427 . S
N2375 C2373 1.384 . S
H2376 C2382 0.930 . S
H2377 C2386 0.930 . S
H2378 C2391 0.929 . S
H2379 C2389 0.929 . S
H2380 C2384 0.929 . S
H2381 C2390 0.929 . S
C2382 H2376 0.930 . S
C2382 C2383 1.367 . S
C2382 C2390 1.378 . S
C2383 C2382 1.367 . S
C2383 C2391 1.433 . S
C2384 H2380 0.929 . S
C2384 C2386 1.378 . S
C2384 C2388 1.350 . S
C2385 C2388 1.463 . S
C2385 C2390 1.350 . S
C2385 N2393 1.427 . S
C2386 H2377 0.930 . S
C2386 C2384 1.378 . S
C2386 C2387 1.367 . S
C2387 C2386 1.367 . S
C2387 C2389 1.433 . S
C2388 C2384 1.350 . S
C2388 C2385 1.463 . S
C2388 N2392 1.427 . S
C2389 H2379 0.929 . S
C2389 C2387 1.433 . S
C2389 N2392 1.384 . S
C2390 H2381 0.929 . S
C2390 C2382 1.378 . S
C2390 C2385 1.350 . S
C2391 H2378 0.929 . S
C2391 C2383 1.433 . S
C2391 N2393 1.384 . S
N2392 C2388 1.427 . S
N2392 C2389 1.384 . S
N2393 C2385 1.427 . S
N2393 C2391 1.384 . S
H2394 C2400 0.930 . S
H2395 C2404 0.930 . S
H2396 C2409 0.929 . S
H2397 C2407 0.929 . S
H2398 C2402 0.929 . S
H2399 C2408 0.929 . S
C2400 H2394 0.930 . S
C2400 C2401 1.367 . S
C2400 C2408 1.378 . S
C2401 C2400 1.367 . S
C2401 C2409 1.433 . S
C2402 H2398 0.929 . S
C2402 C2404 1.378 . S
C2402 C2406 1.350 . S
C2403 C2406 1.463 . S
C2403 C2408 1.350 . S
C2403 N2411 1.427 . S
C2404 H2395 0.930 . S
C2404 C2402 1.378 . S
C2404 C2405 1.367 . S
C2405 C2404 1.367 . S
C2405 C2407 1.433 . S
C2406 C2402 1.350 . S
C2406 C2403 1.463 . S
C2406 N2410 1.427 . S
C2407 H2397 0.929 . S
C2407 C2405 1.433 . S
C2407 N2410 1.384 . S
C2408 H2399 0.929 . S
C2408 C2400 1.378 . S
C2408 C2403 1.350 . S
C2409 H2396 0.929 . S
C2409 C2401 1.433 . S
C2409 N2411 1.384 . S
N2410 C2406 1.427 . S
N2410 C2407 1.384 . S
N2411 C2403 1.427 . S
N2411 C2409 1.384 . S
H2412 C2418 0.930 . S
H2413 C2422 0.930 . S
H2414 C2427 0.929 . S
H2415 C2425 0.929 . S
H2416 C2420 0.929 . S
H2417 C2426 0.929 . S
C2418 H2412 0.930 . S
C2418 C2419 1.367 . S
C2418 C2426 1.378 . S
C2419 C2418 1.367 . S
C2419 C2427 1.433 . S
C2420 H2416 0.929 . S
C2420 C2422 1.378 . S
C2420 C2424 1.350 . S
C2421 C2424 1.463 . S
C2421 C2426 1.350 . S
C2421 N2429 1.427 . S
C2422 H2413 0.930 . S
C2422 C2420 1.378 . S
C2422 C2423 1.367 . S
C2423 C2422 1.367 . S
C2423 C2425 1.433 . S
C2424 C2420 1.350 . S
C2424 C2421 1.463 . S
C2424 N2428 1.427 . S
C2425 H2415 0.929 . S
C2425 C2423 1.433 . S
C2425 N2428 1.384 . S
C2426 H2417 0.929 . S
C2426 C2418 1.378 . S
C2426 C2421 1.350 . S
C2427 H2414 0.929 . S
C2427 C2419 1.433 . S
C2427 N2429 1.384 . S
N2428 C2424 1.427 . S
N2428 C2425 1.384 . S
N2429 C2421 1.427 . S
N2429 C2427 1.384 . S
H2430 C2436 0.930 . S
H2431 C2440 0.930 . S
H2432 C2445 0.929 . S
H2433 C2443 0.929 . S
H2434 C2438 0.929 . S
H2435 C2444 0.929 . S
C2436 H2430 0.930 . S
C2436 C2437 1.367 . S
C2436 C2444 1.378 . S
C2437 C2436 1.367 . S
C2437 C2445 1.433 . S
C2438 H2434 0.929 . S
C2438 C2440 1.378 . S
C2438 C2442 1.350 . S
C2439 C2442 1.463 . S
C2439 C2444 1.350 . S
C2439 N2447 1.427 . S
C2440 H2431 0.930 . S
C2440 C2438 1.378 . S
C2440 C2441 1.367 . S
C2441 C2440 1.367 . S
C2441 C2443 1.433 . S
C2442 C2438 1.350 . S
C2442 C2439 1.463 . S
C2442 N2446 1.427 . S
C2443 H2433 0.929 . S
C2443 C2441 1.433 . S
C2443 N2446 1.384 . S
C2444 H2435 0.929 . S
C2444 C2436 1.378 . S
C2444 C2439 1.350 . S
C2445 H2432 0.929 . S
C2445 C2437 1.433 . S
C2445 N2447 1.384 . S
N2446 C2442 1.427 . S
N2446 C2443 1.384 . S
N2447 C2439 1.427 . S
N2447 C2445 1.384 . S
C1483 C522 1.454 . S
C1487 C776 1.380 . S
C1501 C562 1.455 . S
C1505 C860 1.378 . S
C1519 C495 1.486 . S
C1523 C954 1.448 . S
C1537 C455 1.433 . S
C1541 C870 1.391 . S
C1559 C944 1.314 . S
C1555 C362 1.392 . S
C1573 C402 1.433 . S
C1577 C786 1.386 . S
C1595 C787 1.394 . S
C1591 C442 1.444 . S
C1613 C871 1.372 . S
C1609 C375 1.431 . S
C1627 C415 1.483 . S
C1631 C963 1.432 . S
C1645 C535 1.437 . S
C1649 C879 1.396 . S
C1663 C575 1.367 . S
C1667 C955 1.305 . S
C1685 C795 1.401 . S
C1681 C482 1.417 . S
C1703 C1028 1.367 . S
C1699 C42 1.453 1_455 S
C1717 C82 1.454 . S
C1721 C1112 1.392 . S
C1735 C15 1.479 . S
C1739 C1206 1.434 . S
C1753 C695 1.439 . S
C1757 C1122 1.404 . S
C1771 C602 1.390 . S
C1775 C1196 1.309 . S
C1789 C642 1.434 . S
C1793 C1038 1.377 . S
C1807 C682 1.452 . S
C1811 C1039 1.410 . S
C1825 C615 1.430 . S
C1829 C1123 1.366 . S
C1847 C1215 1.432 . S
C1843 C655 1.484 . S
C1861 C55 1.438 . S
C1865 C1131 1.398 . S
C1883 C1207 1.298 . S
C1879 C95 1.366 1_455 S
C1897 C2 1.422 . S
C1901 C1047 1.407 . S
C1919 C1280 1.370 . S
C1915 C282 1.453 . S
C1933 C322 1.455 . S
C1937 C1364 1.379 . S
C1955 C1458 1.448 . S
C1951 C255 1.486 . S
C1973 C1374 1.401 . S
C1969 C215 1.400 1_545 S
C1991 C1448 1.313 . S
C1987 C122 1.391 1_655 S
C2005 C162 1.433 . S
C2009 C1290 1.373 . S
C2023 C202 1.445 1_655 S
C2027 C1291 1.393 . S
C2041 C135 1.431 . S
C2045 C1375 1.356 . S
C2063 C1467 1.439 . S
C2059 C175 1.533 . S
C2077 C295 1.437 . S
C2081 C1383 1.391 . S
C2095 C335 1.367 . S
C2099 C1459 1.304 . S
C2113 C242 1.429 . S
C2117 C1299 1.414 . S
C2131 C621 1.419 . S
C2135 C783 1.299 . S
C2153 C867 1.345 . S
C2149 C661 1.503 . S
C2167 C701 1.477 . S
C2171 C960 1.350 . S
C2185 C261 1.504 . S
C2189 C876 1.374 . S
C2203 C301 1.461 . S
C2207 C951 1.335 . S
C2225 C792 1.308 . S
C2221 C341 1.415 . S
C2239 C141 1.414 . S
C2243 C1035 1.318 . S
C2257 C181 1.503 . S
C2261 C1119 1.346 . S
C2275 C221 1.476 . S
C2279 C1212 1.349 . S
C2293 C501 1.506 . S
C2297 C1128 1.371 . S
C2315 C1203 1.322 . S
C2311 C541 1.465 . S
C2329 C581 1.411 . S
C2333 C1044 1.323 . S
C2347 C381 1.419 . S
C2351 C1287 1.303 . S
C2365 C421 1.500 . S
C2369 C1371 1.367 . S
C2387 C1464 1.362 . S
C2383 C461 1.479 . S
C2401 C21 1.509 . S
C2405 C1380 1.380 . S
C2419 C61 1.465 . S
C2423 C1455 1.326 . S
C2437 C101 1.418 . S
C2441 C1296 1.301 . S
