# Generated by pormake.
# Topology gar, (4,6)-cn, num edge types: 1
# Building blocks:
#     Node 0, Type 0, BuildingBlock: QUQFOY_clean_sbu_1, # of connection points: 4
#     Node 1, Type 0, BuildingBlock: QUQFOY_clean_sbu_1, # of connection points: 4
#     Node 2, Type 0, BuildingBlock: QUQFOY_clean_sbu_1, # of connection points: 4
#     Node 3, Type 0, BuildingBlock: QUQFOY_clean_sbu_1, # of connection points: 4
#     Node 4, Type 0, BuildingBlock: QUQFOY_clean_sbu_1, # of connection points: 4
#     Node 5, Type 0, BuildingBlock: QUQFOY_clean_sbu_1, # of connection points: 4
#     Node 6, Type 0, BuildingBlock: QUQFOY_clean_sbu_1, # of connection points: 4
#     Node 7, Type 0, BuildingBlock: QUQFOY_clean_sbu_1, # of connection points: 4
#     Node 8, Type 0, BuildingBlock: QUQFOY_clean_sbu_1, # of connection points: 4
#     Node 9, Type 0, BuildingBlock: QUQFOY_clean_sbu_1, # of connection points: 4
#     Node 10, Type 0, BuildingBlock: QUQFOY_clean_sbu_1, # of connection points: 4
#     Node 11, Type 0, BuildingBlock: QUQFOY_clean_sbu_1, # of connection points: 4
#     Node 12, Type 0, BuildingBlock: QUQFOY_clean_sbu_1, # of connection points: 4
#     Node 13, Type 0, BuildingBlock: QUQFOY_clean_sbu_1, # of connection points: 4
#     Node 14, Type 0, BuildingBlock: QUQFOY_clean_sbu_1, # of connection points: 4
#     Node 15, Type 0, BuildingBlock: QUQFOY_clean_sbu_1, # of connection points: 4
#     Node 16, Type 0, BuildingBlock: QUQFOY_clean_sbu_1, # of connection points: 4
#     Node 17, Type 0, BuildingBlock: QUQFOY_clean_sbu_1, # of connection points: 4
#     Node 18, Type 0, BuildingBlock: QUQFOY_clean_sbu_1, # of connection points: 4
#     Node 19, Type 0, BuildingBlock: QUQFOY_clean_sbu_1, # of connection points: 4
#     Node 20, Type 0, BuildingBlock: QUQFOY_clean_sbu_1, # of connection points: 4
#     Node 21, Type 0, BuildingBlock: QUQFOY_clean_sbu_1, # of connection points: 4
#     Node 22, Type 0, BuildingBlock: QUQFOY_clean_sbu_1, # of connection points: 4
#     Node 23, Type 0, BuildingBlock: QUQFOY_clean_sbu_1, # of connection points: 4
#     Node 24, Type 1, BuildingBlock: BETDIP_clean_sbu_0, # of connection points: 6
#     Node 25, Type 1, BuildingBlock: BETDIP_clean_sbu_0, # of connection points: 6
#     Node 26, Type 1, BuildingBlock: BETDIP_clean_sbu_0, # of connection points: 6
#     Node 27, Type 1, BuildingBlock: BETDIP_clean_sbu_0, # of connection points: 6
#     Node 28, Type 1, BuildingBlock: BETDIP_clean_sbu_0, # of connection points: 6
#     Node 29, Type 1, BuildingBlock: BETDIP_clean_sbu_0, # of connection points: 6
#     Node 30, Type 1, BuildingBlock: BETDIP_clean_sbu_0, # of connection points: 6
#     Node 31, Type 1, BuildingBlock: BETDIP_clean_sbu_0, # of connection points: 6
#     Node 32, Type 1, BuildingBlock: BETDIP_clean_sbu_0, # of connection points: 6
#     Node 33, Type 1, BuildingBlock: BETDIP_clean_sbu_0, # of connection points: 6
#     Node 34, Type 1, BuildingBlock: BETDIP_clean_sbu_0, # of connection points: 6
#     Node 35, Type 1, BuildingBlock: BETDIP_clean_sbu_0, # of connection points: 6
#     Node 36, Type 1, BuildingBlock: BETDIP_clean_sbu_0, # of connection points: 6
#     Node 37, Type 1, BuildingBlock: BETDIP_clean_sbu_0, # of connection points: 6
#     Node 38, Type 1, BuildingBlock: BETDIP_clean_sbu_0, # of connection points: 6
#     Node 39, Type 1, BuildingBlock: BETDIP_clean_sbu_0, # of connection points: 6
#     Edge 40, Type (0, 1), BuildingBlock: TEMPAE_clean_linker_10, # of connection points: 2
#     Edge 41, Type (0, 1), BuildingBlock: TEMPAE_clean_linker_10, # of connection points: 2
#     Edge 42, Type (0, 1), BuildingBlock: TEMPAE_clean_linker_10, # of connection points: 2
#     Edge 43, Type (0, 1), BuildingBlock: TEMPAE_clean_linker_10, # of connection points: 2
#     Edge 44, Type (0, 1), BuildingBlock: TEMPAE_clean_linker_10, # of connection points: 2
#     Edge 45, Type (0, 1), BuildingBlock: TEMPAE_clean_linker_10, # of connection points: 2
#     Edge 46, Type (0, 1), BuildingBlock: TEMPAE_clean_linker_10, # of connection points: 2
#     Edge 47, Type (0, 1), BuildingBlock: TEMPAE_clean_linker_10, # of connection points: 2
#     Edge 48, Type (0, 1), BuildingBlock: TEMPAE_clean_linker_10, # of connection points: 2
#     Edge 49, Type (0, 1), BuildingBlock: TEMPAE_clean_linker_10, # of connection points: 2
#     Edge 50, Type (0, 1), BuildingBlock: TEMPAE_clean_linker_10, # of connection points: 2
#     Edge 51, Type (0, 1), BuildingBlock: TEMPAE_clean_linker_10, # of connection points: 2
#     Edge 52, Type (0, 1), BuildingBlock: TEMPAE_clean_linker_10, # of connection points: 2
#     Edge 53, Type (0, 1), BuildingBlock: TEMPAE_clean_linker_10, # of connection points: 2
#     Edge 54, Type (0, 1), BuildingBlock: TEMPAE_clean_linker_10, # of connection points: 2
#     Edge 55, Type (0, 1), BuildingBlock: TEMPAE_clean_linker_10, # of connection points: 2
#     Edge 56, Type (0, 1), BuildingBlock: TEMPAE_clean_linker_10, # of connection points: 2
#     Edge 57, Type (0, 1), BuildingBlock: TEMPAE_clean_linker_10, # of connection points: 2
#     Edge 58, Type (0, 1), BuildingBlock: TEMPAE_clean_linker_10, # of connection points: 2
#     Edge 59, Type (0, 1), BuildingBlock: TEMPAE_clean_linker_10, # of connection points: 2
#     Edge 60, Type (0, 1), BuildingBlock: TEMPAE_clean_linker_10, # of connection points: 2
#     Edge 61, Type (0, 1), BuildingBlock: TEMPAE_clean_linker_10, # of connection points: 2
#     Edge 62, Type (0, 1), BuildingBlock: TEMPAE_clean_linker_10, # of connection points: 2
#     Edge 63, Type (0, 1), BuildingBlock: TEMPAE_clean_linker_10, # of connection points: 2
#     Edge 64, Type (0, 1), BuildingBlock: TEMPAE_clean_linker_10, # of connection points: 2
#     Edge 65, Type (0, 1), BuildingBlock: TEMPAE_clean_linker_10, # of connection points: 2
#     Edge 66, Type (0, 1), BuildingBlock: TEMPAE_clean_linker_10, # of connection points: 2
#     Edge 67, Type (0, 1), BuildingBlock: TEMPAE_clean_linker_10, # of connection points: 2
#     Edge 68, Type (0, 1), BuildingBlock: TEMPAE_clean_linker_10, # of connection points: 2
#     Edge 69, Type (0, 1), BuildingBlock: TEMPAE_clean_linker_10, # of connection points: 2
#     Edge 70, Type (0, 1), BuildingBlock: TEMPAE_clean_linker_10, # of connection points: 2
#     Edge 71, Type (0, 1), BuildingBlock: TEMPAE_clean_linker_10, # of connection points: 2
#     Edge 72, Type (0, 1), BuildingBlock: TEMPAE_clean_linker_10, # of connection points: 2
#     Edge 73, Type (0, 1), BuildingBlock: TEMPAE_clean_linker_10, # of connection points: 2
#     Edge 74, Type (0, 1), BuildingBlock: TEMPAE_clean_linker_10, # of connection points: 2
#     Edge 75, Type (0, 1), BuildingBlock: TEMPAE_clean_linker_10, # of connection points: 2
#     Edge 76, Type (0, 1), BuildingBlock: TEMPAE_clean_linker_10, # of connection points: 2
#     Edge 77, Type (0, 1), BuildingBlock: TEMPAE_clean_linker_10, # of connection points: 2
#     Edge 78, Type (0, 1), BuildingBlock: TEMPAE_clean_linker_10, # of connection points: 2
#     Edge 79, Type (0, 1), BuildingBlock: TEMPAE_clean_linker_10, # of connection points: 2
#     Edge 80, Type (0, 1), BuildingBlock: TEMPAE_clean_linker_10, # of connection points: 2
#     Edge 81, Type (0, 1), BuildingBlock: TEMPAE_clean_linker_10, # of connection points: 2
#     Edge 82, Type (0, 1), BuildingBlock: TEMPAE_clean_linker_10, # of connection points: 2
#     Edge 83, Type (0, 1), BuildingBlock: TEMPAE_clean_linker_10, # of connection points: 2
#     Edge 84, Type (0, 1), BuildingBlock: TEMPAE_clean_linker_10, # of connection points: 2
#     Edge 85, Type (0, 1), BuildingBlock: TEMPAE_clean_linker_10, # of connection points: 2
#     Edge 86, Type (0, 1), BuildingBlock: TEMPAE_clean_linker_10, # of connection points: 2
#     Edge 87, Type (0, 1), BuildingBlock: TEMPAE_clean_linker_10, # of connection points: 2
#     Edge 88, Type (0, 1), BuildingBlock: TEMPAE_clean_linker_10, # of connection points: 2
#     Edge 89, Type (0, 1), BuildingBlock: TEMPAE_clean_linker_10, # of connection points: 2
#     Edge 90, Type (0, 1), BuildingBlock: TEMPAE_clean_linker_10, # of connection points: 2
#     Edge 91, Type (0, 1), BuildingBlock: TEMPAE_clean_linker_10, # of connection points: 2
#     Edge 92, Type (0, 1), BuildingBlock: TEMPAE_clean_linker_10, # of connection points: 2
#     Edge 93, Type (0, 1), BuildingBlock: TEMPAE_clean_linker_10, # of connection points: 2
#     Edge 94, Type (0, 1), BuildingBlock: TEMPAE_clean_linker_10, # of connection points: 2
#     Edge 95, Type (0, 1), BuildingBlock: TEMPAE_clean_linker_10, # of connection points: 2
#     Edge 96, Type (0, 1), BuildingBlock: TEMPAE_clean_linker_10, # of connection points: 2
#     Edge 97, Type (0, 1), BuildingBlock: TEMPAE_clean_linker_10, # of connection points: 2
#     Edge 98, Type (0, 1), BuildingBlock: TEMPAE_clean_linker_10, # of connection points: 2
#     Edge 99, Type (0, 1), BuildingBlock: TEMPAE_clean_linker_10, # of connection points: 2
#     Edge 100, Type (0, 1), BuildingBlock: TEMPAE_clean_linker_10, # of connection points: 2
#     Edge 101, Type (0, 1), BuildingBlock: TEMPAE_clean_linker_10, # of connection points: 2
#     Edge 102, Type (0, 1), BuildingBlock: TEMPAE_clean_linker_10, # of connection points: 2
#     Edge 103, Type (0, 1), BuildingBlock: TEMPAE_clean_linker_10, # of connection points: 2
#     Edge 104, Type (0, 1), BuildingBlock: TEMPAE_clean_linker_10, # of connection points: 2
#     Edge 105, Type (0, 1), BuildingBlock: TEMPAE_clean_linker_10, # of connection points: 2
#     Edge 106, Type (0, 1), BuildingBlock: TEMPAE_clean_linker_10, # of connection points: 2
#     Edge 107, Type (0, 1), BuildingBlock: TEMPAE_clean_linker_10, # of connection points: 2
#     Edge 108, Type (0, 1), BuildingBlock: TEMPAE_clean_linker_10, # of connection points: 2
#     Edge 109, Type (0, 1), BuildingBlock: TEMPAE_clean_linker_10, # of connection points: 2
#     Edge 110, Type (0, 1), BuildingBlock: TEMPAE_clean_linker_10, # of connection points: 2
#     Edge 111, Type (0, 1), BuildingBlock: TEMPAE_clean_linker_10, # of connection points: 2
#     Edge 112, Type (0, 1), BuildingBlock: TEMPAE_clean_linker_10, # of connection points: 2
#     Edge 113, Type (0, 1), BuildingBlock: TEMPAE_clean_linker_10, # of connection points: 2
#     Edge 114, Type (0, 1), BuildingBlock: TEMPAE_clean_linker_10, # of connection points: 2
#     Edge 115, Type (0, 1), BuildingBlock: TEMPAE_clean_linker_10, # of connection points: 2
#     Edge 116, Type (0, 1), BuildingBlock: TEMPAE_clean_linker_10, # of connection points: 2
#     Edge 117, Type (0, 1), BuildingBlock: TEMPAE_clean_linker_10, # of connection points: 2
#     Edge 118, Type (0, 1), BuildingBlock: TEMPAE_clean_linker_10, # of connection points: 2
#     Edge 119, Type (0, 1), BuildingBlock: TEMPAE_clean_linker_10, # of connection points: 2
#     Edge 120, Type (0, 1), BuildingBlock: TEMPAE_clean_linker_10, # of connection points: 2
#     Edge 121, Type (0, 1), BuildingBlock: TEMPAE_clean_linker_10, # of connection points: 2
#     Edge 122, Type (0, 1), BuildingBlock: TEMPAE_clean_linker_10, # of connection points: 2
#     Edge 123, Type (0, 1), BuildingBlock: TEMPAE_clean_linker_10, # of connection points: 2
#     Edge 124, Type (0, 1), BuildingBlock: TEMPAE_clean_linker_10, # of connection points: 2
#     Edge 125, Type (0, 1), BuildingBlock: TEMPAE_clean_linker_10, # of connection points: 2
#     Edge 126, Type (0, 1), BuildingBlock: TEMPAE_clean_linker_10, # of connection points: 2
#     Edge 127, Type (0, 1), BuildingBlock: TEMPAE_clean_linker_10, # of connection points: 2
#     Edge 128, Type (0, 1), BuildingBlock: TEMPAE_clean_linker_10, # of connection points: 2
#     Edge 129, Type (0, 1), BuildingBlock: TEMPAE_clean_linker_10, # of connection points: 2
#     Edge 130, Type (0, 1), BuildingBlock: TEMPAE_clean_linker_10, # of connection points: 2
#     Edge 131, Type (0, 1), BuildingBlock: TEMPAE_clean_linker_10, # of connection points: 2
#     Edge 132, Type (0, 1), BuildingBlock: TEMPAE_clean_linker_10, # of connection points: 2
#     Edge 133, Type (0, 1), BuildingBlock: TEMPAE_clean_linker_10, # of connection points: 2
#     Edge 134, Type (0, 1), BuildingBlock: TEMPAE_clean_linker_10, # of connection points: 2
#     Edge 135, Type (0, 1), BuildingBlock: TEMPAE_clean_linker_10, # of connection points: 2
# Relax obj value: 0.197
# Max RMSD: 0.313
# Mean RMSD: 0.176
data_MOF--net-gar--node1-QUQFOY_clean_sbu_1--node2-BETDIP_clean_sbu_0--edge1-TEMPAE_clean_linker_10
_symmetry_space_group_name_H-M    P1
_symmetry_Int_Tables_number       1
_symmetry_cell_setting            triclinic
loop_
_symmetry_equiv_pos_as_xyz
'x, y, z'
_cell_length_a     65.755778
_cell_length_b     58.432484
_cell_length_c     56.067739
_cell_angle_alpha  97.643785
_cell_angle_beta   98.81598
_cell_angle_gamma 103.47411
loop_
_atom_site_label
_atom_site_type_symbol
_atom_site_fract_x
_atom_site_fract_y
_atom_site_fract_z
_atom_type_partial_charge
O0 O 0.04131 0.27986 0.40417 0.0
Cd1 Cd 0.03687 0.30891 0.3887 0.0
Cd2 Cd 0.03404 0.32545 0.4364 0.0
O3 O 0.04816 0.29858 0.44242 0.0
O4 O 0.04573 0.30369 0.35661 0.0
O5 O 0.06356 0.33314 0.38704 0.0
C6 C 0.06216 0.3214 0.36536 0.0
C7 C 0.04279 0.35861 0.46782 0.0
C8 C 0.04773 0.28053 0.42686 0.0
C9 C 0.99474 0.31352 0.39662 0.0
O10 O 1.00257 0.31624 0.41926 0.0
O11 O 1.00651 0.31302 0.38073 0.0
O12 O 0.03121 0.33829 0.47002 0.0
O13 O 0.05004 0.36011 0.44778 0.0
O14 O 0.05521 0.72569 0.71521 0.0
Cd15 Cd 0.06628 0.74696 0.7494 0.0
Cd16 Cd 0.08259 0.78083 0.72274 0.0
O17 O 0.06907 0.7528 0.69419 0.0
O18 O 0.04436 0.74144 0.7709 0.0
O19 O 0.05347 0.77408 0.75486 0.0
C20 C 0.0415 0.76201 0.76744 0.0
C21 C 0.07714 0.81747 0.71526 0.0
C22 C 0.05828 0.73192 0.69488 0.0
C23 C 0.11347 0.76732 0.76101 0.0
O24 O 0.11019 0.78021 0.74499 0.0
O25 O 0.09794 0.75238 0.76607 0.0
O26 O 0.09093 0.8086 0.70591 0.0
O27 O 0.06694 0.80593 0.72964 0.0
O28 O 0.58231 0.83201 0.90891 0.0
Cd29 Cd 0.56289 0.83462 0.9339 0.0
Cd30 Cd 0.54853 0.86131 0.90166 0.0
O31 O 0.56899 0.85011 0.88057 0.0
O32 O 0.57043 0.81325 0.95661 0.0
O33 O 0.53856 0.80615 0.93337 0.0
C34 C 0.55135 0.79977 0.94942 0.0
C35 C 0.51198 0.84422 0.89355 0.0
C36 C 0.58206 0.83845 0.88813 0.0
C37 C 0.5657 0.88661 0.95278 0.0
O38 O 0.55988 0.88947 0.9309 0.0
O39 O 0.56694 0.86618 0.95722 0.0
O40 O 0.52001 0.86157 0.88288 0.0
O41 O 0.52488 0.83624 0.90792 0.0
O42 O 0.53842 0.21053 0.20871 0.0
Cd43 Cd 0.55293 0.23356 0.24111 0.0
Cd44 Cd 0.56045 0.26704 0.21158 0.0
O45 O 0.54393 0.23793 0.18524 0.0
O46 O 0.53638 0.22881 0.26798 0.0
O47 O 0.54083 0.26067 0.24981 0.0
C48 C 0.53272 0.24932 0.26576 0.0
C49 C 0.5544 0.30357 0.20423 0.0
C50 C 0.53647 0.21644 0.18762 0.0
C51 C 0.59819 0.25635 0.24297 0.0
O52 O 0.59104 0.26829 0.22783 0.0
O53 O 0.58549 0.24076 0.25122 0.0
O54 O 0.56556 0.29295 0.19191 0.0
O55 O 0.54657 0.29349 0.22107 0.0
O56 O 0.07405 0.76584 0.17463 0.0
Cd57 Cd 0.07972 0.79736 0.19913 0.0
Cd58 Cd 0.09976 0.81531 0.16188 0.0
O59 O 0.08731 0.77931 0.14375 0.0
O60 O 0.06099 0.78829 0.2235 0.0
O61 O 0.0565 0.8151 0.2005 0.0
C62 C 0.05015 0.80284 0.21675 0.0
C63 C 0.09292 0.84867 0.14415 0.0
C64 C 0.07822 0.76188 0.15327 0.0
C65 C 0.12795 0.81666 0.21128 0.0
O66 O 0.12703 0.82062 0.1893 0.0
O67 O 0.11083 0.80894 0.21909 0.0
O68 O 0.10615 0.83725 0.13702 0.0
O69 O 0.08324 0.84101 0.16109 0.0
O70 O 0.55636 0.76416 0.45272 0.0
Cd71 Cd 0.53671 0.76183 0.47864 0.0
Cd72 Cd 0.51097 0.77736 0.43485 0.0
O73 O 0.53651 0.77 0.41941 0.0
O74 O 0.55094 0.74654 0.50486 0.0
O75 O 0.52013 0.72806 0.48094 0.0
C76 C 0.53554 0.72741 0.49796 0.0
C77 C 0.47612 0.77247 0.41127 0.0
C78 C 0.55388 0.76661 0.43026 0.0
C79 C 0.52691 0.81078 0.48572 0.0
O80 O 0.51909 0.80657 0.46287 0.0
O81 O 0.53321 0.79475 0.4961 0.0
O82 O 0.4925 0.78822 0.40849 0.0
O83 O 0.47955 0.75834 0.42642 0.0
O84 O 0.57753 0.26085 0.67972 0.0
Cd85 Cd 0.58281 0.29204 0.70457 0.0
Cd86 Cd 0.60344 0.31058 0.66828 0.0
O87 O 0.59126 0.27497 0.64941 0.0
O88 O 0.56332 0.2827 0.7281 0.0
O89 O 0.5597 0.30996 0.70536 0.0
C90 C 0.55277 0.29745 0.72118 0.0
C91 C 0.59721 0.3442 0.65093 0.0
C92 C 0.58204 0.25731 0.65849 0.0
C93 C 0.63091 0.31117 0.7178 0.0
O94 O 0.63029 0.31549 0.69599 0.0
O95 O 0.61365 0.30328 0.72526 0.0
O96 O 0.61069 0.33296 0.64417 0.0
O97 O 0.58694 0.33618 0.66728 0.0
O98 O 1.01569 0.22019 0.95499 0.0
Cd99 Cd 1.01645 0.24713 0.93372 0.0
Cd100 Cd 1.00575 0.26991 0.97699 0.0
O101 O 1.01182 0.23921 0.99013 0.0
O102 O 0.0318 0.23834 0.90661 0.0
O103 O 0.04542 0.27016 0.9354 0.0
C104 C 0.04756 0.25659 0.91626 0.0
C105 C 0.02041 0.30976 0.99836 0.0
C106 C 1.01457 0.22061 0.97755 0.0
C107 C 0.97377 0.26069 0.92876 0.0
O108 O 0.97769 0.26648 0.95205 0.0
O109 O 0.98743 0.25351 0.9178 0.0
O110 O 1.00563 0.29504 1.0055 0.0
O111 O 0.02792 0.30146 0.98002 0.0
O112 O 0.4275 0.06854 0.26737 0.0
Cd113 Cd 0.4023 0.06976 0.28934 0.0
Cd114 Cd 0.44243 0.04808 0.32223 0.0
O115 O 0.45312 0.05536 0.28847 0.0
O116 O 0.38069 0.08855 0.27372 0.0
O117 O 0.39948 0.10206 0.3102 0.0
C118 C 0.38545 0.10515 0.2929 0.0
C119 C 0.46476 0.04966 0.36277 0.0
C120 C 0.44529 0.06226 0.26886 0.0
C121 C 0.39368 1.01755 0.3056 0.0
O122 O 0.41342 0.02183 0.31527 0.0
O123 O 0.38636 0.03375 0.29598 0.0
O124 O 0.46318 0.03353 0.34398 0.0
O125 O 0.45488 0.06584 0.35855 0.0
O126 O 0.28766 0.17136 0.58392 0.0
Cd127 Cd 0.28202 0.14474 0.55351 0.0
Cd128 Cd 0.26374 0.18074 0.5325 0.0
O129 O 0.27511 0.19939 0.56849 0.0
O130 O 0.29853 0.12204 0.56573 0.0
O131 O 0.30609 0.14075 0.53543 0.0
C132 C 0.31061 0.1265 0.54997 0.0
C133 C 0.27003 0.20083 0.49883 0.0
C134 C 0.28377 0.19181 0.58676 0.0
C135 C 0.23397 0.13184 0.534 0.0
O136 O 0.23631 0.15264 0.52835 0.0
O137 O 0.25016 0.12501 0.54293 0.0
O138 O 0.25567 0.20401 0.51129 0.0
O139 O 0.28099 0.18624 0.50543 0.0
O140 O 0.14816 0.03399 0.79186 0.0
Cd141 Cd 0.17102 0.04209 0.8237 0.0
Cd142 Cd 0.14383 0.06545 0.84072 0.0
O143 O 0.1259 0.0534 0.80521 0.0
O144 O 0.19049 0.02116 0.81799 0.0
O145 O 0.17241 0.01953 0.84804 0.0
C146 C 0.18594 1.01197 0.83678 0.0
C147 C 0.13011 0.05615 0.87562 0.0
C148 C 0.13114 0.04088 0.78789 0.0
C149 C 0.18722 0.09562 0.8393 0.0
O150 O 0.16918 0.09546 0.84496 0.0
O151 O 0.19113 0.07613 0.8309 0.0
O152 O 0.1256 0.07298 0.86475 0.0
O153 O 0.1421 0.04413 0.86636 0.0
O154 O 0.23274 0.90285 0.04815 0.0
Cd155 Cd 0.23369 0.90297 1.01107 0.0
Cd156 Cd 0.22789 0.85796 0.01513 0.0
O157 O 0.21205 0.86656 0.04201 0.0
O158 O 0.24063 0.93748 1.00965 0.0
O159 O 0.21043 0.91224 0.98969 0.0
C160 C 0.22252 0.93378 0.9953 0.0
C161 C 0.21615 0.82332 0.9865 0.0
C162 C 0.22078 0.88637 0.05616 0.0
C163 C 0.26974 0.88325 1.00934 0.0
O164 O 0.26087 0.86944 0.02251 0.0
O165 O 0.25894 0.89494 0.99768 0.0
O166 O 0.22254 0.82286 1.00932 0.0
O167 O 0.21436 0.84346 0.98044 0.0
O168 O 0.32449 0.40507 0.13212 0.0
Cd169 Cd 0.3273 0.42786 0.10607 0.0
Cd170 Cd 0.34036 0.38935 0.08293 0.0
O171 O 0.3329 0.37408 0.11282 0.0
O172 O 0.31204 0.45257 0.1166 0.0
O173 O 0.30019 0.42649 0.08222 0.0
C174 C 0.29748 0.44385 0.09723 0.0
C175 C 0.3263 0.36912 0.04256 0.0
C176 C 0.32707 0.38403 0.13125 0.0
C177 C 0.37248 0.4372 0.09431 0.0
O178 O 0.36904 0.41472 0.08796 0.0
O179 O 0.35775 0.44615 0.10077 0.0
O180 O 0.34095 0.36302 0.05645 0.0
O181 O 0.31906 0.38634 0.05188 0.0
O182 O 0.87751 0.1857 0.1895 0.0
Cd183 Cd 0.86614 0.15513 0.16359 0.0
Cd184 Cd 0.85487 0.1846 0.1316 0.0
O185 O 0.86779 0.20844 0.16376 0.0
O186 O 0.88442 0.13236 0.16033 0.0
O187 O 0.87721 0.15491 0.13297 0.0
C188 C 0.88604 0.13858 0.13924 0.0
C189 C 0.85966 0.1999 0.09581 0.0
C190 C 0.87597 0.20606 0.18505 0.0
C191 C 0.82065 0.14337 0.14161 0.0
O192 O 0.82631 0.1597 0.12924 0.0
O193 O 0.83415 0.13892 0.15794 0.0
O194 O 0.84675 0.20587 0.10905 0.0
O195 O 0.87007 0.18508 0.10286 0.0
O196 O 0.16552 0.51295 0.2902 0.0
Cd197 Cd 0.19374 0.51544 0.31732 0.0
Cd198 Cd 0.15892 0.54339 0.34654 0.0
O199 O 0.14337 0.53029 0.30859 0.0
O200 O 0.21307 0.49441 0.30248 0.0
O201 O 0.20005 0.48643 0.33447 0.0
C202 C 0.21131 0.48067 0.31875 0.0
C203 C 0.13951 0.54484 0.3822 0.0
C204 C 0.14828 0.52018 0.28908 0.0
C205 C 0.20494 0.5724 0.33852 0.0
O206 O 0.18735 0.57035 0.34659 0.0
O207 O 0.21013 0.55369 0.32868 0.0
O208 O 0.13928 0.55921 0.36659 0.0
O209 O 0.15034 0.52942 0.37783 0.0
O210 O 0.83335 0.90715 0.64149 0.0
Cd211 Cd 0.83403 0.92921 0.61485 0.0
Cd212 Cd 0.84302 0.8898 0.58881 0.0
O213 O 0.83451 0.87403 0.61831 0.0
O214 O 0.8192 0.95415 0.626 0.0
O215 O 0.80605 0.92724 0.59235 0.0
C216 C 0.80396 0.94499 0.60734 0.0
C217 C 0.82858 0.87065 0.548 0.0
C218 C 0.83258 0.88492 0.63875 0.0
C219 C 0.87735 0.93636 0.59979 0.0
O220 O 0.87277 0.91373 0.59367 0.0
O221 O 0.86357 0.94644 0.60706 0.0
O222 O 0.84252 0.86339 0.56171 0.0
O223 O 0.82213 0.88833 0.55775 0.0
O224 O 0.95029 1.01471 0.23737 0.0
Cd225 Cd 0.93189 1.01608 0.26396 0.0
Cd226 Cd 0.96389 1.00059 0.28964 0.0
O227 O 0.97873 1.00968 0.26045 0.0
O228 O 0.91167 0.03413 0.25113 0.0
O229 O 0.93421 0.0468 0.28665 0.0
C230 C 0.91928 0.05008 0.27064 0.0
C231 C 0.98154 1.01542 0.33054 0.0
C232 C 0.96947 1.01336 0.24016 0.0
C233 C 0.91942 0.96761 0.2779 0.0
O234 O 0.93922 0.96936 0.28461 0.0
O235 O 0.91325 0.98486 0.27032 0.0
O236 O 0.98642 0.99851 0.31717 0.0
O237 O 0.96702 0.02456 0.32042 0.0
O238 O 0.34714 0.69304 0.66403 0.0
Cd239 Cd 0.34684 0.66923 0.6335 0.0
Cd240 Cd 0.34702 0.70528 0.60986 0.0
O241 O 0.34956 0.72367 0.6446 0.0
O242 O 0.35687 0.64199 0.6435 0.0
O243 O 0.3732 0.66668 0.62134 0.0
C244 C 0.37178 0.6477 0.63117 0.0
C245 C 0.36739 0.72389 0.58397 0.0
C246 C 0.34841 0.71507 0.66414 0.0
C247 C 0.30873 0.66362 0.59505 0.0
O248 O 0.31718 0.6847 0.5922 0.0
O249 O 0.31826 0.65393 0.61062 0.0
O250 O 0.35201 0.7315 0.59091 0.0
O251 O 0.37182 0.70575 0.59239 0.0
O252 O 0.45318 0.51343 0.74344 0.0
Cd253 Cd 0.43367 0.51121 0.76909 0.0
Cd254 Cd 0.46422 0.49209 0.79144 0.0
O255 O 0.47947 0.50153 0.76295 0.0
O256 O 0.41287 0.52885 0.75708 0.0
O257 O 0.43507 0.54099 0.79275 0.0
C258 C 0.42005 0.54438 0.77695 0.0
C259 C 0.48035 0.50822 0.8323 0.0
C260 C 0.4715 0.50953 0.74468 0.0
C261 C 0.41986 0.46052 0.77874 0.0
O262 O 0.43941 0.46122 0.78543 0.0
O263 O 0.41455 0.47879 0.77258 0.0
O264 O 0.48601 0.49116 0.82013 0.0
O265 O 0.46578 0.51659 0.82101 0.0
O266 O 0.66594 1.00819 0.78999 0.0
Cd267 Cd 0.69387 1.01047 0.81746 0.0
Cd268 Cd 0.65902 0.03829 0.84646 0.0
O269 O 0.64389 0.02587 0.8082 0.0
O270 O 0.71316 0.98942 0.80266 0.0
O271 O 0.69983 0.98126 0.83442 0.0
C272 C 0.71115 0.97553 0.81877 0.0
C273 C 0.63961 0.03939 0.88219 0.0
C274 C 0.64887 1.01575 0.78873 0.0
C275 C 0.70523 0.06734 0.83929 0.0
O276 O 0.68753 0.06525 0.84708 0.0
O277 O 0.71045 0.04867 0.82938 0.0
O278 O 0.63921 0.05376 0.86659 0.0
O279 O 0.65054 0.0241 0.87772 0.0
O280 O 0.78711 0.67465 0.0893 0.0
Cd281 Cd 0.78166 0.64759 0.0594 0.0
Cd282 Cd 0.76383 0.68328 0.03703 0.0
O283 O 0.77552 0.70272 0.07276 0.0
O284 O 0.79816 0.62494 0.07197 0.0
O285 O 0.80623 0.64396 0.04203 0.0
C286 C 0.81064 0.62973 0.05667 0.0
C287 C 0.77015 0.70204 1.00243 0.0
C288 C 0.78368 0.69533 0.09147 0.0
C289 C 0.73356 0.63503 0.03978 0.0
O290 O 0.73613 0.65568 0.03371 0.0
O291 O 0.74965 0.62804 0.04881 0.0
O292 O 0.75622 0.70628 0.0151 0.0
O293 O 0.78068 0.68719 1.00937 0.0
O294 O 0.92532 0.56412 0.7662 0.0
Cd295 Cd 0.90072 0.56477 0.78915 0.0
Cd296 Cd 0.94143 0.54491 0.82099 0.0
O297 O 0.95169 0.55207 0.78716 0.0
O298 O 0.87851 0.58324 0.77435 0.0
O299 O 0.8983 0.59712 0.81028 0.0
C300 C 0.88376 0.60001 0.79343 0.0
C301 C 0.96419 0.54827 0.86141 0.0
C302 C 0.94338 0.55846 0.76752 0.0
C303 C 0.89346 0.51277 0.80599 0.0
O304 O 0.91337 0.51752 0.81498 0.0
O305 O 0.88553 0.52867 0.79655 0.0
O306 O 0.96359 0.53236 0.84281 0.0
O307 O 0.95306 0.56331 0.857 0.0
O308 O 0.73454 0.39843 0.55228 0.0
Cd309 Cd 0.73501 0.40622 0.51703 0.0
Cd310 Cd 0.72761 0.36003 0.51069 0.0
O311 O 0.71382 0.36208 0.54066 0.0
O312 O 0.71312 0.42142 0.50108 0.0
O313 O 0.74449 0.44161 0.52326 0.0
C314 C 0.7267 0.4417 0.51013 0.0
C315 C 0.71241 0.33629 0.47327 0.0
C316 C 0.72308 0.37973 0.55758 0.0
C317 C 0.76921 0.38528 0.50636 0.0
O318 O 0.76049 0.36866 0.51675 0.0
O319 O 0.75876 0.39966 0.49946 0.0
O320 O 0.71328 0.35888 0.47647 0.0
O321 O 0.71824 0.32716 0.49211 0.0
O322 O 0.6457 0.54862 0.29653 0.0
Cd323 Cd 0.66695 0.55579 0.32929 0.0
Cd324 Cd 0.6391 0.5785 0.34483 0.0
O325 O 0.62166 0.56542 0.30926 0.0
O326 O 0.68729 0.53629 0.32278 0.0
O327 O 0.66714 0.53049 0.3506 0.0
C328 C 0.68139 0.52452 0.33946 0.0
C329 C 0.62735 0.56523 0.37924 0.0
C330 C 0.62805 0.55407 0.29212 0.0
C331 C 0.68231 0.60953 0.34605 0.0
O332 O 0.66359 0.60953 0.34944 0.0
O333 O 0.6867 0.58991 0.33916 0.0
O334 O 0.61972 0.58078 0.36898 0.0
O335 O 0.64149 0.55702 0.36976 0.0
Tb336 Tb 0.03084 0.01981 0.04986 0.0
Tb337 Tb 0.07473 0.04798 0.07024 0.0
C338 C 0.99304 0.99526 0.04194 0.0
C339 C 0.97364 1.00273 0.03423 0.0
C340 C 0.95657 0.99669 0.04633 0.0
C341 C 0.94166 1.01022 0.04622 0.0
C342 C 0.94382 0.02999 0.03408 0.0
C343 C 0.95934 0.034 0.01942 0.0
C344 C 0.97424 0.02051 0.01957 0.0
C345 C 0.05514 0.02634 0.01691 0.0
C346 C 0.03984 0.0744 0.04792 0.0
C347 C 0.11153 0.07469 0.07425 0.0
C348 C 0.13163 0.07037 0.06918 0.0
C349 C 0.1442 0.08591 0.05694 0.0
C350 C 0.16123 0.07973 0.04791 0.0
C351 C 0.16588 0.05795 0.05113 0.0
C352 C 0.15381 0.04302 0.06445 0.0
C353 C 0.13681 0.04912 0.07331 0.0
C354 C 0.0504 0.04192 0.10309 0.0
C355 C 0.06518 0.99378 0.07302 0.0
O356 O 1.0036 1.00617 0.06378 0.0
O357 O 1.0055 0.99446 0.02594 0.0
O358 O 0.06085 0.02195 0.03804 0.0
O359 O 0.03512 0.02581 0.01336 0.0
O360 O 0.02464 0.05453 0.04602 0.0
O361 O 0.06 0.07522 0.05644 0.0
O362 O 0.09661 0.07063 0.05477 0.0
O363 O 0.10434 0.06592 0.09255 0.0
O364 O 0.04493 0.04605 0.08187 0.0
O365 O 0.07056 0.04322 0.10728 0.0
O366 O 0.0805 1.01266 0.07179 0.0
O367 O 0.04487 0.99375 0.06704 0.0
H368 H 0.95598 0.98317 0.05788 0.0
H369 H 0.92993 1.00681 0.05781 0.0
H370 H 0.96117 0.04898 1.00971 0.0
H371 H 0.98735 0.02557 1.01013 0.0
H372 H 0.1402 0.10225 0.05333 0.0
H373 H 0.17022 0.0915 0.03765 0.0
H374 H 0.1566 0.02582 0.06672 0.0
H375 H 0.12707 0.03662 0.08227 0.0
Tb376 Tb 0.29835 0.78576 0.29153 0.0
Tb377 Tb 0.30044 0.8025 0.34395 0.0
C378 C 0.29064 0.78128 0.24577 0.0
C379 C 0.28398 0.79727 0.22953 0.0
C380 C 0.26243 0.7975 0.22392 0.0
C381 C 0.25624 0.81346 0.20975 0.0
C382 C 0.27139 0.82936 0.20066 0.0
C383 C 0.29288 0.82899 0.2059 0.0
C384 C 0.29913 0.81311 0.22026 0.0
C385 C 0.33132 0.77875 0.32072 0.0
C386 C 0.3159 0.84268 0.3137 0.0
C387 C 0.31166 0.80893 0.38964 0.0
C388 C 0.32483 0.79735 0.40506 0.0
C389 C 0.32531 0.77362 0.39745 0.0
C390 C 0.33874 0.76318 0.41159 0.0
C391 C 0.35211 0.77642 0.4334 0.0
C392 C 0.35228 0.80047 0.44044 0.0
C393 C 0.33871 0.81085 0.42636 0.0
C394 C 0.267 0.80899 0.3151 0.0
C395 C 0.28147 0.74573 0.32137 0.0
O396 O 0.27672 0.77202 0.25849 0.0
O397 O 0.30997 0.78868 0.25889 0.0
O398 O 0.32367 0.79663 0.32307 0.0
O399 O 0.32157 0.76497 0.3001 0.0
O400 O 0.3074 0.82563 0.29407 0.0
O401 O 0.31657 0.83715 0.33588 0.0
O402 O 0.32198 0.82149 0.37565 0.0
O403 O 0.29288 0.79586 0.37793 0.0
O404 O 0.27516 0.79156 0.31255 0.0
O405 O 0.27601 0.82216 0.33628 0.0
O406 O 0.29089 0.76258 0.34098 0.0
O407 O 0.28065 0.75136 0.29914 0.0
H408 H 0.25028 0.78534 0.23044 0.0
H409 H 0.2395 0.81292 0.20533 0.0
H410 H 0.30481 0.84101 0.1989 0.0
H411 H 0.31583 0.81332 0.22419 0.0
H412 H 0.31528 0.76307 0.38067 0.0
H413 H 0.33837 0.74462 0.40578 0.0
H414 H 0.36224 0.81095 0.45738 0.0
H415 H 0.33896 0.82937 0.43217 0.0
Tb416 Tb 0.57988 0.03756 0.57099 0.0
Tb417 Tb 0.53246 0.02909 0.58158 0.0
C418 C 0.61925 0.04097 0.57453 0.0
C419 C 0.63668 0.02958 0.58176 0.0
C420 C 0.6336 1.00462 0.57776 0.0
C421 C 0.6511 0.99462 0.58142 0.0
C422 C 0.67206 1.00937 0.58895 0.0
C423 C 0.67487 0.03429 0.59378 0.0
C424 C 0.65743 0.04422 0.59024 0.0
C425 C 0.55189 0.04204 0.53158 0.0
C426 C 0.54908 0.98448 0.56294 0.0
C427 C 0.49337 0.02735 0.57855 0.0
C428 C 0.47718 0.04088 0.57208 0.0
C429 C 0.46444 0.0361 0.54849 0.0
C430 C 0.44742 0.04664 0.54353 0.0
C431 C 0.44254 0.06214 0.56207 0.0
C432 C 0.45562 0.06725 0.5855 0.0
C433 C 0.4726 0.05678 0.59042 0.0
C434 C 0.56065 0.02427 0.62074 0.0
C435 C 0.56309 0.08219 0.58906 0.0
O436 O 0.61111 0.05104 0.5918 0.0
O437 O 0.60482 0.0299 0.55507 0.0
O438 O 0.54864 0.03703 0.55228 0.0
O439 O 0.57231 0.04538 0.53332 0.0
O440 O 0.5688 0.99855 0.56695 0.0
O441 O 0.53219 0.99279 0.56548 0.0
O442 O 0.5011 1.01709 0.56097 0.0
O443 O 0.50791 0.03662 0.5984 0.0
O444 O 0.56371 0.02986 0.60022 0.0
O445 O 0.54019 0.02051 0.61905 0.0
O446 O 0.54343 0.06808 0.58522 0.0
O447 O 0.58001 0.0739 0.58683 0.0
H448 H 0.61777 0.99287 0.57107 0.0
H449 H 0.6483 0.97537 0.57744 0.0
H450 H 0.69067 0.04622 0.60002 0.0
H451 H 0.66025 0.0635 0.59337 0.0
H452 H 0.46727 0.02371 0.53399 0.0
H453 H 0.43795 0.04242 0.52517 0.0
H454 H 0.45228 0.07868 0.60044 0.0
H455 H 0.48173 0.06061 0.60894 0.0
Tb456 Tb 0.27464 0.28536 0.80715 0.0
Tb457 Tb 0.32147 0.28351 0.81805 0.0
C458 C 0.235 0.27971 0.80497 0.0
C459 C 0.21771 0.27976 0.81919 0.0
C460 C 0.19774 0.28053 0.80679 0.0
C461 C 0.18055 0.27957 0.81893 0.0
C462 C 0.1828 0.27793 0.844 0.0
C463 C 0.20297 0.27723 0.85649 0.0
C464 C 0.22025 0.27811 0.84421 0.0
C465 C 0.30329 0.322 0.79924 0.0
C466 C 0.30199 0.30132 0.86216 0.0
C467 C 0.36096 0.28906 0.81948 0.0
C468 C 0.37776 0.29104 0.80419 0.0
C469 C 0.3909 0.31359 0.80343 0.0
C470 C 0.4088 0.3156 0.79229 0.0
C471 C 0.41417 0.29511 0.78169 0.0
C472 C 0.40061 0.27257 0.78177 0.0
C473 C 0.38272 0.27055 0.79293 0.0
C474 C 0.29317 0.24695 0.82649 0.0
C475 C 0.29445 0.26842 0.76298 0.0
O476 O 0.24453 0.26242 0.80583 0.0
O477 O 0.24827 0.30022 0.80485 0.0
O478 O 0.30502 0.31053 0.81649 0.0
O479 O 0.28427 0.31395 0.78599 0.0
O480 O 0.28289 0.29344 0.84762 0.0
O481 O 0.31982 0.30164 0.8538 0.0
O482 O 0.35194 0.30676 0.82233 0.0
O483 O 0.34739 0.26823 0.81753 0.0
O484 O 0.29108 0.25816 0.80899 0.0
O485 O 0.31238 0.25503 0.83923 0.0
O486 O 0.31342 0.27686 0.77765 0.0
O487 O 0.27648 0.26714 0.77135 0.0
H488 H 0.19531 0.28154 0.78744 0.0
H489 H 0.16531 0.27962 0.80842 0.0
H490 H 0.20547 0.27616 0.87581 0.0
H491 H 0.23549 0.2774 0.85419 0.0
H492 H 0.38775 0.32974 0.81217 0.0
H493 H 0.41865 0.33326 0.79235 0.0
H494 H 0.4043 0.25635 0.7741 0.0
H495 H 0.37321 0.25287 0.79347 0.0
Tb496 Tb 0.05591 0.06051 0.56769 0.0
Tb497 Tb 0.05085 1.00851 0.55433 0.0
C498 C 0.06543 0.10477 0.5688 0.0
C499 C 0.0648 0.1191 0.54928 0.0
C500 C 0.08064 0.14034 0.55145 0.0
C501 C 0.08052 0.15378 0.53265 0.0
C502 C 0.06458 0.14607 0.51137 0.0
C503 C 0.04901 0.12447 0.50905 0.0
C504 C 0.04908 0.11113 0.52788 0.0
C505 C 0.0207 0.03331 0.57654 0.0
C506 C 0.0378 0.03384 0.51177 0.0
C507 C 0.04039 0.96416 0.55249 0.0
C508 C 0.03606 0.94944 0.57119 0.0
C509 C 0.02939 0.95845 0.59234 0.0
C510 C 0.02779 0.94544 0.61142 0.0
C511 C 0.03271 0.92322 0.6095 0.0
C512 C 0.03848 0.91386 0.58783 0.0
C513 C 0.04018 0.92693 0.56884 0.0
C514 C 0.08636 0.03575 0.54581 0.0
C515 C 0.06832 0.03501 0.61015 0.0
O516 O 0.07937 0.09206 0.56888 0.0
O517 O 0.04697 0.0927 0.57218 0.0
O518 O 0.0291 0.0299 0.55806 0.0
O519 O 0.03152 0.05334 0.59041 0.0
O520 O 0.0473 0.05413 0.52718 0.0
O521 O 0.03535 1.01304 0.51911 0.0
O522 O 0.02673 0.97665 0.54713 0.0
O523 O 0.06017 0.97663 0.55522 0.0
O524 O 0.0777 0.03911 0.56408 0.0
O525 O 0.07571 1.01555 0.53211 0.0
O526 O 0.05772 1.01495 0.5949 0.0
O527 O 0.07226 0.0557 0.60247 0.0
H528 H 0.09301 0.14659 0.56774 0.0
H529 H 0.09254 0.17055 0.53509 0.0
H530 H 0.03666 0.118 0.49277 0.0
H531 H 0.03677 0.09467 0.52572 0.0
H532 H 0.02601 0.97581 0.59441 0.0
H533 H 0.02322 0.95298 0.62787 0.0
H534 H 0.0427 0.89695 0.58602 0.0
H535 H 0.04543 0.91982 0.55268 0.0
Tb536 Tb 0.30853 0.7608 0.83821 0.0
Tb537 Tb 0.31237 0.81312 0.85884 0.0
C538 C 0.30488 0.72225 0.8101 0.0
C539 C 0.31879 0.70661 0.80518 0.0
C540 C 0.34099 0.71475 0.81275 0.0
C541 C 0.35379 0.69888 0.80998 0.0
C542 C 0.3445 0.67465 0.7998 0.0
C543 C 0.32231 0.66685 0.79154 0.0
C544 C 0.30958 0.68271 0.79424 0.0
C545 C 0.30018 0.76881 0.88247 0.0
C546 C 0.35237 0.79063 0.87002 0.0
C547 C 0.3148 0.85275 0.88427 0.0
C548 C 0.29974 0.86776 0.88627 0.0
C549 C 0.2778 0.85756 0.884 0.0
C550 C 0.26351 0.87199 0.88334 0.0
C551 C 0.27086 0.89688 0.88473 0.0
C552 C 0.29294 0.90699 0.8877 0.0
C553 C 0.30719 0.89258 0.88851 0.0
C554 C 0.32039 0.80374 0.81475 0.0
C555 C 0.26842 0.78328 0.828 0.0
O556 O 0.30969 0.74324 0.80349 0.0
O557 O 0.29998 0.72342 0.8319 0.0
O558 O 0.29593 0.7793 0.86497 0.0
O559 O 0.3077 0.7512 0.87448 0.0
O560 O 0.34235 0.7714 0.85338 0.0
O561 O 0.34287 0.80763 0.8766 0.0
O562 O 0.31032 0.83243 0.89231 0.0
O563 O 0.32112 0.85052 0.86324 0.0
O564 O 0.32532 0.79454 0.83286 0.0
O565 O 0.31081 0.82007 0.82082 0.0
O566 O 0.27844 0.80217 0.84493 0.0
O567 O 0.27794 0.7665 0.82091 0.0
H568 H 0.34835 0.73319 0.82125 0.0
H569 H 0.37083 0.70537 0.81655 0.0
H570 H 0.31476 0.64839 0.78323 0.0
H571 H 0.29247 0.67619 0.78827 0.0
H572 H 0.27163 0.8384 0.88216 0.0
H573 H 0.24668 0.86358 0.88136 0.0
H574 H 0.29921 0.92597 0.88841 0.0
H575 H 0.32403 0.90077 0.89007 0.0
Tb576 Tb 0.52076 0.03311 0.05788 0.0
Tb577 Tb 0.56223 0.06084 0.0917 0.0
C578 C 0.49004 0.99853 0.03688 0.0
C579 C 0.46812 0.98593 0.03786 0.0
C580 C 0.46359 0.96139 0.03863 0.0
C581 C 0.4427 0.9482 0.0372 0.0
C582 C 0.42587 0.95928 0.03479 0.0
C583 C 0.4305 0.98403 0.03467 0.0
C584 C 0.45146 0.99727 0.0362 0.0
C585 C 0.52711 0.07983 0.06449 0.0
C586 C 0.52049 0.04836 0.11628 0.0
C587 C 0.59549 0.09108 0.11448 0.0
C588 C 0.61847 0.09375 0.11719 0.0
C589 C 0.62734 0.08434 0.09813 0.0
C590 C 0.64923 0.08635 0.10163 0.0
C591 C 0.66251 0.0976 0.12432 0.0
C592 C 0.6534 0.10664 0.14341 0.0
C593 C 0.63159 0.10479 0.13982 0.0
C594 C 0.55628 1.01367 0.08263 0.0
C595 C 0.56188 0.04843 0.03279 0.0
O596 O 0.505 0.99707 0.05452 0.0
O597 O 0.49333 0.01974 0.03055 0.0
O598 O 0.53249 0.06748 0.07979 0.0
O599 O 0.51479 0.06543 0.04535 0.0
O600 O 0.51064 0.03408 0.09483 0.0
O601 O 0.54005 0.0624 0.11801 0.0
O602 O 0.58528 0.09274 0.09302 0.0
O603 O 0.58531 0.0734 0.12374 0.0
O604 O 0.55087 0.02719 0.06885 0.0
O605 O 0.56799 0.02753 0.10229 0.0
O606 O 0.57195 0.06151 0.05476 0.0
O607 O 0.54212 0.03459 0.03039 0.0
H608 H 0.47622 0.95229 0.03982 0.0
H609 H 0.4397 0.92926 0.03772 0.0
H610 H 0.41786 0.99304 0.03259 0.0
H611 H 0.45452 1.01617 0.03548 0.0
H612 H 0.61737 0.07544 0.0806 0.0
H613 H 0.65579 0.07943 0.08648 0.0
H614 H 0.66311 0.11502 0.16122 0.0
H615 H 0.62491 0.1118 0.15484 0.0
Tb616 Tb 0.27726 0.27637 0.30374 0.0
Tb617 Tb 0.31907 0.30876 0.32516 0.0
C618 C 0.23861 0.2558 0.30024 0.0
C619 C 0.21966 0.26509 0.30085 0.0
C620 C 0.2212 0.28691 0.31593 0.0
C621 C 0.20335 0.29577 0.31661 0.0
C622 C 0.18345 0.28266 0.30281 0.0
C623 C 0.18178 0.26076 0.2878 0.0
C624 C 0.19985 0.25216 0.28663 0.0
C625 C 0.29777 0.2941 0.27075 0.0
C626 C 0.28098 0.33416 0.31976 0.0
C627 C 0.35772 0.33103 0.33166 0.0
C628 C 0.37692 0.32351 0.32758 0.0
C629 C 0.37543 0.30418 0.3091 0.0
C630 C 0.39349 0.29673 0.30538 0.0
C631 C 0.41359 0.30879 0.31966 0.0
C632 C 0.41506 0.32827 0.33817 0.0
C633 C 0.39682 0.33549 0.34215 0.0
C634 C 0.29818 0.29017 0.35778 0.0
C635 C 0.3155 0.25152 0.30655 0.0
O636 O 0.25255 0.26127 0.3208 0.0
O637 O 0.24763 0.2584 0.28117 0.0
O638 O 0.2974 0.30493 0.29169 0.0
O639 O 0.28536 0.27257 0.2673 0.0
O640 O 0.26891 0.31177 0.31184 0.0
O641 O 0.30203 0.33768 0.32579 0.0
O642 O 0.34378 0.32958 0.31186 0.0
O643 O 0.34873 0.32271 0.34906 0.0
O644 O 0.29914 0.2798 0.33692 0.0
O645 O 0.30987 0.31201 0.36123 0.0
O646 O 0.32756 0.27414 0.31255 0.0
O647 O 0.2944 0.24766 0.30364 0.0
H648 H 0.23607 0.29697 0.32768 0.0
H649 H 0.20494 0.31243 0.32872 0.0
H650 H 0.16649 0.25028 0.27716 0.0
H651 H 0.1983 0.23526 0.27498 0.0
H652 H 0.36032 0.29483 0.29737 0.0
H653 H 0.39161 0.28142 0.29126 0.0
H654 H 0.43032 0.33818 0.3493 0.0
H655 H 0.39826 0.35052 0.35645 0.0
Tb656 Tb 0.55219 0.56543 0.06979 0.0
Tb657 Tb 0.54892 0.51415 0.05893 0.0
C658 C 0.56004 0.60945 0.06951 0.0
C659 C 0.55263 0.62434 0.05265 0.0
C660 C 0.5675 0.63876 0.04189 0.0
C661 C 0.56098 0.65305 0.02584 0.0
C662 C 0.53947 0.65332 0.0204 0.0
C663 C 0.52451 0.63877 0.03102 0.0
C664 C 0.53101 0.62425 0.04692 0.0
C665 C 0.51656 0.5379 0.07749 0.0
C666 C 0.5345 0.53652 0.0145 0.0
C667 C 0.54025 0.47059 0.06121 0.0
C668 C 0.53736 0.45807 0.08214 0.0
C669 C 0.51675 0.44731 0.08547 0.0
C670 C 0.51389 0.4358 0.10547 0.0
C671 C 0.53159 0.43471 0.12244 0.0
C672 C 0.55215 0.44596 0.11938 0.0
C673 C 0.55501 0.4575 0.09947 0.0
C674 C 0.58447 0.54168 0.05087 0.0
C675 C 0.56539 0.5425 0.11364 0.0
O676 O 0.57159 0.5959 0.06118 0.0
O677 O 0.54616 0.59836 0.08128 0.0
O678 O 0.52589 0.53425 0.0599 0.0
O679 O 0.52659 0.55836 0.09096 0.0
O680 O 0.54204 0.55749 0.02939 0.0
O681 O 0.53388 0.51624 0.0226 0.0
O682 O 0.52576 0.48176 0.05473 0.0
O683 O 0.55953 0.48325 0.06127 0.0
O684 O 0.57534 0.54542 0.06872 0.0
O685 O 0.57425 0.52115 0.03749 0.0
O686 O 0.55441 0.52218 0.09926 0.0
O687 O 0.56994 0.56236 0.10456 0.0
H688 H 0.58423 0.63911 0.04606 0.0
H689 H 0.5729 0.66445 0.01823 0.0
H690 H 0.50784 0.63872 0.02708 0.0
H691 H 0.51914 0.61313 0.05481 0.0
H692 H 0.50283 0.44769 0.07254 0.0
H693 H 0.49785 0.42743 0.10743 0.0
H694 H 0.56615 0.44505 0.13182 0.0
H695 H 0.5711 0.46571 0.09758 0.0
Tb696 Tb 0.79304 0.26011 0.30702 0.0
Tb697 Tb 0.80026 0.3123 0.33167 0.0
C698 C 0.79492 0.22012 0.2858 0.0
C699 C 0.8107 0.20601 0.28507 0.0
C700 C 0.82744 0.20904 0.30503 0.0
C701 C 0.84127 0.19411 0.30476 0.0
C702 C 0.83833 0.17574 0.28467 0.0
C703 C 0.82182 0.17307 0.26454 0.0
C704 C 0.80818 0.18817 0.26471 0.0
C705 C 0.77413 0.2669 0.34436 0.0
C706 C 0.83666 0.28789 0.34375 0.0
C707 C 0.79906 0.35176 0.35483 0.0
C708 C 0.78372 0.36587 0.35847 0.0
C709 C 0.76182 0.35615 0.3499 0.0
C710 C 0.74773 0.37068 0.35136 0.0
C711 C 0.75533 0.39511 0.36175 0.0
C712 C 0.77733 0.40452 0.37083 0.0
C713 C 0.79135 0.39002 0.36917 0.0
C714 C 0.81891 0.30575 0.29397 0.0
C715 C 0.75692 0.28457 0.29423 0.0
O716 O 0.79826 0.23943 0.27595 0.0
O717 O 0.78858 0.2235 0.30669 0.0
O718 O 0.79243 0.27832 0.34245 0.0
O719 O 0.7664 0.24997 0.32556 0.0
O720 O 0.82649 0.27022 0.32542 0.0
O721 O 0.82782 0.30469 0.35211 0.0
O722 O 0.79683 0.33215 0.36418 0.0
O723 O 0.80317 0.34883 0.33268 0.0
O724 O 0.8008 0.29417 0.29628 0.0
O725 O 0.82661 0.32284 0.31265 0.0
O726 O 0.76681 0.30192 0.31306 0.0
O727 O 0.76602 0.26806 0.28567 0.0
H728 H 0.82952 0.22258 0.32102 0.0
H729 H 0.85387 0.19648 0.32049 0.0
H730 H 0.81937 0.15916 0.24877 0.0
H731 H 0.79535 0.18557 0.24916 0.0
H732 H 0.75574 0.33747 0.34183 0.0
H733 H 0.7309 0.36275 0.34437 0.0
H734 H 0.78389 0.42332 0.37839 0.0
H735 H 0.80828 0.39785 0.37568 0.0
Tb736 Tb 0.01836 0.5396 0.55564 0.0
Tb737 Tb 0.06086 0.55842 0.59099 0.0
C738 C 0.98532 0.51027 0.53119 0.0
C739 C 0.96291 0.49871 0.53042 0.0
C740 C 0.95506 0.49467 0.55181 0.0
C741 C 0.93456 0.48007 0.55011 0.0
C742 C 0.92183 0.46928 0.52702 0.0
C743 C 0.92952 0.47424 0.50574 0.0
C744 C 0.94991 0.48883 0.50746 0.0
C745 C 0.0297 0.58599 0.57154 0.0
C746 C 0.01904 0.54671 0.61534 0.0
C747 C 0.09615 0.58553 0.61194 0.0
C748 C 0.11724 0.59108 0.60513 0.0
C749 C 0.11998 0.59906 0.58295 0.0
C750 C 0.14007 0.60439 0.57676 0.0
C751 C 0.15778 0.60187 0.59263 0.0
C752 C 0.15496 0.59348 0.61459 0.0
C753 C 0.13485 0.5882 0.62081 0.0
C754 C 0.04944 0.51207 0.5754 0.0
C755 C 0.0602 0.55268 0.53146 0.0
O756 O 0.9992 0.50475 0.54735 0.0
O757 O 0.99046 0.53286 0.52894 0.0
O758 O 0.03298 0.56966 0.58267 0.0
O759 O 1.01712 0.57625 0.55056 0.0
O760 O 1.00813 0.53705 0.59244 0.0
O761 O 0.03985 0.55753 0.61878 0.0
O762 O 0.08139 0.59264 0.59864 0.0
O763 O 0.08924 0.56388 0.61646 0.0
O764 O 0.04646 0.52825 0.56373 0.0
O765 O 0.06112 0.52202 0.5968 0.0
O766 O 0.07103 0.56129 0.55444 0.0
O767 O 0.03935 0.54223 0.52777 0.0
H768 H 0.965 0.50205 0.56972 0.0
H769 H 0.92898 0.47653 0.56679 0.0
H770 H 0.91987 0.46657 0.48773 0.0
H771 H 0.95581 0.49171 0.49078 0.0
H772 H 0.10668 0.60146 0.57042 0.0
H773 H 0.14183 0.61111 0.55989 0.0
H774 H 0.16833 0.59109 0.62703 0.0
H775 H 0.13305 0.58193 0.63791 0.0
Tb776 Tb 0.77606 0.79315 0.31115 0.0
Tb777 Tb 0.82265 0.79017 0.3216 0.0
C778 C 0.73674 0.78853 0.31048 0.0
C779 C 0.72023 0.78678 0.32618 0.0
C780 C 0.7136 0.76645 0.33684 0.0
C781 C 0.69612 0.76394 0.34883 0.0
C782 C 0.68476 0.78163 0.35046 0.0
C783 C 0.69178 0.80216 0.34026 0.0
C784 C 0.70919 0.80464 0.32826 0.0
C785 C 0.80503 0.82915 0.30274 0.0
C786 C 0.80378 0.80798 0.36607 0.0
C787 C 0.86195 0.7949 0.32234 0.0
C788 C 0.87834 0.79675 0.30649 0.0
C789 C 0.89089 0.81927 0.3046 0.0
C790 C 0.90839 0.8212 0.29278 0.0
C791 C 0.91392 0.80067 0.28256 0.0
C792 C 0.90094 0.77813 0.28378 0.0
C793 C 0.88347 0.7762 0.29566 0.0
C794 C 0.79378 0.75433 0.3304 0.0
C795 C 0.79519 0.77564 0.26661 0.0
O796 O 0.74534 0.77056 0.30692 0.0
O797 O 0.75061 0.80921 0.31268 0.0
O798 O 0.80676 0.81772 0.32003 0.0
O799 O 0.78582 0.82157 0.28988 0.0
O800 O 0.78461 0.80007 0.35166 0.0
O801 O 0.82152 0.80847 0.35747 0.0
O802 O 0.85334 0.81288 0.32589 0.0
O803 O 0.84811 0.77423 0.32029 0.0
O804 O 0.79196 0.7656 0.31296 0.0
O805 O 0.81308 0.76188 0.34301 0.0
O806 O 0.81425 0.78338 0.2812 0.0
O807 O 0.77734 0.77518 0.27503 0.0
H808 H 0.72159 0.75221 0.33548 0.0
H809 H 0.69143 0.74804 0.35673 0.0
H810 H 0.68336 0.81603 0.34077 0.0
H811 H 0.71363 0.82031 0.31991 0.0
H812 H 0.8876 0.8355 0.31295 0.0
H813 H 0.91781 0.83884 0.29197 0.0
H814 H 0.90478 0.7619 0.27645 0.0
H815 H 0.87442 0.75856 0.29706 0.0
Tb816 Tb 0.80394 0.28148 0.79611 0.0
Tb817 Tb 0.80344 0.29753 0.85048 0.0
C818 C 0.79297 0.26837 0.75062 0.0
C819 C 0.78517 0.28089 0.73126 0.0
C820 C 0.76355 0.28091 0.72614 0.0
C821 C 0.75652 0.29469 0.70977 0.0
C822 C 0.77088 0.30845 0.69784 0.0
C823 C 0.79234 0.30781 0.70221 0.0
C824 C 0.79943 0.29417 0.71879 0.0
C825 C 0.83907 0.28316 0.82761 0.0
C826 C 0.81945 0.33736 0.81783 0.0
C827 C 0.81838 0.30785 0.89537 0.0
C828 C 0.82847 0.29495 0.91229 0.0
C829 C 0.82743 0.27074 0.905 0.0
C830 C 0.83671 0.25829 0.92124 0.0
C831 C 0.84715 0.26987 0.94506 0.0
C832 C 0.84873 0.29439 0.95197 0.0
C833 C 0.83946 0.30683 0.93565 0.0
C834 C 0.76981 0.30474 0.82205 0.0
C835 C 0.78405 0.24144 0.82741 0.0
O836 O 0.78029 0.26276 0.76601 0.0
O837 O 0.81288 0.27701 0.76177 0.0
O838 O 0.8201 0.27665 0.83054 0.0
O839 O 0.83873 0.28716 0.80539 0.0
O840 O 0.81075 0.32076 0.79788 0.0
O841 O 0.82037 0.3314 0.84006 0.0
O842 O 0.82934 0.31467 0.8787 0.0
O843 O 0.79802 0.29827 0.88632 0.0
O844 O 0.78475 0.29653 0.81634 0.0
O845 O 0.77369 0.30987 0.84585 0.0
O846 O 0.78936 0.25846 0.84737 0.0
O847 O 0.78827 0.24656 0.80582 0.0
H848 H 0.75209 0.27054 0.73506 0.0
H849 H 0.7398 0.29444 0.70627 0.0
H850 H 0.80371 0.31822 0.69317 0.0
H851 H 0.81615 0.29441 0.72219 0.0
H852 H 0.81917 0.26138 0.88689 0.0
H853 H 0.83535 0.23949 0.91532 0.0
H854 H 0.85635 0.30374 0.97031 0.0
H855 H 0.84052 0.32559 0.94143 0.0
Tb856 Tb 0.77439 0.77058 0.80604 0.0
Tb857 Tb 0.81992 0.80457 0.82354 0.0
C858 C 0.73803 0.74405 0.8033 0.0
C859 C 0.71735 0.74992 0.79923 0.0
C860 C 0.70085 0.73839 0.80996 0.0
C861 C 0.68325 0.74772 0.81157 0.0
C862 C 0.682 0.76886 0.80263 0.0
C863 C 0.69793 0.77945 0.79046 0.0
C864 C 0.71547 0.77009 0.78882 0.0
C865 C 0.7905 0.79309 0.77275 0.0
C866 C 0.77907 0.8278 0.81936 0.0
C867 C 0.85627 0.83038 0.82351 0.0
C868 C 0.87479 0.8261 0.81377 0.0
C869 C 0.87339 0.80424 0.79897 0.0
C870 C 0.89176 0.79866 0.7931 0.0
C871 C 0.91186 0.81489 0.8019 0.0
C872 C 0.91301 0.83722 0.8158 0.0
C873 C 0.89462 0.84272 0.82175 0.0
C874 C 0.80343 0.7892 0.86133 0.0
C875 C 0.81512 0.74723 0.80917 0.0
O876 O 0.75044 0.75551 0.82408 0.0
O877 O 0.7482 0.7441 0.78485 0.0
O878 O 0.80076 0.78507 0.78932 0.0
O879 O 0.77038 0.78658 0.77332 0.0
O880 O 0.76635 0.80557 0.81528 0.0
O881 O 0.80028 0.83135 0.82234 0.0
O882 O 0.83928 0.8297 0.80748 0.0
O883 O 0.85167 0.81868 0.84113 0.0
O884 O 0.7955 0.78552 0.83892 0.0
O885 O 0.82186 0.80411 0.86352 0.0
O886 O 0.82784 0.76952 0.81391 0.0
O887 O 0.79391 0.74363 0.80647 0.0
H888 H 0.7022 0.72308 0.81848 0.0
H889 H 0.67138 0.7393 0.82131 0.0
H890 H 0.69731 0.79559 0.78319 0.0
H891 H 0.72816 0.77946 0.7807 0.0
H892 H 0.85821 0.79112 0.79274 0.0
H893 H 0.8903 0.78123 0.78256 0.0
H894 H 0.92819 0.85027 0.8225 0.0
H895 H 0.89598 0.85964 0.83329 0.0
Tb896 Tb 0.54449 0.5212 0.55933 0.0
Tb897 Tb 0.58694 0.5497 0.58572 0.0
C898 C 0.5047 0.50638 0.54758 0.0
C899 C 0.48903 0.51741 0.55696 0.0
C900 C 0.49619 0.53667 0.57657 0.0
C901 C 0.48194 0.54792 0.5858 0.0
C902 C 0.46004 0.53986 0.57595 0.0
C903 C 0.45278 0.52022 0.55647 0.0
C904 C 0.46725 0.5091 0.54697 0.0
C905 C 0.574 0.52288 0.53161 0.0
C906 C 0.55801 0.57689 0.55994 0.0
C907 C 0.62627 0.56835 0.59994 0.0
C908 C 0.64339 0.57663 0.58677 0.0
C909 C 0.63933 0.57072 0.56119 0.0
C910 C 0.65604 0.57095 0.54863 0.0
C911 C 0.67714 0.57696 0.56168 0.0
C912 C 0.68125 0.58643 0.58694 0.0
C913 C 0.66439 0.58592 0.5995 0.0
C914 C 0.55675 0.54728 0.6126 0.0
C915 C 0.57422 0.49247 0.58333 0.0
O916 O 0.51623 0.49857 0.56414 0.0
O917 O 0.51637 0.51879 0.53446 0.0
O918 O 0.57257 0.5394 0.54764 0.0
O919 O 0.5576 0.50493 0.52975 0.0
O920 O 0.54254 0.55897 0.56278 0.0
O921 O 0.57772 0.57471 0.56325 0.0
O922 O 0.61195 0.58051 0.60044 0.0
O923 O 0.61764 0.54532 0.59443 0.0
O924 O 0.55907 0.53125 0.59692 0.0
O925 O 0.57321 0.56523 0.61555 0.0
O926 O 0.58949 0.5128 0.588 0.0
O927 O 0.55456 0.49163 0.57292 0.0
H928 H 0.51291 0.54312 0.58479 0.0
H929 H 0.48825 0.56326 0.6004 0.0
H930 H 0.43597 0.51341 0.54865 0.0
H931 H 0.46147 0.49409 0.53193 0.0
H932 H 0.6232 0.56328 0.55134 0.0
H933 H 0.65214 0.56349 0.52925 0.0
H934 H 0.69738 0.5917 0.5974 0.0
H935 H 0.66778 0.59074 0.61931 0.0
Tb936 Tb 0.07562 0.54088 0.07174 0.0
Tb937 Tb 0.03286 0.53237 0.0817 0.0
C938 C 0.11416 0.5427 0.06942 0.0
C939 C 0.1314 0.53032 0.07321 0.0
C940 C 0.12757 0.50528 0.06886 0.0
C941 C 0.14471 0.49454 0.07094 0.0
C942 C 0.16598 0.50864 0.07722 0.0
C943 C 0.16955 0.53366 0.08207 0.0
C944 C 0.15251 0.5443 0.08009 0.0
C945 C 0.04738 0.54714 0.03433 0.0
C946 C 0.04737 0.48747 0.06348 0.0
C947 C 0.99446 0.53123 0.08455 0.0
C948 C 0.97713 0.54324 0.07873 0.0
C949 C 0.95608 0.52907 0.07147 0.0
C950 C 0.93899 0.53947 0.06724 0.0
C951 C 0.94237 0.56448 0.07007 0.0
C952 C 0.9636 0.57872 0.07709 0.0
C953 C 0.98077 0.56823 0.08138 0.0
C954 C 0.06134 0.52573 0.11886 0.0
C955 C 0.06051 0.58586 0.08782 0.0
O956 O 0.10803 0.55171 0.08883 0.0
O957 O 0.09817 0.5333 0.05115 0.0
O958 O 0.04431 0.53114 0.04764 0.0
O959 O 0.06701 0.55945 0.04149 0.0
O960 O 0.06682 0.50184 0.07004 0.0
O961 O 0.03059 0.49619 0.06375 0.0
O962 O 1.00015 0.51975 0.06616 0.0
O963 O 1.01083 0.54239 0.10184 0.0
O964 O 0.06417 0.54201 0.10584 0.0
O965 O 0.04173 0.51337 0.11163 0.0
O966 O 0.04122 0.57112 0.08165 0.0
O967 O 0.07748 0.57743 0.08824 0.0
H968 H 0.11142 0.49406 0.06348 0.0
H969 H 0.14132 0.47524 0.067 0.0
H970 H 0.18561 0.54512 0.08741 0.0
H971 H 0.15589 0.56364 0.08357 0.0
H972 H 0.95279 0.50979 0.06949 0.0
H973 H 0.923 0.52781 0.06235 0.0
H974 H 0.96698 0.598 0.07922 0.0
H975 H 0.99683 0.57964 0.08698 0.0
C976 C 1.01534 0.19831 0.01369 0.0
C977 C 1.01669 0.19909 0.98898 0.0
C978 C 0.01775 0.17821 0.0244 0.0
C979 C 0.02168 0.15822 1.01023 0.0
C980 C 0.02275 0.15879 0.98523 0.0
C981 C 0.02025 0.17903 0.975 0.0
C982 C 1.01642 0.17853 0.05106 0.0
C983 C 0.02689 0.13809 0.96926 0.0
C984 C 0.05107 0.11693 0.04072 0.0
C985 C 0.03465 0.09632 0.03989 0.0
C986 C 0.04696 0.13721 0.0318 0.0
C987 C 0.02585 0.13726 0.02164 0.0
C988 C 1.00908 0.11676 0.02128 0.0
C989 C 1.01366 0.09662 0.03033 0.0
C990 C 0.06543 0.15846 0.03269 0.0
C991 C 0.9863 0.11591 1.0109 0.0
H992 H 1.01254 0.21351 0.02478 0.0
H993 H 0.0213 0.17915 0.95592 0.0
H994 H 1.00424 0.16257 0.05306 0.0
H995 H 0.0319 0.17769 0.06153 0.0
H996 H 1.01235 0.19482 0.05937 0.0
H997 H 0.02646 0.14078 0.94996 0.0
H998 H 0.04275 0.13564 0.97661 0.0
H999 H 1.01487 0.12132 0.96947 0.0
H1000 H 0.06737 0.11714 0.048 0.0
H1001 H 1.00077 0.08096 0.02957 0.0
H1002 H 0.06248 0.17492 0.04221 0.0
H1003 H 0.06701 0.16115 0.01377 0.0
H1004 H 0.08075 0.15621 0.04223 0.0
H1005 H 0.98158 0.13091 0.02093 0.0
H1006 H 0.97504 0.09885 0.01206 0.0
H1007 H 0.98475 0.11811 0.99141 0.0
C1008 C 0.14999 0.80953 0.24923 0.0
C1009 C 0.14906 0.81865 0.22722 0.0
C1010 C 0.16952 0.8089 0.26325 0.0
C1011 C 0.1889 0.81777 0.25539 0.0
C1012 C 0.18815 0.8277 0.23356 0.0
C1013 C 0.16834 0.82791 0.21978 0.0
C1014 C 0.16936 0.7982 0.28632 0.0
C1015 C 0.20799 0.83822 0.22424 0.0
C1016 C 0.24021 0.83214 0.30378 0.0
C1017 C 0.2475 0.81152 0.29918 0.0
C1018 C 0.22155 0.83467 0.28936 0.0
C1019 C 0.20965 0.81608 0.26989 0.0
C1020 C 0.21729 0.7955 0.26478 0.0
C1021 C 0.23601 0.79343 0.27948 0.0
C1022 C 0.21455 0.8573 0.29489 0.0
C1023 C 0.20564 0.77565 0.24368 0.0
H1024 H 0.13532 0.80222 0.25527 0.0
H1025 H 0.16803 0.83514 0.20292 0.0
H1026 H 0.17606 0.78242 0.28452 0.0
H1027 H 0.17961 0.81137 0.3022 0.0
H1028 H 0.15308 0.79253 0.29031 0.0
H1029 H 0.20967 0.85764 0.22476 0.0
H1030 H 0.22277 0.83587 0.2349 0.0
H1031 H 0.20635 0.83005 0.20475 0.0
H1032 H 0.2491 0.84636 0.31876 0.0
H1033 H 0.24151 0.77747 0.27571 0.0
H1034 H 0.19845 0.85301 0.29957 0.0
H1035 H 0.21344 0.86584 0.27836 0.0
H1036 H 0.22569 0.87033 0.31031 0.0
H1037 H 0.18904 0.76841 0.24605 0.0
H1038 H 0.21352 0.76079 0.24203 0.0
H1039 H 0.2048 0.78284 0.22629 0.0
C1040 C 0.52513 0.85336 0.48674 0.0
C1041 C 0.52943 0.83537 0.4996 0.0
C1042 C 0.52821 0.87698 0.49866 0.0
C1043 C 0.53558 0.88309 0.52433 0.0
C1044 C 0.53958 0.86502 0.53763 0.0
C1045 C 0.53659 0.84144 0.52512 0.0
C1046 C 0.52393 0.89554 0.48358 0.0
C1047 C 0.5472 0.87067 0.56504 0.0
C1048 C 0.56268 0.94933 0.54789 0.0
C1049 C 0.54593 0.9582 0.55486 0.0
C1050 C 0.55975 0.92488 0.53882 0.0
C1051 C 0.53961 0.9086 0.53681 0.0
C1052 C 0.52286 0.91726 0.54466 0.0
C1053 C 0.52616 0.94188 0.55341 0.0
C1054 C 0.57803 0.91665 0.53045 0.0
C1055 C 0.50121 0.90058 0.54315 0.0
H1056 H 0.51965 0.84913 0.46704 0.0
H1057 H 0.53995 0.82782 0.53532 0.0
H1058 H 0.51189 0.90387 0.49036 0.0
H1059 H 0.53873 0.90998 0.48552 0.0
H1060 H 0.51808 0.8879 0.46381 0.0
H1061 H 0.54861 0.85452 0.57292 0.0
H1062 H 0.56298 0.88387 0.56963 0.0
H1063 H 0.53605 0.87892 0.57394 0.0
H1064 H 0.57805 0.96161 0.54887 0.0
H1065 H 0.51312 0.94836 0.55889 0.0
H1066 H 0.57404 0.9103 0.51033 0.0
H1067 H 0.58074 0.90139 0.53917 0.0
H1068 H 0.59308 0.93112 0.5348 0.0
H1069 H 0.49355 0.8937 0.52365 0.0
H1070 H 0.49053 0.90955 0.55219 0.0
H1071 H 0.50281 0.88494 0.55183 0.0
C1072 C 0.52591 0.28498 0.74752 0.0
C1073 C 0.5329 0.29902 0.7304 0.0
C1074 C 0.50669 0.28515 0.75558 0.0
C1075 C 0.49396 0.29971 0.74636 0.0
C1076 C 0.50103 0.31418 0.72931 0.0
C1077 C 0.52038 0.31367 0.72155 0.0
C1078 C 0.49988 0.26949 0.77381 0.0
C1079 C 0.48802 0.33 0.71904 0.0
C1080 C 0.435 0.28177 0.75053 0.0
C1081 C 0.43434 0.29717 0.77174 0.0
C1082 C 0.45412 0.28275 0.74179 0.0
C1083 C 0.4732 0.29955 0.75449 0.0
C1084 C 0.47258 0.31547 0.77561 0.0
C1085 C 0.45326 0.31407 0.78396 0.0
C1086 C 0.45398 0.26549 0.71916 0.0
C1087 C 0.49248 0.33362 0.78979 0.0
H1088 H 0.53539 0.27357 0.75451 0.0
H1089 H 0.52556 0.32455 0.7083 0.0
H1090 H 0.49757 0.28054 0.79036 0.0
H1091 H 0.48438 0.25644 0.76569 0.0
H1092 H 0.51171 0.25949 0.77954 0.0
H1093 H 0.49586 0.34052 0.70631 0.0
H1094 H 0.47215 0.31894 0.70906 0.0
H1095 H 0.48533 0.34255 0.73418 0.0
H1096 H 0.42051 0.26886 0.7407 0.0
H1097 H 0.45313 0.32586 0.80055 0.0
H1098 H 0.46441 0.25367 0.72389 0.0
H1099 H 0.46048 0.27542 0.70529 0.0
H1100 H 0.43773 0.25416 0.7108 0.0
H1101 H 0.50416 0.32429 0.79755 0.0
H1102 H 0.48917 0.34557 0.80503 0.0
H1103 H 0.50009 0.34475 0.7774 0.0
C1104 C 0.08259 0.85059 0.69145 0.0
C1105 C 0.07151 0.83869 0.70753 0.0
C1106 C 0.07494 0.86751 0.67989 0.0
C1107 C 0.05577 0.87263 0.68462 0.0
C1108 C 0.04562 0.86238 0.70257 0.0
C1109 C 0.05361 0.8454 0.71384 0.0
C1110 C 0.08651 0.87854 0.66124 0.0
C1111 C 0.0256 0.86813 0.70867 0.0
C1112 C 0.04543 0.92338 0.65379 0.0
C1113 C 0.03406 0.91077 0.63073 0.0
C1114 C 0.05092 0.91124 0.67272 0.0
C1115 C 0.04514 0.88596 0.6682 0.0
C1116 C 0.03195 0.87327 0.64573 0.0
C1117 C 0.0265 0.88588 0.62726 0.0
C1118 C 0.06453 0.92555 0.69658 0.0
C1119 C 0.02526 0.84628 0.64028 0.0
H1120 H 0.09665 0.84576 0.68685 0.0
H1121 H 0.04514 0.83648 0.72656 0.0
H1122 H 0.0765 0.87202 0.64265 0.0
H1123 H 0.08943 0.89827 0.66504 0.0
H1124 H 0.10204 0.8741 0.66114 0.0
H1125 H 0.02174 0.86188 0.72571 0.0
H1126 H 0.02724 0.88767 0.71087 0.0
H1127 H 1.01202 0.85932 0.6934 0.0
H1128 H 0.0514 0.94261 0.65649 0.0
H1129 H 1.01734 0.87618 0.60957 0.0
H1130 H 0.08155 0.92915 0.69494 0.0
H1131 H 0.06239 0.91592 0.71216 0.0
H1132 H 0.06078 0.94305 0.70081 0.0
H1133 H 0.03937 0.83939 0.63812 0.0
H1134 H 1.01305 0.8393 0.62321 0.0
H1135 H 0.01877 0.83909 0.65567 0.0
C1136 C 0.47456 0.84154 0.87339 0.0
C1137 C 0.48865 0.83445 0.89051 0.0
C1138 C 0.45241 0.8332 0.87127 0.0
C1139 C 0.44419 0.81764 0.88684 0.0
C1140 C 0.45834 0.81028 0.90402 0.0
C1141 C 0.48039 0.81867 0.90557 0.0
C1142 C 0.4378 0.84117 0.85244 0.0
C1143 C 0.45019 0.7938 0.921 0.0
C1144 C 0.38746 0.81592 0.89452 0.0
C1145 C 0.37581 0.79549 0.87752 0.0
C1146 C 0.40983 0.82281 0.89852 0.0
C1147 C 0.42076 0.80908 0.88501 0.0
C1148 C 0.40915 0.78785 0.86871 0.0
C1149 C 0.38685 0.78123 0.86531 0.0
C1150 C 0.42171 0.84536 0.91639 0.0
C1151 C 0.42016 0.77276 0.85385 0.0
H1152 H 0.48082 0.85368 0.86168 0.0
H1153 H 0.49117 0.81317 0.91893 0.0
H1154 H 0.42682 0.82536 0.83987 0.0
H1155 H 0.42786 0.85105 0.86169 0.0
H1156 H 0.44671 0.85288 0.84137 0.0
H1157 H 0.4633 0.78954 0.93316 0.0
H1158 H 0.44071 0.80218 0.93258 0.0
H1159 H 0.43945 0.77684 0.91021 0.0
H1160 H 0.3791 0.82701 0.90411 0.0
H1161 H 0.37808 0.76542 0.85209 0.0
H1162 H 0.42925 0.85907 0.90629 0.0
H1163 H 0.43464 0.84182 0.9294 0.0
H1164 H 0.41107 0.85282 0.92701 0.0
H1165 H 0.42753 0.78302 0.84068 0.0
H1166 H 0.409 0.75586 0.84339 0.0
H1167 H 0.43315 0.76833 0.86596 0.0
C1168 C 0.52198 0.17366 0.16738 0.0
C1169 C 0.52765 0.19788 0.16539 0.0
C1170 C 0.51781 0.15578 0.14665 0.0
C1171 C 0.5194 0.16234 0.12344 0.0
C1172 C 0.52292 0.18663 0.12096 0.0
C1173 C 0.52705 0.20417 0.142 0.0
C1174 C 0.51377 0.13 0.15006 0.0
C1175 C 0.52421 0.19429 0.09645 0.0
C1176 C 0.54364 0.12045 0.08726 0.0
C1177 C 0.52556 0.10407 0.07297 0.0
C1178 C 0.54195 0.14061 0.10246 0.0
C1179 C 0.52156 0.14441 0.10327 0.0
C1180 C 0.5034 0.12914 0.08702 0.0
C1181 C 0.50561 0.10895 0.07198 0.0
C1182 C 0.56181 0.15656 0.11927 0.0
C1183 C 0.48145 0.13282 0.08708 0.0
H1184 H 0.52204 0.16861 0.18531 0.0
H1185 H 0.531 0.22285 0.14019 0.0
H1186 H 0.50109 0.11824 0.13521 0.0
H1187 H 0.52854 0.12402 0.14938 0.0
H1188 H 0.50906 0.12759 0.16794 0.0
H1189 H 0.5224 0.21274 0.09663 0.0
H1190 H 0.53995 0.19382 0.09186 0.0
H1191 H 0.5118 0.18192 0.0817 0.0
H1192 H 0.559 0.11667 0.08777 0.0
H1193 H 0.49156 0.09605 0.06107 0.0
H1194 H 0.56115 0.1543 0.13851 0.0
H1195 H 0.56285 0.1756 0.11823 0.0
H1196 H 0.57656 0.15236 0.11474 0.0
H1197 H 0.47531 0.12585 0.10278 0.0
H1198 H 0.47012 0.12321 0.06995 0.0
H1199 H 0.48187 0.15208 0.08928 0.0
C1200 C 0.10109 0.33232 0.36606 0.0
C1201 C 0.08026 0.32514 0.35247 0.0
C1202 C 0.11824 0.32889 0.35518 0.0
C1203 C 0.11441 0.31865 0.33002 0.0
C1204 C 0.09378 0.31414 0.31564 0.0
C1205 C 0.07684 0.31709 0.32713 0.0
C1206 C 0.13997 0.33377 0.37124 0.0
C1207 C 0.08923 0.30415 0.28857 0.0
C1208 C 0.16364 0.31434 0.30389 0.0
C1209 C 0.16436 0.29094 0.30621 0.0
C1210 C 0.14688 0.32339 0.31039 0.0
C1211 C 0.13089 0.30883 0.32005 0.0
C1212 C 0.13126 0.28491 0.32168 0.0
C1213 C 0.1479 0.27619 0.31447 0.0
C1214 C 0.14671 0.34871 0.30771 0.0
C1215 C 0.11468 0.26887 0.3322 0.0
H1216 H 0.10377 0.33848 0.38567 0.0
H1217 H 0.06073 0.31177 0.31653 0.0
H1218 H 0.14348 0.31652 0.37404 0.0
H1219 H 0.15251 0.34335 0.36235 0.0
H1220 H 0.14092 0.34449 0.38949 0.0
H1221 H 0.0738 0.30631 0.27923 0.0
H1222 H 0.10211 0.31303 0.27964 0.0
H1223 H 0.08851 0.2848 0.28592 0.0
H1224 H 0.17641 0.32567 0.29741 0.0
H1225 H 0.14866 0.25819 0.31652 0.0
H1226 H 0.15102 0.36023 0.32607 0.0
H1227 H 0.13055 0.34953 0.29927 0.0
H1228 H 0.15822 0.35623 0.29639 0.0
H1229 H 0.11511 0.27688 0.35143 0.0
H1230 H 0.11719 0.25069 0.33197 0.0
H1231 H 0.09853 0.26715 0.32166 0.0
C1232 C 0.9706 1.00544 0.19554 0.0
C1233 C 0.98093 1.01636 0.21953 0.0
C1234 C 0.98092 1.00857 0.17556 0.0
C1235 C 1.00176 0.02385 0.17952 0.0
C1236 C 1.01211 0.03524 0.20373 0.0
C1237 C 1.00173 0.03096 0.2235 0.0
C1238 C 0.96965 0.99524 0.15028 0.0
C1239 C 0.03402 0.05226 0.20871 0.0
C1240 C 0.03909 0.01841 0.13469 0.0
C1241 C 0.03639 0.0361 0.12083 0.0
C1242 C 0.02721 1.01352 0.15305 0.0
C1243 C 1.01298 0.02746 0.15849 0.0
C1244 C 1.01006 0.04525 0.1443 0.0
C1245 C 0.0215 0.04901 0.12525 0.0
C1246 C 0.0301 0.99361 0.1668 0.0
C1247 C 0.99556 0.061 0.14992 0.0
H1248 H 0.95451 0.99407 0.19247 0.0
H1249 H 1.00962 0.03965 0.24201 0.0
H1250 H 0.96739 1.00805 0.13783 0.0
H1251 H 0.97954 0.98427 0.14249 0.0
H1252 H 0.95382 0.98333 0.15044 0.0
H1253 H 0.03931 0.06085 0.22831 0.0
H1254 H 0.04578 0.04259 0.20354 0.0
H1255 H 0.03413 0.06645 0.19735 0.0
H1256 H 0.05052 1.00828 0.13107 0.0
H1257 H 0.01957 0.06282 0.1146 0.0
H1258 H 1.01438 0.98154 0.16698 0.0
H1259 H 0.03788 1.00118 0.18613 0.0
H1260 H 0.04 0.98286 0.15861 0.0
H1261 H 0.97919 0.04996 0.14903 0.0
H1262 H 0.99485 0.07382 0.13704 0.0
H1263 H 1.00128 0.07123 0.16887 0.0
C1264 C 0.37384 0.75553 0.55876 0.0
C1265 C 0.37744 0.73408 0.56463 0.0
C1266 C 0.37701 0.76216 0.53631 0.0
C1267 C 0.38428 0.74707 0.5195 0.0
C1268 C 0.39105 0.72739 0.52693 0.0
C1269 C 0.38732 0.72089 0.54946 0.0
C1270 C 0.37005 0.78372 0.5295 0.0
C1271 C 0.40033 0.71189 0.51027 0.0
C1272 C 0.35123 0.7444 0.45824 0.0
C1273 C 0.36317 0.76438 0.45081 0.0
C1274 C 0.35911 0.7366 0.47942 0.0
C1275 C 0.37963 0.74886 0.49316 0.0
C1276 C 0.3929 0.76676 0.48367 0.0
C1277 C 0.38433 0.77472 0.46277 0.0
C1278 C 0.34437 0.71725 0.48865 0.0
C1279 C 0.4154 0.77906 0.49668 0.0
H1280 H 0.36683 0.76618 0.57084 0.0
H1281 H 0.3906 0.70454 0.55418 0.0
H1282 H 0.38278 0.79554 0.52262 0.0
H1283 H 0.35574 0.77785 0.5146 0.0
H1284 H 0.36609 0.79436 0.54526 0.0
H1285 H 0.41145 0.70373 0.52109 0.0
H1286 H 0.38732 0.69715 0.49876 0.0
H1287 H 0.40891 0.72223 0.49795 0.0
H1288 H 0.3349 0.73633 0.44889 0.0
H1289 H 0.39376 0.78982 0.45659 0.0
H1290 H 0.33963 0.72515 0.50539 0.0
H1291 H 0.35255 0.70351 0.49363 0.0
H1292 H 0.32968 0.70828 0.47483 0.0
H1293 H 0.41551 0.79566 0.50892 0.0
H1294 H 0.42566 0.78425 0.48325 0.0
H1295 H 0.42237 0.76751 0.50792 0.0
C1296 C 0.63784 1.00111 0.74193 0.0
C1297 C 0.63574 1.01531 0.76342 0.0
C1298 C 0.62679 1.0019 0.71815 0.0
C1299 C 0.61346 1.01776 0.71501 0.0
C1300 C 0.61144 0.03227 0.7366 0.0
C1301 C 0.62225 0.03071 0.76019 0.0
C1302 C 0.6293 0.98551 0.69627 0.0
C1303 C 0.59795 0.04984 0.7348 0.0
C1304 C 0.59704 0.03464 0.65065 0.0
C1305 C 0.57567 0.02121 0.64306 0.0
C1306 C 0.60953 0.03359 0.67361 0.0
C1307 C 0.60085 0.01841 0.68957 0.0
C1308 C 0.57953 1.00424 0.68139 0.0
C1309 C 0.56735 1.00607 0.65881 0.0
C1310 C 0.63188 0.04948 0.6812 0.0
C1311 C 0.56931 0.98724 0.69677 0.0
H1312 H 0.64816 0.98918 0.74366 0.0
H1313 H 0.62051 0.04217 0.77619 0.0
H1314 H 0.61347 0.97394 0.6867 0.0
H1315 H 0.63599 0.99617 0.68301 0.0
H1316 H 0.63987 0.97394 0.70147 0.0
H1317 H 0.59876 0.0608 0.75287 0.0
H1318 H 0.60324 0.06196 0.72203 0.0
H1319 H 0.58109 0.04014 0.7272 0.0
H1320 H 0.60376 0.04676 0.63919 0.0
H1321 H 0.55092 0.99558 0.6535 0.0
H1322 H 0.64329 0.03871 0.68582 0.0
H1323 H 0.63293 0.0625 0.69797 0.0
H1324 H 0.63683 0.05949 0.66664 0.0
H1325 H 0.57959 0.97529 0.70164 0.0
H1326 H 0.55332 0.97605 0.68721 0.0
H1327 H 0.56761 0.99746 0.71416 0.0
C1328 C 0.3233 0.33568 1.00818 0.0
C1329 C 0.31911 0.35756 0.01638 0.0
C1330 C 0.31852 0.32555 0.98315 0.0
C1331 C 0.30973 0.33781 0.96574 0.0
C1332 C 0.30486 0.35957 0.97397 0.0
C1333 C 0.30943 0.36906 0.99921 0.0
C1334 C 0.32359 0.3021 0.97527 0.0
C1335 C 0.29577 0.3734 0.95604 0.0
C1336 C 0.32272 0.32626 0.90208 0.0
C1337 C 0.3036 0.31083 0.88851 0.0
C1338 C 0.32471 0.33549 0.92701 0.0
C1339 C 0.30729 0.32883 0.93893 0.0
C1340 C 0.28791 0.31325 0.92535 0.0
C1341 C 0.28623 0.30461 0.90025 0.0
C1342 C 0.34555 0.35236 0.94063 0.0
C1343 C 0.26908 0.30538 0.93743 0.0
H1344 H 0.33064 0.32657 0.02135 0.0
H1345 H 0.30623 0.38603 1.00537 0.0
H1346 H 0.30957 0.28943 0.96284 0.0
H1347 H 0.33678 0.30508 0.96491 0.0
H1348 H 0.32839 0.29368 0.99112 0.0
H1349 H 0.29147 0.3891 0.96539 0.0
H1350 H 0.30764 0.37978 0.9447 0.0
H1351 H 0.28139 0.36169 0.94338 0.0
H1352 H 0.33617 0.33138 0.89313 0.0
H1353 H 0.27143 0.29261 0.88993 0.0
H1354 H 0.35268 0.34433 0.95559 0.0
H1355 H 0.34275 0.3693 0.94922 0.0
H1356 H 0.35724 0.3566 0.92847 0.0
H1357 H 0.27346 0.29555 0.95222 0.0
H1358 H 0.25499 0.29364 0.92423 0.0
H1359 H 0.26455 0.32118 0.94609 0.0
C1360 C 1.0102 1.0168 0.36618 0.0
C1361 C 0.99146 0.02289 0.35699 0.0
C1362 C 0.01865 0.02144 0.39147 0.0
C1363 C 1.00791 0.03203 0.40814 0.0
C1364 C 0.9894 0.03903 0.39891 0.0
C1365 C 0.98151 0.03457 0.37345 0.0
C1366 C 0.03863 1.01408 0.4004 0.0
C1367 C 0.97729 0.05008 0.41599 0.0
C1368 C 1.01472 1.01405 0.47109 0.0
C1369 C 0.0296 0.03421 0.4856 0.0
C1370 C 1.00715 1.01348 0.44614 0.0
C1371 C 1.01483 0.03343 0.43514 0.0
C1372 C 0.02962 0.05402 0.44974 0.0
C1373 C 0.03673 0.05422 0.47483 0.0
C1374 C 0.99112 0.9913 0.43146 0.0
C1375 C 0.03837 0.07559 0.43875 0.0
H1376 H 0.01811 1.00796 0.3536 0.0
H1377 H 0.96699 0.03927 0.36653 0.0
H1378 H 0.05026 0.02904 0.41345 0.0
H1379 H 0.03468 0.99894 0.41036 0.0
H1380 H 0.04633 1.00848 0.38511 0.0
H1381 H 0.96446 0.0566 0.40598 0.0
H1382 H 0.96998 0.0366 0.4265 0.0
H1383 H 0.98823 0.06522 0.42947 0.0
H1384 H 1.00891 0.99859 0.47926 0.0
H1385 H 0.04829 0.06983 0.48585 0.0
H1386 H 0.99819 0.98291 0.41699 0.0
H1387 H 0.97693 0.99608 0.42217 0.0
H1388 H 0.98582 0.97788 0.44303 0.0
H1389 H 0.04788 0.07072 0.42509 0.0
H1390 H 0.04865 0.09074 0.45282 0.0
H1391 H 0.02517 0.08164 0.42892 0.0
C1392 C 0.3518 0.75534 0.68833 0.0
C1393 C 0.34646 0.73039 0.6864 0.0
C1394 C 0.34831 0.76999 0.7084 0.0
C1395 C 0.33894 0.75936 0.72668 0.0
C1396 C 0.33367 0.7342 0.72493 0.0
C1397 C 0.33768 0.72002 0.7049 0.0
C1398 C 0.35467 0.79679 0.7101 0.0
C1399 C 0.32362 0.72223 0.74411 0.0
C1400 C 0.34595 0.79178 0.79136 0.0
C1401 C 0.32626 0.79711 0.79118 0.0
C1402 C 0.35081 0.78082 0.77003 0.0
C1403 C 0.33529 0.77447 0.7482 0.0
C1404 C 0.31567 0.78077 0.74767 0.0
C1405 C 0.31145 0.79236 0.76928 0.0
C1406 C 0.37204 0.77481 0.77132 0.0
C1407 C 0.29859 0.77379 0.72481 0.0
H1408 H 0.35864 0.76344 0.6741 0.0
H1409 H 0.33335 0.70074 0.7034 0.0
H1410 H 0.36626 0.80514 0.72738 0.0
H1411 H 0.36195 0.80223 0.69443 0.0
H1412 H 0.34054 0.80402 0.71063 0.0
H1413 H 0.31974 0.70242 0.73955 0.0
H1414 H 0.33461 0.72809 0.76212 0.0
H1415 H 0.30879 0.72763 0.74616 0.0
H1416 H 0.35732 0.79543 0.80849 0.0
H1417 H 0.29609 0.79616 0.76944 0.0
H1418 H 0.37939 0.77987 0.7556 0.0
H1419 H 0.36967 0.75524 0.77026 0.0
H1420 H 0.38335 0.78395 0.78862 0.0
H1421 H 0.30528 0.77934 0.70885 0.0
H1422 H 0.28507 0.78183 0.7268 0.0
H1423 H 0.29238 0.75404 0.7207 0.0
C1424 C 0.62865 0.02467 0.92125 0.0
C1425 C 0.62821 0.04062 0.90438 0.0
C1426 C 0.61827 0.0258 0.94193 0.0
C1427 C 0.60683 0.04338 0.94664 0.0
C1428 C 0.60633 0.0595 0.92966 0.0
C1429 C 0.61682 0.05796 0.90913 0.0
C1430 C 0.61955 1.00798 0.95887 0.0
C1431 C 0.59456 0.07859 0.93317 0.0
C1432 C 0.56328 0.0333 0.98768 0.0
C1433 C 0.57345 0.04758 1.01074 0.0
C1434 C 0.57375 0.03178 0.96715 0.0
C1435 C 0.59533 0.04477 0.96893 0.0
C1436 C 0.60574 0.05915 0.99219 0.0
C1437 C 0.59487 0.06037 0.01245 0.0
C1438 C 0.56152 1.01609 0.94333 0.0
C1439 C 0.6286 0.07335 0.99577 0.0
H1440 H 0.63721 1.0111 0.91831 0.0
H1441 H 0.61608 0.07055 0.89668 0.0
H1442 H 0.62694 1.01751 0.9778 0.0
H1443 H 0.60329 0.99746 0.95946 0.0
H1444 H 0.62896 0.99543 0.95313 0.0
H1445 H 0.5955 0.08988 0.91872 0.0
H1446 H 0.57755 0.07022 0.93298 0.0
H1447 H 0.60124 0.09026 0.95131 0.0
H1448 H 0.54691 0.02304 0.98558 0.0
H1449 H 0.60333 0.07141 0.02982 0.0
H1450 H 0.56989 1.00241 0.93776 0.0
H1451 H 0.56075 0.027 0.92863 0.0
H1452 H 0.54503 1.00686 0.94462 0.0
H1453 H 0.6388 0.06119 0.99177 0.0
H1454 H 0.63472 0.08355 0.01471 0.0
H1455 H 0.63012 0.08607 0.98271 0.0
C1456 C 0.3073 0.37383 0.16503 0.0
C1457 C 0.32334 0.37097 0.15191 0.0
C1458 C 0.30321 0.36097 0.1841 0.0
C1459 C 0.31598 0.34551 0.19091 0.0
C1460 C 0.33253 0.34301 0.17806 0.0
C1461 C 0.33573 0.35539 0.15846 0.0
C1462 C 0.28497 0.36363 0.1967 0.0
C1463 C 0.34704 0.32747 0.1852 0.0
C1464 C 0.31645 0.33016 0.25518 0.0
C1465 C 0.30348 0.30668 0.2503 0.0
C1466 C 0.32119 0.34269 0.23607 0.0
C1467 C 0.31199 0.33192 0.2114 0.0
C1468 C 0.29868 0.30827 0.20637 0.0
C1469 C 0.2949 0.29582 0.22581 0.0
C1470 C 0.33598 0.36754 0.24234 0.0
C1471 C 0.28796 0.29631 0.18049 0.0
H1472 H 0.29756 0.38568 0.15994 0.0
H1473 H 0.34828 0.35326 0.14855 0.0
H1474 H 0.2738 0.34585 0.1954 0.0
H1475 H 0.29105 0.371 0.21646 0.0
H1476 H 0.276 0.37557 0.18862 0.0
H1477 H 0.35976 0.32825 0.17414 0.0
H1478 H 0.35462 0.33317 0.20487 0.0
H1479 H 0.33767 0.30862 0.1828 0.0
H1480 H 0.32284 0.33889 0.27399 0.0
H1481 H 0.28464 0.2778 0.22183 0.0
H1482 H 0.32712 0.38074 0.23737 0.0
H1483 H 0.34893 0.36881 0.23161 0.0
H1484 H 0.34325 0.37258 0.26216 0.0
H1485 H 0.27795 0.30724 0.17231 0.0
H1486 H 0.27775 0.27806 0.17965 0.0
H1487 H 0.30009 0.29506 0.16899 0.0
C1488 C 0.1935 0.95385 0.98711 0.0
C1489 C 0.21504 0.95437 0.98882 0.0
C1490 C 0.18728 0.97524 0.99045 0.0
C1491 C 0.20306 0.99731 0.99526 0.0
C1492 C 0.22408 0.99768 0.99239 0.0
C1493 C 0.22996 0.97608 0.98955 0.0
C1494 C 0.16444 0.97415 0.99238 0.0
C1495 C 0.24095 0.02087 0.99557 0.0
C1496 C 0.18004 0.0492 0.01294 0.0
C1497 C 0.18107 0.04879 0.03806 0.0
C1498 C 0.18883 0.03392 0.99862 0.0
C1499 C 0.19897 0.01821 1.00992 0.0
C1500 C 0.20249 0.02015 0.03579 0.0
C1501 C 0.19361 0.0356 0.04955 0.0
C1502 C 0.18545 0.03324 0.97128 0.0
C1503 C 0.21375 1.00419 0.04881 0.0
H1504 H 0.18188 0.93701 0.98605 0.0
H1505 H 0.24658 0.9764 0.99005 0.0
H1506 H 0.16339 0.97865 0.01195 0.0
H1507 H 0.15868 0.98738 0.98256 0.0
H1508 H 0.1537 0.9561 0.98474 0.0
H1509 H 0.25423 0.01843 0.98623 0.0
H1510 H 0.23415 0.03479 0.98826 0.0
H1511 H 0.24762 0.0274 0.01538 0.0
H1512 H 0.17091 0.05995 1.00403 0.0
H1513 H 0.19505 0.03595 0.06914 0.0
H1514 H 0.16945 0.02147 0.96266 0.0
H1515 H 0.19754 0.0263 0.96291 0.0
H1516 H 0.1859 0.05134 0.96697 0.0
H1517 H 0.20427 0.9853 0.04316 0.0
H1518 H 0.21608 1.00893 0.06908 0.0
H1519 H 0.22956 1.0054 0.04375 0.0
C1520 C 0.69347 0.62739 0.02887 0.0
C1521 C 0.7114 0.62003 0.03873 0.0
C1522 C 0.67261 0.61484 0.03003 0.0
C1523 C 0.66937 0.59438 0.04146 0.0
C1524 C 0.68734 0.58657 0.051 0.0
C1525 C 0.70802 0.59937 0.04947 0.0
C1526 C 0.65402 0.62375 0.01936 0.0
C1527 C 0.68477 0.56494 0.06338 0.0
C1528 C 0.61792 0.57516 0.06633 0.0
C1529 C 0.60586 0.55576 0.04826 0.0
C1530 C 0.63848 0.58791 0.06431 0.0
C1531 C 0.64727 0.58128 0.04364 0.0
C1532 C 0.63496 0.56192 0.02517 0.0
C1533 C 0.61452 0.54941 0.02774 0.0
C1534 C 0.65093 0.60834 0.0845 0.0
C1535 C 0.64345 0.55428 1.00272 0.0
H1536 H 0.69572 0.64329 0.02056 0.0
H1537 H 0.72162 0.59348 0.05731 0.0
H1538 H 0.6424 0.60927 1.00574 0.0
H1539 H 0.64561 0.62897 0.03407 0.0
H1540 H 0.65905 0.63938 1.01032 0.0
H1541 H 0.70022 0.56084 0.06946 0.0
H1542 H 0.67733 0.56796 0.0796 0.0
H1543 H 0.67398 0.54909 0.0507 0.0
H1544 H 0.61138 0.58021 0.08225 0.0
H1545 H 0.60531 0.53451 0.01363 0.0
H1546 H 0.65524 0.62501 0.07687 0.0
H1547 H 0.66603 0.60461 0.09268 0.0
H1548 H 0.64187 0.61145 0.09925 0.0
H1549 H 0.64772 0.56957 0.99303 0.0
H1550 H 0.63176 0.53928 0.98972 0.0
H1551 H 0.6582 0.54861 1.00822 0.0
C1552 C 0.7096 0.50277 0.33753 0.0
C1553 C 0.69074 0.50479 0.34533 0.0
C1554 C 0.71858 0.48393 0.34217 0.0
C1555 C 0.70826 0.4664 0.35458 0.0
C1556 C 0.68926 0.46837 0.36266 0.0
C1557 C 0.68079 0.48771 0.35811 0.0
C1558 C 0.73906 0.48272 0.3336 0.0
C1559 C 0.67768 0.44981 0.37562 0.0
C1560 C 0.72452 0.40867 0.34149 0.0
C1561 C 0.74079 0.41121 0.36179 0.0
C1562 C 0.71266 0.42567 0.33976 0.0
C1563 C 0.71742 0.44592 0.35856 0.0
C1564 C 0.73292 0.44787 0.37976 0.0
C1565 C 0.74426 0.43037 0.38122 0.0
C1566 C 0.69596 0.42272 0.31706 0.0
C1567 C 0.73854 0.46924 0.40018 0.0
H1568 H 0.71744 0.51602 0.32781 0.0
H1569 H 0.66616 0.48916 0.36408 0.0
H1570 H 0.7513 0.482 0.34929 0.0
H1571 H 0.73634 0.46616 0.32 0.0
H1572 H 0.74549 0.49829 0.32507 0.0
H1573 H 0.66343 0.4543 0.38136 0.0
H1574 H 0.67254 0.43216 0.36332 0.0
H1575 H 0.6885 0.44796 0.39208 0.0
H1576 H 0.72173 0.39406 0.3263 0.0
H1577 H 0.75639 0.43216 0.39729 0.0
H1578 H 0.70191 0.43582 0.30548 0.0
H1579 H 0.68118 0.42633 0.32205 0.0
H1580 H 0.69197 0.40448 0.30597 0.0
H1581 H 0.74684 0.48531 0.39358 0.0
H1582 H 0.7491 0.46675 0.41656 0.0
H1583 H 0.72395 0.47284 0.40571 0.0
C1584 C 0.80611 0.38218 0.52145 0.0
C1585 C 0.7921 0.39059 0.50549 0.0
C1586 C 0.82824 0.39145 0.52452 0.0
C1587 C 0.83634 0.4094 0.51127 0.0
C1588 C 0.82229 0.41641 0.49365 0.0
C1589 C 0.80034 0.40688 0.49096 0.0
C1590 C 0.8428 0.38328 0.54318 0.0
C1591 C 0.83032 0.43531 0.47893 0.0
C1592 C 0.88617 0.4587 0.53888 0.0
C1593 C 0.90063 0.45265 0.52487 0.0
C1594 C 0.86541 0.44408 0.53541 0.0
C1595 C 0.85907 0.4229 0.51758 0.0
C1596 C 0.87392 0.4161 0.50424 0.0
C1597 C 0.89455 0.43112 0.508 0.0
C1598 C 0.84995 0.45194 0.54996 0.0
C1599 C 0.86779 0.39353 0.48528 0.0
H1600 H 0.79981 0.36951 0.53266 0.0
H1601 H 0.78955 0.41315 0.47831 0.0
H1602 H 0.85681 0.38012 0.53579 0.0
H1603 H 0.84884 0.39748 0.55967 0.0
H1604 H 0.83447 0.36666 0.54889 0.0
H1605 H 0.81753 0.43698 0.46433 0.0
H1606 H 0.83681 0.45287 0.4913 0.0
H1607 H 0.84343 0.43118 0.4703 0.0
H1608 H 0.89082 0.47537 0.55186 0.0
H1609 H 0.90588 0.4262 0.49748 0.0
H1610 H 0.84225 0.43725 0.55885 0.0
H1611 H 0.83715 0.45631 0.53745 0.0
H1612 H 0.85781 0.4679 0.56433 0.0
H1613 H 0.85948 0.37814 0.49285 0.0
H1614 H 0.88183 0.38931 0.47874 0.0
H1615 H 0.85656 0.39559 0.46929 0.0
C1616 C 0.37682 0.14173 0.3175 0.0
C1617 C 0.37532 0.1268 0.29488 0.0
C1618 C 0.36731 0.16156 0.31957 0.0
C1619 C 0.35607 0.16783 0.29853 0.0
C1620 C 0.35477 0.153 0.2756 0.0
C1621 C 0.36399 0.13293 0.27413 0.0
C1622 C 0.36913 0.17577 0.34464 0.0
C1623 C 0.34369 0.15848 0.25229 0.0
C1624 C 0.31442 0.2064 0.30428 0.0
C1625 C 0.32591 0.23011 0.30412 0.0
C1626 C 0.32388 0.18653 0.30279 0.0
C1627 C 0.34565 0.18946 0.30047 0.0
C1628 C 0.35728 0.21332 0.30004 0.0
C1629 C 0.34754 0.23297 0.30211 0.0
C1630 C 0.31042 0.16218 0.30404 0.0
C1631 C 0.38023 0.2182 0.29714 0.0
H1632 H 0.38528 0.13771 0.33392 0.0
H1633 H 0.3625 0.12211 0.25638 0.0
H1634 H 0.37781 0.19464 0.34541 0.0
H1635 H 0.35301 0.17577 0.34829 0.0
H1636 H 0.3776 0.16854 0.3594 0.0
H1637 H 0.34463 0.14627 0.23577 0.0
H1638 H 0.32667 0.15698 0.25299 0.0
H1639 H 0.35092 0.17717 0.25042 0.0
H1640 H 0.29786 0.2033 0.30601 0.0
H1641 H 0.35701 0.25074 0.30188 0.0
H1642 H 0.31813 0.155 0.31936 0.0
H1643 H 0.30915 0.14961 0.28689 0.0
H1644 H 0.29411 0.16257 0.30673 0.0
H1645 H 0.38986 0.21294 0.31249 0.0
H1646 H 0.38724 0.23732 0.29668 0.0
H1647 H 0.38147 0.20722 0.27994 0.0
C1648 C 0.34254 0.1207 0.53213 0.0
C1649 C 0.32948 0.11632 0.54951 0.0
C1650 C 0.36087 0.11196 0.53241 0.0
C1651 C 0.36646 0.09862 0.55061 0.0
C1652 C 0.3532 0.09396 0.56803 0.0
C1653 C 0.33494 0.10275 0.56722 0.0
C1654 C 0.3744 0.11722 0.51337 0.0
C1655 C 0.35849 0.07996 0.58785 0.0
C1656 C 0.40414 0.05822 0.54272 0.0
C1657 C 0.42344 0.07216 0.55753 0.0
C1658 C 0.38571 0.06681 0.53973 0.0
C1659 C 0.38637 0.08993 0.55192 0.0
C1660 C 0.4059 0.10432 0.56639 0.0
C1661 C 0.42411 0.09535 0.56893 0.0
C1662 C 0.36533 0.05085 0.52404 0.0
C1663 C 0.40746 0.12906 0.57973 0.0
H1664 H 0.33854 0.13113 0.51836 0.0
H1665 H 0.32507 0.09926 0.58081 0.0
H1666 H 0.39063 0.12803 0.52244 0.0
H1667 H 0.37611 0.1003 0.50331 0.0
H1668 H 0.36756 0.12709 0.49993 0.0
H1669 H 0.34641 0.07751 0.59978 0.0
H1670 H 0.35962 0.0621 0.57951 0.0
H1671 H 0.37424 0.08934 0.59946 0.0
H1672 H 0.40319 0.0402 0.53401 0.0
H1673 H 0.43892 0.10655 0.58004 0.0
H1674 H 0.35868 0.06041 0.51019 0.0
H1675 H 0.35329 0.04611 0.53564 0.0
H1676 H 0.36772 0.03408 0.5144 0.0
H1677 H 0.40208 0.14006 0.56663 0.0
H1678 H 0.42394 0.13838 0.58949 0.0
H1679 H 0.39679 0.12788 0.59331 0.0
C1680 C 0.69462 0.65461 0.3543 0.0
C1681 C 0.69885 0.63232 0.34809 0.0
C1682 C 0.70968 0.67603 0.35384 0.0
C1683 C 0.72929 0.67509 0.34673 0.0
C1684 C 0.73387 0.6527 0.34118 0.0
C1685 C 0.71871 0.63169 0.34208 0.0
C1686 C 0.7043 0.69957 0.36011 0.0
C1687 C 0.75449 0.65082 0.33332 0.0
C1688 C 0.7591 0.72361 0.31664 0.0
C1689 C 0.77667 0.73519 0.33526 0.0
C1690 C 0.74311 0.70463 0.32046 0.0
C1691 C 0.74465 0.69718 0.34356 0.0
C1692 C 0.76198 0.70948 0.36274 0.0
C1693 C 0.77792 0.72822 0.35829 0.0
C1694 C 0.72505 0.69191 0.29942 0.0
C1695 C 0.76395 0.70243 0.38776 0.0
H1696 H 0.67937 0.65534 0.359 0.0
H1697 H 0.72225 0.61464 0.3373 0.0
H1698 H 0.71787 0.71268 0.37281 0.0
H1699 H 0.70124 0.70712 0.34318 0.0
H1700 H 0.68994 0.69759 0.36862 0.0
H1701 H 0.75591 0.63212 0.3304 0.0
H1702 H 0.75552 0.65784 0.31597 0.0
H1703 H 0.76828 0.66186 0.34733 0.0
H1704 H 0.75818 0.72891 0.29878 0.0
H1705 H 0.7914 0.73737 0.37279 0.0
H1706 H 0.70951 0.69123 0.30508 0.0
H1707 H 0.72583 0.67319 0.29413 0.0
H1708 H 0.72554 0.70074 0.28307 0.0
H1709 H 0.74883 0.70131 0.39457 0.0
H1710 H 0.7771 0.71527 0.40135 0.0
H1711 H 0.767 0.68446 0.38653 0.0
C1712 C 0.8911 0.46946 0.81064 0.0
C1713 C 0.88036 0.48731 0.80624 0.0
C1714 C 0.88033 0.44567 0.81176 0.0
C1715 C 0.85779 0.43863 0.80876 0.0
C1716 C 0.84666 0.45639 0.80419 0.0
C1717 C 0.85792 0.48022 0.80281 0.0
C1718 C 0.8933 0.42794 0.81625 0.0
C1719 C 0.82274 0.45027 0.80109 0.0
C1720 C 0.83061 0.37011 0.79234 0.0
C1721 C 0.82834 0.36346 0.8153 0.0
C1722 C 0.83952 0.39422 0.78987 0.0
C1723 C 0.84632 0.41288 0.81075 0.0
C1724 C 0.84361 0.40635 0.83388 0.0
C1725 C 0.83491 0.38207 0.83587 0.0
C1726 C 0.84215 0.39961 0.76479 0.0
C1727 C 0.85021 0.42509 0.85682 0.0
H1728 H 0.90833 0.47404 0.81315 0.0
H1729 H 0.84913 0.49338 0.79945 0.0
H1730 H 0.89094 0.42143 0.83358 0.0
H1731 H 0.88785 0.41217 0.80126 0.0
H1732 H 0.91061 0.43574 0.81745 0.0
H1733 H 0.81622 0.46568 0.79758 0.0
H1734 H 0.81549 0.43519 0.78562 0.0
H1735 H 0.81788 0.44433 0.81783 0.0
H1736 H 0.82575 0.35631 0.77613 0.0
H1737 H 0.83331 0.37767 0.85378 0.0
H1738 H 0.85933 0.40621 0.76446 0.0
H1739 H 0.83446 0.41398 0.76059 0.0
H1740 H 0.83519 0.38365 0.75016 0.0
H1741 H 0.86774 0.43261 0.86052 0.0
H1742 H 0.84564 0.4178 0.8731 0.0
H1743 H 0.84281 0.44005 0.85427 0.0
C1744 C 0.09582 0.87465 0.11143 0.0
C1745 C 0.08924 0.86998 0.13342 0.0
C1746 C 0.09249 0.89459 0.10107 0.0
C1747 C 0.08272 0.91082 0.11313 0.0
C1748 C 0.0763 0.90637 0.13552 0.0
C1749 C 0.07941 0.886 0.14519 0.0
C1750 C 0.0992 0.8981 0.07697 0.0
C1751 C 0.06619 0.92325 0.14937 0.0
C1752 C 0.09018 0.97397 0.09686 0.0
C1753 C 0.07042 0.97232 0.08204 0.0
C1754 C 0.09439 0.95426 0.10709 0.0
C1755 C 0.0787 0.93202 0.10206 0.0
C1756 C 0.05896 0.93014 0.08657 0.0
C1757 C 0.05501 0.95023 0.07706 0.0
C1758 C 0.11551 0.95742 0.1238 0.0
C1759 C 0.04186 0.90685 0.08012 0.0
H1760 H 0.10336 0.86246 0.10205 0.0
H1761 H 0.07437 0.88279 0.16224 0.0
H1762 H 0.08519 0.89819 0.06317 0.0
H1763 H 0.11089 0.91567 0.07917 0.0
H1764 H 0.10645 0.88389 0.06975 0.0
H1765 H 0.0629 0.91796 0.16699 0.0
H1766 H 0.07679 0.94166 0.15323 0.0
H1767 H 0.05098 0.92378 0.13802 0.0
H1768 H 0.10216 0.99092 0.10111 0.0
H1769 H 0.0397 0.94858 0.06562 0.0
H1770 H 0.1238 0.94428 0.1166 0.0
H1771 H 0.11283 0.95393 0.1422 0.0
H1772 H 0.1261 0.97569 0.12585 0.0
H1773 H 0.04836 0.89234 0.07205 0.0
H1774 H 0.02781 0.90788 0.06691 0.0
H1775 H 0.03648 0.90179 0.09695 0.0
C1776 C 0.94084 0.27632 0.92556 0.0
C1777 C 0.95331 0.26309 0.91442 0.0
C1778 C 0.92194 0.27952 0.91228 0.0
C1779 C 0.91491 0.26896 0.88719 0.0
C1780 C 0.92713 0.2551 0.87598 0.0
C1781 C 0.9462 0.25256 0.88958 0.0
C1782 C 0.90971 0.29467 0.92505 0.0
C1783 C 0.92003 0.24291 0.84952 0.0
C1784 C 0.85645 0.26183 0.85785 0.0
C1785 C 0.85816 0.28013 0.84381 0.0
C1786 C 0.87469 0.25785 0.87185 0.0
C1787 C 0.89518 0.27296 0.87249 0.0
C1788 C 0.89683 0.29185 0.85878 0.0
C1789 C 0.87842 0.29491 0.84433 0.0
C1790 C 0.87207 0.23711 0.88554 0.0
C1791 C 0.91811 0.30889 0.85938 0.0
H1792 H 0.94607 0.28464 0.94468 0.0
H1793 H 0.95549 0.24216 0.88074 0.0
H1794 H 0.90853 0.30988 0.91545 0.0
H1795 H 0.89322 0.28402 0.92434 0.0
H1796 H 0.91732 0.30185 0.94455 0.0
H1797 H 0.9305 0.2316 0.84386 0.0
H1798 H 0.90347 0.23154 0.84652 0.0
H1799 H 0.92001 0.25648 0.83746 0.0
H1800 H 0.8409 0.25006 0.85718 0.0
H1801 H 0.87984 0.30909 0.83354 0.0
H1802 H 0.87682 0.24384 0.90555 0.0
H1803 H 0.88265 0.22571 0.88055 0.0
H1804 H 0.85539 0.22587 0.88159 0.0
H1805 H 0.92583 0.3171 0.87861 0.0
H1806 H 0.91662 0.32338 0.84877 0.0
H1807 H 0.92882 0.29903 0.8517 0.0
C1808 C 0.57171 0.21307 0.65819 0.0
C1809 C 0.57802 0.23204 0.64561 0.0
C1810 C 0.5694 0.18918 0.64762 0.0
C1811 C 0.57315 0.18372 0.62357 0.0
C1812 C 0.57903 0.20264 0.61045 0.0
C1813 C 0.58156 0.22655 0.62167 0.0
C1814 C 0.56334 0.16976 0.66248 0.0
C1815 C 0.58282 0.19763 0.58463 0.0
C1816 C 0.58615 0.12364 0.60754 0.0
C1817 C 0.56608 0.10852 0.59629 0.0
C1818 C 0.58881 0.14822 0.61585 0.0
C1819 C 0.57106 0.15818 0.61252 0.0
C1820 C 0.55093 0.14317 0.60035 0.0
C1821 C 0.54865 0.11859 0.59261 0.0
C1822 C 0.61049 0.16338 0.62903 0.0
C1823 C 0.53161 0.15295 0.59604 0.0
H1824 H 0.56902 0.2169 0.67672 0.0
H1825 H 0.58644 0.24094 0.61173 0.0
H1826 H 0.54836 0.15659 0.65275 0.0
H1827 H 0.57591 0.16 0.66467 0.0
H1828 H 0.56107 0.17693 0.68097 0.0
H1829 H 0.58635 0.21409 0.57647 0.0
H1830 H 0.59638 0.18936 0.58452 0.0
H1831 H 0.56861 0.18466 0.57284 0.0
H1832 H 0.59973 0.11613 0.61057 0.0
H1833 H 0.5331 0.10722 0.58374 0.0
H1834 H 0.60982 0.16991 0.64834 0.0
H1835 H 0.61531 0.17931 0.62041 0.0
H1836 H 0.62292 0.15335 0.62898 0.0
H1837 H 0.52735 0.15875 0.61385 0.0
H1838 H 0.51758 0.13952 0.5844 0.0
H1839 H 0.53518 0.16889 0.58711 0.0
C1840 C 0.59108 0.76253 0.42913 0.0
C1841 C 0.57218 0.76672 0.4172 0.0
C1842 C 0.60906 0.76411 0.41803 0.0
C1843 C 0.60838 0.77004 0.39428 0.0
C1844 C 0.58925 0.77381 0.38188 0.0
C1845 C 0.57144 0.77211 0.39344 0.0
C1846 C 0.629 0.75986 0.43199 0.0
C1847 C 0.58774 0.78012 0.35654 0.0
C1848 C 0.66138 0.798 0.37645 0.0
C1849 C 0.66535 0.7785 0.36205 0.0
C1850 C 0.64293 0.79552 0.38684 0.0
C1851 C 0.62788 0.77297 0.38283 0.0
C1852 C 0.63179 0.75319 0.36839 0.0
C1853 C 0.6504 0.75617 0.35824 0.0
C1854 C 0.6396 0.81708 0.40226 0.0
C1855 C 0.61625 0.72884 0.36357 0.0
H1856 H 0.59198 0.7583 0.44744 0.0
H1857 H 0.55705 0.77544 0.38398 0.0
H1858 H 0.63393 0.74558 0.42102 0.0
H1859 H 0.64223 0.77633 0.43527 0.0
H1860 H 0.62679 0.75464 0.44995 0.0
H1861 H 0.57156 0.78157 0.34892 0.0
H1862 H 0.59937 0.79742 0.35712 0.0
H1863 H 0.59191 0.7664 0.3439 0.0
H1864 H 0.67286 0.81527 0.37987 0.0
H1865 H 0.65304 0.74102 0.34689 0.0
H1866 H 0.63874 0.81365 0.42111 0.0
H1867 H 0.62424 0.82048 0.39451 0.0
H1868 H 0.65258 0.83344 0.40335 0.0
H1869 H 0.6143 0.72269 0.38117 0.0
H1870 H 0.62149 0.71528 0.35188 0.0
H1871 H 0.60037 0.72987 0.3544 0.0
C1872 C 0.05204 0.23879 0.41928 0.0
C1873 C 0.05358 0.25977 0.43565 0.0
C1874 C 0.05556 0.21832 0.42797 0.0
C1875 C 0.06054 0.21893 0.45354 0.0
C1876 C 0.06313 0.24039 0.47004 0.0
C1877 C 0.0597 0.26055 0.46089 0.0
C1878 C 0.05302 0.1958 0.40988 0.0
C1879 C 0.06843 0.24176 0.49749 0.0
C1880 C 0.04349 0.16584 0.48391 0.0
C1881 C 0.06315 0.16161 0.49274 0.0
C1882 C 0.0422 0.18331 0.46936 0.0
C1883 C 0.06104 0.19682 0.46353 0.0
C1884 C 0.08068 0.19136 0.47076 0.0
C1885 C 0.08153 0.17382 0.48543 0.0
C1886 C 0.02093 0.18864 0.46203 0.0
C1887 C 0.10103 0.20513 0.4645 0.0
H1888 H 0.0475 0.23812 0.39973 0.0
H1889 H 0.06115 0.27674 0.47368 0.0
H1890 H 0.06635 0.18756 0.41467 0.0
H1891 H 0.03806 0.1826 0.41061 0.0
H1892 H 0.05235 0.19924 0.3908 0.0
H1893 H 0.07109 0.26017 0.50771 0.0
H1894 H 0.05519 0.22982 0.50357 0.0
H1895 H 0.08295 0.23553 0.50254 0.0
H1896 H 0.02926 0.15656 0.48965 0.0
H1897 H 0.09669 0.17024 0.49188 0.0
H1898 H 0.01803 0.1901 0.44235 0.0
H1899 H 0.02099 0.20607 0.47273 0.0
H1900 H 1.00752 0.1747 0.4654 0.0
H1901 H 0.09839 0.20774 0.44514 0.0
H1902 H 0.11399 0.19597 0.46752 0.0
H1903 H 0.10638 0.2231 0.47622 0.0
C1904 C 0.63531 0.27735 0.24057 0.0
C1905 C 0.62153 0.26048 0.25033 0.0
C1906 C 0.65745 0.28137 0.24691 0.0
C1907 C 0.66605 0.2682 0.26339 0.0
C1908 C 0.65227 0.25102 0.27321 0.0
C1909 C 0.63015 0.24746 0.26665 0.0
C1910 C 0.67164 0.29981 0.23604 0.0
C1911 C 0.66067 0.2368 0.2912 0.0
C1912 C 0.72301 0.26444 0.26434 0.0
C1913 C 0.73403 0.28176 0.28486 0.0
C1914 C 0.70084 0.25987 0.25707 0.0
C1915 C 0.6895 0.2729 0.27069 0.0
C1916 C 0.70054 0.29055 0.29124 0.0
C1917 C 0.72265 0.29481 0.298 0.0
C1918 C 0.68946 0.24066 0.23526 0.0
C1919 C 0.68896 0.30462 0.30639 0.0
H1920 H 0.62883 0.2875 0.22791 0.0
H1921 H 0.61964 0.23446 0.27434 0.0
H1922 H 0.68211 0.31402 0.25089 0.0
H1923 H 0.68213 0.2914 0.22608 0.0
H1924 H 0.6624 0.30825 0.22316 0.0
H1925 H 0.6489 0.21956 0.29061 0.0
H1926 H 0.67583 0.23302 0.28778 0.0
H1927 H 0.66361 0.24723 0.30998 0.0
H1928 H 0.73163 0.25413 0.25419 0.0
H1929 H 0.73087 0.30786 0.31415 0.0
H1930 H 0.68021 0.24821 0.22151 0.0
H1931 H 0.67797 0.22641 0.24118 0.0
H1932 H 0.70064 0.23245 0.22631 0.0
H1933 H 0.68031 0.31457 0.29471 0.0
H1934 H 0.69992 0.31757 0.32201 0.0
H1935 H 0.67692 0.29224 0.31372 0.0
C1936 C 0.56462 0.92806 0.97023 0.0
C1937 C 0.56924 0.90636 0.97373 0.0
C1938 C 0.5651 0.94542 0.99036 0.0
C1939 C 0.57031 0.9409 0.01447 0.0
C1940 C 0.57618 0.91968 0.01811 0.0
C1941 C 0.57558 0.90268 0.99771 0.0
C1942 C 0.55917 0.96815 0.98582 0.0
C1943 C 0.58216 0.91443 0.04353 0.0
C1944 C 0.58166 0.99442 0.06539 0.0
C1945 C 0.5615 0.9922 0.0715 0.0
C1946 C 0.58514 0.97721 0.04761 0.0
C1947 C 0.56798 0.95751 0.03573 0.0
C1948 C 0.548 0.95442 0.04316 0.0
C1949 C 0.54502 0.97188 0.06102 0.0
C1950 C 0.60667 0.98115 0.04028 0.0
C1951 C 0.52932 0.93358 0.03101 0.0
H1952 H 0.55986 0.93114 0.9518 0.0
H1953 H 0.57943 0.88609 1.00065 0.0
H1954 H 0.54461 0.96922 0.99318 0.0
H1955 H 0.5721 0.98394 0.99557 0.0
H1956 H 0.55617 0.96926 0.96602 0.0
H1957 H 0.58821 0.89819 0.04327 0.0
H1958 H 0.59453 0.9298 0.05508 0.0
H1959 H 0.56801 0.91177 0.05239 0.0
H1960 H 0.59423 1.01054 0.0731 0.0
H1961 H 0.52946 0.97032 0.06577 0.0
H1962 H 0.60571 0.98733 0.02236 0.0
H1963 H 0.61169 0.96425 0.03805 0.0
H1964 H 0.61911 0.99482 0.05394 0.0
H1965 H 0.52447 0.935 0.01152 0.0
H1966 H 0.51535 0.93294 0.04006 0.0
H1967 H 0.53389 0.91649 0.03128 0.0
C1968 C 1.00862 0.75633 0.78582 0.0
C1969 C 0.02403 0.77092 0.77583 0.0
C1970 C 0.9907 0.76372 0.79115 0.0
C1971 C 0.98822 0.78624 0.78645 0.0
C1972 C 1.00408 0.80136 0.77714 0.0
C1973 C 0.02178 0.79352 0.77194 0.0
C1974 C 0.97409 0.74711 0.80107 0.0
C1975 C 1.00208 0.82555 0.77198 0.0
C1976 C 0.93241 0.79529 0.77497 0.0
C1977 C 0.9316 0.80804 0.79769 0.0
C1978 C 0.95071 0.788 0.77111 0.0
C1979 C 0.96867 0.79367 0.79041 0.0
C1980 C 0.96802 0.80664 0.81333 0.0
C1981 C 0.94948 0.81361 0.81672 0.0
C1982 C 0.95082 0.77422 0.74637 0.0
C1983 C 0.98687 0.81305 0.83432 0.0
H1984 H 1.01022 0.73883 0.78879 0.0
H1985 H 0.03362 0.80495 0.76426 0.0
H1986 H 0.97111 0.75642 0.81826 0.0
H1987 H 0.95881 0.74172 0.78767 0.0
H1988 H 0.97888 0.73073 0.80484 0.0
H1989 H 1.01627 0.83557 0.76576 0.0
H1990 H 0.98783 0.82332 0.75757 0.0
H1991 H 0.99984 0.83645 0.78868 0.0
H1992 H 0.91875 0.79113 0.76011 0.0
H1993 H 0.94886 0.82307 0.83447 0.0
H1994 H 0.95404 0.75671 0.74848 0.0
H1995 H 0.96378 0.78416 0.73824 0.0
H1996 H 0.93547 0.77102 0.73339 0.0
H1997 H 0.99078 0.79656 0.83913 0.0
H1998 H 0.98386 0.8234 0.85093 0.0
H1999 H 1.00107 0.82379 0.82877 0.0
C2000 C 0.11635 0.06901 0.91306 0.0
C2001 C 0.12183 0.05104 0.89811 0.0
C2002 C 0.10781 0.06444 0.93397 0.0
C2003 C 0.10392 0.04111 0.93971 0.0
C2004 C 0.10994 0.02303 0.92505 0.0
C2005 C 0.11909 0.0283 0.90462 0.0
C2006 C 0.10254 0.08451 0.94969 0.0
C2007 C 0.10605 0.99793 0.93049 0.0
C2008 C 0.09021 0.03278 1.00253 0.0
C2009 C 0.06798 0.02843 0.99736 0.0
C2010 C 0.10222 0.03645 0.98393 0.0
C2011 C 0.0917 0.03527 0.95954 0.0
C2012 C 0.06917 0.02971 0.95415 0.0
C2013 C 0.05766 0.02671 0.97312 0.0
C2014 C 0.12615 0.04275 0.99086 0.0
C2015 C 0.05715 0.02734 0.92835 0.0
H2016 H 0.1188 0.08675 0.90842 0.0
H2017 H 0.1234 1.01437 0.89324 0.0
H2018 H 0.08502 0.08099 0.94809 0.0
H2019 H 0.1095 0.08552 0.96925 0.0
H2020 H 0.10857 0.10211 0.94431 0.0
H2021 H 0.11214 0.98607 0.91779 0.0
H2022 H 0.11384 0.99819 0.94956 0.0
H2023 H 0.0887 0.99021 0.92897 0.0
H2024 H 0.09828 0.03397 0.02119 0.0
H2025 H 0.04044 0.02306 0.96892 0.0
H2026 H 0.13224 0.06251 0.99483 0.0
H2027 H 0.13349 0.0358 0.97587 0.0
H2028 H 0.13137 0.0357 1.00755 0.0
H2029 H 0.06049 0.04497 0.92236 0.0
H2030 H 0.03965 0.02072 0.92682 0.0
H2031 H 0.06252 1.01488 0.9155 0.0
C2032 C 0.74215 0.39033 0.60117 0.0
C2033 C 0.72501 0.37594 0.5833 0.0
C2034 C 0.74842 0.38265 0.62315 0.0
C2035 C 0.73716 0.36022 0.62728 0.0
C2036 C 0.71827 0.34717 0.61076 0.0
C2037 C 0.71242 0.35518 0.58888 0.0
C2038 C 0.76826 0.39742 0.64079 0.0
C2039 C 0.70541 0.32359 0.61502 0.0
C2040 C 0.76863 0.32155 0.6572 0.0
C2041 C 0.7633 0.32301 0.68047 0.0
C2042 C 0.76058 0.3341 0.63999 0.0
C2043 C 0.74695 0.34855 0.64629 0.0
C2044 C 0.74214 0.35077 0.67009 0.0
C2045 C 0.75028 0.33782 0.68688 0.0
C2046 C 0.76621 0.33136 0.61481 0.0
C2047 C 0.72789 0.36613 0.67772 0.0
H2048 H 0.75182 0.40658 0.59716 0.0
H2049 H 0.69889 0.34421 0.57536 0.0
H2050 H 0.76574 0.39827 0.65998 0.0
H2051 H 0.78151 0.38889 0.63915 0.0
H2052 H 0.77315 0.41591 0.63705 0.0
H2053 H 0.68974 0.3173 0.60228 0.0
H2054 H 0.7144 0.30986 0.6123 0.0
H2055 H 0.70268 0.3251 0.63414 0.0
H2056 H 0.77861 0.31002 0.6522 0.0
H2057 H 0.7465 0.33927 0.70506 0.0
H2058 H 0.77333 0.34916 0.61056 0.0
H2059 H 0.75156 0.32301 0.60078 0.0
H2060 H 0.77763 0.32016 0.61319 0.0
H2061 H 0.72963 0.38212 0.66877 0.0
H2062 H 0.73133 0.37213 0.69791 0.0
H2063 H 0.71105 0.3555 0.67226 0.0
C2064 C 0.48514 0.02949 0.39282 0.0
C2065 C 0.47667 0.04893 0.38829 0.0
C2066 C 0.49579 0.02813 0.41654 0.0
C2067 C 0.4985 0.0467 0.43689 0.0
C2068 C 0.48989 0.06632 0.43247 0.0
C2069 C 0.47914 0.06714 0.40858 0.0
C2070 C 0.50424 1.00664 0.4198 0.0
C2071 C 0.49224 0.08673 0.45307 0.0
C2072 C 0.51475 0.03522 0.5037 0.0
C2073 C 0.53708 0.04424 0.50864 0.0
C2074 C 0.50201 0.03595 0.48079 0.0
C2075 C 0.51153 0.04629 0.46212 0.0
C2076 C 0.53398 0.05588 0.46743 0.0
C2077 C 0.54624 0.0546 0.49014 0.0
C2078 C 0.47828 0.02545 0.47655 0.0
C2079 C 0.54528 0.06736 0.44884 0.0
H2080 H 0.48336 1.01508 0.37772 0.0
H2081 H 0.47272 0.08226 0.40579 0.0
H2082 H 0.52185 1.01232 0.42542 0.0
H2083 H 0.49784 0.99819 0.43463 0.0
H2084 H 0.5 0.99306 0.40275 0.0
H2085 H 0.48449 0.10053 0.44709 0.0
H2086 H 0.48513 0.07989 0.46827 0.0
H2087 H 0.50938 0.09528 0.46048 0.0
H2088 H 0.50723 0.02703 0.51744 0.0
H2089 H 0.56337 0.06172 0.49335 0.0
H2090 H 0.47248 1.01389 0.45823 0.0
H2091 H 0.47016 0.0401 0.47697 0.0
H2092 H 0.47359 1.01476 0.49071 0.0
H2093 H 0.54306 0.05396 0.43203 0.0
H2094 H 0.56263 0.0749 0.45591 0.0
H2095 H 0.5383 0.0819 0.44346 0.0
C2096 C 0.79382 0.7 0.13725 0.0
C2097 C 0.78763 0.70984 0.1166 0.0
C2098 C 0.79562 0.7121 0.16119 0.0
C2099 C 0.79139 0.73485 0.16486 0.0
C2100 C 0.78585 0.74531 0.1442 0.0
C2101 C 0.78392 0.73266 0.12034 0.0
C2102 C 0.80145 0.70013 0.18259 0.0
C2103 C 0.78151 0.76968 0.14728 0.0
C2104 C 0.7746 0.75269 0.22543 0.0
C2105 C 0.79392 0.76658 0.24011 0.0
C2106 C 0.77346 0.74278 0.2008 0.0
C2107 C 0.79202 0.74708 0.19035 0.0
C2108 C 0.81141 0.76176 0.20483 0.0
C2109 C 0.81216 0.77117 0.22952 0.0
C2110 C 0.7525 0.72704 0.18619 0.0
C2111 C 0.83151 0.76709 0.19442 0.0
H2112 H 0.79673 0.68241 0.13475 0.0
H2113 H 0.77915 0.7405 0.10462 0.0
H2114 H 0.81572 0.71186 0.19542 0.0
H2115 H 0.78823 0.69712 0.19291 0.0
H2116 H 0.80478 0.68267 0.17671 0.0
H2117 H 0.77884 0.77608 0.12956 0.0
H2118 H 0.76719 0.76904 0.15564 0.0
H2119 H 0.79506 0.78287 0.15992 0.0
H2120 H 0.76041 0.74895 0.23337 0.0
H2121 H 0.82714 0.78205 0.24058 0.0
H2122 H 0.75405 0.70861 0.181 0.0
H2123 H 0.74814 0.73364 0.16895 0.0
H2124 H 0.73933 0.72629 0.19657 0.0
H2125 H 0.83648 0.75039 0.18998 0.0
H2126 H 0.84485 0.78032 0.20738 0.0
H2127 H 0.82857 0.77407 0.1771 0.0
C2128 C 0.12574 0.0243 0.74301 0.0
C2129 C 0.11873 0.03629 0.76231 0.0
C2130 C 0.11611 0.02252 0.71841 0.0
C2131 C 0.0989 0.03285 0.71277 0.0
C2132 C 0.091 0.04389 0.73216 0.0
C2133 C 0.10103 0.04556 0.75666 0.0
C2134 C 0.12498 1.01045 0.69838 0.0
C2135 C 0.07237 0.05464 0.72699 0.0
C2136 C 0.09184 0.05346 0.65101 0.0
C2137 C 0.07575 0.03441 0.63646 0.0
C2138 C 0.09933 0.0532 0.67583 0.0
C2139 C 0.09029 0.03361 0.68663 0.0
C2140 C 0.07366 1.01457 0.67219 0.0
C2141 C 0.0668 1.01504 0.64721 0.0
C2142 C 0.11721 0.07378 0.6904 0.0
C2143 C 0.06333 0.99349 0.68293 0.0
H2144 H 0.1393 1.01693 0.74703 0.0
H2145 H 0.09537 0.05476 0.77134 0.0
H2146 H 0.11211 0.99623 0.68593 0.0
H2147 H 0.13155 0.02367 0.6872 0.0
H2148 H 0.13779 1.00238 0.70576 0.0
H2149 H 0.06693 0.06068 0.74398 0.0
H2150 H 0.07695 0.0702 0.71775 0.0
H2151 H 0.05882 0.04142 0.71436 0.0
H2152 H 0.09892 0.06847 0.64289 0.0
H2153 H 0.05425 1.00031 0.6362 0.0
H2154 H 0.13113 0.06713 0.69718 0.0
H2155 H 0.11212 0.08206 0.70668 0.0
H2156 H 0.12236 0.0878 0.67941 0.0
H2157 H 0.07416 0.98159 0.6848 0.0
H2158 H 0.04794 0.98301 0.67114 0.0
H2159 H 0.06042 0.99935 0.70147 0.0
C2160 C 0.71021 0.29843 0.44584 0.0
C2161 C 0.70976 0.3225 0.44848 0.0
C2162 C 0.71631 0.28752 0.42528 0.0
C2163 C 0.7219 0.30105 0.40704 0.0
C2164 C 0.71833 0.32408 0.40792 0.0
C2165 C 0.71221 0.33458 0.4287 0.0
C2166 C 0.71935 0.26265 0.4247 0.0
C2167 C 0.72365 0.33894 0.38865 0.0
C2168 C 0.77023 0.29061 0.38279 0.0
C2169 C 0.76085 0.27579 0.36027 0.0
C2170 C 0.75766 0.29938 0.39792 0.0
C2171 C 0.73519 0.29308 0.39021 0.0
C2172 C 0.7257 0.27848 0.36718 0.0
C2173 C 0.73867 0.26977 0.35256 0.0
C2174 C 0.76843 0.31516 0.42228 0.0
C2175 C 0.70192 0.2719 0.35808 0.0
H2176 H 0.70786 0.28881 0.46087 0.0
H2177 H 0.71159 0.3531 0.43044 0.0
H2178 H 0.71355 0.25189 0.40601 0.0
H2179 H 0.7366 0.26382 0.42984 0.0
H2180 H 0.71094 0.25315 0.43771 0.0
H2181 H 0.71447 0.35265 0.38788 0.0
H2182 H 0.74084 0.34835 0.39339 0.0
H2183 H 0.7205 0.32772 0.37023 0.0
H2184 H 0.78739 0.29509 0.3887 0.0
H2185 H 0.73143 0.25847 0.33493 0.0
H2186 H 0.76274 0.30662 0.43741 0.0
H2187 H 0.76424 0.33255 0.42331 0.0
H2188 H 0.78606 0.31867 0.4253 0.0
H2189 H 0.6939 0.25983 0.36943 0.0
H2190 H 0.69744 0.26278 0.33865 0.0
H2191 H 0.69581 0.2881 0.35983 0.0
C2192 C 0.47254 0.04876 0.24509 0.0
C2193 C 0.45661 0.06128 0.24652 0.0
C2194 C 0.48245 0.04642 0.22415 0.0
C2195 C 0.47698 0.05712 0.20346 0.0
C2196 C 0.46115 0.07009 0.2049 0.0
C2197 C 0.45116 0.07176 0.2259 0.0
C2198 C 0.49876 0.03207 0.22412 0.0
C2199 C 0.45473 0.08244 0.18411 0.0
C2200 C 0.51761 0.06884 0.15903 0.0
C2201 C 0.50904 0.0504 0.13838 0.0
C2202 C 0.5074 0.07137 0.17968 0.0
C2203 C 0.48789 0.05492 0.18072 0.0
C2204 C 0.47917 0.0362 0.15997 0.0
C2205 C 0.48956 0.03431 0.13932 0.0
C2206 C 0.51765 0.09191 0.20057 0.0
C2207 C 0.45876 1.01781 0.15963 0.0
H2208 H 0.47711 0.04023 0.26033 0.0
H2209 H 0.43902 0.08149 0.22615 0.0
H2210 H 0.49375 1.01735 0.20805 0.0
H2211 H 0.51428 0.04356 0.22239 0.0
H2212 H 0.50109 0.02429 0.24105 0.0
H2213 H 0.44283 0.09247 0.18795 0.0
H2214 H 0.46897 0.09505 0.18059 0.0
H2215 H 0.44788 0.06907 0.16708 0.0
H2216 H 0.53247 0.08166 0.15908 0.0
H2217 H 0.48243 0.0199 0.12391 0.0
H2218 H 0.52239 0.08494 0.21745 0.0
H2219 H 0.50606 0.10236 0.2044 0.0
H2220 H 0.53197 0.1041 0.19668 0.0
H2221 H 0.46067 1.00865 0.17563 0.0
H2222 H 0.45394 1.00417 0.14261 0.0
H2223 H 0.44573 0.02669 0.16126 0.0
C2224 C 0.76108 0.72866 0.97262 0.0
C2225 C 0.77388 0.71396 0.98077 0.0
C2226 C 0.76452 0.74033 0.95253 0.0
C2227 C 0.78127 0.73749 0.94016 0.0
C2228 C 0.79412 0.72249 0.94814 0.0
C2229 C 0.79025 0.7109 0.96821 0.0
C2230 C 0.75031 0.75597 0.94471 0.0
C2231 C 0.81224 0.71896 0.93572 0.0
C2232 C 0.78185 0.75363 0.87588 0.0
C2233 C 0.79606 0.77645 0.8811 0.0
C2234 C 0.77658 0.74092 0.89482 0.0
C2235 C 0.78598 0.75105 0.91967 0.0
C2236 C 0.80026 0.77416 0.92496 0.0
C2237 C 0.80512 0.78647 0.90571 0.0
C2238 C 0.76131 0.71638 0.88817 0.0
C2239 C 0.81078 0.78578 0.951 0.0
H2240 H 0.74832 0.73115 0.98201 0.0
H2241 H 0.80025 0.69962 0.97423 0.0
H2242 H 0.75993 0.77471 0.947 0.0
H2243 H 0.74298 0.7501 0.92499 0.0
H2244 H 0.73742 0.75558 0.95546 0.0
H2245 H 0.82035 0.70619 0.94353 0.0
H2246 H 0.80626 0.71224 0.91582 0.0
H2247 H 0.82415 0.73635 0.93763 0.0
H2248 H 0.77549 0.74528 0.85697 0.0
H2249 H 0.81633 0.80397 0.90994 0.0
H2250 H 0.74818 0.71543 0.8986 0.0
H2251 H 0.76973 0.70284 0.8933 0.0
H2252 H 0.75434 0.71159 0.86827 0.0
H2253 H 0.7985 0.78707 0.96229 0.0
H2254 H 0.82121 0.80399 0.95215 0.0
H2255 H 0.82053 0.77463 0.95918 0.0
C2256 C 0.90715 0.10957 0.12874 0.0
C2257 C 0.89616 0.12615 0.1217 0.0
C2258 C 0.91492 0.09598 0.1115 0.0
C2259 C 0.91132 0.09889 0.08663 0.0
C2260 C 0.90083 0.11613 0.07956 0.0
C2261 C 0.89345 0.12966 0.09723 0.0
C2262 C 0.92649 0.07805 0.11977 0.0
C2263 C 0.89668 0.11965 0.05322 0.0
C2264 C 0.94632 0.07246 0.04987 0.0
C2265 C 0.93355 0.04905 0.04148 0.0
C2266 C 0.93873 0.0896 0.06317 0.0
C2267 C 0.9179 0.0831 0.06808 0.0
C2268 C 0.90428 0.06021 0.05765 0.0
C2269 C 0.91233 0.04335 0.04452 0.0
C2270 C 0.95374 0.11385 0.07386 0.0
C2271 C 0.88176 0.05288 0.06202 0.0
H2272 H 0.90936 0.1069 0.14764 0.0
H2273 H 0.8849 0.14242 0.09164 0.0
H2274 H 0.91725 0.0597 0.11076 0.0
H2275 H 0.94226 0.08124 0.11422 0.0
H2276 H 0.92893 0.07887 0.13995 0.0
H2277 H 0.89012 0.13533 0.05117 0.0
H2278 H 0.91155 0.12209 0.04572 0.0
H2279 H 0.88513 0.10347 0.04191 0.0
H2280 H 0.96285 0.07689 0.04787 0.0
H2281 H 0.90243 0.02531 0.03785 0.0
H2282 H 0.95947 0.11462 0.0937 0.0
H2283 H 0.9455 0.12825 0.07209 0.0
H2284 H 0.96781 0.11748 0.06487 0.0
H2285 H 0.88213 0.05044 0.08137 0.0
H2286 H 0.8724 0.03588 0.04991 0.0
H2287 H 0.87345 0.06702 0.05897 0.0
C2288 C 0.41192 0.44377 0.09642 0.0
C2289 C 0.39382 0.45279 0.09355 0.0
C2290 C 0.43208 0.45762 0.09461 0.0
C2291 C 0.43425 0.48094 0.08908 0.0
C2292 C 0.41604 0.49018 0.08619 0.0
C2293 C 0.39615 0.47615 0.0888 0.0
C2294 C 0.45108 0.44723 0.09858 0.0
C2295 C 0.41746 0.51469 0.07973 0.0
C2296 C 0.48924 0.52544 0.10313 0.0
C2297 C 0.49575 0.52295 0.08046 0.0
C2298 C 0.46947 0.51171 0.10628 0.0
C2299 C 0.45551 0.4955 0.08609 0.0
C2300 C 0.46203 0.49302 0.06309 0.0
C2301 C 0.48217 0.50651 0.06066 0.0
C2302 C 0.46359 0.51442 0.1313 0.0
C2303 C 0.44762 0.47634 0.04095 0.0
H2304 H 0.41034 0.4258 0.10024 0.0
H2305 H 0.38226 0.4832 0.08633 0.0
H2306 H 0.45766 0.44553 0.08156 0.0
H2307 H 0.46389 0.45939 0.11307 0.0
H2308 H 0.44699 0.42936 0.104 0.0
H2309 H 0.40188 0.51924 0.07786 0.0
H2310 H 0.42916 0.52842 0.09402 0.0
H2311 H 0.42324 0.51561 0.0622 0.0
H2312 H 0.49976 0.53799 0.11856 0.0
H2313 H 0.48709 0.50456 0.04307 0.0
H2314 H 0.46016 0.49682 0.13736 0.0
H2315 H 0.44889 0.52074 0.13046 0.0
H2316 H 0.47643 0.52721 0.14529 0.0
H2317 H 0.44432 0.45769 0.04437 0.0
H2318 H 0.45466 0.47711 0.02418 0.0
H2319 H 0.4321 0.48094 0.03751 0.0
C2320 C 0.41751 0.58133 0.80354 0.0
C2321 C 0.41108 0.56522 0.78125 0.0
C2322 C 0.40838 0.60063 0.80783 0.0
C2323 C 0.39252 0.60383 0.78936 0.0
C2324 C 0.38635 0.58793 0.76664 0.0
C2325 C 0.39567 0.56883 0.76289 0.0
C2326 C 0.41534 0.61726 0.83228 0.0
C2327 C 0.36951 0.59075 0.74646 0.0
C2328 C 0.35072 0.63499 0.8055 0.0
C2329 C 0.35767 0.65723 0.7985 0.0
C2330 C 0.36234 0.61778 0.80342 0.0
C2331 C 0.38139 0.62292 0.79407 0.0
C2332 C 0.38886 0.6456 0.78765 0.0
C2333 C 0.37691 0.66255 0.78999 0.0
C2334 C 0.35388 0.59384 0.81058 0.0
C2335 C 0.40908 0.65168 0.77755 0.0
H2336 H 0.42945 0.57868 0.81778 0.0
H2337 H 0.39069 0.55656 0.74554 0.0
H2338 H 0.42037 0.63606 0.82954 0.0
H2339 H 0.40174 0.61585 0.84201 0.0
H2340 H 0.4287 0.61315 0.84416 0.0
H2341 H 0.36726 0.57754 0.72946 0.0
H2342 H 0.35406 0.58849 0.75272 0.0
H2343 H 0.37386 0.60899 0.74201 0.0
H2344 H 0.33607 0.631 0.81256 0.0
H2345 H 0.3823 0.67969 0.78448 0.0
H2346 H 0.36631 0.58973 0.82383 0.0
H2347 H 0.34967 0.57956 0.79415 0.0
H2348 H 0.33953 0.59322 0.81891 0.0
H2349 H 0.42242 0.64805 0.78985 0.0
H2350 H 0.41359 0.67068 0.77524 0.0
H2351 H 0.40696 0.64018 0.75946 0.0
C2352 C 0.27849 0.62716 0.58384 0.0
C2353 C 0.28665 0.65134 0.58279 0.0
C2354 C 0.25652 0.61681 0.57872 0.0
C2355 C 0.24253 0.63109 0.57255 0.0
C2356 C 0.25077 0.65446 0.56818 0.0
C2357 C 0.27286 0.66438 0.57336 0.0
C2358 C 0.24836 0.59162 0.58303 0.0
C2359 C 0.2363 0.67001 0.56097 0.0
C2360 C 0.18302 0.60322 0.56323 0.0
C2361 C 0.17932 0.60923 0.58698 0.0
C2362 C 0.20347 0.61056 0.5579 0.0
C2363 C 0.22047 0.62399 0.57685 0.0
C2364 C 0.21672 0.63026 0.60078 0.0
C2365 C 0.19618 0.62286 0.60549 0.0
C2366 C 0.2069 0.60358 0.53221 0.0
C2367 C 0.23443 0.64467 0.62155 0.0
H2368 H 0.28916 0.61678 0.59046 0.0
H2369 H 0.27912 0.68295 0.57206 0.0
H2370 H 0.24368 0.59225 0.60126 0.0
H2371 H 0.23408 0.5818 0.56906 0.0
H2372 H 0.26069 0.58148 0.58272 0.0
H2373 H 0.24459 0.68516 0.55302 0.0
H2374 H 0.2219 0.65949 0.54751 0.0
H2375 H 0.23097 0.67746 0.57747 0.0
H2376 H 0.16999 0.59254 0.54892 0.0
H2377 H 0.19326 0.62798 0.62371 0.0
H2378 H 0.21572 0.58954 0.53193 0.0
H2379 H 0.21669 0.61907 0.52608 0.0
H2380 H 0.1916 0.59652 0.51888 0.0
H2381 H 0.24695 0.63497 0.62475 0.0
H2382 H 0.22869 0.64825 0.63895 0.0
H2383 H 0.24195 0.66205 0.61669 0.0
C2384 C 0.72081 0.9404 0.83834 0.0
C2385 C 0.72121 0.95387 0.8191 0.0
C2386 C 0.73003 0.92039 0.83882 0.0
C2387 C 0.74005 0.91259 0.81948 0.0
C2388 C 0.74033 0.92599 0.79991 0.0
C2389 C 0.73124 0.94613 0.80004 0.0
C2390 C 0.72907 0.9075 0.86035 0.0
C2391 C 0.75018 0.91888 0.77844 0.0
C2392 C 0.78116 0.87332 0.82927 0.0
C2393 C 0.76904 0.84951 0.81991 0.0
C2394 C 0.77208 0.89348 0.82955 0.0
C2395 C 0.75008 0.8907 0.8197 0.0
C2396 C 0.73783 0.86673 0.80999 0.0
C2397 C 0.74719 0.84684 0.81044 0.0
C2398 C 0.78623 0.91802 0.84061 0.0
C2399 C 0.71465 0.86202 0.79846 0.0
H2400 H 0.7133 0.94562 0.85334 0.0
H2401 H 0.73186 0.95578 0.78485 0.0
H2402 H 0.71985 0.8886 0.85399 0.0
H2403 H 0.74538 0.90738 0.86903 0.0
H2404 H 0.72155 0.91586 0.87441 0.0
H2405 H 0.74883 0.93035 0.76429 0.0
H2406 H 0.76727 0.92006 0.78483 0.0
H2407 H 0.74231 0.90001 0.76986 0.0
H2408 H 0.79795 0.87631 0.83672 0.0
H2409 H 0.73729 0.829 0.80281 0.0
H2410 H 0.77942 0.92638 0.85537 0.0
H2411 H 0.78699 0.92963 0.82648 0.0
H2412 H 0.80269 0.91754 0.84837 0.0
H2413 H 0.70602 0.87014 0.81134 0.0
H2414 H 0.70674 0.84264 0.79293 0.0
H2415 H 0.71326 0.87058 0.78197 0.0
C2416 C 0.78172 0.97173 0.62187 0.0
C2417 C 0.78449 0.95418 0.60384 0.0
C2418 C 0.76324 0.98017 0.61935 0.0
C2419 C 0.74702 0.97104 0.59818 0.0
C2420 C 0.74975 0.95341 0.57983 0.0
C2421 C 0.76836 0.94514 0.58291 0.0
C2422 C 0.76105 0.99888 0.63945 0.0
C2423 C 0.73301 0.94329 0.55688 0.0
C2424 C 0.69113 0.97863 0.60155 0.0
C2425 C 0.69101 0.99906 0.59092 0.0
C2426 C 0.70911 0.96921 0.60386 0.0
C2427 C 0.72744 0.98029 0.59513 0.0
C2428 C 0.72727 1.00068 0.58403 0.0
C2429 C 0.70917 1.0098 0.58212 0.0
C2430 C 0.7086 0.94758 0.61599 0.0
C2431 C 0.7463 1.01299 0.57424 0.0
H2432 H 0.79397 0.9788 0.63818 0.0
H2433 H 0.77028 0.93159 0.56886 0.0
H2434 H 0.75952 1.01519 0.63201 0.0
H2435 H 0.74635 0.99218 0.64658 0.0
H2436 H 0.77488 1.00388 0.65495 0.0
H2437 H 0.73747 0.92971 0.54432 0.0
H2438 H 0.7176 0.93493 0.56177 0.0
H2439 H 0.73046 0.95788 0.54693 0.0
H2440 H 0.67729 0.97026 0.60857 0.0
H2441 H 0.70917 0.02532 0.57347 0.0
H2442 H 0.7213 0.95218 0.63265 0.0
H2443 H 0.71186 0.93308 0.60344 0.0
H2444 H 0.69303 0.94069 0.62132 0.0
H2445 H 0.76037 0.01973 0.58936 0.0
H2446 H 0.74346 0.02824 0.56551 0.0
H2447 H 0.75032 1.00006 0.56054 0.0
C2448 C 0.3826 0.44118 0.7823 0.0
C2449 C 0.40293 0.43894 0.77947 0.0
C2450 C 0.36659 0.42141 0.78452 0.0
C2451 C 0.37073 0.3986 0.78318 0.0
C2452 C 0.39101 0.39604 0.77949 0.0
C2453 C 0.40699 0.41632 0.77811 0.0
C2454 C 0.34544 0.42512 0.7891 0.0
C2455 C 0.39614 0.37209 0.77767 0.0
C2456 C 0.33703 0.35389 0.81425 0.0
C2457 C 0.32066 0.34107 0.79474 0.0
C2458 C 0.3536 0.37238 0.81067 0.0
C2459 C 0.35407 0.37784 0.78685 0.0
C2460 C 0.33792 0.36433 0.76691 0.0
C2461 C 0.32119 0.34632 0.77116 0.0
C2462 C 0.37031 0.38644 0.83249 0.0
C2463 C 0.33836 0.36891 0.74111 0.0
H2464 H 0.37938 0.45863 0.78359 0.0
H2465 H 0.42263 0.41444 0.77587 0.0
H2466 H 0.33232 0.41359 0.77457 0.0
H2467 H 0.34254 0.41985 0.80684 0.0
H2468 H 0.34474 0.44399 0.78962 0.0
H2469 H 0.40979 0.3718 0.76826 0.0
H2470 H 0.40056 0.36845 0.79642 0.0
H2471 H 0.38223 0.35743 0.76776 0.0
H2472 H 0.33663 0.34979 0.8325 0.0
H2473 H 0.3087 0.33612 0.756 0.0
H2474 H 0.37068 0.40569 0.83438 0.0
H2475 H 0.38628 0.38476 0.82972 0.0
H2476 H 0.36738 0.38028 0.84987 0.0
H2477 H 0.33653 0.38713 0.7398 0.0
H2478 H 0.32551 0.35578 0.72742 0.0
H2479 H 0.35398 0.3681 0.73634 0.0
C2480 C 0.23787 0.60238 0.33014 0.0
C2481 C 0.2182 0.59779 0.33815 0.0
C2482 C 0.2491 0.62593 0.32802 0.0
C2483 C 0.24059 0.64595 0.33351 0.0
C2484 C 0.22085 0.64142 0.34174 0.0
C2485 C 0.21018 0.61786 0.34409 0.0
C2486 C 0.27013 0.62935 0.31959 0.0
C2487 C 0.2106 0.66152 0.34759 0.0
C2488 C 0.27548 0.71201 0.34694 0.0
C2489 C 0.27154 0.72001 0.32441 0.0
C2490 C 0.26611 0.68819 0.34996 0.0
C2491 C 0.25186 0.67137 0.3302 0.0
C2492 C 0.24783 0.67937 0.30743 0.0
C2493 C 0.25771 0.70315 0.30479 0.0
C2494 C 0.27148 0.68102 0.37455 0.0
C2495 C 0.23266 0.66283 0.28574 0.0
H2496 H 0.2445 0.58747 0.32529 0.0
H2497 H 0.19503 0.61514 0.35008 0.0
H2498 H 0.26879 0.63567 0.30175 0.0
H2499 H 0.28257 0.6433 0.33292 0.0
H2500 H 0.27542 0.6126 0.31743 0.0
H2501 H 0.19535 0.65542 0.35391 0.0
H2502 H 0.22157 0.67575 0.36205 0.0
H2503 H 0.20745 0.66967 0.33107 0.0
H2504 H 0.28607 0.72442 0.36239 0.0
H2505 H 0.25424 0.70867 0.28724 0.0
H2506 H 0.27743 0.66473 0.3723 0.0
H2507 H 0.25692 0.67658 0.38253 0.0
H2508 H 0.28371 0.69539 0.3877 0.0
H2509 H 0.23817 0.6465 0.28121 0.0
H2510 H 0.23115 0.67138 0.26923 0.0
H2511 H 0.21666 0.65706 0.2904 0.0
C2512 C 0.54918 0.70633 0.53108 0.0
C2513 C 0.53635 0.70512 0.50823 0.0
C2514 C 0.55138 0.68546 0.54022 0.0
C2515 C 0.54106 0.66258 0.52593 0.0
C2516 C 0.52791 0.66126 0.50293 0.0
C2517 C 0.52549 0.68244 0.49455 0.0
C2518 C 0.5651 0.68793 0.56509 0.0
C2519 C 0.51703 0.63744 0.48668 0.0
C2520 C 0.56696 0.61175 0.53806 0.0
C2521 C 0.55328 0.59857 0.55118 0.0
C2522 C 0.5629 0.63213 0.52935 0.0
C2523 C 0.54501 0.64022 0.53443 0.0
C2524 C 0.53119 0.62706 0.54785 0.0
C2525 C 0.5353 0.60624 0.55571 0.0
C2526 C 0.57778 0.64496 0.51456 0.0
C2527 C 0.51225 0.6352 0.5543 0.0
H2528 H 0.5576 0.7237 0.54187 0.0
H2529 H 0.51572 0.68122 0.47678 0.0
H2530 H 0.55619 0.6768 0.57658 0.0
H2531 H 0.57937 0.68138 0.563 0.0
H2532 H 0.57046 0.70675 0.57489 0.0
H2533 H 0.50683 0.6393 0.46969 0.0
H2534 H 0.5292 0.62841 0.48147 0.0
H2535 H 0.50703 0.62564 0.49672 0.0
H2536 H 0.58077 0.60587 0.53418 0.0
H2537 H 0.52466 0.59626 0.56588 0.0
H2538 H 0.58576 0.66337 0.52447 0.0
H2539 H 0.56862 0.64649 0.49676 0.0
H2540 H 0.59021 0.63564 0.51092 0.0
H2541 H 0.51769 0.65355 0.56522 0.0
H2542 H 0.50314 0.62321 0.56498 0.0
H2543 H 0.5014 0.63594 0.53738 0.0
C2544 C 0.65261 0.30262 0.75515 0.0
C2545 C 0.65188 0.3129 0.73383 0.0
C2546 C 0.67209 0.30181 0.76914 0.0
C2547 C 0.69155 0.31181 0.762 0.0
C2548 C 0.69098 0.32268 0.74084 0.0
C2549 C 0.67124 0.32302 0.727 0.0
C2550 C 0.67178 0.28961 0.79124 0.0
C2551 C 0.71126 0.33393 0.73274 0.0
C2552 C 0.74187 0.32633 0.81167 0.0
C2553 C 0.75075 0.30723 0.80556 0.0
C2554 C 0.72311 0.32849 0.79721 0.0
C2555 C 0.7124 0.31062 0.77657 0.0
C2556 C 0.72129 0.29118 0.77043 0.0
C2557 C 0.74054 0.28996 0.78473 0.0
C2558 C 0.71459 0.34978 0.80422 0.0
C2559 C 0.7102 0.27136 0.74906 0.0
H2560 H 0.63785 0.29452 0.76059 0.0
H2561 H 0.67099 0.33102 0.71062 0.0
H2562 H 0.67929 0.27451 0.7888 0.0
H2563 H 0.68124 0.30227 0.80789 0.0
H2564 H 0.65537 0.28262 0.79437 0.0
H2565 H 0.70809 0.33998 0.71491 0.0
H2566 H 0.7207 0.34953 0.74677 0.0
H2567 H 0.72117 0.32105 0.73103 0.0
H2568 H 0.7497 0.33971 0.82779 0.0
H2569 H 0.74708 0.27491 0.78025 0.0
H2570 H 0.69885 0.34376 0.80941 0.0
H2571 H 0.7122 0.35897 0.78832 0.0
H2572 H 0.72544 0.36286 0.81981 0.0
H2573 H 0.69324 0.26442 0.75023 0.0
H2574 H 0.71779 0.25624 0.74829 0.0
H2575 H 0.7105 0.27843 0.73167 0.0
C2576 C 0.03681 0.35295 0.99683 0.0
C2577 C 0.02715 0.33569 1.00965 0.0
C2578 C 0.04099 0.37763 1.00599 0.0
C2579 C 0.03583 0.38541 0.02884 0.0
C2580 C 0.02687 0.36802 0.04232 0.0
C2581 C 0.02242 0.34348 0.03247 0.0
C2582 C 0.0502 0.39539 0.99073 0.0
C2583 C 0.02153 0.37535 0.06698 0.0
C2584 C 0.06112 0.45047 0.06055 0.0
C2585 C 0.04437 0.46128 0.0552 0.0
C2586 C 0.05853 0.42585 0.05242 0.0
C2587 C 0.03885 0.41162 0.03808 0.0
C2588 C 0.02195 0.42251 0.03251 0.0
C2589 C 0.02483 0.44703 0.04131 0.0
C2590 C 0.07686 0.41503 0.05928 0.0
C2591 C 1.00082 0.40829 0.01693 0.0
H2592 H 0.04037 0.3472 0.9791 0.0
H2593 H 1.015 0.33035 0.04259 0.0
H2594 H 0.03865 0.40585 0.98547 0.0
H2595 H 0.06492 0.40826 1.00155 0.0
H2596 H 0.05401 0.38659 0.97378 0.0
H2597 H 1.01627 0.3598 0.07605 0.0
H2598 H 0.03561 0.38811 0.07922 0.0
H2599 H 1.00863 0.38464 0.06474 0.0
H2600 H 0.07626 0.46123 0.07134 0.0
H2601 H 1.01183 0.45516 0.03685 0.0
H2602 H 0.08159 0.40727 0.04249 0.0
H2603 H 0.07184 0.40023 0.06937 0.0
H2604 H 0.09099 0.42834 0.07086 0.0
H2605 H 1.00329 0.40014 0.99892 0.0
H2606 H 0.98944 0.41944 0.01375 0.0
H2607 H 0.99352 0.39346 0.02591 0.0
C2608 C 0.02441 0.79091 0.24451 0.0
C2609 C 0.03061 0.80446 0.2267 0.0
C2610 C 1.00551 0.79113 0.2533 0.0
C2611 C 0.99228 0.80522 0.24411 0.0
C2612 C 0.99855 0.81918 0.22635 0.0
C2613 C 0.01761 0.81865 0.21788 0.0
C2614 C 0.99957 0.77603 0.27228 0.0
C2615 C 0.98498 0.83447 0.21606 0.0
C2616 C 0.93394 0.78683 0.25074 0.0
C2617 C 0.93367 0.80271 0.27178 0.0
C2618 C 0.95271 0.78781 0.24124 0.0
C2619 C 0.97184 0.80506 0.253 0.0
C2620 C 0.97159 0.82143 0.27395 0.0
C2621 C 0.9526 0.82006 0.28305 0.0
C2622 C 0.95215 0.77007 0.21881 0.0
C2623 C 0.99157 0.84006 0.28716 0.0
H2624 H 0.03427 0.77987 0.25149 0.0
H2625 H 0.02217 0.82915 0.2041 0.0
H2626 H 0.99758 0.78743 0.28879 0.0
H2627 H 0.98408 0.76269 0.26491 0.0
H2628 H 1.01173 0.76641 0.27792 0.0
H2629 H 0.99222 0.84464 0.20272 0.0
H2630 H 0.96903 0.82305 0.20677 0.0
H2631 H 0.98255 0.8473 0.23113 0.0
H2632 H 0.91941 0.77357 0.24163 0.0
H2633 H 0.95278 0.83222 0.2995 0.0
H2634 H 0.96289 0.75857 0.22352 0.0
H2635 H 0.95805 0.77961 0.20438 0.0
H2636 H 0.93587 0.75844 0.21117 0.0
H2637 H 1.00363 0.83116 0.29482 0.0
H2638 H 0.98853 0.85229 0.30237 0.0
H2639 H 0.99855 0.85084 0.27415 0.0
C2640 C 0.53552 0.33611 0.20894 0.0
C2641 C 0.55019 0.32611 0.19837 0.0
C2642 C 0.53019 0.35637 0.20154 0.0
C2643 C 0.53971 0.3666 0.18313 0.0
C2644 C 0.55526 0.35718 0.1733 0.0
C2645 C 0.5603 0.33709 0.18107 0.0
C2646 C 0.51375 0.36608 0.21263 0.0
C2647 C 0.56598 0.36768 0.15376 0.0
C2648 C 0.51543 0.39638 0.13522 0.0
C2649 C 0.52907 0.41949 0.14149 0.0
C2650 C 0.51693 0.37943 0.15041 0.0
C2651 C 0.53251 0.38579 0.17223 0.0
C2652 C 0.54441 0.40985 0.18012 0.0
C2653 C 0.54257 0.42648 0.16458 0.0
C2654 C 0.50366 0.35402 0.14154 0.0
C2655 C 0.56077 0.41749 0.20361 0.0
H2656 H 0.52774 0.32773 0.22244 0.0
H2657 H 0.57185 0.32963 0.17306 0.0
H2658 H 0.51829 0.38591 0.21611 0.0
H2659 H 0.49826 0.36003 0.19962 0.0
H2660 H 0.51146 0.35974 0.2301 0.0
H2661 H 0.57842 0.35888 0.14891 0.0
H2662 H 0.55394 0.3657 0.13691 0.0
H2663 H 0.57349 0.38705 0.16005 0.0
H2664 H 0.50491 0.39081 0.11746 0.0
H2665 H 0.55275 0.44452 0.1698 0.0
H2666 H 0.49762 0.34615 0.15684 0.0
H2667 H 0.51371 0.34301 0.13417 0.0
H2668 H 0.4899 0.35289 0.1268 0.0
H2669 H 0.55493 0.40851 0.21841 0.0
H2670 H 0.56498 0.43717 0.20982 0.0
H2671 H 0.57548 0.41229 0.20056 0.0
C2672 C 0.95774 0.29977 0.40359 0.0
C2673 C 0.9716 0.30978 0.38887 0.0
C2674 C 0.93564 0.29536 0.3963 0.0
C2675 C 0.92727 0.30181 0.37413 0.0
C2676 C 0.94124 0.31228 0.35937 0.0
C2677 C 0.96326 0.31572 0.36672 0.0
C2678 C 0.92124 0.28359 0.41219 0.0
C2679 C 0.93317 0.31955 0.33559 0.0
C2680 C 0.8695 0.27321 0.34432 0.0
C2681 C 0.85952 0.29053 0.35304 0.0
C2682 C 0.89154 0.27654 0.35114 0.0
C2683 C 0.90392 0.29787 0.36675 0.0
C2684 C 0.894 0.31546 0.37553 0.0
C2685 C 0.87188 0.31148 0.36878 0.0
C2686 C 0.90159 0.25744 0.34128 0.0
C2687 C 0.90686 0.33884 0.39142 0.0
H2688 H 0.96416 0.29486 0.4206 0.0
H2689 H 0.97396 0.32342 0.35529 0.0
H2690 H 0.91171 0.29568 0.41864 0.0
H2691 H 0.90987 0.26704 0.40132 0.0
H2692 H 0.93028 0.27892 0.42844 0.0
H2693 H 0.94522 0.33445 0.33134 0.0
H2694 H 0.93012 0.30411 0.32052 0.0
H2695 H 0.91818 0.3251 0.33588 0.0
H2696 H 0.86018 0.25717 0.3318 0.0
H2697 H 0.86441 0.32517 0.37527 0.0
H2698 H 0.91175 0.25258 0.35648 0.0
H2699 H 0.91199 0.26442 0.32865 0.0
H2700 H 0.88951 0.24103 0.33115 0.0
H2701 H 0.91573 0.33546 0.40851 0.0
H2702 H 0.89675 0.35084 0.39643 0.0
H2703 H 0.9188 0.34822 0.3816 0.0
C2704 C 0.0611 0.71613 0.65232 0.0
C2705 C 0.0502 0.71441 0.6719 0.0
C2706 C 0.05561 0.69779 0.63182 0.0
C2707 C 0.0385 0.67759 0.6307 0.0
C2708 C 0.02607 0.67702 0.64924 0.0
C2709 C 0.0323 0.69526 0.66988 0.0
C2710 C 0.06956 0.69889 0.61275 0.0
C2711 C 1.00728 0.65613 0.64833 0.0
C2712 C 0.02272 0.62685 0.57551 0.0
C2713 C 0.03295 0.6105 0.58482 0.0
C2714 C 0.02439 0.6491 0.59005 0.0
C2715 C 0.03698 0.65505 0.61403 0.0
C2716 C 0.04786 0.63882 0.62299 0.0
C2717 C 0.04525 0.61667 0.60856 0.0
C2718 C 1.01197 0.66564 0.58027 0.0
C2719 C 0.0618 0.64443 0.64825 0.0
H2720 H 0.07487 0.73103 0.65375 0.0
H2721 H 0.02354 0.69418 0.68475 0.0
H2722 H 0.08022 0.68691 0.61573 0.0
H2723 H 0.05983 0.69259 0.59402 0.0
H2724 H 0.07961 0.71727 0.6138 0.0
H2725 H 0.99672 0.66068 0.66089 0.0
H2726 H 0.9978 0.65014 0.62943 0.0
H2727 H 1.01308 0.6409 0.6539 0.0
H2728 H 1.01282 0.62193 0.55735 0.0
H2729 H 0.05248 0.60386 0.61635 0.0
H2730 H 0.02202 0.68428 0.58382 0.0
H2731 H 0.99842 0.66554 0.5899 0.0
H2732 H 1.00555 0.66012 0.56027 0.0
H2733 H 0.07326 0.66225 0.65108 0.0
H2734 H 0.07096 0.63096 0.65122 0.0
H2735 H 0.05178 0.64489 0.66243 0.0
C2736 C 0.59505 0.83415 0.8481 0.0
C2737 C 0.5967 0.83118 0.8727 0.0
C2738 C 0.60812 0.82561 0.83329 0.0
C2739 C 0.6231 0.81387 0.84337 0.0
C2740 C 0.62511 0.81133 0.8683 0.0
C2741 C 0.61196 0.82002 0.88259 0.0
C2742 C 0.60561 0.82868 0.80679 0.0
C2743 C 0.64096 0.79905 0.87987 0.0
C2744 C 0.64457 0.76833 0.80743 0.0
C2745 C 0.66565 0.78128 0.80872 0.0
C2746 C 0.62994 0.77925 0.81696 0.0
C2747 C 0.6366 0.80367 0.82814 0.0
C2748 C 0.65745 0.8172 0.82804 0.0
C2749 C 0.67172 0.80584 0.81833 0.0
C2750 C 0.60783 0.76421 0.81664 0.0
C2751 C 0.66517 0.84325 0.83983 0.0
H2752 H 0.5833 0.84272 0.84029 0.0
H2753 H 0.61352 0.81773 0.9016 0.0
H2754 H 0.62121 0.83758 0.8027 0.0
H2755 H 0.59999 0.81089 0.79474 0.0
H2756 H 0.5941 0.83936 0.80209 0.0
H2757 H 0.64079 0.79895 0.89964 0.0
H2758 H 0.63734 0.78028 0.87028 0.0
H2759 H 0.6573 0.8081 0.87798 0.0
H2760 H 0.63973 0.74942 0.79976 0.0
H2761 H 0.68805 0.81592 0.81968 0.0
H2762 H 0.59568 0.77367 0.81061 0.0
H2763 H 0.60641 0.76103 0.83546 0.0
H2764 H 0.60419 0.74661 0.80437 0.0
H2765 H 0.65394 0.85331 0.83257 0.0
H2766 H 0.6813 0.85166 0.83672 0.0
H2767 H 0.66576 0.845 0.85989 0.0
C2768 C 0.50424 0.51172 0.72601 0.0
C2769 C 0.48363 0.51492 0.72485 0.0
C2770 C 0.5159 0.5173 0.70756 0.0
C2771 C 0.50676 0.5263 0.68743 0.0
C2772 C 0.48595 0.52946 0.68609 0.0
C2773 C 0.47467 0.52377 0.70477 0.0
C2774 C 0.53802 0.51359 0.70961 0.0
C2775 C 0.4756 0.53893 0.66494 0.0
C2776 C 0.54423 0.56031 0.65096 0.0
C2777 C 0.543 0.5426 0.63093 0.0
C2778 C 0.53233 0.55536 0.66935 0.0
C2779 C 0.51888 0.53216 0.66762 0.0
C2780 C 0.51719 0.51441 0.64706 0.0
C2781 C 0.52928 0.51984 0.62901 0.0
C2782 C 0.53444 0.57483 0.69086 0.0
C2783 C 0.50293 0.48952 0.64435 0.0
H2784 H 0.51134 0.50493 0.74141 0.0
H2785 H 0.45878 0.52636 0.70363 0.0
H2786 H 0.53878 0.50089 0.6934 0.0
H2787 H 0.54971 0.53074 0.70981 0.0
H2788 H 0.5429 0.50653 0.72643 0.0
H2789 H 0.45916 0.53995 0.66634 0.0
H2790 H 0.48526 0.55705 0.66425 0.0
H2791 H 0.47499 0.52733 0.64735 0.0
H2792 H 0.55478 0.57794 0.65247 0.0
H2793 H 0.5283 0.50606 0.61359 0.0
H2794 H 0.54081 0.56938 0.70809 0.0
H2795 H 0.51856 0.57765 0.69246 0.0
H2796 H 0.54515 0.59207 0.6892 0.0
H2797 H 0.50826 0.48097 0.65985 0.0
H2798 H 0.50292 0.478 0.62691 0.0
H2799 H 0.48634 0.49036 0.64501 0.0
C2800 C 0.87343 0.20057 0.05655 0.0
C2801 C 0.86199 0.20955 0.07308 0.0
C2802 C 0.87451 0.20887 0.03426 0.0
C2803 C 0.86394 0.22653 0.02858 0.0
C2804 C 0.85295 0.23613 0.04558 0.0
C2805 C 0.8521 0.2275 0.06758 0.0
C2806 C 0.88637 0.19828 0.01654 0.0
C2807 C 0.84152 0.25508 0.04026 0.0
C2808 C 0.87302 0.26591 0.98108 0.0
C2809 C 0.85427 0.25604 0.96354 0.0
C2810 C 0.87754 0.25521 1.00154 0.0
C2811 C 0.86295 0.23418 1.00435 0.0
C2812 C 0.84512 0.22293 0.98549 0.0
C2813 C 0.84094 0.23405 0.96534 0.0
C2814 C 0.89688 0.26758 0.02112 0.0
C2815 C 0.82926 0.20037 0.9877 0.0
H2816 H 0.88113 0.18669 0.06076 0.0
H2817 H 0.84337 0.23465 0.08036 0.0
H2818 H 0.87492 0.18775 0.99992 0.0
H2819 H 0.89764 0.21267 1.01053 0.0
H2820 H 0.89538 0.18639 0.02465 0.0
H2821 H 0.83453 0.26139 0.05591 0.0
H2822 H 0.85267 0.27068 0.0359 0.0
H2823 H 0.82851 0.24785 0.024 0.0
H2824 H 0.88365 0.28262 0.97944 0.0
H2825 H 0.82637 0.22632 0.95193 0.0
H2826 H 0.90486 0.25443 0.02823 0.0
H2827 H 0.89183 0.27712 0.03672 0.0
H2828 H 0.90857 0.28082 0.0142 0.0
H2829 H 0.83754 0.18727 0.99434 0.0
H2830 H 0.81838 0.19184 0.96994 0.0
H2831 H 0.81949 0.20476 1.00127 0.0
C2832 C 0.13965 0.50903 0.24189 0.0
C2833 C 0.13477 0.51931 0.26387 0.0
C2834 C 0.1284 0.50997 0.2183 0.0
C2835 C 0.11165 0.52169 0.21591 0.0
C2836 C 0.10654 0.53195 0.238 0.0
C2837 C 0.11795 0.53062 0.26135 0.0
C2838 C 0.1346 0.49846 0.19577 0.0
C2839 C 0.08905 0.54472 0.237 0.0
C2840 C 0.09382 0.54257 0.15434 0.0
C2841 C 0.075 0.52484 0.14322 0.0
C2842 C 0.10581 0.54179 0.17763 0.0
C2843 C 0.09921 0.52273 0.19055 0.0
C2844 C 0.08038 0.50466 0.17914 0.0
C2845 C 0.06867 0.50598 0.15602 0.0
C2846 C 0.12556 0.56162 0.18858 0.0
C2847 C 0.07243 0.4838 0.19147 0.0
H2848 H 0.15255 0.50035 0.24305 0.0
H2849 H 0.11386 0.53894 0.27776 0.0
H2850 H 0.12062 0.48481 0.18439 0.0
H2851 H 0.13978 0.51209 0.18441 0.0
H2852 H 0.14768 0.48979 0.20038 0.0
H2853 H 0.08694 0.55198 0.25554 0.0
H2854 H 0.09267 0.55968 0.22672 0.0
H2855 H 0.07375 0.53231 0.227 0.0
H2856 H 0.09908 0.5573 0.14496 0.0
H2857 H 0.0543 0.49203 0.14791 0.0
H2858 H 0.13953 0.55412 0.19209 0.0
H2859 H 0.12376 0.57075 0.2065 0.0
H2860 H 0.12886 0.57508 0.17648 0.0
H2861 H 0.08502 0.47427 0.19519 0.0
H2862 H 0.05791 0.47087 0.1802 0.0
H2863 H 0.06874 0.49034 0.2094 0.0
C2864 C 0.81208 0.87219 0.5049 0.0
C2865 C 0.82139 0.8599 0.52155 0.0
C2866 C 0.80752 0.86345 0.47949 0.0
C2867 C 0.81207 0.84171 0.47049 0.0
C2868 C 0.82053 0.82869 0.48733 0.0
C2869 C 0.82526 0.83803 0.51258 0.0
C2870 C 0.79875 0.87806 0.4622 0.0
C2871 C 0.82527 0.80525 0.47864 0.0
C2872 C 0.78818 0.81041 0.40437 0.0
C2873 C 0.80553 0.81684 0.39264 0.0
C2874 C 0.79 0.81837 0.42966 0.0
C2875 C 0.80951 0.83344 0.44349 0.0
C2876 C 0.82694 0.84028 0.43161 0.0
C2877 C 0.8248 0.83176 0.40646 0.0
C2878 C 0.77114 0.81032 0.44165 0.0
C2879 C 0.84794 0.85659 0.4455 0.0
H2880 H 0.80912 0.88914 0.51164 0.0
H2881 H 0.83233 0.82833 0.5253 0.0
H2882 H 0.81068 0.88459 0.45099 0.0
H2883 H 0.78424 0.86684 0.44937 0.0
H2884 H 0.79475 0.89371 0.47208 0.0
H2885 H 0.82994 0.79625 0.49408 0.0
H2886 H 0.81114 0.793 0.466 0.0
H2887 H 0.83845 0.80839 0.46827 0.0
H2888 H 0.77327 0.79879 0.39388 0.0
H2889 H 0.83825 0.83701 0.39756 0.0
H2890 H 0.76676 0.82607 0.45067 0.0
H2891 H 0.77542 0.80013 0.45614 0.0
H2892 H 0.757 0.79888 0.42832 0.0
H2893 H 0.84542 0.87347 0.45464 0.0
H2894 H 0.85966 0.861 0.43341 0.0
H2895 H 0.85489 0.84797 0.46006 0.0
C2896 C 0.50864 0.51213 0.86907 0.0
C2897 C 0.48958 0.51691 0.85874 0.0
C2898 C 0.51661 0.51815 0.89444 0.0
C2899 C 0.50503 0.52878 0.91 0.0
C2900 C 0.48615 0.53441 0.89959 0.0
C2901 C 0.47876 0.52861 0.87405 0.0
C2902 C 0.53701 0.51224 0.90468 0.0
C2903 C 0.47316 0.54542 0.91552 0.0
C2904 C 0.51201 0.51436 0.97439 0.0
C2905 C 0.52611 0.53545 0.98813 0.0
C2906 C 0.50453 0.51233 0.94918 0.0
C2907 C 0.51159 0.53173 0.93718 0.0
C2908 C 0.52554 0.55327 0.95102 0.0
C2909 C 0.5325 0.55495 0.9764 0.0
C2910 C 0.48935 0.4892 0.9353 0.0
C2911 C 0.53366 0.57424 0.93889 0.0
H2912 H 0.5172 0.50329 0.85733 0.0
H2913 H 0.46399 0.5323 0.86621 0.0
H2914 H 0.54801 0.52801 0.91728 0.0
H2915 H 0.53344 0.49769 0.91547 0.0
H2916 H 0.54526 0.5064 0.89003 0.0
H2917 H 0.46001 0.55071 0.90455 0.0
H2918 H 0.46619 0.53237 0.92665 0.0
H2919 H 0.48343 0.56139 0.92848 0.0
H2920 H 0.50677 0.4993 0.98335 0.0
H2921 H 0.54343 0.57128 0.9869 0.0
H2922 H 0.49706 0.48056 0.92168 0.0
H2923 H 0.47494 0.49281 0.92504 0.0
H2924 H 0.4843 0.47643 0.94759 0.0
H2925 H 0.54369 0.56925 0.92589 0.0
H2926 H 0.54327 0.59022 0.95239 0.0
H2927 H 0.52016 0.57906 0.9281 0.0
C2928 C 0.87691 0.22183 0.22878 0.0
C2929 C 0.87941 0.22627 0.2053 0.0
C2930 C 0.87204 0.23888 0.24549 0.0
C2931 C 0.86982 0.26068 0.23848 0.0
C2932 C 0.87565 0.26662 0.21642 0.0
C2933 C 0.8803 0.24924 0.19995 0.0
C2934 C 0.86666 0.2324 0.26931 0.0
C2935 C 0.87461 0.29027 0.209 0.0
C2936 C 0.82256 0.27986 0.25694 0.0
C2937 C 0.83215 0.29662 0.27816 0.0
C2938 C 0.8348 0.2684 0.24361 0.0
C2939 C 0.85726 0.27451 0.25137 0.0
C2940 C 0.86713 0.29262 0.27196 0.0
C2941 C 0.8544 0.30338 0.28526 0.0
C2942 C 0.82357 0.24893 0.22192 0.0
C2943 C 0.89094 0.29982 0.28083 0.0
H2944 H 0.87652 0.20424 0.23318 0.0
H2945 H 0.88281 0.25297 0.18204 0.0
H2946 H 0.84925 0.22932 0.26831 0.0
H2947 H 0.87136 0.21605 0.27319 0.0
H2948 H 0.87467 0.24724 0.28477 0.0
H2949 H 0.88357 0.29402 0.19408 0.0
H2950 H 0.85774 0.28995 0.20238 0.0
H2951 H 0.88111 0.30507 0.22491 0.0
H2952 H 0.80537 0.2751 0.25126 0.0
H2953 H 0.86186 0.31644 0.30174 0.0
H2954 H 0.82651 0.23164 0.22552 0.0
H2955 H 0.82996 0.25293 0.2053 0.0
H2956 H 0.80608 0.24679 0.21801 0.0
H2957 H 0.89522 0.28779 0.29335 0.0
H2958 H 0.8964 0.31842 0.29119 0.0
H2959 H 0.89964 0.29838 0.26547 0.0
C2960 C 0.12703 0.52921 0.42014 0.0
C2961 C 0.12799 0.54616 0.40425 0.0
C2962 C 0.11637 0.53028 0.44059 0.0
C2963 C 0.10621 0.54889 0.44616 0.0
C2964 C 0.10724 0.56612 0.43026 0.0
C2965 C 0.11784 0.56451 0.40982 0.0
C2966 C 0.11592 0.5112 0.4563 0.0
C2967 C 0.0971 0.5865 0.43488 0.0
C2968 C 0.06149 0.54027 0.48575 0.0
C2969 C 0.07199 0.55241 0.50958 0.0
C2970 C 0.07223 0.53896 0.46543 0.0
C2971 C 0.0944 0.55018 0.46817 0.0
C2972 C 0.10508 0.56259 0.49216 0.0
C2973 C 0.09397 0.56342 0.51224 0.0
C2974 C 0.05972 0.52525 0.44083 0.0
C2975 C 0.12849 0.57505 0.49674 0.0
H2976 H 0.13459 0.51484 0.41654 0.0
H2977 H 0.11825 0.57792 0.39815 0.0
H2978 H 0.12356 0.51949 0.47553 0.0
H2979 H 0.09918 0.50186 0.45638 0.0
H2980 H 0.12425 0.49777 0.44979 0.0
H2981 H 0.09945 0.59878 0.42144 0.0
H2982 H 0.07976 0.57941 0.43393 0.0
H2983 H 0.10392 0.59689 0.45361 0.0
H2984 H 0.04467 0.53139 0.4829 0.0
H2985 H 0.10269 0.57277 0.53019 0.0
H2986 H 0.06689 0.51066 0.43455 0.0
H2987 H 0.06045 0.53722 0.42702 0.0
H2988 H 0.04274 0.51735 0.44135 0.0
H2989 H 0.13155 0.58786 0.48396 0.0
H2990 H 0.13775 0.56176 0.49316 0.0
H2991 H 0.13448 0.58487 0.51584 0.0
C2992 C 0.83097 0.88385 0.68331 0.0
C2993 C 0.8291 0.87158 0.65942 0.0
C2994 C 0.82701 0.87147 0.70277 0.0
C2995 C 0.82067 0.84613 0.69831 0.0
C2996 C 0.8192 0.83364 0.67436 0.0
C2997 C 0.82356 0.84646 0.65533 0.0
C2998 C 0.82908 0.88556 0.72801 0.0
C2999 C 0.81219 0.80668 0.66859 0.0
C3000 C 0.82034 0.81093 0.75155 0.0
C3001 C 0.79904 0.80694 0.75435 0.0
C3002 C 0.82781 0.82401 0.73375 0.0
C3003 C 0.81351 0.8328 0.71798 0.0
C3004 C 0.79197 0.82859 0.72072 0.0
C3005 C 0.78509 0.81593 0.73888 0.0
C3006 C 0.85097 0.82833 0.73175 0.0
C3007 C 0.77602 0.8373 0.7043 0.0
H3008 H 0.83543 0.90322 0.68684 0.0
H3009 H 0.82206 0.83673 0.63702 0.0
H3010 H 0.81313 0.88317 0.73303 0.0
H3011 H 0.83909 0.87886 0.74183 0.0
H3012 H 0.83618 0.90497 0.72908 0.0
H3013 H 0.81313 0.79957 0.64952 0.0
H3014 H 0.82218 0.79899 0.68143 0.0
H3015 H 0.7955 0.80046 0.67108 0.0
H3016 H 0.83111 0.80369 0.7631 0.0
H3017 H 0.76858 0.81292 0.74083 0.0
H3018 H 0.85814 0.84771 0.73293 0.0
H3019 H 0.85233 0.81918 0.71364 0.0
H3020 H 0.86032 0.82175 0.74634 0.0
H3021 H 0.78119 0.85703 0.70619 0.0
H3022 H 0.7598 0.83232 0.70861 0.0
H3023 H 0.77517 0.82968 0.68485 0.0
C3024 C 0.73836 0.48533 0.5101 0.0
C3025 C 0.72174 0.46462 0.50747 0.0
C3026 C 0.73449 0.50802 0.51327 0.0
C3027 C 0.71364 0.50988 0.51461 0.0
C3028 C 0.69648 0.48895 0.50928 0.0
C3029 C 0.70075 0.46647 0.50552 0.0
C3030 C 0.75308 0.52981 0.51765 0.0
C3031 C 0.67393 0.49015 0.51039 0.0
C3032 C 0.70373 0.55311 0.56444 0.0
C3033 C 0.6929 0.56658 0.55078 0.0
C3034 C 0.71232 0.53591 0.55294 0.0
C3035 C 0.71034 0.53235 0.52714 0.0
C3036 C 0.70205 0.54802 0.51362 0.0
C3037 C 0.69328 0.56498 0.52563 0.0
C3038 C 0.72124 0.51973 0.56818 0.0
C3039 C 0.70109 0.54567 0.48633 0.0
H3040 H 0.7546 0.48387 0.51099 0.0
H3041 H 0.68788 0.45043 0.50322 0.0
H3042 H 0.74815 0.5453 0.51145 0.0
H3043 H 0.75989 0.53483 0.53756 0.0
H3044 H 0.76587 0.52614 0.50805 0.0
H3045 H 0.6622 0.47264 0.50302 0.0
H3046 H 0.67271 0.49566 0.52974 0.0
H3047 H 0.66953 0.50366 0.49992 0.0
H3048 H 0.70353 0.55404 0.58383 0.0
H3049 H 0.68535 0.57574 0.51505 0.0
H3050 H 0.73709 0.51871 0.56439 0.0
H3051 H 0.71053 0.50137 0.56329 0.0
H3052 H 0.72292 0.52593 0.58816 0.0
H3053 H 0.71715 0.54635 0.48217 0.0
H3054 H 0.69514 0.56 0.47869 0.0
H3055 H 0.6905 0.52809 0.47688 0.0
C3056 C 0.19386 0.12406 0.5239 0.0
C3057 C 0.21195 0.1164 0.53259 0.0
C3058 C 0.17314 0.11101 0.52496 0.0
C3059 C 0.17024 0.08972 0.53502 0.0
C3060 C 0.18835 0.08157 0.54323 0.0
C3061 C 0.20888 0.09491 0.54189 0.0
C3062 C 0.15436 0.12035 0.51582 0.0
C3063 C 0.18611 0.05901 0.55408 0.0
C3064 C 0.12006 0.06864 0.56146 0.0
C3065 C 0.10749 0.05006 0.54282 0.0
C3066 C 0.14035 0.08177 0.55908 0.0
C3067 C 0.14837 0.07628 0.5375 0.0
C3068 C 0.13559 0.0577 0.51852 0.0
C3069 C 0.11539 0.04483 0.52142 0.0
C3070 C 0.15333 0.10136 0.57982 0.0
C3071 C 0.14333 0.05127 0.49515 0.0
H3072 H 0.19588 0.14059 0.51671 0.0
H3073 H 0.2226 0.08876 0.54876 0.0
H3074 H 0.14245 0.10637 0.50197 0.0
H3075 H 0.14641 0.12484 0.53123 0.0
H3076 H 0.15911 0.13655 0.50751 0.0
H3077 H 0.2016 0.0546 0.55889 0.0
H3078 H 0.17924 0.06107 0.57087 0.0
H3079 H 0.17497 0.04374 0.54094 0.0
H3080 H 0.11417 0.07272 0.57812 0.0
H3081 H 0.10576 0.03055 0.5069 0.0
H3082 H 0.15745 0.11855 0.57308 0.0
H3083 H 0.16852 0.09722 0.58693 0.0
H3084 H 0.14474 0.10371 0.5952 0.0
H3085 H 0.14725 0.06721 0.48629 0.0
H3086 H 0.13132 0.03678 0.48189 0.0
H3087 H 0.15815 0.0454 0.4994 0.0
C3088 C 0.19046 0.98212 0.86438 0.0
C3089 C 0.19652 0.99389 0.84533 0.0
C3090 C 0.20087 0.96534 0.87271 0.0
C3091 C 0.21786 0.96044 0.8619 0.0
C3092 C 0.22401 0.97229 0.84269 0.0
C3093 C 0.21322 0.98872 0.83458 0.0
C3094 C 0.19372 0.95289 0.89307 0.0
C3095 C 0.24219 0.96782 0.83081 0.0
C3096 C 0.26079 0.93562 0.89445 0.0
C3097 C 0.25565 0.91213 0.88142 0.0
C3098 C 0.24804 0.95122 0.88915 0.0
C3099 C 0.22952 0.9431 0.87055 0.0
C3100 C 0.2235 0.919 0.85842 0.0
C3101 C 0.23668 0.90387 0.86387 0.0
C3102 C 0.25506 0.97678 0.90252 0.0
C3103 C 0.20372 0.90952 0.83872 0.0
H3104 H 0.17757 0.98599 0.87277 0.0
H3105 H 0.2181 0.99777 0.81993 0.0
H3106 H 0.18931 0.93323 0.88692 0.0
H3107 H 0.20699 0.95714 0.9091 0.0
H3108 H 0.17988 0.95816 0.89906 0.0
H3109 H 0.24512 0.97867 0.81626 0.0
H3110 H 0.25701 0.97208 0.84485 0.0
H3111 H 0.23874 0.94865 0.82258 0.0
H3112 H 0.27512 0.94204 0.90844 0.0
H3113 H 0.23258 0.88586 0.85351 0.0
H3114 H 0.24172 0.98193 0.90987 0.0
H3115 H 0.25982 0.98887 0.88953 0.0
H3116 H 0.26874 0.97972 0.91791 0.0
H3117 H 0.18991 0.91453 0.84502 0.0
H3118 H 0.19977 0.88976 0.83334 0.0
H3119 H 0.20616 0.91761 0.82222 0.0
C3120 C 0.30632 0.88154 0.02808 0.0
C3121 C 0.29294 0.88855 1.01008 0.0
C3122 C 0.32855 0.8902 0.03164 0.0
C3123 C 0.33747 0.90615 0.01682 0.0
C3124 C 0.32409 0.9119 0.99751 0.0
C3125 C 0.30199 0.903 0.99436 0.0
C3126 C 0.34238 0.88341 0.05217 0.0
C3127 C 0.33299 0.92869 0.98115 0.0
C3128 C 0.38889 0.95374 0.0432 0.0
C3129 C 0.4035 0.94489 0.03141 0.0
C3130 C 0.36744 0.94095 0.03908 0.0
C3131 C 0.36048 0.91871 0.02285 0.0
C3132 C 0.37524 0.90933 1.01142 0.0
C3133 C 0.39658 0.92259 0.01577 0.0
C3134 C 0.35212 0.95154 0.0516 0.0
C3135 C 0.36838 0.88567 0.99405 0.0
H3136 H 0.29943 0.87027 0.04021 0.0
H3137 H 0.29175 0.90823 0.98018 0.0
H3138 H 0.35594 0.87799 0.04564 0.0
H3139 H 0.34914 0.89912 0.06708 0.0
H3140 H 0.33331 0.86858 0.05993 0.0
H3141 H 0.32067 0.92939 0.9655 0.0
H3142 H 0.33963 0.94698 0.992 0.0
H3143 H 0.34618 0.92317 0.9738 0.0
H3144 H 0.39421 0.97077 0.0556 0.0
H3145 H 0.40774 0.91578 1.00634 0.0
H3146 H 0.34373 0.9387 0.06202 0.0
H3147 H 0.33984 0.95502 0.03764 0.0
H3148 H 0.36025 0.96856 0.06439 0.0
H3149 H 0.35943 0.87158 1.00275 0.0
H3150 H 0.38212 0.87994 0.9883 0.0
H3151 H 0.35749 0.88706 0.97742 0.0
C3152 C 0.86139 0.6273 0.7754 0.0
C3153 C 0.87366 0.62164 0.79577 0.0
C3154 C 0.85221 0.64739 0.77718 0.0
C3155 C 0.85456 0.66275 0.80007 0.0
C3156 C 0.86674 0.65696 0.82075 0.0
C3157 C 0.87614 0.63707 0.81835 0.0
C3158 C 0.84006 0.65232 0.75421 0.0
C3159 C 0.86974 0.67179 0.84578 0.0
C3160 C 0.84638 0.72794 0.80316 0.0
C3161 C 0.82513 0.72552 0.80662 0.0
C3162 C 0.85584 0.70812 0.80076 0.0
C3163 C 0.84436 0.68453 0.80235 0.0
C3164 C 0.82298 0.68204 0.80612 0.0
C3165 C 0.81374 0.70208 0.80789 0.0
C3166 C 0.87834 0.71252 0.79627 0.0
C3167 C 0.80974 0.65799 0.80859 0.0
H3168 H 0.85912 0.61608 0.75769 0.0
H3169 H 0.88534 0.63343 0.83449 0.0
H3170 H 0.8233 0.65113 0.75605 0.0
H3171 H 0.8471 0.67078 0.75153 0.0
H3172 H 0.84011 0.6396 0.73764 0.0
H3173 H 0.8788 0.66486 0.86029 0.0
H3174 H 0.87835 0.69052 0.84576 0.0
H3175 H 0.85398 0.67213 0.85042 0.0
H3176 H 0.85574 0.74552 0.802 0.0
H3177 H 0.79747 0.69934 0.8107 0.0
H3178 H 0.87879 0.70061 0.7793 0.0
H3179 H 0.88871 0.70814 0.81161 0.0
H3180 H 0.88506 0.73136 0.79445 0.0
H3181 H 0.80763 0.64497 0.79153 0.0
H3182 H 0.79377 0.65873 0.81231 0.0
H3183 H 0.81811 0.65114 0.82372 0.0
C3184 C 0.84516 0.6278 0.04276 0.0
C3185 C 0.82981 0.61997 0.05683 0.0
C3186 C 0.86382 0.6196 0.04393 0.0
C3187 C 0.8673 0.603 0.05943 0.0
C3188 C 0.85171 0.59481 0.07341 0.0
C3189 C 0.8333 0.60341 0.07201 0.0
C3190 C 0.87997 0.62893 0.02878 0.0
C3191 C 0.85453 0.57701 0.09004 0.0
C3192 C 0.90564 0.56421 0.04797 0.0
C3193 C 0.92373 0.57538 0.0663 0.0
C3194 C 0.88744 0.5732 0.04526 0.0
C3195 C 0.88713 0.5941 0.0611 0.0
C3196 C 0.90551 0.60588 0.07919 0.0
C3197 C 0.92348 0.59641 0.0816 0.0
C3198 C 0.86833 0.55999 0.02569 0.0
C3199 C 0.90603 0.62825 0.09644 0.0
H3200 H 0.84275 0.64066 0.03106 0.0
H3201 H 0.82163 0.59718 0.083 0.0
H3202 H 0.89549 0.63817 0.04097 0.0
H3203 H 0.8826 0.61385 0.01644 0.0
H3204 H 0.87491 0.6416 0.01749 0.0
H3205 H 0.84087 0.57213 0.09946 0.0
H3206 H 0.85637 0.5605 0.07928 0.0
H3207 H 0.86927 0.58452 0.10413 0.0
H3208 H 0.90565 0.54826 0.03566 0.0
H3209 H 0.93713 0.60517 0.096 0.0
H3210 H 0.86385 0.57224 0.01353 0.0
H3211 H 0.85449 0.55346 0.03434 0.0
H3212 H 0.87128 0.54447 0.0143 0.0
H3213 H 0.90189 0.64184 0.08588 0.0
H3214 H 0.92188 0.63612 0.10853 0.0
H3215 H 0.89394 0.62408 0.10811 0.0
C3216 C 0.2224 0.11876 0.83245 0.0
C3217 C 0.20329 0.11865 0.84076 0.0
C3218 C 0.23698 0.14026 0.83155 0.0
C3219 C 0.23249 0.16232 0.83929 0.0
C3220 C 0.21358 0.16242 0.84843 0.0
C3221 C 0.19918 0.14059 0.84901 0.0
C3222 C 0.25692 0.13934 0.82162 0.0
C3223 C 0.20832 0.18558 0.85705 0.0
C3224 C 0.2796 0.21731 0.85232 0.0
C3225 C 0.27706 0.22617 0.83034 0.0
C3226 C 0.26483 0.19698 0.85585 0.0
C3227 C 0.24724 0.18513 0.83681 0.0
C3228 C 0.24444 0.19433 0.81473 0.0
C3229 C 0.25938 0.21476 0.81179 0.0
C3230 C 0.26828 0.18789 0.87973 0.0
C3231 C 0.226 0.1822 0.79392 0.0
H3232 H 0.2258 0.10197 0.82604 0.0
H3233 H 0.1845 0.14075 0.8555 0.0
H3234 H 0.25683 0.14741 0.80478 0.0
H3235 H 0.27122 0.14996 0.83517 0.0
H3236 H 0.25843 0.12078 0.81711 0.0
H3237 H 0.19365 0.18268 0.86501 0.0
H3238 H 0.22174 0.19741 0.87103 0.0
H3239 H 0.20603 0.19516 0.84144 0.0
H3240 H 0.29323 0.22619 0.86674 0.0
H3241 H 0.25749 0.22146 0.79467 0.0
H3242 H 0.27139 0.17 0.87633 0.0
H3243 H 0.25372 0.18581 0.88783 0.0
H3244 H 0.28189 0.20003 0.89329 0.0
H3245 H 0.22721 0.16397 0.787 0.0
H3246 H 0.22554 0.19224 0.77844 0.0
H3247 H 0.21071 0.18023 0.80049 0.0
C3248 C 0.39017 0.97394 0.30964 0.0
C3249 C 0.38001 0.99219 0.30501 0.0
C3250 C 0.37878 0.95014 0.30981 0.0
C3251 C 0.35618 0.94354 0.30558 0.0
C3252 C 0.34563 0.96172 0.30075 0.0
C3253 C 0.35752 0.98553 0.30032 0.0
C3254 C 0.39116 0.93195 0.31469 0.0
C3255 C 0.32167 0.95606 0.29639 0.0
C3256 C 0.32811 0.87524 0.28828 0.0
C3257 C 0.325 0.86866 0.31104 0.0
C3258 C 0.33755 0.89931 0.28609 0.0
C3259 C 0.34402 0.91792 0.30704 0.0
C3260 C 0.34036 0.91144 0.32991 0.0
C3261 C 0.33117 0.88724 0.33163 0.0
C3262 C 0.34115 0.90468 0.26127 0.0
C3263 C 0.34653 0.93013 0.35288 0.0
H3264 H 0.40742 0.97818 0.31308 0.0
H3265 H 0.34917 0.99902 0.29671 0.0
H3266 H 0.38805 0.92532 0.33177 0.0
H3267 H 0.38583 0.91632 0.29954 0.0
H3268 H 0.4086 0.93939 0.31661 0.0
H3269 H 0.31564 0.9717 0.29253 0.0
H3270 H 0.31472 0.94111 0.28073 0.0
H3271 H 0.31595 0.95013 0.31274 0.0
H3272 H 0.32356 0.86142 0.27209 0.0
H3273 H 0.3289 0.88289 0.34939 0.0
H3274 H 0.3585 0.91062 0.26157 0.0
H3275 H 0.33419 0.91953 0.25684 0.0
H3276 H 0.33408 0.88889 0.24647 0.0
H3277 H 0.3641 0.93725 0.35738 0.0
H3278 H 0.34114 0.9229 0.36885 0.0
H3279 H 0.33961 0.94535 0.34992 0.0
C3280 C 0.58241 0.38054 0.65098 0.0
C3281 C 0.59396 0.36576 0.64048 0.0
C3282 C 0.5797 0.40118 0.64164 0.0
C3283 C 0.58846 0.40724 0.62097 0.0
C3284 C 0.59999 0.39226 0.61019 0.0
C3285 C 0.60271 0.37193 0.62012 0.0
C3286 C 0.56753 0.41663 0.65401 0.0
C3287 C 0.60936 0.39764 0.58798 0.0
C3288 C 0.5639 0.44805 0.58367 0.0
C3289 C 0.5787 0.47045 0.59174 0.0
C3290 C 0.56706 0.42742 0.59264 0.0
C3291 C 0.58535 0.42901 0.61052 0.0
C3292 C 0.60047 0.45152 0.61857 0.0
C3293 C 0.59706 0.47182 0.60901 0.0
C3294 C 0.55064 0.40388 0.58311 0.0
C3295 C 0.62008 0.45428 0.63776 0.0
H3296 H 0.57565 0.37613 0.66676 0.0
H3297 H 0.61163 0.36072 0.61176 0.0
H3298 H 0.57769 0.43518 0.66004 0.0
H3299 H 0.55339 0.41743 0.64084 0.0
H3300 H 0.5621 0.40988 0.67018 0.0
H3301 H 0.6177 0.3842 0.58153 0.0
H3302 H 0.59658 0.39812 0.57279 0.0
H3303 H 0.62084 0.41554 0.5923 0.0
H3304 H 0.54966 0.4466 0.57033 0.0
H3305 H 0.60857 0.48896 0.6156 0.0
H3306 H 0.54336 0.39734 0.59834 0.0
H3307 H 0.55836 0.39023 0.57568 0.0
H3308 H 0.53777 0.40532 0.5685 0.0
H3309 H 0.63046 0.47283 0.64193 0.0
H3310 H 0.62948 0.44196 0.63151 0.0
H3311 H 0.61531 0.44937 0.65493 0.0
C3312 C 0.45141 0.7853 0.37985 0.0
C3313 C 0.45415 0.77173 0.39843 0.0
C3314 C 0.43098 0.78593 0.36829 0.0
C3315 C 0.41257 0.77288 0.3755 0.0
C3316 C 0.4152 0.75927 0.39441 0.0
C3317 C 0.43587 0.7587 0.40546 0.0
C3318 C 0.42911 0.80068 0.34829 0.0
C3319 C 0.39616 0.74523 0.40294 0.0
C3320 C 0.36157 0.79281 0.35736 0.0
C3321 C 0.35137 0.7765 0.33577 0.0
C3322 C 0.38095 0.79123 0.37107 0.0
C3323 C 0.39073 0.7732 0.36277 0.0
C3324 C 0.38018 0.75635 0.34129 0.0
C3325 C 0.36065 0.75811 0.3282 0.0
C3326 C 0.39116 0.80917 0.39421 0.0
C3327 C 0.38981 0.73676 0.33173 0.0
H3328 H 0.46532 0.79553 0.37428 0.0
H3329 H 0.43771 0.74832 0.41992 0.0
H3330 H 0.41959 0.78908 0.33101 0.0
H3331 H 0.42059 0.81437 0.35337 0.0
H3332 H 0.44489 0.80985 0.34478 0.0
H3333 H 0.40082 0.73874 0.42019 0.0
H3334 H 0.38485 0.75626 0.40591 0.0
H3335 H 0.38756 0.72956 0.38857 0.0
H3336 H 0.35452 0.807 0.36345 0.0
H3337 H 0.35287 0.74531 0.31164 0.0
H3338 H 0.40655 0.82044 0.39183 0.0
H3339 H 0.39464 0.7998 0.40971 0.0
H3340 H 0.38087 0.82097 0.39916 0.0
H3341 H 0.40524 0.74474 0.32664 0.0
H3342 H 0.37925 0.72443 0.31542 0.0
H3343 H 0.39314 0.72623 0.34624 0.0
C3344 C 0.07797 0.73037 0.11713 0.0
C3345 C 0.07395 0.73638 0.14076 0.0
C3346 C 0.07538 0.70626 0.10642 0.0
C3347 C 0.0689 0.68764 0.11972 0.0
C3348 C 0.06452 0.69363 0.14338 0.0
C3349 C 0.06694 0.71771 0.15345 0.0
C3350 C 0.07989 0.70073 0.081 0.0
C3351 C 0.05778 0.67458 0.15844 0.0
C3352 C 0.04551 0.62196 0.08952 0.0
C3353 C 0.063 0.61219 0.09443 0.0
C3354 C 0.04739 0.64657 0.09669 0.0
C3355 C 0.06719 0.66194 0.10945 0.0
C3356 C 0.085 0.65225 0.11404 0.0
C3357 C 0.08274 0.62764 0.10636 0.0
C3358 C 0.02801 0.65601 0.09108 0.0
C3359 C 0.10635 0.66776 0.12787 0.0
H3360 H 0.08339 0.7445 0.10708 0.0
H3361 H 0.0638 0.7219 0.17173 0.0
H3362 H 0.09363 0.69269 0.08179 0.0
H3363 H 0.06599 0.68741 0.06906 0.0
H3364 H 0.08352 0.71693 0.07244 0.0
H3365 H 0.05473 0.68209 0.17642 0.0
H3366 H 0.04309 0.66119 0.14828 0.0
H3367 H 0.07037 0.66499 0.16178 0.0
H3368 H 0.03021 0.61033 0.08013 0.0
H3369 H 0.09638 0.62038 0.11034 0.0
H3370 H 0.03176 0.67154 0.08161 0.0
H3371 H 0.02326 0.66235 0.10841 0.0
H3372 H 1.01424 0.64222 0.07942 0.0
H3373 H 0.1115 0.6834 0.11894 0.0
H3374 H 0.11889 0.65787 0.12893 0.0
H3375 H 0.10496 0.67473 0.14679 0.0
C3376 C 0.08575 0.27933 0.91822 0.0
C3377 C 0.06768 0.2611 0.90617 0.0
C3378 C 0.10503 0.28294 0.90934 0.0
C3379 C 0.10639 0.26809 0.88777 0.0
C3380 C 0.08814 0.2498 0.87544 0.0
C3381 C 0.06913 0.24651 0.88478 0.0
C3382 C 0.12403 0.30258 0.92317 0.0
C3383 C 0.08869 0.23363 0.85232 0.0
C3384 C 0.14898 0.28954 0.85042 0.0
C3385 C 0.16398 0.27656 0.8566 0.0
C3386 C 0.13047 0.28725 0.86066 0.0
C3387 C 0.12673 0.27175 0.87784 0.0
C3388 C 0.14206 0.25913 0.88475 0.0
C3389 C 0.16039 0.26161 0.87405 0.0
C3390 C 0.11468 0.30109 0.85268 0.0
C3391 C 0.13887 0.24252 0.90307 0.0
H3392 H 0.08492 0.29066 0.9348 0.0
H3393 H 0.05536 0.23236 0.87527 0.0
H3394 H 0.13752 0.2949 0.929 0.0
H3395 H 0.12935 0.31538 0.91103 0.0
H3396 H 0.12049 0.31256 0.93965 0.0
H3397 H 0.07317 0.22032 0.84482 0.0
H3398 H 0.09293 0.24444 0.83811 0.0
H3399 H 0.10114 0.22393 0.85603 0.0
H3400 H 0.15165 0.30155 0.83741 0.0
H3401 H 0.17162 0.25127 0.8789 0.0
H3402 H 0.11188 0.31222 0.86887 0.0
H3403 H 0.09915 0.28851 0.84368 0.0
H3404 H 0.12015 0.31291 0.8397 0.0
H3405 H 0.13606 0.2521 0.92021 0.0
H3406 H 0.15276 0.23505 0.90762 0.0
H3407 H 0.12453 0.22748 0.89558 0.0
C3408 C 0.52547 0.76046 0.94804 0.0
C3409 C 0.54473 0.77736 0.95884 0.0
C3410 C 0.52 0.73837 0.95589 0.0
C3411 C 0.53412 0.73329 0.97494 0.0
C3412 C 0.55319 0.75067 0.98646 0.0
C3413 C 0.55826 0.77246 0.97822 0.0
C3414 C 0.49955 0.72023 0.94325 0.0
C3415 C 0.5686 0.74602 1.00705 0.0
C3416 C 0.52194 0.68608 0.01399 0.0
C3417 C 0.53327 0.67026 1.00521 0.0
C3418 C 0.52017 0.70573 1.00272 0.0
C3419 C 0.52997 0.70946 0.98229 0.0
C3420 C 0.53946 0.69214 0.97188 0.0
C3421 C 0.54106 0.67273 0.98355 0.0
C3422 C 0.50973 0.72369 0.01419 0.0
C3423 C 0.54981 0.6953 0.94986 0.0
H3424 H 0.51494 0.76422 0.93306 0.0
H3425 H 0.57306 0.78556 0.98679 0.0
H3426 H 0.50329 0.7052 0.932 0.0
H3427 H 0.49066 0.71266 0.95691 0.0
H3428 H 0.48907 0.72805 0.93108 0.0
H3429 H 0.58222 0.76186 0.01474 0.0
H3430 H 0.56028 0.74087 0.02206 0.0
H3431 H 0.57497 0.73092 1.00026 0.0
H3432 H 0.51588 0.68415 0.03074 0.0
H3433 H 0.54946 0.66019 0.97653 0.0
H3434 H 0.50005 0.73024 0.99992 0.0
H3435 H 0.52224 0.73935 0.02505 0.0
H3436 H 0.49938 0.71604 0.02661 0.0
H3437 H 0.53948 0.70113 0.9356 0.0
H3438 H 0.55328 0.67857 0.9417 0.0
H3439 H 0.56504 0.70942 0.9555 0.0
C3440 C 0.15256 0.78482 0.76543 0.0
C3441 C 0.1358 0.76921 0.77261 0.0
C3442 C 0.17386 0.78623 0.77493 0.0
C3443 C 0.17867 0.7718 0.79222 0.0
C3444 C 0.16192 0.75623 0.79989 0.0
C3445 C 0.14063 0.75506 0.78993 0.0
C3446 C 0.19126 0.80315 0.76635 0.0
C3447 C 0.16651 0.74075 0.81848 0.0
C3448 C 0.2343 0.7621 0.7987 0.0
C3449 C 0.24536 0.77977 0.8189 0.0
C3450 C 0.21239 0.75881 0.79021 0.0
C3451 C 0.20132 0.77343 0.80234 0.0
C3452 C 0.21233 0.79092 0.82307 0.0
C3453 C 0.23418 0.79389 0.83106 0.0
C3454 C 0.20121 0.74012 0.7679 0.0
C3455 C 0.2011 0.80676 0.83663 0.0
H3456 H 0.14908 0.79587 0.75208 0.0
H3457 H 0.12782 0.74295 0.79557 0.0
H3458 H 0.20148 0.81639 0.78219 0.0
H3459 H 0.20159 0.79308 0.75812 0.0
H3460 H 0.18482 0.81297 0.75259 0.0
H3461 H 0.15172 0.72983 0.82278 0.0
H3462 H 0.17576 0.72858 0.81149 0.0
H3463 H 0.17641 0.75206 0.83571 0.0
H3464 H 0.24281 0.75106 0.7893 0.0
H3465 H 0.24248 0.80733 0.84696 0.0
H3466 H 0.19547 0.7489 0.75279 0.0
H3467 H 0.18704 0.72792 0.77203 0.0
H3468 H 0.21178 0.72933 0.7614 0.0
H3469 H 0.19364 0.81682 0.82394 0.0
H3470 H 0.21208 0.81979 0.85217 0.0
H3471 H 0.18815 0.79562 0.84386 0.0
C3472 C 0.06223 0.40056 0.48782 0.0
C3473 C 0.04629 0.37972 0.48709 0.0
C3474 C 0.06428 0.42126 0.50488 0.0
C3475 C 0.0497 0.42118 0.52106 0.0
C3476 C 0.03407 0.39993 0.52094 0.0
C3477 C 0.03272 0.37938 0.50413 0.0
C3478 C 0.08145 0.4435 0.50485 0.0
C3479 C 0.01788 0.39928 0.53744 0.0
C3480 C 0.0594 0.47311 0.57378 0.0
C3481 C 0.04818 0.48785 0.56279 0.0
C3482 C 0.06017 0.45127 0.56043 0.0
C3483 C 0.04904 0.44394 0.53584 0.0
C3484 C 0.03717 0.45847 0.52501 0.0
C3485 C 0.03721 0.4804 0.53848 0.0
C3486 C 0.07338 0.43645 0.57232 0.0
C3487 C 0.02468 0.45111 0.49902 0.0
H3488 H 0.07287 0.40081 0.47483 0.0
H3489 H 0.02032 0.36332 0.50361 0.0
H3490 H 0.07412 0.45692 0.49726 0.0
H3491 H 0.08996 0.45162 0.52384 0.0
H3492 H 0.09324 0.43973 0.49366 0.0
H3493 H 1.00803 0.38086 0.53668 0.0
H3494 H 0.02588 0.40683 0.55671 0.0
H3495 H 1.00714 0.4105 0.53178 0.0
H3496 H 0.06816 0.47902 0.59246 0.0
H3497 H 0.02898 0.49197 0.52967 0.0
H3498 H 0.08631 0.43484 0.56211 0.0
H3499 H 0.06346 0.41809 0.57151 0.0
H3500 H 0.08064 0.44435 0.59177 0.0
H3501 H 0.03574 0.45031 0.48603 0.0
H3502 H 1.0151 0.46371 0.494 0.0
H3503 H 1.01378 0.43299 0.49657 0.0
C3504 C 0.50259 0.24376 0.2884 0.0
C3505 C 0.51848 0.25906 0.27975 0.0
C3506 C 0.48675 0.25234 0.29801 0.0
C3507 C 0.48719 0.27684 0.2994 0.0
C3508 C 0.50416 0.29265 0.29242 0.0
C3509 C 0.51949 0.28351 0.2824 0.0
C3510 C 0.46872 0.23487 0.30491 0.0
C3511 C 0.50543 0.31898 0.2941 0.0
C3512 C 0.43455 0.29324 0.2906 0.0
C3513 C 0.43284 0.30118 0.31478 0.0
C3514 C 0.45202 0.285 0.28549 0.0
C3515 C 0.46857 0.2853 0.30498 0.0
C3516 C 0.4673 0.2938 0.3294 0.0
C3517 C 0.44933 0.30145 0.33405 0.0
C3518 C 0.4527 0.2759 0.25917 0.0
C3519 C 0.4849 0.29479 0.35056 0.0
H3520 H 0.50177 0.22483 0.2863 0.0
H3521 H 0.53192 0.29542 0.27596 0.0
H3522 H 0.46578 0.24181 0.32311 0.0
H3523 H 0.45388 0.23255 0.29135 0.0
H3524 H 0.47193 0.21707 0.30536 0.0
H3525 H 0.52114 0.32932 0.29143 0.0
H3526 H 0.49288 0.3215 0.2798 0.0
H3527 H 0.50257 0.32647 0.31216 0.0
H3528 H 0.42221 0.29355 0.27551 0.0
H3529 H 0.44808 0.30732 0.35281 0.0
H3530 H 0.45453 0.25738 0.25725 0.0
H3531 H 0.46667 0.28714 0.25367 0.0
H3532 H 0.4381 0.27599 0.24627 0.0
H3533 H 0.48674 0.27654 0.35162 0.0
H3534 H 0.48179 0.3026 0.36839 0.0
H3535 H 0.50027 0.30562 0.34759 0.0
C3536 C 0.60007 0.55827 0.40595 0.0
C3537 C 0.62027 0.55734 0.40142 0.0
C3538 C 0.59323 0.55127 0.42707 0.0
C3539 C 0.60717 0.54385 0.44454 0.0
C3540 C 0.62762 0.54288 0.44006 0.0
C3541 C 0.63381 0.54935 0.4184 0.0
C3542 C 0.57109 0.55196 0.43074 0.0
C3543 C 0.64327 0.53588 0.45851 0.0
C3544 C 0.59447 0.55121 0.50861 0.0
C3545 C 0.58436 0.52771 0.51037 0.0
C3546 C 0.60305 0.55647 0.48793 0.0
C3547 C 0.60048 0.53795 0.4678 0.0
C3548 C 0.59028 0.51414 0.46941 0.0
C3549 C 0.58257 0.50927 0.4908 0.0
C3550 C 0.61436 0.582 0.48742 0.0
C3551 C 0.5868 0.49395 0.44818 0.0
H3552 H 0.58948 0.56426 0.39281 0.0
H3553 H 0.64953 0.54882 0.41511 0.0
H3554 H 0.5624 0.53437 0.43416 0.0
H3555 H 0.57207 0.56544 0.44708 0.0
H3556 H 0.56169 0.55648 0.41465 0.0
H3557 H 0.65725 0.53292 0.45087 0.0
H3558 H 0.64901 0.5503 0.47485 0.0
H3559 H 0.63558 0.51938 0.46484 0.0
H3560 H 0.59525 0.56573 0.52317 0.0
H3561 H 0.57454 0.4911 0.49188 0.0
H3562 H 0.60473 0.58921 0.47371 0.0
H3563 H 0.62996 0.5828 0.48185 0.0
H3564 H 0.6171 0.59374 0.50553 0.0
H3565 H 0.5765 0.49724 0.43206 0.0
H3566 H 0.57918 0.47635 0.45257 0.0
H3567 H 0.60219 0.49312 0.44282 0.0
C3568 C 0.23822 0.90439 0.09954 0.0
C3569 C 0.22193 0.88726 0.08284 0.0
C3570 C 0.24477 0.90032 0.12329 0.0
C3571 C 0.23487 0.87863 0.13015 0.0
C3572 C 0.2163 0.86326 0.11476 0.0
C3573 C 0.20995 0.86786 0.09126 0.0
C3574 C 0.26384 0.91781 0.13987 0.0
C3575 C 0.20481 0.84034 0.12176 0.0
C3576 C 0.26989 0.84404 0.16103 0.0
C3577 C 0.26437 0.84489 0.18416 0.0
C3578 C 0.26105 0.85593 0.14372 0.0
C3579 C 0.24649 0.86922 0.14984 0.0
C3580 C 0.2419 0.87136 0.17376 0.0
C3581 C 0.2508 0.85897 0.19062 0.0
C3582 C 0.26642 0.85312 0.11839 0.0
C3583 C 0.22686 0.88566 0.18136 0.0
H3584 H 0.24724 0.9198 0.09342 0.0
H3585 H 0.19691 0.85491 0.07868 0.0
H3586 H 0.26179 0.91943 0.15926 0.0
H3587 H 0.27825 0.91127 0.13862 0.0
H3588 H 0.26658 0.93578 0.13458 0.0
H3589 H 0.18906 0.83221 0.10952 0.0
H3590 H 0.21464 0.82729 0.12054 0.0
H3591 H 0.20239 0.84355 0.14094 0.0
H3592 H 0.28032 0.83306 0.15604 0.0
H3593 H 0.2469 0.85995 0.20875 0.0
H3594 H 0.27259 0.8709 0.11357 0.0
H3595 H 0.25182 0.84374 0.10464 0.0
H3596 H 0.27852 0.8428 0.11691 0.0
H3597 H 0.22694 0.90082 0.17135 0.0
H3598 H 0.23101 0.89273 0.20138 0.0
H3599 H 0.21043 0.87385 0.17738 0.0
C3600 C 0.98946 0.5328 0.89091 0.0
C3601 C 0.97636 0.54845 0.88697 0.0
C3602 C 1.00038 0.53217 0.91471 0.0
C3603 C 0.99825 0.54735 0.93574 0.0
C3604 C 0.98495 0.56311 0.93189 0.0
C3605 C 0.97438 0.56354 0.90784 0.0
C3606 C 1.01439 0.5152 0.91731 0.0
C3607 C 0.98181 0.57959 0.95332 0.0
C3608 C 1.0137 0.53168 1.00051 0.0
C3609 C 0.03417 0.54711 1.00947 0.0
C3610 C 1.00182 0.5317 0.97694 0.0
C3611 C 1.01047 0.54735 0.96143 0.0
C3612 C 0.03111 0.56296 0.97053 0.0
C3613 C 0.04248 0.56274 0.99416 0.0
C3614 C 0.97992 0.51486 0.96861 0.0
C3615 C 0.0414 0.5799 0.95514 0.0
H3616 H 0.99126 0.52092 0.87526 0.0
H3617 H 0.96429 0.57564 0.90545 0.0
H3618 H 0.03099 0.5254 0.92564 0.0
H3619 H 1.0089 0.50288 0.9298 0.0
H3620 H 1.01442 0.50443 0.89944 0.0
H3621 H 0.97057 0.59028 0.94766 0.0
H3622 H 0.97563 0.56905 0.96694 0.0
H3623 H 0.99732 0.59201 0.96265 0.0
H3624 H 1.00691 0.51953 0.01193 0.0
H3625 H 0.05819 0.57483 1.00058 0.0
H3626 H 0.97955 0.50235 0.95174 0.0
H3627 H 0.96805 0.52509 0.96395 0.0
H3628 H 0.97505 0.5043 0.9828 0.0
H3629 H 0.04285 0.56966 0.93761 0.0
H3630 H 0.05749 0.5909 0.9646 0.0
H3631 H 0.03127 0.59203 0.9505 0.0
C3632 C 0.29431 0.19557 0.63239 0.0
C3633 C 0.28773 0.20574 0.61214 0.0
C3634 C 0.29607 0.20708 0.65656 0.0
C3635 C 0.29139 0.22956 0.66087 0.0
C3636 C 0.28548 0.24038 0.64061 0.0
C3637 C 0.2836 0.22832 0.61652 0.0
C3638 C 0.30231 0.19476 0.67752 0.0
C3639 C 0.28065 0.26448 0.64437 0.0
C3640 C 0.27427 0.24542 0.72168 0.0
C3641 C 0.2934 0.25964 0.73649 0.0
C3642 C 0.27331 0.23598 0.69696 0.0
C3643 C 0.29185 0.24108 0.68656 0.0
C3644 C 0.31106 0.25601 0.70121 0.0
C3645 C 0.31164 0.26496 0.72598 0.0
C3646 C 0.25255 0.21995 0.68216 0.0
C3647 C 0.33114 0.26217 0.69085 0.0
H3648 H 0.29754 0.17816 0.62939 0.0
H3649 H 0.27854 0.23641 0.60111 0.0
H3650 H 0.31642 0.20659 0.69053 0.0
H3651 H 0.28912 0.19101 0.68781 0.0
H3652 H 0.30605 0.17765 0.67117 0.0
H3653 H 0.27779 0.27128 0.62691 0.0
H3654 H 0.26631 0.26319 0.65279 0.0
H3655 H 0.29405 0.27769 0.65722 0.0
H3656 H 0.26009 0.24113 0.72956 0.0
H3657 H 0.32647 0.27609 0.73714 0.0
H3658 H 0.25454 0.20179 0.67647 0.0
H3659 H 0.2479 0.22686 0.66522 0.0
H3660 H 0.23938 0.21842 0.69261 0.0
H3661 H 0.33641 0.24576 0.6859 0.0
H3662 H 0.34434 0.27536 0.70404 0.0
H3663 H 0.32801 0.26957 0.67383 0.0
C3664 C 0.62456 0.5387 0.24739 0.0
C3665 C 0.616 0.54883 0.26641 0.0
C3666 C 0.61492 0.53611 0.2227 0.0
C3667 C 0.5961 0.54362 0.21673 0.0
C3668 C 0.58676 0.55276 0.23581 0.0
C3669 C 0.59687 0.55538 0.26042 0.0
C3670 C 0.62545 0.52631 0.20298 0.0
C3671 C 0.56646 0.56052 0.23019 0.0
C3672 C 0.58696 0.56335 0.15485 0.0
C3673 C 0.57269 0.5429 0.14015 0.0
C3674 C 0.5944 0.56389 0.17983 0.0
C3675 C 0.58722 0.54356 0.19054 0.0
C3676 C 0.57245 0.52301 0.17592 0.0
C3677 C 0.5655 0.52286 0.15087 0.0
C3678 C 0.61031 0.58608 0.19467 0.0
C3679 C 0.56426 0.501 0.18655 0.0
H3680 H 0.63928 0.53347 0.2517 0.0
H3681 H 0.59003 0.56309 0.27491 0.0
H3682 H 0.61388 0.51116 0.19013 0.0
H3683 H 0.63088 0.54036 0.19216 0.0
H3684 H 0.63939 0.52008 0.21064 0.0
H3685 H 0.56018 0.56519 0.24698 0.0
H3686 H 0.56942 0.57636 0.22104 0.0
H3687 H 0.55406 0.5461 0.21734 0.0
H3688 H 0.59264 0.57891 0.14677 0.0
H3689 H 0.55441 0.50698 0.13969 0.0
H3690 H 0.62537 0.58167 0.20177 0.0
H3691 H 0.60411 0.59293 0.21074 0.0
H3692 H 0.61395 0.60054 0.18375 0.0
H3693 H 0.57711 0.49183 0.19017 0.0
H3694 H 0.55042 0.48818 0.17392 0.0
H3695 H 0.55948 0.50592 0.20428 0.0
C3696 C 0.21583 0.8064 0.94334 0.0
C3697 C 0.21646 0.80321 0.96775 0.0
C3698 C 0.22565 0.79342 0.92795 0.0
C3699 C 0.23624 0.77713 0.93743 0.0
C3700 C 0.23348 0.77082 0.9604 0.0
C3701 C 0.22337 0.78386 0.97531 0.0
C3702 C 0.22733 0.79971 0.90293 0.0
C3703 C 0.24389 0.75289 0.97075 0.0
C3704 C 0.26716 0.74949 0.89525 0.0
C3705 C 0.28654 0.76708 0.90066 0.0
C3706 C 0.25076 0.75163 0.908 0.0
C3707 C 0.25409 0.77182 0.92648 0.0
C3708 C 0.27432 0.78866 0.93315 0.0
C3709 C 0.29028 0.78615 0.91992 0.0
C3710 C 0.22948 0.73344 0.90012 0.0
C3711 C 0.27865 0.81033 0.95302 0.0
H3712 H 0.20993 0.82086 0.93712 0.0
H3713 H 0.22327 0.78075 0.99394 0.0
H3714 H 0.24324 0.81191 0.90381 0.0
H3715 H 0.22569 0.78348 0.88927 0.0
H3716 H 0.21501 0.80883 0.89647 0.0
H3717 H 0.23637 0.74603 0.98572 0.0
H3718 H 0.24306 0.73759 0.95629 0.0
H3719 H 0.26097 0.76165 0.97836 0.0
H3720 H 0.26423 0.73506 0.8798 0.0
H3721 H 0.30525 0.7998 0.92369 0.0
H3722 H 0.21916 0.73987 0.88637 0.0
H3723 H 0.22122 0.73072 0.91575 0.0
H3724 H 0.23126 0.71595 0.89147 0.0
H3725 H 0.26909 0.8226 0.94697 0.0
H3726 H 0.29572 0.82035 0.95743 0.0
H3727 H 0.27386 0.80495 0.97001 0.0
C3728 C 0.97015 0.54474 0.74324 0.0
C3729 C 0.95452 0.55761 0.74506 0.0
C3730 C 0.98002 0.5426 0.72227 0.0
C3731 C 0.9749 0.55397 0.702 0.0
C3732 C 0.95935 0.5673 0.70383 0.0
C3733 C 0.94931 0.56867 0.72481 0.0
C3734 C 0.99592 0.52774 0.72175 0.0
C3735 C 0.95336 0.58041 0.68354 0.0
C3736 C 1.01632 0.56586 0.65857 0.0
C3737 C 1.00749 0.54817 0.63734 0.0
C3738 C 1.00587 0.5682 0.67902 0.0
C3739 C 0.98595 0.55215 0.67936 0.0
C3740 C 0.97699 0.53414 0.65802 0.0
C3741 C 0.98753 0.53261 0.63747 0.0
C3742 C 1.01623 0.58824 0.70038 0.0
C3743 C 0.95619 0.51611 0.65697 0.0
H3744 H 0.9745 0.53576 0.7582 0.0
H3745 H 0.93741 0.5787 0.72539 0.0
H3746 H 0.99084 0.51357 0.70517 0.0
H3747 H 1.0117 0.53909 0.72061 0.0
H3748 H 0.99777 0.51919 0.73822 0.0
H3749 H 0.94175 0.59073 0.68774 0.0
H3750 H 0.96783 0.59288 0.68034 0.0
H3751 H 0.94633 0.56751 0.66623 0.0
H3752 H 0.03146 0.5784 0.65909 0.0
H3753 H 0.98019 0.51884 0.62154 0.0
H3754 H 0.02032 0.58076 0.71711 0.0
H3755 H 1.00494 0.59912 0.7041 0.0
H3756 H 0.03097 0.60015 0.69704 0.0
H3757 H 0.95758 0.50641 0.67263 0.0
H3758 H 0.95132 0.50289 0.63963 0.0
H3759 H 0.94342 0.52537 0.65871 0.0
C3760 C 0.29208 0.21441 0.46764 0.0
C3761 C 0.2737 0.21357 0.47775 0.0
C3762 C 0.29583 0.22683 0.44811 0.0
C3763 C 0.28069 0.23843 0.43799 0.0
C3764 C 0.26196 0.23733 0.44791 0.0
C3765 C 0.25881 0.22516 0.46771 0.0
C3766 C 0.31616 0.22776 0.43847 0.0
C3767 C 0.24518 0.249 0.43755 0.0
C3768 C 0.29858 0.28907 0.40264 0.0
C3769 C 0.29256 0.27727 0.37815 0.0
C3770 C 0.29486 0.2767 0.42218 0.0
C3771 C 0.28453 0.2519 0.41726 0.0
C3772 C 0.27799 0.24003 0.39251 0.0
C3773 C 0.28224 0.25276 0.37334 0.0
C3774 C 0.30238 0.29012 0.44818 0.0
C3775 C 0.26662 0.21377 0.38624 0.0
H3776 H 0.30375 0.20564 0.47525 0.0
H3777 H 0.24449 0.22457 0.47521 0.0
H3778 H 0.3124 0.21985 0.4187 0.0
H3779 H 0.3253 0.24664 0.44022 0.0
H3780 H 0.32643 0.21805 0.44838 0.0
H3781 H 0.23122 0.24596 0.44675 0.0
H3782 H 0.25208 0.26853 0.43958 0.0
H3783 H 0.2396 0.24192 0.41765 0.0
H3784 H 0.30667 0.30795 0.4066 0.0
H3785 H 0.27763 0.24341 0.35452 0.0
H3786 H 0.31384 0.28191 0.45835 0.0
H3787 H 0.28873 0.28885 0.45779 0.0
H3788 H 0.31022 0.3093 0.44901 0.0
H3789 H 0.27713 0.20316 0.39399 0.0
H3790 H 0.2618 0.20736 0.36614 0.0
H3791 H 0.2522 0.21027 0.39458 0.0
C3792 C 0.37896 0.60764 0.62908 0.0
C3793 C 0.38552 0.63166 0.62652 0.0
C3794 C 0.39034 0.59129 0.62182 0.0
C3795 C 0.40891 0.59934 0.61228 0.0
C3796 C 0.41611 0.62378 0.61063 0.0
C3797 C 0.40416 0.63964 0.61754 0.0
C3798 C 0.38201 0.56528 0.62342 0.0
C3799 C 0.43618 0.63306 0.60109 0.0
C3800 C 0.44889 0.56231 0.61068 0.0
C3801 C 0.44522 0.55271 0.58561 0.0
C3802 C 0.43697 0.57724 0.61972 0.0
C3803 C 0.42057 0.58215 0.60339 0.0
C3804 C 0.41592 0.57146 0.57833 0.0
C3805 C 0.42846 0.55702 0.56967 0.0
C3806 C 0.44245 0.58845 0.64655 0.0
C3807 C 0.39822 0.57597 0.5605 0.0
H3808 H 0.36442 0.60135 0.6358 0.0
H3809 H 0.40928 0.65822 0.61563 0.0
H3810 H 0.3776 0.55436 0.60474 0.0
H3811 H 0.39456 0.55879 0.63396 0.0
H3812 H 0.36783 0.56213 0.63224 0.0
H3813 H 0.44026 0.65279 0.60237 0.0
H3814 H 0.44977 0.62811 0.61156 0.0
H3815 H 0.43419 0.62471 0.58162 0.0
H3816 H 0.46149 0.55864 0.62319 0.0
H3817 H 0.42562 0.5499 0.55025 0.0
H3818 H 0.42841 0.58335 0.65526 0.0
H3819 H 0.4468 0.60823 0.64847 0.0
H3820 H 0.45591 0.58303 0.65673 0.0
H3821 H 0.38316 0.57242 0.56764 0.0
H3822 H 0.39546 0.56468 0.54214 0.0
H3823 H 0.40222 0.59502 0.55835 0.0
C3824 C 0.90182 0.97464 0.59404 0.0
C3825 C 0.89877 0.95089 0.59777 0.0
C3826 C 0.9217 0.98794 0.59061 0.0
C3827 C 0.93921 0.97753 0.59158 0.0
C3828 C 0.93635 0.95376 0.59599 0.0
C3829 C 0.91617 0.94067 0.59868 0.0
C3830 C 0.92384 1.013 0.58545 0.0
C3831 C 0.95464 0.94212 0.59787 0.0
C3832 C 0.98562 1.00284 0.56077 0.0
C3833 C 1.00023 0.01839 0.58042 0.0
C3834 C 0.9657 0.9896 0.56409 0.0
C3835 C 0.96044 0.99141 0.58778 0.0
C3836 C 0.97549 1.0066 0.6078 0.0
C3837 C 0.99503 0.02012 0.60382 0.0
C3838 C 0.9501 0.97401 0.54212 0.0
C3839 C 0.97095 1.00856 0.63348 0.0
H3840 H 0.88848 0.98265 0.59311 0.0
H3841 H 0.91405 0.9224 0.6017 0.0
H3842 H 0.93632 0.02588 0.59971 0.0
H3843 H 0.92893 1.01431 0.56759 0.0
H3844 H 0.9087 0.01844 0.58492 0.0
H3845 H 0.95011 0.92396 0.60254 0.0
H3846 H 0.96032 0.9407 0.58023 0.0
H3847 H 0.96823 0.95331 0.61208 0.0
H3848 H 0.98954 1.00147 0.54263 0.0
H3849 H 1.00637 0.03195 0.61912 0.0
H3850 H 0.93502 0.97964 0.53997 0.0
H3851 H 0.94616 0.95515 0.5449 0.0
H3852 H 0.95641 0.97484 0.52489 0.0
H3853 H 0.95689 1.01584 0.6343 0.0
H3854 H 0.98466 0.02029 0.64722 0.0
H3855 H 0.96707 0.99058 0.63863 0.0
C3856 C 0.90261 0.08023 0.25415 0.0
C3857 C 0.91062 0.07113 0.27444 0.0
C3858 C 0.89271 0.09897 0.25701 0.0
C3859 C 0.89014 0.10828 0.28067 0.0
C3860 C 0.89865 0.09951 0.30133 0.0
C3861 C 0.9091 0.08123 0.29799 0.0
C3862 C 0.88442 0.10828 0.2346 0.0
C3863 C 0.89577 0.10857 0.32676 0.0
C3864 C 0.8741 0.1669 0.28924 0.0
C3865 C 0.85185 0.15872 0.28495 0.0
C3866 C 0.88688 0.15072 0.28811 0.0
C3867 C 0.87713 0.12583 0.2834 0.0
C3868 C 0.85468 0.11755 0.28005 0.0
C3869 C 0.84231 0.13411 0.28053 0.0
C3870 C 0.9107 0.16021 0.29112 0.0
C3871 C 0.84369 0.09119 0.27562 0.0
H3872 H 0.90397 0.07256 0.23594 0.0
H3873 H 0.91519 0.07407 0.31366 0.0
H3874 H 0.86675 0.10335 0.23102 0.0
H3875 H 0.88987 0.12808 0.23769 0.0
H3876 H 0.88971 0.10095 0.21798 0.0
H3877 H 0.90452 0.10107 0.34104 0.0
H3878 H 0.90131 0.12835 0.33108 0.0
H3879 H 0.87858 0.10362 0.32764 0.0
H3880 H 0.8815 0.18594 0.29282 0.0
H3881 H 0.82509 0.12781 0.27758 0.0
H3882 H 0.91588 0.15421 0.27396 0.0
H3883 H 0.91901 0.15297 0.30593 0.0
H3884 H 0.91584 0.18005 0.29547 0.0
H3885 H 0.84601 0.08245 0.25779 0.0
H3886 H 0.82631 0.0878 0.27536 0.0
H3887 H 0.85079 0.08256 0.29008 0.0
C3888 C 0.78968 0.11833 0.15539 0.0
C3889 C 0.79784 0.13074 0.13773 0.0
C3890 C 0.76761 0.10934 0.15338 0.0
C3891 C 0.75354 0.11282 0.13321 0.0
C3892 C 0.76179 0.12388 0.11453 0.0
C3893 C 0.78383 0.13275 0.11704 0.0
C3894 C 0.75937 0.09751 0.17359 0.0
C3895 C 0.7473 0.12773 0.0926 0.0
C3896 C 0.69436 0.08225 0.11831 0.0
C3897 C 0.68588 0.10064 0.12789 0.0
C3898 C 0.71646 0.08554 0.12068 0.0
C3899 C 0.73032 0.10771 0.13294 0.0
C3900 C 0.72188 0.12604 0.1433 0.0
C3901 C 0.69978 0.12231 0.14054 0.0
C3902 C 0.72495 0.06561 0.10947 0.0
C3903 C 0.73616 0.14995 0.15653 0.0
H3904 H 0.80043 0.11662 0.17138 0.0
H3905 H 0.79004 0.142 0.10312 0.0
H3906 H 0.7524 0.10977 0.18468 0.0
H3907 H 0.74655 0.08096 0.16585 0.0
H3908 H 0.77218 0.09299 0.18596 0.0
H3909 H 0.75623 0.13433 0.07852 0.0
H3910 H 0.73516 0.11087 0.08401 0.0
H3911 H 0.7387 0.14103 0.09863 0.0
H3912 H 0.6837 0.06532 0.10885 0.0
H3913 H 0.69338 0.13672 0.1477 0.0
H3914 H 0.73746 0.06211 0.1231 0.0
H3915 H 0.73243 0.071 0.09395 0.0
H3916 H 0.71222 0.04877 0.10257 0.0
H3917 H 0.74847 0.14741 0.1711 0.0
H3918 H 0.72714 0.16165 0.16501 0.0
H3919 H 0.74457 0.1593 0.14346 0.0
C3920 C 0.23206 0.45179 0.30042 0.0
C3921 C 0.22159 0.45917 0.31919 0.0
C3922 C 0.24139 0.43183 0.30041 0.0
C3923 C 0.24086 0.4182 0.3198 0.0
C3924 C 0.23036 0.4256 0.33883 0.0
C3925 C 0.22096 0.44548 0.33825 0.0
C3926 C 0.25171 0.42511 0.27924 0.0
C3927 C 0.22901 0.41239 0.36009 0.0
C3928 C 0.24892 0.35281 0.31013 0.0
C3929 C 0.27065 0.35567 0.32031 0.0
C3930 C 0.23927 0.37249 0.30972 0.0
C3931 C 0.25114 0.39648 0.32009 0.0
C3932 C 0.27303 0.39945 0.33062 0.0
C3933 C 0.28236 0.37947 0.33045 0.0
C3934 C 0.21609 0.36738 0.29807 0.0
C3935 C 0.2868 0.42401 0.34228 0.0
H3936 H 0.23287 0.4616 0.28535 0.0
H3937 H 0.2131 0.45039 0.35303 0.0
H3938 H 0.26873 0.42621 0.28603 0.0
H3939 H 0.24392 0.40632 0.27029 0.0
H3940 H 0.2507 0.43685 0.2653 0.0
H3941 H 0.22128 0.42056 0.37404 0.0
H3942 H 0.21979 0.39354 0.35335 0.0
H3943 H 0.24522 0.41212 0.369 0.0
H3944 H 0.23929 0.33497 0.30201 0.0
H3945 H 0.29906 0.38262 0.33846 0.0
H3946 H 0.21353 0.38049 0.28605 0.0
H3947 H 0.20655 0.36905 0.31261 0.0
H3948 H 0.20998 0.34909 0.28705 0.0
H3949 H 0.28768 0.43592 0.32843 0.0
H3950 H 0.30324 0.42371 0.35034 0.0
H3951 H 0.27959 0.4319 0.35693 0.0
C3952 C 0.26208 0.44354 0.07196 0.0
C3953 C 0.27801 0.45296 0.09302 0.0
C3954 C 0.24338 0.45159 0.06836 0.0
C3955 C 0.24039 0.46945 0.08627 0.0
C3956 C 0.25644 0.47902 0.10753 0.0
C3957 C 0.27498 0.47073 0.1106 0.0
C3958 C 0.22678 0.44095 0.04538 0.0
C3959 C 0.25401 0.49805 0.12712 0.0
C3960 C 0.20254 0.50788 0.06915 0.0
C3961 C 0.1845 0.49763 0.07844 0.0
C3962 C 0.22055 0.49861 0.07111 0.0
C3963 C 0.22073 0.47851 0.08269 0.0
C3964 C 0.20242 0.46775 0.09166 0.0
C3965 C 0.18456 0.47736 0.08937 0.0
C3966 C 0.23955 0.5106 0.0611 0.0
C3967 C 0.2019 0.44637 0.10421 0.0
H3968 H 0.26418 0.42978 0.05827 0.0
H3969 H 0.28708 0.47812 0.12699 0.0
H3970 H 0.21136 0.43264 0.05026 0.0
H3971 H 0.22417 0.45525 0.035 0.0
H3972 H 0.23142 0.42722 0.03322 0.0
H3973 H 0.26778 0.50347 0.14271 0.0
H3974 H 0.25237 0.51409 0.1192 0.0
H3975 H 0.23929 0.49145 0.13425 0.0
H3976 H 0.20258 0.52326 0.06026 0.0
H3977 H 0.17083 0.46937 0.09676 0.0
H3978 H 0.24374 0.49738 0.04789 0.0
H3979 H 0.25356 0.51784 0.07623 0.0
H3980 H 0.23662 0.52546 0.05174 0.0
H3981 H 0.20554 0.43183 0.09211 0.0
H3982 H 0.1862 0.4394 0.10923 0.0
H3983 H 0.21435 0.45135 0.12112 0.0
C3984 C 0.88297 0.94795 0.28367 0.0
C3985 C 0.9032 0.946 0.2801 0.0
C3986 C 0.86747 0.92812 0.28676 0.0
C3987 C 0.87201 0.90551 0.28554 0.0
C3988 C 0.89223 0.90326 0.2813 0.0
C3989 C 0.90774 0.92363 0.27909 0.0
C3990 C 0.84639 0.93153 0.29194 0.0
C3991 C 0.89769 0.87947 0.27952 0.0
C3992 C 0.83907 0.86074 0.31723 0.0
C3993 C 0.82247 0.84795 0.29795 0.0
C3994 C 0.85553 0.8792 0.31337 0.0
C3995 C 0.85568 0.88458 0.28948 0.0
C3996 C 0.83936 0.87101 0.26975 0.0
C3997 C 0.82273 0.85308 0.27429 0.0
C3998 C 0.87238 0.8934 0.33499 0.0
C3999 C 0.83942 0.87553 0.24388 0.0
H4000 H 0.87941 0.96522 0.28472 0.0
H4001 H 0.92332 0.922 0.27628 0.0
H4002 H 0.83315 0.91999 0.27754 0.0
H4003 H 0.84383 0.92607 0.3097 0.0
H4004 H 0.84549 0.95036 0.29272 0.0
H4005 H 0.91171 0.87954 0.27067 0.0
H4006 H 0.90156 0.87549 0.29821 0.0
H4007 H 0.88403 0.86482 0.26903 0.0
H4008 H 0.83888 0.85672 0.33554 0.0
H4009 H 0.81005 0.8429 0.25931 0.0
H4010 H 0.87238 0.91256 0.33706 0.0
H4011 H 0.88837 0.89217 0.33186 0.0
H4012 H 0.86987 0.88707 0.3524 0.0
H4013 H 0.82666 0.86213 0.23032 0.0
H4014 H 0.85506 0.87515 0.23892 0.0
H4015 H 0.83713 0.89357 0.24254 0.0
C4016 C 0.73927 0.09769 0.83387 0.0
C4017 C 0.71859 0.09277 0.83935 0.0
C4018 C 0.75081 0.12135 0.83249 0.0
C4019 C 0.74157 0.14108 0.83598 0.0
C4020 C 0.72074 0.13617 0.84148 0.0
C4021 C 0.70981 0.11256 0.84331 0.0
C4022 C 0.77303 0.12522 0.82716 0.0
C4023 C 0.70964 0.15591 0.84492 0.0
C4024 C 0.77514 0.20765 0.85228 0.0
C4025 C 0.77363 0.21558 0.82951 0.0
C4026 C 0.7655 0.18367 0.85451 0.0
C4027 C 0.75331 0.16665 0.83363 0.0
C4028 C 0.7517 0.17459 0.81061 0.0
C4029 C 0.76196 0.19852 0.80881 0.0
C4030 C 0.7684 0.17654 0.87944 0.0
C4031 C 0.73868 0.15785 0.78774 0.0
H4032 H 0.74651 0.08299 0.83061 0.0
H4033 H 0.69387 0.10954 0.84726 0.0
H4034 H 0.77346 0.13147 0.80937 0.0
H4035 H 0.78428 0.13938 0.84147 0.0
H4036 H 0.77865 0.10868 0.82639 0.0
H4037 H 0.69341 0.14942 0.84878 0.0
H4038 H 0.71912 0.17019 0.8603 0.0
H4039 H 0.70835 0.1641 0.82818 0.0
H4040 H 0.78414 0.22022 0.86853 0.0
H4041 H 0.7604 0.20403 0.79105 0.0
H4042 H 0.7746 0.16039 0.87859 0.0
H4043 H 0.7528 0.17188 0.88527 0.0
H4044 H 0.77952 0.19102 0.89357 0.0
H4045 H 0.74488 0.14183 0.78462 0.0
H4046 H 0.73883 0.16644 0.77122 0.0
H4047 H 0.72194 0.1516 0.79006 0.0
loop_
_geom_bond_atom_site_label_1
_geom_bond_atom_site_label_2
_geom_bond_distance
_geom_bond_site_symmetry_2
_ccdc_geom_bond_type
O0 Cd1 2.223 1_655 S
O0 C8 1.315 . S
Cd1 O0 2.223 1_455 S
Cd1 O4 2.297 . S
Cd1 O5 2.439 . S
Cd1 O11 2.240 1_455 S
Cd2 O3 2.240 1_655 S
Cd2 O10 2.223 . S
Cd2 O12 2.297 . S
Cd2 O13 2.439 1_655 S
O3 Cd2 2.240 1_455 S
O3 C8 1.279 1_455 S
O4 Cd1 2.297 . S
O4 C6 1.247 . S
O5 Cd1 2.439 . S
O5 C6 1.208 . S
C6 O4 1.247 . S
C6 O5 1.208 . S
C7 O12 1.247 1_455 S
C7 O13 1.208 . S
C8 O0 1.315 . S
C8 O3 1.279 1_655 S
C9 O10 1.315 . S
C9 O11 1.279 . S
O10 Cd2 2.223 . S
O10 C9 1.315 . S
O11 Cd1 2.240 1_655 S
O11 C9 1.279 . S
O12 Cd2 2.297 . S
O12 C7 1.247 1_655 S
O13 Cd2 2.439 1_455 S
O13 C7 1.208 . S
O14 Cd15 2.223 . S
O14 C22 1.315 . S
Cd15 O14 2.223 . S
Cd15 O18 2.297 . S
Cd15 O19 2.439 . S
Cd15 O25 2.240 . S
Cd16 O17 2.240 . S
Cd16 O24 2.223 . S
Cd16 O26 2.297 . S
Cd16 O27 2.439 . S
O17 Cd16 2.240 . S
O17 C22 1.279 . S
O18 Cd15 2.297 . S
O18 C20 1.247 . S
O19 Cd15 2.439 . S
O19 C20 1.208 . S
C20 O18 1.247 . S
C20 O19 1.208 . S
C21 O26 1.247 . S
C21 O27 1.208 . S
C22 O14 1.315 . S
C22 O17 1.279 . S
C23 O24 1.315 . S
C23 O25 1.279 . S
O24 Cd16 2.223 . S
O24 C23 1.315 . S
O25 Cd15 2.240 . S
O25 C23 1.279 . S
O26 Cd16 2.297 . S
O26 C21 1.247 . S
O27 Cd16 2.439 . S
O27 C21 1.208 . S
O28 Cd29 2.223 . S
O28 C36 1.315 . S
Cd29 O28 2.223 . S
Cd29 O32 2.297 . S
Cd29 O33 2.439 . S
Cd29 O39 2.240 . S
Cd30 O31 2.240 . S
Cd30 O38 2.223 . S
Cd30 O40 2.297 . S
Cd30 O41 2.439 . S
O31 Cd30 2.240 . S
O31 C36 1.279 . S
O32 Cd29 2.297 . S
O32 C34 1.247 . S
O33 Cd29 2.439 . S
O33 C34 1.208 . S
C34 O32 1.247 . S
C34 O33 1.208 . S
C35 O40 1.247 . S
C35 O41 1.208 . S
C36 O28 1.315 . S
C36 O31 1.279 . S
C37 O38 1.315 . S
C37 O39 1.279 . S
O38 Cd30 2.223 . S
O38 C37 1.315 . S
O39 Cd29 2.240 . S
O39 C37 1.279 . S
O40 Cd30 2.297 . S
O40 C35 1.247 . S
O41 Cd30 2.439 . S
O41 C35 1.208 . S
O42 Cd43 2.223 . S
O42 C50 1.315 . S
Cd43 O42 2.223 . S
Cd43 O46 2.297 . S
Cd43 O47 2.439 . S
Cd43 O53 2.240 . S
Cd44 O45 2.240 . S
Cd44 O52 2.223 . S
Cd44 O54 2.297 . S
Cd44 O55 2.439 . S
O45 Cd44 2.240 . S
O45 C50 1.279 . S
O46 Cd43 2.297 . S
O46 C48 1.247 . S
O47 Cd43 2.439 . S
O47 C48 1.208 . S
C48 O46 1.247 . S
C48 O47 1.208 . S
C49 O54 1.247 . S
C49 O55 1.208 . S
C50 O42 1.315 . S
C50 O45 1.279 . S
C51 O52 1.315 . S
C51 O53 1.279 . S
O52 Cd44 2.223 . S
O52 C51 1.315 . S
O53 Cd43 2.240 . S
O53 C51 1.279 . S
O54 Cd44 2.297 . S
O54 C49 1.247 . S
O55 Cd44 2.439 . S
O55 C49 1.208 . S
O56 Cd57 2.223 . S
O56 C64 1.315 . S
Cd57 O56 2.223 . S
Cd57 O60 2.297 . S
Cd57 O61 2.439 . S
Cd57 O67 2.240 . S
Cd58 O59 2.240 . S
Cd58 O66 2.223 . S
Cd58 O68 2.297 . S
Cd58 O69 2.439 . S
O59 Cd58 2.240 . S
O59 C64 1.279 . S
O60 Cd57 2.297 . S
O60 C62 1.247 . S
O61 Cd57 2.439 . S
O61 C62 1.208 . S
C62 O60 1.247 . S
C62 O61 1.208 . S
C63 O68 1.247 . S
C63 O69 1.208 . S
C64 O56 1.315 . S
C64 O59 1.279 . S
C65 O66 1.315 . S
C65 O67 1.279 . S
O66 Cd58 2.223 . S
O66 C65 1.315 . S
O67 Cd57 2.240 . S
O67 C65 1.279 . S
O68 Cd58 2.297 . S
O68 C63 1.247 . S
O69 Cd58 2.439 . S
O69 C63 1.208 . S
O70 Cd71 2.223 . S
O70 C78 1.315 . S
Cd71 O70 2.223 . S
Cd71 O74 2.297 . S
Cd71 O75 2.439 . S
Cd71 O81 2.240 . S
Cd72 O73 2.240 . S
Cd72 O80 2.223 . S
Cd72 O82 2.297 . S
Cd72 O83 2.439 . S
O73 Cd72 2.240 . S
O73 C78 1.279 . S
O74 Cd71 2.297 . S
O74 C76 1.247 . S
O75 Cd71 2.439 . S
O75 C76 1.208 . S
C76 O74 1.247 . S
C76 O75 1.208 . S
C77 O82 1.247 . S
C77 O83 1.208 . S
C78 O70 1.315 . S
C78 O73 1.279 . S
C79 O80 1.315 . S
C79 O81 1.279 . S
O80 Cd72 2.223 . S
O80 C79 1.315 . S
O81 Cd71 2.240 . S
O81 C79 1.279 . S
O82 Cd72 2.297 . S
O82 C77 1.247 . S
O83 Cd72 2.439 . S
O83 C77 1.208 . S
O84 Cd85 2.223 . S
O84 C92 1.315 . S
Cd85 O84 2.223 . S
Cd85 O88 2.297 . S
Cd85 O89 2.439 . S
Cd85 O95 2.240 . S
Cd86 O87 2.240 . S
Cd86 O94 2.223 . S
Cd86 O96 2.297 . S
Cd86 O97 2.439 . S
O87 Cd86 2.240 . S
O87 C92 1.279 . S
O88 Cd85 2.297 . S
O88 C90 1.247 . S
O89 Cd85 2.439 . S
O89 C90 1.208 . S
C90 O88 1.247 . S
C90 O89 1.208 . S
C91 O96 1.247 . S
C91 O97 1.208 . S
C92 O84 1.315 . S
C92 O87 1.279 . S
C93 O94 1.315 . S
C93 O95 1.279 . S
O94 Cd86 2.223 . S
O94 C93 1.315 . S
O95 Cd85 2.240 . S
O95 C93 1.279 . S
O96 Cd86 2.297 . S
O96 C91 1.247 . S
O97 Cd86 2.439 . S
O97 C91 1.208 . S
O98 Cd99 2.223 . S
O98 C106 1.315 . S
Cd99 O98 2.223 . S
Cd99 O102 2.297 . S
Cd99 O103 2.439 . S
Cd99 O109 2.240 1_455 S
Cd100 O101 2.240 . S
Cd100 O108 2.223 1_455 S
Cd100 O110 2.303 . S
Cd100 O111 2.439 . S
O101 Cd100 2.240 . S
O101 C106 1.279 . S
O102 Cd99 2.297 . S
O102 C104 1.247 . S
O103 Cd99 2.439 . S
O103 C104 1.208 . S
C104 O102 1.247 . S
C104 O103 1.208 . S
C105 O110 1.258 . S
C105 O111 1.208 . S
C106 O98 1.315 . S
C106 O101 1.279 . S
C107 O108 1.315 . S
C107 O109 1.279 . S
O108 Cd100 2.223 1_655 S
O108 C107 1.315 . S
O109 Cd99 2.240 1_655 S
O109 C107 1.279 . S
O110 Cd100 2.303 . S
O110 C105 1.258 . S
O111 Cd100 2.439 . S
O111 C105 1.208 . S
O112 Cd113 2.223 . S
O112 C120 1.315 . S
Cd113 O112 2.223 . S
Cd113 O116 2.297 . S
Cd113 O117 2.439 . S
Cd113 O123 2.240 . S
Cd114 O115 2.240 . S
Cd114 O122 2.223 1_545 S
Cd114 O124 2.297 . S
Cd114 O125 2.439 . S
O115 Cd114 2.240 . S
O115 C120 1.279 . S
O116 Cd113 2.297 . S
O116 C118 1.247 . S
O117 Cd113 2.439 . S
O117 C118 1.208 . S
C118 O116 1.247 . S
C118 O117 1.208 . S
C119 O124 1.247 . S
C119 O125 1.208 . S
C120 O112 1.315 . S
C120 O115 1.279 . S
C121 O122 1.315 . S
C121 O123 1.279 1_565 S
O122 Cd114 2.223 1_565 S
O122 C121 1.315 . S
O123 Cd113 2.240 . S
O123 C121 1.279 1_545 S
O124 Cd114 2.297 . S
O124 C119 1.247 . S
O125 Cd114 2.439 . S
O125 C119 1.208 . S
O126 Cd127 2.223 . S
O126 C134 1.315 . S
Cd127 O126 2.223 . S
Cd127 O130 2.297 . S
Cd127 O131 2.439 . S
Cd127 O137 2.240 . S
Cd128 O129 2.240 . S
Cd128 O136 2.223 . S
Cd128 O138 2.297 . S
Cd128 O139 2.439 . S
O129 Cd128 2.240 . S
O129 C134 1.279 . S
O130 Cd127 2.297 . S
O130 C132 1.247 . S
O131 Cd127 2.439 . S
O131 C132 1.208 . S
C132 O130 1.247 . S
C132 O131 1.208 . S
C133 O138 1.247 . S
C133 O139 1.208 . S
C134 O126 1.315 . S
C134 O129 1.279 . S
C135 O136 1.315 . S
C135 O137 1.279 . S
O136 Cd128 2.223 . S
O136 C135 1.315 . S
O137 Cd127 2.240 . S
O137 C135 1.279 . S
O138 Cd128 2.297 . S
O138 C133 1.247 . S
O139 Cd128 2.439 . S
O139 C133 1.208 . S
O140 Cd141 2.223 . S
O140 C148 1.315 . S
Cd141 O140 2.223 . S
Cd141 O144 2.297 1_545 S
Cd141 O145 2.439 1_545 S
Cd141 O151 2.240 . S
Cd142 O143 2.240 . S
Cd142 O150 2.223 . S
Cd142 O152 2.297 . S
Cd142 O153 2.439 . S
O143 Cd142 2.240 . S
O143 C148 1.279 . S
O144 Cd141 2.297 1_565 S
O144 C146 1.247 . S
O145 Cd141 2.439 1_565 S
O145 C146 1.208 . S
C146 O144 1.247 . S
C146 O145 1.208 . S
C147 O152 1.247 . S
C147 O153 1.208 . S
C148 O140 1.315 . S
C148 O143 1.279 . S
C149 O150 1.315 . S
C149 O151 1.279 . S
O150 Cd142 2.223 . S
O150 C149 1.315 . S
O151 Cd141 2.240 . S
O151 C149 1.279 . S
O152 Cd142 2.297 . S
O152 C147 1.247 . S
O153 Cd142 2.439 . S
O153 C147 1.208 . S
O154 Cd155 2.223 . S
O154 C162 1.315 . S
Cd155 O154 2.223 . S
Cd155 O158 2.297 . S
Cd155 O159 2.439 1_554 S
Cd155 O165 2.217 1_554 S
Cd156 O157 2.240 1_556 S
Cd156 O164 2.223 1_556 S
Cd156 O166 2.297 . S
Cd156 O167 2.439 . S
O157 Cd156 2.240 1_554 S
O157 C162 1.279 . S
O158 Cd155 2.297 . S
O158 C160 1.247 . S
O159 Cd155 2.439 1_556 S
O159 C160 1.208 1_556 S
C160 O158 1.247 . S
C160 O159 1.208 1_554 S
C161 O166 1.247 . S
C161 O167 1.208 . S
C162 O154 1.315 . S
C162 O157 1.279 . S
C163 O164 1.315 . S
C163 O165 1.268 1_554 S
O164 Cd156 2.223 1_554 S
O164 C163 1.315 . S
O165 Cd155 2.217 1_556 S
O165 C163 1.268 1_556 S
O166 Cd156 2.297 . S
O166 C161 1.247 . S
O167 Cd156 2.439 . S
O167 C161 1.208 . S
O168 Cd169 2.223 . S
O168 C176 1.315 . S
Cd169 O168 2.223 . S
Cd169 O172 2.297 . S
Cd169 O173 2.439 . S
Cd169 O179 2.240 . S
Cd170 O171 2.240 . S
Cd170 O178 2.223 . S
Cd170 O180 2.297 . S
Cd170 O181 2.439 . S
O171 Cd170 2.240 . S
O171 C176 1.279 . S
O172 Cd169 2.297 . S
O172 C174 1.247 . S
O173 Cd169 2.439 . S
O173 C174 1.208 . S
C174 O172 1.247 . S
C174 O173 1.208 . S
C175 O180 1.247 . S
C175 O181 1.208 . S
C176 O168 1.315 . S
C176 O171 1.279 . S
C177 O178 1.315 . S
C177 O179 1.279 . S
O178 Cd170 2.223 . S
O178 C177 1.315 . S
O179 Cd169 2.240 . S
O179 C177 1.279 . S
O180 Cd170 2.297 . S
O180 C175 1.247 . S
O181 Cd170 2.439 . S
O181 C175 1.208 . S
O182 Cd183 2.223 . S
O182 C190 1.315 . S
Cd183 O182 2.223 . S
Cd183 O186 2.297 . S
Cd183 O187 2.439 . S
Cd183 O193 2.240 . S
Cd184 O185 2.240 . S
Cd184 O192 2.223 . S
Cd184 O194 2.297 . S
Cd184 O195 2.439 . S
O185 Cd184 2.240 . S
O185 C190 1.279 . S
O186 Cd183 2.297 . S
O186 C188 1.247 . S
O187 Cd183 2.439 . S
O187 C188 1.208 . S
C188 O186 1.247 . S
C188 O187 1.208 . S
C189 O194 1.247 . S
C189 O195 1.208 . S
C190 O182 1.315 . S
C190 O185 1.279 . S
C191 O192 1.315 . S
C191 O193 1.279 . S
O192 Cd184 2.223 . S
O192 C191 1.315 . S
O193 Cd183 2.240 . S
O193 C191 1.279 . S
O194 Cd184 2.297 . S
O194 C189 1.247 . S
O195 Cd184 2.439 . S
O195 C189 1.208 . S
O196 Cd197 2.223 . S
O196 C204 1.315 . S
Cd197 O196 2.223 . S
Cd197 O200 2.297 . S
Cd197 O201 2.439 . S
Cd197 O207 2.240 . S
Cd198 O199 2.240 . S
Cd198 O206 2.223 . S
Cd198 O208 2.297 . S
Cd198 O209 2.439 . S
O199 Cd198 2.240 . S
O199 C204 1.279 . S
O200 Cd197 2.297 . S
O200 C202 1.247 . S
O201 Cd197 2.439 . S
O201 C202 1.208 . S
C202 O200 1.247 . S
C202 O201 1.208 . S
C203 O208 1.247 . S
C203 O209 1.208 . S
C204 O196 1.315 . S
C204 O199 1.279 . S
C205 O206 1.315 . S
C205 O207 1.279 . S
O206 Cd198 2.223 . S
O206 C205 1.315 . S
O207 Cd197 2.240 . S
O207 C205 1.279 . S
O208 Cd198 2.297 . S
O208 C203 1.247 . S
O209 Cd198 2.439 . S
O209 C203 1.208 . S
O210 Cd211 2.223 . S
O210 C218 1.315 . S
Cd211 O210 2.223 . S
Cd211 O214 2.297 . S
Cd211 O215 2.439 . S
Cd211 O221 2.240 . S
Cd212 O213 2.240 . S
Cd212 O220 2.223 . S
Cd212 O222 2.297 . S
Cd212 O223 2.439 . S
O213 Cd212 2.240 . S
O213 C218 1.279 . S
O214 Cd211 2.297 . S
O214 C216 1.247 . S
O215 Cd211 2.439 . S
O215 C216 1.208 . S
C216 O214 1.247 . S
C216 O215 1.208 . S
C217 O222 1.247 . S
C217 O223 1.208 . S
C218 O210 1.315 . S
C218 O213 1.279 . S
C219 O220 1.315 . S
C219 O221 1.279 . S
O220 Cd212 2.223 . S
O220 C219 1.315 . S
O221 Cd211 2.240 . S
O221 C219 1.279 . S
O222 Cd212 2.297 . S
O222 C217 1.247 . S
O223 Cd212 2.439 . S
O223 C217 1.208 . S
O224 Cd225 2.230 . S
O224 C232 1.315 . S
Cd225 O224 2.230 . S
Cd225 O228 2.273 1_565 S
Cd225 O229 2.419 1_565 S
Cd225 O235 2.261 . S
Cd226 O227 2.240 1_565 S
Cd226 O234 2.223 . S
Cd226 O236 2.297 . S
Cd226 O237 2.439 1_565 S
O227 Cd226 2.240 1_545 S
O227 C232 1.279 1_545 S
O228 Cd225 2.273 1_545 S
O228 C230 1.247 . S
O229 Cd225 2.419 1_545 S
O229 C230 1.208 . S
C230 O228 1.247 . S
C230 O229 1.208 . S
C231 O236 1.209 1_545 S
C231 O237 1.246 . S
C232 O224 1.315 . S
C232 O227 1.279 1_565 S
C233 O234 1.315 . S
C233 O235 1.279 . S
O234 Cd226 2.223 . S
O234 C233 1.315 . S
O235 Cd225 2.261 . S
O235 C233 1.279 . S
O236 Cd226 2.297 . S
O236 C231 1.209 1_565 S
O237 Cd226 2.439 1_545 S
O237 C231 1.246 . S
O238 Cd239 2.223 . S
O238 C246 1.315 . S
Cd239 O238 2.223 . S
Cd239 O242 2.297 . S
Cd239 O243 2.439 . S
Cd239 O249 2.240 . S
Cd240 O241 2.240 . S
Cd240 O248 2.223 . S
Cd240 O250 2.297 . S
Cd240 O251 2.439 . S
O241 Cd240 2.240 . S
O241 C246 1.279 . S
O242 Cd239 2.297 . S
O242 C244 1.247 . S
O243 Cd239 2.439 . S
O243 C244 1.208 . S
C244 O242 1.247 . S
C244 O243 1.208 . S
C245 O250 1.247 . S
C245 O251 1.208 . S
C246 O238 1.315 . S
C246 O241 1.279 . S
C247 O248 1.315 . S
C247 O249 1.279 . S
O248 Cd240 2.223 . S
O248 C247 1.315 . S
O249 Cd239 2.240 . S
O249 C247 1.279 . S
O250 Cd240 2.297 . S
O250 C245 1.247 . S
O251 Cd240 2.439 . S
O251 C245 1.208 . S
O252 Cd253 2.223 . S
O252 C260 1.315 . S
Cd253 O252 2.223 . S
Cd253 O256 2.297 . S
Cd253 O257 2.439 . S
Cd253 O263 2.240 . S
Cd254 O255 2.240 . S
Cd254 O262 2.223 . S
Cd254 O264 2.297 . S
Cd254 O265 2.439 . S
O255 Cd254 2.240 . S
O255 C260 1.279 . S
O256 Cd253 2.297 . S
O256 C258 1.247 . S
O257 Cd253 2.439 . S
O257 C258 1.208 . S
C258 O256 1.247 . S
C258 O257 1.208 . S
C259 O264 1.247 . S
C259 O265 1.208 . S
C260 O252 1.315 . S
C260 O255 1.279 . S
C261 O262 1.315 . S
C261 O263 1.279 . S
O262 Cd254 2.223 . S
O262 C261 1.315 . S
O263 Cd253 2.240 . S
O263 C261 1.279 . S
O264 Cd254 2.297 . S
O264 C259 1.247 . S
O265 Cd254 2.439 . S
O265 C259 1.208 . S
O266 Cd267 2.223 . S
O266 C274 1.315 . S
Cd267 O266 2.223 . S
Cd267 O270 2.297 1_545 S
Cd267 O271 2.439 1_545 S
Cd267 O277 2.240 . S
Cd268 O269 2.240 . S
Cd268 O276 2.223 . S
Cd268 O278 2.297 . S
Cd268 O279 2.439 . S
O269 Cd268 2.240 . S
O269 C274 1.279 . S
O270 Cd267 2.297 1_565 S
O270 C272 1.247 . S
O271 Cd267 2.439 1_565 S
O271 C272 1.208 . S
C272 O270 1.247 . S
C272 O271 1.208 . S
C273 O278 1.247 . S
C273 O279 1.208 . S
C274 O266 1.315 . S
C274 O269 1.279 . S
C275 O276 1.315 . S
C275 O277 1.279 . S
O276 Cd268 2.223 . S
O276 C275 1.315 . S
O277 Cd267 2.240 . S
O277 C275 1.279 . S
O278 Cd268 2.297 . S
O278 C273 1.247 . S
O279 Cd268 2.439 . S
O279 C273 1.208 . S
O280 Cd281 2.223 . S
O280 C288 1.315 . S
Cd281 O280 2.223 . S
Cd281 O284 2.297 . S
Cd281 O285 2.439 . S
Cd281 O291 2.240 . S
Cd282 O283 2.240 . S
Cd282 O290 2.223 . S
Cd282 O292 2.297 . S
Cd282 O293 2.439 . S
O283 Cd282 2.240 . S
O283 C288 1.279 . S
O284 Cd281 2.297 . S
O284 C286 1.247 . S
O285 Cd281 2.439 . S
O285 C286 1.208 . S
C286 O284 1.247 . S
C286 O285 1.208 . S
C287 O292 1.247 . S
C287 O293 1.208 . S
C288 O280 1.315 . S
C288 O283 1.279 . S
C289 O290 1.315 . S
C289 O291 1.279 . S
O290 Cd282 2.223 . S
O290 C289 1.315 . S
O291 Cd281 2.240 . S
O291 C289 1.279 . S
O292 Cd282 2.297 . S
O292 C287 1.247 . S
O293 Cd282 2.439 . S
O293 C287 1.208 . S
O294 Cd295 2.223 . S
O294 C302 1.315 . S
Cd295 O294 2.223 . S
Cd295 O298 2.297 . S
Cd295 O299 2.439 . S
Cd295 O305 2.240 . S
Cd296 O297 2.240 . S
Cd296 O304 2.223 . S
Cd296 O306 2.297 . S
Cd296 O307 2.439 . S
O297 Cd296 2.240 . S
O297 C302 1.279 . S
O298 Cd295 2.297 . S
O298 C300 1.247 . S
O299 Cd295 2.439 . S
O299 C300 1.208 . S
C300 O298 1.247 . S
C300 O299 1.208 . S
C301 O306 1.247 . S
C301 O307 1.208 . S
C302 O294 1.315 . S
C302 O297 1.279 . S
C303 O304 1.315 . S
C303 O305 1.279 . S
O304 Cd296 2.223 . S
O304 C303 1.315 . S
O305 Cd295 2.240 . S
O305 C303 1.279 . S
O306 Cd296 2.297 . S
O306 C301 1.247 . S
O307 Cd296 2.439 . S
O307 C301 1.208 . S
O308 Cd309 2.223 . S
O308 C316 1.315 . S
Cd309 O308 2.223 . S
Cd309 O312 2.297 . S
Cd309 O313 2.439 . S
Cd309 O319 2.240 . S
Cd310 O311 2.240 . S
Cd310 O318 2.223 . S
Cd310 O320 2.297 . S
Cd310 O321 2.439 . S
O311 Cd310 2.240 . S
O311 C316 1.279 . S
O312 Cd309 2.297 . S
O312 C314 1.247 . S
O313 Cd309 2.439 . S
O313 C314 1.208 . S
C314 O312 1.247 . S
C314 O313 1.208 . S
C315 O320 1.247 . S
C315 O321 1.208 . S
C316 O308 1.315 . S
C316 O311 1.279 . S
C317 O318 1.315 . S
C317 O319 1.279 . S
O318 Cd310 2.223 . S
O318 C317 1.315 . S
O319 Cd309 2.240 . S
O319 C317 1.279 . S
O320 Cd310 2.297 . S
O320 C315 1.247 . S
O321 Cd310 2.439 . S
O321 C315 1.208 . S
O322 Cd323 2.223 . S
O322 C330 1.315 . S
Cd323 O322 2.223 . S
Cd323 O326 2.297 . S
Cd323 O327 2.439 . S
Cd323 O333 2.240 . S
Cd324 O325 2.240 . S
Cd324 O332 2.223 . S
Cd324 O334 2.297 . S
Cd324 O335 2.439 . S
O325 Cd324 2.240 . S
O325 C330 1.279 . S
O326 Cd323 2.297 . S
O326 C328 1.247 . S
O327 Cd323 2.439 . S
O327 C328 1.208 . S
C328 O326 1.247 . S
C328 O327 1.208 . S
C329 O334 1.247 . S
C329 O335 1.208 . S
C330 O322 1.315 . S
C330 O325 1.279 . S
C331 O332 1.315 . S
C331 O333 1.279 . S
O332 Cd324 2.223 . S
O332 C331 1.315 . S
O333 Cd323 2.240 . S
O333 C331 1.279 . S
O334 Cd324 2.297 . S
O334 C329 1.247 . S
O335 Cd324 2.439 . S
O335 C329 1.208 . S
Tb336 C338 2.809 1_455 S
Tb336 O356 2.484 1_455 S
Tb336 O357 2.440 1_455 S
Tb336 O358 2.658 . S
Tb336 O359 2.409 . S
Tb336 O360 2.378 . S
Tb336 O364 2.325 . S
Tb336 O367 2.341 1_545 S
Tb337 C347 2.809 . S
Tb337 O358 2.325 . S
Tb337 O361 2.341 . S
Tb337 O362 2.484 . S
Tb337 O363 2.440 . S
Tb337 O364 2.658 . S
Tb337 O365 2.409 . S
Tb337 O366 2.378 . S
C338 Tb336 2.809 1_655 S
C338 C339 1.514 . S
C338 O356 1.248 . S
C338 O357 1.266 . S
C339 C338 1.514 . S
C339 C340 1.359 . S
C339 C344 1.348 . S
C340 C339 1.359 . S
C340 C341 1.380 . S
C340 H368 0.929 . S
C341 C340 1.380 . S
C341 C342 1.347 . S
C341 H369 0.931 . S
C342 C341 1.347 . S
C342 C343 1.369 . S
C343 C342 1.369 . S
C343 C344 1.408 . S
C343 H370 0.963 . S
C344 C339 1.348 . S
C344 C343 1.408 . S
C344 H371 0.930 . S
C345 O358 1.281 . S
C345 O359 1.254 . S
C346 O360 1.236 . S
C346 O361 1.266 . S
C347 Tb337 2.809 . S
C347 C348 1.514 . S
C347 O362 1.248 . S
C347 O363 1.266 . S
C348 C347 1.514 . S
C348 C349 1.359 1_545 S
C348 C353 1.348 . S
C349 C348 1.359 1_565 S
C349 C350 1.380 . S
C349 H372 0.929 . S
C350 C349 1.380 . S
C350 C351 1.347 . S
C350 H373 0.931 . S
C351 C350 1.347 . S
C351 C352 1.369 . S
C352 C351 1.369 . S
C352 C353 1.408 1_565 S
C352 H374 0.930 . S
C353 C348 1.348 . S
C353 C352 1.408 1_545 S
C353 H375 0.930 . S
C354 O364 1.281 . S
C354 O365 1.254 . S
C355 O366 1.236 1_565 S
C355 O367 1.266 . S
O356 Tb336 2.484 1_655 S
O356 C338 1.248 . S
O357 Tb336 2.440 1_655 S
O357 C338 1.266 . S
O358 Tb336 2.658 . S
O358 Tb337 2.325 . S
O358 C345 1.281 . S
O359 Tb336 2.409 . S
O359 C345 1.254 . S
O360 Tb336 2.378 . S
O360 C346 1.236 . S
O361 Tb337 2.341 . S
O361 C346 1.266 . S
O362 Tb337 2.484 . S
O362 C347 1.248 . S
O363 Tb337 2.440 . S
O363 C347 1.266 . S
O364 Tb336 2.325 . S
O364 Tb337 2.658 . S
O364 C354 1.281 . S
O365 Tb337 2.409 . S
O365 C354 1.254 . S
O366 Tb337 2.378 . S
O366 C355 1.236 1_545 S
O367 Tb336 2.341 1_565 S
O367 C355 1.266 . S
H368 C340 0.929 . S
H369 C341 0.931 . S
H370 C343 0.963 . S
H371 C344 0.930 . S
H372 C349 0.929 . S
H373 C350 0.931 . S
H374 C352 0.930 . S
H375 C353 0.930 . S
Tb376 C378 2.809 . S
Tb376 O396 2.484 . S
Tb376 O397 2.440 . S
Tb376 O398 2.658 . S
Tb376 O399 2.409 . S
Tb376 O400 2.378 . S
Tb376 O404 2.325 . S
Tb376 O407 2.341 . S
Tb377 C387 2.809 . S
Tb377 O398 2.325 . S
Tb377 O401 2.341 . S
Tb377 O402 2.484 . S
Tb377 O403 2.440 . S
Tb377 O404 2.658 . S
Tb377 O405 2.409 . S
Tb377 O406 2.378 . S
C378 Tb376 2.809 . S
C378 C379 1.514 . S
C378 O396 1.248 . S
C378 O397 1.266 . S
C379 C378 1.514 . S
C379 C380 1.359 . S
C379 C384 1.348 . S
C380 C379 1.359 . S
C380 C381 1.380 . S
C380 H408 0.929 . S
C381 C380 1.380 . S
C381 C382 1.347 . S
C381 H409 0.931 . S
C382 C381 1.347 . S
C382 C383 1.369 . S
C383 C382 1.369 . S
C383 C384 1.408 . S
C383 H410 0.930 . S
C384 C379 1.348 . S
C384 C383 1.408 . S
C384 H411 0.930 . S
C385 O398 1.281 . S
C385 O399 1.254 . S
C386 O400 1.236 . S
C386 O401 1.266 . S
C387 Tb377 2.809 . S
C387 C388 1.514 . S
C387 O402 1.248 . S
C387 O403 1.266 . S
C388 C387 1.514 . S
C388 C389 1.359 . S
C388 C393 1.348 . S
C389 C388 1.359 . S
C389 C390 1.380 . S
C389 H412 0.929 . S
C390 C389 1.380 . S
C390 C391 1.347 . S
C390 H413 0.931 . S
C391 C390 1.347 . S
C391 C392 1.369 . S
C392 C391 1.369 . S
C392 C393 1.408 . S
C392 H414 0.930 . S
C393 C388 1.348 . S
C393 C392 1.408 . S
C393 H415 0.930 . S
C394 O404 1.281 . S
C394 O405 1.254 . S
C395 O406 1.236 . S
C395 O407 1.266 . S
O396 Tb376 2.484 . S
O396 C378 1.248 . S
O397 Tb376 2.440 . S
O397 C378 1.266 . S
O398 Tb376 2.658 . S
O398 Tb377 2.325 . S
O398 C385 1.281 . S
O399 Tb376 2.409 . S
O399 C385 1.254 . S
O400 Tb376 2.378 . S
O400 C386 1.236 . S
O401 Tb377 2.341 . S
O401 C386 1.266 . S
O402 Tb377 2.484 . S
O402 C387 1.248 . S
O403 Tb377 2.440 . S
O403 C387 1.266 . S
O404 Tb376 2.325 . S
O404 Tb377 2.658 . S
O404 C394 1.281 . S
O405 Tb377 2.409 . S
O405 C394 1.254 . S
O406 Tb377 2.378 . S
O406 C395 1.236 . S
O407 Tb376 2.341 . S
O407 C395 1.266 . S
H408 C380 0.929 . S
H409 C381 0.931 . S
H410 C383 0.930 . S
H411 C384 0.930 . S
H412 C389 0.929 . S
H413 C390 0.931 . S
H414 C392 0.930 . S
H415 C393 0.930 . S
Tb416 C418 2.809 . S
Tb416 O436 2.484 . S
Tb416 O437 2.440 . S
Tb416 O438 2.658 . S
Tb416 O439 2.409 . S
Tb416 O440 2.378 1_545 S
Tb416 O444 2.325 . S
Tb416 O447 2.341 . S
Tb417 C427 2.809 . S
Tb417 O438 2.325 . S
Tb417 O441 2.341 1_545 S
Tb417 O442 2.484 . S
Tb417 O443 2.440 . S
Tb417 O444 2.658 . S
Tb417 O445 2.409 . S
Tb417 O446 2.378 . S
C418 Tb416 2.809 . S
C418 C419 1.514 1_545 S
C418 O436 1.248 . S
C418 O437 1.266 . S
C419 C418 1.514 1_565 S
C419 C420 1.359 . S
C419 C424 1.348 . S
C420 C419 1.359 . S
C420 C421 1.380 . S
C420 H448 0.929 . S
C421 C420 1.380 . S
C421 C422 1.347 . S
C421 H449 0.931 . S
C422 C421 1.347 . S
C422 C423 1.369 . S
C423 C422 1.369 . S
C423 C424 1.408 . S
C423 H450 0.930 . S
C424 C419 1.348 . S
C424 C423 1.408 . S
C424 H451 0.930 . S
C425 O438 1.281 . S
C425 O439 1.254 . S
C426 O440 1.236 . S
C426 O441 1.266 . S
C427 Tb417 2.809 . S
C427 C428 1.514 . S
C427 O442 1.248 . S
C427 O443 1.266 . S
C428 C427 1.514 . S
C428 C429 1.359 . S
C428 C433 1.348 . S
C429 C428 1.359 . S
C429 C430 1.380 . S
C429 H452 0.929 . S
C430 C429 1.380 . S
C430 C431 1.347 . S
C430 H453 0.931 . S
C431 C430 1.347 . S
C431 C432 1.369 . S
C432 C431 1.369 . S
C432 C433 1.408 . S
C432 H454 0.930 . S
C433 C428 1.348 . S
C433 C432 1.408 . S
C433 H455 0.930 . S
C434 O444 1.281 . S
C434 O445 1.254 . S
C435 O446 1.236 . S
C435 O447 1.266 . S
O436 Tb416 2.484 . S
O436 C418 1.248 . S
O437 Tb416 2.440 . S
O437 C418 1.266 . S
O438 Tb416 2.658 . S
O438 Tb417 2.325 . S
O438 C425 1.281 . S
O439 Tb416 2.409 . S
O439 C425 1.254 . S
O440 Tb416 2.378 1_565 S
O440 C426 1.236 . S
O441 Tb417 2.341 1_565 S
O441 C426 1.266 . S
O442 Tb417 2.484 . S
O442 C427 1.248 . S
O443 Tb417 2.440 . S
O443 C427 1.266 . S
O444 Tb416 2.325 . S
O444 Tb417 2.658 . S
O444 C434 1.281 . S
O445 Tb417 2.409 . S
O445 C434 1.254 . S
O446 Tb417 2.378 . S
O446 C435 1.236 . S
O447 Tb416 2.341 . S
O447 C435 1.266 . S
H448 C420 0.929 . S
H449 C421 0.931 . S
H450 C423 0.930 . S
H451 C424 0.930 . S
H452 C429 0.929 . S
H453 C430 0.931 . S
H454 C432 0.930 . S
H455 C433 0.930 . S
Tb456 C458 2.809 . S
Tb456 O476 2.484 . S
Tb456 O477 2.440 . S
Tb456 O478 2.658 . S
Tb456 O479 2.409 . S
Tb456 O480 2.378 . S
Tb456 O484 2.325 . S
Tb456 O487 2.341 . S
Tb457 C467 2.809 . S
Tb457 O478 2.325 . S
Tb457 O481 2.341 . S
Tb457 O482 2.484 . S
Tb457 O483 2.440 . S
Tb457 O484 2.658 . S
Tb457 O485 2.409 . S
Tb457 O486 2.378 . S
C458 Tb456 2.809 . S
C458 C459 1.514 . S
C458 O476 1.248 . S
C458 O477 1.266 . S
C459 C458 1.514 . S
C459 C460 1.359 . S
C459 C464 1.348 . S
C460 C459 1.359 . S
C460 C461 1.380 . S
C460 H488 0.929 . S
C461 C460 1.380 . S
C461 C462 1.347 . S
C461 H489 0.931 . S
C462 C461 1.347 . S
C462 C463 1.369 . S
C463 C462 1.369 . S
C463 C464 1.408 . S
C463 H490 0.930 . S
C464 C459 1.348 . S
C464 C463 1.408 . S
C464 H491 0.930 . S
C465 O478 1.281 . S
C465 O479 1.254 . S
C466 O480 1.236 . S
C466 O481 1.266 . S
C467 Tb457 2.809 . S
C467 C468 1.514 . S
C467 O482 1.248 . S
C467 O483 1.266 . S
C468 C467 1.514 . S
C468 C469 1.359 . S
C468 C473 1.348 . S
C469 C468 1.359 . S
C469 C470 1.380 . S
C469 H492 0.929 . S
C470 C469 1.380 . S
C470 C471 1.347 . S
C470 H493 0.931 . S
C471 C470 1.347 . S
C471 C472 1.369 . S
C472 C471 1.369 . S
C472 C473 1.408 . S
C472 H494 0.930 . S
C473 C468 1.348 . S
C473 C472 1.408 . S
C473 H495 0.930 . S
C474 O484 1.281 . S
C474 O485 1.254 . S
C475 O486 1.236 . S
C475 O487 1.266 . S
O476 Tb456 2.484 . S
O476 C458 1.248 . S
O477 Tb456 2.440 . S
O477 C458 1.266 . S
O478 Tb456 2.658 . S
O478 Tb457 2.325 . S
O478 C465 1.281 . S
O479 Tb456 2.409 . S
O479 C465 1.254 . S
O480 Tb456 2.378 . S
O480 C466 1.236 . S
O481 Tb457 2.341 . S
O481 C466 1.266 . S
O482 Tb457 2.484 . S
O482 C467 1.248 . S
O483 Tb457 2.440 . S
O483 C467 1.266 . S
O484 Tb456 2.325 . S
O484 Tb457 2.658 . S
O484 C474 1.281 . S
O485 Tb457 2.409 . S
O485 C474 1.254 . S
O486 Tb457 2.378 . S
O486 C475 1.236 . S
O487 Tb456 2.341 . S
O487 C475 1.266 . S
H488 C460 0.929 . S
H489 C461 0.931 . S
H490 C463 0.930 . S
H491 C464 0.930 . S
H492 C469 0.929 . S
H493 C470 0.931 . S
H494 C472 0.930 . S
H495 C473 0.930 . S
Tb496 C498 2.809 . S
Tb496 O516 2.484 . S
Tb496 O517 2.440 . S
Tb496 O518 2.658 . S
Tb496 O519 2.414 1_455 S
Tb496 O520 2.378 . S
Tb496 O524 2.325 . S
Tb496 O527 2.341 . S
Tb497 C507 2.809 . S
Tb497 O518 2.325 1_565 S
Tb497 O521 2.341 1_565 S
Tb497 O522 2.484 . S
Tb497 O523 2.440 . S
Tb497 O524 2.658 1_565 S
Tb497 O525 2.409 1_565 S
Tb497 O526 2.378 1_565 S
C498 Tb496 2.809 . S
C498 C499 1.514 . S
C498 O516 1.248 . S
C498 O517 1.266 . S
C499 C498 1.514 . S
C499 C500 1.359 . S
C499 C504 1.348 . S
C500 C499 1.359 . S
C500 C501 1.380 . S
C500 H528 0.929 . S
C501 C500 1.380 . S
C501 C502 1.347 . S
C501 H529 0.931 . S
C502 C501 1.347 . S
C502 C503 1.369 1_455 S
C503 C502 1.369 1_655 S
C503 C504 1.408 1_655 S
C503 H530 0.930 . S
C504 C499 1.348 . S
C504 C503 1.408 1_455 S
C504 H531 0.930 1_455 S
C505 O518 1.281 . S
C505 O519 1.256 1_455 S
C506 O520 1.236 . S
C506 O521 1.266 . S
C507 Tb497 2.809 . S
C507 C508 1.514 . S
C507 O522 1.248 . S
C507 O523 1.266 . S
C508 C507 1.514 . S
C508 C509 1.359 . S
C508 C513 1.348 . S
C509 C508 1.359 . S
C509 C510 1.380 . S
C509 H532 0.929 . S
C510 C509 1.380 . S
C510 C511 1.347 . S
C510 H533 0.931 . S
C511 C510 1.347 . S
C511 C512 1.369 . S
C512 C511 1.369 . S
C512 C513 1.408 . S
C512 H534 0.930 . S
C513 C508 1.348 . S
C513 C512 1.408 . S
C513 H535 0.930 . S
C514 O524 1.281 . S
C514 O525 1.254 . S
C515 O526 1.236 . S
C515 O527 1.266 . S
O516 Tb496 2.484 . S
O516 C498 1.248 . S
O517 Tb496 2.440 . S
O517 C498 1.266 . S
O518 Tb496 2.658 . S
O518 Tb497 2.325 1_545 S
O518 C505 1.281 . S
O519 Tb496 2.414 1_655 S
O519 C505 1.256 1_655 S
O520 Tb496 2.378 . S
O520 C506 1.236 . S
O521 Tb497 2.341 1_545 S
O521 C506 1.266 . S
O522 Tb497 2.484 . S
O522 C507 1.248 . S
O523 Tb497 2.440 . S
O523 C507 1.266 . S
O524 Tb496 2.325 . S
O524 Tb497 2.658 1_545 S
O524 C514 1.281 . S
O525 Tb497 2.409 1_545 S
O525 C514 1.254 . S
O526 Tb497 2.378 1_545 S
O526 C515 1.236 . S
O527 Tb496 2.341 . S
O527 C515 1.266 . S
H528 C500 0.929 . S
H529 C501 0.931 . S
H530 C503 0.930 . S
H531 C504 0.930 1_655 S
H532 C509 0.929 . S
H533 C510 0.931 . S
H534 C512 0.930 . S
H535 C513 0.930 . S
Tb536 C538 2.809 . S
Tb536 O556 2.484 . S
Tb536 O557 2.440 . S
Tb536 O558 2.658 . S
Tb536 O559 2.409 . S
Tb536 O560 2.378 . S
Tb536 O564 2.325 . S
Tb536 O567 2.341 . S
Tb537 C547 2.809 . S
Tb537 O558 2.325 . S
Tb537 O561 2.341 . S
Tb537 O562 2.484 . S
Tb537 O563 2.440 . S
Tb537 O564 2.658 . S
Tb537 O565 2.409 . S
Tb537 O566 2.378 . S
C538 Tb536 2.809 . S
C538 C539 1.514 . S
C538 O556 1.248 . S
C538 O557 1.266 . S
C539 C538 1.514 . S
C539 C540 1.359 . S
C539 C544 1.348 . S
C540 C539 1.359 . S
C540 C541 1.380 . S
C540 H568 0.929 . S
C541 C540 1.380 . S
C541 C542 1.347 . S
C541 H569 0.931 . S
C542 C541 1.347 . S
C542 C543 1.369 . S
C543 C542 1.369 . S
C543 C544 1.408 . S
C543 H570 0.930 . S
C544 C539 1.348 . S
C544 C543 1.408 . S
C544 H571 0.930 . S
C545 O558 1.281 . S
C545 O559 1.254 . S
C546 O560 1.236 . S
C546 O561 1.266 . S
C547 Tb537 2.809 . S
C547 C548 1.514 . S
C547 O562 1.248 . S
C547 O563 1.266 . S
C548 C547 1.514 . S
C548 C549 1.359 . S
C548 C553 1.348 . S
C549 C548 1.359 . S
C549 C550 1.380 . S
C549 H572 0.929 . S
C550 C549 1.380 . S
C550 C551 1.347 . S
C550 H573 0.931 . S
C551 C550 1.347 . S
C551 C552 1.369 . S
C552 C551 1.369 . S
C552 C553 1.408 . S
C552 H574 0.930 . S
C553 C548 1.348 . S
C553 C552 1.408 . S
C553 H575 0.930 . S
C554 O564 1.281 . S
C554 O565 1.254 . S
C555 O566 1.236 . S
C555 O567 1.266 . S
O556 Tb536 2.484 . S
O556 C538 1.248 . S
O557 Tb536 2.440 . S
O557 C538 1.266 . S
O558 Tb536 2.658 . S
O558 Tb537 2.325 . S
O558 C545 1.281 . S
O559 Tb536 2.409 . S
O559 C545 1.254 . S
O560 Tb536 2.378 . S
O560 C546 1.236 . S
O561 Tb537 2.341 . S
O561 C546 1.266 . S
O562 Tb537 2.484 . S
O562 C547 1.248 . S
O563 Tb537 2.440 . S
O563 C547 1.266 . S
O564 Tb536 2.325 . S
O564 Tb537 2.658 . S
O564 C554 1.281 . S
O565 Tb537 2.409 . S
O565 C554 1.254 . S
O566 Tb537 2.378 . S
O566 C555 1.236 . S
O567 Tb536 2.341 . S
O567 C555 1.266 . S
H568 C540 0.929 . S
H569 C541 0.931 . S
H570 C543 0.930 . S
H571 C544 0.930 . S
H572 C549 0.929 . S
H573 C550 0.931 . S
H574 C552 0.930 . S
H575 C553 0.930 . S
Tb576 C578 2.809 1_545 S
Tb576 O596 2.484 1_545 S
Tb576 O597 2.440 . S
Tb576 O598 2.658 . S
Tb576 O599 2.409 . S
Tb576 O600 2.378 . S
Tb576 O604 2.325 1_545 S
Tb576 O607 2.341 . S
Tb577 C587 2.809 . S
Tb577 O598 2.325 . S
Tb577 O601 2.341 . S
Tb577 O602 2.484 . S
Tb577 O603 2.440 . S
Tb577 O604 2.658 1_545 S
Tb577 O605 2.409 1_545 S
Tb577 O606 2.378 . S
C578 Tb576 2.809 1_565 S
C578 C579 1.514 . S
C578 O596 1.248 . S
C578 O597 1.266 1_565 S
C579 C578 1.514 . S
C579 C580 1.359 . S
C579 C584 1.348 1_565 S
C580 C579 1.359 . S
C580 C581 1.380 . S
C580 H608 0.929 . S
C581 C580 1.380 . S
C581 C582 1.347 . S
C581 H609 0.931 . S
C582 C581 1.347 . S
C582 C583 1.369 . S
C583 C582 1.369 . S
C583 C584 1.408 1_565 S
C583 H610 0.930 1_565 S
C584 C579 1.348 1_545 S
C584 C583 1.408 1_545 S
C584 H611 0.930 . S
C585 O598 1.281 . S
C585 O599 1.254 . S
C586 O600 1.236 . S
C586 O601 1.266 . S
C587 Tb577 2.809 . S
C587 C588 1.514 . S
C587 O602 1.248 . S
C587 O603 1.266 . S
C588 C587 1.514 . S
C588 C589 1.359 . S
C588 C593 1.348 . S
C589 C588 1.359 . S
C589 C590 1.380 . S
C589 H612 0.929 . S
C590 C589 1.380 . S
C590 C591 1.347 . S
C590 H613 0.931 . S
C591 C590 1.347 . S
C591 C592 1.369 . S
C592 C591 1.369 . S
C592 C593 1.408 . S
C592 H614 0.930 . S
C593 C588 1.348 . S
C593 C592 1.408 . S
C593 H615 0.930 . S
C594 O604 1.281 . S
C594 O605 1.254 . S
C595 O606 1.236 . S
C595 O607 1.266 . S
O596 Tb576 2.484 1_565 S
O596 C578 1.248 . S
O597 Tb576 2.440 . S
O597 C578 1.266 1_545 S
O598 Tb576 2.658 . S
O598 Tb577 2.325 . S
O598 C585 1.281 . S
O599 Tb576 2.409 . S
O599 C585 1.254 . S
O600 Tb576 2.378 . S
O600 C586 1.236 . S
O601 Tb577 2.341 . S
O601 C586 1.266 . S
O602 Tb577 2.484 . S
O602 C587 1.248 . S
O603 Tb577 2.440 . S
O603 C587 1.266 . S
O604 Tb576 2.325 1_565 S
O604 Tb577 2.658 1_565 S
O604 C594 1.281 . S
O605 Tb577 2.409 1_565 S
O605 C594 1.254 . S
O606 Tb577 2.378 . S
O606 C595 1.236 . S
O607 Tb576 2.341 . S
O607 C595 1.266 . S
H608 C580 0.929 . S
H609 C581 0.931 . S
H610 C583 0.930 1_545 S
H611 C584 0.930 . S
H612 C589 0.929 . S
H613 C590 0.931 . S
H614 C592 0.930 . S
H615 C593 0.930 . S
Tb616 C618 2.809 . S
Tb616 O636 2.484 . S
Tb616 O637 2.440 . S
Tb616 O638 2.658 . S
Tb616 O639 2.409 . S
Tb616 O640 2.378 . S
Tb616 O644 2.325 . S
Tb616 O647 2.341 . S
Tb617 C627 2.809 . S
Tb617 O638 2.325 . S
Tb617 O641 2.341 . S
Tb617 O642 2.484 . S
Tb617 O643 2.440 . S
Tb617 O644 2.658 . S
Tb617 O645 2.409 . S
Tb617 O646 2.378 . S
C618 Tb616 2.809 . S
C618 C619 1.514 . S
C618 O636 1.248 . S
C618 O637 1.266 . S
C619 C618 1.514 . S
C619 C620 1.359 . S
C619 C624 1.348 . S
C620 C619 1.359 . S
C620 C621 1.380 . S
C620 H648 0.929 . S
C621 C620 1.380 . S
C621 C622 1.347 . S
C621 H649 0.931 . S
C622 C621 1.347 . S
C622 C623 1.369 . S
C623 C622 1.369 . S
C623 C624 1.408 . S
C623 H650 0.930 . S
C624 C619 1.348 . S
C624 C623 1.408 . S
C624 H651 0.930 . S
C625 O638 1.281 . S
C625 O639 1.254 . S
C626 O640 1.236 . S
C626 O641 1.266 . S
C627 Tb617 2.809 . S
C627 C628 1.514 . S
C627 O642 1.248 . S
C627 O643 1.266 . S
C628 C627 1.514 . S
C628 C629 1.359 . S
C628 C633 1.348 . S
C629 C628 1.359 . S
C629 C630 1.380 . S
C629 H652 0.929 . S
C630 C629 1.380 . S
C630 C631 1.347 . S
C630 H653 0.931 . S
C631 C630 1.347 . S
C631 C632 1.369 . S
C632 C631 1.369 . S
C632 C633 1.408 . S
C632 H654 0.930 . S
C633 C628 1.348 . S
C633 C632 1.408 . S
C633 H655 0.930 . S
C634 O644 1.281 . S
C634 O645 1.254 . S
C635 O646 1.236 . S
C635 O647 1.266 . S
O636 Tb616 2.484 . S
O636 C618 1.248 . S
O637 Tb616 2.440 . S
O637 C618 1.266 . S
O638 Tb616 2.658 . S
O638 Tb617 2.325 . S
O638 C625 1.281 . S
O639 Tb616 2.409 . S
O639 C625 1.254 . S
O640 Tb616 2.378 . S
O640 C626 1.236 . S
O641 Tb617 2.341 . S
O641 C626 1.266 . S
O642 Tb617 2.484 . S
O642 C627 1.248 . S
O643 Tb617 2.440 . S
O643 C627 1.266 . S
O644 Tb616 2.325 . S
O644 Tb617 2.658 . S
O644 C634 1.281 . S
O645 Tb617 2.409 . S
O645 C634 1.254 . S
O646 Tb617 2.378 . S
O646 C635 1.236 . S
O647 Tb616 2.341 . S
O647 C635 1.266 . S
H648 C620 0.929 . S
H649 C621 0.931 . S
H650 C623 0.930 . S
H651 C624 0.930 . S
H652 C629 0.929 . S
H653 C630 0.931 . S
H654 C632 0.930 . S
H655 C633 0.930 . S
Tb656 C658 2.809 . S
Tb656 O676 2.484 . S
Tb656 O677 2.440 . S
Tb656 O678 2.658 . S
Tb656 O679 2.409 . S
Tb656 O680 2.378 . S
Tb656 O684 2.325 . S
Tb656 O687 2.341 . S
Tb657 C667 2.809 . S
Tb657 O678 2.325 . S
Tb657 O681 2.341 . S
Tb657 O682 2.484 . S
Tb657 O683 2.440 . S
Tb657 O684 2.658 . S
Tb657 O685 2.409 . S
Tb657 O686 2.378 . S
C658 Tb656 2.809 . S
C658 C659 1.514 . S
C658 O676 1.248 . S
C658 O677 1.266 . S
C659 C658 1.514 . S
C659 C660 1.359 . S
C659 C664 1.348 . S
C660 C659 1.359 . S
C660 C661 1.380 . S
C660 H688 0.929 . S
C661 C660 1.380 . S
C661 C662 1.346 . S
C661 H689 0.931 1_554 S
C662 C661 1.346 . S
C662 C663 1.376 . S
C663 C662 1.376 . S
C663 C664 1.408 . S
C663 H690 0.930 . S
C664 C659 1.348 . S
C664 C663 1.408 . S
C664 H691 0.930 . S
C665 O678 1.281 . S
C665 O679 1.254 . S
C666 O680 1.236 . S
C666 O681 1.266 . S
C667 Tb657 2.809 . S
C667 C668 1.514 . S
C667 O682 1.248 . S
C667 O683 1.266 . S
C668 C667 1.514 . S
C668 C669 1.359 . S
C668 C673 1.348 . S
C669 C668 1.359 . S
C669 C670 1.380 . S
C669 H692 0.929 . S
C670 C669 1.380 . S
C670 C671 1.347 . S
C670 H693 0.931 . S
C671 C670 1.347 . S
C671 C672 1.369 . S
C672 C671 1.369 . S
C672 C673 1.408 . S
C672 H694 0.930 . S
C673 C668 1.348 . S
C673 C672 1.408 . S
C673 H695 0.930 . S
C674 O684 1.281 . S
C674 O685 1.254 . S
C675 O686 1.236 . S
C675 O687 1.266 . S
O676 Tb656 2.484 . S
O676 C658 1.248 . S
O677 Tb656 2.440 . S
O677 C658 1.266 . S
O678 Tb656 2.658 . S
O678 Tb657 2.325 . S
O678 C665 1.281 . S
O679 Tb656 2.409 . S
O679 C665 1.254 . S
O680 Tb656 2.378 . S
O680 C666 1.236 . S
O681 Tb657 2.341 . S
O681 C666 1.266 . S
O682 Tb657 2.484 . S
O682 C667 1.248 . S
O683 Tb657 2.440 . S
O683 C667 1.266 . S
O684 Tb656 2.325 . S
O684 Tb657 2.658 . S
O684 C674 1.281 . S
O685 Tb657 2.409 . S
O685 C674 1.254 . S
O686 Tb657 2.378 . S
O686 C675 1.236 . S
O687 Tb656 2.341 . S
O687 C675 1.266 . S
H688 C660 0.929 . S
H689 C661 0.931 1_556 S
H690 C663 0.930 . S
H691 C664 0.930 . S
H692 C669 0.929 . S
H693 C670 0.931 . S
H694 C672 0.930 . S
H695 C673 0.930 . S
Tb696 C698 2.809 . S
Tb696 O716 2.484 . S
Tb696 O717 2.440 . S
Tb696 O718 2.658 . S
Tb696 O719 2.409 . S
Tb696 O720 2.378 . S
Tb696 O724 2.325 . S
Tb696 O727 2.341 . S
Tb697 C707 2.809 . S
Tb697 O718 2.325 . S
Tb697 O721 2.341 . S
Tb697 O722 2.484 . S
Tb697 O723 2.440 . S
Tb697 O724 2.658 . S
Tb697 O725 2.409 . S
Tb697 O726 2.378 . S
C698 Tb696 2.809 . S
C698 C699 1.514 . S
C698 O716 1.248 . S
C698 O717 1.266 . S
C699 C698 1.514 . S
C699 C700 1.359 . S
C699 C704 1.348 . S
C700 C699 1.359 . S
C700 C701 1.380 . S
C700 H728 0.929 . S
C701 C700 1.380 . S
C701 C702 1.347 . S
C701 H729 0.931 . S
C702 C701 1.347 . S
C702 C703 1.369 . S
C703 C702 1.369 . S
C703 C704 1.408 . S
C703 H730 0.930 . S
C704 C699 1.348 . S
C704 C703 1.408 . S
C704 H731 0.930 . S
C705 O718 1.281 . S
C705 O719 1.254 . S
C706 O720 1.236 . S
C706 O721 1.266 . S
C707 Tb697 2.809 . S
C707 C708 1.514 . S
C707 O722 1.248 . S
C707 O723 1.266 . S
C708 C707 1.514 . S
C708 C709 1.359 . S
C708 C713 1.348 . S
C709 C708 1.359 . S
C709 C710 1.380 . S
C709 H732 0.929 . S
C710 C709 1.380 . S
C710 C711 1.347 . S
C710 H733 0.931 . S
C711 C710 1.347 . S
C711 C712 1.369 . S
C712 C711 1.369 . S
C712 C713 1.408 . S
C712 H734 0.930 . S
C713 C708 1.348 . S
C713 C712 1.408 . S
C713 H735 0.930 . S
C714 O724 1.281 . S
C714 O725 1.254 . S
C715 O726 1.236 . S
C715 O727 1.266 . S
O716 Tb696 2.484 . S
O716 C698 1.248 . S
O717 Tb696 2.440 . S
O717 C698 1.266 . S
O718 Tb696 2.658 . S
O718 Tb697 2.325 . S
O718 C705 1.281 . S
O719 Tb696 2.409 . S
O719 C705 1.254 . S
O720 Tb696 2.378 . S
O720 C706 1.236 . S
O721 Tb697 2.341 . S
O721 C706 1.266 . S
O722 Tb697 2.484 . S
O722 C707 1.248 . S
O723 Tb697 2.440 . S
O723 C707 1.266 . S
O724 Tb696 2.325 . S
O724 Tb697 2.658 . S
O724 C714 1.281 . S
O725 Tb697 2.409 . S
O725 C714 1.254 . S
O726 Tb697 2.378 . S
O726 C715 1.236 . S
O727 Tb696 2.341 . S
O727 C715 1.266 . S
H728 C700 0.929 . S
H729 C701 0.931 . S
H730 C703 0.930 . S
H731 C704 0.930 . S
H732 C709 0.929 . S
H733 C710 0.931 . S
H734 C712 0.930 . S
H735 C713 0.930 . S
Tb736 C738 2.772 1_455 S
Tb736 O756 2.459 1_455 S
Tb736 O757 2.399 1_455 S
Tb736 O758 2.684 . S
Tb736 O759 2.403 . S
Tb736 O760 2.369 1_455 S
Tb736 O764 2.353 . S
Tb736 O767 2.375 . S
Tb737 C747 2.809 . S
Tb737 O758 2.325 . S
Tb737 O761 2.341 . S
Tb737 O762 2.484 . S
Tb737 O763 2.440 . S
Tb737 O764 2.658 . S
Tb737 O765 2.409 . S
Tb737 O766 2.378 . S
C738 Tb736 2.772 1_655 S
C738 C739 1.514 . S
C738 O756 1.248 . S
C738 O757 1.266 . S
C739 C738 1.514 . S
C739 C740 1.359 . S
C739 C744 1.348 . S
C740 C739 1.359 . S
C740 C741 1.380 . S
C740 H768 0.929 . S
C741 C740 1.380 . S
C741 C742 1.347 . S
C741 H769 0.931 . S
C742 C741 1.347 . S
C742 C743 1.369 . S
C743 C742 1.369 . S
C743 C744 1.408 . S
C743 H770 0.930 . S
C744 C739 1.348 . S
C744 C743 1.408 . S
C744 H771 0.930 . S
C745 O758 1.281 . S
C745 O759 1.254 . S
C746 O760 1.236 1_455 S
C746 O761 1.266 . S
C747 Tb737 2.809 . S
C747 C748 1.514 . S
C747 O762 1.248 . S
C747 O763 1.266 . S
C748 C747 1.514 . S
C748 C749 1.359 . S
C748 C753 1.348 . S
C749 C748 1.359 . S
C749 C750 1.380 . S
C749 H772 0.929 . S
C750 C749 1.380 . S
C750 C751 1.347 . S
C750 H773 0.931 . S
C751 C750 1.347 . S
C751 C752 1.369 . S
C752 C751 1.369 . S
C752 C753 1.408 . S
C752 H774 0.930 . S
C753 C748 1.348 . S
C753 C752 1.408 . S
C753 H775 0.930 . S
C754 O764 1.281 . S
C754 O765 1.254 . S
C755 O766 1.236 . S
C755 O767 1.266 . S
O756 Tb736 2.459 1_655 S
O756 C738 1.248 . S
O757 Tb736 2.399 1_655 S
O757 C738 1.266 . S
O758 Tb736 2.684 . S
O758 Tb737 2.325 . S
O758 C745 1.281 . S
O759 Tb736 2.403 . S
O759 C745 1.254 . S
O760 Tb736 2.369 1_655 S
O760 C746 1.236 1_655 S
O761 Tb737 2.341 . S
O761 C746 1.266 . S
O762 Tb737 2.484 . S
O762 C747 1.248 . S
O763 Tb737 2.440 . S
O763 C747 1.266 . S
O764 Tb736 2.353 . S
O764 Tb737 2.658 . S
O764 C754 1.281 . S
O765 Tb737 2.409 . S
O765 C754 1.254 . S
O766 Tb737 2.378 . S
O766 C755 1.236 . S
O767 Tb736 2.375 . S
O767 C755 1.266 . S
H768 C740 0.929 . S
H769 C741 0.931 . S
H770 C743 0.930 . S
H771 C744 0.930 . S
H772 C749 0.929 . S
H773 C750 0.931 . S
H774 C752 0.930 . S
H775 C753 0.930 . S
Tb776 C778 2.809 . S
Tb776 O796 2.484 . S
Tb776 O797 2.440 . S
Tb776 O798 2.658 . S
Tb776 O799 2.409 . S
Tb776 O800 2.378 . S
Tb776 O804 2.325 . S
Tb776 O807 2.341 . S
Tb777 C787 2.809 . S
Tb777 O798 2.325 . S
Tb777 O801 2.341 . S
Tb777 O802 2.484 . S
Tb777 O803 2.440 . S
Tb777 O804 2.658 . S
Tb777 O805 2.409 . S
Tb777 O806 2.378 . S
C778 Tb776 2.809 . S
C778 C779 1.514 . S
C778 O796 1.248 . S
C778 O797 1.266 . S
C779 C778 1.514 . S
C779 C780 1.359 . S
C779 C784 1.348 . S
C780 C779 1.359 . S
C780 C781 1.380 . S
C780 H808 0.929 . S
C781 C780 1.380 . S
C781 C782 1.347 . S
C781 H809 0.931 . S
C782 C781 1.347 . S
C782 C783 1.369 . S
C783 C782 1.369 . S
C783 C784 1.408 . S
C783 H810 0.930 . S
C784 C779 1.348 . S
C784 C783 1.408 . S
C784 H811 0.930 . S
C785 O798 1.281 . S
C785 O799 1.254 . S
C786 O800 1.236 . S
C786 O801 1.266 . S
C787 Tb777 2.809 . S
C787 C788 1.514 . S
C787 O802 1.248 . S
C787 O803 1.266 . S
C788 C787 1.514 . S
C788 C789 1.359 . S
C788 C793 1.348 . S
C789 C788 1.359 . S
C789 C790 1.380 . S
C789 H812 0.929 . S
C790 C789 1.380 . S
C790 C791 1.347 . S
C790 H813 0.931 . S
C791 C790 1.347 . S
C791 C792 1.369 . S
C792 C791 1.369 . S
C792 C793 1.408 . S
C792 H814 0.930 . S
C793 C788 1.348 . S
C793 C792 1.408 . S
C793 H815 0.930 . S
C794 O804 1.281 . S
C794 O805 1.254 . S
C795 O806 1.236 . S
C795 O807 1.266 . S
O796 Tb776 2.484 . S
O796 C778 1.248 . S
O797 Tb776 2.440 . S
O797 C778 1.266 . S
O798 Tb776 2.658 . S
O798 Tb777 2.325 . S
O798 C785 1.281 . S
O799 Tb776 2.409 . S
O799 C785 1.254 . S
O800 Tb776 2.378 . S
O800 C786 1.236 . S
O801 Tb777 2.341 . S
O801 C786 1.266 . S
O802 Tb777 2.484 . S
O802 C787 1.248 . S
O803 Tb777 2.440 . S
O803 C787 1.266 . S
O804 Tb776 2.325 . S
O804 Tb777 2.658 . S
O804 C794 1.281 . S
O805 Tb777 2.409 . S
O805 C794 1.254 . S
O806 Tb777 2.378 . S
O806 C795 1.236 . S
O807 Tb776 2.341 . S
O807 C795 1.266 . S
H808 C780 0.929 . S
H809 C781 0.931 . S
H810 C783 0.930 . S
H811 C784 0.930 . S
H812 C789 0.929 . S
H813 C790 0.931 . S
H814 C792 0.930 . S
H815 C793 0.930 . S
Tb816 C818 2.809 . S
Tb816 O836 2.484 . S
Tb816 O837 2.440 . S
Tb816 O838 2.658 . S
Tb816 O839 2.409 . S
Tb816 O840 2.378 . S
Tb816 O844 2.325 . S
Tb816 O847 2.341 . S
Tb817 C827 2.809 . S
Tb817 O838 2.325 . S
Tb817 O841 2.341 . S
Tb817 O842 2.484 . S
Tb817 O843 2.440 . S
Tb817 O844 2.658 . S
Tb817 O845 2.409 . S
Tb817 O846 2.378 . S
C818 Tb816 2.809 . S
C818 C819 1.514 . S
C818 O836 1.248 . S
C818 O837 1.266 . S
C819 C818 1.514 . S
C819 C820 1.359 . S
C819 C824 1.348 . S
C820 C819 1.359 . S
C820 C821 1.380 . S
C820 H848 0.929 . S
C821 C820 1.380 . S
C821 C822 1.347 . S
C821 H849 0.931 . S
C822 C821 1.347 . S
C822 C823 1.369 . S
C823 C822 1.369 . S
C823 C824 1.408 . S
C823 H850 0.930 . S
C824 C819 1.348 . S
C824 C823 1.408 . S
C824 H851 0.930 . S
C825 O838 1.281 . S
C825 O839 1.254 . S
C826 O840 1.236 . S
C826 O841 1.266 . S
C827 Tb817 2.809 . S
C827 C828 1.514 . S
C827 O842 1.248 . S
C827 O843 1.266 . S
C828 C827 1.514 . S
C828 C829 1.359 . S
C828 C833 1.348 . S
C829 C828 1.359 . S
C829 C830 1.380 . S
C829 H852 0.929 . S
C830 C829 1.380 . S
C830 C831 1.347 . S
C830 H853 0.931 . S
C831 C830 1.347 . S
C831 C832 1.369 . S
C832 C831 1.369 . S
C832 C833 1.408 . S
C832 H854 0.930 . S
C833 C828 1.348 . S
C833 C832 1.408 . S
C833 H855 0.930 . S
C834 O844 1.281 . S
C834 O845 1.254 . S
C835 O846 1.236 . S
C835 O847 1.266 . S
O836 Tb816 2.484 . S
O836 C818 1.248 . S
O837 Tb816 2.440 . S
O837 C818 1.266 . S
O838 Tb816 2.658 . S
O838 Tb817 2.325 . S
O838 C825 1.281 . S
O839 Tb816 2.409 . S
O839 C825 1.254 . S
O840 Tb816 2.378 . S
O840 C826 1.236 . S
O841 Tb817 2.341 . S
O841 C826 1.266 . S
O842 Tb817 2.484 . S
O842 C827 1.248 . S
O843 Tb817 2.440 . S
O843 C827 1.266 . S
O844 Tb816 2.325 . S
O844 Tb817 2.658 . S
O844 C834 1.281 . S
O845 Tb817 2.409 . S
O845 C834 1.254 . S
O846 Tb817 2.378 . S
O846 C835 1.236 . S
O847 Tb816 2.341 . S
O847 C835 1.266 . S
H848 C820 0.929 . S
H849 C821 0.931 . S
H850 C823 0.930 . S
H851 C824 0.930 . S
H852 C829 0.929 . S
H853 C830 0.931 . S
H854 C832 0.930 . S
H855 C833 0.930 . S
Tb856 C858 2.809 . S
Tb856 O876 2.484 . S
Tb856 O877 2.440 . S
Tb856 O878 2.658 . S
Tb856 O879 2.409 . S
Tb856 O880 2.378 . S
Tb856 O884 2.325 . S
Tb856 O887 2.341 . S
Tb857 C867 2.809 . S
Tb857 O878 2.325 . S
Tb857 O881 2.341 . S
Tb857 O882 2.484 . S
Tb857 O883 2.440 . S
Tb857 O884 2.658 . S
Tb857 O885 2.409 . S
Tb857 O886 2.378 . S
C858 Tb856 2.809 . S
C858 C859 1.514 . S
C858 O876 1.248 . S
C858 O877 1.266 . S
C859 C858 1.514 . S
C859 C860 1.359 . S
C859 C864 1.348 . S
C860 C859 1.359 . S
C860 C861 1.380 . S
C860 H888 0.929 . S
C861 C860 1.380 . S
C861 C862 1.347 . S
C861 H889 0.931 . S
C862 C861 1.347 . S
C862 C863 1.369 . S
C863 C862 1.369 . S
C863 C864 1.408 . S
C863 H890 0.930 . S
C864 C859 1.348 . S
C864 C863 1.408 . S
C864 H891 0.930 . S
C865 O878 1.281 . S
C865 O879 1.254 . S
C866 O880 1.236 . S
C866 O881 1.266 . S
C867 Tb857 2.809 . S
C867 C868 1.514 . S
C867 O882 1.248 . S
C867 O883 1.266 . S
C868 C867 1.514 . S
C868 C869 1.359 . S
C868 C873 1.348 . S
C869 C868 1.359 . S
C869 C870 1.380 . S
C869 H892 0.929 . S
C870 C869 1.380 . S
C870 C871 1.347 . S
C870 H893 0.931 . S
C871 C870 1.347 . S
C871 C872 1.369 . S
C872 C871 1.369 . S
C872 C873 1.408 . S
C872 H894 0.930 . S
C873 C868 1.348 . S
C873 C872 1.408 . S
C873 H895 0.930 . S
C874 O884 1.281 . S
C874 O885 1.254 . S
C875 O886 1.236 . S
C875 O887 1.266 . S
O876 Tb856 2.484 . S
O876 C858 1.248 . S
O877 Tb856 2.440 . S
O877 C858 1.266 . S
O878 Tb856 2.658 . S
O878 Tb857 2.325 . S
O878 C865 1.281 . S
O879 Tb856 2.409 . S
O879 C865 1.254 . S
O880 Tb856 2.378 . S
O880 C866 1.236 . S
O881 Tb857 2.341 . S
O881 C866 1.266 . S
O882 Tb857 2.484 . S
O882 C867 1.248 . S
O883 Tb857 2.440 . S
O883 C867 1.266 . S
O884 Tb856 2.325 . S
O884 Tb857 2.658 . S
O884 C874 1.281 . S
O885 Tb857 2.409 . S
O885 C874 1.254 . S
O886 Tb857 2.378 . S
O886 C875 1.236 . S
O887 Tb856 2.341 . S
O887 C875 1.266 . S
H888 C860 0.929 . S
H889 C861 0.931 . S
H890 C863 0.930 . S
H891 C864 0.930 . S
H892 C869 0.929 . S
H893 C870 0.931 . S
H894 C872 0.930 . S
H895 C873 0.930 . S
Tb896 C898 2.809 . S
Tb896 O916 2.484 . S
Tb896 O917 2.440 . S
Tb896 O918 2.658 . S
Tb896 O919 2.409 . S
Tb896 O920 2.378 . S
Tb896 O924 2.325 . S
Tb896 O927 2.341 . S
Tb897 C907 2.809 . S
Tb897 O918 2.325 . S
Tb897 O921 2.341 . S
Tb897 O922 2.484 . S
Tb897 O923 2.440 . S
Tb897 O924 2.658 . S
Tb897 O925 2.409 . S
Tb897 O926 2.378 . S
C898 Tb896 2.809 . S
C898 C899 1.514 . S
C898 O916 1.248 . S
C898 O917 1.266 . S
C899 C898 1.514 . S
C899 C900 1.359 . S
C899 C904 1.348 . S
C900 C899 1.359 . S
C900 C901 1.380 . S
C900 H928 0.929 . S
C901 C900 1.380 . S
C901 C902 1.347 . S
C901 H929 0.931 . S
C902 C901 1.347 . S
C902 C903 1.369 . S
C903 C902 1.369 . S
C903 C904 1.408 . S
C903 H930 0.930 . S
C904 C899 1.348 . S
C904 C903 1.408 . S
C904 H931 0.930 . S
C905 O918 1.281 . S
C905 O919 1.254 . S
C906 O920 1.236 . S
C906 O921 1.266 . S
C907 Tb897 2.809 . S
C907 C908 1.514 . S
C907 O922 1.248 . S
C907 O923 1.266 . S
C908 C907 1.514 . S
C908 C909 1.359 . S
C908 C913 1.348 . S
C909 C908 1.359 . S
C909 C910 1.380 . S
C909 H932 0.929 . S
C910 C909 1.380 . S
C910 C911 1.347 . S
C910 H933 0.931 . S
C911 C910 1.347 . S
C911 C912 1.369 . S
C912 C911 1.369 . S
C912 C913 1.408 . S
C912 H934 0.930 . S
C913 C908 1.348 . S
C913 C912 1.408 . S
C913 H935 0.930 . S
C914 O924 1.281 . S
C914 O925 1.254 . S
C915 O926 1.236 . S
C915 O927 1.266 . S
O916 Tb896 2.484 . S
O916 C898 1.248 . S
O917 Tb896 2.440 . S
O917 C898 1.266 . S
O918 Tb896 2.658 . S
O918 Tb897 2.325 . S
O918 C905 1.281 . S
O919 Tb896 2.409 . S
O919 C905 1.254 . S
O920 Tb896 2.378 . S
O920 C906 1.236 . S
O921 Tb897 2.341 . S
O921 C906 1.266 . S
O922 Tb897 2.484 . S
O922 C907 1.248 . S
O923 Tb897 2.440 . S
O923 C907 1.266 . S
O924 Tb896 2.325 . S
O924 Tb897 2.658 . S
O924 C914 1.281 . S
O925 Tb897 2.409 . S
O925 C914 1.254 . S
O926 Tb897 2.378 . S
O926 C915 1.236 . S
O927 Tb896 2.341 . S
O927 C915 1.266 . S
H928 C900 0.929 . S
H929 C901 0.931 . S
H930 C903 0.930 . S
H931 C904 0.930 . S
H932 C909 0.929 . S
H933 C910 0.931 . S
H934 C912 0.930 . S
H935 C913 0.930 . S
Tb936 C938 2.809 . S
Tb936 O956 2.484 . S
Tb936 O957 2.440 . S
Tb936 O958 2.658 . S
Tb936 O959 2.409 . S
Tb936 O960 2.378 . S
Tb936 O964 2.325 . S
Tb936 O967 2.341 . S
Tb937 C947 2.809 1_455 S
Tb937 O958 2.325 . S
Tb937 O961 2.341 . S
Tb937 O962 2.484 1_455 S
Tb937 O963 2.440 1_455 S
Tb937 O964 2.658 . S
Tb937 O965 2.409 . S
Tb937 O966 2.378 . S
C938 Tb936 2.809 . S
C938 C939 1.514 . S
C938 O956 1.248 . S
C938 O957 1.266 . S
C939 C938 1.514 . S
C939 C940 1.359 . S
C939 C944 1.348 . S
C940 C939 1.359 . S
C940 C941 1.380 . S
C940 H968 0.929 . S
C941 C940 1.380 . S
C941 C942 1.347 . S
C941 H969 0.931 . S
C942 C941 1.347 . S
C942 C943 1.369 . S
C943 C942 1.369 . S
C943 C944 1.408 . S
C943 H970 0.930 . S
C944 C939 1.348 . S
C944 C943 1.408 . S
C944 H971 0.930 . S
C945 O958 1.281 . S
C945 O959 1.254 . S
C946 O960 1.236 . S
C946 O961 1.266 . S
C947 Tb937 2.809 1_655 S
C947 C948 1.514 . S
C947 O962 1.248 . S
C947 O963 1.266 . S
C948 C947 1.514 . S
C948 C949 1.359 . S
C948 C953 1.348 . S
C949 C948 1.359 . S
C949 C950 1.380 . S
C949 H972 0.929 . S
C950 C949 1.380 . S
C950 C951 1.347 . S
C950 H973 0.931 . S
C951 C950 1.347 . S
C951 C952 1.369 . S
C952 C951 1.369 . S
C952 C953 1.408 . S
C952 H974 0.930 . S
C953 C948 1.348 . S
C953 C952 1.408 . S
C953 H975 0.930 . S
C954 O964 1.281 . S
C954 O965 1.254 . S
C955 O966 1.236 . S
C955 O967 1.266 . S
O956 Tb936 2.484 . S
O956 C938 1.248 . S
O957 Tb936 2.440 . S
O957 C938 1.266 . S
O958 Tb936 2.658 . S
O958 Tb937 2.325 . S
O958 C945 1.281 . S
O959 Tb936 2.409 . S
O959 C945 1.254 . S
O960 Tb936 2.378 . S
O960 C946 1.236 . S
O961 Tb937 2.341 . S
O961 C946 1.266 . S
O962 Tb937 2.484 1_655 S
O962 C947 1.248 . S
O963 Tb937 2.440 1_655 S
O963 C947 1.266 . S
O964 Tb936 2.325 . S
O964 Tb937 2.658 . S
O964 C954 1.281 . S
O965 Tb937 2.409 . S
O965 C954 1.254 . S
O966 Tb937 2.378 . S
O966 C955 1.236 . S
O967 Tb936 2.341 . S
O967 C955 1.266 . S
H968 C940 0.929 . S
H969 C941 0.931 . S
H970 C943 0.930 . S
H971 C944 0.930 . S
H972 C949 0.929 . S
H973 C950 0.931 . S
H974 C952 0.930 . S
H975 C953 0.930 . S
C976 C977 1.391 1_655 S
C976 C978 1.394 1_556 S
C976 H992 0.931 . S
C977 C976 1.391 1_455 S
C977 C981 1.376 . S
C978 C976 1.394 1_554 S
C978 C979 1.369 1_655 S
C978 C982 1.531 . S
C979 C978 1.369 1_455 S
C979 C980 1.410 1_554 S
C979 C987 1.503 . S
C980 C979 1.410 1_556 S
C980 C981 1.392 . S
C980 C983 1.511 . S
C981 C977 1.376 . S
C981 C980 1.392 . S
C981 H993 0.929 . S
C982 C978 1.531 . S
C982 H994 0.960 . S
C982 H995 0.962 . S
C982 H996 0.960 . S
C983 C980 1.511 . S
C983 H997 0.961 . S
C983 H998 0.961 1_556 S
C983 H999 0.961 . S
C984 C985 1.370 . S
C984 C986 1.363 . S
C984 H1000 0.931 . S
C985 C984 1.370 . S
C985 C989 1.408 . S
C986 C984 1.363 . S
C986 C987 1.370 . S
C986 C990 1.524 . S
C987 C979 1.503 . S
C987 C986 1.370 . S
C987 C988 1.403 . S
C988 C987 1.403 . S
C988 C989 1.404 . S
C988 C991 1.539 1_554 S
C989 C985 1.408 . S
C989 C988 1.404 . S
C989 H1001 0.930 . S
C990 C986 1.524 . S
C990 H1002 0.956 . S
C990 H1003 0.961 . S
C990 H1004 0.961 . S
C991 C988 1.539 1_556 S
C991 H1005 0.958 1_455 S
C991 H1006 0.961 . S
C991 H1007 0.960 . S
H992 C976 0.931 . S
H993 C981 0.929 . S
H994 C982 0.960 . S
H995 C982 0.962 . S
H996 C982 0.960 . S
H997 C983 0.961 . S
H998 C983 0.961 1_554 S
H999 C983 0.961 . S
H1000 C984 0.931 . S
H1001 C989 0.930 . S
H1002 C990 0.956 . S
H1003 C990 0.961 . S
H1004 C990 0.961 . S
H1005 C991 0.958 1_655 S
H1006 C991 0.961 . S
H1007 C991 0.960 . S
C1008 C1009 1.391 . S
C1008 C1010 1.394 . S
C1008 H1024 0.931 . S
C1009 C1008 1.391 . S
C1009 C1013 1.376 . S
C1010 C1008 1.394 . S
C1010 C1011 1.369 . S
C1010 C1014 1.531 . S
C1011 C1010 1.369 . S
C1011 C1012 1.410 . S
C1011 C1019 1.503 . S
C1012 C1011 1.410 . S
C1012 C1013 1.392 . S
C1012 C1015 1.511 . S
C1013 C1009 1.376 . S
C1013 C1012 1.392 . S
C1013 H1025 0.929 . S
C1014 C1010 1.531 . S
C1014 H1026 0.960 . S
C1014 H1027 0.962 . S
C1014 H1028 0.960 . S
C1015 C1012 1.511 . S
C1015 H1029 0.961 . S
C1015 H1030 0.961 . S
C1015 H1031 0.961 . S
C1016 C1017 1.370 . S
C1016 C1018 1.363 . S
C1016 H1032 0.931 . S
C1017 C1016 1.370 . S
C1017 C1021 1.408 . S
C1018 C1016 1.363 . S
C1018 C1019 1.370 . S
C1018 C1022 1.524 . S
C1019 C1011 1.503 . S
C1019 C1018 1.370 . S
C1019 C1020 1.403 . S
C1020 C1019 1.403 . S
C1020 C1021 1.404 . S
C1020 C1023 1.539 . S
C1021 C1017 1.408 . S
C1021 C1020 1.404 . S
C1021 H1033 0.930 . S
C1022 C1018 1.524 . S
C1022 H1034 0.956 . S
C1022 H1035 0.961 . S
C1022 H1036 0.961 . S
C1023 C1020 1.539 . S
C1023 H1037 0.958 . S
C1023 H1038 0.961 . S
C1023 H1039 0.960 . S
H1024 C1008 0.931 . S
H1025 C1013 0.929 . S
H1026 C1014 0.960 . S
H1027 C1014 0.962 . S
H1028 C1014 0.960 . S
H1029 C1015 0.961 . S
H1030 C1015 0.961 . S
H1031 C1015 0.961 . S
H1032 C1016 0.931 . S
H1033 C1021 0.930 . S
H1034 C1022 0.956 . S
H1035 C1022 0.961 . S
H1036 C1022 0.961 . S
H1037 C1023 0.958 . S
H1038 C1023 0.961 . S
H1039 C1023 0.960 . S
C1040 C1041 1.391 . S
C1040 C1042 1.394 . S
C1040 H1056 0.931 . S
C1041 C1040 1.391 . S
C1041 C1045 1.376 . S
C1042 C1040 1.394 . S
C1042 C1043 1.369 . S
C1042 C1046 1.531 . S
C1043 C1042 1.369 . S
C1043 C1044 1.410 . S
C1043 C1051 1.503 . S
C1044 C1043 1.410 . S
C1044 C1045 1.392 . S
C1044 C1047 1.511 . S
C1045 C1041 1.376 . S
C1045 C1044 1.392 . S
C1045 H1057 0.929 . S
C1046 C1042 1.531 . S
C1046 H1058 0.960 . S
C1046 H1059 0.962 . S
C1046 H1060 0.960 . S
C1047 C1044 1.511 . S
C1047 H1061 0.961 . S
C1047 H1062 0.961 . S
C1047 H1063 0.961 . S
C1048 C1049 1.370 . S
C1048 C1050 1.363 . S
C1048 H1064 0.931 . S
C1049 C1048 1.370 . S
C1049 C1053 1.408 . S
C1050 C1048 1.363 . S
C1050 C1051 1.370 . S
C1050 C1054 1.524 . S
C1051 C1043 1.503 . S
C1051 C1050 1.370 . S
C1051 C1052 1.403 . S
C1052 C1051 1.403 . S
C1052 C1053 1.404 . S
C1052 C1055 1.539 . S
C1053 C1049 1.408 . S
C1053 C1052 1.404 . S
C1053 H1065 0.930 . S
C1054 C1050 1.524 . S
C1054 H1066 0.956 . S
C1054 H1067 0.961 . S
C1054 H1068 0.961 . S
C1055 C1052 1.539 . S
C1055 H1069 0.958 . S
C1055 H1070 0.961 . S
C1055 H1071 0.960 . S
H1056 C1040 0.931 . S
H1057 C1045 0.929 . S
H1058 C1046 0.960 . S
H1059 C1046 0.962 . S
H1060 C1046 0.960 . S
H1061 C1047 0.961 . S
H1062 C1047 0.961 . S
H1063 C1047 0.961 . S
H1064 C1048 0.931 . S
H1065 C1053 0.930 . S
H1066 C1054 0.956 . S
H1067 C1054 0.961 . S
H1068 C1054 0.961 . S
H1069 C1055 0.958 . S
H1070 C1055 0.961 . S
H1071 C1055 0.960 . S
C1072 C1073 1.391 . S
C1072 C1074 1.394 . S
C1072 H1088 0.931 . S
C1073 C1072 1.391 . S
C1073 C1077 1.376 . S
C1074 C1072 1.394 . S
C1074 C1075 1.369 . S
C1074 C1078 1.531 . S
C1075 C1074 1.369 . S
C1075 C1076 1.410 . S
C1075 C1083 1.503 . S
C1076 C1075 1.410 . S
C1076 C1077 1.392 . S
C1076 C1079 1.511 . S
C1077 C1073 1.376 . S
C1077 C1076 1.392 . S
C1077 H1089 0.929 . S
C1078 C1074 1.531 . S
C1078 H1090 0.960 . S
C1078 H1091 0.962 . S
C1078 H1092 0.960 . S
C1079 C1076 1.511 . S
C1079 H1093 0.961 . S
C1079 H1094 0.961 . S
C1079 H1095 0.961 . S
C1080 C1081 1.370 . S
C1080 C1082 1.363 . S
C1080 H1096 0.931 . S
C1081 C1080 1.370 . S
C1081 C1085 1.408 . S
C1082 C1080 1.363 . S
C1082 C1083 1.370 . S
C1082 C1086 1.524 . S
C1083 C1075 1.503 . S
C1083 C1082 1.370 . S
C1083 C1084 1.403 . S
C1084 C1083 1.403 . S
C1084 C1085 1.404 . S
C1084 C1087 1.539 . S
C1085 C1081 1.408 . S
C1085 C1084 1.404 . S
C1085 H1097 0.930 . S
C1086 C1082 1.524 . S
C1086 H1098 0.956 . S
C1086 H1099 0.961 . S
C1086 H1100 0.961 . S
C1087 C1084 1.539 . S
C1087 H1101 0.958 . S
C1087 H1102 0.961 . S
C1087 H1103 0.960 . S
H1088 C1072 0.931 . S
H1089 C1077 0.929 . S
H1090 C1078 0.960 . S
H1091 C1078 0.962 . S
H1092 C1078 0.960 . S
H1093 C1079 0.961 . S
H1094 C1079 0.961 . S
H1095 C1079 0.961 . S
H1096 C1080 0.931 . S
H1097 C1085 0.930 . S
H1098 C1086 0.956 . S
H1099 C1086 0.961 . S
H1100 C1086 0.961 . S
H1101 C1087 0.958 . S
H1102 C1087 0.961 . S
H1103 C1087 0.960 . S
C1104 C1105 1.391 . S
C1104 C1106 1.394 . S
C1104 H1120 0.931 . S
C1105 C1104 1.391 . S
C1105 C1109 1.376 . S
C1106 C1104 1.394 . S
C1106 C1107 1.369 . S
C1106 C1110 1.531 . S
C1107 C1106 1.369 . S
C1107 C1108 1.410 . S
C1107 C1115 1.503 . S
C1108 C1107 1.410 . S
C1108 C1109 1.392 . S
C1108 C1111 1.511 . S
C1109 C1105 1.376 . S
C1109 C1108 1.392 . S
C1109 H1121 0.929 . S
C1110 C1106 1.531 . S
C1110 H1122 0.960 . S
C1110 H1123 0.962 . S
C1110 H1124 0.960 . S
C1111 C1108 1.511 . S
C1111 H1125 0.961 . S
C1111 H1126 0.961 . S
C1111 H1127 0.961 . S
C1112 C1113 1.370 . S
C1112 C1114 1.363 . S
C1112 H1128 0.931 . S
C1113 C1112 1.370 . S
C1113 C1117 1.408 . S
C1114 C1112 1.363 . S
C1114 C1115 1.370 . S
C1114 C1118 1.524 . S
C1115 C1107 1.503 . S
C1115 C1114 1.370 . S
C1115 C1116 1.403 . S
C1116 C1115 1.403 . S
C1116 C1117 1.404 . S
C1116 C1119 1.539 . S
C1117 C1113 1.408 . S
C1117 C1116 1.404 . S
C1117 H1129 0.930 . S
C1118 C1114 1.524 . S
C1118 H1130 0.956 . S
C1118 H1131 0.961 . S
C1118 H1132 0.961 . S
C1119 C1116 1.539 . S
C1119 H1133 0.958 . S
C1119 H1134 0.961 . S
C1119 H1135 0.960 . S
H1120 C1104 0.931 . S
H1121 C1109 0.929 . S
H1122 C1110 0.960 . S
H1123 C1110 0.962 . S
H1124 C1110 0.960 . S
H1125 C1111 0.961 . S
H1126 C1111 0.961 . S
H1127 C1111 0.961 . S
H1128 C1112 0.931 . S
H1129 C1117 0.930 . S
H1130 C1118 0.956 . S
H1131 C1118 0.961 . S
H1132 C1118 0.961 . S
H1133 C1119 0.958 . S
H1134 C1119 0.961 . S
H1135 C1119 0.960 . S
C1136 C1137 1.391 . S
C1136 C1138 1.394 . S
C1136 H1152 0.931 . S
C1137 C1136 1.391 . S
C1137 C1141 1.376 . S
C1138 C1136 1.394 . S
C1138 C1139 1.369 . S
C1138 C1142 1.531 . S
C1139 C1138 1.369 . S
C1139 C1140 1.410 . S
C1139 C1147 1.503 . S
C1140 C1139 1.410 . S
C1140 C1141 1.392 . S
C1140 C1143 1.511 . S
C1141 C1137 1.376 . S
C1141 C1140 1.392 . S
C1141 H1153 0.929 . S
C1142 C1138 1.531 . S
C1142 H1154 0.960 . S
C1142 H1155 0.962 . S
C1142 H1156 0.960 . S
C1143 C1140 1.511 . S
C1143 H1157 0.961 . S
C1143 H1158 0.961 . S
C1143 H1159 0.961 . S
C1144 C1145 1.370 . S
C1144 C1146 1.363 . S
C1144 H1160 0.931 . S
C1145 C1144 1.370 . S
C1145 C1149 1.408 . S
C1146 C1144 1.363 . S
C1146 C1147 1.370 . S
C1146 C1150 1.524 . S
C1147 C1139 1.503 . S
C1147 C1146 1.370 . S
C1147 C1148 1.403 . S
C1148 C1147 1.403 . S
C1148 C1149 1.404 . S
C1148 C1151 1.539 . S
C1149 C1145 1.408 . S
C1149 C1148 1.404 . S
C1149 H1161 0.930 . S
C1150 C1146 1.524 . S
C1150 H1162 0.956 . S
C1150 H1163 0.961 . S
C1150 H1164 0.961 . S
C1151 C1148 1.539 . S
C1151 H1165 0.958 . S
C1151 H1166 0.961 . S
C1151 H1167 0.960 . S
H1152 C1136 0.931 . S
H1153 C1141 0.929 . S
H1154 C1142 0.960 . S
H1155 C1142 0.962 . S
H1156 C1142 0.960 . S
H1157 C1143 0.961 . S
H1158 C1143 0.961 . S
H1159 C1143 0.961 . S
H1160 C1144 0.931 . S
H1161 C1149 0.930 . S
H1162 C1150 0.956 . S
H1163 C1150 0.961 . S
H1164 C1150 0.961 . S
H1165 C1151 0.958 . S
H1166 C1151 0.961 . S
H1167 C1151 0.960 . S
C1168 C1169 1.391 . S
C1168 C1170 1.394 . S
C1168 H1184 0.931 . S
C1169 C1168 1.391 . S
C1169 C1173 1.376 . S
C1170 C1168 1.394 . S
C1170 C1171 1.369 . S
C1170 C1174 1.531 . S
C1171 C1170 1.369 . S
C1171 C1172 1.410 . S
C1171 C1179 1.503 . S
C1172 C1171 1.410 . S
C1172 C1173 1.392 . S
C1172 C1175 1.511 . S
C1173 C1169 1.376 . S
C1173 C1172 1.392 . S
C1173 H1185 0.929 . S
C1174 C1170 1.531 . S
C1174 H1186 0.960 . S
C1174 H1187 0.962 . S
C1174 H1188 0.960 . S
C1175 C1172 1.511 . S
C1175 H1189 0.961 . S
C1175 H1190 0.961 . S
C1175 H1191 0.961 . S
C1176 C1177 1.370 . S
C1176 C1178 1.363 . S
C1176 H1192 0.931 . S
C1177 C1176 1.370 . S
C1177 C1181 1.408 . S
C1178 C1176 1.363 . S
C1178 C1179 1.370 . S
C1178 C1182 1.524 . S
C1179 C1171 1.503 . S
C1179 C1178 1.370 . S
C1179 C1180 1.403 . S
C1180 C1179 1.403 . S
C1180 C1181 1.404 . S
C1180 C1183 1.539 . S
C1181 C1177 1.408 . S
C1181 C1180 1.404 . S
C1181 H1193 0.930 . S
C1182 C1178 1.524 . S
C1182 H1194 0.956 . S
C1182 H1195 0.961 . S
C1182 H1196 0.961 . S
C1183 C1180 1.539 . S
C1183 H1197 0.958 . S
C1183 H1198 0.961 . S
C1183 H1199 0.960 . S
H1184 C1168 0.931 . S
H1185 C1173 0.929 . S
H1186 C1174 0.960 . S
H1187 C1174 0.962 . S
H1188 C1174 0.960 . S
H1189 C1175 0.961 . S
H1190 C1175 0.961 . S
H1191 C1175 0.961 . S
H1192 C1176 0.931 . S
H1193 C1181 0.930 . S
H1194 C1182 0.956 . S
H1195 C1182 0.961 . S
H1196 C1182 0.961 . S
H1197 C1183 0.958 . S
H1198 C1183 0.961 . S
H1199 C1183 0.960 . S
C1200 C1201 1.391 . S
C1200 C1202 1.394 . S
C1200 H1216 0.931 . S
C1201 C1200 1.391 . S
C1201 C1205 1.376 . S
C1202 C1200 1.394 . S
C1202 C1203 1.369 . S
C1202 C1206 1.531 . S
C1203 C1202 1.369 . S
C1203 C1204 1.410 . S
C1203 C1211 1.503 . S
C1204 C1203 1.410 . S
C1204 C1205 1.392 . S
C1204 C1207 1.511 . S
C1205 C1201 1.376 . S
C1205 C1204 1.392 . S
C1205 H1217 0.929 . S
C1206 C1202 1.531 . S
C1206 H1218 0.960 . S
C1206 H1219 0.962 . S
C1206 H1220 0.960 . S
C1207 C1204 1.511 . S
C1207 H1221 0.961 . S
C1207 H1222 0.961 . S
C1207 H1223 0.961 . S
C1208 C1209 1.370 . S
C1208 C1210 1.363 . S
C1208 H1224 0.931 . S
C1209 C1208 1.370 . S
C1209 C1213 1.408 . S
C1210 C1208 1.363 . S
C1210 C1211 1.370 . S
C1210 C1214 1.524 . S
C1211 C1203 1.503 . S
C1211 C1210 1.370 . S
C1211 C1212 1.403 . S
C1212 C1211 1.403 . S
C1212 C1213 1.404 . S
C1212 C1215 1.539 . S
C1213 C1209 1.408 . S
C1213 C1212 1.404 . S
C1213 H1225 0.930 . S
C1214 C1210 1.524 . S
C1214 H1226 0.956 . S
C1214 H1227 0.961 . S
C1214 H1228 0.961 . S
C1215 C1212 1.539 . S
C1215 H1229 0.958 . S
C1215 H1230 0.961 . S
C1215 H1231 0.960 . S
H1216 C1200 0.931 . S
H1217 C1205 0.929 . S
H1218 C1206 0.960 . S
H1219 C1206 0.962 . S
H1220 C1206 0.960 . S
H1221 C1207 0.961 . S
H1222 C1207 0.961 . S
H1223 C1207 0.961 . S
H1224 C1208 0.931 . S
H1225 C1213 0.930 . S
H1226 C1214 0.956 . S
H1227 C1214 0.961 . S
H1228 C1214 0.961 . S
H1229 C1215 0.958 . S
H1230 C1215 0.961 . S
H1231 C1215 0.960 . S
C1232 C1233 1.391 1_565 S
C1232 C1234 1.394 . S
C1232 H1248 0.931 . S
C1233 C1232 1.391 1_545 S
C1233 C1237 1.376 . S
C1234 C1232 1.394 . S
C1234 C1235 1.369 1_565 S
C1234 C1238 1.531 . S
C1235 C1234 1.369 1_545 S
C1235 C1236 1.410 . S
C1235 C1243 1.503 . S
C1236 C1235 1.410 . S
C1236 C1237 1.392 . S
C1236 C1239 1.511 . S
C1237 C1233 1.376 . S
C1237 C1236 1.392 . S
C1237 H1249 0.929 . S
C1238 C1234 1.531 . S
C1238 H1250 0.960 . S
C1238 H1251 0.962 . S
C1238 H1252 0.960 . S
C1239 C1236 1.511 . S
C1239 H1253 0.961 1_655 S
C1239 H1254 0.961 1_655 S
C1239 H1255 0.961 . S
C1240 C1241 1.370 . S
C1240 C1242 1.363 . S
C1240 H1256 0.931 . S
C1241 C1240 1.370 . S
C1241 C1245 1.408 1_455 S
C1242 C1240 1.363 . S
C1242 C1243 1.370 1_455 S
C1242 C1246 1.524 . S
C1243 C1235 1.503 . S
C1243 C1242 1.370 1_655 S
C1243 C1244 1.403 . S
C1244 C1243 1.403 . S
C1244 C1245 1.404 . S
C1244 C1247 1.539 . S
C1245 C1241 1.408 1_655 S
C1245 C1244 1.404 . S
C1245 H1257 0.930 . S
C1246 C1242 1.524 . S
C1246 H1258 0.956 1_545 S
C1246 H1259 0.961 . S
C1246 H1260 0.958 1_545 S
C1247 C1244 1.539 . S
C1247 H1261 0.958 . S
C1247 H1262 0.961 . S
C1247 H1263 0.960 . S
H1248 C1232 0.931 . S
H1249 C1237 0.929 . S
H1250 C1238 0.960 . S
H1251 C1238 0.962 . S
H1252 C1238 0.960 . S
H1253 C1239 0.961 1_455 S
H1254 C1239 0.961 1_455 S
H1255 C1239 0.961 . S
H1256 C1240 0.931 . S
H1257 C1245 0.930 . S
H1258 C1246 0.956 1_565 S
H1259 C1246 0.961 . S
H1260 C1246 0.958 1_565 S
H1261 C1247 0.958 . S
H1262 C1247 0.961 . S
H1263 C1247 0.960 . S
C1264 C1265 1.391 . S
C1264 C1266 1.394 . S
C1264 H1280 0.931 . S
C1265 C1264 1.391 . S
C1265 C1269 1.376 . S
C1266 C1264 1.394 . S
C1266 C1267 1.369 . S
C1266 C1270 1.531 . S
C1267 C1266 1.369 . S
C1267 C1268 1.410 . S
C1267 C1275 1.503 . S
C1268 C1267 1.410 . S
C1268 C1269 1.392 . S
C1268 C1271 1.511 . S
C1269 C1265 1.376 . S
C1269 C1268 1.392 . S
C1269 H1281 0.929 . S
C1270 C1266 1.531 . S
C1270 H1282 0.960 . S
C1270 H1283 0.962 . S
C1270 H1284 0.960 . S
C1271 C1268 1.511 . S
C1271 H1285 0.961 . S
C1271 H1286 0.961 . S
C1271 H1287 0.961 . S
C1272 C1273 1.370 . S
C1272 C1274 1.363 . S
C1272 H1288 0.931 . S
C1273 C1272 1.370 . S
C1273 C1277 1.408 . S
C1274 C1272 1.363 . S
C1274 C1275 1.370 . S
C1274 C1278 1.524 . S
C1275 C1267 1.503 . S
C1275 C1274 1.370 . S
C1275 C1276 1.403 . S
C1276 C1275 1.403 . S
C1276 C1277 1.404 . S
C1276 C1279 1.539 . S
C1277 C1273 1.408 . S
C1277 C1276 1.404 . S
C1277 H1289 0.930 . S
C1278 C1274 1.524 . S
C1278 H1290 0.956 . S
C1278 H1291 0.961 . S
C1278 H1292 0.961 . S
C1279 C1276 1.539 . S
C1279 H1293 0.958 . S
C1279 H1294 0.961 . S
C1279 H1295 0.960 . S
H1280 C1264 0.931 . S
H1281 C1269 0.929 . S
H1282 C1270 0.960 . S
H1283 C1270 0.962 . S
H1284 C1270 0.960 . S
H1285 C1271 0.961 . S
H1286 C1271 0.961 . S
H1287 C1271 0.961 . S
H1288 C1272 0.931 . S
H1289 C1277 0.930 . S
H1290 C1278 0.956 . S
H1291 C1278 0.961 . S
H1292 C1278 0.961 . S
H1293 C1279 0.958 . S
H1294 C1279 0.961 . S
H1295 C1279 0.960 . S
C1296 C1297 1.391 . S
C1296 C1298 1.394 . S
C1296 H1312 0.931 . S
C1297 C1296 1.391 . S
C1297 C1301 1.397 . S
C1298 C1296 1.394 . S
C1298 C1299 1.369 . S
C1298 C1302 1.531 . S
C1299 C1298 1.369 . S
C1299 C1300 1.404 1_545 S
C1299 C1307 1.503 . S
C1300 C1299 1.404 1_565 S
C1300 C1301 1.407 1_565 S
C1300 C1303 1.515 . S
C1301 C1297 1.397 . S
C1301 C1300 1.407 1_545 S
C1301 H1313 0.897 1_545 S
C1302 C1298 1.531 . S
C1302 H1314 0.960 . S
C1302 H1315 0.962 . S
C1302 H1316 0.960 . S
C1303 C1300 1.515 . S
C1303 H1317 0.961 . S
C1303 H1318 0.961 . S
C1303 H1319 0.961 . S
C1304 C1305 1.370 . S
C1304 C1306 1.363 . S
C1304 H1320 0.931 . S
C1305 C1304 1.370 . S
C1305 C1309 1.408 . S
C1306 C1304 1.363 . S
C1306 C1307 1.370 . S
C1306 C1310 1.524 . S
C1307 C1299 1.503 . S
C1307 C1306 1.370 . S
C1307 C1308 1.403 . S
C1308 C1307 1.403 . S
C1308 C1309 1.404 . S
C1308 C1311 1.539 1_545 S
C1309 C1305 1.408 . S
C1309 C1308 1.404 . S
C1309 H1321 0.930 1_545 S
C1310 C1306 1.524 . S
C1310 H1322 0.956 . S
C1310 H1323 0.961 . S
C1310 H1324 0.961 . S
C1311 C1308 1.539 1_565 S
C1311 H1325 0.958 . S
C1311 H1326 0.961 . S
C1311 H1327 0.960 . S
H1312 C1296 0.931 . S
H1313 C1301 0.897 1_565 S
H1314 C1302 0.960 . S
H1315 C1302 0.962 . S
H1316 C1302 0.960 . S
H1317 C1303 0.961 . S
H1318 C1303 0.961 . S
H1319 C1303 0.961 . S
H1320 C1304 0.931 . S
H1321 C1309 0.930 1_565 S
H1322 C1310 0.956 . S
H1323 C1310 0.961 . S
H1324 C1310 0.961 . S
H1325 C1311 0.958 . S
H1326 C1311 0.961 . S
H1327 C1311 0.960 . S
C1328 C1329 1.391 . S
C1328 C1330 1.394 . S
C1328 H1344 0.931 . S
C1329 C1328 1.391 . S
C1329 C1333 1.376 . S
C1330 C1328 1.394 . S
C1330 C1331 1.369 . S
C1330 C1334 1.531 . S
C1331 C1330 1.369 . S
C1331 C1332 1.410 . S
C1331 C1339 1.503 . S
C1332 C1331 1.410 . S
C1332 C1333 1.392 . S
C1332 C1335 1.511 . S
C1333 C1329 1.376 . S
C1333 C1332 1.392 . S
C1333 H1345 0.929 . S
C1334 C1330 1.531 . S
C1334 H1346 0.960 . S
C1334 H1347 0.962 . S
C1334 H1348 0.960 . S
C1335 C1332 1.511 . S
C1335 H1349 0.961 . S
C1335 H1350 0.961 . S
C1335 H1351 0.961 . S
C1336 C1337 1.370 . S
C1336 C1338 1.363 . S
C1336 H1352 0.931 . S
C1337 C1336 1.370 . S
C1337 C1341 1.408 . S
C1338 C1336 1.363 . S
C1338 C1339 1.370 . S
C1338 C1342 1.524 . S
C1339 C1331 1.503 . S
C1339 C1338 1.370 . S
C1339 C1340 1.403 . S
C1340 C1339 1.403 . S
C1340 C1341 1.404 . S
C1340 C1343 1.539 . S
C1341 C1337 1.408 . S
C1341 C1340 1.404 . S
C1341 H1353 0.930 . S
C1342 C1338 1.524 . S
C1342 H1354 0.956 . S
C1342 H1355 0.961 . S
C1342 H1356 0.961 . S
C1343 C1340 1.539 . S
C1343 H1357 0.958 . S
C1343 H1358 0.961 . S
C1343 H1359 0.960 . S
H1344 C1328 0.931 . S
H1345 C1333 0.929 . S
H1346 C1334 0.960 . S
H1347 C1334 0.962 . S
H1348 C1334 0.960 . S
H1349 C1335 0.961 . S
H1350 C1335 0.961 . S
H1351 C1335 0.961 . S
H1352 C1336 0.931 . S
H1353 C1341 0.930 . S
H1354 C1342 0.956 . S
H1355 C1342 0.961 . S
H1356 C1342 0.961 . S
H1357 C1343 0.958 . S
H1358 C1343 0.961 . S
H1359 C1343 0.960 . S
C1360 C1361 1.391 . S
C1360 C1362 1.394 . S
C1360 H1376 0.931 . S
C1361 C1360 1.391 . S
C1361 C1365 1.376 . S
C1362 C1360 1.394 . S
C1362 C1363 1.369 . S
C1362 C1366 1.531 1_655 S
C1363 C1362 1.369 . S
C1363 C1364 1.410 . S
C1363 C1371 1.512 . S
C1364 C1363 1.410 . S
C1364 C1365 1.392 . S
C1364 C1367 1.511 . S
C1365 C1361 1.376 . S
C1365 C1364 1.392 . S
C1365 H1377 0.929 . S
C1366 C1362 1.531 1_455 S
C1366 H1378 0.960 . S
C1366 H1379 0.996 . S
C1366 H1380 0.960 . S
C1367 C1364 1.511 . S
C1367 H1381 0.961 . S
C1367 H1382 0.961 . S
C1367 H1383 0.961 . S
C1368 C1369 1.373 . S
C1368 C1370 1.364 1_445 S
C1368 H1384 0.928 1_545 S
C1369 C1368 1.373 . S
C1369 C1373 1.408 . S
C1370 C1368 1.364 1_665 S
C1370 C1371 1.366 1_565 S
C1370 C1374 1.524 . S
C1371 C1363 1.512 . S
C1371 C1370 1.366 1_545 S
C1371 C1372 1.398 1_655 S
C1372 C1371 1.398 1_455 S
C1372 C1373 1.404 . S
C1372 C1375 1.539 . S
C1373 C1369 1.408 . S
C1373 C1372 1.404 . S
C1373 H1385 0.930 . S
C1374 C1370 1.524 . S
C1374 H1386 0.956 . S
C1374 H1387 0.961 . S
C1374 H1388 0.961 . S
C1375 C1372 1.539 . S
C1375 H1389 0.958 . S
C1375 H1390 0.961 . S
C1375 H1391 0.960 1_455 S
H1376 C1360 0.931 . S
H1377 C1365 0.929 . S
H1378 C1366 0.960 . S
H1379 C1366 0.996 . S
H1380 C1366 0.960 . S
H1381 C1367 0.961 . S
H1382 C1367 0.961 . S
H1383 C1367 0.961 . S
H1384 C1368 0.928 1_565 S
H1385 C1373 0.930 . S
H1386 C1374 0.956 . S
H1387 C1374 0.961 . S
H1388 C1374 0.961 . S
H1389 C1375 0.958 . S
H1390 C1375 0.961 . S
H1391 C1375 0.960 1_655 S
C1392 C1393 1.391 . S
C1392 C1394 1.394 . S
C1392 H1408 0.931 . S
C1393 C1392 1.391 . S
C1393 C1397 1.376 . S
C1394 C1392 1.394 . S
C1394 C1395 1.369 . S
C1394 C1398 1.531 . S
C1395 C1394 1.369 . S
C1395 C1396 1.410 . S
C1395 C1403 1.503 . S
C1396 C1395 1.410 . S
C1396 C1397 1.392 . S
C1396 C1399 1.511 . S
C1397 C1393 1.376 . S
C1397 C1396 1.392 . S
C1397 H1409 0.929 . S
C1398 C1394 1.531 . S
C1398 H1410 0.960 . S
C1398 H1411 0.962 . S
C1398 H1412 0.960 . S
C1399 C1396 1.511 . S
C1399 H1413 0.961 . S
C1399 H1414 0.961 . S
C1399 H1415 0.961 . S
C1400 C1401 1.370 . S
C1400 C1402 1.363 . S
C1400 H1416 0.931 . S
C1401 C1400 1.370 . S
C1401 C1405 1.408 . S
C1402 C1400 1.363 . S
C1402 C1403 1.370 . S
C1402 C1406 1.524 . S
C1403 C1395 1.503 . S
C1403 C1402 1.370 . S
C1403 C1404 1.403 . S
C1404 C1403 1.403 . S
C1404 C1405 1.404 . S
C1404 C1407 1.539 . S
C1405 C1401 1.408 . S
C1405 C1404 1.404 . S
C1405 H1417 0.930 . S
C1406 C1402 1.524 . S
C1406 H1418 0.956 . S
C1406 H1419 0.961 . S
C1406 H1420 0.961 . S
C1407 C1404 1.539 . S
C1407 H1421 0.958 . S
C1407 H1422 0.961 . S
C1407 H1423 0.960 . S
H1408 C1392 0.931 . S
H1409 C1397 0.929 . S
H1410 C1398 0.960 . S
H1411 C1398 0.962 . S
H1412 C1398 0.960 . S
H1413 C1399 0.961 . S
H1414 C1399 0.961 . S
H1415 C1399 0.961 . S
H1416 C1400 0.931 . S
H1417 C1405 0.930 . S
H1418 C1406 0.956 . S
H1419 C1406 0.961 . S
H1420 C1406 0.961 . S
H1421 C1407 0.958 . S
H1422 C1407 0.961 . S
H1423 C1407 0.960 . S
C1424 C1425 1.391 . S
C1424 C1426 1.394 . S
C1424 H1440 0.931 . S
C1425 C1424 1.391 . S
C1425 C1429 1.376 . S
C1426 C1424 1.394 . S
C1426 C1427 1.369 . S
C1426 C1430 1.531 . S
C1427 C1426 1.369 . S
C1427 C1428 1.410 . S
C1427 C1435 1.503 . S
C1428 C1427 1.410 . S
C1428 C1429 1.392 . S
C1428 C1431 1.511 . S
C1429 C1425 1.376 . S
C1429 C1428 1.392 . S
C1429 H1441 0.929 . S
C1430 C1426 1.531 . S
C1430 H1442 0.960 . S
C1430 H1443 0.962 . S
C1430 H1444 0.960 . S
C1431 C1428 1.511 . S
C1431 H1445 0.961 . S
C1431 H1446 0.961 . S
C1431 H1447 0.961 . S
C1432 C1433 1.370 1_556 S
C1432 C1434 1.363 . S
C1432 H1448 0.931 1_556 S
C1433 C1432 1.370 1_554 S
C1433 C1437 1.408 1_554 S
C1434 C1432 1.363 . S
C1434 C1435 1.370 . S
C1434 C1438 1.524 1_545 S
C1435 C1427 1.503 . S
C1435 C1434 1.370 . S
C1435 C1436 1.403 . S
C1436 C1435 1.403 . S
C1436 C1437 1.404 . S
C1436 C1439 1.539 . S
C1437 C1433 1.408 1_556 S
C1437 C1436 1.404 . S
C1437 H1449 0.930 1_556 S
C1438 C1434 1.524 1_565 S
C1438 H1450 0.955 . S
C1438 H1451 0.961 . S
C1438 H1452 0.961 . S
C1439 C1436 1.539 . S
C1439 H1453 0.958 . S
C1439 H1454 0.961 . S
C1439 H1455 0.960 . S
H1440 C1424 0.931 . S
H1441 C1429 0.929 . S
H1442 C1430 0.960 . S
H1443 C1430 0.962 . S
H1444 C1430 0.960 . S
H1445 C1431 0.961 . S
H1446 C1431 0.961 . S
H1447 C1431 0.961 . S
H1448 C1432 0.931 1_554 S
H1449 C1437 0.930 1_554 S
H1450 C1438 0.955 . S
H1451 C1438 0.961 . S
H1452 C1438 0.961 . S
H1453 C1439 0.958 . S
H1454 C1439 0.961 . S
H1455 C1439 0.960 . S
C1456 C1457 1.391 . S
C1456 C1458 1.394 . S
C1456 H1472 0.931 . S
C1457 C1456 1.391 . S
C1457 C1461 1.376 . S
C1458 C1456 1.394 . S
C1458 C1459 1.369 . S
C1458 C1462 1.531 . S
C1459 C1458 1.369 . S
C1459 C1460 1.410 . S
C1459 C1467 1.503 . S
C1460 C1459 1.410 . S
C1460 C1461 1.392 . S
C1460 C1463 1.511 . S
C1461 C1457 1.376 . S
C1461 C1460 1.392 . S
C1461 H1473 0.929 . S
C1462 C1458 1.531 . S
C1462 H1474 0.960 . S
C1462 H1475 0.962 . S
C1462 H1476 0.960 . S
C1463 C1460 1.511 . S
C1463 H1477 0.961 . S
C1463 H1478 0.961 . S
C1463 H1479 0.961 . S
C1464 C1465 1.370 . S
C1464 C1466 1.363 . S
C1464 H1480 0.931 . S
C1465 C1464 1.370 . S
C1465 C1469 1.408 . S
C1466 C1464 1.363 . S
C1466 C1467 1.370 . S
C1466 C1470 1.524 . S
C1467 C1459 1.503 . S
C1467 C1466 1.370 . S
C1467 C1468 1.403 . S
C1468 C1467 1.403 . S
C1468 C1469 1.404 . S
C1468 C1471 1.539 . S
C1469 C1465 1.408 . S
C1469 C1468 1.404 . S
C1469 H1481 0.930 . S
C1470 C1466 1.524 . S
C1470 H1482 0.956 . S
C1470 H1483 0.961 . S
C1470 H1484 0.961 . S
C1471 C1468 1.539 . S
C1471 H1485 0.958 . S
C1471 H1486 0.961 . S
C1471 H1487 0.960 . S
H1472 C1456 0.931 . S
H1473 C1461 0.929 . S
H1474 C1462 0.960 . S
H1475 C1462 0.962 . S
H1476 C1462 0.960 . S
H1477 C1463 0.961 . S
H1478 C1463 0.961 . S
H1479 C1463 0.961 . S
H1480 C1464 0.931 . S
H1481 C1469 0.930 . S
H1482 C1470 0.956 . S
H1483 C1470 0.961 . S
H1484 C1470 0.961 . S
H1485 C1471 0.958 . S
H1486 C1471 0.961 . S
H1487 C1471 0.960 . S
C1488 C1489 1.391 . S
C1488 C1490 1.394 . S
C1488 H1504 0.931 . S
C1489 C1488 1.391 . S
C1489 C1493 1.376 . S
C1490 C1488 1.394 . S
C1490 C1491 1.369 . S
C1490 C1494 1.531 . S
C1491 C1490 1.369 . S
C1491 C1492 1.410 . S
C1491 C1499 1.503 . S
C1492 C1491 1.410 . S
C1492 C1493 1.392 . S
C1492 C1495 1.511 . S
C1493 C1489 1.376 . S
C1493 C1492 1.392 . S
C1493 H1505 0.929 . S
C1494 C1490 1.531 . S
C1494 H1506 0.960 . S
C1494 H1507 0.962 . S
C1494 H1508 0.960 . S
C1495 C1492 1.511 . S
C1495 H1509 0.961 . S
C1495 H1510 0.961 . S
C1495 H1511 0.961 . S
C1496 C1497 1.370 . S
C1496 C1498 1.363 . S
C1496 H1512 0.931 . S
C1497 C1496 1.370 . S
C1497 C1501 1.408 . S
C1498 C1496 1.363 . S
C1498 C1499 1.370 . S
C1498 C1502 1.524 . S
C1499 C1491 1.503 . S
C1499 C1498 1.370 . S
C1499 C1500 1.403 . S
C1500 C1499 1.403 . S
C1500 C1501 1.404 . S
C1500 C1503 1.539 . S
C1501 C1497 1.408 . S
C1501 C1500 1.404 . S
C1501 H1513 0.930 . S
C1502 C1498 1.524 . S
C1502 H1514 0.956 . S
C1502 H1515 0.961 . S
C1502 H1516 0.961 . S
C1503 C1500 1.539 . S
C1503 H1517 0.958 . S
C1503 H1518 0.961 . S
C1503 H1519 0.960 . S
H1504 C1488 0.931 . S
H1505 C1493 0.929 . S
H1506 C1494 0.960 . S
H1507 C1494 0.962 . S
H1508 C1494 0.960 . S
H1509 C1495 0.961 . S
H1510 C1495 0.961 . S
H1511 C1495 0.961 . S
H1512 C1496 0.931 . S
H1513 C1501 0.930 . S
H1514 C1502 0.956 . S
H1515 C1502 0.961 . S
H1516 C1502 0.961 . S
H1517 C1503 0.958 . S
H1518 C1503 0.961 . S
H1519 C1503 0.960 . S
C1520 C1521 1.391 . S
C1520 C1522 1.394 . S
C1520 H1536 0.931 . S
C1521 C1520 1.391 . S
C1521 C1525 1.376 . S
C1522 C1520 1.394 . S
C1522 C1523 1.369 . S
C1522 C1526 1.531 . S
C1523 C1522 1.369 . S
C1523 C1524 1.410 . S
C1523 C1531 1.503 . S
C1524 C1523 1.410 . S
C1524 C1525 1.392 . S
C1524 C1527 1.511 . S
C1525 C1521 1.376 . S
C1525 C1524 1.392 . S
C1525 H1537 0.929 . S
C1526 C1522 1.531 . S
C1526 H1538 0.960 . S
C1526 H1539 0.962 . S
C1526 H1540 0.960 . S
C1527 C1524 1.511 . S
C1527 H1541 0.961 . S
C1527 H1542 0.961 . S
C1527 H1543 0.961 . S
C1528 C1529 1.370 . S
C1528 C1530 1.363 . S
C1528 H1544 0.931 . S
C1529 C1528 1.370 . S
C1529 C1533 1.408 . S
C1530 C1528 1.363 . S
C1530 C1531 1.370 . S
C1530 C1534 1.524 . S
C1531 C1523 1.503 . S
C1531 C1530 1.370 . S
C1531 C1532 1.403 . S
C1532 C1531 1.403 . S
C1532 C1533 1.404 . S
C1532 C1535 1.539 . S
C1533 C1529 1.408 . S
C1533 C1532 1.404 . S
C1533 H1545 0.930 . S
C1534 C1530 1.524 . S
C1534 H1546 0.956 . S
C1534 H1547 0.961 . S
C1534 H1548 0.961 . S
C1535 C1532 1.539 . S
C1535 H1549 0.930 1_554 S
C1535 H1550 0.958 1_554 S
C1535 H1551 0.960 . S
H1536 C1520 0.931 . S
H1537 C1525 0.929 . S
H1538 C1526 0.960 . S
H1539 C1526 0.962 . S
H1540 C1526 0.960 . S
H1541 C1527 0.961 . S
H1542 C1527 0.961 . S
H1543 C1527 0.961 . S
H1544 C1528 0.931 . S
H1545 C1533 0.930 . S
H1546 C1534 0.956 . S
H1547 C1534 0.961 . S
H1548 C1534 0.961 . S
H1549 C1535 0.930 1_556 S
H1550 C1535 0.958 1_556 S
H1551 C1535 0.960 . S
C1552 C1553 1.391 . S
C1552 C1554 1.394 . S
C1552 H1568 0.931 . S
C1553 C1552 1.391 . S
C1553 C1557 1.376 . S
C1554 C1552 1.394 . S
C1554 C1555 1.369 . S
C1554 C1558 1.531 . S
C1555 C1554 1.369 . S
C1555 C1556 1.410 . S
C1555 C1563 1.503 . S
C1556 C1555 1.410 . S
C1556 C1557 1.392 . S
C1556 C1559 1.511 . S
C1557 C1553 1.376 . S
C1557 C1556 1.392 . S
C1557 H1569 0.929 . S
C1558 C1554 1.531 . S
C1558 H1570 0.960 . S
C1558 H1571 0.962 . S
C1558 H1572 0.960 . S
C1559 C1556 1.511 . S
C1559 H1573 0.961 . S
C1559 H1574 0.961 . S
C1559 H1575 0.961 . S
C1560 C1561 1.370 . S
C1560 C1562 1.363 . S
C1560 H1576 0.931 . S
C1561 C1560 1.370 . S
C1561 C1565 1.408 . S
C1562 C1560 1.363 . S
C1562 C1563 1.370 . S
C1562 C1566 1.524 . S
C1563 C1555 1.503 . S
C1563 C1562 1.370 . S
C1563 C1564 1.403 . S
C1564 C1563 1.403 . S
C1564 C1565 1.404 . S
C1564 C1567 1.539 . S
C1565 C1561 1.408 . S
C1565 C1564 1.404 . S
C1565 H1577 0.930 . S
C1566 C1562 1.524 . S
C1566 H1578 0.956 . S
C1566 H1579 0.961 . S
C1566 H1580 0.961 . S
C1567 C1564 1.539 . S
C1567 H1581 0.958 . S
C1567 H1582 0.961 . S
C1567 H1583 0.960 . S
H1568 C1552 0.931 . S
H1569 C1557 0.929 . S
H1570 C1558 0.960 . S
H1571 C1558 0.962 . S
H1572 C1558 0.960 . S
H1573 C1559 0.961 . S
H1574 C1559 0.961 . S
H1575 C1559 0.961 . S
H1576 C1560 0.931 . S
H1577 C1565 0.930 . S
H1578 C1566 0.956 . S
H1579 C1566 0.961 . S
H1580 C1566 0.961 . S
H1581 C1567 0.958 . S
H1582 C1567 0.961 . S
H1583 C1567 0.960 . S
C1584 C1585 1.391 . S
C1584 C1586 1.394 . S
C1584 H1600 0.931 . S
C1585 C1584 1.391 . S
C1585 C1589 1.376 . S
C1586 C1584 1.394 . S
C1586 C1587 1.369 . S
C1586 C1590 1.531 . S
C1587 C1586 1.369 . S
C1587 C1588 1.410 . S
C1587 C1595 1.503 . S
C1588 C1587 1.410 . S
C1588 C1589 1.392 . S
C1588 C1591 1.511 . S
C1589 C1585 1.376 . S
C1589 C1588 1.392 . S
C1589 H1601 0.929 . S
C1590 C1586 1.531 . S
C1590 H1602 0.960 . S
C1590 H1603 0.962 . S
C1590 H1604 0.960 . S
C1591 C1588 1.511 . S
C1591 H1605 0.961 . S
C1591 H1606 0.961 . S
C1591 H1607 0.961 . S
C1592 C1593 1.370 . S
C1592 C1594 1.363 . S
C1592 H1608 0.931 . S
C1593 C1592 1.370 . S
C1593 C1597 1.408 . S
C1594 C1592 1.363 . S
C1594 C1595 1.370 . S
C1594 C1598 1.524 . S
C1595 C1587 1.503 . S
C1595 C1594 1.370 . S
C1595 C1596 1.403 . S
C1596 C1595 1.403 . S
C1596 C1597 1.404 . S
C1596 C1599 1.539 . S
C1597 C1593 1.408 . S
C1597 C1596 1.404 . S
C1597 H1609 0.930 . S
C1598 C1594 1.524 . S
C1598 H1610 0.956 . S
C1598 H1611 0.961 . S
C1598 H1612 0.961 . S
C1599 C1596 1.539 . S
C1599 H1613 0.958 . S
C1599 H1614 0.961 . S
C1599 H1615 0.960 . S
H1600 C1584 0.931 . S
H1601 C1589 0.929 . S
H1602 C1590 0.960 . S
H1603 C1590 0.962 . S
H1604 C1590 0.960 . S
H1605 C1591 0.961 . S
H1606 C1591 0.961 . S
H1607 C1591 0.961 . S
H1608 C1592 0.931 . S
H1609 C1597 0.930 . S
H1610 C1598 0.956 . S
H1611 C1598 0.961 . S
H1612 C1598 0.961 . S
H1613 C1599 0.958 . S
H1614 C1599 0.961 . S
H1615 C1599 0.960 . S
C1616 C1617 1.391 . S
C1616 C1618 1.394 . S
C1616 H1632 0.931 . S
C1617 C1616 1.391 . S
C1617 C1621 1.376 . S
C1618 C1616 1.394 . S
C1618 C1619 1.369 . S
C1618 C1622 1.531 . S
C1619 C1618 1.369 . S
C1619 C1620 1.410 . S
C1619 C1627 1.503 . S
C1620 C1619 1.410 . S
C1620 C1621 1.392 . S
C1620 C1623 1.511 . S
C1621 C1617 1.376 . S
C1621 C1620 1.392 . S
C1621 H1633 0.929 . S
C1622 C1618 1.531 . S
C1622 H1634 0.960 . S
C1622 H1635 0.962 . S
C1622 H1636 0.960 . S
C1623 C1620 1.511 . S
C1623 H1637 0.961 . S
C1623 H1638 0.961 . S
C1623 H1639 0.961 . S
C1624 C1625 1.370 . S
C1624 C1626 1.363 . S
C1624 H1640 0.931 . S
C1625 C1624 1.370 . S
C1625 C1629 1.408 . S
C1626 C1624 1.363 . S
C1626 C1627 1.370 . S
C1626 C1630 1.524 . S
C1627 C1619 1.503 . S
C1627 C1626 1.370 . S
C1627 C1628 1.403 . S
C1628 C1627 1.403 . S
C1628 C1629 1.404 . S
C1628 C1631 1.539 . S
C1629 C1625 1.408 . S
C1629 C1628 1.404 . S
C1629 H1641 0.930 . S
C1630 C1626 1.524 . S
C1630 H1642 0.956 . S
C1630 H1643 0.961 . S
C1630 H1644 0.961 . S
C1631 C1628 1.539 . S
C1631 H1645 0.958 . S
C1631 H1646 0.961 . S
C1631 H1647 0.960 . S
H1632 C1616 0.931 . S
H1633 C1621 0.929 . S
H1634 C1622 0.960 . S
H1635 C1622 0.962 . S
H1636 C1622 0.960 . S
H1637 C1623 0.961 . S
H1638 C1623 0.961 . S
H1639 C1623 0.961 . S
H1640 C1624 0.931 . S
H1641 C1629 0.930 . S
H1642 C1630 0.956 . S
H1643 C1630 0.961 . S
H1644 C1630 0.961 . S
H1645 C1631 0.958 . S
H1646 C1631 0.961 . S
H1647 C1631 0.960 . S
C1648 C1649 1.391 . S
C1648 C1650 1.394 . S
C1648 H1664 0.931 . S
C1649 C1648 1.391 . S
C1649 C1653 1.376 . S
C1650 C1648 1.394 . S
C1650 C1651 1.369 . S
C1650 C1654 1.531 . S
C1651 C1650 1.369 . S
C1651 C1652 1.410 . S
C1651 C1659 1.503 . S
C1652 C1651 1.410 . S
C1652 C1653 1.392 . S
C1652 C1655 1.511 . S
C1653 C1649 1.376 . S
C1653 C1652 1.392 . S
C1653 H1665 0.929 . S
C1654 C1650 1.531 . S
C1654 H1666 0.960 . S
C1654 H1667 0.962 . S
C1654 H1668 0.960 . S
C1655 C1652 1.511 . S
C1655 H1669 0.961 . S
C1655 H1670 0.961 . S
C1655 H1671 0.961 . S
C1656 C1657 1.370 . S
C1656 C1658 1.363 . S
C1656 H1672 0.931 . S
C1657 C1656 1.370 . S
C1657 C1661 1.408 . S
C1658 C1656 1.363 . S
C1658 C1659 1.370 . S
C1658 C1662 1.524 . S
C1659 C1651 1.503 . S
C1659 C1658 1.370 . S
C1659 C1660 1.403 . S
C1660 C1659 1.403 . S
C1660 C1661 1.404 . S
C1660 C1663 1.539 . S
C1661 C1657 1.408 . S
C1661 C1660 1.404 . S
C1661 H1673 0.930 . S
C1662 C1658 1.524 . S
C1662 H1674 0.956 . S
C1662 H1675 0.961 . S
C1662 H1676 0.961 . S
C1663 C1660 1.539 . S
C1663 H1677 0.958 . S
C1663 H1678 0.961 . S
C1663 H1679 0.960 . S
H1664 C1648 0.931 . S
H1665 C1653 0.929 . S
H1666 C1654 0.960 . S
H1667 C1654 0.962 . S
H1668 C1654 0.960 . S
H1669 C1655 0.961 . S
H1670 C1655 0.961 . S
H1671 C1655 0.961 . S
H1672 C1656 0.931 . S
H1673 C1661 0.930 . S
H1674 C1662 0.956 . S
H1675 C1662 0.961 . S
H1676 C1662 0.961 . S
H1677 C1663 0.958 . S
H1678 C1663 0.961 . S
H1679 C1663 0.960 . S
C1680 C1681 1.391 . S
C1680 C1682 1.394 . S
C1680 H1696 0.931 . S
C1681 C1680 1.391 . S
C1681 C1685 1.376 . S
C1682 C1680 1.394 . S
C1682 C1683 1.369 . S
C1682 C1686 1.531 . S
C1683 C1682 1.369 . S
C1683 C1684 1.410 . S
C1683 C1691 1.503 . S
C1684 C1683 1.410 . S
C1684 C1685 1.392 . S
C1684 C1687 1.511 . S
C1685 C1681 1.376 . S
C1685 C1684 1.392 . S
C1685 H1697 0.929 . S
C1686 C1682 1.531 . S
C1686 H1698 0.960 . S
C1686 H1699 0.962 . S
C1686 H1700 0.960 . S
C1687 C1684 1.511 . S
C1687 H1701 0.961 . S
C1687 H1702 0.961 . S
C1687 H1703 0.961 . S
C1688 C1689 1.370 . S
C1688 C1690 1.363 . S
C1688 H1704 0.931 . S
C1689 C1688 1.370 . S
C1689 C1693 1.408 . S
C1690 C1688 1.363 . S
C1690 C1691 1.370 . S
C1690 C1694 1.524 . S
C1691 C1683 1.503 . S
C1691 C1690 1.370 . S
C1691 C1692 1.403 . S
C1692 C1691 1.403 . S
C1692 C1693 1.404 . S
C1692 C1695 1.539 . S
C1693 C1689 1.408 . S
C1693 C1692 1.404 . S
C1693 H1705 0.930 . S
C1694 C1690 1.524 . S
C1694 H1706 0.956 . S
C1694 H1707 0.961 . S
C1694 H1708 0.961 . S
C1695 C1692 1.539 . S
C1695 H1709 0.958 . S
C1695 H1710 0.961 . S
C1695 H1711 0.960 . S
H1696 C1680 0.931 . S
H1697 C1685 0.929 . S
H1698 C1686 0.960 . S
H1699 C1686 0.962 . S
H1700 C1686 0.960 . S
H1701 C1687 0.961 . S
H1702 C1687 0.961 . S
H1703 C1687 0.961 . S
H1704 C1688 0.931 . S
H1705 C1693 0.930 . S
H1706 C1694 0.956 . S
H1707 C1694 0.961 . S
H1708 C1694 0.961 . S
H1709 C1695 0.958 . S
H1710 C1695 0.961 . S
H1711 C1695 0.960 . S
C1712 C1713 1.391 . S
C1712 C1714 1.394 . S
C1712 H1728 0.931 . S
C1713 C1712 1.391 . S
C1713 C1717 1.376 . S
C1714 C1712 1.394 . S
C1714 C1715 1.369 . S
C1714 C1718 1.531 . S
C1715 C1714 1.369 . S
C1715 C1716 1.410 . S
C1715 C1723 1.503 . S
C1716 C1715 1.410 . S
C1716 C1717 1.392 . S
C1716 C1719 1.511 . S
C1717 C1713 1.376 . S
C1717 C1716 1.392 . S
C1717 H1729 0.929 . S
C1718 C1714 1.531 . S
C1718 H1730 0.960 . S
C1718 H1731 0.962 . S
C1718 H1732 0.960 . S
C1719 C1716 1.511 . S
C1719 H1733 0.961 . S
C1719 H1734 0.961 . S
C1719 H1735 0.961 . S
C1720 C1721 1.370 . S
C1720 C1722 1.363 . S
C1720 H1736 0.931 . S
C1721 C1720 1.370 . S
C1721 C1725 1.408 . S
C1722 C1720 1.363 . S
C1722 C1723 1.370 . S
C1722 C1726 1.524 . S
C1723 C1715 1.503 . S
C1723 C1722 1.370 . S
C1723 C1724 1.403 . S
C1724 C1723 1.403 . S
C1724 C1725 1.404 . S
C1724 C1727 1.539 . S
C1725 C1721 1.408 . S
C1725 C1724 1.404 . S
C1725 H1737 0.930 . S
C1726 C1722 1.524 . S
C1726 H1738 0.956 . S
C1726 H1739 0.961 . S
C1726 H1740 0.961 . S
C1727 C1724 1.539 . S
C1727 H1741 0.958 . S
C1727 H1742 0.961 . S
C1727 H1743 0.960 . S
H1728 C1712 0.931 . S
H1729 C1717 0.929 . S
H1730 C1718 0.960 . S
H1731 C1718 0.962 . S
H1732 C1718 0.960 . S
H1733 C1719 0.961 . S
H1734 C1719 0.961 . S
H1735 C1719 0.961 . S
H1736 C1720 0.931 . S
H1737 C1725 0.930 . S
H1738 C1726 0.956 . S
H1739 C1726 0.961 . S
H1740 C1726 0.961 . S
H1741 C1727 0.958 . S
H1742 C1727 0.961 . S
H1743 C1727 0.960 . S
C1744 C1745 1.391 . S
C1744 C1746 1.394 . S
C1744 H1760 0.931 . S
C1745 C1744 1.391 . S
C1745 C1749 1.376 . S
C1746 C1744 1.394 . S
C1746 C1747 1.369 . S
C1746 C1750 1.531 . S
C1747 C1746 1.369 . S
C1747 C1748 1.410 . S
C1747 C1755 1.503 . S
C1748 C1747 1.410 . S
C1748 C1749 1.392 . S
C1748 C1751 1.511 . S
C1749 C1745 1.376 . S
C1749 C1748 1.392 . S
C1749 H1761 0.929 . S
C1750 C1746 1.531 . S
C1750 H1762 0.960 . S
C1750 H1763 0.962 . S
C1750 H1764 0.960 . S
C1751 C1748 1.511 . S
C1751 H1765 0.961 . S
C1751 H1766 0.961 . S
C1751 H1767 0.961 . S
C1752 C1753 1.370 . S
C1752 C1754 1.363 . S
C1752 H1768 0.931 . S
C1753 C1752 1.370 . S
C1753 C1757 1.408 . S
C1754 C1752 1.363 . S
C1754 C1755 1.370 . S
C1754 C1758 1.524 . S
C1755 C1747 1.503 . S
C1755 C1754 1.370 . S
C1755 C1756 1.403 . S
C1756 C1755 1.403 . S
C1756 C1757 1.404 . S
C1756 C1759 1.539 . S
C1757 C1753 1.408 . S
C1757 C1756 1.404 . S
C1757 H1769 0.930 . S
C1758 C1754 1.524 . S
C1758 H1770 0.956 . S
C1758 H1771 0.961 . S
C1758 H1772 0.961 . S
C1759 C1756 1.539 . S
C1759 H1773 0.944 1_455 S
C1759 H1774 0.936 1_455 S
C1759 H1775 0.960 . S
H1760 C1744 0.931 . S
H1761 C1749 0.929 . S
H1762 C1750 0.960 . S
H1763 C1750 0.962 . S
H1764 C1750 0.960 . S
H1765 C1751 0.961 . S
H1766 C1751 0.961 . S
H1767 C1751 0.961 . S
H1768 C1752 0.931 . S
H1769 C1757 0.930 . S
H1770 C1758 0.956 . S
H1771 C1758 0.961 . S
H1772 C1758 0.961 . S
H1773 C1759 0.944 1_655 S
H1774 C1759 0.936 1_655 S
H1775 C1759 0.960 . S
C1776 C1777 1.391 . S
C1776 C1778 1.394 . S
C1776 H1792 0.931 . S
C1777 C1776 1.391 . S
C1777 C1781 1.376 . S
C1778 C1776 1.394 . S
C1778 C1779 1.369 . S
C1778 C1782 1.531 . S
C1779 C1778 1.369 . S
C1779 C1780 1.410 . S
C1779 C1787 1.503 . S
C1780 C1779 1.410 . S
C1780 C1781 1.392 . S
C1780 C1783 1.511 . S
C1781 C1777 1.376 . S
C1781 C1780 1.392 . S
C1781 H1793 0.929 . S
C1782 C1778 1.531 . S
C1782 H1794 0.960 . S
C1782 H1795 0.962 . S
C1782 H1796 0.960 . S
C1783 C1780 1.511 . S
C1783 H1797 0.961 . S
C1783 H1798 0.961 . S
C1783 H1799 0.961 . S
C1784 C1785 1.370 . S
C1784 C1786 1.363 . S
C1784 H1800 0.931 . S
C1785 C1784 1.370 . S
C1785 C1789 1.408 . S
C1786 C1784 1.363 . S
C1786 C1787 1.370 . S
C1786 C1790 1.524 . S
C1787 C1779 1.503 . S
C1787 C1786 1.370 . S
C1787 C1788 1.403 . S
C1788 C1787 1.403 . S
C1788 C1789 1.404 . S
C1788 C1791 1.539 . S
C1789 C1785 1.408 . S
C1789 C1788 1.404 . S
C1789 H1801 0.930 . S
C1790 C1786 1.524 . S
C1790 H1802 0.956 . S
C1790 H1803 0.961 . S
C1790 H1804 0.961 . S
C1791 C1788 1.539 . S
C1791 H1805 0.958 . S
C1791 H1806 0.961 . S
C1791 H1807 0.960 . S
H1792 C1776 0.931 . S
H1793 C1781 0.929 . S
H1794 C1782 0.960 . S
H1795 C1782 0.962 . S
H1796 C1782 0.960 . S
H1797 C1783 0.961 . S
H1798 C1783 0.961 . S
H1799 C1783 0.961 . S
H1800 C1784 0.931 . S
H1801 C1789 0.930 . S
H1802 C1790 0.956 . S
H1803 C1790 0.961 . S
H1804 C1790 0.961 . S
H1805 C1791 0.958 . S
H1806 C1791 0.961 . S
H1807 C1791 0.960 . S
C1808 C1809 1.391 . S
C1808 C1810 1.394 . S
C1808 H1824 0.931 . S
C1809 C1808 1.391 . S
C1809 C1813 1.376 . S
C1810 C1808 1.394 . S
C1810 C1811 1.369 . S
C1810 C1814 1.531 . S
C1811 C1810 1.369 . S
C1811 C1812 1.410 . S
C1811 C1819 1.503 . S
C1812 C1811 1.410 . S
C1812 C1813 1.392 . S
C1812 C1815 1.511 . S
C1813 C1809 1.376 . S
C1813 C1812 1.392 . S
C1813 H1825 0.929 . S
C1814 C1810 1.531 . S
C1814 H1826 0.960 . S
C1814 H1827 0.962 . S
C1814 H1828 0.960 . S
C1815 C1812 1.511 . S
C1815 H1829 0.961 . S
C1815 H1830 0.961 . S
C1815 H1831 0.961 . S
C1816 C1817 1.370 . S
C1816 C1818 1.363 . S
C1816 H1832 0.931 . S
C1817 C1816 1.370 . S
C1817 C1821 1.408 . S
C1818 C1816 1.363 . S
C1818 C1819 1.370 . S
C1818 C1822 1.524 . S
C1819 C1811 1.503 . S
C1819 C1818 1.370 . S
C1819 C1820 1.403 . S
C1820 C1819 1.403 . S
C1820 C1821 1.404 . S
C1820 C1823 1.539 . S
C1821 C1817 1.408 . S
C1821 C1820 1.404 . S
C1821 H1833 0.930 . S
C1822 C1818 1.524 . S
C1822 H1834 0.956 . S
C1822 H1835 0.961 . S
C1822 H1836 0.961 . S
C1823 C1820 1.539 . S
C1823 H1837 0.958 . S
C1823 H1838 0.961 . S
C1823 H1839 0.960 . S
H1824 C1808 0.931 . S
H1825 C1813 0.929 . S
H1826 C1814 0.960 . S
H1827 C1814 0.962 . S
H1828 C1814 0.960 . S
H1829 C1815 0.961 . S
H1830 C1815 0.961 . S
H1831 C1815 0.961 . S
H1832 C1816 0.931 . S
H1833 C1821 0.930 . S
H1834 C1822 0.956 . S
H1835 C1822 0.961 . S
H1836 C1822 0.961 . S
H1837 C1823 0.958 . S
H1838 C1823 0.961 . S
H1839 C1823 0.960 . S
C1840 C1841 1.391 . S
C1840 C1842 1.394 . S
C1840 H1856 0.931 . S
C1841 C1840 1.391 . S
C1841 C1845 1.376 . S
C1842 C1840 1.394 . S
C1842 C1843 1.369 . S
C1842 C1846 1.531 . S
C1843 C1842 1.369 . S
C1843 C1844 1.410 . S
C1843 C1851 1.503 . S
C1844 C1843 1.410 . S
C1844 C1845 1.392 . S
C1844 C1847 1.511 . S
C1845 C1841 1.376 . S
C1845 C1844 1.392 . S
C1845 H1857 0.929 . S
C1846 C1842 1.531 . S
C1846 H1858 0.960 . S
C1846 H1859 0.962 . S
C1846 H1860 0.960 . S
C1847 C1844 1.511 . S
C1847 H1861 0.961 . S
C1847 H1862 0.961 . S
C1847 H1863 0.961 . S
C1848 C1849 1.370 . S
C1848 C1850 1.363 . S
C1848 H1864 0.931 . S
C1849 C1848 1.370 . S
C1849 C1853 1.408 . S
C1850 C1848 1.363 . S
C1850 C1851 1.370 . S
C1850 C1854 1.524 . S
C1851 C1843 1.503 . S
C1851 C1850 1.370 . S
C1851 C1852 1.403 . S
C1852 C1851 1.403 . S
C1852 C1853 1.404 . S
C1852 C1855 1.539 . S
C1853 C1849 1.408 . S
C1853 C1852 1.404 . S
C1853 H1865 0.930 . S
C1854 C1850 1.524 . S
C1854 H1866 0.956 . S
C1854 H1867 0.961 . S
C1854 H1868 0.961 . S
C1855 C1852 1.539 . S
C1855 H1869 0.958 . S
C1855 H1870 0.961 . S
C1855 H1871 0.960 . S
H1856 C1840 0.931 . S
H1857 C1845 0.929 . S
H1858 C1846 0.960 . S
H1859 C1846 0.962 . S
H1860 C1846 0.960 . S
H1861 C1847 0.961 . S
H1862 C1847 0.961 . S
H1863 C1847 0.961 . S
H1864 C1848 0.931 . S
H1865 C1853 0.930 . S
H1866 C1854 0.956 . S
H1867 C1854 0.961 . S
H1868 C1854 0.961 . S
H1869 C1855 0.958 . S
H1870 C1855 0.961 . S
H1871 C1855 0.960 . S
C1872 C1873 1.391 . S
C1872 C1874 1.394 . S
C1872 H1888 0.931 . S
C1873 C1872 1.391 . S
C1873 C1877 1.376 1_655 S
C1874 C1872 1.394 . S
C1874 C1875 1.369 1_655 S
C1874 C1878 1.531 . S
C1875 C1874 1.369 1_455 S
C1875 C1876 1.410 . S
C1875 C1883 1.503 . S
C1876 C1875 1.410 . S
C1876 C1877 1.392 . S
C1876 C1879 1.511 . S
C1877 C1873 1.376 1_455 S
C1877 C1876 1.392 . S
C1877 H1889 0.929 . S
C1878 C1874 1.531 . S
C1878 H1890 0.960 . S
C1878 H1891 0.962 . S
C1878 H1892 0.960 . S
C1879 C1876 1.511 . S
C1879 H1893 0.961 . S
C1879 H1894 0.961 . S
C1879 H1895 0.961 . S
C1880 C1881 1.337 1_655 S
C1880 C1882 1.372 . S
C1880 H1896 0.957 . S
C1881 C1880 1.337 1_455 S
C1881 C1885 1.408 . S
C1882 C1880 1.372 . S
C1882 C1883 1.370 1_655 S
C1882 C1886 1.524 . S
C1883 C1875 1.503 . S
C1883 C1882 1.370 1_455 S
C1883 C1884 1.403 . S
C1884 C1883 1.403 . S
C1884 C1885 1.404 . S
C1884 C1887 1.539 . S
C1885 C1881 1.408 . S
C1885 C1884 1.404 . S
C1885 H1897 0.930 . S
C1886 C1882 1.524 . S
C1886 H1898 0.956 . S
C1886 H1899 0.961 . S
C1886 H1900 0.961 . S
C1887 C1884 1.539 . S
C1887 H1901 0.958 . S
C1887 H1902 0.961 . S
C1887 H1903 0.960 . S
H1888 C1872 0.931 . S
H1889 C1877 0.929 . S
H1890 C1878 0.960 . S
H1891 C1878 0.962 . S
H1892 C1878 0.960 . S
H1893 C1879 0.961 . S
H1894 C1879 0.961 . S
H1895 C1879 0.961 . S
H1896 C1880 0.957 . S
H1897 C1885 0.930 . S
H1898 C1886 0.956 . S
H1899 C1886 0.961 . S
H1900 C1886 0.961 . S
H1901 C1887 0.958 . S
H1902 C1887 0.961 . S
H1903 C1887 0.960 . S
C1904 C1905 1.391 . S
C1904 C1906 1.394 . S
C1904 H1920 0.931 . S
C1905 C1904 1.391 . S
C1905 C1909 1.376 . S
C1906 C1904 1.394 . S
C1906 C1907 1.369 . S
C1906 C1910 1.531 . S
C1907 C1906 1.369 . S
C1907 C1908 1.410 . S
C1907 C1915 1.503 . S
C1908 C1907 1.410 . S
C1908 C1909 1.392 . S
C1908 C1911 1.511 . S
C1909 C1905 1.376 . S
C1909 C1908 1.392 . S
C1909 H1921 0.929 . S
C1910 C1906 1.531 . S
C1910 H1922 0.960 . S
C1910 H1923 0.962 . S
C1910 H1924 0.960 . S
C1911 C1908 1.511 . S
C1911 H1925 0.961 . S
C1911 H1926 0.961 . S
C1911 H1927 0.961 . S
C1912 C1913 1.370 . S
C1912 C1914 1.363 . S
C1912 H1928 0.931 . S
C1913 C1912 1.370 . S
C1913 C1917 1.408 . S
C1914 C1912 1.363 . S
C1914 C1915 1.370 . S
C1914 C1918 1.524 . S
C1915 C1907 1.503 . S
C1915 C1914 1.370 . S
C1915 C1916 1.403 . S
C1916 C1915 1.403 . S
C1916 C1917 1.404 . S
C1916 C1919 1.539 . S
C1917 C1913 1.408 . S
C1917 C1916 1.404 . S
C1917 H1929 0.930 . S
C1918 C1914 1.524 . S
C1918 H1930 0.956 . S
C1918 H1931 0.961 . S
C1918 H1932 0.961 . S
C1919 C1916 1.539 . S
C1919 H1933 0.958 . S
C1919 H1934 0.961 . S
C1919 H1935 0.960 . S
H1920 C1904 0.931 . S
H1921 C1909 0.929 . S
H1922 C1910 0.960 . S
H1923 C1910 0.962 . S
H1924 C1910 0.960 . S
H1925 C1911 0.961 . S
H1926 C1911 0.961 . S
H1927 C1911 0.961 . S
H1928 C1912 0.931 . S
H1929 C1917 0.930 . S
H1930 C1918 0.956 . S
H1931 C1918 0.961 . S
H1932 C1918 0.961 . S
H1933 C1919 0.958 . S
H1934 C1919 0.961 . S
H1935 C1919 0.960 . S
C1936 C1937 1.391 . S
C1936 C1938 1.394 . S
C1936 H1952 0.931 . S
C1937 C1936 1.391 . S
C1937 C1941 1.376 . S
C1938 C1936 1.394 . S
C1938 C1939 1.369 . S
C1938 C1942 1.531 . S
C1939 C1938 1.369 . S
C1939 C1940 1.410 . S
C1939 C1947 1.503 . S
C1940 C1939 1.410 . S
C1940 C1941 1.392 . S
C1940 C1943 1.511 . S
C1941 C1937 1.376 . S
C1941 C1940 1.392 . S
C1941 H1953 0.929 . S
C1942 C1938 1.531 . S
C1942 H1954 0.960 . S
C1942 H1955 0.962 . S
C1942 H1956 0.960 . S
C1943 C1940 1.511 . S
C1943 H1957 0.961 . S
C1943 H1958 0.961 . S
C1943 H1959 0.961 . S
C1944 C1945 1.370 . S
C1944 C1946 1.363 . S
C1944 H1960 0.931 . S
C1945 C1944 1.370 . S
C1945 C1949 1.408 . S
C1946 C1944 1.363 . S
C1946 C1947 1.370 1_554 S
C1946 C1950 1.524 . S
C1947 C1939 1.503 . S
C1947 C1946 1.370 1_556 S
C1947 C1948 1.403 . S
C1948 C1947 1.403 . S
C1948 C1949 1.404 1_556 S
C1948 C1951 1.539 . S
C1949 C1945 1.408 . S
C1949 C1948 1.404 1_554 S
C1949 H1961 0.930 . S
C1950 C1946 1.524 . S
C1950 H1962 0.956 . S
C1950 H1963 0.961 . S
C1950 H1964 0.961 . S
C1951 C1948 1.539 . S
C1951 H1965 0.958 . S
C1951 H1966 0.961 . S
C1951 H1967 0.960 . S
H1952 C1936 0.931 . S
H1953 C1941 0.929 . S
H1954 C1942 0.960 . S
H1955 C1942 0.962 . S
H1956 C1942 0.960 . S
H1957 C1943 0.961 . S
H1958 C1943 0.961 . S
H1959 C1943 0.961 . S
H1960 C1944 0.931 . S
H1961 C1949 0.930 . S
H1962 C1950 0.956 . S
H1963 C1950 0.961 . S
H1964 C1950 0.961 . S
H1965 C1951 0.958 . S
H1966 C1951 0.961 . S
H1967 C1951 0.960 . S
C1968 C1969 1.421 . S
C1968 C1970 1.394 . S
C1968 H1984 0.931 . S
C1969 C1968 1.421 . S
C1969 C1973 1.386 1_655 S
C1970 C1968 1.394 . S
C1970 C1971 1.369 . S
C1970 C1974 1.531 . S
C1971 C1970 1.369 . S
C1971 C1972 1.410 . S
C1971 C1979 1.503 . S
C1972 C1971 1.410 . S
C1972 C1973 1.392 1_655 S
C1972 C1975 1.511 . S
C1973 C1969 1.386 1_455 S
C1973 C1972 1.392 1_455 S
C1973 H1985 0.929 . S
C1974 C1970 1.531 . S
C1974 H1986 0.960 . S
C1974 H1987 0.962 . S
C1974 H1988 0.960 . S
C1975 C1972 1.511 . S
C1975 H1989 0.961 . S
C1975 H1990 0.961 . S
C1975 H1991 0.961 . S
C1976 C1977 1.370 . S
C1976 C1978 1.363 . S
C1976 H1992 0.931 . S
C1977 C1976 1.370 . S
C1977 C1981 1.408 . S
C1978 C1976 1.363 . S
C1978 C1979 1.370 . S
C1978 C1982 1.524 . S
C1979 C1971 1.503 . S
C1979 C1978 1.370 . S
C1979 C1980 1.403 . S
C1980 C1979 1.403 . S
C1980 C1981 1.404 . S
C1980 C1983 1.539 . S
C1981 C1977 1.408 . S
C1981 C1980 1.404 . S
C1981 H1993 0.930 . S
C1982 C1978 1.524 . S
C1982 H1994 0.956 . S
C1982 H1995 0.961 . S
C1982 H1996 0.961 . S
C1983 C1980 1.539 . S
C1983 H1997 0.958 . S
C1983 H1998 0.961 . S
C1983 H1999 0.960 . S
H1984 C1968 0.931 . S
H1985 C1973 0.929 . S
H1986 C1974 0.960 . S
H1987 C1974 0.962 . S
H1988 C1974 0.960 . S
H1989 C1975 0.961 . S
H1990 C1975 0.961 . S
H1991 C1975 0.961 . S
H1992 C1976 0.931 . S
H1993 C1981 0.930 . S
H1994 C1982 0.956 . S
H1995 C1982 0.961 . S
H1996 C1982 0.961 . S
H1997 C1983 0.958 . S
H1998 C1983 0.961 . S
H1999 C1983 0.960 . S
C2000 C2001 1.391 . S
C2000 C2002 1.394 . S
C2000 H2016 0.931 . S
C2001 C2000 1.391 . S
C2001 C2005 1.376 . S
C2002 C2000 1.394 . S
C2002 C2003 1.369 . S
C2002 C2006 1.531 . S
C2003 C2002 1.369 . S
C2003 C2004 1.410 . S
C2003 C2011 1.503 . S
C2004 C2003 1.410 . S
C2004 C2005 1.392 . S
C2004 C2007 1.506 1_545 S
C2005 C2001 1.376 . S
C2005 C2004 1.392 . S
C2005 H2017 0.929 . S
C2006 C2002 1.531 . S
C2006 H2018 0.960 . S
C2006 H2019 0.962 . S
C2006 H2020 0.960 . S
C2007 C2004 1.506 1_565 S
C2007 H2021 0.966 . S
C2007 H2022 0.964 . S
C2007 H2023 0.957 1_565 S
C2008 C2009 1.370 . S
C2008 C2010 1.363 . S
C2008 H2024 0.931 1_556 S
C2009 C2008 1.370 . S
C2009 C2013 1.408 . S
C2010 C2008 1.363 . S
C2010 C2011 1.370 . S
C2010 C2014 1.524 . S
C2011 C2003 1.503 . S
C2011 C2010 1.370 . S
C2011 C2012 1.403 . S
C2012 C2011 1.403 . S
C2012 C2013 1.404 . S
C2012 C2015 1.539 . S
C2013 C2009 1.408 . S
C2013 C2012 1.404 . S
C2013 H2025 0.930 . S
C2014 C2010 1.524 . S
C2014 H2026 0.956 . S
C2014 H2027 0.961 . S
C2014 H2028 0.961 . S
C2015 C2012 1.539 . S
C2015 H2029 0.958 . S
C2015 H2030 0.961 . S
C2015 H2031 0.960 . S
H2016 C2000 0.931 . S
H2017 C2005 0.929 . S
H2018 C2006 0.960 . S
H2019 C2006 0.962 . S
H2020 C2006 0.960 . S
H2021 C2007 0.966 . S
H2022 C2007 0.964 . S
H2023 C2007 0.957 1_545 S
H2024 C2008 0.931 1_554 S
H2025 C2013 0.930 . S
H2026 C2014 0.956 . S
H2027 C2014 0.961 . S
H2028 C2014 0.961 . S
H2029 C2015 0.958 . S
H2030 C2015 0.961 . S
H2031 C2015 0.960 . S
C2032 C2033 1.391 . S
C2032 C2034 1.394 . S
C2032 H2048 0.931 . S
C2033 C2032 1.391 . S
C2033 C2037 1.376 . S
C2034 C2032 1.394 . S
C2034 C2035 1.369 . S
C2034 C2038 1.531 . S
C2035 C2034 1.369 . S
C2035 C2036 1.410 . S
C2035 C2043 1.503 . S
C2036 C2035 1.410 . S
C2036 C2037 1.392 . S
C2036 C2039 1.511 . S
C2037 C2033 1.376 . S
C2037 C2036 1.392 . S
C2037 H2049 0.929 . S
C2038 C2034 1.531 . S
C2038 H2050 0.960 . S
C2038 H2051 0.962 . S
C2038 H2052 0.960 . S
C2039 C2036 1.511 . S
C2039 H2053 0.961 . S
C2039 H2054 0.961 . S
C2039 H2055 0.961 . S
C2040 C2041 1.370 . S
C2040 C2042 1.363 . S
C2040 H2056 0.931 . S
C2041 C2040 1.370 . S
C2041 C2045 1.408 . S
C2042 C2040 1.363 . S
C2042 C2043 1.370 . S
C2042 C2046 1.524 . S
C2043 C2035 1.503 . S
C2043 C2042 1.370 . S
C2043 C2044 1.403 . S
C2044 C2043 1.403 . S
C2044 C2045 1.404 . S
C2044 C2047 1.539 . S
C2045 C2041 1.408 . S
C2045 C2044 1.404 . S
C2045 H2057 0.930 . S
C2046 C2042 1.524 . S
C2046 H2058 0.956 . S
C2046 H2059 0.961 . S
C2046 H2060 0.961 . S
C2047 C2044 1.539 . S
C2047 H2061 0.958 . S
C2047 H2062 0.961 . S
C2047 H2063 0.960 . S
H2048 C2032 0.931 . S
H2049 C2037 0.929 . S
H2050 C2038 0.960 . S
H2051 C2038 0.962 . S
H2052 C2038 0.960 . S
H2053 C2039 0.961 . S
H2054 C2039 0.961 . S
H2055 C2039 0.961 . S
H2056 C2040 0.931 . S
H2057 C2045 0.930 . S
H2058 C2046 0.956 . S
H2059 C2046 0.961 . S
H2060 C2046 0.961 . S
H2061 C2047 0.958 . S
H2062 C2047 0.961 . S
H2063 C2047 0.960 . S
C2064 C2065 1.391 . S
C2064 C2066 1.394 . S
C2064 H2080 0.931 . S
C2065 C2064 1.391 . S
C2065 C2069 1.376 . S
C2066 C2064 1.394 . S
C2066 C2067 1.369 . S
C2066 C2070 1.502 1_545 S
C2067 C2066 1.369 . S
C2067 C2068 1.410 . S
C2067 C2075 1.503 . S
C2068 C2067 1.410 . S
C2068 C2069 1.392 . S
C2068 C2071 1.511 . S
C2069 C2065 1.376 . S
C2069 C2068 1.392 . S
C2069 H2081 0.929 . S
C2070 C2066 1.502 1_565 S
C2070 H2082 0.995 . S
C2070 H2083 0.931 1_565 S
C2070 H2084 0.987 . S
C2071 C2068 1.511 . S
C2071 H2085 0.961 . S
C2071 H2086 0.961 . S
C2071 H2087 0.961 . S
C2072 C2073 1.370 . S
C2072 C2074 1.363 . S
C2072 H2088 0.931 . S
C2073 C2072 1.370 . S
C2073 C2077 1.408 . S
C2074 C2072 1.363 . S
C2074 C2075 1.370 . S
C2074 C2078 1.524 . S
C2075 C2067 1.503 . S
C2075 C2074 1.370 . S
C2075 C2076 1.403 . S
C2076 C2075 1.403 . S
C2076 C2077 1.404 . S
C2076 C2079 1.539 1_545 S
C2077 C2073 1.408 . S
C2077 C2076 1.404 . S
C2077 H2089 0.930 1_545 S
C2078 C2074 1.524 . S
C2078 H2090 0.956 . S
C2078 H2091 0.961 . S
C2078 H2092 0.961 . S
C2079 C2076 1.539 1_565 S
C2079 H2093 0.958 . S
C2079 H2094 0.961 . S
C2079 H2095 0.960 . S
H2080 C2064 0.931 . S
H2081 C2069 0.929 . S
H2082 C2070 0.995 . S
H2083 C2070 0.931 1_545 S
H2084 C2070 0.987 . S
H2085 C2071 0.961 . S
H2086 C2071 0.961 . S
H2087 C2071 0.961 . S
H2088 C2072 0.931 . S
H2089 C2077 0.930 1_565 S
H2090 C2078 0.956 . S
H2091 C2078 0.961 . S
H2092 C2078 0.961 . S
H2093 C2079 0.958 . S
H2094 C2079 0.961 . S
H2095 C2079 0.960 . S
C2096 C2097 1.391 . S
C2096 C2098 1.394 . S
C2096 H2112 0.931 . S
C2097 C2096 1.391 . S
C2097 C2101 1.376 . S
C2098 C2096 1.394 . S
C2098 C2099 1.369 . S
C2098 C2102 1.531 . S
C2099 C2098 1.369 . S
C2099 C2100 1.410 . S
C2099 C2107 1.503 . S
C2100 C2099 1.410 . S
C2100 C2101 1.392 . S
C2100 C2103 1.511 . S
C2101 C2097 1.376 . S
C2101 C2100 1.392 . S
C2101 H2113 0.929 . S
C2102 C2098 1.531 . S
C2102 H2114 0.960 . S
C2102 H2115 0.962 . S
C2102 H2116 0.960 . S
C2103 C2100 1.511 . S
C2103 H2117 0.961 . S
C2103 H2118 0.961 . S
C2103 H2119 0.961 . S
C2104 C2105 1.370 . S
C2104 C2106 1.363 . S
C2104 H2120 0.931 . S
C2105 C2104 1.370 . S
C2105 C2109 1.408 . S
C2106 C2104 1.363 . S
C2106 C2107 1.370 . S
C2106 C2110 1.524 . S
C2107 C2099 1.503 . S
C2107 C2106 1.370 . S
C2107 C2108 1.403 . S
C2108 C2107 1.403 . S
C2108 C2109 1.404 . S
C2108 C2111 1.539 . S
C2109 C2105 1.408 . S
C2109 C2108 1.404 . S
C2109 H2121 0.930 . S
C2110 C2106 1.524 . S
C2110 H2122 0.956 . S
C2110 H2123 0.961 . S
C2110 H2124 0.961 . S
C2111 C2108 1.539 . S
C2111 H2125 0.958 . S
C2111 H2126 0.961 . S
C2111 H2127 0.960 . S
H2112 C2096 0.931 . S
H2113 C2101 0.929 . S
H2114 C2102 0.960 . S
H2115 C2102 0.962 . S
H2116 C2102 0.960 . S
H2117 C2103 0.961 . S
H2118 C2103 0.961 . S
H2119 C2103 0.961 . S
H2120 C2104 0.931 . S
H2121 C2109 0.930 . S
H2122 C2110 0.956 . S
H2123 C2110 0.961 . S
H2124 C2110 0.961 . S
H2125 C2111 0.958 . S
H2126 C2111 0.961 . S
H2127 C2111 0.960 . S
C2128 C2129 1.391 . S
C2128 C2130 1.394 . S
C2128 H2144 0.931 . S
C2129 C2128 1.391 . S
C2129 C2133 1.376 . S
C2130 C2128 1.394 . S
C2130 C2131 1.369 . S
C2130 C2134 1.531 . S
C2131 C2130 1.369 . S
C2131 C2132 1.410 . S
C2131 C2139 1.503 . S
C2132 C2131 1.410 . S
C2132 C2133 1.392 . S
C2132 C2135 1.511 . S
C2133 C2129 1.376 . S
C2133 C2132 1.392 . S
C2133 H2145 0.929 . S
C2134 C2130 1.531 . S
C2134 H2146 0.960 . S
C2134 H2147 0.962 . S
C2134 H2148 0.960 . S
C2135 C2132 1.511 . S
C2135 H2149 0.961 . S
C2135 H2150 0.961 . S
C2135 H2151 0.961 1_545 S
C2136 C2137 1.370 . S
C2136 C2138 1.363 . S
C2136 H2152 0.931 . S
C2137 C2136 1.370 . S
C2137 C2141 1.408 . S
C2138 C2136 1.363 . S
C2138 C2139 1.370 . S
C2138 C2142 1.524 . S
C2139 C2131 1.503 . S
C2139 C2138 1.370 . S
C2139 C2140 1.403 . S
C2140 C2139 1.403 . S
C2140 C2141 1.404 . S
C2140 C2143 1.539 1_545 S
C2141 C2137 1.408 . S
C2141 C2140 1.404 . S
C2141 H2153 0.930 1_545 S
C2142 C2138 1.524 . S
C2142 H2154 0.956 . S
C2142 H2155 0.961 . S
C2142 H2156 0.961 . S
C2143 C2140 1.539 1_565 S
C2143 H2157 0.958 . S
C2143 H2158 0.961 . S
C2143 H2159 0.960 . S
H2144 C2128 0.931 . S
H2145 C2133 0.929 . S
H2146 C2134 0.960 . S
H2147 C2134 0.962 . S
H2148 C2134 0.960 . S
H2149 C2135 0.961 . S
H2150 C2135 0.961 . S
H2151 C2135 0.961 1_565 S
H2152 C2136 0.931 . S
H2153 C2141 0.930 1_565 S
H2154 C2142 0.956 . S
H2155 C2142 0.961 . S
H2156 C2142 0.961 . S
H2157 C2143 0.958 . S
H2158 C2143 0.961 . S
H2159 C2143 0.960 . S
C2160 C2161 1.391 . S
C2160 C2162 1.394 . S
C2160 H2176 0.931 . S
C2161 C2160 1.391 . S
C2161 C2165 1.376 . S
C2162 C2160 1.394 . S
C2162 C2163 1.369 . S
C2162 C2166 1.531 . S
C2163 C2162 1.369 . S
C2163 C2164 1.410 . S
C2163 C2171 1.503 . S
C2164 C2163 1.410 . S
C2164 C2165 1.392 . S
C2164 C2167 1.511 . S
C2165 C2161 1.376 . S
C2165 C2164 1.392 . S
C2165 H2177 0.929 . S
C2166 C2162 1.531 . S
C2166 H2178 0.960 . S
C2166 H2179 0.962 . S
C2166 H2180 0.960 . S
C2167 C2164 1.511 . S
C2167 H2181 0.961 . S
C2167 H2182 0.961 . S
C2167 H2183 0.961 . S
C2168 C2169 1.370 . S
C2168 C2170 1.363 . S
C2168 H2184 0.931 . S
C2169 C2168 1.370 . S
C2169 C2173 1.408 . S
C2170 C2168 1.363 . S
C2170 C2171 1.370 . S
C2170 C2174 1.524 . S
C2171 C2163 1.503 . S
C2171 C2170 1.370 . S
C2171 C2172 1.403 . S
C2172 C2171 1.403 . S
C2172 C2173 1.404 . S
C2172 C2175 1.539 . S
C2173 C2169 1.408 . S
C2173 C2172 1.404 . S
C2173 H2185 0.930 . S
C2174 C2170 1.524 . S
C2174 H2186 0.956 . S
C2174 H2187 0.961 . S
C2174 H2188 0.961 . S
C2175 C2172 1.539 . S
C2175 H2189 0.958 . S
C2175 H2190 0.961 . S
C2175 H2191 0.960 . S
H2176 C2160 0.931 . S
H2177 C2165 0.929 . S
H2178 C2166 0.960 . S
H2179 C2166 0.962 . S
H2180 C2166 0.960 . S
H2181 C2167 0.961 . S
H2182 C2167 0.961 . S
H2183 C2167 0.961 . S
H2184 C2168 0.931 . S
H2185 C2173 0.930 . S
H2186 C2174 0.956 . S
H2187 C2174 0.961 . S
H2188 C2174 0.961 . S
H2189 C2175 0.958 . S
H2190 C2175 0.961 . S
H2191 C2175 0.960 . S
C2192 C2193 1.391 . S
C2192 C2194 1.394 . S
C2192 H2208 0.931 . S
C2193 C2192 1.391 . S
C2193 C2197 1.376 . S
C2194 C2192 1.394 . S
C2194 C2195 1.369 . S
C2194 C2198 1.531 . S
C2195 C2194 1.369 . S
C2195 C2196 1.410 . S
C2195 C2203 1.503 . S
C2196 C2195 1.410 . S
C2196 C2197 1.392 . S
C2196 C2199 1.511 . S
C2197 C2193 1.376 . S
C2197 C2196 1.392 . S
C2197 H2209 0.929 . S
C2198 C2194 1.531 . S
C2198 H2210 0.960 1_545 S
C2198 H2211 0.962 . S
C2198 H2212 0.960 1_545 S
C2199 C2196 1.511 . S
C2199 H2213 0.961 . S
C2199 H2214 0.961 . S
C2199 H2215 0.961 1_545 S
C2200 C2201 1.370 . S
C2200 C2202 1.363 . S
C2200 H2216 0.931 . S
C2201 C2200 1.370 . S
C2201 C2205 1.408 1_545 S
C2202 C2200 1.363 . S
C2202 C2203 1.370 . S
C2202 C2206 1.524 . S
C2203 C2195 1.503 . S
C2203 C2202 1.370 . S
C2203 C2204 1.403 1_545 S
C2204 C2203 1.403 1_565 S
C2204 C2205 1.404 . S
C2204 C2207 1.539 . S
C2205 C2201 1.408 1_565 S
C2205 C2204 1.404 . S
C2205 H2217 0.930 . S
C2206 C2202 1.524 . S
C2206 H2218 0.956 . S
C2206 H2219 0.961 . S
C2206 H2220 0.961 . S
C2207 C2204 1.539 . S
C2207 H2221 0.958 . S
C2207 H2222 0.961 . S
C2207 H2223 0.960 . S
H2208 C2192 0.931 . S
H2209 C2197 0.929 . S
H2210 C2198 0.960 1_565 S
H2211 C2198 0.962 . S
H2212 C2198 0.960 1_565 S
H2213 C2199 0.961 . S
H2214 C2199 0.961 . S
H2215 C2199 0.961 1_565 S
H2216 C2200 0.931 . S
H2217 C2205 0.930 . S
H2218 C2206 0.956 . S
H2219 C2206 0.961 . S
H2220 C2206 0.961 . S
H2221 C2207 0.958 . S
H2222 C2207 0.961 . S
H2223 C2207 0.960 . S
C2224 C2225 1.391 . S
C2224 C2226 1.394 . S
C2224 H2240 0.931 . S
C2225 C2224 1.391 . S
C2225 C2229 1.376 . S
C2226 C2224 1.394 . S
C2226 C2227 1.369 . S
C2226 C2230 1.531 . S
C2227 C2226 1.369 . S
C2227 C2228 1.410 . S
C2227 C2235 1.503 . S
C2228 C2227 1.410 . S
C2228 C2229 1.392 . S
C2228 C2231 1.511 . S
C2229 C2225 1.376 . S
C2229 C2228 1.392 . S
C2229 H2241 0.929 . S
C2230 C2226 1.531 . S
C2230 H2242 0.960 . S
C2230 H2243 0.962 . S
C2230 H2244 0.960 . S
C2231 C2228 1.511 . S
C2231 H2245 0.961 . S
C2231 H2246 0.961 . S
C2231 H2247 0.961 . S
C2232 C2233 1.370 . S
C2232 C2234 1.363 . S
C2232 H2248 0.931 . S
C2233 C2232 1.370 . S
C2233 C2237 1.408 . S
C2234 C2232 1.363 . S
C2234 C2235 1.370 . S
C2234 C2238 1.524 . S
C2235 C2227 1.503 . S
C2235 C2234 1.370 . S
C2235 C2236 1.403 . S
C2236 C2235 1.403 . S
C2236 C2237 1.404 . S
C2236 C2239 1.539 . S
C2237 C2233 1.408 . S
C2237 C2236 1.404 . S
C2237 H2249 0.930 . S
C2238 C2234 1.524 . S
C2238 H2250 0.956 . S
C2238 H2251 0.961 . S
C2238 H2252 0.961 . S
C2239 C2236 1.539 . S
C2239 H2253 0.958 . S
C2239 H2254 0.961 . S
C2239 H2255 0.960 . S
H2240 C2224 0.931 . S
H2241 C2229 0.929 . S
H2242 C2230 0.960 . S
H2243 C2230 0.962 . S
H2244 C2230 0.960 . S
H2245 C2231 0.961 . S
H2246 C2231 0.961 . S
H2247 C2231 0.961 . S
H2248 C2232 0.931 . S
H2249 C2237 0.930 . S
H2250 C2238 0.956 . S
H2251 C2238 0.961 . S
H2252 C2238 0.961 . S
H2253 C2239 0.958 . S
H2254 C2239 0.961 . S
H2255 C2239 0.960 . S
C2256 C2257 1.391 . S
C2256 C2258 1.394 . S
C2256 H2272 0.931 . S
C2257 C2256 1.391 . S
C2257 C2261 1.376 . S
C2258 C2256 1.394 . S
C2258 C2259 1.369 . S
C2258 C2262 1.531 . S
C2259 C2258 1.369 . S
C2259 C2260 1.410 . S
C2259 C2267 1.503 . S
C2260 C2259 1.410 . S
C2260 C2261 1.392 . S
C2260 C2263 1.511 . S
C2261 C2257 1.376 . S
C2261 C2260 1.392 . S
C2261 H2273 0.929 . S
C2262 C2258 1.531 . S
C2262 H2274 0.960 . S
C2262 H2275 0.962 . S
C2262 H2276 0.960 . S
C2263 C2260 1.511 . S
C2263 H2277 0.961 . S
C2263 H2278 0.961 . S
C2263 H2279 0.961 . S
C2264 C2265 1.370 . S
C2264 C2266 1.363 . S
C2264 H2280 0.931 . S
C2265 C2264 1.370 . S
C2265 C2269 1.408 . S
C2266 C2264 1.363 . S
C2266 C2267 1.370 . S
C2266 C2270 1.524 . S
C2267 C2259 1.503 . S
C2267 C2266 1.370 . S
C2267 C2268 1.403 . S
C2268 C2267 1.403 . S
C2268 C2269 1.404 . S
C2268 C2271 1.539 . S
C2269 C2265 1.408 . S
C2269 C2268 1.404 . S
C2269 H2281 0.930 . S
C2270 C2266 1.524 . S
C2270 H2282 0.956 . S
C2270 H2283 0.961 . S
C2270 H2284 0.961 . S
C2271 C2268 1.539 . S
C2271 H2285 0.958 . S
C2271 H2286 0.961 . S
C2271 H2287 0.960 . S
H2272 C2256 0.931 . S
H2273 C2261 0.929 . S
H2274 C2262 0.960 . S
H2275 C2262 0.962 . S
H2276 C2262 0.960 . S
H2277 C2263 0.961 . S
H2278 C2263 0.961 . S
H2279 C2263 0.961 . S
H2280 C2264 0.931 . S
H2281 C2269 0.930 . S
H2282 C2270 0.956 . S
H2283 C2270 0.961 . S
H2284 C2270 0.961 . S
H2285 C2271 0.958 . S
H2286 C2271 0.961 . S
H2287 C2271 0.960 . S
C2288 C2289 1.391 . S
C2288 C2290 1.394 . S
C2288 H2304 0.931 . S
C2289 C2288 1.391 . S
C2289 C2293 1.376 . S
C2290 C2288 1.394 . S
C2290 C2291 1.369 . S
C2290 C2294 1.531 . S
C2291 C2290 1.369 . S
C2291 C2292 1.410 . S
C2291 C2299 1.503 . S
C2292 C2291 1.410 . S
C2292 C2293 1.392 . S
C2292 C2295 1.511 . S
C2293 C2289 1.376 . S
C2293 C2292 1.392 . S
C2293 H2305 0.929 . S
C2294 C2290 1.531 . S
C2294 H2306 0.960 . S
C2294 H2307 0.962 . S
C2294 H2308 0.960 . S
C2295 C2292 1.511 . S
C2295 H2309 0.961 . S
C2295 H2310 0.961 . S
C2295 H2311 0.961 . S
C2296 C2297 1.370 . S
C2296 C2298 1.363 . S
C2296 H2312 0.931 . S
C2297 C2296 1.370 . S
C2297 C2301 1.408 . S
C2298 C2296 1.363 . S
C2298 C2299 1.370 . S
C2298 C2302 1.524 . S
C2299 C2291 1.503 . S
C2299 C2298 1.370 . S
C2299 C2300 1.403 . S
C2300 C2299 1.403 . S
C2300 C2301 1.404 . S
C2300 C2303 1.539 . S
C2301 C2297 1.408 . S
C2301 C2300 1.404 . S
C2301 H2313 0.930 . S
C2302 C2298 1.524 . S
C2302 H2314 0.956 . S
C2302 H2315 0.961 . S
C2302 H2316 0.961 . S
C2303 C2300 1.539 . S
C2303 H2317 0.958 . S
C2303 H2318 0.961 . S
C2303 H2319 0.960 . S
H2304 C2288 0.931 . S
H2305 C2293 0.929 . S
H2306 C2294 0.960 . S
H2307 C2294 0.962 . S
H2308 C2294 0.960 . S
H2309 C2295 0.961 . S
H2310 C2295 0.961 . S
H2311 C2295 0.961 . S
H2312 C2296 0.931 . S
H2313 C2301 0.930 . S
H2314 C2302 0.956 . S
H2315 C2302 0.961 . S
H2316 C2302 0.961 . S
H2317 C2303 0.958 . S
H2318 C2303 0.961 . S
H2319 C2303 0.960 . S
C2320 C2321 1.391 . S
C2320 C2322 1.394 . S
C2320 H2336 0.931 . S
C2321 C2320 1.391 . S
C2321 C2325 1.376 . S
C2322 C2320 1.394 . S
C2322 C2323 1.369 . S
C2322 C2326 1.531 . S
C2323 C2322 1.369 . S
C2323 C2324 1.410 . S
C2323 C2331 1.503 . S
C2324 C2323 1.410 . S
C2324 C2325 1.392 . S
C2324 C2327 1.511 . S
C2325 C2321 1.376 . S
C2325 C2324 1.392 . S
C2325 H2337 0.929 . S
C2326 C2322 1.531 . S
C2326 H2338 0.960 . S
C2326 H2339 0.962 . S
C2326 H2340 0.960 . S
C2327 C2324 1.511 . S
C2327 H2341 0.961 . S
C2327 H2342 0.961 . S
C2327 H2343 0.961 . S
C2328 C2329 1.370 . S
C2328 C2330 1.363 . S
C2328 H2344 0.931 . S
C2329 C2328 1.370 . S
C2329 C2333 1.408 . S
C2330 C2328 1.363 . S
C2330 C2331 1.370 . S
C2330 C2334 1.524 . S
C2331 C2323 1.503 . S
C2331 C2330 1.370 . S
C2331 C2332 1.403 . S
C2332 C2331 1.403 . S
C2332 C2333 1.404 . S
C2332 C2335 1.539 . S
C2333 C2329 1.408 . S
C2333 C2332 1.404 . S
C2333 H2345 0.930 . S
C2334 C2330 1.524 . S
C2334 H2346 0.956 . S
C2334 H2347 0.961 . S
C2334 H2348 0.961 . S
C2335 C2332 1.539 . S
C2335 H2349 0.958 . S
C2335 H2350 0.961 . S
C2335 H2351 0.960 . S
H2336 C2320 0.931 . S
H2337 C2325 0.929 . S
H2338 C2326 0.960 . S
H2339 C2326 0.962 . S
H2340 C2326 0.960 . S
H2341 C2327 0.961 . S
H2342 C2327 0.961 . S
H2343 C2327 0.961 . S
H2344 C2328 0.931 . S
H2345 C2333 0.930 . S
H2346 C2334 0.956 . S
H2347 C2334 0.961 . S
H2348 C2334 0.961 . S
H2349 C2335 0.958 . S
H2350 C2335 0.961 . S
H2351 C2335 0.960 . S
C2352 C2353 1.391 . S
C2352 C2354 1.394 . S
C2352 H2368 0.931 . S
C2353 C2352 1.391 . S
C2353 C2357 1.376 . S
C2354 C2352 1.394 . S
C2354 C2355 1.369 . S
C2354 C2358 1.531 . S
C2355 C2354 1.369 . S
C2355 C2356 1.410 . S
C2355 C2363 1.503 . S
C2356 C2355 1.410 . S
C2356 C2357 1.392 . S
C2356 C2359 1.511 . S
C2357 C2353 1.376 . S
C2357 C2356 1.392 . S
C2357 H2369 0.929 . S
C2358 C2354 1.531 . S
C2358 H2370 0.960 . S
C2358 H2371 0.962 . S
C2358 H2372 0.960 . S
C2359 C2356 1.511 . S
C2359 H2373 0.961 . S
C2359 H2374 0.961 . S
C2359 H2375 0.961 . S
C2360 C2361 1.370 . S
C2360 C2362 1.363 . S
C2360 H2376 0.931 . S
C2361 C2360 1.370 . S
C2361 C2365 1.408 . S
C2362 C2360 1.363 . S
C2362 C2363 1.370 . S
C2362 C2366 1.524 . S
C2363 C2355 1.503 . S
C2363 C2362 1.370 . S
C2363 C2364 1.403 . S
C2364 C2363 1.403 . S
C2364 C2365 1.404 . S
C2364 C2367 1.539 . S
C2365 C2361 1.408 . S
C2365 C2364 1.404 . S
C2365 H2377 0.930 . S
C2366 C2362 1.524 . S
C2366 H2378 0.956 . S
C2366 H2379 0.961 . S
C2366 H2380 0.961 . S
C2367 C2364 1.539 . S
C2367 H2381 0.958 . S
C2367 H2382 0.961 . S
C2367 H2383 0.960 . S
H2368 C2352 0.931 . S
H2369 C2357 0.929 . S
H2370 C2358 0.960 . S
H2371 C2358 0.962 . S
H2372 C2358 0.960 . S
H2373 C2359 0.961 . S
H2374 C2359 0.961 . S
H2375 C2359 0.961 . S
H2376 C2360 0.931 . S
H2377 C2365 0.930 . S
H2378 C2366 0.956 . S
H2379 C2366 0.961 . S
H2380 C2366 0.961 . S
H2381 C2367 0.958 . S
H2382 C2367 0.961 . S
H2383 C2367 0.960 . S
C2384 C2385 1.391 . S
C2384 C2386 1.394 . S
C2384 H2400 0.931 . S
C2385 C2384 1.391 . S
C2385 C2389 1.376 . S
C2386 C2384 1.394 . S
C2386 C2387 1.369 . S
C2386 C2390 1.531 . S
C2387 C2386 1.369 . S
C2387 C2388 1.410 . S
C2387 C2395 1.503 . S
C2388 C2387 1.410 . S
C2388 C2389 1.392 . S
C2388 C2391 1.511 . S
C2389 C2385 1.376 . S
C2389 C2388 1.392 . S
C2389 H2401 0.929 . S
C2390 C2386 1.531 . S
C2390 H2402 0.960 . S
C2390 H2403 0.962 . S
C2390 H2404 0.960 . S
C2391 C2388 1.511 . S
C2391 H2405 0.961 . S
C2391 H2406 0.961 . S
C2391 H2407 0.961 . S
C2392 C2393 1.370 . S
C2392 C2394 1.363 . S
C2392 H2408 0.931 . S
C2393 C2392 1.370 . S
C2393 C2397 1.408 . S
C2394 C2392 1.363 . S
C2394 C2395 1.370 . S
C2394 C2398 1.524 . S
C2395 C2387 1.503 . S
C2395 C2394 1.370 . S
C2395 C2396 1.403 . S
C2396 C2395 1.403 . S
C2396 C2397 1.404 . S
C2396 C2399 1.539 . S
C2397 C2393 1.408 . S
C2397 C2396 1.404 . S
C2397 H2409 0.930 . S
C2398 C2394 1.524 . S
C2398 H2410 0.956 . S
C2398 H2411 0.961 . S
C2398 H2412 0.961 . S
C2399 C2396 1.539 . S
C2399 H2413 0.958 . S
C2399 H2414 0.961 . S
C2399 H2415 0.960 . S
H2400 C2384 0.931 . S
H2401 C2389 0.929 . S
H2402 C2390 0.960 . S
H2403 C2390 0.962 . S
H2404 C2390 0.960 . S
H2405 C2391 0.961 . S
H2406 C2391 0.961 . S
H2407 C2391 0.961 . S
H2408 C2392 0.931 . S
H2409 C2397 0.930 . S
H2410 C2398 0.956 . S
H2411 C2398 0.961 . S
H2412 C2398 0.961 . S
H2413 C2399 0.958 . S
H2414 C2399 0.961 . S
H2415 C2399 0.960 . S
C2416 C2417 1.391 . S
C2416 C2418 1.394 . S
C2416 H2432 0.931 . S
C2417 C2416 1.391 . S
C2417 C2421 1.376 . S
C2418 C2416 1.394 . S
C2418 C2419 1.369 . S
C2418 C2422 1.531 . S
C2419 C2418 1.369 . S
C2419 C2420 1.410 . S
C2419 C2427 1.503 . S
C2420 C2419 1.410 . S
C2420 C2421 1.392 . S
C2420 C2423 1.511 . S
C2421 C2417 1.376 . S
C2421 C2420 1.392 . S
C2421 H2433 0.929 . S
C2422 C2418 1.531 . S
C2422 H2434 0.960 . S
C2422 H2435 0.962 . S
C2422 H2436 0.960 . S
C2423 C2420 1.511 . S
C2423 H2437 0.961 . S
C2423 H2438 0.961 . S
C2423 H2439 0.961 . S
C2424 C2425 1.370 . S
C2424 C2426 1.363 . S
C2424 H2440 0.931 . S
C2425 C2424 1.370 . S
C2425 C2429 1.408 . S
C2426 C2424 1.363 . S
C2426 C2427 1.370 . S
C2426 C2430 1.524 . S
C2427 C2419 1.503 . S
C2427 C2426 1.370 . S
C2427 C2428 1.403 . S
C2428 C2427 1.403 . S
C2428 C2429 1.404 . S
C2428 C2431 1.539 . S
C2429 C2425 1.408 . S
C2429 C2428 1.404 . S
C2429 H2441 0.930 . S
C2430 C2426 1.524 . S
C2430 H2442 0.956 . S
C2430 H2443 0.961 . S
C2430 H2444 0.961 . S
C2431 C2428 1.539 . S
C2431 H2445 0.958 . S
C2431 H2446 0.961 . S
C2431 H2447 0.960 . S
H2432 C2416 0.931 . S
H2433 C2421 0.929 . S
H2434 C2422 0.960 . S
H2435 C2422 0.962 . S
H2436 C2422 0.960 . S
H2437 C2423 0.961 . S
H2438 C2423 0.961 . S
H2439 C2423 0.961 . S
H2440 C2424 0.931 . S
H2441 C2429 0.930 . S
H2442 C2430 0.956 . S
H2443 C2430 0.961 . S
H2444 C2430 0.961 . S
H2445 C2431 0.958 . S
H2446 C2431 0.961 . S
H2447 C2431 0.960 . S
C2448 C2449 1.391 . S
C2448 C2450 1.394 . S
C2448 H2464 0.931 . S
C2449 C2448 1.391 . S
C2449 C2453 1.376 . S
C2450 C2448 1.394 . S
C2450 C2451 1.369 . S
C2450 C2454 1.531 . S
C2451 C2450 1.369 . S
C2451 C2452 1.410 . S
C2451 C2459 1.503 . S
C2452 C2451 1.410 . S
C2452 C2453 1.392 . S
C2452 C2455 1.511 . S
C2453 C2449 1.376 . S
C2453 C2452 1.392 . S
C2453 H2465 0.929 . S
C2454 C2450 1.531 . S
C2454 H2466 0.960 . S
C2454 H2467 0.962 . S
C2454 H2468 0.960 . S
C2455 C2452 1.511 . S
C2455 H2469 0.961 . S
C2455 H2470 0.961 . S
C2455 H2471 0.961 . S
C2456 C2457 1.370 . S
C2456 C2458 1.363 . S
C2456 H2472 0.931 . S
C2457 C2456 1.370 . S
C2457 C2461 1.408 . S
C2458 C2456 1.363 . S
C2458 C2459 1.370 . S
C2458 C2462 1.524 . S
C2459 C2451 1.503 . S
C2459 C2458 1.370 . S
C2459 C2460 1.403 . S
C2460 C2459 1.403 . S
C2460 C2461 1.404 . S
C2460 C2463 1.539 . S
C2461 C2457 1.408 . S
C2461 C2460 1.404 . S
C2461 H2473 0.930 . S
C2462 C2458 1.524 . S
C2462 H2474 0.956 . S
C2462 H2475 0.961 . S
C2462 H2476 0.961 . S
C2463 C2460 1.539 . S
C2463 H2477 0.958 . S
C2463 H2478 0.961 . S
C2463 H2479 0.960 . S
H2464 C2448 0.931 . S
H2465 C2453 0.929 . S
H2466 C2454 0.960 . S
H2467 C2454 0.962 . S
H2468 C2454 0.960 . S
H2469 C2455 0.961 . S
H2470 C2455 0.961 . S
H2471 C2455 0.961 . S
H2472 C2456 0.931 . S
H2473 C2461 0.930 . S
H2474 C2462 0.956 . S
H2475 C2462 0.961 . S
H2476 C2462 0.961 . S
H2477 C2463 0.958 . S
H2478 C2463 0.961 . S
H2479 C2463 0.960 . S
C2480 C2481 1.391 . S
C2480 C2482 1.394 . S
C2480 H2496 0.931 . S
C2481 C2480 1.391 . S
C2481 C2485 1.376 . S
C2482 C2480 1.394 . S
C2482 C2483 1.369 . S
C2482 C2486 1.531 . S
C2483 C2482 1.369 . S
C2483 C2484 1.410 . S
C2483 C2491 1.503 . S
C2484 C2483 1.410 . S
C2484 C2485 1.392 . S
C2484 C2487 1.511 . S
C2485 C2481 1.376 . S
C2485 C2484 1.392 . S
C2485 H2497 0.929 . S
C2486 C2482 1.531 . S
C2486 H2498 0.960 . S
C2486 H2499 0.962 . S
C2486 H2500 0.960 . S
C2487 C2484 1.511 . S
C2487 H2501 0.961 . S
C2487 H2502 0.961 . S
C2487 H2503 0.961 . S
C2488 C2489 1.370 . S
C2488 C2490 1.363 . S
C2488 H2504 0.931 . S
C2489 C2488 1.370 . S
C2489 C2493 1.408 . S
C2490 C2488 1.363 . S
C2490 C2491 1.370 . S
C2490 C2494 1.524 . S
C2491 C2483 1.503 . S
C2491 C2490 1.370 . S
C2491 C2492 1.403 . S
C2492 C2491 1.403 . S
C2492 C2493 1.404 . S
C2492 C2495 1.539 . S
C2493 C2489 1.408 . S
C2493 C2492 1.404 . S
C2493 H2505 0.930 . S
C2494 C2490 1.524 . S
C2494 H2506 0.956 . S
C2494 H2507 0.961 . S
C2494 H2508 0.961 . S
C2495 C2492 1.539 . S
C2495 H2509 0.958 . S
C2495 H2510 0.961 . S
C2495 H2511 0.960 . S
H2496 C2480 0.931 . S
H2497 C2485 0.929 . S
H2498 C2486 0.960 . S
H2499 C2486 0.962 . S
H2500 C2486 0.960 . S
H2501 C2487 0.961 . S
H2502 C2487 0.961 . S
H2503 C2487 0.961 . S
H2504 C2488 0.931 . S
H2505 C2493 0.930 . S
H2506 C2494 0.956 . S
H2507 C2494 0.961 . S
H2508 C2494 0.961 . S
H2509 C2495 0.958 . S
H2510 C2495 0.961 . S
H2511 C2495 0.960 . S
C2512 C2513 1.391 . S
C2512 C2514 1.394 . S
C2512 H2528 0.931 . S
C2513 C2512 1.391 . S
C2513 C2517 1.376 . S
C2514 C2512 1.394 . S
C2514 C2515 1.369 . S
C2514 C2518 1.531 . S
C2515 C2514 1.369 . S
C2515 C2516 1.410 . S
C2515 C2523 1.503 . S
C2516 C2515 1.410 . S
C2516 C2517 1.392 . S
C2516 C2519 1.511 . S
C2517 C2513 1.376 . S
C2517 C2516 1.392 . S
C2517 H2529 0.929 . S
C2518 C2514 1.531 . S
C2518 H2530 0.960 . S
C2518 H2531 0.962 . S
C2518 H2532 0.960 . S
C2519 C2516 1.511 . S
C2519 H2533 0.961 . S
C2519 H2534 0.961 . S
C2519 H2535 0.961 . S
C2520 C2521 1.370 . S
C2520 C2522 1.363 . S
C2520 H2536 0.931 . S
C2521 C2520 1.370 . S
C2521 C2525 1.408 . S
C2522 C2520 1.363 . S
C2522 C2523 1.370 . S
C2522 C2526 1.524 . S
C2523 C2515 1.503 . S
C2523 C2522 1.370 . S
C2523 C2524 1.403 . S
C2524 C2523 1.403 . S
C2524 C2525 1.404 . S
C2524 C2527 1.539 . S
C2525 C2521 1.408 . S
C2525 C2524 1.404 . S
C2525 H2537 0.930 . S
C2526 C2522 1.524 . S
C2526 H2538 0.956 . S
C2526 H2539 0.961 . S
C2526 H2540 0.961 . S
C2527 C2524 1.539 . S
C2527 H2541 0.958 . S
C2527 H2542 0.961 . S
C2527 H2543 0.960 . S
H2528 C2512 0.931 . S
H2529 C2517 0.929 . S
H2530 C2518 0.960 . S
H2531 C2518 0.962 . S
H2532 C2518 0.960 . S
H2533 C2519 0.961 . S
H2534 C2519 0.961 . S
H2535 C2519 0.961 . S
H2536 C2520 0.931 . S
H2537 C2525 0.930 . S
H2538 C2526 0.956 . S
H2539 C2526 0.961 . S
H2540 C2526 0.961 . S
H2541 C2527 0.958 . S
H2542 C2527 0.961 . S
H2543 C2527 0.960 . S
C2544 C2545 1.391 . S
C2544 C2546 1.394 . S
C2544 H2560 0.931 . S
C2545 C2544 1.391 . S
C2545 C2549 1.376 . S
C2546 C2544 1.394 . S
C2546 C2547 1.369 . S
C2546 C2550 1.531 . S
C2547 C2546 1.369 . S
C2547 C2548 1.410 . S
C2547 C2555 1.503 . S
C2548 C2547 1.410 . S
C2548 C2549 1.392 . S
C2548 C2551 1.511 . S
C2549 C2545 1.376 . S
C2549 C2548 1.392 . S
C2549 H2561 0.929 . S
C2550 C2546 1.531 . S
C2550 H2562 0.960 . S
C2550 H2563 0.962 . S
C2550 H2564 0.960 . S
C2551 C2548 1.511 . S
C2551 H2565 0.961 . S
C2551 H2566 0.961 . S
C2551 H2567 0.961 . S
C2552 C2553 1.370 . S
C2552 C2554 1.363 . S
C2552 H2568 0.931 . S
C2553 C2552 1.370 . S
C2553 C2557 1.408 . S
C2554 C2552 1.363 . S
C2554 C2555 1.370 . S
C2554 C2558 1.524 . S
C2555 C2547 1.503 . S
C2555 C2554 1.370 . S
C2555 C2556 1.403 . S
C2556 C2555 1.403 . S
C2556 C2557 1.404 . S
C2556 C2559 1.539 . S
C2557 C2553 1.408 . S
C2557 C2556 1.404 . S
C2557 H2569 0.930 . S
C2558 C2554 1.524 . S
C2558 H2570 0.956 . S
C2558 H2571 0.961 . S
C2558 H2572 0.961 . S
C2559 C2556 1.539 . S
C2559 H2573 0.958 . S
C2559 H2574 0.961 . S
C2559 H2575 0.960 . S
H2560 C2544 0.931 . S
H2561 C2549 0.929 . S
H2562 C2550 0.960 . S
H2563 C2550 0.962 . S
H2564 C2550 0.960 . S
H2565 C2551 0.961 . S
H2566 C2551 0.961 . S
H2567 C2551 0.961 . S
H2568 C2552 0.931 . S
H2569 C2557 0.930 . S
H2570 C2558 0.956 . S
H2571 C2558 0.961 . S
H2572 C2558 0.961 . S
H2573 C2559 0.958 . S
H2574 C2559 0.961 . S
H2575 C2559 0.960 . S
C2576 C2577 1.391 . S
C2576 C2578 1.394 . S
C2576 H2592 0.931 . S
C2577 C2576 1.391 . S
C2577 C2581 1.376 1_556 S
C2578 C2576 1.394 . S
C2578 C2579 1.369 1_556 S
C2578 C2582 1.531 . S
C2579 C2578 1.369 1_554 S
C2579 C2580 1.410 . S
C2579 C2587 1.503 . S
C2580 C2579 1.410 . S
C2580 C2581 1.392 . S
C2580 C2583 1.511 1_455 S
C2581 C2577 1.376 1_554 S
C2581 C2580 1.392 . S
C2581 H2593 0.929 1_455 S
C2582 C2578 1.531 . S
C2582 H2594 0.960 . S
C2582 H2595 0.962 . S
C2582 H2596 0.960 . S
C2583 C2580 1.511 1_655 S
C2583 H2597 0.961 . S
C2583 H2598 0.961 1_655 S
C2583 H2599 0.961 . S
C2584 C2585 1.370 . S
C2584 C2586 1.363 . S
C2584 H2600 0.931 . S
C2585 C2584 1.370 . S
C2585 C2589 1.408 . S
C2586 C2584 1.363 . S
C2586 C2587 1.370 . S
C2586 C2590 1.524 . S
C2587 C2579 1.503 . S
C2587 C2586 1.370 . S
C2587 C2588 1.403 . S
C2588 C2587 1.403 . S
C2588 C2589 1.404 . S
C2588 C2591 1.539 1_454 S
C2589 C2585 1.408 . S
C2589 C2588 1.404 . S
C2589 H2601 0.930 . S
C2590 C2586 1.524 . S
C2590 H2602 0.956 . S
C2590 H2603 0.961 . S
C2590 H2604 0.961 . S
C2591 C2588 1.539 1_656 S
C2591 H2605 0.958 . S
C2591 H2606 0.953 1_556 S
C2591 H2607 0.960 . S
H2592 C2576 0.931 . S
H2593 C2581 0.929 1_655 S
H2594 C2582 0.960 . S
H2595 C2582 0.962 . S
H2596 C2582 0.960 . S
H2597 C2583 0.961 . S
H2598 C2583 0.961 1_455 S
H2599 C2583 0.961 . S
H2600 C2584 0.931 . S
H2601 C2589 0.930 . S
H2602 C2590 0.956 . S
H2603 C2590 0.961 . S
H2604 C2590 0.961 . S
H2605 C2591 0.958 . S
H2606 C2591 0.953 1_554 S
H2607 C2591 0.960 . S
C2608 C2609 1.391 . S
C2608 C2610 1.394 . S
C2608 H2624 0.931 1_655 S
C2609 C2608 1.391 . S
C2609 C2613 1.376 . S
C2610 C2608 1.394 . S
C2610 C2611 1.369 . S
C2610 C2614 1.531 . S
C2611 C2610 1.369 . S
C2611 C2612 1.410 . S
C2611 C2619 1.503 . S
C2612 C2611 1.410 . S
C2612 C2613 1.392 . S
C2612 C2615 1.511 . S
C2613 C2609 1.376 . S
C2613 C2612 1.392 . S
C2613 H2625 0.929 . S
C2614 C2610 1.531 . S
C2614 H2626 0.960 . S
C2614 H2627 0.962 . S
C2614 H2628 0.960 . S
C2615 C2612 1.511 . S
C2615 H2629 0.961 . S
C2615 H2630 0.961 . S
C2615 H2631 0.961 . S
C2616 C2617 1.370 . S
C2616 C2618 1.363 . S
C2616 H2632 0.931 . S
C2617 C2616 1.370 . S
C2617 C2621 1.408 . S
C2618 C2616 1.363 . S
C2618 C2619 1.370 . S
C2618 C2622 1.524 . S
C2619 C2611 1.503 . S
C2619 C2618 1.370 . S
C2619 C2620 1.403 . S
C2620 C2619 1.403 . S
C2620 C2621 1.404 . S
C2620 C2623 1.539 . S
C2621 C2617 1.408 . S
C2621 C2620 1.404 . S
C2621 H2633 0.930 . S
C2622 C2618 1.524 . S
C2622 H2634 0.956 . S
C2622 H2635 0.961 . S
C2622 H2636 0.961 . S
C2623 C2620 1.539 . S
C2623 H2637 0.958 . S
C2623 H2638 0.961 . S
C2623 H2639 0.960 . S
H2624 C2608 0.931 1_455 S
H2625 C2613 0.929 . S
H2626 C2614 0.960 . S
H2627 C2614 0.962 . S
H2628 C2614 0.960 . S
H2629 C2615 0.961 . S
H2630 C2615 0.961 . S
H2631 C2615 0.961 . S
H2632 C2616 0.931 . S
H2633 C2621 0.930 . S
H2634 C2622 0.956 . S
H2635 C2622 0.961 . S
H2636 C2622 0.961 . S
H2637 C2623 0.958 . S
H2638 C2623 0.961 . S
H2639 C2623 0.960 . S
C2640 C2641 1.391 . S
C2640 C2642 1.394 . S
C2640 H2656 0.931 . S
C2641 C2640 1.391 . S
C2641 C2645 1.376 . S
C2642 C2640 1.394 . S
C2642 C2643 1.369 . S
C2642 C2646 1.531 . S
C2643 C2642 1.369 . S
C2643 C2644 1.410 . S
C2643 C2651 1.503 . S
C2644 C2643 1.410 . S
C2644 C2645 1.392 . S
C2644 C2647 1.511 . S
C2645 C2641 1.376 . S
C2645 C2644 1.392 . S
C2645 H2657 0.929 . S
C2646 C2642 1.531 . S
C2646 H2658 0.960 . S
C2646 H2659 0.962 . S
C2646 H2660 0.960 . S
C2647 C2644 1.511 . S
C2647 H2661 0.961 . S
C2647 H2662 0.961 . S
C2647 H2663 0.961 . S
C2648 C2649 1.370 . S
C2648 C2650 1.363 . S
C2648 H2664 0.931 . S
C2649 C2648 1.370 . S
C2649 C2653 1.408 . S
C2650 C2648 1.363 . S
C2650 C2651 1.370 . S
C2650 C2654 1.524 . S
C2651 C2643 1.503 . S
C2651 C2650 1.370 . S
C2651 C2652 1.403 . S
C2652 C2651 1.403 . S
C2652 C2653 1.404 . S
C2652 C2655 1.539 . S
C2653 C2649 1.408 . S
C2653 C2652 1.404 . S
C2653 H2665 0.930 . S
C2654 C2650 1.524 . S
C2654 H2666 0.956 . S
C2654 H2667 0.961 . S
C2654 H2668 0.961 . S
C2655 C2652 1.539 . S
C2655 H2669 0.958 . S
C2655 H2670 0.961 . S
C2655 H2671 0.960 . S
H2656 C2640 0.931 . S
H2657 C2645 0.929 . S
H2658 C2646 0.960 . S
H2659 C2646 0.962 . S
H2660 C2646 0.960 . S
H2661 C2647 0.961 . S
H2662 C2647 0.961 . S
H2663 C2647 0.961 . S
H2664 C2648 0.931 . S
H2665 C2653 0.930 . S
H2666 C2654 0.956 . S
H2667 C2654 0.961 . S
H2668 C2654 0.961 . S
H2669 C2655 0.958 . S
H2670 C2655 0.961 . S
H2671 C2655 0.960 . S
C2672 C2673 1.391 . S
C2672 C2674 1.394 . S
C2672 H2688 0.931 . S
C2673 C2672 1.391 . S
C2673 C2677 1.376 . S
C2674 C2672 1.394 . S
C2674 C2675 1.369 . S
C2674 C2678 1.531 . S
C2675 C2674 1.369 . S
C2675 C2676 1.410 . S
C2675 C2683 1.503 . S
C2676 C2675 1.410 . S
C2676 C2677 1.392 . S
C2676 C2679 1.511 . S
C2677 C2673 1.376 . S
C2677 C2676 1.392 . S
C2677 H2689 0.929 . S
C2678 C2674 1.531 . S
C2678 H2690 0.960 . S
C2678 H2691 0.962 . S
C2678 H2692 0.960 . S
C2679 C2676 1.511 . S
C2679 H2693 0.961 . S
C2679 H2694 0.961 . S
C2679 H2695 0.961 . S
C2680 C2681 1.370 . S
C2680 C2682 1.363 . S
C2680 H2696 0.931 . S
C2681 C2680 1.370 . S
C2681 C2685 1.408 . S
C2682 C2680 1.363 . S
C2682 C2683 1.370 . S
C2682 C2686 1.524 . S
C2683 C2675 1.503 . S
C2683 C2682 1.370 . S
C2683 C2684 1.403 . S
C2684 C2683 1.403 . S
C2684 C2685 1.404 . S
C2684 C2687 1.539 . S
C2685 C2681 1.408 . S
C2685 C2684 1.404 . S
C2685 H2697 0.930 . S
C2686 C2682 1.524 . S
C2686 H2698 0.956 . S
C2686 H2699 0.961 . S
C2686 H2700 0.961 . S
C2687 C2684 1.539 . S
C2687 H2701 0.958 . S
C2687 H2702 0.961 . S
C2687 H2703 0.960 . S
H2688 C2672 0.931 . S
H2689 C2677 0.929 . S
H2690 C2678 0.960 . S
H2691 C2678 0.962 . S
H2692 C2678 0.960 . S
H2693 C2679 0.961 . S
H2694 C2679 0.961 . S
H2695 C2679 0.961 . S
H2696 C2680 0.931 . S
H2697 C2685 0.930 . S
H2698 C2686 0.956 . S
H2699 C2686 0.961 . S
H2700 C2686 0.961 . S
H2701 C2687 0.958 . S
H2702 C2687 0.961 . S
H2703 C2687 0.960 . S
C2704 C2705 1.391 . S
C2704 C2706 1.394 . S
C2704 H2720 0.931 . S
C2705 C2704 1.391 . S
C2705 C2709 1.376 . S
C2706 C2704 1.394 . S
C2706 C2707 1.369 . S
C2706 C2710 1.531 . S
C2707 C2706 1.369 . S
C2707 C2708 1.410 . S
C2707 C2715 1.503 . S
C2708 C2707 1.410 . S
C2708 C2709 1.392 . S
C2708 C2711 1.511 . S
C2709 C2705 1.376 . S
C2709 C2708 1.392 . S
C2709 H2721 0.929 . S
C2710 C2706 1.531 . S
C2710 H2722 0.960 . S
C2710 H2723 0.962 . S
C2710 H2724 0.960 . S
C2711 C2708 1.511 . S
C2711 H2725 0.961 . S
C2711 H2726 0.961 . S
C2711 H2727 0.961 1_455 S
C2712 C2713 1.370 . S
C2712 C2714 1.363 . S
C2712 H2728 0.931 . S
C2713 C2712 1.370 . S
C2713 C2717 1.408 . S
C2714 C2712 1.363 . S
C2714 C2715 1.370 . S
C2714 C2718 1.524 . S
C2715 C2707 1.503 . S
C2715 C2714 1.370 . S
C2715 C2716 1.403 . S
C2716 C2715 1.403 . S
C2716 C2717 1.404 . S
C2716 C2719 1.539 . S
C2717 C2713 1.408 . S
C2717 C2716 1.404 . S
C2717 H2729 0.930 . S
C2718 C2714 1.524 . S
C2718 H2730 0.956 . S
C2718 H2731 0.961 . S
C2718 H2732 0.961 . S
C2719 C2716 1.539 . S
C2719 H2733 0.958 . S
C2719 H2734 0.961 . S
C2719 H2735 0.960 . S
H2720 C2704 0.931 . S
H2721 C2709 0.929 . S
H2722 C2710 0.960 . S
H2723 C2710 0.962 . S
H2724 C2710 0.960 . S
H2725 C2711 0.961 . S
H2726 C2711 0.961 . S
H2727 C2711 0.961 1_655 S
H2728 C2712 0.931 . S
H2729 C2717 0.930 . S
H2730 C2718 0.956 . S
H2731 C2718 0.961 . S
H2732 C2718 0.961 . S
H2733 C2719 0.958 . S
H2734 C2719 0.961 . S
H2735 C2719 0.960 . S
C2736 C2737 1.391 . S
C2736 C2738 1.394 . S
C2736 H2752 0.931 . S
C2737 C2736 1.391 . S
C2737 C2741 1.376 . S
C2738 C2736 1.394 . S
C2738 C2739 1.369 . S
C2738 C2742 1.531 . S
C2739 C2738 1.369 . S
C2739 C2740 1.410 . S
C2739 C2747 1.503 . S
C2740 C2739 1.410 . S
C2740 C2741 1.392 . S
C2740 C2743 1.511 . S
C2741 C2737 1.376 . S
C2741 C2740 1.392 . S
C2741 H2753 0.929 . S
C2742 C2738 1.531 . S
C2742 H2754 0.960 . S
C2742 H2755 0.962 . S
C2742 H2756 0.960 . S
C2743 C2740 1.511 . S
C2743 H2757 0.961 . S
C2743 H2758 0.961 . S
C2743 H2759 0.961 . S
C2744 C2745 1.370 . S
C2744 C2746 1.363 . S
C2744 H2760 0.931 . S
C2745 C2744 1.370 . S
C2745 C2749 1.408 . S
C2746 C2744 1.363 . S
C2746 C2747 1.370 . S
C2746 C2750 1.524 . S
C2747 C2739 1.503 . S
C2747 C2746 1.370 . S
C2747 C2748 1.403 . S
C2748 C2747 1.403 . S
C2748 C2749 1.404 . S
C2748 C2751 1.539 . S
C2749 C2745 1.408 . S
C2749 C2748 1.404 . S
C2749 H2761 0.930 . S
C2750 C2746 1.524 . S
C2750 H2762 0.956 . S
C2750 H2763 0.961 . S
C2750 H2764 0.961 . S
C2751 C2748 1.539 . S
C2751 H2765 0.958 . S
C2751 H2766 0.961 . S
C2751 H2767 0.960 . S
H2752 C2736 0.931 . S
H2753 C2741 0.929 . S
H2754 C2742 0.960 . S
H2755 C2742 0.962 . S
H2756 C2742 0.960 . S
H2757 C2743 0.961 . S
H2758 C2743 0.961 . S
H2759 C2743 0.961 . S
H2760 C2744 0.931 . S
H2761 C2749 0.930 . S
H2762 C2750 0.956 . S
H2763 C2750 0.961 . S
H2764 C2750 0.961 . S
H2765 C2751 0.958 . S
H2766 C2751 0.961 . S
H2767 C2751 0.960 . S
C2768 C2769 1.391 . S
C2768 C2770 1.394 . S
C2768 H2784 0.931 . S
C2769 C2768 1.391 . S
C2769 C2773 1.376 . S
C2770 C2768 1.394 . S
C2770 C2771 1.369 . S
C2770 C2774 1.531 . S
C2771 C2770 1.369 . S
C2771 C2772 1.410 . S
C2771 C2779 1.503 . S
C2772 C2771 1.410 . S
C2772 C2773 1.392 . S
C2772 C2775 1.511 . S
C2773 C2769 1.376 . S
C2773 C2772 1.392 . S
C2773 H2785 0.929 . S
C2774 C2770 1.531 . S
C2774 H2786 0.960 . S
C2774 H2787 0.962 . S
C2774 H2788 0.960 . S
C2775 C2772 1.511 . S
C2775 H2789 0.961 . S
C2775 H2790 0.961 . S
C2775 H2791 0.961 . S
C2776 C2777 1.370 . S
C2776 C2778 1.363 . S
C2776 H2792 0.931 . S
C2777 C2776 1.370 . S
C2777 C2781 1.408 . S
C2778 C2776 1.363 . S
C2778 C2779 1.370 . S
C2778 C2782 1.524 . S
C2779 C2771 1.503 . S
C2779 C2778 1.370 . S
C2779 C2780 1.403 . S
C2780 C2779 1.403 . S
C2780 C2781 1.404 . S
C2780 C2783 1.539 . S
C2781 C2777 1.408 . S
C2781 C2780 1.404 . S
C2781 H2793 0.930 . S
C2782 C2778 1.524 . S
C2782 H2794 0.956 . S
C2782 H2795 0.961 . S
C2782 H2796 0.961 . S
C2783 C2780 1.539 . S
C2783 H2797 0.958 . S
C2783 H2798 0.961 . S
C2783 H2799 0.960 . S
H2784 C2768 0.931 . S
H2785 C2773 0.929 . S
H2786 C2774 0.960 . S
H2787 C2774 0.962 . S
H2788 C2774 0.960 . S
H2789 C2775 0.961 . S
H2790 C2775 0.961 . S
H2791 C2775 0.961 . S
H2792 C2776 0.931 . S
H2793 C2781 0.930 . S
H2794 C2782 0.956 . S
H2795 C2782 0.961 . S
H2796 C2782 0.961 . S
H2797 C2783 0.958 . S
H2798 C2783 0.961 . S
H2799 C2783 0.960 . S
C2800 C2801 1.391 . S
C2800 C2802 1.394 . S
C2800 H2816 0.931 . S
C2801 C2800 1.391 . S
C2801 C2805 1.376 . S
C2802 C2800 1.394 . S
C2802 C2803 1.372 1_554 S
C2802 C2806 1.531 1_554 S
C2803 C2802 1.372 1_556 S
C2803 C2804 1.365 1_556 S
C2803 C2811 1.545 . S
C2804 C2803 1.365 1_554 S
C2804 C2805 1.392 . S
C2804 C2807 1.511 . S
C2805 C2801 1.376 . S
C2805 C2804 1.392 . S
C2805 H2817 0.929 . S
C2806 C2802 1.531 1_556 S
C2806 H2818 0.960 . S
C2806 H2819 0.962 . S
C2806 H2820 0.960 . S
C2807 C2804 1.511 . S
C2807 H2821 0.961 . S
C2807 H2822 0.961 . S
C2807 H2823 0.961 . S
C2808 C2809 1.370 . S
C2808 C2810 1.363 . S
C2808 H2824 0.931 . S
C2809 C2808 1.370 . S
C2809 C2813 1.408 . S
C2810 C2808 1.363 . S
C2810 C2811 1.370 . S
C2810 C2814 1.524 . S
C2811 C2803 1.545 . S
C2811 C2810 1.370 . S
C2811 C2812 1.403 . S
C2812 C2811 1.403 . S
C2812 C2813 1.404 . S
C2812 C2815 1.539 . S
C2813 C2809 1.408 . S
C2813 C2812 1.404 . S
C2813 H2825 0.930 . S
C2814 C2810 1.524 . S
C2814 H2826 0.956 . S
C2814 H2827 0.961 1_556 S
C2814 H2828 0.961 . S
C2815 C2812 1.539 . S
C2815 H2829 0.958 . S
C2815 H2830 0.961 . S
C2815 H2831 0.960 . S
H2816 C2800 0.931 . S
H2817 C2805 0.929 . S
H2818 C2806 0.960 . S
H2819 C2806 0.962 . S
H2820 C2806 0.960 . S
H2821 C2807 0.961 . S
H2822 C2807 0.961 . S
H2823 C2807 0.961 . S
H2824 C2808 0.931 . S
H2825 C2813 0.930 . S
H2826 C2814 0.956 . S
H2827 C2814 0.961 1_554 S
H2828 C2814 0.961 . S
H2829 C2815 0.958 . S
H2830 C2815 0.961 . S
H2831 C2815 0.960 . S
C2832 C2833 1.391 . S
C2832 C2834 1.394 . S
C2832 H2848 0.931 . S
C2833 C2832 1.391 . S
C2833 C2837 1.376 . S
C2834 C2832 1.394 . S
C2834 C2835 1.369 . S
C2834 C2838 1.531 . S
C2835 C2834 1.369 . S
C2835 C2836 1.410 . S
C2835 C2843 1.503 . S
C2836 C2835 1.410 . S
C2836 C2837 1.392 . S
C2836 C2839 1.511 . S
C2837 C2833 1.376 . S
C2837 C2836 1.392 . S
C2837 H2849 0.929 . S
C2838 C2834 1.531 . S
C2838 H2850 0.960 . S
C2838 H2851 0.962 . S
C2838 H2852 0.960 . S
C2839 C2836 1.511 . S
C2839 H2853 0.961 . S
C2839 H2854 0.961 . S
C2839 H2855 0.961 . S
C2840 C2841 1.370 . S
C2840 C2842 1.363 . S
C2840 H2856 0.931 . S
C2841 C2840 1.370 . S
C2841 C2845 1.408 . S
C2842 C2840 1.363 . S
C2842 C2843 1.370 . S
C2842 C2846 1.524 . S
C2843 C2835 1.503 . S
C2843 C2842 1.370 . S
C2843 C2844 1.403 . S
C2844 C2843 1.403 . S
C2844 C2845 1.404 . S
C2844 C2847 1.539 . S
C2845 C2841 1.408 . S
C2845 C2844 1.404 . S
C2845 H2857 0.930 . S
C2846 C2842 1.524 . S
C2846 H2858 0.956 . S
C2846 H2859 0.961 . S
C2846 H2860 0.961 . S
C2847 C2844 1.539 . S
C2847 H2861 0.958 . S
C2847 H2862 0.961 . S
C2847 H2863 0.960 . S
H2848 C2832 0.931 . S
H2849 C2837 0.929 . S
H2850 C2838 0.960 . S
H2851 C2838 0.962 . S
H2852 C2838 0.960 . S
H2853 C2839 0.961 . S
H2854 C2839 0.961 . S
H2855 C2839 0.961 . S
H2856 C2840 0.931 . S
H2857 C2845 0.930 . S
H2858 C2846 0.956 . S
H2859 C2846 0.961 . S
H2860 C2846 0.961 . S
H2861 C2847 0.958 . S
H2862 C2847 0.961 . S
H2863 C2847 0.960 . S
C2864 C2865 1.391 . S
C2864 C2866 1.394 . S
C2864 H2880 0.931 . S
C2865 C2864 1.391 . S
C2865 C2869 1.376 . S
C2866 C2864 1.394 . S
C2866 C2867 1.369 . S
C2866 C2870 1.531 . S
C2867 C2866 1.369 . S
C2867 C2868 1.410 . S
C2867 C2875 1.503 . S
C2868 C2867 1.410 . S
C2868 C2869 1.392 . S
C2868 C2871 1.511 . S
C2869 C2865 1.376 . S
C2869 C2868 1.392 . S
C2869 H2881 0.929 . S
C2870 C2866 1.531 . S
C2870 H2882 0.960 . S
C2870 H2883 0.962 . S
C2870 H2884 0.960 . S
C2871 C2868 1.511 . S
C2871 H2885 0.961 . S
C2871 H2886 0.961 . S
C2871 H2887 0.961 . S
C2872 C2873 1.370 . S
C2872 C2874 1.363 . S
C2872 H2888 0.931 . S
C2873 C2872 1.370 . S
C2873 C2877 1.408 . S
C2874 C2872 1.363 . S
C2874 C2875 1.370 . S
C2874 C2878 1.524 . S
C2875 C2867 1.503 . S
C2875 C2874 1.370 . S
C2875 C2876 1.403 . S
C2876 C2875 1.403 . S
C2876 C2877 1.404 . S
C2876 C2879 1.539 . S
C2877 C2873 1.408 . S
C2877 C2876 1.404 . S
C2877 H2889 0.930 . S
C2878 C2874 1.524 . S
C2878 H2890 0.956 . S
C2878 H2891 0.961 . S
C2878 H2892 0.961 . S
C2879 C2876 1.539 . S
C2879 H2893 0.958 . S
C2879 H2894 0.961 . S
C2879 H2895 0.960 . S
H2880 C2864 0.931 . S
H2881 C2869 0.929 . S
H2882 C2870 0.960 . S
H2883 C2870 0.962 . S
H2884 C2870 0.960 . S
H2885 C2871 0.961 . S
H2886 C2871 0.961 . S
H2887 C2871 0.961 . S
H2888 C2872 0.931 . S
H2889 C2877 0.930 . S
H2890 C2878 0.956 . S
H2891 C2878 0.961 . S
H2892 C2878 0.961 . S
H2893 C2879 0.958 . S
H2894 C2879 0.961 . S
H2895 C2879 0.960 . S
C2896 C2897 1.391 . S
C2896 C2898 1.394 . S
C2896 H2912 0.931 . S
C2897 C2896 1.391 . S
C2897 C2901 1.376 . S
C2898 C2896 1.394 . S
C2898 C2899 1.369 . S
C2898 C2902 1.531 . S
C2899 C2898 1.369 . S
C2899 C2900 1.410 . S
C2899 C2907 1.503 . S
C2900 C2899 1.410 . S
C2900 C2901 1.392 . S
C2900 C2903 1.511 . S
C2901 C2897 1.376 . S
C2901 C2900 1.392 . S
C2901 H2913 0.929 . S
C2902 C2898 1.531 . S
C2902 H2914 0.960 . S
C2902 H2915 0.962 . S
C2902 H2916 0.960 . S
C2903 C2900 1.511 . S
C2903 H2917 0.961 . S
C2903 H2918 0.961 . S
C2903 H2919 0.961 . S
C2904 C2905 1.370 . S
C2904 C2906 1.363 . S
C2904 H2920 0.931 . S
C2905 C2904 1.370 . S
C2905 C2909 1.408 . S
C2906 C2904 1.363 . S
C2906 C2907 1.370 . S
C2906 C2910 1.524 . S
C2907 C2899 1.503 . S
C2907 C2906 1.370 . S
C2907 C2908 1.403 . S
C2908 C2907 1.403 . S
C2908 C2909 1.404 . S
C2908 C2911 1.539 . S
C2909 C2905 1.408 . S
C2909 C2908 1.404 . S
C2909 H2921 0.930 . S
C2910 C2906 1.524 . S
C2910 H2922 0.956 . S
C2910 H2923 0.961 . S
C2910 H2924 0.961 . S
C2911 C2908 1.539 . S
C2911 H2925 0.958 . S
C2911 H2926 0.961 . S
C2911 H2927 0.960 . S
H2912 C2896 0.931 . S
H2913 C2901 0.929 . S
H2914 C2902 0.960 . S
H2915 C2902 0.962 . S
H2916 C2902 0.960 . S
H2917 C2903 0.961 . S
H2918 C2903 0.961 . S
H2919 C2903 0.961 . S
H2920 C2904 0.931 . S
H2921 C2909 0.930 . S
H2922 C2910 0.956 . S
H2923 C2910 0.961 . S
H2924 C2910 0.961 . S
H2925 C2911 0.958 . S
H2926 C2911 0.961 . S
H2927 C2911 0.960 . S
C2928 C2929 1.391 . S
C2928 C2930 1.394 . S
C2928 H2944 0.931 . S
C2929 C2928 1.391 . S
C2929 C2933 1.376 . S
C2930 C2928 1.394 . S
C2930 C2931 1.369 . S
C2930 C2934 1.531 . S
C2931 C2930 1.369 . S
C2931 C2932 1.410 . S
C2931 C2939 1.503 . S
C2932 C2931 1.410 . S
C2932 C2933 1.392 . S
C2932 C2935 1.511 . S
C2933 C2929 1.376 . S
C2933 C2932 1.392 . S
C2933 H2945 0.929 . S
C2934 C2930 1.531 . S
C2934 H2946 0.960 . S
C2934 H2947 0.962 . S
C2934 H2948 0.960 . S
C2935 C2932 1.511 . S
C2935 H2949 0.961 . S
C2935 H2950 0.961 . S
C2935 H2951 0.961 . S
C2936 C2937 1.370 . S
C2936 C2938 1.363 . S
C2936 H2952 0.931 . S
C2937 C2936 1.370 . S
C2937 C2941 1.408 . S
C2938 C2936 1.363 . S
C2938 C2939 1.370 . S
C2938 C2942 1.524 . S
C2939 C2931 1.503 . S
C2939 C2938 1.370 . S
C2939 C2940 1.403 . S
C2940 C2939 1.403 . S
C2940 C2941 1.404 . S
C2940 C2943 1.539 . S
C2941 C2937 1.408 . S
C2941 C2940 1.404 . S
C2941 H2953 0.930 . S
C2942 C2938 1.524 . S
C2942 H2954 0.956 . S
C2942 H2955 0.961 . S
C2942 H2956 0.961 . S
C2943 C2940 1.539 . S
C2943 H2957 0.958 . S
C2943 H2958 0.961 . S
C2943 H2959 0.960 . S
H2944 C2928 0.931 . S
H2945 C2933 0.929 . S
H2946 C2934 0.960 . S
H2947 C2934 0.962 . S
H2948 C2934 0.960 . S
H2949 C2935 0.961 . S
H2950 C2935 0.961 . S
H2951 C2935 0.961 . S
H2952 C2936 0.931 . S
H2953 C2941 0.930 . S
H2954 C2942 0.956 . S
H2955 C2942 0.961 . S
H2956 C2942 0.961 . S
H2957 C2943 0.958 . S
H2958 C2943 0.961 . S
H2959 C2943 0.960 . S
C2960 C2961 1.391 . S
C2960 C2962 1.394 . S
C2960 H2976 0.931 . S
C2961 C2960 1.391 . S
C2961 C2965 1.376 . S
C2962 C2960 1.394 . S
C2962 C2963 1.369 . S
C2962 C2966 1.531 . S
C2963 C2962 1.369 . S
C2963 C2964 1.410 . S
C2963 C2971 1.503 . S
C2964 C2963 1.410 . S
C2964 C2965 1.392 . S
C2964 C2967 1.511 . S
C2965 C2961 1.376 . S
C2965 C2964 1.392 . S
C2965 H2977 0.929 . S
C2966 C2962 1.531 . S
C2966 H2978 0.960 . S
C2966 H2979 0.962 . S
C2966 H2980 0.960 . S
C2967 C2964 1.511 . S
C2967 H2981 0.961 . S
C2967 H2982 0.961 . S
C2967 H2983 0.961 . S
C2968 C2969 1.370 . S
C2968 C2970 1.363 . S
C2968 H2984 0.931 . S
C2969 C2968 1.370 . S
C2969 C2973 1.408 . S
C2970 C2968 1.363 . S
C2970 C2971 1.370 . S
C2970 C2974 1.524 . S
C2971 C2963 1.503 . S
C2971 C2970 1.370 . S
C2971 C2972 1.403 . S
C2972 C2971 1.403 . S
C2972 C2973 1.404 . S
C2972 C2975 1.539 . S
C2973 C2969 1.408 . S
C2973 C2972 1.404 . S
C2973 H2985 0.930 . S
C2974 C2970 1.524 . S
C2974 H2986 0.956 . S
C2974 H2987 0.961 . S
C2974 H2988 0.961 . S
C2975 C2972 1.539 . S
C2975 H2989 0.958 . S
C2975 H2990 0.961 . S
C2975 H2991 0.960 . S
H2976 C2960 0.931 . S
H2977 C2965 0.929 . S
H2978 C2966 0.960 . S
H2979 C2966 0.962 . S
H2980 C2966 0.960 . S
H2981 C2967 0.961 . S
H2982 C2967 0.961 . S
H2983 C2967 0.961 . S
H2984 C2968 0.931 . S
H2985 C2973 0.930 . S
H2986 C2974 0.956 . S
H2987 C2974 0.961 . S
H2988 C2974 0.961 . S
H2989 C2975 0.958 . S
H2990 C2975 0.961 . S
H2991 C2975 0.960 . S
C2992 C2993 1.391 . S
C2992 C2994 1.394 . S
C2992 H3008 0.931 . S
C2993 C2992 1.391 . S
C2993 C2997 1.376 . S
C2994 C2992 1.394 . S
C2994 C2995 1.369 . S
C2994 C2998 1.531 . S
C2995 C2994 1.369 . S
C2995 C2996 1.410 . S
C2995 C3003 1.503 . S
C2996 C2995 1.410 . S
C2996 C2997 1.392 . S
C2996 C2999 1.511 . S
C2997 C2993 1.376 . S
C2997 C2996 1.392 . S
C2997 H3009 0.929 . S
C2998 C2994 1.531 . S
C2998 H3010 0.960 . S
C2998 H3011 0.962 . S
C2998 H3012 0.960 . S
C2999 C2996 1.511 . S
C2999 H3013 0.961 . S
C2999 H3014 0.961 . S
C2999 H3015 0.961 . S
C3000 C3001 1.370 . S
C3000 C3002 1.363 . S
C3000 H3016 0.931 . S
C3001 C3000 1.370 . S
C3001 C3005 1.408 . S
C3002 C3000 1.363 . S
C3002 C3003 1.370 . S
C3002 C3006 1.524 . S
C3003 C2995 1.503 . S
C3003 C3002 1.370 . S
C3003 C3004 1.403 . S
C3004 C3003 1.403 . S
C3004 C3005 1.404 . S
C3004 C3007 1.539 . S
C3005 C3001 1.408 . S
C3005 C3004 1.404 . S
C3005 H3017 0.930 . S
C3006 C3002 1.524 . S
C3006 H3018 0.956 . S
C3006 H3019 0.961 . S
C3006 H3020 0.961 . S
C3007 C3004 1.539 . S
C3007 H3021 0.958 . S
C3007 H3022 0.961 . S
C3007 H3023 0.960 . S
H3008 C2992 0.931 . S
H3009 C2997 0.929 . S
H3010 C2998 0.960 . S
H3011 C2998 0.962 . S
H3012 C2998 0.960 . S
H3013 C2999 0.961 . S
H3014 C2999 0.961 . S
H3015 C2999 0.961 . S
H3016 C3000 0.931 . S
H3017 C3005 0.930 . S
H3018 C3006 0.956 . S
H3019 C3006 0.961 . S
H3020 C3006 0.961 . S
H3021 C3007 0.958 . S
H3022 C3007 0.961 . S
H3023 C3007 0.960 . S
C3024 C3025 1.391 . S
C3024 C3026 1.394 . S
C3024 H3040 0.931 . S
C3025 C3024 1.391 . S
C3025 C3029 1.376 . S
C3026 C3024 1.394 . S
C3026 C3027 1.369 . S
C3026 C3030 1.531 . S
C3027 C3026 1.369 . S
C3027 C3028 1.410 . S
C3027 C3035 1.503 . S
C3028 C3027 1.410 . S
C3028 C3029 1.392 . S
C3028 C3031 1.511 . S
C3029 C3025 1.376 . S
C3029 C3028 1.392 . S
C3029 H3041 0.929 . S
C3030 C3026 1.531 . S
C3030 H3042 0.960 . S
C3030 H3043 0.962 . S
C3030 H3044 0.960 . S
C3031 C3028 1.511 . S
C3031 H3045 0.961 . S
C3031 H3046 0.961 . S
C3031 H3047 0.961 . S
C3032 C3033 1.370 . S
C3032 C3034 1.363 . S
C3032 H3048 0.931 . S
C3033 C3032 1.370 . S
C3033 C3037 1.408 . S
C3034 C3032 1.363 . S
C3034 C3035 1.370 . S
C3034 C3038 1.524 . S
C3035 C3027 1.503 . S
C3035 C3034 1.370 . S
C3035 C3036 1.403 . S
C3036 C3035 1.403 . S
C3036 C3037 1.404 . S
C3036 C3039 1.539 . S
C3037 C3033 1.408 . S
C3037 C3036 1.404 . S
C3037 H3049 0.930 . S
C3038 C3034 1.524 . S
C3038 H3050 0.956 . S
C3038 H3051 0.961 . S
C3038 H3052 0.961 . S
C3039 C3036 1.539 . S
C3039 H3053 0.958 . S
C3039 H3054 0.961 . S
C3039 H3055 0.960 . S
H3040 C3024 0.931 . S
H3041 C3029 0.929 . S
H3042 C3030 0.960 . S
H3043 C3030 0.962 . S
H3044 C3030 0.960 . S
H3045 C3031 0.961 . S
H3046 C3031 0.961 . S
H3047 C3031 0.961 . S
H3048 C3032 0.931 . S
H3049 C3037 0.930 . S
H3050 C3038 0.956 . S
H3051 C3038 0.961 . S
H3052 C3038 0.961 . S
H3053 C3039 0.958 . S
H3054 C3039 0.961 . S
H3055 C3039 0.960 . S
C3056 C3057 1.391 . S
C3056 C3058 1.394 . S
C3056 H3072 0.931 . S
C3057 C3056 1.391 . S
C3057 C3061 1.376 . S
C3058 C3056 1.394 . S
C3058 C3059 1.369 . S
C3058 C3062 1.531 . S
C3059 C3058 1.369 . S
C3059 C3060 1.410 . S
C3059 C3067 1.503 . S
C3060 C3059 1.410 . S
C3060 C3061 1.392 . S
C3060 C3063 1.511 . S
C3061 C3057 1.376 . S
C3061 C3060 1.392 . S
C3061 H3073 0.929 . S
C3062 C3058 1.531 . S
C3062 H3074 0.960 . S
C3062 H3075 0.962 . S
C3062 H3076 0.960 . S
C3063 C3060 1.511 . S
C3063 H3077 0.961 . S
C3063 H3078 0.961 . S
C3063 H3079 0.961 . S
C3064 C3065 1.370 . S
C3064 C3066 1.363 . S
C3064 H3080 0.931 . S
C3065 C3064 1.370 . S
C3065 C3069 1.408 . S
C3066 C3064 1.363 . S
C3066 C3067 1.370 . S
C3066 C3070 1.524 . S
C3067 C3059 1.503 . S
C3067 C3066 1.370 . S
C3067 C3068 1.403 . S
C3068 C3067 1.403 . S
C3068 C3069 1.404 . S
C3068 C3071 1.539 . S
C3069 C3065 1.408 . S
C3069 C3068 1.404 . S
C3069 H3081 0.930 . S
C3070 C3066 1.524 . S
C3070 H3082 0.956 . S
C3070 H3083 0.961 . S
C3070 H3084 0.961 . S
C3071 C3068 1.539 . S
C3071 H3085 0.958 . S
C3071 H3086 0.961 . S
C3071 H3087 0.960 . S
H3072 C3056 0.931 . S
H3073 C3061 0.929 . S
H3074 C3062 0.960 . S
H3075 C3062 0.962 . S
H3076 C3062 0.960 . S
H3077 C3063 0.961 . S
H3078 C3063 0.961 . S
H3079 C3063 0.961 . S
H3080 C3064 0.931 . S
H3081 C3069 0.930 . S
H3082 C3070 0.956 . S
H3083 C3070 0.961 . S
H3084 C3070 0.961 . S
H3085 C3071 0.958 . S
H3086 C3071 0.961 . S
H3087 C3071 0.960 . S
C3088 C3089 1.391 . S
C3088 C3090 1.394 . S
C3088 H3104 0.931 . S
C3089 C3088 1.391 . S
C3089 C3093 1.376 . S
C3090 C3088 1.394 . S
C3090 C3091 1.369 . S
C3090 C3094 1.531 . S
C3091 C3090 1.369 . S
C3091 C3092 1.410 . S
C3091 C3099 1.503 . S
C3092 C3091 1.410 . S
C3092 C3093 1.392 . S
C3092 C3095 1.511 . S
C3093 C3089 1.376 . S
C3093 C3092 1.392 . S
C3093 H3105 0.929 . S
C3094 C3090 1.531 . S
C3094 H3106 0.960 . S
C3094 H3107 0.962 . S
C3094 H3108 0.960 . S
C3095 C3092 1.511 . S
C3095 H3109 0.961 . S
C3095 H3110 0.961 . S
C3095 H3111 0.961 . S
C3096 C3097 1.370 . S
C3096 C3098 1.363 . S
C3096 H3112 0.931 . S
C3097 C3096 1.370 . S
C3097 C3101 1.408 . S
C3098 C3096 1.363 . S
C3098 C3099 1.370 . S
C3098 C3102 1.524 . S
C3099 C3091 1.503 . S
C3099 C3098 1.370 . S
C3099 C3100 1.403 . S
C3100 C3099 1.403 . S
C3100 C3101 1.404 . S
C3100 C3103 1.539 . S
C3101 C3097 1.408 . S
C3101 C3100 1.404 . S
C3101 H3113 0.930 . S
C3102 C3098 1.524 . S
C3102 H3114 0.956 . S
C3102 H3115 0.961 . S
C3102 H3116 0.961 . S
C3103 C3100 1.539 . S
C3103 H3117 0.958 . S
C3103 H3118 0.961 . S
C3103 H3119 0.960 . S
H3104 C3088 0.931 . S
H3105 C3093 0.929 . S
H3106 C3094 0.960 . S
H3107 C3094 0.962 . S
H3108 C3094 0.960 . S
H3109 C3095 0.961 . S
H3110 C3095 0.961 . S
H3111 C3095 0.961 . S
H3112 C3096 0.931 . S
H3113 C3101 0.930 . S
H3114 C3102 0.956 . S
H3115 C3102 0.961 . S
H3116 C3102 0.961 . S
H3117 C3103 0.958 . S
H3118 C3103 0.961 . S
H3119 C3103 0.960 . S
C3120 C3121 1.391 . S
C3120 C3122 1.394 . S
C3120 H3136 0.931 . S
C3121 C3120 1.391 . S
C3121 C3125 1.376 1_554 S
C3122 C3120 1.394 . S
C3122 C3123 1.369 . S
C3122 C3126 1.531 . S
C3123 C3122 1.369 . S
C3123 C3124 1.410 . S
C3123 C3131 1.503 . S
C3124 C3123 1.410 . S
C3124 C3125 1.392 1_554 S
C3124 C3127 1.511 1_554 S
C3125 C3121 1.376 1_556 S
C3125 C3124 1.392 1_556 S
C3125 H3137 0.929 . S
C3126 C3122 1.531 . S
C3126 H3138 0.960 . S
C3126 H3139 0.962 . S
C3126 H3140 0.960 . S
C3127 C3124 1.511 1_556 S
C3127 H3141 0.961 . S
C3127 H3142 0.961 . S
C3127 H3143 0.961 . S
C3128 C3129 1.370 . S
C3128 C3130 1.363 . S
C3128 H3144 0.931 . S
C3129 C3128 1.370 . S
C3129 C3133 1.408 . S
C3130 C3128 1.363 . S
C3130 C3131 1.370 . S
C3130 C3134 1.524 . S
C3131 C3123 1.503 . S
C3131 C3130 1.370 . S
C3131 C3132 1.403 . S
C3132 C3131 1.403 . S
C3132 C3133 1.404 . S
C3132 C3135 1.554 . S
C3133 C3129 1.408 . S
C3133 C3132 1.404 . S
C3133 H3145 0.930 . S
C3134 C3130 1.524 . S
C3134 H3146 0.956 . S
C3134 H3147 0.961 . S
C3134 H3148 0.961 . S
C3135 C3132 1.554 . S
C3135 H3149 0.971 . S
C3135 H3150 0.942 1_554 S
C3135 H3151 0.952 1_554 S
H3136 C3120 0.931 . S
H3137 C3125 0.929 . S
H3138 C3126 0.960 . S
H3139 C3126 0.962 . S
H3140 C3126 0.960 . S
H3141 C3127 0.961 . S
H3142 C3127 0.961 . S
H3143 C3127 0.961 . S
H3144 C3128 0.931 . S
H3145 C3133 0.930 . S
H3146 C3134 0.956 . S
H3147 C3134 0.961 . S
H3148 C3134 0.961 . S
H3149 C3135 0.971 . S
H3150 C3135 0.942 1_556 S
H3151 C3135 0.952 1_556 S
C3152 C3153 1.391 . S
C3152 C3154 1.394 . S
C3152 H3168 0.931 . S
C3153 C3152 1.391 . S
C3153 C3157 1.376 . S
C3154 C3152 1.394 . S
C3154 C3155 1.369 . S
C3154 C3158 1.531 . S
C3155 C3154 1.369 . S
C3155 C3156 1.410 . S
C3155 C3163 1.503 . S
C3156 C3155 1.410 . S
C3156 C3157 1.392 . S
C3156 C3159 1.511 . S
C3157 C3153 1.376 . S
C3157 C3156 1.392 . S
C3157 H3169 0.929 . S
C3158 C3154 1.531 . S
C3158 H3170 0.960 . S
C3158 H3171 0.962 . S
C3158 H3172 0.960 . S
C3159 C3156 1.511 . S
C3159 H3173 0.961 . S
C3159 H3174 0.961 . S
C3159 H3175 0.961 . S
C3160 C3161 1.370 . S
C3160 C3162 1.363 . S
C3160 H3176 0.931 . S
C3161 C3160 1.370 . S
C3161 C3165 1.408 . S
C3162 C3160 1.363 . S
C3162 C3163 1.370 . S
C3162 C3166 1.524 . S
C3163 C3155 1.503 . S
C3163 C3162 1.370 . S
C3163 C3164 1.403 . S
C3164 C3163 1.403 . S
C3164 C3165 1.404 . S
C3164 C3167 1.539 . S
C3165 C3161 1.408 . S
C3165 C3164 1.404 . S
C3165 H3177 0.930 . S
C3166 C3162 1.524 . S
C3166 H3178 0.956 . S
C3166 H3179 0.961 . S
C3166 H3180 0.961 . S
C3167 C3164 1.539 . S
C3167 H3181 0.958 . S
C3167 H3182 0.961 . S
C3167 H3183 0.960 . S
H3168 C3152 0.931 . S
H3169 C3157 0.929 . S
H3170 C3158 0.960 . S
H3171 C3158 0.962 . S
H3172 C3158 0.960 . S
H3173 C3159 0.961 . S
H3174 C3159 0.961 . S
H3175 C3159 0.961 . S
H3176 C3160 0.931 . S
H3177 C3165 0.930 . S
H3178 C3166 0.956 . S
H3179 C3166 0.961 . S
H3180 C3166 0.961 . S
H3181 C3167 0.958 . S
H3182 C3167 0.961 . S
H3183 C3167 0.960 . S
C3184 C3185 1.391 . S
C3184 C3186 1.394 . S
C3184 H3200 0.931 . S
C3185 C3184 1.391 . S
C3185 C3189 1.376 . S
C3186 C3184 1.394 . S
C3186 C3187 1.369 . S
C3186 C3190 1.531 . S
C3187 C3186 1.369 . S
C3187 C3188 1.410 . S
C3187 C3195 1.503 . S
C3188 C3187 1.410 . S
C3188 C3189 1.392 . S
C3188 C3191 1.511 . S
C3189 C3185 1.376 . S
C3189 C3188 1.392 . S
C3189 H3201 0.929 . S
C3190 C3186 1.531 . S
C3190 H3202 0.960 . S
C3190 H3203 0.962 . S
C3190 H3204 0.960 . S
C3191 C3188 1.511 . S
C3191 H3205 0.961 . S
C3191 H3206 0.961 . S
C3191 H3207 0.961 . S
C3192 C3193 1.370 . S
C3192 C3194 1.363 . S
C3192 H3208 0.931 . S
C3193 C3192 1.370 . S
C3193 C3197 1.408 . S
C3194 C3192 1.363 . S
C3194 C3195 1.370 . S
C3194 C3198 1.524 . S
C3195 C3187 1.503 . S
C3195 C3194 1.370 . S
C3195 C3196 1.403 . S
C3196 C3195 1.403 . S
C3196 C3197 1.404 . S
C3196 C3199 1.539 . S
C3197 C3193 1.408 . S
C3197 C3196 1.404 . S
C3197 H3209 0.930 . S
C3198 C3194 1.524 . S
C3198 H3210 0.956 . S
C3198 H3211 0.961 . S
C3198 H3212 0.961 . S
C3199 C3196 1.539 . S
C3199 H3213 0.958 . S
C3199 H3214 0.961 . S
C3199 H3215 0.960 . S
H3200 C3184 0.931 . S
H3201 C3189 0.929 . S
H3202 C3190 0.960 . S
H3203 C3190 0.962 . S
H3204 C3190 0.960 . S
H3205 C3191 0.961 . S
H3206 C3191 0.961 . S
H3207 C3191 0.961 . S
H3208 C3192 0.931 . S
H3209 C3197 0.930 . S
H3210 C3198 0.956 . S
H3211 C3198 0.961 . S
H3212 C3198 0.961 . S
H3213 C3199 0.958 . S
H3214 C3199 0.961 . S
H3215 C3199 0.960 . S
C3216 C3217 1.391 . S
C3216 C3218 1.394 . S
C3216 H3232 0.931 . S
C3217 C3216 1.391 . S
C3217 C3221 1.376 . S
C3218 C3216 1.394 . S
C3218 C3219 1.369 . S
C3218 C3222 1.531 . S
C3219 C3218 1.369 . S
C3219 C3220 1.410 . S
C3219 C3227 1.503 . S
C3220 C3219 1.410 . S
C3220 C3221 1.392 . S
C3220 C3223 1.511 . S
C3221 C3217 1.376 . S
C3221 C3220 1.392 . S
C3221 H3233 0.929 . S
C3222 C3218 1.531 . S
C3222 H3234 0.960 . S
C3222 H3235 0.962 . S
C3222 H3236 0.960 . S
C3223 C3220 1.511 . S
C3223 H3237 0.961 . S
C3223 H3238 0.961 . S
C3223 H3239 0.961 . S
C3224 C3225 1.370 . S
C3224 C3226 1.363 . S
C3224 H3240 0.931 . S
C3225 C3224 1.370 . S
C3225 C3229 1.408 . S
C3226 C3224 1.363 . S
C3226 C3227 1.370 . S
C3226 C3230 1.524 . S
C3227 C3219 1.503 . S
C3227 C3226 1.370 . S
C3227 C3228 1.403 . S
C3228 C3227 1.403 . S
C3228 C3229 1.404 . S
C3228 C3231 1.539 . S
C3229 C3225 1.408 . S
C3229 C3228 1.404 . S
C3229 H3241 0.930 . S
C3230 C3226 1.524 . S
C3230 H3242 0.956 . S
C3230 H3243 0.961 . S
C3230 H3244 0.961 . S
C3231 C3228 1.539 . S
C3231 H3245 0.958 . S
C3231 H3246 0.961 . S
C3231 H3247 0.960 . S
H3232 C3216 0.931 . S
H3233 C3221 0.929 . S
H3234 C3222 0.960 . S
H3235 C3222 0.962 . S
H3236 C3222 0.960 . S
H3237 C3223 0.961 . S
H3238 C3223 0.961 . S
H3239 C3223 0.961 . S
H3240 C3224 0.931 . S
H3241 C3229 0.930 . S
H3242 C3230 0.956 . S
H3243 C3230 0.961 . S
H3244 C3230 0.961 . S
H3245 C3231 0.958 . S
H3246 C3231 0.961 . S
H3247 C3231 0.960 . S
C3248 C3249 1.391 . S
C3248 C3250 1.394 . S
C3248 H3264 0.931 . S
C3249 C3248 1.391 . S
C3249 C3253 1.376 . S
C3250 C3248 1.394 . S
C3250 C3251 1.369 . S
C3250 C3254 1.531 . S
C3251 C3250 1.369 . S
C3251 C3252 1.410 . S
C3251 C3259 1.503 . S
C3252 C3251 1.410 . S
C3252 C3253 1.392 . S
C3252 C3255 1.511 . S
C3253 C3249 1.376 . S
C3253 C3252 1.392 . S
C3253 H3265 0.929 . S
C3254 C3250 1.531 . S
C3254 H3266 0.960 . S
C3254 H3267 0.962 . S
C3254 H3268 0.960 . S
C3255 C3252 1.511 . S
C3255 H3269 0.961 . S
C3255 H3270 0.961 . S
C3255 H3271 0.961 . S
C3256 C3257 1.370 . S
C3256 C3258 1.363 . S
C3256 H3272 0.931 . S
C3257 C3256 1.370 . S
C3257 C3261 1.408 . S
C3258 C3256 1.363 . S
C3258 C3259 1.370 . S
C3258 C3262 1.524 . S
C3259 C3251 1.503 . S
C3259 C3258 1.370 . S
C3259 C3260 1.403 . S
C3260 C3259 1.403 . S
C3260 C3261 1.404 . S
C3260 C3263 1.539 . S
C3261 C3257 1.408 . S
C3261 C3260 1.404 . S
C3261 H3273 0.930 . S
C3262 C3258 1.524 . S
C3262 H3274 0.956 . S
C3262 H3275 0.961 . S
C3262 H3276 0.961 . S
C3263 C3260 1.539 . S
C3263 H3277 0.958 . S
C3263 H3278 0.961 . S
C3263 H3279 0.960 . S
H3264 C3248 0.931 . S
H3265 C3253 0.929 . S
H3266 C3254 0.960 . S
H3267 C3254 0.962 . S
H3268 C3254 0.960 . S
H3269 C3255 0.961 . S
H3270 C3255 0.961 . S
H3271 C3255 0.961 . S
H3272 C3256 0.931 . S
H3273 C3261 0.930 . S
H3274 C3262 0.956 . S
H3275 C3262 0.961 . S
H3276 C3262 0.961 . S
H3277 C3263 0.958 . S
H3278 C3263 0.961 . S
H3279 C3263 0.960 . S
C3280 C3281 1.391 . S
C3280 C3282 1.394 . S
C3280 H3296 0.931 . S
C3281 C3280 1.391 . S
C3281 C3285 1.376 . S
C3282 C3280 1.394 . S
C3282 C3283 1.369 . S
C3282 C3286 1.531 . S
C3283 C3282 1.369 . S
C3283 C3284 1.410 . S
C3283 C3291 1.503 . S
C3284 C3283 1.410 . S
C3284 C3285 1.392 . S
C3284 C3287 1.511 . S
C3285 C3281 1.376 . S
C3285 C3284 1.392 . S
C3285 H3297 0.929 . S
C3286 C3282 1.531 . S
C3286 H3298 0.960 . S
C3286 H3299 0.962 . S
C3286 H3300 0.960 . S
C3287 C3284 1.511 . S
C3287 H3301 0.961 . S
C3287 H3302 0.961 . S
C3287 H3303 0.961 . S
C3288 C3289 1.370 . S
C3288 C3290 1.363 . S
C3288 H3304 0.931 . S
C3289 C3288 1.370 . S
C3289 C3293 1.408 . S
C3290 C3288 1.363 . S
C3290 C3291 1.370 . S
C3290 C3294 1.524 . S
C3291 C3283 1.503 . S
C3291 C3290 1.370 . S
C3291 C3292 1.403 . S
C3292 C3291 1.403 . S
C3292 C3293 1.404 . S
C3292 C3295 1.539 . S
C3293 C3289 1.408 . S
C3293 C3292 1.404 . S
C3293 H3305 0.930 . S
C3294 C3290 1.524 . S
C3294 H3306 0.956 . S
C3294 H3307 0.961 . S
C3294 H3308 0.961 . S
C3295 C3292 1.539 . S
C3295 H3309 0.958 . S
C3295 H3310 0.961 . S
C3295 H3311 0.960 . S
H3296 C3280 0.931 . S
H3297 C3285 0.929 . S
H3298 C3286 0.960 . S
H3299 C3286 0.962 . S
H3300 C3286 0.960 . S
H3301 C3287 0.961 . S
H3302 C3287 0.961 . S
H3303 C3287 0.961 . S
H3304 C3288 0.931 . S
H3305 C3293 0.930 . S
H3306 C3294 0.956 . S
H3307 C3294 0.961 . S
H3308 C3294 0.961 . S
H3309 C3295 0.958 . S
H3310 C3295 0.961 . S
H3311 C3295 0.960 . S
C3312 C3313 1.391 . S
C3312 C3314 1.394 . S
C3312 H3328 0.931 . S
C3313 C3312 1.391 . S
C3313 C3317 1.376 . S
C3314 C3312 1.394 . S
C3314 C3315 1.369 . S
C3314 C3318 1.531 . S
C3315 C3314 1.369 . S
C3315 C3316 1.410 . S
C3315 C3323 1.503 . S
C3316 C3315 1.410 . S
C3316 C3317 1.392 . S
C3316 C3319 1.511 . S
C3317 C3313 1.376 . S
C3317 C3316 1.392 . S
C3317 H3329 0.929 . S
C3318 C3314 1.531 . S
C3318 H3330 0.960 . S
C3318 H3331 0.962 . S
C3318 H3332 0.960 . S
C3319 C3316 1.511 . S
C3319 H3333 0.961 . S
C3319 H3334 0.961 . S
C3319 H3335 0.961 . S
C3320 C3321 1.370 . S
C3320 C3322 1.363 . S
C3320 H3336 0.931 . S
C3321 C3320 1.370 . S
C3321 C3325 1.408 . S
C3322 C3320 1.363 . S
C3322 C3323 1.370 . S
C3322 C3326 1.524 . S
C3323 C3315 1.503 . S
C3323 C3322 1.370 . S
C3323 C3324 1.403 . S
C3324 C3323 1.403 . S
C3324 C3325 1.404 . S
C3324 C3327 1.539 . S
C3325 C3321 1.408 . S
C3325 C3324 1.404 . S
C3325 H3337 0.930 . S
C3326 C3322 1.524 . S
C3326 H3338 0.956 . S
C3326 H3339 0.961 . S
C3326 H3340 0.961 . S
C3327 C3324 1.539 . S
C3327 H3341 0.958 . S
C3327 H3342 0.961 . S
C3327 H3343 0.960 . S
H3328 C3312 0.931 . S
H3329 C3317 0.929 . S
H3330 C3318 0.960 . S
H3331 C3318 0.962 . S
H3332 C3318 0.960 . S
H3333 C3319 0.961 . S
H3334 C3319 0.961 . S
H3335 C3319 0.961 . S
H3336 C3320 0.931 . S
H3337 C3325 0.930 . S
H3338 C3326 0.956 . S
H3339 C3326 0.961 . S
H3340 C3326 0.961 . S
H3341 C3327 0.958 . S
H3342 C3327 0.961 . S
H3343 C3327 0.960 . S
C3344 C3345 1.391 . S
C3344 C3346 1.394 . S
C3344 H3360 0.931 . S
C3345 C3344 1.391 . S
C3345 C3349 1.376 . S
C3346 C3344 1.394 . S
C3346 C3347 1.369 . S
C3346 C3350 1.531 . S
C3347 C3346 1.369 . S
C3347 C3348 1.410 . S
C3347 C3355 1.503 . S
C3348 C3347 1.410 . S
C3348 C3349 1.392 . S
C3348 C3351 1.511 . S
C3349 C3345 1.376 . S
C3349 C3348 1.392 . S
C3349 H3361 0.929 . S
C3350 C3346 1.531 . S
C3350 H3362 0.960 . S
C3350 H3363 0.962 . S
C3350 H3364 0.960 . S
C3351 C3348 1.511 . S
C3351 H3365 0.961 . S
C3351 H3366 0.961 . S
C3351 H3367 0.961 . S
C3352 C3353 1.370 . S
C3352 C3354 1.363 . S
C3352 H3368 0.931 . S
C3353 C3352 1.370 . S
C3353 C3357 1.408 . S
C3354 C3352 1.363 . S
C3354 C3355 1.370 . S
C3354 C3358 1.524 . S
C3355 C3347 1.503 . S
C3355 C3354 1.370 . S
C3355 C3356 1.403 . S
C3356 C3355 1.403 . S
C3356 C3357 1.404 . S
C3356 C3359 1.539 . S
C3357 C3353 1.408 . S
C3357 C3356 1.404 . S
C3357 H3369 0.930 . S
C3358 C3354 1.524 . S
C3358 H3370 0.956 . S
C3358 H3371 0.961 . S
C3358 H3372 0.961 . S
C3359 C3356 1.539 . S
C3359 H3373 0.958 . S
C3359 H3374 0.961 . S
C3359 H3375 0.960 . S
H3360 C3344 0.931 . S
H3361 C3349 0.929 . S
H3362 C3350 0.960 . S
H3363 C3350 0.962 . S
H3364 C3350 0.960 . S
H3365 C3351 0.961 . S
H3366 C3351 0.961 . S
H3367 C3351 0.961 . S
H3368 C3352 0.931 . S
H3369 C3357 0.930 . S
H3370 C3358 0.956 . S
H3371 C3358 0.961 . S
H3372 C3358 0.961 . S
H3373 C3359 0.958 . S
H3374 C3359 0.961 . S
H3375 C3359 0.960 . S
C3376 C3377 1.391 . S
C3376 C3378 1.394 . S
C3376 H3392 0.931 . S
C3377 C3376 1.391 . S
C3377 C3381 1.376 . S
C3378 C3376 1.394 . S
C3378 C3379 1.369 . S
C3378 C3382 1.531 . S
C3379 C3378 1.369 . S
C3379 C3380 1.410 . S
C3379 C3387 1.503 . S
C3380 C3379 1.410 . S
C3380 C3381 1.392 . S
C3380 C3383 1.511 . S
C3381 C3377 1.376 . S
C3381 C3380 1.392 . S
C3381 H3393 0.929 . S
C3382 C3378 1.531 . S
C3382 H3394 0.960 . S
C3382 H3395 0.962 . S
C3382 H3396 0.960 . S
C3383 C3380 1.511 . S
C3383 H3397 0.961 . S
C3383 H3398 0.961 . S
C3383 H3399 0.961 . S
C3384 C3385 1.370 . S
C3384 C3386 1.363 . S
C3384 H3400 0.931 . S
C3385 C3384 1.370 . S
C3385 C3389 1.408 . S
C3386 C3384 1.363 . S
C3386 C3387 1.370 . S
C3386 C3390 1.524 . S
C3387 C3379 1.503 . S
C3387 C3386 1.370 . S
C3387 C3388 1.403 . S
C3388 C3387 1.403 . S
C3388 C3389 1.404 . S
C3388 C3391 1.539 . S
C3389 C3385 1.408 . S
C3389 C3388 1.404 . S
C3389 H3401 0.930 . S
C3390 C3386 1.524 . S
C3390 H3402 0.956 . S
C3390 H3403 0.961 . S
C3390 H3404 0.961 . S
C3391 C3388 1.539 . S
C3391 H3405 0.958 . S
C3391 H3406 0.961 . S
C3391 H3407 0.960 . S
H3392 C3376 0.931 . S
H3393 C3381 0.929 . S
H3394 C3382 0.960 . S
H3395 C3382 0.962 . S
H3396 C3382 0.960 . S
H3397 C3383 0.961 . S
H3398 C3383 0.961 . S
H3399 C3383 0.961 . S
H3400 C3384 0.931 . S
H3401 C3389 0.930 . S
H3402 C3390 0.956 . S
H3403 C3390 0.961 . S
H3404 C3390 0.961 . S
H3405 C3391 0.958 . S
H3406 C3391 0.961 . S
H3407 C3391 0.960 . S
C3408 C3409 1.391 . S
C3408 C3410 1.394 . S
C3408 H3424 0.931 . S
C3409 C3408 1.391 . S
C3409 C3413 1.376 . S
C3410 C3408 1.394 . S
C3410 C3411 1.369 . S
C3410 C3414 1.531 . S
C3411 C3410 1.369 . S
C3411 C3412 1.410 . S
C3411 C3419 1.503 . S
C3412 C3411 1.410 . S
C3412 C3413 1.392 . S
C3412 C3415 1.511 . S
C3413 C3409 1.376 . S
C3413 C3412 1.392 . S
C3413 H3425 0.929 . S
C3414 C3410 1.531 . S
C3414 H3426 0.960 . S
C3414 H3427 0.962 . S
C3414 H3428 0.960 . S
C3415 C3412 1.511 . S
C3415 H3429 0.961 . S
C3415 H3430 0.986 . S
C3415 H3431 0.961 . S
C3416 C3417 1.370 . S
C3416 C3418 1.363 . S
C3416 H3432 0.903 1_556 S
C3417 C3416 1.370 . S
C3417 C3421 1.408 . S
C3418 C3416 1.363 . S
C3418 C3419 1.370 . S
C3418 C3422 1.524 . S
C3419 C3411 1.503 . S
C3419 C3418 1.370 . S
C3419 C3420 1.403 . S
C3420 C3419 1.403 . S
C3420 C3421 1.404 . S
C3420 C3423 1.539 . S
C3421 C3417 1.408 . S
C3421 C3420 1.404 . S
C3421 H3433 0.930 . S
C3422 C3418 1.524 . S
C3422 H3434 0.956 . S
C3422 H3435 0.961 . S
C3422 H3436 0.961 . S
C3423 C3420 1.539 . S
C3423 H3437 0.958 . S
C3423 H3438 0.961 . S
C3423 H3439 0.960 . S
H3424 C3408 0.931 . S
H3425 C3413 0.929 . S
H3426 C3414 0.960 . S
H3427 C3414 0.962 . S
H3428 C3414 0.960 . S
H3429 C3415 0.961 . S
H3430 C3415 0.986 . S
H3431 C3415 0.961 . S
H3432 C3416 0.903 1_554 S
H3433 C3421 0.930 . S
H3434 C3422 0.956 . S
H3435 C3422 0.961 . S
H3436 C3422 0.961 . S
H3437 C3423 0.958 . S
H3438 C3423 0.961 . S
H3439 C3423 0.960 . S
C3440 C3441 1.391 . S
C3440 C3442 1.394 . S
C3440 H3456 0.931 . S
C3441 C3440 1.391 . S
C3441 C3445 1.376 . S
C3442 C3440 1.394 . S
C3442 C3443 1.369 . S
C3442 C3446 1.531 . S
C3443 C3442 1.369 . S
C3443 C3444 1.410 . S
C3443 C3451 1.503 . S
C3444 C3443 1.410 . S
C3444 C3445 1.392 . S
C3444 C3447 1.511 . S
C3445 C3441 1.376 . S
C3445 C3444 1.392 . S
C3445 H3457 0.929 . S
C3446 C3442 1.531 . S
C3446 H3458 0.960 . S
C3446 H3459 0.962 . S
C3446 H3460 0.960 . S
C3447 C3444 1.511 . S
C3447 H3461 0.961 . S
C3447 H3462 0.961 . S
C3447 H3463 0.961 . S
C3448 C3449 1.370 . S
C3448 C3450 1.363 . S
C3448 H3464 0.931 . S
C3449 C3448 1.370 . S
C3449 C3453 1.408 . S
C3450 C3448 1.363 . S
C3450 C3451 1.370 . S
C3450 C3454 1.524 . S
C3451 C3443 1.503 . S
C3451 C3450 1.370 . S
C3451 C3452 1.403 . S
C3452 C3451 1.403 . S
C3452 C3453 1.404 . S
C3452 C3455 1.539 . S
C3453 C3449 1.408 . S
C3453 C3452 1.404 . S
C3453 H3465 0.930 . S
C3454 C3450 1.524 . S
C3454 H3466 0.956 . S
C3454 H3467 0.961 . S
C3454 H3468 0.961 . S
C3455 C3452 1.539 . S
C3455 H3469 0.958 . S
C3455 H3470 0.961 . S
C3455 H3471 0.960 . S
H3456 C3440 0.931 . S
H3457 C3445 0.929 . S
H3458 C3446 0.960 . S
H3459 C3446 0.962 . S
H3460 C3446 0.960 . S
H3461 C3447 0.961 . S
H3462 C3447 0.961 . S
H3463 C3447 0.961 . S
H3464 C3448 0.931 . S
H3465 C3453 0.930 . S
H3466 C3454 0.956 . S
H3467 C3454 0.961 . S
H3468 C3454 0.961 . S
H3469 C3455 0.958 . S
H3470 C3455 0.961 . S
H3471 C3455 0.960 . S
C3472 C3473 1.391 . S
C3472 C3474 1.394 . S
C3472 H3488 0.931 . S
C3473 C3472 1.391 . S
C3473 C3477 1.376 1_455 S
C3474 C3472 1.394 . S
C3474 C3475 1.369 . S
C3474 C3478 1.531 . S
C3475 C3474 1.369 . S
C3475 C3476 1.410 1_455 S
C3475 C3483 1.503 . S
C3476 C3475 1.410 1_655 S
C3476 C3477 1.392 . S
C3476 C3479 1.511 . S
C3477 C3473 1.376 1_655 S
C3477 C3476 1.392 . S
C3477 H3489 0.929 . S
C3478 C3474 1.531 . S
C3478 H3490 0.960 . S
C3478 H3491 0.962 . S
C3478 H3492 0.960 . S
C3479 C3476 1.511 . S
C3479 H3493 0.961 . S
C3479 H3494 0.961 . S
C3479 H3495 0.961 . S
C3480 C3481 1.370 . S
C3480 C3482 1.363 . S
C3480 H3496 0.931 . S
C3481 C3480 1.370 . S
C3481 C3485 1.408 . S
C3482 C3480 1.363 . S
C3482 C3483 1.370 . S
C3482 C3486 1.524 . S
C3483 C3475 1.503 . S
C3483 C3482 1.370 . S
C3483 C3484 1.403 . S
C3484 C3483 1.403 . S
C3484 C3485 1.404 . S
C3484 C3487 1.539 1_455 S
C3485 C3481 1.408 . S
C3485 C3484 1.404 . S
C3485 H3497 0.930 . S
C3486 C3482 1.524 . S
C3486 H3498 0.956 . S
C3486 H3499 0.961 . S
C3486 H3500 0.961 . S
C3487 C3484 1.539 1_655 S
C3487 H3501 0.958 1_655 S
C3487 H3502 0.961 . S
C3487 H3503 0.960 . S
H3488 C3472 0.931 . S
H3489 C3477 0.929 . S
H3490 C3478 0.960 . S
H3491 C3478 0.962 . S
H3492 C3478 0.960 . S
H3493 C3479 0.961 . S
H3494 C3479 0.961 . S
H3495 C3479 0.961 . S
H3496 C3480 0.931 . S
H3497 C3485 0.930 . S
H3498 C3486 0.956 . S
H3499 C3486 0.961 . S
H3500 C3486 0.961 . S
H3501 C3487 0.958 1_455 S
H3502 C3487 0.961 . S
H3503 C3487 0.960 . S
C3504 C3505 1.391 . S
C3504 C3506 1.394 . S
C3504 H3520 0.931 . S
C3505 C3504 1.391 . S
C3505 C3509 1.376 . S
C3506 C3504 1.394 . S
C3506 C3507 1.369 . S
C3506 C3510 1.531 . S
C3507 C3506 1.369 . S
C3507 C3508 1.410 . S
C3507 C3515 1.503 . S
C3508 C3507 1.410 . S
C3508 C3509 1.392 . S
C3508 C3511 1.511 . S
C3509 C3505 1.376 . S
C3509 C3508 1.392 . S
C3509 H3521 0.929 . S
C3510 C3506 1.531 . S
C3510 H3522 0.960 . S
C3510 H3523 0.962 . S
C3510 H3524 0.960 . S
C3511 C3508 1.511 . S
C3511 H3525 0.961 . S
C3511 H3526 0.961 . S
C3511 H3527 0.961 . S
C3512 C3513 1.370 . S
C3512 C3514 1.363 . S
C3512 H3528 0.931 . S
C3513 C3512 1.370 . S
C3513 C3517 1.408 . S
C3514 C3512 1.363 . S
C3514 C3515 1.370 . S
C3514 C3518 1.524 . S
C3515 C3507 1.503 . S
C3515 C3514 1.370 . S
C3515 C3516 1.403 . S
C3516 C3515 1.403 . S
C3516 C3517 1.404 . S
C3516 C3519 1.539 . S
C3517 C3513 1.408 . S
C3517 C3516 1.404 . S
C3517 H3529 0.930 . S
C3518 C3514 1.524 . S
C3518 H3530 0.956 . S
C3518 H3531 0.961 . S
C3518 H3532 0.961 . S
C3519 C3516 1.539 . S
C3519 H3533 0.958 . S
C3519 H3534 0.961 . S
C3519 H3535 0.960 . S
H3520 C3504 0.931 . S
H3521 C3509 0.929 . S
H3522 C3510 0.960 . S
H3523 C3510 0.962 . S
H3524 C3510 0.960 . S
H3525 C3511 0.961 . S
H3526 C3511 0.961 . S
H3527 C3511 0.961 . S
H3528 C3512 0.931 . S
H3529 C3517 0.930 . S
H3530 C3518 0.956 . S
H3531 C3518 0.961 . S
H3532 C3518 0.961 . S
H3533 C3519 0.958 . S
H3534 C3519 0.961 . S
H3535 C3519 0.960 . S
C3536 C3537 1.391 . S
C3536 C3538 1.394 . S
C3536 H3552 0.931 . S
C3537 C3536 1.391 . S
C3537 C3541 1.376 . S
C3538 C3536 1.394 . S
C3538 C3539 1.369 . S
C3538 C3542 1.531 . S
C3539 C3538 1.369 . S
C3539 C3540 1.410 . S
C3539 C3547 1.503 . S
C3540 C3539 1.410 . S
C3540 C3541 1.392 . S
C3540 C3543 1.511 . S
C3541 C3537 1.376 . S
C3541 C3540 1.392 . S
C3541 H3553 0.929 . S
C3542 C3538 1.531 . S
C3542 H3554 0.960 . S
C3542 H3555 0.962 . S
C3542 H3556 0.960 . S
C3543 C3540 1.511 . S
C3543 H3557 0.961 . S
C3543 H3558 0.961 . S
C3543 H3559 0.961 . S
C3544 C3545 1.370 . S
C3544 C3546 1.363 . S
C3544 H3560 0.931 . S
C3545 C3544 1.370 . S
C3545 C3549 1.408 . S
C3546 C3544 1.363 . S
C3546 C3547 1.370 . S
C3546 C3550 1.524 . S
C3547 C3539 1.503 . S
C3547 C3546 1.370 . S
C3547 C3548 1.403 . S
C3548 C3547 1.403 . S
C3548 C3549 1.404 . S
C3548 C3551 1.539 . S
C3549 C3545 1.408 . S
C3549 C3548 1.404 . S
C3549 H3561 0.930 . S
C3550 C3546 1.524 . S
C3550 H3562 0.956 . S
C3550 H3563 0.961 . S
C3550 H3564 0.961 . S
C3551 C3548 1.539 . S
C3551 H3565 0.958 . S
C3551 H3566 0.961 . S
C3551 H3567 0.960 . S
H3552 C3536 0.931 . S
H3553 C3541 0.929 . S
H3554 C3542 0.960 . S
H3555 C3542 0.962 . S
H3556 C3542 0.960 . S
H3557 C3543 0.961 . S
H3558 C3543 0.961 . S
H3559 C3543 0.961 . S
H3560 C3544 0.931 . S
H3561 C3549 0.930 . S
H3562 C3550 0.956 . S
H3563 C3550 0.961 . S
H3564 C3550 0.961 . S
H3565 C3551 0.958 . S
H3566 C3551 0.961 . S
H3567 C3551 0.960 . S
C3568 C3569 1.391 . S
C3568 C3570 1.394 . S
C3568 H3584 0.931 . S
C3569 C3568 1.391 . S
C3569 C3573 1.376 . S
C3570 C3568 1.394 . S
C3570 C3571 1.369 . S
C3570 C3574 1.531 . S
C3571 C3570 1.369 . S
C3571 C3572 1.410 . S
C3571 C3579 1.503 . S
C3572 C3571 1.410 . S
C3572 C3573 1.392 . S
C3572 C3575 1.511 . S
C3573 C3569 1.376 . S
C3573 C3572 1.392 . S
C3573 H3585 0.929 . S
C3574 C3570 1.531 . S
C3574 H3586 0.960 . S
C3574 H3587 0.962 . S
C3574 H3588 0.960 . S
C3575 C3572 1.511 . S
C3575 H3589 0.961 . S
C3575 H3590 0.961 . S
C3575 H3591 0.961 . S
C3576 C3577 1.370 . S
C3576 C3578 1.363 . S
C3576 H3592 0.931 . S
C3577 C3576 1.370 . S
C3577 C3581 1.408 . S
C3578 C3576 1.363 . S
C3578 C3579 1.370 . S
C3578 C3582 1.524 . S
C3579 C3571 1.503 . S
C3579 C3578 1.370 . S
C3579 C3580 1.403 . S
C3580 C3579 1.403 . S
C3580 C3581 1.404 . S
C3580 C3583 1.539 . S
C3581 C3577 1.408 . S
C3581 C3580 1.404 . S
C3581 H3593 0.930 . S
C3582 C3578 1.524 . S
C3582 H3594 0.956 . S
C3582 H3595 0.961 . S
C3582 H3596 0.961 . S
C3583 C3580 1.539 . S
C3583 H3597 0.958 . S
C3583 H3598 0.961 . S
C3583 H3599 0.960 . S
H3584 C3568 0.931 . S
H3585 C3573 0.929 . S
H3586 C3574 0.960 . S
H3587 C3574 0.962 . S
H3588 C3574 0.960 . S
H3589 C3575 0.961 . S
H3590 C3575 0.961 . S
H3591 C3575 0.961 . S
H3592 C3576 0.931 . S
H3593 C3581 0.930 . S
H3594 C3582 0.956 . S
H3595 C3582 0.961 . S
H3596 C3582 0.961 . S
H3597 C3583 0.958 . S
H3598 C3583 0.961 . S
H3599 C3583 0.960 . S
C3600 C3601 1.391 . S
C3600 C3602 1.394 . S
C3600 H3616 0.931 . S
C3601 C3600 1.391 . S
C3601 C3605 1.376 . S
C3602 C3600 1.394 . S
C3602 C3603 1.369 . S
C3602 C3606 1.531 . S
C3603 C3602 1.369 . S
C3603 C3604 1.410 . S
C3603 C3611 1.503 . S
C3604 C3603 1.410 . S
C3604 C3605 1.392 . S
C3604 C3607 1.511 . S
C3605 C3601 1.376 . S
C3605 C3604 1.392 . S
C3605 H3617 0.929 . S
C3606 C3602 1.531 . S
C3606 H3618 0.960 1_655 S
C3606 H3619 0.962 . S
C3606 H3620 0.960 1_655 S
C3607 C3604 1.511 . S
C3607 H3621 0.961 . S
C3607 H3622 0.961 . S
C3607 H3623 0.961 . S
C3608 C3609 1.370 1_655 S
C3608 C3610 1.363 . S
C3608 H3624 0.931 . S
C3609 C3608 1.370 1_455 S
C3609 C3613 1.408 . S
C3610 C3608 1.363 . S
C3610 C3611 1.370 . S
C3610 C3614 1.524 . S
C3611 C3603 1.503 . S
C3611 C3610 1.370 . S
C3611 C3612 1.403 1_655 S
C3612 C3611 1.403 1_455 S
C3612 C3613 1.404 . S
C3612 C3615 1.539 . S
C3613 C3609 1.408 . S
C3613 C3612 1.404 . S
C3613 H3625 0.930 . S
C3614 C3610 1.524 . S
C3614 H3626 0.956 . S
C3614 H3627 0.961 . S
C3614 H3628 0.961 . S
C3615 C3612 1.539 . S
C3615 H3629 0.958 . S
C3615 H3630 0.961 . S
C3615 H3631 0.960 1_455 S
H3616 C3600 0.931 . S
H3617 C3605 0.929 . S
H3618 C3606 0.960 1_455 S
H3619 C3606 0.962 . S
H3620 C3606 0.960 1_455 S
H3621 C3607 0.961 . S
H3622 C3607 0.961 . S
H3623 C3607 0.961 . S
H3624 C3608 0.931 . S
H3625 C3613 0.930 . S
H3626 C3614 0.956 . S
H3627 C3614 0.961 . S
H3628 C3614 0.961 . S
H3629 C3615 0.958 . S
H3630 C3615 0.961 . S
H3631 C3615 0.960 1_655 S
C3632 C3633 1.391 . S
C3632 C3634 1.394 . S
C3632 H3648 0.931 . S
C3633 C3632 1.391 . S
C3633 C3637 1.376 . S
C3634 C3632 1.394 . S
C3634 C3635 1.369 . S
C3634 C3638 1.531 . S
C3635 C3634 1.369 . S
C3635 C3636 1.410 . S
C3635 C3643 1.503 . S
C3636 C3635 1.410 . S
C3636 C3637 1.392 . S
C3636 C3639 1.511 . S
C3637 C3633 1.376 . S
C3637 C3636 1.392 . S
C3637 H3649 0.929 . S
C3638 C3634 1.531 . S
C3638 H3650 0.960 . S
C3638 H3651 0.962 . S
C3638 H3652 0.960 . S
C3639 C3636 1.511 . S
C3639 H3653 0.961 . S
C3639 H3654 0.961 . S
C3639 H3655 0.961 . S
C3640 C3641 1.370 . S
C3640 C3642 1.363 . S
C3640 H3656 0.931 . S
C3641 C3640 1.370 . S
C3641 C3645 1.408 . S
C3642 C3640 1.363 . S
C3642 C3643 1.370 . S
C3642 C3646 1.524 . S
C3643 C3635 1.503 . S
C3643 C3642 1.370 . S
C3643 C3644 1.403 . S
C3644 C3643 1.403 . S
C3644 C3645 1.404 . S
C3644 C3647 1.539 . S
C3645 C3641 1.408 . S
C3645 C3644 1.404 . S
C3645 H3657 0.930 . S
C3646 C3642 1.524 . S
C3646 H3658 0.956 . S
C3646 H3659 0.961 . S
C3646 H3660 0.961 . S
C3647 C3644 1.539 . S
C3647 H3661 0.958 . S
C3647 H3662 0.961 . S
C3647 H3663 0.960 . S
H3648 C3632 0.931 . S
H3649 C3637 0.929 . S
H3650 C3638 0.960 . S
H3651 C3638 0.962 . S
H3652 C3638 0.960 . S
H3653 C3639 0.961 . S
H3654 C3639 0.961 . S
H3655 C3639 0.961 . S
H3656 C3640 0.931 . S
H3657 C3645 0.930 . S
H3658 C3646 0.956 . S
H3659 C3646 0.961 . S
H3660 C3646 0.961 . S
H3661 C3647 0.958 . S
H3662 C3647 0.961 . S
H3663 C3647 0.960 . S
C3664 C3665 1.391 . S
C3664 C3666 1.394 . S
C3664 H3680 0.931 . S
C3665 C3664 1.391 . S
C3665 C3669 1.376 . S
C3666 C3664 1.394 . S
C3666 C3667 1.369 . S
C3666 C3670 1.531 . S
C3667 C3666 1.369 . S
C3667 C3668 1.410 . S
C3667 C3675 1.503 . S
C3668 C3667 1.410 . S
C3668 C3669 1.392 . S
C3668 C3671 1.511 . S
C3669 C3665 1.376 . S
C3669 C3668 1.392 . S
C3669 H3681 0.929 . S
C3670 C3666 1.531 . S
C3670 H3682 0.960 . S
C3670 H3683 0.962 . S
C3670 H3684 0.960 . S
C3671 C3668 1.511 . S
C3671 H3685 0.961 . S
C3671 H3686 0.961 . S
C3671 H3687 0.961 . S
C3672 C3673 1.370 . S
C3672 C3674 1.363 . S
C3672 H3688 0.931 . S
C3673 C3672 1.370 . S
C3673 C3677 1.408 . S
C3674 C3672 1.363 . S
C3674 C3675 1.370 . S
C3674 C3678 1.524 . S
C3675 C3667 1.503 . S
C3675 C3674 1.370 . S
C3675 C3676 1.403 . S
C3676 C3675 1.403 . S
C3676 C3677 1.404 . S
C3676 C3679 1.539 . S
C3677 C3673 1.408 . S
C3677 C3676 1.404 . S
C3677 H3689 0.930 . S
C3678 C3674 1.524 . S
C3678 H3690 0.956 . S
C3678 H3691 0.961 . S
C3678 H3692 0.961 . S
C3679 C3676 1.539 . S
C3679 H3693 0.958 . S
C3679 H3694 0.961 . S
C3679 H3695 0.960 . S
H3680 C3664 0.931 . S
H3681 C3669 0.929 . S
H3682 C3670 0.960 . S
H3683 C3670 0.962 . S
H3684 C3670 0.960 . S
H3685 C3671 0.961 . S
H3686 C3671 0.961 . S
H3687 C3671 0.961 . S
H3688 C3672 0.931 . S
H3689 C3677 0.930 . S
H3690 C3678 0.956 . S
H3691 C3678 0.961 . S
H3692 C3678 0.961 . S
H3693 C3679 0.958 . S
H3694 C3679 0.961 . S
H3695 C3679 0.960 . S
C3696 C3697 1.391 . S
C3696 C3698 1.394 . S
C3696 H3712 0.931 . S
C3697 C3696 1.391 . S
C3697 C3701 1.376 . S
C3698 C3696 1.394 . S
C3698 C3699 1.369 . S
C3698 C3702 1.531 . S
C3699 C3698 1.369 . S
C3699 C3700 1.410 . S
C3699 C3707 1.503 . S
C3700 C3699 1.410 . S
C3700 C3701 1.392 . S
C3700 C3703 1.511 . S
C3701 C3697 1.376 . S
C3701 C3700 1.392 . S
C3701 H3713 0.929 . S
C3702 C3698 1.531 . S
C3702 H3714 0.960 . S
C3702 H3715 0.962 . S
C3702 H3716 0.960 . S
C3703 C3700 1.511 . S
C3703 H3717 0.961 . S
C3703 H3718 0.961 . S
C3703 H3719 0.961 . S
C3704 C3705 1.370 . S
C3704 C3706 1.363 . S
C3704 H3720 0.931 . S
C3705 C3704 1.370 . S
C3705 C3709 1.408 . S
C3706 C3704 1.363 . S
C3706 C3707 1.370 . S
C3706 C3710 1.524 . S
C3707 C3699 1.503 . S
C3707 C3706 1.370 . S
C3707 C3708 1.403 . S
C3708 C3707 1.403 . S
C3708 C3709 1.404 . S
C3708 C3711 1.539 . S
C3709 C3705 1.408 . S
C3709 C3708 1.404 . S
C3709 H3721 0.930 . S
C3710 C3706 1.524 . S
C3710 H3722 0.956 . S
C3710 H3723 0.961 . S
C3710 H3724 0.961 . S
C3711 C3708 1.539 . S
C3711 H3725 0.958 . S
C3711 H3726 0.961 . S
C3711 H3727 0.960 . S
H3712 C3696 0.931 . S
H3713 C3701 0.929 . S
H3714 C3702 0.960 . S
H3715 C3702 0.962 . S
H3716 C3702 0.960 . S
H3717 C3703 0.961 . S
H3718 C3703 0.961 . S
H3719 C3703 0.961 . S
H3720 C3704 0.931 . S
H3721 C3709 0.930 . S
H3722 C3710 0.956 . S
H3723 C3710 0.961 . S
H3724 C3710 0.961 . S
H3725 C3711 0.958 . S
H3726 C3711 0.961 . S
H3727 C3711 0.960 . S
C3728 C3729 1.391 . S
C3728 C3730 1.394 . S
C3728 H3744 0.931 . S
C3729 C3728 1.391 . S
C3729 C3733 1.376 . S
C3730 C3728 1.394 . S
C3730 C3731 1.369 . S
C3730 C3734 1.531 . S
C3731 C3730 1.369 . S
C3731 C3732 1.410 . S
C3731 C3739 1.503 . S
C3732 C3731 1.410 . S
C3732 C3733 1.392 . S
C3732 C3735 1.511 . S
C3733 C3729 1.376 . S
C3733 C3732 1.392 . S
C3733 H3745 0.929 . S
C3734 C3730 1.531 . S
C3734 H3746 0.960 . S
C3734 H3747 0.962 . S
C3734 H3748 0.960 . S
C3735 C3732 1.511 . S
C3735 H3749 0.961 . S
C3735 H3750 0.961 . S
C3735 H3751 0.961 . S
C3736 C3737 1.370 . S
C3736 C3738 1.363 . S
C3736 H3752 0.931 . S
C3737 C3736 1.370 . S
C3737 C3741 1.408 . S
C3738 C3736 1.363 . S
C3738 C3739 1.370 . S
C3738 C3742 1.524 . S
C3739 C3731 1.503 . S
C3739 C3738 1.370 . S
C3739 C3740 1.403 . S
C3740 C3739 1.403 . S
C3740 C3741 1.404 . S
C3740 C3743 1.539 . S
C3741 C3737 1.408 . S
C3741 C3740 1.404 . S
C3741 H3753 0.930 . S
C3742 C3738 1.524 . S
C3742 H3754 0.956 . S
C3742 H3755 0.961 . S
C3742 H3756 0.961 . S
C3743 C3740 1.539 . S
C3743 H3757 0.958 . S
C3743 H3758 0.961 . S
C3743 H3759 0.960 . S
H3744 C3728 0.931 . S
H3745 C3733 0.929 . S
H3746 C3734 0.960 . S
H3747 C3734 0.962 . S
H3748 C3734 0.960 . S
H3749 C3735 0.961 . S
H3750 C3735 0.961 . S
H3751 C3735 0.961 . S
H3752 C3736 0.931 . S
H3753 C3741 0.930 . S
H3754 C3742 0.956 . S
H3755 C3742 0.961 . S
H3756 C3742 0.961 . S
H3757 C3743 0.958 . S
H3758 C3743 0.961 . S
H3759 C3743 0.960 . S
C3760 C3761 1.391 . S
C3760 C3762 1.394 . S
C3760 H3776 0.931 . S
C3761 C3760 1.391 . S
C3761 C3765 1.376 . S
C3762 C3760 1.394 . S
C3762 C3763 1.369 . S
C3762 C3766 1.531 . S
C3763 C3762 1.369 . S
C3763 C3764 1.410 . S
C3763 C3771 1.503 . S
C3764 C3763 1.410 . S
C3764 C3765 1.392 . S
C3764 C3767 1.511 . S
C3765 C3761 1.376 . S
C3765 C3764 1.392 . S
C3765 H3777 0.929 . S
C3766 C3762 1.531 . S
C3766 H3778 0.960 . S
C3766 H3779 0.962 . S
C3766 H3780 0.960 . S
C3767 C3764 1.511 . S
C3767 H3781 0.961 . S
C3767 H3782 0.961 . S
C3767 H3783 0.961 . S
C3768 C3769 1.370 . S
C3768 C3770 1.363 . S
C3768 H3784 0.931 . S
C3769 C3768 1.370 . S
C3769 C3773 1.408 . S
C3770 C3768 1.363 . S
C3770 C3771 1.370 . S
C3770 C3774 1.524 . S
C3771 C3763 1.503 . S
C3771 C3770 1.370 . S
C3771 C3772 1.403 . S
C3772 C3771 1.403 . S
C3772 C3773 1.404 . S
C3772 C3775 1.539 . S
C3773 C3769 1.408 . S
C3773 C3772 1.404 . S
C3773 H3785 0.930 . S
C3774 C3770 1.524 . S
C3774 H3786 0.956 . S
C3774 H3787 0.961 . S
C3774 H3788 0.961 . S
C3775 C3772 1.539 . S
C3775 H3789 0.958 . S
C3775 H3790 0.961 . S
C3775 H3791 0.960 . S
H3776 C3760 0.931 . S
H3777 C3765 0.929 . S
H3778 C3766 0.960 . S
H3779 C3766 0.962 . S
H3780 C3766 0.960 . S
H3781 C3767 0.961 . S
H3782 C3767 0.961 . S
H3783 C3767 0.961 . S
H3784 C3768 0.931 . S
H3785 C3773 0.930 . S
H3786 C3774 0.956 . S
H3787 C3774 0.961 . S
H3788 C3774 0.961 . S
H3789 C3775 0.958 . S
H3790 C3775 0.961 . S
H3791 C3775 0.960 . S
C3792 C3793 1.391 . S
C3792 C3794 1.394 . S
C3792 H3808 0.931 . S
C3793 C3792 1.391 . S
C3793 C3797 1.376 . S
C3794 C3792 1.394 . S
C3794 C3795 1.369 . S
C3794 C3798 1.531 . S
C3795 C3794 1.369 . S
C3795 C3796 1.410 . S
C3795 C3803 1.503 . S
C3796 C3795 1.410 . S
C3796 C3797 1.392 . S
C3796 C3799 1.511 . S
C3797 C3793 1.376 . S
C3797 C3796 1.392 . S
C3797 H3809 0.929 . S
C3798 C3794 1.531 . S
C3798 H3810 0.960 . S
C3798 H3811 0.962 . S
C3798 H3812 0.960 . S
C3799 C3796 1.511 . S
C3799 H3813 0.961 . S
C3799 H3814 0.961 . S
C3799 H3815 0.961 . S
C3800 C3801 1.370 . S
C3800 C3802 1.363 . S
C3800 H3816 0.931 . S
C3801 C3800 1.370 . S
C3801 C3805 1.408 . S
C3802 C3800 1.363 . S
C3802 C3803 1.370 . S
C3802 C3806 1.524 . S
C3803 C3795 1.503 . S
C3803 C3802 1.370 . S
C3803 C3804 1.403 . S
C3804 C3803 1.403 . S
C3804 C3805 1.404 . S
C3804 C3807 1.539 . S
C3805 C3801 1.408 . S
C3805 C3804 1.404 . S
C3805 H3817 0.930 . S
C3806 C3802 1.524 . S
C3806 H3818 0.956 . S
C3806 H3819 0.961 . S
C3806 H3820 0.961 . S
C3807 C3804 1.539 . S
C3807 H3821 0.958 . S
C3807 H3822 0.961 . S
C3807 H3823 0.960 . S
H3808 C3792 0.931 . S
H3809 C3797 0.929 . S
H3810 C3798 0.960 . S
H3811 C3798 0.962 . S
H3812 C3798 0.960 . S
H3813 C3799 0.961 . S
H3814 C3799 0.961 . S
H3815 C3799 0.961 . S
H3816 C3800 0.931 . S
H3817 C3805 0.930 . S
H3818 C3806 0.956 . S
H3819 C3806 0.961 . S
H3820 C3806 0.961 . S
H3821 C3807 0.958 . S
H3822 C3807 0.961 . S
H3823 C3807 0.960 . S
C3824 C3825 1.391 . S
C3824 C3826 1.394 . S
C3824 H3840 0.931 . S
C3825 C3824 1.391 . S
C3825 C3829 1.376 . S
C3826 C3824 1.394 . S
C3826 C3827 1.369 . S
C3826 C3830 1.531 . S
C3827 C3826 1.369 . S
C3827 C3828 1.410 . S
C3827 C3835 1.503 . S
C3828 C3827 1.410 . S
C3828 C3829 1.392 . S
C3828 C3831 1.511 . S
C3829 C3825 1.376 . S
C3829 C3828 1.392 . S
C3829 H3841 0.929 . S
C3830 C3826 1.531 . S
C3830 H3842 0.960 . S
C3830 H3843 0.962 . S
C3830 H3844 0.960 . S
C3831 C3828 1.511 . S
C3831 H3845 0.961 . S
C3831 H3846 0.961 . S
C3831 H3847 0.961 . S
C3832 C3833 1.370 . S
C3832 C3834 1.363 . S
C3832 H3848 0.931 . S
C3833 C3832 1.370 . S
C3833 C3837 1.408 . S
C3834 C3832 1.363 . S
C3834 C3835 1.370 . S
C3834 C3838 1.524 . S
C3835 C3827 1.503 . S
C3835 C3834 1.370 . S
C3835 C3836 1.403 . S
C3836 C3835 1.403 . S
C3836 C3837 1.404 . S
C3836 C3839 1.539 . S
C3837 C3833 1.408 . S
C3837 C3836 1.404 . S
C3837 H3849 0.930 1_565 S
C3838 C3834 1.524 . S
C3838 H3850 0.956 . S
C3838 H3851 0.961 . S
C3838 H3852 0.961 . S
C3839 C3836 1.539 . S
C3839 H3853 0.951 1_565 S
C3839 H3854 0.961 . S
C3839 H3855 0.960 . S
H3840 C3824 0.931 . S
H3841 C3829 0.929 . S
H3842 C3830 0.960 . S
H3843 C3830 0.962 . S
H3844 C3830 0.960 . S
H3845 C3831 0.961 . S
H3846 C3831 0.961 . S
H3847 C3831 0.961 . S
H3848 C3832 0.931 . S
H3849 C3837 0.930 1_545 S
H3850 C3838 0.956 . S
H3851 C3838 0.961 . S
H3852 C3838 0.961 . S
H3853 C3839 0.951 1_545 S
H3854 C3839 0.961 . S
H3855 C3839 0.960 . S
C3856 C3857 1.391 . S
C3856 C3858 1.394 . S
C3856 H3872 0.931 . S
C3857 C3856 1.391 . S
C3857 C3861 1.376 . S
C3858 C3856 1.394 . S
C3858 C3859 1.369 . S
C3858 C3862 1.531 . S
C3859 C3858 1.369 . S
C3859 C3860 1.410 . S
C3859 C3867 1.503 . S
C3860 C3859 1.410 . S
C3860 C3861 1.392 . S
C3860 C3863 1.511 . S
C3861 C3857 1.376 . S
C3861 C3860 1.392 . S
C3861 H3873 0.929 . S
C3862 C3858 1.531 . S
C3862 H3874 0.960 . S
C3862 H3875 0.962 . S
C3862 H3876 0.960 . S
C3863 C3860 1.511 . S
C3863 H3877 0.961 . S
C3863 H3878 0.961 . S
C3863 H3879 0.961 . S
C3864 C3865 1.370 . S
C3864 C3866 1.363 . S
C3864 H3880 0.931 . S
C3865 C3864 1.370 . S
C3865 C3869 1.408 . S
C3866 C3864 1.363 . S
C3866 C3867 1.370 . S
C3866 C3870 1.524 . S
C3867 C3859 1.503 . S
C3867 C3866 1.370 . S
C3867 C3868 1.403 . S
C3868 C3867 1.403 . S
C3868 C3869 1.404 . S
C3868 C3871 1.539 . S
C3869 C3865 1.408 . S
C3869 C3868 1.404 . S
C3869 H3881 0.930 . S
C3870 C3866 1.524 . S
C3870 H3882 0.956 . S
C3870 H3883 0.961 . S
C3870 H3884 0.961 . S
C3871 C3868 1.539 . S
C3871 H3885 0.958 . S
C3871 H3886 0.961 . S
C3871 H3887 0.960 . S
H3872 C3856 0.931 . S
H3873 C3861 0.929 . S
H3874 C3862 0.960 . S
H3875 C3862 0.962 . S
H3876 C3862 0.960 . S
H3877 C3863 0.961 . S
H3878 C3863 0.961 . S
H3879 C3863 0.961 . S
H3880 C3864 0.931 . S
H3881 C3869 0.930 . S
H3882 C3870 0.956 . S
H3883 C3870 0.961 . S
H3884 C3870 0.961 . S
H3885 C3871 0.958 . S
H3886 C3871 0.961 . S
H3887 C3871 0.960 . S
C3888 C3889 1.391 . S
C3888 C3890 1.394 . S
C3888 H3904 0.931 . S
C3889 C3888 1.391 . S
C3889 C3893 1.376 . S
C3890 C3888 1.394 . S
C3890 C3891 1.369 . S
C3890 C3894 1.531 . S
C3891 C3890 1.369 . S
C3891 C3892 1.410 . S
C3891 C3899 1.503 . S
C3892 C3891 1.410 . S
C3892 C3893 1.392 . S
C3892 C3895 1.511 . S
C3893 C3889 1.376 . S
C3893 C3892 1.392 . S
C3893 H3905 0.929 . S
C3894 C3890 1.531 . S
C3894 H3906 0.960 . S
C3894 H3907 0.962 . S
C3894 H3908 0.960 . S
C3895 C3892 1.511 . S
C3895 H3909 0.961 . S
C3895 H3910 0.961 . S
C3895 H3911 0.961 . S
C3896 C3897 1.370 . S
C3896 C3898 1.363 . S
C3896 H3912 0.931 . S
C3897 C3896 1.370 . S
C3897 C3901 1.408 . S
C3898 C3896 1.363 . S
C3898 C3899 1.370 . S
C3898 C3902 1.524 . S
C3899 C3891 1.503 . S
C3899 C3898 1.370 . S
C3899 C3900 1.403 . S
C3900 C3899 1.403 . S
C3900 C3901 1.404 . S
C3900 C3903 1.539 . S
C3901 C3897 1.408 . S
C3901 C3900 1.404 . S
C3901 H3913 0.930 . S
C3902 C3898 1.524 . S
C3902 H3914 0.956 . S
C3902 H3915 0.961 . S
C3902 H3916 0.961 . S
C3903 C3900 1.539 . S
C3903 H3917 0.958 . S
C3903 H3918 0.961 . S
C3903 H3919 0.960 . S
H3904 C3888 0.931 . S
H3905 C3893 0.929 . S
H3906 C3894 0.960 . S
H3907 C3894 0.962 . S
H3908 C3894 0.960 . S
H3909 C3895 0.961 . S
H3910 C3895 0.961 . S
H3911 C3895 0.961 . S
H3912 C3896 0.931 . S
H3913 C3901 0.930 . S
H3914 C3902 0.956 . S
H3915 C3902 0.961 . S
H3916 C3902 0.961 . S
H3917 C3903 0.958 . S
H3918 C3903 0.961 . S
H3919 C3903 0.960 . S
C3920 C3921 1.391 . S
C3920 C3922 1.394 . S
C3920 H3936 0.931 . S
C3921 C3920 1.391 . S
C3921 C3925 1.376 . S
C3922 C3920 1.394 . S
C3922 C3923 1.369 . S
C3922 C3926 1.531 . S
C3923 C3922 1.369 . S
C3923 C3924 1.410 . S
C3923 C3931 1.503 . S
C3924 C3923 1.410 . S
C3924 C3925 1.392 . S
C3924 C3927 1.511 . S
C3925 C3921 1.376 . S
C3925 C3924 1.392 . S
C3925 H3937 0.929 . S
C3926 C3922 1.531 . S
C3926 H3938 0.960 . S
C3926 H3939 0.962 . S
C3926 H3940 0.960 . S
C3927 C3924 1.511 . S
C3927 H3941 0.961 . S
C3927 H3942 0.961 . S
C3927 H3943 0.961 . S
C3928 C3929 1.370 . S
C3928 C3930 1.363 . S
C3928 H3944 0.931 . S
C3929 C3928 1.370 . S
C3929 C3933 1.408 . S
C3930 C3928 1.363 . S
C3930 C3931 1.370 . S
C3930 C3934 1.524 . S
C3931 C3923 1.503 . S
C3931 C3930 1.370 . S
C3931 C3932 1.403 . S
C3932 C3931 1.403 . S
C3932 C3933 1.404 . S
C3932 C3935 1.539 . S
C3933 C3929 1.408 . S
C3933 C3932 1.404 . S
C3933 H3945 0.930 . S
C3934 C3930 1.524 . S
C3934 H3946 0.956 . S
C3934 H3947 0.961 . S
C3934 H3948 0.961 . S
C3935 C3932 1.539 . S
C3935 H3949 0.958 . S
C3935 H3950 0.961 . S
C3935 H3951 0.960 . S
H3936 C3920 0.931 . S
H3937 C3925 0.929 . S
H3938 C3926 0.960 . S
H3939 C3926 0.962 . S
H3940 C3926 0.960 . S
H3941 C3927 0.961 . S
H3942 C3927 0.961 . S
H3943 C3927 0.961 . S
H3944 C3928 0.931 . S
H3945 C3933 0.930 . S
H3946 C3934 0.956 . S
H3947 C3934 0.961 . S
H3948 C3934 0.961 . S
H3949 C3935 0.958 . S
H3950 C3935 0.961 . S
H3951 C3935 0.960 . S
C3952 C3953 1.391 . S
C3952 C3954 1.394 . S
C3952 H3968 0.931 . S
C3953 C3952 1.391 . S
C3953 C3957 1.376 . S
C3954 C3952 1.394 . S
C3954 C3955 1.369 . S
C3954 C3958 1.531 . S
C3955 C3954 1.369 . S
C3955 C3956 1.410 . S
C3955 C3963 1.503 . S
C3956 C3955 1.410 . S
C3956 C3957 1.392 . S
C3956 C3959 1.511 . S
C3957 C3953 1.376 . S
C3957 C3956 1.392 . S
C3957 H3969 0.929 . S
C3958 C3954 1.531 . S
C3958 H3970 0.960 . S
C3958 H3971 0.962 . S
C3958 H3972 0.960 . S
C3959 C3956 1.511 . S
C3959 H3973 0.961 . S
C3959 H3974 0.961 . S
C3959 H3975 0.961 . S
C3960 C3961 1.370 . S
C3960 C3962 1.363 . S
C3960 H3976 0.931 . S
C3961 C3960 1.370 . S
C3961 C3965 1.408 . S
C3962 C3960 1.363 . S
C3962 C3963 1.370 . S
C3962 C3966 1.524 . S
C3963 C3955 1.503 . S
C3963 C3962 1.370 . S
C3963 C3964 1.403 . S
C3964 C3963 1.403 . S
C3964 C3965 1.404 . S
C3964 C3967 1.539 . S
C3965 C3961 1.408 . S
C3965 C3964 1.404 . S
C3965 H3977 0.930 . S
C3966 C3962 1.524 . S
C3966 H3978 0.956 . S
C3966 H3979 0.961 . S
C3966 H3980 0.961 . S
C3967 C3964 1.539 . S
C3967 H3981 0.958 . S
C3967 H3982 0.961 . S
C3967 H3983 0.960 . S
H3968 C3952 0.931 . S
H3969 C3957 0.929 . S
H3970 C3958 0.960 . S
H3971 C3958 0.962 . S
H3972 C3958 0.960 . S
H3973 C3959 0.961 . S
H3974 C3959 0.961 . S
H3975 C3959 0.961 . S
H3976 C3960 0.931 . S
H3977 C3965 0.930 . S
H3978 C3966 0.956 . S
H3979 C3966 0.961 . S
H3980 C3966 0.961 . S
H3981 C3967 0.958 . S
H3982 C3967 0.961 . S
H3983 C3967 0.960 . S
C3984 C3985 1.391 . S
C3984 C3986 1.394 . S
C3984 H4000 0.931 . S
C3985 C3984 1.391 . S
C3985 C3989 1.376 . S
C3986 C3984 1.394 . S
C3986 C3987 1.369 . S
C3986 C3990 1.531 . S
C3987 C3986 1.369 . S
C3987 C3988 1.410 . S
C3987 C3995 1.503 . S
C3988 C3987 1.410 . S
C3988 C3989 1.392 . S
C3988 C3991 1.511 . S
C3989 C3985 1.376 . S
C3989 C3988 1.392 . S
C3989 H4001 0.929 . S
C3990 C3986 1.531 . S
C3990 H4002 0.960 . S
C3990 H4003 0.962 . S
C3990 H4004 0.960 . S
C3991 C3988 1.511 . S
C3991 H4005 0.961 . S
C3991 H4006 0.961 . S
C3991 H4007 0.961 . S
C3992 C3993 1.370 . S
C3992 C3994 1.363 . S
C3992 H4008 0.931 . S
C3993 C3992 1.370 . S
C3993 C3997 1.408 . S
C3994 C3992 1.363 . S
C3994 C3995 1.370 . S
C3994 C3998 1.524 . S
C3995 C3987 1.503 . S
C3995 C3994 1.370 . S
C3995 C3996 1.403 . S
C3996 C3995 1.403 . S
C3996 C3997 1.404 . S
C3996 C3999 1.539 . S
C3997 C3993 1.408 . S
C3997 C3996 1.404 . S
C3997 H4009 0.930 . S
C3998 C3994 1.524 . S
C3998 H4010 0.956 . S
C3998 H4011 0.961 . S
C3998 H4012 0.961 . S
C3999 C3996 1.539 . S
C3999 H4013 0.958 . S
C3999 H4014 0.961 . S
C3999 H4015 0.960 . S
H4000 C3984 0.931 . S
H4001 C3989 0.929 . S
H4002 C3990 0.960 . S
H4003 C3990 0.962 . S
H4004 C3990 0.960 . S
H4005 C3991 0.961 . S
H4006 C3991 0.961 . S
H4007 C3991 0.961 . S
H4008 C3992 0.931 . S
H4009 C3997 0.930 . S
H4010 C3998 0.956 . S
H4011 C3998 0.961 . S
H4012 C3998 0.961 . S
H4013 C3999 0.958 . S
H4014 C3999 0.961 . S
H4015 C3999 0.960 . S
C4016 C4017 1.391 . S
C4016 C4018 1.394 . S
C4016 H4032 0.931 . S
C4017 C4016 1.391 . S
C4017 C4021 1.376 . S
C4018 C4016 1.394 . S
C4018 C4019 1.369 . S
C4018 C4022 1.531 . S
C4019 C4018 1.369 . S
C4019 C4020 1.410 . S
C4019 C4027 1.503 . S
C4020 C4019 1.410 . S
C4020 C4021 1.392 . S
C4020 C4023 1.511 . S
C4021 C4017 1.376 . S
C4021 C4020 1.392 . S
C4021 H4033 0.929 . S
C4022 C4018 1.531 . S
C4022 H4034 0.960 . S
C4022 H4035 0.962 . S
C4022 H4036 0.960 . S
C4023 C4020 1.511 . S
C4023 H4037 0.961 . S
C4023 H4038 0.961 . S
C4023 H4039 0.961 . S
C4024 C4025 1.370 . S
C4024 C4026 1.363 . S
C4024 H4040 0.931 . S
C4025 C4024 1.370 . S
C4025 C4029 1.408 . S
C4026 C4024 1.363 . S
C4026 C4027 1.370 . S
C4026 C4030 1.524 . S
C4027 C4019 1.503 . S
C4027 C4026 1.370 . S
C4027 C4028 1.403 . S
C4028 C4027 1.403 . S
C4028 C4029 1.404 . S
C4028 C4031 1.539 . S
C4029 C4025 1.408 . S
C4029 C4028 1.404 . S
C4029 H4041 0.930 . S
C4030 C4026 1.524 . S
C4030 H4042 0.956 . S
C4030 H4043 0.961 . S
C4030 H4044 0.961 . S
C4031 C4028 1.539 . S
C4031 H4045 0.958 . S
C4031 H4046 0.961 . S
C4031 H4047 0.960 . S
H4032 C4016 0.931 . S
H4033 C4021 0.929 . S
H4034 C4022 0.960 . S
H4035 C4022 0.962 . S
H4036 C4022 0.960 . S
H4037 C4023 0.961 . S
H4038 C4023 0.961 . S
H4039 C4023 0.961 . S
H4040 C4024 0.931 . S
H4041 C4029 0.930 . S
H4042 C4030 0.956 . S
H4043 C4030 0.961 . S
H4044 C4030 0.961 . S
H4045 C4031 0.958 . S
H4046 C4031 0.961 . S
H4047 C4031 0.960 . S
C977 C106 2.647 . S
C985 C346 2.580 . S
C1009 C65 2.001 . S
C1017 C394 1.999 . S
C1041 C79 1.618 . S
C1049 C426 1.620 . S
C1081 C471 1.376 . S
C1073 C90 1.402 . S
C1105 C21 0.662 . S
C1113 C511 0.707 . S
C1145 C546 1.032 . S
C1137 C35 1.048 . S
C1177 C585 1.284 . S
C1169 C50 1.297 . S
C1201 C6 1.183 . S
C1209 C622 1.273 . S
C1241 C354 2.337 . S
C1233 C232 2.284 1_545 S
C1265 C245 0.421 . S
C1273 C391 0.465 . S
C1305 C434 2.456 . S
C1297 C274 2.464 . S
C1337 C466 1.100 . S
C1329 C175 1.061 1_556 S
C1361 C231 1.096 . S
C1369 C506 1.091 . S
C1401 C554 0.345 . S
C1393 C246 0.239 . S
C1433 C595 1.922 . S
C1425 C273 1.872 . S
C1465 C625 2.212 . S
C1457 C176 2.194 . S
C1497 C351 1.541 . S
C1489 C160 1.396 . S
C1521 C289 2.132 . S
C1529 C674 2.118 . S
C1561 C711 1.295 . S
C1553 C328 1.202 . S
C1593 C742 0.879 . S
C1585 C317 0.878 . S
C1617 C118 2.672 . S
C1625 C635 2.689 . S
C1649 C132 1.390 . S
C1657 C431 1.444 . S
C1681 C331 1.796 . S
C1689 C794 1.793 . S
C1721 C826 1.938 . S
C1713 C303 1.903 . S
C1753 C355 2.141 . S
C1745 C63 2.177 . S
C1785 C825 2.467 . S
C1777 C107 2.433 . S
C1809 C92 1.406 . S
C1817 C435 1.437 . S
C1841 C78 1.822 . S
C1849 C782 1.805 . S
C1881 C502 1.204 . S
C1873 C8 1.153 . S
C1905 C51 1.096 . S
C1913 C715 1.121 . S
C1945 C594 1.546 . S
C1937 C37 1.556 . S
C1977 C871 1.246 . S
C1969 C20 1.162 1_655 S
C2009 C345 2.054 1_556 S
C2001 C147 2.001 . S
C2041 C822 0.519 . S
C2033 C316 0.418 . S
C2065 C119 2.323 . S
C2073 C425 2.401 . S
C2097 C288 1.192 . S
C2105 C795 1.212 . S
C2129 C148 1.409 . S
C2137 C515 1.428 . S
C2169 C705 0.407 . S
C2161 C315 0.541 . S
C2193 C120 2.304 . S
C2201 C586 2.211 . S
C2225 C287 1.911 1_556 S
C2233 C874 1.934 . S
C2257 C188 1.158 . S
C2265 C342 1.243 . S
C2289 C177 2.488 . S
C2297 C665 2.513 . S
C2321 C258 1.245 . S
C2329 C542 1.272 . S
C2353 C247 0.752 . S
C2361 C751 0.768 . S
C2393 C866 2.629 . S
C2385 C272 2.622 . S
C2417 C216 1.326 . S
C2425 C422 1.336 . S
C2457 C465 2.064 . S
C2449 C261 2.046 . S
C2489 C395 2.103 . S
C2481 C205 2.108 . S
C2513 C76 2.262 . S
C2521 C906 2.238 . S
C2553 C834 2.069 . S
C2545 C93 2.073 . S
C2577 C105 1.250 . S
C2585 C946 1.228 . S
C2609 C62 1.427 1_655 S
C2617 C791 1.400 . S
C2641 C49 0.739 . S
C2649 C671 0.704 . S
C2681 C706 1.410 . S
C2673 C9 1.413 . S
C2713 C745 1.197 . S
C2705 C22 1.210 . S
C2745 C862 1.562 . S
C2737 C36 1.573 . S
C2777 C914 2.272 . S
C2769 C260 2.240 . S
C2801 C189 0.496 . S
C2809 C831 0.506 . S
C2841 C954 2.366 . S
C2833 C204 2.382 . S
C2873 C786 0.915 . S
C2865 C217 0.898 . S
C2905 C666 1.254 1_556 S
C2897 C259 1.222 . S
C2929 C190 0.395 . S
C2937 C714 0.296 . S
C2969 C755 2.089 . S
C2961 C203 2.089 . S
C2993 C218 2.255 . S
C3001 C865 2.299 . S
C3033 C911 1.519 . S
C3025 C314 1.455 . S
C3057 C135 2.204 . S
C3065 C514 2.177 . S
C3097 C551 1.255 . S
C3089 C146 1.257 . S
C3129 C582 0.816 . S
C3121 C163 0.855 . S
C3161 C875 2.752 . S
C3153 C300 2.708 . S
C3185 C286 1.333 . S
C3193 C951 1.398 . S
C3225 C474 1.739 . S
C3217 C149 1.738 . S
C3257 C386 1.883 . S
C3249 C121 1.860 . S
C3281 C91 2.164 . S
C3289 C915 2.129 . S
C3321 C385 2.052 . S
C3313 C77 1.950 . S
C3345 C64 1.429 . S
C3353 C955 1.426 . S
C3377 C104 1.542 . S
C3385 C462 1.534 . S
C3409 C34 0.867 . S
C3417 C662 0.869 1_556 S
C3449 C555 1.080 . S
C3441 C23 1.074 . S
C3473 C7 1.141 . S
C3481 C754 1.153 . S
C3505 C48 1.204 . S
C3513 C631 1.225 . S
C3545 C905 2.018 . S
C3537 C329 1.989 . S
C3569 C162 0.443 . S
C3577 C382 0.486 . S
C3609 C945 2.381 1_556 S
C3601 C301 2.334 . S
C3633 C134 1.232 . S
C3641 C475 1.240 . S
C3665 C330 1.439 . S
C3673 C675 1.449 . S
C3705 C545 0.506 . S
C3697 C161 0.547 . S
C3729 C302 2.262 . S
C3737 C746 2.182 1_655 S
C3769 C634 1.915 . S
C3761 C133 1.918 . S
C3801 C902 1.363 . S
C3793 C244 1.320 . S
C3833 C505 2.488 1_665 S
C3825 C219 2.484 . S
C3857 C230 1.062 . S
C3865 C702 1.091 . S
C3897 C591 0.839 . S
C3889 C191 0.840 . S
C3921 C202 2.880 . S
C3929 C626 2.893 . S
C3953 C174 1.490 . S
C3961 C942 1.514 . S
C3993 C785 2.052 . S
C3985 C233 2.022 . S
C4025 C835 2.057 . S
C4017 C275 2.078 . S
