# Generated by pormake.
# Topology tsx, (6,3)-cn, num edge types: 1
# Building blocks:
#     Node 0, Type 0, BuildingBlock: MIDCAF_clean_sbu_0, # of connection points: 6
#     Node 1, Type 0, BuildingBlock: MIDCAF_clean_sbu_0, # of connection points: 6
#     Node 2, Type 1, BuildingBlock: OLANEW_clean_sbu_2, # of connection points: 3
#     Node 3, Type 1, BuildingBlock: OLANEW_clean_sbu_2, # of connection points: 3
#     Node 4, Type 1, BuildingBlock: OLANEW_clean_sbu_2, # of connection points: 3
#     Node 5, Type 1, BuildingBlock: OLANEW_clean_sbu_2, # of connection points: 3
#     Edge 6, Type (0, 1), BuildingBlock: CIFDUS_clean_linker_0, # of connection points: 2
#     Edge 7, Type (0, 1), BuildingBlock: CIFDUS_clean_linker_0, # of connection points: 2
#     Edge 8, Type (0, 1), BuildingBlock: CIFDUS_clean_linker_0, # of connection points: 2
#     Edge 9, Type (0, 1), BuildingBlock: CIFDUS_clean_linker_0, # of connection points: 2
#     Edge 10, Type (0, 1), BuildingBlock: CIFDUS_clean_linker_0, # of connection points: 2
#     Edge 11, Type (0, 1), BuildingBlock: CIFDUS_clean_linker_0, # of connection points: 2
#     Edge 12, Type (0, 1), BuildingBlock: CIFDUS_clean_linker_0, # of connection points: 2
#     Edge 13, Type (0, 1), BuildingBlock: CIFDUS_clean_linker_0, # of connection points: 2
#     Edge 14, Type (0, 1), BuildingBlock: CIFDUS_clean_linker_0, # of connection points: 2
#     Edge 15, Type (0, 1), BuildingBlock: CIFDUS_clean_linker_0, # of connection points: 2
#     Edge 16, Type (0, 1), BuildingBlock: CIFDUS_clean_linker_0, # of connection points: 2
#     Edge 17, Type (0, 1), BuildingBlock: CIFDUS_clean_linker_0, # of connection points: 2
# Relax obj value: 0.070
# Max RMSD: 0.154
# Mean RMSD: 0.097
data_MOF--net-tsx--node1-MIDCAF_clean_sbu_0--node2-OLANEW_clean_sbu_2--edge1-CIFDUS_clean_linker_0
_symmetry_space_group_name_H-M    P1
_symmetry_Int_Tables_number       1
_symmetry_cell_setting            triclinic
loop_
_symmetry_equiv_pos_as_xyz
'x, y, z'
_cell_length_a     19.196428
_cell_length_b     20.06259
_cell_length_c     31.945869
_cell_angle_alpha  96.082117
_cell_angle_beta   94.733353
_cell_angle_gamma 90.360329
loop_
_atom_site_label
_atom_site_type_symbol
_atom_site_fract_x
_atom_site_fract_y
_atom_site_fract_z
_atom_type_partial_charge
Zn0 Zn 0.96319 0.90828 0.96162 0.0
Zn1 Zn 0.18586 0.90999 0.06225 0.0
Zn2 Zn 0.07021 0.91893 0.01352 0.0
C3 C 0.16186 0.04671 0.05424 0.0
C4 C 0.20817 0.82989 0.99067 0.0
O5 O 0.98045 0.87159 0.04046 0.0
O6 O 0.90771 0.83947 0.98459 0.0
C7 C 0.98795 0.04482 0.98767 0.0
O8 O 0.10545 0.02241 0.03353 0.0
O9 O 0.20798 0.00801 0.06806 0.0
O10 O 0.23971 0.84786 0.02631 0.0
O11 O 0.14698 0.85301 0.98088 0.0
O12 O 0.93819 0.00507 0.9733 0.0
O13 O 0.04593 0.02174 0.0028 0.0
O14 O 0.10074 0.87821 0.94999 0.0
O15 O 1.0057 0.88794 0.90755 0.0
C16 C 0.07033 0.87702 0.91231 0.0
O17 O 0.03984 0.87852 0.07133 0.0
O18 O 0.1414 0.87414 0.10902 0.0
C19 C 0.92412 0.8407 0.02371 0.0
C20 C 0.07581 0.86619 0.10549 0.0
Zn21 Zn 0.69512 0.59191 0.47087 0.0
Zn22 Zn 0.36142 0.55783 0.48689 0.0
Zn23 Zn 0.49006 0.5727 0.48447 0.0
C24 C 0.3851 0.54223 0.40158 0.0
C25 C 0.39057 0.69121 0.51552 0.0
O26 O 0.56276 0.52385 0.5286 0.0
O27 O 0.67829 0.53774 0.52054 0.0
C28 C 0.58064 0.53109 0.41688 0.0
O29 O 0.4474 0.54053 0.41953 0.0
O30 O 0.33412 0.55242 0.42393 0.0
O31 O 0.34565 0.64623 0.51899 0.0
O32 O 0.44951 0.67442 0.50128 0.0
O33 O 0.60842 0.58784 0.42996 0.0
O34 O 0.51634 0.52534 0.42333 0.0
O35 O 0.52669 0.67546 0.50339 0.0
O36 O 0.60494 0.64557 0.46059 0.0
C37 C 0.5865 0.68639 0.49054 0.0
O38 O 0.48619 0.49781 0.52906 0.0
O39 O 0.37299 0.47647 0.51763 0.0
C40 C 0.62839 0.51495 0.53951 0.0
C41 C 0.4322 0.46289 0.53487 0.0
O42 O 1.00037 0.97573 0.35208 0.0
Cd43 Cd 0.02369 0.03588 0.42312 0.0
O44 O 0.90019 0.02288 0.33439 0.0
Cd45 Cd 0.88931 0.09058 0.39148 0.0
O46 O 0.83418 0.18183 0.41182 0.0
C47 C 0.76967 0.17759 0.4177 0.0
O48 O 0.73985 0.11798 0.41492 0.0
C49 C 0.94845 0.98205 0.32537 0.0
C50 C 0.12354 0.96889 0.47165 0.0
O51 O 0.05784 0.95989 0.47394 0.0
O52 O 0.14246 0.0104 0.44676 0.0
O53 O 0.28703 0.95985 0.70193 0.0
Cd54 Cd 0.34984 0.9842 0.64098 0.0
O55 O 0.19882 0.92682 0.65664 0.0
Cd56 Cd 0.09692 0.88483 0.62909 0.0
O57 O 0.99962 0.84902 0.59267 0.0
C58 C 0.9398 0.84999 0.6072 0.0
O59 O 0.93431 0.87317 0.6468 0.0
C60 C 0.22522 0.93556 0.69482 0.0
C61 C 0.36236 0.11945 0.62791 0.0
O62 O 0.3052 0.08615 0.61765 0.0
O63 O 0.41403 0.08943 0.6453 0.0
O64 O 0.79329 0.45811 0.78529 0.0
Cd65 Cd 0.84903 0.49381 0.85592 0.0
O66 O 0.70456 0.51045 0.81049 0.0
Cd67 Cd 0.60691 0.56442 0.81591 0.0
O68 O 0.53621 0.63063 0.84938 0.0
C69 C 0.46991 0.62625 0.84553 0.0
O70 O 0.43883 0.57973 0.81813 0.0
C71 C 0.73102 0.47826 0.77931 0.0
C72 C 0.87354 0.38748 0.90389 0.0
O73 O 0.81435 0.41675 0.90262 0.0
O74 O 0.92114 0.40876 0.88251 0.0
O75 O 0.38605 0.7599 0.18783 0.0
Cd76 Cd 0.41963 0.80906 0.12568 0.0
O77 O 0.39081 0.66143 0.15152 0.0
Cd78 Cd 0.3761 0.55305 0.14207 0.0
O79 O 0.35579 0.44645 0.12523 0.0
C80 C 0.29355 0.42476 0.11575 0.0
O81 O 0.2419 0.46741 0.11689 0.0
C82 C 0.37968 0.69658 0.18571 0.0
C83 C 0.56409 0.81878 0.12122 0.0
O84 O 0.5303 0.86642 0.13997 0.0
O85 O 0.52973 0.76587 0.10523 0.0
H86 H 0.28624 0.11186 0.06766 0.0
H87 H 0.06413 0.14485 0.06222 0.0
H88 H 0.08504 0.26558 0.0789 0.0
H89 H 0.16709 0.36108 0.09764 0.0
H90 H 0.38935 0.32583 0.10598 0.0
H91 H 0.36768 0.20644 0.08619 0.0
C92 C 0.24238 0.14553 0.07004 0.0
C93 C 0.17372 0.11979 0.06286 0.0
C94 C 0.2549 0.21433 0.08061 0.0
C95 C 0.11743 0.16381 0.06633 0.0
C96 C 0.12942 0.23269 0.07635 0.0
C97 C 0.2108 0.32731 0.09504 0.0
C98 C 0.27974 0.35245 0.10338 0.0
C99 C 0.19801 0.25846 0.08383 0.0
C100 C 0.33575 0.30793 0.09989 0.0
C101 C 0.32346 0.23959 0.08852 0.0
H102 H 0.34694 0.82248 0.98662 0.0
H103 H 0.15178 0.74206 0.92454 0.0
H104 H 0.21543 0.67276 0.87279 0.0
H105 H 0.3276 0.63393 0.84639 0.0
H106 H 0.52124 0.71819 0.90934 0.0
H107 H 0.45687 0.78721 0.95953 0.0
C108 C 0.31823 0.78941 0.96194 0.0
C109 C 0.24494 0.78689 0.95949 0.0
C110 C 0.35491 0.75061 0.93241 0.0
C111 C 0.20836 0.74469 0.927 0.0
C112 C 0.24471 0.70518 0.89748 0.0
C113 C 0.35561 0.66759 0.87099 0.0
C114 C 0.42921 0.67048 0.87414 0.0
C115 C 0.31814 0.7076 0.89997 0.0
C116 C 0.46469 0.71469 0.9061 0.0
C117 C 0.42796 0.75419 0.93497 0.0
H118 H 0.86137 0.9158 0.08354 0.0
H119 H 0.86241 0.71753 0.01747 0.0
H120 H 0.75272 0.6898 0.04633 0.0
H121 H 0.64936 0.72798 0.08232 0.0
H122 H 0.64814 0.92821 0.14687 0.0
H123 H 0.76638 0.94849 0.12802 0.0
C124 C 0.83978 0.86532 0.07762 0.0
C125 C 0.87096 0.8179 0.04981 0.0
C126 C 0.77596 0.85064 0.09339 0.0
C127 C 0.83986 0.75414 0.03968 0.0
C128 C 0.77691 0.73861 0.05583 0.0
C129 C 0.67538 0.77566 0.09289 0.0
C130 C 0.63939 0.82686 0.11538 0.0
C131 C 0.74321 0.78737 0.08146 0.0
C132 C 0.67421 0.88813 0.12914 0.0
C133 C 0.7419 0.89986 0.11834 0.0
H134 H 0.8699 0.11736 0.98699 0.0
H135 H 0.09062 0.13078 0.97215 0.0
H136 H 0.07564 0.24204 0.94835 0.0
H137 H 0.99745 0.32902 0.92379 0.0
H138 H 0.77617 0.31428 0.93747 0.0
H139 H 0.79366 0.20999 0.96965 0.0
C140 C 0.91482 0.14529 0.97924 0.0
C141 C 0.98121 0.11624 0.98138 0.0
C142 C 0.90553 0.20842 0.96473 0.0
C143 C 0.03912 0.15263 0.97127 0.0
C144 C 0.03046 0.21589 0.95725 0.0
C145 C 0.95316 0.3033 0.93419 0.0
C146 C 0.88549 0.32874 0.92764 0.0
C147 C 0.96355 0.24328 0.95258 0.0
C148 C 0.82875 0.29548 0.94187 0.0
C149 C 0.83866 0.23578 0.96022 0.0
H150 H 0.71241 0.72134 0.46823 0.0
H151 H 0.58359 0.74264 0.57312 0.0
H152 H 0.68119 0.79813 0.61838 0.0
H153 H 0.80594 0.8337 0.62889 0.0
H154 H 0.93333 0.80785 0.52313 0.0
H155 H 0.83346 0.76047 0.47762 0.0
C156 C 0.70541 0.73835 0.50098 0.0
C157 C 0.6411 0.72717 0.5174 0.0
C158 C 0.76179 0.76881 0.52677 0.0
C159 C 0.63262 0.75048 0.5597 0.0
C160 C 0.68856 0.78185 0.58562 0.0
C161 C 0.81174 0.81801 0.59585 0.0
C162 C 0.87742 0.82393 0.57963 0.0
C163 C 0.75386 0.79016 0.56966 0.0
C164 C 0.88378 0.80351 0.53665 0.0
C165 C 0.8266 0.77646 0.51049 0.0
H166 H 0.54391 0.40445 0.43144 0.0
H167 H 0.71652 0.52256 0.3993 0.0
H168 H 0.79173 0.4247 0.39931 0.0
H169 H 0.80781 0.30528 0.40717 0.0
H170 H 0.63466 0.1869 0.43844 0.0
H171 H 0.56061 0.28553 0.44061 0.0
C172 C 0.59786 0.40875 0.42417 0.0
C173 C 0.6246 0.47071 0.41524 0.0
C174 C 0.64086 0.35239 0.42443 0.0
C175 C 0.69479 0.47544 0.40632 0.0
C176 C 0.73782 0.41956 0.40639 0.0
C177 C 0.75405 0.30111 0.41482 0.0
C178 C 0.72686 0.23869 0.42256 0.0
C179 C 0.71142 0.35779 0.41538 0.0
C180 C 0.65694 0.23424 0.43223 0.0
C181 C 0.61445 0.29059 0.43335 0.0
H182 H 0.32755 0.40855 0.57154 0.0
H183 H 0.54554 0.38308 0.55144 0.0
H184 H 0.54562 0.27772 0.58393 0.0
H185 H 0.47937 0.18662 0.61086 0.0
H186 H 0.25831 0.20938 0.62293 0.0
H187 H 0.26349 0.32161 0.60046 0.0
C188 C 0.37544 0.38039 0.57462 0.0
C189 C 0.43671 0.40415 0.55948 0.0
C190 C 0.37408 0.31871 0.5914 0.0
C191 C 0.49818 0.36697 0.56381 0.0
C192 C 0.49789 0.30616 0.58184 0.0
C193 C 0.43269 0.21671 0.60913 0.0
C194 C 0.36843 0.18974 0.61842 0.0
C195 C 0.43561 0.28069 0.5948 0.0
C196 C 0.30818 0.22885 0.61566 0.0
C197 C 0.31112 0.29303 0.60285 0.0
H198 H 0.28368 0.74291 0.55789 0.0
H199 H 0.44165 0.79663 0.47848 0.0
H200 H 0.37579 0.89621 0.4626 0.0
H201 H 0.26215 0.95364 0.45974 0.0
H202 H 0.10126 0.8931 0.53527 0.0
H203 H 0.17927 0.81096 0.56423 0.0
C204 C 0.3048 0.77747 0.53807 0.0
C205 C 0.36674 0.76158 0.51869 0.0
C206 C 0.26505 0.83259 0.52749 0.0
C207 C 0.394 0.80742 0.4937 0.0
C208 C 0.35576 0.86393 0.48411 0.0
C209 C 0.24468 0.9234 0.48317 0.0
C210 C 0.17536 0.92845 0.49458 0.0
C211 C 0.28936 0.87479 0.49892 0.0
C212 C 0.15381 0.88936 0.5253 0.0
C213 C 0.19846 0.84236 0.54194 0.0
H214 H 0.95736 0.92288 0.13054 0.0
H215 H 0.12368 0.7942 0.16919 0.0
H216 H 0.09232 0.81165 0.24209 0.0
H217 H 0.03172 0.88056 0.29591 0.0
H218 H 0.86435 0.00853 0.25618 0.0
H219 H 0.87994 0.97207 0.18247 0.0
C220 C 0.98361 0.89515 0.15428 0.0
C221 C 0.04197 0.85674 0.14435 0.0
C222 C 0.96616 0.90664 0.19624 0.0
C223 C 0.07827 0.82392 0.17609 0.0
C224 C 0.06078 0.8344 0.21786 0.0
C225 C 0.99768 0.89938 0.27115 0.0
C226 C 0.94825 0.94855 0.28166 0.0
C227 C 0.00715 0.87853 0.2286 0.0
C228 C 0.9036 0.97139 0.24914 0.0
C229 C 0.91252 0.9507 0.20684 0.0
H230 H 0.02004 0.86838 0.82996 0.0
H231 H 0.21283 0.88715 0.91012 0.0
H232 H 0.27806 0.8993 0.84913 0.0
H233 H 0.27913 0.91625 0.77398 0.0
H234 H 0.08324 0.91833 0.69756 0.0
H235 H 0.0208 0.88743 0.75574 0.0
C236 C 0.0765 0.87396 0.83412 0.0
C237 C 0.11148 0.87422 0.8747 0.0
C238 C 0.11319 0.88594 0.79934 0.0
C239 C 0.18456 0.88318 0.87929 0.0
C240 C 0.22188 0.89175 0.84439 0.0
C241 C 0.22278 0.90959 0.76992 0.0
C242 C 0.1865 0.91732 0.73055 0.0
C243 C 0.18653 0.89489 0.80443 0.0
C244 C 0.11337 0.9094 0.72632 0.0
C245 C 0.07724 0.89273 0.76005 0.0
H246 H 0.55411 0.51144 0.60862 0.0
H247 H 0.75028 0.45323 0.5596 0.0
H248 H 0.79708 0.42946 0.62959 0.0
H249 H 0.78819 0.44146 0.70584 0.0
H250 H 0.59098 0.49417 0.75499 0.0
H251 H 0.53866 0.50341 0.68379 0.0
C252 C 0.60631 0.49163 0.61294 0.0
C253 C 0.64896 0.48513 0.57903 0.0
C254 C 0.63336 0.47868 0.65347 0.0
C255 C 0.71666 0.4596 0.58532 0.0
C256 C 0.7436 0.44614 0.62536 0.0
C257 C 0.73345 0.4541 0.70109 0.0
C258 C 0.69482 0.47107 0.73614 0.0
C259 C 0.7034 0.45823 0.65994 0.0
C260 C 0.62343 0.48528 0.72907 0.0
C261 C 0.59305 0.48952 0.68814 0.0
H262 H 0.29678 0.62236 0.36114 0.0
H263 H 0.45769 0.47661 0.34019 0.0
H264 H 0.46354 0.50617 0.26813 0.0
H265 H 0.43511 0.58503 0.21533 0.0
H266 H 0.2842 0.73935 0.24015 0.0
H267 H 0.2622 0.6954 0.30648 0.0
C268 C 0.33146 0.59558 0.34029 0.0
C269 C 0.37634 0.54705 0.3557 0.0
C270 C 0.3373 0.61555 0.2999 0.0
C271 C 0.4224 0.51391 0.32882 0.0
C272 C 0.42614 0.5312 0.28779 0.0
C273 C 0.39613 0.6078 0.2348 0.0
C274 C 0.36092 0.66496 0.22294 0.0
C275 C 0.38571 0.58369 0.27358 0.0
C276 C 0.31195 0.69534 0.24886 0.0
C277 C 0.29935 0.6702 0.28669 0.0
loop_
_geom_bond_atom_site_label_1
_geom_bond_atom_site_label_2
_geom_bond_distance
_geom_bond_site_symmetry_2
_ccdc_geom_bond_type
Zn0 O6 1.920 1_545 S
Zn0 O12 1.898 . S
Zn0 O15 1.905 1_545 S
Zn1 O9 1.905 . S
Zn1 O10 1.898 1_545 S
Zn1 O18 1.920 1_545 S
Zn2 O5 2.080 1_444 S
Zn2 O8 2.114 . S
Zn2 O11 2.120 1_545 S
Zn2 O13 2.120 1_455 S
Zn2 O14 2.114 1_554 S
Zn2 O17 2.080 . S
C3 O8 1.166 . S
C3 O9 1.182 . S
C4 O10 1.167 1_556 S
C4 O11 1.299 1_556 S
O5 Zn2 2.080 1_666 S
O5 C19 1.305 1_556 S
O6 Zn0 1.920 1_565 S
O6 C19 1.234 1_556 S
C7 O12 1.167 . S
C7 O13 1.299 1_556 S
O8 Zn2 2.114 . S
O8 C3 1.166 . S
O9 Zn1 1.905 . S
O9 C3 1.182 . S
O10 Zn1 1.898 1_565 S
O10 C4 1.167 1_554 S
O11 Zn2 2.120 1_565 S
O11 C4 1.299 1_554 S
O12 Zn0 1.898 . S
O12 C7 1.167 . S
O13 Zn2 2.120 1_655 S
O13 C7 1.299 1_554 S
O14 Zn2 2.114 1_556 S
O14 C16 1.166 1_445 S
O15 Zn0 1.905 1_565 S
O15 C16 1.182 . S
C16 O14 1.166 1_665 S
C16 O15 1.182 . S
O17 Zn2 2.080 . S
O17 C20 1.305 1_545 S
O18 Zn1 1.920 1_565 S
O18 C20 1.234 . S
C19 O5 1.305 1_554 S
C19 O6 1.234 1_554 S
C20 O17 1.305 1_565 S
C20 O18 1.234 . S
Zn21 O27 1.920 . S
Zn21 O33 1.898 . S
Zn21 O36 1.905 . S
Zn22 O30 1.905 . S
Zn22 O31 1.898 . S
Zn22 O39 1.920 . S
Zn23 O26 2.080 . S
Zn23 O29 2.114 . S
Zn23 O32 2.120 . S
Zn23 O34 2.120 . S
Zn23 O35 2.114 . S
Zn23 O38 2.080 . S
C24 O29 1.166 . S
C24 O30 1.182 . S
C25 O31 1.167 . S
C25 O32 1.299 . S
O26 Zn23 2.080 . S
O26 C40 1.305 . S
O27 Zn21 1.920 . S
O27 C40 1.234 . S
C28 O33 1.167 . S
C28 O34 1.299 . S
O29 Zn23 2.114 . S
O29 C24 1.166 . S
O30 Zn22 1.905 . S
O30 C24 1.182 . S
O31 Zn22 1.898 . S
O31 C25 1.167 . S
O32 Zn23 2.120 . S
O32 C25 1.299 . S
O33 Zn21 1.898 . S
O33 C28 1.167 . S
O34 Zn23 2.120 . S
O34 C28 1.299 . S
O35 Zn23 2.114 . S
O35 C37 1.166 . S
O36 Zn21 1.905 . S
O36 C37 1.182 . S
C37 O35 1.166 . S
C37 O36 1.182 . S
O38 Zn23 2.080 . S
O38 C41 1.305 . S
O39 Zn22 1.920 . S
O39 C41 1.234 . S
C40 O26 1.305 . S
C40 O27 1.234 . S
C41 O38 1.305 . S
C41 O39 1.234 . S
O42 Cd43 2.300 1_565 S
O42 C49 1.275 1_565 S
Cd43 O42 2.300 1_545 S
Cd43 O51 2.381 1_545 S
Cd43 O52 2.378 1_545 S
O44 Cd45 2.385 . S
O44 C49 1.255 . S
Cd45 O44 2.385 . S
Cd45 O46 2.317 . S
O46 Cd45 2.317 . S
O46 C47 1.232 1_455 S
C47 O46 1.232 1_655 S
C47 O48 1.218 . S
O48 C47 1.218 . S
C49 O42 1.275 1_545 S
C49 O44 1.255 . S
C50 O51 1.258 . S
C50 O52 1.256 . S
O51 Cd43 2.381 1_565 S
O51 C50 1.258 . S
O52 Cd43 2.378 1_565 S
O52 C50 1.256 . S
O53 Cd54 2.300 . S
O53 C60 1.275 . S
Cd54 O53 2.300 . S
Cd54 O62 2.381 . S
Cd54 O63 2.378 . S
O55 Cd56 2.385 . S
O55 C60 1.255 1_565 S
Cd56 O55 2.385 . S
Cd56 O57 2.317 1_455 S
O57 Cd56 2.317 1_655 S
O57 C58 1.232 . S
C58 O57 1.232 . S
C58 O59 1.218 . S
O59 C58 1.218 . S
C60 O53 1.275 . S
C60 O55 1.255 1_545 S
C61 O62 1.258 . S
C61 O63 1.256 . S
O62 Cd54 2.381 . S
O62 C61 1.258 . S
O63 Cd54 2.378 . S
O63 C61 1.256 . S
O64 Cd65 2.300 . S
O64 C71 1.275 . S
Cd65 O64 2.300 . S
Cd65 O73 2.381 . S
Cd65 O74 2.378 . S
O66 Cd67 2.385 . S
O66 C71 1.255 . S
Cd67 O66 2.385 . S
Cd67 O68 2.317 . S
O68 Cd67 2.317 . S
O68 C69 1.232 . S
C69 O68 1.232 . S
C69 O70 1.218 . S
O70 C69 1.218 . S
C71 O64 1.275 . S
C71 O66 1.255 . S
C72 O73 1.258 . S
C72 O74 1.256 . S
O73 Cd65 2.381 . S
O73 C72 1.258 . S
O74 Cd65 2.378 . S
O74 C72 1.256 . S
O75 Cd76 2.300 . S
O75 C82 1.275 . S
Cd76 O75 2.300 . S
Cd76 O84 2.381 . S
Cd76 O85 2.378 . S
O77 Cd78 2.385 . S
O77 C82 1.255 . S
Cd78 O77 2.385 . S
Cd78 O79 2.317 . S
O79 Cd78 2.317 . S
O79 C80 1.232 . S
C80 O79 1.232 . S
C80 O81 1.218 . S
O81 C80 1.218 . S
C82 O75 1.275 . S
C82 O77 1.255 . S
C83 O84 1.258 . S
C83 O85 1.256 . S
O84 Cd76 2.381 . S
O84 C83 1.258 . S
O85 Cd76 2.378 . S
O85 C83 1.256 . S
H86 C92 0.930 1_556 S
H87 C95 0.930 . S
H88 C96 0.930 . S
H89 C97 0.930 . S
H90 C100 0.930 . S
H91 C101 0.930 1_556 S
C92 H86 0.930 1_554 S
C92 C93 1.355 . S
C92 C94 1.415 . S
C93 C92 1.355 . S
C93 C95 1.419 . S
C94 C92 1.415 . S
C94 C99 1.425 . S
C94 C101 1.409 . S
C95 H87 0.930 . S
C95 C93 1.419 . S
C95 C96 1.362 . S
C96 H88 0.930 . S
C96 C95 1.362 . S
C96 C99 1.409 . S
C97 H89 0.930 . S
C97 C98 1.355 . S
C97 C99 1.415 . S
C98 C97 1.355 . S
C98 C100 1.419 . S
C99 C94 1.425 . S
C99 C96 1.409 . S
C99 C97 1.415 . S
C100 H90 0.930 . S
C100 C98 1.419 . S
C100 C101 1.362 . S
C101 H91 0.930 1_554 S
C101 C94 1.409 . S
C101 C100 1.362 . S
H102 C108 0.930 1_554 S
H103 C111 0.930 . S
H104 C112 0.930 . S
H105 C113 0.930 . S
H106 C116 0.930 1_554 S
H107 C117 0.930 . S
C108 H102 0.930 1_556 S
C108 C109 1.355 . S
C108 C110 1.415 . S
C109 C108 1.355 . S
C109 C111 1.419 . S
C110 C108 1.415 . S
C110 C115 1.425 . S
C110 C117 1.409 1_556 S
C111 H103 0.930 . S
C111 C109 1.419 . S
C111 C112 1.362 . S
C112 H104 0.930 . S
C112 C111 1.362 . S
C112 C115 1.409 . S
C113 H105 0.930 . S
C113 C114 1.355 . S
C113 C115 1.415 . S
C114 C113 1.355 . S
C114 C116 1.419 . S
C115 C110 1.425 . S
C115 C112 1.409 . S
C115 C113 1.415 . S
C116 H106 0.930 1_556 S
C116 C114 1.419 . S
C116 C117 1.362 1_556 S
C117 H107 0.930 . S
C117 C110 1.409 1_554 S
C117 C116 1.362 1_554 S
H118 C124 0.930 1_556 S
H119 C127 0.930 . S
H120 C128 0.930 . S
H121 C129 0.930 . S
H122 C132 0.930 . S
H123 C133 0.930 1_556 S
C124 H118 0.930 1_554 S
C124 C125 1.355 . S
C124 C126 1.415 . S
C125 C124 1.355 . S
C125 C127 1.419 . S
C126 C124 1.415 . S
C126 C131 1.425 . S
C126 C133 1.409 . S
C127 H119 0.930 . S
C127 C125 1.419 . S
C127 C128 1.362 . S
C128 H120 0.930 . S
C128 C127 1.362 . S
C128 C131 1.409 . S
C129 H121 0.930 . S
C129 C130 1.355 . S
C129 C131 1.415 . S
C130 C129 1.355 . S
C130 C132 1.419 . S
C131 C126 1.425 . S
C131 C128 1.409 . S
C131 C129 1.415 . S
C132 H122 0.930 . S
C132 C130 1.419 . S
C132 C133 1.362 . S
C133 H123 0.930 1_554 S
C133 C126 1.409 . S
C133 C132 1.362 . S
H134 C140 0.930 . S
H135 C143 0.930 . S
H136 C144 0.930 . S
H137 C145 0.930 1_554 S
H138 C148 0.930 . S
H139 C149 0.930 . S
C140 H134 0.930 . S
C140 C141 1.355 . S
C140 C142 1.415 . S
C141 C140 1.355 . S
C141 C143 1.419 1_556 S
C142 C140 1.415 . S
C142 C147 1.425 . S
C142 C149 1.409 . S
C143 H135 0.930 . S
C143 C141 1.419 1_554 S
C143 C144 1.362 . S
C144 H136 0.930 . S
C144 C143 1.362 . S
C144 C147 1.409 1_554 S
C145 H137 0.930 1_556 S
C145 C146 1.355 . S
C145 C147 1.415 . S
C146 C145 1.355 . S
C146 C148 1.419 . S
C147 C142 1.425 . S
C147 C144 1.409 1_556 S
C147 C145 1.415 . S
C148 H138 0.930 . S
C148 C146 1.419 . S
C148 C149 1.362 . S
C149 H139 0.930 . S
C149 C142 1.409 . S
C149 C148 1.362 . S
H150 C156 0.930 . S
H151 C159 0.930 . S
H152 C160 0.930 . S
H153 C161 0.930 . S
H154 C164 0.930 . S
H155 C165 0.930 . S
C156 H150 0.930 . S
C156 C157 1.355 . S
C156 C158 1.415 . S
C157 C156 1.355 . S
C157 C159 1.419 . S
C158 C156 1.415 . S
C158 C163 1.425 . S
C158 C165 1.409 . S
C159 H151 0.930 . S
C159 C157 1.419 . S
C159 C160 1.362 . S
C160 H152 0.930 . S
C160 C159 1.362 . S
C160 C163 1.409 . S
C161 H153 0.930 . S
C161 C162 1.355 . S
C161 C163 1.415 . S
C162 C161 1.355 . S
C162 C164 1.419 . S
C163 C158 1.425 . S
C163 C160 1.409 . S
C163 C161 1.415 . S
C164 H154 0.930 . S
C164 C162 1.419 . S
C164 C165 1.362 . S
C165 H155 0.930 . S
C165 C158 1.409 . S
C165 C164 1.362 . S
H166 C172 0.930 . S
H167 C175 0.930 . S
H168 C176 0.930 . S
H169 C177 0.930 . S
H170 C180 0.930 . S
H171 C181 0.930 . S
C172 H166 0.930 . S
C172 C173 1.355 . S
C172 C174 1.415 . S
C173 C172 1.355 . S
C173 C175 1.419 . S
C174 C172 1.415 . S
C174 C179 1.425 . S
C174 C181 1.409 . S
C175 H167 0.930 . S
C175 C173 1.419 . S
C175 C176 1.362 . S
C176 H168 0.930 . S
C176 C175 1.362 . S
C176 C179 1.409 . S
C177 H169 0.930 . S
C177 C178 1.355 . S
C177 C179 1.415 . S
C178 C177 1.355 . S
C178 C180 1.419 . S
C179 C174 1.425 . S
C179 C176 1.409 . S
C179 C177 1.415 . S
C180 H170 0.930 . S
C180 C178 1.419 . S
C180 C181 1.362 . S
C181 H171 0.930 . S
C181 C174 1.409 . S
C181 C180 1.362 . S
H182 C188 0.930 . S
H183 C191 0.930 . S
H184 C192 0.930 . S
H185 C193 0.930 . S
H186 C196 0.930 . S
H187 C197 0.930 . S
C188 H182 0.930 . S
C188 C189 1.355 . S
C188 C190 1.415 . S
C189 C188 1.355 . S
C189 C191 1.419 . S
C190 C188 1.415 . S
C190 C195 1.425 . S
C190 C197 1.409 . S
C191 H183 0.930 . S
C191 C189 1.419 . S
C191 C192 1.362 . S
C192 H184 0.930 . S
C192 C191 1.362 . S
C192 C195 1.409 . S
C193 H185 0.930 . S
C193 C194 1.355 . S
C193 C195 1.415 . S
C194 C193 1.355 . S
C194 C196 1.419 . S
C195 C190 1.425 . S
C195 C192 1.409 . S
C195 C193 1.415 . S
C196 H186 0.930 . S
C196 C194 1.419 . S
C196 C197 1.362 . S
C197 H187 0.930 . S
C197 C190 1.409 . S
C197 C196 1.362 . S
H198 C204 0.930 . S
H199 C207 0.930 . S
H200 C208 0.930 . S
H201 C209 0.930 . S
H202 C212 0.930 . S
H203 C213 0.930 . S
C204 H198 0.930 . S
C204 C205 1.355 . S
C204 C206 1.415 . S
C205 C204 1.355 . S
C205 C207 1.419 . S
C206 C204 1.415 . S
C206 C211 1.425 . S
C206 C213 1.409 . S
C207 H199 0.930 . S
C207 C205 1.419 . S
C207 C208 1.362 . S
C208 H200 0.930 . S
C208 C207 1.362 . S
C208 C211 1.409 . S
C209 H201 0.930 . S
C209 C210 1.355 . S
C209 C211 1.415 . S
C210 C209 1.355 . S
C210 C212 1.419 . S
C211 C206 1.425 . S
C211 C208 1.409 . S
C211 C209 1.415 . S
C212 H202 0.930 . S
C212 C210 1.419 . S
C212 C213 1.362 . S
C213 H203 0.930 . S
C213 C206 1.409 . S
C213 C212 1.362 . S
H214 C220 0.930 1_655 S
H215 C223 0.930 . S
H216 C224 0.930 . S
H217 C225 0.930 . S
H218 C228 0.930 . S
H219 C229 0.930 . S
C220 H214 0.930 1_455 S
C220 C221 1.355 1_545 S
C220 C222 1.415 . S
C221 C220 1.355 1_565 S
C221 C223 1.419 . S
C222 C220 1.415 . S
C222 C227 1.425 . S
C222 C229 1.409 1_455 S
C223 H215 0.930 . S
C223 C221 1.419 . S
C223 C224 1.362 . S
C224 H216 0.930 . S
C224 C223 1.362 . S
C224 C227 1.409 1_565 S
C225 H217 0.930 . S
C225 C226 1.355 . S
C225 C227 1.415 . S
C226 C225 1.355 . S
C226 C228 1.419 1_455 S
C227 C222 1.425 . S
C227 C224 1.409 1_545 S
C227 C225 1.415 . S
C228 H218 0.930 . S
C228 C226 1.419 1_655 S
C228 C229 1.362 . S
C229 H219 0.930 . S
C229 C222 1.409 1_655 S
C229 C228 1.362 . S
H230 C236 0.930 . S
H231 C239 0.930 . S
H232 C240 0.930 . S
H233 C241 0.930 . S
H234 C244 0.930 . S
H235 C245 0.930 . S
C236 H230 0.930 . S
C236 C237 1.355 . S
C236 C238 1.415 . S
C237 C236 1.355 . S
C237 C239 1.419 1_465 S
C238 C236 1.415 . S
C238 C243 1.425 1_465 S
C238 C245 1.409 . S
C239 H231 0.930 . S
C239 C237 1.419 1_645 S
C239 C240 1.362 . S
C240 H232 0.930 . S
C240 C239 1.362 . S
C240 C243 1.409 . S
C241 H233 0.930 . S
C241 C242 1.355 1_655 S
C241 C243 1.415 . S
C242 C241 1.355 1_455 S
C242 C244 1.419 1_545 S
C243 C238 1.425 1_645 S
C243 C240 1.409 . S
C243 C241 1.415 . S
C244 H234 0.930 . S
C244 C242 1.419 1_565 S
C244 C245 1.362 . S
C245 H235 0.930 . S
C245 C238 1.409 . S
C245 C244 1.362 . S
H246 C252 0.930 . S
H247 C255 0.930 . S
H248 C256 0.930 . S
H249 C257 0.930 . S
H250 C260 0.930 . S
H251 C261 0.930 . S
C252 H246 0.930 . S
C252 C253 1.355 . S
C252 C254 1.415 . S
C253 C252 1.355 . S
C253 C255 1.419 . S
C254 C252 1.415 . S
C254 C259 1.425 . S
C254 C261 1.409 . S
C255 H247 0.930 . S
C255 C253 1.419 . S
C255 C256 1.362 . S
C256 H248 0.930 . S
C256 C255 1.362 . S
C256 C259 1.409 . S
C257 H249 0.930 . S
C257 C258 1.355 . S
C257 C259 1.415 . S
C258 C257 1.355 . S
C258 C260 1.419 . S
C259 C254 1.425 . S
C259 C256 1.409 . S
C259 C257 1.415 . S
C260 H250 0.930 . S
C260 C258 1.419 . S
C260 C261 1.362 . S
C261 H251 0.930 . S
C261 C254 1.409 . S
C261 C260 1.362 . S
H262 C268 0.930 . S
H263 C271 0.930 . S
H264 C272 0.930 . S
H265 C273 0.930 . S
H266 C276 0.930 . S
H267 C277 0.930 . S
C268 H262 0.930 . S
C268 C269 1.355 . S
C268 C270 1.415 . S
C269 C268 1.355 . S
C269 C271 1.419 . S
C270 C268 1.415 . S
C270 C275 1.425 . S
C270 C277 1.409 . S
C271 H263 0.930 . S
C271 C269 1.419 . S
C271 C272 1.362 . S
C272 H264 0.930 . S
C272 C271 1.362 . S
C272 C275 1.409 . S
C273 H265 0.930 . S
C273 C274 1.355 . S
C273 C275 1.415 . S
C274 C273 1.355 . S
C274 C276 1.419 . S
C275 C270 1.425 . S
C275 C272 1.409 . S
C275 C273 1.415 . S
C276 H266 0.930 . S
C276 C274 1.419 . S
C276 C277 1.362 . S
C277 H267 0.930 . S
C277 C270 1.409 . S
C277 C276 1.362 . S
C98 C80 1.157 . S
C93 C3 1.189 . S
C109 C4 1.542 . S
C114 C69 1.436 . S
C125 C19 1.524 . S
C130 C83 1.581 . S
C141 C7 1.244 . S
C146 C72 1.292 . S
C157 C37 1.152 . S
C162 C58 1.200 . S
C173 C28 1.442 . S
C178 C47 1.438 . S
C194 C61 1.571 . S
C189 C41 1.500 . S
C210 C50 1.315 . S
C205 C25 1.201 . S
C221 C20 1.279 . S
C226 C49 1.480 . S
C237 C16 1.321 1_455 S
C242 C60 1.468 . S
C258 C71 1.484 . S
C253 C40 1.312 . S
C269 C24 1.429 . S
C274 C82 1.517 . S
