# Generated by pormake.
# Topology ctn, (3,4)-cn, num edge types: 1
# Building blocks:
#     Node 0, Type 0, BuildingBlock: OLANEW_clean_sbu_2, # of connection points: 3
#     Node 1, Type 0, BuildingBlock: OLANEW_clean_sbu_2, # of connection points: 3
#     Node 2, Type 0, BuildingBlock: OLANEW_clean_sbu_2, # of connection points: 3
#     Node 3, Type 0, BuildingBlock: OLANEW_clean_sbu_2, # of connection points: 3
#     Node 4, Type 0, BuildingBlock: OLANEW_clean_sbu_2, # of connection points: 3
#     Node 5, Type 0, BuildingBlock: OLANEW_clean_sbu_2, # of connection points: 3
#     Node 6, Type 0, BuildingBlock: OLANEW_clean_sbu_2, # of connection points: 3
#     Node 7, Type 0, BuildingBlock: OLANEW_clean_sbu_2, # of connection points: 3
#     Node 8, Type 0, BuildingBlock: OLANEW_clean_sbu_2, # of connection points: 3
#     Node 9, Type 0, BuildingBlock: OLANEW_clean_sbu_2, # of connection points: 3
#     Node 10, Type 0, BuildingBlock: OLANEW_clean_sbu_2, # of connection points: 3
#     Node 11, Type 0, BuildingBlock: OLANEW_clean_sbu_2, # of connection points: 3
#     Node 12, Type 0, BuildingBlock: OLANEW_clean_sbu_2, # of connection points: 3
#     Node 13, Type 0, BuildingBlock: OLANEW_clean_sbu_2, # of connection points: 3
#     Node 14, Type 0, BuildingBlock: OLANEW_clean_sbu_2, # of connection points: 3
#     Node 15, Type 0, BuildingBlock: OLANEW_clean_sbu_2, # of connection points: 3
#     Node 16, Type 1, BuildingBlock: NAHDIM_clean_sbu_0, # of connection points: 4
#     Node 17, Type 1, BuildingBlock: NAHDIM_clean_sbu_0, # of connection points: 4
#     Node 18, Type 1, BuildingBlock: NAHDIM_clean_sbu_0, # of connection points: 4
#     Node 19, Type 1, BuildingBlock: NAHDIM_clean_sbu_0, # of connection points: 4
#     Node 20, Type 1, BuildingBlock: NAHDIM_clean_sbu_0, # of connection points: 4
#     Node 21, Type 1, BuildingBlock: NAHDIM_clean_sbu_0, # of connection points: 4
#     Node 22, Type 1, BuildingBlock: NAHDIM_clean_sbu_0, # of connection points: 4
#     Node 23, Type 1, BuildingBlock: NAHDIM_clean_sbu_0, # of connection points: 4
#     Node 24, Type 1, BuildingBlock: NAHDIM_clean_sbu_0, # of connection points: 4
#     Node 25, Type 1, BuildingBlock: NAHDIM_clean_sbu_0, # of connection points: 4
#     Node 26, Type 1, BuildingBlock: NAHDIM_clean_sbu_0, # of connection points: 4
#     Node 27, Type 1, BuildingBlock: NAHDIM_clean_sbu_0, # of connection points: 4
#     Edge 28, Type (0, 1), BuildingBlock: EZIPEK_clean_linker_0, # of connection points: 2
#     Edge 29, Type (0, 1), BuildingBlock: EZIPEK_clean_linker_0, # of connection points: 2
#     Edge 30, Type (0, 1), BuildingBlock: EZIPEK_clean_linker_0, # of connection points: 2
#     Edge 31, Type (0, 1), BuildingBlock: EZIPEK_clean_linker_0, # of connection points: 2
#     Edge 32, Type (0, 1), BuildingBlock: EZIPEK_clean_linker_0, # of connection points: 2
#     Edge 33, Type (0, 1), BuildingBlock: EZIPEK_clean_linker_0, # of connection points: 2
#     Edge 34, Type (0, 1), BuildingBlock: EZIPEK_clean_linker_0, # of connection points: 2
#     Edge 35, Type (0, 1), BuildingBlock: EZIPEK_clean_linker_0, # of connection points: 2
#     Edge 36, Type (0, 1), BuildingBlock: EZIPEK_clean_linker_0, # of connection points: 2
#     Edge 37, Type (0, 1), BuildingBlock: EZIPEK_clean_linker_0, # of connection points: 2
#     Edge 38, Type (0, 1), BuildingBlock: EZIPEK_clean_linker_0, # of connection points: 2
#     Edge 39, Type (0, 1), BuildingBlock: EZIPEK_clean_linker_0, # of connection points: 2
#     Edge 40, Type (0, 1), BuildingBlock: EZIPEK_clean_linker_0, # of connection points: 2
#     Edge 41, Type (0, 1), BuildingBlock: EZIPEK_clean_linker_0, # of connection points: 2
#     Edge 42, Type (0, 1), BuildingBlock: EZIPEK_clean_linker_0, # of connection points: 2
#     Edge 43, Type (0, 1), BuildingBlock: EZIPEK_clean_linker_0, # of connection points: 2
#     Edge 44, Type (0, 1), BuildingBlock: EZIPEK_clean_linker_0, # of connection points: 2
#     Edge 45, Type (0, 1), BuildingBlock: EZIPEK_clean_linker_0, # of connection points: 2
#     Edge 46, Type (0, 1), BuildingBlock: EZIPEK_clean_linker_0, # of connection points: 2
#     Edge 47, Type (0, 1), BuildingBlock: EZIPEK_clean_linker_0, # of connection points: 2
#     Edge 48, Type (0, 1), BuildingBlock: EZIPEK_clean_linker_0, # of connection points: 2
#     Edge 49, Type (0, 1), BuildingBlock: EZIPEK_clean_linker_0, # of connection points: 2
#     Edge 50, Type (0, 1), BuildingBlock: EZIPEK_clean_linker_0, # of connection points: 2
#     Edge 51, Type (0, 1), BuildingBlock: EZIPEK_clean_linker_0, # of connection points: 2
#     Edge 52, Type (0, 1), BuildingBlock: EZIPEK_clean_linker_0, # of connection points: 2
#     Edge 53, Type (0, 1), BuildingBlock: EZIPEK_clean_linker_0, # of connection points: 2
#     Edge 54, Type (0, 1), BuildingBlock: EZIPEK_clean_linker_0, # of connection points: 2
#     Edge 55, Type (0, 1), BuildingBlock: EZIPEK_clean_linker_0, # of connection points: 2
#     Edge 56, Type (0, 1), BuildingBlock: EZIPEK_clean_linker_0, # of connection points: 2
#     Edge 57, Type (0, 1), BuildingBlock: EZIPEK_clean_linker_0, # of connection points: 2
#     Edge 58, Type (0, 1), BuildingBlock: EZIPEK_clean_linker_0, # of connection points: 2
#     Edge 59, Type (0, 1), BuildingBlock: EZIPEK_clean_linker_0, # of connection points: 2
#     Edge 60, Type (0, 1), BuildingBlock: EZIPEK_clean_linker_0, # of connection points: 2
#     Edge 61, Type (0, 1), BuildingBlock: EZIPEK_clean_linker_0, # of connection points: 2
#     Edge 62, Type (0, 1), BuildingBlock: EZIPEK_clean_linker_0, # of connection points: 2
#     Edge 63, Type (0, 1), BuildingBlock: EZIPEK_clean_linker_0, # of connection points: 2
#     Edge 64, Type (0, 1), BuildingBlock: EZIPEK_clean_linker_0, # of connection points: 2
#     Edge 65, Type (0, 1), BuildingBlock: EZIPEK_clean_linker_0, # of connection points: 2
#     Edge 66, Type (0, 1), BuildingBlock: EZIPEK_clean_linker_0, # of connection points: 2
#     Edge 67, Type (0, 1), BuildingBlock: EZIPEK_clean_linker_0, # of connection points: 2
#     Edge 68, Type (0, 1), BuildingBlock: EZIPEK_clean_linker_0, # of connection points: 2
#     Edge 69, Type (0, 1), BuildingBlock: EZIPEK_clean_linker_0, # of connection points: 2
#     Edge 70, Type (0, 1), BuildingBlock: EZIPEK_clean_linker_0, # of connection points: 2
#     Edge 71, Type (0, 1), BuildingBlock: EZIPEK_clean_linker_0, # of connection points: 2
#     Edge 72, Type (0, 1), BuildingBlock: EZIPEK_clean_linker_0, # of connection points: 2
#     Edge 73, Type (0, 1), BuildingBlock: EZIPEK_clean_linker_0, # of connection points: 2
#     Edge 74, Type (0, 1), BuildingBlock: EZIPEK_clean_linker_0, # of connection points: 2
#     Edge 75, Type (0, 1), BuildingBlock: EZIPEK_clean_linker_0, # of connection points: 2
# Relax obj value: 0.055
# Max RMSD: 0.167
# Mean RMSD: 0.093
data_MOF--net-ctn--node1-OLANEW_clean_sbu_2--node2-NAHDIM_clean_sbu_0--edge1-EZIPEK_clean_linker_0
_symmetry_space_group_name_H-M    P1
_symmetry_Int_Tables_number       1
_symmetry_cell_setting            triclinic
loop_
_symmetry_equiv_pos_as_xyz
'x, y, z'
_cell_length_a     43.430727
_cell_length_b     44.995219
_cell_length_c     41.563119
_cell_angle_alpha  92.692967
_cell_angle_beta   95.1612
_cell_angle_gamma 98.454953
loop_
_atom_site_label
_atom_site_type_symbol
_atom_site_fract_x
_atom_site_fract_y
_atom_site_fract_z
_atom_type_partial_charge
O0 O 0.05187 0.05984 0.98599 0.0
Cd1 Cd 0.05175 0.02369 0.0285 0.0
O2 O 0.03251 0.09167 0.01767 0.0
Cd3 Cd 0.0317 0.06461 0.05966 0.0
O4 O 0.01757 0.0473 0.1049 0.0
C5 C 0.98911 0.03577 0.10525 0.0
O6 O 0.9703 0.03311 0.07836 0.0
C7 C 0.04196 0.08478 0.99065 0.0
C8 C 0.09817 0.98701 0.02884 0.0
O9 O 0.07175 0.97903 0.01207 0.0
O10 O 0.10296 0.01254 0.04494 0.0
O11 O 0.33604 0.7413 0.29557 0.0
Cd12 Cd 0.28358 0.73001 0.26718 0.0
O13 O 0.33798 0.69436 0.3078 0.0
Cd14 Cd 0.29038 0.67645 0.2876 0.0
O15 O 0.24493 0.64763 0.28064 0.0
C16 C 0.24012 0.62723 0.30053 0.0
O17 O 0.26201 0.62481 0.3238 0.0
C18 C 0.35072 0.72171 0.30839 0.0
C19 C 0.27718 0.76642 0.21548 0.0
O20 O 0.2706 0.7748 0.24361 0.0
O21 O 0.28669 0.74097 0.21167 0.0
O22 O 0.95484 0.48333 0.11537 0.0
Cd23 Cd 0.9277 0.47282 0.06099 0.0
O24 O 0.99035 0.45366 0.10855 0.0
Cd25 Cd 0.97475 0.43594 0.05899 0.0
O26 O 0.97793 0.40605 0.01671 0.0
C27 C -0.00271 0.38757 0.02053 0.0
O28 O 0.0137 0.38765 0.04869 0.0
C29 C 0.9786 0.47204 0.12617 0.0
C30 C 0.8852 0.51271 0.04789 0.0
O31 O 0.87719 0.48833 0.06179 0.0
O32 O 0.91326 0.51834 0.04007 0.0
O33 O 0.7355 0.85318 0.21849 0.0
Cd34 Cd 0.69814 0.80661 0.2186 0.0
O35 O 0.7701 0.83878 0.25429 0.0
Cd36 Cd 0.7373 0.79978 0.2643 0.0
O37 O 0.69556 0.78175 0.28647 0.0
C38 C 0.67818 0.801 0.29347 0.0
O39 O 0.68583 0.8291 0.2864 0.0
C40 C 0.76202 0.85804 0.23508 0.0
C41 C 0.70822 0.76204 0.17356 0.0
O42 O 0.7222 0.76425 0.20225 0.0
O43 O 0.68973 0.78089 0.16601 0.0
O44 O 0.138 0.96184 0.52711 0.0
Cd45 Cd 0.11852 0.90819 0.51519 0.0
O46 O 0.09322 0.97146 0.50494 0.0
Cd47 Cd 0.06072 5e-05 0.48519 0.0
O48 O 0.0215 0.01082 0.45378 0.0
C49 C 0.01498 -0.00514 0.42734 0.0
O50 O 0.03205 0.97398 0.42069 0.0
C51 C 0.12083 0.9809 0.51763 0.0
C52 C 0.07184 0.88122 0.55077 0.0
O53 O 0.10082 0.88197 0.56046 0.0
O54 O 0.06471 0.89428 0.52498 0.0
O55 O 0.21689 0.74493 0.87128 0.0
Cd56 Cd 0.20539 0.71442 0.82007 0.0
O57 O 0.19015 0.71316 0.90113 0.0
Cd58 Cd 0.16827 0.68779 0.85714 0.0
O59 O 0.13915 0.70093 0.81646 0.0
C60 C 0.12555 0.72317 0.82356 0.0
O61 O 0.12655 0.7316 0.85436 0.0
C62 C 0.20827 0.73766 0.89867 0.0
C63 C 0.24373 0.67045 0.8136 0.0
O64 O 0.25213 0.69718 0.80502 0.0
O65 O 0.21751 0.66451 0.82559 0.0
O66 O 0.96814 0.54932 0.4604 0.0
Cd67 Cd 0.9388 0.56488 0.50437 0.0
O68 O 0.00292 0.53122 0.49289 0.0
Cd69 Cd 0.98296 0.54636 0.53585 0.0
O70 O 0.96924 0.57626 0.57299 0.0
C71 C 0.98103 0.60379 0.57266 0.0
O72 O -0.00038 0.61222 0.55045 0.0
C73 C -0.00773 0.53645 0.46454 0.0
C74 C 0.89217 0.51974 0.51937 0.0
O75 O 0.92014 0.52174 0.53288 0.0
O76 O 0.88614 0.53889 0.49873 0.0
O77 O 0.78005 0.76142 0.86084 0.0
Cd78 Cd 0.78379 0.79852 0.81947 0.0
O79 O 0.73827 0.7755 0.88008 0.0
Cd80 Cd 0.73204 0.8118 0.84799 0.0
O81 O 0.7136 0.85192 0.83159 0.0
C82 C 0.68769 0.85656 0.84132 0.0
O83 O 0.67328 0.8372 0.85975 0.0
C84 C 0.75923 0.7585 0.88058 0.0
C85 C 0.82874 0.78838 0.77791 0.0
O86 O 0.83642 0.80437 0.80453 0.0
O87 O 0.79988 0.77735 0.77069 0.0
O88 O 0.28071 0.22521 0.3197 0.0
Cd89 Cd 0.28745 0.24731 0.26738 0.0
O90 O 0.25348 0.26161 0.32765 0.0
Cd91 Cd 0.22463 0.28883 0.35336 0.0
O92 O 0.19907 0.32658 0.36106 0.0
C93 C 0.17901 0.33136 0.33845 0.0
O94 O 0.1737 0.31319 0.31224 0.0
C95 C 0.26416 0.23853 0.3377 0.0
C96 C 0.34325 0.24288 0.24049 0.0
O97 O 0.34127 0.26491 0.26051 0.0
O98 O 0.3193 0.22251 0.23385 0.0
O99 O 0.46953 0.02247 0.59592 0.0
Cd100 Cd 0.44846 0.02832 0.54035 0.0
O101 O 0.48598 0.98214 0.57666 0.0
Cd102 Cd 0.50977 0.9426 0.57854 0.0
O103 O 0.52471 0.90084 0.56128 0.0
C104 C 0.52981 0.89879 0.53168 0.0
O105 O 0.52732 0.92179 0.51382 0.0
C106 C 0.48393 0.00017 0.60056 0.0
C107 C 0.39804 0.06006 0.53394 0.0
O108 O 0.39368 0.0315 0.53639 0.0
O109 O 0.42619 0.07384 0.5354 0.0
O110 O 0.23478 0.36288 0.71752 0.0
Cd111 Cd 0.19593 0.31761 0.70467 0.0
O112 O 0.25855 0.34465 0.75967 0.0
Cd113 Cd 0.22412 0.30408 0.75666 0.0
O114 O 0.18158 0.27767 0.76989 0.0
C115 C 0.16102 0.2929 0.77863 0.0
O116 O 0.166 0.32233 0.77751 0.0
C117 C 0.25638 0.36576 0.74074 0.0
C118 C 0.21338 0.27836 0.65821 0.0
O119 O 0.22055 0.27571 0.68842 0.0
O120 O 0.19818 0.29957 0.64986 0.0
O121 O 0.82606 0.24002 0.76616 0.0
Cd122 Cd 0.77188 0.23059 0.74168 0.0
O123 O 0.81985 0.20013 0.79518 0.0
Cd124 Cd 0.7708 0.18596 0.77798 0.0
O125 O 0.72168 0.16592 0.7736 0.0
C126 C 0.71026 0.15731 0.79928 0.0
O127 O 0.72951 0.15931 0.82581 0.0
C128 C 0.83704 0.22316 0.78658 0.0
C129 C 0.76258 0.26252 0.68677 0.0
O130 O 0.76073 0.27443 0.71501 0.0
O131 O 0.76899 0.23564 0.68437 0.0
O132 O 0.56264 0.56828 0.50762 0.0
Cd133 Cd 0.56347 0.53085 0.54841 0.0
O134 O 0.52368 0.58758 0.52698 0.0
Cd135 Cd 0.51854 0.56016 0.56841 0.0
O136 O 0.49951 0.552 0.61442 0.0
C137 C 0.47122 0.53974 0.61418 0.0
O138 O 0.45469 0.53073 0.58651 0.0
C139 C 0.54349 0.58711 0.50635 0.0
C140 C 0.60767 0.49316 0.53829 0.0
O141 O 0.61511 0.5179 0.55567 0.0
O142 O 0.57932 0.48603 0.52578 0.0
O143 O 0.62526 0.46264 0.98432 0.0
Cd144 Cd 0.59439 0.41367 0.96646 0.0
O145 O 0.58168 0.48147 0.97694 0.0
Cd146 Cd 0.55309 0.51705 0.97011 0.0
O147 O 0.51171 0.53287 0.94744 0.0
C148 C 0.49685 0.51518 0.92466 0.0
O149 O 0.50709 0.48991 0.91723 0.0
C150 C 0.61113 0.48543 0.98377 0.0
C151 C 0.56939 0.37732 0.01298 0.0
O152 O 0.59693 0.37589 0.00479 0.0
O153 O 0.55401 0.39673 0.00017 0.0
O154 O 0.81696 0.27113 0.36484 0.0
Cd155 Cd 0.83002 0.24886 0.31403 0.0
O156 O 0.76774 0.25892 0.34617 0.0
Cd157 Cd 0.71762 0.25914 0.34645 0.0
O158 O 0.66936 0.25368 0.32475 0.0
C159 C 0.66631 0.25576 0.2943 0.0
O160 O 0.69145 0.26114 0.27884 0.0
C161 C 0.78825 0.27145 0.36827 0.0
C162 C 0.83196 0.18731 0.31256 0.0
O163 O 0.85645 0.20638 0.32184 0.0
O164 O 0.80623 0.19719 0.30488 0.0
O165 O 0.42501 0.00056 0.88553 0.0
Cd166 Cd 0.37149 0.0031 0.89726 0.0
O167 O 0.44037 0.03035 0.92889 0.0
Cd168 Cd 0.47203 0.05937 0.96511 0.0
O169 O 0.48099 0.09239 0.00653 0.0
C170 C 0.50786 0.10172 0.0212 0.0
O171 O 0.53253 0.09144 0.01161 0.0
C172 C 0.44707 0.01564 0.90428 0.0
C173 C 0.35568 0.97509 0.95295 0.0
O174 O 0.35168 0.96042 0.92534 0.0
O175 O 0.36787 0.00291 0.95453 0.0
C176 C 0.19269 0.90845 0.03232 0.0
O177 O 0.2078 0.90563 0.00662 0.0
O178 O 0.22252 0.83618 0.02179 0.0
Zn179 Zn 0.23533 0.87061 0.05541 0.0
O180 O 0.27055 0.89817 0.03923 0.0
C181 C 0.26492 0.83552 0.10253 0.0
O182 O 0.28046 0.82852 0.07834 0.0
O183 O 0.19982 0.89472 0.05734 0.0
C184 C 0.2991 0.9057 0.04978 0.0
O185 O 0.31034 0.89552 0.07677 0.0
C186 C 0.24284 0.82606 0.00591 0.0
O187 O 0.27246 0.83779 0.01164 0.0
O188 O 0.24567 0.85413 0.0989 0.0
C189 C 0.11858 0.43761 0.33759 0.0
O190 O 0.11739 0.45456 0.36392 0.0
O191 O 0.06319 0.48906 0.34308 0.0
Zn192 Zn 0.08936 0.48371 0.30589 0.0
O193 O 0.12612 0.51748 0.30724 0.0
C194 C 0.04148 0.49563 0.25535 0.0
O195 O 0.03484 0.51574 0.2765 0.0
O196 O 0.10769 0.44532 0.31035 0.0
C197 C 0.12576 0.5421 0.29348 0.0
O198 O 0.09998 0.54757 0.27745 0.0
C199 C 0.05856 0.51494 0.35326 0.0
O200 O 0.07052 0.5389 0.33921 0.0
O201 O 0.06311 0.48022 0.26272 0.0
C202 C 0.79535 0.59389 0.02019 0.0
O203 O 0.78056 0.59272 0.99105 0.0
O204 O 0.75975 0.65632 0.9909 0.0
Zn205 Zn 0.75198 0.6338 0.03159 0.0
O206 O 0.71397 0.60148 0.02452 0.0
C207 C 0.72254 0.67133 0.07485 0.0
O208 O 0.697 0.66013 0.05631 0.0
O209 O 0.78805 0.61124 0.04237 0.0
C210 C 0.6912 0.60045 0.00288 0.0
O211 O 0.69026 0.6224 0.98329 0.0
C212 C 0.74622 0.67876 0.98407 0.0
O213 O 0.72649 0.68753 0.00327 0.0
O214 O 0.74844 0.66303 0.06937 0.0
C215 C 0.85253 0.06384 0.29816 0.0
O216 O 0.84279 0.04185 0.31621 0.0
O217 O 0.92029 0.01749 0.30561 0.0
Zn218 Zn 0.88839 0.0214 0.26865 0.0
O219 O 0.85509 0.98466 0.26393 0.0
C220 C 0.93045 0.00845 0.2216 0.0
O221 O 0.9362 0.98701 0.24062 0.0
O222 O 0.87061 0.0596 0.27657 0.0
C223 C 0.84669 0.97001 0.2369 0.0
O224 O 0.85884 0.97932 0.21069 0.0
C225 C 0.9129 0.00663 0.33199 0.0
O226 O 0.8834 -0.00248 0.33583 0.0
O227 O 0.91085 0.0255 0.22861 0.0
C228 C 0.28789 0.11613 0.50645 0.0
O229 O 0.2718 0.10738 0.47847 0.0
O230 O 0.24055 0.16526 0.46717 0.0
Zn231 Zn 0.23667 0.14754 0.51087 0.0
O232 O 0.20481 0.10959 0.5069 0.0
C233 C 0.24718 0.19601 0.56073 0.0
O234 O 0.27664 0.19581 0.55598 0.0
O235 O 0.27789 0.13464 0.52549 0.0
C236 C 0.18398 0.10394 0.52631 0.0
O237 O 0.18087 0.12432 0.54899 0.0
C238 C 0.2382 0.1925 0.46197 0.0
O239 O 0.23183 0.21059 0.48533 0.0
O240 O 0.22595 0.17768 0.54409 0.0
C241 C 0.31658 0.57397 0.79739 0.0
O242 O 0.30699 0.54847 0.81007 0.0
O243 O 0.39507 0.53876 0.81261 0.0
Zn244 Zn 0.36311 0.54069 0.77492 0.0
O245 O 0.33218 0.50235 0.76939 0.0
C246 C 0.41105 0.5339 0.7326 0.0
O247 O 0.42352 0.52145 0.75753 0.0
O248 O 0.34034 0.57624 0.78138 0.0
C249 C 0.34186 0.47718 0.76626 0.0
O250 O 0.37199 0.47619 0.7677 0.0
C251 C 0.38891 0.53386 0.84135 0.0
O252 O 0.35982 0.53062 0.84854 0.0
O253 O 0.38552 0.54432 0.73444 0.0
C254 C 0.70423 0.42014 0.51764 0.0
O255 O 0.7258 0.43042 0.49906 0.0
O256 O 0.74077 0.34799 0.489 0.0
Zn257 Zn 0.7447 0.37586 0.52907 0.0
O258 O 0.78154 0.40764 0.52498 0.0
C259 C 0.74076 0.32639 0.57116 0.0
O260 O 0.72294 0.31212 0.54634 0.0
O261 O 0.70657 0.39623 0.53221 0.0
C262 C 0.79333 0.42672 0.54786 0.0
O263 O 0.78186 0.4257 0.57604 0.0
C264 C 0.76444 0.33518 0.48487 0.0
O265 O 0.78859 0.33979 0.50686 0.0
O266 O 0.75255 0.35378 0.56947 0.0
C267 C 0.63245 0.96313 0.81254 0.0
O268 O 0.64571 0.98945 0.82595 0.0
O269 O 0.55354 0.00144 0.81628 0.0
Zn270 Zn 0.58653 -0.00209 0.78568 0.0
O271 O 0.61828 0.03554 0.7922 0.0
C272 C 0.53809 0.98856 0.73111 0.0
O273 O 0.51916 0.98086 0.75325 0.0
O274 O 0.60702 0.96112 0.7943 0.0
C275 C 0.60863 0.06066 0.78907 0.0
O276 O 0.57866 0.06141 0.78231 0.0
C277 C 0.56014 0.00686 0.84661 0.0
O278 O 0.58933 0.01001 0.85924 0.0
O279 O 0.56727 -0.00427 0.73925 0.0
C280 C 0.03 0.17897 0.90363 0.0
O281 O 0.03212 0.17766 0.8723 0.0
O282 O 0.97409 0.22873 0.86502 0.0
Zn283 Zn 0.01463 0.23883 0.8935 0.0
O284 O 0.00965 0.27226 0.92596 0.0
C285 C 0.05068 0.24452 0.83778 0.0
O286 O 0.02647 0.22702 0.82236 0.0
O287 O 0.02278 0.20241 0.9175 0.0
C288 C 0.0186 0.2999 0.9218 0.0
O289 O 0.03225 0.30758 0.89585 0.0
C290 C 0.96315 0.24887 0.84906 0.0
O291 O 0.97911 0.27608 0.84989 0.0
O292 O 0.05063 0.25209 0.8676 0.0
C293 C 0.5365 0.68337 0.42119 0.0
O294 O 0.53164 0.68053 0.38947 0.0
O295 O 0.49119 0.73472 0.38168 0.0
Zn296 Zn 0.53193 0.74453 0.4099 0.0
O297 O 0.53011 0.78062 0.43977 0.0
C298 C 0.57054 0.77495 0.3651 0.0
O299 O 0.54939 0.79304 0.36403 0.0
O300 O 0.53785 0.70903 0.4358 0.0
C301 C 0.55204 0.79158 0.46121 0.0
O302 O 0.57749 0.77905 0.46501 0.0
C303 C 0.47448 0.75496 0.37506 0.0
O304 O 0.48411 0.78295 0.38595 0.0
O305 O 0.56781 0.7527 0.38284 0.0
C306 C 0.99015 0.80651 0.62618 0.0
O307 O 0.96187 0.79234 0.61686 0.0
O308 O 0.95252 0.77566 0.70396 0.0
Zn309 Zn 0.98901 0.76661 0.67988 0.0
O310 O 0.97981 0.72794 0.65166 0.0
C311 C 0.02347 0.74853 0.73729 0.0
O312 O -0.00407 0.73678 0.74533 0.0
O313 O 0.00457 0.80012 0.65228 0.0
C314 C 0.96912 0.70254 0.66161 0.0
O315 O 0.96054 0.70083 0.69103 0.0
C316 C 0.92418 0.76445 0.69553 0.0
O317 O 0.91705 0.7464 0.66934 0.0
O318 O 0.02559 0.76248 0.71156 0.0
C319 C 0.51371 0.291 0.09813 0.0
O320 O 0.49122 0.2694 0.08644 0.0
O321 O 0.47562 0.2566 0.17426 0.0
Zn322 Zn 0.51504 0.25378 0.15226 0.0
O323 O 0.51034 0.21756 0.12044 0.0
C324 C 0.54971 0.24185 0.21281 0.0
O325 O 0.52254 0.22907 0.22082 0.0
O326 O 0.52645 0.29007 0.12672 0.0
C327 C 0.51483 0.19123 0.12743 0.0
O328 O 0.52156 0.18548 0.15771 0.0
C329 C 0.45413 0.23421 0.17498 0.0
O330 O 0.45686 0.20827 0.16059 0.0
O331 O 0.55165 0.25305 0.18545 0.0
C332 C 0.20441 0.78729 0.92622 0.0
C333 C 0.21637 0.75958 0.92686 0.0
C334 C 0.24233 0.77401 0.98133 0.0
C335 C 0.23303 0.80286 0.97917 0.0
N336 N 0.2097 0.83894 0.94761 0.0
N337 N 0.24956 0.72754 0.95292 0.0
C338 C 0.21519 0.81004 0.95113 0.0
C339 C 0.23603 0.75311 0.95392 0.0
N340 N 0.18193 0.79152 0.90235 0.0
N341 N 0.25633 0.76633 0.0099 0.0
H342 H 0.2453 0.71168 0.93328 0.0
H343 H 0.26679 0.72312 0.97034 0.0
H344 H 0.26122 0.78108 0.03045 0.0
H345 H 0.26073 0.74465 0.01412 0.0
H346 H 0.1698 0.80983 0.90269 0.0
H347 H 0.17324 0.77539 0.88365 0.0
H348 H 0.19998 0.84624 0.92612 0.0
H349 H 0.21738 0.8564 0.96519 0.0
C350 C -0.00574 0.50976 0.4104 0.0
C351 C 0.0094 0.5296 0.43651 0.0
C352 C 0.05795 0.53524 0.41011 0.0
C353 C 0.04182 0.51849 0.38234 0.0
N354 N -0.00636 0.49271 0.35407 0.0
N355 N 0.05399 0.5657 0.45859 0.0
C356 C 0.0097 0.50638 0.38195 0.0
C357 C 0.04085 0.5435 0.43574 0.0
N358 N 0.96558 0.49345 0.41319 0.0
N359 N 0.08981 0.5424 0.4125 0.0
H360 H 0.04212 0.57309 0.47742 0.0
H361 H 0.0756 0.57884 0.45709 0.0
H362 H 0.10327 0.53592 0.3946 0.0
H363 H 0.10311 0.55192 0.43357 0.0
H364 H 0.9548 0.47634 0.39639 0.0
H365 H 0.95374 0.49515 0.43379 0.0
H366 H 0.96945 0.48646 0.35124 0.0
H367 H 0.00415 0.48972 0.33279 0.0
C368 C 0.74868 0.70574 0.89856 0.0
C369 C 0.76041 0.73666 0.90606 0.0
C370 C 0.77074 0.72674 0.9632 0.0
C371 C 0.75465 0.69703 0.95652 0.0
N372 N 0.7282 0.65752 0.91838 0.0
N373 N 0.78225 0.77728 0.94519 0.0
C374 C 0.744 0.68613 0.92424 0.0
C375 C 0.77152 0.74732 0.9383 0.0
N376 N 0.74196 0.69525 0.86692 0.0
N377 N 0.78617 0.73484 0.99317 0.0
H378 H 0.78495 0.79278 0.92738 0.0
H379 H 0.78693 0.78713 0.96862 0.0
H380 H 0.78704 0.71976 0.01142 0.0
H381 H 0.8007 0.75528 -0.00101 0.0
H382 H 0.73624 0.67253 0.85953 0.0
H383 H 0.7443 0.70921 0.84767 0.0
H384 H 0.71648 0.64923 0.8961 0.0
H385 H 0.72551 0.64226 0.9364 0.0
C386 C 0.96426 0.97342 0.39552 0.0
C387 C 0.98766 -0.00139 0.40474 0.0
C388 C 0.95862 0.03007 0.37056 0.0
C389 C 0.93772 0.004 0.35805 0.0
N390 N 0.92367 0.94989 0.35472 0.0
N391 N 0.00975 0.05005 0.39743 0.0
C392 C 0.94122 0.97539 0.36955 0.0
C393 C 0.98551 0.0268 0.39144 0.0
N394 N 0.9634 0.94792 0.41226 0.0
N395 N 0.9523 0.058 0.36327 0.0
H396 H 0.03014 0.0485 0.41212 0.0
H397 H 0.01087 0.06997 0.38549 0.0
H398 H 0.93252 0.06133 0.34851 0.0
H399 H 0.96495 0.07787 0.37436 0.0
H400 H 0.94501 0.93005 0.40869 0.0
H401 H 0.97935 0.94588 0.43205 0.0
H402 H 0.92774 0.92828 0.35984 0.0
H403 H 0.90695 0.95017 0.33513 0.0
C404 C 0.21107 0.226 0.63341 0.0
C405 C 0.22231 0.25727 0.63345 0.0
C406 C 0.24756 0.24862 0.5841 0.0
C407 C 0.23877 0.21711 0.58581 0.0
N408 N 0.21758 0.17544 0.61575 0.0
N409 N 0.25609 0.29781 0.61259 0.0
C410 C 0.22199 0.20566 0.61147 0.0
C411 C 0.24189 0.26847 0.60981 0.0
N412 N 0.18903 0.2158 0.65343 0.0
N413 N 0.26021 0.25973 0.55735 0.0
H414 H 0.25292 0.31297 0.63133 0.0
H415 H 0.27326 0.30639 0.59812 0.0
H416 H 0.26452 0.24603 0.53784 0.0
H417 H 0.26381 0.28257 0.55316 0.0
H418 H 0.17747 0.19372 0.65191 0.0
H419 H 0.18009 0.22997 0.66958 0.0
H420 H 0.20846 0.16616 0.63602 0.0
H421 H 0.22582 0.1598 0.6007 0.0
C422 C 0.44719 0.50988 0.65733 0.0
C423 C 0.4561 0.53819 0.64462 0.0
C424 C 0.43788 0.5638 0.69103 0.0
C425 C 0.42655 0.53538 0.70234 0.0
N426 N 0.41613 0.48122 0.69413 0.0
N427 N 0.45552 0.59179 0.64601 0.0
C428 C 0.4301 0.50834 0.68496 0.0
C429 C 0.45027 0.56511 0.66055 0.0
N430 N 0.45594 0.48459 0.64359 0.0
N431 N 0.43796 0.5895 0.70999 0.0
H432 H 0.46464 0.59372 0.6237 0.0
H433 H 0.44841 0.61152 0.65466 0.0
H434 H 0.4293 0.58947 0.7326 0.0
H435 H 0.44908 0.61056 0.7047 0.0
H436 H 0.45327 0.46382 0.65386 0.0
H437 H 0.46824 0.48486 0.62314 0.0
H438 H 0.41473 0.46107 0.68032 0.0
H439 H 0.40362 0.47908 0.71434 0.0
C440 C 0.72682 0.28644 0.64862 0.0
C441 C 0.75715 0.27936 0.65749 0.0
C442 C 0.7772 0.30481 0.61086 0.0
C443 C 0.74657 0.31073 0.6012 0.0
N444 N 0.69188 0.3068 0.60934 0.0
N445 N 0.81098 0.28003 0.64715 0.0
C446 C 0.72128 0.30144 0.61969 0.0
C447 C 0.78229 0.28808 0.63861 0.0
N448 N 0.70339 0.27892 0.66805 0.0
N449 N 0.80143 0.31543 0.59356 0.0
H450 H 0.81625 0.2697 0.66847 0.0
H451 H 0.82943 0.28234 0.63271 0.0
H452 H 0.79839 0.32599 0.57196 0.0
H453 H 0.82487 0.31513 0.60103 0.0
H454 H 0.68175 0.28626 0.6654 0.0
H455 H 0.70583 0.26605 0.68807 0.0
H456 H 0.67163 0.29771 0.61913 0.0
H457 H 0.68728 0.31973 0.5898 0.0
C458 C 0.49092 0.96921 0.64901 0.0
C459 C 0.49904 -0.00384 0.63321 0.0
C460 C 0.53101 0.01868 0.68228 0.0
C461 C 0.52517 0.9909 0.69717 0.0
N462 N 0.50471 0.93788 0.69231 0.0
N463 N 0.53283 0.04369 0.63211 0.0
C464 C 0.50659 0.96559 0.67983 0.0
C465 C 0.5209 0.02006 0.64905 0.0
N466 N 0.4673 0.94762 0.63534 0.0
N467 N 0.54475 0.04419 0.7002 0.0
H468 H 0.52669 0.0452 0.60746 0.0
H469 H 0.55124 0.06014 0.64167 0.0
H470 H 0.55134 0.04451 0.72494 0.0
H471 H 0.54658 0.06558 0.6913 0.0
H472 H 0.45812 0.92906 0.64739 0.0
H473 H 0.45493 0.94955 0.61304 0.0
H474 H 0.49421 0.91809 0.67927 0.0
H475 H 0.51625 0.93425 0.71455 0.0
C476 C 0.89517 0.2317 0.78315 0.0
C477 C 0.86946 0.23111 0.80203 0.0
C478 C 0.90527 0.24026 0.85173 0.0
C479 C 0.931 0.24273 0.83276 0.0
N480 N 0.95105 0.24511 0.78055 0.0
N481 N 0.84979 0.24112 0.85329 0.0
C482 C 0.92612 0.23991 0.79846 0.0
C483 C 0.87443 0.23707 0.83608 0.0
N484 N 0.89008 0.22296 0.75091 0.0
N485 N 0.91023 0.24081 0.88475 0.0
H486 H 0.82691 0.2397 0.84261 0.0
H487 H 0.85232 0.24876 0.87755 0.0
H488 H 0.93242 0.24459 0.89739 0.0
H489 H 0.89241 0.23541 0.8996 0.0
H490 H 0.90788 0.21967 0.73656 0.0
H491 H 0.86779 0.21663 0.73888 0.0
H492 H 0.94883 0.24686 0.75558 0.0
H493 H 0.97414 0.24967 0.79091 0.0
C494 C 0.56511 0.87094 0.50134 0.0
C495 C 0.53719 0.87043 0.51674 0.0
C496 C 0.52283 0.8166 0.50118 0.0
C497 C 0.54839 0.81822 0.48202 0.0
N498 N 0.59178 0.84791 0.46031 0.0
N499 N 0.48699 0.84381 0.52745 0.0
C500 C 0.56917 0.84559 0.48131 0.0
C501 C 0.51545 0.84348 0.51588 0.0
N502 N 0.58811 0.89537 0.50652 0.0
N503 N 0.50605 0.78926 0.50597 0.0
H504 H 0.48028 0.86305 0.53793 0.0
H505 H 0.46892 0.82564 0.52404 0.0
H506 H 0.51107 0.76903 0.49597 0.0
H507 H 0.48924 0.78637 0.52238 0.0
H508 H 0.61026 0.89582 0.49863 0.0
H509 H 0.58612 0.91416 0.52145 0.0
H510 H 0.60525 0.86823 0.45611 0.0
H511 H 0.59535 0.83002 0.44494 0.0
C512 C 0.13541 0.26169 0.82017 0.0
C513 C 0.13262 0.27815 0.79201 0.0
C514 C 0.07589 0.27313 0.79413 0.0
C515 C 0.07849 0.25487 0.82086 0.0
N516 N 0.10957 0.22602 0.85459 0.0
N517 N 0.09991 0.29408 0.74812 0.0
C518 C 0.10793 0.2474 0.83245 0.0
C519 C 0.10273 0.28222 0.77774 0.0
N520 N 0.16415 0.26102 0.83629 0.0
N521 N 0.04824 0.28308 0.7854 0.0
H522 H 0.11904 0.30056 0.73518 0.0
H523 H 0.07844 0.29476 0.73502 0.0
H524 H 0.02821 0.27746 0.79722 0.0
H525 H 0.04592 0.29909 0.76839 0.0
H526 H 0.16717 0.25222 0.8589 0.0
H527 H 0.18495 0.27173 0.82868 0.0
H528 H 0.13001 0.21738 0.86138 0.0
H529 H 0.08984 0.21474 0.86376 0.0
C530 C 0.56952 0.63294 0.48171 0.0
C531 C 0.54402 0.60918 0.48109 0.0
C532 C 0.5139 0.63348 0.44014 0.0
C533 C 0.53973 0.65678 0.44003 0.0
N534 N 0.59432 0.67548 0.45484 0.0
N535 N 0.49524 0.58294 0.45484 0.0
C536 C 0.56826 0.6555 0.45902 0.0
C537 C 0.51723 0.60824 0.4587 0.0
N538 N 0.59416 0.63486 0.50501 0.0
N539 N 0.48571 0.63619 0.42395 0.0
H540 H 0.49718 0.56395 0.46792 0.0
H541 H 0.47673 0.57964 0.43665 0.0
H542 H 0.48217 0.65442 0.41021 0.0
H543 H 0.46514 0.62164 0.42621 0.0
H544 H 0.61156 0.65356 0.50912 0.0
H545 H 0.59616 0.61867 0.52191 0.0
H546 H 0.61657 0.6738 0.46551 0.0
H547 H 0.59424 0.69222 0.43829 0.0
C548 C 0.86923 0.80622 0.74064 0.0
C549 C 0.85281 0.78225 0.75633 0.0
C550 C 0.88436 0.747 0.7334 0.0
C551 C 0.89942 0.77055 0.71617 0.0
N552 N 0.90369 0.8214 0.69946 0.0
N553 N 0.8422 0.72928 0.7655 0.0
C554 C 0.89129 0.79991 0.71884 0.0
C555 C 0.85951 0.75244 0.7519 0.0
N556 N 0.86371 0.83503 0.74656 0.0
N557 N 0.89496 0.71983 0.73345 0.0
H558 H 0.82555 0.73244 0.78138 0.0
H559 H 0.84302 0.70667 0.75972 0.0
H560 H 0.91309 0.71497 0.72028 0.0
H561 H 0.88763 0.70285 0.74845 0.0
H562 H 0.87751 0.85394 0.73925 0.0
H563 H 0.84618 0.84035 0.7604 0.0
H564 H 0.89632 0.84228 0.69748 0.0
H565 H 0.91989 0.81758 0.68325 0.0
C566 C 0.0322 0.83548 0.5546 0.0
C567 C 0.04737 0.86402 0.56809 0.0
C568 C 0.019 0.8572 0.61632 0.0
C569 C 0.00717 0.82715 0.60473 0.0
N570 N 0.0058 0.78607 0.56475 0.0
N571 N 0.05667 0.90207 0.61206 0.0
C572 C 0.01423 0.81594 0.57415 0.0
C573 C 0.0411 0.87494 0.59903 0.0
N574 N 0.0353 0.8268 0.52322 0.0
N575 N 0.0084 0.86894 0.64343 0.0
H576 H 0.07163 0.91639 0.59932 0.0
H577 H 0.05608 0.90973 0.63598 0.0
H578 H 0.9919 0.85661 0.65633 0.0
H579 H 0.01373 0.89151 0.65155 0.0
H580 H 0.02186 0.80792 0.51089 0.0
H581 H 0.04952 0.83968 0.50853 0.0
H582 H 0.0136 0.77584 0.54467 0.0
H583 H -0.00681 0.77068 0.57845 0.0
C584 C 0.10164 0.72511 0.76576 0.0
C585 C 0.10505 0.73622 0.79861 0.0
C586 C 0.05859 0.7608 0.7888 0.0
C587 C 0.05223 0.74534 0.75785 0.0
N588 N 0.06727 0.71252 0.71631 0.0
N589 N 0.09783 0.77872 0.83317 0.0
C590 C 0.07386 0.72776 0.74595 0.0
C591 C 0.0867 0.7582 0.80801 0.0
N592 N 0.12612 0.71476 0.75272 0.0
N593 N 0.03772 0.77778 0.79999 0.0
H594 H 0.12069 0.78075 0.84403 0.0
H595 H 0.0866 0.79665 0.83979 0.0
H596 H 0.01782 0.78185 0.78592 0.0
H597 H 0.03915 0.78634 0.8239 0.0
H598 H 0.12599 0.70845 0.72828 0.0
H599 H 0.14831 0.71689 0.76523 0.0
H600 H 0.07999 0.69624 0.70822 0.0
H601 H 0.04771 0.71453 0.70056 0.0
C602 C 0.95655 0.64918 0.58651 0.0
C603 C 0.97404 0.62647 0.59679 0.0
C604 C 0.98631 0.65229 0.65068 0.0
C605 C 0.96846 0.67488 0.64055 0.0
N606 N 0.93095 0.69144 0.60177 0.0
N607 N 0.00039 0.60285 0.63993 0.0
C608 C 0.95192 0.67232 0.60926 0.0
C609 C 0.98702 0.62678 0.62938 0.0
N610 N 0.94467 0.64877 0.55485 0.0
N611 N 0.00434 0.65614 0.67974 0.0
H612 H 0.00302 0.58449 0.62474 0.0
H613 H 0.00678 0.60006 0.66422 0.0
H614 H 0.00458 0.67424 0.69633 0.0
H615 H 0.021 0.6426 0.68654 0.0
H616 H 0.93525 0.6666 0.54478 0.0
H617 H 0.94556 0.63103 0.53803 0.0
H618 H 0.91585 0.68906 0.58059 0.0
H619 H 0.92655 0.70824 0.61813 0.0
C620 C 0.81306 0.88698 0.22305 0.0
C621 C 0.78293 0.88695 0.23363 0.0
C622 C 0.79339 0.94193 0.2426 0.0
C623 C 0.82459 0.94153 0.23531 0.0
N624 N 0.86596 0.91332 0.22398 0.0
N625 N 0.74591 0.9136 0.25848 0.0
C626 C 0.83494 0.91396 0.22685 0.0
C627 C 0.77339 0.91424 0.24464 0.0
N628 N 0.82046 0.8614 0.20856 0.0
N629 N 0.78261 0.96879 0.24671 0.0
H630 H 0.73065 0.89381 0.26077 0.0
H631 H 0.73948 0.93236 0.27024 0.0
H632 H 0.79661 0.98956 0.24545 0.0
H633 H 0.75917 0.97049 0.24855 0.0
H634 H 0.84085 0.86085 0.19727 0.0
H635 H 0.80489 0.84126 0.20515 0.0
H636 H 0.8754 0.89349 0.22124 0.0
H637 H 0.88286 0.9325 0.22741 0.0
C638 C 0.84519 0.14046 0.3373 0.0
C639 C 0.8338 0.15466 0.30987 0.0
C640 C 0.82791 0.1069 0.27737 0.0
C641 C 0.8436 0.09408 0.3034 0.0
N642 N 0.87093 0.09975 0.35711 0.0
N643 N 0.81835 0.15255 0.25234 0.0
C644 C 0.85304 0.11103 0.33324 0.0
C645 C 0.82593 0.13815 0.27953 0.0
N646 N 0.84776 0.15481 0.36736 0.0
N647 N 0.81437 0.08906 0.25083 0.0
H648 H 0.8173 0.17555 0.2525 0.0
H649 H 0.81588 0.14224 0.22909 0.0
H650 H 0.81504 0.06596 0.24865 0.0
H651 H 0.79989 0.0965 0.23254 0.0
H652 H 0.85291 0.1444 0.38863 0.0
H653 H 0.84169 0.17618 0.3713 0.0
H654 H 0.88151 0.11252 0.37779 0.0
H655 H 0.87746 0.07841 0.35514 0.0
C656 C 0.32174 0.97075 -0.00108 0.0
C657 C 0.34542 0.9602 0.98203 0.0
C658 C 0.3425 0.91546 0.01376 0.0
C659 C 0.31907 0.92621 0.03077 0.0
N660 N 0.29267 0.96732 0.0461 0.0
N661 N 0.38404 0.92708 0.97894 0.0
C662 C 0.31085 0.95502 0.0255 0.0
C663 C 0.35765 0.93397 0.99128 0.0
N664 N 0.3081 -0.0055 0.98832 0.0
N665 N 0.34904 0.88697 0.01766 0.0
H666 H 0.39591 0.94046 0.96276 0.0
H667 H 0.39583 0.90988 0.98705 0.0
H668 H 0.33883 0.87288 0.03425 0.0
H669 H 0.36304 0.87655 0.003 0.0
H670 H 0.28824 0.00079 -0.00265 0.0
H671 H 0.31487 0.00647 0.96862 0.0
H672 H 0.28825 0.98943 0.04543 0.0
H673 H 0.28454 0.9563 0.06594 0.0
C674 C 0.13945 0.36102 0.35907 0.0
C675 C 0.1645 0.35911 0.33978 0.0
C676 C 0.16195 0.41022 0.32275 0.0
C677 C 0.13479 0.41087 0.33921 0.0
N678 N 0.09524 0.38592 0.37003 0.0
N679 N 0.19833 0.38042 0.30105 0.0
C680 C 0.12299 0.3861 0.35682 0.0
C681 C 0.17534 0.38328 0.32092 0.0
N682 N 0.13146 0.33888 0.37957 0.0
N683 N 0.17584 0.43583 0.3102 0.0
H684 H 0.21019 0.36189 0.30051 0.0
H685 H 0.20442 0.39556 0.28366 0.0
H686 H 0.16715 0.45622 0.31164 0.0
H687 H 0.19752 0.43778 0.30102 0.0
H688 H 0.11579 0.3405 0.39688 0.0
H689 H 0.14222 0.31966 0.38092 0.0
H690 H 0.08358 0.36723 0.38006 0.0
H691 H 0.08243 0.40378 0.36872 0.0
C692 C 0.1347 0.03042 0.49232 0.0
C693 C 0.1337 0.01348 0.52034 0.0
C694 C 0.16614 0.05579 0.55228 0.0
C695 C 0.16516 0.07348 0.52489 0.0
N696 N 0.14247 0.0799 0.47102 0.0
N697 N 0.14183 0.01268 0.57844 0.0
C698 C 0.14754 0.06148 0.49556 0.0
C699 C 0.14736 0.02702 0.5508 0.0
N700 N 0.12513 0.01659 0.46235 0.0
N701 N 0.18634 0.06556 0.5791 0.0
H702 H 0.12759 -0.00814 0.57835 0.0
H703 H 0.14864 0.0228 0.60155 0.0
H704 H 0.20142 0.08597 0.58097 0.0
H705 H 0.19039 0.05206 0.59826 0.0
H706 H 0.12859 0.02719 0.44093 0.0
H707 H 0.11632 -0.00625 0.45858 0.0
H708 H 0.12714 0.07306 0.45039 0.0
H709 H 0.15115 0.10286 0.47271 0.0
C710 C 0.66709 0.12722 0.82645 0.0
C711 C 0.67797 0.13966 0.79807 0.0
C712 C 0.63781 0.10478 0.7646 0.0
C713 C 0.631 0.08894 0.79246 0.0
N714 N 0.63788 0.0851 0.85028 0.0
N715 N 0.66122 0.15134 0.74388 0.0
C716 C 0.64506 0.10033 0.82358 0.0
C717 C 0.65963 0.13181 0.76806 0.0
N718 N 0.67571 0.14261 0.85575 0.0
N719 N 0.6247 0.09323 0.73464 0.0
H720 H 0.67363 0.1731 0.74747 0.0
H721 H 0.64673 0.14791 0.72226 0.0
H722 H 0.60851 0.07353 0.73106 0.0
H723 H 0.63165 0.10186 0.71318 0.0
H724 H 0.66689 0.13596 0.87719 0.0
H725 H 0.68821 0.16437 0.85778 0.0
H726 H 0.65018 0.09012 0.87303 0.0
H727 H 0.62066 0.06622 0.84933 0.0
C728 C 0.34819 0.07515 0.55085 0.0
C729 C 0.37104 0.07652 0.52838 0.0
C730 C 0.34202 0.10893 0.49537 0.0
C731 C 0.31726 0.10419 0.51546 0.0
N732 N 0.29465 0.07939 0.55999 0.0
N733 N 0.38739 0.09084 0.47649 0.0
C734 C 0.31981 0.08654 0.54274 0.0
C735 C 0.36749 0.09255 0.49997 0.0
N736 N 0.35399 0.06376 0.58032 0.0
N737 N 0.34158 0.12967 0.47239 0.0
H738 H 0.40598 0.07857 0.47841 0.0
H739 H 0.38376 0.09927 0.45377 0.0
H740 H 0.32348 0.1424 0.46862 0.0
H741 H 0.3605 0.13638 0.45931 0.0
H742 H 0.33966 0.06502 0.59897 0.0
H743 H 0.37473 0.05563 0.58729 0.0
H744 H 0.29402 0.06381 0.57777 0.0
H745 H 0.27333 0.08701 0.55475 0.0
C746 C 0.63733 0.46489 0.50096 0.0
C747 C 0.63138 0.47328 0.53293 0.0
C748 C 0.67447 0.44825 0.55484 0.0
C749 C 0.67845 0.43748 0.52305 0.0
N750 N 0.65953 0.43045 0.46644 0.0
N751 N 0.63962 0.46719 0.59032 0.0
C752 C 0.65866 0.44431 0.49625 0.0
C753 C 0.6486 0.46329 0.55991 0.0
N754 N 0.62386 0.47766 0.47513 0.0
N755 N 0.69618 0.4455 0.58004 0.0
H756 H 0.62029 0.47739 0.59501 0.0
H757 H 0.64935 0.45757 0.61038 0.0
H758 H 0.71598 0.43537 0.57738 0.0
H759 H 0.69618 0.45589 0.60297 0.0
H760 H 0.63001 0.47482 0.45165 0.0
H761 H 0.60874 0.49344 0.47748 0.0
H762 H 0.64338 0.43216 0.44676 0.0
H763 H 0.67448 0.41486 0.46214 0.0
C764 C 0.7606 0.27296 0.41894 0.0
C765 C 0.77922 0.2882 0.39661 0.0
C766 C 0.78653 0.33469 0.43145 0.0
C767 C 0.76733 0.31967 0.45338 0.0
N768 N 0.73105 0.27678 0.46548 0.0
N769 N 0.80335 0.33494 0.37742 0.0
C770 C 0.75262 0.28952 0.44621 0.0
C771 C 0.79033 0.31949 0.40168 0.0
N772 N 0.75196 0.24243 0.41502 0.0
N773 N 0.80149 0.3634 0.43926 0.0
H774 H 0.80582 0.32473 0.35494 0.0
H775 H 0.80895 0.35829 0.3783 0.0
H776 H 0.79776 0.3761 0.45981 0.0
H777 H 0.81896 0.37409 0.42637 0.0
H778 H 0.74141 0.22952 0.43229 0.0
H779 H 0.75745 0.2295 0.39546 0.0
H780 H 0.71709 0.25601 0.45977 0.0
H781 H 0.72525 0.28812 0.486 0.0
C782 C 0.4963 0.04166 0.88452 0.0
C783 C 0.47977 0.01568 0.89674 0.0
C784 C 0.52103 0.98644 0.8837 0.0
C785 C 0.53491 0.01105 0.86725 0.0
N786 N 0.53785 0.06251 0.85285 0.0
N787 N 0.47636 0.96387 0.91012 0.0
C788 C 0.52338 0.03896 0.86831 0.0
C789 C 0.49238 0.98829 0.8973 0.0
N790 N 0.48587 0.06875 0.88814 0.0
N791 N 0.53537 0.96143 0.8863 0.0
H792 H 0.45656 0.96513 0.9223 0.0
H793 H 0.48193 0.9422 0.908 0.0
H794 H 0.55612 0.95935 0.87614 0.0
H795 H 0.52818 0.94362 0.90029 0.0
H796 H 0.49821 0.08915 0.88256 0.0
H797 H 0.46559 0.07133 0.8989 0.0
H798 H 0.52885 0.08238 0.84912 0.0
H799 H 0.55879 0.06179 0.84259 0.0
C800 C 0.22594 0.21916 0.37677 0.0
C801 C 0.25742 0.22721 0.36976 0.0
C802 C 0.27607 0.21013 0.42227 0.0
C803 C 0.24474 0.20438 0.43024 0.0
N804 N 0.19005 0.20724 0.41743 0.0
N805 N 0.31248 0.23586 0.38813 0.0
C806 C 0.21974 0.21021 0.40824 0.0
C807 C 0.28253 0.22406 0.39308 0.0
N808 N 0.202 0.21844 0.35287 0.0
N809 N 0.29971 0.20225 0.44258 0.0
H810 H 0.31814 0.24703 0.36754 0.0
H811 H 0.33139 0.23717 0.40568 0.0
H812 H 0.29627 0.19358 0.46504 0.0
H813 H 0.32239 0.20238 0.43626 0.0
H814 H 0.17887 0.20967 0.35549 0.0
H815 H 0.20549 0.22407 0.32928 0.0
H816 H 0.17149 0.2146 0.40403 0.0
H817 H 0.18432 0.19932 0.43965 0.0
C818 C 0.46831 0.54882 0.8899 0.0
C819 C 0.46789 0.52215 0.90691 0.0
C820 C 0.41496 0.50338 0.88178 0.0
C821 C 0.41474 0.5307 0.86611 0.0
N822 N 0.43786 0.58224 0.8615 0.0
N823 N 0.43802 0.47799 0.9258 0.0
C824 C 0.4404 0.55434 0.87216 0.0
C825 C 0.4403 0.50066 0.90497 0.0
N826 N 0.49566 0.56805 0.88907 0.0
N827 N 0.39203 0.47936 0.87324 0.0
H828 H 0.45585 0.47574 0.94368 0.0
H829 H 0.41734 0.46343 0.9276 0.0
H830 H 0.37337 0.48 0.8558 0.0
H831 H 0.39305 0.45792 0.8813 0.0
H832 H 0.49797 0.58597 0.87403 0.0
H833 H 0.51681 0.56471 0.90121 0.0
H834 H 0.45465 0.6011 0.86793 0.0
H835 H 0.41753 0.5872 0.84892 0.0
C836 C 0.73063 0.74688 0.12289 0.0
C837 C 0.71356 0.73849 0.14943 0.0
C838 C 0.70347 0.68582 0.12779 0.0
C839 C 0.72102 0.69411 0.10149 0.0
N840 N 0.75476 0.73134 0.07573 0.0
N841 N 0.68684 0.70011 0.17988 0.0
C842 C 0.73574 0.72429 0.09964 0.0
C843 C 0.70098 0.70794 0.15273 0.0
N844 N 0.7415 0.77662 0.11965 0.0
N845 N 0.68884 0.65681 0.12862 0.0
H846 H 0.68308 0.7158 0.19781 0.0
H847 H 0.68029 0.67801 0.18578 0.0
H848 H 0.69201 0.6395 0.11224 0.0
H849 H 0.6725 0.64989 0.14462 0.0
H850 H 0.75058 0.78495 0.09898 0.0
H851 H 0.74007 0.79358 0.1372 0.0
H852 H 0.7691 0.75191 0.075 0.0
H853 H 0.75783 0.71593 0.05729 0.0
C854 C 0.96187 -0.00189 0.13977 0.0
C855 C 0.97641 0.02795 0.13611 0.0
C856 C 0.96615 0.04273 0.19109 0.0
C857 C 0.94793 0.01414 0.19303 0.0
N858 N 0.92522 0.96545 0.16789 0.0
N859 N 0.98796 0.0801 0.15617 0.0
C860 C 0.94507 -0.00809 0.16712 0.0
C861 C 0.97757 0.05066 0.16127 0.0
N862 N 0.96482 0.97557 0.11756 0.0
N863 N 0.97327 0.06203 0.21803 0.0
H864 H -0.00412 0.08717 0.13444 0.0
H865 H 0.98597 0.09789 0.17243 0.0
H866 H 0.96584 0.05676 0.24054 0.0
H867 H 0.98914 0.08187 0.21885 0.0
H868 H 0.9575 0.95288 0.12065 0.0
H869 H 0.97722 0.97928 0.09739 0.0
H870 H 0.91942 0.94991 0.14813 0.0
H871 H 0.91251 0.96003 0.18746 0.0
C872 C 0.24373 0.78629 0.17183 0.0
C873 C 0.27382 0.78563 0.18786 0.0
C874 C 0.29729 0.82131 0.15084 0.0
C875 C 0.26768 0.81948 0.13276 0.0
N876 N 0.21365 0.79615 0.12262 0.0
N877 N 0.32979 0.8 0.19149 0.0
C878 C 0.24104 0.80109 0.14246 0.0
C879 C 0.30079 0.80241 0.17701 0.0
N880 N 0.2177 0.7727 0.18461 0.0
N881 N 0.32175 0.84195 0.14374 0.0
H882 H 0.33321 0.78756 0.21173 0.0
H883 H 0.35055 0.80874 0.18232 0.0
H884 H 0.31989 0.85642 0.12503 0.0
H885 H 0.34303 0.84664 0.15803 0.0
H886 H 0.19503 0.77541 0.17615 0.0
H887 H 0.21875 0.76053 0.20532 0.0
H888 H 0.19458 0.78032 0.12663 0.0
H889 H 0.21078 0.80578 0.10043 0.0
C890 C 0.0244 0.49621 0.16386 0.0
C891 C -0.00662 0.48057 0.15947 0.0
C892 C -0.0076 0.47883 0.21833 0.0
C893 C 0.02456 0.4915 0.22247 0.0
N894 N 0.07217 0.51035 0.19939 0.0
N895 N 0.94849 0.45409 0.18165 0.0
C896 C 0.04086 0.49962 0.19527 0.0
C897 C 0.97737 0.47139 0.18649 0.0
N898 N 0.0377 0.5088 0.13811 0.0
N899 N 0.97629 0.47363 0.24481 0.0
H900 H 0.93668 0.44825 0.15875 0.0
H901 H 0.9371 0.44363 0.20003 0.0
H902 H 0.98684 0.4768 0.26851 0.0
H903 H 0.95208 0.46793 0.2435 0.0
H904 H 0.05893 0.52323 0.14019 0.0
H905 H 0.02615 0.50709 0.11482 0.0
H906 H 0.0862 0.513 0.18038 0.0
H907 H 0.08473 0.51498 0.22204 0.0
C908 C 0.40744 0.74334 0.30804 0.0
C909 C 0.38239 0.73087 0.32538 0.0
C910 C 0.41838 0.73215 0.37456 0.0
C911 C 0.44292 0.74657 0.35784 0.0
N912 N 0.46068 0.76953 0.31022 0.0
N913 N 0.36249 0.71871 0.3763 0.0
C914 C 0.43737 0.75338 0.32505 0.0
C915 C 0.38745 0.72659 0.35895 0.0
N916 N 0.40298 0.74425 0.27512 0.0
N917 N 0.42464 0.72368 0.40536 0.0
H918 H 0.33937 0.71511 0.36595 0.0
H919 H 0.36432 0.71846 0.40143 0.0
H920 H 0.4466 0.72883 0.41841 0.0
H921 H 0.4086 0.70978 0.41728 0.0
H922 H 0.42103 0.75002 0.26065 0.0
H923 H 0.3815 0.73684 0.26177 0.0
H924 H 0.45716 0.77823 0.28765 0.0
H925 H 0.48331 0.776 0.32143 0.0
C926 C 0.0326 0.36686 0.98364 0.0
C927 C 0.00212 0.36649 0.99357 0.0
C928 C 0.98187 0.32561 0.95264 0.0
C929 C 0.01292 0.32339 0.94583 0.0
N930 N 0.06849 0.33896 0.95828 0.0
N931 N 0.94836 0.34245 0.99099 0.0
C932 C 0.0385 0.3433 0.96216 0.0
C933 C 0.97683 0.34513 0.97892 0.0
N934 N 0.05571 0.39029 0.99388 0.0
N935 N 0.95713 0.3099 0.93329 0.0
H936 H 0.94372 0.35598 0.01048 0.0
H937 H 0.93015 0.32504 0.98356 0.0
H938 H 0.95991 0.29602 0.91328 0.0
H939 H 0.93402 0.31294 0.93506 0.0
H940 H 0.07747 0.39336 0.98481 0.0
H941 H 0.05211 0.40838 0.00899 0.0
H942 H 0.08795 0.3507 0.97232 0.0
H943 H 0.07386 0.32173 0.9431 0.0
C944 C 0.62018 0.78931 0.29488 0.0
C945 C 0.65065 0.79259 0.31135 0.0
C946 C 0.62854 0.78636 0.36322 0.0
C947 C 0.59806 0.78094 0.34654 0.0
N948 N 0.56476 0.77198 0.2963 0.0
N949 N 0.68443 0.79006 0.36018 0.0
C950 C 0.5938 0.78105 0.31228 0.0
C951 C 0.655 0.78966 0.34521 0.0
N952 N 0.61648 0.79435 0.26267 0.0
N953 N 0.63219 0.79001 0.39628 0.0
H954 H 0.70456 0.79378 0.34812 0.0
H955 H 0.68881 0.7845 0.38402 0.0
H956 H 0.61343 0.78838 0.4104 0.0
H957 H 0.65361 0.79735 0.40967 0.0
H958 H 0.59496 0.79587 0.25014 0.0
H959 H 0.63527 0.79891 0.24876 0.0
H960 H 0.56064 0.7685 0.27125 0.0
H961 H 0.54494 0.76536 0.30817 0.0
C962 C 0.00906 0.11047 0.95198 0.0
C963 C 0.03929 0.10549 0.96426 0.0
C964 C 0.06319 0.14456 0.93109 0.0
C965 C 0.03311 0.15225 0.92241 0.0
N966 N 0.97723 0.14345 0.92468 0.0
N967 N 0.09538 0.11825 0.96733 0.0
C968 C 0.00596 0.13536 0.93278 0.0
C969 C 0.06648 0.12235 0.95395 0.0
N970 N 0.98339 0.09077 0.958 0.0
N971 N 0.08857 0.15863 0.91762 0.0
H972 H 0.09868 0.10185 0.98369 0.0
H973 H 0.116 0.13219 0.96387 0.0
H974 H 0.08718 0.17579 0.90183 0.0
H975 H 0.11056 0.15192 0.92018 0.0
H976 H 0.9609 0.09127 0.94723 0.0
H977 H 0.98494 0.07204 0.97159 0.0
H978 H 0.95704 0.13462 0.93481 0.0
H979 H 0.97372 0.16029 0.90893 0.0
C980 C 0.38062 0.2619 0.20077 0.0
C981 C 0.37226 0.24137 0.2246 0.0
C982 C 0.41942 0.21844 0.21828 0.0
C983 C 0.42627 0.23712 0.19242 0.0
N984 N 0.41097 0.27332 0.15548 0.0
N985 N 0.38153 0.19814 0.2541 0.0
C986 C 0.40636 0.25816 0.18284 0.0
C987 C 0.39098 0.21898 0.23269 0.0
N988 N 0.36387 0.28491 0.1951 0.0
N989 N 0.44082 0.20121 0.2301 0.0
H990 H 0.36195 0.1989 0.26674 0.0
H991 H 0.39195 0.17902 0.25792 0.0
H992 H 0.46208 0.20045 0.22053 0.0
H993 H 0.43887 0.18968 0.25113 0.0
H994 H 0.37107 0.30274 0.18108 0.0
H995 H 0.34368 0.28739 0.20612 0.0
H996 H 0.39529 0.28637 0.14511 0.0
H997 H 0.42916 0.27083 0.1413 0.0
C998 C 0.54424 0.3658 0.0642 0.0
C999 C 0.55487 0.35552 0.03495 0.0
C1000 C 0.5412 0.30324 0.04893 0.0
C1001 C 0.52768 0.31336 0.07648 0.0
N1002 N 0.51213 0.35391 0.10811 0.0
N1003 N 0.55721 0.31445 0.99607 0.0
C1004 C 0.52805 0.34458 0.08355 0.0
C1005 C 0.55163 0.32423 0.02636 0.0
N1006 N 0.55067 0.39564 0.07413 0.0
N1007 N 0.54537 0.27379 0.04497 0.0
H1008 H 0.56411 0.329 0.97837 0.0
H1009 H 0.55193 0.292 0.9874 0.0
H1010 H 0.5388 0.2577 0.06132 0.0
H1011 H 0.5582 0.26595 0.02724 0.0
H1012 H 0.54646 0.40405 0.09683 0.0
H1013 H 0.56276 0.41177 0.06079 0.0
H1014 H 0.50869 0.37613 0.11226 0.0
H1015 H 0.50003 0.33899 0.12274 0.0
C1016 C 0.61244 0.26925 0.28183 0.0
C1017 C 0.63503 0.25037 0.2758 0.0
C1018 C 0.60146 0.22569 0.22866 0.0
C1019 C 0.57823 0.24352 0.23554 0.0
N1020 N 0.55901 0.27876 0.27141 0.0
N1021 N 0.64801 0.20595 0.24871 0.0
C1022 C 0.58282 0.26403 0.26318 0.0
C1023 C 0.62867 0.22723 0.25069 0.0
N1024 N 0.61994 0.29326 0.30399 0.0
N1025 N 0.59781 0.20757 0.20082 0.0
H1026 H 0.6677 0.20582 0.26502 0.0
H1027 H 0.64292 0.18675 0.23304 0.0
H1028 H 0.57764 0.20471 0.18473 0.0
H1029 H 0.6156 0.19696 0.19253 0.0
H1030 H 0.60588 0.30986 0.30683 0.0
H1031 H 0.64147 0.29808 0.3179 0.0
H1032 H 0.55967 0.29129 0.29324 0.0
H1033 H 0.53753 0.27678 0.25745 0.0
C1034 C 0.4944 0.11706 0.07642 0.0
C1035 C 0.51105 0.12402 0.04918 0.0
C1036 C 0.5338 0.17307 0.07584 0.0
C1037 C 0.51411 0.16763 0.10111 0.0
N1038 N 0.47207 0.13616 0.12304 0.0
N1039 N 0.54265 0.16059 0.02048 0.0
C1040 C 0.4935 0.14002 0.10085 0.0
C1041 C 0.52978 0.15253 0.04823 0.0
N1042 N 0.48032 0.08823 0.0795 0.0
N1043 N 0.55717 0.19726 0.07875 0.0
H1044 H 0.53999 0.14639 -0.00046 0.0
H1045 H 0.55351 0.18233 0.01725 0.0
H1046 H 0.56155 0.21239 0.09901 0.0
H1047 H 0.57419 0.20064 0.06261 0.0
H1048 H 0.47068 0.08114 0.10042 0.0
H1049 H 0.48095 0.07064 0.06242 0.0
H1050 H 0.45414 0.11789 0.12173 0.0
H1051 H 0.47036 0.15248 0.14116 0.0
C1052 C 0.29884 0.40423 0.72392 0.0
C1053 C 0.27796 0.39451 0.74698 0.0
C1054 C 0.3001 0.43836 0.78348 0.0
C1055 C 0.31934 0.44914 0.75944 0.0
N1056 N 0.33287 0.44577 0.70451 0.0
N1057 N 0.25431 0.40487 0.79588 0.0
C1058 C 0.31758 0.43302 0.72899 0.0
C1059 C 0.27737 0.41227 0.77603 0.0
N1060 N 0.30154 0.38552 0.69777 0.0
N1061 N 0.30424 0.45246 0.81377 0.0
H1062 H 0.23696 0.38614 0.79112 0.0
H1063 H 0.25062 0.41873 0.8155 0.0
H1064 H 0.32041 0.47184 0.82006 0.0
H1065 H 0.29347 0.44365 0.83338 0.0
H1066 H 0.31878 0.38998 0.68205 0.0
H1067 H 0.28821 0.36423 0.69326 0.0
H1068 H 0.32998 0.43649 0.68081 0.0
H1069 H 0.34621 0.46715 0.70712 0.0
C1070 C 0.26693 0.63508 0.7777 0.0
C1071 C 0.26362 0.64675 0.80935 0.0
C1072 C 0.29832 0.61323 0.83266 0.0
C1073 C 0.29928 0.59972 0.8013 0.0
N1074 N 0.28141 0.59461 0.7444 0.0
N1075 N 0.27384 0.64583 0.86729 0.0
C1076 C 0.28299 0.60996 0.77386 0.0
C1077 C 0.27859 0.63543 0.83696 0.0
N1078 N 0.25458 0.64791 0.75129 0.0
N1079 N 0.31732 0.60571 0.8581 0.0
H1080 H 0.26127 0.66345 0.87148 0.0
H1081 H 0.28081 0.63596 0.88835 0.0
H1082 H 0.33231 0.58979 0.85578 0.0
H1083 H 0.3203 0.61691 0.88091 0.0
H1084 H 0.25948 0.64299 0.72774 0.0
H1085 H 0.24089 0.66501 0.75293 0.0
H1086 H 0.26696 0.59866 0.72423 0.0
H1087 H 0.29268 0.576 0.74057 0.0
C1088 C 0.84086 0.50403 0.54157 0.0
C1089 C 0.86729 0.49593 0.52756 0.0
C1090 C 0.84717 0.44252 0.53145 0.0
C1091 C 0.81919 0.4506 0.54209 0.0
N1092 N 0.78692 0.4889 0.55163 0.0
N1093 N 0.89344 0.45762 0.50415 0.0
C1094 C 0.81535 0.48133 0.54575 0.0
C1095 C 0.86993 0.46519 0.52119 0.0
N1096 N 0.84053 0.53327 0.55189 0.0
N1097 N 0.85246 0.41333 0.53217 0.0
H1098 H 0.91041 0.47354 0.49588 0.0
H1099 H 0.89451 0.43568 0.49565 0.0
H1100 H 0.8366 0.39615 0.54009 0.0
H1101 H 0.87376 0.40664 0.52787 0.0
H1102 H 0.82342 0.53993 0.56546 0.0
H1103 H 0.85891 0.55053 0.54959 0.0
H1104 H 0.78189 0.5108 0.55098 0.0
H1105 H 0.76737 0.47302 0.55417 0.0
C1106 C 0.66843 0.90394 0.85922 0.0
C1107 C 0.67447 0.88428 0.8336 0.0
C1108 C 0.65579 0.91803 0.79405 0.0
C1109 C 0.64662 0.93581 0.8196 0.0
N1110 N 0.63854 0.94226 0.87606 0.0
N1111 N 0.66911 0.8698 0.77647 0.0
C1112 C 0.6514 0.92785 0.8521 0.0
C1113 C 0.66692 0.89057 0.80092 0.0
N1114 N 0.68003 0.90055 0.89029 0.0
N1115 N 0.65499 0.92789 0.76341 0.0
H1116 H 0.67683 0.84929 0.78047 0.0
H1117 H 0.66065 0.8717 0.75252 0.0
H1118 H 0.64734 0.94803 0.75744 0.0
H1119 H 0.66456 0.91753 0.74456 0.0
H1120 H 0.67914 0.91613 0.90941 0.0
H1121 H 0.6934 0.88385 0.89648 0.0
H1122 H 0.63843 0.93521 0.89957 0.0
H1123 H 0.62522 0.95942 0.87179 0.0
C1124 C 0.62801 0.53508 0.0155 0.0
C1125 C 0.62936 0.51611 0.98757 0.0
C1126 C 0.67087 0.55271 0.96952 0.0
C1127 C 0.66865 0.57229 -0.0033 0.0
N1128 N 0.64215 0.58483 0.04279 0.0
N1129 N 0.64669 0.50942 0.93455 0.0
C1130 C 0.64628 0.56427 0.01889 0.0
C1131 C 0.64921 0.52571 0.96354 0.0
N1132 N 0.61022 0.52471 0.03931 0.0
N1133 N 0.69459 0.55921 0.95022 0.0
H1134 H 0.63092 0.4896 0.92915 0.0
H1135 H 0.65807 0.51692 0.91477 0.0
H1136 H 0.71092 0.57882 0.95359 0.0
H1137 H 0.69969 0.54407 0.93246 0.0
H1138 H 0.61086 0.53598 0.06187 0.0
H1139 H 0.59619 0.50367 0.03736 0.0
H1140 H 0.62416 0.58165 0.05779 0.0
H1141 H 0.65533 0.60628 0.046 0.0
C1142 C 0.19159 0.60513 0.32442 0.0
C1143 C 0.2101 0.6064 0.29793 0.0
C1144 C 0.17154 0.56758 0.26731 0.0
C1145 C 0.15466 0.56433 0.29496 0.0
N1146 N 0.15037 0.57706 0.35124 0.0
N1147 N 0.22054 0.58584 0.24604 0.0
C1148 C 0.16527 0.58219 0.32398 0.0
C1149 C 0.20074 0.58699 0.26973 0.0
N1150 N 0.19835 0.62671 0.34937 0.0
N1151 N 0.15974 0.552 0.23876 0.0
H1152 H 0.24233 0.59932 0.24706 0.0
H1153 H 0.21667 0.56979 0.22666 0.0
H1154 H 0.1395 0.53612 0.23651 0.0
H1155 H 0.16887 0.55615 0.2168 0.0
H1156 H 0.18386 0.62893 0.3677 0.0
H1157 H 0.21701 0.6443 0.35022 0.0
H1158 H 0.15914 0.58682 0.37407 0.0
H1159 H 0.13031 0.5613 0.35156 0.0
C1160 C 0.86984 0.56458 0.05155 0.0
C1161 C 0.8624 0.5337 0.04074 0.0
C1162 C 0.80975 0.54187 0.02037 0.0
C1163 C 0.81844 0.5733 0.02765 0.0
N1164 N 0.85884 0.61528 0.04479 0.0
N1165 N 0.82748 0.49443 0.00853 0.0
C1166 C 0.84909 0.5849 0.04178 0.0
C1167 C 0.83295 0.52273 0.02338 0.0
N1168 N 0.896 0.57434 0.0723 0.0
N1169 N 0.77909 0.53 0.01197 0.0
H1170 H 0.84418 0.47997 0.00913 0.0
H1171 H 0.8076 0.48652 0.99281 0.0
H1172 H 0.76106 0.54299 0.01071 0.0
H1173 H 0.77112 0.50693 0.00966 0.0
H1174 H 0.90078 0.59591 0.08356 0.0
H1175 H 0.91136 0.56008 0.08085 0.0
H1176 H 0.88196 0.62483 0.05174 0.0
H1177 H 0.84459 0.63092 0.03738 0.0
C1178 C 0.11534 0.93731 0.04048 0.0
C1179 C 0.12242 0.96695 0.03006 0.0
C1180 C 0.17666 0.95931 0.02565 0.0
C1181 C 0.16861 0.92864 0.03239 0.0
N1182 N 0.12886 0.88698 0.04062 0.0
N1183 N 0.1583 0.00439 0.00705 0.0
C1184 C 0.13755 0.9172 0.03834 0.0
C1185 C 0.1527 0.97752 0.02113 0.0
N1186 N 0.08794 0.92869 0.05368 0.0
N1187 N 0.20734 0.97141 0.02481 0.0
H1188 H 0.14122 0.01814 0.00264 0.0
H1189 H 0.17896 0.01166 -0.00311 0.0
H1190 H 0.22569 0.95905 0.02881 0.0
H1191 H 0.21483 -0.00565 0.02338 0.0
H1192 H 0.08306 0.90849 0.06481 0.0
H1193 H 0.07132 0.94291 0.05642 0.0
H1194 H 0.10573 0.87703 0.04137 0.0
H1195 H 0.14427 0.8714 0.03873 0.0
loop_
_geom_bond_atom_site_label_1
_geom_bond_atom_site_label_2
_geom_bond_distance
_geom_bond_site_symmetry_2
_ccdc_geom_bond_type
O0 Cd1 2.300 . S
O0 C7 1.275 . S
Cd1 O0 2.300 . S
Cd1 O9 2.381 . S
Cd1 O10 2.378 . S
O2 Cd3 2.385 . S
O2 C7 1.255 . S
Cd3 O2 2.385 . S
Cd3 O4 2.317 . S
O4 Cd3 2.317 . S
O4 C5 1.232 1_455 S
C5 O4 1.232 1_655 S
C5 O6 1.218 . S
O6 C5 1.218 . S
C7 O0 1.275 . S
C7 O2 1.255 . S
C8 O9 1.258 1_565 S
C8 O10 1.256 1_565 S
O9 Cd1 2.381 . S
O9 C8 1.258 1_545 S
O10 Cd1 2.378 . S
O10 C8 1.256 1_545 S
O11 Cd12 2.300 . S
O11 C18 1.275 . S
Cd12 O11 2.300 . S
Cd12 O20 2.381 . S
Cd12 O21 2.378 . S
O13 Cd14 2.385 . S
O13 C18 1.255 . S
Cd14 O13 2.385 . S
Cd14 O15 2.317 . S
O15 Cd14 2.317 . S
O15 C16 1.232 . S
C16 O15 1.232 . S
C16 O17 1.218 . S
O17 C16 1.218 . S
C18 O11 1.275 . S
C18 O13 1.255 . S
C19 O20 1.258 . S
C19 O21 1.256 . S
O20 Cd12 2.381 . S
O20 C19 1.258 . S
O21 Cd12 2.378 . S
O21 C19 1.256 . S
O22 Cd23 2.300 . S
O22 C29 1.275 . S
Cd23 O22 2.300 . S
Cd23 O31 2.381 . S
Cd23 O32 2.378 . S
O24 Cd25 2.385 . S
O24 C29 1.255 1_455 S
Cd25 O24 2.385 . S
Cd25 O26 2.317 1_455 S
O26 Cd25 2.317 1_655 S
O26 C27 1.232 . S
C27 O26 1.232 . S
C27 O28 1.218 1_655 S
O28 C27 1.218 1_455 S
C29 O22 1.275 . S
C29 O24 1.255 1_655 S
C30 O31 1.258 . S
C30 O32 1.256 . S
O31 Cd23 2.381 . S
O31 C30 1.258 . S
O32 Cd23 2.378 . S
O32 C30 1.256 . S
O33 Cd34 2.300 . S
O33 C40 1.275 . S
Cd34 O33 2.300 . S
Cd34 O42 2.381 . S
Cd34 O43 2.378 . S
O35 Cd36 2.385 . S
O35 C40 1.255 . S
Cd36 O35 2.385 . S
Cd36 O37 2.317 . S
O37 Cd36 2.317 . S
O37 C38 1.232 . S
C38 O37 1.232 . S
C38 O39 1.218 . S
O39 C38 1.218 . S
C40 O33 1.275 . S
C40 O35 1.255 . S
C41 O42 1.258 . S
C41 O43 1.256 . S
O42 Cd34 2.381 . S
O42 C41 1.258 . S
O43 Cd34 2.378 . S
O43 C41 1.256 . S
O44 Cd45 2.300 . S
O44 C51 1.275 1_565 S
Cd45 O44 2.300 . S
Cd45 O53 2.381 . S
Cd45 O54 2.378 . S
O46 Cd47 2.385 . S
O46 C51 1.255 . S
Cd47 O46 2.385 . S
Cd47 O48 2.321 . S
O48 Cd47 2.321 . S
O48 C49 1.234 . S
C49 O48 1.234 . S
C49 O50 1.218 . S
O50 C49 1.218 . S
C51 O44 1.275 1_545 S
C51 O46 1.255 . S
C52 O53 1.258 . S
C52 O54 1.256 . S
O53 Cd45 2.381 . S
O53 C52 1.258 . S
O54 Cd45 2.378 . S
O54 C52 1.256 . S
O55 Cd56 2.300 . S
O55 C62 1.275 . S
Cd56 O55 2.300 . S
Cd56 O64 2.381 . S
Cd56 O65 2.378 . S
O57 Cd58 2.385 . S
O57 C62 1.255 . S
Cd58 O57 2.385 . S
Cd58 O59 2.317 . S
O59 Cd58 2.317 . S
O59 C60 1.232 . S
C60 O59 1.232 . S
C60 O61 1.218 . S
O61 C60 1.218 . S
C62 O55 1.275 . S
C62 O57 1.255 . S
C63 O64 1.258 . S
C63 O65 1.256 . S
O64 Cd56 2.381 . S
O64 C63 1.258 . S
O65 Cd56 2.378 . S
O65 C63 1.256 . S
O66 Cd67 2.300 . S
O66 C73 1.275 1_655 S
Cd67 O66 2.300 . S
Cd67 O75 2.381 . S
Cd67 O76 2.378 . S
O68 Cd69 2.385 . S
O68 C73 1.255 . S
Cd69 O68 2.385 . S
Cd69 O70 2.317 . S
O70 Cd69 2.317 . S
O70 C71 1.232 . S
C71 O70 1.232 . S
C71 O72 1.218 . S
O72 C71 1.218 . S
C73 O66 1.275 1_455 S
C73 O68 1.255 . S
C74 O75 1.258 . S
C74 O76 1.256 . S
O75 Cd67 2.381 . S
O75 C74 1.258 . S
O76 Cd67 2.378 . S
O76 C74 1.256 . S
O77 Cd78 2.300 . S
O77 C84 1.275 . S
Cd78 O77 2.300 . S
Cd78 O86 2.381 . S
Cd78 O87 2.378 . S
O79 Cd80 2.385 . S
O79 C84 1.255 . S
Cd80 O79 2.385 . S
Cd80 O81 2.317 . S
O81 Cd80 2.317 . S
O81 C82 1.232 . S
C82 O81 1.232 . S
C82 O83 1.218 . S
O83 C82 1.218 . S
C84 O77 1.275 . S
C84 O79 1.255 . S
C85 O86 1.258 . S
C85 O87 1.256 . S
O86 Cd78 2.381 . S
O86 C85 1.258 . S
O87 Cd78 2.378 . S
O87 C85 1.256 . S
O88 Cd89 2.300 . S
O88 C95 1.275 . S
Cd89 O88 2.300 . S
Cd89 O97 2.381 . S
Cd89 O98 2.378 . S
O90 Cd91 2.385 . S
O90 C95 1.255 . S
Cd91 O90 2.385 . S
Cd91 O92 2.317 . S
O92 Cd91 2.317 . S
O92 C93 1.232 . S
C93 O92 1.232 . S
C93 O94 1.218 . S
O94 C93 1.218 . S
C95 O88 1.275 . S
C95 O90 1.255 . S
C96 O97 1.258 . S
C96 O98 1.256 . S
O97 Cd89 2.381 . S
O97 C96 1.258 . S
O98 Cd89 2.378 . S
O98 C96 1.256 . S
O99 Cd100 2.300 1_565 S
O99 C106 1.275 . S
Cd100 O99 2.300 1_545 S
Cd100 O108 2.381 . S
Cd100 O109 2.378 . S
O101 Cd102 2.385 . S
O101 C106 1.255 . S
Cd102 O101 2.385 . S
Cd102 O103 2.317 . S
O103 Cd102 2.317 . S
O103 C104 1.232 . S
C104 O103 1.232 . S
C104 O105 1.218 . S
O105 C104 1.218 . S
C106 O99 1.275 . S
C106 O101 1.255 . S
C107 O108 1.258 . S
C107 O109 1.256 . S
O108 Cd100 2.381 . S
O108 C107 1.258 . S
O109 Cd100 2.378 . S
O109 C107 1.256 . S
O110 Cd111 2.300 . S
O110 C117 1.275 . S
Cd111 O110 2.300 . S
Cd111 O119 2.381 . S
Cd111 O120 2.378 . S
O112 Cd113 2.385 . S
O112 C117 1.255 . S
Cd113 O112 2.385 . S
Cd113 O114 2.317 . S
O114 Cd113 2.317 . S
O114 C115 1.232 . S
C115 O114 1.232 . S
C115 O116 1.218 . S
O116 C115 1.218 . S
C117 O110 1.275 . S
C117 O112 1.255 . S
C118 O119 1.258 . S
C118 O120 1.256 . S
O119 Cd111 2.381 . S
O119 C118 1.258 . S
O120 Cd111 2.378 . S
O120 C118 1.256 . S
O121 Cd122 2.300 . S
O121 C128 1.275 . S
Cd122 O121 2.300 . S
Cd122 O130 2.381 . S
Cd122 O131 2.378 . S
O123 Cd124 2.385 . S
O123 C128 1.255 . S
Cd124 O123 2.385 . S
Cd124 O125 2.317 . S
O125 Cd124 2.317 . S
O125 C126 1.232 . S
C126 O125 1.232 . S
C126 O127 1.218 . S
O127 C126 1.218 . S
C128 O121 1.275 . S
C128 O123 1.255 . S
C129 O130 1.258 . S
C129 O131 1.256 . S
O130 Cd122 2.381 . S
O130 C129 1.258 . S
O131 Cd122 2.378 . S
O131 C129 1.256 . S
O132 Cd133 2.300 . S
O132 C139 1.275 . S
Cd133 O132 2.300 . S
Cd133 O141 2.381 . S
Cd133 O142 2.378 . S
O134 Cd135 2.385 . S
O134 C139 1.255 . S
Cd135 O134 2.385 . S
Cd135 O136 2.317 . S
O136 Cd135 2.317 . S
O136 C137 1.232 . S
C137 O136 1.232 . S
C137 O138 1.218 . S
O138 C137 1.218 . S
C139 O132 1.275 . S
C139 O134 1.255 . S
C140 O141 1.258 . S
C140 O142 1.256 . S
O141 Cd133 2.381 . S
O141 C140 1.258 . S
O142 Cd133 2.378 . S
O142 C140 1.256 . S
O143 Cd144 2.300 1_556 S
O143 C150 1.275 . S
Cd144 O143 2.300 1_554 S
Cd144 O152 2.381 . S
Cd144 O153 2.378 . S
O145 Cd146 2.385 . S
O145 C150 1.255 . S
Cd146 O145 2.385 . S
Cd146 O147 2.317 . S
O147 Cd146 2.317 . S
O147 C148 1.232 . S
C148 O147 1.232 . S
C148 O149 1.218 . S
O149 C148 1.218 . S
C150 O143 1.275 . S
C150 O145 1.255 . S
C151 O152 1.258 . S
C151 O153 1.256 . S
O152 Cd144 2.381 . S
O152 C151 1.258 . S
O153 Cd144 2.378 . S
O153 C151 1.256 . S
O154 Cd155 2.300 . S
O154 C161 1.275 . S
Cd155 O154 2.300 . S
Cd155 O163 2.381 . S
Cd155 O164 2.378 . S
O156 Cd157 2.385 . S
O156 C161 1.255 . S
Cd157 O156 2.385 . S
Cd157 O158 2.317 . S
O158 Cd157 2.317 . S
O158 C159 1.232 . S
C159 O158 1.232 . S
C159 O160 1.218 . S
O160 C159 1.218 . S
C161 O154 1.275 . S
C161 O156 1.255 . S
C162 O163 1.258 . S
C162 O164 1.256 . S
O163 Cd155 2.381 . S
O163 C162 1.258 . S
O164 Cd155 2.378 . S
O164 C162 1.256 . S
O165 Cd166 2.300 1_556 S
O165 C172 1.275 . S
Cd166 O165 2.300 1_554 S
Cd166 O174 2.381 1_544 S
Cd166 O175 2.378 1_545 S
O167 Cd168 2.385 1_556 S
O167 C172 1.255 . S
Cd168 O167 2.385 1_554 S
Cd168 O169 2.317 . S
O169 Cd168 2.317 . S
O169 C170 1.232 . S
C170 O169 1.232 . S
C170 O171 1.218 . S
O171 C170 1.218 . S
C172 O165 1.275 . S
C172 O167 1.255 . S
C173 O174 1.258 1_554 S
C173 O175 1.256 . S
O174 Cd166 2.381 1_566 S
O174 C173 1.258 1_556 S
O175 Cd166 2.378 1_565 S
O175 C173 1.256 . S
C176 O177 1.160 1_554 S
C176 O183 1.185 . S
O177 C176 1.160 1_556 S
O178 Zn179 1.899 1_556 S
O178 C186 1.284 . S
Zn179 O178 1.899 1_554 S
Zn179 O180 2.032 . S
Zn179 O183 2.086 . S
Zn179 O188 1.977 . S
O180 Zn179 2.032 . S
O180 C184 1.278 . S
C181 O182 1.203 . S
C181 O188 1.267 . S
O182 C181 1.203 . S
O183 C176 1.185 . S
O183 Zn179 2.086 . S
C184 O180 1.278 . S
C184 O185 1.211 . S
O185 C184 1.211 . S
C186 O178 1.284 . S
C186 O187 1.273 . S
O187 C186 1.273 . S
O188 Zn179 1.977 . S
O188 C181 1.267 . S
C189 O190 1.160 . S
C189 O196 1.185 . S
O190 C189 1.160 . S
O191 Zn192 1.899 . S
O191 C199 1.284 . S
Zn192 O191 1.899 . S
Zn192 O193 2.032 . S
Zn192 O196 2.086 . S
Zn192 O201 1.977 . S
O193 Zn192 2.032 . S
O193 C197 1.278 . S
C194 O195 1.203 . S
C194 O201 1.267 . S
O195 C194 1.203 . S
O196 C189 1.185 . S
O196 Zn192 2.086 . S
C197 O193 1.278 . S
C197 O198 1.211 . S
O198 C197 1.211 . S
C199 O191 1.284 . S
C199 O200 1.273 . S
O200 C199 1.273 . S
O201 Zn192 1.977 . S
O201 C194 1.267 . S
C202 O203 1.160 1_554 S
C202 O209 1.185 . S
O203 C202 1.160 1_556 S
O204 Zn205 1.899 1_556 S
O204 C212 1.284 . S
Zn205 O204 1.899 1_554 S
Zn205 O206 2.029 1_554 S
Zn205 O209 2.086 . S
Zn205 O214 1.977 . S
O206 Zn205 2.029 1_556 S
O206 C210 1.278 . S
C207 O208 1.203 . S
C207 O214 1.267 . S
O208 C207 1.203 . S
O209 C202 1.185 . S
O209 Zn205 2.086 . S
C210 O206 1.278 . S
C210 O211 1.206 1_556 S
O211 C210 1.206 1_554 S
C212 O204 1.284 . S
C212 O213 1.273 . S
O213 C212 1.273 . S
O214 Zn205 1.977 . S
O214 C207 1.267 . S
C215 O216 1.160 . S
C215 O222 1.185 . S
O216 C215 1.160 . S
O217 Zn218 1.899 . S
O217 C225 1.284 . S
Zn218 O217 1.899 . S
Zn218 O219 2.032 . S
Zn218 O222 2.086 . S
Zn218 O227 1.977 . S
O219 Zn218 2.032 . S
O219 C223 1.278 1_545 S
C220 O221 1.203 . S
C220 O227 1.267 . S
O221 C220 1.203 . S
O222 C215 1.185 . S
O222 Zn218 2.086 . S
C223 O219 1.278 1_565 S
C223 O224 1.211 . S
O224 C223 1.211 . S
C225 O217 1.284 . S
C225 O226 1.273 1_545 S
O226 C225 1.273 1_565 S
O227 Zn218 1.977 . S
O227 C220 1.267 . S
C228 O229 1.160 . S
C228 O235 1.185 . S
O229 C228 1.160 . S
O230 Zn231 1.899 . S
O230 C238 1.284 . S
Zn231 O230 1.899 . S
Zn231 O232 2.032 . S
Zn231 O235 2.086 . S
Zn231 O240 1.977 . S
O232 Zn231 2.032 . S
O232 C236 1.278 . S
C233 O234 1.203 . S
C233 O240 1.267 . S
O234 C233 1.203 . S
O235 C228 1.185 . S
O235 Zn231 2.086 . S
C236 O232 1.278 . S
C236 O237 1.211 . S
O237 C236 1.211 . S
C238 O230 1.284 . S
C238 O239 1.273 . S
O239 C238 1.273 . S
O240 Zn231 1.977 . S
O240 C233 1.267 . S
C241 O242 1.160 . S
C241 O248 1.185 . S
O242 C241 1.160 . S
O243 Zn244 1.899 . S
O243 C251 1.284 . S
Zn244 O243 1.899 . S
Zn244 O245 2.032 . S
Zn244 O248 2.086 . S
Zn244 O253 1.977 . S
O245 Zn244 2.032 . S
O245 C249 1.278 . S
C246 O247 1.203 . S
C246 O253 1.267 . S
O247 C246 1.203 . S
O248 C241 1.185 . S
O248 Zn244 2.086 . S
C249 O245 1.278 . S
C249 O250 1.211 . S
O250 C249 1.211 . S
C251 O243 1.284 . S
C251 O252 1.273 . S
O252 C251 1.273 . S
O253 Zn244 1.977 . S
O253 C246 1.267 . S
C254 O255 1.160 . S
C254 O261 1.185 . S
O255 C254 1.160 . S
O256 Zn257 1.899 . S
O256 C264 1.284 . S
Zn257 O256 1.899 . S
Zn257 O258 2.032 . S
Zn257 O261 2.086 . S
Zn257 O266 1.977 . S
O258 Zn257 2.032 . S
O258 C262 1.278 . S
C259 O260 1.203 . S
C259 O266 1.267 . S
O260 C259 1.203 . S
O261 C254 1.185 . S
O261 Zn257 2.086 . S
C262 O258 1.278 . S
C262 O263 1.211 . S
O263 C262 1.211 . S
C264 O256 1.284 . S
C264 O265 1.273 . S
O265 C264 1.273 . S
O266 Zn257 1.977 . S
O266 C259 1.267 . S
C267 O268 1.160 . S
C267 O274 1.185 . S
O268 C267 1.160 . S
O269 Zn270 1.899 . S
O269 C277 1.284 1_565 S
Zn270 O269 1.899 . S
Zn270 O271 2.032 1_565 S
Zn270 O274 2.086 . S
Zn270 O279 1.977 . S
O271 Zn270 2.032 1_545 S
O271 C275 1.278 . S
C272 O273 1.203 1_565 S
C272 O279 1.267 . S
O273 C272 1.203 1_545 S
O274 C267 1.185 . S
O274 Zn270 2.086 . S
C275 O271 1.278 . S
C275 O276 1.211 . S
O276 C275 1.211 . S
C277 O269 1.284 1_545 S
C277 O278 1.273 . S
O278 C277 1.273 . S
O279 Zn270 1.977 . S
O279 C272 1.267 . S
C280 O281 1.160 1_455 S
C280 O287 1.185 . S
O281 C280 1.160 1_655 S
O282 Zn283 1.899 1_655 S
O282 C290 1.284 . S
Zn283 O282 1.899 1_455 S
Zn283 O284 2.032 . S
Zn283 O287 2.086 . S
Zn283 O292 1.977 . S
O284 Zn283 2.032 . S
O284 C288 1.278 . S
C285 O286 1.203 . S
C285 O292 1.267 . S
O286 C285 1.203 . S
O287 C280 1.185 . S
O287 Zn283 2.086 . S
C288 O284 1.278 . S
C288 O289 1.211 . S
O289 C288 1.211 . S
C290 O282 1.284 . S
C290 O291 1.273 . S
O291 C290 1.273 . S
O292 Zn283 1.977 . S
O292 C285 1.267 . S
C293 O294 1.160 . S
C293 O300 1.185 . S
O294 C293 1.160 . S
O295 Zn296 1.899 . S
O295 C303 1.284 . S
Zn296 O295 1.899 . S
Zn296 O297 2.032 . S
Zn296 O300 2.086 . S
Zn296 O305 1.977 . S
O297 Zn296 2.032 . S
O297 C301 1.278 . S
C298 O299 1.203 . S
C298 O305 1.267 . S
O299 C298 1.203 . S
O300 C293 1.185 . S
O300 Zn296 2.086 . S
C301 O297 1.278 . S
C301 O302 1.211 . S
O302 C301 1.211 . S
C303 O295 1.284 . S
C303 O304 1.273 . S
O304 C303 1.273 . S
O305 Zn296 1.977 . S
O305 C298 1.267 . S
C306 O307 1.160 . S
C306 O313 1.185 . S
O307 C306 1.160 . S
O308 Zn309 1.899 . S
O308 C316 1.284 1_455 S
Zn309 O308 1.899 . S
Zn309 O310 2.032 . S
Zn309 O313 2.086 . S
Zn309 O318 1.977 . S
O310 Zn309 2.032 . S
O310 C314 1.278 . S
C311 O312 1.203 . S
C311 O318 1.267 . S
O312 C311 1.203 . S
O313 C306 1.185 . S
O313 Zn309 2.086 . S
C314 O310 1.278 . S
C314 O315 1.211 . S
O315 C314 1.211 . S
C316 O308 1.284 1_655 S
C316 O317 1.273 . S
O317 C316 1.273 . S
O318 Zn309 1.977 . S
O318 C311 1.267 . S
C319 O320 1.160 . S
C319 O326 1.185 . S
O320 C319 1.160 . S
O321 Zn322 1.899 . S
O321 C329 1.284 . S
Zn322 O321 1.899 . S
Zn322 O323 2.032 . S
Zn322 O326 2.086 . S
Zn322 O331 1.977 . S
O323 Zn322 2.032 . S
O323 C327 1.278 . S
C324 O325 1.203 . S
C324 O331 1.267 . S
O325 C324 1.203 . S
O326 C319 1.185 . S
O326 Zn322 2.086 . S
C327 O323 1.278 . S
C327 O328 1.211 . S
O328 C327 1.211 . S
C329 O321 1.284 . S
C329 O330 1.273 . S
O330 C329 1.273 . S
O331 Zn322 1.977 . S
O331 C324 1.267 . S
C332 C333 1.363 . S
C332 C338 1.379 . S
C332 N340 1.356 . S
C333 C332 1.363 . S
C333 C339 1.363 . S
C334 C335 1.363 . S
C334 C339 1.379 . S
C334 N341 1.356 . S
C335 C334 1.363 . S
C335 C338 1.363 . S
N336 C338 1.356 . S
N336 H348 0.984 . S
N336 H349 0.985 . S
N337 C339 1.356 . S
N337 H342 0.984 . S
N337 H343 0.985 . S
C338 C332 1.379 . S
C338 C335 1.363 . S
C338 N336 1.356 . S
C339 C333 1.363 . S
C339 C334 1.379 . S
C339 N337 1.356 . S
N340 C332 1.356 . S
N340 H346 0.984 . S
N340 H347 0.984 . S
N341 C334 1.356 . S
N341 H344 0.984 . S
N341 H345 0.985 . S
H342 N337 0.984 . S
H343 N337 0.985 . S
H344 N341 0.984 . S
H345 N341 0.985 . S
H346 N340 0.984 . S
H347 N340 0.984 . S
H348 N336 0.984 . S
H349 N336 0.985 . S
C350 C351 1.363 . S
C350 C356 1.379 . S
C350 N358 1.356 1_455 S
C351 C350 1.363 . S
C351 C357 1.363 . S
C352 C353 1.363 . S
C352 C357 1.379 . S
C352 N359 1.356 . S
C353 C352 1.363 . S
C353 C356 1.363 . S
N354 C356 1.356 . S
N354 H366 0.984 . S
N354 H367 0.985 . S
N355 C357 1.356 . S
N355 H360 0.984 . S
N355 H361 0.985 . S
C356 C350 1.379 . S
C356 C353 1.363 . S
C356 N354 1.356 . S
C357 C351 1.363 . S
C357 C352 1.379 . S
C357 N355 1.356 . S
N358 C350 1.356 1_655 S
N358 H364 0.984 . S
N358 H365 0.984 . S
N359 C352 1.356 . S
N359 H362 0.984 . S
N359 H363 0.985 . S
H360 N355 0.984 . S
H361 N355 0.985 . S
H362 N359 0.984 . S
H363 N359 0.985 . S
H364 N358 0.984 . S
H365 N358 0.984 . S
H366 N354 0.984 . S
H367 N354 0.985 . S
C368 C369 1.363 . S
C368 C374 1.379 . S
C368 N376 1.356 . S
C369 C368 1.363 . S
C369 C375 1.363 . S
C370 C371 1.363 . S
C370 C375 1.379 . S
C370 N377 1.356 . S
C371 C370 1.363 . S
C371 C374 1.363 . S
N372 C374 1.356 . S
N372 H384 0.984 . S
N372 H385 0.985 . S
N373 C375 1.356 . S
N373 H378 0.984 . S
N373 H379 0.985 . S
C374 C368 1.379 . S
C374 C371 1.363 . S
C374 N372 1.356 . S
C375 C369 1.363 . S
C375 C370 1.379 . S
C375 N373 1.356 . S
N376 C368 1.356 . S
N376 H382 0.984 . S
N376 H383 0.984 . S
N377 C370 1.356 . S
N377 H380 0.984 . S
N377 H381 0.985 . S
H378 N373 0.984 . S
H379 N373 0.985 . S
H380 N377 0.984 . S
H381 N377 0.985 . S
H382 N376 0.984 . S
H383 N376 0.984 . S
H384 N372 0.984 . S
H385 N372 0.985 . S
C386 C387 1.363 1_565 S
C386 C392 1.379 . S
C386 N394 1.377 . S
C387 C386 1.363 1_545 S
C387 C393 1.363 . S
C388 C389 1.363 . S
C388 C393 1.379 . S
C388 N395 1.356 . S
C389 C388 1.363 . S
C389 C392 1.363 1_545 S
N390 C392 1.356 . S
N390 H402 0.984 . S
N390 H403 0.985 . S
N391 C393 1.356 . S
N391 H396 0.984 1_655 S
N391 H397 0.985 . S
C392 C386 1.379 . S
C392 C389 1.363 1_565 S
C392 N390 1.356 . S
C393 C387 1.363 . S
C393 C388 1.379 . S
C393 N391 1.356 . S
N394 C386 1.377 . S
N394 H400 0.982 . S
N394 H401 0.967 1_655 S
N395 C388 1.356 . S
N395 H398 0.984 . S
N395 H399 0.985 . S
H396 N391 0.984 1_455 S
H397 N391 0.985 . S
H398 N395 0.984 . S
H399 N395 0.985 . S
H400 N394 0.982 . S
H401 N394 0.967 1_455 S
H402 N390 0.984 . S
H403 N390 0.985 . S
C404 C405 1.363 . S
C404 C410 1.379 . S
C404 N412 1.356 . S
C405 C404 1.363 . S
C405 C411 1.363 . S
C406 C407 1.363 . S
C406 C411 1.379 . S
C406 N413 1.356 . S
C407 C406 1.363 . S
C407 C410 1.363 . S
N408 C410 1.356 . S
N408 H420 0.984 . S
N408 H421 0.985 . S
N409 C411 1.356 . S
N409 H414 0.984 . S
N409 H415 0.985 . S
C410 C404 1.379 . S
C410 C407 1.363 . S
C410 N408 1.356 . S
C411 C405 1.363 . S
C411 C406 1.379 . S
C411 N409 1.356 . S
N412 C404 1.356 . S
N412 H418 0.984 . S
N412 H419 0.984 . S
N413 C406 1.356 . S
N413 H416 0.984 . S
N413 H417 0.985 . S
H414 N409 0.984 . S
H415 N409 0.985 . S
H416 N413 0.984 . S
H417 N413 0.985 . S
H418 N412 0.984 . S
H419 N412 0.984 . S
H420 N408 0.984 . S
H421 N408 0.985 . S
C422 C423 1.363 . S
C422 C428 1.379 . S
C422 N430 1.356 . S
C423 C422 1.363 . S
C423 C429 1.363 . S
C424 C425 1.363 . S
C424 C429 1.379 . S
C424 N431 1.356 . S
C425 C424 1.363 . S
C425 C428 1.363 . S
N426 C428 1.356 . S
N426 H438 0.984 . S
N426 H439 0.985 . S
N427 C429 1.356 . S
N427 H432 0.984 . S
N427 H433 0.985 . S
C428 C422 1.379 . S
C428 C425 1.363 . S
C428 N426 1.356 . S
C429 C423 1.363 . S
C429 C424 1.379 . S
C429 N427 1.356 . S
N430 C422 1.356 . S
N430 H436 0.984 . S
N430 H437 0.984 . S
N431 C424 1.356 . S
N431 H434 0.984 . S
N431 H435 0.985 . S
H432 N427 0.984 . S
H433 N427 0.985 . S
H434 N431 0.984 . S
H435 N431 0.985 . S
H436 N430 0.984 . S
H437 N430 0.984 . S
H438 N426 0.984 . S
H439 N426 0.985 . S
C440 C441 1.363 . S
C440 C446 1.379 . S
C440 N448 1.356 . S
C441 C440 1.363 . S
C441 C447 1.363 . S
C442 C443 1.363 . S
C442 C447 1.379 . S
C442 N449 1.356 . S
C443 C442 1.363 . S
C443 C446 1.363 . S
N444 C446 1.356 . S
N444 H456 0.984 . S
N444 H457 0.985 . S
N445 C447 1.356 . S
N445 H450 0.984 . S
N445 H451 0.985 . S
C446 C440 1.379 . S
C446 C443 1.363 . S
C446 N444 1.356 . S
C447 C441 1.363 . S
C447 C442 1.379 . S
C447 N445 1.356 . S
N448 C440 1.356 . S
N448 H454 0.984 . S
N448 H455 0.984 . S
N449 C442 1.356 . S
N449 H452 0.984 . S
N449 H453 0.985 . S
H450 N445 0.984 . S
H451 N445 0.985 . S
H452 N449 0.984 . S
H453 N449 0.985 . S
H454 N448 0.984 . S
H455 N448 0.984 . S
H456 N444 0.984 . S
H457 N444 0.985 . S
C458 C459 1.363 . S
C458 C464 1.379 . S
C458 N466 1.356 . S
C459 C458 1.363 . S
C459 C465 1.363 1_565 S
C460 C461 1.363 1_545 S
C460 C465 1.379 . S
C460 N467 1.356 . S
C461 C460 1.363 1_565 S
C461 C464 1.363 . S
N462 C464 1.356 . S
N462 H474 0.984 . S
N462 H475 0.985 . S
N463 C465 1.356 . S
N463 H468 0.984 . S
N463 H469 0.985 . S
C464 C458 1.379 . S
C464 C461 1.363 . S
C464 N462 1.356 . S
C465 C459 1.363 1_545 S
C465 C460 1.379 . S
C465 N463 1.356 . S
N466 C458 1.356 . S
N466 H472 0.984 . S
N466 H473 0.984 . S
N467 C460 1.356 . S
N467 H470 0.984 . S
N467 H471 0.985 . S
H468 N463 0.984 . S
H469 N463 0.985 . S
H470 N467 0.984 . S
H471 N467 0.985 . S
H472 N466 0.984 . S
H473 N466 0.984 . S
H474 N462 0.984 . S
H475 N462 0.985 . S
C476 C477 1.363 . S
C476 C482 1.379 . S
C476 N484 1.356 . S
C477 C476 1.363 . S
C477 C483 1.363 . S
C478 C479 1.363 . S
C478 C483 1.379 . S
C478 N485 1.356 . S
C479 C478 1.363 . S
C479 C482 1.363 . S
N480 C482 1.356 . S
N480 H492 0.984 . S
N480 H493 0.985 . S
N481 C483 1.356 . S
N481 H486 0.984 . S
N481 H487 0.985 . S
C482 C476 1.379 . S
C482 C479 1.363 . S
C482 N480 1.356 . S
C483 C477 1.363 . S
C483 C478 1.379 . S
C483 N481 1.356 . S
N484 C476 1.356 . S
N484 H490 0.984 . S
N484 H491 0.984 . S
N485 C478 1.356 . S
N485 H488 0.984 . S
N485 H489 0.985 . S
H486 N481 0.984 . S
H487 N481 0.985 . S
H488 N485 0.984 . S
H489 N485 0.985 . S
H490 N484 0.984 . S
H491 N484 0.984 . S
H492 N480 0.984 . S
H493 N480 0.985 . S
C494 C495 1.363 . S
C494 C500 1.379 . S
C494 N502 1.356 . S
C495 C494 1.363 . S
C495 C501 1.363 . S
C496 C497 1.363 . S
C496 C501 1.379 . S
C496 N503 1.356 . S
C497 C496 1.363 . S
C497 C500 1.363 . S
N498 C500 1.356 . S
N498 H510 0.984 . S
N498 H511 0.985 . S
N499 C501 1.356 . S
N499 H504 0.984 . S
N499 H505 0.985 . S
C500 C494 1.379 . S
C500 C497 1.363 . S
C500 N498 1.356 . S
C501 C495 1.363 . S
C501 C496 1.379 . S
C501 N499 1.356 . S
N502 C494 1.356 . S
N502 H508 0.984 . S
N502 H509 0.984 . S
N503 C496 1.356 . S
N503 H506 0.984 . S
N503 H507 0.985 . S
H504 N499 0.984 . S
H505 N499 0.985 . S
H506 N503 0.984 . S
H507 N503 0.985 . S
H508 N502 0.984 . S
H509 N502 0.984 . S
H510 N498 0.984 . S
H511 N498 0.985 . S
C512 C513 1.363 . S
C512 C518 1.379 . S
C512 N520 1.356 . S
C513 C512 1.363 . S
C513 C519 1.363 . S
C514 C515 1.363 . S
C514 C519 1.379 . S
C514 N521 1.356 . S
C515 C514 1.363 . S
C515 C518 1.363 . S
N516 C518 1.356 . S
N516 H528 0.984 . S
N516 H529 0.985 . S
N517 C519 1.356 . S
N517 H522 0.984 . S
N517 H523 0.985 . S
C518 C512 1.379 . S
C518 C515 1.363 . S
C518 N516 1.356 . S
C519 C513 1.363 . S
C519 C514 1.379 . S
C519 N517 1.356 . S
N520 C512 1.356 . S
N520 H526 0.984 . S
N520 H527 0.984 . S
N521 C514 1.356 . S
N521 H524 0.984 . S
N521 H525 0.985 . S
H522 N517 0.984 . S
H523 N517 0.985 . S
H524 N521 0.984 . S
H525 N521 0.985 . S
H526 N520 0.984 . S
H527 N520 0.984 . S
H528 N516 0.984 . S
H529 N516 0.985 . S
C530 C531 1.363 . S
C530 C536 1.379 . S
C530 N538 1.356 . S
C531 C530 1.363 . S
C531 C537 1.363 . S
C532 C533 1.363 . S
C532 C537 1.379 . S
C532 N539 1.356 . S
C533 C532 1.363 . S
C533 C536 1.363 . S
N534 C536 1.356 . S
N534 H546 0.984 . S
N534 H547 0.985 . S
N535 C537 1.356 . S
N535 H540 0.984 . S
N535 H541 0.985 . S
C536 C530 1.379 . S
C536 C533 1.363 . S
C536 N534 1.356 . S
C537 C531 1.363 . S
C537 C532 1.379 . S
C537 N535 1.356 . S
N538 C530 1.356 . S
N538 H544 0.984 . S
N538 H545 0.984 . S
N539 C532 1.356 . S
N539 H542 0.984 . S
N539 H543 0.985 . S
H540 N535 0.984 . S
H541 N535 0.985 . S
H542 N539 0.984 . S
H543 N539 0.985 . S
H544 N538 0.984 . S
H545 N538 0.984 . S
H546 N534 0.984 . S
H547 N534 0.985 . S
C548 C549 1.363 . S
C548 C554 1.379 . S
C548 N556 1.356 . S
C549 C548 1.363 . S
C549 C555 1.363 . S
C550 C551 1.363 . S
C550 C555 1.379 . S
C550 N557 1.356 . S
C551 C550 1.363 . S
C551 C554 1.363 . S
N552 C554 1.356 . S
N552 H564 0.984 . S
N552 H565 0.985 . S
N553 C555 1.356 . S
N553 H558 0.984 . S
N553 H559 0.985 . S
C554 C548 1.379 . S
C554 C551 1.363 . S
C554 N552 1.356 . S
C555 C549 1.363 . S
C555 C550 1.379 . S
C555 N553 1.356 . S
N556 C548 1.356 . S
N556 H562 0.984 . S
N556 H563 0.984 . S
N557 C550 1.356 . S
N557 H560 0.984 . S
N557 H561 0.985 . S
H558 N553 0.984 . S
H559 N553 0.985 . S
H560 N557 0.984 . S
H561 N557 0.985 . S
H562 N556 0.984 . S
H563 N556 0.984 . S
H564 N552 0.984 . S
H565 N552 0.985 . S
C566 C567 1.363 . S
C566 C572 1.379 . S
C566 N574 1.356 . S
C567 C566 1.363 . S
C567 C573 1.363 . S
C568 C569 1.363 . S
C568 C573 1.379 . S
C568 N575 1.356 . S
C569 C568 1.363 . S
C569 C572 1.363 . S
N570 C572 1.356 . S
N570 H582 0.984 . S
N570 H583 0.985 . S
N571 C573 1.356 . S
N571 H576 0.984 . S
N571 H577 0.985 . S
C572 C566 1.379 . S
C572 C569 1.363 . S
C572 N570 1.356 . S
C573 C567 1.363 . S
C573 C568 1.379 . S
C573 N571 1.356 . S
N574 C566 1.356 . S
N574 H580 0.984 . S
N574 H581 0.984 . S
N575 C568 1.356 . S
N575 H578 0.984 . S
N575 H579 0.985 . S
H576 N571 0.984 . S
H577 N571 0.985 . S
H578 N575 0.984 . S
H579 N575 0.985 . S
H580 N574 0.984 . S
H581 N574 0.984 . S
H582 N570 0.984 . S
H583 N570 0.985 . S
C584 C585 1.363 . S
C584 C590 1.379 . S
C584 N592 1.356 . S
C585 C584 1.363 . S
C585 C591 1.363 . S
C586 C587 1.363 . S
C586 C591 1.379 . S
C586 N593 1.356 . S
C587 C586 1.363 . S
C587 C590 1.363 . S
N588 C590 1.356 . S
N588 H600 0.984 . S
N588 H601 0.985 . S
N589 C591 1.356 . S
N589 H594 0.984 . S
N589 H595 0.985 . S
C590 C584 1.379 . S
C590 C587 1.363 . S
C590 N588 1.356 . S
C591 C585 1.363 . S
C591 C586 1.379 . S
C591 N589 1.356 . S
N592 C584 1.356 . S
N592 H598 0.984 . S
N592 H599 0.984 . S
N593 C586 1.356 . S
N593 H596 0.984 . S
N593 H597 0.985 . S
H594 N589 0.984 . S
H595 N589 0.985 . S
H596 N593 0.984 . S
H597 N593 0.985 . S
H598 N592 0.984 . S
H599 N592 0.984 . S
H600 N588 0.984 . S
H601 N588 0.985 . S
C602 C603 1.363 1_655 S
C602 C608 1.379 . S
C602 N610 1.356 . S
C603 C602 1.363 1_455 S
C603 C609 1.363 . S
C604 C605 1.363 . S
C604 C609 1.379 . S
C604 N611 1.356 . S
C605 C604 1.363 . S
C605 C608 1.363 1_455 S
N606 C608 1.356 . S
N606 H618 0.984 . S
N606 H619 0.985 . S
N607 C609 1.356 . S
N607 H612 0.984 . S
N607 H613 0.985 . S
C608 C602 1.379 . S
C608 C605 1.363 1_655 S
C608 N606 1.356 . S
C609 C603 1.363 . S
C609 C604 1.379 . S
C609 N607 1.356 . S
N610 C602 1.356 . S
N610 H616 0.984 . S
N610 H617 0.984 . S
N611 C604 1.356 . S
N611 H614 0.984 . S
N611 H615 0.985 . S
H612 N607 0.984 . S
H613 N607 0.985 . S
H614 N611 0.984 . S
H615 N611 0.985 . S
H616 N610 0.984 . S
H617 N610 0.984 . S
H618 N606 0.984 . S
H619 N606 0.985 . S
C620 C621 1.363 . S
C620 C626 1.379 . S
C620 N628 1.356 . S
C621 C620 1.363 . S
C621 C627 1.363 . S
C622 C623 1.363 . S
C622 C627 1.379 . S
C622 N629 1.356 . S
C623 C622 1.363 . S
C623 C626 1.363 . S
N624 C626 1.356 . S
N624 H636 0.984 . S
N624 H637 0.985 . S
N625 C627 1.356 . S
N625 H630 0.984 . S
N625 H631 0.985 . S
C626 C620 1.379 . S
C626 C623 1.363 . S
C626 N624 1.356 . S
C627 C621 1.363 . S
C627 C622 1.379 . S
C627 N625 1.356 . S
N628 C620 1.356 . S
N628 H634 0.984 . S
N628 H635 0.984 . S
N629 C622 1.356 . S
N629 H632 0.984 . S
N629 H633 0.985 . S
H630 N625 0.984 . S
H631 N625 0.985 . S
H632 N629 0.984 . S
H633 N629 0.985 . S
H634 N628 0.984 . S
H635 N628 0.984 . S
H636 N624 0.984 . S
H637 N624 0.985 . S
C638 C639 1.363 . S
C638 C644 1.379 . S
C638 N646 1.356 . S
C639 C638 1.363 . S
C639 C645 1.363 . S
C640 C641 1.363 . S
C640 C645 1.379 . S
C640 N647 1.356 . S
C641 C640 1.363 . S
C641 C644 1.363 . S
N642 C644 1.356 . S
N642 H654 0.984 . S
N642 H655 0.985 . S
N643 C645 1.356 . S
N643 H648 0.984 . S
N643 H649 0.985 . S
C644 C638 1.379 . S
C644 C641 1.363 . S
C644 N642 1.356 . S
C645 C639 1.363 . S
C645 C640 1.379 . S
C645 N643 1.356 . S
N646 C638 1.356 . S
N646 H652 0.984 . S
N646 H653 0.984 . S
N647 C640 1.356 . S
N647 H650 0.984 . S
N647 H651 0.985 . S
H648 N643 0.984 . S
H649 N643 0.985 . S
H650 N647 0.984 . S
H651 N647 0.985 . S
H652 N646 0.984 . S
H653 N646 0.984 . S
H654 N642 0.984 . S
H655 N642 0.985 . S
C656 C657 1.363 . S
C656 C662 1.379 . S
C656 N664 1.356 1_565 S
C657 C656 1.363 . S
C657 C663 1.363 1_554 S
C658 C659 1.363 1_556 S
C658 C663 1.379 . S
C658 N665 1.356 . S
C659 C658 1.363 1_554 S
C659 C662 1.363 . S
N660 C662 1.356 . S
N660 H672 0.984 . S
N660 H673 0.985 . S
N661 C663 1.356 . S
N661 H666 0.984 . S
N661 H667 0.985 . S
C662 C656 1.379 . S
C662 C659 1.363 . S
C662 N660 1.356 . S
C663 C657 1.363 1_556 S
C663 C658 1.379 . S
C663 N661 1.356 . S
N664 C656 1.356 1_545 S
N664 H670 0.984 . S
N664 H671 0.984 . S
N665 C658 1.356 . S
N665 H668 0.984 . S
N665 H669 0.985 . S
H666 N661 0.984 . S
H667 N661 0.985 . S
H668 N665 0.984 . S
H669 N665 0.985 . S
H670 N664 0.984 . S
H671 N664 0.984 . S
H672 N660 0.984 . S
H673 N660 0.985 . S
C674 C675 1.363 . S
C674 C680 1.379 . S
C674 N682 1.356 . S
C675 C674 1.363 . S
C675 C681 1.363 . S
C676 C677 1.363 . S
C676 C681 1.379 . S
C676 N683 1.356 . S
C677 C676 1.363 . S
C677 C680 1.363 . S
N678 C680 1.356 . S
N678 H690 0.984 . S
N678 H691 0.985 . S
N679 C681 1.356 . S
N679 H684 0.984 . S
N679 H685 0.985 . S
C680 C674 1.379 . S
C680 C677 1.363 . S
C680 N678 1.356 . S
C681 C675 1.363 . S
C681 C676 1.379 . S
C681 N679 1.356 . S
N682 C674 1.356 . S
N682 H688 0.984 . S
N682 H689 0.984 . S
N683 C676 1.356 . S
N683 H686 0.984 . S
N683 H687 0.985 . S
H684 N679 0.984 . S
H685 N679 0.985 . S
H686 N683 0.984 . S
H687 N683 0.985 . S
H688 N682 0.984 . S
H689 N682 0.984 . S
H690 N678 0.984 . S
H691 N678 0.985 . S
C692 C693 1.363 . S
C692 C698 1.379 . S
C692 N700 1.356 . S
C693 C692 1.363 . S
C693 C699 1.363 . S
C694 C695 1.363 . S
C694 C699 1.379 . S
C694 N701 1.356 . S
C695 C694 1.363 . S
C695 C698 1.363 . S
N696 C698 1.356 . S
N696 H708 0.984 . S
N696 H709 0.985 . S
N697 C699 1.356 . S
N697 H702 0.984 . S
N697 H703 0.985 . S
C698 C692 1.379 . S
C698 C695 1.363 . S
C698 N696 1.356 . S
C699 C693 1.363 . S
C699 C694 1.379 . S
C699 N697 1.356 . S
N700 C692 1.356 . S
N700 H706 0.984 . S
N700 H707 0.984 . S
N701 C694 1.356 . S
N701 H704 0.984 . S
N701 H705 0.985 . S
H702 N697 0.984 . S
H703 N697 0.985 . S
H704 N701 0.984 . S
H705 N701 0.985 . S
H706 N700 0.984 . S
H707 N700 0.984 . S
H708 N696 0.984 . S
H709 N696 0.985 . S
C710 C711 1.363 . S
C710 C716 1.379 . S
C710 N718 1.356 . S
C711 C710 1.363 . S
C711 C717 1.363 . S
C712 C713 1.363 . S
C712 C717 1.379 . S
C712 N719 1.356 . S
C713 C712 1.363 . S
C713 C716 1.363 . S
N714 C716 1.356 . S
N714 H726 0.984 . S
N714 H727 0.985 . S
N715 C717 1.356 . S
N715 H720 0.984 . S
N715 H721 0.985 . S
C716 C710 1.379 . S
C716 C713 1.363 . S
C716 N714 1.356 . S
C717 C711 1.363 . S
C717 C712 1.379 . S
C717 N715 1.356 . S
N718 C710 1.356 . S
N718 H724 0.984 . S
N718 H725 0.984 . S
N719 C712 1.356 . S
N719 H722 0.984 . S
N719 H723 0.985 . S
H720 N715 0.984 . S
H721 N715 0.985 . S
H722 N719 0.984 . S
H723 N719 0.985 . S
H724 N718 0.984 . S
H725 N718 0.984 . S
H726 N714 0.984 . S
H727 N714 0.985 . S
C728 C729 1.363 . S
C728 C734 1.379 . S
C728 N736 1.356 . S
C729 C728 1.363 . S
C729 C735 1.363 . S
C730 C731 1.363 . S
C730 C735 1.379 . S
C730 N737 1.356 . S
C731 C730 1.363 . S
C731 C734 1.363 . S
N732 C734 1.356 . S
N732 H744 0.984 . S
N732 H745 0.985 . S
N733 C735 1.356 . S
N733 H738 0.984 . S
N733 H739 0.985 . S
C734 C728 1.379 . S
C734 C731 1.363 . S
C734 N732 1.356 . S
C735 C729 1.363 . S
C735 C730 1.379 . S
C735 N733 1.356 . S
N736 C728 1.356 . S
N736 H742 0.984 . S
N736 H743 0.984 . S
N737 C730 1.356 . S
N737 H740 0.984 . S
N737 H741 0.985 . S
H738 N733 0.984 . S
H739 N733 0.985 . S
H740 N737 0.984 . S
H741 N737 0.985 . S
H742 N736 0.984 . S
H743 N736 0.984 . S
H744 N732 0.984 . S
H745 N732 0.985 . S
C746 C747 1.363 . S
C746 C752 1.379 . S
C746 N754 1.356 . S
C747 C746 1.363 . S
C747 C753 1.363 . S
C748 C749 1.363 . S
C748 C753 1.379 . S
C748 N755 1.356 . S
C749 C748 1.363 . S
C749 C752 1.363 . S
N750 C752 1.356 . S
N750 H762 0.984 . S
N750 H763 0.985 . S
N751 C753 1.356 . S
N751 H756 0.984 . S
N751 H757 0.985 . S
C752 C746 1.379 . S
C752 C749 1.363 . S
C752 N750 1.356 . S
C753 C747 1.363 . S
C753 C748 1.379 . S
C753 N751 1.356 . S
N754 C746 1.356 . S
N754 H760 0.984 . S
N754 H761 0.984 . S
N755 C748 1.356 . S
N755 H758 0.984 . S
N755 H759 0.985 . S
H756 N751 0.984 . S
H757 N751 0.985 . S
H758 N755 0.984 . S
H759 N755 0.985 . S
H760 N754 0.984 . S
H761 N754 0.984 . S
H762 N750 0.984 . S
H763 N750 0.985 . S
C764 C765 1.363 . S
C764 C770 1.379 . S
C764 N772 1.356 . S
C765 C764 1.363 . S
C765 C771 1.363 . S
C766 C767 1.363 . S
C766 C771 1.379 . S
C766 N773 1.356 . S
C767 C766 1.363 . S
C767 C770 1.363 . S
N768 C770 1.356 . S
N768 H780 0.984 . S
N768 H781 0.985 . S
N769 C771 1.356 . S
N769 H774 0.984 . S
N769 H775 0.985 . S
C770 C764 1.379 . S
C770 C767 1.363 . S
C770 N768 1.356 . S
C771 C765 1.363 . S
C771 C766 1.379 . S
C771 N769 1.356 . S
N772 C764 1.356 . S
N772 H778 0.984 . S
N772 H779 0.984 . S
N773 C766 1.356 . S
N773 H776 0.984 . S
N773 H777 0.985 . S
H774 N769 0.984 . S
H775 N769 0.985 . S
H776 N773 0.984 . S
H777 N773 0.985 . S
H778 N772 0.984 . S
H779 N772 0.984 . S
H780 N768 0.984 . S
H781 N768 0.985 . S
C782 C783 1.363 . S
C782 C788 1.379 . S
C782 N790 1.356 . S
C783 C782 1.363 . S
C783 C789 1.363 . S
C784 C785 1.363 . S
C784 C789 1.379 . S
C784 N791 1.356 1_545 S
C785 C784 1.363 . S
C785 C788 1.363 . S
N786 C788 1.356 . S
N786 H798 0.984 . S
N786 H799 0.985 . S
N787 C789 1.356 . S
N787 H792 0.984 . S
N787 H793 0.985 1_545 S
C788 C782 1.379 . S
C788 C785 1.363 . S
C788 N786 1.356 . S
C789 C783 1.363 . S
C789 C784 1.379 . S
C789 N787 1.356 . S
N790 C782 1.356 . S
N790 H796 0.984 . S
N790 H797 0.984 . S
N791 C784 1.356 1_565 S
N791 H794 0.984 . S
N791 H795 0.985 . S
H792 N787 0.984 . S
H793 N787 0.985 1_565 S
H794 N791 0.984 . S
H795 N791 0.985 . S
H796 N790 0.984 . S
H797 N790 0.984 . S
H798 N786 0.984 . S
H799 N786 0.985 . S
C800 C801 1.363 . S
C800 C806 1.379 . S
C800 N808 1.356 . S
C801 C800 1.363 . S
C801 C807 1.363 . S
C802 C803 1.363 . S
C802 C807 1.379 . S
C802 N809 1.356 . S
C803 C802 1.363 . S
C803 C806 1.363 . S
N804 C806 1.356 . S
N804 H816 0.984 . S
N804 H817 0.985 . S
N805 C807 1.356 . S
N805 H810 0.984 . S
N805 H811 0.985 . S
C806 C800 1.379 . S
C806 C803 1.363 . S
C806 N804 1.356 . S
C807 C801 1.363 . S
C807 C802 1.379 . S
C807 N805 1.356 . S
N808 C800 1.356 . S
N808 H814 0.984 . S
N808 H815 0.984 . S
N809 C802 1.356 . S
N809 H812 0.984 . S
N809 H813 0.985 . S
H810 N805 0.984 . S
H811 N805 0.985 . S
H812 N809 0.984 . S
H813 N809 0.985 . S
H814 N808 0.984 . S
H815 N808 0.984 . S
H816 N804 0.984 . S
H817 N804 0.985 . S
C818 C819 1.363 . S
C818 C824 1.379 . S
C818 N826 1.356 . S
C819 C818 1.363 . S
C819 C825 1.363 . S
C820 C821 1.363 . S
C820 C825 1.379 . S
C820 N827 1.356 . S
C821 C820 1.363 . S
C821 C824 1.363 . S
N822 C824 1.356 . S
N822 H834 0.984 . S
N822 H835 0.985 . S
N823 C825 1.356 . S
N823 H828 0.984 . S
N823 H829 0.985 . S
C824 C818 1.379 . S
C824 C821 1.363 . S
C824 N822 1.356 . S
C825 C819 1.363 . S
C825 C820 1.379 . S
C825 N823 1.356 . S
N826 C818 1.356 . S
N826 H832 0.984 . S
N826 H833 0.984 . S
N827 C820 1.356 . S
N827 H830 0.984 . S
N827 H831 0.985 . S
H828 N823 0.984 . S
H829 N823 0.985 . S
H830 N827 0.984 . S
H831 N827 0.985 . S
H832 N826 0.984 . S
H833 N826 0.984 . S
H834 N822 0.984 . S
H835 N822 0.985 . S
C836 C837 1.363 . S
C836 C842 1.379 . S
C836 N844 1.356 . S
C837 C836 1.363 . S
C837 C843 1.363 . S
C838 C839 1.363 . S
C838 C843 1.379 . S
C838 N845 1.356 . S
C839 C838 1.363 . S
C839 C842 1.363 . S
N840 C842 1.356 . S
N840 H852 0.984 . S
N840 H853 0.985 . S
N841 C843 1.356 . S
N841 H846 0.984 . S
N841 H847 0.985 . S
C842 C836 1.379 . S
C842 C839 1.363 . S
C842 N840 1.356 . S
C843 C837 1.363 . S
C843 C838 1.379 . S
C843 N841 1.356 . S
N844 C836 1.356 . S
N844 H850 0.984 . S
N844 H851 0.984 . S
N845 C838 1.356 . S
N845 H848 0.984 . S
N845 H849 0.985 . S
H846 N841 0.984 . S
H847 N841 0.985 . S
H848 N845 0.984 . S
H849 N845 0.985 . S
H850 N844 0.984 . S
H851 N844 0.984 . S
H852 N840 0.984 . S
H853 N840 0.985 . S
C854 C855 1.363 . S
C854 C860 1.379 . S
C854 N862 1.356 . S
C855 C854 1.363 . S
C855 C861 1.363 . S
C856 C857 1.363 . S
C856 C861 1.379 . S
C856 N863 1.356 . S
C857 C856 1.363 . S
C857 C860 1.363 . S
N858 C860 1.356 1_565 S
N858 H870 0.984 . S
N858 H871 0.985 . S
N859 C861 1.356 . S
N859 H864 0.984 . S
N859 H865 0.985 . S
C860 C854 1.379 . S
C860 C857 1.363 . S
C860 N858 1.356 1_545 S
C861 C855 1.363 . S
C861 C856 1.379 . S
C861 N859 1.356 . S
N862 C854 1.356 . S
N862 H868 0.984 1_545 S
N862 H869 0.984 . S
N863 C856 1.356 . S
N863 H866 0.984 . S
N863 H867 0.985 . S
H864 N859 0.984 . S
H865 N859 0.985 . S
H866 N863 0.984 . S
H867 N863 0.985 . S
H868 N862 0.984 1_565 S
H869 N862 0.984 . S
H870 N858 0.984 . S
H871 N858 0.985 . S
C872 C873 1.363 . S
C872 C878 1.379 . S
C872 N880 1.356 . S
C873 C872 1.363 . S
C873 C879 1.363 . S
C874 C875 1.363 . S
C874 C879 1.379 . S
C874 N881 1.356 . S
C875 C874 1.363 . S
C875 C878 1.363 . S
N876 C878 1.356 . S
N876 H888 0.984 . S
N876 H889 0.985 . S
N877 C879 1.356 . S
N877 H882 0.984 . S
N877 H883 0.985 . S
C878 C872 1.379 . S
C878 C875 1.363 . S
C878 N876 1.356 . S
C879 C873 1.363 . S
C879 C874 1.379 . S
C879 N877 1.356 . S
N880 C872 1.356 . S
N880 H886 0.984 . S
N880 H887 0.984 . S
N881 C874 1.356 . S
N881 H884 0.984 . S
N881 H885 0.985 . S
H882 N877 0.984 . S
H883 N877 0.985 . S
H884 N881 0.984 . S
H885 N881 0.985 . S
H886 N880 0.984 . S
H887 N880 0.984 . S
H888 N876 0.984 . S
H889 N876 0.985 . S
C890 C891 1.363 . S
C890 C896 1.379 . S
C890 N898 1.356 . S
C891 C890 1.363 . S
C891 C897 1.363 . S
C892 C893 1.363 . S
C892 C897 1.379 . S
C892 N899 1.356 . S
C893 C892 1.363 . S
C893 C896 1.363 . S
N894 C896 1.356 . S
N894 H906 0.984 . S
N894 H907 0.985 . S
N895 C897 1.356 1_655 S
N895 H900 0.984 . S
N895 H901 0.985 . S
C896 C890 1.379 . S
C896 C893 1.363 . S
C896 N894 1.356 . S
C897 C891 1.363 . S
C897 C892 1.379 . S
C897 N895 1.356 1_455 S
N898 C890 1.356 . S
N898 H904 0.984 . S
N898 H905 0.984 . S
N899 C892 1.356 . S
N899 H902 0.984 . S
N899 H903 0.985 . S
H900 N895 0.984 . S
H901 N895 0.985 . S
H902 N899 0.984 . S
H903 N899 0.985 . S
H904 N898 0.984 . S
H905 N898 0.984 . S
H906 N894 0.984 . S
H907 N894 0.985 . S
C908 C909 1.363 . S
C908 C914 1.379 . S
C908 N916 1.356 . S
C909 C908 1.363 . S
C909 C915 1.363 . S
C910 C911 1.363 . S
C910 C915 1.379 . S
C910 N917 1.356 . S
C911 C910 1.363 . S
C911 C914 1.363 . S
N912 C914 1.356 . S
N912 H924 0.984 . S
N912 H925 0.985 . S
N913 C915 1.356 . S
N913 H918 0.984 . S
N913 H919 0.985 . S
C914 C908 1.379 . S
C914 C911 1.363 . S
C914 N912 1.356 . S
C915 C909 1.363 . S
C915 C910 1.379 . S
C915 N913 1.356 . S
N916 C908 1.356 . S
N916 H922 0.984 . S
N916 H923 0.984 . S
N917 C910 1.356 . S
N917 H920 0.984 . S
N917 H921 0.985 . S
H918 N913 0.984 . S
H919 N913 0.985 . S
H920 N917 0.984 . S
H921 N917 0.985 . S
H922 N916 0.984 . S
H923 N916 0.984 . S
H924 N912 0.984 . S
H925 N912 0.985 . S
C926 C927 1.363 1_455 S
C926 C932 1.379 . S
C926 N934 1.356 . S
C927 C926 1.363 1_655 S
C927 C933 1.363 . S
C928 C929 1.361 1_654 S
C928 C933 1.379 . S
C928 N935 1.356 1_554 S
C929 C928 1.361 1_456 S
C929 C932 1.365 1_556 S
N930 C932 1.356 1_556 S
N930 H942 0.984 . S
N930 H943 0.985 . S
N931 C933 1.356 . S
N931 H936 0.984 . S
N931 H937 0.985 . S
C932 C926 1.379 . S
C932 C929 1.365 1_554 S
C932 N930 1.356 1_554 S
C933 C927 1.363 . S
C933 C928 1.379 . S
C933 N931 1.356 . S
N934 C926 1.356 . S
N934 H940 0.984 . S
N934 H941 0.984 . S
N935 C928 1.356 1_556 S
N935 H938 0.984 . S
N935 H939 0.985 . S
H936 N931 0.984 . S
H937 N931 0.985 . S
H938 N935 0.984 . S
H939 N935 0.985 . S
H940 N934 0.984 . S
H941 N934 0.984 . S
H942 N930 0.984 . S
H943 N930 0.985 . S
C944 C945 1.363 . S
C944 C950 1.379 . S
C944 N952 1.356 . S
C945 C944 1.363 . S
C945 C951 1.363 . S
C946 C947 1.363 . S
C946 C951 1.379 . S
C946 N953 1.356 . S
C947 C946 1.363 . S
C947 C950 1.363 . S
N948 C950 1.356 . S
N948 H960 0.984 . S
N948 H961 0.985 . S
N949 C951 1.356 . S
N949 H954 0.984 . S
N949 H955 0.985 . S
C950 C944 1.379 . S
C950 C947 1.363 . S
C950 N948 1.356 . S
C951 C945 1.363 . S
C951 C946 1.379 . S
C951 N949 1.356 . S
N952 C944 1.356 . S
N952 H958 0.984 . S
N952 H959 0.984 . S
N953 C946 1.356 . S
N953 H956 0.984 . S
N953 H957 0.985 . S
H954 N949 0.984 . S
H955 N949 0.985 . S
H956 N953 0.984 . S
H957 N953 0.985 . S
H958 N952 0.984 . S
H959 N952 0.984 . S
H960 N948 0.984 . S
H961 N948 0.985 . S
C962 C963 1.363 . S
C962 C968 1.379 . S
C962 N970 1.356 1_455 S
C963 C962 1.363 . S
C963 C969 1.363 1_554 S
C964 C965 1.363 . S
C964 C969 1.379 . S
C964 N971 1.356 . S
C965 C964 1.363 . S
C965 C968 1.363 1_556 S
N966 C968 1.356 1_655 S
N966 H978 0.984 . S
N966 H979 0.985 . S
N967 C969 1.356 . S
N967 H972 0.984 . S
N967 H973 0.985 . S
C968 C962 1.379 . S
C968 C965 1.363 1_554 S
C968 N966 1.356 1_455 S
C969 C963 1.363 1_556 S
C969 C964 1.379 . S
C969 N967 1.356 . S
N970 C962 1.356 1_655 S
N970 H976 0.984 . S
N970 H977 0.993 . S
N971 C964 1.356 . S
N971 H974 0.984 . S
N971 H975 0.985 . S
H972 N967 0.984 . S
H973 N967 0.985 . S
H974 N971 0.984 . S
H975 N971 0.985 . S
H976 N970 0.984 . S
H977 N970 0.993 . S
H978 N966 0.984 . S
H979 N966 0.985 . S
C980 C981 1.363 . S
C980 C986 1.379 . S
C980 N988 1.356 . S
C981 C980 1.363 . S
C981 C987 1.363 . S
C982 C983 1.363 . S
C982 C987 1.379 . S
C982 N989 1.356 . S
C983 C982 1.363 . S
C983 C986 1.363 . S
N984 C986 1.356 . S
N984 H996 0.984 . S
N984 H997 0.985 . S
N985 C987 1.356 . S
N985 H990 0.984 . S
N985 H991 0.985 . S
C986 C980 1.379 . S
C986 C983 1.363 . S
C986 N984 1.356 . S
C987 C981 1.363 . S
C987 C982 1.379 . S
C987 N985 1.356 . S
N988 C980 1.356 . S
N988 H994 0.984 . S
N988 H995 0.984 . S
N989 C982 1.356 . S
N989 H992 0.984 . S
N989 H993 0.985 . S
H990 N985 0.984 . S
H991 N985 0.985 . S
H992 N989 0.984 . S
H993 N989 0.985 . S
H994 N988 0.984 . S
H995 N988 0.984 . S
H996 N984 0.984 . S
H997 N984 0.985 . S
C998 C999 1.363 . S
C998 C1004 1.379 . S
C998 N1006 1.356 . S
C999 C998 1.363 . S
C999 C1005 1.363 . S
C1000 C1001 1.363 . S
C1000 C1005 1.379 . S
C1000 N1007 1.356 . S
C1001 C1000 1.363 . S
C1001 C1004 1.363 . S
N1002 C1004 1.356 . S
N1002 H1014 0.984 . S
N1002 H1015 0.985 . S
N1003 C1005 1.356 . S
N1003 H1008 0.984 . S
N1003 H1009 0.985 1_554 S
C1004 C998 1.379 . S
C1004 C1001 1.363 . S
C1004 N1002 1.356 . S
C1005 C999 1.363 . S
C1005 C1000 1.379 . S
C1005 N1003 1.356 . S
N1006 C998 1.356 . S
N1006 H1012 0.984 . S
N1006 H1013 0.984 . S
N1007 C1000 1.356 . S
N1007 H1010 0.984 . S
N1007 H1011 0.985 . S
H1008 N1003 0.984 . S
H1009 N1003 0.985 1_556 S
H1010 N1007 0.984 . S
H1011 N1007 0.985 . S
H1012 N1006 0.984 . S
H1013 N1006 0.984 . S
H1014 N1002 0.984 . S
H1015 N1002 0.985 . S
C1016 C1017 1.363 . S
C1016 C1022 1.379 . S
C1016 N1024 1.356 . S
C1017 C1016 1.363 . S
C1017 C1023 1.363 . S
C1018 C1019 1.363 . S
C1018 C1023 1.379 . S
C1018 N1025 1.356 . S
C1019 C1018 1.363 . S
C1019 C1022 1.363 . S
N1020 C1022 1.356 . S
N1020 H1032 0.984 . S
N1020 H1033 0.985 . S
N1021 C1023 1.356 . S
N1021 H1026 0.984 . S
N1021 H1027 0.985 . S
C1022 C1016 1.379 . S
C1022 C1019 1.363 . S
C1022 N1020 1.356 . S
C1023 C1017 1.363 . S
C1023 C1018 1.379 . S
C1023 N1021 1.356 . S
N1024 C1016 1.356 . S
N1024 H1030 0.984 . S
N1024 H1031 0.984 . S
N1025 C1018 1.356 . S
N1025 H1028 0.984 . S
N1025 H1029 0.985 . S
H1026 N1021 0.984 . S
H1027 N1021 0.985 . S
H1028 N1025 0.984 . S
H1029 N1025 0.985 . S
H1030 N1024 0.984 . S
H1031 N1024 0.984 . S
H1032 N1020 0.984 . S
H1033 N1020 0.985 . S
C1034 C1035 1.363 . S
C1034 C1040 1.379 . S
C1034 N1042 1.356 . S
C1035 C1034 1.363 . S
C1035 C1041 1.363 . S
C1036 C1037 1.363 . S
C1036 C1041 1.379 . S
C1036 N1043 1.356 . S
C1037 C1036 1.363 . S
C1037 C1040 1.363 . S
N1038 C1040 1.356 . S
N1038 H1050 0.984 . S
N1038 H1051 0.985 . S
N1039 C1041 1.356 . S
N1039 H1044 0.984 . S
N1039 H1045 0.985 . S
C1040 C1034 1.379 . S
C1040 C1037 1.363 . S
C1040 N1038 1.356 . S
C1041 C1035 1.363 . S
C1041 C1036 1.379 . S
C1041 N1039 1.356 . S
N1042 C1034 1.356 . S
N1042 H1048 0.984 . S
N1042 H1049 0.984 . S
N1043 C1036 1.356 . S
N1043 H1046 0.984 . S
N1043 H1047 0.985 . S
H1044 N1039 0.984 . S
H1045 N1039 0.985 . S
H1046 N1043 0.984 . S
H1047 N1043 0.985 . S
H1048 N1042 0.984 . S
H1049 N1042 0.984 . S
H1050 N1038 0.984 . S
H1051 N1038 0.985 . S
C1052 C1053 1.363 . S
C1052 C1058 1.379 . S
C1052 N1060 1.356 . S
C1053 C1052 1.363 . S
C1053 C1059 1.363 . S
C1054 C1055 1.363 . S
C1054 C1059 1.379 . S
C1054 N1061 1.356 . S
C1055 C1054 1.363 . S
C1055 C1058 1.363 . S
N1056 C1058 1.356 . S
N1056 H1068 0.984 . S
N1056 H1069 0.985 . S
N1057 C1059 1.356 . S
N1057 H1062 0.984 . S
N1057 H1063 0.985 . S
C1058 C1052 1.379 . S
C1058 C1055 1.363 . S
C1058 N1056 1.356 . S
C1059 C1053 1.363 . S
C1059 C1054 1.379 . S
C1059 N1057 1.356 . S
N1060 C1052 1.356 . S
N1060 H1066 0.984 . S
N1060 H1067 0.984 . S
N1061 C1054 1.356 . S
N1061 H1064 0.984 . S
N1061 H1065 0.985 . S
H1062 N1057 0.984 . S
H1063 N1057 0.985 . S
H1064 N1061 0.984 . S
H1065 N1061 0.985 . S
H1066 N1060 0.984 . S
H1067 N1060 0.984 . S
H1068 N1056 0.984 . S
H1069 N1056 0.985 . S
C1070 C1071 1.363 . S
C1070 C1076 1.379 . S
C1070 N1078 1.356 . S
C1071 C1070 1.363 . S
C1071 C1077 1.363 . S
C1072 C1073 1.363 . S
C1072 C1077 1.379 . S
C1072 N1079 1.356 . S
C1073 C1072 1.363 . S
C1073 C1076 1.363 . S
N1074 C1076 1.356 . S
N1074 H1086 0.984 . S
N1074 H1087 0.985 . S
N1075 C1077 1.356 . S
N1075 H1080 0.984 . S
N1075 H1081 0.985 . S
C1076 C1070 1.379 . S
C1076 C1073 1.363 . S
C1076 N1074 1.356 . S
C1077 C1071 1.363 . S
C1077 C1072 1.379 . S
C1077 N1075 1.356 . S
N1078 C1070 1.356 . S
N1078 H1084 0.984 . S
N1078 H1085 0.984 . S
N1079 C1072 1.356 . S
N1079 H1082 0.984 . S
N1079 H1083 0.985 . S
H1080 N1075 0.984 . S
H1081 N1075 0.985 . S
H1082 N1079 0.984 . S
H1083 N1079 0.985 . S
H1084 N1078 0.984 . S
H1085 N1078 0.984 . S
H1086 N1074 0.984 . S
H1087 N1074 0.985 . S
C1088 C1089 1.363 . S
C1088 C1094 1.379 . S
C1088 N1096 1.356 . S
C1089 C1088 1.363 . S
C1089 C1095 1.363 . S
C1090 C1091 1.363 . S
C1090 C1095 1.379 . S
C1090 N1097 1.356 . S
C1091 C1090 1.363 . S
C1091 C1094 1.363 . S
N1092 C1094 1.356 . S
N1092 H1104 0.984 . S
N1092 H1105 0.985 . S
N1093 C1095 1.356 . S
N1093 H1098 0.984 . S
N1093 H1099 0.985 . S
C1094 C1088 1.379 . S
C1094 C1091 1.363 . S
C1094 N1092 1.356 . S
C1095 C1089 1.363 . S
C1095 C1090 1.379 . S
C1095 N1093 1.356 . S
N1096 C1088 1.356 . S
N1096 H1102 0.984 . S
N1096 H1103 0.984 . S
N1097 C1090 1.356 . S
N1097 H1100 0.984 . S
N1097 H1101 0.985 . S
H1098 N1093 0.984 . S
H1099 N1093 0.985 . S
H1100 N1097 0.984 . S
H1101 N1097 0.985 . S
H1102 N1096 0.984 . S
H1103 N1096 0.984 . S
H1104 N1092 0.984 . S
H1105 N1092 0.985 . S
C1106 C1107 1.363 . S
C1106 C1112 1.379 . S
C1106 N1114 1.356 . S
C1107 C1106 1.363 . S
C1107 C1113 1.363 . S
C1108 C1109 1.363 . S
C1108 C1113 1.379 . S
C1108 N1115 1.356 . S
C1109 C1108 1.363 . S
C1109 C1112 1.363 . S
N1110 C1112 1.356 . S
N1110 H1122 0.984 . S
N1110 H1123 0.985 . S
N1111 C1113 1.356 . S
N1111 H1116 0.984 . S
N1111 H1117 0.985 . S
C1112 C1106 1.379 . S
C1112 C1109 1.363 . S
C1112 N1110 1.356 . S
C1113 C1107 1.363 . S
C1113 C1108 1.379 . S
C1113 N1111 1.356 . S
N1114 C1106 1.356 . S
N1114 H1120 0.984 . S
N1114 H1121 0.984 . S
N1115 C1108 1.356 . S
N1115 H1118 0.984 . S
N1115 H1119 0.985 . S
H1116 N1111 0.984 . S
H1117 N1111 0.985 . S
H1118 N1115 0.984 . S
H1119 N1115 0.985 . S
H1120 N1114 0.984 . S
H1121 N1114 0.984 . S
H1122 N1110 0.984 . S
H1123 N1110 0.985 . S
C1124 C1125 1.363 1_554 S
C1124 C1130 1.379 . S
C1124 N1132 1.356 . S
C1125 C1124 1.363 1_556 S
C1125 C1131 1.363 . S
C1126 C1127 1.363 . S
C1126 C1131 1.379 . S
C1126 N1133 1.356 . S
C1127 C1126 1.363 . S
C1127 C1130 1.363 1_556 S
N1128 C1130 1.356 . S
N1128 H1140 0.984 . S
N1128 H1141 0.985 . S
N1129 C1131 1.356 . S
N1129 H1134 0.984 . S
N1129 H1135 0.985 . S
C1130 C1124 1.379 . S
C1130 C1127 1.363 1_554 S
C1130 N1128 1.356 . S
C1131 C1125 1.363 . S
C1131 C1126 1.379 . S
C1131 N1129 1.356 . S
N1132 C1124 1.356 . S
N1132 H1138 0.984 . S
N1132 H1139 0.984 . S
N1133 C1126 1.356 . S
N1133 H1136 0.984 . S
N1133 H1137 0.985 . S
H1134 N1129 0.984 . S
H1135 N1129 0.985 . S
H1136 N1133 0.984 . S
H1137 N1133 0.985 . S
H1138 N1132 0.984 . S
H1139 N1132 0.984 . S
H1140 N1128 0.984 . S
H1141 N1128 0.985 . S
C1142 C1143 1.363 . S
C1142 C1148 1.379 . S
C1142 N1150 1.356 . S
C1143 C1142 1.363 . S
C1143 C1149 1.363 . S
C1144 C1145 1.363 . S
C1144 C1149 1.379 . S
C1144 N1151 1.356 . S
C1145 C1144 1.363 . S
C1145 C1148 1.363 . S
N1146 C1148 1.356 . S
N1146 H1158 0.984 . S
N1146 H1159 0.985 . S
N1147 C1149 1.356 . S
N1147 H1152 0.984 . S
N1147 H1153 0.985 . S
C1148 C1142 1.379 . S
C1148 C1145 1.363 . S
C1148 N1146 1.356 . S
C1149 C1143 1.363 . S
C1149 C1144 1.379 . S
C1149 N1147 1.356 . S
N1150 C1142 1.356 . S
N1150 H1156 0.984 . S
N1150 H1157 0.984 . S
N1151 C1144 1.356 . S
N1151 H1154 0.984 . S
N1151 H1155 0.985 . S
H1152 N1147 0.984 . S
H1153 N1147 0.985 . S
H1154 N1151 0.984 . S
H1155 N1151 0.985 . S
H1156 N1150 0.984 . S
H1157 N1150 0.984 . S
H1158 N1146 0.984 . S
H1159 N1146 0.985 . S
C1160 C1161 1.363 . S
C1160 C1166 1.379 . S
C1160 N1168 1.356 . S
C1161 C1160 1.363 . S
C1161 C1167 1.363 . S
C1162 C1163 1.363 . S
C1162 C1167 1.379 . S
C1162 N1169 1.356 . S
C1163 C1162 1.363 . S
C1163 C1166 1.363 . S
N1164 C1166 1.356 . S
N1164 H1176 0.984 . S
N1164 H1177 0.985 . S
N1165 C1167 1.356 . S
N1165 H1170 0.984 . S
N1165 H1171 0.985 . S
C1166 C1160 1.379 . S
C1166 C1163 1.363 . S
C1166 N1164 1.356 . S
C1167 C1161 1.363 . S
C1167 C1162 1.379 . S
C1167 N1165 1.356 . S
N1168 C1160 1.356 . S
N1168 H1174 0.984 . S
N1168 H1175 0.984 . S
N1169 C1162 1.356 . S
N1169 H1172 0.984 . S
N1169 H1173 0.985 . S
H1170 N1165 0.984 . S
H1171 N1165 0.985 . S
H1172 N1169 0.984 . S
H1173 N1169 0.985 . S
H1174 N1168 0.984 . S
H1175 N1168 0.984 . S
H1176 N1164 0.984 . S
H1177 N1164 0.985 . S
C1178 C1179 1.363 . S
C1178 C1184 1.379 . S
C1178 N1186 1.356 . S
C1179 C1178 1.363 . S
C1179 C1185 1.363 . S
C1180 C1181 1.363 . S
C1180 C1185 1.379 . S
C1180 N1187 1.356 . S
C1181 C1180 1.363 . S
C1181 C1184 1.363 . S
N1182 C1184 1.356 . S
N1182 H1194 0.984 . S
N1182 H1195 0.985 . S
N1183 C1185 1.356 1_545 S
N1183 H1188 0.984 . S
N1183 H1189 0.985 . S
C1184 C1178 1.379 . S
C1184 C1181 1.363 . S
C1184 N1182 1.356 . S
C1185 C1179 1.363 . S
C1185 C1180 1.379 . S
C1185 N1183 1.356 1_565 S
N1186 C1178 1.356 . S
N1186 H1192 0.984 . S
N1186 H1193 0.984 . S
N1187 C1180 1.356 . S
N1187 H1190 0.984 . S
N1187 H1191 0.985 . S
H1188 N1183 0.984 . S
H1189 N1183 0.985 . S
H1190 N1187 0.984 . S
H1191 N1187 0.985 . S
H1192 N1186 0.984 . S
H1193 N1186 0.984 . S
H1194 N1182 0.984 . S
H1195 N1182 0.985 . S
C335 C186 1.163 . S
C333 C62 1.158 . S
C353 C199 1.624 . S
C351 C73 1.568 . S
C369 C84 1.474 . S
C371 C212 1.532 . S
C389 C225 1.364 . S
C387 C49 1.189 1_655 S
C407 C233 1.387 . S
C405 C118 1.395 . S
C425 C246 1.551 . S
C423 C137 1.334 . S
C441 C129 1.560 . S
C443 C259 1.553 . S
C461 C272 1.802 . S
C459 C106 1.774 . S
C477 C128 1.690 . S
C479 C290 1.729 . S
C497 C301 1.611 . S
C495 C104 1.453 . S
C513 C115 1.494 . S
C515 C285 1.701 . S
C533 C293 1.655 . S
C531 C139 1.650 . S
C549 C85 1.568 . S
C551 C316 1.556 . S
C567 C52 1.272 . S
C569 C306 1.253 . S
C585 C60 1.059 . S
C587 C311 1.113 . S
C603 C71 1.518 . S
C605 C314 1.598 . S
C621 C40 1.590 . S
C623 C223 1.689 . S
C639 C162 1.181 . S
C641 C215 1.155 . S
C659 C184 1.241 . S
C657 C173 1.269 . S
C677 C189 1.721 . S
C675 C93 1.556 . S
C693 C51 1.453 . S
C695 C236 1.475 . S
C713 C275 1.533 . S
C711 C126 1.396 . S
C731 C228 1.710 . S
C729 C107 1.703 . S
C749 C254 1.556 . S
C747 C140 1.561 . S
C767 C264 1.163 . S
C765 C161 1.158 . S
C783 C172 1.568 . S
C785 C277 1.620 . S
C801 C95 1.474 . S
C803 C238 1.532 . S
C821 C251 1.364 . S
C819 C148 1.189 . S
C837 C41 1.395 . S
C839 C207 1.387 . S
C857 C220 1.551 . S
C855 C5 1.334 . S
C875 C181 1.553 . S
C873 C19 1.560 . S
C893 C194 1.802 . S
C891 C29 1.774 1_455 S
C909 C18 1.690 . S
C911 C303 1.729 . S
C927 C27 1.453 . S
C929 C288 1.612 . S
C945 C38 1.494 . S
C947 C298 1.701 . S
C963 C7 1.650 . S
C965 C280 1.655 . S
C983 C329 1.556 . S
C981 C96 1.568 . S
C1001 C319 1.253 . S
C999 C151 1.271 . S
C1019 C324 1.113 . S
C1017 C159 1.059 . S
C1035 C170 1.518 . S
C1037 C327 1.601 . S
C1053 C117 1.590 . S
C1055 C249 1.689 . S
C1073 C241 1.155 . S
C1071 C63 1.181 . S
C1091 C262 1.240 . S
C1089 C74 1.268 . S
C1109 C267 1.721 . S
C1107 C82 1.556 . S
C1125 C150 1.453 . S
C1127 C210 1.478 . S
C1145 C197 1.533 . S
C1143 C16 1.396 . S
C1161 C30 1.703 . S
C1163 C202 1.710 . S
C1181 C176 1.556 . S
C1179 C8 1.561 . S
