# Generated by pormake.
# Topology pyr, (3,6)-cn, num edge types: 1
# Building blocks:
#     Node 0, Type 0, BuildingBlock: OLANEW_clean_sbu_2, # of connection points: 3
#     Node 1, Type 0, BuildingBlock: OLANEW_clean_sbu_2, # of connection points: 3
#     Node 2, Type 0, BuildingBlock: OLANEW_clean_sbu_2, # of connection points: 3
#     Node 3, Type 0, BuildingBlock: OLANEW_clean_sbu_2, # of connection points: 3
#     Node 4, Type 0, BuildingBlock: OLANEW_clean_sbu_2, # of connection points: 3
#     Node 5, Type 0, BuildingBlock: OLANEW_clean_sbu_2, # of connection points: 3
#     Node 6, Type 0, BuildingBlock: OLANEW_clean_sbu_2, # of connection points: 3
#     Node 7, Type 0, BuildingBlock: OLANEW_clean_sbu_2, # of connection points: 3
#     Node 8, Type 1, BuildingBlock: BETGAK_clean_sbu_0, # of connection points: 6
#     Node 9, Type 1, BuildingBlock: BETGAK_clean_sbu_0, # of connection points: 6
#     Node 10, Type 1, BuildingBlock: BETGAK_clean_sbu_0, # of connection points: 6
#     Node 11, Type 1, BuildingBlock: BETGAK_clean_sbu_0, # of connection points: 6
#     Edge 12, Type (0, 1), BuildingBlock: TEMPAE_clean_linker_10, # of connection points: 2
#     Edge 13, Type (0, 1), BuildingBlock: TEMPAE_clean_linker_10, # of connection points: 2
#     Edge 14, Type (0, 1), BuildingBlock: TEMPAE_clean_linker_10, # of connection points: 2
#     Edge 15, Type (0, 1), BuildingBlock: TEMPAE_clean_linker_10, # of connection points: 2
#     Edge 16, Type (0, 1), BuildingBlock: TEMPAE_clean_linker_10, # of connection points: 2
#     Edge 17, Type (0, 1), BuildingBlock: TEMPAE_clean_linker_10, # of connection points: 2
#     Edge 18, Type (0, 1), BuildingBlock: TEMPAE_clean_linker_10, # of connection points: 2
#     Edge 19, Type (0, 1), BuildingBlock: TEMPAE_clean_linker_10, # of connection points: 2
#     Edge 20, Type (0, 1), BuildingBlock: TEMPAE_clean_linker_10, # of connection points: 2
#     Edge 21, Type (0, 1), BuildingBlock: TEMPAE_clean_linker_10, # of connection points: 2
#     Edge 22, Type (0, 1), BuildingBlock: TEMPAE_clean_linker_10, # of connection points: 2
#     Edge 23, Type (0, 1), BuildingBlock: TEMPAE_clean_linker_10, # of connection points: 2
#     Edge 24, Type (0, 1), BuildingBlock: TEMPAE_clean_linker_10, # of connection points: 2
#     Edge 25, Type (0, 1), BuildingBlock: TEMPAE_clean_linker_10, # of connection points: 2
#     Edge 26, Type (0, 1), BuildingBlock: TEMPAE_clean_linker_10, # of connection points: 2
#     Edge 27, Type (0, 1), BuildingBlock: TEMPAE_clean_linker_10, # of connection points: 2
#     Edge 28, Type (0, 1), BuildingBlock: TEMPAE_clean_linker_10, # of connection points: 2
#     Edge 29, Type (0, 1), BuildingBlock: TEMPAE_clean_linker_10, # of connection points: 2
#     Edge 30, Type (0, 1), BuildingBlock: TEMPAE_clean_linker_10, # of connection points: 2
#     Edge 31, Type (0, 1), BuildingBlock: TEMPAE_clean_linker_10, # of connection points: 2
#     Edge 32, Type (0, 1), BuildingBlock: TEMPAE_clean_linker_10, # of connection points: 2
#     Edge 33, Type (0, 1), BuildingBlock: TEMPAE_clean_linker_10, # of connection points: 2
#     Edge 34, Type (0, 1), BuildingBlock: TEMPAE_clean_linker_10, # of connection points: 2
#     Edge 35, Type (0, 1), BuildingBlock: TEMPAE_clean_linker_10, # of connection points: 2
# Relax obj value: 0.127
# Max RMSD: 0.169
# Mean RMSD: 0.120
data_MOF--net-pyr--node1-OLANEW_clean_sbu_2--node2-BETGAK_clean_sbu_0--edge1-TEMPAE_clean_linker_10
_symmetry_space_group_name_H-M    P1
_symmetry_Int_Tables_number       1
_symmetry_cell_setting            triclinic
loop_
_symmetry_equiv_pos_as_xyz
'x, y, z'
_cell_length_a     41.035556
_cell_length_b     45.436048
_cell_length_c     40.18925
_cell_angle_alpha  95.715761
_cell_angle_beta   88.126166
_cell_angle_gamma 103.5353
loop_
_atom_site_label
_atom_site_type_symbol
_atom_site_fract_x
_atom_site_fract_y
_atom_site_fract_z
_atom_type_partial_charge
O0 O 0.38335 0.27568 0.13241 0.0
Cd1 Cd 0.37555 0.32805 0.14062 0.0
O2 O 0.34967 0.26302 0.17452 0.0
Cd3 Cd 0.32015 0.23422 0.21036 0.0
O4 O 0.28543 0.21089 0.24665 0.0
C5 C 0.28346 0.22364 0.27602 0.0
O6 O 0.30316 0.25051 0.28416 0.0
C7 C 0.36981 0.25593 0.15206 0.0
C8 C 0.31443 0.34007 0.12418 0.0
O9 O 0.33806 0.34052 0.10241 0.0
O10 O 0.31916 0.33265 0.1533 0.0
O11 O 0.4386 0.99191 0.66709 0.0
Cd12 Cd 0.44349 0.98887 0.60627 0.0
O13 O 0.38472 0.97518 0.65995 0.0
Cd14 Cd 0.33144 0.9587 0.67079 0.0
O15 O 0.28007 0.95663 0.65654 0.0
C16 C 0.27688 0.97943 0.64212 0.0
O17 O 0.30353 1.00149 0.63849 0.0
C18 C 0.40952 0.98323 0.67964 0.0
C19 C 0.44545 0.92896 0.5863 0.0
O20 O 0.47243 0.94948 0.59232 0.0
O21 O 0.41753 0.93712 0.58822 0.0
O22 O 0.70843 0.41442 0.86907 0.0
Cd23 Cd 0.66093 0.40228 0.82645 0.0
O24 O 0.69276 0.37608 0.90053 0.0
Cd25 Cd 0.68416 0.33864 0.93577 0.0
O26 O 0.65853 0.29723 0.96269 0.0
C27 C 0.66428 0.27072 0.95613 0.0
O28 O 0.68692 0.26722 0.93313 0.0
C29 C 0.71432 0.4002 0.89355 0.0
C30 C 0.6391 0.44024 0.7824 0.0
O31 O 0.6234 0.43327 0.8097 0.0
O32 O 0.66632 0.43121 0.77664 0.0
O33 O 0.91805 0.74025 0.37422 0.0
Cd34 Cd 0.89227 0.68801 0.34848 0.0
O35 O 0.87615 0.73721 0.41056 0.0
Cd36 Cd 0.84406 0.69206 0.39744 0.0
O37 O 0.7967 0.66375 0.41453 0.0
C38 C 0.77482 0.67841 0.4247 0.0
O39 O 0.78175 0.7079 0.4225 0.0
C40 C 0.90372 0.75208 0.39903 0.0
C41 C 0.91577 0.66204 0.28805 0.0
O42 O 0.89317 0.67734 0.28802 0.0
O43 O 0.92853 0.66033 0.3163 0.0
O44 O 0.71815 0.76333 0.79361 0.0
Cd45 Cd 0.6769 0.72428 0.81968 0.0
O46 O 0.70539 0.79933 0.82817 0.0
Cd47 Cd 0.7042 0.84464 0.8521 0.0
O48 O 0.68932 0.88177 0.88319 0.0
C49 C 0.68337 0.8786 0.91403 0.0
O50 O 0.68767 0.85388 0.92594 0.0
C51 C 0.72346 0.79133 0.80417 0.0
C52 C 0.71226 0.6914 0.85366 0.0
O53 O 0.70397 0.68341 0.82304 0.0
O54 O 0.7028 0.71435 0.86848 0.0
O55 O 0.6524 0.09726 0.50428 0.0
Cd56 Cd 0.66728 0.08523 0.55841 0.0
O57 O 0.67987 0.14486 0.51358 0.0
Cd58 Cd 0.69393 0.19187 0.50098 0.0
O59 O 0.68959 0.23798 0.49522 0.0
C60 C 0.68571 0.25485 0.52152 0.0
O61 O 0.68635 0.24435 0.55074 0.0
C62 C 0.66257 0.12349 0.49419 0.0
C63 C 0.73009 0.07205 0.55196 0.0
O64 O 0.70352 0.0519 0.54335 0.0
O65 O 0.72698 0.09837 0.56434 0.0
O66 O 0.41424 0.78311 0.23773 0.0
Cd67 Cd 0.40103 0.73085 0.26118 0.0
O68 O 0.37261 0.77917 0.2017 0.0
Cd69 Cd 0.33592 0.73378 0.19859 0.0
O70 O 0.28994 0.69811 0.18149 0.0
C71 C 0.28611 0.68753 0.15083 0.0
O72 O 0.31024 0.69719 0.12947 0.0
C73 C 0.39959 0.79452 0.21604 0.0
C74 C 0.42284 0.71079 0.32118 0.0
O75 O 0.44205 0.71492 0.29538 0.0
O76 O 0.39449 0.71795 0.31982 0.0
O77 O 0.15439 0.42485 0.7661 0.0
Cd78 Cd 0.17935 0.40484 0.71419 0.0
O79 O 0.12784 0.3811 0.78468 0.0
Cd80 Cd 0.13656 0.34735 0.74372 0.0
O81 O 0.12883 0.30256 0.71365 0.0
C82 C 0.09936 0.28915 0.70397 0.0
O83 O 0.07483 0.30288 0.71129 0.0
C84 C 0.13621 0.4101 0.78812 0.0
C85 C 0.24026 0.43997 0.68998 0.0
O86 O 0.21202 0.44575 0.68397 0.0
O87 O 0.23996 0.41833 0.70826 0.0
La88 La 0.01652 0.02972 0.52279 0.0
La89 La 1.00158 1.00428 0.58876 0.0
C90 C 0.01984 0.0584 0.47162 0.0
C91 C 0.04603 0.08135 0.45694 0.0
C92 C 0.0763 0.0938 0.47372 0.0
C93 C 0.10252 0.11317 0.45802 0.0
C94 C 0.09888 0.12025 0.42526 0.0
C95 C 0.06806 0.10838 0.40901 0.0
C96 C 0.04187 0.08906 0.42475 0.0
C97 C 0.06445 1.00719 0.54588 0.0
C98 C 0.03515 0.0754 0.58741 0.0
C99 C 0.99878 0.98572 0.64596 0.0
C100 C 0.97382 0.96287 0.66235 0.0
C101 C 0.94625 0.94509 0.64428 0.0
C102 C 0.91986 0.92669 0.66073 0.0
C103 C 0.92077 0.92549 0.69547 0.0
C104 C 0.94912 0.94225 0.7133 0.0
C105 C 0.97537 0.96102 0.69685 0.0
C106 C 0.94748 1.00898 0.55733 0.0
C107 C 0.98857 0.96067 0.52299 0.0
O108 O 0.02657 0.03172 0.4715 0.0
O109 O 0.00728 0.06681 0.50029 0.0
O110 O 0.05896 1.00754 0.51447 0.0
O111 O 0.04599 0.02168 0.56229 0.0
O112 O 0.03741 0.0713 0.55443 0.0
O113 O 0.02231 0.05249 0.60557 0.0
O114 O 0.98787 1.0093 0.63921 0.0
O115 O 0.01559 0.97555 0.62079 0.0
O116 O 0.94863 0.98811 0.5765 0.0
O117 O 0.97572 0.02727 0.5579 0.0
O118 O 1.00058 0.96371 0.5537 0.0
O119 O 0.98536 0.98477 0.50868 0.0
H120 H 0.07994 0.08792 0.49858 0.0
H121 H 0.12581 0.12221 0.47131 0.0
H122 H 0.06461 0.11305 0.38363 0.0
H123 H 0.01872 0.07939 0.41139 0.0
H124 H 0.94467 0.94612 0.61762 0.0
H125 H 0.89851 0.91366 0.64635 0.0
H126 H 0.95035 0.94175 0.74011 0.0
H127 H 0.99636 0.97479 0.7112 0.0
La128 La 0.5431 0.05518 0.116 0.0
La129 La 0.48308 0.02596 0.06517 0.0
C130 C 0.59256 0.08969 0.1459 0.0
C131 C 0.60367 0.09586 0.18081 0.0
C132 C 0.59797 0.07256 0.20224 0.0
C133 C 0.60695 0.07911 0.23583 0.0
C134 C 0.6215 0.10909 0.24865 0.0
C135 C 0.62726 0.13235 0.2271 0.0
C136 C 0.61849 0.12574 0.19339 0.0
C137 C 0.50233 1.00471 0.1377 0.0
C138 C 0.47445 0.0761 0.12187 0.0
C139 C 0.43402 0.99243 0.03375 0.0
C140 C 0.42717 0.98757 0.99775 0.0
C141 C 0.45222 0.99992 0.97516 0.0
C142 C 0.44526 0.99807 0.9412 0.0
C143 C 0.41316 0.98367 0.92912 0.0
C144 C 0.38834 0.97042 0.95164 0.0
C145 C 0.39527 0.97256 0.98583 0.0
C146 C 0.52449 0.07647 0.0443 0.0
C147 C 0.5536 1.00991 0.05322 0.0
O148 O 0.59307 0.06274 0.13097 0.0
O149 O 0.56506 0.09811 0.13986 0.0
O150 O 0.52789 0.02168 0.15381 0.0
O151 O 0.50055 0.01772 0.11182 0.0
O152 O 0.50728 0.08355 0.12664 0.0
O153 O 0.45921 0.05053 0.10443 0.0
O154 O 0.43431 0.01995 0.04731 0.0
O155 O 0.45953 0.98259 0.04329 0.0
O156 O 0.49813 0.06067 0.02844 0.0
O157 O 0.52586 0.06252 0.06943 0.0
O158 O 0.5208 1.0012 0.0486 0.0
O159 O 0.56768 0.03312 0.07484 0.0
H160 H 0.58615 0.04938 0.19318 0.0
H161 H 0.60178 0.06081 0.25198 0.0
H162 H 0.6386 0.15562 0.2363 0.0
H163 H 0.62285 0.14402 0.17723 0.0
H164 H 0.47705 1.01148 0.98388 0.0
H165 H 0.465 1.00802 0.92433 0.0
H166 H 0.3634 0.95921 0.94293 0.0
H167 H 0.37562 0.96303 1.00301 0.0
La168 La 0.50882 0.54078 0.53285 0.0
La169 La 0.5055 0.59147 0.58446 0.0
C170 C 0.52903 0.5016 0.49393 0.0
C171 C 0.54792 0.47828 0.49721 0.0
C172 C 0.54069 0.45137 0.47582 0.0
C173 C 0.55801 0.42871 0.47868 0.0
C174 C 0.58291 0.43263 0.50302 0.0
C175 C 0.59023 0.45974 0.52437 0.0
C176 C 0.57283 0.48238 0.52153 0.0
C177 C 0.45071 0.53496 0.5647 0.0
C178 C 0.53575 0.5402 0.60772 0.0
C179 C 0.48348 0.63033 0.6218 0.0
C180 C 0.4738 0.65866 0.61628 0.0
C181 C 0.4856 0.68479 0.63804 0.0
C182 C 0.47865 0.71243 0.63208 0.0
C183 C 0.45961 0.71444 0.60425 0.0
C184 C 0.4474 0.68808 0.58269 0.0
C185 C 0.45443 0.66044 0.58865 0.0
C186 C 0.56351 0.59684 0.55308 0.0
C187 C 0.48331 0.59496 0.50812 0.0
O188 O 0.49916 0.49683 0.50769 0.0
O189 O 0.54562 0.5299 0.49966 0.0
O190 O 0.45418 0.52648 0.53325 0.0
O191 O 0.47937 0.54497 0.5774 0.0
O192 O 0.53587 0.53001 0.57551 0.0
O193 O 0.52109 0.56256 0.61805 0.0
O194 O 0.51543 0.63098 0.61789 0.0
O195 O 0.46441 0.60498 0.60821 0.0
O196 O 0.56026 0.60677 0.58413 0.0
O197 O 0.53489 0.58693 0.54057 0.0
O198 O 0.48512 0.60645 0.53999 0.0
O199 O 0.49307 0.56952 0.49877 0.0
H200 H 0.52159 0.44786 0.4569 0.0
H201 H 0.5521 0.40819 0.46167 0.0
H202 H 0.60902 0.46322 0.54359 0.0
H203 H 0.57879 0.50299 0.53837 0.0
H204 H 0.50078 0.68393 0.65933 0.0
H205 H 0.48893 0.73239 0.64886 0.0
H206 H 0.43242 0.68879 0.56122 0.0
H207 H 0.44499 0.6406 0.57141 0.0
La208 La 1.00567 0.49839 0.04386 0.0
La209 La 0.99967 0.5555 0.01712 0.0
C210 C 0.02442 0.45134 0.05575 0.0
C211 C 0.0547 0.44212 0.06516 0.0
C212 C 0.05101 0.41497 0.08012 0.0
C213 C 0.07911 0.40432 0.08713 0.0
C214 C 0.11155 0.42063 0.07925 0.0
C215 C 0.11522 0.44833 0.06498 0.0
C216 C 0.08701 0.45897 0.05794 0.0
C217 C 0.9748 0.5332 0.08417 0.0
C218 C 0.0654 0.55889 0.05533 0.0
C219 C 0.98104 0.60178 1.00283 0.0
C220 C 0.95149 0.60792 0.98783 0.0
C221 C 0.94716 0.63771 0.99056 0.0
C222 C 0.91934 0.64416 0.97633 0.0
C223 C 0.8953 0.62083 0.95922 0.0
C224 C 0.89951 0.59086 0.95691 0.0
C225 C 0.92751 0.58447 0.97099 0.0
C226 C 0.03303 0.52213 0.97849 0.0
C227 C 0.93869 0.49591 1.0075 0.0
O228 O 0.01124 0.46794 0.07836 0.0
O229 O 0.02465 0.46075 0.026 0.0
O230 O 0.96677 0.50367 0.08156 0.0
O231 O 1.00001 0.54171 0.06588 0.0
O232 O 0.05646 0.52862 0.05311 0.0
O233 O 0.04462 0.57483 0.04617 0.0
O234 O 0.99933 0.58744 0.98297 0.0
O235 O 0.97626 0.59116 0.03213 0.0
O236 O 0.04082 0.55157 0.9822 0.0
O237 O 1.00652 0.51254 0.99479 0.0
O238 O 0.94897 0.52592 1.00815 0.0
O239 O 0.9584 0.4794 0.01769 0.0
H240 H 0.02628 0.40169 0.08592 0.0
H241 H 0.07539 0.38321 0.09866 0.0
H242 H 0.13981 0.46136 0.0584 0.0
H243 H 0.09039 0.47998 0.04626 0.0
H244 H 0.96535 0.65603 1.00365 0.0
H245 H 0.91651 0.66739 0.97891 0.0
H246 H 0.88154 0.57247 0.94366 0.0
H247 H 0.93056 0.56134 0.96844 0.0
C248 C 0.23617 0.18106 0.29074 0.0
C249 C 0.25822 0.20905 0.30015 0.0
C250 C 0.21121 0.16754 0.31278 0.0
C251 C 0.20824 0.18232 0.34506 0.0
C252 C 0.23074 0.21032 0.35497 0.0
C253 C 0.25546 0.22338 0.33237 0.0
C254 C 0.18769 0.13761 0.30133 0.0
C255 C 0.22841 0.22664 0.38927 0.0
C256 C 0.12284 0.16015 0.38665 0.0
C257 C 0.12765 0.13834 0.40719 0.0
C258 C 0.14918 0.17536 0.36707 0.0
C259 C 0.18109 0.16861 0.36809 0.0
C260 C 0.18643 0.14743 0.38965 0.0
C261 C 0.15963 0.13251 0.40891 0.0
C262 C 0.14256 0.19793 0.34449 0.0
C263 C 0.22013 0.13968 0.39145 0.0
H264 H 0.23813 0.1698 0.26593 0.0
H265 H 0.27244 0.24498 0.33989 0.0
H266 H 0.18875 0.12037 0.31872 0.0
H267 H 0.16152 0.14039 0.30169 0.0
H268 H 0.19378 0.12877 0.27568 0.0
H269 H 0.24844 0.24779 0.39346 0.0
H270 H 0.20371 0.23262 0.39252 0.0
H271 H 0.23019 0.2115 0.40881 0.0
H272 H 0.09831 0.16506 0.38559 0.0
H273 H 0.16345 0.11542 0.4244 0.0
H274 H 0.14563 0.18946 0.31798 0.0
H275 H 0.16102 0.21999 0.34922 0.0
H276 H 0.11692 0.20189 0.34804 0.0
H277 H 0.22598 0.12811 0.36713 0.0
H278 H 0.22086 0.12456 0.41137 0.0
H279 H 0.24014 0.16071 0.3962 0.0
C280 C 0.37624 0.98564 0.73308 0.0
C281 C 0.40553 0.9816 0.71616 0.0
C282 C 0.3732 0.98487 0.76797 0.0
C283 C 0.40012 0.97996 0.7862 0.0
C284 C 0.42949 0.97538 0.76908 0.0
C285 C 0.43188 0.97642 0.73436 0.0
C286 C 0.34165 0.99015 0.78541 0.0
C287 C 0.45871 0.96992 0.78754 0.0
C288 C 0.41584 1.00976 0.877 0.0
C289 C 0.40592 0.98307 0.89313 0.0
C290 C 0.41235 1.00932 0.84238 0.0
C291 C 0.39883 0.98143 0.82335 0.0
C292 C 0.38732 0.95463 0.83971 0.0
C293 C 0.39088 0.9558 0.87452 0.0
C294 C 0.42459 0.03847 0.826 0.0
C295 C 0.37287 0.92447 0.82025 0.0
H296 H 0.35614 0.99039 0.71929 0.0
H297 H 0.45451 0.97311 0.72135 0.0
H298 H 0.33133 0.97172 0.80165 0.0
H299 H 0.34757 1.01181 0.8018 0.0
H300 H 0.32207 0.99129 0.76746 0.0
H301 H 0.479 0.96521 0.77032 0.0
H302 H 0.46929 0.99017 0.80498 0.0
H303 H 0.45017 0.95041 0.80275 0.0
H304 H 0.42696 0.03098 0.89148 0.0
H305 H 0.38325 0.93513 0.88696 0.0
H306 H 0.40509 0.04195 0.8093 0.0
H307 H 0.44701 0.03702 0.81029 0.0
H308 H 0.43138 0.05864 0.84461 0.0
H309 H 0.35323 0.92669 0.80297 0.0
H310 H 0.36188 0.90649 0.83689 0.0
H311 H 0.3929 0.91705 0.80476 0.0
C312 C 0.59051 0.45524 0.75695 0.0
C313 C 0.62505 0.45641 0.75738 0.0
C314 C 0.57633 0.46845 0.73228 0.0
C315 C 0.59713 0.48417 0.70768 0.0
C316 C 0.63215 0.48601 0.70844 0.0
C317 C 0.64554 0.47176 0.73281 0.0
C318 C 0.53886 0.46507 0.73223 0.0
C319 C 0.65559 0.50318 0.68355 0.0
C320 C 0.55799 0.49672 0.62586 0.0
C321 C 0.55199 0.52594 0.63291 0.0
C322 C 0.5725 0.48289 0.64978 0.0
C323 C 0.58221 0.49882 0.68148 0.0
C324 C 0.57693 0.52863 0.68837 0.0
C325 C 0.56159 0.54157 0.66435 0.0
C326 C 0.57682 0.45091 0.64129 0.0
C327 C 0.58763 0.547 0.72121 0.0
H328 H 0.57428 0.44318 0.77545 0.0
H329 H 0.67222 0.4729 0.73279 0.0
H330 H 0.53295 0.48779 0.73566 0.0
H331 H 0.52855 0.45399 0.70771 0.0
H332 H 0.52594 0.45139 0.75227 0.0
H333 H 0.68226 0.50362 0.68816 0.0
H334 H 0.64917 0.49261 0.65781 0.0
H335 H 0.65268 0.52694 0.68469 0.0
H336 H 0.55067 0.48429 0.6018 0.0
H337 H 0.5575 0.56425 0.6701 0.0
H338 H 0.56231 0.4358 0.65933 0.0
H339 H 0.60352 0.45032 0.64351 0.0
H340 H 0.56835 0.44163 0.61557 0.0
H341 H 0.57338 0.53555 0.7421 0.0
H342 H 0.58357 0.5704 0.72212 0.0
H343 H 0.61459 0.54851 0.72545 0.0
C344 C 0.90844 0.6444 0.22671 0.0
C345 C 0.92538 0.64533 0.25675 0.0
C346 C 0.91558 0.6269 0.19762 0.0
C347 C 0.94039 0.6099 0.19839 0.0
C348 C 0.95804 0.61121 0.22845 0.0
C349 C 0.95029 0.6288 0.25719 0.0
C350 C 0.89617 0.6262 0.16617 0.0
C351 C 0.98486 0.59369 0.23039 0.0
C352 C 0.939 0.54119 0.13471 0.0
C353 C 0.96419 0.55309 0.11205 0.0
C354 C 0.93056 0.55953 0.16252 0.0
C355 C 0.94778 0.59053 0.16792 0.0
C356 C 0.97277 0.60277 0.14466 0.0
C357 C 0.9806 0.58396 0.11705 0.0
C358 C 0.90362 0.54557 0.18651 0.0
C359 C 0.99182 0.6356 0.14932 0.0
H360 H 0.88907 0.65696 0.22602 0.0
H361 H 0.96356 0.62928 0.28019 0.0
H362 H 0.91366 0.63349 0.14533 0.0
H363 H 0.88207 0.60261 0.15869 0.0
H364 H 0.87817 0.64115 0.16939 0.0
H365 H 0.99684 0.59763 0.25534 0.0
H366 H 0.97387 0.56899 0.22503 0.0
H367 H 1.00454 0.60031 0.21117 0.0
H368 H 0.92621 0.51738 0.13099 0.0
H369 H 1.00016 0.59334 0.0997 0.0
H370 H 0.88397 0.55878 0.18931 0.0
H371 H 0.91454 0.54643 0.21158 0.0
H372 H 0.89165 0.52153 0.17813 0.0
H373 H 0.9741 0.65078 0.15137 0.0
H374 H 0.00965 0.64192 0.1284 0.0
H375 H 1.00608 0.63981 0.17298 0.0
C376 C 0.39137 0.21487 0.11876 0.0
C377 C 0.37883 0.22593 0.14916 0.0
C378 C 0.40377 0.18841 0.11623 0.0
C379 C 0.40354 0.17243 0.1448 0.0
C380 C 0.38981 0.18282 0.17527 0.0
C381 C 0.37805 0.20965 0.1772 0.0
C382 C 0.41848 0.17832 0.08331 0.0
C383 C 0.38894 0.16641 0.20627 0.0
C384 C 0.42028 0.09327 0.12739 0.0
C385 C 0.45496 0.09922 0.13275 0.0
C386 C 0.40278 0.11656 0.13275 0.0
C387 C 0.42043 0.14657 0.14331 0.0
C388 C 0.45507 0.15239 0.15027 0.0
C389 C 0.47181 0.12867 0.14514 0.0
C390 C 0.36571 0.10932 0.12574 0.0
C391 C 0.47494 0.18406 0.16142 0.0
H392 H 0.39226 0.22738 0.097 0.0
H393 H 0.3699 0.21858 0.20115 0.0
H394 H 0.44571 0.18015 0.08617 0.0
H395 H 0.40673 0.15413 0.07564 0.0
H396 H 0.41505 0.19219 0.06301 0.0
H397 H 0.3734 0.17485 0.22654 0.0
H398 H 0.37888 0.14161 0.20043 0.0
H399 H 0.41478 0.1697 0.21568 0.0
H400 H 0.40693 0.07062 0.11796 0.0
H401 H 0.49856 0.13367 0.14944 0.0
H402 H 0.36129 0.12016 0.10328 0.0
H403 H 0.35207 0.11872 0.14696 0.0
H404 H 0.35496 0.08445 0.1213 0.0
H405 H 0.47536 0.19911 0.1412 0.0
H406 H 0.50122 0.18447 0.1677 0.0
H407 H 0.46292 0.19377 0.18363 0.0
C408 C 0.24105 1.00744 0.61506 0.0
C409 C 0.24426 0.98097 0.62856 0.0
C410 C 0.21071 1.00939 0.60146 0.0
C411 C 0.18285 0.9842 0.60117 0.0
C412 C 0.18585 0.95735 0.61468 0.0
C413 C 0.21654 0.95608 0.62834 0.0
C414 C 0.20843 0.03853 0.58754 0.0
C415 C 0.15666 0.93004 0.6147 0.0
C416 C 0.09886 1.00412 0.59455 0.0
C417 C 0.09301 0.99839 0.5601 0.0
C418 C 0.12735 0.99838 0.60848 0.0
C419 C 0.15047 0.98655 0.58741 0.0
C420 C 0.14392 0.97947 0.55277 0.0
C421 C 0.1152 0.98556 0.53947 0.0
C422 C 0.13342 1.00628 0.64551 0.0
C423 C 0.16787 0.96659 0.52958 0.0
H424 H 0.26229 0.0268 0.61516 0.0
H425 H 0.21887 0.9355 0.63861 0.0
H426 H 0.20111 0.03386 0.56086 0.0
H427 H 0.18874 0.04812 0.60119 0.0
H428 H 0.23248 0.05596 0.58947 0.0
H429 H 0.16325 0.9107 0.62564 0.0
H430 H 0.13539 0.93625 0.6292 0.0
H431 H 0.14785 0.92243 0.58877 0.0
H432 H 0.08162 1.01394 0.61058 0.0
H433 H 0.11053 0.98094 0.51285 0.0
H434 H 0.15572 0.02548 0.64947 0.0
H435 H 0.13877 0.98672 0.65697 0.0
H436 H 0.11168 1.01291 0.65881 0.0
H437 H 0.19182 0.98386 0.52788 0.0
H438 H 0.15765 0.95973 0.50399 0.0
H439 H 0.17372 0.94654 0.53959 0.0
C440 C 0.74992 0.40794 0.9459 0.0
C441 C 0.74679 0.41181 0.91199 0.0
C442 C 0.7802 0.42096 0.96331 0.0
C443 C 0.80851 0.43752 0.9463 0.0
C444 C 0.80563 0.44062 0.91183 0.0
C445 C 0.77492 0.42822 0.89539 0.0
C446 C 0.78165 0.41763 1.00016 0.0
C447 C 0.83508 0.45714 0.89215 0.0
C448 C 0.87982 0.49685 0.99139 0.0
C449 C 0.90472 0.4805 0.99358 0.0
C450 C 0.84816 0.48293 0.97731 0.0
C451 C 0.84109 0.45191 0.96424 0.0
C452 C 0.86611 0.43527 0.96652 0.0
C453 C 0.89728 0.44959 0.98143 0.0
C454 C 0.82237 0.50164 0.97609 0.0
C455 C 0.86041 0.40252 0.95213 0.0
H456 H 0.72839 0.39555 0.95909 0.0
H457 H 0.77303 0.43121 0.86916 0.0
H458 H 0.80204 0.40641 1.00508 0.0
H459 H 0.78751 0.44046 0.01432 0.0
H460 H 0.75769 0.40417 1.00988 0.0
H461 H 0.82942 0.45617 0.86517 0.0
H462 H 0.84248 0.48135 0.90227 0.0
H463 H 0.85698 0.44712 0.89464 0.0
H464 H 0.88503 0.52066 1.0008 0.0
H465 H 0.91627 0.4367 0.98266 0.0
H466 H 0.79838 0.48988 0.98734 0.0
H467 H 0.81731 0.5042 0.94973 0.0
H468 H 0.83065 0.52469 0.98949 0.0
H469 H 0.83744 0.38872 0.96316 0.0
H470 H 0.88185 0.39241 0.95662 0.0
H471 H 0.85647 0.40098 0.92476 0.0
C472 C 0.71921 0.68016 0.45102 0.0
C473 C 0.74307 0.66335 0.4409 0.0
C474 C 0.68992 0.66717 0.46826 0.0
C475 C 0.68424 0.63657 0.47569 0.0
C476 C 0.70783 0.61921 0.46496 0.0
C477 C 0.73698 0.6328 0.44765 0.0
C478 C 0.66534 0.68645 0.4791 0.0
C479 C 0.70258 0.58649 0.47235 0.0
C480 C 0.62541 0.61714 0.54942 0.0
C481 C 0.59489 0.6043 0.53336 0.0
C482 C 0.655 0.62664 0.53092 0.0
C483 C 0.65397 0.62325 0.4955 0.0
C484 C 0.62338 0.60929 0.47919 0.0
C485 C 0.59419 0.59999 0.49833 0.0
C486 C 0.68711 0.64132 0.54928 0.0
C487 C 0.62119 0.60526 0.44153 0.0
H488 H 0.72356 0.70373 0.44585 0.0
H489 H 0.75527 0.61964 0.43995 0.0
H490 H 0.6401 0.67532 0.46914 0.0
H491 H 0.66315 0.6887 0.50678 0.0
H492 H 0.67296 0.70959 0.47049 0.0
H493 H 0.72252 0.57571 0.46106 0.0
H494 H 0.70224 0.58524 0.49979 0.0
H495 H 0.67795 0.57314 0.46275 0.0
H496 H 0.62603 0.62036 0.57651 0.0
H497 H 0.57059 0.59015 0.48581 0.0
H498 H 0.69515 0.66556 0.54427 0.0
H499 H 0.70742 0.63011 0.54014 0.0
H500 H 0.68426 0.64021 0.57674 0.0
H501 H 0.62569 0.62787 0.43173 0.0
H502 H 0.59632 0.59162 0.43275 0.0
H503 H 0.64084 0.59397 0.43065 0.0
C504 C 0.2795 0.35947 0.08523 0.0
C505 C 0.28341 0.34955 0.11652 0.0
C506 C 0.25144 0.3706 0.07846 0.0
C507 C 0.22663 0.37183 0.10356 0.0
C508 C 0.23009 0.3613 0.13496 0.0
C509 C 0.25841 0.35029 0.14106 0.0
C510 C 0.24863 0.38152 0.04462 0.0
C511 C 0.20411 0.36209 0.16232 0.0
C512 C 0.17084 0.42745 0.09846 0.0
C513 C 0.14125 0.4083 0.08525 0.0
C514 C 0.19881 0.4159 0.10449 0.0
C515 C 0.19723 0.38445 0.09709 0.0
C516 C 0.16752 0.36504 0.08358 0.0
C517 C 0.13995 0.37719 0.07781 0.0
C518 C 0.23001 0.43734 0.11899 0.0
C519 C 0.16484 0.33142 0.0752 0.0
H520 H 0.29868 0.35903 0.06611 0.0
H521 H 0.26119 0.3427 0.16532 0.0
H522 H 0.22466 0.36912 0.03275 0.0
H523 H 0.24844 0.40602 0.04758 0.0
H524 H 0.26962 0.37833 0.02753 0.0
H525 H 0.2101 0.35243 0.18507 0.0
H526 H 0.20226 0.3859 0.16931 0.0
H527 H 0.17912 0.34913 0.15325 0.0
H528 H 0.17195 0.45144 0.1046 0.0
H529 H 0.11741 0.3623 0.06706 0.0
H530 H 0.25171 0.43655 0.102 0.0
H531 H 0.23586 0.43013 0.14324 0.0
H532 H 0.22734 0.46122 0.12306 0.0
H533 H 0.18448 0.32782 0.05664 0.0
H534 H 0.13996 0.31941 0.06488 0.0
H535 H 0.16915 0.32091 0.09793 0.0
C536 C 0.6191 0.24545 0.99609 0.0
C537 C 0.64517 0.24353 0.97295 0.0
C538 C 0.60032 0.21939 1.0105 0.0
C539 C 0.60754 0.19047 1.00169 0.0
C540 C 0.6343 0.1886 0.97896 0.0
C541 C 0.65262 0.21492 0.965 0.0
C542 C 0.57215 0.22268 0.0346 0.0
C543 C 0.64309 0.15852 0.96857 0.0
C544 C 0.57377 0.12231 0.05343 0.0
C545 C 0.54598 0.10592 0.03466 0.0
C546 C 0.59364 0.1501 0.04354 0.0
C547 C 0.58573 0.16184 0.01406 0.0
C548 C 0.55751 0.14533 0.99529 0.0
C549 C 0.53815 0.11782 1.00577 0.0
C550 C 0.62334 0.16673 0.06447 0.0
C551 C 0.5479 0.15652 0.9637 0.0
H552 H 0.61299 0.26726 1.00261 0.0
H553 H 0.67266 0.21287 0.94733 0.0
H554 H 0.54786 0.21002 0.02355 0.0
H555 H 0.57508 0.21264 0.05807 0.0
H556 H 0.57109 0.24682 0.04082 0.0
H557 H 0.66573 0.161 0.95221 0.0
H558 H 0.64753 0.14761 0.99095 0.0
H559 H 0.62179 0.14293 0.9549 0.0
H560 H 0.5801 0.11335 0.07571 0.0
H561 H 0.51674 0.10542 0.99104 0.0
H562 H 0.62154 0.19052 0.0717 0.0
H563 H 0.64676 0.16772 0.0496 0.0
H564 H 0.62524 0.15562 0.08751 0.0
H565 H 0.5439 0.17985 0.96906 0.0
H566 H 0.52475 0.14159 0.95241 0.0
H567 H 0.56857 0.15766 0.94503 0.0
C568 C 0.89919 0.79675 0.43925 0.0
C569 C 0.91841 0.78311 0.41552 0.0
C570 C 0.91211 0.82545 0.4562 0.0
C571 C 0.94535 0.84123 0.44958 0.0
C572 C 0.96502 0.82777 0.42562 0.0
C573 C 0.9513 0.79892 0.40876 0.0
C574 C 0.89004 0.83895 0.4812 0.0
C575 C 1.00061 0.8438 0.41793 0.0
C576 C 0.964 0.92692 0.47231 0.0
C577 C 0.97858 0.93007 0.50401 0.0
C578 C 0.95408 0.89835 0.45395 0.0
C579 C 0.95888 0.87205 0.46742 0.0
C580 C 0.97418 0.8751 0.49911 0.0
C581 C 0.98375 0.90401 0.51705 0.0
C582 C 0.93761 0.89622 0.42046 0.0
C583 C 0.97984 0.84769 0.51439 0.0
H584 H 0.87367 0.78495 0.44469 0.0
H585 H 0.96642 0.78863 0.39064 0.0
H586 H 0.90192 0.84354 0.50617 0.0
H587 H 0.88709 0.861 0.47364 0.0
H588 H 0.86475 0.82375 0.48355 0.0
H589 H 0.01277 0.83024 0.39899 0.0
H590 H 1.00102 0.86604 0.40854 0.0
H591 H 0.01565 0.84853 0.44111 0.0
H592 H 0.95991 0.94683 0.46184 0.0
H593 H 0.99517 0.90613 0.54137 0.0
H594 H 0.91135 0.88278 0.42169 0.0
H595 H 0.95081 0.8842 0.40098 0.0
H596 H 0.93741 0.91893 0.41258 0.0
H597 H 0.95535 0.8323 0.51967 0.0
H598 H 0.99413 0.85404 0.53805 0.0
H599 H 0.99367 0.8347 0.49654 0.0
C600 C 0.47669 0.88777 0.58299 0.0
C601 C 0.44633 0.89648 0.58051 0.0
C602 C 0.4774 0.85707 0.58288 0.0
C603 C 0.44703 0.83454 0.57996 0.0
C604 C 0.41656 0.84301 0.57525 0.0
C605 C 0.41655 0.87395 0.57571 0.0
C606 C 0.51042 0.84894 0.58795 0.0
C607 C 0.38376 0.81957 0.57157 0.0
C608 C 0.45593 0.75296 0.56472 0.0
C609 C 0.45342 0.74419 0.5974 0.0
C610 C 0.45259 0.78192 0.55836 0.0
C611 C 0.44694 0.80266 0.58537 0.0
C612 C 0.44327 0.79358 0.61825 0.0
C613 C 0.44638 0.76442 0.62382 0.0
C614 C 0.45627 0.79067 0.52293 0.0
C615 C 0.43715 0.81502 0.64774 0.0
H616 H 0.49984 0.90502 0.58655 0.0
H617 H 0.39299 0.88049 0.57354 0.0
H618 H 0.51024 0.83999 0.61268 0.0
H619 H 0.51416 0.83077 0.56866 0.0
H620 H 0.53206 0.8688 0.58692 0.0
H621 H 0.36316 0.82938 0.56372 0.0
H622 H 0.38631 0.80045 0.553 0.0
H623 H 0.37661 0.81001 0.59583 0.0
H624 H 0.46162 0.73756 0.5442 0.0
H625 H 0.44368 0.75757 0.64903 0.0
H626 H 0.47978 0.80831 0.52043 0.0
H627 H 0.43525 0.80062 0.51669 0.0
H628 H 0.457 0.77095 0.50443 0.0
H629 H 0.45874 0.835 0.65062 0.0
H630 H 0.43359 0.80403 0.6715 0.0
H631 H 0.41461 0.82361 0.64345 0.0
C632 C 0.76625 0.8412 0.80589 0.0
C633 C 0.75064 0.8134 0.78854 0.0
C634 C 0.79346 0.86107 0.7917 0.0
C635 C 0.80583 0.85259 0.75976 0.0
C636 C 0.79016 0.8246 0.74211 0.0
C637 C 0.76272 0.80545 0.75664 0.0
C638 C 0.8094 0.89085 0.81118 0.0
C639 C 0.80277 0.81458 0.7081 0.0
C640 C 0.85926 0.9111 0.70729 0.0
C641 C 0.8916 0.90763 0.71306 0.0
C642 C 0.83119 0.894 0.72314 0.0
C643 C 0.83556 0.87258 0.74487 0.0
C644 C 0.86825 0.86926 0.7511 0.0
C645 C 0.89594 0.88704 0.73531 0.0
C646 C 0.79683 0.89856 0.7163 0.0
C647 C 0.87387 0.84634 0.77373 0.0
H648 H 0.75811 0.84706 0.83099 0.0
H649 H 0.75094 0.78395 0.74308 0.0
H650 H 0.8355 0.89093 0.81762 0.0
H651 H 0.81063 0.90998 0.79568 0.0
H652 H 0.79543 0.895 0.83466 0.0
H653 H 0.78768 0.79217 0.69762 0.0
H654 H 0.80218 0.83164 0.69036 0.0
H655 H 0.82922 0.813 0.70986 0.0
H656 H 0.85595 0.92736 0.69044 0.0
H657 H 0.92095 0.88429 0.73966 0.0
H658 H 0.78402 0.90368 0.74018 0.0
H659 H 0.78124 0.87735 0.70368 0.0
H660 H 0.79791 0.91733 0.70026 0.0
H661 H 0.86268 0.85039 0.79877 0.0
H662 H 0.90091 0.84722 0.77677 0.0
H663 H 0.86121 0.82308 0.76333 0.0
C664 C 0.62509 0.11167 0.44489 0.0
C665 C 0.65507 0.12822 0.45976 0.0
C666 C 0.61949 0.11221 0.41076 0.0
C667 C 0.64474 0.12937 0.39099 0.0
C668 C 0.67447 0.14719 0.40617 0.0
C669 C 0.67931 0.14637 0.44046 0.0
C670 C 0.58729 0.09315 0.39557 0.0
C671 C 0.70205 0.16561 0.38587 0.0
C672 C 0.64603 0.09732 0.3004 0.0
C673 C 0.6298 0.11597 0.28462 0.0
C674 C 0.65201 0.10212 0.33486 0.0
C675 C 0.64131 0.12608 0.35404 0.0
C676 C 0.6258 0.14557 0.33811 0.0
C677 C 0.62028 0.14032 0.3035 0.0
C678 C 0.66897 0.08103 0.35088 0.0
C679 C 0.614 0.17127 0.35778 0.0
H680 H 0.60636 0.09759 0.45981 0.0
H681 H 0.70292 0.15849 0.45165 0.0
H682 H 0.57562 0.10689 0.38031 0.0
H683 H 0.59278 0.07403 0.37864 0.0
H684 H 0.56891 0.08359 0.41486 0.0
H685 H 0.72158 0.18109 0.40196 0.0
H686 H 0.71413 0.15003 0.36947 0.0
H687 H 0.69167 0.17933 0.36945 0.0
H688 H 0.65384 0.07876 0.28576 0.0
H689 H 0.6075 0.15464 0.29139 0.0
H690 H 0.6514 0.06805 0.36869 0.0
H691 H 0.69102 0.09434 0.36535 0.0
H692 H 0.6774 0.0646 0.33217 0.0
H693 H 0.59352 0.16186 0.37519 0.0
H694 H 0.60462 0.18569 0.34135 0.0
H695 H 0.63468 0.18581 0.37319 0.0
C696 C 0.40754 0.68379 0.3738 0.0
C697 C 0.4321 0.69633 0.35065 0.0
C698 C 0.41516 0.66791 0.40001 0.0
C699 C 0.44841 0.66476 0.40397 0.0
C700 C 0.47352 0.67817 0.38127 0.0
C701 C 0.46505 0.69337 0.35484 0.0
C702 C 0.38732 0.65376 0.42298 0.0
C703 C 0.50945 0.67626 0.38476 0.0
C704 C 0.47324 0.64359 0.4887 0.0
C705 C 0.47312 0.61256 0.48192 0.0
C706 C 0.4656 0.66082 0.46376 0.0
C707 C 0.45671 0.64675 0.4311 0.0
C708 C 0.45591 0.61529 0.42433 0.0
C709 C 0.46443 0.59879 0.44952 0.0
C710 C 0.46737 0.69424 0.47242 0.0
C711 C 0.446 0.59893 0.39033 0.0
H712 H 0.38194 0.6856 0.37088 0.0
H713 H 0.48436 0.70292 0.33734 0.0
H714 H 0.38481 0.6288 0.42131 0.0
H715 H 0.39341 0.66272 0.44929 0.0
H716 H 0.36283 0.65821 0.41683 0.0
H717 H 0.52641 0.68925 0.36647 0.0
H718 H 0.51837 0.68518 0.4104 0.0
H719 H 0.51123 0.65217 0.38102 0.0
H720 H 0.4801 0.65472 0.51343 0.0
H721 H 0.46408 0.5749 0.44379 0.0
H722 H 0.44179 0.69839 0.4725 0.0
H723 H 0.4824 0.70781 0.45337 0.0
H724 H 0.4786 0.70259 0.49737 0.0
H725 H 0.4209 0.60165 0.38369 0.0
H726 H 0.44532 0.57427 0.38927 0.0
H727 H 0.46399 0.60908 0.37109 0.0
C728 C 0.11297 0.45359 0.81388 0.0
C729 C 0.12313 0.42667 0.81742 0.0
C730 C 0.0981 0.46824 0.84074 0.0
C731 C 0.09442 0.45638 0.87235 0.0
C732 C 0.10563 0.4297 0.8763 0.0
C733 C 0.11919 0.41485 0.84865 0.0
C734 C 0.08562 0.49605 0.83505 0.0
C735 C 0.10344 0.41691 0.90977 0.0
C736 C 0.08328 0.51268 0.94649 0.0
C737 C 0.04885 0.5037 0.95325 0.0
C738 C 0.09864 0.49674 0.9212 0.0
C739 C 0.07885 0.47194 0.90118 0.0
C740 C 0.044 0.4627 0.90811 0.0
C741 C 0.02955 0.47832 0.93452 0.0
C742 C 0.13602 0.50665 0.91571 0.0
C743 C 0.02173 0.43705 0.88685 0.0
H744 H 0.11558 0.46261 0.78971 0.0
H745 H 0.12714 0.39412 0.85155 0.0
H746 H 0.05856 0.4923 0.84157 0.0
H747 H 0.09901 0.5159 0.85158 0.0
H748 H 0.08917 0.50174 0.80872 0.0
H749 H 0.11495 0.39702 0.90916 0.0
H750 H 0.11624 0.43468 0.92905 0.0
H751 H 0.07685 0.40978 0.91769 0.0
H752 H 0.09826 0.5322 0.96115 0.0
H753 H 1.00286 0.4715 0.93956 0.0
H754 H 0.14129 0.51576 0.891 0.0
H755 H 0.14762 0.48688 0.91553 0.0
H756 H 0.14823 0.52446 0.93529 0.0
H757 H 0.0229 0.4426 0.86049 0.0
H758 H 0.99518 0.43263 0.89546 0.0
H759 H 0.03068 0.41587 0.88717 0.0
C760 C 0.65955 0.89565 0.96873 0.0
C761 C 0.66911 0.90102 0.93562 0.0
C762 C 0.64328 0.91512 0.98864 0.0
C763 C 0.6365 0.94068 0.9752 0.0
C764 C 0.64732 0.94695 0.94229 0.0
C765 C 0.66344 0.92701 0.92285 0.0
C766 C 0.6321 0.90761 0.0236 0.0
C767 C 0.64072 0.97409 0.92715 0.0
C768 C 0.56064 0.96776 0.01061 0.0
C769 C 0.57524 0.99287 0.03286 0.0
C770 C 0.58036 0.95089 0.99152 0.0
C771 C 0.61565 0.95928 0.99459 0.0
C772 C 0.63068 0.98477 0.01666 0.0
C773 C 0.61028 1.00126 0.0356 0.0
C774 C 0.56332 0.9238 0.96832 0.0
C775 C 0.66825 0.99444 0.02047 0.0
H776 H 0.66394 0.87572 0.97889 0.0
H777 H 0.6709 0.93145 0.89737 0.0
H778 H 0.64099 0.92767 0.04185 0.0
H779 H 0.6043 0.90167 0.02502 0.0
H780 H 0.64145 0.88825 0.03121 0.0
H781 H 0.65334 0.97734 0.90246 0.0
H782 H 0.61336 0.97104 0.92381 0.0
H783 H 0.6494 0.99508 0.94415 0.0
H784 H 0.53362 0.96101 1.00818 0.0
H785 H 0.62185 0.02064 0.05262 0.0
H786 H 0.56931 0.90283 0.97582 0.0
H787 H 0.57278 0.92657 0.94237 0.0
H788 H 0.53564 0.92061 0.9684 0.0
H789 H 0.67769 0.97594 0.03001 0.0
H790 H 0.67609 0.01535 0.03788 0.0
H791 H 0.6804 0.99866 0.99578 0.0
C792 C 0.78957 0.08009 0.56929 0.0
C793 C 0.76333 0.06488 0.54805 0.0
C794 C 0.8205 0.07184 0.56749 0.0
C795 C 0.82549 0.04843 0.54322 0.0
C796 C 0.79965 0.03418 0.5205 0.0
C797 C 0.76864 0.04225 0.52353 0.0
C798 C 0.84719 0.0871 0.59267 0.0
C799 C 0.80438 1.00977 0.49367 0.0
C800 C 0.91551 0.04082 0.53066 0.0
C801 C 0.91589 0.01721 0.55043 0.0
C802 C 0.88585 0.05052 0.52685 0.0
C803 C 0.85635 0.03676 0.54399 0.0
C804 C 0.85654 1.01242 0.56332 0.0
C805 C 0.88619 1.00266 0.56589 0.0
C806 C 0.88626 0.07589 0.50519 0.0
C807 C 0.8258 0.99747 0.58248 0.0
H808 H 0.78547 0.09759 0.58827 0.0
H809 H 0.74849 0.03078 0.50674 0.0
H810 H 0.85175 0.07012 0.60891 0.0
H811 H 0.87118 0.09627 0.57975 0.0
H812 H 0.84002 0.10595 0.60877 0.0
H813 H 0.78356 1.0038 0.47541 0.0
H814 H 0.82835 0.01728 0.47998 0.0
H815 H 0.80569 0.98894 0.5053 0.0
H816 H 0.93846 0.05193 0.51855 0.0
H817 H 0.88641 0.98438 0.58122 0.0
H818 H 0.88295 0.09643 0.52103 0.0
H819 H 0.86511 0.06931 0.48738 0.0
H820 H 0.9101 0.08191 0.49082 0.0
H821 H 0.8181 1.01461 0.60075 0.0
H822 H 0.83015 0.97873 0.59624 0.0
H823 H 0.80459 0.98815 0.56517 0.0
C824 C 0.22692 0.65673 0.15996 0.0
C825 C 0.25447 0.66573 0.13856 0.0
C826 C 0.19655 0.63753 0.14777 0.0
C827 C 0.19343 0.62695 0.1133 0.0
C828 C 0.22145 0.63534 0.09181 0.0
C829 C 0.25142 0.65449 0.10462 0.0
C830 C 0.16745 0.62921 0.17165 0.0
C831 C 0.21949 0.62477 0.05494 0.0
C832 C 0.12118 0.56052 0.0819 0.0
C833 C 0.09839 0.57576 0.07012 0.0
C834 C 0.15196 0.57673 0.09633 0.0
C835 C 0.16034 0.60903 0.09913 0.0
C836 C 0.13738 0.62445 0.08733 0.0
C837 C 0.10692 0.60775 0.07308 0.0
C838 C 0.17558 0.55928 0.1085 0.0
C839 C 0.14506 0.65876 0.08955 0.0
H840 H 0.22885 0.66512 0.18619 0.0
H841 H 0.27241 0.66106 0.08772 0.0
H842 H 0.14666 0.63918 0.16476 0.0
H843 H 0.1578 0.60417 0.16986 0.0
H844 H 0.17442 0.63745 0.198 0.0
H845 H 0.24399 0.63169 0.04191 0.0
H846 H 0.21088 0.59965 0.05121 0.0
H847 H 0.20085 0.63444 0.04301 0.0
H848 H 0.11498 0.53588 0.07991 0.0
H849 H 0.0897 0.61997 0.06422 0.0
H850 H 0.18087 0.56614 0.13542 0.0
H851 H 0.19984 0.56479 0.09483 0.0
H852 H 0.1653 0.53429 0.10505 0.0
H853 H 0.14972 0.66833 0.11591 0.0
H854 H 0.12438 0.66739 0.07984 0.0
H855 H 0.16822 0.66742 0.07505 0.0
C856 C 0.30049 0.44447 0.6727 0.0
C857 C 0.27201 0.45671 0.67484 0.0
C858 C 0.32982 0.45867 0.65604 0.0
C859 C 0.33109 0.48618 0.64168 0.0
C860 C 0.30284 0.49924 0.64485 0.0
C861 C 0.27357 0.48421 0.66103 0.0
C862 C 0.35906 0.44362 0.6528 0.0
C863 C 0.30331 0.52885 0.63059 0.0
C864 C 0.41794 0.53241 0.61874 0.0
C865 C 0.4195 0.52432 0.58422 0.0
C866 C 0.38903 0.52091 0.63764 0.0
C867 C 0.36125 0.50028 0.62179 0.0
C868 C 0.36266 0.49233 0.58685 0.0
C869 C 0.39156 0.50466 0.56849 0.0
C870 C 0.38839 0.5305 0.67465 0.0
C871 C 0.33394 0.4701 0.56893 0.0
H872 H 0.29952 0.42317 0.68312 0.0
H873 H 0.25179 0.49396 0.66272 0.0
H874 H 0.36394 0.43743 0.626 0.0
H875 H 0.38207 0.45964 0.66288 0.0
H876 H 0.35452 0.42275 0.66616 0.0
H877 H 0.28043 0.53727 0.63746 0.0
H878 H 0.3256 0.54649 0.63962 0.0
H879 H 0.30525 0.52578 0.60293 0.0
H880 H 0.43947 0.54754 0.63107 0.0
H881 H 0.39258 0.49821 0.54184 0.0
H882 H 0.38697 0.51056 0.68893 0.0
H883 H 0.36575 0.53933 0.68126 0.0
H884 H 0.41095 0.5483 0.68276 0.0
H885 H 0.32937 0.44789 0.57963 0.0
H886 H 0.33883 0.46641 0.54166 0.0
H887 H 0.31063 0.47845 0.57258 0.0
C888 C 0.74314 0.68514 0.90413 0.0
C889 C 0.73417 0.67603 0.87066 0.0
C890 C 0.76704 0.67343 0.91937 0.0
C891 C 0.78241 0.65221 0.90063 0.0
C892 C 0.77228 0.6418 0.86736 0.0
C893 C 0.74821 0.6538 0.85278 0.0
C894 C 0.77701 0.6849 0.95501 0.0
C895 C 0.7881 0.61919 0.84659 0.0
C896 C 0.87116 0.65337 0.92501 0.0
C897 C 0.8663 0.62803 0.94341 0.0
C898 C 0.84408 0.66116 0.91061 0.0
C899 C 0.81127 0.64322 0.91478 0.0
C900 C 0.80619 0.61732 0.93292 0.0
C901 C 0.83384 0.60997 0.94697 0.0
C902 C 0.85059 0.68879 0.89117 0.0
C903 C 0.77155 0.59774 0.93795 0.0
H904 H 0.73226 0.70215 0.9182 0.0
H905 H 0.74134 0.64656 0.82693 0.0
H906 H 0.77628 0.66556 0.97005 0.0
H907 H 0.80315 0.6988 0.95544 0.0
H908 H 0.76045 0.69906 0.96715 0.0
H909 H 0.77514 0.61114 0.82239 0.0
H910 H 0.81472 0.62989 0.84133 0.0
H911 H 0.78778 0.59922 0.86049 0.0
H912 H 0.89629 0.66707 0.92172 0.0
H913 H 0.82997 0.59047 0.96137 0.0
H914 H 0.83716 0.70566 0.90319 0.0
H915 H 0.84081 0.68227 0.86541 0.0
H916 H 0.87769 0.6999 0.88961 0.0
H917 H 0.75579 0.61138 0.95239 0.0
H918 H 0.77202 0.57769 0.9515 0.0
H919 H 0.75932 0.58965 0.91345 0.0
C920 C 0.44885 0.83802 0.20381 0.0
C921 C 0.41408 0.82612 0.20598 0.0
C922 C 0.46227 0.86662 0.19142 0.0
C923 C 0.44059 0.88454 0.18187 0.0
C924 C 0.40548 0.87289 0.18487 0.0
C925 C 0.39278 0.84385 0.19621 0.0
C926 C 0.49978 0.87743 0.18799 0.0
C927 C 0.38118 0.89127 0.17636 0.0
C928 C 0.47808 0.97053 0.182 0.0
C929 C 0.48277 0.97463 0.14783 0.0
C930 C 0.46356 0.94179 0.1932 0.0
C931 C 0.45453 0.91576 0.16983 0.0
C932 C 0.45909 0.9198 0.13514 0.0
C933 C 0.47263 0.94916 0.12457 0.0
C934 C 0.45824 0.9393 0.23025 0.0
C935 C 0.45085 0.89288 0.10919 0.0
H936 H 0.46564 0.82451 0.21077 0.0
H937 H 0.36589 0.83508 0.19778 0.0
H938 H 0.5065 0.88253 0.16185 0.0
H939 H 0.50871 0.89882 0.20429 0.0
H940 H 0.51326 0.86037 0.19476 0.0
H941 H 0.35469 0.87957 0.18099 0.0
H942 H 0.38672 0.91365 0.19147 0.0
H943 H 0.38408 0.89577 0.14968 0.0
H944 H 0.48604 0.98999 0.20021 0.0
H945 H 0.47682 0.95189 0.09818 0.0
H946 H 0.47438 0.92525 0.23906 0.0
H947 H 0.43185 0.92777 0.23542 0.0
H948 H 0.46411 0.96187 0.24501 0.0
H949 H 0.46618 0.87649 0.11345 0.0
H950 H 0.45562 0.8996 0.08332 0.0
H951 H 0.42417 0.88085 0.11147 0.0
C952 C 0.05969 0.24456 0.67409 0.0
C953 C 0.09214 0.25808 0.68582 0.0
C954 C 0.05184 0.21494 0.65784 0.0
C955 C 0.07696 0.19817 0.65318 0.0
C956 C 0.10986 0.21172 0.66468 0.0
C957 C 0.11708 0.2415 0.68078 0.0
C958 C 0.01648 0.20152 0.64586 0.0
C959 C 0.13736 0.19462 0.66025 0.0
C960 C 0.04594 0.1119 0.63943 0.0
C961 C 0.04775 0.10652 0.60447 0.0
C962 C 0.05617 0.14144 0.65563 0.0
C963 C 0.0685 0.16637 0.63651 0.0
C964 C 0.07109 0.16103 0.6013 0.0
C965 C 0.06073 0.13126 0.58574 0.0
C966 C 0.05305 0.14607 0.69322 0.0
C967 C 0.08404 0.18688 0.57991 0.0
H968 H 0.0402 0.25709 0.67772 0.0
H969 H 0.14221 0.25165 0.68976 0.0
H970 H 0.01665 0.19475 0.61857 0.0
H971 H 1.00554 0.18069 0.65837 0.0
H972 H 0.99995 0.21767 0.65093 0.0
H973 H 0.16173 0.20844 0.67013 0.0
H974 H 0.13035 0.17362 0.67332 0.0
H975 H 0.14062 0.18754 0.63336 0.0
H976 H 0.03606 0.09305 0.65423 0.0
H977 H 0.06236 0.12749 0.55874 0.0
H978 H 0.03472 0.1602 0.70011 0.0
H979 H 0.07746 0.1585 0.70418 0.0
H980 H 0.04471 0.12423 0.70465 0.0
H981 H 0.0669 0.20259 0.58215 0.0
H982 H 0.08621 0.1788 0.55309 0.0
H983 H 0.10899 0.20015 0.58875 0.0
C984 C 0.66842 0.30104 0.54816 0.0
C985 C 0.6767 0.2843 0.51919 0.0
C986 C 0.65603 0.32708 0.54615 0.0
C987 C 0.65196 0.33666 0.51442 0.0
C988 C 0.66191 0.3208 0.48519 0.0
C989 C 0.67412 0.29477 0.48791 0.0
C990 C 0.64576 0.34344 0.57791 0.0
C991 C 0.65822 0.33051 0.45092 0.0
C992 C 0.58285 0.37791 0.50561 0.0
C993 C 0.60082 0.40826 0.50629 0.0
C994 C 0.59926 0.35447 0.5083 0.0
C995 C 0.63455 0.36153 0.51165 0.0
C996 C 0.65288 0.39214 0.51244 0.0
C997 C 0.63575 0.41519 0.50986 0.0
C998 C 0.57878 0.32213 0.50764 0.0
C999 C 0.69054 0.40047 0.51577 0.0
H1000 H 0.67051 0.29323 0.57245 0.0
H1001 H 0.6807 0.28211 0.4654 0.0
H1002 H 0.65711 0.36818 0.57872 0.0
H1003 H 0.61814 0.34053 0.57847 0.0
H1004 H 0.65325 0.33476 0.60068 0.0
H1005 H 0.67011 0.31764 0.43103 0.0
H1006 H 0.63122 0.32682 0.44514 0.0
H1007 H 0.66957 0.35514 0.45028 0.0
H1008 H 0.5558 0.37252 0.50333 0.0
H1009 H 0.64975 0.43862 0.51008 0.0
H1010 H 0.58271 0.31234 0.53099 0.0
H1011 H 0.58712 0.30792 0.4865 0.0
H1012 H 0.55153 0.32052 0.50502 0.0
H1013 H 0.69782 0.39262 0.5391 0.0
H1014 H 0.70105 0.42537 0.51616 0.0
H1015 H 0.70214 0.38882 0.49462 0.0
loop_
_geom_bond_atom_site_label_1
_geom_bond_atom_site_label_2
_geom_bond_distance
_geom_bond_site_symmetry_2
_ccdc_geom_bond_type
O0 Cd1 2.300 . S
O0 C7 1.275 . S
Cd1 O0 2.300 . S
Cd1 O9 2.381 . S
Cd1 O10 2.378 . S
O2 Cd3 2.385 . S
O2 C7 1.255 . S
Cd3 O2 2.385 . S
Cd3 O4 2.317 . S
O4 Cd3 2.317 . S
O4 C5 1.232 . S
C5 O4 1.232 . S
C5 O6 1.218 . S
O6 C5 1.218 . S
C7 O0 1.275 . S
C7 O2 1.255 . S
C8 O9 1.258 . S
C8 O10 1.256 . S
O9 Cd1 2.381 . S
O9 C8 1.258 . S
O10 Cd1 2.378 . S
O10 C8 1.256 . S
O11 Cd12 2.300 . S
O11 C18 1.275 . S
Cd12 O11 2.300 . S
Cd12 O20 2.381 . S
Cd12 O21 2.378 . S
O13 Cd14 2.385 . S
O13 C18 1.255 . S
Cd14 O13 2.385 . S
Cd14 O15 2.317 . S
O15 Cd14 2.317 . S
O15 C16 1.232 . S
C16 O15 1.232 . S
C16 O17 1.218 . S
O17 C16 1.218 . S
C18 O11 1.275 . S
C18 O13 1.255 . S
C19 O20 1.258 . S
C19 O21 1.256 . S
O20 Cd12 2.381 . S
O20 C19 1.258 . S
O21 Cd12 2.378 . S
O21 C19 1.256 . S
O22 Cd23 2.300 . S
O22 C29 1.275 . S
Cd23 O22 2.300 . S
Cd23 O31 2.381 . S
Cd23 O32 2.378 . S
O24 Cd25 2.385 . S
O24 C29 1.255 . S
Cd25 O24 2.385 . S
Cd25 O26 2.317 . S
O26 Cd25 2.317 . S
O26 C27 1.232 . S
C27 O26 1.232 . S
C27 O28 1.218 . S
O28 C27 1.218 . S
C29 O22 1.275 . S
C29 O24 1.255 . S
C30 O31 1.258 . S
C30 O32 1.256 . S
O31 Cd23 2.381 . S
O31 C30 1.258 . S
O32 Cd23 2.378 . S
O32 C30 1.256 . S
O33 Cd34 2.300 . S
O33 C40 1.275 . S
Cd34 O33 2.300 . S
Cd34 O42 2.381 . S
Cd34 O43 2.378 . S
O35 Cd36 2.385 . S
O35 C40 1.255 . S
Cd36 O35 2.385 . S
Cd36 O37 2.317 . S
O37 Cd36 2.317 . S
O37 C38 1.232 . S
C38 O37 1.232 . S
C38 O39 1.218 . S
O39 C38 1.218 . S
C40 O33 1.275 . S
C40 O35 1.255 . S
C41 O42 1.258 . S
C41 O43 1.256 . S
O42 Cd34 2.381 . S
O42 C41 1.258 . S
O43 Cd34 2.378 . S
O43 C41 1.256 . S
O44 Cd45 2.300 . S
O44 C51 1.275 . S
Cd45 O44 2.300 . S
Cd45 O53 2.381 . S
Cd45 O54 2.378 . S
O46 Cd47 2.385 . S
O46 C51 1.255 . S
Cd47 O46 2.385 . S
Cd47 O48 2.317 . S
O48 Cd47 2.317 . S
O48 C49 1.232 . S
C49 O48 1.232 . S
C49 O50 1.218 . S
O50 C49 1.218 . S
C51 O44 1.275 . S
C51 O46 1.255 . S
C52 O53 1.258 . S
C52 O54 1.256 . S
O53 Cd45 2.381 . S
O53 C52 1.258 . S
O54 Cd45 2.378 . S
O54 C52 1.256 . S
O55 Cd56 2.300 . S
O55 C62 1.275 . S
Cd56 O55 2.300 . S
Cd56 O64 2.381 . S
Cd56 O65 2.378 . S
O57 Cd58 2.385 . S
O57 C62 1.255 . S
Cd58 O57 2.385 . S
Cd58 O59 2.317 . S
O59 Cd58 2.317 . S
O59 C60 1.232 . S
C60 O59 1.232 . S
C60 O61 1.218 . S
O61 C60 1.218 . S
C62 O55 1.275 . S
C62 O57 1.255 . S
C63 O64 1.258 . S
C63 O65 1.256 . S
O64 Cd56 2.381 . S
O64 C63 1.258 . S
O65 Cd56 2.378 . S
O65 C63 1.256 . S
O66 Cd67 2.300 . S
O66 C73 1.275 . S
Cd67 O66 2.300 . S
Cd67 O75 2.381 . S
Cd67 O76 2.378 . S
O68 Cd69 2.385 . S
O68 C73 1.255 . S
Cd69 O68 2.385 . S
Cd69 O70 2.317 . S
O70 Cd69 2.317 . S
O70 C71 1.232 . S
C71 O70 1.232 . S
C71 O72 1.218 . S
O72 C71 1.218 . S
C73 O66 1.275 . S
C73 O68 1.255 . S
C74 O75 1.258 . S
C74 O76 1.256 . S
O75 Cd67 2.381 . S
O75 C74 1.258 . S
O76 Cd67 2.378 . S
O76 C74 1.256 . S
O77 Cd78 2.300 . S
O77 C84 1.275 . S
Cd78 O77 2.300 . S
Cd78 O86 2.381 . S
Cd78 O87 2.378 . S
O79 Cd80 2.385 . S
O79 C84 1.255 . S
Cd80 O79 2.385 . S
Cd80 O81 2.317 . S
O81 Cd80 2.317 . S
O81 C82 1.232 . S
C82 O81 1.232 . S
C82 O83 1.218 . S
O83 C82 1.218 . S
C84 O77 1.275 . S
C84 O79 1.255 . S
C85 O86 1.258 . S
C85 O87 1.256 . S
O86 Cd78 2.381 . S
O86 C85 1.258 . S
O87 Cd78 2.378 . S
O87 C85 1.256 . S
La88 C90 2.928 . S
La88 O108 2.521 . S
La88 O109 2.628 . S
La88 O110 2.542 1_545 S
La88 O111 2.757 1_545 S
La88 O112 2.470 . S
La88 O117 2.482 1_455 S
La88 O119 2.503 1_445 S
La89 C99 2.928 1_545 S
La89 O111 2.482 1_645 S
La89 O113 2.503 1_655 S
La89 O114 2.521 1_545 S
La89 O115 2.628 1_545 S
La89 O116 2.554 . S
La89 O117 2.757 . S
La89 O118 2.470 1_545 S
C90 La88 2.928 . S
C90 C91 1.503 . S
C90 O108 1.261 . S
C90 O109 1.243 . S
C91 C90 1.503 . S
C91 C92 1.394 . S
C91 C96 1.373 . S
C92 C91 1.394 . S
C92 C93 1.380 . S
C92 H120 0.930 . S
C93 C92 1.380 . S
C93 C94 1.376 . S
C93 H121 0.930 . S
C94 C93 1.376 . S
C94 C95 1.370 . S
C95 C94 1.370 . S
C95 C96 1.396 . S
C95 H122 0.929 . S
C96 C91 1.373 . S
C96 C95 1.396 . S
C96 H123 0.929 . S
C97 O110 1.246 . S
C97 O111 1.289 . S
C98 O112 1.258 . S
C98 O113 1.256 . S
C99 La89 2.928 1_565 S
C99 C100 1.503 . S
C99 O114 1.261 . S
C99 O115 1.243 . S
C100 C99 1.503 . S
C100 C101 1.394 . S
C100 C105 1.373 . S
C101 C100 1.394 . S
C101 C102 1.380 . S
C101 H124 0.930 . S
C102 C101 1.380 . S
C102 C103 1.376 . S
C102 H125 0.930 . S
C103 C102 1.376 . S
C103 C104 1.370 . S
C104 C103 1.370 . S
C104 C105 1.396 . S
C104 H126 0.929 . S
C105 C100 1.373 . S
C105 C104 1.396 . S
C105 H127 0.929 . S
C106 O116 1.240 . S
C106 O117 1.289 . S
C107 O118 1.258 . S
C107 O119 1.256 . S
O108 La88 2.521 . S
O108 C90 1.261 . S
O109 La88 2.628 . S
O109 C90 1.243 . S
O110 La88 2.542 1_565 S
O110 C97 1.246 . S
O111 La88 2.757 1_565 S
O111 La89 2.482 1_465 S
O111 C97 1.289 . S
O112 La88 2.470 . S
O112 C98 1.258 . S
O113 La89 2.503 1_455 S
O113 C98 1.256 . S
O114 La89 2.521 1_565 S
O114 C99 1.261 . S
O115 La89 2.628 1_565 S
O115 C99 1.243 . S
O116 La89 2.554 . S
O116 C106 1.240 . S
O117 La88 2.482 1_655 S
O117 La89 2.757 . S
O117 C106 1.289 . S
O118 La89 2.470 1_565 S
O118 C107 1.258 . S
O119 La88 2.503 1_665 S
O119 C107 1.256 . S
H120 C92 0.930 . S
H121 C93 0.930 . S
H122 C95 0.929 . S
H123 C96 0.929 . S
H124 C101 0.930 . S
H125 C102 0.930 . S
H126 C104 0.929 . S
H127 C105 0.929 . S
La128 C130 2.928 . S
La128 O148 2.521 . S
La128 O149 2.628 . S
La128 O150 2.554 1_545 S
La128 O151 2.757 . S
La128 O152 2.470 . S
La128 O157 2.482 . S
La128 O159 2.503 . S
La129 C139 2.928 1_544 S
La129 O151 2.482 . S
La129 O153 2.503 . S
La129 O154 2.521 1_554 S
La129 O155 2.628 1_544 S
La129 O156 2.554 . S
La129 O157 2.757 . S
La129 O158 2.477 . S
C130 La128 2.928 . S
C130 C131 1.503 . S
C130 O148 1.261 . S
C130 O149 1.243 . S
C131 C130 1.503 . S
C131 C132 1.394 . S
C131 C136 1.373 . S
C132 C131 1.394 . S
C132 C133 1.380 . S
C132 H160 0.930 . S
C133 C132 1.380 . S
C133 C134 1.376 . S
C133 H161 0.930 . S
C134 C133 1.376 . S
C134 C135 1.370 . S
C135 C134 1.370 . S
C135 C136 1.396 . S
C135 H162 0.929 . S
C136 C131 1.373 . S
C136 C135 1.396 . S
C136 H163 0.929 . S
C137 O150 1.240 . S
C137 O151 1.289 1_565 S
C138 O152 1.258 . S
C138 O153 1.256 . S
C139 La129 2.928 1_566 S
C139 C140 1.503 . S
C139 O154 1.261 1_565 S
C139 O155 1.243 . S
C140 C139 1.503 . S
C140 C141 1.394 . S
C140 C145 1.373 . S
C141 C140 1.394 . S
C141 C142 1.380 . S
C141 H164 0.930 1_565 S
C142 C141 1.380 . S
C142 C143 1.376 . S
C142 H165 0.930 . S
C143 C142 1.376 . S
C143 C144 1.370 . S
C144 C143 1.370 . S
C144 C145 1.396 . S
C144 H166 0.929 . S
C145 C140 1.373 . S
C145 C144 1.396 . S
C145 H167 0.929 . S
C146 O156 1.240 . S
C146 O157 1.289 . S
C147 O158 1.254 1_565 S
C147 O159 1.255 1_565 S
O148 La128 2.521 . S
O148 C130 1.261 . S
O149 La128 2.628 . S
O149 C130 1.243 . S
O150 La128 2.554 1_565 S
O150 C137 1.240 . S
O151 La128 2.757 . S
O151 La129 2.482 . S
O151 C137 1.289 1_545 S
O152 La128 2.470 . S
O152 C138 1.258 . S
O153 La129 2.503 . S
O153 C138 1.256 . S
O154 La129 2.521 1_556 S
O154 C139 1.261 1_545 S
O155 La129 2.628 1_566 S
O155 C139 1.243 . S
O156 La129 2.554 . S
O156 C146 1.240 . S
O157 La128 2.482 . S
O157 La129 2.757 . S
O157 C146 1.289 . S
O158 La129 2.477 . S
O158 C147 1.254 1_545 S
O159 La128 2.503 . S
O159 C147 1.255 1_545 S
H160 C132 0.930 . S
H161 C133 0.930 . S
H162 C135 0.929 . S
H163 C136 0.929 . S
H164 C141 0.930 1_545 S
H165 C142 0.930 . S
H166 C144 0.929 . S
H167 C145 0.929 . S
La168 C170 2.928 . S
La168 O188 2.521 . S
La168 O189 2.628 . S
La168 O190 2.554 . S
La168 O191 2.757 . S
La168 O192 2.470 . S
La168 O197 2.482 . S
La168 O199 2.503 . S
La169 C179 2.928 . S
La169 O191 2.482 . S
La169 O193 2.503 . S
La169 O194 2.521 . S
La169 O195 2.628 . S
La169 O196 2.554 . S
La169 O197 2.757 . S
La169 O198 2.470 . S
C170 La168 2.928 . S
C170 C171 1.503 . S
C170 O188 1.261 . S
C170 O189 1.243 . S
C171 C170 1.503 . S
C171 C172 1.394 . S
C171 C176 1.373 . S
C172 C171 1.394 . S
C172 C173 1.380 . S
C172 H200 0.930 . S
C173 C172 1.380 . S
C173 C174 1.376 . S
C173 H201 0.930 . S
C174 C173 1.376 . S
C174 C175 1.370 . S
C175 C174 1.370 . S
C175 C176 1.396 . S
C175 H202 0.929 . S
C176 C171 1.373 . S
C176 C175 1.396 . S
C176 H203 0.929 . S
C177 O190 1.240 . S
C177 O191 1.289 . S
C178 O192 1.258 . S
C178 O193 1.256 . S
C179 La169 2.928 . S
C179 C180 1.503 . S
C179 O194 1.261 . S
C179 O195 1.243 . S
C180 C179 1.503 . S
C180 C181 1.394 . S
C180 C185 1.373 . S
C181 C180 1.394 . S
C181 C182 1.380 . S
C181 H204 0.930 . S
C182 C181 1.380 . S
C182 C183 1.376 . S
C182 H205 0.930 . S
C183 C182 1.376 . S
C183 C184 1.370 . S
C184 C183 1.370 . S
C184 C185 1.396 . S
C184 H206 0.929 . S
C185 C180 1.373 . S
C185 C184 1.396 . S
C185 H207 0.929 . S
C186 O196 1.240 . S
C186 O197 1.289 . S
C187 O198 1.258 . S
C187 O199 1.256 . S
O188 La168 2.521 . S
O188 C170 1.261 . S
O189 La168 2.628 . S
O189 C170 1.243 . S
O190 La168 2.554 . S
O190 C177 1.240 . S
O191 La168 2.757 . S
O191 La169 2.482 . S
O191 C177 1.289 . S
O192 La168 2.470 . S
O192 C178 1.258 . S
O193 La169 2.503 . S
O193 C178 1.256 . S
O194 La169 2.521 . S
O194 C179 1.261 . S
O195 La169 2.628 . S
O195 C179 1.243 . S
O196 La169 2.554 . S
O196 C186 1.240 . S
O197 La168 2.482 . S
O197 La169 2.757 . S
O197 C186 1.289 . S
O198 La169 2.470 . S
O198 C187 1.258 . S
O199 La168 2.503 . S
O199 C187 1.256 . S
H200 C172 0.930 . S
H201 C173 0.930 . S
H202 C175 0.929 . S
H203 C176 0.929 . S
H204 C181 0.930 . S
H205 C182 0.930 . S
H206 C184 0.929 . S
H207 C185 0.929 . S
La208 C210 2.928 . S
La208 O228 2.521 . S
La208 O229 2.628 . S
La208 O230 2.554 1_455 S
La208 O231 2.757 1_455 S
La208 O232 2.470 . S
La208 O237 2.482 1_554 S
La208 O239 2.503 1_455 S
La209 C219 2.928 1_455 S
La209 O231 2.482 1_456 S
La209 O233 2.503 1_556 S
La209 O234 2.521 1_455 S
La209 O235 2.628 1_455 S
La209 O236 2.554 . S
La209 O237 2.757 . S
La209 O238 2.470 1_455 S
C210 La208 2.928 . S
C210 C211 1.503 . S
C210 O228 1.261 . S
C210 O229 1.243 . S
C211 C210 1.503 . S
C211 C212 1.394 . S
C211 C216 1.373 . S
C212 C211 1.394 . S
C212 C213 1.380 . S
C212 H240 0.930 . S
C213 C212 1.380 . S
C213 C214 1.376 . S
C213 H241 0.930 . S
C214 C213 1.376 . S
C214 C215 1.370 . S
C215 C214 1.370 . S
C215 C216 1.396 . S
C215 H242 0.929 . S
C216 C211 1.373 . S
C216 C215 1.396 . S
C216 H243 0.929 . S
C217 O230 1.240 . S
C217 O231 1.289 . S
C218 O232 1.258 . S
C218 O233 1.256 . S
C219 La209 2.928 1_655 S
C219 C220 1.503 . S
C219 O234 1.261 . S
C219 O235 1.243 . S
C220 C219 1.503 . S
C220 C221 1.394 . S
C220 C225 1.373 . S
C221 C220 1.394 . S
C221 C222 1.380 . S
C221 H244 0.930 . S
C222 C221 1.380 . S
C222 C223 1.376 . S
C222 H245 0.930 . S
C223 C222 1.376 . S
C223 C224 1.370 . S
C224 C223 1.370 . S
C224 C225 1.396 . S
C224 H246 0.929 . S
C225 C220 1.373 . S
C225 C224 1.396 . S
C225 H247 0.929 . S
C226 O236 1.240 . S
C226 O237 1.289 . S
C227 O238 1.258 . S
C227 O239 1.256 1_556 S
O228 La208 2.521 . S
O228 C210 1.261 . S
O229 La208 2.628 . S
O229 C210 1.243 . S
O230 La208 2.554 1_655 S
O230 C217 1.240 . S
O231 La208 2.757 1_655 S
O231 La209 2.482 1_654 S
O231 C217 1.289 . S
O232 La208 2.470 . S
O232 C218 1.258 . S
O233 La209 2.503 1_554 S
O233 C218 1.256 . S
O234 La209 2.521 1_655 S
O234 C219 1.261 . S
O235 La209 2.628 1_655 S
O235 C219 1.243 . S
O236 La209 2.554 . S
O236 C226 1.240 . S
O237 La208 2.482 1_556 S
O237 La209 2.757 . S
O237 C226 1.289 . S
O238 La209 2.470 1_655 S
O238 C227 1.258 . S
O239 La208 2.503 1_655 S
O239 C227 1.256 1_554 S
H240 C212 0.930 . S
H241 C213 0.930 . S
H242 C215 0.929 . S
H243 C216 0.929 . S
H244 C221 0.930 . S
H245 C222 0.930 . S
H246 C224 0.929 . S
H247 C225 0.929 . S
C248 C249 1.391 . S
C248 C250 1.394 . S
C248 H264 0.931 . S
C249 C248 1.391 . S
C249 C253 1.376 . S
C250 C248 1.394 . S
C250 C251 1.369 . S
C250 C254 1.531 . S
C251 C250 1.369 . S
C251 C252 1.410 . S
C251 C259 1.503 . S
C252 C251 1.410 . S
C252 C253 1.392 . S
C252 C255 1.511 . S
C253 C249 1.376 . S
C253 C252 1.392 . S
C253 H265 0.929 . S
C254 C250 1.531 . S
C254 H266 0.960 . S
C254 H267 0.962 . S
C254 H268 0.960 . S
C255 C252 1.511 . S
C255 H269 0.961 . S
C255 H270 0.961 . S
C255 H271 0.961 . S
C256 C257 1.370 . S
C256 C258 1.363 . S
C256 H272 0.931 . S
C257 C256 1.370 . S
C257 C261 1.408 . S
C258 C256 1.363 . S
C258 C259 1.370 . S
C258 C262 1.524 . S
C259 C251 1.503 . S
C259 C258 1.370 . S
C259 C260 1.403 . S
C260 C259 1.403 . S
C260 C261 1.404 . S
C260 C263 1.539 . S
C261 C257 1.408 . S
C261 C260 1.404 . S
C261 H273 0.930 . S
C262 C258 1.524 . S
C262 H274 0.956 . S
C262 H275 0.961 . S
C262 H276 0.961 . S
C263 C260 1.539 . S
C263 H277 0.958 . S
C263 H278 0.961 . S
C263 H279 0.960 . S
H264 C248 0.931 . S
H265 C253 0.929 . S
H266 C254 0.960 . S
H267 C254 0.962 . S
H268 C254 0.960 . S
H269 C255 0.961 . S
H270 C255 0.961 . S
H271 C255 0.961 . S
H272 C256 0.931 . S
H273 C261 0.930 . S
H274 C262 0.956 . S
H275 C262 0.961 . S
H276 C262 0.961 . S
H277 C263 0.958 . S
H278 C263 0.961 . S
H279 C263 0.960 . S
C280 C281 1.391 . S
C280 C282 1.394 . S
C280 H296 0.931 . S
C281 C280 1.391 . S
C281 C285 1.376 . S
C282 C280 1.394 . S
C282 C283 1.369 . S
C282 C286 1.531 . S
C283 C282 1.369 . S
C283 C284 1.410 . S
C283 C291 1.503 . S
C284 C283 1.410 . S
C284 C285 1.392 . S
C284 C287 1.511 . S
C285 C281 1.376 . S
C285 C284 1.392 . S
C285 H297 0.929 . S
C286 C282 1.531 . S
C286 H298 0.960 . S
C286 H299 0.962 . S
C286 H300 0.960 . S
C287 C284 1.511 . S
C287 H301 0.961 . S
C287 H302 0.961 . S
C287 H303 0.961 . S
C288 C289 1.370 . S
C288 C290 1.363 . S
C288 H304 0.931 . S
C289 C288 1.370 . S
C289 C293 1.408 . S
C290 C288 1.363 . S
C290 C291 1.370 . S
C290 C294 1.524 . S
C291 C283 1.503 . S
C291 C290 1.370 . S
C291 C292 1.403 . S
C292 C291 1.403 . S
C292 C293 1.404 . S
C292 C295 1.539 . S
C293 C289 1.408 . S
C293 C292 1.404 . S
C293 H305 0.930 . S
C294 C290 1.524 . S
C294 H306 0.956 . S
C294 H307 0.961 . S
C294 H308 0.961 . S
C295 C292 1.539 . S
C295 H309 0.958 . S
C295 H310 0.961 . S
C295 H311 0.960 . S
H296 C280 0.931 . S
H297 C285 0.929 . S
H298 C286 0.960 . S
H299 C286 0.962 . S
H300 C286 0.960 . S
H301 C287 0.961 . S
H302 C287 0.961 . S
H303 C287 0.961 . S
H304 C288 0.931 . S
H305 C293 0.930 . S
H306 C294 0.956 . S
H307 C294 0.961 . S
H308 C294 0.961 . S
H309 C295 0.958 . S
H310 C295 0.961 . S
H311 C295 0.960 . S
C312 C313 1.391 . S
C312 C314 1.394 . S
C312 H328 0.931 . S
C313 C312 1.391 . S
C313 C317 1.376 . S
C314 C312 1.394 . S
C314 C315 1.369 . S
C314 C318 1.531 . S
C315 C314 1.369 . S
C315 C316 1.410 . S
C315 C323 1.503 . S
C316 C315 1.410 . S
C316 C317 1.392 . S
C316 C319 1.511 . S
C317 C313 1.376 . S
C317 C316 1.392 . S
C317 H329 0.929 . S
C318 C314 1.531 . S
C318 H330 0.960 . S
C318 H331 0.962 . S
C318 H332 0.960 . S
C319 C316 1.511 . S
C319 H333 0.961 . S
C319 H334 0.961 . S
C319 H335 0.961 . S
C320 C321 1.370 . S
C320 C322 1.363 . S
C320 H336 0.931 . S
C321 C320 1.370 . S
C321 C325 1.408 . S
C322 C320 1.363 . S
C322 C323 1.370 . S
C322 C326 1.524 . S
C323 C315 1.503 . S
C323 C322 1.370 . S
C323 C324 1.403 . S
C324 C323 1.403 . S
C324 C325 1.404 . S
C324 C327 1.539 . S
C325 C321 1.408 . S
C325 C324 1.404 . S
C325 H337 0.930 . S
C326 C322 1.524 . S
C326 H338 0.956 . S
C326 H339 0.961 . S
C326 H340 0.961 . S
C327 C324 1.539 . S
C327 H341 0.958 . S
C327 H342 0.961 . S
C327 H343 0.960 . S
H328 C312 0.931 . S
H329 C317 0.929 . S
H330 C318 0.960 . S
H331 C318 0.962 . S
H332 C318 0.960 . S
H333 C319 0.961 . S
H334 C319 0.961 . S
H335 C319 0.961 . S
H336 C320 0.931 . S
H337 C325 0.930 . S
H338 C326 0.956 . S
H339 C326 0.961 . S
H340 C326 0.961 . S
H341 C327 0.958 . S
H342 C327 0.961 . S
H343 C327 0.960 . S
C344 C345 1.391 . S
C344 C346 1.394 . S
C344 H360 0.931 . S
C345 C344 1.391 . S
C345 C349 1.376 . S
C346 C344 1.394 . S
C346 C347 1.369 . S
C346 C350 1.531 . S
C347 C346 1.369 . S
C347 C348 1.410 . S
C347 C355 1.503 . S
C348 C347 1.410 . S
C348 C349 1.392 . S
C348 C351 1.511 . S
C349 C345 1.376 . S
C349 C348 1.392 . S
C349 H361 0.929 . S
C350 C346 1.531 . S
C350 H362 0.960 . S
C350 H363 0.962 . S
C350 H364 0.960 . S
C351 C348 1.511 . S
C351 H365 0.961 . S
C351 H366 0.961 . S
C351 H367 0.961 1_655 S
C352 C353 1.370 . S
C352 C354 1.363 . S
C352 H368 0.931 . S
C353 C352 1.370 . S
C353 C357 1.408 . S
C354 C352 1.363 . S
C354 C355 1.370 . S
C354 C358 1.524 . S
C355 C347 1.503 . S
C355 C354 1.370 . S
C355 C356 1.403 . S
C356 C355 1.403 . S
C356 C357 1.404 . S
C356 C359 1.527 1_655 S
C357 C353 1.408 . S
C357 C356 1.404 . S
C357 H369 0.930 1_655 S
C358 C354 1.524 . S
C358 H370 0.956 . S
C358 H371 0.961 . S
C358 H372 0.961 . S
C359 C356 1.527 1_455 S
C359 H373 0.939 1_455 S
C359 H374 0.994 . S
C359 H375 0.960 . S
H360 C344 0.931 . S
H361 C349 0.929 . S
H362 C350 0.960 . S
H363 C350 0.962 . S
H364 C350 0.960 . S
H365 C351 0.961 . S
H366 C351 0.961 . S
H367 C351 0.961 1_455 S
H368 C352 0.931 . S
H369 C357 0.930 1_455 S
H370 C358 0.956 . S
H371 C358 0.961 . S
H372 C358 0.961 . S
H373 C359 0.939 1_655 S
H374 C359 0.994 . S
H375 C359 0.960 . S
C376 C377 1.391 . S
C376 C378 1.394 . S
C376 H392 0.931 . S
C377 C376 1.391 . S
C377 C381 1.376 . S
C378 C376 1.394 . S
C378 C379 1.369 . S
C378 C382 1.531 . S
C379 C378 1.369 . S
C379 C380 1.410 . S
C379 C387 1.503 . S
C380 C379 1.410 . S
C380 C381 1.392 . S
C380 C383 1.511 . S
C381 C377 1.376 . S
C381 C380 1.392 . S
C381 H393 0.929 . S
C382 C378 1.531 . S
C382 H394 0.960 . S
C382 H395 0.962 . S
C382 H396 0.960 . S
C383 C380 1.511 . S
C383 H397 0.961 . S
C383 H398 0.961 . S
C383 H399 0.961 . S
C384 C385 1.370 . S
C384 C386 1.363 . S
C384 H400 0.931 . S
C385 C384 1.370 . S
C385 C389 1.408 . S
C386 C384 1.363 . S
C386 C387 1.370 . S
C386 C390 1.524 . S
C387 C379 1.503 . S
C387 C386 1.370 . S
C387 C388 1.403 . S
C388 C387 1.403 . S
C388 C389 1.404 . S
C388 C391 1.539 . S
C389 C385 1.408 . S
C389 C388 1.404 . S
C389 H401 0.930 . S
C390 C386 1.524 . S
C390 H402 0.956 . S
C390 H403 0.961 . S
C390 H404 0.961 . S
C391 C388 1.539 . S
C391 H405 0.958 . S
C391 H406 0.961 . S
C391 H407 0.960 . S
H392 C376 0.931 . S
H393 C381 0.929 . S
H394 C382 0.960 . S
H395 C382 0.962 . S
H396 C382 0.960 . S
H397 C383 0.961 . S
H398 C383 0.961 . S
H399 C383 0.961 . S
H400 C384 0.931 . S
H401 C389 0.930 . S
H402 C390 0.956 . S
H403 C390 0.961 . S
H404 C390 0.961 . S
H405 C391 0.958 . S
H406 C391 0.961 . S
H407 C391 0.960 . S
C408 C409 1.391 . S
C408 C410 1.394 . S
C408 H424 0.931 . S
C409 C408 1.391 . S
C409 C413 1.376 . S
C410 C408 1.394 . S
C410 C411 1.369 . S
C410 C414 1.531 . S
C411 C410 1.369 . S
C411 C412 1.410 . S
C411 C419 1.503 . S
C412 C411 1.410 . S
C412 C413 1.392 . S
C412 C415 1.511 . S
C413 C409 1.376 . S
C413 C412 1.392 . S
C413 H425 0.929 . S
C414 C410 1.531 . S
C414 H426 0.960 . S
C414 H427 0.962 . S
C414 H428 0.960 . S
C415 C412 1.511 . S
C415 H429 0.961 . S
C415 H430 0.961 . S
C415 H431 0.961 . S
C416 C417 1.370 . S
C416 C418 1.363 . S
C416 H432 0.931 1_565 S
C417 C416 1.370 . S
C417 C421 1.408 . S
C418 C416 1.363 . S
C418 C419 1.370 . S
C418 C422 1.524 . S
C419 C411 1.503 . S
C419 C418 1.370 . S
C419 C420 1.403 . S
C420 C419 1.403 . S
C420 C421 1.404 . S
C420 C423 1.539 . S
C421 C417 1.408 . S
C421 C420 1.404 . S
C421 H433 0.930 . S
C422 C418 1.524 . S
C422 H434 0.956 . S
C422 H435 0.961 . S
C422 H436 0.961 1_565 S
C423 C420 1.539 . S
C423 H437 0.958 . S
C423 H438 0.961 . S
C423 H439 0.960 . S
H424 C408 0.931 . S
H425 C413 0.929 . S
H426 C414 0.960 . S
H427 C414 0.962 . S
H428 C414 0.960 . S
H429 C415 0.961 . S
H430 C415 0.961 . S
H431 C415 0.961 . S
H432 C416 0.931 1_545 S
H433 C421 0.930 . S
H434 C422 0.956 . S
H435 C422 0.961 . S
H436 C422 0.961 1_545 S
H437 C423 0.958 . S
H438 C423 0.961 . S
H439 C423 0.960 . S
C440 C441 1.391 . S
C440 C442 1.394 . S
C440 H456 0.931 . S
C441 C440 1.391 . S
C441 C445 1.376 . S
C442 C440 1.394 . S
C442 C443 1.369 . S
C442 C446 1.531 . S
C443 C442 1.369 . S
C443 C444 1.410 . S
C443 C451 1.503 . S
C444 C443 1.410 . S
C444 C445 1.392 . S
C444 C447 1.511 . S
C445 C441 1.376 . S
C445 C444 1.392 . S
C445 H457 0.929 . S
C446 C442 1.531 . S
C446 H458 0.960 . S
C446 H459 0.962 . S
C446 H460 0.960 . S
C447 C444 1.511 . S
C447 H461 0.961 . S
C447 H462 0.961 . S
C447 H463 0.961 . S
C448 C449 1.370 . S
C448 C450 1.363 . S
C448 H464 0.931 . S
C449 C448 1.370 . S
C449 C453 1.408 . S
C450 C448 1.363 . S
C450 C451 1.370 . S
C450 C454 1.524 . S
C451 C443 1.503 . S
C451 C450 1.370 . S
C451 C452 1.403 . S
C452 C451 1.403 . S
C452 C453 1.404 . S
C452 C455 1.539 . S
C453 C449 1.408 . S
C453 C452 1.404 . S
C453 H465 0.930 . S
C454 C450 1.524 . S
C454 H466 0.956 . S
C454 H467 0.961 . S
C454 H468 0.961 . S
C455 C452 1.539 . S
C455 H469 0.958 . S
C455 H470 0.961 . S
C455 H471 0.960 . S
H456 C440 0.931 . S
H457 C445 0.929 . S
H458 C446 0.960 . S
H459 C446 0.962 . S
H460 C446 0.960 . S
H461 C447 0.961 . S
H462 C447 0.961 . S
H463 C447 0.961 . S
H464 C448 0.931 . S
H465 C453 0.930 . S
H466 C454 0.956 . S
H467 C454 0.961 . S
H468 C454 0.961 . S
H469 C455 0.958 . S
H470 C455 0.961 . S
H471 C455 0.960 . S
C472 C473 1.391 . S
C472 C474 1.394 . S
C472 H488 0.931 . S
C473 C472 1.391 . S
C473 C477 1.376 . S
C474 C472 1.394 . S
C474 C475 1.369 . S
C474 C478 1.531 . S
C475 C474 1.369 . S
C475 C476 1.410 . S
C475 C483 1.503 . S
C476 C475 1.410 . S
C476 C477 1.392 . S
C476 C479 1.511 . S
C477 C473 1.376 . S
C477 C476 1.392 . S
C477 H489 0.929 . S
C478 C474 1.531 . S
C478 H490 0.960 . S
C478 H491 0.962 . S
C478 H492 0.960 . S
C479 C476 1.511 . S
C479 H493 0.961 . S
C479 H494 0.961 . S
C479 H495 0.961 . S
C480 C481 1.370 . S
C480 C482 1.363 . S
C480 H496 0.931 . S
C481 C480 1.370 . S
C481 C485 1.408 . S
C482 C480 1.363 . S
C482 C483 1.370 . S
C482 C486 1.524 . S
C483 C475 1.503 . S
C483 C482 1.370 . S
C483 C484 1.403 . S
C484 C483 1.403 . S
C484 C485 1.404 . S
C484 C487 1.539 . S
C485 C481 1.408 . S
C485 C484 1.404 . S
C485 H497 0.930 . S
C486 C482 1.524 . S
C486 H498 0.956 . S
C486 H499 0.961 . S
C486 H500 0.961 . S
C487 C484 1.539 . S
C487 H501 0.958 . S
C487 H502 0.961 . S
C487 H503 0.960 . S
H488 C472 0.931 . S
H489 C477 0.929 . S
H490 C478 0.960 . S
H491 C478 0.962 . S
H492 C478 0.960 . S
H493 C479 0.961 . S
H494 C479 0.961 . S
H495 C479 0.961 . S
H496 C480 0.931 . S
H497 C485 0.930 . S
H498 C486 0.956 . S
H499 C486 0.961 . S
H500 C486 0.961 . S
H501 C487 0.958 . S
H502 C487 0.961 . S
H503 C487 0.960 . S
C504 C505 1.391 . S
C504 C506 1.394 . S
C504 H520 0.931 . S
C505 C504 1.391 . S
C505 C509 1.376 . S
C506 C504 1.394 . S
C506 C507 1.369 . S
C506 C510 1.531 . S
C507 C506 1.369 . S
C507 C508 1.410 . S
C507 C515 1.503 . S
C508 C507 1.410 . S
C508 C509 1.392 . S
C508 C511 1.511 . S
C509 C505 1.376 . S
C509 C508 1.392 . S
C509 H521 0.929 . S
C510 C506 1.531 . S
C510 H522 0.960 . S
C510 H523 0.962 . S
C510 H524 0.960 . S
C511 C508 1.511 . S
C511 H525 0.961 . S
C511 H526 0.961 . S
C511 H527 0.961 . S
C512 C513 1.370 . S
C512 C514 1.363 . S
C512 H528 0.931 . S
C513 C512 1.370 . S
C513 C517 1.408 . S
C514 C512 1.363 . S
C514 C515 1.370 . S
C514 C518 1.524 . S
C515 C507 1.503 . S
C515 C514 1.370 . S
C515 C516 1.403 . S
C516 C515 1.403 . S
C516 C517 1.404 . S
C516 C519 1.539 . S
C517 C513 1.408 . S
C517 C516 1.404 . S
C517 H529 0.930 . S
C518 C514 1.524 . S
C518 H530 0.956 . S
C518 H531 0.961 . S
C518 H532 0.961 . S
C519 C516 1.539 . S
C519 H533 0.958 . S
C519 H534 0.961 . S
C519 H535 0.960 . S
H520 C504 0.931 . S
H521 C509 0.929 . S
H522 C510 0.960 . S
H523 C510 0.962 . S
H524 C510 0.960 . S
H525 C511 0.961 . S
H526 C511 0.961 . S
H527 C511 0.961 . S
H528 C512 0.931 . S
H529 C517 0.930 . S
H530 C518 0.956 . S
H531 C518 0.961 . S
H532 C518 0.961 . S
H533 C519 0.958 . S
H534 C519 0.961 . S
H535 C519 0.960 . S
C536 C537 1.391 . S
C536 C538 1.394 . S
C536 H552 0.931 . S
C537 C536 1.391 . S
C537 C541 1.376 . S
C538 C536 1.394 . S
C538 C539 1.369 . S
C538 C542 1.531 . S
C539 C538 1.369 . S
C539 C540 1.410 . S
C539 C547 1.503 . S
C540 C539 1.410 . S
C540 C541 1.392 . S
C540 C543 1.511 . S
C541 C537 1.376 . S
C541 C540 1.392 . S
C541 H553 0.929 . S
C542 C538 1.531 . S
C542 H554 0.960 . S
C542 H555 0.962 . S
C542 H556 0.960 . S
C543 C540 1.511 . S
C543 H557 0.961 . S
C543 H558 0.961 . S
C543 H559 0.961 . S
C544 C545 1.370 . S
C544 C546 1.363 1_554 S
C544 H560 0.931 . S
C545 C544 1.370 . S
C545 C549 1.408 1_554 S
C546 C544 1.363 1_556 S
C546 C547 1.370 . S
C546 C550 1.524 1_556 S
C547 C539 1.503 . S
C547 C546 1.370 . S
C547 C548 1.403 . S
C548 C547 1.403 . S
C548 C549 1.404 . S
C548 C551 1.539 . S
C549 C545 1.408 1_556 S
C549 C548 1.404 . S
C549 H561 0.930 . S
C550 C546 1.524 1_554 S
C550 H562 0.949 1_554 S
C550 H563 0.961 . S
C550 H564 0.961 . S
C551 C548 1.539 . S
C551 H565 0.958 . S
C551 H566 0.961 . S
C551 H567 0.960 . S
H552 C536 0.931 . S
H553 C541 0.929 . S
H554 C542 0.960 . S
H555 C542 0.962 . S
H556 C542 0.960 . S
H557 C543 0.961 . S
H558 C543 0.961 . S
H559 C543 0.961 . S
H560 C544 0.931 . S
H561 C549 0.930 . S
H562 C550 0.949 1_556 S
H563 C550 0.961 . S
H564 C550 0.961 . S
H565 C551 0.958 . S
H566 C551 0.961 . S
H567 C551 0.960 . S
C568 C569 1.391 . S
C568 C570 1.394 . S
C568 H584 0.931 . S
C569 C568 1.391 . S
C569 C573 1.376 . S
C570 C568 1.394 . S
C570 C571 1.369 . S
C570 C574 1.531 . S
C571 C570 1.369 . S
C571 C572 1.410 . S
C571 C579 1.503 . S
C572 C571 1.410 . S
C572 C573 1.392 . S
C572 C575 1.511 . S
C573 C569 1.376 . S
C573 C572 1.392 . S
C573 H585 0.929 . S
C574 C570 1.531 . S
C574 H586 0.960 . S
C574 H587 0.962 . S
C574 H588 0.960 . S
C575 C572 1.511 . S
C575 H589 0.961 . S
C575 H590 0.961 . S
C575 H591 0.961 . S
C576 C577 1.370 . S
C576 C578 1.363 . S
C576 H592 0.931 . S
C577 C576 1.370 . S
C577 C581 1.408 . S
C578 C576 1.363 . S
C578 C579 1.370 . S
C578 C582 1.524 . S
C579 C571 1.503 . S
C579 C578 1.370 . S
C579 C580 1.403 . S
C580 C579 1.403 . S
C580 C581 1.404 . S
C580 C583 1.539 . S
C581 C577 1.408 . S
C581 C580 1.404 . S
C581 H593 0.930 . S
C582 C578 1.524 . S
C582 H594 0.956 . S
C582 H595 0.961 . S
C582 H596 0.961 . S
C583 C580 1.539 . S
C583 H597 0.958 . S
C583 H598 0.961 . S
C583 H599 0.960 . S
H584 C568 0.931 . S
H585 C573 0.929 . S
H586 C574 0.960 . S
H587 C574 0.962 . S
H588 C574 0.960 . S
H589 C575 0.961 . S
H590 C575 0.961 . S
H591 C575 0.961 . S
H592 C576 0.931 . S
H593 C581 0.930 . S
H594 C582 0.956 . S
H595 C582 0.961 . S
H596 C582 0.961 . S
H597 C583 0.958 . S
H598 C583 0.961 . S
H599 C583 0.960 . S
C600 C601 1.391 . S
C600 C602 1.394 . S
C600 H616 0.931 . S
C601 C600 1.391 . S
C601 C605 1.376 . S
C602 C600 1.394 . S
C602 C603 1.369 . S
C602 C606 1.531 . S
C603 C602 1.369 . S
C603 C604 1.410 . S
C603 C611 1.503 . S
C604 C603 1.410 . S
C604 C605 1.392 . S
C604 C607 1.511 . S
C605 C601 1.376 . S
C605 C604 1.392 . S
C605 H617 0.929 . S
C606 C602 1.531 . S
C606 H618 0.960 . S
C606 H619 0.962 . S
C606 H620 0.960 . S
C607 C604 1.511 . S
C607 H621 0.961 . S
C607 H622 0.961 . S
C607 H623 0.961 . S
C608 C609 1.370 . S
C608 C610 1.363 . S
C608 H624 0.931 . S
C609 C608 1.370 . S
C609 C613 1.408 . S
C610 C608 1.363 . S
C610 C611 1.370 . S
C610 C614 1.524 . S
C611 C603 1.503 . S
C611 C610 1.370 . S
C611 C612 1.403 . S
C612 C611 1.403 . S
C612 C613 1.404 . S
C612 C615 1.539 . S
C613 C609 1.408 . S
C613 C612 1.404 . S
C613 H625 0.930 . S
C614 C610 1.524 . S
C614 H626 0.956 . S
C614 H627 0.961 . S
C614 H628 0.961 . S
C615 C612 1.539 . S
C615 H629 0.958 . S
C615 H630 0.961 . S
C615 H631 0.960 . S
H616 C600 0.931 . S
H617 C605 0.929 . S
H618 C606 0.960 . S
H619 C606 0.962 . S
H620 C606 0.960 . S
H621 C607 0.961 . S
H622 C607 0.961 . S
H623 C607 0.961 . S
H624 C608 0.931 . S
H625 C613 0.930 . S
H626 C614 0.956 . S
H627 C614 0.961 . S
H628 C614 0.961 . S
H629 C615 0.958 . S
H630 C615 0.961 . S
H631 C615 0.960 . S
C632 C633 1.391 . S
C632 C634 1.394 . S
C632 H648 0.931 . S
C633 C632 1.391 . S
C633 C637 1.376 . S
C634 C632 1.394 . S
C634 C635 1.369 . S
C634 C638 1.531 . S
C635 C634 1.369 . S
C635 C636 1.410 . S
C635 C643 1.503 . S
C636 C635 1.410 . S
C636 C637 1.392 . S
C636 C639 1.511 . S
C637 C633 1.376 . S
C637 C636 1.392 . S
C637 H649 0.929 . S
C638 C634 1.531 . S
C638 H650 0.960 . S
C638 H651 0.962 . S
C638 H652 0.960 . S
C639 C636 1.511 . S
C639 H653 0.961 . S
C639 H654 0.961 . S
C639 H655 0.961 . S
C640 C641 1.370 . S
C640 C642 1.363 . S
C640 H656 0.931 . S
C641 C640 1.370 . S
C641 C645 1.408 . S
C642 C640 1.363 . S
C642 C643 1.370 . S
C642 C646 1.524 . S
C643 C635 1.503 . S
C643 C642 1.370 . S
C643 C644 1.403 . S
C644 C643 1.403 . S
C644 C645 1.404 . S
C644 C647 1.539 . S
C645 C641 1.408 . S
C645 C644 1.404 . S
C645 H657 0.930 . S
C646 C642 1.524 . S
C646 H658 0.956 . S
C646 H659 0.961 . S
C646 H660 0.961 . S
C647 C644 1.539 . S
C647 H661 0.958 . S
C647 H662 0.961 . S
C647 H663 0.960 . S
H648 C632 0.931 . S
H649 C637 0.929 . S
H650 C638 0.960 . S
H651 C638 0.962 . S
H652 C638 0.960 . S
H653 C639 0.961 . S
H654 C639 0.961 . S
H655 C639 0.961 . S
H656 C640 0.931 . S
H657 C645 0.930 . S
H658 C646 0.956 . S
H659 C646 0.961 . S
H660 C646 0.961 . S
H661 C647 0.958 . S
H662 C647 0.961 . S
H663 C647 0.960 . S
C664 C665 1.391 . S
C664 C666 1.394 . S
C664 H680 0.931 . S
C665 C664 1.391 . S
C665 C669 1.376 . S
C666 C664 1.394 . S
C666 C667 1.369 . S
C666 C670 1.531 . S
C667 C666 1.369 . S
C667 C668 1.410 . S
C667 C675 1.503 . S
C668 C667 1.410 . S
C668 C669 1.392 . S
C668 C671 1.511 . S
C669 C665 1.376 . S
C669 C668 1.392 . S
C669 H681 0.929 . S
C670 C666 1.531 . S
C670 H682 0.960 . S
C670 H683 0.962 . S
C670 H684 0.960 . S
C671 C668 1.511 . S
C671 H685 0.961 . S
C671 H686 0.961 . S
C671 H687 0.961 . S
C672 C673 1.370 . S
C672 C674 1.363 . S
C672 H688 0.931 . S
C673 C672 1.370 . S
C673 C677 1.408 . S
C674 C672 1.363 . S
C674 C675 1.370 . S
C674 C678 1.524 . S
C675 C667 1.503 . S
C675 C674 1.370 . S
C675 C676 1.403 . S
C676 C675 1.403 . S
C676 C677 1.404 . S
C676 C679 1.539 . S
C677 C673 1.408 . S
C677 C676 1.404 . S
C677 H689 0.930 . S
C678 C674 1.524 . S
C678 H690 0.956 . S
C678 H691 0.961 . S
C678 H692 0.961 . S
C679 C676 1.539 . S
C679 H693 0.958 . S
C679 H694 0.961 . S
C679 H695 0.960 . S
H680 C664 0.931 . S
H681 C669 0.929 . S
H682 C670 0.960 . S
H683 C670 0.962 . S
H684 C670 0.960 . S
H685 C671 0.961 . S
H686 C671 0.961 . S
H687 C671 0.961 . S
H688 C672 0.931 . S
H689 C677 0.930 . S
H690 C678 0.956 . S
H691 C678 0.961 . S
H692 C678 0.961 . S
H693 C679 0.958 . S
H694 C679 0.961 . S
H695 C679 0.960 . S
C696 C697 1.391 . S
C696 C698 1.394 . S
C696 H712 0.931 . S
C697 C696 1.391 . S
C697 C701 1.376 . S
C698 C696 1.394 . S
C698 C699 1.369 . S
C698 C702 1.531 . S
C699 C698 1.369 . S
C699 C700 1.410 . S
C699 C707 1.503 . S
C700 C699 1.410 . S
C700 C701 1.392 . S
C700 C703 1.511 . S
C701 C697 1.376 . S
C701 C700 1.392 . S
C701 H713 0.929 . S
C702 C698 1.531 . S
C702 H714 0.960 . S
C702 H715 0.962 . S
C702 H716 0.960 . S
C703 C700 1.511 . S
C703 H717 0.961 . S
C703 H718 0.961 . S
C703 H719 0.961 . S
C704 C705 1.370 . S
C704 C706 1.363 . S
C704 H720 0.931 . S
C705 C704 1.370 . S
C705 C709 1.408 . S
C706 C704 1.363 . S
C706 C707 1.370 . S
C706 C710 1.524 . S
C707 C699 1.503 . S
C707 C706 1.370 . S
C707 C708 1.403 . S
C708 C707 1.403 . S
C708 C709 1.404 . S
C708 C711 1.539 . S
C709 C705 1.408 . S
C709 C708 1.404 . S
C709 H721 0.930 . S
C710 C706 1.524 . S
C710 H722 0.956 . S
C710 H723 0.961 . S
C710 H724 0.961 . S
C711 C708 1.539 . S
C711 H725 0.958 . S
C711 H726 0.961 . S
C711 H727 0.960 . S
H712 C696 0.931 . S
H713 C701 0.929 . S
H714 C702 0.960 . S
H715 C702 0.962 . S
H716 C702 0.960 . S
H717 C703 0.961 . S
H718 C703 0.961 . S
H719 C703 0.961 . S
H720 C704 0.931 . S
H721 C709 0.930 . S
H722 C710 0.956 . S
H723 C710 0.961 . S
H724 C710 0.961 . S
H725 C711 0.958 . S
H726 C711 0.961 . S
H727 C711 0.960 . S
C728 C729 1.391 . S
C728 C730 1.394 . S
C728 H744 0.931 . S
C729 C728 1.391 . S
C729 C733 1.376 . S
C730 C728 1.394 . S
C730 C731 1.369 . S
C730 C734 1.531 . S
C731 C730 1.369 . S
C731 C732 1.410 . S
C731 C739 1.503 . S
C732 C731 1.410 . S
C732 C733 1.392 . S
C732 C735 1.511 . S
C733 C729 1.376 . S
C733 C732 1.392 . S
C733 H745 0.929 . S
C734 C730 1.531 . S
C734 H746 0.960 . S
C734 H747 0.962 . S
C734 H748 0.960 . S
C735 C732 1.511 . S
C735 H749 0.961 . S
C735 H750 0.961 . S
C735 H751 0.961 . S
C736 C737 1.370 . S
C736 C738 1.363 . S
C736 H752 0.931 . S
C737 C736 1.370 . S
C737 C741 1.408 . S
C738 C736 1.363 . S
C738 C739 1.370 . S
C738 C742 1.524 . S
C739 C731 1.503 . S
C739 C738 1.370 . S
C739 C740 1.403 . S
C740 C739 1.403 . S
C740 C741 1.404 . S
C740 C743 1.539 . S
C741 C737 1.408 . S
C741 C740 1.404 . S
C741 H753 0.930 . S
C742 C738 1.524 . S
C742 H754 0.956 . S
C742 H755 0.961 . S
C742 H756 0.961 . S
C743 C740 1.539 . S
C743 H757 0.958 . S
C743 H758 0.961 . S
C743 H759 0.960 . S
H744 C728 0.931 . S
H745 C733 0.929 . S
H746 C734 0.960 . S
H747 C734 0.962 . S
H748 C734 0.960 . S
H749 C735 0.961 . S
H750 C735 0.961 . S
H751 C735 0.961 . S
H752 C736 0.931 . S
H753 C741 0.930 . S
H754 C742 0.956 . S
H755 C742 0.961 . S
H756 C742 0.961 . S
H757 C743 0.958 . S
H758 C743 0.961 . S
H759 C743 0.960 . S
C760 C761 1.391 . S
C760 C762 1.394 . S
C760 H776 0.931 . S
C761 C760 1.391 . S
C761 C765 1.376 . S
C762 C760 1.394 . S
C762 C763 1.369 . S
C762 C766 1.531 . S
C763 C762 1.369 . S
C763 C764 1.410 . S
C763 C771 1.503 . S
C764 C763 1.410 . S
C764 C765 1.392 . S
C764 C767 1.511 . S
C765 C761 1.376 . S
C765 C764 1.392 . S
C765 H777 0.929 . S
C766 C762 1.531 . S
C766 H778 0.960 . S
C766 H779 0.962 . S
C766 H780 0.960 . S
C767 C764 1.511 . S
C767 H781 0.961 . S
C767 H782 0.961 . S
C767 H783 0.961 . S
C768 C769 1.370 . S
C768 C770 1.363 . S
C768 H784 0.931 . S
C769 C768 1.370 . S
C769 C773 1.408 . S
C770 C768 1.363 . S
C770 C771 1.370 . S
C770 C774 1.524 . S
C771 C763 1.503 . S
C771 C770 1.370 . S
C771 C772 1.403 . S
C772 C771 1.403 . S
C772 C773 1.404 . S
C772 C775 1.539 . S
C773 C769 1.408 . S
C773 C772 1.404 . S
C773 H785 0.930 1_556 S
C774 C770 1.524 . S
C774 H786 0.956 . S
C774 H787 0.961 . S
C774 H788 0.961 . S
C775 C772 1.539 . S
C775 H789 0.958 1_556 S
C775 H790 0.961 1_556 S
C775 H791 0.960 . S
H776 C760 0.931 . S
H777 C765 0.929 . S
H778 C766 0.960 . S
H779 C766 0.962 . S
H780 C766 0.960 . S
H781 C767 0.961 . S
H782 C767 0.961 . S
H783 C767 0.961 . S
H784 C768 0.931 . S
H785 C773 0.930 1_554 S
H786 C774 0.956 . S
H787 C774 0.961 . S
H788 C774 0.961 . S
H789 C775 0.958 1_554 S
H790 C775 0.961 1_554 S
H791 C775 0.960 . S
C792 C793 1.391 . S
C792 C794 1.394 . S
C792 H808 0.931 . S
C793 C792 1.391 . S
C793 C797 1.376 . S
C794 C792 1.394 . S
C794 C795 1.369 . S
C794 C798 1.531 . S
C795 C794 1.369 . S
C795 C796 1.410 . S
C795 C803 1.503 . S
C796 C795 1.410 . S
C796 C797 1.392 . S
C796 C799 1.511 . S
C797 C793 1.376 . S
C797 C796 1.392 . S
C797 H809 0.929 . S
C798 C794 1.531 . S
C798 H810 0.960 . S
C798 H811 0.962 . S
C798 H812 0.960 . S
C799 C796 1.511 . S
C799 H813 0.961 . S
C799 H814 0.961 . S
C799 H815 0.961 . S
C800 C801 1.370 . S
C800 C802 1.363 . S
C800 H816 0.931 . S
C801 C800 1.370 . S
C801 C805 1.408 . S
C802 C800 1.363 . S
C802 C803 1.370 . S
C802 C806 1.524 . S
C803 C795 1.503 . S
C803 C802 1.370 . S
C803 C804 1.403 . S
C804 C803 1.403 . S
C804 C805 1.404 . S
C804 C807 1.539 . S
C805 C801 1.408 . S
C805 C804 1.404 . S
C805 H817 0.930 . S
C806 C802 1.524 . S
C806 H818 0.956 . S
C806 H819 0.961 . S
C806 H820 0.961 . S
C807 C804 1.539 . S
C807 H821 0.958 . S
C807 H822 0.961 . S
C807 H823 0.960 . S
H808 C792 0.931 . S
H809 C797 0.929 . S
H810 C798 0.960 . S
H811 C798 0.962 . S
H812 C798 0.960 . S
H813 C799 0.961 . S
H814 C799 0.961 . S
H815 C799 0.961 . S
H816 C800 0.931 . S
H817 C805 0.930 . S
H818 C806 0.956 . S
H819 C806 0.961 . S
H820 C806 0.961 . S
H821 C807 0.958 . S
H822 C807 0.961 . S
H823 C807 0.960 . S
C824 C825 1.391 . S
C824 C826 1.394 . S
C824 H840 0.931 . S
C825 C824 1.391 . S
C825 C829 1.376 . S
C826 C824 1.394 . S
C826 C827 1.369 . S
C826 C830 1.531 . S
C827 C826 1.369 . S
C827 C828 1.410 . S
C827 C835 1.503 . S
C828 C827 1.410 . S
C828 C829 1.392 . S
C828 C831 1.511 . S
C829 C825 1.376 . S
C829 C828 1.392 . S
C829 H841 0.929 . S
C830 C826 1.531 . S
C830 H842 0.960 . S
C830 H843 0.962 . S
C830 H844 0.960 . S
C831 C828 1.511 . S
C831 H845 0.961 . S
C831 H846 0.961 . S
C831 H847 0.961 . S
C832 C833 1.370 . S
C832 C834 1.363 . S
C832 H848 0.931 . S
C833 C832 1.370 . S
C833 C837 1.408 . S
C834 C832 1.363 . S
C834 C835 1.370 . S
C834 C838 1.524 . S
C835 C827 1.503 . S
C835 C834 1.370 . S
C835 C836 1.403 . S
C836 C835 1.403 . S
C836 C837 1.404 . S
C836 C839 1.539 . S
C837 C833 1.408 . S
C837 C836 1.404 . S
C837 H849 0.930 . S
C838 C834 1.524 . S
C838 H850 0.956 . S
C838 H851 0.961 . S
C838 H852 0.961 . S
C839 C836 1.539 . S
C839 H853 0.958 . S
C839 H854 0.961 . S
C839 H855 0.960 . S
H840 C824 0.931 . S
H841 C829 0.929 . S
H842 C830 0.960 . S
H843 C830 0.962 . S
H844 C830 0.960 . S
H845 C831 0.961 . S
H846 C831 0.961 . S
H847 C831 0.961 . S
H848 C832 0.931 . S
H849 C837 0.930 . S
H850 C838 0.956 . S
H851 C838 0.961 . S
H852 C838 0.961 . S
H853 C839 0.958 . S
H854 C839 0.961 . S
H855 C839 0.960 . S
C856 C857 1.391 . S
C856 C858 1.394 . S
C856 H872 0.931 . S
C857 C856 1.391 . S
C857 C861 1.376 . S
C858 C856 1.394 . S
C858 C859 1.369 . S
C858 C862 1.531 . S
C859 C858 1.369 . S
C859 C860 1.410 . S
C859 C867 1.503 . S
C860 C859 1.410 . S
C860 C861 1.392 . S
C860 C863 1.511 . S
C861 C857 1.376 . S
C861 C860 1.392 . S
C861 H873 0.929 . S
C862 C858 1.531 . S
C862 H874 0.960 . S
C862 H875 0.962 . S
C862 H876 0.960 . S
C863 C860 1.511 . S
C863 H877 0.961 . S
C863 H878 0.961 . S
C863 H879 0.961 . S
C864 C865 1.370 . S
C864 C866 1.363 . S
C864 H880 0.931 . S
C865 C864 1.370 . S
C865 C869 1.408 . S
C866 C864 1.363 . S
C866 C867 1.370 . S
C866 C870 1.524 . S
C867 C859 1.503 . S
C867 C866 1.370 . S
C867 C868 1.403 . S
C868 C867 1.403 . S
C868 C869 1.404 . S
C868 C871 1.539 . S
C869 C865 1.408 . S
C869 C868 1.404 . S
C869 H881 0.930 . S
C870 C866 1.524 . S
C870 H882 0.956 . S
C870 H883 0.961 . S
C870 H884 0.961 . S
C871 C868 1.539 . S
C871 H885 0.958 . S
C871 H886 0.961 . S
C871 H887 0.960 . S
H872 C856 0.931 . S
H873 C861 0.929 . S
H874 C862 0.960 . S
H875 C862 0.962 . S
H876 C862 0.960 . S
H877 C863 0.961 . S
H878 C863 0.961 . S
H879 C863 0.961 . S
H880 C864 0.931 . S
H881 C869 0.930 . S
H882 C870 0.956 . S
H883 C870 0.961 . S
H884 C870 0.961 . S
H885 C871 0.958 . S
H886 C871 0.961 . S
H887 C871 0.960 . S
C888 C889 1.391 . S
C888 C890 1.394 . S
C888 H904 0.931 . S
C889 C888 1.391 . S
C889 C893 1.376 . S
C890 C888 1.394 . S
C890 C891 1.369 . S
C890 C894 1.531 . S
C891 C890 1.369 . S
C891 C892 1.410 . S
C891 C899 1.503 . S
C892 C891 1.410 . S
C892 C893 1.392 . S
C892 C895 1.511 . S
C893 C889 1.376 . S
C893 C892 1.392 . S
C893 H905 0.929 . S
C894 C890 1.531 . S
C894 H906 0.960 . S
C894 H907 0.962 . S
C894 H908 0.960 . S
C895 C892 1.511 . S
C895 H909 0.961 . S
C895 H910 0.961 . S
C895 H911 0.961 . S
C896 C897 1.370 . S
C896 C898 1.363 . S
C896 H912 0.931 . S
C897 C896 1.370 . S
C897 C901 1.408 . S
C898 C896 1.363 . S
C898 C899 1.370 . S
C898 C902 1.524 . S
C899 C891 1.503 . S
C899 C898 1.370 . S
C899 C900 1.403 . S
C900 C899 1.403 . S
C900 C901 1.404 . S
C900 C903 1.539 . S
C901 C897 1.408 . S
C901 C900 1.404 . S
C901 H913 0.930 . S
C902 C898 1.524 . S
C902 H914 0.956 . S
C902 H915 0.961 . S
C902 H916 0.961 . S
C903 C900 1.539 . S
C903 H917 0.958 . S
C903 H918 0.961 . S
C903 H919 0.960 . S
H904 C888 0.931 . S
H905 C893 0.929 . S
H906 C894 0.960 . S
H907 C894 0.962 . S
H908 C894 0.960 . S
H909 C895 0.961 . S
H910 C895 0.961 . S
H911 C895 0.961 . S
H912 C896 0.931 . S
H913 C901 0.930 . S
H914 C902 0.956 . S
H915 C902 0.961 . S
H916 C902 0.961 . S
H917 C903 0.958 . S
H918 C903 0.961 . S
H919 C903 0.960 . S
C920 C921 1.391 . S
C920 C922 1.394 . S
C920 H936 0.931 . S
C921 C920 1.391 . S
C921 C925 1.376 . S
C922 C920 1.394 . S
C922 C923 1.369 . S
C922 C926 1.531 . S
C923 C922 1.369 . S
C923 C924 1.410 . S
C923 C931 1.503 . S
C924 C923 1.410 . S
C924 C925 1.392 . S
C924 C927 1.511 . S
C925 C921 1.376 . S
C925 C924 1.392 . S
C925 H937 0.929 . S
C926 C922 1.531 . S
C926 H938 0.960 . S
C926 H939 0.962 . S
C926 H940 0.960 . S
C927 C924 1.511 . S
C927 H941 0.961 . S
C927 H942 0.961 . S
C927 H943 0.961 . S
C928 C929 1.370 . S
C928 C930 1.363 . S
C928 H944 0.931 . S
C929 C928 1.370 . S
C929 C933 1.408 . S
C930 C928 1.363 . S
C930 C931 1.370 . S
C930 C934 1.524 . S
C931 C923 1.503 . S
C931 C930 1.370 . S
C931 C932 1.403 . S
C932 C931 1.403 . S
C932 C933 1.404 . S
C932 C935 1.539 . S
C933 C929 1.408 . S
C933 C932 1.404 . S
C933 H945 0.930 . S
C934 C930 1.524 . S
C934 H946 0.956 . S
C934 H947 0.961 . S
C934 H948 0.961 . S
C935 C932 1.539 . S
C935 H949 0.958 . S
C935 H950 0.961 . S
C935 H951 0.960 . S
H936 C920 0.931 . S
H937 C925 0.929 . S
H938 C926 0.960 . S
H939 C926 0.962 . S
H940 C926 0.960 . S
H941 C927 0.961 . S
H942 C927 0.961 . S
H943 C927 0.961 . S
H944 C928 0.931 . S
H945 C933 0.930 . S
H946 C934 0.956 . S
H947 C934 0.961 . S
H948 C934 0.961 . S
H949 C935 0.958 . S
H950 C935 0.961 . S
H951 C935 0.960 . S
C952 C953 1.391 . S
C952 C954 1.394 . S
C952 H968 0.931 . S
C953 C952 1.391 . S
C953 C957 1.376 . S
C954 C952 1.394 . S
C954 C955 1.369 . S
C954 C958 1.531 . S
C955 C954 1.369 . S
C955 C956 1.410 . S
C955 C963 1.503 . S
C956 C955 1.410 . S
C956 C957 1.392 . S
C956 C959 1.511 . S
C957 C953 1.376 . S
C957 C956 1.392 . S
C957 H969 0.929 . S
C958 C954 1.531 . S
C958 H970 0.960 . S
C958 H971 0.962 . S
C958 H972 0.960 . S
C959 C956 1.511 . S
C959 H973 0.961 . S
C959 H974 0.961 . S
C959 H975 0.961 . S
C960 C961 1.370 . S
C960 C962 1.363 . S
C960 H976 0.931 . S
C961 C960 1.370 . S
C961 C965 1.408 . S
C962 C960 1.363 . S
C962 C963 1.370 . S
C962 C966 1.524 . S
C963 C955 1.503 . S
C963 C962 1.370 . S
C963 C964 1.403 . S
C964 C963 1.403 . S
C964 C965 1.404 . S
C964 C967 1.539 . S
C965 C961 1.408 . S
C965 C964 1.404 . S
C965 H977 0.930 . S
C966 C962 1.524 . S
C966 H978 0.956 . S
C966 H979 0.961 . S
C966 H980 0.961 . S
C967 C964 1.539 . S
C967 H981 0.958 . S
C967 H982 0.961 . S
C967 H983 0.960 . S
H968 C952 0.931 . S
H969 C957 0.929 . S
H970 C958 0.960 . S
H971 C958 0.962 . S
H972 C958 0.960 . S
H973 C959 0.961 . S
H974 C959 0.961 . S
H975 C959 0.961 . S
H976 C960 0.931 . S
H977 C965 0.930 . S
H978 C966 0.956 . S
H979 C966 0.961 . S
H980 C966 0.961 . S
H981 C967 0.958 . S
H982 C967 0.961 . S
H983 C967 0.960 . S
C984 C985 1.391 . S
C984 C986 1.394 . S
C984 H1000 0.931 . S
C985 C984 1.391 . S
C985 C989 1.376 . S
C986 C984 1.394 . S
C986 C987 1.369 . S
C986 C990 1.531 . S
C987 C986 1.369 . S
C987 C988 1.410 . S
C987 C995 1.503 . S
C988 C987 1.410 . S
C988 C989 1.392 . S
C988 C991 1.511 . S
C989 C985 1.376 . S
C989 C988 1.392 . S
C989 H1001 0.929 . S
C990 C986 1.531 . S
C990 H1002 0.960 . S
C990 H1003 0.962 . S
C990 H1004 0.960 . S
C991 C988 1.511 . S
C991 H1005 0.961 . S
C991 H1006 0.961 . S
C991 H1007 0.961 . S
C992 C993 1.370 . S
C992 C994 1.363 . S
C992 H1008 0.931 . S
C993 C992 1.370 . S
C993 C997 1.408 . S
C994 C992 1.363 . S
C994 C995 1.370 . S
C994 C998 1.524 . S
C995 C987 1.503 . S
C995 C994 1.370 . S
C995 C996 1.403 . S
C996 C995 1.403 . S
C996 C997 1.404 . S
C996 C999 1.539 . S
C997 C993 1.408 . S
C997 C996 1.404 . S
C997 H1009 0.930 . S
C998 C994 1.524 . S
C998 H1010 0.956 . S
C998 H1011 0.961 . S
C998 H1012 0.961 . S
C999 C996 1.539 . S
C999 H1013 0.958 . S
C999 H1014 0.961 . S
C999 H1015 0.960 . S
H1000 C984 0.931 . S
H1001 C989 0.929 . S
H1002 C990 0.960 . S
H1003 C990 0.962 . S
H1004 C990 0.960 . S
H1005 C991 0.961 . S
H1006 C991 0.961 . S
H1007 C991 0.961 . S
H1008 C992 0.931 . S
H1009 C997 0.930 . S
H1010 C998 0.956 . S
H1011 C998 0.961 . S
H1012 C998 0.961 . S
H1013 C999 0.958 . S
H1014 C999 0.961 . S
H1015 C999 0.960 . S
C249 C5 0.896 . S
C257 C94 1.210 . S
C281 C18 0.915 . S
C289 C143 1.075 . S
C321 C178 2.346 . S
C313 C30 2.382 . S
C345 C41 2.092 . S
C353 C217 2.043 . S
C385 C138 2.328 . S
C377 C7 2.158 . S
C417 C97 0.924 . S
C409 C16 0.868 . S
C449 C227 1.940 . S
C441 C29 1.912 . S
C481 C186 1.241 . S
C473 C38 1.193 . S
C505 C8 1.445 . S
C513 C214 1.576 . S
C545 C146 2.558 . S
C537 C27 2.355 . S
C569 C40 2.430 . S
C577 C107 2.459 . S
C601 C19 0.663 . S
C609 C183 0.706 . S
C641 C103 1.132 . S
C633 C51 0.936 . S
C665 C62 1.326 . S
C673 C134 1.328 . S
C697 C74 2.457 . S
C705 C187 2.441 . S
C729 C84 2.212 . S
C737 C226 2.252 . S
C761 C49 1.925 . S
C769 C147 2.557 1_556 S
C801 C106 0.923 . S
C793 C63 0.983 . S
C833 C218 1.796 . S
C825 C71 1.652 . S
C865 C177 1.359 . S
C857 C85 1.358 . S
C889 C52 1.496 . S
C897 C223 1.588 . S
C929 C137 2.637 . S
C921 C73 2.705 . S
C961 C98 1.988 . S
C953 C82 1.701 . S
C985 C60 0.713 . S
C993 C174 0.813 . S
