# Generated by pormake.
# Topology myd, (4,6)-cn, num edge types: 1
# Building blocks:
#     Node 0, Type 0, BuildingBlock: KOZSID_clean_sbu_0, # of connection points: 4
#     Node 1, Type 0, BuildingBlock: KOZSID_clean_sbu_0, # of connection points: 4
#     Node 2, Type 0, BuildingBlock: KOZSID_clean_sbu_0, # of connection points: 4
#     Node 3, Type 0, BuildingBlock: KOZSID_clean_sbu_0, # of connection points: 4
#     Node 4, Type 0, BuildingBlock: KOZSID_clean_sbu_0, # of connection points: 4
#     Node 5, Type 0, BuildingBlock: KOZSID_clean_sbu_0, # of connection points: 4
#     Node 6, Type 0, BuildingBlock: KOZSID_clean_sbu_0, # of connection points: 4
#     Node 7, Type 0, BuildingBlock: KOZSID_clean_sbu_0, # of connection points: 4
#     Node 8, Type 0, BuildingBlock: KOZSID_clean_sbu_0, # of connection points: 4
#     Node 9, Type 0, BuildingBlock: KOZSID_clean_sbu_0, # of connection points: 4
#     Node 10, Type 0, BuildingBlock: KOZSID_clean_sbu_0, # of connection points: 4
#     Node 11, Type 0, BuildingBlock: KOZSID_clean_sbu_0, # of connection points: 4
#     Node 12, Type 1, BuildingBlock: JUFBIX_clean_sbu_0, # of connection points: 6
#     Node 13, Type 1, BuildingBlock: JUFBIX_clean_sbu_0, # of connection points: 6
#     Node 14, Type 1, BuildingBlock: JUFBIX_clean_sbu_0, # of connection points: 6
#     Node 15, Type 1, BuildingBlock: JUFBIX_clean_sbu_0, # of connection points: 6
#     Node 16, Type 1, BuildingBlock: JUFBIX_clean_sbu_0, # of connection points: 6
#     Node 17, Type 1, BuildingBlock: JUFBIX_clean_sbu_0, # of connection points: 6
#     Node 18, Type 1, BuildingBlock: JUFBIX_clean_sbu_0, # of connection points: 6
#     Node 19, Type 1, BuildingBlock: JUFBIX_clean_sbu_0, # of connection points: 6
#     Edge 20, Type (0, 1), BuildingBlock: TEMPAE_clean_linker_10, # of connection points: 2
#     Edge 21, Type (0, 1), BuildingBlock: TEMPAE_clean_linker_10, # of connection points: 2
#     Edge 22, Type (0, 1), BuildingBlock: TEMPAE_clean_linker_10, # of connection points: 2
#     Edge 23, Type (0, 1), BuildingBlock: TEMPAE_clean_linker_10, # of connection points: 2
#     Edge 24, Type (0, 1), BuildingBlock: TEMPAE_clean_linker_10, # of connection points: 2
#     Edge 25, Type (0, 1), BuildingBlock: TEMPAE_clean_linker_10, # of connection points: 2
#     Edge 26, Type (0, 1), BuildingBlock: TEMPAE_clean_linker_10, # of connection points: 2
#     Edge 27, Type (0, 1), BuildingBlock: TEMPAE_clean_linker_10, # of connection points: 2
#     Edge 28, Type (0, 1), BuildingBlock: TEMPAE_clean_linker_10, # of connection points: 2
#     Edge 29, Type (0, 1), BuildingBlock: TEMPAE_clean_linker_10, # of connection points: 2
#     Edge 30, Type (0, 1), BuildingBlock: TEMPAE_clean_linker_10, # of connection points: 2
#     Edge 31, Type (0, 1), BuildingBlock: TEMPAE_clean_linker_10, # of connection points: 2
#     Edge 32, Type (0, 1), BuildingBlock: TEMPAE_clean_linker_10, # of connection points: 2
#     Edge 33, Type (0, 1), BuildingBlock: TEMPAE_clean_linker_10, # of connection points: 2
#     Edge 34, Type (0, 1), BuildingBlock: TEMPAE_clean_linker_10, # of connection points: 2
#     Edge 35, Type (0, 1), BuildingBlock: TEMPAE_clean_linker_10, # of connection points: 2
#     Edge 36, Type (0, 1), BuildingBlock: TEMPAE_clean_linker_10, # of connection points: 2
#     Edge 37, Type (0, 1), BuildingBlock: TEMPAE_clean_linker_10, # of connection points: 2
#     Edge 38, Type (0, 1), BuildingBlock: TEMPAE_clean_linker_10, # of connection points: 2
#     Edge 39, Type (0, 1), BuildingBlock: TEMPAE_clean_linker_10, # of connection points: 2
#     Edge 40, Type (0, 1), BuildingBlock: TEMPAE_clean_linker_10, # of connection points: 2
#     Edge 41, Type (0, 1), BuildingBlock: TEMPAE_clean_linker_10, # of connection points: 2
#     Edge 42, Type (0, 1), BuildingBlock: TEMPAE_clean_linker_10, # of connection points: 2
#     Edge 43, Type (0, 1), BuildingBlock: TEMPAE_clean_linker_10, # of connection points: 2
#     Edge 44, Type (0, 1), BuildingBlock: TEMPAE_clean_linker_10, # of connection points: 2
#     Edge 45, Type (0, 1), BuildingBlock: TEMPAE_clean_linker_10, # of connection points: 2
#     Edge 46, Type (0, 1), BuildingBlock: TEMPAE_clean_linker_10, # of connection points: 2
#     Edge 47, Type (0, 1), BuildingBlock: TEMPAE_clean_linker_10, # of connection points: 2
#     Edge 48, Type (0, 1), BuildingBlock: TEMPAE_clean_linker_10, # of connection points: 2
#     Edge 49, Type (0, 1), BuildingBlock: TEMPAE_clean_linker_10, # of connection points: 2
#     Edge 50, Type (0, 1), BuildingBlock: TEMPAE_clean_linker_10, # of connection points: 2
#     Edge 51, Type (0, 1), BuildingBlock: TEMPAE_clean_linker_10, # of connection points: 2
#     Edge 52, Type (0, 1), BuildingBlock: TEMPAE_clean_linker_10, # of connection points: 2
#     Edge 53, Type (0, 1), BuildingBlock: TEMPAE_clean_linker_10, # of connection points: 2
#     Edge 54, Type (0, 1), BuildingBlock: TEMPAE_clean_linker_10, # of connection points: 2
#     Edge 55, Type (0, 1), BuildingBlock: TEMPAE_clean_linker_10, # of connection points: 2
#     Edge 56, Type (0, 1), BuildingBlock: TEMPAE_clean_linker_10, # of connection points: 2
#     Edge 57, Type (0, 1), BuildingBlock: TEMPAE_clean_linker_10, # of connection points: 2
#     Edge 58, Type (0, 1), BuildingBlock: TEMPAE_clean_linker_10, # of connection points: 2
#     Edge 59, Type (0, 1), BuildingBlock: TEMPAE_clean_linker_10, # of connection points: 2
#     Edge 60, Type (0, 1), BuildingBlock: TEMPAE_clean_linker_10, # of connection points: 2
#     Edge 61, Type (0, 1), BuildingBlock: TEMPAE_clean_linker_10, # of connection points: 2
#     Edge 62, Type (0, 1), BuildingBlock: TEMPAE_clean_linker_10, # of connection points: 2
#     Edge 63, Type (0, 1), BuildingBlock: TEMPAE_clean_linker_10, # of connection points: 2
#     Edge 64, Type (0, 1), BuildingBlock: TEMPAE_clean_linker_10, # of connection points: 2
#     Edge 65, Type (0, 1), BuildingBlock: TEMPAE_clean_linker_10, # of connection points: 2
#     Edge 66, Type (0, 1), BuildingBlock: TEMPAE_clean_linker_10, # of connection points: 2
#     Edge 67, Type (0, 1), BuildingBlock: TEMPAE_clean_linker_10, # of connection points: 2
# Relax obj value: 0.224
# Max RMSD: 0.222
# Mean RMSD: 0.148
data_MOF--net-myd--node1-KOZSID_clean_sbu_0--node2-JUFBIX_clean_sbu_0--edge1-TEMPAE_clean_linker_10
_symmetry_space_group_name_H-M    P1
_symmetry_Int_Tables_number       1
_symmetry_cell_setting            triclinic
loop_
_symmetry_equiv_pos_as_xyz
'x, y, z'
_cell_length_a     50.317006
_cell_length_b     53.2151
_cell_length_c     52.468838
_cell_angle_alpha  92.141731
_cell_angle_beta   87.827643
_cell_angle_gamma 93.325565
loop_
_atom_site_label
_atom_site_type_symbol
_atom_site_fract_x
_atom_site_fract_y
_atom_site_fract_z
_atom_type_partial_charge
C0 C 0.98502 0.25937 0.34727 0.0
C1 C 0.95948 0.26123 0.35776 0.0
C2 C 0.94503 0.23974 0.34991 0.0
C3 C 0.96244 0.226 0.33499 0.0
N4 N 0.98687 0.2375 0.33326 0.0
Co5 Co 0.01725 0.22615 0.31149 0.0
N6 N 0.99367 0.20482 0.28908 0.0
C7 C 0.96852 0.19666 0.29542 0.0
C8 C 0.95728 0.18097 0.27694 0.0
C9 C 0.9767 0.17885 0.25801 0.0
C10 C 0.99884 0.19349 0.26595 0.0
N11 N 0.04804 0.21553 0.28981 0.0
C12 C 0.04878 0.20409 0.26624 0.0
C13 C 0.07495 0.2005 0.25811 0.0
C14 C 0.09084 0.20911 0.27763 0.0
C15 C 0.07369 0.21777 0.29649 0.0
N16 N 0.04036 0.24754 0.33416 0.0
C17 C 0.06661 0.24567 0.33685 0.0
C18 C 0.07734 0.26453 0.35265 0.0
C19 C 0.05656 0.27921 0.35999 0.0
C20 C 0.03428 0.2685 0.34816 0.0
N21 N 0.02054 0.19676 0.33281 0.0
C22 C 0.02291 0.15283 0.36078 0.0
C23 C 0.02759 0.15237 0.33442 0.0
C24 C 0.02606 0.1742 0.32092 0.0
C25 C 0.01703 0.17588 0.37311 0.0
C26 C 0.01629 0.19777 0.35877 0.0
N27 N 0.01386 0.2547 0.28987 0.0
C28 C 0.03357 0.28985 0.26702 0.0
C29 C 0.00854 0.29529 0.25852 0.0
C30 C 0.98625 0.28013 0.2663 0.0
C31 C 0.98934 0.25995 0.28185 0.0
C32 C 0.03579 0.26946 0.28266 0.0
H33 H 0.97182 0.2486 0.28745 0.0
H34 H 0.05527 0.26559 0.28884 0.0
H35 H 0.02898 0.17243 0.3006 0.0
H36 H 0.01202 0.21538 0.36855 0.0
C37 C 0.95525 0.20652 0.31734 0.0
C38 C 1.00747 0.27814 0.35084 0.0
C39 C 0.02523 0.19353 0.25265 0.0
C40 C 0.08106 0.23103 0.31905 0.0
H41 H 0.95184 0.27667 0.36926 0.0
H42 H 0.92387 0.23565 0.35308 0.0
H43 H 0.93726 0.17235 0.27701 0.0
H44 H 0.97496 0.16727 0.2407 0.0
H45 H 0.08187 0.19199 0.24021 0.0
H46 H 0.11236 0.20951 0.27778 0.0
H47 H 0.09814 0.26839 0.35671 0.0
H48 H 0.05774 0.29616 0.37205 0.0
H49 H 0.03185 0.13497 0.32407 0.0
H50 H 0.01332 0.17701 0.39357 0.0
H51 H 0.05137 0.30096 0.26131 0.0
H52 H 0.96645 0.2839 0.26057 0.0
C53 C 0.99171 0.69138 0.1419 0.0
C54 C 0.96461 0.6867 0.13832 0.0
C55 C 0.95159 0.70139 0.15596 0.0
C56 C 0.97127 0.71404 0.16941 0.0
N57 N 0.9962 0.70862 0.1612 0.0
Co58 Co 0.03059 0.72155 0.17649 0.0
N59 N 0.01116 0.74072 0.20426 0.0
C60 C 0.98449 0.74106 0.20852 0.0
C61 C 0.97714 0.75693 0.22837 0.0
C62 C 1.00048 0.76776 0.23702 0.0
C63 C 0.02079 0.75777 0.22184 0.0
N64 N 0.06496 0.73481 0.19146 0.0
C65 C 0.06934 0.75281 0.20998 0.0
C66 C 0.0963 0.75786 0.2137 0.0
C67 C 0.10952 0.74285 0.19644 0.0
C68 C 0.08992 0.7296 0.18328 0.0
N69 N 0.04997 0.70213 0.14889 0.0
C70 C 0.07665 0.70116 0.14518 0.0
C71 C 0.08403 0.6858 0.1249 0.0
C72 C 0.06067 0.67594 0.11538 0.0
C73 C 0.04034 0.6858 0.13059 0.0
N74 N 0.03152 0.75175 0.155 0.0
C75 C 0.03549 0.79954 0.13298 0.0
C76 C 0.05684 0.7838 0.13113 0.0
C77 C 0.05445 0.76014 0.14221 0.0
C78 C 0.01163 0.79022 0.14446 0.0
C79 C 0.00999 0.76638 0.15491 0.0
N80 N 0.02972 0.69166 0.19857 0.0
C81 C 0.05223 0.65983 0.22019 0.0
C82 C 0.0286 0.6519 0.23324 0.0
C83 C 1.00547 0.66375 0.22788 0.0
C84 C 1.00645 0.68323 0.21067 0.0
C85 C 0.0523 0.67943 0.20295 0.0
H86 H 0.98808 0.69143 0.20785 0.0
H87 H 0.0709 0.68452 0.19359 0.0
H88 H 0.07167 0.74932 0.14094 0.0
H89 H 0.99128 0.76055 0.16353 0.0
C90 C 0.9669 0.72879 0.19159 0.0
C91 C 0.01236 0.67771 0.12793 0.0
C92 C 0.04866 0.76651 0.22346 0.0
C93 C 0.09425 0.71402 0.16172 0.0
H94 H 0.955 0.67342 0.12506 0.0
H95 H 0.93027 0.70184 0.15939 0.0
H96 H 0.95717 0.76113 0.2349 0.0
H97 H 1.00225 0.78214 0.25209 0.0
H98 H 0.1054 0.77154 0.22696 0.0
H99 H 0.13086 0.74245 0.19313 0.0
H100 H 0.10401 0.68174 0.11826 0.0
H101 H 0.05876 0.66245 0.09951 0.0
H102 H 0.07565 0.79011 0.12212 0.0
H103 H 0.9943 0.80144 0.14569 0.0
H104 H 0.07065 0.65103 0.22328 0.0
H105 H 0.98664 0.65865 0.23756 0.0
C106 C 0.34958 0.9747 0.26338 0.0
C107 C 0.35953 0.9511 0.26513 0.0
C108 C 0.35129 0.93716 0.24399 0.0
C109 C 0.33689 0.95302 0.2305 0.0
N110 N 0.33572 0.97601 0.24182 0.0
Co111 Co 0.31602 1.00425 0.22971 0.0
N112 N 0.29323 0.98141 0.20777 0.0
C113 C 0.29846 0.95757 0.20056 0.0
C114 C 0.27956 0.94624 0.18508 0.0
C115 C 0.26159 0.96419 0.18197 0.0
C116 C 0.27066 0.98569 0.19557 0.0
N117 N 0.29642 0.03281 0.21789 0.0
C118 C 0.27358 0.03293 0.20488 0.0
C119 C 0.26799 0.05741 0.19944 0.0
C120 C 0.28811 0.07296 0.20907 0.0
C121 C 0.3049 0.05727 0.21979 0.0
N122 N 0.33902 0.02684 0.25164 0.0
C123 C 0.34304 0.0519 0.2497 0.0
C124 C 0.35866 0.06266 0.26852 0.0
C125 C 0.36476 0.04315 0.28324 0.0
C126 C 0.35267 0.02142 0.2724 0.0
N127 N 0.34184 0.00839 0.20054 0.0
C128 C 0.37709 0.01142 0.1572 0.0
C129 C 0.38651 0.00766 0.18165 0.0
C130 C 0.36862 0.00628 0.20302 0.0
C131 C 0.34971 0.0143 0.15538 0.0
C132 C 0.33266 0.01258 0.17693 0.0
N133 N 0.29009 0.99986 0.2584 0.0
C134 C 0.26329 0.01705 0.29325 0.0
C135 C 0.25319 0.99283 0.29957 0.0
C136 C 0.26204 0.9723 0.28474 0.0
C137 C 0.28027 0.9762 0.26429 0.0
C138 C 0.28179 0.02013 0.27274 0.0
H139 H 0.28636 0.95995 0.25321 0.0
H140 H 0.28939 0.03893 0.2685 0.0
H141 H 0.37639 1.00315 0.22148 0.0
H142 H 0.31183 0.01441 0.17417 0.0
C143 C 0.3195 0.94565 0.211 0.0
C144 C 0.35469 0.99585 0.28171 0.0
C145 C 0.25899 0.0104 0.19414 0.0
C146 C 0.32708 0.06494 0.23407 0.0
H147 H 0.37124 0.94463 0.28021 0.0
H148 H 0.35414 0.91741 0.2398 0.0
H149 H 0.27867 0.92709 0.17732 0.0
H150 H 0.24414 0.96187 0.17049 0.0
H151 H 0.25162 0.06342 0.18883 0.0
H152 H 0.29012 0.09329 0.20848 0.0
H153 H 0.36353 0.08252 0.27219 0.0
H154 H 0.37627 0.04499 0.30025 0.0
H155 H 0.40745 1.00531 0.18427 0.0
H156 H 0.34125 0.01805 0.13734 0.0
H157 H 0.25715 0.03349 0.30423 0.0
H158 H 0.25453 0.95327 0.28856 0.0
C159 C 0.67168 0.46099 0.25469 0.0
C160 C 0.65988 0.43712 0.25034 0.0
C161 C 0.66884 0.42225 0.26874 0.0
C162 C 0.68557 0.43787 0.28317 0.0
N163 N 0.68748 0.46154 0.27498 0.0
Co164 Co 0.71037 0.48998 0.28872 0.0
N165 N 0.73363 0.46688 0.3049 0.0
C166 C 0.72744 0.44245 0.30951 0.0
C167 C 0.74734 0.43121 0.32125 0.0
C168 C 0.76707 0.4498 0.32455 0.0
C169 C 0.75799 0.47152 0.31477 0.0
N170 N 0.7329 0.51869 0.30256 0.0
C171 C 0.75727 0.51907 0.31271 0.0
C172 C 0.76523 0.5433 0.32121 0.0
C173 C 0.74495 0.55842 0.31645 0.0
C174 C 0.72576 0.5427 0.30537 0.0
N175 N 0.68704 0.51281 0.27248 0.0
C176 C 0.6844 0.53732 0.27844 0.0
C177 C 0.6674 0.54815 0.26269 0.0
C178 C 0.65903 0.52918 0.2458 0.0
C179 C 0.67149 0.50789 0.25229 0.0
N180 N 0.68757 0.49104 0.32034 0.0
C181 C 0.65547 0.49277 0.36596 0.0
C182 C 0.64407 0.48965 0.34185 0.0
C183 C 0.66036 0.48891 0.31942 0.0
C184 C 0.68342 0.49503 0.36638 0.0
C185 C 0.69892 0.49399 0.34365 0.0
N186 N 0.73307 0.48893 0.25715 0.0
C187 C 0.75693 0.51031 0.22257 0.0
C188 C 0.76294 0.48727 0.21053 0.0
C189 C 0.75391 0.4651 0.22249 0.0
C190 C 0.73943 0.46633 0.24588 0.0
C191 C 0.74174 0.51074 0.24562 0.0
H192 H 0.73315 0.4489 0.25472 0.0
H193 H 0.7368 0.52877 0.25397 0.0
H194 H 0.65092 0.48656 0.30128 0.0
H195 H 0.72024 0.49575 0.34507 0.0
C196 C 0.70438 0.43007 0.29979 0.0
C197 C 0.66772 0.48302 0.23974 0.0
C198 C 0.77173 0.4966 0.31758 0.0
C199 C 0.70255 0.55027 0.29452 0.0
H200 H 0.64669 0.431 0.23523 0.0
H201 H 0.66503 0.40212 0.27025 0.0
H202 H 0.74773 0.41171 0.32632 0.0
H203 H 0.78575 0.44771 0.33359 0.0
H204 H 0.78345 0.54935 0.33053 0.0
H205 H 0.74449 0.57852 0.32024 0.0
H206 H 0.6629 0.56779 0.26244 0.0
H207 H 0.64564 0.53083 0.23036 0.0
H208 H 0.62268 0.48754 0.34021 0.0
H209 H 0.69349 0.49806 0.38419 0.0
H210 H 0.76353 0.52791 0.214 0.0
H211 H 0.75839 0.44689 0.21401 0.0
C212 C 0.31523 0.39907 0.99898 0.0
C213 C 0.32478 0.4074 0.97541 0.0
C214 C 0.3066 0.39877 0.95798 0.0
C215 C 0.2872 0.38548 0.97173 0.0
N216 N 0.29143 0.38576 0.99703 0.0
Co217 Co 0.27094 0.36524 0.02333 0.0
N218 N 0.24889 0.34691 0.99689 0.0
C219 C 0.24842 0.35222 0.97193 0.0
C220 C 0.23058 0.33696 0.95854 0.0
C221 C 0.21882 0.32111 0.97607 0.0
C222 C 0.23019 0.32769 0.99926 0.0
N223 N 0.25194 0.34394 0.04975 0.0
C224 C 0.23377 0.32435 0.04706 0.0
C225 C 0.2258 0.31455 0.07049 0.0
C226 C 0.23952 0.32842 0.0886 0.0
C227 C 0.25504 0.34579 0.07526 0.0
N228 N 0.29259 0.38418 0.0497 0.0
C229 C 0.28885 0.38346 0.07529 0.0
C230 C 0.30776 0.39775 0.08842 0.0
C231 C 0.32493 0.40762 0.07011 0.0
C232 C 0.31553 0.39864 0.04682 0.0
N233 N 0.24227 0.39023 0.0272 0.0
C234 C 0.19122 0.41051 0.02736 0.0
C235 C 0.20091 0.40083 0.04938 0.0
C236 C 0.22645 0.39154 0.04908 0.0
C237 C 0.2089 0.41272 1.00623 0.0
C238 C 0.23421 0.4028 1.00666 0.0
N239 N 0.29815 0.33972 0.01914 0.0
C240 C 0.32672 0.31047 0.03722 0.0
C241 C 0.33281 0.2998 0.01301 0.0
C242 C 0.32181 0.31014 0.99193 0.0
C243 C 0.30474 0.32991 0.99538 0.0
C244 C 0.30959 0.33037 0.03983 0.0
H245 H 0.29663 0.33673 0.97859 0.0
H246 H 0.30548 0.3378 0.05874 0.0
H247 H 0.23243 0.38471 0.06664 0.0
H248 H 0.24641 0.4048 0.98975 0.0
C249 C 0.26665 0.37005 0.96126 0.0
C250 C 0.32996 0.40281 0.02255 0.0
C251 C 0.22285 0.31502 0.02293 0.0
C252 C 0.27164 0.36494 0.08611 0.0
H253 H 0.34339 0.41775 0.97098 0.0
H254 H 0.3082 0.40065 0.9375 0.0
H255 H 0.22696 0.33699 0.93834 0.0
H256 H 0.20373 0.30628 0.97217 0.0
H257 H 0.21123 0.29922 0.07417 0.0
H258 H 0.23806 0.32634 0.10905 0.0
H259 H 0.31003 0.39916 0.10887 0.0
H260 H 0.34304 0.41905 0.07349 0.0
H261 H 0.1886 0.39997 0.06676 0.0
H262 H 0.20282 0.42095 0.98896 0.0
H263 H 0.33514 0.30353 0.05411 0.0
H264 H 0.32573 0.30256 0.9728 0.0
C265 C 0.22406 0.65778 0.47643 0.0
C266 C 0.2241 0.64741 0.45174 0.0
C267 C 0.24741 0.65605 0.43981 0.0
C268 C 0.26016 0.67146 0.45762 0.0
N269 N 0.24629 0.67304 0.47999 0.0
Co270 Co 0.25606 0.69508 0.51 0.0
N271 N 0.28149 0.71645 0.48921 0.0
C272 C 0.2915 0.71025 0.46579 0.0
C273 C 0.3087 0.72868 0.45597 0.0
C274 C 0.30991 0.74748 0.47452 0.0
C275 C 0.29347 0.73935 0.49482 0.0
N276 N 0.26541 0.71694 0.54022 0.0
C277 C 0.27873 0.73981 0.54166 0.0
C278 C 0.28178 0.74785 0.56695 0.0
C279 C 0.27032 0.72919 0.58172 0.0
C280 C 0.26093 0.71084 0.56477 0.0
N281 N 0.23082 0.67347 0.53062 0.0
C282 C 0.23061 0.67151 0.55611 0.0
C283 C 0.21088 0.6548 0.565 0.0
C284 C 0.19788 0.64574 0.54374 0.0
C285 C 0.2104 0.65759 0.52305 0.0
N286 N 0.28547 0.67342 0.51712 0.0
C287 C 0.32868 0.64395 0.52723 0.0
C288 C 0.33096 0.67027 0.52944 0.0
C289 C 0.30946 0.68449 0.52419 0.0
C290 C 0.30415 0.63263 0.51958 0.0
C291 C 0.28275 0.64767 0.51484 0.0
N292 N 0.22725 0.71718 0.50287 0.0
C293 C 0.19136 0.74302 0.51759 0.0
C294 C 0.18934 0.75248 0.49312 0.0
C295 C 0.20622 0.7431 0.47355 0.0
C296 C 0.2248 0.72551 0.47875 0.0
C297 C 0.2104 0.72551 0.52206 0.0
H298 H 0.23755 0.719 0.46323 0.0
H299 H 0.21188 0.71912 0.54119 0.0
H300 H 0.31253 0.70462 0.52581 0.0
H301 H 0.26403 0.63848 0.50933 0.0
C302 C 0.28146 0.68877 0.45235 0.0
C303 C 0.20332 0.65241 0.49641 0.0
C304 C 0.29205 0.7526 0.51992 0.0
C305 C 0.24548 0.68906 0.57107 0.0
H306 H 0.20882 0.63534 0.44289 0.0
H307 H 0.25342 0.65281 0.41999 0.0
H308 H 0.31864 0.72876 0.43731 0.0
H309 H 0.32192 0.76497 0.4734 0.0
H310 H 0.292 0.76501 0.57402 0.0
H311 H 0.26881 0.72914 0.60236 0.0
H312 H 0.20571 0.65061 0.58465 0.0
H313 H 0.18109 0.63208 0.54348 0.0
H314 H 0.34953 0.67999 0.53482 0.0
H315 H 0.30137 0.61233 0.51764 0.0
H316 H 0.1789 0.74968 0.53342 0.0
H317 H 0.20516 0.74935 0.45422 0.0
C318 C 0.79153 0.87851 0.47675 0.0
C319 C 0.79615 0.88728 0.45233 0.0
C320 C 0.77512 0.8778 0.43811 0.0
C321 C 0.75888 0.86369 0.45449 0.0
N322 N 0.76847 0.864 0.47805 0.0
Co323 Co 0.75372 0.84414 0.5069 0.0
N324 N 0.73455 0.81972 0.48404 0.0
C325 C 0.72826 0.82374 0.45989 0.0
C326 C 0.71464 0.80327 0.44884 0.0
C327 C 0.71211 0.78554 0.46735 0.0
C328 C 0.72434 0.79622 0.48877 0.0
N329 N 0.73957 0.82472 0.5362 0.0
C330 C 0.72932 0.80073 0.53669 0.0
C331 C 0.72136 0.79453 0.56144 0.0
C332 C 0.72674 0.81558 0.57674 0.0
C333 C 0.73762 0.83344 0.56059 0.0
N334 N 0.77307 0.86869 0.5295 0.0
C335 C 0.76766 0.87335 0.55444 0.0
C336 C 0.78589 0.89058 0.56506 0.0
C337 C 0.80385 0.89683 0.54554 0.0
C338 C 0.79553 0.88298 0.52413 0.0
N339 N 0.72134 0.864 0.50921 0.0
C340 C 0.67276 0.8882 0.50634 0.0
C341 C 0.67311 0.86258 0.51119 0.0
C342 C 0.69718 0.85106 0.51267 0.0
C343 C 0.69759 0.90187 0.5041 0.0
C344 C 0.72167 0.88938 0.50542 0.0
N345 N 0.7847 0.82312 0.50403 0.0
C346 C 0.81383 0.79529 0.52332 0.0
C347 C 0.81962 0.78363 0.49944 0.0
C348 C 0.80927 0.79366 0.47785 0.0
C349 C 0.79211 0.81334 0.48052 0.0
C350 C 0.79633 0.81505 0.5252 0.0
H351 H 0.78362 0.81962 0.46351 0.0
H352 H 0.79113 0.82288 0.54388 0.0
H353 H 0.69592 0.83119 0.51583 0.0
H354 H 0.74047 0.90003 0.50279 0.0
C355 C 0.73941 0.84497 0.44722 0.0
C356 C 0.80865 0.88413 0.49872 0.0
C357 C 0.72404 0.78462 0.51386 0.0
C358 C 0.75022 0.8567 0.56801 0.0
H359 H 0.81312 0.89869 0.44527 0.0
H360 H 0.77311 0.87941 0.41778 0.0
H361 H 0.70817 0.80108 0.4294 0.0
H362 H 0.70223 0.767 0.46536 0.0
H363 H 0.71221 0.77681 0.56775 0.0
H364 H 0.72384 0.81734 0.59726 0.0
H365 H 0.78716 0.89651 0.58495 0.0
H366 H 0.82127 0.90965 0.54694 0.0
H367 H 0.65467 0.85123 0.51369 0.0
H368 H 0.69841 0.92182 0.50055 0.0
H369 H 0.82164 0.78841 0.54053 0.0
H370 H 0.81379 0.78584 0.45893 0.0
C371 C 0.49335 0.77606 0.86851 0.0
C372 C 0.46854 0.78208 0.87863 0.0
C373 C 0.45083 0.76313 0.87099 0.0
C374 C 0.46562 0.74667 0.85654 0.0
N375 N 0.49189 0.75367 0.85496 0.0
Co376 Co 0.51992 0.73673 0.83326 0.0
N377 N 0.49283 0.71296 0.8165 0.0
C378 C 0.46638 0.71107 0.82228 0.0
C379 C 0.4527 0.69303 0.80785 0.0
C380 C 0.47148 0.6829 0.79173 0.0
C381 C 0.49567 0.69549 0.79713 0.0
N382 N 0.54803 0.72015 0.81148 0.0
C383 C 0.54582 0.70228 0.7923 0.0
C384 C 0.57063 0.69716 0.78146 0.0
C385 C 0.58906 0.71188 0.79444 0.0
C386 C 0.57463 0.72537 0.81226 0.0
N387 N 0.5468 0.76097 0.84968 0.0
C388 C 0.57358 0.76104 0.84636 0.0
C389 C 0.58683 0.78094 0.85865 0.0
C390 C 0.56734 0.7948 0.86995 0.0
C391 C 0.54321 0.78259 0.86378 0.0
N392 N 0.52406 0.7114 0.86007 0.0
C393 C 0.5304 0.66755 0.88807 0.0
C394 C 0.55233 0.68338 0.8807 0.0
C395 C 0.54874 0.705 0.86701 0.0
C396 C 0.50512 0.6755 0.88316 0.0
C397 C 0.50247 0.69744 0.86975 0.0
N398 N 0.51584 0.76109 0.8064 0.0
C399 C 0.53515 0.78918 0.77475 0.0
C400 C 0.50986 0.79432 0.76688 0.0
C401 C 0.48764 0.78273 0.77934 0.0
C402 C 0.49106 0.76637 0.79894 0.0
C403 C 0.53767 0.77262 0.79443 0.0
H404 H 0.47339 0.75803 0.80771 0.0
H405 H 0.55744 0.76935 0.79968 0.0
H406 H 0.56637 0.7158 0.8618 0.0
H407 H 0.48266 0.70216 0.86687 0.0
C408 C 0.45492 0.72704 0.84089 0.0
C409 C 0.51743 0.79288 0.87081 0.0
C410 C 0.52076 0.68998 0.78347 0.0
C411 C 0.58531 0.74431 0.82871 0.0
H412 H 0.46343 0.79892 0.88944 0.0
H413 H 0.42941 0.76232 0.87417 0.0
H414 H 0.43154 0.68798 0.80879 0.0
H415 H 0.46774 0.66792 0.77758 0.0
H416 H 0.57509 0.68441 0.76554 0.0
H417 H 0.61042 0.71311 0.79084 0.0
H418 H 0.60807 0.78559 0.85825 0.0
H419 H 0.57046 0.8124 0.88073 0.0
H420 H 0.57237 0.67899 0.88506 0.0
H421 H 0.48726 0.6644 0.88866 0.0
H422 H 0.55294 0.79804 0.76594 0.0
H423 H 0.46764 0.78593 0.77376 0.0
C424 C 0.54951 0.26864 0.65484 0.0
C425 C 0.5724 0.27175 0.63947 0.0
C426 C 0.5865 0.25062 0.64198 0.0
C427 C 0.57155 0.23587 0.65879 0.0
N428 N 0.54897 0.24643 0.66679 0.0
Co429 Co 0.52277 0.23317 0.69282 0.0
N430 N 0.54886 0.21125 0.70687 0.0
C431 C 0.5714 0.20424 0.69459 0.0
C432 C 0.58503 0.18796 0.70821 0.0
C433 C 0.56994 0.18421 0.73022 0.0
C434 C 0.54784 0.19853 0.72889 0.0
N435 N 0.49629 0.22037 0.71894 0.0
C436 C 0.49975 0.20754 0.74035 0.0
C437 C 0.47548 0.20266 0.75329 0.0
C438 C 0.45625 0.21186 0.73895 0.0
C439 C 0.46971 0.22213 0.71826 0.0
N440 N 0.49683 0.25483 0.67847 0.0
C441 C 0.47017 0.25214 0.68119 0.0
C442 C 0.45769 0.27085 0.66974 0.0
C443 C 0.47786 0.28624 0.65938 0.0
C444 C 0.50152 0.27604 0.66522 0.0
N445 N 0.51146 0.20559 0.66925 0.0
C446 C 0.49626 0.16551 0.63596 0.0
C447 C 0.49876 0.16176 0.66196 0.0
C448 C 0.50651 0.1819 0.67817 0.0
C449 C 0.50152 0.18976 0.62684 0.0
C450 C 0.50882 0.20964 0.64388 0.0
N451 N 0.53419 0.26066 0.71605 0.0
C452 C 0.5236 0.29753 0.74118 0.0
C453 C 0.5507 0.30412 0.74336 0.0
C454 C 0.56947 0.28823 0.73258 0.0
C455 C 0.56077 0.26655 0.71886 0.0
C456 C 0.51573 0.27553 0.72765 0.0
H457 H 0.57556 0.25495 0.70995 0.0
H458 H 0.49473 0.2709 0.72597 0.0
H459 H 0.50868 0.17812 0.69795 0.0
H460 H 0.51246 0.22827 0.63656 0.0
C461 C 0.58063 0.21573 0.67197 0.0
C462 C 0.52814 0.28641 0.6576 0.0
C463 C 0.52498 0.19718 0.74732 0.0
C464 C 0.45855 0.23622 0.6997 0.0
H465 H 0.57856 0.28771 0.62806 0.0
H466 H 0.60614 0.2473 0.63388 0.0
H467 H 0.60388 0.18003 0.70298 0.0
H468 H 0.57437 0.17185 0.74522 0.0
H469 H 0.47188 0.19297 0.77096 0.0
H470 H 0.43506 0.21155 0.7434 0.0
H471 H 0.43661 0.27398 0.67036 0.0
H472 H 0.4755 0.30325 0.64919 0.0
H473 H 0.49525 0.14321 0.66968 0.0
H474 H 0.49975 0.19335 0.6068 0.0
H475 H 0.50866 0.30929 0.74992 0.0
H476 H 0.5906 0.29271 0.73446 0.0
C477 C 0.8468 0.48352 0.76842 0.0
C478 C 0.86033 0.46145 0.76701 0.0
C479 C 0.85078 0.44737 0.74638 0.0
C480 C 0.83283 0.46199 0.73569 0.0
N481 N 0.83089 0.48428 0.7482 0.0
Co482 Co 0.81083 0.51239 0.73694 0.0
N483 N 0.78635 0.48942 0.71721 0.0
C484 C 0.79143 0.46573 0.7093 0.0
C485 C 0.77122 0.4543 0.69544 0.0
C486 C 0.75262 0.47207 0.69418 0.0
C487 C 0.76264 0.49362 0.70715 0.0
N488 N 0.79099 0.54092 0.72607 0.0
C489 C 0.7669 0.54109 0.71534 0.0
C490 C 0.76151 0.56547 0.70933 0.0
C491 C 0.78319 0.58079 0.71612 0.0
C492 C 0.80062 0.56509 0.7259 0.0
N493 N 0.83572 0.53499 0.75639 0.0
C494 C 0.84215 0.55914 0.75133 0.0
C495 C 0.86262 0.56916 0.76582 0.0
C496 C 0.86909 0.55 0.78099 0.0
C497 C 0.85142 0.52962 0.77563 0.0
N498 N 0.83447 0.51546 0.70608 0.0
C499 C 0.86668 0.51729 0.66074 0.0
C500 C 0.83918 0.52019 0.6605 0.0
C501 C 0.8236 0.51911 0.68307 0.0
C502 C 0.8778 0.51407 0.68454 0.0
C503 C 0.86141 0.51325 0.70692 0.0
N504 N 0.78721 0.50908 0.76725 0.0
C505 C 0.76522 0.52723 0.80456 0.0
C506 C 0.75363 0.50354 0.81075 0.0
C507 C 0.7594 0.48273 0.79483 0.0
C508 C 0.77635 0.48585 0.77337 0.0
C509 C 0.78176 0.52964 0.78257 0.0
H510 H 0.78077 0.46938 0.76175 0.0
H511 H 0.79019 0.54809 0.77795 0.0
H512 H 0.80257 0.52104 0.68167 0.0
H513 H 0.87048 0.5105 0.72485 0.0
C514 C 0.81406 0.45424 0.7174 0.0
C515 C 0.85079 0.50471 0.78732 0.0
C516 C 0.75088 0.51842 0.70679 0.0
C517 C 0.82521 0.57241 0.73672 0.0
H518 H 0.87568 0.45611 0.77929 0.0
H519 H 0.85581 0.4285 0.74042 0.0
H520 H 0.76997 0.43524 0.68743 0.0
H521 H 0.73419 0.46965 0.68417 0.0
H522 H 0.74427 0.57145 0.69998 0.0
H523 H 0.7859 0.60095 0.71406 0.0
H524 H 0.87122 0.58828 0.76602 0.0
H525 H 0.88494 0.551 0.79443 0.0
H526 H 0.82953 0.52345 0.64292 0.0
H527 H 0.89892 0.51169 0.68589 0.0
H528 H 0.76114 0.54381 0.81634 0.0
H529 H 0.75109 0.46405 0.79911 0.0
C530 C 0.17419 0.02428 0.81236 0.0
C531 C 0.16443 0.04772 0.81844 0.0
C532 C 0.17339 0.06331 0.79951 0.0
C533 C 0.18827 0.0487 0.78306 0.0
N534 N 0.18899 0.02454 0.79004 0.0
Co535 Co 0.211 0.99794 0.77286 0.0
N536 N 0.2263 0.02161 0.74631 0.0
C537 C 0.21977 0.04565 0.74368 0.0
C538 C 0.23201 0.05693 0.72295 0.0
C539 C 0.24707 0.03895 0.7114 0.0
C540 C 0.24333 0.01766 0.7259 0.0
N541 N 0.23378 0.9716 0.75638 0.0
C542 C 0.25085 0.97249 0.73562 0.0
C543 C 0.26302 0.94988 0.73136 0.0
C544 C 0.25291 0.93402 0.74962 0.0
C545 C 0.23539 0.9478 0.76413 0.0
N546 N 0.19509 0.97407 0.79885 0.0
C547 C 0.19927 0.94926 0.79976 0.0
C548 C 0.18603 0.93763 0.8198 0.0
C549 C 0.17285 0.95618 0.8327 0.0
C550 C 0.17899 0.97821 0.81986 0.0
N551 N 0.1819 0.98758 0.74932 0.0
C552 C 0.14896 0.9747 0.7079 0.0
C553 C 0.16165 0.95621 0.72036 0.0
C554 C 0.17771 0.96298 0.74101 0.0
C555 C 0.15122 0.99937 0.71805 0.0
C556 C 0.16738 1.00526 0.73873 0.0
N557 N 0.24017 0.00839 0.79604 0.0
C558 C 0.2706 0.99872 0.82841 0.0
C559 C 0.2802 0.02386 0.83025 0.0
C560 C 0.26957 0.04107 0.81461 0.0
C561 C 0.24968 0.03303 0.79786 0.0
C562 C 0.25087 0.9914 0.81116 0.0
H563 H 0.24223 0.04715 0.78667 0.0
H564 H 0.24457 0.97192 0.8104 0.0
H565 H 0.18721 0.94808 0.74934 0.0
H566 H 0.16858 0.02448 0.74509 0.0
C567 C 0.20249 0.05726 0.76135 0.0
C568 C 0.16979 1.00269 0.82895 0.0
C569 C 0.25581 0.99398 0.71903 0.0
C570 C 0.21856 0.93835 0.78375 0.0
H571 H 0.15257 0.05322 0.83512 0.0
H572 H 0.17006 0.08313 0.79825 0.0
H573 H 0.23006 0.07592 0.71685 0.0
H574 H 0.25919 0.0412 0.69407 0.0
H575 H 0.27744 0.94516 0.71637 0.0
H576 H 0.25734 0.91455 0.75169 0.0
H577 H 0.18684 0.91823 0.82509 0.0
H578 H 0.16071 0.95391 0.85002 0.0
H579 H 0.15981 0.93667 0.71381 0.0
H580 H 0.14171 0.01446 0.70932 0.0
H581 H 0.27861 0.98465 0.83991 0.0
H582 H 0.27634 0.06078 0.81549 0.0
C583 C 0.73965 0.16775 0.97123 0.0
C584 C 0.73526 0.16164 0.94572 0.0
C585 C 0.75417 0.17513 0.9318 0.0
C586 C 0.76889 0.18883 0.94944 0.0
N587 N 0.76086 0.1846 0.97389 0.0
Co588 Co 0.775 0.2026 1.00538 0.0
N589 N 0.79937 0.22573 0.98465 0.0
C590 C 0.80254 0.22546 0.95893 0.0
C591 C 0.82073 0.24356 0.95012 0.0
C592 C 0.82982 0.25612 0.9715 0.0
C593 C 0.81665 0.24483 0.9922 0.0
N594 N 0.78875 0.22054 0.03693 0.0
C595 C 0.8069 0.24022 0.03956 0.0
C596 C 0.81099 0.24667 0.06506 0.0
C597 C 0.79483 0.23052 0.07905 0.0
C598 C 0.78189 0.21518 0.06139 0.0
N599 N 0.75047 0.17948 0.026 0.0
C600 C 0.74868 0.17836 0.05172 0.0
C601 C 0.72956 0.16107 0.06045 0.0
C602 C 0.718 0.15087 0.03906 0.0
C603 C 0.73068 0.16272 0.01845 0.0
N604 N 0.80449 0.1787 1.00644 0.0
C605 C 0.85285 0.15365 0.00971 0.0
C606 C 0.83544 0.15675 0.03098 0.0
C607 C 0.81166 0.16906 0.02893 0.0
C608 C 0.84442 0.16184 0.98642 0.0
C609 C 0.82036 0.1738 0.98518 0.0
N610 N 0.74639 0.22701 1.00437 0.0
C611 C 0.7137 0.25296 0.02595 0.0
C612 C 0.70954 0.26536 1.00345 0.0
C613 C 0.72344 0.25737 0.98128 0.0
C614 C 0.74142 0.23832 0.98212 0.0
C615 C 0.73205 0.234 0.02599 0.0
H616 H 0.75136 0.23326 0.96454 0.0
H617 H 0.7347 0.2255 0.04379 0.0
H618 H 0.79972 0.17101 0.04599 0.0
H619 H 0.81551 0.17954 0.96683 0.0
C620 C 0.78806 0.20801 0.94358 0.0
C621 C 0.72229 0.15828 0.99223 0.0
C622 C 0.82118 0.25298 0.01862 0.0
C623 C 0.76341 0.19546 0.06717 0.0
H624 H 0.71949 0.14946 0.9378 0.0
H625 H 0.75605 0.17586 0.91122 0.0
H626 H 0.82667 0.24719 0.9305 0.0
H627 H 0.84451 0.2718 0.97181 0.0
H628 H 0.82447 0.26138 0.07277 0.0
H629 H 0.79288 0.22993 0.09964 0.0
H630 H 0.72398 0.15707 0.08007 0.0
H631 H 0.70155 0.13683 0.0387 0.0
H632 H 0.84016 0.14993 0.04936 0.0
H633 H 0.8567 0.15992 0.96915 0.0
H634 H 0.70342 0.25831 0.04366 0.0
H635 H 0.72049 0.2658 0.9632 0.0
Co636 Co 0.06572 0.04744 0.05457 0.0
C637 C 0.0645 0.08743 0.09234 0.0
Co638 Co 0.08757 0.0831 0.04455 0.0
C639 C 0.05524 0.99484 0.06713 0.0
C640 C 0.02039 0.01599 0.07184 0.0
N641 N 0.0464 0.01815 0.06459 0.0
N642 N 0.03577 0.97827 0.07558 0.0
C643 C 0.01379 0.99156 0.07845 0.0
H644 H 0.0756 0.99009 0.06289 0.0
H645 H 1.00713 0.03131 0.07273 0.0
C646 C 0.08977 0.04454 1.00589 0.0
N647 N 0.1079 0.11123 0.03393 0.0
C648 C 0.10435 0.1362 0.03655 0.0
C649 C 0.13097 0.10956 0.0201 0.0
N650 N 0.12406 0.14987 0.02433 0.0
C651 C 0.14078 0.13316 0.01405 0.0
C652 C 0.11795 0.04981 0.07019 0.0
O653 O 0.07601 0.03085 0.02162 0.0
O654 O 0.09589 0.06712 0.01273 0.0
O655 O 0.11884 0.07084 0.05928 0.0
O656 O 0.09649 0.03608 0.06971 0.0
O657 O 0.07927 0.09907 0.07597 0.0
H658 H 0.14019 0.09218 0.01475 0.0
H659 H 0.08765 0.14416 0.04694 0.0
O660 O 0.05594 0.06476 0.08707 0.0
O661 O 0.03472 0.05943 0.03996 0.0
O662 O 0.05572 0.09543 0.03084 0.0
C663 C 0.03417 0.08151 0.03149 0.0
H664 H 0.99448 0.98433 0.08558 0.0
H665 H 0.15918 0.13782 1.00343 0.0
Co666 Co 0.95215 0.45455 0.07381 0.0
C667 C 0.95803 0.50506 0.05959 0.0
Co668 Co 0.94202 0.46184 0.03396 0.0
C669 C 0.97088 0.4318 0.11825 0.0
C670 C 0.9521 0.4662 0.1276 0.0
N671 N 0.95922 0.45091 0.10772 0.0
N672 N 0.97106 0.43441 0.14393 0.0
C673 C 0.95928 0.45607 0.14989 0.0
H674 H 0.97805 0.41574 0.10735 0.0
H675 H 0.94167 0.48326 0.12602 0.0
C676 C 0.93506 0.4113 0.04817 0.0
N677 N 0.93492 0.4644 0.99886 0.0
C678 C 0.91882 0.47802 0.98504 0.0
C679 C 0.94722 0.44961 0.98114 0.0
N680 N 0.92132 0.47242 0.95954 0.0
C681 C 0.93916 0.45455 0.95732 0.0
C682 C 0.99644 0.45164 0.04187 0.0
O683 O 0.94416 0.41919 0.06947 0.0
O684 O 0.93292 0.42686 0.03072 0.0
O685 O 0.97988 0.45588 0.02484 0.0
O686 O 0.98806 0.45043 0.06488 0.0
O687 O 0.9511 0.49687 0.03759 0.0
H688 H 0.96108 0.43564 0.98526 0.0
H689 H 0.9058 0.49183 0.99339 0.0
O690 O 0.95943 0.48988 0.07758 0.0
O691 O 0.91673 0.45856 0.08324 0.0
O692 O 0.90455 0.46771 0.04506 0.0
C693 C 0.89868 0.46437 0.06878 0.0
H694 H 0.95572 0.46382 0.169 0.0
H695 H 0.94561 0.44532 0.9396 0.0
Co696 Co 0.05871 0.94558 0.46053 0.0
C697 C 0.09728 0.94721 0.41949 0.0
Co698 Co 0.04603 0.92712 0.42432 0.0
C699 C 0.07383 0.95385 0.51351 0.0
C700 C 0.08058 0.98662 0.49122 0.0
N701 N 0.07091 0.96246 0.4899 0.0
N702 N 0.08507 0.9717 0.52945 0.0
C703 C 0.08908 0.99237 0.51538 0.0
H704 H 0.06862 0.93463 0.51862 0.0
H705 H 0.0819 0.9992 0.47545 0.0
C706 C 1.00626 0.92563 0.46378 0.0
N707 N 0.03386 0.91 0.39511 0.0
C708 C 0.04288 0.91122 0.37054 0.0
C709 C 0.01478 0.8911 0.39496 0.0
N710 N 0.02991 0.894 0.35525 0.0
C711 C 0.01217 0.88145 0.37062 0.0
C712 C 0.07105 0.89528 0.45679 0.0
O713 O 0.02392 0.93699 0.47762 0.0
O714 O 0.01262 0.9201 0.44077 0.0
O715 O 0.05918 0.89599 0.43579 0.0
O716 O 0.07255 0.91511 0.47106 0.0
O717 O 0.07907 0.93441 0.40802 0.0
H718 H 1.00452 0.88354 0.41167 0.0
H719 H 0.05931 0.92372 0.36413 0.0
O720 O 0.09293 0.95423 0.44276 0.0
O721 O 0.04537 0.97584 0.44962 0.0
O722 O 0.03371 0.9586 0.41288 0.0
C723 C 0.03588 0.97807 0.42779 0.0
H724 H 0.09768 0.01045 0.52195 0.0
H725 H 0.99966 0.86508 0.365 0.0
Co726 Co 0.97006 0.57128 0.44544 0.0
C727 C 0.02307 0.56691 0.45832 0.0
Co728 Co 0.9846 0.53242 0.43857 0.0
C729 C 0.93745 0.61552 0.45853 0.0
C730 C 0.97611 0.62442 0.44175 0.0
N731 N 0.95987 0.60479 0.44922 0.0
N732 N 0.93924 0.64101 0.45684 0.0
C733 C 0.96366 0.64643 0.44638 0.0
H734 H 0.92008 0.60485 0.46597 0.0
H735 H 0.99594 0.62285 0.43334 0.0
C736 C 0.93231 0.53763 0.42426 0.0
N737 N 0.99568 0.49874 0.43466 0.0
C738 C 0.99083 0.47961 0.41708 0.0
C739 C 0.01103 0.48864 0.45165 0.0
N740 N 1.00293 0.45824 0.42246 0.0
C741 C 0.01552 0.46415 0.44429 0.0
C742 C 0.95979 0.5427 0.48757 0.0
O743 O 0.9364 0.5603 0.43258 0.0
O744 O 0.9506 0.52217 0.42569 0.0
O745 O 0.97106 0.52592 0.47348 0.0
O746 O 0.95754 0.56441 0.4788 0.0
O747 O 0.01894 0.54389 0.45129 0.0
H748 H 0.01829 0.49839 0.46868 0.0
H749 H 0.97879 0.48136 0.40064 0.0
O750 O 1.00427 0.58177 0.45767 0.0
O751 O 0.98247 0.57768 0.41213 0.0
O752 O 0.99749 0.54023 0.40397 0.0
C753 C 0.99383 0.56243 0.39673 0.0
H754 H 0.97218 0.66511 0.44255 0.0
H755 H 0.0268 0.45145 0.45468 0.0
Co756 Co 0.44563 0.94414 0.57116 0.0
C757 C 0.45617 0.99491 0.55764 0.0
Co758 Co 0.42984 0.95504 0.53437 0.0
C759 C 0.46872 0.91563 0.61004 0.0
C760 C 0.46444 0.95427 0.62143 0.0
N761 N 0.46054 0.93754 0.60178 0.0
N762 N 0.47762 0.91813 0.63403 0.0
C763 C 0.475 0.94244 0.64119 0.0
H764 H 0.46792 0.89815 0.5988 0.0
H765 H 0.45925 0.97372 0.62172 0.0
C766 C 0.41796 0.90463 0.54776 0.0
N767 N 0.41334 0.9615 0.50335 0.0
C768 C 0.42247 0.96805 0.47958 0.0
C769 C 0.38661 0.95873 0.5012 0.0
N770 N 0.4023 0.96984 0.46332 0.0
C771 C 0.37987 0.96403 0.47699 0.0
C772 C 0.48176 0.93727 0.52999 0.0
O773 O 0.43056 0.91044 0.56792 0.0
O774 O 0.4164 0.92107 0.53101 0.0
O775 O 0.46399 0.94613 0.51635 0.0
O776 O 0.47665 0.93481 0.55364 0.0
O777 O 0.44296 0.9889 0.53793 0.0
H778 H 0.37262 0.95259 0.51613 0.0
H779 H 0.44335 0.97136 0.47429 0.0
O780 O 0.45992 0.97817 0.57365 0.0
O781 O 0.41503 0.95309 0.58938 0.0
O782 O 0.3968 0.96387 0.55458 0.0
C783 C 0.39522 0.96109 0.57875 0.0
H784 H 0.47934 0.95084 0.65979 0.0
H785 H 0.35996 0.96313 0.46973 0.0
Co786 Co 0.54007 0.53846 0.58586 0.0
C787 C 0.53824 0.58015 0.6218 0.0
Co788 Co 0.55823 0.5749 0.57281 0.0
C789 C 0.53588 0.48527 0.59996 0.0
C790 C 0.50096 0.505 0.61025 0.0
N791 N 0.52536 0.50813 0.59894 0.0
N792 N 0.51883 0.46802 0.61128 0.0
C793 C 0.49688 0.48053 0.61773 0.0
H794 H 0.55557 0.48133 0.59239 0.0
H795 H 0.48704 0.51968 0.61312 0.0
C796 C 0.56258 0.53482 0.53649 0.0
N797 N 0.57267 0.60435 0.55847 0.0
C798 C 0.59523 0.6186 0.56324 0.0
C799 C 0.56387 0.61333 0.53675 0.0
N800 N 0.60076 0.63572 0.54509 0.0
C801 C 0.58094 0.63254 0.52861 0.0
C802 C 0.59397 0.54723 0.59741 0.0
O803 O 0.5499 0.52121 0.55305 0.0
O804 O 0.56699 0.55803 0.54191 0.0
O805 O 0.59204 0.56764 0.58582 0.0
O806 O 0.57378 0.53174 0.59889 0.0
O807 O 0.55012 0.59195 0.60368 0.0
H808 H 0.54693 0.6055 0.52648 0.0
H809 H 0.60813 0.61556 0.57875 0.0
O810 O 0.53127 0.55675 0.61826 0.0
O811 O 0.50585 0.54575 0.5731 0.0
O812 O 0.52375 0.58185 0.56075 0.0
C813 C 0.50329 0.56681 0.563 0.0
H814 H 0.47923 0.47271 0.62767 0.0
H815 H 0.57934 0.64293 0.51143 0.0
Co816 Co 0.57972 0.46317 0.99113 0.0
C817 C 0.61824 0.46573 0.95052 0.0
Co818 Co 0.56758 0.44512 0.9546 0.0
C819 C 0.59427 0.47048 0.04433 0.0
C820 C 0.60185 0.50353 0.02259 0.0
N821 N 0.5918 0.47951 0.02083 0.0
N822 N 0.60538 0.48801 0.06066 0.0
C823 C 0.61008 0.50882 0.04696 0.0
H824 H 0.58824 0.45137 0.0493 0.0
H825 H 0.60378 0.51625 0.00694 0.0
C826 C 0.52776 0.44276 0.9938 0.0
N827 N 0.55533 0.42881 0.92539 0.0
C828 C 0.56073 0.43373 0.9006 0.0
C829 C 0.53827 0.4083 0.92502 0.0
N830 N 0.54731 0.41726 0.88493 0.0
C831 C 0.53321 0.40127 0.90027 0.0
C832 C 0.59247 0.41284 0.9861 0.0
O833 O 0.54514 0.45405 0.00796 0.0
O834 O 0.53435 0.4376 0.97078 0.0
O835 O 0.58069 0.41415 0.9652 0.0
O836 O 0.59392 0.43228 1.001 0.0
O837 O 0.60062 0.45288 0.93833 0.0
H838 H 0.53049 0.39862 0.94171 0.0
H839 H 0.57446 0.4488 0.89418 0.0
O840 O 0.61351 0.47241 0.97376 0.0
O841 O 0.56613 0.49382 0.98062 0.0
O842 O 0.55506 0.47628 0.94382 0.0
C843 C 0.55683 0.49576 0.95863 0.0
H844 H 0.61969 0.52639 0.05379 0.0
H845 H 0.52118 0.38484 0.89396 0.0
Co846 Co 0.48384 0.0909 0.95494 0.0
C847 C 0.53804 0.07938 0.96059 0.0
Co848 Co 0.49575 0.05288 0.93999 0.0
C849 C 0.45328 0.13344 0.97555 0.0
C850 C 0.49522 0.14228 0.97198 0.0
N851 N 0.4767 0.12314 0.96875 0.0
N852 N 0.45666 0.15808 0.98301 0.0
C853 C 0.48309 0.16351 0.98077 0.0
H854 H 0.43409 0.1232 0.97471 0.0
H855 H 0.51626 0.14131 0.96736 0.0
C856 C 0.4423 0.06448 0.93306 0.0
N857 N 0.50179 0.02047 0.92417 0.0
C858 C 0.50618 0.99712 0.93261 0.0
C859 C 0.49757 0.01622 0.89903 0.0
N860 N 0.50474 0.97898 0.91356 0.0
C861 C 0.49937 0.99119 0.89259 0.0
C862 C 0.47551 0.053 0.99058 0.0
O863 O 0.44801 0.08531 0.94481 0.0
O864 O 0.46014 0.04865 0.92952 0.0
O865 O 0.48469 0.03823 0.97286 0.0
O866 O 0.47459 0.07633 0.98639 0.0
O867 O 0.53169 0.05781 0.95047 0.0
H868 H 0.49188 0.03018 0.88615 0.0
H869 H 0.50885 0.99326 0.95243 0.0
O870 O 0.52043 0.09553 0.96422 0.0
O871 O 0.49257 0.10537 0.92362 0.0
O872 O 0.50621 0.0695 0.90775 0.0
C873 C 0.50222 0.09273 0.90492 0.0
H874 H 0.49295 0.18189 0.98416 0.0
H875 H 0.49601 0.98238 0.87396 0.0
C876 C 0.04658 0.11461 0.3711 0.0
C877 C 0.02404 0.12888 0.37448 0.0
C878 C 0.04696 0.0903 0.38065 0.0
C879 C 0.02404 0.07964 0.39362 0.0
C880 C 1.00135 0.09416 0.39756 0.0
C881 C 1.00169 0.11869 0.3881 0.0
C882 C 0.0718 0.07585 0.37645 0.0
C883 C 0.97643 0.08349 0.41106 0.0
C884 C 0.02043 0.00761 0.39534 0.0
C885 C 0.0299 1.00369 0.41962 0.0
C886 C 0.01733 0.03218 0.38701 0.0
C887 C 0.02416 0.0534 0.40317 0.0
C888 C 0.03298 0.04948 0.42793 0.0
C889 C 0.03556 0.02482 0.43586 0.0
C890 C 1.00751 0.03546 0.36059 0.0
C891 C 0.04081 0.07139 0.44574 0.0
H892 H 0.06387 0.1224 0.36051 0.0
H893 H 0.98408 0.12948 0.39039 0.0
H894 H 0.07877 0.0699 0.39499 0.0
H895 H 0.06733 0.05851 0.36462 0.0
H896 H 0.08825 0.08712 0.36679 0.0
H897 H 0.96072 0.09733 0.41317 0.0
H898 H 0.96841 0.06661 0.40022 0.0
H899 H 0.9811 0.07736 0.43028 0.0
H900 H 0.01596 0.99153 0.38263 0.0
H901 H 0.04286 0.02219 0.45469 0.0
H902 H 0.02371 0.04438 0.34851 0.0
H903 H 0.99076 0.04817 0.36145 0.0
H904 H 1.00078 0.01724 0.35125 0.0
H905 H 0.05841 0.08216 0.43746 0.0
H906 H 0.04579 0.06523 0.4649 0.0
H907 H 0.02444 0.08447 0.44805 0.0
C908 C 0.99337 0.31124 0.38394 0.0
C909 C 1.00381 0.30509 0.35947 0.0
C910 C 0.99163 0.33659 0.39265 0.0
C911 C 1.00074 0.35654 0.37666 0.0
C912 C 0.01096 0.35031 0.35174 0.0
C913 C 0.01251 0.32479 0.34357 0.0
C914 C 0.98076 0.34203 0.41936 0.0
C915 C 0.02097 0.37062 0.33389 0.0
C916 C 0.98066 0.42395 0.39545 0.0
C917 C 1.00281 0.43377 0.40889 0.0
C918 C 0.97979 0.39912 0.3845 0.0
C919 C 1.00162 0.38361 0.3868 0.0
C920 C 0.02431 0.39381 0.39962 0.0
C921 C 0.02461 0.41851 0.41038 0.0
C922 C 0.95519 0.38923 0.371 0.0
C923 C 0.04824 0.37841 0.40246 0.0
H924 H 0.98719 0.29616 0.39656 0.0
H925 H 0.02082 0.32016 0.32472 0.0
H926 H 0.99677 0.35107 0.43111 0.0
H927 H 0.96469 0.35541 0.41898 0.0
H928 H 0.97274 0.32468 0.42877 0.0
H929 H 0.02599 0.36291 0.31444 0.0
H930 H 1.00578 0.38475 0.33243 0.0
H931 H 0.03905 0.38063 0.3416 0.0
H932 H 0.96365 0.43536 0.39422 0.0
H933 H 0.04209 0.42589 0.4202 0.0
H934 H 0.94557 0.37316 0.38141 0.0
H935 H 0.96068 0.38208 0.35148 0.0
H936 H 0.94048 0.40386 0.3696 0.0
H937 H 0.04241 0.36152 0.41359 0.0
H938 H 0.06468 0.38925 0.41222 0.0
H939 H 0.05582 0.37168 0.38343 0.0
C940 C 0.04879 0.83102 0.09944 0.0
C941 C 0.03809 0.8258 0.12388 0.0
C942 C 0.0501 0.8557 0.09045 0.0
C943 C 0.04092 0.87571 0.10644 0.0
C944 C 0.03089 0.87059 0.13142 0.0
C945 C 0.02943 0.84574 0.13974 0.0
C946 C 0.06067 0.86027 0.06362 0.0
C947 C 0.02129 0.89133 0.14929 0.0
C948 C 0.06117 0.94419 0.09207 0.0
C949 C 0.03794 0.95221 0.08167 0.0
C950 C 0.06266 0.91926 0.09982 0.0
C951 C 0.04053 0.9018 0.09677 0.0
C952 C 0.01737 0.90963 0.0855 0.0
C953 C 0.0163 0.93472 0.07828 0.0
C954 C 0.08759 0.91184 0.11204 0.0
C955 C 0.99346 0.89162 0.08152 0.0
H956 H 0.05544 0.81566 0.08709 0.0
H957 H 0.02156 0.84186 0.15881 0.0
H958 H 0.0447 0.86726 0.05219 0.0
H959 H 0.07716 0.87503 0.06383 0.0
H960 H 0.06802 0.84294 0.05396 0.0
H961 H 0.01571 0.88451 0.16864 0.0
H962 H 0.03701 0.90673 0.15109 0.0
H963 H 1.00368 0.89948 0.14141 0.0
H964 H 0.07785 0.95767 0.09498 0.0
H965 H 0.99845 0.94071 0.06995 0.0
H966 H 0.09539 0.89498 0.10192 0.0
H967 H 0.08285 0.90674 0.13208 0.0
H968 H 0.10348 0.92723 0.11197 0.0
H969 H 0.99951 0.87449 0.07061 0.0
H970 H 0.97763 0.90021 0.07112 0.0
H971 H 0.98494 0.88552 0.10025 0.0
C972 C 0.98974 0.65232 0.09276 0.0
C973 C 1.00539 0.65334 0.11432 0.0
C974 C 0.98155 0.6291 0.08114 0.0
C975 C 0.99017 0.60654 0.09076 0.0
C976 C 1.00728 0.60767 0.11165 0.0
C977 C 0.01438 0.63106 0.1234 0.0
C978 C 0.96282 0.62863 0.05931 0.0
C979 C 0.01754 0.58413 0.12206 0.0
C980 C 0.95029 0.5442 0.08491 0.0
C981 C 0.96408 0.53199 0.06488 0.0
C982 C 0.95762 0.56909 0.09246 0.0
C983 C 0.97997 0.58162 0.08031 0.0
C984 C 0.99362 0.56946 0.05963 0.0
C985 C 0.98521 0.54479 0.05188 0.0
C986 C 0.94206 0.5816 0.11409 0.0
C987 C 0.018 0.5819 0.04672 0.0
H988 H 0.98328 0.66969 0.0855 0.0
H989 H 0.02672 0.63196 0.13995 0.0
H990 H 0.97103 0.61781 0.04264 0.0
H991 H 0.94353 0.61894 0.06511 0.0
H992 H 0.95899 0.64786 0.05331 0.0
H993 H 0.03278 0.58846 0.13661 0.0
H994 H 1.00079 0.57269 0.13095 0.0
H995 H 0.02639 0.57241 0.10636 0.0
H996 H 0.93394 0.5341 0.09489 0.0
H997 H 0.99602 0.53504 0.0366 0.0
H998 H 0.93678 0.60063 0.10876 0.0
H999 H 0.95449 0.58402 0.13112 0.0
H1000 H 0.92347 0.57043 0.11943 0.0
H1001 H 0.01385 0.60104 0.04081 0.0
H1002 H 0.02503 0.5708 0.02969 0.0
H1003 H 0.03433 0.58408 0.06041 0.0
C1004 C 0.42101 0.0241 0.13419 0.0
C1005 C 0.39512 0.01267 0.13358 0.0
C1006 C 0.43671 0.0277 0.11155 0.0
C1007 C 0.42628 0.02006 0.08753 0.0
C1008 C 0.40075 0.00739 0.08693 0.0
C1009 C 0.38574 1.00361 0.10981 0.0
C1010 C 0.46399 0.04086 0.11327 0.0
C1011 C 0.38852 0.99909 0.06193 0.0
C1012 C 0.44714 0.05948 0.03019 0.0
C1013 C 0.46394 0.04386 0.01553 0.0
C1014 C 0.43514 0.05197 0.05349 0.0
C1015 C 0.44021 0.02826 0.06305 0.0
C1016 C 0.45748 0.01243 0.04865 0.0
C1017 C 0.46891 0.02027 0.02493 0.0
C1018 C 0.41651 0.06938 0.06766 0.0
C1019 C 0.46384 0.98722 0.05833 0.0
H1020 H 0.42868 0.03123 0.15224 0.0
H1021 H 0.36622 0.99398 0.10892 0.0
H1022 H 0.47871 0.03087 0.10096 0.0
H1023 H 0.46347 0.06024 0.1063 0.0
H1024 H 0.47094 0.04208 0.13315 0.0
H1025 H 0.36956 0.98759 0.0647 0.0
H1026 H 0.38442 0.01592 0.05116 0.0
H1027 H 0.40255 0.98798 0.04997 0.0
H1028 H 0.44283 0.07766 0.02319 0.0
H1029 H 0.48187 0.00807 0.01389 0.0
H1030 H 0.42374 0.07411 0.08706 0.0
H1031 H 0.39641 0.05982 0.06994 0.0
H1032 H 0.41463 0.0872 0.05767 0.0
H1033 H 0.47165 0.98961 0.07782 0.0
H1034 H 0.47874 0.97772 0.04574 0.0
H1035 H 0.44544 0.97475 0.05967 0.0
C1036 C 0.67603 0.48545 0.19287 0.0
C1037 C 0.65821 0.48048 0.21339 0.0
C1038 C 0.66722 0.48474 0.16776 0.0
C1039 C 0.63987 0.47915 0.16323 0.0
C1040 C 0.62191 0.47365 0.18402 0.0
C1041 C 0.63133 0.47442 0.20892 0.0
C1042 C 0.68705 0.49063 0.14619 0.0
C1043 C 0.59263 0.46771 0.18003 0.0
C1044 C 0.61313 0.50605 0.1039 0.0
C1045 C 0.61244 0.48515 0.08677 0.0
C1046 C 0.62167 0.50422 0.12887 0.0
C1047 C 0.62977 0.48088 0.13703 0.0
C1048 C 0.62863 0.45954 0.12005 0.0
C1049 C 0.61991 0.46191 0.09512 0.0
C1050 C 0.6224 0.5274 0.1464 0.0
C1051 C 0.63713 0.43435 0.12804 0.0
H1052 H 0.69683 0.4902 0.19655 0.0
H1053 H 0.61763 0.47082 0.22499 0.0
H1054 H 0.68637 0.47511 0.13147 0.0
H1055 H 0.68177 0.50796 0.13688 0.0
H1056 H 0.70776 0.49347 0.15281 0.0
H1057 H 0.58167 0.46221 0.19793 0.0
H1058 H 0.58361 0.48443 0.17272 0.0
H1059 H 0.58989 0.45219 0.1655 0.0
H1060 H 0.60699 0.52395 0.09773 0.0
H1061 H 0.61971 0.44576 0.08193 0.0
H1062 H 0.64314 0.53218 0.15215 0.0
H1063 H 0.61023 0.52369 0.16408 0.0
H1064 H 0.61486 0.54398 0.13731 0.0
H1065 H 0.65851 0.4359 0.1327 0.0
H1066 H 0.63417 0.41939 0.11291 0.0
H1067 H 0.62572 0.42852 0.14555 0.0
C1068 C 0.34817 0.97895 0.32579 0.0
C1069 C 0.36476 0.99141 0.30766 0.0
C1070 C 0.35681 0.97523 0.35059 0.0
C1071 C 0.38275 0.98425 0.35759 0.0
C1072 C 0.39982 0.99627 0.33905 0.0
C1073 C 0.39075 0.99942 0.31429 0.0
C1074 C 0.33797 0.962 0.36944 0.0
C1075 C 0.42749 0.00633 0.34552 0.0
C1076 C 0.39082 0.99725 0.42918 0.0
C1077 C 0.40287 0.97572 0.43663 0.0
C1078 C 0.38534 1.00079 0.40345 0.0
C1079 C 0.39145 0.98201 0.38457 0.0
C1080 C 0.40446 0.96056 0.39192 0.0
C1081 C 0.41009 0.95773 0.41784 0.0
C1082 C 0.37188 0.02413 0.39668 0.0
C1083 C 0.4111 0.93989 0.37267 0.0
H1084 H 0.3282 0.97243 0.32064 0.0
H1085 H 0.40392 0.00843 0.30012 0.0
H1086 H 0.34754 0.94583 0.37727 0.0
H1087 H 0.33323 0.97509 0.38572 0.0
H1088 H 0.31903 0.95501 0.36073 0.0
H1089 H 0.43857 0.01464 0.32886 0.0
H1090 H 0.42627 0.02099 0.36106 0.0
H1091 H 0.439 0.99104 0.35263 0.0
H1092 H 0.38472 0.01087 0.4438 0.0
H1093 H 0.41868 0.94074 0.42368 0.0
H1094 H 0.3514 0.01887 0.39047 0.0
H1095 H 0.38283 0.03339 0.38051 0.0
H1096 H 0.3706 0.03794 0.41304 0.0
H1097 H 0.39239 0.93042 0.3657 0.0
H1098 H 0.42315 0.92554 0.38087 0.0
H1099 H 0.4222 0.94786 0.35589 0.0
C1100 C 0.64775 0.48515 0.41326 0.0
C1101 C 0.63869 0.49425 0.39045 0.0
C1102 C 0.63366 0.48854 0.4368 0.0
C1103 C 0.60948 0.50102 0.43787 0.0
C1104 C 0.59941 0.50899 0.41478 0.0
C1105 C 0.61411 0.50568 0.39151 0.0
C1106 C 0.64544 0.47986 0.46078 0.0
C1107 C 0.57367 0.5222 0.41478 0.0
C1108 C 0.56636 0.50126 0.50042 0.0
C1109 C 0.57402 0.52489 0.51149 0.0
C1110 C 0.57742 0.49317 0.47639 0.0
C1111 C 0.5969 0.50887 0.46329 0.0
C1112 C 0.60484 0.53251 0.47465 0.0
C1113 C 0.59332 0.54017 0.49826 0.0
C1114 C 0.56812 0.46796 0.46488 0.0
C1115 C 0.62572 0.54988 0.4619 0.0
H1116 H 0.66622 0.47564 0.41288 0.0
H1117 H 0.60674 0.51301 0.37431 0.0
H1118 H 0.65194 0.49651 0.47282 0.0
H1119 H 0.63026 0.46869 0.47212 0.0
H1120 H 0.66286 0.46829 0.4566 0.0
H1121 H 0.56658 0.52404 0.39518 0.0
H1122 H 0.55792 0.51185 0.42625 0.0
H1123 H 0.57662 0.54133 0.42371 0.0
H1124 H 0.5515 0.48928 0.51031 0.0
H1125 H 0.59978 0.55839 0.50649 0.0
H1126 H 0.58526 0.45589 0.46161 0.0
H1127 H 0.55961 0.47054 0.44601 0.0
H1128 H 0.55284 0.45797 0.47723 0.0
H1129 H 0.64454 0.54015 0.45867 0.0
H1130 H 0.63001 0.56751 0.47339 0.0
H1131 H 0.61903 0.55497 0.44296 0.0
C1132 C 0.15586 0.43995 0.01614 0.0
C1133 C 0.16273 0.4173 0.02641 0.0
C1134 C 0.12905 0.44658 0.01604 0.0
C1135 C 0.10843 0.42997 0.02598 0.0
C1136 C 0.11526 0.4067 0.03554 0.0
C1137 C 0.14218 0.40079 0.03584 0.0
C1138 C 0.12289 0.47174 1.00608 0.0
C1139 C 0.09411 0.38817 0.04598 0.0
C1140 C 0.04376 0.45433 0.05508 0.0
C1141 C 0.02536 0.44829 0.03599 0.0
C1142 C 0.07084 0.44944 0.05158 0.0
C1143 C 0.08006 0.43766 0.02852 0.0
C1144 C 0.06174 0.43205 0.00883 0.0
C1145 C 0.03467 0.43767 0.01269 0.0
C1146 C 0.08948 0.45627 0.07298 0.0
C1147 C 0.07052 0.41918 0.98409 0.0
H1148 H 0.17154 0.45286 0.00885 0.0
H1149 H 0.14719 0.38304 0.04338 0.0
H1150 H 0.10744 0.46925 0.99153 0.0
H1151 H 0.11472 0.48373 0.02192 0.0
H1152 H 0.1408 0.48183 0.9975 0.0
H1153 H 0.10235 0.37004 0.05064 0.0
H1154 H 0.08456 0.39633 0.06355 0.0
H1155 H 0.0783 0.38431 0.03194 0.0
H1156 H 0.03688 0.46276 0.0731 0.0
H1157 H 0.02062 0.43279 0.99789 0.0
H1158 H 0.1072 0.46758 0.06571 0.0
H1159 H 0.09668 0.43888 0.08072 0.0
H1160 H 0.07974 0.46715 0.08884 0.0
H1161 H 0.08818 0.4296 0.97553 0.0
H1162 H 0.0545 0.41764 0.97002 0.0
H1163 H 0.07651 0.39997 0.98787 0.0
C1164 C 0.15335 0.64965 0.49872 0.0
C1165 C 0.17716 0.63886 0.49073 0.0
C1166 C 0.12844 0.63702 0.49451 0.0
C1167 C 0.12721 0.61317 0.48148 0.0
C1168 C 0.15127 0.60207 0.47361 0.0
C1169 C 0.1759 0.61476 0.4789 0.0
C1170 C 0.10342 0.64926 0.50397 0.0
C1171 C 0.151 0.57696 0.45924 0.0
C1172 C 0.06305 0.57085 0.48576 0.0
C1173 C 0.05015 0.57739 0.46399 0.0
C1174 C 0.08809 0.58243 0.49184 0.0
C1175 C 0.1008 0.60032 0.47529 0.0
C1176 C 0.088 0.60632 0.45288 0.0
C1177 C 0.06266 0.59513 0.44777 0.0
C1178 C 0.10058 0.57604 0.5163 0.0
C1179 C 0.10102 0.62463 0.43428 0.0
H1180 H 0.15427 0.66803 0.50841 0.0
H1181 H 0.19423 0.60578 0.47376 0.0
H1182 H 0.09144 0.65361 0.48755 0.0
H1183 H 0.09098 0.6361 0.51598 0.0
H1184 H 0.10781 0.66698 0.51528 0.0
H1185 H 0.17138 0.57115 0.45393 0.0
H1186 H 0.14072 0.56219 0.47098 0.0
H1187 H 0.13969 0.57791 0.44157 0.0
H1188 H 0.0532 0.5573 0.4984 0.0
H1189 H 0.05261 0.60013 0.4309 0.0
H1190 H 0.10359 0.59335 0.52857 0.0
H1191 H 0.12048 0.56861 0.51213 0.0
H1192 H 0.08815 0.56188 0.52716 0.0
H1193 H 0.10353 0.64362 0.44363 0.0
H1194 H 0.0892 0.62607 0.41699 0.0
H1195 H 0.12117 0.61872 0.4283 0.0
C1196 C 0.85632 0.87598 0.50619 0.0
C1197 C 0.83786 0.8913 0.49605 0.0
C1198 C 0.88396 0.88211 0.50409 0.0
C1199 C 0.89354 0.90425 0.49164 0.0
C1200 C 0.87482 0.92024 0.48217 0.0
C1201 C 0.84727 0.91365 0.48461 0.0
C1202 C 0.90294 0.86443 0.51449 0.0
C1203 C 0.88394 0.94398 0.46877 0.0
C1204 C 0.96698 0.92881 0.49592 0.0
C1205 C 0.97807 0.91925 0.47282 0.0
C1206 C 0.93962 0.92391 0.50261 0.0
C1207 C 0.92293 0.9091 0.48586 0.0
C1208 C 0.93425 0.89903 0.46289 0.0
C1209 C 0.96137 0.90419 0.45675 0.0
C1210 C 0.92843 0.93494 0.52735 0.0
C1211 C 0.91756 0.88308 0.44438 0.0
H1212 H 0.84909 0.85888 0.51542 0.0
H1213 H 0.83307 0.92603 0.47759 0.0
H1214 H 0.91451 0.85557 0.49849 0.0
H1215 H 0.91741 0.87499 0.52689 0.0
H1216 H 0.8924 0.84928 0.52562 0.0
H1217 H 0.86702 0.95536 0.46421 0.0
H1218 H 0.89784 0.95573 0.48079 0.0
H1219 H 0.89496 0.93905 0.45073 0.0
H1220 H 0.97949 0.94052 0.50848 0.0
H1221 H 0.96937 0.89654 0.43888 0.0
H1222 H 0.91832 0.91984 0.53881 0.0
H1223 H 0.91323 0.9484 0.52331 0.0
H1224 H 0.94409 0.94492 0.53891 0.0
H1225 H 0.90797 0.86656 0.45408 0.0
H1226 H 0.92947 0.8762 0.42755 0.0
H1227 H 0.90142 0.89418 0.43755 0.0
C1228 C 0.36713 0.63525 0.55444 0.0
C1229 C 0.35207 0.62898 0.53285 0.0
C1230 C 0.39061 0.62318 0.559 0.0
C1231 C 0.39973 0.60441 0.54143 0.0
C1232 C 0.38425 0.59748 0.51993 0.0
C1233 C 0.36058 0.60969 0.51599 0.0
C1234 C 0.40603 0.63102 0.5824 0.0
C1235 C 0.39322 0.57779 0.50055 0.0
C1236 C 0.47487 0.59617 0.54088 0.0
C1237 C 0.47665 0.57478 0.5555 0.0
C1238 C 0.45005 0.60536 0.5354 0.0
C1239 C 0.42613 0.59316 0.54502 0.0
C1240 C 0.42774 0.5712 0.55931 0.0
C1241 C 0.45288 0.56221 0.56423 0.0
C1242 C 0.44949 0.6286 0.51984 0.0
C1243 C 0.40292 0.55768 0.5702 0.0
H1244 H 0.36062 0.6499 0.56777 0.0
H1245 H 0.34927 0.60481 0.49916 0.0
H1246 H 0.40968 0.61427 0.59347 0.0
H1247 H 0.42576 0.6398 0.57656 0.0
H1248 H 0.39546 0.64467 0.59506 0.0
H1249 H 0.37827 0.57336 0.48575 0.0
H1250 H 0.41221 0.58457 0.491 0.0
H1251 H 0.3971 0.5602 0.51011 0.0
H1252 H 0.49299 0.60605 0.53391 0.0
H1253 H 0.45392 0.54577 0.57566 0.0
H1254 H 0.44146 0.64422 0.53183 0.0
H1255 H 0.43608 0.62497 0.50364 0.0
H1256 H 0.46958 0.63484 0.51218 0.0
H1257 H 0.39301 0.5702 0.58454 0.0
H1258 H 0.4073 0.54003 0.57949 0.0
H1259 H 0.38858 0.55303 0.55495 0.0
C1260 C 0.51497 0.63268 0.91776 0.0
C1261 C 0.53385 0.64268 0.89984 0.0
C1262 C 0.51731 0.60875 0.92778 0.0
C1263 C 0.53934 0.59447 0.92017 0.0
C1264 C 0.55871 0.60455 0.90249 0.0
C1265 C 0.55562 0.6283 0.89241 0.0
C1266 C 0.49608 0.59865 0.94641 0.0
C1267 C 0.58271 0.59015 0.89408 0.0
C1268 C 0.55967 0.54294 0.96292 0.0
C1269 C 0.55044 0.52089 0.9497 0.0
C1270 C 0.556 0.56692 0.95367 0.0
C1271 C 0.54232 0.56908 0.93081 0.0
C1272 C 0.53225 0.54693 0.91776 0.0
C1273 C 0.53665 0.52313 0.92721 0.0
C1274 C 0.56747 0.58994 0.96798 0.0
C1275 C 0.51716 0.54835 0.89359 0.0
H1276 H 0.49829 0.64359 0.92411 0.0
H1277 H 0.57012 0.63537 0.87825 0.0
H1278 H 0.4873 0.58032 0.93903 0.0
H1279 H 0.50501 0.59521 0.96488 0.0
H1280 H 0.47983 0.61177 0.94994 0.0
H1281 H 0.59646 0.60093 0.88088 0.0
H1282 H 0.59387 0.58546 0.91095 0.0
H1283 H 0.5762 0.57211 0.88434 0.0
H1284 H 0.57055 0.54148 0.98019 0.0
H1285 H 0.52942 0.50624 0.91686 0.0
H1286 H 0.55161 0.60308 0.973 0.0
H1287 H 0.58256 0.60012 0.95562 0.0
H1288 H 0.57703 0.58513 0.98577 0.0
H1289 H 0.50027 0.56072 0.8969 0.0
H1290 H 0.50929 0.52954 0.88652 0.0
H1291 H 0.53042 0.55681 0.87845 0.0
C1292 C 0.52393 0.83951 0.86347 0.0
C1293 C 0.51605 0.82005 0.87993 0.0
C1294 C 0.52279 0.8651 0.87142 0.0
C1295 C 0.51347 0.87167 0.89655 0.0
C1296 C 0.50596 0.85202 0.91341 0.0
C1297 C 0.50753 0.82656 0.90499 0.0
C1298 C 0.53121 0.88515 0.8527 0.0
C1299 C 0.49579 0.85789 0.94027 0.0
C1300 C 0.52854 0.94026 0.92052 0.0
C1301 C 0.50538 0.95178 0.91428 0.0
C1302 C 0.53122 0.9141 0.91569 0.0
C1303 C 0.51017 0.89899 0.9045 0.0
C1304 C 0.48627 0.91047 0.89945 0.0
C1305 C 0.4843 0.93656 0.90418 0.0
C1306 C 0.55712 0.9029 0.92131 0.0
C1307 C 0.46309 0.89539 0.8879 0.0
H1308 H 0.53079 0.83463 0.84417 0.0
H1309 H 0.50192 0.81164 0.918 0.0
H1310 H 0.51391 0.89621 0.84868 0.0
H1311 H 0.54661 0.89844 0.86105 0.0
H1312 H 0.53929 0.87709 0.83437 0.0
H1313 H 0.49165 0.84063 0.95136 0.0
H1314 H 0.51054 0.87049 0.95043 0.0
H1315 H 0.47718 0.86804 0.93974 0.0
H1316 H 0.54509 0.95196 0.92781 0.0
H1317 H 0.46646 0.94542 0.8991 0.0
H1318 H 0.56744 0.8972 0.90313 0.0
H1319 H 0.55332 0.8857 0.93251 0.0
H1320 H 0.5706 0.91639 0.93203 0.0
H1321 H 0.46877 0.88881 0.86824 0.0
H1322 H 0.44517 0.90655 0.88706 0.0
H1323 H 0.45782 0.87843 0.89911 0.0
C1324 C 0.52816 0.33251 0.66894 0.0
C1325 C 0.53182 0.31332 0.65034 0.0
C1326 C 0.52825 0.35793 0.66232 0.0
C1327 C 0.53206 0.36439 0.63639 0.0
C1328 C 0.53639 0.34502 0.6176 0.0
C1329 C 0.53604 0.31973 0.62478 0.0
C1330 C 0.52357 0.37781 0.68304 0.0
C1331 C 0.5403 0.3509 0.58976 0.0
C1332 C 0.50087 0.42421 0.61702 0.0
C1333 C 0.52275 0.44184 0.61612 0.0
C1334 C 0.50376 0.39903 0.62318 0.0
C1335 C 0.52921 0.39101 0.62873 0.0
C1336 C 0.55153 0.40856 0.62744 0.0
C1337 C 0.54806 0.4337 0.62104 0.0
C1338 C 0.47939 0.38108 0.62417 0.0
C1339 C 0.57897 0.4009 0.63332 0.0
H1340 H 0.52461 0.32752 0.68868 0.0
H1341 H 0.53816 0.30486 0.61028 0.0
H1342 H 0.54155 0.39081 0.68449 0.0
H1343 H 0.50679 0.38922 0.67829 0.0
H1344 H 0.51902 0.36957 0.70196 0.0
H1345 H 0.54567 0.33414 0.57782 0.0
H1346 H 0.52168 0.35789 0.58268 0.0
H1347 H 0.55618 0.36605 0.58722 0.0
H1348 H 0.48132 0.43013 0.61286 0.0
H1349 H 0.56505 0.44717 0.62062 0.0
H1350 H 0.4761 0.37406 0.64375 0.0
H1351 H 0.48244 0.36449 0.61118 0.0
H1352 H 0.46114 0.39005 0.61871 0.0
H1353 H 0.57914 0.39507 0.65339 0.0
H1354 H 0.59444 0.41641 0.63051 0.0
H1355 H 0.58431 0.38444 0.62097 0.0
C1356 C 0.50506 0.13769 0.59739 0.0
C1357 C 0.48884 0.14374 0.61878 0.0
C1358 C 0.50057 0.11482 0.5835 0.0
C1359 C 0.47926 0.09787 0.59116 0.0
C1360 C 0.46185 0.10473 0.61176 0.0
C1361 C 0.46695 0.12753 0.6254 0.0
C1362 C 0.51958 0.10814 0.56169 0.0
C1363 C 0.43867 0.08738 0.62034 0.0
C1364 C 0.45436 0.04114 0.55086 0.0
C1365 C 0.46515 0.02143 0.56335 0.0
C1366 C 0.4598 0.06637 0.55884 0.0
C1367 C 0.47657 0.07192 0.57962 0.0
C1368 C 0.48879 0.05216 0.59121 0.0
C1369 C 0.48284 0.02717 0.58302 0.0
C1370 C 0.44636 0.0869 0.54604 0.0
C1371 C 0.50707 0.05728 0.61323 0.0
H1372 H 0.52209 0.15019 0.59237 0.0
H1373 H 0.45426 0.13237 0.64181 0.0
H1374 H 0.53215 0.09301 0.56746 0.0
H1375 H 0.5085 0.10081 0.54486 0.0
H1376 H 0.53286 0.12455 0.556 0.0
H1377 H 0.42559 0.09654 0.63502 0.0
H1378 H 0.42652 0.08103 0.60386 0.0
H1379 H 0.44625 0.07035 0.62851 0.0
H1380 H 0.44065 0.03684 0.53565 0.0
H1381 H 0.49146 0.01205 0.5926 0.0
H1382 H 0.46089 0.10273 0.54152 0.0
H1383 H 0.4308 0.09451 0.55925 0.0
H1384 H 0.43681 0.07993 0.52818 0.0
H1385 H 0.52264 0.07214 0.60842 0.0
H1386 H 0.51695 0.04017 0.61847 0.0
H1387 H 0.49546 0.06427 0.63018 0.0
C1388 C 0.90895 0.52952 0.63504 0.0
C1389 C 0.88318 0.51782 0.6362 0.0
C1390 C 0.92349 0.53186 0.6116 0.0
C1391 C 0.91201 0.52249 0.5886 0.0
C1392 C 0.88645 0.50984 0.58977 0.0
C1393 C 0.87254 0.50749 0.61343 0.0
C1394 C 0.95078 0.54521 0.61135 0.0
C1395 C 0.87327 0.49962 0.56586 0.0
C1396 C 0.93217 0.55471 0.52646 0.0
C1397 C 0.94849 0.53732 0.51372 0.0
C1398 C 0.92056 0.55019 0.55078 0.0
C1399 C 0.92549 0.52779 0.56313 0.0
C1400 C 0.9423 0.51029 0.55063 0.0
C1401 C 0.95344 0.51516 0.52603 0.0
C1402 C 0.90255 0.56928 0.56306 0.0
C1403 C 0.94837 0.48634 0.56319 0.0
H1404 H 0.91747 0.53769 0.65233 0.0
H1405 H 0.85302 0.49777 0.61399 0.0
H1406 H 0.96526 0.53387 0.60019 0.0
H1407 H 0.95008 0.56347 0.60192 0.0
H1408 H 0.95816 0.54892 0.6309 0.0
H1409 H 0.85404 0.489 0.57008 0.0
H1410 H 0.86948 0.5154 0.55349 0.0
H1411 H 0.88661 0.48701 0.55482 0.0
H1412 H 0.92803 0.57187 0.51723 0.0
H1413 H 0.96607 0.50164 0.51648 0.0
H1414 H 0.91005 0.57585 0.58191 0.0
H1415 H 0.88227 0.56041 0.5664 0.0
H1416 H 0.90101 0.58593 0.55115 0.0
H1417 H 0.95657 0.4908 0.58227 0.0
H1418 H 0.96285 0.47527 0.55163 0.0
H1419 H 0.92976 0.47443 0.56615 0.0
C1420 C 0.1126 0.98138 0.67761 0.0
C1421 C 0.13539 0.96897 0.6834 0.0
C1422 C 0.10222 0.97925 0.6531 0.0
C1423 C 0.11473 0.96415 0.63392 0.0
C1424 C 0.1366 0.95022 0.6401 0.0
C1425 C 0.14674 0.95289 0.66469 0.0
C1426 C 0.07887 0.99442 0.64733 0.0
C1427 C 0.1504 0.93373 0.62029 0.0
C1428 C 0.08004 0.95076 0.57102 0.0
C1429 C 0.09264 0.9692 0.55553 0.0
C1430 C 0.08712 0.94864 0.59653 0.0
C1431 C 0.10714 0.96544 0.60683 0.0
C1432 C 0.12005 0.9839 0.59124 0.0
C1433 C 0.11278 0.98543 0.56585 0.0
C1434 C 0.07309 0.92856 0.61251 0.0
C1435 C 0.14154 1.00219 0.60141 0.0
H1436 H 0.10334 0.99343 0.69205 0.0
H1437 H 0.16449 0.94339 0.66879 0.0
H1438 H 0.08566 0.00972 0.63439 0.0
H1439 H 0.06347 0.98243 0.63735 0.0
H1440 H 0.06961 1.00303 0.66486 0.0
H1441 H 0.16453 0.9215 0.62892 0.0
H1442 H 0.1356 0.92165 0.6096 0.0
H1443 H 0.16168 0.94575 0.6063 0.0
H1444 H 0.06436 0.93823 0.56337 0.0
H1445 H 0.12315 0.99934 0.55403 0.0
H1446 H 0.06235 0.93745 0.62903 0.0
H1447 H 0.08787 0.91648 0.62029 0.0
H1448 H 0.05859 0.91644 0.60146 0.0
H1449 H 0.13355 0.01318 0.61809 0.0
H1450 H 0.14948 0.01557 0.58686 0.0
H1451 H 0.15828 0.99175 0.60805 0.0
C1452 C 0.8558 0.47744 0.82615 0.0
C1453 C 0.85528 0.50144 0.81568 0.0
C1454 C 0.86366 0.47433 0.85134 0.0
C1455 C 0.87005 0.49569 0.8673 0.0
C1456 C 0.86626 0.51985 0.85818 0.0
C1457 C 0.85838 0.52236 0.83291 0.0
C1458 C 0.86612 0.44805 0.86053 0.0
C1459 C 0.87153 0.54322 0.87485 0.0
C1460 C 0.88074 0.48433 0.93816 0.0
C1461 C 0.90842 0.48231 0.93811 0.0
C1462 C 0.86785 0.48949 0.91554 0.0
C1463 C 0.88304 0.49275 0.89235 0.0
C1464 C 0.91112 0.492 0.8927 0.0
C1465 C 0.92334 0.48678 0.91541 0.0
C1466 C 0.8379 0.49011 0.91628 0.0
C1467 C 0.9283 0.49568 0.86875 0.0
H1468 H 0.8501 0.46075 0.81498 0.0
H1469 H 0.85471 0.54099 0.82699 0.0
H1470 H 0.8873 0.44512 0.8641 0.0
H1471 H 0.85471 0.44559 0.87886 0.0
H1472 H 0.85884 0.4333 0.84652 0.0
H1473 H 0.8655 0.5605 0.86589 0.0
H1474 H 0.8607 0.54136 0.89356 0.0
H1475 H 0.8931 0.54553 0.87862 0.0
H1476 H 0.86906 0.48059 0.95552 0.0
H1477 H 0.94475 0.48541 0.9153 0.0
H1478 H 0.82924 0.47186 0.90859 0.0
H1479 H 0.83131 0.50513 0.90428 0.0
H1480 H 0.82974 0.4931 0.93607 0.0
H1481 H 0.9234 0.48031 0.85452 0.0
H1482 H 0.9499 0.49579 0.87244 0.0
H1483 H 0.9242 0.51371 0.86011 0.0
C1484 C 0.12946 0.01078 0.85787 0.0
C1485 C 0.15646 1.00559 0.85504 0.0
C1486 C 0.11711 0.01448 0.88226 0.0
C1487 C 0.13201 0.01285 0.90454 0.0
C1488 C 0.15909 0.00672 0.90169 0.0
C1489 C 0.17093 1.00317 0.87707 0.0
C1490 C 0.08831 0.02102 0.88413 0.0
C1491 C 0.1759 1.00479 0.92467 0.0
C1492 C 0.11255 0.05298 0.96345 0.0
C1493 C 0.09938 0.03549 0.97981 0.0
C1494 C 0.12292 0.04582 0.93917 0.0
C1495 C 0.12028 0.02034 0.93046 0.0
C1496 C 0.10679 1.00248 0.94663 0.0
C1497 C 0.09649 0.01023 0.97107 0.0
C1498 C 0.13698 0.06569 0.92287 0.0
C1499 C 0.10348 0.97512 0.93818 0.0
H1500 H 0.11811 0.01236 0.84091 0.0
H1501 H 0.19175 0.99899 0.87498 0.0
H1502 H 0.07688 0.00852 0.89757 0.0
H1503 H 0.08694 0.04063 0.89181 0.0
H1504 H 0.07881 0.01938 0.86533 0.0
H1505 H 0.19579 0.99769 0.91947 0.0
H1506 H 0.17877 0.02361 0.93432 0.0
H1507 H 0.16562 0.99207 0.93864 0.0
H1508 H 0.11497 0.07261 0.96966 0.0
H1509 H 0.08647 0.99649 0.98339 0.0
H1510 H 0.12714 0.06633 0.90436 0.0
H1511 H 0.15789 0.06088 0.91863 0.0
H1512 H 0.13714 0.08476 0.93225 0.0
H1513 H 0.09299 0.97329 0.91992 0.0
H1514 H 0.09212 0.9636 0.95257 0.0
H1515 H 0.12333 0.96735 0.93464 0.0
C1516 C 0.63942 0.92145 0.51756 0.0
C1517 C 0.64629 0.89959 0.50361 0.0
C1518 C 0.61301 0.92952 0.51827 0.0
C1519 C 0.59286 0.9156 0.50452 0.0
C1520 C 0.60023 0.89452 0.48906 0.0
C1521 C 0.6266 0.88679 0.48888 0.0
C1522 C 0.60632 0.95206 0.53506 0.0
C1523 C 0.57985 0.8791 0.47385 0.0
C1524 C 0.52225 0.91294 0.5343 0.0
C1525 C 0.50888 0.93005 0.52024 0.0
C1526 C 0.54916 0.90815 0.5292 0.0
C1527 C 0.56371 0.92058 0.50927 0.0
C1528 C 0.55021 0.93724 0.49426 0.0
C1529 C 0.52299 0.94181 0.49991 0.0
C1530 C 0.56219 0.89007 0.54572 0.0
C1531 C 0.56474 0.95076 0.47268 0.0
H1532 H 0.65431 0.93148 0.52908 0.0
H1533 H 0.63167 0.87008 0.47772 0.0
H1534 H 0.59436 0.9649 0.52462 0.0
H1535 H 0.59406 0.94569 0.55189 0.0
H1536 H 0.62446 0.96273 0.54191 0.0
H1537 H 0.58924 0.86558 0.46012 0.0
H1538 H 0.56616 0.8683 0.48703 0.0
H1539 H 0.56763 0.89153 0.46317 0.0
H1540 H 0.5117 0.90353 0.54998 0.0
H1541 H 0.51313 0.95526 0.48907 0.0
H1542 H 0.57919 0.89994 0.55549 0.0
H1543 H 0.57025 0.87447 0.53372 0.0
H1544 H 0.54816 0.88185 0.56043 0.0
H1545 H 0.58057 0.96395 0.48044 0.0
H1546 H 0.55121 0.96159 0.46161 0.0
H1547 H 0.57465 0.93708 0.45955 0.0
C1548 C 0.67239 0.15582 0.99677 0.0
C1549 C 0.69575 0.14509 0.98737 0.0
C1550 C 0.6472 0.14364 0.99298 0.0
C1551 C 0.64522 0.12025 0.97912 0.0
C1552 C 0.66883 0.10924 0.96975 0.0
C1553 C 0.69382 0.12163 0.97429 0.0
C1554 C 0.62267 0.15593 1.00368 0.0
C1555 C 0.66769 0.08457 0.95459 0.0
C1556 C 0.57975 0.08016 0.98549 0.0
C1557 C 0.56621 0.08755 0.96445 0.0
C1558 C 0.60568 0.09032 0.99036 0.0
C1559 C 0.61838 0.10798 0.97355 0.0
C1560 C 0.60489 0.1148 0.95184 0.0
C1561 C 0.57889 0.10474 0.94775 0.0
C1562 C 0.61912 0.08284 0.01392 0.0
C1563 C 0.61768 0.13318 0.93318 0.0
H1564 H 0.67389 0.17384 0.00713 0.0
H1565 H 0.7119 0.11307 0.96746 0.0
H1566 H 0.61006 0.16073 0.98787 0.0
H1567 H 0.61061 0.14264 0.01585 0.0
H1568 H 0.62767 0.1734 0.01519 0.0
H1569 H 0.68782 0.07837 0.94885 0.0
H1570 H 0.65707 0.06968 0.96594 0.0
H1571 H 0.65629 0.08644 0.93713 0.0
H1572 H 0.56975 0.06709 0.99855 0.0
H1573 H 0.56825 0.11052 0.93154 0.0
H1574 H 0.62253 0.09962 0.02684 0.0
H1575 H 0.6389 0.07561 0.00869 0.0
H1576 H 0.6071 0.0682 0.02451 0.0
H1577 H 0.62089 0.15197 0.9428 0.0
H1578 H 0.6053 0.13517 0.91636 0.0
H1579 H 0.63749 0.12698 0.92642 0.0
C1580 C 0.377 0.39297 0.03087 0.0
C1581 C 0.35924 0.40983 0.02217 0.0
C1582 C 0.4047 0.39875 0.03007 0.0
C1583 C 0.415 0.42194 0.02018 0.0
C1584 C 0.39696 0.43945 0.01237 0.0
C1585 C 0.36933 0.43328 0.01369 0.0
C1586 C 0.423 0.37957 0.03883 0.0
C1587 C 0.4069 0.46427 1.0015 0.0
C1588 C 0.48872 0.44425 0.0262 0.0
C1589 C 0.49954 0.43631 1.00239 0.0
C1590 C 0.46134 0.43936 0.03262 0.0
C1591 C 0.4444 0.4264 0.01478 0.0
C1592 C 0.45544 0.41797 0.99102 0.0
C1593 C 0.48263 0.42288 0.98525 0.0
C1594 C 0.45043 0.44839 0.05829 0.0
C1595 C 0.43837 0.40416 0.97129 0.0
H1596 H 0.36919 0.37498 0.03782 0.0
H1597 H 0.35558 0.44663 0.00763 0.0
H1598 H 0.43405 0.37142 0.02209 0.0
H1599 H 0.43794 0.38866 0.05175 0.0
H1600 H 0.41193 0.36398 0.04889 0.0
H1601 H 0.39042 0.47669 0.99836 0.0
H1602 H 0.42119 0.4743 0.01446 0.0
H1603 H 0.41768 0.46079 0.98298 0.0
H1604 H 0.50147 0.45463 0.03959 0.0
H1605 H 0.49051 0.41646 0.96679 0.0
H1606 H 0.43969 0.43256 0.06821 0.0
H1607 H 0.43581 0.46283 0.05569 0.0
H1608 H 0.46633 0.45668 0.07067 0.0
H1609 H 0.4285 0.38691 0.97937 0.0
H1610 H 0.45006 0.39865 0.95378 0.0
H1611 H 0.42244 0.41626 0.96579 0.0
C1612 C 0.89429 0.14674 0.03411 0.0
C1613 C 0.87964 0.1426 0.01186 0.0
C1614 C 0.91954 0.13693 0.03631 0.0
C1615 C 0.93096 0.12282 0.01565 0.0
C1616 C 0.91648 0.11871 0.99306 0.0
C1617 C 0.89108 0.12842 0.99151 0.0
C1618 C 0.934 0.14163 0.06088 0.0
C1619 C 0.92782 0.10394 0.97048 0.0
C1620 C 1.00651 0.11561 0.01548 0.0
C1621 C 1.00803 0.09148 0.02514 0.0
C1622 C 0.98167 0.12579 0.01169 0.0
C1623 C 0.95762 0.11174 0.01804 0.0
C1624 C 0.95908 0.08724 0.02739 0.0
C1625 C 0.9841 0.07741 0.03065 0.0
C1626 C 0.98118 0.15181 1.00131 0.0
C1627 C 0.93415 0.07159 0.03471 0.0
H1628 H 0.88622 0.15802 0.04985 0.0
H1629 H 0.88008 0.12459 0.97432 0.0
H1630 H 0.9381 0.12342 0.06915 0.0
H1631 H 0.95349 0.15186 0.05705 0.0
H1632 H 0.92243 0.15278 0.07527 0.0
H1633 H 0.9147 0.1033 0.95388 0.0
H1634 H 0.94765 0.11242 0.96455 0.0
H1635 H 0.93071 0.08436 0.97589 0.0
H1636 H 0.02475 0.12673 0.01118 0.0
H1637 H 0.98483 0.05881 0.03825 0.0
H1638 H 0.97205 0.16467 0.01582 0.0
H1639 H 0.9687 0.1513 0.98429 0.0
H1640 H 1.00143 0.15976 0.99594 0.0
H1641 H 0.92296 0.08146 0.05032 0.0
H1642 H 0.93857 0.05268 0.04115 0.0
H1643 H 0.92091 0.06916 0.01826 0.0
C1644 C 0.04238 0.15422 0.23134 0.0
C1645 C 0.02897 0.17645 0.22959 0.0
C1646 C 0.04691 0.13833 0.20975 0.0
C1647 C 0.03719 0.14442 0.18587 0.0
C1648 C 0.02258 0.16631 0.1843 0.0
C1649 C 0.01876 0.18212 0.20615 0.0
C1650 C 0.06285 0.11545 0.21236 0.0
C1651 C 0.01148 0.17334 0.15938 0.0
C1652 C 0.07376 0.12182 0.1251 0.0
C1653 C 0.05768 0.10077 0.11701 0.0
C1654 C 0.06745 0.13585 0.14751 0.0
C1655 C 0.04416 0.12905 0.16223 0.0
C1656 C 0.02784 0.10772 0.15432 0.0
C1657 C 0.03492 0.09368 0.13192 0.0
C1658 C 0.08575 0.15807 0.15535 0.0
C1659 C 1.00266 0.10003 0.16924 0.0
H1660 H 0.04977 0.14952 0.24961 0.0
H1661 H 1.00802 0.19908 0.20489 0.0
H1662 H 0.05159 0.0983 0.20512 0.0
H1663 H 0.08162 0.11747 0.20063 0.0
H1664 H 0.06794 0.11269 0.23245 0.0
H1665 H 0.99867 0.18964 0.16176 0.0
H1666 H 0.02807 0.17821 0.14559 0.0
H1667 H 0.99963 0.1571 0.15092 0.0
H1668 H 0.09149 0.12741 0.11385 0.0
H1669 H 0.02229 0.07759 0.12574 0.0
H1670 H 0.09261 0.15572 0.17493 0.0
H1671 H 0.07484 0.17561 0.15571 0.0
H1672 H 0.10351 0.16045 0.14223 0.0
H1673 H 1.00732 0.09625 0.18919 0.0
H1674 H 0.99219 0.08296 0.16072 0.0
H1675 H 0.98895 0.11566 0.17004 0.0
C1676 C 0.01948 0.33975 0.24564 0.0
C1677 C 1.00556 0.31645 0.24141 0.0
C1678 C 0.01605 0.36005 0.22996 0.0
C1679 C 0.99817 0.35695 0.20975 0.0
C1680 C 0.98438 0.33337 0.20517 0.0
C1681 C 0.98835 0.31339 0.22097 0.0
C1682 C 0.03119 0.3849 0.23529 0.0
C1683 C 0.96506 0.32935 0.18384 0.0
C1684 C 0.96561 0.41311 0.18482 0.0
C1685 C 0.97936 0.41638 0.16133 0.0
C1686 C 0.97208 0.3943 0.20113 0.0
C1687 C 0.99296 0.37852 0.19385 0.0
C1688 C 1.00757 0.38231 0.17059 0.0
C1689 C 1.00048 0.40113 0.15452 0.0
C1690 C 0.95585 0.39065 0.22566 0.0
C1691 C 0.03018 0.36604 0.16235 0.0
H1692 H 0.03261 0.3423 0.26155 0.0
H1693 H 0.97793 0.29529 0.21731 0.0
H1694 H 0.04244 0.39111 0.21783 0.0
H1695 H 0.01701 0.39956 0.24072 0.0
H1696 H 0.04536 0.38383 0.25089 0.0
H1697 H 0.95622 0.30974 0.18264 0.0
H1698 H 0.9487 0.34239 0.18677 0.0
H1699 H 0.97529 0.33368 0.16529 0.0
H1700 H 0.94907 0.42464 0.19001 0.0
H1701 H 0.01135 0.40387 0.13653 0.0
H1702 H 0.96912 0.3908 0.24208 0.0
H1703 H 0.94475 0.37201 0.22486 0.0
H1704 H 0.94133 0.40544 0.22924 0.0
H1705 H 0.04466 0.36577 0.17776 0.0
H1706 H 0.04085 0.37269 0.14472 0.0
H1707 H 0.02235 0.34636 0.15877 0.0
C1708 C 0.05719 0.81299 0.22776 0.0
C1709 C 0.05558 0.78949 0.23897 0.0
C1710 C 0.05829 0.83525 0.24299 0.0
C1711 C 0.05714 0.83363 0.26989 0.0
C1712 C 0.05758 0.80978 0.28106 0.0
C1713 C 0.05691 0.78794 0.26536 0.0
C1714 C 0.0586 0.86024 0.2303 0.0
C1715 C 0.05626 0.80714 0.30966 0.0
C1716 C 0.06382 0.88437 0.3217 0.0
C1717 C 0.037 0.88586 0.3296 0.0
C1718 C 0.07094 0.86951 0.30009 0.0
C1719 C 0.05072 0.85576 0.28654 0.0
C1720 C 0.02362 0.85978 0.29269 0.0
C1721 C 0.01714 0.87496 0.31407 0.0
C1722 C 0.10003 0.86657 0.2934 0.0
C1723 C 1.00136 0.84572 0.27862 0.0
H1724 H 0.05618 0.81391 0.2072 0.0
H1725 H 0.05563 0.76957 0.27376 0.0
H1726 H 0.03793 0.86629 0.22954 0.0
H1727 H 0.07038 0.87502 0.24114 0.0
H1728 H 0.06695 0.85886 0.21041 0.0
H1729 H 0.05894 0.78751 0.31516 0.0
H1730 H 0.0718 0.81971 0.31873 0.0
H1731 H 0.03662 0.81283 0.31749 0.0
H1732 H 0.07927 0.89296 0.33356 0.0
H1733 H 0.99642 0.87667 0.31993 0.0
H1734 H 0.10356 0.86488 0.27241 0.0
H1735 H 0.10641 0.84913 0.30172 0.0
H1736 H 0.11263 0.88273 0.3011 0.0
H1737 H 1.00487 0.84681 0.2577 0.0
H1738 H 0.98163 0.85319 0.2838 0.0
H1739 H 1.00065 0.82553 0.28335 0.0
C1740 C 1.00587 0.61537 0.25628 0.0
C1741 C 0.02796 0.63256 0.25333 0.0
C1742 C 1.00277 0.59999 0.27754 0.0
C1743 C 0.02228 0.60164 0.2964 0.0
C1744 C 0.04566 0.61741 0.29248 0.0
C1745 C 0.04819 0.63271 0.27107 0.0
C1746 C 0.97753 0.58349 0.2808 0.0
C1747 C 0.06708 0.61969 0.31193 0.0
C1748 C 0.99593 0.59603 0.36476 0.0
C1749 C 1.00194 0.5715 0.37083 0.0
C1750 C 1.0026 0.60582 0.34083 0.0
C1751 C 0.01587 0.5909 0.32206 0.0
C1752 C 0.0223 0.56616 0.3279 0.0
C1753 C 0.01519 0.55669 0.35225 0.0
C1754 C 0.99516 0.63223 0.33562 0.0
C1755 C 0.03658 0.54974 0.30844 0.0
H1756 H 0.99041 0.61459 0.24239 0.0
H1757 H 0.06533 0.64588 0.26912 0.0
H1758 H 0.98203 0.56458 0.2871 0.0
H1759 H 0.96441 0.59204 0.29581 0.0
H1760 H 0.96641 0.58125 0.26289 0.0
H1761 H 0.08583 0.629 0.30414 0.0
H1762 H 0.06006 0.63104 0.32877 0.0
H1763 H 0.07141 0.60088 0.31864 0.0
H1764 H 0.98572 0.60783 0.37879 0.0
H1765 H 0.01998 0.53778 0.35669 0.0
H1766 H 0.9818 0.6318 0.31925 0.0
H1767 H 0.01327 0.64409 0.3304 0.0
H1768 H 0.98493 0.6414 0.35233 0.0
H1769 H 0.02436 0.54641 0.29136 0.0
H1770 H 0.04081 0.53125 0.31607 0.0
H1771 H 0.05566 0.55944 0.30206 0.0
C1772 C 0.24327 0.00995 0.14912 0.0
C1773 C 0.23789 0.01391 0.17535 0.0
C1774 C 0.22437 0.0147 0.13103 0.0
C1775 C 0.19961 0.02419 0.13926 0.0
C1776 C 0.19413 0.02826 0.16579 0.0
C1777 C 0.21328 0.02299 0.18349 0.0
C1778 C 0.23106 0.00985 0.10306 0.0
C1779 C 0.16819 0.03862 0.17546 0.0
C1780 C 0.16084 0.0603 0.09257 0.0
C1781 C 0.14038 0.04253 0.08571 0.0
C1782 C 0.18032 0.05452 0.10974 0.0
C1783 C 0.17964 0.03026 0.12015 0.0
C1784 C 0.15955 0.012 0.11264 0.0
C1785 C 0.14015 0.01837 0.0957 0.0
C1786 C 0.20119 0.07466 0.11731 0.0
C1787 C 0.15822 0.98581 0.12291 0.0
H1788 H 0.2625 1.00339 0.14275 0.0
H1789 H 0.20926 0.0264 0.20373 0.0
H1790 H 0.21546 0.99697 0.09445 0.0
H1791 H 0.23146 0.02776 0.09285 0.0
H1792 H 0.25065 1.00143 0.09983 0.0
H1793 H 0.16686 0.04056 0.19662 0.0
H1794 H 0.16603 0.05738 0.16747 0.0
H1795 H 0.15119 0.02612 0.16895 0.0
H1796 H 0.16114 0.07908 0.08519 0.0
H1797 H 0.12447 1.00446 0.09058 0.0
H1798 H 0.2214 0.06788 0.11324 0.0
H1799 H 0.19935 0.07888 0.13816 0.0
H1800 H 0.19941 0.09239 0.10713 0.0
H1801 H 0.17751 0.97703 0.11909 0.0
H1802 H 0.14213 0.97342 0.11435 0.0
H1803 H 0.15467 0.98681 0.14391 0.0
C1804 C 0.80528 0.49688 0.1848 0.0
C1805 C 0.77912 0.48626 0.18602 0.0
C1806 C 0.82164 0.49425 0.16252 0.0
C1807 C 0.81144 0.48129 0.14049 0.0
C1808 C 0.78449 0.47174 0.14125 0.0
C1809 C 0.76885 0.47393 0.16409 0.0
C1810 C 0.85031 0.50426 0.16302 0.0
C1811 C 0.77236 0.45854 0.11817 0.0
C1812 C 0.85719 0.48786 0.08028 0.0
C1813 C 0.87166 0.46618 0.08116 0.0
C1814 C 0.8362 0.49238 0.09842 0.0
C1815 C 0.82996 0.47509 0.11813 0.0
C1816 C 0.84345 0.45245 0.11786 0.0
C1817 C 0.86377 0.44825 0.09936 0.0
C1818 C 0.82183 0.51638 0.0974 0.0
C1819 C 0.83801 0.43347 0.13839 0.0
H1820 H 0.81332 0.50637 0.20171 0.0
H1821 H 0.74855 0.46589 0.16485 0.0
H1822 H 0.86365 0.48836 0.16073 0.0
H1823 H 0.85498 0.51681 0.14686 0.0
H1824 H 0.85489 0.51488 0.1811 0.0
H1825 H 0.75031 0.45612 0.12034 0.0
H1826 H 0.77761 0.46926 0.10077 0.0
H1827 H 0.78043 0.43966 0.11524 0.0
H1828 H 0.86337 0.50203 0.06663 0.0
H1829 H 0.87496 0.43149 0.10027 0.0
H1830 H 0.82924 0.52996 0.11241 0.0
H1831 H 0.80012 0.51272 0.10114 0.0
H1832 H 0.82508 0.52525 0.07861 0.0
H1833 H 0.84385 0.44206 0.1571 0.0
H1834 H 0.84914 0.4162 0.13469 0.0
H1835 H 0.81645 0.42793 0.13998 0.0
C1836 C 0.2348 0.96891 0.33748 0.0
C1837 C 0.23298 0.9888 0.32089 0.0
C1838 C 0.21463 0.96333 0.35608 0.0
C1839 C 0.19186 0.97785 0.35812 0.0
C1840 C 0.19044 0.99863 0.34216 0.0
C1841 C 0.21102 1.0039 0.32384 0.0
C1842 C 0.21718 0.94118 0.3728 0.0
C1843 C 0.16651 0.01453 0.3435 0.0
C1844 C 0.12614 0.94496 0.37971 0.0
C1845 C 0.12246 0.95438 0.40491 0.0
C1846 C 0.1486 0.95233 0.36455 0.0
C1847 C 0.16828 0.96956 0.3747 0.0
C1848 C 0.16508 0.97884 0.4003 0.0
C1849 C 0.14218 0.97117 0.41511 0.0
C1850 C 0.15103 0.94186 0.33743 0.0
C1851 C 0.18567 0.9971 0.4119 0.0
H1852 H 0.25191 0.9574 0.33566 0.0
H1853 H 0.20932 0.0192 0.31105 0.0
H1854 H 0.21301 0.94664 0.39311 0.0
H1855 H 0.20226 0.9259 0.36746 0.0
H1856 H 0.23731 0.93362 0.37094 0.0
H1857 H 0.16955 0.03141 0.33168 0.0
H1858 H 0.14886 1.00311 0.33668 0.0
H1859 H 0.16192 0.02075 0.36352 0.0
H1860 H 0.11119 0.93189 0.37153 0.0
H1861 H 0.13956 0.97861 0.43449 0.0
H1862 H 0.16977 0.93197 0.33456 0.0
H1863 H 0.15194 0.95748 0.32393 0.0
H1864 H 0.13408 0.92849 0.33246 0.0
H1865 H 0.20556 0.98907 0.41034 0.0
H1866 H 0.18087 1.00178 0.4323 0.0
H1867 H 0.1871 0.01476 0.40122 0.0
C1868 C 0.79336 0.49596 0.35961 0.0
C1869 C 0.79571 0.49986 0.33334 0.0
C1870 C 0.81521 0.5008 0.37526 0.0
C1871 C 0.83988 0.51008 0.3644 0.0
C1872 C 0.84233 0.51387 0.33777 0.0
C1873 C 0.82014 0.50873 0.32254 0.0
C1874 C 0.81174 0.49651 0.4035 0.0
C1875 C 0.86824 0.52386 0.32549 0.0
C1876 C 0.88859 0.54761 0.40684 0.0
C1877 C 0.9075 0.52993 0.41088 0.0
C1878 C 0.86635 0.54129 0.39201 0.0
C1879 C 0.86283 0.51667 0.381 0.0
C1880 C 0.88145 0.49854 0.38556 0.0
C1881 C 0.90356 0.50538 0.40041 0.0
C1882 C 0.84692 0.56117 0.38764 0.0
C1883 C 0.8783 0.47205 0.37431 0.0
H1884 H 0.77423 0.48951 0.36793 0.0
H1885 H 0.82169 0.51203 0.30226 0.0
H1886 H 0.8269 0.48386 0.40957 0.0
H1887 H 0.81483 0.51466 0.41438 0.0
H1888 H 0.79163 0.4881 0.40873 0.0
H1889 H 0.86711 0.52497 0.30446 0.0
H1890 H 0.87364 0.54295 0.33359 0.0
H1891 H 0.88453 0.51162 0.32969 0.0
H1892 H 0.89145 0.56663 0.41477 0.0
H1893 H 0.91806 0.49158 0.40337 0.0
H1894 H 0.8265 0.55446 0.39384 0.0
H1895 H 0.84653 0.56476 0.36697 0.0
H1896 H 0.85212 0.57923 0.39807 0.0
H1897 H 0.85853 0.46331 0.38006 0.0
H1898 H 0.89399 0.45993 0.38039 0.0
H1899 H 0.87919 0.47249 0.35317 0.0
C1900 C 0.17694 0.29467 0.0199 0.0
C1901 C 0.20425 0.29243 0.0227 0.0
C1902 C 0.15917 0.27333 0.02053 0.0
C1903 C 0.16912 0.24942 0.02418 0.0
C1904 C 0.19676 0.24728 0.02728 0.0
C1905 C 0.214 0.26887 0.02647 0.0
C1906 C 0.1299 0.2763 0.01707 0.0
C1907 C 0.20819 0.22214 0.03122 0.0
C1908 C 0.12874 0.19145 0.04617 0.0
C1909 C 0.12862 0.17667 0.02356 0.0
C1910 C 0.14008 0.21623 0.04643 0.0
C1911 C 0.1512 0.22624 0.02347 0.0
C1912 C 0.14866 0.21212 1.00022 0.0
C1913 C 0.13753 0.18742 1.00061 0.0
C1914 C 0.14233 0.23073 0.07159 0.0
C1915 C 0.15989 0.22218 0.97527 0.0
H1916 H 0.16959 0.31311 0.01727 0.0
H1917 H 0.23518 0.26742 0.02882 0.0
H1918 H 0.12343 0.26565 0.99959 0.0
H1919 H 0.11802 0.2683 0.03339 0.0
H1920 H 0.12526 0.29632 0.01545 0.0
H1921 H 0.22997 0.2239 0.03422 0.0
H1922 H 0.19816 0.21311 0.04801 0.0
H1923 H 0.20453 0.20938 0.01435 0.0
H1924 H 0.12197 0.18297 0.0639 0.0
H1925 H 0.13717 0.17588 0.98315 0.0
H1926 H 0.13751 0.25063 0.0696 0.0
H1927 H 0.16316 0.2308 0.07785 0.0
H1928 H 0.12898 0.22227 0.0867 0.0
H1929 H 0.15444 0.24186 0.9731 0.0
H1930 H 0.15274 0.21054 0.95861 0.0
H1931 H 0.18195 0.22225 0.97504 0.0
C1932 C 0.14441 0.77168 0.49894 0.0
C1933 C 0.17042 0.77246 0.48809 0.0
C1934 C 0.12664 0.79046 0.4943 0.0
C1935 C 0.135 0.8108 0.47861 0.0
C1936 C 0.16122 0.81169 0.46764 0.0
C1937 C 0.17847 0.79258 0.47242 0.0
C1938 C 0.09887 0.78855 0.50623 0.0
C1939 C 0.17124 0.83306 0.45105 0.0
C1940 C 0.08493 0.85079 0.44752 0.0
C1941 C 0.08522 0.87255 0.46355 0.0
C1942 C 0.10035 0.8303 0.45257 0.0
C1943 C 0.11672 0.83151 0.47409 0.0
C1944 C 0.11653 0.85316 0.49067 0.0
C1945 C 0.10081 0.87327 0.48528 0.0
C1946 C 0.09966 0.80758 0.43447 0.0
C1947 C 0.13366 0.85548 0.51375 0.0
H1948 H 0.1378 0.75616 0.51085 0.0
H1949 H 0.19858 0.79369 0.46421 0.0
H1950 H 0.09565 0.80526 0.51901 0.0
H1951 H 0.08396 0.78841 0.49116 0.0
H1952 H 0.09514 0.77132 0.51745 0.0
H1953 H 0.19201 0.83092 0.44369 0.0
H1954 H 0.15821 0.83416 0.43459 0.0
H1955 H 0.17047 0.85121 0.4621 0.0
H1956 H 0.07305 0.84993 0.43067 0.0
H1957 H 0.10133 0.88991 0.49784 0.0
H1958 H 0.0951 0.79016 0.44517 0.0
H1959 H 0.11953 0.80586 0.42485 0.0
H1960 H 0.08464 0.80871 0.41963 0.0
H1961 H 0.12944 0.83905 0.52597 0.0
H1962 H 0.13041 0.87296 0.52542 0.0
H1963 H 0.15499 0.85552 0.50756 0.0
C1964 C 0.85921 0.75885 0.50924 0.0
C1965 C 0.83529 0.76055 0.49668 0.0
C1966 C 0.87498 0.73791 0.50484 0.0
C1967 C 0.86655 0.71805 0.48765 0.0
C1968 C 0.84178 0.71917 0.47592 0.0
C1969 C 0.82655 0.74033 0.48051 0.0
C1970 C 0.90125 0.73759 0.51772 0.0
C1971 C 0.83179 0.69846 0.45764 0.0
C1972 C 0.91982 0.68193 0.45099 0.0
C1973 C 0.91979 0.65933 0.46403 0.0
C1974 C 0.90275 0.701 0.45857 0.0
C1975 C 0.8848 0.69757 0.47975 0.0
C1976 C 0.88414 0.67459 0.49274 0.0
C1977 C 0.9016 0.65572 0.48471 0.0
C1978 C 0.90408 0.72497 0.4439 0.0
C1979 C 0.86522 0.67009 0.51531 0.0
H1980 H 0.86613 0.77434 0.52174 0.0
H1981 H 0.80781 0.74119 0.47114 0.0
H1982 H 0.90294 0.71936 0.52694 0.0
H1983 H 0.91781 0.73951 0.50322 0.0
H1984 H 0.90381 0.7531 0.53235 0.0
H1985 H 0.81104 0.7009 0.45207 0.0
H1986 H 0.84484 0.69825 0.44011 0.0
H1987 H 0.83259 0.67983 0.4663 0.0
H1988 H 0.93332 0.68475 0.43465 0.0
H1989 H 0.9015 0.63844 0.495 0.0
H1990 H 0.9088 0.7414 0.45692 0.0
H1991 H 0.88444 0.72773 0.43583 0.0
H1992 H 0.91934 0.72482 0.42804 0.0
H1993 H 0.86952 0.68446 0.53069 0.0
H1994 H 0.8667 0.65109 0.52305 0.0
H1995 H 0.84442 0.67211 0.50976 0.0
C1996 C 0.30262 0.79815 0.53137 0.0
C1997 C 0.31145 0.77416 0.52524 0.0
C1998 C 0.32092 0.81855 0.53641 0.0
C1999 C 0.34863 0.81477 0.53513 0.0
C2000 C 0.35751 0.79036 0.52942 0.0
C2001 C 0.33878 0.7703 0.52476 0.0
C2002 C 0.31063 0.84422 0.5427 0.0
C2003 C 0.38681 0.78555 0.52766 0.0
C2004 C 0.39388 0.87231 0.52022 0.0
C2005 C 0.40298 0.87999 0.54439 0.0
C2006 C 0.3768 0.85076 0.51689 0.0
C2007 C 0.3683 0.83661 0.53832 0.0
C2008 C 0.37805 0.84379 0.56268 0.0
C2009 C 0.39543 0.86534 0.56541 0.0
C2010 C 0.36726 0.84354 0.49052 0.0
C2011 C 0.36933 0.82925 0.586 0.0
H2012 H 0.28142 0.80091 0.53205 0.0
H2013 H 0.34546 0.75155 0.52043 0.0
H2014 H 0.31879 0.85191 0.56092 0.0
H2015 H 0.31746 0.85741 0.52761 0.0
H2016 H 0.28853 0.84371 0.54437 0.0
H2017 H 0.39038 0.7653 0.52397 0.0
H2018 H 0.39671 0.79651 0.51204 0.0
H2019 H 0.39643 0.79199 0.54561 0.0
H2020 H 0.39972 0.88348 0.50385 0.0
H2021 H 0.40222 0.87127 0.58418 0.0
H2022 H 0.34538 0.84504 0.49013 0.0
H2023 H 0.3714 0.82366 0.48555 0.0
H2024 H 0.37689 0.8557 0.47566 0.0
H2025 H 0.34758 0.83059 0.58966 0.0
H2026 H 0.37983 0.83641 0.60329 0.0
H2027 H 0.37301 0.80901 0.58277 0.0
C2028 C 0.53414 0.64923 0.76161 0.0
C2029 C 0.52078 0.67161 0.76097 0.0
C2030 C 0.53563 0.63264 0.74007 0.0
C2031 C 0.52286 0.63816 0.71746 0.0
C2032 C 0.50828 0.66019 0.71719 0.0
C2033 C 0.50763 0.67672 0.73881 0.0
C2034 C 0.55181 0.60973 0.74121 0.0
C2035 C 0.49396 0.66671 0.69377 0.0
C2036 C 0.55124 0.61494 0.65297 0.0
C2037 C 0.53421 0.59386 0.64689 0.0
C2038 C 0.54803 0.62901 0.67596 0.0
C2039 C 0.52685 0.62234 0.69341 0.0
C2040 C 0.5096 0.60099 0.68752 0.0
C2041 C 0.51367 0.58681 0.66448 0.0
C2042 C 0.56733 0.65118 0.6815 0.0
C2043 C 0.48651 0.59345 0.70533 0.0
H2044 H 0.54402 0.64505 0.77884 0.0
H2045 H 0.49713 0.69391 0.7383 0.0
H2046 H 0.53974 0.59252 0.73533 0.0
H2047 H 0.5692 0.61149 0.72762 0.0
H2048 H 0.55916 0.60723 0.7606 0.0
H2049 H 0.48125 0.68294 0.69746 0.0
H2050 H 0.50871 0.67149 0.6782 0.0
H2051 H 0.4813 0.65026 0.68689 0.0
H2052 H 0.5674 0.62042 0.6397 0.0
H2053 H 0.50038 0.57063 0.65993 0.0
H2054 H 0.5765 0.64908 0.70016 0.0
H2055 H 0.55657 0.66882 0.68286 0.0
H2056 H 0.58348 0.65319 0.66656 0.0
H2057 H 0.49379 0.58997 0.7245 0.0
H2058 H 0.47509 0.57627 0.69826 0.0
H2059 H 0.47283 0.60907 0.70764 0.0
C2060 C 0.48658 0.82904 0.74783 0.0
C2061 C 0.50656 0.8117 0.74588 0.0
C2062 C 0.48297 0.84542 0.72812 0.0
C2063 C 0.49987 0.84458 0.70595 0.0
C2064 C 0.52011 0.82716 0.70382 0.0
C2065 C 0.5232 0.81089 0.72381 0.0
C2066 C 0.46118 0.8638 0.73112 0.0
C2067 C 0.53851 0.82577 0.68046 0.0
C2068 C 0.47355 0.8743 0.64804 0.0
C2069 C 0.48557 0.89869 0.64999 0.0
C2070 C 0.4788 0.85609 0.66557 0.0
C2071 C 0.4966 0.86245 0.68537 0.0
C2072 C 0.50979 0.88665 0.68663 0.0
C2073 C 0.50406 0.90449 0.66895 0.0
C2074 C 0.4643 0.83048 0.66367 0.0
C2075 C 0.52913 0.89406 0.70729 0.0
H2076 H 0.47392 0.83004 0.76498 0.0
H2077 H 0.53846 0.7973 0.72205 0.0
H2078 H 0.46998 0.88338 0.73066 0.0
H2079 H 0.44754 0.86114 0.71499 0.0
H2080 H 0.4493 0.86158 0.74927 0.0
H2081 H 0.55313 0.81104 0.6817 0.0
H2082 H 0.52676 0.82171 0.66317 0.0
H2083 H 0.54957 0.84421 0.67793 0.0
H2084 H 0.45908 0.86981 0.63354 0.0
H2085 H 0.5137 0.92321 0.67021 0.0
H2086 H 0.45015 0.82818 0.68027 0.0
H2087 H 0.47857 0.81541 0.66423 0.0
H2088 H 0.45297 0.82777 0.64591 0.0
H2089 H 0.51835 0.89448 0.72614 0.0
H2090 H 0.53931 0.91288 0.70437 0.0
H2091 H 0.54445 0.87995 0.70801 0.0
C2092 C 0.55724 0.35063 0.74863 0.0
C2093 C 0.55897 0.32673 0.75845 0.0
C2094 C 0.56005 0.3723 0.76457 0.0
C2095 C 0.56383 0.36961 0.79091 0.0
C2096 C 0.56764 0.34545 0.80032 0.0
C2097 C 0.5653 0.32427 0.78383 0.0
C2098 C 0.557 0.39765 0.75343 0.0
C2099 C 0.57164 0.34161 0.82829 0.0
C2100 C 0.57583 0.41536 0.84583 0.0
C2101 C 0.55043 0.41376 0.85779 0.0
C2102 C 0.58018 0.40394 0.82159 0.0
C2103 C 0.5587 0.39045 0.80965 0.0
C2104 C 0.53247 0.39221 0.82004 0.0
C2105 C 0.52868 0.40401 0.84401 0.0
C2106 C 0.60813 0.4039 0.81017 0.0
C2107 C 0.50882 0.37873 0.8076 0.0
H2108 H 0.55261 0.35227 0.72877 0.0
H2109 H 0.56661 0.3056 0.79114 0.0
H2110 H 0.53552 0.40117 0.75286 0.0
H2111 H 0.56702 0.41315 0.76483 0.0
H2112 H 0.56525 0.39799 0.73349 0.0
H2113 H 0.57582 0.32185 0.83209 0.0
H2114 H 0.58843 0.35413 0.8352 0.0
H2115 H 0.55346 0.34651 0.83961 0.0
H2116 H 0.59264 0.42333 0.85632 0.0
H2117 H 0.50896 0.40356 0.85309 0.0
H2118 H 0.60804 0.40441 0.78904 0.0
H2119 H 0.61735 0.38639 0.81519 0.0
H2120 H 0.6207 0.42021 0.81762 0.0
H2121 H 0.50884 0.38282 0.78705 0.0
H2122 H 0.48961 0.38423 0.81669 0.0
H2123 H 0.51004 0.35808 0.80914 0.0
C2124 C 0.5092 0.1568 0.76806 0.0
C2125 C 0.52495 0.17943 0.76887 0.0
C2126 C 0.50728 0.1408 0.7889 0.0
C2127 C 0.52201 0.14721 0.81095 0.0
C2128 C 0.53919 0.16935 0.81119 0.0
C2129 C 0.54035 0.18525 0.7902 0.0
C2130 C 0.48844 0.11769 0.78779 0.0
C2131 C 0.55561 0.17675 0.83404 0.0
C2132 C 0.49282 0.12646 0.87533 0.0
C2133 C 0.50726 0.10543 0.88019 0.0
C2134 C 0.49726 0.13984 0.85287 0.0
C2135 C 0.51708 0.13246 0.8347 0.0
C2136 C 0.53176 0.11116 0.83935 0.0
C2137 C 0.52647 0.0977 0.86192 0.0
C2138 C 0.48065 0.16198 0.84863 0.0
C2139 C 0.55333 0.10289 0.82068 0.0
H2140 H 0.49768 0.15203 0.75132 0.0
H2141 H 0.55286 0.20253 0.79068 0.0
H2142 H 0.49873 0.10082 0.79293 0.0
H2143 H 0.4717 0.12003 0.80191 0.0
H2144 H 0.48009 0.11422 0.76859 0.0
H2145 H 0.57023 0.19272 0.83013 0.0
H2146 H 0.54228 0.18235 0.85034 0.0
H2147 H 0.56648 0.1605 0.83996 0.0
H2148 H 0.47772 0.13248 0.88917 0.0
H2149 H 0.5378 0.08159 0.86557 0.0
H2150 H 0.47036 0.15917 0.83033 0.0
H2151 H 0.49369 0.17945 0.84728 0.0
H2152 H 0.46544 0.1648 0.86422 0.0
H2153 H 0.54498 0.09868 0.80163 0.0
H2154 H 0.56286 0.08593 0.82691 0.0
H2155 H 0.56888 0.11838 0.81844 0.0
C2156 C 0.70383 0.53015 0.70082 0.0
C2157 C 0.72781 0.52168 0.69028 0.0
C2158 C 0.68244 0.53438 0.68522 0.0
C2159 C 0.68511 0.52997 0.65842 0.0
C2160 C 0.70943 0.52147 0.64774 0.0
C2161 C 0.73053 0.51767 0.66376 0.0
C2162 C 0.65702 0.54368 0.69741 0.0
C2163 C 0.71318 0.51641 0.61937 0.0
C2164 C 0.62129 0.51874 0.62155 0.0
C2165 C 0.61849 0.54233 0.6111 0.0
C2166 C 0.64303 0.51437 0.63658 0.0
C2167 C 0.66245 0.53411 0.64159 0.0
C2168 C 0.66001 0.55784 0.63073 0.0
C2169 C 0.63817 0.56163 0.61554 0.0
C2170 C 0.64496 0.48869 0.64745 0.0
C2171 C 0.68015 0.57945 0.63566 0.0
H2172 H 0.70191 0.53362 0.72129 0.0
H2173 H 0.74931 0.51162 0.65555 0.0
H2174 H 0.65253 0.56181 0.68919 0.0
H2175 H 0.64012 0.53001 0.69324 0.0
H2176 H 0.6582 0.54647 0.71843 0.0
H2177 H 0.73316 0.50953 0.61412 0.0
H2178 H 0.69778 0.50214 0.61271 0.0
H2179 H 0.71062 0.53386 0.60903 0.0
H2180 H 0.60625 0.50366 0.61825 0.0
H2181 H 0.63614 0.57997 0.60775 0.0
H2182 H 0.64393 0.49026 0.66861 0.0
H2183 H 0.66442 0.48102 0.64171 0.0
H2184 H 0.62878 0.47508 0.64104 0.0
H2185 H 0.68041 0.58425 0.65641 0.0
H2186 H 0.67577 0.59656 0.62542 0.0
H2187 H 0.70042 0.5739 0.62963 0.0
C2188 C 0.29849 1.00498 0.69383 0.0
C2189 C 0.27364 0.99165 0.69541 0.0
C2190 C 0.3162 1.00161 0.67261 0.0
C2191 C 0.30907 0.98433 0.65237 0.0
C2192 C 0.28355 0.97146 0.65356 0.0
C2193 C 0.26621 0.97528 0.67499 0.0
C2194 C 0.34305 0.01578 0.67237 0.0
C2195 C 0.27498 0.9528 0.63269 0.0
C2196 C 0.35327 0.98443 0.59055 0.0
C2197 C 0.37102 0.96591 0.59537 0.0
C2198 C 0.33264 0.99043 0.6086 0.0
C2199 C 0.32951 0.97744 0.63186 0.0
C2200 C 0.34677 0.95807 0.63615 0.0
C2201 C 0.36715 0.95268 0.61806 0.0
C2202 C 0.31475 0.01121 0.60319 0.0
C2203 C 0.34424 0.94337 0.6603 0.0
H2204 H 0.30434 0.01762 0.70958 0.0
H2205 H 0.24699 0.96499 0.67609 0.0
H2206 H 0.35888 1.00239 0.67443 0.0
H2207 H 0.34699 0.02502 0.65389 0.0
H2208 H 0.34457 0.03034 0.68806 0.0
H2209 H 0.25362 0.94647 0.63494 0.0
H2210 H 0.27846 0.96117 0.61372 0.0
H2211 H 0.2871 0.93605 0.63295 0.0
H2212 H 0.35611 0.99487 0.57322 0.0
H2213 H 0.3805 0.93812 0.62197 0.0
H2214 H 0.31817 0.02713 0.61717 0.0
H2215 H 0.29354 1.00448 0.60551 0.0
H2216 H 0.31835 0.01828 0.58364 0.0
H2217 H 0.34808 0.95623 0.67706 0.0
H2218 H 0.35839 0.9281 0.66025 0.0
H2219 H 0.32369 0.93488 0.66285 0.0
C2220 C 0.71051 0.48719 0.83087 0.0
C2221 C 0.73527 0.50036 0.83342 0.0
C2222 C 0.6931 0.48326 0.85208 0.0
C2223 C 0.70079 0.49235 0.87661 0.0
C2224 C 0.72578 0.50571 0.87931 0.0
C2225 C 0.74263 0.50977 0.85763 0.0
C2226 C 0.66647 0.46928 0.8482 0.0
C2227 C 0.73491 0.51529 0.90515 0.0
C2228 C 0.64324 0.49817 0.9252 0.0
C2229 C 0.64256 0.47471 0.93647 0.0
C2230 C 0.66297 0.50478 0.90657 0.0
C2231 C 0.68255 0.48754 0.89926 0.0
C2232 C 0.6828 0.46442 0.91183 0.0
C2233 C 0.66251 0.45811 0.93004 0.0
C2234 C 0.66164 0.52941 0.89342 0.0
C2235 C 0.70351 0.44566 0.90495 0.0
H2236 H 0.70468 0.48008 0.81215 0.0
H2237 H 0.76188 0.51975 0.85967 0.0
H2238 H 0.66517 0.45174 0.85907 0.0
H2239 H 0.65014 0.48098 0.85562 0.0
H2240 H 0.66313 0.46421 0.8278 0.0
H2241 H 0.75484 0.52541 0.90403 0.0
H2242 H 0.72039 0.52821 0.91399 0.0
H2243 H 0.7358 0.49929 0.918 0.0
H2244 H 0.62735 0.51069 0.92982 0.0
H2245 H 0.66158 0.43977 0.93848 0.0
H2246 H 0.65582 0.52559 0.8734 0.0
H2247 H 0.68145 0.53969 0.89282 0.0
H2248 H 0.64696 0.54176 0.90302 0.0
H2249 H 0.69982 0.43715 0.88569 0.0
H2250 H 0.70314 0.43029 0.91874 0.0
H2251 H 0.72372 0.45518 0.90425 0.0
C2252 C 0.32366 0.04705 0.8391 0.0
C2253 C 0.30169 0.03195 0.84784 0.0
C2254 C 0.34492 0.05373 0.85498 0.0
C2255 C 0.34406 0.0453 0.88029 0.0
C2256 C 0.32145 0.03085 0.88954 0.0
C2257 C 0.30059 0.02418 0.87312 0.0
C2258 C 0.36884 0.06886 0.84427 0.0
C2259 C 0.31967 0.02179 0.9165 0.0
C2260 C 0.41134 0.03644 0.90743 0.0
C2261 C 0.41594 0.05893 0.92185 0.0
C2262 C 0.38771 0.03155 0.89444 0.0
C2263 C 0.36797 0.04946 0.89605 0.0
C2264 C 0.37193 0.07175 0.91139 0.0
C2265 C 0.39598 0.0763 0.92405 0.0
C2266 C 0.38437 0.0076 0.87819 0.0
C2267 C 0.35113 0.09111 0.91379 0.0
H2268 H 0.32465 0.05292 0.8195 0.0
H2269 H 0.28343 0.01279 0.88001 0.0
H2270 H 0.37361 0.08554 0.85693 0.0
H2271 H 0.38645 0.0572 0.84339 0.0
H2272 H 0.36563 0.07537 0.82481 0.0
H2273 H 0.29966 0.01306 0.92155 0.0
H2274 H 0.33468 0.00765 0.91877 0.0
H2275 H 0.32421 0.03767 0.93025 0.0
H2276 H 0.42658 0.02283 0.90564 0.0
H2277 H 0.39935 0.09367 0.93522 0.0
H2278 H 0.38299 0.0123 0.85787 0.0
H2279 H 0.36559 0.99694 0.8838 0.0
H2280 H 0.40117 0.99517 0.8798 0.0
H2281 H 0.34921 0.09981 0.89511 0.0
H2282 H 0.35617 0.10627 0.92823 0.0
H2283 H 0.33141 0.082 0.91912 0.0
C2284 C 0.7219 0.73875 0.52284 0.0
C2285 C 0.70883 0.76035 0.51758 0.0
C2286 C 0.70726 0.71624 0.52859 0.0
C2287 C 0.67905 0.71568 0.52931 0.0
C2288 C 0.66591 0.73768 0.52413 0.0
C2289 C 0.68101 0.75976 0.51833 0.0
C2290 C 0.72188 0.69314 0.53389 0.0
C2291 C 0.63589 0.73792 0.52475 0.0
C2292 C 0.63486 0.65701 0.51764 0.0
C2293 C 0.62376 0.65279 0.54212 0.0
C2294 C 0.65437 0.67638 0.51347 0.0
C2295 C 0.6629 0.69201 0.53432 0.0
C2296 C 0.65315 0.68672 0.55938 0.0
C2297 C 0.63369 0.667 0.56301 0.0
C2298 C 0.66444 0.68117 0.4865 0.0
C2299 C 0.66185 0.70294 0.58209 0.0
H2300 H 0.74349 0.73958 0.52265 0.0
H2301 H 0.67113 0.7768 0.51473 0.0
H2302 H 0.71601 0.68645 0.55318 0.0
H2303 H 0.71632 0.67767 0.52 0.0
H2304 H 0.74386 0.69677 0.53273 0.0
H2305 H 0.62886 0.75677 0.52091 0.0
H2306 H 0.62769 0.72415 0.51027 0.0
H2307 H 0.62761 0.73215 0.54368 0.0
H2308 H 0.62756 0.6456 0.50156 0.0
H2309 H 0.62508 0.66366 0.58191 0.0
H2310 H 0.68648 0.68382 0.48563 0.0
H2311 H 0.6564 0.69876 0.48006 0.0
H2312 H 0.65835 0.66553 0.47295 0.0
H2313 H 0.68382 0.70632 0.58159 0.0
H2314 H 0.65543 0.69432 0.60044 0.0
H2315 H 0.65308 0.72156 0.58144 0.0
C2316 C 0.6987 0.30807 0.98875 0.0
C2317 C 0.69134 0.28672 1.00295 0.0
C2318 C 0.68179 0.32814 0.98751 0.0
C2319 C 0.65666 0.32702 1.0007 0.0
C2320 C 0.64917 0.30567 0.0153 0.0
C2321 C 0.66659 0.28588 0.01633 0.0
C2322 C 0.69081 0.35054 0.9719 0.0
C2323 C 0.62256 0.30356 0.02954 0.0
C2324 C 0.62355 0.38965 0.01231 0.0
C2325 C 0.60658 0.38978 0.99166 0.0
C2326 C 0.63934 0.3691 0.01596 0.0
C2327 C 0.63814 0.34798 0.99862 0.0
C2328 C 0.62029 0.34761 0.97833 0.0
C2329 C 0.60485 0.36845 0.97506 0.0
C2330 C 0.65805 0.37041 0.03784 0.0
C2331 C 0.61813 0.32552 0.95947 0.0
H2332 H 0.71793 0.30921 0.9787 0.0
H2333 H 0.66054 0.26945 0.02719 0.0
H2334 H 0.6768 0.35257 0.95638 0.0
H2335 H 0.69066 0.36806 0.98404 0.0
H2336 H 0.71115 0.34885 0.96324 0.0
H2337 H 0.61993 0.28612 0.04058 0.0
H2338 H 0.62043 0.32006 0.04286 0.0
H2339 H 0.60628 0.30363 0.01586 0.0
H2340 H 0.62517 0.40599 0.02525 0.0
H2341 H 0.59182 0.36822 0.95906 0.0
H2342 H 0.67896 0.37118 0.03025 0.0
H2343 H 0.65505 0.35325 0.04919 0.0
H2344 H 0.65527 0.38719 0.0507 0.0
H2345 H 0.63726 0.32406 0.94843 0.0
H2346 H 0.60201 0.32726 0.94586 0.0
H2347 H 0.61429 0.30772 0.96969 0.0
C2348 C 0.36893 0.27666 0.9892 0.0
C2349 C 0.35014 0.2779 0.00964 0.0
C2350 C 0.385 0.25597 0.98543 0.0
C2351 C 0.38235 0.23587 1.00247 0.0
C2352 C 0.36337 0.23692 0.0231 0.0
C2353 C 0.34757 0.25789 0.02645 0.0
C2354 C 0.4051 0.2558 0.96331 0.0
C2355 C 0.35982 0.21591 0.04168 0.0
C2356 C 0.41153 0.17391 0.97916 0.0
C2357 C 0.43673 0.17597 0.98989 0.0
C2358 C 0.39327 0.19288 0.98365 0.0
C2359 C 0.40033 0.21439 0.99929 0.0
C2360 C 0.42532 0.21602 0.01094 0.0
C2361 C 0.4431 0.19685 1.00614 0.0
C2362 C 0.36682 0.19033 0.97091 0.0
C2363 C 0.43367 0.23843 0.02789 0.0
H2364 H 0.37137 0.29211 0.97628 0.0
H2365 H 0.33287 0.25843 0.04208 0.0
H2366 H 0.4255 0.25553 0.97057 0.0
H2367 H 0.40169 0.2385 0.95113 0.0
H2368 H 0.40414 0.27246 0.95131 0.0
H2369 H 0.34375 0.21921 0.05632 0.0
H2370 H 0.35504 0.19776 0.03129 0.0
H2371 H 0.37869 0.21393 0.05151 0.0
H2372 H 0.40646 0.15798 0.96647 0.0
H2373 H 0.4623 0.19839 0.01491 0.0
H2374 H 0.36597 0.20524 0.95677 0.0
H2375 H 0.35031 0.193 0.9852 0.0
H2376 H 0.36347 0.17169 0.96094 0.0
H2377 H 0.43518 0.25572 0.01662 0.0
H2378 H 0.45318 0.23626 0.03655 0.0
H2379 H 0.41846 0.24128 0.04343 0.0
C2380 C 0.83071 0.29801 0.03167 0.0
C2381 C 0.84024 0.2746 0.02427 0.0
C2382 C 0.84838 0.31882 0.03666 0.0
C2383 C 0.87622 0.31601 0.03417 0.0
C2384 C 0.88589 0.29216 0.02714 0.0
C2385 C 0.8677 0.27167 0.02222 0.0
C2386 C 0.83725 0.34393 0.04402 0.0
C2387 C 0.91537 0.28842 0.02434 0.0
C2388 C 0.9162 0.37663 0.01985 0.0
C2389 C 0.92411 0.38506 0.04423 0.0
C2390 C 0.9017 0.35358 0.01616 0.0
C2391 C 0.89495 0.3385 0.03734 0.0
C2392 C 0.90425 0.34614 0.06175 0.0
C2393 C 0.91876 0.36938 0.06492 0.0
C2394 C 0.89231 0.34609 0.98979 0.0
C2395 C 0.89763 0.33045 0.08475 0.0
H2396 H 0.80938 0.30004 0.03327 0.0
H2397 H 0.87487 0.25338 0.01658 0.0
H2398 H 0.84557 0.35136 0.06226 0.0
H2399 H 0.8432 0.35775 0.02924 0.0
H2400 H 0.81517 0.34267 0.04617 0.0
H2401 H 0.91962 0.26837 0.02033 0.0
H2402 H 0.92424 0.29976 0.00852 0.0
H2403 H 0.92543 0.29512 0.04199 0.0
H2404 H 0.92045 0.38852 1.0037 0.0
H2405 H 0.9248 0.37575 0.08381 0.0
H2406 H 0.8703 0.34662 0.9896 0.0
H2407 H 0.89742 0.32653 0.98454 0.0
H2408 H 0.90116 0.35879 0.97501 0.0
H2409 H 0.87602 0.33089 0.08971 0.0
H2410 H 0.90892 0.33742 0.10164 0.0
H2411 H 0.90198 0.3105 0.08047 0.0
loop_
_geom_bond_atom_site_label_1
_geom_bond_atom_site_label_2
_geom_bond_distance
_geom_bond_site_symmetry_2
_ccdc_geom_bond_type
C0 C1 1.443 . S
C0 N4 1.376 . S
C0 C38 1.389 1_655 S
C1 C0 1.443 . S
C1 C2 1.340 . S
C1 H41 0.951 . S
C2 C1 1.340 . S
C2 C3 1.439 . S
C2 H42 0.950 . S
C3 C2 1.439 . S
C3 N4 1.374 . S
C3 C37 1.395 . S
N4 C0 1.376 . S
N4 C3 1.374 . S
N4 Co5 2.008 1_655 S
Co5 N4 2.008 1_455 S
Co5 N6 1.995 . S
Co5 N11 2.008 . S
Co5 N16 1.995 . S
Co5 N21 2.282 . S
Co5 N27 2.282 . S
N6 Co5 1.995 . S
N6 C7 1.376 1_455 S
N6 C10 1.383 . S
C7 N6 1.376 1_655 S
C7 C8 1.446 . S
C7 C37 1.391 . S
C8 C7 1.446 . S
C8 C9 1.339 . S
C8 H43 0.949 . S
C9 C8 1.339 . S
C9 C10 1.439 1_655 S
C9 H44 0.950 . S
C10 N6 1.383 . S
C10 C9 1.439 1_455 S
C10 C39 1.392 . S
N11 Co5 2.008 . S
N11 C12 1.376 . S
N11 C15 1.374 . S
C12 N11 1.376 . S
C12 C13 1.443 . S
C12 C39 1.389 . S
C13 C12 1.443 . S
C13 C14 1.340 . S
C13 H45 0.951 . S
C14 C13 1.340 . S
C14 C15 1.439 . S
C14 H46 0.950 . S
C15 N11 1.374 . S
C15 C14 1.439 . S
C15 C40 1.395 . S
N16 Co5 1.995 . S
N16 C17 1.376 . S
N16 C20 1.383 . S
C17 N16 1.376 . S
C17 C18 1.446 . S
C17 C40 1.391 . S
C18 C17 1.446 . S
C18 C19 1.339 . S
C18 H47 0.949 . S
C19 C18 1.339 . S
C19 C20 1.439 . S
C19 H48 0.950 . S
C20 N16 1.383 . S
C20 C19 1.439 . S
C20 C38 1.392 . S
N21 Co5 2.282 . S
N21 C24 1.332 . S
N21 C26 1.332 . S
C22 C23 1.386 . S
C22 C25 1.388 . S
C23 C22 1.386 . S
C23 C24 1.382 . S
C23 H49 0.950 . S
C24 N21 1.332 . S
C24 C23 1.382 . S
C24 H35 0.952 . S
C25 C22 1.388 . S
C25 C26 1.382 . S
C25 H50 0.950 . S
C26 N21 1.332 . S
C26 C25 1.382 . S
C26 H36 0.948 1_455 S
N27 Co5 2.282 . S
N27 C31 1.332 . S
N27 C32 1.332 . S
C28 C29 1.388 . S
C28 C32 1.382 . S
C28 H51 0.950 . S
C29 C28 1.388 . S
C29 C30 1.386 1_455 S
C30 C29 1.386 1_655 S
C30 C31 1.382 1_655 S
C30 H52 0.950 . S
C31 N27 1.332 . S
C31 C30 1.382 1_455 S
C31 H33 0.952 1_455 S
C32 N27 1.332 . S
C32 C28 1.382 . S
C32 H34 0.948 . S
H33 C31 0.952 1_655 S
H34 C32 0.948 . S
H35 C24 0.952 . S
H36 C26 0.948 1_655 S
C37 C3 1.395 . S
C37 C7 1.391 . S
C38 C0 1.389 1_455 S
C38 C20 1.392 . S
C39 C10 1.392 . S
C39 C12 1.389 . S
C40 C15 1.395 . S
C40 C17 1.391 . S
H41 C1 0.951 . S
H42 C2 0.950 . S
H43 C8 0.949 . S
H44 C9 0.950 . S
H45 C13 0.951 . S
H46 C14 0.950 . S
H47 C18 0.949 . S
H48 C19 0.950 . S
H49 C23 0.950 . S
H50 C25 0.950 . S
H51 C28 0.950 . S
H52 C30 0.950 . S
C53 C54 1.443 . S
C53 N57 1.376 . S
C53 C91 1.393 1_655 S
C54 C53 1.443 . S
C54 C55 1.340 . S
C54 H94 0.951 . S
C55 C54 1.340 . S
C55 C56 1.439 . S
C55 H95 0.950 . S
C56 C55 1.439 . S
C56 N57 1.374 . S
C56 C90 1.395 . S
N57 C53 1.376 . S
N57 C56 1.374 . S
N57 Co58 2.008 1_655 S
Co58 N57 2.008 1_455 S
Co58 N59 1.995 1_455 S
Co58 N64 2.008 . S
Co58 N69 1.995 . S
Co58 N74 2.282 . S
Co58 N80 2.282 . S
N59 Co58 1.995 1_655 S
N59 C60 1.376 . S
N59 C63 1.383 . S
C60 N59 1.376 . S
C60 C61 1.446 . S
C60 C90 1.391 . S
C61 C60 1.446 . S
C61 C62 1.339 . S
C61 H96 0.949 . S
C62 C61 1.339 . S
C62 C63 1.439 . S
C62 H97 0.950 . S
C63 N59 1.383 . S
C63 C62 1.439 . S
C63 C92 1.392 1_655 S
N64 Co58 2.008 . S
N64 C65 1.376 . S
N64 C68 1.374 . S
C65 N64 1.376 . S
C65 C66 1.443 . S
C65 C92 1.389 . S
C66 C65 1.443 . S
C66 C67 1.340 . S
C66 H98 0.951 . S
C67 C66 1.340 . S
C67 C68 1.439 . S
C67 H99 0.950 . S
C68 N64 1.374 . S
C68 C67 1.439 . S
C68 C93 1.395 . S
N69 Co58 1.995 . S
N69 C70 1.376 . S
N69 C73 1.383 . S
C70 N69 1.376 . S
C70 C71 1.446 . S
C70 C93 1.391 . S
C71 C70 1.446 . S
C71 C72 1.339 . S
C71 H100 0.949 . S
C72 C71 1.339 . S
C72 C73 1.439 . S
C72 H101 0.950 . S
C73 N69 1.383 . S
C73 C72 1.439 . S
C73 C91 1.388 . S
N74 Co58 2.282 . S
N74 C77 1.332 . S
N74 C79 1.332 1_455 S
C75 C76 1.386 . S
C75 C78 1.388 . S
C76 C75 1.386 . S
C76 C77 1.382 . S
C76 H102 0.950 . S
C77 N74 1.332 . S
C77 C76 1.382 . S
C77 H88 0.952 . S
C78 C75 1.388 . S
C78 C79 1.382 1_455 S
C78 H103 0.950 1_455 S
C79 N74 1.332 1_655 S
C79 C78 1.382 1_655 S
C79 H89 0.948 . S
N80 Co58 2.282 . S
N80 C84 1.332 1_455 S
N80 C85 1.332 . S
C81 C82 1.388 1_455 S
C81 C85 1.382 . S
C81 H104 0.950 . S
C82 C81 1.388 1_655 S
C82 C83 1.386 . S
C83 C82 1.386 . S
C83 C84 1.382 . S
C83 H105 0.950 . S
C84 N80 1.332 1_655 S
C84 C83 1.382 . S
C84 H86 0.952 . S
C85 N80 1.332 . S
C85 C81 1.382 . S
C85 H87 0.948 . S
H86 C84 0.952 . S
H87 C85 0.948 . S
H88 C77 0.952 . S
H89 C79 0.948 . S
C90 C56 1.395 . S
C90 C60 1.391 . S
C91 C53 1.393 1_455 S
C91 C73 1.388 . S
C92 C63 1.392 1_455 S
C92 C65 1.389 . S
C93 C68 1.395 . S
C93 C70 1.391 . S
H94 C54 0.951 . S
H95 C55 0.950 . S
H96 C61 0.949 . S
H97 C62 0.950 . S
H98 C66 0.951 . S
H99 C67 0.950 . S
H100 C71 0.949 . S
H101 C72 0.950 . S
H102 C76 0.950 . S
H103 C78 0.950 1_655 S
H104 C81 0.950 . S
H105 C83 0.950 . S
C106 C107 1.443 . S
C106 N110 1.376 . S
C106 C144 1.389 . S
C107 C106 1.443 . S
C107 C108 1.340 . S
C107 H147 0.951 . S
C108 C107 1.340 . S
C108 C109 1.439 . S
C108 H148 0.950 . S
C109 C108 1.439 . S
C109 N110 1.374 . S
C109 C143 1.395 . S
N110 C106 1.376 . S
N110 C109 1.374 . S
N110 Co111 2.008 1_565 S
Co111 N110 2.008 1_545 S
Co111 N112 1.995 1_545 S
Co111 N117 2.008 . S
Co111 N122 1.995 . S
Co111 N127 2.282 . S
Co111 N133 2.282 . S
N112 Co111 1.995 1_565 S
N112 C113 1.376 . S
N112 C116 1.371 1_565 S
C113 N112 1.376 . S
C113 C114 1.446 . S
C113 C143 1.391 . S
C114 C113 1.446 . S
C114 C115 1.339 . S
C114 H149 0.949 . S
C115 C114 1.339 . S
C115 C116 1.418 1_565 S
C115 H150 0.950 . S
C116 N112 1.371 1_545 S
C116 C115 1.418 1_545 S
C116 C145 1.420 . S
N117 Co111 2.008 . S
N117 C118 1.376 . S
N117 C121 1.374 . S
C118 N117 1.376 . S
C118 C119 1.443 . S
C118 C145 1.389 . S
C119 C118 1.443 . S
C119 C120 1.340 . S
C119 H151 0.951 . S
C120 C119 1.340 . S
C120 C121 1.439 . S
C120 H152 0.950 . S
C121 N117 1.374 . S
C121 C120 1.439 . S
C121 C146 1.395 . S
N122 Co111 1.995 . S
N122 C123 1.376 . S
N122 C126 1.383 . S
C123 N122 1.376 . S
C123 C124 1.446 . S
C123 C146 1.391 . S
C124 C123 1.446 . S
C124 C125 1.339 . S
C124 H153 0.949 . S
C125 C124 1.339 . S
C125 C126 1.439 . S
C125 H154 0.950 . S
C126 N122 1.383 . S
C126 C125 1.439 . S
C126 C144 1.392 1_545 S
N127 Co111 2.282 . S
N127 C130 1.332 . S
N127 C132 1.332 . S
C128 C129 1.386 . S
C128 C131 1.388 . S
C129 C128 1.386 . S
C129 C130 1.382 . S
C129 H155 0.950 . S
C130 N127 1.332 . S
C130 C129 1.382 . S
C130 H141 0.952 . S
C131 C128 1.388 . S
C131 C132 1.382 . S
C131 H156 0.950 1_545 S
C132 N127 1.332 . S
C132 C131 1.382 . S
C132 H142 0.948 1_545 S
N133 Co111 2.282 . S
N133 C137 1.332 1_545 S
N133 C138 1.332 . S
C134 C135 1.388 1_545 S
C134 C138 1.382 . S
C134 H157 0.950 . S
C135 C134 1.388 1_565 S
C135 C136 1.386 . S
C136 C135 1.386 . S
C136 C137 1.382 . S
C136 H158 0.950 . S
C137 N133 1.332 1_565 S
C137 C136 1.382 . S
C137 H139 0.952 . S
C138 N133 1.332 . S
C138 C134 1.382 . S
C138 H140 0.948 . S
H139 C137 0.952 . S
H140 C138 0.948 . S
H141 C130 0.952 . S
H142 C132 0.948 1_565 S
C143 C109 1.395 . S
C143 C113 1.391 . S
C144 C106 1.389 . S
C144 C126 1.392 1_565 S
C145 C116 1.420 . S
C145 C118 1.389 . S
C146 C121 1.395 . S
C146 C123 1.391 . S
H147 C107 0.951 . S
H148 C108 0.950 . S
H149 C114 0.949 . S
H150 C115 0.950 . S
H151 C119 0.951 . S
H152 C120 0.950 . S
H153 C124 0.949 . S
H154 C125 0.950 . S
H155 C129 0.950 . S
H156 C131 0.950 1_565 S
H157 C134 0.950 . S
H158 C136 0.950 . S
C159 C160 1.443 . S
C159 N163 1.376 . S
C159 C197 1.389 . S
C160 C159 1.443 . S
C160 C161 1.340 . S
C160 H200 0.951 . S
C161 C160 1.340 . S
C161 C162 1.439 . S
C161 H201 0.950 . S
C162 C161 1.439 . S
C162 N163 1.374 . S
C162 C196 1.395 . S
N163 C159 1.376 . S
N163 C162 1.374 . S
N163 Co164 2.008 . S
Co164 N163 2.008 . S
Co164 N165 1.995 . S
Co164 N170 2.008 . S
Co164 N175 1.995 . S
Co164 N180 2.282 . S
Co164 N186 2.282 . S
N165 Co164 1.995 . S
N165 C166 1.376 . S
N165 C169 1.383 . S
C166 N165 1.376 . S
C166 C167 1.446 . S
C166 C196 1.391 . S
C167 C166 1.446 . S
C167 C168 1.339 . S
C167 H202 0.949 . S
C168 C167 1.339 . S
C168 C169 1.439 . S
C168 H203 0.950 . S
C169 N165 1.383 . S
C169 C168 1.439 . S
C169 C198 1.392 . S
N170 Co164 2.008 . S
N170 C171 1.376 . S
N170 C174 1.374 . S
C171 N170 1.376 . S
C171 C172 1.443 . S
C171 C198 1.389 . S
C172 C171 1.443 . S
C172 C173 1.340 . S
C172 H204 0.951 . S
C173 C172 1.340 . S
C173 C174 1.439 . S
C173 H205 0.950 . S
C174 N170 1.374 . S
C174 C173 1.439 . S
C174 C199 1.395 . S
N175 Co164 1.995 . S
N175 C176 1.376 . S
N175 C179 1.383 . S
C176 N175 1.376 . S
C176 C177 1.446 . S
C176 C199 1.391 . S
C177 C176 1.446 . S
C177 C178 1.339 . S
C177 H206 0.949 . S
C178 C177 1.339 . S
C178 C179 1.439 . S
C178 H207 0.950 . S
C179 N175 1.383 . S
C179 C178 1.439 . S
C179 C197 1.392 . S
N180 Co164 2.282 . S
N180 C183 1.332 . S
N180 C185 1.332 . S
C181 C182 1.386 . S
C181 C184 1.388 . S
C182 C181 1.386 . S
C182 C183 1.382 . S
C182 H208 0.950 . S
C183 N180 1.332 . S
C183 C182 1.382 . S
C183 H194 0.952 . S
C184 C181 1.388 . S
C184 C185 1.382 . S
C184 H209 0.950 . S
C185 N180 1.332 . S
C185 C184 1.382 . S
C185 H195 0.948 . S
N186 Co164 2.282 . S
N186 C190 1.332 . S
N186 C191 1.332 . S
C187 C188 1.388 . S
C187 C191 1.382 . S
C187 H210 0.950 . S
C188 C187 1.388 . S
C188 C189 1.386 . S
C189 C188 1.386 . S
C189 C190 1.382 . S
C189 H211 0.950 . S
C190 N186 1.332 . S
C190 C189 1.382 . S
C190 H192 0.952 . S
C191 N186 1.332 . S
C191 C187 1.382 . S
C191 H193 0.948 . S
H192 C190 0.952 . S
H193 C191 0.948 . S
H194 C183 0.952 . S
H195 C185 0.948 . S
C196 C162 1.395 . S
C196 C166 1.391 . S
C197 C159 1.389 . S
C197 C179 1.392 . S
C198 C169 1.392 . S
C198 C171 1.389 . S
C199 C174 1.395 . S
C199 C176 1.391 . S
H200 C160 0.951 . S
H201 C161 0.950 . S
H202 C167 0.949 . S
H203 C168 0.950 . S
H204 C172 0.951 . S
H205 C173 0.950 . S
H206 C177 0.949 . S
H207 C178 0.950 . S
H208 C182 0.950 . S
H209 C184 0.950 . S
H210 C187 0.950 . S
H211 C189 0.950 . S
C212 C213 1.443 . S
C212 N216 1.376 . S
C212 C250 1.389 1_556 S
C213 C212 1.443 . S
C213 C214 1.340 . S
C213 H253 0.951 . S
C214 C213 1.340 . S
C214 C215 1.439 . S
C214 H254 0.950 . S
C215 C214 1.439 . S
C215 N216 1.374 . S
C215 C249 1.395 . S
N216 C212 1.376 . S
N216 C215 1.374 . S
N216 Co217 2.008 1_556 S
Co217 N216 2.008 1_554 S
Co217 N218 1.995 1_554 S
Co217 N223 2.008 . S
Co217 N228 1.995 . S
Co217 N233 2.282 . S
Co217 N239 2.282 . S
N218 Co217 1.995 1_556 S
N218 C219 1.376 . S
N218 C222 1.383 1_556 S
C219 N218 1.376 . S
C219 C220 1.446 . S
C219 C249 1.391 . S
C220 C219 1.446 . S
C220 C221 1.339 . S
C220 H255 0.949 . S
C221 C220 1.339 . S
C221 C222 1.438 1_556 S
C221 H256 0.950 . S
C222 N218 1.383 1_554 S
C222 C221 1.438 1_554 S
C222 C251 1.392 . S
N223 Co217 2.008 . S
N223 C224 1.376 . S
N223 C227 1.374 . S
C224 N223 1.376 . S
C224 C225 1.443 . S
C224 C251 1.389 . S
C225 C224 1.443 . S
C225 C226 1.340 . S
C225 H257 0.951 . S
C226 C225 1.340 . S
C226 C227 1.439 . S
C226 H258 0.950 . S
C227 N223 1.374 . S
C227 C226 1.439 . S
C227 C252 1.395 . S
N228 Co217 1.995 . S
N228 C229 1.376 . S
N228 C232 1.383 . S
C229 N228 1.376 . S
C229 C230 1.446 . S
C229 C252 1.391 . S
C230 C229 1.446 . S
C230 C231 1.339 . S
C230 H259 0.949 . S
C231 C230 1.339 . S
C231 C232 1.439 . S
C231 H260 0.950 . S
C232 N228 1.383 . S
C232 C231 1.439 . S
C232 C250 1.392 . S
N233 Co217 2.282 . S
N233 C236 1.332 . S
N233 C238 1.332 . S
C234 C235 1.386 . S
C234 C237 1.388 . S
C235 C234 1.386 . S
C235 C236 1.382 . S
C235 H261 0.950 . S
C236 N233 1.332 . S
C236 C235 1.382 . S
C236 H247 0.952 . S
C237 C234 1.388 . S
C237 C238 1.382 . S
C237 H262 0.950 1_554 S
C238 N233 1.332 . S
C238 C237 1.382 . S
C238 H248 0.948 1_554 S
N239 Co217 2.282 . S
N239 C243 1.332 1_554 S
N239 C244 1.332 . S
C240 C241 1.388 1_554 S
C240 C244 1.382 . S
C240 H263 0.950 . S
C241 C240 1.388 1_556 S
C241 C242 1.386 . S
C242 C241 1.386 . S
C242 C243 1.382 . S
C242 H264 0.950 . S
C243 N239 1.332 1_556 S
C243 C242 1.382 . S
C243 H245 0.952 . S
C244 N239 1.332 . S
C244 C240 1.382 . S
C244 H246 0.948 . S
H245 C243 0.952 . S
H246 C244 0.948 . S
H247 C236 0.952 . S
H248 C238 0.948 1_556 S
C249 C215 1.395 . S
C249 C219 1.391 . S
C250 C212 1.389 1_554 S
C250 C232 1.392 . S
C251 C222 1.392 . S
C251 C224 1.389 . S
C252 C227 1.395 . S
C252 C229 1.391 . S
H253 C213 0.951 . S
H254 C214 0.950 . S
H255 C220 0.949 . S
H256 C221 0.950 . S
H257 C225 0.951 . S
H258 C226 0.950 . S
H259 C230 0.949 . S
H260 C231 0.950 . S
H261 C235 0.950 . S
H262 C237 0.950 1_556 S
H263 C240 0.950 . S
H264 C242 0.950 . S
C265 C266 1.443 . S
C265 N269 1.376 . S
C265 C303 1.389 . S
C266 C265 1.443 . S
C266 C267 1.340 . S
C266 H306 0.951 . S
C267 C266 1.340 . S
C267 C268 1.439 . S
C267 H307 0.950 . S
C268 C267 1.439 . S
C268 N269 1.374 . S
C268 C302 1.395 . S
N269 C265 1.376 . S
N269 C268 1.374 . S
N269 Co270 2.008 . S
Co270 N269 2.008 . S
Co270 N271 1.995 . S
Co270 N276 2.008 . S
Co270 N281 1.995 . S
Co270 N286 2.282 . S
Co270 N292 2.282 . S
N271 Co270 1.995 . S
N271 C272 1.376 . S
N271 C275 1.383 . S
C272 N271 1.376 . S
C272 C273 1.446 . S
C272 C302 1.391 . S
C273 C272 1.446 . S
C273 C274 1.339 . S
C273 H308 0.949 . S
C274 C273 1.339 . S
C274 C275 1.439 . S
C274 H309 0.950 . S
C275 N271 1.383 . S
C275 C274 1.439 . S
C275 C304 1.392 . S
N276 Co270 2.008 . S
N276 C277 1.376 . S
N276 C280 1.374 . S
C277 N276 1.376 . S
C277 C278 1.443 . S
C277 C304 1.389 . S
C278 C277 1.443 . S
C278 C279 1.340 . S
C278 H310 0.951 . S
C279 C278 1.340 . S
C279 C280 1.439 . S
C279 H311 0.950 . S
C280 N276 1.374 . S
C280 C279 1.439 . S
C280 C305 1.395 . S
N281 Co270 1.995 . S
N281 C282 1.376 . S
N281 C285 1.383 . S
C282 N281 1.376 . S
C282 C283 1.446 . S
C282 C305 1.391 . S
C283 C282 1.446 . S
C283 C284 1.339 . S
C283 H312 0.949 . S
C284 C283 1.339 . S
C284 C285 1.439 . S
C284 H313 0.950 . S
C285 N281 1.383 . S
C285 C284 1.439 . S
C285 C303 1.392 . S
N286 Co270 2.282 . S
N286 C289 1.332 . S
N286 C291 1.332 . S
C287 C288 1.386 . S
C287 C290 1.388 . S
C288 C287 1.386 . S
C288 C289 1.382 . S
C288 H314 0.950 . S
C289 N286 1.332 . S
C289 C288 1.382 . S
C289 H300 0.952 . S
C290 C287 1.388 . S
C290 C291 1.382 . S
C290 H315 0.950 . S
C291 N286 1.332 . S
C291 C290 1.382 . S
C291 H301 0.948 . S
N292 Co270 2.282 . S
N292 C296 1.332 . S
N292 C297 1.332 . S
C293 C294 1.388 . S
C293 C297 1.382 . S
C293 H316 0.950 . S
C294 C293 1.388 . S
C294 C295 1.386 . S
C295 C294 1.386 . S
C295 C296 1.382 . S
C295 H317 0.950 . S
C296 N292 1.332 . S
C296 C295 1.382 . S
C296 H298 0.952 . S
C297 N292 1.332 . S
C297 C293 1.382 . S
C297 H299 0.948 . S
H298 C296 0.952 . S
H299 C297 0.948 . S
H300 C289 0.952 . S
H301 C291 0.948 . S
C302 C268 1.395 . S
C302 C272 1.391 . S
C303 C265 1.389 . S
C303 C285 1.392 . S
C304 C275 1.392 . S
C304 C277 1.389 . S
C305 C280 1.395 . S
C305 C282 1.391 . S
H306 C266 0.951 . S
H307 C267 0.950 . S
H308 C273 0.949 . S
H309 C274 0.950 . S
H310 C278 0.951 . S
H311 C279 0.950 . S
H312 C283 0.949 . S
H313 C284 0.950 . S
H314 C288 0.950 . S
H315 C290 0.950 . S
H316 C293 0.950 . S
H317 C295 0.950 . S
C318 C319 1.443 . S
C318 N322 1.376 . S
C318 C356 1.389 . S
C319 C318 1.443 . S
C319 C320 1.340 . S
C319 H359 0.951 . S
C320 C319 1.340 . S
C320 C321 1.439 . S
C320 H360 0.950 . S
C321 C320 1.439 . S
C321 N322 1.374 . S
C321 C355 1.395 . S
N322 C318 1.376 . S
N322 C321 1.374 . S
N322 Co323 2.008 . S
Co323 N322 2.008 . S
Co323 N324 1.995 . S
Co323 N329 2.008 . S
Co323 N334 1.995 . S
Co323 N339 2.282 . S
Co323 N345 2.282 . S
N324 Co323 1.995 . S
N324 C325 1.376 . S
N324 C328 1.383 . S
C325 N324 1.376 . S
C325 C326 1.446 . S
C325 C355 1.391 . S
C326 C325 1.446 . S
C326 C327 1.339 . S
C326 H361 0.949 . S
C327 C326 1.339 . S
C327 C328 1.439 . S
C327 H362 0.950 . S
C328 N324 1.383 . S
C328 C327 1.439 . S
C328 C357 1.392 . S
N329 Co323 2.008 . S
N329 C330 1.376 . S
N329 C333 1.374 . S
C330 N329 1.376 . S
C330 C331 1.443 . S
C330 C357 1.389 . S
C331 C330 1.443 . S
C331 C332 1.340 . S
C331 H363 0.951 . S
C332 C331 1.340 . S
C332 C333 1.439 . S
C332 H364 0.950 . S
C333 N329 1.374 . S
C333 C332 1.439 . S
C333 C358 1.395 . S
N334 Co323 1.995 . S
N334 C335 1.376 . S
N334 C338 1.383 . S
C335 N334 1.376 . S
C335 C336 1.446 . S
C335 C358 1.391 . S
C336 C335 1.446 . S
C336 C337 1.339 . S
C336 H365 0.949 . S
C337 C336 1.339 . S
C337 C338 1.439 . S
C337 H366 0.950 . S
C338 N334 1.383 . S
C338 C337 1.439 . S
C338 C356 1.392 . S
N339 Co323 2.282 . S
N339 C342 1.332 . S
N339 C344 1.332 . S
C340 C341 1.386 . S
C340 C343 1.388 . S
C341 C340 1.386 . S
C341 C342 1.382 . S
C341 H367 0.950 . S
C342 N339 1.332 . S
C342 C341 1.382 . S
C342 H353 0.952 . S
C343 C340 1.388 . S
C343 C344 1.382 . S
C343 H368 0.950 . S
C344 N339 1.332 . S
C344 C343 1.382 . S
C344 H354 0.948 . S
N345 Co323 2.282 . S
N345 C349 1.332 . S
N345 C350 1.332 . S
C346 C347 1.388 . S
C346 C350 1.382 . S
C346 H369 0.950 . S
C347 C346 1.388 . S
C347 C348 1.386 . S
C348 C347 1.386 . S
C348 C349 1.382 . S
C348 H370 0.950 . S
C349 N345 1.332 . S
C349 C348 1.382 . S
C349 H351 0.952 . S
C350 N345 1.332 . S
C350 C346 1.382 . S
C350 H352 0.948 . S
H351 C349 0.952 . S
H352 C350 0.948 . S
H353 C342 0.952 . S
H354 C344 0.948 . S
C355 C321 1.395 . S
C355 C325 1.391 . S
C356 C318 1.389 . S
C356 C338 1.392 . S
C357 C328 1.392 . S
C357 C330 1.389 . S
C358 C333 1.395 . S
C358 C335 1.391 . S
H359 C319 0.951 . S
H360 C320 0.950 . S
H361 C326 0.949 . S
H362 C327 0.950 . S
H363 C331 0.951 . S
H364 C332 0.950 . S
H365 C336 0.949 . S
H366 C337 0.950 . S
H367 C341 0.950 . S
H368 C343 0.950 . S
H369 C346 0.950 . S
H370 C348 0.950 . S
C371 C372 1.443 . S
C371 N375 1.376 . S
C371 C409 1.389 . S
C372 C371 1.443 . S
C372 C373 1.340 . S
C372 H412 0.951 . S
C373 C372 1.340 . S
C373 C374 1.439 . S
C373 H413 0.950 . S
C374 C373 1.439 . S
C374 N375 1.374 . S
C374 C408 1.395 . S
N375 C371 1.376 . S
N375 C374 1.374 . S
N375 Co376 2.008 . S
Co376 N375 2.008 . S
Co376 N377 1.995 . S
Co376 N382 2.008 . S
Co376 N387 1.995 . S
Co376 N392 2.282 . S
Co376 N398 2.282 . S
N377 Co376 1.995 . S
N377 C378 1.376 . S
N377 C381 1.383 . S
C378 N377 1.376 . S
C378 C379 1.446 . S
C378 C408 1.391 . S
C379 C378 1.446 . S
C379 C380 1.339 . S
C379 H414 0.949 . S
C380 C379 1.339 . S
C380 C381 1.439 . S
C380 H415 0.950 . S
C381 N377 1.383 . S
C381 C380 1.439 . S
C381 C410 1.392 . S
N382 Co376 2.008 . S
N382 C383 1.376 . S
N382 C386 1.374 . S
C383 N382 1.376 . S
C383 C384 1.443 . S
C383 C410 1.389 . S
C384 C383 1.443 . S
C384 C385 1.340 . S
C384 H416 0.951 . S
C385 C384 1.340 . S
C385 C386 1.439 . S
C385 H417 0.950 . S
C386 N382 1.374 . S
C386 C385 1.439 . S
C386 C411 1.395 . S
N387 Co376 1.995 . S
N387 C388 1.376 . S
N387 C391 1.383 . S
C388 N387 1.376 . S
C388 C389 1.446 . S
C388 C411 1.391 . S
C389 C388 1.446 . S
C389 C390 1.339 . S
C389 H418 0.949 . S
C390 C389 1.339 . S
C390 C391 1.439 . S
C390 H419 0.950 . S
C391 N387 1.383 . S
C391 C390 1.439 . S
C391 C409 1.392 . S
N392 Co376 2.282 . S
N392 C395 1.332 . S
N392 C397 1.332 . S
C393 C394 1.386 . S
C393 C396 1.388 . S
C394 C393 1.386 . S
C394 C395 1.382 . S
C394 H420 0.950 . S
C395 N392 1.332 . S
C395 C394 1.382 . S
C395 H406 0.952 . S
C396 C393 1.388 . S
C396 C397 1.382 . S
C396 H421 0.950 . S
C397 N392 1.332 . S
C397 C396 1.382 . S
C397 H407 0.948 . S
N398 Co376 2.282 . S
N398 C402 1.332 . S
N398 C403 1.332 . S
C399 C400 1.388 . S
C399 C403 1.382 . S
C399 H422 0.950 . S
C400 C399 1.388 . S
C400 C401 1.386 . S
C401 C400 1.386 . S
C401 C402 1.382 . S
C401 H423 0.950 . S
C402 N398 1.332 . S
C402 C401 1.382 . S
C402 H404 0.952 . S
C403 N398 1.332 . S
C403 C399 1.382 . S
C403 H405 0.948 . S
H404 C402 0.952 . S
H405 C403 0.948 . S
H406 C395 0.952 . S
H407 C397 0.948 . S
C408 C374 1.395 . S
C408 C378 1.391 . S
C409 C371 1.389 . S
C409 C391 1.392 . S
C410 C381 1.392 . S
C410 C383 1.389 . S
C411 C386 1.395 . S
C411 C388 1.391 . S
H412 C372 0.951 . S
H413 C373 0.950 . S
H414 C379 0.949 . S
H415 C380 0.950 . S
H416 C384 0.951 . S
H417 C385 0.950 . S
H418 C389 0.949 . S
H419 C390 0.950 . S
H420 C394 0.950 . S
H421 C396 0.950 . S
H422 C399 0.950 . S
H423 C401 0.950 . S
C424 C425 1.443 . S
C424 N428 1.376 . S
C424 C462 1.389 . S
C425 C424 1.443 . S
C425 C426 1.340 . S
C425 H465 0.951 . S
C426 C425 1.340 . S
C426 C427 1.439 . S
C426 H466 0.950 . S
C427 C426 1.439 . S
C427 N428 1.374 . S
C427 C461 1.395 . S
N428 C424 1.376 . S
N428 C427 1.374 . S
N428 Co429 2.008 . S
Co429 N428 2.008 . S
Co429 N430 1.995 . S
Co429 N435 2.008 . S
Co429 N440 1.995 . S
Co429 N445 2.282 . S
Co429 N451 2.282 . S
N430 Co429 1.995 . S
N430 C431 1.376 . S
N430 C434 1.383 . S
C431 N430 1.376 . S
C431 C432 1.446 . S
C431 C461 1.391 . S
C432 C431 1.446 . S
C432 C433 1.339 . S
C432 H467 0.949 . S
C433 C432 1.339 . S
C433 C434 1.439 . S
C433 H468 0.950 . S
C434 N430 1.383 . S
C434 C433 1.439 . S
C434 C463 1.392 . S
N435 Co429 2.008 . S
N435 C436 1.376 . S
N435 C439 1.374 . S
C436 N435 1.376 . S
C436 C437 1.443 . S
C436 C463 1.389 . S
C437 C436 1.443 . S
C437 C438 1.340 . S
C437 H469 0.951 . S
C438 C437 1.340 . S
C438 C439 1.439 . S
C438 H470 0.950 . S
C439 N435 1.374 . S
C439 C438 1.439 . S
C439 C464 1.395 . S
N440 Co429 1.995 . S
N440 C441 1.376 . S
N440 C444 1.383 . S
C441 N440 1.376 . S
C441 C442 1.446 . S
C441 C464 1.391 . S
C442 C441 1.446 . S
C442 C443 1.339 . S
C442 H471 0.949 . S
C443 C442 1.339 . S
C443 C444 1.439 . S
C443 H472 0.950 . S
C444 N440 1.383 . S
C444 C443 1.439 . S
C444 C462 1.392 . S
N445 Co429 2.282 . S
N445 C448 1.332 . S
N445 C450 1.332 . S
C446 C447 1.386 . S
C446 C449 1.388 . S
C447 C446 1.386 . S
C447 C448 1.382 . S
C447 H473 0.950 . S
C448 N445 1.332 . S
C448 C447 1.382 . S
C448 H459 0.952 . S
C449 C446 1.388 . S
C449 C450 1.382 . S
C449 H474 0.950 . S
C450 N445 1.332 . S
C450 C449 1.382 . S
C450 H460 0.948 . S
N451 Co429 2.282 . S
N451 C455 1.332 . S
N451 C456 1.332 . S
C452 C453 1.388 . S
C452 C456 1.382 . S
C452 H475 0.950 . S
C453 C452 1.388 . S
C453 C454 1.386 . S
C454 C453 1.386 . S
C454 C455 1.382 . S
C454 H476 0.950 . S
C455 N451 1.332 . S
C455 C454 1.382 . S
C455 H457 0.952 . S
C456 N451 1.332 . S
C456 C452 1.382 . S
C456 H458 0.948 . S
H457 C455 0.952 . S
H458 C456 0.948 . S
H459 C448 0.952 . S
H460 C450 0.948 . S
C461 C427 1.395 . S
C461 C431 1.391 . S
C462 C424 1.389 . S
C462 C444 1.392 . S
C463 C434 1.392 . S
C463 C436 1.389 . S
C464 C439 1.395 . S
C464 C441 1.391 . S
H465 C425 0.951 . S
H466 C426 0.950 . S
H467 C432 0.949 . S
H468 C433 0.950 . S
H469 C437 0.951 . S
H470 C438 0.950 . S
H471 C442 0.949 . S
H472 C443 0.950 . S
H473 C447 0.950 . S
H474 C449 0.950 . S
H475 C452 0.950 . S
H476 C454 0.950 . S
C477 C478 1.443 . S
C477 N481 1.376 . S
C477 C515 1.389 . S
C478 C477 1.443 . S
C478 C479 1.340 . S
C478 H518 0.951 . S
C479 C478 1.340 . S
C479 C480 1.439 . S
C479 H519 0.950 . S
C480 C479 1.439 . S
C480 N481 1.374 . S
C480 C514 1.395 . S
N481 C477 1.376 . S
N481 C480 1.374 . S
N481 Co482 2.008 . S
Co482 N481 2.008 . S
Co482 N483 1.995 . S
Co482 N488 2.008 . S
Co482 N493 1.995 . S
Co482 N498 2.282 . S
Co482 N504 2.282 . S
N483 Co482 1.995 . S
N483 C484 1.376 . S
N483 C487 1.383 . S
C484 N483 1.376 . S
C484 C485 1.446 . S
C484 C514 1.391 . S
C485 C484 1.446 . S
C485 C486 1.339 . S
C485 H520 0.949 . S
C486 C485 1.339 . S
C486 C487 1.439 . S
C486 H521 0.950 . S
C487 N483 1.383 . S
C487 C486 1.439 . S
C487 C516 1.392 . S
N488 Co482 2.008 . S
N488 C489 1.376 . S
N488 C492 1.374 . S
C489 N488 1.376 . S
C489 C490 1.443 . S
C489 C516 1.389 . S
C490 C489 1.443 . S
C490 C491 1.340 . S
C490 H522 0.951 . S
C491 C490 1.340 . S
C491 C492 1.439 . S
C491 H523 0.950 . S
C492 N488 1.374 . S
C492 C491 1.439 . S
C492 C517 1.395 . S
N493 Co482 1.995 . S
N493 C494 1.376 . S
N493 C497 1.383 . S
C494 N493 1.376 . S
C494 C495 1.446 . S
C494 C517 1.391 . S
C495 C494 1.446 . S
C495 C496 1.339 . S
C495 H524 0.949 . S
C496 C495 1.339 . S
C496 C497 1.439 . S
C496 H525 0.950 . S
C497 N493 1.383 . S
C497 C496 1.439 . S
C497 C515 1.392 . S
N498 Co482 2.282 . S
N498 C501 1.332 . S
N498 C503 1.332 . S
C499 C500 1.386 . S
C499 C502 1.388 . S
C500 C499 1.386 . S
C500 C501 1.382 . S
C500 H526 0.950 . S
C501 N498 1.332 . S
C501 C500 1.382 . S
C501 H512 0.952 . S
C502 C499 1.388 . S
C502 C503 1.382 . S
C502 H527 0.950 . S
C503 N498 1.332 . S
C503 C502 1.382 . S
C503 H513 0.948 . S
N504 Co482 2.282 . S
N504 C508 1.332 . S
N504 C509 1.332 . S
C505 C506 1.388 . S
C505 C509 1.382 . S
C505 H528 0.950 . S
C506 C505 1.388 . S
C506 C507 1.386 . S
C507 C506 1.386 . S
C507 C508 1.382 . S
C507 H529 0.950 . S
C508 N504 1.332 . S
C508 C507 1.382 . S
C508 H510 0.952 . S
C509 N504 1.332 . S
C509 C505 1.382 . S
C509 H511 0.948 . S
H510 C508 0.952 . S
H511 C509 0.948 . S
H512 C501 0.952 . S
H513 C503 0.948 . S
C514 C480 1.395 . S
C514 C484 1.391 . S
C515 C477 1.389 . S
C515 C497 1.392 . S
C516 C487 1.392 . S
C516 C489 1.389 . S
C517 C492 1.395 . S
C517 C494 1.391 . S
H518 C478 0.951 . S
H519 C479 0.950 . S
H520 C485 0.949 . S
H521 C486 0.950 . S
H522 C490 0.951 . S
H523 C491 0.950 . S
H524 C495 0.949 . S
H525 C496 0.950 . S
H526 C500 0.950 . S
H527 C502 0.950 . S
H528 C505 0.950 . S
H529 C507 0.950 . S
C530 C531 1.443 . S
C530 N534 1.376 . S
C530 C568 1.389 . S
C531 C530 1.443 . S
C531 C532 1.340 . S
C531 H571 0.951 . S
C532 C531 1.340 . S
C532 C533 1.439 . S
C532 H572 0.950 . S
C533 C532 1.439 . S
C533 N534 1.374 . S
C533 C567 1.395 . S
N534 C530 1.376 . S
N534 C533 1.374 . S
N534 Co535 2.008 . S
Co535 N534 2.008 . S
Co535 N536 1.995 . S
Co535 N541 2.008 1_545 S
Co535 N546 1.995 1_545 S
Co535 N551 2.282 . S
Co535 N557 2.282 . S
N536 Co535 1.995 . S
N536 C537 1.376 . S
N536 C540 1.383 . S
C537 N536 1.376 . S
C537 C538 1.446 . S
C537 C567 1.391 . S
C538 C537 1.446 . S
C538 C539 1.339 . S
C538 H573 0.949 . S
C539 C538 1.339 . S
C539 C540 1.439 . S
C539 H574 0.950 . S
C540 N536 1.383 . S
C540 C539 1.439 . S
C540 C569 1.392 1_545 S
N541 Co535 2.008 1_565 S
N541 C542 1.376 . S
N541 C545 1.374 . S
C542 N541 1.376 . S
C542 C543 1.443 . S
C542 C569 1.389 . S
C543 C542 1.443 . S
C543 C544 1.340 . S
C543 H575 0.951 . S
C544 C543 1.340 . S
C544 C545 1.439 . S
C544 H576 0.950 . S
C545 N541 1.374 . S
C545 C544 1.439 . S
C545 C570 1.395 . S
N546 Co535 1.995 1_565 S
N546 C547 1.376 . S
N546 C550 1.383 . S
C547 N546 1.376 . S
C547 C548 1.446 . S
C547 C570 1.391 . S
C548 C547 1.446 . S
C548 C549 1.339 . S
C548 H577 0.949 . S
C549 C548 1.339 . S
C549 C550 1.439 . S
C549 H578 0.950 . S
C550 N546 1.383 . S
C550 C549 1.439 . S
C550 C568 1.392 1_565 S
N551 Co535 2.282 . S
N551 C554 1.332 1_545 S
N551 C556 1.332 . S
C552 C553 1.386 . S
C552 C555 1.388 1_565 S
C553 C552 1.386 . S
C553 C554 1.382 . S
C553 H579 0.950 . S
C554 N551 1.332 1_565 S
C554 C553 1.382 . S
C554 H565 0.952 . S
C555 C552 1.388 1_545 S
C555 C556 1.382 . S
C555 H580 0.950 . S
C556 N551 1.332 . S
C556 C555 1.382 . S
C556 H566 0.948 . S
N557 Co535 2.282 . S
N557 C561 1.332 . S
N557 C562 1.342 . S
C558 C559 1.388 . S
C558 C562 1.385 . S
C558 H581 0.950 1_545 S
C559 C558 1.388 . S
C559 C560 1.386 . S
C560 C559 1.386 . S
C560 C561 1.382 . S
C560 H582 0.950 . S
C561 N557 1.332 . S
C561 C560 1.382 . S
C561 H563 0.952 . S
C562 N557 1.342 . S
C562 C558 1.385 . S
C562 H564 0.935 1_545 S
H563 C561 0.952 . S
H564 C562 0.935 1_565 S
H565 C554 0.952 . S
H566 C556 0.948 . S
C567 C533 1.395 . S
C567 C537 1.391 . S
C568 C530 1.389 . S
C568 C550 1.392 1_545 S
C569 C540 1.392 1_565 S
C569 C542 1.389 . S
C570 C545 1.395 . S
C570 C547 1.391 . S
H571 C531 0.951 . S
H572 C532 0.950 . S
H573 C538 0.949 . S
H574 C539 0.950 . S
H575 C543 0.951 . S
H576 C544 0.950 . S
H577 C548 0.949 . S
H578 C549 0.950 . S
H579 C553 0.950 . S
H580 C555 0.950 . S
H581 C558 0.950 1_565 S
H582 C560 0.950 . S
C583 C584 1.443 . S
C583 N587 1.376 . S
C583 C621 1.405 . S
C584 C583 1.443 . S
C584 C585 1.340 . S
C584 H624 0.951 . S
C585 C584 1.340 . S
C585 C586 1.439 . S
C585 H625 0.950 . S
C586 C585 1.439 . S
C586 N587 1.374 . S
C586 C620 1.395 . S
N587 C583 1.376 . S
N587 C586 1.374 . S
N587 Co588 2.008 1_556 S
Co588 N587 2.008 1_554 S
Co588 N589 1.995 1_554 S
Co588 N594 2.008 . S
Co588 N599 1.995 . S
Co588 N604 2.282 . S
Co588 N610 2.282 . S
N589 Co588 1.995 1_556 S
N589 C590 1.376 . S
N589 C593 1.377 1_556 S
C590 N589 1.376 . S
C590 C591 1.446 . S
C590 C620 1.391 . S
C591 C590 1.446 . S
C591 C592 1.339 . S
C591 H626 0.949 . S
C592 C591 1.339 . S
C592 C593 1.425 1_556 S
C592 H627 0.950 . S
C593 N589 1.377 1_554 S
C593 C592 1.425 1_554 S
C593 C622 1.410 . S
N594 Co588 2.008 . S
N594 C595 1.376 . S
N594 C598 1.374 . S
C595 N594 1.376 . S
C595 C596 1.443 . S
C595 C622 1.389 . S
C596 C595 1.443 . S
C596 C597 1.340 . S
C596 H628 0.951 . S
C597 C596 1.340 . S
C597 C598 1.439 . S
C597 H629 0.950 . S
C598 N594 1.374 . S
C598 C597 1.439 . S
C598 C623 1.395 . S
N599 Co588 1.995 . S
N599 C600 1.376 . S
N599 C603 1.383 . S
C600 N599 1.376 . S
C600 C601 1.446 . S
C600 C623 1.391 . S
C601 C600 1.446 . S
C601 C602 1.339 . S
C601 H630 0.949 . S
C602 C601 1.339 . S
C602 C603 1.439 . S
C602 H631 0.950 . S
C603 N599 1.383 . S
C603 C602 1.439 . S
C603 C621 1.372 1_554 S
N604 Co588 2.282 . S
N604 C607 1.332 . S
N604 C609 1.328 1_554 S
C605 C606 1.386 . S
C605 C608 1.388 . S
C606 C605 1.386 . S
C606 C607 1.382 . S
C606 H632 0.950 . S
C607 N604 1.332 . S
C607 C606 1.382 . S
C607 H618 0.952 . S
C608 C605 1.388 . S
C608 C609 1.381 1_554 S
C608 H633 0.950 1_554 S
C609 N604 1.328 1_556 S
C609 C608 1.381 1_556 S
C609 H619 0.954 . S
N610 Co588 2.282 . S
N610 C614 1.332 1_554 S
N610 C615 1.332 . S
C611 C612 1.388 1_554 S
C611 C615 1.382 . S
C611 H634 0.950 . S
C612 C611 1.388 1_556 S
C612 C613 1.386 . S
C613 C612 1.386 . S
C613 C614 1.382 . S
C613 H635 0.950 . S
C614 N610 1.332 1_556 S
C614 C613 1.382 . S
C614 H616 0.952 . S
C615 N610 1.332 . S
C615 C611 1.382 . S
C615 H617 0.948 . S
H616 C614 0.952 . S
H617 C615 0.948 . S
H618 C607 0.952 . S
H619 C609 0.954 . S
C620 C586 1.395 . S
C620 C590 1.391 . S
C621 C583 1.405 . S
C621 C603 1.372 1_556 S
C622 C593 1.410 . S
C622 C595 1.389 . S
C623 C598 1.395 . S
C623 C600 1.391 . S
H624 C584 0.951 . S
H625 C585 0.950 . S
H626 C591 0.949 . S
H627 C592 0.950 . S
H628 C596 0.951 . S
H629 C597 0.950 . S
H630 C601 0.949 . S
H631 C602 0.950 . S
H632 C606 0.950 . S
H633 C608 0.950 1_556 S
H634 C611 0.950 . S
H635 C613 0.950 . S
Co636 N641 2.057 . S
Co636 O653 2.021 . S
Co636 O656 2.062 . S
Co636 O660 2.117 . S
Co636 O661 2.020 . S
C637 O657 1.259 . S
C637 O660 1.258 . S
Co638 N647 2.057 . S
Co638 O654 2.117 . S
Co638 O655 2.020 . S
Co638 O657 2.021 . S
Co638 O662 2.062 . S
C639 N641 1.316 1_565 S
C639 N642 1.347 . S
C639 H644 0.931 . S
C640 N641 1.375 . S
C640 C643 1.350 1_545 S
C640 H645 0.930 . S
N641 Co636 2.057 . S
N641 C639 1.316 1_545 S
N641 C640 1.375 . S
N642 C639 1.347 . S
N642 C643 1.373 . S
C643 C640 1.350 1_565 S
C643 N642 1.373 . S
C643 H664 0.931 . S
H644 C639 0.931 . S
H645 C640 0.930 . S
C646 O653 1.259 . S
C646 O654 1.258 . S
N647 Co638 2.057 . S
N647 C648 1.316 . S
N647 C649 1.375 . S
C648 N647 1.316 . S
C648 N650 1.347 . S
C648 H659 0.931 . S
C649 N647 1.375 . S
C649 C651 1.350 . S
C649 H658 0.930 1_554 S
N650 C648 1.347 . S
N650 C651 1.374 . S
C651 C649 1.350 . S
C651 N650 1.374 . S
C651 H665 0.930 1_554 S
C652 O655 1.256 . S
C652 O656 1.255 . S
O653 Co636 2.021 . S
O653 C646 1.259 . S
O654 Co638 2.117 . S
O654 C646 1.258 . S
O655 Co638 2.020 . S
O655 C652 1.256 . S
O656 Co636 2.062 . S
O656 C652 1.255 . S
O657 C637 1.259 . S
O657 Co638 2.021 . S
H658 C649 0.930 1_556 S
H659 C648 0.931 . S
O660 Co636 2.117 . S
O660 C637 1.258 . S
O661 Co636 2.020 . S
O661 C663 1.256 . S
O662 Co638 2.062 . S
O662 C663 1.255 . S
C663 O661 1.256 . S
C663 O662 1.255 . S
H664 C643 0.931 . S
H665 C651 0.930 1_556 S
Co666 N671 2.057 . S
Co666 O683 2.021 . S
Co666 O686 2.062 . S
Co666 O690 2.117 . S
Co666 O691 2.020 . S
C667 O687 1.259 . S
C667 O690 1.258 . S
Co668 N677 2.057 1_554 S
Co668 O684 2.117 . S
Co668 O685 2.020 . S
Co668 O687 2.021 . S
Co668 O692 2.062 . S
C669 N671 1.316 . S
C669 N672 1.347 . S
C669 H674 0.931 . S
C670 N671 1.375 . S
C670 C673 1.350 . S
C670 H675 0.930 . S
N671 Co666 2.057 . S
N671 C669 1.316 . S
N671 C670 1.375 . S
N672 C669 1.347 . S
N672 C673 1.373 . S
C673 C670 1.350 . S
C673 N672 1.373 . S
C673 H694 0.931 1_655 S
H674 C669 0.931 . S
H675 C670 0.930 . S
C676 O683 1.259 . S
C676 O684 1.258 . S
N677 Co668 2.057 1_556 S
N677 C678 1.316 . S
N677 C679 1.375 . S
C678 N677 1.316 . S
C678 N680 1.347 . S
C678 H689 0.931 . S
C679 N677 1.375 . S
C679 C681 1.350 . S
C679 H688 0.930 . S
N680 C678 1.347 . S
N680 C681 1.373 . S
C681 C679 1.350 . S
C681 N680 1.373 . S
C681 H695 0.931 . S
C682 O685 1.256 . S
C682 O686 1.255 . S
O683 Co666 2.021 . S
O683 C676 1.259 . S
O684 Co668 2.117 . S
O684 C676 1.258 . S
O685 Co668 2.020 . S
O685 C682 1.256 . S
O686 Co666 2.062 . S
O686 C682 1.255 . S
O687 C667 1.259 . S
O687 Co668 2.021 . S
H688 C679 0.930 . S
H689 C678 0.931 . S
O690 Co666 2.117 . S
O690 C667 1.258 . S
O691 Co666 2.020 . S
O691 C693 1.256 . S
O692 Co668 2.062 . S
O692 C693 1.255 . S
C693 O691 1.256 . S
C693 O692 1.255 . S
H694 C673 0.931 1_455 S
H695 C681 0.931 . S
Co696 N701 2.057 . S
Co696 O713 2.021 . S
Co696 O716 2.062 . S
Co696 O720 2.117 . S
Co696 O721 2.020 . S
C697 O717 1.259 . S
C697 O720 1.258 . S
Co698 N707 2.057 . S
Co698 O714 2.117 . S
Co698 O715 2.020 . S
Co698 O717 2.021 . S
Co698 O722 2.062 . S
C699 N701 1.316 . S
C699 N702 1.347 . S
C699 H704 0.931 . S
C700 N701 1.375 . S
C700 C703 1.350 . S
C700 H705 0.930 . S
N701 Co696 2.057 . S
N701 C699 1.316 . S
N701 C700 1.375 . S
N702 C699 1.347 . S
N702 C703 1.373 . S
C703 C700 1.350 . S
C703 N702 1.373 . S
C703 H724 0.931 . S
H704 C699 0.931 . S
H705 C700 0.930 . S
C706 O713 1.259 . S
C706 O714 1.258 . S
N707 Co698 2.057 . S
N707 C708 1.316 . S
N707 C709 1.375 1_455 S
C708 N707 1.316 . S
C708 N710 1.347 . S
C708 H719 0.931 . S
C709 N707 1.375 1_655 S
C709 C711 1.350 . S
C709 H718 0.930 . S
N710 C708 1.347 . S
N710 C711 1.373 1_455 S
C711 C709 1.350 . S
C711 N710 1.373 1_655 S
C711 H725 0.931 . S
C712 O715 1.256 . S
C712 O716 1.255 . S
O713 Co696 2.021 . S
O713 C706 1.259 . S
O714 Co698 2.117 . S
O714 C706 1.258 . S
O715 Co698 2.020 . S
O715 C712 1.256 . S
O716 Co696 2.062 . S
O716 C712 1.255 . S
O717 C697 1.259 . S
O717 Co698 2.021 . S
H718 C709 0.930 . S
H719 C708 0.931 . S
O720 Co696 2.117 . S
O720 C697 1.258 . S
O721 Co696 2.020 . S
O721 C723 1.256 . S
O722 Co698 2.062 . S
O722 C723 1.255 . S
C723 O721 1.256 . S
C723 O722 1.255 . S
H724 C703 0.931 . S
H725 C711 0.931 . S
Co726 N731 2.057 . S
Co726 O743 2.021 . S
Co726 O746 2.062 . S
Co726 O750 2.117 . S
Co726 O751 2.020 . S
C727 O747 1.259 . S
C727 O750 1.234 1_455 S
Co728 N737 2.057 . S
Co728 O744 2.117 . S
Co728 O745 2.020 . S
Co728 O747 1.987 1_655 S
Co728 O752 2.062 . S
C729 N731 1.316 . S
C729 N732 1.347 . S
C729 H734 0.931 . S
C730 N731 1.375 . S
C730 C733 1.350 . S
C730 H735 0.930 . S
N731 Co726 2.057 . S
N731 C729 1.316 . S
N731 C730 1.375 . S
N732 C729 1.347 . S
N732 C733 1.373 . S
C733 C730 1.350 . S
C733 N732 1.373 . S
C733 H754 0.931 . S
H734 C729 0.931 . S
H735 C730 0.930 . S
C736 O743 1.259 . S
C736 O744 1.258 . S
N737 Co728 2.057 . S
N737 C738 1.316 . S
N737 C739 1.375 . S
C738 N737 1.316 . S
C738 N740 1.347 . S
C738 H749 0.931 1_655 S
C739 N737 1.375 . S
C739 C741 1.350 . S
C739 H748 0.930 . S
N740 C738 1.347 . S
N740 C741 1.373 . S
C741 C739 1.350 . S
C741 N740 1.373 . S
C741 H755 0.931 . S
C742 O745 1.256 . S
C742 O746 1.255 . S
O743 Co726 2.021 . S
O743 C736 1.259 . S
O744 Co728 2.117 . S
O744 C736 1.258 . S
O745 Co728 2.020 . S
O745 C742 1.256 . S
O746 Co726 2.062 . S
O746 C742 1.255 . S
O747 C727 1.259 . S
O747 Co728 1.987 1_455 S
H748 C739 0.930 . S
H749 C738 0.931 1_455 S
O750 Co726 2.117 . S
O750 C727 1.234 1_655 S
O751 Co726 2.020 . S
O751 C753 1.256 . S
O752 Co728 2.062 . S
O752 C753 1.255 . S
C753 O751 1.256 . S
C753 O752 1.255 . S
H754 C733 0.931 . S
H755 C741 0.931 . S
Co756 N761 2.057 . S
Co756 O773 2.021 . S
Co756 O776 2.062 . S
Co756 O780 2.117 . S
Co756 O781 2.020 . S
C757 O777 1.259 . S
C757 O780 1.258 . S
Co758 N767 2.057 . S
Co758 O774 2.117 . S
Co758 O775 2.020 . S
Co758 O777 2.021 . S
Co758 O782 2.062 . S
C759 N761 1.316 . S
C759 N762 1.347 . S
C759 H764 0.931 . S
C760 N761 1.375 . S
C760 C763 1.350 . S
C760 H765 0.930 . S
N761 Co756 2.057 . S
N761 C759 1.316 . S
N761 C760 1.375 . S
N762 C759 1.347 . S
N762 C763 1.373 . S
C763 C760 1.350 . S
C763 N762 1.373 . S
C763 H784 0.931 . S
H764 C759 0.931 . S
H765 C760 0.930 . S
C766 O773 1.259 . S
C766 O774 1.258 . S
N767 Co758 2.057 . S
N767 C768 1.316 . S
N767 C769 1.375 . S
C768 N767 1.316 . S
C768 N770 1.347 . S
C768 H779 0.931 . S
C769 N767 1.375 . S
C769 C771 1.350 . S
C769 H778 0.930 . S
N770 C768 1.347 . S
N770 C771 1.373 . S
C771 C769 1.350 . S
C771 N770 1.373 . S
C771 H785 0.931 . S
C772 O775 1.256 . S
C772 O776 1.255 . S
O773 Co756 2.021 . S
O773 C766 1.259 . S
O774 Co758 2.117 . S
O774 C766 1.258 . S
O775 Co758 2.020 . S
O775 C772 1.256 . S
O776 Co756 2.062 . S
O776 C772 1.255 . S
O777 C757 1.259 . S
O777 Co758 2.021 . S
H778 C769 0.930 . S
H779 C768 0.931 . S
O780 Co756 2.117 . S
O780 C757 1.258 . S
O781 Co756 2.020 . S
O781 C783 1.256 . S
O782 Co758 2.062 . S
O782 C783 1.255 . S
C783 O781 1.256 . S
C783 O782 1.255 . S
H784 C763 0.931 . S
H785 C771 0.931 . S
Co786 N791 2.057 . S
Co786 O803 2.021 . S
Co786 O806 2.062 . S
Co786 O810 2.117 . S
Co786 O811 2.020 . S
C787 O807 1.259 . S
C787 O810 1.258 . S
Co788 N797 2.057 . S
Co788 O804 2.117 . S
Co788 O805 2.020 . S
Co788 O807 2.021 . S
Co788 O812 2.062 . S
C789 N791 1.316 . S
C789 N792 1.347 . S
C789 H794 0.931 . S
C790 N791 1.375 . S
C790 C793 1.350 . S
C790 H795 0.930 . S
N791 Co786 2.057 . S
N791 C789 1.316 . S
N791 C790 1.375 . S
N792 C789 1.347 . S
N792 C793 1.373 . S
C793 C790 1.350 . S
C793 N792 1.373 . S
C793 H814 0.931 . S
H794 C789 0.931 . S
H795 C790 0.930 . S
C796 O803 1.259 . S
C796 O804 1.258 . S
N797 Co788 2.057 . S
N797 C798 1.316 . S
N797 C799 1.375 . S
C798 N797 1.316 . S
C798 N800 1.347 . S
C798 H809 0.931 . S
C799 N797 1.375 . S
C799 C801 1.350 . S
C799 H808 0.930 . S
N800 C798 1.347 . S
N800 C801 1.373 . S
C801 C799 1.350 . S
C801 N800 1.373 . S
C801 H815 0.931 . S
C802 O805 1.256 . S
C802 O806 1.255 . S
O803 Co786 2.021 . S
O803 C796 1.259 . S
O804 Co788 2.117 . S
O804 C796 1.258 . S
O805 Co788 2.020 . S
O805 C802 1.256 . S
O806 Co786 2.062 . S
O806 C802 1.255 . S
O807 C787 1.259 . S
O807 Co788 2.021 . S
H808 C799 0.930 . S
H809 C798 0.931 . S
O810 Co786 2.117 . S
O810 C787 1.258 . S
O811 Co786 2.020 . S
O811 C813 1.256 . S
O812 Co788 2.062 . S
O812 C813 1.255 . S
C813 O811 1.256 . S
C813 O812 1.255 . S
H814 C793 0.931 . S
H815 C801 0.931 . S
Co816 N821 2.057 1_556 S
Co816 O833 2.021 . S
Co816 O836 2.062 . S
Co816 O840 2.117 . S
Co816 O841 2.020 . S
C817 O837 1.259 . S
C817 O840 1.258 . S
Co818 N827 2.057 . S
Co818 O834 2.117 . S
Co818 O835 2.020 . S
Co818 O837 2.021 . S
Co818 O842 2.062 . S
C819 N821 1.316 . S
C819 N822 1.347 . S
C819 H824 0.931 . S
C820 N821 1.375 . S
C820 C823 1.350 . S
C820 H825 0.930 1_554 S
N821 Co816 2.057 1_554 S
N821 C819 1.316 . S
N821 C820 1.375 . S
N822 C819 1.347 . S
N822 C823 1.373 . S
C823 C820 1.350 . S
C823 N822 1.373 . S
C823 H844 0.931 . S
H824 C819 0.931 . S
H825 C820 0.930 1_556 S
C826 O833 1.259 . S
C826 O834 1.258 . S
N827 Co818 2.057 . S
N827 C828 1.316 . S
N827 C829 1.375 . S
C828 N827 1.316 . S
C828 N830 1.347 . S
C828 H839 0.931 . S
C829 N827 1.375 . S
C829 C831 1.350 . S
C829 H838 0.930 . S
N830 C828 1.347 . S
N830 C831 1.373 . S
C831 C829 1.350 . S
C831 N830 1.373 . S
C831 H845 0.931 . S
C832 O835 1.256 . S
C832 O836 1.255 . S
O833 Co816 2.021 . S
O833 C826 1.259 . S
O834 Co818 2.117 . S
O834 C826 1.258 . S
O835 Co818 2.020 . S
O835 C832 1.256 . S
O836 Co816 2.062 . S
O836 C832 1.255 . S
O837 C817 1.259 . S
O837 Co818 2.021 . S
H838 C829 0.930 . S
H839 C828 0.931 . S
O840 Co816 2.117 . S
O840 C817 1.258 . S
O841 Co816 2.020 . S
O841 C843 1.256 . S
O842 Co818 2.062 . S
O842 C843 1.255 . S
C843 O841 1.256 . S
C843 O842 1.255 . S
H844 C823 0.931 . S
H845 C831 0.931 . S
Co846 N851 2.057 . S
Co846 O863 2.021 . S
Co846 O866 2.062 . S
Co846 O870 2.117 . S
Co846 O871 2.020 . S
C847 O867 1.259 . S
C847 O870 1.258 . S
Co848 N857 2.057 . S
Co848 O864 2.117 . S
Co848 O865 2.020 . S
Co848 O867 2.021 . S
Co848 O872 2.062 . S
C849 N851 1.316 . S
C849 N852 1.347 . S
C849 H854 0.931 . S
C850 N851 1.375 . S
C850 C853 1.350 . S
C850 H855 0.930 . S
N851 Co846 2.057 . S
N851 C849 1.316 . S
N851 C850 1.375 . S
N852 C849 1.347 . S
N852 C853 1.373 . S
C853 C850 1.350 . S
C853 N852 1.373 . S
C853 H874 0.931 . S
H854 C849 0.931 . S
H855 C850 0.930 . S
C856 O863 1.259 . S
C856 O864 1.258 . S
N857 Co848 2.057 . S
N857 C858 1.316 1_545 S
N857 C859 1.375 1_545 S
C858 N857 1.316 1_565 S
C858 N860 1.347 . S
C858 H869 0.931 1_565 S
C859 N857 1.375 1_565 S
C859 C861 1.350 . S
C859 H868 0.930 . S
N860 C858 1.347 . S
N860 C861 1.373 . S
C861 C859 1.350 . S
C861 N860 1.373 . S
C861 H875 0.931 . S
C862 O865 1.256 . S
C862 O866 1.255 . S
O863 Co846 2.021 . S
O863 C856 1.259 . S
O864 Co848 2.117 . S
O864 C856 1.258 . S
O865 Co848 2.020 . S
O865 C862 1.256 . S
O866 Co846 2.062 . S
O866 C862 1.255 . S
O867 C847 1.259 . S
O867 Co848 2.021 . S
H868 C859 0.930 . S
H869 C858 0.931 1_545 S
O870 Co846 2.117 . S
O870 C847 1.258 . S
O871 Co846 2.020 . S
O871 C873 1.256 . S
O872 Co848 2.062 . S
O872 C873 1.255 . S
C873 O871 1.256 . S
C873 O872 1.255 . S
H874 C853 0.931 . S
H875 C861 0.931 . S
C876 C877 1.391 . S
C876 C878 1.394 . S
C876 H892 0.931 . S
C877 C876 1.391 . S
C877 C881 1.376 . S
C878 C876 1.394 . S
C878 C879 1.369 . S
C878 C882 1.531 . S
C879 C878 1.369 . S
C879 C880 1.410 . S
C879 C887 1.503 . S
C880 C879 1.410 . S
C880 C881 1.392 . S
C880 C883 1.511 1_455 S
C881 C877 1.376 . S
C881 C880 1.392 . S
C881 H893 0.929 . S
C882 C878 1.531 . S
C882 H894 0.960 . S
C882 H895 0.962 . S
C882 H896 0.960 . S
C883 C880 1.511 1_655 S
C883 H897 0.961 . S
C883 H898 0.961 . S
C883 H899 0.961 . S
C884 C885 1.370 1_545 S
C884 C886 1.363 . S
C884 H900 0.931 1_545 S
C885 C884 1.370 1_565 S
C885 C889 1.408 1_565 S
C886 C884 1.363 . S
C886 C887 1.370 . S
C886 C890 1.524 . S
C887 C879 1.503 . S
C887 C886 1.370 . S
C887 C888 1.403 . S
C888 C887 1.403 . S
C888 C889 1.404 . S
C888 C891 1.539 . S
C889 C885 1.408 1_545 S
C889 C888 1.404 . S
C889 H901 0.930 . S
C890 C886 1.524 . S
C890 H902 0.956 . S
C890 H903 0.961 . S
C890 H904 0.961 . S
C891 C888 1.539 . S
C891 H905 0.958 . S
C891 H906 0.961 . S
C891 H907 0.960 . S
H892 C876 0.931 . S
H893 C881 0.929 . S
H894 C882 0.960 . S
H895 C882 0.962 . S
H896 C882 0.960 . S
H897 C883 0.961 . S
H898 C883 0.961 . S
H899 C883 0.961 . S
H900 C884 0.931 1_565 S
H901 C889 0.930 . S
H902 C890 0.956 . S
H903 C890 0.961 . S
H904 C890 0.961 . S
H905 C891 0.958 . S
H906 C891 0.961 . S
H907 C891 0.960 . S
C908 C909 1.391 . S
C908 C910 1.394 . S
C908 H924 0.931 . S
C909 C908 1.391 . S
C909 C913 1.376 1_455 S
C910 C908 1.394 . S
C910 C911 1.369 . S
C910 C914 1.531 . S
C911 C910 1.369 . S
C911 C912 1.385 1_455 S
C911 C919 1.503 . S
C912 C911 1.385 1_655 S
C912 C913 1.391 . S
C912 C915 1.539 . S
C913 C909 1.376 1_655 S
C913 C912 1.391 . S
C913 H925 0.929 . S
C914 C910 1.531 . S
C914 H926 0.960 . S
C914 H927 0.962 . S
C914 H928 0.960 . S
C915 C912 1.539 . S
C915 H929 0.961 . S
C915 H930 0.961 . S
C915 H931 0.961 . S
C916 C917 1.370 1_655 S
C916 C918 1.363 . S
C916 H932 0.931 . S
C917 C916 1.370 1_455 S
C917 C921 1.408 . S
C918 C916 1.363 . S
C918 C919 1.370 1_655 S
C918 C922 1.524 . S
C919 C911 1.503 . S
C919 C918 1.370 1_455 S
C919 C920 1.403 . S
C920 C919 1.403 . S
C920 C921 1.404 . S
C920 C923 1.539 . S
C921 C917 1.408 . S
C921 C920 1.404 . S
C921 H933 0.930 . S
C922 C918 1.524 . S
C922 H934 0.956 . S
C922 H935 0.961 . S
C922 H936 0.961 . S
C923 C920 1.539 . S
C923 H937 0.958 . S
C923 H938 0.961 . S
C923 H939 0.960 . S
H924 C908 0.931 . S
H925 C913 0.929 . S
H926 C914 0.960 . S
H927 C914 0.962 . S
H928 C914 0.960 . S
H929 C915 0.961 . S
H930 C915 0.961 . S
H931 C915 0.961 . S
H932 C916 0.931 . S
H933 C921 0.930 . S
H934 C922 0.956 . S
H935 C922 0.961 . S
H936 C922 0.961 . S
H937 C923 0.958 . S
H938 C923 0.961 . S
H939 C923 0.960 . S
C940 C941 1.391 . S
C940 C942 1.394 . S
C940 H956 0.931 . S
C941 C940 1.391 . S
C941 C945 1.376 . S
C942 C940 1.394 . S
C942 C943 1.369 . S
C942 C946 1.531 . S
C943 C942 1.369 . S
C943 C944 1.410 . S
C943 C951 1.503 . S
C944 C943 1.410 . S
C944 C945 1.392 . S
C944 C947 1.511 1_455 S
C945 C941 1.376 . S
C945 C944 1.392 . S
C945 H957 0.929 1_455 S
C946 C942 1.531 . S
C946 H958 0.960 . S
C946 H959 0.962 . S
C946 H960 0.960 . S
C947 C944 1.511 1_655 S
C947 H961 0.961 . S
C947 H962 0.961 . S
C947 H963 0.961 . S
C948 C949 1.370 . S
C948 C950 1.363 . S
C948 H964 0.931 . S
C949 C948 1.370 . S
C949 C953 1.408 . S
C950 C948 1.363 . S
C950 C951 1.370 . S
C950 C954 1.524 . S
C951 C943 1.503 . S
C951 C950 1.370 . S
C951 C952 1.403 . S
C952 C951 1.403 . S
C952 C953 1.404 . S
C952 C955 1.539 . S
C953 C949 1.408 . S
C953 C952 1.404 . S
C953 H965 0.930 . S
C954 C950 1.524 . S
C954 H966 0.956 . S
C954 H967 0.961 . S
C954 H968 0.961 . S
C955 C952 1.539 . S
C955 H969 0.958 . S
C955 H970 0.961 1_455 S
C955 H971 0.960 1_455 S
H956 C940 0.931 . S
H957 C945 0.929 1_655 S
H958 C946 0.960 . S
H959 C946 0.962 . S
H960 C946 0.960 . S
H961 C947 0.961 . S
H962 C947 0.961 . S
H963 C947 0.961 . S
H964 C948 0.931 . S
H965 C953 0.930 . S
H966 C954 0.956 . S
H967 C954 0.961 . S
H968 C954 0.961 . S
H969 C955 0.958 . S
H970 C955 0.961 1_655 S
H971 C955 0.960 1_655 S
C972 C973 1.391 . S
C972 C974 1.394 . S
C972 H988 0.931 . S
C973 C972 1.391 . S
C973 C977 1.376 1_655 S
C974 C972 1.394 . S
C974 C975 1.369 . S
C974 C978 1.531 . S
C975 C974 1.369 . S
C975 C976 1.410 1_655 S
C975 C983 1.503 . S
C976 C975 1.410 1_455 S
C976 C977 1.392 . S
C976 C979 1.511 . S
C977 C973 1.376 1_455 S
C977 C976 1.392 . S
C977 H989 0.929 . S
C978 C974 1.531 . S
C978 H990 0.960 . S
C978 H991 0.962 . S
C978 H992 0.960 . S
C979 C976 1.511 . S
C979 H993 0.961 . S
C979 H994 0.961 . S
C979 H995 0.961 . S
C980 C981 1.370 . S
C980 C982 1.363 . S
C980 H996 0.931 . S
C981 C980 1.370 . S
C981 C985 1.408 . S
C982 C980 1.363 . S
C982 C983 1.370 . S
C982 C986 1.524 . S
C983 C975 1.503 . S
C983 C982 1.370 . S
C983 C984 1.403 . S
C984 C983 1.403 . S
C984 C985 1.404 . S
C984 C987 1.539 . S
C985 C981 1.408 . S
C985 C984 1.404 . S
C985 H997 0.930 . S
C986 C982 1.524 . S
C986 H998 0.956 . S
C986 H999 0.961 1_655 S
C986 H1000 0.961 . S
C987 C984 1.539 . S
C987 H1001 0.958 . S
C987 H1002 0.961 . S
C987 H1003 0.960 . S
H988 C972 0.931 . S
H989 C977 0.929 . S
H990 C978 0.960 . S
H991 C978 0.962 . S
H992 C978 0.960 . S
H993 C979 0.961 . S
H994 C979 0.961 . S
H995 C979 0.961 . S
H996 C980 0.931 . S
H997 C985 0.930 . S
H998 C986 0.956 . S
H999 C986 0.961 1_455 S
H1000 C986 0.961 . S
H1001 C987 0.958 . S
H1002 C987 0.961 . S
H1003 C987 0.960 . S
C1004 C1005 1.391 . S
C1004 C1006 1.394 . S
C1004 H1020 0.931 . S
C1005 C1004 1.391 . S
C1005 C1009 1.376 . S
C1006 C1004 1.394 . S
C1006 C1007 1.369 . S
C1006 C1010 1.531 . S
C1007 C1006 1.369 . S
C1007 C1008 1.410 . S
C1007 C1015 1.503 . S
C1008 C1007 1.410 . S
C1008 C1009 1.392 . S
C1008 C1011 1.511 . S
C1009 C1005 1.376 . S
C1009 C1008 1.392 . S
C1009 H1021 0.929 . S
C1010 C1006 1.531 . S
C1010 H1022 0.960 . S
C1010 H1023 0.962 . S
C1010 H1024 0.960 . S
C1011 C1008 1.511 . S
C1011 H1025 0.961 . S
C1011 H1026 0.961 . S
C1011 H1027 0.961 . S
C1012 C1013 1.370 . S
C1012 C1014 1.363 . S
C1012 H1028 0.931 . S
C1013 C1012 1.370 . S
C1013 C1017 1.408 . S
C1014 C1012 1.363 . S
C1014 C1015 1.370 . S
C1014 C1018 1.524 . S
C1015 C1007 1.503 . S
C1015 C1014 1.370 . S
C1015 C1016 1.403 . S
C1016 C1015 1.403 . S
C1016 C1017 1.404 . S
C1016 C1019 1.539 1_545 S
C1017 C1013 1.408 . S
C1017 C1016 1.404 . S
C1017 H1029 0.930 . S
C1018 C1014 1.524 . S
C1018 H1030 0.956 . S
C1018 H1031 0.961 . S
C1018 H1032 0.961 . S
C1019 C1016 1.539 1_565 S
C1019 H1033 0.958 . S
C1019 H1034 0.961 . S
C1019 H1035 0.960 . S
H1020 C1004 0.931 . S
H1021 C1009 0.929 . S
H1022 C1010 0.960 . S
H1023 C1010 0.962 . S
H1024 C1010 0.960 . S
H1025 C1011 0.961 . S
H1026 C1011 0.961 . S
H1027 C1011 0.961 . S
H1028 C1012 0.931 . S
H1029 C1017 0.930 . S
H1030 C1018 0.956 . S
H1031 C1018 0.961 . S
H1032 C1018 0.961 . S
H1033 C1019 0.958 . S
H1034 C1019 0.961 . S
H1035 C1019 0.960 . S
C1036 C1037 1.391 . S
C1036 C1038 1.394 . S
C1036 H1052 0.931 . S
C1037 C1036 1.391 . S
C1037 C1041 1.376 . S
C1038 C1036 1.394 . S
C1038 C1039 1.369 . S
C1038 C1042 1.531 . S
C1039 C1038 1.369 . S
C1039 C1040 1.410 . S
C1039 C1047 1.503 . S
C1040 C1039 1.410 . S
C1040 C1041 1.392 . S
C1040 C1043 1.511 . S
C1041 C1037 1.376 . S
C1041 C1040 1.392 . S
C1041 H1053 0.929 . S
C1042 C1038 1.531 . S
C1042 H1054 0.960 . S
C1042 H1055 0.962 . S
C1042 H1056 0.960 . S
C1043 C1040 1.511 . S
C1043 H1057 0.961 . S
C1043 H1058 0.961 . S
C1043 H1059 0.961 . S
C1044 C1045 1.370 . S
C1044 C1046 1.363 . S
C1044 H1060 0.931 . S
C1045 C1044 1.370 . S
C1045 C1049 1.408 . S
C1046 C1044 1.363 . S
C1046 C1047 1.370 . S
C1046 C1050 1.524 . S
C1047 C1039 1.503 . S
C1047 C1046 1.370 . S
C1047 C1048 1.403 . S
C1048 C1047 1.403 . S
C1048 C1049 1.404 . S
C1048 C1051 1.539 . S
C1049 C1045 1.408 . S
C1049 C1048 1.404 . S
C1049 H1061 0.930 . S
C1050 C1046 1.524 . S
C1050 H1062 0.956 . S
C1050 H1063 0.961 . S
C1050 H1064 0.961 . S
C1051 C1048 1.539 . S
C1051 H1065 0.958 . S
C1051 H1066 0.961 . S
C1051 H1067 0.960 . S
H1052 C1036 0.931 . S
H1053 C1041 0.929 . S
H1054 C1042 0.960 . S
H1055 C1042 0.962 . S
H1056 C1042 0.960 . S
H1057 C1043 0.961 . S
H1058 C1043 0.961 . S
H1059 C1043 0.961 . S
H1060 C1044 0.931 . S
H1061 C1049 0.930 . S
H1062 C1050 0.956 . S
H1063 C1050 0.961 . S
H1064 C1050 0.961 . S
H1065 C1051 0.958 . S
H1066 C1051 0.961 . S
H1067 C1051 0.960 . S
C1068 C1069 1.391 . S
C1068 C1070 1.394 . S
C1068 H1084 0.931 . S
C1069 C1068 1.391 . S
C1069 C1073 1.376 1_565 S
C1070 C1068 1.394 . S
C1070 C1071 1.369 . S
C1070 C1074 1.531 . S
C1071 C1070 1.369 . S
C1071 C1072 1.410 . S
C1071 C1079 1.503 . S
C1072 C1071 1.410 . S
C1072 C1073 1.392 1_565 S
C1072 C1075 1.511 1_565 S
C1073 C1069 1.376 1_545 S
C1073 C1072 1.392 1_545 S
C1073 H1085 0.929 . S
C1074 C1070 1.531 . S
C1074 H1086 0.960 . S
C1074 H1087 0.962 . S
C1074 H1088 0.960 . S
C1075 C1072 1.511 1_545 S
C1075 H1089 0.961 . S
C1075 H1090 0.961 . S
C1075 H1091 0.961 1_545 S
C1076 C1077 1.370 1_545 S
C1076 C1078 1.363 . S
C1076 H1092 0.931 . S
C1077 C1076 1.370 1_565 S
C1077 C1081 1.408 . S
C1078 C1076 1.363 . S
C1078 C1079 1.370 1_545 S
C1078 C1082 1.524 . S
C1079 C1071 1.503 . S
C1079 C1078 1.370 1_565 S
C1079 C1080 1.403 . S
C1080 C1079 1.403 . S
C1080 C1081 1.404 . S
C1080 C1083 1.539 . S
C1081 C1077 1.408 . S
C1081 C1080 1.404 . S
C1081 H1093 0.930 . S
C1082 C1078 1.524 . S
C1082 H1094 0.956 . S
C1082 H1095 0.961 . S
C1082 H1096 0.961 . S
C1083 C1080 1.539 . S
C1083 H1097 0.958 . S
C1083 H1098 0.961 . S
C1083 H1099 0.960 . S
H1084 C1068 0.931 . S
H1085 C1073 0.929 . S
H1086 C1074 0.960 . S
H1087 C1074 0.962 . S
H1088 C1074 0.960 . S
H1089 C1075 0.961 . S
H1090 C1075 0.961 . S
H1091 C1075 0.961 1_565 S
H1092 C1076 0.931 . S
H1093 C1081 0.930 . S
H1094 C1082 0.956 . S
H1095 C1082 0.961 . S
H1096 C1082 0.961 . S
H1097 C1083 0.958 . S
H1098 C1083 0.961 . S
H1099 C1083 0.960 . S
C1100 C1101 1.391 . S
C1100 C1102 1.394 . S
C1100 H1116 0.931 . S
C1101 C1100 1.391 . S
C1101 C1105 1.376 . S
C1102 C1100 1.394 . S
C1102 C1103 1.369 . S
C1102 C1106 1.531 . S
C1103 C1102 1.369 . S
C1103 C1104 1.410 . S
C1103 C1111 1.503 . S
C1104 C1103 1.410 . S
C1104 C1105 1.392 . S
C1104 C1107 1.511 . S
C1105 C1101 1.376 . S
C1105 C1104 1.392 . S
C1105 H1117 0.929 . S
C1106 C1102 1.531 . S
C1106 H1118 0.960 . S
C1106 H1119 0.962 . S
C1106 H1120 0.960 . S
C1107 C1104 1.511 . S
C1107 H1121 0.961 . S
C1107 H1122 0.961 . S
C1107 H1123 0.961 . S
C1108 C1109 1.370 . S
C1108 C1110 1.363 . S
C1108 H1124 0.931 . S
C1109 C1108 1.370 . S
C1109 C1113 1.408 . S
C1110 C1108 1.363 . S
C1110 C1111 1.370 . S
C1110 C1114 1.524 . S
C1111 C1103 1.503 . S
C1111 C1110 1.370 . S
C1111 C1112 1.403 . S
C1112 C1111 1.403 . S
C1112 C1113 1.404 . S
C1112 C1115 1.539 . S
C1113 C1109 1.408 . S
C1113 C1112 1.404 . S
C1113 H1125 0.930 . S
C1114 C1110 1.524 . S
C1114 H1126 0.956 . S
C1114 H1127 0.961 . S
C1114 H1128 0.961 . S
C1115 C1112 1.539 . S
C1115 H1129 0.958 . S
C1115 H1130 0.961 . S
C1115 H1131 0.960 . S
H1116 C1100 0.931 . S
H1117 C1105 0.929 . S
H1118 C1106 0.960 . S
H1119 C1106 0.962 . S
H1120 C1106 0.960 . S
H1121 C1107 0.961 . S
H1122 C1107 0.961 . S
H1123 C1107 0.961 . S
H1124 C1108 0.931 . S
H1125 C1113 0.930 . S
H1126 C1114 0.956 . S
H1127 C1114 0.961 . S
H1128 C1114 0.961 . S
H1129 C1115 0.958 . S
H1130 C1115 0.961 . S
H1131 C1115 0.960 . S
C1132 C1133 1.391 . S
C1132 C1134 1.394 . S
C1132 H1148 0.931 1_554 S
C1133 C1132 1.391 . S
C1133 C1137 1.376 . S
C1134 C1132 1.394 . S
C1134 C1135 1.369 . S
C1134 C1138 1.531 1_554 S
C1135 C1134 1.369 . S
C1135 C1136 1.410 . S
C1135 C1143 1.503 . S
C1136 C1135 1.410 . S
C1136 C1137 1.392 . S
C1136 C1139 1.511 . S
C1137 C1133 1.376 . S
C1137 C1136 1.392 . S
C1137 H1149 0.929 . S
C1138 C1134 1.531 1_556 S
C1138 H1150 0.960 . S
C1138 H1151 0.962 . S
C1138 H1152 0.960 . S
C1139 C1136 1.511 . S
C1139 H1153 0.961 . S
C1139 H1154 0.961 . S
C1139 H1155 0.961 . S
C1140 C1141 1.370 . S
C1140 C1142 1.363 . S
C1140 H1156 0.931 . S
C1141 C1140 1.370 . S
C1141 C1145 1.408 . S
C1142 C1140 1.363 . S
C1142 C1143 1.370 . S
C1142 C1146 1.524 . S
C1143 C1135 1.503 . S
C1143 C1142 1.370 . S
C1143 C1144 1.403 . S
C1144 C1143 1.403 . S
C1144 C1145 1.404 . S
C1144 C1147 1.539 . S
C1145 C1141 1.408 . S
C1145 C1144 1.404 . S
C1145 H1157 0.930 . S
C1146 C1142 1.524 . S
C1146 H1158 0.956 . S
C1146 H1159 0.961 . S
C1146 H1160 0.961 . S
C1147 C1144 1.539 . S
C1147 H1161 0.958 1_554 S
C1147 H1162 0.961 . S
C1147 H1163 0.960 . S
H1148 C1132 0.931 1_556 S
H1149 C1137 0.929 . S
H1150 C1138 0.960 . S
H1151 C1138 0.962 . S
H1152 C1138 0.960 . S
H1153 C1139 0.961 . S
H1154 C1139 0.961 . S
H1155 C1139 0.961 . S
H1156 C1140 0.931 . S
H1157 C1145 0.930 . S
H1158 C1146 0.956 . S
H1159 C1146 0.961 . S
H1160 C1146 0.961 . S
H1161 C1147 0.958 1_556 S
H1162 C1147 0.961 . S
H1163 C1147 0.960 . S
C1164 C1165 1.391 . S
C1164 C1166 1.394 . S
C1164 H1180 0.931 . S
C1165 C1164 1.391 . S
C1165 C1169 1.376 . S
C1166 C1164 1.394 . S
C1166 C1167 1.369 . S
C1166 C1170 1.531 . S
C1167 C1166 1.369 . S
C1167 C1168 1.410 . S
C1167 C1175 1.503 . S
C1168 C1167 1.410 . S
C1168 C1169 1.392 . S
C1168 C1171 1.511 . S
C1169 C1165 1.376 . S
C1169 C1168 1.392 . S
C1169 H1181 0.929 . S
C1170 C1166 1.531 . S
C1170 H1182 0.960 . S
C1170 H1183 0.962 . S
C1170 H1184 0.960 . S
C1171 C1168 1.511 . S
C1171 H1185 0.961 . S
C1171 H1186 0.961 . S
C1171 H1187 0.961 . S
C1172 C1173 1.370 . S
C1172 C1174 1.363 . S
C1172 H1188 0.931 . S
C1173 C1172 1.370 . S
C1173 C1177 1.408 . S
C1174 C1172 1.363 . S
C1174 C1175 1.370 . S
C1174 C1178 1.524 . S
C1175 C1167 1.503 . S
C1175 C1174 1.370 . S
C1175 C1176 1.403 . S
C1176 C1175 1.403 . S
C1176 C1177 1.404 . S
C1176 C1179 1.539 . S
C1177 C1173 1.408 . S
C1177 C1176 1.404 . S
C1177 H1189 0.930 . S
C1178 C1174 1.524 . S
C1178 H1190 0.956 . S
C1178 H1191 0.961 . S
C1178 H1192 0.961 . S
C1179 C1176 1.539 . S
C1179 H1193 0.958 . S
C1179 H1194 0.961 . S
C1179 H1195 0.960 . S
H1180 C1164 0.931 . S
H1181 C1169 0.929 . S
H1182 C1170 0.960 . S
H1183 C1170 0.962 . S
H1184 C1170 0.960 . S
H1185 C1171 0.961 . S
H1186 C1171 0.961 . S
H1187 C1171 0.961 . S
H1188 C1172 0.931 . S
H1189 C1177 0.930 . S
H1190 C1178 0.956 . S
H1191 C1178 0.961 . S
H1192 C1178 0.961 . S
H1193 C1179 0.958 . S
H1194 C1179 0.961 . S
H1195 C1179 0.960 . S
C1196 C1197 1.391 . S
C1196 C1198 1.394 . S
C1196 H1212 0.931 . S
C1197 C1196 1.391 . S
C1197 C1201 1.376 . S
C1198 C1196 1.394 . S
C1198 C1199 1.369 . S
C1198 C1202 1.531 . S
C1199 C1198 1.369 . S
C1199 C1200 1.410 . S
C1199 C1207 1.503 . S
C1200 C1199 1.410 . S
C1200 C1201 1.392 . S
C1200 C1203 1.511 . S
C1201 C1197 1.376 . S
C1201 C1200 1.392 . S
C1201 H1213 0.929 . S
C1202 C1198 1.531 . S
C1202 H1214 0.960 . S
C1202 H1215 0.962 . S
C1202 H1216 0.960 . S
C1203 C1200 1.511 . S
C1203 H1217 0.961 . S
C1203 H1218 0.961 . S
C1203 H1219 0.961 . S
C1204 C1205 1.370 . S
C1204 C1206 1.363 . S
C1204 H1220 0.931 . S
C1205 C1204 1.370 . S
C1205 C1209 1.408 . S
C1206 C1204 1.363 . S
C1206 C1207 1.370 . S
C1206 C1210 1.524 . S
C1207 C1199 1.503 . S
C1207 C1206 1.370 . S
C1207 C1208 1.403 . S
C1208 C1207 1.403 . S
C1208 C1209 1.404 . S
C1208 C1211 1.539 . S
C1209 C1205 1.408 . S
C1209 C1208 1.404 . S
C1209 H1221 0.930 . S
C1210 C1206 1.524 . S
C1210 H1222 0.956 . S
C1210 H1223 0.961 . S
C1210 H1224 0.961 . S
C1211 C1208 1.539 . S
C1211 H1225 0.958 . S
C1211 H1226 0.961 . S
C1211 H1227 0.960 . S
H1212 C1196 0.931 . S
H1213 C1201 0.929 . S
H1214 C1202 0.960 . S
H1215 C1202 0.962 . S
H1216 C1202 0.960 . S
H1217 C1203 0.961 . S
H1218 C1203 0.961 . S
H1219 C1203 0.961 . S
H1220 C1204 0.931 . S
H1221 C1209 0.930 . S
H1222 C1210 0.956 . S
H1223 C1210 0.961 . S
H1224 C1210 0.961 . S
H1225 C1211 0.958 . S
H1226 C1211 0.961 . S
H1227 C1211 0.960 . S
C1228 C1229 1.391 . S
C1228 C1230 1.394 . S
C1228 H1244 0.931 . S
C1229 C1228 1.391 . S
C1229 C1233 1.376 . S
C1230 C1228 1.394 . S
C1230 C1231 1.369 . S
C1230 C1234 1.531 . S
C1231 C1230 1.369 . S
C1231 C1232 1.410 . S
C1231 C1239 1.503 . S
C1232 C1231 1.410 . S
C1232 C1233 1.392 . S
C1232 C1235 1.511 . S
C1233 C1229 1.376 . S
C1233 C1232 1.392 . S
C1233 H1245 0.929 . S
C1234 C1230 1.531 . S
C1234 H1246 0.960 . S
C1234 H1247 0.962 . S
C1234 H1248 0.960 . S
C1235 C1232 1.511 . S
C1235 H1249 0.961 . S
C1235 H1250 0.961 . S
C1235 H1251 0.961 . S
C1236 C1237 1.370 . S
C1236 C1238 1.363 . S
C1236 H1252 0.931 . S
C1237 C1236 1.370 . S
C1237 C1241 1.408 . S
C1238 C1236 1.363 . S
C1238 C1239 1.370 . S
C1238 C1242 1.524 . S
C1239 C1231 1.503 . S
C1239 C1238 1.370 . S
C1239 C1240 1.403 . S
C1240 C1239 1.403 . S
C1240 C1241 1.404 . S
C1240 C1243 1.539 . S
C1241 C1237 1.408 . S
C1241 C1240 1.404 . S
C1241 H1253 0.930 . S
C1242 C1238 1.524 . S
C1242 H1254 0.956 . S
C1242 H1255 0.961 . S
C1242 H1256 0.961 . S
C1243 C1240 1.539 . S
C1243 H1257 0.958 . S
C1243 H1258 0.961 . S
C1243 H1259 0.960 . S
H1244 C1228 0.931 . S
H1245 C1233 0.929 . S
H1246 C1234 0.960 . S
H1247 C1234 0.962 . S
H1248 C1234 0.960 . S
H1249 C1235 0.961 . S
H1250 C1235 0.961 . S
H1251 C1235 0.961 . S
H1252 C1236 0.931 . S
H1253 C1241 0.930 . S
H1254 C1242 0.956 . S
H1255 C1242 0.961 . S
H1256 C1242 0.961 . S
H1257 C1243 0.958 . S
H1258 C1243 0.961 . S
H1259 C1243 0.960 . S
C1260 C1261 1.391 . S
C1260 C1262 1.394 . S
C1260 H1276 0.931 . S
C1261 C1260 1.391 . S
C1261 C1265 1.376 . S
C1262 C1260 1.394 . S
C1262 C1263 1.369 . S
C1262 C1266 1.531 . S
C1263 C1262 1.369 . S
C1263 C1264 1.410 . S
C1263 C1271 1.503 . S
C1264 C1263 1.410 . S
C1264 C1265 1.392 . S
C1264 C1267 1.511 . S
C1265 C1261 1.376 . S
C1265 C1264 1.392 . S
C1265 H1277 0.929 . S
C1266 C1262 1.531 . S
C1266 H1278 0.960 . S
C1266 H1279 0.962 . S
C1266 H1280 0.960 . S
C1267 C1264 1.511 . S
C1267 H1281 0.961 . S
C1267 H1282 0.961 . S
C1267 H1283 0.961 . S
C1268 C1269 1.370 . S
C1268 C1270 1.363 . S
C1268 H1284 0.931 . S
C1269 C1268 1.370 . S
C1269 C1273 1.408 . S
C1270 C1268 1.363 . S
C1270 C1271 1.370 . S
C1270 C1274 1.524 . S
C1271 C1263 1.503 . S
C1271 C1270 1.370 . S
C1271 C1272 1.403 . S
C1272 C1271 1.403 . S
C1272 C1273 1.404 . S
C1272 C1275 1.539 . S
C1273 C1269 1.408 . S
C1273 C1272 1.404 . S
C1273 H1285 0.930 . S
C1274 C1270 1.524 . S
C1274 H1286 0.956 . S
C1274 H1287 0.961 . S
C1274 H1288 0.961 . S
C1275 C1272 1.539 . S
C1275 H1289 0.958 . S
C1275 H1290 0.961 . S
C1275 H1291 0.960 . S
H1276 C1260 0.931 . S
H1277 C1265 0.929 . S
H1278 C1266 0.960 . S
H1279 C1266 0.962 . S
H1280 C1266 0.960 . S
H1281 C1267 0.961 . S
H1282 C1267 0.961 . S
H1283 C1267 0.961 . S
H1284 C1268 0.931 . S
H1285 C1273 0.930 . S
H1286 C1274 0.956 . S
H1287 C1274 0.961 . S
H1288 C1274 0.961 . S
H1289 C1275 0.958 . S
H1290 C1275 0.961 . S
H1291 C1275 0.960 . S
C1292 C1293 1.391 . S
C1292 C1294 1.394 . S
C1292 H1308 0.931 . S
C1293 C1292 1.391 . S
C1293 C1297 1.376 . S
C1294 C1292 1.394 . S
C1294 C1295 1.369 . S
C1294 C1298 1.531 . S
C1295 C1294 1.369 . S
C1295 C1296 1.410 . S
C1295 C1303 1.503 . S
C1296 C1295 1.410 . S
C1296 C1297 1.392 . S
C1296 C1299 1.511 . S
C1297 C1293 1.376 . S
C1297 C1296 1.392 . S
C1297 H1309 0.929 . S
C1298 C1294 1.531 . S
C1298 H1310 0.960 . S
C1298 H1311 0.962 . S
C1298 H1312 0.960 . S
C1299 C1296 1.511 . S
C1299 H1313 0.961 . S
C1299 H1314 0.961 . S
C1299 H1315 0.961 . S
C1300 C1301 1.370 . S
C1300 C1302 1.363 . S
C1300 H1316 0.931 . S
C1301 C1300 1.370 . S
C1301 C1305 1.408 . S
C1302 C1300 1.363 . S
C1302 C1303 1.370 . S
C1302 C1306 1.524 . S
C1303 C1295 1.503 . S
C1303 C1302 1.370 . S
C1303 C1304 1.403 . S
C1304 C1303 1.403 . S
C1304 C1305 1.404 . S
C1304 C1307 1.539 . S
C1305 C1301 1.408 . S
C1305 C1304 1.404 . S
C1305 H1317 0.930 . S
C1306 C1302 1.524 . S
C1306 H1318 0.956 . S
C1306 H1319 0.961 . S
C1306 H1320 0.961 . S
C1307 C1304 1.539 . S
C1307 H1321 0.958 . S
C1307 H1322 0.961 . S
C1307 H1323 0.960 . S
H1308 C1292 0.931 . S
H1309 C1297 0.929 . S
H1310 C1298 0.960 . S
H1311 C1298 0.962 . S
H1312 C1298 0.960 . S
H1313 C1299 0.961 . S
H1314 C1299 0.961 . S
H1315 C1299 0.961 . S
H1316 C1300 0.931 . S
H1317 C1305 0.930 . S
H1318 C1306 0.956 . S
H1319 C1306 0.961 . S
H1320 C1306 0.961 . S
H1321 C1307 0.958 . S
H1322 C1307 0.961 . S
H1323 C1307 0.960 . S
C1324 C1325 1.391 . S
C1324 C1326 1.394 . S
C1324 H1340 0.931 . S
C1325 C1324 1.391 . S
C1325 C1329 1.376 . S
C1326 C1324 1.394 . S
C1326 C1327 1.369 . S
C1326 C1330 1.531 . S
C1327 C1326 1.369 . S
C1327 C1328 1.410 . S
C1327 C1335 1.503 . S
C1328 C1327 1.410 . S
C1328 C1329 1.392 . S
C1328 C1331 1.511 . S
C1329 C1325 1.376 . S
C1329 C1328 1.392 . S
C1329 H1341 0.929 . S
C1330 C1326 1.531 . S
C1330 H1342 0.960 . S
C1330 H1343 0.962 . S
C1330 H1344 0.960 . S
C1331 C1328 1.511 . S
C1331 H1345 0.961 . S
C1331 H1346 0.961 . S
C1331 H1347 0.961 . S
C1332 C1333 1.370 . S
C1332 C1334 1.363 . S
C1332 H1348 0.931 . S
C1333 C1332 1.370 . S
C1333 C1337 1.408 . S
C1334 C1332 1.363 . S
C1334 C1335 1.370 . S
C1334 C1338 1.524 . S
C1335 C1327 1.503 . S
C1335 C1334 1.370 . S
C1335 C1336 1.403 . S
C1336 C1335 1.403 . S
C1336 C1337 1.404 . S
C1336 C1339 1.539 . S
C1337 C1333 1.408 . S
C1337 C1336 1.404 . S
C1337 H1349 0.930 . S
C1338 C1334 1.524 . S
C1338 H1350 0.956 . S
C1338 H1351 0.961 . S
C1338 H1352 0.961 . S
C1339 C1336 1.539 . S
C1339 H1353 0.958 . S
C1339 H1354 0.961 . S
C1339 H1355 0.960 . S
H1340 C1324 0.931 . S
H1341 C1329 0.929 . S
H1342 C1330 0.960 . S
H1343 C1330 0.962 . S
H1344 C1330 0.960 . S
H1345 C1331 0.961 . S
H1346 C1331 0.961 . S
H1347 C1331 0.961 . S
H1348 C1332 0.931 . S
H1349 C1337 0.930 . S
H1350 C1338 0.956 . S
H1351 C1338 0.961 . S
H1352 C1338 0.961 . S
H1353 C1339 0.958 . S
H1354 C1339 0.961 . S
H1355 C1339 0.960 . S
C1356 C1357 1.391 . S
C1356 C1358 1.394 . S
C1356 H1372 0.931 . S
C1357 C1356 1.391 . S
C1357 C1361 1.376 . S
C1358 C1356 1.394 . S
C1358 C1359 1.369 . S
C1358 C1362 1.531 . S
C1359 C1358 1.369 . S
C1359 C1360 1.410 . S
C1359 C1367 1.503 . S
C1360 C1359 1.410 . S
C1360 C1361 1.392 . S
C1360 C1363 1.511 . S
C1361 C1357 1.376 . S
C1361 C1360 1.392 . S
C1361 H1373 0.929 . S
C1362 C1358 1.531 . S
C1362 H1374 0.960 . S
C1362 H1375 0.962 . S
C1362 H1376 0.960 . S
C1363 C1360 1.511 . S
C1363 H1377 0.961 . S
C1363 H1378 0.961 . S
C1363 H1379 0.961 . S
C1364 C1365 1.358 1_545 S
C1364 C1366 1.363 . S
C1364 H1380 0.931 . S
C1365 C1364 1.358 1_565 S
C1365 C1369 1.401 1_565 S
C1366 C1364 1.363 . S
C1366 C1367 1.370 . S
C1366 C1370 1.524 . S
C1367 C1359 1.503 . S
C1367 C1366 1.370 . S
C1367 C1368 1.403 . S
C1368 C1367 1.403 . S
C1368 C1369 1.404 . S
C1368 C1371 1.539 . S
C1369 C1365 1.401 1_545 S
C1369 C1368 1.404 . S
C1369 H1381 0.930 1_545 S
C1370 C1366 1.524 . S
C1370 H1382 0.956 . S
C1370 H1383 0.961 . S
C1370 H1384 0.961 . S
C1371 C1368 1.539 . S
C1371 H1385 0.958 . S
C1371 H1386 0.961 . S
C1371 H1387 0.960 . S
H1372 C1356 0.931 . S
H1373 C1361 0.929 . S
H1374 C1362 0.960 . S
H1375 C1362 0.962 . S
H1376 C1362 0.960 . S
H1377 C1363 0.961 . S
H1378 C1363 0.961 . S
H1379 C1363 0.961 . S
H1380 C1364 0.931 . S
H1381 C1369 0.930 1_565 S
H1382 C1370 0.956 . S
H1383 C1370 0.961 . S
H1384 C1370 0.961 . S
H1385 C1371 0.958 . S
H1386 C1371 0.961 . S
H1387 C1371 0.960 . S
C1388 C1389 1.391 . S
C1388 C1390 1.394 . S
C1388 H1404 0.931 . S
C1389 C1388 1.391 . S
C1389 C1393 1.376 . S
C1390 C1388 1.394 . S
C1390 C1391 1.369 . S
C1390 C1394 1.531 . S
C1391 C1390 1.369 . S
C1391 C1392 1.410 . S
C1391 C1399 1.503 . S
C1392 C1391 1.410 . S
C1392 C1393 1.392 . S
C1392 C1395 1.511 . S
C1393 C1389 1.376 . S
C1393 C1392 1.392 . S
C1393 H1405 0.929 . S
C1394 C1390 1.531 . S
C1394 H1406 0.960 . S
C1394 H1407 0.962 . S
C1394 H1408 0.960 . S
C1395 C1392 1.511 . S
C1395 H1409 0.961 . S
C1395 H1410 0.961 . S
C1395 H1411 0.961 . S
C1396 C1397 1.370 . S
C1396 C1398 1.363 . S
C1396 H1412 0.931 . S
C1397 C1396 1.370 . S
C1397 C1401 1.408 . S
C1398 C1396 1.363 . S
C1398 C1399 1.370 . S
C1398 C1402 1.524 . S
C1399 C1391 1.503 . S
C1399 C1398 1.370 . S
C1399 C1400 1.403 . S
C1400 C1399 1.403 . S
C1400 C1401 1.404 . S
C1400 C1403 1.539 . S
C1401 C1397 1.408 . S
C1401 C1400 1.404 . S
C1401 H1413 0.930 . S
C1402 C1398 1.524 . S
C1402 H1414 0.956 . S
C1402 H1415 0.961 . S
C1402 H1416 0.961 . S
C1403 C1400 1.539 . S
C1403 H1417 0.958 . S
C1403 H1418 0.961 . S
C1403 H1419 0.960 . S
H1404 C1388 0.931 . S
H1405 C1393 0.929 . S
H1406 C1394 0.960 . S
H1407 C1394 0.962 . S
H1408 C1394 0.960 . S
H1409 C1395 0.961 . S
H1410 C1395 0.961 . S
H1411 C1395 0.961 . S
H1412 C1396 0.931 . S
H1413 C1401 0.930 . S
H1414 C1402 0.956 . S
H1415 C1402 0.961 . S
H1416 C1402 0.961 . S
H1417 C1403 0.958 . S
H1418 C1403 0.961 . S
H1419 C1403 0.960 . S
C1420 C1421 1.391 . S
C1420 C1422 1.394 . S
C1420 H1436 0.931 1_565 S
C1421 C1420 1.391 . S
C1421 C1425 1.376 . S
C1422 C1420 1.394 . S
C1422 C1423 1.369 . S
C1422 C1426 1.531 1_565 S
C1423 C1422 1.369 . S
C1423 C1424 1.410 . S
C1423 C1431 1.503 . S
C1424 C1423 1.410 . S
C1424 C1425 1.392 . S
C1424 C1427 1.511 . S
C1425 C1421 1.376 . S
C1425 C1424 1.392 . S
C1425 H1437 0.929 . S
C1426 C1422 1.531 1_545 S
C1426 H1438 0.960 . S
C1426 H1439 0.962 1_545 S
C1426 H1440 0.960 . S
C1427 C1424 1.511 . S
C1427 H1441 0.961 . S
C1427 H1442 0.961 . S
C1427 H1443 0.961 . S
C1428 C1429 1.370 . S
C1428 C1430 1.363 . S
C1428 H1444 0.931 . S
C1429 C1428 1.370 . S
C1429 C1433 1.408 . S
C1430 C1428 1.363 . S
C1430 C1431 1.370 . S
C1430 C1434 1.524 . S
C1431 C1423 1.503 . S
C1431 C1430 1.370 . S
C1431 C1432 1.403 1_565 S
C1432 C1431 1.403 1_545 S
C1432 C1433 1.404 1_545 S
C1432 C1435 1.539 . S
C1433 C1429 1.408 . S
C1433 C1432 1.404 1_565 S
C1433 H1445 0.930 1_565 S
C1434 C1430 1.524 . S
C1434 H1446 0.956 . S
C1434 H1447 0.961 . S
C1434 H1448 0.961 . S
C1435 C1432 1.539 . S
C1435 H1449 0.958 . S
C1435 H1450 0.961 . S
C1435 H1451 0.960 . S
H1436 C1420 0.931 1_545 S
H1437 C1425 0.929 . S
H1438 C1426 0.960 . S
H1439 C1426 0.962 1_565 S
H1440 C1426 0.960 . S
H1441 C1427 0.961 . S
H1442 C1427 0.961 . S
H1443 C1427 0.961 . S
H1444 C1428 0.931 . S
H1445 C1433 0.930 1_545 S
H1446 C1434 0.956 . S
H1447 C1434 0.961 . S
H1448 C1434 0.961 . S
H1449 C1435 0.958 . S
H1450 C1435 0.961 . S
H1451 C1435 0.960 . S
C1452 C1453 1.391 . S
C1452 C1454 1.394 . S
C1452 H1468 0.931 . S
C1453 C1452 1.391 . S
C1453 C1457 1.376 . S
C1454 C1452 1.394 . S
C1454 C1455 1.369 . S
C1454 C1458 1.531 . S
C1455 C1454 1.369 . S
C1455 C1456 1.410 . S
C1455 C1463 1.503 . S
C1456 C1455 1.410 . S
C1456 C1457 1.392 . S
C1456 C1459 1.511 . S
C1457 C1453 1.376 . S
C1457 C1456 1.392 . S
C1457 H1469 0.929 . S
C1458 C1454 1.531 . S
C1458 H1470 0.960 . S
C1458 H1471 0.962 . S
C1458 H1472 0.960 . S
C1459 C1456 1.511 . S
C1459 H1473 0.961 . S
C1459 H1474 0.961 . S
C1459 H1475 0.961 . S
C1460 C1461 1.370 . S
C1460 C1462 1.363 . S
C1460 H1476 0.931 . S
C1461 C1460 1.370 . S
C1461 C1465 1.408 . S
C1462 C1460 1.363 . S
C1462 C1463 1.370 . S
C1462 C1466 1.524 . S
C1463 C1455 1.503 . S
C1463 C1462 1.370 . S
C1463 C1464 1.403 . S
C1464 C1463 1.403 . S
C1464 C1465 1.404 . S
C1464 C1467 1.539 . S
C1465 C1461 1.408 . S
C1465 C1464 1.404 . S
C1465 H1477 0.930 . S
C1466 C1462 1.524 . S
C1466 H1478 0.956 . S
C1466 H1479 0.961 . S
C1466 H1480 0.961 . S
C1467 C1464 1.539 . S
C1467 H1481 0.958 . S
C1467 H1482 0.961 . S
C1467 H1483 0.960 . S
H1468 C1452 0.931 . S
H1469 C1457 0.929 . S
H1470 C1458 0.960 . S
H1471 C1458 0.962 . S
H1472 C1458 0.960 . S
H1473 C1459 0.961 . S
H1474 C1459 0.961 . S
H1475 C1459 0.961 . S
H1476 C1460 0.931 . S
H1477 C1465 0.930 . S
H1478 C1466 0.956 . S
H1479 C1466 0.961 . S
H1480 C1466 0.961 . S
H1481 C1467 0.958 . S
H1482 C1467 0.961 . S
H1483 C1467 0.960 . S
C1484 C1485 1.391 . S
C1484 C1486 1.394 . S
C1484 H1500 0.931 . S
C1485 C1484 1.391 . S
C1485 C1489 1.376 . S
C1486 C1484 1.394 . S
C1486 C1487 1.369 . S
C1486 C1490 1.531 . S
C1487 C1486 1.369 . S
C1487 C1488 1.410 . S
C1487 C1495 1.503 . S
C1488 C1487 1.410 . S
C1488 C1489 1.392 . S
C1488 C1491 1.511 . S
C1489 C1485 1.376 . S
C1489 C1488 1.392 . S
C1489 H1501 0.929 . S
C1490 C1486 1.531 . S
C1490 H1502 0.960 . S
C1490 H1503 0.962 . S
C1490 H1504 0.960 . S
C1491 C1488 1.511 . S
C1491 H1505 0.961 . S
C1491 H1506 0.961 . S
C1491 H1507 0.961 1_545 S
C1492 C1493 1.370 . S
C1492 C1494 1.363 . S
C1492 H1508 0.931 . S
C1493 C1492 1.370 . S
C1493 C1497 1.408 . S
C1494 C1492 1.363 . S
C1494 C1495 1.370 . S
C1494 C1498 1.524 . S
C1495 C1487 1.503 . S
C1495 C1494 1.370 . S
C1495 C1496 1.403 . S
C1496 C1495 1.403 . S
C1496 C1497 1.404 . S
C1496 C1499 1.539 1_545 S
C1497 C1493 1.408 . S
C1497 C1496 1.404 . S
C1497 H1509 0.915 1_545 S
C1498 C1494 1.524 . S
C1498 H1510 0.956 . S
C1498 H1511 0.961 . S
C1498 H1512 0.961 . S
C1499 C1496 1.539 1_565 S
C1499 H1513 0.958 . S
C1499 H1514 0.961 . S
C1499 H1515 0.960 . S
H1500 C1484 0.931 . S
H1501 C1489 0.929 . S
H1502 C1490 0.960 . S
H1503 C1490 0.962 . S
H1504 C1490 0.960 . S
H1505 C1491 0.961 . S
H1506 C1491 0.961 . S
H1507 C1491 0.961 1_565 S
H1508 C1492 0.931 . S
H1509 C1497 0.915 1_565 S
H1510 C1498 0.956 . S
H1511 C1498 0.961 . S
H1512 C1498 0.961 . S
H1513 C1499 0.958 . S
H1514 C1499 0.961 . S
H1515 C1499 0.960 . S
C1516 C1517 1.391 . S
C1516 C1518 1.394 . S
C1516 H1532 0.931 . S
C1517 C1516 1.391 . S
C1517 C1521 1.376 . S
C1518 C1516 1.394 . S
C1518 C1519 1.369 . S
C1518 C1522 1.531 . S
C1519 C1518 1.369 . S
C1519 C1520 1.410 . S
C1519 C1527 1.503 . S
C1520 C1519 1.410 . S
C1520 C1521 1.392 . S
C1520 C1523 1.511 . S
C1521 C1517 1.376 . S
C1521 C1520 1.392 . S
C1521 H1533 0.929 . S
C1522 C1518 1.531 . S
C1522 H1534 0.960 . S
C1522 H1535 0.962 . S
C1522 H1536 0.960 . S
C1523 C1520 1.511 . S
C1523 H1537 0.961 . S
C1523 H1538 0.961 . S
C1523 H1539 0.961 . S
C1524 C1525 1.370 . S
C1524 C1526 1.363 . S
C1524 H1540 0.931 . S
C1525 C1524 1.370 . S
C1525 C1529 1.408 . S
C1526 C1524 1.363 . S
C1526 C1527 1.370 . S
C1526 C1530 1.524 . S
C1527 C1519 1.503 . S
C1527 C1526 1.370 . S
C1527 C1528 1.403 . S
C1528 C1527 1.403 . S
C1528 C1529 1.404 . S
C1528 C1531 1.539 . S
C1529 C1525 1.408 . S
C1529 C1528 1.404 . S
C1529 H1541 0.930 . S
C1530 C1526 1.524 . S
C1530 H1542 0.956 . S
C1530 H1543 0.961 . S
C1530 H1544 0.961 . S
C1531 C1528 1.539 . S
C1531 H1545 0.958 . S
C1531 H1546 0.961 . S
C1531 H1547 0.960 . S
H1532 C1516 0.931 . S
H1533 C1521 0.929 . S
H1534 C1522 0.960 . S
H1535 C1522 0.962 . S
H1536 C1522 0.960 . S
H1537 C1523 0.961 . S
H1538 C1523 0.961 . S
H1539 C1523 0.961 . S
H1540 C1524 0.931 . S
H1541 C1529 0.930 . S
H1542 C1530 0.956 . S
H1543 C1530 0.961 . S
H1544 C1530 0.961 . S
H1545 C1531 0.958 . S
H1546 C1531 0.961 . S
H1547 C1531 0.960 . S
C1548 C1549 1.391 . S
C1548 C1550 1.394 . S
C1548 H1564 0.929 1_556 S
C1549 C1548 1.391 . S
C1549 C1553 1.376 . S
C1550 C1548 1.394 . S
C1550 C1551 1.369 . S
C1550 C1554 1.531 . S
C1551 C1550 1.369 . S
C1551 C1552 1.410 . S
C1551 C1559 1.503 . S
C1552 C1551 1.410 . S
C1552 C1553 1.392 . S
C1552 C1555 1.511 . S
C1553 C1549 1.376 . S
C1553 C1552 1.392 . S
C1553 H1565 0.929 . S
C1554 C1550 1.531 . S
C1554 H1566 0.960 . S
C1554 H1567 0.962 1_556 S
C1554 H1568 0.960 . S
C1555 C1552 1.511 . S
C1555 H1569 0.961 . S
C1555 H1570 0.961 . S
C1555 H1571 0.961 . S
C1556 C1557 1.370 . S
C1556 C1558 1.363 . S
C1556 H1572 0.929 1_556 S
C1557 C1556 1.370 . S
C1557 C1561 1.408 . S
C1558 C1556 1.363 . S
C1558 C1559 1.370 . S
C1558 C1562 1.524 1_556 S
C1559 C1551 1.503 . S
C1559 C1558 1.370 . S
C1559 C1560 1.403 . S
C1560 C1559 1.403 . S
C1560 C1561 1.404 . S
C1560 C1563 1.539 . S
C1561 C1557 1.408 . S
C1561 C1560 1.404 . S
C1561 H1573 0.930 . S
C1562 C1558 1.524 1_554 S
C1562 H1574 0.956 . S
C1562 H1575 0.961 . S
C1562 H1576 0.961 . S
C1563 C1560 1.539 . S
C1563 H1577 0.958 . S
C1563 H1578 0.961 . S
C1563 H1579 0.960 . S
H1564 C1548 0.929 1_554 S
H1565 C1553 0.929 . S
H1566 C1554 0.960 . S
H1567 C1554 0.962 1_554 S
H1568 C1554 0.960 . S
H1569 C1555 0.961 . S
H1570 C1555 0.961 . S
H1571 C1555 0.961 . S
H1572 C1556 0.929 1_554 S
H1573 C1561 0.930 . S
H1574 C1562 0.956 . S
H1575 C1562 0.961 . S
H1576 C1562 0.961 . S
H1577 C1563 0.958 . S
H1578 C1563 0.961 . S
H1579 C1563 0.960 . S
C1580 C1581 1.391 1_554 S
C1580 C1582 1.394 1_554 S
C1580 H1596 0.931 . S
C1581 C1580 1.391 1_556 S
C1581 C1585 1.376 . S
C1582 C1580 1.394 1_556 S
C1582 C1583 1.369 . S
C1582 C1586 1.531 1_556 S
C1583 C1582 1.369 . S
C1583 C1584 1.410 . S
C1583 C1591 1.503 . S
C1584 C1583 1.410 . S
C1584 C1585 1.392 . S
C1584 C1587 1.511 . S
C1585 C1581 1.376 . S
C1585 C1584 1.392 . S
C1585 H1597 0.929 . S
C1586 C1582 1.531 1_554 S
C1586 H1598 0.960 1_554 S
C1586 H1599 0.962 . S
C1586 H1600 0.964 . S
C1587 C1584 1.511 . S
C1587 H1601 0.961 . S
C1587 H1602 0.961 . S
C1587 H1603 0.961 . S
C1588 C1589 1.370 1_554 S
C1588 C1590 1.363 . S
C1588 H1604 0.931 . S
C1589 C1588 1.370 1_556 S
C1589 C1593 1.408 . S
C1590 C1588 1.363 . S
C1590 C1591 1.370 1_554 S
C1590 C1594 1.524 . S
C1591 C1583 1.503 . S
C1591 C1590 1.370 1_556 S
C1591 C1592 1.403 . S
C1592 C1591 1.403 . S
C1592 C1593 1.404 . S
C1592 C1595 1.539 . S
C1593 C1589 1.408 . S
C1593 C1592 1.404 . S
C1593 H1605 0.930 . S
C1594 C1590 1.524 . S
C1594 H1606 0.956 . S
C1594 H1607 0.961 . S
C1594 H1608 0.961 . S
C1595 C1592 1.539 . S
C1595 H1609 0.958 . S
C1595 H1610 0.961 . S
C1595 H1611 0.960 . S
H1596 C1580 0.931 . S
H1597 C1585 0.929 . S
H1598 C1586 0.960 1_556 S
H1599 C1586 0.962 . S
H1600 C1586 0.964 . S
H1601 C1587 0.961 . S
H1602 C1587 0.961 . S
H1603 C1587 0.961 . S
H1604 C1588 0.931 . S
H1605 C1593 0.930 . S
H1606 C1594 0.956 . S
H1607 C1594 0.961 . S
H1608 C1594 0.961 . S
H1609 C1595 0.958 . S
H1610 C1595 0.961 . S
H1611 C1595 0.960 . S
C1612 C1613 1.391 . S
C1612 C1614 1.394 . S
C1612 H1628 0.931 . S
C1613 C1612 1.391 . S
C1613 C1617 1.376 . S
C1614 C1612 1.394 . S
C1614 C1615 1.369 . S
C1614 C1618 1.531 . S
C1615 C1614 1.369 . S
C1615 C1616 1.410 . S
C1615 C1623 1.503 . S
C1616 C1615 1.410 . S
C1616 C1617 1.392 . S
C1616 C1619 1.511 1_554 S
C1617 C1613 1.376 . S
C1617 C1616 1.392 . S
C1617 H1629 0.929 1_554 S
C1618 C1614 1.531 . S
C1618 H1630 0.960 . S
C1618 H1631 0.962 . S
C1618 H1632 0.960 . S
C1619 C1616 1.511 1_556 S
C1619 H1633 0.961 . S
C1619 H1634 0.961 . S
C1619 H1635 0.961 . S
C1620 C1621 1.370 . S
C1620 C1622 1.363 . S
C1620 H1636 0.931 1_655 S
C1621 C1620 1.370 . S
C1621 C1625 1.408 . S
C1622 C1620 1.363 . S
C1622 C1623 1.370 . S
C1622 C1626 1.524 . S
C1623 C1615 1.503 . S
C1623 C1622 1.370 . S
C1623 C1624 1.403 . S
C1624 C1623 1.403 . S
C1624 C1625 1.404 . S
C1624 C1627 1.539 . S
C1625 C1621 1.408 . S
C1625 C1624 1.404 . S
C1625 H1637 0.930 . S
C1626 C1622 1.524 . S
C1626 H1638 0.956 . S
C1626 H1639 0.961 1_554 S
C1626 H1640 0.961 . S
C1627 C1624 1.539 . S
C1627 H1641 0.958 . S
C1627 H1642 0.961 . S
C1627 H1643 0.960 . S
H1628 C1612 0.931 . S
H1629 C1617 0.929 1_556 S
H1630 C1618 0.960 . S
H1631 C1618 0.962 . S
H1632 C1618 0.960 . S
H1633 C1619 0.961 . S
H1634 C1619 0.961 . S
H1635 C1619 0.961 . S
H1636 C1620 0.931 1_455 S
H1637 C1625 0.930 . S
H1638 C1626 0.956 . S
H1639 C1626 0.961 1_556 S
H1640 C1626 0.961 . S
H1641 C1627 0.958 . S
H1642 C1627 0.961 . S
H1643 C1627 0.960 . S
C1644 C1645 1.391 . S
C1644 C1646 1.394 . S
C1644 H1660 0.931 . S
C1645 C1644 1.391 . S
C1645 C1649 1.376 . S
C1646 C1644 1.394 . S
C1646 C1647 1.369 . S
C1646 C1650 1.531 . S
C1647 C1646 1.369 . S
C1647 C1648 1.410 . S
C1647 C1655 1.503 . S
C1648 C1647 1.410 . S
C1648 C1649 1.392 . S
C1648 C1651 1.511 1_455 S
C1649 C1645 1.376 . S
C1649 C1648 1.392 . S
C1649 H1661 0.929 . S
C1650 C1646 1.531 . S
C1650 H1662 0.960 . S
C1650 H1663 0.962 . S
C1650 H1664 0.960 . S
C1651 C1648 1.511 1_655 S
C1651 H1665 0.961 . S
C1651 H1666 0.961 1_655 S
C1651 H1667 0.961 . S
C1652 C1653 1.370 . S
C1652 C1654 1.363 . S
C1652 H1668 0.931 . S
C1653 C1652 1.370 . S
C1653 C1657 1.408 . S
C1654 C1652 1.363 . S
C1654 C1655 1.370 . S
C1654 C1658 1.524 . S
C1655 C1647 1.503 . S
C1655 C1654 1.370 . S
C1655 C1656 1.403 . S
C1656 C1655 1.403 . S
C1656 C1657 1.404 . S
C1656 C1659 1.539 . S
C1657 C1653 1.408 . S
C1657 C1656 1.404 . S
C1657 H1669 0.930 . S
C1658 C1654 1.524 . S
C1658 H1670 0.956 . S
C1658 H1671 0.961 . S
C1658 H1672 0.961 . S
C1659 C1656 1.539 . S
C1659 H1673 0.958 . S
C1659 H1674 0.961 . S
C1659 H1675 0.960 . S
H1660 C1644 0.931 . S
H1661 C1649 0.929 . S
H1662 C1650 0.960 . S
H1663 C1650 0.962 . S
H1664 C1650 0.960 . S
H1665 C1651 0.961 . S
H1666 C1651 0.961 1_455 S
H1667 C1651 0.961 . S
H1668 C1652 0.931 . S
H1669 C1657 0.930 . S
H1670 C1658 0.956 . S
H1671 C1658 0.961 . S
H1672 C1658 0.961 . S
H1673 C1659 0.958 . S
H1674 C1659 0.961 . S
H1675 C1659 0.960 . S
C1676 C1677 1.391 . S
C1676 C1678 1.394 . S
C1676 H1692 0.931 . S
C1677 C1676 1.391 . S
C1677 C1681 1.376 . S
C1678 C1676 1.394 . S
C1678 C1679 1.369 . S
C1678 C1682 1.531 . S
C1679 C1678 1.369 . S
C1679 C1680 1.410 1_455 S
C1679 C1687 1.503 . S
C1680 C1679 1.410 1_655 S
C1680 C1681 1.392 1_655 S
C1680 C1683 1.511 . S
C1681 C1677 1.376 . S
C1681 C1680 1.392 1_455 S
C1681 H1693 0.929 1_455 S
C1682 C1678 1.531 . S
C1682 H1694 0.960 . S
C1682 H1695 0.962 . S
C1682 H1696 0.960 . S
C1683 C1680 1.511 . S
C1683 H1697 0.961 . S
C1683 H1698 0.961 . S
C1683 H1699 0.961 . S
C1684 C1685 1.370 . S
C1684 C1686 1.363 . S
C1684 H1700 0.931 . S
C1685 C1684 1.370 . S
C1685 C1689 1.408 1_655 S
C1686 C1684 1.363 . S
C1686 C1687 1.370 1_655 S
C1686 C1690 1.524 . S
C1687 C1679 1.503 . S
C1687 C1686 1.370 1_455 S
C1687 C1688 1.403 . S
C1688 C1687 1.403 . S
C1688 C1689 1.404 . S
C1688 C1691 1.539 . S
C1689 C1685 1.408 1_455 S
C1689 C1688 1.404 . S
C1689 H1701 0.930 . S
C1690 C1686 1.524 . S
C1690 H1702 0.956 . S
C1690 H1703 0.961 . S
C1690 H1704 0.961 . S
C1691 C1688 1.539 . S
C1691 H1705 0.958 . S
C1691 H1706 0.961 . S
C1691 H1707 0.960 . S
H1692 C1676 0.931 . S
H1693 C1681 0.929 1_655 S
H1694 C1682 0.960 . S
H1695 C1682 0.962 . S
H1696 C1682 0.960 . S
H1697 C1683 0.961 . S
H1698 C1683 0.961 . S
H1699 C1683 0.961 . S
H1700 C1684 0.931 . S
H1701 C1689 0.930 . S
H1702 C1690 0.956 . S
H1703 C1690 0.961 . S
H1704 C1690 0.961 . S
H1705 C1691 0.958 . S
H1706 C1691 0.961 . S
H1707 C1691 0.960 . S
C1708 C1709 1.391 . S
C1708 C1710 1.394 . S
C1708 H1724 0.931 . S
C1709 C1708 1.391 . S
C1709 C1713 1.376 . S
C1710 C1708 1.394 . S
C1710 C1711 1.369 . S
C1710 C1714 1.531 . S
C1711 C1710 1.369 . S
C1711 C1712 1.410 . S
C1711 C1719 1.503 . S
C1712 C1711 1.410 . S
C1712 C1713 1.392 . S
C1712 C1715 1.511 . S
C1713 C1709 1.376 . S
C1713 C1712 1.392 . S
C1713 H1725 0.929 . S
C1714 C1710 1.531 . S
C1714 H1726 0.960 . S
C1714 H1727 0.962 . S
C1714 H1728 0.960 . S
C1715 C1712 1.511 . S
C1715 H1729 0.961 . S
C1715 H1730 0.961 . S
C1715 H1731 0.961 1_455 S
C1716 C1717 1.370 . S
C1716 C1718 1.363 . S
C1716 H1732 0.931 . S
C1717 C1716 1.370 . S
C1717 C1721 1.408 1_455 S
C1718 C1716 1.363 . S
C1718 C1719 1.370 . S
C1718 C1722 1.524 . S
C1719 C1711 1.503 . S
C1719 C1718 1.370 . S
C1719 C1720 1.403 1_455 S
C1720 C1719 1.403 1_655 S
C1720 C1721 1.404 . S
C1720 C1723 1.539 . S
C1721 C1717 1.408 1_655 S
C1721 C1720 1.404 . S
C1721 H1733 0.930 . S
C1722 C1718 1.524 . S
C1722 H1734 0.956 . S
C1722 H1735 0.961 . S
C1722 H1736 0.961 . S
C1723 C1720 1.539 . S
C1723 H1737 0.958 . S
C1723 H1738 0.961 . S
C1723 H1739 0.960 . S
H1724 C1708 0.931 . S
H1725 C1713 0.929 . S
H1726 C1714 0.960 . S
H1727 C1714 0.962 . S
H1728 C1714 0.960 . S
H1729 C1715 0.961 . S
H1730 C1715 0.961 . S
H1731 C1715 0.961 1_655 S
H1732 C1716 0.931 . S
H1733 C1721 0.930 . S
H1734 C1722 0.956 . S
H1735 C1722 0.961 . S
H1736 C1722 0.961 . S
H1737 C1723 0.958 . S
H1738 C1723 0.961 . S
H1739 C1723 0.960 . S
C1740 C1741 1.391 . S
C1740 C1742 1.394 . S
C1740 H1756 0.931 . S
C1741 C1740 1.391 . S
C1741 C1745 1.376 1_655 S
C1742 C1740 1.394 . S
C1742 C1743 1.369 . S
C1742 C1746 1.531 . S
C1743 C1742 1.369 . S
C1743 C1744 1.410 1_655 S
C1743 C1751 1.503 . S
C1744 C1743 1.410 1_455 S
C1744 C1745 1.392 . S
C1744 C1747 1.511 . S
C1745 C1741 1.376 1_455 S
C1745 C1744 1.392 . S
C1745 H1757 0.929 . S
C1746 C1742 1.531 . S
C1746 H1758 0.960 . S
C1746 H1759 0.962 . S
C1746 H1760 0.960 . S
C1747 C1744 1.511 . S
C1747 H1761 0.961 . S
C1747 H1762 0.961 . S
C1747 H1763 0.961 . S
C1748 C1749 1.370 . S
C1748 C1750 1.363 . S
C1748 H1764 0.931 . S
C1749 C1748 1.370 . S
C1749 C1753 1.408 . S
C1750 C1748 1.363 . S
C1750 C1751 1.370 . S
C1750 C1754 1.524 . S
C1751 C1743 1.503 . S
C1751 C1750 1.370 . S
C1751 C1752 1.403 . S
C1752 C1751 1.403 . S
C1752 C1753 1.404 . S
C1752 C1755 1.539 1_655 S
C1753 C1749 1.408 . S
C1753 C1752 1.404 . S
C1753 H1765 0.930 . S
C1754 C1750 1.524 . S
C1754 H1766 0.956 . S
C1754 H1767 0.961 . S
C1754 H1768 0.961 . S
C1755 C1752 1.539 1_455 S
C1755 H1769 0.958 1_455 S
C1755 H1770 0.961 . S
C1755 H1771 0.960 . S
H1756 C1740 0.931 . S
H1757 C1745 0.929 . S
H1758 C1746 0.960 . S
H1759 C1746 0.962 . S
H1760 C1746 0.960 . S
H1761 C1747 0.961 . S
H1762 C1747 0.961 . S
H1763 C1747 0.961 . S
H1764 C1748 0.931 . S
H1765 C1753 0.930 . S
H1766 C1754 0.956 . S
H1767 C1754 0.961 . S
H1768 C1754 0.961 . S
H1769 C1755 0.958 1_655 S
H1770 C1755 0.961 . S
H1771 C1755 0.960 . S
C1772 C1773 1.391 . S
C1772 C1774 1.394 . S
C1772 H1788 0.931 . S
C1773 C1772 1.391 . S
C1773 C1777 1.376 . S
C1774 C1772 1.394 . S
C1774 C1775 1.369 . S
C1774 C1778 1.531 . S
C1775 C1774 1.369 . S
C1775 C1776 1.410 . S
C1775 C1783 1.503 . S
C1776 C1775 1.410 . S
C1776 C1777 1.392 . S
C1776 C1779 1.511 . S
C1777 C1773 1.376 . S
C1777 C1776 1.392 . S
C1777 H1789 0.929 . S
C1778 C1774 1.531 . S
C1778 H1790 0.960 . S
C1778 H1791 0.962 . S
C1778 H1792 0.960 1_545 S
C1779 C1776 1.511 . S
C1779 H1793 0.961 . S
C1779 H1794 0.961 . S
C1779 H1795 0.961 . S
C1780 C1781 1.370 . S
C1780 C1782 1.363 . S
C1780 H1796 0.931 . S
C1781 C1780 1.370 . S
C1781 C1785 1.408 . S
C1782 C1780 1.363 . S
C1782 C1783 1.370 . S
C1782 C1786 1.524 . S
C1783 C1775 1.503 . S
C1783 C1782 1.370 . S
C1783 C1784 1.403 . S
C1784 C1783 1.403 . S
C1784 C1785 1.404 . S
C1784 C1787 1.539 1_545 S
C1785 C1781 1.408 . S
C1785 C1784 1.404 . S
C1785 H1797 0.930 . S
C1786 C1782 1.524 . S
C1786 H1798 0.956 . S
C1786 H1799 0.961 . S
C1786 H1800 0.961 . S
C1787 C1784 1.539 1_565 S
C1787 H1801 0.958 . S
C1787 H1802 0.961 . S
C1787 H1803 0.960 . S
H1788 C1772 0.931 . S
H1789 C1777 0.929 . S
H1790 C1778 0.960 . S
H1791 C1778 0.962 . S
H1792 C1778 0.960 1_565 S
H1793 C1779 0.961 . S
H1794 C1779 0.961 . S
H1795 C1779 0.961 . S
H1796 C1780 0.931 . S
H1797 C1785 0.930 . S
H1798 C1786 0.956 . S
H1799 C1786 0.961 . S
H1800 C1786 0.961 . S
H1801 C1787 0.958 . S
H1802 C1787 0.961 . S
H1803 C1787 0.960 . S
C1804 C1805 1.391 . S
C1804 C1806 1.394 . S
C1804 H1820 0.931 . S
C1805 C1804 1.391 . S
C1805 C1809 1.376 . S
C1806 C1804 1.394 . S
C1806 C1807 1.369 . S
C1806 C1810 1.531 . S
C1807 C1806 1.369 . S
C1807 C1808 1.410 . S
C1807 C1815 1.503 . S
C1808 C1807 1.410 . S
C1808 C1809 1.392 . S
C1808 C1811 1.511 . S
C1809 C1805 1.376 . S
C1809 C1808 1.392 . S
C1809 H1821 0.929 . S
C1810 C1806 1.531 . S
C1810 H1822 0.960 . S
C1810 H1823 0.962 . S
C1810 H1824 0.960 . S
C1811 C1808 1.511 . S
C1811 H1825 0.961 . S
C1811 H1826 0.961 . S
C1811 H1827 0.961 . S
C1812 C1813 1.370 . S
C1812 C1814 1.363 . S
C1812 H1828 0.931 . S
C1813 C1812 1.370 . S
C1813 C1817 1.408 . S
C1814 C1812 1.363 . S
C1814 C1815 1.370 . S
C1814 C1818 1.524 . S
C1815 C1807 1.503 . S
C1815 C1814 1.370 . S
C1815 C1816 1.403 . S
C1816 C1815 1.403 . S
C1816 C1817 1.404 . S
C1816 C1819 1.539 . S
C1817 C1813 1.408 . S
C1817 C1816 1.404 . S
C1817 H1829 0.930 . S
C1818 C1814 1.524 . S
C1818 H1830 0.956 . S
C1818 H1831 0.961 . S
C1818 H1832 0.961 . S
C1819 C1816 1.539 . S
C1819 H1833 0.958 . S
C1819 H1834 0.961 . S
C1819 H1835 0.960 . S
H1820 C1804 0.931 . S
H1821 C1809 0.929 . S
H1822 C1810 0.960 . S
H1823 C1810 0.962 . S
H1824 C1810 0.960 . S
H1825 C1811 0.961 . S
H1826 C1811 0.961 . S
H1827 C1811 0.961 . S
H1828 C1812 0.931 . S
H1829 C1817 0.930 . S
H1830 C1818 0.956 . S
H1831 C1818 0.961 . S
H1832 C1818 0.961 . S
H1833 C1819 0.958 . S
H1834 C1819 0.961 . S
H1835 C1819 0.960 . S
C1836 C1837 1.391 . S
C1836 C1838 1.394 . S
C1836 H1852 0.931 . S
C1837 C1836 1.391 . S
C1837 C1841 1.376 . S
C1838 C1836 1.394 . S
C1838 C1839 1.369 . S
C1838 C1842 1.531 . S
C1839 C1838 1.369 . S
C1839 C1840 1.410 . S
C1839 C1847 1.503 . S
C1840 C1839 1.410 . S
C1840 C1841 1.392 . S
C1840 C1843 1.511 . S
C1841 C1837 1.376 . S
C1841 C1840 1.392 . S
C1841 H1853 0.933 . S
C1842 C1838 1.531 . S
C1842 H1854 0.960 . S
C1842 H1855 0.962 . S
C1842 H1856 0.960 . S
C1843 C1840 1.511 . S
C1843 H1857 0.961 . S
C1843 H1858 0.961 . S
C1843 H1859 0.961 1_565 S
C1844 C1845 1.370 . S
C1844 C1846 1.363 . S
C1844 H1860 0.931 . S
C1845 C1844 1.370 . S
C1845 C1849 1.408 . S
C1846 C1844 1.363 . S
C1846 C1847 1.370 . S
C1846 C1850 1.524 . S
C1847 C1839 1.503 . S
C1847 C1846 1.370 . S
C1847 C1848 1.403 . S
C1848 C1847 1.403 . S
C1848 C1849 1.404 . S
C1848 C1851 1.539 1_565 S
C1849 C1845 1.408 . S
C1849 C1848 1.404 . S
C1849 H1861 0.930 . S
C1850 C1846 1.524 . S
C1850 H1862 0.956 . S
C1850 H1863 0.961 . S
C1850 H1864 0.961 . S
C1851 C1848 1.539 1_545 S
C1851 H1865 0.958 . S
C1851 H1866 0.961 . S
C1851 H1867 0.960 . S
H1852 C1836 0.931 . S
H1853 C1841 0.933 . S
H1854 C1842 0.960 . S
H1855 C1842 0.962 . S
H1856 C1842 0.960 . S
H1857 C1843 0.961 . S
H1858 C1843 0.961 . S
H1859 C1843 0.961 1_545 S
H1860 C1844 0.931 . S
H1861 C1849 0.930 . S
H1862 C1850 0.956 . S
H1863 C1850 0.961 . S
H1864 C1850 0.961 . S
H1865 C1851 0.958 . S
H1866 C1851 0.961 . S
H1867 C1851 0.960 . S
C1868 C1869 1.391 . S
C1868 C1870 1.394 . S
C1868 H1884 0.931 . S
C1869 C1868 1.391 . S
C1869 C1873 1.376 . S
C1870 C1868 1.394 . S
C1870 C1871 1.369 . S
C1870 C1874 1.531 . S
C1871 C1870 1.369 . S
C1871 C1872 1.410 . S
C1871 C1879 1.503 . S
C1872 C1871 1.410 . S
C1872 C1873 1.392 . S
C1872 C1875 1.511 . S
C1873 C1869 1.376 . S
C1873 C1872 1.392 . S
C1873 H1885 0.929 . S
C1874 C1870 1.531 . S
C1874 H1886 0.960 . S
C1874 H1887 0.962 . S
C1874 H1888 0.960 . S
C1875 C1872 1.511 . S
C1875 H1889 0.961 . S
C1875 H1890 0.961 . S
C1875 H1891 0.961 . S
C1876 C1877 1.370 . S
C1876 C1878 1.363 . S
C1876 H1892 0.931 . S
C1877 C1876 1.370 . S
C1877 C1881 1.408 . S
C1878 C1876 1.363 . S
C1878 C1879 1.370 . S
C1878 C1882 1.524 . S
C1879 C1871 1.503 . S
C1879 C1878 1.370 . S
C1879 C1880 1.403 . S
C1880 C1879 1.403 . S
C1880 C1881 1.404 . S
C1880 C1883 1.539 . S
C1881 C1877 1.408 . S
C1881 C1880 1.404 . S
C1881 H1893 0.930 . S
C1882 C1878 1.524 . S
C1882 H1894 0.956 . S
C1882 H1895 0.961 . S
C1882 H1896 0.961 . S
C1883 C1880 1.539 . S
C1883 H1897 0.958 . S
C1883 H1898 0.961 . S
C1883 H1899 0.960 . S
H1884 C1868 0.931 . S
H1885 C1873 0.929 . S
H1886 C1874 0.960 . S
H1887 C1874 0.962 . S
H1888 C1874 0.960 . S
H1889 C1875 0.961 . S
H1890 C1875 0.961 . S
H1891 C1875 0.961 . S
H1892 C1876 0.931 . S
H1893 C1881 0.930 . S
H1894 C1882 0.956 . S
H1895 C1882 0.961 . S
H1896 C1882 0.961 . S
H1897 C1883 0.958 . S
H1898 C1883 0.961 . S
H1899 C1883 0.960 . S
C1900 C1901 1.391 . S
C1900 C1902 1.394 . S
C1900 H1916 0.931 . S
C1901 C1900 1.391 . S
C1901 C1905 1.376 . S
C1902 C1900 1.394 . S
C1902 C1903 1.369 . S
C1902 C1906 1.542 . S
C1903 C1902 1.369 . S
C1903 C1904 1.410 . S
C1903 C1911 1.503 . S
C1904 C1903 1.410 . S
C1904 C1905 1.392 . S
C1904 C1907 1.511 . S
C1905 C1901 1.376 . S
C1905 C1904 1.392 . S
C1905 H1917 0.929 . S
C1906 C1902 1.542 . S
C1906 H1918 0.949 1_554 S
C1906 H1919 0.980 . S
C1906 H1920 0.943 1_554 S
C1907 C1904 1.511 . S
C1907 H1921 0.961 . S
C1907 H1922 0.961 . S
C1907 H1923 0.961 . S
C1908 C1909 1.370 . S
C1908 C1910 1.363 . S
C1908 H1924 0.931 . S
C1909 C1908 1.370 . S
C1909 C1913 1.408 1_554 S
C1910 C1908 1.363 . S
C1910 C1911 1.370 . S
C1910 C1914 1.524 . S
C1911 C1903 1.503 . S
C1911 C1910 1.370 . S
C1911 C1912 1.403 1_554 S
C1912 C1911 1.403 1_556 S
C1912 C1913 1.404 . S
C1912 C1915 1.539 . S
C1913 C1909 1.408 1_556 S
C1913 C1912 1.404 . S
C1913 H1925 0.930 . S
C1914 C1910 1.524 . S
C1914 H1926 0.956 . S
C1914 H1927 0.961 . S
C1914 H1928 0.961 . S
C1915 C1912 1.539 . S
C1915 H1929 0.958 . S
C1915 H1930 0.961 . S
C1915 H1931 0.960 . S
H1916 C1900 0.931 . S
H1917 C1905 0.929 . S
H1918 C1906 0.949 1_556 S
H1919 C1906 0.980 . S
H1920 C1906 0.943 1_556 S
H1921 C1907 0.961 . S
H1922 C1907 0.961 . S
H1923 C1907 0.961 . S
H1924 C1908 0.931 . S
H1925 C1913 0.930 . S
H1926 C1914 0.956 . S
H1927 C1914 0.961 . S
H1928 C1914 0.961 . S
H1929 C1915 0.958 . S
H1930 C1915 0.961 . S
H1931 C1915 0.960 . S
C1932 C1933 1.391 . S
C1932 C1934 1.394 . S
C1932 H1948 0.931 . S
C1933 C1932 1.391 . S
C1933 C1937 1.376 . S
C1934 C1932 1.394 . S
C1934 C1935 1.369 . S
C1934 C1938 1.531 . S
C1935 C1934 1.369 . S
C1935 C1936 1.410 . S
C1935 C1943 1.503 . S
C1936 C1935 1.410 . S
C1936 C1937 1.392 . S
C1936 C1939 1.511 . S
C1937 C1933 1.376 . S
C1937 C1936 1.392 . S
C1937 H1949 0.929 . S
C1938 C1934 1.531 . S
C1938 H1950 0.960 . S
C1938 H1951 0.962 . S
C1938 H1952 0.960 . S
C1939 C1936 1.511 . S
C1939 H1953 0.961 . S
C1939 H1954 0.961 . S
C1939 H1955 0.961 . S
C1940 C1941 1.370 . S
C1940 C1942 1.363 . S
C1940 H1956 0.931 . S
C1941 C1940 1.370 . S
C1941 C1945 1.408 . S
C1942 C1940 1.363 . S
C1942 C1943 1.370 . S
C1942 C1946 1.524 . S
C1943 C1935 1.503 . S
C1943 C1942 1.370 . S
C1943 C1944 1.403 . S
C1944 C1943 1.403 . S
C1944 C1945 1.404 . S
C1944 C1947 1.539 . S
C1945 C1941 1.408 . S
C1945 C1944 1.404 . S
C1945 H1957 0.930 . S
C1946 C1942 1.524 . S
C1946 H1958 0.956 . S
C1946 H1959 0.961 . S
C1946 H1960 0.961 . S
C1947 C1944 1.539 . S
C1947 H1961 0.958 . S
C1947 H1962 0.961 . S
C1947 H1963 0.960 . S
H1948 C1932 0.931 . S
H1949 C1937 0.929 . S
H1950 C1938 0.960 . S
H1951 C1938 0.962 . S
H1952 C1938 0.960 . S
H1953 C1939 0.961 . S
H1954 C1939 0.961 . S
H1955 C1939 0.961 . S
H1956 C1940 0.931 . S
H1957 C1945 0.930 . S
H1958 C1946 0.956 . S
H1959 C1946 0.961 . S
H1960 C1946 0.961 . S
H1961 C1947 0.958 . S
H1962 C1947 0.961 . S
H1963 C1947 0.960 . S
C1964 C1965 1.391 . S
C1964 C1966 1.394 . S
C1964 H1980 0.931 . S
C1965 C1964 1.391 . S
C1965 C1969 1.376 . S
C1966 C1964 1.394 . S
C1966 C1967 1.369 . S
C1966 C1970 1.531 . S
C1967 C1966 1.369 . S
C1967 C1968 1.410 . S
C1967 C1975 1.503 . S
C1968 C1967 1.410 . S
C1968 C1969 1.392 . S
C1968 C1971 1.511 . S
C1969 C1965 1.376 . S
C1969 C1968 1.392 . S
C1969 H1981 0.929 . S
C1970 C1966 1.531 . S
C1970 H1982 0.960 . S
C1970 H1983 0.962 . S
C1970 H1984 0.960 . S
C1971 C1968 1.511 . S
C1971 H1985 0.961 . S
C1971 H1986 0.961 . S
C1971 H1987 0.961 . S
C1972 C1973 1.370 . S
C1972 C1974 1.363 . S
C1972 H1988 0.931 . S
C1973 C1972 1.370 . S
C1973 C1977 1.408 . S
C1974 C1972 1.363 . S
C1974 C1975 1.370 . S
C1974 C1978 1.524 . S
C1975 C1967 1.503 . S
C1975 C1974 1.370 . S
C1975 C1976 1.403 . S
C1976 C1975 1.403 . S
C1976 C1977 1.404 . S
C1976 C1979 1.539 . S
C1977 C1973 1.408 . S
C1977 C1976 1.404 . S
C1977 H1989 0.930 . S
C1978 C1974 1.524 . S
C1978 H1990 0.956 . S
C1978 H1991 0.961 . S
C1978 H1992 0.961 . S
C1979 C1976 1.539 . S
C1979 H1993 0.958 . S
C1979 H1994 0.961 . S
C1979 H1995 0.960 . S
H1980 C1964 0.931 . S
H1981 C1969 0.929 . S
H1982 C1970 0.960 . S
H1983 C1970 0.962 . S
H1984 C1970 0.960 . S
H1985 C1971 0.961 . S
H1986 C1971 0.961 . S
H1987 C1971 0.961 . S
H1988 C1972 0.931 . S
H1989 C1977 0.930 . S
H1990 C1978 0.956 . S
H1991 C1978 0.961 . S
H1992 C1978 0.961 . S
H1993 C1979 0.958 . S
H1994 C1979 0.961 . S
H1995 C1979 0.960 . S
C1996 C1997 1.391 . S
C1996 C1998 1.394 . S
C1996 H2012 0.931 . S
C1997 C1996 1.391 . S
C1997 C2001 1.376 . S
C1998 C1996 1.394 . S
C1998 C1999 1.369 . S
C1998 C2002 1.531 . S
C1999 C1998 1.369 . S
C1999 C2000 1.410 . S
C1999 C2007 1.503 . S
C2000 C1999 1.410 . S
C2000 C2001 1.392 . S
C2000 C2003 1.511 . S
C2001 C1997 1.376 . S
C2001 C2000 1.392 . S
C2001 H2013 0.929 . S
C2002 C1998 1.531 . S
C2002 H2014 0.960 . S
C2002 H2015 0.962 . S
C2002 H2016 0.960 . S
C2003 C2000 1.511 . S
C2003 H2017 0.961 . S
C2003 H2018 0.961 . S
C2003 H2019 0.961 . S
C2004 C2005 1.370 . S
C2004 C2006 1.363 . S
C2004 H2020 0.931 . S
C2005 C2004 1.370 . S
C2005 C2009 1.408 . S
C2006 C2004 1.363 . S
C2006 C2007 1.370 . S
C2006 C2010 1.524 . S
C2007 C1999 1.503 . S
C2007 C2006 1.370 . S
C2007 C2008 1.403 . S
C2008 C2007 1.403 . S
C2008 C2009 1.404 . S
C2008 C2011 1.539 . S
C2009 C2005 1.408 . S
C2009 C2008 1.404 . S
C2009 H2021 0.930 . S
C2010 C2006 1.524 . S
C2010 H2022 0.956 . S
C2010 H2023 0.961 . S
C2010 H2024 0.961 . S
C2011 C2008 1.539 . S
C2011 H2025 0.958 . S
C2011 H2026 0.961 . S
C2011 H2027 0.960 . S
H2012 C1996 0.931 . S
H2013 C2001 0.929 . S
H2014 C2002 0.960 . S
H2015 C2002 0.962 . S
H2016 C2002 0.960 . S
H2017 C2003 0.961 . S
H2018 C2003 0.961 . S
H2019 C2003 0.961 . S
H2020 C2004 0.931 . S
H2021 C2009 0.930 . S
H2022 C2010 0.956 . S
H2023 C2010 0.961 . S
H2024 C2010 0.961 . S
H2025 C2011 0.958 . S
H2026 C2011 0.961 . S
H2027 C2011 0.960 . S
C2028 C2029 1.391 . S
C2028 C2030 1.394 . S
C2028 H2044 0.931 . S
C2029 C2028 1.391 . S
C2029 C2033 1.376 . S
C2030 C2028 1.394 . S
C2030 C2031 1.369 . S
C2030 C2034 1.531 . S
C2031 C2030 1.369 . S
C2031 C2032 1.410 . S
C2031 C2039 1.503 . S
C2032 C2031 1.410 . S
C2032 C2033 1.392 . S
C2032 C2035 1.511 . S
C2033 C2029 1.376 . S
C2033 C2032 1.392 . S
C2033 H2045 0.929 . S
C2034 C2030 1.531 . S
C2034 H2046 0.960 . S
C2034 H2047 0.962 . S
C2034 H2048 0.960 . S
C2035 C2032 1.511 . S
C2035 H2049 0.961 . S
C2035 H2050 0.961 . S
C2035 H2051 0.961 . S
C2036 C2037 1.370 . S
C2036 C2038 1.363 . S
C2036 H2052 0.931 . S
C2037 C2036 1.370 . S
C2037 C2041 1.408 . S
C2038 C2036 1.363 . S
C2038 C2039 1.370 . S
C2038 C2042 1.524 . S
C2039 C2031 1.503 . S
C2039 C2038 1.370 . S
C2039 C2040 1.403 . S
C2040 C2039 1.403 . S
C2040 C2041 1.404 . S
C2040 C2043 1.539 . S
C2041 C2037 1.408 . S
C2041 C2040 1.404 . S
C2041 H2053 0.930 . S
C2042 C2038 1.524 . S
C2042 H2054 0.956 . S
C2042 H2055 0.961 . S
C2042 H2056 0.961 . S
C2043 C2040 1.539 . S
C2043 H2057 0.958 . S
C2043 H2058 0.961 . S
C2043 H2059 0.960 . S
H2044 C2028 0.931 . S
H2045 C2033 0.929 . S
H2046 C2034 0.960 . S
H2047 C2034 0.962 . S
H2048 C2034 0.960 . S
H2049 C2035 0.961 . S
H2050 C2035 0.961 . S
H2051 C2035 0.961 . S
H2052 C2036 0.931 . S
H2053 C2041 0.930 . S
H2054 C2042 0.956 . S
H2055 C2042 0.961 . S
H2056 C2042 0.961 . S
H2057 C2043 0.958 . S
H2058 C2043 0.961 . S
H2059 C2043 0.960 . S
C2060 C2061 1.391 . S
C2060 C2062 1.394 . S
C2060 H2076 0.931 . S
C2061 C2060 1.391 . S
C2061 C2065 1.376 . S
C2062 C2060 1.394 . S
C2062 C2063 1.369 . S
C2062 C2066 1.531 . S
C2063 C2062 1.369 . S
C2063 C2064 1.410 . S
C2063 C2071 1.503 . S
C2064 C2063 1.410 . S
C2064 C2065 1.392 . S
C2064 C2067 1.511 . S
C2065 C2061 1.376 . S
C2065 C2064 1.392 . S
C2065 H2077 0.929 . S
C2066 C2062 1.531 . S
C2066 H2078 0.960 . S
C2066 H2079 0.962 . S
C2066 H2080 0.960 . S
C2067 C2064 1.511 . S
C2067 H2081 0.961 . S
C2067 H2082 0.961 . S
C2067 H2083 0.961 . S
C2068 C2069 1.370 . S
C2068 C2070 1.363 . S
C2068 H2084 0.931 . S
C2069 C2068 1.370 . S
C2069 C2073 1.408 . S
C2070 C2068 1.363 . S
C2070 C2071 1.370 . S
C2070 C2074 1.524 . S
C2071 C2063 1.503 . S
C2071 C2070 1.370 . S
C2071 C2072 1.403 . S
C2072 C2071 1.403 . S
C2072 C2073 1.404 . S
C2072 C2075 1.539 . S
C2073 C2069 1.408 . S
C2073 C2072 1.404 . S
C2073 H2085 0.930 . S
C2074 C2070 1.524 . S
C2074 H2086 0.956 . S
C2074 H2087 0.961 . S
C2074 H2088 0.961 . S
C2075 C2072 1.539 . S
C2075 H2089 0.958 . S
C2075 H2090 0.961 . S
C2075 H2091 0.960 . S
H2076 C2060 0.931 . S
H2077 C2065 0.929 . S
H2078 C2066 0.960 . S
H2079 C2066 0.962 . S
H2080 C2066 0.960 . S
H2081 C2067 0.961 . S
H2082 C2067 0.961 . S
H2083 C2067 0.961 . S
H2084 C2068 0.931 . S
H2085 C2073 0.930 . S
H2086 C2074 0.956 . S
H2087 C2074 0.961 . S
H2088 C2074 0.961 . S
H2089 C2075 0.958 . S
H2090 C2075 0.961 . S
H2091 C2075 0.960 . S
C2092 C2093 1.391 . S
C2092 C2094 1.394 . S
C2092 H2108 0.931 . S
C2093 C2092 1.391 . S
C2093 C2097 1.376 . S
C2094 C2092 1.394 . S
C2094 C2095 1.369 . S
C2094 C2098 1.531 . S
C2095 C2094 1.369 . S
C2095 C2096 1.410 . S
C2095 C2103 1.503 . S
C2096 C2095 1.410 . S
C2096 C2097 1.392 . S
C2096 C2099 1.511 . S
C2097 C2093 1.376 . S
C2097 C2096 1.392 . S
C2097 H2109 0.929 . S
C2098 C2094 1.531 . S
C2098 H2110 0.960 . S
C2098 H2111 0.962 . S
C2098 H2112 0.960 . S
C2099 C2096 1.511 . S
C2099 H2113 0.961 . S
C2099 H2114 0.961 . S
C2099 H2115 0.961 . S
C2100 C2101 1.370 . S
C2100 C2102 1.363 . S
C2100 H2116 0.931 . S
C2101 C2100 1.370 . S
C2101 C2105 1.408 . S
C2102 C2100 1.363 . S
C2102 C2103 1.370 . S
C2102 C2106 1.524 . S
C2103 C2095 1.503 . S
C2103 C2102 1.370 . S
C2103 C2104 1.403 . S
C2104 C2103 1.403 . S
C2104 C2105 1.404 . S
C2104 C2107 1.539 . S
C2105 C2101 1.408 . S
C2105 C2104 1.404 . S
C2105 H2117 0.930 . S
C2106 C2102 1.524 . S
C2106 H2118 0.956 . S
C2106 H2119 0.961 . S
C2106 H2120 0.961 . S
C2107 C2104 1.539 . S
C2107 H2121 0.958 . S
C2107 H2122 0.961 . S
C2107 H2123 0.960 . S
H2108 C2092 0.931 . S
H2109 C2097 0.929 . S
H2110 C2098 0.960 . S
H2111 C2098 0.962 . S
H2112 C2098 0.960 . S
H2113 C2099 0.961 . S
H2114 C2099 0.961 . S
H2115 C2099 0.961 . S
H2116 C2100 0.931 . S
H2117 C2105 0.930 . S
H2118 C2106 0.956 . S
H2119 C2106 0.961 . S
H2120 C2106 0.961 . S
H2121 C2107 0.958 . S
H2122 C2107 0.961 . S
H2123 C2107 0.960 . S
C2124 C2125 1.391 . S
C2124 C2126 1.394 . S
C2124 H2140 0.931 . S
C2125 C2124 1.391 . S
C2125 C2129 1.376 . S
C2126 C2124 1.394 . S
C2126 C2127 1.369 . S
C2126 C2130 1.531 . S
C2127 C2126 1.369 . S
C2127 C2128 1.410 . S
C2127 C2135 1.503 . S
C2128 C2127 1.410 . S
C2128 C2129 1.392 . S
C2128 C2131 1.511 . S
C2129 C2125 1.376 . S
C2129 C2128 1.392 . S
C2129 H2141 0.929 . S
C2130 C2126 1.531 . S
C2130 H2142 0.960 . S
C2130 H2143 0.962 . S
C2130 H2144 0.960 . S
C2131 C2128 1.511 . S
C2131 H2145 0.961 . S
C2131 H2146 0.961 . S
C2131 H2147 0.961 . S
C2132 C2133 1.370 . S
C2132 C2134 1.363 . S
C2132 H2148 0.931 . S
C2133 C2132 1.370 . S
C2133 C2137 1.408 . S
C2134 C2132 1.363 . S
C2134 C2135 1.370 . S
C2134 C2138 1.524 . S
C2135 C2127 1.503 . S
C2135 C2134 1.370 . S
C2135 C2136 1.403 . S
C2136 C2135 1.403 . S
C2136 C2137 1.404 . S
C2136 C2139 1.539 . S
C2137 C2133 1.408 . S
C2137 C2136 1.404 . S
C2137 H2149 0.930 . S
C2138 C2134 1.524 . S
C2138 H2150 0.956 . S
C2138 H2151 0.961 . S
C2138 H2152 0.961 . S
C2139 C2136 1.539 . S
C2139 H2153 0.958 . S
C2139 H2154 0.961 . S
C2139 H2155 0.960 . S
H2140 C2124 0.931 . S
H2141 C2129 0.929 . S
H2142 C2130 0.960 . S
H2143 C2130 0.962 . S
H2144 C2130 0.960 . S
H2145 C2131 0.961 . S
H2146 C2131 0.961 . S
H2147 C2131 0.961 . S
H2148 C2132 0.931 . S
H2149 C2137 0.930 . S
H2150 C2138 0.956 . S
H2151 C2138 0.961 . S
H2152 C2138 0.961 . S
H2153 C2139 0.958 . S
H2154 C2139 0.961 . S
H2155 C2139 0.960 . S
C2156 C2157 1.391 . S
C2156 C2158 1.394 . S
C2156 H2172 0.931 . S
C2157 C2156 1.391 . S
C2157 C2161 1.376 . S
C2158 C2156 1.394 . S
C2158 C2159 1.369 . S
C2158 C2162 1.531 . S
C2159 C2158 1.369 . S
C2159 C2160 1.410 . S
C2159 C2167 1.503 . S
C2160 C2159 1.410 . S
C2160 C2161 1.392 . S
C2160 C2163 1.511 . S
C2161 C2157 1.376 . S
C2161 C2160 1.392 . S
C2161 H2173 0.929 . S
C2162 C2158 1.531 . S
C2162 H2174 0.960 . S
C2162 H2175 0.962 . S
C2162 H2176 0.960 . S
C2163 C2160 1.511 . S
C2163 H2177 0.961 . S
C2163 H2178 0.961 . S
C2163 H2179 0.961 . S
C2164 C2165 1.370 . S
C2164 C2166 1.363 . S
C2164 H2180 0.931 . S
C2165 C2164 1.370 . S
C2165 C2169 1.408 . S
C2166 C2164 1.363 . S
C2166 C2167 1.370 . S
C2166 C2170 1.524 . S
C2167 C2159 1.503 . S
C2167 C2166 1.370 . S
C2167 C2168 1.403 . S
C2168 C2167 1.403 . S
C2168 C2169 1.404 . S
C2168 C2171 1.539 . S
C2169 C2165 1.408 . S
C2169 C2168 1.404 . S
C2169 H2181 0.930 . S
C2170 C2166 1.524 . S
C2170 H2182 0.956 . S
C2170 H2183 0.961 . S
C2170 H2184 0.961 . S
C2171 C2168 1.539 . S
C2171 H2185 0.958 . S
C2171 H2186 0.961 . S
C2171 H2187 0.960 . S
H2172 C2156 0.931 . S
H2173 C2161 0.929 . S
H2174 C2162 0.960 . S
H2175 C2162 0.962 . S
H2176 C2162 0.960 . S
H2177 C2163 0.961 . S
H2178 C2163 0.961 . S
H2179 C2163 0.961 . S
H2180 C2164 0.931 . S
H2181 C2169 0.930 . S
H2182 C2170 0.956 . S
H2183 C2170 0.961 . S
H2184 C2170 0.961 . S
H2185 C2171 0.958 . S
H2186 C2171 0.961 . S
H2187 C2171 0.960 . S
C2188 C2189 1.391 . S
C2188 C2190 1.394 . S
C2188 H2204 0.919 1_565 S
C2189 C2188 1.391 . S
C2189 C2193 1.376 . S
C2190 C2188 1.394 . S
C2190 C2191 1.369 . S
C2190 C2194 1.531 . S
C2191 C2190 1.369 . S
C2191 C2192 1.410 . S
C2191 C2199 1.503 . S
C2192 C2191 1.410 . S
C2192 C2193 1.392 . S
C2192 C2195 1.511 . S
C2193 C2189 1.376 . S
C2193 C2192 1.392 . S
C2193 H2205 0.929 . S
C2194 C2190 1.531 . S
C2194 H2206 0.960 . S
C2194 H2207 0.962 1_565 S
C2194 H2208 0.960 . S
C2195 C2192 1.511 . S
C2195 H2209 0.961 . S
C2195 H2210 0.961 . S
C2195 H2211 0.961 . S
C2196 C2197 1.370 . S
C2196 C2198 1.363 . S
C2196 H2212 0.931 . S
C2197 C2196 1.370 . S
C2197 C2201 1.408 . S
C2198 C2196 1.363 . S
C2198 C2199 1.370 . S
C2198 C2202 1.524 1_565 S
C2199 C2191 1.503 . S
C2199 C2198 1.370 . S
C2199 C2200 1.403 . S
C2200 C2199 1.403 . S
C2200 C2201 1.404 . S
C2200 C2203 1.539 . S
C2201 C2197 1.408 . S
C2201 C2200 1.404 . S
C2201 H2213 0.930 . S
C2202 C2198 1.524 1_545 S
C2202 H2214 0.956 . S
C2202 H2215 0.961 . S
C2202 H2216 0.961 . S
C2203 C2200 1.539 . S
C2203 H2217 0.958 . S
C2203 H2218 0.961 . S
C2203 H2219 0.960 . S
H2204 C2188 0.919 1_545 S
H2205 C2193 0.929 . S
H2206 C2194 0.960 . S
H2207 C2194 0.962 1_545 S
H2208 C2194 0.960 . S
H2209 C2195 0.961 . S
H2210 C2195 0.961 . S
H2211 C2195 0.961 . S
H2212 C2196 0.931 . S
H2213 C2201 0.930 . S
H2214 C2202 0.956 . S
H2215 C2202 0.961 . S
H2216 C2202 0.961 . S
H2217 C2203 0.958 . S
H2218 C2203 0.961 . S
H2219 C2203 0.960 . S
C2220 C2221 1.391 . S
C2220 C2222 1.394 . S
C2220 H2236 0.931 . S
C2221 C2220 1.391 . S
C2221 C2225 1.376 . S
C2222 C2220 1.394 . S
C2222 C2223 1.369 . S
C2222 C2226 1.531 . S
C2223 C2222 1.369 . S
C2223 C2224 1.410 . S
C2223 C2231 1.503 . S
C2224 C2223 1.410 . S
C2224 C2225 1.392 . S
C2224 C2227 1.511 . S
C2225 C2221 1.376 . S
C2225 C2224 1.392 . S
C2225 H2237 0.929 . S
C2226 C2222 1.531 . S
C2226 H2238 0.960 . S
C2226 H2239 0.962 . S
C2226 H2240 0.960 . S
C2227 C2224 1.511 . S
C2227 H2241 0.961 . S
C2227 H2242 0.961 . S
C2227 H2243 0.961 . S
C2228 C2229 1.370 . S
C2228 C2230 1.363 . S
C2228 H2244 0.931 . S
C2229 C2228 1.370 . S
C2229 C2233 1.408 . S
C2230 C2228 1.363 . S
C2230 C2231 1.370 . S
C2230 C2234 1.524 . S
C2231 C2223 1.503 . S
C2231 C2230 1.370 . S
C2231 C2232 1.403 . S
C2232 C2231 1.403 . S
C2232 C2233 1.404 . S
C2232 C2235 1.539 . S
C2233 C2229 1.408 . S
C2233 C2232 1.404 . S
C2233 H2245 0.930 . S
C2234 C2230 1.524 . S
C2234 H2246 0.956 . S
C2234 H2247 0.961 . S
C2234 H2248 0.961 . S
C2235 C2232 1.539 . S
C2235 H2249 0.958 . S
C2235 H2250 0.961 . S
C2235 H2251 0.960 . S
H2236 C2220 0.931 . S
H2237 C2225 0.929 . S
H2238 C2226 0.960 . S
H2239 C2226 0.962 . S
H2240 C2226 0.960 . S
H2241 C2227 0.961 . S
H2242 C2227 0.961 . S
H2243 C2227 0.961 . S
H2244 C2228 0.931 . S
H2245 C2233 0.930 . S
H2246 C2234 0.956 . S
H2247 C2234 0.961 . S
H2248 C2234 0.961 . S
H2249 C2235 0.958 . S
H2250 C2235 0.961 . S
H2251 C2235 0.960 . S
C2252 C2253 1.391 . S
C2252 C2254 1.394 . S
C2252 H2268 0.931 . S
C2253 C2252 1.391 . S
C2253 C2257 1.376 . S
C2254 C2252 1.394 . S
C2254 C2255 1.369 . S
C2254 C2258 1.531 . S
C2255 C2254 1.369 . S
C2255 C2256 1.410 . S
C2255 C2263 1.503 . S
C2256 C2255 1.410 . S
C2256 C2257 1.392 . S
C2256 C2259 1.511 . S
C2257 C2253 1.376 . S
C2257 C2256 1.392 . S
C2257 H2269 0.929 . S
C2258 C2254 1.531 . S
C2258 H2270 0.960 . S
C2258 H2271 0.962 . S
C2258 H2272 0.960 . S
C2259 C2256 1.511 . S
C2259 H2273 0.961 . S
C2259 H2274 0.961 . S
C2259 H2275 0.961 . S
C2260 C2261 1.370 . S
C2260 C2262 1.363 . S
C2260 H2276 0.931 . S
C2261 C2260 1.370 . S
C2261 C2265 1.408 . S
C2262 C2260 1.363 . S
C2262 C2263 1.370 . S
C2262 C2266 1.553 . S
C2263 C2255 1.503 . S
C2263 C2262 1.370 . S
C2263 C2264 1.403 . S
C2264 C2263 1.403 . S
C2264 C2265 1.404 . S
C2264 C2267 1.539 . S
C2265 C2261 1.408 . S
C2265 C2264 1.404 . S
C2265 H2277 0.930 . S
C2266 C2262 1.553 . S
C2266 H2278 0.969 . S
C2266 H2279 0.949 1_545 S
C2266 H2280 0.932 1_545 S
C2267 C2264 1.539 . S
C2267 H2281 0.958 . S
C2267 H2282 0.961 . S
C2267 H2283 0.960 . S
H2268 C2252 0.931 . S
H2269 C2257 0.929 . S
H2270 C2258 0.960 . S
H2271 C2258 0.962 . S
H2272 C2258 0.960 . S
H2273 C2259 0.961 . S
H2274 C2259 0.961 . S
H2275 C2259 0.961 . S
H2276 C2260 0.931 . S
H2277 C2265 0.930 . S
H2278 C2266 0.969 . S
H2279 C2266 0.949 1_565 S
H2280 C2266 0.932 1_565 S
H2281 C2267 0.958 . S
H2282 C2267 0.961 . S
H2283 C2267 0.960 . S
C2284 C2285 1.391 . S
C2284 C2286 1.394 . S
C2284 H2300 0.931 . S
C2285 C2284 1.391 . S
C2285 C2289 1.376 . S
C2286 C2284 1.394 . S
C2286 C2287 1.369 . S
C2286 C2290 1.531 . S
C2287 C2286 1.369 . S
C2287 C2288 1.410 . S
C2287 C2295 1.503 . S
C2288 C2287 1.410 . S
C2288 C2289 1.392 . S
C2288 C2291 1.511 . S
C2289 C2285 1.376 . S
C2289 C2288 1.392 . S
C2289 H2301 0.929 . S
C2290 C2286 1.531 . S
C2290 H2302 0.960 . S
C2290 H2303 0.962 . S
C2290 H2304 0.960 . S
C2291 C2288 1.511 . S
C2291 H2305 0.961 . S
C2291 H2306 0.961 . S
C2291 H2307 0.961 . S
C2292 C2293 1.370 . S
C2292 C2294 1.363 . S
C2292 H2308 0.931 . S
C2293 C2292 1.370 . S
C2293 C2297 1.408 . S
C2294 C2292 1.363 . S
C2294 C2295 1.370 . S
C2294 C2298 1.524 . S
C2295 C2287 1.503 . S
C2295 C2294 1.370 . S
C2295 C2296 1.403 . S
C2296 C2295 1.403 . S
C2296 C2297 1.404 . S
C2296 C2299 1.539 . S
C2297 C2293 1.408 . S
C2297 C2296 1.404 . S
C2297 H2309 0.930 . S
C2298 C2294 1.524 . S
C2298 H2310 0.956 . S
C2298 H2311 0.961 . S
C2298 H2312 0.961 . S
C2299 C2296 1.539 . S
C2299 H2313 0.958 . S
C2299 H2314 0.961 . S
C2299 H2315 0.960 . S
H2300 C2284 0.931 . S
H2301 C2289 0.929 . S
H2302 C2290 0.960 . S
H2303 C2290 0.962 . S
H2304 C2290 0.960 . S
H2305 C2291 0.961 . S
H2306 C2291 0.961 . S
H2307 C2291 0.961 . S
H2308 C2292 0.931 . S
H2309 C2297 0.930 . S
H2310 C2298 0.956 . S
H2311 C2298 0.961 . S
H2312 C2298 0.961 . S
H2313 C2299 0.958 . S
H2314 C2299 0.961 . S
H2315 C2299 0.960 . S
C2316 C2317 1.391 . S
C2316 C2318 1.394 . S
C2316 H2332 0.931 . S
C2317 C2316 1.391 . S
C2317 C2321 1.376 1_556 S
C2318 C2316 1.394 . S
C2318 C2319 1.369 . S
C2318 C2322 1.531 . S
C2319 C2318 1.369 . S
C2319 C2320 1.410 1_556 S
C2319 C2327 1.503 . S
C2320 C2319 1.410 1_554 S
C2320 C2321 1.392 . S
C2320 C2323 1.511 . S
C2321 C2317 1.376 1_554 S
C2321 C2320 1.392 . S
C2321 H2333 0.929 . S
C2322 C2318 1.531 . S
C2322 H2334 0.960 . S
C2322 H2335 0.962 . S
C2322 H2336 0.960 . S
C2323 C2320 1.511 . S
C2323 H2337 0.961 . S
C2323 H2338 0.961 . S
C2323 H2339 0.961 . S
C2324 C2325 1.370 . S
C2324 C2326 1.363 . S
C2324 H2340 0.931 . S
C2325 C2324 1.370 . S
C2325 C2329 1.408 . S
C2326 C2324 1.363 . S
C2326 C2327 1.370 . S
C2326 C2330 1.524 1_556 S
C2327 C2319 1.503 . S
C2327 C2326 1.370 . S
C2327 C2328 1.403 . S
C2328 C2327 1.403 . S
C2328 C2329 1.404 . S
C2328 C2331 1.539 . S
C2329 C2325 1.408 . S
C2329 C2328 1.404 . S
C2329 H2341 0.930 . S
C2330 C2326 1.524 1_554 S
C2330 H2342 0.956 1_554 S
C2330 H2343 0.961 . S
C2330 H2344 0.961 . S
C2331 C2328 1.539 . S
C2331 H2345 0.958 . S
C2331 H2346 0.961 . S
C2331 H2347 0.960 . S
H2332 C2316 0.931 . S
H2333 C2321 0.929 . S
H2334 C2322 0.960 . S
H2335 C2322 0.962 . S
H2336 C2322 0.960 . S
H2337 C2323 0.961 . S
H2338 C2323 0.961 . S
H2339 C2323 0.961 . S
H2340 C2324 0.931 . S
H2341 C2329 0.930 . S
H2342 C2330 0.956 1_556 S
H2343 C2330 0.961 . S
H2344 C2330 0.961 . S
H2345 C2331 0.958 . S
H2346 C2331 0.961 . S
H2347 C2331 0.960 . S
C2348 C2349 1.391 . S
C2348 C2350 1.394 . S
C2348 H2364 0.931 . S
C2349 C2348 1.391 . S
C2349 C2353 1.376 1_556 S
C2350 C2348 1.394 . S
C2350 C2351 1.369 . S
C2350 C2354 1.531 . S
C2351 C2350 1.369 . S
C2351 C2352 1.410 1_556 S
C2351 C2359 1.503 . S
C2352 C2351 1.410 1_554 S
C2352 C2353 1.392 . S
C2352 C2355 1.511 . S
C2353 C2349 1.376 1_554 S
C2353 C2352 1.392 . S
C2353 H2365 0.929 . S
C2354 C2350 1.531 . S
C2354 H2366 0.960 . S
C2354 H2367 0.962 . S
C2354 H2368 0.960 . S
C2355 C2352 1.511 . S
C2355 H2369 0.961 . S
C2355 H2370 0.961 . S
C2355 H2371 0.961 . S
C2356 C2357 1.370 . S
C2356 C2358 1.363 . S
C2356 H2372 0.931 . S
C2357 C2356 1.370 . S
C2357 C2361 1.408 . S
C2358 C2356 1.363 . S
C2358 C2359 1.370 . S
C2358 C2362 1.524 . S
C2359 C2351 1.503 . S
C2359 C2358 1.370 . S
C2359 C2360 1.403 . S
C2360 C2359 1.403 . S
C2360 C2361 1.404 . S
C2360 C2363 1.539 1_556 S
C2361 C2357 1.408 . S
C2361 C2360 1.404 . S
C2361 H2373 0.930 . S
C2362 C2358 1.524 . S
C2362 H2374 0.956 . S
C2362 H2375 0.961 . S
C2362 H2376 0.961 . S
C2363 C2360 1.539 1_554 S
C2363 H2377 0.958 1_554 S
C2363 H2378 0.961 . S
C2363 H2379 0.959 . S
H2364 C2348 0.931 . S
H2365 C2353 0.929 . S
H2366 C2354 0.960 . S
H2367 C2354 0.962 . S
H2368 C2354 0.960 . S
H2369 C2355 0.961 . S
H2370 C2355 0.961 . S
H2371 C2355 0.961 . S
H2372 C2356 0.931 . S
H2373 C2361 0.930 . S
H2374 C2362 0.956 . S
H2375 C2362 0.961 . S
H2376 C2362 0.961 . S
H2377 C2363 0.958 1_556 S
H2378 C2363 0.961 . S
H2379 C2363 0.959 . S
C2380 C2381 1.391 . S
C2380 C2382 1.394 . S
C2380 H2396 0.931 . S
C2381 C2380 1.391 . S
C2381 C2385 1.376 . S
C2382 C2380 1.394 . S
C2382 C2383 1.369 . S
C2382 C2386 1.531 . S
C2383 C2382 1.369 . S
C2383 C2384 1.410 . S
C2383 C2391 1.503 . S
C2384 C2383 1.410 . S
C2384 C2385 1.392 . S
C2384 C2387 1.511 . S
C2385 C2381 1.376 . S
C2385 C2384 1.392 . S
C2385 H2397 0.929 . S
C2386 C2382 1.531 . S
C2386 H2398 0.960 . S
C2386 H2399 0.962 . S
C2386 H2400 0.960 . S
C2387 C2384 1.511 . S
C2387 H2401 0.961 . S
C2387 H2402 0.961 . S
C2387 H2403 0.961 . S
C2388 C2389 1.370 . S
C2388 C2390 1.363 . S
C2388 H2404 0.939 . S
C2389 C2388 1.370 . S
C2389 C2393 1.408 . S
C2390 C2388 1.363 . S
C2390 C2391 1.370 . S
C2390 C2394 1.524 1_554 S
C2391 C2383 1.503 . S
C2391 C2390 1.370 . S
C2391 C2392 1.403 . S
C2392 C2391 1.403 . S
C2392 C2393 1.404 . S
C2392 C2395 1.539 . S
C2393 C2389 1.408 . S
C2393 C2392 1.404 . S
C2393 H2405 0.930 . S
C2394 C2390 1.524 1_556 S
C2394 H2406 0.956 . S
C2394 H2407 0.961 . S
C2394 H2408 0.961 . S
C2395 C2392 1.539 . S
C2395 H2409 0.958 . S
C2395 H2410 0.961 . S
C2395 H2411 0.960 . S
H2396 C2380 0.931 . S
H2397 C2385 0.929 . S
H2398 C2386 0.960 . S
H2399 C2386 0.962 . S
H2400 C2386 0.960 . S
H2401 C2387 0.961 . S
H2402 C2387 0.961 . S
H2403 C2387 0.961 . S
H2404 C2388 0.939 . S
H2405 C2393 0.930 . S
H2406 C2394 0.956 . S
H2407 C2394 0.961 . S
H2408 C2394 0.961 . S
H2409 C2395 0.958 . S
H2410 C2395 0.961 . S
H2411 C2395 0.960 . S
C877 C22 1.705 . S
C885 C723 1.666 . S
C917 N740 1.808 1_455 S
C909 C38 1.907 . S
C949 N642 1.708 . S
C941 C75 1.680 . S
C973 C91 1.356 1_655 S
C981 C667 1.334 . S
C1005 C128 1.807 . S
C1013 C862 1.828 1_554 S
C1037 C197 1.484 . S
C1045 N822 1.482 . S
C1077 N770 1.704 . S
C1069 C144 1.866 . S
C1101 C181 1.708 . S
C1109 C796 1.719 . S
C1141 C682 1.752 1_455 S
C1133 C234 1.720 . S
C1173 C727 1.922 . S
C1165 C303 1.888 . S
C1197 C356 1.819 . S
C1205 C706 1.855 1_655 S
C1229 C287 1.944 . S
C1237 C813 1.929 . S
C1269 C843 1.604 . S
C1261 C393 1.597 . S
C1301 N860 1.788 . S
C1293 C409 1.971 . S
C1325 C462 1.794 . S
C1333 N792 1.829 . S
C1365 C757 1.312 . S
C1357 C446 1.270 . S
C1389 C499 1.762 . S
C1397 C742 1.780 . S
C1421 C552 1.398 . S
C1429 N702 1.419 . S
C1461 N680 1.594 . S
C1453 C515 1.748 . S
C1485 C568 1.954 . S
C1493 C646 1.969 1_556 S
C1525 C772 1.833 . S
C1517 C340 1.801 . S
C1557 C847 1.845 . S
C1549 C621 1.845 . S
C1581 C250 1.719 1_556 S
C1589 C826 1.728 . S
C1613 C605 1.897 . S
C1621 C663 1.863 1_655 S
C1653 C637 1.370 . S
C1645 C39 1.366 . S
C1677 C29 0.731 . S
C1685 N672 0.756 . S
C1717 N710 1.206 . S
C1709 C92 1.261 . S
C1749 C753 1.675 . S
C1741 C82 1.635 . S
C1773 C145 1.603 . S
C1781 C652 1.626 . S
C1805 C188 1.404 . S
C1813 C693 1.402 . S
C1845 C697 1.120 . S
C1837 C135 1.120 . S
C1869 C198 1.548 . S
C1877 C736 1.572 . S
C1901 C251 1.032 . S
C1909 N650 1.030 . S
C1941 C712 1.655 . S
C1933 C294 1.618 . S
C1965 C347 1.057 . S
C1973 N732 1.096 . S
C1997 C304 1.536 . S
C2005 C766 1.558 . S
C2037 C787 1.390 . S
C2029 C410 1.389 . S
C2061 C400 0.774 . S
C2069 N762 0.757 . S
C2093 C453 0.932 . S
C2101 N830 0.931 . S
C2125 C463 1.905 . S
C2133 C873 1.958 . S
C2157 C516 1.614 . S
C2165 C802 1.617 . S
C2197 C783 1.752 . S
C2189 C569 1.765 . S
C2221 C506 1.021 . S
C2229 C817 1.008 . S
C2261 C856 1.357 . S
C2253 C559 1.369 . S
C2293 N800 0.950 . S
C2285 C357 0.965 . S
C2325 C832 1.622 . S
C2317 C612 1.621 . S
C2357 N852 1.045 . S
C2349 C241 1.083 . S
C2381 C622 1.480 . S
C2389 C676 1.458 . S
