# Generated by pormake.
# Topology zzz, (3,6)-cn, num edge types: 1
# Building blocks:
#     Node 0, Type 0, BuildingBlock: WUSLED_clean_sbu_0, # of connection points: 3
#     Node 1, Type 0, BuildingBlock: WUSLED_clean_sbu_0, # of connection points: 3
#     Node 2, Type 0, BuildingBlock: WUSLED_clean_sbu_0, # of connection points: 3
#     Node 3, Type 0, BuildingBlock: WUSLED_clean_sbu_0, # of connection points: 3
#     Node 4, Type 0, BuildingBlock: WUSLED_clean_sbu_0, # of connection points: 3
#     Node 5, Type 0, BuildingBlock: WUSLED_clean_sbu_0, # of connection points: 3
#     Node 6, Type 0, BuildingBlock: WUSLED_clean_sbu_0, # of connection points: 3
#     Node 7, Type 0, BuildingBlock: WUSLED_clean_sbu_0, # of connection points: 3
#     Node 8, Type 1, BuildingBlock: BETDIP_clean_sbu_0, # of connection points: 6
#     Node 9, Type 1, BuildingBlock: BETDIP_clean_sbu_0, # of connection points: 6
#     Node 10, Type 1, BuildingBlock: BETDIP_clean_sbu_0, # of connection points: 6
#     Node 11, Type 1, BuildingBlock: BETDIP_clean_sbu_0, # of connection points: 6
#     Edge 12, Type (0, 1), BuildingBlock: OJICUG_clean_linker_0, # of connection points: 2
#     Edge 13, Type (0, 1), BuildingBlock: OJICUG_clean_linker_0, # of connection points: 2
#     Edge 14, Type (0, 1), BuildingBlock: OJICUG_clean_linker_0, # of connection points: 2
#     Edge 15, Type (0, 1), BuildingBlock: OJICUG_clean_linker_0, # of connection points: 2
#     Edge 16, Type (0, 1), BuildingBlock: OJICUG_clean_linker_0, # of connection points: 2
#     Edge 17, Type (0, 1), BuildingBlock: OJICUG_clean_linker_0, # of connection points: 2
#     Edge 18, Type (0, 1), BuildingBlock: OJICUG_clean_linker_0, # of connection points: 2
#     Edge 19, Type (0, 1), BuildingBlock: OJICUG_clean_linker_0, # of connection points: 2
#     Edge 20, Type (0, 1), BuildingBlock: OJICUG_clean_linker_0, # of connection points: 2
#     Edge 21, Type (0, 1), BuildingBlock: OJICUG_clean_linker_0, # of connection points: 2
#     Edge 22, Type (0, 1), BuildingBlock: OJICUG_clean_linker_0, # of connection points: 2
#     Edge 23, Type (0, 1), BuildingBlock: OJICUG_clean_linker_0, # of connection points: 2
#     Edge 24, Type (0, 1), BuildingBlock: OJICUG_clean_linker_0, # of connection points: 2
#     Edge 25, Type (0, 1), BuildingBlock: OJICUG_clean_linker_0, # of connection points: 2
#     Edge 26, Type (0, 1), BuildingBlock: OJICUG_clean_linker_0, # of connection points: 2
#     Edge 27, Type (0, 1), BuildingBlock: OJICUG_clean_linker_0, # of connection points: 2
#     Edge 28, Type (0, 1), BuildingBlock: OJICUG_clean_linker_0, # of connection points: 2
#     Edge 29, Type (0, 1), BuildingBlock: OJICUG_clean_linker_0, # of connection points: 2
#     Edge 30, Type (0, 1), BuildingBlock: OJICUG_clean_linker_0, # of connection points: 2
#     Edge 31, Type (0, 1), BuildingBlock: OJICUG_clean_linker_0, # of connection points: 2
#     Edge 32, Type (0, 1), BuildingBlock: OJICUG_clean_linker_0, # of connection points: 2
#     Edge 33, Type (0, 1), BuildingBlock: OJICUG_clean_linker_0, # of connection points: 2
#     Edge 34, Type (0, 1), BuildingBlock: OJICUG_clean_linker_0, # of connection points: 2
#     Edge 35, Type (0, 1), BuildingBlock: OJICUG_clean_linker_0, # of connection points: 2
# Relax obj value: 0.454
# Max RMSD: 0.254
# Mean RMSD: 0.237
data_MOF--net-zzz--node1-WUSLED_clean_sbu_0--node2-BETDIP_clean_sbu_0--edge1-OJICUG_clean_linker_0
_symmetry_space_group_name_H-M    P1
_symmetry_Int_Tables_number       1
_symmetry_cell_setting            triclinic
loop_
_symmetry_equiv_pos_as_xyz
'x, y, z'
_cell_length_a     50.513435
_cell_length_b     50.438415
_cell_length_c     15.885334
_cell_angle_alpha  89.565296
_cell_angle_beta   89.563666
_cell_angle_gamma 89.794947
loop_
_atom_site_label
_atom_site_type_symbol
_atom_site_fract_x
_atom_site_fract_y
_atom_site_fract_z
_atom_type_partial_charge
C0 C 0.79582 0.52472 0.43627 0.0
C1 C 0.7999 0.50681 0.50366 0.0
C2 C 0.84705 0.51879 0.51186 0.0
C3 C 0.82512 0.50388 0.5408 0.0
C4 C 0.84278 0.53655 0.44419 0.0
C5 C 0.81772 0.53945 0.40736 0.0
U6 U 0.73184 0.50948 0.30445 0.0
O7 O 0.71283 0.5379 0.21847 0.0
O8 O 0.68925 0.51993 0.31979 0.0
C9 C 0.68902 0.53437 0.25034 0.0
C10 C 0.76889 0.53048 0.40025 0.0
C11 C 0.66736 0.52967 0.18812 0.0
C12 C 0.62036 0.53216 0.15079 0.0
C13 C 0.64064 0.53351 0.21114 0.0
C14 C 0.65295 0.52262 0.04315 0.0
C15 C 0.62627 0.52726 0.0654 0.0
C16 C 0.67312 0.52372 0.1034 0.0
C17 C 0.76542 0.44488 0.25669 0.0
C18 C 0.79946 0.42158 0.17862 0.0
C19 C 0.80964 0.44102 0.31357 0.0
C20 C 0.78335 0.4492 0.32215 0.0
C21 C 0.81836 0.42907 0.23851 0.0
C22 C 0.77311 0.42949 0.18774 0.0
C23 C 0.74192 0.46173 0.24892 0.0
O24 O 0.76766 0.53394 0.31828 0.0
O25 O 0.74821 0.51768 0.43075 0.0
O26 O 0.74636 0.48336 0.2046 0.0
O27 O 0.72832 0.4661 0.31843 0.0
H28 H 0.78356 0.49524 0.5285 0.0
H29 H 0.82741 0.48981 0.59205 0.0
H30 H 0.85871 0.54889 0.42059 0.0
H31 H 0.81536 0.55382 0.3569 0.0
H32 H 0.60013 0.53592 0.17053 0.0
H33 H 0.63549 0.53829 0.2756 0.0
H34 H 0.65834 0.51829 0.97857 0.0
H35 H 0.69336 0.5205 0.08289 0.0
H36 H 0.80541 0.41242 0.11999 0.0
H37 H 0.82364 0.44653 0.36165 0.0
H38 H 0.77777 0.46113 0.37594 0.0
H39 H 0.7595 0.4261 0.13656 0.0
C40 C 0.98674 0.81062 0.41529 0.0
C41 C 1.00413 0.81367 0.48348 0.0
C42 C 0.99453 0.86134 0.49048 0.0
C43 C 1.00804 0.83864 0.52023 0.0
C44 C 0.97723 0.85819 0.42206 0.0
C45 C 0.97339 0.83328 0.38529 0.0
U46 U 1.00613 0.75042 0.27772 0.0
O47 O 0.98127 0.72966 0.18664 0.0
O48 O 0.99939 0.70708 0.2897 0.0
C49 C 0.98573 0.70608 0.21952 0.0
C50 C 0.98126 0.78409 0.37736 0.0
C51 C 0.99178 0.68419 0.15926 0.0
C52 C 0.9907 0.6368 0.12682 0.0
C53 C 0.98872 0.65762 0.18507 0.0
C54 C 0.9995 0.66859 0.01569 0.0
C55 C 0.99552 0.64202 0.0408 0.0
C56 C 0.99769 0.68935 0.07394 0.0
C57 C 0.06586 0.79219 0.25211 0.0
C58 C 0.08652 0.83219 0.19845 0.0
C59 C 0.06469 0.83259 0.33475 0.0
C60 C 0.05885 0.80569 0.32613 0.0
C61 C 0.07747 0.84648 0.26912 0.0
C62 C 0.08072 0.8053 0.19006 0.0
C63 C 0.05309 0.7669 0.23201 0.0
O64 O 0.97822 0.78369 0.29527 0.0
O65 O 0.9948 0.76355 0.40549 0.0
O66 O 0.0321 0.7697 0.18435 0.0
O67 O 0.04934 0.75045 0.29564 0.0
H68 H 0.01473 0.79674 0.50882 0.0
H69 H 0.0218 0.84013 0.57186 0.0
H70 H 0.96602 0.87489 0.39791 0.0
H71 H 0.95957 0.8317 0.33377 0.0
H72 H 0.98737 0.6167 0.14873 0.0
H73 H 0.98392 0.65298 0.25009 0.0
H74 H 1.00374 0.67344 0.95046 0.0
H75 H 1.00023 0.70952 0.05148 0.0
H76 H 0.09607 0.84218 0.14591 0.0
H77 H 0.05773 0.84285 0.39039 0.0
H78 H 0.04727 0.79592 0.37476 0.0
H79 H 0.08602 0.79532 0.13213 0.0
C80 C 0.72284 1.00377 0.48904 0.0
C81 C 0.71701 0.01964 0.55933 0.0
C82 C 0.66957 1.00924 0.5512 0.0
C83 C 0.69087 0.02239 0.58978 0.0
C84 C 0.6755 0.99352 0.4802 0.0
C85 C 0.70161 0.99087 0.44965 0.0
U86 U 0.77682 1.0092 0.31685 0.0
O87 O 0.80856 0.98155 0.27861 0.0
O88 O 0.81876 0.02172 0.31782 0.0
C89 C 0.82742 0.99927 0.28591 0.0
C90 C 0.751 1.00036 0.45942 0.0
C91 C 0.84683 1.00115 0.21472 0.0
C92 C 0.89268 0.99801 0.16454 0.0
C93 C 0.87392 0.99737 0.23045 0.0
C94 C 0.85764 1.00644 0.06512 0.0
C95 C 0.88492 1.00243 0.08046 0.0
C96 C 0.83887 1.00581 0.13128 0.0
C97 C 0.71707 0.03377 0.21111 0.0
C98 C 0.67283 0.02895 0.15649 0.0
C99 C 0.67884 0.04182 0.30185 0.0
C100 C 0.70625 0.0408 0.28987 0.0
C101 C 0.66192 0.03539 0.23563 0.0
C102 C 0.70018 0.02813 0.14439 0.0
C103 C 0.74553 0.02852 0.20224 0.0
O104 O 0.75557 0.98195 0.40285 0.0
O105 O 0.76454 0.02214 0.44438 0.0
O106 O 0.76102 0.04361 0.24754 0.0
O107 O 0.75172 1.00321 0.2063 0.0
H108 H 0.73279 0.0299 0.59123 0.0
H109 H 0.68742 0.03506 0.64344 0.0
H110 H 0.66003 0.98271 0.44872 0.0
H111 H 0.70513 0.97849 0.39526 0.0
H112 H 0.91326 0.99444 0.17958 0.0
H113 H 0.88063 0.9936 0.29406 0.0
H114 H 0.85072 1.01032 1.00187 0.0
H115 H 0.81813 1.00883 0.11719 0.0
H116 H 0.66015 0.02451 0.10377 0.0
H117 H 0.6709 0.04692 0.3632 0.0
H118 H 0.71898 0.04475 0.34286 0.0
H119 H 0.70814 0.02236 0.08368 0.0
C120 C 0.51307 0.73356 0.51665 0.0
C121 C 0.49762 0.71518 0.47247 0.0
C122 C 0.51044 0.67916 0.56907 0.0
C123 C 0.49648 0.68837 0.4979 0.0
C124 C 0.52562 0.69771 0.61364 0.0
C125 C 0.527 0.72444 0.58758 0.0
U126 U 0.51687 0.78846 0.34619 0.0
O127 O 0.54027 0.82527 0.33619 0.0
O128 O 0.49698 0.82747 0.33668 0.0
C129 C 0.51929 0.84039 0.32454 0.0
C130 C 0.51474 0.76216 0.49065 0.0
C131 C 0.52008 0.85989 0.25251 0.0
C132 C 0.54408 0.88329 0.13985 0.0
C133 C 0.54331 0.86414 0.2047 0.0
C134 C 0.49852 0.89478 0.16885 0.0
C135 C 0.52168 0.89894 0.12041 0.0
C136 C 0.49778 0.87566 0.23387 0.0
C137 C 0.51254 0.7283 0.21534 0.0
C138 C 0.48846 0.69004 0.16712 0.0
C139 C 0.5183 0.68561 0.28523 0.0
C140 C 0.52457 0.71247 0.27763 0.0
C141 C 0.4997 0.67431 0.23127 0.0
C142 C 0.49478 0.71681 0.15941 0.0
C143 C 0.51521 0.75722 0.2165 0.0
O144 O 0.53705 0.7698 0.45495 0.0
O145 O 0.49384 0.77247 0.45366 0.0
O146 O 0.53757 0.76629 0.2467 0.0
O147 O 0.49417 0.76953 0.24596 0.0
H148 H 0.48647 0.7215 0.41788 0.0
H149 H 0.48436 0.6749 0.46217 0.0
H150 H 0.53688 0.6915 0.66812 0.0
H151 H 0.53903 0.73805 0.62311 0.0
H152 H 0.56251 0.88604 0.10571 0.0
H153 H 0.56109 0.85281 0.21767 0.0
H154 H 0.4807 0.90604 0.15593 0.0
H155 H 0.47964 0.87327 0.26988 0.0
H156 H 0.47467 0.68168 0.12278 0.0
H157 H 0.52736 0.67394 0.33484 0.0
H158 H 0.53802 0.72105 0.32261 0.0
H159 H 0.48517 0.72874 0.11147 0.0
C160 C 0.21738 0.51104 0.99742 0.0
C161 C 0.19492 0.51647 0.04755 0.0
C162 C 0.16586 0.51577 0.92393 0.0
C163 C 0.16964 0.51893 0.01137 0.0
C164 C 0.18853 0.51108 0.87377 0.0
C165 C 0.21382 0.50872 0.90999 0.0
U166 U 0.27932 0.52373 0.14098 0.0
O167 O 0.3223 0.51638 0.12084 0.0
O168 O 0.3002 0.49321 0.21458 0.0
C169 C 0.32365 0.49944 0.18413 0.0
C170 C 0.24394 0.50495 0.03483 0.0
C171 C 0.34504 0.50338 0.24759 0.0
C172 C 0.39205 0.50196 0.28491 0.0
C173 C 0.37188 0.50098 0.22415 0.0
C174 C 0.35903 0.50829 0.39376 0.0
C175 C 0.38587 0.50503 0.371 0.0
C176 C 0.33897 0.50756 0.33315 0.0
C177 C 0.24446 0.5857 0.2185 0.0
C178 C 0.21973 0.6195 0.29313 0.0
C179 C 0.19718 0.5897 0.19877 0.0
C180 C 0.22131 0.5779 0.17788 0.0
C181 C 0.19591 0.60967 0.26033 0.0
C182 C 0.24384 0.60737 0.27298 0.0
C183 C 0.26777 0.56846 0.21617 0.0
O184 O 0.26416 0.51967 0.01097 0.0
O185 O 0.24463 0.49874 0.11535 0.0
O186 O 0.26376 0.54501 0.25035 0.0
O187 O 0.28073 0.56742 0.14421 0.0
H188 H 0.19673 0.51828 0.11514 0.0
H189 H 0.15297 0.52307 0.05249 0.0
H190 H 0.18671 0.50821 0.80661 0.0
H191 H 0.23059 0.50421 0.86958 0.0
H192 H 0.41241 0.49934 0.26475 0.0
H193 H 0.37724 0.49767 0.1589 0.0
H194 H 0.35344 0.51123 0.45899 0.0
H195 H 0.3186 0.50972 0.35382 0.0
H196 H 0.21956 0.63526 0.33906 0.0
H197 H 0.1794 0.58135 0.17234 0.0
H198 H 0.22159 0.56122 0.13537 0.0
H199 H 0.26168 0.61369 0.30442 0.0
C200 C 1.00333 0.22007 0.03291 0.0
C201 C 0.02784 0.20784 0.01565 0.0
C202 C 1.00576 0.16868 0.95971 0.0
C203 C 0.02905 0.18227 0.98088 0.0
C204 C 0.98127 0.18108 0.97597 0.0
C205 C 0.98009 0.20631 0.01278 0.0
U206 U 0.02295 0.27663 0.18665 0.0
O207 O 0.99582 0.30395 0.25185 0.0
O208 O 0.02626 0.32007 0.16705 0.0
C209 C 1.00757 0.32537 0.22266 0.0
C210 C 1.00124 0.24736 0.06844 0.0
C211 C 1.01285 0.34673 0.28474 0.0
C212 C 0.01518 0.39406 0.31594 0.0
C213 C 1.01292 0.37333 0.25785 0.0
C214 C 0.0178 0.36202 0.42944 0.0
C215 C 0.01731 0.38881 0.40295 0.0
C216 C 0.01563 0.34129 0.37122 0.0
C217 C 0.06952 0.22522 0.27104 0.0
C218 C 0.06986 0.18239 0.34113 0.0
C219 C 0.07307 0.18483 0.18906 0.0
C220 C 0.07318 0.2125 0.19339 0.0
C221 C 0.06995 0.16957 0.26271 0.0
C222 C 0.0695 0.21001 0.34517 0.0
C223 C 0.05987 0.25279 0.27426 0.0
O224 O 0.99166 0.24919 0.14532 0.0
O225 O 0.02107 0.26368 0.05435 0.0
O226 O 0.06516 0.26789 0.20839 0.0
O227 O 0.03518 0.25484 0.30012 0.0
H228 H 0.04608 0.21819 0.02748 0.0
H229 H 0.04823 0.17343 0.96827 0.0
H230 H 0.96297 0.17115 0.96063 0.0
H231 H 0.9609 0.21526 0.02456 0.0
H232 H 0.01516 0.41426 0.29239 0.0
H233 H 1.01071 0.37814 0.19168 0.0
H234 H 0.01905 0.35696 0.49564 0.0
H235 H 0.01551 0.32102 0.39422 0.0
H236 H 0.06729 0.17119 0.39907 0.0
H237 H 0.07348 0.17544 0.12795 0.0
H238 H 0.07409 0.22392 0.13563 0.0
H239 H 0.06677 0.21941 0.40576 0.0
C240 C 0.29122 0.02044 0.97061 0.0
C241 C 0.3098 0.03972 0.99454 0.0
C242 C 0.34529 0.01757 0.91474 0.0
C243 C 0.33638 0.03823 0.9674 0.0
C244 C 0.32658 0.99845 0.89033 0.0
C245 C 0.30004 0.99985 0.91795 0.0
U246 U 0.23846 0.02369 0.14736 0.0
O247 O 0.20044 1.00267 0.16441 0.0
O248 O 0.20096 0.04606 0.16028 0.0
C249 C 0.18674 0.02465 0.1749 0.0
C250 C 0.26283 0.02137 0.99975 0.0
C251 C 0.16728 0.02521 0.24703 0.0
C252 C 0.14232 0.04914 0.35583 0.0
C253 C 0.16197 0.04856 0.29244 0.0
C254 C 0.13257 1.00311 0.33027 0.0
C255 C 0.1272 0.02643 0.37596 0.0
C256 C 0.15216 1.00256 0.26683 0.0
C257 C 0.30085 0.02284 0.26521 0.0
C258 C 0.34438 0.03023 0.32273 0.0
C259 C 0.34008 1.01197 0.1828 0.0
C260 C 0.31263 1.0131 0.19131 0.0
C261 C 0.35634 0.02013 0.24892 0.0
C262 C 0.31683 0.03172 0.33051 0.0
C263 C 0.27193 0.02431 0.27149 0.0
O264 O 0.25397 1.00031 0.04017 0.0
O265 O 0.25437 0.04361 0.03359 0.0
O266 O 0.26158 0.04608 0.23961 0.0
O267 O 0.2597 1.00266 0.24794 0.0
H268 H 0.3039 0.05589 0.03511 0.0
H269 H 0.34991 0.05353 0.98715 0.0
H270 H 0.33251 0.98206 0.85074 0.0
H271 H 0.28634 0.98468 0.8982 0.0
H272 H 0.13866 0.06766 0.38793 0.0
H273 H 0.17275 0.06659 0.27837 0.0
H274 H 0.1218 0.98504 0.34386 0.0
H275 H 0.15532 0.98431 0.23256 0.0
H276 H 0.35622 0.03611 0.3759 0.0
H277 H 0.3485 1.00428 0.125 0.0
H278 H 0.30052 1.00604 0.14042 0.0
H279 H 0.30804 0.03938 0.38784 0.0
C280 C 0.50649 0.30199 1.00323 0.0
C281 C 0.51132 0.32432 0.05344 0.0
C282 C 0.51111 0.35388 0.92943 0.0
C283 C 0.51379 0.34976 0.01712 0.0
C284 C 0.5069 0.33133 0.87929 0.0
C285 C 0.50464 0.30587 0.91564 0.0
U286 U 0.51863 0.24002 0.1509 0.0
O287 O 0.51296 0.19688 0.13052 0.0
O288 O 0.48762 0.21819 0.21969 0.0
C289 C 0.495 0.19495 0.19074 0.0
C290 C 0.50063 0.27519 0.04045 0.0
C291 C 0.49832 0.1733 0.25503 0.0
C292 C 0.49832 0.12597 0.29174 0.0
C293 C 0.49798 0.14649 0.23094 0.0
C294 C 0.49984 0.1586 0.40207 0.0
C295 C 0.49864 0.13176 0.37842 0.0
C296 C 0.49976 0.17902 0.34151 0.0
C297 C 0.5782 0.27608 0.23778 0.0
C298 C 0.611 0.30088 0.31463 0.0
C299 C 0.58182 0.32351 0.21702 0.0
C300 C 0.57049 0.29932 0.19591 0.0
C301 C 0.6013 0.32476 0.27996 0.0
C302 C 0.5993 0.27672 0.2943 0.0
C303 C 0.56158 0.25245 0.23333 0.0
O304 O 0.51635 0.25538 0.01984 0.0
O305 O 0.4931 0.27422 0.11986 0.0
O306 O 0.53752 0.25598 0.2632 0.0
O307 O 0.56214 0.23954 0.16178 0.0
H308 H 0.51265 0.32227 0.12118 0.0
H309 H 0.51757 0.36628 0.05836 0.0
H310 H 0.50435 0.33336 0.81197 0.0
H311 H 0.50058 0.2892 0.87517 0.0
H312 H 0.49736 0.1056 0.27091 0.0
H313 H 0.49679 0.14138 0.16496 0.0
H314 H 0.50067 0.16393 0.46791 0.0
H315 H 0.50025 0.19935 0.36284 0.0
H316 H 0.62641 0.30101 0.36164 0.0
H317 H 0.57358 0.34133 0.18911 0.0
H318 H 0.5543 0.299 0.15169 0.0
H319 H 0.60558 0.25882 0.3267 0.0
Tb320 Tb 0.02312 1.0057 0.78693 0.0
Tb321 Tb 0.98755 0.02428 0.66513 0.0
C322 C 0.04786 0.98098 0.9004 0.0
C323 C 0.04927 0.97533 0.99155 0.0
C324 C 0.02928 0.96073 0.03233 0.0
C325 C 0.03445 0.94774 0.10833 0.0
C326 C 0.0597 0.94916 0.14521 0.0
C327 C 0.07829 0.96691 0.11028 0.0
C328 C 0.0732 0.97965 0.03354 0.0
C329 C 0.04842 0.02496 0.64988 0.0
C330 C 1.0028 0.9655 0.64949 0.0
C331 C 0.96694 0.04892 0.54354 0.0
C332 C 0.97844 0.05565 0.46115 0.0
C333 C 1.00189 0.04309 0.43487 0.0
C334 C 0.01795 0.05479 0.37311 0.0
C335 C 1.01065 0.07918 0.33673 0.0
C336 C 0.98562 0.09002 0.35641 0.0
C337 C 0.96971 0.0784 0.41868 0.0
C338 C 0.96172 1.00528 0.80085 0.0
C339 C 1.0084 0.06433 0.80224 0.0
O340 O 0.05465 1.00448 0.87325 0.0
O341 O 0.02779 0.97136 0.85942 0.0
O342 O 0.02776 1.01109 0.65168 0.0
O343 O 0.05587 0.02759 0.72665 0.0
O344 O 1.0098 0.9682 0.72894 0.0
O345 O 0.99782 0.98696 0.60467 0.0
O346 O 0.96277 0.02384 0.55911 0.0
O347 O 0.97874 0.06044 0.60599 0.0
O348 O 0.98273 0.01872 0.80046 0.0
O349 O 0.95395 1.00363 0.72391 0.0
O350 O 1.00193 0.06144 0.72227 0.0
O351 O 1.01323 0.04301 0.84815 0.0
H352 H 1.01047 0.95728 1.00205 0.0
H353 H 0.01949 0.93438 0.13278 0.0
H354 H 0.09763 0.96915 0.13824 0.0
H355 H 0.08886 0.99105 1.00371 0.0
H356 H 1.00885 0.02549 0.46724 0.0
H357 H 0.037 0.04591 0.35875 0.0
H358 H 0.9795 0.10894 0.33023 0.0
H359 H 0.95179 0.08847 0.43872 0.0
Tb360 Tb 0.51309 0.03313 0.79824 0.0
Tb361 Tb 0.50379 0.99338 0.68765 0.0
C362 C 0.52871 0.06442 0.91071 0.0
C363 C 0.53287 0.06321 1.00159 0.0
C364 C 0.52704 0.0401 0.04752 0.0
C365 C 0.53873 0.0358 0.12594 0.0
C366 C 0.55703 0.05421 0.15739 0.0
C367 C 0.55925 0.07907 0.11675 0.0
C368 C 0.54734 0.08343 0.03906 0.0
C369 C 0.49568 0.05315 0.65098 0.0
C370 C 0.56017 1.01429 0.68154 0.0
C371 C 0.48811 0.96301 0.57311 0.0
C372 C 0.48261 0.96758 0.48401 0.0
C373 C 0.49066 0.99125 0.44477 0.0
C374 C 0.47837 0.99982 0.37093 0.0
C375 C 0.4575 0.98503 0.33691 0.0
C376 C 0.45229 0.95958 0.37037 0.0
C377 C 0.46471 0.951 0.44372 0.0
C378 C 0.52122 0.97357 0.83513 0.0
C379 C 0.45637 1.01304 0.80057 0.0
O380 O 0.50437 0.06331 0.88492 0.0
O381 O 0.54433 0.04915 0.86676 0.0
O382 O 0.51196 0.03444 0.66065 0.0
O383 O 0.48918 0.06113 0.72488 0.0
O384 O 0.55396 0.02143 0.75922 0.0
O385 O 0.54075 1.00736 0.63186 0.0
O386 O 0.51273 0.96483 0.59584 0.0
O387 O 0.47234 0.97579 0.62401 0.0
O388 O 0.50483 0.99218 0.82523 0.0
O389 O 0.52774 0.96542 0.76137 0.0
O390 O 0.46304 1.00585 0.72338 0.0
O391 O 0.47552 0.01974 0.85183 0.0
H392 H 0.51549 0.02445 0.01957 0.0
H393 H 0.53583 0.01683 0.15698 0.0
H394 H 0.57289 0.09396 0.13868 0.0
H395 H 0.55171 0.10154 1.00456 0.0
H396 H 0.50467 1.0042 0.47515 0.0
H397 H 0.48334 0.01918 0.34557 0.0
H398 H 0.43639 0.94752 0.34637 0.0
H399 H 0.45838 0.93263 0.4733 0.0
Tb400 Tb 0.48707 0.51901 0.78398 0.0
Tb401 Tb 0.52436 0.50848 0.65663 0.0
C402 C 0.45989 0.53432 0.90828 0.0
C403 C 0.467 0.54278 0.99287 0.0
C404 C 0.49293 0.55089 1.00898 0.0
C405 C 0.49855 0.56448 0.08254 0.0
C406 C 0.47829 0.57008 0.14133 0.0
C407 C 0.45324 0.55846 0.13004 0.0
C408 C 0.44753 0.54519 0.05548 0.0
C409 C 0.46409 0.50332 0.64109 0.0
C410 C 0.50747 0.56697 0.67308 0.0
C411 C 0.54994 0.49252 0.52974 0.0
C412 C 0.56541 0.46925 0.50428 0.0
C413 C 0.55986 0.44415 0.53807 0.0
C414 C 0.57292 0.42182 0.50721 0.0
C415 C 0.59193 0.4242 0.44222 0.0
C416 C 0.59836 0.44962 0.41153 0.0
C417 C 0.58513 0.47197 0.44232 0.0
C418 C 0.54752 0.5259 0.79654 0.0
C419 C 0.50912 0.4617 0.78409 0.0
O420 O 0.46442 0.50953 0.89151 0.0
O421 O 0.46793 0.54993 0.84747 0.0
O422 O 0.48328 0.51898 0.64796 0.0
O423 O 0.45698 0.49662 0.7161 0.0
O424 O 0.50084 0.55953 0.75058 0.0
O425 O 0.51344 0.5486 0.61745 0.0
O426 O 0.52454 0.48886 0.54098 0.0
O427 O 0.56016 0.50707 0.58858 0.0
O428 O 0.52843 0.50984 0.79289 0.0
O429 O 0.5543 0.53211 0.72032 0.0
O430 O 0.51721 0.46759 0.70655 0.0
O431 O 0.50071 0.48099 0.83292 0.0
H432 H 0.50833 0.54863 0.96163 0.0
H433 H 0.51812 0.57292 0.08826 0.0
H434 H 0.43742 0.5616 0.17531 0.0
H435 H 0.42755 0.53835 0.04456 0.0
H436 H 0.54473 0.44166 0.58602 0.0
H437 H 0.56704 0.40258 0.5314 0.0
H438 H 0.61306 0.45218 0.36221 0.0
H439 H 0.58978 0.49131 0.41603 0.0
Tb440 Tb 0.99881 0.49884 0.79068 0.0
Tb441 Tb 1.01302 0.53213 0.6506 0.0
C442 C 0.98186 0.4775 0.92417 0.0
C443 C 0.95804 0.46752 0.96709 0.0
C444 C 0.93522 0.48323 0.97524 0.0
C445 C 0.91421 0.47457 0.02559 0.0
C446 C 0.91561 0.45006 0.0681 0.0
C447 C 0.93796 0.43386 0.057 0.0
C448 C 0.95912 0.44264 1.0072 0.0
C449 C 0.0162 0.47198 0.65758 0.0
C450 C 0.95376 0.51502 0.65966 0.0
C451 C 0.03139 0.5534 0.519 0.0
C452 C 0.05399 0.56976 0.49295 0.0
C453 C 0.07931 0.56515 0.52544 0.0
C454 C 0.10095 0.57921 0.49375 0.0
C455 C 0.09765 0.5983 0.4294 0.0
C456 C 0.07198 0.60382 0.40035 0.0
C457 C 0.05034 0.58959 0.4318 0.0
C458 C 0.99655 0.55936 0.78434 0.0
C459 C 0.05852 0.51523 0.78102 0.0
O460 O 0.98377 0.50315 0.91279 0.0
O461 O 0.99046 0.4641 0.85949 0.0
O462 O 1.00079 0.49173 0.657 0.0
O463 O 0.0222 0.46671 0.7349 0.0
O464 O 0.9588 0.50828 0.73907 0.0
O465 O 0.97359 0.52117 0.60864 0.0
O466 O 0.03652 0.52894 0.54206 0.0
O467 O 0.01401 0.5648 0.56812 0.0
O468 O 1.01147 0.53925 0.78434 0.0
O469 O 0.99098 0.56502 0.70702 0.0
O470 O 0.053 0.52484 0.70497 0.0
O471 O 0.03929 0.50628 0.83 0.0
H472 H 0.93387 0.50244 0.94456 0.0
H473 H 0.8969 0.48717 0.03199 0.0
H474 H 0.93942 0.41488 0.08906 0.0
H475 H 0.97666 0.43032 1.00189 0.0
H476 H 0.08254 0.55003 0.57304 0.0
H477 H 0.12044 0.57403 0.51673 0.0
H478 H 0.06871 0.61859 0.35163 0.0
H479 H 0.03083 0.59356 0.40664 0.0
C480 C 0.10944 0.04236 0.51742 0.0
C481 C 0.1062 0.02696 0.44444 0.0
H482 H 0.09392 0.05389 0.63813 0.0
C483 C 0.08291 1.01166 0.43871 0.0
H484 H 0.12709 0.05414 0.52558 0.0
C485 C 0.06392 1.01139 0.50412 0.0
C486 C 0.06745 0.02655 0.57716 0.0
H487 H 0.07926 0.99979 0.38354 0.0
H488 H 0.04675 0.99877 0.49818 0.0
C489 C 0.09041 0.04212 0.58259 0.0
C490 C 0.48065 0.11392 0.51623 0.0
C491 C 0.49679 0.11028 0.44457 0.0
H492 H 0.4673 0.09875 0.63542 0.0
C493 C 0.51129 0.08638 0.43841 0.0
H494 H 0.46874 0.1317 0.52274 0.0
C495 C 0.51048 0.06729 0.50386 0.0
C496 C 0.49491 0.07151 0.57655 0.0
H497 H 0.52396 0.08282 0.38434 0.0
H498 H 0.52261 0.04964 0.49859 0.0
C499 C 0.47967 0.09486 0.58084 0.0
C500 C 0.4022 0.48988 0.51339 0.0
C501 C 0.40691 0.50381 0.43763 0.0
H502 H 0.41647 0.47847 0.63504 0.0
C503 C 0.43158 0.51656 0.42737 0.0
H504 H 0.38377 0.47935 0.52329 0.0
C505 C 0.45053 0.51606 0.49226 0.0
C506 C 0.44537 0.50259 0.56859 0.0
H507 H 0.43597 0.52752 0.37009 0.0
H508 H 0.46899 0.52659 0.48323 0.0
C509 C 0.42111 0.48921 0.57751 0.0
C510 C 0.03336 0.40861 0.53989 0.0
C511 C 0.01831 0.41102 0.46583 0.0
H512 H 0.04468 0.42587 0.65732 0.0
C513 C 1.00366 0.43462 0.45373 0.0
H514 H 0.04533 0.39112 0.55128 0.0
C515 C 1.0036 0.45479 0.51444 0.0
C516 C 0.01807 0.4519 0.58923 0.0
H517 H 0.99153 0.43728 0.3984 0.0
H518 H 0.99163 0.47234 0.50377 0.0
C519 C 0.03319 0.4287 0.60063 0.0
C520 C 0.93083 1.01276 0.0205 0.0
C521 C 0.90507 1.00257 1.00946 0.0
H522 H 0.96881 0.02151 0.96455 0.0
C523 C 0.89881 0.99238 0.92964 0.0
H524 H 0.93655 0.02106 0.0803 0.0
C525 C 0.91737 0.99275 0.86319 0.0
C526 C 0.94287 1.00332 0.874 0.0
H527 H 0.87953 0.98385 0.91835 0.0
H528 H 0.9116 0.98492 0.80276 0.0
C529 C 0.94943 1.01312 0.95386 0.0
C530 C 0.53733 0.91412 0.97556 0.0
C531 C 0.52237 0.919 0.04917 0.0
H532 H 0.5489 0.92738 0.85213 0.0
C533 C 0.50784 0.94298 0.05286 0.0
H534 H 0.5485 0.8959 0.96887 0.0
C535 C 0.5079 0.96108 0.98475 0.0
C536 C 0.52253 0.9558 0.91098 0.0
H537 H 0.49636 0.94786 0.1085 0.0
H538 H 0.49611 0.979 0.98933 0.0
C539 C 0.53745 0.93221 0.90792 0.0
C540 C 0.58013 0.51608 0.01189 0.0
C541 C 0.60514 0.52788 0.99887 0.0
H542 H 0.54236 0.506 0.95864 0.0
C543 C 0.61011 0.54017 0.92044 0.0
H544 H 0.57552 0.5064 0.07125 0.0
C545 C 0.59108 0.54016 0.85655 0.0
C546 C 0.56646 0.52764 0.86837 0.0
H547 H 0.62882 0.54993 0.90824 0.0
H548 H 0.59592 0.54961 0.79697 0.0
C549 C 0.5611 0.51582 0.94727 0.0
C550 C 0.98316 0.62421 0.89816 0.0
C551 C 0.99527 0.62016 0.9768 0.0
H552 H 0.97371 0.6083 0.77742 0.0
C553 C 1.00687 0.59516 0.99311 0.0
H554 H 0.97353 0.64289 0.88356 0.0
C555 C 1.00693 0.57514 0.93167 0.0
C556 C 0.99518 0.57952 0.85268 0.0
H557 H 0.01645 0.59126 0.05269 0.0
H558 H 0.0165 0.55637 0.94555 0.0
C559 C 0.98305 0.60422 0.83731 0.0
C560 C 0.07003 0.12298 0.31761 0.0
C561 C 0.06093 0.14171 0.25868 0.0
H562 H 0.06122 0.08776 0.38748 0.0
C563 C 0.0387 0.13562 0.20975 0.0
H564 H 0.08728 0.12709 0.35543 0.0
C565 C 0.02367 0.11308 0.2281 0.0
C566 C 0.03076 0.09629 0.29522 0.0
H567 H 0.03121 0.14967 0.16375 0.0
H568 H 1.00521 0.11018 0.19517 0.0
C569 C 0.05512 0.10036 0.33552 0.0
C570 C 0.39546 0.99161 0.2118 0.0
C571 C 0.38536 0.01533 0.24566 0.0
H572 H 0.42758 0.96389 0.2099 0.0
C573 C 0.40271 0.03232 0.28763 0.0
H574 H 0.38286 0.97813 0.17785 0.0
C575 C 0.4282 0.02383 0.30762 0.0
C576 C 0.43685 0.99824 0.28521 0.0
H577 H 0.39589 0.05124 0.31141 0.0
H578 H 0.43976 0.03619 0.34879 0.0
C579 C 0.42114 0.98331 0.2306 0.0
C580 C 0.60651 0.37431 0.27219 0.0
C581 C 0.60733 0.35066 0.31961 0.0
H582 H 0.60064 0.41624 0.27375 0.0
C583 C 0.60897 0.35232 0.40783 0.0
H584 H 0.606 0.37384 0.20408 0.0
C585 C 0.60667 0.37674 0.44779 0.0
C586 C 0.60225 0.39997 0.4006 0.0
H587 H 0.60966 0.33467 0.44693 0.0
H588 H 0.60641 0.37715 0.51596 0.0
C589 C 0.60377 0.39872 0.31228 0.0
C590 C 0.1464 0.61456 0.25594 0.0
C591 C 0.1701 0.61579 0.30159 0.0
H592 H 0.10476 0.60766 0.26057 0.0
C593 C 0.16863 0.61749 0.38993 0.0
H594 H 0.14673 0.614 0.1878 0.0
C595 C 0.14443 0.6146 0.43171 0.0
C596 C 0.12128 0.60956 0.38624 0.0
H597 H 0.18633 0.61852 0.4277 0.0
H598 H 0.14421 0.61428 0.49991 0.0
C599 C 0.12223 0.61123 0.29784 0.0
C600 C 0.09738 0.88984 0.2238 0.0
C601 C 0.07708 0.87598 0.26583 0.0
H602 H 0.10791 0.92412 0.15256 0.0
C603 C 0.05397 0.88991 0.289 0.0
H604 H 0.11579 0.88 0.20756 0.0
C605 C 0.04967 0.91573 0.25944 0.0
C606 C 0.06815 0.92786 0.20495 0.0
H607 H 0.03797 0.88009 0.32244 0.0
H608 H 0.03077 0.92509 0.27252 0.0
C609 C 0.09292 0.91546 0.19319 0.0
C610 C 0.62027 0.05916 0.27652 0.0
C611 C 0.63286 0.03625 0.24619 0.0
H612 H 0.58474 0.08242 0.27672 0.0
C613 C 0.61748 0.01595 0.21229 0.0
H614 H 0.63166 0.07489 0.30472 0.0
C615 C 0.59082 0.02028 0.19548 0.0
C616 C 0.57915 0.04514 0.21197 0.0
H617 H 0.62666 0.99771 0.19102 0.0
H618 H 0.58062 1.00535 0.15961 0.0
C619 C 0.59342 0.06347 0.26021 0.0
C620 C 0.51233 0.62645 0.24673 0.0
C621 C 0.49261 0.64594 0.23813 0.0
H622 H 0.52279 0.5858 0.22781 0.0
C623 C 0.46644 0.63806 0.22368 0.0
H624 H 0.5326 0.63186 0.25989 0.0
C625 C 0.46091 0.61188 0.20363 0.0
C626 C 0.48149 0.59306 0.19831 0.0
H627 H 0.45062 0.65259 0.22026 0.0
H628 H 0.44109 0.6074 0.18273 0.0
C629 C 0.50671 0.60006 0.22788 0.0
C630 C 0.86028 0.45458 0.22671 0.0
C631 C 0.84658 0.43079 0.21273 0.0
H632 H 0.89297 0.47916 0.19168 0.0
C633 C 0.85814 0.41157 0.16012 0.0
H634 H 0.85195 0.47002 0.26595 0.0
C635 C 0.88167 0.4171 0.11649 0.0
C636 C 0.8938 0.44193 0.12477 0.0
H637 H 0.84819 0.39297 0.14877 0.0
H638 H 0.88938 0.40269 0.07231 0.0
C639 C 0.88361 0.46008 0.18307 0.0
C640 C 0.02157 0.12104 0.95459 0.0
C641 C 1.00691 0.14202 0.91886 0.0
H642 H 0.03319 0.08008 0.94689 0.0
C643 C 0.99316 0.13729 0.84374 0.0
H644 H 0.0323 0.12398 0.01253 0.0
C645 C 0.99414 0.11233 0.80508 0.0
C646 C 1.00838 0.09119 0.84153 0.0
H647 H 0.98181 0.15305 0.81436 0.0
H648 H 0.98329 0.10948 0.7473 0.0
C649 C 0.02201 0.09586 0.91701 0.0
C650 C 0.39474 0.02285 0.93947 0.0
C651 C 0.37383 0.01599 0.88554 0.0
H652 H 0.43665 0.02716 0.95583 0.0
C653 C 0.38055 1.00773 0.80335 0.0
H654 H 0.39063 0.02888 1.00356 0.0
C655 C 0.40715 1.00664 0.77589 0.0
C656 C 0.42796 1.01367 0.82975 0.0
H657 H 0.36519 1.00252 0.75935 0.0
H658 H 0.41136 1.00041 0.71207 0.0
C659 C 0.4213 0.02168 0.91211 0.0
C660 C 0.50104 0.40321 0.93655 0.0
C661 C 0.51141 0.38154 0.89138 0.0
H662 H 0.49223 0.4447 0.93905 0.0
C663 C 0.5213 0.38665 0.8093 0.0
H664 H 0.49266 0.40039 0.99887 0.0
C665 C 0.52074 0.41245 0.77398 0.0
C666 C 0.51032 0.43398 0.81965 0.0
H667 H 0.52973 0.37076 0.77225 0.0
H668 H 0.52849 0.41549 0.71096 0.0
C669 C 0.50058 0.42885 0.90156 0.0
C670 C 0.11668 0.50563 0.93138 0.0
C671 C 0.13839 0.51614 0.88621 0.0
H672 H 0.07526 0.49699 0.93444 0.0
C673 C 0.13351 0.52632 0.80457 0.0
H674 H 0.11938 0.49706 0.99342 0.0
C675 C 0.10783 0.52608 0.76984 0.0
C676 C 0.08622 0.51558 0.81554 0.0
H677 H 0.14948 0.53482 0.76758 0.0
H678 H 0.10495 0.5342 0.70731 0.0
C679 C 0.09117 0.50538 0.89685 0.0
C680 C 0.997 0.91159 0.48316 0.0
C681 C 0.99786 0.88801 0.53134 0.0
H682 H 0.99783 0.95408 0.48193 0.0
C683 C 1.00121 0.89031 0.61912 0.0
H684 H 0.99506 0.91086 0.41538 0.0
C685 C 1.00317 0.9153 0.6574 0.0
C686 C 1.00167 0.93878 0.60921 0.0
H687 H 1.00169 0.8728 0.6589 0.0
H688 H 1.00538 0.9162 0.72508 0.0
C689 C 0.99875 0.93652 0.52146 0.0
C690 C 0.63617 1.01456 0.67202 0.0
C691 C 0.64149 1.01159 0.58503 0.0
H692 H 0.60684 0.01788 0.77058 0.0
C693 C 0.61954 1.01047 0.53075 0.0
H694 H 0.65224 0.01519 0.71663 0.0
C695 C 0.59345 1.01158 0.56219 0.0
C696 C 0.58821 1.0142 0.64902 0.0
H697 H 0.6224 1.00887 0.46336 0.0
H698 H 0.57729 1.01042 0.51793 0.0
C699 C 0.60999 0.01597 0.70338 0.0
C700 C 0.51023 0.62989 0.53644 0.0
C701 C 0.50937 0.65039 0.5962 0.0
H702 H 0.51059 0.58802 0.51333 0.0
C703 C 0.50767 0.64306 0.68204 0.0
H704 H 0.51179 0.63454 0.4699 0.0
C705 C 0.50678 0.61618 0.70714 0.0
C706 C 0.50795 0.59574 0.6473 0.0
H707 H 0.5067 0.65815 0.73009 0.0
H708 H 0.50541 0.61144 0.77363 0.0
C709 C 0.50971 0.60307 0.56156 0.0
C710 C 0.87775 0.51215 0.63862 0.0
C711 C 0.87424 0.51625 0.55118 0.0
H712 H 0.90516 0.50858 0.74184 0.0
C713 C 0.89723 0.51879 0.50105 0.0
H714 H 0.86071 0.51024 0.67991 0.0
C715 C 0.92258 0.5181 0.53663 0.0
C716 C 0.92618 0.51463 0.62398 0.0
H717 H 0.89576 0.52128 0.43349 0.0
H718 H 0.93948 0.52037 0.49489 0.0
C719 C 0.90333 0.51134 0.67446 0.0
loop_
_geom_bond_atom_site_label_1
_geom_bond_atom_site_label_2
_geom_bond_distance
_geom_bond_site_symmetry_2
_ccdc_geom_bond_type
C0 C1 1.264 . S
C0 C5 1.479 . S
C0 C10 1.465 . S
C1 C0 1.264 . S
C1 C3 1.339 . S
C1 H28 0.931 . S
C2 C3 1.395 . S
C2 C4 1.320 . S
C3 C1 1.339 . S
C3 C2 1.395 . S
C3 H29 0.929 . S
C4 C2 1.320 . S
C4 C5 1.405 . S
C4 H30 0.930 . S
C5 C0 1.479 . S
C5 C4 1.405 . S
C5 H31 0.931 . S
U6 O7 2.454 . S
U6 O8 2.458 . S
U6 C9 2.984 . S
U6 C10 2.847 . S
U6 C23 2.882 . S
U6 O24 2.441 . S
U6 O25 2.420 . S
U6 O26 2.455 . S
U6 O27 2.449 . S
O7 U6 2.454 . S
O7 C9 1.353 . S
O8 U6 2.458 . S
O8 C9 1.286 . S
C9 U6 2.984 . S
C9 O7 1.353 . S
C9 O8 1.286 . S
C9 C11 1.363 . S
C10 C0 1.465 . S
C10 U6 2.847 . S
C10 O24 1.249 . S
C10 O25 1.202 . S
C11 C9 1.363 . S
C11 C13 1.408 . S
C11 C16 1.342 . S
C12 C13 1.310 . S
C12 C15 1.461 . S
C12 H32 0.932 . S
C13 C11 1.408 . S
C13 C12 1.310 . S
C13 H33 0.930 . S
C14 C15 1.474 . S
C14 C16 1.285 . S
C14 H34 0.929 . S
C15 C12 1.461 . S
C15 C14 1.474 . S
C16 C11 1.342 . S
C16 C14 1.285 . S
C16 H35 0.930 . S
C17 C20 1.424 . S
C17 C22 1.245 . S
C17 C23 1.428 . S
C18 C21 1.260 . S
C18 C22 1.477 . S
C18 H36 0.932 . S
C19 C20 1.384 . S
C19 C21 1.479 . S
C19 H37 0.929 . S
C20 C17 1.424 . S
C20 C19 1.384 . S
C20 H38 0.928 . S
C21 C18 1.260 . S
C21 C19 1.479 . S
C22 C17 1.245 . S
C22 C18 1.477 . S
C22 H39 0.932 . S
C23 U6 2.882 . S
C23 C17 1.428 . S
C23 O26 1.301 . S
C23 O27 1.282 . S
O24 U6 2.441 . S
O24 C10 1.249 . S
O25 U6 2.420 . S
O25 C10 1.202 . S
O26 U6 2.455 . S
O26 C23 1.301 . S
O27 U6 2.449 . S
O27 C23 1.282 . S
H28 C1 0.931 . S
H29 C3 0.929 . S
H30 C4 0.930 . S
H31 C5 0.931 . S
H32 C12 0.932 . S
H33 C13 0.930 . S
H34 C14 0.929 . S
H35 C16 0.930 . S
H36 C18 0.932 . S
H37 C19 0.929 . S
H38 C20 0.928 . S
H39 C22 0.932 . S
C40 C41 1.264 . S
C40 C45 1.479 . S
C40 C50 1.465 . S
C41 C40 1.264 . S
C41 C43 1.339 . S
C41 H68 0.931 . S
C42 C43 1.395 . S
C42 C44 1.320 . S
C43 C41 1.339 . S
C43 C42 1.395 . S
C43 H69 0.929 . S
C44 C42 1.320 . S
C44 C45 1.405 . S
C44 H70 0.921 1_455 S
C45 C40 1.479 . S
C45 C44 1.405 . S
C45 H71 0.931 . S
U46 O47 2.454 . S
U46 O48 2.458 . S
U46 C49 2.984 . S
U46 C50 2.847 . S
U46 C63 2.882 . S
U46 O64 2.441 . S
U46 O65 2.420 . S
U46 O66 2.455 . S
U46 O67 2.449 . S
O47 U46 2.454 . S
O47 C49 1.353 . S
O48 U46 2.458 . S
O48 C49 1.286 . S
C49 U46 2.984 . S
C49 O47 1.353 . S
C49 O48 1.286 . S
C49 C51 1.363 . S
C50 C40 1.465 . S
C50 U46 2.847 . S
C50 O64 1.249 . S
C50 O65 1.202 . S
C51 C49 1.363 . S
C51 C53 1.408 . S
C51 C56 1.342 . S
C52 C53 1.310 . S
C52 C55 1.461 . S
C52 H72 0.932 . S
C53 C51 1.408 . S
C53 C52 1.310 . S
C53 H73 0.930 . S
C54 C55 1.474 1_655 S
C54 C56 1.285 1_655 S
C54 H74 0.930 . S
C55 C52 1.461 . S
C55 C54 1.474 1_455 S
C56 C51 1.342 . S
C56 C54 1.285 1_455 S
C56 H75 0.933 . S
C57 C60 1.424 . S
C57 C62 1.245 . S
C57 C63 1.428 . S
C58 C61 1.260 . S
C58 C62 1.477 . S
C58 H76 0.932 . S
C59 C60 1.384 . S
C59 C61 1.479 . S
C59 H77 0.929 . S
C60 C57 1.424 . S
C60 C59 1.384 . S
C60 H78 0.928 . S
C61 C58 1.260 . S
C61 C59 1.479 . S
C62 C57 1.245 . S
C62 C58 1.477 . S
C62 H79 0.932 . S
C63 U46 2.882 . S
C63 C57 1.428 . S
C63 O66 1.301 . S
C63 O67 1.282 . S
O64 U46 2.441 . S
O64 C50 1.249 . S
O65 U46 2.420 . S
O65 C50 1.202 . S
O66 U46 2.455 . S
O66 C63 1.301 . S
O67 U46 2.449 . S
O67 C63 1.282 . S
H68 C41 0.931 . S
H69 C43 0.929 . S
H70 C44 0.921 1_655 S
H71 C45 0.931 . S
H72 C52 0.932 . S
H73 C53 0.930 . S
H74 C54 0.930 . S
H75 C56 0.933 . S
H76 C58 0.932 . S
H77 C59 0.929 . S
H78 C60 0.928 . S
H79 C62 0.932 . S
C80 C81 1.264 . S
C80 C85 1.479 . S
C80 C90 1.465 . S
C81 C80 1.264 . S
C81 C83 1.339 . S
C81 H108 0.931 . S
C82 C83 1.395 . S
C82 C84 1.320 . S
C83 C81 1.339 . S
C83 C82 1.395 . S
C83 H109 0.929 . S
C84 C82 1.320 . S
C84 C85 1.405 . S
C84 H110 0.921 1_545 S
C85 C80 1.479 . S
C85 C84 1.405 . S
C85 H111 0.931 . S
U86 O87 2.454 . S
U86 O88 2.458 . S
U86 C89 2.984 . S
U86 C90 2.847 . S
U86 C103 2.882 . S
U86 O104 2.441 . S
U86 O105 2.420 . S
U86 O106 2.455 . S
U86 O107 2.449 . S
O87 U86 2.454 . S
O87 C89 1.353 . S
O88 U86 2.458 . S
O88 C89 1.286 . S
C89 U86 2.984 . S
C89 O87 1.353 . S
C89 O88 1.286 . S
C89 C91 1.363 . S
C90 C80 1.465 . S
C90 U86 2.847 . S
C90 O104 1.249 . S
C90 O105 1.202 . S
C91 C89 1.363 . S
C91 C93 1.408 . S
C91 C96 1.342 . S
C92 C93 1.310 . S
C92 C95 1.461 . S
C92 H112 0.932 . S
C93 C91 1.408 . S
C93 C92 1.310 . S
C93 H113 0.930 . S
C94 C95 1.474 1_565 S
C94 C96 1.285 1_565 S
C94 H114 0.931 . S
C95 C92 1.461 . S
C95 C94 1.474 1_545 S
C96 C91 1.342 . S
C96 C94 1.285 1_545 S
C96 H115 0.933 . S
C97 C100 1.424 . S
C97 C102 1.245 . S
C97 C103 1.428 . S
C98 C101 1.260 . S
C98 C102 1.477 . S
C98 H116 0.932 . S
C99 C100 1.384 . S
C99 C101 1.479 . S
C99 H117 0.929 . S
C100 C97 1.424 . S
C100 C99 1.384 . S
C100 H118 0.928 . S
C101 C98 1.260 . S
C101 C99 1.479 . S
C102 C97 1.245 . S
C102 C98 1.477 . S
C102 H119 0.932 . S
C103 U86 2.882 . S
C103 C97 1.428 . S
C103 O106 1.301 . S
C103 O107 1.282 . S
O104 U86 2.441 . S
O104 C90 1.249 . S
O105 U86 2.420 . S
O105 C90 1.202 . S
O106 U86 2.455 . S
O106 C103 1.301 . S
O107 U86 2.449 . S
O107 C103 1.282 . S
H108 C81 0.931 . S
H109 C83 0.929 . S
H110 C84 0.921 1_565 S
H111 C85 0.931 . S
H112 C92 0.932 . S
H113 C93 0.930 . S
H114 C94 0.931 . S
H115 C96 0.933 . S
H116 C98 0.932 . S
H117 C99 0.929 . S
H118 C100 0.928 . S
H119 C102 0.932 . S
C120 C121 1.264 . S
C120 C125 1.479 . S
C120 C130 1.465 . S
C121 C120 1.264 . S
C121 C123 1.339 . S
C121 H148 0.931 . S
C122 C123 1.395 . S
C122 C124 1.320 . S
C123 C121 1.339 . S
C123 C122 1.395 . S
C123 H149 0.929 . S
C124 C122 1.320 . S
C124 C125 1.405 . S
C124 H150 0.930 . S
C125 C120 1.479 . S
C125 C124 1.405 . S
C125 H151 0.931 . S
U126 O127 2.454 . S
U126 O128 2.458 . S
U126 C129 2.984 . S
U126 C130 2.847 . S
U126 C143 2.882 . S
U126 O144 2.441 . S
U126 O145 2.420 . S
U126 O146 2.455 . S
U126 O147 2.449 . S
O127 U126 2.454 . S
O127 C129 1.353 . S
O128 U126 2.458 . S
O128 C129 1.286 . S
C129 U126 2.984 . S
C129 O127 1.353 . S
C129 O128 1.286 . S
C129 C131 1.363 . S
C130 C120 1.465 . S
C130 U126 2.847 . S
C130 O144 1.249 . S
C130 O145 1.202 . S
C131 C129 1.363 . S
C131 C133 1.408 . S
C131 C136 1.342 . S
C132 C133 1.310 . S
C132 C135 1.461 . S
C132 H152 0.932 . S
C133 C131 1.408 . S
C133 C132 1.310 . S
C133 H153 0.930 . S
C134 C135 1.474 . S
C134 C136 1.285 . S
C134 H154 0.929 . S
C135 C132 1.461 . S
C135 C134 1.474 . S
C136 C131 1.342 . S
C136 C134 1.285 . S
C136 H155 0.930 . S
C137 C140 1.424 . S
C137 C142 1.245 . S
C137 C143 1.428 . S
C138 C141 1.260 . S
C138 C142 1.477 . S
C138 H156 0.932 . S
C139 C140 1.384 . S
C139 C141 1.479 . S
C139 H157 0.929 . S
C140 C137 1.424 . S
C140 C139 1.384 . S
C140 H158 0.928 . S
C141 C138 1.260 . S
C141 C139 1.479 . S
C142 C137 1.245 . S
C142 C138 1.477 . S
C142 H159 0.932 . S
C143 U126 2.882 . S
C143 C137 1.428 . S
C143 O146 1.301 . S
C143 O147 1.282 . S
O144 U126 2.441 . S
O144 C130 1.249 . S
O145 U126 2.420 . S
O145 C130 1.202 . S
O146 U126 2.455 . S
O146 C143 1.301 . S
O147 U126 2.449 . S
O147 C143 1.282 . S
H148 C121 0.931 . S
H149 C123 0.929 . S
H150 C124 0.930 . S
H151 C125 0.931 . S
H152 C132 0.932 . S
H153 C133 0.930 . S
H154 C134 0.929 . S
H155 C136 0.930 . S
H156 C138 0.932 . S
H157 C139 0.929 . S
H158 C140 0.928 . S
H159 C142 0.932 . S
C160 C161 1.264 . S
C160 C165 1.479 . S
C160 C170 1.465 . S
C161 C160 1.264 . S
C161 C163 1.339 . S
C161 H188 0.931 . S
C162 C163 1.395 . S
C162 C164 1.320 . S
C163 C161 1.339 . S
C163 C162 1.395 . S
C163 H189 0.929 . S
C164 C162 1.320 . S
C164 C165 1.405 . S
C164 H190 0.930 . S
C165 C160 1.479 . S
C165 C164 1.405 . S
C165 H191 0.931 . S
U166 O167 2.454 . S
U166 O168 2.458 . S
U166 C169 2.984 . S
U166 C170 2.847 1_554 S
U166 C183 2.882 . S
U166 O184 2.441 1_554 S
U166 O185 2.420 1_554 S
U166 O186 2.455 . S
U166 O187 2.449 . S
O167 U166 2.454 . S
O167 C169 1.353 . S
O168 U166 2.458 . S
O168 C169 1.286 . S
C169 U166 2.984 . S
C169 O167 1.353 . S
C169 O168 1.286 . S
C169 C171 1.363 . S
C170 C160 1.465 . S
C170 U166 2.847 1_556 S
C170 O184 1.249 . S
C170 O185 1.202 . S
C171 C169 1.363 . S
C171 C173 1.408 . S
C171 C176 1.342 . S
C172 C173 1.310 . S
C172 C175 1.461 . S
C172 H192 0.932 . S
C173 C171 1.408 . S
C173 C172 1.310 . S
C173 H193 0.930 1_554 S
C174 C175 1.474 . S
C174 C176 1.285 . S
C174 H194 0.929 . S
C175 C172 1.461 . S
C175 C174 1.474 . S
C176 C171 1.342 . S
C176 C174 1.285 . S
C176 H195 0.930 . S
C177 C180 1.424 . S
C177 C182 1.245 . S
C177 C183 1.428 . S
C178 C181 1.260 . S
C178 C182 1.477 . S
C178 H196 0.932 . S
C179 C180 1.384 . S
C179 C181 1.479 . S
C179 H197 0.929 . S
C180 C177 1.424 . S
C180 C179 1.384 . S
C180 H198 0.928 . S
C181 C178 1.260 . S
C181 C179 1.479 . S
C182 C177 1.245 . S
C182 C178 1.477 . S
C182 H199 0.932 . S
C183 U166 2.882 . S
C183 C177 1.428 . S
C183 O186 1.301 . S
C183 O187 1.282 . S
O184 U166 2.441 1_556 S
O184 C170 1.249 . S
O185 U166 2.420 1_556 S
O185 C170 1.202 . S
O186 U166 2.455 . S
O186 C183 1.301 . S
O187 U166 2.449 . S
O187 C183 1.282 . S
H188 C161 0.931 . S
H189 C163 0.929 . S
H190 C164 0.930 . S
H191 C165 0.931 . S
H192 C172 0.932 . S
H193 C173 0.930 1_556 S
H194 C174 0.929 . S
H195 C176 0.930 . S
H196 C178 0.932 . S
H197 C179 0.929 . S
H198 C180 0.928 . S
H199 C182 0.932 . S
C200 C201 1.264 . S
C200 C205 1.479 . S
C200 C210 1.465 . S
C201 C200 1.264 . S
C201 C203 1.339 . S
C201 H228 0.931 . S
C202 C203 1.395 . S
C202 C204 1.320 . S
C203 C201 1.339 . S
C203 C202 1.395 . S
C203 H229 0.929 . S
C204 C202 1.320 . S
C204 C205 1.405 . S
C204 H230 0.923 1_455 S
C205 C200 1.479 . S
C205 C204 1.405 . S
C205 H231 0.931 . S
U206 O207 2.454 . S
U206 O208 2.458 . S
U206 C209 2.984 . S
U206 C210 2.847 1_554 S
U206 C223 2.882 . S
U206 O224 2.441 1_554 S
U206 O225 2.420 1_554 S
U206 O226 2.455 . S
U206 O227 2.449 . S
O207 U206 2.454 . S
O207 C209 1.353 . S
O208 U206 2.458 . S
O208 C209 1.286 . S
C209 U206 2.984 . S
C209 O207 1.353 . S
C209 O208 1.286 . S
C209 C211 1.363 . S
C210 C200 1.465 . S
C210 U206 2.847 1_556 S
C210 O224 1.249 . S
C210 O225 1.202 . S
C211 C209 1.363 . S
C211 C213 1.408 . S
C211 C216 1.342 . S
C212 C213 1.310 . S
C212 C215 1.462 . S
C212 H232 0.932 . S
C213 C211 1.408 . S
C213 C212 1.310 . S
C213 H233 0.930 1_554 S
C214 C215 1.474 1_655 S
C214 C216 1.286 1_655 S
C214 H234 0.929 . S
C215 C212 1.462 . S
C215 C214 1.474 1_455 S
C216 C211 1.342 . S
C216 C214 1.286 1_455 S
C216 H235 0.930 . S
C217 C220 1.424 . S
C217 C222 1.245 . S
C217 C223 1.428 . S
C218 C221 1.260 . S
C218 C222 1.477 . S
C218 H236 0.932 . S
C219 C220 1.384 . S
C219 C221 1.479 . S
C219 H237 0.929 . S
C220 C217 1.424 . S
C220 C219 1.384 . S
C220 H238 0.928 . S
C221 C218 1.260 . S
C221 C219 1.479 . S
C222 C217 1.245 . S
C222 C218 1.477 . S
C222 H239 0.932 . S
C223 U206 2.882 . S
C223 C217 1.428 . S
C223 O226 1.301 . S
C223 O227 1.282 . S
O224 U206 2.441 1_556 S
O224 C210 1.249 . S
O225 U206 2.420 1_556 S
O225 C210 1.202 . S
O226 U206 2.455 . S
O226 C223 1.301 . S
O227 U206 2.449 . S
O227 C223 1.282 . S
H228 C201 0.931 . S
H229 C203 0.929 . S
H230 C204 0.923 1_655 S
H231 C205 0.931 . S
H232 C212 0.932 . S
H233 C213 0.930 1_556 S
H234 C214 0.929 . S
H235 C216 0.930 . S
H236 C218 0.932 . S
H237 C219 0.929 . S
H238 C220 0.928 . S
H239 C222 0.932 . S
C240 C241 1.264 . S
C240 C245 1.479 . S
C240 C250 1.465 . S
C241 C240 1.264 . S
C241 C243 1.339 . S
C241 H268 0.931 . S
C242 C243 1.395 . S
C242 C244 1.320 . S
C243 C241 1.339 . S
C243 C242 1.395 . S
C243 H269 0.929 . S
C244 C242 1.320 . S
C244 C245 1.405 . S
C244 H270 0.922 1_545 S
C245 C240 1.479 . S
C245 C244 1.405 . S
C245 H271 0.931 . S
U246 O247 2.454 . S
U246 O248 2.458 . S
U246 C249 2.984 . S
U246 C250 2.847 1_554 S
U246 C263 2.882 . S
U246 O264 2.441 1_554 S
U246 O265 2.420 1_554 S
U246 O266 2.455 . S
U246 O267 2.449 . S
O247 U246 2.454 . S
O247 C249 1.353 . S
O248 U246 2.458 . S
O248 C249 1.286 . S
C249 U246 2.984 . S
C249 O247 1.353 . S
C249 O248 1.286 . S
C249 C251 1.363 . S
C250 C240 1.465 . S
C250 U246 2.847 1_556 S
C250 O264 1.249 . S
C250 O265 1.202 . S
C251 C249 1.363 . S
C251 C253 1.408 . S
C251 C256 1.342 . S
C252 C253 1.310 . S
C252 C255 1.462 . S
C252 H272 0.932 . S
C253 C251 1.408 . S
C253 C252 1.310 . S
C253 H273 0.930 1_554 S
C254 C255 1.474 1_565 S
C254 C256 1.286 1_565 S
C254 H274 0.929 . S
C255 C252 1.462 . S
C255 C254 1.474 1_545 S
C256 C251 1.342 . S
C256 C254 1.286 1_545 S
C256 H275 0.930 . S
C257 C260 1.424 . S
C257 C262 1.245 . S
C257 C263 1.428 . S
C258 C261 1.260 . S
C258 C262 1.477 . S
C258 H276 0.932 . S
C259 C260 1.384 . S
C259 C261 1.479 . S
C259 H277 0.929 . S
C260 C257 1.424 . S
C260 C259 1.384 . S
C260 H278 0.928 . S
C261 C258 1.260 . S
C261 C259 1.479 . S
C262 C257 1.245 . S
C262 C258 1.477 . S
C262 H279 0.932 . S
C263 U246 2.882 . S
C263 C257 1.428 . S
C263 O266 1.301 . S
C263 O267 1.282 . S
O264 U246 2.441 1_556 S
O264 C250 1.249 . S
O265 U246 2.420 1_556 S
O265 C250 1.202 . S
O266 U246 2.455 . S
O266 C263 1.301 . S
O267 U246 2.449 . S
O267 C263 1.282 . S
H268 C241 0.931 . S
H269 C243 0.929 . S
H270 C244 0.922 1_565 S
H271 C245 0.931 . S
H272 C252 0.932 . S
H273 C253 0.930 1_556 S
H274 C254 0.929 . S
H275 C256 0.930 . S
H276 C258 0.932 . S
H277 C259 0.929 . S
H278 C260 0.928 . S
H279 C262 0.932 . S
C280 C281 1.264 . S
C280 C285 1.479 . S
C280 C290 1.465 . S
C281 C280 1.264 . S
C281 C283 1.339 . S
C281 H308 0.931 . S
C282 C283 1.395 . S
C282 C284 1.320 . S
C283 C281 1.339 . S
C283 C282 1.395 . S
C283 H309 0.929 . S
C284 C282 1.320 . S
C284 C285 1.405 . S
C284 H310 0.930 . S
C285 C280 1.479 . S
C285 C284 1.405 . S
C285 H311 0.931 . S
U286 O287 2.454 . S
U286 O288 2.458 . S
U286 C289 2.984 . S
U286 C290 2.847 1_554 S
U286 C303 2.882 . S
U286 O304 2.441 1_554 S
U286 O305 2.420 1_554 S
U286 O306 2.455 . S
U286 O307 2.449 . S
O287 U286 2.454 . S
O287 C289 1.353 . S
O288 U286 2.458 . S
O288 C289 1.286 . S
C289 U286 2.984 . S
C289 O287 1.353 . S
C289 O288 1.286 . S
C289 C291 1.363 . S
C290 C280 1.465 . S
C290 U286 2.847 1_556 S
C290 O304 1.249 . S
C290 O305 1.202 . S
C291 C289 1.363 . S
C291 C293 1.408 . S
C291 C296 1.342 . S
C292 C293 1.310 . S
C292 C295 1.461 . S
C292 H312 0.932 . S
C293 C291 1.408 . S
C293 C292 1.310 . S
C293 H313 0.930 1_554 S
C294 C295 1.474 . S
C294 C296 1.285 . S
C294 H314 0.929 . S
C295 C292 1.461 . S
C295 C294 1.474 . S
C296 C291 1.342 . S
C296 C294 1.285 . S
C296 H315 0.930 . S
C297 C300 1.424 . S
C297 C302 1.245 . S
C297 C303 1.428 . S
C298 C301 1.260 . S
C298 C302 1.477 . S
C298 H316 0.932 . S
C299 C300 1.384 . S
C299 C301 1.479 . S
C299 H317 0.929 . S
C300 C297 1.424 . S
C300 C299 1.384 . S
C300 H318 0.928 . S
C301 C298 1.260 . S
C301 C299 1.479 . S
C302 C297 1.245 . S
C302 C298 1.477 . S
C302 H319 0.932 . S
C303 U286 2.882 . S
C303 C297 1.428 . S
C303 O306 1.301 . S
C303 O307 1.282 . S
O304 U286 2.441 1_556 S
O304 C290 1.249 . S
O305 U286 2.420 1_556 S
O305 C290 1.202 . S
O306 U286 2.455 . S
O306 C303 1.301 . S
O307 U286 2.449 . S
O307 C303 1.282 . S
H308 C281 0.931 . S
H309 C283 0.929 . S
H310 C284 0.930 . S
H311 C285 0.931 . S
H312 C292 0.932 . S
H313 C293 0.930 1_556 S
H314 C294 0.929 . S
H315 C296 0.930 . S
H316 C298 0.932 . S
H317 C299 0.929 . S
H318 C300 0.928 . S
H319 C302 0.932 . S
Tb320 C322 2.809 . S
Tb320 O340 2.484 . S
Tb320 O341 2.440 . S
Tb320 O342 2.658 1_565 S
Tb320 O343 2.409 . S
Tb320 O344 2.378 . S
Tb320 O348 2.325 1_455 S
Tb320 O351 2.341 1_565 S
Tb321 C331 2.809 . S
Tb321 O342 2.325 1_655 S
Tb321 O345 2.341 1_545 S
Tb321 O346 2.484 . S
Tb321 O347 2.440 . S
Tb321 O348 2.658 1_545 S
Tb321 O349 2.409 . S
Tb321 O350 2.378 . S
C322 Tb320 2.809 . S
C322 C323 1.514 . S
C322 O340 1.248 . S
C322 O341 1.266 . S
C323 C322 1.514 . S
C323 C324 1.359 . S
C323 C328 1.348 . S
C324 C323 1.359 . S
C324 C325 1.380 1_556 S
C324 H352 0.929 1_455 S
C325 C324 1.380 1_554 S
C325 C326 1.347 . S
C325 H353 0.931 1_455 S
C326 C325 1.347 . S
C326 C327 1.369 1_554 S
C327 C326 1.369 1_556 S
C327 C328 1.408 . S
C327 H354 0.930 . S
C328 C323 1.348 . S
C328 C327 1.408 . S
C328 H355 0.930 . S
C329 O342 1.281 1_565 S
C329 O343 1.254 . S
C330 O344 1.236 1_655 S
C330 O345 1.266 . S
C331 Tb321 2.809 . S
C331 C332 1.514 . S
C331 O346 1.248 . S
C331 O347 1.266 . S
C332 C331 1.514 . S
C332 C333 1.359 . S
C332 C337 1.348 . S
C333 C332 1.359 . S
C333 C334 1.380 . S
C333 H356 0.929 1_655 S
C334 C333 1.380 . S
C334 C335 1.347 . S
C334 H357 0.931 1_655 S
C335 C334 1.347 . S
C335 C336 1.369 . S
C336 C335 1.369 . S
C336 C337 1.408 . S
C336 H358 0.930 . S
C337 C332 1.348 . S
C337 C336 1.408 . S
C337 H359 0.930 . S
C338 O348 1.281 1_545 S
C338 O349 1.254 . S
C339 O350 1.236 1_455 S
C339 O351 1.266 . S
O340 Tb320 2.484 . S
O340 C322 1.248 . S
O341 Tb320 2.440 . S
O341 C322 1.266 . S
O342 Tb320 2.658 1_545 S
O342 Tb321 2.325 1_455 S
O342 C329 1.281 1_545 S
O343 Tb320 2.409 . S
O343 C329 1.254 . S
O344 Tb320 2.378 . S
O344 C330 1.236 1_455 S
O345 Tb321 2.341 1_565 S
O345 C330 1.266 . S
O346 Tb321 2.484 . S
O346 C331 1.248 . S
O347 Tb321 2.440 . S
O347 C331 1.266 . S
O348 Tb320 2.325 1_655 S
O348 Tb321 2.658 1_565 S
O348 C338 1.281 1_565 S
O349 Tb321 2.409 . S
O349 C338 1.254 . S
O350 Tb321 2.378 . S
O350 C339 1.236 1_655 S
O351 Tb320 2.341 1_545 S
O351 C339 1.266 . S
H352 C324 0.929 1_655 S
H353 C325 0.931 1_655 S
H354 C327 0.930 . S
H355 C328 0.930 . S
H356 C333 0.929 1_455 S
H357 C334 0.931 1_455 S
H358 C336 0.930 . S
H359 C337 0.930 . S
Tb360 C362 2.809 . S
Tb360 O380 2.484 . S
Tb360 O381 2.440 . S
Tb360 O382 2.658 . S
Tb360 O383 2.409 . S
Tb360 O384 2.378 . S
Tb360 O388 2.325 1_545 S
Tb360 O391 2.341 . S
Tb361 C371 2.809 . S
Tb361 O382 2.325 1_565 S
Tb361 O385 2.341 . S
Tb361 O386 2.484 . S
Tb361 O387 2.440 . S
Tb361 O388 2.658 . S
Tb361 O389 2.409 . S
Tb361 O390 2.378 . S
C362 Tb360 2.809 . S
C362 C363 1.514 . S
C362 O380 1.248 . S
C362 O381 1.266 . S
C363 C362 1.514 . S
C363 C364 1.359 . S
C363 C368 1.348 . S
C364 C363 1.359 . S
C364 C365 1.380 1_556 S
C364 H392 0.929 1_545 S
C365 C364 1.380 1_554 S
C365 C366 1.347 . S
C365 H393 0.931 1_545 S
C366 C365 1.347 . S
C366 C367 1.369 1_554 S
C367 C366 1.369 1_556 S
C367 C368 1.408 . S
C367 H394 0.930 . S
C368 C363 1.348 . S
C368 C367 1.408 . S
C368 H395 0.930 . S
C369 O382 1.281 . S
C369 O383 1.254 . S
C370 O384 1.236 1_565 S
C370 O385 1.266 . S
C371 Tb361 2.809 . S
C371 C372 1.514 . S
C371 O386 1.248 . S
C371 O387 1.266 . S
C372 C371 1.514 . S
C372 C373 1.359 . S
C372 C377 1.348 . S
C373 C372 1.359 . S
C373 C374 1.380 . S
C373 H396 0.929 1_565 S
C374 C373 1.380 . S
C374 C375 1.347 . S
C374 H397 0.931 1_565 S
C375 C374 1.347 . S
C375 C376 1.369 . S
C376 C375 1.369 . S
C376 C377 1.408 . S
C376 H398 0.930 . S
C377 C372 1.348 . S
C377 C376 1.408 . S
C377 H399 0.930 . S
C378 O388 1.281 . S
C378 O389 1.254 . S
C379 O390 1.236 1_545 S
C379 O391 1.266 . S
O380 Tb360 2.484 . S
O380 C362 1.248 . S
O381 Tb360 2.440 . S
O381 C362 1.266 . S
O382 Tb360 2.658 . S
O382 Tb361 2.325 1_545 S
O382 C369 1.281 . S
O383 Tb360 2.409 . S
O383 C369 1.254 . S
O384 Tb360 2.378 . S
O384 C370 1.236 1_545 S
O385 Tb361 2.341 . S
O385 C370 1.266 . S
O386 Tb361 2.484 . S
O386 C371 1.248 . S
O387 Tb361 2.440 . S
O387 C371 1.266 . S
O388 Tb360 2.325 1_565 S
O388 Tb361 2.658 . S
O388 C378 1.281 . S
O389 Tb361 2.409 . S
O389 C378 1.254 . S
O390 Tb361 2.378 . S
O390 C379 1.236 1_565 S
O391 Tb360 2.341 . S
O391 C379 1.266 . S
H392 C364 0.929 1_565 S
H393 C365 0.931 1_565 S
H394 C367 0.930 . S
H395 C368 0.930 . S
H396 C373 0.929 1_545 S
H397 C374 0.931 1_545 S
H398 C376 0.930 . S
H399 C377 0.930 . S
Tb400 C402 2.809 . S
Tb400 O420 2.484 . S
Tb400 O421 2.440 . S
Tb400 O422 2.658 . S
Tb400 O423 2.409 . S
Tb400 O424 2.378 . S
Tb400 O428 2.325 . S
Tb400 O431 2.341 . S
Tb401 C411 2.809 . S
Tb401 O422 2.325 . S
Tb401 O425 2.341 . S
Tb401 O426 2.484 . S
Tb401 O427 2.440 . S
Tb401 O428 2.658 . S
Tb401 O429 2.409 . S
Tb401 O430 2.378 . S
C402 Tb400 2.809 . S
C402 C403 1.514 . S
C402 O420 1.248 . S
C402 O421 1.266 . S
C403 C402 1.514 . S
C403 C404 1.359 . S
C403 C408 1.348 . S
C404 C403 1.359 . S
C404 C405 1.380 1_556 S
C404 H432 0.929 . S
C405 C404 1.380 1_554 S
C405 C406 1.347 . S
C405 H433 0.931 . S
C406 C405 1.347 . S
C406 C407 1.369 1_554 S
C407 C406 1.369 1_556 S
C407 C408 1.408 . S
C407 H434 0.930 . S
C408 C403 1.348 . S
C408 C407 1.408 . S
C408 H435 0.930 . S
C409 O422 1.281 . S
C409 O423 1.254 . S
C410 O424 1.236 . S
C410 O425 1.266 . S
C411 Tb401 2.809 . S
C411 C412 1.514 . S
C411 O426 1.248 . S
C411 O427 1.266 . S
C412 C411 1.514 . S
C412 C413 1.359 . S
C412 C417 1.348 . S
C413 C412 1.359 . S
C413 C414 1.380 . S
C413 H436 0.929 . S
C414 C413 1.380 . S
C414 C415 1.347 . S
C414 H437 0.931 . S
C415 C414 1.347 . S
C415 C416 1.369 . S
C416 C415 1.369 . S
C416 C417 1.408 . S
C416 H438 0.930 . S
C417 C412 1.348 . S
C417 C416 1.408 . S
C417 H439 0.930 . S
C418 O428 1.281 . S
C418 O429 1.254 . S
C419 O430 1.236 . S
C419 O431 1.266 . S
O420 Tb400 2.484 . S
O420 C402 1.248 . S
O421 Tb400 2.440 . S
O421 C402 1.266 . S
O422 Tb400 2.658 . S
O422 Tb401 2.325 . S
O422 C409 1.281 . S
O423 Tb400 2.409 . S
O423 C409 1.254 . S
O424 Tb400 2.378 . S
O424 C410 1.236 . S
O425 Tb401 2.341 . S
O425 C410 1.266 . S
O426 Tb401 2.484 . S
O426 C411 1.248 . S
O427 Tb401 2.440 . S
O427 C411 1.266 . S
O428 Tb400 2.325 . S
O428 Tb401 2.658 . S
O428 C418 1.281 . S
O429 Tb401 2.409 . S
O429 C418 1.254 . S
O430 Tb401 2.378 . S
O430 C419 1.236 . S
O431 Tb400 2.341 . S
O431 C419 1.266 . S
H432 C404 0.929 . S
H433 C405 0.931 . S
H434 C407 0.930 . S
H435 C408 0.930 . S
H436 C413 0.929 . S
H437 C414 0.931 . S
H438 C416 0.930 . S
H439 C417 0.930 . S
Tb440 C442 2.809 . S
Tb440 O460 2.484 . S
Tb440 O461 2.440 . S
Tb440 O462 2.658 1_655 S
Tb440 O463 2.409 . S
Tb440 O464 2.378 . S
Tb440 O468 2.325 . S
Tb440 O471 2.341 1_655 S
Tb441 C451 2.809 . S
Tb441 O462 2.325 . S
Tb441 O465 2.341 1_455 S
Tb441 O466 2.484 . S
Tb441 O467 2.440 . S
Tb441 O468 2.658 1_455 S
Tb441 O469 2.409 . S
Tb441 O470 2.378 . S
C442 Tb440 2.809 . S
C442 C443 1.514 . S
C442 O460 1.248 . S
C442 O461 1.266 . S
C443 C442 1.514 . S
C443 C444 1.359 . S
C443 C448 1.348 . S
C444 C443 1.359 . S
C444 C445 1.380 1_556 S
C444 H472 0.929 . S
C445 C444 1.380 1_554 S
C445 C446 1.347 . S
C445 H473 0.931 . S
C446 C445 1.347 . S
C446 C447 1.369 1_554 S
C447 C446 1.369 1_556 S
C447 C448 1.408 . S
C447 H474 0.930 . S
C448 C443 1.348 . S
C448 C447 1.408 . S
C448 H475 0.930 . S
C449 O462 1.278 1_655 S
C449 O463 1.258 . S
C450 O464 1.236 . S
C450 O465 1.266 . S
C451 Tb441 2.809 . S
C451 C452 1.514 . S
C451 O466 1.248 . S
C451 O467 1.266 . S
C452 C451 1.514 . S
C452 C453 1.359 . S
C452 C457 1.348 . S
C453 C452 1.359 . S
C453 C454 1.380 . S
C453 H476 0.929 . S
C454 C453 1.380 . S
C454 C455 1.347 . S
C454 H477 0.931 . S
C455 C454 1.347 . S
C455 C456 1.369 . S
C456 C455 1.369 . S
C456 C457 1.408 . S
C456 H478 0.930 . S
C457 C452 1.348 . S
C457 C456 1.408 . S
C457 H479 0.930 . S
C458 O468 1.275 1_455 S
C458 O469 1.262 . S
C459 O470 1.236 . S
C459 O471 1.266 . S
O460 Tb440 2.484 . S
O460 C442 1.248 . S
O461 Tb440 2.440 . S
O461 C442 1.266 . S
O462 Tb440 2.658 1_455 S
O462 Tb441 2.325 . S
O462 C449 1.278 1_455 S
O463 Tb440 2.409 . S
O463 C449 1.258 . S
O464 Tb440 2.378 . S
O464 C450 1.236 . S
O465 Tb441 2.341 1_655 S
O465 C450 1.266 . S
O466 Tb441 2.484 . S
O466 C451 1.248 . S
O467 Tb441 2.440 . S
O467 C451 1.266 . S
O468 Tb440 2.325 . S
O468 Tb441 2.658 1_655 S
O468 C458 1.275 1_655 S
O469 Tb441 2.409 . S
O469 C458 1.262 . S
O470 Tb441 2.378 . S
O470 C459 1.236 . S
O471 Tb440 2.341 1_455 S
O471 C459 1.266 . S
H472 C444 0.929 . S
H473 C445 0.931 . S
H474 C447 0.930 . S
H475 C448 0.930 . S
H476 C453 0.929 . S
H477 C454 0.931 . S
H478 C456 0.930 . S
H479 C457 0.930 . S
C480 C481 1.389 . S
C480 H484 0.950 . S
C480 C489 1.390 . S
C481 C480 1.389 . S
C481 C483 1.386 1_545 S
H482 C489 0.950 . S
C483 C481 1.386 1_565 S
C483 C485 1.390 . S
C483 H487 0.950 . S
H484 C480 0.950 . S
C485 C483 1.390 . S
C485 C486 1.388 1_565 S
C485 H488 0.950 . S
C486 C485 1.388 1_545 S
C486 C489 1.387 . S
H487 C483 0.950 . S
H488 C485 0.950 . S
C489 C480 1.390 . S
C489 H482 0.950 . S
C489 C486 1.387 . S
C490 C491 1.387 . S
C490 H494 0.950 . S
C490 C499 1.390 . S
C491 C490 1.387 . S
C491 C493 1.387 . S
H492 C499 0.950 . S
C493 C491 1.387 . S
C493 C495 1.390 . S
C493 H497 0.950 . S
H494 C490 0.950 . S
C495 C493 1.390 . S
C495 C496 1.387 . S
C495 H498 0.950 . S
C496 C495 1.387 . S
C496 C499 1.387 . S
H497 C493 0.950 . S
H498 C495 0.950 . S
C499 C490 1.390 . S
C499 H492 0.950 . S
C499 C496 1.387 . S
C500 C501 1.387 . S
C500 H504 0.950 . S
C500 C509 1.390 . S
C501 C500 1.387 . S
C501 C503 1.387 . S
H502 C509 0.950 . S
C503 C501 1.387 . S
C503 C505 1.390 . S
C503 H507 0.950 . S
H504 C500 0.950 . S
C505 C503 1.390 . S
C505 C506 1.387 . S
C505 H508 0.950 . S
C506 C505 1.387 . S
C506 C509 1.387 . S
H507 C503 0.950 . S
H508 C505 0.950 . S
C509 C500 1.390 . S
C509 H502 0.950 . S
C509 C506 1.387 . S
C510 C511 1.406 . S
C510 H514 0.950 . S
C510 C519 1.390 . S
C511 C510 1.406 . S
C511 C513 1.370 1_455 S
H512 C519 0.950 . S
C513 C511 1.370 1_655 S
C513 C515 1.390 . S
C513 H517 0.950 . S
H514 C510 0.950 . S
C515 C513 1.390 . S
C515 C516 1.387 1_655 S
C515 H518 0.950 . S
C516 C515 1.387 1_455 S
C516 C519 1.387 . S
H517 C513 0.950 . S
H518 C515 0.950 . S
C519 C510 1.390 . S
C519 H512 0.950 . S
C519 C516 1.387 . S
C520 C521 1.387 . S
C520 H524 0.950 . S
C520 C529 1.390 . S
C521 C520 1.387 . S
C521 C523 1.388 1_545 S
H522 C529 0.950 1_556 S
C523 C521 1.388 1_565 S
C523 C525 1.390 . S
C523 H527 0.950 . S
H524 C520 0.950 . S
C525 C523 1.390 . S
C525 C526 1.388 1_564 S
C525 H528 0.950 1_554 S
C526 C525 1.388 1_546 S
C526 C529 1.387 1_556 S
H527 C523 0.950 . S
H528 C525 0.950 1_556 S
C529 C520 1.390 . S
C529 H522 0.950 1_554 S
C529 C526 1.387 1_554 S
C530 C531 1.387 . S
C530 H534 0.950 . S
C530 C539 1.390 . S
C531 C530 1.387 . S
C531 C533 1.387 . S
H532 C539 0.950 . S
C533 C531 1.387 . S
C533 C535 1.390 . S
C533 H537 0.950 . S
H534 C530 0.950 . S
C535 C533 1.390 . S
C535 C536 1.387 1_554 S
C535 H538 0.950 1_554 S
C536 C535 1.387 1_556 S
C536 C539 1.387 1_556 S
H537 C533 0.950 . S
H538 C535 0.950 1_556 S
C539 C530 1.390 . S
C539 H532 0.950 . S
C539 C536 1.387 1_554 S
C540 C541 1.387 . S
C540 H544 0.950 . S
C540 C549 1.390 . S
C541 C540 1.387 . S
C541 C543 1.387 . S
H542 C549 0.950 1_556 S
C543 C541 1.387 . S
C543 C545 1.390 . S
C543 H547 0.950 . S
H544 C540 0.950 . S
C545 C543 1.390 . S
C545 C546 1.387 1_554 S
C545 H548 0.950 . S
C546 C545 1.387 1_556 S
C546 C549 1.387 1_556 S
H547 C543 0.950 . S
H548 C545 0.950 . S
C549 C540 1.390 . S
C549 H542 0.950 1_554 S
C549 C546 1.387 1_554 S
C550 C551 1.401 . S
C550 H554 0.950 . S
C550 C559 1.390 . S
C551 C550 1.401 . S
C551 C553 1.374 1_655 S
H552 C559 0.950 1_556 S
C553 C551 1.374 1_455 S
C553 C555 1.390 . S
C553 H557 0.950 . S
H554 C550 0.950 . S
C555 C553 1.390 . S
C555 C556 1.366 1_454 S
C555 H558 0.950 1_554 S
C556 C555 1.366 1_656 S
C556 C559 1.410 1_556 S
H557 C553 0.950 . S
H558 C555 0.950 1_556 S
C559 C550 1.390 . S
C559 H552 0.950 1_554 S
C559 C556 1.410 1_554 S
C560 C561 1.389 . S
C560 H564 0.950 1_655 S
C560 C569 1.390 . S
C561 C560 1.389 . S
C561 C563 1.391 . S
H562 C569 0.950 . S
C563 C561 1.391 . S
C563 C565 1.390 . S
C563 H567 0.950 . S
H564 C560 0.950 1_455 S
C565 C563 1.390 . S
C565 C566 1.387 . S
C565 H568 0.950 . S
C566 C565 1.387 . S
C566 C569 1.387 . S
H567 C563 0.950 . S
H568 C565 0.950 . S
C569 C560 1.390 . S
C569 H562 0.950 . S
C569 C566 1.387 . S
C570 C571 1.392 . S
C570 H574 0.950 . S
C570 C579 1.390 . S
C571 C570 1.392 . S
C571 C573 1.389 . S
H572 C579 0.950 . S
C573 C571 1.389 . S
C573 C575 1.390 . S
C573 H577 0.950 1_565 S
H574 C570 0.950 . S
C575 C573 1.390 . S
C575 C576 1.387 . S
C575 H578 0.950 . S
C576 C575 1.387 . S
C576 C579 1.387 . S
H577 C573 0.950 1_545 S
H578 C575 0.950 . S
C579 C570 1.390 . S
C579 H572 0.950 . S
C579 C576 1.387 . S
C580 C581 1.387 . S
C580 H584 0.950 . S
C580 C589 1.390 . S
C581 C580 1.387 . S
C581 C583 1.387 . S
H582 C589 0.950 . S
C583 C581 1.387 . S
C583 C585 1.390 . S
C583 H587 0.950 . S
H584 C580 0.950 . S
C585 C583 1.390 . S
C585 C586 1.387 . S
C585 H588 0.950 . S
C586 C585 1.387 . S
C586 C589 1.387 . S
H587 C583 0.950 . S
H588 C585 0.950 . S
C589 C580 1.390 . S
C589 H582 0.950 . S
C589 C586 1.387 . S
C590 C591 1.387 . S
C590 H594 0.950 . S
C590 C599 1.390 . S
C591 C590 1.387 . S
C591 C593 1.387 . S
H592 C599 0.950 . S
C593 C591 1.387 . S
C593 C595 1.390 . S
C593 H597 0.950 . S
H594 C590 0.950 . S
C595 C593 1.390 . S
C595 C596 1.387 . S
C595 H598 0.950 . S
C596 C595 1.387 . S
C596 C599 1.387 . S
H597 C593 0.950 . S
H598 C595 0.950 . S
C599 C590 1.390 . S
C599 H592 0.950 . S
C599 C596 1.387 . S
C600 C601 1.392 1_556 S
C600 H604 0.950 . S
C600 C609 1.390 . S
C601 C600 1.392 1_554 S
C601 C603 1.393 . S
H602 C609 0.950 . S
C603 C601 1.393 . S
C603 C605 1.390 . S
C603 H607 0.950 . S
H604 C600 0.950 . S
C605 C603 1.390 . S
C605 C606 1.387 . S
C605 H608 0.950 . S
C606 C605 1.387 . S
C606 C609 1.387 1_554 S
H607 C603 0.950 . S
H608 C605 0.950 . S
C609 C600 1.390 . S
C609 H602 0.950 . S
C609 C606 1.387 1_556 S
C610 C611 1.393 . S
C610 H614 0.950 . S
C610 C619 1.390 . S
C611 C610 1.393 . S
C611 C613 1.389 1_554 S
H612 C619 0.950 . S
C613 C611 1.389 1_556 S
C613 C615 1.390 . S
C613 H617 0.950 1_545 S
H614 C610 0.950 . S
C615 C613 1.390 . S
C615 C616 1.387 1_556 S
C615 H618 0.950 . S
C616 C615 1.387 1_554 S
C616 C619 1.387 . S
H617 C613 0.950 1_565 S
H618 C615 0.950 . S
C619 C610 1.390 . S
C619 H612 0.950 . S
C619 C616 1.387 . S
C620 C621 1.387 . S
C620 H624 0.950 . S
C620 C629 1.390 . S
C621 C620 1.387 . S
C621 C623 1.387 1_554 S
H622 C629 0.950 . S
C623 C621 1.387 1_556 S
C623 C625 1.390 . S
C623 H627 0.950 . S
H624 C620 0.950 . S
C625 C623 1.390 . S
C625 C626 1.387 1_556 S
C625 H628 0.950 . S
C626 C625 1.387 1_554 S
C626 C629 1.387 . S
H627 C623 0.950 . S
H628 C625 0.950 . S
C629 C620 1.390 . S
C629 H622 0.950 . S
C629 C626 1.387 . S
C630 C631 1.387 . S
C630 H634 0.950 . S
C630 C639 1.390 . S
C631 C630 1.387 . S
C631 C633 1.387 1_554 S
H632 C639 0.950 . S
C633 C631 1.387 1_556 S
C633 C635 1.390 . S
C633 H637 0.950 . S
H634 C630 0.950 . S
C635 C633 1.390 . S
C635 C636 1.387 1_556 S
C635 H638 0.950 . S
C636 C635 1.387 1_554 S
C636 C639 1.387 . S
H637 C633 0.950 . S
H638 C635 0.950 . S
C639 C630 1.390 . S
C639 H632 0.950 . S
C639 C636 1.387 . S
C640 C641 1.387 . S
C640 H644 0.950 . S
C640 C649 1.390 . S
C641 C640 1.387 . S
C641 C643 1.387 1_455 S
H642 C649 0.950 . S
C643 C641 1.387 1_655 S
C643 C645 1.390 . S
C643 H647 0.950 . S
H644 C640 0.950 . S
C645 C643 1.390 . S
C645 C646 1.387 1_655 S
C645 H648 0.950 . S
C646 C645 1.387 1_455 S
C646 C649 1.387 . S
H647 C643 0.950 . S
H648 C645 0.950 . S
C649 C640 1.390 . S
C649 H642 0.950 . S
C649 C646 1.387 . S
C650 C651 1.387 . S
C650 H654 0.950 . S
C650 C659 1.390 . S
C651 C650 1.387 . S
C651 C653 1.387 1_545 S
H652 C659 0.950 . S
C653 C651 1.387 1_565 S
C653 C655 1.390 . S
C653 H657 0.950 . S
H654 C650 0.950 . S
C655 C653 1.390 . S
C655 C656 1.387 1_565 S
C655 H658 0.950 . S
C656 C655 1.387 1_545 S
C656 C659 1.387 . S
H657 C653 0.950 . S
H658 C655 0.950 . S
C659 C650 1.390 . S
C659 H652 0.950 . S
C659 C656 1.387 . S
C660 C661 1.387 . S
C660 H664 0.950 . S
C660 C669 1.390 . S
C661 C660 1.387 . S
C661 C663 1.387 . S
H662 C669 0.950 . S
C663 C661 1.387 . S
C663 C665 1.390 . S
C663 H667 0.950 . S
H664 C660 0.950 . S
C665 C663 1.390 . S
C665 C666 1.387 . S
C665 H668 0.950 . S
C666 C665 1.387 . S
C666 C669 1.387 . S
H667 C663 0.950 . S
H668 C665 0.950 . S
C669 C660 1.390 . S
C669 H662 0.950 . S
C669 C666 1.387 . S
C670 C671 1.387 . S
C670 H674 0.950 . S
C670 C679 1.390 . S
C671 C670 1.387 . S
C671 C673 1.387 . S
H672 C679 0.950 . S
C673 C671 1.387 . S
C673 C675 1.390 . S
C673 H677 0.950 . S
H674 C670 0.950 . S
C675 C673 1.390 . S
C675 C676 1.387 . S
C675 H678 0.950 . S
C676 C675 1.387 . S
C676 C679 1.387 . S
H677 C673 0.950 . S
H678 C675 0.950 . S
C679 C670 1.390 . S
C679 H672 0.950 . S
C679 C676 1.387 . S
C680 C681 1.387 . S
C680 H684 0.950 . S
C680 C689 1.390 . S
C681 C680 1.387 . S
C681 C683 1.387 1_655 S
H682 C689 0.950 . S
C683 C681 1.387 1_455 S
C683 C685 1.390 . S
C683 H687 0.950 . S
H684 C680 0.950 . S
C685 C683 1.390 . S
C685 C686 1.387 1_455 S
C685 H688 0.950 . S
C686 C685 1.387 1_655 S
C686 C689 1.387 . S
H687 C683 0.950 . S
H688 C685 0.950 . S
C689 C680 1.390 . S
C689 H682 0.950 . S
C689 C686 1.387 . S
C690 C691 1.387 1_545 S
C690 H694 0.950 . S
C690 C699 1.390 . S
C691 C690 1.387 1_565 S
C691 C693 1.387 . S
H692 C699 0.950 . S
C693 C691 1.387 . S
C693 C695 1.390 . S
C693 H697 0.950 . S
H694 C690 0.950 . S
C695 C693 1.390 . S
C695 C696 1.387 . S
C695 H698 0.950 . S
C696 C695 1.387 . S
C696 C699 1.387 1_565 S
H697 C693 0.950 . S
H698 C695 0.950 . S
C699 C690 1.390 . S
C699 H692 0.950 . S
C699 C696 1.387 1_545 S
C700 C701 1.387 . S
C700 H704 0.950 . S
C700 C709 1.390 . S
C701 C700 1.387 . S
C701 C703 1.387 . S
H702 C709 0.950 . S
C703 C701 1.387 . S
C703 C705 1.390 . S
C703 H707 0.950 . S
H704 C700 0.950 . S
C705 C703 1.390 . S
C705 C706 1.387 . S
C705 H708 0.950 . S
C706 C705 1.387 . S
C706 C709 1.387 . S
H707 C703 0.950 . S
H708 C705 0.950 . S
C709 C700 1.390 . S
C709 H702 0.950 . S
C709 C706 1.387 . S
C710 C711 1.387 . S
C710 H714 0.950 . S
C710 C719 1.390 . S
C711 C710 1.387 . S
C711 C713 1.387 . S
H712 C719 0.950 . S
C713 C711 1.387 . S
C713 C715 1.390 . S
C713 H717 0.950 . S
H714 C710 0.950 . S
C715 C713 1.390 . S
C715 C716 1.387 . S
C715 H718 0.950 . S
C716 C715 1.387 . S
C716 C719 1.387 . S
H717 C713 0.950 . S
H718 C715 0.950 . S
C719 C710 1.390 . S
C719 H712 0.950 . S
C719 C716 1.387 . S
C481 C255 2.632 . S
C486 C329 2.998 1_545 S
C496 C369 3.023 . S
C491 C295 2.658 . S
C506 C409 3.028 . S
C501 C175 2.665 . S
C516 C449 3.001 1_455 S
C511 C215 2.637 . S
C526 C338 2.999 . S
C521 C95 2.634 . S
C531 C135 2.664 . S
C536 C378 3.025 . S
C541 C15 2.667 . S
C546 C418 3.027 . S
C551 C55 2.640 1_655 S
C556 C458 3.001 1_655 S
C566 C335 0.770 . S
C561 C221 0.768 1_655 S
C576 C375 0.760 . S
C571 C261 0.763 1_565 S
C586 C415 0.717 . S
C581 C301 0.714 . S
C591 C181 0.715 . S
C596 C455 0.715 . S
C601 C61 0.761 . S
C606 C326 0.765 . S
C616 C366 0.767 . S
C611 C101 0.762 . S
C626 C406 0.726 . S
C621 C141 0.732 . S
C631 C21 0.734 . S
C636 C446 0.732 . S
C641 C202 3.621 . S
C646 C339 4.083 . S
C651 C242 3.583 . S
C656 C379 4.052 . S
C666 C419 4.043 . S
C661 C282 3.564 . S
C676 C459 4.080 . S
C671 C162 3.598 . S
C681 C42 3.641 1_655 S
C686 C330 4.092 . S
C696 C370 4.053 . S
C691 C82 3.604 1_565 S
C706 C410 4.044 . S
C701 C122 3.605 . S
C711 C2 3.643 . S
C716 C450 4.085 . S
