# Generated by pormake.
# Topology ocu, (6,8)-cn, num edge types: 1
# Building blocks:
#     Node 0, Type 0, BuildingBlock: KUMBUR_clean_sbu_1, # of connection points: 6
#     Node 1, Type 0, BuildingBlock: KUMBUR_clean_sbu_1, # of connection points: 6
#     Node 2, Type 0, BuildingBlock: KUMBUR_clean_sbu_1, # of connection points: 6
#     Node 3, Type 0, BuildingBlock: KUMBUR_clean_sbu_1, # of connection points: 6
#     Node 4, Type 0, BuildingBlock: KUMBUR_clean_sbu_1, # of connection points: 6
#     Node 5, Type 0, BuildingBlock: KUMBUR_clean_sbu_1, # of connection points: 6
#     Node 6, Type 0, BuildingBlock: KUMBUR_clean_sbu_1, # of connection points: 6
#     Node 7, Type 0, BuildingBlock: KUMBUR_clean_sbu_1, # of connection points: 6
#     Node 8, Type 1, BuildingBlock: VETTIZ_charged_sbu_0, # of connection points: 8
#     Node 9, Type 1, BuildingBlock: VETTIZ_charged_sbu_0, # of connection points: 8
#     Node 10, Type 1, BuildingBlock: VETTIZ_charged_sbu_0, # of connection points: 8
#     Node 11, Type 1, BuildingBlock: VETTIZ_charged_sbu_0, # of connection points: 8
#     Node 12, Type 1, BuildingBlock: VETTIZ_charged_sbu_0, # of connection points: 8
#     Node 13, Type 1, BuildingBlock: VETTIZ_charged_sbu_0, # of connection points: 8
#     Edge 14, Type (0, 1), BuildingBlock: MIFKUJ_clean_linker_0, # of connection points: 2
#     Edge 15, Type (0, 1), BuildingBlock: MIFKUJ_clean_linker_0, # of connection points: 2
#     Edge 16, Type (0, 1), BuildingBlock: MIFKUJ_clean_linker_0, # of connection points: 2
#     Edge 17, Type (0, 1), BuildingBlock: MIFKUJ_clean_linker_0, # of connection points: 2
#     Edge 18, Type (0, 1), BuildingBlock: MIFKUJ_clean_linker_0, # of connection points: 2
#     Edge 19, Type (0, 1), BuildingBlock: MIFKUJ_clean_linker_0, # of connection points: 2
#     Edge 20, Type (0, 1), BuildingBlock: MIFKUJ_clean_linker_0, # of connection points: 2
#     Edge 21, Type (0, 1), BuildingBlock: MIFKUJ_clean_linker_0, # of connection points: 2
#     Edge 22, Type (0, 1), BuildingBlock: MIFKUJ_clean_linker_0, # of connection points: 2
#     Edge 23, Type (0, 1), BuildingBlock: MIFKUJ_clean_linker_0, # of connection points: 2
#     Edge 24, Type (0, 1), BuildingBlock: MIFKUJ_clean_linker_0, # of connection points: 2
#     Edge 25, Type (0, 1), BuildingBlock: MIFKUJ_clean_linker_0, # of connection points: 2
#     Edge 26, Type (0, 1), BuildingBlock: MIFKUJ_clean_linker_0, # of connection points: 2
#     Edge 27, Type (0, 1), BuildingBlock: MIFKUJ_clean_linker_0, # of connection points: 2
#     Edge 28, Type (0, 1), BuildingBlock: MIFKUJ_clean_linker_0, # of connection points: 2
#     Edge 29, Type (0, 1), BuildingBlock: MIFKUJ_clean_linker_0, # of connection points: 2
#     Edge 30, Type (0, 1), BuildingBlock: MIFKUJ_clean_linker_0, # of connection points: 2
#     Edge 31, Type (0, 1), BuildingBlock: MIFKUJ_clean_linker_0, # of connection points: 2
#     Edge 32, Type (0, 1), BuildingBlock: MIFKUJ_clean_linker_0, # of connection points: 2
#     Edge 33, Type (0, 1), BuildingBlock: MIFKUJ_clean_linker_0, # of connection points: 2
#     Edge 34, Type (0, 1), BuildingBlock: MIFKUJ_clean_linker_0, # of connection points: 2
#     Edge 35, Type (0, 1), BuildingBlock: MIFKUJ_clean_linker_0, # of connection points: 2
#     Edge 36, Type (0, 1), BuildingBlock: MIFKUJ_clean_linker_0, # of connection points: 2
#     Edge 37, Type (0, 1), BuildingBlock: MIFKUJ_clean_linker_0, # of connection points: 2
#     Edge 38, Type (0, 1), BuildingBlock: MIFKUJ_clean_linker_0, # of connection points: 2
#     Edge 39, Type (0, 1), BuildingBlock: MIFKUJ_clean_linker_0, # of connection points: 2
#     Edge 40, Type (0, 1), BuildingBlock: MIFKUJ_clean_linker_0, # of connection points: 2
#     Edge 41, Type (0, 1), BuildingBlock: MIFKUJ_clean_linker_0, # of connection points: 2
#     Edge 42, Type (0, 1), BuildingBlock: MIFKUJ_clean_linker_0, # of connection points: 2
#     Edge 43, Type (0, 1), BuildingBlock: MIFKUJ_clean_linker_0, # of connection points: 2
#     Edge 44, Type (0, 1), BuildingBlock: MIFKUJ_clean_linker_0, # of connection points: 2
#     Edge 45, Type (0, 1), BuildingBlock: MIFKUJ_clean_linker_0, # of connection points: 2
#     Edge 46, Type (0, 1), BuildingBlock: MIFKUJ_clean_linker_0, # of connection points: 2
#     Edge 47, Type (0, 1), BuildingBlock: MIFKUJ_clean_linker_0, # of connection points: 2
#     Edge 48, Type (0, 1), BuildingBlock: MIFKUJ_clean_linker_0, # of connection points: 2
#     Edge 49, Type (0, 1), BuildingBlock: MIFKUJ_clean_linker_0, # of connection points: 2
#     Edge 50, Type (0, 1), BuildingBlock: MIFKUJ_clean_linker_0, # of connection points: 2
#     Edge 51, Type (0, 1), BuildingBlock: MIFKUJ_clean_linker_0, # of connection points: 2
#     Edge 52, Type (0, 1), BuildingBlock: MIFKUJ_clean_linker_0, # of connection points: 2
#     Edge 53, Type (0, 1), BuildingBlock: MIFKUJ_clean_linker_0, # of connection points: 2
#     Edge 54, Type (0, 1), BuildingBlock: MIFKUJ_clean_linker_0, # of connection points: 2
#     Edge 55, Type (0, 1), BuildingBlock: MIFKUJ_clean_linker_0, # of connection points: 2
#     Edge 56, Type (0, 1), BuildingBlock: MIFKUJ_clean_linker_0, # of connection points: 2
#     Edge 57, Type (0, 1), BuildingBlock: MIFKUJ_clean_linker_0, # of connection points: 2
#     Edge 58, Type (0, 1), BuildingBlock: MIFKUJ_clean_linker_0, # of connection points: 2
#     Edge 59, Type (0, 1), BuildingBlock: MIFKUJ_clean_linker_0, # of connection points: 2
#     Edge 60, Type (0, 1), BuildingBlock: MIFKUJ_clean_linker_0, # of connection points: 2
#     Edge 61, Type (0, 1), BuildingBlock: MIFKUJ_clean_linker_0, # of connection points: 2
# Relax obj value: 0.057
# Max RMSD: 0.136
# Mean RMSD: 0.097
data_MOF--net-ocu--node1-KUMBUR_clean_sbu_1--node2-VETTIZ_charged_sbu_0--edge1-MIFKUJ_clean_linker_0
_symmetry_space_group_name_H-M    P1
_symmetry_Int_Tables_number       1
_symmetry_cell_setting            triclinic
loop_
_symmetry_equiv_pos_as_xyz
'x, y, z'
_cell_length_a     49.941453
_cell_length_b     49.800504
_cell_length_c     51.804621
_cell_angle_alpha  98.257879
_cell_angle_beta   82.40248
_cell_angle_gamma 101.77994
loop_
_atom_site_label
_atom_site_type_symbol
_atom_site_fract_x
_atom_site_fract_y
_atom_site_fract_z
_atom_type_partial_charge
Tb0 Tb 0.2405 0.26093 0.24053 0.0
C1 C 0.31075 0.33098 0.32894 0.0
N2 N 0.31982 0.31738 0.30577 0.0
C3 C 0.35775 0.3551 0.29993 0.0
C4 C 0.32457 0.35752 0.33822 0.0
C5 C 0.34353 0.32869 0.29164 0.0
C6 C 0.34811 0.36969 0.32319 0.0
C7 C 0.2783 0.33093 0.36827 0.0
C8 C 0.28789 0.31791 0.34382 0.0
C9 C 0.29171 0.35758 0.37734 0.0
C10 C 0.31475 0.37086 0.36234 0.0
Tb11 Tb 0.29437 0.27447 0.29487 0.0
N12 N 0.27479 0.2925 0.33402 0.0
C13 C 0.25563 0.31667 0.38289 0.0
C14 C 0.25364 0.27791 0.3488 0.0
C15 C 0.2435 0.2899 0.37326 0.0
H16 H 0.35198 0.31725 0.27421 0.0
H17 H 0.22653 0.27839 0.38476 0.0
H18 H 0.18132 0.22046 0.25994 0.0
H19 H 0.30724 0.25702 0.14981 0.0
H20 H 0.24458 0.25715 0.34171 0.0
H21 H 0.24765 0.32592 0.40182 0.0
H22 H 0.28969 0.27821 0.1931 0.0
H23 H 0.37635 0.36405 0.28854 0.0
H24 H 0.28456 0.36802 0.39603 0.0
H25 H 0.32505 0.39131 0.36973 0.0
H26 H 0.15528 0.1744 0.24523 0.0
H27 H 0.35931 0.39006 0.32964 0.0
H28 H 0.28479 0.21012 0.13225 0.0
N29 N 0.21368 0.21906 0.22887 0.0
C30 C 0.22233 0.20542 0.20559 0.0
C31 C 0.1743 0.18272 0.23407 0.0
C32 C 0.20755 0.17948 0.19591 0.0
C33 C 0.18945 0.20858 0.24268 0.0
C34 C 0.18354 0.16796 0.21074 0.0
N35 N 0.25925 0.24306 0.20086 0.0
C36 C 0.28036 0.25757 0.18596 0.0
C37 C 0.2544 0.20527 0.16602 0.0
C38 C 0.24547 0.21808 0.19082 0.0
C39 C 0.27725 0.21927 0.15139 0.0
C40 C 0.29007 0.24568 0.16128 0.0
H41 H 0.1716 0.14806 0.20399 0.0
H42 H 0.2058 0.14621 0.16384 0.0
H43 H 0.24681 0.1688 0.13768 0.0
O44 O 0.23948 0.29483 0.22072 0.0
O45 O 0.27351 0.23526 0.23361 0.0
O46 O 0.3113 0.25598 0.25638 0.0
O47 O 0.20439 0.26208 0.22434 0.0
O48 O 0.27017 0.29927 0.24883 0.0
O49 O 0.31078 0.29111 0.25793 0.0
O50 O 0.2968 0.24233 0.31637 0.0
O51 O 0.26144 0.30029 0.30071 0.0
O52 O 0.22319 0.27808 0.27938 0.0
O53 O 0.33134 0.27507 0.31049 0.0
O54 O 0.26486 0.23556 0.28773 0.0
O55 O 0.22432 0.24307 0.2771 0.0
C56 C 0.29969 0.23791 0.23779 0.0
C57 C 0.19566 0.30654 0.22321 0.0
C58 C 0.17328 0.34131 0.21056 0.0
C59 C 0.15949 0.34383 0.23606 0.0
C60 C 0.18175 0.30962 0.24846 0.0
C61 C 0.16391 0.32829 0.25489 0.0
C62 C 0.19146 0.32247 0.20426 0.0
C63 C 0.29689 0.30234 0.244 0.0
C64 C 0.21387 0.28616 0.21643 0.0
C65 C 0.21682 0.16622 0.17154 0.0
C66 C 0.24015 0.1791 0.15661 0.0
C67 C 0.23509 0.29727 0.29695 0.0
C68 C 0.34095 0.23125 0.31368 0.0
C69 C 0.36262 0.19633 0.32726 0.0
C70 C 0.37692 0.19362 0.30202 0.0
C71 C 0.35521 0.22775 0.28861 0.0
C72 C 0.34469 0.21548 0.33304 0.0
C73 C 0.37307 0.20905 0.28284 0.0
C74 C 0.23794 0.23188 0.29146 0.0
C75 C 0.32254 0.25157 0.31977 0.0
H76 H 0.1447 0.35735 0.24129 0.0
H77 H 0.1843 0.29713 0.26298 0.0
H78 H 0.15308 0.33037 0.27439 0.0
H79 H 0.20227 0.32015 0.18473 0.0
H80 H 0.3915 0.17982 0.29726 0.0
H81 H 0.35282 0.23982 0.27364 0.0
H82 H 0.33358 0.21799 0.3524 0.0
H83 H 0.38418 0.20671 0.26349 0.0
Tb84 Tb 0.74451 0.2942 0.2678 0.0
C85 C 0.82529 0.22289 0.21851 0.0
N86 N 0.7988 0.21463 0.22871 0.0
C87 C 0.79031 0.18362 0.18934 0.0
C88 C 0.83492 0.21283 0.19284 0.0
C89 C 0.78191 0.19385 0.21509 0.0
C90 C 0.81675 0.19356 0.17797 0.0
C91 C 0.8712 0.24841 0.22532 0.0
C92 C 0.84327 0.24032 0.23445 0.0
C93 C 0.88065 0.23935 0.19942 0.0
C94 C 0.86254 0.22158 0.18322 0.0
Tb95 Tb 0.78746 0.2345 0.27058 0.0
N96 N 0.8332 0.24937 0.2591 0.0
C97 C 0.88877 0.26517 0.24261 0.0
C98 C 0.85045 0.26445 0.27653 0.0
C99 C 0.8784 0.27296 0.26841 0.0
H100 H 0.76218 0.18442 0.22406 0.0
H101 H 0.8919 0.28557 0.282 0.0
H102 H 0.75569 0.33228 0.32428 0.0
H103 H 0.64976 0.25123 0.22432 0.0
H104 H 0.84254 0.2702 0.29654 0.0
H105 H 0.91039 0.27188 0.23635 0.0
H106 H 0.69958 0.26886 0.22384 0.0
H107 H 0.77654 0.16765 0.17849 0.0
H108 H 0.90199 0.24555 0.1919 0.0
H109 H 0.87029 0.21416 0.16352 0.0
H110 H 0.72856 0.34502 0.3661 0.0
H111 H 0.8233 0.18536 0.15814 0.0
H112 H 0.61932 0.25628 0.26578 0.0
N113 N 0.72125 0.30722 0.30703 0.0
C114 C 0.69352 0.29891 0.30926 0.0
C115 C 0.71848 0.33182 0.35034 0.0
C116 C 0.67715 0.30582 0.33262 0.0
C117 C 0.73382 0.32444 0.32671 0.0
C118 C 0.69005 0.32219 0.35344 0.0
N119 N 0.69822 0.2795 0.26516 0.0
C120 C 0.6869 0.26919 0.24232 0.0
C121 C 0.65282 0.27591 0.2887 0.0
C122 C 0.68164 0.28408 0.28768 0.0
C123 C 0.64137 0.26295 0.26582 0.0
C124 C 0.65848 0.25998 0.24242 0.0
H125 H 0.67821 0.32799 0.37173 0.0
H126 H 0.63551 0.30176 0.35191 0.0
H127 H 0.6142 0.27625 0.31315 0.0
O128 O 0.72722 0.32165 0.25006 0.0
O129 O 0.73675 0.27115 0.30232 0.0
O130 O 0.74385 0.22745 0.28593 0.0
O131 O 0.76697 0.33463 0.2655 0.0
O132 O 0.7414 0.25935 0.23588 0.0
O133 O 0.74789 0.22101 0.25332 0.0
O134 O 0.79788 0.2242 0.30553 0.0
O135 O 0.80641 0.27276 0.25312 0.0
O136 O 0.77111 0.2806 0.23364 0.0
O137 O 0.79602 0.19489 0.27102 0.0
O138 O 0.78832 0.26727 0.30386 0.0
O139 O 0.78262 0.30647 0.28724 0.0
C140 C 0.73098 0.24422 0.30276 0.0
C141 C 0.75098 0.36919 0.24572 0.0
C142 C 0.74038 0.40003 0.21722 0.0
C143 C 0.75842 0.422 0.22976 0.0
C144 C 0.76898 0.39148 0.25773 0.0
C145 C 0.77252 0.41772 0.24986 0.0
C146 C 0.73651 0.37359 0.22558 0.0
C147 C 0.73666 0.23237 0.23689 0.0
C148 C 0.74835 0.34134 0.25365 0.0
C149 C 0.6485 0.29678 0.33412 0.0
C150 C 0.63637 0.28201 0.31213 0.0
C151 C 0.7975 0.28253 0.23435 0.0
C152 C 0.7846 0.17732 0.31178 0.0
C153 C 0.78476 0.14616 0.34423 0.0
C154 C 0.75631 0.13687 0.34317 0.0
C155 C 0.75638 0.1674 0.31073 0.0
C156 C 0.79875 0.16663 0.32846 0.0
C157 C 0.74229 0.14743 0.3265 0.0
C158 C 0.79269 0.2943 0.30384 0.0
C159 C 0.79943 0.19899 0.29579 0.0
H160 H 0.76146 0.44265 0.22419 0.0
H161 H 0.78034 0.38865 0.27325 0.0
H162 H 0.78634 0.43481 0.25935 0.0
H163 H 0.72295 0.35636 0.21592 0.0
H164 H 0.74497 0.12099 0.3548 0.0
H165 H 0.74537 0.17503 0.2976 0.0
H166 H 0.82058 0.17442 0.32929 0.0
H167 H 0.72046 0.13993 0.32565 0.0
Tb168 Tb 0.76597 0.7412 0.29223 0.0
C169 C 0.82455 0.80192 0.20447 0.0
N170 N 0.81302 0.81258 0.22801 0.0
C171 C 0.85507 0.84536 0.23369 0.0
C172 C 0.8522 0.8117 0.19525 0.0
C173 C 0.82739 0.83539 0.24167 0.0
C174 C 0.86772 0.83309 0.21065 0.0
C175 C 0.81835 0.77238 0.1633 0.0
C176 C 0.80796 0.78262 0.18861 0.0
C177 C 0.84621 0.78104 0.15456 0.0
C178 C 0.86308 0.80071 0.17048 0.0
Tb179 Tb 0.76774 0.79301 0.23918 0.0
N180 N 0.78127 0.77432 0.1979 0.0
C181 C 0.80023 0.75433 0.14735 0.0
C182 C 0.7631 0.75812 0.18191 0.0
C183 C 0.77237 0.74754 0.15655 0.0
H184 H 0.81766 0.84653 0.25852 0.0
H185 H 0.75806 0.73416 0.14415 0.0
H186 H 0.70241 0.70645 0.29393 0.0
H187 H 0.82614 0.7938 0.37065 0.0
H188 H 0.74162 0.75305 0.18898 0.0
H189 H 0.80739 0.74603 0.12774 0.0
H190 H 0.81923 0.76892 0.32659 0.0
H191 H 0.86647 0.86291 0.24505 0.0
H192 H 0.8547 0.77324 0.13526 0.0
H193 H 0.88425 0.80799 0.16307 0.0
H194 H 0.66082 0.70066 0.32607 0.0
H195 H 0.88904 0.84116 0.2043 0.0
H196 H 0.78601 0.79799 0.40355 0.0
N197 N 0.72663 0.7349 0.3203 0.0
C198 C 0.72827 0.74753 0.34521 0.0
C199 C 0.67961 0.71409 0.33163 0.0
C200 C 0.70516 0.74512 0.36409 0.0
C201 C 0.7031 0.71742 0.31349 0.0
C202 C 0.68053 0.7283 0.35695 0.0
N203 N 0.7755 0.76207 0.33331 0.0
C204 C 0.80149 0.77172 0.34034 0.0
C205 C 0.75645 0.77523 0.3775 0.0
C206 C 0.7535 0.76225 0.35174 0.0
C207 C 0.78284 0.78768 0.38401 0.0
C208 C 0.80552 0.78536 0.36549 0.0
H209 H 0.66229 0.7258 0.37091 0.0
H210 H 0.68998 0.75798 0.40419 0.0
H211 H 0.73495 0.78448 0.41594 0.0
O212 O 0.783 0.71661 0.31336 0.0
O213 O 0.73252 0.76621 0.29735 0.0
O214 O 0.75098 0.80687 0.27954 0.0
O215 O 0.76004 0.69833 0.28111 0.0
O216 O 0.80197 0.77434 0.28588 0.0
O217 O 0.7853 0.8109 0.27605 0.0
O218 O 0.73311 0.79977 0.22368 0.0
O219 O 0.78187 0.75274 0.2275 0.0
O220 O 0.80213 0.74764 0.26287 0.0
O221 O 0.77002 0.8303 0.22353 0.0
O222 O 0.73016 0.76214 0.24542 0.0
O223 O 0.74287 0.72427 0.25812 0.0
C224 C 0.73376 0.793 0.29688 0.0
C225 C 0.79806 0.6785 0.28669 0.0
C226 C 0.83509 0.6552 0.29335 0.0
C227 C 0.83963 0.64848 0.26599 0.0
C228 C 0.80309 0.67126 0.25947 0.0
C229 C 0.82373 0.65642 0.24929 0.0
C230 C 0.81408 0.67024 0.30357 0.0
C231 C 0.80144 0.80087 0.28874 0.0
C232 C 0.77604 0.69432 0.29751 0.0
C233 C 0.70759 0.75918 0.38946 0.0
C234 C 0.73318 0.77433 0.39612 0.0
C235 C 0.80063 0.7433 0.23743 0.0
C236 C 0.72803 0.84602 0.22732 0.0
C237 C 0.6961 0.87383 0.21805 0.0
C238 C 0.69523 0.88598 0.24435 0.0
C239 C 0.72708 0.85863 0.25331 0.0
C240 C 0.7126 0.85369 0.20973 0.0
C241 C 0.71064 0.87841 0.2618 0.0
C242 C 0.72761 0.73528 0.24511 0.0
C243 C 0.74457 0.82447 0.21846 0.0
H244 H 0.85517 0.63655 0.25744 0.0
H245 H 0.79111 0.67705 0.24593 0.0
H246 H 0.82737 0.65095 0.2283 0.0
H247 H 0.81034 0.67575 0.32456 0.0
H248 H 0.68306 0.90176 0.25132 0.0
H249 H 0.73913 0.85321 0.26694 0.0
H250 H 0.71326 0.84379 0.18966 0.0
H251 H 0.71 0.88804 0.28193 0.0
Tb252 Tb 0.25084 0.7809 0.26469 0.0
C253 C 0.29875 0.67335 0.2838 0.0
N254 N 0.30255 0.70038 0.29359 0.0
C255 C 0.3074 0.68865 0.33586 0.0
C256 C 0.29793 0.65261 0.29988 0.0
C257 C 0.30838 0.70841 0.31893 0.0
C258 C 0.30178 0.66058 0.32637 0.0
C259 C 0.29716 0.63937 0.2454 0.0
C260 C 0.2988 0.66692 0.25707 0.0
C261 C 0.29431 0.61824 0.26143 0.0
C262 C 0.29495 0.62488 0.28862 0.0
Tb263 Tb 0.30451 0.73136 0.26459 0.0
N264 N 0.30316 0.6881 0.24238 0.0
C265 C 0.29987 0.63415 0.21799 0.0
C266 C 0.30768 0.68332 0.21568 0.0
C267 C 0.30554 0.65629 0.20306 0.0
H268 H 0.31317 0.73014 0.32616 0.0
H269 H 0.30852 0.65258 0.18186 0.0
H270 H 0.21895 0.74471 0.21327 0.0
H271 H 0.30387 0.88666 0.27806 0.0
H272 H 0.31248 0.7004 0.20407 0.0
H273 H 0.29867 0.61325 0.20821 0.0
H274 H 0.28182 0.8413 0.29202 0.0
H275 H 0.3113 0.69507 0.35609 0.0
H276 H 0.29285 0.59688 0.25289 0.0
H277 H 0.29415 0.60855 0.3006 0.0
H278 H 0.22121 0.74724 0.16619 0.0
H279 H 0.30177 0.64539 0.33936 0.0
H280 H 0.30732 0.89396 0.23139 0.0
N281 N 0.2492 0.78111 0.22052 0.0
C282 C 0.2622 0.805 0.21086 0.0
C283 C 0.23347 0.76334 0.17837 0.0
C284 C 0.26262 0.80828 0.1842 0.0
C285 C 0.23317 0.76136 0.20506 0.0
C286 C 0.24875 0.78666 0.16775 0.0
N287 N 0.27361 0.82279 0.2535 0.0
C288 C 0.28356 0.84407 0.27155 0.0
C289 C 0.28662 0.85232 0.21918 0.0
C290 C 0.27411 0.82677 0.22804 0.0
C291 C 0.29762 0.87398 0.23741 0.0
C292 C 0.29585 0.8699 0.26374 0.0
H293 H 0.24858 0.78834 0.14715 0.0
H294 H 0.27669 0.83613 0.15457 0.0
H295 H 0.29767 0.8747 0.18523 0.0
O296 O 0.22848 0.8035 0.29406 0.0
O297 O 0.29535 0.79026 0.25224 0.0
O298 O 0.30318 0.75021 0.2295 0.0
O299 O 0.21383 0.79 0.25636 0.0
O300 O 0.27125 0.79264 0.30056 0.0
O301 O 0.30561 0.76622 0.29552 0.0
O302 O 0.34405 0.72153 0.25841 0.0
O303 O 0.27135 0.72761 0.29703 0.0
O304 O 0.23464 0.74518 0.28664 0.0
O305 O 0.33859 0.76367 0.26807 0.0
O306 O 0.27641 0.72289 0.23358 0.0
O307 O 0.23641 0.73696 0.25189 0.0
C308 C 0.3066 0.77706 0.23121 0.0
C309 C 0.21084 0.83548 0.27466 0.0
C310 C 0.21935 0.88458 0.29135 0.0
C311 C 0.21007 0.89037 0.26857 0.0
C312 C 0.20139 0.84171 0.25226 0.0
C313 C 0.20143 0.86907 0.24911 0.0
C314 C 0.22051 0.85709 0.2936 0.0
C315 C 0.2937 0.78669 0.30732 0.0
C316 C 0.2119 0.80674 0.27785 0.0
C317 C 0.27598 0.83334 0.17503 0.0
C318 C 0.28783 0.85535 0.1925 0.0
C319 C 0.24537 0.7303 0.30034 0.0
C320 C 0.37854 0.75629 0.24181 0.0
C321 C 0.39591 0.75738 0.19551 0.0
C322 C 0.42187 0.77071 0.20356 0.0
C323 C 0.40431 0.76938 0.24923 0.0
C324 C 0.37418 0.75124 0.21536 0.0
C325 C 0.42584 0.77676 0.2301 0.0
C326 C 0.24937 0.71882 0.23707 0.0
C327 C 0.35623 0.74735 0.26171 0.0
H328 H 0.20824 0.91111 0.26614 0.0
H329 H 0.19414 0.82549 0.2371 0.0
H330 H 0.19407 0.87373 0.23184 0.0
H331 H 0.22868 0.85234 0.31038 0.0
H332 H 0.43981 0.77554 0.18977 0.0
H333 H 0.40784 0.77357 0.26974 0.0
H334 H 0.35379 0.74144 0.21088 0.0
H335 H 0.44597 0.78651 0.23582 0.0
Tb336 Tb 0.23751 0.7969 0.76692 0.0
C337 C 0.31634 0.71805 0.7152 0.0
N338 N 0.29062 0.71062 0.72748 0.0
C339 C 0.28001 0.67428 0.69252 0.0
C340 C 0.32479 0.7041 0.69081 0.0
C341 C 0.27255 0.68878 0.71671 0.0
C342 C 0.30618 0.68204 0.67944 0.0
C343 C 0.36102 0.74837 0.71521 0.0
C344 C 0.3342 0.73991 0.72721 0.0
C345 C 0.3695 0.73471 0.69077 0.0
C346 C 0.35144 0.71262 0.67861 0.0
Tb347 Tb 0.28033 0.73674 0.76618 0.0
N348 N 0.32495 0.75308 0.75056 0.0
C349 C 0.37846 0.7703 0.72816 0.0
C350 C 0.34244 0.77331 0.76397 0.0
C351 C 0.3692 0.7826 0.75276 0.0
H352 H 0.25247 0.68221 0.72689 0.0
H353 H 0.38274 0.79914 0.76319 0.0
H354 H 0.2558 0.84075 0.81882 0.0
H355 H 0.13825 0.73917 0.74166 0.0
H356 H 0.33618 0.7821 0.78342 0.0
H357 H 0.39921 0.77755 0.71956 0.0
H358 H 0.187 0.75945 0.73274 0.0
H359 H 0.26558 0.65707 0.68401 0.0
H360 H 0.39001 0.74101 0.68115 0.0
H361 H 0.3583 0.70223 0.6598 0.0
H362 H 0.23388 0.85672 0.86231 0.0
H363 H 0.31187 0.67078 0.6607 0.0
H364 H 0.11359 0.74955 0.78532 0.0
N365 N 0.21943 0.8137 0.80728 0.0
C366 C 0.19218 0.80418 0.81365 0.0
C367 C 0.22196 0.84185 0.84884 0.0
C368 C 0.1788 0.81286 0.83818 0.0
C369 C 0.23437 0.8326 0.82426 0.0
C370 C 0.19409 0.83187 0.85588 0.0
N371 N 0.1918 0.77698 0.77227 0.0
C372 C 0.17743 0.76209 0.75255 0.0
C373 C 0.14962 0.77492 0.80138 0.0
C374 C 0.17799 0.78498 0.79567 0.0
C375 C 0.13546 0.75741 0.78196 0.0
C376 C 0.14934 0.75138 0.75729 0.0
H377 H 0.18456 0.83903 0.87496 0.0
H378 H 0.14009 0.80854 0.86305 0.0
H379 H 0.11441 0.77592 0.83065 0.0
O380 O 0.2223 0.81045 0.73599 0.0
O381 O 0.23171 0.77358 0.80123 0.0
O382 O 0.23767 0.72979 0.78417 0.0
O383 O 0.2355 0.839 0.76889 0.0
O384 O 0.23573 0.76285 0.73416 0.0
O385 O 0.23953 0.72425 0.75235 0.0
O386 O 0.29692 0.72957 0.79938 0.0
O387 O 0.28835 0.7614 0.73278 0.0
O388 O 0.28001 0.8048 0.74891 0.0
O389 O 0.28308 0.696 0.7705 0.0
O390 O 0.28555 0.77204 0.79762 0.0
O391 O 0.27761 0.81101 0.78212 0.0
C392 C 0.22569 0.74668 0.80163 0.0
C393 C 0.24248 0.8557 0.72754 0.0
C394 C 0.24278 0.88368 0.69224 0.0
C395 C 0.2716 0.89101 0.69145 0.0
C396 C 0.27117 0.86365 0.72658 0.0
C397 C 0.28561 0.88108 0.70855 0.0
C398 C 0.22835 0.86584 0.7104 0.0
C399 C 0.23078 0.73581 0.73456 0.0
C400 C 0.22722 0.83627 0.74576 0.0
C401 C 0.15076 0.80218 0.84428 0.0
C402 C 0.13617 0.78339 0.82587 0.0
C403 C 0.29308 0.78825 0.73221 0.0
C404 C 0.32043 0.69214 0.79262 0.0
C405 C 0.34936 0.67288 0.81689 0.0
C406 C 0.36902 0.67286 0.79481 0.0
C407 C 0.34016 0.69132 0.7707 0.0
C408 C 0.32495 0.68253 0.81568 0.0
C409 C 0.36433 0.68189 0.77185 0.0
C410 C 0.28918 0.79913 0.79779 0.0
C411 C 0.29538 0.70329 0.7917 0.0
H412 H 0.2833 0.90482 0.6779 0.0
H413 H 0.28238 0.85643 0.73983 0.0
H414 H 0.30777 0.88702 0.70788 0.0
H415 H 0.20619 0.85956 0.711 0.0
H416 H 0.38785 0.66537 0.79516 0.0
H417 H 0.3369 0.69779 0.75263 0.0
H418 H 0.30976 0.68288 0.83268 0.0
H419 H 0.37943 0.68146 0.75484 0.0
Tb420 Tb 0.25573 0.23337 0.79504 0.0
C421 C 0.32388 0.31108 0.71312 0.0
N422 N 0.30971 0.31825 0.7365 0.0
C423 C 0.34559 0.35743 0.74536 0.0
C424 C 0.34969 0.32672 0.70502 0.0
C425 C 0.31992 0.34141 0.75243 0.0
C426 C 0.36062 0.34998 0.72162 0.0
C427 C 0.32564 0.28055 0.67222 0.0
C428 C 0.31214 0.28823 0.697 0.0
C429 C 0.35154 0.29583 0.66418 0.0
C430 C 0.36357 0.31882 0.68056 0.0
Tb431 Tb 0.26841 0.29 0.74595 0.0
N432 N 0.28734 0.27351 0.70574 0.0
C433 C 0.31257 0.25786 0.65626 0.0
C434 C 0.27387 0.25231 0.68971 0.0
C435 C 0.28644 0.2439 0.66493 0.0
H436 H 0.30805 0.34794 0.77035 0.0
H437 H 0.27584 0.22685 0.65244 0.0
H438 H 0.20835 0.17971 0.77389 0.0
H439 H 0.25769 0.30446 0.88448 0.0
H440 H 0.25347 0.24197 0.69588 0.0
H441 H 0.32224 0.25127 0.63706 0.0
H442 H 0.27691 0.2841 0.84192 0.0
H443 H 0.35364 0.37567 0.7581 0.0
H444 H 0.36235 0.29016 0.64527 0.0
H445 H 0.38347 0.33054 0.67402 0.0
H446 H 0.16175 0.1571 0.78971 0.0
H447 H 0.38042 0.36254 0.71613 0.0
H448 H 0.21159 0.28359 0.90389 0.0
N449 N 0.21251 0.21017 0.80716 0.0
C450 C 0.20118 0.21911 0.83143 0.0
C451 C 0.1725 0.1747 0.80152 0.0
C452 C 0.17474 0.20638 0.84149 0.0
C453 C 0.19877 0.18795 0.79235 0.0
C454 C 0.16037 0.18401 0.82614 0.0
N455 N 0.24099 0.254 0.83527 0.0
C456 C 0.25639 0.27557 0.8493 0.0
C457 C 0.20463 0.25172 0.87104 0.0
C458 C 0.21602 0.24146 0.84609 0.0
C459 C 0.21974 0.27485 0.88481 0.0
C460 C 0.24575 0.28675 0.8739 0.0
H461 H 0.14002 0.17365 0.83319 0.0
H462 H 0.14316 0.20689 0.87447 0.0
H463 H 0.16924 0.24667 0.90025 0.0
O464 O 0.28734 0.22584 0.81491 0.0
O465 O 0.22587 0.26234 0.79925 0.0
O466 O 0.25062 0.30303 0.78572 0.0
O467 O 0.25161 0.19465 0.80809 0.0
O468 O 0.29453 0.2639 0.79398 0.0
O469 O 0.28374 0.30371 0.78426 0.0
O470 O 0.23337 0.29416 0.72951 0.0
O471 O 0.29724 0.26007 0.73891 0.0
O472 O 0.27602 0.21955 0.75618 0.0
O473 O 0.26709 0.32834 0.73383 0.0
O474 O 0.23147 0.25696 0.74505 0.0
O475 O 0.24135 0.21746 0.75675 0.0
C476 C 0.22897 0.28936 0.79887 0.0
C477 C 0.29295 0.17914 0.80787 0.0
C478 C 0.32324 0.15029 0.8182 0.0
C479 C 0.32136 0.13528 0.79317 0.0
C480 C 0.29181 0.16418 0.78277 0.0
C481 C 0.30614 0.14254 0.77542 0.0
C482 C 0.30914 0.17246 0.82539 0.0
C483 C 0.29908 0.29097 0.79521 0.0
C484 C 0.27569 0.20016 0.81652 0.0
C485 C 0.16346 0.2164 0.86643 0.0
C486 C 0.17834 0.23902 0.88115 0.0
C487 C 0.29523 0.23335 0.74028 0.0
C488 C 0.24038 0.32625 0.69883 0.0
C489 C 0.21535 0.34545 0.67074 0.0
C490 C 0.23272 0.33689 0.64883 0.0
C491 C 0.25775 0.31833 0.67672 0.0
C492 C 0.21934 0.34014 0.69579 0.0
C493 C 0.25388 0.32356 0.65189 0.0
C494 C 0.22865 0.22989 0.74265 0.0
C495 C 0.2433 0.31952 0.72499 0.0
H496 H 0.33178 0.11797 0.78733 0.0
H497 H 0.27917 0.16874 0.76917 0.0
H498 H 0.30499 0.13098 0.7561 0.0
H499 H 0.30985 0.18373 0.84489 0.0
H500 H 0.23018 0.3409 0.62937 0.0
H501 H 0.27425 0.3081 0.6785 0.0
H502 H 0.20584 0.34638 0.71278 0.0
H503 H 0.26735 0.31726 0.63494 0.0
Tb504 Tb 0.73167 0.30729 0.76968 0.0
C505 C 0.77677 0.20288 0.78734 0.0
N506 N 0.78565 0.23045 0.79259 0.0
C507 C 0.79672 0.22427 0.83476 0.0
C508 C 0.77603 0.18489 0.80615 0.0
C509 C 0.79698 0.24124 0.81535 0.0
C510 C 0.78563 0.19604 0.83036 0.0
C511 C 0.7632 0.164 0.75504 0.0
C512 C 0.77068 0.19267 0.76225 0.0
C513 C 0.76052 0.14592 0.77412 0.0
C514 C 0.767 0.15636 0.79966 0.0
Tb515 Tb 0.78468 0.2566 0.76012 0.0
N516 N 0.77465 0.21079 0.74433 0.0
C517 C 0.75993 0.15441 0.72868 0.0
C518 C 0.77363 0.20141 0.71831 0.0
C519 C 0.76556 0.1732 0.71017 0.0
H520 H 0.80543 0.26306 0.81872 0.0
H521 H 0.76418 0.16592 0.68958 0.0
H522 H 0.69585 0.27813 0.71823 0.0
H523 H 0.78821 0.41024 0.79264 0.0
H524 H 0.77914 0.21573 0.70381 0.0
H525 H 0.75428 0.13252 0.72226 0.0
H526 H 0.768 0.36241 0.80068 0.0
H527 H 0.80496 0.23297 0.85309 0.0
H528 H 0.75449 0.12381 0.76908 0.0
H529 H 0.76591 0.14214 0.81392 0.0
H530 H 0.69087 0.28976 0.67518 0.0
H531 H 0.78551 0.18293 0.84537 0.0
H532 H 0.7844 0.4261 0.75043 0.0
N533 N 0.72532 0.31458 0.72822 0.0
C534 C 0.73664 0.3404 0.7218 0.0
C535 C 0.70425 0.30401 0.68789 0.0
C536 C 0.73252 0.34876 0.69796 0.0
C537 C 0.70804 0.29701 0.71216 0.0
C538 C 0.71674 0.3299 0.68063 0.0
N539 N 0.75459 0.35054 0.76273 0.0
C540 C 0.76719 0.36868 0.78181 0.0
C541 C 0.76206 0.38648 0.73457 0.0
C542 C 0.7512 0.35915 0.73984 0.0
C543 C 0.77595 0.40487 0.75365 0.0
C544 C 0.77835 0.39596 0.77743 0.0
H545 H 0.71321 0.3355 0.66208 0.0
H546 H 0.73952 0.38294 0.6749 0.0
H547 H 0.76618 0.41568 0.70642 0.0
O548 O 0.71331 0.32872 0.80314 0.0
O549 O 0.77429 0.31788 0.75122 0.0
O550 O 0.78042 0.27765 0.72718 0.0
O551 O 0.69304 0.31734 0.76816 0.0
O552 O 0.75502 0.3113 0.80386 0.0
O553 O 0.79453 0.2961 0.78451 0.0
O554 O 0.82007 0.24167 0.74217 0.0
O555 O 0.75447 0.25391 0.79542 0.0
O556 O 0.71592 0.26786 0.78558 0.0
O557 O 0.82311 0.28225 0.76353 0.0
O558 O 0.75563 0.25144 0.73042 0.0
O559 O 0.71617 0.26488 0.75172 0.0
C560 C 0.7845 0.30463 0.72967 0.0
C561 C 0.69485 0.3631 0.78828 0.0
C562 C 0.71286 0.41143 0.80348 0.0
C563 C 0.70661 0.41914 0.78024 0.0
C564 C 0.68805 0.37139 0.7655 0.0
C565 C 0.69395 0.39923 0.76157 0.0
C566 C 0.7063 0.38339 0.80751 0.0
C567 C 0.78124 0.31009 0.80366 0.0
C568 C 0.69463 0.33362 0.79006 0.0
C569 C 0.74332 0.37595 0.69263 0.0
C570 C 0.7582 0.39472 0.71078 0.0
C571 C 0.72776 0.25339 0.79854 0.0
C572 C 0.85259 0.27846 0.72478 0.0
C573 C 0.87083 0.27478 0.67868 0.0
C574 C 0.88371 0.30267 0.68184 0.0
C575 C 0.86547 0.30647 0.72767 0.0
C576 C 0.85521 0.26296 0.70019 0.0
C577 C 0.88076 0.3185 0.70624 0.0
C578 C 0.72865 0.24824 0.7342 0.0
C579 C 0.83589 0.2657 0.74713 0.0
H580 H 0.7115 0.44052 0.77647 0.0
H581 H 0.67928 0.3563 0.75017 0.0
H582 H 0.68924 0.40532 0.7437 0.0
H583 H 0.71071 0.37713 0.82545 0.0
H584 H 0.89631 0.31199 0.6656 0.0
H585 H 0.86367 0.31907 0.74646 0.0
H586 H 0.84584 0.24125 0.69798 0.0
H587 H 0.89065 0.34003 0.70866 0.0
Tb588 Tb 0.73518 0.75337 0.74203 0.0
C589 C 0.81778 0.82273 0.82454 0.0
N590 N 0.8236 0.80558 0.80259 0.0
C591 C 0.86667 0.83596 0.79311 0.0
C592 C 0.83605 0.84757 0.83143 0.0
C593 C 0.84809 0.81135 0.78732 0.0
C594 C 0.8605 0.8543 0.81511 0.0
C595 C 0.78827 0.83079 0.86483 0.0
C596 C 0.79413 0.81461 0.84094 0.0
C597 C 0.80588 0.85603 0.8714 0.0
C598 C 0.82969 0.86444 0.85469 0.0
Tb599 Tb 0.79114 0.76666 0.79504 0.0
N600 N 0.77737 0.79024 0.8339 0.0
C601 C 0.76524 0.8208 0.88166 0.0
C602 C 0.75602 0.77941 0.85109 0.0
C603 C 0.74916 0.7949 0.87486 0.0
H604 H 0.85341 0.79691 0.77068 0.0
H605 H 0.73148 0.78688 0.88783 0.0
H606 H 0.67535 0.71544 0.76404 0.0
H607 H 0.80039 0.74373 0.65084 0.0
H608 H 0.74376 0.75929 0.84588 0.0
H609 H 0.76018 0.83267 0.90016 0.0
H610 H 0.78461 0.76713 0.69382 0.0
H611 H 0.88585 0.84063 0.78075 0.0
H612 H 0.80157 0.86892 0.88957 0.0
H613 H 0.84337 0.88369 0.86024 0.0
H614 H 0.64674 0.67048 0.75028 0.0
H615 H 0.87506 0.87321 0.8197 0.0
H616 H 0.77465 0.69806 0.634 0.0
N617 N 0.70626 0.71245 0.73168 0.0
C618 C 0.71355 0.69804 0.70836 0.0
C619 C 0.66563 0.67787 0.73844 0.0
C620 C 0.69735 0.67259 0.69939 0.0
C621 C 0.68217 0.70318 0.74638 0.0
C622 C 0.67336 0.66238 0.71497 0.0
N623 N 0.75204 0.73383 0.7023 0.0
C624 C 0.77367 0.74698 0.68687 0.0
C625 C 0.74454 0.6956 0.66817 0.0
C626 C 0.73685 0.70932 0.69295 0.0
C627 C 0.76786 0.70807 0.65302 0.0
C628 C 0.78241 0.73391 0.6624 0.0
H629 H 0.66037 0.6429 0.70879 0.0
H630 H 0.69317 0.63882 0.66785 0.0
H631 H 0.7345 0.65896 0.64053 0.0
O632 O 0.73599 0.7861 0.72022 0.0
O633 O 0.76862 0.72784 0.73399 0.0
O634 O 0.80697 0.74839 0.75629 0.0
O635 O 0.6984 0.75763 0.72856 0.0
O636 O 0.76481 0.79155 0.75078 0.0
O637 O 0.80626 0.78448 0.75825 0.0
O638 O 0.78665 0.7361 0.82008 0.0
O639 O 0.75812 0.79258 0.80251 0.0
O640 O 0.71941 0.77077 0.78133 0.0
O641 O 0.8268 0.75782 0.80728 0.0
O642 O 0.76156 0.7291 0.78494 0.0
O643 O 0.7197 0.73526 0.77876 0.0
C644 C 0.7949 0.73016 0.7381 0.0
C645 C 0.69498 0.80343 0.7246 0.0
C646 C 0.67066 0.83592 0.7106 0.0
C647 C 0.66684 0.8477 0.73688 0.0
C648 C 0.69105 0.81568 0.75056 0.0
C649 C 0.67704 0.83767 0.75665 0.0
C650 C 0.68498 0.81375 0.70458 0.0
C651 C 0.79138 0.79482 0.74456 0.0
C652 C 0.70969 0.7801 0.71824 0.0
C653 C 0.70529 0.65846 0.675 0.0
C654 C 0.7288 0.66996 0.65941 0.0
C655 C 0.73146 0.78905 0.79953 0.0
C656 C 0.82217 0.71089 0.81357 0.0
C657 C 0.8411 0.67418 0.82707 0.0
C658 C 0.83566 0.65811 0.80304 0.0
C659 C 0.81674 0.69436 0.78986 0.0
C660 C 0.83457 0.70082 0.83211 0.0
C661 C 0.82369 0.66826 0.78454 0.0
C662 C 0.73529 0.72566 0.79232 0.0
C663 C 0.81298 0.7376 0.81976 0.0
H664 H 0.65624 0.86497 0.74211 0.0
H665 H 0.69886 0.8083 0.76609 0.0
H666 H 0.67411 0.84699 0.77678 0.0
H667 H 0.68799 0.80431 0.68447 0.0
H668 H 0.84072 0.63769 0.79857 0.0
H669 H 0.80655 0.70136 0.77572 0.0
H670 H 0.83827 0.71328 0.85071 0.0
H671 H 0.81941 0.65572 0.76617 0.0
Fe672 Fe 1.01504 0.07439 0.51076 0.0
O673 O 1.01135 0.03408 0.506 0.0
Fe674 Fe 0.044 1.01754 0.51409 0.0
Fe675 Fe 0.9801 1.00787 0.52257 0.0
O676 O 1.014 0.0348 0.50614 0.0
O677 O 1.01326 0.99211 0.53242 0.0
O678 O 1.01013 0.99119 0.53211 0.0
Fe679 Fe 1.01006 0.9513 0.52497 0.0
C680 C 0.97978 0.05847 0.56141 0.0
O681 O 0.98154 0.06437 0.48937 0.0
O682 O 0.95278 0.02907 0.50963 0.0
O683 O 0.0403 0.95261 0.49325 0.0
O684 O 0.03862 0.99215 0.48012 0.0
O685 O 0.07245 0.046 0.49181 0.0
O686 O 0.04511 0.07331 0.47973 0.0
O687 O 0.97786 0.98309 0.48719 0.0
O688 O 0.97929 0.94281 0.50001 0.0
C689 C 0.06768 0.06364 0.47727 0.0
O690 O 0.04286 0.96055 0.54688 0.0
O691 O 0.07158 0.99536 0.52599 0.0
O692 O 0.98745 0.07439 0.5436 0.0
O693 O 0.98031 0.03279 0.55775 0.0
C694 C 0.95795 0.04806 0.49374 0.0
C695 C 0.97232 0.95687 0.48421 0.0
C696 C 0.95577 0.9599 0.55675 0.0
O697 O 0.95134 0.9778 0.54235 0.0
O698 O 0.97848 0.95054 0.555 0.0
C699 C 0.04699 0.96958 0.47631 0.0
O700 O 0.04973 0.04372 0.54821 0.0
O701 O 0.0466 0.08347 0.53487 0.0
C702 C 0.06677 0.97602 0.54162 0.0
C703 C 0.05458 0.07001 0.55065 0.0
Fe704 Fe 0.51491 0.9835 1.01115 0.0
O705 O 0.53737 1.01761 0.99726 0.0
Fe706 Fe 0.45291 1.00483 0.03508 0.0
Fe707 Fe 0.57787 0.02587 0.99539 0.0
O708 O 0.49323 1.01065 0.03214 0.0
O709 O 0.49337 1.0139 0.03305 0.0
O710 O 0.53752 0.02093 0.9982 0.0
Fe711 Fe 0.51587 0.04815 0.01938 0.0
C712 C 0.56455 0.98814 0.03906 0.0
O713 O 0.54215 0.95977 0.98607 0.0
O714 O 0.57399 0.99297 0.96596 0.0
O715 O 0.49208 0.04426 0.98914 0.0
O716 O 0.44997 0.03202 1.00954 0.0
O717 O 0.44948 0.97325 1.00451 0.0
O718 O 0.49027 0.97688 0.98059 0.0
O719 O 0.57524 0.05731 0.97436 0.0
O720 O 0.5432 0.07994 1.00047 0.0
C721 C 0.46431 0.96821 0.98312 0.0
O722 O 0.48865 0.07189 0.04434 0.0
O723 O 0.45627 0.03863 0.06373 0.0
O724 O 0.53886 0.98802 0.04155 0.0
O725 O 0.58027 0.99694 0.01943 0.0
C726 C 0.56285 0.96734 0.96844 0.0
C727 C 0.56316 0.07839 0.98146 0.0
C728 C 0.56638 0.06074 0.04851 0.0
O729 O 0.5816 0.05577 0.02732 0.0
O730 O 0.54018 0.05444 0.05 0.0
C731 C 0.46613 0.04215 0.99075 0.0
O732 O 0.45653 0.97489 0.05717 0.0
O733 O 0.48779 0.95177 0.03054 0.0
C734 C 0.46792 0.06423 0.06188 0.0
C735 C 0.46805 0.95347 0.04978 0.0
Fe736 Fe 1.01766 0.54857 0.02472 0.0
O737 O 0.99496 0.51489 0.03927 0.0
Fe738 Fe 0.07683 0.5239 0.99546 0.0
Fe739 Fe 0.95435 0.5078 0.0438 0.0
O740 O 0.03672 0.52036 1.00172 0.0
O741 O 0.03635 0.51707 1.00057 0.0
O742 O 0.99455 0.51159 0.03807 0.0
Fe743 Fe 1.01401 0.48352 1.01535 0.0
C744 C 0.97268 0.56645 0.07014 0.0
O745 O 0.99168 0.5458 0.99648 0.0
O746 O 0.95079 0.53641 0.01979 0.0
O747 O 0.03899 0.45855 0.98863 0.0
O748 O 0.06981 0.49072 0.96648 0.0
O749 O 0.07255 0.55509 0.975 0.0
O750 O 0.04442 0.5796 1.00433 0.0
O751 O 0.94769 0.47744 1.01266 0.0
O752 O 0.98712 0.47793 0.98673 0.0
C753 C 0.06172 0.57684 0.98319 0.0
O754 O 0.04025 0.48721 0.04371 0.0
O755 O 0.08049 0.49487 0.01899 0.0
O756 O 0.99264 0.57337 0.05159 0.0
O757 O 0.96093 0.54103 0.07286 0.0
C758 C 0.96598 0.54559 1.00002 0.0
C759 C 0.96087 0.4723 0.99033 0.0
C760 C 0.96878 0.45458 0.05578 0.0
O761 O 0.95796 0.47628 0.06428 0.0
O762 O 0.98733 0.45253 0.03558 0.0
C763 C 0.05844 0.46532 0.96963 0.0
O764 O 0.08388 0.55436 0.02661 0.0
O765 O 0.04479 0.55359 0.05312 0.0
C766 C 0.06579 0.48668 0.03939 0.0
C767 C 0.07103 0.55966 0.04911 0.0
Fe768 Fe 0.52793 0.52667 0.95926 0.0
O769 O 0.52449 0.5269 0.99782 0.0
Fe770 Fe 0.48838 0.50247 1.01447 0.0
Fe771 Fe 0.55203 0.51485 0.0163 0.0
O772 O 0.52174 0.52459 0.99666 0.0
O773 O 0.51581 0.4903 0.03302 0.0
O774 O 0.51874 0.49211 0.03385 0.0
Fe775 Fe 0.51228 0.49172 0.07184 0.0
C776 C 0.56571 0.48674 0.96478 0.0
O777 O 0.55907 0.55946 0.96848 0.0
O778 O 0.58333 0.54097 0.99446 0.0
O779 O 0.48381 0.51803 0.07906 0.0
O780 O 0.48816 0.53569 0.0414 0.0
O781 O 0.4638 0.51967 0.99349 0.0
O782 O 0.49537 0.54729 0.9671 0.0
O783 O 0.55211 0.54827 0.0454 0.0
O784 O 0.5432 0.525 0.07997 0.0
C785 C 0.47082 0.53949 0.97855 0.0
O786 O 0.47981 0.46004 0.06402 0.0
O787 O 0.45648 0.47801 0.03706 0.0
O788 O 0.55886 0.50404 0.95224 0.0
O789 O 0.55398 0.48248 0.98744 0.0
C790 C 0.58114 0.55895 0.97907 0.0
C791 C 0.5542 0.54663 0.06935 0.0
C792 C 0.56874 0.47786 0.05352 0.0
O793 O 0.57597 0.49725 0.03792 0.0
O794 O 0.54377 0.46971 0.06413 0.0
C795 C 0.48165 0.53703 0.06583 0.0
O796 O 0.4876 0.46895 0.98581 0.0
O797 O 0.49901 0.49152 0.95052 0.0
C798 C 0.45804 0.46053 0.0531 0.0
C799 C 0.48759 0.46999 0.96134 0.0
Fe800 Fe 0.02976 0.45835 0.5146 0.0
O801 O 0.03041 0.49812 0.51663 0.0
Fe802 Fe 0.0197 0.51239 0.48367 0.0
Fe803 Fe 1.00989 0.51968 0.54576 0.0
O804 O 0.03159 0.49806 0.51359 0.0
O805 O 0.99935 0.53422 0.51287 0.0
O806 O 0.99828 0.53438 0.51594 0.0
Fe807 Fe 1.00058 0.57427 0.5154 0.0
C808 C 0.9749 0.46334 0.54919 0.0
O809 O 0.05163 0.47159 0.54666 0.0
O810 O 0.02626 0.50136 0.57288 0.0
O811 O 0.03488 0.58071 0.4884 0.0
O812 O 0.05419 0.5433 0.48262 0.0
O813 O 0.04419 0.48642 0.45723 0.0
O814 O 0.06192 0.46442 0.4855 0.0
O815 O 0.04444 0.55033 0.54728 0.0
O816 O 0.02567 0.5867 0.54574 0.0
C817 C 0.06153 0.47171 0.46252 0.0
O818 O 0.97856 0.56157 0.48335 0.0
O819 O 1.00277 0.53102 0.45666 0.0
O820 O 0.99555 0.45182 0.54143 0.0
O821 O 0.97529 0.48852 0.54651 0.0
C822 C 0.04494 0.48587 0.56876 0.0
C823 C 0.04423 0.57597 0.55277 0.0
C824 C 0.96876 0.56046 0.56754 0.0
O825 O 0.98585 0.54535 0.57234 0.0
O826 O 0.96832 0.56835 0.54479 0.0
C827 C 0.05499 0.56852 0.48001 0.0
O828 O 0.98527 0.48151 0.4827 0.0
O829 O 1.00475 0.44551 0.48434 0.0
C830 C 0.98458 0.54723 0.46105 0.0
C831 C 0.9856 0.45583 0.4779 0.0
Fe832 Fe 0.5145 0.98225 0.51474 0.0
O833 O 0.49582 1.01034 0.53829 0.0
Fe834 Fe 0.53638 1.01483 0.45895 0.0
Fe835 Fe 0.49128 1.01275 0.57673 0.0
O836 O 0.53373 1.01535 0.4973 0.0
O837 O 0.53346 0.01867 0.49774 0.0
O838 O 0.49566 1.01344 0.53874 0.0
Fe839 Fe 0.5144 0.04666 0.52142 0.0
C840 C 0.4696 0.95322 0.55505 0.0
O841 O 0.5454 0.98724 0.53893 0.0
O842 O 0.51977 0.98834 0.57759 0.0
O843 O 0.53744 0.07732 0.49848 0.0
O844 O 0.56197 0.05288 0.4653 0.0
O845 O 0.56396 0.98897 0.45984 0.0
O846 O 0.53852 0.95748 0.48649 0.0
O847 O 0.52122 0.04756 0.58382 0.0
O848 O 0.5459 0.055 0.54549 0.0
C849 C 0.5589 0.96492 0.46845 0.0
O850 O 0.48298 0.04065 0.49797 0.0
O851 O 0.50592 0.03716 0.45796 0.0
O852 O 0.49025 0.95143 0.53687 0.0
O853 O 0.4644 0.97604 0.56858 0.0
C854 C 0.54113 0.98307 0.56299 0.0
C855 C 0.54304 0.05852 0.57053 0.0
C856 C 0.47023 0.06396 0.56763 0.0
O857 O 0.46502 0.03983 0.57595 0.0
O858 O 0.49038 0.07139 0.54946 0.0
C859 C 0.55634 0.07568 0.47853 0.0
O860 O 0.50773 0.97866 0.45279 0.0
O861 O 0.48281 0.97516 0.49124 0.0
C862 C 0.48512 0.04242 0.47349 0.0
C863 C 0.48535 0.96995 0.46642 0.0
H864 H 0.18206 0.21927 0.30466 0.0
H865 H 0.15687 0.18891 0.33607 0.0
H866 H 0.2334 0.17317 0.35509 0.0
H867 H 0.25839 0.20083 0.32138 0.0
H868 H 0.20104 0.12947 0.35747 0.0
H869 H 0.19011 0.22039 0.39584 0.0
H870 H 0.17827 0.26657 0.39849 0.0
H871 H 0.09492 0.22938 0.38596 0.0
H872 H 0.10614 0.183 0.3832 0.0
H873 H 0.12472 0.07264 0.47543 0.0
H874 H 0.15807 0.09976 0.4449 0.0
H875 H 0.09183 0.10777 0.40268 0.0
H876 H 0.05895 0.081 0.43252 0.0
H877 H 0.12328 0.15802 0.41746 0.0
H878 H 0.13825 0.06732 0.37456 0.0
H879 H 0.15184 0.0222 0.37204 0.0
H880 H 0.23034 0.06197 0.39733 0.0
H881 H 0.21723 0.10752 0.3997 0.0
C882 C 0.19358 0.20892 0.31505 0.0
C883 C 0.22241 0.21271 0.31031 0.0
C884 C 0.1791 0.19195 0.33361 0.0
C885 C 0.1931 0.17929 0.3489 0.0
C886 C 0.2219 0.18274 0.34389 0.0
C887 C 0.2363 0.1989 0.32464 0.0
C888 C 0.17774 0.16202 0.36959 0.0
C889 C 0.18443 0.13615 0.37089 0.0
C890 C 0.15585 0.17027 0.38733 0.0
C891 C 0.14903 0.19819 0.38915 0.0
C892 C 0.16928 0.22205 0.39353 0.0
C893 C 0.16269 0.24826 0.39505 0.0
C894 C 0.13594 0.25089 0.39225 0.0
C895 C 0.11565 0.22732 0.38809 0.0
C896 C 0.12208 0.20106 0.38663 0.0
C897 C 0.11744 0.07968 0.45927 0.0
C898 C 0.0891 0.07499 0.45671 0.0
C899 C 0.13648 0.09529 0.4419 0.0
C900 C 0.1274 0.10626 0.42169 0.0
C901 C 0.09935 0.10002 0.4183 0.0
C902 C 0.08054 0.08458 0.43544 0.0
C903 C 0.14628 0.1255 0.40472 0.0
C904 C 0.14026 0.15178 0.40425 0.0
C905 C 0.16911 0.11796 0.38824 0.0
C906 C 0.17666 0.09069 0.38758 0.0
C907 C 0.1583 0.0664 0.37982 0.0
C908 C 0.16597 0.04075 0.37834 0.0
C909 C 0.19193 0.03917 0.38464 0.0
C910 C 0.21026 0.06324 0.39245 0.0
C911 C 0.20276 0.08898 0.39379 0.0
H912 H 0.19799 0.01939 0.38329 0.0
H913 H 0.13093 0.2712 0.39338 0.0
H914 H 0.83505 0.13086 0.33251 0.0
H915 H 0.85919 0.10997 0.3601 0.0
H916 H 0.79251 0.11247 0.42194 0.0
H917 H 0.76848 0.13398 0.39462 0.0
H918 H 0.84144 0.12925 0.44128 0.0
H919 H 0.79994 0.05188 0.38554 0.0
H920 H 0.78732 0.02352 0.34432 0.0
H921 H 0.87254 0.02308 0.3185 0.0
H922 H 0.88575 0.05183 0.35937 0.0
H923 H 0.9032 0.04589 0.51126 0.0
H924 H 0.86831 0.05861 0.48824 0.0
H925 H 0.92818 0.07243 0.42112 0.0
H926 H 0.9629 0.06026 0.44398 0.0
H927 H 0.87612 0.0428 0.4081 0.0
H928 H 0.91662 0.12776 0.45996 0.0
H929 H 0.92944 0.15599 0.50123 0.0
H930 H 0.84532 0.1394 0.5349 0.0
H931 H 0.83195 0.11136 0.49364 0.0
C932 C 0.82561 0.12721 0.35207 0.0
C933 C 0.79979 0.13407 0.36131 0.0
C934 C 0.8393 0.11497 0.36773 0.0
C935 C 0.82749 0.10924 0.39298 0.0
C936 C 0.80195 0.11651 0.40247 0.0
C937 C 0.78817 0.12866 0.38677 0.0
C938 C 0.84216 0.09616 0.40953 0.0
C939 C 0.8485 0.11004 0.4342 0.0
C940 C 0.85165 0.07119 0.40031 0.0
C941 C 0.84385 0.05428 0.37545 0.0
C942 C 0.81602 0.04601 0.37095 0.0
C943 C 0.80876 0.02981 0.34767 0.0
C944 C 0.82912 0.02161 0.32876 0.0
C945 C 0.8568 0.02952 0.33313 0.0
C946 C 0.86418 0.04576 0.35637 0.0
C947 C 0.90866 0.05118 0.49143 0.0
C948 C 0.93569 0.0521 0.47937 0.0
C949 C 0.88885 0.05863 0.4784 0.0
C950 C 0.89575 0.06658 0.45302 0.0
C951 C 0.92242 0.06635 0.44066 0.0
C952 C 0.94223 0.05944 0.45377 0.0
C953 C 0.87582 0.07623 0.43936 0.0
C954 C 0.86854 0.06172 0.41526 0.0
C955 C 0.86541 0.1005 0.4491 0.0
C956 C 0.87335 0.11729 0.47387 0.0
C957 C 0.90089 0.13005 0.47622 0.0
C958 C 0.90824 0.14607 0.49957 0.0
C959 C 0.88824 0.14934 0.52074 0.0
C960 C 0.8608 0.1368 0.51851 0.0
C961 C 0.8533 0.12095 0.49511 0.0
H962 H 0.894 0.16163 0.53885 0.0
H963 H 0.82345 1.00905 0.31075 0.0
H964 H 0.78795 0.84024 0.32756 0.0
H965 H 0.81749 0.86853 0.35934 0.0
H966 H 0.88658 0.83378 0.31961 0.0
H967 H 0.8564 0.80409 0.28916 0.0
H968 H 0.88968 0.83492 0.36645 0.0
H969 H 0.87538 0.90441 0.318 0.0
H970 H 0.84912 0.9315 0.29812 0.0
H971 H 0.81135 0.95797 0.37432 0.0
H972 H 0.83701 0.93063 0.39465 0.0
H973 H 0.96771 0.97462 0.43745 0.0
H974 H 0.94027 0.95002 0.40239 0.0
H975 H 0.90998 0.88256 0.44878 0.0
H976 H 0.93853 0.90629 0.48297 0.0
H977 H 0.89005 0.93412 0.39631 0.0
H978 H 0.89373 0.82201 0.41317 0.0
H979 H 0.92531 0.79675 0.42815 0.0
H980 H 0.9942 0.85897 0.4055 0.0
H981 H 0.96308 0.8844 0.39006 0.0
C982 C 0.80955 0.83901 0.32552 0.0
C983 C 0.82001 0.82013 0.30596 0.0
C984 C 0.82653 0.85529 0.34362 0.0
C985 C 0.85461 0.8538 0.34187 0.0
C986 C 0.86508 0.83538 0.32167 0.0
C987 C 0.84791 0.81852 0.30412 0.0
C988 C 0.8728 0.87023 0.3617 0.0
C989 C 0.88975 0.85665 0.37279 0.0
C990 C 0.87347 0.89879 0.36999 0.0
C991 C 0.85794 0.91523 0.35783 0.0
C992 C 0.86131 0.91582 0.33051 0.0
C993 C 0.84654 0.93124 0.31916 0.0
C994 C 0.8285 0.94636 0.33494 0.0
C995 C 0.82527 0.94618 0.36212 0.0
C996 C 0.83993 0.93073 0.37357 0.0
C997 C 0.95538 0.95441 0.44001 0.0
C998 C 0.95569 0.94223 0.46282 0.0
C999 C 0.93955 0.94038 0.42 0.0
C1000 C 0.92331 0.91403 0.4225 0.0
C1001 C 0.92293 0.90236 0.44576 0.0
C1002 C 0.93924 0.91604 0.46543 0.0
C1003 C 0.90681 0.89873 0.40094 0.0
C1004 C 0.89006 0.91245 0.38972 0.0
C1005 C 0.90709 0.87055 0.39173 0.0
C1006 C 0.92602 0.85523 0.4007 0.0
C1007 C 0.91563 0.83023 0.41129 0.0
C1008 C 0.93345 0.8159 0.41988 0.0
C1009 C 0.96173 0.8263 0.41786 0.0
C1010 C 0.97228 0.85099 0.40714 0.0
C1011 C 0.95455 0.86539 0.39849 0.0
H1012 H 0.97549 0.81519 0.42455 0.0
H1013 H 0.81705 0.95823 0.32611 0.0
H1014 H 0.21034 0.87732 0.34362 0.0
H1015 H 0.20162 0.91149 0.37935 0.0
H1016 H 0.22693 0.97552 0.32859 0.0
H1017 H 0.23775 0.94116 0.29207 0.0
H1018 H 0.21425 0.96527 0.40737 0.0
H1019 H 0.17511 0.99873 0.32697 0.0
H1020 H 0.16954 0.98717 0.27972 0.0
H1021 H 0.14787 0.9009 0.28936 0.0
H1022 H 0.15326 0.91207 0.33665 0.0
H1023 H 0.06659 1.00269 0.43787 0.0
H1024 H 0.11028 1.00485 0.41033 0.0
H1025 H 0.12536 0.93478 0.44262 0.0
H1026 H 0.08189 0.9328 0.47082 0.0
H1027 H 0.12654 0.96752 0.3732 0.0
H1028 H 0.19444 0.94226 0.44717 0.0
H1029 H 0.19913 0.95157 0.49448 0.0
H1030 H 0.16124 0.02252 0.50024 0.0
H1031 H 0.15732 1.01435 0.4527 0.0
C1032 C 0.21589 0.89866 0.33987 0.0
C1033 C 0.22359 0.90614 0.31431 0.0
C1034 C 0.21091 0.91842 0.36074 0.0
C1035 C 0.21265 0.94578 0.35633 0.0
C1036 C 0.22495 0.95425 0.33214 0.0
C1037 C 0.23052 0.93445 0.31116 0.0
C1038 C 0.19311 0.96102 0.37301 0.0
C1039 C 0.19526 0.9666 0.40005 0.0
C1040 C 0.16852 0.96296 0.36325 0.0
C1041 C 0.16457 0.95621 0.33513 0.0
C1042 C 0.169 0.97734 0.31896 0.0
C1043 C 0.16594 0.97085 0.29221 0.0
C1044 C 0.15834 0.94331 0.28155 0.0
C1045 C 0.15368 0.92221 0.29764 0.0
C1046 C 0.15672 0.9286 0.32439 0.0
C1047 C 0.07905 0.98753 0.43898 0.0
C1048 C 0.07078 0.96753 0.45654 0.0
C1049 C 0.10409 0.98898 0.42337 0.0
C1050 C 0.12125 0.97044 0.42498 0.0
C1051 C 0.11264 0.94975 0.44167 0.0
C1052 C 0.08759 0.94832 0.4574 0.0
C1053 C 0.14733 0.97137 0.40782 0.0
C1054 C 0.14594 0.96805 0.38074 0.0
C1055 C 0.1726 0.97209 0.41771 0.0
C1056 C 0.17544 0.97754 0.44629 0.0
C1057 C 0.18735 0.96002 0.45843 0.0
C1058 C 0.18986 0.9651 0.48532 0.0
C1059 C 0.18036 0.98754 0.50039 0.0
C1060 C 0.16852 1.0051 0.48855 0.0
C1061 C 0.16621 1.00028 0.4616 0.0
H1062 H 0.18228 0.99138 0.52122 0.0
H1063 H 0.15609 0.93832 0.26082 0.0
H1064 H 0.25698 0.88876 0.63996 0.0
H1065 H 0.23375 0.90915 0.61108 0.0
H1066 H 0.17173 0.92412 0.67488 0.0
H1067 H 0.19518 0.90429 0.704 0.0
H1068 H 0.18412 0.8942 0.59489 0.0
H1069 H 0.14981 0.98341 0.66937 0.0
H1070 H 0.16689 1.01518 0.70726 0.0
H1071 H 0.2497 1.00576 0.67927 0.0
H1072 H 0.23318 0.97428 0.64102 0.0
H1073 H 0.06637 0.93082 0.56567 0.0
H1074 H 0.10246 0.92006 0.58696 0.0
H1075 H 0.156 0.99557 0.56747 0.0
H1076 H 0.11936 1.0069 0.54575 0.0
H1077 H 0.15738 0.98597 0.61912 0.0
H1078 H 0.1677 0.9372 0.53442 0.0
H1079 H 0.15271 0.90745 0.49463 0.0
H1080 H 0.1235 0.83912 0.53942 0.0
H1081 H 0.13789 0.86861 0.57954 0.0
C1082 C 0.23851 0.89659 0.6479 0.0
C1083 C 0.228 0.89499 0.67434 0.0
C1084 C 0.22518 0.90813 0.63132 0.0
C1085 C 0.2012 0.91857 0.64086 0.0
C1086 C 0.19047 0.91667 0.66716 0.0
C1087 C 0.20371 0.90501 0.68372 0.0
C1088 C 0.18683 0.93059 0.62316 0.0
C1089 C 0.17844 0.91433 0.60013 0.0
C1090 C 0.18006 0.95723 0.62953 0.0
C1091 C 0.19019 0.97628 0.65243 0.0
C1092 C 0.17167 0.98821 0.67124 0.0
C1093 C 0.18126 1.00616 0.69279 0.0
C1094 C 0.20935 1.01243 0.69571 0.0
C1095 C 0.22793 1.00081 0.67704 0.0
C1096 C 0.21846 0.98288 0.65544 0.0
C1097 C 0.08573 0.94535 0.56574 0.0
C1098 C 0.08982 0.96985 0.55389 0.0
C1099 C 0.10647 0.93899 0.5779 0.0
C1100 C 0.13207 0.95677 0.57854 0.0
C1101 C 0.13641 0.98145 0.56703 0.0
C1102 C 0.11551 0.98784 0.55456 0.0
C1103 C 0.15375 0.94905 0.59157 0.0
C1104 C 0.16346 0.96603 0.61372 0.0
C1105 C 0.16215 0.92326 0.58417 0.0
C1106 C 0.15385 0.90519 0.56001 0.0
C1107 C 0.15799 0.91587 0.53578 0.0
C1108 C 0.14959 0.89905 0.51318 0.0
C1109 C 0.13717 0.87141 0.5145 0.0
C1110 C 0.13316 0.86053 0.53842 0.0
C1111 C 0.14148 0.87729 0.5611 0.0
H1112 H 0.13065 0.85841 0.49698 0.0
H1113 H 0.21673 0.02632 0.71241 0.0
H1114 H 0.2209 0.17377 0.72823 0.0
H1115 H 0.18992 0.14576 0.69795 0.0
H1116 H 0.16431 0.21906 0.68253 0.0
H1117 H 0.19382 0.247 0.71428 0.0
H1118 H 0.12161 0.18029 0.68479 0.0
H1119 H 0.21283 0.18432 0.63926 0.0
H1120 H 0.26134 0.17878 0.6334 0.0
H1121 H 0.23596 0.09219 0.64029 0.0
H1122 H 0.1873 0.09718 0.6463 0.0
H1123 H 0.06575 0.12602 0.56487 0.0
H1124 H 0.0945 0.15175 0.59821 0.0
H1125 H 0.11025 0.07546 0.61764 0.0
H1126 H 0.08178 0.04946 0.58398 0.0
H1127 H 0.15713 0.1142 0.61405 0.0
H1128 H 0.0655 0.11032 0.65692 0.0
H1129 H 1.01721 0.11601 0.66025 0.0
H1130 H 0.0437 0.20322 0.65722 0.0
H1131 H 0.09219 0.19798 0.65333 0.0
C1132 C 0.20828 0.18395 0.71887 0.0
C1133 C 0.20965 0.2127 0.72414 0.0
C1134 C 0.19083 0.16788 0.70113 0.0
C1135 C 0.17498 0.18021 0.68744 0.0
C1136 C 0.17624 0.20891 0.69274 0.0
C1137 C 0.19329 0.22494 0.71089 0.0
C1138 C 0.15721 0.16333 0.66757 0.0
C1139 C 0.12955 0.16612 0.66916 0.0
C1140 C 0.16718 0.14424 0.64738 0.0
C1141 C 0.19643 0.14118 0.64346 0.0
C1142 C 0.2176 0.16413 0.63965 0.0
C1143 C 0.24512 0.16109 0.6363 0.0
C1144 C 0.25173 0.13521 0.63661 0.0
C1145 C 0.23082 0.11225 0.64011 0.0
C1146 C 0.20327 0.11515 0.64342 0.0
C1147 C 0.07523 0.11462 0.57623 0.0
C1148 C 0.07128 0.08558 0.57171 0.0
C1149 C 0.09164 0.12941 0.59541 0.0
C1150 C 0.10439 0.11558 0.61068 0.0
C1151 C 0.10062 0.08662 0.60616 0.0
C1152 C 0.08417 0.07177 0.58698 0.0
C1153 C 0.12174 0.1314 0.63122 0.0
C1154 C 0.14926 0.12836 0.62975 0.0
C1155 C 0.11169 0.15036 0.65139 0.0
C1156 C 0.08251 0.15371 0.65462 0.0
C1157 C 0.06104 0.1307 0.65684 0.0
C1158 C 0.03363 0.13384 0.65881 0.0
C1159 C 0.02739 0.15995 0.65889 0.0
C1160 C 0.04856 0.183 0.65713 0.0
C1161 C 0.07602 0.17996 0.65505 0.0
H1162 H 1.00616 0.16233 0.66036 0.0
H1163 H 0.27305 0.13293 0.63406 0.0
H1164 H 0.83448 0.23563 0.65198 0.0
H1165 H 0.84627 0.19301 0.62767 0.0
H1166 H 0.9325 0.22906 0.62765 0.0
H1167 H 0.92091 0.27127 0.6524 0.0
H1168 H 0.92079 0.18969 0.58431 0.0
H1169 H 0.90119 0.2016 0.67989 0.0
H1170 H 0.87196 0.20976 0.72143 0.0
H1171 H 0.81131 0.13937 0.69726 0.0
H1172 H 0.83999 0.1311 0.6554 0.0
H1173 H 0.99982 0.10061 0.59647 0.0
H1174 H 0.97226 0.13386 0.61906 0.0
H1175 H 0.89817 0.07734 0.59918 0.0
H1176 H 0.92577 0.04369 0.57705 0.0
H1177 H 0.8957 0.12172 0.64916 0.0
H1178 H 0.91664 0.11013 0.55297 0.0
H1179 H 0.94776 0.10253 0.5127 0.0
H1180 H 1.00771 0.1718 0.5403 0.0
H1181 H 0.97657 0.18028 0.58057 0.0
C1182 C 0.85591 0.23484 0.6457 0.0
C1183 C 0.87685 0.25625 0.65472 0.0
C1184 C 0.86258 0.21052 0.63193 0.0
C1185 C 0.89019 0.20777 0.62677 0.0
C1186 C 0.91104 0.23081 0.63181 0.0
C1187 C 0.90439 0.25503 0.6458 0.0
C1188 C 0.89757 0.18026 0.62104 0.0
C1189 C 0.91505 0.17475 0.59835 0.0
C1190 C 0.88994 0.16071 0.63939 0.0
C1191 C 0.87253 0.16598 0.66437 0.0
C1192 C 0.88148 0.18806 0.68332 0.0
C1193 C 0.86504 0.19267 0.70695 0.0
C1194 C 0.83969 0.17522 0.71192 0.0
C1195 C 0.83082 0.15303 0.69332 0.0
C1196 C 0.84716 0.14836 0.66965 0.0
C1197 C 0.97759 0.09456 0.59858 0.0
C1198 C 0.96474 0.06989 0.58506 0.0
C1199 C 0.96188 0.11358 0.6113 0.0
C1200 C 0.93336 0.10812 0.61013 0.0
C1201 C 0.92019 0.08177 0.6002 0.0
C1202 C 0.93594 0.06252 0.58773 0.0
C1203 C 0.91913 0.13158 0.61272 0.0
C1204 C 0.90061 0.13632 0.63479 0.0
C1205 C 0.92578 0.15053 0.59391 0.0
C1206 C 0.94442 0.1457 0.56974 0.0
C1207 C 0.93653 0.12363 0.55049 0.0
C1208 C 0.95416 0.11917 0.52768 0.0
C1209 C 0.97984 0.13642 0.52404 0.0
C1210 C 0.98783 0.15841 0.54314 0.0
C1211 C 0.97013 0.16318 0.56588 0.0
H1212 H 0.99347 0.13282 0.50637 0.0
H1213 H 0.82702 0.17882 0.73023 0.0
H1214 H 0.77217 0.83724 0.72927 0.0
H1215 H 0.79465 0.86826 0.69679 0.0
H1216 H 0.8637 0.82651 0.6832 0.0
H1217 H 0.84164 0.79582 0.71618 0.0
H1218 H 0.8496 0.9041 0.69656 0.0
H1219 H 0.87842 0.82105 0.61306 0.0
H1220 H 0.8602 0.77344 0.59428 0.0
H1221 H 0.7783 0.78314 0.62574 0.0
H1222 H 0.79597 0.83088 0.64444 0.0
H1223 H 0.96242 0.95022 0.6053 0.0
H1224 H 0.92846 0.92642 0.63684 0.0
H1225 H 0.86579 0.9193 0.58511 0.0
H1226 H 0.89999 0.94377 0.55336 0.0
H1227 H 0.86892 0.86868 0.6028 0.0
H1228 H 0.86075 0.96021 0.63939 0.0
H1229 H 0.87731 1.00901 0.65569 0.0
H1230 H 0.91416 0.98402 0.71646 0.0
H1231 H 0.89821 0.93504 0.70026 0.0
C1232 C 0.79218 0.83469 0.71942 0.0
C1233 C 0.80517 0.81409 0.72534 0.0
C1234 C 0.80501 0.85248 0.7009 0.0
C1235 C 0.83077 0.84961 0.68746 0.0
C1236 C 0.84375 0.82901 0.69325 0.0
C1237 C 0.83121 0.8116 0.71219 0.0
C1238 C 0.84436 0.86835 0.66763 0.0
C1239 C 0.85376 0.89639 0.67605 0.0
C1240 C 0.84929 0.85845 0.64076 0.0
C1241 C 0.83858 0.82946 0.63035 0.0
C1242 C 0.85652 0.81301 0.61598 0.0
C1243 C 0.84629 0.78602 0.6053 0.0
C1244 C 0.8181 0.77532 0.60873 0.0
C1245 C 0.80012 0.79149 0.62305 0.0
C1246 C 0.81026 0.81847 0.63381 0.0
C1247 C 0.9413 0.944 0.60078 0.0
C1248 C 0.93385 0.94886 0.57685 0.0
C1249 C 0.92189 0.93044 0.61888 0.0
C1250 C 0.89455 0.92107 0.61341 0.0
C1251 C 0.88678 0.92641 0.58976 0.0
C1252 C 0.90623 0.94053 0.57174 0.0
C1253 C 0.87492 0.90425 0.63186 0.0
C1254 C 0.86453 0.8765 0.62325 0.0
C1255 C 0.86894 0.91448 0.65852 0.0
C1256 C 0.87841 0.94392 0.66849 0.0
C1257 C 0.87256 0.96511 0.65611 0.0
C1258 C 0.88181 0.99281 0.66535 0.0
C1259 C 0.89681 0.99961 0.68707 0.0
C1260 C 0.90254 0.97872 0.69963 0.0
C1261 C 0.89336 0.95098 0.69044 0.0
H1262 H 0.90397 0.02107 0.6942 0.0
H1263 H 0.8102 0.75444 0.6004 0.0
H1264 H 0.28441 0.19044 0.20382 0.0
H1265 H 0.31388 0.16427 0.17266 0.0
H1266 H 0.38579 0.2189 0.19978 0.0
H1267 H 0.35649 0.24669 0.22916 0.0
H1268 H 0.36196 0.18582 0.13058 0.0
H1269 H 0.42417 0.16283 0.20947 0.0
H1270 H 0.41753 0.1509 0.2548 0.0
H1271 H 0.33081 0.12465 0.24966 0.0
H1272 H 0.33701 0.13568 0.20415 0.0
H1273 H 0.47298 0.12126 0.06075 0.0
H1274 H 0.44675 0.15303 0.08943 0.0
H1275 H 0.40526 0.08619 0.13304 0.0
H1276 H 0.43162 0.05516 0.10556 0.0
H1277 H 0.41381 0.12716 0.1663 0.0
H1278 H 0.37601 0.11351 0.0841 0.0
H1279 H 0.37669 0.11428 0.03651 0.0
H1280 H 0.40455 0.20224 0.04605 0.0
H1281 H 0.4044 0.20193 0.09368 0.0
C1282 C 0.30644 0.19745 0.20274 0.0
C1283 C 0.31776 0.22103 0.21919 0.0
C1284 C 0.32338 0.18222 0.18495 0.0
C1285 C 0.35226 0.18944 0.18367 0.0
C1286 C 0.36366 0.21272 0.20025 0.0
C1287 C 0.34673 0.22847 0.21741 0.0
C1288 C 0.37048 0.17228 0.16573 0.0
C1289 C 0.37347 0.17316 0.13842 0.0
C1290 C 0.38517 0.15513 0.17556 0.0
C1291 C 0.38101 0.15061 0.20357 0.0
C1292 C 0.40366 0.15472 0.2181 0.0
C1293 C 0.4 0.14791 0.24375 0.0
C1294 C 0.37378 0.13696 0.25503 0.0
C1295 C 0.3511 0.13318 0.24088 0.0
C1296 C 0.35467 0.1398 0.21519 0.0
C1297 C 0.45858 0.11345 0.0767 0.0
C1298 C 0.45467 0.08535 0.0805 0.0
C1299 C 0.44322 0.13164 0.09301 0.0
C1300 C 0.42339 0.12224 0.11353 0.0
C1301 C 0.4202 0.09441 0.11763 0.0
C1302 C 0.43545 0.07645 0.10159 0.0
C1303 C 0.40574 0.1407 0.1309 0.0
C1304 C 0.4028 0.14015 0.15828 0.0
C1305 C 0.39044 0.15738 0.12096 0.0
C1306 C 0.39052 0.15765 0.09239 0.0
C1307 C 0.38249 0.13299 0.07601 0.0
C1308 C 0.38275 0.13334 0.04904 0.0
C1309 C 0.39075 0.15828 0.03825 0.0
C1310 C 0.39842 0.18293 0.05443 0.0
C1311 C 0.39825 0.18268 0.08141 0.0
H1312 H 0.39093 0.15852 0.01737 0.0
H1313 H 0.37104 0.13127 0.27469 0.0
H1314 H 0.78737 0.29704 0.18807 0.0
H1315 H 0.82002 0.3221 0.15628 0.0
H1316 H 0.8852 0.32721 0.20477 0.0
H1317 H 0.85229 0.30355 0.23725 0.0
H1318 H 0.88907 0.37468 0.18751 0.0
H1319 H 0.87781 0.28106 0.14698 0.0
H1320 H 0.85164 0.23571 0.13035 0.0
H1321 H 0.81876 0.27365 0.0754 0.0
H1322 H 0.84434 0.31932 0.09193 0.0
H1323 H 0.99129 0.42995 0.08945 0.0
H1324 H 0.96613 0.39565 0.11829 0.0
H1325 H 0.89256 0.39102 0.0813 0.0
H1326 H 0.91755 0.42517 0.05285 0.0
H1327 H 0.89707 0.34015 0.09263 0.0
H1328 H 0.90427 0.43338 0.13592 0.0
H1329 H 0.92817 0.47935 0.15363 0.0
H1330 H 0.96725 0.44195 0.20439 0.0
H1331 H 0.94417 0.39569 0.18644 0.0
C1332 C 0.80866 0.3035 0.19198 0.0
C1333 C 0.81733 0.29772 0.21499 0.0
C1334 C 0.8274 0.31764 0.17364 0.0
C1335 C 0.85532 0.32606 0.17773 0.0
C1336 C 0.86389 0.32071 0.20094 0.0
C1337 C 0.84509 0.30684 0.21939 0.0
C1338 C 0.87537 0.34116 0.15822 0.0
C1339 C 0.89121 0.3668 0.16685 0.0
C1340 C 0.87791 0.33123 0.13111 0.0
C1341 C 0.86289 0.30368 0.12082 0.0
C1342 C 0.86489 0.27978 0.13144 0.0
C1343 C 0.85016 0.25401 0.12204 0.0
C1344 C 0.83353 0.25181 0.10189 0.0
C1345 C 0.83165 0.27538 0.09102 0.0
C1346 C 0.84628 0.30121 0.10038 0.0
C1347 C 0.96998 0.42091 0.08709 0.0
C1348 C 0.95633 0.42989 0.06889 0.0
C1349 C 0.95556 0.40154 0.10364 0.0
C1350 C 0.92733 0.39094 0.10216 0.0
C1351 C 0.91427 0.39878 0.08282 0.0
C1352 C 0.92856 0.41825 0.06654 0.0
C1353 C 0.9106 0.37365 0.12198 0.0
C1354 C 0.89529 0.3477 0.11338 0.0
C1355 C 0.90852 0.38326 0.14914 0.0
C1356 C 0.92281 0.41105 0.15955 0.0
C1357 C 0.91826 0.43493 0.15059 0.0
C1358 C 0.93163 0.46105 0.16071 0.0
C1359 C 0.94929 0.46357 0.18006 0.0
C1360 C 0.95362 0.43997 0.18934 0.0
C1361 C 0.94048 0.41379 0.17914 0.0
H1362 H 0.95957 0.48381 0.18792 0.0
H1363 H 0.82214 0.23184 0.09466 0.0
H1364 H 0.71327 0.88426 0.16741 0.0
H1365 H 0.68861 0.9019 0.13774 0.0
H1366 H 0.61907 0.90197 0.19671 0.0
H1367 H 0.6434 0.88376 0.22636 0.0
H1368 H 0.60336 0.8832 0.14667 0.0
H1369 H 0.66293 0.96086 0.18901 0.0
H1370 H 0.7073 0.98681 0.20289 0.0
H1371 H 0.74164 0.98656 0.12238 0.0
H1372 H 0.69757 0.96026 0.10803 0.0
H1373 H 0.53951 0.97045 0.08589 0.0
H1374 H 0.55972 0.95017 0.11725 0.0
H1375 H 0.63644 0.95756 0.06716 0.0
H1376 H 0.61681 0.97853 0.03631 0.0
H1377 H 0.6469 0.97296 0.11491 0.0
H1378 H 0.58968 0.89449 0.07173 0.0
H1379 H 0.54664 0.86686 0.05632 0.0
H1380 H 0.50903 0.86704 0.1358 0.0
H1381 H 0.5518 0.89495 0.15169 0.0
C1382 C 0.69257 0.8876 0.17394 0.0
C1383 C 0.6804 0.88277 0.19934 0.0
C1384 C 0.67856 0.89788 0.15702 0.0
C1385 C 0.65212 0.9036 0.16513 0.0
C1386 C 0.63949 0.89783 0.19008 0.0
C1387 C 0.65352 0.88764 0.20707 0.0
C1388 C 0.63822 0.91673 0.148 0.0
C1389 C 0.61266 0.903 0.13997 0.0
C1390 C 0.6506 0.94231 0.13888 0.0
C1391 C 0.67702 0.95839 0.14747 0.0
C1392 C 0.68 0.96618 0.17428 0.0
C1393 C 0.70509 0.98097 0.18223 0.0
C1394 C 0.72729 0.98828 0.16353 0.0
C1395 C 0.72443 0.98087 0.13684 0.0
C1396 C 0.69939 0.96604 0.12879 0.0
C1397 C 0.56072 0.96783 0.08161 0.0
C1398 C 0.57651 0.97618 0.05854 0.0
C1399 C 0.5722 0.95604 0.09948 0.0
C1400 C 0.59956 0.95198 0.09447 0.0
C1401 C 0.61533 0.96048 0.07155 0.0
C1402 C 0.604 0.97247 0.05386 0.0
C1403 C 0.61213 0.93927 0.11309 0.0
C1404 C 0.63746 0.95317 0.12156 0.0
C1405 C 0.59964 0.91372 0.12234 0.0
C1406 C 0.57386 0.89702 0.11288 0.0
C1407 C 0.57217 0.88881 0.08591 0.0
C1408 C 0.54785 0.87306 0.07709 0.0
C1409 C 0.52513 0.8652 0.09507 0.0
C1410 C 0.52666 0.87313 0.12191 0.0
C1411 C 0.55095 0.88889 0.13083 0.0
H1412 H 0.50638 0.85288 0.0882 0.0
H1413 H 0.7467 0.99972 0.16972 0.0
H1414 H 0.19591 0.69445 0.24756 0.0
H1415 H 0.16543 0.66529 0.21729 0.0
H1416 H 0.23339 0.66626 0.15648 0.0
H1417 H 0.26404 0.69588 0.18681 0.0
H1418 H 0.18854 0.67858 0.13928 0.0
H1419 H 0.20532 0.60796 0.18575 0.0
H1420 H 0.20766 0.58638 0.22514 0.0
H1421 H 0.1211 0.5831 0.24653 0.0
H1422 H 0.11832 0.6051 0.20747 0.0
H1423 H 0.12657 0.57813 0.04518 0.0
H1424 H 0.155 0.60286 0.07872 0.0
H1425 H 0.08349 0.60007 0.13555 0.0
H1426 H 0.05437 0.57479 0.10166 0.0
H1427 H 0.12834 0.58904 0.15604 0.0
H1428 H 0.11064 0.65837 0.11008 0.0
H1429 H 0.10744 0.68141 0.07187 0.0
H1430 H 0.19454 0.68916 0.05096 0.0
H1431 H 0.19818 0.66547 0.08866 0.0
C1432 C 0.20453 0.68802 0.22789 0.0
C1433 C 0.2325 0.69733 0.21971 0.0
C1434 C 0.18703 0.67129 0.21056 0.0
C1435 C 0.19701 0.66335 0.18454 0.0
C1436 C 0.22515 0.67201 0.17646 0.0
C1437 C 0.24277 0.68866 0.19392 0.0
C1438 C 0.17774 0.64735 0.16553 0.0
C1439 C 0.17575 0.65877 0.14275 0.0
C1440 C 0.16012 0.62201 0.17049 0.0
C1441 C 0.16166 0.60841 0.19378 0.0
C1442 C 0.18681 0.60282 0.19894 0.0
C1443 C 0.18822 0.59049 0.2212 0.0
C1444 C 0.16456 0.58343 0.23836 0.0
C1445 C 0.13942 0.58861 0.23323 0.0
C1446 C 0.13791 0.60098 0.21102 0.0
C1447 C 0.1166 0.58263 0.06475 0.0
C1448 C 0.08791 0.57449 0.0705 0.0
C1449 C 0.13306 0.59695 0.08399 0.0
C1450 C 0.12148 0.60376 0.10966 0.0
C1451 C 0.09295 0.59518 0.11584 0.0
C1452 C 0.07629 0.58081 0.09642 0.0
C1453 C 0.13949 0.62009 0.1296 0.0
C1454 C 0.14117 0.60882 0.15256 0.0
C1455 C 0.15673 0.64572 0.12493 0.0
C1456 C 0.15463 0.65985 0.10208 0.0
C1457 C 0.12908 0.66467 0.09717 0.0
C1458 C 0.12718 0.67787 0.0756 0.0
C1459 C 0.15075 0.68664 0.05893 0.0
C1460 C 0.17628 0.68224 0.06382 0.0
C1461 C 0.17827 0.66891 0.08528 0.0
H1462 H 0.14923 0.69693 0.04231 0.0
H1463 H 0.16569 0.5739 0.25559 0.0
H1464 H 0.32007 0.85033 0.79145 0.0
H1465 H 0.35216 0.87938 0.82075 0.0
H1466 H 0.33246 0.81812 0.87464 0.0
H1467 H 0.30098 0.78855 0.84507 0.0
H1468 H 0.3308 0.87986 0.89537 0.0
H1469 H 0.38775 0.81728 0.84615 0.0
H1470 H 0.40904 0.79461 0.80537 0.0
H1471 H 0.44846 0.87382 0.78222 0.0
H1472 H 0.42717 0.89698 0.82282 0.0
H1473 H 0.42359 0.92377 0.98827 0.0
H1474 H 0.39655 0.89588 0.95477 0.0
H1475 H 0.44499 0.94384 0.89596 0.0
H1476 H 0.47317 0.97128 0.92971 0.0
H1477 H 0.43221 0.892 0.8751 0.0
H1478 H 0.37982 0.95547 0.92351 0.0
H1479 H 0.3588 0.98071 0.96288 0.0
H1480 H 0.30976 0.90452 0.98516 0.0
H1481 H 0.3308 0.87876 0.94611 0.0
C1482 C 0.3225 0.84308 0.80959 0.0
C1483 C 0.30789 0.81716 0.81599 0.0
C1484 C 0.34094 0.85965 0.82623 0.0
C1485 C 0.34474 0.8509 0.84985 0.0
C1486 C 0.32987 0.82525 0.85649 0.0
C1487 C 0.31192 0.80838 0.83957 0.0
C1488 C 0.36396 0.86863 0.8678 0.0
C1489 C 0.35297 0.88229 0.89112 0.0
C1490 C 0.39286 0.87272 0.86172 0.0
C1491 C 0.40562 0.85885 0.83734 0.0
C1492 C 0.40074 0.82987 0.83225 0.0
C1493 C 0.41291 0.81693 0.80923 0.0
C1494 C 0.43005 0.83277 0.79119 0.0
C1495 C 0.43515 0.86158 0.7962 0.0
C1496 C 0.42309 0.87462 0.81923 0.0
C1497 C 0.42869 0.92826 0.96815 0.0
C1498 C 0.45036 0.9499 0.96166 0.0
C1499 C 0.41306 0.91237 0.94898 0.0
C1500 C 0.41803 0.91819 0.92284 0.0
C1501 C 0.4405 0.93904 0.916 0.0
C1502 C 0.45664 0.9547 0.93525 0.0
C1503 C 0.39911 0.90286 0.9032 0.0
C1504 C 0.41007 0.88975 0.87944 0.0
C1505 C 0.37007 0.89972 0.90862 0.0
C1506 C 0.35704 0.91516 0.93196 0.0
C1507 C 0.36465 0.94407 0.93687 0.0
C1508 C 0.35273 0.95848 0.95913 0.0
C1509 C 0.33298 0.94422 0.97653 0.0
C1510 C 0.32507 0.91553 0.97167 0.0
C1511 C 0.33696 0.90102 0.94945 0.0
H1512 H 0.32378 0.9554 0.99377 0.0
H1513 H 0.43938 0.8227 0.77334 0.0
H1514 H 0.22984 0.34546 0.80491 0.0
H1515 H 0.19857 0.3718 0.83272 0.0
H1516 H 0.15163 0.29673 0.8604 0.0
H1517 H 0.181 0.27007 0.83006 0.0
H1518 H 0.11716 0.32551 0.86173 0.0
H1519 H 0.20312 0.34942 0.89496 0.0
H1520 H 0.25333 0.36408 0.89336 0.0
H1521 H 0.24729 0.44398 0.87531 0.0
H1522 H 0.19701 0.42933 0.87549 0.0
H1523 H 0.05394 0.40883 0.97324 0.0
H1524 H 0.0801 0.37622 0.9457 0.0
H1525 H 0.1189 0.43997 0.89753 0.0
H1526 H 0.09306 0.47216 0.92437 0.0
H1527 H 0.15718 0.41433 0.91093 0.0
H1528 H 0.06691 0.38368 0.87775 0.0
H1529 H 1.01709 0.36469 0.88336 0.0
H1530 H 0.03306 0.29293 0.91118 0.0
H1531 H 0.0829 0.31165 0.9061 0.0
C1532 C 0.21284 0.33439 0.8168 0.0
C1533 C 0.20893 0.30541 0.81576 0.0
C1534 C 0.19493 0.34968 0.83315 0.0
C1535 C 0.17296 0.33683 0.85002 0.0
C1536 C 0.16844 0.30772 0.84825 0.0
C1537 C 0.18578 0.29232 0.83111 0.0
C1538 C 0.15502 0.35368 0.86931 0.0
C1539 C 0.12619 0.34472 0.87265 0.0
C1540 C 0.16611 0.37885 0.88429 0.0
C1541 C 0.19625 0.38817 0.88503 0.0
C1542 C 0.21247 0.37009 0.89053 0.0
C1543 C 0.24098 0.37839 0.88984 0.0
C1544 C 0.25353 0.40501 0.88441 0.0
C1545 C 0.23755 0.42336 0.87954 0.0
C1546 C 0.20902 0.41502 0.87981 0.0
C1547 C 0.06762 0.41579 0.9565 0.0
C1548 C 0.07106 0.44345 0.95132 0.0
C1549 C 0.08278 0.39705 0.94071 0.0
C1550 C 0.10185 0.40539 0.91928 0.0
C1551 C 0.10469 0.43274 0.91386 0.0
C1552 C 0.0896 0.45126 0.92939 0.0
C1553 C 0.11951 0.38646 0.90268 0.0
C1554 C 0.14834 0.39504 0.89997 0.0
C1555 C 0.10852 0.36047 0.88919 0.0
C1556 C 0.07859 0.34918 0.89176 0.0
C1557 C 0.05977 0.36393 0.8852 0.0
C1558 C 0.03154 0.35321 0.88827 0.0
C1559 C 0.02194 0.32766 0.89768 0.0
C1560 C 0.04053 0.31273 0.90393 0.0
C1561 C 0.06876 0.32337 0.90095 0.0
H1562 H 1.00013 0.31936 0.90008 0.0
H1563 H 0.27563 0.4114 0.88394 0.0
H1564 H 0.67252 0.23282 0.7994 0.0
H1565 H 0.6428 0.20505 0.83106 0.0
H1566 H 0.71239 0.20723 0.87307 0.0
H1567 H 0.74218 0.23486 0.8413 0.0
H1568 H 0.68242 0.15737 0.87033 0.0
H1569 H 0.66211 0.24829 0.89487 0.0
H1570 H 0.64858 0.29137 0.88774 0.0
H1571 H 0.57064 0.24548 0.86591 0.0
H1572 H 0.58387 0.20206 0.87257 0.0
H1573 H 0.61286 0.1108 0.98636 0.0
H1574 H 0.63856 0.1431 0.95642 0.0
H1575 H 0.56785 0.13118 0.91349 0.0
H1576 H 0.54186 0.09903 0.94396 0.0
H1577 H 0.59685 0.18547 0.91599 0.0
H1578 H 0.61742 0.09458 0.89235 0.0
H1579 H 0.63108 0.05191 0.90044 0.0
H1580 H 0.70911 0.09848 0.92131 0.0
H1581 H 0.69574 0.14152 0.91373 0.0
C1582 C 0.68153 0.22747 0.81542 0.0
C1583 C 0.70987 0.23608 0.81771 0.0
C1584 C 0.66443 0.21161 0.83362 0.0
C1585 C 0.67511 0.20429 0.85486 0.0
C1586 C 0.70351 0.21252 0.85694 0.0
C1587 C 0.72063 0.22825 0.83864 0.0
C1588 C 0.6568 0.18801 0.87481 0.0
C1589 C 0.66394 0.1638 0.88052 0.0
C1590 C 0.63218 0.19581 0.8878 0.0
C1591 C 0.62409 0.2219 0.88398 0.0
C1592 C 0.64216 0.24736 0.88838 0.0
C1593 C 0.63454 0.27184 0.88445 0.0
C1594 C 0.6088 0.27115 0.87631 0.0
C1595 C 0.59059 0.24598 0.87217 0.0
C1596 C 0.59813 0.22143 0.87605 0.0
C1597 C 0.60253 0.11582 0.97105 0.0
C1598 C 0.57529 0.10277 0.96767 0.0
C1599 C 0.61732 0.13404 0.95376 0.0
C1600 C 0.6054 0.13923 0.93231 0.0
C1601 C 0.57756 0.12751 0.92982 0.0
C1602 C 0.56264 0.1093 0.94732 0.0
C1603 C 0.62272 0.15512 0.91163 0.0
C1604 C 0.61536 0.17913 0.90575 0.0
C1605 C 0.64721 0.14721 0.89851 0.0
C1606 C 0.65548 0.12131 0.90268 0.0
C1607 C 0.63743 0.09575 0.89882 0.0
C1608 C 0.64512 0.07149 0.9033 0.0
C1609 C 0.67093 0.07249 0.91144 0.0
C1610 C 0.68912 0.09775 0.91503 0.0
C1611 C 0.6815 0.12207 0.91062 0.0
H1612 H 0.67684 0.05369 0.91491 0.0
H1613 H 0.60293 0.29013 0.87327 0.0
H1614 H 0.88556 0.69821 0.85354 0.0
H1615 H 0.90694 0.67748 0.8839 0.0
H1616 H 0.84481 0.60356 0.87546 0.0
H1617 H 0.82358 0.62406 0.84502 0.0
H1618 H 0.8563 0.6226 0.92821 0.0
H1619 H 0.90471 0.60361 0.84197 0.0
H1620 H 0.93193 0.61672 0.80086 0.0
H1621 H 0.99574 0.66608 0.84458 0.0
H1622 H 0.96867 0.65363 0.886 0.0
H1623 H 0.91451 0.52995 0.98425 0.0
H1624 H 0.89346 0.55227 0.95519 0.0
H1625 H 0.96799 0.61349 0.94675 0.0
H1626 H 0.9896 0.59002 0.97435 0.0
H1627 H 0.95038 0.60303 0.9031 0.0
H1628 H 0.90541 0.62431 0.98866 0.0
H1629 H 0.87924 0.61555 0.03142 0.0
H1630 H 0.81098 0.56811 0.99245 0.0
H1631 H 0.83688 0.57625 0.94944 0.0
C1632 C 0.87638 0.67765 0.85839 0.0
C1633 C 0.85304 0.66265 0.84683 0.0
C1634 C 0.88865 0.6658 0.8756 0.0
C1635 C 0.87759 0.6389 0.88174 0.0
C1636 C 0.85373 0.62429 0.87092 0.0
C1637 C 0.84171 0.63596 0.85346 0.0
C1638 C 0.89119 0.62558 0.8989 0.0
C1639 C 0.87678 0.61805 0.92269 0.0
C1640 C 0.91823 0.62053 0.89202 0.0
C1641 C 0.93451 0.62793 0.8671 0.0
C1642 C 0.92442 0.61747 0.84283 0.0
C1643 C 0.93985 0.62475 0.81947 0.0
C1644 C 0.96551 0.64229 0.82011 0.0
C1645 C 0.97583 0.65254 0.84411 0.0
C1646 C 0.96046 0.64537 0.86753 0.0
C1647 C 0.92637 0.5481 0.97605 0.0
C1648 C 0.95361 0.55834 0.98161 0.0
C1649 C 0.91426 0.56103 0.95962 0.0
C1650 C 0.92878 0.58513 0.94923 0.0
C1651 C 0.95622 0.59504 0.95449 0.0
C1652 C 0.96859 0.58163 0.97029 0.0
C1653 C 0.91555 0.59986 0.93273 0.0
C1654 C 0.92998 0.60766 0.90893 0.0
C1655 C 0.88875 0.6058 0.93995 0.0
C1656 C 0.87319 0.60069 0.96581 0.0
C1657 C 0.8849 0.61183 0.9892 0.0
C1658 C 0.8701 0.607 1.01349 0.0
C1659 C 0.84348 0.59126 1.01464 0.0
C1660 C 0.83161 0.58029 0.99152 0.0
C1661 C 0.84633 0.58502 0.96719 0.0
H1662 H 0.83201 0.58761 0.03345 0.0
H1663 H 0.97743 0.64788 0.802 0.0
H1664 H 0.16517 0.32443 0.15877 0.0
H1665 H 0.15017 0.3503 0.12829 0.0
H1666 H 0.15342 0.42121 0.18719 0.0
H1667 H 0.1683 0.39554 0.21755 0.0
H1668 H 0.10557 0.41 0.16774 0.0
H1669 H 0.20043 0.42239 0.13108 0.0
H1670 H 0.24393 0.40774 0.11226 0.0
H1671 H 0.20296 0.35606 0.04995 0.0
H1672 H 0.15924 0.37063 0.0683 0.0
H1673 H 0.07742 0.50472 0.08952 0.0
H1674 H 0.09901 0.48148 0.1176 0.0
H1675 H 0.10194 0.41332 0.05609 0.0
H1676 H 0.08202 0.43751 0.0276 0.0
H1677 H 0.14695 0.42297 0.07691 0.0
H1678 H 0.05137 0.41252 0.11427 0.0
H1679 H 1.00934 0.43023 0.13308 0.0
H1680 H 0.05256 0.47947 0.19513 0.0
H1681 H 0.09484 0.46217 0.17672 0.0
C1682 C 0.16324 0.34572 0.16502 0.0
C1683 C 0.16769 0.35782 0.19073 0.0
C1684 C 0.15464 0.3605 0.14758 0.0
C1685 C 0.15058 0.38774 0.15544 0.0
C1686 C 0.15614 0.40017 0.18071 0.0
C1687 C 0.16464 0.38543 0.19809 0.0
C1688 C 0.13878 0.40274 0.13817 0.0
C1689 C 0.11482 0.4131 0.14797 0.0
C1690 C 0.15041 0.40632 0.1122 0.0
C1691 C 0.17656 0.39738 0.1012 0.0
C1692 C 0.20068 0.40778 0.11345 0.0
C1693 C 0.22539 0.39957 0.10282 0.0
C1694 C 0.22617 0.38084 0.08002 0.0
C1695 C 0.2023 0.3705 0.06766 0.0
C1696 C 0.17759 0.37883 0.07809 0.0
C1697 C 0.08271 0.48476 0.08218 0.0
C1698 C 0.07801 0.47267 0.05665 0.0
C1699 C 0.09487 0.47138 0.09821 0.0
C1700 C 0.10161 0.44524 0.08926 0.0
C1701 C 0.09694 0.43337 0.06356 0.0
C1702 C 0.08546 0.44707 0.04733 0.0
C1703 C 0.11365 0.43028 0.10646 0.0
C1704 C 0.13761 0.41981 0.09664 0.0
C1705 C 0.10203 0.42663 0.13249 0.0
C1706 C 0.07631 0.43624 0.14399 0.0
C1707 C 0.0519 0.42715 0.13191 0.0
C1708 C 0.02805 0.43711 0.14248 0.0
C1709 C 0.02837 0.45608 0.16516 0.0
C1710 C 0.05239 0.46484 0.17753 0.0
C1711 C 0.07627 0.45491 0.16708 0.0
H1712 H 1.01004 0.46405 0.17313 0.0
H1713 H 0.2453 0.37441 0.07191 0.0
H1714 H 0.19453 0.69491 0.79817 0.0
H1715 H 0.1611 0.67358 0.83157 0.0
H1716 H 0.1748 0.74929 0.88417 0.0
H1717 H 0.20888 0.77071 0.85074 0.0
H1718 H 0.17667 0.70389 0.90812 0.0
H1719 H 0.10851 0.72831 0.86097 0.0
H1720 H 0.08526 0.73126 0.82254 0.0
H1721 H 0.07903 0.64406 0.79999 0.0
H1722 H 0.10112 0.64035 0.83891 0.0
H1723 H 0.07396 0.63299 0.99899 0.0
H1724 H 0.09672 0.66917 0.97121 0.0
H1725 H 0.09364 0.60812 0.90301 0.0
H1726 H 0.07108 0.57244 0.93037 0.0
H1727 H 0.08279 0.65431 0.89108 0.0
H1728 H 0.15086 0.62836 0.93512 0.0
H1729 H 0.17293 0.62203 0.97309 0.0
H1730 H 0.18287 0.70897 0.99912 0.0
H1731 H 0.16035 0.71575 0.96151 0.0
C1732 C 0.19037 0.70713 0.81679 0.0
C1733 C 0.20436 0.73456 0.82175 0.0
C1734 C 0.17099 0.69497 0.83582 0.0
C1735 C 0.16505 0.70988 0.86035 0.0
C1736 C 0.17884 0.7374 0.86535 0.0
C1737 C 0.19821 0.74967 0.84618 0.0
C1738 C 0.14588 0.69584 0.8811 0.0
C1739 C 0.15586 0.69367 0.90471 0.0
C1740 C 0.11899 0.68181 0.8765 0.0
C1741 C 0.10663 0.68411 0.85267 0.0
C1742 C 0.10233 0.70981 0.8477 0.0
C1743 C 0.08929 0.71161 0.82591 0.0
C1744 C 0.08107 0.68798 0.80863 0.0
C1745 C 0.0855 0.66238 0.81332 0.0
C1746 C 0.09803 0.66036 0.83537 0.0
C1747 C 0.0776 0.62755 0.978 0.0
C1748 C 0.07084 0.59988 0.96687 0.0
C1749 C 0.09083 0.64813 0.96216 0.0
C1750 C 0.09724 0.64135 0.93499 0.0
C1751 C 0.08902 0.61398 0.92384 0.0
C1752 C 0.07614 0.59354 0.93956 0.0
C1753 C 0.11369 0.66194 0.91793 0.0
C1754 C 0.10329 0.66519 0.89491 0.0
C1755 C 0.14035 0.67654 0.92294 0.0
C1756 C 0.15354 0.6725 0.94574 0.0
C1757 C 0.15745 0.64608 0.94911 0.0
C1758 C 0.17008 0.64242 0.97053 0.0
C1759 C 0.17919 0.66506 0.98856 0.0
C1760 C 0.1757 0.69143 0.98519 0.0
C1761 C 0.16298 0.6952 0.96384 0.0
H1762 H 0.18907 0.66217 1.00505 0.0
H1763 H 0.0711 0.68947 0.7917 0.0
H1764 H 0.31808 0.09907 0.8328 0.0
H1765 H 0.34451 0.08442 0.86304 0.0
H1766 H 0.39078 0.16746 0.87575 0.0
H1767 H 0.36392 0.18238 0.84569 0.0
H1768 H 0.42313 0.12246 0.86454 0.0
H1769 H 0.34821 0.15086 0.92235 0.0
H1770 H 0.29959 0.15275 0.93729 0.0
H1771 H 0.28196 0.06517 0.94067 0.0
H1772 H 0.33041 0.06269 0.92535 0.0
H1773 H 0.48695 0.08955 0.96869 0.0
H1774 H 0.46453 0.11142 0.94037 0.0
H1775 H 0.39644 0.04218 0.93996 0.0
H1776 H 0.41804 0.0213 0.96973 0.0
H1777 H 0.37675 0.08569 0.94641 0.0
H1778 H 0.45029 0.05602 0.88532 0.0
H1779 H 0.49886 0.05341 0.87072 0.0
H1780 H 0.51906 0.1417 0.87291 0.0
H1781 H 0.47063 0.14484 0.88776 0.0
C1782 C 0.33388 0.11419 0.84207 0.0
C1783 C 0.33898 0.14185 0.83699 0.0
C1784 C 0.3489 0.10583 0.85934 0.0
C1785 C 0.36955 0.12487 0.87161 0.0
C1786 C 0.37492 0.15249 0.86643 0.0
C1787 C 0.35951 0.161 0.84945 0.0
C1788 C 0.38526 0.11561 0.88992 0.0
C1789 C 0.41318 0.11478 0.88266 0.0
C1790 C 0.37208 0.10517 0.91327 0.0
C1791 C 0.3429 0.10656 0.92245 0.0
C1792 C 0.33391 0.13196 0.92603 0.0
C1793 C 0.30639 0.13315 0.93462 0.0
C1794 C 0.28768 0.10908 0.93986 0.0
C1795 C 0.29647 0.08379 0.93657 0.0
C1796 C 0.32397 0.08249 0.92795 0.0
C1797 C 0.46734 0.07892 0.96226 0.0
C1798 C 0.45421 0.05374 0.97127 0.0
C1799 C 0.45456 0.09137 0.94598 0.0
C1800 C 0.42888 0.07835 0.9376 0.0
C1801 C 0.41616 0.05278 0.94616 0.0
C1802 C 0.42855 0.04076 0.96305 0.0
C1803 C 0.41464 0.09161 0.92075 0.0
C1804 C 0.3869 0.09334 0.92834 0.0
C1805 C 0.42798 0.10263 0.89759 0.0
C1806 C 0.4569 0.10067 0.88784 0.0
C1807 C 0.46511 0.07487 0.88274 0.0
C1808 C 0.49261 0.0733 0.87443 0.0
C1809 C 0.51205 0.09738 0.87096 0.0
C1810 C 0.50399 0.12307 0.87563 0.0
C1811 C 0.47651 0.12475 0.88394 0.0
H1812 H 0.53334 0.09613 0.86463 0.0
H1813 H 0.26639 0.11005 0.94653 0.0
H1814 H 0.76646 0.34742 0.84615 0.0
H1815 H 0.79696 0.37689 0.87692 0.0
H1816 H 0.86556 0.3421 0.83657 0.0
H1817 H 0.83587 0.31284 0.80671 0.0
H1818 H 0.86867 0.34446 0.88507 0.0
H1819 H 0.85555 0.40712 0.82956 0.0
H1820 H 0.83296 0.43491 0.80664 0.0
H1821 H 0.80193 0.4743 0.88052 0.0
H1822 H 0.82375 0.44628 0.90396 0.0
H1823 H 0.97738 0.44286 0.9433 0.0
H1824 H 0.94783 0.41691 0.91009 0.0
H1825 H 0.87723 0.44382 0.95552 0.0
H1826 H 0.90631 0.46982 0.9882 0.0
H1827 H 0.87599 0.44594 0.90399 0.0
H1828 H 0.89421 0.3795 0.95751 0.0
H1829 H 0.92481 0.35496 0.97495 0.0
H1830 H 0.9541 0.32509 0.89651 0.0
H1831 H 0.92429 0.35 0.87865 0.0
C1832 C 0.78801 0.34601 0.84394 0.0
C1833 C 0.79846 0.32766 0.82366 0.0
C1834 C 0.80552 0.36301 0.86146 0.0
C1835 C 0.83378 0.36194 0.85908 0.0
C1836 C 0.84395 0.3434 0.83908 0.0
C1837 C 0.82669 0.32659 0.82178 0.0
C1838 C 0.85309 0.37951 0.87733 0.0
C1839 C 0.8703 0.3667 0.88898 0.0
C1840 C 0.85559 0.4086 0.88253 0.0
C1841 C 0.8409 0.4242 0.86855 0.0
C1842 C 0.84342 0.42128 0.84096 0.0
C1843 C 0.83079 0.43714 0.82786 0.0
C1844 C 0.81574 0.45617 0.84211 0.0
C1845 C 0.81341 0.45944 0.8695 0.0
C1846 C 0.82582 0.44349 0.88271 0.0
C1847 C 0.95562 0.44345 0.94603 0.0
C1848 C 0.94426 0.45821 0.96863 0.0
C1849 C 0.93869 0.42847 0.92711 0.0
C1850 C 0.91012 0.42802 0.93045 0.0
C1851 C 0.89909 0.44366 0.95246 0.0
C1852 C 0.91584 0.45844 0.97128 0.0
C1853 C 0.89125 0.41082 0.91172 0.0
C1854 C 0.87412 0.42368 0.90008 0.0
C1855 C 0.88945 0.3819 0.90579 0.0
C1856 C 0.90722 0.36685 0.91675 0.0
C1857 C 0.90738 0.3679 0.944 0.0
C1858 C 0.92462 0.35394 0.95396 0.0
C1859 C 0.94155 0.3386 0.93687 0.0
C1860 C 0.94118 0.33712 0.90977 0.0
C1861 C 0.92412 0.35116 0.89972 0.0
H1862 H 0.95486 0.32779 0.9446 0.0
H1863 H 0.80598 0.46846 0.83195 0.0
H1864 H 0.74639 0.83827 0.83144 0.0
H1865 H 0.71657 0.86534 0.86103 0.0
H1866 H 0.64531 0.80557 0.83916 0.0
H1867 H 0.67501 0.77852 0.80974 0.0
H1868 H 0.63223 0.85232 0.84106 0.0
H1869 H 0.66946 0.81406 0.90402 0.0
H1870 H 0.70158 0.8017 0.93052 0.0
H1871 H 0.7383 0.88723 0.94702 0.0
H1872 H 0.70617 0.90019 0.92078 0.0
H1873 H 0.54294 0.91198 0.94973 0.0
H1874 H 0.5689 0.87947 0.9214 0.0
H1875 H 0.64219 0.94244 0.92137 0.0
H1876 H 0.61676 0.97467 0.94874 0.0
H1877 H 0.65134 0.8914 0.93171 0.0
H1878 H 0.60908 0.92754 0.86879 0.0
H1879 H 0.5698 0.93661 0.84935 0.0
H1880 H 0.53779 0.84949 0.83656 0.0
H1881 H 0.5767 0.83993 0.8563 0.0
C1882 C 0.72442 0.83063 0.83319 0.0
C1883 C 0.7134 0.80587 0.81816 0.0
C1884 C 0.7072 0.84621 0.85026 0.0
C1885 C 0.6783 0.83766 0.85293 0.0
C1886 C 0.66734 0.813 0.83777 0.0
C1887 C 0.68451 0.7974 0.82082 0.0
C1888 C 0.65952 0.85468 0.87065 0.0
C1889 C 0.63636 0.86042 0.86101 0.0
C1890 C 0.66441 0.86583 0.89682 0.0
C1891 C 0.6856 0.85805 0.91023 0.0
C1892 C 0.68464 0.8302 0.91298 0.0
C1893 C 0.70266 0.82311 0.92819 0.0
C1894 C 0.72185 0.84365 0.9406 0.0
C1895 C 0.72331 0.87134 0.93753 0.0
C1896 C 0.70518 0.87858 0.92254 0.0
C1897 C 0.56455 0.91887 0.94363 0.0
C1898 C 0.57747 0.94623 0.95153 0.0
C1899 C 0.57942 0.90027 0.92731 0.0
C1900 C 0.6077 0.90838 0.91897 0.0
C1901 C 0.62054 0.93546 0.92729 0.0
C1902 C 0.60573 0.95403 0.94299 0.0
C1903 C 0.62449 0.88908 0.90202 0.0
C1904 C 0.6473 0.8831 0.91177 0.0
C1905 C 0.61893 0.87731 0.87624 0.0
C1906 C 0.59561 0.88305 0.86432 0.0
C1907 C 0.59352 0.91033 0.86207 0.0
C1908 C 0.57136 0.91556 0.85094 0.0
C1909 C 0.55126 0.89365 0.84181 0.0
C1910 C 0.55334 0.86645 0.8437 0.0
C1911 C 0.57545 0.86112 0.85484 0.0
H1912 H 0.53411 0.89773 0.8332 0.0
H1913 H 0.73576 0.83806 0.95237 0.0
H1914 H 0.84989 0.73184 0.24739 0.0
H1915 H 0.88029 0.70443 0.21912 0.0
H1916 H 0.82523 0.68966 0.15896 0.0
H1917 H 0.7941 0.71559 0.1879 0.0
H1918 H 0.84149 0.6453 0.15801 0.0
H1919 H 0.89284 0.73797 0.15865 0.0
H1920 H 0.91555 0.78356 0.17859 0.0
H1921 H 0.96831 0.74495 0.21417 0.0
H1922 H 0.9458 0.69909 0.19471 0.0
H1923 H 0.97614 0.62263 0.06606 0.0
H1924 H 0.94906 0.65475 0.09313 0.0
H1925 H 0.91232 0.59147 0.14246 0.0
H1926 H 0.93898 0.55972 0.11598 0.0
H1927 H 0.94253 0.67742 0.14486 0.0
H1928 H 0.84358 0.59405 0.16059 0.0
H1929 H 0.82056 0.5502 0.13775 0.0
H1930 H 0.86226 0.57335 0.06404 0.0
H1931 H 0.88483 0.61771 0.08625 0.0
C1932 C 0.84426 0.72287 0.2281 0.0
C1933 C 0.81963 0.72669 0.21986 0.0
C1934 C 0.86194 0.70728 0.21167 0.0
C1935 C 0.85587 0.69521 0.18621 0.0
C1936 C 0.83098 0.69871 0.1782 0.0
C1937 C 0.81319 0.71402 0.19474 0.0
C1938 C 0.87483 0.67842 0.16826 0.0
C1939 C 0.86357 0.6525 0.15529 0.0
C1940 C 0.90384 0.68749 0.16385 0.0
C1941 C 0.9175 0.71507 0.17536 0.0
C1942 C 0.90919 0.73918 0.17083 0.0
C1943 C 0.92202 0.76506 0.18204 0.0
C1944 C 0.94326 0.76713 0.19768 0.0
C1945 C 0.95182 0.74332 0.20207 0.0
C1946 C 0.93907 0.71738 0.19093 0.0
C1947 C 0.9627 0.61568 0.08294 0.0
C1948 C 0.95994 0.58823 0.08846 0.0
C1949 C 0.94702 0.63413 0.09845 0.0
C1950 C 0.92795 0.62564 0.1198 0.0
C1951 C 0.92624 0.5987 0.12595 0.0
C1952 C 0.9418 0.58043 0.11065 0.0
C1953 C 0.90917 0.64416 0.13527 0.0
C1954 C 0.92045 0.67032 0.14768 0.0
C1955 C 0.88009 0.63553 0.13887 0.0
C1956 C 0.86619 0.6091 0.12519 0.0
C1957 C 0.84771 0.58988 0.13948 0.0
C1958 C 0.83469 0.56495 0.12663 0.0
C1959 C 0.83997 0.55899 0.09946 0.0
C1960 C 0.85817 0.57801 0.08507 0.0
C1961 C 0.87108 0.60306 0.09779 0.0
H1962 H 0.82995 0.53963 0.08956 0.0
H1963 H 0.95314 0.7872 0.20634 0.0
H1964 H 0.3243 0.75781 0.18103 0.0
H1965 H 0.35714 0.78259 0.14931 0.0
H1966 H 0.36223 0.85704 0.2042 0.0
H1967 H 0.33331 0.83101 0.23715 0.0
H1968 H 0.35736 0.81744 0.12273 0.0
H1969 H 0.41313 0.90748 0.18974 0.0
H1970 H 0.42806 0.91826 0.23419 0.0
H1971 H 0.43403 0.83363 0.23423 0.0
H1972 H 0.4192 0.82227 0.18951 0.0
H1973 H 0.41387 0.93501 0.06078 0.0
H1974 H 0.39108 0.89993 0.08862 0.0
H1975 H 0.46965 0.88165 0.09836 0.0
H1976 H 0.49292 0.91741 0.07017 0.0
H1977 H 0.43896 0.8883 0.14483 0.0
H1978 H 0.42344 0.83441 0.0629 0.0
H1979 H 0.41012 0.8245 0.01785 0.0
H1980 H 0.32785 0.83513 0.04671 0.0
H1981 H 0.34075 0.8455 0.09192 0.0
C1982 C 0.33316 0.77928 0.18654 0.0
C1983 C 0.32623 0.79236 0.2117 0.0
C1984 C 0.35175 0.79366 0.16822 0.0
C1985 C 0.36314 0.82188 0.17416 0.0
C1986 C 0.35528 0.83512 0.19911 0.0
C1987 C 0.33793 0.82032 0.21787 0.0
C1988 C 0.38196 0.83748 0.15384 0.0
C1989 C 0.37535 0.83263 0.12775 0.0
C1990 C 0.40574 0.85755 0.15979 0.0
C1991 C 0.41491 0.86397 0.18642 0.0
C1992 C 0.41774 0.89115 0.19918 0.0
C1993 C 0.4261 0.89734 0.2244 0.0
C1994 C 0.43187 0.87654 0.23702 0.0
C1995 C 0.42937 0.84955 0.22439 0.0
C1996 C 0.42098 0.84322 0.19915 0.0
C1997 C 0.42636 0.92321 0.06845 0.0
C1998 C 0.45519 0.92893 0.06325 0.0
C1999 C 0.41324 0.903 0.0843 0.0
C2000 C 0.42853 0.88779 0.09541 0.0
C2001 C 0.4574 0.89294 0.08979 0.0
C2002 C 0.47066 0.91319 0.07357 0.0
C2003 C 0.41408 0.86813 0.11425 0.0
C2004 C 0.42135 0.87247 0.13996 0.0
C2005 C 0.39111 0.84743 0.10796 0.0
C2006 C 0.38312 0.84087 0.08082 0.0
C2007 C 0.40254 0.83478 0.05964 0.0
C2008 C 0.39506 0.82907 0.03407 0.0
C2009 C 0.36817 0.82922 0.02942 0.0
C2010 C 0.34868 0.83501 0.05035 0.0
C2011 C 0.35605 0.84076 0.07596 0.0
H2012 H 0.36243 0.82482 1.0096 0.0
H2013 H 0.43834 0.88134 0.25656 0.0
H2014 H 0.72459 0.24337 0.18987 0.0
H2015 H 0.69271 0.21471 0.16069 0.0
H2016 H 0.67868 0.14971 0.21053 0.0
H2017 H 0.70878 0.17938 0.24099 0.0
H2018 H 0.69167 0.17108 0.13102 0.0
H2019 H 0.61681 0.10799 0.20568 0.0
H2020 H 0.59888 0.11357 0.25246 0.0
H2021 H 0.61328 0.20158 0.25263 0.0
H2022 H 0.63093 0.19653 0.20575 0.0
H2023 H 0.61712 0.05799 0.06002 0.0
H2024 H 0.64324 0.08612 0.09413 0.0
H2025 H 0.57433 0.12608 0.12282 0.0
H2026 H 0.54758 0.09709 0.08891 0.0
H2027 H 0.59991 0.12027 0.16306 0.0
H2028 H 0.62816 0.15657 0.08182 0.0
H2029 H 0.64371 0.15532 0.03453 0.0
H2030 H 0.71796 0.13046 0.047 0.0
H2031 H 0.70263 0.13108 0.09432 0.0
C2032 C 0.71427 0.22319 0.19493 0.0
C2033 C 0.71872 0.21401 0.21817 0.0
C2034 C 0.69622 0.20661 0.17801 0.0
C2035 C 0.68261 0.18008 0.18349 0.0
C2036 C 0.68807 0.17036 0.20612 0.0
C2037 C 0.70562 0.18724 0.22341 0.0
C2038 C 0.66321 0.16261 0.16526 0.0
C2039 C 0.67163 0.16006 0.13817 0.0
C2040 C 0.63662 0.14856 0.17422 0.0
C2041 C 0.6254 0.15186 0.20224 0.0
C2042 C 0.61599 0.12852 0.21565 0.0
C2043 C 0.60592 0.1316 0.24219 0.0
C2044 C 0.60503 0.15792 0.25551 0.0
C2045 C 0.61408 0.18122 0.24229 0.0
C2046 C 0.62412 0.17826 0.21574 0.0
C2047 C 0.60736 0.07257 0.07373 0.0
C2048 C 0.58038 0.07558 0.0715 0.0
C2049 C 0.62238 0.08873 0.09323 0.0
C2050 C 0.61112 0.10884 0.1107 0.0
C2051 C 0.58361 0.11088 0.10948 0.0
C2052 C 0.56832 0.09431 0.0901 0.0
C2053 C 0.62872 0.12848 0.12909 0.0
C2054 C 0.61995 0.13142 0.15608 0.0
C2055 C 0.65463 0.14371 0.12002 0.0
C2056 C 0.66413 0.14365 0.0916 0.0
C2057 C 0.64773 0.15067 0.07446 0.0
C2058 C 0.6565 0.15008 0.04765 0.0
C2059 C 0.68178 0.14276 0.03776 0.0
C2060 C 0.69837 0.13609 0.05469 0.0
C2061 C 0.68965 0.13657 0.08151 0.0
H2062 H 0.68853 0.14231 0.017 0.0
H2063 H 0.59726 0.16021 0.27606 0.0
H2064 H 0.68876 0.72853 0.82598 0.0
H2065 H 0.66989 0.70001 0.86155 0.0
H2066 H 0.7348 0.65314 0.84007 0.0
H2067 H 0.75415 0.68203 0.80504 0.0
H2068 H 0.67893 0.62046 0.84889 0.0
H2069 H 0.74237 0.69359 0.88881 0.0
H2070 H 0.76533 0.74097 0.90335 0.0
H2071 H 0.69051 0.75671 0.94867 0.0
H2072 H 0.66676 0.7098 0.93356 0.0
H2073 H 0.63204 0.54786 0.95984 0.0
H2074 H 0.66678 0.57617 0.93164 0.0
H2075 H 0.61927 0.64113 0.94696 0.0
H2076 H 0.58488 0.61308 0.97495 0.0
H2077 H 0.67399 0.66235 0.94187 0.0
H2078 H 0.60967 0.58997 0.89641 0.0
H2079 H 0.5886 0.54099 0.8857 0.0
H2080 H 0.66733 0.52294 0.85243 0.0
H2081 H 0.68884 0.57181 0.86308 0.0
C2082 C 0.69888 0.71205 0.8288 0.0
C2083 C 0.72294 0.70755 0.81283 0.0
C2084 C 0.68819 0.69587 0.84916 0.0
C2085 C 0.70101 0.67451 0.85351 0.0
C2086 C 0.72461 0.6695 0.83709 0.0
C2087 C 0.73567 0.68609 0.81716 0.0
C2088 C 0.68977 0.65755 0.8753 0.0
C2089 C 0.67822 0.62951 0.86925 0.0
C2090 C 0.68885 0.66934 0.90187 0.0
C2091 C 0.70266 0.69818 0.90978 0.0
C2092 C 0.73062 0.7073 0.90143 0.0
C2093 C 0.74383 0.73408 0.90987 0.0
C2094 C 0.72942 0.75183 0.92697 0.0
C2095 C 0.70166 0.74297 0.93539 0.0
C2096 C 0.68829 0.71631 0.92682 0.0
C2097 C 0.62971 0.56865 0.95804 0.0
C2098 C 0.60583 0.57835 0.96959 0.0
C2099 C 0.64937 0.58469 0.94169 0.0
C2100 C 0.64537 0.61061 0.93675 0.0
C2101 C 0.62282 0.62122 0.95033 0.0
C2102 C 0.60317 0.6052 0.96641 0.0
C2103 C 0.66241 0.62555 0.91545 0.0
C2104 C 0.675 0.65324 0.92153 0.0
C2105 C 0.66432 0.61343 0.88892 0.0
C2106 C 0.651 0.58443 0.88107 0.0
C2107 C 0.62251 0.57554 0.88691 0.0
C2108 C 0.61047 0.5478 0.88081 0.0
C2109 C 0.62664 0.52883 0.86852 0.0
C2110 C 0.65483 0.53763 0.86203 0.0
C2111 C 0.66696 0.56535 0.86809 0.0
H2112 H 0.61731 0.50734 0.86395 0.0
H2113 H 0.73975 0.77248 0.93365 0.0
H2114 H 0.31684 0.63231 0.84365 0.0
H2115 H 0.33005 0.60963 0.87786 0.0
H2116 H 0.40742 0.66723 0.87773 0.0
H2117 H 0.39455 0.68928 0.84325 0.0
H2118 H 0.41628 0.61701 0.87139 0.0
H2119 H 0.35504 0.66656 0.93031 0.0
H2120 H 0.3109 0.68104 0.94671 0.0
H2121 H 0.27266 0.59676 0.95451 0.0
H2122 H 0.31651 0.58172 0.93782 0.0
H2123 H 0.47631 0.59406 0.9756 0.0
H2124 H 0.44686 0.61638 0.95505 0.0
H2125 H 0.38864 0.53967 0.94596 0.0
H2126 H 0.41815 0.5171 0.96698 0.0
H2127 H 0.36604 0.59466 0.95722 0.0
H2128 H 0.42816 0.54579 0.89759 0.0
H2129 H 0.47335 0.53271 0.8834 0.0
H2130 H 0.51019 0.61778 0.87788 0.0
H2131 H 0.46527 0.63141 0.89253 0.0
C2132 C 0.33636 0.64045 0.85144 0.0
C2133 C 0.35478 0.6624 0.84074 0.0
C2134 C 0.34391 0.62751 0.87099 0.0
C2135 C 0.36982 0.63663 0.88038 0.0
C2136 C 0.38744 0.65963 0.8707 0.0
C2137 C 0.38006 0.67228 0.85104 0.0
C2138 C 0.37999 0.62088 0.89822 0.0
C2139 C 0.40527 0.61241 0.89022 0.0
C2140 C 0.36535 0.61396 0.9225 0.0
C2141 C 0.33899 0.62298 0.93251 0.0
C2142 C 0.33716 0.65108 0.93529 0.0
C2143 C 0.3122 0.6594 0.94469 0.0
C2144 C 0.28896 0.63982 0.95157 0.0
C2145 C 0.29066 0.61189 0.94913 0.0
C2146 C 0.31557 0.60346 0.93972 0.0
C2147 C 0.45683 0.58212 0.96995 0.0
C2148 C 0.44962 0.55379 0.97256 0.0
C2149 C 0.44001 0.59492 0.95827 0.0
C2150 C 0.41578 0.5796 0.94872 0.0
C2151 C 0.40725 0.55184 0.95329 0.0
C2152 C 0.42407 0.53899 0.9653 0.0
C2153 C 0.40237 0.5916 0.93041 0.0
C2154 C 0.37668 0.59918 0.93824 0.0
C2155 C 0.41654 0.59785 0.90589 0.0
C2156 C 0.44341 0.58963 0.89635 0.0
C2157 C 0.44594 0.56172 0.89351 0.0
C2158 C 0.47149 0.5542 0.88538 0.0
C2159 C 0.49464 0.57441 0.87979 0.0
C2160 C 0.49225 0.60215 0.88224 0.0
C2161 C 0.46674 0.60979 0.89043 0.0
H2162 H 0.51442 0.56855 0.87352 0.0
H2163 H 0.26966 0.6463 0.95885 0.0
H2164 H 0.34296 0.27456 0.81064 0.0
H2165 H 0.37575 0.30057 0.84061 0.0
H2166 H 0.33491 0.37019 0.84884 0.0
H2167 H 0.30204 0.34429 0.81891 0.0
H2168 H 0.41275 0.34754 0.83752 0.0
H2169 H 0.33645 0.40205 0.91136 0.0
H2170 H 0.289 0.39208 0.93296 0.0
H2171 H 0.28977 0.30511 0.91931 0.0
H2172 H 0.33711 0.31456 0.89754 0.0
H2173 H 0.48388 0.46552 0.90871 0.0
H2174 H 0.4536 0.4312 0.8824 0.0
H2175 H 0.42379 0.38733 0.94961 0.0
H2176 H 0.45374 0.42239 0.9766 0.0
H2177 H 0.3821 0.39102 0.92582 0.0
H2178 H 0.46669 0.36158 0.89693 0.0
H2179 H 0.51588 0.36614 0.88061 0.0
H2180 H 0.50056 0.39351 0.80997 0.0
H2181 H 0.45132 0.38949 0.82602 0.0
C2182 C 0.34105 0.29548 0.8187 0.0
C2183 C 0.32003 0.30743 0.81211 0.0
C2184 C 0.35982 0.31033 0.83587 0.0
C2185 C 0.35775 0.3373 0.84721 0.0
C2186 C 0.33683 0.34933 0.84058 0.0
C2187 C 0.31823 0.3346 0.82318 0.0
C2188 C 0.37779 0.35309 0.86548 0.0
C2189 C 0.40603 0.35705 0.85683 0.0
C2190 C 0.36924 0.36486 0.89101 0.0
C2191 C 0.34021 0.35902 0.90261 0.0
C2192 C 0.32642 0.3808 0.91286 0.0
C2193 C 0.29957 0.37524 0.92517 0.0
C2194 C 0.28637 0.34798 0.92749 0.0
C2195 C 0.29996 0.32621 0.91739 0.0
C2196 C 0.32673 0.33165 0.90492 0.0
C2197 C 0.47119 0.44845 0.91801 0.0
C2198 C 0.47141 0.44682 0.94492 0.0
C2199 C 0.45389 0.42865 0.90277 0.0
C2200 C 0.43653 0.40636 0.91381 0.0
C2201 C 0.43701 0.40428 0.94056 0.0
C2202 C 0.45431 0.42426 0.95595 0.0
C2203 C 0.41703 0.38623 0.89757 0.0
C2204 C 0.38887 0.38151 0.90654 0.0
C2205 C 0.42575 0.37312 0.87261 0.0
C2206 C 0.45532 0.37541 0.86277 0.0
C2207 C 0.47383 0.36874 0.87799 0.0
C2208 C 0.50172 0.37121 0.86878 0.0
C2209 C 0.51134 0.38016 0.84429 0.0
C2210 C 0.49307 0.38659 0.82894 0.0
C2211 C 0.46516 0.38419 0.83807 0.0
H2212 H 0.53295 0.38206 0.8372 0.0
H2213 H 0.2656 0.34371 0.93706 0.0
H2214 H 0.70022 0.46246 0.81917 0.0
H2215 H 0.70646 0.48922 0.8612 0.0
H2216 H 0.75645 0.43432 0.87886 0.0
H2217 H 0.75126 0.40796 0.83583 0.0
H2218 H 0.71396 0.42865 0.90969 0.0
H2219 H 0.7754 0.50814 0.89964 0.0
H2220 H 0.80482 0.5483 0.88105 0.0
H2221 H 0.73403 0.58445 0.88017 0.0
H2222 H 0.70401 0.54413 0.89787 0.0
H2223 H 0.59761 0.46724 0.99456 0.0
H2224 H 0.64684 0.46664 0.98492 0.0
H2225 H 0.646 0.4923 0.90896 0.0
H2226 H 0.5973 0.49333 0.91842 0.0
H2227 H 0.69164 0.52186 0.93547 0.0
H2228 H 0.64147 0.42108 0.91528 0.0
H2229 H 0.61271 0.37967 0.93267 0.0
H2230 H 0.66639 0.38699 0.99267 0.0
H2231 H 0.69525 0.42851 0.97567 0.0
C2232 C 0.71387 0.4569 0.83125 0.0
C2233 C 0.72429 0.43241 0.82456 0.0
C2234 C 0.71771 0.4725 0.85548 0.0
C2235 C 0.73177 0.46373 0.8736 0.0
C2236 C 0.74553 0.44156 0.86533 0.0
C2237 C 0.74205 0.42617 0.84087 0.0
C2238 C 0.72388 0.47133 0.90195 0.0
C2239 C 0.71022 0.44941 0.916 0.0
C2240 C 0.71977 0.49845 0.9114 0.0
C2241 C 0.73738 0.52288 0.90018 0.0
C2242 C 0.76601 0.52443 0.89516 0.0
C2243 C 0.78281 0.54728 0.88478 0.0
C2244 C 0.77128 0.56888 0.87938 0.0
C2245 C 0.7429 0.56765 0.88432 0.0
C2246 C 0.72597 0.54478 0.8946 0.0
C2247 C 0.60785 0.47243 0.97568 0.0
C2248 C 0.59351 0.48041 0.95726 0.0
C2249 C 0.63605 0.47243 0.9704 0.0
C2250 C 0.65014 0.48013 0.94654 0.0
C2251 C 0.63563 0.48702 0.92781 0.0
C2252 C 0.60764 0.48709 0.93305 0.0
C2253 C 0.67936 0.47851 0.93912 0.0
C2254 C 0.69712 0.50169 0.92997 0.0
C2255 C 0.68756 0.45266 0.93426 0.0
C2256 C 0.67033 0.42779 0.94435 0.0
C2257 C 0.64703 0.41379 0.9322 0.0
C2258 C 0.63072 0.39036 0.942 0.0
C2259 C 0.63768 0.38072 0.9638 0.0
C2260 C 0.66097 0.39449 0.97584 0.0
C2261 C 0.6773 0.41796 0.96615 0.0
H2262 H 0.62505 0.36255 0.97131 0.0
H2263 H 0.78433 0.58659 0.87141 0.0
H2264 H 0.76148 0.43073 0.17685 0.0
H2265 H 0.73707 0.44163 0.14297 0.0
H2266 H 0.66211 0.39162 0.17433 0.0
H2267 H 0.68646 0.38058 0.20831 0.0
H2268 H 0.66755 0.38349 0.12185 0.0
H2269 H 0.67592 0.46281 0.18793 0.0
H2270 H 0.70035 0.50169 0.21624 0.0
H2271 H 0.7447 0.53647 0.14823 0.0
H2272 H 0.72083 0.49753 0.11951 0.0
H2273 H 0.56128 0.43533 0.08319 0.0
H2274 H 0.59536 0.42009 0.1037 0.0
H2275 H 0.65984 0.47673 0.06473 0.0
H2276 H 0.62532 0.4931 0.04451 0.0
H2277 H 0.66574 0.48145 0.11511 0.0
H2278 H 0.65129 0.40459 0.04889 0.0
H2279 H 0.62416 0.36661 0.02176 0.0
H2280 H 0.58971 0.32744 0.09038 0.0
H2281 H 0.61609 0.36542 0.11808 0.0
C2282 C 0.73977 0.42209 0.17659 0.0
C2283 C 0.72585 0.405 0.19549 0.0
C2284 C 0.72584 0.42833 0.15717 0.0
C2285 C 0.69763 0.41782 0.1563 0.0
C2286 C 0.68387 0.40001 0.17459 0.0
C2287 C 0.69783 0.39366 0.19399 0.0
C2288 C 0.68224 0.42583 0.13677 0.0
C2289 C 0.66701 0.4049 0.12046 0.0
C2290 C 0.68226 0.45382 0.1343 0.0
C2291 C 0.69687 0.47705 0.15158 0.0
C2292 C 0.6911 0.47858 0.17901 0.0
C2293 C 0.7048 0.50066 0.19513 0.0
C2294 C 0.72413 0.52148 0.18404 0.0
C2295 C 0.72978 0.52028 0.1568 0.0
C2296 C 0.71618 0.49821 0.14059 0.0
C2297 C 0.58269 0.44446 0.07854 0.0
C2298 C 0.59041 0.46573 0.06227 0.0
C2299 C 0.6023 0.43544 0.09022 0.0
C2300 C 0.6303 0.44696 0.08561 0.0
C2301 C 0.63834 0.46745 0.06855 0.0
C2302 C 0.61859 0.47671 0.0569 0.0
C2303 C 0.6505 0.43909 0.10053 0.0
C2304 C 0.66666 0.46003 0.11604 0.0
C2305 C 0.65125 0.41111 0.10231 0.0
C2306 C 0.63565 0.38797 0.0856 0.0
C2307 C 0.63783 0.38797 0.05824 0.0
C2308 C 0.62259 0.36643 0.04275 0.0
C2309 C 0.60527 0.34464 0.05432 0.0
C2310 C 0.60316 0.34432 0.08143 0.0
C2311 C 0.61827 0.36584 0.09704 0.0
H2312 H 0.5935 0.328 0.04227 0.0
H2313 H 0.73468 0.53859 0.19655 0.0
H2314 H 0.71684 0.67841 0.23655 0.0
H2315 H 0.68705 0.64878 0.20585 0.0
H2316 H 0.6644 0.72064 0.18354 0.0
H2317 H 0.69284 0.75017 0.21516 0.0
H2318 H 0.62174 0.6827 0.18359 0.0
H2319 H 0.71444 0.68511 0.14629 0.0
H2320 H 0.76298 0.68101 0.1452 0.0
H2321 H 0.73819 0.59466 0.1536 0.0
H2322 H 0.68946 0.59833 0.15529 0.0
H2323 H 0.56867 0.60295 0.06553 0.0
H2324 H 0.59838 0.63788 0.09341 0.0
H2325 H 0.61152 0.57398 0.13566 0.0
H2326 H 0.58193 0.53953 0.10861 0.0
H2327 H 0.66039 0.61121 0.12159 0.0
H2328 H 0.56667 0.61202 0.16162 0.0
H2329 H 0.51884 0.61801 0.16169 0.0
H2330 H 0.54767 0.70157 0.14471 0.0
H2331 H 0.59574 0.69591 0.14408 0.0
C2332 C 0.7053 0.68793 0.22535 0.0
C2333 C 0.70768 0.71682 0.22817 0.0
C2334 C 0.6884 0.67093 0.20754 0.0
C2335 C 0.67393 0.68239 0.19165 0.0
C2336 C 0.67541 0.71113 0.19528 0.0
C2337 C 0.69187 0.72808 0.2134 0.0
C2338 C 0.65773 0.66457 0.17099 0.0
C2339 C 0.63044 0.6674 0.1698 0.0
C2340 C 0.66885 0.6445 0.15277 0.0
C2341 C 0.69822 0.64205 0.15112 0.0
C2342 C 0.71931 0.66526 0.14803 0.0
C2343 C 0.74687 0.66303 0.14733 0.0
C2344 C 0.75366 0.63761 0.14937 0.0
C2345 C 0.7329 0.61435 0.15204 0.0
C2346 C 0.7053 0.61649 0.15287 0.0
C2347 C 0.57797 0.59645 0.08074 0.0
C2348 C 0.57263 0.56848 0.08499 0.0
C2349 C 0.5949 0.61638 0.09667 0.0
C2350 C 0.60717 0.60856 0.11672 0.0
C2351 C 0.60237 0.58058 0.12039 0.0
C2352 C 0.58521 0.5609 0.10495 0.0
C2353 C 0.62447 0.62914 0.13459 0.0
C2354 C 0.65195 0.6268 0.13522 0.0
C2355 C 0.61371 0.64999 0.15191 0.0
C2356 C 0.58481 0.65342 0.15246 0.0
C2357 C 0.56283 0.63158 0.15765 0.0
C2358 C 0.53567 0.63494 0.15783 0.0
C2359 C 0.53022 0.66013 0.15312 0.0
C2360 C 0.55192 0.68205 0.14829 0.0
C2361 C 0.57913 0.67877 0.14801 0.0
H2362 H 0.50918 0.66269 0.15328 0.0
H2363 H 0.775 0.63593 0.14885 0.0
H2364 H 0.35197 0.71925 0.17395 0.0
H2365 H 0.35899 0.68435 0.13865 0.0
H2366 H 0.43858 0.73123 0.11507 0.0
H2367 H 0.4314 0.76805 0.14973 0.0
H2368 H 0.38954 0.66904 0.08213 0.0
H2369 H 0.47461 0.7005 0.14522 0.0
H2370 H 0.48652 0.72576 0.18808 0.0
H2371 H 0.40415 0.69801 0.22246 0.0
H2372 H 0.39189 0.67253 0.17981 0.0
H2373 H 0.48794 0.58526 0.04586 0.0
H2374 H 0.46354 0.62283 0.06073 0.0
H2375 H 0.42366 0.58178 0.12737 0.0
H2376 H 0.44788 0.543 0.11211 0.0
H2377 H 0.44682 0.6375 0.13902 0.0
H2378 H 0.38645 0.58211 0.08126 0.0
H2379 H 0.37114 0.55376 0.04098 0.0
H2380 H 0.39858 0.62363 0.99797 0.0
H2381 H 0.41473 0.65231 0.03785 0.0
C2382 C 0.37083 0.72336 0.16129 0.0
C2383 C 0.39296 0.74516 0.16749 0.0
C2384 C 0.3744 0.70313 0.14035 0.0
C2385 C 0.39994 0.70456 0.12551 0.0
C2386 C 0.41905 0.72941 0.12722 0.0
C2387 C 0.41521 0.75007 0.14783 0.0
C2388 C 0.40988 0.6786 0.1173 0.0
C2389 C 0.40235 0.66214 0.09422 0.0
C2390 C 0.42531 0.66919 0.13398 0.0
C2391 C 0.43233 0.68492 0.15942 0.0
C2392 C 0.45909 0.69988 0.16196 0.0
C2393 C 0.4659 0.71416 0.18619 0.0
C2394 C 0.44613 0.71339 0.208 0.0
C2395 C 0.41947 0.69848 0.20559 0.0
C2396 C 0.41256 0.68419 0.18139 0.0
C2397 C 0.47394 0.584 0.0637 0.0
C2398 C 0.46951 0.56098 0.07772 0.0
C2399 C 0.45988 0.60545 0.07199 0.0
C2400 C 0.44129 0.60453 0.09459 0.0
C2401 C 0.43766 0.58236 0.10952 0.0
C2402 C 0.45166 0.5605 0.10103 0.0
C2403 C 0.42741 0.62805 0.10322 0.0
C2404 C 0.43409 0.64416 0.12666 0.0
C2405 C 0.41092 0.63671 0.08691 0.0
C2406 C 0.40199 0.61936 0.0626 0.0
C2407 C 0.3896 0.59138 0.06316 0.0
C2408 C 0.38071 0.57525 0.04039 0.0
C2409 C 0.38387 0.5869 0.01695 0.0
C2410 C 0.39615 0.61465 0.01616 0.0
C2411 C 0.40518 0.63085 0.03885 0.0
H2412 H 0.37662 0.57445 0.99948 0.0
H2413 H 0.45145 0.72443 0.22675 0.0
H2414 H 0.2793 0.34409 0.22597 0.0
H2415 H 0.30246 0.37189 0.19141 0.0
H2416 H 0.37055 0.32892 0.18254 0.0
H2417 H 0.34796 0.30194 0.21795 0.0
H2418 H 0.38974 0.38029 0.17852 0.0
H2419 H 0.31796 0.31353 0.13841 0.0
H2420 H 0.26975 0.28922 0.13741 0.0
H2421 H 0.24422 0.36602 0.13548 0.0
H2422 H 0.29236 0.39086 0.13617 0.0
H2423 H 0.45385 0.40637 0.05714 0.0
H2424 H 0.4199 0.37907 0.08617 0.0
H2425 H 0.37307 0.44445 0.10157 0.0
H2426 H 0.40718 0.47196 0.07215 0.0
H2427 H 0.34068 0.38472 0.1023 0.0
H2428 H 0.41517 0.45046 0.1404 0.0
H2429 H 0.46402 0.47252 0.14132 0.0
H2430 H 0.4847 0.39431 0.14761 0.0
H2431 H 0.43601 0.37169 0.14619 0.0
C2432 C 0.29931 0.34072 0.21677 0.0
C2433 C 0.31179 0.32076 0.2246 0.0
C2434 C 0.31245 0.35649 0.19684 0.0
C2435 C 0.33802 0.35212 0.1838 0.0
C2436 C 0.35082 0.33269 0.19217 0.0
C2437 C 0.33793 0.3173 0.21246 0.0
C2438 C 0.35143 0.36757 0.16138 0.0
C2439 C 0.37898 0.38099 0.16183 0.0
C2440 C 0.33738 0.36906 0.13966 0.0
C2441 C 0.30874 0.35405 0.13742 0.0
C2442 C 0.30209 0.32522 0.13759 0.0
C2443 C 0.2748 0.31136 0.13707 0.0
C2444 C 0.25398 0.32609 0.1363 0.0
C2445 C 0.26044 0.35468 0.13583 0.0
C2446 C 0.28773 0.36864 0.13618 0.0
C2447 C 0.43568 0.41443 0.06577 0.0
C2448 C 0.43314 0.44127 0.06242 0.0
C2449 C 0.41632 0.39883 0.08242 0.0
C2450 C 0.39418 0.40988 0.09632 0.0
C2451 C 0.38997 0.43551 0.09096 0.0
C2452 C 0.40939 0.45116 0.07405 0.0
C2453 C 0.37896 0.39691 0.11947 0.0
C2454 C 0.35121 0.38407 0.11914 0.0
C2455 C 0.39284 0.39564 0.14128 0.0
C2456 C 0.42199 0.40936 0.14297 0.0
C2457 C 0.43016 0.43794 0.14182 0.0
C2458 C 0.45782 0.45055 0.14243 0.0
C2459 C 0.47746 0.43482 0.14447 0.0
C2460 C 0.46946 0.40647 0.146 0.0
C2461 C 0.44184 0.39374 0.14531 0.0
H2462 H 0.49887 0.4446 0.14491 0.0
H2463 H 0.23283 0.31537 0.13611 0.0
H2464 H 0.77935 0.6848 0.70169 0.0
H2465 H 0.80813 0.65546 0.67424 0.0
H2466 H 0.87876 0.70052 0.71188 0.0
H2467 H 0.8505 0.7316 0.73733 0.0
H2468 H 0.89723 0.68939 0.66605 0.0
H2469 H 0.83989 0.62965 0.72369 0.0
H2470 H 0.7964 0.6065 0.74612 0.0
H2471 H 0.76957 0.56836 0.67184 0.0
H2472 H 0.81279 0.59149 0.64896 0.0
H2473 H 0.97935 0.58547 0.61732 0.0
H2474 H 0.95004 0.6122 0.64856 0.0
H2475 H 0.88568 0.58901 0.59736 0.0
H2476 H 0.915 0.56298 0.56603 0.0
H2477 H 0.86537 0.5879 0.65158 0.0
H2478 H 0.92603 0.64972 0.59543 0.0
H2479 H 0.97158 0.67173 0.57601 0.0
H2480 H 0.9947 0.70468 0.65286 0.0
H2481 H 0.94939 0.6825 0.67276 0.0
C2482 C 0.8011 0.68906 0.70363 0.0
C2483 C 0.81237 0.71131 0.72143 0.0
C2484 C 0.81766 0.67165 0.68827 0.0
C2485 C 0.84597 0.67501 0.69098 0.0
C2486 C 0.85719 0.69713 0.70897 0.0
C2487 C 0.84079 0.71498 0.72377 0.0
C2488 C 0.86392 0.65588 0.67508 0.0
C2489 C 0.89021 0.66718 0.66341 0.0
C2490 C 0.85533 0.62665 0.67098 0.0
C2491 C 0.82944 0.61251 0.68463 0.0
C2492 C 0.82463 0.61645 0.71215 0.0
C2493 C 0.80005 0.60332 0.72494 0.0
C2494 C 0.7802 0.58606 0.7104 0.0
C2495 C 0.78495 0.58178 0.68306 0.0
C2496 C 0.8095 0.59485 0.67018 0.0
C2497 C 0.95868 0.58546 0.61308 0.0
C2498 C 0.94949 0.57174 0.58922 0.0
C2499 C 0.94198 0.60103 0.63085 0.0
C2500 C 0.9155 0.60293 0.62541 0.0
C2501 C 0.90586 0.58801 0.60223 0.0
C2502 C 0.92269 0.573 0.58429 0.0
C2503 C 0.89836 0.62154 0.64284 0.0
C2504 C 0.87227 0.61012 0.65459 0.0
C2505 C 0.90739 0.65055 0.64757 0.0
C2506 C 0.93444 0.66421 0.63559 0.0
C2507 C 0.9409 0.66149 0.60819 0.0
C2508 C 0.96666 0.67402 0.5971 0.0
C2509 C 0.98605 0.68952 0.61319 0.0
C2510 C 0.97968 0.69262 0.64042 0.0
C2511 C 0.95395 0.68009 0.65161 0.0
H2512 H 1.00599 0.69919 0.60457 0.0
H2513 H 0.76117 0.57593 0.72033 0.0
H2514 H 0.32501 0.83971 0.73601 0.0
H2515 H 0.35719 0.86138 0.70179 0.0
H2516 H 0.34213 0.7857 0.64927 0.0
H2517 H 0.30922 0.76416 0.68329 0.0
H2518 H 0.40423 0.8519 0.67391 0.0
H2519 H 0.33891 0.80302 0.58849 0.0
H2520 H 0.29011 0.78497 0.58194 0.0
H2521 H 0.26515 0.83716 0.65056 0.0
H2522 H 0.31375 0.85578 0.65725 0.0
H2523 H 0.4842 0.90482 0.5625 0.0
H2524 H 0.4558 0.86886 0.58762 0.0
H2525 H 0.38662 0.90976 0.59296 0.0
H2526 H 0.4146 0.94515 0.56782 0.0
H2527 H 0.3683 0.85687 0.59023 0.0
H2528 H 0.43233 0.9238 0.63784 0.0
H2529 H 0.47788 0.94976 0.64839 0.0
H2530 H 0.50019 0.87517 0.66359 0.0
H2531 H 0.45522 0.84848 0.6519 0.0
C2532 C 0.3284 0.82776 0.7171 0.0
C2533 C 0.3141 0.80048 0.7121 0.0
C2534 C 0.3471 0.84004 0.69768 0.0
C2535 C 0.35188 0.82529 0.67284 0.0
C2536 C 0.33852 0.7976 0.66818 0.0
C2537 C 0.31979 0.7853 0.68764 0.0
C2538 C 0.36951 0.83951 0.65146 0.0
C2539 C 0.39656 0.85269 0.65545 0.0
C2540 C 0.3592 0.84128 0.62771 0.0
C2541 C 0.32994 0.83048 0.62354 0.0
C2542 C 0.32299 0.81068 0.60211 0.0
C2543 C 0.29537 0.80036 0.59838 0.0
C2544 C 0.27455 0.80983 0.61588 0.0
C2545 C 0.28128 0.82976 0.63708 0.0
C2546 C 0.30885 0.84017 0.64086 0.0
C2547 C 0.46264 0.90544 0.56818 0.0
C2548 C 0.45158 0.92779 0.56333 0.0
C2549 C 0.44651 0.88507 0.58276 0.0
C2550 C 0.41917 0.88685 0.59262 0.0
C2551 C 0.4076 0.90788 0.58569 0.0
C2552 C 0.42364 0.92816 0.57133 0.0
C2553 C 0.40331 0.86909 0.61243 0.0
C2554 C 0.3764 0.8554 0.6083 0.0
C2555 C 0.41339 0.86798 0.63656 0.0
C2556 C 0.44057 0.884 0.64343 0.0
C2557 C 0.44711 0.91281 0.64297 0.0
C2558 C 0.47285 0.92767 0.64913 0.0
C2559 C 0.49203 0.91408 0.65641 0.0
C2560 C 0.48542 0.88562 0.65768 0.0
C2561 C 0.45986 0.87059 0.65114 0.0
H2562 H 0.51192 0.92562 0.66124 0.0
H2563 H 0.25319 0.80179 0.61297 0.0
H2564 H 0.20545 0.39517 0.69577 0.0
H2565 H 0.17293 0.42188 0.68539 0.0
H2566 H 0.14301 0.355 0.62734 0.0
H2567 H 0.17617 0.32888 0.63703 0.0
H2568 H 0.15273 0.39928 0.60651 0.0
H2569 H 0.10412 0.37315 0.68733 0.0
H2570 H 0.09747 0.36769 0.73444 0.0
H2571 H 0.11725 0.45573 0.7538 0.0
H2572 H 0.1244 0.46171 0.70677 0.0
H2573 H 0.02361 0.45726 0.6098 0.0
H2574 H 0.05047 0.43702 0.63569 0.0
H2575 H 0.12531 0.4847 0.60129 0.0
H2576 H 0.09851 0.50441 0.57515 0.0
H2577 H 0.09043 0.44903 0.66961 0.0
H2578 H 0.1685 0.44169 0.57698 0.0
H2579 H 0.17018 0.44292 0.52931 0.0
H2580 H 0.08312 0.41226 0.53277 0.0
H2581 H 0.081 0.41038 0.58034 0.0
C2582 C 0.19157 0.38609 0.68112 0.0
C2583 C 0.19335 0.36008 0.66708 0.0
C2584 C 0.17293 0.40129 0.67523 0.0
C2585 C 0.15538 0.39048 0.6556 0.0
C2586 C 0.15643 0.36394 0.64242 0.0
C2587 C 0.17532 0.34898 0.64798 0.0
C2588 C 0.13746 0.40746 0.64725 0.0
C2589 C 0.13912 0.41007 0.62042 0.0
C2590 C 0.11934 0.42136 0.66521 0.0
C2591 C 0.11506 0.41786 0.69351 0.0
C2592 C 0.10728 0.39134 0.70163 0.0
C2593 C 0.10337 0.38815 0.72832 0.0
C2594 C 0.10701 0.41135 0.7471 0.0
C2595 C 0.11448 0.43778 0.73923 0.0
C2596 C 0.11843 0.44109 0.71256 0.0
C2597 C 0.04568 0.46435 0.60884 0.0
C2598 C 0.05912 0.48237 0.59071 0.0
C2599 C 0.06102 0.45268 0.62347 0.0
C2600 C 0.0899 0.45887 0.61991 0.0
C2601 C 0.10306 0.47928 0.60396 0.0
C2602 C 0.08778 0.49073 0.58924 0.0
C2603 C 0.10619 0.44098 0.62912 0.0
C2604 C 0.10418 0.43822 0.65592 0.0
C2605 C 0.12335 0.4261 0.61108 0.0
C2606 C 0.12458 0.42621 0.58228 0.0
C2607 C 0.14976 0.43506 0.56753 0.0
C2608 C 0.15077 0.43589 0.54054 0.0
C2609 C 0.12675 0.42783 0.52805 0.0
C2610 C 0.10169 0.41864 0.54249 0.0
C2611 C 0.10057 0.41767 0.56946 0.0
H2612 H 0.12756 0.42865 0.50719 0.0
H2613 H 0.10398 0.40883 0.76776 0.0
H2614 H 0.67475 0.22341 0.74303 0.0
H2615 H 0.64684 0.19034 0.7129 0.0
H2616 H 0.71641 0.19409 0.65367 0.0
H2617 H 0.74407 0.22801 0.68342 0.0
H2618 H 0.67099 0.19396 0.63173 0.0
H2619 H 0.69613 0.1386 0.68897 0.0
H2620 H 0.70164 0.12455 0.73142 0.0
H2621 H 0.61429 0.11222 0.75209 0.0
H2622 H 0.6082 0.1265 0.7099 0.0
H2623 H 0.5972 0.07845 0.55272 0.0
H2624 H 0.63255 0.10851 0.57791 0.0
H2625 H 0.57332 0.11118 0.64643 0.0
H2626 H 0.53855 0.08058 0.62188 0.0
H2627 H 0.61903 0.10556 0.66084 0.0
H2628 H 0.59545 0.16597 0.60444 0.0
H2629 H 0.59063 0.17833 0.56104 0.0
H2630 H 0.67659 0.17942 0.53782 0.0
H2631 H 0.68185 0.16683 0.58103 0.0
C2632 C 0.68411 0.2172 0.72358 0.0
C2633 C 0.71183 0.22792 0.71586 0.0
C2634 C 0.66817 0.19814 0.70638 0.0
C2635 C 0.67957 0.18921 0.68106 0.0
C2636 C 0.70712 0.20039 0.67311 0.0
C2637 C 0.72305 0.21952 0.69031 0.0
C2638 C 0.66268 0.16824 0.66304 0.0
C2639 C 0.65993 0.17447 0.63799 0.0
C2640 C 0.64814 0.14273 0.67103 0.0
C2641 C 0.65172 0.13382 0.69632 0.0
C2642 C 0.67809 0.13305 0.70262 0.0
C2643 C 0.68133 0.12504 0.72663 0.0
C2644 C 0.65836 0.11759 0.74445 0.0
C2645 C 0.63207 0.11803 0.73827 0.0
C2646 C 0.6287 0.12603 0.71429 0.0
C2647 C 0.59176 0.08545 0.57316 0.0
C2648 C 0.56495 0.077 0.58519 0.0
C2649 C 0.61198 0.10278 0.58756 0.0
C2650 C 0.60567 0.11254 0.61415 0.0
C2651 C 0.57893 0.10399 0.62606 0.0
C2652 C 0.55894 0.08645 0.61188 0.0
C2653 C 0.62648 0.13166 0.6299 0.0
C2654 C 0.63015 0.125 0.65452 0.0
C2655 C 0.64195 0.15665 0.62142 0.0
C2656 C 0.63899 0.16525 0.59586 0.0
C2657 C 0.61331 0.16882 0.59006 0.0
C2658 C 0.6105 0.17585 0.5655 0.0
C2659 C 0.63328 0.17959 0.54666 0.0
C2660 C 0.65896 0.1765 0.55242 0.0
C2661 C 0.66188 0.16947 0.57695 0.0
H2662 H 0.63104 0.18491 0.52762 0.0
H2663 H 0.66093 0.11142 0.76304 0.0
H2664 H 0.82575 0.34459 0.2983 0.0
H2665 H 0.85825 0.3715 0.32809 0.0
H2666 H 0.83193 0.31085 0.38249 0.0
H2667 H 0.80062 0.28322 0.35207 0.0
H2668 H 0.85595 0.39751 0.37355 0.0
H2669 H 0.88172 0.30661 0.41798 0.0
H2670 H 0.88395 0.25737 0.40528 0.0
H2671 H 0.8986 0.27042 0.32411 0.0
H2672 H 0.89675 0.31982 0.33629 0.0
H2673 H 0.93065 0.4564 0.48139 0.0
H2674 H 0.8968 0.42812 0.45362 0.0
H2675 H 0.96059 0.38868 0.40899 0.0
H2676 H 0.99381 0.41535 0.43811 0.0
H2677 H 0.91891 0.35235 0.41144 0.0
H2678 H 0.93268 0.44563 0.39106 0.0
H2679 H 0.93345 0.49574 0.40068 0.0
H2680 H 0.84671 0.48011 0.42516 0.0
H2681 H 0.84558 0.42993 0.41667 0.0
C2682 C 0.82688 0.33706 0.31666 0.0
C2683 C 0.81079 0.31169 0.32276 0.0
C2684 C 0.84548 0.35247 0.33372 0.0
C2685 C 0.84811 0.34306 0.35745 0.0
C2686 C 0.83108 0.31826 0.36402 0.0
C2687 C 0.81298 0.30254 0.34669 0.0
C2688 C 0.86871 0.35908 0.37516 0.0
C2689 C 0.86975 0.38761 0.38178 0.0
C2690 C 0.88718 0.34644 0.38567 0.0
C2691 C 0.88885 0.31687 0.37808 0.0
C2692 C 0.88555 0.299 0.39743 0.0
C2693 C 0.8867 0.27106 0.39031 0.0
C2694 C 0.8913 0.26077 0.36389 0.0
C2695 C 0.8949 0.27843 0.34454 0.0
C2696 C 0.89378 0.30639 0.35154 0.0
C2697 C 0.93728 0.44147 0.46578 0.0
C2698 C 0.96481 0.43806 0.46186 0.0
C2699 C 0.91799 0.42546 0.44971 0.0
C2700 C 0.92608 0.40661 0.42857 0.0
C2701 C 0.95361 0.40297 0.42503 0.0
C2702 C 0.97266 0.41827 0.44166 0.0
C2703 C 0.90617 0.3909 0.40996 0.0
C2704 C 0.90521 0.36235 0.40318 0.0
C2705 C 0.8884 0.40374 0.39863 0.0
C2706 C 0.8891 0.43398 0.40344 0.0
C2707 C 0.91381 0.45287 0.3987 0.0
C2708 C 0.91432 0.48129 0.40402 0.0
C2709 C 0.89012 0.49106 0.41348 0.0
C2710 C 0.86542 0.47248 0.41783 0.0
C2711 C 0.86486 0.44406 0.41287 0.0
H2712 H 0.89042 0.51302 0.41734 0.0
H2713 H 0.89214 0.23913 0.35842 0.0
H2714 H 0.73994 0.84912 0.31134 0.0
H2715 H 0.70975 0.87516 0.34093 0.0
H2716 H 0.65586 0.7991 0.35838 0.0
H2717 H 0.68478 0.77312 0.32631 0.0
H2718 H 0.62465 0.83362 0.35873 0.0
H2719 H 0.70568 0.84261 0.40128 0.0
H2720 H 0.75577 0.85258 0.40377 0.0
H2721 H 0.75941 0.93677 0.39151 0.0
H2722 H 0.7094 0.92719 0.38845 0.0
H2723 H 0.5515 0.90734 0.46745 0.0
H2724 H 0.58011 0.87584 0.44184 0.0
H2725 H 0.63619 0.9454 0.41263 0.0
H2726 H 0.60832 0.9766 0.43816 0.0
H2727 H 0.66568 0.91093 0.4216 0.0
H2728 H 0.58454 0.89976 0.37617 0.0
H2729 H 0.53464 0.88846 0.37246 0.0
H2730 H 0.53144 0.80672 0.39163 0.0
H2731 H 0.58127 0.81766 0.3958 0.0
C2732 C 0.72146 0.83778 0.32106 0.0
C2733 C 0.71519 0.80868 0.31626 0.0
C2734 C 0.70427 0.85284 0.33861 0.0
C2735 C 0.68049 0.83948 0.353 0.0
C2736 C 0.67401 0.81035 0.34805 0.0
C2737 C 0.69094 0.79529 0.3299 0.0
C2738 C 0.66262 0.85589 0.37288 0.0
C2739 C 0.63376 0.85018 0.37273 0.0
C2740 C 0.67391 0.87794 0.39138 0.0
C2741 C 0.70377 0.88414 0.3945 0.0
C2742 C 0.71715 0.86326 0.39911 0.0
C2743 C 0.74555 0.86882 0.40056 0.0
C2744 C 0.76077 0.89528 0.39776 0.0
C2745 C 0.7476 0.91628 0.39366 0.0
C2746 C 0.71921 0.9108 0.3921 0.0
C2747 C 0.57008 0.91599 0.45583 0.0
C2748 C 0.57719 0.94484 0.45509 0.0
C2749 C 0.58644 0.89783 0.44086 0.0
C2750 C 0.61049 0.90785 0.42462 0.0
C2751 C 0.61796 0.93667 0.42468 0.0
C2752 C 0.6017 0.95469 0.43944 0.0
C2753 C 0.62777 0.8889 0.40717 0.0
C2754 C 0.65657 0.89417 0.40777 0.0
C2755 C 0.61641 0.86628 0.38932 0.0
C2756 C 0.58655 0.85963 0.38657 0.0
C2757 C 0.57315 0.87943 0.37975 0.0
C2758 C 0.54489 0.87309 0.37755 0.0
C2759 C 0.52986 0.84692 0.38188 0.0
C2760 C 0.54309 0.827 0.38833 0.0
C2761 C 0.57134 0.83326 0.3906 0.0
H2762 H 0.50799 0.84205 0.38018 0.0
H2763 H 0.78277 0.89953 0.3988 0.0
H2764 H 0.25641 0.71508 0.34601 0.0
H2765 H 0.22559 0.68579 0.37572 0.0
H2766 H 0.1607 0.67684 0.32592 0.0
H2767 H 0.19125 0.70706 0.29685 0.0
H2768 H 0.13807 0.68145 0.37069 0.0
H2769 H 0.19756 0.622 0.33049 0.0
H2770 H 0.23923 0.60278 0.31441 0.0
H2771 H 0.26175 0.61335 0.39293 0.0
H2772 H 0.22013 0.63265 0.40951 0.0
H2773 H 0.08986 0.54734 0.4404 0.0
H2774 H 0.12311 0.57308 0.40933 0.0
H2775 H 0.10695 0.64985 0.45266 0.0
H2776 H 0.07304 0.62426 0.48302 0.0
H2777 H 0.16833 0.60761 0.40789 0.0
H2778 H 0.10746 0.69746 0.41322 0.0
H2779 H 0.05917 0.70372 0.42087 0.0
H2780 H 0.03176 0.61728 0.39706 0.0
H2781 H 0.07985 0.6106 0.38885 0.0
C2782 C 0.23564 0.70671 0.34133 0.0
C2783 C 0.22639 0.71326 0.31894 0.0
C2784 C 0.21797 0.68979 0.3583 0.0
C2785 C 0.19074 0.67847 0.35302 0.0
C2786 C 0.18148 0.68522 0.33068 0.0
C2787 C 0.19901 0.70255 0.31398 0.0
C2788 C 0.1717 0.66042 0.37116 0.0
C2789 C 0.14484 0.66535 0.37874 0.0
C2790 C 0.17977 0.63856 0.3812 0.0
C2791 C 0.20585 0.62898 0.3712 0.0
C2792 C 0.21159 0.62058 0.34428 0.0
C2793 C 0.23512 0.60952 0.3351 0.0
C2794 C 0.25307 0.60675 0.35266 0.0
C2795 C 0.24774 0.6154 0.37938 0.0
C2796 C 0.22417 0.62637 0.38869 0.0
C2797 C 0.09374 0.56971 0.44353 0.0
C2798 C 0.07861 0.58374 0.46405 0.0
C2799 C 0.11273 0.58445 0.42569 0.0
C2800 C 0.11714 0.61349 0.42817 0.0
C2801 C 0.1034 0.62748 0.44976 0.0
C2802 C 0.08414 0.6128 0.46728 0.0
C2803 C 0.1352 0.62921 0.40779 0.0
C2804 C 0.16176 0.62384 0.39984 0.0
C2805 C 0.12629 0.6495 0.39616 0.0
C2806 C 0.09729 0.65351 0.4007 0.0
C2807 C 0.09114 0.67983 0.4095 0.0
C2808 C 0.06379 0.68344 0.41394 0.0
C2809 C 0.04241 0.6609 0.40953 0.0
C2810 C 0.04833 0.63471 0.40055 0.0
C2811 C 0.07563 0.631 0.39602 0.0
H2812 H 0.02126 0.66374 0.41302 0.0
H2813 H 0.27114 0.59792 0.34557 0.0
H2814 H 0.36405 0.14129 0.32057 0.0
H2815 H 0.37779 0.11448 0.3506 0.0
H2816 H 0.38453 0.1854 0.40959 0.0
H2817 H 0.37174 0.21277 0.37892 0.0
H2818 H 0.42871 0.16343 0.40548 0.0
H2819 H 0.33253 0.12657 0.41476 0.0
H2820 H 0.28678 0.10548 0.40083 0.0
H2821 H 0.31765 0.03342 0.36381 0.0
H2822 H 0.36369 0.05422 0.37712 0.0
H2823 H 0.45692 0.0821 0.49812 0.0
H2824 H 0.42897 0.10705 0.47814 0.0
H2825 H 0.43872 0.05441 0.40518 0.0
H2826 H 0.46739 0.02992 0.42478 0.0
H2827 H 0.38248 0.06846 0.42209 0.0
H2828 H 0.47912 0.10893 0.40514 0.0
H2829 H 0.52531 0.12876 0.41856 0.0
H2830 H 0.49279 0.19277 0.47005 0.0
H2831 H 0.44627 0.17309 0.45707 0.0
C2832 C 0.36837 0.1512 0.33994 0.0
C2833 C 0.36712 0.17928 0.34718 0.0
C2834 C 0.37591 0.13571 0.35729 0.0
C2835 C 0.38202 0.14774 0.38257 0.0
C2836 C 0.37987 0.17557 0.39024 0.0
C2837 C 0.37236 0.19116 0.37277 0.0
C2838 C 0.39266 0.13177 0.39997 0.0
C2839 C 0.41818 0.14293 0.40955 0.0
C2840 C 0.37939 0.10465 0.40492 0.0
C2841 C 0.35168 0.09211 0.39677 0.0
C2842 C 0.32965 0.10633 0.40345 0.0
C2843 C 0.30364 0.09441 0.39569 0.0
C2844 C 0.29934 0.06817 0.38138 0.0
C2845 C 0.32102 0.05377 0.37486 0.0
C2846 C 0.34707 0.06561 0.38253 0.0
C2847 C 0.45262 0.07547 0.47798 0.0
C2848 C 0.46443 0.05415 0.46295 0.0
C2849 C 0.43674 0.0898 0.46659 0.0
C2850 C 0.43192 0.08265 0.44016 0.0
C2851 C 0.4422 0.06022 0.4256 0.0
C2852 C 0.45863 0.04632 0.43679 0.0
C2853 C 0.41839 0.10008 0.42698 0.0
C2854 C 0.39255 0.08916 0.41824 0.0
C2855 C 0.4313 0.12733 0.42269 0.0
C2856 C 0.45921 0.13937 0.43038 0.0
C2857 C 0.48179 0.1271 0.4195 0.0
C2858 C 0.50803 0.13833 0.42698 0.0
C2859 C 0.51199 0.16195 0.44524 0.0
C2860 C 0.48969 0.17444 0.45595 0.0
C2861 C 0.46339 0.16328 0.44851 0.0
H2862 H 0.53233 0.1706 0.45101 0.0
H2863 H 0.27921 0.05897 0.37537 0.0
H2864 H 0.69649 0.84869 0.66246 0.0
H2865 H 0.67898 0.87048 0.63014 0.0
H2866 H 0.60255 0.87022 0.67988 0.0
H2867 H 0.61974 0.84831 0.71194 0.0
H2868 H 0.59413 0.85513 0.62813 0.0
H2869 H 0.65247 0.9276 0.68004 0.0
H2870 H 0.69632 0.95012 0.69734 0.0
H2871 H 0.73569 0.95495 0.61882 0.0
H2872 H 0.6921 0.93212 0.60106 0.0
H2873 H 0.53163 0.96181 0.60964 0.0
H2874 H 0.55836 0.93412 0.6267 0.0
H2875 H 0.61858 0.94246 0.55918 0.0
H2876 H 0.59144 0.97027 0.54137 0.0
H2877 H 0.64075 0.94958 0.61009 0.0
H2878 H 0.57931 0.88649 0.55874 0.0
H2879 H 0.53518 0.86515 0.54164 0.0
H2880 H 0.50195 0.84088 0.61732 0.0
H2881 H 0.54544 0.8633 0.63532 0.0
C2882 C 0.67582 0.85294 0.66628 0.0
C2883 C 0.65957 0.84698 0.68985 0.0
C2884 C 0.6659 0.86554 0.64788 0.0
C2885 C 0.63952 0.87223 0.65268 0.0
C2886 C 0.62296 0.8653 0.67574 0.0
C2887 C 0.63289 0.85296 0.69414 0.0
C2888 C 0.62927 0.88748 0.63451 0.0
C2889 C 0.60428 0.87579 0.6242 0.0
C2890 C 0.64303 0.91405 0.62856 0.0
C2891 C 0.66915 0.92785 0.63924 0.0
C2892 C 0.67054 0.93327 0.66647 0.0
C2893 C 0.69532 0.94612 0.67636 0.0
C2894 C 0.7188 0.95388 0.65919 0.0
C2895 C 0.7175 0.94887 0.63209 0.0
C2896 C 0.69277 0.93598 0.62211 0.0
C2897 C 0.55067 0.95813 0.59834 0.0
C2898 C 0.55932 0.96837 0.574 0.0
C2899 C 0.56588 0.94212 0.60817 0.0
C2900 C 0.59029 0.93599 0.59412 0.0
C2901 C 0.59971 0.94691 0.57028 0.0
C2902 C 0.58419 0.96277 0.56015 0.0
C2903 C 0.60513 0.91759 0.60454 0.0
C2904 C 0.63089 0.92867 0.61345 0.0
C2905 C 0.59209 0.89038 0.60912 0.0
C2906 C 0.56568 0.87693 0.5985 0.0
C2907 C 0.56248 0.87705 0.57191 0.0
C2908 C 0.53753 0.86478 0.56206 0.0
C2909 C 0.5157 0.85187 0.57845 0.0
C2910 C 0.5188 0.85116 0.60473 0.0
C2911 C 0.54359 0.86371 0.61479 0.0
H2912 H 0.49645 0.84225 0.57076 0.0
H2913 H 0.73797 0.96383 0.66687 0.0
H2914 H 0.70384 0.19079 0.30269 0.0
H2915 H 0.67337 0.16967 0.33821 0.0
H2916 H 0.67952 0.24907 0.38502 0.0
H2917 H 0.71199 0.27005 0.35028 0.0
H2918 H 0.68889 0.18176 0.40017 0.0
H2919 H 0.5984 0.23503 0.40314 0.0
H2920 H 0.57422 0.2562 0.37514 0.0
H2921 H 0.60111 0.20378 0.30762 0.0
H2922 H 0.62474 0.18176 0.3353 0.0
H2923 H 0.58944 0.12274 0.50054 0.0
H2924 H 0.61729 0.1603 0.47669 0.0
H2925 H 0.58167 0.12189 0.4058 0.0
H2926 H 0.5542 0.08495 0.42936 0.0
H2927 H 0.58791 0.1768 0.4087 0.0
H2928 H 0.64403 0.10961 0.41962 0.0
H2929 H 0.66514 0.08456 0.44685 0.0
H2930 H 0.70618 0.16164 0.48456 0.0
H2931 H 0.68517 0.18711 0.45761 0.0
C2932 C 0.6992 0.20375 0.32069 0.0
C2933 C 0.71069 0.23211 0.3237 0.0
C2934 C 0.68152 0.19166 0.34088 0.0
C2935 C 0.67413 0.20781 0.36419 0.0
C2936 C 0.68489 0.23627 0.36711 0.0
C2937 C 0.70322 0.24828 0.34712 0.0
C2938 C 0.65563 0.19446 0.3855 0.0
C2939 C 0.66685 0.18104 0.40234 0.0
C2940 C 0.62693 0.19345 0.3883 0.0
C2941 C 0.61378 0.20716 0.37122 0.0
C2942 C 0.59922 0.22811 0.3823 0.0
C2943 C 0.58547 0.24012 0.36652 0.0
C2944 C 0.58602 0.23121 0.33965 0.0
C2945 C 0.60064 0.21055 0.32844 0.0
C2946 C 0.6143 0.19838 0.34416 0.0
C2947 C 0.58722 0.12283 0.48004 0.0
C2948 C 0.56985 0.10097 0.46668 0.0
C2949 C 0.60321 0.14413 0.46637 0.0
C2950 C 0.60182 0.1438 0.4393 0.0
C2951 C 0.58318 0.12273 0.42659 0.0
C2952 C 0.56755 0.10154 0.44006 0.0
C2953 C 0.62103 0.16359 0.42319 0.0
C2954 C 0.61003 0.17822 0.40719 0.0
C2955 C 0.64992 0.16551 0.421 0.0
C2956 C 0.66289 0.15022 0.43681 0.0
C2957 C 0.65751 0.12118 0.43378 0.0
C2958 C 0.66945 0.10692 0.44914 0.0
C2959 C 0.68695 0.1215 0.46746 0.0
C2960 C 0.69262 0.15038 0.47038 0.0
C2961 C 0.68073 0.16473 0.45505 0.0
H2962 H 0.69615 0.11042 0.47936 0.0
H2963 H 0.57513 0.24033 0.32751 0.0
H2964 H 0.81811 0.63387 0.34019 0.0
H2965 H 0.84536 0.61529 0.36684 0.0
H2966 H 0.91749 0.63607 0.31254 0.0
H2967 H 0.89047 0.65485 0.28594 0.0
H2968 H 0.91311 0.58462 0.32446 0.0
H2969 H 0.90998 0.6735 0.3729 0.0
H2970 H 0.88826 0.7117 0.39612 0.0
H2971 H 0.84272 0.65833 0.45141 0.0
H2972 H 0.86389 0.6197 0.42831 0.0
H2973 H 1.00538 0.55782 0.41082 0.0
H2974 H 0.98185 0.57545 0.37983 0.0
H2975 H 0.90695 0.56453 0.43249 0.0
H2976 H 0.93042 0.54753 0.46333 0.0
H2977 H 0.91608 0.61344 0.41985 0.0
H2978 H 0.91485 0.52357 0.36862 0.0
H2979 H 0.936 0.48485 0.34547 0.0
H2980 H 0.9893 0.53995 0.29591 0.0
H2981 H 0.96859 0.57896 0.31898 0.0
C2982 C 0.83986 0.63492 0.33413 0.0
C2983 C 0.85201 0.64582 0.31083 0.0
C2984 C 0.85544 0.62419 0.34936 0.0
C2985 C 0.88358 0.6243 0.34178 0.0
C2986 C 0.89582 0.63554 0.31875 0.0
C2987 C 0.88029 0.64626 0.30353 0.0
C2988 C 0.90007 0.61222 0.35756 0.0
C2989 C 0.91404 0.59119 0.34527 0.0
C2990 C 0.9011 0.62043 0.38477 0.0
C2991 C 0.88834 0.64364 0.39872 0.0
C2992 C 0.89517 0.66985 0.38989 0.0
C2993 C 0.88299 0.69159 0.40305 0.0
C2994 C 0.86407 0.68743 0.42519 0.0
C2995 C 0.85735 0.66152 0.43424 0.0
C2996 C 0.86945 0.6397 0.42114 0.0
C2997 C 0.98366 0.55833 0.41525 0.0
C2998 C 0.96967 0.55119 0.4394 0.0
C2999 C 0.9702 0.56853 0.3976 0.0
C3000 C 0.94247 0.57139 0.40372 0.0
C3001 C 0.92831 0.56278 0.42727 0.0
C3002 C 0.9417 0.55284 0.44484 0.0
C3003 C 0.92848 0.5852 0.38698 0.0
C3004 C 0.91515 0.6068 0.39906 0.0
C3005 C 0.92799 0.57746 0.35963 0.0
C3006 C 0.94046 0.55414 0.34574 0.0
C3007 C 0.93128 0.5274 0.35296 0.0
C3008 C 0.94312 0.50542 0.33982 0.0
C3009 C 0.96408 0.50997 0.31932 0.0
C3010 C 0.97313 0.53647 0.31184 0.0
C3011 C 0.96131 0.5585 0.32491 0.0
H3012 H 0.97323 0.49294 0.30916 0.0
H3013 H 0.85467 0.70429 0.43536 0.0
H3014 H 0.34742 0.79145 0.31476 0.0
H3015 H 0.37427 0.82368 0.34509 0.0
H3016 H 0.30254 0.85758 0.3779 0.0
H3017 H 0.27533 0.82592 0.34572 0.0
H3018 H 0.34499 0.89808 0.37582 0.0
H3019 H 0.33043 0.81239 0.41035 0.0
H3020 H 0.32821 0.76231 0.40918 0.0
H3021 H 0.41496 0.77275 0.3851 0.0
H3022 H 0.41765 0.82283 0.38571 0.0
H3023 H 0.42992 0.96212 0.4826 0.0
H3024 H 0.39239 0.93239 0.45971 0.0
H3025 H 0.45159 0.90685 0.39754 0.0
H3026 H 0.48896 0.93696 0.41976 0.0
H3027 H 0.40913 0.86253 0.42186 0.0
H3028 H 0.42076 0.94863 0.38393 0.0
H3029 H 0.42174 0.99866 0.38686 0.0
H3030 H 0.33778 0.98697 0.42131 0.0
H3031 H 0.33649 0.93688 0.41915 0.0
C3032 C 0.33696 0.80544 0.32846 0.0
C3033 C 0.30886 0.80556 0.32792 0.0
C3034 C 0.35253 0.82396 0.34606 0.0
C3035 C 0.34044 0.84263 0.36457 0.0
C3036 C 0.31239 0.84318 0.36407 0.0
C3037 C 0.29678 0.82493 0.34579 0.0
C3038 C 0.35768 0.86149 0.38386 0.0
C3039 C 0.35854 0.89017 0.38632 0.0
C3040 C 0.37556 0.85145 0.39772 0.0
C3041 C 0.3742 0.8214 0.398 0.0
C3042 C 0.34902 0.804 0.40474 0.0
C3043 C 0.34768 0.77561 0.40415 0.0
C3044 C 0.37142 0.76436 0.39705 0.0
C3045 C 0.39659 0.7815 0.39061 0.0
C3046 C 0.39804 0.8099 0.39112 0.0
C3047 C 0.43489 0.95019 0.46402 0.0
C3048 C 0.46243 0.95194 0.45298 0.0
C3049 C 0.41344 0.9333 0.45095 0.0
C3050 C 0.41921 0.91746 0.4269 0.0
C3051 C 0.44668 0.91893 0.41605 0.0
C3052 C 0.46801 0.93623 0.42875 0.0
C3053 C 0.39689 0.89885 0.41304 0.0
C3054 C 0.39513 0.87025 0.41171 0.0
C3055 C 0.37795 0.90897 0.40071 0.0
C3056 C 0.37866 0.93903 0.40174 0.0
C3057 C 0.40261 0.95674 0.39244 0.0
C3058 C 0.40321 0.98512 0.3939 0.0
C3059 C 0.37987 0.996 0.40434 0.0
C3060 C 0.35586 0.97852 0.41329 0.0
C3061 C 0.35519 0.95013 0.41196 0.0
H3062 H 0.38036 0.01795 0.40541 0.0
H3063 H 0.37033 0.74236 0.39655 0.0
H3064 H 0.17838 0.28973 0.30729 0.0
H3065 H 0.15034 0.32158 0.33262 0.0
H3066 H 0.22389 0.37817 0.35321 0.0
H3067 H 0.25206 0.34767 0.32596 0.0
H3068 H 0.16285 0.35149 0.39476 0.0
H3069 H 0.21234 0.41147 0.3294 0.0
H3070 H 0.22857 0.42263 0.28451 0.0
H3071 H 0.14531 0.40449 0.26508 0.0
H3072 H 0.12876 0.39157 0.30946 0.0
H3073 H 0.11332 0.46542 0.46758 0.0
H3074 H 0.14251 0.43779 0.43848 0.0
H3075 H 0.08418 0.42142 0.38123 0.0
H3076 H 0.05471 0.44971 0.41057 0.0
H3077 H 0.13642 0.42696 0.35661 0.0
H3078 H 0.08679 0.37362 0.42399 0.0
H3079 H 0.07045 0.36444 0.46951 0.0
H3080 H 0.15382 0.37276 0.48643 0.0
H3081 H 0.1707 0.38234 0.44109 0.0
C3082 C 0.18873 0.30926 0.3166 0.0
C3083 C 0.21775 0.3161 0.3139 0.0
C3084 C 0.17254 0.32744 0.33136 0.0
C3085 C 0.18479 0.35283 0.34445 0.0
C3086 C 0.21372 0.35917 0.34283 0.0
C3087 C 0.22992 0.34137 0.32746 0.0
C3088 C 0.16733 0.37216 0.36034 0.0
C3089 C 0.15738 0.36819 0.38647 0.0
C3090 C 0.15941 0.39369 0.34963 0.0
C3091 C 0.16942 0.39971 0.3225 0.0
C3092 C 0.19759 0.40888 0.31529 0.0
C3093 C 0.20684 0.41564 0.28996 0.0
C3094 C 0.18803 0.41394 0.27184 0.0
C3095 C 0.15992 0.40541 0.279 0.0
C3096 C 0.15061 0.39816 0.30418 0.0
C3097 C 0.10682 0.45647 0.44856 0.0
C3098 C 0.0815 0.46007 0.44156 0.0
C3099 C 0.12353 0.44028 0.43194 0.0
C3100 C 0.1155 0.4266 0.4077 0.0
C3101 C 0.09099 0.43142 0.39983 0.0
C3102 C 0.07417 0.44789 0.41656 0.0
C3103 C 0.13232 0.40676 0.39135 0.0
C3104 C 0.14189 0.41036 0.36503 0.0
C3105 C 0.14013 0.38502 0.402 0.0
C3106 C 0.13001 0.37888 0.42917 0.0
C3107 C 0.10165 0.37362 0.43745 0.0
C3108 C 0.09229 0.36832 0.46321 0.0
C3109 C 0.11108 0.36799 0.48083 0.0
C3110 C 0.13929 0.37295 0.47273 0.0
C3111 C 0.14876 0.3783 0.447 0.0
H3112 H 0.1038 0.36392 0.50077 0.0
H3113 H 0.19525 0.41957 0.25236 0.0
H3114 H 0.28986 0.17697 0.72549 0.0
H3115 H 0.32111 0.15176 0.69568 0.0
H3116 H 0.3744 0.22869 0.68048 0.0
H3117 H 0.34437 0.25391 0.71195 0.0
H3118 H 0.36338 0.18893 0.63292 0.0
H3119 H 0.39656 0.19568 0.71558 0.0
H3120 H 0.39629 0.19192 0.76252 0.0
H3121 H 0.36955 0.10404 0.74824 0.0
H3122 H 0.36893 0.10733 0.70126 0.0
H3123 H 0.47578 0.12121 0.56665 0.0
H3124 H 0.44801 0.15274 0.59371 0.0
H3125 H 0.39648 0.08367 0.62805 0.0
H3126 H 0.42351 0.05254 0.60152 0.0
H3127 H 0.40979 0.12368 0.66594 0.0
H3128 H 0.37535 0.11837 0.58227 0.0
H3129 H 0.3796 0.12321 0.53511 0.0
H3130 H 0.41202 0.20992 0.55131 0.0
H3131 H 0.40837 0.20551 0.59856 0.0
C3132 C 0.30847 0.18864 0.71634 0.0
C3133 C 0.31435 0.21772 0.72155 0.0
C3134 C 0.32628 0.1741 0.6989 0.0
C3135 C 0.35031 0.18812 0.6855 0.0
C3136 C 0.35601 0.21718 0.69024 0.0
C3137 C 0.33859 0.23167 0.70825 0.0
C3138 C 0.3697 0.17234 0.66731 0.0
C3139 C 0.37378 0.17492 0.64024 0.0
C3140 C 0.38336 0.1538 0.67647 0.0
C3141 C 0.38238 0.1518 0.7049 0.0
C3142 C 0.39015 0.1756 0.72249 0.0
C3143 C 0.39027 0.17354 0.7491 0.0
C3144 C 0.383 0.14776 0.75833 0.0
C3145 C 0.37526 0.124 0.74103 0.0
C3146 C 0.37494 0.12596 0.71442 0.0
C3147 C 0.45834 0.11268 0.5797 0.0
C3148 C 0.45231 0.08402 0.58165 0.0
C3149 C 0.44237 0.13082 0.5953 0.0
C3150 C 0.41989 0.12087 0.61332 0.0
C3151 C 0.41366 0.09228 0.61473 0.0
C3152 C 0.42934 0.07431 0.59923 0.0
C3153 C 0.40307 0.13964 0.63134 0.0
C3154 C 0.39943 0.13766 0.65851 0.0
C3155 C 0.39001 0.1588 0.62224 0.0
C3156 C 0.3919 0.16154 0.59391 0.0
C3157 C 0.38359 0.13843 0.57576 0.0
C3158 C 0.38586 0.1411 0.54902 0.0
C3159 C 0.39616 0.16683 0.54021 0.0
C3160 C 0.4041 0.18998 0.55815 0.0
C3161 C 0.40193 0.18741 0.58492 0.0
H3162 H 0.39793 0.16885 0.5195 0.0
H3163 H 0.38336 0.1462 0.77891 0.0
H3164 H 0.80905 0.35925 0.73447 0.0
H3165 H 0.83686 0.38552 0.70075 0.0
H3166 H 0.83253 0.31109 0.64639 0.0
H3167 H 0.80271 0.28494 0.67951 0.0
H3168 H 0.89069 0.36021 0.66612 0.0
H3169 H 0.80833 0.3327 0.61955 0.0
H3170 H 0.75944 0.32828 0.61361 0.0
H3171 H 0.76571 0.41596 0.63294 0.0
H3172 H 0.8144 0.4207 0.64015 0.0
H3173 H 0.96394 0.40772 0.55087 0.0
H3174 H 0.92938 0.38118 0.57974 0.0
H3175 H 0.897 0.45455 0.61065 0.0
H3176 H 0.93191 0.48164 0.58159 0.0
H3177 H 0.85573 0.40688 0.60275 0.0
H3178 H 0.93938 0.43402 0.64453 0.0
H3179 H 0.989 0.43845 0.6475 0.0
H3180 H 0.98094 0.35019 0.6343 0.0
H3181 H 0.9313 0.34523 0.63102 0.0
C3182 C 0.8131 0.34859 0.71509 0.0
C3183 C 0.80267 0.32018 0.70945 0.0
C3184 C 0.82925 0.36363 0.69588 0.0
C3185 C 0.836 0.35048 0.67078 0.0
C3186 C 0.82671 0.32187 0.66534 0.0
C3187 C 0.80992 0.3069 0.68439 0.0
C3188 C 0.85458 0.36645 0.65115 0.0
C3189 C 0.88304 0.36991 0.65191 0.0
C3190 C 0.84461 0.38005 0.63328 0.0
C3191 C 0.81485 0.37694 0.63103 0.0
C3192 C 0.7991 0.35092 0.62333 0.0
C3193 C 0.77147 0.34838 0.6195 0.0
C3194 C 0.7595 0.37183 0.6228 0.0
C3195 C 0.77504 0.39782 0.6303 0.0
C3196 C 0.80258 0.4004 0.63448 0.0
C3197 C 0.94937 0.41834 0.56358 0.0
C3198 C 0.95099 0.44699 0.56405 0.0
C3199 C 0.92961 0.40305 0.58017 0.0
C3200 C 0.91093 0.41593 0.59776 0.0
C3201 C 0.91135 0.44421 0.59734 0.0
C3202 C 0.93126 0.45965 0.58066 0.0
C3203 C 0.89188 0.39989 0.61718 0.0
C3204 C 0.86338 0.39682 0.61672 0.0
C3205 C 0.90182 0.3863 0.63515 0.0
C3206 C 0.93166 0.38928 0.63725 0.0
C3207 C 0.94822 0.41556 0.64204 0.0
C3208 C 0.97635 0.41817 0.64381 0.0
C3209 C 0.98814 0.39462 0.64096 0.0
C3210 C 0.97179 0.36841 0.63645 0.0
C3211 C 0.94365 0.36569 0.63467 0.0
H3212 H 1.00991 0.39666 0.64233 0.0
H3213 H 0.73815 0.36985 0.61968 0.0
H3214 H 0.23111 0.7413 0.68285 0.0
H3215 H 0.2011 0.7131 0.65144 0.0
H3216 H 0.16019 0.66309 0.71189 0.0
H3217 H 0.19158 0.69012 0.74265 0.0
H3218 H 0.16091 0.63099 0.67095 0.0
H3219 H 0.13351 0.71758 0.69096 0.0
H3220 H 0.13938 0.76837 0.69681 0.0
H3221 H 0.16504 0.76997 0.61449 0.0
H3222 H 0.15979 0.71917 0.60824 0.0
H3223 H 0.0392 0.62359 0.58521 0.0
H3224 H 0.07068 0.64955 0.61623 0.0
H3225 H 0.12725 0.59386 0.58966 0.0
H3226 H 0.09502 0.56695 0.55972 0.0
H3227 H 0.11663 0.67891 0.61565 0.0
H3228 H 0.16593 0.58785 0.63609 0.0
H3229 H 0.1523 0.53808 0.64057 0.0
H3230 H 0.06757 0.54618 0.65634 0.0
H3231 H 0.08068 0.59602 0.65234 0.0
C3232 C 0.21586 0.7241 0.68927 0.0
C3233 C 0.21359 0.71792 0.71516 0.0
C3234 C 0.1985 0.70807 0.67138 0.0
C3235 C 0.17769 0.68621 0.67927 0.0
C3236 C 0.17593 0.67972 0.70509 0.0
C3237 C 0.19386 0.69522 0.72274 0.0
C3238 C 0.15746 0.67055 0.66088 0.0
C3239 C 0.15131 0.64153 0.65883 0.0
C3240 C 0.14387 0.68407 0.64568 0.0
C3241 C 0.14649 0.71458 0.64917 0.0
C3242 C 0.14052 0.72877 0.67413 0.0
C3243 C 0.14375 0.75756 0.67752 0.0
C3244 C 0.15263 0.7724 0.65604 0.0
C3245 C 0.1582 0.75845 0.63111 0.0
C3246 C 0.15509 0.72965 0.62763 0.0
C3247 C 0.05841 0.61694 0.5859 0.0
C3248 C 0.06452 0.59312 0.56999 0.0
C3249 C 0.07649 0.63185 0.6037 0.0
C3250 C 0.10137 0.6236 0.60583 0.0
C3251 C 0.10794 0.60037 0.58916 0.0
C3252 C 0.08957 0.58508 0.57179 0.0
C3253 C 0.12032 0.63925 0.62541 0.0
C3254 C 0.12625 0.66831 0.62768 0.0
C3255 C 0.1324 0.6258 0.64199 0.0
C3256 C 0.1243 0.59565 0.64366 0.0
C3257 C 0.14439 0.57901 0.64051 0.0
C3258 C 0.13676 0.55079 0.643 0.0
C3259 C 0.1091 0.53902 0.6488 0.0
C3260 C 0.08898 0.55535 0.65185 0.0
C3261 C 0.0965 0.58357 0.64942 0.0
H3262 H 0.10326 0.51729 0.65111 0.0
H3263 H 0.15514 0.79469 0.6587 0.0
loop_
_geom_bond_atom_site_label_1
_geom_bond_atom_site_label_2
_geom_bond_distance
_geom_bond_site_symmetry_2
_ccdc_geom_bond_type
Tb0 N29 2.617 . S
Tb0 N35 2.572 . S
Tb0 O44 2.465 . S
Tb0 O45 2.387 . S
Tb0 O47 2.428 . S
Tb0 O48 2.308 . S
Tb0 O52 2.349 . S
Tb0 O55 2.393 . S
Tb0 C64 2.802 . S
C1 N2 1.379 . S
C1 C4 1.416 . S
C1 C8 1.424 . S
N2 C1 1.379 . S
N2 C5 1.334 . S
N2 Tb11 2.617 . S
C3 C5 1.390 . S
C3 C6 1.339 . S
C3 H23 0.930 . S
C4 C1 1.416 . S
C4 C6 1.416 . S
C4 C10 1.448 . S
C5 N2 1.334 . S
C5 C3 1.390 . S
C5 H16 0.930 . S
C6 C3 1.339 . S
C6 C4 1.416 . S
C6 H27 0.930 . S
C7 C8 1.413 . S
C7 C9 1.427 . S
C7 C13 1.416 . S
C8 C1 1.424 . S
C8 C7 1.413 . S
C8 N12 1.361 . S
C9 C7 1.427 . S
C9 C10 1.328 . S
C9 H24 0.929 . S
C10 C4 1.448 . S
C10 C9 1.328 . S
C10 H25 0.930 . S
Tb11 N2 2.617 . S
Tb11 N12 2.572 . S
Tb11 O46 2.349 . S
Tb11 O49 2.393 . S
Tb11 O50 2.465 . S
Tb11 O51 2.387 . S
Tb11 O53 2.428 . S
Tb11 O54 2.308 . S
Tb11 C75 2.802 . S
N12 C8 1.361 . S
N12 Tb11 2.572 . S
N12 C14 1.340 . S
C13 C7 1.416 . S
C13 C15 1.332 . S
C13 H21 0.931 . S
C14 N12 1.340 . S
C14 C15 1.407 . S
C14 H20 0.930 . S
C15 C13 1.332 . S
C15 C14 1.407 . S
C15 H17 0.929 . S
H16 C5 0.930 . S
H17 C15 0.929 . S
H18 C33 0.930 . S
H19 C40 0.929 . S
H20 C14 0.930 . S
H21 C13 0.931 . S
H22 C36 0.930 . S
H23 C3 0.930 . S
H24 C9 0.929 . S
H25 C10 0.930 . S
H26 C31 0.930 . S
H27 C6 0.930 . S
H28 C39 0.931 . S
N29 Tb0 2.617 . S
N29 C30 1.379 . S
N29 C33 1.334 . S
C30 N29 1.379 . S
C30 C32 1.416 . S
C30 C38 1.424 . S
C31 H26 0.930 . S
C31 C33 1.390 . S
C31 C34 1.339 . S
C32 C30 1.416 . S
C32 C34 1.416 . S
C32 C65 1.448 . S
C33 H18 0.930 . S
C33 N29 1.334 . S
C33 C31 1.390 . S
C34 C31 1.339 . S
C34 C32 1.416 . S
C34 H41 0.930 . S
N35 Tb0 2.572 . S
N35 C36 1.340 . S
N35 C38 1.361 . S
C36 H22 0.930 . S
C36 N35 1.340 . S
C36 C40 1.407 . S
C37 C38 1.413 . S
C37 C39 1.416 . S
C37 C66 1.427 . S
C38 C30 1.424 . S
C38 N35 1.361 . S
C38 C37 1.413 . S
C39 H28 0.931 . S
C39 C37 1.416 . S
C39 C40 1.332 . S
C40 H19 0.929 . S
C40 C36 1.407 . S
C40 C39 1.332 . S
H41 C34 0.930 . S
H42 C65 0.930 . S
H43 C66 0.929 . S
O44 Tb0 2.465 . S
O44 C64 1.264 . S
O45 Tb0 2.387 . S
O45 C56 1.264 . S
O46 Tb11 2.349 . S
O46 C56 1.243 . S
O47 Tb0 2.428 . S
O47 C64 1.256 . S
O48 Tb0 2.308 . S
O48 C63 1.266 . S
O49 Tb11 2.393 . S
O49 C63 1.248 . S
O50 Tb11 2.465 . S
O50 C75 1.264 . S
O51 Tb11 2.387 . S
O51 C67 1.264 . S
O52 Tb0 2.349 . S
O52 C67 1.243 . S
O53 Tb11 2.428 . S
O53 C75 1.256 . S
O54 Tb11 2.308 . S
O54 C74 1.266 . S
O55 Tb0 2.393 . S
O55 C74 1.248 . S
C56 O45 1.264 . S
C56 O46 1.243 . S
C57 C60 1.399 . S
C57 C62 1.383 . S
C57 C64 1.496 . S
C58 C59 1.399 . S
C58 C62 1.389 . S
C59 C58 1.399 . S
C59 C61 1.380 . S
C59 H76 0.929 . S
C60 C57 1.399 . S
C60 C61 1.392 . S
C60 H77 0.929 . S
C61 C59 1.380 . S
C61 C60 1.392 . S
C61 H78 0.929 . S
C62 C57 1.383 . S
C62 C58 1.389 . S
C62 H79 0.931 . S
C63 O48 1.266 . S
C63 O49 1.248 . S
C64 Tb0 2.802 . S
C64 O44 1.264 . S
C64 O47 1.256 . S
C64 C57 1.496 . S
C65 C32 1.448 . S
C65 H42 0.930 . S
C65 C66 1.328 . S
C66 C37 1.427 . S
C66 H43 0.929 . S
C66 C65 1.328 . S
C67 O51 1.264 . S
C67 O52 1.243 . S
C68 C71 1.399 . S
C68 C72 1.383 . S
C68 C75 1.496 . S
C69 C70 1.399 . S
C69 C72 1.389 . S
C70 C69 1.399 . S
C70 C73 1.380 . S
C70 H80 0.929 . S
C71 C68 1.399 . S
C71 C73 1.392 . S
C71 H81 0.929 . S
C72 C68 1.383 . S
C72 C69 1.389 . S
C72 H82 0.931 . S
C73 C70 1.380 . S
C73 C71 1.392 . S
C73 H83 0.929 . S
C74 O54 1.266 . S
C74 O55 1.248 . S
C75 Tb11 2.802 . S
C75 O50 1.264 . S
C75 O53 1.256 . S
C75 C68 1.496 . S
H76 C59 0.929 . S
H77 C60 0.929 . S
H78 C61 0.929 . S
H79 C62 0.931 . S
H80 C70 0.929 . S
H81 C71 0.929 . S
H82 C72 0.931 . S
H83 C73 0.929 . S
Tb84 N113 2.617 . S
Tb84 N119 2.572 . S
Tb84 O128 2.465 . S
Tb84 O129 2.387 . S
Tb84 O131 2.428 . S
Tb84 O132 2.308 . S
Tb84 O136 2.349 . S
Tb84 O139 2.393 . S
Tb84 C148 2.802 . S
C85 N86 1.379 . S
C85 C88 1.416 . S
C85 C92 1.424 . S
N86 C85 1.379 . S
N86 C89 1.334 . S
N86 Tb95 2.617 . S
C87 C89 1.390 . S
C87 C90 1.339 . S
C87 H107 0.930 . S
C88 C85 1.416 . S
C88 C90 1.416 . S
C88 C94 1.448 . S
C89 N86 1.334 . S
C89 C87 1.390 . S
C89 H100 0.930 . S
C90 C87 1.339 . S
C90 C88 1.416 . S
C90 H111 0.930 . S
C91 C92 1.413 . S
C91 C93 1.427 . S
C91 C97 1.416 . S
C92 C85 1.424 . S
C92 C91 1.413 . S
C92 N96 1.361 . S
C93 C91 1.427 . S
C93 C94 1.328 . S
C93 H108 0.929 . S
C94 C88 1.448 . S
C94 C93 1.328 . S
C94 H109 0.930 . S
Tb95 N86 2.617 . S
Tb95 N96 2.572 . S
Tb95 O130 2.349 . S
Tb95 O133 2.393 . S
Tb95 O134 2.465 . S
Tb95 O135 2.387 . S
Tb95 O137 2.428 . S
Tb95 O138 2.308 . S
Tb95 C159 2.802 . S
N96 C92 1.361 . S
N96 Tb95 2.572 . S
N96 C98 1.340 . S
C97 C91 1.416 . S
C97 C99 1.332 . S
C97 H105 0.931 . S
C98 N96 1.340 . S
C98 C99 1.407 . S
C98 H104 0.930 . S
C99 C97 1.332 . S
C99 C98 1.407 . S
C99 H101 0.929 . S
H100 C89 0.930 . S
H101 C99 0.929 . S
H102 C117 0.930 . S
H103 C124 0.929 . S
H104 C98 0.930 . S
H105 C97 0.931 . S
H106 C120 0.930 . S
H107 C87 0.930 . S
H108 C93 0.929 . S
H109 C94 0.930 . S
H110 C115 0.930 . S
H111 C90 0.930 . S
H112 C123 0.931 . S
N113 Tb84 2.617 . S
N113 C114 1.379 . S
N113 C117 1.334 . S
C114 N113 1.379 . S
C114 C116 1.416 . S
C114 C122 1.424 . S
C115 H110 0.930 . S
C115 C117 1.390 . S
C115 C118 1.339 . S
C116 C114 1.416 . S
C116 C118 1.416 . S
C116 C149 1.448 . S
C117 H102 0.930 . S
C117 N113 1.334 . S
C117 C115 1.390 . S
C118 C115 1.339 . S
C118 C116 1.416 . S
C118 H125 0.930 . S
N119 Tb84 2.572 . S
N119 C120 1.340 . S
N119 C122 1.361 . S
C120 H106 0.930 . S
C120 N119 1.340 . S
C120 C124 1.407 . S
C121 C122 1.413 . S
C121 C123 1.416 . S
C121 C150 1.427 . S
C122 C114 1.424 . S
C122 N119 1.361 . S
C122 C121 1.413 . S
C123 H112 0.931 . S
C123 C121 1.416 . S
C123 C124 1.332 . S
C124 H103 0.929 . S
C124 C120 1.407 . S
C124 C123 1.332 . S
H125 C118 0.930 . S
H126 C149 0.930 . S
H127 C150 0.929 . S
O128 Tb84 2.465 . S
O128 C148 1.264 . S
O129 Tb84 2.387 . S
O129 C140 1.264 . S
O130 Tb95 2.349 . S
O130 C140 1.243 . S
O131 Tb84 2.428 . S
O131 C148 1.256 . S
O132 Tb84 2.308 . S
O132 C147 1.266 . S
O133 Tb95 2.393 . S
O133 C147 1.248 . S
O134 Tb95 2.465 . S
O134 C159 1.264 . S
O135 Tb95 2.387 . S
O135 C151 1.264 . S
O136 Tb84 2.349 . S
O136 C151 1.243 . S
O137 Tb95 2.428 . S
O137 C159 1.256 . S
O138 Tb95 2.308 . S
O138 C158 1.266 . S
O139 Tb84 2.393 . S
O139 C158 1.248 . S
C140 O129 1.264 . S
C140 O130 1.243 . S
C141 C144 1.399 . S
C141 C146 1.383 . S
C141 C148 1.496 . S
C142 C143 1.399 . S
C142 C146 1.389 . S
C143 C142 1.399 . S
C143 C145 1.380 . S
C143 H160 0.929 . S
C144 C141 1.399 . S
C144 C145 1.392 . S
C144 H161 0.929 . S
C145 C143 1.380 . S
C145 C144 1.392 . S
C145 H162 0.929 . S
C146 C141 1.383 . S
C146 C142 1.389 . S
C146 H163 0.931 . S
C147 O132 1.266 . S
C147 O133 1.248 . S
C148 Tb84 2.802 . S
C148 O128 1.264 . S
C148 O131 1.256 . S
C148 C141 1.496 . S
C149 C116 1.448 . S
C149 H126 0.930 . S
C149 C150 1.328 . S
C150 C121 1.427 . S
C150 H127 0.929 . S
C150 C149 1.328 . S
C151 O135 1.264 . S
C151 O136 1.243 . S
C152 C155 1.399 . S
C152 C156 1.383 . S
C152 C159 1.496 . S
C153 C154 1.399 . S
C153 C156 1.389 . S
C154 C153 1.399 . S
C154 C157 1.380 . S
C154 H164 0.929 . S
C155 C152 1.399 . S
C155 C157 1.392 . S
C155 H165 0.929 . S
C156 C152 1.383 . S
C156 C153 1.389 . S
C156 H166 0.931 . S
C157 C154 1.380 . S
C157 C155 1.392 . S
C157 H167 0.929 . S
C158 O138 1.266 . S
C158 O139 1.248 . S
C159 Tb95 2.802 . S
C159 O134 1.264 . S
C159 O137 1.256 . S
C159 C152 1.496 . S
H160 C143 0.929 . S
H161 C144 0.929 . S
H162 C145 0.929 . S
H163 C146 0.931 . S
H164 C154 0.929 . S
H165 C155 0.929 . S
H166 C156 0.931 . S
H167 C157 0.929 . S
Tb168 N197 2.617 . S
Tb168 N203 2.572 . S
Tb168 O212 2.465 . S
Tb168 O213 2.387 . S
Tb168 O215 2.428 . S
Tb168 O216 2.308 . S
Tb168 O220 2.349 . S
Tb168 O223 2.393 . S
Tb168 C232 2.802 . S
C169 N170 1.379 . S
C169 C172 1.416 . S
C169 C176 1.424 . S
N170 C169 1.379 . S
N170 C173 1.334 . S
N170 Tb179 2.617 . S
C171 C173 1.390 . S
C171 C174 1.339 . S
C171 H191 0.930 . S
C172 C169 1.416 . S
C172 C174 1.416 . S
C172 C178 1.448 . S
C173 N170 1.334 . S
C173 C171 1.390 . S
C173 H184 0.930 . S
C174 C171 1.339 . S
C174 C172 1.416 . S
C174 H195 0.930 . S
C175 C176 1.413 . S
C175 C177 1.427 . S
C175 C181 1.416 . S
C176 C169 1.424 . S
C176 C175 1.413 . S
C176 N180 1.361 . S
C177 C175 1.427 . S
C177 C178 1.328 . S
C177 H192 0.929 . S
C178 C172 1.448 . S
C178 C177 1.328 . S
C178 H193 0.930 . S
Tb179 N170 2.617 . S
Tb179 N180 2.572 . S
Tb179 O214 2.349 . S
Tb179 O217 2.393 . S
Tb179 O218 2.465 . S
Tb179 O219 2.387 . S
Tb179 O221 2.428 . S
Tb179 O222 2.308 . S
Tb179 C243 2.802 . S
N180 C176 1.361 . S
N180 Tb179 2.572 . S
N180 C182 1.340 . S
C181 C175 1.416 . S
C181 C183 1.332 . S
C181 H189 0.931 . S
C182 N180 1.340 . S
C182 C183 1.407 . S
C182 H188 0.930 . S
C183 C181 1.332 . S
C183 C182 1.407 . S
C183 H185 0.929 . S
H184 C173 0.930 . S
H185 C183 0.929 . S
H186 C201 0.930 . S
H187 C208 0.929 . S
H188 C182 0.930 . S
H189 C181 0.931 . S
H190 C204 0.930 . S
H191 C171 0.930 . S
H192 C177 0.929 . S
H193 C178 0.930 . S
H194 C199 0.930 . S
H195 C174 0.930 . S
H196 C207 0.931 . S
N197 Tb168 2.617 . S
N197 C198 1.379 . S
N197 C201 1.334 . S
C198 N197 1.379 . S
C198 C200 1.416 . S
C198 C206 1.424 . S
C199 H194 0.930 . S
C199 C201 1.390 . S
C199 C202 1.339 . S
C200 C198 1.416 . S
C200 C202 1.416 . S
C200 C233 1.448 . S
C201 H186 0.930 . S
C201 N197 1.334 . S
C201 C199 1.390 . S
C202 C199 1.339 . S
C202 C200 1.416 . S
C202 H209 0.930 . S
N203 Tb168 2.572 . S
N203 C204 1.340 . S
N203 C206 1.361 . S
C204 H190 0.930 . S
C204 N203 1.340 . S
C204 C208 1.407 . S
C205 C206 1.413 . S
C205 C207 1.416 . S
C205 C234 1.427 . S
C206 C198 1.424 . S
C206 N203 1.361 . S
C206 C205 1.413 . S
C207 H196 0.931 . S
C207 C205 1.416 . S
C207 C208 1.332 . S
C208 H187 0.929 . S
C208 C204 1.407 . S
C208 C207 1.332 . S
H209 C202 0.930 . S
H210 C233 0.930 . S
H211 C234 0.929 . S
O212 Tb168 2.465 . S
O212 C232 1.264 . S
O213 Tb168 2.387 . S
O213 C224 1.264 . S
O214 Tb179 2.349 . S
O214 C224 1.243 . S
O215 Tb168 2.428 . S
O215 C232 1.256 . S
O216 Tb168 2.308 . S
O216 C231 1.266 . S
O217 Tb179 2.393 . S
O217 C231 1.248 . S
O218 Tb179 2.465 . S
O218 C243 1.264 . S
O219 Tb179 2.387 . S
O219 C235 1.264 . S
O220 Tb168 2.349 . S
O220 C235 1.243 . S
O221 Tb179 2.428 . S
O221 C243 1.256 . S
O222 Tb179 2.308 . S
O222 C242 1.266 . S
O223 Tb168 2.393 . S
O223 C242 1.248 . S
C224 O213 1.264 . S
C224 O214 1.243 . S
C225 C228 1.399 . S
C225 C230 1.383 . S
C225 C232 1.496 . S
C226 C227 1.399 . S
C226 C230 1.389 . S
C227 C226 1.399 . S
C227 C229 1.380 . S
C227 H244 0.929 . S
C228 C225 1.399 . S
C228 C229 1.392 . S
C228 H245 0.929 . S
C229 C227 1.380 . S
C229 C228 1.392 . S
C229 H246 0.929 . S
C230 C225 1.383 . S
C230 C226 1.389 . S
C230 H247 0.931 . S
C231 O216 1.266 . S
C231 O217 1.248 . S
C232 Tb168 2.802 . S
C232 O212 1.264 . S
C232 O215 1.256 . S
C232 C225 1.496 . S
C233 C200 1.448 . S
C233 H210 0.930 . S
C233 C234 1.328 . S
C234 C205 1.427 . S
C234 H211 0.929 . S
C234 C233 1.328 . S
C235 O219 1.264 . S
C235 O220 1.243 . S
C236 C239 1.399 . S
C236 C240 1.383 . S
C236 C243 1.496 . S
C237 C238 1.399 . S
C237 C240 1.389 . S
C238 C237 1.399 . S
C238 C241 1.380 . S
C238 H248 0.929 . S
C239 C236 1.399 . S
C239 C241 1.392 . S
C239 H249 0.929 . S
C240 C236 1.383 . S
C240 C237 1.389 . S
C240 H250 0.931 . S
C241 C238 1.380 . S
C241 C239 1.392 . S
C241 H251 0.929 . S
C242 O222 1.266 . S
C242 O223 1.248 . S
C243 Tb179 2.802 . S
C243 O218 1.264 . S
C243 O221 1.256 . S
C243 C236 1.496 . S
H244 C227 0.929 . S
H245 C228 0.929 . S
H246 C229 0.929 . S
H247 C230 0.931 . S
H248 C238 0.929 . S
H249 C239 0.929 . S
H250 C240 0.931 . S
H251 C241 0.929 . S
Tb252 N281 2.617 . S
Tb252 N287 2.572 . S
Tb252 O296 2.465 . S
Tb252 O297 2.387 . S
Tb252 O299 2.428 . S
Tb252 O300 2.308 . S
Tb252 O304 2.349 . S
Tb252 O307 2.393 . S
Tb252 C316 2.802 . S
C253 N254 1.379 . S
C253 C256 1.416 . S
C253 C260 1.424 . S
N254 C253 1.379 . S
N254 C257 1.334 . S
N254 Tb263 2.617 . S
C255 C257 1.390 . S
C255 C258 1.339 . S
C255 H275 0.930 . S
C256 C253 1.416 . S
C256 C258 1.416 . S
C256 C262 1.448 . S
C257 N254 1.334 . S
C257 C255 1.390 . S
C257 H268 0.930 . S
C258 C255 1.339 . S
C258 C256 1.416 . S
C258 H279 0.930 . S
C259 C260 1.413 . S
C259 C261 1.427 . S
C259 C265 1.416 . S
C260 C253 1.424 . S
C260 C259 1.413 . S
C260 N264 1.361 . S
C261 C259 1.427 . S
C261 C262 1.328 . S
C261 H276 0.929 . S
C262 C256 1.448 . S
C262 C261 1.328 . S
C262 H277 0.930 . S
Tb263 N254 2.617 . S
Tb263 N264 2.572 . S
Tb263 O298 2.349 . S
Tb263 O301 2.393 . S
Tb263 O302 2.465 . S
Tb263 O303 2.387 . S
Tb263 O305 2.428 . S
Tb263 O306 2.308 . S
Tb263 C327 2.802 . S
N264 C260 1.361 . S
N264 Tb263 2.572 . S
N264 C266 1.340 . S
C265 C259 1.416 . S
C265 C267 1.332 . S
C265 H273 0.931 . S
C266 N264 1.340 . S
C266 C267 1.407 . S
C266 H272 0.930 . S
C267 C265 1.332 . S
C267 C266 1.407 . S
C267 H269 0.929 . S
H268 C257 0.930 . S
H269 C267 0.929 . S
H270 C285 0.930 . S
H271 C292 0.929 . S
H272 C266 0.930 . S
H273 C265 0.931 . S
H274 C288 0.930 . S
H275 C255 0.930 . S
H276 C261 0.929 . S
H277 C262 0.930 . S
H278 C283 0.930 . S
H279 C258 0.930 . S
H280 C291 0.931 . S
N281 Tb252 2.617 . S
N281 C282 1.379 . S
N281 C285 1.334 . S
C282 N281 1.379 . S
C282 C284 1.416 . S
C282 C290 1.424 . S
C283 H278 0.930 . S
C283 C285 1.390 . S
C283 C286 1.339 . S
C284 C282 1.416 . S
C284 C286 1.416 . S
C284 C317 1.448 . S
C285 H270 0.930 . S
C285 N281 1.334 . S
C285 C283 1.390 . S
C286 C283 1.339 . S
C286 C284 1.416 . S
C286 H293 0.930 . S
N287 Tb252 2.572 . S
N287 C288 1.340 . S
N287 C290 1.361 . S
C288 H274 0.930 . S
C288 N287 1.340 . S
C288 C292 1.407 . S
C289 C290 1.413 . S
C289 C291 1.416 . S
C289 C318 1.427 . S
C290 C282 1.424 . S
C290 N287 1.361 . S
C290 C289 1.413 . S
C291 H280 0.931 . S
C291 C289 1.416 . S
C291 C292 1.332 . S
C292 H271 0.929 . S
C292 C288 1.407 . S
C292 C291 1.332 . S
H293 C286 0.930 . S
H294 C317 0.930 . S
H295 C318 0.929 . S
O296 Tb252 2.465 . S
O296 C316 1.264 . S
O297 Tb252 2.387 . S
O297 C308 1.264 . S
O298 Tb263 2.349 . S
O298 C308 1.243 . S
O299 Tb252 2.428 . S
O299 C316 1.256 . S
O300 Tb252 2.308 . S
O300 C315 1.266 . S
O301 Tb263 2.393 . S
O301 C315 1.248 . S
O302 Tb263 2.465 . S
O302 C327 1.264 . S
O303 Tb263 2.387 . S
O303 C319 1.264 . S
O304 Tb252 2.349 . S
O304 C319 1.243 . S
O305 Tb263 2.428 . S
O305 C327 1.256 . S
O306 Tb263 2.308 . S
O306 C326 1.266 . S
O307 Tb252 2.393 . S
O307 C326 1.248 . S
C308 O297 1.264 . S
C308 O298 1.243 . S
C309 C312 1.399 . S
C309 C314 1.383 . S
C309 C316 1.496 . S
C310 C311 1.399 . S
C310 C314 1.389 . S
C311 C310 1.399 . S
C311 C313 1.380 . S
C311 H328 0.929 . S
C312 C309 1.399 . S
C312 C313 1.392 . S
C312 H329 0.929 . S
C313 C311 1.380 . S
C313 C312 1.392 . S
C313 H330 0.929 . S
C314 C309 1.383 . S
C314 C310 1.389 . S
C314 H331 0.931 . S
C315 O300 1.266 . S
C315 O301 1.248 . S
C316 Tb252 2.802 . S
C316 O296 1.264 . S
C316 O299 1.256 . S
C316 C309 1.496 . S
C317 C284 1.448 . S
C317 H294 0.930 . S
C317 C318 1.328 . S
C318 C289 1.427 . S
C318 H295 0.929 . S
C318 C317 1.328 . S
C319 O303 1.264 . S
C319 O304 1.243 . S
C320 C323 1.399 . S
C320 C324 1.383 . S
C320 C327 1.496 . S
C321 C322 1.399 . S
C321 C324 1.389 . S
C322 C321 1.399 . S
C322 C325 1.380 . S
C322 H332 0.929 . S
C323 C320 1.399 . S
C323 C325 1.392 . S
C323 H333 0.929 . S
C324 C320 1.383 . S
C324 C321 1.389 . S
C324 H334 0.931 . S
C325 C322 1.380 . S
C325 C323 1.392 . S
C325 H335 0.929 . S
C326 O306 1.266 . S
C326 O307 1.248 . S
C327 Tb263 2.802 . S
C327 O302 1.264 . S
C327 O305 1.256 . S
C327 C320 1.496 . S
H328 C311 0.929 . S
H329 C312 0.929 . S
H330 C313 0.929 . S
H331 C314 0.931 . S
H332 C322 0.929 . S
H333 C323 0.929 . S
H334 C324 0.931 . S
H335 C325 0.929 . S
Tb336 N365 2.617 . S
Tb336 N371 2.572 . S
Tb336 O380 2.465 . S
Tb336 O381 2.387 . S
Tb336 O383 2.428 . S
Tb336 O384 2.308 . S
Tb336 O388 2.349 . S
Tb336 O391 2.393 . S
Tb336 C400 2.802 . S
C337 N338 1.379 . S
C337 C340 1.416 . S
C337 C344 1.424 . S
N338 C337 1.379 . S
N338 C341 1.334 . S
N338 Tb347 2.617 . S
C339 C341 1.390 . S
C339 C342 1.339 . S
C339 H359 0.930 . S
C340 C337 1.416 . S
C340 C342 1.416 . S
C340 C346 1.448 . S
C341 N338 1.334 . S
C341 C339 1.390 . S
C341 H352 0.930 . S
C342 C339 1.339 . S
C342 C340 1.416 . S
C342 H363 0.930 . S
C343 C344 1.413 . S
C343 C345 1.427 . S
C343 C349 1.416 . S
C344 C337 1.424 . S
C344 C343 1.413 . S
C344 N348 1.361 . S
C345 C343 1.427 . S
C345 C346 1.328 . S
C345 H360 0.929 . S
C346 C340 1.448 . S
C346 C345 1.328 . S
C346 H361 0.930 . S
Tb347 N338 2.617 . S
Tb347 N348 2.572 . S
Tb347 O382 2.349 . S
Tb347 O385 2.393 . S
Tb347 O386 2.465 . S
Tb347 O387 2.387 . S
Tb347 O389 2.428 . S
Tb347 O390 2.308 . S
Tb347 C411 2.802 . S
N348 C344 1.361 . S
N348 Tb347 2.572 . S
N348 C350 1.340 . S
C349 C343 1.416 . S
C349 C351 1.332 . S
C349 H357 0.931 . S
C350 N348 1.340 . S
C350 C351 1.407 . S
C350 H356 0.930 . S
C351 C349 1.332 . S
C351 C350 1.407 . S
C351 H353 0.929 . S
H352 C341 0.930 . S
H353 C351 0.929 . S
H354 C369 0.930 . S
H355 C376 0.929 . S
H356 C350 0.930 . S
H357 C349 0.931 . S
H358 C372 0.930 . S
H359 C339 0.930 . S
H360 C345 0.929 . S
H361 C346 0.930 . S
H362 C367 0.930 . S
H363 C342 0.930 . S
H364 C375 0.931 . S
N365 Tb336 2.617 . S
N365 C366 1.379 . S
N365 C369 1.334 . S
C366 N365 1.379 . S
C366 C368 1.416 . S
C366 C374 1.424 . S
C367 H362 0.930 . S
C367 C369 1.390 . S
C367 C370 1.339 . S
C368 C366 1.416 . S
C368 C370 1.416 . S
C368 C401 1.448 . S
C369 H354 0.930 . S
C369 N365 1.334 . S
C369 C367 1.390 . S
C370 C367 1.339 . S
C370 C368 1.416 . S
C370 H377 0.930 . S
N371 Tb336 2.572 . S
N371 C372 1.340 . S
N371 C374 1.361 . S
C372 H358 0.930 . S
C372 N371 1.340 . S
C372 C376 1.407 . S
C373 C374 1.413 . S
C373 C375 1.416 . S
C373 C402 1.427 . S
C374 C366 1.424 . S
C374 N371 1.361 . S
C374 C373 1.413 . S
C375 H364 0.931 . S
C375 C373 1.416 . S
C375 C376 1.332 . S
C376 H355 0.929 . S
C376 C372 1.407 . S
C376 C375 1.332 . S
H377 C370 0.930 . S
H378 C401 0.930 . S
H379 C402 0.929 . S
O380 Tb336 2.465 . S
O380 C400 1.264 . S
O381 Tb336 2.387 . S
O381 C392 1.264 . S
O382 Tb347 2.349 . S
O382 C392 1.243 . S
O383 Tb336 2.428 . S
O383 C400 1.256 . S
O384 Tb336 2.308 . S
O384 C399 1.266 . S
O385 Tb347 2.393 . S
O385 C399 1.248 . S
O386 Tb347 2.465 . S
O386 C411 1.264 . S
O387 Tb347 2.387 . S
O387 C403 1.264 . S
O388 Tb336 2.349 . S
O388 C403 1.243 . S
O389 Tb347 2.428 . S
O389 C411 1.256 . S
O390 Tb347 2.308 . S
O390 C410 1.266 . S
O391 Tb336 2.393 . S
O391 C410 1.248 . S
C392 O381 1.264 . S
C392 O382 1.243 . S
C393 C396 1.399 . S
C393 C398 1.383 . S
C393 C400 1.496 . S
C394 C395 1.399 . S
C394 C398 1.389 . S
C395 C394 1.399 . S
C395 C397 1.380 . S
C395 H412 0.929 . S
C396 C393 1.399 . S
C396 C397 1.392 . S
C396 H413 0.929 . S
C397 C395 1.380 . S
C397 C396 1.392 . S
C397 H414 0.929 . S
C398 C393 1.383 . S
C398 C394 1.389 . S
C398 H415 0.931 . S
C399 O384 1.266 . S
C399 O385 1.248 . S
C400 Tb336 2.802 . S
C400 O380 1.264 . S
C400 O383 1.256 . S
C400 C393 1.496 . S
C401 C368 1.448 . S
C401 H378 0.930 . S
C401 C402 1.328 . S
C402 C373 1.427 . S
C402 H379 0.929 . S
C402 C401 1.328 . S
C403 O387 1.264 . S
C403 O388 1.243 . S
C404 C407 1.399 . S
C404 C408 1.383 . S
C404 C411 1.496 . S
C405 C406 1.399 . S
C405 C408 1.389 . S
C406 C405 1.399 . S
C406 C409 1.380 . S
C406 H416 0.929 . S
C407 C404 1.399 . S
C407 C409 1.392 . S
C407 H417 0.929 . S
C408 C404 1.383 . S
C408 C405 1.389 . S
C408 H418 0.931 . S
C409 C406 1.380 . S
C409 C407 1.392 . S
C409 H419 0.929 . S
C410 O390 1.266 . S
C410 O391 1.248 . S
C411 Tb347 2.802 . S
C411 O386 1.264 . S
C411 O389 1.256 . S
C411 C404 1.496 . S
H412 C395 0.929 . S
H413 C396 0.929 . S
H414 C397 0.929 . S
H415 C398 0.931 . S
H416 C406 0.929 . S
H417 C407 0.929 . S
H418 C408 0.931 . S
H419 C409 0.929 . S
Tb420 N449 2.617 . S
Tb420 N455 2.572 . S
Tb420 O464 2.465 . S
Tb420 O465 2.387 . S
Tb420 O467 2.428 . S
Tb420 O468 2.308 . S
Tb420 O472 2.349 . S
Tb420 O475 2.393 . S
Tb420 C484 2.802 . S
C421 N422 1.379 . S
C421 C424 1.416 . S
C421 C428 1.424 . S
N422 C421 1.379 . S
N422 C425 1.334 . S
N422 Tb431 2.617 . S
C423 C425 1.390 . S
C423 C426 1.339 . S
C423 H443 0.930 . S
C424 C421 1.416 . S
C424 C426 1.416 . S
C424 C430 1.448 . S
C425 N422 1.334 . S
C425 C423 1.390 . S
C425 H436 0.930 . S
C426 C423 1.339 . S
C426 C424 1.416 . S
C426 H447 0.930 . S
C427 C428 1.413 . S
C427 C429 1.427 . S
C427 C433 1.416 . S
C428 C421 1.424 . S
C428 C427 1.413 . S
C428 N432 1.361 . S
C429 C427 1.427 . S
C429 C430 1.328 . S
C429 H444 0.929 . S
C430 C424 1.448 . S
C430 C429 1.328 . S
C430 H445 0.930 . S
Tb431 N422 2.617 . S
Tb431 N432 2.572 . S
Tb431 O466 2.349 . S
Tb431 O469 2.393 . S
Tb431 O470 2.465 . S
Tb431 O471 2.387 . S
Tb431 O473 2.428 . S
Tb431 O474 2.308 . S
Tb431 C495 2.802 . S
N432 C428 1.361 . S
N432 Tb431 2.572 . S
N432 C434 1.340 . S
C433 C427 1.416 . S
C433 C435 1.332 . S
C433 H441 0.931 . S
C434 N432 1.340 . S
C434 C435 1.407 . S
C434 H440 0.930 . S
C435 C433 1.332 . S
C435 C434 1.407 . S
C435 H437 0.929 . S
H436 C425 0.930 . S
H437 C435 0.929 . S
H438 C453 0.930 . S
H439 C460 0.929 . S
H440 C434 0.930 . S
H441 C433 0.931 . S
H442 C456 0.930 . S
H443 C423 0.930 . S
H444 C429 0.929 . S
H445 C430 0.930 . S
H446 C451 0.930 . S
H447 C426 0.930 . S
H448 C459 0.931 . S
N449 Tb420 2.617 . S
N449 C450 1.379 . S
N449 C453 1.334 . S
C450 N449 1.379 . S
C450 C452 1.416 . S
C450 C458 1.424 . S
C451 H446 0.930 . S
C451 C453 1.390 . S
C451 C454 1.339 . S
C452 C450 1.416 . S
C452 C454 1.416 . S
C452 C485 1.448 . S
C453 H438 0.930 . S
C453 N449 1.334 . S
C453 C451 1.390 . S
C454 C451 1.339 . S
C454 C452 1.416 . S
C454 H461 0.930 . S
N455 Tb420 2.572 . S
N455 C456 1.340 . S
N455 C458 1.361 . S
C456 H442 0.930 . S
C456 N455 1.340 . S
C456 C460 1.407 . S
C457 C458 1.413 . S
C457 C459 1.416 . S
C457 C486 1.427 . S
C458 C450 1.424 . S
C458 N455 1.361 . S
C458 C457 1.413 . S
C459 H448 0.931 . S
C459 C457 1.416 . S
C459 C460 1.332 . S
C460 H439 0.929 . S
C460 C456 1.407 . S
C460 C459 1.332 . S
H461 C454 0.930 . S
H462 C485 0.930 . S
H463 C486 0.929 . S
O464 Tb420 2.465 . S
O464 C484 1.264 . S
O465 Tb420 2.387 . S
O465 C476 1.264 . S
O466 Tb431 2.349 . S
O466 C476 1.243 . S
O467 Tb420 2.428 . S
O467 C484 1.256 . S
O468 Tb420 2.308 . S
O468 C483 1.266 . S
O469 Tb431 2.393 . S
O469 C483 1.248 . S
O470 Tb431 2.465 . S
O470 C495 1.264 . S
O471 Tb431 2.387 . S
O471 C487 1.264 . S
O472 Tb420 2.349 . S
O472 C487 1.243 . S
O473 Tb431 2.428 . S
O473 C495 1.256 . S
O474 Tb431 2.308 . S
O474 C494 1.266 . S
O475 Tb420 2.393 . S
O475 C494 1.248 . S
C476 O465 1.264 . S
C476 O466 1.243 . S
C477 C480 1.399 . S
C477 C482 1.383 . S
C477 C484 1.496 . S
C478 C479 1.399 . S
C478 C482 1.389 . S
C479 C478 1.399 . S
C479 C481 1.380 . S
C479 H496 0.929 . S
C480 C477 1.399 . S
C480 C481 1.392 . S
C480 H497 0.929 . S
C481 C479 1.380 . S
C481 C480 1.392 . S
C481 H498 0.929 . S
C482 C477 1.383 . S
C482 C478 1.389 . S
C482 H499 0.931 . S
C483 O468 1.266 . S
C483 O469 1.248 . S
C484 Tb420 2.802 . S
C484 O464 1.264 . S
C484 O467 1.256 . S
C484 C477 1.496 . S
C485 C452 1.448 . S
C485 H462 0.930 . S
C485 C486 1.328 . S
C486 C457 1.427 . S
C486 H463 0.929 . S
C486 C485 1.328 . S
C487 O471 1.264 . S
C487 O472 1.243 . S
C488 C491 1.399 . S
C488 C492 1.383 . S
C488 C495 1.496 . S
C489 C490 1.399 . S
C489 C492 1.389 . S
C490 C489 1.399 . S
C490 C493 1.380 . S
C490 H500 0.929 . S
C491 C488 1.399 . S
C491 C493 1.392 . S
C491 H501 0.929 . S
C492 C488 1.383 . S
C492 C489 1.389 . S
C492 H502 0.931 . S
C493 C490 1.380 . S
C493 C491 1.392 . S
C493 H503 0.929 . S
C494 O474 1.266 . S
C494 O475 1.248 . S
C495 Tb431 2.802 . S
C495 O470 1.264 . S
C495 O473 1.256 . S
C495 C488 1.496 . S
H496 C479 0.929 . S
H497 C480 0.929 . S
H498 C481 0.929 . S
H499 C482 0.931 . S
H500 C490 0.929 . S
H501 C491 0.929 . S
H502 C492 0.931 . S
H503 C493 0.929 . S
Tb504 N533 2.617 . S
Tb504 N539 2.572 . S
Tb504 O548 2.465 . S
Tb504 O549 2.387 . S
Tb504 O551 2.428 . S
Tb504 O552 2.308 . S
Tb504 O556 2.349 . S
Tb504 O559 2.393 . S
Tb504 C568 2.802 . S
C505 N506 1.379 . S
C505 C508 1.416 . S
C505 C512 1.424 . S
N506 C505 1.379 . S
N506 C509 1.334 . S
N506 Tb515 2.617 . S
C507 C509 1.390 . S
C507 C510 1.339 . S
C507 H527 0.930 . S
C508 C505 1.416 . S
C508 C510 1.416 . S
C508 C514 1.448 . S
C509 N506 1.334 . S
C509 C507 1.390 . S
C509 H520 0.930 . S
C510 C507 1.339 . S
C510 C508 1.416 . S
C510 H531 0.930 . S
C511 C512 1.413 . S
C511 C513 1.427 . S
C511 C517 1.416 . S
C512 C505 1.424 . S
C512 C511 1.413 . S
C512 N516 1.361 . S
C513 C511 1.427 . S
C513 C514 1.328 . S
C513 H528 0.929 . S
C514 C508 1.448 . S
C514 C513 1.328 . S
C514 H529 0.930 . S
Tb515 N506 2.617 . S
Tb515 N516 2.572 . S
Tb515 O550 2.349 . S
Tb515 O553 2.393 . S
Tb515 O554 2.465 . S
Tb515 O555 2.387 . S
Tb515 O557 2.428 . S
Tb515 O558 2.308 . S
Tb515 C579 2.802 . S
N516 C512 1.361 . S
N516 Tb515 2.572 . S
N516 C518 1.340 . S
C517 C511 1.416 . S
C517 C519 1.332 . S
C517 H525 0.931 . S
C518 N516 1.340 . S
C518 C519 1.407 . S
C518 H524 0.930 . S
C519 C517 1.332 . S
C519 C518 1.407 . S
C519 H521 0.929 . S
H520 C509 0.930 . S
H521 C519 0.929 . S
H522 C537 0.930 . S
H523 C544 0.929 . S
H524 C518 0.930 . S
H525 C517 0.931 . S
H526 C540 0.930 . S
H527 C507 0.930 . S
H528 C513 0.929 . S
H529 C514 0.930 . S
H530 C535 0.930 . S
H531 C510 0.930 . S
H532 C543 0.931 . S
N533 Tb504 2.617 . S
N533 C534 1.379 . S
N533 C537 1.334 . S
C534 N533 1.379 . S
C534 C536 1.416 . S
C534 C542 1.424 . S
C535 H530 0.930 . S
C535 C537 1.390 . S
C535 C538 1.339 . S
C536 C534 1.416 . S
C536 C538 1.416 . S
C536 C569 1.448 . S
C537 H522 0.930 . S
C537 N533 1.334 . S
C537 C535 1.390 . S
C538 C535 1.339 . S
C538 C536 1.416 . S
C538 H545 0.930 . S
N539 Tb504 2.572 . S
N539 C540 1.340 . S
N539 C542 1.361 . S
C540 H526 0.930 . S
C540 N539 1.340 . S
C540 C544 1.407 . S
C541 C542 1.413 . S
C541 C543 1.416 . S
C541 C570 1.427 . S
C542 C534 1.424 . S
C542 N539 1.361 . S
C542 C541 1.413 . S
C543 H532 0.931 . S
C543 C541 1.416 . S
C543 C544 1.332 . S
C544 H523 0.929 . S
C544 C540 1.407 . S
C544 C543 1.332 . S
H545 C538 0.930 . S
H546 C569 0.930 . S
H547 C570 0.929 . S
O548 Tb504 2.465 . S
O548 C568 1.264 . S
O549 Tb504 2.387 . S
O549 C560 1.264 . S
O550 Tb515 2.349 . S
O550 C560 1.243 . S
O551 Tb504 2.428 . S
O551 C568 1.256 . S
O552 Tb504 2.308 . S
O552 C567 1.266 . S
O553 Tb515 2.393 . S
O553 C567 1.248 . S
O554 Tb515 2.465 . S
O554 C579 1.264 . S
O555 Tb515 2.387 . S
O555 C571 1.264 . S
O556 Tb504 2.349 . S
O556 C571 1.243 . S
O557 Tb515 2.428 . S
O557 C579 1.256 . S
O558 Tb515 2.308 . S
O558 C578 1.266 . S
O559 Tb504 2.393 . S
O559 C578 1.248 . S
C560 O549 1.264 . S
C560 O550 1.243 . S
C561 C564 1.399 . S
C561 C566 1.383 . S
C561 C568 1.496 . S
C562 C563 1.399 . S
C562 C566 1.389 . S
C563 C562 1.399 . S
C563 C565 1.380 . S
C563 H580 0.929 . S
C564 C561 1.399 . S
C564 C565 1.392 . S
C564 H581 0.929 . S
C565 C563 1.380 . S
C565 C564 1.392 . S
C565 H582 0.929 . S
C566 C561 1.383 . S
C566 C562 1.389 . S
C566 H583 0.931 . S
C567 O552 1.266 . S
C567 O553 1.248 . S
C568 Tb504 2.802 . S
C568 O548 1.264 . S
C568 O551 1.256 . S
C568 C561 1.496 . S
C569 C536 1.448 . S
C569 H546 0.930 . S
C569 C570 1.328 . S
C570 C541 1.427 . S
C570 H547 0.929 . S
C570 C569 1.328 . S
C571 O555 1.264 . S
C571 O556 1.243 . S
C572 C575 1.399 . S
C572 C576 1.383 . S
C572 C579 1.496 . S
C573 C574 1.399 . S
C573 C576 1.389 . S
C574 C573 1.399 . S
C574 C577 1.380 . S
C574 H584 0.929 . S
C575 C572 1.399 . S
C575 C577 1.392 . S
C575 H585 0.929 . S
C576 C572 1.383 . S
C576 C573 1.389 . S
C576 H586 0.931 . S
C577 C574 1.380 . S
C577 C575 1.392 . S
C577 H587 0.929 . S
C578 O558 1.266 . S
C578 O559 1.248 . S
C579 Tb515 2.802 . S
C579 O554 1.264 . S
C579 O557 1.256 . S
C579 C572 1.496 . S
H580 C563 0.929 . S
H581 C564 0.929 . S
H582 C565 0.929 . S
H583 C566 0.931 . S
H584 C574 0.929 . S
H585 C575 0.929 . S
H586 C576 0.931 . S
H587 C577 0.929 . S
Tb588 N617 2.617 . S
Tb588 N623 2.572 . S
Tb588 O632 2.465 . S
Tb588 O633 2.387 . S
Tb588 O635 2.428 . S
Tb588 O636 2.308 . S
Tb588 O640 2.349 . S
Tb588 O643 2.393 . S
Tb588 C652 2.802 . S
C589 N590 1.379 . S
C589 C592 1.416 . S
C589 C596 1.424 . S
N590 C589 1.379 . S
N590 C593 1.334 . S
N590 Tb599 2.617 . S
C591 C593 1.390 . S
C591 C594 1.339 . S
C591 H611 0.930 . S
C592 C589 1.416 . S
C592 C594 1.416 . S
C592 C598 1.448 . S
C593 N590 1.334 . S
C593 C591 1.390 . S
C593 H604 0.930 . S
C594 C591 1.339 . S
C594 C592 1.416 . S
C594 H615 0.930 . S
C595 C596 1.413 . S
C595 C597 1.427 . S
C595 C601 1.416 . S
C596 C589 1.424 . S
C596 C595 1.413 . S
C596 N600 1.361 . S
C597 C595 1.427 . S
C597 C598 1.328 . S
C597 H612 0.929 . S
C598 C592 1.448 . S
C598 C597 1.328 . S
C598 H613 0.930 . S
Tb599 N590 2.617 . S
Tb599 N600 2.572 . S
Tb599 O634 2.349 . S
Tb599 O637 2.393 . S
Tb599 O638 2.465 . S
Tb599 O639 2.387 . S
Tb599 O641 2.428 . S
Tb599 O642 2.308 . S
Tb599 C663 2.802 . S
N600 C596 1.361 . S
N600 Tb599 2.572 . S
N600 C602 1.340 . S
C601 C595 1.416 . S
C601 C603 1.332 . S
C601 H609 0.931 . S
C602 N600 1.340 . S
C602 C603 1.407 . S
C602 H608 0.930 . S
C603 C601 1.332 . S
C603 C602 1.407 . S
C603 H605 0.929 . S
H604 C593 0.930 . S
H605 C603 0.929 . S
H606 C621 0.930 . S
H607 C628 0.929 . S
H608 C602 0.930 . S
H609 C601 0.931 . S
H610 C624 0.930 . S
H611 C591 0.930 . S
H612 C597 0.929 . S
H613 C598 0.930 . S
H614 C619 0.930 . S
H615 C594 0.930 . S
H616 C627 0.931 . S
N617 Tb588 2.617 . S
N617 C618 1.379 . S
N617 C621 1.334 . S
C618 N617 1.379 . S
C618 C620 1.416 . S
C618 C626 1.424 . S
C619 H614 0.930 . S
C619 C621 1.390 . S
C619 C622 1.339 . S
C620 C618 1.416 . S
C620 C622 1.416 . S
C620 C653 1.448 . S
C621 H606 0.930 . S
C621 N617 1.334 . S
C621 C619 1.390 . S
C622 C619 1.339 . S
C622 C620 1.416 . S
C622 H629 0.930 . S
N623 Tb588 2.572 . S
N623 C624 1.340 . S
N623 C626 1.361 . S
C624 H610 0.930 . S
C624 N623 1.340 . S
C624 C628 1.407 . S
C625 C626 1.413 . S
C625 C627 1.416 . S
C625 C654 1.427 . S
C626 C618 1.424 . S
C626 N623 1.361 . S
C626 C625 1.413 . S
C627 H616 0.931 . S
C627 C625 1.416 . S
C627 C628 1.332 . S
C628 H607 0.929 . S
C628 C624 1.407 . S
C628 C627 1.332 . S
H629 C622 0.930 . S
H630 C653 0.930 . S
H631 C654 0.929 . S
O632 Tb588 2.465 . S
O632 C652 1.264 . S
O633 Tb588 2.387 . S
O633 C644 1.264 . S
O634 Tb599 2.349 . S
O634 C644 1.243 . S
O635 Tb588 2.428 . S
O635 C652 1.256 . S
O636 Tb588 2.308 . S
O636 C651 1.266 . S
O637 Tb599 2.393 . S
O637 C651 1.248 . S
O638 Tb599 2.465 . S
O638 C663 1.264 . S
O639 Tb599 2.387 . S
O639 C655 1.264 . S
O640 Tb588 2.349 . S
O640 C655 1.243 . S
O641 Tb599 2.428 . S
O641 C663 1.256 . S
O642 Tb599 2.308 . S
O642 C662 1.266 . S
O643 Tb588 2.393 . S
O643 C662 1.248 . S
C644 O633 1.264 . S
C644 O634 1.243 . S
C645 C648 1.399 . S
C645 C650 1.383 . S
C645 C652 1.496 . S
C646 C647 1.399 . S
C646 C650 1.389 . S
C647 C646 1.399 . S
C647 C649 1.380 . S
C647 H664 0.929 . S
C648 C645 1.399 . S
C648 C649 1.392 . S
C648 H665 0.929 . S
C649 C647 1.380 . S
C649 C648 1.392 . S
C649 H666 0.929 . S
C650 C645 1.383 . S
C650 C646 1.389 . S
C650 H667 0.931 . S
C651 O636 1.266 . S
C651 O637 1.248 . S
C652 Tb588 2.802 . S
C652 O632 1.264 . S
C652 O635 1.256 . S
C652 C645 1.496 . S
C653 C620 1.448 . S
C653 H630 0.930 . S
C653 C654 1.328 . S
C654 C625 1.427 . S
C654 H631 0.929 . S
C654 C653 1.328 . S
C655 O639 1.264 . S
C655 O640 1.243 . S
C656 C659 1.399 . S
C656 C660 1.383 . S
C656 C663 1.496 . S
C657 C658 1.399 . S
C657 C660 1.389 . S
C658 C657 1.399 . S
C658 C661 1.380 . S
C658 H668 0.929 . S
C659 C656 1.399 . S
C659 C661 1.392 . S
C659 H669 0.929 . S
C660 C656 1.383 . S
C660 C657 1.389 . S
C660 H670 0.931 . S
C661 C658 1.380 . S
C661 C659 1.392 . S
C661 H671 0.929 . S
C662 O642 1.266 . S
C662 O643 1.248 . S
C663 Tb599 2.802 . S
C663 O638 1.264 . S
C663 O641 1.256 . S
C663 C656 1.496 . S
H664 C647 0.929 . S
H665 C648 0.929 . S
H666 C649 0.929 . S
H667 C650 0.931 . S
H668 C658 0.929 . S
H669 C659 0.929 . S
H670 C660 0.931 . S
H671 C661 0.929 . S
Fe672 O673 1.886 1_455 S
Fe672 O676 1.715 . S
Fe672 O681 2.077 1_455 S
Fe672 O686 1.935 . S
Fe672 O692 2.077 1_455 S
Fe672 O701 1.935 . S
O673 Fe672 1.886 1_655 S
O673 Fe675 1.715 1_545 S
Fe674 O676 1.886 . S
Fe674 O677 1.715 1_545 S
Fe674 O684 1.935 1_545 S
Fe674 O685 2.077 . S
Fe674 O691 1.935 1_545 S
Fe674 O700 2.077 . S
Fe675 O673 1.715 1_565 S
Fe675 O678 1.886 . S
Fe675 O682 1.935 1_565 S
Fe675 O687 2.077 . S
Fe675 O693 1.935 1_565 S
Fe675 O697 2.077 . S
O676 Fe672 1.715 . S
O676 Fe674 1.886 . S
O677 Fe674 1.715 1_565 S
O677 Fe679 1.886 1_455 S
O678 Fe675 1.886 . S
O678 Fe679 1.715 . S
Fe679 O677 1.886 1_655 S
Fe679 O678 1.715 . S
Fe679 O683 2.077 1_655 S
Fe679 O688 1.935 . S
Fe679 O690 2.077 1_655 S
Fe679 O698 1.935 . S
C680 O692 1.381 . S
C680 O693 1.421 . S
O681 Fe672 2.077 1_655 S
O681 C694 1.381 . S
O682 Fe675 1.935 1_545 S
O682 C694 1.421 . S
O683 Fe679 2.077 1_455 S
O683 C699 1.381 . S
O684 Fe674 1.935 1_565 S
O684 C699 1.421 . S
O685 Fe674 2.077 . S
O685 C689 1.381 . S
O686 Fe672 1.935 . S
O686 C689 1.421 . S
O687 Fe675 2.077 . S
O687 C695 1.381 . S
O688 Fe679 1.935 . S
O688 C695 1.421 . S
C689 O685 1.381 . S
C689 O686 1.421 . S
O690 Fe679 2.077 1_455 S
O690 C702 1.381 . S
O691 Fe674 1.935 1_565 S
O691 C702 1.421 . S
O692 Fe672 2.077 1_655 S
O692 C680 1.381 . S
O693 Fe675 1.935 1_545 S
O693 C680 1.421 . S
C694 O681 1.381 . S
C694 O682 1.421 . S
C695 O687 1.381 . S
C695 O688 1.421 . S
C696 O697 1.381 . S
C696 O698 1.421 . S
O697 Fe675 2.077 . S
O697 C696 1.381 . S
O698 Fe679 1.935 . S
O698 C696 1.421 . S
C699 O683 1.381 . S
C699 O684 1.421 . S
O700 Fe674 2.077 . S
O700 C703 1.381 . S
O701 Fe672 1.935 . S
O701 C703 1.421 . S
C702 O690 1.381 . S
C702 O691 1.421 . S
C703 O700 1.381 . S
C703 O701 1.421 . S
Fe704 O705 1.886 . S
Fe704 O708 1.715 . S
Fe704 O713 2.077 . S
Fe704 O718 1.935 . S
Fe704 O724 2.077 1_556 S
Fe704 O733 1.935 1_556 S
O705 Fe704 1.886 . S
O705 Fe707 1.715 1_565 S
Fe706 O708 1.886 1_554 S
Fe706 O709 1.715 1_565 S
Fe706 O716 1.935 1_564 S
Fe706 O717 2.077 1_554 S
Fe706 O723 1.935 1_565 S
Fe706 O732 2.077 . S
Fe707 O705 1.715 1_545 S
Fe707 O710 1.886 1_556 S
Fe707 O714 1.935 1_545 S
Fe707 O719 2.077 . S
Fe707 O725 1.935 1_546 S
Fe707 O729 2.077 1_556 S
O708 Fe704 1.715 . S
O708 Fe706 1.886 1_556 S
O709 Fe706 1.715 1_545 S
O709 Fe711 1.886 . S
O710 Fe707 1.886 1_554 S
O710 Fe711 1.714 . S
Fe711 O709 1.886 . S
Fe711 O710 1.714 . S
Fe711 O715 2.077 1_554 S
Fe711 O720 1.935 1_554 S
Fe711 O722 2.077 . S
Fe711 O730 1.935 . S
C712 O724 1.381 . S
C712 O725 1.421 . S
O713 Fe704 2.077 . S
O713 C726 1.381 . S
O714 Fe707 1.935 1_565 S
O714 C726 1.421 . S
O715 Fe711 2.077 1_556 S
O715 C731 1.381 . S
O716 Fe706 1.935 1_546 S
O716 C731 1.421 . S
O717 Fe706 2.077 1_556 S
O717 C721 1.381 . S
O718 Fe704 1.935 . S
O718 C721 1.421 . S
O719 Fe707 2.077 . S
O719 C727 1.381 . S
O720 Fe711 1.935 1_556 S
O720 C727 1.421 . S
C721 O717 1.381 . S
C721 O718 1.421 . S
O722 Fe711 2.077 . S
O722 C734 1.381 . S
O723 Fe706 1.935 1_545 S
O723 C734 1.421 . S
O724 Fe704 2.077 1_554 S
O724 C712 1.381 . S
O725 Fe707 1.935 1_564 S
O725 C712 1.421 . S
C726 O713 1.381 . S
C726 O714 1.421 . S
C727 O719 1.381 . S
C727 O720 1.421 . S
C728 O729 1.381 . S
C728 O730 1.421 . S
O729 Fe707 2.077 1_554 S
O729 C728 1.381 . S
O730 Fe711 1.935 . S
O730 C728 1.421 . S
C731 O715 1.381 . S
C731 O716 1.421 . S
O732 Fe706 2.077 . S
O732 C735 1.381 . S
O733 Fe704 1.935 1_554 S
O733 C735 1.421 . S
C734 O722 1.381 . S
C734 O723 1.421 . S
C735 O732 1.381 . S
C735 O733 1.421 . S
Fe736 O737 1.886 1_455 S
Fe736 O740 1.714 . S
Fe736 O745 2.077 1_454 S
Fe736 O750 1.935 1_554 S
Fe736 O756 2.077 1_455 S
Fe736 O765 1.935 . S
O737 Fe736 1.886 1_655 S
O737 Fe739 1.715 . S
Fe738 O740 1.886 1_556 S
Fe738 O741 1.715 . S
Fe738 O748 1.935 . S
Fe738 O749 2.077 . S
Fe738 O755 1.935 1_556 S
Fe738 O764 2.077 1_556 S
Fe739 O737 1.715 . S
Fe739 O742 1.886 1_554 S
Fe739 O746 1.935 1_554 S
Fe739 O751 2.077 1_554 S
Fe739 O757 1.935 . S
Fe739 O761 2.077 . S
O740 Fe736 1.714 . S
O740 Fe738 1.886 1_554 S
O741 Fe738 1.715 . S
O741 Fe743 1.886 1_455 S
O742 Fe739 1.886 1_556 S
O742 Fe743 1.715 . S
Fe743 O741 1.886 1_655 S
Fe743 O742 1.715 . S
Fe743 O747 2.077 1_655 S
Fe743 O752 1.935 . S
Fe743 O754 2.077 1_656 S
Fe743 O762 1.935 1_556 S
C744 O756 1.381 . S
C744 O757 1.421 . S
O745 Fe736 2.077 1_656 S
O745 C758 1.381 . S
O746 Fe739 1.935 1_556 S
O746 C758 1.421 . S
O747 Fe743 2.077 1_455 S
O747 C763 1.381 . S
O748 Fe738 1.935 . S
O748 C763 1.421 . S
O749 Fe738 2.077 . S
O749 C753 1.381 . S
O750 Fe736 1.935 1_556 S
O750 C753 1.421 . S
O751 Fe739 2.077 1_556 S
O751 C759 1.381 . S
O752 Fe743 1.935 . S
O752 C759 1.421 . S
C753 O749 1.381 . S
C753 O750 1.421 . S
O754 Fe743 2.077 1_454 S
O754 C766 1.381 . S
O755 Fe738 1.935 1_554 S
O755 C766 1.421 . S
O756 Fe736 2.077 1_655 S
O756 C744 1.381 . S
O757 Fe739 1.935 . S
O757 C744 1.421 . S
C758 O745 1.381 . S
C758 O746 1.421 . S
C759 O751 1.381 . S
C759 O752 1.421 . S
C760 O761 1.381 . S
C760 O762 1.421 . S
O761 Fe739 2.077 . S
O761 C760 1.381 . S
O762 Fe743 1.935 1_554 S
O762 C760 1.421 . S
C763 O747 1.381 . S
C763 O748 1.421 . S
O764 Fe738 2.077 1_554 S
O764 C767 1.381 . S
O765 Fe736 1.935 . S
O765 C767 1.421 . S
C766 O754 1.381 . S
C766 O755 1.421 . S
C767 O764 1.381 . S
C767 O765 1.421 . S
Fe768 O769 1.886 . S
Fe768 O772 1.715 . S
Fe768 O777 2.077 . S
Fe768 O782 1.935 . S
Fe768 O788 2.077 . S
Fe768 O797 1.935 . S
O769 Fe768 1.886 . S
O769 Fe771 1.715 . S
Fe770 O772 1.886 1_554 S
Fe770 O773 1.715 . S
Fe770 O780 1.935 . S
Fe770 O781 2.077 1_554 S
Fe770 O787 1.935 . S
Fe770 O796 2.077 1_554 S
Fe771 O769 1.715 . S
Fe771 O774 1.886 1_556 S
Fe771 O778 1.935 . S
Fe771 O783 2.077 1_556 S
Fe771 O789 1.935 . S
Fe771 O793 2.077 1_556 S
O772 Fe768 1.715 . S
O772 Fe770 1.886 1_556 S
O773 Fe770 1.715 . S
O773 Fe775 1.886 . S
O774 Fe771 1.886 1_554 S
O774 Fe775 1.715 . S
Fe775 O773 1.886 . S
Fe775 O774 1.715 . S
Fe775 O779 2.077 . S
Fe775 O784 1.935 . S
Fe775 O786 2.077 . S
Fe775 O794 1.935 . S
C776 O788 1.381 . S
C776 O789 1.421 . S
O777 Fe768 2.077 . S
O777 C790 1.381 . S
O778 Fe771 1.935 . S
O778 C790 1.421 . S
O779 Fe775 2.077 . S
O779 C795 1.381 . S
O780 Fe770 1.935 . S
O780 C795 1.421 . S
O781 Fe770 2.077 1_556 S
O781 C785 1.381 . S
O782 Fe768 1.935 . S
O782 C785 1.421 . S
O783 Fe771 2.077 1_554 S
O783 C791 1.381 . S
O784 Fe775 1.935 . S
O784 C791 1.421 . S
C785 O781 1.381 . S
C785 O782 1.421 . S
O786 Fe775 2.077 . S
O786 C798 1.381 . S
O787 Fe770 1.935 . S
O787 C798 1.421 . S
O788 Fe768 2.077 . S
O788 C776 1.381 . S
O789 Fe771 1.935 . S
O789 C776 1.421 . S
C790 O777 1.381 . S
C790 O778 1.421 . S
C791 O783 1.381 . S
C791 O784 1.421 . S
C792 O793 1.381 . S
C792 O794 1.421 . S
O793 Fe771 2.077 1_554 S
O793 C792 1.381 . S
O794 Fe775 1.935 . S
O794 C792 1.421 . S
C795 O779 1.381 . S
C795 O780 1.421 . S
O796 Fe770 2.077 1_556 S
O796 C799 1.381 . S
O797 Fe768 1.935 . S
O797 C799 1.421 . S
C798 O786 1.381 . S
C798 O787 1.421 . S
C799 O796 1.381 . S
C799 O797 1.421 . S
Fe800 O801 1.886 . S
Fe800 O804 1.715 . S
Fe800 O809 2.077 1_655 S
Fe800 O814 1.935 1_655 S
Fe800 O820 2.077 . S
Fe800 O829 1.935 . S
O801 Fe800 1.886 . S
O801 Fe803 1.715 . S
Fe802 O804 1.886 1_455 S
Fe802 O805 1.715 . S
Fe802 O812 1.935 . S
Fe802 O813 2.077 . S
Fe802 O819 1.935 1_455 S
Fe802 O828 2.077 1_455 S
Fe803 O801 1.715 . S
Fe803 O806 1.886 1_655 S
Fe803 O810 1.935 1_655 S
Fe803 O815 2.077 1_655 S
Fe803 O821 1.935 . S
Fe803 O825 2.077 . S
O804 Fe800 1.715 . S
O804 Fe802 1.886 1_655 S
O805 Fe802 1.715 . S
O805 Fe807 1.886 . S
O806 Fe803 1.886 1_455 S
O806 Fe807 1.715 . S
Fe807 O805 1.886 . S
Fe807 O806 1.715 . S
Fe807 O811 2.077 . S
Fe807 O816 1.935 . S
Fe807 O818 2.077 1_455 S
Fe807 O826 1.935 1_455 S
C808 O820 1.381 . S
C808 O821 1.421 . S
O809 Fe800 2.077 1_455 S
O809 C822 1.381 . S
O810 Fe803 1.935 1_455 S
O810 C822 1.421 . S
O811 Fe807 2.077 . S
O811 C827 1.381 . S
O812 Fe802 1.935 . S
O812 C827 1.421 . S
O813 Fe802 2.077 . S
O813 C817 1.381 . S
O814 Fe800 1.935 1_455 S
O814 C817 1.421 . S
O815 Fe803 2.077 1_455 S
O815 C823 1.381 . S
O816 Fe807 1.935 . S
O816 C823 1.421 . S
C817 O813 1.381 . S
C817 O814 1.421 . S
O818 Fe807 2.077 1_655 S
O818 C830 1.381 . S
O819 Fe802 1.935 1_655 S
O819 C830 1.421 . S
O820 Fe800 2.077 . S
O820 C808 1.381 . S
O821 Fe803 1.935 . S
O821 C808 1.421 . S
C822 O809 1.381 . S
C822 O810 1.421 . S
C823 O815 1.381 . S
C823 O816 1.421 . S
C824 O825 1.381 . S
C824 O826 1.421 . S
O825 Fe803 2.077 . S
O825 C824 1.381 . S
O826 Fe807 1.935 1_655 S
O826 C824 1.421 . S
C827 O811 1.381 . S
C827 O812 1.421 . S
O828 Fe802 2.077 1_655 S
O828 C831 1.381 . S
O829 Fe800 1.935 . S
O829 C831 1.421 . S
C830 O818 1.381 . S
C830 O819 1.421 . S
C831 O828 1.381 . S
C831 O829 1.421 . S
Fe832 O833 1.886 . S
Fe832 O836 1.715 . S
Fe832 O841 2.077 . S
Fe832 O846 1.935 . S
Fe832 O852 2.077 . S
Fe832 O861 1.935 . S
O833 Fe832 1.886 . S
O833 Fe835 1.715 1_565 S
Fe834 O836 1.886 . S
Fe834 O837 1.715 1_565 S
Fe834 O844 1.935 1_565 S
Fe834 O845 2.077 . S
Fe834 O851 1.935 1_565 S
Fe834 O860 2.077 . S
Fe835 O833 1.715 1_545 S
Fe835 O838 1.886 . S
Fe835 O842 1.935 1_545 S
Fe835 O847 2.077 . S
Fe835 O853 1.935 1_545 S
Fe835 O857 2.077 . S
O836 Fe832 1.715 . S
O836 Fe834 1.886 . S
O837 Fe834 1.715 1_545 S
O837 Fe839 1.886 . S
O838 Fe835 1.886 . S
O838 Fe839 1.715 . S
Fe839 O837 1.886 . S
Fe839 O838 1.715 . S
Fe839 O843 2.077 . S
Fe839 O848 1.935 . S
Fe839 O850 2.077 . S
Fe839 O858 1.935 . S
C840 O852 1.381 . S
C840 O853 1.421 . S
O841 Fe832 2.077 . S
O841 C854 1.381 . S
O842 Fe835 1.935 1_565 S
O842 C854 1.421 . S
O843 Fe839 2.077 . S
O843 C859 1.381 . S
O844 Fe834 1.935 1_545 S
O844 C859 1.421 . S
O845 Fe834 2.077 . S
O845 C849 1.381 . S
O846 Fe832 1.935 . S
O846 C849 1.421 . S
O847 Fe835 2.077 . S
O847 C855 1.381 . S
O848 Fe839 1.935 . S
O848 C855 1.421 . S
C849 O845 1.381 . S
C849 O846 1.421 . S
O850 Fe839 2.077 . S
O850 C862 1.381 . S
O851 Fe834 1.935 1_545 S
O851 C862 1.421 . S
O852 Fe832 2.077 . S
O852 C840 1.381 . S
O853 Fe835 1.935 1_565 S
O853 C840 1.421 . S
C854 O841 1.381 . S
C854 O842 1.421 . S
C855 O847 1.381 . S
C855 O848 1.421 . S
C856 O857 1.381 . S
C856 O858 1.421 . S
O857 Fe835 2.077 . S
O857 C856 1.381 . S
O858 Fe839 1.935 . S
O858 C856 1.421 . S
C859 O843 1.381 . S
C859 O844 1.421 . S
O860 Fe834 2.077 . S
O860 C863 1.381 . S
O861 Fe832 1.935 . S
O861 C863 1.421 . S
C862 O850 1.381 . S
C862 O851 1.421 . S
C863 O860 1.381 . S
C863 O861 1.421 . S
H864 C882 0.951 . S
H865 C884 0.951 . S
H866 C886 0.950 . S
H867 C887 0.950 . S
H868 C889 0.950 . S
H869 C892 0.950 . S
H870 C893 0.950 . S
H871 C895 0.950 . S
H872 C896 0.950 . S
H873 C897 0.951 . S
H874 C899 0.951 . S
H875 C901 0.950 . S
H876 C902 0.950 . S
H877 C904 0.950 . S
H878 C907 0.950 . S
H879 C908 0.950 . S
H880 C910 0.950 . S
H881 C911 0.950 . S
C882 H864 0.951 . S
C882 C883 1.366 . S
C882 C884 1.388 . S
C883 C882 1.366 . S
C883 C887 1.385 . S
C884 H865 0.951 . S
C884 C882 1.388 . S
C884 C885 1.366 . S
C885 C884 1.366 . S
C885 C886 1.414 . S
C885 C888 1.499 . S
C886 H866 0.950 . S
C886 C885 1.414 . S
C886 C887 1.374 . S
C887 H867 0.950 . S
C887 C883 1.385 . S
C887 C886 1.374 . S
C888 C885 1.499 . S
C888 C889 1.373 . S
C888 C890 1.389 . S
C889 H868 0.950 . S
C889 C888 1.373 . S
C889 C905 1.377 . S
C890 C888 1.389 . S
C890 C891 1.524 . S
C890 C904 1.377 . S
C891 C890 1.524 . S
C891 C892 1.397 . S
C891 C896 1.363 . S
C892 H869 0.950 . S
C892 C891 1.397 . S
C892 C893 1.334 . S
C893 H870 0.950 . S
C893 C892 1.334 . S
C893 C894 1.287 . S
C894 C893 1.287 . S
C894 C895 1.524 . S
C894 H913 0.913 . S
C895 H871 0.950 . S
C895 C894 1.524 . S
C895 C896 1.415 . S
C896 H872 0.950 . S
C896 C891 1.363 . S
C896 C895 1.415 . S
C897 H873 0.951 . S
C897 C898 1.366 . S
C897 C899 1.388 . S
C898 C897 1.366 . S
C898 C902 1.385 . S
C899 H874 0.951 . S
C899 C897 1.388 . S
C899 C900 1.366 . S
C900 C899 1.366 . S
C900 C901 1.414 . S
C900 C903 1.499 . S
C901 H875 0.950 . S
C901 C900 1.414 . S
C901 C902 1.374 . S
C902 H876 0.950 . S
C902 C898 1.385 . S
C902 C901 1.374 . S
C903 C900 1.499 . S
C903 C904 1.373 . S
C903 C905 1.389 . S
C904 H877 0.950 . S
C904 C890 1.377 . S
C904 C903 1.373 . S
C905 C889 1.377 . S
C905 C903 1.389 . S
C905 C906 1.524 . S
C906 C905 1.524 . S
C906 C907 1.397 . S
C906 C911 1.363 . S
C907 H878 0.950 . S
C907 C906 1.397 . S
C907 C908 1.334 . S
C908 H879 0.950 . S
C908 C907 1.334 . S
C908 C909 1.287 . S
C909 C908 1.287 . S
C909 C910 1.524 . S
C909 H912 0.999 . S
C910 H880 0.950 . S
C910 C909 1.524 . S
C910 C911 1.415 . S
C911 H881 0.950 . S
C911 C906 1.363 . S
C911 C910 1.415 . S
H912 C909 0.999 . S
H913 C894 0.913 . S
H914 C932 0.951 . S
H915 C934 0.951 . S
H916 C936 0.950 . S
H917 C937 0.950 . S
H918 C939 0.950 . S
H919 C942 0.950 . S
H920 C943 0.950 . S
H921 C945 0.950 . S
H922 C946 0.950 . S
H923 C947 0.951 . S
H924 C949 0.951 . S
H925 C951 0.950 . S
H926 C952 0.950 . S
H927 C954 0.950 . S
H928 C957 0.950 . S
H929 C958 0.950 . S
H930 C960 0.950 . S
H931 C961 0.950 . S
C932 H914 0.951 . S
C932 C933 1.366 . S
C932 C934 1.388 . S
C933 C932 1.366 . S
C933 C937 1.385 . S
C934 H915 0.951 . S
C934 C932 1.388 . S
C934 C935 1.366 . S
C935 C934 1.366 . S
C935 C936 1.414 . S
C935 C938 1.499 . S
C936 H916 0.950 . S
C936 C935 1.414 . S
C936 C937 1.374 . S
C937 H917 0.950 . S
C937 C933 1.385 . S
C937 C936 1.374 . S
C938 C935 1.499 . S
C938 C939 1.373 . S
C938 C940 1.389 . S
C939 H918 0.950 . S
C939 C938 1.373 . S
C939 C955 1.377 . S
C940 C938 1.389 . S
C940 C941 1.524 . S
C940 C954 1.377 . S
C941 C940 1.524 . S
C941 C942 1.397 . S
C941 C946 1.363 . S
C942 H919 0.950 . S
C942 C941 1.397 . S
C942 C943 1.334 . S
C943 H920 0.950 . S
C943 C942 1.334 . S
C943 C944 1.287 . S
C944 C943 1.287 . S
C944 C945 1.524 . S
C944 H963 0.913 . S
C945 H921 0.950 . S
C945 C944 1.524 . S
C945 C946 1.415 . S
C946 H922 0.950 . S
C946 C941 1.363 . S
C946 C945 1.415 . S
C947 H923 0.951 . S
C947 C948 1.366 . S
C947 C949 1.388 . S
C948 C947 1.366 . S
C948 C952 1.385 . S
C949 H924 0.951 . S
C949 C947 1.388 . S
C949 C950 1.366 . S
C950 C949 1.366 . S
C950 C951 1.414 . S
C950 C953 1.499 . S
C951 H925 0.950 . S
C951 C950 1.414 . S
C951 C952 1.374 . S
C952 H926 0.950 . S
C952 C948 1.385 . S
C952 C951 1.374 . S
C953 C950 1.499 . S
C953 C954 1.373 . S
C953 C955 1.389 . S
C954 H927 0.950 . S
C954 C940 1.377 . S
C954 C953 1.373 . S
C955 C939 1.377 . S
C955 C953 1.389 . S
C955 C956 1.524 . S
C956 C955 1.524 . S
C956 C957 1.397 . S
C956 C961 1.363 . S
C957 H928 0.950 . S
C957 C956 1.397 . S
C957 C958 1.334 . S
C958 H929 0.950 . S
C958 C957 1.334 . S
C958 C959 1.287 . S
C959 C958 1.287 . S
C959 C960 1.524 . S
C959 H962 0.999 . S
C960 H930 0.950 . S
C960 C959 1.524 . S
C960 C961 1.415 . S
C961 H931 0.950 . S
C961 C956 1.363 . S
C961 C960 1.415 . S
H962 C959 0.999 . S
H963 C944 0.913 . S
H964 C982 0.951 . S
H965 C984 0.951 . S
H966 C986 0.950 . S
H967 C987 0.950 . S
H968 C989 0.950 . S
H969 C992 0.950 . S
H970 C993 0.950 . S
H971 C995 0.950 . S
H972 C996 0.950 . S
H973 C997 0.951 . S
H974 C999 0.951 . S
H975 C1001 0.950 . S
H976 C1002 0.950 . S
H977 C1004 0.950 . S
H978 C1007 0.950 . S
H979 C1008 0.950 . S
H980 C1010 0.950 . S
H981 C1011 0.950 . S
C982 H964 0.951 . S
C982 C983 1.366 . S
C982 C984 1.388 . S
C983 C982 1.366 . S
C983 C987 1.385 . S
C984 H965 0.951 . S
C984 C982 1.388 . S
C984 C985 1.366 . S
C985 C984 1.366 . S
C985 C986 1.414 . S
C985 C988 1.499 . S
C986 H966 0.950 . S
C986 C985 1.414 . S
C986 C987 1.374 . S
C987 H967 0.950 . S
C987 C983 1.385 . S
C987 C986 1.374 . S
C988 C985 1.499 . S
C988 C989 1.373 . S
C988 C990 1.389 . S
C989 H968 0.950 . S
C989 C988 1.373 . S
C989 C1005 1.377 . S
C990 C988 1.389 . S
C990 C991 1.524 . S
C990 C1004 1.377 . S
C991 C990 1.524 . S
C991 C992 1.397 . S
C991 C996 1.363 . S
C992 H969 0.950 . S
C992 C991 1.397 . S
C992 C993 1.334 . S
C993 H970 0.950 . S
C993 C992 1.334 . S
C993 C994 1.287 . S
C994 C993 1.287 . S
C994 C995 1.524 . S
C994 H1013 0.913 . S
C995 H971 0.950 . S
C995 C994 1.524 . S
C995 C996 1.415 . S
C996 H972 0.950 . S
C996 C991 1.363 . S
C996 C995 1.415 . S
C997 H973 0.951 . S
C997 C998 1.366 . S
C997 C999 1.388 . S
C998 C997 1.366 . S
C998 C1002 1.385 . S
C999 H974 0.951 . S
C999 C997 1.388 . S
C999 C1000 1.366 . S
C1000 C999 1.366 . S
C1000 C1001 1.414 . S
C1000 C1003 1.499 . S
C1001 H975 0.950 . S
C1001 C1000 1.414 . S
C1001 C1002 1.374 . S
C1002 H976 0.950 . S
C1002 C998 1.385 . S
C1002 C1001 1.374 . S
C1003 C1000 1.499 . S
C1003 C1004 1.373 . S
C1003 C1005 1.389 . S
C1004 H977 0.950 . S
C1004 C990 1.377 . S
C1004 C1003 1.373 . S
C1005 C989 1.377 . S
C1005 C1003 1.389 . S
C1005 C1006 1.524 . S
C1006 C1005 1.524 . S
C1006 C1007 1.397 . S
C1006 C1011 1.363 . S
C1007 H978 0.950 . S
C1007 C1006 1.397 . S
C1007 C1008 1.334 . S
C1008 H979 0.950 . S
C1008 C1007 1.334 . S
C1008 C1009 1.287 . S
C1009 C1008 1.287 . S
C1009 C1010 1.524 . S
C1009 H1012 0.999 . S
C1010 H980 0.950 . S
C1010 C1009 1.524 . S
C1010 C1011 1.415 . S
C1011 H981 0.950 . S
C1011 C1006 1.363 . S
C1011 C1010 1.415 . S
H1012 C1009 0.999 . S
H1013 C994 0.913 . S
H1014 C1032 0.951 . S
H1015 C1034 0.951 . S
H1016 C1036 0.950 . S
H1017 C1037 0.950 . S
H1018 C1039 0.950 . S
H1019 C1042 0.950 . S
H1020 C1043 0.950 . S
H1021 C1045 0.950 . S
H1022 C1046 0.950 . S
H1023 C1047 0.951 . S
H1024 C1049 0.951 . S
H1025 C1051 0.950 . S
H1026 C1052 0.950 . S
H1027 C1054 0.950 . S
H1028 C1057 0.950 . S
H1029 C1058 0.950 . S
H1030 C1060 0.950 . S
H1031 C1061 0.950 . S
C1032 H1014 0.951 . S
C1032 C1033 1.366 . S
C1032 C1034 1.388 . S
C1033 C1032 1.366 . S
C1033 C1037 1.385 . S
C1034 H1015 0.951 . S
C1034 C1032 1.388 . S
C1034 C1035 1.366 . S
C1035 C1034 1.366 . S
C1035 C1036 1.414 . S
C1035 C1038 1.499 . S
C1036 H1016 0.950 . S
C1036 C1035 1.414 . S
C1036 C1037 1.374 . S
C1037 H1017 0.950 . S
C1037 C1033 1.385 . S
C1037 C1036 1.374 . S
C1038 C1035 1.499 . S
C1038 C1039 1.373 . S
C1038 C1040 1.389 . S
C1039 H1018 0.950 . S
C1039 C1038 1.373 . S
C1039 C1055 1.377 . S
C1040 C1038 1.389 . S
C1040 C1041 1.524 . S
C1040 C1054 1.377 . S
C1041 C1040 1.524 . S
C1041 C1042 1.397 . S
C1041 C1046 1.363 . S
C1042 H1019 0.950 . S
C1042 C1041 1.397 . S
C1042 C1043 1.334 . S
C1043 H1020 0.950 . S
C1043 C1042 1.334 . S
C1043 C1044 1.287 . S
C1044 C1043 1.287 . S
C1044 C1045 1.524 . S
C1044 H1063 0.913 . S
C1045 H1021 0.950 . S
C1045 C1044 1.524 . S
C1045 C1046 1.415 . S
C1046 H1022 0.950 . S
C1046 C1041 1.363 . S
C1046 C1045 1.415 . S
C1047 H1023 0.951 . S
C1047 C1048 1.366 . S
C1047 C1049 1.388 . S
C1048 C1047 1.366 . S
C1048 C1052 1.385 . S
C1049 H1024 0.951 . S
C1049 C1047 1.388 . S
C1049 C1050 1.366 . S
C1050 C1049 1.366 . S
C1050 C1051 1.414 . S
C1050 C1053 1.499 . S
C1051 H1025 0.950 . S
C1051 C1050 1.414 . S
C1051 C1052 1.374 . S
C1052 H1026 0.950 . S
C1052 C1048 1.385 . S
C1052 C1051 1.374 . S
C1053 C1050 1.499 . S
C1053 C1054 1.373 . S
C1053 C1055 1.389 . S
C1054 H1027 0.950 . S
C1054 C1040 1.377 . S
C1054 C1053 1.373 . S
C1055 C1039 1.377 . S
C1055 C1053 1.389 . S
C1055 C1056 1.524 . S
C1056 C1055 1.524 . S
C1056 C1057 1.397 . S
C1056 C1061 1.363 . S
C1057 H1028 0.950 . S
C1057 C1056 1.397 . S
C1057 C1058 1.334 . S
C1058 H1029 0.950 . S
C1058 C1057 1.334 . S
C1058 C1059 1.287 . S
C1059 C1058 1.287 . S
C1059 C1060 1.524 . S
C1059 H1062 0.999 . S
C1060 H1030 0.950 . S
C1060 C1059 1.524 . S
C1060 C1061 1.415 . S
C1061 H1031 0.950 . S
C1061 C1056 1.363 . S
C1061 C1060 1.415 . S
H1062 C1059 0.999 . S
H1063 C1044 0.913 . S
H1064 C1082 0.951 . S
H1065 C1084 0.951 . S
H1066 C1086 0.950 . S
H1067 C1087 0.950 . S
H1068 C1089 0.950 . S
H1069 C1092 0.950 . S
H1070 C1093 0.950 . S
H1071 C1095 0.950 . S
H1072 C1096 0.950 . S
H1073 C1097 0.951 . S
H1074 C1099 0.951 . S
H1075 C1101 0.950 . S
H1076 C1102 0.950 . S
H1077 C1104 0.950 . S
H1078 C1107 0.950 . S
H1079 C1108 0.950 . S
H1080 C1110 0.950 . S
H1081 C1111 0.950 . S
C1082 H1064 0.951 . S
C1082 C1083 1.366 . S
C1082 C1084 1.388 . S
C1083 C1082 1.366 . S
C1083 C1087 1.385 . S
C1084 H1065 0.951 . S
C1084 C1082 1.388 . S
C1084 C1085 1.366 . S
C1085 C1084 1.366 . S
C1085 C1086 1.414 . S
C1085 C1088 1.499 . S
C1086 H1066 0.950 . S
C1086 C1085 1.414 . S
C1086 C1087 1.374 . S
C1087 H1067 0.950 . S
C1087 C1083 1.385 . S
C1087 C1086 1.374 . S
C1088 C1085 1.499 . S
C1088 C1089 1.373 . S
C1088 C1090 1.389 . S
C1089 H1068 0.950 . S
C1089 C1088 1.373 . S
C1089 C1105 1.377 . S
C1090 C1088 1.389 . S
C1090 C1091 1.524 . S
C1090 C1104 1.377 . S
C1091 C1090 1.524 . S
C1091 C1092 1.397 . S
C1091 C1096 1.363 . S
C1092 H1069 0.950 . S
C1092 C1091 1.397 . S
C1092 C1093 1.334 . S
C1093 H1070 0.950 . S
C1093 C1092 1.334 . S
C1093 C1094 1.287 . S
C1094 C1093 1.287 . S
C1094 C1095 1.524 . S
C1094 H1113 0.913 . S
C1095 H1071 0.950 . S
C1095 C1094 1.524 . S
C1095 C1096 1.415 . S
C1096 H1072 0.950 . S
C1096 C1091 1.363 . S
C1096 C1095 1.415 . S
C1097 H1073 0.951 . S
C1097 C1098 1.366 . S
C1097 C1099 1.388 . S
C1098 C1097 1.366 . S
C1098 C1102 1.385 . S
C1099 H1074 0.951 . S
C1099 C1097 1.388 . S
C1099 C1100 1.366 . S
C1100 C1099 1.366 . S
C1100 C1101 1.414 . S
C1100 C1103 1.499 . S
C1101 H1075 0.950 . S
C1101 C1100 1.414 . S
C1101 C1102 1.374 . S
C1102 H1076 0.950 . S
C1102 C1098 1.385 . S
C1102 C1101 1.374 . S
C1103 C1100 1.499 . S
C1103 C1104 1.373 . S
C1103 C1105 1.389 . S
C1104 H1077 0.950 . S
C1104 C1090 1.377 . S
C1104 C1103 1.373 . S
C1105 C1089 1.377 . S
C1105 C1103 1.389 . S
C1105 C1106 1.524 . S
C1106 C1105 1.524 . S
C1106 C1107 1.397 . S
C1106 C1111 1.363 . S
C1107 H1078 0.950 . S
C1107 C1106 1.397 . S
C1107 C1108 1.334 . S
C1108 H1079 0.950 . S
C1108 C1107 1.334 . S
C1108 C1109 1.287 . S
C1109 C1108 1.287 . S
C1109 C1110 1.524 . S
C1109 H1112 0.999 . S
C1110 H1080 0.950 . S
C1110 C1109 1.524 . S
C1110 C1111 1.415 . S
C1111 H1081 0.950 . S
C1111 C1106 1.363 . S
C1111 C1110 1.415 . S
H1112 C1109 0.999 . S
H1113 C1094 0.913 . S
H1114 C1132 0.951 . S
H1115 C1134 0.951 . S
H1116 C1136 0.950 . S
H1117 C1137 0.950 . S
H1118 C1139 0.950 . S
H1119 C1142 0.950 . S
H1120 C1143 0.950 . S
H1121 C1145 0.950 . S
H1122 C1146 0.950 . S
H1123 C1147 0.951 . S
H1124 C1149 0.951 . S
H1125 C1151 0.950 . S
H1126 C1152 0.950 . S
H1127 C1154 0.950 . S
H1128 C1157 0.950 . S
H1129 C1158 0.950 . S
H1130 C1160 0.950 . S
H1131 C1161 0.950 . S
C1132 H1114 0.951 . S
C1132 C1133 1.366 . S
C1132 C1134 1.388 . S
C1133 C1132 1.366 . S
C1133 C1137 1.385 . S
C1134 H1115 0.951 . S
C1134 C1132 1.388 . S
C1134 C1135 1.366 . S
C1135 C1134 1.366 . S
C1135 C1136 1.414 . S
C1135 C1138 1.499 . S
C1136 H1116 0.950 . S
C1136 C1135 1.414 . S
C1136 C1137 1.374 . S
C1137 H1117 0.950 . S
C1137 C1133 1.385 . S
C1137 C1136 1.374 . S
C1138 C1135 1.499 . S
C1138 C1139 1.373 . S
C1138 C1140 1.389 . S
C1139 H1118 0.950 . S
C1139 C1138 1.373 . S
C1139 C1155 1.377 . S
C1140 C1138 1.389 . S
C1140 C1141 1.524 . S
C1140 C1154 1.377 . S
C1141 C1140 1.524 . S
C1141 C1142 1.397 . S
C1141 C1146 1.363 . S
C1142 H1119 0.950 . S
C1142 C1141 1.397 . S
C1142 C1143 1.334 . S
C1143 H1120 0.950 . S
C1143 C1142 1.334 . S
C1143 C1144 1.287 . S
C1144 C1143 1.287 . S
C1144 C1145 1.524 . S
C1144 H1163 0.913 . S
C1145 H1121 0.950 . S
C1145 C1144 1.524 . S
C1145 C1146 1.415 . S
C1146 H1122 0.950 . S
C1146 C1141 1.363 . S
C1146 C1145 1.415 . S
C1147 H1123 0.951 . S
C1147 C1148 1.366 . S
C1147 C1149 1.388 . S
C1148 C1147 1.366 . S
C1148 C1152 1.385 . S
C1149 H1124 0.951 . S
C1149 C1147 1.388 . S
C1149 C1150 1.366 . S
C1150 C1149 1.366 . S
C1150 C1151 1.414 . S
C1150 C1153 1.499 . S
C1151 H1125 0.950 . S
C1151 C1150 1.414 . S
C1151 C1152 1.374 . S
C1152 H1126 0.950 . S
C1152 C1148 1.385 . S
C1152 C1151 1.374 . S
C1153 C1150 1.499 . S
C1153 C1154 1.373 . S
C1153 C1155 1.389 . S
C1154 H1127 0.950 . S
C1154 C1140 1.377 . S
C1154 C1153 1.373 . S
C1155 C1139 1.377 . S
C1155 C1153 1.389 . S
C1155 C1156 1.524 . S
C1156 C1155 1.524 . S
C1156 C1157 1.397 . S
C1156 C1161 1.363 . S
C1157 H1128 0.950 . S
C1157 C1156 1.397 . S
C1157 C1158 1.334 . S
C1158 H1129 0.950 . S
C1158 C1157 1.334 . S
C1158 C1159 1.287 . S
C1159 C1158 1.287 . S
C1159 C1160 1.524 . S
C1159 H1162 0.999 . S
C1160 H1130 0.950 . S
C1160 C1159 1.524 . S
C1160 C1161 1.415 . S
C1161 H1131 0.950 . S
C1161 C1156 1.363 . S
C1161 C1160 1.415 . S
H1162 C1159 0.999 . S
H1163 C1144 0.913 . S
H1164 C1182 0.951 . S
H1165 C1184 0.951 . S
H1166 C1186 0.950 . S
H1167 C1187 0.950 . S
H1168 C1189 0.950 . S
H1169 C1192 0.950 . S
H1170 C1193 0.950 . S
H1171 C1195 0.950 . S
H1172 C1196 0.950 . S
H1173 C1197 0.951 . S
H1174 C1199 0.951 . S
H1175 C1201 0.950 . S
H1176 C1202 0.950 . S
H1177 C1204 0.950 . S
H1178 C1207 0.950 . S
H1179 C1208 0.950 . S
H1180 C1210 0.950 . S
H1181 C1211 0.950 . S
C1182 H1164 0.951 . S
C1182 C1183 1.366 . S
C1182 C1184 1.388 . S
C1183 C1182 1.366 . S
C1183 C1187 1.385 . S
C1184 H1165 0.951 . S
C1184 C1182 1.388 . S
C1184 C1185 1.366 . S
C1185 C1184 1.366 . S
C1185 C1186 1.414 . S
C1185 C1188 1.499 . S
C1186 H1166 0.950 . S
C1186 C1185 1.414 . S
C1186 C1187 1.374 . S
C1187 H1167 0.950 . S
C1187 C1183 1.385 . S
C1187 C1186 1.374 . S
C1188 C1185 1.499 . S
C1188 C1189 1.373 . S
C1188 C1190 1.389 . S
C1189 H1168 0.950 . S
C1189 C1188 1.373 . S
C1189 C1205 1.377 . S
C1190 C1188 1.389 . S
C1190 C1191 1.524 . S
C1190 C1204 1.377 . S
C1191 C1190 1.524 . S
C1191 C1192 1.397 . S
C1191 C1196 1.363 . S
C1192 H1169 0.950 . S
C1192 C1191 1.397 . S
C1192 C1193 1.334 . S
C1193 H1170 0.950 . S
C1193 C1192 1.334 . S
C1193 C1194 1.287 . S
C1194 C1193 1.287 . S
C1194 C1195 1.524 . S
C1194 H1213 0.913 . S
C1195 H1171 0.950 . S
C1195 C1194 1.524 . S
C1195 C1196 1.415 . S
C1196 H1172 0.950 . S
C1196 C1191 1.363 . S
C1196 C1195 1.415 . S
C1197 H1173 0.951 . S
C1197 C1198 1.366 . S
C1197 C1199 1.388 . S
C1198 C1197 1.366 . S
C1198 C1202 1.385 . S
C1199 H1174 0.951 . S
C1199 C1197 1.388 . S
C1199 C1200 1.366 . S
C1200 C1199 1.366 . S
C1200 C1201 1.414 . S
C1200 C1203 1.499 . S
C1201 H1175 0.950 . S
C1201 C1200 1.414 . S
C1201 C1202 1.374 . S
C1202 H1176 0.950 . S
C1202 C1198 1.385 . S
C1202 C1201 1.374 . S
C1203 C1200 1.499 . S
C1203 C1204 1.373 . S
C1203 C1205 1.389 . S
C1204 H1177 0.950 . S
C1204 C1190 1.377 . S
C1204 C1203 1.373 . S
C1205 C1189 1.377 . S
C1205 C1203 1.389 . S
C1205 C1206 1.524 . S
C1206 C1205 1.524 . S
C1206 C1207 1.397 . S
C1206 C1211 1.363 . S
C1207 H1178 0.950 . S
C1207 C1206 1.397 . S
C1207 C1208 1.334 . S
C1208 H1179 0.950 . S
C1208 C1207 1.334 . S
C1208 C1209 1.287 . S
C1209 C1208 1.287 . S
C1209 C1210 1.524 . S
C1209 H1212 0.999 . S
C1210 H1180 0.950 . S
C1210 C1209 1.524 . S
C1210 C1211 1.415 . S
C1211 H1181 0.950 . S
C1211 C1206 1.363 . S
C1211 C1210 1.415 . S
H1212 C1209 0.999 . S
H1213 C1194 0.913 . S
H1214 C1232 0.951 . S
H1215 C1234 0.951 . S
H1216 C1236 0.950 . S
H1217 C1237 0.950 . S
H1218 C1239 0.950 . S
H1219 C1242 0.950 . S
H1220 C1243 0.950 . S
H1221 C1245 0.950 . S
H1222 C1246 0.950 . S
H1223 C1247 0.951 . S
H1224 C1249 0.951 . S
H1225 C1251 0.950 . S
H1226 C1252 0.950 . S
H1227 C1254 0.950 . S
H1228 C1257 0.950 . S
H1229 C1258 0.950 . S
H1230 C1260 0.950 . S
H1231 C1261 0.950 . S
C1232 H1214 0.951 . S
C1232 C1233 1.366 . S
C1232 C1234 1.388 . S
C1233 C1232 1.366 . S
C1233 C1237 1.385 . S
C1234 H1215 0.951 . S
C1234 C1232 1.388 . S
C1234 C1235 1.366 . S
C1235 C1234 1.366 . S
C1235 C1236 1.414 . S
C1235 C1238 1.499 . S
C1236 H1216 0.950 . S
C1236 C1235 1.414 . S
C1236 C1237 1.374 . S
C1237 H1217 0.950 . S
C1237 C1233 1.385 . S
C1237 C1236 1.374 . S
C1238 C1235 1.499 . S
C1238 C1239 1.373 . S
C1238 C1240 1.389 . S
C1239 H1218 0.950 . S
C1239 C1238 1.373 . S
C1239 C1255 1.377 . S
C1240 C1238 1.389 . S
C1240 C1241 1.524 . S
C1240 C1254 1.377 . S
C1241 C1240 1.524 . S
C1241 C1242 1.397 . S
C1241 C1246 1.363 . S
C1242 H1219 0.950 . S
C1242 C1241 1.397 . S
C1242 C1243 1.334 . S
C1243 H1220 0.950 . S
C1243 C1242 1.334 . S
C1243 C1244 1.287 . S
C1244 C1243 1.287 . S
C1244 C1245 1.524 . S
C1244 H1263 0.913 . S
C1245 H1221 0.950 . S
C1245 C1244 1.524 . S
C1245 C1246 1.415 . S
C1246 H1222 0.950 . S
C1246 C1241 1.363 . S
C1246 C1245 1.415 . S
C1247 H1223 0.951 . S
C1247 C1248 1.366 . S
C1247 C1249 1.388 . S
C1248 C1247 1.366 . S
C1248 C1252 1.385 . S
C1249 H1224 0.951 . S
C1249 C1247 1.388 . S
C1249 C1250 1.366 . S
C1250 C1249 1.366 . S
C1250 C1251 1.414 . S
C1250 C1253 1.499 . S
C1251 H1225 0.950 . S
C1251 C1250 1.414 . S
C1251 C1252 1.374 . S
C1252 H1226 0.950 . S
C1252 C1248 1.385 . S
C1252 C1251 1.374 . S
C1253 C1250 1.499 . S
C1253 C1254 1.373 . S
C1253 C1255 1.389 . S
C1254 H1227 0.950 . S
C1254 C1240 1.377 . S
C1254 C1253 1.373 . S
C1255 C1239 1.377 . S
C1255 C1253 1.389 . S
C1255 C1256 1.524 . S
C1256 C1255 1.524 . S
C1256 C1257 1.397 . S
C1256 C1261 1.363 . S
C1257 H1228 0.950 . S
C1257 C1256 1.397 . S
C1257 C1258 1.334 . S
C1258 H1229 0.950 . S
C1258 C1257 1.334 . S
C1258 C1259 1.287 . S
C1259 C1258 1.287 . S
C1259 C1260 1.524 . S
C1259 H1262 1.043 . S
C1260 H1230 0.950 . S
C1260 C1259 1.524 . S
C1260 C1261 1.415 . S
C1261 H1231 0.950 . S
C1261 C1256 1.363 . S
C1261 C1260 1.415 . S
H1262 C1259 1.043 . S
H1263 C1244 0.913 . S
H1264 C1282 0.951 . S
H1265 C1284 0.951 . S
H1266 C1286 0.950 . S
H1267 C1287 0.950 . S
H1268 C1289 0.950 . S
H1269 C1292 0.950 . S
H1270 C1293 0.950 . S
H1271 C1295 0.950 . S
H1272 C1296 0.950 . S
H1273 C1297 0.951 . S
H1274 C1299 0.951 . S
H1275 C1301 0.950 . S
H1276 C1302 0.950 . S
H1277 C1304 0.950 . S
H1278 C1307 0.950 . S
H1279 C1308 0.950 . S
H1280 C1310 0.950 . S
H1281 C1311 0.950 . S
C1282 H1264 0.951 . S
C1282 C1283 1.366 . S
C1282 C1284 1.388 . S
C1283 C1282 1.366 . S
C1283 C1287 1.385 . S
C1284 H1265 0.951 . S
C1284 C1282 1.388 . S
C1284 C1285 1.366 . S
C1285 C1284 1.366 . S
C1285 C1286 1.414 . S
C1285 C1288 1.499 . S
C1286 H1266 0.950 . S
C1286 C1285 1.414 . S
C1286 C1287 1.374 . S
C1287 H1267 0.950 . S
C1287 C1283 1.385 . S
C1287 C1286 1.374 . S
C1288 C1285 1.499 . S
C1288 C1289 1.373 . S
C1288 C1290 1.389 . S
C1289 H1268 0.950 . S
C1289 C1288 1.373 . S
C1289 C1305 1.377 . S
C1290 C1288 1.389 . S
C1290 C1291 1.524 . S
C1290 C1304 1.377 . S
C1291 C1290 1.524 . S
C1291 C1292 1.397 . S
C1291 C1296 1.363 . S
C1292 H1269 0.950 . S
C1292 C1291 1.397 . S
C1292 C1293 1.334 . S
C1293 H1270 0.950 . S
C1293 C1292 1.334 . S
C1293 C1294 1.287 . S
C1294 C1293 1.287 . S
C1294 C1295 1.524 . S
C1294 H1313 0.913 . S
C1295 H1271 0.950 . S
C1295 C1294 1.524 . S
C1295 C1296 1.415 . S
C1296 H1272 0.950 . S
C1296 C1291 1.363 . S
C1296 C1295 1.415 . S
C1297 H1273 0.951 . S
C1297 C1298 1.366 . S
C1297 C1299 1.388 . S
C1298 C1297 1.366 . S
C1298 C1302 1.385 . S
C1299 H1274 0.951 . S
C1299 C1297 1.388 . S
C1299 C1300 1.366 . S
C1300 C1299 1.366 . S
C1300 C1301 1.414 . S
C1300 C1303 1.499 . S
C1301 H1275 0.950 . S
C1301 C1300 1.414 . S
C1301 C1302 1.374 . S
C1302 H1276 0.950 . S
C1302 C1298 1.385 . S
C1302 C1301 1.374 . S
C1303 C1300 1.499 . S
C1303 C1304 1.373 . S
C1303 C1305 1.389 . S
C1304 H1277 0.950 . S
C1304 C1290 1.377 . S
C1304 C1303 1.373 . S
C1305 C1289 1.377 . S
C1305 C1303 1.389 . S
C1305 C1306 1.524 . S
C1306 C1305 1.524 . S
C1306 C1307 1.397 . S
C1306 C1311 1.363 . S
C1307 H1278 0.950 . S
C1307 C1306 1.397 . S
C1307 C1308 1.334 . S
C1308 H1279 0.950 . S
C1308 C1307 1.334 . S
C1308 C1309 1.287 . S
C1309 C1308 1.287 . S
C1309 C1310 1.524 . S
C1309 H1312 0.999 . S
C1310 H1280 0.950 . S
C1310 C1309 1.524 . S
C1310 C1311 1.415 . S
C1311 H1281 0.950 . S
C1311 C1306 1.363 . S
C1311 C1310 1.415 . S
H1312 C1309 0.999 . S
H1313 C1294 0.913 . S
H1314 C1332 0.951 . S
H1315 C1334 0.951 . S
H1316 C1336 0.950 . S
H1317 C1337 0.950 . S
H1318 C1339 0.950 . S
H1319 C1342 0.950 . S
H1320 C1343 0.950 . S
H1321 C1345 0.950 . S
H1322 C1346 0.950 . S
H1323 C1347 0.951 . S
H1324 C1349 0.951 . S
H1325 C1351 0.950 . S
H1326 C1352 0.950 . S
H1327 C1354 0.950 . S
H1328 C1357 0.950 . S
H1329 C1358 0.950 . S
H1330 C1360 0.950 . S
H1331 C1361 0.950 . S
C1332 H1314 0.951 . S
C1332 C1333 1.366 . S
C1332 C1334 1.388 . S
C1333 C1332 1.366 . S
C1333 C1337 1.385 . S
C1334 H1315 0.951 . S
C1334 C1332 1.388 . S
C1334 C1335 1.366 . S
C1335 C1334 1.366 . S
C1335 C1336 1.414 . S
C1335 C1338 1.499 . S
C1336 H1316 0.950 . S
C1336 C1335 1.414 . S
C1336 C1337 1.374 . S
C1337 H1317 0.950 . S
C1337 C1333 1.385 . S
C1337 C1336 1.374 . S
C1338 C1335 1.499 . S
C1338 C1339 1.373 . S
C1338 C1340 1.389 . S
C1339 H1318 0.950 . S
C1339 C1338 1.373 . S
C1339 C1355 1.377 . S
C1340 C1338 1.389 . S
C1340 C1341 1.524 . S
C1340 C1354 1.377 . S
C1341 C1340 1.524 . S
C1341 C1342 1.397 . S
C1341 C1346 1.363 . S
C1342 H1319 0.950 . S
C1342 C1341 1.397 . S
C1342 C1343 1.334 . S
C1343 H1320 0.950 . S
C1343 C1342 1.334 . S
C1343 C1344 1.287 . S
C1344 C1343 1.287 . S
C1344 C1345 1.524 . S
C1344 H1363 0.913 . S
C1345 H1321 0.950 . S
C1345 C1344 1.524 . S
C1345 C1346 1.415 . S
C1346 H1322 0.950 . S
C1346 C1341 1.363 . S
C1346 C1345 1.415 . S
C1347 H1323 0.951 . S
C1347 C1348 1.366 . S
C1347 C1349 1.388 . S
C1348 C1347 1.366 . S
C1348 C1352 1.385 . S
C1349 H1324 0.951 . S
C1349 C1347 1.388 . S
C1349 C1350 1.366 . S
C1350 C1349 1.366 . S
C1350 C1351 1.414 . S
C1350 C1353 1.499 . S
C1351 H1325 0.950 . S
C1351 C1350 1.414 . S
C1351 C1352 1.374 . S
C1352 H1326 0.950 . S
C1352 C1348 1.385 . S
C1352 C1351 1.374 . S
C1353 C1350 1.499 . S
C1353 C1354 1.373 . S
C1353 C1355 1.389 . S
C1354 H1327 0.950 . S
C1354 C1340 1.377 . S
C1354 C1353 1.373 . S
C1355 C1339 1.377 . S
C1355 C1353 1.389 . S
C1355 C1356 1.524 . S
C1356 C1355 1.524 . S
C1356 C1357 1.397 . S
C1356 C1361 1.363 . S
C1357 H1328 0.950 . S
C1357 C1356 1.397 . S
C1357 C1358 1.334 . S
C1358 H1329 0.950 . S
C1358 C1357 1.334 . S
C1358 C1359 1.287 . S
C1359 C1358 1.287 . S
C1359 C1360 1.524 . S
C1359 H1362 0.999 . S
C1360 H1330 0.950 . S
C1360 C1359 1.524 . S
C1360 C1361 1.415 . S
C1361 H1331 0.950 . S
C1361 C1356 1.363 . S
C1361 C1360 1.415 . S
H1362 C1359 0.999 . S
H1363 C1344 0.913 . S
H1364 C1382 0.951 . S
H1365 C1384 0.951 . S
H1366 C1386 0.950 . S
H1367 C1387 0.950 . S
H1368 C1389 0.950 . S
H1369 C1392 0.950 . S
H1370 C1393 0.950 . S
H1371 C1395 0.950 . S
H1372 C1396 0.950 . S
H1373 C1397 0.951 . S
H1374 C1399 0.951 . S
H1375 C1401 0.950 . S
H1376 C1402 0.950 . S
H1377 C1404 0.950 . S
H1378 C1407 0.950 . S
H1379 C1408 0.950 . S
H1380 C1410 0.950 . S
H1381 C1411 0.950 . S
C1382 H1364 0.951 . S
C1382 C1383 1.366 . S
C1382 C1384 1.388 . S
C1383 C1382 1.366 . S
C1383 C1387 1.385 . S
C1384 H1365 0.951 . S
C1384 C1382 1.388 . S
C1384 C1385 1.366 . S
C1385 C1384 1.366 . S
C1385 C1386 1.414 . S
C1385 C1388 1.499 . S
C1386 H1366 0.950 . S
C1386 C1385 1.414 . S
C1386 C1387 1.374 . S
C1387 H1367 0.950 . S
C1387 C1383 1.385 . S
C1387 C1386 1.374 . S
C1388 C1385 1.499 . S
C1388 C1389 1.373 . S
C1388 C1390 1.389 . S
C1389 H1368 0.950 . S
C1389 C1388 1.373 . S
C1389 C1405 1.377 . S
C1390 C1388 1.389 . S
C1390 C1391 1.524 . S
C1390 C1404 1.377 . S
C1391 C1390 1.524 . S
C1391 C1392 1.397 . S
C1391 C1396 1.363 . S
C1392 H1369 0.950 . S
C1392 C1391 1.397 . S
C1392 C1393 1.334 . S
C1393 H1370 0.950 . S
C1393 C1392 1.334 . S
C1393 C1394 1.287 . S
C1394 C1393 1.287 . S
C1394 C1395 1.524 . S
C1394 H1413 0.913 . S
C1395 H1371 0.950 . S
C1395 C1394 1.524 . S
C1395 C1396 1.415 . S
C1396 H1372 0.950 . S
C1396 C1391 1.363 . S
C1396 C1395 1.415 . S
C1397 H1373 0.951 . S
C1397 C1398 1.366 . S
C1397 C1399 1.388 . S
C1398 C1397 1.366 . S
C1398 C1402 1.385 . S
C1399 H1374 0.951 . S
C1399 C1397 1.388 . S
C1399 C1400 1.366 . S
C1400 C1399 1.366 . S
C1400 C1401 1.414 . S
C1400 C1403 1.499 . S
C1401 H1375 0.950 . S
C1401 C1400 1.414 . S
C1401 C1402 1.374 . S
C1402 H1376 0.950 . S
C1402 C1398 1.385 . S
C1402 C1401 1.374 . S
C1403 C1400 1.499 . S
C1403 C1404 1.373 . S
C1403 C1405 1.389 . S
C1404 H1377 0.950 . S
C1404 C1390 1.377 . S
C1404 C1403 1.373 . S
C1405 C1389 1.377 . S
C1405 C1403 1.389 . S
C1405 C1406 1.524 . S
C1406 C1405 1.524 . S
C1406 C1407 1.397 . S
C1406 C1411 1.363 . S
C1407 H1378 0.950 . S
C1407 C1406 1.397 . S
C1407 C1408 1.334 . S
C1408 H1379 0.950 . S
C1408 C1407 1.334 . S
C1408 C1409 1.287 . S
C1409 C1408 1.287 . S
C1409 C1410 1.524 . S
C1409 H1412 0.999 . S
C1410 H1380 0.950 . S
C1410 C1409 1.524 . S
C1410 C1411 1.415 . S
C1411 H1381 0.950 . S
C1411 C1406 1.363 . S
C1411 C1410 1.415 . S
H1412 C1409 0.999 . S
H1413 C1394 0.913 . S
H1414 C1432 0.951 . S
H1415 C1434 0.951 . S
H1416 C1436 0.950 . S
H1417 C1437 0.950 . S
H1418 C1439 0.950 . S
H1419 C1442 0.950 . S
H1420 C1443 0.950 . S
H1421 C1445 0.950 . S
H1422 C1446 0.950 . S
H1423 C1447 0.951 . S
H1424 C1449 0.951 . S
H1425 C1451 0.950 . S
H1426 C1452 0.950 . S
H1427 C1454 0.950 . S
H1428 C1457 0.950 . S
H1429 C1458 0.950 . S
H1430 C1460 0.950 . S
H1431 C1461 0.950 . S
C1432 H1414 0.951 . S
C1432 C1433 1.366 . S
C1432 C1434 1.388 . S
C1433 C1432 1.366 . S
C1433 C1437 1.385 . S
C1434 H1415 0.951 . S
C1434 C1432 1.388 . S
C1434 C1435 1.366 . S
C1435 C1434 1.366 . S
C1435 C1436 1.414 . S
C1435 C1438 1.499 . S
C1436 H1416 0.950 . S
C1436 C1435 1.414 . S
C1436 C1437 1.374 . S
C1437 H1417 0.950 . S
C1437 C1433 1.385 . S
C1437 C1436 1.374 . S
C1438 C1435 1.499 . S
C1438 C1439 1.373 . S
C1438 C1440 1.389 . S
C1439 H1418 0.950 . S
C1439 C1438 1.373 . S
C1439 C1455 1.377 . S
C1440 C1438 1.389 . S
C1440 C1441 1.524 . S
C1440 C1454 1.377 . S
C1441 C1440 1.524 . S
C1441 C1442 1.397 . S
C1441 C1446 1.363 . S
C1442 H1419 0.950 . S
C1442 C1441 1.397 . S
C1442 C1443 1.334 . S
C1443 H1420 0.950 . S
C1443 C1442 1.334 . S
C1443 C1444 1.287 . S
C1444 C1443 1.287 . S
C1444 C1445 1.524 . S
C1444 H1463 0.913 . S
C1445 H1421 0.950 . S
C1445 C1444 1.524 . S
C1445 C1446 1.415 . S
C1446 H1422 0.950 . S
C1446 C1441 1.363 . S
C1446 C1445 1.415 . S
C1447 H1423 0.951 . S
C1447 C1448 1.366 . S
C1447 C1449 1.388 . S
C1448 C1447 1.366 . S
C1448 C1452 1.385 . S
C1449 H1424 0.951 . S
C1449 C1447 1.388 . S
C1449 C1450 1.366 . S
C1450 C1449 1.366 . S
C1450 C1451 1.414 . S
C1450 C1453 1.499 . S
C1451 H1425 0.950 . S
C1451 C1450 1.414 . S
C1451 C1452 1.374 . S
C1452 H1426 0.950 . S
C1452 C1448 1.385 . S
C1452 C1451 1.374 . S
C1453 C1450 1.499 . S
C1453 C1454 1.373 . S
C1453 C1455 1.389 . S
C1454 H1427 0.950 . S
C1454 C1440 1.377 . S
C1454 C1453 1.373 . S
C1455 C1439 1.377 . S
C1455 C1453 1.389 . S
C1455 C1456 1.524 . S
C1456 C1455 1.524 . S
C1456 C1457 1.397 . S
C1456 C1461 1.363 . S
C1457 H1428 0.950 . S
C1457 C1456 1.397 . S
C1457 C1458 1.334 . S
C1458 H1429 0.950 . S
C1458 C1457 1.334 . S
C1458 C1459 1.287 . S
C1459 C1458 1.287 . S
C1459 C1460 1.524 . S
C1459 H1462 0.999 . S
C1460 H1430 0.950 . S
C1460 C1459 1.524 . S
C1460 C1461 1.415 . S
C1461 H1431 0.950 . S
C1461 C1456 1.363 . S
C1461 C1460 1.415 . S
H1462 C1459 0.999 . S
H1463 C1444 0.913 . S
H1464 C1482 0.951 . S
H1465 C1484 0.951 . S
H1466 C1486 0.950 . S
H1467 C1487 0.950 . S
H1468 C1489 0.950 . S
H1469 C1492 0.950 . S
H1470 C1493 0.950 . S
H1471 C1495 0.950 . S
H1472 C1496 0.950 . S
H1473 C1497 0.951 . S
H1474 C1499 0.951 . S
H1475 C1501 0.950 . S
H1476 C1502 0.950 . S
H1477 C1504 0.950 . S
H1478 C1507 0.950 . S
H1479 C1508 0.950 . S
H1480 C1510 0.950 . S
H1481 C1511 0.950 . S
C1482 H1464 0.951 . S
C1482 C1483 1.366 . S
C1482 C1484 1.388 . S
C1483 C1482 1.366 . S
C1483 C1487 1.385 . S
C1484 H1465 0.951 . S
C1484 C1482 1.388 . S
C1484 C1485 1.366 . S
C1485 C1484 1.366 . S
C1485 C1486 1.414 . S
C1485 C1488 1.499 . S
C1486 H1466 0.950 . S
C1486 C1485 1.414 . S
C1486 C1487 1.374 . S
C1487 H1467 0.950 . S
C1487 C1483 1.385 . S
C1487 C1486 1.374 . S
C1488 C1485 1.499 . S
C1488 C1489 1.373 . S
C1488 C1490 1.389 . S
C1489 H1468 0.950 . S
C1489 C1488 1.373 . S
C1489 C1505 1.377 . S
C1490 C1488 1.389 . S
C1490 C1491 1.524 . S
C1490 C1504 1.377 . S
C1491 C1490 1.524 . S
C1491 C1492 1.397 . S
C1491 C1496 1.363 . S
C1492 H1469 0.950 . S
C1492 C1491 1.397 . S
C1492 C1493 1.334 . S
C1493 H1470 0.950 . S
C1493 C1492 1.334 . S
C1493 C1494 1.287 . S
C1494 C1493 1.287 . S
C1494 C1495 1.524 . S
C1494 H1513 0.913 . S
C1495 H1471 0.950 . S
C1495 C1494 1.524 . S
C1495 C1496 1.415 . S
C1496 H1472 0.950 . S
C1496 C1491 1.363 . S
C1496 C1495 1.415 . S
C1497 H1473 0.951 . S
C1497 C1498 1.366 . S
C1497 C1499 1.388 . S
C1498 C1497 1.366 . S
C1498 C1502 1.385 . S
C1499 H1474 0.951 . S
C1499 C1497 1.388 . S
C1499 C1500 1.366 . S
C1500 C1499 1.366 . S
C1500 C1501 1.414 . S
C1500 C1503 1.499 . S
C1501 H1475 0.950 . S
C1501 C1500 1.414 . S
C1501 C1502 1.374 . S
C1502 H1476 0.950 . S
C1502 C1498 1.385 . S
C1502 C1501 1.374 . S
C1503 C1500 1.499 . S
C1503 C1504 1.373 . S
C1503 C1505 1.389 . S
C1504 H1477 0.950 . S
C1504 C1490 1.377 . S
C1504 C1503 1.373 . S
C1505 C1489 1.377 . S
C1505 C1503 1.389 . S
C1505 C1506 1.524 . S
C1506 C1505 1.524 . S
C1506 C1507 1.397 . S
C1506 C1511 1.363 . S
C1507 H1478 0.950 . S
C1507 C1506 1.397 . S
C1507 C1508 1.334 . S
C1508 H1479 0.950 . S
C1508 C1507 1.334 . S
C1508 C1509 1.287 . S
C1509 C1508 1.287 . S
C1509 C1510 1.524 . S
C1509 H1512 0.999 . S
C1510 H1480 0.950 . S
C1510 C1509 1.524 . S
C1510 C1511 1.415 . S
C1511 H1481 0.950 . S
C1511 C1506 1.363 . S
C1511 C1510 1.415 . S
H1512 C1509 0.999 . S
H1513 C1494 0.913 . S
H1514 C1532 0.951 . S
H1515 C1534 0.951 . S
H1516 C1536 0.950 . S
H1517 C1537 0.950 . S
H1518 C1539 0.950 . S
H1519 C1542 0.950 . S
H1520 C1543 0.950 . S
H1521 C1545 0.950 . S
H1522 C1546 0.950 . S
H1523 C1547 0.951 . S
H1524 C1549 0.951 . S
H1525 C1551 0.950 . S
H1526 C1552 0.950 . S
H1527 C1554 0.950 . S
H1528 C1557 0.950 . S
H1529 C1558 0.950 . S
H1530 C1560 0.950 . S
H1531 C1561 0.950 . S
C1532 H1514 0.951 . S
C1532 C1533 1.366 . S
C1532 C1534 1.388 . S
C1533 C1532 1.366 . S
C1533 C1537 1.385 . S
C1534 H1515 0.951 . S
C1534 C1532 1.388 . S
C1534 C1535 1.366 . S
C1535 C1534 1.366 . S
C1535 C1536 1.414 . S
C1535 C1538 1.499 . S
C1536 H1516 0.950 . S
C1536 C1535 1.414 . S
C1536 C1537 1.374 . S
C1537 H1517 0.950 . S
C1537 C1533 1.385 . S
C1537 C1536 1.374 . S
C1538 C1535 1.499 . S
C1538 C1539 1.373 . S
C1538 C1540 1.389 . S
C1539 H1518 0.950 . S
C1539 C1538 1.373 . S
C1539 C1555 1.377 . S
C1540 C1538 1.389 . S
C1540 C1541 1.524 . S
C1540 C1554 1.377 . S
C1541 C1540 1.524 . S
C1541 C1542 1.397 . S
C1541 C1546 1.363 . S
C1542 H1519 0.950 . S
C1542 C1541 1.397 . S
C1542 C1543 1.334 . S
C1543 H1520 0.950 . S
C1543 C1542 1.334 . S
C1543 C1544 1.287 . S
C1544 C1543 1.287 . S
C1544 C1545 1.524 . S
C1544 H1563 0.913 . S
C1545 H1521 0.950 . S
C1545 C1544 1.524 . S
C1545 C1546 1.415 . S
C1546 H1522 0.950 . S
C1546 C1541 1.363 . S
C1546 C1545 1.415 . S
C1547 H1523 0.951 . S
C1547 C1548 1.366 . S
C1547 C1549 1.388 . S
C1548 C1547 1.366 . S
C1548 C1552 1.385 . S
C1549 H1524 0.951 . S
C1549 C1547 1.388 . S
C1549 C1550 1.366 . S
C1550 C1549 1.366 . S
C1550 C1551 1.414 . S
C1550 C1553 1.499 . S
C1551 H1525 0.950 . S
C1551 C1550 1.414 . S
C1551 C1552 1.374 . S
C1552 H1526 0.950 . S
C1552 C1548 1.385 . S
C1552 C1551 1.374 . S
C1553 C1550 1.499 . S
C1553 C1554 1.373 . S
C1553 C1555 1.389 . S
C1554 H1527 0.950 . S
C1554 C1540 1.377 . S
C1554 C1553 1.373 . S
C1555 C1539 1.377 . S
C1555 C1553 1.389 . S
C1555 C1556 1.524 . S
C1556 C1555 1.524 . S
C1556 C1557 1.397 . S
C1556 C1561 1.363 . S
C1557 H1528 0.950 . S
C1557 C1556 1.397 . S
C1557 C1558 1.334 . S
C1558 H1529 0.950 . S
C1558 C1557 1.334 . S
C1558 C1559 1.287 . S
C1559 C1558 1.287 . S
C1559 C1560 1.524 . S
C1559 H1562 0.999 . S
C1560 H1530 0.950 . S
C1560 C1559 1.524 . S
C1560 C1561 1.415 . S
C1561 H1531 0.950 . S
C1561 C1556 1.363 . S
C1561 C1560 1.415 . S
H1562 C1559 0.999 . S
H1563 C1544 0.913 . S
H1564 C1582 0.951 . S
H1565 C1584 0.951 . S
H1566 C1586 0.950 . S
H1567 C1587 0.950 . S
H1568 C1589 0.950 . S
H1569 C1592 0.950 . S
H1570 C1593 0.950 . S
H1571 C1595 0.950 . S
H1572 C1596 0.950 . S
H1573 C1597 0.951 . S
H1574 C1599 0.951 . S
H1575 C1601 0.950 . S
H1576 C1602 0.950 . S
H1577 C1604 0.950 . S
H1578 C1607 0.950 . S
H1579 C1608 0.950 . S
H1580 C1610 0.950 . S
H1581 C1611 0.950 . S
C1582 H1564 0.951 . S
C1582 C1583 1.366 . S
C1582 C1584 1.388 . S
C1583 C1582 1.366 . S
C1583 C1587 1.385 . S
C1584 H1565 0.951 . S
C1584 C1582 1.388 . S
C1584 C1585 1.366 . S
C1585 C1584 1.366 . S
C1585 C1586 1.414 . S
C1585 C1588 1.499 . S
C1586 H1566 0.950 . S
C1586 C1585 1.414 . S
C1586 C1587 1.374 . S
C1587 H1567 0.950 . S
C1587 C1583 1.385 . S
C1587 C1586 1.374 . S
C1588 C1585 1.499 . S
C1588 C1589 1.373 . S
C1588 C1590 1.389 . S
C1589 H1568 0.950 . S
C1589 C1588 1.373 . S
C1589 C1605 1.377 . S
C1590 C1588 1.389 . S
C1590 C1591 1.524 . S
C1590 C1604 1.377 . S
C1591 C1590 1.524 . S
C1591 C1592 1.397 . S
C1591 C1596 1.363 . S
C1592 H1569 0.950 . S
C1592 C1591 1.397 . S
C1592 C1593 1.334 . S
C1593 H1570 0.950 . S
C1593 C1592 1.334 . S
C1593 C1594 1.287 . S
C1594 C1593 1.287 . S
C1594 C1595 1.524 . S
C1594 H1613 0.913 . S
C1595 H1571 0.950 . S
C1595 C1594 1.524 . S
C1595 C1596 1.415 . S
C1596 H1572 0.950 . S
C1596 C1591 1.363 . S
C1596 C1595 1.415 . S
C1597 H1573 0.951 . S
C1597 C1598 1.366 . S
C1597 C1599 1.388 . S
C1598 C1597 1.366 . S
C1598 C1602 1.385 . S
C1599 H1574 0.951 . S
C1599 C1597 1.388 . S
C1599 C1600 1.366 . S
C1600 C1599 1.366 . S
C1600 C1601 1.414 . S
C1600 C1603 1.499 . S
C1601 H1575 0.950 . S
C1601 C1600 1.414 . S
C1601 C1602 1.374 . S
C1602 H1576 0.950 . S
C1602 C1598 1.385 . S
C1602 C1601 1.374 . S
C1603 C1600 1.499 . S
C1603 C1604 1.373 . S
C1603 C1605 1.389 . S
C1604 H1577 0.950 . S
C1604 C1590 1.377 . S
C1604 C1603 1.373 . S
C1605 C1589 1.377 . S
C1605 C1603 1.389 . S
C1605 C1606 1.524 . S
C1606 C1605 1.524 . S
C1606 C1607 1.397 . S
C1606 C1611 1.363 . S
C1607 H1578 0.950 . S
C1607 C1606 1.397 . S
C1607 C1608 1.334 . S
C1608 H1579 0.950 . S
C1608 C1607 1.334 . S
C1608 C1609 1.287 . S
C1609 C1608 1.287 . S
C1609 C1610 1.524 . S
C1609 H1612 0.999 . S
C1610 H1580 0.950 . S
C1610 C1609 1.524 . S
C1610 C1611 1.415 . S
C1611 H1581 0.950 . S
C1611 C1606 1.363 . S
C1611 C1610 1.415 . S
H1612 C1609 0.999 . S
H1613 C1594 0.913 . S
H1614 C1632 0.951 . S
H1615 C1634 0.951 . S
H1616 C1636 0.950 . S
H1617 C1637 0.950 . S
H1618 C1639 0.950 . S
H1619 C1642 0.950 . S
H1620 C1643 0.950 . S
H1621 C1645 0.950 . S
H1622 C1646 0.950 . S
H1623 C1647 0.951 . S
H1624 C1649 0.951 . S
H1625 C1651 0.950 . S
H1626 C1652 0.950 . S
H1627 C1654 0.950 . S
H1628 C1657 0.950 . S
H1629 C1658 0.950 . S
H1630 C1660 0.950 . S
H1631 C1661 0.950 . S
C1632 H1614 0.951 . S
C1632 C1633 1.366 . S
C1632 C1634 1.388 . S
C1633 C1632 1.366 . S
C1633 C1637 1.385 . S
C1634 H1615 0.951 . S
C1634 C1632 1.388 . S
C1634 C1635 1.366 . S
C1635 C1634 1.366 . S
C1635 C1636 1.414 . S
C1635 C1638 1.499 . S
C1636 H1616 0.950 . S
C1636 C1635 1.414 . S
C1636 C1637 1.374 . S
C1637 H1617 0.950 . S
C1637 C1633 1.385 . S
C1637 C1636 1.374 . S
C1638 C1635 1.499 . S
C1638 C1639 1.373 . S
C1638 C1640 1.389 . S
C1639 H1618 0.950 . S
C1639 C1638 1.373 . S
C1639 C1655 1.377 . S
C1640 C1638 1.389 . S
C1640 C1641 1.524 . S
C1640 C1654 1.377 . S
C1641 C1640 1.524 . S
C1641 C1642 1.397 . S
C1641 C1646 1.363 . S
C1642 H1619 0.950 . S
C1642 C1641 1.397 . S
C1642 C1643 1.334 . S
C1643 H1620 0.950 . S
C1643 C1642 1.334 . S
C1643 C1644 1.287 . S
C1644 C1643 1.287 . S
C1644 C1645 1.524 . S
C1644 H1663 0.913 . S
C1645 H1621 0.950 . S
C1645 C1644 1.524 . S
C1645 C1646 1.415 . S
C1646 H1622 0.950 . S
C1646 C1641 1.363 . S
C1646 C1645 1.415 . S
C1647 H1623 0.951 . S
C1647 C1648 1.366 . S
C1647 C1649 1.388 . S
C1648 C1647 1.366 . S
C1648 C1652 1.385 . S
C1649 H1624 0.951 . S
C1649 C1647 1.388 . S
C1649 C1650 1.366 . S
C1650 C1649 1.366 . S
C1650 C1651 1.414 . S
C1650 C1653 1.499 . S
C1651 H1625 0.950 . S
C1651 C1650 1.414 . S
C1651 C1652 1.374 . S
C1652 H1626 0.950 . S
C1652 C1648 1.385 . S
C1652 C1651 1.374 . S
C1653 C1650 1.499 . S
C1653 C1654 1.373 . S
C1653 C1655 1.389 . S
C1654 H1627 0.950 . S
C1654 C1640 1.377 . S
C1654 C1653 1.373 . S
C1655 C1639 1.377 . S
C1655 C1653 1.389 . S
C1655 C1656 1.524 . S
C1656 C1655 1.524 . S
C1656 C1657 1.397 . S
C1656 C1661 1.363 . S
C1657 H1628 0.950 . S
C1657 C1656 1.397 . S
C1657 C1658 1.334 . S
C1658 H1629 0.950 . S
C1658 C1657 1.334 . S
C1658 C1659 1.287 . S
C1659 C1658 1.287 . S
C1659 C1660 1.524 . S
C1659 H1662 0.999 . S
C1660 H1630 0.950 . S
C1660 C1659 1.524 . S
C1660 C1661 1.415 . S
C1661 H1631 0.950 . S
C1661 C1656 1.363 . S
C1661 C1660 1.415 . S
H1662 C1659 0.999 . S
H1663 C1644 0.913 . S
H1664 C1682 0.951 . S
H1665 C1684 0.951 . S
H1666 C1686 0.950 . S
H1667 C1687 0.950 . S
H1668 C1689 0.950 . S
H1669 C1692 0.950 . S
H1670 C1693 0.950 . S
H1671 C1695 0.950 . S
H1672 C1696 0.950 . S
H1673 C1697 0.951 . S
H1674 C1699 0.951 . S
H1675 C1701 0.950 . S
H1676 C1702 0.950 . S
H1677 C1704 0.950 . S
H1678 C1707 0.950 . S
H1679 C1708 0.950 1_655 S
H1680 C1710 0.950 . S
H1681 C1711 0.950 . S
C1682 H1664 0.951 . S
C1682 C1683 1.366 . S
C1682 C1684 1.388 . S
C1683 C1682 1.366 . S
C1683 C1687 1.385 . S
C1684 H1665 0.951 . S
C1684 C1682 1.388 . S
C1684 C1685 1.366 . S
C1685 C1684 1.366 . S
C1685 C1686 1.414 . S
C1685 C1688 1.499 . S
C1686 H1666 0.950 . S
C1686 C1685 1.414 . S
C1686 C1687 1.374 . S
C1687 H1667 0.950 . S
C1687 C1683 1.385 . S
C1687 C1686 1.374 . S
C1688 C1685 1.499 . S
C1688 C1689 1.373 . S
C1688 C1690 1.389 . S
C1689 H1668 0.950 . S
C1689 C1688 1.373 . S
C1689 C1705 1.377 . S
C1690 C1688 1.389 . S
C1690 C1691 1.524 . S
C1690 C1704 1.377 . S
C1691 C1690 1.524 . S
C1691 C1692 1.397 . S
C1691 C1696 1.363 . S
C1692 H1669 0.950 . S
C1692 C1691 1.397 . S
C1692 C1693 1.334 . S
C1693 H1670 0.950 . S
C1693 C1692 1.334 . S
C1693 C1694 1.287 . S
C1694 C1693 1.287 . S
C1694 C1695 1.524 . S
C1694 H1713 0.913 . S
C1695 H1671 0.950 . S
C1695 C1694 1.524 . S
C1695 C1696 1.415 . S
C1696 H1672 0.950 . S
C1696 C1691 1.363 . S
C1696 C1695 1.415 . S
C1697 H1673 0.951 . S
C1697 C1698 1.366 . S
C1697 C1699 1.388 . S
C1698 C1697 1.366 . S
C1698 C1702 1.385 . S
C1699 H1674 0.951 . S
C1699 C1697 1.388 . S
C1699 C1700 1.366 . S
C1700 C1699 1.366 . S
C1700 C1701 1.414 . S
C1700 C1703 1.499 . S
C1701 H1675 0.950 . S
C1701 C1700 1.414 . S
C1701 C1702 1.374 . S
C1702 H1676 0.950 . S
C1702 C1698 1.385 . S
C1702 C1701 1.374 . S
C1703 C1700 1.499 . S
C1703 C1704 1.373 . S
C1703 C1705 1.389 . S
C1704 H1677 0.950 . S
C1704 C1690 1.377 . S
C1704 C1703 1.373 . S
C1705 C1689 1.377 . S
C1705 C1703 1.389 . S
C1705 C1706 1.524 . S
C1706 C1705 1.524 . S
C1706 C1707 1.397 . S
C1706 C1711 1.363 . S
C1707 H1678 0.950 . S
C1707 C1706 1.397 . S
C1707 C1708 1.334 . S
C1708 H1679 0.950 1_455 S
C1708 C1707 1.334 . S
C1708 C1709 1.287 . S
C1709 C1708 1.287 . S
C1709 C1710 1.524 . S
C1709 H1712 0.999 1_455 S
C1710 H1680 0.950 . S
C1710 C1709 1.524 . S
C1710 C1711 1.415 . S
C1711 H1681 0.950 . S
C1711 C1706 1.363 . S
C1711 C1710 1.415 . S
H1712 C1709 0.999 1_655 S
H1713 C1694 0.913 . S
H1714 C1732 0.951 . S
H1715 C1734 0.951 . S
H1716 C1736 0.950 . S
H1717 C1737 0.950 . S
H1718 C1739 0.950 . S
H1719 C1742 0.950 . S
H1720 C1743 0.950 . S
H1721 C1745 0.950 . S
H1722 C1746 0.950 . S
H1723 C1747 0.951 . S
H1724 C1749 0.951 . S
H1725 C1751 0.950 . S
H1726 C1752 0.950 . S
H1727 C1754 0.950 . S
H1728 C1757 0.950 . S
H1729 C1758 0.950 . S
H1730 C1760 0.950 . S
H1731 C1761 0.950 . S
C1732 H1714 0.951 . S
C1732 C1733 1.366 . S
C1732 C1734 1.388 . S
C1733 C1732 1.366 . S
C1733 C1737 1.385 . S
C1734 H1715 0.951 . S
C1734 C1732 1.388 . S
C1734 C1735 1.366 . S
C1735 C1734 1.366 . S
C1735 C1736 1.414 . S
C1735 C1738 1.499 . S
C1736 H1716 0.950 . S
C1736 C1735 1.414 . S
C1736 C1737 1.374 . S
C1737 H1717 0.950 . S
C1737 C1733 1.385 . S
C1737 C1736 1.374 . S
C1738 C1735 1.499 . S
C1738 C1739 1.373 . S
C1738 C1740 1.389 . S
C1739 H1718 0.950 . S
C1739 C1738 1.373 . S
C1739 C1755 1.377 . S
C1740 C1738 1.389 . S
C1740 C1741 1.524 . S
C1740 C1754 1.377 . S
C1741 C1740 1.524 . S
C1741 C1742 1.397 . S
C1741 C1746 1.363 . S
C1742 H1719 0.950 . S
C1742 C1741 1.397 . S
C1742 C1743 1.334 . S
C1743 H1720 0.950 . S
C1743 C1742 1.334 . S
C1743 C1744 1.287 . S
C1744 C1743 1.287 . S
C1744 C1745 1.524 . S
C1744 H1763 0.913 . S
C1745 H1721 0.950 . S
C1745 C1744 1.524 . S
C1745 C1746 1.415 . S
C1746 H1722 0.950 . S
C1746 C1741 1.363 . S
C1746 C1745 1.415 . S
C1747 H1723 0.951 . S
C1747 C1748 1.366 . S
C1747 C1749 1.388 . S
C1748 C1747 1.366 . S
C1748 C1752 1.385 . S
C1749 H1724 0.951 . S
C1749 C1747 1.388 . S
C1749 C1750 1.366 . S
C1750 C1749 1.366 . S
C1750 C1751 1.414 . S
C1750 C1753 1.499 . S
C1751 H1725 0.950 . S
C1751 C1750 1.414 . S
C1751 C1752 1.374 . S
C1752 H1726 0.950 . S
C1752 C1748 1.385 . S
C1752 C1751 1.374 . S
C1753 C1750 1.499 . S
C1753 C1754 1.373 . S
C1753 C1755 1.389 . S
C1754 H1727 0.950 . S
C1754 C1740 1.377 . S
C1754 C1753 1.373 . S
C1755 C1739 1.377 . S
C1755 C1753 1.389 . S
C1755 C1756 1.524 . S
C1756 C1755 1.524 . S
C1756 C1757 1.397 . S
C1756 C1761 1.363 . S
C1757 H1728 0.950 . S
C1757 C1756 1.397 . S
C1757 C1758 1.334 . S
C1758 H1729 0.950 . S
C1758 C1757 1.334 . S
C1758 C1759 1.287 . S
C1759 C1758 1.287 . S
C1759 C1760 1.524 . S
C1759 H1762 0.999 . S
C1760 H1730 0.950 . S
C1760 C1759 1.524 . S
C1760 C1761 1.415 . S
C1761 H1731 0.950 . S
C1761 C1756 1.363 . S
C1761 C1760 1.415 . S
H1762 C1759 0.999 . S
H1763 C1744 0.913 . S
H1764 C1782 0.951 . S
H1765 C1784 0.951 . S
H1766 C1786 0.950 . S
H1767 C1787 0.950 . S
H1768 C1789 0.950 . S
H1769 C1792 0.950 . S
H1770 C1793 0.950 . S
H1771 C1795 0.950 . S
H1772 C1796 0.950 . S
H1773 C1797 0.951 . S
H1774 C1799 0.951 . S
H1775 C1801 0.950 . S
H1776 C1802 0.950 . S
H1777 C1804 0.950 . S
H1778 C1807 0.950 . S
H1779 C1808 0.950 . S
H1780 C1810 0.950 . S
H1781 C1811 0.950 . S
C1782 H1764 0.951 . S
C1782 C1783 1.366 . S
C1782 C1784 1.388 . S
C1783 C1782 1.366 . S
C1783 C1787 1.385 . S
C1784 H1765 0.951 . S
C1784 C1782 1.388 . S
C1784 C1785 1.366 . S
C1785 C1784 1.366 . S
C1785 C1786 1.414 . S
C1785 C1788 1.499 . S
C1786 H1766 0.950 . S
C1786 C1785 1.414 . S
C1786 C1787 1.374 . S
C1787 H1767 0.950 . S
C1787 C1783 1.385 . S
C1787 C1786 1.374 . S
C1788 C1785 1.499 . S
C1788 C1789 1.373 . S
C1788 C1790 1.389 . S
C1789 H1768 0.950 . S
C1789 C1788 1.373 . S
C1789 C1805 1.377 . S
C1790 C1788 1.389 . S
C1790 C1791 1.524 . S
C1790 C1804 1.377 . S
C1791 C1790 1.524 . S
C1791 C1792 1.397 . S
C1791 C1796 1.363 . S
C1792 H1769 0.950 . S
C1792 C1791 1.397 . S
C1792 C1793 1.334 . S
C1793 H1770 0.950 . S
C1793 C1792 1.334 . S
C1793 C1794 1.287 . S
C1794 C1793 1.287 . S
C1794 C1795 1.524 . S
C1794 H1813 0.913 . S
C1795 H1771 0.950 . S
C1795 C1794 1.524 . S
C1795 C1796 1.415 . S
C1796 H1772 0.950 . S
C1796 C1791 1.363 . S
C1796 C1795 1.415 . S
C1797 H1773 0.951 . S
C1797 C1798 1.366 . S
C1797 C1799 1.388 . S
C1798 C1797 1.366 . S
C1798 C1802 1.385 . S
C1799 H1774 0.951 . S
C1799 C1797 1.388 . S
C1799 C1800 1.366 . S
C1800 C1799 1.366 . S
C1800 C1801 1.414 . S
C1800 C1803 1.499 . S
C1801 H1775 0.950 . S
C1801 C1800 1.414 . S
C1801 C1802 1.374 . S
C1802 H1776 0.950 . S
C1802 C1798 1.385 . S
C1802 C1801 1.374 . S
C1803 C1800 1.499 . S
C1803 C1804 1.373 . S
C1803 C1805 1.389 . S
C1804 H1777 0.950 . S
C1804 C1790 1.377 . S
C1804 C1803 1.373 . S
C1805 C1789 1.377 . S
C1805 C1803 1.389 . S
C1805 C1806 1.524 . S
C1806 C1805 1.524 . S
C1806 C1807 1.397 . S
C1806 C1811 1.363 . S
C1807 H1778 0.950 . S
C1807 C1806 1.397 . S
C1807 C1808 1.334 . S
C1808 H1779 0.950 . S
C1808 C1807 1.334 . S
C1808 C1809 1.287 . S
C1809 C1808 1.287 . S
C1809 C1810 1.524 . S
C1809 H1812 0.999 . S
C1810 H1780 0.950 . S
C1810 C1809 1.524 . S
C1810 C1811 1.415 . S
C1811 H1781 0.950 . S
C1811 C1806 1.363 . S
C1811 C1810 1.415 . S
H1812 C1809 0.999 . S
H1813 C1794 0.913 . S
H1814 C1832 0.951 . S
H1815 C1834 0.951 . S
H1816 C1836 0.950 . S
H1817 C1837 0.950 . S
H1818 C1839 0.950 . S
H1819 C1842 0.950 . S
H1820 C1843 0.950 . S
H1821 C1845 0.950 . S
H1822 C1846 0.950 . S
H1823 C1847 0.951 . S
H1824 C1849 0.951 . S
H1825 C1851 0.950 . S
H1826 C1852 0.950 . S
H1827 C1854 0.950 . S
H1828 C1857 0.950 . S
H1829 C1858 0.950 . S
H1830 C1860 0.950 . S
H1831 C1861 0.950 . S
C1832 H1814 0.951 . S
C1832 C1833 1.366 . S
C1832 C1834 1.388 . S
C1833 C1832 1.366 . S
C1833 C1837 1.385 . S
C1834 H1815 0.951 . S
C1834 C1832 1.388 . S
C1834 C1835 1.366 . S
C1835 C1834 1.366 . S
C1835 C1836 1.414 . S
C1835 C1838 1.499 . S
C1836 H1816 0.950 . S
C1836 C1835 1.414 . S
C1836 C1837 1.374 . S
C1837 H1817 0.950 . S
C1837 C1833 1.385 . S
C1837 C1836 1.374 . S
C1838 C1835 1.499 . S
C1838 C1839 1.373 . S
C1838 C1840 1.389 . S
C1839 H1818 0.950 . S
C1839 C1838 1.373 . S
C1839 C1855 1.377 . S
C1840 C1838 1.389 . S
C1840 C1841 1.524 . S
C1840 C1854 1.377 . S
C1841 C1840 1.524 . S
C1841 C1842 1.397 . S
C1841 C1846 1.363 . S
C1842 H1819 0.950 . S
C1842 C1841 1.397 . S
C1842 C1843 1.334 . S
C1843 H1820 0.950 . S
C1843 C1842 1.334 . S
C1843 C1844 1.287 . S
C1844 C1843 1.287 . S
C1844 C1845 1.524 . S
C1844 H1863 0.913 . S
C1845 H1821 0.950 . S
C1845 C1844 1.524 . S
C1845 C1846 1.415 . S
C1846 H1822 0.950 . S
C1846 C1841 1.363 . S
C1846 C1845 1.415 . S
C1847 H1823 0.951 . S
C1847 C1848 1.366 . S
C1847 C1849 1.388 . S
C1848 C1847 1.366 . S
C1848 C1852 1.385 . S
C1849 H1824 0.951 . S
C1849 C1847 1.388 . S
C1849 C1850 1.366 . S
C1850 C1849 1.366 . S
C1850 C1851 1.414 . S
C1850 C1853 1.499 . S
C1851 H1825 0.950 . S
C1851 C1850 1.414 . S
C1851 C1852 1.374 . S
C1852 H1826 0.950 . S
C1852 C1848 1.385 . S
C1852 C1851 1.374 . S
C1853 C1850 1.499 . S
C1853 C1854 1.373 . S
C1853 C1855 1.389 . S
C1854 H1827 0.950 . S
C1854 C1840 1.377 . S
C1854 C1853 1.373 . S
C1855 C1839 1.377 . S
C1855 C1853 1.389 . S
C1855 C1856 1.524 . S
C1856 C1855 1.524 . S
C1856 C1857 1.397 . S
C1856 C1861 1.363 . S
C1857 H1828 0.950 . S
C1857 C1856 1.397 . S
C1857 C1858 1.334 . S
C1858 H1829 0.950 . S
C1858 C1857 1.334 . S
C1858 C1859 1.287 . S
C1859 C1858 1.287 . S
C1859 C1860 1.524 . S
C1859 H1862 0.999 . S
C1860 H1830 0.950 . S
C1860 C1859 1.524 . S
C1860 C1861 1.415 . S
C1861 H1831 0.950 . S
C1861 C1856 1.363 . S
C1861 C1860 1.415 . S
H1862 C1859 0.999 . S
H1863 C1844 0.913 . S
H1864 C1882 0.951 . S
H1865 C1884 0.951 . S
H1866 C1886 0.950 . S
H1867 C1887 0.950 . S
H1868 C1889 0.950 . S
H1869 C1892 0.950 . S
H1870 C1893 0.950 . S
H1871 C1895 0.950 . S
H1872 C1896 0.950 . S
H1873 C1897 0.951 . S
H1874 C1899 0.951 . S
H1875 C1901 0.950 . S
H1876 C1902 0.950 . S
H1877 C1904 0.950 . S
H1878 C1907 0.950 . S
H1879 C1908 0.950 . S
H1880 C1910 0.950 . S
H1881 C1911 0.950 . S
C1882 H1864 0.951 . S
C1882 C1883 1.366 . S
C1882 C1884 1.388 . S
C1883 C1882 1.366 . S
C1883 C1887 1.385 . S
C1884 H1865 0.951 . S
C1884 C1882 1.388 . S
C1884 C1885 1.366 . S
C1885 C1884 1.366 . S
C1885 C1886 1.414 . S
C1885 C1888 1.499 . S
C1886 H1866 0.950 . S
C1886 C1885 1.414 . S
C1886 C1887 1.374 . S
C1887 H1867 0.950 . S
C1887 C1883 1.385 . S
C1887 C1886 1.374 . S
C1888 C1885 1.499 . S
C1888 C1889 1.373 . S
C1888 C1890 1.389 . S
C1889 H1868 0.950 . S
C1889 C1888 1.373 . S
C1889 C1905 1.377 . S
C1890 C1888 1.389 . S
C1890 C1891 1.524 . S
C1890 C1904 1.377 . S
C1891 C1890 1.524 . S
C1891 C1892 1.397 . S
C1891 C1896 1.363 . S
C1892 H1869 0.950 . S
C1892 C1891 1.397 . S
C1892 C1893 1.334 . S
C1893 H1870 0.950 . S
C1893 C1892 1.334 . S
C1893 C1894 1.287 . S
C1894 C1893 1.287 . S
C1894 C1895 1.524 . S
C1894 H1913 0.913 . S
C1895 H1871 0.950 . S
C1895 C1894 1.524 . S
C1895 C1896 1.415 . S
C1896 H1872 0.950 . S
C1896 C1891 1.363 . S
C1896 C1895 1.415 . S
C1897 H1873 0.951 . S
C1897 C1898 1.366 . S
C1897 C1899 1.388 . S
C1898 C1897 1.366 . S
C1898 C1902 1.385 . S
C1899 H1874 0.951 . S
C1899 C1897 1.388 . S
C1899 C1900 1.366 . S
C1900 C1899 1.366 . S
C1900 C1901 1.414 . S
C1900 C1903 1.499 . S
C1901 H1875 0.950 . S
C1901 C1900 1.414 . S
C1901 C1902 1.374 . S
C1902 H1876 0.950 . S
C1902 C1898 1.385 . S
C1902 C1901 1.374 . S
C1903 C1900 1.499 . S
C1903 C1904 1.373 . S
C1903 C1905 1.389 . S
C1904 H1877 0.950 . S
C1904 C1890 1.377 . S
C1904 C1903 1.373 . S
C1905 C1889 1.377 . S
C1905 C1903 1.389 . S
C1905 C1906 1.524 . S
C1906 C1905 1.524 . S
C1906 C1907 1.397 . S
C1906 C1911 1.363 . S
C1907 H1878 0.950 . S
C1907 C1906 1.397 . S
C1907 C1908 1.334 . S
C1908 H1879 0.950 . S
C1908 C1907 1.334 . S
C1908 C1909 1.287 . S
C1909 C1908 1.287 . S
C1909 C1910 1.524 . S
C1909 H1912 0.999 . S
C1910 H1880 0.950 . S
C1910 C1909 1.524 . S
C1910 C1911 1.415 . S
C1911 H1881 0.950 . S
C1911 C1906 1.363 . S
C1911 C1910 1.415 . S
H1912 C1909 0.999 . S
H1913 C1894 0.913 . S
H1914 C1932 0.951 . S
H1915 C1934 0.951 . S
H1916 C1936 0.950 . S
H1917 C1937 0.950 . S
H1918 C1939 0.950 . S
H1919 C1942 0.950 . S
H1920 C1943 0.950 . S
H1921 C1945 0.950 . S
H1922 C1946 0.950 . S
H1923 C1947 0.951 . S
H1924 C1949 0.951 . S
H1925 C1951 0.950 . S
H1926 C1952 0.950 . S
H1927 C1954 0.950 . S
H1928 C1957 0.950 . S
H1929 C1958 0.950 . S
H1930 C1960 0.950 . S
H1931 C1961 0.950 . S
C1932 H1914 0.951 . S
C1932 C1933 1.366 . S
C1932 C1934 1.388 . S
C1933 C1932 1.366 . S
C1933 C1937 1.385 . S
C1934 H1915 0.951 . S
C1934 C1932 1.388 . S
C1934 C1935 1.366 . S
C1935 C1934 1.366 . S
C1935 C1936 1.414 . S
C1935 C1938 1.499 . S
C1936 H1916 0.950 . S
C1936 C1935 1.414 . S
C1936 C1937 1.374 . S
C1937 H1917 0.950 . S
C1937 C1933 1.385 . S
C1937 C1936 1.374 . S
C1938 C1935 1.499 . S
C1938 C1939 1.373 . S
C1938 C1940 1.389 . S
C1939 H1918 0.950 . S
C1939 C1938 1.373 . S
C1939 C1955 1.377 . S
C1940 C1938 1.389 . S
C1940 C1941 1.524 . S
C1940 C1954 1.377 . S
C1941 C1940 1.524 . S
C1941 C1942 1.397 . S
C1941 C1946 1.363 . S
C1942 H1919 0.950 . S
C1942 C1941 1.397 . S
C1942 C1943 1.334 . S
C1943 H1920 0.950 . S
C1943 C1942 1.334 . S
C1943 C1944 1.287 . S
C1944 C1943 1.287 . S
C1944 C1945 1.524 . S
C1944 H1963 0.913 . S
C1945 H1921 0.950 . S
C1945 C1944 1.524 . S
C1945 C1946 1.415 . S
C1946 H1922 0.950 . S
C1946 C1941 1.363 . S
C1946 C1945 1.415 . S
C1947 H1923 0.951 . S
C1947 C1948 1.366 . S
C1947 C1949 1.388 . S
C1948 C1947 1.366 . S
C1948 C1952 1.385 . S
C1949 H1924 0.951 . S
C1949 C1947 1.388 . S
C1949 C1950 1.366 . S
C1950 C1949 1.366 . S
C1950 C1951 1.414 . S
C1950 C1953 1.499 . S
C1951 H1925 0.950 . S
C1951 C1950 1.414 . S
C1951 C1952 1.374 . S
C1952 H1926 0.950 . S
C1952 C1948 1.385 . S
C1952 C1951 1.374 . S
C1953 C1950 1.499 . S
C1953 C1954 1.373 . S
C1953 C1955 1.389 . S
C1954 H1927 0.950 . S
C1954 C1940 1.377 . S
C1954 C1953 1.373 . S
C1955 C1939 1.377 . S
C1955 C1953 1.389 . S
C1955 C1956 1.524 . S
C1956 C1955 1.524 . S
C1956 C1957 1.397 . S
C1956 C1961 1.363 . S
C1957 H1928 0.950 . S
C1957 C1956 1.397 . S
C1957 C1958 1.334 . S
C1958 H1929 0.950 . S
C1958 C1957 1.334 . S
C1958 C1959 1.287 . S
C1959 C1958 1.287 . S
C1959 C1960 1.524 . S
C1959 H1962 0.999 . S
C1960 H1930 0.950 . S
C1960 C1959 1.524 . S
C1960 C1961 1.415 . S
C1961 H1931 0.950 . S
C1961 C1956 1.363 . S
C1961 C1960 1.415 . S
H1962 C1959 0.999 . S
H1963 C1944 0.913 . S
H1964 C1982 0.951 . S
H1965 C1984 0.951 . S
H1966 C1986 0.950 . S
H1967 C1987 0.950 . S
H1968 C1989 0.950 . S
H1969 C1992 0.950 . S
H1970 C1993 0.950 . S
H1971 C1995 0.950 . S
H1972 C1996 0.950 . S
H1973 C1997 0.951 . S
H1974 C1999 0.951 . S
H1975 C2001 0.950 . S
H1976 C2002 0.950 . S
H1977 C2004 0.950 . S
H1978 C2007 0.950 . S
H1979 C2008 0.950 . S
H1980 C2010 0.950 . S
H1981 C2011 0.950 . S
C1982 H1964 0.951 . S
C1982 C1983 1.366 . S
C1982 C1984 1.388 . S
C1983 C1982 1.366 . S
C1983 C1987 1.385 . S
C1984 H1965 0.951 . S
C1984 C1982 1.388 . S
C1984 C1985 1.366 . S
C1985 C1984 1.366 . S
C1985 C1986 1.414 . S
C1985 C1988 1.499 . S
C1986 H1966 0.950 . S
C1986 C1985 1.414 . S
C1986 C1987 1.374 . S
C1987 H1967 0.950 . S
C1987 C1983 1.385 . S
C1987 C1986 1.374 . S
C1988 C1985 1.499 . S
C1988 C1989 1.373 . S
C1988 C1990 1.389 . S
C1989 H1968 0.950 . S
C1989 C1988 1.373 . S
C1989 C2005 1.377 . S
C1990 C1988 1.389 . S
C1990 C1991 1.524 . S
C1990 C2004 1.377 . S
C1991 C1990 1.524 . S
C1991 C1992 1.397 . S
C1991 C1996 1.363 . S
C1992 H1969 0.950 . S
C1992 C1991 1.397 . S
C1992 C1993 1.334 . S
C1993 H1970 0.950 . S
C1993 C1992 1.334 . S
C1993 C1994 1.287 . S
C1994 C1993 1.287 . S
C1994 C1995 1.524 . S
C1994 H2013 0.913 . S
C1995 H1971 0.950 . S
C1995 C1994 1.524 . S
C1995 C1996 1.415 . S
C1996 H1972 0.950 . S
C1996 C1991 1.363 . S
C1996 C1995 1.415 . S
C1997 H1973 0.951 . S
C1997 C1998 1.366 . S
C1997 C1999 1.388 . S
C1998 C1997 1.366 . S
C1998 C2002 1.385 . S
C1999 H1974 0.951 . S
C1999 C1997 1.388 . S
C1999 C2000 1.366 . S
C2000 C1999 1.366 . S
C2000 C2001 1.414 . S
C2000 C2003 1.499 . S
C2001 H1975 0.950 . S
C2001 C2000 1.414 . S
C2001 C2002 1.374 . S
C2002 H1976 0.950 . S
C2002 C1998 1.385 . S
C2002 C2001 1.374 . S
C2003 C2000 1.499 . S
C2003 C2004 1.373 . S
C2003 C2005 1.389 . S
C2004 H1977 0.950 . S
C2004 C1990 1.377 . S
C2004 C2003 1.373 . S
C2005 C1989 1.377 . S
C2005 C2003 1.389 . S
C2005 C2006 1.524 . S
C2006 C2005 1.524 . S
C2006 C2007 1.397 . S
C2006 C2011 1.363 . S
C2007 H1978 0.950 . S
C2007 C2006 1.397 . S
C2007 C2008 1.334 . S
C2008 H1979 0.950 . S
C2008 C2007 1.334 . S
C2008 C2009 1.287 . S
C2009 C2008 1.287 . S
C2009 C2010 1.524 . S
C2009 H2012 0.999 . S
C2010 H1980 0.950 . S
C2010 C2009 1.524 . S
C2010 C2011 1.415 . S
C2011 H1981 0.950 . S
C2011 C2006 1.363 . S
C2011 C2010 1.415 . S
H2012 C2009 0.999 . S
H2013 C1994 0.913 . S
H2014 C2032 0.951 . S
H2015 C2034 0.951 . S
H2016 C2036 0.950 . S
H2017 C2037 0.950 . S
H2018 C2039 0.950 . S
H2019 C2042 0.950 . S
H2020 C2043 0.950 . S
H2021 C2045 0.950 . S
H2022 C2046 0.950 . S
H2023 C2047 0.951 . S
H2024 C2049 0.951 . S
H2025 C2051 0.950 . S
H2026 C2052 0.950 . S
H2027 C2054 0.950 . S
H2028 C2057 0.950 . S
H2029 C2058 0.950 . S
H2030 C2060 0.950 . S
H2031 C2061 0.950 . S
C2032 H2014 0.951 . S
C2032 C2033 1.366 . S
C2032 C2034 1.388 . S
C2033 C2032 1.366 . S
C2033 C2037 1.385 . S
C2034 H2015 0.951 . S
C2034 C2032 1.388 . S
C2034 C2035 1.366 . S
C2035 C2034 1.366 . S
C2035 C2036 1.414 . S
C2035 C2038 1.499 . S
C2036 H2016 0.950 . S
C2036 C2035 1.414 . S
C2036 C2037 1.374 . S
C2037 H2017 0.950 . S
C2037 C2033 1.385 . S
C2037 C2036 1.374 . S
C2038 C2035 1.499 . S
C2038 C2039 1.373 . S
C2038 C2040 1.389 . S
C2039 H2018 0.950 . S
C2039 C2038 1.373 . S
C2039 C2055 1.377 . S
C2040 C2038 1.389 . S
C2040 C2041 1.524 . S
C2040 C2054 1.377 . S
C2041 C2040 1.524 . S
C2041 C2042 1.397 . S
C2041 C2046 1.363 . S
C2042 H2019 0.950 . S
C2042 C2041 1.397 . S
C2042 C2043 1.334 . S
C2043 H2020 0.950 . S
C2043 C2042 1.334 . S
C2043 C2044 1.287 . S
C2044 C2043 1.287 . S
C2044 C2045 1.524 . S
C2044 H2063 0.913 . S
C2045 H2021 0.950 . S
C2045 C2044 1.524 . S
C2045 C2046 1.415 . S
C2046 H2022 0.950 . S
C2046 C2041 1.363 . S
C2046 C2045 1.415 . S
C2047 H2023 0.951 . S
C2047 C2048 1.366 . S
C2047 C2049 1.388 . S
C2048 C2047 1.366 . S
C2048 C2052 1.385 . S
C2049 H2024 0.951 . S
C2049 C2047 1.388 . S
C2049 C2050 1.366 . S
C2050 C2049 1.366 . S
C2050 C2051 1.414 . S
C2050 C2053 1.499 . S
C2051 H2025 0.950 . S
C2051 C2050 1.414 . S
C2051 C2052 1.374 . S
C2052 H2026 0.950 . S
C2052 C2048 1.385 . S
C2052 C2051 1.374 . S
C2053 C2050 1.499 . S
C2053 C2054 1.373 . S
C2053 C2055 1.389 . S
C2054 H2027 0.950 . S
C2054 C2040 1.377 . S
C2054 C2053 1.373 . S
C2055 C2039 1.377 . S
C2055 C2053 1.389 . S
C2055 C2056 1.524 . S
C2056 C2055 1.524 . S
C2056 C2057 1.397 . S
C2056 C2061 1.363 . S
C2057 H2028 0.950 . S
C2057 C2056 1.397 . S
C2057 C2058 1.334 . S
C2058 H2029 0.950 . S
C2058 C2057 1.334 . S
C2058 C2059 1.287 . S
C2059 C2058 1.287 . S
C2059 C2060 1.524 . S
C2059 H2062 0.999 . S
C2060 H2030 0.950 . S
C2060 C2059 1.524 . S
C2060 C2061 1.415 . S
C2061 H2031 0.950 . S
C2061 C2056 1.363 . S
C2061 C2060 1.415 . S
H2062 C2059 0.999 . S
H2063 C2044 0.913 . S
H2064 C2082 0.951 . S
H2065 C2084 0.951 . S
H2066 C2086 0.950 . S
H2067 C2087 0.950 . S
H2068 C2089 0.950 . S
H2069 C2092 0.950 . S
H2070 C2093 0.950 . S
H2071 C2095 0.950 . S
H2072 C2096 0.950 . S
H2073 C2097 0.951 . S
H2074 C2099 0.951 . S
H2075 C2101 0.950 . S
H2076 C2102 0.950 . S
H2077 C2104 0.950 . S
H2078 C2107 0.950 . S
H2079 C2108 0.950 . S
H2080 C2110 0.950 . S
H2081 C2111 0.950 . S
C2082 H2064 0.951 . S
C2082 C2083 1.366 . S
C2082 C2084 1.388 . S
C2083 C2082 1.366 . S
C2083 C2087 1.385 . S
C2084 H2065 0.951 . S
C2084 C2082 1.388 . S
C2084 C2085 1.366 . S
C2085 C2084 1.366 . S
C2085 C2086 1.414 . S
C2085 C2088 1.499 . S
C2086 H2066 0.950 . S
C2086 C2085 1.414 . S
C2086 C2087 1.374 . S
C2087 H2067 0.950 . S
C2087 C2083 1.385 . S
C2087 C2086 1.374 . S
C2088 C2085 1.499 . S
C2088 C2089 1.373 . S
C2088 C2090 1.389 . S
C2089 H2068 0.950 . S
C2089 C2088 1.373 . S
C2089 C2105 1.377 . S
C2090 C2088 1.389 . S
C2090 C2091 1.524 . S
C2090 C2104 1.377 . S
C2091 C2090 1.524 . S
C2091 C2092 1.397 . S
C2091 C2096 1.363 . S
C2092 H2069 0.950 . S
C2092 C2091 1.397 . S
C2092 C2093 1.334 . S
C2093 H2070 0.950 . S
C2093 C2092 1.334 . S
C2093 C2094 1.287 . S
C2094 C2093 1.287 . S
C2094 C2095 1.524 . S
C2094 H2113 0.913 . S
C2095 H2071 0.950 . S
C2095 C2094 1.524 . S
C2095 C2096 1.415 . S
C2096 H2072 0.950 . S
C2096 C2091 1.363 . S
C2096 C2095 1.415 . S
C2097 H2073 0.951 . S
C2097 C2098 1.366 . S
C2097 C2099 1.388 . S
C2098 C2097 1.366 . S
C2098 C2102 1.385 . S
C2099 H2074 0.951 . S
C2099 C2097 1.388 . S
C2099 C2100 1.366 . S
C2100 C2099 1.366 . S
C2100 C2101 1.414 . S
C2100 C2103 1.499 . S
C2101 H2075 0.950 . S
C2101 C2100 1.414 . S
C2101 C2102 1.374 . S
C2102 H2076 0.950 . S
C2102 C2098 1.385 . S
C2102 C2101 1.374 . S
C2103 C2100 1.499 . S
C2103 C2104 1.373 . S
C2103 C2105 1.389 . S
C2104 H2077 0.950 . S
C2104 C2090 1.377 . S
C2104 C2103 1.373 . S
C2105 C2089 1.377 . S
C2105 C2103 1.389 . S
C2105 C2106 1.524 . S
C2106 C2105 1.524 . S
C2106 C2107 1.397 . S
C2106 C2111 1.363 . S
C2107 H2078 0.950 . S
C2107 C2106 1.397 . S
C2107 C2108 1.334 . S
C2108 H2079 0.950 . S
C2108 C2107 1.334 . S
C2108 C2109 1.287 . S
C2109 C2108 1.287 . S
C2109 C2110 1.524 . S
C2109 H2112 0.999 . S
C2110 H2080 0.950 . S
C2110 C2109 1.524 . S
C2110 C2111 1.415 . S
C2111 H2081 0.950 . S
C2111 C2106 1.363 . S
C2111 C2110 1.415 . S
H2112 C2109 0.999 . S
H2113 C2094 0.913 . S
H2114 C2132 0.951 . S
H2115 C2134 0.951 . S
H2116 C2136 0.950 . S
H2117 C2137 0.950 . S
H2118 C2139 0.950 . S
H2119 C2142 0.950 . S
H2120 C2143 0.950 . S
H2121 C2145 0.950 . S
H2122 C2146 0.950 . S
H2123 C2147 0.951 . S
H2124 C2149 0.951 . S
H2125 C2151 0.950 . S
H2126 C2152 0.950 . S
H2127 C2154 0.950 . S
H2128 C2157 0.950 . S
H2129 C2158 0.950 . S
H2130 C2160 0.950 . S
H2131 C2161 0.950 . S
C2132 H2114 0.951 . S
C2132 C2133 1.366 . S
C2132 C2134 1.388 . S
C2133 C2132 1.366 . S
C2133 C2137 1.385 . S
C2134 H2115 0.951 . S
C2134 C2132 1.388 . S
C2134 C2135 1.366 . S
C2135 C2134 1.366 . S
C2135 C2136 1.414 . S
C2135 C2138 1.499 . S
C2136 H2116 0.950 . S
C2136 C2135 1.414 . S
C2136 C2137 1.374 . S
C2137 H2117 0.950 . S
C2137 C2133 1.385 . S
C2137 C2136 1.374 . S
C2138 C2135 1.499 . S
C2138 C2139 1.373 . S
C2138 C2140 1.389 . S
C2139 H2118 0.950 . S
C2139 C2138 1.373 . S
C2139 C2155 1.377 . S
C2140 C2138 1.389 . S
C2140 C2141 1.524 . S
C2140 C2154 1.377 . S
C2141 C2140 1.524 . S
C2141 C2142 1.397 . S
C2141 C2146 1.363 . S
C2142 H2119 0.950 . S
C2142 C2141 1.397 . S
C2142 C2143 1.334 . S
C2143 H2120 0.950 . S
C2143 C2142 1.334 . S
C2143 C2144 1.287 . S
C2144 C2143 1.287 . S
C2144 C2145 1.524 . S
C2144 H2163 0.913 . S
C2145 H2121 0.950 . S
C2145 C2144 1.524 . S
C2145 C2146 1.415 . S
C2146 H2122 0.950 . S
C2146 C2141 1.363 . S
C2146 C2145 1.415 . S
C2147 H2123 0.951 . S
C2147 C2148 1.366 . S
C2147 C2149 1.388 . S
C2148 C2147 1.366 . S
C2148 C2152 1.385 . S
C2149 H2124 0.951 . S
C2149 C2147 1.388 . S
C2149 C2150 1.366 . S
C2150 C2149 1.366 . S
C2150 C2151 1.414 . S
C2150 C2153 1.499 . S
C2151 H2125 0.950 . S
C2151 C2150 1.414 . S
C2151 C2152 1.374 . S
C2152 H2126 0.950 . S
C2152 C2148 1.385 . S
C2152 C2151 1.374 . S
C2153 C2150 1.499 . S
C2153 C2154 1.373 . S
C2153 C2155 1.389 . S
C2154 H2127 0.950 . S
C2154 C2140 1.377 . S
C2154 C2153 1.373 . S
C2155 C2139 1.377 . S
C2155 C2153 1.389 . S
C2155 C2156 1.524 . S
C2156 C2155 1.524 . S
C2156 C2157 1.397 . S
C2156 C2161 1.363 . S
C2157 H2128 0.950 . S
C2157 C2156 1.397 . S
C2157 C2158 1.334 . S
C2158 H2129 0.950 . S
C2158 C2157 1.334 . S
C2158 C2159 1.287 . S
C2159 C2158 1.287 . S
C2159 C2160 1.524 . S
C2159 H2162 0.999 . S
C2160 H2130 0.950 . S
C2160 C2159 1.524 . S
C2160 C2161 1.415 . S
C2161 H2131 0.950 . S
C2161 C2156 1.363 . S
C2161 C2160 1.415 . S
H2162 C2159 0.999 . S
H2163 C2144 0.913 . S
H2164 C2182 0.951 . S
H2165 C2184 0.951 . S
H2166 C2186 0.950 . S
H2167 C2187 0.950 . S
H2168 C2189 0.950 . S
H2169 C2192 0.950 . S
H2170 C2193 0.950 . S
H2171 C2195 0.950 . S
H2172 C2196 0.950 . S
H2173 C2197 0.951 . S
H2174 C2199 0.951 . S
H2175 C2201 0.950 . S
H2176 C2202 0.950 . S
H2177 C2204 0.950 . S
H2178 C2207 0.950 . S
H2179 C2208 0.950 . S
H2180 C2210 0.950 . S
H2181 C2211 0.950 . S
C2182 H2164 0.951 . S
C2182 C2183 1.366 . S
C2182 C2184 1.388 . S
C2183 C2182 1.366 . S
C2183 C2187 1.385 . S
C2184 H2165 0.951 . S
C2184 C2182 1.388 . S
C2184 C2185 1.366 . S
C2185 C2184 1.366 . S
C2185 C2186 1.414 . S
C2185 C2188 1.499 . S
C2186 H2166 0.950 . S
C2186 C2185 1.414 . S
C2186 C2187 1.374 . S
C2187 H2167 0.950 . S
C2187 C2183 1.385 . S
C2187 C2186 1.374 . S
C2188 C2185 1.499 . S
C2188 C2189 1.373 . S
C2188 C2190 1.389 . S
C2189 H2168 0.950 . S
C2189 C2188 1.373 . S
C2189 C2205 1.377 . S
C2190 C2188 1.389 . S
C2190 C2191 1.524 . S
C2190 C2204 1.377 . S
C2191 C2190 1.524 . S
C2191 C2192 1.397 . S
C2191 C2196 1.363 . S
C2192 H2169 0.950 . S
C2192 C2191 1.397 . S
C2192 C2193 1.334 . S
C2193 H2170 0.950 . S
C2193 C2192 1.334 . S
C2193 C2194 1.287 . S
C2194 C2193 1.287 . S
C2194 C2195 1.524 . S
C2194 H2213 0.913 . S
C2195 H2171 0.950 . S
C2195 C2194 1.524 . S
C2195 C2196 1.415 . S
C2196 H2172 0.950 . S
C2196 C2191 1.363 . S
C2196 C2195 1.415 . S
C2197 H2173 0.951 . S
C2197 C2198 1.366 . S
C2197 C2199 1.388 . S
C2198 C2197 1.366 . S
C2198 C2202 1.385 . S
C2199 H2174 0.951 . S
C2199 C2197 1.388 . S
C2199 C2200 1.366 . S
C2200 C2199 1.366 . S
C2200 C2201 1.414 . S
C2200 C2203 1.499 . S
C2201 H2175 0.950 . S
C2201 C2200 1.414 . S
C2201 C2202 1.374 . S
C2202 H2176 0.950 . S
C2202 C2198 1.385 . S
C2202 C2201 1.374 . S
C2203 C2200 1.499 . S
C2203 C2204 1.373 . S
C2203 C2205 1.389 . S
C2204 H2177 0.950 . S
C2204 C2190 1.377 . S
C2204 C2203 1.373 . S
C2205 C2189 1.377 . S
C2205 C2203 1.389 . S
C2205 C2206 1.524 . S
C2206 C2205 1.524 . S
C2206 C2207 1.397 . S
C2206 C2211 1.363 . S
C2207 H2178 0.950 . S
C2207 C2206 1.397 . S
C2207 C2208 1.334 . S
C2208 H2179 0.950 . S
C2208 C2207 1.334 . S
C2208 C2209 1.287 . S
C2209 C2208 1.287 . S
C2209 C2210 1.524 . S
C2209 H2212 0.999 . S
C2210 H2180 0.950 . S
C2210 C2209 1.524 . S
C2210 C2211 1.415 . S
C2211 H2181 0.950 . S
C2211 C2206 1.363 . S
C2211 C2210 1.415 . S
H2212 C2209 0.999 . S
H2213 C2194 0.913 . S
H2214 C2232 0.951 . S
H2215 C2234 0.951 . S
H2216 C2236 0.950 . S
H2217 C2237 0.950 . S
H2218 C2239 0.950 . S
H2219 C2242 0.950 . S
H2220 C2243 0.950 . S
H2221 C2245 0.950 . S
H2222 C2246 0.950 . S
H2223 C2247 0.951 . S
H2224 C2249 0.951 . S
H2225 C2251 0.950 . S
H2226 C2252 0.950 . S
H2227 C2254 0.950 . S
H2228 C2257 0.950 . S
H2229 C2258 0.950 . S
H2230 C2260 0.950 1_554 S
H2231 C2261 0.950 . S
C2232 H2214 0.951 . S
C2232 C2233 1.366 . S
C2232 C2234 1.388 . S
C2233 C2232 1.366 . S
C2233 C2237 1.385 . S
C2234 H2215 0.951 . S
C2234 C2232 1.388 . S
C2234 C2235 1.366 . S
C2235 C2234 1.366 . S
C2235 C2236 1.414 . S
C2235 C2238 1.499 . S
C2236 H2216 0.950 . S
C2236 C2235 1.414 . S
C2236 C2237 1.374 . S
C2237 H2217 0.950 . S
C2237 C2233 1.385 . S
C2237 C2236 1.374 . S
C2238 C2235 1.499 . S
C2238 C2239 1.373 . S
C2238 C2240 1.389 . S
C2239 H2218 0.950 . S
C2239 C2238 1.373 . S
C2239 C2255 1.377 . S
C2240 C2238 1.389 . S
C2240 C2241 1.524 . S
C2240 C2254 1.377 . S
C2241 C2240 1.524 . S
C2241 C2242 1.397 . S
C2241 C2246 1.363 . S
C2242 H2219 0.950 . S
C2242 C2241 1.397 . S
C2242 C2243 1.334 . S
C2243 H2220 0.950 . S
C2243 C2242 1.334 . S
C2243 C2244 1.287 . S
C2244 C2243 1.287 . S
C2244 C2245 1.524 . S
C2244 H2263 0.913 . S
C2245 H2221 0.950 . S
C2245 C2244 1.524 . S
C2245 C2246 1.415 . S
C2246 H2222 0.950 . S
C2246 C2241 1.363 . S
C2246 C2245 1.415 . S
C2247 H2223 0.951 . S
C2247 C2248 1.366 . S
C2247 C2249 1.388 . S
C2248 C2247 1.366 . S
C2248 C2252 1.385 . S
C2249 H2224 0.951 . S
C2249 C2247 1.388 . S
C2249 C2250 1.366 . S
C2250 C2249 1.366 . S
C2250 C2251 1.414 . S
C2250 C2253 1.499 . S
C2251 H2225 0.950 . S
C2251 C2250 1.414 . S
C2251 C2252 1.374 . S
C2252 H2226 0.950 . S
C2252 C2248 1.385 . S
C2252 C2251 1.374 . S
C2253 C2250 1.499 . S
C2253 C2254 1.373 . S
C2253 C2255 1.389 . S
C2254 H2227 0.950 . S
C2254 C2240 1.377 . S
C2254 C2253 1.373 . S
C2255 C2239 1.377 . S
C2255 C2253 1.389 . S
C2255 C2256 1.524 . S
C2256 C2255 1.524 . S
C2256 C2257 1.397 . S
C2256 C2261 1.363 . S
C2257 H2228 0.950 . S
C2257 C2256 1.397 . S
C2257 C2258 1.334 . S
C2258 H2229 0.950 . S
C2258 C2257 1.334 . S
C2258 C2259 1.287 1_556 S
C2259 C2258 1.287 1_554 S
C2259 C2260 1.524 1_554 S
C2259 H2262 0.999 . S
C2260 H2230 0.950 1_556 S
C2260 C2259 1.524 1_556 S
C2260 C2261 1.415 . S
C2261 H2231 0.950 . S
C2261 C2256 1.363 . S
C2261 C2260 1.415 . S
H2262 C2259 0.999 . S
H2263 C2244 0.913 . S
H2264 C2282 0.951 . S
H2265 C2284 0.951 . S
H2266 C2286 0.950 . S
H2267 C2287 0.950 . S
H2268 C2289 0.950 . S
H2269 C2292 0.950 . S
H2270 C2293 0.950 . S
H2271 C2295 0.950 . S
H2272 C2296 0.950 . S
H2273 C2297 0.951 . S
H2274 C2299 0.951 . S
H2275 C2301 0.950 . S
H2276 C2302 0.950 . S
H2277 C2304 0.950 . S
H2278 C2307 0.950 . S
H2279 C2308 0.950 . S
H2280 C2310 0.950 . S
H2281 C2311 0.950 . S
C2282 H2264 0.951 . S
C2282 C2283 1.366 . S
C2282 C2284 1.388 . S
C2283 C2282 1.366 . S
C2283 C2287 1.385 . S
C2284 H2265 0.951 . S
C2284 C2282 1.388 . S
C2284 C2285 1.366 . S
C2285 C2284 1.366 . S
C2285 C2286 1.414 . S
C2285 C2288 1.499 . S
C2286 H2266 0.950 . S
C2286 C2285 1.414 . S
C2286 C2287 1.374 . S
C2287 H2267 0.950 . S
C2287 C2283 1.385 . S
C2287 C2286 1.374 . S
C2288 C2285 1.499 . S
C2288 C2289 1.373 . S
C2288 C2290 1.389 . S
C2289 H2268 0.950 . S
C2289 C2288 1.373 . S
C2289 C2305 1.377 . S
C2290 C2288 1.389 . S
C2290 C2291 1.524 . S
C2290 C2304 1.377 . S
C2291 C2290 1.524 . S
C2291 C2292 1.397 . S
C2291 C2296 1.363 . S
C2292 H2269 0.950 . S
C2292 C2291 1.397 . S
C2292 C2293 1.334 . S
C2293 H2270 0.950 . S
C2293 C2292 1.334 . S
C2293 C2294 1.287 . S
C2294 C2293 1.287 . S
C2294 C2295 1.524 . S
C2294 H2313 0.913 . S
C2295 H2271 0.950 . S
C2295 C2294 1.524 . S
C2295 C2296 1.415 . S
C2296 H2272 0.950 . S
C2296 C2291 1.363 . S
C2296 C2295 1.415 . S
C2297 H2273 0.951 . S
C2297 C2298 1.366 . S
C2297 C2299 1.388 . S
C2298 C2297 1.366 . S
C2298 C2302 1.385 . S
C2299 H2274 0.951 . S
C2299 C2297 1.388 . S
C2299 C2300 1.366 . S
C2300 C2299 1.366 . S
C2300 C2301 1.414 . S
C2300 C2303 1.499 . S
C2301 H2275 0.950 . S
C2301 C2300 1.414 . S
C2301 C2302 1.374 . S
C2302 H2276 0.950 . S
C2302 C2298 1.385 . S
C2302 C2301 1.374 . S
C2303 C2300 1.499 . S
C2303 C2304 1.373 . S
C2303 C2305 1.389 . S
C2304 H2277 0.950 . S
C2304 C2290 1.377 . S
C2304 C2303 1.373 . S
C2305 C2289 1.377 . S
C2305 C2303 1.389 . S
C2305 C2306 1.524 . S
C2306 C2305 1.524 . S
C2306 C2307 1.397 . S
C2306 C2311 1.363 . S
C2307 H2278 0.950 . S
C2307 C2306 1.397 . S
C2307 C2308 1.334 . S
C2308 H2279 0.950 . S
C2308 C2307 1.334 . S
C2308 C2309 1.287 . S
C2309 C2308 1.287 . S
C2309 C2310 1.524 . S
C2309 H2312 0.999 . S
C2310 H2280 0.950 . S
C2310 C2309 1.524 . S
C2310 C2311 1.415 . S
C2311 H2281 0.950 . S
C2311 C2306 1.363 . S
C2311 C2310 1.415 . S
H2312 C2309 0.999 . S
H2313 C2294 0.913 . S
H2314 C2332 0.951 . S
H2315 C2334 0.951 . S
H2316 C2336 0.950 . S
H2317 C2337 0.950 . S
H2318 C2339 0.950 . S
H2319 C2342 0.950 . S
H2320 C2343 0.950 . S
H2321 C2345 0.950 . S
H2322 C2346 0.950 . S
H2323 C2347 0.951 . S
H2324 C2349 0.951 . S
H2325 C2351 0.950 . S
H2326 C2352 0.950 . S
H2327 C2354 0.950 . S
H2328 C2357 0.950 . S
H2329 C2358 0.950 . S
H2330 C2360 0.950 . S
H2331 C2361 0.950 . S
C2332 H2314 0.951 . S
C2332 C2333 1.366 . S
C2332 C2334 1.388 . S
C2333 C2332 1.366 . S
C2333 C2337 1.385 . S
C2334 H2315 0.951 . S
C2334 C2332 1.388 . S
C2334 C2335 1.366 . S
C2335 C2334 1.366 . S
C2335 C2336 1.414 . S
C2335 C2338 1.499 . S
C2336 H2316 0.950 . S
C2336 C2335 1.414 . S
C2336 C2337 1.374 . S
C2337 H2317 0.950 . S
C2337 C2333 1.385 . S
C2337 C2336 1.374 . S
C2338 C2335 1.499 . S
C2338 C2339 1.373 . S
C2338 C2340 1.389 . S
C2339 H2318 0.950 . S
C2339 C2338 1.373 . S
C2339 C2355 1.377 . S
C2340 C2338 1.389 . S
C2340 C2341 1.524 . S
C2340 C2354 1.377 . S
C2341 C2340 1.524 . S
C2341 C2342 1.397 . S
C2341 C2346 1.363 . S
C2342 H2319 0.950 . S
C2342 C2341 1.397 . S
C2342 C2343 1.334 . S
C2343 H2320 0.950 . S
C2343 C2342 1.334 . S
C2343 C2344 1.287 . S
C2344 C2343 1.287 . S
C2344 C2345 1.524 . S
C2344 H2363 0.913 . S
C2345 H2321 0.950 . S
C2345 C2344 1.524 . S
C2345 C2346 1.415 . S
C2346 H2322 0.950 . S
C2346 C2341 1.363 . S
C2346 C2345 1.415 . S
C2347 H2323 0.951 . S
C2347 C2348 1.366 . S
C2347 C2349 1.388 . S
C2348 C2347 1.366 . S
C2348 C2352 1.385 . S
C2349 H2324 0.951 . S
C2349 C2347 1.388 . S
C2349 C2350 1.366 . S
C2350 C2349 1.366 . S
C2350 C2351 1.414 . S
C2350 C2353 1.499 . S
C2351 H2325 0.950 . S
C2351 C2350 1.414 . S
C2351 C2352 1.374 . S
C2352 H2326 0.950 . S
C2352 C2348 1.385 . S
C2352 C2351 1.374 . S
C2353 C2350 1.499 . S
C2353 C2354 1.373 . S
C2353 C2355 1.389 . S
C2354 H2327 0.950 . S
C2354 C2340 1.377 . S
C2354 C2353 1.373 . S
C2355 C2339 1.377 . S
C2355 C2353 1.389 . S
C2355 C2356 1.524 . S
C2356 C2355 1.524 . S
C2356 C2357 1.397 . S
C2356 C2361 1.363 . S
C2357 H2328 0.950 . S
C2357 C2356 1.397 . S
C2357 C2358 1.334 . S
C2358 H2329 0.950 . S
C2358 C2357 1.334 . S
C2358 C2359 1.287 . S
C2359 C2358 1.287 . S
C2359 C2360 1.524 . S
C2359 H2362 0.999 . S
C2360 H2330 0.950 . S
C2360 C2359 1.524 . S
C2360 C2361 1.415 . S
C2361 H2331 0.950 . S
C2361 C2356 1.363 . S
C2361 C2360 1.415 . S
H2362 C2359 0.999 . S
H2363 C2344 0.913 . S
H2364 C2382 0.951 . S
H2365 C2384 0.951 . S
H2366 C2386 0.950 . S
H2367 C2387 0.950 . S
H2368 C2389 0.950 . S
H2369 C2392 0.950 . S
H2370 C2393 0.950 . S
H2371 C2395 0.950 . S
H2372 C2396 0.950 . S
H2373 C2397 0.951 . S
H2374 C2399 0.951 . S
H2375 C2401 0.950 . S
H2376 C2402 0.950 . S
H2377 C2404 0.950 . S
H2378 C2407 0.950 . S
H2379 C2408 0.950 . S
H2380 C2410 0.950 . S
H2381 C2411 0.950 . S
C2382 H2364 0.951 . S
C2382 C2383 1.366 . S
C2382 C2384 1.388 . S
C2383 C2382 1.366 . S
C2383 C2387 1.385 . S
C2384 H2365 0.951 . S
C2384 C2382 1.388 . S
C2384 C2385 1.366 . S
C2385 C2384 1.366 . S
C2385 C2386 1.414 . S
C2385 C2388 1.499 . S
C2386 H2366 0.950 . S
C2386 C2385 1.414 . S
C2386 C2387 1.374 . S
C2387 H2367 0.950 . S
C2387 C2383 1.385 . S
C2387 C2386 1.374 . S
C2388 C2385 1.499 . S
C2388 C2389 1.373 . S
C2388 C2390 1.389 . S
C2389 H2368 0.950 . S
C2389 C2388 1.373 . S
C2389 C2405 1.377 . S
C2390 C2388 1.389 . S
C2390 C2391 1.524 . S
C2390 C2404 1.377 . S
C2391 C2390 1.524 . S
C2391 C2392 1.397 . S
C2391 C2396 1.363 . S
C2392 H2369 0.950 . S
C2392 C2391 1.397 . S
C2392 C2393 1.334 . S
C2393 H2370 0.950 . S
C2393 C2392 1.334 . S
C2393 C2394 1.287 . S
C2394 C2393 1.287 . S
C2394 C2395 1.524 . S
C2394 H2413 0.913 . S
C2395 H2371 0.950 . S
C2395 C2394 1.524 . S
C2395 C2396 1.415 . S
C2396 H2372 0.950 . S
C2396 C2391 1.363 . S
C2396 C2395 1.415 . S
C2397 H2373 0.951 . S
C2397 C2398 1.366 . S
C2397 C2399 1.388 . S
C2398 C2397 1.366 . S
C2398 C2402 1.385 . S
C2399 H2374 0.951 . S
C2399 C2397 1.388 . S
C2399 C2400 1.366 . S
C2400 C2399 1.366 . S
C2400 C2401 1.414 . S
C2400 C2403 1.499 . S
C2401 H2375 0.950 . S
C2401 C2400 1.414 . S
C2401 C2402 1.374 . S
C2402 H2376 0.950 . S
C2402 C2398 1.385 . S
C2402 C2401 1.374 . S
C2403 C2400 1.499 . S
C2403 C2404 1.373 . S
C2403 C2405 1.389 . S
C2404 H2377 0.950 . S
C2404 C2390 1.377 . S
C2404 C2403 1.373 . S
C2405 C2389 1.377 . S
C2405 C2403 1.389 . S
C2405 C2406 1.524 . S
C2406 C2405 1.524 . S
C2406 C2407 1.397 . S
C2406 C2411 1.363 . S
C2407 H2378 0.950 . S
C2407 C2406 1.397 . S
C2407 C2408 1.334 . S
C2408 H2379 0.950 . S
C2408 C2407 1.334 . S
C2408 C2409 1.287 . S
C2409 C2408 1.287 . S
C2409 C2410 1.524 . S
C2409 H2412 0.999 . S
C2410 H2380 0.950 . S
C2410 C2409 1.524 . S
C2410 C2411 1.415 . S
C2411 H2381 0.950 . S
C2411 C2406 1.363 . S
C2411 C2410 1.415 . S
H2412 C2409 0.999 . S
H2413 C2394 0.913 . S
H2414 C2432 0.951 . S
H2415 C2434 0.951 . S
H2416 C2436 0.950 . S
H2417 C2437 0.950 . S
H2418 C2439 0.950 . S
H2419 C2442 0.950 . S
H2420 C2443 0.950 . S
H2421 C2445 0.950 . S
H2422 C2446 0.950 . S
H2423 C2447 0.951 . S
H2424 C2449 0.951 . S
H2425 C2451 0.950 . S
H2426 C2452 0.950 . S
H2427 C2454 0.950 . S
H2428 C2457 0.950 . S
H2429 C2458 0.950 . S
H2430 C2460 0.950 . S
H2431 C2461 0.950 . S
C2432 H2414 0.951 . S
C2432 C2433 1.366 . S
C2432 C2434 1.388 . S
C2433 C2432 1.366 . S
C2433 C2437 1.385 . S
C2434 H2415 0.951 . S
C2434 C2432 1.388 . S
C2434 C2435 1.366 . S
C2435 C2434 1.366 . S
C2435 C2436 1.414 . S
C2435 C2438 1.499 . S
C2436 H2416 0.950 . S
C2436 C2435 1.414 . S
C2436 C2437 1.374 . S
C2437 H2417 0.950 . S
C2437 C2433 1.385 . S
C2437 C2436 1.374 . S
C2438 C2435 1.499 . S
C2438 C2439 1.373 . S
C2438 C2440 1.389 . S
C2439 H2418 0.950 . S
C2439 C2438 1.373 . S
C2439 C2455 1.377 . S
C2440 C2438 1.389 . S
C2440 C2441 1.524 . S
C2440 C2454 1.377 . S
C2441 C2440 1.524 . S
C2441 C2442 1.397 . S
C2441 C2446 1.363 . S
C2442 H2419 0.950 . S
C2442 C2441 1.397 . S
C2442 C2443 1.334 . S
C2443 H2420 0.950 . S
C2443 C2442 1.334 . S
C2443 C2444 1.287 . S
C2444 C2443 1.287 . S
C2444 C2445 1.524 . S
C2444 H2463 0.913 . S
C2445 H2421 0.950 . S
C2445 C2444 1.524 . S
C2445 C2446 1.415 . S
C2446 H2422 0.950 . S
C2446 C2441 1.363 . S
C2446 C2445 1.415 . S
C2447 H2423 0.951 . S
C2447 C2448 1.366 . S
C2447 C2449 1.388 . S
C2448 C2447 1.366 . S
C2448 C2452 1.385 . S
C2449 H2424 0.951 . S
C2449 C2447 1.388 . S
C2449 C2450 1.366 . S
C2450 C2449 1.366 . S
C2450 C2451 1.414 . S
C2450 C2453 1.499 . S
C2451 H2425 0.950 . S
C2451 C2450 1.414 . S
C2451 C2452 1.374 . S
C2452 H2426 0.950 . S
C2452 C2448 1.385 . S
C2452 C2451 1.374 . S
C2453 C2450 1.499 . S
C2453 C2454 1.373 . S
C2453 C2455 1.389 . S
C2454 H2427 0.950 . S
C2454 C2440 1.377 . S
C2454 C2453 1.373 . S
C2455 C2439 1.377 . S
C2455 C2453 1.389 . S
C2455 C2456 1.524 . S
C2456 C2455 1.524 . S
C2456 C2457 1.397 . S
C2456 C2461 1.363 . S
C2457 H2428 0.950 . S
C2457 C2456 1.397 . S
C2457 C2458 1.334 . S
C2458 H2429 0.950 . S
C2458 C2457 1.334 . S
C2458 C2459 1.287 . S
C2459 C2458 1.287 . S
C2459 C2460 1.524 . S
C2459 H2462 0.999 . S
C2460 H2430 0.950 . S
C2460 C2459 1.524 . S
C2460 C2461 1.415 . S
C2461 H2431 0.950 . S
C2461 C2456 1.363 . S
C2461 C2460 1.415 . S
H2462 C2459 0.999 . S
H2463 C2444 0.913 . S
H2464 C2482 0.951 . S
H2465 C2484 0.951 . S
H2466 C2486 0.950 . S
H2467 C2487 0.950 . S
H2468 C2489 0.950 . S
H2469 C2492 0.950 . S
H2470 C2493 0.950 . S
H2471 C2495 0.950 . S
H2472 C2496 0.950 . S
H2473 C2497 0.951 . S
H2474 C2499 0.951 . S
H2475 C2501 0.950 . S
H2476 C2502 0.950 . S
H2477 C2504 0.950 . S
H2478 C2507 0.950 . S
H2479 C2508 0.950 . S
H2480 C2510 0.950 . S
H2481 C2511 0.950 . S
C2482 H2464 0.951 . S
C2482 C2483 1.366 . S
C2482 C2484 1.388 . S
C2483 C2482 1.366 . S
C2483 C2487 1.385 . S
C2484 H2465 0.951 . S
C2484 C2482 1.388 . S
C2484 C2485 1.366 . S
C2485 C2484 1.366 . S
C2485 C2486 1.414 . S
C2485 C2488 1.499 . S
C2486 H2466 0.950 . S
C2486 C2485 1.414 . S
C2486 C2487 1.374 . S
C2487 H2467 0.950 . S
C2487 C2483 1.385 . S
C2487 C2486 1.374 . S
C2488 C2485 1.499 . S
C2488 C2489 1.373 . S
C2488 C2490 1.389 . S
C2489 H2468 0.950 . S
C2489 C2488 1.373 . S
C2489 C2505 1.377 . S
C2490 C2488 1.389 . S
C2490 C2491 1.524 . S
C2490 C2504 1.377 . S
C2491 C2490 1.524 . S
C2491 C2492 1.397 . S
C2491 C2496 1.363 . S
C2492 H2469 0.950 . S
C2492 C2491 1.397 . S
C2492 C2493 1.334 . S
C2493 H2470 0.950 . S
C2493 C2492 1.334 . S
C2493 C2494 1.287 . S
C2494 C2493 1.287 . S
C2494 C2495 1.524 . S
C2494 H2513 0.913 . S
C2495 H2471 0.950 . S
C2495 C2494 1.524 . S
C2495 C2496 1.415 . S
C2496 H2472 0.950 . S
C2496 C2491 1.363 . S
C2496 C2495 1.415 . S
C2497 H2473 0.951 . S
C2497 C2498 1.366 . S
C2497 C2499 1.388 . S
C2498 C2497 1.366 . S
C2498 C2502 1.385 . S
C2499 H2474 0.951 . S
C2499 C2497 1.388 . S
C2499 C2500 1.366 . S
C2500 C2499 1.366 . S
C2500 C2501 1.414 . S
C2500 C2503 1.499 . S
C2501 H2475 0.950 . S
C2501 C2500 1.414 . S
C2501 C2502 1.374 . S
C2502 H2476 0.950 . S
C2502 C2498 1.385 . S
C2502 C2501 1.374 . S
C2503 C2500 1.499 . S
C2503 C2504 1.373 . S
C2503 C2505 1.389 . S
C2504 H2477 0.950 . S
C2504 C2490 1.377 . S
C2504 C2503 1.373 . S
C2505 C2489 1.377 . S
C2505 C2503 1.389 . S
C2505 C2506 1.524 . S
C2506 C2505 1.524 . S
C2506 C2507 1.397 . S
C2506 C2511 1.363 . S
C2507 H2478 0.950 . S
C2507 C2506 1.397 . S
C2507 C2508 1.334 . S
C2508 H2479 0.950 . S
C2508 C2507 1.334 . S
C2508 C2509 1.287 . S
C2509 C2508 1.287 . S
C2509 C2510 1.524 . S
C2509 H2512 0.999 . S
C2510 H2480 0.950 . S
C2510 C2509 1.524 . S
C2510 C2511 1.415 . S
C2511 H2481 0.950 . S
C2511 C2506 1.363 . S
C2511 C2510 1.415 . S
H2512 C2509 0.999 . S
H2513 C2494 0.913 . S
H2514 C2532 0.951 . S
H2515 C2534 0.951 . S
H2516 C2536 0.950 . S
H2517 C2537 0.950 . S
H2518 C2539 0.950 . S
H2519 C2542 0.950 . S
H2520 C2543 0.950 . S
H2521 C2545 0.950 . S
H2522 C2546 0.950 . S
H2523 C2547 0.951 . S
H2524 C2549 0.951 . S
H2525 C2551 0.950 . S
H2526 C2552 0.950 . S
H2527 C2554 0.950 . S
H2528 C2557 0.950 . S
H2529 C2558 0.950 . S
H2530 C2560 0.950 . S
H2531 C2561 0.950 . S
C2532 H2514 0.951 . S
C2532 C2533 1.366 . S
C2532 C2534 1.388 . S
C2533 C2532 1.366 . S
C2533 C2537 1.385 . S
C2534 H2515 0.951 . S
C2534 C2532 1.388 . S
C2534 C2535 1.366 . S
C2535 C2534 1.366 . S
C2535 C2536 1.414 . S
C2535 C2538 1.499 . S
C2536 H2516 0.950 . S
C2536 C2535 1.414 . S
C2536 C2537 1.374 . S
C2537 H2517 0.950 . S
C2537 C2533 1.385 . S
C2537 C2536 1.374 . S
C2538 C2535 1.499 . S
C2538 C2539 1.373 . S
C2538 C2540 1.389 . S
C2539 H2518 0.950 . S
C2539 C2538 1.373 . S
C2539 C2555 1.377 . S
C2540 C2538 1.389 . S
C2540 C2541 1.524 . S
C2540 C2554 1.377 . S
C2541 C2540 1.524 . S
C2541 C2542 1.397 . S
C2541 C2546 1.363 . S
C2542 H2519 0.950 . S
C2542 C2541 1.397 . S
C2542 C2543 1.334 . S
C2543 H2520 0.950 . S
C2543 C2542 1.334 . S
C2543 C2544 1.287 . S
C2544 C2543 1.287 . S
C2544 C2545 1.524 . S
C2544 H2563 0.913 . S
C2545 H2521 0.950 . S
C2545 C2544 1.524 . S
C2545 C2546 1.415 . S
C2546 H2522 0.950 . S
C2546 C2541 1.363 . S
C2546 C2545 1.415 . S
C2547 H2523 0.951 . S
C2547 C2548 1.366 . S
C2547 C2549 1.388 . S
C2548 C2547 1.366 . S
C2548 C2552 1.385 . S
C2549 H2524 0.951 . S
C2549 C2547 1.388 . S
C2549 C2550 1.366 . S
C2550 C2549 1.366 . S
C2550 C2551 1.414 . S
C2550 C2553 1.499 . S
C2551 H2525 0.950 . S
C2551 C2550 1.414 . S
C2551 C2552 1.374 . S
C2552 H2526 0.950 . S
C2552 C2548 1.385 . S
C2552 C2551 1.374 . S
C2553 C2550 1.499 . S
C2553 C2554 1.373 . S
C2553 C2555 1.389 . S
C2554 H2527 0.950 . S
C2554 C2540 1.377 . S
C2554 C2553 1.373 . S
C2555 C2539 1.377 . S
C2555 C2553 1.389 . S
C2555 C2556 1.524 . S
C2556 C2555 1.524 . S
C2556 C2557 1.397 . S
C2556 C2561 1.363 . S
C2557 H2528 0.950 . S
C2557 C2556 1.397 . S
C2557 C2558 1.334 . S
C2558 H2529 0.950 . S
C2558 C2557 1.334 . S
C2558 C2559 1.287 . S
C2559 C2558 1.287 . S
C2559 C2560 1.524 . S
C2559 H2562 0.999 . S
C2560 H2530 0.950 . S
C2560 C2559 1.524 . S
C2560 C2561 1.415 . S
C2561 H2531 0.950 . S
C2561 C2556 1.363 . S
C2561 C2560 1.415 . S
H2562 C2559 0.999 . S
H2563 C2544 0.913 . S
H2564 C2582 0.951 . S
H2565 C2584 0.951 . S
H2566 C2586 0.950 . S
H2567 C2587 0.950 . S
H2568 C2589 0.950 . S
H2569 C2592 0.950 . S
H2570 C2593 0.950 . S
H2571 C2595 0.950 . S
H2572 C2596 0.950 . S
H2573 C2597 0.951 . S
H2574 C2599 0.951 . S
H2575 C2601 0.950 . S
H2576 C2602 0.950 . S
H2577 C2604 0.950 . S
H2578 C2607 0.950 . S
H2579 C2608 0.950 . S
H2580 C2610 0.950 . S
H2581 C2611 0.950 . S
C2582 H2564 0.951 . S
C2582 C2583 1.366 . S
C2582 C2584 1.388 . S
C2583 C2582 1.366 . S
C2583 C2587 1.385 . S
C2584 H2565 0.951 . S
C2584 C2582 1.388 . S
C2584 C2585 1.366 . S
C2585 C2584 1.366 . S
C2585 C2586 1.414 . S
C2585 C2588 1.499 . S
C2586 H2566 0.950 . S
C2586 C2585 1.414 . S
C2586 C2587 1.374 . S
C2587 H2567 0.950 . S
C2587 C2583 1.385 . S
C2587 C2586 1.374 . S
C2588 C2585 1.499 . S
C2588 C2589 1.373 . S
C2588 C2590 1.389 . S
C2589 H2568 0.950 . S
C2589 C2588 1.373 . S
C2589 C2605 1.377 . S
C2590 C2588 1.389 . S
C2590 C2591 1.524 . S
C2590 C2604 1.377 . S
C2591 C2590 1.524 . S
C2591 C2592 1.397 . S
C2591 C2596 1.363 . S
C2592 H2569 0.950 . S
C2592 C2591 1.397 . S
C2592 C2593 1.334 . S
C2593 H2570 0.950 . S
C2593 C2592 1.334 . S
C2593 C2594 1.287 . S
C2594 C2593 1.287 . S
C2594 C2595 1.524 . S
C2594 H2613 0.913 . S
C2595 H2571 0.950 . S
C2595 C2594 1.524 . S
C2595 C2596 1.415 . S
C2596 H2572 0.950 . S
C2596 C2591 1.363 . S
C2596 C2595 1.415 . S
C2597 H2573 0.951 . S
C2597 C2598 1.366 . S
C2597 C2599 1.388 . S
C2598 C2597 1.366 . S
C2598 C2602 1.385 . S
C2599 H2574 0.951 . S
C2599 C2597 1.388 . S
C2599 C2600 1.366 . S
C2600 C2599 1.366 . S
C2600 C2601 1.414 . S
C2600 C2603 1.499 . S
C2601 H2575 0.950 . S
C2601 C2600 1.414 . S
C2601 C2602 1.374 . S
C2602 H2576 0.950 . S
C2602 C2598 1.385 . S
C2602 C2601 1.374 . S
C2603 C2600 1.499 . S
C2603 C2604 1.373 . S
C2603 C2605 1.389 . S
C2604 H2577 0.950 . S
C2604 C2590 1.377 . S
C2604 C2603 1.373 . S
C2605 C2589 1.377 . S
C2605 C2603 1.389 . S
C2605 C2606 1.524 . S
C2606 C2605 1.524 . S
C2606 C2607 1.397 . S
C2606 C2611 1.363 . S
C2607 H2578 0.950 . S
C2607 C2606 1.397 . S
C2607 C2608 1.334 . S
C2608 H2579 0.950 . S
C2608 C2607 1.334 . S
C2608 C2609 1.287 . S
C2609 C2608 1.287 . S
C2609 C2610 1.524 . S
C2609 H2612 0.999 . S
C2610 H2580 0.950 . S
C2610 C2609 1.524 . S
C2610 C2611 1.415 . S
C2611 H2581 0.950 . S
C2611 C2606 1.363 . S
C2611 C2610 1.415 . S
H2612 C2609 0.999 . S
H2613 C2594 0.913 . S
H2614 C2632 0.951 . S
H2615 C2634 0.951 . S
H2616 C2636 0.950 . S
H2617 C2637 0.950 . S
H2618 C2639 0.950 . S
H2619 C2642 0.950 . S
H2620 C2643 0.950 . S
H2621 C2645 0.950 . S
H2622 C2646 0.950 . S
H2623 C2647 0.951 . S
H2624 C2649 0.951 . S
H2625 C2651 0.950 . S
H2626 C2652 0.950 . S
H2627 C2654 0.950 . S
H2628 C2657 0.950 . S
H2629 C2658 0.950 . S
H2630 C2660 0.950 . S
H2631 C2661 0.950 . S
C2632 H2614 0.951 . S
C2632 C2633 1.366 . S
C2632 C2634 1.388 . S
C2633 C2632 1.366 . S
C2633 C2637 1.385 . S
C2634 H2615 0.951 . S
C2634 C2632 1.388 . S
C2634 C2635 1.366 . S
C2635 C2634 1.366 . S
C2635 C2636 1.414 . S
C2635 C2638 1.499 . S
C2636 H2616 0.950 . S
C2636 C2635 1.414 . S
C2636 C2637 1.374 . S
C2637 H2617 0.950 . S
C2637 C2633 1.385 . S
C2637 C2636 1.374 . S
C2638 C2635 1.499 . S
C2638 C2639 1.373 . S
C2638 C2640 1.389 . S
C2639 H2618 0.950 . S
C2639 C2638 1.373 . S
C2639 C2655 1.377 . S
C2640 C2638 1.389 . S
C2640 C2641 1.524 . S
C2640 C2654 1.377 . S
C2641 C2640 1.524 . S
C2641 C2642 1.397 . S
C2641 C2646 1.363 . S
C2642 H2619 0.950 . S
C2642 C2641 1.397 . S
C2642 C2643 1.334 . S
C2643 H2620 0.950 . S
C2643 C2642 1.334 . S
C2643 C2644 1.287 . S
C2644 C2643 1.287 . S
C2644 C2645 1.524 . S
C2644 H2663 0.913 . S
C2645 H2621 0.950 . S
C2645 C2644 1.524 . S
C2645 C2646 1.415 . S
C2646 H2622 0.950 . S
C2646 C2641 1.363 . S
C2646 C2645 1.415 . S
C2647 H2623 0.951 . S
C2647 C2648 1.366 . S
C2647 C2649 1.388 . S
C2648 C2647 1.366 . S
C2648 C2652 1.385 . S
C2649 H2624 0.951 . S
C2649 C2647 1.388 . S
C2649 C2650 1.366 . S
C2650 C2649 1.366 . S
C2650 C2651 1.414 . S
C2650 C2653 1.499 . S
C2651 H2625 0.950 . S
C2651 C2650 1.414 . S
C2651 C2652 1.374 . S
C2652 H2626 0.950 . S
C2652 C2648 1.385 . S
C2652 C2651 1.374 . S
C2653 C2650 1.499 . S
C2653 C2654 1.373 . S
C2653 C2655 1.389 . S
C2654 H2627 0.950 . S
C2654 C2640 1.377 . S
C2654 C2653 1.373 . S
C2655 C2639 1.377 . S
C2655 C2653 1.389 . S
C2655 C2656 1.524 . S
C2656 C2655 1.524 . S
C2656 C2657 1.397 . S
C2656 C2661 1.363 . S
C2657 H2628 0.950 . S
C2657 C2656 1.397 . S
C2657 C2658 1.334 . S
C2658 H2629 0.950 . S
C2658 C2657 1.334 . S
C2658 C2659 1.287 . S
C2659 C2658 1.287 . S
C2659 C2660 1.524 . S
C2659 H2662 0.999 . S
C2660 H2630 0.950 . S
C2660 C2659 1.524 . S
C2660 C2661 1.415 . S
C2661 H2631 0.950 . S
C2661 C2656 1.363 . S
C2661 C2660 1.415 . S
H2662 C2659 0.999 . S
H2663 C2644 0.913 . S
H2664 C2682 0.951 . S
H2665 C2684 0.951 . S
H2666 C2686 0.950 . S
H2667 C2687 0.950 . S
H2668 C2689 0.950 . S
H2669 C2692 0.950 . S
H2670 C2693 0.950 . S
H2671 C2695 0.950 . S
H2672 C2696 0.950 . S
H2673 C2697 0.951 . S
H2674 C2699 0.951 . S
H2675 C2701 0.950 . S
H2676 C2702 0.950 . S
H2677 C2704 0.950 . S
H2678 C2707 0.950 . S
H2679 C2708 0.950 . S
H2680 C2710 0.950 . S
H2681 C2711 0.950 . S
C2682 H2664 0.951 . S
C2682 C2683 1.366 . S
C2682 C2684 1.388 . S
C2683 C2682 1.366 . S
C2683 C2687 1.385 . S
C2684 H2665 0.951 . S
C2684 C2682 1.388 . S
C2684 C2685 1.366 . S
C2685 C2684 1.366 . S
C2685 C2686 1.414 . S
C2685 C2688 1.499 . S
C2686 H2666 0.950 . S
C2686 C2685 1.414 . S
C2686 C2687 1.374 . S
C2687 H2667 0.950 . S
C2687 C2683 1.385 . S
C2687 C2686 1.374 . S
C2688 C2685 1.499 . S
C2688 C2689 1.373 . S
C2688 C2690 1.389 . S
C2689 H2668 0.950 . S
C2689 C2688 1.373 . S
C2689 C2705 1.377 . S
C2690 C2688 1.389 . S
C2690 C2691 1.524 . S
C2690 C2704 1.377 . S
C2691 C2690 1.524 . S
C2691 C2692 1.397 . S
C2691 C2696 1.363 . S
C2692 H2669 0.950 . S
C2692 C2691 1.397 . S
C2692 C2693 1.334 . S
C2693 H2670 0.950 . S
C2693 C2692 1.334 . S
C2693 C2694 1.287 . S
C2694 C2693 1.287 . S
C2694 C2695 1.524 . S
C2694 H2713 0.913 . S
C2695 H2671 0.950 . S
C2695 C2694 1.524 . S
C2695 C2696 1.415 . S
C2696 H2672 0.950 . S
C2696 C2691 1.363 . S
C2696 C2695 1.415 . S
C2697 H2673 0.951 . S
C2697 C2698 1.366 . S
C2697 C2699 1.388 . S
C2698 C2697 1.366 . S
C2698 C2702 1.385 . S
C2699 H2674 0.951 . S
C2699 C2697 1.388 . S
C2699 C2700 1.366 . S
C2700 C2699 1.366 . S
C2700 C2701 1.414 . S
C2700 C2703 1.499 . S
C2701 H2675 0.950 . S
C2701 C2700 1.414 . S
C2701 C2702 1.374 . S
C2702 H2676 0.950 . S
C2702 C2698 1.385 . S
C2702 C2701 1.374 . S
C2703 C2700 1.499 . S
C2703 C2704 1.373 . S
C2703 C2705 1.389 . S
C2704 H2677 0.950 . S
C2704 C2690 1.377 . S
C2704 C2703 1.373 . S
C2705 C2689 1.377 . S
C2705 C2703 1.389 . S
C2705 C2706 1.524 . S
C2706 C2705 1.524 . S
C2706 C2707 1.397 . S
C2706 C2711 1.363 . S
C2707 H2678 0.950 . S
C2707 C2706 1.397 . S
C2707 C2708 1.334 . S
C2708 H2679 0.950 . S
C2708 C2707 1.334 . S
C2708 C2709 1.287 . S
C2709 C2708 1.287 . S
C2709 C2710 1.524 . S
C2709 H2712 0.999 . S
C2710 H2680 0.950 . S
C2710 C2709 1.524 . S
C2710 C2711 1.415 . S
C2711 H2681 0.950 . S
C2711 C2706 1.363 . S
C2711 C2710 1.415 . S
H2712 C2709 0.999 . S
H2713 C2694 0.913 . S
H2714 C2732 0.951 . S
H2715 C2734 0.951 . S
H2716 C2736 0.950 . S
H2717 C2737 0.950 . S
H2718 C2739 0.950 . S
H2719 C2742 0.950 . S
H2720 C2743 0.950 . S
H2721 C2745 0.950 . S
H2722 C2746 0.950 . S
H2723 C2747 0.951 . S
H2724 C2749 0.951 . S
H2725 C2751 0.950 . S
H2726 C2752 0.950 . S
H2727 C2754 0.950 . S
H2728 C2757 0.950 . S
H2729 C2758 0.950 . S
H2730 C2760 0.950 . S
H2731 C2761 0.950 . S
C2732 H2714 0.951 . S
C2732 C2733 1.366 . S
C2732 C2734 1.388 . S
C2733 C2732 1.366 . S
C2733 C2737 1.385 . S
C2734 H2715 0.951 . S
C2734 C2732 1.388 . S
C2734 C2735 1.366 . S
C2735 C2734 1.366 . S
C2735 C2736 1.414 . S
C2735 C2738 1.499 . S
C2736 H2716 0.950 . S
C2736 C2735 1.414 . S
C2736 C2737 1.374 . S
C2737 H2717 0.950 . S
C2737 C2733 1.385 . S
C2737 C2736 1.374 . S
C2738 C2735 1.499 . S
C2738 C2739 1.373 . S
C2738 C2740 1.389 . S
C2739 H2718 0.950 . S
C2739 C2738 1.373 . S
C2739 C2755 1.377 . S
C2740 C2738 1.389 . S
C2740 C2741 1.524 . S
C2740 C2754 1.377 . S
C2741 C2740 1.524 . S
C2741 C2742 1.397 . S
C2741 C2746 1.363 . S
C2742 H2719 0.950 . S
C2742 C2741 1.397 . S
C2742 C2743 1.334 . S
C2743 H2720 0.950 . S
C2743 C2742 1.334 . S
C2743 C2744 1.287 . S
C2744 C2743 1.287 . S
C2744 C2745 1.524 . S
C2744 H2763 0.913 . S
C2745 H2721 0.950 . S
C2745 C2744 1.524 . S
C2745 C2746 1.415 . S
C2746 H2722 0.950 . S
C2746 C2741 1.363 . S
C2746 C2745 1.415 . S
C2747 H2723 0.951 . S
C2747 C2748 1.366 . S
C2747 C2749 1.388 . S
C2748 C2747 1.366 . S
C2748 C2752 1.385 . S
C2749 H2724 0.951 . S
C2749 C2747 1.388 . S
C2749 C2750 1.366 . S
C2750 C2749 1.366 . S
C2750 C2751 1.414 . S
C2750 C2753 1.499 . S
C2751 H2725 0.950 . S
C2751 C2750 1.414 . S
C2751 C2752 1.374 . S
C2752 H2726 0.950 . S
C2752 C2748 1.385 . S
C2752 C2751 1.374 . S
C2753 C2750 1.499 . S
C2753 C2754 1.373 . S
C2753 C2755 1.389 . S
C2754 H2727 0.950 . S
C2754 C2740 1.377 . S
C2754 C2753 1.373 . S
C2755 C2739 1.377 . S
C2755 C2753 1.389 . S
C2755 C2756 1.524 . S
C2756 C2755 1.524 . S
C2756 C2757 1.397 . S
C2756 C2761 1.363 . S
C2757 H2728 0.950 . S
C2757 C2756 1.397 . S
C2757 C2758 1.334 . S
C2758 H2729 0.950 . S
C2758 C2757 1.334 . S
C2758 C2759 1.287 . S
C2759 C2758 1.287 . S
C2759 C2760 1.524 . S
C2759 H2762 0.999 . S
C2760 H2730 0.950 . S
C2760 C2759 1.524 . S
C2760 C2761 1.415 . S
C2761 H2731 0.950 . S
C2761 C2756 1.363 . S
C2761 C2760 1.415 . S
H2762 C2759 0.999 . S
H2763 C2744 0.913 . S
H2764 C2782 0.951 . S
H2765 C2784 0.951 . S
H2766 C2786 0.950 . S
H2767 C2787 0.950 . S
H2768 C2789 0.950 . S
H2769 C2792 0.950 . S
H2770 C2793 0.950 . S
H2771 C2795 0.950 . S
H2772 C2796 0.950 . S
H2773 C2797 0.951 . S
H2774 C2799 0.951 . S
H2775 C2801 0.950 . S
H2776 C2802 0.950 . S
H2777 C2804 0.950 . S
H2778 C2807 0.950 . S
H2779 C2808 0.950 . S
H2780 C2810 0.950 . S
H2781 C2811 0.950 . S
C2782 H2764 0.951 . S
C2782 C2783 1.366 . S
C2782 C2784 1.388 . S
C2783 C2782 1.366 . S
C2783 C2787 1.385 . S
C2784 H2765 0.951 . S
C2784 C2782 1.388 . S
C2784 C2785 1.366 . S
C2785 C2784 1.366 . S
C2785 C2786 1.414 . S
C2785 C2788 1.499 . S
C2786 H2766 0.950 . S
C2786 C2785 1.414 . S
C2786 C2787 1.374 . S
C2787 H2767 0.950 . S
C2787 C2783 1.385 . S
C2787 C2786 1.374 . S
C2788 C2785 1.499 . S
C2788 C2789 1.373 . S
C2788 C2790 1.389 . S
C2789 H2768 0.950 . S
C2789 C2788 1.373 . S
C2789 C2805 1.377 . S
C2790 C2788 1.389 . S
C2790 C2791 1.524 . S
C2790 C2804 1.377 . S
C2791 C2790 1.524 . S
C2791 C2792 1.397 . S
C2791 C2796 1.363 . S
C2792 H2769 0.950 . S
C2792 C2791 1.397 . S
C2792 C2793 1.334 . S
C2793 H2770 0.950 . S
C2793 C2792 1.334 . S
C2793 C2794 1.287 . S
C2794 C2793 1.287 . S
C2794 C2795 1.524 . S
C2794 H2813 0.913 . S
C2795 H2771 0.950 . S
C2795 C2794 1.524 . S
C2795 C2796 1.415 . S
C2796 H2772 0.950 . S
C2796 C2791 1.363 . S
C2796 C2795 1.415 . S
C2797 H2773 0.951 . S
C2797 C2798 1.366 . S
C2797 C2799 1.388 . S
C2798 C2797 1.366 . S
C2798 C2802 1.385 . S
C2799 H2774 0.951 . S
C2799 C2797 1.388 . S
C2799 C2800 1.366 . S
C2800 C2799 1.366 . S
C2800 C2801 1.414 . S
C2800 C2803 1.499 . S
C2801 H2775 0.950 . S
C2801 C2800 1.414 . S
C2801 C2802 1.374 . S
C2802 H2776 0.950 . S
C2802 C2798 1.385 . S
C2802 C2801 1.374 . S
C2803 C2800 1.499 . S
C2803 C2804 1.373 . S
C2803 C2805 1.389 . S
C2804 H2777 0.950 . S
C2804 C2790 1.377 . S
C2804 C2803 1.373 . S
C2805 C2789 1.377 . S
C2805 C2803 1.389 . S
C2805 C2806 1.524 . S
C2806 C2805 1.524 . S
C2806 C2807 1.397 . S
C2806 C2811 1.363 . S
C2807 H2778 0.950 . S
C2807 C2806 1.397 . S
C2807 C2808 1.334 . S
C2808 H2779 0.950 . S
C2808 C2807 1.334 . S
C2808 C2809 1.287 . S
C2809 C2808 1.287 . S
C2809 C2810 1.524 . S
C2809 H2812 0.999 . S
C2810 H2780 0.950 . S
C2810 C2809 1.524 . S
C2810 C2811 1.415 . S
C2811 H2781 0.950 . S
C2811 C2806 1.363 . S
C2811 C2810 1.415 . S
H2812 C2809 0.999 . S
H2813 C2794 0.913 . S
H2814 C2832 0.951 . S
H2815 C2834 0.951 . S
H2816 C2836 0.950 . S
H2817 C2837 0.950 . S
H2818 C2839 0.950 . S
H2819 C2842 0.950 . S
H2820 C2843 0.950 . S
H2821 C2845 0.950 . S
H2822 C2846 0.950 . S
H2823 C2847 0.951 . S
H2824 C2849 0.951 . S
H2825 C2851 0.950 . S
H2826 C2852 0.950 . S
H2827 C2854 0.950 . S
H2828 C2857 0.950 . S
H2829 C2858 0.950 . S
H2830 C2860 0.950 . S
H2831 C2861 0.950 . S
C2832 H2814 0.951 . S
C2832 C2833 1.366 . S
C2832 C2834 1.388 . S
C2833 C2832 1.366 . S
C2833 C2837 1.385 . S
C2834 H2815 0.951 . S
C2834 C2832 1.388 . S
C2834 C2835 1.366 . S
C2835 C2834 1.366 . S
C2835 C2836 1.414 . S
C2835 C2838 1.499 . S
C2836 H2816 0.950 . S
C2836 C2835 1.414 . S
C2836 C2837 1.374 . S
C2837 H2817 0.950 . S
C2837 C2833 1.385 . S
C2837 C2836 1.374 . S
C2838 C2835 1.499 . S
C2838 C2839 1.373 . S
C2838 C2840 1.389 . S
C2839 H2818 0.950 . S
C2839 C2838 1.373 . S
C2839 C2855 1.377 . S
C2840 C2838 1.389 . S
C2840 C2841 1.524 . S
C2840 C2854 1.377 . S
C2841 C2840 1.524 . S
C2841 C2842 1.397 . S
C2841 C2846 1.363 . S
C2842 H2819 0.950 . S
C2842 C2841 1.397 . S
C2842 C2843 1.334 . S
C2843 H2820 0.950 . S
C2843 C2842 1.334 . S
C2843 C2844 1.287 . S
C2844 C2843 1.287 . S
C2844 C2845 1.524 . S
C2844 H2863 0.913 . S
C2845 H2821 0.950 . S
C2845 C2844 1.524 . S
C2845 C2846 1.415 . S
C2846 H2822 0.950 . S
C2846 C2841 1.363 . S
C2846 C2845 1.415 . S
C2847 H2823 0.951 . S
C2847 C2848 1.366 . S
C2847 C2849 1.388 . S
C2848 C2847 1.366 . S
C2848 C2852 1.385 . S
C2849 H2824 0.951 . S
C2849 C2847 1.388 . S
C2849 C2850 1.366 . S
C2850 C2849 1.366 . S
C2850 C2851 1.414 . S
C2850 C2853 1.499 . S
C2851 H2825 0.950 . S
C2851 C2850 1.414 . S
C2851 C2852 1.374 . S
C2852 H2826 0.950 . S
C2852 C2848 1.385 . S
C2852 C2851 1.374 . S
C2853 C2850 1.499 . S
C2853 C2854 1.373 . S
C2853 C2855 1.389 . S
C2854 H2827 0.950 . S
C2854 C2840 1.377 . S
C2854 C2853 1.373 . S
C2855 C2839 1.377 . S
C2855 C2853 1.389 . S
C2855 C2856 1.524 . S
C2856 C2855 1.524 . S
C2856 C2857 1.397 . S
C2856 C2861 1.363 . S
C2857 H2828 0.950 . S
C2857 C2856 1.397 . S
C2857 C2858 1.334 . S
C2858 H2829 0.950 . S
C2858 C2857 1.334 . S
C2858 C2859 1.287 . S
C2859 C2858 1.287 . S
C2859 C2860 1.524 . S
C2859 H2862 0.999 . S
C2860 H2830 0.950 . S
C2860 C2859 1.524 . S
C2860 C2861 1.415 . S
C2861 H2831 0.950 . S
C2861 C2856 1.363 . S
C2861 C2860 1.415 . S
H2862 C2859 0.999 . S
H2863 C2844 0.913 . S
H2864 C2882 0.951 . S
H2865 C2884 0.951 . S
H2866 C2886 0.950 . S
H2867 C2887 0.950 . S
H2868 C2889 0.950 . S
H2869 C2892 0.950 . S
H2870 C2893 0.950 . S
H2871 C2895 0.950 . S
H2872 C2896 0.950 . S
H2873 C2897 0.951 . S
H2874 C2899 0.951 . S
H2875 C2901 0.950 . S
H2876 C2902 0.950 . S
H2877 C2904 0.950 . S
H2878 C2907 0.950 . S
H2879 C2908 0.950 . S
H2880 C2910 0.950 . S
H2881 C2911 0.950 . S
C2882 H2864 0.951 . S
C2882 C2883 1.366 . S
C2882 C2884 1.388 . S
C2883 C2882 1.366 . S
C2883 C2887 1.385 . S
C2884 H2865 0.951 . S
C2884 C2882 1.388 . S
C2884 C2885 1.366 . S
C2885 C2884 1.366 . S
C2885 C2886 1.414 . S
C2885 C2888 1.499 . S
C2886 H2866 0.950 . S
C2886 C2885 1.414 . S
C2886 C2887 1.374 . S
C2887 H2867 0.950 . S
C2887 C2883 1.385 . S
C2887 C2886 1.374 . S
C2888 C2885 1.499 . S
C2888 C2889 1.373 . S
C2888 C2890 1.389 . S
C2889 H2868 0.950 . S
C2889 C2888 1.373 . S
C2889 C2905 1.377 . S
C2890 C2888 1.389 . S
C2890 C2891 1.524 . S
C2890 C2904 1.377 . S
C2891 C2890 1.524 . S
C2891 C2892 1.397 . S
C2891 C2896 1.363 . S
C2892 H2869 0.950 . S
C2892 C2891 1.397 . S
C2892 C2893 1.334 . S
C2893 H2870 0.950 . S
C2893 C2892 1.334 . S
C2893 C2894 1.287 . S
C2894 C2893 1.287 . S
C2894 C2895 1.524 . S
C2894 H2913 0.913 . S
C2895 H2871 0.950 . S
C2895 C2894 1.524 . S
C2895 C2896 1.415 . S
C2896 H2872 0.950 . S
C2896 C2891 1.363 . S
C2896 C2895 1.415 . S
C2897 H2873 0.951 . S
C2897 C2898 1.366 . S
C2897 C2899 1.388 . S
C2898 C2897 1.366 . S
C2898 C2902 1.385 . S
C2899 H2874 0.951 . S
C2899 C2897 1.388 . S
C2899 C2900 1.366 . S
C2900 C2899 1.366 . S
C2900 C2901 1.414 . S
C2900 C2903 1.499 . S
C2901 H2875 0.950 . S
C2901 C2900 1.414 . S
C2901 C2902 1.374 . S
C2902 H2876 0.950 . S
C2902 C2898 1.385 . S
C2902 C2901 1.374 . S
C2903 C2900 1.499 . S
C2903 C2904 1.373 . S
C2903 C2905 1.389 . S
C2904 H2877 0.950 . S
C2904 C2890 1.377 . S
C2904 C2903 1.373 . S
C2905 C2889 1.377 . S
C2905 C2903 1.389 . S
C2905 C2906 1.524 . S
C2906 C2905 1.524 . S
C2906 C2907 1.397 . S
C2906 C2911 1.363 . S
C2907 H2878 0.950 . S
C2907 C2906 1.397 . S
C2907 C2908 1.334 . S
C2908 H2879 0.950 . S
C2908 C2907 1.334 . S
C2908 C2909 1.287 . S
C2909 C2908 1.287 . S
C2909 C2910 1.524 . S
C2909 H2912 0.999 . S
C2910 H2880 0.950 . S
C2910 C2909 1.524 . S
C2910 C2911 1.415 . S
C2911 H2881 0.950 . S
C2911 C2906 1.363 . S
C2911 C2910 1.415 . S
H2912 C2909 0.999 . S
H2913 C2894 0.913 . S
H2914 C2932 0.951 . S
H2915 C2934 0.951 . S
H2916 C2936 0.950 . S
H2917 C2937 0.950 . S
H2918 C2939 0.950 . S
H2919 C2942 0.950 . S
H2920 C2943 0.950 . S
H2921 C2945 0.950 . S
H2922 C2946 0.950 . S
H2923 C2947 0.951 . S
H2924 C2949 0.951 . S
H2925 C2951 0.950 . S
H2926 C2952 0.950 . S
H2927 C2954 0.950 . S
H2928 C2957 0.950 . S
H2929 C2958 0.950 . S
H2930 C2960 0.950 . S
H2931 C2961 0.950 . S
C2932 H2914 0.951 . S
C2932 C2933 1.366 . S
C2932 C2934 1.388 . S
C2933 C2932 1.366 . S
C2933 C2937 1.385 . S
C2934 H2915 0.951 . S
C2934 C2932 1.388 . S
C2934 C2935 1.366 . S
C2935 C2934 1.366 . S
C2935 C2936 1.414 . S
C2935 C2938 1.499 . S
C2936 H2916 0.950 . S
C2936 C2935 1.414 . S
C2936 C2937 1.374 . S
C2937 H2917 0.950 . S
C2937 C2933 1.385 . S
C2937 C2936 1.374 . S
C2938 C2935 1.499 . S
C2938 C2939 1.373 . S
C2938 C2940 1.389 . S
C2939 H2918 0.950 . S
C2939 C2938 1.373 . S
C2939 C2955 1.377 . S
C2940 C2938 1.389 . S
C2940 C2941 1.524 . S
C2940 C2954 1.377 . S
C2941 C2940 1.524 . S
C2941 C2942 1.397 . S
C2941 C2946 1.363 . S
C2942 H2919 0.950 . S
C2942 C2941 1.397 . S
C2942 C2943 1.334 . S
C2943 H2920 0.950 . S
C2943 C2942 1.334 . S
C2943 C2944 1.287 . S
C2944 C2943 1.287 . S
C2944 C2945 1.524 . S
C2944 H2963 0.913 . S
C2945 H2921 0.950 . S
C2945 C2944 1.524 . S
C2945 C2946 1.415 . S
C2946 H2922 0.950 . S
C2946 C2941 1.363 . S
C2946 C2945 1.415 . S
C2947 H2923 0.951 . S
C2947 C2948 1.366 . S
C2947 C2949 1.388 . S
C2948 C2947 1.366 . S
C2948 C2952 1.385 . S
C2949 H2924 0.951 . S
C2949 C2947 1.388 . S
C2949 C2950 1.366 . S
C2950 C2949 1.366 . S
C2950 C2951 1.414 . S
C2950 C2953 1.499 . S
C2951 H2925 0.950 . S
C2951 C2950 1.414 . S
C2951 C2952 1.374 . S
C2952 H2926 0.950 . S
C2952 C2948 1.385 . S
C2952 C2951 1.374 . S
C2953 C2950 1.499 . S
C2953 C2954 1.373 . S
C2953 C2955 1.389 . S
C2954 H2927 0.950 . S
C2954 C2940 1.377 . S
C2954 C2953 1.373 . S
C2955 C2939 1.377 . S
C2955 C2953 1.389 . S
C2955 C2956 1.524 . S
C2956 C2955 1.524 . S
C2956 C2957 1.397 . S
C2956 C2961 1.363 . S
C2957 H2928 0.950 . S
C2957 C2956 1.397 . S
C2957 C2958 1.334 . S
C2958 H2929 0.950 . S
C2958 C2957 1.334 . S
C2958 C2959 1.287 . S
C2959 C2958 1.287 . S
C2959 C2960 1.524 . S
C2959 H2962 0.999 . S
C2960 H2930 0.950 . S
C2960 C2959 1.524 . S
C2960 C2961 1.415 . S
C2961 H2931 0.950 . S
C2961 C2956 1.363 . S
C2961 C2960 1.415 . S
H2962 C2959 0.999 . S
H2963 C2944 0.913 . S
H2964 C2982 0.951 . S
H2965 C2984 0.951 . S
H2966 C2986 0.950 . S
H2967 C2987 0.950 . S
H2968 C2989 0.950 . S
H2969 C2992 0.950 . S
H2970 C2993 0.950 . S
H2971 C2995 0.950 . S
H2972 C2996 0.950 . S
H2973 C2997 0.951 . S
H2974 C2999 0.951 . S
H2975 C3001 0.950 . S
H2976 C3002 0.950 . S
H2977 C3004 0.950 . S
H2978 C3007 0.950 . S
H2979 C3008 0.950 . S
H2980 C3010 0.950 . S
H2981 C3011 0.950 . S
C2982 H2964 0.951 . S
C2982 C2983 1.366 . S
C2982 C2984 1.388 . S
C2983 C2982 1.366 . S
C2983 C2987 1.385 . S
C2984 H2965 0.951 . S
C2984 C2982 1.388 . S
C2984 C2985 1.366 . S
C2985 C2984 1.366 . S
C2985 C2986 1.414 . S
C2985 C2988 1.499 . S
C2986 H2966 0.950 . S
C2986 C2985 1.414 . S
C2986 C2987 1.374 . S
C2987 H2967 0.950 . S
C2987 C2983 1.385 . S
C2987 C2986 1.374 . S
C2988 C2985 1.499 . S
C2988 C2989 1.373 . S
C2988 C2990 1.389 . S
C2989 H2968 0.950 . S
C2989 C2988 1.373 . S
C2989 C3005 1.377 . S
C2990 C2988 1.389 . S
C2990 C2991 1.524 . S
C2990 C3004 1.377 . S
C2991 C2990 1.524 . S
C2991 C2992 1.397 . S
C2991 C2996 1.363 . S
C2992 H2969 0.950 . S
C2992 C2991 1.397 . S
C2992 C2993 1.334 . S
C2993 H2970 0.950 . S
C2993 C2992 1.334 . S
C2993 C2994 1.287 . S
C2994 C2993 1.287 . S
C2994 C2995 1.524 . S
C2994 H3013 0.913 . S
C2995 H2971 0.950 . S
C2995 C2994 1.524 . S
C2995 C2996 1.415 . S
C2996 H2972 0.950 . S
C2996 C2991 1.363 . S
C2996 C2995 1.415 . S
C2997 H2973 0.951 . S
C2997 C2998 1.366 . S
C2997 C2999 1.388 . S
C2998 C2997 1.366 . S
C2998 C3002 1.385 . S
C2999 H2974 0.951 . S
C2999 C2997 1.388 . S
C2999 C3000 1.366 . S
C3000 C2999 1.366 . S
C3000 C3001 1.414 . S
C3000 C3003 1.499 . S
C3001 H2975 0.950 . S
C3001 C3000 1.414 . S
C3001 C3002 1.374 . S
C3002 H2976 0.950 . S
C3002 C2998 1.385 . S
C3002 C3001 1.374 . S
C3003 C3000 1.499 . S
C3003 C3004 1.373 . S
C3003 C3005 1.389 . S
C3004 H2977 0.950 . S
C3004 C2990 1.377 . S
C3004 C3003 1.373 . S
C3005 C2989 1.377 . S
C3005 C3003 1.389 . S
C3005 C3006 1.524 . S
C3006 C3005 1.524 . S
C3006 C3007 1.397 . S
C3006 C3011 1.363 . S
C3007 H2978 0.950 . S
C3007 C3006 1.397 . S
C3007 C3008 1.334 . S
C3008 H2979 0.950 . S
C3008 C3007 1.334 . S
C3008 C3009 1.287 . S
C3009 C3008 1.287 . S
C3009 C3010 1.524 . S
C3009 H3012 0.999 . S
C3010 H2980 0.950 . S
C3010 C3009 1.524 . S
C3010 C3011 1.415 . S
C3011 H2981 0.950 . S
C3011 C3006 1.363 . S
C3011 C3010 1.415 . S
H3012 C3009 0.999 . S
H3013 C2994 0.913 . S
H3014 C3032 0.951 . S
H3015 C3034 0.951 . S
H3016 C3036 0.950 . S
H3017 C3037 0.950 . S
H3018 C3039 0.950 . S
H3019 C3042 0.950 . S
H3020 C3043 0.950 . S
H3021 C3045 0.950 . S
H3022 C3046 0.950 . S
H3023 C3047 0.951 . S
H3024 C3049 0.951 . S
H3025 C3051 0.950 . S
H3026 C3052 0.950 . S
H3027 C3054 0.950 . S
H3028 C3057 0.950 . S
H3029 C3058 0.950 . S
H3030 C3060 0.950 . S
H3031 C3061 0.950 . S
C3032 H3014 0.951 . S
C3032 C3033 1.366 . S
C3032 C3034 1.388 . S
C3033 C3032 1.366 . S
C3033 C3037 1.385 . S
C3034 H3015 0.951 . S
C3034 C3032 1.388 . S
C3034 C3035 1.366 . S
C3035 C3034 1.366 . S
C3035 C3036 1.414 . S
C3035 C3038 1.499 . S
C3036 H3016 0.950 . S
C3036 C3035 1.414 . S
C3036 C3037 1.374 . S
C3037 H3017 0.950 . S
C3037 C3033 1.385 . S
C3037 C3036 1.374 . S
C3038 C3035 1.499 . S
C3038 C3039 1.373 . S
C3038 C3040 1.389 . S
C3039 H3018 0.950 . S
C3039 C3038 1.373 . S
C3039 C3055 1.377 . S
C3040 C3038 1.389 . S
C3040 C3041 1.524 . S
C3040 C3054 1.377 . S
C3041 C3040 1.524 . S
C3041 C3042 1.397 . S
C3041 C3046 1.363 . S
C3042 H3019 0.950 . S
C3042 C3041 1.397 . S
C3042 C3043 1.334 . S
C3043 H3020 0.950 . S
C3043 C3042 1.334 . S
C3043 C3044 1.287 . S
C3044 C3043 1.287 . S
C3044 C3045 1.524 . S
C3044 H3063 0.913 . S
C3045 H3021 0.950 . S
C3045 C3044 1.524 . S
C3045 C3046 1.415 . S
C3046 H3022 0.950 . S
C3046 C3041 1.363 . S
C3046 C3045 1.415 . S
C3047 H3023 0.951 . S
C3047 C3048 1.366 . S
C3047 C3049 1.388 . S
C3048 C3047 1.366 . S
C3048 C3052 1.385 . S
C3049 H3024 0.951 . S
C3049 C3047 1.388 . S
C3049 C3050 1.366 . S
C3050 C3049 1.366 . S
C3050 C3051 1.414 . S
C3050 C3053 1.499 . S
C3051 H3025 0.950 . S
C3051 C3050 1.414 . S
C3051 C3052 1.374 . S
C3052 H3026 0.950 . S
C3052 C3048 1.385 . S
C3052 C3051 1.374 . S
C3053 C3050 1.499 . S
C3053 C3054 1.373 . S
C3053 C3055 1.389 . S
C3054 H3027 0.950 . S
C3054 C3040 1.377 . S
C3054 C3053 1.373 . S
C3055 C3039 1.377 . S
C3055 C3053 1.389 . S
C3055 C3056 1.524 . S
C3056 C3055 1.524 . S
C3056 C3057 1.397 . S
C3056 C3061 1.363 . S
C3057 H3028 0.950 . S
C3057 C3056 1.397 . S
C3057 C3058 1.334 . S
C3058 H3029 0.950 . S
C3058 C3057 1.334 . S
C3058 C3059 1.287 . S
C3059 C3058 1.287 . S
C3059 C3060 1.524 . S
C3059 H3062 0.999 . S
C3060 H3030 0.950 . S
C3060 C3059 1.524 . S
C3060 C3061 1.415 . S
C3061 H3031 0.950 . S
C3061 C3056 1.363 . S
C3061 C3060 1.415 . S
H3062 C3059 0.999 . S
H3063 C3044 0.913 . S
H3064 C3082 0.951 . S
H3065 C3084 0.951 . S
H3066 C3086 0.950 . S
H3067 C3087 0.950 . S
H3068 C3089 0.950 . S
H3069 C3092 0.950 . S
H3070 C3093 0.950 . S
H3071 C3095 0.950 . S
H3072 C3096 0.950 . S
H3073 C3097 0.951 . S
H3074 C3099 0.951 . S
H3075 C3101 0.950 . S
H3076 C3102 0.950 . S
H3077 C3104 0.950 . S
H3078 C3107 0.950 . S
H3079 C3108 0.950 . S
H3080 C3110 0.950 . S
H3081 C3111 0.950 . S
C3082 H3064 0.951 . S
C3082 C3083 1.366 . S
C3082 C3084 1.388 . S
C3083 C3082 1.366 . S
C3083 C3087 1.385 . S
C3084 H3065 0.951 . S
C3084 C3082 1.388 . S
C3084 C3085 1.366 . S
C3085 C3084 1.366 . S
C3085 C3086 1.414 . S
C3085 C3088 1.499 . S
C3086 H3066 0.950 . S
C3086 C3085 1.414 . S
C3086 C3087 1.374 . S
C3087 H3067 0.950 . S
C3087 C3083 1.385 . S
C3087 C3086 1.374 . S
C3088 C3085 1.499 . S
C3088 C3089 1.373 . S
C3088 C3090 1.389 . S
C3089 H3068 0.950 . S
C3089 C3088 1.373 . S
C3089 C3105 1.377 . S
C3090 C3088 1.389 . S
C3090 C3091 1.524 . S
C3090 C3104 1.377 . S
C3091 C3090 1.524 . S
C3091 C3092 1.397 . S
C3091 C3096 1.363 . S
C3092 H3069 0.950 . S
C3092 C3091 1.397 . S
C3092 C3093 1.334 . S
C3093 H3070 0.950 . S
C3093 C3092 1.334 . S
C3093 C3094 1.287 . S
C3094 C3093 1.287 . S
C3094 C3095 1.524 . S
C3094 H3113 0.913 . S
C3095 H3071 0.950 . S
C3095 C3094 1.524 . S
C3095 C3096 1.415 . S
C3096 H3072 0.950 . S
C3096 C3091 1.363 . S
C3096 C3095 1.415 . S
C3097 H3073 0.951 . S
C3097 C3098 1.366 . S
C3097 C3099 1.388 . S
C3098 C3097 1.366 . S
C3098 C3102 1.385 . S
C3099 H3074 0.951 . S
C3099 C3097 1.388 . S
C3099 C3100 1.366 . S
C3100 C3099 1.366 . S
C3100 C3101 1.414 . S
C3100 C3103 1.499 . S
C3101 H3075 0.950 . S
C3101 C3100 1.414 . S
C3101 C3102 1.374 . S
C3102 H3076 0.950 . S
C3102 C3098 1.385 . S
C3102 C3101 1.374 . S
C3103 C3100 1.499 . S
C3103 C3104 1.373 . S
C3103 C3105 1.389 . S
C3104 H3077 0.950 . S
C3104 C3090 1.377 . S
C3104 C3103 1.373 . S
C3105 C3089 1.377 . S
C3105 C3103 1.389 . S
C3105 C3106 1.524 . S
C3106 C3105 1.524 . S
C3106 C3107 1.397 . S
C3106 C3111 1.363 . S
C3107 H3078 0.950 . S
C3107 C3106 1.397 . S
C3107 C3108 1.334 . S
C3108 H3079 0.950 . S
C3108 C3107 1.334 . S
C3108 C3109 1.287 . S
C3109 C3108 1.287 . S
C3109 C3110 1.524 . S
C3109 H3112 0.999 . S
C3110 H3080 0.950 . S
C3110 C3109 1.524 . S
C3110 C3111 1.415 . S
C3111 H3081 0.950 . S
C3111 C3106 1.363 . S
C3111 C3110 1.415 . S
H3112 C3109 0.999 . S
H3113 C3094 0.913 . S
H3114 C3132 0.951 . S
H3115 C3134 0.951 . S
H3116 C3136 0.950 . S
H3117 C3137 0.950 . S
H3118 C3139 0.950 . S
H3119 C3142 0.950 . S
H3120 C3143 0.950 . S
H3121 C3145 0.950 . S
H3122 C3146 0.950 . S
H3123 C3147 0.951 . S
H3124 C3149 0.951 . S
H3125 C3151 0.950 . S
H3126 C3152 0.950 . S
H3127 C3154 0.950 . S
H3128 C3157 0.950 . S
H3129 C3158 0.950 . S
H3130 C3160 0.950 . S
H3131 C3161 0.950 . S
C3132 H3114 0.951 . S
C3132 C3133 1.366 . S
C3132 C3134 1.388 . S
C3133 C3132 1.366 . S
C3133 C3137 1.385 . S
C3134 H3115 0.951 . S
C3134 C3132 1.388 . S
C3134 C3135 1.366 . S
C3135 C3134 1.366 . S
C3135 C3136 1.414 . S
C3135 C3138 1.499 . S
C3136 H3116 0.950 . S
C3136 C3135 1.414 . S
C3136 C3137 1.374 . S
C3137 H3117 0.950 . S
C3137 C3133 1.385 . S
C3137 C3136 1.374 . S
C3138 C3135 1.499 . S
C3138 C3139 1.373 . S
C3138 C3140 1.389 . S
C3139 H3118 0.950 . S
C3139 C3138 1.373 . S
C3139 C3155 1.377 . S
C3140 C3138 1.389 . S
C3140 C3141 1.524 . S
C3140 C3154 1.377 . S
C3141 C3140 1.524 . S
C3141 C3142 1.397 . S
C3141 C3146 1.363 . S
C3142 H3119 0.950 . S
C3142 C3141 1.397 . S
C3142 C3143 1.334 . S
C3143 H3120 0.950 . S
C3143 C3142 1.334 . S
C3143 C3144 1.287 . S
C3144 C3143 1.287 . S
C3144 C3145 1.524 . S
C3144 H3163 0.913 . S
C3145 H3121 0.950 . S
C3145 C3144 1.524 . S
C3145 C3146 1.415 . S
C3146 H3122 0.950 . S
C3146 C3141 1.363 . S
C3146 C3145 1.415 . S
C3147 H3123 0.951 . S
C3147 C3148 1.366 . S
C3147 C3149 1.388 . S
C3148 C3147 1.366 . S
C3148 C3152 1.385 . S
C3149 H3124 0.951 . S
C3149 C3147 1.388 . S
C3149 C3150 1.366 . S
C3150 C3149 1.366 . S
C3150 C3151 1.414 . S
C3150 C3153 1.499 . S
C3151 H3125 0.950 . S
C3151 C3150 1.414 . S
C3151 C3152 1.374 . S
C3152 H3126 0.950 . S
C3152 C3148 1.385 . S
C3152 C3151 1.374 . S
C3153 C3150 1.499 . S
C3153 C3154 1.373 . S
C3153 C3155 1.389 . S
C3154 H3127 0.950 . S
C3154 C3140 1.377 . S
C3154 C3153 1.373 . S
C3155 C3139 1.377 . S
C3155 C3153 1.389 . S
C3155 C3156 1.524 . S
C3156 C3155 1.524 . S
C3156 C3157 1.397 . S
C3156 C3161 1.363 . S
C3157 H3128 0.950 . S
C3157 C3156 1.397 . S
C3157 C3158 1.334 . S
C3158 H3129 0.950 . S
C3158 C3157 1.334 . S
C3158 C3159 1.287 . S
C3159 C3158 1.287 . S
C3159 C3160 1.524 . S
C3159 H3162 0.999 . S
C3160 H3130 0.950 . S
C3160 C3159 1.524 . S
C3160 C3161 1.415 . S
C3161 H3131 0.950 . S
C3161 C3156 1.363 . S
C3161 C3160 1.415 . S
H3162 C3159 0.999 . S
H3163 C3144 0.913 . S
H3164 C3182 0.951 . S
H3165 C3184 0.951 . S
H3166 C3186 0.950 . S
H3167 C3187 0.950 . S
H3168 C3189 0.950 . S
H3169 C3192 0.950 . S
H3170 C3193 0.950 . S
H3171 C3195 0.950 . S
H3172 C3196 0.950 . S
H3173 C3197 0.951 . S
H3174 C3199 0.951 . S
H3175 C3201 0.950 . S
H3176 C3202 0.950 . S
H3177 C3204 0.950 . S
H3178 C3207 0.950 . S
H3179 C3208 0.950 . S
H3180 C3210 0.950 . S
H3181 C3211 0.950 . S
C3182 H3164 0.951 . S
C3182 C3183 1.366 . S
C3182 C3184 1.388 . S
C3183 C3182 1.366 . S
C3183 C3187 1.385 . S
C3184 H3165 0.951 . S
C3184 C3182 1.388 . S
C3184 C3185 1.366 . S
C3185 C3184 1.366 . S
C3185 C3186 1.414 . S
C3185 C3188 1.499 . S
C3186 H3166 0.950 . S
C3186 C3185 1.414 . S
C3186 C3187 1.374 . S
C3187 H3167 0.950 . S
C3187 C3183 1.385 . S
C3187 C3186 1.374 . S
C3188 C3185 1.499 . S
C3188 C3189 1.373 . S
C3188 C3190 1.389 . S
C3189 H3168 0.950 . S
C3189 C3188 1.373 . S
C3189 C3205 1.377 . S
C3190 C3188 1.389 . S
C3190 C3191 1.524 . S
C3190 C3204 1.377 . S
C3191 C3190 1.524 . S
C3191 C3192 1.397 . S
C3191 C3196 1.363 . S
C3192 H3169 0.950 . S
C3192 C3191 1.397 . S
C3192 C3193 1.334 . S
C3193 H3170 0.950 . S
C3193 C3192 1.334 . S
C3193 C3194 1.287 . S
C3194 C3193 1.287 . S
C3194 C3195 1.524 . S
C3194 H3213 0.913 . S
C3195 H3171 0.950 . S
C3195 C3194 1.524 . S
C3195 C3196 1.415 . S
C3196 H3172 0.950 . S
C3196 C3191 1.363 . S
C3196 C3195 1.415 . S
C3197 H3173 0.951 . S
C3197 C3198 1.366 . S
C3197 C3199 1.388 . S
C3198 C3197 1.366 . S
C3198 C3202 1.385 . S
C3199 H3174 0.951 . S
C3199 C3197 1.388 . S
C3199 C3200 1.366 . S
C3200 C3199 1.366 . S
C3200 C3201 1.414 . S
C3200 C3203 1.499 . S
C3201 H3175 0.950 . S
C3201 C3200 1.414 . S
C3201 C3202 1.374 . S
C3202 H3176 0.950 . S
C3202 C3198 1.385 . S
C3202 C3201 1.374 . S
C3203 C3200 1.499 . S
C3203 C3204 1.373 . S
C3203 C3205 1.389 . S
C3204 H3177 0.950 . S
C3204 C3190 1.377 . S
C3204 C3203 1.373 . S
C3205 C3189 1.377 . S
C3205 C3203 1.389 . S
C3205 C3206 1.524 . S
C3206 C3205 1.524 . S
C3206 C3207 1.397 . S
C3206 C3211 1.363 . S
C3207 H3178 0.950 . S
C3207 C3206 1.397 . S
C3207 C3208 1.334 . S
C3208 H3179 0.950 . S
C3208 C3207 1.334 . S
C3208 C3209 1.287 . S
C3209 C3208 1.287 . S
C3209 C3210 1.524 . S
C3209 H3212 0.999 . S
C3210 H3180 0.950 . S
C3210 C3209 1.524 . S
C3210 C3211 1.415 . S
C3211 H3181 0.950 . S
C3211 C3206 1.363 . S
C3211 C3210 1.415 . S
H3212 C3209 0.999 . S
H3213 C3194 0.913 . S
H3214 C3232 0.951 . S
H3215 C3234 0.951 . S
H3216 C3236 0.950 . S
H3217 C3237 0.950 . S
H3218 C3239 0.950 . S
H3219 C3242 0.950 . S
H3220 C3243 0.950 . S
H3221 C3245 0.950 . S
H3222 C3246 0.950 . S
H3223 C3247 0.951 . S
H3224 C3249 0.951 . S
H3225 C3251 0.950 . S
H3226 C3252 0.950 . S
H3227 C3254 0.950 . S
H3228 C3257 0.950 . S
H3229 C3258 0.950 . S
H3230 C3260 0.950 . S
H3231 C3261 0.950 . S
C3232 H3214 0.951 . S
C3232 C3233 1.366 . S
C3232 C3234 1.388 . S
C3233 C3232 1.366 . S
C3233 C3237 1.385 . S
C3234 H3215 0.951 . S
C3234 C3232 1.388 . S
C3234 C3235 1.366 . S
C3235 C3234 1.366 . S
C3235 C3236 1.414 . S
C3235 C3238 1.499 . S
C3236 H3216 0.950 . S
C3236 C3235 1.414 . S
C3236 C3237 1.374 . S
C3237 H3217 0.950 . S
C3237 C3233 1.385 . S
C3237 C3236 1.374 . S
C3238 C3235 1.499 . S
C3238 C3239 1.373 . S
C3238 C3240 1.389 . S
C3239 H3218 0.950 . S
C3239 C3238 1.373 . S
C3239 C3255 1.377 . S
C3240 C3238 1.389 . S
C3240 C3241 1.524 . S
C3240 C3254 1.377 . S
C3241 C3240 1.524 . S
C3241 C3242 1.397 . S
C3241 C3246 1.363 . S
C3242 H3219 0.950 . S
C3242 C3241 1.397 . S
C3242 C3243 1.334 . S
C3243 H3220 0.950 . S
C3243 C3242 1.334 . S
C3243 C3244 1.287 . S
C3244 C3243 1.287 . S
C3244 C3245 1.524 . S
C3244 H3263 0.913 . S
C3245 H3221 0.950 . S
C3245 C3244 1.524 . S
C3245 C3246 1.415 . S
C3246 H3222 0.950 . S
C3246 C3241 1.363 . S
C3246 C3245 1.415 . S
C3247 H3223 0.951 . S
C3247 C3248 1.366 . S
C3247 C3249 1.388 . S
C3248 C3247 1.366 . S
C3248 C3252 1.385 . S
C3249 H3224 0.951 . S
C3249 C3247 1.388 . S
C3249 C3250 1.366 . S
C3250 C3249 1.366 . S
C3250 C3251 1.414 . S
C3250 C3253 1.499 . S
C3251 H3225 0.950 . S
C3251 C3250 1.414 . S
C3251 C3252 1.374 . S
C3252 H3226 0.950 . S
C3252 C3248 1.385 . S
C3252 C3251 1.374 . S
C3253 C3250 1.499 . S
C3253 C3254 1.373 . S
C3253 C3255 1.389 . S
C3254 H3227 0.950 . S
C3254 C3240 1.377 . S
C3254 C3253 1.373 . S
C3255 C3239 1.377 . S
C3255 C3253 1.389 . S
C3255 C3256 1.524 . S
C3256 C3255 1.524 . S
C3256 C3257 1.397 . S
C3256 C3261 1.363 . S
C3257 H3228 0.950 . S
C3257 C3256 1.397 . S
C3257 C3258 1.334 . S
C3258 H3229 0.950 . S
C3258 C3257 1.334 . S
C3258 C3259 1.287 . S
C3259 C3258 1.287 . S
C3259 C3260 1.524 . S
C3259 H3262 0.999 . S
C3260 H3230 0.950 . S
C3260 C3259 1.524 . S
C3260 C3261 1.415 . S
C3261 H3231 0.950 . S
C3261 C3256 1.363 . S
C3261 C3260 1.415 . S
H3262 C3259 0.999 . S
H3263 C3244 0.913 . S
C898 C689 1.590 . S
C883 C74 1.576 . S
C948 C694 1.311 . S
C933 C153 1.235 . S
C998 C695 1.536 . S
C983 C231 1.526 . S
C1033 C310 0.797 . S
C1048 C699 0.551 . S
C1083 C394 1.235 . S
C1098 C702 1.311 . S
C1148 C703 1.535 . S
C1133 C494 1.519 . S
C1183 C573 0.797 . S
C1198 C680 0.551 . S
C1233 C651 1.580 . S
C1248 C696 1.593 . S
C1298 C734 2.341 . S
C1283 C56 2.421 . S
C1333 C151 1.527 . S
C1348 C760 1.487 . S
C1398 C712 1.293 . S
C1383 C237 1.230 . S
C1448 C767 1.488 . S
C1433 C326 1.478 . S
C1483 C410 1.509 . S
C1498 C721 1.507 . S
C1548 C763 2.328 . S
C1533 C476 2.408 . S
C1583 C571 1.547 . S
C1598 C727 1.510 . S
C1633 C657 1.223 . S
C1648 C758 1.289 . S
C1683 C58 1.221 . S
C1698 C766 1.279 . S
C1733 C392 1.527 . S
C1748 C753 1.491 . S
C1798 C731 1.292 . S
C1783 C478 1.232 . S
C1848 C759 1.488 . S
C1833 C567 1.486 . S
C1883 C655 2.425 . S
C1898 C726 2.345 . S
C1933 C235 2.408 . S
C1948 C744 2.328 . S
C1998 C735 1.509 . S
C1983 C308 1.547 . S
C2033 C147 1.509 . S
C2048 C728 1.500 . S
C2083 C662 1.546 . S
C2098 C790 1.533 . S
C2133 C405 1.202 . S
C2148 C785 1.280 . S
C2198 C799 1.466 . S
C2183 C483 1.500 . S
C2248 C776 0.417 . S
C2233 C562 0.818 . S
C2283 C142 1.204 . S
C2298 C792 1.276 . S
C2348 C791 1.466 . S
C2333 C242 1.495 . S
C2383 C321 0.817 . S
C2398 C795 0.420 . S
C2433 C63 1.546 . S
C2448 C798 1.528 . S
C2483 C644 2.431 . S
C2498 C824 2.383 . S
C2548 C840 1.474 . S
C2533 C403 1.544 . S
C2583 C489 1.236 . S
C2598 C822 1.305 . S
C2633 C578 1.504 . S
C2648 C855 1.501 . S
C2698 C831 1.478 . S
C2683 C158 1.494 . S
C2733 C224 2.446 . S
C2748 C849 2.380 . S
C2798 C827 1.462 . S
C2783 C319 1.530 . S
C2848 C862 1.313 . S
C2833 C69 1.243 . S
C2898 C854 1.313 . S
C2883 C646 1.251 . S
C2933 C140 1.542 . S
C2948 C859 1.471 . S
C2983 C226 1.236 . S
C2998 C830 1.311 . S
C3048 C863 1.502 . S
C3033 C315 1.505 . S
C3083 C67 2.431 . S
C3098 C817 2.378 . S
C3133 C487 2.446 . S
C3148 C856 2.375 . S
C3198 C808 1.462 . S
C3183 C560 1.532 . S
C3248 C823 1.478 . S
C3233 C399 1.490 . S
